50225098
     RDKit          3D

 46 49  0  0  1  0  0  0  0  0999 V2000
    6.0527   -1.3710  -21.9482 C   0  0  0  0  0  0  0  0  0  0  0  0
    6.5090   -0.3417  -22.7735 C   0  0  0  0  0  0  0  0  0  0  0  0
    5.4093    0.2711  -20.2659 C   0  0  0  0  0  0  0  0  0  0  0  0
    3.9860   -2.0170  -18.9372 C   0  0  0  0  0  0  0  0  0  0  0  0
    5.7765   -3.4078  -19.8177 C   0  0  0  0  0  0  0  0  0  0  0  0
    4.3550   -4.2967  -18.1835 C   0  0  0  0  0  0  0  0  0  0  0  0
    5.5091   -1.0736  -20.6853 C   0  0  0  0  0  0  0  0  0  0  0  0
    5.0834   -2.1723  -19.8036 C   0  0  0  0  0  0  0  0  0  0  0  0
    5.9085    1.3225  -21.0725 C   0  0  0  0  0  0  0  0  0  0  0  0
    6.4564    0.9939  -22.3460 C   0  0  0  0  0  0  0  0  0  0  0  0
    3.6168   -3.0958  -18.1233 C   0  0  0  0  0  0  0  0  0  0  0  0
    6.4360    2.7928  -19.1151 C   0  0  0  0  0  0  0  0  0  0  0  0
    4.2764    3.5251  -19.0233 C   0  0  0  0  0  0  0  0  0  0  0  0
    6.5642    3.8353  -21.3722 C   0  0  0  0  0  0  0  0  0  0  0  0
    5.8439    2.7581  -20.5117 C   0  0  1  0  0  0  0  0  0  0  0  0
    6.3620    3.7072  -22.8952 C   0  0  0  0  0  0  0  0  0  0  0  0
    7.1262    4.8426  -23.5993 C   0  0  0  0  0  0  0  0  0  0  0  0
    4.8734    3.7478  -23.3161 C   0  0  0  0  0  0  0  0  0  0  0  0
    5.5594    3.4240  -16.8451 C   0  0  0  0  0  0  0  0  0  0  0  0
    5.4117   -4.4353  -19.0183 N   0  0  0  0  0  0  0  0  0  0  0  0
    5.4726    3.3717  -18.3103 N   0  0  0  0  0  0  0  0  0  0  0  0
    4.4424    3.1484  -20.2715 N   0  0  0  0  0  0  0  0  0  0  0  0
    3.0847    4.0004  -18.4972 N   0  0  0  0  0  0  0  0  0  0  0  0
    7.5571    2.4232  -18.7838 O   0  0  0  0  0  0  0  0  0  0  0  0
    7.1272    2.1667  -23.4439 S   0  0  0  0  0  0  0  0  0  0  0  0
    2.2455   -2.9510  -17.0566 Cl  0  0  0  0  0  0  0  0  0  0  0  0
    6.1171   -2.3969  -22.2797 H   0  0  0  0  0  0  0  0  0  0  0  0
    6.9062   -0.5755  -23.7502 H   0  0  0  0  0  0  0  0  0  0  0  0
    4.9463    0.5006  -19.3176 H   0  0  0  0  0  0  0  0  0  0  0  0
    3.4399   -1.0860  -18.9003 H   0  0  0  0  0  0  0  0  0  0  0  0
    6.6174   -3.5320  -20.4838 H   0  0  0  0  0  0  0  0  0  0  0  0
    4.0707   -5.1236  -17.5497 H   0  0  0  0  0  0  0  0  0  0  0  0
    6.1914    4.8227  -21.0620 H   0  0  0  0  0  0  0  0  0  0  0  0
    7.6427    3.7692  -21.1661 H   0  0  0  0  0  0  0  0  0  0  0  0
    6.9874    4.7590  -24.6873 H   0  0  0  0  0  0  0  0  0  0  0  0
    6.7404    5.8132  -23.2542 H   0  0  0  0  0  0  0  0  0  0  0  0
    8.1971    4.7674  -23.3596 H   0  0  0  0  0  0  0  0  0  0  0  0
    4.7983    3.6520  -24.4094 H   0  0  0  0  0  0  0  0  0  0  0  0
    4.3344    2.9169  -22.8375 H   0  0  0  0  0  0  0  0  0  0  0  0
    4.4292    4.7033  -23.0005 H   0  0  0  0  0  0  0  0  0  0  0  0
    4.6720    3.9343  -16.4427 H   0  0  0  0  0  0  0  0  0  0  0  0
    5.6073    2.4008  -16.4441 H   0  0  0  0  0  0  0  0  0  0  0  0
    6.4644    3.9758  -16.5510 H   0  0  0  0  0  0  0  0  0  0  0  0
    3.7193    3.1293  -20.9619 H   0  0  0  0  0  0  0  0  0  0  0  0
    2.2754    4.0749  -19.0798 H   0  0  0  0  0  0  0  0  0  0  0  0
    3.0347    4.2687  -17.5351 H   0  0  0  0  0  0  0  0  0  0  0  0
  1  2  2  0
  1  7  1  0
  2 10  1  0
  3  7  2  0
  3  9  1  0
  4  8  2  0
  4 11  1  0
  5  8  1  0
  5 20  2  0
  6 11  2  0
  6 20  1  0
  7  8  1  0
  9 10  2  0
  9 15  1  0
 10 25  1  0
 11 26  1  0
 12 15  1  0
 12 21  1  0
 12 24  2  0
 13 21  1  0
 13 22  2  0
 13 23  1  0
 15 14  1  6
 14 16  1  0
 15 22  1  0
 16 17  1  0
 16 18  1  0
 16 25  1  0
 19 21  1  0
  1 27  1  0
  2 28  1  0
  3 29  1  0
  4 30  1  0
  5 31  1  0
  6 32  1  0
 14 33  1  0
 14 34  1  0
 17 35  1  0
 17 36  1  0
 17 37  1  0
 18 38  1  0
 18 39  1  0
 18 40  1  0
 19 41  1  0
 19 42  1  0
 19 43  1  0
 22 44  1  0
 23 45  1  0
 23 46  1  0
M  CHG  1  22   1
M  END
>  <OMEGA_C>  (1) 
o6/BQLR9r7/xla/Be0nQQNH3rr4WMLbBGxmtQNLIij6EIKLB+Bp/QEAWAcB0f5fBzdi4QIoZWsCo
ip7BxFuLQHB+icDVd5HBb0qwQBprib+Be6XBPquiQI8HC8DZbZ7BnBK9QF1HqT95lKjBqprOQPZw
fj+jxLLBdnpnQN4hRsCG/JDBjvPNQPq8MkCk65jB89eIQAKbYUDAL5jB3A3SQEZ2dUBF+qrBMwG7
QDCEMED6F6TBJJXLQChCbUBWKbfBkgnkQFj2mkB0y7zBPvObQHrbb0B0h7rB/eaxQFoiW0DbwobB
uSytQAjujcCHJZjBfR+vQKrKV0B9e5LBSSiOQPJ/SUATLKLBt2tFQIMDgEA7+pPBCNTxQLQVG0BJ
RZbBUxLkQAirCkAYjbvBwLYPQLzcPMDsc4jBR7/DQG1mGcDPPLLBtP/cQIhUE79fAL7BukeeQHYn
AD9hiprBlyZcQNMBi7/nM5fBIsLTQH4MYsDh3qPB/0KCQKH0o8CvZYzBVCDGQIFTmkAOf6jB35D0
QFk7cUAkVKnB3pjfQHBJmECwf8XBjbHXQGwFukCCCLrBOycDQSuOmEBi4LrBi4uZQA+7aUBsRsPB
PbOKQI6uOkBAs7bB87uNQD6BlkD0ALjB7oCVQGzLe0CTioPB9G6zQMemGUCCjYPBwtzOQAJzfkCM
aITBTAhuQA5GSEALsqfBpJ8RQMplgkBqo5jBxTdCQG6ZiED8R4zBt7DIQMYvr7/nEa/Bu2vWQD0i
ob69iLXBjVmsQFY2cD4sPaLBss2AQBI0BMDU8ZfBNI66QJ5RXcBxuZ7BAgSLQHeCi8DPKpLBe4Oz
QPj/jL9vXqXB5eCkQKW6DcDulp7BriG5QNvTpz9l0ajBB/7OQMpjgj/Yi7LBTbVnQCarScAOrJHB
XBHNQEfaQEDiz5rBIMeHQGBiZEDOYpfBtdezQF5QdEDJba3BCTixQCnCLkAyp6TBJz3bQIqockAF
x7TB3IQCQaGfg0C0yK7BpBbUQBAIm0C/lb3B0Pu5QNFtY0Ciu4fBbo2tQMPkj8B7nZjBam+xQInM
Y0BSTZPB5gmGQNQvNkDfIqDBUXpJQKqlhUBNqJLBMXXwQPvsIkBdzJjBF/jgQNt/DUB9ubvB+RwO
QJ4xQMBaconBKFLOQPfsGMCzg7HBJ/fmQPYFB78q7bzBsdecQCs64D7fsJrBe/JeQHXekL89spfB
9CbWQOcXZcB31aPBsfuAQHg6psB3S43Br1SXQC+ubUC/hbLBkjmzQHd8mUCDa6nBfAgQQeWTgkBc
arTB0WgBQXTEo0CZPavBiwsFQefDV0AqaajBcMTvQIZam0BiBcPBxQG3QMYJk0BUH8LBIF/QQEDJ
ukBB57nBeWafQCNmgUCcgIPBqQ+9QGz9IEAl7YTBM+XXQAQbg0BxHYbB3BZXQHU0HEBKO6PB2mcP
QBOEgkB27ZXByvJQQInTlkAR+YvB

>  <OMEGA_E>  (1) 
eKHCPqAdDj8=

>  <OMEGA_NBR>  (1) 
     90852

$$$$
50225042
     RDKit          3D

 46 49  0  0  1  0  0  0  0  0999 V2000
    6.1039   -1.2683  -21.9933 C   0  0  0  0  0  0  0  0  0  0  0  0
    6.5265   -0.1951  -22.7936 C   0  0  0  0  0  0  0  0  0  0  0  0
    5.4161    0.2971  -20.2580 C   0  0  0  0  0  0  0  0  0  0  0  0
    4.0263   -2.0431  -19.0009 C   0  0  0  0  0  0  0  0  0  0  0  0
    5.8543   -3.3776  -19.8903 C   0  0  0  0  0  0  0  0  0  0  0  0
    4.4370   -4.3266  -18.2828 C   0  0  0  0  0  0  0  0  0  0  0  0
    5.5454   -1.0288  -20.7195 C   0  0  0  0  0  0  0  0  0  0  0  0
    5.1350   -2.1582  -19.8627 C   0  0  0  0  0  0  0  0  0  0  0  0
    5.8819    1.3773  -21.0394 C   0  0  0  0  0  0  0  0  0  0  0  0
    6.4169    1.1282  -22.3299 C   0  0  0  0  0  0  0  0  0  0  0  0
    3.6701   -3.1453  -18.2111 C   0  0  0  0  0  0  0  0  0  0  0  0
    6.4324    2.8230  -19.0838 C   0  0  0  0  0  0  0  0  0  0  0  0
    4.2753    3.5600  -18.9839 C   0  0  0  0  0  0  0  0  0  0  0  0
    6.5598    3.8044  -21.3732 C   0  0  0  0  0  0  0  0  0  0  0  0
    5.8275    2.7890  -20.4678 C   0  0  1  0  0  0  0  0  0  0  0  0
    6.3939    3.4816  -22.8751 C   0  0  0  0  0  0  0  0  0  0  0  0
    7.2756    4.4595  -23.6765 C   0  0  0  0  0  0  0  0  0  0  0  0
    4.9240    3.6380  -23.3471 C   0  0  0  0  0  0  0  0  0  0  0  0
    5.5529    3.4003  -16.8098 C   0  0  0  0  0  0  0  0  0  0  0  0
    5.5059   -4.4257  -19.1084 N   0  0  0  0  0  0  0  0  0  0  0  0
    5.4772    3.4089  -18.2753 N   0  0  0  0  0  0  0  0  0  0  0  0
    4.4384    3.2021  -20.2363 N   0  0  0  0  0  0  0  0  0  0  0  0
    3.0748    3.9976  -18.4481 N   0  0  0  0  0  0  0  0  0  0  0  0
    7.5345    2.3981  -18.7541 O   0  0  0  0  0  0  0  0  0  0  0  0
    6.8646    2.1395  -23.1620 O   0  0  0  0  0  0  0  0  0  0  0  0
    2.2808   -3.0547  -17.1599 Cl  0  0  0  0  0  0  0  0  0  0  0  0
    6.2065   -2.2812  -22.3537 H   0  0  0  0  0  0  0  0  0  0  0  0
    6.9390   -0.3872  -23.7731 H   0  0  0  0  0  0  0  0  0  0  0  0
    4.9572    0.4882  -19.2992 H   0  0  0  0  0  0  0  0  0  0  0  0
    3.4618   -1.1238  -18.9498 H   0  0  0  0  0  0  0  0  0  0  0  0
    6.7023   -3.4735  -20.5521 H   0  0  0  0  0  0  0  0  0  0  0  0
    4.1660   -5.1706  -17.6659 H   0  0  0  0  0  0  0  0  0  0  0  0
    6.1522    4.8077  -21.1804 H   0  0  0  0  0  0  0  0  0  0  0  0
    7.6314    3.7902  -21.1251 H   0  0  0  0  0  0  0  0  0  0  0  0
    7.1742    4.2490  -24.7513 H   0  0  0  0  0  0  0  0  0  0  0  0
    6.9556    5.4922  -23.4734 H   0  0  0  0  0  0  0  0  0  0  0  0
    8.3266    4.3356  -23.3763 H   0  0  0  0  0  0  0  0  0  0  0  0
    4.8550    3.3987  -24.4185 H   0  0  0  0  0  0  0  0  0  0  0  0
    4.2808    2.9521  -22.7762 H   0  0  0  0  0  0  0  0  0  0  0  0
    4.5939    4.6740  -23.1809 H   0  0  0  0  0  0  0  0  0  0  0  0
    4.6813    3.9269  -16.3940 H   0  0  0  0  0  0  0  0  0  0  0  0
    5.5596    2.3611  -16.4492 H   0  0  0  0  0  0  0  0  0  0  0  0
    6.4750    3.9062  -16.4874 H   0  0  0  0  0  0  0  0  0  0  0  0
    3.7200    3.2098  -20.9320 H   0  0  0  0  0  0  0  0  0  0  0  0
    2.2609    4.0560  -19.0262 H   0  0  0  0  0  0  0  0  0  0  0  0
    3.0222    4.2550  -17.4832 H   0  0  0  0  0  0  0  0  0  0  0  0
  1  2  2  0
  1  7  1  0
  2 10  1  0
  3  7  2  0
  3  9  1  0
  4  8  2  0
  4 11  1  0
  5  8  1  0
  5 20  2  0
  6 11  2  0
  6 20  1  0
  7  8  1  0
  9 10  2  0
  9 15  1  0
 10 25  1  0
 11 26  1  0
 12 15  1  0
 12 21  1  0
 12 24  2  0
 13 21  1  0
 13 22  2  0
 13 23  1  0
 15 14  1  6
 14 16  1  0
 15 22  1  0
 16 17  1  0
 16 18  1  0
 16 25  1  0
 19 21  1  0
  1 27  1  0
  2 28  1  0
  3 29  1  0
  4 30  1  0
  5 31  1  0
  6 32  1  0
 14 33  1  0
 14 34  1  0
 17 35  1  0
 17 36  1  0
 17 37  1  0
 18 38  1  0
 18 39  1  0
 18 40  1  0
 19 41  1  0
 19 42  1  0
 19 43  1  0
 22 44  1  0
 23 45  1  0
 23 46  1  0
M  CHG  1  22   1
M  END
>  <OMEGA_C>  (2) 
w1LDQB5Zor818q/B5NjQQDHMR75fWbbBuVCtQFQdmD5NEKLBeNeAQHPCAsDtAZjBWla7QAMqWMBe
H5/BJvyNQMVzisAxQ5LB03OxQOGvg7+cwaXBHlKkQLIfCsDb5p7Btji8QBpLsD/GUKjBClfNQDZq
kD+vo7LB8eJqQANMScBYsJHBmNbNQEGrNECpq5jBBM+IQEHXY0AL35fBQOrRQGh7c0BG/KrBI3u6
QGF+MkAivqPBoJrMQCvSXkA8ALfBENLoQG20jkBkab3Bc5GdQDDUaEDOxrrBsLGxQByeWUBseobB
vTCwQKqfjcD93ZjBd0WvQJ0qWkDiM5LBNAeOQLnuTEAB5KHB7chEQDbYf0CllZPBxxrxQOl6GUBp
CJbBGavbQEbtCECzS7nBV/gRQG5/Q8B5R4nB1pvGQJP/EcBw1LLBLgzeQDE6xr5RL77BdKGeQDH5
+T6xZJrB4I5dQCrYj786mZfBoHnWQJZOXsC/aqTByk+FQPB1pcDDU43Bg97EQNHYmUB1canBnTT0
QCGSckBOAKnBy5LlQM/3h0DCAsbBopTeQOi/r0CIybvB1DkFQTy9ikCsArvBxFubQPeDWUAcWcPB
QvyIQOPvPECSNbbBZwGTQH6RlUBocrnBR82VQPBSe0DgJoPBb+ixQP8bF0Dnl4PB8jLPQPr+eUA7
5oPBRBVuQMdsTUC2dKfB/7IQQKDKgUCxNZjBKGtBQJkoiECU3YvB

>  <OMEGA_E>  (2) 
gHqOPg==

>  <OMEGA_NBR>  (2) 
     86024

$$$$
50225097
     RDKit          3D

 47 50  0  0  1  0  0  0  0  0999 V2000
    6.1014   -1.3198  -21.9642 C   0  0  0  0  0  0  0  0  0  0  0  0
    6.5237   -0.2576  -22.7746 C   0  0  0  0  0  0  0  0  0  0  0  0
    5.3878    0.2667  -20.2579 C   0  0  0  0  0  0  0  0  0  0  0  0
    5.8246   -3.4292  -19.8930 C   0  0  0  0  0  0  0  0  0  0  0  0
    4.0586   -2.0931  -18.9222 C   0  0  0  0  0  0  0  0  0  0  0  0
    4.4273   -4.2996  -18.2387 C   0  0  0  0  0  0  0  0  0  0  0  0
    5.5273   -1.0686  -20.7001 C   0  0  0  0  0  0  0  0  0  0  0  0
    5.1288   -2.2017  -19.8351 C   0  0  0  0  0  0  0  0  0  0  0  0
    6.3996    1.0715  -22.3328 C   0  0  0  0  0  0  0  0  0  0  0  0
    5.8653    1.3421  -21.0488 C   0  0  0  0  0  0  0  0  0  0  0  0
    6.4271    2.7950  -19.1056 C   0  0  0  0  0  0  0  0  0  0  0  0
    4.2819    3.5626  -19.0029 C   0  0  0  0  0  0  0  0  0  0  0  0
    6.9731    2.1656  -23.2076 C   0  0  0  0  0  0  0  0  0  0  0  0
    6.5429    3.8193  -21.3737 C   0  0  0  0  0  0  0  0  0  0  0  0
    5.8190    2.7676  -20.4871 C   0  0  1  0  0  0  0  0  0  0  0  0
    6.3985    3.5603  -22.8888 C   0  0  0  0  0  0  0  0  0  0  0  0
    7.2412    4.6103  -23.6484 C   0  0  0  0  0  0  0  0  0  0  0  0
    4.9238    3.6705  -23.3613 C   0  0  0  0  0  0  0  0  0  0  0  0
    5.5391    3.3236  -16.8272 C   0  0  0  0  0  0  0  0  0  0  0  0
    5.4665   -4.4552  -19.0946 N   0  0  0  0  0  0  0  0  0  0  0  0
    3.7227   -3.1440  -18.1424 N   0  0  0  0  0  0  0  0  0  0  0  0
    5.4771    3.3795  -18.2913 N   0  0  0  0  0  0  0  0  0  0  0  0
    4.4314    3.1772  -20.2482 N   0  0  0  0  0  0  0  0  0  0  0  0
    3.0922    4.0364  -18.4747 N   0  0  0  0  0  0  0  0  0  0  0  0
    7.5319    2.3707  -18.7843 O   0  0  0  0  0  0  0  0  0  0  0  0
    6.2161   -2.3368  -22.3092 H   0  0  0  0  0  0  0  0  0  0  0  0
    6.9480   -0.4615  -23.7466 H   0  0  0  0  0  0  0  0  0  0  0  0
    4.9133    0.4694  -19.3091 H   0  0  0  0  0  0  0  0  0  0  0  0
    6.6486   -3.5470  -20.5811 H   0  0  0  0  0  0  0  0  0  0  0  0
    3.5066   -1.1679  -18.8466 H   0  0  0  0  0  0  0  0  0  0  0  0
    4.1483   -5.1300  -17.6070 H   0  0  0  0  0  0  0  0  0  0  0  0
    8.0631    2.1948  -23.0620 H   0  0  0  0  0  0  0  0  0  0  0  0
    6.7497    1.9270  -24.2579 H   0  0  0  0  0  0  0  0  0  0  0  0
    6.1224    4.8108  -21.1494 H   0  0  0  0  0  0  0  0  0  0  0  0
    7.6133    3.8092  -21.1203 H   0  0  0  0  0  0  0  0  0  0  0  0
    6.8509    5.6168  -23.4374 H   0  0  0  0  0  0  0  0  0  0  0  0
    8.2890    4.5471  -23.3193 H   0  0  0  0  0  0  0  0  0  0  0  0
    7.1840    4.4140  -24.7292 H   0  0  0  0  0  0  0  0  0  0  0  0
    4.5359    4.6720  -23.1237 H   0  0  0  0  0  0  0  0  0  0  0  0
    4.8737    3.5063  -24.4478 H   0  0  0  0  0  0  0  0  0  0  0  0
    4.3165    2.9108  -22.8473 H   0  0  0  0  0  0  0  0  0  0  0  0
    4.6765    3.8580  -16.4025 H   0  0  0  0  0  0  0  0  0  0  0  0
    5.5178    2.2739  -16.4991 H   0  0  0  0  0  0  0  0  0  0  0  0
    6.4700    3.7969  -16.4814 H   0  0  0  0  0  0  0  0  0  0  0  0
    3.7045    3.1647  -20.9348 H   0  0  0  0  0  0  0  0  0  0  0  0
    2.2789    4.1007  -19.0530 H   0  0  0  0  0  0  0  0  0  0  0  0
    3.0467    4.3141  -17.5152 H   0  0  0  0  0  0  0  0  0  0  0  0
  1  2  2  0
  1  7  1  0
  2  9  1  0
  3  7  2  0
  3 10  1  0
  4  8  2  0
  4 20  1  0
  5  8  1  0
  5 21  2  0
  6 20  2  0
  6 21  1  0
  7  8  1  0
  9 10  2  0
  9 13  1  0
 10 15  1  0
 11 15  1  0
 11 22  1  0
 11 25  2  0
 12 22  1  0
 12 23  2  0
 12 24  1  0
 13 16  1  0
 15 14  1  6
 14 16  1  0
 15 23  1  0
 16 17  1  0
 16 18  1  0
 19 22  1  0
  1 26  1  0
  2 27  1  0
  3 28  1  0
  4 29  1  0
  5 30  1  0
  6 31  1  0
 13 32  1  0
 13 33  1  0
 14 34  1  0
 14 35  1  0
 17 36  1  0
 17 37  1  0
 17 38  1  0
 18 39  1  0
 18 40  1  0
 18 41  1  0
 19 42  1  0
 19 43  1  0
 19 44  1  0
 23 45  1  0
 24 46  1  0
 24 47  1  0
M  CHG  1  23   1
M  END
>  <OMEGA_C>  (3) 
7D7DQILvqL++tq/BB8LQQHzog75pMrbB2WisQIaGiD4gEKLBvGK6QOt3W8DVJJ/BK+CBQAT2BcCq
YJfBXKyNQECWicDn6JHB0d+wQC3HiL/NmaXBhR+kQP3oDMAzrp7BzcnMQFQniT+oqbLBOLC7QMXK
qz/iY6jB+arNQNDhMkBL2JjBIgWJQDABZEDzBZjBySPfQPOZCkA7qbnBkF/RQClwdEBF/arBlDW6
QF8gMUB95aPBHsDMQHHbY0BXHLfBTrjnQGuHk0D0L73BfY+dQMLoakDp47rBr0CxQFu2VEABnobB
oe2uQCSRjsC+wZjBQUFuQI43ScCNI5HBv0SvQARJWECEVJLBBM6NQH1XS0BK/KHB6OZFQAIqgUBE
zJPBiQXxQIS5F0AvRpbBJurGQMWNFcBRebLBr1XeQOtH7L4f+b3BrjmdQBxZ8D4XeZrBYsHUQIkB
Y8AJpqTBwmxgQMV+lb/pxZbB976EQNQopMA524zBQgIBQdt2DEAMf7jB5P3XQLKm9j8/EMLB6urD
QMDxmUAFMqnBGaDzQNjJc0Bn9qjBeDrbQPO8s0Dlf7vBjp8EQXiBkUDtjbrB/OLlQLo/jUCB1cXB
YCaRQDGBlUBL/bjBmfWbQPBmYEAflcPBqiCKQMNKOkBSx7bBHaaVQB/pdkA+OIPBnpGwQG2HEUA9
/oPB9wnPQBcBc0Dk2YPBXhZtQOaJSkB9eqfBydkRQNI4g0CVbJjBufxCQEkNikAOH4zBS3HIQJUR
qr/fWa/BZqzTQBHsfb5+7LXBvZytQFKLZj4766HBa+m7QFsYXsCiAp/ByQKCQPPEB8BzDZjB5EqL
QObLisC8oZLBJIy0QLmyjL8QYqXBlzmmQKn9DsAAvp7BqGnLQJFpiT+Do7LBiWS4QJK1qD8Ii6jB
QfbMQB+uQEBOp5rBZtmHQEWzZUAGSpfBQ8jRQNquC0DstLrBJU61QKEmdUCzKa3BhvKwQIUfL0AZ
aaTBSXXYQNdGZECWjbXBCNoCQRYka0Bxn7DBnD7UQOQklECadr7BnSe6QFoLZEA/pIfBhDSuQD7+
j8AH8ZjBhTdqQLQdS8DdHpLBmYexQHlfZECGLpPBmeeFQK8qN0CB/J/BHYxJQCGXhkAsrpLB9zXx
QMELJkB+45jBPQjPQEuxFcAr7LHBWcPiQEuC3L7djr3B9umfQF+Jzz5fHprBI5bXQPbxZcBtF6TB
BCthQKZOmL/ArpfBlbSAQAFypcAbz43BpxXuQJPx+D/MlL/BW1e1QDuuDkDQ4L/B336WQFoxekAz
X7HBYoG8QKQgmUAsLqnBtecEQRdflUAR/qzBT9IEQRCaOUDGcqrBt+0OQeTwYUCG67bBhd3YQP42
tEBhBrvB46bsQL5XjkDaosTBwTa0QCkVkkB0E8LBN8afQPsGgkAdaIPBmue8QAyZIUAJ0YTBF0PY
QIccg0C5DIbBcLVWQDxsHUAoFaPBcawPQMl6g0CYAZbBj7ZQQFX4l0DpBYzB

>  <OMEGA_E>  (3) 
ELbePtqaGD8=

>  <OMEGA_NBR>  (3) 
     87927

$$$$
50225095
     RDKit          3D

 45 48  0  0  1  0  0  0  0  0999 V2000
    6.0628   -1.3906  -21.9192 C   0  0  0  0  0  0  0  0  0  0  0  0
    6.5141   -0.3631  -22.7490 C   0  0  0  0  0  0  0  0  0  0  0  0
    5.4056    0.2547  -20.2453 C   0  0  0  0  0  0  0  0  0  0  0  0
    5.7618   -3.4514  -19.8307 C   0  0  0  0  0  0  0  0  0  0  0  0
    4.0384   -2.0626  -18.8563 C   0  0  0  0  0  0  0  0  0  0  0  0
    4.3407   -4.2812  -18.1783 C   0  0  0  0  0  0  0  0  0  0  0  0
    5.5146   -1.0947  -20.6567 C   0  0  0  0  0  0  0  0  0  0  0  0
    5.0995   -2.2047  -19.7734 C   0  0  0  0  0  0  0  0  0  0  0  0
    5.9030    1.3072  -21.0594 C   0  0  0  0  0  0  0  0  0  0  0  0
    6.4527    0.9744  -22.3314 C   0  0  0  0  0  0  0  0  0  0  0  0
    6.4412    2.7910  -19.1164 C   0  0  0  0  0  0  0  0  0  0  0  0
    4.2852    3.5246  -19.0211 C   0  0  0  0  0  0  0  0  0  0  0  0
    6.5765    3.8172  -21.3726 C   0  0  0  0  0  0  0  0  0  0  0  0
    5.8469    2.7497  -20.5091 C   0  0  1  0  0  0  0  0  0  0  0  0
    6.3709    3.6920  -22.8934 C   0  0  0  0  0  0  0  0  0  0  0  0
    7.1471    4.8225  -23.5939 C   0  0  0  0  0  0  0  0  0  0  0  0
    4.8834    3.7496  -23.3137 C   0  0  0  0  0  0  0  0  0  0  0  0
    5.5519    3.3586  -16.8440 C   0  0  0  0  0  0  0  0  0  0  0  0
    5.3749   -4.4668  -19.0338 N   0  0  0  0  0  0  0  0  0  0  0  0
    3.6739   -3.1036  -18.0765 N   0  0  0  0  0  0  0  0  0  0  0  0
    5.4841    3.3778  -18.3104 N   0  0  0  0  0  0  0  0  0  0  0  0
    4.4508    3.1549  -20.2712 N   0  0  0  0  0  0  0  0  0  0  0  0
    3.0848    3.9651  -18.4852 N   0  0  0  0  0  0  0  0  0  0  0  0
    7.5568    2.4049  -18.7854 O   0  0  0  0  0  0  0  0  0  0  0  0
    7.1174    2.1421  -23.4434 S   0  0  0  0  0  0  0  0  0  0  0  0
    6.1345   -2.4171  -22.2471 H   0  0  0  0  0  0  0  0  0  0  0  0
    6.9149   -0.6005  -23.7233 H   0  0  0  0  0  0  0  0  0  0  0  0
    4.9380    0.4875  -19.3000 H   0  0  0  0  0  0  0  0  0  0  0  0
    6.5833   -3.5914  -20.5176 H   0  0  0  0  0  0  0  0  0  0  0  0
    3.5164   -1.1204  -18.7771 H   0  0  0  0  0  0  0  0  0  0  0  0
    4.0341   -5.1051  -17.5510 H   0  0  0  0  0  0  0  0  0  0  0  0
    6.2154    4.8088  -21.0622 H   0  0  0  0  0  0  0  0  0  0  0  0
    7.6546    3.7392  -21.1686 H   0  0  0  0  0  0  0  0  0  0  0  0
    7.0080    4.7438  -24.6822 H   0  0  0  0  0  0  0  0  0  0  0  0
    6.7708    5.7958  -23.2457 H   0  0  0  0  0  0  0  0  0  0  0  0
    8.2171    4.7359  -23.3539 H   0  0  0  0  0  0  0  0  0  0  0  0
    4.8068    3.6550  -24.4069 H   0  0  0  0  0  0  0  0  0  0  0  0
    4.3351    2.9248  -22.8351 H   0  0  0  0  0  0  0  0  0  0  0  0
    4.4502    4.7101  -22.9976 H   0  0  0  0  0  0  0  0  0  0  0  0
    4.6813    3.8877  -16.4292 H   0  0  0  0  0  0  0  0  0  0  0  0
    5.5503    2.3169  -16.4906 H   0  0  0  0  0  0  0  0  0  0  0  0
    6.4753    3.8566  -16.5132 H   0  0  0  0  0  0  0  0  0  0  0  0
    3.7298    3.1494  -20.9641 H   0  0  0  0  0  0  0  0  0  0  0  0
    2.2692    4.0174  -19.0614 H   0  0  0  0  0  0  0  0  0  0  0  0
    3.0346    4.2305  -17.5223 H   0  0  0  0  0  0  0  0  0  0  0  0
  1  2  2  0
  1  7  1  0
  2 10  1  0
  3  7  2  0
  3  9  1  0
  4  8  2  0
  4 19  1  0
  5  8  1  0
  5 20  2  0
  6 19  2  0
  6 20  1  0
  7  8  1  0
  9 10  2  0
  9 14  1  0
 10 25  1  0
 11 14  1  0
 11 21  1  0
 11 24  2  0
 12 21  1  0
 12 22  2  0
 12 23  1  0
 14 13  1  6
 13 15  1  0
 14 22  1  0
 15 16  1  0
 15 17  1  0
 15 25  1  0
 18 21  1  0
  1 26  1  0
  2 27  1  0
  3 28  1  0
  4 29  1  0
  5 30  1  0
  6 31  1  0
 13 32  1  0
 13 33  1  0
 16 34  1  0
 16 35  1  0
 16 36  1  0
 17 37  1  0
 17 38  1  0
 17 39  1  0
 18 40  1  0
 18 41  1  0
 18 42  1  0
 22 43  1  0
 23 44  1  0
 23 45  1  0
M  CHG  1  22   1
M  END
>  <OMEGA_C>  (4) 
jQLCQDT+sb+KWq/BSHPQQI3mub7p/bXBdfqsQKtlgj5y9qHBU2C4QALjXMBOpZ7BrzqBQPQABMCz
2ZbBHOeKQL3/iMAlbZHBgXewQGYgjL/yQKXBPy+jQDsaDcDhL57BveW8QORQpz+ueajBIXzOQKRx
eT+cprLBZB7OQPieMkBT7pjBOSCJQGiSYUBNK5jBWXLSQJBNdEAA+6rBbRm7QCH7L0CJEqTBzN7L
QOxJbEC1JbfBsrTkQBxSmkBMwLzBC0WcQPz5b0BlgrrBfKmxQDTzVkCNwIbBPv+rQEjwjsAwRZjB
eiFrQLGhRsC0nJDBFX6vQA8tWECoe5LB22yOQHbpSUBlK6LBBW1FQCLEfUCf4ZPBUNHxQIPpGUB9
SJbBuMHjQHoYCUAJjLvBxk3EQNmxGsD8+bHBPEfdQB27Gb9ayb3BWASeQHef+T58ZprBZ6rSQGjZ
ZcAdJKTBrgxhQPNpj79uN5bBWReBQExdo8BfaIzBj+TGQBbimUBWf6jBJfL0QOROb0A+WanBSEHg
QDDNl0AxdcXBiKrYQA53uUBK97nBE3kDQX+Ml0DO1LrBV9GZQBnsaUBbQcPBQbmKQH0wO0A4rrbB
8WeOQMK4lkAZ+7fBSc2VQDzQeEAWb4PBdZyxQGNIFEC97IPBjTXPQKjSdkAgG4TBerVuQFOPSUCQ
tqfBQDoRQJiOgEDHfZjBlzZCQHJgh0DCLYzB

>  <OMEGA_E>  (4) 
YKTjPg==

>  <OMEGA_NBR>  (4) 
     88980

$$$$
50225120
     RDKit          3D

 47 50  0  0  1  0  0  0  0  0999 V2000
    6.0599   -1.3595  -21.9388 C   0  0  0  0  0  0  0  0  0  0  0  0
    6.5467   -0.3376  -22.7536 C   0  0  0  0  0  0  0  0  0  0  0  0
    5.4129    0.2855  -20.2610 C   0  0  0  0  0  0  0  0  0  0  0  0
    5.7766   -3.3823  -19.8282 C   0  0  0  0  0  0  0  0  0  0  0  0
    3.9805   -1.9981  -18.9199 C   0  0  0  0  0  0  0  0  0  0  0  0
    4.2801   -4.2921  -18.1401 C   0  0  0  0  0  0  0  0  0  0  0  0
    5.5056   -1.0580  -20.6797 C   0  0  0  0  0  0  0  0  0  0  0  0
    5.0770   -2.1546  -19.7976 C   0  0  0  0  0  0  0  0  0  0  0  0
    5.9288    1.3306  -21.0639 C   0  0  0  0  0  0  0  0  0  0  0  0
    5.3779   -4.4463  -19.0073 C   0  0  0  0  0  0  0  0  0  0  0  0
    6.5022    0.9961  -22.3241 C   0  0  0  0  0  0  0  0  0  0  0  0
    3.5836   -3.0679  -18.0958 C   0  0  0  0  0  0  0  0  0  0  0  0
    6.4557    2.8108  -19.1199 C   0  0  0  0  0  0  0  0  0  0  0  0
    4.2839    3.4989  -19.0110 C   0  0  0  0  0  0  0  0  0  0  0  0
    6.5528    3.8518  -21.3816 C   0  0  0  0  0  0  0  0  0  0  0  0
    5.8552    2.7679  -20.5114 C   0  0  1  0  0  0  0  0  0  0  0  0
    6.3713    3.6892  -22.9038 C   0  0  0  0  0  0  0  0  0  0  0  0
    7.1010    4.8371  -23.6216 C   0  0  0  0  0  0  0  0  0  0  0  0
    4.8862    3.6663  -23.3418 C   0  0  0  0  0  0  0  0  0  0  0  0
    5.5680    3.3642  -16.8396 C   0  0  0  0  0  0  0  0  0  0  0  0
    5.4885    3.3704  -18.3058 N   0  0  0  0  0  0  0  0  0  0  0  0
    4.4525    3.1450  -20.2650 N   0  0  0  0  0  0  0  0  0  0  0  0
    3.0780    3.9175  -18.4701 N   0  0  0  0  0  0  0  0  0  0  0  0
    7.5681    2.4146  -18.7897 O   0  0  0  0  0  0  0  0  0  0  0  0
    6.0545   -5.6151  -19.0549 F   0  0  0  0  0  0  0  0  0  0  0  0
    7.1987    2.1661  -23.4036 S   0  0  0  0  0  0  0  0  0  0  0  0
    2.2215   -2.8795  -17.0229 Cl  0  0  0  0  0  0  0  0  0  0  0  0
    6.1082   -2.3849  -22.2743 H   0  0  0  0  0  0  0  0  0  0  0  0
    6.9608   -0.5754  -23.7223 H   0  0  0  0  0  0  0  0  0  0  0  0
    4.9430    0.5194  -19.3171 H   0  0  0  0  0  0  0  0  0  0  0  0
    6.6233   -3.5014  -20.4880 H   0  0  0  0  0  0  0  0  0  0  0  0
    3.4480   -1.0593  -18.8816 H   0  0  0  0  0  0  0  0  0  0  0  0
    3.9716   -5.1120  -17.5085 H   0  0  0  0  0  0  0  0  0  0  0  0
    6.1466    4.8326  -21.0935 H   0  0  0  0  0  0  0  0  0  0  0  0
    7.6303    3.8224  -21.1625 H   0  0  0  0  0  0  0  0  0  0  0  0
    6.9763    4.7283  -24.7091 H   0  0  0  0  0  0  0  0  0  0  0  0
    6.6775    5.7995  -23.2985 H   0  0  0  0  0  0  0  0  0  0  0  0
    8.1715    4.8047  -23.3704 H   0  0  0  0  0  0  0  0  0  0  0  0
    4.8272    3.5485  -24.4338 H   0  0  0  0  0  0  0  0  0  0  0  0
    4.3731    2.8244  -22.8540 H   0  0  0  0  0  0  0  0  0  0  0  0
    4.4029    4.6099  -23.0483 H   0  0  0  0  0  0  0  0  0  0  0  0
    4.6836    3.8674  -16.4217 H   0  0  0  0  0  0  0  0  0  0  0  0
    5.6034    2.3256  -16.4788 H   0  0  0  0  0  0  0  0  0  0  0  0
    6.4770    3.8947  -16.5195 H   0  0  0  0  0  0  0  0  0  0  0  0
    3.7296    3.1333  -20.9558 H   0  0  0  0  0  0  0  0  0  0  0  0
    2.2616    3.9649  -19.0456 H   0  0  0  0  0  0  0  0  0  0  0  0
    3.0247    4.1721  -17.5045 H   0  0  0  0  0  0  0  0  0  0  0  0
  1  2  2  0
  1  7  1  0
  2 11  1  0
  3  7  2  0
  3  9  1  0
  4  8  2  0
  4 10  1  0
  5  8  1  0
  5 12  2  0
  6 10  2  0
  6 12  1  0
  7  8  1  0
  9 11  2  0
  9 16  1  0
 10 25  1  0
 11 26  1  0
 12 27  1  0
 13 16  1  0
 13 21  1  0
 13 24  2  0
 14 21  1  0
 14 22  2  0
 14 23  1  0
 16 15  1  6
 15 17  1  0
 16 22  1  0
 17 18  1  0
 17 19  1  0
 17 26  1  0
 20 21  1  0
  1 28  1  0
  2 29  1  0
  3 30  1  0
  4 31  1  0
  5 32  1  0
  6 33  1  0
 15 34  1  0
 15 35  1  0
 18 36  1  0
 18 37  1  0
 18 38  1  0
 19 39  1  0
 19 40  1  0
 19 41  1  0
 20 42  1  0
 20 43  1  0
 20 44  1  0
 22 45  1  0
 23 46  1  0
 23 47  1  0
M  CHG  1  22   1
M  END
>  <OMEGA_C>  (5) 
/OrBQHIDrr+agq/BlH7RQD/VrL5bB7bBwTatQBIrkj56FqLBxNm4QLp3WMAkoJ7B/79+QM7A/7/7
W5fBx/aIQKRYicDlHpHB9y2wQJZsh7/3b6XBCHeiQKDkCcB6YZ7BArm9QDBSqj/KgqjBvxesQF1I
jsDmDpjBIhLQQCv9fj+pl7LB+VhlQLVXRMAzxJDBZZXOQLnjM0Cd9ZjB8hWJQJXtX0CAFpjBJbDR
QK2DdkCQDavBx127QIQkMUBJF6TBWeHLQLsbbEAKO7fBkTvjQGDJmkAJ+bzBcVucQBGlakDru7rB
cS2yQP9OV0Bot4bBKaKvQEW0V0BhcpLBNnuOQG1HSUC0HqLBT/5EQF+4ekDJwpPBJi7yQGmIGkBi
UZbBp77BQPeus8B5cJjBilvmQLehCkB5OrvBwCwOQC9JOMDgLojBiHbDQEWiGMDAMbLB+L7eQNdL
E787x73BWS2eQA35BD91iZrBIPLTQKMWYMBT56PBZKtcQNGVh7+EDZfBBC5+QKOVo8ByEYzB6rDE
QLCkmkBpv6jBZCv0QPyhdEC3TKnB3D3fQJdOl0A0rMXB3a3VQFuVuUBUY7rBTr4CQXnAmUCI9rrB
BHiaQGgaY0B+eMPBhfCLQL3CNED51LbBl+SMQECEk0DXYrjBR+CVQO+Dd0C+X4PBU0+zQGjXFECH
1IPBVkPPQNVCeUD7J4TBK7JuQEeHSECJpafBW70QQCfBfUBMXZjB55NBQHSBhUBECYzBbB/IQLgi
sb98BK/B5t/VQHHprb4RkbXBjfqtQACfcT4vCaLBtnS5QE9WXMCAgp7BlLh+QNZyAcC5CpjBB5eF
QMVMisCJyJHBW9GzQDr2jL8GOqXBASOkQNatDMDteZ7BvDC6QEa8pj/cwqjB+zWqQE79j8AkM5jB
FOXOQD1Nfz9xnrLBdntgQP4uRcD1s5HB04PNQEt/Q0AEEZvBbp+HQDcNYEBiR5fBQVOyQE+fckDE
tK3Be2yxQFFILkADxqTB7nvYQCtOcUBpeLXB0WQBQdtahUD5CLDB/43OQAy3mEDefb7BI8W6QCF/
YUBc0ofBV4CxQFR0YkBkW5PBzlCGQAt2M0CQJqDBIvJHQBpWgUCzUZLBdzTyQLxEK0CWVpnBAwm/
QFzetcDoSZjB4V3fQKoEC0AhE7zB5PMFQDxMNsC7wInBcA3NQNgiGsA8dbHB0RLmQADmD78L/bzB
o/GfQLq35T5yU5rBIZTVQAIzZcBuaKPB9sBdQF5lib+XAJjBOcNzQL5fpMAn7YzBLBCVQAalakCZ
frLBJvGxQB7gmED0z6nBBXIOQcpXhEDx7rXBifn/QBTzpUCryazBg98EQVK3XUCIfqnB7DfpQMos
mUBMPMTB4wOxQMsEj0A8nsLBhVPKQCvcuECsELvB0aifQDFvfUB7bYPB1Me/QAMgH0AeK4XBeNDX
QBmag0CIPYbBHgZYQOsIGUDUSaPBtt0NQOw+ekCggpXBTItOQHkMkkABjIvB

>  <OMEGA_E>  (5) 
+MipPpavAz8=

>  <OMEGA_NBR>  (5) 
     92752

$$$$
50225103
     RDKit          3D

 48 51  0  0  1  0  0  0  0  0999 V2000
    2.7842   -2.9199  -17.2924 C   0  0  0  0  0  0  0  0  0  0  0  0
    5.7763   -4.3594  -19.0247 C   0  0  0  0  0  0  0  0  0  0  0  0
    4.6636   -4.2373  -18.1725 C   0  0  0  0  0  0  0  0  0  0  0  0
    6.1434   -3.2891  -19.8570 C   0  0  0  0  0  0  0  0  0  0  0  0
    6.3324   -1.2377  -21.9900 C   0  0  0  0  0  0  0  0  0  0  0  0
    6.7199   -0.1813  -22.8181 C   0  0  0  0  0  0  0  0  0  0  0  0
    4.2844   -1.9660  -18.9811 C   0  0  0  0  0  0  0  0  0  0  0  0
    5.6239    0.3584  -20.2959 C   0  0  0  0  0  0  0  0  0  0  0  0
    3.9183   -3.0408  -18.1509 C   0  0  0  0  0  0  0  0  0  0  0  0
    5.3981   -2.0872  -19.8419 C   0  0  0  0  0  0  0  0  0  0  0  0
    5.7835   -0.9737  -20.7217 C   0  0  0  0  0  0  0  0  0  0  0  0
    6.0506    1.4378  -21.1036 C   0  0  0  0  0  0  0  0  0  0  0  0
    6.5923    1.1493  -22.3879 C   0  0  0  0  0  0  0  0  0  0  0  0
    6.4960    2.9077  -19.1360 C   0  0  0  0  0  0  0  0  0  0  0  0
    4.2548    3.3246  -18.9990 C   0  0  0  0  0  0  0  0  0  0  0  0
    6.5460    3.9856  -21.3831 C   0  0  0  0  0  0  0  0  0  0  0  0
    5.8992    2.8563  -20.5319 C   0  0  1  0  0  0  0  0  0  0  0  0
    6.3490    3.8690  -22.9078 C   0  0  0  0  0  0  0  0  0  0  0  0
    7.0748    5.0432  -23.5902 C   0  0  0  0  0  0  0  0  0  0  0  0
    4.8608    3.8687  -23.3264 C   0  0  0  0  0  0  0  0  0  0  0  0
    5.5736    3.3416  -16.8345 C   0  0  0  0  0  0  0  0  0  0  0  0
    1.8570   -2.8234  -16.5926 N   0  0  0  0  0  0  0  0  0  0  0  0
    5.4317    3.0975  -18.2751 N   0  0  0  0  0  0  0  0  0  0  0  0
    4.4737    3.1429  -20.2822 N   0  0  0  0  0  0  0  0  0  0  0  0
    3.0341    3.6861  -18.4511 N   0  0  0  0  0  0  0  0  0  0  0  0
    7.6790    2.7851  -18.8380 O   0  0  0  0  0  0  0  0  0  0  0  0
    7.1642    2.3652  -23.4971 S   0  0  0  0  0  0  0  0  0  0  0  0
    6.3479   -5.2756  -19.0389 H   0  0  0  0  0  0  0  0  0  0  0  0
    4.3800   -5.0610  -17.5341 H   0  0  0  0  0  0  0  0  0  0  0  0
    6.9977   -3.3843  -20.5107 H   0  0  0  0  0  0  0  0  0  0  0  0
    6.4543   -2.2576  -22.3236 H   0  0  0  0  0  0  0  0  0  0  0  0
    7.1214   -0.3900  -23.7987 H   0  0  0  0  0  0  0  0  0  0  0  0
    3.7145   -1.0488  -18.9605 H   0  0  0  0  0  0  0  0  0  0  0  0
    5.1684    0.5592  -19.3374 H   0  0  0  0  0  0  0  0  0  0  0  0
    6.1135    4.9435  -21.0586 H   0  0  0  0  0  0  0  0  0  0  0  0
    7.6273    3.9842  -21.1809 H   0  0  0  0  0  0  0  0  0  0  0  0
    6.9427    4.9731  -24.6799 H   0  0  0  0  0  0  0  0  0  0  0  0
    6.6535    5.9934  -23.2302 H   0  0  0  0  0  0  0  0  0  0  0  0
    8.1469    5.0021  -23.3475 H   0  0  0  0  0  0  0  0  0  0  0  0
    4.7871    3.7835  -24.4206 H   0  0  0  0  0  0  0  0  0  0  0  0
    4.3482    3.0161  -22.8571 H   0  0  0  0  0  0  0  0  0  0  0  0
    4.3878    4.8063  -22.9991 H   0  0  0  0  0  0  0  0  0  0  0  0
    4.5777    3.4581  -16.3820 H   0  0  0  0  0  0  0  0  0  0  0  0
    6.0910    2.4906  -16.3677 H   0  0  0  0  0  0  0  0  0  0  0  0
    6.1586    4.2593  -16.6741 H   0  0  0  0  0  0  0  0  0  0  0  0
    3.7707    3.1921  -20.9917 H   0  0  0  0  0  0  0  0  0  0  0  0
    2.2417    3.8270  -19.0447 H   0  0  0  0  0  0  0  0  0  0  0  0
    2.9456    3.8059  -17.4623 H   0  0  0  0  0  0  0  0  0  0  0  0
  1  9  1  0
  1 22  3  0
  2  3  2  0
  2  4  1  0
  3  9  1  0
  4 10  2  0
  5  6  2  0
  5 11  1  0
  6 13  1  0
  7  9  2  0
  7 10  1  0
  8 11  2  0
  8 12  1  0
 10 11  1  0
 12 13  2  0
 12 17  1  0
 13 27  1  0
 14 17  1  0
 14 23  1  0
 14 26  2  0
 15 23  1  0
 15 24  2  0
 15 25  1  0
 17 16  1  6
 16 18  1  0
 17 24  1  0
 18 19  1  0
 18 20  1  0
 18 27  1  0
 21 23  1  0
  2 28  1  0
  3 29  1  0
  4 30  1  0
  5 31  1  0
  6 32  1  0
  7 33  1  0
  8 34  1  0
 16 35  1  0
 16 36  1  0
 19 37  1  0
 19 38  1  0
 19 39  1  0
 20 40  1  0
 20 41  1  0
 20 42  1  0
 21 43  1  0
 21 44  1  0
 21 45  1  0
 24 46  1  0
 25 47  1  0
 25 48  1  0
M  CHG  1  24   1
M  END
>  <OMEGA_C>  (6) 
njAyQKrfOsDCVorBLte4QECAi8CGMpjBEzyVQMyXh8A5YZHBVZbEQGWAUsAY257BMqPKQPhtnr+D
66/BFQnXQMicOb5mi7bBlRmJQOym+7852ZfBoPazQOJ6tz7yXaLBqcV6QDOcQsAcNZHB77ysQPyU
BcA4vJ7BjBK5QF1Geb/4xaXBU57BQEIIuD8Y1KjBhvTSQK4akz9XGrPBXd/PQA4XOkCBFpnBoSeI
QMPGVED8/ZfBH3nRQEYTf0CVEKvBYMa8QMPNNkBfQaTB0yrLQC6dd0BCQ7fB0WTiQJ1hoUChuLzB
rYubQLiYd0B6nLrBn1qyQF/dVUAWrYbBlLPtPyazNMCevYTBsdCtQOQ8RkBRM5LBqyiPQCwlSUD/
QaLB7y1CQHDoa0Dym5PBI7r1QDI/MkBStJbBe0HlQLZfF0AJ+rvBByLLQMnRqMC9T5jBUSmMQJbz
ocDYRYzBXe3fQB6YWMD3FaTB4InOQEJ9EMDNlrLBO+LjQBivx762Y77BK7ttQMA/hr8Hr5fBWGOl
QAAlDz8Ms5rB1KHDQN4wnkDzd6jBtxL0QDj9fkBpcqnB8ireQF8jn0CGcMXBbenUQAXKv0CM17nB
xVkCQYgRoECbx7rBQzCZQGQlckBxXcPBZCSLQHUHQUBF27bB5GiMQFHNmUAX/rfBtXySQPNQXUBi
DoPB2+nCQK1lH0AO8YLBMBPFQMxLiECjZIXBDlNxQIRLTED77qfBGHgPQEjtdECTW5jBOYU8QPaT
c0DJsovB

>  <OMEGA_E>  (6) 
uMuXPg==

>  <OMEGA_NBR>  (6) 
     59703

$$$$
