50220736
     RDKit          3D

 54 58  0  0  1  0  0  0  0  0999 V2000
    2.8627   -3.0434  -17.4581 C   0  0  0  0  0  0  0  0  0  0  0  0
    5.5128   -4.5111  -19.6642 C   0  0  0  0  0  0  0  0  0  0  0  0
    4.5159   -4.4026  -18.6770 C   0  0  0  0  0  0  0  0  0  0  0  0
    5.8592   -3.3937  -20.4428 C   0  0  0  0  0  0  0  0  0  0  0  0
    4.1898   -2.0607  -19.2603 C   0  0  0  0  0  0  0  0  0  0  0  0
    5.1433    0.3897  -20.6557 C   0  0  0  0  0  0  0  0  0  0  0  0
    6.0903    7.7044  -24.4813 C   0  0  0  0  0  0  0  0  0  0  0  0
    5.1650    5.8972  -25.8036 C   0  0  0  0  0  0  0  0  0  0  0  0
    6.6369   -0.9321  -21.9237 C   0  0  0  0  0  0  0  0  0  0  0  0
    3.8539   -3.1757  -18.4776 C   0  0  0  0  0  0  0  0  0  0  0  0
    5.2099   -2.1548  -20.2359 C   0  0  0  0  0  0  0  0  0  0  0  0
    5.6538   -0.9529  -20.9586 C   0  0  0  0  0  0  0  0  0  0  0  0
    5.6087    7.2264  -25.7138 C   0  0  0  0  0  0  0  0  0  0  0  0
    5.8094    1.3663  -21.3365 C   0  0  0  0  0  0  0  0  0  0  0  0
    5.6195    5.6416  -23.5306 C   0  0  0  0  0  0  0  0  0  0  0  0
    6.7740    3.6320  -19.1432 C   0  0  0  0  0  0  0  0  0  0  0  0
    4.3555    3.3960  -19.1047 C   0  0  0  0  0  0  0  0  0  0  0  0
    6.5418    5.0137  -21.2640 C   0  0  0  0  0  0  0  0  0  0  0  0
    5.3229    3.3986  -22.5755 C   0  0  0  0  0  0  0  0  0  0  0  0
    6.7314    3.6171  -20.6719 C   0  0  2  0  0  0  0  0  0  0  0  0
    5.5226    2.8373  -21.1989 C   0  0  2  0  0  0  0  0  0  0  0  0
    5.6284    8.1063  -26.9313 C   0  0  0  0  0  0  0  0  0  0  0  0
    5.5946    3.5804  -16.9415 C   0  0  0  0  0  0  0  0  0  0  0  0
    2.0576   -2.9226  -16.6239 N   0  0  0  0  0  0  0  0  0  0  0  0
    6.0868    6.9025  -23.4052 N   0  0  0  0  0  0  0  0  0  0  0  0
    5.1664    5.1297  -24.7056 N   0  0  0  0  0  0  0  0  0  0  0  0
    5.6524    4.8135  -22.4410 N   0  0  0  0  0  0  0  0  0  0  0  0
    5.5835    3.4862  -18.4173 N   0  0  0  0  0  0  0  0  0  0  0  0
    4.3053    3.1285  -20.3880 N   0  0  0  0  0  0  0  0  0  0  0  0
    3.1504    3.5859  -18.4423 N   0  0  0  0  0  0  0  0  0  0  0  0
    7.8345    3.8933  -18.5861 O   0  0  0  0  0  0  0  0  0  0  0  0
    7.0124    0.6829  -22.4079 S   0  0  0  0  0  0  0  0  0  0  0  0
    6.0128   -5.4550  -19.8238 H   0  0  0  0  0  0  0  0  0  0  0  0
    4.2585   -5.2599  -18.0726 H   0  0  0  0  0  0  0  0  0  0  0  0
    6.6232   -3.4815  -21.2011 H   0  0  0  0  0  0  0  0  0  0  0  0
    3.6673   -1.1264  -19.1173 H   0  0  0  0  0  0  0  0  0  0  0  0
    4.3313    0.5827  -19.9703 H   0  0  0  0  0  0  0  0  0  0  0  0
    6.4624    8.7152  -24.4013 H   0  0  0  0  0  0  0  0  0  0  0  0
    4.8261    5.4978  -26.7480 H   0  0  0  0  0  0  0  0  0  0  0  0
    7.1125   -1.8140  -22.3265 H   0  0  0  0  0  0  0  0  0  0  0  0
    6.0688    5.6838  -20.5310 H   0  0  0  0  0  0  0  0  0  0  0  0
    7.5082    5.4359  -21.5767 H   0  0  0  0  0  0  0  0  0  0  0  0
    5.9942    2.9093  -23.2966 H   0  0  0  0  0  0  0  0  0  0  0  0
    4.2798    3.2708  -22.9005 H   0  0  0  0  0  0  0  0  0  0  0  0
    7.6577    3.1716  -21.0635 H   0  0  0  0  0  0  0  0  0  0  0  0
    6.5915    7.9930  -27.4506 H   0  0  0  0  0  0  0  0  0  0  0  0
    4.8110    7.8151  -27.6073 H   0  0  0  0  0  0  0  0  0  0  0  0
    5.4970    9.1554  -26.6276 H   0  0  0  0  0  0  0  0  0  0  0  0
    4.5735    3.4404  -16.5570 H   0  0  0  0  0  0  0  0  0  0  0  0
    6.2516    2.8003  -16.5294 H   0  0  0  0  0  0  0  0  0  0  0  0
    5.9672    4.5705  -16.6402 H   0  0  0  0  0  0  0  0  0  0  0  0
    3.4139    3.1195  -20.8413 H   0  0  0  0  0  0  0  0  0  0  0  0
    2.2879    3.5169  -18.9438 H   0  0  0  0  0  0  0  0  0  0  0  0
    3.1447    3.7918  -17.4638 H   0  0  0  0  0  0  0  0  0  0  0  0
  1 10  1  0
  1 24  3  0
  2  3  2  0
  2  4  1  0
  3 10  1  0
  4 11  2  0
  5 10  2  0
  5 11  1  0
  6 12  1  0
  6 14  2  0
  7 13  2  0
  7 25  1  0
  8 13  1  0
  8 26  2  0
  9 12  2  0
  9 32  1  0
 11 12  1  0
 13 22  1  0
 21 14  1  6
 14 32  1  0
 15 25  2  0
 15 26  1  0
 15 27  1  0
 16 20  1  0
 16 28  1  0
 16 31  2  0
 17 28  1  0
 17 29  2  0
 17 30  1  0
 18 20  1  0
 18 27  1  0
 19 21  1  0
 19 27  1  0
 20 21  1  0
 21 29  1  0
 23 28  1  0
  2 33  1  0
  3 34  1  0
  4 35  1  0
  5 36  1  0
  6 37  1  0
  7 38  1  0
  8 39  1  0
  9 40  1  0
 18 41  1  0
 18 42  1  0
 19 43  1  0
 19 44  1  0
 20 45  1  6
 22 46  1  0
 22 47  1  0
 22 48  1  0
 23 49  1  0
 23 50  1  0
 23 51  1  0
 29 52  1  0
 30 53  1  0
 30 54  1  0
M  CHG  1  29   1
M  END
>  <OMEGA_C>  (1) 
NDc3QF3HQsA+qovBPGmwQNtakMBdUJ3B/4GQQGPijMCWapXBcn67QMQyWcDpiqPB3RKGQNLiA8AZ
FZrBGJakQLmDxz7GPqXBJOTCQKqK9kCp2cPBtkelQES2vECwbc7BG2HUQOCcbr+8Y6/BiKV2QEU/
S8A40pPBeLemQJHnCcA546HBhuu0QPbvc79Gq6fBQHqzQAY/50D0tc3Bgea5QKrjrj8+sarBLdOz
QK6HtECqPrzBjMTYQD1yaEA/JZnBQmCLQMJYWUB/1pjBklbRQFlwoEClHKrBXVWqQNiBWUCMmrTB
p2fXQEB+Z0D4X6XB8biwQDaWNUBgl6nBGxy0QImzAUFSc9fBjwazQMckZUA0iIfBUbADQFcLO8DG
/YTB/sbCQA7h3EDPPbvBXFOlQHkmpEAWpcXBFOC0QDIImkARh7PByquyQEEdX0CcVpPBrcSJQLo5
SECyGqPBzp9JQLR/ZUDqiZPB6LP6QM0reUBVsJTBlWXgQPzULj9xQ7PBCWnAQFiPrsArl57B7EWI
QNJQqMC3lJDBJfHTQKXQXsDim6nBaLRqQAIvkL8i8JjBppmKQHIrFT8yw5/B1cvOQFBxC0HQNcPB
Xm+aQP7tr0Dr+9XB9pnjQKQy6L+ynLLB7DPCQBHitUCRP6TBgEPwQB7zrUAAnazBttC/QDMyOkBg
X7rBb/SIQP9UUUBENLfBMQz1QMr6SkAggqjBW+3SQPPG/0DsmtvBePOZQKsV+kDC29zBP+evQFt8
EkFCBdXBJlqSQKMvXECndITB8AzIQNA4M0AdPITBGvO+QJ1BkkAqH4XBmX1aQOylR0DvuqbBeW0S
QCAUYUDPjJfBB0NJQEGsckDOtYvB6uk1QAxTQcA5yYvBESOxQL62j8DoBp3B4g+RQMwcjMDXK5XB
IQi8QOBaWMB4W6PBVyCGQB0GA8AYFJrB9MCkQBAJyz7FOqXB9VClQErKu0A+bs7BY93BQKhq9kDe
8MPBCxzUQJ7hbb9/eK/Beed2QNzxScB4vpPBQvimQBU5CcA60qHBJvi0QKZMcr8jrKfBQfCyQGCE
5kBNys3BA9u5QHl9rz9TvqrB4X+zQAODtEA4NrzB6FTZQHAgaUAeN5nBVfWLQGh9WED1wZjBawHS
QDlroECJOKrB6keqQG7iWUDpj7TBfcPXQMyDZ0Ayb6XBBuGwQFzmNUCFlqnBjr2zQGwZAUFEm9fB
1vSzQJxjaEChjofBpcYAQCYyOcALUoXBZXalQGuao0ArmMXBr+/BQGgR3UD4RbvBcKe0QDo8mkDl
drPBA2WzQCSoX0CjVpPB0B2KQByuSEDxDKPBg+BKQCSQYUDAV5PBjkL7QAQae0AP1ZTBCfXfQKQu
Lz+babPBJGjBQK/YrcAiMZ7BvgeJQI5Wp8AiPpDBVInUQOsyXsDsZ6nB0lpqQHK6jr/ZCZnBrP2K
QDZhFz9vr5/B09SaQN6TrkDD+NXBuT7NQJh7C0F2W8PBZzPjQEv/57+BtbLB3brDQHJEtkDgUKTB
IOzwQIVarUB86azBi7+/QPTbOkDDW7rBZ+KIQLx9UUAkI7fBLEX1QL51SkAFkqjBUheVQAigCUEw
WtjBEvLNQIbGDEH08dbBhMi4QDgT7kA5t97BY3GTQIbpXkBzZoTBAYbJQHsJOEDMHYTBE1W/QOlb
lEAZZIXBoRxbQIg/SUBxqKbBZ4YTQAkBXEBQTJfBIrxKQGOobUCofIvB

>  <OMEGA_E>  (1) 
qIoSPtBNFj4=

>  <OMEGA_NBR>  (1) 
     37519

$$$$
50220708
     RDKit          3D

 55 59  0  0  1  0  0  0  0  0999 V2000
    2.9428   -3.0276  -17.3167 C   0  0  0  0  0  0  0  0  0  0  0  0
    4.6055    5.5839  -27.6659 C   0  0  0  0  0  0  0  0  0  0  0  0
    4.5875    4.4228  -26.8817 C   0  0  0  0  0  0  0  0  0  0  0  0
    4.9751    6.8115  -27.0916 C   0  0  0  0  0  0  0  0  0  0  0  0
    5.6007   -4.4867  -19.5174 C   0  0  0  0  0  0  0  0  0  0  0  0
    4.6208   -4.3734  -18.5141 C   0  0  0  0  0  0  0  0  0  0  0  0
    5.9041   -3.3837  -20.3352 C   0  0  0  0  0  0  0  0  0  0  0  0
    4.9374    4.4866  -25.5248 C   0  0  0  0  0  0  0  0  0  0  0  0
    5.3264    6.8814  -25.7343 C   0  0  0  0  0  0  0  0  0  0  0  0
    4.2260   -2.0557  -19.1608 C   0  0  0  0  0  0  0  0  0  0  0  0
    5.0853    0.3859  -20.6845 C   0  0  0  0  0  0  0  0  0  0  0  0
    6.5395   -0.9709  -21.9624 C   0  0  0  0  0  0  0  0  0  0  0  0
    3.9316   -3.1574  -18.3392 C   0  0  0  0  0  0  0  0  0  0  0  0
    5.2266   -2.1536  -20.1562 C   0  0  0  0  0  0  0  0  0  0  0  0
    5.6069   -0.9665  -20.9485 C   0  0  0  0  0  0  0  0  0  0  0  0
    5.3175    5.7219  -24.9188 C   0  0  0  0  0  0  0  0  0  0  0  0
    5.6846    1.3457  -21.4573 C   0  0  0  0  0  0  0  0  0  0  0  0
    6.7281    3.5253  -19.2439 C   0  0  0  0  0  0  0  0  0  0  0  0
    4.3005    3.3680  -19.2037 C   0  0  0  0  0  0  0  0  0  0  0  0
    5.7546    5.8726  -23.4910 C   0  0  0  0  0  0  0  0  0  0  0  0
    6.5178    4.9719  -21.2777 C   0  0  0  0  0  0  0  0  0  0  0  0
    5.2953    3.4780  -22.6832 C   0  0  0  0  0  0  0  0  0  0  0  0
    6.6732    3.5515  -20.7618 C   0  0  2  0  0  0  0  0  0  0  0  0
    5.4436    2.8383  -21.3174 C   0  0  2  0  0  0  0  0  0  0  0  0
    5.5487    3.6078  -17.0498 C   0  0  0  0  0  0  0  0  0  0  0  0
    2.1363   -2.9109  -16.4832 N   0  0  0  0  0  0  0  0  0  0  0  0
    5.5341    3.4286  -18.5177 N   0  0  0  0  0  0  0  0  0  0  0  0
    5.7934    4.8487  -22.5485 N   0  0  0  0  0  0  0  0  0  0  0  0
    4.2370    3.1415  -20.4963 N   0  0  0  0  0  0  0  0  0  0  0  0
    3.1031    3.5585  -18.5280 N   0  0  0  0  0  0  0  0  0  0  0  0
    7.7851    3.8218  -18.6982 O   0  0  0  0  0  0  0  0  0  0  0  0
    6.1764    6.9654  -23.1236 O   0  0  0  0  0  0  0  0  0  0  0  0
    6.8386    0.6258  -22.5581 S   0  0  0  0  0  0  0  0  0  0  0  0
    4.3356    5.5352  -28.7105 H   0  0  0  0  0  0  0  0  0  0  0  0
    4.3040    3.4783  -27.3222 H   0  0  0  0  0  0  0  0  0  0  0  0
    4.9890    7.7057  -27.6971 H   0  0  0  0  0  0  0  0  0  0  0  0
    6.1209   -5.4224  -19.6596 H   0  0  0  0  0  0  0  0  0  0  0  0
    4.3972   -5.2178  -17.8790 H   0  0  0  0  0  0  0  0  0  0  0  0
    6.6576   -3.4754  -21.1035 H   0  0  0  0  0  0  0  0  0  0  0  0
    4.9190    3.5862  -24.9287 H   0  0  0  0  0  0  0  0  0  0  0  0
    5.6073    7.8319  -25.3053 H   0  0  0  0  0  0  0  0  0  0  0  0
    3.6855   -1.1296  -19.0315 H   0  0  0  0  0  0  0  0  0  0  0  0
    4.3134    0.5980  -19.9596 H   0  0  0  0  0  0  0  0  0  0  0  0
    7.0235   -1.8600  -22.3385 H   0  0  0  0  0  0  0  0  0  0  0  0
    5.9422    5.5796  -20.5640 H   0  0  0  0  0  0  0  0  0  0  0  0
    7.5036    5.4323  -21.4398 H   0  0  0  0  0  0  0  0  0  0  0  0
    5.8888    2.9281  -23.4284 H   0  0  0  0  0  0  0  0  0  0  0  0
    4.2385    3.4845  -22.9885 H   0  0  0  0  0  0  0  0  0  0  0  0
    7.5860    3.0997  -21.1775 H   0  0  0  0  0  0  0  0  0  0  0  0
    4.5274    3.4977  -16.6563 H   0  0  0  0  0  0  0  0  0  0  0  0
    6.2009    2.8482  -16.5943 H   0  0  0  0  0  0  0  0  0  0  0  0
    5.9290    4.6110  -16.8068 H   0  0  0  0  0  0  0  0  0  0  0  0
    3.3447    3.1736  -20.9467 H   0  0  0  0  0  0  0  0  0  0  0  0
    2.2366    3.5205  -19.0258 H   0  0  0  0  0  0  0  0  0  0  0  0
    3.1069    3.7337  -17.5435 H   0  0  0  0  0  0  0  0  0  0  0  0
  1 13  1  0
  1 26  3  0
  2  3  2  0
  2  4  1  0
  3  8  1  0
  4  9  2  0
  5  6  2  0
  5  7  1  0
  6 13  1  0
  7 14  2  0
  8 16  2  0
  9 16  1  0
 10 13  2  0
 10 14  1  0
 11 15  1  0
 11 17  2  0
 12 15  2  0
 12 33  1  0
 14 15  1  0
 16 20  1  0
 24 17  1  6
 17 33  1  0
 18 23  1  0
 18 27  1  0
 18 31  2  0
 19 27  1  0
 19 29  2  0
 19 30  1  0
 20 28  1  0
 20 32  2  0
 21 23  1  0
 21 28  1  0
 22 24  1  0
 22 28  1  0
 23 24  1  0
 24 29  1  0
 25 27  1  0
  2 34  1  0
  3 35  1  0
  4 36  1  0
  5 37  1  0
  6 38  1  0
  7 39  1  0
  8 40  1  0
  9 41  1  0
 10 42  1  0
 11 43  1  0
 12 44  1  0
 21 45  1  0
 21 46  1  0
 22 47  1  0
 22 48  1  0
 23 49  1  6
 25 50  1  0
 25 51  1  0
 25 52  1  0
 29 53  1  0
 30 54  1  0
 30 55  1  0
M  CHG  1  29   1
M  END
>  <OMEGA_C>  (2) 
DFY8QBHEQcCmiIrBKmCTQIOvskDcU93Bb8ySQJiHjUDGDdfByDOfQJj32UCTu9jBRjmzQNCSj8CJ
I5zBU92TQEbzi8DyHJTBq+68QPONWMB6rqLBff+dQBKSj0DAMszBq3GqQBo03EDL383BGDuHQBaR
A8A5SZnBzLqiQEmUxT7ieaXBPkPRQLmJeL/3sq/BgJ97QFISSsChtpLB5j+nQEXUCcD4P6HBImyz
QOFtd7+dlqfBOCmqQM4Zt0CzWcfBPei1QHI+rD+jqKvBakzXQDyeYUCQ85nBv52JQM+NV0AmoZnB
ySW4QELsu0Ca7bvB3JHQQIMZn0C4OKrBt3KpQHeXXkA7d7XBP4vVQB1LY0AZGKbB2zGuQIOmNUD7
iarBw46xQL3mZkAMZojBjLgIQFVMOsCZ3YPB8xaxQKluW0AoJJTBamO5QPAom0BRY7TBfZWHQJEN
SUBn+KPBnJlGQBy+Y0BuOZTBjx/5QLSXdEDUlZXB5KTFQMvk3kA4/bjBG9baQCY2ID8Pd7TBUb2K
QPMfsUAzr+XBKbqJQAmdXkDfk9rB46WfQLiU9kCrk93BhN7DQFSErcDPRp3BpbWMQH34psAoCI/B
QAvVQJRsXsDm06jBhWidQMqDZUD3bcfBTm+zQIme+kA9ccrB3d9rQByYkL+OQJjBDQeKQHYXGT8+
rZ/BfMDgQC8V7r9OtbLBKCa+QMiLskAdg6TBFx3wQI/VrUDEhKvBBXG8QExlO0BWbbvBuaGHQNQC
X0B/6LfBMcDyQMFgRkCBa6nBhOCQQKvaX0AOQIXB4m3GQG5INkAjwYTBA7q9QESNk0BbdIbBVBBW
QKocS0DOkqfBBCUPQP9PYUDQNJjBEdhGQE/0bkAeWYzBURs7QPoiQMCwjorBc3OVQI+ls0BvX93B
JnahQMa72kBMtNjB5CuTQGuYjkBIFdfBfryyQGelj8Dx+5vBqyiTQOu0i8DUBJTBi868QHITWcBF
j6LBwnCrQJrT3ECfxM3BTgudQMaAkEB0JczBzRqHQAMqA8BUTJnBfR2jQBOowT6wiKXB9ejRQKn0
e7/Kn6/Bcpx6QJRGScDXspLBT0+nQCMRCsBXNaHBd9OzQLOpeb+mkafBpb2pQFi/t0DHP8fB14e2
QCjrqj+5savBnrPXQPWCYUBK/5nBZgWKQNb6VkAqtpnBbyy3QN8kvEAyybvBfnDRQJqbnkD/VKrB
Z9WpQMvfXUBAibXBLCLWQAqNYkBJJabB2sGuQNT2NEBFmqrB3rKxQADQZkD+d4jBVV0HQPXnN8Ad
64PBTW2xQFFNW0CBNZTBB6W6QNeKmkDViLTBSBiIQJY6SEBHC6TB50JHQHnfYkChU5TBfXL5QPni
dECKnpXB/EvDQHZS30BlorjBbsTbQJCtHD+5ZbTBXPuNQBgnskDizOXBPQajQPBM90AZjd3BHc+J
QIMdYUBxqNrBEUbDQPewrcDxDJ3BX7CLQDqapsC37I7ByAvVQK13X8CNqqjBQ4m0QHgY+0DiRcrB
1wCbQFagZ0AwW8fBDOlrQH1Rj7/RU5jBcTWKQKPlFz/ry5/BFWnhQA8M8L90l7LBQN2+QOQ1skAL
sKTBrhHxQMs7rUAGk6vBTTO8QF7eOUBii7vBO+iHQK99X0CD37fBbVbzQE87RUDRaqnBZPiQQMe3
X0BpWoXBW4jGQLY+NkDyzITBm869QJqFk0AUhIbBiRxXQGz9SUDyp6fBFOAPQJwMYEDWUZjBtVVH
QK5DbkBVdIzBI2o0QA/oRMBE0ovB05zTQB/WGUHupMDBg3PMQPXpEEF4fLbBLSDOQFpNDUHR48nB
ih+yQAvkj8BCvJzBUkCRQHrkjMBSFZXBmES9QG8PWMAE56LBki/AQGnc9kAFkbXBz/rCQENH70Bo
+sjB8dmFQAt9BMDQ6pnBKgilQKYVyD4W3qTB/YvUQLDSb7+hD6/B/kF2QDgNTMD9r5PBc26nQP2m
CcDkeKHBaWG1QMZ3c7/rRKfBZMy8QO+33EBPx77BCAK6QLoJrj+Ed6rBt3fZQDWJbEDBr5nB4jqM
QPidW0Cx2ZjByfSwQOo6r0DrHL7BoKTPQC+Ln0A5MKvBaE2oQGXoVEA75rTB0yfXQGH8Z0Dq/qXB
zUiwQEfjNEBttqnBqRy1QO2fbUAG0ofBI4r9P7NzPsB3ZIXBueyzQKfTY0BhmpPBKN60QNH6lkAP
1rTB7t6JQM/BSEBGD6PBZQ1MQNEwZ0C0W5PBS8z7QA+HfUD5b5XB6oOiQCO2nUDLI8bBjIvgQHG7
Kz9IAbPBDVrdQM1aKkFiW8HBmGTQQMyYGkH2Za/B8H/SQL1dFEHkstHBFM/CQKTQrcAw3p3BRfqI
QNhlqMBCR5DBGpbWQPTNXMDfwKjBx0S5QMyX6UA7x63BYxu/QOoI3EDYFtDBt9RoQDWmkr+G8JjB
HVmLQBeaFj95Tp/B75DjQNcv6b9WSrLBTbG+QID4tEDDo6XBtEjuQFsnrkA2hK3BCa27QPu2MEA+
sLrBdTmGQNa2TkCN9rbBTKT0QCQPS0CBKanBDcKUQCWOZEBoi4TBetDKQEiAPUD/YYTBMKjAQMYM
l0AmyIXB5iBaQI+jR0BkiqbBbTwUQJETYUBzMpfBE9xMQCSjdUC6kIvB7hs5QL5NRcCFI4vBjqna
QFxPGkGprbzBX3jeQGuHDkEpPcbBx53HQDj/EEHxm7PBPkStQLtfkcAJ7Z3BfEKOQMQrjsDU0JXB
nTS5QBXeWcCTx6PBM67QQLFU8kBZo8bBjSy5QDeP90AiDLTB3rGGQBXYA8AudpnBo/2jQEwozT4q
+KTBRTLUQBh4br+B6a7BLg52QBDRTMChlpPBpyqmQHSvCcD7jqHB0I+0QMu9cb9tPKfBkDe/QET/
3kDfbL3B2BO5QMzmrj+tnKrB1QDYQPzpaUBZlJnB9pyKQEoDW0DCLpnBkO2yQOrasUDTvr3BojvQ
QFa7n0Cu+arBQmSpQAQMV0BXKbXBp6nWQCptZ0DA56XBQ9OvQPCmNUDy7qnBCDqyQB6SZ0A944fB
wOUHQJ+pPsBsLoTBB+2xQIIJYUA4tpPBppy1QDEfmED4t7TBOPmIQCEpSkBsdqPBryNIQF5WZkCD
1JPBMjz6QPS7d0BnG5XBp5SmQPJDokByOMbBJhLgQB0WLD+T9rLB02fmQJeLKkHCT7zB+QPsQPbw
FUFQRc3BlCHEQD0oGkHEVazBQeu7QG/mr8DDp5/BJTKFQCkyqsDKS5HBdgfRQIINX8BMAarBEXDT
QGxR4EC9+s3Bf2KpQK2W6UCHM63BTTJvQII9jr+VypfBiB2KQJo8Gj9jeZ/BaqHjQCCY6L83AbLB
uYK/QKY4tUAHZqXBbj7vQCLWrUBwMK3BK869QE8MNEBF17rBlbCHQHKqUECvkrfB5jb0QA0kSkAJ
+6jBPIeRQHLgXkDo0ITB2C7HQHSzNUASjYTBLjS+QMN+k0DRg4XBwwRZQLoXS0C5HafBHtYQQPSO
YUDfz5fBQ/NHQLpEc0DC/ovBnqE0QCv2Q8CDaYvB92v+QEy4EkGt6r/B8VsJQZ0YAEEzH7zBUtnT
QJPXEUEyn8PB+xqyQP/7j8BWQpzBwyeRQGi/jMBjopTBsZi9QHpnWMAfb6LBSSX8QJZo2UB237vB
GxO9QGr1/EAaQcPBaoOGQH/hA8B6eJnBjb2lQFZryj6Ot6TBnLTUQF2Hcr+o567B3rR2QAtkS8CL
QJPBHB6oQAyFCcDcB6HBVAm2QGXzc78Y/KbBmMzQQH4X2EBpDr/BYIS5QJwfrj/lr6rBetPYQOOf
akCcy5nBNLuLQLOnWECq7pjBWb+4QAY4sECUdL7BsojMQDWCoEAbwKrBS+ymQJVVWEChLLXBs8LV
QKFDaUCICKbBbmKvQB9qNUBy+qnBUey0QH+dakAl6YfBc7L9PzJ/PcATAIXBB32zQPxYYUALspPB
jqq6QCtWlkABdrXBbSmJQGV0R0BXMqPBQi1LQKV0YUC4WpPBg3H7QIk7ekCWmpXBOTykQPB6pEBV
S8bBYIjfQAXbKD8ASrPBs8MHQdO7IUFU/b/BwMEZQeC8AEFQarnBLbvEQN0RIEHpvsbBkZrCQHoG
rsCtXp3B45SIQLUyqMC414/B2u3WQPCpXcA5RqjBAPcFQZyEvEBpPrnBa5acQAJ4+0CPLcbBOsRq
QMHAkL9lepjBv9aMQGknGj929Z7BTRHkQIXS6r/W/bHBiCC1QLsEskAN2aXBGgnqQO2As0DXc6vB
1mm1QB5hLkDiPbvB90yEQLheXUDDobbByXjzQC89T0Cbc6nBQ6mUQDkmYUCOmITBQMvKQISAOkDF
iYTBSmTAQMaKlUCm14XBDoBYQIlnRkB8n6bBXU8TQIuyWkAvKpfBjhJMQDWObkBJhovBAULKQOrh
ssDT1pvBemWVQMLUsEABkN3BLB6TQMEsjEDUIdfBYzOhQAw82ECAB9nBX3d1QDvEQ8BmOZLB5euR
QK9ViMC+EJPBXHSEQHlR/b/7BJnBo9GcQNDKjkCtMczBxPCqQL8M20C4Fs7B6la8QLerU8AzjqHB
v/yiQMnn0j6lWqXBEbLQQLKPfL+rYa/BxY2yQDEyjMDiyJrBtLqlQDoIBsBIr6DBw8eyQArVcb9+
RqfBhT2pQE5ntkDaa8fBNt62QAVPrD+/nqvBBILYQKtWYUCrGprBZdqKQFdvVkD8vJnBS0K2QHe5
u0Df77vB2B7RQIcan0APZ6rB4XqqQI09XUDnlbXBKKrWQJ9sY0C1QqbBuGavQC1yNUBHparB0uOy
QLskY0C7gIjBGP3dQP9B0sAo2pzBHF+yQHzfWUCzRZTBfGu5QIjDmkBLgbTB8tCIQLGGSUDoGqTB
9wtJQIATYUCtSpTBK2X6QMWyc0CRupXBGvvBQIUy30Bf57jBg5TbQEg0GD/RTLTBihaOQE3LrkDj
/eXBmeOJQAXJW0AgmdrBVsqiQMZ/9EA5/N3B8v5CQOLKPcBNXozBvbqKQMfOosB0z43BxgllQCyS
h7/IZZjBE9yaQHO/ZEA/TcfBDtuzQIOS+UBDtMrBvVPVQElFWsCId6fB3U+KQIphJj+1nJ/BVHjf
QME+8r//SrLB59O+QOR5skDkpqTBUXjwQKAVrkAY0KvB5wi+QHqhOkCefLvBeb2IQCULXEDfFrjB
GOrzQMT1RkCXn6nB4zySQOFQW0BgXYXBgNrHQB77MUBEAoXB1Pm+QK+EkUA3YIbBWL5YQFlNTUBV
vafBuJARQKTDXkDkRJjB4klJQFgOa0C+Y4zBCIGhQPnQvsBmL6fB5IPXQB2xGUE1W7fBt9jzQNmx
C0EoqrzBh6OuQHh6EkEaN7TB691zQACyXMDPLpPB/mOBQNTHlcD+V5jBziOLQCl/EMDxbpfBSkrn
QJD67EBs3L7B2QmiQFyM+kBgZrbBoMarQIlxYsAx8aXBvqelQDMAlD50+KPBEFzcQDjTiL8SS6vB
kyyaQKAkl8BhxaHBVnGkQNMoE8Ccz6DBLHu3QHzNiL+iRaXBN0i+QNKY3kCJx7vBWn29QHrYnz86
NanBpz3ZQB1cc0AdspnBTcKLQN6+XkClqJnB+hiyQM+zsUBge73BWXPTQJbcnUCnu6vB7bCuQDfp
TEDvgrXBxUvZQI+rZkBP2KXBO4yzQIicL0AOxanBxZOwQAPihUCWtojBWKCnQMfz3sDpq6vBIjmy
QHsicUByHJTBDoO7QO3Uk0AQkrXBA6qLQDS1REBysKPBYIJIQEE5Z0CompTBfLf6QMxchEA+TpXB
lwefQOxvp0D4qMXBOerpQGj4Bj83dq/BmiLhQPLzKUHmsbXBmJUJQdU6EUHmC7/B4/+YQMAzHUEE
I7DBMQFOQAGmWsB89YvBe0doQBLpssDnFJXBx/6EQEQqqL/ihpPBfQX9QM1/10Du5cLBZs2CQJ1u
70Ap9rPBWQW/QHjMZMDRHK3B8ByJQDfNAT/ua5/BTpjuQMRJ+r9RL63BQETBQJh3tEDcv6bBh8Ty
QJbQq0ACuq3BlK/DQBsxJ0BWxbrBmk2NQBgIRkCbKbjBH5r3QJzYSECSUqjB/5mPQJDdgkB9uoXB
qd3FQHqQYkDW9YPBdA67QCtep0DGAYjBqQtfQCjAPkCVbKfBpacSQE28WUCIlZjBbKZFQCTMekDw
/ozB

>  <OMEGA_E>  (2) 
IPXAPvgwwj7IHv0+yMEAP7SpBT/gkBA/agxWPw==

>  <OMEGA_NBR>  (2) 
     12769

$$$$
50220705
     RDKit          3D

 55 59  0  0  1  0  0  0  0  0999 V2000
    2.9390   -2.9992  -17.3125 C   0  0  0  0  0  0  0  0  0  0  0  0
    5.0366    6.8830  -27.0719 C   0  0  0  0  0  0  0  0  0  0  0  0
    5.9141   -3.3678  -20.3239 C   0  0  0  0  0  0  0  0  0  0  0  0
    5.3896    6.9363  -25.7140 C   0  0  0  0  0  0  0  0  0  0  0  0
    4.6105    5.6734  -27.6466 C   0  0  0  0  0  0  0  0  0  0  0  0
    5.6209   -4.4636  -19.4957 C   0  0  0  0  0  0  0  0  0  0  0  0
    4.2223   -2.0435  -19.1644 C   0  0  0  0  0  0  0  0  0  0  0  0
    5.0756    0.3902  -20.7021 C   0  0  0  0  0  0  0  0  0  0  0  0
    4.8836    4.5644  -25.5043 C   0  0  0  0  0  0  0  0  0  0  0  0
    6.5438   -0.9658  -21.9633 C   0  0  0  0  0  0  0  0  0  0  0  0
    3.9340   -3.1386  -18.3319 C   0  0  0  0  0  0  0  0  0  0  0  0
    5.2275   -2.1425  -20.1557 C   0  0  0  0  0  0  0  0  0  0  0  0
    5.6053   -0.9601  -20.9549 C   0  0  0  0  0  0  0  0  0  0  0  0
    5.3243    5.7774  -24.9001 C   0  0  0  0  0  0  0  0  0  0  0  0
    4.5346    4.5147  -26.8601 C   0  0  0  0  0  0  0  0  0  0  0  0
    4.6403   -4.3505  -18.4935 C   0  0  0  0  0  0  0  0  0  0  0  0
    5.6764    1.3486  -21.4755 C   0  0  0  0  0  0  0  0  0  0  0  0
    6.7283    3.5087  -19.2541 C   0  0  0  0  0  0  0  0  0  0  0  0
    4.3002    3.3501  -19.2127 C   0  0  0  0  0  0  0  0  0  0  0  0
    5.7622    5.8993  -23.4724 C   0  0  0  0  0  0  0  0  0  0  0  0
    6.5400    4.9607  -21.2822 C   0  0  0  0  0  0  0  0  0  0  0  0
    5.2911    3.4916  -22.6936 C   0  0  0  0  0  0  0  0  0  0  0  0
    6.6766    3.5394  -20.7715 C   0  0  2  0  0  0  0  0  0  0  0  0
    5.4407    2.8411  -21.3321 C   0  0  2  0  0  0  0  0  0  0  0  0
    5.5513    3.5596  -17.0584 C   0  0  0  0  0  0  0  0  0  0  0  0
    2.1302   -2.8806  -16.4813 N   0  0  0  0  0  0  0  0  0  0  0  0
    5.5346    3.4032  -18.5283 N   0  0  0  0  0  0  0  0  0  0  0  0
    5.8394    4.8465  -22.5643 N   0  0  0  0  0  0  0  0  0  0  0  0
    4.2359    3.1450  -20.5084 N   0  0  0  0  0  0  0  0  0  0  0  0
    3.1027    3.5219  -18.5320 N   0  0  0  0  0  0  0  0  0  0  0  0
    7.7843    3.8046  -18.7062 O   0  0  0  0  0  0  0  0  0  0  0  0
    6.1632    6.9903  -23.0774 O   0  0  0  0  0  0  0  0  0  0  0  0
    4.1246    3.3453  -27.4036 F   0  0  0  0  0  0  0  0  0  0  0  0
    4.3907   -5.4091  -17.6887 F   0  0  0  0  0  0  0  0  0  0  0  0
    6.8390    0.6290  -22.5665 S   0  0  0  0  0  0  0  0  0  0  0  0
    5.0927    7.7755  -27.6774 H   0  0  0  0  0  0  0  0  0  0  0  0
    6.6671   -3.4611  -21.0925 H   0  0  0  0  0  0  0  0  0  0  0  0
    5.7150    7.8721  -25.2841 H   0  0  0  0  0  0  0  0  0  0  0  0
    4.3421    5.6361  -28.6920 H   0  0  0  0  0  0  0  0  0  0  0  0
    6.1497   -5.3958  -19.6287 H   0  0  0  0  0  0  0  0  0  0  0  0
    3.6735   -1.1208  -19.0468 H   0  0  0  0  0  0  0  0  0  0  0  0
    4.2970    0.6025  -19.9843 H   0  0  0  0  0  0  0  0  0  0  0  0
    4.8174    3.6675  -24.9063 H   0  0  0  0  0  0  0  0  0  0  0  0
    7.0343   -1.8548  -22.3315 H   0  0  0  0  0  0  0  0  0  0  0  0
    5.9550    5.5688  -20.5766 H   0  0  0  0  0  0  0  0  0  0  0  0
    7.5313    5.4158  -21.4242 H   0  0  0  0  0  0  0  0  0  0  0  0
    5.8522    2.9242  -23.4507 H   0  0  0  0  0  0  0  0  0  0  0  0
    4.2300    3.5358  -22.9803 H   0  0  0  0  0  0  0  0  0  0  0  0
    7.5850    3.0780  -21.1862 H   0  0  0  0  0  0  0  0  0  0  0  0
    4.5302    3.4455  -16.6654 H   0  0  0  0  0  0  0  0  0  0  0  0
    6.2024    2.7916  -16.6154 H   0  0  0  0  0  0  0  0  0  0  0  0
    5.9339    4.5580  -16.8003 H   0  0  0  0  0  0  0  0  0  0  0  0
    3.3449    3.1945  -20.9595 H   0  0  0  0  0  0  0  0  0  0  0  0
    2.2356    3.4871  -19.0289 H   0  0  0  0  0  0  0  0  0  0  0  0
    3.1071    3.6805  -17.5446 H   0  0  0  0  0  0  0  0  0  0  0  0
  1 11  1  0
  1 26  3  0
  2  4  2  0
  2  5  1  0
  3  6  2  0
  3 12  1  0
  4 14  1  0
  5 15  2  0
  6 16  1  0
  7 11  1  0
  7 12  2  0
  8 13  1  0
  8 17  2  0
  9 14  2  0
  9 15  1  0
 10 13  2  0
 10 35  1  0
 11 16  2  0
 12 13  1  0
 14 20  1  0
 15 33  1  0
 16 34  1  0
 24 17  1  6
 17 35  1  0
 18 23  1  0
 18 27  1  0
 18 31  2  0
 19 27  1  0
 19 29  2  0
 19 30  1  0
 20 28  1  0
 20 32  2  0
 21 23  1  0
 21 28  1  0
 22 24  1  0
 22 28  1  0
 23 24  1  0
 24 29  1  0
 25 27  1  0
  2 36  1  0
  3 37  1  0
  4 38  1  0
  5 39  1  0
  6 40  1  0
  7 41  1  0
  8 42  1  0
  9 43  1  0
 10 44  1  0
 21 45  1  0
 21 46  1  0
 22 47  1  0
 22 48  1  0
 23 49  1  6
 25 50  1  0
 25 51  1  0
 25 52  1  0
 29 53  1  0
 30 54  1  0
 30 55  1  0
M  CHG  1  29   1
M  END
>  <OMEGA_C>  (3) 
BRk8QEzzP8D8f4rBhCuhQDtB3EA5k9jBTUC9QLeKV8BXl6LBU3esQPD13UA5ts3BmYmTQFSMtUA5
LN3BAd6zQC3WjsAs95vBch2HQOvHAsCiUJnB6mqiQOnKxz77naXBPEacQOgPkkDDCMzBKWfRQHJB
d7/ntK/B4MV7QDbfSMCip5LBUkenQPEdCcDnPqHBYl6zQMrIdb+ro6fBs2CqQLPguEBiM8fBRhuR
QMx4kECC4dbBFX2UQCA3i8Cv8pPBYqW1QKqerD+6zavBXE7XQJWOYEBvCJrBe5uJQN9nVkCes5nB
tmO4QHbHvEBwx7vBgEfRQL29nkDxQarBp1CpQCp3X0CDjLXB5qbVQHyFYkAJLKbB2xmuQGHUNUAt
qKrB8KOxQMnPY0CCd4jB+1UIQF9cOMCs2YPBlRuxQBfOWUAKOpTBldy6QL0Wm0C3g7TB2YyHQA5H
SUAoEaTB4JJGQA5nYUB1QZTBRhn5QFJ/c0BfppXB7DjFQC2w30CInrjBgfyDQO0ZVkB9OtvBmICM
QC8XrcB7go3BSNnaQOIEIT89iLTBPfeiQNbQ+EBOa93BqFjVQBuDXcBpvajB8eC2QOHn+0DBRcrB
xPKKQCZbtEBOieXBv8rEQK2qrMCLB53BGRtrQMJ0j7/XX5jBS4GJQFA+Gj/r35/BUCiaQJG4akAo
QMfBrBjhQK1r7b/wprLBSo++QMszskDJnKTBTADxQBtOrUDPZKvB4ES7QCQmO0ASm7vBYVyHQJBK
YkCh17fBebjyQFD+REBHfanBdPeQQKyCXECwUoXBOXrGQCipMkBe7ITBmuK9QHfbkUDvZobBSRJW
QOtyTEAWrafBghQPQBEsX0AuO5jBUdtGQAyOa0BpW4zBMMk1QLhzRMBLxIvBNPbOQDzrDEFeqsnB
dwy7QJb2WMC3pqPBxVHFQFYX7kAb5cjBw1zPQM3AGUHfaMDBtYmvQHCskMDXrp3BugCHQHq6A8A1
tJnBoN2kQOZ7yj4v6aTBWCq6QNhC9kBFsLXBTbbVQBUpa78S0K7BPeJ2QLE2TMANwZPBjzynQLBc
CcCFnKHBc7S1QIoAcb9KPKfBG7O7QGjV20Cu177B9cjEQHzSEEH9a7bBuhCQQMGOjcAZrpXBe1O6
QBY9rz/EU6rBLjnZQPBmbUD0pZnBtA6MQJCaW0AXxpjBBM+wQINTrkB0O77Bfd7OQLD2n0CVNavB
UP+nQF1OVEDw1LTB9tXWQFYTaUDG9qXBlymwQAEzNUAloanBfAe1QP4/bUB6wYfB/XYAQJtzPcCu
TYXB9cWzQATnY0AWi5PBrBS0QCzClkA32LTBIbKJQN3KSECI+6LBPb5LQEwPZ0D4RJPBh6P7QLKt
fUBRZpXBTwWjQC+LnEBySsbBvq3DQL4jHUEBiq3BRhGGQC6lsMCT34/BXsbhQOH2MD9tp7LBcxTW
QLbpE0H3XNHBFRzTQEsRXsAJ0qnBAUHFQAdg2kCz/c/BV8zXQNR4KkEY+sDB1t++QCAEr8AKPJ/B
l3JuQPy2jr+nPZjBBoWKQNoeFj8miJ/B8LywQM3m6ECkE67By0blQPBZ5r/I8rHBTrm9QMVYtUAB
sKXBQFbtQLzXrkCYkq3BCY67QAAxMED9lrrBmvOFQGpETUDp4rbBhmb0QKaUTEBPJanBML2UQEyS
Y0DHd4TBjvDKQEVQPUAqXITBhFrAQAjolkD3roXBcchZQL6ER0C7dqbB7eUTQGPmYEDBGZfBQZtM
QIx3dUC6eYvBdEU2QHPgQsAbh4vB9azSQNMiEUF90cPBope7QBZxWcAxVKPBqEC8QEBS+0A9qMPB
DK78QCk3EkH6uL/BnrCvQALDkMBwVJ3BabiHQHMyA8CDeJnB32elQGcryD5R96TBX636QNRQ2EDY
0bvBGOHWQJJnbL9on67BF2p3QPNjS8A+gZPBTgyoQAFwCcDIXKHB/ay2QBQ+cr9zF6fBQ73PQM/A
1kCaP7/B/G4IQcA3/0AP1rvBqQKQQKxYjcA+YZXBeWi6QGoJrz89gKrBU4XYQBrMakCJp5nBYX6L
QF/kWEAz15jBnMq3QDwDr0A0f77BbS7LQNDFoEAUnarBttSmQBzjVkBLB7XBUXDVQHIyakBA56XB
qXyvQFc0NUBW0qnBz5O0QOSdaEATyIfBRA4BQJ5FO8B6D4XB8TSzQGSDYECwkpPBJ2y5QHgFlkCD
V7XBtw+JQPKuRkDcE6PBzbZKQICWZEAVWJPBOCr7QHSFeUCDbZXBAMOjQFByokBcVcbB4tgcQVBE
AEGYRLjBGXaFQH5UsMD7lY/B8EniQAb/MD+Qr7LBmL/DQFpKH0FlFMfBX8HTQAwjX8AKd6nBQkSc
QPFy+UBA5cbBMbQGQUZVIUF+kL/B4uW+QKE3r8Ag0p7B6mhwQKUIjb8QCJjBRvuKQHgGFT+RnJ/B
Az0FQWl0u0AYLbnBWvjmQLzO5r+wnLHB5mmzQGTCsUBYtKXBVjroQMBxtEAzVqvB5gW2QLppLUA+
CrvBejCEQAb+WUByirbBWFXzQBdaUUDRW6nB0lSUQKx3XkAefYTBvZHKQHlpOEC3eoTBrdy/QPB/
lEBMnIXBBllYQIRtREDxgabBFN4SQKsPX0ChMJfBBplLQOuKckCPiYvBDcvLQKskssCtx5vBGLyS
QBzojEDtIdfBaN2EQDNN/L8PE5nBFXCcQCZaj0B3MMzBFjuVQBClsUDYh93BfNd2QCAIQ8ATPpLB
K+28QLfIUsDrmqHB39OiQP/c2D7vWqXBi+GqQLCC20BdA87BhLzQQDyDdr8zcK/Bam6zQOG9i8A3
zJrByy6mQNtEBcAUuaDBt/WyQELgbb91TafBRiSpQJzYtkB0ZcfBSDGhQC/q2EBT7tjBHOeSQODJ
h8AIBpPBERu2QPBkrj98sKvB0TPYQKYZYUBzJ5rB+pKKQCydVUAan5nBEbS2QC4cvEBU9rvBIHbQ
QN11n0DKWKrBpVupQILOXkBsjLXBHvfVQFD4Y0ArTKbBx4WuQL5uNkAnpqrB1ESzQEqhX0BndYjB
NwbgQCRE0cAiqJzBKU6yQMp/WEBuP5TBZ9q4QChcm0DmdrTB8ymIQNg6SkAUA6TB2OhIQIgkX0BL
DZTBTjX6QDJoc0BZ1ZXBB/bDQIU230AkDbnBALOjQC2K/ED6/t7BCiiKQMRtqMD3QYzBRr/aQPar
Hj/YcLTBc1iJQFtwXUCQn9rBN1llQLsfh79Ef5jBpUOaQAfRZUDeT8fBbv2NQMTLr0Bb9+XBuEpE
QB0zPcAmZYzB2sjVQPFNWcBPjafBH1mKQB++Jz91i5/Bq9CzQJ33+UBEmMrBzubfQC6S7r8qU7LB
txy+QFCoskAakqTBt9DvQAd/rkC+tqvBfXK8QIr5O0AthrvBHoGHQJl8XkBw9bfBRBDzQCSER0Au
vqnB372SQEgpV0ATRIXBImPIQI3kLUC3J4XBEmi/QOOSj0D9LYbBAElXQMcAT0AQl6fBhBsRQLk0
XUA59pfBcsZJQBvyZ0DzIIzB

>  <OMEGA_E>  (3) 
8B3LPtyLBz9gJQ0/Ph0UPw==

>  <OMEGA_NBR>  (3) 
     18856

$$$$
50220715
     RDKit          3D

 52 56  0  0  1  0  0  0  0  0999 V2000
    2.8390   -3.0908  -17.4196 C   0  0  0  0  0  0  0  0  0  0  0  0
    5.5355   -4.5168  -19.5940 C   0  0  0  0  0  0  0  0  0  0  0  0
    4.5213   -4.4236  -18.6234 C   0  0  0  0  0  0  0  0  0  0  0  0
    5.8953   -3.3870  -20.3491 C   0  0  0  0  0  0  0  0  0  0  0  0
    5.1644    6.0188  -25.9561 C   0  0  0  0  0  0  0  0  0  0  0  0
    5.1393    5.1892  -24.8345 C   0  0  0  0  0  0  0  0  0  0  0  0
    4.2124   -2.0681  -19.1701 C   0  0  0  0  0  0  0  0  0  0  0  0
    5.1619    0.4055  -20.5742 C   0  0  0  0  0  0  0  0  0  0  0  0
    6.0735    7.7712  -24.5362 C   0  0  0  0  0  0  0  0  0  0  0  0
    6.6385   -0.9265  -21.8513 C   0  0  0  0  0  0  0  0  0  0  0  0
    3.8585   -3.1986  -18.4142 C   0  0  0  0  0  0  0  0  0  0  0  0
    5.2442   -2.1488  -20.1352 C   0  0  0  0  0  0  0  0  0  0  0  0
    5.6766   -0.9418  -20.8651 C   0  0  0  0  0  0  0  0  0  0  0  0
    5.6371    7.3283  -25.8030 C   0  0  0  0  0  0  0  0  0  0  0  0
    5.7807    1.3765  -21.3134 C   0  0  0  0  0  0  0  0  0  0  0  0
    5.6042    5.6833  -23.5875 C   0  0  0  0  0  0  0  0  0  0  0  0
    6.7753    3.6141  -19.1743 C   0  0  0  0  0  0  0  0  0  0  0  0
    4.3571    3.3822  -19.0865 C   0  0  0  0  0  0  0  0  0  0  0  0
    6.4736    5.0479  -21.2725 C   0  0  0  0  0  0  0  0  0  0  0  0
    5.2684    3.4183  -22.5893 C   0  0  0  0  0  0  0  0  0  0  0  0
    6.6967    3.6401  -20.7037 C   0  0  2  0  0  0  0  0  0  0  0  0
    5.4856    2.8555  -21.2078 C   0  0  2  0  0  0  0  0  0  0  0  0
    5.6358    3.5453  -16.9462 C   0  0  0  0  0  0  0  0  0  0  0  0
    2.0093   -2.9949  -16.6064 N   0  0  0  0  0  0  0  0  0  0  0  0
    6.0560    6.9534  -23.4600 N   0  0  0  0  0  0  0  0  0  0  0  0
    5.6323    4.8395  -22.4890 N   0  0  0  0  0  0  0  0  0  0  0  0
    5.5989    3.4638  -18.4235 N   0  0  0  0  0  0  0  0  0  0  0  0
    4.2824    3.1479  -20.3759 N   0  0  0  0  0  0  0  0  0  0  0  0
    3.1659    3.5352  -18.3899 N   0  0  0  0  0  0  0  0  0  0  0  0
    7.8630    3.7876  -18.6361 O   0  0  0  0  0  0  0  0  0  0  0  0
    5.6710    8.1598  -26.8647 F   0  0  0  0  0  0  0  0  0  0  0  0
    6.9694    0.6822  -22.3919 S   0  0  0  0  0  0  0  0  0  0  0  0
    6.0386   -5.4581  -19.7592 H   0  0  0  0  0  0  0  0  0  0  0  0
    4.2512   -5.2909  -18.0392 H   0  0  0  0  0  0  0  0  0  0  0  0
    6.6719   -3.4642  -21.0956 H   0  0  0  0  0  0  0  0  0  0  0  0
    4.8280    5.6603  -26.9177 H   0  0  0  0  0  0  0  0  0  0  0  0
    4.7687    4.1779  -24.9146 H   0  0  0  0  0  0  0  0  0  0  0  0
    3.6945   -1.1333  -19.0137 H   0  0  0  0  0  0  0  0  0  0  0  0
    4.3810    0.6062  -19.8557 H   0  0  0  0  0  0  0  0  0  0  0  0
    6.4290    8.7849  -24.4242 H   0  0  0  0  0  0  0  0  0  0  0  0
    7.1253   -1.8094  -22.2386 H   0  0  0  0  0  0  0  0  0  0  0  0
    5.9489    5.6819  -20.5426 H   0  0  0  0  0  0  0  0  0  0  0  0
    7.4332    5.5141  -21.5403 H   0  0  0  0  0  0  0  0  0  0  0  0
    5.9118    2.9061  -23.3199 H   0  0  0  0  0  0  0  0  0  0  0  0
    4.2155    3.3100  -22.8886 H   0  0  0  0  0  0  0  0  0  0  0  0
    7.6172    3.2128  -21.1280 H   0  0  0  0  0  0  0  0  0  0  0  0
    4.6214    3.4031  -16.5452 H   0  0  0  0  0  0  0  0  0  0  0  0
    6.2989    2.7610  -16.5523 H   0  0  0  0  0  0  0  0  0  0  0  0
    6.0148    4.5324  -16.6429 H   0  0  0  0  0  0  0  0  0  0  0  0
    3.3852    3.1662  -20.8171 H   0  0  0  0  0  0  0  0  0  0  0  0
    2.2925    3.4658  -18.8718 H   0  0  0  0  0  0  0  0  0  0  0  0
    3.1814    3.7148  -17.4063 H   0  0  0  0  0  0  0  0  0  0  0  0
  1 11  1  0
  1 24  3  0
  2  3  2  0
  2  4  1  0
  3 11  1  0
  4 12  2  0
  5  6  2  0
  5 14  1  0
  6 16  1  0
  7 11  2  0
  7 12  1  0
  8 13  1  0
  8 15  2  0
  9 14  2  0
  9 25  1  0
 10 13  2  0
 10 32  1  0
 12 13  1  0
 14 31  1  0
 22 15  1  6
 15 32  1  0
 16 25  2  0
 16 26  1  0
 17 21  1  0
 17 27  1  0
 17 30  2  0
 18 27  1  0
 18 28  2  0
 18 29  1  0
 19 21  1  0
 19 26  1  0
 20 22  1  0
 20 26  1  0
 21 22  1  0
 22 28  1  0
 23 27  1  0
  2 33  1  0
  3 34  1  0
  4 35  1  0
  5 36  1  0
  6 37  1  0
  7 38  1  0
  8 39  1  0
  9 40  1  0
 10 41  1  0
 19 42  1  0
 19 43  1  0
 20 44  1  0
 20 45  1  0
 21 46  1  6
 23 47  1  0
 23 48  1  0
 23 49  1  0
 28 50  1  0
 29 51  1  0
 29 52  1  0
M  CHG  1  28   1
M  END
>  <OMEGA_C>  (4) 
vLI1QILPRcBCW4vBzSKxQK+JkMB1wJzBtq6QQH6OjcDB/JTBEqa8QE3EWMDmyqLBLEOlQN6ZwEAf
ps/BanWkQNsNpkAorcbB0MuGQL9bBMBNXJnBbi6lQBuezz79l6TBRlrCQO6t+EAnSsTB+W7UQCYx
bb+Gz67BYfF2QN61TMBHUJPBPtCnQLiFCcDXFKHBwaa1QFoccb+m66bBY2O0QKGB6kCRbM7BX/u4
QJAvsD/qgarB/FWzQOPdtUAns7zBMM/YQDtOZ0DoZJnBlW2LQC92WEAysZjBdyfPQDKIoUAALqrB
vpaoQP3EWkD1trTBjUvWQLP3aEAeoaXBVoqvQL6/NkCAqanBGli0QKvlYkDXkYfBhZgAQEGsP8D2
2YTBbcrBQKGC3kAirrvB0ju0QB3dmkCR6bPBYCqzQJOvXUA6Y5PBQgmJQMJ3SUDkAaPB2Z5KQBNB
YkCaHpPBnZ37QFFockC9FpXBG3m1QHyOAkHf6tbBGwXfQKihLj+mIrPBBjzBQJ+orsDnEp7B4wmI
QM1OqcAyUJDB/n/VQJO1XcDRw6jBFn+aQGEhtUCGV9fBQ5mYQKexhUABUcfBIXNsQCERkb8bHJjB
BzGMQNctGz9z2J7BWLrNQN6ODEGwZMPBrALkQEyb57+O6LHBU12+QEnStUA8V6TB1NztQKVzsEBw
UqzBVC29QLL9OUAwj7rBAuWGQFvXU0DxG7fBTsDzQKCeTUA0BqnBO+KTQLHLWUCdXITBfJDJQAS0
MEAga4TB43jAQAkJkUCVJIXBm6ZYQCGjSkCEiabBwbcSQP3PXUCC+ZbB25xLQM+/bUAoQIvBpWI1
QAtiRcA55ovBko+wQNr2j8CsgJ3B9kWQQAI7jcCDr5XBuRW8QGchV8DIcqPBg57AQPbP90D8EsbB
qrDCQIgp30BHurzBnmWGQMltA8B13ZnBSOqkQJjs3T5ltaTBZX2kQJCPuUC5Zc/B2u3UQJWQX7+T
7q7BbkV2QPUhTMAy5pPBRWKnQD/7B8DzlqHBGIy1QMkwaL87MqfBGFOxQBq25ECHgs/BUUS5QIhp
tT/BVarBwOa0QDA/tEChG73Bxh7ZQGnBa0AmMZnB9LqLQMl7W0DtWpjBuzDQQNo8okCZQ6rBrcKn
QPVJXEDFc7TBJZXWQE8wa0DLcaXBnZSvQEgMOUCvYKnBoBa1QNN/ZEBXRofBjYgAQOkAP8DfXYXB
7TOmQOxjokANU8bB1c21QAbhmkD1DLTBQGGzQCdjZkCUIZPBq0uJQHVQS0Cqo6LBMftKQLlYYUCJ
v5LBxBf8QN1IdkDV8pTB+NauQP6h+0BUotjBIwPgQCKmPj/O5LLBxoPAQI0UrsC5757BH7WHQKMi
qcBaD5HBrtLUQPugW8CYdKnBfZjKQEdzDEHgB8bBmqDOQFHJ7ECXXrXB+pRrQFB2j7+/jJjBqHGL
QPaPHj/GD5/BAR+ZQNPVqkDErdbBPKLkQIXd37+pHrLBREC/QDU4t0Ckm6TBByvvQFSqsEDgX6zB
GHi6QBN3OEBSabrBL4+FQFaOWEASe7bBVOPzQMBuTkDPvKjB2GeUQMw0YEAWDYTBcrTHQGqSLECV
pYTBB2/EQAypj0DzVITB3+5YQD0+S0CEHKbBUEsTQA5XWUDaj5bBTJVLQHSTbUBd5YrB

>  <OMEGA_E>  (4) 
+HJqPkBUfj4=

>  <OMEGA_NBR>  (4) 
     20908

$$$$
50220718
     RDKit          3D

 51 55  0  0  1  0  0  0  0  0999 V2000
    2.8511   -3.0642  -17.4411 C   0  0  0  0  0  0  0  0  0  0  0  0
    5.4469   -4.5324  -19.7095 C   0  0  0  0  0  0  0  0  0  0  0  0
    4.4587   -4.4278  -18.7134 C   0  0  0  0  0  0  0  0  0  0  0  0
    5.8263   -3.3989  -20.4492 C   0  0  0  0  0  0  0  0  0  0  0  0
    4.2209   -2.0517  -19.1968 C   0  0  0  0  0  0  0  0  0  0  0  0
    5.1527    0.4051  -20.6192 C   0  0  0  0  0  0  0  0  0  0  0  0
    6.0266    7.7489  -24.5356 C   0  0  0  0  0  0  0  0  0  0  0  0
    5.1931    5.8975  -25.8522 C   0  0  0  0  0  0  0  0  0  0  0  0
    6.6520   -0.9191  -21.8770 C   0  0  0  0  0  0  0  0  0  0  0  0
    3.8454   -3.1858  -18.4592 C   0  0  0  0  0  0  0  0  0  0  0  0
    5.2214   -2.1460  -20.1931 C   0  0  0  0  0  0  0  0  0  0  0  0
    5.6710   -0.9391  -20.9096 C   0  0  0  0  0  0  0  0  0  0  0  0
    5.5981    7.2379  -25.7739 C   0  0  0  0  0  0  0  0  0  0  0  0
    5.8060    1.3817  -21.3169 C   0  0  0  0  0  0  0  0  0  0  0  0
    5.6436    5.6665  -23.5688 C   0  0  0  0  0  0  0  0  0  0  0  0
    6.7769    3.6226  -19.1393 C   0  0  0  0  0  0  0  0  0  0  0  0
    4.3609    3.3771  -19.0823 C   0  0  0  0  0  0  0  0  0  0  0  0
    6.5144    5.0459  -21.2512 C   0  0  0  0  0  0  0  0  0  0  0  0
    5.3079    3.4229  -22.5773 C   0  0  0  0  0  0  0  0  0  0  0  0
    6.7205    3.6392  -20.6721 C   0  0  2  0  0  0  0  0  0  0  0  0
    5.5128    2.8574  -21.1952 C   0  0  2  0  0  0  0  0  0  0  0  0
    5.6138    3.5410  -16.9254 C   0  0  0  0  0  0  0  0  0  0  0  0
    2.0403   -2.9548  -16.6108 N   0  0  0  0  0  0  0  0  0  0  0  0
    6.0500    6.9519  -23.4499 N   0  0  0  0  0  0  0  0  0  0  0  0
    5.2153    5.1361  -24.7468 N   0  0  0  0  0  0  0  0  0  0  0  0
    5.6736    4.8382  -22.4667 N   0  0  0  0  0  0  0  0  0  0  0  0
    5.5940    3.4562  -18.4034 N   0  0  0  0  0  0  0  0  0  0  0  0
    4.3009    3.1452  -20.3732 N   0  0  0  0  0  0  0  0  0  0  0  0
    3.1621    3.5452  -18.4024 N   0  0  0  0  0  0  0  0  0  0  0  0
    7.8471    3.8482  -18.5855 O   0  0  0  0  0  0  0  0  0  0  0  0
    7.0150    0.6953  -22.3784 S   0  0  0  0  0  0  0  0  0  0  0  0
    5.5701    8.2500  -27.1867 Cl  0  0  0  0  0  0  0  0  0  0  0  0
    5.9149   -5.4856  -19.9063 H   0  0  0  0  0  0  0  0  0  0  0  0
    4.1707   -5.2992  -18.1441 H   0  0  0  0  0  0  0  0  0  0  0  0
    6.5822   -3.4848  -21.2157 H   0  0  0  0  0  0  0  0  0  0  0  0
    3.7437   -1.1025  -19.0029 H   0  0  0  0  0  0  0  0  0  0  0  0
    4.3442    0.5997  -19.9300 H   0  0  0  0  0  0  0  0  0  0  0  0
    6.3368    8.7802  -24.4552 H   0  0  0  0  0  0  0  0  0  0  0  0
    4.8662    5.4815  -26.7937 H   0  0  0  0  0  0  0  0  0  0  0  0
    7.1337   -1.8011  -22.2725 H   0  0  0  0  0  0  0  0  0  0  0  0
    5.9957    5.6910  -20.5268 H   0  0  0  0  0  0  0  0  0  0  0  0
    7.4797    5.4993  -21.5205 H   0  0  0  0  0  0  0  0  0  0  0  0
    5.9563    2.9118  -23.3042 H   0  0  0  0  0  0  0  0  0  0  0  0
    4.2573    3.3182  -22.8859 H   0  0  0  0  0  0  0  0  0  0  0  0
    7.6456    3.2054  -21.0794 H   0  0  0  0  0  0  0  0  0  0  0  0
    4.5973    3.3847  -16.5350 H   0  0  0  0  0  0  0  0  0  0  0  0
    6.2840    2.7673  -16.5229 H   0  0  0  0  0  0  0  0  0  0  0  0
    5.9750    4.5341  -16.6201 H   0  0  0  0  0  0  0  0  0  0  0  0
    3.4081    3.1621  -20.8233 H   0  0  0  0  0  0  0  0  0  0  0  0
    2.2946    3.4878  -18.8967 H   0  0  0  0  0  0  0  0  0  0  0  0
    3.1660    3.7235  -17.4185 H   0  0  0  0  0  0  0  0  0  0  0  0
  1 10  1  0
  1 23  3  0
  2  3  2  0
  2  4  1  0
  3 10  1  0
  4 11  2  0
  5 10  2  0
  5 11  1  0
  6 12  1  0
  6 14  2  0
  7 13  2  0
  7 24  1  0
  8 13  1  0
  8 25  2  0
  9 12  2  0
  9 31  1  0
 11 12  1  0
 13 32  1  0
 21 14  1  6
 14 31  1  0
 15 24  2  0
 15 25  1  0
 15 26  1  0
 16 20  1  0
 16 27  1  0
 16 30  2  0
 17 27  1  0
 17 28  2  0
 17 29  1  0
 18 20  1  0
 18 26  1  0
 19 21  1  0
 19 26  1  0
 20 21  1  0
 21 28  1  0
 22 27  1  0
  2 33  1  0
  3 34  1  0
  4 35  1  0
  5 36  1  0
  6 37  1  0
  7 38  1  0
  8 39  1  0
  9 40  1  0
 18 41  1  0
 18 42  1  0
 19 43  1  0
 19 44  1  0
 20 45  1  6
 22 46  1  0
 22 47  1  0
 22 48  1  0
 28 49  1  0
 29 50  1  0
 29 51  1  0
M  CHG  1  28   1
M  END
>  <OMEGA_C>  (5) 
4Xg2QFocRMBlh4vB40yuQAcJkcAjrZ3BZ62OQDOwjcD6tJXBHnG6QMmGWcD4l6PB5BGHQB9PA8AU
k5nBteKkQFJuzz4Z9KTByNnAQLH290DiSMTB3y2mQK+4vEBh0c7BW93UQBBKa78tBK/BNxp2QGTk
S8BirJPBEBanQKlXCcBfi6HBN3m1QARpcL/dRqfBtCOzQIGc50D0MM7Basq5QBzcsD8ViarBgJi0
QOlTtUAAjbzBSNzYQAbZZ0BcHZnBMIyLQAYjWECXqJjB93XQQMN3oUBnAqrB/tmpQEwRW0BTnrTB
9g3XQArpaEBlYKXB6GiwQKzfNkDFj6nB+aOzQDSgYkBLZ4fBE5UCQMwaPcDq4oTB7ZnBQF123kBU
mbvBuOOmQONapEBl+cXBII61QKDSmkDMu7PBpAGzQLAyXUAlOpPB+qCJQG5LSUBM/KLBZV9KQMDj
YkApOJPB0xv7QOJIdkAvr5TBMnvgQLv8MT8EB7PB5D2yQDMABEFYftnBwUa9QPuJr8AOQJ/BvHaF
QG2TqcA4J5HByKHSQHYGX8DUuanBc5lvQGUdjb/YBZjB9AOLQKmIGT+vcJ/BFsfKQM17DEFIpMPB
kLebQEpor0CMWdbBQUfkQN6L5r8RLrLB0ty/QMgctkDYNqTB8FnvQA/6r0AWKqzBtJm+QOJaOkDs
brrBcjuIQO1cVEBqFrfBmqj0QFIlTUCpoqjBVB2TQHKfWEC2R4TB6hbJQH8bMUDNLoTBSjO/QKoX
kUD09YTBGh5aQCBgSkAflqbBgdsSQLs4X0BmLJfBjaBKQHdNbkABWYvBUp01QMFKRMBznIvBRqCv
QK+akMBWVZ3B7qaPQINbjcAjc5XBCW27QJHgWMDfVaPBa7qGQIJ2A8D6pJnBUOekQMh20T5T7KTB
jDulQFekvECA0c7BflnAQCjx90DFYMTBPCvVQM/wab/Q6a7BVU12QBjFS8CioZPBF02nQJgkCcDx
eaHBnZq1QE5ib78HOKfB7PixQCma50AcOs7BqOO5QNxwsT97fKrBI520QA9MtUBFmbzBZSLZQFkI
aEBWI5nBU9eLQIMCWEDlnpjBOXXQQB+ooUCEBqrBDeCpQLgqW0B5nLTBQy7XQDdOaUD4ZaXByYGw
QBUyN0B3jKnBBki0QO3RYECpZYfBc8kAQCmNPcCUFIXBHpKmQFBCpEC5+8XBr7XBQIxs3kDUsrvB
jay1QKjfmkAcxLPBOmWzQK2kXEBOOZPBW86JQA7XSUBy9aLBlhFLQClrYkBTJZPBkmv7QKF7dkAU
upTBtMbgQPVUMz8b7LLBOM2vQF4SBEGkfdnBniK/QNnxrsC9xp7BYdaGQHscqcDxy5DBxvHTQGox
XsBgY6nBpmBtQNBsjr/DSJjB0OmKQLtnGj+lcZ/BMHCaQLFJr0ADUdbBzUzKQJ95DEEKxsPBcrbk
QO7L5b8sDLLB07a/QAM5tkAvPaTBi07vQBBNsEARKazBLIm+QFs/OkBubbrBrDmIQEuIVECfDrfB
UMD0QCeeTUCxr6jBjdSTQO5kVkAtP4TBWNXJQNcGL0CfSYTBwNm/QPcSkEB13YTBh3daQMKbS0Da
jabBxngTQP0CX0DlFZfBnXxLQHlSbUBPQ4vB

>  <OMEGA_E>  (5) 
ONoXPtC7GD4=

>  <OMEGA_NBR>  (5) 
     22933

$$$$
50220719
     RDKit          3D

 51 55  0  0  1  0  0  0  0  0999 V2000
    2.8315   -3.0727  -17.4445 C   0  0  0  0  0  0  0  0  0  0  0  0
    5.4874   -4.5222  -19.6544 C   0  0  0  0  0  0  0  0  0  0  0  0
    4.4850   -4.4218  -18.6721 C   0  0  0  0  0  0  0  0  0  0  0  0
    5.8568   -3.3917  -20.4036 C   0  0  0  0  0  0  0  0  0  0  0  0
    4.2055   -2.0583  -19.1970 C   0  0  0  0  0  0  0  0  0  0  0  0
    5.1613    0.4085  -20.5972 C   0  0  0  0  0  0  0  0  0  0  0  0
    5.9851    7.7692  -24.5331 C   0  0  0  0  0  0  0  0  0  0  0  0
    5.1574    5.9190  -25.8550 C   0  0  0  0  0  0  0  0  0  0  0  0
    6.6510   -0.9210  -21.8616 C   0  0  0  0  0  0  0  0  0  0  0  0
    3.8423   -3.1889  -18.4468 C   0  0  0  0  0  0  0  0  0  0  0  0
    5.2268   -2.1460  -20.1722 C   0  0  0  0  0  0  0  0  0  0  0  0
    5.6741   -0.9383  -20.8901 C   0  0  0  0  0  0  0  0  0  0  0  0
    5.5417    7.2652  -25.7696 C   0  0  0  0  0  0  0  0  0  0  0  0
    5.8036    1.3817  -21.3113 C   0  0  0  0  0  0  0  0  0  0  0  0
    5.6585    5.6682  -23.5842 C   0  0  0  0  0  0  0  0  0  0  0  0
    6.7851    3.6192  -19.1453 C   0  0  0  0  0  0  0  0  0  0  0  0
    4.3697    3.3662  -19.0815 C   0  0  0  0  0  0  0  0  0  0  0  0
    6.5267    5.0430  -21.2587 C   0  0  0  0  0  0  0  0  0  0  0  0
    5.3070    3.4223  -22.5852 C   0  0  0  0  0  0  0  0  0  0  0  0
    6.7267    3.6369  -20.6783 C   0  0  2  0  0  0  0  0  0  0  0  0
    5.5141    2.8597  -21.1994 C   0  0  2  0  0  0  0  0  0  0  0  0
    5.6316    3.4916  -16.9284 C   0  0  0  0  0  0  0  0  0  0  0  0
    2.0073   -2.9683  -16.6268 N   0  0  0  0  0  0  0  0  0  0  0  0
    6.0436    6.9597  -23.4572 N   0  0  0  0  0  0  0  0  0  0  0  0
    5.2157    5.1447  -24.7595 N   0  0  0  0  0  0  0  0  0  0  0  0
    5.7188    4.8269  -22.4933 N   0  0  0  0  0  0  0  0  0  0  0  0
    5.6057    3.4363  -18.4072 N   0  0  0  0  0  0  0  0  0  0  0  0
    4.3057    3.1550  -20.3754 N   0  0  0  0  0  0  0  0  0  0  0  0
    3.1730    3.5190  -18.3939 N   0  0  0  0  0  0  0  0  0  0  0  0
    7.8546    3.8506  -18.5926 O   0  0  0  0  0  0  0  0  0  0  0  0
    5.4876    8.0614  -26.8572 F   0  0  0  0  0  0  0  0  0  0  0  0
    7.0070    0.6905  -22.3755 S   0  0  0  0  0  0  0  0  0  0  0  0
    5.9738   -5.4698  -19.8332 H   0  0  0  0  0  0  0  0  0  0  0  0
    4.2087   -5.2893  -18.0912 H   0  0  0  0  0  0  0  0  0  0  0  0
    6.6245   -3.4741  -21.1588 H   0  0  0  0  0  0  0  0  0  0  0  0
    3.7026   -1.1174  -19.0287 H   0  0  0  0  0  0  0  0  0  0  0  0
    4.3650    0.6070  -19.8952 H   0  0  0  0  0  0  0  0  0  0  0  0
    6.2787    8.8048  -24.4461 H   0  0  0  0  0  0  0  0  0  0  0  0
    4.8173    5.5085  -26.7943 H   0  0  0  0  0  0  0  0  0  0  0  0
    7.1340   -1.8041  -22.2532 H   0  0  0  0  0  0  0  0  0  0  0  0
    5.9853    5.6837  -20.5471 H   0  0  0  0  0  0  0  0  0  0  0  0
    7.4951    5.5037  -21.5036 H   0  0  0  0  0  0  0  0  0  0  0  0
    5.9281    2.8849  -23.3169 H   0  0  0  0  0  0  0  0  0  0  0  0
    4.2492    3.3484  -22.8778 H   0  0  0  0  0  0  0  0  0  0  0  0
    7.6490    3.1981  -21.0868 H   0  0  0  0  0  0  0  0  0  0  0  0
    4.6171    3.3260  -16.5369 H   0  0  0  0  0  0  0  0  0  0  0  0
    6.3047    2.7110  -16.5442 H   0  0  0  0  0  0  0  0  0  0  0  0
    5.9928    4.4789  -16.6048 H   0  0  0  0  0  0  0  0  0  0  0  0
    3.4136    3.1933  -20.8258 H   0  0  0  0  0  0  0  0  0  0  0  0
    2.3037    3.4667  -18.8854 H   0  0  0  0  0  0  0  0  0  0  0  0
    3.1805    3.6815  -17.4072 H   0  0  0  0  0  0  0  0  0  0  0  0
  1 10  1  0
  1 23  3  0
  2  3  2  0
  2  4  1  0
  3 10  1  0
  4 11  2  0
  5 10  2  0
  5 11  1  0
  6 12  1  0
  6 14  2  0
  7 13  2  0
  7 24  1  0
  8 13  1  0
  8 25  2  0
  9 12  2  0
  9 32  1  0
 11 12  1  0
 13 31  1  0
 21 14  1  6
 14 32  1  0
 15 24  2  0
 15 25  1  0
 15 26  1  0
 16 20  1  0
 16 27  1  0
 16 30  2  0
 17 27  1  0
 17 28  2  0
 17 29  1  0
 18 20  1  0
 18 26  1  0
 19 21  1  0
 19 26  1  0
 20 21  1  0
 21 28  1  0
 22 27  1  0
  2 33  1  0
  3 34  1  0
  4 35  1  0
  5 36  1  0
  6 37  1  0
  7 38  1  0
  8 39  1  0
  9 40  1  0
 18 41  1  0
 18 42  1  0
 19 43  1  0
 19 44  1  0
 20 45  1  6
 22 46  1  0
 22 47  1  0
 22 48  1  0
 28 49  1  0
 29 50  1  0
 29 51  1  0
M  CHG  1  28   1
M  END
>  <OMEGA_C>  (6) 
BDc1QE6mRMBSjovBc5ivQES2kMBHPJ3BUYWPQDJ/jcBdYJXB8mq7QPgQWcCqOqPBGZOGQCq7A8CC
k5nBoSmlQPkh0T4Jx6TBGIa/QOSc+EC7Q8TBfQmlQLtovUAO187B5dTUQLrGa7+S5K7BZuh1QCAW
TMAbk5PBNUKnQDRYCcDAYKHBapK1QHw1cL/mHqfB5lWxQN186EA2KM7B2La5QKDbsD96farBUxK1
QCJitUCArLzBjh/ZQOygZ0CrKZnBRtSLQBxwV0DSppjBu9rQQAZgoUDQEarBptKpQOUGW0CKrrTB
DEHXQALDaEBCbaXBcXOwQO8EN0BemKnBaTa0QDl2X0BgbYfBfHcAQHD4PcCuA4XB8GTBQBK23kA/
qLvBCOemQKehpECAE8bBLQC3QMp1mkAv8rPBimGzQCLtW0DbQZPB5MeJQNfqSUDPAKPBKBJLQB04
YUCoJpPB/Fj7QJJwdkCVvZTBiZqvQEv7AEGT29bBAzngQKzDMD8BAbPBRym/QIUIr8Beqp7Bw62G
QCpCqcC+upDBr/vTQFxYXsBBRanBjfdsQJYIj7+wOpjB2K2LQMlkGz9cKZ/B9OrIQKPgDEGbkcPB
kSeaQPBFsECxWtbBiEnkQNLr5r91BrLBy4e/QDXhtUCGYKTBqNfvQC0esEByB6zBZbO9QLqiOEAK
ibrBH/mHQNNMVkC5BbfBZMT0QPSsTEC0sajBU7+TQKjcVECNS4TBesDJQOGALUCSWoTBp8S/QIRT
j0Cb1oTBGXlaQLpfTEAym6bBvG8TQLPdXUBKFZfB4IxLQM6da0DsQYvBL9w0QHDWQ8DttYvBsA+w
QCRBkMDXMp3B8sKPQPEFjcAZZpXBJqO7QG14WMDgR6PBNSGGQPBjA8DW0ZnBoaSkQGic0T7PBaXB
V12mQKLmu0Bd5M7BHjrAQFDD90Duc8TBOU3VQO4nab8O6q7B7Yl1QJVqS8CrupPBzQanQKwFCcCQ
kaHBDWq1QC4Wb7+LTafBwwGzQAHm5kCSWs7B7/O5QBy2sT8NfKrBKEm0QCRPtUCWlLzB21XZQEQv
aECWJZnBsBSMQCVrV0DkjpjBHWvQQIDBoUCTB6rBHM2pQKc9W0A6lLTBFz7XQACAaUDfZ6XBVI2w
QAFNN0DFhqnBs8a0QKBTX0AfYIfBBT8AQDsaPcAwJ4XBa/mmQMrmo0D8/MXBdd7AQDeb3kBesrvB
P2C1QAH6mkB8urPBsbazQPYlXEBKNJPB1eiJQN3WSUAR6KLBHLdLQBIRYUDsBZPB3qD7QBYFd0B8
wpTBHGayQIqd/0CrMtfBtiLhQLWHND862bLB2/2/QOl3rsDkg57BLxKHQJatqMDQsZDB01rUQLfJ
XcBfSKnB5VxrQNDRjr+BlZjBkV6KQHwJGj/rn5/BfzicQAI1rkCZaNbBVtzJQIRvDEHW3sPBIfHk
QFFP5b8gCLLBpdW/QEVXtkD6N6TBMTjvQE5hsEA3N6zBKYe+QGePOkDNZrrBVCmIQGdHVED4BLfB
Esr0QADhTUA6t6jBUWKUQJGAVEBSNYTB6mzKQG5cLUBBWoTBFVLAQPQ9j0BRxYTBPp9aQPj+S0BU
fKbBFPkTQC6UXUD17ZbBjmdMQK+Aa0B0IYvB

>  <OMEGA_E>  (6) 
oKYVPsAoGT4=

>  <OMEGA_NBR>  (6) 
     24957

$$$$
50220716
     RDKit          3D

 53 57  0  0  1  0  0  0  0  0999 V2000
    2.8628   -3.0844  -17.3214 C   0  0  0  0  0  0  0  0  0  0  0  0
    4.8805    4.2202  -25.6327 C   0  0  0  0  0  0  0  0  0  0  0  0
    5.5400   -4.5366  -19.5008 C   0  0  0  0  0  0  0  0  0  0  0  0
    5.7217    7.8117  -25.5402 C   0  0  0  0  0  0  0  0  0  0  0  0
    4.5342   -4.4315  -18.5233 C   0  0  0  0  0  0  0  0  0  0  0  0
    5.2988    6.5522  -25.9727 C   0  0  0  0  0  0  0  0  0  0  0  0
    5.8896   -3.4172  -20.2763 C   0  0  0  0  0  0  0  0  0  0  0  0
    4.2135   -2.0842  -19.1044 C   0  0  0  0  0  0  0  0  0  0  0  0
    5.1149    0.3707  -20.5995 C   0  0  0  0  0  0  0  0  0  0  0  0
    6.1124    7.9813  -24.2039 C   0  0  0  0  0  0  0  0  0  0  0  0
    6.6463   -0.9752  -21.7952 C   0  0  0  0  0  0  0  0  0  0  0  0
    3.8702   -3.2047  -18.3270 C   0  0  0  0  0  0  0  0  0  0  0  0
    5.2754    5.4792  -25.0673 C   0  0  0  0  0  0  0  0  0  0  0  0
    5.2367   -2.1765  -20.0778 C   0  0  0  0  0  0  0  0  0  0  0  0
    5.6598   -0.9786  -20.8332 C   0  0  0  0  0  0  0  0  0  0  0  0
    5.7345    1.3293  -21.3588 C   0  0  0  0  0  0  0  0  0  0  0  0
    5.6875    5.7159  -23.7067 C   0  0  0  0  0  0  0  0  0  0  0  0
    6.7447    3.5861  -19.2599 C   0  0  0  0  0  0  0  0  0  0  0  0
    4.3316    3.3408  -19.1585 C   0  0  0  0  0  0  0  0  0  0  0  0
    6.4489    4.9747  -21.3803 C   0  0  0  0  0  0  0  0  0  0  0  0
    5.2245    3.3695  -22.7195 C   0  0  0  0  0  0  0  0  0  0  0  0
    6.6596    3.5844  -20.7946 C   0  0  2  0  0  0  0  0  0  0  0  0
    5.4398    2.8146  -21.3014 C   0  0  2  0  0  0  0  0  0  0  0  0
    5.6284    3.5064  -17.0213 C   0  0  0  0  0  0  0  0  0  0  0  0
    2.0438   -2.9786  -16.4986 N   0  0  0  0  0  0  0  0  0  0  0  0
    4.5571    3.2482  -26.1903 N   0  0  0  0  0  0  0  0  0  0  0  0
    6.0870    6.9577  -23.3272 N   0  0  0  0  0  0  0  0  0  0  0  0
    5.7670    4.7446  -22.6953 N   0  0  0  0  0  0  0  0  0  0  0  0
    5.5772    3.4232  -18.5006 N   0  0  0  0  0  0  0  0  0  0  0  0
    4.2471    3.1294  -20.4548 N   0  0  0  0  0  0  0  0  0  0  0  0
    3.1456    3.4835  -18.4498 N   0  0  0  0  0  0  0  0  0  0  0  0
    7.8239    3.8204  -18.7269 O   0  0  0  0  0  0  0  0  0  0  0  0
    6.9619    0.6211  -22.3808 S   0  0  0  0  0  0  0  0  0  0  0  0
    6.0447   -5.4787  -19.6559 H   0  0  0  0  0  0  0  0  0  0  0  0
    5.7473    8.6449  -26.2268 H   0  0  0  0  0  0  0  0  0  0  0  0
    4.2711   -5.2904  -17.9238 H   0  0  0  0  0  0  0  0  0  0  0  0
    4.9917    6.4048  -26.9975 H   0  0  0  0  0  0  0  0  0  0  0  0
    6.6605   -3.5042  -21.0277 H   0  0  0  0  0  0  0  0  0  0  0  0
    3.6939   -1.1489  -18.9579 H   0  0  0  0  0  0  0  0  0  0  0  0
    4.3145    0.5813  -19.9056 H   0  0  0  0  0  0  0  0  0  0  0  0
    6.4411    8.9543  -23.8697 H   0  0  0  0  0  0  0  0  0  0  0  0
    7.1593   -1.8605  -22.1410 H   0  0  0  0  0  0  0  0  0  0  0  0
    5.8145    5.5811  -20.7171 H   0  0  0  0  0  0  0  0  0  0  0  0
    7.4138    5.4815  -21.5290 H   0  0  0  0  0  0  0  0  0  0  0  0
    5.7635    2.7571  -23.4573 H   0  0  0  0  0  0  0  0  0  0  0  0
    4.1529    3.3839  -22.9675 H   0  0  0  0  0  0  0  0  0  0  0  0
    7.5755    3.1412  -21.2126 H   0  0  0  0  0  0  0  0  0  0  0  0
    4.6198    3.3534  -16.6098 H   0  0  0  0  0  0  0  0  0  0  0  0
    6.3042    2.7299  -16.6336 H   0  0  0  0  0  0  0  0  0  0  0  0
    5.9995    4.4979  -16.7226 H   0  0  0  0  0  0  0  0  0  0  0  0
    3.3490    3.1814  -20.8917 H   0  0  0  0  0  0  0  0  0  0  0  0
    2.2683    3.4244  -18.9261 H   0  0  0  0  0  0  0  0  0  0  0  0
    3.1690    3.6453  -17.4632 H   0  0  0  0  0  0  0  0  0  0  0  0
  1 12  1  0
  1 25  3  0
  2 13  1  0
  2 26  3  0
  3  5  2  0
  3  7  1  0
  4  6  2  0
  4 10  1  0
  5 12  1  0
  6 13  1  0
  7 14  2  0
  8 12  2  0
  8 14  1  0
  9 15  1  0
  9 16  2  0
 10 27  2  0
 11 15  2  0
 11 33  1  0
 13 17  2  0
 14 15  1  0
 23 16  1  6
 16 33  1  0
 17 27  1  0
 17 28  1  0
 18 22  1  0
 18 29  1  0
 18 32  2  0
 19 29  1  0
 19 30  2  0
 19 31  1  0
 20 22  1  0
 20 28  1  0
 21 23  1  0
 21 28  1  0
 22 23  1  0
 23 30  1  0
 24 29  1  0
  3 34  1  0
  4 35  1  0
  5 36  1  0
  6 37  1  0
  7 38  1  0
  8 39  1  0
  9 40  1  0
 10 41  1  0
 11 42  1  0
 20 43  1  0
 20 44  1  0
 21 45  1  0
 21 46  1  0
 22 47  1  6
 24 48  1  0
 24 49  1  0
 24 50  1  0
 30 51  1  0
 31 52  1  0
 31 53  1  0
M  CHG  1  30   1
M  END
>  <OMEGA_C>  (7) 
qjg3QCdnRcArkorBKi2cQHkLh0DLD83B3UexQIkrkcCeAZzB1Be3QIL5+UBAUszB+ReRQIXOjcCs
L5TBuo+pQOCr0UAIyM/ByHe8QBy0WsDnNaLBC9WGQBJkBcDJ1ZjBA62jQFTGvT7Ly6TB15jDQCBn
/0CXocHBb67UQA2meb+cXK7B1LF3QOgZTcCanZLBzM+oQMVVr0C+icjBr5KnQDZMC8A8n6DBKh21
QAmHer9wqqbBDIG3QNgnqj/O3qrB0v+1QJ3otkBAp73BVNTXQPWCZUA0FJrBwpyKQMvPVUCZRJnB
Kl3OQFYwn0DdCqvB/S6nQImmV0B0wbXBMBvVQFJmZUBaW6bBthKuQAQiNEBIaarBxRu0QKBpYECl
K4jBFc4CQMOhPsA4/YPBGNSRQCXiT0C0hdHB+MjCQFGl3kAKnrrB/4q4QHrTl0Dxj7XBtXiyQEMV
W0BSAZTB/OeHQF9ISEB9o6PB7VBJQJPxXkAfmZPBxF36QDmCdEC+0JXB4sfeQNABHz/6C7PB5m3B
QMhRr8A/P53BH+q3QJdRCkGH0NHBMK2IQE1LqcD2Y4/BA7yfQE30zED4+tfBySLVQBZEYMDEOKjB
GmhsQBYOk7/SqZfBgRCKQObMFD+2Pp/ByB3OQM5ED0En9b7B1RjlQIgj7r+zILHBnhC6QIqYskCu
vKXBpD3tQBdor0BoO6zBS264QJl0MECZqLvBqeSEQO2RWEBwvbfBgGryQMkJSUBUs6nBatWTQJud
VkDu4ITBxbvJQLK2LkCtEYXBGfy/QBHvj0Dux4XBulZWQGmbS0AxIqfBdCsRQBAqW0CfaJfBatBK
QBxMaUCrtIvBZis0QPLQRsDrgIzB5TzNQB5G+UDkkLXBvbmvQJpyj8CIXJ7BM62sQPDQ3EBYS9HB
Q1iPQLBRjcD7jpbBfTi7QHpc9EAAdcjB1Y27QB0IVcC4DqTBoPiFQJ6nAsACQ5rB0oukQKgR8z66
vqTBsleiQIZysUDB+s/BkfnVQHwDT7/2v67BUNd0QEBwTMCHipTBjUu/QIwT4ECadr7B3wynQJkD
BsA696HB2qG1QEI5XL8kRqfB8tm5QMpFvD/IAKrBuFW0QKIBtEAcnL3BoorZQLOWbUB24JjBeWeM
QAvUW0BP+JfB3zHQQL76o0CbHqrBhfmnQNG7XkDiJbTBbd/WQIWrbkBYM6XBtfCvQAlrPEC9EKnB
jBu2QJFUYEBe8IbBbTD/P+pKQcCq7IXB6bTYQKwHB0FgX67BEx2mQNY1nkDPYcbBAw22QBZEnEBI
ErTB9lK0QNdwYEDSx5LBOrWJQHcQT0AdUaLBoe5MQKWvY0AZRJLBjYX8QDHjdkBsl5TB6MLhQI7/
UD/xUbLBz4O/QOqArcD6+Z/BkXipQLDp60BkBtnBzoqGQH+iqcDbHpLBEDrDQNDmCkEJUsnB7GDU
QGeVWMBcDarB6wZrQDQdjr9UxZjBsSWKQC2+JT+/V5/B8jCXQJszn0BexNbBm/XlQFWw1r9J+bHB
qtG+QAfjuECFh6TB3CDvQFKpskDjKKzB5na6QP/6OUCuD7rBRbWFQN3XWkD4GbbBHx/0QFkDUkDL
iajB696VQAARVUCRsoPBiMHLQJ5FLUA+N4TBUAjCQI1Jj0CVG4TBm+lZQLHwUUB0z6XBF8AUQCKR
X0AZEJbBn3tOQIN2bUC+XIrB

>  <OMEGA_E>  (7) 
GAOfPpiswj4=

>  <OMEGA_NBR>  (7) 
     27037

$$$$
50220713
     RDKit          3D

 56 60  0  0  1  0  0  0  0  0999 V2000
    2.8711   -3.0623  -17.3630 C   0  0  0  0  0  0  0  0  0  0  0  0
    5.5452   -4.5192  -19.5447 C   0  0  0  0  0  0  0  0  0  0  0  0
    6.0774    7.8964  -24.5073 C   0  0  0  0  0  0  0  0  0  0  0  0
    4.5447   -4.4113  -18.5614 C   0  0  0  0  0  0  0  0  0  0  0  0
    5.8857   -3.4041  -20.3305 C   0  0  0  0  0  0  0  0  0  0  0  0
    6.0869    7.0483  -23.3926 C   0  0  0  0  0  0  0  0  0  0  0  0
    5.6455    7.3865  -25.7431 C   0  0  0  0  0  0  0  0  0  0  0  0
    4.2089   -2.0717  -19.1583 C   0  0  0  0  0  0  0  0  0  0  0  0
    5.1230    0.3792  -20.6224 C   0  0  0  0  0  0  0  0  0  0  0  0
    6.6155   -0.9606  -21.8719 C   0  0  0  0  0  0  0  0  0  0  0  0
    3.8751   -3.1868  -18.3712 C   0  0  0  0  0  0  0  0  0  0  0  0
    5.2288   -2.1658  -20.1350 C   0  0  0  0  0  0  0  0  0  0  0  0
    5.6488   -0.9689  -20.8901 C   0  0  0  0  0  0  0  0  0  0  0  0
    5.7470    1.3461  -21.3637 C   0  0  0  0  0  0  0  0  0  0  0  0
    5.6551    5.7150  -23.5467 C   0  0  0  0  0  0  0  0  0  0  0  0
    5.2355    6.0399  -25.8394 C   0  0  0  0  0  0  0  0  0  0  0  0
    6.7597    3.5619  -19.1827 C   0  0  0  0  0  0  0  0  0  0  0  0
    4.3413    3.3411  -19.1183 C   0  0  0  0  0  0  0  0  0  0  0  0
    6.5262    4.9963  -21.2697 C   0  0  0  0  0  0  0  0  0  0  0  0
    5.2840    3.4264  -22.6228 C   0  0  0  0  0  0  0  0  0  0  0  0
    6.6973    3.5819  -20.7116 C   0  0  2  0  0  0  0  0  0  0  0  0
    5.4745    2.8293  -21.2441 C   0  0  2  0  0  0  0  0  0  0  0  0
    5.6067    3.5084  -16.9668 C   0  0  0  0  0  0  0  0  0  0  0  0
    4.5320    4.1399  -27.1415 C   0  0  0  0  0  0  0  0  0  0  0  0
    2.0541   -2.9518  -16.5389 N   0  0  0  0  0  0  0  0  0  0  0  0
    5.2413    5.2427  -24.7454 N   0  0  0  0  0  0  0  0  0  0  0  0
    5.6669    4.8411  -22.4755 N   0  0  0  0  0  0  0  0  0  0  0  0
    5.5786    3.4074  -18.4435 N   0  0  0  0  0  0  0  0  0  0  0  0
    4.2717    3.1276  -20.4128 N   0  0  0  0  0  0  0  0  0  0  0  0
    3.1471    3.5055  -18.4298 N   0  0  0  0  0  0  0  0  0  0  0  0
    7.8270    3.8149  -18.6349 O   0  0  0  0  0  0  0  0  0  0  0  0
    4.8345    5.5577  -27.0748 O   0  0  0  0  0  0  0  0  0  0  0  0
    6.9396    0.6445  -22.4320 S   0  0  0  0  0  0  0  0  0  0  0  0
    6.0527   -5.4604  -19.6961 H   0  0  0  0  0  0  0  0  0  0  0  0
    6.3966    8.9243  -24.4183 H   0  0  0  0  0  0  0  0  0  0  0  0
    4.2904   -5.2665  -17.9530 H   0  0  0  0  0  0  0  0  0  0  0  0
    6.6518   -3.4928  -21.0865 H   0  0  0  0  0  0  0  0  0  0  0  0
    6.4194    7.4098  -22.4307 H   0  0  0  0  0  0  0  0  0  0  0  0
    5.6273    8.0226  -26.6157 H   0  0  0  0  0  0  0  0  0  0  0  0
    3.6845   -1.1382  -19.0173 H   0  0  0  0  0  0  0  0  0  0  0  0
    4.3307    0.5836  -19.9175 H   0  0  0  0  0  0  0  0  0  0  0  0
    7.1094   -1.8455  -22.2453 H   0  0  0  0  0  0  0  0  0  0  0  0
    6.0372    5.6462  -20.5290 H   0  0  0  0  0  0  0  0  0  0  0  0
    7.5022    5.4230  -21.5443 H   0  0  0  0  0  0  0  0  0  0  0  0
    5.9321    2.9238  -23.3558 H   0  0  0  0  0  0  0  0  0  0  0  0
    4.2346    3.3400  -22.9410 H   0  0  0  0  0  0  0  0  0  0  0  0
    7.6132    3.1325  -21.1230 H   0  0  0  0  0  0  0  0  0  0  0  0
    4.5918    3.3602  -16.5693 H   0  0  0  0  0  0  0  0  0  0  0  0
    6.2763    2.7366  -16.5593 H   0  0  0  0  0  0  0  0  0  0  0  0
    5.9733    4.5034  -16.6744 H   0  0  0  0  0  0  0  0  0  0  0  0
    4.2273    3.8772  -28.1652 H   0  0  0  0  0  0  0  0  0  0  0  0
    5.4256    3.5611  -26.8650 H   0  0  0  0  0  0  0  0  0  0  0  0
    3.7138    3.9065  -26.4442 H   0  0  0  0  0  0  0  0  0  0  0  0
    3.3774    3.1666  -20.8586 H   0  0  0  0  0  0  0  0  0  0  0  0
    2.2768    3.4596  -18.9202 H   0  0  0  0  0  0  0  0  0  0  0  0
    3.1572    3.6699  -17.4435 H   0  0  0  0  0  0  0  0  0  0  0  0
  1 11  1  0
  1 25  3  0
  2  4  2  0
  2  5  1  0
  3  6  2  0
  3  7  1  0
  4 11  1  0
  5 12  2  0
  6 15  1  0
  7 16  2  0
  8 11  2  0
  8 12  1  0
  9 13  1  0
  9 14  2  0
 10 13  2  0
 10 33  1  0
 12 13  1  0
 22 14  1  6
 14 33  1  0
 15 26  2  0
 15 27  1  0
 16 26  1  0
 16 32  1  0
 17 21  1  0
 17 28  1  0
 17 31  2  0
 18 28  1  0
 18 29  2  0
 18 30  1  0
 19 21  1  0
 19 27  1  0
 20 22  1  0
 20 27  1  0
 21 22  1  0
 22 29  1  0
 23 28  1  0
 24 32  1  0
  2 34  1  0
  3 35  1  0
  4 36  1  0
  5 37  1  0
  6 38  1  0
  7 39  1  0
  8 40  1  0
  9 41  1  0
 10 42  1  0
 19 43  1  0
 19 44  1  0
 20 45  1  0
 20 46  1  0
 21 47  1  6
 23 48  1  0
 23 49  1  0
 23 50  1  0
 24 51  1  0
 24 52  1  0
 24 53  1  0
 29 54  1  0
 30 55  1  0
 30 56  1  0
M  CHG  1  29   1
M  END
>  <OMEGA_C>  (8) 
FcA3QEH8Q8BZ54rBcXKxQD2dkMB9W5zBUHrCQF2v/EDfDsTBd26RQPsojcDCfZTBa1e8QHLcWcDW
pKLBgsfCQNeL4UD9I7vBuae0QNtd7EDH8c3BWq+GQEWXBMBNRJnB2++jQJ4owj65+qTBILLTQLHp
db+Z+a7BYgJ4QEX1S8BA+JLBN1KnQIqcCsCEFKHBlMK0QIMLeL/mHqfBTee3QEpMrD/X6KrBeva0
QCPhtkCpX7zBMomnQBpHwUAmt87By0/YQG/1Y0AndpnB5OuKQPbTVUBd8pjBcNbQQL/hn0BFKKrB
qhapQJ9KW0By+7TBilDWQBo9ZUBmsaXBdy+vQIgTNUDa86nB/GmzQFaJYEAOvIfBUwaRQDF6hECx
IdnBrnUDQHTqPMCiT4TBy7inQIXEp0Cu9sXBAFe1QHLqmkDIzbPBlIOyQO0SWkBcjJPBg7GIQMUq
SEByTaPBTGpJQH9aYEBPcJPB93b6QF8ndEBXFJXBO7SaQKDYsUA3mdjBfBHeQPb6JD+2dLPBtq/B
QNK7rsC2kZ3BJLHMQATKDkG+WMPB50qJQIuHqMCzn4/BVNvUQLeKX8A5sajB0WvNQBYd7UAjcrPB
FBO0QHZcAEHc7NTB7s5rQAOwkb92I5jBe5WKQORnFT8NV5/BRYDjQPw37L9v9rHB0TDBQOittEB9
O6TBvRHwQNOIrUC0WqzBhtO9QDQfO0C+2LrB7IGHQAbCVUAth7fBn5/zQBB7SEDa+6jBFvCSQLYN
V0DTjYTBM9fIQL0kL0CKeYTB4SS/QBEckEAlZYXBV0aHQO0jeEBpUuHB3p6tQOvoY0Ca69bBiq9t
QHEEekDNjdPBHCdYQA2pSkB03qbBV7cRQKRpXUCaXJfBUg9KQFrgakBJjIvBhX8rQB/fUsBrT4vB
fxq3QKHXj8Am7pnBytPFQCAQykASUs/Bw3eTQOgZj8CBDZPBKXTBQDjvVsDIBaDBmV7JQAE7rEDL
/8bBqo2xQPBJ8UAMRc3BOd6EQMUbCsCoOZjB99+oQDf4yz74CKPBji7JQODGjL9dS6/BY4V0QDSX
U8CCNpLBOWqoQP+sC8DvOJ/BLFqzQCFUgL9YxaXBZ6y3QFChpT82kqrBOk25QHnutkBlx7zBOpuh
QPoR+kB61MLBAWjcQDasaEDJ0pnBWlKOQPlHYkDCe5nBoRHZQOzKnUDHUKvBqImuQFPpWEC0jrXB
0AvbQIE9YkADD6bBY6iyQJsoNEC1LKrBG0O2QNw/f0ASbojBCgqGQIZYH0EcpcjBrunfP0KkUsD8
r4XBhWWmQKoV3UCB3rrBFR67QASmmUDjerTBJ9y1QKC3akDFCJTB+UuMQKrGTEDMrKPBPYdPQKh6
b0A3IpTBngr/QIU4dUCZdpXBmUeMQCnOD0EMM8DBKxzSQAJg5z4c67TBGIDKQGBYrMB5h5rBcnbS
QOkAw0CYKtfBDmeLQIcdq8CHaY7Bt6rcQO11WMBVWKXBJizYQA1+jUDgYMjBXRKuQIlVBEGnktPB
VK5jQHpuob8be5fBSI+XQPkxMD8n7ZvBsnfTQKkMAsCa0bLB1BLNQOSctUCEkqXB8Pv4QIVsp0D+
I67BkQzEQJU9N0CLG7vBymGNQGOjU0AxcLjBBqr3QP86QEAz66jBgVuVQAjJfUBDT4XBr9LJQEG/
T0DjJ4TBYerDQFG2n0AAO4fBvq9pQEZQLUEndMXB2FSlQNxwJEF3xMvBYGlmQA4XGEFZIs/BwFZf
QKDoTED1P6fB8QwYQPKPaEALB5jBq6lPQCfef0CBZozB

>  <OMEGA_E>  (8) 
gI7rPS5BBj8=

>  <OMEGA_NBR>  (8) 
     29201

$$$$
50220721
     RDKit          3D

 51 55  0  0  1  0  0  0  0  0999 V2000
    2.8379   -3.0708  -17.4515 C   0  0  0  0  0  0  0  0  0  0  0  0
    5.4936   -4.5234  -19.6604 C   0  0  0  0  0  0  0  0  0  0  0  0
    4.4914   -4.4230  -18.6778 C   0  0  0  0  0  0  0  0  0  0  0  0
    5.8613   -3.3933  -20.4113 C   0  0  0  0  0  0  0  0  0  0  0  0
    5.5640    7.2576  -25.7819 C   0  0  0  0  0  0  0  0  0  0  0  0
    4.2005   -2.0637  -19.2143 C   0  0  0  0  0  0  0  0  0  0  0  0
    5.1568    0.4051  -20.6072 C   0  0  0  0  0  0  0  0  0  0  0  0
    5.1743    5.9112  -25.8600 C   0  0  0  0  0  0  0  0  0  0  0  0
    6.0059    7.7603  -24.5436 C   0  0  0  0  0  0  0  0  0  0  0  0
    6.6560   -0.9194  -21.8652 C   0  0  0  0  0  0  0  0  0  0  0  0
    3.8434   -3.1918  -18.4582 C   0  0  0  0  0  0  0  0  0  0  0  0
    5.2253   -2.1496  -20.1855 C   0  0  0  0  0  0  0  0  0  0  0  0
    5.6730   -0.9404  -20.9001 C   0  0  0  0  0  0  0  0  0  0  0  0
    5.8054    1.3815  -21.3112 C   0  0  0  0  0  0  0  0  0  0  0  0
    5.6485    5.6691  -23.5804 C   0  0  0  0  0  0  0  0  0  0  0  0
    6.7816    3.6190  -19.1440 C   0  0  0  0  0  0  0  0  0  0  0  0
    4.3665    3.3687  -19.0802 C   0  0  0  0  0  0  0  0  0  0  0  0
    6.5095    5.0491  -21.2535 C   0  0  0  0  0  0  0  0  0  0  0  0
    5.3053    3.4233  -22.5814 C   0  0  0  0  0  0  0  0  0  0  0  0
    6.7205    3.6416  -20.6769 C   0  0  2  0  0  0  0  0  0  0  0  0
    5.5122    2.8588  -21.1970 C   0  0  2  0  0  0  0  0  0  0  0  0
    5.6297    3.4896  -16.9266 C   0  0  0  0  0  0  0  0  0  0  0  0
    2.0192   -2.9582  -16.6294 N   0  0  0  0  0  0  0  0  0  0  0  0
    5.2176    5.1415  -24.7586 N   0  0  0  0  0  0  0  0  0  0  0  0
    6.0493    6.9567  -23.4615 N   0  0  0  0  0  0  0  0  0  0  0  0
    5.6809    4.8382  -22.4775 N   0  0  0  0  0  0  0  0  0  0  0  0
    5.6025    3.4364  -18.4054 N   0  0  0  0  0  0  0  0  0  0  0  0
    4.3025    3.1484  -20.3729 N   0  0  0  0  0  0  0  0  0  0  0  0
    3.1703    3.5345  -18.3951 N   0  0  0  0  0  0  0  0  0  0  0  0
    7.8522    3.8458  -18.5915 O   0  0  0  0  0  0  0  0  0  0  0  0
    7.0158    0.6945  -22.3698 S   0  0  0  0  0  0  0  0  0  0  0  0
    5.9812   -5.4706  -19.8380 H   0  0  0  0  0  0  0  0  0  0  0  0
    4.2193   -5.2890  -18.0926 H   0  0  0  0  0  0  0  0  0  0  0  0
    6.6322   -3.4746  -21.1634 H   0  0  0  0  0  0  0  0  0  0  0  0
    5.5255    7.8943  -26.6534 H   0  0  0  0  0  0  0  0  0  0  0  0
    3.6900   -1.1257  -19.0535 H   0  0  0  0  0  0  0  0  0  0  0  0
    4.3535    0.6006  -19.9122 H   0  0  0  0  0  0  0  0  0  0  0  0
    4.8415    5.4959  -26.7998 H   0  0  0  0  0  0  0  0  0  0  0  0
    6.3113    8.7928  -24.4599 H   0  0  0  0  0  0  0  0  0  0  0  0
    7.1411   -1.8010  -22.2575 H   0  0  0  0  0  0  0  0  0  0  0  0
    5.9796    5.6883  -20.5319 H   0  0  0  0  0  0  0  0  0  0  0  0
    7.4739    5.5104  -21.5128 H   0  0  0  0  0  0  0  0  0  0  0  0
    5.9474    2.9059  -23.3094 H   0  0  0  0  0  0  0  0  0  0  0  0
    4.2528    3.3245  -22.8855 H   0  0  0  0  0  0  0  0  0  0  0  0
    7.6448    3.2102  -21.0886 H   0  0  0  0  0  0  0  0  0  0  0  0
    4.6153    3.3245  -16.5345 H   0  0  0  0  0  0  0  0  0  0  0  0
    6.3023    2.7078  -16.5440 H   0  0  0  0  0  0  0  0  0  0  0  0
    5.9921    4.4762  -16.6019 H   0  0  0  0  0  0  0  0  0  0  0  0
    3.4095    3.1758  -20.8220 H   0  0  0  0  0  0  0  0  0  0  0  0
    2.3012    3.4843  -18.8872 H   0  0  0  0  0  0  0  0  0  0  0  0
    3.1778    3.7041  -17.4097 H   0  0  0  0  0  0  0  0  0  0  0  0
  1 11  1  0
  1 23  3  0
  2  3  2  0
  2  4  1  0
  3 11  1  0
  4 12  2  0
  5  8  2  0
  5  9  1  0
  6 11  2  0
  6 12  1  0
  7 13  1  0
  7 14  2  0
  8 24  1  0
  9 25  2  0
 10 13  2  0
 10 31  1  0
 12 13  1  0
 21 14  1  6
 14 31  1  0
 15 24  2  0
 15 25  1  0
 15 26  1  0
 16 20  1  0
 16 27  1  0
 16 30  2  0
 17 27  1  0
 17 28  2  0
 17 29  1  0
 18 20  1  0
 18 26  1  0
 19 21  1  0
 19 26  1  0
 20 21  1  0
 21 28  1  0
 22 27  1  0
  2 32  1  0
  3 33  1  0
  4 34  1  0
  5 35  1  0
  6 36  1  0
  7 37  1  0
  8 38  1  0
  9 39  1  0
 10 40  1  0
 18 41  1  0
 18 42  1  0
 19 43  1  0
 19 44  1  0
 20 45  1  6
 22 46  1  0
 22 47  1  0
 22 48  1  0
 28 49  1  0
 29 50  1  0
 29 51  1  0
M  CHG  1  28   1
M  END
>  <OMEGA_C>  (9) 
NqA1QF6HRMCmnIvBPcuvQPS/kMB0SJ3BNbmPQGiJjcARbJXB/4+7QD0rWcBcSqPBQAyyQKo+6EBH
Qc7BLWqGQGcUBMDatpnBVgSlQPRszz5/26TB1pOlQHAovUBE4c7BvjDAQAhU+EBlWcTB9v3UQClf
a7/r667Byfp1QExGTMB0qpPBADanQKqTCcDde6HBkYm1QNS9cL9sM6fB7MW5QFbVsD9ofarBTsC0
QJtptUCxpLzBgwLZQASeZ0DjJpnBdbqLQNGYV0BUpJjBHU7QQJ6SoUASB6rBScWpQLoXW0DPprTB
GQ7XQGwQaUBQaqXBkmOwQMn1NkCDk6nBnya0QMRVX0CgaYfB1joBQNdSPcAKCYXBz/amQEqHpECl
EcbB0ZPBQPac3kAzsbvBlcm1QF7SmkDW0bPBtEezQF/tW0BVPpPBFa6JQOZ/SUCk+6LBq+VKQDs1
YkBDKZPBbkX7QN4hdkBsu5TBz4HgQBrJMT9q9bLB9mW/QNUOr8BFtJ7BPASHQKQ/qcCmvZDBuTrU
QKhfXsCTTqnBztCwQEue/EAsOtXBYShsQMgWkL+KbZjB6U+LQBLCGT9FTJ/Bku2aQMPer0D5ZdbB
cvbJQEevDEHjrcPBHoTkQBCH5r9JD7LBK1m/QLEGtkBKQaTB6ynvQG9VsEBOGqzBglG+QKb5OUCq
ebrBKBeIQGPEVECPFbfB66H0QBxzTUCAtajBtrCTQGXEVECcRoTBuazJQPBMLUALWoTBHb+/QMM8
j0C/0ITBxTRaQJlAS0CHk6bBNUYTQE3/XkAGGZfBXmFLQJQPbUD7RovBEmQ2QIvtRcDyfIvBFb+w
QEE7kMCQJ53BwaSQQFVijcC9TJXBRUa8QNvAV8A8HaPBmiayQPA/6ECMYs7BtTCHQBNqA8CsZ5nB
GfCkQAiP2j68rqTBG0fAQMx2+ECpfcTB2K2lQJImvUCb+c7B0w3VQPhtZb8MvK7BmJh3QIg7TMBU
dJPBHM+nQLlbCMASO6HBmbm1QI0Na78U+6bB+YS5QFSUsz9hXqrBFsW0QDqstUBkurzBLtDYQEFt
aUDjLpnBQ0GLQJZfXEAOrZjBkFDQQH8sokCgGarBupypQMgDXEDNorTBHefWQPVsakDBbaXBUiyw
QDNrOECbhqnB9LOzQAGzZECObYfBDhgBQI1pQMDz/4TBIZnBQLDh3kB0z7vBJAynQM6ipECZJMbB
2be1QFlGm0Ds3rPB9p+yQNWhZkDfSJPB43GJQIx+S0DL9aLBUlpJQCu3YkAxOZPBfM77QKU7bkAo
ypTBFErgQMk+Nz+w1LLBd5DAQE5nrsDUm57BLvyHQBxLqcDHr5DB0tvUQAB8XMBqKKnBO+6wQL6H
/EDPX9XB6vRtQDvVjr+6/5fBbTmLQLoeHz+zH5/BYhfKQETADEGN2cPBIQubQEzDr0DJe9bBfKXk
QBd747+23LHBW3i/QBXUtkAQWqTB9TfvQP7DsEAqNazBPyS+QAuGOkAgbrrBkO6HQEazVUCiEbfB
V2z0QA1xTkCktKjBis6SQLWeYkC0ToTBnTzFQL6RK0BNvYTBhODDQMQ8j0BlcITBXLFZQEpsS0Cm
jKbBvSESQAOFWkCtIpfByABJQK16b0BdYovB

>  <OMEGA_E>  (9) 
UCMiPkChIj4=

>  <OMEGA_NBR>  (9) 
     31224

$$$$
50220717
     RDKit          3D

 52 56  0  0  1  0  0  0  0  0999 V2000
    2.8760   -3.0797  -17.3845 C   0  0  0  0  0  0  0  0  0  0  0  0
    5.1828    6.0629  -25.9566 C   0  0  0  0  0  0  0  0  0  0  0  0
    5.4824   -4.5319  -19.6493 C   0  0  0  0  0  0  0  0  0  0  0  0
    5.6368    7.3783  -25.7840 C   0  0  0  0  0  0  0  0  0  0  0  0
    4.5055   -4.4285  -18.6423 C   0  0  0  0  0  0  0  0  0  0  0  0
    5.8401   -3.4013  -20.4039 C   0  0  0  0  0  0  0  0  0  0  0  0
    5.1804    5.2098  -24.8498 C   0  0  0  0  0  0  0  0  0  0  0  0
    4.2333   -2.0593  -19.1479 C   0  0  0  0  0  0  0  0  0  0  0  0
    5.1037    0.3937  -20.6362 C   0  0  0  0  0  0  0  0  0  0  0  0
    6.0796    7.7992  -24.5119 C   0  0  0  0  0  0  0  0  0  0  0  0
    6.6326   -0.9312  -21.8580 C   0  0  0  0  0  0  0  0  0  0  0  0
    3.8788   -3.1916  -18.3953 C   0  0  0  0  0  0  0  0  0  0  0  0
    5.2224   -2.1525  -20.1556 C   0  0  0  0  0  0  0  0  0  0  0  0
    5.6465   -0.9490  -20.8958 C   0  0  0  0  0  0  0  0  0  0  0  0
    5.7618    1.3698  -21.3334 C   0  0  0  0  0  0  0  0  0  0  0  0
    5.6460    5.6874  -23.5964 C   0  0  0  0  0  0  0  0  0  0  0  0
    6.7607    3.5987  -19.1697 C   0  0  0  0  0  0  0  0  0  0  0  0
    4.3437    3.3566  -19.0953 C   0  0  0  0  0  0  0  0  0  0  0  0
    6.4921    5.0320  -21.2731 C   0  0  0  0  0  0  0  0  0  0  0  0
    5.2706    3.4199  -22.6019 C   0  0  0  0  0  0  0  0  0  0  0  0
    6.6936    3.6228  -20.7014 C   0  0  2  0  0  0  0  0  0  0  0  0
    5.4775    2.8504  -21.2189 C   0  0  2  0  0  0  0  0  0  0  0  0
    5.6196    3.4678  -16.9475 C   0  0  0  0  0  0  0  0  0  0  0  0
    2.0526   -2.9816  -16.5653 N   0  0  0  0  0  0  0  0  0  0  0  0
    6.0838    6.9603  -23.4508 N   0  0  0  0  0  0  0  0  0  0  0  0
    5.6766    4.8300  -22.5072 N   0  0  0  0  0  0  0  0  0  0  0  0
    5.5834    3.4241  -18.4264 N   0  0  0  0  0  0  0  0  0  0  0  0
    4.2737    3.1479  -20.3895 N   0  0  0  0  0  0  0  0  0  0  0  0
    3.1496    3.5069  -18.4026 N   0  0  0  0  0  0  0  0  0  0  0  0
    7.8350    3.8196  -18.6220 O   0  0  0  0  0  0  0  0  0  0  0  0
    6.9840    0.6800  -22.3768 S   0  0  0  0  0  0  0  0  0  0  0  0
    4.8431    5.7173  -26.9218 H   0  0  0  0  0  0  0  0  0  0  0  0
    5.9584   -5.4818  -19.8429 H   0  0  0  0  0  0  0  0  0  0  0  0
    5.6475    8.0642  -26.6183 H   0  0  0  0  0  0  0  0  0  0  0  0
    4.2364   -5.2968  -18.0592 H   0  0  0  0  0  0  0  0  0  0  0  0
    6.5898   -3.4860  -21.1767 H   0  0  0  0  0  0  0  0  0  0  0  0
    4.8267    4.1940  -24.9471 H   0  0  0  0  0  0  0  0  0  0  0  0
    3.7486   -1.1133  -18.9563 H   0  0  0  0  0  0  0  0  0  0  0  0
    4.2770    0.5874  -19.9688 H   0  0  0  0  0  0  0  0  0  0  0  0
    6.4233    8.8148  -24.3825 H   0  0  0  0  0  0  0  0  0  0  0  0
    7.1245   -1.8134  -22.2402 H   0  0  0  0  0  0  0  0  0  0  0  0
    5.9558    5.6687  -20.5541 H   0  0  0  0  0  0  0  0  0  0  0  0
    7.4604    5.4922  -21.5194 H   0  0  0  0  0  0  0  0  0  0  0  0
    5.8949    2.8879  -23.3348 H   0  0  0  0  0  0  0  0  0  0  0  0
    4.2134    3.3425  -22.8960 H   0  0  0  0  0  0  0  0  0  0  0  0
    7.6130    3.1848  -21.1172 H   0  0  0  0  0  0  0  0  0  0  0  0
    4.6057    3.3112  -16.5506 H   0  0  0  0  0  0  0  0  0  0  0  0
    6.2859    2.6764  -16.5736 H   0  0  0  0  0  0  0  0  0  0  0  0
    5.9945    4.4483  -16.6188 H   0  0  0  0  0  0  0  0  0  0  0  0
    3.3799    3.1898  -20.8361 H   0  0  0  0  0  0  0  0  0  0  0  0
    2.2784    3.4546  -18.8907 H   0  0  0  0  0  0  0  0  0  0  0  0
    3.1609    3.6674  -17.4156 H   0  0  0  0  0  0  0  0  0  0  0  0
  1 12  1  0
  1 24  3  0
  2  4  2  0
  2  7  1  0
  3  5  2  0
  3  6  1  0
  4 10  1  0
  5 12  1  0
  6 13  2  0
  7 16  2  0
  8 12  2  0
  8 13  1  0
  9 14  1  0
  9 15  2  0
 10 25  2  0
 11 14  2  0
 11 31  1  0
 13 14  1  0
 22 15  1  6
 15 31  1  0
 16 25  1  0
 16 26  1  0
 17 21  1  0
 17 27  1  0
 17 30  2  0
 18 27  1  0
 18 28  2  0
 18 29  1  0
 19 21  1  0
 19 26  1  0
 20 22  1  0
 20 26  1  0
 21 22  1  0
 22 28  1  0
 23 27  1  0
  2 32  1  0
  3 33  1  0
  4 34  1  0
  5 35  1  0
  6 36  1  0
  7 37  1  0
  8 38  1  0
  9 39  1  0
 10 40  1  0
 11 41  1  0
 19 42  1  0
 19 43  1  0
 20 44  1  0
 20 45  1  0
 21 46  1  6
 23 47  1  0
 23 48  1  0
 23 49  1  0
 28 50  1  0
 29 51  1  0
 29 52  1  0
M  CHG  1  28   1
M  END
>  <OMEGA_C>  (10) 
hhA4QJoZRcCNE4vBaNmlQF8DwkA0p8/Bc2+vQCcFkcCrMZ3BgGC0QEob7EC0Rc7BJC2QQAW2jcB8
I5XBN+K6QMmuWcArO6PBu8WlQNm2pkBTzMbBN3eHQHPLA8DQLpnB2FGjQDSUyT7kFqXBQozCQLuS
+UBfGMTBJz7UQCFgbr8d3a7BxD14QB9DTMCNKZPB5x2nQC3CCcCnPqHB+K+0QGrwcr+wKqfBf2C4
QKxWrz/BqqrBBKy0QNP+tUBoxbzBSFfYQBZRZkB/W5nBT/+KQDbTVkA+w5jBpr/PQMUFoUA2L6rB
bKioQNffWkDF0LTBBTLWQEvbZ0B/nKXB6EevQHdtNkBQwKnB29OzQFbwXUBvlIfBb10DQPjSPsDM
hYTBd67CQBa73kA7m7vBuqa1QJ+PmkC+DrTBHauyQEgkW0A/aZPBxMGIQPd2SUCzHaPBjJJJQBRx
YECGOJPBoLj6QEN0dEDm+ZTB0XzfQDETLj/JA7PB5/qaQID0tkDwX9fB3Kq+QNpqr8Auvp7B/Le0
QMoGAUEx8tTBSpCHQAp/qcA/eZDBgN/SQM8aX8DdaanBVXSaQIA1hkC1k8fB1ulvQPyBjr+LppfB
Zt2IQMZgFj8PwJ/BW4vNQIkJDUFxD8PB3vvjQGsd6L/Z67HBKJa+QCBmtUDJbqTBUbvuQEDAr0DP
J6zB3qK8QInSOEC8rbrBS9SGQDjsVUD3KrfB6J3zQBvUS0AG8KjBNmKTQOHqU0CMZ4TB5SXJQBVK
K0C9loTBC9O/QK1YjkBd84TBaFBYQAAmTEBbsKbBmdARQAAYXUAtIJfB2UtKQAS3akA3U4vB0RE1
QJ2RRMD//YvBlmS/QCw+90BjYsbBOp+vQOUZkMAPvJ3BX8mwQMJC40BRyM/BfcWPQEcRjcCz0JXB
0xa7QMOyV8DVvaPBqhPBQKV330As3rzBhz6GQMAFA8AKAJrBab+kQHIK3D4k/KTBehCkQB4VuECt
b8/BIWfVQIlHYb/s+q7B1+l1QAeGS8DJ/pPBAdmmQBQrCMAd06HBUGS1QCd3ab/eZ6fBN0y6QDQp
tT/cTqrBGdqzQNtXtEAFDb3ByGjZQDFWa0A2DpnBqTuMQINtWUCqX5jBWBnQQOHKokCUJ6rBiVCp
QHnRW0BicLTBBzTXQFf8a0CfWKXBkpqwQG34OECcWqnBlDq1QIHmYEBBOofBGAIAQJs9PsA+fIXB
eo6lQFS2oUBxOcbBw0u1QLQ3m0Bo6bPBv+uzQI3fXkB0EJPB9P+JQNNGS0ALtaLBuBRMQPnBYkC6
z5LBuOD7QPXgeEA4sJTBnprhQCGJPT9RsbLB2yrJQNAxDEFHfcbBCEq/QK9XrsBjM5/BrVivQPXn
9EDnM9fBsUqHQP3aqMDTIpHBkW/TQOq2XMBp16nBzUvMQNvw7UBfirXBvuprQHITjr+mo5jBomaK
QPSkHT9ZmJ/BnPOYQGaoqEDOptbB8+vkQHTy4L+kMbLBUSy/QECOt0AhcqTBp9XuQIaPsUB+VqzB
5nq9QKbiOUDWRbrBbHqHQAUfVUAyt7bBPcX0QPZLUEDGoqjBQ+SUQGzjVUAUCYTBY+TKQM+QLkDz
ToTB5eLAQADhj0DNioTBWbBaQFjRTEBGQ6bBd0IUQHmfXkCzsJbBLehMQBqcbUCO7YrB

>  <OMEGA_E>  (10) 
GK1zPkirhz4=

>  <OMEGA_NBR>  (10) 
     33275

$$$$
50220728
     RDKit          3D

 55 59  0  0  1  0  0  0  0  0999 V2000
    2.8341   -3.0615  -17.4840 C   0  0  0  0  0  0  0  0  0  0  0  0
    5.5025   -4.5036  -19.6841 C   0  0  0  0  0  0  0  0  0  0  0  0
    5.9076    7.7566  -24.7657 C   0  0  0  0  0  0  0  0  0  0  0  0
    4.4971   -4.4060  -18.7045 C   0  0  0  0  0  0  0  0  0  0  0  0
    5.8597   -3.3758  -20.4432 C   0  0  0  0  0  0  0  0  0  0  0  0
    5.4528    7.1006  -25.9298 C   0  0  0  0  0  0  0  0  0  0  0  0
    6.0218    7.0253  -23.5698 C   0  0  0  0  0  0  0  0  0  0  0  0
    4.1864   -2.0527  -19.2555 C   0  0  0  0  0  0  0  0  0  0  0  0
    5.1626    0.4212  -20.6218 C   0  0  0  0  0  0  0  0  0  0  0  0
    6.6371   -0.9042  -21.9092 C   0  0  0  0  0  0  0  0  0  0  0  0
    3.8373   -3.1796  -18.4937 C   0  0  0  0  0  0  0  0  0  0  0  0
    5.2146   -2.1359  -20.2238 C   0  0  0  0  0  0  0  0  0  0  0  0
    5.6631   -0.9256  -20.9350 C   0  0  0  0  0  0  0  0  0  0  0  0
    5.8108    1.3989  -21.3236 C   0  0  0  0  0  0  0  0  0  0  0  0
    5.1106    5.7275  -25.8578 C   0  0  0  0  0  0  0  0  0  0  0  0
    5.6453    5.6681  -23.5803 C   0  0  0  0  0  0  0  0  0  0  0  0
    6.7891    3.6546  -19.1430 C   0  0  0  0  0  0  0  0  0  0  0  0
    4.3695    3.4058  -19.0873 C   0  0  0  0  0  0  0  0  0  0  0  0
    6.5685    5.0616  -21.2663 C   0  0  0  0  0  0  0  0  0  0  0  0
    5.3218    3.4439  -22.5631 C   0  0  0  0  0  0  0  0  0  0  0  0
    6.7425    3.6541  -20.6724 C   0  0  2  0  0  0  0  0  0  0  0  0
    5.5276    2.8773  -21.1909 C   0  0  2  0  0  0  0  0  0  0  0  0
    5.6221    3.5955  -16.9326 C   0  0  0  0  0  0  0  0  0  0  0  0
    4.6923    4.8976  -27.0568 C   0  0  0  0  0  0  0  0  0  0  0  0
    2.0197   -2.9533  -16.6570 N   0  0  0  0  0  0  0  0  0  0  0  0
    5.1954    5.0701  -24.6989 N   0  0  0  0  0  0  0  0  0  0  0  0
    5.7182    4.8577  -22.4674 N   0  0  0  0  0  0  0  0  0  0  0  0
    5.6021    3.5034  -18.4091 N   0  0  0  0  0  0  0  0  0  0  0  0
    4.3141    3.1644  -20.3749 N   0  0  0  0  0  0  0  0  0  0  0  0
    3.1661    3.5594  -18.4115 N   0  0  0  0  0  0  0  0  0  0  0  0
    7.8589    3.8806  -18.5890 O   0  0  0  0  0  0  0  0  0  0  0  0
    4.6612    5.6287  -28.1971 F   0  0  0  0  0  0  0  0  0  0  0  0
    3.4609    4.3669  -26.8265 F   0  0  0  0  0  0  0  0  0  0  0  0
    5.5752    3.8720  -27.2065 F   0  0  0  0  0  0  0  0  0  0  0  0
    7.0038    0.7107  -22.4036 S   0  0  0  0  0  0  0  0  0  0  0  0
    6.0007   -5.4469  -19.8530 H   0  0  0  0  0  0  0  0  0  0  0  0
    6.1642    8.8053  -24.7929 H   0  0  0  0  0  0  0  0  0  0  0  0
    4.2315   -5.2709  -18.1147 H   0  0  0  0  0  0  0  0  0  0  0  0
    6.6294   -3.4561  -21.1966 H   0  0  0  0  0  0  0  0  0  0  0  0
    5.3669    7.6379  -26.8627 H   0  0  0  0  0  0  0  0  0  0  0  0
    6.3885    7.4919  -22.6675 H   0  0  0  0  0  0  0  0  0  0  0  0
    3.6676   -1.1181  -19.1015 H   0  0  0  0  0  0  0  0  0  0  0  0
    4.3698    0.6164  -19.9149 H   0  0  0  0  0  0  0  0  0  0  0  0
    7.1119   -1.7861  -22.3133 H   0  0  0  0  0  0  0  0  0  0  0  0
    6.0709    5.7283  -20.5466 H   0  0  0  0  0  0  0  0  0  0  0  0
    7.5428    5.4877  -21.5478 H   0  0  0  0  0  0  0  0  0  0  0  0
    5.9512    2.9168  -23.2952 H   0  0  0  0  0  0  0  0  0  0  0  0
    4.2658    3.3599  -22.8594 H   0  0  0  0  0  0  0  0  0  0  0  0
    7.6636    3.2015  -21.0680 H   0  0  0  0  0  0  0  0  0  0  0  0
    4.6040    3.4515  -16.5419 H   0  0  0  0  0  0  0  0  0  0  0  0
    6.2844    2.8172  -16.5257 H   0  0  0  0  0  0  0  0  0  0  0  0
    5.9932    4.5865  -16.6321 H   0  0  0  0  0  0  0  0  0  0  0  0
    3.4222    3.1732  -20.8273 H   0  0  0  0  0  0  0  0  0  0  0  0
    2.3010    3.4848  -18.9076 H   0  0  0  0  0  0  0  0  0  0  0  0
    3.1645    3.7445  -17.4288 H   0  0  0  0  0  0  0  0  0  0  0  0
  1 11  1  0
  1 25  3  0
  2  4  2  0
  2  5  1  0
  3  6  2  0
  3  7  1  0
  4 11  1  0
  5 12  2  0
  6 15  1  0
  7 16  2  0
  8 11  2  0
  8 12  1  0
  9 13  1  0
  9 14  2  0
 10 13  2  0
 10 35  1  0
 12 13  1  0
 22 14  1  6
 14 35  1  0
 15 24  1  0
 15 26  2  0
 16 26  1  0
 16 27  1  0
 17 21  1  0
 17 28  1  0
 17 31  2  0
 18 28  1  0
 18 29  2  0
 18 30  1  0
 19 21  1  0
 19 27  1  0
 20 22  1  0
 20 27  1  0
 21 22  1  0
 22 29  1  0
 23 28  1  0
 24 32  1  0
 24 33  1  0
 24 34  1  0
  2 36  1  0
  3 37  1  0
  4 38  1  0
  5 39  1  0
  6 40  1  0
  7 41  1  0
  8 42  1  0
  9 43  1  0
 10 44  1  0
 19 45  1  0
 19 46  1  0
 20 47  1  0
 20 48  1  0
 21 49  1  6
 23 50  1  0
 23 51  1  0
 23 52  1  0
 29 53  1  0
 30 54  1  0
 30 55  1  0
M  CHG  1  29   1
M  END
>  <OMEGA_C>  (11) 
1mE1QBzvQ8Ar34vBkhSwQMgdkMAAeZ3BCAu9QAc2+EA3IMbBXOiPQPX9jMDaopXB8YK7QIgNWMC5
i6PBbn2uQF0440BRcM/B07LAQOTO4ED7jrzBAfeFQCpfA8BIC5rB9jOlQCCn1z6A+aTBA2PUQA97
Z78SRq/BOpZ1QOh9S8An85PB192mQB6zCMBbyqHBQDi1QITzbL/1eqfBL/K5QNENsz+plqrBuYmj
QAtIt0Cy3M7Bpqa0QFJhtUB8pLzBe0DZQD7kaUDfJJnBNNOLQPb3WUDDspjBSDHSQAL5oUBzIarB
NkyqQJhpXEAxgbTBL8LXQLzcaUAGYaXBWuKwQMAlOED+hqnBYOizQFwdZkDgdYfBlSeWQNG4nEBW
dNjBmEIBQBADPcCSQYXBUkCmQE8+okBsl8XBmPu2QKRym0A+vbPBvUSzQOA3YEDgRZPBwwyKQNiE
SkDk/6LBm6BKQGrMY0DBSpPB9Xv7QFRbeEA+tpTBTiiVQJ0etEC6k+HB/39dQJG9i0C+nNbBSGiy
QAzPd0DnptnBgR/gQALuNT+pOrPBfgXAQNVMrsDs0p7BdUHFQIjiDEH2V8bBumiHQNWqqMDi6pDB
1yPUQP8vXcCxkqnBa72rQAxq9EDn5tbBYW7MQKu970D/VrXBjblqQAEdj7/az5jBYdWLQG3PHT+0
UZ/BlJTjQOue5L+QgbLBBkXCQEVOt0CAX6TBpl7xQFubr0DqYazBGXC+QNasOkCSXLrBkIGIQPgH
V0Ac4LbBjjz1QOnkTEBTi6jBvVOTQNDlXEC7VYTBeBnJQGdMNECQNITBlMi/QKvEkkCYDoXBFQZb
QCYWS0A+nqbBcEMTQFUGX0C/QpfBlIdKQIWmb0AubovBtLLAQJgYtsCy9pjBZB4/QIEUYsC61JzB
esywQJ7twEDyMdDBr5ZyQK67lMDhUprBFQNlQPDwFcCSm6DBMhqtQO2L7EDNtM3BuWm2QOmXo0CD
2MfBx/G4QO4uWcCBfp/B3YKiQJOMoj6K5qTBO/bZQNIqh7/5p6vBQxWmQHxhksCNnJvB/VufQFFo
EcCTBqLBqs2zQDb0hb+hJ6bB7+S8QFGRoz+zSKnBFp6vQCTw+UAE4sLBNSy5QI66skD3Nr3B457a
QLn2bkC3C5nBHt6MQDfvXkDdQJnBDeTUQMxFn0BiqqrBq/SwQDjcUEBzFLXBjq/aQM0WZ0BqPqXB
oZ+0QI0FMkCwcanBodaxQJyrgUAAAIjBJkSqQMJ1FEHz3b/BqbnWQOT20sCa0ZbB8RW2QC8J3UCQ
8LrBg7a+QD3XlUCE47TBWW6zQJjhbEAIiZPBjMCMQHVOSED3aqPBaLNKQFZgaEC5O5TB91/8QKbJ
f0ATfJTBKvukQG0WIUF9osjB6obNQEI4G0E5d7rB9GOHQFy/FkFFdLnBrr7pQIvSCj/iOa/B8hL1
P6K7ZcBA25vBTVevQFottkD4ZdjB7HNVQHPXscCia5fBSYk9QO8pvr/2aqLBGF+oQAvkAUHs/dPB
hpy4QATBgUA5g8nBZjXbQFv4VcBgjKDB04eEQOQHCj9T/KDBetnrQECl+b8ZhK3BW0/BQKWLtEBw
paXBfiH0QJdSrkCSLazBc/3FQGcKK0BtUbrBg7ePQGeZS0CJ5rfBHN/4QCrgSUBB66fBSrWQQPIS
fkDJGYXBi2jGQIA8V0APdoPB6jq9QNWtokD544bB+H1hQPLsRUDPRqfBO7YUQGcSXkDrVJjBTfRH
QGp1eUD7h4zB

>  <OMEGA_E>  (11) 
4HCAPm7XMz8=

>  <OMEGA_NBR>  (11) 
     35411

$$$$
220608
     RDKit          3D

 51 54  0  0  1  0  0  0  0  0999 V2000
    4.5574   -2.3175  -20.1890 C   0  0  0  0  0  0  0  0  0  0  0  0
    7.1194   -0.6947  -22.3415 C   0  0  0  0  0  0  0  0  0  0  0  0
    6.3592   -1.6659  -21.6797 C   0  0  0  0  0  0  0  0  0  0  0  0
    6.8060    0.6589  -22.1847 C   0  0  0  0  0  0  0  0  0  0  0  0
    4.9529    0.0797  -20.6978 C   0  0  0  0  0  0  0  0  0  0  0  0
    5.2831   -1.2864  -20.8576 C   0  0  0  0  0  0  0  0  0  0  0  0
    5.7214    1.0673  -21.3694 C   0  0  0  0  0  0  0  0  0  0  0  0
    5.4296    7.3467  -25.4322 C   0  0  0  0  0  0  0  0  0  0  0  0
    6.0376    7.6862  -24.2046 C   0  0  0  0  0  0  0  0  0  0  0  0
    4.9722    6.0297  -25.6202 C   0  0  0  0  0  0  0  0  0  0  0  0
    5.7637    5.4883  -23.4869 C   0  0  0  0  0  0  0  0  0  0  0  0
    6.7244    3.2479  -19.1289 C   0  0  0  0  0  0  0  0  0  0  0  0
    4.2984    3.1373  -19.1082 C   0  0  0  0  0  0  0  0  0  0  0  0
    6.5590    4.7084  -21.1984 C   0  0  0  0  0  0  0  0  0  0  0  0
    5.2498    3.2073  -22.5914 C   0  0  0  0  0  0  0  0  0  0  0  0
    6.6874    3.2931  -20.6525 C   0  0  2  0  0  0  0  0  0  0  0  0
    5.4484    2.5661  -21.2171 C   0  0  2  0  0  0  0  0  0  0  0  0
    6.4777    9.1052  -23.9257 C   0  0  0  0  0  0  0  0  0  0  0  0
    5.5322    3.2504  -16.9347 C   0  0  0  0  0  0  0  0  0  0  0  0
    3.5419    4.4623  -26.7521 C   0  0  0  0  0  0  0  0  0  0  0  0
    4.0044   -3.2002  -19.6660 N   0  0  0  0  0  0  0  0  0  0  0  0
    6.1866    6.7494  -23.2484 N   0  0  0  0  0  0  0  0  0  0  0  0
    5.1621    5.1240  -24.6417 N   0  0  0  0  0  0  0  0  0  0  0  0
    5.9211    4.5209  -22.5207 N   0  0  0  0  0  0  0  0  0  0  0  0
    5.5243    3.1679  -18.4119 N   0  0  0  0  0  0  0  0  0  0  0  0
    4.2427    2.8756  -20.3934 N   0  0  0  0  0  0  0  0  0  0  0  0
    3.0976    3.3635  -18.4489 N   0  0  0  0  0  0  0  0  0  0  0  0
    7.8068    3.3528  -18.5629 O   0  0  0  0  0  0  0  0  0  0  0  0
    4.3033    5.6974  -26.7872 O   0  0  0  0  0  0  0  0  0  0  0  0
    5.2566    8.2747  -26.4011 F   0  0  0  0  0  0  0  0  0  0  0  0
    7.9456   -0.9900  -22.9713 H   0  0  0  0  0  0  0  0  0  0  0  0
    6.6002   -2.7116  -21.8009 H   0  0  0  0  0  0  0  0  0  0  0  0
    7.3996    1.4045  -22.6927 H   0  0  0  0  0  0  0  0  0  0  0  0
    4.1231    0.3694  -20.0701 H   0  0  0  0  0  0  0  0  0  0  0  0
    5.9272    5.3254  -20.5425 H   0  0  0  0  0  0  0  0  0  0  0  0
    7.5477    5.1790  -21.3036 H   0  0  0  0  0  0  0  0  0  0  0  0
    5.7068    2.5847  -23.3747 H   0  0  0  0  0  0  0  0  0  0  0  0
    4.1780    3.3352  -22.8036 H   0  0  0  0  0  0  0  0  0  0  0  0
    7.5974    2.8249  -21.0557 H   0  0  0  0  0  0  0  0  0  0  0  0
    6.8857    9.1695  -22.9062 H   0  0  0  0  0  0  0  0  0  0  0  0
    7.2525    9.3977  -24.6497 H   0  0  0  0  0  0  0  0  0  0  0  0
    5.6151    9.7814  -24.0187 H   0  0  0  0  0  0  0  0  0  0  0  0
    4.5024    3.1687  -16.5569 H   0  0  0  0  0  0  0  0  0  0  0  0
    6.1392    2.4296  -16.5250 H   0  0  0  0  0  0  0  0  0  0  0  0
    5.9613    4.2143  -16.6237 H   0  0  0  0  0  0  0  0  0  0  0  0
    3.0570    4.3020  -27.7263 H   0  0  0  0  0  0  0  0  0  0  0  0
    4.2174    3.6213  -26.5361 H   0  0  0  0  0  0  0  0  0  0  0  0
    2.7743    4.5270  -25.9668 H   0  0  0  0  0  0  0  0  0  0  0  0
    3.3492    2.8841  -20.8424 H   0  0  0  0  0  0  0  0  0  0  0  0
    2.2350    3.3236  -18.9532 H   0  0  0  0  0  0  0  0  0  0  0  0
    3.0953    3.5662  -17.4697 H   0  0  0  0  0  0  0  0  0  0  0  0
  1  6  1  0
  1 21  3  0
  2  3  2  0
  2  4  1  0
  3  6  1  0
  4  7  2  0
  5  6  2  0
  5  7  1  0
 17  7  1  6
  8  9  2  0
  8 10  1  0
  8 30  1  0
  9 18  1  0
  9 22  1  0
 10 23  2  0
 10 29  1  0
 11 22  2  0
 11 23  1  0
 11 24  1  0
 12 16  1  0
 12 25  1  0
 12 28  2  0
 13 25  1  0
 13 26  2  0
 13 27  1  0
 14 16  1  0
 14 24  1  0
 15 17  1  0
 15 24  1  0
 16 17  1  0
 17 26  1  0
 19 25  1  0
 20 29  1  0
  2 31  1  0
  3 32  1  0
  4 33  1  0
  5 34  1  0
 14 35  1  0
 14 36  1  0
 15 37  1  0
 15 38  1  0
 16 39  1  6
 18 40  1  0
 18 41  1  0
 18 42  1  0
 19 43  1  0
 19 44  1  0
 19 45  1  0
 20 46  1  0
 20 47  1  0
 20 48  1  0
 26 49  1  0
 27 50  1  0
 27 51  1  0
M  CHG  1  26   1
M  END
>  <OMEGA_C>  (12) 
h9aRQMFRFMATg6HBgdLjQHbXMb9Xu7LBt37LQKo61b//b63B2srZQAerKD8/erHBKX6eQPc9oz0P
laXBMQ+pQOCnpL9r3KbBbBW3QLmdiD+G9KrBUb+tQGoY60ARdcvBPzTBQCD19UAco8HBhByfQPHy
wEA79szBPHC4QI6gr0A15bvBZi7XQFDdT0D8B5nBq4yJQOvJSECx3ZjBT+PRQGGrlkBDlqnBCP6n
QJZDTUApu7TBTP/VQEHCUkBlOKXBVFmuQMA7JECqvKnBKknPQOmuEUHvZ7/B8wexQAsHUEBKeofB
5K5iQNnKjkBLBNbBcySAQHXQTMAHVJ3BwvjFQAn710C3/LnBADClQNz3o0BNIsXBQnm9QPKqkEBQ
KrTBO8ewQK+/SkCOS5PBiMSHQI0KOEDFJaPBAD9GQCFDV0BSl5PBHdH5QG2UVkDkgJTBhbSJQOxQ
tkAvTNbBKzaoQBhlBEFoNdPBfUL+QGxtfb8zxbfBkDTTQFKLLcBIaK7Bz8nsQFTFsz+wirXBtvCD
QOkdvT6Rj6DBj6u9QPZpqkAeV6TBtYbxQBC6pUC8barBXp62QKZrJUBM/7rBZbKFQAN0VUCvbbbB
Tx7zQHTKNEArcqjBVlfcQB62EkH0P7fBeBToQNxcFkGbMsXBrK6zQLaAHEEzJsDBiROQQBDMSkB7
dITBLXTEQLp+G0A6M4TBRcO+QPPbhkBf/YTBxKVDQDWqiUCPz93BlvSGQP3DZ0ADStTB244xQHHd
kEAXvM/Bq1lWQJWUOEA4vabBiwoPQDy2VEA9oJfByhlGQI88ZEDawYvBEnuQQDpzEcD3yKPBbYvn
QHo/FL/077LBHwXNQE6Byb/hra7BG/HeQOYpRD+AxbDBdl2gQIAECD7JL6bB9smpQAXEnL9oQKjB
AjC7QMNjkj8Fd6rBQwSpQOdp4UCFMc3BaUeaQHEBt0B588zB9Wy+QPnZ8UCqJsTBrVK3QJdDr0BK
1rvBlPXXQIpHV0ByGpjBgmKKQN5+TUDccJjBwLvTQD9UmkCmD6nBnT6rQO6dT0DW4LPB+UnYQJj3
WUDHW6TBN7KxQJaFKECo8qjBGnl8QMjypEBdutXBFd+vQK5aTkAvy4bB65bbQP+wFkHZbLrBSsJ5
QFQySsDdO6DBgZehQNYin0BfTMTBqM3FQEkM2EBllbvBxVi8QDiXk0DrTbPB6dGwQECKVEDenpLB
/yiKQM4oOkBepKLBNgpGQMjaWUDhh5PBrzT6QNjHVkD5UZPBc+/IQKFtDkE9JsTBPnihQGGF+kAf
zdXBLUYBQdV9Wb9P4LfByaDTQMlKJ8CsVbDBgNXzQHzFwz+58rPB/+yEQOEezD40YqHB40jBQIIN
r0BSpaPB2FfzQD2qqEC5hqrBgaC8QPpwKkA39bnB5vyIQDQUUUDC5LXBWRH2QNrhPEAkU6fBut1m
QAGvhEBDedPBp4pEQBrUuUB+39bBT56QQMo2o0BhON3BSnaOQHoETUAZB4TBrC7AQAleE0A+QYTB
AEfAQNgKg0AeUYPBKn7iQG7WJ0EaaLvB/QTFQOt3FEGtw7PBDXn5QIIPDkEnsbjBe+hbQKMQN0CM
ZqbBpRQQQPjmU0CRxJfBv0lDQKS1aEDCwYvBXX74QDmL5b8vEaHBiXuPQGwxkL+6mq7BbJqyQAfu
6L9lOqrBlmaOQAhYkD7uVa7B4kjTQD1imz4qIqXB/4rUQBEbjb+zgaXBlG2wQCKogT+Yp6nBIa+w
QDsY60BgjMvBytHGQOT880DQ+MHBDX6eQLYtwkAo6szBz064QB6YrkAbBLzBvIfXQHFFVUDI5JjB
blqJQAiYUUC/0JjBtXTUQMQllUAkEarBvtyqQMbaRkAGzLTBYpfWQNzxUECMH6XBdCKuQHkVI0DZ
X6nB1wHbQAqzD0GYGcDB6rOwQCQIa0DBl4fBwVVtQIIujkAmF9fBXf0KQfQjFsCGcZ3BJzXKQLaN
1UDkYLrB9MCiQGizpEAqEcXBSh+8QNKqj0A8IbTB+7KwQNzOV0AEOZPBILWHQA96PUASDKPBNk1F
QMFxYEBlmZPBlCH6QDHlXkCLaJTBL5eIQHLuuEAqSNbBzO+sQAicBEFeSdPBU7RqQIJp1r+MK7LB
j4ezQEyHOcA4farB8txmQJTbTj8oubHBgxftQFmwWD/0XqHB083DQH9tq0CKrKTBfdL0QChEoUCK
vKvBKga+QCULIEBaXLrBVVWJQKnDR0BIebfBbEjzQLJ2L0DHCKjBGK3qQFTlD0F1OLjBv+jyQHDZ
EkF9XcbBuBnCQCUgHEFSW8DBNaWPQLQ0akA+koTBFbXDQFN8OkBZWIPBKMW+QMJTlUD2PYbB8FlM
QF6pikCa0N7B7YiQQBjVbEBQhtbBkG4/QMQSiUCtitDB0chWQL36P0DOwqbBTi0OQNKqW0CcnpfB
vOBEQO7gb0Dj1YvBagH4QEVj5b/nkaHBdquOQBDFjb9x467BV9+xQMA557/hnKrBZqyNQAPNmT5z
ia7BfNHSQOXhnj5mdKXBV/vTQLMtjL/G6KXB6N+vQPg3gz9G4KnBeiewQO/W7EBYXMvBTKWdQJUZ
xEA628zBw4DGQBkF9UDXyMHB5HO3QGojr0ASHrzBKrPXQLE6VUBXGpnBB4iJQK7iUUC13ZjBFBjU
QL5dlUD9ParB5gyqQInVR0CE8LTB81jWQCFNUUC8VqXB6rKtQK/NI0Dzh6nBZ1mFQI+muUAUAdfB
cHSxQB1MakAetIfBKF3vQHduEUG+HbbBMsYKQcVjFsD5Bp7B7aehQID2pUA0M8XBv5vJQMbN1UCy
V7rB/3m7QAgEkEBFSbTB1g+xQC2oV0BSWZPBSoaHQAcxPkBrG6PBRwtGQMi9YECzj5PB5HX6QERo
XkD4rZTBg+nYQF5yDkH0LcDBfpGsQErEBUFx9tLB/tJoQAto07+2cLLBkLuyQKSpOMDm76rBGUZl
QGe9VD9W2LHBH8LsQE1CWT/4tKHBNJTDQECUq0BDzqTBkWv0QJuAoUCy86vBXuy8QMj9IECuj7rB
/GuIQMwMSUD6iLfBYOfyQC7KL0CUU6jBCkFzQLd+mEBSn9bBTxJUQIebz0B01NfB4bqaQDNEvUCo
793BRH6QQER2aUAKnoTBKorEQPd0OUAkiIPBc6K/QB7llEC6VIbBWX/8QNe+IUH9w7XBfvrYQAoJ
D0F1bq/Bjs8EQfLEBUH2hrXBwS9WQEgHQUDkwqbBBqUOQChIXEAsh5fBNCxGQJ/cb0CuyYvB

>  <OMEGA_E>  (12) 
uAAcPhDwuD4YGb4+lIQGPw==

>  <OMEGA_NBR>  (12) 
      6498

$$$$
