270667
     RDKit          3D

 54 58  0  0  1  0  0  0  0  0999 V2000
    5.3007   -4.4142  -19.0560 C   0  0  0  0  0  0  0  0  0  0  0  0
    5.7588   -3.3630  -19.8717 C   0  0  0  0  0  0  0  0  0  0  0  0
    6.2277   -1.2643  -21.9431 C   0  0  0  0  0  0  0  0  0  0  0  0
    6.7047   -0.2011  -22.7251 C   0  0  0  0  0  0  0  0  0  0  0  0
    4.1694   -4.2310  -18.2373 C   0  0  0  0  0  0  0  0  0  0  0  0
    5.3770    0.3281  -20.3050 C   0  0  0  0  0  0  0  0  0  0  0  0
    3.9473   -1.9436  -19.0498 C   0  0  0  0  0  0  0  0  0  0  0  0
    5.5693   -1.0063  -20.7197 C   0  0  0  0  0  0  0  0  0  0  0  0
    5.0854   -2.1178  -19.8741 C   0  0  0  0  0  0  0  0  0  0  0  0
    5.8246    1.3998  -21.1000 C   0  0  0  0  0  0  0  0  0  0  0  0
    6.5301    1.1289  -22.3014 C   0  0  0  0  0  0  0  0  0  0  0  0
    3.4938   -2.9950  -18.2347 C   0  0  0  0  0  0  0  0  0  0  0  0
    5.6764    3.5803  -18.5080 C   0  0  0  0  0  0  0  0  0  0  0  0
    4.2628    3.5065  -18.9286 C   0  0  0  0  0  0  0  0  0  0  0  0
    5.7284    6.4509  -23.4324 C   0  0  0  0  0  0  0  0  0  0  0  0
    7.2103    5.9504  -23.3698 C   0  0  0  0  0  0  0  0  0  0  0  0
    5.8307    3.8056  -21.7647 C   0  0  0  0  0  0  0  0  0  0  0  0
    4.9602    5.8743  -24.6419 C   0  0  0  0  0  0  0  0  0  0  0  0
    6.5650    4.1254  -25.0088 C   0  0  0  0  0  0  0  0  0  0  0  0
    7.4065    4.4444  -23.7396 C   0  0  2  0  0  0  0  0  0  0  0  0
    7.1152    3.4624  -22.5538 C   0  0  2  0  0  0  0  0  0  0  0  0
    5.5854    2.8245  -20.6273 C   0  0  2  0  0  0  0  0  0  0  0  0
    6.1515    4.0620  -17.1585 C   0  0  0  0  0  0  0  0  0  0  0  0
    6.4518    3.1533  -19.4800 N   0  0  0  0  0  0  0  0  0  0  0  0
    4.2124    2.9982  -20.1318 N   0  0  0  0  0  0  0  0  0  0  0  0
    3.1712    3.8820  -18.1593 N   0  0  0  0  0  0  0  0  0  0  0  0
    7.0522    2.1209  -23.1034 O   0  0  0  0  0  0  0  0  0  0  0  0
    5.1817    4.4561  -24.7935 O   0  0  0  0  0  0  0  0  0  0  0  0
    2.0885   -2.7623  -17.2248 Cl  0  0  0  0  0  0  0  0  0  0  0  0
    5.8172   -5.3627  -19.0579 H   0  0  0  0  0  0  0  0  0  0  0  0
    6.6269   -3.5067  -20.4979 H   0  0  0  0  0  0  0  0  0  0  0  0
    6.3641   -2.2823  -22.2772 H   0  0  0  0  0  0  0  0  0  0  0  0
    7.2090   -0.4053  -23.6580 H   0  0  0  0  0  0  0  0  0  0  0  0
    3.8197   -5.0386  -17.6112 H   0  0  0  0  0  0  0  0  0  0  0  0
    4.8808    0.5297  -19.3672 H   0  0  0  0  0  0  0  0  0  0  0  0
    3.4252   -0.9982  -19.0473 H   0  0  0  0  0  0  0  0  0  0  0  0
    5.2137    6.1456  -22.5094 H   0  0  0  0  0  0  0  0  0  0  0  0
    5.7295    7.5484  -23.5057 H   0  0  0  0  0  0  0  0  0  0  0  0
    7.8062    6.5554  -24.0690 H   0  0  0  0  0  0  0  0  0  0  0  0
    7.5806    6.1028  -22.3453 H   0  0  0  0  0  0  0  0  0  0  0  0
    5.9301    4.8180  -21.3461 H   0  0  0  0  0  0  0  0  0  0  0  0
    4.9723    3.7756  -22.4519 H   0  0  0  0  0  0  0  0  0  0  0  0
    3.8844    6.0529  -24.4979 H   0  0  0  0  0  0  0  0  0  0  0  0
    5.2980    6.3867  -25.5548 H   0  0  0  0  0  0  0  0  0  0  0  0
    6.9500    4.7131  -25.8552 H   0  0  0  0  0  0  0  0  0  0  0  0
    6.6491    3.0530  -25.2385 H   0  0  0  0  0  0  0  0  0  0  0  0
    8.4644    4.3148  -24.0117 H   0  0  0  0  0  0  0  0  0  0  0  0
    7.9639    3.5239  -21.8568 H   0  0  0  0  0  0  0  0  0  0  0  0
    7.2488    4.0011  -17.1123 H   0  0  0  0  0  0  0  0  0  0  0  0
    5.8357    5.1051  -17.0097 H   0  0  0  0  0  0  0  0  0  0  0  0
    5.7158    3.4309  -16.3699 H   0  0  0  0  0  0  0  0  0  0  0  0
    3.3783    2.7659  -20.6321 H   0  0  0  0  0  0  0  0  0  0  0  0
    2.2445    3.7712  -18.5185 H   0  0  0  0  0  0  0  0  0  0  0  0
    3.3110    4.2635  -17.2456 H   0  0  0  0  0  0  0  0  0  0  0  0
  1  2  2  0
  1  5  1  0
  2  9  1  0
  3  4  2  0
  3  8  1  0
  4 11  1  0
  5 12  2  0
  6  8  2  0
  6 10  1  0
  7  9  2  0
  7 12  1  0
  8  9  1  0
 10 11  2  0
 10 22  1  0
 11 27  1  0
 12 29  1  0
 13 14  1  0
 13 23  1  0
 13 24  2  0
 14 25  2  0
 14 26  1  0
 15 16  1  0
 15 18  1  0
 16 20  1  0
 17 21  1  0
 22 17  1  6
 18 28  1  0
 19 20  1  0
 19 28  1  0
 20 21  1  0
 21 27  1  0
 22 24  1  0
 22 25  1  0
  1 30  1  0
  2 31  1  0
  3 32  1  0
  4 33  1  0
  5 34  1  0
  6 35  1  0
  7 36  1  0
 15 37  1  0
 15 38  1  0
 16 39  1  0
 16 40  1  0
 17 41  1  0
 17 42  1  0
 18 43  1  0
 18 44  1  0
 19 45  1  0
 19 46  1  0
 20 47  1  6
 21 48  1  1
 23 49  1  0
 23 50  1  0
 23 51  1  0
 25 52  1  0
 26 53  1  0
 26 54  1  0
M  CHG  1  25   1
M  END
>  <OMEGA_C>  (1) 
BZ+pQIZBjcDAcpjB6ke4QHs7V8A6+Z7BJEnHQInVob+Gi6/BCY3WQOjyTb72zLXBl2uFQHhkh8D2
5ZHBDBCsQIf/pz6rcKLBTaF8QHnI+L/sZZjBczeyQLHNgL/swaXBt7uiQGGKB8Ae/p7B/WK6QGks
sz/dzKjBzvbQQI5/kD8vabLB+JpfQHauP8Cw4JHBcaW1QGgjZUBjEJTBrWiIQG1qYEDNbZfBU0+3
QINtzkB5dbvBc7rmQJNpvkBq9brBfZW6QMuOc0AcHq7B3LmeQH/6u0CpIsXBexTSQKUDhEDuEcjB
5QHtQMg4jkCt6r3Bz6/jQHWYXUA8brTBRruyQA3FNEDLBKXBEtnEQLn7gUCuRInBMHXOQNnPSUAI
15vBNcyGQAjiP0DjDaHBzvRKQDxyeEA/RpHBVKvhQLi8B0DO07jBOdClQJuYjkAkWcbBLaoFQOnJ
MMB+zInBWia6QG2bq8B9dpjBmA/UQDBtYMCt+6PBqabLQI0QEsC2N7LBerDmQB9/z76gQ73BcnZ0
QM47ocCq44zBXi+cQNuaBz/x75rBMjdbQGiKf7/wYJjBn9amQJeoxEBCE7TBali3QKiM8UCuC7zB
QMz5QDDG0UA8jcDBLJTyQIBKw0A5w7LBtMO9QLssmkDPxKrBOx2fQGmjcUBtnbPBmZl4QIKxwUDH
+8PB6oipQIJfzEBTcMzBWGbeQFnRlkB7187BiMXUQE1kQ0Bw6MnBFG4HQY8SikD6F8DBldj+QN6G
YUCp2q7BevbnQKgIgEAR5ojBNr66QBddo0DdE4jBIui2QBqUW0CK9YLBOTZYQEYFMUCKDqXBRqYP
QI5acUDVJZTB/+ZTQEVuiEDm9onBGHCuQFQ/jsCZQJnBYr+7QOzAWMDt1J/BVdXGQI5uor9BM7DB
uzbVQO4VO74UL7bBUlaKQDFLicBdnJLBPNutQErXgz5MRKLBl6eAQH9LAcDoHZnB2VuzQMoihr+h
MKbBlO2kQJjVCsDwuZ/B5wW7QFzbrD8NXajB2+7PQFIGjz9UP7LBvPhmQEXdRMDAkJLBP6O0QPmY
XEBGG5PBVbiIQCjpYkBPTJfBbuvoQIKP0kCiGLbB5D4AQYm3sEDPsLzBLgW5QD7Ab0BgHK3BiZ+8
QFoN3EDuGrvBlMO4QKbRlUAhYsPBbcDkQK8HiUAuib7BK63gQIhCW0CyNLTBn/myQBy7L0D5I6TB
ySDBQGDDcUBQxYfBtEPOQDPVQUBqxJrBWgmHQKlMOEDXPKDBojpNQG9VhkCFh5LBxu7eQC4fB0BC
lrjBLqKjQJe3tUC41bzBu2YNQA2MN8ClbYrBJ9u/QMgYrMB+R5nB51TXQCg7YMDP86TBj5fKQE+M
EcCJN7PB6GTkQPnFr7611r3BtSiAQM9co8CLio3BEGmfQKxP1D7nhJrBrx1eQFuci7/9HZnBk4bk
QEi3xkDt4a3BGPn7QKgm8EBZ77XBEZUEQemLvkC0fMTBA9wOQeQwp0BYZ7jBiy29QNvil0DvmanB
0EOcQJw4b0CXL7LBSM+qQJtf8UCzs7XB3XTBQA4Z7EAN2MLB2sy9QJ7wokCSc8vBtVWkQBhzckAk
48PB1yf1QN5CakB2hsTByc/9QBKbY0AKYa/BTLPjQMN7Z0CGuobBqGC5QFaMmkB3FYbB1WqvQGQs
SEBeOILBolFZQCmqIUBQxqPBMIMTQKDEhUC9+5XB361VQKT6lUCSoYvBU5KGQJhqjMDMM53BGt2V
QPuuVcDdqKPBGh7IQOcXor91cq/BIFnXQNjJUL5yurXBbCSEQAc6h8CRBpLB/1KsQOVrpz6Pa6LB
gm6gQIJz+799tpPBGLuyQAXxgL8Es6XBR+miQJF/B8CQ9Z7B3cS6QN7lsj/Aw6jBGmjRQPxHkD8n
Z7LB6Q2RQJnXQMCMSo3Bv321QHUZZkD/J5TByjqIQI1dYECweZfBWP7pQMZ810Cq47PBg+kDQZmL
tkBZSbnBU1O5QAVpcUBscq7BD9nBQAEB4EC+17rBHonIQIADnEBMKcTB4//vQLMvjkCfbr3BVRrk
QOfiXECQPLTBcnKyQI/gNECkFKXBJZ7EQAh9gkAKWonBd1TOQPv7S0Da/pvBeJeGQNdPP0BlEqHB
2YxKQPdReEC/U5HBF1LhQLc8CEAA67jBzxmtQIPXuECAML7BqSuOQGmRM8Dy4H7BVl95QDEzqsBj
0qDBVaaXQH/UXcBQOqzBTsLMQJY9EsCUErLBr7jnQBzZ0b4WKL3Bzb5wQEgEocB3FY3BVSecQI92
Bz8f9ZrBEmmqQBLEhL9PDZDB9NzfQNALy0B7DqzB54P7QNGv9UBDxbLBu90LQYQZxkAUG8DB6QIQ
QTFdrECqbLPBnkS6QJPRmUC6eKvByLWeQNtXakBII7TBDPaqQFYc80AgKrbBa4nLQKwJ8kBdAMLB
ZazTQIhNrEDScsvB+Bq2QA29fkClYcbBrv0CQQl3ekC518LBTfv9QABCXkAdRq7BqsTnQJEogUA3
BonBxPC5QJmno0DSGYjBrCe3QEnOW0CGDoPBEMpXQNi2L0A6B6XBaT8PQJm8cECnLpTBknNTQEOW
iEAZCorBBOGGQMugjMB+L53B3aeVQG/qVcCar6PBwUTHQL7Yob/cka/ByqfWQDl7Tb5GzbXBxvaE
QF53h8BtAJLBzK2rQIyZpz4DgqLBk7ugQOy1+7/uxJPBsxCyQPnhgL++zKXBJqyiQPOTB8CnBZ/B
Vk+6QEIjsz/K0ajBoRTRQNiGkD8eZ7LBueGRQPYsQcCqTY3B7Yi1QMHmZEAMEJTBzlCIQNNgYEBf
cpfBXp63QLV+zkCVb7vBrwTnQEVvvkAt6LrBfay6QJWNc0CZHa7B5h6fQGYYvEBXIcXBanDSQP4S
hEDUCcjBO0rtQDg/jkCJ3r3B+N7jQMWgXUA5ZLTBx66yQA6/NEB+B6XBFLPEQH/KgUDMQYnBRV7O
QKGYSUCm1ZvBZLyGQJ8MQEBWFaHBlrtKQEZleEBNTJHBm/bhQJrDB0AxyrjBCyumQA21jkAwWMbB
WKuPQAH6M8DK4n7B7/x5QC13qsD6xqDBcBGXQLAIXsBGQqzBm6TLQG4OEsA6P7LBOeHmQNL0zr45
Qb3BASxzQG5UocDSBo3BUGGbQIxOBz+eD5vBjLeqQP3NhL8uI5DBmg+nQOy4xECHELTBVLG3QDee
8UBcBLzBDSr6QLvL0UDYe8DBBMnyQKBHw0C+s7LBLM29QJEqmkCPwqrBpEmfQJ+mcUCao7PByGB5
QPfYwUAxAMTB5QaqQCR+zECVbMzBldjeQPXclkB7zc7BUhvVQGKBQ0D038nBNZQHQYoUikB4B8DB
W/P+QHaeYUCjyq7BYM/nQAmYf0Bx4IjBBKG6QG0to0ASD4jBhbO2QL8pW0B59YLB4xtYQFZuMUCt
GqXBRnMPQJp1cUBpL5TBtqBTQJNSiECA+onB

>  <OMEGA_E>  (1) 
KJEtPzJeLT8CwUY/OBxEPw==

>  <OMEGA_NBR>  (1) 
     14188

$$$$
270662
     RDKit          3D

 54 58  0  0  1  0  0  0  0  0999 V2000
    5.4874   -4.5228  -19.2212 C   0  0  0  0  0  0  0  0  0  0  0  0
    5.8963   -3.4512  -20.0293 C   0  0  0  0  0  0  0  0  0  0  0  0
    6.2218   -1.2940  -22.0367 C   0  0  0  0  0  0  0  0  0  0  0  0
    6.6354   -0.1974  -22.7927 C   0  0  0  0  0  0  0  0  0  0  0  0
    4.3838   -4.3723  -18.3584 C   0  0  0  0  0  0  0  0  0  0  0  0
    5.5428    0.2025  -20.2224 C   0  0  0  0  0  0  0  0  0  0  0  0
    4.0878   -2.0805  -19.1155 C   0  0  0  0  0  0  0  0  0  0  0  0
    5.6553   -1.0918  -20.7603 C   0  0  0  0  0  0  0  0  0  0  0  0
    5.2008   -2.2253  -19.9708 C   0  0  0  0  0  0  0  0  0  0  0  0
    5.9677    1.3022  -20.9665 C   0  0  0  0  0  0  0  0  0  0  0  0
    6.4769    1.0932  -22.2773 C   0  0  0  0  0  0  0  0  0  0  0  0
    3.6841   -3.1505  -18.3088 C   0  0  0  0  0  0  0  0  0  0  0  0
    5.5612    3.2859  -18.2287 C   0  0  0  0  0  0  0  0  0  0  0  0
    4.3184    3.5605  -18.9749 C   0  0  0  0  0  0  0  0  0  0  0  0
    8.3259    5.8563  -22.7436 C   0  0  0  0  0  0  0  0  0  0  0  0
    8.0140    4.7648  -23.7954 C   0  0  0  0  0  0  0  0  0  0  0  0
    6.5125    3.7027  -21.3012 C   0  0  0  0  0  0  0  0  0  0  0  0
    7.2569    6.9652  -22.7665 C   0  0  0  0  0  0  0  0  0  0  0  0
    5.5837    5.5727  -23.7906 C   0  0  0  0  0  0  0  0  0  0  0  0
    6.5151    4.3512  -23.8456 C   0  0  2  0  0  0  0  0  0  0  0  0
    6.1263    3.3499  -22.7581 C   0  0  1  0  0  0  0  0  0  0  0  0
    5.8392    2.7019  -20.3752 C   0  0  2  0  0  0  0  0  0  0  0  0
    5.7616    3.5320  -16.7561 C   0  0  0  0  0  0  0  0  0  0  0  0
    6.4537    2.7715  -19.0407 N   0  0  0  0  0  0  0  0  0  0  0  0
    4.4348    3.0641  -20.1775 N   0  0  0  0  0  0  0  0  0  0  0  0
    3.1971    4.1968  -18.4706 N   0  0  0  0  0  0  0  0  0  0  0  0
    6.7850    2.1329  -23.0974 O   0  0  0  0  0  0  0  0  0  0  0  0
    5.9226    6.4197  -22.6821 O   0  0  0  0  0  0  0  0  0  0  0  0
    2.3149   -2.9538  -17.2487 Cl  0  0  0  0  0  0  0  0  0  0  0  0
    6.0183   -5.4624  -19.2605 H   0  0  0  0  0  0  0  0  0  0  0  0
    6.7403   -3.5645  -20.6935 H   0  0  0  0  0  0  0  0  0  0  0  0
    6.3349   -2.2947  -22.4269 H   0  0  0  0  0  0  0  0  0  0  0  0
    7.0744   -0.3435  -23.7686 H   0  0  0  0  0  0  0  0  0  0  0  0
    4.0732   -5.1963  -17.7331 H   0  0  0  0  0  0  0  0  0  0  0  0
    5.1283    0.3443  -19.2353 H   0  0  0  0  0  0  0  0  0  0  0  0
    3.5483   -1.1455  -19.0835 H   0  0  0  0  0  0  0  0  0  0  0  0
    8.3470    5.3974  -21.7441 H   0  0  0  0  0  0  0  0  0  0  0  0
    9.3083    6.2988  -22.9647 H   0  0  0  0  0  0  0  0  0  0  0  0
    8.3021    5.1457  -24.7863 H   0  0  0  0  0  0  0  0  0  0  0  0
    8.6121    3.8728  -23.5573 H   0  0  0  0  0  0  0  0  0  0  0  0
    7.6044    3.6450  -21.1811 H   0  0  0  0  0  0  0  0  0  0  0  0
    6.1705    4.7203  -21.0615 H   0  0  0  0  0  0  0  0  0  0  0  0
    7.4222    7.6379  -21.9121 H   0  0  0  0  0  0  0  0  0  0  0  0
    7.3517    7.5330  -23.7039 H   0  0  0  0  0  0  0  0  0  0  0  0
    5.6823    6.1443  -24.7252 H   0  0  0  0  0  0  0  0  0  0  0  0
    4.5446    5.2297  -23.6785 H   0  0  0  0  0  0  0  0  0  0  0  0
    6.3500    3.8601  -24.8160 H   0  0  0  0  0  0  0  0  0  0  0  0
    5.0367    3.2044  -22.7963 H   0  0  0  0  0  0  0  0  0  0  0  0
    6.7735    3.2137  -16.4650 H   0  0  0  0  0  0  0  0  0  0  0  0
    5.6395    4.6044  -16.5438 H   0  0  0  0  0  0  0  0  0  0  0  0
    5.0179    2.9580  -16.1840 H   0  0  0  0  0  0  0  0  0  0  0  0
    3.6971    2.9517  -20.8433 H   0  0  0  0  0  0  0  0  0  0  0  0
    2.3846    4.3067  -19.0432 H   0  0  0  0  0  0  0  0  0  0  0  0
    3.1995    4.5464  -17.5337 H   0  0  0  0  0  0  0  0  0  0  0  0
  1  2  2  0
  1  5  1  0
  2  9  1  0
  3  4  2  0
  3  8  1  0
  4 11  1  0
  5 12  2  0
  6  8  2  0
  6 10  1  0
  7  9  2  0
  7 12  1  0
  8  9  1  0
 10 11  2  0
 10 22  1  0
 11 27  1  0
 12 29  1  0
 13 14  1  0
 13 23  1  0
 13 24  2  0
 14 25  2  0
 14 26  1  0
 15 16  1  0
 15 18  1  0
 16 20  1  0
 17 21  1  0
 22 17  1  6
 18 28  1  0
 19 20  1  0
 19 28  1  0
 20 21  1  0
 21 27  1  0
 22 24  1  0
 22 25  1  0
  1 30  1  0
  2 31  1  0
  3 32  1  0
  4 33  1  0
  5 34  1  0
  6 35  1  0
  7 36  1  0
 15 37  1  0
 15 38  1  0
 16 39  1  0
 16 40  1  0
 17 41  1  0
 17 42  1  0
 18 43  1  0
 18 44  1  0
 19 45  1  0
 19 46  1  0
 20 47  1  6
 21 48  1  1
 23 49  1  0
 23 50  1  0
 23 51  1  0
 25 52  1  0
 26 53  1  0
 26 54  1  0
M  CHG  1  25   1
M  END
>  <OMEGA_C>  (2) 
bpivQG+6kMAExZnBNK68QGDgXMD5O6DBWRnHQJ+ipb8cS7DBy1TUQO4YSr6NV7bBA0iMQCPqi8AS
3pLBmV6xQOhQTz6Fx6HBPs+CQHgnBcCW7JjB4Pe0QNO/i78aFabByWymQLZqDsBBxJ/Bk/e+QOqt
pj94u6fBCEPPQNvsiz/QN7LBC8lrQJaiScBkeJLBD/WxQKRLUkBl1JHBgjCKQIDfY0CZzJfBuDYF
QYZmu0Dy8rXBTDkAQRh5mED3XL7BT2bQQPb4bEDuaKrBhDjoQDLj3kDgIbbBAa6yQGlTskAmU77B
AHzQQOo8i0Dgw77BDQvEQKxkVkChELbBi9q6QJrrLEBgAKPBIl+4QAYNYkCMDIbBiITOQKxfMUBH
U5jBjemNQPAZREB8a6HBtZxMQN1LhkC/w5PBwB7ZQEKBCECTx7jBmoW9QFNuzUAEdbXBxicUQKwK
PcBf/YnBxJXAQC7MrsCMFZrBPLDXQCUgZMBfjKXB07fKQH/cEsA1arPBpGHiQJjhr74QJr7BdFeC
QO5HpsBq3Y3ByRqkQJ5HsD7b4ZnBQRdjQFyfkr8Dq5jBK40FQS23rEAC9K3B8e4UQfuPyUC9t7fB
NtUEQT+ppEBmSsbBGcsJQR7cd0BxdbzBHFfzQDpHaUDhcqnB23TFQN8Ml0DgfajBTYLtQA9q9EDj
S6/BN0HrQHoO8UCTob3BwtW1QGiexEA5zcXBkG2RQFRZp0CLbb3BDTPLQIcMd0Ash8bBdSyhQJ8V
TUDfXrbBa8DYQMSsTUBauIPBs3a0QIBXk0C/WYTB05KgQGxPPUDEeIHBxp1sQJPoPEAEv6bB+J0Y
QLbQiUBxWJjBlMRMQOF7kUD+RIzB

>  <OMEGA_E>  (2) 
eKMlPw==

>  <OMEGA_NBR>  (2) 
      1206

$$$$
270664
     RDKit          3D

 54 58  0  0  1  0  0  0  0  0999 V2000
    5.3971   -4.4803  -19.2453 C   0  0  0  0  0  0  0  0  0  0  0  0
    5.7867   -3.4138  -20.0696 C   0  0  0  0  0  0  0  0  0  0  0  0
    6.1289   -1.2611  -22.0592 C   0  0  0  0  0  0  0  0  0  0  0  0
    6.5917   -0.1794  -22.8063 C   0  0  0  0  0  0  0  0  0  0  0  0
    4.3657   -4.3015  -18.3036 C   0  0  0  0  0  0  0  0  0  0  0  0
    5.4152    0.2658  -20.2903 C   0  0  0  0  0  0  0  0  0  0  0  0
    4.0821   -2.0002  -19.0340 C   0  0  0  0  0  0  0  0  0  0  0  0
    5.5579   -1.0417  -20.7882 C   0  0  0  0  0  0  0  0  0  0  0  0
    5.1287   -2.1683  -19.9667 C   0  0  0  0  0  0  0  0  0  0  0  0
    5.8356    1.3550  -21.0530 C   0  0  0  0  0  0  0  0  0  0  0  0
    6.4743    1.1183  -22.2970 C   0  0  0  0  0  0  0  0  0  0  0  0
    3.7162   -3.0574  -18.1943 C   0  0  0  0  0  0  0  0  0  0  0  0
    5.6398    3.4298  -18.3821 C   0  0  0  0  0  0  0  0  0  0  0  0
    4.2712    3.5392  -18.9148 C   0  0  0  0  0  0  0  0  0  0  0  0
    5.0541    5.7272  -23.9389 C   0  0  0  0  0  0  0  0  0  0  0  0
    5.9320    4.5740  -24.5164 C   0  0  0  0  0  0  0  0  0  0  0  0
    5.8351    3.7469  -21.6357 C   0  0  0  0  0  0  0  0  0  0  0  0
    5.9129    6.8989  -23.4212 C   0  0  0  0  0  0  0  0  0  0  0  0
    7.9387    5.6197  -23.3395 C   0  0  0  0  0  0  0  0  0  0  0  0
    7.2596    4.3090  -23.7274 C   0  0  1  0  0  0  0  0  0  0  0  0
    7.0798    3.4083  -22.4856 C   0  0  2  0  0  0  0  0  0  0  0  0
    5.6076    2.7539  -20.5192 C   0  0  2  0  0  0  0  0  0  0  0  0
    6.0182    3.7434  -16.9581 C   0  0  0  0  0  0  0  0  0  0  0  0
    6.4484    3.0183  -19.3361 N   0  0  0  0  0  0  0  0  0  0  0  0
    4.2288    2.9137  -20.0555 N   0  0  0  0  0  0  0  0  0  0  0  0
    3.1970    4.1621  -18.3027 N   0  0  0  0  0  0  0  0  0  0  0  0
    6.9860    2.1108  -23.0697 O   0  0  0  0  0  0  0  0  0  0  0  0
    7.0207    6.4452  -22.6159 O   0  0  0  0  0  0  0  0  0  0  0  0
    2.4716   -2.8079  -17.0016 Cl  0  0  0  0  0  0  0  0  0  0  0  0
    5.8882   -5.4382  -19.3331 H   0  0  0  0  0  0  0  0  0  0  0  0
    6.5882   -3.5451  -20.7815 H   0  0  0  0  0  0  0  0  0  0  0  0
    6.2072   -2.2640  -22.4521 H   0  0  0  0  0  0  0  0  0  0  0  0
    7.0395   -0.3425  -23.7755 H   0  0  0  0  0  0  0  0  0  0  0  0
    4.0723   -5.1206  -17.6638 H   0  0  0  0  0  0  0  0  0  0  0  0
    4.9791    0.4267  -19.3154 H   0  0  0  0  0  0  0  0  0  0  0  0
    3.5639   -1.0549  -18.9688 H   0  0  0  0  0  0  0  0  0  0  0  0
    4.3874    6.0978  -24.7314 H   0  0  0  0  0  0  0  0  0  0  0  0
    4.4515    5.3332  -23.1073 H   0  0  0  0  0  0  0  0  0  0  0  0
    5.3356    3.6498  -24.5052 H   0  0  0  0  0  0  0  0  0  0  0  0
    6.1941    4.8286  -25.5540 H   0  0  0  0  0  0  0  0  0  0  0  0
    5.9693    4.7465  -21.1966 H   0  0  0  0  0  0  0  0  0  0  0  0
    4.9512    3.7498  -22.2905 H   0  0  0  0  0  0  0  0  0  0  0  0
    6.3063    7.4582  -24.2829 H   0  0  0  0  0  0  0  0  0  0  0  0
    5.2796    7.5611  -22.8125 H   0  0  0  0  0  0  0  0  0  0  0  0
    8.8130    5.4050  -22.7076 H   0  0  0  0  0  0  0  0  0  0  0  0
    8.2640    6.1457  -24.2491 H   0  0  0  0  0  0  0  0  0  0  0  0
    7.9376    3.7807  -24.4139 H   0  0  0  0  0  0  0  0  0  0  0  0
    7.9769    3.4856  -21.8538 H   0  0  0  0  0  0  0  0  0  0  0  0
    7.0966    3.5764  -16.8194 H   0  0  0  0  0  0  0  0  0  0  0  0
    5.7788    4.7943  -16.7381 H   0  0  0  0  0  0  0  0  0  0  0  0
    5.4553    3.0887  -16.2765 H   0  0  0  0  0  0  0  0  0  0  0  0
    3.4053    2.6000  -20.5282 H   0  0  0  0  0  0  0  0  0  0  0  0
    2.2980    4.1533  -18.7404 H   0  0  0  0  0  0  0  0  0  0  0  0
    3.3202    4.6209  -17.4227 H   0  0  0  0  0  0  0  0  0  0  0  0
  1  2  2  0
  1  5  1  0
  2  9  1  0
  3  4  2  0
  3  8  1  0
  4 11  1  0
  5 12  2  0
  6  8  2  0
  6 10  1  0
  7  9  2  0
  7 12  1  0
  8  9  1  0
 10 11  2  0
 10 22  1  0
 11 27  1  0
 12 29  1  0
 13 14  1  0
 13 23  1  0
 13 24  2  0
 14 25  2  0
 14 26  1  0
 15 16  1  0
 15 18  1  0
 16 20  1  0
 17 21  1  0
 22 17  1  6
 18 28  1  0
 19 20  1  0
 19 28  1  0
 20 21  1  0
 21 27  1  0
 22 24  1  0
 22 25  1  0
  1 30  1  0
  2 31  1  0
  3 32  1  0
  4 33  1  0
  5 34  1  0
  6 35  1  0
  7 36  1  0
 15 37  1  0
 15 38  1  0
 16 39  1  0
 16 40  1  0
 17 41  1  0
 17 42  1  0
 18 43  1  0
 18 44  1  0
 19 45  1  0
 19 46  1  0
 20 47  1  6
 21 48  1  1
 23 49  1  0
 23 50  1  0
 23 51  1  0
 25 52  1  0
 26 53  1  0
 26 54  1  0
M  CHG  1  25   1
M  END
>  <OMEGA_C>  (3) 
2rSsQOJej8BR9pnBziy5QDB8WsCXjqDBxB/EQDVqob81ebDBzu7SQES6N75Zc7bBKrSLQCWmicDQ
bZLBLEmtQOMQiD6NUqLBxKCCQLkDAMCSRZjBTtqxQPlXhb8jTqbBlh6kQP/FCsDAu5/BbL26QOlw
rT+bbKjBmi3PQDUkjz9EYLLBndVtQPKrQ8DhjZHB9ni0QGSCW0CHDpPBRK2IQMmBYkCYUZfBOLuh
QCBFt0Dfgr/B2tK9QPVdkkCoIcTBErm6QODNb0DpFa3Boja9QAjE3ECkXrvBbAn+QKjUs0BFt7rB
ok7oQLPjiUDI0b3Blo3iQFshWkBx4rPBPnGzQARAMEA7J6TBWpXAQBKUb0AZqofBeFnOQLIrQUBK
sJrBeFKHQHt6OkCycaDB05tMQEowhUDaa5LB+IzfQLgWB0CmjrjB9KngQBk/zkBP7bTBRy4eQPi0
M8BAA4jBAmy8QLcFrsAeqprBztLSQKDiYsB8QKbBR6HGQAflEMD3nbPBQUPhQA5fr74uNL7BilCC
QETco8B0T43BI1WfQOpx2j4ChprBdhZkQDgIh78wwJfBUWWMQDAhw0D72cXBlHKOQL6pqkCn27jB
F72qQJaVaUCPCsTBPTbGQI6DmkCFbszB1gS/QH3jl0CckqnBeHCeQMH8b0D3UrLBm83JQFip7kBT
Q8LBr/KoQF708UAPgLbBPAINQWb1rEAdqbXBNDkEQcapxEBA/sHBewD+QKX2cUCcT8PBEkP/QN8U
X0CV1K7BYBfjQIrjZEAyjobBKuy4QKRqmUCW54XBCpKuQCatRUBUNoLBIPFZQLdmJkDbOaTB8xET
QC3ohEBs7JXByH1UQLHek0CuYYvBidWGQOChjMBuN53BcdSVQG/7VcBgsqPBx5PHQDD/ob8FjK/B
cNXWQBRLTr4dzLXBp6WEQL10h8A8CZLBGRysQC/Zpj6wd6LBHZigQMfk+78WxJPBtWOyQJMTgb8W
xqXBptCiQLmtB8AIBJ/B06+6QMoPsz9Jx6jBdirRQCV6kD9yabLB7oKRQCcvQcBQUo3BA361QOgC
ZUCjA5TBM1WIQGNoYEDHcpfB5iClQCgHl0A8iMfBKpXTQLhfhkBqN8jBb+G6QLXOc0BYAa7BVPWj
QIMZxUDZAMPBcpTpQE+dvUBccrrByFbuQCMXjkBi0b3BHvnjQGM4XUBRZ7TBFvmyQDS/NEC29aTB
7G3EQDDqgUDoMonBjX3OQMSfSUC5v5vBxPGGQDKmP0AbD6HBjHlKQHCneEBnXpHB7njhQOfTB0CX
4LjBfe28QGiNyUDxVLnBHPOOQAPkM8DL7n7BEvt5QB91qsBZ0qDBXG+XQFMeXsBvRKzBrQrMQMki
EsCTNrLBlgfnQHVaz74QQb3BkzRyQGRLocCwE43BWOybQNfMBj8nAZvBvYuqQDMPhb+RHpDBie2W
QKzvlkCQlc/B1YOSQP3dgUB2QsLBmJnSQF2CR0ANysnBYanjQPmzlkBi5c7BGmm+QFgwmkCdnKrB
qU2fQPmjckDgeLPBWsOwQD8d20D6E8nBG4uCQEWZzUAtO8HBMN75QEx2wkB/vbLBvYD4QJMF0kDi
kcDBExEIQWkYiUCN8L/BBA//QJHIX0DZyq7BTYjnQHPef0AExojBBFO6QDhOo0DTBojBf0+2QEd7
W0AS6YLBO7ZYQIiEMEC0FqXBGFUPQAWKcUAzS5TBJQNTQPSfiECFD4rB

>  <OMEGA_E>  (3) 
2vArP/yPRD8=

>  <OMEGA_NBR>  (3) 
      3311

$$$$
270652
     RDKit          3D

 51 55  0  0  1  0  0  0  0  0999 V2000
    5.5218   -4.4927  -19.1921 C   0  0  0  0  0  0  0  0  0  0  0  0
    5.8743   -3.4061  -20.0085 C   0  0  0  0  0  0  0  0  0  0  0  0
    6.0644   -1.2747  -22.0481 C   0  0  0  0  0  0  0  0  0  0  0  0
    6.5018   -0.1948  -22.8155 C   0  0  0  0  0  0  0  0  0  0  0  0
    4.4394   -4.3779  -18.2992 C   0  0  0  0  0  0  0  0  0  0  0  0
    5.4287    0.2550  -20.2513 C   0  0  0  0  0  0  0  0  0  0  0  0
    4.0671   -2.0830  -19.0284 C   0  0  0  0  0  0  0  0  0  0  0  0
    5.5359   -1.0554  -20.7596 C   0  0  0  0  0  0  0  0  0  0  0  0
    5.1475   -2.1960  -19.9291 C   0  0  0  0  0  0  0  0  0  0  0  0
    5.8941    1.3442  -21.0064 C   0  0  0  0  0  0  0  0  0  0  0  0
    6.4226    1.1057  -22.3026 C   0  0  0  0  0  0  0  0  0  0  0  0
    3.7121   -3.1735  -18.2205 C   0  0  0  0  0  0  0  0  0  0  0  0
    5.5519    3.2211  -18.2314 C   0  0  0  0  0  0  0  0  0  0  0  0
    4.2981    3.5155  -18.9463 C   0  0  0  0  0  0  0  0  0  0  0  0
    6.6811    5.7774  -23.6914 C   0  0  0  0  0  0  0  0  0  0  0  0
    7.2521    4.3556  -23.6873 C   0  0  0  0  0  0  0  0  0  0  0  0
    6.5458    3.7639  -21.3252 C   0  0  0  0  0  0  0  0  0  0  0  0
    5.1882    5.7467  -24.0792 C   0  0  0  0  0  0  0  0  0  0  0  0
    4.9030    3.4942  -23.3079 C   0  0  0  0  0  0  0  0  0  0  0  0
    5.8265    2.7507  -20.4149 C   0  0  2  0  0  0  0  0  0  0  0  0
    6.3836    3.4137  -22.8308 C   0  0  1  0  0  0  0  0  0  0  0  0
    5.7603    3.3795  -16.7481 C   0  0  0  0  0  0  0  0  0  0  0  0
    6.4471    2.7751  -19.0801 N   0  0  0  0  0  0  0  0  0  0  0  0
    4.4321    3.1479  -20.1909 N   0  0  0  0  0  0  0  0  0  0  0  0
    3.1535    4.0571  -18.3860 N   0  0  0  0  0  0  0  0  0  0  0  0
    6.8936    2.1076  -23.1012 O   0  0  0  0  0  0  0  0  0  0  0  0
    4.4500    4.8527  -23.2183 O   0  0  0  0  0  0  0  0  0  0  0  0
    2.3646   -3.0268  -17.1245 Cl  0  0  0  0  0  0  0  0  0  0  0  0
    6.0802   -5.4154  -19.2492 H   0  0  0  0  0  0  0  0  0  0  0  0
    6.7012   -3.4947  -20.6975 H   0  0  0  0  0  0  0  0  0  0  0  0
    6.1306   -2.2785  -22.4410 H   0  0  0  0  0  0  0  0  0  0  0  0
    6.9013   -0.3619  -23.8049 H   0  0  0  0  0  0  0  0  0  0  0  0
    4.1659   -5.2145  -17.6733 H   0  0  0  0  0  0  0  0  0  0  0  0
    4.9879    0.4219  -19.2795 H   0  0  0  0  0  0  0  0  0  0  0  0
    3.5141   -1.1577  -18.9611 H   0  0  0  0  0  0  0  0  0  0  0  0
    6.7876    6.2154  -22.6880 H   0  0  0  0  0  0  0  0  0  0  0  0
    7.2338    6.3896  -24.4192 H   0  0  0  0  0  0  0  0  0  0  0  0
    7.2826    3.9773  -24.7197 H   0  0  0  0  0  0  0  0  0  0  0  0
    8.2717    4.3787  -23.2750 H   0  0  0  0  0  0  0  0  0  0  0  0
    6.1239    4.7639  -21.1460 H   0  0  0  0  0  0  0  0  0  0  0  0
    7.6170    3.7677  -21.0751 H   0  0  0  0  0  0  0  0  0  0  0  0
    4.7714    6.7606  -23.9876 H   0  0  0  0  0  0  0  0  0  0  0  0
    5.0935    5.4040  -25.1202 H   0  0  0  0  0  0  0  0  0  0  0  0
    4.8337    3.1516  -24.3509 H   0  0  0  0  0  0  0  0  0  0  0  0
    4.2758    2.8547  -22.6695 H   0  0  0  0  0  0  0  0  0  0  0  0
    6.7804    3.0631  -16.4848 H   0  0  0  0  0  0  0  0  0  0  0  0
    5.6201    4.4341  -16.4688 H   0  0  0  0  0  0  0  0  0  0  0  0
    5.0324    2.7570  -16.2072 H   0  0  0  0  0  0  0  0  0  0  0  0
    3.7054    3.1384  -20.8778 H   0  0  0  0  0  0  0  0  0  0  0  0
    2.3384    4.1948  -18.9487 H   0  0  0  0  0  0  0  0  0  0  0  0
    3.1421    4.3107  -17.4188 H   0  0  0  0  0  0  0  0  0  0  0  0
  1  2  2  0
  1  5  1  0
  2  9  1  0
  3  4  2  0
  3  8  1  0
  4 11  1  0
  5 12  2  0
  6  8  2  0
  6 10  1  0
  7  9  2  0
  7 12  1  0
  8  9  1  0
 10 11  2  0
 10 20  1  0
 11 26  1  0
 12 28  1  0
 13 14  1  0
 13 22  1  0
 13 23  2  0
 14 24  2  0
 14 25  1  0
 15 16  1  0
 15 18  1  0
 16 21  1  0
 20 17  1  6
 17 21  1  0
 18 27  1  0
 19 21  1  0
 19 27  1  0
 20 23  1  0
 20 24  1  0
 21 26  1  1
  1 29  1  0
  2 30  1  0
  3 31  1  0
  4 32  1  0
  5 33  1  0
  6 34  1  0
  7 35  1  0
 15 36  1  0
 15 37  1  0
 16 38  1  0
 16 39  1  0
 17 40  1  0
 17 41  1  0
 18 42  1  0
 18 43  1  0
 19 44  1  0
 19 45  1  0
 22 46  1  0
 22 47  1  0
 22 48  1  0
 24 49  1  0
 25 50  1  0
 25 51  1  0
M  CHG  1  24   1
M  END
>  <OMEGA_C>  (4) 
QLKwQE/Ej8CFiZnB8vm7QNz8WcBVEaDBXg/CQEIqo79uYrDBdg7QQECCR74ehrbBOA+OQAQYjMC4
ZJLByretQISUgj6TAqLBBCaCQDpPBcAzOpjBXCaxQCYYh7+2E6bBMrikQFaLDMC1bp/Bfpy8QLkP
rD8MDajBMobNQA2JjT+8a7LBO5JtQH4aS8CDw5HBkKmxQPYmTkDk2ZHB/ImJQIz9YEDukZfBmsvV
QH7guEDvh73BdhHoQFRhi0CAf73BGnfRQCLkcEAGmqrBgAWmQNTkt0AtosDBjOWcQByhX0CbdrrB
2HK6QCwLMEDPUaPBWEbMQAh6WkCDpbbBxlS4QF5JWEAz/IXByk7OQKqaMUAUpJjB1NONQKZ2SUAP
h6HBmtNJQArUgUCcFpPB+JfcQM7iBkBRz7jBjmaOQHVJm0Aav7nB1VUXQE62QcDy/ojB65DCQL5K
rcBP/pnB/W/WQIKoX8B6lKXB9i3EQH7TEcAhh7PBStfcQLJNub5dcL7BQ0+FQJPdpsDyYo3B+Jyf
QAUA2D5yPJrBQ+dgQMowlL9lsJfBVzTZQJfkxkD6gLXBIXvnQGR3zECdWsPBqArpQNiLfkDvwcXB
6FgEQa0ejEBAM7rBIffDQLNxmEADK6nBRr7zQKUhcUDamajBnK+YQIRW2ECn5r/BUP6iQHbtrEAS
9sjBEa6aQGm0SUCrzsLBNtOIQBazNkAhW7XBVfnYQAMKREDw4IPByNezQHvkjUArwIPBgwmhQG1y
MEBeqIHBPSVtQPDbSEDKBafBaqgVQNw7hkD2lpfBsRdJQNnwiUCoWYvBzNqxQBCOj8CoN5nBymS8
QGM1XMCRRKDBQLfCQAy7pL8BALHBBlzQQBgsNb4K+LbBlvGPQPqQisAZ45HBhoeuQGTYRz6GVqLB
gMGCQFilBcCGq5jB/rexQMahjL9XpKbBNPukQGD2DsDM9p/Bvg69QFChpj+rHajB3qPNQMzLjj+P
kbLB78VwQA9OSMC9o5HBCq2xQK44UEBO3ZHBNxiKQCI4ZECMxZfBELbeQLDdi0AJ2sfBPMrkQAk2
kUB3w7vBAr3QQMgMb0BZyanBepuuQNKFi0BhnsrBxu2aQA3KYkAMP7nB7ui5QGR6K0DNAaPBXsHK
QGgoXkAFwbXBYgW5QIUAYUAnLIbBZCXNQEJ2K0CxUJjBegqNQI3jQkBaS6HBLqhNQMOuh0C7zpPB
zOPbQDIRC0ANnLjBakmYQPlPVkDplcTB6YEcQGoJO8AFpIjB6cPDQMMZrcB5a5nBnlLWQOflY8AO
5qXBoDXFQBf+EcA6UbTBB/LcQKo6ob6F8L7BNAOIQGk8pMDXc4zBLrugQKfiqz4nf5rB6Q5hQM/d
lb/Hg5jBOVPuQGKcpkDgCMzBuj/tQEUBW0AvbMrBTXIDQbecjUAwx7nBAs7ZQC05sUBaWLnB7ZTD
QNs8l0CX2KfBvB7zQDrZbUD356fB29egQAEIq0AIvMjBjMGqQNzzhEDSNdPBq5mIQE9/MEDlIbXB
XrWNQH3tkEDbJ7fBoPLYQC6wSUAk4oPBjPK2QLIXk0DGoITBN4mgQFVuP0CbcYHBqBdqQG/DOkAu
fabBn6wZQO53i0CVYJjBT6pOQOd8k0B2X4zBl1mnQMQdkMCZ1ZnBEiy5QA0JXMDDpp/B10zNQM5p
or/BFK/BC+vZQCY4Q76PdrXBRDmDQNJDicCPU5PBjXKyQBmXkj51oaHB1CeCQKAk+b8SjJjBP2S4
QPZVhL9FP6XByLSmQJqiCcBBBp/BH8m9QMSHrz+uIajBVVDRQNStjz/GK7LBaophQHGMQMBtqpLB
vQK0QLA0WUA3z5LByMqIQO06YEAxWZfBjloNQVupnEA+rKzBkMAGQa1FXUDYV6/Bkwm8QHM5dEAN
EK3B0mILQb6EuECXyrbB+6ffQMJhjEBQYb7BB9W0QPH1MUC0JKTB477gQH4uW0CdxrTBctm+QCo6
aUBhOofB473OQGcxQ0DkcZrBu4GIQHV3OUCtkqDBnvRLQAvXg0B0npLBw6zaQCjQB0DeP7nB19Hr
QOCFtkBYALvBVswIQPKbLsDrg4rBvGK1QPGgr8A9W5rBrf7UQG6ZZsCImqTBf4rTQL/0EcDHq7HB
Kk7qQC0Svb5E77zBPVJrQFx+o8A91o7BCg+lQCWN7T4Qy5nBOzJnQB/hd79PIpjBH9ECQbBoqUC+
YqbBTwQeQecCnUBf16nBWaESQbc4QUAOz7TB2CoGQeiVN0B+6qfBRlCeQMp1ekAztrHBHebDQEsN
mUDXWqnBPkEPQZrj2UBUxLTBIKoWQbHSrECp4bzBmRX2QCQXgUATjMTBvxS/QHJSjUDRtMHBpl3h
QBCuX0A4+4XBUDq2QEyplUA6GYXBWtqsQClgPEDtJoLBhkVdQBSjJEDvfqTBgUITQEbyg0CPVJbB
cE9SQJ7+kUD+fIvB

>  <OMEGA_E>  (4) 
JLsRP3BJFj9MRig/

>  <OMEGA_NBR>  (4) 
      6177

$$$$
270654
     RDKit          3D

 51 55  0  0  1  0  0  0  0  0999 V2000
    6.1910   -1.2577  -21.9371 C   0  0  0  0  0  0  0  0  0  0  0  0
    5.7268   -3.3704  -19.8886 C   0  0  0  0  0  0  0  0  0  0  0  0
    6.6530   -0.2016  -22.7355 C   0  0  0  0  0  0  0  0  0  0  0  0
    5.2576   -4.4289  -19.0901 C   0  0  0  0  0  0  0  0  0  0  0  0
    5.4250    0.3466  -20.2673 C   0  0  0  0  0  0  0  0  0  0  0  0
    3.9693   -1.9247  -18.9999 C   0  0  0  0  0  0  0  0  0  0  0  0
    5.5762   -0.9932  -20.6932 C   0  0  0  0  0  0  0  0  0  0  0  0
    5.0864   -2.1079  -19.8501 C   0  0  0  0  0  0  0  0  0  0  0  0
    5.8680    1.4176  -21.0749 C   0  0  0  0  0  0  0  0  0  0  0  0
    6.5110    1.1321  -22.3116 C   0  0  0  0  0  0  0  0  0  0  0  0
    4.1464   -4.2381  -18.2466 C   0  0  0  0  0  0  0  0  0  0  0  0
    3.5022   -2.9844  -18.2015 C   0  0  0  0  0  0  0  0  0  0  0  0
    5.6518    3.5263  -18.4370 C   0  0  0  0  0  0  0  0  0  0  0  0
    4.2602    3.4837  -18.9223 C   0  0  0  0  0  0  0  0  0  0  0  0
    8.9982    4.8461  -21.4096 C   0  0  0  0  0  0  0  0  0  0  0  0
    8.5650    3.4177  -21.8074 C   0  0  0  0  0  0  0  0  0  0  0  0
    5.9764    3.8551  -21.7379 C   0  0  0  0  0  0  0  0  0  0  0  0
    9.0064    5.7622  -22.6524 C   0  0  0  0  0  0  0  0  0  0  0  0
    7.3505    4.4061  -23.7833 C   0  0  0  0  0  0  0  0  0  0  0  0
    5.6531    2.8576  -20.5989 C   0  0  2  0  0  0  0  0  0  0  0  0
    7.2110    3.4255  -22.5909 C   0  0  1  0  0  0  0  0  0  0  0  0
    6.0709    3.9401  -17.0458 C   0  0  0  0  0  0  0  0  0  0  0  0
    6.4651    3.1457  -19.3966 N   0  0  0  0  0  0  0  0  0  0  0  0
    4.2627    3.0541  -20.1578 N   0  0  0  0  0  0  0  0  0  0  0  0
    3.1383    3.8246  -18.1803 N   0  0  0  0  0  0  0  0  0  0  0  0
    6.9914    2.1132  -23.1586 O   0  0  0  0  0  0  0  0  0  0  0  0
    7.7230    5.7230  -23.3177 O   0  0  0  0  0  0  0  0  0  0  0  0
    3.7021   -5.2613  -17.4817 F   0  0  0  0  0  0  0  0  0  0  0  0
    2.1194   -2.7348  -17.1611 Cl  0  0  0  0  0  0  0  0  0  0  0  0
    6.3056   -2.2772  -22.2746 H   0  0  0  0  0  0  0  0  0  0  0  0
    6.5794   -3.5212  -20.5342 H   0  0  0  0  0  0  0  0  0  0  0  0
    7.1222   -0.4141  -23.6848 H   0  0  0  0  0  0  0  0  0  0  0  0
    5.7503   -5.3894  -19.1239 H   0  0  0  0  0  0  0  0  0  0  0  0
    4.9650    0.5537  -19.3124 H   0  0  0  0  0  0  0  0  0  0  0  0
    3.4730   -0.9662  -18.9641 H   0  0  0  0  0  0  0  0  0  0  0  0
    8.2929    5.2467  -20.6666 H   0  0  0  0  0  0  0  0  0  0  0  0
   10.0083    4.8125  -20.9754 H   0  0  0  0  0  0  0  0  0  0  0  0
    9.3437    2.9726  -22.4442 H   0  0  0  0  0  0  0  0  0  0  0  0
    8.4470    2.8133  -20.8960 H   0  0  0  0  0  0  0  0  0  0  0  0
    5.1008    3.9275  -22.3997 H   0  0  0  0  0  0  0  0  0  0  0  0
    6.1826    4.8400  -21.2935 H   0  0  0  0  0  0  0  0  0  0  0  0
    9.2209    6.7948  -22.3398 H   0  0  0  0  0  0  0  0  0  0  0  0
    9.7861    5.4206  -23.3491 H   0  0  0  0  0  0  0  0  0  0  0  0
    8.1249    4.0328  -24.4696 H   0  0  0  0  0  0  0  0  0  0  0  0
    6.3893    4.4688  -24.3143 H   0  0  0  0  0  0  0  0  0  0  0  0
    7.1654    3.8743  -16.9572 H   0  0  0  0  0  0  0  0  0  0  0  0
    5.7496    4.9754  -16.8590 H   0  0  0  0  0  0  0  0  0  0  0  0
    5.6026    3.2720  -16.3080 H   0  0  0  0  0  0  0  0  0  0  0  0
    3.4490    2.8859  -20.7143 H   0  0  0  0  0  0  0  0  0  0  0  0
    2.2280    3.7504  -18.5875 H   0  0  0  0  0  0  0  0  0  0  0  0
    3.2401    4.1445  -17.2383 H   0  0  0  0  0  0  0  0  0  0  0  0
  1  3  2  0
  1  7  1  0
  2  4  2  0
  2  8  1  0
  3 10  1  0
  4 11  1  0
  5  7  2  0
  5  9  1  0
  6  8  2  0
  6 12  1  0
  7  8  1  0
  9 10  2  0
  9 20  1  0
 10 26  1  0
 11 12  2  0
 11 28  1  0
 12 29  1  0
 13 14  1  0
 13 22  1  0
 13 23  2  0
 14 24  2  0
 14 25  1  0
 15 16  1  0
 15 18  1  0
 16 21  1  0
 20 17  1  6
 17 21  1  0
 18 27  1  0
 19 21  1  0
 19 27  1  0
 20 23  1  0
 20 24  1  0
 21 26  1  6
  1 30  1  0
  2 31  1  0
  3 32  1  0
  4 33  1  0
  5 34  1  0
  6 35  1  0
 15 36  1  0
 15 37  1  0
 16 38  1  0
 16 39  1  0
 17 40  1  0
 17 41  1  0
 18 42  1  0
 18 43  1  0
 19 44  1  0
 19 45  1  0
 22 46  1  0
 22 47  1  0
 22 48  1  0
 24 49  1  0
 25 50  1  0
 25 51  1  0
M  CHG  1  24   1
M  END
>  <OMEGA_C>  (5) 
dRzGQJv9oL8zf6/B6UG3QGS1V8DsG5/BLOXUQEZjTr5W4rXBKz6oQMK5jcBwuJjB6ZmtQFNwsT50
I6LBgQh+QPNd9r+5/5fBknCyQCNEfr+vi6XB38OiQDLnBsAPzZ7B38a7QOFztT9ZmajB+lnQQFbp
kD8mfrLBQ6+EQJeeh8D/+JHBoCRgQMj/PsCpnJHByNu0QJSuYUARf5PBOVOIQO30XkDmYJfBn/gP
QQMTm0DjRqvBawoJQT+8WkCXda7BUz6/QFe5dkAg563BJhoQQd9juEAcOLXBszfrQIv+jEAlRL7B
AOa0QI7iNkCcyqTBO8DmQKo7W0AsurTB3kTCQK4qfEDYXYjBzOHOQCZTSUBTLJvByGeIQGp2Q0Ad
Q6HBW9lIQPfFdEBDcZHBtrnfQN4+B0DTRLnBqiL3QIUit0CpirrBa+5sQERcqMCS2ovB36MHQHkH
L8DlSYnBj8fJQFi+EcBLMrLBY4rSQJ1bYcAHRqTB+ujjQKUD1L5jer3BbQK4QOd1rMCv/ZjBOeGe
QPW/DT/Of5rBeEVeQAdYd796tpfBpK8EQTnlp0BLVaXBHiIgQQ4AmkCyzafB2X8VQQY/PkDFjbPB
tyYHQcgNNEDsKqfBdDmjQANce0CpMrPBrNfFQPzgmkAbWarBsIgTQepu2UDZt7LB0ZMcQTF1rUDj
yrrBmv8BQd0MgUDDwcPBvnTMQCoAj0Cpg8LBlUrlQJ70d0BWqIfB6/y3QJY2n0As34bBe0izQBJp
UUDMdoLBBL1cQDayOEDYtqXB6pYOQBcGcEBFs5TBFl1PQGifhEAZ6InBCijGQOwCob9GhK/B506U
QColVMAOnqPB/gTVQNHYTb6t4rXBVGmFQD/vi8AQNZ3BoHWtQFuwsD6SK6LB9aKhQGPV/b8Vk5PB
3lOyQF+Sfr9wlaXBeJaiQAgEB8D52Z7Bzcq7QO9atT9DmqjBXnDQQDnvkD8OfbLBwpOEQGKih8AQ
/5HBo62SQDqsQsBTLo3BmdG0QMyEYUD/fZPBpkuIQNfeXkBtYZfBhfYPQYUkm0BlPqvB3BAJQTbY
WkDVbq7BcEa/QNGydkBN5a3BOBsQQeN0uECfL7XBfEvrQMsFjUDZPr7Bp+K0QEDUNkCxyqTBAdLm
QAlFW0CBtbTBQzTCQBvue0ChW4jB5NnOQGY0SUA5K5vBwWOIQFtzQ0ChRKHBRclIQI+vdEDjcZHB
LtvfQAlJB0D5QLnBHyn3QDQst0AghLrBJnVsQPZbqMDy44vB6uaRQDowN8Ayin7BoeLJQAa9EcCL
N7LBftyUQGT8WsDANqzB8h/kQLBX0743eL3B9jJ1QC5FqcCo46DBrZeeQA8vDT8bjJrBF3WsQCLE
iL8u3I/BYKcEQTnwp0DbTqXBlR0gQUEamkA2wqfBbYoVQRluPkAmhrPBMS0HQYwhNEDYJKfBu0ij
QLdWe0AvM7PBjtjFQGvcmkC5VarBVYYTQRyB2UApr7LBG5gcQUCJrUD4wLrBkA0CQdQagUAVu8PB
OYzMQAUBj0A4gMLBgjnlQHu1d0DrpIfBFey3QEgXn0Cm24bB7DOzQHUjUUA7doLBgbhcQKDCOEC+
uaXBY4gOQIL/b0CwtJTB60pPQCeMhEAD6InB

>  <OMEGA_E>  (5) 
cIkrP2RZQj8=

>  <OMEGA_NBR>  (5) 
      8188

$$$$
270668
     RDKit          3D

 54 58  0  0  1  0  0  0  0  0999 V2000
    5.5182   -4.5529  -19.3075 C   0  0  0  0  0  0  0  0  0  0  0  0
    5.8049   -3.4802  -20.1675 C   0  0  0  0  0  0  0  0  0  0  0  0
    5.9562   -1.2742  -22.1515 C   0  0  0  0  0  0  0  0  0  0  0  0
    6.3788   -0.1695  -22.8980 C   0  0  0  0  0  0  0  0  0  0  0  0
    4.5851   -4.3905  -18.2654 C   0  0  0  0  0  0  0  0  0  0  0  0
    5.4700    0.1910  -20.2570 C   0  0  0  0  0  0  0  0  0  0  0  0
    4.1969   -2.0921  -18.9587 C   0  0  0  0  0  0  0  0  0  0  0  0
    5.5061   -1.0954  -20.8248 C   0  0  0  0  0  0  0  0  0  0  0  0
    5.1456   -2.2433  -19.9942 C   0  0  0  0  0  0  0  0  0  0  0  0
    5.9226    1.2926  -20.9842 C   0  0  0  0  0  0  0  0  0  0  0  0
    6.3622    1.1076  -22.3198 C   0  0  0  0  0  0  0  0  0  0  0  0
    3.9307   -3.1565  -18.0894 C   0  0  0  0  0  0  0  0  0  0  0  0
    5.5252    3.2405  -18.2128 C   0  0  0  0  0  0  0  0  0  0  0  0
    4.3171    3.5566  -18.9998 C   0  0  0  0  0  0  0  0  0  0  0  0
    4.9355    4.2679  -25.1026 C   0  0  0  0  0  0  0  0  0  0  0  0
    6.4844    4.2087  -25.0279 C   0  0  0  0  0  0  0  0  0  0  0  0
    6.7055    3.6644  -21.1722 C   0  0  0  0  0  0  0  0  0  0  0  0
    4.3799    5.5410  -24.3965 C   0  0  0  0  0  0  0  0  0  0  0  0
    6.4702    5.8928  -23.2097 C   0  0  0  0  0  0  0  0  0  0  0  0
    6.9670    4.4889  -23.5853 C   0  0  1  0  0  0  0  0  0  0  0  0
    6.3581    3.4369  -22.6402 C   0  0  1  0  0  0  0  0  0  0  0  0
    5.8830    2.6748  -20.3457 C   0  0  2  0  0  0  0  0  0  0  0  0
    5.7001    3.5063  -16.7423 C   0  0  0  0  0  0  0  0  0  0  0  0
    6.4160    2.6628  -18.9819 N   0  0  0  0  0  0  0  0  0  0  0  0
    4.4915    3.1250  -20.2190 N   0  0  0  0  0  0  0  0  0  0  0  0
    3.1699    4.1618  -18.5141 N   0  0  0  0  0  0  0  0  0  0  0  0
    6.8110    2.1516  -23.0733 O   0  0  0  0  0  0  0  0  0  0  0  0
    5.0281    5.8474  -23.1297 O   0  0  0  0  0  0  0  0  0  0  0  0
    2.8059   -2.9288  -16.7786 Cl  0  0  0  0  0  0  0  0  0  0  0  0
    6.0136   -5.5026  -19.4454 H   0  0  0  0  0  0  0  0  0  0  0  0
    6.5285   -3.6010  -20.9601 H   0  0  0  0  0  0  0  0  0  0  0  0
    5.9739   -2.2616  -22.5886 H   0  0  0  0  0  0  0  0  0  0  0  0
    6.7165   -0.2998  -23.9155 H   0  0  0  0  0  0  0  0  0  0  0  0
    4.3710   -5.2139  -17.6001 H   0  0  0  0  0  0  0  0  0  0  0  0
    5.0907    0.3265  -19.2549 H   0  0  0  0  0  0  0  0  0  0  0  0
    3.6761   -1.1537  -18.8375 H   0  0  0  0  0  0  0  0  0  0  0  0
    4.6285    4.2819  -26.1588 H   0  0  0  0  0  0  0  0  0  0  0  0
    4.5192    3.3760  -24.6115 H   0  0  0  0  0  0  0  0  0  0  0  0
    6.8239    3.2086  -25.3356 H   0  0  0  0  0  0  0  0  0  0  0  0
    6.9089    4.9645  -25.7051 H   0  0  0  0  0  0  0  0  0  0  0  0
    7.7791    3.4888  -21.0089 H   0  0  0  0  0  0  0  0  0  0  0  0
    6.4544    4.6954  -20.8824 H   0  0  0  0  0  0  0  0  0  0  0  0
    4.5175    6.3985  -25.0716 H   0  0  0  0  0  0  0  0  0  0  0  0
    3.3065    5.3911  -24.2083 H   0  0  0  0  0  0  0  0  0  0  0  0
    6.8893    6.1897  -22.2370 H   0  0  0  0  0  0  0  0  0  0  0  0
    6.7792    6.6166  -23.9783 H   0  0  0  0  0  0  0  0  0  0  0  0
    8.0654    4.4492  -23.5400 H   0  0  0  0  0  0  0  0  0  0  0  0
    5.2639    3.4878  -22.7414 H   0  0  0  0  0  0  0  0  0  0  0  0
    6.6860    3.1419  -16.4181 H   0  0  0  0  0  0  0  0  0  0  0  0
    5.6291    4.5878  -16.5544 H   0  0  0  0  0  0  0  0  0  0  0  0
    4.9128    2.9838  -16.1792 H   0  0  0  0  0  0  0  0  0  0  0  0
    3.7990    3.1045  -20.9401 H   0  0  0  0  0  0  0  0  0  0  0  0
    2.3837    4.2992  -19.1166 H   0  0  0  0  0  0  0  0  0  0  0  0
    3.1278    4.4614  -17.5610 H   0  0  0  0  0  0  0  0  0  0  0  0
  1  2  2  0
  1  5  1  0
  2  9  1  0
  3  4  2  0
  3  8  1  0
  4 11  1  0
  5 12  2  0
  6  8  2  0
  6 10  1  0
  7  9  2  0
  7 12  1  0
  8  9  1  0
 10 11  2  0
 10 22  1  0
 11 27  1  0
 12 29  1  0
 13 14  1  0
 13 23  1  0
 13 24  2  0
 14 25  2  0
 14 26  1  0
 15 16  1  0
 15 18  1  0
 16 20  1  0
 17 21  1  0
 22 17  1  6
 18 28  1  0
 19 20  1  0
 19 28  1  0
 20 21  1  0
 21 27  1  0
 22 24  1  0
 22 25  1  0
  1 30  1  0
  2 31  1  0
  3 32  1  0
  4 33  1  0
  5 34  1  0
  6 35  1  0
  7 36  1  0
 15 37  1  0
 15 38  1  0
 16 39  1  0
 16 40  1  0
 17 41  1  0
 17 42  1  0
 18 43  1  0
 18 44  1  0
 19 45  1  0
 19 46  1  0
 20 47  1  6
 21 48  1  1
 23 49  1  0
 23 50  1  0
 23 51  1  0
 25 52  1  0
 26 53  1  0
 26 54  1  0
M  CHG  1  25   1
M  END
>  <OMEGA_C>  (6) 
KZWwQFuxkcC5dZrB5cG5QCO8XsD3VqHB/pi+QH4Yo79HNrHB+x7MQJ2WLb4NL7fBvriSQPp+jMCL
H5LBHAqvQKSOQz5CDqLBP02GQGTkBcCEq5fBUTKwQIQ2jL8hmabBXqikQLCRD8AZ9J/B3YW9QJ50
pT+v36fB6ZbLQObGjT/1jrLBTpB7QAoESsAet5DBWM6wQBNkT0DOs5HBoiWKQN6fY0CX/5fBhu+d
QAqTiEAp0sjBl4DPQHuthkAxOcjBpJPWQFCGakC1YKnB0CeMQKVPsUAhLMPBLwzPQBqSvECHrbnB
q/HeQLikj0DLrrzBgHXLQLj1W0AsH7XBPEG8QCsvK0Dvw6LBame2QHBnYEBV8IXB4U/NQPtqKkAE
25fBibqPQFb/R0BvwKHBX99KQM0thUD3HJTBZ/PZQLuzCUAKlrjBP+agQPodu0CHCbnBNpQzQINx
O8B9OobBAm/AQKoVsMAskJvBaenQQBx3ZsBCrqfBeSq/QGK+EMB1tbTBj+3WQKx6mb74Ur/Bmt+L
QInYpsAbzYzBBueiQOgupz7+CZrBxEVrQIGtk78us5bBxRyUQDEFiUBFRdHBlp2QQGUQWEBs5MTB
r13aQIFaTUBnr8rBCRbdQAbdnkAMpM3BD+74QCtJX0AwEqjBNYrOQAVBlkAyD6fBZY+QQK/AzECX
ksjBu51TQCqErECFqsHBe3XcQMQRxkBW5bHBNu/YQP2600Cd07/BrgsBQe9fjkABUrzBL3KoQFQ3
X0Bi7rXBG/TVQNYUSUA4WIPBkyG0QFDPkkBmb4TB2jWdQIT2PkACb4HBFSNzQMCvRkBLhafBBo4Y
QEqTiUDc7pjBsy1IQP7DjkDvfIzBATexQO69kMA1ypnBRVu9QELuXMC5XqDB/ojFQJKEpb+fhbDB
ET3SQAxwQ74IkbbBkjyOQPJBjMDvw5LBel6xQGQmQD7pwqHBVEuDQNmBBsCD55jB72S0QDzMjL/0
MqbBRo+mQH8mD8AE3Z/BD/O+QOwzpT/FqKfB/O3NQCYEjD8ESrLBTH1uQBQES8ClW5LBkA6xQDbx
UEC2pZHBLkeKQCJ2ZED26pfB9KW6QIeB0UAqvrXBCTq0QI8jskBQDr/B53/TQOARakD4+qnBKezq
QOVA20C8CbTBCcgAQQh+mkCrEr3BTdnSQJali0DJfL7BJzXFQM4TWED+urXBVtm7QEigK0A+xqLB
pu61QBRpYECNz4XBNwXOQE9VLkAa6ZfBlhePQGC4RUA+jqHBN+RLQOF0hkAYFpTB1unXQGXCCEBo
zrjBergCQbI/tUC+vLPBK3YXQG5XP8B+w4nBBarCQNiLrsCVG5rBigjYQHywY8AozKXBHM7IQGea
EsDrurPBjE3fQLcUqL5Qfb7BdwSFQCCepsDerI3BOJCkQJWipD7mzpnB+ENjQDFFlr9JoZjBq7ip
QBqH70AsiLfB3HqtQI5Vw0AXZK7B6RiTQLdFpkAH2r7BH9K5QEE+w0BynsbBzTz2QDeJYEC3NKnB
2VrLQKkalkCpwafBs/71QNK970AAo7rBO6HuQFtn7EDGaKzBuCoLQXuhfEAPJrzB37wFQS26rEAw
LsTB19jQQOSFdUBQMcbBAxyiQIbNUkCz17XBi6LVQCkySkB3LoPBRMOyQDegkkD7JYTBpvKcQEsW
PUC4dYHB1X5wQPjYQEDgH6fBEggZQElEikAf2ZjBWEhKQDVAkUDRjozB

>  <OMEGA_E>  (6) 
tlkoP+hJJj8=

>  <OMEGA_NBR>  (6) 
     10290

$$$$
