298712
     RDKit          3D

 58 62  0  0  1  0  0  0  0  0999 V2000
    5.5204   -2.1758  -20.2904 C   0  0  0  0  0  0  0  0  0  0  0  0
    6.5544   -1.0076  -22.1863 C   0  0  0  0  0  0  0  0  0  0  0  0
    7.0024    0.1807  -22.7953 C   0  0  0  0  0  0  0  0  0  0  0  0
    5.4208    0.2781  -20.4311 C   0  0  0  0  0  0  0  0  0  0  0  0
    5.8100   -0.9615  -20.9823 C   0  0  0  0  0  0  0  0  0  0  0  0
    6.6960    1.4088  -22.1974 C   0  0  0  0  0  0  0  0  0  0  0  0
    5.8567    1.4501  -21.0730 C   0  0  0  0  0  0  0  0  0  0  0  0
    6.4368    2.9343  -19.2471 C   0  0  0  0  0  0  0  0  0  0  0  0
    4.2122    3.3437  -18.9292 C   0  0  0  0  0  0  0  0  0  0  0  0
    7.2636    2.7746  -22.4124 C   0  0  0  0  0  0  0  0  0  0  0  0
    6.7333    4.9789  -15.3921 C   0  0  0  0  0  0  0  0  0  0  0  0
    7.3161    5.1557  -16.8060 C   0  0  0  0  0  0  0  0  0  0  0  0
    5.1560    4.1932  -22.6736 C   0  0  0  0  0  0  0  0  0  0  0  0
    7.0329    5.0131  -21.2147 C   0  0  0  0  0  0  0  0  0  0  0  0
    5.8964    4.6202  -16.6108 C   0  0  0  0  0  0  0  0  0  0  0  0
    5.6795    5.0005  -23.8739 C   0  0  2  0  0  0  0  0  0  0  0  0
    7.6588    5.7574  -22.4066 C   0  0  1  0  0  0  0  0  0  0  0  0
    6.5724    6.1825  -23.4196 C   0  0  1  0  0  0  0  0  0  0  0  0
    5.7151    2.8625  -20.5651 C   0  0  1  0  0  0  0  0  0  0  0  0
    6.2927    3.7451  -21.7077 C   0  0  2  0  0  0  0  0  0  0  0  0
    4.4686    5.5195  -24.6633 C   0  0  0  0  0  0  0  0  0  0  0  0
    8.4259    6.9833  -21.8820 C   0  0  0  0  0  0  0  0  0  0  0  0
    5.6430    3.1434  -16.8865 C   0  0  0  0  0  0  0  0  0  0  0  0
    5.3079   -3.1729  -19.7252 N   0  0  0  0  0  0  0  0  0  0  0  0
    5.4184    2.9908  -18.3118 N   0  0  0  0  0  0  0  0  0  0  0  0
    4.3261    3.1914  -20.2218 N   0  0  0  0  0  0  0  0  0  0  0  0
    3.0643    3.7810  -18.2865 N   0  0  0  0  0  0  0  0  0  0  0  0
    7.6300    2.7341  -19.0439 O   0  0  0  0  0  0  0  0  0  0  0  0
    7.2265    6.7127  -24.5676 O   0  0  0  0  0  0  0  0  0  0  0  0
    6.7801   -1.9609  -22.6407 H   0  0  0  0  0  0  0  0  0  0  0  0
    7.5743    0.1449  -23.7107 H   0  0  0  0  0  0  0  0  0  0  0  0
    4.8070    0.3247  -19.5437 H   0  0  0  0  0  0  0  0  0  0  0  0
    8.2676    2.8469  -21.9689 H   0  0  0  0  0  0  0  0  0  0  0  0
    7.3203    3.0017  -23.4872 H   0  0  0  0  0  0  0  0  0  0  0  0
    7.1163    4.1846  -14.7346 H   0  0  0  0  0  0  0  0  0  0  0  0
    6.4761    5.8620  -14.7888 H   0  0  0  0  0  0  0  0  0  0  0  0
    7.4737    6.1644  -17.2155 H   0  0  0  0  0  0  0  0  0  0  0  0
    8.1139    4.4870  -17.1613 H   0  0  0  0  0  0  0  0  0  0  0  0
    4.4441    4.8173  -22.1135 H   0  0  0  0  0  0  0  0  0  0  0  0
    4.6408    3.2972  -23.0501 H   0  0  0  0  0  0  0  0  0  0  0  0
    7.8263    4.7207  -20.5111 H   0  0  0  0  0  0  0  0  0  0  0  0
    6.3182    5.6768  -20.7060 H   0  0  0  0  0  0  0  0  0  0  0  0
    5.0778    5.3108  -16.8619 H   0  0  0  0  0  0  0  0  0  0  0  0
    6.2714    4.3365  -24.5210 H   0  0  0  0  0  0  0  0  0  0  0  0
    8.3680    5.0850  -22.9114 H   0  0  0  0  0  0  0  0  0  0  0  0
    5.9342    6.9478  -22.9536 H   0  0  0  0  0  0  0  0  0  0  0  0
    4.8169    6.1017  -25.5292 H   0  0  0  0  0  0  0  0  0  0  0  0
    3.8664    4.6678  -25.0125 H   0  0  0  0  0  0  0  0  0  0  0  0
    3.8549    6.1606  -24.0135 H   0  0  0  0  0  0  0  0  0  0  0  0
    8.8777    7.5230  -22.7273 H   0  0  0  0  0  0  0  0  0  0  0  0
    7.7314    7.6504  -21.3504 H   0  0  0  0  0  0  0  0  0  0  0  0
    9.2171    6.6532  -21.1929 H   0  0  0  0  0  0  0  0  0  0  0  0
    6.5171    2.5501  -16.5798 H   0  0  0  0  0  0  0  0  0  0  0  0
    4.7567    2.8054  -16.3296 H   0  0  0  0  0  0  0  0  0  0  0  0
    3.5786    3.2849  -20.8794 H   0  0  0  0  0  0  0  0  0  0  0  0
    2.2477    4.0044  -18.8186 H   0  0  0  0  0  0  0  0  0  0  0  0
    3.0530    3.8730  -17.2908 H   0  0  0  0  0  0  0  0  0  0  0  0
    7.7801    7.4403  -24.3093 H   0  0  0  0  0  0  0  0  0  0  0  0
  1  5  1  0
  1 24  3  0
  2  3  2  0
  2  5  1  0
  3  6  1  0
  4  5  2  0
  4  7  1  0
  6  7  2  0
  6 10  1  0
  7 19  1  0
 19  8  1  1
  8 25  1  0
  8 28  2  0
  9 25  1  0
  9 26  2  0
  9 27  1  0
 20 10  1  6
 11 12  1  0
 11 15  1  0
 12 15  1  0
 13 16  1  0
 13 20  1  0
 14 17  1  0
 14 20  1  0
 15 23  1  0
 16 18  1  0
 16 21  1  0
 17 18  1  0
 17 22  1  0
 18 29  1  0
 19 20  1  0
 19 26  1  0
 23 25  1  0
  2 30  1  0
  3 31  1  0
  4 32  1  0
 10 33  1  0
 10 34  1  0
 11 35  1  0
 11 36  1  0
 12 37  1  0
 12 38  1  0
 13 39  1  0
 13 40  1  0
 14 41  1  0
 14 42  1  0
 15 43  1  0
 16 44  1  6
 17 45  1  6
 18 46  1  1
 21 47  1  0
 21 48  1  0
 21 49  1  0
 22 50  1  0
 22 51  1  0
 22 52  1  0
 23 53  1  0
 23 54  1  0
 26 55  1  0
 27 56  1  0
 27 57  1  0
 29 58  1  0
M  CHG  1  26   1
M  END
>  <OMEGA_C>  (1) 
y6awQE5AC8DKUqLBgb3RQBv4gL9xfbHBvBPgQKABOT7MXLbBF3etQMhfjj7tcqPBr+u5QHAndr+z
26fBTkXWQHpUtD9VlLHBJ2q7QEabuT9zlajBX/rNQNPLO0AF+pnBTMqGQE//VUDnbpfBXG/oQMmS
MUCRTLPBJnfXQGxTn0D8RXbBZx3qQJj7pECWcobB1v2kQGwuhkB4Y7XBZw3hQH5roECdt6nBLq+8
QHrYk0Dz4oTB1b61QC4EoEDO/b7BkhT1QN48uECuQLPBvlDSQDbXxUBWW7vBs+G2QOczN0BShaTB
Hl7JQC+vb0Bfqa3BDP+OQLyfsEBwTsXBY9AGQRR330BqDq/B2ZO0QBUtSUCQF4fBldqpQDYQS8BB
zZ3BN2OtQOtpP0CpfpLB0m+KQHk/TEBWxqHBwB1EQIv7cUDASpLBBSn0QEv7LkD3WZjBzz/nQJrO
1kBaisTB5PbYQOH/+r8uILXBCGHyQNJTFD6Xr73BIdOZQNA7pj57WZzBLEgEQU80NkBFwK/Btj/q
QPobQEDD5bvBqLjjQOvnhUDuwGvBEDzPQKiVu0DDnmzBbijvQNtCxUA+uYnBg9IBQR+Vj0BTSonB
WjaOQEgnmkBZ6LDBFYGUQC4FU0CVZrjBbHH6QEcQl0DQFqTBeC7KQIKotUD4paXBhn2iQNjxqUAh
5YbBRa/IQEDEikAUK8TBU+MFQSm4okBzSrfBP+W9QJlU3kATobfBECSaQNtAw0DPO8zBinJ3QOVe
lUCZGcjB6bZ2QOsjxUCQG8DBGQsOQYy88ECY0bXBUGf3QLHP9ECPzarBZ3kTQffm1EAEi6nB34vQ
QHU0I0Bpo4TB5zaYQO6KM0ALo4LBiwdlQDU7UkAOCafBjNkPQOwjgECIjJbBwWNDQB7fd0CSU4rB
xPb4QOUW7kCCecLB

>  <OMEGA_E>  (1) 
HdqCPw==

>  <OMEGA_NBR>  (1) 
     29502

$$$$
290128
     RDKit          3D

 58 61  0  0  1  0  0  0  0  0999 V2000
    5.4033   -2.1762  -20.3507 C   0  0  0  0  0  0  0  0  0  0  0  0
    6.5468   -1.0176  -22.1870 C   0  0  0  0  0  0  0  0  0  0  0  0
    7.0231    0.1651  -22.7835 C   0  0  0  0  0  0  0  0  0  0  0  0
    5.3836    0.2805  -20.4602 C   0  0  0  0  0  0  0  0  0  0  0  0
    5.7608   -0.9630  -21.0105 C   0  0  0  0  0  0  0  0  0  0  0  0
    6.7059    1.3973  -22.2006 C   0  0  0  0  0  0  0  0  0  0  0  0
    5.8543    1.4477  -21.0850 C   0  0  0  0  0  0  0  0  0  0  0  0
    6.4355    2.9213  -19.2419 C   0  0  0  0  0  0  0  0  0  0  0  0
    4.2149    3.3220  -18.9287 C   0  0  0  0  0  0  0  0  0  0  0  0
    7.2476    2.7637  -22.4523 C   0  0  0  0  0  0  0  0  0  0  0  0
    5.6557    5.0658  -23.8608 C   0  0  0  0  0  0  0  0  0  0  0  0
    5.1486    4.2082  -22.6891 C   0  0  0  0  0  0  0  0  0  0  0  0
    7.0838    4.9801  -21.2420 C   0  0  0  0  0  0  0  0  0  0  0  0
    7.6721    5.7323  -22.4511 C   0  0  1  0  0  0  0  0  0  0  0  0
    6.5229    6.2310  -23.3479 C   0  0  1  0  0  0  0  0  0  0  0  0
    5.7213    2.8593  -20.5734 C   0  0  1  0  0  0  0  0  0  0  0  0
    6.2978    3.7385  -21.7274 C   0  0  2  0  0  0  0  0  0  0  0  0
    8.5313    6.9016  -21.9470 C   0  0  0  0  0  0  0  0  0  0  0  0
    6.3507    8.1247  -24.8294 C   0  0  0  0  0  0  0  0  0  0  0  0
    6.7075    5.9003  -14.7799 C   0  0  0  0  0  0  0  0  0  0  0  0
    5.6369    3.0285  -16.8794 C   0  0  0  0  0  0  0  0  0  0  0  0
    6.0231    4.4684  -16.5650 C   0  0  0  0  0  0  0  0  0  0  0  0
    5.1307   -3.1747  -19.8147 N   0  0  0  0  0  0  0  0  0  0  0  0
    5.4098    2.9276  -18.3129 N   0  0  0  0  0  0  0  0  0  0  0  0
    4.3312    3.1885  -20.2253 N   0  0  0  0  0  0  0  0  0  0  0  0
    3.0759    3.7788  -18.2832 N   0  0  0  0  0  0  0  0  0  0  0  0
    7.6323    2.7752  -19.0149 O   0  0  0  0  0  0  0  0  0  0  0  0
    7.0752    6.9326  -24.4755 O   0  0  0  0  0  0  0  0  0  0  0  0
    6.2631    4.5887  -15.1634 O   0  0  0  0  0  0  0  0  0  0  0  0
    6.7826   -1.9739  -22.6300 H   0  0  0  0  0  0  0  0  0  0  0  0
    7.6253    0.1222  -23.6791 H   0  0  0  0  0  0  0  0  0  0  0  0
    4.7524    0.3334  -19.5854 H   0  0  0  0  0  0  0  0  0  0  0  0
    8.2666    2.8513  -22.0475 H   0  0  0  0  0  0  0  0  0  0  0  0
    7.2622    2.9761  -23.5315 H   0  0  0  0  0  0  0  0  0  0  0  0
    6.2571    4.4375  -24.5343 H   0  0  0  0  0  0  0  0  0  0  0  0
    4.7938    5.4720  -24.4104 H   0  0  0  0  0  0  0  0  0  0  0  0
    4.4263    4.8007  -22.1083 H   0  0  0  0  0  0  0  0  0  0  0  0
    4.6481    3.3179  -23.0976 H   0  0  0  0  0  0  0  0  0  0  0  0
    7.9008    4.6587  -20.5793 H   0  0  0  0  0  0  0  0  0  0  0  0
    6.4060    5.6486  -20.6908 H   0  0  0  0  0  0  0  0  0  0  0  0
    8.3054    5.0431  -23.0291 H   0  0  0  0  0  0  0  0  0  0  0  0
    5.8872    6.9083  -22.7588 H   0  0  0  0  0  0  0  0  0  0  0  0
    8.9547    7.4431  -22.8058 H   0  0  0  0  0  0  0  0  0  0  0  0
    7.9072    7.5859  -21.3537 H   0  0  0  0  0  0  0  0  0  0  0  0
    9.3475    6.5131  -21.3202 H   0  0  0  0  0  0  0  0  0  0  0  0
    6.8313    8.6029  -25.6957 H   0  0  0  0  0  0  0  0  0  0  0  0
    5.3137    7.8612  -25.0847 H   0  0  0  0  0  0  0  0  0  0  0  0
    6.3530    8.8214  -23.9782 H   0  0  0  0  0  0  0  0  0  0  0  0
    6.8743    5.9282  -13.6930 H   0  0  0  0  0  0  0  0  0  0  0  0
    7.6471    6.1358  -15.3011 H   0  0  0  0  0  0  0  0  0  0  0  0
    5.9414    6.6411  -15.0524 H   0  0  0  0  0  0  0  0  0  0  0  0
    6.4499    2.3502  -16.5814 H   0  0  0  0  0  0  0  0  0  0  0  0
    4.7186    2.7611  -16.3361 H   0  0  0  0  0  0  0  0  0  0  0  0
    6.9348    4.7354  -17.1197 H   0  0  0  0  0  0  0  0  0  0  0  0
    5.2048    5.1424  -16.8584 H   0  0  0  0  0  0  0  0  0  0  0  0
    3.5849    3.2946  -20.8824 H   0  0  0  0  0  0  0  0  0  0  0  0
    2.2680    4.0330  -18.8148 H   0  0  0  0  0  0  0  0  0  0  0  0
    3.0625    3.8541  -17.2862 H   0  0  0  0  0  0  0  0  0  0  0  0
  1  5  1  0
  1 23  3  0
  2  3  2  0
  2  5  1  0
  3  6  1  0
  4  5  2  0
  4  7  1  0
  6  7  2  0
  6 10  1  0
  7 16  1  0
 16  8  1  1
  8 24  1  0
  8 27  2  0
  9 24  1  0
  9 25  2  0
  9 26  1  0
 17 10  1  6
 11 12  1  0
 11 15  1  0
 12 17  1  0
 13 14  1  0
 13 17  1  0
 14 15  1  0
 14 18  1  0
 15 28  1  0
 16 17  1  0
 16 25  1  0
 19 28  1  0
 20 29  1  0
 21 22  1  0
 21 24  1  0
 22 29  1  0
  2 30  1  0
  3 31  1  0
  4 32  1  0
 10 33  1  0
 10 34  1  0
 11 35  1  0
 11 36  1  0
 12 37  1  0
 12 38  1  0
 13 39  1  0
 13 40  1  0
 14 41  1  6
 15 42  1  1
 18 43  1  0
 18 44  1  0
 18 45  1  0
 19 46  1  0
 19 47  1  0
 19 48  1  0
 20 49  1  0
 20 50  1  0
 20 51  1  0
 21 52  1  0
 21 53  1  0
 22 54  1  0
 22 55  1  0
 25 56  1  0
 26 57  1  0
 26 58  1  0
M  CHG  1  25   1
M  END
>  <OMEGA_C>  (2) 
o+esQIZHC8A/zqLB+n7RQDZAgr/hfrHBV73gQEgIKT6zRLbBn0asQLyajz55rqPBUVi4QOKEdr98
FajBCZfWQPXZsj/PmrHBqVa7QPdOuT8TrqjB1O/NQI72OkBZ75nBdeCGQAacVEDxbZfB++vnQM7g
MEBFnrPBq/u0QPQaokDk4r7BOsGkQHuphkAtg7XBLq7iQC1dn0CQ76nBHYL1QPdut0Dum7PBcbvQ
QC9kx0BsyLrB6hS3QOb+NkBHlqTBT4fJQDZEb0DP0a3BaIAIQc3Z3ECIk6/B9zjLQPD+AUGtosbB
5aPWQPnOvECjemzBI2G0QLbTQUAHCYfBlb3AQEn9jkAhhYTB/y6kQKouS8CRhJ7BvRytQKJdO0Dh
gJLBZZmKQAYQTEB6zaHBFtxEQHDYcUAQRJLBrzv0QCadMUCPHpjBSWjiQAnY3UDOzcPBZ2vIQLnW
kkBjnXLB2ArZQJOo/L8qCrXBFgL0QFIt+j3Bbr3BvROYQJCxqj4Ar5zBEEQEQbl7NkBIYbDB0WPo
QD54PkB8QLzB7TnIQLv/jUAzRsTBzGaZQEAar0CVSMPBc6SNQIifmUDc3bDBgL2UQHNYVEDtx7jB
J9P8QEUUlUBSoqTBCP7MQIHBtEDQhqXBx+IEQWlhoUCsO7jBmGO8QC8R3UD3EbbBY0YPQRku7kBW
crbBrAf9QBXA8kBW1KrBeY8VQXdr0EC8j6rBppnaQH+lCUHOkM3B2gmqQPuO+0CGrcjBA0zLQHsk
DUFJ07/B6/nbQCq0vUCVFlvBTbX0QNNYxEBQ0XTB4B++QM+D1EC31nDBuGXOQMxpFkDFpoTBYf6W
QDO2MEBOsILBv+ndQCKIl0AT9YjBBo6mQMSOpEAH3obB425lQEzbUkAfD6fBSiYRQKcOgUC2hJbB
cf9DQG+pdkAOSorB6EKoQKJiC8DH5aLBtuXNQFyIhb+jibHBctndQPBCAj6WW7bBmGSsQHDejz72
R6PBuNu1QBSOeL/h86fBlHfVQBICrz8vmLHBck28QGjCtz8BT6jBlvPOQKkYQUAQ6pnBPNKHQA9I
XUAGmpfBgGrmQPd8LkAVE7TBrh+3QECqpkC6AL7BTEmmQJhCikB23bTBgJ7nQD7XnEC2uanBeGP6
QGB5tUCcPbPBln/VQMpeyUBwprnB6gi4QPvfNkBWb6TBbOLKQOfhbkDCsq3B9aIMQR7U10A9BK/B
tsfRQEjBBEFMSMTBdzkDQftcEEDufYDBOPK3QIt/eEAjxYfBSlG5QE8GJ0A+3YDBbKCdQKoLS8Dl
057BnKCwQOG/Y0CTD5PB6ESLQI/CSkCCx6HBfblCQNeea0DCX5LBZpP0QPPtL0AtJ5jBWOfmQKBD
4UDTc8LBWODcQN634D+btoPBMgrUQKA8AMCCLbXBn1XwQGJVjj21pL3BcIGZQD6Osj7aEJzBChAE
QYZOM0AEnbHBRcfjQL1nO0Ays7zBrIjIQJWfkkAGyMPBaeabQL8mtkDjBMLBcfSQQKmPnUA6y6/B
wCaUQHkUX0DpXbjBEfMAQTvMj0Du3KTBoknUQHHHskCA06TBPw4GQYYln0A2Z7jBFjrDQMS13kAV
WbTBXnYTQcuy6UBhybXBbeYDQfX57UDfwKnBaJkZQcVlyEC+e6rBms3gQEnvDEEAHMvBYcOvQPrl
AUFtCcbBvJzUQPfRDkEoGb3B0LIPQSC4xT+z+oLB2SAGQVG8TkBJToTBS6ADQQ3QF0C8fG/BLOCd
QMz5kEAO7ITBQKDWQKw7jUCcAYfBEHW8QJyPOUB90nDBLlKbQGhSA0CQ/4HBKv1lQOQ1SkDR/abB
EZcLQOUTaECIaZbBJ19CQNSBeUCVkIrB

>  <OMEGA_E>  (2) 
yJ2DPzPpgz8=

>  <OMEGA_NBR>  (2) 
     20330

$$$$
298703
     RDKit          3D

 57 60  0  0  1  0  0  0  0  0999 V2000
    4.8107   -2.0262  -20.3868 C   0  0  0  0  0  0  0  0  0  0  0  0
    6.4710   -1.0680  -21.9487 C   0  0  0  0  0  0  0  0  0  0  0  0
    7.1007    0.0565  -22.5334 C   0  0  0  0  0  0  0  0  0  0  0  0
    5.1572    0.3938  -20.4919 C   0  0  0  0  0  0  0  0  0  0  0  0
    5.4850   -0.8971  -20.9453 C   0  0  0  0  0  0  0  0  0  0  0  0
    6.7559    1.3500  -22.0982 C   0  0  0  0  0  0  0  0  0  0  0  0
    5.7993    1.4950  -21.0827 C   0  0  0  0  0  0  0  0  0  0  0  0
    6.4739    2.9548  -19.2751 C   0  0  0  0  0  0  0  0  0  0  0  0
    4.2315    3.3141  -18.9410 C   0  0  0  0  0  0  0  0  0  0  0  0
    7.2718    2.7219  -22.4789 C   0  0  0  0  0  0  0  0  0  0  0  0
    5.2359    4.3014  -22.6661 C   0  0  0  0  0  0  0  0  0  0  0  0
    7.2183    4.9778  -21.2577 C   0  0  0  0  0  0  0  0  0  0  0  0
    5.7438    5.1859  -23.8171 C   0  0  2  0  0  0  0  0  0  0  0  0
    7.7767    5.7976  -22.4300 C   0  0  1  0  0  0  0  0  0  0  0  0
    6.6157    6.3380  -23.2801 C   0  0  1  0  0  0  0  0  0  0  0  0
    5.7453    2.9132  -20.5922 C   0  0  1  0  0  0  0  0  0  0  0  0
    6.3749    3.7604  -21.7426 C   0  0  2  0  0  0  0  0  0  0  0  0
    4.5229    5.7639  -24.5529 C   0  0  0  0  0  0  0  0  0  0  0  0
    8.6116    6.9681  -21.8765 C   0  0  0  0  0  0  0  0  0  0  0  0
    5.6167    4.8723  -16.5739 C   0  0  0  0  0  0  0  0  0  0  0  0
    5.7461    3.3647  -16.9130 C   0  0  0  0  0  0  0  0  0  0  0  0
    6.2605    5.8432  -17.6068 C   0  0  0  0  0  0  0  0  0  0  0  0
    4.2433   -2.9368  -19.9306 N   0  0  0  0  0  0  0  0  0  0  0  0
    5.4750    3.0884  -18.3256 N   0  0  0  0  0  0  0  0  0  0  0  0
    4.3697    3.2895  -20.2411 N   0  0  0  0  0  0  0  0  0  0  0  0
    3.0356    3.6060  -18.3062 N   0  0  0  0  0  0  0  0  0  0  0  0
    7.6674    2.7553  -19.0728 O   0  0  0  0  0  0  0  0  0  0  0  0
    7.1441    7.0807  -24.3743 O   0  0  0  0  0  0  0  0  0  0  0  0
    6.3658    7.0731  -17.0509 F   0  0  0  0  0  0  0  0  0  0  0  0
    7.5086    5.4399  -17.9738 F   0  0  0  0  0  0  0  0  0  0  0  0
    5.4544    5.9681  -18.6923 F   0  0  0  0  0  0  0  0  0  0  0  0
    6.7438   -2.0626  -22.2691 H   0  0  0  0  0  0  0  0  0  0  0  0
    7.8409   -0.0770  -23.3085 H   0  0  0  0  0  0  0  0  0  0  0  0
    4.4285    0.5350  -19.7074 H   0  0  0  0  0  0  0  0  0  0  0  0
    8.3192    2.8340  -22.1619 H   0  0  0  0  0  0  0  0  0  0  0  0
    7.2009    2.8646  -23.5673 H   0  0  0  0  0  0  0  0  0  0  0  0
    4.5425    4.8945  -22.0517 H   0  0  0  0  0  0  0  0  0  0  0  0
    4.7007    3.4427  -23.0976 H   0  0  0  0  0  0  0  0  0  0  0  0
    8.0584    4.6083  -20.6514 H   0  0  0  0  0  0  0  0  0  0  0  0
    6.5800    5.6286  -20.6420 H   0  0  0  0  0  0  0  0  0  0  0  0
    6.3355    4.5748  -24.5145 H   0  0  0  0  0  0  0  0  0  0  0  0
    8.4172    5.1556  -23.0526 H   0  0  0  0  0  0  0  0  0  0  0  0
    5.9900    6.9860  -22.6489 H   0  0  0  0  0  0  0  0  0  0  0  0
    4.8621    6.4017  -25.3825 H   0  0  0  0  0  0  0  0  0  0  0  0
    3.9107    4.9408  -24.9499 H   0  0  0  0  0  0  0  0  0  0  0  0
    3.9223    6.3626  -23.8522 H   0  0  0  0  0  0  0  0  0  0  0  0
    9.0144    7.5592  -22.7122 H   0  0  0  0  0  0  0  0  0  0  0  0
    7.9745    7.6081  -21.2485 H   0  0  0  0  0  0  0  0  0  0  0  0
    9.4422    6.5728  -21.2733 H   0  0  0  0  0  0  0  0  0  0  0  0
    4.5460    5.1139  -16.5017 H   0  0  0  0  0  0  0  0  0  0  0  0
    6.0979    5.0443  -15.5998 H   0  0  0  0  0  0  0  0  0  0  0  0
    6.7691    3.0356  -16.6780 H   0  0  0  0  0  0  0  0  0  0  0  0
    5.0292    2.8008  -16.2981 H   0  0  0  0  0  0  0  0  0  0  0  0
    3.6457    3.4964  -20.8991 H   0  0  0  0  0  0  0  0  0  0  0  0
    2.2200    3.8124  -18.8467 H   0  0  0  0  0  0  0  0  0  0  0  0
    2.9879    3.6105  -17.3073 H   0  0  0  0  0  0  0  0  0  0  0  0
    7.6818    7.7913  -24.0450 H   0  0  0  0  0  0  0  0  0  0  0  0
  1  5  1  0
  1 23  3  0
  2  3  2  0
  2  5  1  0
  3  6  1  0
  4  5  2  0
  4  7  1  0
  6  7  2  0
  6 10  1  0
  7 16  1  0
 16  8  1  1
  8 24  1  0
  8 27  2  0
  9 24  1  0
  9 25  2  0
  9 26  1  0
 17 10  1  6
 11 13  1  0
 11 17  1  0
 12 14  1  0
 12 17  1  0
 13 15  1  0
 13 18  1  0
 14 15  1  0
 14 19  1  0
 15 28  1  0
 16 17  1  0
 16 25  1  0
 20 21  1  0
 20 22  1  0
 21 24  1  0
 22 29  1  0
 22 30  1  0
 22 31  1  0
  2 32  1  0
  3 33  1  0
  4 34  1  0
 10 35  1  0
 10 36  1  0
 11 37  1  0
 11 38  1  0
 12 39  1  0
 12 40  1  0
 13 41  1  6
 14 42  1  6
 15 43  1  1
 18 44  1  0
 18 45  1  0
 18 46  1  0
 19 47  1  0
 19 48  1  0
 19 49  1  0
 20 50  1  0
 20 51  1  0
 21 52  1  0
 21 53  1  0
 25 54  1  0
 26 55  1  0
 26 56  1  0
 28 57  1  0
M  CHG  1  25   1
M  END
>  <OMEGA_C>  (3) 
//CZQO6tAcAhGKPB0xLPQOiyiL/nlq/B7jjjQAA/Zz1xRLTB7gelQBCcyT5i76PBtoSvQCimZb8L
kKfBeTDYQITMrD81ybDBupO5QDxcvz9FqajBNyrPQAYcPUBzM5rB2GiHQPIaVEA8h5fByLLoQE40
LkDB1LPBRIynQDeliUATVLXB7vvmQBFKn0DKD6rBNM23QEnzpUBvib7BiNr4QAGGuUCRcLPBtLPT
QJfQykCnPbrBjdm3QO5xOkDXvKTBX//LQOKpcEDD8K3BUbuQQBNyuEBCbMTBR8kJQWH63kAjA6/B
NbyzQMHpm0Bml4TBauC3QOpWV0DRTYfBIFbIQC37ukDQ2ozBRcmHQGX0O8DFcZ/BKjOvQA6pRUC+
mpLBxNSLQNaHUkDM7aHBAUhCQD7JZkAWc5LBdlv1QGZXMEAflZjBcpzkQCWV4kCO/sLB1LTLQDlX
4kAoaIjB3EbwQPkTrkBXyo/BEIquQNn6vkDoiZXB08zXQAMCBMAmJ7LBpej6QNaynb27d7rBcraN
QHb1CD+1qJ3BZBsFQQRgNUCUS7HBhG3mQKtVN0DMibzBxVuRQPGfnEDxabDBb2yWQNdUXEDMx7jB
GO8AQRJ3k0D6NaXBqo/SQL0dtEDVIqXBurzKQHtkkkCdHcTBs6wGQd36pECna7jBvq2/QI2N30Db
MLXBMpabQFTazEBHD8vB1Uh6QNIankB4mcfBhQZ7QF2ay0Bd0b7BHzsQQa/k8UCasrXBFy//QDV1
80Df/KnBYRMXQSxU0kDCL6rB8niRQMCko0ByA4TBXCLDQIdqoUDrmHnBq5zYQDBHQkCUbIXBgO+g
QDFAM0CMYoLBIVNpQEnFX0BtMafBWBQOQIv9c0AJxpbBQjk/QLQRZ0BydYrBmtH1QB5S+UAtXMDB

>  <OMEGA_E>  (3) 
N8OKPw==

>  <OMEGA_NBR>  (3) 
     21588

$$$$
