50220829
     RDKit          3D

 44 47  0  0  1  0  0  0  0  0999 V2000
    6.5076    5.5093  -24.1351 C   0  0  0  0  0  0  0  0  0  0  0  0
    5.4475    4.5968  -24.3027 C   0  0  0  0  0  0  0  0  0  0  0  0
    7.2945    5.4642  -22.9675 C   0  0  0  0  0  0  0  0  0  0  0  0
    6.7584   -0.6122  -22.5807 C   0  0  0  0  0  0  0  0  0  0  0  0
    3.0701   -3.0243  -18.2664 C   0  0  0  0  0  0  0  0  0  0  0  0
    6.1763   -1.5767  -21.7412 C   0  0  0  0  0  0  0  0  0  0  0  0
    3.5276   -2.0409  -19.1585 C   0  0  0  0  0  0  0  0  0  0  0  0
    5.1548    3.6602  -23.2899 C   0  0  0  0  0  0  0  0  0  0  0  0
    7.0036    4.5303  -21.9514 C   0  0  0  0  0  0  0  0  0  0  0  0
    6.5290    0.7570  -22.3555 C   0  0  0  0  0  0  0  0  0  0  0  0
    5.0828    0.1933  -20.4734 C   0  0  0  0  0  0  0  0  0  0  0  0
    3.9022   -4.1207  -17.9592 C   0  0  0  0  0  0  0  0  0  0  0  0
    5.5789   -3.3256  -19.3911 C   0  0  0  0  0  0  0  0  0  0  0  0
    5.3441   -1.1798  -20.6728 C   0  0  0  0  0  0  0  0  0  0  0  0
    4.8050   -2.1910  -19.7368 C   0  0  0  0  0  0  0  0  0  0  0  0
    5.9142    3.6305  -22.0926 C   0  0  0  0  0  0  0  0  0  0  0  0
    5.6730    1.1766  -21.3092 C   0  0  0  0  0  0  0  0  0  0  0  0
    5.3994    3.1667  -18.7551 C   0  0  0  0  0  0  0  0  0  0  0  0
    4.0401    3.2049  -19.3224 C   0  0  0  0  0  0  0  0  0  0  0  0
    5.5085    2.6644  -20.9572 C   0  0  1  0  0  0  0  0  0  0  0  0
    5.7287    3.3994  -17.3003 C   0  0  0  0  0  0  0  0  0  0  0  0
    5.1290   -4.2552  -18.5165 N   0  0  0  0  0  0  0  0  0  0  0  0
    6.2646    2.8951  -19.7062 N   0  0  0  0  0  0  0  0  0  0  0  0
    4.1119    2.9531  -20.6032 N   0  0  0  0  0  0  0  0  0  0  0  0
    2.8791    3.4622  -18.6101 N   0  0  0  0  0  0  0  0  0  0  0  0
    6.7166    6.2421  -24.9004 H   0  0  0  0  0  0  0  0  0  0  0  0
    4.8584    4.6145  -25.2078 H   0  0  0  0  0  0  0  0  0  0  0  0
    8.1231    6.1469  -22.8500 H   0  0  0  0  0  0  0  0  0  0  0  0
    7.3853   -0.9238  -23.4031 H   0  0  0  0  0  0  0  0  0  0  0  0
    2.0903   -2.9417  -17.8198 H   0  0  0  0  0  0  0  0  0  0  0  0
    6.3665   -2.6257  -21.9141 H   0  0  0  0  0  0  0  0  0  0  0  0
    2.9126   -1.1858  -19.3971 H   0  0  0  0  0  0  0  0  0  0  0  0
    4.3449    2.9592  -23.4273 H   0  0  0  0  0  0  0  0  0  0  0  0
    7.6132    4.4992  -21.0605 H   0  0  0  0  0  0  0  0  0  0  0  0
    7.0086    1.4924  -22.9844 H   0  0  0  0  0  0  0  0  0  0  0  0
    4.4247    0.4995  -19.6737 H   0  0  0  0  0  0  0  0  0  0  0  0
    3.5531   -4.8698  -17.2640 H   0  0  0  0  0  0  0  0  0  0  0  0
    6.5542   -3.4523  -19.8374 H   0  0  0  0  0  0  0  0  0  0  0  0
    6.8145    3.3071  -17.1502 H   0  0  0  0  0  0  0  0  0  0  0  0
    5.4027    4.4084  -17.0075 H   0  0  0  0  0  0  0  0  0  0  0  0
    5.2086    2.6524  -16.6827 H   0  0  0  0  0  0  0  0  0  0  0  0
    3.3406    2.9565  -21.2396 H   0  0  0  0  0  0  0  0  0  0  0  0
    1.9955    3.4653  -19.0783 H   0  0  0  0  0  0  0  0  0  0  0  0
    2.9252    3.6446  -17.6279 H   0  0  0  0  0  0  0  0  0  0  0  0
  1  2  2  0
  1  3  1  0
  2  8  1  0
  3  9  2  0
  4  6  2  0
  4 10  1  0
  5  7  2  0
  5 12  1  0
  6 14  1  0
  7 15  1  0
  8 16  2  0
  9 16  1  0
 10 17  2  0
 11 14  2  0
 11 17  1  0
 12 22  2  0
 13 15  2  0
 13 22  1  0
 14 15  1  0
 20 16  1  6
 17 20  1  0
 18 19  1  0
 18 21  1  0
 18 23  2  0
 19 24  2  0
 19 25  1  0
 20 23  1  0
 20 24  1  0
  1 26  1  0
  2 27  1  0
  3 28  1  0
  4 29  1  0
  5 30  1  0
  6 31  1  0
  7 32  1  0
  8 33  1  0
  9 34  1  0
 10 35  1  0
 11 36  1  0
 12 37  1  0
 13 38  1  0
 21 39  1  0
 21 40  1  0
 21 41  1  0
 24 42  1  0
 25 43  1  0
 25 44  1  0
M  CHG  1  24   1
M  END
>  <OMEGA_C>  (1) 
7j3QQAdMsEC3FMHB/lGuQNQYk0AGbMLB3GzpQMvarkBXvbfBN0XYQAm6HL86pbTBJX1EQI6NQcCg
IZLBmKTFQHzQyb/s7a3BjsNhQJyeAsCCRJnBPPSkQGZBakCyUbrBeB3gQN73kECLnK/Bae3QQAHJ
QT/917LBLqaiQCDzRT59yaPBfb15QJTcg8B3rI/BVoayQDvWVMD4IJvB2QKrQEcDl7/xYaXBK8KZ
QN84DMDx5J3By0C9QFFZaECQvbDBBIm1QKSblj9CearBB8isQIurSkBYCpbBHUiBQMMcTUBPlJrB
yUWwQDGGKkBIqKfBelG3QOCPWUDuZorBhSCkQIAqiMC7IZTBz3fIQBVKOUBYpp3B1JSDQDgAPUBV
06TBjkM4QOaTXUBp4ZTBYu7WQIS/x0D8M8fBVHibQL6pk0CIqcnBTvgBQU6zxEDEzLbBVlTsQIB8
bL+RObvBR8cFQClEPMDyjo7BI7rLQLwKKMAAUK/BVWg6QKrHl79OLZvBDwmLQEJjPUAja7vBjJ/z
QND5j0Dhe6jBukbgQF0Fvz8J4LfBy5aNQEq//z63Y53BxmZjQF3Vm8CSHIrB2LvRQPjyXMDvsp7B
aRDaQAWoU0CtM4nBmeKsQEgRjUBVD4jBeKymQHHAKUAndoXBB8xVQEM3PUC26qnBJ23/P2jHXUBV
oJjBhjY7QE1BaUAABo3BlirQQI0KsECmLsHB123pQNfIrkDm2bfBU0euQMbFkkDNecLByi7XQA0d
Hb+xwrTBm8FFQMDLQMCX4ZHBXT3FQDKFyb9m5a3BooNjQG5WAcAx6ZjBdEPgQCf9kEB9sK/Bb/uk
QIj3aUDYU7rBRiDQQGSmQT8Z8rLBs3SjQBkgTj6skaPBp+B5QNkrhMAZr4/BLZKyQL6LVcAbJ5vB
sX2rQJQhlr8OMqXB9E+aQFS4C8Dmr53BbmC9QLxoaECMwrDBorW1QHMslz+oZarBW5ysQFSGSkCK
AJbBaTSBQL4XTUCUlprBwnCwQK/sKkAkoqfBIsS2QF0sWEBJUYrB7OqjQAHTiMBcRZTB/XvIQJAG
OkCpmp3BKbGDQFFEPUC+1qTBOv43QF6hXUBm6pTBtMXWQPtmx0DdVMfBFfMBQeu0xEDQ8bbBkmeb
QMklk0CDtsnBMX/qQAfcbb9hd7vBW4kHQJTdOsAgMY7BcSzLQKzxJ8BgSK/B2AA9QOE3k7/qoJrB
EefzQGYRkEBvlajBsAmLQMMWPUCvYbvBn/HeQH2Svj9WGrjBbSGPQDnnAj9GCZ3BJBxjQAdnnMBc
OIrB6pbRQD8cXsAlz57B4HnZQIA3UkDKDonByzesQA47jEAE44fBZP6lQJrKJ0AHfoXBNDFWQCKX
PUDQ9KnBBBz/PwEiXkD2r5jBbr86QNoOaUA9DY3Blm3OQBbAsUAc98DBJ4fnQEvqsEDLmrfBUJSt
QIhpk0BeZMLB3DbbQOi+Fr9GuLTBUq2gQDDzh8ACWpTBqeTHQAxYyL/LOa7BZzuyQMxNVcBqoZvB
1ivfQNN7kkAWiq/Buy2lQOjHaUCKWrrBF4vTQMojRz+v17LB+P2jQEAjQD6kHaTBhvFuQOpzgMCN
KpDBJBdiQPplAcBj8ZnBMGisQIwol79XzqXBaDmaQDZiDMBJep7BDF+9QP4KaUCLwbDBj0K3QKI1
lz+bm6rBzwqtQJaXSECFDJbBxYyBQC7DSEAomprBRh2xQMZjKkB9tqfB7zq3QNpIV0DgYorBY9hA
QJQQO8CCAJPBVQnJQCKxOUCgrJ3BtzOEQPTzOkBC5aTBqyg4QOBXVUAn4ZTBu1zUQHKcyUB1CcfB
pJ8AQT6mx0A7mrbB+NCaQLqHk0DVpcnB/gvwQFmlY79lLrvBG4yyQFD3o8Bd+pHBUhjOQAgqJ8Co
rq/B/p3RQJbdX8CX/57BmJnyQED4kUAmZajBIxeMQJEpO0BWhLvBk07jQMrYwj/itLfBkYWOQHel
9z7rxZ3B0+5TQLEPl8A+korBG+c8QHFck79/EpzBEgzaQNKnU0BxLInBU6+rQDR2i0DL+IfBMF+n
QBX8JUBmg4XBVEpXQB2PO0A6BqrBkmX/Py9FVEDppJjBXo46QAR+X0CG/IzBdEbOQHs1skDs2MDB
oVCtQPz8k0D0Q8LBlKfnQA4OsUDkiLfBjbPaQLGNFr9A1rTB8YagQIIviMADeZTB3onHQIYzyL/o
Tq7B5gmyQL62VcDWv5vBvxOlQEiTakAwQ7rBYHPfQMVwkkBogK/B9DLTQNlyRz/67rLB0UykQAA0
Qj6dEqTBLxlvQP52gMAdLZDBOnpiQAfoAMCe2pnBb2msQB3xlr800aXBzjeaQExNDMCLfZ7Bk4O9
QH5HaUBjtLDBSF63QPhslz+wmqrBqtusQAqyR0B4AJbBp3qBQNpfSED/nZrBIkexQJdzKkBwr6fB
y6u2QJQAVUAFS4rB5VBBQNKgOsBp6ZLBWAfJQEV8OUA/nJ3BtVKEQDDYOkAc6aTBUtc3QBYyVUCd
8ZTBdxXUQJk5ykBl48bBiliaQFFWlEC1fMnBfbwAQYGvx0B3i7bB0EjvQMihY7+XWLvB/EKyQKRm
pMA8L5LBmZbNQLwbJ8AUy6/BE0LRQM2aYMA4Mp/BHuyLQPIXPEDia7vBLxnzQG6rkUByZajB1Lzi
QGzwwj/q2LfBaTWPQCwm+T5fp53B4S9UQFwVl8CMk4rBMos9QCeqkb+h55vBu3DZQLYHUUB6A4nB
cCKrQN02ikBPyofBA5SmQIQ/I0CzioXBmLZXQDSJO0DuEKrBpxn/P3uLVEDbv5jBFe45QAsZX0Bh
C43B6ezUQDP1p0D1bsHBExvYQEexdkAGv8LB0TvGQCYOuUBnrrfBGu2ZQJjHcL8+vLHBBdobQfrF
XsDHDKXBdFjBQNZVyb9qyK/BzsYHQRV8OcDv7qbBwI7MQNR7P0BeVbrBt6e6QJ+VnUDOPK/B+vuT
QB8yzz4j2a7BZVPdQK/m/T5cKKjBCFIuQXoIK8BAWaXB7OYZQRj4Q78bOKnBhnnjQIVUW78QCKvB
U6IGQWjLwb8AEKnBbJu9QGE3YUDecrDBbl+1QLMlkD+Iz6nB9GmsQPDoU0Af7ZXBba2AQLfIT0AM
UZrB4cqvQJYqJ0B/JKfBv423QDDSbkBOqYrBtSUtQYQXrL8bZ6fB5wjIQD9gPUCIVZ3BE++CQFc0
OUCMXqTBA+I2QI1sYkBDv5TBAcHdQCQUvUAA6MfBwW7jQDaJXEC+OcrBvNfDQChM20A6rbbBICuA
QCCwvr/4dbXBzyMdQTM0kcCGY6PBt5rFQEgYJ8Cn67HBl9ryQNb3X8CiwabBNBDPQHoh9j/AY7vB
L26vQD7oqkCIxqfBp6JrQIMDZD9lerDBG2f3QInrhj/SqaTBPMM9QXfTR8D+56PBWTUZQZ/elj6M
1KrBv3naQKKxbED+lonBnwmsQDIxmEB/QInBlkCoQG3+QkBM74TBDTBUQJ/fNEAyYqnBSXD8PzwX
X0BdcZjBoNk5QH0yc0AhCY3BmaGLQNU5bkBgx47BlNO2QGfQcEBM+JHB0z5YQAFJUECd6ZXBj6Hk
QOmceL+YMLbB77uhQIM7h8Do6ZPBzRLSQOCR679qqq7BHNS1QHlNWcAJcZvBi5jCQPGKVUBNSpzB
G1VvQGQSNkBoTKDB96HZQFicyD7iQrbBhd2oQMBZgjyOVqfB3B1wQKNXesCxZ5DBna9rQPi/AMDc
YJvBL8qzQPBJrb+CNqfBTK6fQHvfEMCdS5/BcAqjQL9nOUDYo6PBlVW8QE+HaD8Vqa7B3JqcQAQY
XkBk9b3B+UPJQLPTdEAicrvBrkewQOJ9GUA1zK7BrNCDQOlXf0DZdMfBDdhFQH/FNMB+H5TBRfeN
QINtKEDou7bBjWjUQJJ6TUD6qbLBhj7jQHo/lUAnb8HBB6mCQK6agUCg24bBs/XOQAHhg0CVfYzB
NyMWQLJsTUBMapPBXWf7QBAErb+F7rvBFwmyQJQdo8D21pDBdfraQDSROMCPk67B67vVQLmXZ8Cr
PZ7Btd7jQFAOVkDQn57BkMU+QCdQH0DLv6XBR53nQPxohj/lJrzBtU2RQP70xj6/w6HBrEJRQMmt
kcBCnorB/TlJQMHpkr96Q57BoOBGQNa3Y0D1a8fB3puBQKDAokDh/MbBi1eUQM8MbUDQ4c7BbAHx
QCLyUUAjHq/BNqsAQVXhmkBXG7/B/eLXQPz3okCTFMjB

>  <OMEGA_E>  (1) 
EEKNPpiwjj7kGJY+cM+WPvz6fT8Y1oM/

>  <OMEGA_NBR>  (1) 
     76876

$$$$
50220806
     RDKit          3D

 41 44  0  0  1  0  0  0  0  0999 V2000
    6.8389   -0.5572  -22.6048 C   0  0  0  0  0  0  0  0  0  0  0  0
    6.2929   -1.5242  -21.7437 C   0  0  0  0  0  0  0  0  0  0  0  0
    6.5656    0.8091  -22.4056 C   0  0  0  0  0  0  0  0  0  0  0  0
    5.1791    0.2382  -20.4841 C   0  0  0  0  0  0  0  0  0  0  0  0
    3.5753   -2.0167  -19.2624 C   0  0  0  0  0  0  0  0  0  0  0  0
    5.6494   -3.2784  -19.3862 C   0  0  0  0  0  0  0  0  0  0  0  0
    3.9003   -4.1026  -18.0598 C   0  0  0  0  0  0  0  0  0  0  0  0
    5.4591   -1.1314  -20.6766 C   0  0  0  0  0  0  0  0  0  0  0  0
    4.8868   -2.1478  -19.7649 C   0  0  0  0  0  0  0  0  0  0  0  0
    5.7261    1.2304  -21.3468 C   0  0  0  0  0  0  0  0  0  0  0  0
    3.0757   -3.0147  -18.4108 C   0  0  0  0  0  0  0  0  0  0  0  0
    6.6772    4.3169  -22.1598 C   0  0  0  0  0  0  0  0  0  0  0  0
    5.5889    3.9638  -23.0932 C   0  0  0  0  0  0  0  0  0  0  0  0
    4.8237    2.9789  -18.5881 C   0  0  0  0  0  0  0  0  0  0  0  0
    4.1743    4.2094  -19.2413 C   0  0  0  0  0  0  0  0  0  0  0  0
    4.3192    2.9135  -20.0431 C   0  0  0  0  0  0  0  0  0  0  0  0
    5.3525    2.7275  -21.2094 C   0  0  1  0  0  0  0  0  0  0  0  0
    7.7584    5.3385  -22.4556 C   0  0  0  0  0  0  0  0  0  0  0  0
    5.1590   -4.2192  -18.5451 N   0  0  0  0  0  0  0  0  0  0  0  0
    6.5607    3.5905  -21.0635 N   0  0  0  0  0  0  0  0  0  0  0  0
    4.7423    3.1831  -22.4687 N   0  0  0  0  0  0  0  0  0  0  0  0
    5.4764    4.3873  -24.4130 N   0  0  0  0  0  0  0  0  0  0  0  0
    1.4447   -2.9145  -17.7987 Cl  0  0  0  0  0  0  0  0  0  0  0  0
    7.4719   -0.8642  -23.4243 H   0  0  0  0  0  0  0  0  0  0  0  0
    6.5122   -2.5702  -21.8996 H   0  0  0  0  0  0  0  0  0  0  0  0
    7.0008    1.5434  -23.0672 H   0  0  0  0  0  0  0  0  0  0  0  0
    4.5387    0.5393  -19.6683 H   0  0  0  0  0  0  0  0  0  0  0  0
    2.9670   -1.1647  -19.5278 H   0  0  0  0  0  0  0  0  0  0  0  0
    6.6490   -3.3937  -19.7785 H   0  0  0  0  0  0  0  0  0  0  0  0
    3.5201   -4.8594  -17.3896 H   0  0  0  0  0  0  0  0  0  0  0  0
    5.9036    2.9718  -18.3786 H   0  0  0  0  0  0  0  0  0  0  0  0
    4.2928    2.4310  -17.7957 H   0  0  0  0  0  0  0  0  0  0  0  0
    3.1789    4.5440  -18.9136 H   0  0  0  0  0  0  0  0  0  0  0  0
    4.7897    5.0847  -19.4965 H   0  0  0  0  0  0  0  0  0  0  0  0
    3.3847    2.3489  -20.1774 H   0  0  0  0  0  0  0  0  0  0  0  0
    8.4542    5.3934  -21.6053 H   0  0  0  0  0  0  0  0  0  0  0  0
    8.3080    5.0390  -23.3602 H   0  0  0  0  0  0  0  0  0  0  0  0
    7.2973    6.3242  -22.6161 H   0  0  0  0  0  0  0  0  0  0  0  0
    3.8296    2.9367  -22.7948 H   0  0  0  0  0  0  0  0  0  0  0  0
    4.6978    4.0936  -24.9677 H   0  0  0  0  0  0  0  0  0  0  0  0
    6.1740    4.9854  -24.8075 H   0  0  0  0  0  0  0  0  0  0  0  0
  1  2  2  0
  1  3  1  0
  2  8  1  0
  3 10  2  0
  4  8  2  0
  4 10  1  0
  5  9  2  0
  5 11  1  0
  6  9  1  0
  6 19  2  0
  7 11  2  0
  7 19  1  0
  8  9  1  0
 10 17  1  0
 11 23  1  0
 12 13  1  0
 12 18  1  0
 12 20  2  0
 13 21  2  0
 13 22  1  0
 14 15  1  0
 14 16  1  0
 15 16  1  0
 17 16  1  1
 17 20  1  0
 17 21  1  0
  1 24  1  0
  2 25  1  0
  3 26  1  0
  4 27  1  0
  5 28  1  0
  6 29  1  0
  7 30  1  0
 14 31  1  0
 14 32  1  0
 15 33  1  0
 15 34  1  0
 16 35  1  0
 18 36  1  0
 18 37  1  0
 18 38  1  0
 21 39  1  0
 22 40  1  0
 22 41  1  0
M  CHG  1  21   1
M  END
>  <OMEGA_C>  (2) 
NtjaQL+mDr+41rTBLF/JQBAaw78p863BGhnSQAwgTz+bPrPBM7ulQLL2cz6H36PBgNFkQEYSAcBm
GZrB6se0QHzRUcDdFpvBJp95QN1Ig8CBepDBSLGuQGzRkL+daaXB02CcQEl2CcB7Hp7B9ju3QJh9
nT8oxqrBnNdEQOHwQMBDSZPB+avVQEwkikA2R7HBWNiyQGiufUDdvrjBHlyaQJelPkB8tJTBiJOF
QJyzhkA07pnB8jaKQAJ2OkAsWKDBW0erQDePLkDNrKnBAEX4QLfUqkD/pLPBLRalQN8Dh8BWXJTB
3/DRQNnKZUAXgqjB6sCXQIS3S0D7v7PBSD6vQGZkjEDqTcPBi+y4Px2HOsDTY47B6hnvQIM6Xb/r
ZLvB4WPQQNt9JMBVMq/BgwbgQJaMxT+6ibjBxzyRQEENCj+jWJ3BS+M9QLYVlb8BOZzBosTUQFIy
WcBSOp7BGUphQMx/m8DPHYvBEeq8QEExPkBHB5PB1F6JQJ+VG0CJXY7BrHNLQEFokUAET5fBFEWZ
QBK2okDC+JvBVJ9YQMlUFkBUa6HBb0QHQXuWrEDA16zBeu0EQdg/oUCo4brBooPpQJ1fykC/7bTB
uxh1QAnzO0DaW7bBYlSWQAP/gkDYvcfBJ5HFQGCIn0CqdcbBIx/cQAgaEr/gV7TB4cLJQL5sxb+s
rq3BMIzSQIarSj/d5rLBM+SiQPIxVT7xRKTBNpJlQOjIAcDDjZnBq0i0QKJ/VMA9SJvBLHl7QLME
hMB/I5DBpW6tQCo+lL8jeKXBF+2bQIwyC8C3B57BpbG0QMaymj//CqvBcBJHQINMQcDhmJLBfCyA
QPCiS0B4bZrBxLmsQKNAS0BfjJbBUzHfQNvHg0BXyLXB6Hu3QFvqbUC7drzBaAq0QFRHeED9S7DB
Uz+sQATQLEBAKqjBW1szQCWmXkB/k5PBNTmlQBhUiMDkdJTBeNd+QLomN0B7n6TBeSjGQBjfPkBp
sZ7BSmS5QMy/VUARAIzBx3DBPwkVOcC6II3BDMrxQP35Xr+JobrBOVfRQEmAJcA72a7BUijiQP7j
wz/i2bfB28WMQPEyAD+QDp7Bb7Y+QJtTlb88cpvB2rfTQPaUXMBJup7BUyBkQM8vnMAasorBbI35
QN7HWUBwqLTByj3sQFdjpEDfXrbBR0SoQJJwjkCAzcHB6pO1QFTiLUARF8DBGemjQPLimUCa363B
jMXxP9PLWEAcbJjBer0wQN7nMEAb5YzBljg4QHgRkEB/Z5DBlh/mQBZXQUD9e57BkXfYQFUkVEAB
GorB3XOjQIftXkBiSobB

>  <OMEGA_E>  (2) 
9iV/P5Atcz8=

>  <OMEGA_NBR>  (2) 
     13071

$$$$
50220799
     RDKit          3D

 46 49  0  0  1  0  0  0  0  0999 V2000
    4.4873    4.4723  -25.6780 C   0  0  0  0  0  0  0  0  0  0  0  0
    4.1922    3.2650  -25.0191 C   0  0  0  0  0  0  0  0  0  0  0  0
    5.3206    5.4253  -25.0623 C   0  0  0  0  0  0  0  0  0  0  0  0
    6.7671   -0.5809  -22.6392 C   0  0  0  0  0  0  0  0  0  0  0  0
    6.1664   -1.5638  -21.8360 C   0  0  0  0  0  0  0  0  0  0  0  0
    6.5962    0.7809  -22.3370 C   0  0  0  0  0  0  0  0  0  0  0  0
    4.7175    3.0140  -23.7397 C   0  0  0  0  0  0  0  0  0  0  0  0
    5.8735    5.1624  -23.7957 C   0  0  0  0  0  0  0  0  0  0  0  0
    5.1616    0.1789  -20.4594 C   0  0  0  0  0  0  0  0  0  0  0  0
    5.5387   -3.4099  -19.5768 C   0  0  0  0  0  0  0  0  0  0  0  0
    3.6113   -2.0216  -19.1269 C   0  0  0  0  0  0  0  0  0  0  0  0
    3.9082   -4.0704  -18.0418 C   0  0  0  0  0  0  0  0  0  0  0  0
    5.3688   -1.1900  -20.7320 C   0  0  0  0  0  0  0  0  0  0  0  0
    4.8235   -2.2192  -19.8219 C   0  0  0  0  0  0  0  0  0  0  0  0
    5.7790    1.1781  -21.2485 C   0  0  0  0  0  0  0  0  0  0  0  0
    5.5708    3.9613  -23.1188 C   0  0  0  0  0  0  0  0  0  0  0  0
    5.3352    3.2184  -18.6813 C   0  0  0  0  0  0  0  0  0  0  0  0
    4.0234    3.2664  -19.3530 C   0  0  0  0  0  0  0  0  0  0  0  0
    5.6099    2.6540  -20.8419 C   0  0  2  0  0  0  0  0  0  0  0  0
    5.5794    3.5352  -17.2294 C   0  0  0  0  0  0  0  0  0  0  0  0
    6.2645    3.7078  -21.7848 C   0  0  0  0  0  0  0  0  0  0  0  0
    5.0745   -4.3126  -18.6889 N   0  0  0  0  0  0  0  0  0  0  0  0
    3.1704   -2.9522  -18.2536 N   0  0  0  0  0  0  0  0  0  0  0  0
    6.2540    2.8280  -19.5322 N   0  0  0  0  0  0  0  0  0  0  0  0
    4.1936    2.9807  -20.6167 N   0  0  0  0  0  0  0  0  0  0  0  0
    2.8141    3.5427  -18.7345 N   0  0  0  0  0  0  0  0  0  0  0  0
    4.0745    4.6681  -26.6566 H   0  0  0  0  0  0  0  0  0  0  0  0
    3.5612    2.5301  -25.4968 H   0  0  0  0  0  0  0  0  0  0  0  0
    5.5355    6.3581  -25.5623 H   0  0  0  0  0  0  0  0  0  0  0  0
    7.3623   -0.8725  -23.4919 H   0  0  0  0  0  0  0  0  0  0  0  0
    6.3147   -2.6092  -22.0632 H   0  0  0  0  0  0  0  0  0  0  0  0
    7.0907    1.5298  -22.9377 H   0  0  0  0  0  0  0  0  0  0  0  0
    4.4702    2.0959  -23.2275 H   0  0  0  0  0  0  0  0  0  0  0  0
    6.5339    5.8843  -23.3383 H   0  0  0  0  0  0  0  0  0  0  0  0
    4.5234    0.4679  -19.6374 H   0  0  0  0  0  0  0  0  0  0  0  0
    6.4627   -3.5997  -20.1028 H   0  0  0  0  0  0  0  0  0  0  0  0
    3.0348   -1.1237  -19.2941 H   0  0  0  0  0  0  0  0  0  0  0  0
    3.5517   -4.7981  -17.3279 H   0  0  0  0  0  0  0  0  0  0  0  0
    6.6442    3.3884  -16.9956 H   0  0  0  0  0  0  0  0  0  0  0  0
    5.3012    4.5806  -17.0305 H   0  0  0  0  0  0  0  0  0  0  0  0
    4.9708    2.8680  -16.6013 H   0  0  0  0  0  0  0  0  0  0  0  0
    7.2888    3.3701  -22.0012 H   0  0  0  0  0  0  0  0  0  0  0  0
    6.3007    4.6636  -21.2415 H   0  0  0  0  0  0  0  0  0  0  0  0
    3.4785    2.9836  -21.3157 H   0  0  0  0  0  0  0  0  0  0  0  0
    1.9671    3.5338  -19.2660 H   0  0  0  0  0  0  0  0  0  0  0  0
    2.7886    3.7510  -17.7567 H   0  0  0  0  0  0  0  0  0  0  0  0
  1  2  2  0
  1  3  1  0
  2  7  1  0
  3  8  2  0
  4  5  2  0
  4  6  1  0
  5 13  1  0
  6 15  2  0
  7 16  2  0
  8 16  1  0
  9 13  2  0
  9 15  1  0
 10 14  2  0
 10 22  1  0
 11 14  1  0
 11 23  2  0
 12 22  2  0
 12 23  1  0
 13 14  1  0
 15 19  1  0
 16 21  1  0
 17 18  1  0
 17 20  1  0
 17 24  2  0
 18 25  2  0
 18 26  1  0
 19 21  1  6
 19 24  1  0
 19 25  1  0
  1 27  1  0
  2 28  1  0
  3 29  1  0
  4 30  1  0
  5 31  1  0
  6 32  1  0
  7 33  1  0
  8 34  1  0
  9 35  1  0
 10 36  1  0
 11 37  1  0
 12 38  1  0
 20 39  1  0
 20 40  1  0
 20 41  1  0
 21 42  1  0
 21 43  1  0
 25 44  1  0
 26 45  1  0
 26 46  1  0
M  CHG  1  25   1
M  END
>  <OMEGA_C>  (3) 
V5iPQNgcj0CabM3BjyaGQEX2UEAZJ8jBlEKqQLqbrUCqf8jBKYzYQBi3FL8XHbXBwFLFQOwryL8M
sK7BPBTTQCjoRz8UsrLBtPWWQNjlQEDw6r3B5PO7QLkypUCfXb7BKCylQGY4Nz7IrKPBZj2xQKc7
WsBHnZzB3h9nQIVhAcD3A5nBYSB6QIxAgsCbVZDBls2rQCpTmL8z26XBZ1qaQIMHDsAxk57BZe24
QIjMlj8F/anBA0SyQKWGfUA687jBLbqqQIf6TUBIc5XBGsCAQFYNUUDz0prBboSzQAXbKUAcvKbB
L4qyQPo/YkDe1YnBBHfIQMlMbUBDR67BE2KiQGwAisDagpXBCOdKQBHxPMBTB5LBaiDIQCn9NEDy
QZzBnzGGQIDDPkAP76TBOBo0QE28YkA24JXBamKCQNlglUC/QNXBT+tjQG3tIUBj+cvBhCKxQMx1
y0Cqf8zBNpjrQDFaX79v77vBaBLKQLL8JsCGgbDBEOfiQKbRwz+DgLfBIQyPQPAjBkDj0bnBehXR
QGBMvEDYtLrBt7+QQCeL7z53GZ3Bn87OQBJhZsB50qDB5DpCQArWj783WprBvk9jQDqKmcB2n4rB
6ZzUQMLaWED49ofBPKOpQKqUkkCPPojBuBCfQKWMN0CPz4TBsD3pQCavV0B6ArDBYp/JQD48lUCg
7qnB/55eQLvzPkCjhqrBSMr7P4MqYkDLIJrBKHkyQOsPcEDIDY7BMYeXQM3am0AlIczBGJ+2QKxO
tUBUB8fBjSuJQJ+ua0A9RcfBHEPWQHA0FL9MZrXB6PbDQOo0yL9q067B0fLQQHF9SD/88bLBZqLH
QAp8qEAVHL3BxZmZQIamUkClRr3BvLCkQOxgNT4BoKPBjQCzQGmPVsC885vBVGNjQFp/BcCAuJnB
Imd6QEZ8gsCOWpDBahGrQE98mL9Z5aXB9iOaQB9GDsDHl57BwVO4QBvulj8m9qnBm+u4QFK7gkD6
FrjBXUiqQJ5vSkBNEZXBvByBQEU2UUC5wJrB3tK0QBDBKUDFa6bBI/iwQPsGXEAWV4nBIVjNQHBP
bEA7eK3B9k+kQKQ1iMC31JTBWHtHQBtCQcBnvJLBURnIQAXAMEATuJvBFs2HQMfKQkCA6qTBPOkz
QAupYkD/A5bBFq+KQG2DpUBOx9PBc2XBQBqh0kBmucrBTv1iQDqCRECiOcvBWHvoQOFjXr+kXbzB
2PbIQBj9JsBmnLDBKrzfQDZGxD8H8bfBIxXgQHWcu0CuT7nBYlKOQGCLGECzirnBoZqQQK9y7T6F
+pzB2erRQD6lX8CzpJ/Bqas7QJ3Rnb9mk5vBIrFjQO/YmcCZp4rBoZ7SQG8CUEBiPYfBqPmoQPmX
j0DqnYfBxy+cQAy+MUCTmITBhhXtQHZfUUDDPa/BugvRQCaCk0Cms6jBLtljQIrsR0AYuKrB9Mb9
P8EVZUBMfJrBBXMwQAnSbEABIY7BoMLjQPm380CLmaPBeeL+QJo730C+/6rBjGO9QKwE4EBPcqDB
muTOQIjtGb/UarbBzGHAQLQ8yr/FOa/BsX/KQMDwQj9277PBjsT0QNsNtkDJzq7BJi+yQNgXuEDM
uqTBe4upQKaILT6M5qLBfwevQMfAYMBLf53BOQlzQO1I+r8oLJfB0oV7QJH9g8A9U5DBwRatQIiu
mb+GdaXBkIKcQMaADsCK/Z3BRGG4QAEklT+xBqrBbuvOQKFyoUBhaavBxuGpQHhaT0AHipXBOKh/
QIhiT0D6+5rBiE6zQFAsKUDZ1abBxDKxQF00akBWFIrBrsvFQMZzaEAhcK/B5HufQAkFjsASrZbB
nFVVQEAOOsBseZDBl/HHQMzxN0BaUZzBV4mFQDuxOUBAAqXBq90yQGo3aUBfcJbB/XXsQJ1FCUHH
WqDBPMENQXsl70D0wa3BMpeoQK6P70CLvprBg3vdQKfDZb/u4b3BzvnDQKIXKMD0KbHB//jUQJMJ
wT9DmrnBMwMFQcwtpkA2WLTBLkaTQCR0qkAv6aLBFUmbQEiF7D7cYpvBu8nJQD9acMAJm6LB7SVV
QGpRe7/aUZfBwTFjQEYNnMB764rBD5jTQHg6Z0ARP4jBvaWlQOoJlkBn8IjBPqyfQCXgPkDls4TB
FYWuQGoLbUC3A7bBC/DjQO5nTUC6ebLBg/tcQHAaNUCNh6rBee77PwB4bEBd7JrBpGwwQJSUeEDM
rY7BNYG1QO2K90BGxqbBHcOVQCxU4kB6yKzB37PaQAd/4UD3jaPBS/nPQBX1HL9tKbbBz3fAQMxS
zL9rJa/B7QfMQIwAPz98i7PBGkabQO0Yt0Aqna/BZkXgQNBAtkAlYabBwqaoQEIjEz6o06LBFyCv
QOPPYsCRmJ3BrqFyQHBWAMDmJpfBuk18QF3BhcDTbZDBV6GsQHbknL/Sa6XBCkOcQNjNEMDXA57B
Nku4QMYrkj/wz6nBG6vAQL4SoUAoeazBxrmpQCNNUkCMj5XBL/p/QNV1VEBFGpvBAg+zQGGWJ0Bw
sKbBptCwQG5ua0CbBorBcRzGQDnBZEDNU6/BU+CfQAZcj8CN0ZbB4pFVQJXYPcB2fpDBLIrHQFBp
N0AdMZzBvWKFQPYDOkCb86TBshczQErrbUB7jJbBZVGxQHNhDEEDoqTBRHhyQDI/80AxNq/B9ujy
QNTH8UBM7J7BTfneQBVCZ79Zl73Bv7TDQJsDKcC2L7HBRhnYQEWZvz9R+bjB9emCQPbFpkC0L7TB
o6/8QIVKpUB846PBMniZQBXc3D4EapvBp+nJQC+zccBkuqLB3ElUQGZ5hL8QO5fBhWtkQIUPnsCh
D4vBhNrSQB/QY0AI/4fBM1mnQEtOl0By4IjBE2WdQEAtQkCezYTBGNy1QGSXWEDc+7bBH3noQIwS
V0C9LLDBr3NcQD1oM0D2aKrBTbn6P5sEbUDH5JrBOmoxQHGVgEAK7I7B/BrXQMh68kDWiKTBj1Ku
QNxw5kDgU6jBTPb4QCSz1EAYhaTBQdnJQN4AJL+C/LbBsqW+QF9hz7/gdK/BvCjFQMMdOD+cfrTB
tVmnQOGfvEDcJ6zBKxbyQL75qkB8WqjBy8CqQPn4AD4iwaLBhA2TQF3PYsDa5qDBQM2jQISPAsDt
WZLB/QyKQOVBhsD3Go/BB6uuQDZln7/uTqXBZNWhQMz4EcDBeJ3BPSe2QHeUjz/5QarB2F/JQLT2
nkASP6zBiACsQA8hUkB37pXB7PaAQOykUkD5z5rBBGmxQOaHJkDcJafBUNu1QNuybECVk4rB2YjC
QNJXY0DBGrDBkVyHQPlSj8DQsJnB+vuXQD79P8DwWovBgzvIQOLJNkCx85zBqz6EQGZsOUDqxaTB
YOw2QM/BaUDMnJXBL2PcQEFNCUF5oqHBz2qUQAVR/UDIS6jBng4MQYTo3UAokqHBCxvWQJkdb79Z
t77BTD/CQBCdKsDLa7HBRAbNQPzHuz/saLrBZBaIQLZPs0BgAq/BGfsFQdgQlEC6UqjBDumeQCZD
1T4/+prBfReRQLXWcMAEWanBsM+uQBe0ir8Nbo/BH7OAQHSJnsAda4nBEVvYQNWuZUCnEInBEHys
QBH0l0CWZ4nBbOWjQBfdQ0AY/YTBDzqrQE5jZECasrbBNzvhQDwXSkDCCLPBfOtXQNHjM0DG76nB
JT7+P1v3Z0ADhpnBRq84QE0zfEB99I3B9nTMQGp090COR6rBaZLlQOa34kD7ErLB6tOqQHJg4UDJ
R6XBdHDkQByVIL/ud7LB4LTLQAMAzr8iU63B2TXcQLaWPD/gqbDBXWveQMxCt0CJf7TBAS6iQILm
tkAHKajBJXqiQK2hDD7dfKTBvt+JQNxQYcBP5aTBbgyAQCc+/r+UJ5bBIbpEQMkbhMByyZXBoPeq
QDSQnb/XI6bBRpGRQAAeEMBqXKDB0tS5QKGzkT9w+qnBZ0i9QB6OoEAZU6/BONWtQBvvWkA17ZbB
xneBQGKETEDPnprBb7WvQAPsJ0Dw2afBFqq5QGShgEDQPYzBA3O2QFiDYkDG97HBWsZkQA35jcCA
kJ/BbKZRQBpPO8BXCJHB6fvIQOVJRUC7hp7BMbiCQPLWMEDBfaTByjo5QKQUYEDM75TBdRHTQH8l
DEE6J6jBX2T+QGkw9ECuNLbBQrWXQNYM8UBAPp/BtNz9QI7Ya7/t07fBcbzRQNXuKcDV3a7BEzTw
QLr4vT+bZLTBpVLyQFFKp0AkU7rBgXeGQM/7pkAh36TBlbOJQJI42z537p7BLtaWQP6pcMD6q6zB
TUeFQE09g787b5LBBVQfQBnlm8CQnJHBaZ/cQLQ8hECjvovB52iqQGUtoEBMaIvBaZKuQOjiVkDO
yIXBp/uZQPgBXUAoGbfB/bHSQJdES0CJV7bByGhSQBPNI0A9CanBE8D/P6RVWUCHYpjBIHQ9QM/t
dEA7ZI3BkOSfQDgWuUBJ4r7BcxeHQD1uk0CGhr7BufLHQOSNukBqtbnB1C0CQdCaXjvz7ZDBKTjq
QEAakr/0eZDBsGz2QK4Ykz8idZbBnGGWQIJcXkALBbnBnUTXQFtZlkDDMLTBhEe0QLjFGLtdOZvB
kKO3QBdVacBFS5TBAiJyQCU8D8BA2JXBm6hlQK/skcDrnJTBgOnBQGNvk7+6opXBChWmQPh9FsDL
PpXByc7NQIfplD/8d5vBpqa+QPXaYECZ37PBrBqsQGFKikCDRpnBSLGEQBdLZkCzNpzBKVy+QMtc
GUCulaHBzHatQIMEtUDmqZPBmgbOQPFcFECHX63BOtSdQP1Kl8C8ApTBk2VAQEvQVcBagZXB67jN
QBiMaEAxXJzB/lqPQPWcH0ABHaHBkIg2QLrfgEBUNZrBzzKUQHXU1EBRIMPBTrtQQGhekkDReMLB
L+XaQCZw10BR+bnB4JcRQa1bHTs+Bo3BM/j0QMX/AMBSLIzB5GMFQQlOAUDd4JbBt02DQALGJEDf
urjBm+L1QD+Tl0DNMbDByvOVQK7qX7zHXZ/BdufZQDNjccA1ypPBGPVUQCyzob8nlJbBtiY9QEDp
rcAfX5TBy/TOQEHlvkCJjZLByKKcQBAJzUDYh5jBp8edQE5HskC50IvBOJrBQDWxsj+oB7HB1zfx
QNEOE0Ahda3BWbh1QOMb6T9rE6TBO84EQM08XkBNlpzBxYIsQGSHnEAgYpbBaVvZQPEq70BLBaHB
/H+7QAfl4kBu5ajBzuf1QGrD0ECbtpzBAKi1QGr6Fr8xjrfBlIytQMtOz78TMrDBg/q3QMw4Pj8S
ErTBuUa6QGo/uED0fazBBsj0QIsWpkCkUKDBNpKpQE6erzzWyqHBAD6tQB5nbcAoHp/Blw6FQNH/
CcDROZTBxa6MQHqZjMCANo/BEAynQD7zqL9aQ6XBDrWdQHqaGcAWf53BYzGzQBwEiD/pEqnBZRvX
QNPSmUDKQqjBg3CiQJMTSEASVJTBRg1+QPtIXUCRr5vBtga1QLUnIUDFI6XBH1eiQPWfWEA5bIjB
TcvUQJmXV0A8/KvBY5WkQNrdlcAT95fBLMR5QPXoScD1QI3BbAjCQI4zJUBcvJnBPqOJQHJNRUBJ
XqXB2ecxQNg4gkD1v5jBL1/aQJb2B0GJR57Bc5alQBEz+kCpKqzBzlEGQfs22kBdppbB4x26QCnD
Ur/A6r/BZEasQMJCKcB35bLBkHS9QI0ZxD9Bz7nB3EejQH/ErkCWfbLB3EoFQYPFjkAtAZ3BKBak
QM0Pgz6CeJnBnCrAQFa8e8AyH6bBb2BxQGw3lb+NtZLB8/GFQDbdpcAwkInBIdTAQMz6QkCM9ITB
2VieQFnIjkAj8obBHsOHQIRkNUD3sYTBICXKQMqMVkA1X7TB9OD0QOcEO0DtZavBdV1uQMa4SkBe
3qvBi0UFQKhbiEAzRp7B+aYnQAUzikDxG5HB

>  <OMEGA_E>  (3) 
aKDePqDeyD70+SU/JBYvPyTnYT+An1c/Po+HP0LYdT8=

>  <OMEGA_NBR>  (3) 
     24328

$$$$
50220801
     RDKit          3D

 59 62  0  0  1  0  0  0  0  0999 V2000
    6.0261   -5.1601  -17.9484 C   0  0  0  0  0  0  0  0  0  0  0  0
    6.7803   -5.9656  -17.4464 C   0  0  0  0  0  0  0  0  0  0  0  0
    6.9044   -0.5407  -22.6207 C   0  0  0  0  0  0  0  0  0  0  0  0
    6.3216   -1.5573  -21.8435 C   0  0  0  0  0  0  0  0  0  0  0  0
    6.6017    0.8071  -22.3564 C   0  0  0  0  0  0  0  0  0  0  0  0
    5.6763   -3.3031  -19.4847 C   0  0  0  0  0  0  0  0  0  0  0  0
    5.0965    0.1188  -20.5715 C   0  0  0  0  0  0  0  0  0  0  0  0
    5.1190    3.5587  -23.2074 C   0  0  0  0  0  0  0  0  0  0  0  0
    6.9045    4.4497  -21.8007 C   0  0  0  0  0  0  0  0  0  0  0  0
    3.8656   -3.9841  -18.0141 C   0  0  0  0  0  0  0  0  0  0  0  0
    3.5689   -2.0979  -19.3664 C   0  0  0  0  0  0  0  0  0  0  0  0
    5.1735   -4.1698  -18.5089 C   0  0  0  0  0  0  0  0  0  0  0  0
    5.4163   -1.2230  -20.8120 C   0  0  0  0  0  0  0  0  0  0  0  0
    4.8686   -2.2399  -19.9114 C   0  0  0  0  0  0  0  0  0  0  0  0
    5.6740    1.1431  -21.3360 C   0  0  0  0  0  0  0  0  0  0  0  0
    5.8148    3.5702  -21.9811 C   0  0  0  0  0  0  0  0  0  0  0  0
    5.5100    4.4096  -24.2534 C   0  0  0  0  0  0  0  0  0  0  0  0
    7.2911    5.3180  -22.8319 C   0  0  0  0  0  0  0  0  0  0  0  0
    6.5766    5.3206  -24.0529 C   0  0  0  0  0  0  0  0  0  0  0  0
    3.9541    3.1622  -19.2960 C   0  0  0  0  0  0  0  0  0  0  0  0
    5.3160    3.1690  -18.7287 C   0  0  0  0  0  0  0  0  0  0  0  0
    5.4208    2.5791  -20.9025 C   0  0  1  0  0  0  0  0  0  0  0  0
    7.6979   -6.9121  -16.8259 C   0  0  0  0  0  0  0  0  0  0  0  0
    4.7303    4.3826  -25.5545 C   0  0  0  0  0  0  0  0  0  0  0  0
    8.4393    6.2810  -22.5949 C   0  0  0  0  0  0  0  0  0  0  0  0
    2.7058    3.5275  -18.5370 C   0  0  0  0  0  0  0  0  0  0  0  0
    6.1618    7.4386  -25.0002 C   0  0  0  0  0  0  0  0  0  0  0  0
    3.0879   -2.9656  -18.4483 N   0  0  0  0  0  0  0  0  0  0  0  0
    4.0019    2.8037  -20.5588 N   0  0  0  0  0  0  0  0  0  0  0  0
    6.1537    2.7856  -19.6514 N   0  0  0  0  0  0  0  0  0  0  0  0
    5.6593    3.5224  -17.4335 N   0  0  0  0  0  0  0  0  0  0  0  0
    6.9212    6.2124  -25.0415 O   0  0  0  0  0  0  0  0  0  0  0  0
    7.5843   -0.7948  -23.4204 H   0  0  0  0  0  0  0  0  0  0  0  0
    6.5658   -2.5918  -22.0348 H   0  0  0  0  0  0  0  0  0  0  0  0
    7.0764    1.5885  -22.9313 H   0  0  0  0  0  0  0  0  0  0  0  0
    6.6627   -3.4495  -19.8993 H   0  0  0  0  0  0  0  0  0  0  0  0
    4.3967    0.3681  -19.7876 H   0  0  0  0  0  0  0  0  0  0  0  0
    4.2805    2.8916  -23.3428 H   0  0  0  0  0  0  0  0  0  0  0  0
    7.4427    4.4538  -20.8644 H   0  0  0  0  0  0  0  0  0  0  0  0
    3.4775   -4.6683  -17.2741 H   0  0  0  0  0  0  0  0  0  0  0  0
    2.9474   -1.2769  -19.6921 H   0  0  0  0  0  0  0  0  0  0  0  0
    7.5486   -7.9097  -17.2647 H   0  0  0  0  0  0  0  0  0  0  0  0
    8.7339   -6.5863  -17.0003 H   0  0  0  0  0  0  0  0  0  0  0  0
    7.5041   -6.9549  -15.7439 H   0  0  0  0  0  0  0  0  0  0  0  0
    3.8930    5.0936  -25.4956 H   0  0  0  0  0  0  0  0  0  0  0  0
    5.3935    4.6654  -26.3853 H   0  0  0  0  0  0  0  0  0  0  0  0
    4.3390    3.3690  -25.7264 H   0  0  0  0  0  0  0  0  0  0  0  0
    9.3836    5.8101  -22.9060 H   0  0  0  0  0  0  0  0  0  0  0  0
    8.2761    7.1973  -23.1812 H   0  0  0  0  0  0  0  0  0  0  0  0
    8.4907    6.5341  -21.5257 H   0  0  0  0  0  0  0  0  0  0  0  0
    1.8343    3.4482  -19.2035 H   0  0  0  0  0  0  0  0  0  0  0  0
    2.5801    2.8415  -17.6863 H   0  0  0  0  0  0  0  0  0  0  0  0
    2.7910    4.5596  -18.1662 H   0  0  0  0  0  0  0  0  0  0  0  0
    6.4891    8.1008  -25.8153 H   0  0  0  0  0  0  0  0  0  0  0  0
    5.0921    7.2115  -25.1196 H   0  0  0  0  0  0  0  0  0  0  0  0
    6.3249    7.9384  -24.0340 H   0  0  0  0  0  0  0  0  0  0  0  0
    7.1369    2.6540  -19.5253 H   0  0  0  0  0  0  0  0  0  0  0  0
    6.6162    3.4943  -17.1444 H   0  0  0  0  0  0  0  0  0  0  0  0
    4.9501    3.8056  -16.7878 H   0  0  0  0  0  0  0  0  0  0  0  0
  1  2  3  0
  1 12  1  0
  2 23  1  0
  3  4  2  0
  3  5  1  0
  4 13  1  0
  5 15  2  0
  6 12  2  0
  6 14  1  0
  7 13  2  0
  7 15  1  0
  8 16  2  0
  8 17  1  0
  9 16  1  0
  9 18  2  0
 10 12  1  0
 10 28  2  0
 11 14  2  0
 11 28  1  0
 13 14  1  0
 22 15  1  6
 16 22  1  0
 17 19  2  0
 17 24  1  0
 18 19  1  0
 18 25  1  0
 19 32  1  0
 20 21  1  0
 20 26  1  0
 20 29  2  0
 21 30  2  0
 21 31  1  0
 22 29  1  0
 22 30  1  0
 27 32  1  0
  3 33  1  0
  4 34  1  0
  5 35  1  0
  6 36  1  0
  7 37  1  0
  8 38  1  0
  9 39  1  0
 10 40  1  0
 11 41  1  0
 23 42  1  0
 23 43  1  0
 23 44  1  0
 24 45  1  0
 24 46  1  0
 24 47  1  0
 25 48  1  0
 25 49  1  0
 25 50  1  0
 26 51  1  0
 26 52  1  0
 26 53  1  0
 27 54  1  0
 27 55  1  0
 27 56  1  0
 30 57  1  0
 31 58  1  0
 31 59  1  0
M  CHG  1  30   1
M  END
>  <OMEGA_C>  (4) 
z9XAQG0fpcBClo/BEvjYQE7mvsBKkovBjvDcQB5sCr8a97TB0ErKQDJWx79uv67B/UDTQJifTj/S
2bLB5KO1QIJmU8Cr4JvB7hajQKlh8z1XkqTBtc6jQK3BY0DIqLnByvHcQA5kjkDMZ67BsGZ3QGf7
fsDTHJDBSmhkQANEBsBX7prBYY2lQP9uhcAyEpTBj1KtQNyMnL8Cf6bB6MubQAFaD8CjSp/BJZG1
QLpQkj8UsKrBCBO6QDl+ZEA32a/BJlKwQFQbjUADB8LB+VDpQLUsqkClp7bBNXPSQCxCqkBebMDB
ag99QDViSkAiXprB3RyqQKvQSkB51JXBe3etQAkQJUBVOKfBFlX2QEEw3cBqm4bBQF6XQJA+jECw
b8zBcgcHQZX9yEBzwrTBiCstQNbBYUCzS5TBLy3FQCcJ7kBvAMjBZqBFQNfLPcAGlpPBSA+AQDJv
M0B0eKTB/OrEQBNIMkAcNp3B1Bi1QGBvYUC/d4vBanrdQNLLxkDrVMjBL7LyQDV4S7/7XLvB1BrS
QEzgJcBLR7DBl3HiQLRTyz9Ec7fBvTTVQDPFXMDVMZ/BrbGMQP96vD76TJ7B7/mIQNIPOUAUvrrB
ySruQMeFjkAx6qbBno5eQBNjlcBtMYrBS6I8QOpwo79+iZ3Bb47xQIgc/cANHorBPb4LQd7C0sCE
AIjByCHwQGaO3sAj53vBiSZ5QOv+okAG98vBi5esQFxLlUAKFdPBJNmKQG2eV0DFz83BDyMWQb/s
uUB6P7fB02oEQRxQ5kAdc7nBFtoHQfsW0UCgNKzB08vqPxKwXEDZoJnB2SAlQF7aNUCPfY3BHaAy
QPnnkUBWVJHBT6bPQOucAUHBhc7Bj/KiQIjE5kDl9MjBamXKQL0H/kChRcDBwGHkQKrbKUDbM5zB
wrfTQBKiX0DHJ4nBAGeeQDyPc0CETYbBVQy9QLllq8DXX5HBkaTSQIQEysBv3Y7B4DDdQLqgDL8G
vrTBLoDKQPdWx784dK7BkrXTQA4ITT8Os7LBzQe1QH0NVcDY8ZvBK+GjQCqUBj5hR6TBE8LdQO9e
jkBFiK7BzI+kQIpqY0DpvLnBLTB1QHcfgcBXcZDBHgtlQNo6BcA5kZrBcx+kQHaLh8AmkJTBPtat
QDNTm7/8J6bBFQKcQPC1DsDp+57Be0W2QHrokj98g6rB3Ne6QNtzZEDE7q/Be+jpQE9JqkCtx7bB
2+GwQIz7jEDVHMLB0s/SQCdfqkAzhsDBi5l8QOxlSkC4hZrB+6apQMarS0CL3ZXBa/2tQIK4JUA7
PKfBe47sQIb97sAG9ovBfhQHQYilyUAO0LTBoq+XQGEsjEDAe8zBf/MrQOPvX0AcgJTBdNHEQMPJ
7kCNnMfB8iVFQFBoPsB/fZPBFGeAQH6xM0B7oKTB7fXEQH5RNEAKMZ3B+OezQNm5YUDMcIvBlOrc
QLqAx0CkX8jBJ9XyQD7dT793JLvBEgvSQMEIJsCZ9q/BwN3iQDC/yT8TX7fBYanUQP8zXsB3O5/B
QMyNQMGTxz5H9p3BCzLvQPtmjkCdEqfBtNqJQDNmOEAk0LrB429bQEGzl8B9v4rBe14+QH0rnr8N
6JzBHO31QA6b7MDef4PBR+TZQLY1BsFUM43B7bUEQVDf78Ak/pDBT1EWQQkeu0CCTbfBR0MEQcL+
5kBydrnBOssHQcmQ0UDoPqzBbKN5QN/QokCa88vBH7esQPhllUAjJ9PBhkGLQOtrV0Bw3s3BbRXp
PzHFWUC335nBkYwkQEK+M0CTto3BDdovQO4EkUAWg5HBd3TOQJBDAkGLGc7B/XKiQC2250CMTsjB
3izLQDER/kA+2L/BTH3kQCN8LUCNH5zBVWbSQDBzYEAtBYnBR9CcQL7rckAqVobB

>  <OMEGA_E>  (4) 
BHczP3a7Mz8=

>  <OMEGA_NBR>  (4) 
     39539

$$$$
50220826
     RDKit          3D

 44 47  0  0  1  0  0  0  0  0999 V2000
    6.7491   -0.6273  -22.5879 C   0  0  0  0  0  0  0  0  0  0  0  0
    3.0734   -3.0087  -18.2555 C   0  0  0  0  0  0  0  0  0  0  0  0
    6.1803   -1.5881  -21.7349 C   0  0  0  0  0  0  0  0  0  0  0  0
    3.5476   -2.0254  -19.1380 C   0  0  0  0  0  0  0  0  0  0  0  0
    6.5302    0.7430  -22.3600 C   0  0  0  0  0  0  0  0  0  0  0  0
    7.0080    4.5200  -21.9641 C   0  0  0  0  0  0  0  0  0  0  0  0
    5.1496    3.6403  -23.2826 C   0  0  0  0  0  0  0  0  0  0  0  0
    7.2437    5.4950  -22.9550 C   0  0  0  0  0  0  0  0  0  0  0  0
    5.3889    4.6148  -24.2723 C   0  0  0  0  0  0  0  0  0  0  0  0
    5.1235    0.1885  -20.4459 C   0  0  0  0  0  0  0  0  0  0  0  0
    3.8849   -4.1240  -17.9625 C   0  0  0  0  0  0  0  0  0  0  0  0
    5.5745   -3.3454  -19.3889 C   0  0  0  0  0  0  0  0  0  0  0  0
    5.3704   -1.1854  -20.6518 C   0  0  0  0  0  0  0  0  0  0  0  0
    4.8213   -2.1928  -19.7194 C   0  0  0  0  0  0  0  0  0  0  0  0
    5.9254    3.6118  -22.0960 C   0  0  0  0  0  0  0  0  0  0  0  0
    5.6993    1.1668  -21.2953 C   0  0  0  0  0  0  0  0  0  0  0  0
    6.4072    5.5709  -24.0869 C   0  0  0  0  0  0  0  0  0  0  0  0
    5.4012    3.1819  -18.7558 C   0  0  0  0  0  0  0  0  0  0  0  0
    4.0459    3.2064  -19.3315 C   0  0  0  0  0  0  0  0  0  0  0  0
    5.5281    2.6540  -20.9528 C   0  0  1  0  0  0  0  0  0  0  0  0
    5.7165    3.4386  -17.3018 C   0  0  0  0  0  0  0  0  0  0  0  0
    5.1075   -4.2763  -18.5246 N   0  0  0  0  0  0  0  0  0  0  0  0
    6.2746    2.9046  -19.6987 N   0  0  0  0  0  0  0  0  0  0  0  0
    4.1270    2.9358  -20.6077 N   0  0  0  0  0  0  0  0  0  0  0  0
    2.8811    3.4773  -18.6305 N   0  0  0  0  0  0  0  0  0  0  0  0
    6.5523    6.5864  -24.9702 F   0  0  0  0  0  0  0  0  0  0  0  0
    7.3576   -0.9428  -23.4226 H   0  0  0  0  0  0  0  0  0  0  0  0
    2.0965   -2.9118  -17.8053 H   0  0  0  0  0  0  0  0  0  0  0  0
    6.3635   -2.6381  -21.9089 H   0  0  0  0  0  0  0  0  0  0  0  0
    2.9481   -1.1569  -19.3673 H   0  0  0  0  0  0  0  0  0  0  0  0
    6.9984    1.4757  -23.0006 H   0  0  0  0  0  0  0  0  0  0  0  0
    7.6542    4.4641  -21.1006 H   0  0  0  0  0  0  0  0  0  0  0  0
    4.3685    2.9089  -23.4293 H   0  0  0  0  0  0  0  0  0  0  0  0
    8.0672    6.1852  -22.8465 H   0  0  0  0  0  0  0  0  0  0  0  0
    4.7921    4.6287  -25.1723 H   0  0  0  0  0  0  0  0  0  0  0  0
    4.4873    0.4991  -19.6303 H   0  0  0  0  0  0  0  0  0  0  0  0
    3.5232   -4.8736  -17.2743 H   0  0  0  0  0  0  0  0  0  0  0  0
    6.5467   -3.4852  -19.8380 H   0  0  0  0  0  0  0  0  0  0  0  0
    6.8019    3.3589  -17.1418 H   0  0  0  0  0  0  0  0  0  0  0  0
    5.3786    4.4485  -17.0263 H   0  0  0  0  0  0  0  0  0  0  0  0
    5.1985    2.6956  -16.6777 H   0  0  0  0  0  0  0  0  0  0  0  0
    3.3586    2.9226  -21.2474 H   0  0  0  0  0  0  0  0  0  0  0  0
    2.0006    3.4762  -19.1044 H   0  0  0  0  0  0  0  0  0  0  0  0
    2.9214    3.6738  -17.6508 H   0  0  0  0  0  0  0  0  0  0  0  0
  1  3  2  0
  1  5  1  0
  2  4  2  0
  2 11  1  0
  3 13  1  0
  4 14  1  0
  5 16  2  0
  6  8  2  0
  6 15  1  0
  7  9  1  0
  7 15  2  0
  8 17  1  0
  9 17  2  0
 10 13  2  0
 10 16  1  0
 11 22  2  0
 12 14  2  0
 12 22  1  0
 13 14  1  0
 20 15  1  6
 16 20  1  0
 17 26  1  0
 18 19  1  0
 18 21  1  0
 18 23  2  0
 19 24  2  0
 19 25  1  0
 20 23  1  0
 20 24  1  0
  1 27  1  0
  2 28  1  0
  3 29  1  0
  4 30  1  0
  5 31  1  0
  6 32  1  0
  7 33  1  0
  8 34  1  0
  9 35  1  0
 10 36  1  0
 11 37  1  0
 12 38  1  0
 21 39  1  0
 21 40  1  0
 21 41  1  0
 24 42  1  0
 25 43  1  0
 25 44  1  0
M  CHG  1  24   1
M  END
>  <OMEGA_C>  (5) 
//jXQK6YIL/ys7TBZ7JEQO2NQMBEC5LB3sTFQLZFy78t4a3BfQxjQKqgAcCGGpnBUffQQNg3Pj9G
4bLBKUHgQBWkkEBntq/BO8mkQMr6aEDYQrrBJsznQNXWr0Dxo7fB83GsQImsk0CWLcLBVvOjQC8I
QT5FkaPBcaF4QHz3g8A8s4/BJ2KyQGUaVsBgHJvB69mrQBe8l7/nNqXBeEiaQIpXDMBZwZ3BO529
QHUoZ0CuxLDBS2C2QAZblT/VXKrBfAfNQDVFskAOssDB+9asQHWjS0DaC5bBCXiBQP40TUDgpprB
g+awQKDaKUBZn6fB6O22QGQSXEAaaorB7HCjQNvXiMBXMpTBR8nIQLPkOUACl53BxxCEQEfkO0CD
3KTBFmQ4QNuLXkAqC5XBKKzRQB3E0kD3wsfBFHHrQGhZcb9tYbvBiSwGQLpbOsBRcY7BnaHLQMHW
KMBfRa/Bbq48QC0UlL8/8JrB2vLfQE/lvD8mAbjBUe/0QEfajkD2zajBCcuLQC4sOkArb7vBOxMB
QUvtxUC4xbbB5FiZQGoelEDRYMnBv5ePQCaF/z7jCp3BhHthQK70m8DXMYrBQH7RQOsMX8A0tJ7B
WanZQIH4VkB0IonBnx2sQEFajkDPNYjBJlqmQNeELEDWa4XBsfJWQCAMO0Cu+qnBPgkAQKt6XkDX
1ZjB9Pc6QDAfa0DJNI3BuGXXQJMTIr+Cv7TBVaNEQJ0ZQcD4CZLBzYDFQOOqy7/T2a3BlihjQBjb
AcBUC5nBxHLQQNH0PD9G8rLBVuikQNyTaUAPRbrBG1vgQMu/kEBDr6/B1mesQO9MlEBkHsLB7c3n
QMoysECijrfB2yKkQBf0QT6gfaPBK5R4QF9BhMC+tY/BC4GyQA4kVsCZCZvBZOurQOrAl7+LIqXB
Q2aaQONZDMDIqp3BaMG9QGBQZ0Cpx7DBs0i2QHw3lT8/XKrBYO3MQAntskD/lcDBtNisQGpDS0Cl
DpbBfX+BQBxYTUBorZrB+e2wQIjrKUAFpafBINy2QBcQWkDpYorBdn+jQGL/iMBDK5TBLs7IQKC1
OUDHmp3BkBqEQJo4PEBd5KTB4WM4QN1LXkDVD5XBDFbRQIHJ00CXjsfBWpbqQAqDc7/Pd7vBmfsF
QLYeO8DKd47Bw1nLQGYQKcCqOa/BkdI8QAFolL/T25rBRSffQA75uz84JLjB+AaMQCydOkBhfrvB
yBT1QFrKjkC5yajBtTqZQCX4lEABTsnBJhYBQZtAxkB0qrbBZBeQQNShAD/B6ZzBtkthQHtdnMAa
P4rBo6zRQITjXsD5mp7BiYnZQPnuU0CTFYnBdmusQCBZjUCHEojBeOilQNFYKkBEf4XBqxFXQBGo
O0BmBKrBDQcAQMIRXkAF2pjBfe86QHnAakClOI3BfazbQM8tGb9TrLTBLY6gQCvGh8CqPJTBqjrI
QKxzyb/5MK7B1TCyQNNeVcBQjpvB0PnTQDq8RD/hz7LBE1qlQHDDaEBIUrrBXinfQE5SkkCBgK/B
i2isQAIDlEAQKcLBrx/mQJjusUAtW7fBhSikQCKVOD5eIqTB0JtuQHwqgMB9F5DBBeFhQPB/AcC4
AZrBno6sQJcUmL/Xz6XBvjSaQFSnDMCtfJ7BqrK9QDgVaEB0wLDBFZS3QMkOlj81mqrBeuPLQGue
s0CShMDBjRWtQGQpSEDnDJbBkbCBQKHPSEBnp5rBnXGxQNizKUC4tKfBBvu2QOHtVUApW4rBloNA
QGm6OsCCBJPBeDXJQC8bOUDHpJ3BlHuEQPpxOkCW7qTB51c4QNAbVkC8+ZTBG/zPQH1S1EAii8fB
X53wQP9JZr80HLvB32ayQIK4o8BBzZHBEXrOQDW7J8A9oK/Bb57RQJwaYMDa457BuMzjQOSYwT/g
qrfB+TONQDZpOEA3nbvBEWPzQAglkUCSgKjBG7KZQBkHlECgbMnBE5//QJXpyEDbWbbBsZOOQO1e
9D5x0Z3BSYdTQLSWlsCadIrB5ac8QFoFlL/QN5zBibzZQMV4UUAyFInBFLSrQIbVikBu54fBFLSm
QGivJECtj4XBp/pXQO3IOkCDFKrBhfn/Pw0qVUDfw5jBvJE6QFClYEDwFo3BjwTbQO4wG7+UvbTB
a9SgQLbKh8A9OZTBaoDHQJYayr8oQK7BF0myQGYjVcBgiJvBm6nTQAX3Qj8U2LLB7rHfQL3nkUAU
hK/BWDulQAeZaUCcQbrBRUfmQMMGskDRQrfBO+GrQM71lEDV+sHBGAykQMrjNz4HG6TBKBZvQJpt
gMAGE5DBkLBhQCLjAcBr85nBDTKsQCZEmL+Lz6XBxRaaQDasDMBBc57BzvG9QB/gZ0CGv7DB9H+3
QHShlT/NmKrBYGPLQP1+tEDGSsDB7xatQKkZSEAPDpbBNbuBQBACSUCgr5rBKpOxQJ6EKUBttafB
nfa2QKO/VUDTWorBhqZAQLBnO8Cm+ZLBSkLJQKjgOEAiop3B452EQGWEOkBK9aTBjEQ4QPWcVkBj
DZXBD9HOQF/r1UAVIMfBKsDvQCP/aL8fNrvBbtWyQNWmo8B4zJHBQGrNQFEfKMDJua/BlL3RQDl5
X8Dk3p7BYpLjQMB1wD+Ms7fBR2z0QIwZkED/najBtR+NQDg8OUATl7vB7fr/QDfKyEDARbbBFNaY
QEFwlUBUMMnBX6iOQGZf9T64wZ3BUjhUQBz7lsBbdIrBqz08QDH1lL9YIpzBnbTZQLkIUUCYEYnB
kMqrQHTHikDB5ofBs5OmQCeaJEBKkYXBYFdYQH7sOkDGHqrBrwsAQKzOVUCT35jBnD46QMs7YUDG
Ko3B2P+ZQOvsb7/XyrHBMucbQQ2XXsDCJKXBVnLBQIPQyL8T3K/BXdMHQfRPOcCUBafBuACUQH8I
0D4x3a7Bj4bMQNp3P0DBS7rBzY66QCyRnUBDM6/Bk/3XQFugdkCatcLBeAnGQB0JuUABprfBkVfd
QONu/j6FKqjBwl0uQVnRKsCGbqXBm+8ZQUH9Qr9GRanBfYrjQAiaWr8fFavBfawGQbRjwb/2IKnB
IpG9QJ40YUBParDBZV61QDczkD8wzqnB4q/UQE7pp0C3Z8HBJGKsQGTTU0A/6JXBHaaAQI7DT0Bb
TZrBEcWvQAgjJ0DXHqfBAIW3QAqqbkDco4rBgC8tQe+bq7+Od6fB0wLIQIVNPUAiUJ3BhemCQHUm
OUBlWqTBrdc2QFOCYkB+vJTBCYffQElIwkA9isnBlkOAQC0rvr/EiLXBlTIdQeQekcCRfqPBqcDF
QJi/JsBqCLLBHPbyQMzTX8CN26bB0KFrQIlVZD9VerDB9xjPQAMb9j9XWLvBSV6vQPDfqkC3u6fB
L1rjQH16XECYL8rB6JvDQAFH20AAprbBEmT3QPXwhj9apqTBtM89QbSbR8AO/6PB6jsZQQ0WmT4J
3KrBlHDaQLR9bEAOkYnBZAWsQOQdmEDfOYnBLzOoQD3TQkD/6oTBuidUQNPINEBaXqnBbF38Pw48
X0AGb5jBftA5QOFMc0CGBo3B

>  <OMEGA_E>  (5) 
sFx+Pojwfz6cmYc+HLyHPmaQeD8=

>  <OMEGA_NBR>  (5) 
     43711

$$$$
50220827
     RDKit          3D

 37 39  0  0  1  0  0  0  0  0999 V2000
    6.9074   -0.5898  -22.6632 C   0  0  0  0  0  0  0  0  0  0  0  0
    5.0890   -4.2530  -18.6124 C   0  0  0  0  0  0  0  0  0  0  0  0
    6.3577   -1.5499  -21.7998 C   0  0  0  0  0  0  0  0  0  0  0  0
    5.6631   -3.3235  -19.4921 C   0  0  0  0  0  0  0  0  0  0  0  0
    6.6244    0.7729  -22.4739 C   0  0  0  0  0  0  0  0  0  0  0  0
    5.2217    0.2200  -20.5573 C   0  0  0  0  0  0  0  0  0  0  0  0
    3.7925   -4.0193  -18.1115 C   0  0  0  0  0  0  0  0  0  0  0  0
    3.6306   -2.0030  -19.2993 C   0  0  0  0  0  0  0  0  0  0  0  0
    5.5121   -1.1525  -20.7407 C   0  0  0  0  0  0  0  0  0  0  0  0
    4.9298   -2.1694  -19.8378 C   0  0  0  0  0  0  0  0  0  0  0  0
    5.7796    1.1980  -21.4201 C   0  0  0  0  0  0  0  0  0  0  0  0
    5.2922    3.8898  -23.2472 C   0  0  0  0  0  0  0  0  0  0  0  0
    6.4971    4.2877  -22.4882 C   0  0  0  0  0  0  0  0  0  0  0  0
    5.3865    2.6838  -21.3363 C   0  0  2  0  0  0  0  0  0  0  0  0
    4.9069    4.4272  -24.6085 C   0  0  0  0  0  0  0  0  0  0  0  0
    4.5796    3.0435  -20.0605 C   0  0  0  0  0  0  0  0  0  0  0  0
    3.0867   -2.9174  -18.4615 N   0  0  0  0  0  0  0  0  0  0  0  0
    4.6084    3.0073  -22.5506 N   0  0  0  0  0  0  0  0  0  0  0  0
    6.5747    3.5471  -21.4107 N   0  0  0  0  0  0  0  0  0  0  0  0
    7.3894    5.2883  -22.8533 N   0  0  0  0  0  0  0  0  0  0  0  0
    7.5492   -0.8993  -23.4748 H   0  0  0  0  0  0  0  0  0  0  0  0
    5.6348   -5.1385  -18.3218 H   0  0  0  0  0  0  0  0  0  0  0  0
    6.5820   -2.5962  -21.9457 H   0  0  0  0  0  0  0  0  0  0  0  0
    6.6502   -3.4888  -19.8979 H   0  0  0  0  0  0  0  0  0  0  0  0
    7.0562    1.5051  -23.1400 H   0  0  0  0  0  0  0  0  0  0  0  0
    4.5692    0.5259  -19.7528 H   0  0  0  0  0  0  0  0  0  0  0  0
    3.3518   -4.7349  -17.4333 H   0  0  0  0  0  0  0  0  0  0  0  0
    3.0595   -1.1252  -19.5633 H   0  0  0  0  0  0  0  0  0  0  0  0
    3.9618    3.9660  -24.9314 H   0  0  0  0  0  0  0  0  0  0  0  0
    4.7808    5.5184  -24.5496 H   0  0  0  0  0  0  0  0  0  0  0  0
    5.6981    4.1882  -25.3343 H   0  0  0  0  0  0  0  0  0  0  0  0
    4.3357    4.1161  -20.0705 H   0  0  0  0  0  0  0  0  0  0  0  0
    3.6496    2.4564  -20.0374 H   0  0  0  0  0  0  0  0  0  0  0  0
    5.1812    2.8126  -19.1691 H   0  0  0  0  0  0  0  0  0  0  0  0
    7.3215    3.5657  -20.7459 H   0  0  0  0  0  0  0  0  0  0  0  0
    8.1752    5.4945  -22.2703 H   0  0  0  0  0  0  0  0  0  0  0  0
    7.2458    5.8021  -23.6991 H   0  0  0  0  0  0  0  0  0  0  0  0
  1  3  2  0
  1  5  1  0
  2  4  2  0
  2  7  1  0
  3  9  1  0
  4 10  1  0
  5 11  2  0
  6  9  2  0
  6 11  1  0
  7 17  2  0
  8 10  2  0
  8 17  1  0
  9 10  1  0
 11 14  1  0
 12 13  1  0
 12 15  1  0
 12 18  2  0
 13 19  2  0
 13 20  1  0
 14 16  1  1
 14 18  1  0
 14 19  1  0
  1 21  1  0
  2 22  1  0
  3 23  1  0
  4 24  1  0
  5 25  1  0
  6 26  1  0
  7 27  1  0
  8 28  1  0
 15 29  1  0
 15 30  1  0
 15 31  1  0
 16 32  1  0
 16 33  1  0
 16 34  1  0
 19 35  1  0
 20 36  1  0
 20 37  1  0
M  CHG  1  19   1
M  END
>  <OMEGA_C>  (6) 
MwndQGv/Fr9ATrXBR9miQE4YiMAm5pTB+3HLQI5ixr8GZq7B5je1QIm0VMC775vBzfrTQMraRT+J
yrPBMxinQOZEYT5IdaTBD7lyQMqdgMBy5JDBGFtoQG4xAMDvZJrB/mKwQPSEk78F7aXB8MCdQHjX
CsDMs57BavK4QAxZmT9XXKvBWVmpQE/yeEBH+rnB/OfPQB81iUDu57PB/V2sQA7EK0CusKrB8gSd
QI+rjUBO3sTB54uSQCLIQkD2e6DB3otFQJO2OsA2sZPBv3eTQBB3QECHZ7TBEmTSQPcDY0AWSavB
5HXsQIY5qUCg07bBWJPxQKI7Zr9OzLvBMFC0QGtupMAjk5LBu5/SQCQoJsDhkK/BJM7UQDlJX8Du
Lp/BuszhQJemwD/LHrnBKzeSQAihBj/QBZ7Bn4RWQJqEl8Bwd4vBJ85DQOYGkL+dgZzBzI59QELS
fUBxc8fBXPyYQGCWsECcZcTB4Va2QGgFhkC+rMrBXL6KQLO2g0BZkKDBw5NpQBg1HUCHTKDBxcyl
QOkBNEA/WpnBvUnqQJM0ZECR96XBvs0CQSPTr0CXKbLBQ93nQOSquUDHl73BKeLdQLe4G78YHbXB
YX5GQJwNOMBqHJPBrRzLQPowxL9eG67BDf5mQODg87+nI5rBeX7VQAxIQz+A9LPBb8amQMqblD79
xqTBXXR5QBFdf8C9bJDB4mq0QIcRT8AkbpvBuLKvQFrWi7+P2KXBwOecQMo9BcCsZJ7BYsm5QFTV
nT+I0qvBJ3mvQAG3eECEJ7vBQ0TVQDaOiEB4ubTBGFquQLHFLkDRmKvBMsqlQFqWjEDBTMbBftKS
QChGSUCE0aHB72ekQHnxhMBskZTBSbOXQEPGQkDoq7XBozjVQCLlY0DZ5avByXXzQBsvp0BgjrfB
v9TyQOqrc7+AabvBZAkHQHFFMcDhyo/BAKfRQL6PJcBTCK/BxkJBQC0Thb9yP5zBCF7kQEfyuz9W
VrnB612RQDo1IT/gj57ByJ9gQFFSl8CA8IrB9frTQDinWMBOvZ7Bt66HQAu2fECYJsnB7KqiQD+k
r0D0H8bB//y/QHmSg0BSusvB//2LQLchh0DbNqLBxB5pQHRSJUBm5qHBsWKkQKYDO0BBZ5rBDPPr
QL1CZUDVRKbBn/QFQaySrUARprLBvbvwQBXVtkBBgL7BrK2MQKQ2UEA01ZbB+AqeQCQKBMBI9qfB
tCmWQEAo9j96lJnBWRqWQNhOQr9fWKTBrCmZQNbgiUCdl53BUbO5QOjCLEBqxanBuIrEQGDNFcDi
Zq3BRL7aQMBo3b125KvBmKesQODE0T/SGqPBlMa0QEBEeD5eYKbBkCGwQDZkgUDPIKfBjY61QE4a
k0BWoMDBzAfjQJZYkkBIc73Bism6QFbfpED7Nq/BFRulQI4Qh0AAlMvBTBq3QGbT0kCuoKrB1RPi
QMwWsL91O6/B2BGeQPqkn0Cve7jBJBvmQDz6nkC1f7PBqGICQT5phkAMAcTBs3R3QD3bXUDDf4/B
7uWGQIIwNsDyl6bBhDmMQKH6jj/vZJTBWvtxQMO1Br/jE6DBgzCRQDVyqkCPf5vBOUXLQCT3HkA5
ArHBeKLKQF0fVsCsLLDBymjyQGdcJz/xeK3BbBGCQIhdikBiwcvBqmGzQHlVnEAgndHBLOStQPlw
S0CxWM3BRza/QNQr6kDc5LDBbCeWQKdw2EAQ3qfBEFPNQDR41kAu3aPBFbAAQZvMo0B5fa/BQV4R
QcUGh0CMM8HBiiT/QKpfekDBiMvB

>  <OMEGA_E>  (6) 
OteHP9ELiD/8Oqk/

>  <OMEGA_NBR>  (6) 
     46033

$$$$
50220825
     RDKit          3D

 49 52  0  0  1  0  0  0  0  0999 V2000
    6.4689    5.8078  -23.9230 C   0  0  0  0  0  0  0  0  0  0  0  0
    7.3140    5.6319  -22.8094 C   0  0  0  0  0  0  0  0  0  0  0  0
    5.4050    4.9115  -24.1448 C   0  0  0  0  0  0  0  0  0  0  0  0
    6.6820   -0.6109  -22.6721 C   0  0  0  0  0  0  0  0  0  0  0  0
    6.1394   -1.5694  -21.7951 C   0  0  0  0  0  0  0  0  0  0  0  0
    7.0733    4.5856  -21.8942 C   0  0  0  0  0  0  0  0  0  0  0  0
    5.1634    3.8628  -23.2341 C   0  0  0  0  0  0  0  0  0  0  0  0
    6.4819    0.7648  -22.4450 C   0  0  0  0  0  0  0  0  0  0  0  0
    5.1544    0.2148  -20.4735 C   0  0  0  0  0  0  0  0  0  0  0  0
    5.5210   -3.3696  -19.4719 C   0  0  0  0  0  0  0  0  0  0  0  0
    3.6054   -1.9570  -19.0546 C   0  0  0  0  0  0  0  0  0  0  0  0
    3.8547   -4.0110  -17.9644 C   0  0  0  0  0  0  0  0  0  0  0  0
    5.3719   -1.1633  -20.6829 C   0  0  0  0  0  0  0  0  0  0  0  0
    4.8263   -2.1687  -19.7331 C   0  0  0  0  0  0  0  0  0  0  0  0
    5.9746    3.7056  -22.0813 C   0  0  0  0  0  0  0  0  0  0  0  0
    5.7040    1.1961  -21.3483 C   0  0  0  0  0  0  0  0  0  0  0  0
    5.3914    2.9924  -18.7670 C   0  0  0  0  0  0  0  0  0  0  0  0
    4.0435    3.0692  -19.3728 C   0  0  0  0  0  0  0  0  0  0  0  0
    5.5581    2.6912  -20.9942 C   0  0  1  0  0  0  0  0  0  0  0  0
    7.2046    2.9019  -17.0156 C   0  0  0  0  0  0  0  0  0  0  0  0
    5.0217    4.0256  -16.4873 C   0  0  0  0  0  0  0  0  0  0  0  0
    5.6864    2.8853  -17.2789 C   0  0  0  0  0  0  0  0  0  0  0  0
    5.0298   -4.2665  -18.5900 N   0  0  0  0  0  0  0  0  0  0  0  0
    3.1358   -2.8833  -18.1896 N   0  0  0  0  0  0  0  0  0  0  0  0
    6.2839    2.8715  -19.7264 N   0  0  0  0  0  0  0  0  0  0  0  0
    4.1623    2.9813  -20.6678 N   0  0  0  0  0  0  0  0  0  0  0  0
    2.8331    3.1805  -18.7107 N   0  0  0  0  0  0  0  0  0  0  0  0
    6.6364    6.6281  -24.6052 H   0  0  0  0  0  0  0  0  0  0  0  0
    8.1485    6.3001  -22.6560 H   0  0  0  0  0  0  0  0  0  0  0  0
    4.7738    5.0279  -25.0134 H   0  0  0  0  0  0  0  0  0  0  0  0
    7.2573   -0.9336  -23.5273 H   0  0  0  0  0  0  0  0  0  0  0  0
    6.3113   -2.6204  -21.9745 H   0  0  0  0  0  0  0  0  0  0  0  0
    7.7286    4.4531  -21.0460 H   0  0  0  0  0  0  0  0  0  0  0  0
    4.3530    3.1725  -23.4160 H   0  0  0  0  0  0  0  0  0  0  0  0
    6.9243    1.4910  -23.1109 H   0  0  0  0  0  0  0  0  0  0  0  0
    4.5579    0.5331  -19.6313 H   0  0  0  0  0  0  0  0  0  0  0  0
    6.4516   -3.5724  -19.9810 H   0  0  0  0  0  0  0  0  0  0  0  0
    3.0445   -1.0505  -19.2279 H   0  0  0  0  0  0  0  0  0  0  0  0
    3.4757   -4.7347  -17.2580 H   0  0  0  0  0  0  0  0  0  0  0  0
    7.3907    2.8233  -15.9343 H   0  0  0  0  0  0  0  0  0  0  0  0
    7.6754    2.0519  -17.5312 H   0  0  0  0  0  0  0  0  0  0  0  0
    7.6319    3.8424  -17.3937 H   0  0  0  0  0  0  0  0  0  0  0  0
    5.2561    3.9157  -15.4182 H   0  0  0  0  0  0  0  0  0  0  0  0
    5.4018    4.9926  -16.8484 H   0  0  0  0  0  0  0  0  0  0  0  0
    3.9317    3.9837  -16.6297 H   0  0  0  0  0  0  0  0  0  0  0  0
    5.2836    1.9299  -16.9113 H   0  0  0  0  0  0  0  0  0  0  0  0
    3.4209    3.0937  -21.3295 H   0  0  0  0  0  0  0  0  0  0  0  0
    1.9787    3.1973  -19.2301 H   0  0  0  0  0  0  0  0  0  0  0  0
    2.8129    3.2441  -17.7129 H   0  0  0  0  0  0  0  0  0  0  0  0
  1  2  2  0
  1  3  1  0
  2  6  1  0
  3  7  2  0
  4  5  2  0
  4  8  1  0
  5 13  1  0
  6 15  2  0
  7 15  1  0
  8 16  2  0
  9 13  2  0
  9 16  1  0
 10 14  2  0
 10 23  1  0
 11 14  1  0
 11 24  2  0
 12 23  2  0
 12 24  1  0
 13 14  1  0
 19 15  1  6
 16 19  1  0
 17 18  1  0
 17 22  1  0
 17 25  2  0
 18 26  2  0
 18 27  1  0
 19 25  1  0
 19 26  1  0
 20 22  1  0
 21 22  1  0
  1 28  1  0
  2 29  1  0
  3 30  1  0
  4 31  1  0
  5 32  1  0
  6 33  1  0
  7 34  1  0
  8 35  1  0
  9 36  1  0
 10 37  1  0
 11 38  1  0
 12 39  1  0
 20 40  1  0
 20 41  1  0
 20 42  1  0
 21 43  1  0
 21 44  1  0
 21 45  1  0
 22 46  1  0
 26 47  1  0
 27 48  1  0
 27 49  1  0
M  CHG  1  26   1
M  END
>  <OMEGA_C>  (7) 
0wDPQG/ZuUBJYr/B+gvqQLY4tEClebbBnfWsQEwrnUCZKMHBRNPVQMhmHL95YLXBj3XEQNHhyL9e
XK7BTVjiQGu9kkA9J6/BzzqlQEQ4d0B237nB+GvPQPLMQz9lj7PBtPCkQDj1Wz69yaPB5KuwQPCn
V8CIxpvBuL5mQEV/+r/Kb5jBarN2QPdZgMANt4/BU+arQMrllL+rdqXBznCaQBfMCsBa3Z3B1y+/
QOoobUB/prDBWIe2QMEamT9QyarBh4asQMqDP0DcIpbB9WOBQLJtREB4+5rBIdyxQJw8LEAa9KfB
eYzmQJK4OUABIIjBabGgQG/RgED05YPBFPe1QDSoOEAhO4rBe/SgQGaHiMBLuJTBTLBIQAmIOMBJ
hJHB0RXJQKDGN0C3z53BNTGFQJbNPkDBV6XB/lA1QMKMS0B7r5XBVl3UQL8Z1EBe18TBNGACQUaa
yUB8P7XBo8KYQGvkoEBwG8jBITzoQJkDb7/VN7zBYPbJQNm0J8C+y6/B7lD3QOd/jkA7XqjBpUuL
QKMKS0D8U7vBipPdQEfavj8c47jBs9qRQPx5CD/cDJ3BynPOQEWiZMAk2Z/BRNlCQJx2hr/I0pnB
FXFeQL6Cl8BuEIrBs4DsQLSxNEAA837BwJz1QMRRA0D/P4zByjj0QDHpdUBSJovBTjKoQPeaekDs
sHbBNtusQCnDn0CPyYbBLKF7QFz1fkCKCYXBlBOpQHMI9z9DSofBG/BaQKH/RUDHoqrBbUb9P96f
TEA+15nBUgc0QMaeT0ALtI3BEm/PQCImuUAWfb/BrF+tQPl0nECcOMHBaILqQOets0BJlLbBBizU
QFpPH7+ie7XB/F/DQH6wyb+cWK7B7qelQPAcdkBy5LnBOMjiQARkkkC+M6/BxFvOQCguQT8nnbPB
onalQDiWXT4PjKPBmdNmQGvU/L+kWJjBJE2xQEJpV8DTmpvByoB2QPaPgcCb54/BFOurQFPrlL8J
SaXBLMWaQBDiCsD/q53BppO/QEyDbEBLp7DBSJq2QJeumD9XqarBbh6sQIy+QUCeJpbBkkmBQAaK
RkBvDZvBUhayQCgzLEDs5afBTNXiQN62KkAgnofBqMumQCMOikAx9oTBIL6zQGLkPkDQLorBmkxI
QN7pOsACn5HBEmahQHn4iMCXuZTB3A7JQCKfOECltp3BKEmFQBwbP0CrY6XBlLY1QD6eTkCOoJXB
v8nUQOxK00CD+sTBeCeZQNQMoECYK8jBtqECQT8JyUCsZLXBS67lQHMRc78DdbzBXXfIQDwyKMAQ
0K/BhsGLQKzOSUAqU7vBEcP3QDRJjkDUaajB7RjcQBgXvT/sCbnBNCqTQND0CT/Ir5zBF91CQDSi
iL+DppnBwnfPQFg6Y8CtjZ/BwH1dQMVemcBgeorBMVfnQFMWKUD1yH3Bh17rQBo92D96CIvBpXb3
QOqBXECbGIvBUJCsQDVfiEDqlHjBcOu5QJ4tpEB0aojB46GEQKsekECTcYbBmsWfQObYC0Blv4bB
AFFbQIRKRUCYuqrBURX9PxYOT0BqrpnBUmM1QLkDVEDgp43BEv3PQITnuEAtUb/BpmvrQIaLskBH
g7bBlAStQLE4nUBf8MDBJrjUQPfeHr8gn7XBCpvDQPZqyr8Qla7B5jrjQCBRkUA6Ja/BpNukQGG7
d0A6oLnBvu7OQO1LQT/UqrPB4LylQOweTT77r6PBL6dnQCS2+7+uZ5jBvtGwQNWzWMCX6pvBSZl3
QKfSgMBdxI/BL/irQOSilr/thaXBNKmaQCCqC8Cf7J3BLje/QGVBbEBagLDB6Aa3QDo1lz8QtarB
fsCrQDM9QkDFH5bBAQmBQGFUR0BdD5vBnvaxQJ3YKkB016fBkjbhQEfoKkDcTYfBsCqqQAgbkEC9
+IXBTDazQOWORUBaKorBbcNJQKI7OcADfZHBGj6hQLgOicAN2JTBgsHIQNGFN0CIoZ3B6uqEQDlc
O0BIVaXBT9M1QGfbVECXq5XBIMTVQPry0kBDz8TBFWYDQWYpx0AuZrXBDG6YQOiNoUAiy8fB43Dm
QLD3cL/XlLzB0ZfIQPB7KMC+H7DBl3n4QAqJjEC1b6jBEUWKQCrvTEAj/LrBEMjcQN/rvT/GBbnB
vnSTQB50BD/bzpzBsP5DQMEqh7/ut5nBCGzOQJHSZcD9D6DBYXZfQP8JmMBhH4rByo7lQJQCLkD7
KH3B7f7mQDwz0j+EE4rB6fr3QHKNVkCONovBqaWvQAsVkUCTkHrBiKa/QDoBp0Dz8onBFbmIQHSw
mEDrrofB1PScQNzuGEDQPobBkwRaQIYoPUBJparBsyb9P6ECVkCdtJnB5QQ2QM94XUA9vo3B3TXN
QLeVuEAH07/BPUXmQPrftUBmfbbB2qitQAtumUCc38HBXDvaQDRXHb/DcLTBSvnHQCgVyb9Rka3B
wwHfQN3FlEDgDa/BGU2mQBx0cEAgdLrBnwjSQHmyQT+j9LLBwrijQPwGVD632qPBHGOyQORAVcCq
8JrByzVjQLj5AcCSMZnBJ1J0QPTPgcD1EpDBebKsQGaMlb/cKqXBIryaQPR+C8D6tJ3Bb0i+QNLj
a0D82rDBKEq2QOi+lz+5uarBkRmuQP9WR0CHeJbBgBuCQEZ7SECX4prB9hOxQOqSK0CKEqjBlJqq
QM+kj0BktYXBRPqoQEJW+z9y8ITBD/m6QEQyTECB3IrBReuhQEneh8AYI5TB4rhDQD1oPsD5hpLB
mX3JQPDlOEDNMJ7Byn2EQFA2PkAFO6XBF5I4QOIoUEARKpXBryjSQKl/0kDKZ8XBCRj/QGUyzUCz
BrXBYw+bQE36mkAuJcnB8LXuQJxrb78L6brBY97OQJOiJ8DOua7Bc3HyQLDIkkBo7afBpTGOQP+3
QEChGrzBwgThQEzrvT9lIbjBRGyOQFSyBT/eiJ3Bkt/RQOLzXsAcSp7BnUQ9QNJhlL+2EpvBn51a
QLN/mcAzqorBUWS0QJKkkEDEhHrB+Da4QDRQq0DZ84nBSnuHQGu4kEBCOobBPDeyQGmpAEB06XjB
29+FQL6M+j/0loXB2vm1QIPehT+5iojBmhjeQAf0SkA1TYrBaQxYQM1aQkBMXKrBvFkAQGv2TUAu
+pjB/zw6QOTkV0DHOY3BM1LKQI/XsEAKNcHBSXepQEhFkkDMO8LB+BPlQA5zsEADIbjBSG/dQDrY
E7/qfrTBIXPKQBwMx7+W7q3BWLiiQCX6Z0BQEbrBwWHeQBg0kkB97a/Bi5nVQANYSj/uo7LB2iWn
QNJqSz4QvaPBOlqyQBteVcDIaZvBAFJmQGLh+b/7wpnBLnxyQA/ifcDvdpDBI0+vQCc2lb83d6XB
jg2cQA9kCsCpP57B64S8QHJgaEDivbDBPYm5QGJBmD+IWKrB8aSsQGbDRUCh75XBNHOBQENLRkD5
lprBzcmxQA1qKkAomKfB41XfQCYRK0DxqobBbBK1QCE9mkBn7ofBiNK0QLfYU0ChKIrBYa+gQKPg
hsCOiZTBxK9EQK78NsDD+5LBCTnJQJ3KO0BDkp3BW42EQMgrOEDn2KTB5sQ3QBaWU0D07ZTBKwTP
QLKVyEDzX8fBf3aVQLYOkkByR8nBfsn+QBJjx0AHdLfBxR3yQLKlYL8R/brBDKbQQIWJJsC1X6/B
QK6JQGrSOECC6rrBmxfzQJ3mkUDkAqnB5AnlQLObxD+ZjrfBUXCSQDSF/T6uPZ3BZ6HRQAm7YcBU
v57BvJZCQHD3h7+5w5vBdvtWQFDWlcAv+4rB1FrkQCxoNkDHJXzBLU7eQNGOyz9FNIjBh8n5QEvP
R0CAOovBtwC7QI/Xn0DqvX7BU3vOQP6HqUDqq4zBe+iVQCT4p0BtKIrBPbWaQDVvNkAgi4XBDzlY
QLXnNkA8AqrB6fn+PyDWUkC2vJjB1to5QKjsXUD0CY3BIknXQFbWp0C2RcHBnfuyQMuGjUCuX8LB
b3ruQIkKqEDTnLfB6D3JQHvxF7/+M7fB0H+8QOt0yr9Z5a/BOZulQFV1Z0C2x7nB/ODhQKZ2jUB/
Fq/B/I3GQNxlQz/EaLTBhoapQGOnGT6w+6LBRbGRQCDvYMA6J6HBSEWlQEnrAcCgsZLButqLQCbw
hcBuUI/B1imtQHDOm7/VqaXB/zGhQPR7EMAOzJ3B6D69QMTyZUDuGLDBi6q1QPfNkz8/U6rBnMer
QKi1U0BC2JXBnkmAQEpUUkBheprBZtyvQDVcKEDyI6fBYJjmQPoeYkAnCYjBMrupQDMvpkChg4jB
amO2QN/jbUB6aYrBqTCHQIiZjsBk4ZnBN6SaQGPDP8CBo4vB5F/HQNicOUDzGJ3BstOCQEGaOEBD
aqTBQ5s1QARFZ0BzI5XBa1zhQJDju0DY18fBq2mhQGsmjUAy0MnBmwAFQd6lvECvvrbBKyPVQBSp
YL+J/b7BXGq+QP/0J8DsGLLB1iWJQMO9QECTj7rBNyj0QGE8jUBhwafBwmrRQDUlwj+5+LnB8U2d
QLC+3D51OJvB9DaOQFhYbsCWlanBGfKwQJQIir+i1Y/BKW+DQJFjnsAZlYnBU0ztQKR7dUBGfH/B
xl3vQM5/HkCgH4nBymv5QO7/hECXjY3BHYmxQCxEr0AxPYDBHHy7QPnQukAZGI7BRSqHQNwTqkCt
3InBFgekQNJqRUBL3YTBzQhUQCYmMUCTYanBILH6P3A3Y0AP65jBNdQ3QKhqekCLgo3BiKzPQP4Z
pkCajsLBQ6nwQMUSkkBmxLzBK+ekQOSJoUAnPL/B8MHiQL9cGb/aAbPBxr3KQHl+yr/MwK3BmuHm
QMrtc0D2lbPBxdiaQN2Rh0DwZbbB9fPaQCAfQj/7/bDBteajQHctID6bGKTB1OWIQFQTX8CswqXB
HwiAQCygAcA4gZbBg/dCQMEAhcB105bBJharQIL+mr9NQqbBd0uRQFe5D8CKy6DBq8i7QHK4ZUBK
h7DB/su6QO0UlT9unKnBhJSsQEvDXEC+IZbBBuyAQEOPUEC4XZrBPTGxQHG/KUB6GqfBKiTnQBb5
fUAjx4jBQASlQNdOrUBwr4nBQn22QDOHfkDz+IrBC1ViQEJsjcDQt6DBpvlQQEXiPsBsr5HBzLHI
QJ8wRUBjbp3BTL+DQBtNM0B4HaTBq/o1QLYYYEDj7pTBOCzXQJj4uEBvjMnB7LsIQR80lUBsXr/B
srmLQDIGskCZe8PBhVj7QBUjY7+/n7jBJHHQQLoTKMC0b6/B0jwAQRx0WUC80K7BRbFzQKpYg0Az
D7TBSaLtQA31wD/jGrXB842MQNgg4D7vIp7BSImVQMsDbMA9o63BJLOFQBcXi7+NeZLBJjYdQOI/
ncBE35LBwU7tQLRQi0BFroDBXFTzQHIfPEBdaYnB1m/3QHhhk0Bcro7B6F6sQIgeuUAZmoHBuxq0
QB5RwkBzp4/BiyWCQBY6rUAs44rBhbWmQHUxVUCLCoXBW8hVQAlyJUC52KjBD637Pz3EVEDhgJjB
23E3QLqfdkCGco3B5p7XQK2aqkCaIMHBiKaxQDyikkAQDsLBdAfyQFSLpUBFE7jBbrrBQF0dOr+C
r7XBiPm1QDBG0L/ln63BmXulQMUKbUADzbnBECbmQDofiUCx1a/B8lnAQOX/Jz/lwbPBij6mQDSV
bD6JrqHB8i+WQFRRT8A5DJrBVsnUQMhc/b9duJTB8AHMQC6BhsC3mo/BZMSpQFjBkr+sgqPB1YGu
QLrhA8CGmZrBHC+/QPb5Y0ByhLDBoZixQEi7kz88zqnBlBqrQLNbSEDvxZXBF0GAQAcmT0D/j5rB
brOvQK35KUCIWafB1HHdQKd+KED/lobBeAy1QGwpmkDUhofB9HSzQL4kVEDS+YnBajalQLxcicD5
cpTBrDrjQNKzQ8BDZI/BQm7HQMtuOEDTS53B/GGDQGJkQUCm06TBtus1QCXRYUAmCJXB+IHgQHvd
wEAEWsfB/9+dQFDRlUCHGMnBX7oHQWF+t0AEc7fBSN7LQPJhjL/GZb3BQkq2QM8gLMCCLa/BBU+I
QDl3SEDvirrBhMb6QMjyhEA3+6jBLpvKQOchrD995rnBjdWaQBBbFz9iDZrBr1tvQOFWU8BlE57B
8YzmQNfXhr+Be5TBMuvYQBOgosCcwYvBCZ/iQKA0MkDu8HvB0HnbQOUVxz+/S4jB2EX4QKCBREBx
FYvBESC7QJP2nkB24n3B/uDOQMoWqUB8MozBB0iWQM3qqEDvr4nBVPWYQEV5N0DHbIXBcvFWQCQN
RkCAHKrB5oL8PyW+ZUDs8pjBQMY3QAtca0DpH43BxA2+QAj5lECTP8XBrZuiQC4XY0CoCMTBT9vX
QKpaokAmobzBMO75QHAY6r7agavB+QToQAQlsr/Uc6TBDEGgQKo0OEC/IrrBAn3VQEYPjUBPtLLB
D+vnQMADUz+rfKzB5FyzQOAghT7i0p7BfH2gQFhlTcCuzqLBqMeEQFB6978g5JPBPrw6QNjwasCS
pJvB9fnCQLDRh78rlZ7BpAelQBBCCMCMoZvB2Pu4QK5VVEB0T7HBKG/EQHY1mT/wJabBbdGsQHzM
YUD5CZbBA/GBQF6fSkBn7pnBRk2zQChQKECsZqbBKQjkQOxde0BxzYfBadaqQD51tEDr0IvBxDa1
QPh/hEAGOovB3295QOwXfcACxKLBjepCQMKOLcCZBZTBoi3JQFxmVECEm53BHpOFQGZqLEC8oKPB
wGU4QLnCVEB7PJTBuVG/QJfdpUB6x8zB4l2PQIyiTUDhsMrBTIHtQKz+vEBHob3Bu9QKQXMSOb9l
NLDBHJT2QNpOF8B4g6PBCnCLQMR3AUDyRLnBGXPpQAdZl0ANI6zBH0f1QDmvwz+vHrLB4j6aQOcP
Dz9TZJnBH+u5QNwLXMBZXajBs1CIQLoTlb8o443BqHP/P4xlh8ANCpzBekXpQD1FjECVzX/BN9jq
QGdiNkDzXofB1HL5QJe1jECfsI3BLcqwQJtSw0Cx+oPBY0S/QPiyw0Co4pHBCwSJQC+5uEBIAo7B
sh6gQKPqakD0RIXBia5aQJv7GkBPYKjBf4wAQHk1REDqjJfBv885QI6fbECz0IzBwvefQDismUAY
ZsbBwZaGQGOUakAMZcTBpATAQGq6pUBPEb/Bsk3lQKwmKb+mNbHB6VnZQGLEwb8WxKjB3XeMQOVN
O0Dm6rrBa/bFQGQ1jkBfk7XBKQTXQNyoLT+5ZLHBi7yzQLgiqD6ySaDBdLq1QKd8RcCwe5XBL35w
QCoi678vyJvBv2phQIGkf8C5JZXB3FK/QFpIgr/cd6DB/eOkQCJC+L+iaJrB2IurQNXzVEBtT7PB
jVe9QEpXlj/e8qjB57+wQNm5ZEDpL5jBEmmEQEJ4SUBaMZrBznatQI6DJ0B0eKjBCHLDQHBmQUCX
aIXBjxnrQBKSm0B48Y7B666/QHQDhUDaro3BohGbQP7+gsB/zJLB9b89QLHTN8DaQ5nBvpfIQHpj
U0BNlKDBAAKCQPQjK0CI56PBlClGQFepTkA05pLBi9qaQP1UrEDbjs3BQ0RdQKQPV0DdH8rBFBPU
QPYSwUB1u8DBx3f5QL8RhL9UkbfBPQ7kQByZIsDHpqjBq11yQE4uA0AzcLnB/7jeQIVsl0BvAbDB
NavfQE53qT8w+bfB9SqjQCkGOj9NaJnByZbXQN9FSsBS3JPBXOpUQHKvbL+b3J7BQcM4QHIim8AV
qpPBc0/OQDjWW0C1b3vBrwekQE7NIkCxWITBMK7aQLGnEUBFQIjBuCP1QJLNqEBBL4fBpY8BQRto
hEAmvpHB1R3oQG+ltUCtzpTBtvSnQLthnEA11YrBO0NOQANQGUCHoafB98oLQDf9OUDR65TBIXVQ
QAEUZ0D+nYvB

>  <OMEGA_E>  (7) 
aKu5PpDVsj5YXK0+kDCoPkhFoz5cMR0/nKApP8hqMD8YX2M/8Kg4Pw==

>  <OMEGA_NBR>  (7) 
     54737

$$$$
50220814
     RDKit          3D

 43 45  0  0  1  0  0  0  0  0999 V2000
    7.4848   -0.4045  -21.8569 C   0  0  0  0  0  0  0  0  0  0  0  0
    2.8766   -3.1650  -18.8495 C   0  0  0  0  0  0  0  0  0  0  0  0
    6.8143   -1.4115  -21.1455 C   0  0  0  0  0  0  0  0  0  0  0  0
    3.5171   -2.1200  -19.5278 C   0  0  0  0  0  0  0  0  0  0  0  0
    6.9615    0.8954  -21.8929 C   0  0  0  0  0  0  0  0  0  0  0  0
    5.1121    0.1947  -20.4686 C   0  0  0  0  0  0  0  0  0  0  0  0
    3.6461   -4.2290  -18.3390 C   0  0  0  0  0  0  0  0  0  0  0  0
    5.6261   -3.2694  -19.1461 C   0  0  0  0  0  0  0  0  0  0  0  0
    5.6285   -1.1149  -20.4364 C   0  0  0  0  0  0  0  0  0  0  0  0
    4.9188   -2.1698  -19.6873 C   0  0  0  0  0  0  0  0  0  0  0  0
    5.7453    1.1953  -21.2368 C   0  0  0  0  0  0  0  0  0  0  0  0
    5.5468    3.5793  -19.1670 C   0  0  0  0  0  0  0  0  0  0  0  0
    4.1011    3.2552  -19.3358 C   0  0  0  0  0  0  0  0  0  0  0  0
    5.2771    2.6363  -21.1552 C   0  0  2  0  0  0  0  0  0  0  0  0
    5.3568    3.4097  -22.4928 C   0  0  0  0  0  0  0  0  0  0  0  0
    7.0975    5.4718  -18.8325 C   0  0  0  0  0  0  0  0  0  0  0  0
    5.3517    4.9165  -17.0457 C   0  0  0  0  0  0  0  0  0  0  0  0
    6.2970    4.3426  -18.1132 C   0  0  0  0  0  0  0  0  0  0  0  0
    4.9913   -4.2665  -18.4892 N   0  0  0  0  0  0  0  0  0  0  0  0
    6.2011    3.2235  -20.2353 N   0  0  0  0  0  0  0  0  0  0  0  0
    3.9436    2.8109  -20.5558 N   0  0  0  0  0  0  0  0  0  0  0  0
    3.0649    3.3969  -18.4190 N   0  0  0  0  0  0  0  0  0  0  0  0
    8.4041   -0.6311  -22.3766 H   0  0  0  0  0  0  0  0  0  0  0  0
    1.8045   -3.1552  -18.7194 H   0  0  0  0  0  0  0  0  0  0  0  0
    7.2063   -2.4178  -21.1401 H   0  0  0  0  0  0  0  0  0  0  0  0
    2.9485   -1.2907  -19.9218 H   0  0  0  0  0  0  0  0  0  0  0  0
    7.4903    1.6724  -22.4248 H   0  0  0  0  0  0  0  0  0  0  0  0
    4.2250    0.4353  -19.9014 H   0  0  0  0  0  0  0  0  0  0  0  0
    3.1514   -5.0337  -17.8156 H   0  0  0  0  0  0  0  0  0  0  0  0
    6.6992   -3.3135  -19.2605 H   0  0  0  0  0  0  0  0  0  0  0  0
    5.0003    4.4395  -22.3433 H   0  0  0  0  0  0  0  0  0  0  0  0
    6.3994    3.4299  -22.8429 H   0  0  0  0  0  0  0  0  0  0  0  0
    4.7275    2.9093  -23.2435 H   0  0  0  0  0  0  0  0  0  0  0  0
    7.6612    6.0534  -18.0882 H   0  0  0  0  0  0  0  0  0  0  0  0
    7.7969    5.0231  -19.5533 H   0  0  0  0  0  0  0  0  0  0  0  0
    6.3990    6.1351  -19.3635 H   0  0  0  0  0  0  0  0  0  0  0  0
    5.9372    5.4667  -16.2943 H   0  0  0  0  0  0  0  0  0  0  0  0
    4.6326    5.5992  -17.5218 H   0  0  0  0  0  0  0  0  0  0  0  0
    4.8085    4.0943  -16.5570 H   0  0  0  0  0  0  0  0  0  0  0  0
    7.0140    3.6682  -17.6222 H   0  0  0  0  0  0  0  0  0  0  0  0
    3.0695    2.6224  -21.0036 H   0  0  0  0  0  0  0  0  0  0  0  0
    2.1307    3.1523  -18.6786 H   0  0  0  0  0  0  0  0  0  0  0  0
    3.2541    3.7433  -17.5002 H   0  0  0  0  0  0  0  0  0  0  0  0
  1  3  2  0
  1  5  1  0
  2  4  2  0
  2  7  1  0
  3  9  1  0
  4 10  1  0
  5 11  2  0
  6  9  2  0
  6 11  1  0
  7 19  2  0
  8 10  2  0
  8 19  1  0
  9 10  1  0
 11 14  1  0
 12 13  1  0
 12 18  1  0
 12 20  2  0
 13 21  2  0
 13 22  1  0
 14 15  1  6
 14 20  1  0
 14 21  1  0
 16 18  1  0
 17 18  1  0
  1 23  1  0
  2 24  1  0
  3 25  1  0
  4 26  1  0
  5 27  1  0
  6 28  1  0
  7 29  1  0
  8 30  1  0
 15 31  1  0
 15 32  1  0
 15 33  1  0
 16 34  1  0
 16 35  1  0
 16 36  1  0
 17 37  1  0
 17 38  1  0
 17 39  1  0
 18 40  1  0
 21 41  1  0
 22 42  1  0
 22 43  1  0
M  CHG  1  21   1
M  END
>  <OMEGA_C>  (8) 
voPvQHwbz77q2q7BSBo4QCCQSsDdy5bBbA7aQOestL8SKqnB4BhhQE6uB8DoOJzBgsTeQAY5ZT+h
JK/B7JWjQOhnRz65v6PBVllpQL5Th8BdtpLBRAm0QDQ+UcAxK5nBSBy0QBe1jr+zfaPBcGadQCDe
CsCTf53Bvtm3QCUAmT8I5anBUH+xQNYSZUAFVpnBUDyDQLZVUEDEr5rBnN2oQKi5KEDoPanBwGqr
QOo3WkAt8bPBDB/jQMoYr0DuqJbBfEGrQPxTnUCZXYjBDIHJQHX2ikDc55DBXrifQOqGiMDK6ZPB
GG/GQGBNTkD74aHBmGN8QDzlM0BOcqTBPCdEQJZmWUAgWpPBEHcGQfCQIb8xA7PBafrmP7zuScBf
wZXBMJrmQNK9GsDrHqnBw7M8QDk1pb/NX5/BbbDvQIkS1j8VZrPBXTOHQA7l3j4oNp/BwK9JQEgU
ocBNho7BeF/WQKAPVMBzFZrBRQKgQGEQjkAQv7LBucfMQFSDW0A0vrbB3EeXQL4xOkDB8rnB8ij1
QNa1wUC6tJDBT4D5QJa9oEA0bZzBbMTMQKpSxECK6JrB0v29QNrurkDUWoLBCD6UQNwss0CrLIzB
JN+ZQI0Eg0CpdITBCnPgQGLEakA9+ozB7nJEQPDVJ0BbB6jBxFwIQLG/SUDQbZXB6UJQQDKSb0Bo
AIzBPE/iQCV2IL9MorLBG5d4QKlEOsDvaIzBrO3OQDLCzL/cHazB7JuPQERE9b8NsZLB5q3XQDRC
Oz98abHBH52mQMZ7Fz4++6LBrfFsQLNihsA+u5DBPt+VQO2HY8C1+aDBwxqxQJrlm78oLKTBf8Kc
QIwnD8AaM53Bsta4QDS6kD9LvanBvKOuQN4CaUCvO5jBSNWBQJPtUkDbxZrBz7SsQF8JJ0A8SKjB
KWWwQATGWkDy0LLBbnDEQJk3UkDUMIXBVKzlQFZOpUC/9Y/B/768QHu9ikCxBY7B5x+DQIcPkMBd
z5rBSdLHQGA8TkBl/J/BVbGAQNvaL0DtRKTBBao9QI4aYkDxNZTBYXD5QAdnbL9ambjBtwJkQGMt
LMAdWoTBi9jWQMEeKcBPLq3BQFmUQKrca787i4/BHB7nQHjCvD8ZWrbBtFmQQF7c5D5A0pzBsidP
QI7YnsAm5YvBVdifQEH4c8AU/ajBQWSnQAfkjkDXU7HBCJDRQBQeWECUvrXBs9qaQEMkP0DH27jB
kafOQMt/ckAymXvBsaCmQIfELkAIsIPBjITdQA1oJUBCyofBWUjvQAQYtUB6eIjB0oz/QC4TkEDs
rpLBfFrfQJKtvUAUHJbBvCKjQNlyoEC2YIvBim1MQFn1HUAvKqjBh+0CQNHBUUDHpJbBuvNFQBVj
fUBxDI3B6MjDQL4QNb/4EbbB+FxJQHxqY8COl5LBtJKwQMpl0r8DTq/BcHRWQJKhHMDBWpnBMoXE
QHDcJT8PNbPBVhWdQFCXBT5p0qLB1SiHQOCijcChX5DBoDq1QMhzS8BdJ5vBDxaeQAwNnr+blaXB
ujOUQN+LEcBOyZ3BMiGxQFgQiz8Yl6nB0DqnQN5XP0B+1ZTBNXSAQN2HVEAl/prBkjmzQB6YI0By
KqbB+mnNQNUkXkAlwa3BpFnOQJDvEEDZP4TB1iq0QMBdlED5dIbBiNGqQOIuSkAG4IjB54auQC0y
h8B0lJTB9tHFQOBkJ0CVZZvBceSHQGy5RUC1GqXB8L81QCC4dEA7sJbBnhLSQNSLg78Hgr3BKCEL
QHr/bsBbH4/Bh+uvQIrtK8A2jbHB/kIjQFyX4L88FZvBUAXUQMeYrj+WYrjBdieNQGNW5j69l5vB
m++BQHrKqMDqMIvBwLjUQLjPQcCBgJ7B/CHNQN8JkECtq6rB0pruQJT0RkC0L67B0RS/QDHoXEBb
yrXBWzbQQGkvGkCEE3fBjxLHQNf5mj/P/oXBMy3tQFAwIkDe6IfBjOS2QIvsmEDqg3vBoF3SQJHA
nUBjUorBrPCZQPFJqEDfj4nBaDSMQFGLOEALIoXBOMdmQCcCUEBGHKvBgHwEQChxgUB+epvBTMsw
QHfGfUAMy47BZ27eQAxSGL8aN7XBMp2kQAqdhcAcP5TB8ZjMQJiUxb+QP67BIla2QDd1UMBDe5vB
hr7TQNCFQz9vMbTBKsGkQO43az6rNKXBj/10QDijfsCIipDBr+hmQMA8AcBxuprBDLivQKf8kb8s
LabBJp6dQOqICcDKwJ7BPam2QIVWmT8APKzBgcC2QM2fgUAuDbrBnn7XQA86ikBRxbHBDf6qQI69
LEDXq6vBMD2JQNqDQUAh9aLBvlqSQLaKgkAkN8zBsqq2QH/CxUCvm8XBFq+3QEUplEDeb8XBBGBF
QIccO8DK05PBv9SbQFAdSUBVWbbBEXDRQANFYEBntanB3uz3QF96qEChc7LB+m/0QG4Fab+qYbvB
+Q23QI/FoMCIi5HB8vzUQKKGJcC3D6/BoWjWQBtZWcCXgJ7BFefhQHdFvj+qjLnBBJSOQHydCj/7
EJ/Bt8dZQGbplcAX9YrBB15AQLvglr+4OJ3B9nKCQNBLg0Ar/qLBaDxXQA/oHUC+oKTB9rKVQMHD
LkBvEZvBAtCTQMZQkEA2TtTBBN6UQJX7PkAnuszB+YhnQFVAi0CPccjBW2W3QHsR0UCN8M3BATiZ
QJUa0UCutcHB2anSQAxO0kApS8HBYLzVQJvliUCrO8nBLxrkQFYzXED0OqPBDHwGQUuSq0CGeazB
yTz6QMYru0BF67jBSuLcQP4TG7/dOrXBhpNEQFlVPMC/m5PBwMDKQMZdw79TFq7BaHBkQK6K+r/U
j5rBgzrTQC7nQj/pW7TB73akQLSglT6gLKXBdr95QA6SgMDOlZDB0Ai1QDXMTMAEJpvBPaOuQDpM
i7+8+KXBbGScQPlLBcDAcJ7BYaS2QEninT8DbazB8B27QNC6gUDAmrrB/jDbQIa4iUBvIbLBchus
QOHLL0A5HqzBQnaJQDUPR0Bbu6PBbG2ZQA5ngkA+G83B3xS/QMbdxECufsbBVFG+QEpIk0CHEcbB
IVelQK42hMCPV5TBFrKeQJXpS0B2+LbBZeXSQF3UYUCV76nB+iH9QN5IpkBbybLBfFfyQA77cr+4
a7vBxOcDQNglOMCZmpDBE1bSQP/gJMAkzK7Bgwk9QJVCj7+L5JzB7dLhQIhAuz840rnBMsWOQE2p
IT9DBZ/B/l5hQLeHmMC0J4vB1jzVQOniU8AaKJ7BS4aDQGw3hkB/7aPBuFFXQKm2JEAUmqXBiZyU
QBWFNECQtpvBZI2cQPd2j0CcPdXBqMuaQHSBPkDWbc3B/0B1QNJyjEBYqsnBz2PBQNxvz0Bq3s7B
FIWhQP+M0UAE7MLBSODaQILL0EBP/sHBZ4bcQK+uh0BViMnBikvkQNKPXkDyO6PBBc4IQdIWqUDS
razBZ4wAQX0MuEDPXbnBZKXeQAbdHb9dOLXBbHSkQJOehcBcHZTBRFfMQJwLyb8qXa7BRx62QJRS
UcDPdZvB0nrUQF2rPj+yC7TBZRelQNzATD4CKqXBnbN0QA5BfsBfapDBv2FmQGYdAsDX0prBc5Gv
QMuXlb/fQ6bB1ladQMDqCsDl157BlIm3QA7ulT+VCazBYTSxQP8FhEBqG7nB5bDUQJUljEBjYLHB
x1msQIqlKkDVPKvBIM6MQOLHP0ByA6LBnwPFQPa+v0AjpMbB0zycQPQtfECCiMzBxkSkQNJHnUCc
J8PBevxEQMokO8Bgz5PBUeqZQEYVSEDpcrXB2kXTQIq4XUC64qnB7CzzQDJ/rEDCqbHBUZX0QAv6
bb/CaLvBKOy2QHacoMBwUpHBa0rUQAJiJ8BkSa/BSS3WQMp9WsAfep7B+ujiQOqDvD9+T7nBgtaO
QIBSAj+ZCJ/BuZdZQBpolcD7vorBSsw/QBhHmb/GaZ3BjUuGQD17gkAl7aHBTmNdQL2sHECVPqPB
5xGbQOGoLEDqVJrB9z65QGcm0ECT2c3BZinJQHAq10BnJ8DBhenjQG1psEAfZcjBJv+SQKhQkEDZ
stPBfKO5QMrQV0A2Mc7BfFyCQDinT0CtYsrBXeSFQB+nrUAMa8HBTDzpQIc/VUAgKqTB2sMEQYE7
rkCS9KvBbsLyQOEKwkDAk7fBThrdQBhzHr9LWrXBOntEQFGCO8CCspPBvzvLQPSgxb/eL67BgB5l
QLRX+r9cr5rBsnrTQGqfPz/GaLTBbH6lQED8iT71GqXBQAJ5QN5GgMAXl5DB4hS1QDrITcDLJJvB
NVavQIDgjb/RA6bBD8WcQFwoBsDDgp7BGY23QClGmz+kUKzBps60QHrOg0Bm+bnB1D/ZQMBiikB3
dLLBb3+tQMIfLkDYu6vBVAeOQNreRUB8mqLBYk7LQNdrvkAti8fBUsWjQM6reEAVlc3BktqpQBA/
nECtSMTBjAOlQIRchMBmTJTB36ObQK2gS0CdB7bBxhTVQA5tX0A/b6rBNN36QMpDp0DtaLPByU7y
QESJdb/hm7vB178DQDqeNsDwupDBzNrSQNT4JcBv7a7BZUU+QJGljr/lFZ3BvZHhQLACuj+s7bnB
yBWQQOYxGz9u4Z7B0xFgQK38l8C0IYvBpUvVQPyRVcAVHp7BvFOIQG+rhUBKqaLBsxVfQGwGJEAW
z6PBXeabQF0QM0Bf3ZrBi/fAQORBzkAw987BIj3OQGRZ1kCdIcHBBnvqQM3trkDf2MjBC/CbQK72
jUB78dTBFYDBQFw4VEAxyM7BJ4qJQHdYTEBApsvBBS2LQOG8rEC+AsPBn7TpQHFJWUC7XaTB78kI
QaNyqEBLyK3BWFX8QJTbukBtubnBE4fxQArky75Jaa7BOK85QP5UU8CoY5fBYUHcQLw2uL9mAqnB
3gFiQJj4EMDqBZ3BO8DfQPAlZT9noq7BmTejQKjj1z39EaTBRu1rQO+BisBf5JLBNx61QPANVsCy
TJnB2dS0QETAmL8nzKPBtxKeQDrEEcCyBZ7BsUO4QA8llD9TganBVwetQEW5gECFLZzBBwGCQCL2
WkAzh5vBp+ikQHJQJEDK0qnB4vWcQNKAQEDEgrXBg7zSQK2diUBNrorBu3PfQF7LvkDTq5nBXV++
QG8woUAvQpTBoSGhQKzMisDe4pPBDa3BQAJGYUDQbaTBBq14QBo1KkBY5qPB9j5IQLRCakBripPB
x8cHQWCZF78KZbLBJdvpP78RVMBTgpbB7BHqQE9zG8B716jBNcA8QLEMvL+di6DB11bwQIl+2D8C
vrLBCjiFQDMumT7jEaDBGeJMQLoKpMApjY7Bj4vXQKh9V8DvCJrBxxqPQLSbgEBwl7XBqne7QK7C
QECZ5rnBJqiGQP6SE0DlW7nBlU3fQAwpoUBl8YTB0mW6QHdca0Diu4bBqwbtQARgakCfiY3B1pTr
QDQH1kADzJPBujL6QHd9q0BavpzB6CfQQJf2z0CEVaDB+rujQFfqtEAOTJHBXtNBQOOUDUA58qXB
44IOQPXMTkCW6JPB8epWQE9fiEDWao3BKJbzQLy2Ej+QGZ/BuCOeQD41jcD9SprBjDDfQMyNKL+Y
753BXE6xQH3OTcDSiZ3B8ELbQGy+3z+eWZ/B+JiZQPjG7j4ro53B2CpuQMzMi8DrqZTBYB9rQN8M
AsCIXJXBuCWyQHSKN7/vDZ3BkB+dQELh/7/S4ZrB4MOtQJCz2z/NjZ7BEresQB3UfUDeJq/BbF+/
QNY3k0B0i6XBxPOSQFQkP0AekKDBiMlLQBIgQEAeXZvBVDLpQIbpXEA9SrvB6H6eQDS2YkBRqMLB
Lla9QLXjhECuZLrBiMBGQLmhTMCRY5LBtKyPQMTlRUBCL6zB7EiqQPa9hUCGK53BVK3jQA+srEB/
SqXBw/8KQWHJHj8fzp/BrhmtQMaHq8CVFJzBOtHxQCCpyL9BtZ3B8u/OQJBHTsAa/KHB3E7rQAy+
LED4KaDBgjNuQNvY0T57YJ3B2f9QQGhnqcAnGZLBSjFLQD81jb9mfZPBJWgrQLqufEBdTZ3BW+Yl
QHY8CkDFd57BgCBSQCEiOkCuoZLBVtL1QNb2ZEBOccPB4pj/QJx3eUAfhLXB+W7lQExRGEAyjLnB
NWarQItabEB2wcrBn/KaQA/HHUBaG8HBYyt+QLIIgUAPBMLB7E7BQBI4p0DOELzBKCWqQAXxkkDj
4ZXBQsHvQHQ0tkDJRp7BPMvxQFGBtUBXH6zB

>  <OMEGA_E>  (8) 
yLtQP65FXj90VD8/fjGEP04MhD+dfYM/wBCDPxx8az+KXa0/

>  <OMEGA_NBR>  (8) 
     61916

$$$$
50220830
     RDKit          3D

 53 56  0  0  1  0  0  0  0  0999 V2000
    6.7106   -0.6130  -22.6724 C   0  0  0  0  0  0  0  0  0  0  0  0
    6.1501   -1.5828  -21.8208 C   0  0  0  0  0  0  0  0  0  0  0  0
    6.5158    0.7567  -22.4152 C   0  0  0  0  0  0  0  0  0  0  0  0
    5.1573    3.7083  -23.2050 C   0  0  0  0  0  0  0  0  0  0  0  0
    7.1160    4.4278  -21.9253 C   0  0  0  0  0  0  0  0  0  0  0  0
    5.4810    4.6191  -24.2205 C   0  0  0  0  0  0  0  0  0  0  0  0
    7.4378    5.3407  -22.9452 C   0  0  0  0  0  0  0  0  0  0  0  0
    5.1550    0.1821  -20.4754 C   0  0  0  0  0  0  0  0  0  0  0  0
    5.5392   -3.3650  -19.4746 C   0  0  0  0  0  0  0  0  0  0  0  0
    3.5914   -1.9775  -19.1169 C   0  0  0  0  0  0  0  0  0  0  0  0
    3.8644   -3.9953  -17.9721 C   0  0  0  0  0  0  0  0  0  0  0  0
    5.3712   -1.1874  -20.7118 C   0  0  0  0  0  0  0  0  0  0  0  0
    4.8239   -2.1877  -19.7727 C   0  0  0  0  0  0  0  0  0  0  0  0
    5.9613    3.6149  -22.0438 C   0  0  0  0  0  0  0  0  0  0  0  0
    5.7196    1.1672  -21.3192 C   0  0  0  0  0  0  0  0  0  0  0  0
    6.6138    5.4421  -24.0864 C   0  0  0  0  0  0  0  0  0  0  0  0
    5.3752    3.0663  -18.7389 C   0  0  0  0  0  0  0  0  0  0  0  0
    4.0305    3.1250  -19.3501 C   0  0  0  0  0  0  0  0  0  0  0  0
    5.5484    2.6421  -20.9436 C   0  0  1  0  0  0  0  0  0  0  0  0
    7.1765    3.0619  -16.9769 C   0  0  0  0  0  0  0  0  0  0  0  0
    5.1207    4.4719  -16.6711 C   0  0  0  0  0  0  0  0  0  0  0  0
    6.4184    7.6925  -24.7143 C   0  0  0  0  0  0  0  0  0  0  0  0
    5.6628    3.1538  -17.2519 C   0  0  0  0  0  0  0  0  0  0  0  0
    5.0517   -4.2471  -18.5773 N   0  0  0  0  0  0  0  0  0  0  0  0
    3.1292   -2.8859  -18.2323 N   0  0  0  0  0  0  0  0  0  0  0  0
    6.2689    2.8531  -19.6798 N   0  0  0  0  0  0  0  0  0  0  0  0
    4.1463    2.9171  -20.6306 N   0  0  0  0  0  0  0  0  0  0  0  0
    2.8279    3.3427  -18.6992 N   0  0  0  0  0  0  0  0  0  0  0  0
    6.8848    6.3720  -25.0544 O   0  0  0  0  0  0  0  0  0  0  0  0
    7.2932   -0.9214  -23.5278 H   0  0  0  0  0  0  0  0  0  0  0  0
    6.3162   -2.6319  -22.0160 H   0  0  0  0  0  0  0  0  0  0  0  0
    6.9745    1.4959  -23.0551 H   0  0  0  0  0  0  0  0  0  0  0  0
    4.2893    3.0742  -23.3093 H   0  0  0  0  0  0  0  0  0  0  0  0
    7.7477    4.3464  -21.0531 H   0  0  0  0  0  0  0  0  0  0  0  0
    4.8624    4.6886  -25.1030 H   0  0  0  0  0  0  0  0  0  0  0  0
    8.3152    5.9640  -22.8553 H   0  0  0  0  0  0  0  0  0  0  0  0
    4.5478    0.4867  -19.6357 H   0  0  0  0  0  0  0  0  0  0  0  0
    6.4806   -3.5617  -19.9659 H   0  0  0  0  0  0  0  0  0  0  0  0
    3.0167   -1.0869  -19.3239 H   0  0  0  0  0  0  0  0  0  0  0  0
    3.4888   -4.7080  -17.2529 H   0  0  0  0  0  0  0  0  0  0  0  0
    7.3576    3.1277  -15.8939 H   0  0  0  0  0  0  0  0  0  0  0  0
    7.5602    2.1029  -17.3551 H   0  0  0  0  0  0  0  0  0  0  0  0
    7.6924    3.8895  -17.4857 H   0  0  0  0  0  0  0  0  0  0  0  0
    5.3389    4.5158  -15.5938 H   0  0  0  0  0  0  0  0  0  0  0  0
    5.6025    5.3212  -17.1776 H   0  0  0  0  0  0  0  0  0  0  0  0
    4.0329    4.5212  -16.8270 H   0  0  0  0  0  0  0  0  0  0  0  0
    6.6653    8.3901  -25.5282 H   0  0  0  0  0  0  0  0  0  0  0  0
    5.3283    7.6701  -24.5689 H   0  0  0  0  0  0  0  0  0  0  0  0
    6.9054    8.0255  -23.7859 H   0  0  0  0  0  0  0  0  0  0  0  0
    5.1636    2.3156  -16.7436 H   0  0  0  0  0  0  0  0  0  0  0  0
    3.3975    2.9416  -21.2930 H   0  0  0  0  0  0  0  0  0  0  0  0
    1.9726    3.3470  -19.2173 H   0  0  0  0  0  0  0  0  0  0  0  0
    2.8147    3.4956  -17.7111 H   0  0  0  0  0  0  0  0  0  0  0  0
  1  2  2  0
  1  3  1  0
  2 12  1  0
  3 15  2  0
  4  6  2  0
  4 14  1  0
  5  7  1  0
  5 14  2  0
  6 16  1  0
  7 16  2  0
  8 12  2  0
  8 15  1  0
  9 13  2  0
  9 24  1  0
 10 13  1  0
 10 25  2  0
 11 24  2  0
 11 25  1  0
 12 13  1  0
 19 14  1  6
 15 19  1  0
 16 29  1  0
 17 18  1  0
 17 23  1  0
 17 26  2  0
 18 27  2  0
 18 28  1  0
 19 26  1  0
 19 27  1  0
 20 23  1  0
 21 23  1  0
 22 29  1  0
  1 30  1  0
  2 31  1  0
  3 32  1  0
  4 33  1  0
  5 34  1  0
  6 35  1  0
  7 36  1  0
  8 37  1  0
  9 38  1  0
 10 39  1  0
 11 40  1  0
 20 41  1  0
 20 42  1  0
 20 43  1  0
 21 44  1  0
 21 45  1  0
 21 46  1  0
 22 47  1  0
 22 48  1  0
 22 49  1  0
 23 50  1  0
 27 51  1  0
 28 52  1  0
 28 53  1  0
M  CHG  1  27   1
M  END
>  <OMEGA_C>  (9) 
37zWQDjsHL8YYbXBtc3EQCGYyr/1kK7BHoHQQGa2QT9jUrPBsgilQOtUbUDMo7nBVbbjQNmwjUDx
Zq/BBWSvQIPPk0CAw8HByALuQGTnqkDSj7fBpvWkQK55Oj6WzaPB/kCxQGtbV8Dky5vBKtplQAIe
/b9/75jB+1J3QD2yf8DXxo/BLOGrQB3+l7/VsaXBCV2aQNUDDMBsLp7B4MK+QMlZZ0CkWbDB9wa3
QFtmlT+vjarBTKTTQIAlrkDasMDBxgGsQFQ+REBG6ZXBgvmAQEb/R0D2zJrB2IyxQPkYKUBmjKfB
FqblQPD1Q0Ch0IfBkNyjQBEaj0BaXoXBi2PNQFsp9kDwtsXBizW1QBzXSUDQA4rBnqehQCboh8BI
npTBoEVIQPyyOMC+25HBCpvIQNqYNkAxcJ3Baa6EQOuxOkCPC6XBOPw0QJ/uVUABmJXBj1DcQLLn
y0Bub8jBAWLpQLnia78GObzBXx7KQE1xKMC3ILDByC7fQBx7vz/xcLjBMUKJQFy/RECDebrBXe33
QJMVi0C4bKjBnZibQBAJlkAA08jBMAsFQXjZvkC417bB5oeRQHEu+T7+FZ3BMWHPQHjyY8Alup/B
EBFBQP4di79Ll5rBrkhfQPanlsDbBYrBxXHrQLwrSEBTTX7BYe3xQEGVBkAz14rBDSj2QNDteEC5
4ovBiNiqQE2BkEBXgHnB7UezQHBHqkCha4nBdg2BQN2tkECfnYbB+knVQN89BkHYOczBXYGqQDNx
9UAPjcTBFPncQGdoAEGESb7BzzulQHQzFEDl8oXBdXBZQJVCPEAKWKrBdn38P501VkANvZnB/iM0
QAi4X0BFsI3BgoXXQJQ+Hr+6UbXB58bFQGZKy7/GeK7Bz3DRQNSLQD+OPbPBgH3jQGNFjkDYXK/B
yHGlQAGGa0BxnrnBviXtQHmuq0A/iLfBHzmvQPwAk0C5w8HBPOCmQHILNj65jqPBDfmwQE+3WMBV
zpvBHAFnQFwV+7+Q85jBXFh1QBl5f8Cf5Y/B6EStQJePmL8/iKXBsfuaQFo0DMCNIJ7Bkxm/QCH+
ZkBWTbDBsYS4QHnJlD9TX6rBTL3SQC9KrkCXrcDBPMmrQDGRREDa3JXBohOBQMxNSEA135rBzEyy
QHvFKEC3dKfBZSXjQCj8OUCWRofBKoGmQAaPkUAHvIXBUgDPQOL29kAXYsXBPbqzQBR3SkD87YnB
upegQD93iMBBtJTBKsNHQCmGN8Cq+JHBHODIQHeMN0CeSp3BqCOFQIW2OECqDqXBZlU1QFPgV0Al
tJXBVavaQFoVzEDlecjBWOfpQC9Ibb/JNLzBF+zKQJDNKMB5D7DB8M3fQI3gvj+warjBXcb3QP0a
jEBxY6jB6CeKQJekQUDxdLrB0mAEQa1EwECXz7bByYibQESSlEDD2sjB/CmUQPxU9z5kt5zBPgPP
QP5oZsBXuJ/BrXtDQIdph7/YlZrBAzdcQJhjlsB4LYrBAvrnQCCoPkA6KH3BBDLsQEYp8z8qBIrB
kST3QBDxaUDgVovBlm+sQI1Ak0AsJHrB2li5QPJjqkCM0onBHESEQNPAlkCzT4fBECvWQJqUBkFM
+cvBlZSsQBYe+ECJkMPBlljhQGorAEFuP77BmT6gQCiyGUBy3IXB+oRaQPDHN0CnYarBaR79P7Op
V0Bp15nB+aA0QAFWY0Bf1Y3BJsjXQNZdGr/nPbXBLMLFQH2Oyb9yda7ByHfRQPQpRD9nLbPB/i6l
QEKRbEC2ornBzLLjQCAFjkDPcK/BbF6vQNkzk0Dq0sHBSMbtQKsVq0Ckp7fBasmlQAwfQD4msqPB
2UpmQMut+78W/ZjBYByxQD6uV8C00pvBDTJ2QKxtf8A044/BAqusQOY8l78VnKXBnKuaQDq/C8B2
LZ7BwuK+QOyWZ0COVLDBrNa3QKxYlj/IbarBoGPTQIbfrUCPy8DBnMSrQCinQ0Dl1pXBDueAQKhc
R0DlxJrB0uCxQNyaKUDieafBVpHjQDKgOEDAXYfBVdamQGSwkEAEpoXBNM7NQBn79UDc0sXBIgy0
QITzSEC764nBptBHQLr/N8Bo+ZHBfxihQAAOiMB+spTBdLLIQDTRN0BrVp3B8taEQAJ8OkD+BKXB
/Ac1QMr1VEAlf5XBIs3bQJB1y0ComsjB847qQMPiaL9aEbzBBCLLQGLlJ8C5BrDB3zLgQJLewD+G
RrjBD42JQNGLQ0CabrrBVvv3QMCyi0AneKjB952bQJL+lEBL5sjB+tgEQUdEv0Ao+LbBe2KSQHsy
+z4o+JzBwRZCQFbqiL91o5rBoznPQObBZMD/u5/Bp5ddQAF3lsAeKIrBTKToQI3bPEAxWX3BKKPs
QD7b8D9vLYrBWF/3QC3taEDJbIvB3/6sQEk5kkBG/HnBz4O5QPGkqUCbvInBxIuEQFTWlUBwKYfB
CHTVQAcPBkGkZMzBUwirQHDU9UAmdcTBZT7eQFY5AEHQfr7BPb2gQMrnF0Ap2oXBvPNZQJflO0C0
WKrBzjb8PwhfVUBempnB+IY0QM5dXkBzlY3BTTTtQJj92L5ncLHBqRHXQGVZub+iCqzBMyTjQAml
bD83bK/BvWqkQJTgVUCuM7jBp27eQNcskkCfe6/BwsepQMrZgkDtbsHBybrjQIqrqkC13bjBO8Ss
QPzPYz6IpaLBcxa0QBx7U8CO6prBLh9nQILg/L8iG5zBNplpQH9XfsB8gZLB55i2QEhuj7/xoqTB
cyqfQP/GCcDSsZ7B0w6+QAQKZUDNKq/B8fvBQLA+oD+RJKjBvTnJQIBWo0AJ3sHBByGtQCiuWEBK
xZTBoXeCQHQ8T0AzypnBh+G1QM8+LEBiqKXBJ9DlQPjDgkB6vYfBYimcQDyaokAEn4bB9RGxQFS1
tUAJntPBA6u1QMyvc0C0WYnBnaGeQB03hsAP1ZTBiBU+QET3OMA4FZbB1xXLQNu2RkB90pvBS/GH
QB3QMkBEcaPB7kg1QHxtYEBVa5XBGdfOQBN/vECz3crBBPgCQateLL9LIrfBeureQCPhHsAvkK3B
t630QMnN2j/Ua7PB+UiMQMVwJEAz8rfBC83yQHR/l0CIoajB9t+VQPlSeUAhU8jBrhz8QBMhw0DB
L7nB6oyUQFaT8D4Hz5zB3UnVQH98XsDA4ZzB0jlFQAlnjb8/9p7BO0FIQFwylsCrl43BqpjrQAqM
jECV0n7BQDH4QJsmS0BMfonBzfnvQDWInECvK43Bc7WiQI//q0CMmXzBc8+lQJ2gvECBCIzB1X5z
QIZJnECNlYfBFuq4QJ+Ey0CLPdrB2XOzQFlmlEBxZtbB+kWQQLkNvEDR19DB49SrQEMLQEAP5oPB
zg9hQOjDI0DCj6jBPV8AQH38VkAdw5nBI7UwQBdHdkD3643BSYDCQLaOIL/r5LXBwS60QAmQyL+e
bK7BMT/BQFb8PD+iarPBzVqjQMSQakBY77jBXBPkQLIbiED/9q7BjVGxQLjXjUCbnMHBcYvxQOKd
oUBwmbfBSiKhQFADZj5MG6LBXz+cQG53XMAOXJ3BU8/CQH+L5r/q7JLBqHTMQPO2gsCXDpDBPVil
QLZikr+YUqTBLJWnQHSRBsAJlZvBD3W8QLR7ZEAVjK/BHjSvQIBGlz94nqnBx9zXQEfBpECD6MDB
XYaoQDS8SkBBHZXBbzl8QLz5VUAFCJrBqP6sQFogKkBNmKbB1B3aQFYGKkBt1oXBoJe1QBXSnECU
XofBTbbsQKv+6UAQjMbBlUWxQKAXWUDyYonBSPKuQG9bjcAuj5fB/DXVQBo1M8DkXI3BUpnEQPIh
NkBZgpzBm6KAQKCnQEC0FqTBXWMzQMiQckDW0JTBPxjjQKhTvkBAZcnBk4LOQFEmdL8pkL3B0ny0
QBCUJ8DeZLDBCRjOQKuouj96/7jBETGFQCYJSUB+Z7nBnd33QCM1hUA666fB2nieQM0uj0Cj2MjB
YrsHQbXQskCtIrfBJxuTQCjZCz82pJrBqqeEQF10bMA5WaPBcePIQI/dRb9Fw5DBxbLdQGcMnMAG
EIzBtbPfQGeYNUBninrBqkvWQKThyT9rPIfBhJD1QGPeQUCceIrBdvy7QD2AokCTqn3BUjHQQByW
qUAkK4zBKrGXQAb4rEAHqonBYVX1QNMQ/EDryM3BHXnQQDyw+ECUysLBOtUDQSSM6kCU48DBNB2W
QEmrQECPsYTBs3FQQGbQP0B5QqnBd574P8xReEBz05jBGOY1QBC5gECVCo3B

>  <OMEGA_E>  (9) 
IG1LPjB7TD6QNU0+cJHIPlgnJj8=

>  <OMEGA_NBR>  (9) 
     66665

$$$$
50220828
     RDKit          3D

 48 51  0  0  1  0  0  0  0  0999 V2000
    6.6814   -0.5398  -22.7803 C   0  0  0  0  0  0  0  0  0  0  0  0
    5.2701   -4.2778  -18.6132 C   0  0  0  0  0  0  0  0  0  0  0  0
    6.2014   -1.5235  -21.9003 C   0  0  0  0  0  0  0  0  0  0  0  0
    5.7643   -3.3124  -19.5100 C   0  0  0  0  0  0  0  0  0  0  0  0
    6.4588    0.8236  -22.5118 C   0  0  0  0  0  0  0  0  0  0  0  0
    3.9896   -4.1260  -18.0471 C   0  0  0  0  0  0  0  0  0  0  0  0
    5.1652    3.7384  -23.2958 C   0  0  0  0  0  0  0  0  0  0  0  0
    7.0293    4.5439  -21.9788 C   0  0  0  0  0  0  0  0  0  0  0  0
    5.2262    0.2171  -20.5017 C   0  0  0  0  0  0  0  0  0  0  0  0
    3.7225   -2.0118  -19.2268 C   0  0  0  0  0  0  0  0  0  0  0  0
    5.5194    4.6641  -24.2994 C   0  0  0  0  0  0  0  0  0  0  0  0
    7.3207    5.4515  -23.0188 C   0  0  0  0  0  0  0  0  0  0  0  0
    5.4829   -1.1468  -20.7487 C   0  0  0  0  0  0  0  0  0  0  0  0
    4.9931   -2.1677  -19.8094 C   0  0  0  0  0  0  0  0  0  0  0  0
    5.7103    1.2173  -21.3749 C   0  0  0  0  0  0  0  0  0  0  0  0
    5.9203    3.6762  -22.1030 C   0  0  0  0  0  0  0  0  0  0  0  0
    3.1944   -3.0099  -18.3773 C   0  0  0  0  0  0  0  0  0  0  0  0
    5.4060    3.1586  -18.7761 C   0  0  0  0  0  0  0  0  0  0  0  0
    4.0481    3.2009  -19.3458 C   0  0  0  0  0  0  0  0  0  0  0  0
    5.5234    2.6920  -20.9875 C   0  0  2  0  0  0  0  0  0  0  0  0
    5.7266    3.3618  -17.3146 C   0  0  0  0  0  0  0  0  0  0  0  0
    0.9604   -2.1537  -18.6485 C   0  0  0  0  0  0  0  0  0  0  0  0
    6.5717    5.5039  -24.1470 N   0  0  0  0  0  0  0  0  0  0  0  0
    6.2754    2.9103  -19.7303 N   0  0  0  0  0  0  0  0  0  0  0  0
    4.1215    2.9492  -20.6270 N   0  0  0  0  0  0  0  0  0  0  0  0
    2.8894    3.4644  -18.6314 N   0  0  0  0  0  0  0  0  0  0  0  0
    1.9015   -2.9540  -17.8869 O   0  0  0  0  0  0  0  0  0  0  0  0
    7.2240   -0.8311  -23.6675 H   0  0  0  0  0  0  0  0  0  0  0  0
    5.8738   -5.1365  -18.3588 H   0  0  0  0  0  0  0  0  0  0  0  0
    6.3830   -2.5680  -22.1064 H   0  0  0  0  0  0  0  0  0  0  0  0
    6.7326   -3.4467  -19.9690 H   0  0  0  0  0  0  0  0  0  0  0  0
    6.8609    1.5742  -23.1761 H   0  0  0  0  0  0  0  0  0  0  0  0
    3.6153   -4.8677  -17.3571 H   0  0  0  0  0  0  0  0  0  0  0  0
    4.3208    3.0803  -23.4384 H   0  0  0  0  0  0  0  0  0  0  0  0
    7.6486    4.5123  -21.0946 H   0  0  0  0  0  0  0  0  0  0  0  0
    4.6514    0.5018  -19.6328 H   0  0  0  0  0  0  0  0  0  0  0  0
    3.1456   -1.1218  -19.4304 H   0  0  0  0  0  0  0  0  0  0  0  0
    4.9391    4.7044  -25.2093 H   0  0  0  0  0  0  0  0  0  0  0  0
    8.1614    6.1212  -22.9132 H   0  0  0  0  0  0  0  0  0  0  0  0
    6.8119    3.2705  -17.1607 H   0  0  0  0  0  0  0  0  0  0  0  0
    5.3950    4.3631  -17.0024 H   0  0  0  0  0  0  0  0  0  0  0  0
    5.2061    2.5999  -16.7158 H   0  0  0  0  0  0  0  0  0  0  0  0
   -0.0263   -2.1864  -18.1634 H   0  0  0  0  0  0  0  0  0  0  0  0
    1.3140   -1.1130  -18.6903 H   0  0  0  0  0  0  0  0  0  0  0  0
    0.8803   -2.5550  -19.6696 H   0  0  0  0  0  0  0  0  0  0  0  0
    3.3477    2.9340  -21.2603 H   0  0  0  0  0  0  0  0  0  0  0  0
    2.0052    3.4729  -19.0984 H   0  0  0  0  0  0  0  0  0  0  0  0
    2.9379    3.6458  -17.6492 H   0  0  0  0  0  0  0  0  0  0  0  0
  1  3  2  0
  1  5  1  0
  2  4  2  0
  2  6  1  0
  3 13  1  0
  4 14  1  0
  5 15  2  0
  6 17  2  0
  7 11  2  0
  7 16  1  0
  8 12  1  0
  8 16  2  0
  9 13  2  0
  9 15  1  0
 10 14  2  0
 10 17  1  0
 11 23  1  0
 12 23  2  0
 13 14  1  0
 20 15  1  6
 16 20  1  0
 17 27  1  0
 18 19  1  0
 18 21  1  0
 18 24  2  0
 19 25  2  0
 19 26  1  0
 20 24  1  0
 20 25  1  0
 22 27  1  0
  1 28  1  0
  2 29  1  0
  3 30  1  0
  4 31  1  0
  5 32  1  0
  6 33  1  0
  7 34  1  0
  8 35  1  0
  9 36  1  0
 10 37  1  0
 11 38  1  0
 12 39  1  0
 21 40  1  0
 21 41  1  0
 21 42  1  0
 22 43  1  0
 22 44  1  0
 22 45  1  0
 25 46  1  0
 26 47  1  0
 26 48  1  0
M  CHG  1  25   1
M  END
>  <OMEGA_C>  (10) 
1s3VQAgyCr8SPrbB1KSoQCLkiMDZ55TB0HHGQIACw7/YM6/B9nS4QPT9U8CEFJzBxq7OQDHWUj8W
GLTBZVZ/QO4HhMB4YJDBKEmlQG1Cb0DeXbrBtO/gQH9nkUCK1K/BJj2nQOdYXj6GA6TB2zxuQEzB
AMBw0JnBQJ+wQClAlUAdZcLBPEPqQM5yrkBxJrjBFHSvQOLKkr9j/aXBNsefQPS6CsC7eZ7Btrq2
QBLSmz/D/6rBZnO9QIlGa0Di0rDBWnFMQNihQMCmBJPBoP2sQMgmSkBbNZbBMYqBQArcTEAmxJrB
0L+wQCRKLEB55qfBPkC3QMsnV0BmhIrBudx1P6vWCcAoMJXBokvSQJofsEAVLcHBTtDIQPVCOkCT
153BCuODQBC/PEAcBKXBx+s4QA24XUAoDZXByGPzP3AOPcBMGI/BsyrnQNnEVL8UV73BD/a7QA5e
pMDE3pLBkkHMQCtaJMDY2bDBpnHXQPOWXMCAwJ/BzYzbQKJ+yT+caLnBrmFnQELEm8BU24rB7EOK
QDYkRUDNgbvBi8H0QJNkkEC5wajBZdiUQGhzAD8CEJ3BuFBJQK6Wj79mcZvBIA2eQBSKlkCqrMnB
R5UCQXrgw0A5TrfBX/vZQCFQUUAhSYnBKqSsQH2ei0D1BIjBRpimQPFkJkAAuoXBu1/XvAfuC8CP
TpHBwTGoP0t1jr+4hZXBRFlhP3qFI8BEW53BNEBWQC/GO0ADFarBjVQAQJ9DXkCFyZjBZwY8QGVV
aUCdMY3B81LaQKryBb/BzLTB25U1QBzuLsBbLJPBUVTFQDPBvb+Ve67BmclYQPLY5783dJrB3cLT
QFMWWT8Q5bLB+RZkQJ5/eMBKRJDB0xngQDxNk0CAJrDBUw+mQDvNa0CdqbrB/BijQA4Zlz7ZU6TB
z5GrQAwJTsCDTZzB9cvoQHuNr0AprbjBT6KwQJTwkkDC4cLB8oKpQOJdib+NMKbBwP+UQL6YA8Cz
E5/BfF+3QHptoj/0uarB1sC9QIxIbEBPCbHBJvWaQGOcg8B2oZTBSF6tQHwFTUBEM5bBbNWBQMA+
TUBPvprBCmOxQMiyL0Be36fBVoO3QKP9WUDfgIrBa4bgQNtwnsD0NZDBdzfRQP8zr0DZxsHBGGPJ
QAE/P0Cd253BDX2EQCTaQEBbEaXB1bI4QE18WEB3+5TB07WyQAyppcCC3pDBVozvQMzdVr/jIbvB
kMTtPwfDI8Dj0I/BlHTKQNwxIsBW96/Bw881QOeIar8VhJzBQmrkQPF8yj+GrLfBpv9IQAPfksBo
rorBpojzQNH1k0DvAanBSP+LQAg0P0A1uLvBGVCOQKqqGz8N5Z3BpOjJQN6bW8CcE6DB2XEBQScF
xkCQ77fBXl6eQLGlkkBaN8rBXlPaQOMvVkCXSonB5PSrQG6hjED+8YfBeKOnQG/6J0Clv4XBIkzw
QLxou8A3I43BuxPtQCPxlsA1N5jBKezmQCV9g8D0x4rBJwJYQMm6QkCjNqrBBTQAQEZ8V0A1vZjB
wRw7QCiYYUDJEY3B7IbGQFB8B78cGbjBCB6CQN8sj8DzCZvBzYq6QH/OxL+u3rDBkgWOQCMZX8As
eKLBZEfDQNrQUj8bKLXBeL6GQFOYh8C//Y/BZt6gQAjngUBgA7jBBhXpQBDUfkCd/7DBOcanQEuB
Jz6PsqPBvpGjQGeRAcD1x5PBgvevQHpHnEDVU8DBz/H1QJbZmUBSi7nBDCarQDpRmb/Il6bBSb2e
QOISEMBp4J7BitazQACZlz8Y3qrBdpe9QJ+HZ0ANCrDBAnKXQIPKQMBZP4zBC4yrQLtjUkB39pXB
OA+AQLw7VED/iJrBKumuQHZfKUBVVKfBBZ62QPfCaUBckYrB+dmrQG02yL/6/HrBcqXZQITqp0C+
98DBN+jGQNC9OEDXR53BB/eBQC3rOUD2c6TBKnk2QIeLbEAbIpXBU1ObQPCYNcADQIHBwEbSQMhc
S78U8b/BEs1qQOBWrcAvz53Bfxm9QD7TJMBXLLPBa2OKQITnasAR76rBe5TMQCXtyz//wLrBxdp6
QNL/n8CPVYrB+Dl/QBAgcUBdvLfB7SAAQVtXaED8PKvBe8WbQHNM2j5x35vBiKmwQB0bi7+OA5HB
5s2ZQBh/p0CvVcbBdJELQfMeo0CQMbrBWD3ZQBAKYkCoTonBmoqtQINYlkBMDYnBYx+lQAaVP0BD
C4XBjimtQBqfyL+FZmnBOTTMQBshtL/ouYDBG7aWQAPAQL9uNoDB2LZRQK88MkCnUanBALD7P7rE
akCU2pjBrQM6QNbYf0DChI3Bd/nIQM2SFb+gD7fBkm9SQNiqYcBduJPBA++2QA5fx79FZrDBmlNe
QCyPH8DlRZvBrBrGQBHmRT9wTLTBOteMQFJXh8Din4/BKcLlQNOIiUAfcK/BnEemQBo5c0DoybnB
DRidQHS6PT4QVqTBDQy8QNDlO8AgFpvBqRTzQHPtpEAWxbfBNb+1QHUnlUCN2MHB/JuhQJjolr8i
9qbB78OYQIzODcAeC5/BgoevQOMPlz+JAKvBrEa+QIxyZ0CwUbDBOJq2QAzgecCSH5PBFAmrQHI7
SUAy6pXBqvh/QEqrUkBSlJrBeRSuQHT+KUC5kKfBHJK1QPgLVkA2PYrBl0rfQFnCiMCLU4PBUETb
QK9mqkDrucDBQjrGQPb2MkCYb53BgROCQEYYQkCxz6TBW6g2QI4xaUCYApXBDKXaQM1ej8A/u47B
Dh3ZQIu4YL/LVL7BsrASQEjhccCfEJHBRWO5QGmIJsBugrLBUlEoQMv59b/QIZ7BOT3VQDwDwj9C
TbnBhS2IQIyBoMCE0YnBTZL5QGdChUCgcKjBZDmIQBktUkCw2brB5pmLQHpv8j4bQJ3Bu6DbQHdT
L8BpOZ7BQH8IQebztUCH/bbB4ESjQBlnmUDSEcnBQtbXQAfZSUCY7IjB8PutQP8cjEDV6YfBII+i
QHVpKUBlXoXBDLv8QDN3mMAShoDBLh3hQP+CTMAUpYHB84zDQJqGlsBaSX7BNCxTQExTRUDb8anB
O279P0znbUDs2ZjBTrM5QHi8dECIJo3BbgXKQLXKGL8AqLbBHorJQN/vi8Aq7pfBWGq+QBifxr/l
Ba/BtwWxQLADXsAI753B98DFQPOMRD+eW7TBj0LkQNraecDnro/BF5OmQMYRa0DbXLrBR4HhQFCN
j0CNnq/ByxqnQJnaXz5X9aLBgfbLQFhw0L/6+5LB2y60QNjTkEC+q8LBntHsQESpqkDzL7jBgeGu
QKThkr9j6qTBOZS0QAhhBcAZ+ZvBWT2zQAr0mD/QlKrBYaK9QG6UaECLo7DB+7nkQLNuIsBu5IzB
qJmsQCdCTUD7BZbBkRGBQMD3T0AJj5rBp6SvQEWaK0Cam6fBok+3QDTzXEBWaYrB0cH4QAfAVb+D
BIDBu37WQB/eqkDZesHBoRLIQACoOUCemJ3BRzeDQO9AP0DZyaTBRuc3QGBJYUAk5ZTBj+D/QLlB
CcA/qYTBs0nWQOFLab/5VL7BAOjHQDjGrcDSo5nBdVbBQHuYJsBe3LDBH36bQFI9dcB+CaTBBKrQ
QIgkwD+TFbrBop/4QDwfk8BzcovBdqGKQKZKQ0AfbLvBDhr0QESfj0A9VqjBzs2XQBPUBT9zmpvB
8erKQOrIFb9yxJDBF9+iQPb5kEAPJsrBB/oDQezHv0CgUbfBFvnZQNV4VUBaMonB1KytQIAjj0CC
L4jBghSmQI6KLkByY4XB7i0IQVH2J7+PS3PBEzT8QDOfhr20P4bB1kvYQNv8Sb+qRHnBtgVVQKjK
P0Bu36nBAdL+P6SpYUB4p5jBANI6QPdobUBjDI3BBpvJQN6pFL/WxLbB07zKQDuOi8CgxZfBlu++
QMHJxL9MDq/BTWqyQBhsXMA8sp3BGy/FQAa+SD/1drTB7GTnQJMOesDL34/BnOLjQBtPjEDnHbDB
VmKkQBOjcEAIA7rBlp6oQPK3aj592aLBaGHRQMlwzr+lV5PBiPzuQLmsp0BeprjBMc+xQCm7k0Dj
UMLBFYewQMkKkb/Y2aTBu623QOPvA8By8pvByp6zQL5mmj+MkarBQ4S9QK3saEAJqbDBTUTqQId9
IcAMa43BR3CsQC5/TUDpB5bBNeOAQBCMT0BOjZrBCZ2vQOIdLEA9nqfB5RK3QO+DXEDOZ4rBad0R
QYBzOsCVtoDBhTbWQMQJq0DmgcHBDwDIQMTbOkCinp3BbhKDQG3ZPkDhx6TBxX83QCl2YEAp4JTB
HwsDQVGa/7+jzYXBGEPVQEfQZL/jgb7BUnnHQMNurcAWRpnB+7nBQIOrJcBX6bDBzrybQAXzcsCY
k6PBjzvPQFWCwj+PRbrBm077QBGxk8DEqIvB84n4QDyZiUD/OKnBrAeHQG+xTEC7yrrBVBeaQOXl
Bz8FZJvB7OfRQDE8EL/vTZHBLPkFQUBpukBqHLjBF6aeQCU0lkDbesnBEcPZQJh6VUBEMonB6i+t
QCnEjkCJG4jB3AOmQBd9LUCSb4XBRcsbQb5UF8DV2HXBwdgIQSTObMDnD3nBmTIcQXK8V8AV04bB
36xUQInZPkBF26nBT+79P0KHYEAhoJjBem46QOCZbECIB43B

>  <OMEGA_E>  (10) 
WJDrPixV7T7m6SE/mNoMP1bATT9SBFA/

>  <OMEGA_NBR>  (10) 
     71923

$$$$
