288429
     RDKit          3D

 41 45  0  0  1  0  0  0  0  0999 V2000
    5.9610   -1.3365  -21.7350 C   0  0  0  0  0  0  0  0  0  0  0  0
    6.4097   -0.3278  -22.6011 C   0  0  0  0  0  0  0  0  0  0  0  0
    5.3119    0.3490  -20.0990 C   0  0  0  0  0  0  0  0  0  0  0  0
    5.7849   -3.2957  -19.4908 C   0  0  0  0  0  0  0  0  0  0  0  0
    3.9701   -1.9415  -18.6428 C   0  0  0  0  0  0  0  0  0  0  0  0
    4.3537   -4.1012  -17.8313 C   0  0  0  0  0  0  0  0  0  0  0  0
    5.4397   -1.0082  -20.4653 C   0  0  0  0  0  0  0  0  0  0  0  0
    5.0616   -2.0842  -19.5244 C   0  0  0  0  0  0  0  0  0  0  0  0
    5.7706    1.3731  -20.9627 C   0  0  0  0  0  0  0  0  0  0  0  0
    6.3731    1.0201  -22.2046 C   0  0  0  0  0  0  0  0  0  0  0  0
    4.2620    3.3587  -18.8010 C   0  0  0  0  0  0  0  0  0  0  0  0
    6.5001    3.0465  -19.2337 C   0  0  0  0  0  0  0  0  0  0  0  0
    7.3827    3.1880  -22.4109 C   0  0  0  0  0  0  0  0  0  0  0  0
    5.0676    4.2129  -22.7149 C   0  0  0  0  0  0  0  0  0  0  0  0
    6.2381    5.3125  -21.3748 C   0  0  0  0  0  0  0  0  0  0  0  0
    5.6950    2.8373  -20.5155 C   0  0  1  0  0  0  0  0  0  0  0  0
    6.1750    3.7639  -21.6784 C   0  0  0  0  0  0  0  0  0  0  0  0
    5.4248   -4.2809  -18.6426 N   0  0  0  0  0  0  0  0  0  0  0  0
    3.6279   -2.9550  -17.8178 N   0  0  0  0  0  0  0  0  0  0  0  0
    4.3293    3.1875  -20.1016 N   0  0  0  0  0  0  0  0  0  0  0  0
    3.0805    3.5926  -18.1158 N   0  0  0  0  0  0  0  0  0  0  0  0
    6.9707    1.9516  -23.0417 O   0  0  0  0  0  0  0  0  0  0  0  0
    5.5084    3.2537  -18.2168 O   0  0  0  0  0  0  0  0  0  0  0  0
    5.2170    5.5375  -22.3009 O   0  0  0  0  0  0  0  0  0  0  0  0
    6.0149   -2.3706  -22.0419 H   0  0  0  0  0  0  0  0  0  0  0  0
    6.7858   -0.5890  -23.5792 H   0  0  0  0  0  0  0  0  0  0  0  0
    4.8607    0.6083  -19.1527 H   0  0  0  0  0  0  0  0  0  0  0  0
    6.6310   -3.4347  -20.1475 H   0  0  0  0  0  0  0  0  0  0  0  0
    3.4068   -1.0201  -18.6273 H   0  0  0  0  0  0  0  0  0  0  0  0
    4.0663   -4.9037  -17.1682 H   0  0  0  0  0  0  0  0  0  0  0  0
    7.1092    2.1588  -19.0078 H   0  0  0  0  0  0  0  0  0  0  0  0
    7.1540    3.9264  -19.3244 H   0  0  0  0  0  0  0  0  0  0  0  0
    7.7314    3.8992  -23.1742 H   0  0  0  0  0  0  0  0  0  0  0  0
    8.1947    2.9904  -21.6956 H   0  0  0  0  0  0  0  0  0  0  0  0
    5.3393    4.0376  -23.7663 H   0  0  0  0  0  0  0  0  0  0  0  0
    4.0711    3.7906  -22.5184 H   0  0  0  0  0  0  0  0  0  0  0  0
    5.9729    5.5783  -20.3409 H   0  0  0  0  0  0  0  0  0  0  0  0
    7.1963    5.7831  -21.6400 H   0  0  0  0  0  0  0  0  0  0  0  0
    3.5545    3.2827  -20.7265 H   0  0  0  0  0  0  0  0  0  0  0  0
    3.0917    3.6989  -17.1216 H   0  0  0  0  0  0  0  0  0  0  0  0
    2.2166    3.6550  -18.6157 H   0  0  0  0  0  0  0  0  0  0  0  0
  1  2  2  0
  1  7  1  0
  2 10  1  0
  3  7  2  0
  3  9  1  0
  4  8  2  0
  4 18  1  0
  5  8  1  0
  5 19  2  0
  6 18  2  0
  6 19  1  0
  7  8  1  0
  9 10  2  0
  9 16  1  0
 10 22  1  0
 11 20  2  0
 11 21  1  0
 11 23  1  0
 16 12  1  1
 12 23  1  0
 13 17  1  0
 13 22  1  0
 14 17  1  0
 14 24  1  0
 15 17  1  0
 15 24  1  0
 16 17  1  0
 16 20  1  0
  1 25  1  0
  2 26  1  0
  3 27  1  0
  4 28  1  0
  5 29  1  0
  6 30  1  0
 12 31  1  0
 12 32  1  0
 13 33  1  0
 13 34  1  0
 14 35  1  0
 14 36  1  0
 15 37  1  0
 15 38  1  0
 20 39  1  0
 21 40  1  0
 21 41  1  0
M  CHG  1  20   1
M  END
>  <OMEGA_C>  (1) 
ZcC+QMATq78x4a3BVxzNQBjXp74Az7TB//qpQD6usj7HyqDB1B25QJ7sUsAi7ZvB5hZ+QA6C+L9+
JJXBf1GLQCg9g8B5po7B8BGuQFMOgb/XuKPB7fihQA9kBcD5MZzBHKm4QAnDrz+Es6fBIfDLQAGS
gj/vorHBhGKIQHr0VkByaJbB6wDQQIP5QkCi3pnBXj/sQNQHTECHSbPB0ymiQNLPhkAnuLXB3p7H
QOL/qUCL/6rBTj22QFCWNUDGH6TBe5nFQCLkcEBgba3Bt5etQD79iMAfJJXBwS5oQA4ePcDNio7B
gomKQEP/S0D6z6DBdyZFQMXsZUA97ZDB2Q/fQPrN+T9mVbjBF0WwQNA8UED9u5HBgfGmQIIzsUBK
aLLB/3nAQMm3F8DdVbDBriXZQAXJFr8rorzBsYqbQHW8Gz+xOJnBBDHUQJ7RW8D9LaHByglaQOKT
gr+cBJXBuR6CQGzrnMBmWInBjX7jQLcpCkD7D5jBLu3kQD9Ke0BQmJrBimf3QKaMeUC3ZLnBsh0D
QU1jP0CokK3BMtuqQGM0gUB6Ib7BFkaCQNyZckC6JbTB9SG/QESBskARuqLBa0jmQEgPuUDOHq3B
sHxjQJoXUkD2z6XBId5FQCW7bED7+IjBxdwNQPTraUDg7JTB

>  <OMEGA_E>  (1) 
YHLkPg==

>  <OMEGA_NBR>  (1) 
     21696

$$$$
288415
     RDKit          3D

 51 55  0  0  1  0  0  0  0  0999 V2000
    5.7999   -5.3757  -18.2366 C   0  0  0  0  0  0  0  0  0  0  0  0
    6.3770   -6.4203  -18.0266 C   0  0  0  0  0  0  0  0  0  0  0  0
    5.9869   -1.3301  -21.6969 C   0  0  0  0  0  0  0  0  0  0  0  0
    6.4516   -0.3358  -22.5744 C   0  0  0  0  0  0  0  0  0  0  0  0
    5.6109   -3.2195  -19.3812 C   0  0  0  0  0  0  0  0  0  0  0  0
    5.3156    0.3898  -20.1084 C   0  0  0  0  0  0  0  0  0  0  0  0
    3.9716   -3.8381  -17.6943 C   0  0  0  0  0  0  0  0  0  0  0  0
    3.7949   -1.7439  -18.7197 C   0  0  0  0  0  0  0  0  0  0  0  0
    5.1215   -4.1453  -18.4493 C   0  0  0  0  0  0  0  0  0  0  0  0
    5.4237   -0.9685  -20.4547 C   0  0  0  0  0  0  0  0  0  0  0  0
    4.9387   -1.9920  -19.5167 C   0  0  0  0  0  0  0  0  0  0  0  0
    5.7848    1.3949  -20.9761 C   0  0  0  0  0  0  0  0  0  0  0  0
    6.3913    1.0228  -22.2097 C   0  0  0  0  0  0  0  0  0  0  0  0
    4.2733    3.3240  -18.8030 C   0  0  0  0  0  0  0  0  0  0  0  0
    6.5162    3.0609  -19.2473 C   0  0  0  0  0  0  0  0  0  0  0  0
    7.3842    3.1906  -22.4483 C   0  0  0  0  0  0  0  0  0  0  0  0
    5.0746    4.2438  -22.7181 C   0  0  0  0  0  0  0  0  0  0  0  0
    6.2788    5.3220  -21.3908 C   0  0  0  0  0  0  0  0  0  0  0  0
    5.7111    2.8571  -20.5312 C   0  0  1  0  0  0  0  0  0  0  0  0
    6.1893    3.7761  -21.6983 C   0  0  0  0  0  0  0  0  0  0  0  0
    8.8279   -8.5963  -16.3758 C   0  0  0  0  0  0  0  0  0  0  0  0
    7.0724   -7.6669  -17.7479 C   0  0  0  0  0  0  0  0  0  0  0  0
    3.3300   -2.6576  -17.8391 N   0  0  0  0  0  0  0  0  0  0  0  0
    4.3454    3.2088  -20.1101 N   0  0  0  0  0  0  0  0  0  0  0  0
    3.0858    3.5081  -18.1119 N   0  0  0  0  0  0  0  0  0  0  0  0
    6.9688    1.9482  -23.0647 O   0  0  0  0  0  0  0  0  0  0  0  0
    5.5212    3.2108  -18.2216 O   0  0  0  0  0  0  0  0  0  0  0  0
    5.2555    5.5662  -22.3086 O   0  0  0  0  0  0  0  0  0  0  0  0
    8.0840   -7.4207  -16.7516 O   0  0  0  0  0  0  0  0  0  0  0  0
    6.0608   -2.3714  -21.9734 H   0  0  0  0  0  0  0  0  0  0  0  0
    6.8578   -0.6157  -23.5352 H   0  0  0  0  0  0  0  0  0  0  0  0
    6.4817   -3.4432  -19.9795 H   0  0  0  0  0  0  0  0  0  0  0  0
    4.8673    0.6658  -19.1654 H   0  0  0  0  0  0  0  0  0  0  0  0
    3.5956   -4.5610  -16.9855 H   0  0  0  0  0  0  0  0  0  0  0  0
    3.2803   -0.7995  -18.8181 H   0  0  0  0  0  0  0  0  0  0  0  0
    7.1548    2.1883  -19.0456 H   0  0  0  0  0  0  0  0  0  0  0  0
    7.1407    3.9637  -19.3187 H   0  0  0  0  0  0  0  0  0  0  0  0
    7.7196    3.8962  -23.2226 H   0  0  0  0  0  0  0  0  0  0  0  0
    8.2079    2.9996  -21.7447 H   0  0  0  0  0  0  0  0  0  0  0  0
    5.3263    4.0618  -23.7733 H   0  0  0  0  0  0  0  0  0  0  0  0
    4.0735    3.8407  -22.5052 H   0  0  0  0  0  0  0  0  0  0  0  0
    6.0249    5.5887  -20.3543 H   0  0  0  0  0  0  0  0  0  0  0  0
    7.2424    5.7782  -21.6613 H   0  0  0  0  0  0  0  0  0  0  0  0
    9.5769   -8.3294  -15.6157 H   0  0  0  0  0  0  0  0  0  0  0  0
    8.1399   -9.3493  -15.9638 H   0  0  0  0  0  0  0  0  0  0  0  0
    9.3346   -9.0080  -17.2611 H   0  0  0  0  0  0  0  0  0  0  0  0
    6.3572   -8.4134  -17.3723 H   0  0  0  0  0  0  0  0  0  0  0  0
    7.5436   -8.0413  -18.6687 H   0  0  0  0  0  0  0  0  0  0  0  0
    3.5759    3.3421  -20.7346 H   0  0  0  0  0  0  0  0  0  0  0  0
    3.0924    3.5687  -17.1138 H   0  0  0  0  0  0  0  0  0  0  0  0
    2.2226    3.5804  -18.6116 H   0  0  0  0  0  0  0  0  0  0  0  0
  1  2  3  0
  1  9  1  0
  2 22  1  0
  3  4  2  0
  3 10  1  0
  4 13  1  0
  5  9  2  0
  5 11  1  0
  6 10  2  0
  6 12  1  0
  7  9  1  0
  7 23  2  0
  8 11  2  0
  8 23  1  0
 10 11  1  0
 12 13  2  0
 12 19  1  0
 13 26  1  0
 14 24  2  0
 14 25  1  0
 14 27  1  0
 19 15  1  1
 15 27  1  0
 16 20  1  0
 16 26  1  0
 17 20  1  0
 17 28  1  0
 18 20  1  0
 18 28  1  0
 19 20  1  0
 19 24  1  0
 21 29  1  0
 22 29  1  0
  3 30  1  0
  4 31  1  0
  5 32  1  0
  6 33  1  0
  7 34  1  0
  8 35  1  0
 15 36  1  0
 15 37  1  0
 16 38  1  0
 16 39  1  0
 17 40  1  0
 17 41  1  0
 18 42  1  0
 18 43  1  0
 21 44  1  0
 21 45  1  0
 21 46  1  0
 22 47  1  0
 22 48  1  0
 24 49  1  0
 25 50  1  0
 25 51  1  0
M  CHG  1  24   1
M  END
>  <OMEGA_C>  (2) 
mpi5QKkFrMCL5JHBSRDMQHRzzcBoNpDBjJS/QBY/qr9Kk63BkHPOQEHzq75nmLTBzIyzQLwLTsCp
DJvBoxmqQLmSxz4M3qDBYC9+QI+jdcDwjY3BRN9yQAQ537/ewZXBoOOjQO+lhMAsmJPB6Y6tQGru
d79Eo6PB5QmeQDj4/r85IpzBbR25QICNsj8ez6fBt4XMQJHrgj9krbHBCL+IQAC8VEB1bJbB34TQ
QIfmQ0CQ+pnBQUvsQAQyTEAYlrPBxGKiQAvNh0CTvrXBq+vIQJZNqkBfIKvBrsG2QHraNkD3P6TB
3w7GQGiscUAJlq3B9T4NQW6KCcGNAYPBDVHiQOpW9cDK+43BIB9VQIUVKsBvto7B1w2LQElcTUBx
4aDBRn5FQFKFYEBB5ZDBWADfQKZf+T9zhLjB2q2wQM59TUDcxZHBZC2oQBweskAFeLLB+1cBQVV2
7cAwA4bBCvLBQMHFF8B+ya/BI3PbQJ6eHb8QSLzBdWrPQAZeXMAT1p/B78CbQNxwKj/OUpnB/B1m
QBf0kcBn4ofBoPBRQImsTL+Bi5bBUfTkQCwNDEB9XZjBzYDkQLGsfUC1jJrBpQb3QPNaeUD3x7nB
fFMDQXD5P0Ab9a3BOHGqQKb6gUCxL77BzVmCQJfNdUCcCrTBz8vAQMXWskCR1aLBIcLnQCTnuEBU
Sq3BIDsZQWVFBcHl2XnB6DwCQZaWFcHLa3/BbloVQaQgEMGqForB7G3LQE6dBsFv+orB12TxQDup
AMF9WZXBVttkQOXkVUBv4KXBuulFQJplZEAP6YjBdj8OQLolZUCH5JTB

>  <OMEGA_E>  (2) 
8p0sPw==

>  <OMEGA_NBR>  (2) 
      9771

$$$$
288427
     RDKit          3D

 42 46  0  0  1  0  0  0  0  0999 V2000
    5.9279   -1.3249  -21.7895 C   0  0  0  0  0  0  0  0  0  0  0  0
    6.3776   -0.3061  -22.6431 C   0  0  0  0  0  0  0  0  0  0  0  0
    5.3440    0.3362  -20.1067 C   0  0  0  0  0  0  0  0  0  0  0  0
    3.9144   -1.9430  -18.7524 C   0  0  0  0  0  0  0  0  0  0  0  0
    4.3369   -4.1470  -17.8286 C   0  0  0  0  0  0  0  0  0  0  0  0
    5.4524   -1.0172  -20.4964 C   0  0  0  0  0  0  0  0  0  0  0  0
    5.0578   -2.0997  -19.5617 C   0  0  0  0  0  0  0  0  0  0  0  0
    5.7838    1.3715  -20.9660 C   0  0  0  0  0  0  0  0  0  0  0  0
    6.3640    1.0343  -22.2220 C   0  0  0  0  0  0  0  0  0  0  0  0
    3.5484   -2.9818  -17.8845 C   0  0  0  0  0  0  0  0  0  0  0  0
    5.8116   -3.3030  -19.4488 C   0  0  0  0  0  0  0  0  0  0  0  0
    4.2590    3.3573  -18.7973 C   0  0  0  0  0  0  0  0  0  0  0  0
    6.4978    3.0375  -19.2225 C   0  0  0  0  0  0  0  0  0  0  0  0
    7.3764    3.2011  -22.4083 C   0  0  0  0  0  0  0  0  0  0  0  0
    5.0611    4.2292  -22.6921 C   0  0  0  0  0  0  0  0  0  0  0  0
    6.2380    5.3164  -21.3480 C   0  0  0  0  0  0  0  0  0  0  0  0
    5.6976    2.8317  -20.5078 C   0  0  1  0  0  0  0  0  0  0  0  0
    6.1729    3.7705  -21.6640 C   0  0  0  0  0  0  0  0  0  0  0  0
    5.4418   -4.2885  -18.5962 N   0  0  0  0  0  0  0  0  0  0  0  0
    4.3275    3.1678  -20.0951 N   0  0  0  0  0  0  0  0  0  0  0  0
    3.0800    3.6207  -18.1186 N   0  0  0  0  0  0  0  0  0  0  0  0
    6.9561    1.9748  -23.0524 O   0  0  0  0  0  0  0  0  0  0  0  0
    5.5024    3.2443  -18.2089 O   0  0  0  0  0  0  0  0  0  0  0  0
    5.2115    5.5496  -22.2660 O   0  0  0  0  0  0  0  0  0  0  0  0
    6.9546   -3.4778  -20.1543 F   0  0  0  0  0  0  0  0  0  0  0  0
    2.1191   -2.8381  -16.8944 Cl  0  0  0  0  0  0  0  0  0  0  0  0
    5.9458   -2.3516  -22.1241 H   0  0  0  0  0  0  0  0  0  0  0  0
    6.7367   -0.5540  -23.6310 H   0  0  0  0  0  0  0  0  0  0  0  0
    4.9215    0.5835  -19.1440 H   0  0  0  0  0  0  0  0  0  0  0  0
    3.3291   -1.0366  -18.8000 H   0  0  0  0  0  0  0  0  0  0  0  0
    4.0534   -4.9451  -17.1584 H   0  0  0  0  0  0  0  0  0  0  0  0
    7.1048    2.1486  -18.9959 H   0  0  0  0  0  0  0  0  0  0  0  0
    7.1531    3.9167  -19.3091 H   0  0  0  0  0  0  0  0  0  0  0  0
    7.7244    3.9208  -23.1638 H   0  0  0  0  0  0  0  0  0  0  0  0
    8.1906    2.9916  -21.6990 H   0  0  0  0  0  0  0  0  0  0  0  0
    5.3287    4.0643  -23.7462 H   0  0  0  0  0  0  0  0  0  0  0  0
    4.0654    3.8047  -22.4959 H   0  0  0  0  0  0  0  0  0  0  0  0
    5.9789    5.5735  -20.3103 H   0  0  0  0  0  0  0  0  0  0  0  0
    7.1947    5.7890  -21.6149 H   0  0  0  0  0  0  0  0  0  0  0  0
    3.5503    3.2424  -20.7199 H   0  0  0  0  0  0  0  0  0  0  0  0
    3.0912    3.7445  -17.1263 H   0  0  0  0  0  0  0  0  0  0  0  0
    2.2179    3.6871  -18.6210 H   0  0  0  0  0  0  0  0  0  0  0  0
  1  2  2  0
  1  6  1  0
  2  9  1  0
  3  6  2  0
  3  8  1  0
  4  7  2  0
  4 10  1  0
  5 10  2  0
  5 19  1  0
  6  7  1  0
  7 11  1  0
  8  9  2  0
  8 17  1  0
  9 22  1  0
 10 26  1  0
 11 19  2  0
 11 25  1  0
 12 20  2  0
 12 21  1  0
 12 23  1  0
 17 13  1  1
 13 23  1  0
 14 18  1  0
 14 22  1  0
 15 18  1  0
 15 24  1  0
 16 18  1  0
 16 24  1  0
 17 18  1  0
 17 20  1  0
  1 27  1  0
  2 28  1  0
  3 29  1  0
  4 30  1  0
  5 31  1  0
 13 32  1  0
 13 33  1  0
 14 34  1  0
 14 35  1  0
 15 36  1  0
 15 37  1  0
 16 38  1  0
 16 39  1  0
 20 40  1  0
 21 41  1  0
 21 42  1  0
M  CHG  1  20   1
M  END
>  <OMEGA_C>  (3) 
w7G9QKaVqb/4UK7BFRXMQCq1nL4YJbXBzwGrQBonrD6C2qDB9oR6QDiz+L/iBJbBmseKQKG0hMD+
oI7BrXmuQAAygr+b+KPBotmhQNxhBsBFfpzBJxW5QKqMrz9iuqfBmaXLQMBihD+qxrHBmRljQEvW
PsCOE4/B3Pi5QLtjU8AVl5vBVUmIQFDdVkD2YJbBqO3PQCtmQkDHx5nBmQvsQD3eTEAmRLPBLvSh
QNVVh0BuibXBoZ3HQMMfqkCgyKrBeFK2QE46NUD6D6TBLYjFQJZPcUDtT63B2yKuQL47icD+xJTB
FHuKQHu9SkDLwqDBhB5FQD26Z0Dc8pDBdZjeQNrF/D9Ta7jBqROwQN+iT0DLq5HBs8SmQJqWsUDC
ILLBeYzeQOCUXsAXPKHBFKAHQAijNcDCJ4fBJES+QJuAFsAj/rDBTZPXQETRDb9RDL3B8XydQINe
FT/lJpnBOg9VQKWuhL9wZpbBZ7WBQEI+nsBwRInBJVrjQC+CCUCD95fBlObkQNaqekAMeZrBqi73
QGnuekCDT7nB5wwDQbB1P0B4l63BuYSqQMUOgkBE+L3B4xeCQOmAc0CG97PBbFO/QDZaskB3e6LB
HDvmQM4/uUBf66zBczhjQIODT0BpwqXB/9ZFQF6mb0C+AonBJ/INQIH5a0DI95TB

>  <OMEGA_E>  (3) 
jHvFPg==

>  <OMEGA_NBR>  (3) 
     20708

$$$$
288449
     RDKit          3D

 47 51  0  0  1  0  0  0  0  0999 V2000
    6.0703   -1.2984  -21.6472 C   0  0  0  0  0  0  0  0  0  0  0  0
    6.4147   -0.2560  -22.5167 C   0  0  0  0  0  0  0  0  0  0  0  0
    5.2509    0.3258  -20.0255 C   0  0  0  0  0  0  0  0  0  0  0  0
    3.9264   -2.0767  -18.7733 C   0  0  0  0  0  0  0  0  0  0  0  0
    5.9386   -3.2800  -19.4135 C   0  0  0  0  0  0  0  0  0  0  0  0
    4.4157   -4.3174  -17.9696 C   0  0  0  0  0  0  0  0  0  0  0  0
    5.4968   -1.0138  -20.3938 C   0  0  0  0  0  0  0  0  0  0  0  0
    5.1290   -2.1216  -19.4979 C   0  0  0  0  0  0  0  0  0  0  0  0
    5.6169    1.3926  -20.8859 C   0  0  0  0  0  0  0  0  0  0  0  0
    3.5470   -3.2064  -18.0340 C   0  0  0  0  0  0  0  0  0  0  0  0
    6.2258    1.0840  -22.1372 C   0  0  0  0  0  0  0  0  0  0  0  0
    5.5960    2.9107  -18.1621 C   0  0  0  0  0  0  0  0  0  0  0  0
    5.0211    4.7477  -22.2737 C   0  0  0  0  0  0  0  0  0  0  0  0
    6.0221    5.3228  -21.2284 C   0  0  0  0  0  0  0  0  0  0  0  0
    4.0843    3.1652  -19.8471 C   0  0  0  0  0  0  0  0  0  0  0  0
    7.1172    3.2794  -22.3979 C   0  0  0  0  0  0  0  0  0  0  0  0
    5.4741    2.8570  -20.4199 C   0  0  2  0  0  0  0  0  0  0  0  0
    5.9892    3.8232  -21.5299 C   0  0  0  0  0  0  0  0  0  0  0  0
    2.4800   -2.8269  -15.8197 C   0  0  0  0  0  0  0  0  0  0  0  0
    2.2389   -3.2169  -17.2823 C   0  0  0  0  0  0  0  0  0  0  0  0
    5.5843   -4.3394  -18.6504 N   0  0  0  0  0  0  0  0  0  0  0  0
    6.3183    3.0688  -19.2486 N   0  0  0  0  0  0  0  0  0  0  0  0
    6.1420    2.6198  -16.9278 N   0  0  0  0  0  0  0  0  0  0  0  0
    6.6746    2.0564  -23.0123 O   0  0  0  0  0  0  0  0  0  0  0  0
    4.2440    2.9579  -18.4431 O   0  0  0  0  0  0  0  0  0  0  0  0
    6.2452   -2.3233  -21.9392 H   0  0  0  0  0  0  0  0  0  0  0  0
    6.8293   -0.4839  -23.4875 H   0  0  0  0  0  0  0  0  0  0  0  0
    4.7790    0.5413  -19.0783 H   0  0  0  0  0  0  0  0  0  0  0  0
    3.3076   -1.1916  -18.7853 H   0  0  0  0  0  0  0  0  0  0  0  0
    6.8620   -3.3189  -19.9723 H   0  0  0  0  0  0  0  0  0  0  0  0
    4.1412   -5.1681  -17.3636 H   0  0  0  0  0  0  0  0  0  0  0  0
    3.9450    4.7164  -22.0480 H   0  0  0  0  0  0  0  0  0  0  0  0
    5.1652    4.9505  -23.3452 H   0  0  0  0  0  0  0  0  0  0  0  0
    6.8751    5.9333  -21.5596 H   0  0  0  0  0  0  0  0  0  0  0  0
    5.6548    5.6992  -20.2623 H   0  0  0  0  0  0  0  0  0  0  0  0
    3.7939    4.2046  -20.0598 H   0  0  0  0  0  0  0  0  0  0  0  0
    3.3287    2.4813  -20.2612 H   0  0  0  0  0  0  0  0  0  0  0  0
    7.3730    4.0136  -23.1760 H   0  0  0  0  0  0  0  0  0  0  0  0
    8.0021    3.0820  -21.7749 H   0  0  0  0  0  0  0  0  0  0  0  0
    1.5244   -2.8357  -15.2749 H   0  0  0  0  0  0  0  0  0  0  0  0
    3.1719   -3.5466  -15.3577 H   0  0  0  0  0  0  0  0  0  0  0  0
    2.9173   -1.8185  -15.7765 H   0  0  0  0  0  0  0  0  0  0  0  0
    1.5465   -2.4971  -17.7432 H   0  0  0  0  0  0  0  0  0  0  0  0
    1.8011   -4.2252  -17.3244 H   0  0  0  0  0  0  0  0  0  0  0  0
    7.2915    3.2978  -19.2693 H   0  0  0  0  0  0  0  0  0  0  0  0
    5.5444    2.4220  -16.1507 H   0  0  0  0  0  0  0  0  0  0  0  0
    7.1351    2.6068  -16.8108 H   0  0  0  0  0  0  0  0  0  0  0  0
  1  2  2  0
  1  7  1  0
  2 11  1  0
  3  7  2  0
  3  9  1  0
  4  8  2  0
  4 10  1  0
  5  8  1  0
  5 21  2  0
  6 10  2  0
  6 21  1  0
  7  8  1  0
  9 11  2  0
  9 17  1  0
 10 20  1  0
 11 24  1  0
 12 22  2  0
 12 23  1  0
 12 25  1  0
 13 14  1  0
 13 18  1  0
 14 18  1  0
 17 15  1  1
 15 25  1  0
 16 18  1  0
 16 24  1  0
 17 18  1  0
 17 22  1  0
 19 20  1  0
  1 26  1  0
  2 27  1  0
  3 28  1  0
  4 29  1  0
  5 30  1  0
  6 31  1  0
 13 32  1  0
 13 33  1  0
 14 34  1  0
 14 35  1  0
 15 36  1  0
 15 37  1  0
 16 38  1  0
 16 39  1  0
 19 40  1  0
 19 41  1  0
 19 42  1  0
 20 43  1  0
 20 44  1  0
 22 45  1  0
 23 46  1  0
 23 47  1  0
M  CHG  1  22   1
M  END
>  <OMEGA_C>  (4) 
4j/CQK0wpr9qLa3BcEXNQEUSg74aIrTBpAeoQF3Ppj5KNKDBJkp7QF3oBMC1L5bBSAm+QFrrUcDt
TpvBKU2NQNInisDFwY/BouWvQHTDgb+aJqPBFSGkQKzHB8Cz+5vBQb2zQIRAsj87FqfBaAJjQPk1
TcCpRZDBkjnHQKfAij/oGLHBhRKzQABJOkD7S5HB2KygQGPtl0CUMLLBwrTAQBBUqkDa06nBjrKC
QBaSSkDfxp7BJsDjQJDhUUDYLrPB+iuvQKXYNkDnW6PB26e/QJ6udEAsPazBrrgeQPTrNMBOHX3B
WEkPQHDiTcAbQorBU7KyQF/cisACNJXBRi/KQMhmREAT/ZnBbovEQFaqJ0ASbIfBSpbVQOybA0BA
GbjBPM+HQPhNPUBni5PBANnHQC+xFMBvg6/BaInaQEe+97575rvBxO2YQJGUCj9boJjBVq9TQGmH
mL88SJbB3ZXbQPFoVMA9x5/BmoSEQG5hpcCy6IrBZXp8QMrslkA6YrDBaEmlQBhqnkAIw7rBtADc
QErdvUD/eazBfvS0QP1ftkAxGaLBe89yQDaMhkBleqDBFgpVQD/OHkAJF6LBY+/rQMhvgEBqaLnB
ZwgAQUJARUD8Mq7BtB/DP4B7NcAiZnTB5P9KQBr7YsASuXXBdLQ6QC/D6L+9bHzB4PPFP3HQH8Ah
8o3Bv4rmP/o0h8BMmIrBzVPpQHUOU0CTJ5rB72uxQGICG0C3NIHBhFLkQPLVJkCLfIbB5AfFQBTS
pr9emq3Bh5HPQJDIdb5ZdLTBNSOtQEy0lD5GMKDBzKe6QLS/VsCIU5zB6W2BQDqY+b90hpXBCZ+I
QDu0g8Acu47BeUqzQOC3hL8lc6PBDy6lQDsBCMDIXpzBkO+2QJlqrz+JAafB5QesQJuhi8BldJXB
DwnJQF0djD+SO7HBU2azQAhmM0AgMJHBMrWYQPJ6k0AcEbLBY6C3QIHAqUA6CKrBaryBQFxfP0Bu
bp7BiejfQIS3VkBSfbPBALOuQAwWNECSNKPBUU+7QIaZc0CBP6zBtlvtQHRjrcCJD47BE4XEQCr3
tMCYo5TBMslnQM6GO8AX547BBDXJQKTARkD825nB4pvGQCKiGkAfu4fB26HUQDAIBkD7ULjBkvSH
QEzHL0BrQ5PBNIDKQP6oFMCmGrDBJMzcQEQB5b4pQ7zB4aKgQIKf+j7pSpjBsuHVQCJ2YcAOeqHB
HyFhQFHwgL/dm5XBK797QB95nMB6VonB+phtQN8Dj0Bn/K/BrpabQHTCmUAYsrrB1mXQQGjTv0CE
+KzBppurQNMUtUDTQqLBJ35rQLhRgEAtz5/B0mtWQI7YEECw4aHBmkblQDJng0BdxrnB1EL9QDcZ
T0ALuq7BHnT/QHx5y8BHbY3BkpsAQRgQlcCDCZLBW6XkQOowosDUAYbByZiwQLNBzcCEq5DBkSrN
QOAgwMA0s5zBPPTmQL9NXkAdB5rBHsi0QCD3A0DRuIHBMFjmQMReH0CC5IbB

>  <OMEGA_E>  (4) 
qG8+P6BFYz8=

>  <OMEGA_NBR>  (4) 
     23592

$$$$
288461
     RDKit          3D

 44 48  0  0  1  0  0  0  0  0999 V2000
    6.0322   -1.3280  -21.7497 C   0  0  0  0  0  0  0  0  0  0  0  0
    6.3817   -0.2823  -22.6241 C   0  0  0  0  0  0  0  0  0  0  0  0
    5.5186    0.3031  -20.0190 C   0  0  0  0  0  0  0  0  0  0  0  0
    5.8577   -3.3432  -19.4990 C   0  0  0  0  0  0  0  0  0  0  0  0
    4.0919   -1.9370  -18.6308 C   0  0  0  0  0  0  0  0  0  0  0  0
    4.4442   -4.0884  -17.7927 C   0  0  0  0  0  0  0  0  0  0  0  0
    5.5768   -1.0360  -20.4464 C   0  0  0  0  0  0  0  0  0  0  0  0
    5.1694   -2.1144  -19.5253 C   0  0  0  0  0  0  0  0  0  0  0  0
    5.9017    1.3588  -20.8764 C   0  0  0  0  0  0  0  0  0  0  0  0
    6.2923    1.0616  -22.2066 C   0  0  0  0  0  0  0  0  0  0  0  0
    4.1923    3.3350  -18.7855 C   0  0  0  0  0  0  0  0  0  0  0  0
    6.4399    3.0036  -19.0103 C   0  0  0  0  0  0  0  0  0  0  0  0
    5.5869    5.3102  -21.1877 C   0  0  0  0  0  0  0  0  0  0  0  0
    7.5482    4.6189  -21.3051 C   0  0  0  0  0  0  0  0  0  0  0  0
    5.9060    3.3131  -22.9352 C   0  0  1  0  0  0  0  0  0  0  0  0
    5.7579    2.7987  -20.3819 C   0  0  1  0  0  0  0  0  0  0  0  0
    6.1636    3.8530  -21.4921 C   0  0  0  0  0  0  0  0  0  0  0  0
    6.3750    4.2405  -24.0835 C   0  0  0  0  0  0  0  0  0  0  0  0
    5.4902   -4.3074  -18.6287 N   0  0  0  0  0  0  0  0  0  0  0  0
    3.7416   -2.9284  -17.7847 N   0  0  0  0  0  0  0  0  0  0  0  0
    4.3399    2.9970  -20.0481 N   0  0  0  0  0  0  0  0  0  0  0  0
    2.9923    3.7221  -18.2176 N   0  0  0  0  0  0  0  0  0  0  0  0
    6.5846    2.0483  -23.1255 O   0  0  0  0  0  0  0  0  0  0  0  0
    5.3803    3.2647  -18.1001 O   0  0  0  0  0  0  0  0  0  0  0  0
    6.8633    5.7556  -20.8646 O   0  0  0  0  0  0  0  0  0  0  0  0
    6.1126   -2.3544  -22.0761 H   0  0  0  0  0  0  0  0  0  0  0  0
    6.7213   -0.5110  -23.6234 H   0  0  0  0  0  0  0  0  0  0  0  0
    5.1757    0.5277  -19.0198 H   0  0  0  0  0  0  0  0  0  0  0  0
    6.6810   -3.5143  -20.1766 H   0  0  0  0  0  0  0  0  0  0  0  0
    3.5461   -1.0051  -18.6235 H   0  0  0  0  0  0  0  0  0  0  0  0
    4.1591   -4.8707  -17.1048 H   0  0  0  0  0  0  0  0  0  0  0  0
    6.9884    2.0974  -18.7135 H   0  0  0  0  0  0  0  0  0  0  0  0
    7.1339    3.8562  -19.0486 H   0  0  0  0  0  0  0  0  0  0  0  0
    5.1465    5.8096  -22.0633 H   0  0  0  0  0  0  0  0  0  0  0  0
    4.8751    5.3442  -20.3497 H   0  0  0  0  0  0  0  0  0  0  0  0
    8.2094    4.1720  -20.5480 H   0  0  0  0  0  0  0  0  0  0  0  0
    8.1087    4.7670  -22.2399 H   0  0  0  0  0  0  0  0  0  0  0  0
    4.8222    3.1609  -23.0464 H   0  0  0  0  0  0  0  0  0  0  0  0
    6.1483    3.7698  -25.0515 H   0  0  0  0  0  0  0  0  0  0  0  0
    5.8506    5.2049  -24.0132 H   0  0  0  0  0  0  0  0  0  0  0  0
    7.4594    4.4059  -24.0014 H   0  0  0  0  0  0  0  0  0  0  0  0
    3.5862    2.8891  -20.6963 H   0  0  0  0  0  0  0  0  0  0  0  0
    2.9547    3.9723  -17.2502 H   0  0  0  0  0  0  0  0  0  0  0  0
    2.1622    3.7518  -18.7744 H   0  0  0  0  0  0  0  0  0  0  0  0
  1  2  2  0
  1  7  1  0
  2 10  1  0
  3  7  2  0
  3  9  1  0
  4  8  2  0
  4 19  1  0
  5  8  1  0
  5 20  2  0
  6 19  2  0
  6 20  1  0
  7  8  1  0
  9 10  2  0
  9 16  1  0
 10 23  1  0
 11 21  2  0
 11 22  1  0
 11 24  1  0
 16 12  1  1
 12 24  1  0
 13 17  1  0
 13 25  1  0
 14 17  1  0
 14 25  1  0
 15 17  1  0
 15 18  1  0
 15 23  1  0
 16 17  1  0
 16 21  1  0
  1 26  1  0
  2 27  1  0
  3 28  1  0
  4 29  1  0
  5 30  1  0
  6 31  1  0
 12 32  1  0
 12 33  1  0
 13 34  1  0
 13 35  1  0
 14 36  1  0
 14 37  1  0
 15 38  1  6
 18 39  1  0
 18 40  1  0
 18 41  1  0
 21 42  1  0
 22 43  1  0
 22 44  1  0
M  CHG  1  21   1
M  END
>  <OMEGA_C>  (5) 
LgjBQJf8qb9W/63BFjfMQByNkL4W/rTBGpiwQHgvmz7cJqDB5nG7QHb3VcD+/ZvBffCCQF/w97/s
C5XBwzaOQFzUgsByV47BD3WyQOmbhL80kqPBh2ulQIRRB8DMM5zBY9q8QAztrT/0AqfBplrJQLjh
hz8ip7HBOyeGQBZxVUC6SJbBuxPOQJ46QEAqFZjBmseyQGntqUBogKnBBYvxQLXNk0DkcKrByP28
QMAJVEBCe7fBVEC4QIIdM0AmDqPBGTzFQPCXdkDQ76vB3//LQEeyh0Aaq8DBbK+vQA7WicB6B5XB
FnZvQBBrO8AmR47B2uCKQITPP0CaYqDBHYI/QJw2bkCsvZHBL7XSQEoXA0AaAbnBDiusQC7wUEDo
zJDBAaDbQA0uuECy6qbBtZrDQLOtFsDzm7DBJRXXQDjTAr/R/LzBJZ+lQIYWBz+DKJjBFMvVQFXq
YMDCaaHBsfJiQI6ngL/0/JTBnheFQIfcm8CV1ojB3qDfQHo8BkBTtZXBnkjkQOzLdkCVY5jB/a+k
QCvouUCrgbDBzgCcQOkDq0AyzKLBn1kDQe6AhUBjYqTBab0BQUyLmEBh67HB20+aQOZLSkDtXrjB
nL7EQABEcUCMacjBMTi7QLWOpkAKG8DBMLPuQEX9jEDyAsDBmYNlQGPnOEAakqXBnhk9QGY6fkBT
AIrBRGEKQK4ccED1MZbB

>  <OMEGA_E>  (5) 
CM3aPg==

>  <OMEGA_NBR>  (5) 
     24636

$$$$
288463
     RDKit          3D

 44 48  0  0  1  0  0  0  0  0999 V2000
    6.1765   -1.3508  -21.7331 C   0  0  0  0  0  0  0  0  0  0  0  0
    6.5689   -0.3050  -22.5885 C   0  0  0  0  0  0  0  0  0  0  0  0
    5.4140    0.2797  -20.0981 C   0  0  0  0  0  0  0  0  0  0  0  0
    5.8714   -3.3338  -19.4678 C   0  0  0  0  0  0  0  0  0  0  0  0
    3.9742   -1.9884  -18.8033 C   0  0  0  0  0  0  0  0  0  0  0  0
    4.3237   -4.1115  -17.8979 C   0  0  0  0  0  0  0  0  0  0  0  0
    5.5853   -1.0591  -20.4856 C   0  0  0  0  0  0  0  0  0  0  0  0
    5.1408   -2.1355  -19.5839 C   0  0  0  0  0  0  0  0  0  0  0  0
    5.8249    1.3346  -20.9384 C   0  0  0  0  0  0  0  0  0  0  0  0
    6.4092    1.0391  -22.1972 C   0  0  0  0  0  0  0  0  0  0  0  0
    4.2355    3.4189  -18.7614 C   0  0  0  0  0  0  0  0  0  0  0  0
    6.4618    3.0135  -19.1898 C   0  0  0  0  0  0  0  0  0  0  0  0
    6.0397    5.3027  -21.1475 C   0  0  0  0  0  0  0  0  0  0  0  0
    4.6880    4.3286  -22.4143 C   0  0  0  0  0  0  0  0  0  0  0  0
    7.1159    3.3158  -22.5177 C   0  0  2  0  0  0  0  0  0  0  0  0
    5.6339    2.7636  -20.4545 C   0  0  1  0  0  0  0  0  0  0  0  0
    5.9458    3.7860  -21.6058 C   0  0  0  0  0  0  0  0  0  0  0  0
    7.4340    4.2575  -23.7116 C   0  0  0  0  0  0  0  0  0  0  0  0
    5.4560   -4.2998  -18.6217 N   0  0  0  0  0  0  0  0  0  0  0  0
    3.5796   -2.9808  -17.9797 N   0  0  0  0  0  0  0  0  0  0  0  0
    4.2592    2.9248  -19.9730 N   0  0  0  0  0  0  0  0  0  0  0  0
    3.0622    3.8232  -18.1475 N   0  0  0  0  0  0  0  0  0  0  0  0
    6.8104    2.0206  -23.0833 O   0  0  0  0  0  0  0  0  0  0  0  0
    5.5056    3.4787  -18.2205 O   0  0  0  0  0  0  0  0  0  0  0  0
    4.9672    5.6274  -21.9776 O   0  0  0  0  0  0  0  0  0  0  0  0
    6.3279   -2.3777  -22.0316 H   0  0  0  0  0  0  0  0  0  0  0  0
    6.9963   -0.5344  -23.5534 H   0  0  0  0  0  0  0  0  0  0  0  0
    4.9615    0.5043  -19.1435 H   0  0  0  0  0  0  0  0  0  0  0  0
    6.7651   -3.4799  -20.0564 H   0  0  0  0  0  0  0  0  0  0  0  0
    3.3957   -1.0785  -18.8658 H   0  0  0  0  0  0  0  0  0  0  0  0
    4.0016   -4.8953  -17.2283 H   0  0  0  0  0  0  0  0  0  0  0  0
    6.9409    2.0840  -18.8486 H   0  0  0  0  0  0  0  0  0  0  0  0
    7.2321    3.7770  -19.3737 H   0  0  0  0  0  0  0  0  0  0  0  0
    5.8413    5.4603  -20.0770 H   0  0  0  0  0  0  0  0  0  0  0  0
    6.9838    5.7960  -21.4219 H   0  0  0  0  0  0  0  0  0  0  0  0
    4.7629    4.1953  -23.5036 H   0  0  0  0  0  0  0  0  0  0  0  0
    3.7235    3.9340  -22.0621 H   0  0  0  0  0  0  0  0  0  0  0  0
    8.0201    3.2383  -21.8960 H   0  0  0  0  0  0  0  0  0  0  0  0
    8.2702    3.8429  -24.2937 H   0  0  0  0  0  0  0  0  0  0  0  0
    6.5468    4.3450  -24.3559 H   0  0  0  0  0  0  0  0  0  0  0  0
    7.7101    5.2519  -23.3307 H   0  0  0  0  0  0  0  0  0  0  0  0
    3.4443    2.6878  -20.5021 H   0  0  0  0  0  0  0  0  0  0  0  0
    3.0868    4.2019  -17.2223 H   0  0  0  0  0  0  0  0  0  0  0  0
    2.1903    3.7366  -18.6293 H   0  0  0  0  0  0  0  0  0  0  0  0
  1  2  2  0
  1  7  1  0
  2 10  1  0
  3  7  2  0
  3  9  1  0
  4  8  2  0
  4 19  1  0
  5  8  1  0
  5 20  2  0
  6 19  2  0
  6 20  1  0
  7  8  1  0
  9 10  2  0
  9 16  1  0
 10 23  1  0
 11 21  2  0
 11 22  1  0
 11 24  1  0
 16 12  1  1
 12 24  1  0
 13 17  1  0
 13 25  1  0
 14 17  1  0
 14 25  1  0
 15 17  1  0
 15 18  1  0
 15 23  1  0
 16 17  1  0
 16 21  1  0
  1 26  1  0
  2 27  1  0
  3 28  1  0
  4 29  1  0
  5 30  1  0
  6 31  1  0
 12 32  1  0
 12 33  1  0
 13 34  1  0
 13 35  1  0
 14 36  1  0
 14 37  1  0
 15 38  1  1
 18 39  1  0
 18 40  1  0
 18 41  1  0
 21 42  1  0
 22 43  1  0
 22 44  1  0
M  CHG  1  21   1
M  END
>  <OMEGA_C>  (6) 
EabFQAzorL9w3a3BuDTSQEolnL4xtbTBlj+tQM4xjz7SyKDBzuK7QOxcVcAOvpvBvFh+QOyD/r85
bZbB9luKQFiRg8DbLo/Bf7qyQMKRh7974qPBRYGkQFqsCMC8q5zBpWW6QLDTqj/kgafBPhjNQBQB
hT/Jk7HBJYmHQAnQWkBGF5bBysbOQPHdQEDNhJnBHUXBQPevqUAILqnBTwSWQPWDikB5ULPB2rXj
QPg1VEAsJLTB80i0QKHfMEC4oqPB7kO+QAZOckCt2KzBeuPtQJg9iEBNsb3BQpeuQOWXicAm+ZTB
BBhlQDDGPsB01o/BLUuIQEwwO0DMyJ/BgPtDQJWvdEAaLpHB1+7ZQChRAUCcqrjBni2wQCSjXkCq
w5HBDPOeQNATtEAZ0q/Bhn7KQJ4rGMC5QLDB1uHfQA/OCL9kbbzBj8SeQKIZAT/lJZnBcXvYQEu3
XsCIc6DB1FNZQCIMir8R7ZbBIA2AQCCmnMCX04nBjRveQMlgBUDdyZbBDG3nQAW6cUBq/ZrBEOy6
QMK6rkDKnaDBj3vfQIB4uUARYKvBxWmYQC9AhkBpB7zBhU5uQObGe0Aaf7DBbFIAQc5AT0AAK6/B
2lIEQYPxdUBmWcLBC3/RQHAKi0DQ2MLB3bj2QDQPqEAzpbrBJXBcQIgFLEBHBKTBYI1FQJ91hkBB
x4nBNS0MQAskb0DoCJXB

>  <OMEGA_E>  (6) 
jIjwPg==

>  <OMEGA_NBR>  (6) 
     25679

$$$$
288470
     RDKit          3D

 47 51  0  0  1  0  0  0  0  0999 V2000
    6.1184   -1.3685  -21.8113 C   0  0  0  0  0  0  0  0  0  0  0  0
    6.5029   -0.2917  -22.6365 C   0  0  0  0  0  0  0  0  0  0  0  0
    5.3865    0.2069  -20.1124 C   0  0  0  0  0  0  0  0  0  0  0  0
    5.8959   -3.3943  -19.5442 C   0  0  0  0  0  0  0  0  0  0  0  0
    4.0172   -2.0607  -18.8064 C   0  0  0  0  0  0  0  0  0  0  0  0
    4.4367   -4.1612  -17.8844 C   0  0  0  0  0  0  0  0  0  0  0  0
    5.5572   -1.1162  -20.5403 C   0  0  0  0  0  0  0  0  0  0  0  0
    5.1485   -2.2055  -19.6389 C   0  0  0  0  0  0  0  0  0  0  0  0
    5.7732    1.2864  -20.9245 C   0  0  0  0  0  0  0  0  0  0  0  0
    6.3611    1.0403  -22.1905 C   0  0  0  0  0  0  0  0  0  0  0  0
    4.2060    3.4553  -18.7370 C   0  0  0  0  0  0  0  0  0  0  0  0
    6.4087    2.9404  -19.1528 C   0  0  0  0  0  0  0  0  0  0  0  0
    5.7712    5.2518  -21.0255 C   0  0  0  0  0  0  0  0  0  0  0  0
    4.5262    4.1933  -22.3394 C   0  0  0  0  0  0  0  0  0  0  0  0
    7.0279    3.3645  -22.4060 C   0  0  2  0  0  0  0  0  0  0  0  0
    5.5557    2.6892  -20.3966 C   0  0  1  0  0  0  0  0  0  0  0  0
    5.8080    3.7421  -21.5206 C   0  0  0  0  0  0  0  0  0  0  0  0
    6.9682    4.0030  -24.9460 C   0  0  0  0  0  0  0  0  0  0  0  0
    7.3805    4.4184  -23.5178 C   0  0  0  0  0  0  0  0  0  0  0  0
    5.5311   -4.3516  -18.6646 N   0  0  0  0  0  0  0  0  0  0  0  0
    3.6758   -3.0414  -17.9478 N   0  0  0  0  0  0  0  0  0  0  0  0
    4.1927    2.8062  -19.8728 N   0  0  0  0  0  0  0  0  0  0  0  0
    3.0755    4.0559  -18.2119 N   0  0  0  0  0  0  0  0  0  0  0  0
    6.7999    2.0602  -23.0194 O   0  0  0  0  0  0  0  0  0  0  0  0
    5.4810    3.4905  -18.2012 O   0  0  0  0  0  0  0  0  0  0  0  0
    4.6619    5.4920  -21.8398 O   0  0  0  0  0  0  0  0  0  0  0  0
    6.2529   -2.3849  -22.1508 H   0  0  0  0  0  0  0  0  0  0  0  0
    6.9093   -0.4875  -23.6178 H   0  0  0  0  0  0  0  0  0  0  0  0
    4.9508    0.4002  -19.1432 H   0  0  0  0  0  0  0  0  0  0  0  0
    6.7605   -3.5407  -20.1746 H   0  0  0  0  0  0  0  0  0  0  0  0
    3.4231   -1.1603  -18.8582 H   0  0  0  0  0  0  0  0  0  0  0  0
    4.1606   -4.9349  -17.1834 H   0  0  0  0  0  0  0  0  0  0  0  0
    6.8415    2.0008  -18.7790 H   0  0  0  0  0  0  0  0  0  0  0  0
    7.2161    3.6552  -19.3700 H   0  0  0  0  0  0  0  0  0  0  0  0
    5.5720    5.3669  -19.9499 H   0  0  0  0  0  0  0  0  0  0  0  0
    6.6629    5.8355  -21.2978 H   0  0  0  0  0  0  0  0  0  0  0  0
    4.6414    4.1179  -23.4307 H   0  0  0  0  0  0  0  0  0  0  0  0
    3.5977    3.6893  -22.0330 H   0  0  0  0  0  0  0  0  0  0  0  0
    7.9024    3.2893  -21.7429 H   0  0  0  0  0  0  0  0  0  0  0  0
    7.2516    4.7949  -25.6550 H   0  0  0  0  0  0  0  0  0  0  0  0
    7.4795    3.0677  -25.2177 H   0  0  0  0  0  0  0  0  0  0  0  0
    5.8795    3.8500  -24.9834 H   0  0  0  0  0  0  0  0  0  0  0  0
    6.8688    5.3608  -23.2727 H   0  0  0  0  0  0  0  0  0  0  0  0
    8.4687    4.5785  -23.5070 H   0  0  0  0  0  0  0  0  0  0  0  0
    3.3736    2.4437  -20.3174 H   0  0  0  0  0  0  0  0  0  0  0  0
    3.1363    4.5786  -17.3615 H   0  0  0  0  0  0  0  0  0  0  0  0
    2.1978    3.9673  -18.6827 H   0  0  0  0  0  0  0  0  0  0  0  0
  1  2  2  0
  1  7  1  0
  2 10  1  0
  3  7  2  0
  3  9  1  0
  4  8  2  0
  4 20  1  0
  5  8  1  0
  5 21  2  0
  6 20  2  0
  6 21  1  0
  7  8  1  0
  9 10  2  0
  9 16  1  0
 10 24  1  0
 11 22  2  0
 11 23  1  0
 11 25  1  0
 16 12  1  1
 12 25  1  0
 13 17  1  0
 13 26  1  0
 14 17  1  0
 14 26  1  0
 15 17  1  0
 15 19  1  0
 15 24  1  0
 16 17  1  0
 16 22  1  0
 18 19  1  0
  1 27  1  0
  2 28  1  0
  3 29  1  0
  4 30  1  0
  5 31  1  0
  6 32  1  0
 12 33  1  0
 12 34  1  0
 13 35  1  0
 13 36  1  0
 14 37  1  0
 14 38  1  0
 15 39  1  1
 18 40  1  0
 18 41  1  0
 18 42  1  0
 19 43  1  0
 19 44  1  0
 22 45  1  0
 23 46  1  0
 23 47  1  0
M  CHG  1  22   1
M  END
>  <OMEGA_C>  (7) 
qMnDQI8rr79xfa7BGRjQQPhTlb6SF7XB912sQDjoUz4x5qDBV6u8QPw7WcCWWpzBBY2AQFLjA8CK
c5bBlfmNQIEohcBWE4/BT9SxQJfejr94UqTBrMCkQMomDcBhHJ3BQ764QHKopD9JZafBK47LQPUm
hT8rhrHBUZeGQFokXUBs5ZXBqhPNQBgwPEDqOJnBi624QJ0OqEBSNKjBqNaQQDYvhkD/trLB1+Tg
QIZTV0B0P7PBncixQIocLEAxLKPB/dq5QEJ/b0AsKqzBcPveQIIYgEBukcfB0SzsQLNjjUBqJLzB
p/6wQJ5Ai8ApUZXBBEBrQKKlQsADlY/BnSqGQBmZM0B1+57BWNVEQB7KgUDwsZHBq5jZQLzZA0DA
J7jBBWSvQKRjX0AlnJHBmS6VQBC+r0Det67BgBfIQOOhGMDmNLHBIBndQGuU+b4+8bzBAG2eQEvm
zD5gJZnBTVbYQOCaYsCiZaHBnRRbQBiFlL+L3ZbBeCOFQATrncCXd4nBK+3aQPAMAEBPO5bBR+rm
QGbuaUC79ZrBnU2yQI29q0BZmZ/BYDbVQHC8ukD0YarB+oWUQAPGg0AZcrvBP0BmQOIdbECDQ7DB
f+D8QBGEUkCA8a3B6wzoQJNvmUBgPc3Br1fvQMFUREDDvcnBFiW8QCNmdkDv3cfBDM3bQMyLq0B9
LrrB0n8HQRuDkkBRDrzBhOlXQFZlHEAKiqLBY7hIQK2DkkBc5IrBHagMQNrofUA3dpXB

>  <OMEGA_E>  (7) 
tKoOPw==

>  <OMEGA_NBR>  (7) 
     26766

$$$$
288483
     RDKit          3D

 40 44  0  0  1  0  0  0  0  0999 V2000
    6.1248   -1.2962  -21.6475 C   0  0  0  0  0  0  0  0  0  0  0  0
    6.5075   -0.2418  -22.4929 C   0  0  0  0  0  0  0  0  0  0  0  0
    5.3335    0.3166  -20.0098 C   0  0  0  0  0  0  0  0  0  0  0  0
    5.8741   -3.3644  -19.5021 C   0  0  0  0  0  0  0  0  0  0  0  0
    4.0513   -2.0507  -18.6138 C   0  0  0  0  0  0  0  0  0  0  0  0
    4.4546   -4.2287  -17.8598 C   0  0  0  0  0  0  0  0  0  0  0  0
    5.5356   -1.0285  -20.3951 C   0  0  0  0  0  0  0  0  0  0  0  0
    5.1498   -2.1513  -19.4963 C   0  0  0  0  0  0  0  0  0  0  0  0
    5.7385    1.3994  -20.8460 C   0  0  0  0  0  0  0  0  0  0  0  0
    6.3181    1.0999  -22.1100 C   0  0  0  0  0  0  0  0  0  0  0  0
    5.5410    2.7995  -18.1522 C   0  0  0  0  0  0  0  0  0  0  0  0
    5.8137    5.3768  -21.3183 C   0  0  0  0  0  0  0  0  0  0  0  0
    7.2419    4.7949  -21.2386 C   0  0  0  0  0  0  0  0  0  0  0  0
    4.1325    3.1385  -19.9158 C   0  0  0  0  0  0  0  0  0  0  0  0
    5.9846    3.3245  -22.9340 C   0  0  0  0  0  0  0  0  0  0  0  0
    5.5637    2.8745  -20.3877 C   0  0  2  0  0  0  0  0  0  0  0  0
    6.0339    3.8654  -21.5082 C   0  0  0  0  0  0  0  0  0  0  0  0
    5.5205   -4.3786  -18.6836 N   0  0  0  0  0  0  0  0  0  0  0  0
    3.7178   -3.0907  -17.8165 N   0  0  0  0  0  0  0  0  0  0  0  0
    6.3113    3.1142  -19.1599 N   0  0  0  0  0  0  0  0  0  0  0  0
    6.0484    2.1378  -17.0548 N   0  0  0  0  0  0  0  0  0  0  0  0
    6.7156    2.0816  -23.0036 O   0  0  0  0  0  0  0  0  0  0  0  0
    4.2058    2.9294  -18.4943 O   0  0  0  0  0  0  0  0  0  0  0  0
    6.2828   -2.3182  -21.9589 H   0  0  0  0  0  0  0  0  0  0  0  0
    6.9537   -0.4636  -23.4510 H   0  0  0  0  0  0  0  0  0  0  0  0
    4.8623    0.5293  -19.0616 H   0  0  0  0  0  0  0  0  0  0  0  0
    6.7175   -3.4815  -20.1665 H   0  0  0  0  0  0  0  0  0  0  0  0
    3.4747   -1.1383  -18.5757 H   0  0  0  0  0  0  0  0  0  0  0  0
    4.1810   -5.0483  -17.2119 H   0  0  0  0  0  0  0  0  0  0  0  0
    5.3211    5.7500  -20.4084 H   0  0  0  0  0  0  0  0  0  0  0  0
    5.5220    6.0013  -22.1756 H   0  0  0  0  0  0  0  0  0  0  0  0
    7.9668    5.0024  -22.0396 H   0  0  0  0  0  0  0  0  0  0  0  0
    7.7658    4.7512  -20.2724 H   0  0  0  0  0  0  0  0  0  0  0  0
    3.8258    4.1693  -20.1467 H   0  0  0  0  0  0  0  0  0  0  0  0
    3.4282    2.4334  -20.3815 H   0  0  0  0  0  0  0  0  0  0  0  0
    4.9379    3.1508  -23.2242 H   0  0  0  0  0  0  0  0  0  0  0  0
    6.4386    4.0555  -23.6193 H   0  0  0  0  0  0  0  0  0  0  0  0
    7.2482    3.4586  -19.0992 H   0  0  0  0  0  0  0  0  0  0  0  0
    5.4286    1.6898  -16.4104 H   0  0  0  0  0  0  0  0  0  0  0  0
    7.0362    2.1057  -16.9028 H   0  0  0  0  0  0  0  0  0  0  0  0
  1  2  2  0
  1  7  1  0
  2 10  1  0
  3  7  2  0
  3  9  1  0
  4  8  2  0
  4 18  1  0
  5  8  1  0
  5 19  2  0
  6 18  2  0
  6 19  1  0
  7  8  1  0
  9 10  2  0
  9 16  1  0
 10 22  1  0
 11 20  2  0
 11 21  1  0
 11 23  1  0
 12 13  1  0
 12 17  1  0
 13 17  1  0
 16 14  1  1
 14 23  1  0
 15 17  1  0
 15 22  1  0
 16 17  1  0
 16 20  1  0
  1 24  1  0
  2 25  1  0
  3 26  1  0
  4 27  1  0
  5 28  1  0
  6 29  1  0
 12 30  1  0
 12 31  1  0
 13 32  1  0
 13 33  1  0
 14 34  1  0
 14 35  1  0
 15 36  1  0
 15 37  1  0
 20 38  1  0
 21 39  1  0
 21 40  1  0
M  CHG  1  20   1
M  END
>  <OMEGA_C>  (8) 
B/7DQKLopb8bLq3BEz3QQFCed75c8bPBYKyqQDodoj4bFKDB7Pi7QOlSV8BeBJzBF6SBQFQ/A8AM
6ZTBAoyOQEJRh8D54I7BjyOxQCqlg78vKaPBR8ukQLavCcCC+JvBnqG3QEggsz+exKbB8C3KQNrJ
jD9D4bDBNFCxQFQrM0DCN5HBjwm6QHcOrED5i6rB+b3nQMhvmUC+6KnBNz2EQJzcSECiU5/B5oG/
QHjEVEDreLfBeQmyQGn4N0AWGqPBkhXBQDJjd0C+EKzBv6ewQMIdjMATeJXBpPBtQBfORcAjiI7B
a/bJQDJPR0B+R5nBGIzBQJ7RCEAhcIjBCObWQG44BUBdB7jBEJaGQJ17O0BM9JPB1AzJQLZcFMDC
q6/ByoTeQLhW7b6xm7vBx5ebQDR+Bz8ufpjBn/XWQLPRXsAYVaHBzGFeQC60kb8Qm5TBZsqFQGSL
ocAOsonBM0aqQDkAuEBhRKPBnbSwQIMKwECxZ7HBv+/+QNAToEAkUbDBVYH4QIYJmEDULaLBGNl0
QOJqhUB6LKHBzWdbQAK8G0BIDaPBCQOeQAunSUAhy7nB1AjOQLjGgUA/9LzBOfHnQJ9ZXUBAy5jB
uLatQOpK2D+TSIPBtijhQL/DBkD0OIfB/8jEQI0+qL83SK3B7pjQQG2Egr6KB7TBKoupQILjkj4N
P6DBAOS7QI/bWMACNJzBXoqCQPD9AsC06ZTBm/COQBcYh8BR1o7BNlKxQHSkhr9+TqPBbS2lQHG/
CsCBG5zBrZW0QDzSrj8GC6fBCnXJQK5/ij8T+LDBFHO1QIh3TUDgd5HBnqGOQH0VikAmlLPBPbap
QBoRqEASQKzBL2qAQEgGP0A25p3B1O7bQJxLWUBcwLPBNhSsQIFsNEB4bqPBCni0QBvNcECfH63B
T4WwQAKTjMD8kZXB3t1vQPCvRMBWa47BRpzJQBoRTEDnvJrBHf3IQGTKW0A4rYfBsvHWQFkmBEBj
D7jBr2eKQDu+PEAauZLB15rKQMhhFcCuuq/Bm1XfQPNP775OqLvBDeyaQJUl+z7JlpjBwYLWQHg5
YcDtnKHBIeBgQDZUkL/lmpTBciaGQGYYocA1lonBik1bQGyugUD9VLHBqeeQQJncjEA0VbzBZx6/
QLwTwEDT0q/Bg92bQJDltECc0qTBeztjQPt3fEDeFKDBGHZVQHdVCkCWD6DB9I7fQOOfg0ArW7rB
P4r4QHJrW0B2oa7BiqzoQAo/WUDyuZvB2qm3QBlWWkD784DBXGnoQFWUZ0DmVYfB

>  <OMEGA_E>  (8) 
UJA9P6DvST8=

>  <OMEGA_NBR>  (8) 
     28466

$$$$
288490
     RDKit          3D

 47 51  0  0  1  0  0  0  0  0999 V2000
    6.0071   -5.4593  -18.3605 C   0  0  0  0  0  0  0  0  0  0  0  0
    6.5646   -6.5339  -18.2962 C   0  0  0  0  0  0  0  0  0  0  0  0
    6.1129   -1.3086  -21.6575 C   0  0  0  0  0  0  0  0  0  0  0  0
    6.4405   -0.2916  -22.5712 C   0  0  0  0  0  0  0  0  0  0  0  0
    5.8304   -3.2409  -19.3614 C   0  0  0  0  0  0  0  0  0  0  0  0
    5.5265    0.3731  -19.9988 C   0  0  0  0  0  0  0  0  0  0  0  0
    4.2057   -3.9258  -17.6867 C   0  0  0  0  0  0  0  0  0  0  0  0
    4.0125   -1.7971  -18.6411 C   0  0  0  0  0  0  0  0  0  0  0  0
    5.3501   -4.2023  -18.4638 C   0  0  0  0  0  0  0  0  0  0  0  0
    5.6173   -0.9743  -20.3792 C   0  0  0  0  0  0  0  0  0  0  0  0
    5.1551   -2.0143  -19.4505 C   0  0  0  0  0  0  0  0  0  0  0  0
    5.8776    1.4010  -20.8947 C   0  0  0  0  0  0  0  0  0  0  0  0
    6.2878    1.0634  -22.2159 C   0  0  0  0  0  0  0  0  0  0  0  0
    4.1848    3.2706  -18.7988 C   0  0  0  0  0  0  0  0  0  0  0  0
    6.4306    3.1078  -19.1003 C   0  0  0  0  0  0  0  0  0  0  0  0
    5.8510    3.2871  -22.9884 C   0  0  0  0  0  0  0  0  0  0  0  0
    5.8675    5.3460  -21.3572 C   0  0  0  0  0  0  0  0  0  0  0  0
    7.6842    4.3290  -21.5187 C   0  0  0  0  0  0  0  0  0  0  0  0
    5.7346    2.8551  -20.4450 C   0  0  1  0  0  0  0  0  0  0  0  0
    6.1914    3.8171  -21.5897 C   0  0  0  0  0  0  0  0  0  0  0  0
    7.2277   -7.8298  -18.2335 C   0  0  0  0  0  0  0  0  0  0  0  0
    3.5577   -2.7422  -17.7870 N   0  0  0  0  0  0  0  0  0  0  0  0
    4.3277    3.1257  -20.1023 N   0  0  0  0  0  0  0  0  0  0  0  0
    2.9896    3.5591  -18.1618 N   0  0  0  0  0  0  0  0  0  0  0  0
    6.5232    2.0212  -23.1892 O   0  0  0  0  0  0  0  0  0  0  0  0
    5.3772    3.0608  -18.1422 O   0  0  0  0  0  0  0  0  0  0  0  0
    7.2279    5.6114  -21.2013 O   0  0  0  0  0  0  0  0  0  0  0  0
    6.2406   -2.3449  -21.9337 H   0  0  0  0  0  0  0  0  0  0  0  0
    6.8115   -0.5505  -23.5519 H   0  0  0  0  0  0  0  0  0  0  0  0
    6.7000   -3.4388  -19.9706 H   0  0  0  0  0  0  0  0  0  0  0  0
    5.1830    0.6250  -19.0064 H   0  0  0  0  0  0  0  0  0  0  0  0
    3.8397   -4.6732  -16.9984 H   0  0  0  0  0  0  0  0  0  0  0  0
    3.4917   -0.8533  -18.7078 H   0  0  0  0  0  0  0  0  0  0  0  0
    7.1780    2.3270  -18.8959 H   0  0  0  0  0  0  0  0  0  0  0  0
    6.9190    4.0935  -19.0939 H   0  0  0  0  0  0  0  0  0  0  0  0
    4.7637    3.1450  -23.0744 H   0  0  0  0  0  0  0  0  0  0  0  0
    6.1878    4.0081  -23.7479 H   0  0  0  0  0  0  0  0  0  0  0  0
    5.4092    5.8446  -22.2241 H   0  0  0  0  0  0  0  0  0  0  0  0
    5.2652    5.5457  -20.4587 H   0  0  0  0  0  0  0  0  0  0  0  0
    8.2840    3.8568  -20.7268 H   0  0  0  0  0  0  0  0  0  0  0  0
    8.2257    4.2686  -22.4743 H   0  0  0  0  0  0  0  0  0  0  0  0
    7.8284   -7.8907  -17.3140 H   0  0  0  0  0  0  0  0  0  0  0  0
    6.4716   -8.6287  -18.2309 H   0  0  0  0  0  0  0  0  0  0  0  0
    7.8838   -7.9486  -19.1084 H   0  0  0  0  0  0  0  0  0  0  0  0
    3.5831    3.1907  -20.7666 H   0  0  0  0  0  0  0  0  0  0  0  0
    2.9579    3.6260  -17.1645 H   0  0  0  0  0  0  0  0  0  0  0  0
    2.1581    3.7005  -18.6991 H   0  0  0  0  0  0  0  0  0  0  0  0
  1  2  3  0
  1  9  1  0
  2 21  1  0
  3  4  2  0
  3 10  1  0
  4 13  1  0
  5  9  2  0
  5 11  1  0
  6 10  2  0
  6 12  1  0
  7  9  1  0
  7 22  2  0
  8 11  2  0
  8 22  1  0
 10 11  1  0
 12 13  2  0
 12 19  1  0
 13 25  1  0
 14 23  2  0
 14 24  1  0
 14 26  1  0
 19 15  1  1
 15 26  1  0
 16 20  1  0
 16 25  1  0
 17 20  1  0
 17 27  1  0
 18 20  1  0
 18 27  1  0
 19 20  1  0
 19 23  1  0
  3 28  1  0
  4 29  1  0
  5 30  1  0
  6 31  1  0
  7 32  1  0
  8 33  1  0
 15 34  1  0
 15 35  1  0
 16 36  1  0
 16 37  1  0
 17 38  1  0
 17 39  1  0
 18 40  1  0
 18 41  1  0
 21 42  1  0
 21 43  1  0
 21 44  1  0
 23 45  1  0
 24 46  1  0
 24 47  1  0
M  CHG  1  23   1
M  END
>  <OMEGA_C>  (9) 
ZTrAQKOyrsBo4pLBYBHSQJoV0cCuXpLBPp3DQM+Ap7+dQq3BPRjOQAZJlb7akbTBzJK6QGNqT8Ak
5JrBI9mwQAoHvz6d/Z/BN5WGQI8/e8Blfo3BO2aAQDsG5r/9IJXBpjOrQG15hsDGtZPBhcCzQKNu
eb+sCKPBPPakQH7qAMCMmpvBixW8QLdTsz9OKKfBrTXJQIYciD8+urHB/emFQAlRUUDwY5bBx8fN
QPXmRkB6zZjBxzu7QGdgUkAp6LfBQcK7QAkSq0Ci26rBm+T1QHuHikBmJqzBn4G3QJu5NkBXj6PB
nB/GQLhKdECst6zBqknnQL+N+sAl3pHB57BjQK6AL8CwS47B23yKQDoLSEB20aDB01Q/QADIY0Bf
S5HBb77QQLBbAUBzg7nBARKsQMbkQ0BAI5HB4UrnQHSQs0BWnKnB+7LHQI8SFsAteK/B0ffZQALu
DL87arzBOmbWQNkUXMC+w5/BMtulQJMAID8VDZjBJL51QO+KlcC+/IfBRXhfQNZvWr+sqZXB0rHl
QHXtFEDbKpfBqGjdQKL9gkBowJjB8m+YQJxHSUBPmLjBhQLGQAZCgECk+73BbxitQPYGu0DhyrHB
z3yoQFx2sUBeq6PBE4sEQQLVdkB70KXBp5wDQT+YiEBQy7PBkYL6QP6A/MALg4rBbBfPQDUPCsH2
2JHBwEf8QAZb/sAI3pjBplFlQMszTED1IabBBE49QPYPaED9UInBDh4KQIbVbECwl5XB3b28QAew
rMCt5JLBSNbQQIOQzcDVvpHB7bK9QLPhqL/iuq3BMlPNQMtbqL4ep7TBlfezQGz7TcCEepvBdPao
QIiYyj485aDB7iqBQFOOesCK3o3BCT1zQO5C5b8FkZXBCailQH67hcDcKJTBkRKsQApTdr+evKPB
O6KdQIgbAMAMOpzBs6q4QLExsz9dyafBBmfMQLEogz+8nbHBy9OIQFkEVUAvcpbBtInQQJdGREAI
AJrBr0btQA+bS0DUW7PBLEijQBl+hkCaBbbB6oXIQItJqkCXX6vBiMu2QBpPN0ANQqTBEIDGQIFM
cUDjnq3BLCDpQOT49MCXTpDBnM5XQJRTL8C5pI7ByTyLQEYGT0AL66DB26tFQGbUYEB86pDBoCng
QJ1L+D+VVLjBQqWwQF/iS0DDx5HB0USoQEwcsUBc7LLBRiq/QH7xFsB0DrDBnCPaQC6QG79TXLzB
z5XPQAkfWsAqcqDB4m2aQLkALD/YX5nBwetrQGdKlcCwUojBnV5RQGzyWb8wBZbBK37lQBwIDUD6
epjBa/zjQLTSfkDWfZrBj7X4QKiIeEBRgLnBgYYDQZ5GP0Aoka3BJBOsQJcigEC0ZL7BbkqDQKqX
ckCCabTBP5q/QINQs0BPKqPB0VbnQG0kuUA4cq3BllrgQDH7BcF+mZbBBscFQZTu7cBC0JDBUc7h
QHdhAcF6a4jBrJ9lQC4xWUCE7aXBF+1FQBRHY0AA7IjB0pkOQFHnZkCp65TB

>  <OMEGA_E>  (9) 
4tIfP1xvID8=

>  <OMEGA_NBR>  (9) 
     30362

$$$$
361714
     RDKit          3D

 46 50  0  0  1  0  0  0  0  0999 V2000
    2.4895   -2.8205  -17.0631 C   0  0  0  0  0  0  0  0  0  0  0  0
    1.5094   -2.7408  -16.3544 C   0  0  0  0  0  0  0  0  0  0  0  0
    5.8955   -1.3522  -21.7519 C   0  0  0  0  0  0  0  0  0  0  0  0
    6.3534   -0.3492  -22.6144 C   0  0  0  0  0  0  0  0  0  0  0  0
    5.2527    0.3379  -20.1140 C   0  0  0  0  0  0  0  0  0  0  0  0
    4.4039   -4.1250  -17.8513 C   0  0  0  0  0  0  0  0  0  0  0  0
    5.7987   -3.2719  -19.4969 C   0  0  0  0  0  0  0  0  0  0  0  0
    3.6388   -2.9392  -17.8895 C   0  0  0  0  0  0  0  0  0  0  0  0
    5.3845   -1.0166  -20.4823 C   0  0  0  0  0  0  0  0  0  0  0  0
    5.7312    1.3568  -20.9700 C   0  0  0  0  0  0  0  0  0  0  0  0
    6.3400    0.9948  -22.2078 C   0  0  0  0  0  0  0  0  0  0  0  0
    5.0289   -2.0827  -19.5391 C   0  0  0  0  0  0  0  0  0  0  0  0
    4.2530    3.3592  -18.8066 C   0  0  0  0  0  0  0  0  0  0  0  0
    6.4844    2.9905  -19.2151 C   0  0  0  0  0  0  0  0  0  0  0  0
    7.4266    3.1215  -22.3736 C   0  0  0  0  0  0  0  0  0  0  0  0
    5.1509    4.2095  -22.7229 C   0  0  0  0  0  0  0  0  0  0  0  0
    6.3287    5.2770  -21.3630 C   0  0  0  0  0  0  0  0  0  0  0  0
    5.6936    2.8190  -20.5111 C   0  0  1  0  0  0  0  0  0  0  0  0
    6.2238    3.7319  -21.6629 C   0  0  0  0  0  0  0  0  0  0  0  0
    0.3342   -2.6594  -15.4981 C   0  0  0  0  0  0  0  0  0  0  0  0
    5.4788   -4.2709  -18.6514 N   0  0  0  0  0  0  0  0  0  0  0  0
    3.9671   -1.9305  -18.7202 N   0  0  0  0  0  0  0  0  0  0  0  0
    4.3347    3.2140  -20.1105 N   0  0  0  0  0  0  0  0  0  0  0  0
    3.0767    3.6531  -18.1346 N   0  0  0  0  0  0  0  0  0  0  0  0
    6.9798    1.9113  -23.0262 O   0  0  0  0  0  0  0  0  0  0  0  0
    5.4780    3.1516  -18.2039 O   0  0  0  0  0  0  0  0  0  0  0  0
    5.3419    5.5313  -22.3187 O   0  0  0  0  0  0  0  0  0  0  0  0
    5.9340   -2.3865  -22.0605 H   0  0  0  0  0  0  0  0  0  0  0  0
    6.7185   -0.6102  -23.5967 H   0  0  0  0  0  0  0  0  0  0  0  0
    4.7850    0.5980  -19.1759 H   0  0  0  0  0  0  0  0  0  0  0  0
    4.1261   -4.9209  -17.1763 H   0  0  0  0  0  0  0  0  0  0  0  0
    6.6520   -3.3786  -20.1503 H   0  0  0  0  0  0  0  0  0  0  0  0
    7.1002    2.1015  -19.0139 H   0  0  0  0  0  0  0  0  0  0  0  0
    7.1300    3.8796  -19.2674 H   0  0  0  0  0  0  0  0  0  0  0  0
    7.8193    3.8274  -23.1203 H   0  0  0  0  0  0  0  0  0  0  0  0
    8.2141    2.8850  -21.6429 H   0  0  0  0  0  0  0  0  0  0  0  0
    5.4336    4.0139  -23.7678 H   0  0  0  0  0  0  0  0  0  0  0  0
    4.1364    3.8258  -22.5396 H   0  0  0  0  0  0  0  0  0  0  0  0
    6.0430    5.5556  -20.3379 H   0  0  0  0  0  0  0  0  0  0  0  0
    7.3089    5.7152  -21.6024 H   0  0  0  0  0  0  0  0  0  0  0  0
   -0.1275   -1.6663  -15.6017 H   0  0  0  0  0  0  0  0  0  0  0  0
   -0.3895   -3.4329  -15.7945 H   0  0  0  0  0  0  0  0  0  0  0  0
    0.6319   -2.8177  -14.4510 H   0  0  0  0  0  0  0  0  0  0  0  0
    3.5747    3.3535  -20.7452 H   0  0  0  0  0  0  0  0  0  0  0  0
    3.0759    3.7286  -17.1375 H   0  0  0  0  0  0  0  0  0  0  0  0
    2.2289    3.7896  -18.6470 H   0  0  0  0  0  0  0  0  0  0  0  0
  1  2  3  0
  1  8  1  0
  2 20  1  0
  3  4  2  0
  3  9  1  0
  4 11  1  0
  5  9  2  0
  5 10  1  0
  6  8  2  0
  6 21  1  0
  7 12  1  0
  7 21  2  0
  8 22  1  0
  9 12  1  0
 10 11  2  0
 10 18  1  0
 11 25  1  0
 12 22  2  0
 13 23  2  0
 13 24  1  0
 13 26  1  0
 18 14  1  1
 14 26  1  0
 15 19  1  0
 15 25  1  0
 16 19  1  0
 16 27  1  0
 17 19  1  0
 17 27  1  0
 18 19  1  0
 18 23  1  0
  3 28  1  0
  4 29  1  0
  5 30  1  0
  6 31  1  0
  7 32  1  0
 14 33  1  0
 14 34  1  0
 15 35  1  0
 15 36  1  0
 16 37  1  0
 16 38  1  0
 17 39  1  0
 17 40  1  0
 20 41  1  0
 20 42  1  0
 20 43  1  0
 23 44  1  0
 24 45  1  0
 24 46  1  0
M  CHG  1  23   1
M  END
>  <OMEGA_C>  (10) 
C1QfQNODNMAngYjB8jTBPy1pL8DB1YLB4ae8QGgVrb/PA67B3k7LQO7Osr406rTBxhWoQKkDrT6I
6aDBFu2MQEQAhMCLz47Bzo65QB9mUcC3+ZvBc+FoQAkbPMC9HY/B5E2sQNwggr+226PBEma3QNeq
rT96wqfBPeHKQG+rfj95qbHB/uygQO1KBcAqUJzB8hiIQH79VkD2c5bBWIDPQL1kP0CfuJnB5qbt
QKnGR0A5/bLBJdSkQFa0hkCNyLXBj4TKQH3dqEBc56rBWDK2QENqNEC0FqTBSynHQDrXbkC3Ta3B
QCCrPuAyKsAv+HfBAFKvQAmriMAXNpXBmuV9QBQZ97/wwpXBQbaKQM2yTUBK4qDBlOhEQGPMaUC+
E5HB3VrfQN6l9D+aNbjBAUyvQCq0SUCroZHB6vCqQJ0AsUCvjLLBPeO9QPm7GMDPe7DB4/3WQLY2
HL8HxrzB2R6ZQLMYGT9IaJnBwQiEQFx4ncACaYnBytzUQGo6WMDmM6HB0DTjQIJ/BkBrHJjBSynk
QCtLeEC4I5rB3jf6QBH0dEBh9rjByWwDQXukOECZJK3BaOCtQPNxgEB8JL7BvV2EQCfZdEAVUbTB
jWDBQIXHsUD6s6LBHOLpQKTitkCk0azBZI8CvuBK1b+voHnBfHLHvvezW8AmtnzBzMYhP9NUNMB9
N2fBEcdkQD2gVkAT9qXBXNxEQIehbkCXGYnBt6UOQIqIckAkLZXB

>  <OMEGA_E>  (10) 
PL38Pg==

>  <OMEGA_NBR>  (10) 
     45161

$$$$
361715
     RDKit          3D

 44 48  0  0  1  0  0  0  0  0999 V2000
    1.3398   -2.8992  -16.5074 C   0  0  0  0  0  0  0  0  0  0  0  0
    2.3589   -2.9656  -17.1622 C   0  0  0  0  0  0  0  0  0  0  0  0
    6.0159   -1.3631  -21.7361 C   0  0  0  0  0  0  0  0  0  0  0  0
    6.4300   -0.3447  -22.6064 C   0  0  0  0  0  0  0  0  0  0  0  0
    3.9206   -1.9814  -18.7716 C   0  0  0  0  0  0  0  0  0  0  0  0
    5.3585    0.3081  -20.0879 C   0  0  0  0  0  0  0  0  0  0  0  0
    4.3652   -4.1974  -17.8782 C   0  0  0  0  0  0  0  0  0  0  0  0
    5.8462   -3.2998  -19.4549 C   0  0  0  0  0  0  0  0  0  0  0  0
    3.5538   -3.0447  -17.9354 C   0  0  0  0  0  0  0  0  0  0  0  0
    5.4890   -1.0413  -20.4696 C   0  0  0  0  0  0  0  0  0  0  0  0
    5.0825   -2.1131  -19.5518 C   0  0  0  0  0  0  0  0  0  0  0  0
    5.8011    1.3395  -20.9447 C   0  0  0  0  0  0  0  0  0  0  0  0
    6.3619    1.0021  -22.2094 C   0  0  0  0  0  0  0  0  0  0  0  0
    4.2544    3.4268  -18.8054 C   0  0  0  0  0  0  0  0  0  0  0  0
    6.4876    3.0022  -19.1833 C   0  0  0  0  0  0  0  0  0  0  0  0
    7.3165    3.1749  -22.4554 C   0  0  0  0  0  0  0  0  0  0  0  0
    5.0363    4.3168  -22.5889 C   0  0  0  0  0  0  0  0  0  0  0  0
    6.3432    5.2784  -21.2696 C   0  0  0  0  0  0  0  0  0  0  0  0
    5.6985    2.7936  -20.4800 C   0  0  1  0  0  0  0  0  0  0  0  0
    6.1641    3.7518  -21.6322 C   0  0  0  0  0  0  0  0  0  0  0  0
    5.4875   -4.3072  -18.6267 N   0  0  0  0  0  0  0  0  0  0  0  0
    4.3198    3.0903  -20.0717 N   0  0  0  0  0  0  0  0  0  0  0  0
    3.0684    3.7506  -18.1656 N   0  0  0  0  0  0  0  0  0  0  0  0
    6.8716    1.9511  -23.0766 O   0  0  0  0  0  0  0  0  0  0  0  0
    5.5039    3.4135  -18.2186 O   0  0  0  0  0  0  0  0  0  0  0  0
    5.3427    5.6170  -22.1814 O   0  0  0  0  0  0  0  0  0  0  0  0
    0.4494   -2.8412  -15.9352 H   0  0  0  0  0  0  0  0  0  0  0  0
    6.1010   -2.3968  -22.0373 H   0  0  0  0  0  0  0  0  0  0  0  0
    6.8037   -0.5966  -23.5879 H   0  0  0  0  0  0  0  0  0  0  0  0
    3.3244   -1.0819  -18.8155 H   0  0  0  0  0  0  0  0  0  0  0  0
    4.9169    0.5556  -19.1339 H   0  0  0  0  0  0  0  0  0  0  0  0
    4.0848   -5.0092  -17.2234 H   0  0  0  0  0  0  0  0  0  0  0  0
    6.7370   -3.4039  -20.0566 H   0  0  0  0  0  0  0  0  0  0  0  0
    6.9713    2.0657  -18.8687 H   0  0  0  0  0  0  0  0  0  0  0  0
    7.2512    3.7829  -19.3153 H   0  0  0  0  0  0  0  0  0  0  0  0
    7.6157    3.8961  -23.2302 H   0  0  0  0  0  0  0  0  0  0  0  0
    8.1734    2.9665  -21.7980 H   0  0  0  0  0  0  0  0  0  0  0  0
    5.2167    4.1266  -23.6572 H   0  0  0  0  0  0  0  0  0  0  0  0
    4.0191    3.9914  -22.3251 H   0  0  0  0  0  0  0  0  0  0  0  0
    6.0993    5.5227  -20.2252 H   0  0  0  0  0  0  0  0  0  0  0  0
    7.3341    5.6854  -21.5196 H   0  0  0  0  0  0  0  0  0  0  0  0
    3.5294    3.0419  -20.6824 H   0  0  0  0  0  0  0  0  0  0  0  0
    3.0748    4.0013  -17.1976 H   0  0  0  0  0  0  0  0  0  0  0  0
    2.2062    3.7334  -18.6719 H   0  0  0  0  0  0  0  0  0  0  0  0
  1  2  3  0
  2  9  1  0
  3  4  2  0
  3 10  1  0
  4 13  1  0
  5  9  2  0
  5 11  1  0
  6 10  2  0
  6 12  1  0
  7  9  1  0
  7 21  2  0
  8 11  2  0
  8 21  1  0
 10 11  1  0
 12 13  2  0
 12 19  1  0
 13 24  1  0
 14 22  2  0
 14 23  1  0
 14 25  1  0
 19 15  1  1
 15 25  1  0
 16 20  1  0
 16 24  1  0
 17 20  1  0
 17 26  1  0
 18 20  1  0
 18 26  1  0
 19 20  1  0
 19 22  1  0
  1 27  1  0
  3 28  1  0
  4 29  1  0
  5 30  1  0
  6 31  1  0
  7 32  1  0
  8 33  1  0
 15 34  1  0
 15 35  1  0
 16 36  1  0
 16 37  1  0
 17 38  1  0
 17 39  1  0
 18 40  1  0
 18 41  1  0
 22 42  1  0
 23 43  1  0
 23 44  1  0
M  CHG  1  22   1
M  END
>  <OMEGA_C>  (11) 
v36rPwmNOcAVD4TBlvgWQIbMPcBHTInBV4LAQDJ6rr+J463B18LNQBCAsL702bTBaup6QJKe/b8r
LJbBc3irQCTAnT4ctKDBaa+LQBJRhsB2Bo/BDhS7QMUvU8Ceo5vBMHJjQMTcQsCbe4/BvaWvQBVK
hb+mwaPBIaSiQOA8B8ADapzBw6K5QKt0qz+7jqfBhZTLQHBFgD/RrLHBXSSIQHZQW0CIcZbBk5rP
QN0kQEBSd5nB9yDqQOkxS0C7pLPBVSmhQCQjikD6tbTBQ/vKQKjoqEAkKKrBKVq2QDLKMkAd16PB
hUDFQDsecEDTDq3B8pmvQNDUicBpA5XBpDuKQE3HRUDVkqDBVmBEQB8JcEAaU5HBZeTbQFq9+T/Y
nLjB0R+wQC52WkC1v5HBpPeqQFy+s0CBc7HB7BXmPuHWNcCE9n7BsjvDQGtkGcBkTLDB4bfZQEy7
GL8OtLzB6sJUQHZ8ir8phpbBmledQKc6Dj8zEpnB+raCQK9LoMB8yYnBK5XXQE3aWcD9c6DBMRXf
QMM0BEAq85bB3QnoQNYbckDWhZrBLLTzQFxaeUCE17nBYsYCQaXaPUBAYq7BF++mQC0NhEDhQb3B
4JyAQFdzf0DjmbLBUy3DQBa6sEAnzaHBp7DqQKzutUAgKKzBCOJhQLmuQkCcdaXBP8lEQOsKgECX
lInB5DINQLzvbkAjYJXBiKTVQCu7zMBi9I/BwurBQDDXq8DcdZHB78fDQIO6pr+QNa3BPF7OQCRw
k77nibTBklC6QGDSTcB1kZrBo8+wQFqVxT7NA6DBe8OFQE7qd8ClNo3Bl3t+QJAm478nVpXBEg6r
QNv5hMDjKpPBmJ2zQDykdr8UB6PBZlGkQNLP/7/am5vBXiS8QGmrtD+RM6fBPVPJQGvLiD+JwLHB
5yOGQKR5UEDQa5bBfAvOQGpCSEC385jBDuq6QOBRUkBsBbjBPji7QMdjq0DtEavBjov1QDw4i0Bw
Y6zBepO3QJ6aN0BpqaPBEeHFQOP1dEBz36zB0gxhQAAKLcB4Y47BM56KQPrxSEA536DBYWs/QK7d
X0CSQJHBYbbQQOyBAUCWkrnB/4ysQJwTREALPJHBmbjmQIg7tEAv6anBpuDmQOt36cCVo47BfgXI
QPO9FcB+X6/BbHLaQPLdDL9rW7zBKFDWQFsdW8BeWp/BEdKlQEojJD/+FJjBiNxzQHxsk8BAmofB
b5tcQEqfVr+gH5bBmGHmQAz9FkCUX5fBnDHdQBfng0D66JjBKySYQPOtSEBmqrjBbWzFQPkigED3
Jb7BdkCsQKMRu0DkALLB0RmoQGfSsUC726PB4XkEQZrceECuC6bBpmADQaYriUA+DLTBcZBlQE5G
TkD8KqbBs3A9QNyGYkBSQ4nB4eQJQMRRaEBAgpXB3UjNQFCqzcDWWpDB+pe6QKkrrMDp2pHB1+y/
QOstqr+Cmq3BVWfOQIxpqb6IpbTBnyu0QFceTsCrApvBjFCqQM6TxD7f3qDBEl9/QBoNdsBPio3B
DnRzQKNj4L+5y5XB8KukQFK9hMDTiJPB+uCtQFP0eL8QqKPBYnGeQDui/7+hJJzBlha5QAtBsj/q
zqfBEh/MQN6Qgz/Su7HBa4aIQHDWU0BgX5bBTFLQQJJvQkAU15nB0KDrQJqxTECYrrPBWc6hQBGy
iEDgYrXBLw7JQMxXqkCbxqrBs8e2QE9lNkAhK6TBCvXFQIMMckBWcK3Bvd9VQK61KsBGvo7BvAuL
QDOqTEBD0qDBJ+JEQM5nYUCm8pDBe87dQCkc+z+ZobjBNTWwQPPxSUATqJHBqvmmQN6FskD2sbHB
aZ3dQPjt6sBFC4/B4p3CQLC0F8C7zq/BhF3bQJmNG78HWLzBfBzQQLY1XMDQx5/Baw6cQJYYKD/9
TpnBnFtnQL4qksBU3ofBpTdSQF3FT7+5nJbB5BDlQLjXCkDJVpjBE/bjQB7FfEBPPprBwOn1QEc1
ekA54rnBPTcDQUHtP0CdNK7BV7qpQLRhhEBz5L3B0wmCQH76dUAmxLPBVWzCQGA1skAvXKLBzGXn
QLZEuUBvOK3B1PlkQKU1VUCB1qXB/55EQC23ZEBo9YjBXjEOQGfiZ0DzBZXB

>  <OMEGA_E>  (11) 
gAPXPmCkGj+i9Ro/

>  <OMEGA_NBR>  (11) 
     52852

$$$$
50248132
     RDKit          3D

 58 62  0  0  1  0  0  0  0  0999 V2000
    6.1487   -1.3250  -21.7047 C   0  0  0  0  0  0  0  0  0  0  0  0
    6.6740    5.6325  -23.3620 C   0  0  0  0  0  0  0  0  0  0  0  0
    6.5008   -0.2680  -22.5469 C   0  0  0  0  0  0  0  0  0  0  0  0
    6.8355    4.2743  -23.6353 C   0  0  0  0  0  0  0  0  0  0  0  0
    5.4485    0.2683  -19.9989 C   0  0  0  0  0  0  0  0  0  0  0  0
    5.9707    5.0949  -21.0925 C   0  0  0  0  0  0  0  0  0  0  0  0
    5.9155   -3.3418  -19.5164 C   0  0  0  0  0  0  0  0  0  0  0  0
    4.0176   -2.0319  -18.7774 C   0  0  0  0  0  0  0  0  0  0  0  0
    4.4030   -4.1784  -17.9489 C   0  0  0  0  0  0  0  0  0  0  0  0
    5.5969   -1.0553  -20.4385 C   0  0  0  0  0  0  0  0  0  0  0  0
    5.1727   -2.1496  -19.5750 C   0  0  0  0  0  0  0  0  0  0  0  0
    5.8432    1.3341  -20.8217 C   0  0  0  0  0  0  0  0  0  0  0  0
    6.1041    3.7282  -21.3654 C   0  0  0  0  0  0  0  0  0  0  0  0
    6.1947    6.0277  -22.1056 C   0  0  0  0  0  0  0  0  0  0  0  0
    6.3377    1.0603  -22.1260 C   0  0  0  0  0  0  0  0  0  0  0  0
    6.5281    3.3144  -22.6580 C   0  0  0  0  0  0  0  0  0  0  0  0
    4.1662    3.4518  -18.7273 C   0  0  0  0  0  0  0  0  0  0  0  0
    6.4027    2.9762  -18.9846 C   0  0  0  0  0  0  0  0  0  0  0  0
    5.6723    2.7435  -20.3117 C   0  0  2  0  0  0  0  0  0  0  0  0
    6.5691   10.3914  -22.1832 C   0  0  0  0  0  0  0  0  0  0  0  0
    8.0544   10.1789  -20.1532 C   0  0  0  0  0  0  0  0  0  0  0  0
    5.5717    9.7817  -19.9298 C   0  0  0  0  0  0  0  0  0  0  0  0
    5.8758    7.4496  -21.8503 C   0  0  0  0  0  0  0  0  0  0  0  0
    7.0692    8.1058  -21.1513 C   0  0  0  0  0  0  0  0  0  0  0  0
    6.8049    9.6056  -20.8616 C   0  0  0  0  0  0  0  0  0  0  0  0
    5.5223   -4.3366  -18.6991 N   0  0  0  0  0  0  0  0  0  0  0  0
    3.6473   -3.0521  -17.9801 N   0  0  0  0  0  0  0  0  0  0  0  0
    4.2651    2.9816  -19.9530 N   0  0  0  0  0  0  0  0  0  0  0  0
    2.9728    3.8418  -18.1400 N   0  0  0  0  0  0  0  0  0  0  0  0
    6.6662    2.0098  -23.0636 O   0  0  0  0  0  0  0  0  0  0  0  0
    5.4038    3.5373  -18.1200 O   0  0  0  0  0  0  0  0  0  0  0  0
    6.2992   -2.3457  -22.0240 H   0  0  0  0  0  0  0  0  0  0  0  0
    6.9159    6.3721  -24.1109 H   0  0  0  0  0  0  0  0  0  0  0  0
    6.9012   -0.4745  -23.5285 H   0  0  0  0  0  0  0  0  0  0  0  0
    7.1984    3.9598  -24.6026 H   0  0  0  0  0  0  0  0  0  0  0  0
    5.0289    0.4678  -19.0240 H   0  0  0  0  0  0  0  0  0  0  0  0
    5.6956    5.4258  -20.1019 H   0  0  0  0  0  0  0  0  0  0  0  0
    6.7995   -3.4593  -20.1257 H   0  0  0  0  0  0  0  0  0  0  0  0
    3.4304   -1.1259  -18.8053 H   0  0  0  0  0  0  0  0  0  0  0  0
    4.1000   -4.9850  -17.2977 H   0  0  0  0  0  0  0  0  0  0  0  0
    6.7812    2.0271  -18.5773 H   0  0  0  0  0  0  0  0  0  0  0  0
    7.2396    3.6773  -19.1188 H   0  0  0  0  0  0  0  0  0  0  0  0
    5.6817    9.9910  -22.6952 H   0  0  0  0  0  0  0  0  0  0  0  0
    6.4109   11.4555  -21.9537 H   0  0  0  0  0  0  0  0  0  0  0  0
    7.4484   10.2839  -22.8354 H   0  0  0  0  0  0  0  0  0  0  0  0
    8.2300    9.6295  -19.2166 H   0  0  0  0  0  0  0  0  0  0  0  0
    8.9298   10.0719  -20.8106 H   0  0  0  0  0  0  0  0  0  0  0  0
    7.8923   11.2435  -19.9288 H   0  0  0  0  0  0  0  0  0  0  0  0
    5.7361    9.2267  -18.9943 H   0  0  0  0  0  0  0  0  0  0  0  0
    5.4330   10.8491  -19.7032 H   0  0  0  0  0  0  0  0  0  0  0  0
    4.6737    9.3939  -20.4330 H   0  0  0  0  0  0  0  0  0  0  0  0
    5.6791    7.9612  -22.8040 H   0  0  0  0  0  0  0  0  0  0  0  0
    4.9865    7.5191  -21.2067 H   0  0  0  0  0  0  0  0  0  0  0  0
    7.2563    7.5857  -20.2003 H   0  0  0  0  0  0  0  0  0  0  0  0
    7.9547    8.0175  -21.7979 H   0  0  0  0  0  0  0  0  0  0  0  0
    3.4884    2.8094  -20.5588 H   0  0  0  0  0  0  0  0  0  0  0  0
    2.9707    4.2157  -17.2126 H   0  0  0  0  0  0  0  0  0  0  0  0
    2.1139    3.7492  -18.6438 H   0  0  0  0  0  0  0  0  0  0  0  0
  1  3  2  0
  1 10  1  0
  2  4  1  0
  2 14  2  0
  3 15  1  0
  4 16  2  0
  5 10  2  0
  5 12  1  0
  6 13  2  0
  6 14  1  0
  7 11  2  0
  7 26  1  0
  8 11  1  0
  8 27  2  0
  9 26  2  0
  9 27  1  0
 10 11  1  0
 12 15  2  0
 12 19  1  0
 13 16  1  0
 13 19  1  0
 14 23  1  0
 15 30  1  0
 16 30  1  0
 17 28  2  0
 17 29  1  0
 17 31  1  0
 19 18  1  1
 18 31  1  0
 19 28  1  0
 20 25  1  0
 21 25  1  0
 22 25  1  0
 23 24  1  0
 24 25  1  0
  1 32  1  0
  2 33  1  0
  3 34  1  0
  4 35  1  0
  5 36  1  0
  6 37  1  0
  7 38  1  0
  8 39  1  0
  9 40  1  0
 18 41  1  0
 18 42  1  0
 20 43  1  0
 20 44  1  0
 20 45  1  0
 21 46  1  0
 21 47  1  0
 21 48  1  0
 22 49  1  0
 22 50  1  0
 22 51  1  0
 23 52  1  0
 23 53  1  0
 24 54  1  0
 24 55  1  0
 28 56  1  0
 29 57  1  0
 29 58  1  0
M  CHG  1  28   1
M  END
>  <OMEGA_C>  (12) 
6MHEQAyZqb9Eo63Bj5HVQF49tEBf5brBewbQQJY5ib4kYLTBK7zaQBzHiEADFb3B+VmuQNpgiT7Z
/Z/BJBC/QKMJo0B0vajB/Uu9QNjfVcCnIZzBDJCAQPoKAsAgOJbBJuWMQCS1hcBKl4/BMBqzQN8U
h78BgqPBBoelQJeSCcCKmZzBsvu6QOTDqj/hkqbBLFXDQBSabkBp7KrBIzvGQBvjwEBQ2LDBes7K
QNa4hz8RArHBbObQQGgfVECCQ7XBVVGFQILpXECG0ZXBkOLMQG15PkCH4JfBYYO1QAyWL0BnfqLB
YzbSQEpDJkEwd7HBx94AQc3cIkHQOaHBdEuyQLiBHEEkcJ/BrAa8QDBj7kCDza7BCTfiQECxAUHs
NanBvcHZQGqwGUF/5KbBV7awQDXFisDRl5XBum1pQL9VQ8A814/B23uIQNfSPkC0n5/BqEI+QFjf
dUDIHpHBTFHVQO+gAEAzgrjBDuysQOJjYkC99ZDBbpPJQCMfFsA7MbDB4E7dQD3oy0Ap48DBYtbc
QGH28r5dOrzBQFnmQBhtfUAk0sTBBe2gQGeG7z4ZMZjBGUK2QNufrUDC0KDBhJXZQMpkXcBlAaHB
zItbQO8dkL8ucZbBjTODQCOFn8DIYYrBXv/YQIC7AUA8npTBZarnQAFZa0BR85jB0dC1QP/aH0HI
j7XBySXNQMJJN0Edoa/B8VjuQKmKJEH0rrbB+q0DQWMSGkGPu5nBnuAOQVYmIUEZfKbBFY78QG/l
M0FCbp/BEY63QL+gE0Ff9JfB7dqtQOuVLUEWoJ3BBY+VQIRNFkHFdqPB5bq1QFfC/kCvbrbBgpGf
QJuc8EBHp6nB2zPoQFi+8kAdmqHBPo3+QJ5HAEEZYq7B4kFfQKvNM0B7eKTBKSA+QO7mhkBbs4nB
xEoHQPjyb0BzJpXB

>  <OMEGA_E>  (12) 
QCjYPg==

>  <OMEGA_NBR>  (12) 
     54119

$$$$
