284491
     RDKit          3D

 57 62  0  0  1  0  0  0  0  0999 V2000
    7.5270    9.5407  -23.3125 C   0  0  0  0  0  0  0  0  0  0  0  0
    7.5690    8.1505  -23.4186 C   0  0  0  0  0  0  0  0  0  0  0  0
    7.1547    5.3331  -24.0067 C   0  0  0  0  0  0  0  0  0  0  0  0
    7.1954    3.9446  -24.1094 C   0  0  0  0  0  0  0  0  0  0  0  0
    6.5567   10.1499  -22.5171 C   0  0  0  0  0  0  0  0  0  0  0  0
    6.2586    5.1329  -21.7743 C   0  0  0  0  0  0  0  0  0  0  0  0
    5.6707    7.9789  -21.9338 C   0  0  0  0  0  0  0  0  0  0  0  0
    5.4211    0.4280  -20.1149 C   0  0  0  0  0  0  0  0  0  0  0  0
    5.9589   -1.3560  -21.6500 C   0  0  0  0  0  0  0  0  0  0  0  0
    6.6855    5.9276  -22.8393 C   0  0  0  0  0  0  0  0  0  0  0  0
    6.6411    7.3696  -22.7292 C   0  0  0  0  0  0  0  0  0  0  0  0
    5.4615   -0.9333  -20.4209 C   0  0  0  0  0  0  0  0  0  0  0  0
    6.2939    3.7311  -21.8621 C   0  0  0  0  0  0  0  0  0  0  0  0
    5.8766    1.3869  -21.0354 C   0  0  0  0  0  0  0  0  0  0  0  0
    6.7655    3.1480  -23.0428 C   0  0  0  0  0  0  0  0  0  0  0  0
    6.3726    0.9470  -22.2670 C   0  0  0  0  0  0  0  0  0  0  0  0
    6.4151   -0.4175  -22.5726 C   0  0  0  0  0  0  0  0  0  0  0  0
    5.6287    9.3690  -21.8278 C   0  0  0  0  0  0  0  0  0  0  0  0
    5.7738   -2.8913  -18.9373 C   0  0  0  0  0  0  0  0  0  0  0  0
    4.9754   -1.9292  -19.4368 C   0  0  0  0  0  0  0  0  0  0  0  0
    6.6518    3.1710  -19.4276 C   0  0  0  0  0  0  0  0  0  0  0  0
    4.4439    3.7164  -18.9973 C   0  0  0  0  0  0  0  0  0  0  0  0
    5.2862   -3.9161  -17.9537 C   0  0  0  0  0  0  0  0  0  0  0  0
    3.5323   -1.8612  -18.9961 C   0  0  0  0  0  0  0  0  0  0  0  0
    3.3108   -2.6378  -17.7003 C   0  0  0  0  0  0  0  0  0  0  0  0
    5.8484    2.8597  -20.7158 C   0  0  1  0  0  0  0  0  0  0  0  0
    6.1076    4.0676  -17.1122 C   0  0  0  0  0  0  0  0  0  0  0  0
    5.7119    3.6828  -18.4617 N   0  0  0  0  0  0  0  0  0  0  0  0
    4.4666    3.2465  -20.3151 N   0  0  0  0  0  0  0  0  0  0  0  0
    3.3037    4.1427  -18.3657 N   0  0  0  0  0  0  0  0  0  0  0  0
    7.8498    3.0169  -19.2532 O   0  0  0  0  0  0  0  0  0  0  0  0
    6.8432    1.7909  -23.2440 O   0  0  0  0  0  0  0  0  0  0  0  0
    3.8609   -3.9460  -17.8363 O   0  0  0  0  0  0  0  0  0  0  0  0
    6.8935   -0.8315  -23.7545 F   0  0  0  0  0  0  0  0  0  0  0  0
    4.4342   10.1215  -20.8436 Cl  0  0  0  0  0  0  0  0  0  0  0  0
    8.2506   10.1481  -23.8483 H   0  0  0  0  0  0  0  0  0  0  0  0
    8.3310    7.6899  -24.0429 H   0  0  0  0  0  0  0  0  0  0  0  0
    7.4922    5.9368  -24.8457 H   0  0  0  0  0  0  0  0  0  0  0  0
    7.5626    3.4865  -25.0241 H   0  0  0  0  0  0  0  0  0  0  0  0
    6.5369   11.2344  -22.4428 H   0  0  0  0  0  0  0  0  0  0  0  0
    5.8960    5.6067  -20.8638 H   0  0  0  0  0  0  0  0  0  0  0  0
    4.9464    7.3706  -21.3955 H   0  0  0  0  0  0  0  0  0  0  0  0
    5.0326    0.7488  -19.1501 H   0  0  0  0  0  0  0  0  0  0  0  0
    5.9984   -2.4123  -21.9042 H   0  0  0  0  0  0  0  0  0  0  0  0
    6.8203   -2.9459  -19.2285 H   0  0  0  0  0  0  0  0  0  0  0  0
    5.6041   -4.9128  -18.2751 H   0  0  0  0  0  0  0  0  0  0  0  0
    5.7223   -3.7276  -16.9662 H   0  0  0  0  0  0  0  0  0  0  0  0
    3.2178   -0.8213  -18.8484 H   0  0  0  0  0  0  0  0  0  0  0  0
    2.9113   -2.2884  -19.7939 H   0  0  0  0  0  0  0  0  0  0  0  0
    3.7616   -2.1323  -16.8374 H   0  0  0  0  0  0  0  0  0  0  0  0
    2.2388   -2.7389  -17.5032 H   0  0  0  0  0  0  0  0  0  0  0  0
    6.3963    5.1222  -17.0820 H   0  0  0  0  0  0  0  0  0  0  0  0
    5.2789    3.9106  -16.4161 H   0  0  0  0  0  0  0  0  0  0  0  0
    6.9555    3.4620  -16.7802 H   0  0  0  0  0  0  0  0  0  0  0  0
    3.6339    3.1877  -20.8965 H   0  0  0  0  0  0  0  0  0  0  0  0
    3.3772    4.4633  -17.4284 H   0  0  0  0  0  0  0  0  0  0  0  0
    2.4485    4.1146  -18.8695 H   0  0  0  0  0  0  0  0  0  0  0  0
  1  2  2  0
  1  5  1  0
  2 11  1  0
  3  4  2  0
  3 10  1  0
  4 15  1  0
  5 18  2  0
  6 10  2  0
  6 13  1  0
  7 11  2  0
  7 18  1  0
  8 12  2  0
  8 14  1  0
  9 12  1  0
  9 17  2  0
 10 11  1  0
 12 20  1  0
 13 15  2  0
 13 26  1  0
 14 16  2  0
 14 26  1  0
 15 32  1  0
 16 17  1  0
 16 32  1  0
 17 34  1  0
 18 35  1  0
 19 20  2  0
 19 23  1  0
 20 24  1  0
 26 21  1  1
 21 28  1  0
 21 31  2  0
 22 28  1  0
 22 29  2  0
 22 30  1  0
 23 33  1  0
 24 25  1  0
 25 33  1  0
 26 29  1  0
 27 28  1  0
  1 36  1  0
  2 37  1  0
  3 38  1  0
  4 39  1  0
  5 40  1  0
  6 41  1  0
  7 42  1  0
  8 43  1  0
  9 44  1  0
 19 45  1  0
 23 46  1  0
 23 47  1  0
 24 48  1  0
 24 49  1  0
 25 50  1  0
 25 51  1  0
 27 52  1  0
 27 53  1  0
 27 54  1  0
 29 55  1  0
 30 56  1  0
 30 57  1  0
M  CHG  1  29   1
M  END
>  <OMEGA_C>  (1) 
dt3wQLKmGEERgLrBVDXyQGBoAkE/WbvBivPkQN2oqkDGDcDB+EDmQA50fEAD4MDBFNDRQP1lIkEU
I7TBTkbIQJNApECqMa7BIna1QOBS/0BqeK/BWXmtQGgj2z5o66DBRq++QHuSrb8aM63B2O/VQAqv
vUDVtrbBwoPUQOvT60B11bXBOsSuQI7qbr8IXqPBZGfJQJTJbkCp5a7BTg28QMOGsT+NSKjB6n7Y
QIp4SUCfV7jBMuzLQHJwcj/gIrLB3kjNQPzH1b7DlLTBgh60QJLnFUFJn67BncK4QHAKOcCIf5fB
LzafQKXv9r+JfpvBMNvUQKfxSkDEa5vBjjSOQMrYbUCO+pfBkyipQCGiesAloY/BZRFiQEI87r8Z
+JfBxORTQP3RKMBBmo3B6CW7QJAEN0D6uaXB2HHDQPApgkDE5YjBqMe2QLWza0CIsZPBSe6OQIbG
T0BHhaLBM29TQA2RhEDp7JLBNjH7QAoVQUB/BprBuvvaQBI95T/O87nBTxl3QJyLfMDLsI7Bfpfc
QDrgVL9GCb7BBuWNQIPxIUG6v6bBfAIEQcBeIkE8yb7B5UsFQcYT9kDGV8DB7L/vQCD6vUD/w8bB
qgDyQGwjX0B1McjBRC7RQPi/M0HfirPB4qu8QMtps0D56KbBy0ieQM/b60DkKavBEAuhQE6zPz9t
M5nBpPK/QKBjGsDPO6/BkT/aQJCJPMAE1JnB7VSzQKY1ncBdM5LBPh23QECRbsDEuofB9/BNQLA/
Ur95yZbBw1I6QHx0EsDSWZ7BiL5wQPt2CMD7sobBeUgPQD5KL8CnBozBQa7MQFjpo0AAqIjBquyo
QMRGekAwVIPBSpPeQNGRXUDhPYbBhJFoQOUDTEAaLKfBySNYQILTjkBjbYvBhrQcQC2rg0C29JbB
gM4AQSn/DkE35rjB41z/QByA8UDxl7nBJhDrQCt2mEBODb7BV8boQPgNWEAvuL7BF9/jQAcqGkE1
u7LBr9vMQLd2lUA3S6zByqTBQLOu8UCd863ByAGlQPgUmT2qoZ7BWz6yQCWA4r+hparBuxTdQG8x
rUAY17TB6mLfQIxY20CsHrTBcuGiQBUSpb+W7aDB51rKQLRAUUCt16zBP4C2QBbNej8ZCabBanPY
QG5+KEAiKbbB5MXFQEAv9z78xa/BBbXDQNiRYr8BEbLBHOXDQEAWD0HwQa3BSvqmQOKnT8Csz5TB
6EiQQLKXDsDdA5nB6xjTQBryLUB1Q5nBY+iNQIWqXEBdLJbBc0KUQMzGhsBR5ozBq3REQB9OAsCF
sJXBNvswQOl2McCWRYvBvky5QNUTHUDco6PBTvPCQDMlbECD6YbBJP21QCBoVECXt5HBIw2OQChY
PUDeqKDBtbNUQF5ofkBoUZHBcM/4QNoFHkBYsZfBg3nXQHyxoj+DnbfBc1hNQILzg8CiJYzB9XXS
QC5Prb9mabvBpEmfQAbgHEH6n6XBgEUNQZCcF0EkJ73B6GELQaOH4ECzb77B3NH3QA5wqkAsyMTB
MbzzQJYQOEA48MXBnwvmQMd/K0FXQbLBEhbCQFLypUA3HKXBErCoQLxt4EBWranBnPuYQIxw4T4Y
AJfBetywQKYQNcAHkKzBq1nIQHDhWMD5/pbBHvKbQGmKp8BcUo/BKiyiQMpwgcC69oTBYbM1QDbK
eL8OqZTBbWYbQE4NG8BOG5zB7oZPQDLEEsA0XYTBDcXXP2ggMsC904nB3ObOQNv2lkDCvobBWMSn
QGocZ0AhcIHBijzcQBlnQUBuFITB/0JnQPBmPUAdaqXB4SRaQOqsiUCT2InBl4MeQHpOgEBEdZXB
SLPQQBLLD0GRWr/BdsXPQJz58kAvpb/BgLvhQCqtl0DToL/BGMDgQBxBVkAt5r/BFpfWQEBhGkFT
pLXBWOnEQNZIlkDvtq3BIKHaQFW38EAbhKzB4IqiQDJwAz5HmZ7BnbSwQECV4L/yJ6rB7MnTQHlE
rUB5ibbBSr3UQJaK20BtOrbB85ShQBGSn79CgaDBULzDQJ6vUkC73K3B5JyyQOcMgj/CVKbBRsbR
QBwvKEA6ELfBMKnBQIhg+z73/q/BpsPAQKgtY7/f5bHB7I7bQLypDkGSOazBMnOoQOkcScDo35PB
uHqQQAOoCsDhP5jBDWrOQNR0NUDfL5rBR8eIQPHfYEAq+ZbB0kCXQDLqgsCznIvBYwFFQHUwAMDf
wpTBMHk0QDTxLMDcGYrBLSW0QNMkIEAiXKTBqqW+QNrMd0AAC4jBpEexQNVEXEDSrJLBfKWIQKCj
PkD9UKHBNyhKQEDqgEBrGZLBcHX0QJw9KEA8upjBZgXSQKhSoT9rIrjBYFNTQERYgcALq4rBkEvP
QEIPsb8FLbvBDvLiQBy9G0EcQKDBwODMQF3oGEF0sMbBZiPLQBjr4kCeRsfBgnPtQKMQqUC9kcbB
SKzrQMLqNECVBsfBVErXQCjFK0HAibXB6ii6QPRwp0DdoKbBfoPeQN523kA5KqXBlreWQAsVBD+X
BJfBBjiwQAaoNMAIxavBD8nJQHX0UMAWLZbBIMKfQKTBo8DhyI3BeJClQGMaeMBzy4PBeFU0QPg2
cb85/pPB4M4bQB7xG8D495rBfA5TQGdrC8B8Z4PBikvfP1JBL8CWfYjBBprJQOcinUDON4jBL/Oj
QL+xckAXbILBasXYQItoT0DIJYXBDs1bQDbIO0A+8aXBvQdQQHiCjECgvIrBhlcTQDKggED4HZbB
dNn3QCCGEEGur7nBBkv5QCyP9EDEhLrBZ2vsQNBemkApQL/BHtLtQB7fW0BZDsDBHWbYQAlEGkHA
cbPB4q/OQMv/k0COf63Bm9m7QFgL70Dz3a7BCESzQHhOor3WSaDBikXFQJec7r8ofazB8NPcQNNp
rUAG+bXBMk3bQCaP20DsG7XBy8C0QCJruL9suKLBkOjPQFJHTkCjL67BUD/CQMIZYT/EmqfBXJXf
QHDsKEC+kbfBYLjSQNKn4D7FZLHB6UbUQIoQbb+M0rPBSmi6QATEDUHqCK7Behu+QBxoWcDJzJbB
BsSkQELsG8AD5prBgjfaQHmcKkA+qprBSFmTQExhTUC0fZfBDBOuQKx8jcB5+47BucJsQHqmF8Dr
i5fB4WddQP1JScCVM43BVSPBQB6MFkAWEKXBUqvHQBcZZEAyN4jBCaq7QENcS0D7DZPBbLiUQKw6
L0B9BqLBcxhdQFifaEDpk5LBQzwAQerYIEAVIJnBLjfiQHghpD/IKLnBXGqAQL59jsClNo7BZynk
QN2Zq79VN73BqLCTQEjMGUGaT6bBHZ4HQW0/GkHU473BrP4IQVzU5UDuar/Bg5j3QJesrUAZ7cXB
hAX6QOaGPkBxU8fBRrHXQDaeK0FZ3LLBHaLCQNIso0AcQ6bBsnCkQMqR20B3pKrBMV2mQPXedz6X
npjBqbHGQPDrOsB8gq7BlLvfQFvYXMAdAZnBkG+4QNNgrcDmgZHB2Iy7QGJoh8BeCIfBnGtYQJo3
qr8GaZbBJtBFQPcUM8CU/53BhWR5QPzYKMC8P4bBOp8YQBbTT8CWwIvBGtrQQNzOk0C78ofBPtOs
QIoHWkDMvoLB+KjiQA9sPUBEdIXBmbZ0QF5fK0CDxqbBz+FgQGg0fUD/EovBD9smQLy7ZkCutZbB
9HzTQEUGEUEjP7zBSfHUQBSP9UCiEr3BfrfrQKZtm0B2Eb7BHh3tQKz8XUCQ377B2LLXQB3MGkE/
RbLBsgDOQOYPlUBUUKzBONPeQMcq8EAd86nBipWyQIAHPL3EGZ/BmJLEQD9b6r9CTavB8CLcQFN5
rkAZyrTBVJ3aQLae3EAW7bPByhC0QPkmtL9GiKHBUjjPQHJnUEBTAK3BaY/BQHieaT8Ia6bBMuLe
QDgLK0CmYrbBhwXSQPCl8T5INbDBjZLTQHqSZL/7orLB5V7dQO1TDkG0H6nBhG29QHVFV8CknJXB
iBWkQPDIGcCEtZnBQozZQLu9LEAPe5nBPK+SQI+FT0BaTZbBlGatQLpqjMD5yo3BqWdrQBaBFcCi
WpbBghFcQH4jR8AbAozBC3XAQIetGEBz4KPBrQXHQIQ8ZkDEB4fBMAG7QE5/TUBR3pHBMwuUQA1e
MUAe1qDBkMdbQGrFakD3YpHBmM3/QM74IkCK8ZfBuoLhQJFeqD+g+bfBKXx/QOJqjcBfBY3BOHLj
QIpdp78ACLzBS6/iQEJnGkGR0pzBXB7PQPi5GkEhX8PBJZnRQHzH5kB158TBJ+P2QPK6rkChvsTB
Qk75QGijQEDTJMbBLozWQM8mLEHxv7HBNfXBQHM9pEC2E6XBt0HjQI+93EAhz6LB/bClQPUKjT5U
bpfBhP3FQHjLOMCGUq3B/AzfQC23WsCK0ZfByMG3QC1PrMCBUZDBqOK6QGFWhsAe2IXBeBJXQN3r
pb+mN5XBB3FEQFLvMMDtzZzBkhJ4QH2yJsCLDoXBhkkXQCKrTcCDjorBKjXQQGbglECLw4bB/C6s
QHAsXEDkjoHBswPiQKeOP0A/RYTBfVlzQGaDLUCxlaXBb5VfQP5af0Aa4onB4YclQIriaEBEhJXB
0KbwQHcLEEH3kLrBxnbvQPqH80CWJ7vBe/3/QMX5l0DTwbrBFLz+QAr1VkDhU7vBbNLuQHQwGkFS
o7DB7EjVQNGYlUAZrarBcqDqQIaO70CV46fBUL2lQDDesj0Ycp7Blz+8QKXs4r8eZanBFj7rQDgM
rUD+brLB3XTsQCtE20BP0bHB5NSlQDMWpL//nKDBSLzTQNlmUUBWI6vBQwy8QOJ4fD9eC6XBSKvo
QMvzJ0D/j7PBNmXSQNzb9D622K3BqYvSQKb6ZL/mAbDBhdDrQIwODkELTafBj6mhQHaWTcBxP5TB
CxSOQPSuDcBvj5nBvSPOQLaqMEDuapfByJiHQETEXUCvp5fB38yJQBqJhcCpMo3B9JY8QCFSAsBf
bpjBh6saQDqEMMCeiY7BDoG8QKXWHUCRw6LBFm6wQNuPcEBDQYbB0sOrQD4uV0Apa5HBJp+PQDs3
PUBQ46HB3sZBQEgPf0AolpTB3CTyQJkCIkAHHJTBoEXpQE0/oT+h2bTBitA4QDtRg8DOj47BvRXo
QFfer7+Lc7jBi67pQBuWGkGXDZvBYQrzQIl7GUFR1sHBI+fwQEor5EDE88LBuKIIQXa7qUAQ3cDB
PH8HQQhvNkD12cHB7dLvQGSQK0EkTbDBKTvFQN5YpkA2LqTBFknoQO6n3ECMmaDBJC6UQD5R7D4Q
jJfBcq68QFKHNcAhMqvBWh/EQKYdVsAh2JTBkIGTQIJTpsDWFY/BPpWRQNUQf8BUyITBiM0rQB9E
eb9z55fBnPIdQEloHMCHoJ/BdjEuQGySEMD/HIfB0kapP4z+McCFs47Bl667QJ5YmUD7roXBc7eR
QEpma0BnHILBy3HHQK3iRkApOILBHUtyQOv0O0AMxqfBCug7QNZ6ikCiKY3BL5MSQCoAgEBM55nB
y/oHQWxAC0ET+LfBoOUHQQ7e6UBU8rfBAg0BQYgAj0CtmrvBY/AAQQfcREDnjrvB2o3tQHx7FkFi
nLPBsOnXQFMyj0BpbavBItXKQPco6kADNa/Bhy2sQFA7Xr1nGJ3BusbDQHw5/L8BQafBkBjtQLZl
pUCGirPBIT3tQHSy00C9kLPBsT2tQPjNt7/0p57Ba2jXQIh8REBNRKvBZp7BQCVDUD9HIKTBppbs
QHJaGECQb7PB2RjYQA8Hhj6YvKzBkTjZQHjHj78SSq7Buv/KQK9lC0HKOq/BCt+qQL/yUcA+c5HB
omSWQPhpFcB6J5fBfb/SQBhGLEAPV5fBZbCLQArtVUACvpfBsO+TQDSnhsBA8InBHwtNQB7IC8Ct
AZbBtsUsQHxNNsBwxovBBgbBQD+lE0CpgKLB78W0QHhFckA2lYbB7hiwQE3IU0Bxi5HBSc+TQFNH
MUBnwKHBLV9JQPy5dkD705TBkAH3QHrFIEChApTB4i7uQKhHgT8AH7TB/+5MQDjKhcC2PIvBReHu
QH+G0r+cjbbBrJ6gQLBEGUGs06nBEXIVQePfE0HTXrvBHmsVQVDM2EBfYLvBDWUJQZ7Gn0A++8HB
syoJQcRCIkCe4cHBdiTuQNzfJ0F8rLPBhqbHQGT7oEC2I6XBadyvQP7k2EAwyavBuIiaQEpktT4W
VpbBy/XEQDfVQsB/lajBn2fNQKUhWcDYDpLBxFueQPCTp8AlZIvBQ8+bQJc9fcCJooHBubA6QPQb
kL917pXBxJ8uQGm2KcDh+pzBevM/QDKuEsBCmoTBIpPNPyR4OcAv24vBZEK/QCmHmkC3fYbBwT6W
QPSHbUCuWILBM2LMQNKES0BeUILBimJ6QCNhLEC2kqfBqmZDQBTeh0B7j43Brd0ZQDw5dEA0GJrB

>  <OMEGA_E>  (1) 
/qB0wYT0e8FuRnPBvE9ywTrpb8HjnnHBKHtywQ==

>  <OMEGA_NBR>  (1) 
     23539

$$$$
284490
     RDKit          3D

 57 62  0  0  1  0  0  0  0  0999 V2000
    5.2860   -4.5057  -19.2440 C   0  0  0  0  0  0  0  0  0  0  0  0
    5.7254   -3.4255  -20.0259 C   0  0  0  0  0  0  0  0  0  0  0  0
    6.1341   -1.2628  -21.9972 C   0  0  0  0  0  0  0  0  0  0  0  0
    6.5662   -0.1863  -22.7754 C   0  0  0  0  0  0  0  0  0  0  0  0
    4.2312   -4.3297  -18.3298 C   0  0  0  0  0  0  0  0  0  0  0  0
    5.4317    0.2822  -20.2515 C   0  0  0  0  0  0  0  0  0  0  0  0
    4.0401   -1.9925  -18.9883 C   0  0  0  0  0  0  0  0  0  0  0  0
    6.2577    5.1255  -21.0623 C   0  0  0  0  0  0  0  0  0  0  0  0
    7.3026    5.7347  -23.1698 C   0  0  0  0  0  0  0  0  0  0  0  0
    5.5589   -1.0342  -20.7302 C   0  0  0  0  0  0  0  0  0  0  0  0
    5.1010   -2.1625  -19.9079 C   0  0  0  0  0  0  0  0  0  0  0  0
    6.7445    6.1149  -21.9304 C   0  0  0  0  0  0  0  0  0  0  0  0
    5.8704    1.3667  -21.0279 C   0  0  0  0  0  0  0  0  0  0  0  0
    6.2987    3.7702  -21.4250 C   0  0  0  0  0  0  0  0  0  0  0  0
    6.4364    1.1286  -22.3065 C   0  0  0  0  0  0  0  0  0  0  0  0
    6.8302    3.3954  -22.6848 C   0  0  0  0  0  0  0  0  0  0  0  0
    7.3422    4.3846  -23.5400 C   0  0  0  0  0  0  0  0  0  0  0  0
    3.6151   -3.0710  -18.1971 C   0  0  0  0  0  0  0  0  0  0  0  0
    7.4946    8.4815  -22.0443 C   0  0  0  0  0  0  0  0  0  0  0  0
    6.6142    7.5354  -21.5490 C   0  0  0  0  0  0  0  0  0  0  0  0
    6.4282    2.8561  -19.1110 C   0  0  0  0  0  0  0  0  0  0  0  0
    4.2278    3.4416  -18.9011 C   0  0  0  0  0  0  0  0  0  0  0  0
    7.3872    9.9465  -21.6564 C   0  0  0  0  0  0  0  0  0  0  0  0
    5.4874    7.9505  -20.6003 C   0  0  0  0  0  0  0  0  0  0  0  0
    5.2316    9.4632  -20.6667 C   0  0  0  0  0  0  0  0  0  0  0  0
    5.7421    2.7572  -20.4637 C   0  0  2  0  0  0  0  0  0  0  0  0
    5.6245    3.4160  -16.7854 C   0  0  0  0  0  0  0  0  0  0  0  0
    5.4134    3.1443  -18.2124 N   0  0  0  0  0  0  0  0  0  0  0  0
    4.3362    3.0681  -20.1568 N   0  0  0  0  0  0  0  0  0  0  0  0
    3.0935    4.0148  -18.3469 N   0  0  0  0  0  0  0  0  0  0  0  0
    7.6164    2.6776  -18.8669 O   0  0  0  0  0  0  0  0  0  0  0  0
    6.8862    2.1042  -23.1654 O   0  0  0  0  0  0  0  0  0  0  0  0
    6.4876   10.1563  -20.5404 O   0  0  0  0  0  0  0  0  0  0  0  0
    7.8622    4.0376  -24.7402 F   0  0  0  0  0  0  0  0  0  0  0  0
    2.3281   -2.8415  -17.0442 Cl  0  0  0  0  0  0  0  0  0  0  0  0
    5.7577   -5.4720  -19.3444 H   0  0  0  0  0  0  0  0  0  0  0  0
    6.5425   -3.5597  -20.7193 H   0  0  0  0  0  0  0  0  0  0  0  0
    6.2408   -2.2720  -22.3666 H   0  0  0  0  0  0  0  0  0  0  0  0
    7.0037   -0.3682  -23.7459 H   0  0  0  0  0  0  0  0  0  0  0  0
    3.8938   -5.1613  -17.7290 H   0  0  0  0  0  0  0  0  0  0  0  0
    4.9938    0.4599  -19.2804 H   0  0  0  0  0  0  0  0  0  0  0  0
    3.5562   -1.0315  -18.8947 H   0  0  0  0  0  0  0  0  0  0  0  0
    5.8471    5.4099  -20.1048 H   0  0  0  0  0  0  0  0  0  0  0  0
    7.7004    6.4871  -23.8346 H   0  0  0  0  0  0  0  0  0  0  0  0
    8.2760    8.1712  -22.7223 H   0  0  0  0  0  0  0  0  0  0  0  0
    8.3865   10.3129  -21.3785 H   0  0  0  0  0  0  0  0  0  0  0  0
    7.0157   10.5151  -22.5217 H   0  0  0  0  0  0  0  0  0  0  0  0
    4.5669    7.4186  -20.8826 H   0  0  0  0  0  0  0  0  0  0  0  0
    5.7668    7.6791  -19.5715 H   0  0  0  0  0  0  0  0  0  0  0  0
    4.7656    9.7165  -21.6304 H   0  0  0  0  0  0  0  0  0  0  0  0
    4.5620    9.7605  -19.8462 H   0  0  0  0  0  0  0  0  0  0  0  0
    4.6563    3.6140  -16.3022 H   0  0  0  0  0  0  0  0  0  0  0  0
    6.0985    2.5433  -16.3123 H   0  0  0  0  0  0  0  0  0  0  0  0
    6.2771    4.2942  -16.6721 H   0  0  0  0  0  0  0  0  0  0  0  0
    3.5781    3.0047  -20.8058 H   0  0  0  0  0  0  0  0  0  0  0  0
    2.2838    4.1692  -18.9131 H   0  0  0  0  0  0  0  0  0  0  0  0
    3.0851    4.2739  -17.3811 H   0  0  0  0  0  0  0  0  0  0  0  0
  1  2  2  0
  1  5  1  0
  2 11  1  0
  3  4  2  0
  3 10  1  0
  4 15  1  0
  5 18  2  0
  6 10  2  0
  6 13  1  0
  7 11  2  0
  7 18  1  0
  8 12  2  0
  8 14  1  0
  9 12  1  0
  9 17  2  0
 10 11  1  0
 12 20  1  0
 13 15  2  0
 13 26  1  0
 14 16  2  0
 14 26  1  0
 15 32  1  0
 16 17  1  0
 16 32  1  0
 17 34  1  0
 18 35  1  0
 19 20  2  0
 19 23  1  0
 20 24  1  0
 26 21  1  1
 21 28  1  0
 21 31  2  0
 22 28  1  0
 22 29  2  0
 22 30  1  0
 23 33  1  0
 24 25  1  0
 25 33  1  0
 26 29  1  0
 27 28  1  0
  1 36  1  0
  2 37  1  0
  3 38  1  0
  4 39  1  0
  5 40  1  0
  6 41  1  0
  7 42  1  0
  8 43  1  0
  9 44  1  0
 19 45  1  0
 23 46  1  0
 23 47  1  0
 24 48  1  0
 24 49  1  0
 25 50  1  0
 25 51  1  0
 27 52  1  0
 27 53  1  0
 27 54  1  0
 29 55  1  0
 30 56  1  0
 30 57  1  0
M  CHG  1  29   1
M  END
>  <OMEGA_C>  (2) 
pyapQOMukMDK85nB1ja3QLQ7W8AeNaDB20rEQJmiob9b+q/BfB7SQEi+Pr4INLbB/2WHQNyMisBv
o5LBodCtQMR6kD4SA6LBLEiBQIIL/7/z55fB/z7IQLIDpECkf6jB8K7pQFqCt0CpW7nBYeKxQBhf
hL9y16XBgzujQF5mCsBXQ5/BtNLXQHytw0Bcca/BRdq7QGjxrj8wOajB047JQDxLcUBoZqvB1PbN
QMh2kD+jc7LBCZHaQKBOWUCOerXB7fLqQHZOjEDnUbzBHV5nQEmLRMCqk5HBDtTvQCK0B0HRWrDB
hqfTQPIh8UBEZKzBi7PNQOTKNkBU45jBzkmHQD5DXEBlNZfB0WPsQAElH0E2QK3B2pivQJZq/kBU
zaTBJGmnQBFpF0F3VaXBA7+3QMx1MECWtaPBp/uzQFCfWkB/SIbB1DqtQBo8SUDxspHBUsKKQGpb
REAwQaHBDvxFQEF5gECKxpLBd7nzQKBdK0Bw75bB9FvcQL6qBkC1UrnBJprPQCWAIkHWUqTBZZf7
QPczgUDs68XB7P4UQOzaNcCCWojBeD+4QNoar8BpwZrBZVzRQHnSY8AkwaXBvbTHQMloEcDZ7rLB
sh7gQNmIvL6b973BazN5QKYppcAU1Y3BQs2fQCV+6z5CPprBX5ljQL8IhL9cKJfBFhu7QB4erUCh
1qDBb2n2QFiWz0BCrb7BeGoEQSq9AkE7x7XBDS8GQZgBJUFCB6vBiYDgQMY9KEFZLLTBJySSQBFl
7UCqD6fBoom4QHi79UB7kpzB+X+YQOh2G0EUC63Bp/uRQPoqHEEaxZ7BkwCVQBFMZ0DwaoLBDyfD
QCPGIkCnf4LBK97IQLxpiUBrYIXBzv5kQMVMQEBHcqbBaykSQMdphUD7TZfBoHJFQKDDiECKDIvB

>  <OMEGA_E>  (2) 
oMk1Pw==

>  <OMEGA_NBR>  (2) 
     15438

$$$$
284493
     RDKit          3D

 58 63  0  0  1  0  0  0  0  0999 V2000
    5.4119   -4.4777  -19.1861 C   0  0  0  0  0  0  0  0  0  0  0  0
    5.8560   -3.3888  -19.9515 C   0  0  0  0  0  0  0  0  0  0  0  0
    6.6644    7.8808  -20.1874 C   0  0  0  0  0  0  0  0  0  0  0  0
    6.8958    8.5101  -22.5383 C   0  0  0  0  0  0  0  0  0  0  0  0
    6.2003   -1.2695  -21.9708 C   0  0  0  0  0  0  0  0  0  0  0  0
    6.6380    9.2378  -19.8295 C   0  0  0  0  0  0  0  0  0  0  0  0
    6.8874    9.8642  -22.1742 C   0  0  0  0  0  0  0  0  0  0  0  0
    6.6133   -0.1944  -22.7531 C   0  0  0  0  0  0  0  0  0  0  0  0
    4.2676   -4.3462  -18.3760 C   0  0  0  0  0  0  0  0  0  0  0  0
    5.4213    0.2782  -20.2532 C   0  0  0  0  0  0  0  0  0  0  0  0
    6.2849    5.1083  -21.0759 C   0  0  0  0  0  0  0  0  0  0  0  0
    7.3547    5.6836  -23.1812 C   0  0  0  0  0  0  0  0  0  0  0  0
    4.0140   -2.0323  -19.0872 C   0  0  0  0  0  0  0  0  0  0  0  0
    6.7958    7.5031  -21.5486 C   0  0  0  0  0  0  0  0  0  0  0  0
    5.5984   -1.0364  -20.7199 C   0  0  0  0  0  0  0  0  0  0  0  0
    5.1547   -2.1632  -19.9068 C   0  0  0  0  0  0  0  0  0  0  0  0
    6.8169    6.0811  -21.9382 C   0  0  0  0  0  0  0  0  0  0  0  0
    5.8521    1.3632  -21.0289 C   0  0  0  0  0  0  0  0  0  0  0  0
    6.2996    3.7549  -21.4324 C   0  0  0  0  0  0  0  0  0  0  0  0
    6.7729   10.2318  -20.8193 C   0  0  0  0  0  0  0  0  0  0  0  0
    6.4425    1.1180  -22.2973 C   0  0  0  0  0  0  0  0  0  0  0  0
    6.8191    3.3700  -22.6946 C   0  0  0  0  0  0  0  0  0  0  0  0
    7.3332    4.3424  -23.5609 C   0  0  0  0  0  0  0  0  0  0  0  0
    3.5714   -3.1222  -18.3271 C   0  0  0  0  0  0  0  0  0  0  0  0
    6.4127    2.8521  -19.1085 C   0  0  0  0  0  0  0  0  0  0  0  0
    4.2241    3.4820  -18.9024 C   0  0  0  0  0  0  0  0  0  0  0  0
    5.7269    2.7568  -20.4644 C   0  0  2  0  0  0  0  0  0  0  0  0
    6.7203   11.6937  -20.4371 C   0  0  0  0  0  0  0  0  0  0  0  0
    5.6042    3.3968  -16.7773 C   0  0  0  0  0  0  0  0  0  0  0  0
    5.4023    3.1642  -18.2131 N   0  0  0  0  0  0  0  0  0  0  0  0
    4.3230    3.0913  -20.1557 N   0  0  0  0  0  0  0  0  0  0  0  0
    3.1059    4.0799  -18.3398 N   0  0  0  0  0  0  0  0  0  0  0  0
    7.5917    2.6314  -18.8551 O   0  0  0  0  0  0  0  0  0  0  0  0
    6.8803    2.0824  -23.1640 O   0  0  0  0  0  0  0  0  0  0  0  0
    7.8281    3.9846  -24.7684 F   0  0  0  0  0  0  0  0  0  0  0  0
    2.1517   -2.9491  -17.3316 Cl  0  0  0  0  0  0  0  0  0  0  0  0
    5.9469   -5.4154  -19.2182 H   0  0  0  0  0  0  0  0  0  0  0  0
    6.7330   -3.4875  -20.5740 H   0  0  0  0  0  0  0  0  0  0  0  0
    6.5845    7.1214  -19.4236 H   0  0  0  0  0  0  0  0  0  0  0  0
    6.9789    8.2341  -23.5791 H   0  0  0  0  0  0  0  0  0  0  0  0
    6.3416   -2.2806  -22.3231 H   0  0  0  0  0  0  0  0  0  0  0  0
    6.5140    9.5204  -18.7946 H   0  0  0  0  0  0  0  0  0  0  0  0
    6.9689   10.6270  -22.9344 H   0  0  0  0  0  0  0  0  0  0  0  0
    7.0675   -0.3738  -23.7163 H   0  0  0  0  0  0  0  0  0  0  0  0
    3.9227   -5.1858  -17.7907 H   0  0  0  0  0  0  0  0  0  0  0  0
    4.9528    0.4521  -19.2958 H   0  0  0  0  0  0  0  0  0  0  0  0
    5.8605    5.4074  -20.1288 H   0  0  0  0  0  0  0  0  0  0  0  0
    7.7849    6.4221  -23.8413 H   0  0  0  0  0  0  0  0  0  0  0  0
    3.4828   -1.0929  -19.0459 H   0  0  0  0  0  0  0  0  0  0  0  0
    7.7384   12.0566  -20.2326 H   0  0  0  0  0  0  0  0  0  0  0  0
    6.2838   12.2733  -21.2638 H   0  0  0  0  0  0  0  0  0  0  0  0
    6.1002   11.8150  -19.5367 H   0  0  0  0  0  0  0  0  0  0  0  0
    4.6385    3.6255  -16.3030 H   0  0  0  0  0  0  0  0  0  0  0  0
    6.0343    2.4951  -16.3169 H   0  0  0  0  0  0  0  0  0  0  0  0
    6.2916    4.2439  -16.6363 H   0  0  0  0  0  0  0  0  0  0  0  0
    3.5616    3.0303  -20.8011 H   0  0  0  0  0  0  0  0  0  0  0  0
    2.2923    4.2434  -18.8978 H   0  0  0  0  0  0  0  0  0  0  0  0
    3.1134    4.3475  -17.3763 H   0  0  0  0  0  0  0  0  0  0  0  0
  1  2  2  0
  1  9  1  0
  2 16  1  0
  3  6  2  0
  3 14  1  0
  4  7  1  0
  4 14  2  0
  5  8  2  0
  5 15  1  0
  6 20  1  0
  7 20  2  0
  8 21  1  0
  9 24  2  0
 10 15  2  0
 10 18  1  0
 11 17  2  0
 11 19  1  0
 12 17  1  0
 12 23  2  0
 13 16  2  0
 13 24  1  0
 14 17  1  0
 15 16  1  0
 18 21  2  0
 18 27  1  0
 19 22  2  0
 19 27  1  0
 20 28  1  0
 21 34  1  0
 22 23  1  0
 22 34  1  0
 23 35  1  0
 24 36  1  0
 27 25  1  1
 25 30  1  0
 25 33  2  0
 26 30  1  0
 26 31  2  0
 26 32  1  0
 27 31  1  0
 29 30  1  0
  1 37  1  0
  2 38  1  0
  3 39  1  0
  4 40  1  0
  5 41  1  0
  6 42  1  0
  7 43  1  0
  8 44  1  0
  9 45  1  0
 10 46  1  0
 11 47  1  0
 12 48  1  0
 13 49  1  0
 28 50  1  0
 28 51  1  0
 28 52  1  0
 29 53  1  0
 29 54  1  0
 29 55  1  0
 31 56  1  0
 32 57  1  0
 32 58  1  0
M  CHG  1  31   1
M  END
>  <OMEGA_C>  (3) 
dC6tQLpJj8AZfZnBsmS7QLTiWMCknJ/BJEPVQOEv/EC2f6HBAqrcQGYpCEFyTrTBOmnGQP1/or8d
xK/BOWrUQBzOE0Heop7BYWXcQK7THUHFZLHB5p/TQNgGR75XBrbBYJCIQFkUi8AhApPBqXutQLBt
jj5+BqLBzR3JQPB2o0Bdm6jBcFnrQNjftUAAc7nB6HKAQCIRAsChspjBjHfZQA8Z8ECbY6zBLiaz
QDiphL9FwqXBDPOkQGNyCsAuQZ/BDSTaQDWYwkB8ga/BtUS7QBB8rj8/O6jBkpbJQDZQcECndavB
s7vYQKS1I0HxjabB4ijOQBQajz/XYLLBcjbaQKqtV0CKjrXBk6nqQJ/0ikDGfLzBVpFkQJLRR8Dm
nZLBtjTNQHiINkAt3pjBtSuHQNzZXkAMOJfBkEK3QMZuMEAit6PB2AzXQGYZO0Edf6PB3lWzQLxk
WUDhN4bBxd+sQAaDSkBitJHBzFWKQCDXRUDQPqHBoMdGQL+OgkAAuJLBNe/yQJBpKEAm15bBryvc
QDpFBUDpT7nBaX/6QJIDf0CmJcbBJLYJQHi+PMATp4rBO02+QLxKrcDWvpnB8XTXQOsyX8Cgl6TB
ObTSQMji40CRY5vBzlLfQAy/A0ETorzBq+7KQOP1EcCclbLBCXPQQL5TGEE/W5bBCAHfQCAIKkGj
ebfBXSniQFJnv74Lu73B5g17QPjxpcBnU47BbH2eQFx05z61XZrBU4m7QFQJrUDhB6HBPh75QPaB
zUAHu77BRuZeQIvji78UXpjB46D3QOnnQEFM3KHBiRTJQEZfREFPHKrBkDTDQHEKPUEiS5zBQG6U
QMQHaEB6bILBERnBQG2vH0DxiILBm1TJQEHOh0AVF4XBlfFjQMzvQUC4aKbBqrUSQLzJh0DALpfB
sUJHQKMei0C7AovB

>  <OMEGA_E>  (3) 
oP4wPw==

>  <OMEGA_NBR>  (3) 
     16705

$$$$
284492
     RDKit          3D

 58 63  0  0  1  0  0  0  0  0999 V2000
    7.9170    9.5704  -22.2615 C   0  0  0  0  0  0  0  0  0  0  0  0
    7.9945    8.1855  -22.4091 C   0  0  0  0  0  0  0  0  0  0  0  0
    4.8691   -1.8144  -17.8730 C   0  0  0  0  0  0  0  0  0  0  0  0
    4.5262   -3.2239  -19.8052 C   0  0  0  0  0  0  0  0  0  0  0  0
    7.7147    5.3881  -23.1528 C   0  0  0  0  0  0  0  0  0  0  0  0
    4.2883   -2.7881  -17.0604 C   0  0  0  0  0  0  0  0  0  0  0  0
    3.9455   -4.1976  -18.9927 C   0  0  0  0  0  0  0  0  0  0  0  0
    7.7906    4.0048  -23.2969 C   0  0  0  0  0  0  0  0  0  0  0  0
    6.8286   10.1410  -21.6018 C   0  0  0  0  0  0  0  0  0  0  0  0
    6.4937    5.0974  -21.0909 C   0  0  0  0  0  0  0  0  0  0  0  0
    5.4828    0.3271  -19.7446 C   0  0  0  0  0  0  0  0  0  0  0  0
    6.2728   -1.3941  -21.2418 C   0  0  0  0  0  0  0  0  0  0  0  0
    5.8957    7.9420  -21.2373 C   0  0  0  0  0  0  0  0  0  0  0  0
    4.9881   -2.0325  -19.2455 C   0  0  0  0  0  0  0  0  0  0  0  0
    7.0654    5.9348  -22.0500 C   0  0  0  0  0  0  0  0  0  0  0  0
    6.9841    7.3714  -21.8970 C   0  0  0  0  0  0  0  0  0  0  0  0
    5.5888   -1.0215  -20.0885 C   0  0  0  0  0  0  0  0  0  0  0  0
    6.5622    3.7002  -21.2216 C   0  0  0  0  0  0  0  0  0  0  0  0
    6.0586    1.3234  -20.5509 C   0  0  0  0  0  0  0  0  0  0  0  0
    3.8264   -3.9795  -17.6201 C   0  0  0  0  0  0  0  0  0  0  0  0
    7.2157    3.1654  -22.3367 C   0  0  0  0  0  0  0  0  0  0  0  0
    6.7418    0.9339  -21.7075 C   0  0  0  0  0  0  0  0  0  0  0  0
    6.8499   -0.4180  -22.0509 C   0  0  0  0  0  0  0  0  0  0  0  0
    5.8182    9.3269  -21.0897 C   0  0  0  0  0  0  0  0  0  0  0  0
    6.5552    3.0538  -18.7822 C   0  0  0  0  0  0  0  0  0  0  0  0
    4.3000    3.5629  -18.6735 C   0  0  0  0  0  0  0  0  0  0  0  0
    5.9609    2.7830  -20.1876 C   0  0  1  0  0  0  0  0  0  0  0  0
    3.2068   -5.0205  -16.7505 C   0  0  0  0  0  0  0  0  0  0  0  0
    5.6538    3.8589  -16.5462 C   0  0  0  0  0  0  0  0  0  0  0  0
    5.4725    3.5211  -17.9529 N   0  0  0  0  0  0  0  0  0  0  0  0
    4.5288    3.1423  -19.9882 N   0  0  0  0  0  0  0  0  0  0  0  0
    3.0711    3.9556  -18.2079 N   0  0  0  0  0  0  0  0  0  0  0  0
    7.7151    2.9039  -18.4333 O   0  0  0  0  0  0  0  0  0  0  0  0
    7.3427    1.8175  -22.5714 O   0  0  0  0  0  0  0  0  0  0  0  0
    7.5061   -0.7833  -23.1613 F   0  0  0  0  0  0  0  0  0  0  0  0
    4.4775   10.0316  -20.2726 Cl  0  0  0  0  0  0  0  0  0  0  0  0
    8.7046   10.2037  -22.6591 H   0  0  0  0  0  0  0  0  0  0  0  0
    8.8489    7.7552  -22.9262 H   0  0  0  0  0  0  0  0  0  0  0  0
    5.2242   -0.8911  -17.4217 H   0  0  0  0  0  0  0  0  0  0  0  0
    4.6110   -3.4080  -20.8737 H   0  0  0  0  0  0  0  0  0  0  0  0
    8.1663    6.0255  -23.9091 H   0  0  0  0  0  0  0  0  0  0  0  0
    4.1994   -2.6108  -15.9919 H   0  0  0  0  0  0  0  0  0  0  0  0
    3.5888   -5.1227  -19.4377 H   0  0  0  0  0  0  0  0  0  0  0  0
    8.2987    3.5840  -24.1608 H   0  0  0  0  0  0  0  0  0  0  0  0
    6.7822   11.2217  -21.4930 H   0  0  0  0  0  0  0  0  0  0  0  0
    5.9908    5.5337  -20.2296 H   0  0  0  0  0  0  0  0  0  0  0  0
    4.9484    0.6088  -18.8391 H   0  0  0  0  0  0  0  0  0  0  0  0
    6.3652   -2.4397  -21.5249 H   0  0  0  0  0  0  0  0  0  0  0  0
    5.1069    7.3078  -20.8372 H   0  0  0  0  0  0  0  0  0  0  0  0
    2.1220   -4.8742  -16.6639 H   0  0  0  0  0  0  0  0  0  0  0  0
    3.6148   -4.9831  -15.7317 H   0  0  0  0  0  0  0  0  0  0  0  0
    3.3905   -6.0208  -17.1618 H   0  0  0  0  0  0  0  0  0  0  0  0
    5.9194    4.9141  -16.4352 H   0  0  0  0  0  0  0  0  0  0  0  0
    4.7315    3.6688  -15.9900 H   0  0  0  0  0  0  0  0  0  0  0  0
    6.4502    3.2488  -16.1110 H   0  0  0  0  0  0  0  0  0  0  0  0
    3.7940    3.0943  -20.6902 H   0  0  0  0  0  0  0  0  0  0  0  0
    2.9971    4.2422  -17.2597 H   0  0  0  0  0  0  0  0  0  0  0  0
    2.3027    3.9384  -18.8365 H   0  0  0  0  0  0  0  0  0  0  0  0
  1  2  2  0
  1  9  1  0
  2 16  1  0
  3  6  2  0
  3 14  1  0
  4  7  1  0
  4 14  2  0
  5  8  2  0
  5 15  1  0
  6 20  1  0
  7 20  2  0
  8 21  1  0
  9 24  2  0
 10 15  2  0
 10 18  1  0
 11 17  2  0
 11 19  1  0
 12 17  1  0
 12 23  2  0
 13 16  2  0
 13 24  1  0
 14 17  1  0
 15 16  1  0
 18 21  2  0
 18 27  1  0
 19 22  2  0
 19 27  1  0
 20 28  1  0
 21 34  1  0
 22 23  1  0
 22 34  1  0
 23 35  1  0
 24 36  1  0
 27 25  1  1
 25 30  1  0
 25 33  2  0
 26 30  1  0
 26 31  2  0
 26 32  1  0
 27 31  1  0
 29 30  1  0
  1 37  1  0
  2 38  1  0
  3 39  1  0
  4 40  1  0
  5 41  1  0
  6 42  1  0
  7 43  1  0
  8 44  1  0
  9 45  1  0
 10 46  1  0
 11 47  1  0
 12 48  1  0
 13 49  1  0
 28 50  1  0
 28 51  1  0
 28 52  1  0
 29 53  1  0
 29 54  1  0
 29 55  1  0
 31 56  1  0
 32 57  1  0
 32 58  1  0
M  CHG  1  31   1
M  END
>  <OMEGA_C>  (4) 
8lf9QDsgGUGSF7LBItP/QMD3AkHkRbPBxM+bQAw/6L/v+47BtdaQQGpUTsAMcZ7Btt72QH5rrED6
OLnBFjqJQNdwMsDDe4jBVIJ8QMBShsD+8JfB1kz5QPwmgED+X7rBnYPaQHRBIkGI0KzB/MvPQC4e
o0AVuqjBFHOvQMh2pz7j9J3BDrvIQCZxsr9E76nBPqm8QA8l/kD05anBqZ6fQOwUAsDI9pnBHBji
QPjpvUB5ZrDB2H3fQDzi60AKLa/BxdeyQJvBgr9UtaDBgv3RQN/PbEDdxanB+N/BQFtmqT8laKTB
ROR0QFiwfsAI9ozBv+bmQHKWSkB8sbLBd7zXQBoRbz/4qK3BrjLbQCUK1r4+aLDBVi66QNE6FUGt
t6jBIsTRQPxwQ0D2QZbBUJmJQAoHZEBAY5XBab++QCQdMkBLgKHBiztNQKWnoMAcAYbBBuy0QPL3
dkCRXoTBjR6vQClZYUCFn4/BSeyQQMUbSUC855/B2IxEQE4ofUDFqZHBbOL2QPXZOUCAd5PBVvfq
QNOj6D8vkrTBMTLwQE+JSL9jSrnBAkiPQGiBIEE3LqLBJUYLQTtCI0HgRbXBMpUNQZIq+EDdaLfB
PiynQIYeZL+UX4vBeY2TQGwcWsBE/abBC6kCQZzQwEDWRb/BgmGGQPEXJ8C63n/BaK5lQBHto8BU
gJvBkMcEQY1gZUA9ScHBxgfZQCiMM0Gn8avByLS/QHUUsUBO1qHBjlmeQJrcGz9vtpbBaq/LQLgj
HMDwMqzB/mujQEPZ6UCksqbBes8HQHb5m8CwT4XBQFhnQGl1n8AVtXvBnf5YQBKqwMBiS4nB0Wu9
QKhAnUBWe4PB2GiXQJbNakAJ13/B8GfOQPnsT0BH44DBHdFyQKYIRkCOhaXB9tA/QOe/h0DqE4rB
mV8TQM4OfEAjsZbB

>  <OMEGA_E>  (4) 
gu5mwQ==

>  <OMEGA_NBR>  (4) 
     24799

$$$$
284484
     RDKit          3D

 56 61  0  0  1  0  0  0  0  0999 V2000
    6.9193    8.9936  -20.8732 C   0  0  0  0  0  0  0  0  0  0  0  0
    6.9290    7.6009  -21.0139 C   0  0  0  0  0  0  0  0  0  0  0  0
    7.3788    5.0626  -23.5082 C   0  0  0  0  0  0  0  0  0  0  0  0
    6.0028   -1.6615  -21.4022 C   0  0  0  0  0  0  0  0  0  0  0  0
    7.4548    3.6766  -23.6488 C   0  0  0  0  0  0  0  0  0  0  0  0
    6.5246   -0.7165  -22.2884 C   0  0  0  0  0  0  0  0  0  0  0  0
    5.9769    4.7900  -21.5333 C   0  0  0  0  0  0  0  0  0  0  0  0
    5.0816    0.1280  -20.0282 C   0  0  0  0  0  0  0  0  0  0  0  0
    6.5645    9.7921  -21.9811 C   0  0  0  0  0  0  0  0  0  0  0  0
    6.6365    5.6151  -22.4505 C   0  0  0  0  0  0  0  0  0  0  0  0
    6.5978    7.0533  -22.2666 C   0  0  0  0  0  0  0  0  0  0  0  0
    5.2886   -1.2396  -20.2661 C   0  0  0  0  0  0  0  0  0  0  0  0
    6.0640    3.3962  -21.6585 C   0  0  0  0  0  0  0  0  0  0  0  0
    5.6277    1.0855  -20.9034 C   0  0  0  0  0  0  0  0  0  0  0  0
    6.8130    2.8350  -22.7271 C   0  0  0  0  0  0  0  0  0  0  0  0
    6.3648    0.6548  -22.0401 C   0  0  0  0  0  0  0  0  0  0  0  0
    6.2426    7.9038  -23.3379 C   0  0  0  0  0  0  0  0  0  0  0  0
    5.6646   -3.2252  -18.8859 C   0  0  0  0  0  0  0  0  0  0  0  0
    4.8057   -2.2294  -19.3090 C   0  0  0  0  0  0  0  0  0  0  0  0
    6.3303    2.8256  -19.2774 C   0  0  0  0  0  0  0  0  0  0  0  0
    4.1116    3.2407  -18.8896 C   0  0  0  0  0  0  0  0  0  0  0  0
    5.1930   -4.3301  -17.9672 C   0  0  0  0  0  0  0  0  0  0  0  0
    3.3562   -2.1783  -18.8416 C   0  0  0  0  0  0  0  0  0  0  0  0
    3.1084   -3.1502  -17.6770 C   0  0  0  0  0  0  0  0  0  0  0  0
    5.5380    2.5448  -20.5365 C   0  0  1  0  0  0  0  0  0  0  0  0
    5.7188    3.6138  -16.9621 C   0  0  0  0  0  0  0  0  0  0  0  0
    6.2307    9.2467  -23.1779 N   0  0  0  0  0  0  0  0  0  0  0  0
    5.4114    3.3178  -18.3667 N   0  0  0  0  0  0  0  0  0  0  0  0
    4.1602    2.9210  -20.1653 N   0  0  0  0  0  0  0  0  0  0  0  0
    2.9465    3.5001  -18.1834 N   0  0  0  0  0  0  0  0  0  0  0  0
    7.5453    2.7363  -19.1397 O   0  0  0  0  0  0  0  0  0  0  0  0
    7.0001    1.4881  -22.9344 O   0  0  0  0  0  0  0  0  0  0  0  0
    3.7507   -4.4110  -17.9470 O   0  0  0  0  0  0  0  0  0  0  0  0
    5.8670    7.3793  -24.5324 F   0  0  0  0  0  0  0  0  0  0  0  0
    7.1798    9.4505  -19.9299 H   0  0  0  0  0  0  0  0  0  0  0  0
    7.1845    6.9626  -20.1810 H   0  0  0  0  0  0  0  0  0  0  0  0
    7.8880    5.7078  -24.2089 H   0  0  0  0  0  0  0  0  0  0  0  0
    6.1474   -2.7153  -21.5890 H   0  0  0  0  0  0  0  0  0  0  0  0
    8.0100    3.2494  -24.4707 H   0  0  0  0  0  0  0  0  0  0  0  0
    7.0546   -1.0438  -23.1707 H   0  0  0  0  0  0  0  0  0  0  0  0
    5.4015    5.2259  -20.7300 H   0  0  0  0  0  0  0  0  0  0  0  0
    4.5032    0.4458  -19.1733 H   0  0  0  0  0  0  0  0  0  0  0  0
    6.5584   10.8667  -21.8736 H   0  0  0  0  0  0  0  0  0  0  0  0
    6.6923   -3.2145  -19.2175 H   0  0  0  0  0  0  0  0  0  0  0  0
    5.6014   -5.2888  -18.3195 H   0  0  0  0  0  0  0  0  0  0  0  0
    5.5557   -4.1293  -16.9483 H   0  0  0  0  0  0  0  0  0  0  0  0
    3.1228   -1.1557  -18.5103 H   0  0  0  0  0  0  0  0  0  0  0  0
    2.6996   -2.4506  -19.6811 H   0  0  0  0  0  0  0  0  0  0  0  0
    3.5193   -2.7222  -16.7508 H   0  0  0  0  0  0  0  0  0  0  0  0
    2.0264   -3.3097  -17.5588 H   0  0  0  0  0  0  0  0  0  0  0  0
    4.8157    3.9916  -16.4603 H   0  0  0  0  0  0  0  0  0  0  0  0
    6.0603    2.6964  -16.4604 H   0  0  0  0  0  0  0  0  0  0  0  0
    6.5111    4.3753  -16.9130 H   0  0  0  0  0  0  0  0  0  0  0  0
    3.3795    2.9315  -20.7901 H   0  0  0  0  0  0  0  0  0  0  0  0
    2.0606    3.4501  -18.6445 H   0  0  0  0  0  0  0  0  0  0  0  0
    2.9924    3.7373  -17.2130 H   0  0  0  0  0  0  0  0  0  0  0  0
  1  2  2  0
  1  9  1  0
  2 11  1  0
  3  5  2  0
  3 10  1  0
  4  6  1  0
  4 12  2  0
  5 15  1  0
  6 16  2  0
  7 10  2  0
  7 13  1  0
  8 12  1  0
  8 14  2  0
  9 27  2  0
 10 11  1  0
 11 17  2  0
 12 19  1  0
 13 15  2  0
 13 25  1  0
 14 16  1  0
 14 25  1  0
 15 32  1  0
 16 32  1  0
 17 27  1  0
 17 34  1  0
 18 19  2  0
 18 22  1  0
 19 23  1  0
 25 20  1  1
 20 28  1  0
 20 31  2  0
 21 28  1  0
 21 29  2  0
 21 30  1  0
 22 33  1  0
 23 24  1  0
 24 33  1  0
 25 29  1  0
 26 28  1  0
  1 35  1  0
  2 36  1  0
  3 37  1  0
  4 38  1  0
  5 39  1  0
  6 40  1  0
  7 41  1  0
  8 42  1  0
  9 43  1  0
 18 44  1  0
 22 45  1  0
 22 46  1  0
 23 47  1  0
 23 48  1  0
 24 49  1  0
 24 50  1  0
 26 51  1  0
 26 52  1  0
 26 53  1  0
 29 54  1  0
 30 55  1  0
 30 56  1  0
M  CHG  1  29   1
M  END
>  <OMEGA_C>  (5) 
+GrdQNHlD0FW/KbBPrrdQPg680BjHKjBRh/sQO4AokDcELzBrBbAQOir1L+sN6vBq43uQLpNa0C8
ML3BicnQQB1vN7+yTrLB1UK/QJlHmUAmRKzBnZyiQLMbAz7GOaDBWRDSQImsHEFU2a/BHl7UQAyv
s0C1mrPByiDTQD604UDxIbLBYjypQKKpnr/6IKLBVQzCQKxbWUCkRK3B+xW0QBfwij8tOqfBXgTa
QAdxNUAE0bXBh6zLQMOhJz8SUrDBbMPHQOHr/EAEtLrBAUS1QOVpTsBTFpfBE8iZQNiuDsDkeJrB
uJHKQA7WNEArOJrB4JGDQCRnT0DrHZfB5iymQIyQisDdvI/BV8xWQEhpC8Cou5bBc+9GQHGcScCV
ao3BXzexQCHeIkC8SqTBZAC3QAxJZ0BysofBQWLHQE/yE0FBbLnB9CmtQH9WVEAS75LB/x+FQCvy
OkB5UqHB7ZM8QPwBYECLd5HBUnPxQAUfL0AJHpnBwADgQCh5vj+OebfBqwpwQLomjcBtk4/Bb767
QIcj7EBRQsTBoMDlQFY1F0F8cJ/BTuflQEbN3kDJcqHBlWr8QDemtkC7q8HBzbfEQA3ILcA9tqzB
GSkAQZD1T0AJxMPBWL/hQDmahb+aXbnBb9msQMY6p0D21qXB0hmQQOBA5D4BY5nBcN7RQDDeLUE5
/a7BryfWQPm5TcBXvZnB8j6zQBM+qcBQjpLBKsixQBYjhMA2lofB1ttHQFPtk78pFZTBKsYsQFnX
HMDYcp3BJDxhQE84LsCYAYbBIbEBQPnRU8BleIzBjxqaQPN1f0DDroPBAu7BQAGSLEDzroPBAFvQ
QG0CjEC9TYfB00lYQAeeO0A6UqbBQOEDQK7NXED9J5XBQYM/QGAvb0AvtInBnm+tQIU0EUExtq3B
lLGtQBHS9UD6u67BDNrpQNW1oUAUSLzBi7u/QC3J1b+XcKvBq0LsQGTeakBwcL3BGXHQQEN9OL9M
erLBjSPAQJ/nmEBf9qvBy+iiQLYv5D0TQqDBiGPTQKG2HEEFv6/BEZ7UQANws0BSZrPB1/fTQFiZ
4UCu2LHBn0CpQDZooL+ZR6LBxXvCQGeuWEDDFK3B1120QCZOiT/CM6fBy2HZQHL9NEAS07XBm5nL
QD3pJT85XrDBoV35QC1m+kASfrPBwYm1QEj/T8BCcpfBKxOaQHueD8CzoZrBuJDKQIv7MkDGBJrB
cHODQGOLTUAkCJfBsa6mQElvi8AJHJDBhB5YQClnC8DpoZbBag5JQClNSsB4YI3BaI+xQKvLIUCO
KqTBKdO2QEZCakDYw4fBnk/4QGm7EkGzfrLBmUCsQHbTR0A4X5LBbmuFQCerOUBDQKHB/qc8QIi8
ZECdsJHBMZTxQPQgMkDh+pjBlJ/fQM8Nvj+zhLfBUg5xQDyUjcCAwI/BSbQPQaxG50Bnq7XBSo6Q
QBx9GUErZavBJyuRQIVW40DCK63BskL4QMdktkA2McLBhQ7EQJpJLsBQBq3B2bz8QBOqT0DsOsTB
8C/hQMZdhb/albnBaJKuQBHCpkCCYKXBaJ2QQOgC2T4CXpnBWgnTQJbxLUHpGK/BLjrWQICuT8AN
QJrBPEOzQM8iqsBwDJPB0OyyQJljhcCg/4fBKZhKQLMOlL/E1pPBkassQHuMG8CBQZ3BR7hkQMze
L8Bp/YXBBN8DQAHzU8CYSIzBuS2ZQMtldUDGOoPBFATLQPglPECtb4PBdzbIQJeDk0DProjB7jZZ
QL2dOkAxTabBnAUFQGA0Z0DgoZXBBcA+QB7+ckAy5YnBZMfbQKboFEFVfrnBlwrdQJBl/UARvbrB
EnTvQJe+oUAeQrvBJoW/QM831b++RKvBjh7xQKzpakCUnbzBgILQQNUoOb++U7LBwTO8QL25mECm
z6zBkHyiQNQNAj5vOqDBXznQQHiNHUETha/B+fXUQGrms0DlTbPBGYHTQDbj4kAx57HBrOioQIqq
nr+yJ6LB+ZXAQKxyWECii63B7eWzQONUij+3PqfBNp7aQGnPNEDcr7XBArTLQFzIJT9rTLDBLDTJ
QK649kCD7afBN7m0QHCQTsD7L5fBf2mZQJ5WDsAKgJrB+3bKQGJhNkATd5rBA5eDQHuWT0BMGZfB
02elQH/IisAP7Y/B5FJWQC8qCsAyr5bBeIJGQMx5SMByZI3BRICwQHiYIkDFaaTBYuq3QHUuakCP
8IfBfjnHQMfoEEFVB6fBrnKtQImLVkCLIZPBAnOEQNGnOUBwRKHBpGM9QFfdX0BXSJHB+3fxQIVS
MkDqhZnBe7zgQK5VvT/EU7fBqnBuQDvDjMB0ro/BrqnDQGDH30AB0p7Bl5XjQLROH0HAHMDBnDnl
QOV670C8YMLBfkMBQWpDtkBSUcDBurrDQMAbLsBbzazB3O4BQWL2T0B6C8PBFXHhQAGchr/gYrnB
9aGlQLRJpkAIN6fBFy6QQPuH5D4UXJnBNH3OQC23LkFCna7BKZ/VQPcKTsBk1ZnBGfqxQER8qcDo
3ZLBeVmxQELthMBSx4fBJDVIQLlOkb8B/ZPBXborQF30GsB7Xp3Bw9RhQDDELcBNAIbBojwBQKff
UcBnWozBRkWbQIVngUAG24PBVfbCQGypL0Dc5oPBYF3RQApjjUAnrofB5BpWQNnAOEAPIqbBSB0E
QKw7W0AezpTBTXJBQCM8cEC7kInB

>  <OMEGA_E>  (5) 
soEiP7zaIj/YAiM/

>  <OMEGA_NBR>  (5) 
     24358

$$$$
