50156600
     RDKit          3D

 54 58  0  0  1  0  0  0  0  0999 V2000
    6.2399   -0.3237  -23.0292 C   0  0  0  0  0  0  0  0  0  0  0  0
    5.9008   -1.3912  -22.1788 C   0  0  0  0  0  0  0  0  0  0  0  0
    6.0968    1.0051  -22.5899 C   0  0  0  0  0  0  0  0  0  0  0  0
    4.8773    4.2440  -22.7229 C   0  0  0  0  0  0  0  0  0  0  0  0
    7.1643    4.2425  -21.8802 C   0  0  0  0  0  0  0  0  0  0  0  0
    5.2325    5.1913  -23.6868 C   0  0  0  0  0  0  0  0  0  0  0  0
    7.5203    5.1992  -22.8494 C   0  0  0  0  0  0  0  0  0  0  0  0
    5.2759    0.1985  -20.4388 C   0  0  0  0  0  0  0  0  0  0  0  0
    4.6047   -3.4877  -20.4748 C   0  0  0  0  0  0  0  0  0  0  0  0
    5.1639   -2.1169  -18.5638 C   0  0  0  0  0  0  0  0  0  0  0  0
    4.3949   -4.3061  -18.2961 C   0  0  0  0  0  0  0  0  0  0  0  0
    5.4197   -1.1368  -20.8732 C   0  0  0  0  0  0  0  0  0  0  0  0
    5.0625   -2.2534  -19.9664 C   0  0  0  0  0  0  0  0  0  0  0  0
    5.8259    3.7815  -21.7858 C   0  0  0  0  0  0  0  0  0  0  0  0
    5.6103    1.2793  -21.2850 C   0  0  0  0  0  0  0  0  0  0  0  0
    6.5590    5.6928  -23.7557 C   0  0  0  0  0  0  0  0  0  0  0  0
    6.1141    2.8995  -19.4531 C   0  0  0  0  0  0  0  0  0  0  0  0
    3.8836    3.3146  -19.1449 C   0  0  0  0  0  0  0  0  0  0  0  0
    6.8963    3.8665  -16.9212 C   0  0  0  0  0  0  0  0  0  0  0  0
    5.4149    3.4832  -17.1086 C   0  0  0  0  0  0  0  0  0  0  0  0
    7.7942    2.8440  -17.6606 C   0  0  0  0  0  0  0  0  0  0  0  0
    5.4105    2.7116  -20.7652 C   0  0  1  0  0  0  0  0  0  0  0  0
    5.9897    7.1692  -25.6182 C   0  0  0  0  0  0  0  0  0  0  0  0
    4.2762   -4.4918  -19.6343 N   0  0  0  0  0  0  0  0  0  0  0  0
    4.8318   -3.1433  -17.7525 N   0  0  0  0  0  0  0  0  0  0  0  0
    5.1566    3.3837  -18.5664 N   0  0  0  0  0  0  0  0  0  0  0  0
    7.3419    2.6252  -19.0656 N   0  0  0  0  0  0  0  0  0  0  0  0
    3.9897    2.9110  -20.3921 N   0  0  0  0  0  0  0  0  0  0  0  0
    2.6840    3.6242  -18.5161 N   0  0  0  0  0  0  0  0  0  0  0  0
    6.9744    6.6460  -24.6816 O   0  0  0  0  0  0  0  0  0  0  0  0
    4.9676    7.7920  -24.9639 F   0  0  0  0  0  0  0  0  0  0  0  0
    5.5150    6.1820  -26.4307 F   0  0  0  0  0  0  0  0  0  0  0  0
    6.6020    8.0915  -26.4000 F   0  0  0  0  0  0  0  0  0  0  0  0
    6.6115   -0.5247  -24.0231 H   0  0  0  0  0  0  0  0  0  0  0  0
    6.0082   -2.4090  -22.5238 H   0  0  0  0  0  0  0  0  0  0  0  0
    6.3583    1.8202  -23.2485 H   0  0  0  0  0  0  0  0  0  0  0  0
    3.8674    3.8622  -22.6947 H   0  0  0  0  0  0  0  0  0  0  0  0
    7.9139    3.8573  -21.2048 H   0  0  0  0  0  0  0  0  0  0  0  0
    4.4902    5.5457  -24.3867 H   0  0  0  0  0  0  0  0  0  0  0  0
    8.5377    5.5580  -22.8994 H   0  0  0  0  0  0  0  0  0  0  0  0
    4.9046    0.3971  -19.4443 H   0  0  0  0  0  0  0  0  0  0  0  0
    4.5166   -3.6297  -21.5417 H   0  0  0  0  0  0  0  0  0  0  0  0
    5.5090   -1.1861  -18.1385 H   0  0  0  0  0  0  0  0  0  0  0  0
    4.1303   -5.1186  -17.6357 H   0  0  0  0  0  0  0  0  0  0  0  0
    7.0695    4.8715  -17.3336 H   0  0  0  0  0  0  0  0  0  0  0  0
    7.1428    3.8626  -15.8492 H   0  0  0  0  0  0  0  0  0  0  0  0
    5.2142    2.5155  -16.6255 H   0  0  0  0  0  0  0  0  0  0  0  0
    4.7690    4.2553  -16.6653 H   0  0  0  0  0  0  0  0  0  0  0  0
    8.8275    3.2212  -17.6736 H   0  0  0  0  0  0  0  0  0  0  0  0
    7.7606    1.8854  -17.1221 H   0  0  0  0  0  0  0  0  0  0  0  0
    7.9908    2.2593  -19.7327 H   0  0  0  0  0  0  0  0  0  0  0  0
    3.2155    2.7590  -21.0066 H   0  0  0  0  0  0  0  0  0  0  0  0
    1.8221    3.5458  -19.0172 H   0  0  0  0  0  0  0  0  0  0  0  0
    2.6824    3.9254  -17.5626 H   0  0  0  0  0  0  0  0  0  0  0  0
  1  2  2  0
  1  3  1  0
  2 12  1  0
  3 15  2  0
  4  6  2  0
  4 14  1  0
  5  7  1  0
  5 14  2  0
  6 16  1  0
  7 16  2  0
  8 12  2  0
  8 15  1  0
  9 13  2  0
  9 24  1  0
 10 13  1  0
 10 25  2  0
 11 24  2  0
 11 25  1  0
 12 13  1  0
 22 14  1  6
 15 22  1  0
 16 30  1  0
 17 22  1  0
 17 26  1  0
 17 27  2  0
 18 26  1  0
 18 28  2  0
 18 29  1  0
 19 20  1  0
 19 21  1  0
 20 26  1  0
 21 27  1  0
 22 28  1  0
 23 30  1  0
 23 31  1  0
 23 32  1  0
 23 33  1  0
  1 34  1  0
  2 35  1  0
  3 36  1  0
  4 37  1  0
  5 38  1  0
  6 39  1  0
  7 40  1  0
  8 41  1  0
  9 42  1  0
 10 43  1  0
 11 44  1  0
 19 45  1  0
 19 46  1  0
 20 47  1  0
 20 48  1  0
 21 49  1  0
 21 50  1  0
 27 51  1  0
 28 52  1  0
 29 53  1  0
 29 54  1  0
M  CHG  2  27   1  28   1
M  END
>  <OMEGA_C>  (1) 
lK3HQAW5pb7KO7jBvdO8QLETsr8XbrHBSBnDQNungD8luLTBuhKcQLfOh0B9yLXBl0HlQFXCh0CS
Cq/BZXCnQCIfpkClfr3BfqbwQKhfpkCSy7bBPNSoQOtMSz6zgqPBnVmTQOQ1X8BNzKPBfz6lQGp7
B8DCgpTBA6OMQEHLicB4XpLBNm6tQEaEkb9R/KbBSQCiQBU4EMBCu5/Bzm26QEkEckBRSa7BQIez
QJm/oz+oR6rBVOPRQMMrtkC3C77BfabDQASROUAFoJvBjox4QCcjVECpKJnBOa7cQIB1d0ClXofB
DketQDjsXkB13ojBSmr5QDoENkDoSI3BfiKtQNGKLUApH6bBrqu/QLhp5UAM8szBtdaIQPK8j8D9
Ep3BtZ2aQDErScAQBY7BJQOlQImOWEDoh5TBr/DqQAIDKEBahpjBLFd/QAxOOkANI6PBAMYrQKvy
Z0ARIZTBby7fQFas1EDlc8XB2faeQGNY+UAVtsfBInuwQPbSxUACctPBaUPTQPd2AUE4M9PB0JHT
QCpTBr9aL8DBTUPAQL0sGsC4MLTBlHfLQAn86D/W/LnB4IN3QLYtd0DOjrXBpj79QLvedkBto6nB
v6+PQPh1sUAQGMPBjJoIQW3bsUAJMrfBO/KcQDdNyz7njZvB+4eQQE1NaMB9VazB7UmwQDLTl7+e
G5HBcyuEQGPLo8DZFY3BHDniQHbjm0Amq4rBzJHkQIo0d0BVln3BitqmQIz+IEAPAYXBPpuYQJkr
iECfUoXBTD0NQYEnTkCSY43Bclb4QMdV8T8J+ojBe7T/QKSXEECT3J3BGstNQCiTMEBuDajBDTrp
P9ftYkAnI5jB9KsrQOM5e0AxgIzB

>  <OMEGA_E>  (1) 
8KQwPw==

>  <OMEGA_NBR>  (1) 
     21673

$$$$
50156600
     RDKit          3D

 54 58  0  0  1  0  0  0  0  0999 V2000
    6.4592   -0.6466  -22.6195 C   0  0  0  0  0  0  0  0  0  0  0  0
    6.0233   -1.6083  -21.6892 C   0  0  0  0  0  0  0  0  0  0  0  0
    6.3171    0.7254  -22.3381 C   0  0  0  0  0  0  0  0  0  0  0  0
    4.9026    3.9459  -22.8501 C   0  0  0  0  0  0  0  0  0  0  0  0
    7.2208    3.9857  -22.0708 C   0  0  0  0  0  0  0  0  0  0  0  0
    5.2501    4.7739  -23.9214 C   0  0  0  0  0  0  0  0  0  0  0  0
    7.5654    4.8208  -23.1476 C   0  0  0  0  0  0  0  0  0  0  0  0
    5.3058    0.1720  -20.1903 C   0  0  0  0  0  0  0  0  0  0  0  0
    5.6739   -3.3505  -19.2213 C   0  0  0  0  0  0  0  0  0  0  0  0
    3.7485   -1.9523  -18.7852 C   0  0  0  0  0  0  0  0  0  0  0  0
    4.0644   -3.9615  -17.6402 C   0  0  0  0  0  0  0  0  0  0  0  0
    5.4348   -1.1969  -20.4739 C   0  0  0  0  0  0  0  0  0  0  0  0
    4.9463   -2.1779  -19.4954 C   0  0  0  0  0  0  0  0  0  0  0  0
    5.8767    3.5644  -21.8987 C   0  0  0  0  0  0  0  0  0  0  0  0
    5.7336    1.1443  -21.1141 C   0  0  0  0  0  0  0  0  0  0  0  0
    6.5740    5.2232  -24.0644 C   0  0  0  0  0  0  0  0  0  0  0  0
    6.1738    2.9934  -19.4942 C   0  0  0  0  0  0  0  0  0  0  0  0
    3.9387    3.3120  -19.2318 C   0  0  0  0  0  0  0  0  0  0  0  0
    6.8639    4.1215  -17.0030 C   0  0  0  0  0  0  0  0  0  0  0  0
    5.3877    3.8086  -17.2546 C   0  0  0  0  0  0  0  0  0  0  0  0
    7.7199    2.9841  -17.5972 C   0  0  0  0  0  0  0  0  0  0  0  0
    5.4912    2.6131  -20.7702 C   0  0  1  0  0  0  0  0  0  0  0  0
    6.7254    7.4469  -24.8861 C   0  0  0  0  0  0  0  0  0  0  0  0
    5.2268   -4.2197  -18.2910 N   0  0  0  0  0  0  0  0  0  0  0  0
    3.3224   -2.8508  -17.8745 N   0  0  0  0  0  0  0  0  0  0  0  0
    5.1970    3.5982  -18.7069 N   0  0  0  0  0  0  0  0  0  0  0  0
    7.3736    2.7298  -19.0245 N   0  0  0  0  0  0  0  0  0  0  0  0
    4.0643    2.7888  -20.4278 N   0  0  0  0  0  0  0  0  0  0  0  0
    2.7416    3.5358  -18.5707 N   0  0  0  0  0  0  0  0  0  0  0  0
    6.8884    6.0289  -25.1290 O   0  0  0  0  0  0  0  0  0  0  0  0
    5.5832    7.7348  -24.1978 F   0  0  0  0  0  0  0  0  0  0  0  0
    6.6654    8.0679  -26.0894 F   0  0  0  0  0  0  0  0  0  0  0  0
    7.7966    7.9161  -24.1949 F   0  0  0  0  0  0  0  0  0  0  0  0
    6.9040   -0.9619  -23.5518 H   0  0  0  0  0  0  0  0  0  0  0  0
    6.1389   -2.6602  -21.9049 H   0  0  0  0  0  0  0  0  0  0  0  0
    6.6527    1.4603  -23.0547 H   0  0  0  0  0  0  0  0  0  0  0  0
    3.8858    3.5962  -22.7485 H   0  0  0  0  0  0  0  0  0  0  0  0
    7.9801    3.6642  -21.3733 H   0  0  0  0  0  0  0  0  0  0  0  0
    4.5000    5.0688  -24.6403 H   0  0  0  0  0  0  0  0  0  0  0  0
    8.5856    5.1525  -23.2718 H   0  0  0  0  0  0  0  0  0  0  0  0
    4.8726    0.4832  -19.2512 H   0  0  0  0  0  0  0  0  0  0  0  0
    6.5901   -3.5549  -19.7555 H   0  0  0  0  0  0  0  0  0  0  0  0
    3.1717   -1.0583  -18.9712 H   0  0  0  0  0  0  0  0  0  0  0  0
    3.7154   -4.6706  -16.9042 H   0  0  0  0  0  0  0  0  0  0  0  0
    7.1277    5.0740  -17.4859 H   0  0  0  0  0  0  0  0  0  0  0  0
    7.0471    4.1959  -15.9209 H   0  0  0  0  0  0  0  0  0  0  0  0
    5.1020    2.8986  -16.7065 H   0  0  0  0  0  0  0  0  0  0  0  0
    4.7663    4.6508  -16.9163 H   0  0  0  0  0  0  0  0  0  0  0  0
    8.7818    3.2636  -17.5312 H   0  0  0  0  0  0  0  0  0  0  0  0
    7.5459    2.0654  -17.0178 H   0  0  0  0  0  0  0  0  0  0  0  0
    8.0674    2.3512  -19.6371 H   0  0  0  0  0  0  0  0  0  0  0  0
    3.3008    2.5429  -21.0249 H   0  0  0  0  0  0  0  0  0  0  0  0
    1.8758    3.2917  -19.0076 H   0  0  0  0  0  0  0  0  0  0  0  0
    2.7434    3.9414  -17.6566 H   0  0  0  0  0  0  0  0  0  0  0  0
  1  2  2  0
  1  3  1  0
  2 12  1  0
  3 15  2  0
  4  6  2  0
  4 14  1  0
  5  7  1  0
  5 14  2  0
  6 16  1  0
  7 16  2  0
  8 12  2  0
  8 15  1  0
  9 13  2  0
  9 24  1  0
 10 13  1  0
 10 25  2  0
 11 24  2  0
 11 25  1  0
 12 13  1  0
 22 14  1  6
 15 22  1  0
 16 30  1  0
 17 22  1  0
 17 26  1  0
 17 27  2  0
 18 26  1  0
 18 28  2  0
 18 29  1  0
 19 20  1  0
 19 21  1  0
 20 26  1  0
 21 27  1  0
 22 28  1  0
 23 30  1  0
 23 31  1  0
 23 32  1  0
 23 33  1  0
  1 34  1  0
  2 35  1  0
  3 36  1  0
  4 37  1  0
  5 38  1  0
  6 39  1  0
  7 40  1  0
  8 41  1  0
  9 42  1  0
 10 43  1  0
 11 44  1  0
 19 45  1  0
 19 46  1  0
 20 47  1  0
 20 48  1  0
 21 49  1  0
 21 50  1  0
 27 51  1  0
 28 52  1  0
 29 53  1  0
 29 54  1  0
M  CHG  2  27   1  28   1
M  END
>  <OMEGA_C>  (2) 
+7HOQBKJJb/J9LTB6b7AQPvdzb+Pg63BtyXKQCizOT9atLLB5eGcQPeJfEDozLbBdBDnQLkVf0D6
kLDBogCoQKvDmEDvXr/BghfyQMxDmkBiLrnBtsipQBIcMD7HhaHBqJC1QN5uVsBSxZnB+uZvQLvk
+b8NSJbBsg+CQJ2IfcAKH43Br+mtQLQzmb9/yqPB9EeeQMNiC8CE9pvB0g28QOweZECQMK/BbHm3
QEl5kj+W6ajBmF7SQIIkp0Dig8DBDJDFQCSTP0Aj9JvBRxR8QJH4U0DJ2pnBNqXbQKfjg0AqBojB
OWisQHe/c0BvCYrB0gn3QAv7PkASx4zBzrevQFc8J0BqKabBrjbXQNFM7kDOFsfB7UGnQNgHh8AR
VJLBC6JUQDd0NsAA/47B3U2mQEZIZkC0p5XBkPTrQAW1LkAoMpjBHA+CQHl7MkAPbKPBqnUvQONK
YkDDkJTBxG3cQHvswEBCCMnBZqmyQJWD90AOlcHBCkvVQAcWAUEut9DBEn75QNtQ/UAmj8HBRO3c
QEFBdr8karzB93HEQH9BKsBGPa/Bs+LUQLDsuj8dcLjBh7F4QHwnZkD6/LXBx1z/QOKCakCC/KrB
+/+PQFMzokBBH8XBxl4JQUXhpECkLLrBVeybQDZi9z53AprB3OHSQK6DY8ArC57BQv1KQMJ3h7/4
xJfBSsltQL91lcC5O4fBABbkQIxeokAX44vBKILhQPlEhkAhvH7BnEOjQF2DOUDtpoXBS4WYQB/T
lEB/VIfBLYIMQTTfUEDNP4zBPnjxQCYvBEBwJIjBGRQBQZt6FkDXGJ3B2kBTQMe+IkAFM6jBfRvw
PxOrUkCoD5jBipMvQFdAfEDMQI3BcajNQID9KL/SFbXB0hDAQFPtz7+1nq3BcALJQGIkNj+D0rLB
pJOcQKuJfUD5rbbB2u7mQLHIfUApmbDBjbynQKpumUBIOb/BGALyQPS+mUArMLnBeiGpQDqsGz7P
l6HBejlvQK1H/7/SZ5bB9jK2QKPWVsCKtJnBMOCCQBn/fsCoDo3BTnGtQNq1m7983aPBkjqeQLnc
DMD/AZzBkNC7QNusY0CvJq/BxpG2QNJPkD+P/6jBKz/SQC87p0BwcsDBSHzFQAtgPECW7JvBb8J7
QCXaU0AhzpnBEiDbQJwjgUA40IfB+6ysQNOsZkDjlonBGSD5QG1wQEBBLY3Bx0ivQIsnJkD0KabB
Gd7ZQBCA7kCmusbB7cpUQPgpOcBNEo/BkkuoQMU/h8AON5LBbiymQFEdXkAvP5XBBsjsQGuXL0Av
hJjBiKaBQLcwMkC6X6PBeJ4vQANGakDZ3ZTBG1/cQGkfwUCd8sjBsB78QJjJ+kAXx8DBVxu1QOom
+UDDfMHBr6LaQKXLAUFnNNDBSbLbQHAneb+EkrzBT+LDQFc+K8DfWq/Bp37TQJlXuT+IkrjBCdd3
QPX5Z0D70rXBmEv/QEdXaEBeFqvBDaOPQM9to0DM48TBImAJQXABpEBUOLrBwFObQEsE7D5MEZrB
TC5JQFSwjr/u/ZfBerfTQNMTY8A57p3BE0ZwQMQXlsCeGIfBo1HgQOvloEAMYYvBjOHhQA+IgkAx
Xn7B07umQHP1KEDqn4XB6seWQDehi0CLVYbBtwUNQchTWUCh/4zBv5v3QOEFBEDirIjBz3EBQRYZ
GkBpo53BMyxSQJnKIkBEIKjB3+zvP80TYUAupZjBc1AwQL7TgUDphY3B8JvOQO7PJ79pIrXB8gbB
QKk10L/Ata3B16PJQAItNz8R2bLBsALnQHCEfkDphLDB6IacQCBXfkDec7bBbsTxQH5zmkDHEbnB
yGanQEIBmkDv+77B1mipQNqMDz4btqHBHC+2QI5PV8BMyZnBfDtwQHNW/b+beJbBqOeCQAWmfcDs
B43BdvmtQGC/nL/n/aPBJIOeQOgVDcD1IZzBsPG7QHwyZED2+a7BmN+2QMOnjz8EC6nBFtHRQDEB
qEAZQcDBIAHFQGoOOUBdnZvB7QB7QEnWTkDUrJnBp7TXQFg7WUBZzYXBpyisQCy6dUA5HorBQOX5
QMH8Z0BJgY7BrnevQOR4JUCSEabBTCLXQNDK7kADG8fBeCCoQC0fh8CqOpLBM6BVQOhPN8CHDI/B
mkukQIwtSEAJS5TB0WbtQDCVPkCsxZjBEp+BQHYnMEDhYaPBy7MwQMJCcEA1TJXBhOPbQBFHwUBX
38jBk1iyQGq7+EAPycHBThrWQH8NAUEz0NDByD35QNy1/UAofsHB5+LcQCeKdr+xm7zBai/FQF1L
K8Buc6/B+B7UQPRvuj+rj7jB4pv/QJuoaEChGavB0s53QE2raECZj7XB2zcJQdjopEBmH7rBUyOP
QG38o0Cnm8TBlFObQHYJ4z4VNJrBsJTTQFhXZMD9Bp7B4q1KQGU0jL/WFpjBfwhwQO0vlcBGCIfB
jcbfQMjLfkDERn3BoIHWQFTfFEBiuIPBYu6SQMq7ZUDZUITBalisQJGcnUDmhYvBwqb9QHOYlkDL
0Y/B6z0MQd/HTEAJyYvBwgYCQYeqJkBHkZ3BX5lSQBn/IUBORajBMB32P61ockD4ppnBjrkwQP8d
g0CzyI3BUGvNQE77KL/CDLXBfOW/QHHhzr8wg63B2unIQJ6nNj9W3LLBGNWcQDCnfEApBrfB1+fm
QGBWfkARvLDBpjGoQHAdmUC/h7/BlyjyQFMsmkC+RLnB922pQMQfMT58jKHBjly1QIDMVsC7w5nB
xNRwQJSK+L/l+pXBRluCQM6dfcC8+YzBNI2tQGRemb93v6PBrEqeQBE7C8Cq1JvBP9C7QNDNY0D/
Yq/BFbG2QOnqkT9LCqnBI5rSQOGop0AmkcDB5X3FQAoDP0CzKpzBnvp7QNz8UkDL3pnByM7bQB2+
gEA56IfBpMKsQOzca0D78YnB9g/4QBh5PEA1Mo3B4juvQOIrJ0CSVqbBEV3UQDz27kBgM8fBTTSn
QFREh8C8UJLBRtZVQFrhNcDisI7BYmKmQAKGY0DHoJXB+0fsQGrQLkA5n5jBsLCBQFxFM0AJi6PB
W7MvQBgnYUCPf5TBaC3dQFX6wUBP9MjB8bDXQEOdAUG8v9DBvqbxQK2b/0AhUsDBJECsQKnn9UAk
R8PB+ErbQOMne7/siLzB6ozDQL7WKsBsMq/BHFjTQCDTuD+CqrjBu494QDgxZkDRSbbB8SD/QMbx
aEC3LqvBdVuQQOCmokBsUMXBLHMJQRaNpEAnOrrBF+mbQDX2+j5TA5rB92XSQOAvZMAYJJ7BEmNM
QBQehb+WV5fBd3JuQJuclcAwHIfBLkPjQPk7oEBxXovBp/DhQApqgUCUfH7BbpWkQEU1L0Am+YXB
iUeYQJinj0DKzYbBZNsMQW/WUEC4xIzB0hH0QJ2+/z+F1IjBHDEBQSTSGEBNtp3BGThSQB88JUD/
WqjBRAPwP4XYUkCtApjB+lkwQGeueUAOHI3BTqTNQHqTKb/UNLXBcDbAQBJp0L91uK3BfgjJQJTZ
NT9u8bLB0CznQESFfUB5tLDBmZmcQKYKf0BsjbbBLhHyQFQLmkCJObnBzZynQD5zmkBpD7/B1nOp
QOKqFj5dtKHBvqK1QJG6V8DL3ZnBDHBxQNoE+r+yIZbBFACDQKQwfcB/6YzBaLetQA4bnL+E86PB
QXqeQBx4DMBkBJzBcAG8QO4kZEAkHa/BJL62QLjijz8sGqnBziDSQE8+qEDeU8DBzB7FQFuNOUBl
vpvBqwV7QGzrTUDdspnBvvzXQB3eWEBa6YXBVGysQDKUdUCzMorB1yr6QKyeZ0DRno7BNnavQDK4
JUBVLabBE6jVQCNl70CHHcfBpqinQLNch8CLTpLBz/VWQBS2NcCNtY7B5IKkQFRWSEATZJTBkort
QHa4PkAo6ZjB36WBQMeKMECQeKPBx1QwQDhHbUA7MZXBtlrcQHIGwkBl2MjBuoX3QHDu/0Bgs8HB
HPSwQNQb+EDpn8HBJgTTQKEuAUGH2NDBDIfbQDm6eb8ctrzB/A/EQFV7K8ALdK/BIG3TQPU9uT9f
s7jBhsX/QIjIZkCXV6vBG893QAfVaUA2p7XBo2wJQUwUpEDuULrBHWOPQIiqpEACq8TBfrybQPGD
6T5MK5rBRZXSQEWAZcDbQp7B58FMQHUph79DlJfBRDVwQMAKlcAc74bBQCLgQGFJfkB4e33B5LzW
QK16FECv2IPBozeTQPFxZUBcZYTBq6CsQOyOnUD5kYvBkhP+QBdrlkBD5Y/BSloMQckHTEAA7YvB
ZRACQR/eJkDgup3BhqFSQKpSI0CdZajBz8X0P2rSbkAhfpnBG10wQEMvgUCio43B6LfOQM+xJ79B
ELXBFgbBQCYV0L+gpq3B7MfJQJs/Nz/MxrLBiuXmQNdMfkCTfrDBgGycQMcWfkCQcLbBOrLxQJw4
mkBWELnBnFmnQBG8mUBy/77BooCpQOCXED7do6HBzQBxQCYA/b/sS5bBQgG2QI0NWMBB4ZnBSgOD
QAaSfsDREI3BgAOuQNqknL/x7KPBxp6eQGglDcBqEZzB6dO7QH0UZEBT867BQPi2QHq5jz8a+qjB
5sbRQMWxp0AZRcDBqdbEQL9yOUA+kpvBWb56QJ/RT0BtuZnBFRjXQBt0WEAytoXBQtGrQG0HdkDn
FYrB4J75QJPxZkChV47B52WvQDt8JUBjB6bBTgTYQHvD7kAs0sbBgmNWQAqWN8Ba7Y7Bc/WnQO6z
h8AyX5LBDgmkQKvqSEC9SpTB/zLtQMSBPkD8rZjBbYOBQHbeL0CzXaPBILkwQEvLckBRd5XB3Mrb
QOpQwUCv1MjB7L75QM5U/EBv28DBANWyQI7o+ED6tMHBMJTYQCSUAUFeZNDBCg/dQOJ+dr9nh7zB
xQ/FQN48K8DCZ6/BfFHUQLB0uj8JfLjBbHj/QM6NaECzD6vBIpF3QKaMaECzibXB1C8JQSinpEAA
HrrBAx6PQGWho0Cwo8TBLHebQNS+4z60IJrBhOVLQDvWir+zyZfB5y7TQDhDZcCnNJ7B8z5wQEzR
lcBkG4fBqCPfQEyCfUBxAn3B/33VQNIFFEAfr4PBlFeSQDRnZkDlVYTBy2isQEDHnUBrdYvBytL9
QHkRlkAulI/BifsLQU7WSkBXmIvBr/EBQTzhJkB4fJ3BB3JSQJG2IECYN6jBNqP2P8AsdUBi3ZnB
4bMwQB3UhEB0/o3BjGfMQG45Lr/lR7XBoiS/QNbG0r87yK3B8g7IQAoTMT+q+rLB0AnnQE6sfECG
lbDBnpCcQBL3fUBfhbbBUPzxQD/MmUBxE7nBYJqnQFMgmkDm+b7BVRKpQCiZAj7gqqHBSVVxQABr
/r+NCpbB/861QAb1WMDp6pnBMtyDQIA1f8Cv1ozBThutQDSmnr+/9KPBqkueQHoADsC3AJzBEuC7
QDINY0CsDq/B1jq2QKpsjT/0FanB1hHSQDElqEAJLcDBFazEQG8COEDTsJvBqqx6QCzCUEBt6JnB
zKzWQEiTVUAxxIXBVhmsQIo5dkClP4rB9NL5QBbrYEAlU47BIyivQJyBJEBqJqbBkAjUQGGX70D4
4MbB3NlXQFw0OMCEmI7BhlqoQPQXiMACVJLBzPajQCCJSUBVd5TB6P3sQHyqOUAVtZjBVlSBQLjQ
L0AygKPB+OowQACrdEC3s5XBWjbcQDxpwkCBnMjBmDKwQPdM90Az8sDBlMDOQLwYAUFNltDBllj2
QEq7AEHI7sHBcfXZQFc5fr9A07zBS8XCQIGoLMBxjK/BCU7SQGfptj/dv7jBkZL/QHrpZUB7NKvB
pM53QKJmaEB9rbXBNGMJQTTYo0BPJbrBKW+PQCJYpEBWmcTBQ6mbQOYx3z6mGJrBfg9MQMEwjL89
cpfBQJ7SQJpLZsCkY57BUeFyQMIUlsCK0IbBjyzfQFFZekCOI33Bg6/TQCBsEUD3sIPBviGSQDV9
aECfj4TBZvutQCzTnUBNoYvBv53/QJnVkkCai4/B4rILQRghQkCagIvBjq0BQe9AIEBxd53B1/FR
QKWMIEBdU6jBWgr3P4D9dkA8GprBxRMxQP0hhkAERI7BH0XPQE7jJ7/g4bTBZLnBQDKpz7/Cbq3B
+DLKQGLlNj9xorLBHYCcQLDYekA7rbbBWKDmQEqdfkBPaLDBGnunQLP0l0BvP7/BmIDxQJoYmkBw
BLnB9zGqQALiGT4zb6HBjR22QOdlWMBPyZnBjjtxQHpM/b8TSJbBNCaCQCsMgMDoR43BwsCuQJ/O
m78+taPBeAufQD77DMDH7JvBMLW7QAANY0BkC6/BGHm3QEw9kD+71KjBsrrRQHi2pkAAXcDBxIDF
QIO4PUA71ZvB2yt8QIvqVkBw9JnBcpvaQDS/fEDwS4fB8JWrQBoTaUBBqYnBWOj2QPseOEDzqIzB
DoevQCXxJUAjCabB0dXVQBb77UB94MbBBnOnQNdFiMBpcpLBjFVVQFKROMC/Fo/BpFCmQFoQY0Cp
ZJXBbiDsQDJSLUAOMpjBjOmBQOEbMUDZRaPBDZ4vQPyPbUDeIJXBY5/bQJ+xwEDq2cjBvuT3QAxc
/UABU8HBUSaxQKSx9kDLX8HBorjTQFj3AEFnfdDBx5fdQOFUd7/cV7zBSNbFQLIQK8AnJ6/BUZPU
QJn9uT8qYbjBCxt4QFXsY0AS4bXB/ff+QDtjakDa0arBkXePQP0hoUC0BcXBbQkJQbH2pECW/7nB
jFGcQD/k6T466ZnB7YvTQNhYZcAuBJ7BwahMQA1Mir/3uZfBqlxtQCX2lsCve4fBgtHiQDAenkBN
f4rBd/bfQPADfED6Mn3B84miQNwBLEB96YXBzzqXQCZQjkD+fobBF1IMQXVxS0Do9ovBMRnyQE5k
9T8siIjBKVwBQZ0yGUCXRZ3BYtBSQL94HkAh3KfBRTDwP+spYUD/ypjBX+QvQAMnhUAK+43B0ObK
QDMXMr9yMbXByBjAQDkC1L8zdK3BKJHGQGx6LD/357LBOTCjQFemYEAa8rjB4uXdQC/UjkCCiK7B
rEGuQF6kikDnpMHBuV3oQESfqUDMK7fBH56rQMAUAD79IqHBU+CYQFxbY8DRu53BNtWrQIq5+r9B
/I/BxUiVQD3Jg8D1novB8vuwQIU4oL8STKPBEhanQESLEMCy9prBwzq7QK83Y0DSVK/Bx/m1QJYe
jT+f5ajB5JrQQLCmp0BCusDBfOjGQN0yOkBx75vBJoZ/QBpGVkBxZ5nBGPLhQCeYhUAG7ojBAZGy
QOwpcECerInBHIT+QKeARUA4Go7BdHKvQELwJUBLHabBJPjEQLkj6kBGrsnBpBuQQNKzjsCwCpbB
z/eiQNAUOcAvgIjBOO+oQPq8XkA3GZXBwbzuQJCiLEDw8JjBFFSCQIkYNkCGIKPBga4zQL7DbED9
UpTBpozbQCqWwUA+NsnBnPHLQF3WAEFHrMDBPCiaQKnt40D1/MrBIALUQOkuAEFXONLBz5PWQGBQ
gb8G7bzBC1jDQG9FLcCMRK/Bye3PQLn/sz/azrjBKSaIQMzqNUBkmLnBFlbwQBx2kECtPKfBX26c
QLifiEBsB8nByVwBQSzNv0BderbBYGyfQIYq3z64cZnB+/6UQNVhdMAUDabBw5u2QENrer/okI3B
zjWOQIJXm8AXjYXBl4TmQFcXpEBJLI3B0ObqQBGHiUD0eYDBgyStQOQZNkDh4oTBZ+2dQLUAkkAv
tIbBm6gPQeVbXkCT1o7Bf5H+QHmRDEAp7YjBGH8BQQHkEECJEp7BqmJSQPoyKkBz2afBdXD3P3XX
ZEDHE5jBxRA1QLBvgkBc6ozBCEXyQPA/8L6uz63BrLfcQOGyub/I46fBmgLmQFu5YD9dBK3Bb3fn
QOgde0CJd7LBs36aQFoxhEAd3rTBUVfuQMbYlECR7bvBDVqhQMr2nED7/73B9EOvQOOfiz6bD6DB
TNC3QJ9VU8ChipfByq9vQO7j+L8bK5jBCWpwQD6KgMBQj4/BO9S6QGb1ir+WBKHBqWajQD9bB8Bg
3ZrBy2G9QE5HZ0CV/K7BodPDQOg4oz9UM6bBvGfLQMMUpUB3w8HBSnrJQOJBWUDMUJvBFOuAQMeh
U0CPn5jBsifcQPagiECvSobBwxeuQNsAj0D9Y4rBzCT8QEKBkUDkeo/BUWO1QH4vMEAa8KTBs7Cw
QK9x0UDmW9DBX/6hQHNqh8DN7pHBoeNFQDRmOcA/lZLBanSoQGStZ0BYB5TBbgTxQC0+cUC0R5nB
LSCHQD17MUBEGqLBixUyQKZwX0BB75PBXkLUQNOzvEBR7crB/FacQEh57UDxtsnBDKyUQEMOtECo
W9TB1K3AQCf150CvttjBaDIGQSAKQL+IALPBmgvmQM0rH8DblajBHMf2QMnYzz9dprHBLkYBQbEk
ZkB+yK3BAWV0QDI5e0AtRbLBiUgHQVJQmkADvL7BNU2GQC8eqkA4QcLB7z+WQNbIDT9HiprB/g7Z
QDbyXcCPfpnBimFOQHMchr+RlprB/EZOQBWjmMAsEovBdFbiQF3hnkAXTX/BIR/gQJkIT0C2eYPB
AxuXQJpmhUBxLITBuu2oQOfPsEDqeIzBm4P7QOTZs0BnZpHBxT0OQT1tiEAj2YzBfBsEQYq0YUDp
b57B3ohfQPo2G0Apz6bBvTz6P4luTUAE0pfB+KUtQHXyeUCVrIzB

>  <OMEGA_E>  (2) 
XAPXPhCr1z4UYtg+EMjZPkCj2z5w2ts+INbhPjjj1j6Uai8/yJwpPw==

>  <OMEGA_NBR>  (2) 
      9288

$$$$
50156605
     RDKit          3D

 54 58  0  0  1  0  0  0  0  0999 V2000
    6.4592   -0.6466  -22.6195 C   0  0  0  0  0  0  0  0  0  0  0  0
    6.0233   -1.6083  -21.6892 C   0  0  0  0  0  0  0  0  0  0  0  0
    6.3171    0.7254  -22.3381 C   0  0  0  0  0  0  0  0  0  0  0  0
    4.9026    3.9459  -22.8501 C   0  0  0  0  0  0  0  0  0  0  0  0
    7.2208    3.9857  -22.0708 C   0  0  0  0  0  0  0  0  0  0  0  0
    5.2501    4.7739  -23.9214 C   0  0  0  0  0  0  0  0  0  0  0  0
    7.5654    4.8208  -23.1476 C   0  0  0  0  0  0  0  0  0  0  0  0
    5.3058    0.1720  -20.1903 C   0  0  0  0  0  0  0  0  0  0  0  0
    5.6739   -3.3505  -19.2213 C   0  0  0  0  0  0  0  0  0  0  0  0
    3.7485   -1.9523  -18.7852 C   0  0  0  0  0  0  0  0  0  0  0  0
    4.0644   -3.9615  -17.6402 C   0  0  0  0  0  0  0  0  0  0  0  0
    5.4348   -1.1969  -20.4739 C   0  0  0  0  0  0  0  0  0  0  0  0
    4.9463   -2.1779  -19.4954 C   0  0  0  0  0  0  0  0  0  0  0  0
    5.8767    3.5644  -21.8987 C   0  0  0  0  0  0  0  0  0  0  0  0
    5.7336    1.1443  -21.1141 C   0  0  0  0  0  0  0  0  0  0  0  0
    6.5740    5.2232  -24.0644 C   0  0  0  0  0  0  0  0  0  0  0  0
    6.1738    2.9934  -19.4942 C   0  0  0  0  0  0  0  0  0  0  0  0
    3.9387    3.3120  -19.2318 C   0  0  0  0  0  0  0  0  0  0  0  0
    6.8639    4.1215  -17.0030 C   0  0  0  0  0  0  0  0  0  0  0  0
    5.3877    3.8086  -17.2546 C   0  0  0  0  0  0  0  0  0  0  0  0
    7.7199    2.9841  -17.5972 C   0  0  0  0  0  0  0  0  0  0  0  0
    5.4912    2.6131  -20.7702 C   0  0  1  0  0  0  0  0  0  0  0  0
    6.7254    7.4469  -24.8861 C   0  0  0  0  0  0  0  0  0  0  0  0
    5.2268   -4.2197  -18.2910 N   0  0  0  0  0  0  0  0  0  0  0  0
    3.3224   -2.8508  -17.8745 N   0  0  0  0  0  0  0  0  0  0  0  0
    5.1970    3.5982  -18.7069 N   0  0  0  0  0  0  0  0  0  0  0  0
    7.3736    2.7298  -19.0245 N   0  0  0  0  0  0  0  0  0  0  0  0
    4.0643    2.7888  -20.4278 N   0  0  0  0  0  0  0  0  0  0  0  0
    2.7416    3.5358  -18.5707 N   0  0  0  0  0  0  0  0  0  0  0  0
    6.8884    6.0289  -25.1290 O   0  0  0  0  0  0  0  0  0  0  0  0
    5.5832    7.7348  -24.1978 F   0  0  0  0  0  0  0  0  0  0  0  0
    6.6654    8.0679  -26.0894 F   0  0  0  0  0  0  0  0  0  0  0  0
    7.7966    7.9161  -24.1949 F   0  0  0  0  0  0  0  0  0  0  0  0
    6.9040   -0.9619  -23.5518 H   0  0  0  0  0  0  0  0  0  0  0  0
    6.1389   -2.6602  -21.9049 H   0  0  0  0  0  0  0  0  0  0  0  0
    6.6527    1.4603  -23.0547 H   0  0  0  0  0  0  0  0  0  0  0  0
    3.8858    3.5962  -22.7485 H   0  0  0  0  0  0  0  0  0  0  0  0
    7.9801    3.6642  -21.3733 H   0  0  0  0  0  0  0  0  0  0  0  0
    4.5000    5.0688  -24.6403 H   0  0  0  0  0  0  0  0  0  0  0  0
    8.5856    5.1525  -23.2718 H   0  0  0  0  0  0  0  0  0  0  0  0
    4.8726    0.4832  -19.2512 H   0  0  0  0  0  0  0  0  0  0  0  0
    6.5901   -3.5549  -19.7555 H   0  0  0  0  0  0  0  0  0  0  0  0
    3.1717   -1.0583  -18.9712 H   0  0  0  0  0  0  0  0  0  0  0  0
    3.7154   -4.6706  -16.9042 H   0  0  0  0  0  0  0  0  0  0  0  0
    7.1277    5.0740  -17.4859 H   0  0  0  0  0  0  0  0  0  0  0  0
    7.0471    4.1959  -15.9209 H   0  0  0  0  0  0  0  0  0  0  0  0
    5.1020    2.8986  -16.7065 H   0  0  0  0  0  0  0  0  0  0  0  0
    4.7663    4.6508  -16.9163 H   0  0  0  0  0  0  0  0  0  0  0  0
    8.7818    3.2636  -17.5312 H   0  0  0  0  0  0  0  0  0  0  0  0
    7.5459    2.0654  -17.0178 H   0  0  0  0  0  0  0  0  0  0  0  0
    8.0674    2.3512  -19.6371 H   0  0  0  0  0  0  0  0  0  0  0  0
    3.3008    2.5429  -21.0249 H   0  0  0  0  0  0  0  0  0  0  0  0
    1.8758    3.2917  -19.0076 H   0  0  0  0  0  0  0  0  0  0  0  0
    2.7434    3.9414  -17.6566 H   0  0  0  0  0  0  0  0  0  0  0  0
  1  2  2  0
  1  3  1  0
  2 12  1  0
  3 15  2  0
  4  6  2  0
  4 14  1  0
  5  7  1  0
  5 14  2  0
  6 16  1  0
  7 16  2  0
  8 12  2  0
  8 15  1  0
  9 13  2  0
  9 24  1  0
 10 13  1  0
 10 25  2  0
 11 24  2  0
 11 25  1  0
 12 13  1  0
 22 14  1  6
 15 22  1  0
 16 30  1  0
 17 22  1  0
 17 26  1  0
 17 27  2  0
 18 26  1  0
 18 28  2  0
 18 29  1  0
 19 20  1  0
 19 21  1  0
 20 26  1  0
 21 27  1  0
 22 28  1  0
 23 30  1  0
 23 31  1  0
 23 32  1  0
 23 33  1  0
  1 34  1  0
  2 35  1  0
  3 36  1  0
  4 37  1  0
  5 38  1  0
  6 39  1  0
  7 40  1  0
  8 41  1  0
  9 42  1  0
 10 43  1  0
 11 44  1  0
 19 45  1  0
 19 46  1  0
 20 47  1  0
 20 48  1  0
 21 49  1  0
 21 50  1  0
 27 51  1  0
 28 52  1  0
 29 53  1  0
 29 54  1  0
M  CHG  2  27   1  28   1
M  END
>  <OMEGA_C>  (3) 
+7HOQBKJJb/J9LTB6b7AQPvdzb+Pg63BtyXKQCizOT9atLLB5eGcQPeJfEDozLbBdBDnQLkVf0D6
kLDBogCoQKvDmEDvXr/BghfyQMxDmkBiLrnBtsipQBIcMD7HhaHBqJC1QN5uVsBSxZnB+uZvQLvk
+b8NSJbBsg+CQJ2IfcAKH43Br+mtQLQzmb9/yqPB9EeeQMNiC8CE9pvB0g28QOweZECQMK/BbHm3
QEl5kj+W6ajBmF7SQIIkp0Dig8DBDJDFQCSTP0Aj9JvBRxR8QJH4U0DJ2pnBNqXbQKfjg0AqBojB
OWisQHe/c0BvCYrB0gn3QAv7PkASx4zBzrevQFc8J0BqKabBrjbXQNFM7kDOFsfB7UGnQNgHh8AR
VJLBC6JUQDd0NsAA/47B3U2mQEZIZkC0p5XBkPTrQAW1LkAoMpjBHA+CQHl7MkAPbKPBqnUvQONK
YkDDkJTBxG3cQHvswEBCCMnBZqmyQJWD90AOlcHBCkvVQAcWAUEut9DBEn75QNtQ/UAmj8HBRO3c
QEFBdr8karzB93HEQH9BKsBGPa/Bs+LUQLDsuj8dcLjBh7F4QHwnZkD6/LXBx1z/QOKCakCC/KrB
+/+PQFMzokBBH8XBxl4JQUXhpECkLLrBVeybQDZi9z53AprB3OHSQK6DY8ArC57BQv1KQMJ3h7/4
xJfBSsltQL91lcC5O4fBABbkQIxeokAX44vBKILhQPlEhkAhvH7BnEOjQF2DOUDtpoXBS4WYQB/T
lEB/VIfBLYIMQTTfUEDNP4zBPnjxQCYvBEBwJIjBGRQBQZt6FkDXGJ3B2kBTQMe+IkAFM6jBfRvw
PxOrUkCoD5jBipMvQFdAfEDMQI3BcajNQID9KL/SFbXB0hDAQFPtz7+1nq3BcALJQGIkNj+D0rLB
pJOcQKuJfUD5rbbB2u7mQLHIfUApmbDBjbynQKpumUBIOb/BGALyQPS+mUArMLnBeiGpQDqsGz7P
l6HBejlvQK1H/7/SZ5bB9jK2QKPWVsCKtJnBMOCCQBn/fsCoDo3BTnGtQNq1m7983aPBkjqeQLnc
DMD/AZzBkNC7QNusY0CvJq/BxpG2QNJPkD+P/6jBKz/SQC87p0BwcsDBSHzFQAtgPECW7JvBb8J7
QCXaU0AhzpnBEiDbQJwjgUA40IfB+6ysQNOsZkDjlonBGSD5QG1wQEBBLY3Bx0ivQIsnJkD0KabB
Gd7ZQBCA7kCmusbB7cpUQPgpOcBNEo/BkkuoQMU/h8AON5LBbiymQFEdXkAvP5XBBsjsQGuXL0Av
hJjBiKaBQLcwMkC6X6PBeJ4vQANGakDZ3ZTBG1/cQGkfwUCd8sjBsB78QJjJ+kAXx8DBVxu1QOom
+UDDfMHBr6LaQKXLAUFnNNDBSbLbQHAneb+EkrzBT+LDQFc+K8DfWq/Bp37TQJlXuT+IkrjBCdd3
QPX5Z0D70rXBmEv/QEdXaEBeFqvBDaOPQM9to0DM48TBImAJQXABpEBUOLrBwFObQEsE7D5MEZrB
TC5JQFSwjr/u/ZfBerfTQNMTY8A57p3BE0ZwQMQXlsCeGIfBo1HgQOvloEAMYYvBjOHhQA+IgkAx
Xn7B07umQHP1KEDqn4XB6seWQDehi0CLVYbBtwUNQchTWUCh/4zBv5v3QOEFBEDirIjBz3EBQRYZ
GkBpo53BMyxSQJnKIkBEIKjB3+zvP80TYUAupZjBc1AwQL7TgUDphY3B8JvOQO7PJ79pIrXB8gbB
QKk10L/Ata3B16PJQAItNz8R2bLBsALnQHCEfkDphLDB6IacQCBXfkDec7bBbsTxQH5zmkDHEbnB
yGanQEIBmkDv+77B1mipQNqMDz4btqHBHC+2QI5PV8BMyZnBfDtwQHNW/b+beJbBqOeCQAWmfcDs
B43BdvmtQGC/nL/n/aPBJIOeQOgVDcD1IZzBsPG7QHwyZED2+a7BmN+2QMOnjz8EC6nBFtHRQDEB
qEAZQcDBIAHFQGoOOUBdnZvB7QB7QEnWTkDUrJnBp7TXQFg7WUBZzYXBpyisQCy6dUA5HorBQOX5
QMH8Z0BJgY7BrnevQOR4JUCSEabBTCLXQNDK7kADG8fBeCCoQC0fh8CqOpLBM6BVQOhPN8CHDI/B
mkukQIwtSEAJS5TB0WbtQDCVPkCsxZjBEp+BQHYnMEDhYaPBy7MwQMJCcEA1TJXBhOPbQBFHwUBX
38jBk1iyQGq7+EAPycHBThrWQH8NAUEz0NDByD35QNy1/UAofsHB5+LcQCeKdr+xm7zBai/FQF1L
K8Buc6/B+B7UQPRvuj+rj7jB4pv/QJuoaEChGavB0s53QE2raECZj7XB2zcJQdjopEBmH7rBUyOP
QG38o0Cnm8TBlFObQHYJ4z4VNJrBsJTTQFhXZMD9Bp7B4q1KQGU0jL/WFpjBfwhwQO0vlcBGCIfB
jcbfQMjLfkDERn3BoIHWQFTfFEBiuIPBYu6SQMq7ZUDZUITBalisQJGcnUDmhYvBwqb9QHOYlkDL
0Y/B6z0MQd/HTEAJyYvBwgYCQYeqJkBHkZ3BX5lSQBn/IUBORajBMB32P61ockD4ppnBjrkwQP8d
g0CzyI3BUGvNQE77KL/CDLXBfOW/QHHhzr8wg63B2unIQJ6nNj9W3LLBGNWcQDCnfEApBrfB1+fm
QGBWfkARvLDBpjGoQHAdmUC/h7/BlyjyQFMsmkC+RLnB922pQMQfMT58jKHBjly1QIDMVsC7w5nB
xNRwQJSK+L/l+pXBRluCQM6dfcC8+YzBNI2tQGRemb93v6PBrEqeQBE7C8Cq1JvBP9C7QNDNY0D/
Yq/BFbG2QOnqkT9LCqnBI5rSQOGop0AmkcDB5X3FQAoDP0CzKpzBnvp7QNz8UkDL3pnByM7bQB2+
gEA56IfBpMKsQOzca0D78YnB9g/4QBh5PEA1Mo3B4juvQOIrJ0CSVqbBEV3UQDz27kBgM8fBTTSn
QFREh8C8UJLBRtZVQFrhNcDisI7BYmKmQAKGY0DHoJXB+0fsQGrQLkA5n5jBsLCBQFxFM0AJi6PB
W7MvQBgnYUCPf5TBaC3dQFX6wUBP9MjB8bDXQEOdAUG8v9DBvqbxQK2b/0AhUsDBJECsQKnn9UAk
R8PB+ErbQOMne7/siLzB6ozDQL7WKsBsMq/BHFjTQCDTuD+CqrjBu494QDgxZkDRSbbB8SD/QMbx
aEC3LqvBdVuQQOCmokBsUMXBLHMJQRaNpEAnOrrBF+mbQDX2+j5TA5rB92XSQOAvZMAYJJ7BEmNM
QBQehb+WV5fBd3JuQJuclcAwHIfBLkPjQPk7oEBxXovBp/DhQApqgUCUfH7BbpWkQEU1L0Am+YXB
iUeYQJinj0DKzYbBZNsMQW/WUEC4xIzB0hH0QJ2+/z+F1IjBHDEBQSTSGEBNtp3BGThSQB88JUD/
WqjBRAPwP4XYUkCtApjB+lkwQGeueUAOHI3BTqTNQHqTKb/UNLXBcDbAQBJp0L91uK3BfgjJQJTZ
NT9u8bLB0CznQESFfUB5tLDBmZmcQKYKf0BsjbbBLhHyQFQLmkCJObnBzZynQD5zmkBpD7/B1nOp
QOKqFj5dtKHBvqK1QJG6V8DL3ZnBDHBxQNoE+r+yIZbBFACDQKQwfcB/6YzBaLetQA4bnL+E86PB
QXqeQBx4DMBkBJzBcAG8QO4kZEAkHa/BJL62QLjijz8sGqnBziDSQE8+qEDeU8DBzB7FQFuNOUBl
vpvBqwV7QGzrTUDdspnBvvzXQB3eWEBa6YXBVGysQDKUdUCzMorB1yr6QKyeZ0DRno7BNnavQDK4
JUBVLabBE6jVQCNl70CHHcfBpqinQLNch8CLTpLBz/VWQBS2NcCNtY7B5IKkQFRWSEATZJTBkort
QHa4PkAo6ZjB36WBQMeKMECQeKPBx1QwQDhHbUA7MZXBtlrcQHIGwkBl2MjBuoX3QHDu/0Bgs8HB
HPSwQNQb+EDpn8HBJgTTQKEuAUGH2NDBDIfbQDm6eb8ctrzB/A/EQFV7K8ALdK/BIG3TQPU9uT9f
s7jBhsX/QIjIZkCXV6vBG893QAfVaUA2p7XBo2wJQUwUpEDuULrBHWOPQIiqpEACq8TBfrybQPGD
6T5MK5rBRZXSQEWAZcDbQp7B58FMQHUph79DlJfBRDVwQMAKlcAc74bBQCLgQGFJfkB4e33B5LzW
QK16FECv2IPBozeTQPFxZUBcZYTBq6CsQOyOnUD5kYvBkhP+QBdrlkBD5Y/BSloMQckHTEAA7YvB
ZRACQR/eJkDgup3BhqFSQKpSI0CdZajBz8X0P2rSbkAhfpnBG10wQEMvgUCio43B6LfOQM+xJ79B
ELXBFgbBQCYV0L+gpq3B7MfJQJs/Nz/MxrLBiuXmQNdMfkCTfrDBgGycQMcWfkCQcLbBOrLxQJw4
mkBWELnBnFmnQBG8mUBy/77BooCpQOCXED7do6HBzQBxQCYA/b/sS5bBQgG2QI0NWMBB4ZnBSgOD
QAaSfsDREI3BgAOuQNqknL/x7KPBxp6eQGglDcBqEZzB6dO7QH0UZEBT867BQPi2QHq5jz8a+qjB
5sbRQMWxp0AZRcDBqdbEQL9yOUA+kpvBWb56QJ/RT0BtuZnBFRjXQBt0WEAytoXBQtGrQG0HdkDn
FYrB4J75QJPxZkChV47B52WvQDt8JUBjB6bBTgTYQHvD7kAs0sbBgmNWQAqWN8Ba7Y7Bc/WnQO6z
h8AyX5LBDgmkQKvqSEC9SpTB/zLtQMSBPkD8rZjBbYOBQHbeL0CzXaPBILkwQEvLckBRd5XB3Mrb
QOpQwUCv1MjB7L75QM5U/EBv28DBANWyQI7o+ED6tMHBMJTYQCSUAUFeZNDBCg/dQOJ+dr9nh7zB
xQ/FQN48K8DCZ6/BfFHUQLB0uj8JfLjBbHj/QM6NaECzD6vBIpF3QKaMaECzibXB1C8JQSinpEAA
HrrBAx6PQGWho0Cwo8TBLHebQNS+4z60IJrBhOVLQDvWir+zyZfB5y7TQDhDZcCnNJ7B8z5wQEzR
lcBkG4fBqCPfQEyCfUBxAn3B/33VQNIFFEAfr4PBlFeSQDRnZkDlVYTBy2isQEDHnUBrdYvBytL9
QHkRlkAulI/BifsLQU7WSkBXmIvBr/EBQTzhJkB4fJ3BB3JSQJG2IECYN6jBNqP2P8AsdUBi3ZnB
4bMwQB3UhEB0/o3BjGfMQG45Lr/lR7XBoiS/QNbG0r87yK3B8g7IQAoTMT+q+rLB0AnnQE6sfECG
lbDBnpCcQBL3fUBfhbbBUPzxQD/MmUBxE7nBYJqnQFMgmkDm+b7BVRKpQCiZAj7gqqHBSVVxQABr
/r+NCpbB/861QAb1WMDp6pnBMtyDQIA1f8Cv1ozBThutQDSmnr+/9KPBqkueQHoADsC3AJzBEuC7
QDINY0CsDq/B1jq2QKpsjT/0FanB1hHSQDElqEAJLcDBFazEQG8COEDTsJvBqqx6QCzCUEBt6JnB
zKzWQEiTVUAxxIXBVhmsQIo5dkClP4rB9NL5QBbrYEAlU47BIyivQJyBJEBqJqbBkAjUQGGX70D4
4MbB3NlXQFw0OMCEmI7BhlqoQPQXiMACVJLBzPajQCCJSUBVd5TB6P3sQHyqOUAVtZjBVlSBQLjQ
L0AygKPB+OowQACrdEC3s5XBWjbcQDxpwkCBnMjBmDKwQPdM90Az8sDBlMDOQLwYAUFNltDBllj2
QEq7AEHI7sHBcfXZQFc5fr9A07zBS8XCQIGoLMBxjK/BCU7SQGfptj/dv7jBkZL/QHrpZUB7NKvB
pM53QKJmaEB9rbXBNGMJQTTYo0BPJbrBKW+PQCJYpEBWmcTBQ6mbQOYx3z6mGJrBfg9MQMEwjL89
cpfBQJ7SQJpLZsCkY57BUeFyQMIUlsCK0IbBjyzfQFFZekCOI33Bg6/TQCBsEUD3sIPBviGSQDV9
aECfj4TBZvutQCzTnUBNoYvBv53/QJnVkkCai4/B4rILQRghQkCagIvBjq0BQe9AIEBxd53B1/FR
QKWMIEBdU6jBWgr3P4D9dkA8GprBxRMxQP0hhkAERI7BH0XPQE7jJ7/g4bTBZLnBQDKpz7/Cbq3B
+DLKQGLlNj9xorLBHYCcQLDYekA7rbbBWKDmQEqdfkBPaLDBGnunQLP0l0BvP7/BmIDxQJoYmkBw
BLnB9zGqQALiGT4zb6HBjR22QOdlWMBPyZnBjjtxQHpM/b8TSJbBNCaCQCsMgMDoR43BwsCuQJ/O
m78+taPBeAufQD77DMDH7JvBMLW7QAANY0BkC6/BGHm3QEw9kD+71KjBsrrRQHi2pkAAXcDBxIDF
QIO4PUA71ZvB2yt8QIvqVkBw9JnBcpvaQDS/fEDwS4fB8JWrQBoTaUBBqYnBWOj2QPseOEDzqIzB
DoevQCXxJUAjCabB0dXVQBb77UB94MbBBnOnQNdFiMBpcpLBjFVVQFKROMC/Fo/BpFCmQFoQY0Cp
ZJXBbiDsQDJSLUAOMpjBjOmBQOEbMUDZRaPBDZ4vQPyPbUDeIJXBY5/bQJ+xwEDq2cjBvuT3QAxc
/UABU8HBUSaxQKSx9kDLX8HBorjTQFj3AEFnfdDBx5fdQOFUd7/cV7zBSNbFQLIQK8AnJ6/BUZPU
QJn9uT8qYbjBCxt4QFXsY0AS4bXB/ff+QDtjakDa0arBkXePQP0hoUC0BcXBbQkJQbH2pECW/7nB
jFGcQD/k6T466ZnB7YvTQNhYZcAuBJ7BwahMQA1Mir/3uZfBqlxtQCX2lsCve4fBgtHiQDAenkBN
f4rBd/bfQPADfED6Mn3B84miQNwBLEB96YXBzzqXQCZQjkD+fobBF1IMQXVxS0Do9ovBMRnyQE5k
9T8siIjBKVwBQZ0yGUCXRZ3BYtBSQL94HkAh3KfBRTDwP+spYUD/ypjBX+QvQAMnhUAK+43B0ObK
QDMXMr9yMbXByBjAQDkC1L8zdK3BKJHGQGx6LD/357LBOTCjQFemYEAa8rjB4uXdQC/UjkCCiK7B
rEGuQF6kikDnpMHBuV3oQESfqUDMK7fBH56rQMAUAD79IqHBU+CYQFxbY8DRu53BNtWrQIq5+r9B
/I/BxUiVQD3Jg8D1novB8vuwQIU4oL8STKPBEhanQESLEMCy9prBwzq7QK83Y0DSVK/Bx/m1QJYe
jT+f5ajB5JrQQLCmp0BCusDBfOjGQN0yOkBx75vBJoZ/QBpGVkBxZ5nBGPLhQCeYhUAG7ojBAZGy
QOwpcECerInBHIT+QKeARUA4Go7BdHKvQELwJUBLHabBJPjEQLkj6kBGrsnBpBuQQNKzjsCwCpbB
z/eiQNAUOcAvgIjBOO+oQPq8XkA3GZXBwbzuQJCiLEDw8JjBFFSCQIkYNkCGIKPBga4zQL7DbED9
UpTBpozbQCqWwUA+NsnBnPHLQF3WAEFHrMDBPCiaQKnt40D1/MrBIALUQOkuAEFXONLBz5PWQGBQ
gb8G7bzBC1jDQG9FLcCMRK/Bye3PQLn/sz/azrjBKSaIQMzqNUBkmLnBFlbwQBx2kECtPKfBX26c
QLifiEBsB8nByVwBQSzNv0BderbBYGyfQIYq3z64cZnB+/6UQNVhdMAUDabBw5u2QENrer/okI3B
zjWOQIJXm8AXjYXBl4TmQFcXpEBJLI3B0ObqQBGHiUD0eYDBgyStQOQZNkDh4oTBZ+2dQLUAkkAv
tIbBm6gPQeVbXkCT1o7Bf5H+QHmRDEAp7YjBGH8BQQHkEECJEp7BqmJSQPoyKkBz2afBdXD3P3XX
ZEDHE5jBxRA1QLBvgkBc6ozBCEXyQPA/8L6uz63BrLfcQOGyub/I46fBmgLmQFu5YD9dBK3Bb3fn
QOgde0CJd7LBs36aQFoxhEAd3rTBUVfuQMbYlECR7bvBDVqhQMr2nED7/73B9EOvQOOfiz6bD6DB
TNC3QJ9VU8ChipfByq9vQO7j+L8bK5jBCWpwQD6KgMBQj4/BO9S6QGb1ir+WBKHBqWajQD9bB8Bg
3ZrBy2G9QE5HZ0CV/K7BodPDQOg4oz9UM6bBvGfLQMMUpUB3w8HBSnrJQOJBWUDMUJvBFOuAQMeh
U0CPn5jBsifcQPagiECvSobBwxeuQNsAj0D9Y4rBzCT8QEKBkUDkeo/BUWO1QH4vMEAa8KTBs7Cw
QK9x0UDmW9DBX/6hQHNqh8DN7pHBoeNFQDRmOcA/lZLBanSoQGStZ0BYB5TBbgTxQC0+cUC0R5nB
LSCHQD17MUBEGqLBixUyQKZwX0BB75PBXkLUQNOzvEBR7crB/FacQEh57UDxtsnBDKyUQEMOtECo
W9TB1K3AQCf150CvttjBaDIGQSAKQL+IALPBmgvmQM0rH8DblajBHMf2QMnYzz9dprHBLkYBQbEk
ZkB+yK3BAWV0QDI5e0AtRbLBiUgHQVJQmkADvL7BNU2GQC8eqkA4QcLB7z+WQNbIDT9HiprB/g7Z
QDbyXcCPfpnBimFOQHMchr+RlprB/EZOQBWjmMAsEovBdFbiQF3hnkAXTX/BIR/gQJkIT0C2eYPB
AxuXQJpmhUBxLITBuu2oQOfPsEDqeIzBm4P7QOTZs0BnZpHBxT0OQT1tiEAj2YzBfBsEQYq0YUDp
b57B3ohfQPo2G0Apz6bBvTz6P4luTUAE0pfB+KUtQHXyeUCVrIzB

>  <OMEGA_E>  (3) 
XAPXPhCr1z4UYtg+EMjZPkCj2z5w2ts+INbhPjjj1j6Uai8/yJwpPw==

>  <OMEGA_NBR>  (3) 
     26289

$$$$
50156604
     RDKit          3D

 52 56  0  0  1  0  0  0  0  0999 V2000
    6.6652   -0.5866  -22.5394 C   0  0  0  0  0  0  0  0  0  0  0  0
    5.2252   -4.2128  -18.2772 C   0  0  0  0  0  0  0  0  0  0  0  0
    6.1805   -1.5629  -21.6537 C   0  0  0  0  0  0  0  0  0  0  0  0
    5.7643   -3.2749  -19.1677 C   0  0  0  0  0  0  0  0  0  0  0  0
    6.4968    0.7781  -22.2433 C   0  0  0  0  0  0  0  0  0  0  0  0
    4.8903    3.8303  -22.8752 C   0  0  0  0  0  0  0  0  0  0  0  0
    7.1946    4.0392  -22.0779 C   0  0  0  0  0  0  0  0  0  0  0  0
    5.2046    4.6261  -23.9831 C   0  0  0  0  0  0  0  0  0  0  0  0
    7.5067    4.8337  -23.1924 C   0  0  0  0  0  0  0  0  0  0  0  0
    5.3843    0.1922  -20.1574 C   0  0  0  0  0  0  0  0  0  0  0  0
    3.9078   -4.0393  -17.8070 C   0  0  0  0  0  0  0  0  0  0  0  0
    5.5240   -1.1717  -20.4681 C   0  0  0  0  0  0  0  0  0  0  0  0
    4.9721   -2.1799  -19.5556 C   0  0  0  0  0  0  0  0  0  0  0  0
    5.8726    3.5614  -21.8946 C   0  0  0  0  0  0  0  0  0  0  0  0
    5.8435    1.1808  -21.0456 C   0  0  0  0  0  0  0  0  0  0  0  0
    6.5034    5.1448  -24.1321 C   0  0  0  0  0  0  0  0  0  0  0  0
    3.6474   -2.0696  -19.0552 C   0  0  0  0  0  0  0  0  0  0  0  0
    6.2100    3.1715  -19.4857 C   0  0  0  0  0  0  0  0  0  0  0  0
    3.9817    3.3646  -19.1738 C   0  0  0  0  0  0  0  0  0  0  0  0
    5.6181    3.5449  -17.2925 C   0  0  0  0  0  0  0  0  0  0  0  0
    7.0807    3.1899  -17.4240 C   0  0  0  0  0  0  0  0  0  0  0  0
    5.5447    2.6507  -20.7224 C   0  0  1  0  0  0  0  0  0  0  0  0
    6.6787    7.3834  -24.8946 C   0  0  0  0  0  0  0  0  0  0  0  0
    3.1462   -2.9904  -18.1993 N   0  0  0  0  0  0  0  0  0  0  0  0
    5.2319    3.7531  -18.6922 N   0  0  0  0  0  0  0  0  0  0  0  0
    7.1564    2.5997  -18.7736 N   0  0  0  0  0  0  0  0  0  0  0  0
    4.1116    2.7980  -20.3562 N   0  0  0  0  0  0  0  0  0  0  0  0
    2.7936    3.5370  -18.4819 N   0  0  0  0  0  0  0  0  0  0  0  0
    6.7718    5.9690  -25.1962 O   0  0  0  0  0  0  0  0  0  0  0  0
    2.8336   -1.0675  -19.4703 F   0  0  0  0  0  0  0  0  0  0  0  0
    7.7607    7.7821  -24.1742 F   0  0  0  0  0  0  0  0  0  0  0  0
    5.5406    7.6806  -24.2041 F   0  0  0  0  0  0  0  0  0  0  0  0
    6.6560    8.0625  -26.0671 F   0  0  0  0  0  0  0  0  0  0  0  0
    7.1676   -0.8837  -23.4481 H   0  0  0  0  0  0  0  0  0  0  0  0
    5.8127   -5.0597  -17.9547 H   0  0  0  0  0  0  0  0  0  0  0  0
    6.3100   -2.6110  -21.8800 H   0  0  0  0  0  0  0  0  0  0  0  0
    6.7683   -3.3908  -19.5485 H   0  0  0  0  0  0  0  0  0  0  0  0
    6.8661    1.5254  -22.9300 H   0  0  0  0  0  0  0  0  0  0  0  0
    3.8964    3.4214  -22.7694 H   0  0  0  0  0  0  0  0  0  0  0  0
    7.9623    3.7919  -21.3596 H   0  0  0  0  0  0  0  0  0  0  0  0
    4.4491    4.8419  -24.7241 H   0  0  0  0  0  0  0  0  0  0  0  0
    8.5116    5.2050  -23.3291 H   0  0  0  0  0  0  0  0  0  0  0  0
    4.9195    0.4837  -19.2271 H   0  0  0  0  0  0  0  0  0  0  0  0
    3.4956   -4.7606  -17.1168 H   0  0  0  0  0  0  0  0  0  0  0  0
    5.0460    2.7230  -16.8372 H   0  0  0  0  0  0  0  0  0  0  0  0
    5.4802    4.4605  -16.6987 H   0  0  0  0  0  0  0  0  0  0  0  0
    7.7139    4.0862  -17.3480 H   0  0  0  0  0  0  0  0  0  0  0  0
    7.3819    2.4620  -16.6563 H   0  0  0  0  0  0  0  0  0  0  0  0
    7.8009    1.9018  -19.0859 H   0  0  0  0  0  0  0  0  0  0  0  0
    3.3473    2.5058  -20.9311 H   0  0  0  0  0  0  0  0  0  0  0  0
    1.9331    3.2175  -18.8786 H   0  0  0  0  0  0  0  0  0  0  0  0
    2.7968    3.9810  -17.5858 H   0  0  0  0  0  0  0  0  0  0  0  0
  1  3  2  0
  1  5  1  0
  2  4  2  0
  2 11  1  0
  3 12  1  0
  4 13  1  0
  5 15  2  0
  6  8  2  0
  6 14  1  0
  7  9  1  0
  7 14  2  0
  8 16  1  0
  9 16  2  0
 10 12  2  0
 10 15  1  0
 11 24  2  0
 12 13  1  0
 13 17  2  0
 22 14  1  6
 15 22  1  0
 16 29  1  0
 17 24  1  0
 17 30  1  0
 18 22  1  0
 18 25  1  0
 18 26  2  0
 19 25  1  0
 19 27  2  0
 19 28  1  0
 20 21  1  0
 20 25  1  0
 21 26  1  0
 22 27  1  0
 23 29  1  0
 23 31  1  0
 23 32  1  0
 23 33  1  0
  1 34  1  0
  2 35  1  0
  3 36  1  0
  4 37  1  0
  5 38  1  0
  6 39  1  0
  7 40  1  0
  8 41  1  0
  9 42  1  0
 10 43  1  0
 11 44  1  0
 20 45  1  0
 20 46  1  0
 21 47  1  0
 21 48  1  0
 26 49  1  0
 27 50  1  0
 28 51  1  0
 28 52  1  0
M  CHG  2  26   1  27   1
M  END
>  <OMEGA_C>  (4) 
uknVQGMoFr+iULTBfDSnQKnPhsDHN5LBR8bFQGYOyL/cOq3BYHW4QIKYUcBhV5nByuXPQJ40Rz84
8rHBnH2cQBYkdUBkALfBajrmQGFBgUCUn7DB9oumQKkIlEBR3b/BsDbwQIKtmkD1ibnB8EusQJjX
RD5cQqHByhl6QFBCgcCqdI7BuMSwQNL5lb+mvqPBohufQFKDC8DLcZzBQuy7QFTtY0AtKK/BtP26
QEgllz9iXajBLBzQQACipEB6DsHBkG9pQIR0BMAfcZjBULjGQKD5SkDB4pvBQtR+QORVV0DbY5nB
u8ezQMDfYkD5VorBUpXiQKYnTEBrZIvBVm6xQKCkKUB4x6XB6rfVQLxE7EAtKMfBAFtJQO5iP8BD
mJHBgmunQA4ycECYiZXBkAHlQB5iJkBjMJbB4JGDQBISM0CO2aLBKMsyQLxeYkDb2pPBgrLYQLYB
v0C5kcnBWlk1QJ6jiL8qw5vBllf4QLcG+UCyZMHBs0yxQNXH9UAZosHBIv7UQDQAAUGFidDBuVzl
QHY8Yr+tlbvBogG6QAzpocAxo4/BauvJQIEaJ8BLCq/BBZbYQB8CWcA7Y5zBvrbbQJ5Bwz+mcLfB
Il55QOL3WkCnJ7bB5cr+QB+uckCC4KrBCV+OQMDwmkDbysXBVS8IQbOPpkAUorrBmWydQKmh9z4Z
0ZnBt7hfQHtWmMAm74jBLnmhQBhGLkCssobB9V2vQMO8jkDiloXBOtj2QB/CgkCcyIrBgjjsQCKR
HUAdQIXBRqH5QMBu8z/6r5jB/jlWQF9eIEDwcqfB5m/3Pz3sTUBWB5fBWf4yQO3HfkC5r4zBpJfT
QLJ3Fr+Hs7TB7LqmQKiah8A1rJLB1k/EQFtpyL+cmK3BaoO3QGCWU8D06pnBRKnOQC7HRj+vQLLB
jaWcQKoydkC3/LbBanTmQB4EgUDbmLDBEd6mQKzSlEBVx7/B6pvwQDq6mkCbcrnB0j2sQAxNPz7L
bKHBtOt6QPQPgcAxbo7BDxCwQIaWlr+1/6PBxKSeQDbRC8AappzB+ga8QHT4Y0ATLK/Bj5q6QOab
lj8djajB9onQQB8opUC87sDBxi1qQGbYAsAFK5jBYI3GQHIJSkAC9JvBHnx+QCzsVUAjbZnBVrGz
QCYoXkB0WorBnMziQEhgSkBjgIvB8kixQHJGKUDK36XBTPHUQHqa7ECYN8fBQPVKQCZ7PcD6OJHB
Zz+nQMTVbUCdfZXBsojlQA5uJkAbZZbBemeDQIzlMkCX9aLB9WwyQPjSYEAM5pPBcmHZQPJZv0BV
c8nBYLo2QBHWgb/GEpvBj7evQNah9UCQ+sHBxMnUQLnQAEFIstDBEKH2QPiA+kBVR8HBCyLjQPUp
Yr8IDLzB2zi5QBNNo8ALXZDB2A3IQFBBJ8Cdea/BRu7WQNOQXMCUVp3B2C3aQAM2wz9MxrfBOoJ5
QERiXECNK7bBEvb+QDBdcUBQ36rBI7yOQOolnECgr8XB6moIQT11pkAUhLrBAB2eQAAC9D5r45nB
OUphQJH8l8B90IjBWh6iQPuUJ0CW8obBe3OuQDySi0DlWoXB4zn2QMVlgkBsxorBnjrtQDlvG0Di
e4XBXMT6QC/m9j9jCJnBBuVVQKcjIUDUnafBj4f2P/tETUDmIpfBoq0yQKw/fECfq4zBtoTUQA+x
E78iD7XBWjCpQDzGg8AQt5HBYnTFQEo2yb9/BK7Bovy4QPCfT8DUi5nB7jvOQKGBST+fqrLBvKvm
QJjSgUBibrDBA6mcQLVAekB+k7bBeoLwQN4qnECxNrnBBrKmQKTWlkByZb/BrnCqQCDOHz6uJqLB
BQx/QClGe8Dyq43BKKqvQLhJmb/ImaTBMrmeQBkxDMASC53BAiy8QH94ZkCCza7BQ+G4QIzYlD/s
GanBYF7QQG7wpkDSpMDBbsBpQDmpA8D/rZjBJjvFQDriNkCcBpvBOqZ8QJ7YR0BxApnBxEayQCke
a0BpVIrBXILgQHk2fkBq8YzBzuiwQDVcJ0AV0qXBXK3UQOty7UDrr8fBzHxMQJXGOsBJLpHBhmWk
QOfAN0BvipPBlnnjQF29bUBrg5jBusCCQBtXMEDdDqPB/IUzQHziakDKg5TBnJPZQGLjv0D5Y8nB
0k40QHriib/XGZzBqK7VQLJsAEGIYtHB9IH1QK6I/ECGocHBNsWuQG8h90BP28LBYvDkQGE3XL/e
ULzBzsG8QOvGncCDzo7BIJLKQKprJ8DG0q/BaK3YQDowWMCf0pzB7anZQJHjxT8SHLjBUZX/QJhM
cUA75qrBZDZ5QBlqYUBor7XBzVQIQYAgqEDhQrrB5WGOQJJNnkAJP8XBZfaaQNIs3j60wJrBkPZm
QJExk8BkoIfB/46vQMqLRkBQ14LB7XmfQCs0k0DRrYnBvFroQJyioEAdHovBEhP2QI6sU0C0dYjB
iq/4QN7Qg0DIjZ3BGBZVQE73JUBSIKjBt+v+P3I3dEDWBJnBKtMyQG3VekCHxIzBqHHSQLGCFr+f
YrXBGoGpQOFlhMBI6ZHBmhHEQFx7yr9pPq7BxPK4QFuwUMDhw5nBLoPMQN21Rj+z8rLBzPfmQAcv
gUCkZbDBpAedQGyUeUBenLbBDADxQCKQm0D6K7nBqjinQPeNlkCYZb/B9nOqQDTNFj4LM6LBHj6A
QOn0e8ChpI3BYEKvQLpWmr8KsaTBd72eQN2JDMCQD53BWl+8QNWuZUBfza7BaEu4QMx4kz/aOqnB
VOXQQLvIpkDTksDBcaVqQA5cA8BWdpjBbM3EQKp6NEDgCpvBviF8QBCVSEAcG5nBQZ6yQHXibkA7
t4rB2EriQMBdckCrq4zB1rewQDSAJkDN4KXBJM/PQKZn7UCHs8fB9Q5OQNarOsBe8pDBuv6jQHDo
OEAalpPB/KjlQAgfZEDmS5jBy4qCQCZVMEA0IqPBJUkzQM4+bECBoJTBOCHaQHuHwEAuLsnBGzQ1
QHL0h78gsZvBRICoQJJm80DSNMPBXunPQMw5AEH5cdHBPgLuQPkTAEHCcMHBrQ7iQFJJX78HwLzB
+Am9QKWwnsDGJ4/B8PXIQM8TKMBXE7DBFlPYQNqnWcCmNZ3BYlfXQMtzxD9YeLjBZMn/QG6nb0Cs
26rBoux5QHe0YECTxLXBV6IIQQMxp0ASO7rBRQqPQHD8nUCRSMXBxcWbQO0w2j7cs5rBLO1oQHaj
k8C6lofBTkarQDSBUUCq7oLBszWkQJ2Fl0AHGYvBtXPvQC+SmEDfbIrBrPzyQBvMP0D4MIjBXYX8
QPhlekASJ53B0KxUQEj0JUADNKjBrWj+P7CYdUCMIJnBwckyQJiifEDd5IzB11jTQKpVEL9mR7XB
GTepQBE3hMDm+pHBN+HEQGwByL+kMa7BtB+5QIgXUMC+v5nBpUXNQGxyTD9ozLLBEc/mQNG8gUBu
T7DBHLKcQDWQekAoZbbBnbLwQD6Vm0ABM7nBfr2mQNCGlkCwSb/BfDCrQBNtIj4UFaLB2Fl/QK/I
e8AB343BNPqvQB+amL9dpKTB1RafQGHkC8B5G53B7j+8QGPTZkA2oa7Bqu24QO19lT8mFKnBx3rQ
QDpIpkCpoMDBVc1qQJ7aAsCAqpjBz+fEQCGTNUAg35rBOiR8QOnrSEA+9pjBo4KyQA37cUABsIrB
mz/iQFkcdEAuiYzB1OiwQNVQJ0DntKXBa13TQKae7ED+2cfBpUhNQABxOsAGPpHB0hCkQNB1OkBo
bJPBH9jlQIMNZUBUJJjBMKyCQCgGMEDY9aLB4gQzQLZgbEC5hpTBhX7ZQFUWv0Boa8nBaNo1QJh7
hr8p9JvBYHL0QNrM/EAfEsLBrsGtQIis9UCFzMLBLr7SQMyb/0BsmtHBrCPjQInGV7/3obzB8Zm8
QHuFnsDuKo/BZcXJQKHDJsBqEbDBfbTYQGDsWMB3FJ3BPBbYQH/Oxz/nSbjBfLT/QICRcUBewKrB
dht5QMJaYkBCb7XBZ3cIQWczp0B5U7rBjV6OQHTonUAcIcXBhpucQIw63T6Pj5rBABBnQBKok8C5
4ofBrbOqQD5aVkAa1YLB+mukQIEmmUBvUIvBO7/vQFNWmUDzUorBTXfyQIJjQUCN+YfBXt38QE2+
ekAO/pzBrgtVQEONJEBmAqjBT8j9PxcKdUAgCpnBJV8yQGhOfUDGz4zBHQ7RQMKgEr8TprXB+tap
QFt8hMBKKZLBGL7CQEI2yb9+i67BSLy4QCAIUcBUGZrB6KvLQLwxSj/pE7PBoL+cQAqJe0CfbbbB
rOvmQHUUgUCdWLDB3hunQI1Dl0ANQr/B1CPxQJsam0D8K7nB+WSqQMpnGD5kQqLBQv6AQM6ze8BP
q43B1p+uQLLkmb9n4qTBrG6eQLyWDMA2P53BxDK8QDV+ZkAssK7BSRi4QFZLlD+4QqnBZg/RQH6a
pkA/jcDB+9hqQFsPA8AccJjBl7TEQOZDNEC4+prBPdN7QGreSEDFD5nBRMKyQC52c0D284rBGpfi
QPxbckAdqozBzpiwQDq0JkDI0aXBrtbSQHA27UBCo8fBH0dPQFQ8OsAT2ZDBIfejQLzMOkAdiJPB
3GfmQASKYUBmO5jBnG2CQNfuL0CfD6PBDaAyQGD6a0CFnJTBtoLaQF7lv0BaOsnB/kA1QGinhr/m
g5vBqtzSQAE7AEG+W9HBDKzyQEk5/kB3k8HBIWusQB0T9UA22sLB3TLgQKgSWr9XFr3Bu3m9QGDg
nsDigo/B6ifHQNxfJ8DrfLDBRcXXQKBYWsC6t53BYG7WQEW4xj9wkrjBsfF4QGb4Y0Drf7XBj7X/
QDczb0DXz6rBWNeOQCIpn0CPFcXBAcYIQYdApkCCSbrBREicQEok2D6ArprBkE9rQINqk8CWiofB
3i2qQFchWkAKB4PBSaWlQI0ymkC62ovBvPnwQB0qmEDkiorB/83xQGJBP0DX9IfBBA3+QFbWdEB1
DZ3B0HVUQCW9JED5GqjBI7r8PwtPdEA3HJnBEAoyQKv+fEBU5ozBBDjQQEPwFL8Jm7TBfzxRQNwE
P8DU1o/BSRzBQJb4x78Xha3BcNdrQNPbAsAodJfB0ObLQMuBRz+DB7LBfhKcQFeMdkB03bbBUqPl
QF8ygEC4P7DBsGSnQOkQlEBpv7/BHNTwQJgemUCCJ7nBTF+pQBxwPD7fNqHBC1qEQMtEgcCDDo3B
gfqtQIgEl7+cwqPBaKeeQAogDMDbIpzBtNq6QPP8Y0D86q7BNuu3QBjJlj9WT6jB4H7RQDN/o0Cf
0cDBBvq4QLOYUcAL/ZjB2P/EQLGESkClxJvBQ0B8QHkhXUAbZZnBZt6yQIouakCRZYrBZjvhQNuT
T0CSXovB7lWvQBfFKUB3nqXBeIHUQGPS6UBJ8sfBuIWrQAZqhcCwlZHBEo2mQMRbdECKpZXBvJ3i
QJlhJUDk65XBPaWBQMSINUBsq6LBI64wQH2nbEAK75PBnLTbQI9vvEAaesnB5jLhQJV/WcC26pzB
aub0QD7i+kDpE8LB1HuuQPUs8kBIAsPBYvHTQBKF/EDUudHBHCrfQCiKX7/1CbzBw/gSQK21OcCb
JYzBIR7EQKHvJsAciK/BsaNCQPypnL9msZnBHtzXQC7Qwz/jebfBjaZ3QIl7XkC4FbbBSaP9QB6e
b0B1ZarBe8uPQBJfm0A5ysXB86YIQbxIpED3H7rBkYyaQP+u8D6iwJnBAUV0QPBomMB2K4fBJquf
QA5dOEDJcYbBNqivQAFdk0CL+oXBBo/2QGPHg0BsJovBdy/qQHnQIkDz9ITBYir2QMwM7D98LJjB
J81RQCAMIkB7HqfB08/xP68tWUC8ApfBSecxQPqqhUAl6ozBv5vPQFuXEb9MqrTBsWJRQFmfOsDn
fo/BvJLAQD6fxb+nha3BPgZsQNR3/r8RNJfBC5/LQBtXSz/hHbLBQVGcQM5AeEDGALfBB/LlQDul
gEC7arDB87KnQOf4lECy4L/BtzrxQBd4mUDpVLnBTcipQCOdWD4yMKHBH+6DQKwzf8CZ0YzBcNyt
QOrPk7/5uaPBHFCeQOYqCsA8EZzBLBq7QNtEZUCaEq/BVDW4QIaymT9/WKjBf+fRQAIXpECQ+sDB
Vhq4QBDDUMDPB5nB/e3EQFl0TUCb6pvBxjZ8QMT0WkBfV5nBO4azQPh4ckBLpYrBu8HhQFyhVkBC
novB3oSvQH1nK0BkvaXBF8vWQPxA6kDYKcjBhp2qQEWlhMCOi5HBFCumQBgxd0B045XBCa/iQMCf
KUAh/pXBsL+BQDKxNkCn0qLBMVkxQH/AYkCOepPBwVXcQMqmvEApscnBMP3fQMtEWsCHHJ3BcHSw
QNLg80BOisPBHErYQLcQ/UCG7NHBrQD3QAwQ+kB7A8LBHT/eQJKeXb9jH7zBrdcTQBfqM8Aup4vB
pFDDQOzWJcBVhK/BsH5DQNcHlL/QYJnB2WbXQEkrxT84oLfBSwx4QAByYEAkOLbBS+z9QB1ecEC1
kKrBmg+QQJuNnECU48XBCeQIQbtgpEDmUrrB3XObQJ/QAD8erpnB9nFzQCZslsB02obBEX6gQC0V
Q0C5NIbBEuewQD+YmEDEs4bBP1r3QHcch0Cdq4vBkrTqQCFnK0DqCoXBhA72QNER8z+sF5jB3ylS
QK0rJUCmbKfBqc/0Py+yS0AXZpbB1UMyQANvf0D3U4zBpp/PQDVcEb++HrXBJchSQBH0OsC+vY/B
4m3BQCzNx794+a3BtIFsQO4wAcATrZfBaGPKQIVlSz9GlbLBHIbmQH10gEDkM7DBF0ecQGBWfECz
QrbBsjbxQMGpmUBHI7nBAh+nQC3NlkDwNb/BvFSoQEAPKz5GzqHBaFCFQKOJfcBDwIzBaNGtQDIO
mL/qQKTB78yeQCqcC8AOc5zBlIy7QD3yZkD1fK7BzGK2QFoclj9e16jB0F7RQLkZpUBFl8DB3WW5
QCS8T8CqCpnBTLXDQB9oNkDnt5rBYZZ6QC/TTkAr5JjBZECyQLh4dUC1nIrBovPhQAD4dUCQjIzB
d2qvQMo1KEBuhqXBVu3XQDza6kDI+8fBCkqsQKB7g8DqW5HBLPGiQDo4PkAWS5PBLizlQN7lZEDU
HJjBDluBQEcmM0ACyaLB/wkzQPWLdkDJn5TBtlbbQKUHvUASd8nBXJjhQP7eV8Af+JzB2DqyQKQq
9kDNRsPB7ObZQPqF/UD3wtHBKAr5QGw8+UAj68HBqpPeQL3yWb9nkrzB1PIUQICKNMDH9ovBoYjF
QOS7JsDS7K/B1utCQMQAm7/qGZrBUZvVQHHKxj+BDrjB1iL/QJbhbUCEn6rBPIB3QIhiZkCMQ7XB
xuUIQQs9pECXSLrBY/uOQLzRnkBVD8XBNwmZQN3m4z5ZYprBPdp2QFEXlcDCoobBV3mqQFdTWkCa
uoLBGrWkQDshm0BgPIvBre7vQERBmkCthYrBHPHxQEeTQ0DW4YfB9Fr8QLzXeEAKCJ3BAf5RQNQt
J0CkwKfBANX+P2AxgECqMJnBGgUzQGOwhEBy+ozBYLjNQKKFD78217TBN2pSQEpbOsDia4/BvPS/
QHxkxL+Qh63BsU5tQEQL/b88DpfB6HfJQMiXTT+cWbLBKDKcQNVUeUCiJLfB5MrlQHkxgEAygbDB
BCuoQBz+lEB+D8DByp3xQOikmEDGbrnBTMepQLkyZz6eJ6HBxlOEQHNGf8B+z4zB8BiuQAc+kr/G
pKPBYeqeQOBgCcBQ75vBcrC6QOfvZUD+Ka/B9i+3QP9Ymz8mc6jBtJjSQOGso0AUHMHB+oy4QCiG
UMAm/5jBTmPEQE41TkBqD5zBT2N7QMENWkDIN5nB7eCzQL2tbECol4rBttHiQP+MV0AI9ovBMK6u
QJFlLEDe16XB4OHTQHyK6UCgmcjBJ/yqQAWwhMCSjZHByNOlQPlkdUCyu5XB+O3jQP/vLEDQfZbB
+vqAQKaFOEBm36LBHz8xQK7/X0DMLpPBELPdQDprvECGvsnBUirgQKvXWsA2Np3BuuPYQC0w/EDc
TdLBKkrvQPUO/EB8h8HBFOSqQOpU8EA6ScXBc5bbQMr+W7+aYrzBc9gUQBK+M8AzlYvBuQXDQCBI
JcDKdq/BSf5EQEjykb9XKpnBzS7UQJYZxj+oAbjBYmN3QCyrYkARXrbBG5D9QJHMbkB9oarButSQ
QHyFnEAeJsbBJy8JQR/1okBjabrB/g2cQCDsBD+mlJnBwBt0QFqXlsBK4obBkbSiQCKwOEA5f4bB
k3uvQFZelEBvIobBWXb2QBf8iEA1+YvBNf/tQN9SLEAsmoXBw4L4QNPC/z+c5pjBuk9QQAlYKUD5
jKfBvwH0P8icSUCBGJbBufoyQAGtekAG6ovB

>  <OMEGA_E>  (4) 
IG3oPvhT6T6Q7uk+QI3qPqjE6j7Y7ew+UL/uPohB8D6I8/E+kJDzPg==

>  <OMEGA_NBR>  (4) 
     39069

$$$$
50156595
     RDKit          3D

 46 49  0  0  1  0  0  0  0  0999 V2000
    4.6242   -0.7637  -22.3491 C   0  0  0  0  0  0  0  0  0  0  0  0
    4.4835    0.5659  -21.9031 C   0  0  0  0  0  0  0  0  0  0  0  0
    5.1551    3.7918  -23.0577 C   0  0  0  0  0  0  0  0  0  0  0  0
    6.8969    4.6356  -21.5740 C   0  0  0  0  0  0  0  0  0  0  0  0
    5.5077    4.7628  -24.0181 C   0  0  0  0  0  0  0  0  0  0  0  0
    7.2538    5.5909  -22.5359 C   0  0  0  0  0  0  0  0  0  0  0  0
    5.8472   -1.4415  -22.1836 C   0  0  0  0  0  0  0  0  0  0  0  0
    6.8184    0.5652  -21.2029 C   0  0  0  0  0  0  0  0  0  0  0  0
    5.8425    3.7191  -21.8198 C   0  0  0  0  0  0  0  0  0  0  0  0
    5.5715    1.2396  -21.2904 C   0  0  0  0  0  0  0  0  0  0  0  0
    6.5458    5.6808  -23.7531 C   0  0  0  0  0  0  0  0  0  0  0  0
    6.9436   -0.7755  -21.6064 C   0  0  0  0  0  0  0  0  0  0  0  0
    6.1076    2.8574  -19.4336 C   0  0  0  0  0  0  0  0  0  0  0  0
    3.8822    3.2967  -19.1356 C   0  0  0  0  0  0  0  0  0  0  0  0
    6.8853    3.8771  -16.9094 C   0  0  0  0  0  0  0  0  0  0  0  0
    5.4135    3.4521  -17.0900 C   0  0  0  0  0  0  0  0  0  0  0  0
    7.8045    2.8821  -17.6521 C   0  0  0  0  0  0  0  0  0  0  0  0
    5.4072    2.6844  -20.7630 C   0  0  1  0  0  0  0  0  0  0  0  0
    6.7486    8.0148  -24.3403 C   0  0  0  0  0  0  0  0  0  0  0  0
    5.1493    3.3278  -18.5459 N   0  0  0  0  0  0  0  0  0  0  0  0
    7.3598    2.6862  -19.0576 N   0  0  0  0  0  0  0  0  0  0  0  0
    3.9959    2.9688  -20.4051 N   0  0  0  0  0  0  0  0  0  0  0  0
    2.6829    3.5864  -18.4969 N   0  0  0  0  0  0  0  0  0  0  0  0
    6.8941    6.6127  -24.7156 O   0  0  0  0  0  0  0  0  0  0  0  0
    7.5466    8.3660  -23.2955 F   0  0  0  0  0  0  0  0  0  0  0  0
    5.4520    8.2925  -24.0316 F   0  0  0  0  0  0  0  0  0  0  0  0
    7.1114    8.7719  -25.4068 F   0  0  0  0  0  0  0  0  0  0  0  0
    8.6038   -1.6867  -21.3557 Br  0  0  0  0  0  0  0  0  0  0  0  0
    3.7909   -1.2644  -22.8196 H   0  0  0  0  0  0  0  0  0  0  0  0
    3.5400    1.0761  -22.0288 H   0  0  0  0  0  0  0  0  0  0  0  0
    4.3547    3.0976  -23.2671 H   0  0  0  0  0  0  0  0  0  0  0  0
    7.4305    4.5970  -20.6359 H   0  0  0  0  0  0  0  0  0  0  0  0
    4.9810    4.8038  -24.9601 H   0  0  0  0  0  0  0  0  0  0  0  0
    8.0769    6.2632  -22.3438 H   0  0  0  0  0  0  0  0  0  0  0  0
    5.9433   -2.4700  -22.4989 H   0  0  0  0  0  0  0  0  0  0  0  0
    7.6820    1.0895  -20.8213 H   0  0  0  0  0  0  0  0  0  0  0  0
    7.0286    4.8866  -17.3222 H   0  0  0  0  0  0  0  0  0  0  0  0
    7.1373    3.8796  -15.8387 H   0  0  0  0  0  0  0  0  0  0  0  0
    5.2402    2.4853  -16.5949 H   0  0  0  0  0  0  0  0  0  0  0  0
    4.7489    4.2121  -16.6532 H   0  0  0  0  0  0  0  0  0  0  0  0
    8.8322    3.2744  -17.6522 H   0  0  0  0  0  0  0  0  0  0  0  0
    7.7816    1.9141  -17.1301 H   0  0  0  0  0  0  0  0  0  0  0  0
    8.0355    2.4145  -19.7429 H   0  0  0  0  0  0  0  0  0  0  0  0
    3.2297    2.9180  -21.0457 H   0  0  0  0  0  0  0  0  0  0  0  0
    1.8238    3.5532  -19.0075 H   0  0  0  0  0  0  0  0  0  0  0  0
    2.6788    3.8280  -17.5265 H   0  0  0  0  0  0  0  0  0  0  0  0
  1  2  2  0
  1  7  1  0
  2 10  1  0
  3  5  2  0
  3  9  1  0
  4  6  1  0
  4  9  2  0
  5 11  1  0
  6 11  2  0
  7 12  2  0
  8 10  2  0
  8 12  1  0
 18  9  1  6
 10 18  1  0
 11 24  1  0
 12 28  1  0
 13 18  1  0
 13 20  1  0
 13 21  2  0
 14 20  1  0
 14 22  2  0
 14 23  1  0
 15 16  1  0
 15 17  1  0
 16 20  1  0
 17 21  1  0
 18 22  1  0
 19 24  1  0
 19 25  1  0
 19 26  1  0
 19 27  1  0
  1 29  1  0
  2 30  1  0
  3 31  1  0
  4 32  1  0
  5 33  1  0
  6 34  1  0
  7 35  1  0
  8 36  1  0
 15 37  1  0
 15 38  1  0
 16 39  1  0
 16 40  1  0
 17 41  1  0
 17 42  1  0
 21 43  1  0
 22 44  1  0
 23 45  1  0
 23 46  1  0
M  CHG  2  21   1  22   1
M  END
>  <OMEGA_C>  (5) 
IfmTQEiDQ78My7LBGHmPQOPfED+LOa/B3vakQCWsckAxdrjBe7PcQKxWlECjl6zBMz+wQBZpmEAc
JcDBux7oQG7oskCNSbTBfxy7QBmEuL/+d7HB+S/aQByvED+Nn6nBs/W6QNwFbkDvjq7BGkqyQLqp
nj+lUqrBBXfRQEfJtUBaBr7BBzLeQLuIRr/U2azBQnHDQGvfNkDxd5vBa3Z4QOb9UkCzFZnBe1Tc
QCUieECKRofBPTutQALwXEBruIjBer75QAt1OECDN43B+getQHTNK0C4GqbBt/TXQLo8AEEFucLB
WsekQOr6VEDuXZTBu4PrQD3qK0DtdZjBELx/QJQBPkCQPaPBCbUrQECHZUCk+ZPBI5zcQPya00CG
ucXB/X3xQPXaBUEdXbrB4HauQAeuBEGuQMDBeZDjQINZDEEXQcvB+KgJQaHm179j2KrBjp1yQCLZ
ob98jrbBj45iQOe8iT/mOrDBr1mLQEU/RkAdI7rBpcbtQFgak0A8FqXB/GOfQI+4mUAzrsfB5DoB
QcVryEAmwLLBlS++QEsUHsDT/bPBotL1QAR1iz/vkabBP+rgQNlenEDsk4rBkGTkQJ1LeEBIa33B
E7CnQMUOH0BowoTBn/aXQD/JhkDYOYXBmFANQTGQUUC5N43BxAL5QHsC9T+LConBT5EAQRKHGkCC
8Z3Bl7NOQBDAOkCgXajBL3HpP1xoY0BtD5jBG3IrQMj9dEBVNozBJTq0QG4z377UrLjByeyvQLeX
ZT/TQrXB5bOhQHc/fkCRsbfBiuzeQAu+k0D1zqzBNmOuQLMnnEDEnr/BcVnqQLl7skCthbTBqF+8
QPUAur9yNrHBYwe6QOkbQT6Hy6LByX+6QC9OckDTWa7BdluzQEIfnz93ParBskvSQCnMtkAU/L3B
O3m/QGO/kb/5R6bBa6nDQHmjOUDOn5vB46F4QMnVU0DnNJnB0KLcQBUddkCOSIfB1jatQCy1XUCq
2IjBCm35QMdQNUCrR43B4R+tQKfrLEDOJ6bBb4O/QBgf9ECgvMjBl/ykQKsAWECOhpTBPi/rQBss
KUBjkJjBTpR/QOLvOkDhPaPBqu4rQCt7Z0BmJJTBZDPfQBti1EBlj8XB2XCwQLHMBEF2CMDBnTye
QNWP4kDHM87BZ/rSQFNBCEH6WM/BdzfLQOHdIMAxIJzBR0GxQNB6Lb8nEMHBeOqpQHXs1T+/F7vB
D42EQBgRWkDKu7jBnvvxQFdOkEADp6XB5KCcQCQsnkDYA8fBiNwCQc3hxkAtLbPBRz/AQIRWHsBU
3LPBYO66QNSa0T4tV5rBKzPiQMtgm0CyeorBA3PkQEkDdUB5aH3BLL2mQPGPH0CxCoXB3YaYQHl4
h0AhRIXBKUUNQTgwTUAGRo3BaRv4QN+37j8/HYnBkB4AQUHoE0Bu+J3B2itOQP+hMkA5OKjBrH3p
P8YgY0AgKJjBUu0rQJ/4eUC7e4zBKF7dQCA5Ur4HVbbBe67VQAY+iT/7C7LBThugQDX7cUCscLfB
asnZQBAFlEAWCazBLuysQCXflECWjr/BWkXmQFQZsEBtIrTBitDEQOrApr9847LBAqecQIEwHz6D
4qbBqfq2QO9lb0AGua3BVF+0QDyfoj/KeqrBGlrQQJoysEAZ673BK8GkQNKgj7/6GqvBtpzCQKtC
NEAnbJvB3ot4QEdSV0BpIZnBN2rcQLszdkDNbIfBEjetQBP2XEC+5ojBn6j5QFI4NkAEcI3BqKyr
QFbsKUC7wKXB1he/QK6S6UCBiMnB/halQHCcWEA9g5TB3lnqQHbnJEBah5jBRgV9QDkJNkAdwqLB
CrUtQJNPc0CYUZTBiH/eQEF6y0C8uMXBlZOoQHYX+0ChQcHBJeSjQKWV1kBVktDB4Y/UQPuLBEGS
qs7BGzGEQPzzJsCBNqbBtxr2QOMOsL5fQ7zBhDfpQN8s9D/ehbTBPbaEQKXhSEBAmrjB/53qQCTb
k0BHfaTBp9GbQPCNlUASEMfBjmEAQR+1xUAe3rLBIozKQM0jEsBMNrbBxzGEQMEDkj6O3qDBfYTh
QBZ6m0BqoorBNWTkQGxcdUCKtX3BsiunQOI6HkBFNIXBt1KYQEylhkB3NIXBARUNQSMIUUCS2Y3B
pV36QMAi8z8s+YjBz9H+QNgBDUBj553Bs8dKQJ4vJ0B3WqfBsA/sP1TNbkAzOZjBH2EvQCsChkAa
8YzBHAffQGh/9b0bwbbBWtrWQI79kD9DFrLBA9+eQBLecEB3VbfB8w3ZQCe6k0AGFqzBC7qsQLdy
kkCdur/Bqa7mQPO/rUAEfLTBqqbGQJB9nr/ns7PB9XSdQJyfHD5PZafByr21QF7Sb0Btl63BDgC1
QCT+pD8ql6rBUgbRQARqrEANVb7B5UqmQNQijb/j76vBhWTCQFtoNEAxVJvBLE54QNz1V0AuC5nB
P3XcQJ5odEDNPofBNQCtQOiKXUAV0YjBeA/5QI5dM0DYQ43BekirQDLtKUBgoqXBlrDNQM078EAZ
NMbBDQKlQCRxWUD4b5TBtg7qQBBWJEAkbpjBUkd8QHE6NECEiqLBWu8tQKJOdkAyV5TBEq3eQGaD
xUDykMbBghaiQCNc70B3d8bB1mPcQGusAkEY6c7Bhv7aQKyBAkG5Nr3BCb2GQKcKKMA5ZKfBO/z3
QPmaZL5mrLzBFWvqQFHF/T9jNbTBjbiCQE+BSUAWSrjB11XpQOjDlEAfeKTB8qubQO6dkkBVPsfB
Q98AQfLSwkATbbPB0bzMQG3aDMDzT7fB8pWEQB+gfj4ccqHB+2ziQBSImkA6ZIrBDDTkQDu5ckDA
U33BABSmQA8sH0DXHoXBdKKYQBh5h0CqKIXBLv0MQeQ3TEC8hY3BpJr4QHtk7D8L6YjBO6X+QLZ7
DUD/2J3Bs+pJQDPIIkBK+KbBzFnsPz64cUCvOZjBfAgwQENliED7D43B2DveQEDsN77bSLbBF+/W
QOhBiz9/xrHBOoufQP64cUCdebfB0wjbQN2ekkD9eqzBqIqsQPG0k0Cpzr/Bv/DnQOtRrUB80bTB
BDrEQEItor+JWLPBbFKbQPgBOz5SbafBNQa3QChcb0B4063BfZe0QMTipD+tf6rBMdDQQBC4rUDL
g77Blw2jQO30ir8n3KvBnsLCQMn0NUCPXJvB4Yx4QNxvV0BfEJnBdUHcQMOIdUC6MofBW+SsQNV7
XkD514jBavX4QMFaNEAYKI3BstqrQJDjKkA7uKXBPKjcQGTo9ECHUsTBlyGlQLGbWkA/fJTB6Trq
QPInJUDQWZjBWGF9QAcQN0BMvKLBpjwtQHQGcUAcKZTBNI3cQKrLx0AL0cbBUAMAQZ3Y/0Aimb7B
k6S4QHwbAEGx0b7BRGXdQHAzBUFVuM3BYYCAQIHMI8CJoafBScf3QDnior5i/7vBeo7rQLEU9T/a
2rPBb4ODQJj/SUCoarjBvHbsQGeAkkALBaXBlcCaQMpwlEBlNsfBpM0BQaOrwUD42rPBO7HJQC9l
D8Dq07bBIvaBQCHjnz5ZpqHBC0jiQMYQm0AdW4rBcsrjQOoIdEBYNX3BHvilQOX9H0D6LYXB8mKY
QHHZh0DaMYXBtfIMQR4hTUAWXo3BOVv4QLWC7j+nyYjBu+L+QPeXDUBMtJ3BnT5LQAbQKEDEYKfB
TALrP5tWa0BVB5jB/Z4uQLKWhEAOwYzB

>  <OMEGA_E>  (5) 
GDDuPuCJ6z7YyMQ+wBTJPlikxz4=

>  <OMEGA_NBR>  (5) 
      6503

$$$$
