CACHE3HI_1687_3
  -OEChem-03092622513D

 32 34  0     0  0  0  0  0  0999 V2000
  -50.0922  -32.7848    6.7441 C   0  0  0  0  0  0  0  0  0  0  0  0
  -50.3911  -30.4406    7.2468 C   0  0  0  0  0  0  0  0  0  0  0  0
  -50.6337  -33.1194    7.9853 C   0  0  0  0  0  0  0  0  0  0  0  0
  -50.9326  -30.7751    8.4880 C   0  0  0  0  0  0  0  0  0  0  0  0
  -46.7320  -29.2966    4.2658 C   0  0  0  0  0  0  0  0  0  0  0  0
  -44.4506  -30.0785    3.2362 C   0  0  0  0  0  0  0  0  0  0  0  0
  -46.4384  -29.0994    6.6385 C   0  0  0  0  0  0  0  0  0  0  0  0
  -45.3896  -29.6908    4.2127 C   0  0  0  0  0  0  0  0  0  0  0  0
  -49.9711  -31.4453    6.3749 C   0  0  0  0  0  0  0  0  0  0  0  0
  -47.2599  -28.9947    5.5217 C   0  0  0  0  0  0  0  0  0  0  0  0
  -51.0537  -32.1147    8.8572 C   0  0  0  0  0  0  0  0  0  0  0  0
  -44.6833  -29.7530    5.4037 C   0  0  0  0  0  0  0  0  0  0  0  0
  -49.3884  -31.0856    5.0430 C   0  0  0  0  0  0  0  0  0  0  0  0
  -45.1369  -29.4751    6.6389 N   0  0  0  0  0  0  0  0  0  0  0  0
  -43.2515  -30.3630    3.7555 N   0  0  0  0  0  0  0  0  0  0  0  0
  -43.4235  -30.1568    5.0732 N   0  0  0  0  0  0  0  0  0  0  0  0
  -48.6195  -28.5866    5.6566 N   0  0  0  0  0  0  0  0  0  0  0  0
  -51.1402  -29.1515    5.2328 O   0  0  0  0  0  0  0  0  0  0  0  0
  -49.5185  -29.1546    3.3055 O   0  0  0  0  0  0  0  0  0  0  0  0
  -51.5729  -32.4368   10.0491 F   0  0  0  0  0  0  0  0  0  0  0  0
  -49.8112  -29.3909    4.7065 S   0  0  0  0  0  0  0  0  0  0  0  0
  -49.7681  -33.5738    6.0709 H   0  0  0  0  0  0  0  0  0  0  0  0
  -50.3006  -29.3942    6.9671 H   0  0  0  0  0  0  0  0  0  0  0  0
  -50.7285  -34.1620    8.2736 H   0  0  0  0  0  0  0  0  0  0  0  0
  -51.2595  -29.9931    9.1672 H   0  0  0  0  0  0  0  0  0  0  0  0
  -47.3354  -29.2292    3.3659 H   0  0  0  0  0  0  0  0  0  0  0  0
  -44.5877  -30.1661    2.1679 H   0  0  0  0  0  0  0  0  0  0  0  0
  -46.8276  -28.8687    7.6277 H   0  0  0  0  0  0  0  0  0  0  0  0
  -49.7944  -31.7042    4.2377 H   0  0  0  0  0  0  0  0  0  0  0  0
  -48.2984  -31.1726    5.0354 H   0  0  0  0  0  0  0  0  0  0  0  0
  -42.6363  -30.3096    5.6911 H   0  0  0  0  0  0  0  0  0  0  0  0
  -48.9100  -28.3870    6.6287 H   0  0  0  0  0  0  0  0  0  0  0  0
  1  3  1  0  0  0  0
  1  9  2  0  0  0  0
  2  4  2  0  0  0  0
  2  9  1  0  0  0  0
  3 11  2  0  0  0  0
  4 11  1  0  0  0  0
  5  8  2  0  0  0  0
  5 10  1  0  0  0  0
  6  8  1  0  0  0  0
  6 15  2  0  0  0  0
  7 10  2  0  0  0  0
  7 14  1  0  0  0  0
  8 12  1  0  0  0  0
  9 13  1  0  0  0  0
 10 17  1  0  0  0  0
 11 20  1  0  0  0  0
 12 14  2  0  0  0  0
 12 16  1  0  0  0  0
 13 21  1  0  0  0  0
 15 16  1  0  0  0  0
 17 21  1  0  0  0  0
 18 21  2  0  0  0  0
 19 21  2  0  0  0  0
  1 22  1  0  0  0  0
  2 23  1  0  0  0  0
  3 24  1  0  0  0  0
  4 25  1  0  0  0  0
  5 26  1  0  0  0  0
  6 27  1  0  0  0  0
  7 28  1  0  0  0  0
 13 29  1  0  0  0  0
 13 30  1  0  0  0  0
 16 31  1  0  0  0  0
 17 32  1  0  0  0  0
M  END
> <POSIT::Probability>
0.33

> <POSIT::Method>
HYBRID

> <ReceptorTitle>
UCSF-P4246-REFINED_LIGAND-BOUND-STATE_AALTB__DU__LA1_A-201(A)

> <OMEGA_C>
Y15Iwq0jA8ID0NdAeJBJwlCG88G+5edA4ohKwj56BMLoh/9A8rpLwlkz9sGszgdBnO06wmFf6sEq
gYhAaM0xwrOg8MGmHk9A8sA5wnrL6MHcbtRA+441wsKG7cHBzoZAXeJHwuuP+8FJ/8tAGgo9wi71
58FjsbBA/TZMwnB1AMIvtw1BvLsywiMG7sEw66xAuI1FwkWv+MEKYKFAMYw0wg7N68HscdRAggEt
wnnn8sHqWnBAqLEtwhBB8cFsV6JAWXpCwmKx5MH9ArVAmY9Mwl426cEcc6dA+RJGwqE86cE4jVNA
pEpOwkm/AcL0yCBBoD5HwoAg68HKm5ZAihJHwp5LBsKoRMJAzjNJwkon68HK8t5A+elKwuOlCMK8
YARBvAlNwuzx78GqrBJBaVc9wlLV6cGOa1dA2lkywhxU8cFGvgpAfk87wiLz5sHCFfRAcy1Hwjqi
/cFYm4dAnDFBwnhh+cG6IaFAk4sqwgp68sEuHbZA3qNDwosY48GdHtRA

> <OMEGA_E>
r/TYwA==

> <OMEGA_NBR>
      1142

$$$$
CACHE3HI_1687_55
  -OEChem-03092622513D

 24 26  0     0  0  0  0  0  0999 V2000
  -50.7900  -29.1089    7.7772 C   0  0  0  0  0  0  0  0  0  0  0  0
  -51.7954  -29.9161    8.3362 C   0  0  0  0  0  0  0  0  0  0  0  0
  -47.7382  -29.2996    7.1625 C   0  0  0  0  0  0  0  0  0  0  0  0
  -46.0030  -29.2536    5.9251 C   0  0  0  0  0  0  0  0  0  0  0  0
  -50.5200  -29.7095    6.5760 C   0  0  0  0  0  0  0  0  0  0  0  0
  -47.0846  -29.3161    5.0613 C   0  0  0  0  0  0  0  0  0  0  0  0
  -44.7377  -29.2134    5.3474 C   0  0  0  0  0  0  0  0  0  0  0  0
  -45.7760  -29.2995    3.2778 C   0  0  0  0  0  0  0  0  0  0  0  0
  -49.5647  -29.4066    5.4484 C   0  0  0  0  0  0  0  0  0  0  0  0
  -52.1242  -30.9390    7.5427 N   0  0  0  0  0  0  0  0  0  0  0  0
  -46.4240  -29.2439    7.2309 N   0  0  0  0  0  0  0  0  0  0  0  0
  -47.0517  -29.3426    3.7206 N   0  0  0  0  0  0  0  0  0  0  0  0
  -44.6298  -29.2374    3.9971 N   0  0  0  0  0  0  0  0  0  0  0  0
  -48.1860  -29.3445    5.8690 N   0  0  0  0  0  0  0  0  0  0  0  0
  -43.5842  -29.1455    6.1477 N   0  0  0  0  0  0  0  0  0  0  0  0
  -51.3108  -30.8033    6.4243 O   0  0  0  0  0  0  0  0  0  0  0  0
  -45.6230  -29.3208    1.9417 F   0  0  0  0  0  0  0  0  0  0  0  0
  -50.3307  -28.2221    8.1876 H   0  0  0  0  0  0  0  0  0  0  0  0
  -52.3018  -29.8052    9.2837 H   0  0  0  0  0  0  0  0  0  0  0  0
  -48.4130  -29.3100    8.0073 H   0  0  0  0  0  0  0  0  0  0  0  0
  -49.6763  -30.1598    4.6569 H   0  0  0  0  0  0  0  0  0  0  0  0
  -49.8478  -28.4604    4.9681 H   0  0  0  0  0  0  0  0  0  0  0  0
  -43.6793  -29.0726    7.1426 H   0  0  0  0  0  0  0  0  0  0  0  0
  -42.6860  -29.0641    5.7106 H   0  0  0  0  0  0  0  0  0  0  0  0
  1  2  1  0  0  0  0
  1  5  2  0  0  0  0
  2 10  2  0  0  0  0
  3 11  2  0  0  0  0
  3 14  1  0  0  0  0
  4  6  1  0  0  0  0
  4  7  2  0  0  0  0
  4 11  1  0  0  0  0
  5  9  1  0  0  0  0
  5 16  1  0  0  0  0
  6 12  2  0  0  0  0
  6 14  1  0  0  0  0
  7 13  1  0  0  0  0
  7 15  1  0  0  0  0
  8 12  1  0  0  0  0
  8 13  2  0  0  0  0
  8 17  1  0  0  0  0
  9 14  1  0  0  0  0
 10 16  1  0  0  0  0
  1 18  1  0  0  0  0
  2 19  1  0  0  0  0
  3 20  1  0  0  0  0
  9 21  1  0  0  0  0
  9 22  1  0  0  0  0
 15 23  1  0  0  0  0
 15 24  1  0  0  0  0
M  END
> <POSIT::Probability>
0.18

> <POSIT::Method>
HYBRID

> <ReceptorTitle>
UCSF-P4246-REFINED_LIGAND-BOUND-STATE_AALTB__DU__LA1_A-201(A)

> <OMEGA_C>
AilLwv/e6MH13vhAiS5PwhlU78H4YAVB8/M+wqFl6sHLMuVAEQM4wmsH6sEymr1AgRRKwvqs7cFr
btJAmVY8wnKH6sGF9qFAbvMywh616cEpHqtAoho3wmZl6sF6x1FATUJGwrVA68FsWa5ALX9QwhWD
98GqXfFAKLI5wmjz6cE7Y+dA5jQ8wrO96sFFHm5A84Qywhzm6cEF0H9Aer5AwnXB6sG1zrtANlYu
wgMq6cGoucRAPD5Nwhxt9sEmlM1A7n02wheR6sGdiPg/n1JJwsbG4cFnAANBBjVRwvxw7sEdihRB
9KZBwut66sEWHgBBgLRGwjJH8cH4BJVAJWRHws6u48HA+p5AjrcuwqKU6MFEkORAg74qwjaD6MGY
vbZA

> <OMEGA_E>
AyavwA==

> <OMEGA_NBR>
      2121

$$$$
CACHE3HI_1687_74
  -OEChem-03092622513D

 30 32  0     0  0  0  0  0  0999 V2000
  -50.3416  -33.2348    6.5332 C   0  0  0  0  0  0  0  0  0  0  0  0
  -50.4155  -31.8466    6.3095 C   0  0  0  0  0  0  0  0  0  0  0  0
  -50.4913  -33.7492    7.8362 C   0  0  0  0  0  0  0  0  0  0  0  0
  -50.7829  -31.4845    8.6978 C   0  0  0  0  0  0  0  0  0  0  0  0
  -48.1235  -29.1739    3.6162 C   0  0  0  0  0  0  0  0  0  0  0  0
  -44.4023  -29.5771    6.1220 C   0  0  0  0  0  0  0  0  0  0  0  0
  -50.6542  -30.9680    7.3872 C   0  0  0  0  0  0  0  0  0  0  0  0
  -46.5494  -29.2225    5.8216 C   0  0  0  0  0  0  0  0  0  0  0  0
  -50.7035  -32.8739    8.9199 C   0  0  0  0  0  0  0  0  0  0  0  0
  -46.0119  -29.4516    4.5593 C   0  0  0  0  0  0  0  0  0  0  0  0
  -47.9204  -28.9627    5.9504 C   0  0  0  0  0  0  0  0  0  0  0  0
  -49.6510  -28.7003    7.7739 C   0  0  0  0  0  0  0  0  0  0  0  0
  -50.8072  -29.4807    7.1304 C   0  0  0  0  0  0  0  0  0  0  0  0
  -46.7951  -29.4224    3.4619 N   0  0  0  0  0  0  0  0  0  0  0  0
  -48.6947  -28.9461    4.8341 N   0  0  0  0  0  0  0  0  0  0  0  0
  -45.5225  -29.3045    6.7545 N   0  0  0  0  0  0  0  0  0  0  0  0
  -44.6659  -29.6711    4.7578 N   0  0  0  0  0  0  0  0  0  0  0  0
  -48.3725  -28.6112    7.2279 N   0  0  0  0  0  0  0  0  0  0  0  0
  -49.7732  -28.3550    8.9425 O   0  0  0  0  0  0  0  0  0  0  0  0
  -50.8886  -33.5138   10.5337 Cl  0  0  0  0  0  0  0  0  0  0  0  0
  -50.1699  -33.9061    5.7048 H   0  0  0  0  0  0  0  0  0  0  0  0
  -50.2893  -31.4538    5.3114 H   0  0  0  0  0  0  0  0  0  0  0  0
  -50.4434  -34.8149    8.0046 H   0  0  0  0  0  0  0  0  0  0  0  0
  -50.9422  -30.8135    9.5289 H   0  0  0  0  0  0  0  0  0  0  0  0
  -48.7521  -29.1561    2.7382 H   0  0  0  0  0  0  0  0  0  0  0  0
  -43.4353  -29.7069    6.5851 H   0  0  0  0  0  0  0  0  0  0  0  0
  -50.8066  -29.2990    6.0455 H   0  0  0  0  0  0  0  0  0  0  0  0
  -51.7595  -29.1356    7.5594 H   0  0  0  0  0  0  0  0  0  0  0  0
  -43.9930  -29.8650    4.0439 H   0  0  0  0  0  0  0  0  0  0  0  0
  -47.6734  -28.2410    7.8397 H   0  0  0  0  0  0  0  0  0  0  0  0
  1  2  1  0  0  0  0
  1  3  2  0  0  0  0
  2  7  2  0  0  0  0
  3  9  1  0  0  0  0
  4  7  1  0  0  0  0
  4  9  2  0  0  0  0
  5 14  2  0  0  0  0
  5 15  1  0  0  0  0
  6 16  2  0  0  0  0
  6 17  1  0  0  0  0
  7 13  1  0  0  0  0
  8 10  2  0  0  0  0
  8 11  1  0  0  0  0
  8 16  1  0  0  0  0
  9 20  1  0  0  0  0
 10 14  1  0  0  0  0
 10 17  1  0  0  0  0
 11 15  2  0  0  0  0
 11 18  1  0  0  0  0
 12 13  1  0  0  0  0
 12 18  1  0  0  0  0
 12 19  2  0  0  0  0
  1 21  1  0  0  0  0
  2 22  1  0  0  0  0
  3 23  1  0  0  0  0
  4 24  1  0  0  0  0
  5 25  1  0  0  0  0
  6 26  1  0  0  0  0
 13 27  1  0  0  0  0
 13 28  1  0  0  0  0
 17 29  1  0  0  0  0
 18 30  1  0  0  0  0
M  END
> <POSIT::Probability>
0.93

> <POSIT::Method>
SHAPEFIT

> <ReceptorTitle>
UCSF-P4246-REFINED_LIGAND-BOUND-STATE_AALTB__DU__LA1_A-201(A)

> <OMEGA_C>
wl1JwnHwBMLuD9FAdalJwsLF/sGI58lAD/dJwjX/BsJdwvpAtyFLwlLg+8EwKgtBc35Awhdk6cEv
cGdA/psxwtyd7MFT58NA4p1Kwmu+98FaZOxAkDI6wpvH6cHnSrpAYNBKwt1+A8Lktw5BKQw4wuWc
68Ea5pFAg64/wq+z58Fhab5Ak5pGwkOa5cEkxPhAlDpLwmbY68HsK+RANC47wiZh68G4j11AXsdC
wpeR58HksJpAEhc2wqBv6sGOJNhA16kywoNe7cEoQJhAbX1BwsDj5MEaS+dAwhdHwgvX4sGlFA9B
8Y1LwiwOBsL5iShB861IwuKfB8K0jbZANihJwk6h+8E096lA/sVJwoFCC8LUEgBB2sRLwiWC9sGM
dhhBMQJDwqs/6cEdPy9Ay70twqmn7cFBudJA7DlLwlxk6sF0dMFAvAlPwqUV6cE45vFA3/gvwnrr
7sFjZ4FAl7E+wnnt4cF93vpA

> <OMEGA_E>
4H2YPg==

> <OMEGA_NBR>
      3248

$$$$
CACHE3HI_1694_15
  -OEChem-03092622513D

 41 43  0     1  0  0  0  0  0999 V2000
  -52.0806  -28.9397    9.6471 C   0  0  0  0  0  0  0  0  0  0  0  0
  -51.8270  -30.1955    9.0954 C   0  0  0  0  0  0  0  0  0  0  0  0
  -52.7593  -27.9755    8.9020 C   0  0  0  0  0  0  0  0  0  0  0  0
  -44.7501  -29.4610    3.1731 C   0  0  0  0  0  0  0  0  0  0  0  0
  -44.0275  -29.3596    4.3529 C   0  0  0  0  0  0  0  0  0  0  0  0
  -52.2521  -30.4872    7.7991 C   0  0  0  0  0  0  0  0  0  0  0  0
  -53.1845  -28.2671    7.6058 C   0  0  0  0  0  0  0  0  0  0  0  0
  -46.1416  -29.5031    3.2198 C   0  0  0  0  0  0  0  0  0  0  0  0
  -44.7054  -29.3020    5.5697 C   0  0  0  0  0  0  0  0  0  0  0  0
  -52.9309  -29.5229    7.0541 C   0  0  0  0  0  0  0  0  0  0  0  0
  -46.8281  -29.4457    4.4303 C   0  0  0  0  0  0  0  0  0  0  0  0
  -46.0963  -29.3431    5.6275 C   0  0  0  0  0  0  0  0  0  0  0  0
  -48.7831  -29.4294    5.6457 C   0  0  0  0  0  0  0  0  0  0  0  0
  -48.0715  -29.3297    6.8120 C   0  0  0  0  0  0  0  0  0  0  0  0
  -53.3907  -29.8378    5.6524 C   0  0  0  0  0  0  0  0  0  0  0  0
  -52.3581  -29.4984    4.5669 C   0  0  0  0  0  0  0  0  0  0  0  0
  -50.2250  -30.2113    3.3932 C   0  0  0  0  0  0  0  0  0  0  0  0
  -50.9797  -30.1751    4.7275 C   0  0  1  0  0  0  0  0  0  0  0  0
  -48.1717  -29.4882    4.4496 N   0  0  0  0  0  0  0  0  0  0  0  0
  -46.7265  -29.2852    6.8137 N   0  0  0  0  0  0  0  0  0  0  0  0
  -50.1561  -29.4696    5.7086 N   0  0  0  0  0  0  0  0  0  0  0  0
  -50.0298  -28.8862    2.9140 O   0  0  0  0  0  0  0  0  0  0  0  0
  -48.7038  -29.2721    7.9935 F   0  0  0  0  0  0  0  0  0  0  0  0
  -51.7496  -28.7126   10.6562 H   0  0  0  0  0  0  0  0  0  0  0  0
  -51.2989  -30.9466    9.6755 H   0  0  0  0  0  0  0  0  0  0  0  0
  -52.9567  -26.9976    9.3313 H   0  0  0  0  0  0  0  0  0  0  0  0
  -44.2353  -29.5073    2.2184 H   0  0  0  0  0  0  0  0  0  0  0  0
  -42.9428  -29.3261    4.3299 H   0  0  0  0  0  0  0  0  0  0  0  0
  -52.0498  -31.4683    7.3777 H   0  0  0  0  0  0  0  0  0  0  0  0
  -53.7135  -27.5097    7.0335 H   0  0  0  0  0  0  0  0  0  0  0  0
  -46.6951  -29.5820    2.2861 H   0  0  0  0  0  0  0  0  0  0  0  0
  -44.1267  -29.2234    6.4880 H   0  0  0  0  0  0  0  0  0  0  0  0
  -53.6142  -30.9127    5.6033 H   0  0  0  0  0  0  0  0  0  0  0  0
  -54.3438  -29.3379    5.4435 H   0  0  0  0  0  0  0  0  0  0  0  0
  -52.7763  -29.7592    3.5871 H   0  0  0  0  0  0  0  0  0  0  0  0
  -52.2239  -28.4079    4.5568 H   0  0  0  0  0  0  0  0  0  0  0  0
  -49.2455  -30.6908    3.5014 H   0  0  0  0  0  0  0  0  0  0  0  0
  -50.7979  -30.7572    2.6354 H   0  0  0  0  0  0  0  0  0  0  0  0
  -51.1299  -31.2080    5.0624 H   0  0  0  0  0  0  0  0  0  0  0  0
  -50.6352  -28.9978    6.4561 H   0  0  0  0  0  0  0  0  0  0  0  0
  -49.5513  -28.9617    2.0731 H   0  0  0  0  0  0  0  0  0  0  0  0
  1  2  1  0  0  0  0
  1  3  2  0  0  0  0
  2  6  2  0  0  0  0
  3  7  1  0  0  0  0
  4  5  1  0  0  0  0
  4  8  2  0  0  0  0
  5  9  2  0  0  0  0
  6 10  1  0  0  0  0
  7 10  2  0  0  0  0
  8 11  1  0  0  0  0
  9 12  1  0  0  0  0
 10 15  1  0  0  0  0
 11 12  2  0  0  0  0
 11 19  1  0  0  0  0
 12 20  1  0  0  0  0
 13 14  1  0  0  0  0
 13 19  2  0  0  0  0
 13 21  1  0  0  0  0
 14 20  2  0  0  0  0
 14 23  1  0  0  0  0
 15 16  1  0  0  0  0
 16 18  1  0  0  0  0
 17 18  1  0  0  0  0
 17 22  1  0  0  0  0
 18 21  1  0  0  0  0
  1 24  1  0  0  0  0
  2 25  1  0  0  0  0
  3 26  1  0  0  0  0
  4 27  1  0  0  0  0
  5 28  1  0  0  0  0
  6 29  1  0  0  0  0
  7 30  1  0  0  0  0
  8 31  1  0  0  0  0
  9 32  1  0  0  0  0
 15 33  1  0  0  0  0
 15 34  1  0  0  0  0
 16 35  1  0  0  0  0
 16 36  1  0  0  0  0
 17 37  1  0  0  0  0
 17 38  1  0  0  0  0
 18 39  1  0  0  0  0
 21 40  1  0  0  0  0
 22 41  1  0  0  0  0
M  END
> <POSIT::Probability>
0.23

> <POSIT::Method>
HYBRID

> <ReceptorTitle>
UCSF-P4246_LA2_MERGED(A)

> <OMEGA_C>
kVJQwpmE58FYWhpB1k5PwnOQ8cGUhhFBjQlTwtTN38HEbg5BHgAzwiaw68GlFEtANhwwwozg6sHC
SotAMAJRwrTl88F5kvlA57xUwhUj4sHYYvNA+pA4wksG7MFwEE5AStIywoBq6sGaOrJAM7lTwtIu
7ME7u+FA+k87wtuQ68HsxI1Am2I4wq++6sGcFLRA5CFDwm9v68G2qbRAM0lAwjej6sGE+9lAFZBV
wsiz7sE44LRAq25RwrL868EUJJJAZ+ZIwsmw8cEoKllALetLwpBm8cEUSJdAzK9Awuzn68FKY45A
9uc6wgBI6sHZCdpA3Z9IwsHB68EUrbZAgx5IwgUX58E8fjpAttBCwjot6sESy/9Aov9Owniz5cGa
fypBDDJNwpyS98HUzhpBstNTwiX718EaTRVB7PAwwgEP7MHE+Q1AY8Urwumb6sE5jopACzNQwiS/
+8EhFuxAk9pWwtET3MFlEuFA0sc6wtun7MFEUBJAyYEwwoHJ6cGanc9A6HRWwi5N98HbTbNAFWBZ
wgu06sHaMK5A7BpTwsUS7sFJk2VASuVQwm9D48Gb0ZFAXftEwr2G9cGQFmBAFzFLwrIO9sHGqihA
AIVMwuOp+cEU/6FAcopKwof758H5l85AgjRGwoyx58FArgRA

> <OMEGA_E>
WrS3wA==

> <OMEGA_NBR>
      4499

$$$$
CACHE3HI_1694_60
  -OEChem-03092622513D

 35 36  0     1  0  0  0  0  0999 V2000
  -54.6589  -27.8948    9.9138 C   0  0  0  0  0  0  0  0  0  0  0  0
  -54.9946  -28.1715    8.5885 C   0  0  0  0  0  0  0  0  0  0  0  0
  -53.3585  -28.1204   10.3650 C   0  0  0  0  0  0  0  0  0  0  0  0
  -54.0302  -28.6734    7.7145 C   0  0  0  0  0  0  0  0  0  0  0  0
  -52.3941  -28.6223    9.4909 C   0  0  0  0  0  0  0  0  0  0  0  0
  -46.8827  -29.1437    4.6100 C   0  0  0  0  0  0  0  0  0  0  0  0
  -44.5745  -29.5978    5.8729 C   0  0  0  0  0  0  0  0  0  0  0  0
  -52.7298  -28.8990    8.1656 C   0  0  0  0  0  0  0  0  0  0  0  0
  -46.7987  -29.0763    5.9837 C   0  0  0  0  0  0  0  0  0  0  0  0
  -44.6587  -29.6653    4.4994 C   0  0  0  0  0  0  0  0  0  0  0  0
  -51.6866  -29.4418    7.2208 C   0  0  0  0  0  0  0  0  0  0  0  0
  -50.2558  -28.9853    7.5435 C   0  0  0  0  0  0  0  0  0  0  0  0
  -49.6172  -29.6761    5.1875 C   0  0  0  0  0  0  0  0  0  0  0  0
  -49.1506  -29.5812    6.6451 C   0  0  1  0  0  0  0  0  0  0  0  0
  -45.6426  -29.3021    6.6398 N   0  0  0  0  0  0  0  0  0  0  0  0
  -45.8147  -29.4396    3.8432 N   0  0  0  0  0  0  0  0  0  0  0  0
  -47.9360  -28.7683    6.6926 N   0  0  0  0  0  0  0  0  0  0  0  0
  -49.5076  -28.4028    4.5626 O   0  0  0  0  0  0  0  0  0  0  0  0
  -43.5662  -29.9635    3.7827 F   0  0  0  0  0  0  0  0  0  0  0  0
  -55.4097  -27.5040   10.5944 H   0  0  0  0  0  0  0  0  0  0  0  0
  -56.0070  -27.9954    8.2370 H   0  0  0  0  0  0  0  0  0  0  0  0
  -53.0970  -27.9052   11.3968 H   0  0  0  0  0  0  0  0  0  0  0  0
  -54.3012  -28.8861    6.6837 H   0  0  0  0  0  0  0  0  0  0  0  0
  -51.3833  -28.7939    9.8514 H   0  0  0  0  0  0  0  0  0  0  0  0
  -47.8068  -28.9639    4.0725 H   0  0  0  0  0  0  0  0  0  0  0  0
  -43.6457  -29.7794    6.3993 H   0  0  0  0  0  0  0  0  0  0  0  0
  -51.7261  -30.5391    7.2678 H   0  0  0  0  0  0  0  0  0  0  0  0
  -51.9440  -29.1907    6.1851 H   0  0  0  0  0  0  0  0  0  0  0  0
  -50.2135  -27.8906    7.4900 H   0  0  0  0  0  0  0  0  0  0  0  0
  -50.0462  -29.2443    8.5905 H   0  0  0  0  0  0  0  0  0  0  0  0
  -49.0145  -30.3953    4.6213 H   0  0  0  0  0  0  0  0  0  0  0  0
  -50.6676  -29.9831    5.1331 H   0  0  0  0  0  0  0  0  0  0  0  0
  -48.9181  -30.5935    6.9952 H   0  0  0  0  0  0  0  0  0  0  0  0
  -47.9536  -27.9499    7.2763 H   0  0  0  0  0  0  0  0  0  0  0  0
  -49.8126  -28.5141    3.6481 H   0  0  0  0  0  0  0  0  0  0  0  0
  1  2  1  0  0  0  0
  1  3  2  0  0  0  0
  2  4  2  0  0  0  0
  3  5  1  0  0  0  0
  4  8  1  0  0  0  0
  5  8  2  0  0  0  0
  6  9  1  0  0  0  0
  6 16  2  0  0  0  0
  7 10  2  0  0  0  0
  7 15  1  0  0  0  0
  8 11  1  0  0  0  0
  9 15  2  0  0  0  0
  9 17  1  0  0  0  0
 10 16  1  0  0  0  0
 10 19  1  0  0  0  0
 11 12  1  0  0  0  0
 12 14  1  0  0  0  0
 13 14  1  0  0  0  0
 13 18  1  0  0  0  0
 14 17  1  0  0  0  0
  1 20  1  0  0  0  0
  2 21  1  0  0  0  0
  3 22  1  0  0  0  0
  4 23  1  0  0  0  0
  5 24  1  0  0  0  0
  6 25  1  0  0  0  0
  7 26  1  0  0  0  0
 11 27  1  0  0  0  0
 11 28  1  0  0  0  0
 12 29  1  0  0  0  0
 12 30  1  0  0  0  0
 13 31  1  0  0  0  0
 13 32  1  0  0  0  0
 14 33  1  0  0  0  0
 17 34  1  0  0  0  0
 18 35  1  0  0  0  0
M  END
> <POSIT::Probability>
0.33

> <POSIT::Method>
HYBRID

> <ReceptorTitle>
UCSF-P4246_LA2_MERGED(A)

> <OMEGA_C>
tqJawnQo38Egnx5Bf/pbwiZf4cGuaglBHG9Vwoz24MHk1iVB8R5Ywhhj5cEG3fZAj5NRwn/65MG2
2hdB3Yc7wk0m6cHbhJNATkwywmXI7MH67rtATOtSwjEx58FwpgJB4DE7wjSc6ME0er9AfKIywpFS
7cHq+o9AHr9OwuCI68HVEOdA/AVJwtTh58FVZPFADnhGwqRo7cHY/6VAQJpEwjym7MF9pNRAEZI2
wshq6sFCedRAR0I3wj2E68GQ93VAbb4/wnsl5sGbKdZA0gdGwgU548EZAZJAykMuwj+178H0FnJA
fKNdwkQI3MGRgilBOAdgwqr238HiygNBR2NUwts938F5WTZBbjRZwqkW58Gs4NVAfohNwtpZ5sE6
nx1BJDo/wgi258G0UYJAL5UuwjI87sExx8xAgedOwhRQ9MFqkehAsMZPwnyG6cGN7MVAltpIwgEg
38Ewru9ATy9Iwj706cGccglB4g5EwqUp88EW4pNAnqtKwlTd78EiQqRALqxDwoq/9MG02N9AdtA/
wm6Z38Ee1+hAEEBHws4c5MEYe2lA

> <OMEGA_E>
/e6wwA==

> <OMEGA_NBR>
      5627

$$$$
CACHE3HI_1694_80
  -OEChem-03092622513D

 30 31  0     0  0  0  0  0  0999 V2000
  -49.5958  -28.8509    7.9245 C   0  0  0  0  0  0  0  0  0  0  0  0
  -48.3420  -28.7378    7.3236 C   0  0  0  0  0  0  0  0  0  0  0  0
  -50.4112  -29.9448    7.6349 C   0  0  0  0  0  0  0  0  0  0  0  0
  -48.7191  -30.8123    6.1439 C   0  0  0  0  0  0  0  0  0  0  0  0
  -44.3778  -29.4530    5.9887 C   0  0  0  0  0  0  0  0  0  0  0  0
  -47.9037  -29.7184    6.4335 C   0  0  0  0  0  0  0  0  0  0  0  0
  -49.9728  -30.9254    6.7448 C   0  0  0  0  0  0  0  0  0  0  0  0
  -46.6097  -29.6012    5.8139 C   0  0  0  0  0  0  0  0  0  0  0  0
  -45.3486  -29.4332    3.9656 C   0  0  0  0  0  0  0  0  0  0  0  0
  -43.8831  -27.3280    0.9635 C   0  0  0  0  0  0  0  0  0  0  0  0
  -43.1634  -28.4114    1.7282 C   0  0  0  0  0  0  0  0  0  0  0  0
  -44.0177  -29.6677    1.8685 C   0  0  0  0  0  0  0  0  0  0  0  0
  -45.5490  -29.5628    6.6361 N   0  0  0  0  0  0  0  0  0  0  0  0
  -44.2000  -29.3831    4.6594 N   0  0  0  0  0  0  0  0  0  0  0  0
  -46.5872  -29.5413    4.4727 N   0  0  0  0  0  0  0  0  0  0  0  0
  -45.2458  -29.3665    2.5934 N   0  0  0  0  0  0  0  0  0  0  0  0
  -45.0903  -27.1368    0.9456 O   0  0  0  0  0  0  0  0  0  0  0  0
  -42.9898  -26.5716    0.2754 O   0  0  0  0  0  0  0  0  0  0  0  0
  -50.7563  -31.9757    6.4675 F   0  0  0  0  0  0  0  0  0  0  0  0
  -49.9373  -28.0877    8.6176 H   0  0  0  0  0  0  0  0  0  0  0  0
  -47.7171  -27.8796    7.5599 H   0  0  0  0  0  0  0  0  0  0  0  0
  -51.3874  -30.0328    8.1024 H   0  0  0  0  0  0  0  0  0  0  0  0
  -48.3924  -31.5850    5.4524 H   0  0  0  0  0  0  0  0  0  0  0  0
  -43.4853  -29.4171    6.6010 H   0  0  0  0  0  0  0  0  0  0  0  0
  -42.9124  -28.0178    2.7205 H   0  0  0  0  0  0  0  0  0  0  0  0
  -42.2362  -28.6459    1.1928 H   0  0  0  0  0  0  0  0  0  0  0  0
  -44.2718  -30.0650    0.8799 H   0  0  0  0  0  0  0  0  0  0  0  0
  -43.4616  -30.4488    2.3999 H   0  0  0  0  0  0  0  0  0  0  0  0
  -46.0509  -29.0972    2.0506 H   0  0  0  0  0  0  0  0  0  0  0  0
  -43.4303  -25.8583   -0.2338 H   0  0  0  0  0  0  0  0  0  0  0  0
  1  2  1  0  0  0  0
  1  3  2  0  0  0  0
  2  6  2  0  0  0  0
  3  7  1  0  0  0  0
  4  6  1  0  0  0  0
  4  7  2  0  0  0  0
  5 13  2  0  0  0  0
  5 14  1  0  0  0  0
  6  8  1  0  0  0  0
  7 19  1  0  0  0  0
  8 13  1  0  0  0  0
  8 15  2  0  0  0  0
  9 14  2  0  0  0  0
  9 15  1  0  0  0  0
  9 16  1  0  0  0  0
 10 11  1  0  0  0  0
 10 17  2  0  0  0  0
 10 18  1  0  0  0  0
 11 12  1  0  0  0  0
 12 16  1  0  0  0  0
  1 20  1  0  0  0  0
  2 21  1  0  0  0  0
  3 22  1  0  0  0  0
  4 23  1  0  0  0  0
  5 24  1  0  0  0  0
 11 25  1  0  0  0  0
 11 26  1  0  0  0  0
 12 27  1  0  0  0  0
 12 28  1  0  0  0  0
 16 29  1  0  0  0  0
 18 30  1  0  0  0  0
M  END
> <POSIT::Probability>
0.18

> <POSIT::Method>
FRED

> <ReceptorTitle>
UCSF-P4246-REFINED_LIGAND-BOUND-STATE_AALTB__DU__LA1_A-201(A)

> <OMEGA_C>
EWJGwpLO5sFzlf1AP15Bwu/m5cHeWupADqVJwuaO78HUUPRAZ+BCwqd/9sHcmsRA0YIxwrGf68FW
o79AXZ0/wkG/7cFz381ALORHwjhn98Fq1ddAXnA6wivP7ME/C7pA/2Q1whp368EczH1AP4gvwqqf
2sEwq3Y/T6cswpNK48HKNt0/KhIwwoxX7cHEK+8/NDI2wo6A7MHqWtRA18wwwq8Q68F4GZVARVk6
wo9U7MFiII9Av/s0wpDu6sGq+SVAe1w0wjcY2cFgFXI/m/UrwpCS1MEwBI0+eAZLwlLO/8HP9c5A
2L9HwrGz4MGi4QlBS94+woAJ38Ft6vFAsIxNwihD8MFDowFBzJFBwimu/MG6ea5A8PAtwkdW68Eu
O9NATqYrwowk4MFIHS5A2vEowskq5cGQrpg/UhYxwiGF8MEoQWE/utgtwjOX88HilxlAFjQ4wvnG
6MH0PANAnbgtws/dzsFwcm++

> <OMEGA_E>
6QfUwA==

> <OMEGA_NBR>
      6719

$$$$
CACHE3HI_1695_65
  -OEChem-03092622513D

 36 38  0     1  0  0  0  0  0999 V2000
  -50.5126  -31.3015    7.2757 C   0  0  0  0  0  0  0  0  0  0  0  0
  -49.5723  -33.4837    6.8383 C   0  0  0  0  0  0  0  0  0  0  0  0
  -50.6464  -31.6302    8.6247 C   0  0  0  0  0  0  0  0  0  0  0  0
  -49.7062  -33.8124    8.1872 C   0  0  0  0  0  0  0  0  0  0  0  0
  -49.9753  -32.2284    6.3826 C   0  0  0  0  0  0  0  0  0  0  0  0
  -50.2434  -32.8855    9.0804 C   0  0  0  0  0  0  0  0  0  0  0  0
  -44.1890  -30.4059    4.8677 C   0  0  0  0  0  0  0  0  0  0  0  0
  -45.7787  -29.3283    5.9118 C   0  0  0  0  0  0  0  0  0  0  0  0
  -43.4641  -30.8252    3.7174 C   0  0  0  0  0  0  0  0  0  0  0  0
  -43.8555  -30.4016    2.4992 C   0  0  0  0  0  0  0  0  0  0  0  0
  -45.0049  -29.5236    2.3304 C   0  0  0  0  0  0  0  0  0  0  0  0
  -45.6903  -29.1273    3.4151 C   0  0  0  0  0  0  0  0  0  0  0  0
  -50.2785  -30.6086    4.6674 C   0  0  0  0  0  0  0  0  0  0  0  0
  -48.5504  -29.5106    6.1648 C   0  0  0  0  0  0  0  0  0  0  0  0
  -49.1200  -29.6131    4.7483 C   0  0  2  0  0  0  0  0  0  0  0  0
  -44.0567  -30.6415    6.1558 N   0  0  0  0  0  0  0  0  0  0  0  0
  -45.0617  -29.9601    6.8140 N   0  0  0  0  0  0  0  0  0  0  0  0
  -45.2767  -29.5706    4.6651 N   0  0  0  0  0  0  0  0  0  0  0  0
  -49.5957  -28.3276    4.3484 O   0  0  0  0  0  0  0  0  0  0  0  0
  -49.8447  -31.9061    5.0571 O   0  0  0  0  0  0  0  0  0  0  0  0
  -50.3722  -33.2003   10.3759 F   0  0  0  0  0  0  0  0  0  0  0  0
  -47.1538  -28.3347    6.2361 S   0  0  0  0  0  0  0  0  0  0  0  0
  -50.8280  -30.3220    6.9267 H   0  0  0  0  0  0  0  0  0  0  0  0
  -49.1537  -34.2101    6.1470 H   0  0  0  0  0  0  0  0  0  0  0  0
  -51.0641  -30.9089    9.3208 H   0  0  0  0  0  0  0  0  0  0  0  0
  -49.3931  -34.7900    8.5424 H   0  0  0  0  0  0  0  0  0  0  0  0
  -42.6069  -31.4782    3.8338 H   0  0  0  0  0  0  0  0  0  0  0  0
  -43.3195  -30.7062    1.6067 H   0  0  0  0  0  0  0  0  0  0  0  0
  -45.2814  -29.2102    1.3312 H   0  0  0  0  0  0  0  0  0  0  0  0
  -46.5519  -28.4754    3.3451 H   0  0  0  0  0  0  0  0  0  0  0  0
  -51.0940  -30.3041    5.3311 H   0  0  0  0  0  0  0  0  0  0  0  0
  -50.6573  -30.6766    3.6424 H   0  0  0  0  0  0  0  0  0  0  0  0
  -48.1730  -30.4791    6.5080 H   0  0  0  0  0  0  0  0  0  0  0  0
  -49.3149  -29.1622    6.8665 H   0  0  0  0  0  0  0  0  0  0  0  0
  -48.3440  -29.9218    4.0377 H   0  0  0  0  0  0  0  0  0  0  0  0
  -48.8398  -27.7247    4.4113 H   0  0  0  0  0  0  0  0  0  0  0  0
  1  3  2  0  0  0  0
  1  5  1  0  0  0  0
  2  4  1  0  0  0  0
  2  5  2  0  0  0  0
  3  6  1  0  0  0  0
  4  6  2  0  0  0  0
  5 20  1  0  0  0  0
  6 21  1  0  0  0  0
  7  9  1  0  0  0  0
  7 16  2  0  0  0  0
  7 18  1  0  0  0  0
  8 17  2  0  0  0  0
  8 18  1  0  0  0  0
  8 22  1  0  0  0  0
  9 10  2  0  0  0  0
 10 11  1  0  0  0  0
 11 12  2  0  0  0  0
 12 18  1  0  0  0  0
 13 15  1  0  0  0  0
 13 20  1  0  0  0  0
 14 15  1  0  0  0  0
 14 22  1  0  0  0  0
 15 19  1  0  0  0  0
 16 17  1  0  0  0  0
  1 23  1  0  0  0  0
  2 24  1  0  0  0  0
  3 25  1  0  0  0  0
  4 26  1  0  0  0  0
  9 27  1  0  0  0  0
 10 28  1  0  0  0  0
 11 29  1  0  0  0  0
 12 30  1  0  0  0  0
 13 31  1  0  0  0  0
 13 32  1  0  0  0  0
 14 33  1  0  0  0  0
 14 34  1  0  0  0  0
 15 35  1  0  0  0  0
 19 36  1  0  0  0  0
M  END
> <POSIT::Probability>
0.23

> <POSIT::Method>
HYBRID

> <ReceptorTitle>
UCSF-P4246-REFINED_LIGAND-BOUND-STATE_AALTB__DU__LA1_A-201(A)

> <OMEGA_C>
5AxKwmFp+sFt0uhAEUpGwk7vBcKN09pA9JVKwpwK/cGc/glBGtNGwvA/B8L0/gJBweZHwtfpAMIE
PsxARPlIwsWKA8JfSRFBjMEwwjw/88E+xJtAZh03wmSg6sHRLb1ARdstwu6Z9sEE6m1ACmwvwnY2
88Gw8h9AAgU0wl4w7MFKJRVA4cI2wqwE6cEskVpALh1Jwnve9MGyW5VAmDNCwrUV7MFSRsVA2npE
wqjn7MFy8pdADzowwrch9cF2/MRAJD80wlGu78FMDNpAVRs1wqqQ7MGcSJVA+mFGwgKf4sE8JotA
8mBHwrU//8Ej1KFALH1JwhHNBMKoAyZBeZ08wmmt4sFCjsdA6E9LwnKT8sGop91AaZ1EwhzXCMKX
tMRAsEFMwoVF98EiIhVBipJFwv0oC8J6rQhBcW0qwlDT+8FAXXVAK0ctwj6m9cHwps0/MSA1wnyu
6cEYZqo/HjU6wpDN48GWFlZAN2BMwt9u8sGfmKpACKFKwsRp9cGAHWlAIbFAwi3V88E9QdBAgUJF
wiJM6cEEuttATGBBwvFf78HcNIFA/1tDwkTM3cE6KY1A

> <OMEGA_E>
Z8K2wA==

> <OMEGA_NBR>
      7943

$$$$
CACHE3HI_1717_33
  -OEChem-03092622513D

 30 33  0     0  0  0  0  0  0999 V2000
  -50.2731  -34.1242    5.4920 C   0  0  0  0  0  0  0  0  0  0  0  0
  -50.5783  -32.9640    6.3293 C   0  0  0  0  0  0  0  0  0  0  0  0
  -45.5735  -29.2534    6.8254 C   0  0  0  0  0  0  0  0  0  0  0  0
  -50.3197  -35.3007    6.1967 C   0  0  0  0  0  0  0  0  0  0  0  0
  -48.1215  -29.1825    3.5584 C   0  0  0  0  0  0  0  0  0  0  0  0
  -46.6435  -29.1980    5.8310 C   0  0  0  0  0  0  0  0  0  0  0  0
  -50.8638  -33.3138    7.6380 C   0  0  0  0  0  0  0  0  0  0  0  0
  -46.0580  -29.4755    4.6022 C   0  0  0  0  0  0  0  0  0  0  0  0
  -48.0032  -28.8461    5.8779 C   0  0  0  0  0  0  0  0  0  0  0  0
  -51.0137  -30.9749    8.2956 C   0  0  0  0  0  0  0  0  0  0  0  0
  -49.8743  -29.2471    7.5708 C   0  0  0  0  0  0  0  0  0  0  0  0
  -51.2276  -32.3765    8.7694 C   0  0  0  0  0  0  0  0  0  0  0  0
  -44.4505  -29.5174    6.1935 N   0  0  0  0  0  0  0  0  0  0  0  0
  -46.7934  -29.4595    3.4710 N   0  0  0  0  0  0  0  0  0  0  0  0
  -48.7297  -28.8645    4.7338 N   0  0  0  0  0  0  0  0  0  0  0  0
  -49.7635  -30.3387    8.2791 N   0  0  0  0  0  0  0  0  0  0  0  0
  -51.8930  -30.2714    7.6158 N   0  0  0  0  0  0  0  0  0  0  0  0
  -44.7068  -29.6521    4.8487 N   0  0  0  0  0  0  0  0  0  0  0  0
  -51.1866  -29.2172    7.1823 N   0  0  0  0  0  0  0  0  0  0  0  0
  -50.7401  -35.0298    7.8662 S   0  0  0  0  0  0  0  0  0  0  0  0
  -48.6347  -28.0485    7.3127 S   0  0  0  0  0  0  0  0  0  0  0  0
  -50.0381  -34.0618    4.4397 H   0  0  0  0  0  0  0  0  0  0  0  0
  -50.5806  -31.9467    5.9665 H   0  0  0  0  0  0  0  0  0  0  0  0
  -45.6852  -29.1042    7.8892 H   0  0  0  0  0  0  0  0  0  0  0  0
  -50.1207  -36.2728    5.7702 H   0  0  0  0  0  0  0  0  0  0  0  0
  -48.7180  -29.2161    2.6588 H   0  0  0  0  0  0  0  0  0  0  0  0
  -52.2820  -32.5195    9.0481 H   0  0  0  0  0  0  0  0  0  0  0  0
  -50.5874  -32.5776    9.6411 H   0  0  0  0  0  0  0  0  0  0  0  0
  -44.0179  -29.8489    4.1510 H   0  0  0  0  0  0  0  0  0  0  0  0
  -51.5796  -28.4820    6.6299 H   0  0  0  0  0  0  0  0  0  0  0  0
  1  2  1  0  0  0  0
  1  4  2  0  0  0  0
  2  7  2  0  0  0  0
  3  6  1  0  0  0  0
  3 13  2  0  0  0  0
  4 20  1  0  0  0  0
  5 14  2  0  0  0  0
  5 15  1  0  0  0  0
  6  8  2  0  0  0  0
  6  9  1  0  0  0  0
  7 12  1  0  0  0  0
  7 20  1  0  0  0  0
  8 14  1  0  0  0  0
  8 18  1  0  0  0  0
  9 15  2  0  0  0  0
  9 21  1  0  0  0  0
 10 12  1  0  0  0  0
 10 16  1  0  0  0  0
 10 17  2  0  0  0  0
 11 16  2  0  0  0  0
 11 19  1  0  0  0  0
 11 21  1  0  0  0  0
 13 18  1  0  0  0  0
 17 19  1  0  0  0  0
  1 22  1  0  0  0  0
  2 23  1  0  0  0  0
  3 24  1  0  0  0  0
  4 25  1  0  0  0  0
  5 26  1  0  0  0  0
 12 27  1  0  0  0  0
 12 28  1  0  0  0  0
 18 29  1  0  0  0  0
 19 30  1  0  0  0  0
M  END
> <POSIT::Probability>
0.72

> <POSIT::Method>
SHAPEFIT

> <ReceptorTitle>
UCSF-P4246-REFINED_LIGAND-BOUND-STATE_AALTB__DU__LA1_A-201(A)

> <OMEGA_C>
qxdJwiN/CMJ7vq9AKlBKwhrbA8KYicpAS0s2wgYH6sFmadpAVEdJwuwzDcI+S8ZAYXxAwrx16cHU
vGNA6ZI6wpSV6cGal7pAgnRLwlJBBcKTavRAZDs4wuTN68FJRZNATgNAwrzE5sHXF7xA+w1MwqjM
98HkugRBPH9Hwhb66cGfQ/JAA+lMwpOBAcKMTwxBW80xwqAj7MFoMcZAZCw7whCt68FyJV5AQetC
wmjq5sH8epdA1A1Hwpy18sE+dwRBdZJPwtor8sEFtfNAu9Mywpg37cE/KJtAFr9Mwry86cEu1eVA
1/VKwoEeDMK3t/tA+IlCwlJj4MFFAepAAydIwkc/CMJDEo5AiVJKwuuS/8Fh7b5An702wnHV6MEN
dPxAlntIwlAXEcJJpbhARd9CwqW66cH/KCpAyyBRwvMTAsLxxBBBillKwn5PAsLvQRpBWxIwwoXK
7sGp1IRAeVFOwhfb48FEKNRA

> <OMEGA_E>
YNhIPw==

> <OMEGA_NBR>
      9073

$$$$
CACHE3HI_1717_53
  -OEChem-03092622513D

 33 36  0     0  0  0  0  0  0999 V2000
  -55.0021  -29.1293    4.8588 C   0  0  0  0  0  0  0  0  0  0  0  0
  -53.8801  -29.8346    4.3888 C   0  0  0  0  0  0  0  0  0  0  0  0
  -52.8851  -28.5428    9.2075 C   0  0  0  0  0  0  0  0  0  0  0  0
  -55.0105  -28.6155    6.1653 C   0  0  0  0  0  0  0  0  0  0  0  0
  -52.7578  -30.0241    5.2191 C   0  0  0  0  0  0  0  0  0  0  0  0
  -53.9521  -28.3165    8.3269 C   0  0  0  0  0  0  0  0  0  0  0  0
  -51.7494  -29.2377    8.7682 C   0  0  0  0  0  0  0  0  0  0  0  0
  -45.8102  -29.3362    6.8865 C   0  0  0  0  0  0  0  0  0  0  0  0
  -48.0078  -29.1636    3.3747 C   0  0  0  0  0  0  0  0  0  0  0  0
  -53.9027  -28.8167    7.0120 C   0  0  0  0  0  0  0  0  0  0  0  0
  -52.7533  -29.5213    6.5478 C   0  0  0  0  0  0  0  0  0  0  0  0
  -46.7689  -29.2465    5.7873 C   0  0  0  0  0  0  0  0  0  0  0  0
  -51.6511  -29.7000    7.4384 C   0  0  0  0  0  0  0  0  0  0  0  0
  -46.0504  -29.4315    4.6143 C   0  0  0  0  0  0  0  0  0  0  0  0
  -48.1527  -29.0330    5.7093 C   0  0  0  0  0  0  0  0  0  0  0  0
  -50.2992  -30.2418    7.0139 C   0  0  0  0  0  0  0  0  0  0  0  0
  -44.6243  -29.5643    6.3649 N   0  0  0  0  0  0  0  0  0  0  0  0
  -46.6685  -29.3932    3.4147 N   0  0  0  0  0  0  0  0  0  0  0  0
  -48.7538  -28.9842    4.4972 N   0  0  0  0  0  0  0  0  0  0  0  0
  -44.7354  -29.6348    4.9950 N   0  0  0  0  0  0  0  0  0  0  0  0
  -49.0975  -28.8525    7.1610 S   0  0  0  0  0  0  0  0  0  0  0  0
  -55.8570  -28.9831    4.2152 H   0  0  0  0  0  0  0  0  0  0  0  0
  -53.8786  -30.2334    3.3851 H   0  0  0  0  0  0  0  0  0  0  0  0
  -52.9379  -28.1820   10.2240 H   0  0  0  0  0  0  0  0  0  0  0  0
  -55.8683  -28.0647    6.5220 H   0  0  0  0  0  0  0  0  0  0  0  0
  -51.8956  -30.5549    4.8432 H   0  0  0  0  0  0  0  0  0  0  0  0
  -54.8144  -27.7568    8.6581 H   0  0  0  0  0  0  0  0  0  0  0  0
  -50.9383  -29.4217    9.4571 H   0  0  0  0  0  0  0  0  0  0  0  0
  -46.0349  -29.2337    7.9379 H   0  0  0  0  0  0  0  0  0  0  0  0
  -48.4986  -29.1221    2.4135 H   0  0  0  0  0  0  0  0  0  0  0  0
  -50.0007  -31.0717    7.6712 H   0  0  0  0  0  0  0  0  0  0  0  0
  -50.3431  -30.5957    5.9733 H   0  0  0  0  0  0  0  0  0  0  0  0
  -43.9769  -29.8076    4.3666 H   0  0  0  0  0  0  0  0  0  0  0  0
  1  2  1  0  0  0  0
  1  4  2  0  0  0  0
  2  5  2  0  0  0  0
  3  6  1  0  0  0  0
  3  7  2  0  0  0  0
  4 10  1  0  0  0  0
  5 11  1  0  0  0  0
  6 10  2  0  0  0  0
  7 13  1  0  0  0  0
  8 12  1  0  0  0  0
  8 17  2  0  0  0  0
  9 18  2  0  0  0  0
  9 19  1  0  0  0  0
 10 11  1  0  0  0  0
 11 13  2  0  0  0  0
 12 14  2  0  0  0  0
 12 15  1  0  0  0  0
 13 16  1  0  0  0  0
 14 18  1  0  0  0  0
 14 20  1  0  0  0  0
 15 19  2  0  0  0  0
 15 21  1  0  0  0  0
 16 21  1  0  0  0  0
 17 20  1  0  0  0  0
  1 22  1  0  0  0  0
  2 23  1  0  0  0  0
  3 24  1  0  0  0  0
  4 25  1  0  0  0  0
  5 26  1  0  0  0  0
  6 27  1  0  0  0  0
  7 28  1  0  0  0  0
  8 29  1  0  0  0  0
  9 30  1  0  0  0  0
 16 31  1  0  0  0  0
 16 32  1  0  0  0  0
 20 33  1  0  0  0  0
M  END
> <POSIT::Probability>
0.85

> <POSIT::Method>
SHAPEFIT

> <ReceptorTitle>
UCSF-P4246_LA2_MERGED(A)

> <OMEGA_C>
LAJcwucI6cFae5tANIVXwjqt7sGrcIxAVopTwqxX5MHLURNBwgpcwpDs5MHKScVAAQhTwmkx8MHz
AqdA/85XwiCI4sHOOgVBZ/9OwsHm6cFhSgxBqj03wpqw6sF8XtxABghAwiBP6cHY+ldAWpxXwoyI
5sGoYuBAZgNTwrUr7MGSh9FAVxM7wun46cGLMblAwZpOwqWZ7cGYB+5AkjM4wqZz68EMqJNAWZxA
woxD6MF5srZAajJJwh/v8cG0ceBAP38ywsGD7MECrctAgaw6wk4l68EMi1pA8ANDwq3f58Hy6I9A
DPEywgEU7cFp159A2mNEwv7R5sHBJuVAhW1fwlLd58Gv4oZArYNXwvPd8cEdpVhAZcBTwrl04cGv
lSNBGHlfwn2E4MFAtNBAH5VPwnpw9MHA+5pA8kFbwgIO3sGhhwpB18BLwrBf68FOUBdBtSM4wqbe
6cF6A/5AiP5BwiP66MHodhpArQBIwtmS+MFSevVAWF9JwvjD9MFEJb9AZOgvwul17sGRu4tA

> <OMEGA_E>
rrcFPw==

> <OMEGA_NBR>
     10189

$$$$
CACHE3HI_1717_54
  -OEChem-03092622513D

 27 29  0     0  0  0  0  0  0999 V2000
  -50.7209  -32.8779    8.9228 C   0  0  0  0  0  0  0  0  0  0  0  0
  -50.6063  -33.7319    7.8087 C   0  0  0  0  0  0  0  0  0  0  0  0
  -50.6815  -31.4793    8.7480 C   0  0  0  0  0  0  0  0  0  0  0  0
  -50.4632  -33.1874    6.5184 C   0  0  0  0  0  0  0  0  0  0  0  0
  -45.5563  -29.3027    6.8281 C   0  0  0  0  0  0  0  0  0  0  0  0
  -48.1292  -29.1919    3.5835 C   0  0  0  0  0  0  0  0  0  0  0  0
  -46.6371  -29.2357    5.8456 C   0  0  0  0  0  0  0  0  0  0  0  0
  -50.5477  -30.9248    7.4542 C   0  0  0  0  0  0  0  0  0  0  0  0
  -50.4423  -31.7898    6.3368 C   0  0  0  0  0  0  0  0  0  0  0  0
  -46.0491  -29.4356    4.6009 C   0  0  0  0  0  0  0  0  0  0  0  0
  -48.0261  -29.0171    5.9258 C   0  0  0  0  0  0  0  0  0  0  0  0
  -50.5098  -29.4104    7.2870 C   0  0  0  0  0  0  0  0  0  0  0  0
  -44.4336  -29.5281    6.1793 N   0  0  0  0  0  0  0  0  0  0  0  0
  -46.7948  -29.4230    3.4776 N   0  0  0  0  0  0  0  0  0  0  0  0
  -48.7460  -28.9718    4.7777 N   0  0  0  0  0  0  0  0  0  0  0  0
  -44.6957  -29.6152    4.8323 N   0  0  0  0  0  0  0  0  0  0  0  0
  -50.3564  -31.2966    5.0819 F   0  0  0  0  0  0  0  0  0  0  0  0
  -48.7933  -28.7351    7.4993 S   0  0  0  0  0  0  0  0  0  0  0  0
  -50.8390  -33.2947    9.9121 H   0  0  0  0  0  0  0  0  0  0  0  0
  -50.6282  -34.8031    7.9441 H   0  0  0  0  0  0  0  0  0  0  0  0
  -50.7538  -30.8283    9.6067 H   0  0  0  0  0  0  0  0  0  0  0  0
  -50.3691  -33.8426    5.6650 H   0  0  0  0  0  0  0  0  0  0  0  0
  -45.6608  -29.1876    7.8969 H   0  0  0  0  0  0  0  0  0  0  0  0
  -48.7259  -29.1822    2.6834 H   0  0  0  0  0  0  0  0  0  0  0  0
  -50.8711  -29.1543    6.2801 H   0  0  0  0  0  0  0  0  0  0  0  0
  -51.1681  -28.9526    8.0401 H   0  0  0  0  0  0  0  0  0  0  0  0
  -44.0100  -29.7835    4.1241 H   0  0  0  0  0  0  0  0  0  0  0  0
  1  2  1  0  0  0  0
  1  3  2  0  0  0  0
  2  4  2  0  0  0  0
  3  8  1  0  0  0  0
  4  9  1  0  0  0  0
  5  7  1  0  0  0  0
  5 13  2  0  0  0  0
  6 14  2  0  0  0  0
  6 15  1  0  0  0  0
  7 10  2  0  0  0  0
  7 11  1  0  0  0  0
  8  9  2  0  0  0  0
  8 12  1  0  0  0  0
  9 17  1  0  0  0  0
 10 14  1  0  0  0  0
 10 16  1  0  0  0  0
 11 15  2  0  0  0  0
 11 18  1  0  0  0  0
 12 18  1  0  0  0  0
 13 16  1  0  0  0  0
  1 19  1  0  0  0  0
  2 20  1  0  0  0  0
  3 21  1  0  0  0  0
  4 22  1  0  0  0  0
  5 23  1  0  0  0  0
  6 24  1  0  0  0  0
 12 25  1  0  0  0  0
 12 26  1  0  0  0  0
 16 27  1  0  0  0  0
M  END
> <POSIT::Probability>
0.89

> <POSIT::Method>
SHAPEFIT

> <ReceptorTitle>
UCSF-P4246-REFINED_LIGAND-BOUND-STATE_AALTB__DU__LA1_A-201(A)

> <OMEGA_C>
LOJKwvCCA8K0ww5B3WxKwnPtBsLW4PlA0blKwp7V+8HB9wtBTNpJwt6/BMKCltBAsDk2wvZr6sEu
gNpAUYRAwvWI6cHZWGVAbow6wsbi6cFCD7tAzjBKwgZm98EGie5A3sRJwpBR/sGoxspAQDI4wix8
68E4OpNAwhpAwv4i6MHqn71AFgpKwm1I68FAL+lA9bsxwo857MH4vMVA4C07wlpi68GqkV5A3PtC
wjjG58He4phAb8gywvTr7ME+oppA7mxJwmhf+sHMnqJAYyxDwnzh5cEW+u9ALFtLwsctBcLRlx5B
UoNKwmo2C8IVNv5A8ANLwlmg9sHytBlB+nlJwsxeB8KeR7VAq6Q2wkmA6cFys/xARudCwjV16cE7
vCtA/HtLwgY86cFP9shAH6xMwt2e58FLpABBRQowwoxE7sH2+INA

> <OMEGA_E>
ONO5Pg==

> <OMEGA_NBR>
     11254

$$$$
CACHE3HI_1717_6
  -OEChem-03092622513D

 27 29  0     0  0  0  0  0  0999 V2000
  -50.6138  -32.8686    8.8601 C   0  0  0  0  0  0  0  0  0  0  0  0
  -50.5744  -31.4627    8.7616 C   0  0  0  0  0  0  0  0  0  0  0  0
  -50.5111  -33.6596    7.6983 C   0  0  0  0  0  0  0  0  0  0  0  0
  -50.3389  -31.6393    6.3373 C   0  0  0  0  0  0  0  0  0  0  0  0
  -48.1277  -29.1640    3.6107 C   0  0  0  0  0  0  0  0  0  0  0  0
  -44.4235  -29.5882    6.1347 C   0  0  0  0  0  0  0  0  0  0  0  0
  -50.4470  -30.8428    7.4976 C   0  0  0  0  0  0  0  0  0  0  0  0
  -46.5795  -29.2641    5.8386 C   0  0  0  0  0  0  0  0  0  0  0  0
  -50.3702  -33.0442    6.4376 C   0  0  0  0  0  0  0  0  0  0  0  0
  -46.0279  -29.4531    4.5719 C   0  0  0  0  0  0  0  0  0  0  0  0
  -47.9609  -29.0244    5.9517 C   0  0  0  0  0  0  0  0  0  0  0  0
  -50.3977  -29.3303    7.3929 C   0  0  0  0  0  0  0  0  0  0  0  0
  -46.7989  -29.4059    3.4672 N   0  0  0  0  0  0  0  0  0  0  0  0
  -48.7140  -28.9684    4.8245 N   0  0  0  0  0  0  0  0  0  0  0  0
  -45.5517  -29.3517    6.7712 N   0  0  0  0  0  0  0  0  0  0  0  0
  -44.6804  -29.6579    4.7688 N   0  0  0  0  0  0  0  0  0  0  0  0
  -50.2666  -33.8012    5.3217 F   0  0  0  0  0  0  0  0  0  0  0  0
  -48.6643  -28.7071    7.5456 S   0  0  0  0  0  0  0  0  0  0  0  0
  -50.7226  -33.3394    9.8259 H   0  0  0  0  0  0  0  0  0  0  0  0
  -50.6418  -30.8580    9.6539 H   0  0  0  0  0  0  0  0  0  0  0  0
  -50.5403  -34.7365    7.7736 H   0  0  0  0  0  0  0  0  0  0  0  0
  -50.2320  -31.1706    5.3703 H   0  0  0  0  0  0  0  0  0  0  0  0
  -48.7452  -29.1250    2.7255 H   0  0  0  0  0  0  0  0  0  0  0  0
  -43.4553  -29.7086    6.5978 H   0  0  0  0  0  0  0  0  0  0  0  0
  -50.8046  -29.0246    6.4177 H   0  0  0  0  0  0  0  0  0  0  0  0
  -51.0080  -28.8947    8.1977 H   0  0  0  0  0  0  0  0  0  0  0  0
  -44.0029  -29.8277    4.0531 H   0  0  0  0  0  0  0  0  0  0  0  0
  1  2  1  0  0  0  0
  1  3  2  0  0  0  0
  2  7  2  0  0  0  0
  3  9  1  0  0  0  0
  4  7  1  0  0  0  0
  4  9  2  0  0  0  0
  5 13  2  0  0  0  0
  5 14  1  0  0  0  0
  6 15  2  0  0  0  0
  6 16  1  0  0  0  0
  7 12  1  0  0  0  0
  8 10  2  0  0  0  0
  8 11  1  0  0  0  0
  8 15  1  0  0  0  0
  9 17  1  0  0  0  0
 10 13  1  0  0  0  0
 10 16  1  0  0  0  0
 11 14  2  0  0  0  0
 11 18  1  0  0  0  0
 12 18  1  0  0  0  0
  1 19  1  0  0  0  0
  2 20  1  0  0  0  0
  3 21  1  0  0  0  0
  4 22  1  0  0  0  0
  5 23  1  0  0  0  0
  6 24  1  0  0  0  0
 12 25  1  0  0  0  0
 12 26  1  0  0  0  0
 16 27  1  0  0  0  0
M  END
> <POSIT::Probability>
0.99

> <POSIT::Method>
SHAPEFIT

> <ReceptorTitle>
UCSF-P4246-REFINED_LIGAND-BOUND-STATE_AALTB__DU__LA1_A-201(A)

> <OMEGA_C>
g3RKwnd5A8Lbwg1BN0xKwo+z+8FjLwxBXQtKwmSjBsJ+WPZADVtJwlEd/cGPy8pAxYJAwshP6cF3
FWdAn7Exwpq07MFwT8RAr8lJwhe+9sGc7O9AXlE6wtUc6sGe1bpAHHtJwkwtBMKoAM5AjBw4wuqf
68H1TJJA89c/wvEx6MFadL5ARZdJwouk6sHWkuxAGTI7wjc/68E7511AHdtCwka/58FxYppA6zQ2
wkXQ6sGCrdhAubgywnND7cEKmphACRFJwnM0B8JUS6pAPKhCwjmo5cG6dfFA+ONKwo5bBcISNx1B
PZFKwh7d9sE4dhpBQylKwjfyCsJcwfhAjO1Iwk9d+cFH2atAC/tCwhIA6cHabS5AL9Itwh+r7cF0
IdNA3zdLwk4y6MEkXs1APQhMwl0o58HzKQNB8wIwwg+f7sFfs4FA

> <OMEGA_E>
wGLnPA==

> <OMEGA_NBR>
     12317

$$$$
CACHE3HI_1717_61
  -OEChem-03092622513D

 27 29  0     0  0  0  0  0  0999 V2000
  -50.4190  -33.0828    6.4067 C   0  0  0  0  0  0  0  0  0  0  0  0
  -50.3816  -31.6785    6.2994 C   0  0  0  0  0  0  0  0  0  0  0  0
  -50.6164  -33.6891    7.6627 C   0  0  0  0  0  0  0  0  0  0  0  0
  -50.7238  -31.4850    8.7095 C   0  0  0  0  0  0  0  0  0  0  0  0
  -45.5205  -29.2941    6.8179 C   0  0  0  0  0  0  0  0  0  0  0  0
  -48.1476  -29.2190    3.6151 C   0  0  0  0  0  0  0  0  0  0  0  0
  -46.6179  -29.2411    5.8528 C   0  0  0  0  0  0  0  0  0  0  0  0
  -50.5386  -30.8733    7.4493 C   0  0  0  0  0  0  0  0  0  0  0  0
  -50.7726  -32.8906    8.8131 C   0  0  0  0  0  0  0  0  0  0  0  0
  -46.0469  -29.4282    4.5984 C   0  0  0  0  0  0  0  0  0  0  0  0
  -48.0090  -29.0454    5.9553 C   0  0  0  0  0  0  0  0  0  0  0  0
  -50.4830  -29.3603    7.3400 C   0  0  0  0  0  0  0  0  0  0  0  0
  -44.4061  -29.5090    6.1513 N   0  0  0  0  0  0  0  0  0  0  0  0
  -46.8099  -29.4193    3.4868 N   0  0  0  0  0  0  0  0  0  0  0  0
  -48.7516  -29.0282    4.8206 N   0  0  0  0  0  0  0  0  0  0  0  0
  -44.6885  -29.5956    4.8083 N   0  0  0  0  0  0  0  0  0  0  0  0
  -48.7492  -28.7369    7.5357 S   0  0  0  0  0  0  0  0  0  0  0  0
  -51.0330  -33.6446   10.3655 Cl  0  0  0  0  0  0  0  0  0  0  0  0
  -50.2961  -33.6949    5.5254 H   0  0  0  0  0  0  0  0  0  0  0  0
  -50.2325  -31.2162    5.3348 H   0  0  0  0  0  0  0  0  0  0  0  0
  -50.6481  -34.7656    7.7439 H   0  0  0  0  0  0  0  0  0  0  0  0
  -50.8283  -30.8752    9.5947 H   0  0  0  0  0  0  0  0  0  0  0  0
  -45.6088  -29.1776    7.8880 H   0  0  0  0  0  0  0  0  0  0  0  0
  -48.7573  -29.2106    2.7238 H   0  0  0  0  0  0  0  0  0  0  0  0
  -50.8638  -29.0578    6.3533 H   0  0  0  0  0  0  0  0  0  0  0  0
  -51.1133  -28.9205    8.1269 H   0  0  0  0  0  0  0  0  0  0  0  0
  -44.0125  -29.7559    4.0891 H   0  0  0  0  0  0  0  0  0  0  0  0
  1  2  1  0  0  0  0
  1  3  2  0  0  0  0
  2  8  2  0  0  0  0
  3  9  1  0  0  0  0
  4  8  1  0  0  0  0
  4  9  2  0  0  0  0
  5  7  1  0  0  0  0
  5 13  2  0  0  0  0
  6 14  2  0  0  0  0
  6 15  1  0  0  0  0
  7 10  2  0  0  0  0
  7 11  1  0  0  0  0
  8 12  1  0  0  0  0
  9 18  1  0  0  0  0
 10 14  1  0  0  0  0
 10 16  1  0  0  0  0
 11 15  2  0  0  0  0
 11 17  1  0  0  0  0
 12 17  1  0  0  0  0
 13 16  1  0  0  0  0
  1 19  1  0  0  0  0
  2 20  1  0  0  0  0
  3 21  1  0  0  0  0
  4 22  1  0  0  0  0
  5 23  1  0  0  0  0
  6 24  1  0  0  0  0
 12 25  1  0  0  0  0
 12 26  1  0  0  0  0
 16 27  1  0  0  0  0
M  END
> <POSIT::Probability>
0.91

> <POSIT::Method>
SHAPEFIT

> <ReceptorTitle>
UCSF-P4246-REFINED_LIGAND-BOUND-STATE_AALTB__DU__LA1_A-201(A)

> <OMEGA_C>
Bq1JwtRUBMLEA81Ax4ZJwplt/cGulMlAOHdKwqvBBsJuNPVAMeVKwlHh+8EYWgtB+xQ2wkpa6sFn
LNpAHpdAwmzA6cHoXWdAw3g6wrbt6cEcSrtAeydKwn/89sGCYO5AGRdLwvGPA8JcAg1BAzA4wuhs
68HHJZNAQQlAwuZc6MGikb5Al+5JwvXh6sEw4epA0Z8xwloS7MGd18RAYj07wqha68HSJ19AqgFD
ws456MEzQppAEsEywsTD7MFr3ZlANf9Cwizl5cEPJPFAwCFMwhaUBsLv2CVBOS9JwojHBsLoz7BA
F+5IwsG6+cHPtqpAs5dKwvoPC8LRzfdAIlBLwmkA98H2gxlBZW82wq5r6cFXavxAhgdDwmWv6cH8
US5AgHRLwkh26MGfTstAAnRMwiJd58HeBwJBwwwwwhIM7sHw2YJA

> <OMEGA_E>
UHu9Pg==

> <OMEGA_NBR>
     13383

$$$$
CACHE3HI_1717_88
  -OEChem-03092622513D

 33 35  0     0  0  0  0  0  0999 V2000
  -51.8978  -28.6000    8.6549 C   0  0  0  0  0  0  0  0  0  0  0  0
  -53.2367  -28.3026    8.3340 C   0  0  0  0  0  0  0  0  0  0  0  0
  -53.0450  -29.6291    6.3017 C   0  0  0  0  0  0  0  0  0  0  0  0
  -48.1866  -29.1547    3.6841 C   0  0  0  0  0  0  0  0  0  0  0  0
  -44.3892  -29.6218    6.0530 C   0  0  0  0  0  0  0  0  0  0  0  0
  -51.7114  -29.9678    6.6361 C   0  0  0  0  0  0  0  0  0  0  0  0
  -51.1160  -29.4250    7.8136 C   0  0  0  0  0  0  0  0  0  0  0  0
  -46.5495  -29.2310    5.8489 C   0  0  0  0  0  0  0  0  0  0  0  0
  -53.8048  -28.8012    7.1480 C   0  0  0  0  0  0  0  0  0  0  0  0
  -46.0628  -29.4964    4.5660 C   0  0  0  0  0  0  0  0  0  0  0  0
  -47.9137  -28.8979    6.0066 C   0  0  0  0  0  0  0  0  0  0  0  0
  -50.9831  -30.9235    5.7840 C   0  0  0  0  0  0  0  0  0  0  0  0
  -49.1956  -32.4945    5.7960 C   0  0  0  0  0  0  0  0  0  0  0  0
  -49.6367  -29.6415    8.1867 C   0  0  0  0  0  0  0  0  0  0  0  0
  -46.8779  -29.4588    3.4944 N   0  0  0  0  0  0  0  0  0  0  0  0
  -48.7056  -28.8572    4.9082 N   0  0  0  0  0  0  0  0  0  0  0  0
  -45.4777  -29.3209    6.7326 N   0  0  0  0  0  0  0  0  0  0  0  0
  -44.7134  -29.7341    4.7053 N   0  0  0  0  0  0  0  0  0  0  0  0
  -51.0562  -30.8017    4.5647 O   0  0  0  0  0  0  0  0  0  0  0  0
  -50.4129  -32.0031    6.3999 O   0  0  0  0  0  0  0  0  0  0  0  0
  -55.0809  -28.4892    6.8238 F   0  0  0  0  0  0  0  0  0  0  0  0
  -48.5259  -28.2911    7.5619 S   0  0  0  0  0  0  0  0  0  0  0  0
  -51.4626  -28.1925    9.5555 H   0  0  0  0  0  0  0  0  0  0  0  0
  -53.8277  -27.6909    8.9995 H   0  0  0  0  0  0  0  0  0  0  0  0
  -53.4821  -30.0091    5.3901 H   0  0  0  0  0  0  0  0  0  0  0  0
  -48.8450  -29.1482    2.8281 H   0  0  0  0  0  0  0  0  0  0  0  0
  -43.4045  -29.7591    6.4748 H   0  0  0  0  0  0  0  0  0  0  0  0
  -48.8249  -33.3581    6.3676 H   0  0  0  0  0  0  0  0  0  0  0  0
  -49.3986  -32.8009    4.7592 H   0  0  0  0  0  0  0  0  0  0  0  0
  -48.4366  -31.6983    5.8012 H   0  0  0  0  0  0  0  0  0  0  0  0
  -49.5542  -29.6843    9.2828 H   0  0  0  0  0  0  0  0  0  0  0  0
  -49.3029  -30.5972    7.7563 H   0  0  0  0  0  0  0  0  0  0  0  0
  -44.0766  -29.9501    3.9652 H   0  0  0  0  0  0  0  0  0  0  0  0
  1  2  2  0  0  0  0
  1  7  1  0  0  0  0
  2  9  1  0  0  0  0
  3  6  1  0  0  0  0
  3  9  2  0  0  0  0
  4 15  2  0  0  0  0
  4 16  1  0  0  0  0
  5 17  2  0  0  0  0
  5 18  1  0  0  0  0
  6  7  2  0  0  0  0
  6 12  1  0  0  0  0
  7 14  1  0  0  0  0
  8 10  2  0  0  0  0
  8 11  1  0  0  0  0
  8 17  1  0  0  0  0
  9 21  1  0  0  0  0
 10 15  1  0  0  0  0
 10 18  1  0  0  0  0
 11 16  2  0  0  0  0
 11 22  1  0  0  0  0
 12 19  2  0  0  0  0
 12 20  1  0  0  0  0
 13 20  1  0  0  0  0
 14 22  1  0  0  0  0
  1 23  1  0  0  0  0
  2 24  1  0  0  0  0
  3 25  1  0  0  0  0
  4 26  1  0  0  0  0
  5 27  1  0  0  0  0
 13 28  1  0  0  0  0
 13 29  1  0  0  0  0
 13 30  1  0  0  0  0
 14 31  1  0  0  0  0
 14 32  1  0  0  0  0
 18 33  1  0  0  0  0
M  END
> <POSIT::Probability>
0.91

> <POSIT::Method>
SHAPEFIT

> <ReceptorTitle>
UCSF-P4246_LA2_MERGED(A)

> <OMEGA_C>
W5dPwsnM5MGbegpBWfJUwsJr4sHtVwVBHC5UwkwI7cFip8lACb9Awss86cHgyGtAjI4xwoH57MGO
ssFActhOwg6+78EkW9RA0HZMwl5m68FMCfpApzI6whrZ6cHaKbtAKDhXwtVo5sFyvORAQkA4wpD4
68HOHJJAoac/wusu58FmNsBAuO5Lwm1j98G0FrlAWMhEwlj6AcIMeblA/ItGwuAh7cHC/AJB7oI7
wp2r68E/pF9AgtJCwn/b5sG6D51AIOk1wkKR6sHCcddAedoywl3f7cEukpZAljlMwvlp9sHmEZJA
w6ZJwjEDAMLIy8xA0lJcwuTp48HeXNpAjRpCwidU4sE0+/FAsNlNwlCK4cEw4xhBkU9XwgSH3cHh
/Q9Bp+1VwpsS8MHQe6xATWFDwn8v6cGu/zRAK54twpsS7sE1Mc9Aq0xDwrRuBcIiw8tAKJhFwhs0
A8KvS5hAF79BwjKW/cFPo7lAhjdGwnJ57cFChhRBLTZFwiLH9MHRM/hAaU4wwr+Z78FpxX1A

> <OMEGA_E>
4HGvPg==

> <OMEGA_NBR>
     14496

$$$$
CACHE3HI_1717_92
  -OEChem-03092622513D

 24 26  0     0  0  0  0  0  0999 V2000
  -50.3408  -32.9182    6.3761 C   0  0  0  0  0  0  0  0  0  0  0  0
  -49.9751  -31.5652    6.2239 C   0  0  0  0  0  0  0  0  0  0  0  0
  -50.6156  -33.4382    7.6534 C   0  0  0  0  0  0  0  0  0  0  0  0
  -50.2134  -31.2365    8.6268 C   0  0  0  0  0  0  0  0  0  0  0  0
  -45.8402  -29.5406    6.9309 C   0  0  0  0  0  0  0  0  0  0  0  0
  -48.1085  -29.0903    3.4895 C   0  0  0  0  0  0  0  0  0  0  0  0
  -46.8400  -29.3892    5.8706 C   0  0  0  0  0  0  0  0  0  0  0  0
  -49.8570  -30.7199    7.3607 C   0  0  0  0  0  0  0  0  0  0  0  0
  -50.5687  -32.5928    8.7766 C   0  0  0  0  0  0  0  0  0  0  0  0
  -46.1344  -29.4424    4.6690 C   0  0  0  0  0  0  0  0  0  0  0  0
  -48.2432  -29.1974    5.8330 C   0  0  0  0  0  0  0  0  0  0  0  0
  -44.6596  -29.6814    6.3616 N   0  0  0  0  0  0  0  0  0  0  0  0
  -46.7697  -29.3075    3.4889 N   0  0  0  0  0  0  0  0  0  0  0  0
  -48.8412  -29.0125    4.6312 N   0  0  0  0  0  0  0  0  0  0  0  0
  -44.8030  -29.6322    4.9963 N   0  0  0  0  0  0  0  0  0  0  0  0
  -49.2290  -29.0381    7.3045 S   0  0  0  0  0  0  0  0  0  0  0  0
  -50.9062  -33.3054   10.5116 Br  0  0  0  0  0  0  0  0  0  0  0  0
  -50.4100  -33.5576    5.5086 H   0  0  0  0  0  0  0  0  0  0  0  0
  -49.7835  -31.1685    5.2378 H   0  0  0  0  0  0  0  0  0  0  0  0
  -50.8619  -34.4831    7.7716 H   0  0  0  0  0  0  0  0  0  0  0  0
  -50.2136  -30.5857    9.4887 H   0  0  0  0  0  0  0  0  0  0  0  0
  -46.0362  -29.5375    7.9930 H   0  0  0  0  0  0  0  0  0  0  0  0
  -48.6139  -28.9742    2.5421 H   0  0  0  0  0  0  0  0  0  0  0  0
  -44.0564  -29.7205    4.3368 H   0  0  0  0  0  0  0  0  0  0  0  0
  1  2  1  0  0  0  0
  1  3  2  0  0  0  0
  2  8  2  0  0  0  0
  3  9  1  0  0  0  0
  4  8  1  0  0  0  0
  4  9  2  0  0  0  0
  5  7  1  0  0  0  0
  5 12  2  0  0  0  0
  6 13  2  0  0  0  0
  6 14  1  0  0  0  0
  7 10  2  0  0  0  0
  7 11  1  0  0  0  0
  8 16  1  0  0  0  0
  9 17  1  0  0  0  0
 10 13  1  0  0  0  0
 10 15  1  0  0  0  0
 11 14  2  0  0  0  0
 11 16  1  0  0  0  0
 12 15  1  0  0  0  0
  1 18  1  0  0  0  0
  2 19  1  0  0  0  0
  3 20  1  0  0  0  0
  4 21  1  0  0  0  0
  5 22  1  0  0  0  0
  6 23  1  0  0  0  0
 15 24  1  0  0  0  0
M  END
> <POSIT::Probability>
0.85

> <POSIT::Method>
SHAPEFIT

> <ReceptorTitle>
UCSF-P4246-REFINED_LIGAND-BOUND-STATE_AALTB__DU__LA1_A-201(A)

> <OMEGA_C>
7lxJwjSsA8JOCcxAfOZHwnGF/MEjKsdAZHZKwsDABcLX6PRAgNpIwlXk+cGQBwpBalw3wjdT7MFE
yt1AJm9AwvO46MG6U19ANVw7whAd68GT27tAmW1HwkzC9cGdiutATkZKwglfAsIAbQxBn4k4wgOK
68GpaJVA//hAwliU6cFFqLpAaaMywoVz7cEskstANxQ7wsN16sFgSV9AY11Dwp8Z6MEXM5RARjYz
wtYO7cGA4Z9AhepEwgdO6MGrvulA6Z9LwsQ4BcJdLyhB4aNJwgM7BsIiRrBAUyJHwihZ+cEBnKdA
mHJLwrbuCcLKsPhAudpIwoSv9MHp0RdBHSU4wsNM7MGuxv9AmXRCwj3L58FvsSJAzTkwwpnD7cFV
x4pA

> <OMEGA_E>
QMEIPw==

> <OMEGA_NBR>
     15502

$$$$
CACHE3HI_1689_70
  -OEChem-03092622503D

 39 41  0     1  0  0  0  0  0999 V2000
  -47.1589  -29.4262    6.0669 C   0  0  0  0  0  0  0  0  0  0  0  0
  -45.8483  -29.4750    5.5096 C   0  0  0  0  0  0  0  0  0  0  0  0
  -48.1358  -29.4625    5.0964 C   0  0  0  0  0  0  0  0  0  0  0  0
  -45.8739  -29.5468    4.1337 C   0  0  0  0  0  0  0  0  0  0  0  0
  -49.6115  -29.4328    5.2597 C   0  0  0  0  0  0  0  0  0  0  0  0
  -44.7787  -29.6106    3.2209 C   0  0  0  0  0  0  0  0  0  0  0  0
  -51.8061  -29.5233    8.3864 C   0  0  0  0  0  0  0  0  0  0  0  0
  -42.9915  -30.8536    1.0113 C   0  0  0  0  0  0  0  0  0  0  0  0
  -52.9812  -30.4228    7.9550 C   0  0  0  0  0  0  0  0  0  0  0  0
  -41.9620  -29.8448    0.4648 C   0  0  0  0  0  0  0  0  0  0  0  0
  -51.4821  -29.3453    6.8876 C   0  0  2  0  0  0  0  0  0  0  0  0
  -44.0684  -29.7700    0.7898 C   0  0  2  0  0  0  0  0  0  0  0  0
  -52.2073  -30.6943    6.6436 C   0  0  2  0  0  0  0  0  0  0  0  0
  -42.9320  -28.7199    0.8965 C   0  0  2  0  0  0  0  0  0  0  0  0
  -50.0639  -29.3587    6.5619 N   0  0  0  0  0  0  0  0  0  0  0  0
  -45.0704  -29.6788    1.8411 N   0  0  0  0  0  0  0  0  0  0  0  0
  -50.3268  -29.4936    4.2632 O   0  0  0  0  0  0  0  0  0  0  0  0
  -43.5873  -29.6263    3.6228 O   0  0  0  0  0  0  0  0  0  0  0  0
  -53.0051  -30.7737    5.4498 O   0  0  0  0  0  0  0  0  0  0  0  0
  -43.0264  -27.5967    0.0036 O   0  0  0  0  0  0  0  0  0  0  0  0
  -47.4726  -29.5553    3.5201 S   0  0  0  0  0  0  0  0  0  0  0  0
  -47.3688  -29.3658    7.1275 H   0  0  0  0  0  0  0  0  0  0  0  0
  -44.9359  -29.4573    6.0924 H   0  0  0  0  0  0  0  0  0  0  0  0
  -52.0848  -28.6124    8.9228 H   0  0  0  0  0  0  0  0  0  0  0  0
  -51.0379  -30.0534    8.9620 H   0  0  0  0  0  0  0  0  0  0  0  0
  -43.1106  -31.7676    0.4233 H   0  0  0  0  0  0  0  0  0  0  0  0
  -42.8231  -31.1257    2.0601 H   0  0  0  0  0  0  0  0  0  0  0  0
  -53.1584  -31.2953    8.5894 H   0  0  0  0  0  0  0  0  0  0  0  0
  -53.9263  -29.8860    7.8143 H   0  0  0  0  0  0  0  0  0  0  0  0
  -40.9909  -29.8509    0.9667 H   0  0  0  0  0  0  0  0  0  0  0  0
  -41.8048  -29.9094   -0.6179 H   0  0  0  0  0  0  0  0  0  0  0  0
  -51.9891  -28.4871    6.4282 H   0  0  0  0  0  0  0  0  0  0  0  0
  -44.5373  -29.8105   -0.2005 H   0  0  0  0  0  0  0  0  0  0  0  0
  -51.5502  -31.5707    6.7224 H   0  0  0  0  0  0  0  0  0  0  0  0
  -42.7409  -28.3770    1.9221 H   0  0  0  0  0  0  0  0  0  0  0  0
  -49.4213  -29.3751    7.3412 H   0  0  0  0  0  0  0  0  0  0  0  0
  -46.0432  -29.7278    1.5573 H   0  0  0  0  0  0  0  0  0  0  0  0
  -53.6229  -31.5024    5.5939 H   0  0  0  0  0  0  0  0  0  0  0  0
  -42.1358  -27.2259   -0.0485 H   0  0  0  0  0  0  0  0  0  0  0  0
  1  2  1  0  0  0  0
  1  3  2  0  0  0  0
  2  4  2  0  0  0  0
  3  5  1  0  0  0  0
  3 21  1  0  0  0  0
  4  6  1  0  0  0  0
  4 21  1  0  0  0  0
  5 15  1  0  0  0  0
  5 17  2  0  0  0  0
  6 16  1  0  0  0  0
  6 18  2  0  0  0  0
  7  9  1  0  0  0  0
  7 11  1  0  0  0  0
  8 10  1  0  0  0  0
  8 12  1  0  0  0  0
  9 13  1  0  0  0  0
 10 14  1  0  0  0  0
 11 13  1  0  0  0  0
 11 15  1  0  0  0  0
 12 14  1  0  0  0  0
 12 16  1  0  0  0  0
 13 19  1  0  0  0  0
 14 20  1  0  0  0  0
  1 22  1  0  0  0  0
  2 23  1  0  0  0  0
  7 24  1  0  0  0  0
  7 25  1  0  0  0  0
  8 26  1  0  0  0  0
  8 27  1  0  0  0  0
  9 28  1  0  0  0  0
  9 29  1  0  0  0  0
 10 30  1  0  0  0  0
 10 31  1  0  0  0  0
 11 32  1  0  0  0  0
 12 33  1  0  0  0  0
 13 34  1  0  0  0  0
 14 35  1  0  0  0  0
 15 36  1  0  0  0  0
 16 37  1  0  0  0  0
 19 38  1  0  0  0  0
 20 39  1  0  0  0  0
M  END
> <POSIT::Probability>
0.18

> <POSIT::Method>
FRED

> <ReceptorTitle>
UCSF-P4250-REFINED_LIGAND-BOUND-STATE_A__DU__LA1_A-201(A)

> <OMEGA_C>
uaI8wulo68FFJMJAs2Q3wszM68HlTrBACotAwj6z68GsFaNA5X43wtVf7MGaR4RALXJGwmN268FC
T6hAZh0zwpji7MGJI05AbTlPwssv7MGRLgZBTvcrwj/U9sHEcIE/xOxTwvhh88Gxj/5AIdknwjrC
7sEQ+O0+te1NwhrD6sFcZ9xA/0UwwvIo7sHwMko/PNRQwtuN9cEbmNRAa7orwnDC5cGQfmU/bkFI
wq3e6sFS+9FAGkg0whtu7cE4qus/sE5Jwufy68FGbIhAb1kuwsMC7cGx22dAMwVUwpUw9sGnZK5A
FRsswvbF3MEAYGk78eM9witx7MGJSWFApXk9wj3t6sEsFORAZL4zwoWo68FW9cJAzFZQwjTm5MGW
ww5BziZMwltt8MGLZA9BPHEswv0j/sGAt9g+4EorwloB+cEJ2QNAKaJUwtRc+sEobglBh7RXwo4W
78GoDvpAsfYjwrHO7sHodnc/FTgnwndG78EwMB6/4/RPwqfl48Hds81AKiYywv977sGgSU2+ZzNO
wrqQ/MGIHddAt/YqwicE48G0BvY/bq9Fwi0A68Hn6upANiw4wn/S7cGQVMc/3H1WwtkE/MHwALNA
D4sowrTO2cEAg0a9

> <OMEGA_E>
VtfywA==

> <OMEGA_NBR>
      1281

$$$$
CACHE3HI_1691_63
  -OEChem-03092622503D

 43 45  0     0  0  0  0  0  0999 V2000
  -41.9618  -29.5832    1.1163 C   0  0  0  0  0  0  0  0  0  0  0  0
  -41.6078  -30.8480    0.6465 C   0  0  0  0  0  0  0  0  0  0  0  0
  -43.3069  -29.2269    1.2124 C   0  0  0  0  0  0  0  0  0  0  0  0
  -42.5985  -31.7563    0.2732 C   0  0  0  0  0  0  0  0  0  0  0  0
  -44.2976  -30.1352    0.8390 C   0  0  0  0  0  0  0  0  0  0  0  0
  -49.4300  -29.3052    4.4004 C   0  0  0  0  0  0  0  0  0  0  0  0
  -43.9437  -31.4000    0.3693 C   0  0  0  0  0  0  0  0  0  0  0  0
  -50.6112  -29.4415    5.0854 C   0  0  0  0  0  0  0  0  0  0  0  0
  -50.7792  -29.5289    6.5019 C   0  0  0  0  0  0  0  0  0  0  0  0
  -49.1584  -30.2727    0.8377 C   0  0  0  0  0  0  0  0  0  0  0  0
  -47.4141  -28.9801    2.0962 C   0  0  0  0  0  0  0  0  0  0  0  0
  -48.4573  -31.5660    1.2399 C   0  0  0  0  0  0  0  0  0  0  0  0
  -46.6971  -30.2932    2.4169 C   0  0  0  0  0  0  0  0  0  0  0  0
  -48.9331  -29.1368    1.8605 C   0  0  0  0  0  0  0  0  0  0  0  0
  -45.0076  -32.3748   -0.0315 C   0  0  0  0  0  0  0  0  0  0  0  0
  -51.6532  -29.4862    4.2014 N   0  0  0  0  0  0  0  0  0  0  0  0
  -51.1523  -29.3811    2.9754 N   0  0  0  0  0  0  0  0  0  0  0  0
  -49.8193  -29.2726    3.0965 N   0  0  0  0  0  0  0  0  0  0  0  0
  -46.9957  -31.3081    1.3679 N   0  0  0  0  0  0  0  0  0  0  0  0
  -49.6393  -29.4735    7.3190 N   0  0  0  0  0  0  0  0  0  0  0  0
  -51.9096  -29.6361    7.0408 O   0  0  0  0  0  0  0  0  0  0  0  0
  -46.8240  -33.8614    1.1161 O   0  0  0  0  0  0  0  0  0  0  0  0
  -45.1502  -32.6416    2.5633 O   0  0  0  0  0  0  0  0  0  0  0  0
  -46.0042  -32.7050    1.3984 S   0  0  0  0  0  0  0  0  0  0  0  0
  -41.1906  -28.8760    1.4069 H   0  0  0  0  0  0  0  0  0  0  0  0
  -40.5605  -31.1258    0.5720 H   0  0  0  0  0  0  0  0  0  0  0  0
  -43.5827  -28.2421    1.5779 H   0  0  0  0  0  0  0  0  0  0  0  0
  -42.3131  -32.7394   -0.0918 H   0  0  0  0  0  0  0  0  0  0  0  0
  -45.3430  -29.8488    0.9184 H   0  0  0  0  0  0  0  0  0  0  0  0
  -48.3966  -29.2329    4.7096 H   0  0  0  0  0  0  0  0  0  0  0  0
  -48.8052  -29.9540   -0.1564 H   0  0  0  0  0  0  0  0  0  0  0  0
  -50.2406  -30.4593    0.7288 H   0  0  0  0  0  0  0  0  0  0  0  0
  -47.2432  -28.2600    2.9232 H   0  0  0  0  0  0  0  0  0  0  0  0
  -46.9453  -28.5142    1.2067 H   0  0  0  0  0  0  0  0  0  0  0  0
  -48.8556  -31.9016    2.2017 H   0  0  0  0  0  0  0  0  0  0  0  0
  -48.6326  -32.3491    0.4962 H   0  0  0  0  0  0  0  0  0  0  0  0
  -45.6127  -30.1337    2.4820 H   0  0  0  0  0  0  0  0  0  0  0  0
  -47.0482  -30.6585    3.3900 H   0  0  0  0  0  0  0  0  0  0  0  0
  -49.3197  -28.1787    1.3834 H   0  0  0  0  0  0  0  0  0  0  0  0
  -44.5855  -33.3221   -0.3786 H   0  0  0  0  0  0  0  0  0  0  0  0
  -45.6573  -31.9737   -0.8142 H   0  0  0  0  0  0  0  0  0  0  0  0
  -48.7097  -29.3572    6.9307 H   0  0  0  0  0  0  0  0  0  0  0  0
  -49.6943  -29.5132    8.3313 H   0  0  0  0  0  0  0  0  0  0  0  0
  1  2  1  0  0  0  0
  1  3  2  0  0  0  0
  2  4  2  0  0  0  0
  3  5  1  0  0  0  0
  4  7  1  0  0  0  0
  5  7  2  0  0  0  0
  6  8  2  0  0  0  0
  6 18  1  0  0  0  0
  7 15  1  0  0  0  0
  8  9  1  0  0  0  0
  8 16  1  0  0  0  0
  9 20  1  0  0  0  0
  9 21  2  0  0  0  0
 10 12  1  0  0  0  0
 10 14  1  0  0  0  0
 11 13  1  0  0  0  0
 11 14  1  0  0  0  0
 12 19  1  0  0  0  0
 13 19  1  0  0  0  0
 14 18  1  0  0  0  0
 15 24  1  0  0  0  0
 16 17  2  0  0  0  0
 17 18  1  0  0  0  0
 19 24  1  0  0  0  0
 22 24  2  0  0  0  0
 23 24  2  0  0  0  0
  1 25  1  0  0  0  0
  2 26  1  0  0  0  0
  3 27  1  0  0  0  0
  4 28  1  0  0  0  0
  5 29  1  0  0  0  0
  6 30  1  0  0  0  0
 10 31  1  0  0  0  0
 10 32  1  0  0  0  0
 11 33  1  0  0  0  0
 11 34  1  0  0  0  0
 12 35  1  0  0  0  0
 12 36  1  0  0  0  0
 13 37  1  0  0  0  0
 13 38  1  0  0  0  0
 14 39  1  0  0  0  0
 15 40  1  0  0  0  0
 15 41  1  0  0  0  0
 20 42  1  0  0  0  0
 20 43  1  0  0  0  0
M  END
> <POSIT::Probability>
0.24

> <POSIT::Method>
FRED

> <ReceptorTitle>
UCSF-P4250-REFINED_LIGAND-BOUND-STATE_A__DU__LA1_A-201(A)

> <OMEGA_C>
6dgnwmuq7MHQ4o4/aG4mwrbI9sEwgiU/RDotwqDQ6cFCL5s/6WQqwvsM/sGA3Ys+xTAxwuQU8cEQ
y1Y/SLhFwghx6sE00IxAUsYvwhoz+8HQEL0+2nFKwjGI68Fwu6JA3R1LwiE77MFPD9BALqJEwoYu
8sFAcVY/A6g9wkrX58FFKAZAPdRBwi2H/MHMtZ4/1Mk6wm5Y8sGsrhpAfbtDwjIY6cFiI+4/zAc0
ws5/AcKADAG93JxOwsnj68HncYZA+ZtMwm0M68EvbT5AAUdHwkAu6sG/LUZAkPs7whN3+sHQF68/
oI5GwsHJ68EONepAZ6NPws8W7cFHTuFAw0s7wh1yB8LQ2o4/25k0wguRAsISDSRAUwQ4wu7RAsKe
/bI/KsMkwhIC58EQFrQ/+D0iwo8B+cEYcBI/ulQuws/v4cF0+ck/kUApwjL1AsIAAby9N181wkrK
7sH4HGs/GpZBwujc6cHntJZAezhDwtyh78EgKSC+X/ZIwqys88HAkTo/Dvk8wnsU4sHIFTtAB8g7
wg0d5MEsdZo/IGxDwnQ2/8Gz6AxAyodCwn1lAcLQCP4+dHM2wt8R8cGr2R5AXDE8wpNE9cFH9VhA
ZkdFwuZt4cFIFLE/lFcywtFJBcJA2cG+HaE2whrK/8G4bVC/ttZCwnPb6sFZyN1A9cZGwhkb7MHW
TAVB

> <OMEGA_E>
DQ/swA==

> <OMEGA_NBR>
      2630

$$$$
CACHE3HI_1695_32
  -OEChem-03092622503D

 39 41  0     0  0  0  0  0  0999 V2000
  -45.0421  -29.2127    1.0626 C   0  0  0  0  0  0  0  0  0  0  0  0
  -44.6146  -30.1286    3.2571 C   0  0  0  0  0  0  0  0  0  0  0  0
  -46.4098  -29.4183    1.2440 C   0  0  0  0  0  0  0  0  0  0  0  0
  -45.9822  -30.3342    3.4385 C   0  0  0  0  0  0  0  0  0  0  0  0
  -44.9099  -31.8446    0.4723 C   0  0  0  0  0  0  0  0  0  0  0  0
  -44.1445  -29.5678    2.0695 C   0  0  0  0  0  0  0  0  0  0  0  0
  -46.8798  -29.9791    2.4317 C   0  0  0  0  0  0  0  0  0  0  0  0
  -43.5962  -31.9750    0.8764 C   0  0  0  0  0  0  0  0  0  0  0  0
  -42.4590  -31.2364    0.3013 C   0  0  0  0  0  0  0  0  0  0  0  0
  -42.0325  -30.0404    0.7343 C   0  0  0  0  0  0  0  0  0  0  0  0
  -42.7186  -29.3531    1.8812 C   0  0  0  0  0  0  0  0  0  0  0  0
  -50.1270  -29.4431    5.5026 C   0  0  0  0  0  0  0  0  0  0  0  0
  -51.2486  -29.3563    4.4683 C   0  0  0  0  0  0  0  0  0  0  0  0
  -48.9312  -28.7105    4.9000 C   0  0  0  0  0  0  0  0  0  0  0  0
  -50.6829  -28.5729    3.2872 C   0  0  0  0  0  0  0  0  0  0  0  0
  -49.1744  -28.7333    3.3989 C   0  0  0  0  0  0  0  0  0  0  0  0
  -43.3742  -32.8793    1.9029 N   0  0  0  0  0  0  0  0  0  0  0  0
  -44.5003  -33.4508    2.2983 N   0  0  0  0  0  0  0  0  0  0  0  0
  -42.0842  -28.5992    2.6345 O   0  0  0  0  0  0  0  0  0  0  0  0
  -49.2283  -30.3435    1.3498 O   0  0  0  0  0  0  0  0  0  0  0  0
  -48.7580  -31.3119    3.6279 O   0  0  0  0  0  0  0  0  0  0  0  0
  -45.8373  -32.9111    1.4452 S   0  0  0  0  0  0  0  0  0  0  0  0
  -48.6127  -30.2393    2.6607 S   0  0  0  0  0  0  0  0  0  0  0  0
  -44.6869  -28.7745    0.1334 H   0  0  0  0  0  0  0  0  0  0  0  0
  -43.9235  -30.4094    4.0479 H   0  0  0  0  0  0  0  0  0  0  0  0
  -47.1010  -29.1379    0.4537 H   0  0  0  0  0  0  0  0  0  0  0  0
  -46.3378  -30.7716    4.3675 H   0  0  0  0  0  0  0  0  0  0  0  0
  -45.3455  -31.2194   -0.2944 H   0  0  0  0  0  0  0  0  0  0  0  0
  -41.9700  -31.7220   -0.5398 H   0  0  0  0  0  0  0  0  0  0  0  0
  -41.1758  -29.5455    0.2931 H   0  0  0  0  0  0  0  0  0  0  0  0
  -50.4222  -29.0003    6.4594 H   0  0  0  0  0  0  0  0  0  0  0  0
  -49.8769  -30.4931    5.6935 H   0  0  0  0  0  0  0  0  0  0  0  0
  -51.5434  -30.3640    4.1536 H   0  0  0  0  0  0  0  0  0  0  0  0
  -52.1404  -28.8697    4.8765 H   0  0  0  0  0  0  0  0  0  0  0  0
  -48.9301  -27.6729    5.2560 H   0  0  0  0  0  0  0  0  0  0  0  0
  -47.9820  -29.1669    5.1970 H   0  0  0  0  0  0  0  0  0  0  0  0
  -51.0910  -28.9220    2.3337 H   0  0  0  0  0  0  0  0  0  0  0  0
  -50.9489  -27.5145    3.3984 H   0  0  0  0  0  0  0  0  0  0  0  0
  -48.6392  -27.9283    2.8863 H   0  0  0  0  0  0  0  0  0  0  0  0
  1  3  1  0  0  0  0
  1  6  2  0  0  0  0
  2  4  2  0  0  0  0
  2  6  1  0  0  0  0
  3  7  2  0  0  0  0
  4  7  1  0  0  0  0
  5  8  2  0  0  0  0
  5 22  1  0  0  0  0
  6 11  1  0  0  0  0
  7 23  1  0  0  0  0
  8  9  1  0  0  0  0
  8 17  1  0  0  0  0
  9 10  2  0  0  0  0
 10 11  1  0  0  0  0
 11 19  2  0  0  0  0
 12 13  1  0  0  0  0
 12 14  1  0  0  0  0
 13 15  1  0  0  0  0
 14 16  1  0  0  0  0
 15 16  1  0  0  0  0
 16 23  1  0  0  0  0
 17 18  2  0  0  0  0
 18 22  1  0  0  0  0
 20 23  2  0  0  0  0
 21 23  2  0  0  0  0
  1 24  1  0  0  0  0
  2 25  1  0  0  0  0
  3 26  1  0  0  0  0
  4 27  1  0  0  0  0
  5 28  1  0  0  0  0
  9 29  1  0  0  0  0
 10 30  1  0  0  0  0
 12 31  1  0  0  0  0
 12 32  1  0  0  0  0
 13 33  1  0  0  0  0
 13 34  1  0  0  0  0
 14 35  1  0  0  0  0
 14 36  1  0  0  0  0
 15 37  1  0  0  0  0
 15 38  1  0  0  0  0
 16 39  1  0  0  0  0
M  END
> <POSIT::Probability>
0.18

> <POSIT::Method>
FRED

> <ReceptorTitle>
UCSF-P4250-REFINED_LIGAND-BOUND-STATE_A__DU__LA1_A-201(A)

> <OMEGA_C>
ISs0wpKz6cGgBIg/UXUywmEH8cEIdVBAoqM5wp9Y68H0Op8/xu03wnCs8sGeEFxAxKMzwsbB/sFA
0PE+A5QwwtyK7MEXcgRA8YQ7wiTV78FqoBtAd2IuwsjM/8FWXmA/EdYpwhzk+cHIQZo+SiEowrxS
8MFI/Ts/2d8qwjrT6sG+zPA/EoJIwoWL68GrFbBAi/5MwqrZ6sFY/I5AmblDwhSv5cH0zJxAT7tK
wkiV5MFDYVJAmbJEwtDd5cFciFlAL38twl+EA8L3kfM/WQAywqTNBcKxFxNAL1YowiPL5MHumyhA
1OlEwou/8sFWxqw/LQhDwtZ++sHRLmhAXFk3wvukA8L2/Lg/b3NCwgzq8cGXSSpAYb8ywjIy5sHA
oQg+q7EvwndG88FWiIFAa2c8wmwa6cHARug+6lk5wiYs9sGawotA0mE1wmbB+cEotpa+ReEnwp/G
/cF8Mwq/B7QkwkZd7MFAD5Y+TLBJwpcA6MGWs85A/IFHwtTx88FuMbZAeyxOwnzp8sGQ6oRAuY9Q
wiH15sETDJxAdrhDwhRi3cE6MahAhu0/wrpV6cHsTaZAMl1Mwkxg58HsWhVAqMtLwqod3MHcfllA
hI5CwkJt38GouDhA

> <OMEGA_E>
wCIAwQ==

> <OMEGA_NBR>
      3899

$$$$
CACHE3HI_1695_58
  -OEChem-03092622503D

 41 43  0     0  0  0  0  0  0999 V2000
  -47.8602  -29.0433    4.2449 C   0  0  0  0  0  0  0  0  0  0  0  0
  -44.6411  -28.0622    0.6411 C   0  0  0  0  0  0  0  0  0  0  0  0
  -48.8494  -28.4878    5.0315 C   0  0  0  0  0  0  0  0  0  0  0  0
  -48.2441  -30.3216    3.7737 C   0  0  0  0  0  0  0  0  0  0  0  0
  -49.4903  -30.7013    4.2029 C   0  0  0  0  0  0  0  0  0  0  0  0
  -44.4480  -29.3825    0.9615 C   0  0  0  0  0  0  0  0  0  0  0  0
  -50.1159  -31.9629    3.8627 C   0  0  0  0  0  0  0  0  0  0  0  0
  -48.1437  -32.3543    2.6642 C   0  0  0  0  0  0  0  0  0  0  0  0
  -45.5592  -31.5952    1.4579 C   0  0  0  0  0  0  0  0  0  0  0  0
  -49.1687  -31.9008   -0.3532 C   0  0  0  0  0  0  0  0  0  0  0  0
  -43.1912  -26.0502    1.0624 C   0  0  0  0  0  0  0  0  0  0  0  0
  -47.3454  -33.2882    1.7845 C   0  0  0  0  0  0  0  0  0  0  0  0
  -47.8273  -31.7015   -1.0444 C   0  0  0  0  0  0  0  0  0  0  0  0
  -46.7524  -32.6512   -0.5291 C   0  0  0  0  0  0  0  0  0  0  0  0
  -43.2545  -29.5282    1.6123 N   0  0  0  0  0  0  0  0  0  0  0  0
  -42.6933  -28.3279    1.7080 N   0  0  0  0  0  0  0  0  0  0  0  0
  -49.3241  -32.7651    3.0481 N   0  0  0  0  0  0  0  0  0  0  0  0
  -43.5258  -27.4501    1.1252 N   0  0  0  0  0  0  0  0  0  0  0  0
  -47.5312  -31.1506    2.9840 N   0  0  0  0  0  0  0  0  0  0  0  0
  -45.3214  -30.4620    0.6767 N   0  0  0  0  0  0  0  0  0  0  0  0
  -46.5193  -32.5020    0.9171 N   0  0  0  0  0  0  0  0  0  0  0  0
  -51.2299  -32.3017    4.2478 O   0  0  0  0  0  0  0  0  0  0  0  0
  -45.0193  -31.8170    2.5438 O   0  0  0  0  0  0  0  0  0  0  0  0
  -50.2172  -29.5199    5.1832 S   0  0  0  0  0  0  0  0  0  0  0  0
  -46.9218  -28.5487    4.0298 H   0  0  0  0  0  0  0  0  0  0  0  0
  -45.4332  -27.5292    0.1341 H   0  0  0  0  0  0  0  0  0  0  0  0
  -48.8383  -27.5265    5.5255 H   0  0  0  0  0  0  0  0  0  0  0  0
  -49.0570  -31.7747    0.7284 H   0  0  0  0  0  0  0  0  0  0  0  0
  -49.5600  -32.9061   -0.5389 H   0  0  0  0  0  0  0  0  0  0  0  0
  -49.9090  -31.1737   -0.7011 H   0  0  0  0  0  0  0  0  0  0  0  0
  -43.5725  -25.5171    1.9398 H   0  0  0  0  0  0  0  0  0  0  0  0
  -43.6222  -25.6023    0.1616 H   0  0  0  0  0  0  0  0  0  0  0  0
  -42.1056  -25.9083    1.0439 H   0  0  0  0  0  0  0  0  0  0  0  0
  -46.7424  -33.9290    2.4205 H   0  0  0  0  0  0  0  0  0  0  0  0
  -48.0321  -33.8974    1.2054 H   0  0  0  0  0  0  0  0  0  0  0  0
  -47.9568  -31.8311   -2.1253 H   0  0  0  0  0  0  0  0  0  0  0  0
  -47.4974  -30.6693   -0.8787 H   0  0  0  0  0  0  0  0  0  0  0  0
  -45.7989  -32.4882   -1.0411 H   0  0  0  0  0  0  0  0  0  0  0  0
  -47.0574  -33.6888   -0.6983 H   0  0  0  0  0  0  0  0  0  0  0  0
  -46.6039  -30.9305    2.6332 H   0  0  0  0  0  0  0  0  0  0  0  0
  -45.8757  -30.3437   -0.1650 H   0  0  0  0  0  0  0  0  0  0  0  0
  1  3  2  0  0  0  0
  1  4  1  0  0  0  0
  2  6  2  0  0  0  0
  2 18  1  0  0  0  0
  3 24  1  0  0  0  0
  4  5  2  0  0  0  0
  4 19  1  0  0  0  0
  5  7  1  0  0  0  0
  5 24  1  0  0  0  0
  6 15  1  0  0  0  0
  6 20  1  0  0  0  0
  7 17  1  0  0  0  0
  7 22  2  0  0  0  0
  8 12  1  0  0  0  0
  8 17  2  0  0  0  0
  8 19  1  0  0  0  0
  9 20  1  0  0  0  0
  9 21  1  0  0  0  0
  9 23  2  0  0  0  0
 10 13  1  0  0  0  0
 11 18  1  0  0  0  0
 12 21  1  0  0  0  0
 13 14  1  0  0  0  0
 14 21  1  0  0  0  0
 15 16  2  0  0  0  0
 16 18  1  0  0  0  0
  1 25  1  0  0  0  0
  2 26  1  0  0  0  0
  3 27  1  0  0  0  0
 10 28  1  0  0  0  0
 10 29  1  0  0  0  0
 10 30  1  0  0  0  0
 11 31  1  0  0  0  0
 11 32  1  0  0  0  0
 11 33  1  0  0  0  0
 12 34  1  0  0  0  0
 12 35  1  0  0  0  0
 13 36  1  0  0  0  0
 13 37  1  0  0  0  0
 14 38  1  0  0  0  0
 14 39  1  0  0  0  0
 19 40  1  0  0  0  0
 20 41  1  0  0  0  0
M  END
> <POSIT::Probability>
0.24

> <POSIT::Method>
FRED

> <ReceptorTitle>
UCSF-P4250-REFINED_LIGAND-BOUND-STATE_A__DU__LA1_A-201(A)

> <OMEGA_C>
2nA/wrpY6MFW1odAfpAywl9/4MEsHyQ/0GVDwgDn48H+AaFA/PlAwqaS8sEihHFAHPZFwkmc9cFL
foZAycoxwkMP68GIJ3Y/qXZIwviz/8HDNndAL5NAwsJqAcLCgipAlDw2wgLD/MGqm7o/waxEwsc0
/8FA07S+wsMswstm0MF4/Ic/pWE9whUnBcLLauQ/Mk8/wr2c/cHkroW/fQI7wtmaAsLQcwe/pQQt
wtA57MFGYM4/5cUqwouf4sEonto/5UtFwnAPA8KBFENAchouwuWZ28E6BZA/6h8+wmI0+cF7+j5A
H0k1wkKy88H0OS0/xBM6wg0CAsL8x2o/autMwvY0AcJa7odAvRM0wlCJ/sFNzSJAct5Iwroo7MHU
3KVA5K87wq5j5MFO9IBApLs1wrw73MGgXAk+YlpDwjs23ME+0bBAaTpEwo4y/sF0eDo/aT1Gwtyf
A8II9Am/26JHwrRj+cHYejO/NkouwgIjzMGcS/g/K30uwnLRzMHggCU+J2wowk1Ez8EKn4U/RPg6
wkC3B8Ji6RpA4iBAwuSWB8KSS5o/ytM/wg2m/sGkBAjASv09wrRa9cEw9GC/FTI3wvHzAcKIQYW/
0jo8wlXBBsKoxTK/XWo6wpBx98E5hihArIA3wvC/8sEA6yi+

> <OMEGA_E>
PI3dwA==

> <OMEGA_NBR>
      5210

$$$$
CACHE3HI_1700_72
  -OEChem-03092622503D

 45 48  0     1  0  0  0  0  0999 V2000
  -47.7564  -29.6143    5.4154 C   0  0  0  0  0  0  0  0  0  0  0  0
  -50.7583  -29.0906    5.2373 C   0  0  0  0  0  0  0  0  0  0  0  0
  -46.4043  -29.8770    5.3329 C   0  0  0  0  0  0  0  0  0  0  0  0
  -51.9961  -28.9601    4.6516 C   0  0  0  0  0  0  0  0  0  0  0  0
  -50.6178  -29.4794    3.0453 C   0  0  0  0  0  0  0  0  0  0  0  0
  -49.8635  -29.4278    4.1942 C   0  0  0  0  0  0  0  0  0  0  0  0
  -48.4520  -29.6827    4.2258 C   0  0  0  0  0  0  0  0  0  0  0  0
  -46.5566  -30.2191    3.0905 C   0  0  0  0  0  0  0  0  0  0  0  0
  -45.4960  -33.8856    0.2785 C   0  0  0  0  0  0  0  0  0  0  0  0
  -42.2393  -28.9135    0.5199 C   0  0  0  0  0  0  0  0  0  0  0  0
  -43.5009  -28.3398   -0.1252 C   0  0  0  0  0  0  0  0  0  0  0  0
  -42.3036  -30.4386    0.6941 C   0  0  0  0  0  0  0  0  0  0  0  0
  -44.7801  -28.6752    0.6617 C   0  0  0  0  0  0  0  0  0  0  0  0
  -43.8658  -32.3572    1.3651 C   0  0  0  0  0  0  0  0  0  0  0  0
  -46.3271  -31.7045    1.0914 C   0  0  0  0  0  0  0  0  0  0  0  0
  -45.3292  -32.8442    1.3439 C   0  0  1  0  0  0  0  0  0  0  0  0
  -43.7477  -30.9559    0.7546 C   0  0  1  0  0  0  0  0  0  0  0  0
  -44.6274  -29.9401    1.5220 C   0  0  2  0  0  0  0  0  0  0  0  0
  -45.7693  -30.1838    4.1826 N   0  0  0  0  0  0  0  0  0  0  0  0
  -47.8819  -29.9830    3.0403 N   0  0  0  0  0  0  0  0  0  0  0  0
  -45.9325  -30.5352    1.8815 N   0  0  2  0  0  0  0  0  0  0  0  0
  -44.8767  -33.9177   -0.7746 O   0  0  0  0  0  0  0  0  0  0  0  0
  -51.9188  -29.1951    3.3155 O   0  0  0  0  0  0  0  0  0  0  0  0
  -46.4359  -34.7928    0.6393 O   0  0  0  0  0  0  0  0  0  0  0  0
  -48.2271  -29.3727    6.3602 H   0  0  0  0  0  0  0  0  0  0  0  0
  -50.5349  -28.9583    6.2864 H   0  0  0  0  0  0  0  0  0  0  0  0
  -45.7747  -29.8483    6.2159 H   0  0  0  0  0  0  0  0  0  0  0  0
  -52.9792  -28.7176    5.0274 H   0  0  0  0  0  0  0  0  0  0  0  0
  -50.3958  -29.6913    2.0088 H   0  0  0  0  0  0  0  0  0  0  0  0
  -41.3683  -28.6598   -0.1006 H   0  0  0  0  0  0  0  0  0  0  0  0
  -42.0757  -28.4407    1.4972 H   0  0  0  0  0  0  0  0  0  0  0  0
  -43.4041  -27.2482   -0.2014 H   0  0  0  0  0  0  0  0  0  0  0  0
  -43.5950  -28.7191   -1.1506 H   0  0  0  0  0  0  0  0  0  0  0  0
  -41.7659  -30.9158   -0.1402 H   0  0  0  0  0  0  0  0  0  0  0  0
  -41.7617  -30.7203    1.6117 H   0  0  0  0  0  0  0  0  0  0  0  0
  -45.0345  -27.8123    1.2981 H   0  0  0  0  0  0  0  0  0  0  0  0
  -45.6166  -28.7968   -0.0471 H   0  0  0  0  0  0  0  0  0  0  0  0
  -43.5265  -32.3271    2.4042 H   0  0  0  0  0  0  0  0  0  0  0  0
  -43.2055  -33.0502    0.8399 H   0  0  0  0  0  0  0  0  0  0  0  0
  -46.3394  -31.4263    0.0350 H   0  0  0  0  0  0  0  0  0  0  0  0
  -47.3426  -32.0279    1.3323 H   0  0  0  0  0  0  0  0  0  0  0  0
  -45.5538  -33.3231    2.2979 H   0  0  0  0  0  0  0  0  0  0  0  0
  -44.1054  -31.0085   -0.2947 H   0  0  0  0  0  0  0  0  0  0  0  0
  -44.0964  -29.6716    2.4530 H   0  0  0  0  0  0  0  0  0  0  0  0
  -46.5626  -35.4829   -0.0470 H   0  0  0  0  0  0  0  0  0  0  0  0
  1  3  1  0  0  0  0
  1  7  2  0  0  0  0
  2  4  2  0  0  0  0
  2  6  1  0  0  0  0
  3 19  2  0  0  0  0
  4 23  1  0  0  0  0
  5  6  2  0  0  0  0
  5 23  1  0  0  0  0
  6  7  1  0  0  0  0
  7 20  1  0  0  0  0
  8 19  1  0  0  0  0
  8 20  2  0  0  0  0
  8 21  1  0  0  0  0
  9 16  1  0  0  0  0
  9 22  2  0  0  0  0
  9 24  1  0  0  0  0
 10 11  1  0  0  0  0
 10 12  1  0  0  0  0
 11 13  1  0  0  0  0
 12 17  1  0  0  0  0
 13 18  1  0  0  0  0
 14 16  1  0  0  0  0
 14 17  1  0  0  0  0
 15 16  1  0  0  0  0
 15 21  1  0  0  0  0
 17 18  1  0  0  0  0
 18 21  1  0  0  0  0
  1 25  1  0  0  0  0
  2 26  1  0  0  0  0
  3 27  1  0  0  0  0
  4 28  1  0  0  0  0
  5 29  1  0  0  0  0
 10 30  1  0  0  0  0
 10 31  1  0  0  0  0
 11 32  1  0  0  0  0
 11 33  1  0  0  0  0
 12 34  1  0  0  0  0
 12 35  1  0  0  0  0
 13 36  1  0  0  0  0
 13 37  1  0  0  0  0
 14 38  1  0  0  0  0
 14 39  1  0  0  0  0
 15 40  1  0  0  0  0
 15 41  1  0  0  0  0
 16 42  1  0  0  0  0
 17 43  1  0  0  0  0
 18 44  1  0  0  0  0
 24 45  1  0  0  0  0
M  END
> <POSIT::Probability>
0.18

> <POSIT::Method>
HYBRID

> <ReceptorTitle>
UCSF-P4250-REFINED_LIGAND-BOUND-STATE_A__DU__LA1_A-201(A)

> <OMEGA_C>
ggY/whTq7MHqSq1AgghLwoa56MGVl6dA9p05wgcE78E+p6pAB/xPwkeu58G12ZRAqnhKwsDV68Ga
5UJAO3RHwjRs68GcNoZA385BwiN27cEAOodA8zk6wqHA8cFIykVA6vs1ws+KB8Jmko4+FvUowuFO
58HQFwU/+QAuwve34sFtMAC+3zYpwiuC88FQszE/zB4zwudm5cFaYik/lXYvwr5tAcLXvK4//E45
wuGi/cGZs4s/H1E1wnZgA8KUBaw/qf0uwrOl98GAMEE/bYIywluF78Ec0cI/whM3wnR48cHg14VA
CIc/wkjd78Gek0JA37o3whhI9MFr1vA/xoEzwrurB8INSka/0KxPwouP6cGCMFRAVr45ws4rC8IL
pyM/guhAwjP76sHIhstAuyNKwpCq58GSKslAVRk3wlXJ7sGC6MZArepTwre95cFc4KBAR5VJwrqH
7cGnjwBAI3klwjJH5cHKH869jE0owqGG48Eepb8/1Z0twlv82cG1Nk6+RWEuwsfA5cF/RZO/TRAn
wodT98GNgw++9QsnwivD9cFhS84/WSM0wp1/3sFaJ6Y/W3c2wu5f5sG0+kC9KRsuwvpOAcL+3RlA
ZtIswlwzBMJZA1c/f1s5wgBp+8HMdg891l49wo8cAMKuh6o/DTc2wuJKBcJXERNA8WswwnQR+MEW
4Ja+r2IwwoRf7cFO/hxAG0A6wn7uDcJUZkC9

> <OMEGA_E>
7RDhwA==

> <OMEGA_NBR>
      6621

$$$$
CACHE3HI_1705_51
  -OEChem-03092622503D

 40 42  0     1  0  0  0  0  0999 V2000
  -42.0022  -29.5945    0.8606 C   0  0  0  0  0  0  0  0  0  0  0  0
  -44.6888  -32.7929    2.0826 C   0  0  0  0  0  0  0  0  0  0  0  0
  -43.2999  -31.2314    2.5033 C   0  0  0  0  0  0  0  0  0  0  0  0
  -43.4316  -31.2620    1.1243 C   0  0  0  0  0  0  0  0  0  0  0  0
  -42.4328  -30.2800    3.0317 C   0  0  0  0  0  0  0  0  0  0  0  0
  -47.6630  -29.7985    3.1655 C   0  0  0  0  0  0  0  0  0  0  0  0
  -47.2491  -32.7080    0.2285 C   0  0  0  0  0  0  0  0  0  0  0  0
  -47.6821  -29.1257    4.5147 C   0  0  0  0  0  0  0  0  0  0  0  0
  -49.0061  -29.6112    5.0926 C   0  0  0  0  0  0  0  0  0  0  0  0
  -49.1973  -30.9968    4.4896 C   0  0  0  0  0  0  0  0  0  0  0  0
  -48.7614  -30.8333    3.0320 C   0  0  2  0  0  0  0  0  0  0  0  0
  -46.2239  -32.1930   -0.7660 C   0  0  0  0  0  0  0  0  0  0  0  0
  -48.2823  -32.1289    2.4092 C   0  0  0  0  0  0  0  0  0  0  0  0
  -44.8187  -32.7167   -0.4764 C   0  0  0  0  0  0  0  0  0  0  0  0
  -42.8139  -30.4730    0.2326 N   0  0  0  0  0  0  0  0  0  0  0  0
  -41.7745  -29.4490    2.1880 N   0  0  0  0  0  0  0  0  0  0  0  0
  -44.0883  -32.1899    3.0881 N   0  0  0  0  0  0  0  0  0  0  0  0
  -44.3235  -32.2657    0.8725 N   0  0  0  0  0  0  0  0  0  0  0  0
  -42.2384  -30.1776    4.4199 N   0  0  0  0  0  0  0  0  0  0  0  0
  -47.3617  -31.8597    1.3107 N   0  0  0  0  0  0  0  0  0  0  0  0
  -46.8508  -29.5339    2.2880 O   0  0  0  0  0  0  0  0  0  0  0  0
  -47.8829  -33.7472    0.0666 O   0  0  0  0  0  0  0  0  0  0  0  0
  -41.4584  -28.9128    0.2152 H   0  0  0  0  0  0  0  0  0  0  0  0
  -45.3920  -33.6100    2.1685 H   0  0  0  0  0  0  0  0  0  0  0  0
  -46.8338  -29.4866    5.1032 H   0  0  0  0  0  0  0  0  0  0  0  0
  -47.6553  -28.0384    4.4173 H   0  0  0  0  0  0  0  0  0  0  0  0
  -48.9950  -29.6314    6.1863 H   0  0  0  0  0  0  0  0  0  0  0  0
  -49.8208  -28.9491    4.7745 H   0  0  0  0  0  0  0  0  0  0  0  0
  -48.5610  -31.7205    5.0145 H   0  0  0  0  0  0  0  0  0  0  0  0
  -50.2338  -31.3389    4.5702 H   0  0  0  0  0  0  0  0  0  0  0  0
  -49.5719  -30.3899    2.4423 H   0  0  0  0  0  0  0  0  0  0  0  0
  -46.5415  -32.4945   -1.7721 H   0  0  0  0  0  0  0  0  0  0  0  0
  -46.2355  -31.0961   -0.7310 H   0  0  0  0  0  0  0  0  0  0  0  0
  -47.7729  -32.7393    3.1638 H   0  0  0  0  0  0  0  0  0  0  0  0
  -49.1371  -32.7054    2.0370 H   0  0  0  0  0  0  0  0  0  0  0  0
  -44.8039  -33.8128   -0.5235 H   0  0  0  0  0  0  0  0  0  0  0  0
  -44.1200  -32.3803   -1.2538 H   0  0  0  0  0  0  0  0  0  0  0  0
  -42.7706  -30.7622    5.0357 H   0  0  0  0  0  0  0  0  0  0  0  0
  -41.6506  -29.4514    4.7824 H   0  0  0  0  0  0  0  0  0  0  0  0
  -46.7903  -31.0284    1.3430 H   0  0  0  0  0  0  0  0  0  0  0  0
  1 15  2  0  0  0  0
  1 16  1  0  0  0  0
  2 17  2  0  0  0  0
  2 18  1  0  0  0  0
  3  4  2  0  0  0  0
  3  5  1  0  0  0  0
  3 17  1  0  0  0  0
  4 15  1  0  0  0  0
  4 18  1  0  0  0  0
  5 16  2  0  0  0  0
  5 19  1  0  0  0  0
  6  8  1  0  0  0  0
  6 11  1  0  0  0  0
  6 21  2  0  0  0  0
  7 12  1  0  0  0  0
  7 20  1  0  0  0  0
  7 22  2  0  0  0  0
  8  9  1  0  0  0  0
  9 10  1  0  0  0  0
 10 11  1  0  0  0  0
 11 13  1  0  0  0  0
 12 14  1  0  0  0  0
 13 20  1  0  0  0  0
 14 18  1  0  0  0  0
  1 23  1  0  0  0  0
  2 24  1  0  0  0  0
  8 25  1  0  0  0  0
  8 26  1  0  0  0  0
  9 27  1  0  0  0  0
  9 28  1  0  0  0  0
 10 29  1  0  0  0  0
 10 30  1  0  0  0  0
 11 31  1  0  0  0  0
 12 32  1  0  0  0  0
 12 33  1  0  0  0  0
 13 34  1  0  0  0  0
 13 35  1  0  0  0  0
 14 36  1  0  0  0  0
 14 37  1  0  0  0  0
 19 38  1  0  0  0  0
 19 39  1  0  0  0  0
 20 40  1  0  0  0  0
M  END
> <POSIT::Probability>
0.24

> <POSIT::Method>
FRED

> <ReceptorTitle>
UCSF-P4250-REFINED_LIGAND-BOUND-STATE_A__DU__LA1_A-201(A)

> <OMEGA_C>
NgIowonB7MFwU1w/T8Eywu4rA8KMSQVAETMtwunZ+cFwNSBAAbotwqoY+sFI6o8/Lrspwnw98sE8
B0JA5KY+wmNj7sH8l0pAEv88wvXUAsLABmo+e7o+wngB6cEteJBAQgZEwqzj7MGz9qJADMpEwob5
98Gdqo9AoQtDwp6q9sGKC0JAQ+U4wqzFAMIgF0S/ECFBwgqEAMIoMBpAW0YzwuDdAsKg8PO+c0Er
wsHI88GAJ24+FRknwpyX68GaCAxAcVowwn3CAMLKokVAS0sxwh4QAcLgXl8/FfQowshr8cFxb41A
bXI9wrng/sGww6c/Qmc7wlRF7MGwbhJAIYg/wiX9BsIAc4g9c9Ulwl1N58GAaVw+Z5E1wq5wBsKg
yApA21U7wnfk68F0TaNA/J4+wrhO4MFVWo1A7PpDwiIN7cHd9cVAh0hHwrKX58HIyJhAdD5CwobD
/cG9dqBAYu9IwgO2+sHGPpJAnklGwn4e88FMTxxAfio6wmn6AcKg0+K/GvE4wt7E+MEQIju/dRc/
wgn1AsLEe0pAZYxEwmDSAsIMXgJAOzczwkRAB8KwBga/23owwnOFAcIQe6C/JBUrwgUZ9sHSJKFA
LJomwm6c68GsCZlAPCk7wjE6+MFo56s/

> <OMEGA_E>
j1AFwQ==

> <OMEGA_NBR>
      7913

$$$$
CACHE3HI_1705_67
  -OEChem-03092622503D

 40 42  0     1  0  0  0  0  0999 V2000
  -51.5348  -30.7688    4.9750 C   0  0  0  0  0  0  0  0  0  0  0  0
  -49.9056  -29.4440    6.0921 C   0  0  0  0  0  0  0  0  0  0  0  0
  -44.2038  -32.3124   -0.2873 C   0  0  0  0  0  0  0  0  0  0  0  0
  -50.3459  -30.0496    4.9257 C   0  0  0  0  0  0  0  0  0  0  0  0
  -52.2373  -30.8595    6.1714 C   0  0  0  0  0  0  0  0  0  0  0  0
  -45.2220  -31.5260    0.2093 C   0  0  0  0  0  0  0  0  0  0  0  0
  -51.7127  -30.2180    7.2818 C   0  0  0  0  0  0  0  0  0  0  0  0
  -43.5473  -30.1528    0.5526 C   0  0  0  0  0  0  0  0  0  0  0  0
  -49.5718  -29.9335    3.6638 C   0  0  0  0  0  0  0  0  0  0  0  0
  -46.6464  -31.9446    0.2443 C   0  0  0  0  0  0  0  0  0  0  0  0
  -50.7272  -30.4201    0.1254 C   0  0  0  0  0  0  0  0  0  0  0  0
  -49.5889  -31.2587   -0.5054 C   0  0  0  0  0  0  0  0  0  0  0  0
  -49.6928  -29.9682    1.1842 C   0  0  2  0  0  0  0  0  0  0  0  0
  -48.9494  -31.2935    0.9039 C   0  0  2  0  0  0  0  0  0  0  0  0
  -42.7819  -28.9543    0.9596 C   0  0  0  0  0  0  0  0  0  0  0  0
  -50.5611  -29.5102    7.2727 N   0  0  0  0  0  0  0  0  0  0  0  0
  -44.8474  -30.2871    0.6914 N   0  0  0  0  0  0  0  0  0  0  0  0
  -52.4144  -30.2994    8.5103 N   0  0  0  0  0  0  0  0  0  0  0  0
  -50.3104  -30.0376    2.5023 N   0  0  0  0  0  0  0  0  0  0  0  0
  -47.5235  -31.0222    0.7785 N   0  0  0  0  0  0  0  0  0  0  0  0
  -48.3549  -29.7764    3.7185 O   0  0  0  0  0  0  0  0  0  0  0  0
  -46.9549  -33.0583   -0.1713 O   0  0  0  0  0  0  0  0  0  0  0  0
  -41.8154  -29.2023    1.9007 F   0  0  0  0  0  0  0  0  0  0  0  0
  -43.5510  -27.9616    1.5110 F   0  0  0  0  0  0  0  0  0  0  0  0
  -42.7129  -31.4762   -0.1515 S   0  0  0  0  0  0  0  0  0  0  0  0
  -53.7090  -31.7546    6.2148 Cl  0  0  0  0  0  0  0  0  0  0  0  0
  -51.9091  -31.2566    4.0776 H   0  0  0  0  0  0  0  0  0  0  0  0
  -48.9848  -28.8690    6.1165 H   0  0  0  0  0  0  0  0  0  0  0  0
  -44.2572  -33.3053   -0.7110 H   0  0  0  0  0  0  0  0  0  0  0  0
  -51.1345  -29.6288   -0.5092 H   0  0  0  0  0  0  0  0  0  0  0  0
  -51.5536  -31.0254    0.5169 H   0  0  0  0  0  0  0  0  0  0  0  0
  -49.8899  -32.2265   -0.9148 H   0  0  0  0  0  0  0  0  0  0  0  0
  -49.0097  -30.7152   -1.2614 H   0  0  0  0  0  0  0  0  0  0  0  0
  -49.1922  -29.0774    0.9949 H   0  0  0  0  0  0  0  0  0  0  0  0
  -49.1760  -32.1156    1.4977 H   0  0  0  0  0  0  0  0  0  0  0  0
  -42.2684  -28.5080    0.0924 H   0  0  0  0  0  0  0  0  0  0  0  0
  -53.2924  -30.7703    8.5318 H   0  0  0  0  0  0  0  0  0  0  0  0
  -52.0671  -29.7953    9.2966 H   0  0  0  0  0  0  0  0  0  0  0  0
  -51.3016  -30.2297    2.5270 H   0  0  0  0  0  0  0  0  0  0  0  0
  -47.1949  -30.1471    1.1609 H   0  0  0  0  0  0  0  0  0  0  0  0
  1  4  1  0  0  0  0
  1  5  2  0  0  0  0
  2  4  2  0  0  0  0
  2 16  1  0  0  0  0
  3  6  2  0  0  0  0
  3 25  1  0  0  0  0
  4  9  1  0  0  0  0
  5  7  1  0  0  0  0
  5 26  1  0  0  0  0
  6 10  1  0  0  0  0
  6 17  1  0  0  0  0
  7 16  2  0  0  0  0
  7 18  1  0  0  0  0
  8 15  1  0  0  0  0
  8 17  2  0  0  0  0
  8 25  1  0  0  0  0
  9 19  1  0  0  0  0
  9 21  2  0  0  0  0
 10 20  1  0  0  0  0
 10 22  2  0  0  0  0
 11 12  1  0  0  0  0
 11 13  1  0  0  0  0
 12 14  1  0  0  0  0
 13 14  1  0  0  0  0
 13 19  1  0  0  0  0
 14 20  1  0  0  0  0
 15 23  1  0  0  0  0
 15 24  1  0  0  0  0
  1 27  1  0  0  0  0
  2 28  1  0  0  0  0
  3 29  1  0  0  0  0
 11 30  1  0  0  0  0
 11 31  1  0  0  0  0
 12 32  1  0  0  0  0
 12 33  1  0  0  0  0
 13 34  1  0  0  0  0
 14 35  1  0  0  0  0
 15 36  1  0  0  0  0
 18 37  1  0  0  0  0
 18 38  1  0  0  0  0
 19 39  1  0  0  0  0
 20 40  1  0  0  0  0
M  END
> <POSIT::Probability>
0.05

> <POSIT::Method>
FRED

> <ReceptorTitle>
UCSF-P4250-REFINED_LIGAND-BOUND-STATE_A__DU__LA1_A-201(A)

> <OMEGA_C>
qyNOwoMm9sHcMp9AW59HwkaN68Er8sJApNAwwt4/AcLdGZO+OGJJwoxl8MFOn51A//JQwjTg9sEE
fMVAW+M0wjE1/MHqWFY+2tlOwnq+8cHkBOlAczAuwgU58cEodw0/fElGwsl378EHe2pA6pU6wnKO
/8GqIno+oehKwmpc88FUZwA+A1tGwsAR+sHuXgG/d8VGwtC+78GOkpc/NMxDwgpZ+sH4Zmc/tiAr
wn6i58GOpnU/iD5KwvMU7MHOuehAu2MzwgVM8sFoATE/ZahRwi9l8sEtKghB0z1JwupM8MFDJSBA
DBg+wmgt+MEhS0c/dmtBwvw17sFb/G1A2tE7wrU7BMJgai++/EInwlKe6cGFSvM/PzQuwnKx38HA
acE/AdoqwkzP+8FSLxu++NVWwnIJ/sGG38ZA9qJPwngN+sHue4JAePBDwsLz5sFeusNAZAcxwqA4
BcJ6Bja/volMwsYH7cFMXQK/1jZOwu8z+MGOUwQ/So9HwuXnAMKOLmq/5QlEwqK49cGsdKG/3MRE
woCe6MEYsH4/PLREwl92AMIZtr8/zBIpwmIQ5MGgO709dCtVwqQp9sFOgghBtERQwtxc7sESvxRB
1DRNwlzW8cEbuyFAmMc8wikt8cFQmZQ/

> <OMEGA_E>
faeXwA==

> <OMEGA_NBR>
      9209

$$$$
CACHE3HI_1705_7
  -OEChem-03092622503D

 43 45  0     0  0  0  0  0  0999 V2000
  -49.7008  -28.4242    4.3725 C   0  0  0  0  0  0  0  0  0  0  0  0
  -48.5682  -28.4999    5.1529 C   0  0  0  0  0  0  0  0  0  0  0  0
  -42.1108  -30.5272    3.1713 C   0  0  0  0  0  0  0  0  0  0  0  0
  -44.8001  -31.8883    0.0319 C   0  0  0  0  0  0  0  0  0  0  0  0
  -43.2777  -30.6000    0.7849 C   0  0  0  0  0  0  0  0  0  0  0  0
  -49.8223  -29.5405    3.4952 C   0  0  0  0  0  0  0  0  0  0  0  0
  -48.7772  -30.4271    3.6388 C   0  0  0  0  0  0  0  0  0  0  0  0
  -43.5897  -31.4661    1.8205 C   0  0  0  0  0  0  0  0  0  0  0  0
  -42.2942  -29.6481    1.0353 C   0  0  0  0  0  0  0  0  0  0  0  0
  -48.5299  -31.6557    2.9532 C   0  0  0  0  0  0  0  0  0  0  0  0
  -51.9194  -31.9484    3.8255 C   0  0  0  0  0  0  0  0  0  0  0  0
  -53.1417  -29.8585    4.2730 C   0  0  0  0  0  0  0  0  0  0  0  0
  -45.2579  -33.4107    2.0460 C   0  0  0  0  0  0  0  0  0  0  0  0
  -46.7756  -33.2531    2.0815 C   0  0  0  0  0  0  0  0  0  0  0  0
  -43.0478  -31.4925    3.0472 N   0  0  0  0  0  0  0  0  0  0  0  0
  -41.7038  -29.6169    2.2544 N   0  0  0  0  0  0  0  0  0  0  0  0
  -44.0387  -30.8738   -0.3234 N   0  0  0  0  0  0  0  0  0  0  0  0
  -44.5644  -32.2832    1.3219 N   0  0  0  0  0  0  0  0  0  0  0  0
  -41.9143  -28.7293    0.0419 N   0  0  0  0  0  0  0  0  0  0  0  0
  -47.1877  -32.0518    2.7712 N   0  0  0  0  0  0  0  0  0  0  0  0
  -52.3207  -30.6200    3.2975 N   0  0  0  0  0  0  0  0  0  0  0  0
  -49.4706  -32.3585    2.5055 O   0  0  0  0  0  0  0  0  0  0  0  0
  -50.6914  -30.5823    1.2749 O   0  0  0  0  0  0  0  0  0  0  0  0
  -51.6870  -28.4222    2.0660 O   0  0  0  0  0  0  0  0  0  0  0  0
  -47.6564  -29.9125    4.8269 S   0  0  0  0  0  0  0  0  0  0  0  0
  -51.1672  -29.7451    2.3609 S   0  0  0  0  0  0  0  0  0  0  0  0
  -50.4054  -27.6043    4.4332 H   0  0  0  0  0  0  0  0  0  0  0  0
  -48.2324  -27.7938    5.8990 H   0  0  0  0  0  0  0  0  0  0  0  0
  -41.6168  -30.4728    4.1356 H   0  0  0  0  0  0  0  0  0  0  0  0
  -45.5338  -32.3745   -0.5966 H   0  0  0  0  0  0  0  0  0  0  0  0
  -51.3168  -32.4887    3.0897 H   0  0  0  0  0  0  0  0  0  0  0  0
  -51.3325  -31.8297    4.7407 H   0  0  0  0  0  0  0  0  0  0  0  0
  -52.8054  -32.5450    4.0597 H   0  0  0  0  0  0  0  0  0  0  0  0
  -53.4241  -28.8853    3.8612 H   0  0  0  0  0  0  0  0  0  0  0  0
  -54.0517  -30.4141    4.5162 H   0  0  0  0  0  0  0  0  0  0  0  0
  -52.5788  -29.6987    5.1968 H   0  0  0  0  0  0  0  0  0  0  0  0
  -44.8629  -33.4947    3.0670 H   0  0  0  0  0  0  0  0  0  0  0  0
  -45.0024  -34.3539    1.5453 H   0  0  0  0  0  0  0  0  0  0  0  0
  -47.2248  -34.0959    2.6170 H   0  0  0  0  0  0  0  0  0  0  0  0
  -47.2061  -33.2212    1.0757 H   0  0  0  0  0  0  0  0  0  0  0  0
  -42.3205  -28.7966   -0.8718 H   0  0  0  0  0  0  0  0  0  0  0  0
  -41.1673  -28.0868    0.2252 H   0  0  0  0  0  0  0  0  0  0  0  0
  -46.4540  -31.4280    3.0904 H   0  0  0  0  0  0  0  0  0  0  0  0
  1  2  2  0  0  0  0
  1  6  1  0  0  0  0
  2 25  1  0  0  0  0
  3 15  1  0  0  0  0
  3 16  2  0  0  0  0
  4 17  2  0  0  0  0
  4 18  1  0  0  0  0
  5  8  1  0  0  0  0
  5  9  2  0  0  0  0
  5 17  1  0  0  0  0
  6  7  2  0  0  0  0
  6 26  1  0  0  0  0
  7 10  1  0  0  0  0
  7 25  1  0  0  0  0
  8 15  2  0  0  0  0
  8 18  1  0  0  0  0
  9 16  1  0  0  0  0
  9 19  1  0  0  0  0
 10 20  1  0  0  0  0
 10 22  2  0  0  0  0
 11 21  1  0  0  0  0
 12 21  1  0  0  0  0
 13 14  1  0  0  0  0
 13 18  1  0  0  0  0
 14 20  1  0  0  0  0
 21 26  1  0  0  0  0
 23 26  2  0  0  0  0
 24 26  2  0  0  0  0
  1 27  1  0  0  0  0
  2 28  1  0  0  0  0
  3 29  1  0  0  0  0
  4 30  1  0  0  0  0
 11 31  1  0  0  0  0
 11 32  1  0  0  0  0
 11 33  1  0  0  0  0
 12 34  1  0  0  0  0
 12 35  1  0  0  0  0
 12 36  1  0  0  0  0
 13 37  1  0  0  0  0
 13 38  1  0  0  0  0
 14 39  1  0  0  0  0
 14 40  1  0  0  0  0
 19 41  1  0  0  0  0
 19 42  1  0  0  0  0
 20 43  1  0  0  0  0
M  END
> <POSIT::Probability>
0.24

> <POSIT::Method>
FRED

> <ReceptorTitle>
UCSF-P4250-REFINED_LIGAND-BOUND-STATE_A__DU__LA1_A-201(A)

> <OMEGA_C>
m81GwrFk48FJ64tA0EVCwtb/48En5KRAbXEowqE39MEJ9kpARzMzwjQb/8EAjAI9ZBwtwtjM9MGw
8Ug//0lHwutS7ME6sV9AzxtDwqFq88GK4mhA4FsuwpW6+8GUBOk/QS0pwk0v7cFghIQ/pR5Cwu4+
/cHVAT1Aeq1PwlyW/8EA1XRAFJFUwiHe7sHAvIhAHAg1wpKkBcIg8gJANho7wjgDBcIEOAVA8DAs
wpPw+8HqBUNAsNAmwmXv7MGGRxBAnycwwpb99sHAkqW+8UEywgciAcJwMqk/PagnwqTV5cGAoSs9
KcA8wgk1AMLAWjFAb0hRwqz19MEPClNA6OFFwh9vAcJuWSBA+8NKwoio9ME+L6M/gb9Owq5g48GF
OQRAIqA+wthM78HRdZpAP6tMwu317cGUGBdAG59Jwp3V3MG+3I1A+O1AwsdZ3sFPxLxAnncmwljI
88ECV4RAkyI2wn1/AcKQtxi/ZERNwmT0AcKOvUVAglRNwkGj/sFws5dAvjhTwhcuAsIs6YFARrJV
whYV58HeHXdA+zRYwg9Q88FShJBArFBSwu+W7cFyTKZAqXMzwo76BcKASURAegI0wmBqCcL+zcU/
L+Y8wjFiCMKEfCdAB9M8woXiBMJesYk/JkgpwmFf5sFIMF+/WaskwsKx4MFQpmY+7NA5wnps+8FW
yEVA

> <OMEGA_E>
gDEOwQ==

> <OMEGA_NBR>
     10557

$$$$
CACHE3HI_1705_73
  -OEChem-03092622503D

 38 41  0     0  0  0  0  0  0999 V2000
  -48.9311  -28.6058    4.4780 C   0  0  0  0  0  0  0  0  0  0  0  0
  -42.2429  -30.4037    3.6244 C   0  0  0  0  0  0  0  0  0  0  0  0
  -44.3767  -31.6977    0.0588 C   0  0  0  0  0  0  0  0  0  0  0  0
  -43.0538  -30.3851    1.0938 C   0  0  0  0  0  0  0  0  0  0  0  0
  -50.0887  -29.3061    4.7108 C   0  0  0  0  0  0  0  0  0  0  0  0
  -50.0549  -30.6139    4.1711 C   0  0  0  0  0  0  0  0  0  0  0  0
  -48.8539  -30.9128    3.5776 C   0  0  0  0  0  0  0  0  0  0  0  0
  -43.4585  -31.3286    2.0243 C   0  0  0  0  0  0  0  0  0  0  0  0
  -42.1726  -29.4030    1.5357 C   0  0  0  0  0  0  0  0  0  0  0  0
  -48.4212  -32.1163    2.9446 C   0  0  0  0  0  0  0  0  0  0  0  0
  -52.0685  -29.8210    5.7502 C   0  0  0  0  0  0  0  0  0  0  0  0
  -52.2973  -30.8182    4.6105 C   0  0  0  0  0  0  0  0  0  0  0  0
  -45.0261  -33.3639    1.8990 C   0  0  0  0  0  0  0  0  0  0  0  0
  -46.5400  -33.2843    1.7229 C   0  0  0  0  0  0  0  0  0  0  0  0
  -43.0952  -31.4047    3.3133 N   0  0  0  0  0  0  0  0  0  0  0  0
  -41.7636  -29.4188    2.8273 N   0  0  0  0  0  0  0  0  0  0  0  0
  -43.6328  -30.6265   -0.1263 N   0  0  0  0  0  0  0  0  0  0  0  0
  -44.3036  -32.1603    1.3458 N   0  0  0  0  0  0  0  0  0  0  0  0
  -41.7098  -28.4063    0.6596 N   0  0  0  0  0  0  0  0  0  0  0  0
  -47.1147  -32.1503    2.4103 N   0  0  0  0  0  0  0  0  0  0  0  0
  -49.1784  -33.1151    2.8425 O   0  0  0  0  0  0  0  0  0  0  0  0
  -51.1485  -28.7830    5.3699 O   0  0  0  0  0  0  0  0  0  0  0  0
  -51.0818  -31.4926    4.2428 O   0  0  0  0  0  0  0  0  0  0  0  0
  -47.7812  -29.5696    3.6388 S   0  0  0  0  0  0  0  0  0  0  0  0
  -48.6915  -27.5912    4.7643 H   0  0  0  0  0  0  0  0  0  0  0  0
  -41.8945  -30.3853    4.6516 H   0  0  0  0  0  0  0  0  0  0  0  0
  -44.9845  -32.1795   -0.6949 H   0  0  0  0  0  0  0  0  0  0  0  0
  -53.0130  -29.3416    6.0261 H   0  0  0  0  0  0  0  0  0  0  0  0
  -51.6695  -30.3255    6.6392 H   0  0  0  0  0  0  0  0  0  0  0  0
  -53.0193  -31.5813    4.9179 H   0  0  0  0  0  0  0  0  0  0  0  0
  -52.6932  -30.3130    3.7207 H   0  0  0  0  0  0  0  0  0  0  0  0
  -44.7755  -33.4918    2.9603 H   0  0  0  0  0  0  0  0  0  0  0  0
  -44.6479  -34.2601    1.3898 H   0  0  0  0  0  0  0  0  0  0  0  0
  -47.0108  -34.1801    2.1407 H   0  0  0  0  0  0  0  0  0  0  0  0
  -46.8248  -33.2110    0.6686 H   0  0  0  0  0  0  0  0  0  0  0  0
  -41.9778  -28.4363   -0.3056 H   0  0  0  0  0  0  0  0  0  0  0  0
  -41.0349  -27.7402    0.9841 H   0  0  0  0  0  0  0  0  0  0  0  0
  -46.5549  -31.3054    2.4550 H   0  0  0  0  0  0  0  0  0  0  0  0
  1  5  2  0  0  0  0
  1 24  1  0  0  0  0
  2 15  1  0  0  0  0
  2 16  2  0  0  0  0
  3 17  2  0  0  0  0
  3 18  1  0  0  0  0
  4  8  1  0  0  0  0
  4  9  2  0  0  0  0
  4 17  1  0  0  0  0
  5  6  1  0  0  0  0
  5 22  1  0  0  0  0
  6  7  2  0  0  0  0
  6 23  1  0  0  0  0
  7 10  1  0  0  0  0
  7 24  1  0  0  0  0
  8 15  2  0  0  0  0
  8 18  1  0  0  0  0
  9 16  1  0  0  0  0
  9 19  1  0  0  0  0
 10 20  1  0  0  0  0
 10 21  2  0  0  0  0
 11 12  1  0  0  0  0
 11 22  1  0  0  0  0
 12 23  1  0  0  0  0
 13 14  1  0  0  0  0
 13 18  1  0  0  0  0
 14 20  1  0  0  0  0
  1 25  1  0  0  0  0
  2 26  1  0  0  0  0
  3 27  1  0  0  0  0
 11 28  1  0  0  0  0
 11 29  1  0  0  0  0
 12 30  1  0  0  0  0
 12 31  1  0  0  0  0
 13 32  1  0  0  0  0
 13 33  1  0  0  0  0
 14 34  1  0  0  0  0
 14 35  1  0  0  0  0
 19 36  1  0  0  0  0
 19 37  1  0  0  0  0
 20 38  1  0  0  0  0
M  END
> <POSIT::Probability>
0.24

> <POSIT::Method>
FRED

> <ReceptorTitle>
UCSF-P4250-REFINED_LIGAND-BOUND-STATE_A__DU__LA1_A-201(A)

> <OMEGA_C>
e7lDwqDY5MEmTI9AsPgowsw688EZ9mdAt4ExwtyU/cGA9HA9DjcswqMU88GiAow/2FpIwt5y6sHd
vpZALThIwjnp9MH2eYVAaGpDwmBN98HS92RAf9Utwvmg+sFyjQFAtbAowm4568HAksQ/Vq9BwiB3
AMKYdDxAHEZQwl6R7sGjAbhAcDBRwsKL9sFYiZNAsRo0wph0BcLVE/M//Sg6wiEjBcLEiNw/gmEs
wsI8+8EYDVRA+Q0nwspZ68Hm8jRACYguwgkD9cEAXgG+4TYxwiekAMIqQqw/y9YmwgdA48EP3ig/
cHU8wvCZAMJVQhpArrZEwuB1BMJD7DVADZhMwo1D5sGO1qtAulNMwujw+8G+xIdA+R8/wniO7MEo
4mhAEsRCwsq63MEbdZhA+ZMnwh0V88E+2pRAFPAzwsi3AMII5TG/UQ1Uwoq76sG61cBAmq1OwqOa
8sF9dNRAzRNUwpqm/MGIX51Az8VSwgCB8sH7H25AIRozwpb3BcKQdT1AbpcywkwKCcJ05LE/Ggs8
wnC4CMJOAQlAmEw7wgfYBMJnKys/QOknwqB948G4dZy+uSMkwunr3cE28Hs/Qzg6wmhx+sE5Hx1A

> <OMEGA_E>
/pwTwQ==

> <OMEGA_NBR>
     11809

$$$$
CACHE3HI_1706_84
  -OEChem-03092622503D

 41 44  0     1  0  0  0  0  0999 V2000
  -41.6832  -30.3806    1.8759 C   0  0  0  0  0  0  0  0  0  0  0  0
  -47.1237  -29.0650    4.4079 C   0  0  0  0  0  0  0  0  0  0  0  0
  -47.5788  -29.6976    3.2713 C   0  0  0  0  0  0  0  0  0  0  0  0
  -43.0552  -30.2094    2.0374 C   0  0  0  0  0  0  0  0  0  0  0  0
  -49.0023  -29.7879    3.2378 C   0  0  0  0  0  0  0  0  0  0  0  0
  -43.2415  -30.1392    3.3830 C   0  0  0  0  0  0  0  0  0  0  0  0
  -49.5689  -29.2207    4.3633 C   0  0  0  0  0  0  0  0  0  0  0  0
  -46.6574  -30.2067    2.2438 C   0  0  0  0  0  0  0  0  0  0  0  0
  -44.4255  -28.7873    0.5866 C   0  0  0  0  0  0  0  0  0  0  0  0
  -49.8287  -30.4257    2.1660 C   0  0  0  0  0  0  0  0  0  0  0  0
  -44.6279  -29.9670    3.8079 C   0  0  0  0  0  0  0  0  0  0  0  0
  -51.0383  -29.1235    4.6327 C   0  0  0  0  0  0  0  0  0  0  0  0
  -51.3064  -30.0118    2.2598 C   0  0  0  0  0  0  0  0  0  0  0  0
  -44.3235  -30.0872    1.3128 C   0  0  2  0  0  0  0  0  0  0  0  0
  -51.8270  -30.0831    3.7124 C   0  0  2  0  0  0  0  0  0  0  0  0
  -53.3201  -29.7698    3.7690 C   0  0  0  0  0  0  0  0  0  0  0  0
  -41.0437  -30.4133    3.0600 N   0  0  0  0  0  0  0  0  0  0  0  0
  -42.0369  -30.2619    3.9729 N   0  0  0  0  0  0  0  0  0  0  0  0
  -45.2935  -30.0273    2.4581 N   0  0  0  0  0  0  0  0  0  0  0  0
  -45.6853  -28.5472    0.0893 N   0  0  0  0  0  0  0  0  0  0  0  0
  -47.1546  -30.7591    1.2646 O   0  0  0  0  0  0  0  0  0  0  0  0
  -43.4675  -28.0331    0.4415 O   0  0  0  0  0  0  0  0  0  0  0  0
  -48.4077  -28.5823    5.4334 S   0  0  0  0  0  0  0  0  0  0  0  0
  -41.1057  -30.4839    0.9689 H   0  0  0  0  0  0  0  0  0  0  0  0
  -46.1003  -28.8606    4.6916 H   0  0  0  0  0  0  0  0  0  0  0  0
  -49.4427  -30.1618    1.1748 H   0  0  0  0  0  0  0  0  0  0  0  0
  -49.7522  -31.5155    2.2681 H   0  0  0  0  0  0  0  0  0  0  0  0
  -44.9979  -30.7800    4.4373 H   0  0  0  0  0  0  0  0  0  0  0  0
  -44.8313  -28.9906    4.2547 H   0  0  0  0  0  0  0  0  0  0  0  0
  -51.2574  -29.3612    5.6806 H   0  0  0  0  0  0  0  0  0  0  0  0
  -51.3574  -28.0880    4.4564 H   0  0  0  0  0  0  0  0  0  0  0  0
  -51.4223  -28.9871    1.8820 H   0  0  0  0  0  0  0  0  0  0  0  0
  -51.9025  -30.6611    1.6072 H   0  0  0  0  0  0  0  0  0  0  0  0
  -44.5674  -30.9285    0.6602 H   0  0  0  0  0  0  0  0  0  0  0  0
  -51.6816  -31.1102    4.0748 H   0  0  0  0  0  0  0  0  0  0  0  0
  -53.4983  -28.7559    3.4152 H   0  0  0  0  0  0  0  0  0  0  0  0
  -53.6773  -29.8581    4.7936 H   0  0  0  0  0  0  0  0  0  0  0  0
  -53.8687  -30.4690    3.1388 H   0  0  0  0  0  0  0  0  0  0  0  0
  -41.7968  -30.2568    4.9570 H   0  0  0  0  0  0  0  0  0  0  0  0
  -46.4125  -29.2369    0.2459 H   0  0  0  0  0  0  0  0  0  0  0  0
  -45.9136  -27.7046   -0.4289 H   0  0  0  0  0  0  0  0  0  0  0  0
  1  4  1  0  0  0  0
  1 17  2  0  0  0  0
  2  3  2  0  0  0  0
  2 23  1  0  0  0  0
  3  5  1  0  0  0  0
  3  8  1  0  0  0  0
  4  6  2  0  0  0  0
  4 14  1  0  0  0  0
  5  7  2  0  0  0  0
  5 10  1  0  0  0  0
  6 11  1  0  0  0  0
  6 18  1  0  0  0  0
  7 12  1  0  0  0  0
  7 23  1  0  0  0  0
  8 19  1  0  0  0  0
  8 21  2  0  0  0  0
  9 14  1  0  0  0  0
  9 20  1  0  0  0  0
  9 22  2  0  0  0  0
 10 13  1  0  0  0  0
 11 19  1  0  0  0  0
 12 15  1  0  0  0  0
 13 15  1  0  0  0  0
 14 19  1  0  0  0  0
 15 16  1  0  0  0  0
 17 18  1  0  0  0  0
  1 24  1  0  0  0  0
  2 25  1  0  0  0  0
 10 26  1  0  0  0  0
 10 27  1  0  0  0  0
 11 28  1  0  0  0  0
 11 29  1  0  0  0  0
 12 30  1  0  0  0  0
 12 31  1  0  0  0  0
 13 32  1  0  0  0  0
 13 33  1  0  0  0  0
 14 34  1  0  0  0  0
 15 35  1  0  0  0  0
 16 36  1  0  0  0  0
 16 37  1  0  0  0  0
 16 38  1  0  0  0  0
 18 39  1  0  0  0  0
 20 40  1  0  0  0  0
 20 41  1  0  0  0  0
M  END
> <POSIT::Probability>
0.18

> <POSIT::Method>
FRED

> <ReceptorTitle>
UCSF-P4250-REFINED_LIGAND-BOUND-STATE_A__DU__LA1_A-201(A)

> <OMEGA_C>
pLsmwnIL88EMHPA/sn48wjCF6MHODY1AtlA+wq6U7cGDXFFAfDgswtCs8cFqZQJAYgJEwrRN7sH0
N09AWPcswgAd8cGAg1hAiEZGwvTD6cFOoItANqE6wkOn8cG3mg9AtLMxwlRM5sFELhY/jlBHwuhn
88G7nwpA9IIywne878FetXNALSdMwtv86MFJP5RAvjlNwjYY8MERoBBAOEsxwoyy8MHKCqg/3U5P
wjGq8MFSl21AyEdVwqYo7sEyN3FAwiwkwnpO88FC10NA0yUownIY8sGERH5Aliw1wt038MGTUR1A
xL02wpJg5MEA47Y9WJ48wrUS9sHI3qE/r94twtZD4MGICOI+haFBwp6o5MF03q1AOGwkwvje88G4
CHg/sWY4wpHi5sHzIZZAUsVFwkxL8cGOXpY/RwJHwsQf/MG/JxFAzv0zwoI99sH2/Y1AP1MzwsLs
58EmJohAngdNwtbj6sEcx7VA821NwkS04MH8mo5AabBNwobl58Eq5vA/H5xPwt5J9cFyuc0/+0Qy
wo5t98F8ACk/9rlOwsrh+MH6ZIJASv5VwggM5sFVklpAh7VWwmzd7sH8ZJlAjHlXwn7A88Hp4khA
7S8nwvkN8sG2n55AYqY5wiDl6cFQ2Xs+e6c3wvCi3cFgktu+

> <OMEGA_E>
3yMAwQ==

> <OMEGA_NBR>
     13129

$$$$
CACHE3HI_1707_17
  -OEChem-03092622503D

 40 41  0     0  0  0  0  0  0999 V2000
  -41.9360  -30.7965    0.6970 C   0  0  0  0  0  0  0  0  0  0  0  0
  -42.3577  -29.5001    0.4233 C   0  0  0  0  0  0  0  0  0  0  0  0
  -42.9055  -31.7533    0.9531 C   0  0  0  0  0  0  0  0  0  0  0  0
  -43.7161  -29.2039    0.4140 C   0  0  0  0  0  0  0  0  0  0  0  0
  -44.6059  -30.2315    0.6825 C   0  0  0  0  0  0  0  0  0  0  0  0
  -46.0566  -29.9991    0.6933 C   0  0  0  0  0  0  0  0  0  0  0  0
  -48.1975  -29.1630    5.8666 C   0  0  0  0  0  0  0  0  0  0  0  0
  -49.1096  -30.3818    2.9129 C   0  0  0  0  0  0  0  0  0  0  0  0
  -48.1665  -30.6726    1.7444 C   0  0  0  0  0  0  0  0  0  0  0  0
  -48.9542  -28.9913    3.5249 C   0  0  0  0  0  0  0  0  0  0  0  0
  -46.1636  -30.2239    3.2195 C   0  0  0  0  0  0  0  0  0  0  0  0
  -46.5123  -28.9376    3.9647 C   0  0  0  0  0  0  0  0  0  0  0  0
  -43.5896  -26.7948    1.0955 C   0  0  0  0  0  0  0  0  0  0  0  0
  -44.1719  -27.8161    0.1209 C   0  0  0  0  0  0  0  0  0  0  0  0
  -44.2341  -31.5027    0.9528 N   0  0  0  0  0  0  0  0  0  0  0  0
  -46.7682  -30.2542    1.8783 N   0  0  0  0  0  0  0  0  0  0  0  0
  -47.8715  -28.9825    4.5132 N   0  0  0  0  0  0  0  0  0  0  0  0
  -47.1469  -29.1631    6.7583 N   0  0  0  0  0  0  0  0  0  0  0  0
  -46.5431  -29.5877   -0.3594 O   0  0  0  0  0  0  0  0  0  0  0  0
  -49.3517  -29.3298    6.2748 O   0  0  0  0  0  0  0  0  0  0  0  0
  -40.8823  -31.0506    0.7079 H   0  0  0  0  0  0  0  0  0  0  0  0
  -41.6206  -28.7286    0.2177 H   0  0  0  0  0  0  0  0  0  0  0  0
  -42.6292  -32.7797    1.1708 H   0  0  0  0  0  0  0  0  0  0  0  0
  -50.1516  -30.5342    2.5971 H   0  0  0  0  0  0  0  0  0  0  0  0
  -48.9228  -31.1241    3.7016 H   0  0  0  0  0  0  0  0  0  0  0  0
  -48.1847  -31.7624    1.4752 H   0  0  0  0  0  0  0  0  0  0  0  0
  -48.5875  -30.1735    0.8338 H   0  0  0  0  0  0  0  0  0  0  0  0
  -48.7407  -28.2776    2.7342 H   0  0  0  0  0  0  0  0  0  0  0  0
  -49.8729  -28.6811    4.0160 H   0  0  0  0  0  0  0  0  0  0  0  0
  -45.0892  -30.3136    3.1498 H   0  0  0  0  0  0  0  0  0  0  0  0
  -46.5475  -31.0790    3.7636 H   0  0  0  0  0  0  0  0  0  0  0  0
  -45.8100  -28.7722    4.7860 H   0  0  0  0  0  0  0  0  0  0  0  0
  -46.4080  -28.0798    3.2984 H   0  0  0  0  0  0  0  0  0  0  0  0
  -42.4947  -26.8255    1.0891 H   0  0  0  0  0  0  0  0  0  0  0  0
  -43.9252  -26.9936    2.1188 H   0  0  0  0  0  0  0  0  0  0  0  0
  -43.9021  -25.7808    0.8272 H   0  0  0  0  0  0  0  0  0  0  0  0
  -45.2719  -27.7568    0.1540 H   0  0  0  0  0  0  0  0  0  0  0  0
  -43.8966  -27.5295   -0.9076 H   0  0  0  0  0  0  0  0  0  0  0  0
  -46.2098  -29.0344    6.3905 H   0  0  0  0  0  0  0  0  0  0  0  0
  -47.2529  -29.2837    7.7579 H   0  0  0  0  0  0  0  0  0  0  0  0
  1  2  2  0  0  0  0
  1  3  1  0  0  0  0
  2  4  1  0  0  0  0
  3 15  2  0  0  0  0
  4  5  2  0  0  0  0
  4 14  1  0  0  0  0
  5  6  1  0  0  0  0
  5 15  1  0  0  0  0
  6 16  1  0  0  0  0
  6 19  2  0  0  0  0
  7 17  1  0  0  0  0
  7 18  1  0  0  0  0
  7 20  2  0  0  0  0
  8  9  1  0  0  0  0
  8 10  1  0  0  0  0
  9 16  1  0  0  0  0
 10 17  1  0  0  0  0
 11 12  1  0  0  0  0
 11 16  1  0  0  0  0
 12 17  1  0  0  0  0
 13 14  1  0  0  0  0
  1 21  1  0  0  0  0
  2 22  1  0  0  0  0
  3 23  1  0  0  0  0
  8 24  1  0  0  0  0
  8 25  1  0  0  0  0
  9 26  1  0  0  0  0
  9 27  1  0  0  0  0
 10 28  1  0  0  0  0
 10 29  1  0  0  0  0
 11 30  1  0  0  0  0
 11 31  1  0  0  0  0
 12 32  1  0  0  0  0
 12 33  1  0  0  0  0
 13 34  1  0  0  0  0
 13 35  1  0  0  0  0
 13 36  1  0  0  0  0
 14 37  1  0  0  0  0
 14 38  1  0  0  0  0
 18 39  1  0  0  0  0
 18 40  1  0  0  0  0
M  END
> <POSIT::Probability>
0.18

> <POSIT::Method>
FRED

> <ReceptorTitle>
UCSF-P4250-REFINED_LIGAND-BOUND-STATE_A__DU__LA1_A-201(A)

> <OMEGA_C>
dr4nwjNf9sHIbTI/Pm4pwkoA7MHGttg+Rp8rwq4G/sHA/HM/Rd0uwqqh6cGx9tM+eWwywgba8cHY
ui4/9Tk4whD+78HVejE/PspAwtBN6cEFu7tAMnBEwvYN88GrbTpAdqpAwn1h9cFASd8/GtFDwjvu
58Enl2FAgKc4wn7K8cGkDE5Anww6wiKA58HWvX1Aylsuwqlb1sEkOYw/CrAwwkyH3sG3gvc9ue8w
wpoF/MHA53M/nxI7woYI8sFebfA/d3w/wjTc58Hja5BAbZY8wgJO6cHZQ9hAJCw6wrSz7MHzAri+
F2hFwnyj6sGAy8hAhocjwptn+MGAOzU/e3smwkTU5cHK9V4+QIQqwmAeA8J83JU/QptIwgRG9MG+
NiZA9rBDwjP++MEA52xALL1AwlAZ/sHM0rw/jVlCwj5j8cEBclU/dvZCwnA44sF7/C5A2n1HwtBy
5cEog4BAT1s0wk6C8sEKlklAnzA6ws+h+MHm3nBAbT03wnMt5sGvJplAz6E5wnmj4MFFGFNAjPop
wrCa1sGGZ4s/aLMvwt7y18ElmgdAvpsvwhA/zsEcw1M/ZhY1wvEN3sHprx0+GJYvwoI83MEIWGi/
0dY4wmpG6MFgf8xA7gI9whFF6sFbQPhA

> <OMEGA_E>
bh8AwQ==

> <OMEGA_NBR>
     14415

$$$$
CACHE3HI_1707_42
  -OEChem-03092622503D

 40 41  0     1  0  0  0  0  0999 V2000
  -42.4827  -30.7513    0.8267 C   0  0  0  0  0  0  0  0  0  0  0  0
  -42.6643  -29.4953    1.4058 C   0  0  0  0  0  0  0  0  0  0  0  0
  -43.5596  -31.4047    0.2277 C   0  0  0  0  0  0  0  0  0  0  0  0
  -53.0273  -28.5638    4.1161 C   0  0  0  0  0  0  0  0  0  0  0  0
  -43.9222  -28.8928    1.3857 C   0  0  0  0  0  0  0  0  0  0  0  0
  -44.8176  -30.8021    0.2076 C   0  0  0  0  0  0  0  0  0  0  0  0
  -51.6628  -28.7261    3.7387 C   0  0  0  0  0  0  0  0  0  0  0  0
  -53.3174  -29.2080    5.2987 C   0  0  0  0  0  0  0  0  0  0  0  0
  -44.9992  -29.5462    0.7866 C   0  0  0  0  0  0  0  0  0  0  0  0
  -50.9621  -29.4885    4.6479 C   0  0  0  0  0  0  0  0  0  0  0  0
  -46.4444  -29.3513    3.2968 C   0  0  0  0  0  0  0  0  0  0  0  0
  -46.4829  -29.1914    5.7608 C   0  0  0  0  0  0  0  0  0  0  0  0
  -49.5077  -29.8886    4.6140 C   0  0  0  0  0  0  0  0  0  0  0  0
  -47.2346  -29.2431    1.9934 C   0  0  0  0  0  0  0  0  0  0  0  0
  -48.5620  -28.6934    4.5335 C   0  0  0  0  0  0  0  0  0  0  0  0
  -46.3690  -28.8905    0.7646 C   0  0  1  0  0  0  0  0  0  0  0  0
  -46.2338  -27.4311    0.6742 N   0  0  0  0  0  0  0  0  0  0  0  0
  -47.1597  -29.0977    4.4722 N   0  0  0  0  0  0  0  0  0  0  0  0
  -45.2491  -29.6561    3.2856 O   0  0  0  0  0  0  0  0  0  0  0  0
  -51.9480  -30.0044    5.9495 S   0  0  0  0  0  0  0  0  0  0  0  0
  -41.5034  -31.2205    0.8424 H   0  0  0  0  0  0  0  0  0  0  0  0
  -41.8257  -28.9863    1.8719 H   0  0  0  0  0  0  0  0  0  0  0  0
  -43.4186  -32.3826   -0.2231 H   0  0  0  0  0  0  0  0  0  0  0  0
  -53.7593  -28.0027    3.5499 H   0  0  0  0  0  0  0  0  0  0  0  0
  -44.0540  -27.9141    1.8395 H   0  0  0  0  0  0  0  0  0  0  0  0
  -45.6504  -31.3186   -0.2624 H   0  0  0  0  0  0  0  0  0  0  0  0
  -51.2220  -28.3045    2.8443 H   0  0  0  0  0  0  0  0  0  0  0  0
  -54.2677  -29.2501    5.8118 H   0  0  0  0  0  0  0  0  0  0  0  0
  -46.0524  -28.2254    6.0402 H   0  0  0  0  0  0  0  0  0  0  0  0
  -47.1893  -29.4985    6.5372 H   0  0  0  0  0  0  0  0  0  0  0  0
  -45.6804  -29.9326    5.7128 H   0  0  0  0  0  0  0  0  0  0  0  0
  -49.2701  -30.4993    5.4946 H   0  0  0  0  0  0  0  0  0  0  0  0
  -49.3459  -30.5377    3.7440 H   0  0  0  0  0  0  0  0  0  0  0  0
  -48.0332  -28.5032    2.1217 H   0  0  0  0  0  0  0  0  0  0  0  0
  -47.7023  -30.2234    1.8300 H   0  0  0  0  0  0  0  0  0  0  0  0
  -48.7655  -28.1179    3.6244 H   0  0  0  0  0  0  0  0  0  0  0  0
  -48.6764  -28.0239    5.3921 H   0  0  0  0  0  0  0  0  0  0  0  0
  -46.9080  -29.2214   -0.1325 H   0  0  0  0  0  0  0  0  0  0  0  0
  -47.1601  -27.0258    0.6013 H   0  0  0  0  0  0  0  0  0  0  0  0
  -45.7439  -27.2051   -0.1843 H   0  0  0  0  0  0  0  0  0  0  0  0
  1  2  1  0  0  0  0
  1  3  2  0  0  0  0
  2  5  2  0  0  0  0
  3  6  1  0  0  0  0
  4  7  1  0  0  0  0
  4  8  2  0  0  0  0
  5  9  1  0  0  0  0
  6  9  2  0  0  0  0
  7 10  2  0  0  0  0
  8 20  1  0  0  0  0
  9 16  1  0  0  0  0
 10 13  1  0  0  0  0
 10 20  1  0  0  0  0
 11 14  1  0  0  0  0
 11 18  1  0  0  0  0
 11 19  2  0  0  0  0
 12 18  1  0  0  0  0
 13 15  1  0  0  0  0
 14 16  1  0  0  0  0
 15 18  1  0  0  0  0
 16 17  1  0  0  0  0
  1 21  1  0  0  0  0
  2 22  1  0  0  0  0
  3 23  1  0  0  0  0
  4 24  1  0  0  0  0
  5 25  1  0  0  0  0
  6 26  1  0  0  0  0
  7 27  1  0  0  0  0
  8 28  1  0  0  0  0
 12 29  1  0  0  0  0
 12 30  1  0  0  0  0
 12 31  1  0  0  0  0
 13 32  1  0  0  0  0
 13 33  1  0  0  0  0
 14 34  1  0  0  0  0
 14 35  1  0  0  0  0
 15 36  1  0  0  0  0
 15 37  1  0  0  0  0
 16 38  1  0  0  0  0
 17 39  1  0  0  0  0
 17 40  1  0  0  0  0
M  END
> <POSIT::Probability>
0.18

> <POSIT::Method>
FRED

> <ReceptorTitle>
UCSF-P4250-REFINED_LIGAND-BOUND-STATE_A__DU__LA1_A-201(A)

> <OMEGA_C>
UO4pwqYC9sE4olM/NKgqwnj268HQ8LM/ED0uwsQ8+8GgJWk+9htUwryC5MFyt4NAXrAvwmQk58GY
XbE/OkUzwrBq9sGAi1Q+vqZOwhfP5cFaR29AB0VVwuip6cETj6lAJP8zwppe7MGAYEk/KdlLwl7o
68HLu5RAFMc5wnfP6sFo/lJAe+45wuSH6cF1WLhA6wdGwuob78GspZNANPA8wtrx6cEoJ/8/gT9C
wgaM5cEfEpFA0Xk5wsgf58GIukM/bu84wuRy28Holiw/iqM8wgfI6MF8HI9AF/80wrg/7cHMR1JA
xspPwggJ8MFHYr5AggMmwojD+cG4pFc/i00nwurj58Fkmu8/m6wtwtGHAcKgbGS+jQlXwpcF4MGm
MWNAUjcwwv5P38FYdes//Jk2wmSM+sHwWYa+TeNMwo5v4sEoCTZAJRJZwkEA6sGS+rlAojU4wqvN
4cFEScFAy8E8wt3868GUMNFAvLg2wgZ278Eoz7ZAjhRFwo/+88Fu069AOmJFwjBN9MEgnm9A9CFA
wp4G5MFuygdAJc8+wp7J8cGwPOo/6g9DwoLx4MEw9mdArrRCwggx4MERjKxA0KE7wn7F6cHgsQe+
8KM8wug02MFo7xk/tvk2wiWk2cGgszy+

> <OMEGA_E>
MBL+wA==

> <OMEGA_NBR>
     15705

$$$$
CACHE3HI_1707_56
  -OEChem-03092622503D

 36 38  0     1  0  0  0  0  0999 V2000
  -49.9220  -30.2699    4.5149 C   0  0  0  0  0  0  0  0  0  0  0  0
  -42.6996  -29.8154    2.0656 C   0  0  0  0  0  0  0  0  0  0  0  0
  -48.6431  -29.7838    4.6878 C   0  0  0  0  0  0  0  0  0  0  0  0
  -48.2423  -31.1942    3.0575 C   0  0  0  0  0  0  0  0  0  0  0  0
  -45.5325  -30.5990    1.4520 C   0  0  0  0  0  0  0  0  0  0  0  0
  -49.1300  -32.5862    0.0950 C   0  0  0  0  0  0  0  0  0  0  0  0
  -48.1762  -31.9106   -0.8744 C   0  0  0  0  0  0  0  0  0  0  0  0
  -48.3768  -33.0705    1.3254 C   0  0  0  0  0  0  0  0  0  0  0  0
  -47.4229  -30.7615   -0.2185 C   0  0  0  0  0  0  0  0  0  0  0  0
  -47.4989  -31.9978    1.9945 C   0  0  1  0  0  0  0  0  0  0  0  0
  -48.2334  -28.7663    5.6763 C   0  0  0  0  0  0  0  0  0  0  0  0
  -44.6500  -31.4820    2.3008 C   0  0  0  0  0  0  0  0  0  0  0  0
  -41.6587  -29.4816    2.7932 N   0  0  0  0  0  0  0  0  0  0  0  0
  -47.6784  -30.3128    3.8528 N   0  0  0  0  0  0  0  0  0  0  0  0
  -41.7293  -30.2656    3.9234 N   0  0  0  0  0  0  0  0  0  0  0  0
  -42.7915  -31.0610    3.8862 N   0  0  0  0  0  0  0  0  0  0  0  0
  -43.3962  -30.7779    2.7241 N   0  0  0  0  0  0  0  0  0  0  0  0
  -46.7610  -31.1386    1.0402 N   0  0  0  0  0  0  0  0  0  0  0  0
  -45.1438  -29.4640    1.1626 O   0  0  0  0  0  0  0  0  0  0  0  0
  -49.9290  -31.4358    3.2576 S   0  0  0  0  0  0  0  0  0  0  0  0
  -50.8246  -30.0068    5.0482 H   0  0  0  0  0  0  0  0  0  0  0  0
  -42.9786  -29.4109    1.1037 H   0  0  0  0  0  0  0  0  0  0  0  0
  -49.9092  -31.8791    0.3931 H   0  0  0  0  0  0  0  0  0  0  0  0
  -49.6261  -33.4273   -0.3952 H   0  0  0  0  0  0  0  0  0  0  0  0
  -47.4555  -32.6476   -1.2586 H   0  0  0  0  0  0  0  0  0  0  0  0
  -48.7348  -31.5360   -1.7433 H   0  0  0  0  0  0  0  0  0  0  0  0
  -49.0967  -33.4776    2.0542 H   0  0  0  0  0  0  0  0  0  0  0  0
  -47.7321  -33.9161    1.0321 H   0  0  0  0  0  0  0  0  0  0  0  0
  -46.7007  -30.3494   -0.9464 H   0  0  0  0  0  0  0  0  0  0  0  0
  -48.1126  -29.9214    0.0019 H   0  0  0  0  0  0  0  0  0  0  0  0
  -46.7205  -32.5773    2.6154 H   0  0  0  0  0  0  0  0  0  0  0  0
  -47.9301  -29.2196    6.6354 H   0  0  0  0  0  0  0  0  0  0  0  0
  -49.0539  -28.0679    5.9146 H   0  0  0  0  0  0  0  0  0  0  0  0
  -47.3840  -28.1707    5.3038 H   0  0  0  0  0  0  0  0  0  0  0  0
  -44.4130  -32.3824    1.7322 H   0  0  0  0  0  0  0  0  0  0  0  0
  -45.2213  -31.8075    3.1710 H   0  0  0  0  0  0  0  0  0  0  0  0
  1  3  2  0  0  0  0
  1 20  1  0  0  0  0
  2 13  2  0  0  0  0
  2 17  1  0  0  0  0
  3 11  1  0  0  0  0
  3 14  1  0  0  0  0
  4 10  1  0  0  0  0
  4 14  2  0  0  0  0
  4 20  1  0  0  0  0
  5 12  1  0  0  0  0
  5 18  1  0  0  0  0
  5 19  2  0  0  0  0
  6  7  1  0  0  0  0
  6  8  1  0  0  0  0
  7  9  1  0  0  0  0
  8 10  1  0  0  0  0
  9 18  1  0  0  0  0
 10 18  1  0  0  0  0
 12 17  1  0  0  0  0
 13 15  1  0  0  0  0
 15 16  2  0  0  0  0
 16 17  1  0  0  0  0
  1 21  1  0  0  0  0
  2 22  1  0  0  0  0
  6 23  1  0  0  0  0
  6 24  1  0  0  0  0
  7 25  1  0  0  0  0
  7 26  1  0  0  0  0
  8 27  1  0  0  0  0
  8 28  1  0  0  0  0
  9 29  1  0  0  0  0
  9 30  1  0  0  0  0
 10 31  1  0  0  0  0
 11 32  1  0  0  0  0
 11 33  1  0  0  0  0
 11 34  1  0  0  0  0
 12 35  1  0  0  0  0
 12 36  1  0  0  0  0
M  END
> <POSIT::Probability>
0.24

> <POSIT::Method>
FRED

> <ReceptorTitle>
UCSF-P4250-REFINED_LIGAND-BOUND-STATE_A__DU__LA1_A-201(A)

> <OMEGA_C>
JLBHwsUo8sFHepBAZMwqwuaF7sH+MQRAfJJCwjVF7sGpApZAJvhAwsmN+cGMrUNARyE2wq3K9MEI
2rk/HIVEwlFYAsIAjMI9arRAwv9I/8GQ21+/0YFBwidIBMJIp6k/D7E9wogX9sGAtF++4f49wnH7
/8H4S/8//e5AwnEh5sHwo7VAl5kywjzb+8GmPxNAhaImwmba68F2xDJAu7Y+woiA8sFXlHZA0+om
wuYf8sEdGXtAdSorwtZ8+ME9t3hAvJUtwho59sFsWC5ARws7wtwb+cGoJoU/TJM0wlu268Fgz5Q/
VbdHwpd8+8H8fFBAbExLwtgN8MEsi6FAF+orwmxJ68GgRI0//KJHwmkI/8FAQsk+HYFGwpK1BcLA
Ucq+d9I9wiyXAsKEGKG/Y/BCwqtJ/MFgJN+/+2JEwg/pBcL0dwNArO0+whqqB8JAG4Q/fs06wqzL
8sGwSHK/TXNAwvte78EAgPI6xuE6wilPAsIQYydAYLg/wszB6cFpVdRALTdEwgmL4MF3RL1AL4k9
wqFd4cHxuKlA6KYxwpGHAcLwuN0/oOI0wrR1/sEq8kpA

> <OMEGA_E>
9JDdwA==

> <OMEGA_NBR>
     16918

$$$$
CACHE3HI_1707_69
  -OEChem-03092622503D

 48 49  0     1  0  0  0  0  0999 V2000
  -47.1707  -32.6716   -1.8154 C   0  0  0  0  0  0  0  0  0  0  0  0
  -48.2763  -31.8500   -1.5957 C   0  0  0  0  0  0  0  0  0  0  0  0
  -46.2924  -32.9526   -0.7690 C   0  0  0  0  0  0  0  0  0  0  0  0
  -48.5037  -31.3097   -0.3299 C   0  0  0  0  0  0  0  0  0  0  0  0
  -46.5198  -32.4123    0.4969 C   0  0  0  0  0  0  0  0  0  0  0  0
  -47.6254  -31.5907    0.7166 C   0  0  0  0  0  0  0  0  0  0  0  0
  -43.3222  -29.2802    0.4108 C   0  0  0  0  0  0  0  0  0  0  0  0
  -43.6910  -31.6754    2.8620 C   0  0  0  0  0  0  0  0  0  0  0  0
  -47.5726  -29.4010    4.4111 C   0  0  0  0  0  0  0  0  0  0  0  0
  -49.0754  -29.3918    4.1278 C   0  0  0  0  0  0  0  0  0  0  0  0
  -46.8886  -29.1420    3.0712 C   0  0  0  0  0  0  0  0  0  0  0  0
  -49.2267  -29.1885    2.6207 C   0  0  0  0  0  0  0  0  0  0  0  0
  -47.8929  -29.6321    2.0392 C   0  0  0  0  0  0  0  0  0  0  0  0
  -40.9050  -31.3894    2.3334 C   0  0  0  0  0  0  0  0  0  0  0  0
  -45.5688  -32.7238    1.6048 C   0  0  0  0  0  0  0  0  0  0  0  0
  -42.3315  -30.3891    0.6787 C   0  0  0  0  0  0  0  0  0  0  0  0
  -42.9688  -30.3517    2.9948 C   0  0  0  0  0  0  0  0  0  0  0  0
  -42.7807  -28.0311    0.6260 N   0  0  0  0  0  0  0  0  0  0  0  0
  -44.6977  -31.6171    1.9044 N   0  0  0  0  0  0  0  0  0  0  0  0
  -41.8707  -30.3070    2.0755 N   0  0  1  0  0  0  0  0  0  0  0  0
  -44.4903  -29.4685    0.0827 O   0  0  0  0  0  0  0  0  0  0  0  0
  -43.4303  -32.6577    3.5522 O   0  0  0  0  0  0  0  0  0  0  0  0
  -47.8631  -31.0514    1.9538 O   0  0  0  0  0  0  0  0  0  0  0  0
  -46.9940  -33.0926   -2.8010 H   0  0  0  0  0  0  0  0  0  0  0  0
  -48.9595  -31.6301   -2.4109 H   0  0  0  0  0  0  0  0  0  0  0  0
  -45.4338  -33.5940   -0.9496 H   0  0  0  0  0  0  0  0  0  0  0  0
  -49.3673  -30.6709   -0.1656 H   0  0  0  0  0  0  0  0  0  0  0  0
  -47.2925  -28.6495    5.1560 H   0  0  0  0  0  0  0  0  0  0  0  0
  -47.2770  -30.3801    4.8060 H   0  0  0  0  0  0  0  0  0  0  0  0
  -49.5177  -30.3471    4.4331 H   0  0  0  0  0  0  0  0  0  0  0  0
  -49.5882  -28.6013    4.6852 H   0  0  0  0  0  0  0  0  0  0  0  0
  -46.7168  -28.0661    2.9495 H   0  0  0  0  0  0  0  0  0  0  0  0
  -45.9269  -29.6607    3.0118 H   0  0  0  0  0  0  0  0  0  0  0  0
  -50.0765  -29.7558    2.2287 H   0  0  0  0  0  0  0  0  0  0  0  0
  -49.3913  -28.1246    2.4124 H   0  0  0  0  0  0  0  0  0  0  0  0
  -47.7097  -29.2179    1.0437 H   0  0  0  0  0  0  0  0  0  0  0  0
  -40.5483  -31.3484    3.3667 H   0  0  0  0  0  0  0  0  0  0  0  0
  -41.3736  -32.3626    2.1623 H   0  0  0  0  0  0  0  0  0  0  0  0
  -40.0468  -31.2977    1.6620 H   0  0  0  0  0  0  0  0  0  0  0  0
  -46.1073  -32.9804    2.5268 H   0  0  0  0  0  0  0  0  0  0  0  0
  -44.9328  -33.5845    1.3580 H   0  0  0  0  0  0  0  0  0  0  0  0
  -41.4672  -30.2794    0.0183 H   0  0  0  0  0  0  0  0  0  0  0  0
  -42.7925  -31.3692    0.5291 H   0  0  0  0  0  0  0  0  0  0  0  0
  -43.6395  -29.5195    2.7627 H   0  0  0  0  0  0  0  0  0  0  0  0
  -42.5787  -30.2439    4.0104 H   0  0  0  0  0  0  0  0  0  0  0  0
  -41.8149  -27.9626    0.9298 H   0  0  0  0  0  0  0  0  0  0  0  0
  -43.3128  -27.1772    0.4916 H   0  0  0  0  0  0  0  0  0  0  0  0
  -44.8253  -30.7480    1.3891 H   0  0  0  0  0  0  0  0  0  0  0  0
  1  2  1  0  0  0  0
  1  3  2  0  0  0  0
  2  4  2  0  0  0  0
  3  5  1  0  0  0  0
  4  6  1  0  0  0  0
  5  6  2  0  0  0  0
  5 15  1  0  0  0  0
  6 23  1  0  0  0  0
  7 16  1  0  0  0  0
  7 18  1  0  0  0  0
  7 21  2  0  0  0  0
  8 17  1  0  0  0  0
  8 19  1  0  0  0  0
  8 22  2  0  0  0  0
  9 10  1  0  0  0  0
  9 11  1  0  0  0  0
 10 12  1  0  0  0  0
 11 13  1  0  0  0  0
 12 13  1  0  0  0  0
 13 23  1  0  0  0  0
 14 20  1  0  0  0  0
 15 19  1  0  0  0  0
 16 20  1  0  0  0  0
 17 20  1  0  0  0  0
  1 24  1  0  0  0  0
  2 25  1  0  0  0  0
  3 26  1  0  0  0  0
  4 27  1  0  0  0  0
  9 28  1  0  0  0  0
  9 29  1  0  0  0  0
 10 30  1  0  0  0  0
 10 31  1  0  0  0  0
 11 32  1  0  0  0  0
 11 33  1  0  0  0  0
 12 34  1  0  0  0  0
 12 35  1  0  0  0  0
 13 36  1  0  0  0  0
 14 37  1  0  0  0  0
 14 38  1  0  0  0  0
 14 39  1  0  0  0  0
 15 40  1  0  0  0  0
 15 41  1  0  0  0  0
 16 42  1  0  0  0  0
 16 43  1  0  0  0  0
 17 44  1  0  0  0  0
 17 45  1  0  0  0  0
 18 46  1  0  0  0  0
 18 47  1  0  0  0  0
 19 48  1  0  0  0  0
M  END
> <POSIT::Probability>
0.24

> <POSIT::Method>
FRED

> <ReceptorTitle>
UCSF-P4250-REFINED_LIGAND-BOUND-STATE_A__DU__LA1_A-201(A)

> <OMEGA_C>
z648wsGvAsJEX+i/8RpBwszM/sGkP8y/ais5wnjPA8J42kS/1gNCwjx6+sEg46i+TxQ6wjCmAcJg
Zv4+ZYA+wri5/MEodDc/4kktwvI96sFAT9I+kMMuwjBn/cGoKzdAWko+wlQ168GPJ41APU1Ewmki
68EmF4RA5407wr4i6cGTjkRAKuhEwgeC6cGYuSdATZI/wpYO7cH8ggJAup4jwmsd+8EQVxVAaUY2
wjPlAsKgas0/a1Mpws4c88Gwvy0/E+ArwlPQ8sH2qj9Aah8rwrE/4MHoPiA/b8oywuPv/MGwxPM/
k3snws508sHv1ARAGPYxwnS/68HAZKk9obgtwn2hAsJ+VmNA13M/wixp+MEIF/o/2fk7wtdeBMLE
QjPAgdZDwmQK/cFsSxrAMrw1wjhgBsLAGXO/HHhFwuhd9cGAnSm+fSs9wkYy5cE2/qRAohs9wnMK
88HdyplAFBJGwszG8sEq3I1AXFpGwnzP5ME97ZVACt46wmCH4MENxDxALLU3wiFJ7cHxwUBAUk5I
wt8L7sFsog5AtpBFwir/4MHYZBpAyNY+wiu+6cFAl4U/gjEiwoLJ+sFNd1dAlX4lwklzAcIXYwpA
8y8gwqZh+sH8utQ/6m04wubrA8KqtyFAO7szwn1WBsLg0q0/cd4lwjE88sEAipU8gCsrwgv0+sHQ
cQc/144uwvgn7MHdzzBAkVAqwnrz8cHdVIBAb0Inwmaz38GIBW4/V0Atwvhq2cEgs/s+FU0zwuT7
9cFwz7E/

> <OMEGA_E>
unf8wA==

> <OMEGA_NBR>
     18368

$$$$
CACHE3HI_1708_25
  -OEChem-03092622503D

 38 39  0     1  0  0  0  0  0999 V2000
  -47.7390  -28.8790    4.6760 C   0  0  0  0  0  0  0  0  0  0  0  0
  -49.3232  -29.2845    2.8975 C   0  0  0  0  0  0  0  0  0  0  0  0
  -48.7570  -29.0329    5.6171 C   0  0  0  0  0  0  0  0  0  0  0  0
  -50.3413  -29.4384    3.8385 C   0  0  0  0  0  0  0  0  0  0  0  0
  -48.0222  -29.0050    3.3161 C   0  0  0  0  0  0  0  0  0  0  0  0
  -50.0580  -29.3124    5.1985 C   0  0  0  0  0  0  0  0  0  0  0  0
  -46.9502  -28.8434    2.3244 C   0  0  0  0  0  0  0  0  0  0  0  0
  -51.1189  -29.4728    6.1800 C   0  0  0  0  0  0  0  0  0  0  0  0
  -43.9468  -29.7058    2.4613 C   0  0  0  0  0  0  0  0  0  0  0  0
  -45.5952  -32.2129    1.4991 C   0  0  0  0  0  0  0  0  0  0  0  0
  -44.7359  -31.2622    0.6682 C   0  0  0  0  0  0  0  0  0  0  0  0
  -46.7674  -31.3508    1.9390 C   0  0  0  0  0  0  0  0  0  0  0  0
  -44.9289  -29.9131    1.3480 C   0  0  1  0  0  0  0  0  0  0  0  0
  -41.8641  -29.6017    1.0356 C   0  0  0  0  0  0  0  0  0  0  0  0
  -42.6943  -28.9241    2.1106 C   0  0  0  0  0  0  0  0  0  0  0  0
  -46.2479  -29.9844    1.9589 N   0  0  0  0  0  0  0  0  0  0  0  0
  -50.7834  -29.3375    7.5239 N   0  0  0  0  0  0  0  0  0  0  0  0
  -46.7553  -27.7118    1.8866 O   0  0  0  0  0  0  0  0  0  0  0  0
  -52.2911  -29.7055    5.8359 O   0  0  0  0  0  0  0  0  0  0  0  0
  -44.1611  -30.1530    3.5873 O   0  0  0  0  0  0  0  0  0  0  0  0
  -46.7291  -28.6615    5.0138 H   0  0  0  0  0  0  0  0  0  0  0  0
  -49.5544  -29.3848    1.8400 H   0  0  0  0  0  0  0  0  0  0  0  0
  -48.5254  -28.9333    6.6747 H   0  0  0  0  0  0  0  0  0  0  0  0
  -51.3513  -29.6553    3.5007 H   0  0  0  0  0  0  0  0  0  0  0  0
  -45.9125  -33.0895    0.9271 H   0  0  0  0  0  0  0  0  0  0  0  0
  -45.0337  -32.5604    2.3742 H   0  0  0  0  0  0  0  0  0  0  0  0
  -43.6927  -31.5912    0.6327 H   0  0  0  0  0  0  0  0  0  0  0  0
  -45.1229  -31.2213   -0.3570 H   0  0  0  0  0  0  0  0  0  0  0  0
  -47.5849  -31.3898    1.2106 H   0  0  0  0  0  0  0  0  0  0  0  0
  -47.1539  -31.6328    2.9229 H   0  0  0  0  0  0  0  0  0  0  0  0
  -44.8619  -29.0665    0.6577 H   0  0  0  0  0  0  0  0  0  0  0  0
  -41.5471  -30.6001    1.3552 H   0  0  0  0  0  0  0  0  0  0  0  0
  -40.9683  -29.0121    0.8179 H   0  0  0  0  0  0  0  0  0  0  0  0
  -42.4351  -29.7121    0.1081 H   0  0  0  0  0  0  0  0  0  0  0  0
  -42.9978  -27.9295    1.7664 H   0  0  0  0  0  0  0  0  0  0  0  0
  -42.0951  -28.8123    3.0201 H   0  0  0  0  0  0  0  0  0  0  0  0
  -49.8431  -29.1174    7.8336 H   0  0  0  0  0  0  0  0  0  0  0  0
  -51.4818  -29.4216    8.2550 H   0  0  0  0  0  0  0  0  0  0  0  0
  1  3  2  0  0  0  0
  1  5  1  0  0  0  0
  2  4  1  0  0  0  0
  2  5  2  0  0  0  0
  3  6  1  0  0  0  0
  4  6  2  0  0  0  0
  5  7  1  0  0  0  0
  6  8  1  0  0  0  0
  7 16  1  0  0  0  0
  7 18  2  0  0  0  0
  8 17  1  0  0  0  0
  8 19  2  0  0  0  0
  9 13  1  0  0  0  0
  9 15  1  0  0  0  0
  9 20  2  0  0  0  0
 10 11  1  0  0  0  0
 10 12  1  0  0  0  0
 11 13  1  0  0  0  0
 12 16  1  0  0  0  0
 13 16  1  0  0  0  0
 14 15  1  0  0  0  0
  1 21  1  0  0  0  0
  2 22  1  0  0  0  0
  3 23  1  0  0  0  0
  4 24  1  0  0  0  0
 10 25  1  0  0  0  0
 10 26  1  0  0  0  0
 11 27  1  0  0  0  0
 11 28  1  0  0  0  0
 12 29  1  0  0  0  0
 12 30  1  0  0  0  0
 13 31  1  0  0  0  0
 14 32  1  0  0  0  0
 14 33  1  0  0  0  0
 14 34  1  0  0  0  0
 15 35  1  0  0  0  0
 15 36  1  0  0  0  0
 17 37  1  0  0  0  0
 17 38  1  0  0  0  0
M  END
> <POSIT::Probability>
0.18

> <POSIT::Method>
FRED

> <ReceptorTitle>
UCSF-P4250-REFINED_LIGAND-BOUND-STATE_A__DU__LA1_A-201(A)

> <OMEGA_C>
sfQ+wi8I58EhopVA/0pFwq5G6sHkcDlAJgdDwmVD6MF+v7NAcV1JwuWB68GmqnVAxRZAwjEK6MGv
O1RAYTtIwuJ/6sEXWqZA9cw7wla/5sGwwhRAvnlMwkXI68H2wsVAkMkvwnyl7cF5hh1AcWE2wgTa
AMIa478/jfEywvkY+sEwDCs/zBE7wnnO+sHmMfg/OrczwgxO78Hgi6w/1XQnwkPQ7MGKjYQ/6sYq
wp5k58G6EwdA4f04wgHg78FQvfo/MSJLwk2z6sEuxPBAaQU7wq+x3cEifPE/CypRwuWk7cGFv7pA
BKUwwnE58cHclWVAnOo6wsRK5cEocaBAsjdGwgkU68EghOs/DxpCwk9358ETl9VAtWdNwgk+7cE6
C2BAY6Y3wqFbBMIwVW0/gyI0wuU9AsLp8hdAVsUuwry6/MGQ9yE/4300wkDF+cFAyra+9FY+wkMe
+8Gw85o/nJ08wvYP/cETEDtAjnIzwiiI6MEoYCg/LzAmwurM9MEod60/kN8jwr0Y6MHQX1E/g70p
wnOy7cFAZN09yv0rwqhv38E4GeI/bGEowq5/5sFKSUFAW19Hwn/w6MH9rPpAXO1NwnZf68GcFARB

> <OMEGA_E>
szv5wA==

> <OMEGA_NBR>
     19618

$$$$
CACHE3HI_1708_28
  -OEChem-03092622503D

 35 37  0     1  0  0  0  0  0999 V2000
  -50.1613  -29.0765    3.7728 C   0  0  0  0  0  0  0  0  0  0  0  0
  -50.1788  -29.0466    2.4006 C   0  0  0  0  0  0  0  0  0  0  0  0
  -47.1334  -29.2872    5.9459 C   0  0  0  0  0  0  0  0  0  0  0  0
  -48.8040  -29.1904    4.3177 C   0  0  0  0  0  0  0  0  0  0  0  0
  -47.8238  -29.2595    3.3027 C   0  0  0  0  0  0  0  0  0  0  0  0
  -46.4686  -29.3322    3.7037 C   0  0  0  0  0  0  0  0  0  0  0  0
  -44.2913  -31.9481    2.7994 C   0  0  0  0  0  0  0  0  0  0  0  0
  -42.7664  -31.0127    0.1695 C   0  0  0  0  0  0  0  0  0  0  0  0
  -43.1302  -29.5592   -0.1340 C   0  0  0  0  0  0  0  0  0  0  0  0
  -44.0643  -31.8256    0.3015 C   0  0  0  0  0  0  0  0  0  0  0  0
  -43.9282  -28.9564    1.0201 C   0  0  0  0  0  0  0  0  0  0  0  0
  -44.9242  -31.3585    1.5061 C   0  0  2  0  0  0  0  0  0  0  0  0
  -45.1546  -29.7917    1.4959 C   0  0  1  0  0  0  0  0  0  0  0  0
  -48.4413  -29.2103    5.6183 N   0  0  0  0  0  0  0  0  0  0  0  0
  -46.1560  -29.3380    5.0168 N   0  0  0  0  0  0  0  0  0  0  0  0
  -43.4470  -31.2073    3.6072 N   0  0  0  0  0  0  0  0  0  0  0  0
  -45.3769  -29.2257    2.8523 N   0  0  0  0  0  0  0  0  0  0  0  0
  -44.3891  -33.1512    3.0116 O   0  0  0  0  0  0  0  0  0  0  0  0
  -48.5672  -29.1542    1.7208 S   0  0  0  0  0  0  0  0  0  0  0  0
  -51.0498  -29.0222    4.3844 H   0  0  0  0  0  0  0  0  0  0  0  0
  -51.0793  -28.9663    1.8097 H   0  0  0  0  0  0  0  0  0  0  0  0
  -46.8594  -29.3088    6.9903 H   0  0  0  0  0  0  0  0  0  0  0  0
  -42.1553  -31.4206   -0.6491 H   0  0  0  0  0  0  0  0  0  0  0  0
  -42.1996  -31.0641    1.1109 H   0  0  0  0  0  0  0  0  0  0  0  0
  -42.2079  -28.9777   -0.2793 H   0  0  0  0  0  0  0  0  0  0  0  0
  -43.7358  -29.5215   -1.0516 H   0  0  0  0  0  0  0  0  0  0  0  0
  -44.6521  -31.7080   -0.6209 H   0  0  0  0  0  0  0  0  0  0  0  0
  -43.8066  -32.8860    0.4393 H   0  0  0  0  0  0  0  0  0  0  0  0
  -43.2477  -28.8357    1.8760 H   0  0  0  0  0  0  0  0  0  0  0  0
  -44.2938  -27.9694    0.7004 H   0  0  0  0  0  0  0  0  0  0  0  0
  -45.9148  -31.8233    1.3933 H   0  0  0  0  0  0  0  0  0  0  0  0
  -46.0150  -29.5659    0.8487 H   0  0  0  0  0  0  0  0  0  0  0  0
  -42.9365  -31.6555    4.3410 H   0  0  0  0  0  0  0  0  0  0  0  0
  -43.3473  -30.2236    3.4573 H   0  0  0  0  0  0  0  0  0  0  0  0
  -45.2641  -28.2403    2.7251 H   0  0  0  0  0  0  0  0  0  0  0  0
  1  2  2  0  0  0  0
  1  4  1  0  0  0  0
  2 19  1  0  0  0  0
  3 14  1  0  0  0  0
  3 15  2  0  0  0  0
  4  5  1  0  0  0  0
  4 14  2  0  0  0  0
  5  6  2  0  0  0  0
  5 19  1  0  0  0  0
  6 15  1  0  0  0  0
  6 17  1  0  0  0  0
  7 12  1  0  0  0  0
  7 16  1  0  0  0  0
  7 18  2  0  0  0  0
  8  9  1  0  0  0  0
  8 10  1  0  0  0  0
  9 11  1  0  0  0  0
 10 12  1  0  0  0  0
 11 13  1  0  0  0  0
 12 13  1  0  0  0  0
 13 17  1  0  0  0  0
  1 20  1  0  0  0  0
  2 21  1  0  0  0  0
  3 22  1  0  0  0  0
  8 23  1  0  0  0  0
  8 24  1  0  0  0  0
  9 25  1  0  0  0  0
  9 26  1  0  0  0  0
 10 27  1  0  0  0  0
 10 28  1  0  0  0  0
 11 29  1  0  0  0  0
 11 30  1  0  0  0  0
 12 31  1  0  0  0  0
 13 32  1  0  0  0  0
 16 33  1  0  0  0  0
 16 34  1  0  0  0  0
 17 35  1  0  0  0  0
M  END
> <POSIT::Probability>
0.99

> <POSIT::Method>
SHAPEFIT

> <ReceptorTitle>
UCSF-P4250-REFINED_LIGAND-BOUND-STATE_A__DU__LA1_A-201(A)

> <OMEGA_C>
NaVIwrmc6MHsdHFAErdIwoFf6MHiohlAm4g8whhM6sHERL5AQDdDwt2F6cGiKopAnEs/wlsT6sGn
X1NA0985wkao6sHfCG1ASSoxwqmV/8EEKjNAyhArwhka+MEYnC0+W4UswkN57MHYQAm+4EEwwsaa
/sFZW5o+bbYvwrOm58Hkk4I/W7Izwkve+sHkx8A/T540wndV7sFIeL8/4sNBwp6u6cFyybNAw584
wkC06sE5iaBAv8ktwoyo+cHD3GZA/IE1wkPO6cHTjDZAe44xws2aBMLRvUBA20RCwrw76cEQQ9w/
9TJMwm0t6MFCTYxAKFFMwg2758EGpec/EnA7wlN46sHqsN9AAp8owlld+8G8LCa/acwowkSD+MF7
MY4/19QowmPS58G1/Y6+bvEuwv8r7MFbmoa/tZsywv+p/cFk8h6/6TkvwkmLA8L88OA+rP0swpCv
5sESIPA/ziwxwmnB38GxSzM/t6g3wieW/sHBV7I/Uw84wvmG7MGARlk/7b4rwoQ+/cFp6YpArGMt
wgHK8cHXRF1AfA41whXs4cFRaC5A

> <OMEGA_E>
gGQ3PQ==

> <OMEGA_NBR>
     20842

$$$$
CACHE3HI_1708_43
  -OEChem-03092622503D

 39 41  0     1  0  0  0  0  0999 V2000
  -50.1250  -29.2564    3.8075 C   0  0  0  0  0  0  0  0  0  0  0  0
  -49.9689  -29.4071    2.4492 C   0  0  0  0  0  0  0  0  0  0  0  0
  -47.0180  -29.0858    5.9102 C   0  0  0  0  0  0  0  0  0  0  0  0
  -48.7872  -29.2205    4.3979 C   0  0  0  0  0  0  0  0  0  0  0  0
  -47.8755  -29.3778    3.3518 C   0  0  0  0  0  0  0  0  0  0  0  0
  -46.5013  -29.4076    3.6412 C   0  0  0  0  0  0  0  0  0  0  0  0
  -44.1220  -32.3581    1.8361 C   0  0  0  0  0  0  0  0  0  0  0  0
  -43.3145  -29.6775    0.2049 C   0  0  0  0  0  0  0  0  0  0  0  0
  -43.7417  -28.6375    1.2727 C   0  0  0  0  0  0  0  0  0  0  0  0
  -42.4503  -30.7940    0.8235 C   0  0  0  0  0  0  0  0  0  0  0  0
  -43.2821  -30.4087    3.1119 C   0  0  0  0  0  0  0  0  0  0  0  0
  -44.1751  -29.2255    2.6603 C   0  0  2  0  0  0  0  0  0  0  0  0
  -44.8194  -32.5877    0.4853 C   0  0  0  0  0  0  0  0  0  0  0  0
  -48.0300  -29.6514    0.8181 C   0  0  0  0  0  0  0  0  0  0  0  0
  -48.3554  -29.0844    5.6688 N   0  0  0  0  0  0  0  0  0  0  0  0
  -46.0917  -29.2415    4.9244 N   0  0  0  0  0  0  0  0  0  0  0  0
  -48.6046  -29.4678    2.1717 N   0  0  0  0  0  0  0  0  0  0  0  0
  -43.1545  -31.3504    1.9900 N   0  0  0  0  0  0  0  0  0  0  0  0
  -45.5954  -29.6249    2.6020 N   0  0  0  0  0  0  0  0  0  0  0  0
  -44.6436  -32.8575    2.8267 O   0  0  0  0  0  0  0  0  0  0  0  0
  -51.0617  -29.1789    4.3394 H   0  0  0  0  0  0  0  0  0  0  0  0
  -50.7660  -29.4678    1.7231 H   0  0  0  0  0  0  0  0  0  0  0  0
  -46.6755  -28.9580    6.9264 H   0  0  0  0  0  0  0  0  0  0  0  0
  -44.2156  -30.1263   -0.2386 H   0  0  0  0  0  0  0  0  0  0  0  0
  -42.7345  -29.1685   -0.5790 H   0  0  0  0  0  0  0  0  0  0  0  0
  -42.8920  -27.9600    1.4434 H   0  0  0  0  0  0  0  0  0  0  0  0
  -44.5903  -28.0666    0.8678 H   0  0  0  0  0  0  0  0  0  0  0  0
  -42.2837  -31.5871    0.0797 H   0  0  0  0  0  0  0  0  0  0  0  0
  -41.4820  -30.3790    1.1401 H   0  0  0  0  0  0  0  0  0  0  0  0
  -42.2878  -30.0352    3.3980 H   0  0  0  0  0  0  0  0  0  0  0  0
  -43.7446  -30.9158    3.9715 H   0  0  0  0  0  0  0  0  0  0  0  0
  -44.0677  -28.4237    3.4056 H   0  0  0  0  0  0  0  0  0  0  0  0
  -45.7228  -33.1966    0.6373 H   0  0  0  0  0  0  0  0  0  0  0  0
  -45.1002  -31.6181    0.0482 H   0  0  0  0  0  0  0  0  0  0  0  0
  -44.1341  -33.1125   -0.1966 H   0  0  0  0  0  0  0  0  0  0  0  0
  -46.9320  -29.6633    0.8838 H   0  0  0  0  0  0  0  0  0  0  0  0
  -48.3823  -30.6043    0.3965 H   0  0  0  0  0  0  0  0  0  0  0  0
  -48.3493  -28.8228    0.1689 H   0  0  0  0  0  0  0  0  0  0  0  0
  -45.5951  -30.6120    2.4421 H   0  0  0  0  0  0  0  0  0  0  0  0
  1  2  2  0  0  0  0
  1  4  1  0  0  0  0
  2 17  1  0  0  0  0
  3 15  2  0  0  0  0
  3 16  1  0  0  0  0
  4  5  2  0  0  0  0
  4 15  1  0  0  0  0
  5  6  1  0  0  0  0
  5 17  1  0  0  0  0
  6 16  2  0  0  0  0
  6 19  1  0  0  0  0
  7 13  1  0  0  0  0
  7 18  1  0  0  0  0
  7 20  2  0  0  0  0
  8  9  1  0  0  0  0
  8 10  1  0  0  0  0
  9 12  1  0  0  0  0
 10 18  1  0  0  0  0
 11 12  1  0  0  0  0
 11 18  1  0  0  0  0
 12 19  1  0  0  0  0
 14 17  1  0  0  0  0
  1 21  1  0  0  0  0
  2 22  1  0  0  0  0
  3 23  1  0  0  0  0
  8 24  1  0  0  0  0
  8 25  1  0  0  0  0
  9 26  1  0  0  0  0
  9 27  1  0  0  0  0
 10 28  1  0  0  0  0
 10 29  1  0  0  0  0
 11 30  1  0  0  0  0
 11 31  1  0  0  0  0
 12 32  1  0  0  0  0
 13 33  1  0  0  0  0
 13 34  1  0  0  0  0
 13 35  1  0  0  0  0
 14 36  1  0  0  0  0
 14 37  1  0  0  0  0
 14 38  1  0  0  0  0
 19 39  1  0  0  0  0
M  END
> <POSIT::Probability>
0.79

> <POSIT::Method>
SHAPEFIT

> <ReceptorTitle>
UCSF-P4250-REFINED_LIGAND-BOUND-STATE_A__DU__LA1_A-201(A)

> <OMEGA_C>
/n9Iwg8N6sHHrXNAIuBHwq1B68FtvxxAbhI8wrWv6MEKIL1ADiZDwprD6cGMu4xAg4A/wsoF68EV
g1ZAVAE6wrhC68GvCGlA5nwwwqZuAcLwBOs/CUItwp9r7cEI0VE+fPcuwoMZ5cEy6aI/FM0pwhxa
9sEm0lI/3yAtwu1E88G0KUdARbMwwsXN6cEZQipAE0czwspZAsKgdPg+sB5AwhI27cFeblE/5mtB
wtus6MGuZrVA6V04wqbu6cGilJ1AFmtCwgu+68Hr/QpAQJ4swqTN+sHmuP4/t2E2wrP/7MGJhyZA
CJMywh5uA8Ir6TRALj9MwmRu6cGs3IpAaxBLwh++68FMjdw/wLM6wgqq58FLpd1AvNwwwqYC8cH+
VHS+LPAqwhVZ6cG/OhS/cpErwguu38Fvwbg/cFwywkyI4MEbKV4/iyIpwnKy/MH7TqM9ju0lwjAI
88GX7ZE/rSYpwhpI8MHfeFlAd/ouwoBT98GXLX5AT0UwwqNj48Hv9VlAJOQ2wlXJBMI4JCM/nGY0
ws/x/MGwikU9SYkwwjRzBML3REm+Xbo7wopO7cHgP2I/gIdBwrLV9MHWAMs+tGVBwiyV5sE/6iw+
XmE2wljl9MF7SxxA

> <OMEGA_E>
+KcOPw==

> <OMEGA_NBR>
     22142

$$$$
CACHE3HI_1708_76
  -OEChem-03092622503D

 34 35  0     1  0  0  0  0  0999 V2000
  -44.3986  -29.3409    1.7459 C   0  0  0  0  0  0  0  0  0  0  0  0
  -42.5220  -30.2801    3.4212 C   0  0  0  0  0  0  0  0  0  0  0  0
  -44.5892  -30.4828    2.4968 C   0  0  0  0  0  0  0  0  0  0  0  0
  -43.1813  -28.7130    1.9115 C   0  0  0  0  0  0  0  0  0  0  0  0
  -45.8475  -31.2336    2.4022 C   0  0  0  0  0  0  0  0  0  0  0  0
  -48.9884  -31.6429    1.8910 C   0  0  0  0  0  0  0  0  0  0  0  0
  -49.3178  -29.2819    4.0235 C   0  0  0  0  0  0  0  0  0  0  0  0
  -48.0231  -28.5298    3.7578 C   0  0  0  0  0  0  0  0  0  0  0  0
  -49.0451  -30.7656    4.2420 C   0  0  0  0  0  0  0  0  0  0  0  0
  -47.2613  -29.1304    2.5824 C   0  0  0  0  0  0  0  0  0  0  0  0
  -48.1944  -31.3928    3.1397 C   0  0  2  0  0  0  0  0  0  0  0  0
  -42.8839  -27.4699    1.1421 C   0  0  0  0  0  0  0  0  0  0  0  0
  -43.6688  -30.9825    3.3475 N   0  0  0  0  0  0  0  0  0  0  0  0
  -42.2163  -29.1565    2.7441 N   0  0  0  0  0  0  0  0  0  0  0  0
  -47.0428  -30.5782    2.7382 N   0  0  0  0  0  0  0  0  0  0  0  0
  -48.2494  -32.2367    0.8943 N   0  0  0  0  0  0  0  0  0  0  0  0
  -45.7543  -32.3992    2.0179 O   0  0  0  0  0  0  0  0  0  0  0  0
  -50.1694  -31.3249    1.7827 O   0  0  0  0  0  0  0  0  0  0  0  0
  -45.1553  -28.9611    1.0699 H   0  0  0  0  0  0  0  0  0  0  0  0
  -41.7656  -30.6580    4.0980 H   0  0  0  0  0  0  0  0  0  0  0  0
  -49.8157  -28.8642    4.9058 H   0  0  0  0  0  0  0  0  0  0  0  0
  -50.0039  -29.1466    3.1791 H   0  0  0  0  0  0  0  0  0  0  0  0
  -48.2457  -27.4768    3.5514 H   0  0  0  0  0  0  0  0  0  0  0  0
  -47.3906  -28.5526    4.6538 H   0  0  0  0  0  0  0  0  0  0  0  0
  -48.5222  -30.8874    5.1995 H   0  0  0  0  0  0  0  0  0  0  0  0
  -50.0005  -31.2959    4.3348 H   0  0  0  0  0  0  0  0  0  0  0  0
  -47.8260  -28.9901    1.6530 H   0  0  0  0  0  0  0  0  0  0  0  0
  -46.3135  -28.5984    2.4638 H   0  0  0  0  0  0  0  0  0  0  0  0
  -47.8448  -32.3750    3.4781 H   0  0  0  0  0  0  0  0  0  0  0  0
  -43.1980  -26.5747    1.6944 H   0  0  0  0  0  0  0  0  0  0  0  0
  -43.4199  -27.4573    0.1841 H   0  0  0  0  0  0  0  0  0  0  0  0
  -41.8085  -27.3945    0.9402 H   0  0  0  0  0  0  0  0  0  0  0  0
  -47.2733  -32.4497    1.0701 H   0  0  0  0  0  0  0  0  0  0  0  0
  -48.6457  -32.4695   -0.0108 H   0  0  0  0  0  0  0  0  0  0  0  0
  1  3  2  0  0  0  0
  1  4  1  0  0  0  0
  2 13  2  0  0  0  0
  2 14  1  0  0  0  0
  3  5  1  0  0  0  0
  3 13  1  0  0  0  0
  4 12  1  0  0  0  0
  4 14  2  0  0  0  0
  5 15  1  0  0  0  0
  5 17  2  0  0  0  0
  6 11  1  0  0  0  0
  6 16  1  0  0  0  0
  6 18  2  0  0  0  0
  7  8  1  0  0  0  0
  7  9  1  0  0  0  0
  8 10  1  0  0  0  0
  9 11  1  0  0  0  0
 10 15  1  0  0  0  0
 11 15  1  0  0  0  0
  1 19  1  0  0  0  0
  2 20  1  0  0  0  0
  7 21  1  0  0  0  0
  7 22  1  0  0  0  0
  8 23  1  0  0  0  0
  8 24  1  0  0  0  0
  9 25  1  0  0  0  0
  9 26  1  0  0  0  0
 10 27  1  0  0  0  0
 10 28  1  0  0  0  0
 11 29  1  0  0  0  0
 12 30  1  0  0  0  0
 12 31  1  0  0  0  0
 12 32  1  0  0  0  0
 16 33  1  0  0  0  0
 16 34  1  0  0  0  0
M  END
> <POSIT::Probability>
0.24

> <POSIT::Method>
FRED

> <ReceptorTitle>
UCSF-P4250-REFINED_LIGAND-BOUND-STATE_A__DU__LA1_A-201(A)

> <OMEGA_C>
M5gxwj666sHMeN8/jRYqwqU98sEa9VpATlsywsbc88HKyh9AnLkswlC05cEcrfQ/02M3wnDe+cEv
vRlAKPRDwrMk/cHkDfI/a0VFwkFB6sFfwIBAsxdAwhI95MF+f3BAIi5EwuEf9sHOvodAiQs9whQL
6cGERiVABsdAwmwk+8GQ8UhAGYkrwkjC28FEMJI/1KwuwiHc98FTPVZAfd0owm1A6cGxni9AySs8
wh6g9MHGPi9Abf9AwmzyAMJA82Q/XQQ3wtCYAcJ7JQFAgK1IwluZ+sHgMOQ/Ap80wkmw58G08og/
+Q8nwqlD9cF2IoNAUkNHwurp5sG0/JxA+wNIwi8s6cEAd0tAnPtAwovQ28HmSmNAA5A9wq5r5MHH
65RAtBZCwm4Z98H4YaZAjQBIwg5e+sHctopA0U0/wtDr58G2lNM/EEE5wnPJ5MGerx1ADmE/wg2A
AcKkmV5AysoswhGZ1MHG4Ng/9q0twnmo28GAeTw+5TsnwtYn28HwrXA/5Bc9wnrMAcLv+Yg/OJVC
wtDgAcIAJzG8

> <OMEGA_E>
E170wA==

> <OMEGA_NBR>
     23311

$$$$
CACHE3HI_1708_92
  -OEChem-03092622503D

 28 30  0     0  0  0  0  0  0999 V2000
  -49.4618  -29.0958    4.3226 C   0  0  0  0  0  0  0  0  0  0  0  0
  -49.0597  -29.2538    3.0044 C   0  0  0  0  0  0  0  0  0  0  0  0
  -48.5084  -29.0995    5.3380 C   0  0  0  0  0  0  0  0  0  0  0  0
  -47.7057  -29.4149    2.7148 C   0  0  0  0  0  0  0  0  0  0  0  0
  -43.5045  -28.7854   -0.4298 C   0  0  0  0  0  0  0  0  0  0  0  0
  -44.9569  -29.4180    5.7304 C   0  0  0  0  0  0  0  0  0  0  0  0
  -43.8766  -27.6738    0.2937 C   0  0  0  0  0  0  0  0  0  0  0  0
  -47.1532  -29.2594    5.0590 C   0  0  0  0  0  0  0  0  0  0  0  0
  -46.7443  -29.4200    3.7224 C   0  0  0  0  0  0  0  0  0  0  0  0
  -43.0451  -29.8414    0.4094 C   0  0  0  0  0  0  0  0  0  0  0  0
  -43.0838  -29.4961    1.7429 C   0  0  0  0  0  0  0  0  0  0  0  0
  -44.5578  -29.5745    4.4294 C   0  0  0  0  0  0  0  0  0  0  0  0
  -42.6924  -30.3082    2.9441 C   0  0  0  0  0  0  0  0  0  0  0  0
  -46.2518  -29.2598    6.0564 N   0  0  0  0  0  0  0  0  0  0  0  0
  -45.4443  -29.5764    3.4170 N   0  0  0  0  0  0  0  0  0  0  0  0
  -43.1817  -29.7359    4.1590 N   0  0  0  0  0  0  0  0  0  0  0  0
  -43.6717  -27.9051    1.9782 S   0  0  0  0  0  0  0  0  0  0  0  0
  -42.4673  -31.4930   -0.2910 Br  0  0  0  0  0  0  0  0  0  0  0  0
  -50.5132  -28.9705    4.5628 H   0  0  0  0  0  0  0  0  0  0  0  0
  -49.7933  -29.2534    2.2040 H   0  0  0  0  0  0  0  0  0  0  0  0
  -48.8385  -28.9742    6.3674 H   0  0  0  0  0  0  0  0  0  0  0  0
  -47.4036  -29.5391    1.6767 H   0  0  0  0  0  0  0  0  0  0  0  0
  -43.5632  -28.8285   -1.5103 H   0  0  0  0  0  0  0  0  0  0  0  0
  -44.2613  -29.4137    6.5614 H   0  0  0  0  0  0  0  0  0  0  0  0
  -44.2589  -26.7368   -0.0862 H   0  0  0  0  0  0  0  0  0  0  0  0
  -43.0880  -31.3263    2.8671 H   0  0  0  0  0  0  0  0  0  0  0  0
  -41.6034  -30.3877    3.0265 H   0  0  0  0  0  0  0  0  0  0  0  0
  -42.5426  -29.4281    4.8664 H   0  0  0  0  0  0  0  0  0  0  0  0
  1  2  1  0  0  0  0
  1  3  2  0  0  0  0
  2  4  2  0  0  0  0
  3  8  1  0  0  0  0
  4  9  1  0  0  0  0
  5  7  2  0  0  0  0
  5 10  1  0  0  0  0
  6 12  2  0  0  0  0
  6 14  1  0  0  0  0
  7 17  1  0  0  0  0
  8  9  1  0  0  0  0
  8 14  2  0  0  0  0
  9 15  2  0  0  0  0
 10 11  2  0  0  0  0
 10 18  1  0  0  0  0
 11 13  1  0  0  0  0
 11 17  1  0  0  0  0
 12 15  1  0  0  0  0
 12 16  1  0  0  0  0
 13 16  1  0  0  0  0
  1 19  1  0  0  0  0
  2 20  1  0  0  0  0
  3 21  1  0  0  0  0
  4 22  1  0  0  0  0
  5 23  1  0  0  0  0
  6 24  1  0  0  0  0
  7 25  1  0  0  0  0
 13 26  1  0  0  0  0
 13 27  1  0  0  0  0
 16 28  1  0  0  0  0
M  END
> <POSIT::Probability>
0.18

> <POSIT::Method>
HYBRID

> <ReceptorTitle>
UCSF-P4250-REFINED_LIGAND-BOUND-STATE_A__DU__LA1_A-201(A)

> <OMEGA_C>
2NhFwinE6MF6UopALj1EwrwH6sHyR0BAlAhCws3L6MEe0apAo9I+wsxR68EMvy1AmQQuwm5I5sHQ
Edy+4NMzwv5X68GgX7dApoEvwuZj3cFgW5Y+25w8wlQT6sFp46FAH/o6whpc68FEPG5ANi4swi+7
7sHQn9E+ylUswhL468GEF98/KjsywqqY7MHMvY1ABsUqwhh38sEabDxAzwE5wiEU6sE2zsFA/MY1
wm6c7MGAsFpAG7oswizj7cGdFoVA1q8uwqQ938H4NP0/it4pwqjx+8FgBJW+ew1Kwp/D58FoApJA
UCxHwgIH6sF0Dg1AqFpDwjnL58GWwctAQp09whRQ7MGQntY/vEAuwsCg5sFUUsG/kAsxwitP68EN
99FAJgkxwg3l1cHAfrC9JloswlSc+sFYfzdA5WkmwgMa88FQskFAqisqwsNs68HmuZtA

> <OMEGA_E>
gnHdwA==

> <OMEGA_NBR>
     24363

$$$$
CACHE3HI_1709_65
  -OEChem-03092622503D

 37 38  0     1  0  0  0  0  0999 V2000
  -49.3444  -28.9064    1.5414 C   0  0  0  0  0  0  0  0  0  0  0  0
  -50.8574  -29.0049    3.2681 C   0  0  0  0  0  0  0  0  0  0  0  0
  -48.2760  -29.1401    2.3928 C   0  0  0  0  0  0  0  0  0  0  0  0
  -49.8600  -29.2433    4.1998 C   0  0  0  0  0  0  0  0  0  0  0  0
  -48.5476  -29.3107    3.7457 C   0  0  0  0  0  0  0  0  0  0  0  0
  -43.7038  -31.2419    3.1836 C   0  0  0  0  0  0  0  0  0  0  0  0
  -46.5711  -29.0419    0.5314 C   0  0  0  0  0  0  0  0  0  0  0  0
  -41.9135  -30.9246    0.6111 C   0  0  0  0  0  0  0  0  0  0  0  0
  -42.0815  -29.4396    0.3096 C   0  0  0  0  0  0  0  0  0  0  0  0
  -43.2574  -31.6327    0.7744 C   0  0  0  0  0  0  0  0  0  0  0  0
  -42.9434  -28.7481    1.3636 C   0  0  0  0  0  0  0  0  0  0  0  0
  -44.1785  -30.9437    1.7885 C   0  0  2  0  0  0  0  0  0  0  0  0
  -44.3086  -29.4255    1.5727 C   0  0  2  0  0  0  0  0  0  0  0  0
  -50.6323  -28.8342    1.9461 N   0  0  0  0  0  0  0  0  0  0  0  0
  -43.4317  -30.1075    3.9125 N   0  0  0  0  0  0  0  0  0  0  0  0
  -46.9651  -29.1966    1.8635 N   0  0  0  0  0  0  0  0  0  0  0  0
  -45.1844  -29.1677    0.4233 N   0  0  0  0  0  0  0  0  0  0  0  0
  -43.5610  -32.3868    3.6038 O   0  0  0  0  0  0  0  0  0  0  0  0
  -47.3061  -28.8259   -0.4290 O   0  0  0  0  0  0  0  0  0  0  0  0
  -50.1711  -29.3999    5.4927 F   0  0  0  0  0  0  0  0  0  0  0  0
  -47.1622  -29.6364    5.0019 Br  0  0  0  0  0  0  0  0  0  0  0  0
  -49.1976  -28.7653    0.4745 H   0  0  0  0  0  0  0  0  0  0  0  0
  -51.8972  -28.9430    3.5717 H   0  0  0  0  0  0  0  0  0  0  0  0
  -41.3460  -31.4005   -0.1968 H   0  0  0  0  0  0  0  0  0  0  0  0
  -41.3198  -31.0457    1.5253 H   0  0  0  0  0  0  0  0  0  0  0  0
  -41.0973  -28.9595    0.2673 H   0  0  0  0  0  0  0  0  0  0  0  0
  -42.5375  -29.3160   -0.6801 H   0  0  0  0  0  0  0  0  0  0  0  0
  -43.7607  -31.6605   -0.2004 H   0  0  0  0  0  0  0  0  0  0  0  0
  -43.0801  -32.6751    1.0662 H   0  0  0  0  0  0  0  0  0  0  0  0
  -42.3979  -28.7416    2.3156 H   0  0  0  0  0  0  0  0  0  0  0  0
  -43.0813  -27.6940    1.0924 H   0  0  0  0  0  0  0  0  0  0  0  0
  -45.1722  -31.4089    1.7255 H   0  0  0  0  0  0  0  0  0  0  0  0
  -44.8108  -28.9634    2.4276 H   0  0  0  0  0  0  0  0  0  0  0  0
  -43.5653  -29.2018    3.4756 H   0  0  0  0  0  0  0  0  0  0  0  0
  -43.1021  -30.1441    4.8720 H   0  0  0  0  0  0  0  0  0  0  0  0
  -46.2194  -29.3708    2.5332 H   0  0  0  0  0  0  0  0  0  0  0  0
  -44.7554  -29.1122   -0.4933 H   0  0  0  0  0  0  0  0  0  0  0  0
  1  3  1  0  0  0  0
  1 14  2  0  0  0  0
  2  4  2  0  0  0  0
  2 14  1  0  0  0  0
  3  5  2  0  0  0  0
  3 16  1  0  0  0  0
  4  5  1  0  0  0  0
  4 20  1  0  0  0  0
  5 21  1  0  0  0  0
  6 12  1  0  0  0  0
  6 15  1  0  0  0  0
  6 18  2  0  0  0  0
  7 16  1  0  0  0  0
  7 17  1  0  0  0  0
  7 19  2  0  0  0  0
  8  9  1  0  0  0  0
  8 10  1  0  0  0  0
  9 11  1  0  0  0  0
 10 12  1  0  0  0  0
 11 13  1  0  0  0  0
 12 13  1  0  0  0  0
 13 17  1  0  0  0  0
  1 22  1  0  0  0  0
  2 23  1  0  0  0  0
  8 24  1  0  0  0  0
  8 25  1  0  0  0  0
  9 26  1  0  0  0  0
  9 27  1  0  0  0  0
 10 28  1  0  0  0  0
 10 29  1  0  0  0  0
 11 30  1  0  0  0  0
 11 31  1  0  0  0  0
 12 32  1  0  0  0  0
 13 33  1  0  0  0  0
 15 34  1  0  0  0  0
 15 35  1  0  0  0  0
 16 36  1  0  0  0  0
 17 37  1  0  0  0  0
M  END
> <POSIT::Probability>
0.23

> <POSIT::Method>
HYBRID

> <ReceptorTitle>
UCSF-P4250-REFINED_LIGAND-BOUND-STATE_A__DU__LA1_A-201(A)

> <OMEGA_C>
o2BFwjhA58FsTMU/821LwgUK6MGkKFFAmxpBwgAf6cHBIxlAnXBHwkDy6cEEZYZAuTBCwkJ86sHs
uW9AqdAuwnjv+cGSwEtAxEg6wslV6MGoDAg/d6cnwqRl98Hocxw/gFMowjaE68Egg54+lwctwrUP
/cEYQEY/CsYrwjP85cFIi64/vrYwwrqM98EQ7eQ/Cjwxwlln68HgTsk/gYdKwmOs5sHKGvk/GLot
wjvc8ME0Z3pAQdw7wqWS6cHAh+4/zLw0wopX6cEwu9g+cz4uwhaMAcLao2ZAczk9woqb5sEwrNu+
Qa9IwgYz68EQxK9ADqY8wmkX7cE9D6BATcpEwmIf5sFA8fI+r5ZPwjuL58HslWRARmIlwiI0+8HA
jEm+dkclwoxd+MHMPcM/nmMkwgGt58EA4Ig+ZCYqwkGH6sEoHS6/6AovwsRI/cGANE2+/lEswk6z
AsIAeIg/aJcpwsfu5cFzMxRAPlMswlyN3cGM0os/SbA0wmJF+8HU3Nw/PT4zwiC158FQXRtA10Iu
wmKd6cE8cF5AmGgswhgn8cGB55tAruA4wm/36sE0ICJAgwUzwuHl6MFQlPy+

> <OMEGA_E>
rnnYwA==

> <OMEGA_NBR>
     25600

$$$$
CACHE3HI_1712_29
  -OEChem-03092622503D

 41 44  0     1  0  0  0  0  0999 V2000
  -43.1232  -28.3787    0.6367 C   0  0  0  0  0  0  0  0  0  0  0  0
  -42.0459  -29.2755    0.5494 C   0  0  0  0  0  0  0  0  0  0  0  0
  -45.8547  -29.2302    6.1461 C   0  0  0  0  0  0  0  0  0  0  0  0
  -44.4444  -28.8383    0.5836 C   0  0  0  0  0  0  0  0  0  0  0  0
  -47.1774  -29.0495    6.5465 C   0  0  0  0  0  0  0  0  0  0  0  0
  -45.5681  -29.5005    4.8133 C   0  0  0  0  0  0  0  0  0  0  0  0
  -42.2728  -30.6432    0.4100 C   0  0  0  0  0  0  0  0  0  0  0  0
  -48.2359  -29.1418    5.6248 C   0  0  0  0  0  0  0  0  0  0  0  0
  -44.6797  -30.1991    0.4399 C   0  0  0  0  0  0  0  0  0  0  0  0
  -46.6049  -29.5825    3.8836 C   0  0  0  0  0  0  0  0  0  0  0  0
  -47.9418  -29.3964    4.2743 C   0  0  0  0  0  0  0  0  0  0  0  0
  -43.5876  -31.0632    0.3698 C   0  0  0  0  0  0  0  0  0  0  0  0
  -46.6336  -30.9351    1.7646 C   0  0  0  0  0  0  0  0  0  0  0  0
  -49.6327  -28.9057    6.1413 C   0  0  0  0  0  0  0  0  0  0  0  0
  -50.7414  -29.4625    5.2547 C   0  0  0  0  0  0  0  0  0  0  0  0
  -50.6540  -28.9078    3.8446 C   0  0  0  0  0  0  0  0  0  0  0  0
  -45.8208  -32.2710   -0.1796 C   0  0  0  0  0  0  0  0  0  0  0  0
  -46.0323  -30.8592    0.3954 C   0  0  2  0  0  0  0  0  0  0  0  0
  -46.2420  -29.8539    2.5435 N   0  0  0  0  0  0  0  0  0  0  0  0
  -47.3733  -31.8635    2.0752 O   0  0  0  0  0  0  0  0  0  0  0  0
  -43.4966  -33.2229   -1.0565 O   0  0  0  0  0  0  0  0  0  0  0  0
  -44.0102  -33.3744    1.4352 O   0  0  0  0  0  0  0  0  0  0  0  0
  -49.1792  -29.5305    2.9884 S   0  0  0  0  0  0  0  0  0  0  0  0
  -44.1042  -32.7117    0.1527 S   0  0  0  0  0  0  0  0  0  0  0  0
  -42.9276  -27.3155    0.7472 H   0  0  0  0  0  0  0  0  0  0  0  0
  -41.0280  -28.8974    0.5897 H   0  0  0  0  0  0  0  0  0  0  0  0
  -45.0513  -29.1590    6.8729 H   0  0  0  0  0  0  0  0  0  0  0  0
  -45.2677  -28.1345    0.6553 H   0  0  0  0  0  0  0  0  0  0  0  0
  -47.3823  -28.8334    7.5930 H   0  0  0  0  0  0  0  0  0  0  0  0
  -44.5340  -29.6423    4.5093 H   0  0  0  0  0  0  0  0  0  0  0  0
  -41.4463  -31.3401    0.3366 H   0  0  0  0  0  0  0  0  0  0  0  0
  -49.7348  -29.3615    7.1343 H   0  0  0  0  0  0  0  0  0  0  0  0
  -49.7721  -27.8241    6.2651 H   0  0  0  0  0  0  0  0  0  0  0  0
  -50.7095  -30.5598    5.2421 H   0  0  0  0  0  0  0  0  0  0  0  0
  -51.7090  -29.1841    5.6893 H   0  0  0  0  0  0  0  0  0  0  0  0
  -51.5323  -29.2120    3.2670 H   0  0  0  0  0  0  0  0  0  0  0  0
  -50.6281  -27.8127    3.8546 H   0  0  0  0  0  0  0  0  0  0  0  0
  -46.4771  -33.0334    0.2475 H   0  0  0  0  0  0  0  0  0  0  0  0
  -45.9319  -32.2573   -1.2695 H   0  0  0  0  0  0  0  0  0  0  0  0
  -46.7215  -30.2964   -0.2436 H   0  0  0  0  0  0  0  0  0  0  0  0
  -45.6228  -29.1705    2.1129 H   0  0  0  0  0  0  0  0  0  0  0  0
  1  2  1  0  0  0  0
  1  4  2  0  0  0  0
  2  7  2  0  0  0  0
  3  5  1  0  0  0  0
  3  6  2  0  0  0  0
  4  9  1  0  0  0  0
  5  8  2  0  0  0  0
  6 10  1  0  0  0  0
  7 12  1  0  0  0  0
  8 11  1  0  0  0  0
  8 14  1  0  0  0  0
  9 12  2  0  0  0  0
  9 18  1  0  0  0  0
 10 11  2  0  0  0  0
 10 19  1  0  0  0  0
 11 23  1  0  0  0  0
 12 24  1  0  0  0  0
 13 18  1  0  0  0  0
 13 19  1  0  0  0  0
 13 20  2  0  0  0  0
 14 15  1  0  0  0  0
 15 16  1  0  0  0  0
 16 23  1  0  0  0  0
 17 18  1  0  0  0  0
 17 24  1  0  0  0  0
 21 24  2  0  0  0  0
 22 24  2  0  0  0  0
  1 25  1  0  0  0  0
  2 26  1  0  0  0  0
  3 27  1  0  0  0  0
  4 28  1  0  0  0  0
  5 29  1  0  0  0  0
  6 30  1  0  0  0  0
  7 31  1  0  0  0  0
 14 32  1  0  0  0  0
 14 33  1  0  0  0  0
 15 34  1  0  0  0  0
 15 35  1  0  0  0  0
 16 36  1  0  0  0  0
 16 37  1  0  0  0  0
 17 38  1  0  0  0  0
 17 39  1  0  0  0  0
 18 40  1  0  0  0  0
 19 41  1  0  0  0  0
M  END
> <POSIT::Probability>
0.23

> <POSIT::Method>
HYBRID

> <ReceptorTitle>
UCSF-P4250-REFINED_LIGAND-BOUND-STATE_A__DU__LA1_A-201(A)

> <OMEGA_C>
MX4swq4H48GQ+yI/CS8owi006sFQoww/MGs3wo3X6cEXrcRADscxwsq05sEgZxU/nrU8wlBl6MEW
fdFAx0U2wh8B7MHkBppAYxcpwjAl9cHw6dE+lvFAwn4i6cGP/rNA/rcywrWX8cHwPeE+bWs6wv6o
7MEqjHhAYcQ/wror68F2x4hAvVkuwnSB+MGAWb0+14g6whJ798HU3+E/4YdGwtk+58HphcRAJfdK
wjSz68FfJqhAqp1KwhVD58GHDnZAgUg3wnUVAcIA8De+DiE4wozf9sGQc8o+yPc4wtzU7sETyCJA
RH49wmDo/sEE0ARAj/wtwkHkBMLsO4e/fgowwmR/BcJMs7c/gbdEwnk+7MGpQT9AsWowwsrYAsJA
Xhw+0LUrwhOG2sFAST8/shwkwuot58Hg9xY/kzQ0wqZF6cGm7ttAJBI1wmUT4cGowSc/cYc9wsOq
5sEJ+vJAzSIywlYj7cFeTJBA9sglwp24+sGAXKw+dvBGwlPk6sFeTORAphZHwteX3sFNe8hAiNZK
wmd69MFQv6dAAtZOwvB46cHUDrZAGCFOwjey6cEIF1FANINKwmCA3sEJsXZAjOg5wj8iBMIga30+
Oro3wm4HAcJAfqK/0OI6wgZf8sHAeHm+tH02wkZd6cEMOQdA

> <OMEGA_E>
FNTDwA==

> <OMEGA_NBR>
     26919

$$$$
CACHE3HI_1712_4
  -OEChem-03092622503D

 49 52  0     1  0  0  0  0  0999 V2000
  -51.8204  -31.4749    5.5337 C   0  0  0  0  0  0  0  0  0  0  0  0
  -51.8157  -30.6637    6.6775 C   0  0  0  0  0  0  0  0  0  0  0  0
  -45.3202  -33.1526    1.0560 C   0  0  0  0  0  0  0  0  0  0  0  0
  -50.9364  -31.2229    4.4855 C   0  0  0  0  0  0  0  0  0  0  0  0
  -50.9263  -29.5899    6.7882 C   0  0  0  0  0  0  0  0  0  0  0  0
  -44.8229  -31.8198    1.1378 C   0  0  0  0  0  0  0  0  0  0  0  0
  -44.9802  -33.7600   -0.1327 C   0  0  0  0  0  0  0  0  0  0  0  0
  -50.0582  -30.1595    4.6141 C   0  0  0  0  0  0  0  0  0  0  0  0
  -50.0435  -29.3406    5.7489 C   0  0  0  0  0  0  0  0  0  0  0  0
  -44.1214  -31.4595    0.0077 C   0  0  0  0  0  0  0  0  0  0  0  0
  -46.9399  -29.0786    4.8530 C   0  0  0  0  0  0  0  0  0  0  0  0
  -42.9785  -29.4946    0.9766 C   0  0  0  0  0  0  0  0  0  0  0  0
  -49.0415  -29.6743    3.6252 C   0  0  0  0  0  0  0  0  0  0  0  0
  -44.7043  -29.8621    4.1508 C   0  0  0  0  0  0  0  0  0  0  0  0
  -46.3790  -29.3857    2.3946 C   0  0  0  0  0  0  0  0  0  0  0  0
  -43.6402  -29.1429    3.3310 C   0  0  0  0  0  0  0  0  0  0  0  0
  -45.3091  -28.6758    1.5684 C   0  0  0  0  0  0  0  0  0  0  0  0
  -48.3049  -28.5884    4.4395 C   0  0  1  0  0  0  0  0  0  0  0  0
  -48.7468  -27.3978    6.6698 C   0  0  0  0  0  0  0  0  0  0  0  0
  -43.4479  -30.1573   -0.2945 C   0  0  0  0  0  0  0  0  0  0  0  0
  -49.0920  -28.3448    5.6422 N   0  0  3  0  0  0  0  0  0  0  0  0
  -46.0480  -29.3851    3.8233 N   0  0  0  0  0  0  0  0  0  0  0  0
  -43.9634  -29.1525    1.9044 N   0  0  0  0  0  0  0  0  0  0  0  0
  -46.6736  -29.1823    6.0529 O   0  0  0  0  0  0  0  0  0  0  0  0
  -41.7728  -29.2899    1.1405 O   0  0  0  0  0  0  0  0  0  0  0  0
  -44.0647  -32.7250   -1.1444 S   0  0  0  0  0  0  0  0  0  0  0  0
  -52.5205  -32.3028    5.4641 H   0  0  0  0  0  0  0  0  0  0  0  0
  -52.5121  -30.8712    7.4856 H   0  0  0  0  0  0  0  0  0  0  0  0
  -45.8976  -33.6420    1.8296 H   0  0  0  0  0  0  0  0  0  0  0  0
  -50.9414  -31.8436    3.5963 H   0  0  0  0  0  0  0  0  0  0  0  0
  -50.9387  -28.9721    7.6804 H   0  0  0  0  0  0  0  0  0  0  0  0
  -44.9752  -31.1616    1.9838 H   0  0  0  0  0  0  0  0  0  0  0  0
  -45.2259  -34.7615   -0.4565 H   0  0  0  0  0  0  0  0  0  0  0  0
  -48.3889  -30.4882    3.2948 H   0  0  0  0  0  0  0  0  0  0  0  0
  -49.5537  -29.2274    2.7665 H   0  0  0  0  0  0  0  0  0  0  0  0
  -44.6849  -30.9376    3.9342 H   0  0  0  0  0  0  0  0  0  0  0  0
  -44.4776  -29.7448    5.2129 H   0  0  0  0  0  0  0  0  0  0  0  0
  -47.3513  -28.9144    2.2210 H   0  0  0  0  0  0  0  0  0  0  0  0
  -46.4644  -30.4339    2.0844 H   0  0  0  0  0  0  0  0  0  0  0  0
  -43.5749  -28.0912    3.6370 H   0  0  0  0  0  0  0  0  0  0  0  0
  -42.6670  -29.5962    3.5316 H   0  0  0  0  0  0  0  0  0  0  0  0
  -45.5148  -28.8141    0.5027 H   0  0  0  0  0  0  0  0  0  0  0  0
  -45.3283  -27.5981    1.7680 H   0  0  0  0  0  0  0  0  0  0  0  0
  -48.1657  -27.6760    3.8540 H   0  0  0  0  0  0  0  0  0  0  0  0
  -47.9623  -26.7202    6.3207 H   0  0  0  0  0  0  0  0  0  0  0  0
  -49.6234  -26.8059    6.9481 H   0  0  0  0  0  0  0  0  0  0  0  0
  -48.3879  -27.9210    7.5604 H   0  0  0  0  0  0  0  0  0  0  0  0
  -44.1278  -29.4694   -0.7959 H   0  0  0  0  0  0  0  0  0  0  0  0
  -42.5776  -30.3032   -0.9338 H   0  0  0  0  0  0  0  0  0  0  0  0
  1  2  1  0  0  0  0
  1  4  2  0  0  0  0
  2  5  2  0  0  0  0
  3  6  1  0  0  0  0
  3  7  2  0  0  0  0
  4  8  1  0  0  0  0
  5  9  1  0  0  0  0
  6 10  2  0  0  0  0
  7 26  1  0  0  0  0
  8  9  2  0  0  0  0
  8 13  1  0  0  0  0
  9 21  1  0  0  0  0
 10 20  1  0  0  0  0
 10 26  1  0  0  0  0
 11 18  1  0  0  0  0
 11 22  1  0  0  0  0
 11 24  2  0  0  0  0
 12 20  1  0  0  0  0
 12 23  1  0  0  0  0
 12 25  2  0  0  0  0
 13 18  1  0  0  0  0
 14 16  1  0  0  0  0
 14 22  1  0  0  0  0
 15 17  1  0  0  0  0
 15 22  1  0  0  0  0
 16 23  1  0  0  0  0
 17 23  1  0  0  0  0
 18 21  1  0  0  0  0
 19 21  1  0  0  0  0
  1 27  1  0  0  0  0
  2 28  1  0  0  0  0
  3 29  1  0  0  0  0
  4 30  1  0  0  0  0
  5 31  1  0  0  0  0
  6 32  1  0  0  0  0
  7 33  1  0  0  0  0
 13 34  1  0  0  0  0
 13 35  1  0  0  0  0
 14 36  1  0  0  0  0
 14 37  1  0  0  0  0
 15 38  1  0  0  0  0
 15 39  1  0  0  0  0
 16 40  1  0  0  0  0
 16 41  1  0  0  0  0
 17 42  1  0  0  0  0
 17 43  1  0  0  0  0
 18 44  1  0  0  0  0
 19 45  1  0  0  0  0
 19 46  1  0  0  0  0
 19 47  1  0  0  0  0
 20 48  1  0  0  0  0
 20 49  1  0  0  0  0
M  END
> <POSIT::Probability>
0.18

> <POSIT::Method>
FRED

> <ReceptorTitle>
UCSF-P4250-REFINED_LIGAND-BOUND-STATE_A__DU__LA1_A-201(A)

> <OMEGA_C>
G0hPwpLM+8EpFLFASkNPwjxP9cEhrtVA7kc1wkqcBMLkKoc/4L5LwpjI+cFeiY9Ak7RLwi247MHk
ONlApEozwuWO/sEWopE/xeszwj0KB8KA5ge+mztIwr1G8cFfppNAiSxIwnu56sHL9rdAT3wwwvqs
+8EAYP07fsI7wu2g6MHzS5tAAuorwt/068EEAXo/gypEwuxk7cEvA2hAMNEywoDl7sGt04RAD4Q5
wusV68FfQBlAio8uwsIk6cGMLlVAjTw1wgho5cEgwMg/OzhBwvy05MG0EI5AxfxCwpsu28Flb9VA
qMotwjBC8cEAw5a+PF5EwjLC4sHDjLRAIzE4wrMU68GlsXRAjtovwmw46cHcxPM/w7E6wk916cG7
scFAUxcnwq1R6sHM+pE/NUIwwm3mAsJMfZK/8xRSwhw2AcKB2a5AcAxSwjz49sGoie9AHZc3wmyR
BsJQMeo/9MNLwsO//sEyKWZAPMFLwtjG58HjxfVAm+Yzwu9K+cH06/0/V+c0wsELC8Jgvem+OI5B
wtLn88F+3VJA/TZGwsXR6cG4DjFAXb0ywj6A98G9yXtACOkxwkf17cHIz6ZAuGc9wsFQ58ErJQ5A
lts5wpp488G+ZgVAsUwuwtW64MHfxGhAAKsqwvTE7MEZBWJAMQ82wkCD5sEYsAA/KFA1wubI3MGU
TOI/qKlAwm1o3cFRqHZAb9k/wgzD1cHPQspAV35GwoBy1sEPV95AQo1BwkRe38EV7/FA5IIwwlXB
68Hgvku/fE8qwvJs8sEADm+/

> <OMEGA_E>
ZsDzwA==

> <OMEGA_NBR>
     28397

$$$$
CACHE3HI_1718_62
  -OEChem-03092622503D

 44 46  0     1  0  0  0  0  0999 V2000
  -49.4668  -30.8631    4.2114 C   0  0  0  0  0  0  0  0  0  0  0  0
  -48.4501  -28.7732    4.8718 C   0  0  0  0  0  0  0  0  0  0  0  0
  -50.3971  -30.7357    5.2429 C   0  0  0  0  0  0  0  0  0  0  0  0
  -49.3803  -28.6458    5.9033 C   0  0  0  0  0  0  0  0  0  0  0  0
  -48.4933  -29.8816    4.0259 C   0  0  0  0  0  0  0  0  0  0  0  0
  -50.3539  -29.6273    6.0889 C   0  0  0  0  0  0  0  0  0  0  0  0
  -43.8099  -30.4648    2.7259 C   0  0  0  0  0  0  0  0  0  0  0  0
  -52.6055  -29.9737    7.1670 C   0  0  0  0  0  0  0  0  0  0  0  0
  -44.4079  -28.4896    0.2432 C   0  0  0  0  0  0  0  0  0  0  0  0
  -43.0891  -27.7830    0.2776 C   0  0  0  0  0  0  0  0  0  0  0  0
  -43.7232  -28.2471    1.5680 C   0  0  0  0  0  0  0  0  0  0  0  0
  -47.5543  -28.8615    1.9170 C   0  0  0  0  0  0  0  0  0  0  0  0
  -45.5484  -32.2421    2.2973 C   0  0  0  0  0  0  0  0  0  0  0  0
  -47.4968  -30.0186    2.9247 C   0  0  1  0  0  0  0  0  0  0  0  0
  -45.2654  -30.7467    2.4246 C   0  0  1  0  0  0  0  0  0  0  0  0
  -42.9687  -31.2214    3.3923 N   0  0  0  0  0  0  0  0  0  0  0  0
  -41.7751  -30.5343    3.3970 N   0  0  0  0  0  0  0  0  0  0  0  0
  -41.8858  -29.3823    2.7467 N   0  0  0  0  0  0  0  0  0  0  0  0
  -43.1583  -29.3410    2.3283 N   0  0  0  0  0  0  0  0  0  0  0  0
  -52.7946  -30.8589    8.2191 N   0  0  0  0  0  0  0  0  0  0  0  0
  -51.2845  -29.5000    7.1204 N   0  0  0  0  0  0  0  0  0  0  0  0
  -46.1395  -30.1479    3.4258 N   0  0  0  0  0  0  0  0  0  0  0  0
  -53.5205  -29.6793    6.4027 O   0  0  0  0  0  0  0  0  0  0  0  0
  -49.5079  -31.7300    3.5575 H   0  0  0  0  0  0  0  0  0  0  0  0
  -47.6946  -28.0038    4.7346 H   0  0  0  0  0  0  0  0  0  0  0  0
  -51.1516  -31.5067    5.3784 H   0  0  0  0  0  0  0  0  0  0  0  0
  -49.3368  -27.7778    6.5564 H   0  0  0  0  0  0  0  0  0  0  0  0
  -45.2891  -27.9015    0.0173 H   0  0  0  0  0  0  0  0  0  0  0  0
  -44.4283  -29.4973   -0.1532 H   0  0  0  0  0  0  0  0  0  0  0  0
  -42.2211  -28.3157   -0.0910 H   0  0  0  0  0  0  0  0  0  0  0  0
  -43.0810  -26.7189    0.0745 H   0  0  0  0  0  0  0  0  0  0  0  0
  -44.1491  -27.4808    2.2060 H   0  0  0  0  0  0  0  0  0  0  0  0
  -47.3875  -27.8942    2.4035 H   0  0  0  0  0  0  0  0  0  0  0  0
  -46.7892  -28.9849    1.1421 H   0  0  0  0  0  0  0  0  0  0  0  0
  -48.5318  -28.8110    1.4239 H   0  0  0  0  0  0  0  0  0  0  0  0
  -45.2956  -32.7859    3.2141 H   0  0  0  0  0  0  0  0  0  0  0  0
  -46.6063  -32.4259    2.0777 H   0  0  0  0  0  0  0  0  0  0  0  0
  -44.9529  -32.6793    1.4877 H   0  0  0  0  0  0  0  0  0  0  0  0
  -47.6732  -30.9490    2.3578 H   0  0  0  0  0  0  0  0  0  0  0  0
  -45.5405  -30.2703    1.4761 H   0  0  0  0  0  0  0  0  0  0  0  0
  -52.0164  -31.0798    8.8312 H   0  0  0  0  0  0  0  0  0  0  0  0
  -53.6986  -31.2888    8.3863 H   0  0  0  0  0  0  0  0  0  0  0  0
  -50.9776  -28.9983    7.9599 H   0  0  0  0  0  0  0  0  0  0  0  0
  -45.7790  -29.2248    3.6730 H   0  0  0  0  0  0  0  0  0  0  0  0
  1  3  2  0  0  0  0
  1  5  1  0  0  0  0
  2  4  1  0  0  0  0
  2  5  2  0  0  0  0
  3  6  1  0  0  0  0
  4  6  2  0  0  0  0
  5 14  1  0  0  0  0
  6 21  1  0  0  0  0
  7 15  1  0  0  0  0
  7 16  2  0  0  0  0
  7 19  1  0  0  0  0
  8 20  1  0  0  0  0
  8 21  1  0  0  0  0
  8 23  2  0  0  0  0
  9 10  1  0  0  0  0
  9 11  1  0  0  0  0
 10 11  1  0  0  0  0
 11 19  1  0  0  0  0
 12 14  1  0  0  0  0
 13 15  1  0  0  0  0
 14 22  1  0  0  0  0
 15 22  1  0  0  0  0
 16 17  1  0  0  0  0
 17 18  2  0  0  0  0
 18 19  1  0  0  0  0
  1 24  1  0  0  0  0
  2 25  1  0  0  0  0
  3 26  1  0  0  0  0
  4 27  1  0  0  0  0
  9 28  1  0  0  0  0
  9 29  1  0  0  0  0
 10 30  1  0  0  0  0
 10 31  1  0  0  0  0
 11 32  1  0  0  0  0
 12 33  1  0  0  0  0
 12 34  1  0  0  0  0
 12 35  1  0  0  0  0
 13 36  1  0  0  0  0
 13 37  1  0  0  0  0
 13 38  1  0  0  0  0
 14 39  1  0  0  0  0
 15 40  1  0  0  0  0
 20 41  1  0  0  0  0
 20 42  1  0  0  0  0
 21 43  1  0  0  0  0
 22 44  1  0  0  0  0
M  END
> <POSIT::Probability>
0.24

> <POSIT::Method>
FRED

> <ReceptorTitle>
UCSF-P4250-REFINED_LIGAND-BOUND-STATE_A__DU__LA1_A-201(A)

> <OMEGA_C>
A95FwqDn9sHkw4ZA4sxBwoEv5sHQ5ZtApZZJwsji9cEKxqdAd4VFwpwq5cG857xAL/lBwnsN78Hq
04BAWWpJws4E7cHw18JAYz0vwtG388GcdS5AFWxSwjnK78HiV+VAtKExwprq48GA/Hg+SFsswoJD
3sGAI44+kuQuwif64cFws8g/lzc+wlfk5sHIYfU/jzE2wu/3AMIUBxNAsvw9wv4l8MHYLjtAwg81
wkr59cE4LBtA7d8rwoHF+cGAG1lAtRknwjxG9MEkaFlAA4snwgIP68GYyS9AIqIswnO66sHsAhVA
tC1Twgzf9sFtgQNBTSNNwgIA7MH62eNA4I44wtUu8cGAQFtABhVWwjhv7cHu4sxAEwhGwhzX/cGI
rmNAQcc+ws8H4MEAgpdAPJtMwqkN/MGyG6xA4VhFwgc53sFMztFAFCg1wjY238EAso08jbYxwoP6
68EA3hy+X+IowoqG4sGAYrq9/FIswkrA1cEAmJg9sJgwwqnY28FwLg1A0Iw9wjon38Gw0hlAKyg7
whvh58GwL5I/iCBCwuB85sEoQ7Y/uy41wskkA8JgtE1A2Ww6whe0AcK4+QRAv88zwpC3AsIYbb4/
XLE+wpSX98HE5RZAbik2woMp8sHo8Lw/whBQwnij+MFmTA1BZctWwodP+sEaLgZBEelLwon858GG
t/5AvB03wmbM6cGcEmtA

> <OMEGA_E>
Q0gEwQ==

> <OMEGA_NBR>
     29774

$$$$
CACHE3HI_1718_63
  -OEChem-03092622503D

 49 51  0     0  0  0  0  0  0999 V2000
  -49.4006  -31.2575    3.2081 C   0  0  0  0  0  0  0  0  0  0  0  0
  -47.9519  -29.3402    3.4585 C   0  0  0  0  0  0  0  0  0  0  0  0
  -50.0214  -30.9456    4.4176 C   0  0  0  0  0  0  0  0  0  0  0  0
  -48.5727  -29.0283    4.6680 C   0  0  0  0  0  0  0  0  0  0  0  0
  -48.3659  -30.4545    2.7285 C   0  0  0  0  0  0  0  0  0  0  0  0
  -49.6075  -29.8313    5.1476 C   0  0  0  0  0  0  0  0  0  0  0  0
  -43.2182  -30.9132    2.7360 C   0  0  0  0  0  0  0  0  0  0  0  0
  -46.5079  -31.7121    1.5928 C   0  0  0  0  0  0  0  0  0  0  0  0
  -51.2764  -30.1978    7.0004 C   0  0  0  0  0  0  0  0  0  0  0  0
  -42.9861  -27.0856   -0.2917 C   0  0  0  0  0  0  0  0  0  0  0  0
  -44.8580  -28.2425    0.9129 C   0  0  0  0  0  0  0  0  0  0  0  0
  -43.8924  -25.8640   -0.3801 C   0  0  0  0  0  0  0  0  0  0  0  0
  -45.6599  -26.9560    0.7565 C   0  0  0  0  0  0  0  0  0  0  0  0
  -43.3541  -27.9457    0.9230 C   0  0  0  0  0  0  0  0  0  0  0  0
  -47.6933  -30.7924    1.4236 C   0  0  0  0  0  0  0  0  0  0  0  0
  -44.1632  -31.6867    1.9145 C   0  0  0  0  0  0  0  0  0  0  0  0
  -42.5384  -29.2348    0.9520 C   0  0  0  0  0  0  0  0  0  0  0  0
  -42.8954  -31.1107    3.9934 N   0  0  0  0  0  0  0  0  0  0  0  0
  -41.9794  -30.1290    4.2999 N   0  0  0  0  0  0  0  0  0  0  0  0
  -41.7478  -29.3489    3.2511 N   0  0  0  0  0  0  0  0  0  0  0  0
  -42.5232  -29.8409    2.2750 N   0  0  0  0  0  0  0  0  0  0  0  0
  -51.6278  -29.5824    8.1937 N   0  0  0  0  0  0  0  0  0  0  0  0
  -50.2286  -29.5193    6.3572 N   0  0  0  0  0  0  0  0  0  0  0  0
  -46.5529  -32.9347    1.5957 O   0  0  0  0  0  0  0  0  0  0  0  0
  -51.8487  -31.2106    6.6069 O   0  0  0  0  0  0  0  0  0  0  0  0
  -45.2649  -26.2536   -0.4208 O   0  0  0  0  0  0  0  0  0  0  0  0
  -45.3782  -30.9549    1.7423 O   0  0  0  0  0  0  0  0  0  0  0  0
  -49.7294  -32.1277    2.6464 H   0  0  0  0  0  0  0  0  0  0  0  0
  -47.1461  -28.7092    3.0924 H   0  0  0  0  0  0  0  0  0  0  0  0
  -50.8270  -31.5783    4.7820 H   0  0  0  0  0  0  0  0  0  0  0  0
  -48.2416  -28.1575    5.2283 H   0  0  0  0  0  0  0  0  0  0  0  0
  -43.1051  -27.6826   -1.2049 H   0  0  0  0  0  0  0  0  0  0  0  0
  -41.9377  -26.7714   -0.2372 H   0  0  0  0  0  0  0  0  0  0  0  0
  -45.1542  -28.7591    1.8327 H   0  0  0  0  0  0  0  0  0  0  0  0
  -45.0881  -28.9085    0.0714 H   0  0  0  0  0  0  0  0  0  0  0  0
  -43.7305  -25.1852    0.4654 H   0  0  0  0  0  0  0  0  0  0  0  0
  -43.6770  -25.3070   -1.2972 H   0  0  0  0  0  0  0  0  0  0  0  0
  -46.7252  -27.1907    0.6635 H   0  0  0  0  0  0  0  0  0  0  0  0
  -45.5403  -26.3032    1.6291 H   0  0  0  0  0  0  0  0  0  0  0  0
  -43.1208  -27.3762    1.8326 H   0  0  0  0  0  0  0  0  0  0  0  0
  -47.3531  -29.8690    0.9385 H   0  0  0  0  0  0  0  0  0  0  0  0
  -48.4181  -31.2717    0.7542 H   0  0  0  0  0  0  0  0  0  0  0  0
  -43.7581  -31.9110    0.9106 H   0  0  0  0  0  0  0  0  0  0  0  0
  -44.4167  -32.6606    2.3739 H   0  0  0  0  0  0  0  0  0  0  0  0
  -41.5058  -29.0375    0.6531 H   0  0  0  0  0  0  0  0  0  0  0  0
  -42.9527  -29.9609    0.2468 H   0  0  0  0  0  0  0  0  0  0  0  0
  -51.1337  -28.7469    8.4886 H   0  0  0  0  0  0  0  0  0  0  0  0
  -52.3708  -29.9545    8.7763 H   0  0  0  0  0  0  0  0  0  0  0  0
  -49.8853  -28.6900    6.8523 H   0  0  0  0  0  0  0  0  0  0  0  0
  1  3  1  0  0  0  0
  1  5  2  0  0  0  0
  2  4  2  0  0  0  0
  2  5  1  0  0  0  0
  3  6  2  0  0  0  0
  4  6  1  0  0  0  0
  5 15  1  0  0  0  0
  6 23  1  0  0  0  0
  7 16  1  0  0  0  0
  7 18  2  0  0  0  0
  7 21  1  0  0  0  0
  8 15  1  0  0  0  0
  8 24  2  0  0  0  0
  8 27  1  0  0  0  0
  9 22  1  0  0  0  0
  9 23  1  0  0  0  0
  9 25  2  0  0  0  0
 10 12  1  0  0  0  0
 10 14  1  0  0  0  0
 11 13  1  0  0  0  0
 11 14  1  0  0  0  0
 12 26  1  0  0  0  0
 13 26  1  0  0  0  0
 14 17  1  0  0  0  0
 16 27  1  0  0  0  0
 17 21  1  0  0  0  0
 18 19  1  0  0  0  0
 19 20  2  0  0  0  0
 20 21  1  0  0  0  0
  1 28  1  0  0  0  0
  2 29  1  0  0  0  0
  3 30  1  0  0  0  0
  4 31  1  0  0  0  0
 10 32  1  0  0  0  0
 10 33  1  0  0  0  0
 11 34  1  0  0  0  0
 11 35  1  0  0  0  0
 12 36  1  0  0  0  0
 12 37  1  0  0  0  0
 13 38  1  0  0  0  0
 13 39  1  0  0  0  0
 14 40  1  0  0  0  0
 15 41  1  0  0  0  0
 15 42  1  0  0  0  0
 16 43  1  0  0  0  0
 16 44  1  0  0  0  0
 17 45  1  0  0  0  0
 17 46  1  0  0  0  0
 22 47  1  0  0  0  0
 22 48  1  0  0  0  0
 23 49  1  0  0  0  0
M  END
> <POSIT::Probability>
0.24

> <POSIT::Method>
FRED

> <ReceptorTitle>
UCSF-P4250-REFINED_LIGAND-BOUND-STATE_A__DU__LA1_A-201(A)

> <OMEGA_C>
OJpFwmAP+sFZUU1Ay84/wqS46sHuV11A8BVIwqCQ98FSXY1AeEpCwtw56MFKYJVAp3ZBwt2i88Eh
oC5AE25Gwmem7sE3uaRAcN8swklO98EMGi9AHwg6wmOy/cFY4Ms/FRtNwgaV8cELA+BA0PErwjyv
2MGQVZW+nG4zwrrw4cGosWk/25EvwofpzsHAlsK+vqM2wvOl18EAqUE/n2otwrWQ38HwSmw/5cU+
wtVW9sEAN7Y/IqcwwmB+/cHMDvU/Sycqwu3g6cHgtXM/7ZQrwqTi+MFElH9A2+onwjEI8cEGmYlA
tv0mwpvK6sFCElBAuxcqwjO67sHimBFA24JOwsqo7MGTGQNBH+pIwpkn7MFlbstALjY6wiG9A8LQ
Psw/DWVPwjav+cG7a9NAPA81wlIH0sFwb9e+UoM1wqSj98HYAt8/6OpGwr6CAMIuXilAmpU8wnWs
5cE/6UVAzk5Lwmig/MHmBZlAYvdAwpBC4cGfTqdAqGsswuF13cFkO5q/PcAnwugr1sHA5nK+4Z00
wpgS5sFYlOo/K1o0wqRE58HAKpI9Auwuwl57ycHQSO4+SLUuwsJ0ysHAC6a/lOY6wp6G2cEI2Ck/
SSk2wvhs0sFkhtA/q3sswl8C28F4k+o/mGk9wqTz7sHwQ3A/HqxBwmos+sFYEkE/RggvwsRJ/8Ew
HWk/uaoxwm6kAsJ+7hdA7gUmwsBM6MFQMyc/ms8rwvSv78FAsnw+5IhMwrD55cEa0QdBwHtRwsmi
78HYawxBj4pHwjeF5cEuRttA

> <OMEGA_E>
RMn/wA==

> <OMEGA_NBR>
     31243

$$$$
CACHE3HI_1718_78
  -OEChem-03092622503D

 36 38  0     0  0  0  0  0  0999 V2000
  -49.3966  -30.2991    3.4523 C   0  0  0  0  0  0  0  0  0  0  0  0
  -47.7702  -28.9363    4.6077 C   0  0  0  0  0  0  0  0  0  0  0  0
  -50.1207  -30.4378    4.6365 C   0  0  0  0  0  0  0  0  0  0  0  0
  -48.4942  -29.0749    5.7918 C   0  0  0  0  0  0  0  0  0  0  0  0
  -48.2214  -29.5482    3.4380 C   0  0  0  0  0  0  0  0  0  0  0  0
  -49.6695  -29.8260    5.8061 C   0  0  0  0  0  0  0  0  0  0  0  0
  -45.0083  -31.7787    1.1772 C   0  0  0  0  0  0  0  0  0  0  0  0
  -47.4664  -29.4028    2.2036 C   0  0  0  0  0  0  0  0  0  0  0  0
  -51.7192  -29.5824    7.2524 C   0  0  0  0  0  0  0  0  0  0  0  0
  -41.7180  -30.0682    1.3039 C   0  0  0  0  0  0  0  0  0  0  0  0
  -42.8855  -29.3759    0.6737 C   0  0  0  0  0  0  0  0  0  0  0  0
  -42.7475  -30.8751    0.5478 C   0  0  0  0  0  0  0  0  0  0  0  0
  -47.5017  -30.5289    1.1590 C   0  0  0  0  0  0  0  0  0  0  0  0
  -45.4567  -32.7453    1.9446 N   0  0  0  0  0  0  0  0  0  0  0  0
  -44.3379  -33.3386    2.4860 N   0  0  0  0  0  0  0  0  0  0  0  0
  -43.2298  -32.7463    2.0576 N   0  0  0  0  0  0  0  0  0  0  0  0
  -43.6513  -31.7717    1.2399 N   0  0  0  0  0  0  0  0  0  0  0  0
  -52.0913  -29.8861    8.5545 N   0  0  0  0  0  0  0  0  0  0  0  0
  -50.3939  -29.9652    6.9903 N   0  0  0  0  0  0  0  0  0  0  0  0
  -46.7915  -28.3734    1.9970 O   0  0  0  0  0  0  0  0  0  0  0  0
  -52.4983  -29.0442    6.4705 O   0  0  0  0  0  0  0  0  0  0  0  0
  -45.9754  -30.6419    0.1896 S   0  0  0  0  0  0  0  0  0  0  0  0
  -49.7585  -30.7803    2.5474 H   0  0  0  0  0  0  0  0  0  0  0  0
  -46.8556  -28.3490    4.6084 H   0  0  0  0  0  0  0  0  0  0  0  0
  -51.0355  -31.0250    4.6361 H   0  0  0  0  0  0  0  0  0  0  0  0
  -48.1326  -28.5941    6.6972 H   0  0  0  0  0  0  0  0  0  0  0  0
  -40.7458  -29.9364    0.8448 H   0  0  0  0  0  0  0  0  0  0  0  0
  -41.6973  -30.1366    2.3847 H   0  0  0  0  0  0  0  0  0  0  0  0
  -43.6529  -28.9821    1.3288 H   0  0  0  0  0  0  0  0  0  0  0  0
  -42.7005  -28.7770   -0.2099 H   0  0  0  0  0  0  0  0  0  0  0  0
  -42.4525  -31.2584   -0.4227 H   0  0  0  0  0  0  0  0  0  0  0  0
  -47.6458  -31.4835    1.6723 H   0  0  0  0  0  0  0  0  0  0  0  0
  -48.3253  -30.3434    0.4637 H   0  0  0  0  0  0  0  0  0  0  0  0
  -51.4221  -30.3310    9.1737 H   0  0  0  0  0  0  0  0  0  0  0  0
  -53.0218  -29.6706    8.8975 H   0  0  0  0  0  0  0  0  0  0  0  0
  -49.9084  -30.4028    7.7799 H   0  0  0  0  0  0  0  0  0  0  0  0
  1  3  1  0  0  0  0
  1  5  2  0  0  0  0
  2  4  2  0  0  0  0
  2  5  1  0  0  0  0
  3  6  2  0  0  0  0
  4  6  1  0  0  0  0
  5  8  1  0  0  0  0
  6 19  1  0  0  0  0
  7 14  2  0  0  0  0
  7 17  1  0  0  0  0
  7 22  1  0  0  0  0
  8 13  1  0  0  0  0
  8 20  2  0  0  0  0
  9 18  1  0  0  0  0
  9 19  1  0  0  0  0
  9 21  2  0  0  0  0
 10 11  1  0  0  0  0
 10 12  1  0  0  0  0
 11 12  1  0  0  0  0
 12 17  1  0  0  0  0
 13 22  1  0  0  0  0
 14 15  1  0  0  0  0
 15 16  2  0  0  0  0
 16 17  1  0  0  0  0
  1 23  1  0  0  0  0
  2 24  1  0  0  0  0
  3 25  1  0  0  0  0
  4 26  1  0  0  0  0
 10 27  1  0  0  0  0
 10 28  1  0  0  0  0
 11 29  1  0  0  0  0
 11 30  1  0  0  0  0
 12 31  1  0  0  0  0
 13 32  1  0  0  0  0
 13 33  1  0  0  0  0
 18 34  1  0  0  0  0
 18 35  1  0  0  0  0
 19 36  1  0  0  0  0
M  END
> <POSIT::Probability>
0.18

> <POSIT::Method>
FRED

> <ReceptorTitle>
UCSF-P4250-REFINED_LIGAND-BOUND-STATE_A__DU__LA1_A-201(A)

> <OMEGA_C>
J5ZFwqhk8sHA8lxArBQ/woR958HycZNAkHtIwq+A88ESXpRACPpBwn2Z6MFuVrlAruJAwqBi7MGU
CFxAjK1GwpOb7sG8y7lAhQg0wrY6/sEgrpY/i909wuw468HcBw1AeuBOwrOo7MGWE+hANt8mwsWL
8MEw56Y/u4orwtgB68HgdSw/bv0qwj0A98FwOQw/wwE+wiU79MHYWJQ/rdM1wjf7AsLA5/g/Blox
wrFaBcLwGh9AVesswjn8AsJksANA8pouwngs/sEQtZ4/el1QwtAW78FI3whBVZNJwqi478F2sN9A
gSo7wtP84sHInP8/S/5RwpNa6MEwDs9Az+Y3wrAi9cHAI0I+rwhHwgw+9sFcCSNAGmw7wszK4sEP
eJNAYCRMwjkz+MEYW5RAwIdAwrjA5MFGT9ZAq/siwtB978HQQVg/E8omws8X8cFwnhhAjpwuwlPb
58F4F6o/Ts0qwj435sEA5la+Vs8pwjoR+sHAati+SZU+wkHe+8HQDtY/IE1BwkO/8sGgbu0+LrBN
wt6l8sFSxxJBVBZUwl5d7cEqXA5BL6JHwtc488Hq9PhA

> <OMEGA_E>
mPAKwQ==

> <OMEGA_NBR>
     32452

$$$$
CACHE3-HO_1696_39
  -OEChem-03092622493D

 38 40  0     0  0  0  0  0  0999 V2000
  -48.1984  -28.7656    4.8549 C   0  0  0  0  0  0  0  0  0  0  0  0
  -48.7490  -28.7223    6.1076 C   0  0  0  0  0  0  0  0  0  0  0  0
  -44.2495  -29.4322    6.0088 C   0  0  0  0  0  0  0  0  0  0  0  0
  -46.7590  -29.0424    5.0158 C   0  0  0  0  0  0  0  0  0  0  0  0
  -46.5173  -29.0657    6.3933 C   0  0  0  0  0  0  0  0  0  0  0  0
  -45.6790  -29.3421    4.1522 C   0  0  0  0  0  0  0  0  0  0  0  0
  -46.7950  -30.0418   -3.5823 C   0  0  0  0  0  0  0  0  0  0  0  0
  -46.7588  -31.0056   -2.6021 C   0  0  0  0  0  0  0  0  0  0  0  0
  -46.2016  -28.7206   -3.3248 C   0  0  0  0  0  0  0  0  0  0  0  0
  -45.5865  -28.4646   -2.1212 C   0  0  0  0  0  0  0  0  0  0  0  0
  -46.0875  -30.7146   -1.3231 C   0  0  0  0  0  0  0  0  0  0  0  0
  -45.0346  -27.9100    0.8099 C   0  0  0  0  0  0  0  0  0  0  0  0
  -46.5204  -27.9485    1.2601 C   0  0  0  0  0  0  0  0  0  0  0  0
  -44.5880  -29.1684    0.0143 C   0  0  0  0  0  0  0  0  0  0  0  0
  -46.8944  -29.2932    1.8935 C   0  0  0  0  0  0  0  0  0  0  0  0
  -45.2751  -29.2689    6.8778 N   0  0  0  0  0  0  0  0  0  0  0  0
  -44.4367  -29.4937    4.6685 N   0  0  0  0  0  0  0  0  0  0  0  0
  -47.7346  -28.9125    7.0364 N   0  0  0  0  0  0  0  0  0  0  0  0
  -45.4822  -29.4517   -1.1283 N   0  0  0  0  0  0  0  0  0  0  0  0
  -45.8393  -29.7336    2.8305 N   0  0  0  0  0  0  0  0  0  0  0  0
  -46.0281  -31.6056   -0.4825 O   0  0  0  0  0  0  0  0  0  0  0  0
  -48.7219  -28.6234    3.9210 H   0  0  0  0  0  0  0  0  0  0  0  0
  -49.7934  -28.5669    6.3345 H   0  0  0  0  0  0  0  0  0  0  0  0
  -43.2457  -29.5164    6.3984 H   0  0  0  0  0  0  0  0  0  0  0  0
  -47.2563  -30.2536   -4.5356 H   0  0  0  0  0  0  0  0  0  0  0  0
  -47.2189  -31.9684   -2.7685 H   0  0  0  0  0  0  0  0  0  0  0  0
  -46.2489  -27.9511   -4.0812 H   0  0  0  0  0  0  0  0  0  0  0  0
  -45.1751  -27.4833   -1.9362 H   0  0  0  0  0  0  0  0  0  0  0  0
  -44.8882  -27.0261    0.1717 H   0  0  0  0  0  0  0  0  0  0  0  0
  -44.4026  -27.8239    1.7061 H   0  0  0  0  0  0  0  0  0  0  0  0
  -46.6888  -27.1497    1.9974 H   0  0  0  0  0  0  0  0  0  0  0  0
  -47.1617  -27.7787    0.3826 H   0  0  0  0  0  0  0  0  0  0  0  0
  -43.5687  -29.0045   -0.3654 H   0  0  0  0  0  0  0  0  0  0  0  0
  -44.5920  -30.0356    0.6911 H   0  0  0  0  0  0  0  0  0  0  0  0
  -47.8425  -29.1848    2.4405 H   0  0  0  0  0  0  0  0  0  0  0  0
  -47.0124  -30.0467    1.1008 H   0  0  0  0  0  0  0  0  0  0  0  0
  -47.8642  -28.9355    8.0277 H   0  0  0  0  0  0  0  0  0  0  0  0
  -44.9791  -29.4886    2.3832 H   0  0  0  0  0  0  0  0  0  0  0  0
  1  2  2  0  0  0  0
  1  4  1  0  0  0  0
  2 18  1  0  0  0  0
  3 16  2  0  0  0  0
  3 17  1  0  0  0  0
  4  5  2  0  0  0  0
  4  6  1  0  0  0  0
  5 16  1  0  0  0  0
  5 18  1  0  0  0  0
  6 17  2  0  0  0  0
  6 20  1  0  0  0  0
  7  8  2  0  0  0  0
  7  9  1  0  0  0  0
  8 11  1  0  0  0  0
  9 10  2  0  0  0  0
 10 19  1  0  0  0  0
 11 19  1  0  0  0  0
 11 21  2  0  0  0  0
 12 13  1  0  0  0  0
 12 14  1  0  0  0  0
 13 15  1  0  0  0  0
 14 19  1  0  0  0  0
 15 20  1  0  0  0  0
  1 22  1  0  0  0  0
  2 23  1  0  0  0  0
  3 24  1  0  0  0  0
  7 25  1  0  0  0  0
  8 26  1  0  0  0  0
  9 27  1  0  0  0  0
 10 28  1  0  0  0  0
 12 29  1  0  0  0  0
 12 30  1  0  0  0  0
 13 31  1  0  0  0  0
 13 32  1  0  0  0  0
 14 33  1  0  0  0  0
 14 34  1  0  0  0  0
 15 35  1  0  0  0  0
 15 36  1  0  0  0  0
 18 37  1  0  0  0  0
 20 38  1  0  0  0  0
M  END
> <POSIT::Probability>
0.75

> <POSIT::Method>
SHAPEFIT

> <ReceptorTitle>
UCSF-P4267-REFINED_LIGAND-BOUND-STATE_A__DU__LA1_A-201(A)

> <OMEGA_C>
NctAwgwg5sFZW5tA9/5CwlfH5cGoccNAev8wwhd168EnSMBAQQk7wthW6MFKgaBAqhE6wp2G6MEc
lsxAS7c2wrW86sF13oRADC47wp9V8MEwRGXADAk7wmoL+MGeiSbAc844wrjD5cEUylTAnFg2wnu3
48E+wgfAnFk4wni39cGBW6m/ZCM0wrdH38HkVE8/4hQ6wnyW38HjSaE/G1oywu5Y6cEAeGo815M7
woNY6sHNXPI/vBk1wp4m6sFWF9xAJL8xwibz68GhZJVAO/A+wsJM58EEKuFAxO01wimd68HFapC/
b1s3wlHe7cGMJjVAxxw4wlrY/MGMBPe+NeNCwp/85MG28XpAbCxHwgCJ5MGCtMpApfsswp8h7MH0
v8xAbgY9wmsH8sFLI5HANOA8wkS//8E2LzHA3v44wsub38HtmILAUbM0wtjd28FN1Pe/go0zwnY1
2MFC1C8+TZwxwk6X3sGXYto/TsE6wpUy2cFpqf8/mqU8wtI63sEr6cM+YEYuwh4J6MHFGru+Ql4y
wtNI8MG17DA/wl4/woV66cHcMBxAvww8wqFf8MFu5ow/+nQ/wut758FacQBBleozwpno68HphhhA

> <OMEGA_E>
DrkTPw==

> <OMEGA_NBR>
      1280

$$$$
CACHE3-HO_1696_41
  -OEChem-03092622493D

 35 37  0     0  0  0  0  0  0999 V2000
  -48.1434  -29.0049    4.7264 C   0  0  0  0  0  0  0  0  0  0  0  0
  -48.7486  -28.8397    5.9463 C   0  0  0  0  0  0  0  0  0  0  0  0
  -44.2305  -29.4260    6.0755 C   0  0  0  0  0  0  0  0  0  0  0  0
  -46.7012  -29.1381    4.9717 C   0  0  0  0  0  0  0  0  0  0  0  0
  -46.5214  -29.0939    6.3559 C   0  0  0  0  0  0  0  0  0  0  0  0
  -45.5709  -29.3501    4.1547 C   0  0  0  0  0  0  0  0  0  0  0  0
  -46.7392  -31.0368   -3.1449 C   0  0  0  0  0  0  0  0  0  0  0  0
  -46.6242  -31.6769   -1.9316 C   0  0  0  0  0  0  0  0  0  0  0  0
  -46.3042  -29.6362   -3.2731 C   0  0  0  0  0  0  0  0  0  0  0  0
  -45.7427  -28.9906   -2.1957 C   0  0  0  0  0  0  0  0  0  0  0  0
  -46.0244  -30.9621   -0.7890 C   0  0  0  0  0  0  0  0  0  0  0  0
  -45.8358  -28.0311    0.8776 C   0  0  0  0  0  0  0  0  0  0  0  0
  -44.8451  -28.9052    0.0787 C   0  0  0  0  0  0  0  0  0  0  0  0
  -46.6321  -28.8372    1.9012 C   0  0  0  0  0  0  0  0  0  0  0  0
  -45.2942  -29.2419    6.8969 N   0  0  0  0  0  0  0  0  0  0  0  0
  -44.3523  -29.4900    4.7257 N   0  0  0  0  0  0  0  0  0  0  0  0
  -47.7678  -28.9016    6.9321 N   0  0  0  0  0  0  0  0  0  0  0  0
  -45.5357  -29.6544   -0.9778 N   0  0  0  0  0  0  0  0  0  0  0  0
  -45.6622  -29.5236    2.7835 N   0  0  0  0  0  0  0  0  0  0  0  0
  -45.9182  -31.5442    0.2851 O   0  0  0  0  0  0  0  0  0  0  0  0
  -48.6353  -29.0319    3.7653 H   0  0  0  0  0  0  0  0  0  0  0  0
  -49.8047  -28.6877    6.1133 H   0  0  0  0  0  0  0  0  0  0  0  0
  -43.2482  -29.5257    6.5130 H   0  0  0  0  0  0  0  0  0  0  0  0
  -47.1463  -31.5592   -3.9980 H   0  0  0  0  0  0  0  0  0  0  0  0
  -46.9701  -32.6936   -1.8172 H   0  0  0  0  0  0  0  0  0  0  0  0
  -46.4257  -29.1161   -4.2118 H   0  0  0  0  0  0  0  0  0  0  0  0
  -45.4561  -27.9535   -2.2895 H   0  0  0  0  0  0  0  0  0  0  0  0
  -45.2700  -27.2500    1.4065 H   0  0  0  0  0  0  0  0  0  0  0  0
  -46.5390  -27.5617    0.1739 H   0  0  0  0  0  0  0  0  0  0  0  0
  -44.0831  -28.2576   -0.3794 H   0  0  0  0  0  0  0  0  0  0  0  0
  -44.3591  -29.6153    0.7638 H   0  0  0  0  0  0  0  0  0  0  0  0
  -47.2686  -28.1647    2.4950 H   0  0  0  0  0  0  0  0  0  0  0  0
  -47.2614  -29.5786    1.3871 H   0  0  0  0  0  0  0  0  0  0  0  0
  -47.9376  -28.8194    7.9142 H   0  0  0  0  0  0  0  0  0  0  0  0
  -44.7601  -29.2844    2.4244 H   0  0  0  0  0  0  0  0  0  0  0  0
  1  2  2  0  0  0  0
  1  4  1  0  0  0  0
  2 17  1  0  0  0  0
  3 15  2  0  0  0  0
  3 16  1  0  0  0  0
  4  5  2  0  0  0  0
  4  6  1  0  0  0  0
  5 15  1  0  0  0  0
  5 17  1  0  0  0  0
  6 16  2  0  0  0  0
  6 19  1  0  0  0  0
  7  8  2  0  0  0  0
  7  9  1  0  0  0  0
  8 11  1  0  0  0  0
  9 10  2  0  0  0  0
 10 18  1  0  0  0  0
 11 18  1  0  0  0  0
 11 20  2  0  0  0  0
 12 13  1  0  0  0  0
 12 14  1  0  0  0  0
 13 18  1  0  0  0  0
 14 19  1  0  0  0  0
  1 21  1  0  0  0  0
  2 22  1  0  0  0  0
  3 23  1  0  0  0  0
  7 24  1  0  0  0  0
  8 25  1  0  0  0  0
  9 26  1  0  0  0  0
 10 27  1  0  0  0  0
 12 28  1  0  0  0  0
 12 29  1  0  0  0  0
 13 30  1  0  0  0  0
 13 31  1  0  0  0  0
 14 32  1  0  0  0  0
 14 33  1  0  0  0  0
 17 34  1  0  0  0  0
 19 35  1  0  0  0  0
M  END
> <POSIT::Probability>
0.83

> <POSIT::Method>
SHAPEFIT

> <ReceptorTitle>
UCSF-P4267-REFINED_LIGAND-BOUND-STATE_A__DU__LA1_A-201(A)

> <OMEGA_C>
45JAwvgJ6MFaPpdAhP5Cwr235sFrSL5AB+wwwopo68EjasJACM46wtMa6cFfGJ9A7RU6wkLA6MF2
Y8tAjUg2whXN6sF384RA8/Q6wltL+MF8RknALX86wk5q/cHDP/e/fDc5wuMW7cGOelHAifg2wrHs
58GmhQzA+Rg4wlOy98G8+0m/4lc3wsY/4MHiq2A/bWEzwt0958FIJaE9RIc6woWy5sF/WfM/QC01
wlHv6cGZs9xAwmgxwm3r68HROJdALxI/wpA258H5091AiCQ2wjE87cGOT3q/HqY2wm4w7MEAJTJA
Q6w3woxa/MF29ZE+mIpCwk5B6MEf+nBA/zdHwniA5cFPoMNAHf4swq407MHTatBA0pU8wjR5/MG2
33/AW+E7wkHGAsKam+i/37M5wr7t6MEVx4bAF9M1wtGg38FUhxLAfxQ1whgA2sGBCbQ/6yc6wkl+
3ME3HzI+FFUwwoQP4sF4QMK+rW8xwjfs7MHLikM/ABM9wjdR4cFCrh9Asws9wu6g7MHljLE/DsA/
wg2O5sHVQP1AYQozwmdG6sGyKBtA

> <OMEGA_E>
CDr5Pg==

> <OMEGA_NBR>
      2501

$$$$
CACHE3HI_1695_40
  -OEChem-03092622493D

 41 44  0     1  0  0  0  0  0999 V2000
  -45.2834  -30.0549   -0.9638 C   0  0  0  0  0  0  0  0  0  0  0  0
  -46.9971  -28.3732   -0.6945 C   0  0  0  0  0  0  0  0  0  0  0  0
  -45.6677  -30.6389    0.2432 C   0  0  0  0  0  0  0  0  0  0  0  0
  -47.3814  -28.9571    0.5125 C   0  0  0  0  0  0  0  0  0  0  0  0
  -43.9353  -29.3903    5.2999 C   0  0  0  0  0  0  0  0  0  0  0  0
  -44.5302  -29.7436    6.5259 C   0  0  0  0  0  0  0  0  0  0  0  0
  -45.9042  -28.4656   -3.9994 C   0  0  0  0  0  0  0  0  0  0  0  0
  -44.9876  -28.9968    4.5093 C   0  0  0  0  0  0  0  0  0  0  0  0
  -44.4225  -26.9758   -3.9061 C   0  0  0  0  0  0  0  0  0  0  0  0
  -45.9484  -28.9220   -1.4327 C   0  0  0  0  0  0  0  0  0  0  0  0
  -46.7164  -30.0900    0.9814 C   0  0  0  0  0  0  0  0  0  0  0  0
  -45.5518  -28.3178   -2.6809 C   0  0  0  0  0  0  0  0  0  0  0  0
  -47.1246  -30.7117    2.2657 C   0  0  0  0  0  0  0  0  0  0  0  0
  -49.5415  -29.4191    6.1236 C   0  0  0  0  0  0  0  0  0  0  0  0
  -48.4391  -28.3700    6.0231 C   0  0  0  0  0  0  0  0  0  0  0  0
  -49.6773  -29.9343    4.7033 C   0  0  0  0  0  0  0  0  0  0  0  0
  -47.5287  -28.8246    4.8620 C   0  0  2  0  0  0  0  0  0  0  0  0
  -48.2306  -30.0504    4.2444 C   0  0  2  0  0  0  0  0  0  0  0  0
  -45.1775  -27.6030   -4.7798 N   0  0  0  0  0  0  0  0  0  0  0  0
  -45.8567  -29.5880    6.5195 N   0  0  0  0  0  0  0  0  0  0  0  0
  -46.1048  -29.1328    5.2797 N   0  0  0  0  0  0  0  0  0  0  0  0
  -46.5847  -31.7032    2.7319 O   0  0  0  0  0  0  0  0  0  0  0  0
  -44.5916  -27.3545   -2.6094 O   0  0  0  0  0  0  0  0  0  0  0  0
  -48.1626  -30.0294    2.8291 O   0  0  0  0  0  0  0  0  0  0  0  0
  -44.4639  -30.4948   -1.5276 H   0  0  0  0  0  0  0  0  0  0  0  0
  -47.5250  -27.4902   -1.0478 H   0  0  0  0  0  0  0  0  0  0  0  0
  -45.1426  -31.5216    0.5995 H   0  0  0  0  0  0  0  0  0  0  0  0
  -48.2004  -28.5211    1.0788 H   0  0  0  0  0  0  0  0  0  0  0  0
  -42.8908  -29.4175    5.0265 H   0  0  0  0  0  0  0  0  0  0  0  0
  -44.0519  -30.1076    7.4241 H   0  0  0  0  0  0  0  0  0  0  0  0
  -46.6330  -29.1379   -4.4283 H   0  0  0  0  0  0  0  0  0  0  0  0
  -45.0345  -28.6421    3.4890 H   0  0  0  0  0  0  0  0  0  0  0  0
  -43.6900  -26.2045   -4.0913 H   0  0  0  0  0  0  0  0  0  0  0  0
  -49.2278  -30.2294    6.7924 H   0  0  0  0  0  0  0  0  0  0  0  0
  -50.4769  -29.0025    6.5081 H   0  0  0  0  0  0  0  0  0  0  0  0
  -48.8868  -27.4024    5.7642 H   0  0  0  0  0  0  0  0  0  0  0  0
  -47.9132  -28.2453    6.9754 H   0  0  0  0  0  0  0  0  0  0  0  0
  -50.2012  -30.8939    4.6544 H   0  0  0  0  0  0  0  0  0  0  0  0
  -50.2331  -29.2257    4.0771 H   0  0  0  0  0  0  0  0  0  0  0  0
  -47.4029  -28.0070    4.1182 H   0  0  0  0  0  0  0  0  0  0  0  0
  -47.7976  -30.9936    4.5987 H   0  0  0  0  0  0  0  0  0  0  0  0
  1  3  2  0  0  0  0
  1 10  1  0  0  0  0
  2  4  1  0  0  0  0
  2 10  2  0  0  0  0
  3 11  1  0  0  0  0
  4 11  2  0  0  0  0
  5  6  1  0  0  0  0
  5  8  2  0  0  0  0
  6 20  2  0  0  0  0
  7 12  2  0  0  0  0
  7 19  1  0  0  0  0
  8 21  1  0  0  0  0
  9 19  2  0  0  0  0
  9 23  1  0  0  0  0
 10 12  1  0  0  0  0
 11 13  1  0  0  0  0
 12 23  1  0  0  0  0
 13 22  2  0  0  0  0
 13 24  1  0  0  0  0
 14 15  1  0  0  0  0
 14 16  1  0  0  0  0
 15 17  1  0  0  0  0
 16 18  1  0  0  0  0
 17 18  1  0  0  0  0
 17 21  1  0  0  0  0
 18 24  1  0  0  0  0
 20 21  1  0  0  0  0
  1 25  1  0  0  0  0
  2 26  1  0  0  0  0
  3 27  1  0  0  0  0
  4 28  1  0  0  0  0
  5 29  1  0  0  0  0
  6 30  1  0  0  0  0
  7 31  1  0  0  0  0
  8 32  1  0  0  0  0
  9 33  1  0  0  0  0
 14 34  1  0  0  0  0
 14 35  1  0  0  0  0
 15 36  1  0  0  0  0
 15 37  1  0  0  0  0
 16 38  1  0  0  0  0
 16 39  1  0  0  0  0
 17 40  1  0  0  0  0
 18 41  1  0  0  0  0
M  END
> <POSIT::Probability>
0.14

> <POSIT::Method>
HYBRID

> <ReceptorTitle>
UCSF-P4267-REFINED_LIGAND-BOUND-STATE_A__DU__LA1_A-201(A)

> <OMEGA_C>
LyI1wndw8MFwvna/A/07wkP84sGAzTG/ras2wmsc9cFAEXk+hoY9wiGo58G4MgM/xL0vwlQf68GS
mKlA7R4ywtby7cFe1NBA8p03wn6548Gl9n/ASPMzwov558E4TJBAmbAxwmvO18G//HnAHcs3wlJg
58FYY7e/lN06wly48MGAPXs/DjU2wtOK4sEclCvAoX88wnex9cFoARFAiSpGwlFa68E89MNAsMFB
wsb14sHkvMBAkrVGwot578GUgZZAZx0+wsWY5sGKlZtAJuxAwjxn8MFT0odAz7U0wgbT3MHy85jA
Q203wlO07MHdn9BATWs4wgQQ6cFl86hAvVY6wjOg/cEK1y5Azl0ywv3V2sH5ACfAgaZAwjQ88MGQ
EDVAA9sxwkb188EIisO/kxk+wvzr28EIHYa/B5I0wios/MEgdhk/LM1AwjUr5MFYFoo/OJArwvtW
68H02KBAJDUwwk7c8MHUke1AL4g6wl8a6cHKtI3ARyM0whUj5cEMS19AhsIuwr2i0cFW7ILAPulE
wsvV8cEDW9lATOhJwhgF6ME8QtBAGoxDwhg428GJdLhAFqc/wmz24cF5Nt9AC85Iwrkm98Gy8JRA
vO5IwkjO6cE6d4JAkZw9wmUO4MFHyINAszA/wuPy98FuKJNA

> <OMEGA_E>
0bOlwA==

> <OMEGA_NBR>
      3823

$$$$
CACHE3HI_1695_49
  -OEChem-03092622493D

 34 36  0     0  0  0  0  0  0999 V2000
  -46.3334  -32.2136   -2.7532 C   0  0  0  0  0  0  0  0  0  0  0  0
  -45.0446  -30.4624   -1.6333 C   0  0  0  0  0  0  0  0  0  0  0  0
  -46.2046  -32.1203   -0.3129 C   0  0  0  0  0  0  0  0  0  0  0  0
  -47.9415  -29.1326    5.2835 C   0  0  0  0  0  0  0  0  0  0  0  0
  -48.9938  -29.4920    3.1385 C   0  0  0  0  0  0  0  0  0  0  0  0
  -46.7440  -28.8159    4.6423 C   0  0  0  0  0  0  0  0  0  0  0  0
  -47.7963  -29.1753    2.4973 C   0  0  0  0  0  0  0  0  0  0  0  0
  -44.5791  -29.8586   -0.4651 C   0  0  0  0  0  0  0  0  0  0  0  0
  -45.7392  -31.5165    0.8552 C   0  0  0  0  0  0  0  0  0  0  0  0
  -51.7698  -30.1563    6.6960 C   0  0  0  0  0  0  0  0  0  0  0  0
  -52.2678  -30.3332    5.3912 C   0  0  0  0  0  0  0  0  0  0  0  0
  -50.4557  -29.7989    6.5156 C   0  0  0  0  0  0  0  0  0  0  0  0
  -45.8572  -31.5934   -1.5570 C   0  0  0  0  0  0  0  0  0  0  0  0
  -49.0665  -29.4705    4.5315 C   0  0  0  0  0  0  0  0  0  0  0  0
  -46.6713  -28.8374    3.2493 C   0  0  0  0  0  0  0  0  0  0  0  0
  -44.9265  -30.3854    0.7790 C   0  0  0  0  0  0  0  0  0  0  0  0
  -46.7203  -32.7172   -3.7246 N   0  0  0  0  0  0  0  0  0  0  0  0
  -51.3458  -30.1066    4.4519 N   0  0  0  0  0  0  0  0  0  0  0  0
  -50.2546  -29.7838    5.1667 N   0  0  0  0  0  0  0  0  0  0  0  0
  -43.1277  -28.9020    1.9002 O   0  0  0  0  0  0  0  0  0  0  0  0
  -44.3345  -30.6656    3.2630 O   0  0  0  0  0  0  0  0  0  0  0  0
  -45.4925  -28.5246    2.6185 O   0  0  0  0  0  0  0  0  0  0  0  0
  -44.3440  -29.6288    2.2408 S   0  0  0  0  0  0  0  0  0  0  0  0
  -44.7643  -30.0405   -2.5956 H   0  0  0  0  0  0  0  0  0  0  0  0
  -46.8366  -33.0021   -0.2376 H   0  0  0  0  0  0  0  0  0  0  0  0
  -47.9842  -29.1119    6.3698 H   0  0  0  0  0  0  0  0  0  0  0  0
  -49.8637  -29.7534    2.5405 H   0  0  0  0  0  0  0  0  0  0  0  0
  -45.8706  -28.5535    5.2334 H   0  0  0  0  0  0  0  0  0  0  0  0
  -47.7463  -29.1933    1.4119 H   0  0  0  0  0  0  0  0  0  0  0  0
  -43.9455  -28.9786   -0.5354 H   0  0  0  0  0  0  0  0  0  0  0  0
  -46.0159  -31.9351    1.8192 H   0  0  0  0  0  0  0  0  0  0  0  0
  -52.2902  -30.2714    7.6352 H   0  0  0  0  0  0  0  0  0  0  0  0
  -53.2641  -30.6186    5.0850 H   0  0  0  0  0  0  0  0  0  0  0  0
  -49.6711  -29.5617    7.2218 H   0  0  0  0  0  0  0  0  0  0  0  0
  1 13  1  0  0  0  0
  1 17  3  0  0  0  0
  2  8  2  0  0  0  0
  2 13  1  0  0  0  0
  3  9  1  0  0  0  0
  3 13  2  0  0  0  0
  4  6  2  0  0  0  0
  4 14  1  0  0  0  0
  5  7  1  0  0  0  0
  5 14  2  0  0  0  0
  6 15  1  0  0  0  0
  7 15  2  0  0  0  0
  8 16  1  0  0  0  0
  9 16  2  0  0  0  0
 10 11  1  0  0  0  0
 10 12  2  0  0  0  0
 11 18  2  0  0  0  0
 12 19  1  0  0  0  0
 14 19  1  0  0  0  0
 15 22  1  0  0  0  0
 16 23  1  0  0  0  0
 18 19  1  0  0  0  0
 20 23  2  0  0  0  0
 21 23  2  0  0  0  0
 22 23  1  0  0  0  0
  2 24  1  0  0  0  0
  3 25  1  0  0  0  0
  4 26  1  0  0  0  0
  5 27  1  0  0  0  0
  6 28  1  0  0  0  0
  7 29  1  0  0  0  0
  8 30  1  0  0  0  0
  9 31  1  0  0  0  0
 10 32  1  0  0  0  0
 11 33  1  0  0  0  0
 12 34  1  0  0  0  0
M  END
> <POSIT::Probability>
0.24

> <POSIT::Method>
FRED

> <ReceptorTitle>
UCSF-P4267-REFINED_LIGAND-BOUND-STATE_A__DU__LA1_A-201(A)

> <OMEGA_C>
cFU5wrfaAMJvNDDAoy00wvyy88EUD9G/dtE4wiN7AMIQL6C+IsQ/wpYP6cHAEqlAsPlDwqrv68HE
3UhA0/k6wvuG5sFojZRAcC8/whhn6cH10h9ACVEywmve7sHoJ+6+5fQ2ws0h/MEo8Vo/RxRPwiNA
8cF6RdZARhJRwkuq8sFUhKxAqtJJwi5k7sHGf9BAz203wky//MG2Sse/IkREwq7D68HEAZFAYK86
wviy5sEP9U9AsbQzwmQV88HoaUc/luE6wmfeAsKdX27AEGJNwkfa8MGidY5AsgRJwi9F7sG6VaVA
yYIswkM358GOOfM/gVYxwi5T9cFH1FBASPg1wncy5MGRlSdASGAxwq8H7cGJaQ9Apg4zwgJT8MET
HybApVg7wjMCBMKQSnO+x+8/wivl6MGC1ctAZXRHwgIH7sFWlyJAeHs3woxt5MEqeKdAM/w+wuqL
6cEmuLQ/PMgvwhTU58FMEQm/PhA4wgB7/8F+3Og/NilRwsgr8sGkU/RAbA5Vwvjy9MEKuKJAMK9G
wnF+7MFWGedA

> <OMEGA_E>
Q73fwA==

> <OMEGA_NBR>
      4992

$$$$
CACHE3HI_1695_88
  -OEChem-03092622493D

 37 40  0     1  0  0  0  0  0999 V2000
  -47.8203  -33.0055   -2.9622 C   0  0  0  0  0  0  0  0  0  0  0  0
  -46.5858  -32.4031   -3.0312 C   0  0  0  0  0  0  0  0  0  0  0  0
  -47.3683  -32.4054   -0.9704 C   0  0  0  0  0  0  0  0  0  0  0  0
  -44.3589  -28.9978    5.0124 C   0  0  0  0  0  0  0  0  0  0  0  0
  -43.9564  -29.0281    3.7347 C   0  0  0  0  0  0  0  0  0  0  0  0
  -46.2226  -29.2888    2.8647 C   0  0  0  0  0  0  0  0  0  0  0  0
  -46.2692  -29.0939    6.5712 C   0  0  0  0  0  0  0  0  0  0  0  0
  -45.7571  -29.1120    5.3378 C   0  0  0  0  0  0  0  0  0  0  0  0
  -44.9014  -29.1761    2.6408 C   0  0  0  0  0  0  0  0  0  0  0  0
  -46.7711  -29.2656    4.2530 C   0  0  0  0  0  0  0  0  0  0  0  0
  -48.5338  -29.3502    5.7470 C   0  0  0  0  0  0  0  0  0  0  0  0
  -45.0181  -29.7467   -0.9906 C   0  0  0  0  0  0  0  0  0  0  0  0
  -44.6178  -31.3751    0.2545 C   0  0  0  0  0  0  0  0  0  0  0  0
  -44.9925  -31.2756   -1.2469 C   0  0  0  0  0  0  0  0  0  0  0  0
  -44.3217  -29.1963    1.2579 C   0  0  2  0  0  0  0  0  0  0  0  0
  -48.3018  -33.0036   -1.6774 N   0  0  0  0  0  0  0  0  0  0  0  0
  -48.0496  -29.3748    4.4505 N   0  0  0  0  0  0  0  0  0  0  0  0
  -46.3096  -32.0241   -1.7475 N   0  0  0  0  0  0  0  0  0  0  0  0
  -47.6152  -29.2087    6.7831 N   0  0  0  0  0  0  0  0  0  0  0  0
  -45.2028  -30.0309    0.4492 N   0  0  0  0  0  0  0  0  0  0  0  0
  -49.7367  -29.4494    5.9935 O   0  0  0  0  0  0  0  0  0  0  0  0
  -43.0178  -29.7285    1.3623 O   0  0  0  0  0  0  0  0  0  0  0  0
  -48.3872  -33.4404   -3.7724 H   0  0  0  0  0  0  0  0  0  0  0  0
  -45.9056  -32.2203   -3.8513 H   0  0  0  0  0  0  0  0  0  0  0  0
  -47.4038  -32.2202    0.0945 H   0  0  0  0  0  0  0  0  0  0  0  0
  -43.6348  -28.8868    5.8128 H   0  0  0  0  0  0  0  0  0  0  0  0
  -42.9009  -28.9409    3.4966 H   0  0  0  0  0  0  0  0  0  0  0  0
  -46.9324  -29.4001    2.0517 H   0  0  0  0  0  0  0  0  0  0  0  0
  -45.6639  -28.9897    7.4638 H   0  0  0  0  0  0  0  0  0  0  0  0
  -44.0838  -29.2228   -1.2335 H   0  0  0  0  0  0  0  0  0  0  0  0
  -45.8449  -29.2061   -1.4801 H   0  0  0  0  0  0  0  0  0  0  0  0
  -45.1103  -32.1942    0.8041 H   0  0  0  0  0  0  0  0  0  0  0  0
  -43.5399  -31.4348    0.4576 H   0  0  0  0  0  0  0  0  0  0  0  0
  -44.1291  -31.6063   -1.9463 H   0  0  0  0  0  0  0  0  0  0  0  0
  -44.2773  -28.1785    0.8669 H   0  0  0  0  0  0  0  0  0  0  0  0
  -47.9597  -29.1900    7.7383 H   0  0  0  0  0  0  0  0  0  0  0  0
  -42.5075  -29.1485    1.9535 H   0  0  0  0  0  0  0  0  0  0  0  0
  1  2  2  0  0  0  0
  1 16  1  0  0  0  0
  2 18  1  0  0  0  0
  3 16  2  0  0  0  0
  3 18  1  0  0  0  0
  4  5  2  0  0  0  0
  4  8  1  0  0  0  0
  5  9  1  0  0  0  0
  6  9  2  0  0  0  0
  6 10  1  0  0  0  0
  7  8  2  0  0  0  0
  7 19  1  0  0  0  0
  8 10  1  0  0  0  0
  9 15  1  0  0  0  0
 10 17  2  0  0  0  0
 11 17  1  0  0  0  0
 11 19  1  0  0  0  0
 11 21  2  0  0  0  0
 12 14  1  0  0  0  0
 12 20  1  0  0  0  0
 13 14  1  0  0  0  0
 13 20  1  0  0  0  0
 14 18  1  0  0  0  0
 15 20  1  0  0  0  0
 15 22  1  0  0  0  0
  1 23  1  0  0  0  0
  2 24  1  0  0  0  0
  3 25  1  0  0  0  0
  4 26  1  0  0  0  0
  5 27  1  0  0  0  0
  6 28  1  0  0  0  0
  7 29  1  0  0  0  0
 12 30  1  0  0  0  0
 12 31  1  0  0  0  0
 13 32  1  0  0  0  0
 13 33  1  0  0  0  0
 14 34  1  0  0  0  0
 15 35  1  0  0  0  0
 19 36  1  0  0  0  0
 22 37  1  0  0  0  0
M  END
> <POSIT::Probability>
0.23

> <POSIT::Method>
HYBRID

> <ReceptorTitle>
UCSF-P4267-REFINED_LIGAND-BOUND-STATE_A__DU__LA1_A-201(A)

> <OMEGA_C>
CEg/wqsFBMJOlD3Az1c6wsicAcK4/kHAHXk9whafAcKgbni/d28xwmX758HuZaBAWNMvwoI56MHY
BG9A5eM4wnZP6sHxVzdArBM5wlbA6ME9R9JARgc3wmfl6MEtz6pADJszwqpo6cEfAylApBU7wuAf
6sGkGIhApyJCwkDN6sF857dAkRI0wkX57cFol32/ongywicA+8EQTII+Vvgzwmk0+sFgm5+/d0kx
wguS6cHYAaE/EzVBwqwDBMK8tNa/zzJAwpP/6sHNao5ACz05wrIYAMJQr9+//HU+woOr6cFND9lA
qc80wjw/8MFg/OU+WPJGwlCY68F2yr9AMhIswgLU7cHIX64/dIxBwgPDBcKkbnHAWZ83wo3hAMI4
e3bAiZ09woXhAMKAc8E9/IkuwhQY58EsArpAhZorwu6G58Gox19Awbo7wlYz68EQTwNA06c2wurq
58G71+5Aw1UwwkzI6cGk5J2/KmE3wiqm6cHYcr2/7nA0wt/GAMLA1k0/1Cguwoh6+8GQSOo+O4Qw
wrTZ/MEcIPm/6Bsxwoxt4cHg7V0/wtY/wheF6cFEoPdArQcqwi0w6cFKDfo/

> <OMEGA_E>
hrz5wA==

> <OMEGA_NBR>
      6233

$$$$
CACHE3HI_1696_17
  -OEChem-03092622493D

 31 34  0     0  0  0  0  0  0999 V2000
  -48.9926  -28.8821    3.5255 C   0  0  0  0  0  0  0  0  0  0  0  0
  -46.4360  -31.5282   -1.6708 C   0  0  0  0  0  0  0  0  0  0  0  0
  -48.7400  -28.8258    5.9513 C   0  0  0  0  0  0  0  0  0  0  0  0
  -45.7507  -29.3488   -1.8546 C   0  0  0  0  0  0  0  0  0  0  0  0
  -44.2333  -29.4412    5.9537 C   0  0  0  0  0  0  0  0  0  0  0  0
  -48.1861  -28.9447    4.7004 C   0  0  0  0  0  0  0  0  0  0  0  0
  -46.7244  -29.1333    4.8778 C   0  0  0  0  0  0  0  0  0  0  0  0
  -46.1693  -30.4112   -2.6063 C   0  0  0  0  0  0  0  0  0  0  0  0
  -46.5112  -29.1141    6.2675 C   0  0  0  0  0  0  0  0  0  0  0  0
  -45.5920  -29.3384    4.0321 C   0  0  0  0  0  0  0  0  0  0  0  0
  -46.5754  -28.9052    1.7040 C   0  0  0  0  0  0  0  0  0  0  0  0
  -44.5545  -29.5652    1.7245 C   0  0  0  0  0  0  0  0  0  0  0  0
  -45.4662  -28.9488    0.5830 C   0  0  0  0  0  0  0  0  0  0  0  0
  -49.6696  -28.8247    2.5779 N   0  0  0  0  0  0  0  0  0  0  0  0
  -46.1794  -31.1208   -0.4459 N   0  0  0  0  0  0  0  0  0  0  0  0
  -45.2813  -29.2707    6.7887 N   0  0  0  0  0  0  0  0  0  0  0  0
  -44.3696  -29.4825    4.6058 N   0  0  0  0  0  0  0  0  0  0  0  0
  -47.7311  -28.9293    6.8936 N   0  0  0  0  0  0  0  0  0  0  0  0
  -45.7762  -29.8267   -0.5695 N   0  0  0  0  0  0  0  0  0  0  0  0
  -45.6551  -29.4608    2.6321 N   0  0  0  0  0  0  0  0  0  0  0  0
  -46.3708  -30.4313   -4.4987 Br  0  0  0  0  0  0  0  0  0  0  0  0
  -46.7832  -32.5127   -1.9476 H   0  0  0  0  0  0  0  0  0  0  0  0
  -49.7882  -28.6763    6.1645 H   0  0  0  0  0  0  0  0  0  0  0  0
  -45.4664  -28.3636   -2.1936 H   0  0  0  0  0  0  0  0  0  0  0  0
  -43.2459  -29.5490    6.3777 H   0  0  0  0  0  0  0  0  0  0  0  0
  -46.9157  -27.8911    1.9606 H   0  0  0  0  0  0  0  0  0  0  0  0
  -47.4474  -29.5435    1.4987 H   0  0  0  0  0  0  0  0  0  0  0  0
  -44.2237  -30.5963    1.5317 H   0  0  0  0  0  0  0  0  0  0  0  0
  -43.6862  -28.9458    1.9936 H   0  0  0  0  0  0  0  0  0  0  0  0
  -45.1343  -27.9415    0.2913 H   0  0  0  0  0  0  0  0  0  0  0  0
  -47.8646  -28.8780    7.8833 H   0  0  0  0  0  0  0  0  0  0  0  0
  1  6  1  0  0  0  0
  1 14  3  0  0  0  0
  2  8  1  0  0  0  0
  2 15  2  0  0  0  0
  3  6  2  0  0  0  0
  3 18  1  0  0  0  0
  4  8  2  0  0  0  0
  4 19  1  0  0  0  0
  5 16  1  0  0  0  0
  5 17  2  0  0  0  0
  6  7  1  0  0  0  0
  7  9  1  0  0  0  0
  7 10  2  0  0  0  0
  8 21  1  0  0  0  0
  9 16  2  0  0  0  0
  9 18  1  0  0  0  0
 10 17  1  0  0  0  0
 10 20  1  0  0  0  0
 11 13  1  0  0  0  0
 11 20  1  0  0  0  0
 12 13  1  0  0  0  0
 12 20  1  0  0  0  0
 13 19  1  0  0  0  0
 15 19  1  0  0  0  0
  2 22  1  0  0  0  0
  3 23  1  0  0  0  0
  4 24  1  0  0  0  0
  5 25  1  0  0  0  0
 11 26  1  0  0  0  0
 11 27  1  0  0  0  0
 12 28  1  0  0  0  0
 12 29  1  0  0  0  0
 13 30  1  0  0  0  0
 18 31  1  0  0  0  0
M  END
> <POSIT::Probability>
0.89

> <POSIT::Method>
SHAPEFIT

> <ReceptorTitle>
UCSF-P4267-REFINED_LIGAND-BOUND-STATE_A__DU__LA1_A-201(A)

> <OMEGA_C>
bPhDwnQO58EaomFAgb45wsk5/MGN3NW/z/VCwiqb5sEfcb5AtgA3wlLK6sHLZO2/5+4wwnyH68Ga
hL5Ak75AwsyO58HlaZZA1OU6wvcQ6cEBF5xAWq04wi5K88H4zCbAhQs6wqLp6MFtj8hAP142wvu0
6sFaB4FAPk06wts958GWHdo/zjcywnGF7ME1vdw/ZN01wiuX58EUPRU/sq1GwvWY5sHC+yRAt7c4
wl73+MF8R+S+EyA1wk8q6sH2PNlAeHoxwj/c68HdYpNAouw+wj5v58H4l9xA0Ro3wied7sH6yBG/
y542wqSv68F7dChAv3s5wj1z88FX9Y/A/SE7wgUNAsJOTPm/HCdHwhlp5cGuQ8VAoN01wpPo4sGT
ZAzAxfsswkRk7MHKFcxAp6k7wvUg38H+8/o/Kco9wi9Z7MEA1r8/COUwwlLF9MFrDcQ/p74uwu6Q
58FlLf8/gYk0wheI38EWKZU+YnU/wikG58G0Q/xA

> <OMEGA_E>
qOGkPg==

> <OMEGA_NBR>
      7375

$$$$
CACHE3HI_1696_84
  -OEChem-03092622493D

 29 32  0     0  0  0  0  0  0999 V2000
  -46.1229  -30.3827   -2.5622 C   0  0  0  0  0  0  0  0  0  0  0  0
  -48.7413  -28.8468    5.9409 C   0  0  0  0  0  0  0  0  0  0  0  0
  -44.2304  -29.4329    5.9500 C   0  0  0  0  0  0  0  0  0  0  0  0
  -46.7270  -29.1618    4.8662 C   0  0  0  0  0  0  0  0  0  0  0  0
  -48.1957  -28.9846    4.6894 C   0  0  0  0  0  0  0  0  0  0  0  0
  -46.5114  -29.1190    6.2558 C   0  0  0  0  0  0  0  0  0  0  0  0
  -45.5900  -29.3670    4.0268 C   0  0  0  0  0  0  0  0  0  0  0  0
  -46.4304  -31.5039   -1.6482 C   0  0  0  0  0  0  0  0  0  0  0  0
  -46.5734  -28.9204    1.7126 C   0  0  0  0  0  0  0  0  0  0  0  0
  -44.5521  -29.5597    1.7187 C   0  0  0  0  0  0  0  0  0  0  0  0
  -45.4705  -28.9389    0.5807 C   0  0  0  0  0  0  0  0  0  0  0  0
  -45.7283  -29.3667   -1.8363 N   0  0  0  0  0  0  0  0  0  0  0  0
  -45.2801  -29.2545    6.7805 N   0  0  0  0  0  0  0  0  0  0  0  0
  -44.3665  -29.4994    4.6032 N   0  0  0  0  0  0  0  0  0  0  0  0
  -46.1972  -31.1054   -0.4219 N   0  0  0  0  0  0  0  0  0  0  0  0
  -47.7297  -28.9290    6.8808 N   0  0  0  0  0  0  0  0  0  0  0  0
  -45.7818  -29.8227   -0.5656 N   0  0  0  0  0  0  0  0  0  0  0  0
  -45.6505  -29.4814    2.6283 N   0  0  0  0  0  0  0  0  0  0  0  0
  -49.3325  -28.9381    3.1556 Br  0  0  0  0  0  0  0  0  0  0  0  0
  -47.0731  -33.2185   -2.1708 Br  0  0  0  0  0  0  0  0  0  0  0  0
  -46.2087  -30.3989   -3.6387 H   0  0  0  0  0  0  0  0  0  0  0  0
  -49.7891  -28.6984    6.1568 H   0  0  0  0  0  0  0  0  0  0  0  0
  -43.2424  -29.5263    6.3763 H   0  0  0  0  0  0  0  0  0  0  0  0
  -46.9190  -27.9123    1.9853 H   0  0  0  0  0  0  0  0  0  0  0  0
  -47.4423  -29.5615    1.5024 H   0  0  0  0  0  0  0  0  0  0  0  0
  -44.2089  -30.5843    1.5128 H   0  0  0  0  0  0  0  0  0  0  0  0
  -43.6913  -28.9334    1.9957 H   0  0  0  0  0  0  0  0  0  0  0  0
  -45.1497  -27.9272    0.2915 H   0  0  0  0  0  0  0  0  0  0  0  0
  -47.8608  -28.8609    7.8698 H   0  0  0  0  0  0  0  0  0  0  0  0
  1  8  1  0  0  0  0
  1 12  2  0  0  0  0
  2  5  2  0  0  0  0
  2 16  1  0  0  0  0
  3 13  1  0  0  0  0
  3 14  2  0  0  0  0
  4  5  1  0  0  0  0
  4  6  1  0  0  0  0
  4  7  2  0  0  0  0
  5 19  1  0  0  0  0
  6 13  2  0  0  0  0
  6 16  1  0  0  0  0
  7 14  1  0  0  0  0
  7 18  1  0  0  0  0
  8 15  2  0  0  0  0
  8 20  1  0  0  0  0
  9 11  1  0  0  0  0
  9 18  1  0  0  0  0
 10 11  1  0  0  0  0
 10 18  1  0  0  0  0
 11 17  1  0  0  0  0
 12 17  1  0  0  0  0
 15 17  1  0  0  0  0
  1 21  1  0  0  0  0
  2 22  1  0  0  0  0
  3 23  1  0  0  0  0
  9 24  1  0  0  0  0
  9 25  1  0  0  0  0
 10 26  1  0  0  0  0
 10 27  1  0  0  0  0
 11 28  1  0  0  0  0
 16 29  1  0  0  0  0
M  END
> <POSIT::Probability>
0.89

> <POSIT::Method>
SHAPEFIT

> <ReceptorTitle>
UCSF-P4267-REFINED_LIGAND-BOUND-STATE_A__DU__LA1_A-201(A)

> <OMEGA_C>
4H04wrMP88Hf+yPAHfdCwjjG5sHKG75A6eswwox268G2Zr5Aeeg6wmZL6cEOuJtAYchAwoDg58E8
D5ZArQs6wrDz6MFRL8hAJFw2wpnv6sF724BAw7g5whAI/MFU+NK/Nks6wgVd58FmN9s/VzUywlB6
7MEm/9s/1+E1wuCC58G9pxQ/vOk2wvPu6sEKDOu/yB41wk8J6sG6+dhAUncxws3+68HFTZNA7sk4
wtHX+MF0Cdi+Les+wqZu58GHL9xAmyA3ws2U7sHVzBC/IJo2wuTZ68GHNihAgVRFwimB58GE9UlA
1Uo8wrLfBMLa7grAvdU4wukw88Go4GjAAyhHwk6W5cEfBMVARPgswtI17MFJCsxAEq07wn1M38HP
H/4/4sQ9wu997MEbUMA/5NUwwrCs9MFjo8E/3sMuwpR358FYcv8/Tpk0wgBr38GZQpU+aXE/whfj
5sGh1ftA

> <OMEGA_E>
4F62Pg==

> <OMEGA_NBR>
      8478

$$$$
CACHE3HI_1707_25
  -OEChem-03092622493D

 40 44  0     0  0  0  0  0  0999 V2000
  -48.4509  -28.9717    5.1747 C   0  0  0  0  0  0  0  0  0  0  0  0
  -49.7462  -28.9582    4.5561 C   0  0  0  0  0  0  0  0  0  0  0  0
  -49.6913  -29.3962    3.2453 C   0  0  0  0  0  0  0  0  0  0  0  0
  -47.9968  -28.6193    6.4512 C   0  0  0  0  0  0  0  0  0  0  0  0
  -47.4834  -29.4327    4.2900 C   0  0  0  0  0  0  0  0  0  0  0  0
  -45.8647  -29.2010    5.8087 C   0  0  0  0  0  0  0  0  0  0  0  0
  -43.1966  -29.3896    3.6891 C   0  0  0  0  0  0  0  0  0  0  0  0
  -43.1230  -31.1331    2.5220 C   0  0  0  0  0  0  0  0  0  0  0  0
  -42.7668  -31.3297   -0.2388 C   0  0  0  0  0  0  0  0  0  0  0  0
  -42.7860  -30.1228    0.3357 C   0  0  0  0  0  0  0  0  0  0  0  0
  -42.9445  -32.4642    0.7032 C   0  0  0  0  0  0  0  0  0  0  0  0
  -51.0317  -28.5085    5.1854 C   0  0  0  0  0  0  0  0  0  0  0  0
  -50.8673  -29.5247    2.3292 C   0  0  0  0  0  0  0  0  0  0  0  0
  -52.2568  -28.9723    4.3836 C   0  0  0  0  0  0  0  0  0  0  0  0
  -52.0688  -28.7394    2.8773 C   0  0  0  0  0  0  0  0  0  0  0  0
  -44.4268  -29.3193    6.1913 C   0  0  0  0  0  0  0  0  0  0  0  0
  -46.6901  -28.7372    6.7671 N   0  0  0  0  0  0  0  0  0  0  0  0
  -46.1697  -29.5702    4.5520 N   0  0  0  0  0  0  0  0  0  0  0  0
  -43.2707  -30.7436    3.7723 N   0  0  0  0  0  0  0  0  0  0  0  0
  -43.0117  -28.8898    2.4697 N   0  0  0  0  0  0  0  0  0  0  0  0
  -43.1111  -32.3907    1.9892 N   0  0  0  0  0  0  0  0  0  0  0  0
  -42.9625  -30.0086    1.7082 N   0  0  0  0  0  0  0  0  0  0  0  0
  -48.8765  -28.1253    7.4327 N   0  0  0  0  0  0  0  0  0  0  0  0
  -48.1201  -29.8326    2.7613 S   0  0  0  0  0  0  0  0  0  0  0  0
  -43.3380  -28.3296    5.1224 S   0  0  0  0  0  0  0  0  0  0  0  0
  -42.6351  -31.5035   -1.2964 H   0  0  0  0  0  0  0  0  0  0  0  0
  -42.6683  -29.2063   -0.2295 H   0  0  0  0  0  0  0  0  0  0  0  0
  -42.9286  -33.4609    0.2323 H   0  0  0  0  0  0  0  0  0  0  0  0
  -51.1211  -28.8966    6.2055 H   0  0  0  0  0  0  0  0  0  0  0  0
  -51.0285  -27.4131    5.2438 H   0  0  0  0  0  0  0  0  0  0  0  0
  -50.6255  -29.1626    1.3235 H   0  0  0  0  0  0  0  0  0  0  0  0
  -51.1364  -30.5848    2.2438 H   0  0  0  0  0  0  0  0  0  0  0  0
  -52.4301  -30.0415    4.5618 H   0  0  0  0  0  0  0  0  0  0  0  0
  -53.1475  -28.4404    4.7365 H   0  0  0  0  0  0  0  0  0  0  0  0
  -51.9208  -27.6669    2.6964 H   0  0  0  0  0  0  0  0  0  0  0  0
  -52.9751  -29.0333    2.3360 H   0  0  0  0  0  0  0  0  0  0  0  0
  -44.2744  -28.9962    7.2308 H   0  0  0  0  0  0  0  0  0  0  0  0
  -44.0964  -30.3668    6.1476 H   0  0  0  0  0  0  0  0  0  0  0  0
  -49.8377  -27.9737    7.1975 H   0  0  0  0  0  0  0  0  0  0  0  0
  -48.5098  -27.8333    8.3173 H   0  0  0  0  0  0  0  0  0  0  0  0
  1  2  1  0  0  0  0
  1  4  1  0  0  0  0
  1  5  2  0  0  0  0
  2  3  2  0  0  0  0
  2 12  1  0  0  0  0
  3 13  1  0  0  0  0
  3 24  1  0  0  0  0
  4 17  2  0  0  0  0
  4 23  1  0  0  0  0
  5 18  1  0  0  0  0
  5 24  1  0  0  0  0
  6 16  1  0  0  0  0
  6 17  1  0  0  0  0
  6 18  2  0  0  0  0
  7 19  1  0  0  0  0
  7 20  2  0  0  0  0
  7 25  1  0  0  0  0
  8 19  2  0  0  0  0
  8 21  1  0  0  0  0
  8 22  1  0  0  0  0
  9 10  2  0  0  0  0
  9 11  1  0  0  0  0
 10 22  1  0  0  0  0
 11 21  2  0  0  0  0
 12 14  1  0  0  0  0
 13 15  1  0  0  0  0
 14 15  1  0  0  0  0
 16 25  1  0  0  0  0
 20 22  1  0  0  0  0
  9 26  1  0  0  0  0
 10 27  1  0  0  0  0
 11 28  1  0  0  0  0
 12 29  1  0  0  0  0
 12 30  1  0  0  0  0
 13 31  1  0  0  0  0
 13 32  1  0  0  0  0
 14 33  1  0  0  0  0
 14 34  1  0  0  0  0
 15 35  1  0  0  0  0
 15 36  1  0  0  0  0
 16 37  1  0  0  0  0
 16 38  1  0  0  0  0
 23 39  1  0  0  0  0
 23 40  1  0  0  0  0
M  END
> <POSIT::Probability>
0.24

> <POSIT::Method>
FRED

> <ReceptorTitle>
UCSF-P4267-REFINED_LIGAND-BOUND-STATE_A__DU__LA1_A-201(A)

> <OMEGA_C>
rM1BwvXF58Etl6VAIPxGwn2q58GJy5FA38NGwlMr68GWs09Asfw/wln05MH7b85A+e49wit268F2
R4lAaHU3wpmb6cHm4LlATMkswtYd68FsGWxA530swqMQ+cENaSFAOxErwiGj+sGKg3S+5SQrwoj7
8MFz3as+H8crwk7bAcIKBzQ/diBMwnQR5MHL7qVAJXhLwn8y7MERERVA9gZRwkrH58FjRoxAbEZQ
wk3q5cHpJThACrUxwuyN6sG/HsZAnsI6wuPl5cENjNhAvq04wsmP7MFXqpFAMhUtwvPy9cEzbXFA
BAwswkAe58H8Dx5AvnEswg+QAcI5n/4/mdkrwpsR8MHOpdo/joFDwqsA4cHZ2O1A+3pAwi6p7sG1
uTBAEFotwhyj4sFj6qNAS4oqwjMH/MFb8aW/WawqwnOm6cEq+mq+2rYrwvzXBcLG4m0+BXxMwk8s
58Frk8ZAIh1MwglO28FxzadAgIBKwu9M6cGwZ6k/p4tMwqWt9MELmw9AZLhRwupU8MGn+pFAE5dU
wv6F48EvkZdA7a5PwuNV3cEkkixAeOZTwjtE6MGAgRVABxkxwiP458H1YudAumIwwirv8sEbucRA
1VlHwiLK38GfUeZAFQpCwoCq3sG2EwVB

> <OMEGA_E>
qqYHwQ==

> <OMEGA_NBR>
      9773

$$$$
CACHE3HI_1707_33
  -OEChem-03092622493D

 43 46  0     1  0  0  0  0  0999 V2000
  -42.0253  -30.9304    0.6391 C   0  0  0  0  0  0  0  0  0  0  0  0
  -41.7409  -30.4191    1.9078 C   0  0  0  0  0  0  0  0  0  0  0  0
  -43.3468  -31.0381    0.1822 C   0  0  0  0  0  0  0  0  0  0  0  0
  -42.7623  -29.9985    2.7654 C   0  0  0  0  0  0  0  0  0  0  0  0
  -47.8995  -34.3082    0.7302 C   0  0  0  0  0  0  0  0  0  0  0  0
  -48.6124  -33.9386   -0.4261 C   0  0  0  0  0  0  0  0  0  0  0  0
  -47.0620  -33.2461    0.9704 C   0  0  0  0  0  0  0  0  0  0  0  0
  -44.3891  -30.6196    1.0281 C   0  0  0  0  0  0  0  0  0  0  0  0
  -45.8058  -30.5652    0.9445 C   0  0  0  0  0  0  0  0  0  0  0  0
  -44.0649  -30.1171    2.2840 C   0  0  0  0  0  0  0  0  0  0  0  0
  -46.2438  -30.0405    2.1380 C   0  0  0  0  0  0  0  0  0  0  0  0
  -46.8827  -29.2773    6.2759 C   0  0  0  0  0  0  0  0  0  0  0  0
  -47.5961  -29.7467    2.6388 C   0  0  0  0  0  0  0  0  0  0  0  0
  -46.6152  -28.9129    4.8252 C   0  0  0  0  0  0  0  0  0  0  0  0
  -49.0494  -28.8758    4.4327 C   0  0  0  0  0  0  0  0  0  0  0  0
  -49.3007  -29.6552    5.7147 C   0  0  2  0  0  0  0  0  0  0  0  0
  -50.6064  -29.2226    6.3732 C   0  0  0  0  0  0  0  0  0  0  0  0
  -46.6412  -30.9876   -0.1967 C   0  0  0  0  0  0  0  0  0  0  0  0
  -48.2591  -32.7362   -0.8878 N   0  0  0  0  0  0  0  0  0  0  0  0
  -47.3146  -32.3405   -0.0176 N   0  0  0  0  0  0  0  0  0  0  0  0
  -48.1883  -29.5096    6.6425 N   0  0  0  0  0  0  0  0  0  0  0  0
  -47.7248  -29.2043    3.9217 N   0  0  0  0  0  0  0  0  0  0  0  0
  -45.9642  -29.2632    7.0978 O   0  0  0  0  0  0  0  0  0  0  0  0
  -48.5259  -29.9946    1.8729 O   0  0  0  0  0  0  0  0  0  0  0  0
  -45.1958  -29.7655    2.9578 O   0  0  0  0  0  0  0  0  0  0  0  0
  -41.2102  -31.2501   -0.0053 H   0  0  0  0  0  0  0  0  0  0  0  0
  -40.7067  -30.3472    2.2355 H   0  0  0  0  0  0  0  0  0  0  0  0
  -43.5507  -31.4377   -0.8066 H   0  0  0  0  0  0  0  0  0  0  0  0
  -42.5496  -29.6014    3.7508 H   0  0  0  0  0  0  0  0  0  0  0  0
  -47.9800  -35.2169    1.3083 H   0  0  0  0  0  0  0  0  0  0  0  0
  -49.3753  -34.4956   -0.9512 H   0  0  0  0  0  0  0  0  0  0  0  0
  -46.3254  -33.0639    1.7406 H   0  0  0  0  0  0  0  0  0  0  0  0
  -46.3629  -27.8548    4.7921 H   0  0  0  0  0  0  0  0  0  0  0  0
  -45.7604  -29.4979    4.4838 H   0  0  0  0  0  0  0  0  0  0  0  0
  -49.7742  -29.1556    3.6622 H   0  0  0  0  0  0  0  0  0  0  0  0
  -49.1529  -27.8027    4.6054 H   0  0  0  0  0  0  0  0  0  0  0  0
  -49.3709  -30.7230    5.4756 H   0  0  0  0  0  0  0  0  0  0  0  0
  -50.5614  -28.1636    6.6208 H   0  0  0  0  0  0  0  0  0  0  0  0
  -50.7675  -29.7957    7.2845 H   0  0  0  0  0  0  0  0  0  0  0  0
  -51.4385  -29.3948    5.6917 H   0  0  0  0  0  0  0  0  0  0  0  0
  -47.4279  -30.2372   -0.4190 H   0  0  0  0  0  0  0  0  0  0  0  0
  -46.0527  -31.0168   -1.1370 H   0  0  0  0  0  0  0  0  0  0  0  0
  -48.3913  -29.5850    7.6338 H   0  0  0  0  0  0  0  0  0  0  0  0
  1  2  1  0  0  0  0
  1  3  2  0  0  0  0
  2  4  2  0  0  0  0
  3  8  1  0  0  0  0
  4 10  1  0  0  0  0
  5  6  1  0  0  0  0
  5  7  2  0  0  0  0
  6 19  2  0  0  0  0
  7 20  1  0  0  0  0
  8  9  1  0  0  0  0
  8 10  2  0  0  0  0
  9 11  2  0  0  0  0
  9 18  1  0  0  0  0
 10 25  1  0  0  0  0
 11 13  1  0  0  0  0
 11 25  1  0  0  0  0
 12 14  1  0  0  0  0
 12 21  1  0  0  0  0
 12 23  2  0  0  0  0
 13 22  1  0  0  0  0
 13 24  2  0  0  0  0
 14 22  1  0  0  0  0
 15 16  1  0  0  0  0
 15 22  1  0  0  0  0
 16 17  1  0  0  0  0
 16 21  1  0  0  0  0
 18 20  1  0  0  0  0
 19 20  1  0  0  0  0
  1 26  1  0  0  0  0
  2 27  1  0  0  0  0
  3 28  1  0  0  0  0
  4 29  1  0  0  0  0
  5 30  1  0  0  0  0
  6 31  1  0  0  0  0
  7 32  1  0  0  0  0
 14 33  1  0  0  0  0
 14 34  1  0  0  0  0
 15 35  1  0  0  0  0
 15 36  1  0  0  0  0
 16 37  1  0  0  0  0
 17 38  1  0  0  0  0
 17 39  1  0  0  0  0
 17 40  1  0  0  0  0
 18 41  1  0  0  0  0
 18 42  1  0  0  0  0
 21 43  1  0  0  0  0
M  END
> <POSIT::Probability>
0.18

> <POSIT::Method>
FRED

> <ReceptorTitle>
UCSF-P4267-REFINED_LIGAND-BOUND-STATE_A__DU__LA1_A-201(A)

> <OMEGA_C>
3BkownZx98HwmSM/qfYmwlZa88FoNPQ/GGMtwhxO+MEglzo+nwwrwvz878GY/DBAC5k/wp87CcJA
7Do/IHNCwiPBB8JQKdq+hT88wgf8BML0bXg/eY4xwvb09MGEmIM/Kjk3wpSF9MHAy3E/d0IwwsTv
8MEpLRJAsPk4wvZS8MGZ1QhA2oc7ws836sFE1MhAYGI+wlL57cG74ihA7nU6wpdN58ExaJpAjzJE
wpQB58HB2I1A9DNFwug97cEs37ZA9WxKwtDH6cF/8ctAkpA6wprm98HAXkm+SglBwtrxAsLgRGO/
JEI9wp9cAcIA8I+82MBAwpAT7MG4j9RAMOY+wmKi6cF5/XpAS9s3wgYb6sEqIeNAhBpCwuj078Eq
vO8/iMg0wtMf7sEATD1AQ9ckwioA+sEA9qy7rtMiwhLH8sEnEg9A5DMuwmeA+8EYgE6/0DIqwq7P
7MHYDXBAh+s/whTeDMKUd6c/QoBFwn37CcJghHO/LU05wmRBBMJyzd4/kHM5wq7W3sFFWZlArQo3
wsj768Goe49A0BhHwsA+6cENYmpAnZxEwvZr3sFjX5NA1ntFwsnI9cE9OK9A5z5KwvpO4cFG3dNA
8RFLwqRd7sFoGulABsFNwn4o68FTIrZAJ7Y9wsbl8cFggta+/DU4wk4i+MEsiJG/qpBBwiKu7MF8
SPRA

> <OMEGA_E>
BhsbwQ==

> <OMEGA_NBR>
     11128

$$$$
CACHE3HI_1707_61
  -OEChem-03092622493D

 36 37  0     1  0  0  0  0  0999 V2000
  -50.9862  -29.8264    6.1087 C   0  0  0  0  0  0  0  0  0  0  0  0
  -49.8955  -29.6525    5.6375 C   0  0  0  0  0  0  0  0  0  0  0  0
  -47.0160  -31.1253    1.0393 C   0  0  0  0  0  0  0  0  0  0  0  0
  -46.6138  -30.3404   -0.0580 C   0  0  0  0  0  0  0  0  0  0  0  0
  -46.3414  -30.5896    2.1093 C   0  0  0  0  0  0  0  0  0  0  0  0
  -46.2105  -29.1878    5.8477 C   0  0  0  0  0  0  0  0  0  0  0  0
  -42.3182  -29.6777    2.2870 C   0  0  0  0  0  0  0  0  0  0  0  0
  -42.2872  -29.7613    3.8071 C   0  0  0  0  0  0  0  0  0  0  0  0
  -43.2599  -28.5805    1.7960 C   0  0  0  0  0  0  0  0  0  0  0  0
  -43.6797  -29.9438    4.4022 C   0  0  0  0  0  0  0  0  0  0  0  0
  -44.6788  -28.6381    2.3970 C   0  0  2  0  0  0  0  0  0  0  0  0
  -44.6473  -28.8543    3.9313 C   0  0  1  0  0  0  0  0  0  0  0  0
  -48.5672  -29.4404    5.0580 C   0  0  0  0  0  0  0  0  0  0  0  0
  -45.7513  -29.3795    0.2835 N   0  0  0  0  0  0  0  0  0  0  0  0
  -45.6053  -29.5568    1.6076 N   0  0  0  0  0  0  0  0  0  0  0  0
  -45.9669  -29.0634    4.4836 N   0  0  0  0  0  0  0  0  0  0  0  0
  -47.5659  -29.3811    6.0993 N   0  0  0  0  0  0  0  0  0  0  0  0
  -45.3423  -29.1333    6.7176 O   0  0  0  0  0  0  0  0  0  0  0  0
  -51.9542  -29.9808    6.5267 H   0  0  0  0  0  0  0  0  0  0  0  0
  -47.6982  -31.9624    1.0534 H   0  0  0  0  0  0  0  0  0  0  0  0
  -46.9139  -30.4285   -1.0924 H   0  0  0  0  0  0  0  0  0  0  0  0
  -46.3223  -30.8506    3.1584 H   0  0  0  0  0  0  0  0  0  0  0  0
  -41.3053  -29.4822    1.9111 H   0  0  0  0  0  0  0  0  0  0  0  0
  -42.6295  -30.6434    1.8702 H   0  0  0  0  0  0  0  0  0  0  0  0
  -41.6398  -30.5946    4.1148 H   0  0  0  0  0  0  0  0  0  0  0  0
  -41.8313  -28.8485    4.2149 H   0  0  0  0  0  0  0  0  0  0  0  0
  -42.8062  -27.5904    2.0189 H   0  0  0  0  0  0  0  0  0  0  0  0
  -43.3142  -28.6119    0.6858 H   0  0  0  0  0  0  0  0  0  0  0  0
  -44.0664  -30.9343    4.1488 H   0  0  0  0  0  0  0  0  0  0  0  0
  -43.6068  -29.9029    5.4932 H   0  0  0  0  0  0  0  0  0  0  0  0
  -45.1541  -27.6233    2.2077 H   0  0  0  0  0  0  0  0  0  0  0  0
  -44.3243  -27.8824    4.4046 H   0  0  0  0  0  0  0  0  0  0  0  0
  -48.3200  -30.2531    4.3670 H   0  0  0  0  0  0  0  0  0  0  0  0
  -48.5478  -28.5071    4.4860 H   0  0  0  0  0  0  0  0  0  0  0  0
  -46.7434  -29.1564    3.8372 H   0  0  0  0  0  0  0  0  0  0  0  0
  -47.8668  -29.4858    7.0635 H   0  0  0  0  0  0  0  0  0  0  0  0
  1  2  3  0  0  0  0
  2 13  1  0  0  0  0
  3  4  1  0  0  0  0
  3  5  2  0  0  0  0
  4 14  2  0  0  0  0
  5 15  1  0  0  0  0
  6 16  1  0  0  0  0
  6 17  1  0  0  0  0
  6 18  2  0  0  0  0
  7  8  1  0  0  0  0
  7  9  1  0  0  0  0
  8 10  1  0  0  0  0
  9 11  1  0  0  0  0
 10 12  1  0  0  0  0
 11 12  1  0  0  0  0
 11 15  1  0  0  0  0
 12 16  1  0  0  0  0
 13 17  1  0  0  0  0
 14 15  1  0  0  0  0
  1 19  1  0  0  0  0
  3 20  1  0  0  0  0
  4 21  1  0  0  0  0
  5 22  1  0  0  0  0
  7 23  1  0  0  0  0
  7 24  1  0  0  0  0
  8 25  1  0  0  0  0
  8 26  1  0  0  0  0
  9 27  1  0  0  0  0
  9 28  1  0  0  0  0
 10 29  1  0  0  0  0
 10 30  1  0  0  0  0
 11 31  1  0  0  0  0
 12 32  1  0  0  0  0
 13 33  1  0  0  0  0
 13 34  1  0  0  0  0
 16 35  1  0  0  0  0
 17 36  1  0  0  0  0
M  END
> <POSIT::Probability>
0.18

> <POSIT::Method>
HYBRID

> <ReceptorTitle>
UCSF-P4267-REFINED_LIGAND-BOUND-STATE_A__DU__LA1_A-201(A)

> <OMEGA_C>
3/FLwn6c7sFbesNAAJVHwkI47cE9ZrRAVxA8wq0A+cEoCIU/jHQ6wiG58sEAfW29i105wnO39MEz
/wZAitc4wpqA6cE+ILtA1kUpwvpr7cHeXRJADCYpwigX7sGfp3NALQotwtGk5MHu4+U/BLguwvGM
78Hg3oxADrcywuga5cHfaBlA2JYywojV5sECmntA1kRCwvSF68Ep26FAUgE3wkwJ68HQLJE+0ms2
wkh07MFYxs0/Jd43wsCB6MG4eY9AgUM+wngM68FQLcNAjl41wvQQ6cHi9tZAFtFPwrrY78HQ2tBA
+Mo+whCz/8Hq1oY/3ac7wqRt88Fm1Iu/E0o5wgrO9sHVI0pApDglwqLb68FenvQ/j4QqwrYl9cHW
Yu8/II8mws7B9MGGrINANlMnwrjJ5sG24IZAhTkrwie53MEFNgFAvkEtwhzl5MGsjS8/9UMwwnx5
98FPw4RAZG0uwgs578EwyK9Azp00wpv83MGHSw1AF0wxwisP38G28oxAtEdBwksG8sGavotA9zBC
wpgO5MHyjI9AOPk6wmhA6cHzlHVAm3c/wuPi68E2COJA

> <OMEGA_E>
eQztwA==

> <OMEGA_NBR>
     12345

$$$$
CACHE3HI_1708_13
  -OEChem-03092622493D

 35 37  0     1  0  0  0  0  0999 V2000
  -47.5972  -30.1366    0.6041 C   0  0  0  0  0  0  0  0  0  0  0  0
  -43.3135  -28.9173   -1.3020 C   0  0  0  0  0  0  0  0  0  0  0  0
  -46.8406  -29.7501   -0.4989 C   0  0  0  0  0  0  0  0  0  0  0  0
  -44.6744  -29.1333   -1.4624 C   0  0  0  0  0  0  0  0  0  0  0  0
  -46.9791  -30.2972    1.8380 C   0  0  0  0  0  0  0  0  0  0  0  0
  -48.2596  -29.3731    5.1681 C   0  0  0  0  0  0  0  0  0  0  0  0
  -42.7830  -29.1000   -0.0407 C   0  0  0  0  0  0  0  0  0  0  0  0
  -47.9699  -29.3183    6.5447 C   0  0  0  0  0  0  0  0  0  0  0  0
  -47.1148  -28.9199    4.5589 C   0  0  0  0  0  0  0  0  0  0  0  0
  -45.4599  -29.5229   -0.3687 C   0  0  0  0  0  0  0  0  0  0  0  0
  -44.8258  -29.6843    0.8807 C   0  0  0  0  0  0  0  0  0  0  0  0
  -45.6060  -30.0714    1.9663 C   0  0  0  0  0  0  0  0  0  0  0  0
  -44.8382  -28.1000    5.4148 C   0  0  0  0  0  0  0  0  0  0  0  0
  -43.8981  -29.4343    3.4940 C   0  0  0  0  0  0  0  0  0  0  0  0
  -43.8463  -29.1916    4.9999 C   0  0  2  0  0  0  0  0  0  0  0  0
  -43.5037  -29.4752    1.0399 N   0  0  0  0  0  0  0  0  0  0  0  0
  -46.7383  -28.8665    6.7952 N   0  0  0  0  0  0  0  0  0  0  0  0
  -46.2433  -28.6328    5.5679 N   0  0  0  0  0  0  0  0  0  0  0  0
  -44.2029  -30.4056    5.6644 O   0  0  0  0  0  0  0  0  0  0  0  0
  -45.0345  -30.2399    3.1964 O   0  0  0  0  0  0  0  0  0  0  0  0
  -48.6637  -30.3114    0.5001 H   0  0  0  0  0  0  0  0  0  0  0  0
  -42.6915  -28.6156   -2.1364 H   0  0  0  0  0  0  0  0  0  0  0  0
  -47.3346  -29.6277   -1.4603 H   0  0  0  0  0  0  0  0  0  0  0  0
  -45.1191  -28.9967   -2.4455 H   0  0  0  0  0  0  0  0  0  0  0  0
  -47.5681  -30.5986    2.7000 H   0  0  0  0  0  0  0  0  0  0  0  0
  -49.1701  -29.6949    4.6846 H   0  0  0  0  0  0  0  0  0  0  0  0
  -41.7252  -28.9452    0.1452 H   0  0  0  0  0  0  0  0  0  0  0  0
  -48.6053  -29.5894    7.3758 H   0  0  0  0  0  0  0  0  0  0  0  0
  -46.8542  -28.7796    3.5189 H   0  0  0  0  0  0  0  0  0  0  0  0
  -44.8413  -27.2879    4.6758 H   0  0  0  0  0  0  0  0  0  0  0  0
  -44.5354  -27.6505    6.3694 H   0  0  0  0  0  0  0  0  0  0  0  0
  -44.0001  -28.4924    2.9450 H   0  0  0  0  0  0  0  0  0  0  0  0
  -43.0057  -29.9655    3.1484 H   0  0  0  0  0  0  0  0  0  0  0  0
  -42.8238  -28.9397    5.3062 H   0  0  0  0  0  0  0  0  0  0  0  0
  -45.1035  -30.6180    5.3782 H   0  0  0  0  0  0  0  0  0  0  0  0
  1  3  1  0  0  0  0
  1  5  2  0  0  0  0
  2  4  2  0  0  0  0
  2  7  1  0  0  0  0
  3 10  2  0  0  0  0
  4 10  1  0  0  0  0
  5 12  1  0  0  0  0
  6  8  1  0  0  0  0
  6  9  2  0  0  0  0
  7 16  2  0  0  0  0
  8 17  2  0  0  0  0
  9 18  1  0  0  0  0
 10 11  1  0  0  0  0
 11 12  2  0  0  0  0
 11 16  1  0  0  0  0
 12 20  1  0  0  0  0
 13 15  1  0  0  0  0
 13 18  1  0  0  0  0
 14 15  1  0  0  0  0
 14 20  1  0  0  0  0
 15 19  1  0  0  0  0
 17 18  1  0  0  0  0
  1 21  1  0  0  0  0
  2 22  1  0  0  0  0
  3 23  1  0  0  0  0
  4 24  1  0  0  0  0
  5 25  1  0  0  0  0
  6 26  1  0  0  0  0
  7 27  1  0  0  0  0
  8 28  1  0  0  0  0
  9 29  1  0  0  0  0
 13 30  1  0  0  0  0
 13 31  1  0  0  0  0
 14 32  1  0  0  0  0
 14 33  1  0  0  0  0
 15 34  1  0  0  0  0
 19 35  1  0  0  0  0
M  END
> <POSIT::Probability>
0.18

> <POSIT::Method>
HYBRID

> <ReceptorTitle>
UCSF-P4267-REFINED_LIGAND-BOUND-STATE_A__DU__LA1_A-201(A)

> <OMEGA_C>
gmM+wtoX8cH0pBo//UAtwqJW58E6p6a/xlw7wkUA7sGgdf++nLIywhYR6cGMLru/neo7wphg8sGA
Qus/0wlBwgL86sFdYaVAySErwr3M6MHAiSa9OOE/wuqL6sFhbtFAlHU8wuBb58Fl4pFA5tY1wuou
7MFQyby+qU0zwoR57cFIdGE/l2w2wlSS8MG0r/s/RVozwsjM4MG9Ra1Aopcvwoh568GAnl9AmGIv
wnKI6cF2/59AyQMuwjLN68HkG4U/BvQ6wpXu5sF/ctlAI/k4wuQP5cGQLLJAxM8wwqs+88F6QrVA
SyM0wmjr8cGPkkxArKdCwrl98sFsCAA/HcQqwrTs5MGLuwjApFY9wpIF7cHE6bq/AHo0wkj558FE
gxzAyEU+wufJ9MFnzCxAOK5Ewg6P7cGJ6JVAk+Ymwq+P58EwqhQ+2GtCwhK37MG7BuxAsGo7wpI8
5sELNmFAil0zwptN2sEAoJVANSQywkU03cEy0stAIwAwwmPw48GwezxA0gUswka578G/fklAmEsr
wmyE58FjzKlA9Gk0wpzx9MEGGqxA

> <OMEGA_E>
ulObwA==

> <OMEGA_NBR>
     13541

$$$$
CACHE3HI_1708_18
  -OEChem-03092622493D

 40 42  0     1  0  0  0  0  0999 V2000
  -43.4864  -29.9918    0.1149 C   0  0  0  0  0  0  0  0  0  0  0  0
  -43.7274  -29.0897    1.1451 C   0  0  0  0  0  0  0  0  0  0  0  0
  -44.5197  -30.7968   -0.3606 C   0  0  0  0  0  0  0  0  0  0  0  0
  -45.0013  -28.9988    1.7073 C   0  0  0  0  0  0  0  0  0  0  0  0
  -44.2173  -29.2879    5.3287 C   0  0  0  0  0  0  0  0  0  0  0  0
  -44.3134  -29.3975    6.7289 C   0  0  0  0  0  0  0  0  0  0  0  0
  -45.4770  -28.9156    4.9268 C   0  0  0  0  0  0  0  0  0  0  0  0
  -45.8085  -30.7068    0.1890 C   0  0  0  0  0  0  0  0  0  0  0  0
  -46.0497  -29.8159    1.2534 C   0  0  0  0  0  0  0  0  0  0  0  0
  -46.8898  -31.6129   -0.3467 C   0  0  0  0  0  0  0  0  0  0  0  0
  -48.2967  -31.1525    0.0252 C   0  0  0  0  0  0  0  0  0  0  0  0
  -48.3663  -30.8331    1.5099 C   0  0  0  0  0  0  0  0  0  0  0  0
  -47.4295  -29.6743    1.8595 C   0  0  1  0  0  0  0  0  0  0  0  0
  -47.6815  -28.4500    6.1562 C   0  0  0  0  0  0  0  0  0  0  0  0
  -48.5054  -29.0134    3.8417 C   0  0  0  0  0  0  0  0  0  0  0  0
  -48.5728  -29.3764    5.3226 C   0  0  2  0  0  0  0  0  0  0  0  0
  -45.5369  -29.1173    7.1855 N   0  0  0  0  0  0  0  0  0  0  0  0
  -46.2218  -28.8280    6.0660 N   0  0  0  0  0  0  0  0  0  0  0  0
  -49.9238  -29.2237    5.7627 O   0  0  0  0  0  0  0  0  0  0  0  0
  -47.3364  -29.5908    3.2807 O   0  0  0  0  0  0  0  0  0  0  0  0
  -42.4945  -30.0679   -0.3210 H   0  0  0  0  0  0  0  0  0  0  0  0
  -42.9257  -28.4568    1.5139 H   0  0  0  0  0  0  0  0  0  0  0  0
  -44.3168  -31.4983   -1.1665 H   0  0  0  0  0  0  0  0  0  0  0  0
  -45.1751  -28.2820    2.5077 H   0  0  0  0  0  0  0  0  0  0  0  0
  -43.3564  -29.4558    4.6984 H   0  0  0  0  0  0  0  0  0  0  0  0
  -43.5425  -29.6696    7.4356 H   0  0  0  0  0  0  0  0  0  0  0  0
  -45.8959  -28.7124    3.9510 H   0  0  0  0  0  0  0  0  0  0  0  0
  -46.7958  -31.6425   -1.4383 H   0  0  0  0  0  0  0  0  0  0  0  0
  -46.7426  -32.6316    0.0276 H   0  0  0  0  0  0  0  0  0  0  0  0
  -48.5624  -30.2695   -0.5659 H   0  0  0  0  0  0  0  0  0  0  0  0
  -49.0232  -31.9356   -0.2238 H   0  0  0  0  0  0  0  0  0  0  0  0
  -49.3985  -30.5708    1.7775 H   0  0  0  0  0  0  0  0  0  0  0  0
  -48.0937  -31.7261    2.0859 H   0  0  0  0  0  0  0  0  0  0  0  0
  -47.8972  -28.7393    1.5021 H   0  0  0  0  0  0  0  0  0  0  0  0
  -47.9922  -28.4691    7.2092 H   0  0  0  0  0  0  0  0  0  0  0  0
  -47.7885  -27.4108    5.8192 H   0  0  0  0  0  0  0  0  0  0  0  0
  -49.3701  -29.4083    3.2981 H   0  0  0  0  0  0  0  0  0  0  0  0
  -48.4487  -27.9293    3.7026 H   0  0  0  0  0  0  0  0  0  0  0  0
  -48.2994  -30.4288    5.4656 H   0  0  0  0  0  0  0  0  0  0  0  0
  -50.1519  -28.2928    5.6232 H   0  0  0  0  0  0  0  0  0  0  0  0
  1  2  1  0  0  0  0
  1  3  2  0  0  0  0
  2  4  2  0  0  0  0
  3  8  1  0  0  0  0
  4  9  1  0  0  0  0
  5  6  1  0  0  0  0
  5  7  2  0  0  0  0
  6 17  2  0  0  0  0
  7 18  1  0  0  0  0
  8  9  2  0  0  0  0
  8 10  1  0  0  0  0
  9 13  1  0  0  0  0
 10 11  1  0  0  0  0
 11 12  1  0  0  0  0
 12 13  1  0  0  0  0
 13 20  1  0  0  0  0
 14 16  1  0  0  0  0
 14 18  1  0  0  0  0
 15 16  1  0  0  0  0
 15 20  1  0  0  0  0
 16 19  1  0  0  0  0
 17 18  1  0  0  0  0
  1 21  1  0  0  0  0
  2 22  1  0  0  0  0
  3 23  1  0  0  0  0
  4 24  1  0  0  0  0
  5 25  1  0  0  0  0
  6 26  1  0  0  0  0
  7 27  1  0  0  0  0
 10 28  1  0  0  0  0
 10 29  1  0  0  0  0
 11 30  1  0  0  0  0
 11 31  1  0  0  0  0
 12 32  1  0  0  0  0
 12 33  1  0  0  0  0
 13 34  1  0  0  0  0
 14 35  1  0  0  0  0
 14 36  1  0  0  0  0
 15 37  1  0  0  0  0
 15 38  1  0  0  0  0
 16 39  1  0  0  0  0
 19 40  1  0  0  0  0
M  END
> <POSIT::Probability>
0.18

> <POSIT::Method>
HYBRID

> <ReceptorTitle>
UCSF-P4267-REFINED_LIGAND-BOUND-STATE_A__DU__LA1_A-201(A)

> <OMEGA_C>
DPItwkLv78GAZ+s95eguwsa36MGkkZI/JRQywtlf9sEwm7i+UwE0wp/958GOido/d94wwrZN6sGp
hKpA+UAxwhQu68FQU9dAceg1wjJT58GmqJ1A8js3woyn9cHwgEE+2TI4wgaH7sEqbqA/M487wi3n
/MEwh7G+0y9Bwlw4+cEAQ848I3dBwj6q9sEQRME/2bc9wvtk7cF+Be4/0bk+wqGZ48Hy/8RAhgVC
wnob6MF93nVAhkpCws0C68GgUqpAzCU2wjnw6MGk7+VAGOM4ws6f5sERHcJAArJHwijK6cE+aLhA
gVg9wuS57MFe9lFAaPopwvqK8MGQW6S+57Mrwomn48GuxsE/b0QxwoP8+8GXT5W/VrM0wp9B4sGI
fiBAAG0twoul68GAWZZAeSsuwkVb7cHE8O1AY5U3wuyy5cFo3HxA2i47wsMj/cGvGLi/dvg6wrmG
AsKALeI82z9CwgIo8sHc3xC/zRdEwjF8/8GAIWW+E5hFwhaR9MEcheM/6V9AwhDP/cH0fgVAtJY/
wgrq5cE+RcA/Cvg/wrTA48GUseZAbyc/wkRJ28EcN7pA83pFwkVE68FTFFNAc8tBwh1v38EK+GxA
ojJBwhxu88EW5q5AjZtIwrdX4sED8bNA

> <OMEGA_E>
GirXwA==

> <OMEGA_NBR>
     14841

$$$$
CACHE3HI_1708_5
  -OEChem-03092622493D

 35 37  0     1  0  0  0  0  0999 V2000
  -42.9948  -31.5221    0.2583 C   0  0  0  0  0  0  0  0  0  0  0  0
  -43.8276  -30.7618   -0.5498 C   0  0  0  0  0  0  0  0  0  0  0  0
  -47.2307  -28.9660    1.1093 C   0  0  0  0  0  0  0  0  0  0  0  0
  -46.9617  -28.7864   -0.2419 C   0  0  0  0  0  0  0  0  0  0  0  0
  -43.6435  -29.5679    5.3963 C   0  0  0  0  0  0  0  0  0  0  0  0
  -43.3384  -31.6473    1.5894 C   0  0  0  0  0  0  0  0  0  0  0  0
  -43.8070  -29.5941    6.7943 C   0  0  0  0  0  0  0  0  0  0  0  0
  -44.8702  -29.1799    4.9151 C   0  0  0  0  0  0  0  0  0  0  0  0
  -44.9699  -30.1541   -0.0108 C   0  0  0  0  0  0  0  0  0  0  0  0
  -45.2371  -30.3409    1.3614 C   0  0  0  0  0  0  0  0  0  0  0  0
  -46.3716  -29.7376    1.8962 C   0  0  0  0  0  0  0  0  0  0  0  0
  -45.8335  -29.3786   -0.8031 C   0  0  0  0  0  0  0  0  0  0  0  0
  -47.1113  -28.5757    6.0108 C   0  0  0  0  0  0  0  0  0  0  0  0
  -47.8477  -29.2445    3.6948 C   0  0  0  0  0  0  0  0  0  0  0  0
  -47.9947  -29.5198    5.1888 C   0  0  2  0  0  0  0  0  0  0  0  0
  -44.4299  -31.0791    2.1493 N   0  0  0  0  0  0  0  0  0  0  0  0
  -45.0398  -29.2500    7.1761 N   0  0  0  0  0  0  0  0  0  0  0  0
  -45.6627  -29.0039    6.0111 N   0  0  0  0  0  0  0  0  0  0  0  0
  -49.3584  -29.2999    5.5552 O   0  0  0  0  0  0  0  0  0  0  0  0
  -46.6705  -29.8917    3.2212 O   0  0  0  0  0  0  0  0  0  0  0  0
  -45.5757  -29.1015   -2.4955 Cl  0  0  0  0  0  0  0  0  0  0  0  0
  -42.1076  -31.9991   -0.1413 H   0  0  0  0  0  0  0  0  0  0  0  0
  -43.5560  -30.6628   -1.5969 H   0  0  0  0  0  0  0  0  0  0  0  0
  -48.1108  -28.5042    1.5488 H   0  0  0  0  0  0  0  0  0  0  0  0
  -47.6395  -28.1836   -0.8406 H   0  0  0  0  0  0  0  0  0  0  0  0
  -42.7611  -29.7985    4.8179 H   0  0  0  0  0  0  0  0  0  0  0  0
  -42.7242  -32.2294    2.2685 H   0  0  0  0  0  0  0  0  0  0  0  0
  -43.0787  -29.8493    7.5508 H   0  0  0  0  0  0  0  0  0  0  0  0
  -45.2371  -29.0197    3.9107 H   0  0  0  0  0  0  0  0  0  0  0  0
  -47.4701  -28.5248    7.0473 H   0  0  0  0  0  0  0  0  0  0  0  0
  -47.1675  -27.5546    5.6118 H   0  0  0  0  0  0  0  0  0  0  0  0
  -48.6996  -29.6425    3.1337 H   0  0  0  0  0  0  0  0  0  0  0  0
  -47.7479  -28.1724    3.4984 H   0  0  0  0  0  0  0  0  0  0  0  0
  -47.7641  -30.5704    5.4030 H   0  0  0  0  0  0  0  0  0  0  0  0
  -49.5481  -28.3718    5.3534 H   0  0  0  0  0  0  0  0  0  0  0  0
  1  2  1  0  0  0  0
  1  6  2  0  0  0  0
  2  9  2  0  0  0  0
  3  4  1  0  0  0  0
  3 11  2  0  0  0  0
  4 12  2  0  0  0  0
  5  7  1  0  0  0  0
  5  8  2  0  0  0  0
  6 16  1  0  0  0  0
  7 17  2  0  0  0  0
  8 18  1  0  0  0  0
  9 10  1  0  0  0  0
  9 12  1  0  0  0  0
 10 11  1  0  0  0  0
 10 16  2  0  0  0  0
 11 20  1  0  0  0  0
 12 21  1  0  0  0  0
 13 15  1  0  0  0  0
 13 18  1  0  0  0  0
 14 15  1  0  0  0  0
 14 20  1  0  0  0  0
 15 19  1  0  0  0  0
 17 18  1  0  0  0  0
  1 22  1  0  0  0  0
  2 23  1  0  0  0  0
  3 24  1  0  0  0  0
  4 25  1  0  0  0  0
  5 26  1  0  0  0  0
  6 27  1  0  0  0  0
  7 28  1  0  0  0  0
  8 29  1  0  0  0  0
 13 30  1  0  0  0  0
 13 31  1  0  0  0  0
 14 32  1  0  0  0  0
 14 33  1  0  0  0  0
 15 34  1  0  0  0  0
 19 35  1  0  0  0  0
M  END
> <POSIT::Probability>
0.18

> <POSIT::Method>
HYBRID

> <ReceptorTitle>
UCSF-P4267-REFINED_LIGAND-BOUND-STATE_A__DU__LA1_A-201(A)

> <OMEGA_C>
tPorwkAt/MHgOYQ+eE8vwhYY9sH4wAy/MOw8wkq658HY/I0/vdg7wnpK5sFAr3e+8pIuwhuL7MGM
rqxAeVotwpYt/cFUcss/ZDovwrjA7MEla9lAInszwlpw6cGCSJ1AMuEzwpw78cEAPjC8v/I0wkC6
8sEAQq4/gXw5wrDm7cHAtvI/hlU3wmoH68HgmU2/+HE8whKb5MG+WMBABGQ/wr706cEYeGxAmPo/
wpwo7MFpCqZAPLgxwvSh+MGIjglAuSg0wvb/6cG6ouVAn6Y2wvoH6MHlWsBAC29Fwjpm6sFSxLFA
pK46wiwi78GqJ05AeU02wuzP6MGJtR/ALG4owhz+/8EAuRC+Wjkuwm9N9cEQaMy/bXFAwo8I5ME4
P8Y/4o4+wv134cHwMle/XgsrwmRj7sHxK5pAluUqwt7qAMKMLhFAmVAswnbL7sF9oPFAzvI0wmco
6MFESHpAbuE9wrQy5MFcg+FAgas8wtxv3MGNk7NAa8xCwvAj7cHwjkhAzf0+wg1h4cFq5l9AeA4/
wiOQ9MEH5axASjFGwoz54sHgTqtA

> <OMEGA_E>
3p6mwA==

> <OMEGA_NBR>
     16037

$$$$
CACHE3HI_1708_55
  -OEChem-03092622493D

 38 42  0     1  0  0  0  0  0999 V2000
  -51.5646  -29.8798    6.3180 C   0  0  0  0  0  0  0  0  0  0  0  0
  -51.4917  -29.9855    4.9161 C   0  0  0  0  0  0  0  0  0  0  0  0
  -47.4333  -29.3273    6.6627 C   0  0  0  0  0  0  0  0  0  0  0  0
  -45.5001  -29.1814    5.4492 C   0  0  0  0  0  0  0  0  0  0  0  0
  -50.2640  -29.6851    6.7150 C   0  0  0  0  0  0  0  0  0  0  0  0
  -48.1487  -29.5161    5.5005 C   0  0  0  0  0  0  0  0  0  0  0  0
  -46.2157  -29.3703    4.2869 C   0  0  0  0  0  0  0  0  0  0  0  0
  -43.7182  -31.0094    1.1826 C   0  0  0  0  0  0  0  0  0  0  0  0
  -45.1837  -30.0000   -0.3869 C   0  0  0  0  0  0  0  0  0  0  0  0
  -44.0938  -29.2069    2.9956 C   0  0  0  0  0  0  0  0  0  0  0  0
  -45.0522  -31.2700    0.4559 C   0  0  2  0  0  0  0  0  0  0  0  0
  -43.7979  -29.5017    1.5238 C   0  0  2  0  0  0  0  0  0  0  0  0
  -45.0941  -29.0736    0.8124 C   0  0  2  0  0  0  0  0  0  0  0  0
  -46.1602  -29.6062    1.8059 C   0  0  1  0  0  0  0  0  0  0  0  0
  -46.1974  -31.1154    1.4755 C   0  0  1  0  0  0  0  0  0  0  0  0
  -46.0964  -29.1567    6.6582 N   0  0  0  0  0  0  0  0  0  0  0  0
  -50.2441  -29.8674    4.4540 N   0  0  0  0  0  0  0  0  0  0  0  0
  -47.5524  -29.5408    4.2914 N   0  0  0  0  0  0  0  0  0  0  0  0
  -49.5204  -29.6857    5.5717 N   0  0  0  0  0  0  0  0  0  0  0  0
  -45.5414  -29.3824    3.1121 N   0  0  3  0  0  0  0  0  0  0  0  0
  -47.4341  -31.4510    0.8584 O   0  0  0  0  0  0  0  0  0  0  0  0
  -52.4372  -29.9365    6.9517 H   0  0  0  0  0  0  0  0  0  0  0  0
  -52.2953  -30.1445    4.2114 H   0  0  0  0  0  0  0  0  0  0  0  0
  -47.9010  -29.3054    7.6407 H   0  0  0  0  0  0  0  0  0  0  0  0
  -44.4249  -29.0432    5.4569 H   0  0  0  0  0  0  0  0  0  0  0  0
  -49.8229  -29.5507    7.6938 H   0  0  0  0  0  0  0  0  0  0  0  0
  -43.5807  -31.6477    2.0608 H   0  0  0  0  0  0  0  0  0  0  0  0
  -42.8804  -31.1883    0.4981 H   0  0  0  0  0  0  0  0  0  0  0  0
  -44.3602  -29.8662   -1.0959 H   0  0  0  0  0  0  0  0  0  0  0  0
  -46.1399  -29.9252   -0.9134 H   0  0  0  0  0  0  0  0  0  0  0  0
  -43.5442  -29.8753    3.6664 H   0  0  0  0  0  0  0  0  0  0  0  0
  -43.8344  -28.1698    3.2369 H   0  0  0  0  0  0  0  0  0  0  0  0
  -45.0836  -32.1962   -0.1218 H   0  0  0  0  0  0  0  0  0  0  0  0
  -42.9095  -28.9724    1.1658 H   0  0  0  0  0  0  0  0  0  0  0  0
  -45.1628  -28.0021    0.6110 H   0  0  0  0  0  0  0  0  0  0  0  0
  -47.1260  -29.1022    1.6911 H   0  0  0  0  0  0  0  0  0  0  0  0
  -46.0714  -31.7650    2.3483 H   0  0  0  0  0  0  0  0  0  0  0  0
  -48.1220  -31.3397    1.5338 H   0  0  0  0  0  0  0  0  0  0  0  0
  1  2  1  0  0  0  0
  1  5  2  0  0  0  0
  2 17  2  0  0  0  0
  3  6  1  0  0  0  0
  3 16  2  0  0  0  0
  4  7  2  0  0  0  0
  4 16  1  0  0  0  0
  5 19  1  0  0  0  0
  6 18  2  0  0  0  0
  6 19  1  0  0  0  0
  7 18  1  0  0  0  0
  7 20  1  0  0  0  0
  8 11  1  0  0  0  0
  8 12  1  0  0  0  0
  9 11  1  0  0  0  0
  9 13  1  0  0  0  0
 10 12  1  0  0  0  0
 10 20  1  0  0  0  0
 11 15  1  0  0  0  0
 12 13  1  0  0  0  0
 13 14  1  0  0  0  0
 14 15  1  0  0  0  0
 14 20  1  0  0  0  0
 15 21  1  0  0  0  0
 17 19  1  0  0  0  0
  1 22  1  0  0  0  0
  2 23  1  0  0  0  0
  3 24  1  0  0  0  0
  4 25  1  0  0  0  0
  5 26  1  0  0  0  0
  8 27  1  0  0  0  0
  8 28  1  0  0  0  0
  9 29  1  0  0  0  0
  9 30  1  0  0  0  0
 10 31  1  0  0  0  0
 10 32  1  0  0  0  0
 11 33  1  0  0  0  0
 12 34  1  0  0  0  0
 13 35  1  0  0  0  0
 14 36  1  0  0  0  0
 15 37  1  0  0  0  0
 21 38  1  0  0  0  0
M  END
> <POSIT::Probability>
0.14

> <POSIT::Method>
HYBRID

> <ReceptorTitle>
UCSF-P4267-REFINED_LIGAND-BOUND-STATE_A__DU__LA1_A-201(A)

> <OMEGA_C>
JEJOwu4J78EqLcpAePdNwjri78GIUJ1Aubs9wmee6sEVNdVAGgA2wpRz6cHCX65AVg5Jwhp77cFw
4dZASZhAwgkh7MHrA7BA4Nw4wnT26sFsLolAet8uwkYT+MG2X5c/H7w0wvD/78EuFca+B2AwwrWn
6cGgtz9AbzU0wvwo+sHoZ+k+CzEvwosD7MG8DMM/VWA0wsKW6ME0+08/FKQ4wpjZ7MEyJ+c/F8o4
wlzs+MGW3bw/vmI4wt9A6cFEENVA+/lIwl7w7sEkh45AtDU+woZT7MFsU4lA7hRGwj187cEAS7JA
Xio2wikP68FtLEdAirw9wpOb+8Fovls/vb9Rwgd+78ECdN5AXy5RwgEo8cFqw4ZAnZo/wnpx6sHy
gPRAJLMxwoFY6ME6n65ApkpHwuNn7MHeM/ZAp1Iuwmsu/cEf5ANAhoUrwquB+cG8A/8+2nAxwg/u
7sEQRYy/P484wtRm78FY1Gm/Qy0uwpAA78ESpmpAZlYvwslb4cG1KE9ApVU0wuvIAMJQefm9UKMr
wm3H58HqOJU/vKY0wl8E4MEAahw/BYE8wljR6MHOdtg/H0k4wr0e/sHlShZA83xAwrK3+sEEU8Q/

> <OMEGA_E>
Cn36wA==

> <OMEGA_NBR>
     17313

$$$$
CACHE3HI_1708_65
  -OEChem-03092622493D

 42 45  0     1  0  0  0  0  0999 V2000
  -50.8369  -29.5405    3.7060 C   0  0  0  0  0  0  0  0  0  0  0  0
  -49.4952  -29.3641    4.0253 C   0  0  0  0  0  0  0  0  0  0  0  0
  -51.7140  -29.8436    4.7355 C   0  0  0  0  0  0  0  0  0  0  0  0
  -50.0324  -29.7994    6.3009 C   0  0  0  0  0  0  0  0  0  0  0  0
  -45.5269  -28.9810    5.8762 C   0  0  0  0  0  0  0  0  0  0  0  0
  -49.0771  -29.4944    5.3449 C   0  0  0  0  0  0  0  0  0  0  0  0
  -46.5858  -29.0186    4.9494 C   0  0  0  0  0  0  0  0  0  0  0  0
  -47.6927  -29.3180    5.7058 C   0  0  0  0  0  0  0  0  0  0  0  0
  -41.2022  -31.2246    1.8366 C   0  0  0  0  0  0  0  0  0  0  0  0
  -41.9056  -30.6670    3.0788 C   0  0  0  0  0  0  0  0  0  0  0  0
  -42.2553  -31.2104    0.7254 C   0  0  0  0  0  0  0  0  0  0  0  0
  -44.5909  -30.4250    0.6341 C   0  0  0  0  0  0  0  0  0  0  0  0
  -45.5603  -29.4716    1.3561 C   0  0  0  0  0  0  0  0  0  0  0  0
  -44.2702  -29.6827    3.4111 C   0  0  0  0  0  0  0  0  0  0  0  0
  -43.3731  -30.6820    2.6898 C   0  0  1  0  0  0  0  0  0  0  0  0
  -46.5108  -28.7812    3.4684 C   0  0  0  0  0  0  0  0  0  0  0  0
  -51.3445  -29.9780    6.0290 N   0  0  0  0  0  0  0  0  0  0  0  0
  -45.9252  -29.2357    7.1253 N   0  0  0  0  0  0  0  0  0  0  0  0
  -47.2470  -29.4366    6.9894 N   0  0  0  0  0  0  0  0  0  0  0  0
  -43.2850  -30.3371    1.2703 N   0  0  1  0  0  0  0  0  0  0  0  0
  -45.6146  -29.7278    2.8076 N   0  0  1  0  0  0  0  0  0  0  0  0
  -51.1858  -29.4444    2.6843 H   0  0  0  0  0  0  0  0  0  0  0  0
  -48.7871  -29.1258    3.2352 H   0  0  0  0  0  0  0  0  0  0  0  0
  -52.7710  -29.9911    4.5396 H   0  0  0  0  0  0  0  0  0  0  0  0
  -49.7707  -29.9154    7.3489 H   0  0  0  0  0  0  0  0  0  0  0  0
  -44.4803  -28.7784    5.6964 H   0  0  0  0  0  0  0  0  0  0  0  0
  -40.3402  -30.5992    1.5795 H   0  0  0  0  0  0  0  0  0  0  0  0
  -40.8414  -32.2437    2.0130 H   0  0  0  0  0  0  0  0  0  0  0  0
  -41.7054  -31.2752    3.9665 H   0  0  0  0  0  0  0  0  0  0  0  0
  -41.5515  -29.6484    3.2801 H   0  0  0  0  0  0  0  0  0  0  0  0
  -41.8451  -30.8274   -0.2138 H   0  0  0  0  0  0  0  0  0  0  0  0
  -42.6291  -32.2277    0.5549 H   0  0  0  0  0  0  0  0  0  0  0  0
  -44.9836  -31.4497    0.6642 H   0  0  0  0  0  0  0  0  0  0  0  0
  -44.5180  -30.1295   -0.4187 H   0  0  0  0  0  0  0  0  0  0  0  0
  -45.2562  -28.4334    1.1632 H   0  0  0  0  0  0  0  0  0  0  0  0
  -46.5590  -29.6045    0.9229 H   0  0  0  0  0  0  0  0  0  0  0  0
  -44.3267  -29.9555    4.4718 H   0  0  0  0  0  0  0  0  0  0  0  0
  -43.8503  -28.6694    3.3532 H   0  0  0  0  0  0  0  0  0  0  0  0
  -43.7693  -31.7006    2.8221 H   0  0  0  0  0  0  0  0  0  0  0  0
  -47.5011  -28.8786    3.0113 H   0  0  0  0  0  0  0  0  0  0  0  0
  -46.1499  -27.7707    3.2504 H   0  0  0  0  0  0  0  0  0  0  0  0
  -47.7854  -29.6519    7.8196 H   0  0  0  0  0  0  0  0  0  0  0  0
  1  2  1  0  0  0  0
  1  3  2  0  0  0  0
  2  6  2  0  0  0  0
  3 17  1  0  0  0  0
  4  6  1  0  0  0  0
  4 17  2  0  0  0  0
  5  7  1  0  0  0  0
  5 18  2  0  0  0  0
  6  8  1  0  0  0  0
  7  8  2  0  0  0  0
  7 16  1  0  0  0  0
  8 19  1  0  0  0  0
  9 10  1  0  0  0  0
  9 11  1  0  0  0  0
 10 15  1  0  0  0  0
 11 20  1  0  0  0  0
 12 13  1  0  0  0  0
 12 20  1  0  0  0  0
 13 21  1  0  0  0  0
 14 15  1  0  0  0  0
 14 21  1  0  0  0  0
 15 20  1  0  0  0  0
 16 21  1  0  0  0  0
 18 19  1  0  0  0  0
  1 22  1  0  0  0  0
  2 23  1  0  0  0  0
  3 24  1  0  0  0  0
  4 25  1  0  0  0  0
  5 26  1  0  0  0  0
  9 27  1  0  0  0  0
  9 28  1  0  0  0  0
 10 29  1  0  0  0  0
 10 30  1  0  0  0  0
 11 31  1  0  0  0  0
 11 32  1  0  0  0  0
 12 33  1  0  0  0  0
 12 34  1  0  0  0  0
 13 35  1  0  0  0  0
 13 36  1  0  0  0  0
 14 37  1  0  0  0  0
 14 38  1  0  0  0  0
 15 39  1  0  0  0  0
 16 40  1  0  0  0  0
 16 41  1  0  0  0  0
 19 42  1  0  0  0  0
M  END
> <POSIT::Probability>
0.18

> <POSIT::Method>
FRED

> <ReceptorTitle>
UCSF-P4267-REFINED_LIGAND-BOUND-STATE_A__DU__LA1_A-201(A)

> <OMEGA_C>
BVlLwuBS7MEbL21AGftFwsbp6sHhzoBAJttOwsW/7sEciZdALSFIwjFl7sFMoclAfxs2whTZ58Eo
CrxA8k5EwnL068ESCatA4lc6wiYm6MFjYZ5AVsU+wkqL6sFRlrZAB88kwurL+cF9Fes/YZ8nwg1W
9cE4C0VAZwUpwv+u+cHitTk/GV0ywlNm88FuVCI/vz02wtnF68Fnla0/rBQxwid27cHwTlpAF34t
wr909cERJSxACgs6wv0/5sGV+V1AwmBNwunS78HY7cBAaLM3wsDi6cHZAuRA4/w8wih+68HkqN9A
0yMtwkmy8sGXl6I/TXU2wnzS7cE/rzNASL5MwguO68E9yytACiZDwq8B6cFFDk9AgRVTwtbt78Gc
RJFAJxVHwtZS78HaKetA2OsxwhY65sG4SLZAU1whwhzL9MEdLco/jl0jwov5AMJd1QBAYdImwp0z
+sEJ231AwjQmwvIv7cFP7VFAXWEnwn+e9sH27Vq+LoQqwjHpAMIaEA4/L+8zwvSY+8GiBio/ZRIy
wioJ8cE7Zta+ZAY1wqp348GB5JQ/bDw6wurV7MHqQ2w/kk4xwsOk78HCGI9AvWYvwtha5cHqmlZA
xBMvwsGa/cG/nTRAIgE+wmMH58HSuEBAd5k4wlkq3sFbBlBASCQ/wiU37cESOvpA

> <OMEGA_E>
XwElwQ==

> <OMEGA_NBR>
     18655

$$$$
CACHE3HI_1715_49
  -OEChem-03092622493D

 44 47  0     0  0  0  0  0  0999 V2000
  -46.7658  -31.5116   -2.8900 C   0  0  0  0  0  0  0  0  0  0  0  0
  -46.2550  -30.2437   -3.2169 C   0  0  0  0  0  0  0  0  0  0  0  0
  -48.0851  -28.9102    4.7126 C   0  0  0  0  0  0  0  0  0  0  0  0
  -46.7519  -31.9416   -1.5452 C   0  0  0  0  0  0  0  0  0  0  0  0
  -48.7413  -28.8282    5.9121 C   0  0  0  0  0  0  0  0  0  0  0  0
  -44.2439  -29.4724    6.2275 C   0  0  0  0  0  0  0  0  0  0  0  0
  -46.6462  -29.0661    5.0051 C   0  0  0  0  0  0  0  0  0  0  0  0
  -45.7418  -29.4401   -2.1792 C   0  0  0  0  0  0  0  0  0  0  0  0
  -46.5400  -29.1433    6.3972 C   0  0  0  0  0  0  0  0  0  0  0  0
  -45.4575  -29.1732    4.2364 C   0  0  0  0  0  0  0  0  0  0  0  0
  -45.7570  -29.9344   -0.8717 C   0  0  0  0  0  0  0  0  0  0  0  0
  -44.3718  -29.9078    2.1249 C   0  0  0  0  0  0  0  0  0  0  0  0
  -46.6342  -28.6385    2.0658 C   0  0  0  0  0  0  0  0  0  0  0  0
  -44.0434  -29.2903    0.7818 C   0  0  0  0  0  0  0  0  0  0  0  0
  -46.2453  -28.1091    0.6975 C   0  0  0  0  0  0  0  0  0  0  0  0
  -44.7891  -27.4022   -4.5947 C   0  0  0  0  0  0  0  0  0  0  0  0
  -45.7312  -27.3587   -3.3899 C   0  0  0  0  0  0  0  0  0  0  0  0
  -46.2540  -31.1561   -0.5608 N   0  0  0  0  0  0  0  0  0  0  0  0
  -45.3499  -29.3480    6.9937 N   0  0  0  0  0  0  0  0  0  0  0  0
  -44.2803  -29.3741    4.8810 N   0  0  0  0  0  0  0  0  0  0  0  0
  -47.8065  -28.9687    6.9293 N   0  0  0  0  0  0  0  0  0  0  0  0
  -45.4272  -29.0970    2.8382 N   0  0  0  0  0  0  0  0  0  0  0  0
  -45.3129  -29.0660    0.1016 N   0  0  0  0  0  0  0  0  0  0  0  0
  -45.1870  -28.1814   -2.3532 O   0  0  0  0  0  0  0  0  0  0  0  0
  -47.1661  -32.1522   -3.6619 H   0  0  0  0  0  0  0  0  0  0  0  0
  -46.2557  -29.8937   -4.2387 H   0  0  0  0  0  0  0  0  0  0  0  0
  -48.5371  -28.8684    3.7327 H   0  0  0  0  0  0  0  0  0  0  0  0
  -47.1461  -32.9160   -1.2968 H   0  0  0  0  0  0  0  0  0  0  0  0
  -49.8029  -28.6799    6.0441 H   0  0  0  0  0  0  0  0  0  0  0  0
  -43.2954  -29.6572    6.7098 H   0  0  0  0  0  0  0  0  0  0  0  0
  -44.7448  -30.9311    1.9709 H   0  0  0  0  0  0  0  0  0  0  0  0
  -43.4613  -29.9383    2.7413 H   0  0  0  0  0  0  0  0  0  0  0  0
  -47.1379  -27.8393    2.6294 H   0  0  0  0  0  0  0  0  0  0  0  0
  -47.3223  -29.4874    1.9392 H   0  0  0  0  0  0  0  0  0  0  0  0
  -43.5150  -28.3358    0.9225 H   0  0  0  0  0  0  0  0  0  0  0  0
  -43.4141  -29.9746    0.1938 H   0  0  0  0  0  0  0  0  0  0  0  0
  -47.1397  -28.0128    0.0644 H   0  0  0  0  0  0  0  0  0  0  0  0
  -45.7606  -27.1268    0.7993 H   0  0  0  0  0  0  0  0  0  0  0  0
  -45.1948  -26.7734   -5.4009 H   0  0  0  0  0  0  0  0  0  0  0  0
  -43.7987  -27.0255   -4.2993 H   0  0  0  0  0  0  0  0  0  0  0  0
  -44.6960  -28.4390   -4.9500 H   0  0  0  0  0  0  0  0  0  0  0  0
  -45.8249  -26.3234   -3.0303 H   0  0  0  0  0  0  0  0  0  0  0  0
  -46.7222  -27.7369   -3.6810 H   0  0  0  0  0  0  0  0  0  0  0  0
  -48.0177  -28.9470    7.9065 H   0  0  0  0  0  0  0  0  0  0  0  0
  1  2  2  0  0  0  0
  1  4  1  0  0  0  0
  2  8  1  0  0  0  0
  3  5  2  0  0  0  0
  3  7  1  0  0  0  0
  4 18  2  0  0  0  0
  5 21  1  0  0  0  0
  6 19  2  0  0  0  0
  6 20  1  0  0  0  0
  7  9  2  0  0  0  0
  7 10  1  0  0  0  0
  8 11  2  0  0  0  0
  8 24  1  0  0  0  0
  9 19  1  0  0  0  0
  9 21  1  0  0  0  0
 10 20  2  0  0  0  0
 10 22  1  0  0  0  0
 11 18  1  0  0  0  0
 11 23  1  0  0  0  0
 12 14  1  0  0  0  0
 12 22  1  0  0  0  0
 13 15  1  0  0  0  0
 13 22  1  0  0  0  0
 14 23  1  0  0  0  0
 15 23  1  0  0  0  0
 16 17  1  0  0  0  0
 17 24  1  0  0  0  0
  1 25  1  0  0  0  0
  2 26  1  0  0  0  0
  3 27  1  0  0  0  0
  4 28  1  0  0  0  0
  5 29  1  0  0  0  0
  6 30  1  0  0  0  0
 12 31  1  0  0  0  0
 12 32  1  0  0  0  0
 13 33  1  0  0  0  0
 13 34  1  0  0  0  0
 14 35  1  0  0  0  0
 14 36  1  0  0  0  0
 15 37  1  0  0  0  0
 15 38  1  0  0  0  0
 16 39  1  0  0  0  0
 16 40  1  0  0  0  0
 16 41  1  0  0  0  0
 17 42  1  0  0  0  0
 17 43  1  0  0  0  0
 21 44  1  0  0  0  0
M  END
> <POSIT::Probability>
0.9

> <POSIT::Method>
SHAPEFIT

> <ReceptorTitle>
UCSF-P4267-REFINED_LIGAND-BOUND-STATE_A__DU__LA1_A-201(A)

> <OMEGA_C>
OBA7wq4X/MFi9jjAHQU5whLz8cFk4k3AG1dAwgxI58GWzZZA+wE7wnOI/8E5ycW/DvdCwi6g5sFV
ML1AuvkwwnXH68G5R8dArJU6wlOH6MEaKqBAlvc2wlSF68GSdwvAAik6wm0l6cF2tcxAedQ1wqJi
6cGzkIdAOAc3wqt578HaKF+/w3wxwjFD78Hk/gdAeIk6wqwb5cG0NgRAaCwwwoFS6sGuIUg/KPs4
wmDf4MGekDI/BCgzwpw328GPB5PAtOw2wqTe2sG+9FjAGQQ5wrc/+cGCkw+/VGY1wsrI6sFZzN9A
AB8xwjn+6sEJMZxA1Tk/wu+/58G1vN1AarU1wp3G6MFQpTVAb0A1wh+H6MGQ/M89cr80wnlz4cFY
mxbAGqo8wuSbAML4W2rA3AU5wlcm78Eso4fACiZCwpHy5sHe425AkpU8wvOpA8KO/KW/IDZHwllw
5cFhacFAfy4twgZC7cHyttZAqPoywvhy98EVSPw/VNgtwpOB78GXcS9AK408ws623sGgRyhA/Uk9
wjTm68H8OPg/VA8uwsWv4sEVKGw/AKgtwuPL78HnZ0Y+BY88wkEa4MHX+YM95Ao3wsQD2cE+nUw/
gsc0wv8v1sGQ1KzA3TEvwio02MG7k4nAssgywh2D48E7Zp7Aukw3wlKW0sGM8EHAj+M6wkXl3cGM
lWvAGRJAwl2T58HwAf1A

> <OMEGA_E>
uDCjPg==

> <OMEGA_NBR>
     20056

$$$$
CACHE3HI_1715_8
  -OEChem-03092622493D

 30 33  0     0  0  0  0  0  0999 V2000
  -46.2119  -30.4348   -2.5729 C   0  0  0  0  0  0  0  0  0  0  0  0
  -48.0879  -28.9697    4.5691 C   0  0  0  0  0  0  0  0  0  0  0  0
  -46.4521  -31.5419   -1.6179 C   0  0  0  0  0  0  0  0  0  0  0  0
  -45.8137  -29.3525   -1.8362 C   0  0  0  0  0  0  0  0  0  0  0  0
  -48.7251  -28.8514    5.7805 C   0  0  0  0  0  0  0  0  0  0  0  0
  -44.2150  -29.4418    6.0019 C   0  0  0  0  0  0  0  0  0  0  0  0
  -46.6572  -29.1455    4.8461 C   0  0  0  0  0  0  0  0  0  0  0  0
  -46.5113  -29.1300    6.2370 C   0  0  0  0  0  0  0  0  0  0  0  0
  -45.5085  -29.3288    4.0427 C   0  0  0  0  0  0  0  0  0  0  0  0
  -46.5965  -28.9139    1.7730 C   0  0  0  0  0  0  0  0  0  0  0  0
  -44.5291  -29.4711    1.6995 C   0  0  0  0  0  0  0  0  0  0  0  0
  -45.5305  -28.9127    0.5984 C   0  0  0  0  0  0  0  0  0  0  0  0
  -46.2022  -31.1115   -0.3992 N   0  0  0  0  0  0  0  0  0  0  0  0
  -45.2971  -29.2792    6.8033 N   0  0  0  0  0  0  0  0  0  0  0  0
  -44.3021  -29.4718    4.6460 N   0  0  0  0  0  0  0  0  0  0  0  0
  -47.7705  -28.9497    6.7892 N   0  0  0  0  0  0  0  0  0  0  0  0
  -45.8322  -29.8106   -0.5415 N   0  0  0  0  0  0  0  0  0  0  0  0
  -45.5879  -29.4005    2.6478 N   0  0  0  0  0  0  0  0  0  0  0  0
  -46.3289  -30.4745   -3.6458 H   0  0  0  0  0  0  0  0  0  0  0  0
  -48.5529  -28.9390    3.5948 H   0  0  0  0  0  0  0  0  0  0  0  0
  -46.7784  -32.5379   -1.8787 H   0  0  0  0  0  0  0  0  0  0  0  0
  -45.5470  -28.3676   -2.1903 H   0  0  0  0  0  0  0  0  0  0  0  0
  -49.7855  -28.7069    5.9256 H   0  0  0  0  0  0  0  0  0  0  0  0
  -43.2435  -29.5519    6.4605 H   0  0  0  0  0  0  0  0  0  0  0  0
  -46.9833  -27.9182    2.0358 H   0  0  0  0  0  0  0  0  0  0  0  0
  -47.4380  -29.6059    1.6214 H   0  0  0  0  0  0  0  0  0  0  0  0
  -44.1607  -30.4891    1.5045 H   0  0  0  0  0  0  0  0  0  0  0  0
  -43.6783  -28.8089    1.9179 H   0  0  0  0  0  0  0  0  0  0  0  0
  -45.2660  -27.8905    0.2897 H   0  0  0  0  0  0  0  0  0  0  0  0
  -47.9645  -28.8978    7.7689 H   0  0  0  0  0  0  0  0  0  0  0  0
  1  3  1  0  0  0  0
  1  4  2  0  0  0  0
  2  5  2  0  0  0  0
  2  7  1  0  0  0  0
  3 13  2  0  0  0  0
  4 17  1  0  0  0  0
  5 16  1  0  0  0  0
  6 14  2  0  0  0  0
  6 15  1  0  0  0  0
  7  8  2  0  0  0  0
  7  9  1  0  0  0  0
  8 14  1  0  0  0  0
  8 16  1  0  0  0  0
  9 15  2  0  0  0  0
  9 18  1  0  0  0  0
 10 12  1  0  0  0  0
 10 18  1  0  0  0  0
 11 12  1  0  0  0  0
 11 18  1  0  0  0  0
 12 17  1  0  0  0  0
 13 17  1  0  0  0  0
  1 19  1  0  0  0  0
  2 20  1  0  0  0  0
  3 21  1  0  0  0  0
  4 22  1  0  0  0  0
  5 23  1  0  0  0  0
  6 24  1  0  0  0  0
 10 25  1  0  0  0  0
 10 26  1  0  0  0  0
 11 27  1  0  0  0  0
 11 28  1  0  0  0  0
 12 29  1  0  0  0  0
 16 30  1  0  0  0  0
M  END
> <POSIT::Probability>
0.99

> <POSIT::Method>
SHAPEFIT

> <ReceptorTitle>
UCSF-P4267-REFINED_LIGAND-BOUND-STATE_A__DU__LA1_A-201(A)

> <OMEGA_C>
CNk4wo1688GpqiTAAlpAwurB58EDNpJA8s45wuRV/MFsGM+/OEE3wtzR6sF4Ceu/e+ZCwrfP5sEV
+rhANdwwwrWI68GCD8BAAqE6wvUp6cEoE5tAlgs6wj8K6cFwlcdAvwg2wmeh6sEwXoFA0mI6wqRP
58FM8+I/wh0ywt3E68Eaidk/Mx82wh5N58GuLRk/Fs84wnPk+MECYcy+SDA1wrU76sFEtNlAYTUx
wlfG68EIrJRA+hQ/wu2Y58GFQdlAI1Q3wjB87sHVogq/Alo2wi8068E+dilAyVA5wr7L88FWVWnA
LjZCwhyD58FjEWZADB07ws8mAsLxefC/KzA2wunw4sFZLgzAVyRHwsCn5cF6nr1AVPkswldq7MGD
vM5A5u47woNY38FsSgJAi8A9wszY7MGAiM8/kKQwwq3p88HYkcA/lrYuwqd45sF3ffU/VhA1wskf
38G8UpQ+qds/wqYu58GXmvhA

> <OMEGA_E>
YFpXPQ==

> <OMEGA_NBR>
     21175

$$$$
CACHE3HI_1716_45
  -OEChem-03092622493D

 32 34  0     1  0  0  0  0  0999 V2000
  -48.0889  -28.8447    4.6749 C   0  0  0  0  0  0  0  0  0  0  0  0
  -48.7218  -28.7730    5.8903 C   0  0  0  0  0  0  0  0  0  0  0  0
  -44.2338  -29.5207    6.0811 C   0  0  0  0  0  0  0  0  0  0  0  0
  -46.6562  -29.0713    4.9333 C   0  0  0  0  0  0  0  0  0  0  0  0
  -46.5163  -29.1362    6.3248 C   0  0  0  0  0  0  0  0  0  0  0  0
  -45.5057  -29.2545    4.1186 C   0  0  0  0  0  0  0  0  0  0  0  0
  -45.6001  -30.2260   -0.7336 C   0  0  0  0  0  0  0  0  0  0  0  0
  -44.6653  -29.8635    1.7403 C   0  0  0  0  0  0  0  0  0  0  0  0
  -46.6753  -28.5950    1.9449 C   0  0  0  0  0  0  0  0  0  0  0  0
  -45.0078  -29.2763    0.3303 C   0  0  2  0  0  0  0  0  0  0  0  0
  -46.0707  -28.1997    0.6010 C   0  0  2  0  0  0  0  0  0  0  0  0
  -45.4237  -26.8010    0.6171 C   0  0  0  0  0  0  0  0  0  0  0  0
  -45.3123  -29.3555    6.8861 N   0  0  0  0  0  0  0  0  0  0  0  0
  -44.3126  -29.4850    4.7232 N   0  0  0  0  0  0  0  0  0  0  0  0
  -47.7704  -28.9496    6.8879 N   0  0  0  0  0  0  0  0  0  0  0  0
  -45.5573  -29.1562    2.7150 N   0  0  3  0  0  0  0  0  0  0  0  0
  -46.1734  -31.2586   -0.4111 O   0  0  0  0  0  0  0  0  0  0  0  0
  -45.6136  -29.7856   -2.0234 O   0  0  0  0  0  0  0  0  0  0  0  0
  -46.3271  -25.8772    1.0336 F   0  0  0  0  0  0  0  0  0  0  0  0
  -45.0493  -26.5054   -0.6561 F   0  0  0  0  0  0  0  0  0  0  0  0
  -44.3297  -26.7593    1.4292 F   0  0  0  0  0  0  0  0  0  0  0  0
  -48.5559  -28.7520    3.7055 H   0  0  0  0  0  0  0  0  0  0  0  0
  -49.7778  -28.6077    6.0450 H   0  0  0  0  0  0  0  0  0  0  0  0
  -43.2696  -29.6880    6.5379 H   0  0  0  0  0  0  0  0  0  0  0  0
  -44.8607  -30.9459    1.7605 H   0  0  0  0  0  0  0  0  0  0  0  0
  -43.6092  -29.6770    1.9850 H   0  0  0  0  0  0  0  0  0  0  0  0
  -47.0925  -27.7142    2.4551 H   0  0  0  0  0  0  0  0  0  0  0  0
  -47.4658  -29.3474    1.8069 H   0  0  0  0  0  0  0  0  0  0  0  0
  -44.1071  -28.7966   -0.0803 H   0  0  0  0  0  0  0  0  0  0  0  0
  -46.8436  -28.2390   -0.1807 H   0  0  0  0  0  0  0  0  0  0  0  0
  -47.9621  -28.9430    7.8693 H   0  0  0  0  0  0  0  0  0  0  0  0
  -46.1121  -30.3907   -2.5599 H   0  0  0  0  0  0  0  0  0  0  0  0
  1  2  2  0  0  0  0
  1  4  1  0  0  0  0
  2 15  1  0  0  0  0
  3 13  1  0  0  0  0
  3 14  2  0  0  0  0
  4  5  1  0  0  0  0
  4  6  2  0  0  0  0
  5 13  2  0  0  0  0
  5 15  1  0  0  0  0
  6 14  1  0  0  0  0
  6 16  1  0  0  0  0
  7 10  1  0  0  0  0
  7 17  2  0  0  0  0
  7 18  1  0  0  0  0
  8 10  1  0  0  0  0
  8 16  1  0  0  0  0
  9 11  1  0  0  0  0
  9 16  1  0  0  0  0
 10 11  1  0  0  0  0
 11 12  1  0  0  0  0
 12 19  1  0  0  0  0
 12 20  1  0  0  0  0
 12 21  1  0  0  0  0
  1 22  1  0  0  0  0
  2 23  1  0  0  0  0
  3 24  1  0  0  0  0
  8 25  1  0  0  0  0
  8 26  1  0  0  0  0
  9 27  1  0  0  0  0
  9 28  1  0  0  0  0
 10 29  1  0  0  0  0
 11 30  1  0  0  0  0
 15 31  1  0  0  0  0
 18 32  1  0  0  0  0
M  END
> <POSIT::Probability>
0.72

> <POSIT::Method>
SHAPEFIT

> <ReceptorTitle>
UCSF-P4267-REFINED_LIGAND-BOUND-STATE_A__DU__LA1_A-201(A)

> <OMEGA_C>
DltAwgrC5sEMmZVAHONCwhgv5sEXfbxAbe8wwlgq7MGHmMJA5586whiS6MEA3p1ArxA6wvIW6cGa
ZMpA1gU2wlAJ6sGwy4NAemY2wurO8cHYzju/Sakywozo7sGiw94/hbM6wobC5MFy8/g/Bgg0wtg1
6sHAHak+X0g4whCZ4cEc2xk/3rE1wn5o1sHA+R0/wj81wgjY6sE0W9xADkAxwkLh68GUJJdA6BQ/
wrCY58GOadxArzo2wvY/6cFqwi1Ak7E4wpwR+sGgfNK+UXQ2wtZI7sEWfwHA9E45wpgEz8F0TIQ/
eTI0whwL1MFI+Se/nlExwgoT1sFg77Y/QTlCwiYE5sGRJ21AcxxHwpnc5MHncMFAERQtwgKB7cHW
NtFAWHEzwiWR98H3V+E/128uwnFq7cGVE/4/r148wsa23cGGIB1A+tw9wmPH6sEJR+c/qW0wwohf
5sGZd6S93187worp4cFUATm+J9k/wkiL58GH0ftAx3I4wg4g88G01SPA

> <OMEGA_E>
8D8SPw==

> <OMEGA_NBR>
     22343

$$$$
CACHE3HI_1717_44
  -OEChem-03092622493D

 36 39  0     1  0  0  0  0  0999 V2000
  -45.0698  -27.2596   -1.1833 C   0  0  0  0  0  0  0  0  0  0  0  0
  -45.4877  -27.5531    0.1297 C   0  0  0  0  0  0  0  0  0  0  0  0
  -45.2375  -28.2118   -2.2081 C   0  0  0  0  0  0  0  0  0  0  0  0
  -46.5692  -31.1882   -0.5909 C   0  0  0  0  0  0  0  0  0  0  0  0
  -48.0131  -28.9865    4.5448 C   0  0  0  0  0  0  0  0  0  0  0  0
  -46.4708  -31.6384   -1.8870 C   0  0  0  0  0  0  0  0  0  0  0  0
  -48.7100  -28.8738    5.7228 C   0  0  0  0  0  0  0  0  0  0  0  0
  -44.2178  -29.3943    6.2076 C   0  0  0  0  0  0  0  0  0  0  0  0
  -46.1531  -29.7848   -0.5863 C   0  0  0  0  0  0  0  0  0  0  0  0
  -46.5840  -29.1354    4.8829 C   0  0  0  0  0  0  0  0  0  0  0  0
  -46.0625  -28.8062    0.4299 C   0  0  0  0  0  0  0  0  0  0  0  0
  -45.7712  -29.4747   -1.8981 C   0  0  0  0  0  0  0  0  0  0  0  0
  -46.5226  -29.1284    6.2856 C   0  0  0  0  0  0  0  0  0  0  0  0
  -45.3694  -29.2951    4.1495 C   0  0  0  0  0  0  0  0  0  0  0  0
  -43.9559  -29.6900    2.0952 C   0  0  0  0  0  0  0  0  0  0  0  0
  -46.4688  -29.1038    1.8574 C   0  0  0  0  0  0  0  0  0  0  0  0
  -45.3509  -29.2672    6.9311 N   0  0  0  0  0  0  0  0  0  0  0  0
  -44.2107  -29.4014    4.8535 N   0  0  0  0  0  0  0  0  0  0  0  0
  -46.0101  -30.5919   -2.6814 N   0  0  0  0  0  0  0  0  0  0  0  0
  -47.8086  -28.9658    6.7740 N   0  0  0  0  0  0  0  0  0  0  0  0
  -45.2904  -29.3954    2.7353 N   0  0  3  0  0  0  0  0  0  0  0  0
  -44.6201  -26.3029   -1.4046 H   0  0  0  0  0  0  0  0  0  0  0  0
  -45.3676  -26.8158    0.9097 H   0  0  0  0  0  0  0  0  0  0  0  0
  -44.9583  -27.9732   -3.2238 H   0  0  0  0  0  0  0  0  0  0  0  0
  -46.8932  -31.7631    0.2641 H   0  0  0  0  0  0  0  0  0  0  0  0
  -48.4346  -28.9692    3.5506 H   0  0  0  0  0  0  0  0  0  0  0  0
  -46.7102  -32.6342   -2.2299 H   0  0  0  0  0  0  0  0  0  0  0  0
  -49.7773  -28.7370    5.8153 H   0  0  0  0  0  0  0  0  0  0  0  0
  -43.2783  -29.4945    6.7307 H   0  0  0  0  0  0  0  0  0  0  0  0
  -44.0743  -29.7332    1.0024 H   0  0  0  0  0  0  0  0  0  0  0  0
  -43.2412  -28.8953    2.3553 H   0  0  0  0  0  0  0  0  0  0  0  0
  -43.5790  -30.6564    2.4614 H   0  0  0  0  0  0  0  0  0  0  0  0
  -47.0040  -28.2320    2.2618 H   0  0  0  0  0  0  0  0  0  0  0  0
  -47.1368  -29.9777    1.8601 H   0  0  0  0  0  0  0  0  0  0  0  0
  -45.8721  -30.6398   -3.6706 H   0  0  0  0  0  0  0  0  0  0  0  0
  -48.0520  -28.9213    7.7429 H   0  0  0  0  0  0  0  0  0  0  0  0
  1  2  2  0  0  0  0
  1  3  1  0  0  0  0
  2 11  1  0  0  0  0
  3 12  2  0  0  0  0
  4  6  2  0  0  0  0
  4  9  1  0  0  0  0
  5  7  2  0  0  0  0
  5 10  1  0  0  0  0
  6 19  1  0  0  0  0
  7 20  1  0  0  0  0
  8 17  2  0  0  0  0
  8 18  1  0  0  0  0
  9 11  2  0  0  0  0
  9 12  1  0  0  0  0
 10 13  2  0  0  0  0
 10 14  1  0  0  0  0
 11 16  1  0  0  0  0
 12 19  1  0  0  0  0
 13 17  1  0  0  0  0
 13 20  1  0  0  0  0
 14 18  2  0  0  0  0
 14 21  1  0  0  0  0
 15 21  1  0  0  0  0
 16 21  1  0  0  0  0
  1 22  1  0  0  0  0
  2 23  1  0  0  0  0
  3 24  1  0  0  0  0
  4 25  1  0  0  0  0
  5 26  1  0  0  0  0
  6 27  1  0  0  0  0
  7 28  1  0  0  0  0
  8 29  1  0  0  0  0
 15 30  1  0  0  0  0
 15 31  1  0  0  0  0
 15 32  1  0  0  0  0
 16 33  1  0  0  0  0
 16 34  1  0  0  0  0
 19 35  1  0  0  0  0
 20 36  1  0  0  0  0
M  END
> <POSIT::Probability>
0.72

> <POSIT::Method>
SHAPEFIT

> <ReceptorTitle>
UCSF-P4267-REFINED_LIGAND-BOUND-STATE_A__DU__LA1_A-201(A)

> <OMEGA_C>
hEc0wp0T2sGCdZe/aPM1wrBs3MGwxgQ+P/M0wrWx4cE1Ug3A4kY6wniB+cFsRhe/dQ1Awkfk58FK
b5FAGuI5woQb/cG+h/G/BtdCwpf95sHiILdADt8wwpsn68HUpMZAyZw4wi5H7sH0Gha/AVY6wkoV
6cGiQJxA/D84wixz5sFgFdw+sRU3wjvM68Ea9fK/GRc6wvcG6cHSI8lAOHo1wkpc6sEMyYRAy9Iv
wi6F7cH8FgZAEOA5wofU6MGUvu0/Rmc1wkwj6sEuy91Ay9cwwgw268F8T5tAUgo4wkq89MFXmyvA
+zs/wgu658G4xNhAZCk1wuAp68F2Dy9AAHsywm5s0sFVy7O/bXg1wsyG1sFa4Wg/VtUzwivJ38GQ
Uk7AmJI7wtMa/sH5MYc+EL1Bwu3A58F5PWNANNc6wmKJAsI2tw7A7htHwlvl5cHsFrpA8Rwtws70
68GlYddAGUwwwond7cGxToA/9PYswp4p58G3vBZA3VAuwj5A9cHXhx1ADgQ8wg3b4cFEwRBAFow8
wl3S78FdGO4/CH03wjse9cG162rAQTVAwsle58HlxfdA

> <OMEGA_E>
KL4IPw==

> <OMEGA_NBR>
     23590

$$$$
CACHE3HI_1717_47
  -OEChem-03092622493D

 38 40  0     1  0  0  0  0  0999 V2000
  -45.5231  -29.9106   -2.4228 C   0  0  0  0  0  0  0  0  0  0  0  0
  -45.8567  -29.3545   -1.1021 C   0  0  0  0  0  0  0  0  0  0  0  0
  -48.1266  -28.8593    4.6874 C   0  0  0  0  0  0  0  0  0  0  0  0
  -48.7267  -28.7711    5.9175 C   0  0  0  0  0  0  0  0  0  0  0  0
  -45.9020  -31.2227   -2.5521 C   0  0  0  0  0  0  0  0  0  0  0  0
  -44.2487  -29.5256    6.0513 C   0  0  0  0  0  0  0  0  0  0  0  0
  -46.6763  -29.0430    4.9057 C   0  0  0  0  0  0  0  0  0  0  0  0
  -46.4700  -30.2725   -0.2693 C   0  0  0  0  0  0  0  0  0  0  0  0
  -46.5239  -29.1637    6.2989 C   0  0  0  0  0  0  0  0  0  0  0  0
  -45.5031  -29.0932    4.0902 C   0  0  0  0  0  0  0  0  0  0  0  0
  -42.9954  -30.6846    0.5868 C   0  0  0  0  0  0  0  0  0  0  0  0
  -47.0343  -30.0415    1.1371 C   0  0  0  0  0  0  0  0  0  0  0  0
  -43.6332  -30.3512    1.9339 C   0  0  0  0  0  0  0  0  0  0  0  0
  -46.6379  -28.6898    1.7942 C   0  0  0  0  0  0  0  0  0  0  0  0
  -44.1342  -28.8906    1.9845 C   0  0  0  0  0  0  0  0  0  0  0  0
  -45.3243  -29.4061    6.8544 N   0  0  0  0  0  0  0  0  0  0  0  0
  -44.3158  -29.3440    4.7117 N   0  0  0  0  0  0  0  0  0  0  0  0
  -47.7568  -28.9518    6.8901 N   0  0  0  0  0  0  0  0  0  0  0  0
  -45.4501  -28.8196    2.6877 N   0  0  3  0  0  0  0  0  0  0  0  0
  -46.6323  -31.8142   -1.0835 S   0  0  0  0  0  0  0  0  0  0  0  0
  -45.0340  -29.3479   -3.2041 H   0  0  0  0  0  0  0  0  0  0  0  0
  -45.6448  -28.3356   -0.8132 H   0  0  0  0  0  0  0  0  0  0  0  0
  -48.6246  -28.8044    3.7306 H   0  0  0  0  0  0  0  0  0  0  0  0
  -49.7763  -28.5915    6.0973 H   0  0  0  0  0  0  0  0  0  0  0  0
  -45.7658  -31.8122   -3.4467 H   0  0  0  0  0  0  0  0  0  0  0  0
  -43.2959  -29.7762    6.4939 H   0  0  0  0  0  0  0  0  0  0  0  0
  -42.6529  -31.7299    0.5914 H   0  0  0  0  0  0  0  0  0  0  0  0
  -43.7365  -30.5453   -0.2141 H   0  0  0  0  0  0  0  0  0  0  0  0
  -42.1375  -30.0186    0.4126 H   0  0  0  0  0  0  0  0  0  0  0  0
  -48.1318  -30.0806    1.0743 H   0  0  0  0  0  0  0  0  0  0  0  0
  -46.6750  -30.8538    1.7858 H   0  0  0  0  0  0  0  0  0  0  0  0
  -44.4855  -31.0261    2.1014 H   0  0  0  0  0  0  0  0  0  0  0  0
  -42.8866  -30.4994    2.7280 H   0  0  0  0  0  0  0  0  0  0  0  0
  -46.4051  -27.9654    0.9998 H   0  0  0  0  0  0  0  0  0  0  0  0
  -47.4882  -28.3226    2.3877 H   0  0  0  0  0  0  0  0  0  0  0  0
  -43.4005  -28.2734    2.5237 H   0  0  0  0  0  0  0  0  0  0  0  0
  -44.2497  -28.5106    0.9587 H   0  0  0  0  0  0  0  0  0  0  0  0
  -47.9235  -28.9320    7.8760 H   0  0  0  0  0  0  0  0  0  0  0  0
  1  2  1  0  0  0  0
  1  5  2  0  0  0  0
  2  8  2  0  0  0  0
  3  4  2  0  0  0  0
  3  7  1  0  0  0  0
  4 18  1  0  0  0  0
  5 20  1  0  0  0  0
  6 16  2  0  0  0  0
  6 17  1  0  0  0  0
  7  9  2  0  0  0  0
  7 10  1  0  0  0  0
  8 12  1  0  0  0  0
  8 20  1  0  0  0  0
  9 16  1  0  0  0  0
  9 18  1  0  0  0  0
 10 17  2  0  0  0  0
 10 19  1  0  0  0  0
 11 13  1  0  0  0  0
 12 14  1  0  0  0  0
 13 15  1  0  0  0  0
 14 19  1  0  0  0  0
 15 19  1  0  0  0  0
  1 21  1  0  0  0  0
  2 22  1  0  0  0  0
  3 23  1  0  0  0  0
  4 24  1  0  0  0  0
  5 25  1  0  0  0  0
  6 26  1  0  0  0  0
 11 27  1  0  0  0  0
 11 28  1  0  0  0  0
 11 29  1  0  0  0  0
 12 30  1  0  0  0  0
 12 31  1  0  0  0  0
 13 32  1  0  0  0  0
 13 33  1  0  0  0  0
 14 34  1  0  0  0  0
 14 35  1  0  0  0  0
 15 36  1  0  0  0  0
 15 37  1  0  0  0  0
 18 38  1  0  0  0  0
M  END
> <POSIT::Probability>
0.83

> <POSIT::Method>
SHAPEFIT

> <ReceptorTitle>
UCSF-P4267-REFINED_LIGAND-BOUND-STATE_A__DU__LA1_A-201(A)

> <OMEGA_C>
sxc2wtlI78FuDhvATW03wvjV6sGEEo2/pIFAwuTf5sEe/5VAHehCwk0r5sFFXL1AqJs3wgvI+cE8
ViPAof4wwoY07MGdpMFAjLQ6wg1Y6MEf+5xATuE5wiMu8sHM54m+cxg6wkZP6cH3kMlAIgM2wva+
6MGE4oJAT/srwiZ69cEsOhY/IyM8wulU8MFKi5E/bIguwj3P8sEyi/c/OI06wrWE5cG/qeU/cYkw
wu0f58HOAv4/G0w1wqQ/68FeV9tAaEMxwpLA6sFCxpZA8AY/wlSd58EafNxA8sw1wnGO5sGqAyxA
c4c6woqD/sGAr4q/yiI0wnrI6sEFEE3ARZQ2wmmv4sETL1C/kX9CwmVv5sGRwm5A+RpHwl275MEZ
HcNAIxA3wlx//sFml1zAAC8two817sFhzs9Ah5wqwufW/cEzaRc/IfIuws1c9MHJOFu+2Iwowv8l
8MHgOdM+/IZAwhil8MGFgYk/KLM6wqjU9sFIluQ/KfExwo41+ME7fQZA4IsrwsD+88EEmC5A3p45
wiO538Hz9X8/4fM9wpuU4sFH0BhAG5otwv8v4sEghCFArv8wwqkV5MEDa3U/pbE/wrR058HWB/xA

> <OMEGA_E>
KBjyPg==

> <OMEGA_NBR>
     24872

$$$$
CACHE3HI_1717_84
  -OEChem-03092622493D

 44 47  0     1  0  0  0  0  0999 V2000
  -46.1314  -29.2129   -2.0749 C   0  0  0  0  0  0  0  0  0  0  0  0
  -49.2231  -31.3462    1.2959 C   0  0  0  0  0  0  0  0  0  0  0  0
  -46.6972  -30.4730   -2.3228 C   0  0  0  0  0  0  0  0  0  0  0  0
  -49.8917  -30.9268    0.1305 C   0  0  0  0  0  0  0  0  0  0  0  0
  -48.2969  -30.4909    1.9140 C   0  0  0  0  0  0  0  0  0  0  0  0
  -45.4930  -28.9884   -0.8420 C   0  0  0  0  0  0  0  0  0  0  0  0
  -48.2529  -28.8411    4.7274 C   0  0  0  0  0  0  0  0  0  0  0  0
  -48.7271  -28.7829    0.2199 C   0  0  0  0  0  0  0  0  0  0  0  0
  -46.6168  -31.4671   -1.3257 C   0  0  0  0  0  0  0  0  0  0  0  0
  -48.7558  -28.7556    5.9991 C   0  0  0  0  0  0  0  0  0  0  0  0
  -44.2795  -29.5551    5.7443 C   0  0  0  0  0  0  0  0  0  0  0  0
  -46.7954  -29.0810    4.8282 C   0  0  0  0  0  0  0  0  0  0  0  0
  -49.6325  -29.6503   -0.4173 C   0  0  0  0  0  0  0  0  0  0  0  0
  -48.0372  -29.2052    1.3673 C   0  0  0  0  0  0  0  0  0  0  0  0
  -45.4401  -30.0223    0.1269 C   0  0  0  0  0  0  0  0  0  0  0  0
  -46.5212  -29.1404    6.2009 C   0  0  0  0  0  0  0  0  0  0  0  0
  -45.7164  -29.2555    3.9017 C   0  0  0  0  0  0  0  0  0  0  0  0
  -50.3611  -29.1863   -1.6586 C   0  0  0  0  0  0  0  0  0  0  0  0
  -46.9655  -28.2991    1.9399 C   0  0  0  0  0  0  0  0  0  0  0  0
  -44.8581  -29.7257    1.5267 C   0  0  0  0  0  0  0  0  0  0  0  0
  -46.0041  -31.2351   -0.1340 N   0  0  0  0  0  0  0  0  0  0  0  0
  -45.2725  -29.3666    6.6453 N   0  0  0  0  0  0  0  0  0  0  0  0
  -44.4800  -29.5106    4.4010 N   0  0  0  0  0  0  0  0  0  0  0  0
  -47.7074  -28.9300    6.8899 N   0  0  0  0  0  0  0  0  0  0  0  0
  -45.8628  -29.1210    2.4951 N   0  0  3  0  0  0  0  0  0  0  0  0
  -46.1853  -28.4301   -2.8170 H   0  0  0  0  0  0  0  0  0  0  0  0
  -49.4218  -32.3223    1.7132 H   0  0  0  0  0  0  0  0  0  0  0  0
  -47.1868  -30.6784   -3.2633 H   0  0  0  0  0  0  0  0  0  0  0  0
  -50.6050  -31.5826   -0.3465 H   0  0  0  0  0  0  0  0  0  0  0  0
  -47.7806  -30.8108    2.8070 H   0  0  0  0  0  0  0  0  0  0  0  0
  -45.0432  -28.0289   -0.6334 H   0  0  0  0  0  0  0  0  0  0  0  0
  -48.8198  -28.7497    3.8127 H   0  0  0  0  0  0  0  0  0  0  0  0
  -48.5624  -27.7909   -0.1740 H   0  0  0  0  0  0  0  0  0  0  0  0
  -47.0530  -32.4372   -1.5133 H   0  0  0  0  0  0  0  0  0  0  0  0
  -49.7889  -28.5824    6.2619 H   0  0  0  0  0  0  0  0  0  0  0  0
  -43.2821  -29.7498    6.1101 H   0  0  0  0  0  0  0  0  0  0  0  0
  -51.2972  -28.6863   -1.3696 H   0  0  0  0  0  0  0  0  0  0  0  0
  -49.7256  -28.4815   -2.2148 H   0  0  0  0  0  0  0  0  0  0  0  0
  -50.5903  -30.0539   -2.2949 H   0  0  0  0  0  0  0  0  0  0  0  0
  -46.5727  -27.6489    1.1443 H   0  0  0  0  0  0  0  0  0  0  0  0
  -47.3987  -27.6798    2.7392 H   0  0  0  0  0  0  0  0  0  0  0  0
  -44.4882  -30.6688    1.9551 H   0  0  0  0  0  0  0  0  0  0  0  0
  -44.0207  -29.0218    1.4117 H   0  0  0  0  0  0  0  0  0  0  0  0
  -47.7938  -28.9073    7.8859 H   0  0  0  0  0  0  0  0  0  0  0  0
  1  3  1  0  0  0  0
  1  6  2  0  0  0  0
  2  4  2  0  0  0  0
  2  5  1  0  0  0  0
  3  9  2  0  0  0  0
  4 13  1  0  0  0  0
  5 14  2  0  0  0  0
  6 15  1  0  0  0  0
  7 10  2  0  0  0  0
  7 12  1  0  0  0  0
  8 13  2  0  0  0  0
  8 14  1  0  0  0  0
  9 21  1  0  0  0  0
 10 24  1  0  0  0  0
 11 22  2  0  0  0  0
 11 23  1  0  0  0  0
 12 16  2  0  0  0  0
 12 17  1  0  0  0  0
 13 18  1  0  0  0  0
 14 19  1  0  0  0  0
 15 20  1  0  0  0  0
 15 21  2  0  0  0  0
 16 22  1  0  0  0  0
 16 24  1  0  0  0  0
 17 23  2  0  0  0  0
 17 25  1  0  0  0  0
 19 25  1  0  0  0  0
 20 25  1  0  0  0  0
  1 26  1  0  0  0  0
  2 27  1  0  0  0  0
  3 28  1  0  0  0  0
  4 29  1  0  0  0  0
  5 30  1  0  0  0  0
  6 31  1  0  0  0  0
  7 32  1  0  0  0  0
  8 33  1  0  0  0  0
  9 34  1  0  0  0  0
 10 35  1  0  0  0  0
 11 36  1  0  0  0  0
 18 37  1  0  0  0  0
 18 38  1  0  0  0  0
 18 39  1  0  0  0  0
 19 40  1  0  0  0  0
 19 41  1  0  0  0  0
 20 42  1  0  0  0  0
 20 43  1  0  0  0  0
 24 44  1  0  0  0  0
M  END
> <POSIT::Probability>
0.85

> <POSIT::Method>
SHAPEFIT

> <ReceptorTitle>
UCSF-P4267-REFINED_LIGAND-BOUND-STATE_A__DU__LA1_A-201(A)

> <OMEGA_C>
lYY4wv2z6cHnygTAbOREwhbF+sGc4aU/4sk6wqnI88GIqRTAEZFHwgVq98G4mQU++y9Bwlbt88Hy
/fQ/1vg1wiXo58Hhjle/AwNBwqm65sHwRpdAh+hCwnND5sFoI2E+onc6wqi8+8HOsKm/7wVDwmkL
5sFc+L9ALB4xwttw7MGG0bdAci47wvWl6MHogJpAoYdGws0z7cHcqdW+ECZAwlqk6cEOAq8/tMI1
wpot8MEA/QE+uRU6wnUf6cHKbcZAkd02wkgL6sH9tHlAwnFJwqR96cHFTdS/udw7wphk4sEuTfg/
vm4zwiXO7cGaacM/LgQ4wnTh+cHoNgm+EBc1wtHu6sEyptRAfesxwpwV7MEk1YxAa9Q+woxw58Ho
edxAdXM3ws336MG9rx9Awr04wtdw48HFSTTA4a9FwhVKAcIgS9s/Qb88wl9t9cEV2lDAfGtKwhWp
/MFQbrG+VB8/wpt89sFcpjNAQSw0wiw74MHWJSK/hUdDwnD/5cGJA3RA5j9CwrpT3sEfKDK+OTY8
wq2/AcJOssG/2CdHwtGo5MG6YchA6CAtwqP/7cFAhsNAXzBNwn595cGGTa+/AudGwgza48GRvg3A
d1xKwmFu8MFZ3xLAZko6wu4w3cHYeZI/PJg9wkRw3cFATi9A6/MxwsBZ9cFnQfo/MhUwwpAs6MED
s7Q/2Cw/wj1C58E0WfxA

> <OMEGA_E>
rCYtPw==

> <OMEGA_NBR>
     26278

$$$$
CACHE3HI_1717_86
  -OEChem-03092622493D

 27 29  0     0  0  0  0  0  0999 V2000
  -48.4091  -28.9954    4.4812 C   0  0  0  0  0  0  0  0  0  0  0  0
  -49.1263  -28.9484    5.6578 C   0  0  0  0  0  0  0  0  0  0  0  0
  -44.7567  -29.3668    6.1739 C   0  0  0  0  0  0  0  0  0  0  0  0
  -47.0388  -29.1295    4.8219 C   0  0  0  0  0  0  0  0  0  0  0  0
  -47.2645  -32.7227    1.5044 C   0  0  0  0  0  0  0  0  0  0  0  0
  -48.5396  -32.2041    1.4205 C   0  0  0  0  0  0  0  0  0  0  0  0
  -46.9672  -29.1603    6.2091 C   0  0  0  0  0  0  0  0  0  0  0  0
  -45.8317  -29.2311    4.1315 C   0  0  0  0  0  0  0  0  0  0  0  0
  -46.7996  -30.6286    1.9590 C   0  0  0  0  0  0  0  0  0  0  0  0
  -46.8846  -34.1343    1.2917 C   0  0  0  0  0  0  0  0  0  0  0  0
  -49.8204  -32.8729    1.1160 C   0  0  0  0  0  0  0  0  0  0  0  0
  -45.8538  -29.2778    6.9533 N   0  0  0  0  0  0  0  0  0  0  0  0
  -44.6760  -29.3512    4.8244 N   0  0  0  0  0  0  0  0  0  0  0  0
  -46.2653  -31.8205    1.8131 N   0  0  0  0  0  0  0  0  0  0  0  0
  -48.2410  -29.0496    6.7002 N   0  0  0  0  0  0  0  0  0  0  0  0
  -48.4979  -30.5201    1.7408 S   0  0  0  0  0  0  0  0  0  0  0  0
  -45.7939  -29.2054    2.3692 S   0  0  0  0  0  0  0  0  0  0  0  0
  -48.8370  -28.9384    3.4895 H   0  0  0  0  0  0  0  0  0  0  0  0
  -50.1865  -28.8510    5.8452 H   0  0  0  0  0  0  0  0  0  0  0  0
  -43.8126  -29.4639    6.6987 H   0  0  0  0  0  0  0  0  0  0  0  0
  -46.6364  -34.3409    0.2369 H   0  0  0  0  0  0  0  0  0  0  0  0
  -47.7032  -34.8258    1.5544 H   0  0  0  0  0  0  0  0  0  0  0  0
  -46.0078  -34.4048    1.9019 H   0  0  0  0  0  0  0  0  0  0  0  0
  -50.3199  -33.2447    2.0268 H   0  0  0  0  0  0  0  0  0  0  0  0
  -49.6826  -33.7516    0.4628 H   0  0  0  0  0  0  0  0  0  0  0  0
  -50.5166  -32.1847    0.6094 H   0  0  0  0  0  0  0  0  0  0  0  0
  -48.4898  -29.0433    7.6796 H   0  0  0  0  0  0  0  0  0  0  0  0
  1  2  2  0  0  0  0
  1  4  1  0  0  0  0
  2 15  1  0  0  0  0
  3 12  2  0  0  0  0
  3 13  1  0  0  0  0
  4  7  2  0  0  0  0
  4  8  1  0  0  0  0
  5  6  2  0  0  0  0
  5 10  1  0  0  0  0
  5 14  1  0  0  0  0
  6 11  1  0  0  0  0
  6 16  1  0  0  0  0
  7 12  1  0  0  0  0
  7 15  1  0  0  0  0
  8 13  2  0  0  0  0
  8 17  1  0  0  0  0
  9 14  2  0  0  0  0
  9 16  1  0  0  0  0
  9 17  1  0  0  0  0
  1 18  1  0  0  0  0
  2 19  1  0  0  0  0
  3 20  1  0  0  0  0
 10 21  1  0  0  0  0
 10 22  1  0  0  0  0
 10 23  1  0  0  0  0
 11 24  1  0  0  0  0
 11 25  1  0  0  0  0
 11 26  1  0  0  0  0
 15 27  1  0  0  0  0
M  END
> <POSIT::Probability>
0.33

> <POSIT::Method>
HYBRID

> <ReceptorTitle>
UCSF-P4267-REFINED_LIGAND-BOUND-STATE_A__DU__LA1_A-201(A)

> <OMEGA_C>
9qJBwoz258GgZY9AUoFEwkiW58FLDLVA0QYzwkbv6sHXkMVAvic8wi0J6cHNTJpA0A49wgfkAsLw
kMA/kihCwgjRAMKE1LU/a947wjJI6cGYsMZAq1M3wl7Z6cFCNYRAzzI7wlMH9cFkv/o/1ok7woyJ
CMKaVaU/JEhHws99A8Iq2I4/VGo3wtU46sFVgd5ARLQywjLP6sHTYZpAqw85wnCQ/sH0FOg/0PZA
wn9l6MHRZ9ZA0f1BwjMp9MG4094/+yw3wrSk6cE8oBdAIllDwuyB58GeU19ABL9IwsfO5sE2DLtA
FkAvwhq268HUW9ZApIs6whVdCcKAk3I+B9A+wqNNC8KQ98Y/+wc4woSeCcIOc/M/kEdJwp76BMJW
twFA9LpGwpkBB8J4+Ow++xBKwhe9AMIwABw/j/VBwqhY6MGXv/VA

> <OMEGA_E>
quYjwQ==

> <OMEGA_NBR>
     27311

$$$$
CACHE3-HO_1708_2
  -OEChem-03092622523D

 37 38  0     1  0  0  0  0  0999 V2000
  -44.4140  -29.3083    6.1199 C   0  0  0  0  0  0  0  0  0  0  0  0
  -48.8607  -28.8541    5.6942 C   0  0  0  0  0  0  0  0  0  0  0  0
  -46.7947  -29.0783    4.8256 C   0  0  0  0  0  0  0  0  0  0  0  0
  -46.7319  -29.0739    6.2202 C   0  0  0  0  0  0  0  0  0  0  0  0
  -45.5947  -29.2030    4.0955 C   0  0  0  0  0  0  0  0  0  0  0  0
  -44.2519  -31.6409   -0.5466 C   0  0  0  0  0  0  0  0  0  0  0  0
  -42.1138  -30.5372    0.2440 C   0  0  0  0  0  0  0  0  0  0  0  0
  -45.1128  -32.0350    2.2918 C   0  0  0  0  0  0  0  0  0  0  0  0
  -48.7455  -28.9314    3.1566 C   0  0  0  0  0  0  0  0  0  0  0  0
  -44.4134  -29.5658    1.8919 C   0  0  0  0  0  0  0  0  0  0  0  0
  -43.2531  -31.5114    0.6361 C   0  0  0  0  0  0  0  0  0  0  0  0
  -43.9442  -31.0665    1.9643 C   0  0  2  0  0  0  0  0  0  0  0  0
  -45.5478  -29.1969    6.8553 N   0  0  0  0  0  0  0  0  0  0  0  0
  -44.4198  -29.3001    4.7643 N   0  0  0  0  0  0  0  0  0  0  0  0
  -48.0252  -28.9287    6.7073 N   0  0  0  0  0  0  0  0  0  0  0  0
  -48.1401  -28.9479    4.5096 N   0  0  0  0  0  0  0  0  0  0  0  0
  -45.6167  -29.2632    2.7071 N   0  0  0  0  0  0  0  0  0  0  0  0
  -42.9784  -31.2079    3.0106 O   0  0  0  0  0  0  0  0  0  0  0  0
  -43.4696  -29.4075    6.6342 H   0  0  0  0  0  0  0  0  0  0  0  0
  -49.9318  -28.7387    5.7705 H   0  0  0  0  0  0  0  0  0  0  0  0
  -45.0614  -32.3324   -0.2695 H   0  0  0  0  0  0  0  0  0  0  0  0
  -44.6768  -30.6529   -0.7774 H   0  0  0  0  0  0  0  0  0  0  0  0
  -43.7249  -32.0291   -1.4306 H   0  0  0  0  0  0  0  0  0  0  0  0
  -41.4057  -30.4445    1.0807 H   0  0  0  0  0  0  0  0  0  0  0  0
  -41.5875  -30.9257   -0.6403 H   0  0  0  0  0  0  0  0  0  0  0  0
  -42.5394  -29.5495    0.0129 H   0  0  0  0  0  0  0  0  0  0  0  0
  -44.7343  -33.0671    2.3310 H   0  0  0  0  0  0  0  0  0  0  0  0
  -45.5488  -31.7673    3.2656 H   0  0  0  0  0  0  0  0  0  0  0  0
  -45.8836  -31.9567    1.5110 H   0  0  0  0  0  0  0  0  0  0  0  0
  -47.9532  -29.0201    2.3987 H   0  0  0  0  0  0  0  0  0  0  0  0
  -49.4440  -29.7753    3.0572 H   0  0  0  0  0  0  0  0  0  0  0  0
  -49.2890  -27.9864    3.0097 H   0  0  0  0  0  0  0  0  0  0  0  0
  -43.5887  -28.9293    2.2451 H   0  0  0  0  0  0  0  0  0  0  0  0
  -44.6386  -29.3254    0.8423 H   0  0  0  0  0  0  0  0  0  0  0  0
  -42.8055  -32.5014    0.8078 H   0  0  0  0  0  0  0  0  0  0  0  0
  -46.2917  -29.9628    2.4723 H   0  0  0  0  0  0  0  0  0  0  0  0
  -42.2442  -30.6282    2.8450 H   0  0  0  0  0  0  0  0  0  0  0  0
  1 13  2  0  0  0  0
  1 14  1  0  0  0  0
  2 15  2  0  0  0  0
  2 16  1  0  0  0  0
  3  4  2  0  0  0  0
  3  5  1  0  0  0  0
  3 16  1  0  0  0  0
  4 13  1  0  0  0  0
  4 15  1  0  0  0  0
  5 14  2  0  0  0  0
  5 17  1  0  0  0  0
  6 11  1  0  0  0  0
  7 11  1  0  0  0  0
  8 12  1  0  0  0  0
  9 16  1  0  0  0  0
 10 12  1  0  0  0  0
 10 17  1  0  0  0  0
 11 12  1  0  0  0  0
 12 18  1  0  0  0  0
  1 19  1  0  0  0  0
  2 20  1  0  0  0  0
  6 21  1  0  0  0  0
  6 22  1  0  0  0  0
  6 23  1  0  0  0  0
  7 24  1  0  0  0  0
  7 25  1  0  0  0  0
  7 26  1  0  0  0  0
  8 27  1  0  0  0  0
  8 28  1  0  0  0  0
  8 29  1  0  0  0  0
  9 30  1  0  0  0  0
  9 31  1  0  0  0  0
  9 32  1  0  0  0  0
 10 33  1  0  0  0  0
 10 34  1  0  0  0  0
 11 35  1  0  0  0  0
 17 36  1  0  0  0  0
 18 37  1  0  0  0  0
M  END
> <POSIT::Probability>
0.85

> <POSIT::Method>
SHAPEFIT

> <ReceptorTitle>
UCSF-P4271-REFINED_LIGAND-BOUND-STATE_A__DU__LA1_A-201(A)

> <OMEGA_C>
+acxwnt36sFl1sNAXnFDwhzV5sEoN7ZAuS07wkWg6MH2appAge06wkmX6MH9C8dA9GA2wrWf6cED
DoNA+gExwqog/cFy6wu/j3QowixM9MEM4Hk+gXM0wuIjAMJ7rRJAZvtCwn9z58E8BUpATqcxwtiG
7ME9KPI/MAMtwmAX/MGA2CI/1cYvwjSI+MEcb/s/6TA2wkKT6cFbXttA460xwrRm6sEkdZhAzRlA
wgBu58HhodZAcI9AwlyV58HATpBAinc2wg0b6sGEQC1A3ekrwtyp+cFlrkBA1OAtwo1C68G7S9RA
LrpHwsbo5cERqLhA1j40wlpUAcKe/4m+DLUywi859cFgA0e/QuYuwsMdAMKqHre/eZ8lwmOO88EQ
VIo/lFkmwstn98FO6yO/XigqwnRl7MF9qVM87+8ywr5EBMLHLxVA/TE2wm0j/sF//1BAyIg3wlan
/8FIZ8E/GdA/wkMp6MHhgxlApMZFwuoz7sFjqUNA8SdFwh3k38Fnn0BA01ouwk1v58E+rw9A4o0y
wlKa6sEdpFc/0jgrwnwBAsLhyE4/qCo5wrqz78EjOh5AGPoowo0G9cEsFTZA

> <OMEGA_E>
xJMWPw==

> <OMEGA_NBR>
      1257

$$$$
CACHE3-HO_1708_26
  -OEChem-03092622523D

 35 37  0     1  0  0  0  0  0999 V2000
  -48.8721  -28.7543    5.7772 C   0  0  0  0  0  0  0  0  0  0  0  0
  -44.3737  -29.4040    5.9756 C   0  0  0  0  0  0  0  0  0  0  0  0
  -46.8162  -29.0607    4.8353 C   0  0  0  0  0  0  0  0  0  0  0  0
  -48.2448  -28.8710    4.5553 C   0  0  0  0  0  0  0  0  0  0  0  0
  -46.6646  -29.0682    6.2239 C   0  0  0  0  0  0  0  0  0  0  0  0
  -45.6726  -29.2104    4.0295 C   0  0  0  0  0  0  0  0  0  0  0  0
  -43.4838  -31.8212    2.4447 C   0  0  0  0  0  0  0  0  0  0  0  0
  -44.6361  -31.8144    0.4012 C   0  0  0  0  0  0  0  0  0  0  0  0
  -44.2017  -33.2239    0.7682 C   0  0  0  0  0  0  0  0  0  0  0  0
  -44.7123  -31.1987    1.7699 C   0  0  2  0  0  0  0  0  0  0  0  0
  -50.4144  -28.5852    3.2662 C   0  0  0  0  0  0  0  0  0  0  0  0
  -48.8947  -28.8178    3.1825 C   0  0  0  0  0  0  0  0  0  0  0  0
  -44.7267  -29.6553    1.7329 C   0  0  0  0  0  0  0  0  0  0  0  0
  -45.4501  -29.2391    6.7834 N   0  0  0  0  0  0  0  0  0  0  0  0
  -44.4653  -29.3772    4.6215 N   0  0  0  0  0  0  0  0  0  0  0  0
  -47.9158  -28.8681    6.7806 N   0  0  0  0  0  0  0  0  0  0  0  0
  -45.7875  -29.1647    2.6414 N   0  0  0  0  0  0  0  0  0  0  0  0
  -42.7105  -31.3102    3.2448 O   0  0  0  0  0  0  0  0  0  0  0  0
  -43.3159  -33.0735    1.9107 O   0  0  0  0  0  0  0  0  0  0  0  0
  -49.9300  -28.6001    5.9299 H   0  0  0  0  0  0  0  0  0  0  0  0
  -43.4056  -29.5629    6.4271 H   0  0  0  0  0  0  0  0  0  0  0  0
  -43.8916  -31.3100   -0.2323 H   0  0  0  0  0  0  0  0  0  0  0  0
  -45.6129  -31.8072   -0.1045 H   0  0  0  0  0  0  0  0  0  0  0  0
  -45.0745  -33.8372    1.0369 H   0  0  0  0  0  0  0  0  0  0  0  0
  -43.6688  -33.6928   -0.0721 H   0  0  0  0  0  0  0  0  0  0  0  0
  -45.6203  -31.5518    2.2807 H   0  0  0  0  0  0  0  0  0  0  0  0
  -50.8377  -28.5545    2.2514 H   0  0  0  0  0  0  0  0  0  0  0  0
  -50.8801  -29.4049    3.8329 H   0  0  0  0  0  0  0  0  0  0  0  0
  -50.6115  -27.6298    3.7746 H   0  0  0  0  0  0  0  0  0  0  0  0
  -48.4418  -27.9964    2.6079 H   0  0  0  0  0  0  0  0  0  0  0  0
  -48.7103  -29.7715    2.6663 H   0  0  0  0  0  0  0  0  0  0  0  0
  -43.7508  -29.2688    2.0618 H   0  0  0  0  0  0  0  0  0  0  0  0
  -44.9303  -29.3123    0.7078 H   0  0  0  0  0  0  0  0  0  0  0  0
  -48.1047  -28.8135    7.7611 H   0  0  0  0  0  0  0  0  0  0  0  0
  -46.6093  -29.6874    2.4146 H   0  0  0  0  0  0  0  0  0  0  0  0
  1  4  2  0  0  0  0
  1 16  1  0  0  0  0
  2 14  1  0  0  0  0
  2 15  2  0  0  0  0
  3  4  1  0  0  0  0
  3  5  1  0  0  0  0
  3  6  2  0  0  0  0
  4 12  1  0  0  0  0
  5 14  2  0  0  0  0
  5 16  1  0  0  0  0
  6 15  1  0  0  0  0
  6 17  1  0  0  0  0
  7 10  1  0  0  0  0
  7 18  2  0  0  0  0
  7 19  1  0  0  0  0
  8  9  1  0  0  0  0
  8 10  1  0  0  0  0
  9 19  1  0  0  0  0
 10 13  1  0  0  0  0
 11 12  1  0  0  0  0
 13 17  1  0  0  0  0
  1 20  1  0  0  0  0
  2 21  1  0  0  0  0
  8 22  1  0  0  0  0
  8 23  1  0  0  0  0
  9 24  1  0  0  0  0
  9 25  1  0  0  0  0
 10 26  1  0  0  0  0
 11 27  1  0  0  0  0
 11 28  1  0  0  0  0
 11 29  1  0  0  0  0
 12 30  1  0  0  0  0
 12 31  1  0  0  0  0
 13 32  1  0  0  0  0
 13 33  1  0  0  0  0
 16 34  1  0  0  0  0
 17 35  1  0  0  0  0
M  END
> <POSIT::Probability>
0.83

> <POSIT::Method>
SHAPEFIT

> <ReceptorTitle>
UCSF-P4271-REFINED_LIGAND-BOUND-STATE_A__DU__LA1_A-201(A)

> <OMEGA_C>
AX1Dws4I5sHI3rhAt34xwm4768G4N79A1EM7wj986MF8uppApPpAwtD35sHQxJFAlKg6wqiL6MEe
KsdAy7A2wt2u6cGC8YBAYu8twt6R/sEmdRxAWosywuuD/sEIZs0+lM4wwkDlBMLQqEQ/btkywt6W
+cFujeI/ZahJwnCu5MGpCVFAIZRDwvCK5sGFrUtAHugywho+7cGcz90/4Mw1wr3p6cG2EdlAedwx
wpAE68E445NAzqk/wvbx5sGO+thAcSY3wjxR6cHvCylAktcqwjh7+sE9q09Ac0MtwkZLBMKSkfQ/
XrhHwgzN5MHewb1AWJ8twtOA7MGPqs1A+ZAvws16+sEZ1W2+qXM2wg91/sH9+tW9SEw0wkFZB8Kp
t4Q/16wuwmHFBsLkrpO9KXs2wiRq/MHH9xFAzVlLwqtv5MFZFhBAMoVLwlI968HdTnVANXJKwtIJ
3cFFknFAaMRBwqH438Fb5yZAZNdCwiEs7sHzoypAxQAvwocm6sGg9ANAq7gzwol/6sEDMjU/N2tA
wvOB5sGeWvhA9W86wr1/7cE6iBpA

> <OMEGA_E>
aDzVPg==

> <OMEGA_NBR>
      2481

$$$$
CACHE3-HO_1708_27
  -OEChem-03092622523D

 49 52  0     1  0  0  0  0  0999 V2000
  -48.8616  -28.7396    5.6933 C   0  0  0  0  0  0  0  0  0  0  0  0
  -44.3752  -29.3267    6.1202 C   0  0  0  0  0  0  0  0  0  0  0  0
  -46.7755  -29.1371    4.8570 C   0  0  0  0  0  0  0  0  0  0  0  0
  -48.1868  -28.9313    4.5062 C   0  0  0  0  0  0  0  0  0  0  0  0
  -46.6797  -29.0405    6.2480 C   0  0  0  0  0  0  0  0  0  0  0  0
  -45.5974  -29.3475    4.1169 C   0  0  0  0  0  0  0  0  0  0  0  0
  -42.7914  -30.6073    0.3932 C   0  0  0  0  0  0  0  0  0  0  0  0
  -45.6017  -31.6255    0.2280 C   0  0  0  0  0  0  0  0  0  0  0  0
  -44.1950  -33.2572    1.5375 C   0  0  0  0  0  0  0  0  0  0  0  0
  -46.6683  -32.7058    0.1397 C   0  0  0  0  0  0  0  0  0  0  0  0
  -45.3022  -34.2859    1.3165 C   0  0  0  0  0  0  0  0  0  0  0  0
  -41.6588  -29.6552    0.7989 C   0  0  0  0  0  0  0  0  0  0  0  0
  -42.6659  -31.0966    2.7365 C   0  0  0  0  0  0  0  0  0  0  0  0
  -43.7007  -30.7624    1.6298 C   0  0  1  0  0  0  0  0  0  0  0  0
  -50.2908  -28.6092    3.1231 C   0  0  0  0  0  0  0  0  0  0  0  0
  -48.7788  -28.9068    3.1072 C   0  0  0  0  0  0  0  0  0  0  0  0
  -44.4288  -29.3871    1.8793 C   0  0  0  0  0  0  0  0  0  0  0  0
  -45.4890  -29.1516    6.8687 N   0  0  0  0  0  0  0  0  0  0  0  0
  -44.4125  -29.3982    4.7685 N   0  0  0  0  0  0  0  0  0  0  0  0
  -47.9507  -28.8116    6.7403 N   0  0  0  0  0  0  0  0  0  0  0  0
  -44.7233  -31.8506    1.4255 N   0  0  0  0  0  0  0  0  0  0  0  0
  -45.6410  -29.4788    2.7335 N   0  0  0  0  0  0  0  0  0  0  0  0
  -46.0167  -33.9865    0.1055 O   0  0  0  0  0  0  0  0  0  0  0  0
  -41.3401  -29.8465    2.6167 S   0  0  0  0  0  0  0  0  0  0  0  0
  -49.9223  -28.5627    5.7929 H   0  0  0  0  0  0  0  0  0  0  0  0
  -43.4214  -29.4127    6.6194 H   0  0  0  0  0  0  0  0  0  0  0  0
  -43.3615  -30.1830   -0.4464 H   0  0  0  0  0  0  0  0  0  0  0  0
  -42.3793  -31.5842    0.1001 H   0  0  0  0  0  0  0  0  0  0  0  0
  -44.9854  -31.6499   -0.6828 H   0  0  0  0  0  0  0  0  0  0  0  0
  -46.0882  -30.6428    0.3154 H   0  0  0  0  0  0  0  0  0  0  0  0
  -43.7680  -33.4006    2.5410 H   0  0  0  0  0  0  0  0  0  0  0  0
  -43.4110  -33.4066    0.7805 H   0  0  0  0  0  0  0  0  0  0  0  0
  -47.3284  -32.6484    1.0177 H   0  0  0  0  0  0  0  0  0  0  0  0
  -47.2625  -32.5670   -0.7755 H   0  0  0  0  0  0  0  0  0  0  0  0
  -44.8572  -35.2888    1.2385 H   0  0  0  0  0  0  0  0  0  0  0  0
  -45.9993  -34.2591    2.1669 H   0  0  0  0  0  0  0  0  0  0  0  0
  -40.7473  -29.9035    0.2355 H   0  0  0  0  0  0  0  0  0  0  0  0
  -41.9526  -28.6175    0.5821 H   0  0  0  0  0  0  0  0  0  0  0  0
  -43.1423  -31.0492    3.7268 H   0  0  0  0  0  0  0  0  0  0  0  0
  -42.2523  -32.1032    2.5764 H   0  0  0  0  0  0  0  0  0  0  0  0
  -50.6744  -28.6015    2.0922 H   0  0  0  0  0  0  0  0  0  0  0  0
  -50.8113  -29.3864    3.7020 H   0  0  0  0  0  0  0  0  0  0  0  0
  -50.4663  -27.6273    3.5869 H   0  0  0  0  0  0  0  0  0  0  0  0
  -48.2701  -28.1278    2.5204 H   0  0  0  0  0  0  0  0  0  0  0  0
  -48.6151  -29.8869    2.6355 H   0  0  0  0  0  0  0  0  0  0  0  0
  -43.7165  -28.7043    2.3655 H   0  0  0  0  0  0  0  0  0  0  0  0
  -44.7258  -28.9735    0.9042 H   0  0  0  0  0  0  0  0  0  0  0  0
  -48.1811  -28.7123    7.7083 H   0  0  0  0  0  0  0  0  0  0  0  0
  -46.0389  -30.3784    2.5533 H   0  0  0  0  0  0  0  0  0  0  0  0
  1  4  2  0  0  0  0
  1 20  1  0  0  0  0
  2 18  1  0  0  0  0
  2 19  2  0  0  0  0
  3  4  1  0  0  0  0
  3  5  1  0  0  0  0
  3  6  2  0  0  0  0
  4 16  1  0  0  0  0
  5 18  2  0  0  0  0
  5 20  1  0  0  0  0
  6 19  1  0  0  0  0
  6 22  1  0  0  0  0
  7 12  1  0  0  0  0
  7 14  1  0  0  0  0
  8 10  1  0  0  0  0
  8 21  1  0  0  0  0
  9 11  1  0  0  0  0
  9 21  1  0  0  0  0
 10 23  1  0  0  0  0
 11 23  1  0  0  0  0
 12 24  1  0  0  0  0
 13 14  1  0  0  0  0
 13 24  1  0  0  0  0
 14 17  1  0  0  0  0
 14 21  1  0  0  0  0
 15 16  1  0  0  0  0
 17 22  1  0  0  0  0
  1 25  1  0  0  0  0
  2 26  1  0  0  0  0
  7 27  1  0  0  0  0
  7 28  1  0  0  0  0
  8 29  1  0  0  0  0
  8 30  1  0  0  0  0
  9 31  1  0  0  0  0
  9 32  1  0  0  0  0
 10 33  1  0  0  0  0
 10 34  1  0  0  0  0
 11 35  1  0  0  0  0
 11 36  1  0  0  0  0
 12 37  1  0  0  0  0
 12 38  1  0  0  0  0
 13 39  1  0  0  0  0
 13 40  1  0  0  0  0
 15 41  1  0  0  0  0
 15 42  1  0  0  0  0
 15 43  1  0  0  0  0
 16 44  1  0  0  0  0
 16 45  1  0  0  0  0
 17 46  1  0  0  0  0
 17 47  1  0  0  0  0
 20 48  1  0  0  0  0
 22 49  1  0  0  0  0
M  END
> <POSIT::Probability>
0.72

> <POSIT::Method>
SHAPEFIT

> <ReceptorTitle>
UCSF-P4271-REFINED_LIGAND-BOUND-STATE_A__DU__LA1_A-201(A)

> <OMEGA_C>
O3JDwqzq5cFKL7ZAN4Axwiid6sHl2MNAJho7wrYY6cFMbJtAUr9Awl1z58H2MpBA+Lc6wgRT6MFO
78dAtmM2wpTH6sFGvYNAYyorwsbb9MGAVMk+LGg2whAB/cFAf2k+tccwwlQHBcJ/y8Q/Taw6wr3S
AsK4Eg8+aDU1wrYkCcJZgqg/paImwsU97cEmgkw/2qkqwsbF+MHyIi9Ajs0uwnkZ9sFfndA/0ClJ
wrbf5MFO4UdAhx1DwhRB58Ha3EZAGLcxwscY68GdjPA/v/Q1wmU26cGqzNtAXqYxwpkv68G2l5hA
hs0/wi9+5sF4sNdAn+QywgvO/sF9d7Y/WZA2wqLU68Hw8C5ADxE4wjTyB8KQB9g9T1wlwpDF7sE2
eCdAcbBHwmuA5MEbX7lAfa8twixN68Fv0tNAOXItwuB28cE9i+S+b4QpwnCs/MEuGc09GfEzwvQy
/cH8yy6/R1o4wnIk9cF+gKE+ZxIvwi2aBcJ5nyJA2KQtwlugBcL80Ec/TVA9wgKYAsIERYI/yAw9
wpFEAsIvh0a/0G0zwsMnDcLSh54/Uv83wk0JCcKArgpAO/0iwmA678H6G3E+c88nwqnw5MEABBU/
upEswqlk+MGJhG5AYgIpwrJpAMKK4yRAlLJKwtHP5MGE5gVAvz5LwmwX68GV7WxAgt1JwsoE3cHK
j2VAnBRBwroF4cG6TSFA2XVCwlsY78GGqyhAs90uwm6i5cHbZBdARecywtTJ58G+e2c/fblAwuGy
5cFqqvZA4Sc4wuQG88EIaiNA

> <OMEGA_E>
qIUrPw==

> <OMEGA_NBR>
      3988

$$$$
CACHE3-HO_1708_29
  -OEChem-03092622523D

 31 33  0     0  0  0  0  0  0999 V2000
  -48.8840  -28.7630    5.7161 C   0  0  0  0  0  0  0  0  0  0  0  0
  -43.8869  -33.1281    1.7308 C   0  0  0  0  0  0  0  0  0  0  0  0
  -44.3913  -29.2881    6.1861 C   0  0  0  0  0  0  0  0  0  0  0  0
  -46.7738  -29.0737    4.8913 C   0  0  0  0  0  0  0  0  0  0  0  0
  -48.1897  -28.9018    4.5325 C   0  0  0  0  0  0  0  0  0  0  0  0
  -44.5281  -31.9908    1.3226 C   0  0  0  0  0  0  0  0  0  0  0  0
  -43.8873  -30.8705    2.0030 C   0  0  0  0  0  0  0  0  0  0  0  0
  -46.6986  -29.0055    6.2868 C   0  0  0  0  0  0  0  0  0  0  0  0
  -45.5803  -29.2548    4.1583 C   0  0  0  0  0  0  0  0  0  0  0  0
  -50.3067  -28.7276    3.1398 C   0  0  0  0  0  0  0  0  0  0  0  0
  -48.7725  -28.8771    3.1303 C   0  0  0  0  0  0  0  0  0  0  0  0
  -44.3534  -29.4400    1.9524 C   0  0  0  0  0  0  0  0  0  0  0  0
  -45.5151  -29.1099    6.9211 N   0  0  0  0  0  0  0  0  0  0  0  0
  -44.4059  -29.3584    4.8308 N   0  0  0  0  0  0  0  0  0  0  0  0
  -42.9157  -31.3450    2.7433 N   0  0  0  0  0  0  0  0  0  0  0  0
  -47.9817  -28.8223    6.7703 N   0  0  0  0  0  0  0  0  0  0  0  0
  -45.5944  -29.3000    2.7608 N   0  0  0  0  0  0  0  0  0  0  0  0
  -42.8937  -32.7497    2.5827 O   0  0  0  0  0  0  0  0  0  0  0  0
  -45.9766  -31.8759    0.0893 Br  0  0  0  0  0  0  0  0  0  0  0  0
  -49.9518  -28.6302    5.8079 H   0  0  0  0  0  0  0  0  0  0  0  0
  -44.1241  -34.1387    1.4327 H   0  0  0  0  0  0  0  0  0  0  0  0
  -43.4454  -29.3780    6.6994 H   0  0  0  0  0  0  0  0  0  0  0  0
  -50.6808  -28.7148    2.1054 H   0  0  0  0  0  0  0  0  0  0  0  0
  -50.7542  -29.5742    3.6810 H   0  0  0  0  0  0  0  0  0  0  0  0
  -50.5802  -27.7869    3.6401 H   0  0  0  0  0  0  0  0  0  0  0  0
  -48.3374  -28.0294    2.5807 H   0  0  0  0  0  0  0  0  0  0  0  0
  -48.5114  -29.8168    2.6216 H   0  0  0  0  0  0  0  0  0  0  0  0
  -43.5715  -28.7838    2.3624 H   0  0  0  0  0  0  0  0  0  0  0  0
  -44.5599  -29.1571    0.9097 H   0  0  0  0  0  0  0  0  0  0  0  0
  -48.2242  -28.7440    7.7373 H   0  0  0  0  0  0  0  0  0  0  0  0
  -46.1754  -30.0756    2.5140 H   0  0  0  0  0  0  0  0  0  0  0  0
  1  5  2  0  0  0  0
  1 16  1  0  0  0  0
  2  6  2  0  0  0  0
  2 18  1  0  0  0  0
  3 13  1  0  0  0  0
  3 14  2  0  0  0  0
  4  5  1  0  0  0  0
  4  8  1  0  0  0  0
  4  9  2  0  0  0  0
  5 11  1  0  0  0  0
  6  7  1  0  0  0  0
  6 19  1  0  0  0  0
  7 12  1  0  0  0  0
  7 15  2  0  0  0  0
  8 13  2  0  0  0  0
  8 16  1  0  0  0  0
  9 14  1  0  0  0  0
  9 17  1  0  0  0  0
 10 11  1  0  0  0  0
 12 17  1  0  0  0  0
 15 18  1  0  0  0  0
  1 20  1  0  0  0  0
  2 21  1  0  0  0  0
  3 22  1  0  0  0  0
 10 23  1  0  0  0  0
 10 24  1  0  0  0  0
 10 25  1  0  0  0  0
 11 26  1  0  0  0  0
 11 27  1  0  0  0  0
 12 28  1  0  0  0  0
 12 29  1  0  0  0  0
 16 30  1  0  0  0  0
 17 31  1  0  0  0  0
M  END
> <POSIT::Probability>
0.83

> <POSIT::Method>
SHAPEFIT

> <ReceptorTitle>
UCSF-P4271-REFINED_LIGAND-BOUND-STATE_A__DU__LA1_A-201(A)

> <OMEGA_C>
MYlDwpMa5sHx6bZANIwvwjmDBMJKid0/upAxwh1O6sG09MVAXBg7wuqW6MFwhZxARsJAwtw258He
CZFAzhwywjHt/8HpS6k/oIwvwtP29sFmMQBAW8s6wiwL6ME6LclALlI2wugJ6sHiEIVAGDpJwhDS
5cFl8khAEBdDwmAE58GeV0hA4mkxwhKF68EN6fk/dA82whLh6MH0ed1AoZ8xwvXd6sFMlppAtakr
wpvC+sEGky9ATe0/wgaU5sF0pthAq2A2wm9m6sHCsDBAMZMrwrX/AsLGSyVAEOg3wskB/8EAy7Y9
sc5Hwq4K5cH32blAHH8wwhOOCMJvY7c/D8gtwisG68GpYdZAIrlKwva35cFTvwZAUwRLwhCY7ME7
lWtAJ1JKwoRL3sEj92hAeVlBwk884MHVKiVApQtCwtuI7sHtyCdAP0kuwiJF5sECMRdAWD0ywtVB
6cFb32g/ieVAwsLz5cE1mPdAmbM4wtqa8MFR5SBA

> <OMEGA_E>
sELePg==

> <OMEGA_NBR>
      5129

$$$$
CACHE3-HO_1708_3
  -OEChem-03092622523D

 40 41  0     1  0  0  0  0  0999 V2000
  -44.4246  -29.4184    6.1573 C   0  0  0  0  0  0  0  0  0  0  0  0
  -48.8176  -28.6252    5.7122 C   0  0  0  0  0  0  0  0  0  0  0  0
  -46.7770  -29.0498    4.8393 C   0  0  0  0  0  0  0  0  0  0  0  0
  -46.7198  -29.0359    6.2379 C   0  0  0  0  0  0  0  0  0  0  0  0
  -45.5711  -29.2417    4.1153 C   0  0  0  0  0  0  0  0  0  0  0  0
  -46.4637  -32.4617   -0.1844 C   0  0  0  0  0  0  0  0  0  0  0  0
  -43.8305  -33.0862    1.2073 C   0  0  0  0  0  0  0  0  0  0  0  0
  -42.2006  -30.2297    0.9402 C   0  0  0  0  0  0  0  0  0  0  0  0
  -48.7191  -28.7115    3.1795 C   0  0  0  0  0  0  0  0  0  0  0  0
  -45.8108  -31.5191    0.8310 C   0  0  0  0  0  0  0  0  0  0  0  0
  -44.2849  -29.2026    1.8923 C   0  0  0  0  0  0  0  0  0  0  0  0
  -44.2687  -31.6436    0.8058 C   0  0  1  0  0  0  0  0  0  0  0  0
  -43.5190  -30.5629    1.6807 C   0  0  1  0  0  0  0  0  0  0  0  0
  -45.5526  -29.2331    6.8820 N   0  0  0  0  0  0  0  0  0  0  0  0
  -44.4147  -29.3965    4.8031 N   0  0  0  0  0  0  0  0  0  0  0  0
  -47.9916  -28.7622    6.7248 N   0  0  0  0  0  0  0  0  0  0  0  0
  -48.1153  -28.8239    4.5275 N   0  0  0  0  0  0  0  0  0  0  0  0
  -45.5451  -29.2556    2.7181 N   0  0  0  0  0  0  0  0  0  0  0  0
  -43.1472  -31.1100    2.9473 O   0  0  0  0  0  0  0  0  0  0  0  0
  -43.4952  -29.5907    6.6797 H   0  0  0  0  0  0  0  0  0  0  0  0
  -49.8703  -28.3957    5.7872 H   0  0  0  0  0  0  0  0  0  0  0  0
  -47.5569  -32.3483   -0.1406 H   0  0  0  0  0  0  0  0  0  0  0  0
  -46.1096  -32.2131   -1.1958 H   0  0  0  0  0  0  0  0  0  0  0  0
  -46.1932  -33.5010    0.0536 H   0  0  0  0  0  0  0  0  0  0  0  0
  -42.7330  -33.1565    1.1840 H   0  0  0  0  0  0  0  0  0  0  0  0
  -44.1907  -33.3096    2.2224 H   0  0  0  0  0  0  0  0  0  0  0  0
  -44.2592  -33.8101    0.4986 H   0  0  0  0  0  0  0  0  0  0  0  0
  -41.6307  -31.1552    0.7706 H   0  0  0  0  0  0  0  0  0  0  0  0
  -42.4321  -29.7594   -0.0268 H   0  0  0  0  0  0  0  0  0  0  0  0
  -41.6021  -29.5375    1.5507 H   0  0  0  0  0  0  0  0  0  0  0  0
  -47.9536  -28.9151    2.4161 H   0  0  0  0  0  0  0  0  0  0  0  0
  -49.5368  -29.4408    3.0821 H   0  0  0  0  0  0  0  0  0  0  0  0
  -49.1156  -27.6951    3.0390 H   0  0  0  0  0  0  0  0  0  0  0  0
  -46.0903  -30.4831    0.5890 H   0  0  0  0  0  0  0  0  0  0  0  0
  -46.1738  -31.7711    1.8383 H   0  0  0  0  0  0  0  0  0  0  0  0
  -43.5929  -28.5037    2.3850 H   0  0  0  0  0  0  0  0  0  0  0  0
  -44.5535  -28.8135    0.8991 H   0  0  0  0  0  0  0  0  0  0  0  0
  -43.9478  -31.4880   -0.2348 H   0  0  0  0  0  0  0  0  0  0  0  0
  -46.0096  -30.0990    2.4479 H   0  0  0  0  0  0  0  0  0  0  0  0
  -43.9292  -31.3306    3.4394 H   0  0  0  0  0  0  0  0  0  0  0  0
  1 14  2  0  0  0  0
  1 15  1  0  0  0  0
  2 16  2  0  0  0  0
  2 17  1  0  0  0  0
  3  4  2  0  0  0  0
  3  5  1  0  0  0  0
  3 17  1  0  0  0  0
  4 14  1  0  0  0  0
  4 16  1  0  0  0  0
  5 15  2  0  0  0  0
  5 18  1  0  0  0  0
  6 10  1  0  0  0  0
  7 12  1  0  0  0  0
  8 13  1  0  0  0  0
  9 17  1  0  0  0  0
 10 12  1  0  0  0  0
 11 13  1  0  0  0  0
 11 18  1  0  0  0  0
 12 13  1  0  0  0  0
 13 19  1  0  0  0  0
  1 20  1  0  0  0  0
  2 21  1  0  0  0  0
  6 22  1  0  0  0  0
  6 23  1  0  0  0  0
  6 24  1  0  0  0  0
  7 25  1  0  0  0  0
  7 26  1  0  0  0  0
  7 27  1  0  0  0  0
  8 28  1  0  0  0  0
  8 29  1  0  0  0  0
  8 30  1  0  0  0  0
  9 31  1  0  0  0  0
  9 32  1  0  0  0  0
  9 33  1  0  0  0  0
 10 34  1  0  0  0  0
 10 35  1  0  0  0  0
 11 36  1  0  0  0  0
 11 37  1  0  0  0  0
 12 38  1  0  0  0  0
 18 39  1  0  0  0  0
 19 40  1  0  0  0  0
M  END
> <POSIT::Probability>
0.85

> <POSIT::Method>
SHAPEFIT

> <ReceptorTitle>
UCSF-P4271-REFINED_LIGAND-BOUND-STATE_A__DU__LA1_A-201(A)

> <OMEGA_C>
ybIxwvZY68E0CMVANUVDwmAA5cGWyrZAqBs7wgtm6MFw25pAFeE6wpdJ6MHonMdAyEg2wvLu6cE6
sINAzNo5ws3YAcJu1zy+dFIvwlBYBMJdh5o/Xs0owmnW8cFEsnA/U+BCwjix5cE2fEtAOj43wikn
/MG4u1Q/vyMxwtme6cGuN/I/KxMxwhsm/cHAR04/fhMuwsGA9MGXItc/1jU2wnzd6cGEOdxAragx
wgws68HisplAZfc/wvQY5sE6MddABnZAwlyX5sF24ZBALy42wo4L6sG59S1Ar5Yswjrh+MHjoDxA
E/stwrO57MEGwNVAJHtHwmMq48HfMLlASzo+wqhkAcJU+Q++PXA4wjHaAMKwDpm/zMU4whABBsJc
cVs9m+4qwjygBMLDjJc/O8Mwwv08BcIfOw5Adgkxwow9B8K7Rf8+2YUmwss9+cGBRkU/cbopwioT
7sG2yNu8lGgmwrVM7MGGfcY/gdA/whJS58H+oRpAqSVGwtOG68G7QUVAX3ZEwqqP3cENf0JAdFw4
wm7d88EKxxY/A7I4wi0r/sHATes/IF8uwqIH5MEcpBhA1DYywv+B5sEPLWY/k8ovwlnn+8FSbnC+
ygk4wsfK8MHdqhxAi7cvwgGl+sGdH1xA

> <OMEGA_E>
dO8OPw==

> <OMEGA_NBR>
      6451

$$$$
CACHE3-HO_1708_31
  -OEChem-03092622523D

 39 40  0     1  0  0  0  0  0999 V2000
  -48.8842  -28.7183    5.7436 C   0  0  0  0  0  0  0  0  0  0  0  0
  -44.3975  -29.3672    6.0912 C   0  0  0  0  0  0  0  0  0  0  0  0
  -46.8126  -29.1238    4.8643 C   0  0  0  0  0  0  0  0  0  0  0  0
  -48.2298  -28.8928    4.5421 C   0  0  0  0  0  0  0  0  0  0  0  0
  -46.6945  -29.0376    6.2553 C   0  0  0  0  0  0  0  0  0  0  0  0
  -45.6486  -29.3761    4.1059 C   0  0  0  0  0  0  0  0  0  0  0  0
  -50.3575  -28.5066    3.2105 C   0  0  0  0  0  0  0  0  0  0  0  0
  -42.7439  -30.9122    0.6160 C   0  0  0  0  0  0  0  0  0  0  0  0
  -46.0227  -31.9162   -0.1070 C   0  0  0  0  0  0  0  0  0  0  0  0
  -48.8500  -28.8287    3.1572 C   0  0  0  0  0  0  0  0  0  0  0  0
  -44.5147  -29.6194    1.8462 C   0  0  0  0  0  0  0  0  0  0  0  0
  -44.5479  -32.2829    1.7875 C   0  0  0  0  0  0  0  0  0  0  0  0
  -43.7019  -30.9666    1.8262 C   0  0  1  0  0  0  0  0  0  0  0  0
  -45.4968  -29.1717    6.8568 N   0  0  0  0  0  0  0  0  0  0  0  0
  -44.4560  -29.4579    4.7408 N   0  0  0  0  0  0  0  0  0  0  0  0
  -47.9573  -28.8139    6.7731 N   0  0  0  0  0  0  0  0  0  0  0  0
  -45.7164  -29.5746    2.7290 N   0  0  0  0  0  0  0  0  0  0  0  0
  -42.8815  -31.0518    2.9889 O   0  0  0  0  0  0  0  0  0  0  0  0
  -45.8976  -32.1171    1.3126 O   0  0  0  0  0  0  0  0  0  0  0  0
  -49.9421  -28.5373    5.8637 H   0  0  0  0  0  0  0  0  0  0  0  0
  -43.4363  -29.4544    6.5759 H   0  0  0  0  0  0  0  0  0  0  0  0
  -50.7617  -28.4706    2.1881 H   0  0  0  0  0  0  0  0  0  0  0  0
  -50.8791  -29.2872    3.7836 H   0  0  0  0  0  0  0  0  0  0  0  0
  -50.5070  -27.5320    3.6982 H   0  0  0  0  0  0  0  0  0  0  0  0
  -42.1570  -31.8415    0.5701 H   0  0  0  0  0  0  0  0  0  0  0  0
  -43.3283  -30.8018   -0.3094 H   0  0  0  0  0  0  0  0  0  0  0  0
  -42.0641  -30.0544    0.7249 H   0  0  0  0  0  0  0  0  0  0  0  0
  -47.0846  -31.8008   -0.3694 H   0  0  0  0  0  0  0  0  0  0  0  0
  -45.4724  -31.0096   -0.3987 H   0  0  0  0  0  0  0  0  0  0  0  0
  -45.6062  -32.7848   -0.6382 H   0  0  0  0  0  0  0  0  0  0  0  0
  -48.3404  -28.0459    2.5763 H   0  0  0  0  0  0  0  0  0  0  0  0
  -48.7125  -29.8011    2.6617 H   0  0  0  0  0  0  0  0  0  0  0  0
  -43.8309  -28.8224    2.1736 H   0  0  0  0  0  0  0  0  0  0  0  0
  -44.8488  -29.4164    0.8180 H   0  0  0  0  0  0  0  0  0  0  0  0
  -44.0376  -32.9988    1.1264 H   0  0  0  0  0  0  0  0  0  0  0  0
  -44.5914  -32.6924    2.8075 H   0  0  0  0  0  0  0  0  0  0  0  0
  -48.1715  -28.7329    7.7465 H   0  0  0  0  0  0  0  0  0  0  0  0
  -46.1828  -30.4499    2.6012 H   0  0  0  0  0  0  0  0  0  0  0  0
  -43.4312  -31.0877    3.7629 H   0  0  0  0  0  0  0  0  0  0  0  0
  1  4  2  0  0  0  0
  1 16  1  0  0  0  0
  2 14  1  0  0  0  0
  2 15  2  0  0  0  0
  3  4  1  0  0  0  0
  3  5  1  0  0  0  0
  3  6  2  0  0  0  0
  4 10  1  0  0  0  0
  5 14  2  0  0  0  0
  5 16  1  0  0  0  0
  6 15  1  0  0  0  0
  6 17  1  0  0  0  0
  7 10  1  0  0  0  0
  8 13  1  0  0  0  0
  9 19  1  0  0  0  0
 11 13  1  0  0  0  0
 11 17  1  0  0  0  0
 12 13  1  0  0  0  0
 12 19  1  0  0  0  0
 13 18  1  0  0  0  0
  1 20  1  0  0  0  0
  2 21  1  0  0  0  0
  7 22  1  0  0  0  0
  7 23  1  0  0  0  0
  7 24  1  0  0  0  0
  8 25  1  0  0  0  0
  8 26  1  0  0  0  0
  8 27  1  0  0  0  0
  9 28  1  0  0  0  0
  9 29  1  0  0  0  0
  9 30  1  0  0  0  0
 10 31  1  0  0  0  0
 10 32  1  0  0  0  0
 11 33  1  0  0  0  0
 11 34  1  0  0  0  0
 12 35  1  0  0  0  0
 12 36  1  0  0  0  0
 16 37  1  0  0  0  0
 17 38  1  0  0  0  0
 18 39  1  0  0  0  0
M  END
> <POSIT::Probability>
0.94

> <POSIT::Method>
SHAPEFIT

> <ReceptorTitle>
UCSF-P4271-REFINED_LIGAND-BOUND-STATE_A__DU__LA1_A-201(A)

> <OMEGA_C>
a4lDwhq/5cEyy7dABpcxwh/w6sEU68JAG0A7wpr96MFkqJtAVutAwnkk58HFWJFAMsc6wvZM6MFA
K8hAIpg2wjUC68HGY4NAEm5JwnIN5MGKeE1Awfkqwj9M98F8sR0/Mhc4wnhU/8HYGdu9cGZDwjmh
5sF2D0pAEg8ywnH07MGrUOw/CjEywqshAcI7y+Q/tM4uwrG798Ghwek/r/w1wr5f6cHTattA/NIx
wrip68HbtJdAStQ/wuyC5sFmvdhAl902wsqY7MGopy5ApoYrwgBq+MFQSj9AKpc3wu93AMJXA6g/
u8RHwmlM5MGNo7tAyr4twoei68EMbtJA8AtLwt/D48EYCQxANYRLwkdM6sFlJnJALgdKwoRB3MH1
rmxAz6Aowla7/sFK9RE/KlAtwgBq9sG/ZZ6+mEEowlNv8MFZlTk/rlY8whho/sHPHb2+tuM1wpUT
+MHfJ8y+tGw2wqEjA8KlXiO/mVxBwvVd4MHr4SRAn9lCwrdo7sFbWSpAzFIvwj2U5sHeGwtALGUz
wtZU68HXaFE/gSYwwsv+A8LWLJA/l10ywv/EAsJwrTNApq9Awgjd5cGr4/dAO7s4wlWZ88FJeSZA
grktwrWz+MF803BA

> <OMEGA_E>
aJiCPg==

> <OMEGA_NBR>
      7753

$$$$
CACHE3-HO_1708_32
  -OEChem-03092622523D

 45 47  0     1  0  0  0  0  0999 V2000
  -44.5096  -33.9627    0.8553 C   0  0  0  0  0  0  0  0  0  0  0  0
  -45.2265  -33.1256   -0.0219 C   0  0  0  0  0  0  0  0  0  0  0  0
  -44.1060  -33.4860    2.1180 C   0  0  0  0  0  0  0  0  0  0  0  0
  -45.4728  -31.7894    0.3305 C   0  0  0  0  0  0  0  0  0  0  0  0
  -44.3649  -32.1518    2.4806 C   0  0  0  0  0  0  0  0  0  0  0  0
  -48.8396  -28.7080    5.7315 C   0  0  0  0  0  0  0  0  0  0  0  0
  -44.3538  -29.4092    6.0920 C   0  0  0  0  0  0  0  0  0  0  0  0
  -46.7652  -29.1074    4.8906 C   0  0  0  0  0  0  0  0  0  0  0  0
  -44.9752  -31.2814    1.5478 C   0  0  0  0  0  0  0  0  0  0  0  0
  -48.1721  -28.8968    4.5426 C   0  0  0  0  0  0  0  0  0  0  0  0
  -46.6507  -29.0433    6.2760 C   0  0  0  0  0  0  0  0  0  0  0  0
  -45.6203  -29.3217    4.1193 C   0  0  0  0  0  0  0  0  0  0  0  0
  -50.2646  -28.6666    3.1110 C   0  0  0  0  0  0  0  0  0  0  0  0
  -48.7482  -28.8916    3.1313 C   0  0  0  0  0  0  0  0  0  0  0  0
  -42.5483  -29.5710    0.6046 C   0  0  0  0  0  0  0  0  0  0  0  0
  -43.4150  -29.3025    1.8654 C   0  0  0  0  0  0  0  0  0  0  0  0
  -42.0499  -31.0281    0.4342 C   0  0  0  0  0  0  0  0  0  0  0  0
  -44.8757  -29.7838    1.7005 C   0  0  2  0  0  0  0  0  0  0  0  0
  -45.4473  -29.1933    6.8699 N   0  0  0  0  0  0  0  0  0  0  0  0
  -44.4222  -29.4718    4.7354 N   0  0  0  0  0  0  0  0  0  0  0  0
  -47.9200  -28.8005    6.7764 N   0  0  0  0  0  0  0  0  0  0  0  0
  -45.7893  -29.2946    2.7393 N   0  0  0  0  0  0  0  0  0  0  0  0
  -41.5543  -31.5618    1.6621 O   0  0  0  0  0  0  0  0  0  0  0  0
  -44.2687  -34.9729    0.5590 H   0  0  0  0  0  0  0  0  0  0  0  0
  -45.5860  -33.5114   -0.9643 H   0  0  0  0  0  0  0  0  0  0  0  0
  -43.5981  -34.1445    2.8072 H   0  0  0  0  0  0  0  0  0  0  0  0
  -46.0424  -31.1519   -0.3295 H   0  0  0  0  0  0  0  0  0  0  0  0
  -44.0995  -31.7945    3.4647 H   0  0  0  0  0  0  0  0  0  0  0  0
  -49.8977  -28.5198    5.8376 H   0  0  0  0  0  0  0  0  0  0  0  0
  -43.3936  -29.5360    6.5698 H   0  0  0  0  0  0  0  0  0  0  0  0
  -50.6228  -28.6726    2.0710 H   0  0  0  0  0  0  0  0  0  0  0  0
  -50.7619  -29.4697    3.6746 H   0  0  0  0  0  0  0  0  0  0  0  0
  -50.4973  -27.6959    3.5732 H   0  0  0  0  0  0  0  0  0  0  0  0
  -48.2655  -28.0869    2.5574 H   0  0  0  0  0  0  0  0  0  0  0  0
  -48.5301  -29.8607    2.6588 H   0  0  0  0  0  0  0  0  0  0  0  0
  -43.1486  -29.3128   -0.2803 H   0  0  0  0  0  0  0  0  0  0  0  0
  -41.6666  -28.9151    0.6537 H   0  0  0  0  0  0  0  0  0  0  0  0
  -42.9655  -29.8294    2.7200 H   0  0  0  0  0  0  0  0  0  0  0  0
  -43.4215  -28.2206    2.0639 H   0  0  0  0  0  0  0  0  0  0  0  0
  -42.8856  -31.6525    0.0852 H   0  0  0  0  0  0  0  0  0  0  0  0
  -41.2431  -31.0441   -0.3133 H   0  0  0  0  0  0  0  0  0  0  0  0
  -45.2244  -29.3561    0.7489 H   0  0  0  0  0  0  0  0  0  0  0  0
  -48.1443  -28.7054    7.7462 H   0  0  0  0  0  0  0  0  0  0  0  0
  -46.6412  -29.7936    2.5803 H   0  0  0  0  0  0  0  0  0  0  0  0
  -41.2576  -32.4536    1.5234 H   0  0  0  0  0  0  0  0  0  0  0  0
  1  2  1  0  0  0  0
  1  3  2  0  0  0  0
  2  4  2  0  0  0  0
  3  5  1  0  0  0  0
  4  9  1  0  0  0  0
  5  9  2  0  0  0  0
  6 10  2  0  0  0  0
  6 21  1  0  0  0  0
  7 19  1  0  0  0  0
  7 20  2  0  0  0  0
  8 10  1  0  0  0  0
  8 11  1  0  0  0  0
  8 12  2  0  0  0  0
  9 18  1  0  0  0  0
 10 14  1  0  0  0  0
 11 19  2  0  0  0  0
 11 21  1  0  0  0  0
 12 20  1  0  0  0  0
 12 22  1  0  0  0  0
 13 14  1  0  0  0  0
 15 16  1  0  0  0  0
 15 17  1  0  0  0  0
 16 18  1  0  0  0  0
 17 23  1  0  0  0  0
 18 22  1  0  0  0  0
  1 24  1  0  0  0  0
  2 25  1  0  0  0  0
  3 26  1  0  0  0  0
  4 27  1  0  0  0  0
  5 28  1  0  0  0  0
  6 29  1  0  0  0  0
  7 30  1  0  0  0  0
 13 31  1  0  0  0  0
 13 32  1  0  0  0  0
 13 33  1  0  0  0  0
 14 34  1  0  0  0  0
 14 35  1  0  0  0  0
 15 36  1  0  0  0  0
 15 37  1  0  0  0  0
 16 38  1  0  0  0  0
 16 39  1  0  0  0  0
 17 40  1  0  0  0  0
 17 41  1  0  0  0  0
 18 42  1  0  0  0  0
 21 43  1  0  0  0  0
 22 44  1  0  0  0  0
 23 45  1  0  0  0  0
M  END
> <POSIT::Probability>
0.79

> <POSIT::Method>
SHAPEFIT

> <ReceptorTitle>
UCSF-P4271-REFINED_LIGAND-BOUND-STATE_A__DU__LA1_A-201(A)

> <OMEGA_C>
3wkywsPZB8Jx9lo/5Oc0wp6ABMIgBbO8imwwwq3xBcLajQdAL+Q1wsFQ/sHZN6k+sXUxwmybAMKb
wh5AtltDwgGq5cGWaLdAVmoxwhNG68Fy8cJAkA87wtzb6MF6f5xAj+YzwjtA+sHoHsY/NbBAwros
58HPXJFATJo6wq9Y6MHt1MhAOns2wvCS6sEo0YNA8Q5JwiJV5cF/GkdAL/5CwgEi58GlZ0hAczEq
wnKR7MGKxRo/96gtwoVr6sGsxu4/JjMownQ5+MFCUN4+roAzwjdF7sHsqNk/Fco1wuCL6cGD1ttA
X7AxwkLG68EXiJdAE64/wmxn5sH219hAOCg3wlVb6sE9UC9AmDcmwpl+/MHavtQ/MxMxwjzkC8LV
GQ8/HVg2wqQLBsLV3na/fGQuwvKTCMJ4qDNAcCs4wiQ3+cHSr6i+8GUwwipb/sEYvV1AR5dHwpQo
5MG1zbpAD5MtwqJJ7MGaO9JAu31KwoRh5cGnigRANAxLwurB68HoLGtAQf1JwiyR3cHermRA5A9B
wvix4MGwqyNA1x5Cwrbi7sG7KSpAIJgswoWA6sFLgY++m6omwiJS58FWWic/n9wrwpWi7sGhFC5A
lK8twr3D4cFeFwRA3YorwkA4/cFqkK49+vgkwlBa+MEqbKC+1eU0wkTZ6sEiuj8/v5NAwpCk5cEc
4fdAlJA6wjpZ7sGNIyVA0gclwnrQAcIm/sI/

> <OMEGA_E>
HLcfPw==

> <OMEGA_NBR>
      9177

$$$$
CACHE3-HO_1708_33
  -OEChem-03092622523D

 39 41  0     0  0  0  0  0  0999 V2000
  -45.6303  -30.3339    0.6254 C   0  0  0  0  0  0  0  0  0  0  0  0
  -48.9321  -28.8909    5.8119 C   0  0  0  0  0  0  0  0  0  0  0  0
  -44.3962  -29.1919    6.0131 C   0  0  0  0  0  0  0  0  0  0  0  0
  -46.8497  -28.9332    4.8959 C   0  0  0  0  0  0  0  0  0  0  0  0
  -48.2786  -28.8361    4.6011 C   0  0  0  0  0  0  0  0  0  0  0  0
  -45.1249  -29.4727    1.7212 C   0  0  0  0  0  0  0  0  0  0  0  0
  -43.7825  -29.3240    1.5153 C   0  0  0  0  0  0  0  0  0  0  0  0
  -46.7067  -29.0403    6.2784 C   0  0  0  0  0  0  0  0  0  0  0  0
  -45.7147  -28.9726    4.0767 C   0  0  0  0  0  0  0  0  0  0  0  0
  -42.7957  -28.4218    2.2225 C   0  0  0  0  0  0  0  0  0  0  0  0
  -50.4133  -28.6210    3.2396 C   0  0  0  0  0  0  0  0  0  0  0  0
  -48.8851  -28.7109    3.2103 C   0  0  0  0  0  0  0  0  0  0  0  0
  -42.2871  -31.0957    0.6666 C   0  0  0  0  0  0  0  0  0  0  0  0
  -42.4975  -32.1898    1.7408 C   0  0  0  0  0  0  0  0  0  0  0  0
  -44.6050  -30.7937   -0.0512 N   0  0  0  0  0  0  0  0  0  0  0  0
  -45.4820  -29.1614    6.8306 N   0  0  0  0  0  0  0  0  0  0  0  0
  -44.4940  -29.1190    4.6552 N   0  0  0  0  0  0  0  0  0  0  0  0
  -47.9809  -29.0151    6.8237 N   0  0  0  0  0  0  0  0  0  0  0  0
  -43.5166  -30.2930    0.5797 N   0  0  0  0  0  0  0  0  0  0  0  0
  -45.9325  -28.9089    2.6937 N   0  0  0  0  0  0  0  0  0  0  0  0
  -42.6640  -31.6186    3.0410 O   0  0  0  0  0  0  0  0  0  0  0  0
  -46.6687  -30.5469    0.4187 H   0  0  0  0  0  0  0  0  0  0  0  0
  -50.0018  -28.8453    5.9540 H   0  0  0  0  0  0  0  0  0  0  0  0
  -43.4157  -29.2775    6.4577 H   0  0  0  0  0  0  0  0  0  0  0  0
  -42.4126  -28.9291    3.1202 H   0  0  0  0  0  0  0  0  0  0  0  0
  -41.9592  -28.1920    1.5462 H   0  0  0  0  0  0  0  0  0  0  0  0
  -43.2977  -27.4879    2.5154 H   0  0  0  0  0  0  0  0  0  0  0  0
  -50.7957  -28.5325    2.2120 H   0  0  0  0  0  0  0  0  0  0  0  0
  -50.8250  -29.5277    3.7070 H   0  0  0  0  0  0  0  0  0  0  0  0
  -50.7175  -27.7383    3.8212 H   0  0  0  0  0  0  0  0  0  0  0  0
  -48.4880  -27.8028    2.7334 H   0  0  0  0  0  0  0  0  0  0  0  0
  -48.5954  -29.5922    2.6192 H   0  0  0  0  0  0  0  0  0  0  0  0
  -41.4418  -30.4521    0.9515 H   0  0  0  0  0  0  0  0  0  0  0  0
  -42.0792  -31.5646   -0.3065 H   0  0  0  0  0  0  0  0  0  0  0  0
  -43.3959  -32.7718    1.4877 H   0  0  0  0  0  0  0  0  0  0  0  0
  -41.6210  -32.8544    1.7514 H   0  0  0  0  0  0  0  0  0  0  0  0
  -48.1877  -29.0771    7.8001 H   0  0  0  0  0  0  0  0  0  0  0  0
  -46.7427  -28.4124    2.3820 H   0  0  0  0  0  0  0  0  0  0  0  0
  -42.7909  -32.3119    3.6780 H   0  0  0  0  0  0  0  0  0  0  0  0
  1  6  1  0  0  0  0
  1 15  2  0  0  0  0
  2  5  2  0  0  0  0
  2 18  1  0  0  0  0
  3 16  1  0  0  0  0
  3 17  2  0  0  0  0
  4  5  1  0  0  0  0
  4  8  1  0  0  0  0
  4  9  2  0  0  0  0
  5 12  1  0  0  0  0
  6  7  2  0  0  0  0
  6 20  1  0  0  0  0
  7 10  1  0  0  0  0
  7 19  1  0  0  0  0
  8 16  2  0  0  0  0
  8 18  1  0  0  0  0
  9 17  1  0  0  0  0
  9 20  1  0  0  0  0
 11 12  1  0  0  0  0
 13 14  1  0  0  0  0
 13 19  1  0  0  0  0
 14 21  1  0  0  0  0
 15 19  1  0  0  0  0
  1 22  1  0  0  0  0
  2 23  1  0  0  0  0
  3 24  1  0  0  0  0
 10 25  1  0  0  0  0
 10 26  1  0  0  0  0
 10 27  1  0  0  0  0
 11 28  1  0  0  0  0
 11 29  1  0  0  0  0
 11 30  1  0  0  0  0
 12 31  1  0  0  0  0
 12 32  1  0  0  0  0
 13 33  1  0  0  0  0
 13 34  1  0  0  0  0
 14 35  1  0  0  0  0
 14 36  1  0  0  0  0
 18 37  1  0  0  0  0
 20 38  1  0  0  0  0
 21 39  1  0  0  0  0
M  END
> <POSIT::Probability>
0.79

> <POSIT::Method>
SHAPEFIT

> <ReceptorTitle>
UCSF-P4271-REFINED_LIGAND-BOUND-STATE_A__DU__LA1_A-201(A)

> <OMEGA_C>
ZYU2wsKr8sFwGCA/e7pDwpIg58Fk+7lAwJUxwgSJ6cGTa8BADmY7wi5358EWq5xAVR1BwlKw5sH4
O5NA7380wgLI68HIUdw/RCEvwoaX6sFY9ME/pdM6wnBS6MFt6MhA09s2wvLH58GCdIJA1y4rwvBf
48EIPg5ARKdJwt735MFcVU9AW4pDwgKw5cEWdk1A+SUpwgLE+MHQpio/cv0pwlbCAMK40t4/gGsy
woxZ9sEAlFG9kO01wnpK6cE9lNpA4/kxwp7z6MGh95RAeOw/wgAf6MGhW9pADBEuwiBY8sGwaRQ/
4bo3wmRF58HsZCxA+6cqwury/MEYn0JAvKw6wg5g9MEaZNY+ywFIwjTD5sFIh75Asqktwkg46sGb
pc5AeqYpws5u58H/sUdAP9Ynwk2J4cH86cU/1jAtwjDn28E8/CBAyy5LwpJC5MEWkQ1AyExLwsQ4
7MFwP21AvN5Kwv/n3cH5jXRArPNBwhVs3sFf7y5AuGFCwtm87MHXoCdAYcQlwtGd88Epl3M/GFEo
wleE/MEy65y+c5UtwlcWA8KDbr4/7Xsmwt1qA8KkLOA/McBAwtud6MGJmvlAfvg6wo9M48EscxhA
4Skrwlc/AcJhZGtA

> <OMEGA_E>
IOokPw==

> <OMEGA_NBR>
     10478

$$$$
CACHE3-HO_1708_34
  -OEChem-03092622523D

 44 45  0     1  0  0  0  0  0999 V2000
  -48.8467  -28.8137    5.6742 C   0  0  0  0  0  0  0  0  0  0  0  0
  -44.3596  -29.2874    6.2589 C   0  0  0  0  0  0  0  0  0  0  0  0
  -46.7092  -29.0590    4.9015 C   0  0  0  0  0  0  0  0  0  0  0  0
  -48.1224  -28.9252    4.5061 C   0  0  0  0  0  0  0  0  0  0  0  0
  -46.6754  -29.0537    6.2990 C   0  0  0  0  0  0  0  0  0  0  0  0
  -45.4841  -29.1344    4.2061 C   0  0  0  0  0  0  0  0  0  0  0  0
  -50.2216  -28.7815    3.0773 C   0  0  0  0  0  0  0  0  0  0  0  0
  -44.0083  -33.6417    1.5719 C   0  0  0  0  0  0  0  0  0  0  0  0
  -46.0163  -33.1849    0.1151 C   0  0  0  0  0  0  0  0  0  0  0  0
  -42.5776  -30.4545    0.6952 C   0  0  0  0  0  0  0  0  0  0  0  0
  -48.6839  -28.9187    3.0930 C   0  0  0  0  0  0  0  0  0  0  0  0
  -44.9447  -31.2789    1.2546 C   0  0  0  0  0  0  0  0  0  0  0  0
  -44.1636  -29.0465    2.0480 C   0  0  0  0  0  0  0  0  0  0  0  0
  -44.6630  -32.6389    0.5957 C   0  0  0  0  0  0  0  0  0  0  0  0
  -43.7021  -30.4979    1.7563 C   0  0  2  0  0  0  0  0  0  0  0  0
  -45.5087  -29.1652    6.9644 N   0  0  0  0  0  0  0  0  0  0  0  0
  -44.3303  -29.2548    4.9060 N   0  0  0  0  0  0  0  0  0  0  0  0
  -47.9714  -28.8847    6.7501 N   0  0  0  0  0  0  0  0  0  0  0  0
  -45.4393  -28.9976    2.8238 N   0  0  0  0  0  0  0  0  0  0  0  0
  -43.1782  -31.0983    2.9441 O   0  0  0  0  0  0  0  0  0  0  0  0
  -49.9177  -28.6914    5.7412 H   0  0  0  0  0  0  0  0  0  0  0  0
  -43.4313  -29.4157    6.7958 H   0  0  0  0  0  0  0  0  0  0  0  0
  -50.5797  -28.7816    2.0372 H   0  0  0  0  0  0  0  0  0  0  0  0
  -50.6706  -29.6266    3.6196 H   0  0  0  0  0  0  0  0  0  0  0  0
  -50.5104  -27.8383    3.5642 H   0  0  0  0  0  0  0  0  0  0  0  0
  -43.0404  -33.2446    1.9118 H   0  0  0  0  0  0  0  0  0  0  0  0
  -44.6677  -33.7923    2.4394 H   0  0  0  0  0  0  0  0  0  0  0  0
  -43.8510  -34.6023    1.0597 H   0  0  0  0  0  0  0  0  0  0  0  0
  -46.4765  -32.4664   -0.5791 H   0  0  0  0  0  0  0  0  0  0  0  0
  -45.8624  -34.1448   -0.3996 H   0  0  0  0  0  0  0  0  0  0  0  0
  -46.6791  -33.3348    0.9801 H   0  0  0  0  0  0  0  0  0  0  0  0
  -41.7193  -29.8928    1.0925 H   0  0  0  0  0  0  0  0  0  0  0  0
  -42.2635  -31.4802    0.4519 H   0  0  0  0  0  0  0  0  0  0  0  0
  -42.9504  -29.9597   -0.2138 H   0  0  0  0  0  0  0  0  0  0  0  0
  -48.2471  -28.0728    2.5421 H   0  0  0  0  0  0  0  0  0  0  0  0
  -48.4073  -29.8610    2.5975 H   0  0  0  0  0  0  0  0  0  0  0  0
  -45.4638  -30.6486    0.5176 H   0  0  0  0  0  0  0  0  0  0  0  0
  -45.6043  -31.4529    2.1176 H   0  0  0  0  0  0  0  0  0  0  0  0
  -43.3792  -28.5362    2.6262 H   0  0  0  0  0  0  0  0  0  0  0  0
  -44.3122  -28.5244    1.0912 H   0  0  0  0  0  0  0  0  0  0  0  0
  -44.0012  -32.4930   -0.2708 H   0  0  0  0  0  0  0  0  0  0  0  0
  -48.2396  -28.8226    7.7115 H   0  0  0  0  0  0  0  0  0  0  0  0
  -46.0156  -29.7268    2.4548 H   0  0  0  0  0  0  0  0  0  0  0  0
  -43.8570  -31.1331    3.6078 H   0  0  0  0  0  0  0  0  0  0  0  0
  1  4  2  0  0  0  0
  1 18  1  0  0  0  0
  2 16  1  0  0  0  0
  2 17  2  0  0  0  0
  3  4  1  0  0  0  0
  3  5  1  0  0  0  0
  3  6  2  0  0  0  0
  4 11  1  0  0  0  0
  5 16  2  0  0  0  0
  5 18  1  0  0  0  0
  6 17  1  0  0  0  0
  6 19  1  0  0  0  0
  7 11  1  0  0  0  0
  8 14  1  0  0  0  0
  9 14  1  0  0  0  0
 10 15  1  0  0  0  0
 12 14  1  0  0  0  0
 12 15  1  0  0  0  0
 13 15  1  0  0  0  0
 13 19  1  0  0  0  0
 15 20  1  0  0  0  0
  1 21  1  0  0  0  0
  2 22  1  0  0  0  0
  7 23  1  0  0  0  0
  7 24  1  0  0  0  0
  7 25  1  0  0  0  0
  8 26  1  0  0  0  0
  8 27  1  0  0  0  0
  8 28  1  0  0  0  0
  9 29  1  0  0  0  0
  9 30  1  0  0  0  0
  9 31  1  0  0  0  0
 10 32  1  0  0  0  0
 10 33  1  0  0  0  0
 10 34  1  0  0  0  0
 11 35  1  0  0  0  0
 11 36  1  0  0  0  0
 12 37  1  0  0  0  0
 12 38  1  0  0  0  0
 13 39  1  0  0  0  0
 13 40  1  0  0  0  0
 14 41  1  0  0  0  0
 18 42  1  0  0  0  0
 19 43  1  0  0  0  0
 20 44  1  0  0  0  0
M  END
> <POSIT::Probability>
0.95

> <POSIT::Method>
SHAPEFIT

> <ReceptorTitle>
UCSF-P4271-REFINED_LIGAND-BOUND-STATE_A__DU__LA1_A-201(A)

> <OMEGA_C>
EmNDwoiC5sGukrVAPnAxwpRM6sGGSMhAMNY6wsl46MEe2ZxAWH1Awudm58HsMZBAqbM6wv1t6MGs
kclAue81wkET6cGmmIZA7+JIwnhA5sEB8kRAiggwwhCRBsIsNMk/uhA4wlm9BMJgwes9gE8qwr6i
88E0+zE/WLxCwpFZ58Gl80VAZMczwjY7+sE6mKA/jKcwwi1f6MEtEgNA86YywkWOAsLUfRg/884u
wqz788EO0OA/3wg2wkZS6cH4295ARlIxwuMJ6sEE/pxAu+I/wuUT58EiAdhA3cE1whX758G1uDRA
fbYswlPJ+MGXazxAuqtHwgqI5cEOuLdAs7ktwl9T68HPdtlAklFKwspA5sEJYQJAta5KwlQD7cGn
p2dArApKwvC03sHAG2RAZykswnn6BMJUtPQ/tKsywlwrB8JLHxxAZGcvwstoCsLJpIc/++c5wpvd
AcKGQRS/IHM3wkiUCML+lcy+cLc6wthWBcKY6Ho/neAmwmgk78FJ2Is/0g0pwmrX+8GDXuc+L80r
wo2t78Hd6Fq+BP1AwgaV4MGDsSJADaFBwmrj7sFqPSZA89o1wj8w9cF4gwQ/w2o2woef+8EwhwdA
T4QtwhdK5MEUEyhAsT8xwgky5MEdrYs/RQEwwtX4AcIko4q+UvVAwrWU5sGyxPZA9w84wonQ7cF2
Gx1AlW0vwoEQ+cHm5WZA

> <OMEGA_E>
wIpwPg==

> <OMEGA_NBR>
     11879

$$$$
CACHE3-HO_1708_37
  -OEChem-03092622523D

 39 41  0     0  0  0  0  0  0999 V2000
  -48.8689  -28.7265    5.7310 C   0  0  0  0  0  0  0  0  0  0  0  0
  -44.3796  -29.3407    6.1128 C   0  0  0  0  0  0  0  0  0  0  0  0
  -46.7877  -29.1070    4.8709 C   0  0  0  0  0  0  0  0  0  0  0  0
  -48.2044  -28.9038    4.5360 C   0  0  0  0  0  0  0  0  0  0  0  0
  -46.6832  -29.0453    6.2632 C   0  0  0  0  0  0  0  0  0  0  0  0
  -45.6135  -29.2999    4.1170 C   0  0  0  0  0  0  0  0  0  0  0  0
  -45.2535  -31.9629    0.2568 C   0  0  0  0  0  0  0  0  0  0  0  0
  -43.9890  -31.4997   -0.4996 C   0  0  0  0  0  0  0  0  0  0  0  0
  -44.8296  -32.0401    1.7209 C   0  0  0  0  0  0  0  0  0  0  0  0
  -42.9775  -31.0478    0.5754 C   0  0  0  0  0  0  0  0  0  0  0  0
  -43.8022  -30.9042    1.8603 C   0  0  0  0  0  0  0  0  0  0  0  0
  -50.3316  -28.6158    3.1793 C   0  0  0  0  0  0  0  0  0  0  0  0
  -48.8124  -28.8733    3.1439 C   0  0  0  0  0  0  0  0  0  0  0  0
  -44.4605  -29.4832    1.8723 C   0  0  0  0  0  0  0  0  0  0  0  0
  -45.4882  -29.1729    6.8726 N   0  0  0  0  0  0  0  0  0  0  0  0
  -44.4244  -29.3914    4.7593 N   0  0  0  0  0  0  0  0  0  0  0  0
  -47.9506  -28.8227    6.7695 N   0  0  0  0  0  0  0  0  0  0  0  0
  -45.6695  -29.3795    2.7293 N   0  0  0  0  0  0  0  0  0  0  0  0
  -42.9690  -31.1263    2.9960 O   0  0  0  0  0  0  0  0  0  0  0  0
  -49.9275  -28.5432    5.8416 H   0  0  0  0  0  0  0  0  0  0  0  0
  -43.4230  -29.4379    6.6046 H   0  0  0  0  0  0  0  0  0  0  0  0
  -46.0693  -31.2364    0.1280 H   0  0  0  0  0  0  0  0  0  0  0  0
  -45.5806  -32.9493   -0.1039 H   0  0  0  0  0  0  0  0  0  0  0  0
  -43.5724  -32.3304   -1.0883 H   0  0  0  0  0  0  0  0  0  0  0  0
  -44.2321  -30.6615   -1.1692 H   0  0  0  0  0  0  0  0  0  0  0  0
  -45.6890  -31.8764    2.3878 H   0  0  0  0  0  0  0  0  0  0  0  0
  -44.3711  -33.0143    1.9462 H   0  0  0  0  0  0  0  0  0  0  0  0
  -42.1879  -31.8026    0.7050 H   0  0  0  0  0  0  0  0  0  0  0  0
  -42.5228  -30.0853    0.2982 H   0  0  0  0  0  0  0  0  0  0  0  0
  -50.7258  -28.6024    2.1524 H   0  0  0  0  0  0  0  0  0  0  0  0
  -50.8257  -29.4151    3.7512 H   0  0  0  0  0  0  0  0  0  0  0  0
  -50.5279  -27.6460    3.6599 H   0  0  0  0  0  0  0  0  0  0  0  0
  -48.3305  -28.0724    2.5640 H   0  0  0  0  0  0  0  0  0  0  0  0
  -48.6282  -29.8415    2.6553 H   0  0  0  0  0  0  0  0  0  0  0  0
  -43.7156  -28.7610    2.2378 H   0  0  0  0  0  0  0  0  0  0  0  0
  -44.7454  -29.2262    0.8414 H   0  0  0  0  0  0  0  0  0  0  0  0
  -48.1738  -28.7427    7.7410 H   0  0  0  0  0  0  0  0  0  0  0  0
  -46.2230  -30.1862    2.5224 H   0  0  0  0  0  0  0  0  0  0  0  0
  -42.3396  -30.4187    3.0708 H   0  0  0  0  0  0  0  0  0  0  0  0
  1  4  2  0  0  0  0
  1 17  1  0  0  0  0
  2 15  1  0  0  0  0
  2 16  2  0  0  0  0
  3  4  1  0  0  0  0
  3  5  1  0  0  0  0
  3  6  2  0  0  0  0
  4 13  1  0  0  0  0
  5 15  2  0  0  0  0
  5 17  1  0  0  0  0
  6 16  1  0  0  0  0
  6 18  1  0  0  0  0
  7  8  1  0  0  0  0
  7  9  1  0  0  0  0
  8 10  1  0  0  0  0
  9 11  1  0  0  0  0
 10 11  1  0  0  0  0
 11 14  1  0  0  0  0
 11 19  1  0  0  0  0
 12 13  1  0  0  0  0
 14 18  1  0  0  0  0
  1 20  1  0  0  0  0
  2 21  1  0  0  0  0
  7 22  1  0  0  0  0
  7 23  1  0  0  0  0
  8 24  1  0  0  0  0
  8 25  1  0  0  0  0
  9 26  1  0  0  0  0
  9 27  1  0  0  0  0
 10 28  1  0  0  0  0
 10 29  1  0  0  0  0
 12 30  1  0  0  0  0
 12 31  1  0  0  0  0
 12 32  1  0  0  0  0
 13 33  1  0  0  0  0
 13 34  1  0  0  0  0
 14 35  1  0  0  0  0
 14 36  1  0  0  0  0
 17 37  1  0  0  0  0
 18 38  1  0  0  0  0
 19 39  1  0  0  0  0
M  END
> <POSIT::Probability>
0.94

> <POSIT::Method>
SHAPEFIT

> <ReceptorTitle>
UCSF-P4271-REFINED_LIGAND-BOUND-STATE_A__DU__LA1_A-201(A)

> <OMEGA_C>
u3lDwuHP5cFNZLdAtYQxwtG56sFVnMNAmCY7wi/b6MHS3ptAR9FAwgQ758GiJpFAjLs6wtFc6MEl
bMhAOXQ2whxm6sFTvoNAlQM1whC0/8EHfIM+s/QvwnD/+8Hpzv++ilEzwhMpAMKCR9w//+grwu5h
+MGQSxM/bjUvws8798FRHe4/m1NJwiXt5MHTeUtA5j9Dwor85sEjNklAktcxwobd68GxqO8/4vM1
wgVi6cGt7NtAm7Ixwqch68GMTJhAd80/wvSU5sH3n9hAjK02wkIJ68HjrC5ARuArwq8C+cHCvj9A
t7VHwodY5MH77bpAIbEtwuSA68HhWNNA/UY4wijk+cHkBgM+fVI2whjMA8KJr9S9K0ouwklSAcLY
TYu/q+0wwtNK9cEpqJW/isE2wsoC/8Ea0RhAAHwxwp0OBMIhHvk/cMAowsBr/sF2ezQ/VRcqwsmu
8ME+qJg+PedKwsvR5MGxwQlAfk1Lwh5S68GVE3BAmxxKwgQr3cEIPGpAaVJBwj6U4MFNGSRATINC
wle77sHa8ClA0NwuwnIW5sFTOA9APvsywinP6cGAZlc/9LFAwhbx5cF7tvdAYeQ4wmd98cEnbyFA
wlspwnNZ88GKiERA

> <OMEGA_E>
EL2CPg==

> <OMEGA_NBR>
     13180

$$$$
CACHE3-HO_1708_41
  -OEChem-03092622523D

 42 44  0     1  0  0  0  0  0999 V2000
  -48.8517  -28.7095    5.7177 C   0  0  0  0  0  0  0  0  0  0  0  0
  -44.3737  -29.3776    6.1199 C   0  0  0  0  0  0  0  0  0  0  0  0
  -46.7721  -29.1161    4.8636 C   0  0  0  0  0  0  0  0  0  0  0  0
  -48.1886  -28.9120    4.5257 C   0  0  0  0  0  0  0  0  0  0  0  0
  -46.6730  -29.0551    6.2571 C   0  0  0  0  0  0  0  0  0  0  0  0
  -45.5921  -29.2998    4.1143 C   0  0  0  0  0  0  0  0  0  0  0  0
  -45.7367  -33.3939    0.5494 C   0  0  0  0  0  0  0  0  0  0  0  0
  -44.3524  -33.2922    1.2145 C   0  0  0  0  0  0  0  0  0  0  0  0
  -45.6315  -31.8737    0.3372 C   0  0  0  0  0  0  0  0  0  0  0  0
  -44.8126  -31.8855    1.6422 C   0  0  0  0  0  0  0  0  0  0  0  0
  -50.3231  -28.6583    3.1763 C   0  0  0  0  0  0  0  0  0  0  0  0
  -42.6731  -30.7589    0.6662 C   0  0  0  0  0  0  0  0  0  0  0  0
  -48.8026  -28.9105    3.1364 C   0  0  0  0  0  0  0  0  0  0  0  0
  -44.4002  -29.3916    1.8756 C   0  0  0  0  0  0  0  0  0  0  0  0
  -43.7249  -30.7953    1.8052 C   0  0  1  0  0  0  0  0  0  0  0  0
  -45.4838  -29.1990    6.8733 N   0  0  0  0  0  0  0  0  0  0  0  0
  -44.4091  -29.4031    4.7661 N   0  0  0  0  0  0  0  0  0  0  0  0
  -47.9363  -28.8016    6.7580 N   0  0  0  0  0  0  0  0  0  0  0  0
  -45.6286  -29.3420    2.7220 N   0  0  0  0  0  0  0  0  0  0  0  0
  -43.0179  -31.1074    3.0029 O   0  0  0  0  0  0  0  0  0  0  0  0
  -49.9081  -28.5120    5.8246 H   0  0  0  0  0  0  0  0  0  0  0  0
  -43.4234  -29.5046    6.6172 H   0  0  0  0  0  0  0  0  0  0  0  0
  -45.7648  -33.9904   -0.3744 H   0  0  0  0  0  0  0  0  0  0  0  0
  -46.5499  -33.7139    1.2174 H   0  0  0  0  0  0  0  0  0  0  0  0
  -44.1759  -33.9983    2.0393 H   0  0  0  0  0  0  0  0  0  0  0  0
  -43.4974  -33.3153    0.5228 H   0  0  0  0  0  0  0  0  0  0  0  0
  -45.0773  -31.5634   -0.5609 H   0  0  0  0  0  0  0  0  0  0  0  0
  -46.5846  -31.3268    0.3871 H   0  0  0  0  0  0  0  0  0  0  0  0
  -45.4673  -31.9298    2.5251 H   0  0  0  0  0  0  0  0  0  0  0  0
  -50.7235  -28.6658    2.1518 H   0  0  0  0  0  0  0  0  0  0  0  0
  -50.8104  -29.4487    3.7660 H   0  0  0  0  0  0  0  0  0  0  0  0
  -50.5205  -27.6805    3.6398 H   0  0  0  0  0  0  0  0  0  0  0  0
  -41.9447  -29.9588    0.8645 H   0  0  0  0  0  0  0  0  0  0  0  0
  -42.1513  -31.7260    0.6181 H   0  0  0  0  0  0  0  0  0  0  0  0
  -43.1774  -30.5662   -0.2923 H   0  0  0  0  0  0  0  0  0  0  0  0
  -48.3270  -28.1188    2.5390 H   0  0  0  0  0  0  0  0  0  0  0  0
  -48.6169  -29.8870    2.6652 H   0  0  0  0  0  0  0  0  0  0  0  0
  -43.6701  -28.6784    2.2860 H   0  0  0  0  0  0  0  0  0  0  0  0
  -44.6735  -29.0893    0.8539 H   0  0  0  0  0  0  0  0  0  0  0  0
  -48.1585  -28.6994    7.7277 H   0  0  0  0  0  0  0  0  0  0  0  0
  -46.1588  -30.1562    2.4853 H   0  0  0  0  0  0  0  0  0  0  0  0
  -42.3358  -30.4618    3.1458 H   0  0  0  0  0  0  0  0  0  0  0  0
  1  4  2  0  0  0  0
  1 18  1  0  0  0  0
  2 16  1  0  0  0  0
  2 17  2  0  0  0  0
  3  4  1  0  0  0  0
  3  5  1  0  0  0  0
  3  6  2  0  0  0  0
  4 13  1  0  0  0  0
  5 16  2  0  0  0  0
  5 18  1  0  0  0  0
  6 17  1  0  0  0  0
  6 19  1  0  0  0  0
  7  8  1  0  0  0  0
  7  9  1  0  0  0  0
  8 10  1  0  0  0  0
  9 10  1  0  0  0  0
 10 15  1  0  0  0  0
 11 13  1  0  0  0  0
 12 15  1  0  0  0  0
 14 15  1  0  0  0  0
 14 19  1  0  0  0  0
 15 20  1  0  0  0  0
  1 21  1  0  0  0  0
  2 22  1  0  0  0  0
  7 23  1  0  0  0  0
  7 24  1  0  0  0  0
  8 25  1  0  0  0  0
  8 26  1  0  0  0  0
  9 27  1  0  0  0  0
  9 28  1  0  0  0  0
 10 29  1  0  0  0  0
 11 30  1  0  0  0  0
 11 31  1  0  0  0  0
 11 32  1  0  0  0  0
 12 33  1  0  0  0  0
 12 34  1  0  0  0  0
 12 35  1  0  0  0  0
 13 36  1  0  0  0  0
 13 37  1  0  0  0  0
 14 38  1  0  0  0  0
 14 39  1  0  0  0  0
 18 40  1  0  0  0  0
 19 41  1  0  0  0  0
 20 42  1  0  0  0  0
M  END
> <POSIT::Probability>
0.95

> <POSIT::Method>
SHAPEFIT

> <ReceptorTitle>
UCSF-P4271-REFINED_LIGAND-BOUND-STATE_A__DU__LA1_A-201(A)

> <OMEGA_C>
I2hDwiGt5cG497ZAp34xwjkF68GN1sNAoxY7wr3t6MGIoptAHcFAwtlL58HU0pBAK7E6wuJw6MFo
OshASV42whBm6sEGqINAW/I2wmCTBcIIpQw/2GgxwjsrBcKkdZs/r4Y2wmv9/sFIoaw+EUAzwoAV
/8GuNNI/4kpJwkZE5cEMSEtATbEqwiAS9sFcjCo/0jVDwsFI58F4u0hAx5kxwuch68GoE/A/SOYu
wtRc9sGuEOc/cO81wnuX6cHq8dtA76IxwnU568G+g5hAyb4/wqRp5sHOQdhAr4M2wma86sG4NS5A
UhIswufb+MFwL0BA46FHwqgY5MEeY7pAkbEtwlQJ7MHlv9NAJA83wjf2B8LEr7++IjM6wg3bBsJU
05s/H7Qwwkz+B8LegwJAW/0twt5CBcKy1QU/I080wseB/MGClQ+/nlY6wjed+sH2NcY+d941wkNw
/8HsmiFA5eRKwpNT5cF4tglA4j1Lwv6W68GqBnFA+BRKwqVx3cG08mhAascnwpmr78FSUF0/7Joo
wtHO/cHiOR4/nrUswomH9MFvopW+zE5Bwjrz4MFafyJAt3dCwpMY78FRkypAOa4uwl9t5cGVThJA
sLEyws626MFUmFo/T6JAwmKY5cENSfdAlaI4wtM/8cFODx9A1Vcpwr+x88GGVUlA

> <OMEGA_E>
YNBrPg==

> <OMEGA_NBR>
     14545

$$$$
CACHE3-HO_1708_43
  -OEChem-03092622523D

 40 43  0     1  0  0  0  0  0999 V2000
  -48.8493  -28.7146    5.7289 C   0  0  0  0  0  0  0  0  0  0  0  0
  -44.3697  -29.3849    6.0977 C   0  0  0  0  0  0  0  0  0  0  0  0
  -46.7751  -29.1105    4.8630 C   0  0  0  0  0  0  0  0  0  0  0  0
  -48.1905  -28.9047    4.5329 C   0  0  0  0  0  0  0  0  0  0  0  0
  -46.6653  -29.0504    6.2550 C   0  0  0  0  0  0  0  0  0  0  0  0
  -45.6078  -29.3094    4.1020 C   0  0  0  0  0  0  0  0  0  0  0  0
  -45.4103  -32.3118    0.4294 C   0  0  0  0  0  0  0  0  0  0  0  0
  -44.4869  -33.5423    0.6144 C   0  0  0  0  0  0  0  0  0  0  0  0
  -43.8346  -31.7002    2.3807 C   0  0  0  0  0  0  0  0  0  0  0  0
  -43.0137  -31.3892    0.0530 C   0  0  0  0  0  0  0  0  0  0  0  0
  -43.3387  -30.2629    2.1288 C   0  0  2  0  0  0  0  0  0  0  0  0
  -43.9812  -32.1490    0.9546 C   0  0  0  0  0  0  0  0  0  0  0  0
  -50.3182  -28.6283    3.1782 C   0  0  0  0  0  0  0  0  0  0  0  0
  -48.8005  -28.8875    3.1421 C   0  0  0  0  0  0  0  0  0  0  0  0
  -44.5026  -29.2733    1.8045 C   0  0  0  0  0  0  0  0  0  0  0  0
  -45.4710  -29.1945    6.8609 N   0  0  0  0  0  0  0  0  0  0  0  0
  -44.4209  -29.4291    4.7448 N   0  0  0  0  0  0  0  0  0  0  0  0
  -47.9281  -28.8124    6.7648 N   0  0  0  0  0  0  0  0  0  0  0  0
  -45.6822  -29.3833    2.7092 N   0  0  0  0  0  0  0  0  0  0  0  0
  -42.4959  -30.3800    0.9527 O   0  0  0  0  0  0  0  0  0  0  0  0
  -49.9059  -28.5218    5.8421 H   0  0  0  0  0  0  0  0  0  0  0  0
  -43.4139  -29.5063    6.5858 H   0  0  0  0  0  0  0  0  0  0  0  0
  -45.6704  -31.9634   -0.5811 H   0  0  0  0  0  0  0  0  0  0  0  0
  -46.2669  -32.1579    1.1021 H   0  0  0  0  0  0  0  0  0  0  0  0
  -44.6886  -34.2661    1.4178 H   0  0  0  0  0  0  0  0  0  0  0  0
  -44.0921  -34.0716   -0.2654 H   0  0  0  0  0  0  0  0  0  0  0  0
  -43.0947  -32.3020    2.9289 H   0  0  0  0  0  0  0  0  0  0  0  0
  -44.7933  -31.7177    2.9196 H   0  0  0  0  0  0  0  0  0  0  0  0
  -42.2118  -32.0455   -0.3161 H   0  0  0  0  0  0  0  0  0  0  0  0
  -43.5368  -30.9335   -0.8008 H   0  0  0  0  0  0  0  0  0  0  0  0
  -42.7699  -29.9001    2.9975 H   0  0  0  0  0  0  0  0  0  0  0  0
  -50.7146  -28.6247    2.1521 H   0  0  0  0  0  0  0  0  0  0  0  0
  -50.8117  -29.4214    3.7590 H   0  0  0  0  0  0  0  0  0  0  0  0
  -50.5125  -27.6536    3.6497 H   0  0  0  0  0  0  0  0  0  0  0  0
  -48.3189  -28.0928    2.5534 H   0  0  0  0  0  0  0  0  0  0  0  0
  -48.6181  -29.8606    2.6628 H   0  0  0  0  0  0  0  0  0  0  0  0
  -44.1107  -28.2480    1.8752 H   0  0  0  0  0  0  0  0  0  0  0  0
  -44.8404  -29.4666    0.7756 H   0  0  0  0  0  0  0  0  0  0  0  0
  -48.1467  -28.7236    7.7366 H   0  0  0  0  0  0  0  0  0  0  0  0
  -46.0974  -30.2702    2.5066 H   0  0  0  0  0  0  0  0  0  0  0  0
  1  4  2  0  0  0  0
  1 18  1  0  0  0  0
  2 16  1  0  0  0  0
  2 17  2  0  0  0  0
  3  4  1  0  0  0  0
  3  5  1  0  0  0  0
  3  6  2  0  0  0  0
  4 14  1  0  0  0  0
  5 16  2  0  0  0  0
  5 18  1  0  0  0  0
  6 17  1  0  0  0  0
  6 19  1  0  0  0  0
  7  8  1  0  0  0  0
  7 12  1  0  0  0  0
  8 12  1  0  0  0  0
  9 11  1  0  0  0  0
  9 12  1  0  0  0  0
 10 12  1  0  0  0  0
 10 20  1  0  0  0  0
 11 15  1  0  0  0  0
 11 20  1  0  0  0  0
 13 14  1  0  0  0  0
 15 19  1  0  0  0  0
  1 21  1  0  0  0  0
  2 22  1  0  0  0  0
  7 23  1  0  0  0  0
  7 24  1  0  0  0  0
  8 25  1  0  0  0  0
  8 26  1  0  0  0  0
  9 27  1  0  0  0  0
  9 28  1  0  0  0  0
 10 29  1  0  0  0  0
 10 30  1  0  0  0  0
 11 31  1  0  0  0  0
 13 32  1  0  0  0  0
 13 33  1  0  0  0  0
 13 34  1  0  0  0  0
 14 35  1  0  0  0  0
 14 36  1  0  0  0  0
 15 37  1  0  0  0  0
 15 38  1  0  0  0  0
 18 39  1  0  0  0  0
 19 40  1  0  0  0  0
M  END
> <POSIT::Probability>
0.9

> <POSIT::Method>
SHAPEFIT

> <ReceptorTitle>
UCSF-P4271-REFINED_LIGAND-BOUND-STATE_A__DU__LA1_A-201(A)

> <OMEGA_C>
qWVDwo635cGIU7dAkXoxwlcU68F7IMNArhk7wl3i6MFenZtAGcNAws0858FgDZFAOqk6wh5n6MHO
KMhAam42wrV56sFwQ4NAIKQ1wkE/AcLw1ds+kPIxwlQrBsL0SR0/lVYvwv6Z/cEKXRhAFA4swhwd
+8Hg61g94VotwnUa8sGgPQhAtewvwo2YAMKgY3Q/0kVJwsUG5cHQZ0tArDNDwogZ58EsGElArwIy
wswv6sH0+OY/ROI1wmaO6cGEjNtA9K4xwrZu68Ee1ZdAbLY/wr5/5sEYedhAmLo2whkR68GGYy1A
wvspwiQK88F45nM/n59Hwpcs5MFn8rpA3qctwt8M7MGgvtJAeK42wgK1/8G0wBS/SBE5wq2hAMJv
EY0/KsEywoAQCcLPebU/W14wwlRJCMLn34e+BWEswjo1AcLrcjtAXCwzwsW9/cEj2zpA5dgowo0u
AML73aG+oiUuwuV398GB/ky/ZRQrwlIz78GR1z9Au9tKwlX/5MFlvAlAOT9Lwh5f68Gxk3BAxwxK
wqQ63cELlGlAgkZBwgq+4MElayNA9HhCwoPi7sHLaipAT3Ewwt774cE3B/A/jlwzwpO768EEjkY/
OpZAwuzJ5cHkkfdAwmM4wnIp8sF7bCBA

> <OMEGA_E>
iI/+Pg==

> <OMEGA_NBR>
     15871

$$$$
CACHE3-HO_1708_44
  -OEChem-03092622523D

 39 41  0     1  0  0  0  0  0999 V2000
  -48.8529  -28.7643    5.7277 C   0  0  0  0  0  0  0  0  0  0  0  0
  -44.3563  -29.3518    6.0929 C   0  0  0  0  0  0  0  0  0  0  0  0
  -46.7672  -29.1042    4.8607 C   0  0  0  0  0  0  0  0  0  0  0  0
  -48.1849  -28.9074    4.5300 C   0  0  0  0  0  0  0  0  0  0  0  0
  -46.6589  -29.0435    6.2528 C   0  0  0  0  0  0  0  0  0  0  0  0
  -45.5982  -29.3045    4.0998 C   0  0  0  0  0  0  0  0  0  0  0  0
  -43.7856  -31.8072    2.3890 C   0  0  0  0  0  0  0  0  0  0  0  0
  -44.0892  -33.1170    1.6768 C   0  0  0  0  0  0  0  0  0  0  0  0
  -45.1733  -31.4416    0.4477 C   0  0  0  0  0  0  0  0  0  0  0  0
  -44.0568  -30.7697    1.2928 C   0  0  2  0  0  0  0  0  0  0  0  0
  -42.7822  -30.5872    0.4270 C   0  0  0  0  0  0  0  0  0  0  0  0
  -50.3076  -28.6120    3.1683 C   0  0  0  0  0  0  0  0  0  0  0  0
  -48.7880  -28.8619    3.1364 C   0  0  0  0  0  0  0  0  0  0  0  0
  -44.4660  -29.3725    1.8316 C   0  0  0  0  0  0  0  0  0  0  0  0
  -45.4609  -29.1695    6.8572 N   0  0  0  0  0  0  0  0  0  0  0  0
  -44.4062  -29.4159    4.7383 N   0  0  0  0  0  0  0  0  0  0  0  0
  -47.9303  -28.8490    6.7639 N   0  0  0  0  0  0  0  0  0  0  0  0
  -45.6678  -29.3890    2.7089 N   0  0  0  0  0  0  0  0  0  0  0  0
  -45.2562  -32.8291    0.8773 O   0  0  0  0  0  0  0  0  0  0  0  0
  -49.9160  -28.6117    5.8417 H   0  0  0  0  0  0  0  0  0  0  0  0
  -43.3982  -29.4500    6.5815 H   0  0  0  0  0  0  0  0  0  0  0  0
  -44.4518  -31.6589    3.2516 H   0  0  0  0  0  0  0  0  0  0  0  0
  -42.7384  -31.7690    2.7235 H   0  0  0  0  0  0  0  0  0  0  0  0
  -43.2451  -33.4180    1.0389 H   0  0  0  0  0  0  0  0  0  0  0  0
  -44.3025  -33.9148    2.4034 H   0  0  0  0  0  0  0  0  0  0  0  0
  -46.1342  -30.9348    0.6203 H   0  0  0  0  0  0  0  0  0  0  0  0
  -44.9193  -31.3919   -0.6214 H   0  0  0  0  0  0  0  0  0  0  0  0
  -42.9759  -29.8431   -0.3596 H   0  0  0  0  0  0  0  0  0  0  0  0
  -41.9537  -30.2414    1.0626 H   0  0  0  0  0  0  0  0  0  0  0  0
  -42.5128  -31.5481   -0.0358 H   0  0  0  0  0  0  0  0  0  0  0  0
  -50.6973  -28.5875    2.1400 H   0  0  0  0  0  0  0  0  0  0  0  0
  -50.8004  -29.4207    3.7279 H   0  0  0  0  0  0  0  0  0  0  0  0
  -50.5104  -27.6493    3.6603 H   0  0  0  0  0  0  0  0  0  0  0  0
  -48.3075  -28.0515    2.5686 H   0  0  0  0  0  0  0  0  0  0  0  0
  -48.5975  -29.8230    2.6363 H   0  0  0  0  0  0  0  0  0  0  0  0
  -43.6229  -28.9637    2.4079 H   0  0  0  0  0  0  0  0  0  0  0  0
  -44.6743  -28.7181    0.9723 H   0  0  0  0  0  0  0  0  0  0  0  0
  -48.1526  -28.7797    7.7364 H   0  0  0  0  0  0  0  0  0  0  0  0
  -46.1422  -30.2462    2.5090 H   0  0  0  0  0  0  0  0  0  0  0  0
  1  4  2  0  0  0  0
  1 17  1  0  0  0  0
  2 15  1  0  0  0  0
  2 16  2  0  0  0  0
  3  4  1  0  0  0  0
  3  5  1  0  0  0  0
  3  6  2  0  0  0  0
  4 13  1  0  0  0  0
  5 15  2  0  0  0  0
  5 17  1  0  0  0  0
  6 16  1  0  0  0  0
  6 18  1  0  0  0  0
  7  8  1  0  0  0  0
  7 10  1  0  0  0  0
  8 19  1  0  0  0  0
  9 10  1  0  0  0  0
  9 19  1  0  0  0  0
 10 11  1  0  0  0  0
 10 14  1  0  0  0  0
 12 13  1  0  0  0  0
 14 18  1  0  0  0  0
  1 20  1  0  0  0  0
  2 21  1  0  0  0  0
  7 22  1  0  0  0  0
  7 23  1  0  0  0  0
  8 24  1  0  0  0  0
  8 25  1  0  0  0  0
  9 26  1  0  0  0  0
  9 27  1  0  0  0  0
 11 28  1  0  0  0  0
 11 29  1  0  0  0  0
 11 30  1  0  0  0  0
 12 31  1  0  0  0  0
 12 32  1  0  0  0  0
 12 33  1  0  0  0  0
 13 34  1  0  0  0  0
 13 35  1  0  0  0  0
 14 36  1  0  0  0  0
 14 37  1  0  0  0  0
 17 38  1  0  0  0  0
 18 39  1  0  0  0  0
M  END
> <POSIT::Probability>
0.9

> <POSIT::Method>
SHAPEFIT

> <ReceptorTitle>
UCSF-P4271-REFINED_LIGAND-BOUND-STATE_A__DU__LA1_A-201(A)

> <OMEGA_C>
YGlDwjcd5sH3SLdA0mwxwoXQ6sHO+MJAnxE7wlHV6MEYi5tAX71Awm9C58Fc9ZBAqqI6whJZ6MHv
FshAjWQ2wqpv6sGcMYNAcSQvwjN1/sGm5BhAYlswws53BMKOoNY/dLE0wnGI+8EkPuU+JjowwkEo
9sH8eaU/7CArwq+y9MHento+8jpJwmXl5MHexUpA8CZDwkTl5sGAukhAON0xws/66sFgceo/7tc1
wjFb6cGKbttA5p8xwr1T68Hcn5dAl7g/wtXK5sHZcdhAzas2wpMc68GQXi1AXgY1wvZQA8Iol2A/
9KlHwq/k5MEn77pAuJctwpOZ68Hwm9JAoM4xwoJF/cGeGlBAH/QqwvMm/sFbTi5A+/oswgisBcJH
/IQ/uDUxwsGoB8ID0hlAb4k4woJ698FMzR4/Zq0zwo8i+8EiEx+/WucrwqW+7sEKGbi+kdAnwnzu
8cHgBIg/Ig0qwoli/MFFwBK9FspKwiqz5MGu9QhAkjNLwqNd68Eelm5AqQpKwrgx3cGwQWpA4zpB
woxp4MGJZCRAy2NCwneV7sH3uChA5X0uwq2158G5GhpAhrIywpq+5cGV6Hg/SpxAwsY85sGEkPdA
ppE4wkj48cFjkyBA

> <OMEGA_E>
SKDyPg==

> <OMEGA_NBR>
     17174

$$$$
CACHE3-HO_1708_45
  -OEChem-03092622523D

 34 36  0     0  0  0  0  0  0999 V2000
  -48.8992  -28.7648    5.7315 C   0  0  0  0  0  0  0  0  0  0  0  0
  -44.4031  -29.2976    6.1610 C   0  0  0  0  0  0  0  0  0  0  0  0
  -43.7810  -33.0807    1.8228 C   0  0  0  0  0  0  0  0  0  0  0  0
  -46.7956  -29.0687    4.8840 C   0  0  0  0  0  0  0  0  0  0  0  0
  -48.2169  -28.8995    4.5403 C   0  0  0  0  0  0  0  0  0  0  0  0
  -46.7105  -29.0222    6.2801 C   0  0  0  0  0  0  0  0  0  0  0  0
  -45.6032  -29.2276    4.1419 C   0  0  0  0  0  0  0  0  0  0  0  0
  -43.8764  -30.8218    2.0387 C   0  0  0  0  0  0  0  0  0  0  0  0
  -50.3476  -28.6605    3.1805 C   0  0  0  0  0  0  0  0  0  0  0  0
  -45.5581  -31.8909    0.5105 C   0  0  0  0  0  0  0  0  0  0  0  0
  -48.8205  -28.8750    3.1474 C   0  0  0  0  0  0  0  0  0  0  0  0
  -44.3684  -29.3976    1.9438 C   0  0  0  0  0  0  0  0  0  0  0  0
  -45.5228  -29.1357    6.9051 N   0  0  0  0  0  0  0  0  0  0  0  0
  -44.4249  -29.3355    4.8059 N   0  0  0  0  0  0  0  0  0  0  0  0
  -42.8015  -32.6757    2.5994 N   0  0  0  0  0  0  0  0  0  0  0  0
  -42.8605  -31.2826    2.7349 N   0  0  0  0  0  0  0  0  0  0  0  0
  -47.9891  -28.8430    6.7767 N   0  0  0  0  0  0  0  0  0  0  0  0
  -44.4375  -31.9337    1.4764 N   0  0  0  0  0  0  0  0  0  0  0  0
  -45.6150  -29.2499    2.7448 N   0  0  0  0  0  0  0  0  0  0  0  0
  -49.9648  -28.6222    5.8340 H   0  0  0  0  0  0  0  0  0  0  0  0
  -43.4547  -29.4006    6.6673 H   0  0  0  0  0  0  0  0  0  0  0  0
  -44.0144  -34.0923    1.5253 H   0  0  0  0  0  0  0  0  0  0  0  0
  -50.7392  -28.6498    2.1526 H   0  0  0  0  0  0  0  0  0  0  0  0
  -50.8204  -29.4780    3.7445 H   0  0  0  0  0  0  0  0  0  0  0  0
  -50.5723  -27.7005    3.6683 H   0  0  0  0  0  0  0  0  0  0  0  0
  -45.9126  -30.8549    0.4051 H   0  0  0  0  0  0  0  0  0  0  0  0
  -45.2144  -32.2618   -0.4664 H   0  0  0  0  0  0  0  0  0  0  0  0
  -46.3804  -32.5244    0.8746 H   0  0  0  0  0  0  0  0  0  0  0  0
  -48.3596  -28.0561    2.5755 H   0  0  0  0  0  0  0  0  0  0  0  0
  -48.6077  -29.8336    2.6516 H   0  0  0  0  0  0  0  0  0  0  0  0
  -43.5982  -28.7166    2.3349 H   0  0  0  0  0  0  0  0  0  0  0  0
  -44.5765  -29.1506    0.8923 H   0  0  0  0  0  0  0  0  0  0  0  0
  -48.2235  -28.7792    7.7468 H   0  0  0  0  0  0  0  0  0  0  0  0
  -46.2072  -30.0118    2.4827 H   0  0  0  0  0  0  0  0  0  0  0  0
  1  5  2  0  0  0  0
  1 17  1  0  0  0  0
  2 13  1  0  0  0  0
  2 14  2  0  0  0  0
  3 15  2  0  0  0  0
  3 18  1  0  0  0  0
  4  5  1  0  0  0  0
  4  6  1  0  0  0  0
  4  7  2  0  0  0  0
  5 11  1  0  0  0  0
  6 13  2  0  0  0  0
  6 17  1  0  0  0  0
  7 14  1  0  0  0  0
  7 19  1  0  0  0  0
  8 12  1  0  0  0  0
  8 16  2  0  0  0  0
  8 18  1  0  0  0  0
  9 11  1  0  0  0  0
 10 18  1  0  0  0  0
 12 19  1  0  0  0  0
 15 16  1  0  0  0  0
  1 20  1  0  0  0  0
  2 21  1  0  0  0  0
  3 22  1  0  0  0  0
  9 23  1  0  0  0  0
  9 24  1  0  0  0  0
  9 25  1  0  0  0  0
 10 26  1  0  0  0  0
 10 27  1  0  0  0  0
 10 28  1  0  0  0  0
 11 29  1  0  0  0  0
 11 30  1  0  0  0  0
 12 31  1  0  0  0  0
 12 32  1  0  0  0  0
 17 33  1  0  0  0  0
 19 34  1  0  0  0  0
M  END
> <POSIT::Probability>
0.83

> <POSIT::Method>
SHAPEFIT

> <ReceptorTitle>
UCSF-P4271-REFINED_LIGAND-BOUND-STATE_A__DU__LA1_A-201(A)

> <OMEGA_C>
zJhDwmMe5sFlaLdAyZwxwmth6sEQJ8VAsx8vwqVSBMJIUOk/ri47wryM6MHdSZxAIt5Awj4y58Hr
SZFAlNc6wn0t6MHf9shAuWk2wjDS6cFxioRAdoEvwh+T9sGGegJA5WNJwp5I5cG+jEtAgTs2woQg
/8EgrgI/NUhDwvP/5sFObklAOnkxwkwu68F+z/g/XRc2wu0V6cFV9txAFbMxwhCv6sFByplAszQr
wuKzAsJCXCZAKnErwtRC+sFGCS9A1PQ/wou+5sEF29hADcAxwkp4/8HS+rw/x3U2wr3/6cF5qy9A
/ttHwjz65MHvr7pAn9Etwmo068F9WtVAvA4wwo9eCMIJPMM/9/RKwtwy5cFoxAlAFEhLwuXS68E0
pW9AFUpKwqya3cGYxWpAgaY3wtzW9sFnY88+hNs0wiEMAcK9yO6+e4U5wvYYAsIs5l8/QXBBwvNy
4MFV1CRAQG5Cwi2r7sHxsylAgmQuwoy75cERbxVAWU4ywoM06cGobmQ/1ORAwsc75sGl5fdAMtQ4
wj8Y8MEZ5R5A

> <OMEGA_E>
pDHkPg==

> <OMEGA_NBR>
     18375

$$$$
CACHE3-HO_1708_46
  -OEChem-03092622523D

 41 42  0     1  0  0  0  0  0999 V2000
  -44.3993  -29.1536    6.2391 C   0  0  0  0  0  0  0  0  0  0  0  0
  -46.7477  -29.0845    4.8808 C   0  0  0  0  0  0  0  0  0  0  0  0
  -48.1411  -29.0238    4.4353 C   0  0  0  0  0  0  0  0  0  0  0  0
  -48.9089  -28.9112    5.5713 C   0  0  0  0  0  0  0  0  0  0  0  0
  -46.7318  -28.9974    6.2692 C   0  0  0  0  0  0  0  0  0  0  0  0
  -45.5379  -29.2064    4.1949 C   0  0  0  0  0  0  0  0  0  0  0  0
  -48.6164  -29.0841    2.9923 C   0  0  0  0  0  0  0  0  0  0  0  0
  -50.4195  -28.8466    5.6434 C   0  0  0  0  0  0  0  0  0  0  0  0
  -44.9045  -31.6998   -0.3985 C   0  0  0  0  0  0  0  0  0  0  0  0
  -42.5972  -30.6945   -0.0626 C   0  0  0  0  0  0  0  0  0  0  0  0
  -45.1973  -32.0758    2.5419 C   0  0  0  0  0  0  0  0  0  0  0  0
  -44.4396  -29.6314    1.9805 C   0  0  0  0  0  0  0  0  0  0  0  0
  -43.6774  -31.6224    0.5544 C   0  0  0  0  0  0  0  0  0  0  0  0
  -44.0704  -31.1545    1.9883 C   0  0  2  0  0  0  0  0  0  0  0  0
  -45.5589  -29.0341    6.9418 N   0  0  0  0  0  0  0  0  0  0  0  0
  -44.3715  -29.2384    4.8828 N   0  0  0  0  0  0  0  0  0  0  0  0
  -48.0528  -28.8846    6.6791 N   0  0  0  0  0  0  0  0  0  0  0  0
  -45.5877  -29.3028    2.8175 N   0  0  0  0  0  0  0  0  0  0  0  0
  -42.9417  -31.3291    2.8476 O   0  0  0  0  0  0  0  0  0  0  0  0
  -43.4651  -29.1821    6.7802 H   0  0  0  0  0  0  0  0  0  0  0  0
  -48.7936  -30.1317    2.7075 H   0  0  0  0  0  0  0  0  0  0  0  0
  -49.5512  -28.5133    2.8901 H   0  0  0  0  0  0  0  0  0  0  0  0
  -47.8483  -28.6505    2.3350 H   0  0  0  0  0  0  0  0  0  0  0  0
  -50.8271  -29.8649    5.7266 H   0  0  0  0  0  0  0  0  0  0  0  0
  -50.7196  -28.2587    6.5234 H   0  0  0  0  0  0  0  0  0  0  0  0
  -50.8098  -28.3688    4.7327 H   0  0  0  0  0  0  0  0  0  0  0  0
  -45.6691  -32.3577    0.0402 H   0  0  0  0  0  0  0  0  0  0  0  0
  -45.3241  -30.6926   -0.5383 H   0  0  0  0  0  0  0  0  0  0  0  0
  -44.5881  -32.1035   -1.3715 H   0  0  0  0  0  0  0  0  0  0  0  0
  -41.7303  -30.6409    0.6124 H   0  0  0  0  0  0  0  0  0  0  0  0
  -42.2799  -31.0979   -1.0355 H   0  0  0  0  0  0  0  0  0  0  0  0
  -43.0159  -29.6869   -0.2023 H   0  0  0  0  0  0  0  0  0  0  0  0
  -44.8620  -33.1231    2.5142 H   0  0  0  0  0  0  0  0  0  0  0  0
  -45.4264  -31.7916    3.5796 H   0  0  0  0  0  0  0  0  0  0  0  0
  -46.0997  -31.9633    1.9231 H   0  0  0  0  0  0  0  0  0  0  0  0
  -43.5712  -29.0616    2.3427 H   0  0  0  0  0  0  0  0  0  0  0  0
  -44.6675  -29.3345    0.9461 H   0  0  0  0  0  0  0  0  0  0  0  0
  -43.2492  -32.6323    0.6355 H   0  0  0  0  0  0  0  0  0  0  0  0
  -48.3507  -28.7968    7.6296 H   0  0  0  0  0  0  0  0  0  0  0  0
  -46.2760  -30.0007    2.6195 H   0  0  0  0  0  0  0  0  0  0  0  0
  -42.2257  -30.7825    2.5457 H   0  0  0  0  0  0  0  0  0  0  0  0
  1 15  1  0  0  0  0
  1 16  2  0  0  0  0
  2  3  1  0  0  0  0
  2  5  1  0  0  0  0
  2  6  2  0  0  0  0
  3  4  2  0  0  0  0
  3  7  1  0  0  0  0
  4  8  1  0  0  0  0
  4 17  1  0  0  0  0
  5 15  2  0  0  0  0
  5 17  1  0  0  0  0
  6 16  1  0  0  0  0
  6 18  1  0  0  0  0
  9 13  1  0  0  0  0
 10 13  1  0  0  0  0
 11 14  1  0  0  0  0
 12 14  1  0  0  0  0
 12 18  1  0  0  0  0
 13 14  1  0  0  0  0
 14 19  1  0  0  0  0
  1 20  1  0  0  0  0
  7 21  1  0  0  0  0
  7 22  1  0  0  0  0
  7 23  1  0  0  0  0
  8 24  1  0  0  0  0
  8 25  1  0  0  0  0
  8 26  1  0  0  0  0
  9 27  1  0  0  0  0
  9 28  1  0  0  0  0
  9 29  1  0  0  0  0
 10 30  1  0  0  0  0
 10 31  1  0  0  0  0
 10 32  1  0  0  0  0
 11 33  1  0  0  0  0
 11 34  1  0  0  0  0
 11 35  1  0  0  0  0
 12 36  1  0  0  0  0
 12 37  1  0  0  0  0
 13 38  1  0  0  0  0
 17 39  1  0  0  0  0
 18 40  1  0  0  0  0
 19 41  1  0  0  0  0
M  END
> <POSIT::Probability>
0.89

> <POSIT::Method>
SHAPEFIT

> <ReceptorTitle>
UCSF-P4271-REFINED_LIGAND-BOUND-STATE_A__DU__LA1_A-201(A)

> <OMEGA_C>
55gxwpQ66cGFpsdApf06wgqt6MHFL5xAhpBAwrQw6ME57o1AsqJDwjZK58G5R7JAVe06wqb658Hh
nMhAyiY2wrim6cHzPIZANXdCwiys6MGKgT9Akq1Jws7F5sHdlrRANJ4zwhiZ/cFgA8y+j2MqwmCO
9cHALYC9/8k0wptNAMKyriJALcIxwhwN7cEcgf0/tLUuwpb6/MHg6g0/I0gwwmI8+cGwgf4/Ujw2
wvBF6MF9I95AY3wxwljo6cEJQJxABjZAwp4T58HnutVAyVk2wjBs6sEGUjRAQMQrwgSi+sFaPzZA
P9wtwuF06cE799hAqyxDwrMN8cH7Ry1AajRGwkQb5MFp9zhAsWQ/wiU05cFocBVA6E5Lwlbr7sHt
P7dA3uBKwtQR4sGOv9BASD1LwkHz4sGZcpdAL602wkduAcLNziQ92ks1wmeK9cGXzgm/Lloywv1p
AMJNjq+/0usmwoMg9cGawxw/lh4pwm3I+MHsi4S/QhAswtt+7cFSJ0++tnIzwgx+BMLb6CBAnrQ1
wjBV/sG2F2VAI2Y4wuS0/8F9KfY/7UguwiB+6MGW7hVAhKsywgmt6sHZNXI/NP8swoKHAsJQrSI/
GWdBwtxf5sHFJfRAlRo5wngB8MFCpSdAJucowndC9sFz7SJA

> <OMEGA_E>
pIbuPg==

> <OMEGA_NBR>
     19716

$$$$
CACHE3-HO_1708_49
  -OEChem-03092622523D

 33 35  0     0  0  0  0  0  0999 V2000
  -44.5885  -32.9764    1.2146 C   0  0  0  0  0  0  0  0  0  0  0  0
  -44.7724  -31.6001    1.0607 C   0  0  0  0  0  0  0  0  0  0  0  0
  -43.5930  -33.4241    2.1000 C   0  0  0  0  0  0  0  0  0  0  0  0
  -48.8908  -28.7495    5.7158 C   0  0  0  0  0  0  0  0  0  0  0  0
  -44.4026  -29.3077    6.2073 C   0  0  0  0  0  0  0  0  0  0  0  0
  -46.7801  -29.0917    4.9074 C   0  0  0  0  0  0  0  0  0  0  0  0
  -48.1933  -28.9232    4.5390 C   0  0  0  0  0  0  0  0  0  0  0  0
  -43.9599  -30.7277    1.8074 C   0  0  0  0  0  0  0  0  0  0  0  0
  -46.7104  -29.0136    6.3016 C   0  0  0  0  0  0  0  0  0  0  0  0
  -45.5842  -29.2590    4.1773 C   0  0  0  0  0  0  0  0  0  0  0  0
  -50.2942  -28.7216    3.1267 C   0  0  0  0  0  0  0  0  0  0  0  0
  -48.7689  -28.9393    3.1336 C   0  0  0  0  0  0  0  0  0  0  0  0
  -44.3807  -29.2934    1.9380 C   0  0  0  0  0  0  0  0  0  0  0  0
  -42.7979  -32.5461    2.7570 N   0  0  0  0  0  0  0  0  0  0  0  0
  -45.5283  -29.1192    6.9393 N   0  0  0  0  0  0  0  0  0  0  0  0
  -44.4112  -29.3685    4.8504 N   0  0  0  0  0  0  0  0  0  0  0  0
  -42.9792  -31.2067    2.6107 N   0  0  0  0  0  0  0  0  0  0  0  0
  -47.9941  -28.8049    6.7758 N   0  0  0  0  0  0  0  0  0  0  0  0
  -45.6057  -29.2424    2.7806 N   0  0  0  0  0  0  0  0  0  0  0  0
  -45.1971  -33.6800    0.6660 H   0  0  0  0  0  0  0  0  0  0  0  0
  -45.5209  -31.2149    0.3841 H   0  0  0  0  0  0  0  0  0  0  0  0
  -43.4599  -34.4841    2.2589 H   0  0  0  0  0  0  0  0  0  0  0  0
  -49.9565  -28.5961    5.7995 H   0  0  0  0  0  0  0  0  0  0  0  0
  -43.4604  -29.4140    6.7245 H   0  0  0  0  0  0  0  0  0  0  0  0
  -50.6633  -28.7415    2.0907 H   0  0  0  0  0  0  0  0  0  0  0  0
  -50.7812  -29.5210    3.7046 H   0  0  0  0  0  0  0  0  0  0  0  0
  -50.5274  -27.7470    3.5803 H   0  0  0  0  0  0  0  0  0  0  0  0
  -48.2942  -28.1389    2.5472 H   0  0  0  0  0  0  0  0  0  0  0  0
  -48.5480  -29.9128    2.6715 H   0  0  0  0  0  0  0  0  0  0  0  0
  -43.5773  -28.7116    2.4136 H   0  0  0  0  0  0  0  0  0  0  0  0
  -44.5956  -28.8764    0.9430 H   0  0  0  0  0  0  0  0  0  0  0  0
  -48.2401  -28.7081    7.7402 H   0  0  0  0  0  0  0  0  0  0  0  0
  -46.1582  -30.0297    2.5068 H   0  0  0  0  0  0  0  0  0  0  0  0
  1  2  2  0  0  0  0
  1  3  1  0  0  0  0
  2  8  1  0  0  0  0
  3 14  2  0  0  0  0
  4  7  2  0  0  0  0
  4 18  1  0  0  0  0
  5 15  1  0  0  0  0
  5 16  2  0  0  0  0
  6  7  1  0  0  0  0
  6  9  1  0  0  0  0
  6 10  2  0  0  0  0
  7 12  1  0  0  0  0
  8 13  1  0  0  0  0
  8 17  2  0  0  0  0
  9 15  2  0  0  0  0
  9 18  1  0  0  0  0
 10 16  1  0  0  0  0
 10 19  1  0  0  0  0
 11 12  1  0  0  0  0
 13 19  1  0  0  0  0
 14 17  1  0  0  0  0
  1 20  1  0  0  0  0
  2 21  1  0  0  0  0
  3 22  1  0  0  0  0
  4 23  1  0  0  0  0
  5 24  1  0  0  0  0
 11 25  1  0  0  0  0
 11 26  1  0  0  0  0
 11 27  1  0  0  0  0
 12 28  1  0  0  0  0
 12 29  1  0  0  0  0
 13 30  1  0  0  0  0
 13 31  1  0  0  0  0
 18 32  1  0  0  0  0
 19 33  1  0  0  0  0
M  END
> <POSIT::Probability>
0.83

> <POSIT::Method>
SHAPEFIT

> <ReceptorTitle>
UCSF-P4271-REFINED_LIGAND-BOUND-STATE_A__DU__LA1_A-201(A)

> <OMEGA_C>
lFoywuDnA8JueJs/7xYzwg/N/MF2w4c/MF8uwlKyBcKJZgZAJZBDwgv/5cGA57ZARZwxwkV26sGS
osZAyB47wsC76MFiCZ1A5cVAwqti58HDP5FA8tYvwmvS9cFJWec/edc6wsYb6MGCpslAQlY2wmYS
6sFwrIVASC1JwvDF5cH8G0hAYxNDwsGD58EQjUhAz4UxwspY6sHbEPg/GDErwiwvAsIycjBA9Rw2
wgf06MH6Dt5AGqUxwqjy6sF3NptAseorwlan+cHyFCdA+Pk/wmxw5sF609hAR2w2wm3w6cH69DFA
zsk0wlm4BsK2gCo/axU2wii4+cHPp8Q+9NYtwrDvCcLlkRBAedNHwrrE5MHPlblAe9ctwvZP68HA
LtdAMadKwonu5cFIzQVA6h9LwvAq7MFsGG1AFxxKwu753cGGI2VATC1BwmQc4cHfBCNAHjFCwmZN
78HF+SpALk8uwmGx5cHheBpA5mEywuYC58FOa3E/6PVAwkmq5cEDsPdAAKI4wso88MEebyBA

> <OMEGA_E>
/AXrPg==

> <OMEGA_NBR>
     20897

$$$$
CACHE3-HO_1708_5
  -OEChem-03092622523D

 39 40  0     1  0  0  0  0  0999 V2000
  -48.8633  -28.7608    5.6485 C   0  0  0  0  0  0  0  0  0  0  0  0
  -44.3804  -29.3129    6.1639 C   0  0  0  0  0  0  0  0  0  0  0  0
  -46.7535  -29.1389    4.8256 C   0  0  0  0  0  0  0  0  0  0  0  0
  -48.1852  -28.9596    4.4652 C   0  0  0  0  0  0  0  0  0  0  0  0
  -46.6871  -29.0356    6.2234 C   0  0  0  0  0  0  0  0  0  0  0  0
  -45.5380  -29.3364    4.1200 C   0  0  0  0  0  0  0  0  0  0  0  0
  -48.8790  -28.9503    3.1575 C   0  0  0  0  0  0  0  0  0  0  0  0
  -45.5433  -31.7178    0.1879 C   0  0  0  0  0  0  0  0  0  0  0  0
  -44.1675  -33.4583    1.3777 C   0  0  0  0  0  0  0  0  0  0  0  0
  -42.8266  -31.3430    3.0177 C   0  0  0  0  0  0  0  0  0  0  0  0
  -44.2567  -29.5215    1.9208 C   0  0  0  0  0  0  0  0  0  0  0  0
  -44.7594  -32.0320    1.4843 C   0  0  0  0  0  0  0  0  0  0  0  0
  -43.6515  -30.9539    1.7663 C   0  0  2  0  0  0  0  0  0  0  0  0
  -45.5143  -29.1343    6.8768 N   0  0  0  0  0  0  0  0  0  0  0  0
  -44.3747  -29.3898    4.8126 N   0  0  0  0  0  0  0  0  0  0  0  0
  -47.9639  -28.8137    6.6998 N   0  0  0  0  0  0  0  0  0  0  0  0
  -50.2369  -28.6829    3.1069 N   0  0  0  0  0  0  0  0  0  0  0  0
  -45.5093  -29.4654    2.7322 N   0  0  0  0  0  0  0  0  0  0  0  0
  -48.2894  -29.1793    2.1111 O   0  0  0  0  0  0  0  0  0  0  0  0
  -42.7312  -30.8964    0.6720 O   0  0  0  0  0  0  0  0  0  0  0  0
  -49.9258  -28.5908    5.7408 H   0  0  0  0  0  0  0  0  0  0  0  0
  -43.4426  -29.3974    6.6928 H   0  0  0  0  0  0  0  0  0  0  0  0
  -45.9689  -30.7055    0.2524 H   0  0  0  0  0  0  0  0  0  0  0  0
  -44.8633  -31.7751   -0.6748 H   0  0  0  0  0  0  0  0  0  0  0  0
  -46.3553  -32.4495    0.0640 H   0  0  0  0  0  0  0  0  0  0  0  0
  -43.6073  -33.6929    2.2948 H   0  0  0  0  0  0  0  0  0  0  0  0
  -44.9833  -34.1851    1.2504 H   0  0  0  0  0  0  0  0  0  0  0  0
  -43.4913  -33.5108    0.5116 H   0  0  0  0  0  0  0  0  0  0  0  0
  -42.4121  -32.3532    2.8846 H   0  0  0  0  0  0  0  0  0  0  0  0
  -42.0048  -30.6244    3.1529 H   0  0  0  0  0  0  0  0  0  0  0  0
  -43.4769  -31.3275    3.9047 H   0  0  0  0  0  0  0  0  0  0  0  0
  -43.5047  -28.8805    2.4042 H   0  0  0  0  0  0  0  0  0  0  0  0
  -44.4796  -29.1320    0.9165 H   0  0  0  0  0  0  0  0  0  0  0  0
  -45.4677  -32.0167    2.3257 H   0  0  0  0  0  0  0  0  0  0  0  0
  -48.2042  -28.7067    7.6646 H   0  0  0  0  0  0  0  0  0  0  0  0
  -50.7136  -28.6800    2.2278 H   0  0  0  0  0  0  0  0  0  0  0  0
  -50.7408  -28.4926    3.9495 H   0  0  0  0  0  0  0  0  0  0  0  0
  -46.0010  -30.3122    2.5292 H   0  0  0  0  0  0  0  0  0  0  0  0
  -43.1966  -30.6596   -0.1216 H   0  0  0  0  0  0  0  0  0  0  0  0
  1  4  2  0  0  0  0
  1 16  1  0  0  0  0
  2 14  2  0  0  0  0
  2 15  1  0  0  0  0
  3  4  1  0  0  0  0
  3  5  2  0  0  0  0
  3  6  1  0  0  0  0
  4  7  1  0  0  0  0
  5 14  1  0  0  0  0
  5 16  1  0  0  0  0
  6 15  2  0  0  0  0
  6 18  1  0  0  0  0
  7 17  1  0  0  0  0
  7 19  2  0  0  0  0
  8 12  1  0  0  0  0
  9 12  1  0  0  0  0
 10 13  1  0  0  0  0
 11 13  1  0  0  0  0
 11 18  1  0  0  0  0
 12 13  1  0  0  0  0
 13 20  1  0  0  0  0
  1 21  1  0  0  0  0
  2 22  1  0  0  0  0
  8 23  1  0  0  0  0
  8 24  1  0  0  0  0
  8 25  1  0  0  0  0
  9 26  1  0  0  0  0
  9 27  1  0  0  0  0
  9 28  1  0  0  0  0
 10 29  1  0  0  0  0
 10 30  1  0  0  0  0
 10 31  1  0  0  0  0
 11 32  1  0  0  0  0
 11 33  1  0  0  0  0
 12 34  1  0  0  0  0
 16 35  1  0  0  0  0
 17 36  1  0  0  0  0
 17 37  1  0  0  0  0
 18 38  1  0  0  0  0
 20 39  1  0  0  0  0
M  END
> <POSIT::Probability>
0.85

> <POSIT::Method>
SHAPEFIT

> <ReceptorTitle>
UCSF-P4271-REFINED_LIGAND-BOUND-STATE_A__DU__LA1_A-201(A)

> <OMEGA_C>
A3RDwgUW5sGAwLRAjIUxwsOA6sEQP8VAogM7wooc6cEca5pAmb1Awlut58E8445Ai786wthI6MHg
JcdA3yY2wuCw6sGl1oNAI4RDwjia58EQFEpAYyw2wvW9/cG8X0A+gaswwkrVBcKMV7A/cE4rwmq+
+sFCIUFA5gYxwgQs7MES3vU/lgkzwskgAMLs+70/KpsuwpGh98FaF+I/rw42whMT6cFeDtxAsH8x
wmEe68E5AZpAANs/wnaC5sH9ZNZAo/JIwoF25cG210ZAhwk2wje568Gh2y5AYChBwjhv6cFDHAdA
y+wqws4r98FJCiw/D7RHwg265MH/tLdAMcUtwvIt68FzK9ZAMOA3ws6k9cGjOIE++nMzwn4z/sF3
vyy/yWs5wkrMAcJAGIM94m0uwnzFBsJ/3hJA5O4zwo+9CMK+DqA/FPctwgMLBsL8+gI/9KUpwqJp
AcIEnjhA5QQows7+9MGuyElAUegtwrWe+sEg53lA1wQuwlIL58GN3hlAFOsxwjwO6cHZomo/4d41
whYRAMLA2BRAHNFAwman5cFxRPVAutpKwqNw5cG5lA5AlPZKwuPw48GTxHxA/gA4wnl/8sGA3iFA
WskswtBG9cFiA/m9

> <OMEGA_E>
CrkLPw==

> <OMEGA_NBR>
     22196

$$$$
CACHE3-HO_1715_1
  -OEChem-03092622523D

 42 44  0     1  0  0  0  0  0999 V2000
  -48.8456  -28.8433    5.7050 C   0  0  0  0  0  0  0  0  0  0  0  0
  -44.3360  -29.2485    6.1588 C   0  0  0  0  0  0  0  0  0  0  0  0
  -46.7275  -29.0701    4.8926 C   0  0  0  0  0  0  0  0  0  0  0  0
  -48.1401  -28.9328    4.5248 C   0  0  0  0  0  0  0  0  0  0  0  0
  -46.6527  -29.0368    6.2853 C   0  0  0  0  0  0  0  0  0  0  0  0
  -45.5467  -29.2161    4.1458 C   0  0  0  0  0  0  0  0  0  0  0  0
  -44.7674  -31.6813   -0.1477 C   0  0  0  0  0  0  0  0  0  0  0  0
  -45.0608  -31.9968    1.3248 C   0  0  0  0  0  0  0  0  0  0  0  0
  -43.3608  -31.3074    0.3391 C   0  0  0  0  0  0  0  0  0  0  0  0
  -44.0136  -30.9188    1.7053 C   0  0  0  0  0  0  0  0  0  0  0  0
  -50.2188  -28.7227    3.0787 C   0  0  0  0  0  0  0  0  0  0  0  0
  -43.4570  -28.3995    1.9261 C   0  0  0  0  0  0  0  0  0  0  0  0
  -41.8271  -31.2141    2.7828 C   0  0  0  0  0  0  0  0  0  0  0  0
  -48.6921  -28.8915    3.1079 C   0  0  0  0  0  0  0  0  0  0  0  0
  -44.5683  -29.4528    1.7543 C   0  0  2  0  0  0  0  0  0  0  0  0
  -45.4611  -29.1289    6.9094 N   0  0  0  0  0  0  0  0  0  0  0  0
  -44.3613  -29.2962    4.7996 N   0  0  0  0  0  0  0  0  0  0  0  0
  -47.9460  -28.9107    6.7657 N   0  0  0  0  0  0  0  0  0  0  0  0
  -45.6578  -29.2882    2.7539 N   0  0  0  0  0  0  0  0  0  0  0  0
  -43.2655  -31.2943    2.8909 O   0  0  0  0  0  0  0  0  0  0  0  0
  -49.9170  -28.7386    5.7926 H   0  0  0  0  0  0  0  0  0  0  0  0
  -43.3819  -29.3082    6.6614 H   0  0  0  0  0  0  0  0  0  0  0  0
  -44.8115  -32.5450   -0.8275 H   0  0  0  0  0  0  0  0  0  0  0  0
  -45.3504  -30.8506   -0.5719 H   0  0  0  0  0  0  0  0  0  0  0  0
  -46.0882  -31.7693    1.6451 H   0  0  0  0  0  0  0  0  0  0  0  0
  -44.7979  -33.0190    1.6345 H   0  0  0  0  0  0  0  0  0  0  0  0
  -42.6542  -32.1488    0.3908 H   0  0  0  0  0  0  0  0  0  0  0  0
  -42.8953  -30.4703   -0.2019 H   0  0  0  0  0  0  0  0  0  0  0  0
  -50.5657  -28.6989    2.0351 H   0  0  0  0  0  0  0  0  0  0  0  0
  -50.6910  -29.5667    3.6028 H   0  0  0  0  0  0  0  0  0  0  0  0
  -50.4931  -27.7816    3.5777 H   0  0  0  0  0  0  0  0  0  0  0  0
  -43.9044  -27.3949    1.9536 H   0  0  0  0  0  0  0  0  0  0  0  0
  -42.9172  -28.5862    2.8662 H   0  0  0  0  0  0  0  0  0  0  0  0
  -42.7556  -28.4654    1.0813 H   0  0  0  0  0  0  0  0  0  0  0  0
  -41.3696  -31.5202    3.7351 H   0  0  0  0  0  0  0  0  0  0  0  0
  -41.4821  -31.8815    1.9792 H   0  0  0  0  0  0  0  0  0  0  0  0
  -41.5341  -30.1795    2.5512 H   0  0  0  0  0  0  0  0  0  0  0  0
  -48.2330  -28.0461    2.5744 H   0  0  0  0  0  0  0  0  0  0  0  0
  -48.4309  -29.8313    2.5995 H   0  0  0  0  0  0  0  0  0  0  0  0
  -45.0148  -29.2676    0.7661 H   0  0  0  0  0  0  0  0  0  0  0  0
  -48.1968  -28.8734    7.7331 H   0  0  0  0  0  0  0  0  0  0  0  0
  -46.2712  -30.0605    2.5889 H   0  0  0  0  0  0  0  0  0  0  0  0
  1  4  2  0  0  0  0
  1 18  1  0  0  0  0
  2 16  1  0  0  0  0
  2 17  2  0  0  0  0
  3  4  1  0  0  0  0
  3  5  1  0  0  0  0
  3  6  2  0  0  0  0
  4 14  1  0  0  0  0
  5 16  2  0  0  0  0
  5 18  1  0  0  0  0
  6 17  1  0  0  0  0
  6 19  1  0  0  0  0
  7  8  1  0  0  0  0
  7  9  1  0  0  0  0
  8 10  1  0  0  0  0
  9 10  1  0  0  0  0
 10 15  1  0  0  0  0
 10 20  1  0  0  0  0
 11 14  1  0  0  0  0
 12 15  1  0  0  0  0
 13 20  1  0  0  0  0
 15 19  1  0  0  0  0
  1 21  1  0  0  0  0
  2 22  1  0  0  0  0
  7 23  1  0  0  0  0
  7 24  1  0  0  0  0
  8 25  1  0  0  0  0
  8 26  1  0  0  0  0
  9 27  1  0  0  0  0
  9 28  1  0  0  0  0
 11 29  1  0  0  0  0
 11 30  1  0  0  0  0
 11 31  1  0  0  0  0
 12 32  1  0  0  0  0
 12 33  1  0  0  0  0
 12 34  1  0  0  0  0
 13 35  1  0  0  0  0
 13 36  1  0  0  0  0
 13 37  1  0  0  0  0
 14 38  1  0  0  0  0
 14 39  1  0  0  0  0
 15 40  1  0  0  0  0
 18 41  1  0  0  0  0
 19 42  1  0  0  0  0
M  END
> <POSIT::Probability>
0.91

> <POSIT::Method>
SHAPEFIT

> <ReceptorTitle>
UCSF-P4271-REFINED_LIGAND-BOUND-STATE_A__DU__LA1_A-201(A)

> <OMEGA_C>
8WFDwii/5sEJj7ZAClgxwvr86cHBFMVA++g6wn6P6MFskJxAe49AwlR258HKypBAXpw6wmZL6MEi
IclA0i82wp666cEsqoRAzBEzwlpz/cEgNBe+Pj40wl75/8GQkak/dXEtwpJ1+sEgmK0+5Q0wwqpZ
98G8Rto/EuBIwhLI5cHSCUVA/NMtwhYy48HQi/Y/8U4nwn62+cGqGDJAwMRCwr4h58Gm50ZA80Uy
wmSf68Fui+A/J9g1whAI6cHRGd1A/HExwrJe6sGklplAq8g/whRJ58HwgNhAoaE2wjZO6sG6PzBA
3g8twtJa+sEaBDlA+qpHwo/o5cEwXblAG4ctwjF36sFuKtVA+z4zwgouAsIV11O/yWY1wvrN9sFY
ZxK/VVo4woQn/sGpk9I/GDEzwnQTBMLJN9E/250qwmWYAMLrEcg+xJQrwkTD88EqvE6+UkNKwlCX
5cGqPwJAkcNKwrGI7MH1k2ZA+fhJwqBA3sGo+WRAD54vwsEo28EXEPo/Qqsrwnaw5MF+cDdAyAUr
why548F7aIo/gnolwlUp/MGwDG9Asu0lwj4N/8HpV/0/5SImwoRv8cGKRiNAou5Awm1e4MF3wyRA
OblBwn6m7sHEXSZAHA80wgAk6sHNIUQ/g8lAwsz85sEwdfdAwhU5wvJ78MHSryVA

> <OMEGA_E>
PG7SPg==

> <OMEGA_NBR>
     23558

$$$$
CACHE3-HO_1715_10
  -OEChem-03092622523D

 41 43  0     1  0  0  0  0  0999 V2000
  -44.3343  -29.2822    6.1725 C   0  0  0  0  0  0  0  0  0  0  0  0
  -46.7334  -29.0823    4.9148 C   0  0  0  0  0  0  0  0  0  0  0  0
  -48.0531  -28.9414    4.5570 C   0  0  0  0  0  0  0  0  0  0  0  0
  -46.6526  -29.0547    6.3289 C   0  0  0  0  0  0  0  0  0  0  0  0
  -45.5521  -29.2322    4.1648 C   0  0  0  0  0  0  0  0  0  0  0  0
  -44.8573  -31.6966   -0.1057 C   0  0  0  0  0  0  0  0  0  0  0  0
  -45.0640  -32.0060    1.3822 C   0  0  0  0  0  0  0  0  0  0  0  0
  -43.4320  -31.2971    0.3003 C   0  0  0  0  0  0  0  0  0  0  0  0
  -44.0169  -30.9080    1.6989 C   0  0  0  0  0  0  0  0  0  0  0  0
  -50.1884  -28.7300    3.2319 C   0  0  0  0  0  0  0  0  0  0  0  0
  -43.4637  -28.4028    1.9278 C   0  0  0  0  0  0  0  0  0  0  0  0
  -41.7827  -31.2829    2.6515 C   0  0  0  0  0  0  0  0  0  0  0  0
  -48.6631  -28.8850    3.1675 C   0  0  0  0  0  0  0  0  0  0  0  0
  -44.5810  -29.4499    1.7608 C   0  0  2  0  0  0  0  0  0  0  0  0
  -45.4515  -29.1593    6.9346 N   0  0  0  0  0  0  0  0  0  0  0  0
  -44.3660  -29.3226    4.8137 N   0  0  0  0  0  0  0  0  0  0  0  0
  -47.8600  -28.9198    6.8364 N   0  0  0  0  0  0  0  0  0  0  0  0
  -48.6863  -28.8543    5.7694 N   0  0  0  0  0  0  0  0  0  0  0  0
  -45.6640  -29.2946    2.7708 N   0  0  0  0  0  0  0  0  0  0  0  0
  -43.2106  -31.2575    2.8551 O   0  0  0  0  0  0  0  0  0  0  0  0
  -43.3772  -29.3510    6.6681 H   0  0  0  0  0  0  0  0  0  0  0  0
  -44.9249  -32.5657   -0.7766 H   0  0  0  0  0  0  0  0  0  0  0  0
  -45.4761  -30.8782   -0.5023 H   0  0  0  0  0  0  0  0  0  0  0  0
  -46.0763  -31.7939    1.7567 H   0  0  0  0  0  0  0  0  0  0  0  0
  -44.7669  -33.0214    1.6834 H   0  0  0  0  0  0  0  0  0  0  0  0
  -42.7101  -32.1268    0.3191 H   0  0  0  0  0  0  0  0  0  0  0  0
  -43.0102  -30.4570   -0.2709 H   0  0  0  0  0  0  0  0  0  0  0  0
  -50.5971  -28.6925    2.2113 H   0  0  0  0  0  0  0  0  0  0  0  0
  -50.6216  -29.5867    3.7689 H   0  0  0  0  0  0  0  0  0  0  0  0
  -50.4403  -27.7996    3.7619 H   0  0  0  0  0  0  0  0  0  0  0  0
  -43.9063  -27.3965    1.9662 H   0  0  0  0  0  0  0  0  0  0  0  0
  -42.9152  -28.5978    2.8611 H   0  0  0  0  0  0  0  0  0  0  0  0
  -42.7713  -28.4664    1.0755 H   0  0  0  0  0  0  0  0  0  0  0  0
  -41.2826  -31.5585    3.5917 H   0  0  0  0  0  0  0  0  0  0  0  0
  -41.5363  -32.0220    1.8750 H   0  0  0  0  0  0  0  0  0  0  0  0
  -41.4402  -30.2876    2.3322 H   0  0  0  0  0  0  0  0  0  0  0  0
  -48.2388  -28.0274    2.6248 H   0  0  0  0  0  0  0  0  0  0  0  0
  -48.4201  -29.8145    2.6318 H   0  0  0  0  0  0  0  0  0  0  0  0
  -45.0349  -29.2597    0.7770 H   0  0  0  0  0  0  0  0  0  0  0  0
  -49.6770  -28.7509    5.8570 H   0  0  0  0  0  0  0  0  0  0  0  0
  -46.2767  -30.0668    2.6025 H   0  0  0  0  0  0  0  0  0  0  0  0
  1 15  2  0  0  0  0
  1 16  1  0  0  0  0
  2  3  2  0  0  0  0
  2  4  1  0  0  0  0
  2  5  1  0  0  0  0
  3 13  1  0  0  0  0
  3 18  1  0  0  0  0
  4 15  1  0  0  0  0
  4 17  2  0  0  0  0
  5 16  2  0  0  0  0
  5 19  1  0  0  0  0
  6  7  1  0  0  0  0
  6  8  1  0  0  0  0
  7  9  1  0  0  0  0
  8  9  1  0  0  0  0
  9 14  1  0  0  0  0
  9 20  1  0  0  0  0
 10 13  1  0  0  0  0
 11 14  1  0  0  0  0
 12 20  1  0  0  0  0
 14 19  1  0  0  0  0
 17 18  1  0  0  0  0
  1 21  1  0  0  0  0
  6 22  1  0  0  0  0
  6 23  1  0  0  0  0
  7 24  1  0  0  0  0
  7 25  1  0  0  0  0
  8 26  1  0  0  0  0
  8 27  1  0  0  0  0
 10 28  1  0  0  0  0
 10 29  1  0  0  0  0
 10 30  1  0  0  0  0
 11 31  1  0  0  0  0
 11 32  1  0  0  0  0
 11 33  1  0  0  0  0
 12 34  1  0  0  0  0
 12 35  1  0  0  0  0
 12 36  1  0  0  0  0
 13 37  1  0  0  0  0
 13 38  1  0  0  0  0
 14 39  1  0  0  0  0
 18 40  1  0  0  0  0
 19 41  1  0  0  0  0
M  END
> <POSIT::Probability>
0.79

> <POSIT::Method>
SHAPEFIT

> <ReceptorTitle>
UCSF-P4271-REFINED_LIGAND-BOUND-STATE_A__DU__LA1_A-201(A)

> <OMEGA_C>
SVYxwgdC6sFOhcVA/e46wp2o6MHdRZ1AVzZAwgmI58G50pFARJw6wgNw6MGGhspAXjU2wpXb6cGq
RYVA3W0zwrmS/cHAadi9jkE0wjEGAMK46rA/ZLotwmVg+sHQw5k+VxEwwqtD98Gkdtk/88BIwvvW
5cHi1k5Az9otwuE448HCwvY/hCEnwmlD+sHcsilACKdCwnUU58EwuEpA7VIywkuZ68GAYOE/WM41
wlNG6cHz591A1HYxwseU6sEFCppAmXA/wr9b58EpxNpAur5CwqfV5sEqn7hA8qc2wnFb6sG3VDFA
pdcswlUP+sEKujZANIItwtzO6sE0YdVADrMzwklDAsL6z0a/g+c1wqAG98GOlQC/IE44wu1Z/sFX
3OA/TxEzwu8VBMJeedc/LtcqwuSBAMLHXaM+egoswtmn88HEtIq+bWNKwkeK5cGuhQ1Af3xKwoKx
7MEuNnFA0cJJwoZl3sELw3BAA6Avwvcr28ECrPs/IakrwkLI5MELHTdAyhUrwje748FyqIk/bCEl
wrx3/MEl32VAKyUmwo4WAMKYAPA/ysIlwupM8sGCQxVAfvRAwiU44MET/SdALK5BwiKE7sE1cChA
xyM0wukT6sGY6UY/SbVGwvEB5sGhbLtAXBs5wt6I8MFZjyZA

> <OMEGA_E>
GG4OPw==

> <OMEGA_NBR>
     24902

$$$$
CACHE3HI_1690_11
  -OEChem-03092622523D

 40 42  0     1  0  0  0  0  0999 V2000
  -48.7323  -28.4090    5.4993 C   0  0  0  0  0  0  0  0  0  0  0  0
  -44.4442  -29.3523    6.0068 C   0  0  0  0  0  0  0  0  0  0  0  0
  -46.6730  -28.7911    4.6614 C   0  0  0  0  0  0  0  0  0  0  0  0
  -48.0160  -28.4842    4.3237 C   0  0  0  0  0  0  0  0  0  0  0  0
  -43.9141  -30.5975    1.6760 C   0  0  0  0  0  0  0  0  0  0  0  0
  -42.8062  -31.3023    2.1765 C   0  0  0  0  0  0  0  0  0  0  0  0
  -44.6464  -31.5578    1.0292 C   0  0  0  0  0  0  0  0  0  0  0  0
  -46.6165  -28.8938    6.0458 C   0  0  0  0  0  0  0  0  0  0  0  0
  -45.4802  -28.9995    3.9701 C   0  0  0  0  0  0  0  0  0  0  0  0
  -41.6763  -30.7786    2.9621 C   0  0  0  0  0  0  0  0  0  0  0  0
  -45.9110  -31.5457    0.2822 C   0  0  0  0  0  0  0  0  0  0  0  0
  -48.7876  -29.5914    2.2110 C   0  0  0  0  0  0  0  0  0  0  0  0
  -44.3229  -28.4248    0.4606 C   0  0  0  0  0  0  0  0  0  0  0  0
  -48.5683  -28.2784    2.9695 C   0  0  0  0  0  0  0  0  0  0  0  0
  -44.2298  -29.1245    1.8149 C   0  0  1  0  0  0  0  0  0  0  0  0
  -45.5300  -29.1732    6.7866 N   0  0  0  0  0  0  0  0  0  0  0  0
  -44.3516  -29.2839    4.6597 N   0  0  0  0  0  0  0  0  0  0  0  0
  -42.8478  -32.6004    1.8645 N   0  0  0  0  0  0  0  0  0  0  0  0
  -47.8729  -28.6596    6.5382 N   0  0  0  0  0  0  0  0  0  0  0  0
  -45.4310  -28.9183    2.5666 N   0  0  0  0  0  0  0  0  0  0  0  0
  -44.0200  -32.7582    1.1352 O   0  0  0  0  0  0  0  0  0  0  0  0
  -49.7756  -28.2000    5.6927 H   0  0  0  0  0  0  0  0  0  0  0  0
  -43.5223  -29.5835    6.5291 H   0  0  0  0  0  0  0  0  0  0  0  0
  -41.8679  -30.8212    4.0495 H   0  0  0  0  0  0  0  0  0  0  0  0
  -41.4657  -29.7180    2.7341 H   0  0  0  0  0  0  0  0  0  0  0  0
  -40.7526  -31.3498    2.7656 H   0  0  0  0  0  0  0  0  0  0  0  0
  -45.7616  -31.3508   -0.7965 H   0  0  0  0  0  0  0  0  0  0  0  0
  -46.6010  -30.7562    0.6356 H   0  0  0  0  0  0  0  0  0  0  0  0
  -46.4425  -32.5104    0.3711 H   0  0  0  0  0  0  0  0  0  0  0  0
  -49.4405  -30.2637    2.7782 H   0  0  0  0  0  0  0  0  0  0  0  0
  -47.8361  -30.1078    2.0458 H   0  0  0  0  0  0  0  0  0  0  0  0
  -49.2501  -29.4125    1.2355 H   0  0  0  0  0  0  0  0  0  0  0  0
  -45.0996  -28.8645   -0.1747 H   0  0  0  0  0  0  0  0  0  0  0  0
  -44.5505  -27.3596    0.5820 H   0  0  0  0  0  0  0  0  0  0  0  0
  -43.3748  -28.5095   -0.0827 H   0  0  0  0  0  0  0  0  0  0  0  0
  -47.9058  -27.6315    2.3633 H   0  0  0  0  0  0  0  0  0  0  0  0
  -49.5308  -27.7328    3.0109 H   0  0  0  0  0  0  0  0  0  0  0  0
  -43.4373  -28.6346    2.3930 H   0  0  0  0  0  0  0  0  0  0  0  0
  -48.1264  -28.6699    7.5164 H   0  0  0  0  0  0  0  0  0  0  0  0
  -46.2888  -28.7043    2.0908 H   0  0  0  0  0  0  0  0  0  0  0  0
  1  4  2  0  0  0  0
  1 19  1  0  0  0  0
  2 16  1  0  0  0  0
  2 17  2  0  0  0  0
  3  4  1  0  0  0  0
  3  8  1  0  0  0  0
  3  9  2  0  0  0  0
  4 14  1  0  0  0  0
  5  6  1  0  0  0  0
  5  7  2  0  0  0  0
  5 15  1  0  0  0  0
  6 10  1  0  0  0  0
  6 18  2  0  0  0  0
  7 11  1  0  0  0  0
  7 21  1  0  0  0  0
  8 16  2  0  0  0  0
  8 19  1  0  0  0  0
  9 17  1  0  0  0  0
  9 20  1  0  0  0  0
 12 14  1  0  0  0  0
 13 15  1  0  0  0  0
 15 20  1  0  0  0  0
 18 21  1  0  0  0  0
  1 22  1  0  0  0  0
  2 23  1  0  0  0  0
 10 24  1  0  0  0  0
 10 25  1  0  0  0  0
 10 26  1  0  0  0  0
 11 27  1  0  0  0  0
 11 28  1  0  0  0  0
 11 29  1  0  0  0  0
 12 30  1  0  0  0  0
 12 31  1  0  0  0  0
 12 32  1  0  0  0  0
 13 33  1  0  0  0  0
 13 34  1  0  0  0  0
 13 35  1  0  0  0  0
 14 36  1  0  0  0  0
 14 37  1  0  0  0  0
 15 38  1  0  0  0  0
 19 39  1  0  0  0  0
 20 40  1  0  0  0  0
M  END
> <POSIT::Probability>
0.62

> <POSIT::Method>
HYBRID

> <ReceptorTitle>
UCSF-P4271-REFINED_LIGAND-BOUND-STATE_A__DU__LA1_A-201(A)

> <OMEGA_C>
4e1CwpRF48Gj+q9A38YxwpTR6sHDN8BAIrE6wjpU5sHoKZVAYBBAwqXf48HWW4pADagvwqrH9MFw
htY/kzkrwjZr+sF6TAtA45Uywkl2/MFcvoM/QXc6wocm58ENd8FAr+s1wgn/58HYFn5AhrQmwno6
9sF8kz1A3aQ3woZd/MHggJA+diZDwj+77MHUgQ1AskoxwvRl48FA1Os+7kVCwio64sHECz5AUesw
wgT/6MGgT+g/tx42wrFi6cHwK9lAAWgxwoNF6sGLHJVAJWQrwtdmAsKIp+4/4H0/wslG5cEGOdFA
W7k1wqNY58EMQyRAdBQwwmwIA8LUTZE/MRpHwpCZ4cGXKrZA0RYuwgur7MGm7tBAtngnwtuR9sEr
lYFA4Nwlwmu+7cFe+y5AoQIjwkzM+sF8/zBA3gs3wnbO+sGg5Uu/dmc6wsIM9sHAtyI/IMU5wqgK
AsKwA74+DsNFwgQc8sGIzjFAIlg/wr7c8MGG7gJAGwBFwsRM68HsI54/BWY0wpTq5sGg2TK+wDMy
wnvg2sGI/hQ/2H8twlsT5MEASqm9lp8/wlgN3cHyQBdAix9Gwtnc3cEGskBA078twpkT5cGQJxlA
bIFAwt1b5cFzhvBAxic5wmmi5cEOzwVA

> <OMEGA_E>
8tQuwQ==

> <OMEGA_NBR>
     26201

$$$$
CACHE3HI_1690_23
  -OEChem-03092622523D

 40 42  0     0  0  0  0  0  0999 V2000
  -48.8492  -28.7535    5.7439 C   0  0  0  0  0  0  0  0  0  0  0  0
  -44.3513  -29.3728    6.0676 C   0  0  0  0  0  0  0  0  0  0  0  0
  -46.7702  -29.0813    4.8693 C   0  0  0  0  0  0  0  0  0  0  0  0
  -48.1840  -28.8813    4.5435 C   0  0  0  0  0  0  0  0  0  0  0  0
  -44.3674  -31.1915    1.8466 C   0  0  0  0  0  0  0  0  0  0  0  0
  -45.1009  -32.1739    1.0613 C   0  0  0  0  0  0  0  0  0  0  0  0
  -43.2739  -31.8470    2.3398 C   0  0  0  0  0  0  0  0  0  0  0  0
  -46.6524  -29.0539    6.2597 C   0  0  0  0  0  0  0  0  0  0  0  0
  -45.6167  -29.2724    4.0920 C   0  0  0  0  0  0  0  0  0  0  0  0
  -46.1806  -31.8343    0.0755 C   0  0  0  0  0  0  0  0  0  0  0  0
  -50.2944  -28.6195    3.1546 C   0  0  0  0  0  0  0  0  0  0  0  0
  -41.4019  -30.7323    1.2359 C   0  0  0  0  0  0  0  0  0  0  0  0
  -48.7708  -28.8188    3.1426 C   0  0  0  0  0  0  0  0  0  0  0  0
  -44.6004  -29.6890    1.8284 C   0  0  0  0  0  0  0  0  0  0  0  0
  -41.9700  -31.1657    2.6081 C   0  0  0  0  0  0  0  0  0  0  0  0
  -45.4481  -29.2019    6.8494 N   0  0  0  0  0  0  0  0  0  0  0  0
  -44.4166  -29.4077    4.7105 N   0  0  0  0  0  0  0  0  0  0  0  0
  -44.5253  -33.3426    1.2087 N   0  0  0  0  0  0  0  0  0  0  0  0
  -47.9222  -28.8584    6.7779 N   0  0  0  0  0  0  0  0  0  0  0  0
  -45.7284  -29.3309    2.7036 N   0  0  0  0  0  0  0  0  0  0  0  0
  -43.4196  -33.1698    2.0605 O   0  0  0  0  0  0  0  0  0  0  0  0
  -49.9113  -28.5980    5.8627 H   0  0  0  0  0  0  0  0  0  0  0  0
  -43.3882  -29.4855    6.5433 H   0  0  0  0  0  0  0  0  0  0  0  0
  -46.4272  -32.7254   -0.5204 H   0  0  0  0  0  0  0  0  0  0  0  0
  -47.0767  -31.4952    0.6158 H   0  0  0  0  0  0  0  0  0  0  0  0
  -45.8293  -31.0331   -0.5913 H   0  0  0  0  0  0  0  0  0  0  0  0
  -50.6679  -28.5812    2.1206 H   0  0  0  0  0  0  0  0  0  0  0  0
  -50.7696  -29.4578    3.6851 H   0  0  0  0  0  0  0  0  0  0  0  0
  -50.5367  -27.6767    3.6670 H   0  0  0  0  0  0  0  0  0  0  0  0
  -40.4375  -30.2236    1.3819 H   0  0  0  0  0  0  0  0  0  0  0  0
  -41.2559  -31.6199    0.6028 H   0  0  0  0  0  0  0  0  0  0  0  0
  -42.1084  -30.0454    0.7471 H   0  0  0  0  0  0  0  0  0  0  0  0
  -48.3087  -27.9789    2.6031 H   0  0  0  0  0  0  0  0  0  0  0  0
  -48.5416  -29.7599    2.6212 H   0  0  0  0  0  0  0  0  0  0  0  0
  -43.6924  -29.1777    2.1808 H   0  0  0  0  0  0  0  0  0  0  0  0
  -44.8249  -29.3700    0.7998 H   0  0  0  0  0  0  0  0  0  0  0  0
  -42.1275  -30.2850    3.2480 H   0  0  0  0  0  0  0  0  0  0  0  0
  -41.2750  -31.8595    3.1037 H   0  0  0  0  0  0  0  0  0  0  0  0
  -48.1411  -28.8011    7.7519 H   0  0  0  0  0  0  0  0  0  0  0  0
  -46.4494  -29.9968    2.5119 H   0  0  0  0  0  0  0  0  0  0  0  0
  1  4  2  0  0  0  0
  1 19  1  0  0  0  0
  2 16  1  0  0  0  0
  2 17  2  0  0  0  0
  3  4  1  0  0  0  0
  3  8  1  0  0  0  0
  3  9  2  0  0  0  0
  4 13  1  0  0  0  0
  5  6  1  0  0  0  0
  5  7  2  0  0  0  0
  5 14  1  0  0  0  0
  6 10  1  0  0  0  0
  6 18  2  0  0  0  0
  7 15  1  0  0  0  0
  7 21  1  0  0  0  0
  8 16  2  0  0  0  0
  8 19  1  0  0  0  0
  9 17  1  0  0  0  0
  9 20  1  0  0  0  0
 11 13  1  0  0  0  0
 12 15  1  0  0  0  0
 14 20  1  0  0  0  0
 18 21  1  0  0  0  0
  1 22  1  0  0  0  0
  2 23  1  0  0  0  0
 10 24  1  0  0  0  0
 10 25  1  0  0  0  0
 10 26  1  0  0  0  0
 11 27  1  0  0  0  0
 11 28  1  0  0  0  0
 11 29  1  0  0  0  0
 12 30  1  0  0  0  0
 12 31  1  0  0  0  0
 12 32  1  0  0  0  0
 13 33  1  0  0  0  0
 13 34  1  0  0  0  0
 14 35  1  0  0  0  0
 14 36  1  0  0  0  0
 15 37  1  0  0  0  0
 15 38  1  0  0  0  0
 19 39  1  0  0  0  0
 20 40  1  0  0  0  0
M  END
> <POSIT::Probability>
0.79

> <POSIT::Method>
SHAPEFIT

> <ReceptorTitle>
UCSF-P4271-REFINED_LIGAND-BOUND-STATE_A__DU__LA1_A-201(A)

> <OMEGA_C>
k2VDwh4H5sGmzbdAt2cxwoz76sEwKsJAtBQ7wmum6MEM0ZtAaLxAwuEM58FuZJFAN3gxwjKI+cEC
Xew/Tmc0wh+yAML514c/gBgtwr7G/sGmvxVAE5w6wl9u6MFCT8hAiXc2wsct6sFC8YJA7bg4wqys
/sHQqpo9ci1JwrH05MGO5ElAhZslwtbb9cGRM54/QRVDwviM5sGvH0lAymYywvmC7cHMB+o/Q+En
wlpT+cHE6iZA5Mo1wo+d6cFALttAlKoxwgxD68HSvJZA5xkywtVeBcK7t5o/UrA/whHe5sFI5NhA
5Ok2wrWl6sERBy1AuK0twumtBMKZ3gNAMaVHwq7I5MHZmrtAkI0twmbi68G/YtFAerU5wsrmAsK3
OwW/kU48whb2+8Ehph0/NlE3wsND+MGwXhe/4atKwj+m5MFSuAdABhRLwoip68HK2GtAiyVKwvZp
3cGNr2pADMAhwgfK8cGP4bA/FwYlwp31/ME2UBo//G4owvNc8ME+RD8/JDxBwszU38GgmCZAnypC
wl0U7sHdwSdADsUuwt1r6cGSkgtAvUwzws716sFjwkw/hoIowqlH8sHp309AoRklwlPg/sHnokZA
hpBAwp9o5sGzD/hALcw5woX578EIwyBA

> <OMEGA_E>
uHgSPw==

> <OMEGA_NBR>
     27520

$$$$
CACHE3HI_1690_29
  -OEChem-03092622523D

 39 41  0     1  0  0  0  0  0999 V2000
  -44.3472  -29.3678    6.0932 C   0  0  0  0  0  0  0  0  0  0  0  0
  -46.7671  -29.0917    4.8752 C   0  0  0  0  0  0  0  0  0  0  0  0
  -44.1978  -31.0620    1.5904 C   0  0  0  0  0  0  0  0  0  0  0  0
  -45.0697  -32.0159    0.8926 C   0  0  0  0  0  0  0  0  0  0  0  0
  -48.0913  -28.8996    4.5584 C   0  0  0  0  0  0  0  0  0  0  0  0
  -43.0012  -31.7093    1.7565 C   0  0  0  0  0  0  0  0  0  0  0  0
  -46.6499  -29.0589    6.2899 C   0  0  0  0  0  0  0  0  0  0  0  0
  -45.6003  -29.2909    4.1066 C   0  0  0  0  0  0  0  0  0  0  0  0
  -46.3432  -31.6954    0.1620 C   0  0  0  0  0  0  0  0  0  0  0  0
  -41.6682  -31.1012    2.1113 C   0  0  0  0  0  0  0  0  0  0  0  0
  -50.2751  -28.6238    3.3413 C   0  0  0  0  0  0  0  0  0  0  0  0
  -44.5878  -28.8083    0.5580 C   0  0  0  0  0  0  0  0  0  0  0  0
  -48.7553  -28.8196    3.1993 C   0  0  0  0  0  0  0  0  0  0  0  0
  -44.4544  -29.5842    1.8698 C   0  0  1  0  0  0  0  0  0  0  0  0
  -45.4429  -29.2045    6.8727 N   0  0  0  0  0  0  0  0  0  0  0  0
  -44.4073  -29.4134    4.7398 N   0  0  0  0  0  0  0  0  0  0  0  0
  -44.4505  -33.1681    0.8249 N   0  0  0  0  0  0  0  0  0  0  0  0
  -47.8341  -28.8730    6.8313 N   0  0  0  0  0  0  0  0  0  0  0  0
  -48.6843  -28.7794    5.7894 N   0  0  0  0  0  0  0  0  0  0  0  0
  -45.6643  -29.3746    2.7115 N   0  0  0  0  0  0  0  0  0  0  0  0
  -43.1847  -33.0128    1.4151 O   0  0  0  0  0  0  0  0  0  0  0  0
  -43.3836  -29.4659    6.5709 H   0  0  0  0  0  0  0  0  0  0  0  0
  -46.6599  -32.5702   -0.4249 H   0  0  0  0  0  0  0  0  0  0  0  0
  -47.1278  -31.4379    0.8886 H   0  0  0  0  0  0  0  0  0  0  0  0
  -46.1742  -30.8431   -0.5126 H   0  0  0  0  0  0  0  0  0  0  0  0
  -40.8852  -31.8713    2.0493 H   0  0  0  0  0  0  0  0  0  0  0  0
  -41.4380  -30.2871    1.4083 H   0  0  0  0  0  0  0  0  0  0  0  0
  -41.7087  -30.7012    3.1351 H   0  0  0  0  0  0  0  0  0  0  0  0
  -50.7331  -28.5688    2.3427 H   0  0  0  0  0  0  0  0  0  0  0  0
  -50.7038  -29.4721    3.8950 H   0  0  0  0  0  0  0  0  0  0  0  0
  -50.4749  -27.6905    3.8881 H   0  0  0  0  0  0  0  0  0  0  0  0
  -44.7722  -27.7462    0.7768 H   0  0  0  0  0  0  0  0  0  0  0  0
  -43.6586  -28.9071   -0.0224 H   0  0  0  0  0  0  0  0  0  0  0  0
  -45.4285  -29.2140   -0.0239 H   0  0  0  0  0  0  0  0  0  0  0  0
  -48.3333  -27.9704    2.6417 H   0  0  0  0  0  0  0  0  0  0  0  0
  -48.5622  -29.7520    2.6486 H   0  0  0  0  0  0  0  0  0  0  0  0
  -43.5830  -29.1859    2.4102 H   0  0  0  0  0  0  0  0  0  0  0  0
  -49.6670  -28.6342    5.9046 H   0  0  0  0  0  0  0  0  0  0  0  0
  -46.2813  -30.1344    2.5061 H   0  0  0  0  0  0  0  0  0  0  0  0
  1 15  2  0  0  0  0
  1 16  1  0  0  0  0
  2  5  2  0  0  0  0
  2  7  1  0  0  0  0
  2  8  1  0  0  0  0
  3  4  1  0  0  0  0
  3  6  2  0  0  0  0
  3 14  1  0  0  0  0
  4  9  1  0  0  0  0
  4 17  2  0  0  0  0
  5 13  1  0  0  0  0
  5 19  1  0  0  0  0
  6 10  1  0  0  0  0
  6 21  1  0  0  0  0
  7 15  1  0  0  0  0
  7 18  2  0  0  0  0
  8 16  2  0  0  0  0
  8 20  1  0  0  0  0
 11 13  1  0  0  0  0
 12 14  1  0  0  0  0
 14 20  1  0  0  0  0
 17 21  1  0  0  0  0
 18 19  1  0  0  0  0
  1 22  1  0  0  0  0
  9 23  1  0  0  0  0
  9 24  1  0  0  0  0
  9 25  1  0  0  0  0
 10 26  1  0  0  0  0
 10 27  1  0  0  0  0
 10 28  1  0  0  0  0
 11 29  1  0  0  0  0
 11 30  1  0  0  0  0
 11 31  1  0  0  0  0
 12 32  1  0  0  0  0
 12 33  1  0  0  0  0
 12 34  1  0  0  0  0
 13 35  1  0  0  0  0
 13 36  1  0  0  0  0
 14 37  1  0  0  0  0
 19 38  1  0  0  0  0
 20 39  1  0  0  0  0
M  END
> <POSIT::Probability>
0.72

> <POSIT::Method>
SHAPEFIT

> <ReceptorTitle>
UCSF-P4271-REFINED_LIGAND-BOUND-STATE_A__DU__LA1_A-201(A)

> <OMEGA_C>
hGMxwk7x6sF0+8JAfxE7wue76MG4AZxAlcowwg5/+MG6kcs/akc0wkAQAMKng2Q/iF1Awmsy58GA
3pFAMQEswqCs/cHq1OA/dJk6wpZ46MEwR8lAtGY2wtlT6sGLaYNAbl85wiiQ/cGq4CU+PKwmwk7P
+MEHHwdAsxlJwnv95MEd2FVA4FkywnJ35sHB2w4/agVDwnqO5sH3wExARNExwmas7MGIVu8/k8U1
wumi6cET7dtAE6ExwrhO68FMrJdAR80xwiisBMKpL1M/KFY/wtH75sHCmdpAwrxCwig85sH0QrlA
Rag2wjT/6sGCiC1AK70swhANBMLyIrU/xogtwkO668HsRNJAvaM6wtlHAsIrj9m+64I8wuKA+8E3
fmM/Y7I4wqS+9sFtNwO/aYojwm/4/sFCKANAg8AlwuFL8sH9Q7Q/sdUmwv+b9cEvpkhAvu5KwtyM
5MFY7xVArtBKwtjG68HBR3lATeZJwg2G3cEK13hArxYzwir43cEW2kY/ZKIuwr5B58GHILe8vrY1
wlO26cEztcO8TFVBwmHD38FnEilArj9CwiwE7sEegylA81Quwq986cHkQBpABatGwsIS5cEs8rxA
BSA5wi4T8cGYZCBA

> <OMEGA_E>
8FsqPw==

> <OMEGA_NBR>
     28822

$$$$
CACHE3HI_1690_3
  -OEChem-03092622523D

 38 40  0     1  0  0  0  0  0999 V2000
  -49.5727  -28.9771    3.6440 C   0  0  0  0  0  0  0  0  0  0  0  0
  -49.0711  -28.8625    6.0668 C   0  0  0  0  0  0  0  0  0  0  0  0
  -44.6944  -28.9663    5.4592 C   0  0  0  0  0  0  0  0  0  0  0  0
  -48.6741  -28.9359    4.7485 C   0  0  0  0  0  0  0  0  0  0  0  0
  -47.2560  -28.9603    4.7307 C   0  0  0  0  0  0  0  0  0  0  0  0
  -44.6991  -31.7334    0.4736 C   0  0  0  0  0  0  0  0  0  0  0  0
  -45.3772  -32.4794   -0.5055 C   0  0  0  0  0  0  0  0  0  0  0  0
  -43.3888  -31.7915    0.0784 C   0  0  0  0  0  0  0  0  0  0  0  0
  -46.8330  -28.9006    6.0528 C   0  0  0  0  0  0  0  0  0  0  0  0
  -46.2592  -29.0265    3.7581 C   0  0  0  0  0  0  0  0  0  0  0  0
  -46.8198  -32.7601   -0.5957 C   0  0  0  0  0  0  0  0  0  0  0  0
  -42.1357  -31.2463    0.6168 C   0  0  0  0  0  0  0  0  0  0  0  0
  -46.4855  -31.7896    2.2424 C   0  0  0  0  0  0  0  0  0  0  0  0
  -45.6657  -29.5679    1.3962 C   0  0  0  0  0  0  0  0  0  0  0  0
  -45.2779  -31.0256    1.6885 C   0  0  2  0  0  0  0  0  0  0  0  0
  -50.3047  -29.0107    2.7440 N   0  0  0  0  0  0  0  0  0  0  0  0
  -45.5617  -28.9000    6.4899 N   0  0  0  0  0  0  0  0  0  0  0  0
  -44.9599  -29.0289    4.1350 N   0  0  0  0  0  0  0  0  0  0  0  0
  -44.5510  -32.9633   -1.4368 N   0  0  0  0  0  0  0  0  0  0  0  0
  -47.9454  -28.8420    6.8498 N   0  0  0  0  0  0  0  0  0  0  0  0
  -46.5797  -29.0907    2.3896 N   0  0  0  0  0  0  0  0  0  0  0  0
  -43.2876  -32.5230   -1.0615 O   0  0  0  0  0  0  0  0  0  0  0  0
  -50.0513  -28.8232    6.5224 H   0  0  0  0  0  0  0  0  0  0  0  0
  -43.6435  -28.9688    5.7277 H   0  0  0  0  0  0  0  0  0  0  0  0
  -47.3595  -31.9913   -1.1776 H   0  0  0  0  0  0  0  0  0  0  0  0
  -47.3036  -32.7817    0.3976 H   0  0  0  0  0  0  0  0  0  0  0  0
  -47.0092  -33.7346   -1.0781 H   0  0  0  0  0  0  0  0  0  0  0  0
  -41.6459  -31.9383    1.3277 H   0  0  0  0  0  0  0  0  0  0  0  0
  -42.2924  -30.3048    1.1765 H   0  0  0  0  0  0  0  0  0  0  0  0
  -41.4087  -31.0332   -0.1876 H   0  0  0  0  0  0  0  0  0  0  0  0
  -47.2924  -31.8379    1.5027 H   0  0  0  0  0  0  0  0  0  0  0  0
  -46.2274  -32.8168    2.5224 H   0  0  0  0  0  0  0  0  0  0  0  0
  -46.8802  -31.2916    3.1347 H   0  0  0  0  0  0  0  0  0  0  0  0
  -44.7796  -28.9240    1.4219 H   0  0  0  0  0  0  0  0  0  0  0  0
  -46.1311  -29.4549    0.4119 H   0  0  0  0  0  0  0  0  0  0  0  0
  -44.5154  -31.0185    2.4799 H   0  0  0  0  0  0  0  0  0  0  0  0
  -47.9375  -28.7906    7.8590 H   0  0  0  0  0  0  0  0  0  0  0  0
  -47.4963  -28.7822    2.1201 H   0  0  0  0  0  0  0  0  0  0  0  0
  1  4  1  0  0  0  0
  1 16  3  0  0  0  0
  2  4  2  0  0  0  0
  2 20  1  0  0  0  0
  3 17  2  0  0  0  0
  3 18  1  0  0  0  0
  4  5  1  0  0  0  0
  5  9  2  0  0  0  0
  5 10  1  0  0  0  0
  6  7  1  0  0  0  0
  6  8  2  0  0  0  0
  6 15  1  0  0  0  0
  7 11  1  0  0  0  0
  7 19  2  0  0  0  0
  8 12  1  0  0  0  0
  8 22  1  0  0  0  0
  9 17  1  0  0  0  0
  9 20  1  0  0  0  0
 10 18  2  0  0  0  0
 10 21  1  0  0  0  0
 13 15  1  0  0  0  0
 14 15  1  0  0  0  0
 14 21  1  0  0  0  0
 19 22  1  0  0  0  0
  2 23  1  0  0  0  0
  3 24  1  0  0  0  0
 11 25  1  0  0  0  0
 11 26  1  0  0  0  0
 11 27  1  0  0  0  0
 12 28  1  0  0  0  0
 12 29  1  0  0  0  0
 12 30  1  0  0  0  0
 13 31  1  0  0  0  0
 13 32  1  0  0  0  0
 13 33  1  0  0  0  0
 14 34  1  0  0  0  0
 14 35  1  0  0  0  0
 15 36  1  0  0  0  0
 20 37  1  0  0  0  0
 21 38  1  0  0  0  0
M  END
> <POSIT::Probability>
0.33

> <POSIT::Method>
HYBRID

> <ReceptorTitle>
UCSF-P4271-REFINED_LIGAND-BOUND-STATE_A__DU__LA1_A-201(A)

> <OMEGA_C>
d0pGwh3R58F7NmlAwkhEwnrm5sGII8JADscywgi758GMsa5ATLJCwr5858H485dAKgY9wp6u58E1
YpdA7csywvbd/cEAePI+NII1wuvqAcL4ZgG/H44twhRV/sHAlKA9AlU7wm4058GUsMFAYwk5wko2
6MFmhXBAg0c7wkwKA8I4gRi/7YoowoT4+cHY6R0/JPE5whZR/sHegw9AqKk2wv6K7MFgt7I/hhw1
wnw0+MFAH9g//jdJwu4V6MEenS9AND82wkQz58GTrc9A7tYzwjQ76MHbUYRAMjQywnXaA8I06be/
GMg/wle85sGsMdtAolE6wqq56ME07xhAhyYtwpAXAsLo34e/hjRIwvmV5sHTt9BA9pIuwgnA58E4
SbdAJnA9wjTu/8H4u5a/4zY9wnEgA8Igkcs+ZAk8wjPwBsIQ/om/apUmwpmB/8EA8ak/dCspwkFw
8sGIlpY/fKIlwutD+MEgHUC+ZSs9wuuz/sFsWMA/3+g4wmhEA8JkbyFAT4U7wh1V+sGSnkhATx4z
wlhk58EUAbY/N4Y4wryj68GA5NI+yw8ywvQl+MFmth5A+L8/wh5T5sE7fftALvw9wv5B5sEOsAdA

> <OMEGA_E>
79gywQ==

> <OMEGA_NBR>
     30079

$$$$
CACHE3HI_1690_37
  -OEChem-03092622523D

 38 40  0     0  0  0  0  0  0999 V2000
  -44.1004  -33.3099    1.6556 C   0  0  0  0  0  0  0  0  0  0  0  0
  -48.8525  -28.7594    5.7366 C   0  0  0  0  0  0  0  0  0  0  0  0
  -44.3569  -29.3801    6.0743 C   0  0  0  0  0  0  0  0  0  0  0  0
  -46.7716  -29.0916    4.8620 C   0  0  0  0  0  0  0  0  0  0  0  0
  -44.9339  -32.1009    1.4920 C   0  0  0  0  0  0  0  0  0  0  0  0
  -48.1879  -28.8932    4.5362 C   0  0  0  0  0  0  0  0  0  0  0  0
  -44.1566  -31.0288    1.8356 C   0  0  0  0  0  0  0  0  0  0  0  0
  -46.6567  -29.0523    6.2534 C   0  0  0  0  0  0  0  0  0  0  0  0
  -45.6107  -29.2802    4.0904 C   0  0  0  0  0  0  0  0  0  0  0  0
  -46.2667  -32.0420    0.8045 C   0  0  0  0  0  0  0  0  0  0  0  0
  -50.3097  -28.6250    3.1680 C   0  0  0  0  0  0  0  0  0  0  0  0
  -41.7904  -30.7919    1.1892 C   0  0  0  0  0  0  0  0  0  0  0  0
  -48.7861  -28.8379    3.1404 C   0  0  0  0  0  0  0  0  0  0  0  0
  -44.5258  -29.5598    1.8328 C   0  0  0  0  0  0  0  0  0  0  0  0
  -42.8554  -32.9236    1.8062 N   0  0  0  0  0  0  0  0  0  0  0  0
  -45.4555  -29.1956    6.8489 N   0  0  0  0  0  0  0  0  0  0  0  0
  -44.4149  -29.4191    4.7175 N   0  0  0  0  0  0  0  0  0  0  0  0
  -47.9255  -28.8517    6.7700 N   0  0  0  0  0  0  0  0  0  0  0  0
  -42.9002  -31.5687    1.7710 N   0  0  0  0  0  0  0  0  0  0  0  0
  -45.6988  -29.3157    2.6987 N   0  0  0  0  0  0  0  0  0  0  0  0
  -44.4533  -34.3306    1.6519 H   0  0  0  0  0  0  0  0  0  0  0  0
  -49.9152  -28.6083    5.8550 H   0  0  0  0  0  0  0  0  0  0  0  0
  -43.3978  -29.5010    6.5558 H   0  0  0  0  0  0  0  0  0  0  0  0
  -47.0695  -32.1074    1.5536 H   0  0  0  0  0  0  0  0  0  0  0  0
  -46.3543  -31.0930    0.2553 H   0  0  0  0  0  0  0  0  0  0  0  0
  -46.3533  -32.8826    0.1002 H   0  0  0  0  0  0  0  0  0  0  0  0
  -50.6946  -28.5921    2.1380 H   0  0  0  0  0  0  0  0  0  0  0  0
  -50.7860  -29.4547    3.7109 H   0  0  0  0  0  0  0  0  0  0  0  0
  -50.5381  -27.6760    3.6751 H   0  0  0  0  0  0  0  0  0  0  0  0
  -41.0091  -31.4788    0.8318 H   0  0  0  0  0  0  0  0  0  0  0  0
  -42.1650  -30.1924    0.3464 H   0  0  0  0  0  0  0  0  0  0  0  0
  -41.3691  -30.1243    1.9553 H   0  0  0  0  0  0  0  0  0  0  0  0
  -48.3224  -28.0066    2.5891 H   0  0  0  0  0  0  0  0  0  0  0  0
  -48.5702  -29.7853    2.6248 H   0  0  0  0  0  0  0  0  0  0  0  0
  -43.6735  -28.9723    2.2049 H   0  0  0  0  0  0  0  0  0  0  0  0
  -44.7645  -29.2491    0.8050 H   0  0  0  0  0  0  0  0  0  0  0  0
  -48.1438  -28.7831    7.7435 H   0  0  0  0  0  0  0  0  0  0  0  0
  -46.3588  -30.0347    2.4808 H   0  0  0  0  0  0  0  0  0  0  0  0
  1  5  1  0  0  0  0
  1 15  2  0  0  0  0
  2  6  2  0  0  0  0
  2 18  1  0  0  0  0
  3 16  1  0  0  0  0
  3 17  2  0  0  0  0
  4  6  1  0  0  0  0
  4  8  1  0  0  0  0
  4  9  2  0  0  0  0
  5  7  2  0  0  0  0
  5 10  1  0  0  0  0
  6 13  1  0  0  0  0
  7 14  1  0  0  0  0
  7 19  1  0  0  0  0
  8 16  2  0  0  0  0
  8 18  1  0  0  0  0
  9 17  1  0  0  0  0
  9 20  1  0  0  0  0
 11 13  1  0  0  0  0
 12 19  1  0  0  0  0
 14 20  1  0  0  0  0
 15 19  1  0  0  0  0
  1 21  1  0  0  0  0
  2 22  1  0  0  0  0
  3 23  1  0  0  0  0
 10 24  1  0  0  0  0
 10 25  1  0  0  0  0
 10 26  1  0  0  0  0
 11 27  1  0  0  0  0
 11 28  1  0  0  0  0
 11 29  1  0  0  0  0
 12 30  1  0  0  0  0
 12 31  1  0  0  0  0
 12 32  1  0  0  0  0
 13 33  1  0  0  0  0
 13 34  1  0  0  0  0
 14 35  1  0  0  0  0
 14 36  1  0  0  0  0
 18 37  1  0  0  0  0
 20 38  1  0  0  0  0
M  END
> <POSIT::Probability>
0.79

> <POSIT::Method>
SHAPEFIT

> <ReceptorTitle>
UCSF-P4271-REFINED_LIGAND-BOUND-STATE_A__DU__LA1_A-201(A)

> <OMEGA_C>
2GYwwlk9BcI869M/62hDwkwT5sHVkbdAgG0xwokK68HlYMJAFRY7wpi76MEslZtAUbwzwkxnAMJ+
+L4/YMBAwkUl58FqKJFAXqAwwgU7+MGT9eo/e6A6wi9r6MGfG8hAXXE2wuY96sFb5IJAIRE5wg8r
AMKi8U0/LD1Jwv7/5MH8v0pAYyknwrZV9sGyOJg/8SRDwvaz5sHD+0hAaxoywmR67MF4muo/+2sr
wsKxA8LaMuc/dNI1woiQ6cEtKttA1agxwlFa68HU9ZZAv7M/wjTQ5sGlo9hAwpkrwruM/MGUsOI/
jcs2woeG6sEgtyxANdAxwo5SCcJHctM/N6lHwrPd5MHmW7tATJctwvkB7MHCyNFAMEc8wgNuAMKA
3cY/zWo5wnG++MEQs4I+w2k5wsGHA8L7KM09R8dKwoW85MFV1QhA2SRLwkuj68Gqfm1ACCdKwmlo
3cFbNWtAVAkkwnzU+8Gu81Q/76gowgmK8cEQW7E+Anolwpf+8MGJSPo/F0pBwm4N4MEEtCVA6EdC
wlBI7sFS/SdAq7EuwjDH58E4HQ1A0Q4zwh/+6cGJEk4/N5NAwrVD5sFryvdAXm85wgZH8MH6xB5A

> <OMEGA_E>
MDADPw==

> <OMEGA_NBR>
     31358

$$$$
CACHE3HI_1690_6
  -OEChem-03092622523D

 44 46  0     1  0  0  0  0  0999 V2000
  -48.8356  -28.6543    5.7270 C   0  0  0  0  0  0  0  0  0  0  0  0
  -44.3788  -29.4673    6.0956 C   0  0  0  0  0  0  0  0  0  0  0  0
  -46.7611  -29.0551    4.8523 C   0  0  0  0  0  0  0  0  0  0  0  0
  -48.1767  -28.8168    4.5262 C   0  0  0  0  0  0  0  0  0  0  0  0
  -44.2954  -31.0359    1.5423 C   0  0  0  0  0  0  0  0  0  0  0  0
  -43.0137  -31.7443    1.2180 C   0  0  0  0  0  0  0  0  0  0  0  0
  -45.2772  -32.0116    1.5017 C   0  0  0  0  0  0  0  0  0  0  0  0
  -46.6553  -29.0275    6.2480 C   0  0  0  0  0  0  0  0  0  0  0  0
  -45.5957  -29.2878    4.0901 C   0  0  0  0  0  0  0  0  0  0  0  0
  -41.6207  -31.1739    1.0623 C   0  0  0  0  0  0  0  0  0  0  0  0
  -46.7843  -31.8917    1.6311 C   0  0  0  0  0  0  0  0  0  0  0  0
  -50.3375  -28.7163    3.1792 C   0  0  0  0  0  0  0  0  0  0  0  0
  -43.2324  -28.7535    2.1920 C   0  0  0  0  0  0  0  0  0  0  0  0
  -45.2472  -34.4932    1.0654 C   0  0  0  0  0  0  0  0  0  0  0  0
  -48.7977  -28.7861    3.1381 C   0  0  0  0  0  0  0  0  0  0  0  0
  -44.5103  -29.5231    1.7548 C   0  0  2  0  0  0  0  0  0  0  0  0
  -45.4705  -29.2246    6.8576 N   0  0  0  0  0  0  0  0  0  0  0  0
  -44.4273  -29.5115    4.7410 N   0  0  0  0  0  0  0  0  0  0  0  0
  -43.2619  -33.0242    1.0578 N   0  0  0  0  0  0  0  0  0  0  0  0
  -47.9151  -28.7776    6.7611 N   0  0  0  0  0  0  0  0  0  0  0  0
  -44.5868  -33.1761    1.2449 N   0  0  0  0  0  0  0  0  0  0  0  0
  -45.6506  -29.2443    2.6898 N   0  0  0  0  0  0  0  0  0  0  0  0
  -49.8920  -28.4630    5.8443 H   0  0  0  0  0  0  0  0  0  0  0  0
  -43.4307  -29.6323    6.5859 H   0  0  0  0  0  0  0  0  0  0  0  0
  -40.9191  -31.9823    0.8090 H   0  0  0  0  0  0  0  0  0  0  0  0
  -41.6200  -30.4227    0.2587 H   0  0  0  0  0  0  0  0  0  0  0  0
  -41.3104  -30.7015    2.0060 H   0  0  0  0  0  0  0  0  0  0  0  0
  -47.2245  -31.7086    0.6398 H   0  0  0  0  0  0  0  0  0  0  0  0
  -47.1919  -32.8252    2.0464 H   0  0  0  0  0  0  0  0  0  0  0  0
  -47.0292  -31.0545    2.3012 H   0  0  0  0  0  0  0  0  0  0  0  0
  -50.7317  -28.6966    2.1525 H   0  0  0  0  0  0  0  0  0  0  0  0
  -50.7305  -29.5984    3.7059 H   0  0  0  0  0  0  0  0  0  0  0  0
  -50.6490  -27.8040    3.7090 H   0  0  0  0  0  0  0  0  0  0  0  0
  -43.4718  -27.6876    2.3209 H   0  0  0  0  0  0  0  0  0  0  0  0
  -42.8648  -29.1643    3.1439 H   0  0  0  0  0  0  0  0  0  0  0  0
  -42.4560  -28.8642    1.4207 H   0  0  0  0  0  0  0  0  0  0  0  0
  -44.4970  -35.2437    0.7757 H   0  0  0  0  0  0  0  0  0  0  0  0
  -45.7232  -34.7963    2.0096 H   0  0  0  0  0  0  0  0  0  0  0  0
  -46.0114  -34.4158    0.2779 H   0  0  0  0  0  0  0  0  0  0  0  0
  -48.4191  -27.9033    2.6022 H   0  0  0  0  0  0  0  0  0  0  0  0
  -48.5006  -29.6978    2.5990 H   0  0  0  0  0  0  0  0  0  0  0  0
  -44.7955  -29.1114    0.7754 H   0  0  0  0  0  0  0  0  0  0  0  0
  -48.1320  -28.6973    7.7340 H   0  0  0  0  0  0  0  0  0  0  0  0
  -46.3645  -29.8965    2.4348 H   0  0  0  0  0  0  0  0  0  0  0  0
  1  4  2  0  0  0  0
  1 20  1  0  0  0  0
  2 17  1  0  0  0  0
  2 18  2  0  0  0  0
  3  4  1  0  0  0  0
  3  8  1  0  0  0  0
  3  9  2  0  0  0  0
  4 15  1  0  0  0  0
  5  6  1  0  0  0  0
  5  7  2  0  0  0  0
  5 16  1  0  0  0  0
  6 10  1  0  0  0  0
  6 19  2  0  0  0  0
  7 11  1  0  0  0  0
  7 21  1  0  0  0  0
  8 17  2  0  0  0  0
  8 20  1  0  0  0  0
  9 18  1  0  0  0  0
  9 22  1  0  0  0  0
 12 15  1  0  0  0  0
 13 16  1  0  0  0  0
 14 21  1  0  0  0  0
 16 22  1  0  0  0  0
 19 21  1  0  0  0  0
  1 23  1  0  0  0  0
  2 24  1  0  0  0  0
 10 25  1  0  0  0  0
 10 26  1  0  0  0  0
 10 27  1  0  0  0  0
 11 28  1  0  0  0  0
 11 29  1  0  0  0  0
 11 30  1  0  0  0  0
 12 31  1  0  0  0  0
 12 32  1  0  0  0  0
 12 33  1  0  0  0  0
 13 34  1  0  0  0  0
 13 35  1  0  0  0  0
 13 36  1  0  0  0  0
 14 37  1  0  0  0  0
 14 38  1  0  0  0  0
 14 39  1  0  0  0  0
 15 40  1  0  0  0  0
 15 41  1  0  0  0  0
 16 42  1  0  0  0  0
 20 43  1  0  0  0  0
 22 44  1  0  0  0  0
M  END
> <POSIT::Probability>
0.72

> <POSIT::Method>
SHAPEFIT

> <ReceptorTitle>
UCSF-P4271-REFINED_LIGAND-BOUND-STATE_A__DU__LA1_A-201(A)

> <OMEGA_C>
oVdDwhE85cFiQ7dA2YMxwvm868EuD8NAYAs7wvFw6MFKRptA+rRAws+I5sGC1pBAhC4xwm9J+MFz
acU/EA4swkz0/cHp6Js/5hs1wuILAMLtNsA//p46wlI46MGh78dAA2I2wmZN6sF84oJAoHsmwhBk
+cFf+Ic/ISM7wkYi/8FVxtA/kllJwu265cF6eEtA/+0swikH5sG4SQxALf00wgX5CcINXog/4TBD
wgNK5sEw10hAiQoywj4v7MHznOA/1uE1wvPL6cHGcdtAirUxwpsX7MEptpdAJQwtwsoYBMKlZYc/
A6k/wns45sHoWthA51gywl60BMKTV58/MZo2wmn06cGMJSxAZ5FHwjS048GJBLtAFbktwgUP7cH6
v9JAKq0jwr3b/8EOGU8/33omwrdh88GGb4Q+4T0lwq2c9cH4YQBA7OU8wkGr/cEYxyM/i8Q8wv9M
A8LW9wJA7R08wqxv+MHiRhNAPO1KwomS5cE3wglABexKwpPJ7MHZLG1AjphKwpBu3sHaYG1AE+Mt
wjqA3cENiRRAlXUrwoFQ6cGaNUlA8dIpwtTp5sEg2bU/9/wxwon5DMIUkUY/leQ2wl4vC8JwnQBA
oQs4wsCpCcKiRo4+L61Bwv0538GkiSZApgBCwgCV7cGjVSZAjS4zwjvk6MFYf0Y/JYdAwgWU5cG8
fPdAPHU5wgEs78Et0xtA

> <OMEGA_E>
yP4TPw==

> <OMEGA_NBR>
     32757

$$$$
CACHE3HI_1690_65
  -OEChem-03092622523D

 39 42  0     1  0  0  0  0  0999 V2000
  -48.8591  -28.7799    5.7028 C   0  0  0  0  0  0  0  0  0  0  0  0
  -44.3707  -29.3379    6.1047 C   0  0  0  0  0  0  0  0  0  0  0  0
  -46.7731  -29.1691    4.8127 C   0  0  0  0  0  0  0  0  0  0  0  0
  -48.2158  -28.9868    4.5006 C   0  0  0  0  0  0  0  0  0  0  0  0
  -46.6700  -29.0551    6.2106 C   0  0  0  0  0  0  0  0  0  0  0  0
  -45.5702  -29.3832    4.0734 C   0  0  0  0  0  0  0  0  0  0  0  0
  -42.8210  -32.5584    1.2450 C   0  0  0  0  0  0  0  0  0  0  0  0
  -42.8778  -31.1855    0.5321 C   0  0  0  0  0  0  0  0  0  0  0  0
  -43.4036  -31.8379    2.4807 C   0  0  0  0  0  0  0  0  0  0  0  0
  -45.4610  -31.3333    1.0184 C   0  0  0  0  0  0  0  0  0  0  0  0
  -46.3831  -30.6044    2.0152 C   0  0  0  0  0  0  0  0  0  0  0  0
  -44.2288  -29.4511    1.9439 C   0  0  0  0  0  0  0  0  0  0  0  0
  -44.0591  -30.8847    1.4605 C   0  0  0  0  0  0  0  0  0  0  0  0
  -50.4022  -28.5929    3.2487 C   0  0  0  0  0  0  0  0  0  0  0  0
  -48.9219  -29.0115    3.1547 C   0  0  0  0  0  0  0  0  0  0  0  0
  -45.4856  -29.1494    6.8387 N   0  0  0  0  0  0  0  0  0  0  0  0
  -44.3958  -29.4459    4.7568 N   0  0  0  0  0  0  0  0  0  0  0  0
  -47.9309  -28.8341    6.7247 N   0  0  0  0  0  0  0  0  0  0  0  0
  -45.5201  -29.5773    2.6741 N   0  0  2  0  0  0  0  0  0  0  0  0
  -49.9175  -28.6040    5.8256 H   0  0  0  0  0  0  0  0  0  0  0  0
  -43.4202  -29.4052    6.6130 H   0  0  0  0  0  0  0  0  0  0  0  0
  -43.4721  -33.3316    0.8113 H   0  0  0  0  0  0  0  0  0  0  0  0
  -41.8087  -32.9662    1.3825 H   0  0  0  0  0  0  0  0  0  0  0  0
  -41.9946  -30.5468    0.6799 H   0  0  0  0  0  0  0  0  0  0  0  0
  -43.1256  -31.2266   -0.5388 H   0  0  0  0  0  0  0  0  0  0  0  0
  -44.1066  -32.4346    3.0806 H   0  0  0  0  0  0  0  0  0  0  0  0
  -42.6595  -31.3722    3.1435 H   0  0  0  0  0  0  0  0  0  0  0  0
  -45.5722  -32.4246    1.1010 H   0  0  0  0  0  0  0  0  0  0  0  0
  -45.6693  -31.0207   -0.0154 H   0  0  0  0  0  0  0  0  0  0  0  0
  -47.2186  -30.1231    1.4857 H   0  0  0  0  0  0  0  0  0  0  0  0
  -46.7791  -31.3101    2.7603 H   0  0  0  0  0  0  0  0  0  0  0  0
  -43.4100  -29.1455    2.6118 H   0  0  0  0  0  0  0  0  0  0  0  0
  -44.3014  -28.7431    1.1051 H   0  0  0  0  0  0  0  0  0  0  0  0
  -50.8585  -28.6299    2.2485 H   0  0  0  0  0  0  0  0  0  0  0  0
  -50.9357  -29.2812    3.9207 H   0  0  0  0  0  0  0  0  0  0  0  0
  -50.4690  -27.5688    3.6444 H   0  0  0  0  0  0  0  0  0  0  0  0
  -48.4039  -28.3205    2.4734 H   0  0  0  0  0  0  0  0  0  0  0  0
  -48.8706  -30.0330    2.7497 H   0  0  0  0  0  0  0  0  0  0  0  0
  -48.1425  -28.7283    7.6963 H   0  0  0  0  0  0  0  0  0  0  0  0
  1  4  2  0  0  0  0
  1 18  1  0  0  0  0
  2 16  1  0  0  0  0
  2 17  2  0  0  0  0
  3  4  1  0  0  0  0
  3  5  1  0  0  0  0
  3  6  2  0  0  0  0
  4 15  1  0  0  0  0
  5 16  2  0  0  0  0
  5 18  1  0  0  0  0
  6 17  1  0  0  0  0
  6 19  1  0  0  0  0
  7  8  1  0  0  0  0
  7  9  1  0  0  0  0
  8 13  1  0  0  0  0
  9 13  1  0  0  0  0
 10 11  1  0  0  0  0
 10 13  1  0  0  0  0
 11 19  1  0  0  0  0
 12 13  1  0  0  0  0
 12 19  1  0  0  0  0
 14 15  1  0  0  0  0
  1 20  1  0  0  0  0
  2 21  1  0  0  0  0
  7 22  1  0  0  0  0
  7 23  1  0  0  0  0
  8 24  1  0  0  0  0
  8 25  1  0  0  0  0
  9 26  1  0  0  0  0
  9 27  1  0  0  0  0
 10 28  1  0  0  0  0
 10 29  1  0  0  0  0
 11 30  1  0  0  0  0
 11 31  1  0  0  0  0
 12 32  1  0  0  0  0
 12 33  1  0  0  0  0
 14 34  1  0  0  0  0
 14 35  1  0  0  0  0
 14 36  1  0  0  0  0
 15 37  1  0  0  0  0
 15 38  1  0  0  0  0
 18 39  1  0  0  0  0
M  END
> <POSIT::Probability>
0.72

> <POSIT::Method>
SHAPEFIT

> <ReceptorTitle>
UCSF-P4271-REFINED_LIGAND-BOUND-STATE_A__DU__LA1_A-201(A)

> <OMEGA_C>
q29DwlM95sGGfbZAnHsxwvOz6sHCWcNAshc7wk9a6cH/AZpA9txAwgTl58EaBZBAGa46wtpw6MH+
vMZA10c2wsgQ68GcWYJAt0grwsE7AsIKXZ8/6IIrwgF8+cEeOQg/Up0twge0/sGWwx5ACtg1wp+q
+sHEW4I/TYg5ws/V9MEH+QBAUeowwtmb68HO0Pg/fzwwwt8T98E987o/z5tJwlS+5MEs609A/K9D
wp8X6MFd5klAQfE1wvIx6cGe1tpAV5UxwjWR68EUOJhAQ7k/wi2s5sG8MNdAixQ2wlme7MGWJCtA
jKtHwgXV5MGFa7pAQK4twuw968FfndNAZeMtwpxTBcL0r08/GTwnwlvdA8IJ9bA/bvonwuZf9MFC
EC4/nIAswvzP+cGs8Am/Hm0wwvy8AcKbKEVATKMqwjv6+sEmL0lA40k2wr+yAcKm7Yw/Wq02wm0q
+MGbEH280988whb88MGvLL4/yh07wgp7+sEwqTBA0aMtwhMq6cG9JydAoTQxwu7x5cFbdI0/EW9L
wh0K5cHF5w9ALr5LwvE/6sEJ7XpAR+BJwtGM3MGiPmlAkJ1BwmSQ4sEITB5Ad3tDwoRD8MFv+i9A
5ZFAwqPT5cFUSPZA

> <OMEGA_E>
lHIePw==

> <OMEGA_NBR>
     34062

$$$$
CACHE3HI_1690_87
  -OEChem-03092622523D

 44 45  0     1  0  0  0  0  0999 V2000
  -48.8412  -28.8001    5.7202 C   0  0  0  0  0  0  0  0  0  0  0  0
  -44.3383  -29.2917    6.1232 C   0  0  0  0  0  0  0  0  0  0  0  0
  -46.7384  -29.0850    4.8849 C   0  0  0  0  0  0  0  0  0  0  0  0
  -48.1490  -28.9031    4.5333 C   0  0  0  0  0  0  0  0  0  0  0  0
  -46.6465  -29.0334    6.2770 C   0  0  0  0  0  0  0  0  0  0  0  0
  -45.5753  -29.2830    4.1197 C   0  0  0  0  0  0  0  0  0  0  0  0
  -44.5567  -31.0874    1.3996 C   0  0  0  0  0  0  0  0  0  0  0  0
  -50.2347  -28.6750    3.1018 C   0  0  0  0  0  0  0  0  0  0  0  0
  -41.7575  -32.0520    3.0867 C   0  0  0  0  0  0  0  0  0  0  0  0
  -42.3209  -29.2133    0.7513 C   0  0  0  0  0  0  0  0  0  0  0  0
  -43.4514  -27.4325    2.1072 C   0  0  0  0  0  0  0  0  0  0  0  0
  -48.7089  -28.8355    3.1211 C   0  0  0  0  0  0  0  0  0  0  0  0
  -42.9276  -32.7194    2.3388 C   0  0  0  0  0  0  0  0  0  0  0  0
  -44.7012  -29.5896    1.6520 C   0  0  2  0  0  0  0  0  0  0  0  0
  -43.3020  -28.9530    1.9222 C   0  0  0  0  0  0  0  0  0  0  0  0
  -45.4494  -29.1333    6.8872 N   0  0  0  0  0  0  0  0  0  0  0  0
  -44.3850  -29.3891    4.7649 N   0  0  0  0  0  0  0  0  0  0  0  0
  -47.9324  -28.8843    6.7717 N   0  0  0  0  0  0  0  0  0  0  0  0
  -45.7212  -29.3317    2.7198 N   0  0  0  0  0  0  0  0  0  0  0  0
  -44.1071  -31.8615    2.4515 N   0  0  0  0  0  0  0  0  0  0  0  0
  -44.5336  -31.5080    0.2466 O   0  0  0  0  0  0  0  0  0  0  0  0
  -49.9094  -28.6750    5.8184 H   0  0  0  0  0  0  0  0  0  0  0  0
  -43.3769  -29.3427    6.6126 H   0  0  0  0  0  0  0  0  0  0  0  0
  -50.5863  -28.6317    2.0604 H   0  0  0  0  0  0  0  0  0  0  0  0
  -50.6999  -29.5324    3.6103 H   0  0  0  0  0  0  0  0  0  0  0  0
  -50.5121  -27.7460    3.6213 H   0  0  0  0  0  0  0  0  0  0  0  0
  -40.8627  -32.6872    3.0101 H   0  0  0  0  0  0  0  0  0  0  0  0
  -41.5489  -31.0694    2.6385 H   0  0  0  0  0  0  0  0  0  0  0  0
  -42.0255  -31.9226    4.1457 H   0  0  0  0  0  0  0  0  0  0  0  0
  -42.2026  -30.2971    0.6054 H   0  0  0  0  0  0  0  0  0  0  0  0
  -42.7198  -28.7610   -0.1686 H   0  0  0  0  0  0  0  0  0  0  0  0
  -41.3435  -28.7662    0.9858 H   0  0  0  0  0  0  0  0  0  0  0  0
  -44.1457  -27.2298    2.9359 H   0  0  0  0  0  0  0  0  0  0  0  0
  -42.4693  -26.9929    2.3359 H   0  0  0  0  0  0  0  0  0  0  0  0
  -43.8456  -26.9877    1.1816 H   0  0  0  0  0  0  0  0  0  0  0  0
  -48.2572  -27.9767    2.6030 H   0  0  0  0  0  0  0  0  0  0  0  0
  -48.4449  -29.7631    2.5921 H   0  0  0  0  0  0  0  0  0  0  0  0
  -42.6637  -32.8484    1.2787 H   0  0  0  0  0  0  0  0  0  0  0  0
  -43.1404  -33.7017    2.7859 H   0  0  0  0  0  0  0  0  0  0  0  0
  -45.0783  -29.1401    0.7216 H   0  0  0  0  0  0  0  0  0  0  0  0
  -42.8850  -29.3887    2.8422 H   0  0  0  0  0  0  0  0  0  0  0  0
  -48.1723  -28.8433    7.7416 H   0  0  0  0  0  0  0  0  0  0  0  0
  -46.4134  -30.0379    2.5713 H   0  0  0  0  0  0  0  0  0  0  0  0
  -44.6042  -31.8345    3.3187 H   0  0  0  0  0  0  0  0  0  0  0  0
  1  4  2  0  0  0  0
  1 18  1  0  0  0  0
  2 16  1  0  0  0  0
  2 17  2  0  0  0  0
  3  4  1  0  0  0  0
  3  5  1  0  0  0  0
  3  6  2  0  0  0  0
  4 12  1  0  0  0  0
  5 16  2  0  0  0  0
  5 18  1  0  0  0  0
  6 17  1  0  0  0  0
  6 19  1  0  0  0  0
  7 14  1  0  0  0  0
  7 20  1  0  0  0  0
  7 21  2  0  0  0  0
  8 12  1  0  0  0  0
  9 13  1  0  0  0  0
 10 15  1  0  0  0  0
 11 15  1  0  0  0  0
 13 20  1  0  0  0  0
 14 15  1  0  0  0  0
 14 19  1  0  0  0  0
  1 22  1  0  0  0  0
  2 23  1  0  0  0  0
  8 24  1  0  0  0  0
  8 25  1  0  0  0  0
  8 26  1  0  0  0  0
  9 27  1  0  0  0  0
  9 28  1  0  0  0  0
  9 29  1  0  0  0  0
 10 30  1  0  0  0  0
 10 31  1  0  0  0  0
 10 32  1  0  0  0  0
 11 33  1  0  0  0  0
 11 34  1  0  0  0  0
 11 35  1  0  0  0  0
 12 36  1  0  0  0  0
 12 37  1  0  0  0  0
 13 38  1  0  0  0  0
 13 39  1  0  0  0  0
 14 40  1  0  0  0  0
 15 41  1  0  0  0  0
 18 42  1  0  0  0  0
 19 43  1  0  0  0  0
 20 44  1  0  0  0  0
M  END
> <POSIT::Probability>
0.85

> <POSIT::Method>
SHAPEFIT

> <ReceptorTitle>
UCSF-P4271-REFINED_LIGAND-BOUND-STATE_A__DU__LA1_A-201(A)

> <OMEGA_C>
aF1DwoJm5sHTC7dAYFoxwnBV6sHx8MNALPQ6wgyu6ME5UZxAjZhAwng558GoEJFAB5Y6wlRE6MER
3chAEE02woxD6sGo1INAFDoywhaz+MGIJLM/XPBIwoBm5cGThEZAqwcnwkk1AMJ6jEVAjkgpwsa0
6cHQVkA/NM4twsJ128Gm2wZA7dVCwi6v5sGkv0dA2bUrwrHgAsLUrhVAAc4ywpK37MG0ddM/RjUt
wqyf58H0C/Y/L8w1wuoQ6cH/Y9xAQ4oxwtwc68EYephAvLo/wg4T58HcsdhAfOI2wlCn6sFKES5A
pW0wwlLk/sH15BxAcSIywlAQ/MHAfHw+RaNHwlNm5cGNMLpA74Etwue96sGamtNAW1hKwrsN5cEq
3gNAssxKwlZC7MH3D2dAbgxKwsD33cGzw2dAaXMjwr6/AsIKpUBACzImwhOO+MHG3ShAJRoowoZh
/8FGqYRAcM8own1g8sHG/Bo/DuEqwnQW5sHSpyy+yV8lwiIh5sGzW3w/O5UwwrjW2cGF5TtAmuAp
wmrx18ErgBVA32Evwrzm18GCPZc/WQdBwlXQ38HmlyZAnsdBwusa7sEq5CVAp6cqws9kA8KQraM/
wI8swonOBsKNSzJAL1A0wvEe6cGyujg/Roorwvgb68FH5jVAdrBAwgO/5sFju/dAXKc5wp9N8MFv
kCRAwGoywg+t/sGtZVRA

> <OMEGA_E>
BJwkPw==

> <OMEGA_NBR>
     35461

$$$$
CACHE3HI_1696_1
  -OEChem-03092622523D

 41 43  0     1  0  0  0  0  0999 V2000
  -42.2616  -31.6734    2.3574 C   0  0  0  0  0  0  0  0  0  0  0  0
  -43.6633  -31.8682    2.1906 C   0  0  0  0  0  0  0  0  0  0  0  0
  -48.8180  -28.7782    6.1122 C   0  0  0  0  0  0  0  0  0  0  0  0
  -41.7663  -30.7163    1.4993 C   0  0  0  0  0  0  0  0  0  0  0  0
  -44.4642  -29.3176    5.5747 C   0  0  0  0  0  0  0  0  0  0  0  0
  -47.0041  -29.0881    4.8073 C   0  0  0  0  0  0  0  0  0  0  0  0
  -48.4134  -28.9278    4.8027 C   0  0  0  0  0  0  0  0  0  0  0  0
  -44.1858  -31.0520    1.2110 C   0  0  0  0  0  0  0  0  0  0  0  0
  -46.5939  -29.0304    6.1335 C   0  0  0  0  0  0  0  0  0  0  0  0
  -46.0061  -29.2779    3.8523 C   0  0  0  0  0  0  0  0  0  0  0  0
  -50.3883  -29.9997    3.6912 C   0  0  0  0  0  0  0  0  0  0  0  0
  -47.3550  -28.2893    0.5463 C   0  0  0  0  0  0  0  0  0  0  0  0
  -49.3042  -28.9192    3.6246 C   0  0  0  0  0  0  0  0  0  0  0  0
  -45.6139  -30.9537    0.7343 C   0  0  0  0  0  0  0  0  0  0  0  0
  -46.3383  -28.1509    1.6665 C   0  0  0  0  0  0  0  0  0  0  0  0
  -46.5963  -30.6298    1.8565 C   0  0  0  0  0  0  0  0  0  0  0  0
  -45.3340  -29.1384    6.5898 N   0  0  0  0  0  0  0  0  0  0  0  0
  -44.7179  -29.3934    4.2489 N   0  0  0  0  0  0  0  0  0  0  0  0
  -47.7054  -28.8423    6.9114 N   0  0  0  0  0  0  0  0  0  0  0  0
  -46.3171  -29.3507    2.4822 N   0  0  3  0  0  0  0  0  0  0  0  0
  -42.9888  -30.0565    0.4977 S   0  0  0  0  0  0  0  0  0  0  0  0
  -41.6472  -32.2072    3.0707 H   0  0  0  0  0  0  0  0  0  0  0  0
  -44.2544  -32.5731    2.7614 H   0  0  0  0  0  0  0  0  0  0  0  0
  -49.7961  -28.6318    6.5495 H   0  0  0  0  0  0  0  0  0  0  0  0
  -40.7452  -30.3730    1.4115 H   0  0  0  0  0  0  0  0  0  0  0  0
  -43.4222  -29.4154    5.8591 H   0  0  0  0  0  0  0  0  0  0  0  0
  -50.9834  -29.8977    4.6052 H   0  0  0  0  0  0  0  0  0  0  0  0
  -49.9407  -30.9992    3.6917 H   0  0  0  0  0  0  0  0  0  0  0  0
  -51.0670  -29.9326    2.8353 H   0  0  0  0  0  0  0  0  0  0  0  0
  -48.3534  -28.4571    0.9623 H   0  0  0  0  0  0  0  0  0  0  0  0
  -47.1151  -29.1358   -0.1059 H   0  0  0  0  0  0  0  0  0  0  0  0
  -47.3931  -27.3832   -0.0680 H   0  0  0  0  0  0  0  0  0  0  0  0
  -48.7291  -29.0588    2.6895 H   0  0  0  0  0  0  0  0  0  0  0  0
  -49.7973  -27.9351    3.5058 H   0  0  0  0  0  0  0  0  0  0  0  0
  -45.6887  -30.2015   -0.0616 H   0  0  0  0  0  0  0  0  0  0  0  0
  -45.8931  -31.9097    0.2733 H   0  0  0  0  0  0  0  0  0  0  0  0
  -45.3428  -27.9834    1.2427 H   0  0  0  0  0  0  0  0  0  0  0  0
  -46.5873  -27.2860    2.2900 H   0  0  0  0  0  0  0  0  0  0  0  0
  -47.6135  -30.5707    1.4556 H   0  0  0  0  0  0  0  0  0  0  0  0
  -46.5844  -31.3923    2.6419 H   0  0  0  0  0  0  0  0  0  0  0  0
  -47.7046  -28.7629    7.9188 H   0  0  0  0  0  0  0  0  0  0  0  0
  1  2  1  0  0  0  0
  1  4  2  0  0  0  0
  2  8  2  0  0  0  0
  3  7  2  0  0  0  0
  3 19  1  0  0  0  0
  4 21  1  0  0  0  0
  5 17  1  0  0  0  0
  5 18  2  0  0  0  0
  6  7  1  0  0  0  0
  6  9  1  0  0  0  0
  6 10  2  0  0  0  0
  7 13  1  0  0  0  0
  8 14  1  0  0  0  0
  8 21  1  0  0  0  0
  9 17  2  0  0  0  0
  9 19  1  0  0  0  0
 10 18  1  0  0  0  0
 10 20  1  0  0  0  0
 11 13  1  0  0  0  0
 12 15  1  0  0  0  0
 14 16  1  0  0  0  0
 15 20  1  0  0  0  0
 16 20  1  0  0  0  0
  1 22  1  0  0  0  0
  2 23  1  0  0  0  0
  3 24  1  0  0  0  0
  4 25  1  0  0  0  0
  5 26  1  0  0  0  0
 11 27  1  0  0  0  0
 11 28  1  0  0  0  0
 11 29  1  0  0  0  0
 12 30  1  0  0  0  0
 12 31  1  0  0  0  0
 12 32  1  0  0  0  0
 13 33  1  0  0  0  0
 13 34  1  0  0  0  0
 14 35  1  0  0  0  0
 14 36  1  0  0  0  0
 15 37  1  0  0  0  0
 15 38  1  0  0  0  0
 16 39  1  0  0  0  0
 16 40  1  0  0  0  0
 19 41  1  0  0  0  0
M  END
> <POSIT::Probability>
0.55

> <POSIT::Method>
HYBRID

> <ReceptorTitle>
UCSF-P4271-REFINED_LIGAND-BOUND-STATE_A__DU__LA1_A-201(A)

> <OMEGA_C>
3Aspwg5j/cHi3hZANqcuwvzx/sHcMgxAmkVDwqo55sEal8NArRAnwvq69cGI6b8/WNsxwmyK6sG8
Y7JAMQQ8wny06MEv1ZlAVadBwjZs58Ghr5lAQL4wwmdq+MHwAJs/LWA6wik+6MFKRcRAPAY4wiI5
6sGki3ZApI1JwnD/78GuPGxAems9wnZQ4sFw2ws/fTdFwoJa58Ec+mdAoXQ2wj6h98E4+Ds/cFo5
wgw14cGGTtU/nWI6wsUJ9cHMoe0/CVY1wogb6cGV39JAGN8ywqsl68Gy9odAYNI+wva85sFCKt1A
qUQ5wkTO6sEc3R5AivQrwsdz8MHg0v4+t5YmwjPUAMLchURAfwQxwthKAsLoujBAOi9HwtwN5cHh
ldFAGPsiwt/78sFwrLQ/WLAtwrhS68HXfbtA9u5LwnYu78EOXpNARMNHwk7+98FURWxApURMwgx2
78GEdTVA1mlBwiyo48EgXHY/5nU8wi0W6cGA4di9g5I9wuAQ28HAUou9kupCwll46MEWISxAbzBH
wgh738FMXmBAOME2wsSc8cEAf3y9iJI3wvtG/8HQ6Ys+DV81wvTd38GsEJ8/clk6wsNJ2sGYjhJA
PXQ+wrWQ9ME4ULo/eVY6wmQj+8GoFSlAitE+wm4a5sEqZ/1A

> <OMEGA_E>
NFhCwQ==

> <OMEGA_NBR>
     36779

$$$$
CACHE3HI_1696_8
  -OEChem-03092622523D

 45 47  0     1  0  0  0  0  0999 V2000
  -48.8602  -28.6093    5.4333 C   0  0  0  0  0  0  0  0  0  0  0  0
  -44.5013  -29.2076    5.8541 C   0  0  0  0  0  0  0  0  0  0  0  0
  -46.8078  -28.9271    4.5526 C   0  0  0  0  0  0  0  0  0  0  0  0
  -48.1797  -28.7451    4.2419 C   0  0  0  0  0  0  0  0  0  0  0  0
  -46.6982  -28.8961    5.9373 C   0  0  0  0  0  0  0  0  0  0  0  0
  -45.6267  -29.1176    3.8365 C   0  0  0  0  0  0  0  0  0  0  0  0
  -42.9920  -30.0168    1.6442 C   0  0  0  0  0  0  0  0  0  0  0  0
  -43.3726  -28.5329    1.6181 C   0  0  0  0  0  0  0  0  0  0  0  0
  -43.8603  -30.9408    0.7829 C   0  0  0  0  0  0  0  0  0  0  0  0
  -44.8659  -28.2105    1.6343 C   0  0  0  0  0  0  0  0  0  0  0  0
  -46.1895  -30.2988    1.6957 C   0  0  0  0  0  0  0  0  0  0  0  0
  -45.1445  -31.4040    1.4946 C   0  0  1  0  0  0  0  0  0  0  0  0
  -49.8747  -29.7691    2.7047 C   0  0  0  0  0  0  0  0  0  0  0  0
  -44.7067  -34.8162   -0.8145 C   0  0  0  0  0  0  0  0  0  0  0  0
  -48.7899  -28.7045    2.8975 C   0  0  0  0  0  0  0  0  0  0  0  0
  -44.3924  -33.6062    0.0449 C   0  0  0  0  0  0  0  0  0  0  0  0
  -45.5707  -29.0307    6.6568 N   0  0  0  0  0  0  0  0  0  0  0  0
  -44.4585  -29.2590    4.5038 N   0  0  0  0  0  0  0  0  0  0  0  0
  -47.9512  -28.7029    6.4558 N   0  0  0  0  0  0  0  0  0  0  0  0
  -45.6300  -29.1641    2.4425 N   0  0  3  0  0  0  0  0  0  0  0  0
  -45.9099  -32.7452    0.5059 S   0  0  0  0  0  0  0  0  0  0  0  0
  -49.9088  -28.4546    5.6480 H   0  0  0  0  0  0  0  0  0  0  0  0
  -43.5484  -29.3258    6.3584 H   0  0  0  0  0  0  0  0  0  0  0  0
  -41.9537  -30.0924    1.2959 H   0  0  0  0  0  0  0  0  0  0  0  0
  -42.9803  -30.3797    2.6793 H   0  0  0  0  0  0  0  0  0  0  0  0
  -42.8871  -28.0438    2.4723 H   0  0  0  0  0  0  0  0  0  0  0  0
  -42.9368  -28.0710    0.7228 H   0  0  0  0  0  0  0  0  0  0  0  0
  -44.0884  -30.4589   -0.1762 H   0  0  0  0  0  0  0  0  0  0  0  0
  -43.2488  -31.8243    0.5533 H   0  0  0  0  0  0  0  0  0  0  0  0
  -45.0185  -27.1931    2.0157 H   0  0  0  0  0  0  0  0  0  0  0  0
  -45.2436  -28.1977    0.6042 H   0  0  0  0  0  0  0  0  0  0  0  0
  -46.5754  -29.9469    0.7299 H   0  0  0  0  0  0  0  0  0  0  0  0
  -47.0573  -30.6903    2.2435 H   0  0  0  0  0  0  0  0  0  0  0  0
  -44.8851  -31.8475    2.4625 H   0  0  0  0  0  0  0  0  0  0  0  0
  -50.6547  -29.6720    3.4676 H   0  0  0  0  0  0  0  0  0  0  0  0
  -49.4498  -30.7752    2.7850 H   0  0  0  0  0  0  0  0  0  0  0  0
  -50.3481  -29.6784    1.7221 H   0  0  0  0  0  0  0  0  0  0  0  0
  -45.3540  -35.5061   -0.2635 H   0  0  0  0  0  0  0  0  0  0  0  0
  -45.2320  -34.5318   -1.7326 H   0  0  0  0  0  0  0  0  0  0  0  0
  -43.7974  -35.3616   -1.0882 H   0  0  0  0  0  0  0  0  0  0  0  0
  -48.0251  -28.8385    2.1089 H   0  0  0  0  0  0  0  0  0  0  0  0
  -49.2333  -27.7112    2.6915 H   0  0  0  0  0  0  0  0  0  0  0  0
  -43.7453  -32.9121   -0.5002 H   0  0  0  0  0  0  0  0  0  0  0  0
  -43.8706  -33.9136    0.9559 H   0  0  0  0  0  0  0  0  0  0  0  0
  -48.1707  -28.6391    7.4401 H   0  0  0  0  0  0  0  0  0  0  0  0
  1  4  2  0  0  0  0
  1 19  1  0  0  0  0
  2 17  1  0  0  0  0
  2 18  2  0  0  0  0
  3  4  1  0  0  0  0
  3  5  1  0  0  0  0
  3  6  2  0  0  0  0
  4 15  1  0  0  0  0
  5 17  2  0  0  0  0
  5 19  1  0  0  0  0
  6 18  1  0  0  0  0
  6 20  1  0  0  0  0
  7  8  1  0  0  0  0
  7  9  1  0  0  0  0
  8 10  1  0  0  0  0
  9 12  1  0  0  0  0
 10 20  1  0  0  0  0
 11 12  1  0  0  0  0
 11 20  1  0  0  0  0
 12 21  1  0  0  0  0
 13 15  1  0  0  0  0
 14 16  1  0  0  0  0
 16 21  1  0  0  0  0
  1 22  1  0  0  0  0
  2 23  1  0  0  0  0
  7 24  1  0  0  0  0
  7 25  1  0  0  0  0
  8 26  1  0  0  0  0
  8 27  1  0  0  0  0
  9 28  1  0  0  0  0
  9 29  1  0  0  0  0
 10 30  1  0  0  0  0
 10 31  1  0  0  0  0
 11 32  1  0  0  0  0
 11 33  1  0  0  0  0
 12 34  1  0  0  0  0
 13 35  1  0  0  0  0
 13 36  1  0  0  0  0
 13 37  1  0  0  0  0
 14 38  1  0  0  0  0
 14 39  1  0  0  0  0
 14 40  1  0  0  0  0
 15 41  1  0  0  0  0
 15 42  1  0  0  0  0
 16 43  1  0  0  0  0
 16 44  1  0  0  0  0
 19 45  1  0  0  0  0
M  END
> <POSIT::Probability>
0.55

> <POSIT::Method>
HYBRID

> <ReceptorTitle>
UCSF-P4271-REFINED_LIGAND-BOUND-STATE_A__DU__LA1_A-201(A)

> <OMEGA_C>
3HBDwuzf5MGD3a1AVAEywiCp6cEsVbtALjs7wshq58HnrpFACrhAwuD15cGzvYdA/so6wkkr58FY
/r1AwYE2wsXw6MHaiHVAxvcrwnsi8MGYc9I/gX0twmND5MFIHM8/7nAvwr+G98Ewa0g/u3YzwjCv
4cHMMdE/CcI4wghk8sH4C9k/AJQ0wmU7+8GQTb8/tH9HwhUn7sHQGS1Ar9MywtBDC8LghVC/2ChD
wtui5cGscDlA05Exwr5sBsIAzTc9WUg2wtc+6MHXBNVAe9Uxwn4S6sFNH5BABc4/wpKf5cHClc5A
IYU2wgBQ6cFkUhxAv6M3whn7AsIwhQE/kaJHwgyj48GWvLRAlTEuwkib6sH5d8tAitAnwji98MFA
4aU/yusrwqsJ88FeeitAaIwrwqNZ4ME4Oh5ATL8rwnaR4MGgCjk/ilowwt2r88FAbzS+wf4swi2Y
/sFgpA0/7BI0wmOL2cEqAQFAZvk0wuuU4cGgrRo/K006wkOT78FA2zo/uTo8wruF9cHMlQ9ATYoz
wpnH/sG0mR1AcZ5Kwitg7cHk7V1AosxFwqEz9sGePTJAamRJwkVt7cHYbtw/hGo1wjoGDsJA7oa+
le00wo8gCsIgxd2/gTAvwk5yDcIQS4u/uBlAwlO15sGW+AZA6u5EwoOw3cEyQSxAN/suwv+lA8LA
DAC/dHsvwpOnB8IAuHQ/z65AwuEc5cGgFe5A

> <OMEGA_E>
/lNMwQ==

> <OMEGA_NBR>
     38181

$$$$
CACHE3HI_1706_14
  -OEChem-03092622523D

 46 48  0     0  0  0  0  0  0999 V2000
  -48.9019  -28.6414    5.8109 C   0  0  0  0  0  0  0  0  0  0  0  0
  -44.4310  -29.4763    5.9435 C   0  0  0  0  0  0  0  0  0  0  0  0
  -46.8865  -29.0887    4.8448 C   0  0  0  0  0  0  0  0  0  0  0  0
  -48.3073  -28.8311    4.5824 C   0  0  0  0  0  0  0  0  0  0  0  0
  -46.7037  -29.0512    6.2276 C   0  0  0  0  0  0  0  0  0  0  0  0
  -45.7714  -29.3193    4.0247 C   0  0  0  0  0  0  0  0  0  0  0  0
  -46.2341  -31.2744    0.4769 C   0  0  0  0  0  0  0  0  0  0  0  0
  -43.7387  -31.1228    0.0674 C   0  0  0  0  0  0  0  0  0  0  0  0
  -46.2412  -32.5384   -0.4070 C   0  0  0  0  0  0  0  0  0  0  0  0
  -43.8362  -32.4394   -0.7079 C   0  0  0  0  0  0  0  0  0  0  0  0
  -44.8492  -31.0420    1.1560 C   0  0  0  0  0  0  0  0  0  0  0  0
  -50.4853  -28.4737    3.3247 C   0  0  0  0  0  0  0  0  0  0  0  0
  -48.9804  -28.7820    3.2196 C   0  0  0  0  0  0  0  0  0  0  0  0
  -44.6596  -32.1379    2.2828 C   0  0  0  0  0  0  0  0  0  0  0  0
  -44.8278  -29.5830    1.6951 C   0  0  0  0  0  0  0  0  0  0  0  0
  -43.2090  -32.3677    2.7534 C   0  0  0  0  0  0  0  0  0  0  0  0
  -45.4835  -29.2481    6.7673 N   0  0  0  0  0  0  0  0  0  0  0  0
  -44.5554  -29.5037    4.5931 N   0  0  0  0  0  0  0  0  0  0  0  0
  -47.9329  -28.7765    6.8000 N   0  0  0  0  0  0  0  0  0  0  0  0
  -45.9288  -29.3242    2.6453 N   0  0  0  0  0  0  0  0  0  0  0  0
  -45.1335  -32.5107   -1.3343 O   0  0  0  0  0  0  0  0  0  0  0  0
  -42.5812  -31.1537    3.1325 O   0  0  0  0  0  0  0  0  0  0  0  0
  -49.9465  -28.4240    5.9782 H   0  0  0  0  0  0  0  0  0  0  0  0
  -43.4567  -29.6426    6.3790 H   0  0  0  0  0  0  0  0  0  0  0  0
  -46.4731  -30.4022   -0.1493 H   0  0  0  0  0  0  0  0  0  0  0  0
  -46.9991  -31.3845    1.2596 H   0  0  0  0  0  0  0  0  0  0  0  0
  -42.7530  -31.0611    0.5517 H   0  0  0  0  0  0  0  0  0  0  0  0
  -43.8569  -30.2822   -0.6321 H   0  0  0  0  0  0  0  0  0  0  0  0
  -46.1558  -33.4289    0.2332 H   0  0  0  0  0  0  0  0  0  0  0  0
  -47.1849  -32.5813   -0.9706 H   0  0  0  0  0  0  0  0  0  0  0  0
  -43.0509  -32.4751   -1.4774 H   0  0  0  0  0  0  0  0  0  0  0  0
  -43.7114  -33.2862   -0.0171 H   0  0  0  0  0  0  0  0  0  0  0  0
  -50.9263  -28.4487    2.3172 H   0  0  0  0  0  0  0  0  0  0  0  0
  -50.9787  -29.2549    3.9215 H   0  0  0  0  0  0  0  0  0  0  0  0
  -50.6262  -27.4970    3.8108 H   0  0  0  0  0  0  0  0  0  0  0  0
  -48.4997  -27.9987    2.6151 H   0  0  0  0  0  0  0  0  0  0  0  0
  -48.8522  -29.7566    2.7258 H   0  0  0  0  0  0  0  0  0  0  0  0
  -45.2539  -31.8313    3.1562 H   0  0  0  0  0  0  0  0  0  0  0  0
  -45.0442  -33.0924    1.8943 H   0  0  0  0  0  0  0  0  0  0  0  0
  -43.8697  -29.4081    2.2065 H   0  0  0  0  0  0  0  0  0  0  0  0
  -44.9221  -28.8900    0.8461 H   0  0  0  0  0  0  0  0  0  0  0  0
  -43.2182  -33.0489    3.6171 H   0  0  0  0  0  0  0  0  0  0  0  0
  -42.6361  -32.8239    1.9327 H   0  0  0  0  0  0  0  0  0  0  0  0
  -48.1004  -28.6880    7.7819 H   0  0  0  0  0  0  0  0  0  0  0  0
  -46.6231  -30.0178    2.4530 H   0  0  0  0  0  0  0  0  0  0  0  0
  -41.6921  -31.3316    3.4161 H   0  0  0  0  0  0  0  0  0  0  0  0
  1  4  2  0  0  0  0
  1 19  1  0  0  0  0
  2 17  1  0  0  0  0
  2 18  2  0  0  0  0
  3  4  1  0  0  0  0
  3  5  1  0  0  0  0
  3  6  2  0  0  0  0
  4 13  1  0  0  0  0
  5 17  2  0  0  0  0
  5 19  1  0  0  0  0
  6 18  1  0  0  0  0
  6 20  1  0  0  0  0
  7  9  1  0  0  0  0
  7 11  1  0  0  0  0
  8 10  1  0  0  0  0
  8 11  1  0  0  0  0
  9 21  1  0  0  0  0
 10 21  1  0  0  0  0
 11 14  1  0  0  0  0
 11 15  1  0  0  0  0
 12 13  1  0  0  0  0
 14 16  1  0  0  0  0
 15 20  1  0  0  0  0
 16 22  1  0  0  0  0
  1 23  1  0  0  0  0
  2 24  1  0  0  0  0
  7 25  1  0  0  0  0
  7 26  1  0  0  0  0
  8 27  1  0  0  0  0
  8 28  1  0  0  0  0
  9 29  1  0  0  0  0
  9 30  1  0  0  0  0
 10 31  1  0  0  0  0
 10 32  1  0  0  0  0
 12 33  1  0  0  0  0
 12 34  1  0  0  0  0
 12 35  1  0  0  0  0
 13 36  1  0  0  0  0
 13 37  1  0  0  0  0
 14 38  1  0  0  0  0
 14 39  1  0  0  0  0
 15 40  1  0  0  0  0
 15 41  1  0  0  0  0
 16 42  1  0  0  0  0
 16 43  1  0  0  0  0
 19 44  1  0  0  0  0
 20 45  1  0  0  0  0
 22 46  1  0  0  0  0
M  END
> <POSIT::Probability>
0.79

> <POSIT::Method>
SHAPEFIT

> <ReceptorTitle>
UCSF-P4271-REFINED_LIGAND-BOUND-STATE_A__DU__LA1_A-201(A)

> <OMEGA_C>
iptDwpwh5cEF87lATrkxwozP68EbMb5Aw4s7wrK16MGbCJtAsDpBwiKm5sHropJAmdA6wspo6MFr
SMdA7xU3wuCN6sE9yoBAvO84whAy+sGQKvQ+d/Quwoj7+MFABIo9Bvc4wlwnAsIYXdC+SFgvwuzB
AcIYPDW/iWUzwvBV+MEU+JM/8PBJwhDK48GOx1RA6utDwphB5sEcDU5AZaMywjWNAMJeGRJApk8z
wgSq7MHw+Ng/+9Uswnx4AcKAODBAG+81wiz86cHbjdhAxTgywqIH7MHh+pJAP7s/wk425sGHmdlA
Grc3wgiY6sGiTClAwYg0wv0KAsK8yqq/JFMqwuA6+cGCe0hAMclHwlZk48E4Tb9As9MtwgAk7cGs
IMxAdeQ5wsw388E86xi+Fv87wnQT+8FZO6E/GAMrwgx9+MFIPA0/dW0vwttB8sEp0yG/ip84wii3
BcLy024+Tr08wjhTAsICe3i/KjQswn/mAcLJG72/dtguwhMlBcI15Yu8e7RLwvuW48GvTRRAMepL
wgcK6sEu+npARYFKwuD528Gb43NArv9BwmT938G5XSdAm2hDwosN7sFMdC5A/gM1wn6m/sGM/klA
TC00wqFeBMJtePI/nXovwtFD68HONw1AMbAzwrge58FGmFg/d98swg0yBMI6fmdAXIsqwrBLA8JP
Yvc/2WZAwvqA5cEMBflACn46wmYk8MGa/RxAtsQmwhin+sHFoFpA

> <OMEGA_E>
LsIJPw==

> <OMEGA_NBR>
     39620

$$$$
CACHE3HI_1706_65
  -OEChem-03092622523D

 41 43  0     0  0  0  0  0  0999 V2000
  -48.8384  -28.6608    5.7294 C   0  0  0  0  0  0  0  0  0  0  0  0
  -44.3775  -29.4506    6.1050 C   0  0  0  0  0  0  0  0  0  0  0  0
  -46.7608  -29.0468    4.8578 C   0  0  0  0  0  0  0  0  0  0  0  0
  -48.1754  -28.8179    4.5295 C   0  0  0  0  0  0  0  0  0  0  0  0
  -46.6594  -29.0344    6.2546 C   0  0  0  0  0  0  0  0  0  0  0  0
  -45.5926  -29.2698    4.0975 C   0  0  0  0  0  0  0  0  0  0  0  0
  -43.5525  -30.7392    2.2775 C   0  0  0  0  0  0  0  0  0  0  0  0
  -44.6912  -30.2975    0.5389 C   0  0  0  0  0  0  0  0  0  0  0  0
  -43.3771  -31.0848    0.8017 C   0  0  0  0  0  0  0  0  0  0  0  0
  -44.4289  -29.5370    1.8532 C   0  0  0  0  0  0  0  0  0  0  0  0
  -50.3244  -28.6972    3.1707 C   0  0  0  0  0  0  0  0  0  0  0  0
  -45.7666  -33.2466   -0.9822 C   0  0  0  0  0  0  0  0  0  0  0  0
  -48.7839  -28.7784    3.1363 C   0  0  0  0  0  0  0  0  0  0  0  0
  -43.3235  -32.6085    0.4909 C   0  0  0  0  0  0  0  0  0  0  0  0
  -45.4766  -29.2388    6.8662 N   0  0  0  0  0  0  0  0  0  0  0  0
  -44.4163  -29.4571    4.7492 N   0  0  0  0  0  0  0  0  0  0  0  0
  -47.9212  -28.7908    6.7661 N   0  0  0  0  0  0  0  0  0  0  0  0
  -45.6401  -29.3143    2.6976 N   0  0  0  0  0  0  0  0  0  0  0  0
  -44.5737  -34.9506    0.6408 O   0  0  0  0  0  0  0  0  0  0  0  0
  -45.7349  -32.9562    1.6733 O   0  0  0  0  0  0  0  0  0  0  0  0
  -44.9094  -33.5222    0.5959 S   0  0  0  0  0  0  0  0  0  0  0  0
  -49.8950  -28.4688    5.8443 H   0  0  0  0  0  0  0  0  0  0  0  0
  -43.4314  -29.6212    6.5971 H   0  0  0  0  0  0  0  0  0  0  0  0
  -44.0832  -31.5041    2.8634 H   0  0  0  0  0  0  0  0  0  0  0  0
  -42.6211  -30.4630    2.7934 H   0  0  0  0  0  0  0  0  0  0  0  0
  -44.6755  -29.6696   -0.3641 H   0  0  0  0  0  0  0  0  0  0  0  0
  -45.6022  -30.9141    0.5410 H   0  0  0  0  0  0  0  0  0  0  0  0
  -42.5114  -30.5635    0.3672 H   0  0  0  0  0  0  0  0  0  0  0  0
  -43.8366  -28.6232    1.6974 H   0  0  0  0  0  0  0  0  0  0  0  0
  -50.7138  -28.6712    2.1422 H   0  0  0  0  0  0  0  0  0  0  0  0
  -50.7263  -29.5781    3.6926 H   0  0  0  0  0  0  0  0  0  0  0  0
  -50.6316  -27.7844    3.7021 H   0  0  0  0  0  0  0  0  0  0  0  0
  -46.7308  -33.7761   -0.9737 H   0  0  0  0  0  0  0  0  0  0  0  0
  -45.9412  -32.1695   -1.1214 H   0  0  0  0  0  0  0  0  0  0  0  0
  -45.1468  -33.6273   -1.8074 H   0  0  0  0  0  0  0  0  0  0  0  0
  -48.3952  -27.8968    2.6056 H   0  0  0  0  0  0  0  0  0  0  0  0
  -48.4900  -29.6905    2.5962 H   0  0  0  0  0  0  0  0  0  0  0  0
  -42.9366  -32.7274   -0.5320 H   0  0  0  0  0  0  0  0  0  0  0  0
  -42.6241  -33.0703    1.2034 H   0  0  0  0  0  0  0  0  0  0  0  0
  -48.1413  -28.7187    7.7389 H   0  0  0  0  0  0  0  0  0  0  0  0
  -46.2772  -30.0495    2.4661 H   0  0  0  0  0  0  0  0  0  0  0  0
  1  4  2  0  0  0  0
  1 17  1  0  0  0  0
  2 15  1  0  0  0  0
  2 16  2  0  0  0  0
  3  4  1  0  0  0  0
  3  5  1  0  0  0  0
  3  6  2  0  0  0  0
  4 13  1  0  0  0  0
  5 15  2  0  0  0  0
  5 17  1  0  0  0  0
  6 16  1  0  0  0  0
  6 18  1  0  0  0  0
  7  9  1  0  0  0  0
  7 10  1  0  0  0  0
  8  9  1  0  0  0  0
  8 10  1  0  0  0  0
  9 14  1  0  0  0  0
 10 18  1  0  0  0  0
 11 13  1  0  0  0  0
 12 21  1  0  0  0  0
 14 21  1  0  0  0  0
 19 21  2  0  0  0  0
 20 21  2  0  0  0  0
  1 22  1  0  0  0  0
  2 23  1  0  0  0  0
  7 24  1  0  0  0  0
  7 25  1  0  0  0  0
  8 26  1  0  0  0  0
  8 27  1  0  0  0  0
  9 28  1  0  0  0  0
 10 29  1  0  0  0  0
 11 30  1  0  0  0  0
 11 31  1  0  0  0  0
 11 32  1  0  0  0  0
 12 33  1  0  0  0  0
 12 34  1  0  0  0  0
 12 35  1  0  0  0  0
 13 36  1  0  0  0  0
 13 37  1  0  0  0  0
 14 38  1  0  0  0  0
 14 39  1  0  0  0  0
 17 40  1  0  0  0  0
 18 41  1  0  0  0  0
M  END
> <POSIT::Probability>
0.72

> <POSIT::Method>
SHAPEFIT

> <ReceptorTitle>
UCSF-P4271-REFINED_LIGAND-BOUND-STATE_A__DU__LA1_A-201(A)

> <OMEGA_C>
jVpDwmNJ5cFxV7dAi4Ixwrya68EgXMNABQs7wvBf6MF0c5tAobNAwhyL5sHk8ZBALaM6wl1G6MFb
JchA1142wqQo6sF6HoNAyDUuwunp9cHGwhFAxMMywl5h8sFK8gk/JYItwsOt+MFcOk0/K7cxwrZL
7MGdNO0/MkxJwuST5cE+7EpAChE3wpD8BMI3dHu/uyJDwjo65sHOuEhAQEstwh5vAsLUVPs+Aeg1
wgXp6cGVt9tAUKoxwg6o68F9+ZdAQq8/wntT5sHNg9hAeY82wr+D6sG6pSxAhEsywnbNC8LeCSQ/
f/A2wi7TA8KjLtY/QaMzwrcWBsIcjRg/d5RHwgDA48E+BLtAv7ktwk747MGHG9NAP1Uwwl8I/MFs
QjdAAXwqwjW088FDxzJAvLMywkZb7cHmcLq+nWg2wgRQ98GzfAo/sAsqwgmC9MH8/bs+pFgvwmf8
5MGKQ9k/69pKwqhe5cEdGglAxedKwgag7MHJU2xAt4ZKwmRG3sGg7mxAWuw6wrQaB8IrRXm/vcM3
wpitAMKriY+/SpY0wlKCBsLQWOe/s5RBwpIs38HswiZAwvVBwjSG7cEVKCZAHr8rwtHoAsIXLwi/
HX8qwgVIBMLbB5o/vZBAwti/5cHipPdA4xs5wlhl8MHW0x1A

> <OMEGA_E>
ACcjPw==

> <OMEGA_NBR>
     40958

$$$$
CACHE3HI_1708_42
  -OEChem-03092622523D

 41 42  0     1  0  0  0  0  0999 V2000
  -48.8448  -28.7838    5.7526 C   0  0  0  0  0  0  0  0  0  0  0  0
  -44.3374  -29.2804    6.1204 C   0  0  0  0  0  0  0  0  0  0  0  0
  -46.7445  -29.0071    4.8872 C   0  0  0  0  0  0  0  0  0  0  0  0
  -48.1732  -28.9114    4.5556 C   0  0  0  0  0  0  0  0  0  0  0  0
  -46.6437  -28.9982    6.2799 C   0  0  0  0  0  0  0  0  0  0  0  0
  -45.5643  -29.1071    4.1269 C   0  0  0  0  0  0  0  0  0  0  0  0
  -50.3198  -28.7946    3.2008 C   0  0  0  0  0  0  0  0  0  0  0  0
  -43.2600  -33.2988    0.9974 C   0  0  0  0  0  0  0  0  0  0  0  0
  -44.9256  -31.9434   -0.3093 C   0  0  0  0  0  0  0  0  0  0  0  0
  -45.5749  -31.9257    2.6222 C   0  0  0  0  0  0  0  0  0  0  0  0
  -48.7874  -28.9530    3.1655 C   0  0  0  0  0  0  0  0  0  0  0  0
  -44.5391  -29.6587    1.8834 C   0  0  0  0  0  0  0  0  0  0  0  0
  -43.8030  -31.8603    0.7613 C   0  0  0  0  0  0  0  0  0  0  0  0
  -44.2973  -31.1963    2.0882 C   0  0  2  0  0  0  0  0  0  0  0  0
  -45.4471  -29.1343    6.8855 N   0  0  0  0  0  0  0  0  0  0  0  0
  -44.3753  -29.2425    4.7645 N   0  0  0  0  0  0  0  0  0  0  0  0
  -47.9192  -28.8300    6.7890 N   0  0  0  0  0  0  0  0  0  0  0  0
  -45.6351  -29.1307    2.7352 N   0  0  0  0  0  0  0  0  0  0  0  0
  -43.2570  -31.3301    3.0614 O   0  0  0  0  0  0  0  0  0  0  0  0
  -49.9124  -28.6674    5.8665 H   0  0  0  0  0  0  0  0  0  0  0  0
  -43.3865  -29.4329    6.6091 H   0  0  0  0  0  0  0  0  0  0  0  0
  -50.7164  -28.8311    2.1755 H   0  0  0  0  0  0  0  0  0  0  0  0
  -50.7591  -29.6109    3.7930 H   0  0  0  0  0  0  0  0  0  0  0  0
  -50.5780  -27.8288    3.6596 H   0  0  0  0  0  0  0  0  0  0  0  0
  -42.4613  -33.2703    1.7533 H   0  0  0  0  0  0  0  0  0  0  0  0
  -44.0766  -33.9453    1.3512 H   0  0  0  0  0  0  0  0  0  0  0  0
  -42.8582  -33.6982    0.0545 H   0  0  0  0  0  0  0  0  0  0  0  0
  -45.3292  -30.9374   -0.4969 H   0  0  0  0  0  0  0  0  0  0  0  0
  -44.5121  -32.3524   -1.2430 H   0  0  0  0  0  0  0  0  0  0  0  0
  -45.7304  -32.5995    0.0536 H   0  0  0  0  0  0  0  0  0  0  0  0
  -45.3598  -32.9968    2.7502 H   0  0  0  0  0  0  0  0  0  0  0  0
  -45.8668  -31.4923    3.5902 H   0  0  0  0  0  0  0  0  0  0  0  0
  -46.3966  -31.8004    1.9017 H   0  0  0  0  0  0  0  0  0  0  0  0
  -48.3607  -28.1360    2.5651 H   0  0  0  0  0  0  0  0  0  0  0  0
  -48.5418  -29.9182    2.6985 H   0  0  0  0  0  0  0  0  0  0  0  0
  -43.6117  -29.1211    2.1303 H   0  0  0  0  0  0  0  0  0  0  0  0
  -44.7964  -29.4807    0.8288 H   0  0  0  0  0  0  0  0  0  0  0  0
  -42.9853  -31.2465    0.3557 H   0  0  0  0  0  0  0  0  0  0  0  0
  -48.1427  -28.7528    7.7606 H   0  0  0  0  0  0  0  0  0  0  0  0
  -46.4458  -29.6705    2.5087 H   0  0  0  0  0  0  0  0  0  0  0  0
  -42.4737  -30.8915    2.7506 H   0  0  0  0  0  0  0  0  0  0  0  0
  1  4  2  0  0  0  0
  1 17  1  0  0  0  0
  2 15  1  0  0  0  0
  2 16  2  0  0  0  0
  3  4  1  0  0  0  0
  3  5  1  0  0  0  0
  3  6  2  0  0  0  0
  4 11  1  0  0  0  0
  5 15  2  0  0  0  0
  5 17  1  0  0  0  0
  6 16  1  0  0  0  0
  6 18  1  0  0  0  0
  7 11  1  0  0  0  0
  8 13  1  0  0  0  0
  9 13  1  0  0  0  0
 10 14  1  0  0  0  0
 12 14  1  0  0  0  0
 12 18  1  0  0  0  0
 13 14  1  0  0  0  0
 14 19  1  0  0  0  0
  1 20  1  0  0  0  0
  2 21  1  0  0  0  0
  7 22  1  0  0  0  0
  7 23  1  0  0  0  0
  7 24  1  0  0  0  0
  8 25  1  0  0  0  0
  8 26  1  0  0  0  0
  8 27  1  0  0  0  0
  9 28  1  0  0  0  0
  9 29  1  0  0  0  0
  9 30  1  0  0  0  0
 10 31  1  0  0  0  0
 10 32  1  0  0  0  0
 10 33  1  0  0  0  0
 11 34  1  0  0  0  0
 11 35  1  0  0  0  0
 12 36  1  0  0  0  0
 12 37  1  0  0  0  0
 13 38  1  0  0  0  0
 17 39  1  0  0  0  0
 18 40  1  0  0  0  0
 19 41  1  0  0  0  0
M  END
> <POSIT::Probability>
0.91

> <POSIT::Method>
SHAPEFIT

> <ReceptorTitle>
UCSF-P4271-REFINED_LIGAND-BOUND-STATE_A__DU__LA1_A-201(A)

> <OMEGA_C>
DWFDwkpF5sFYFbhAilkxwkE+6sG22sNAZfo6wo8O6MGUY5xAYrFAwnxK58Gbx5FAIpM6wl/858Gq
9MhA0kE2wm3b6MHiD4RAc0dJwmVb5sGk2kxAPgotwu8xBcJsVX8/xrMzwgOM/8EIYJ6+vkw2wtVn
/8Eg0idAUSZDwrqf58G0l0pA/icywhZF7cGIEvE/SDYvwv/h/sEQ40I/bjAxwheS+cFCpAVAz8k1
wvgS6cHwVdxASIAxwrjw6cEqd5hAPK0/wsqj5sE0P9lAUoo2wroL6cGODS9AMQctwvmj+sGA7UNA
VKZHwuBW5cERurtAvIstwoB268HTfdNAnt1KwgGm5sFQOwtASQlLwjPj7MGlwHJA1k9Kwlih3sFd
N2pAbNgpwsIUBcIQa+A/a04wwgXIB8K78qw/1G4rwgHLBsLcXF89GFE1wt1/98G0af6+XgwywtNo
AcKvGp+/9es2wthlAsKhpFs9anA1wsH8A8LzAjBAlnc3wiPw+8FCxWVAJpY5wkhn/sF7avM/U3FB
wpIW4cFBKyRAxypCwmxY78GJtCxAZ3IuwvT36MHQVghAjy8zwmrY68EHL1Q/6/Arws/4+cEVILY+
GJJAwsQF5sHtVvhAicg5wjNd7cFljiBAFuUpwsgh98GHCTBA

> <OMEGA_E>
UMOUPg==

> <OMEGA_NBR>
     42297

$$$$
CACHE3HI_1708_89
  -OEChem-03092622523D

 46 48  0     1  0  0  0  0  0999 V2000
  -48.8535  -28.7290    5.7224 C   0  0  0  0  0  0  0  0  0  0  0  0
  -44.3764  -29.3685    6.1104 C   0  0  0  0  0  0  0  0  0  0  0  0
  -46.7708  -29.1041    4.8472 C   0  0  0  0  0  0  0  0  0  0  0  0
  -48.1923  -28.8947    4.5226 C   0  0  0  0  0  0  0  0  0  0  0  0
  -46.6680  -29.0297    6.2431 C   0  0  0  0  0  0  0  0  0  0  0  0
  -45.5897  -29.3267    4.0967 C   0  0  0  0  0  0  0  0  0  0  0  0
  -42.6385  -30.5083    2.0099 C   0  0  0  0  0  0  0  0  0  0  0  0
  -43.0715  -29.0433    2.1721 C   0  0  0  0  0  0  0  0  0  0  0  0
  -42.7938  -30.8898    0.5295 C   0  0  0  0  0  0  0  0  0  0  0  0
  -44.7708  -29.3116    0.3404 C   0  0  0  0  0  0  0  0  0  0  0  0
  -44.5688  -28.8142    1.7963 C   0  0  1  0  0  0  0  0  0  0  0  0
  -44.2762  -30.7772    0.0897 C   0  0  2  0  0  0  0  0  0  0  0  0
  -50.3468  -28.6322    3.2106 C   0  0  0  0  0  0  0  0  0  0  0  0
  -46.5349  -31.8415    0.1949 C   0  0  0  0  0  0  0  0  0  0  0  0
  -44.5702  -33.1634    0.8899 C   0  0  0  0  0  0  0  0  0  0  0  0
  -48.8217  -28.8587    3.1425 C   0  0  0  0  0  0  0  0  0  0  0  0
  -45.4797  -29.1577    6.8595 N   0  0  0  0  0  0  0  0  0  0  0  0
  -44.4213  -29.4715    4.7625 N   0  0  0  0  0  0  0  0  0  0  0  0
  -47.9331  -28.8184    6.7550 N   0  0  0  0  0  0  0  0  0  0  0  0
  -45.6104  -29.4350    2.6984 N   0  0  0  0  0  0  0  0  0  0  0  0
  -45.1631  -31.7960    0.7662 N   0  0  0  0  0  0  0  0  0  0  0  0
  -49.9136  -28.5578    5.8378 H   0  0  0  0  0  0  0  0  0  0  0  0
  -43.4213  -29.4583    6.6065 H   0  0  0  0  0  0  0  0  0  0  0  0
  -41.5884  -30.6230    2.3165 H   0  0  0  0  0  0  0  0  0  0  0  0
  -43.2747  -31.1562    2.6308 H   0  0  0  0  0  0  0  0  0  0  0  0
  -42.9222  -28.7459    3.2206 H   0  0  0  0  0  0  0  0  0  0  0  0
  -42.4450  -28.4166    1.5204 H   0  0  0  0  0  0  0  0  0  0  0  0
  -42.1821  -30.2125   -0.0845 H   0  0  0  0  0  0  0  0  0  0  0  0
  -42.4516  -31.9252    0.3852 H   0  0  0  0  0  0  0  0  0  0  0  0
  -45.8444  -29.2646    0.1054 H   0  0  0  0  0  0  0  0  0  0  0  0
  -44.2182  -28.6406   -0.3336 H   0  0  0  0  0  0  0  0  0  0  0  0
  -44.7371  -27.7271    1.7932 H   0  0  0  0  0  0  0  0  0  0  0  0
  -44.3158  -30.9569   -0.9948 H   0  0  0  0  0  0  0  0  0  0  0  0
  -50.7611  -28.6130    2.1918 H   0  0  0  0  0  0  0  0  0  0  0  0
  -50.8136  -29.4489    3.7808 H   0  0  0  0  0  0  0  0  0  0  0  0
  -50.5530  -27.6731    3.7083 H   0  0  0  0  0  0  0  0  0  0  0  0
  -47.1293  -32.5988    0.7270 H   0  0  0  0  0  0  0  0  0  0  0  0
  -47.0114  -30.8564    0.3068 H   0  0  0  0  0  0  0  0  0  0  0  0
  -46.4790  -32.1027   -0.8722 H   0  0  0  0  0  0  0  0  0  0  0  0
  -45.2864  -33.8301    1.3924 H   0  0  0  0  0  0  0  0  0  0  0  0
  -44.3440  -33.5568   -0.1122 H   0  0  0  0  0  0  0  0  0  0  0  0
  -43.6436  -33.1091    1.4802 H   0  0  0  0  0  0  0  0  0  0  0  0
  -48.3662  -28.0406    2.5652 H   0  0  0  0  0  0  0  0  0  0  0  0
  -48.6268  -29.8164    2.6377 H   0  0  0  0  0  0  0  0  0  0  0  0
  -48.1529  -28.7412    7.7275 H   0  0  0  0  0  0  0  0  0  0  0  0
  -45.5937  -30.4150    2.5004 H   0  0  0  0  0  0  0  0  0  0  0  0
  1  4  2  0  0  0  0
  1 19  1  0  0  0  0
  2 17  1  0  0  0  0
  2 18  2  0  0  0  0
  3  4  1  0  0  0  0
  3  5  1  0  0  0  0
  3  6  2  0  0  0  0
  4 16  1  0  0  0  0
  5 17  2  0  0  0  0
  5 19  1  0  0  0  0
  6 18  1  0  0  0  0
  6 20  1  0  0  0  0
  7  8  1  0  0  0  0
  7  9  1  0  0  0  0
  8 11  1  0  0  0  0
  9 12  1  0  0  0  0
 10 11  1  0  0  0  0
 10 12  1  0  0  0  0
 11 20  1  0  0  0  0
 12 21  1  0  0  0  0
 13 16  1  0  0  0  0
 14 21  1  0  0  0  0
 15 21  1  0  0  0  0
  1 22  1  0  0  0  0
  2 23  1  0  0  0  0
  7 24  1  0  0  0  0
  7 25  1  0  0  0  0
  8 26  1  0  0  0  0
  8 27  1  0  0  0  0
  9 28  1  0  0  0  0
  9 29  1  0  0  0  0
 10 30  1  0  0  0  0
 10 31  1  0  0  0  0
 11 32  1  0  0  0  0
 12 33  1  0  0  0  0
 13 34  1  0  0  0  0
 13 35  1  0  0  0  0
 13 36  1  0  0  0  0
 14 37  1  0  0  0  0
 14 38  1  0  0  0  0
 14 39  1  0  0  0  0
 15 40  1  0  0  0  0
 15 41  1  0  0  0  0
 15 42  1  0  0  0  0
 16 43  1  0  0  0  0
 16 44  1  0  0  0  0
 19 45  1  0  0  0  0
 20 46  1  0  0  0  0
M  END
> <POSIT::Probability>
0.79

> <POSIT::Method>
SHAPEFIT

> <ReceptorTitle>
UCSF-P4271-REFINED_LIGAND-BOUND-STATE_A__DU__LA1_A-201(A)

> <OMEGA_C>
BmpDwu/U5cGiHbdAZ4Exwqvy6sFUiMNAVBU7whzV6MEwHJtA7sRAwmko58EGuZBABKw6wsE86MEk
x8dA4ls2wh6d6sH6F4NA3o0qwukQ9MGVogBAQkkswpRY6MFPBAtA5CwrwmMe98EUjAc/VxUzwjl+
6sHITK4+aEYywmmD5sHa6+U/zBoxwsk39sFAtLc9JmNJwqoO5cEVe01AtSM6wmW7/sEAl0c+1kcy
wk6nBMJ8zWM/cElDwqTe5sGLHklAL+s1wvlC6cFigdtAaa8xwpPF68FoZphAibs/wvyL5sFEKdhA
A3E2wtt668ElsyxA96Y0wj9e/sGUKEQ/i6dHwlh25MFaz7pAX68twqaq68E0aNNAgVomwtr79MHk
QRRAQxktwts/+cG7XyhATrArwpT35cE/Hk5ApMcpwi9V48ENnsI/fboowjSz8cFMIK29ac4pwt5m
/8GUNsU+q2A3wucd6sHfy9c9aN8wwv0f5cHIy6q+0PIywirR3cEIh+U/bUMxwqSn98H1q36/WAtL
wlnn5MF7RgxAH0FLwlyX68Ej+HFAUDZKwn1i3cGkVG1Ab4Q8wiRlAsJYHzo/pQs8wufZ9sHrFJ0+
ieo5wjJpAMLjRV+/PyU1wghSB8KUOLI/RWAxwik6BsLbwuW9AZMuwr5vBMJSdr0//3ZBwihT4MH5
LCRAzoFCwgeI7sF50ChAi5xAwvPt5cEDSPdA/182wv1R88HHBSBA

> <OMEGA_E>
mngWPw==

> <OMEGA_NBR>
     43743

$$$$
CACHE3HI_1716_31
  -OEChem-03092622523D

 36 38  0     1  0  0  0  0  0999 V2000
  -48.7248  -28.8561    3.1432 C   0  0  0  0  0  0  0  0  0  0  0  0
  -48.8456  -28.7179    5.6270 C   0  0  0  0  0  0  0  0  0  0  0  0
  -44.3746  -29.4015    6.1192 C   0  0  0  0  0  0  0  0  0  0  0  0
  -48.1495  -28.8935    4.4533 C   0  0  0  0  0  0  0  0  0  0  0  0
  -46.7422  -29.1074    4.8182 C   0  0  0  0  0  0  0  0  0  0  0  0
  -46.6729  -29.0574    6.2152 C   0  0  0  0  0  0  0  0  0  0  0  0
  -45.5508  -29.2995    4.0890 C   0  0  0  0  0  0  0  0  0  0  0  0
  -44.9342  -34.1993    1.8026 C   0  0  0  0  0  0  0  0  0  0  0  0
  -46.1829  -34.0353    1.2453 C   0  0  0  0  0  0  0  0  0  0  0  0
  -44.0368  -33.0356    1.9464 C   0  0  0  0  0  0  0  0  0  0  0  0
  -44.4445  -31.7794    1.5170 C   0  0  0  0  0  0  0  0  0  0  0  0
  -46.5917  -32.6950    0.7871 C   0  0  0  0  0  0  0  0  0  0  0  0
  -42.4624  -30.7026    2.7631 C   0  0  0  0  0  0  0  0  0  0  0  0
  -44.3619  -29.2252    1.8271 C   0  0  0  0  0  0  0  0  0  0  0  0
  -43.5388  -30.5460    1.6528 C   0  0  2  0  0  0  0  0  0  0  0  0
  -49.2018  -28.8244    2.0796 N   0  0  0  0  0  0  0  0  0  0  0  0
  -45.4965  -29.2123    6.8547 N   0  0  0  0  0  0  0  0  0  0  0  0
  -44.3838  -29.4240    4.7624 N   0  0  0  0  0  0  0  0  0  0  0  0
  -47.9521  -28.8197    6.6904 N   0  0  0  0  0  0  0  0  0  0  0  0
  -45.7007  -31.6363    0.9040 N   0  0  0  0  0  0  0  0  0  0  0  0
  -45.5744  -29.3274    2.6955 N   0  0  0  0  0  0  0  0  0  0  0  0
  -47.6998  -32.5141    0.2980 O   0  0  0  0  0  0  0  0  0  0  0  0
  -49.9063  -28.5324    5.7096 H   0  0  0  0  0  0  0  0  0  0  0  0
  -43.4351  -29.5400    6.6335 H   0  0  0  0  0  0  0  0  0  0  0  0
  -44.6125  -35.1758    2.1333 H   0  0  0  0  0  0  0  0  0  0  0  0
  -46.8529  -34.8764    1.1454 H   0  0  0  0  0  0  0  0  0  0  0  0
  -43.0590  -33.1619    2.3874 H   0  0  0  0  0  0  0  0  0  0  0  0
  -41.8487  -29.7909    2.8107 H   0  0  0  0  0  0  0  0  0  0  0  0
  -42.9566  -30.8628    3.7327 H   0  0  0  0  0  0  0  0  0  0  0  0
  -41.8201  -31.5651    2.5319 H   0  0  0  0  0  0  0  0  0  0  0  0
  -43.6957  -28.4669    2.2645 H   0  0  0  0  0  0  0  0  0  0  0  0
  -44.6874  -28.8955    0.8294 H   0  0  0  0  0  0  0  0  0  0  0  0
  -42.9943  -30.4482    0.7021 H   0  0  0  0  0  0  0  0  0  0  0  0
  -48.1981  -28.7337    7.6559 H   0  0  0  0  0  0  0  0  0  0  0  0
  -45.9618  -30.7423    0.5399 H   0  0  0  0  0  0  0  0  0  0  0  0
  -46.0081  -30.1947    2.4511 H   0  0  0  0  0  0  0  0  0  0  0  0
  1  4  1  0  0  0  0
  1 16  3  0  0  0  0
  2  4  2  0  0  0  0
  2 19  1  0  0  0  0
  3 17  2  0  0  0  0
  3 18  1  0  0  0  0
  4  5  1  0  0  0  0
  5  6  2  0  0  0  0
  5  7  1  0  0  0  0
  6 17  1  0  0  0  0
  6 19  1  0  0  0  0
  7 18  2  0  0  0  0
  7 21  1  0  0  0  0
  8  9  2  0  0  0  0
  8 10  1  0  0  0  0
  9 12  1  0  0  0  0
 10 11  2  0  0  0  0
 11 15  1  0  0  0  0
 11 20  1  0  0  0  0
 12 20  1  0  0  0  0
 12 22  2  0  0  0  0
 13 15  1  0  0  0  0
 14 15  1  0  0  0  0
 14 21  1  0  0  0  0
  2 23  1  0  0  0  0
  3 24  1  0  0  0  0
  8 25  1  0  0  0  0
  9 26  1  0  0  0  0
 10 27  1  0  0  0  0
 13 28  1  0  0  0  0
 13 29  1  0  0  0  0
 13 30  1  0  0  0  0
 14 31  1  0  0  0  0
 14 32  1  0  0  0  0
 15 33  1  0  0  0  0
 19 34  1  0  0  0  0
 20 35  1  0  0  0  0
 21 36  1  0  0  0  0
M  END
> <POSIT::Probability>
0.5

> <POSIT::Method>
SHAPEFIT

> <ReceptorTitle>
UCSF-P4271-REFINED_LIGAND-BOUND-STATE_A__DU__LA1_A-201(A)

> <OMEGA_C>
NeZCwl7Z5sEvKklA2mFDwlK+5cEFELRAmn8xwkQ268HF0MNAEJlAws4l58GYgY5AAvg6wuzb6MHB
LppAB7E6wnx16MGT4sZA+TM2wlhl6sHE2IJApLwzwhnMCMIWu+Y/Prs4wiwkCML2Zp8/piUwwmwk
BMKUI/k/MccxwjA8/sFiLsI/2106wrPHAsJlf0k/gtkpwt6e9cEf1zBAi3IxwiLN6cHq3ek/xCcu
wkJe9MHqj9M/sc5Ewl6Y5sHiGAVAbvw1wsiy6cG0WdtA+4gxwkJk68HRZZhAAM8/wraO5sHaF9ZA
gs02wg4X/cGZbmc/N0w2wpae6sHXgyxAnsw+wm0OAsKKkpg+C6BHwnRC5MFotbZAgr0twgFS7MGU
RdRALnMywgO0DMIHiAhAZGk7wnOBC8KgnZI/cjwswr+lBMIgyxhAFWUnws1T7sEO4zNAhdMrwgzn
9sEi5W5AzUcnwmSF/MFPCyJAZMguwk6848GN7RBA4r8ywhEq58FfU1Q/IPorwgGW88H6vDM/5spA
wrPe5cHa/PRA49g3wjDw9cHkMwo/SAg4ws+O8cFn3xxA

> <OMEGA_E>
3AVMPw==

> <OMEGA_NBR>
     44989

$$$$
CACHE3HI_1718_3
  -OEChem-03092622523D

 44 44  0     0  0  0  0  0  0999 V2000
  -47.9824  -28.1410    5.2902 C   0  0  0  0  0  0  0  0  0  0  0  0
  -47.5647  -29.5726    3.3893 C   0  0  0  0  0  0  0  0  0  0  0  0
  -49.3183  -28.0225    4.9066 C   0  0  0  0  0  0  0  0  0  0  0  0
  -48.9005  -29.4541    3.0056 C   0  0  0  0  0  0  0  0  0  0  0  0
  -47.1057  -28.9163    4.5314 C   0  0  0  0  0  0  0  0  0  0  0  0
  -49.7773  -28.6788    3.7644 C   0  0  0  0  0  0  0  0  0  0  0  0
  -45.6836  -29.0433    4.9396 C   0  0  0  0  0  0  0  0  0  0  0  0
  -52.2686  -28.9237    4.1027 C   0  0  0  0  0  0  0  0  0  0  0  0
  -53.2515  -31.3874    6.0561 C   0  0  0  0  0  0  0  0  0  0  0  0
  -52.3969  -29.7136    7.7267 C   0  0  0  0  0  0  0  0  0  0  0  0
  -43.3682  -29.4730    4.1584 C   0  0  0  0  0  0  0  0  0  0  0  0
  -52.9069  -29.9250    6.3068 C   0  0  0  0  0  0  0  0  0  0  0  0
  -42.5966  -29.7464    2.8546 C   0  0  0  0  0  0  0  0  0  0  0  0
  -43.1444  -28.8528    1.7414 C   0  0  0  0  0  0  0  0  0  0  0  0
  -42.6568  -31.2138    2.4354 C   0  0  0  0  0  0  0  0  0  0  0  0
  -51.1134  -28.5597    3.3810 N   0  0  0  0  0  0  0  0  0  0  0  0
  -44.7830  -29.3000    3.9183 N   0  0  0  0  0  0  0  0  0  0  0  0
  -51.9289  -29.4627    5.3479 N   0  0  0  0  0  0  0  0  0  0  0  0
  -45.3883  -28.9375    6.1271 O   0  0  0  0  0  0  0  0  0  0  0  0
  -53.4287  -28.7976    3.7182 O   0  0  0  0  0  0  0  0  0  0  0  0
  -41.2216  -29.4038    3.0447 O   0  0  0  0  0  0  0  0  0  0  0  0
  -43.0141  -27.5441    2.0497 F   0  0  0  0  0  0  0  0  0  0  0  0
  -42.4901  -29.0636    0.5775 F   0  0  0  0  0  0  0  0  0  0  0  0
  -44.4561  -29.0892    1.5150 F   0  0  0  0  0  0  0  0  0  0  0  0
  -43.9251  -31.6280    2.2257 F   0  0  0  0  0  0  0  0  0  0  0  0
  -42.1284  -32.0190    3.3849 F   0  0  0  0  0  0  0  0  0  0  0  0
  -41.9652  -31.4268    1.2937 F   0  0  0  0  0  0  0  0  0  0  0  0
  -47.6368  -27.6252    6.1822 H   0  0  0  0  0  0  0  0  0  0  0  0
  -46.8905  -30.1792    2.7902 H   0  0  0  0  0  0  0  0  0  0  0  0
  -49.9930  -27.4160    5.5056 H   0  0  0  0  0  0  0  0  0  0  0  0
  -49.2467  -29.9696    2.1134 H   0  0  0  0  0  0  0  0  0  0  0  0
  -52.3724  -32.0243    6.2021 H   0  0  0  0  0  0  0  0  0  0  0  0
  -53.6106  -31.5357    5.0319 H   0  0  0  0  0  0  0  0  0  0  0  0
  -54.0286  -31.7371    6.7443 H   0  0  0  0  0  0  0  0  0  0  0  0
  -51.4967  -30.3086    7.9181 H   0  0  0  0  0  0  0  0  0  0  0  0
  -53.1570  -29.9961    8.4616 H   0  0  0  0  0  0  0  0  0  0  0  0
  -52.1374  -28.6621    7.8938 H   0  0  0  0  0  0  0  0  0  0  0  0
  -43.2524  -30.3148    4.8503 H   0  0  0  0  0  0  0  0  0  0  0  0
  -42.9798  -28.5788    4.6583 H   0  0  0  0  0  0  0  0  0  0  0  0
  -53.8049  -29.3159    6.1530 H   0  0  0  0  0  0  0  0  0  0  0  0
  -51.2767  -28.1544    2.4527 H   0  0  0  0  0  0  0  0  0  0  0  0
  -45.1099  -29.4369    2.9678 H   0  0  0  0  0  0  0  0  0  0  0  0
  -50.9466  -29.5669    5.5828 H   0  0  0  0  0  0  0  0  0  0  0  0
  -41.2051  -28.4624    3.2708 H   0  0  0  0  0  0  0  0  0  0  0  0
  1  3  2  0  0  0  0
  1  5  1  0  0  0  0
  2  4  1  0  0  0  0
  2  5  2  0  0  0  0
  3  6  1  0  0  0  0
  4  6  2  0  0  0  0
  5  7  1  0  0  0  0
  6 16  1  0  0  0  0
  7 17  1  0  0  0  0
  7 19  2  0  0  0  0
  8 16  1  0  0  0  0
  8 18  1  0  0  0  0
  8 20  2  0  0  0  0
  9 12  1  0  0  0  0
 10 12  1  0  0  0  0
 11 13  1  0  0  0  0
 11 17  1  0  0  0  0
 12 18  1  0  0  0  0
 13 14  1  0  0  0  0
 13 15  1  0  0  0  0
 13 21  1  0  0  0  0
 14 22  1  0  0  0  0
 14 23  1  0  0  0  0
 14 24  1  0  0  0  0
 15 25  1  0  0  0  0
 15 26  1  0  0  0  0
 15 27  1  0  0  0  0
  1 28  1  0  0  0  0
  2 29  1  0  0  0  0
  3 30  1  0  0  0  0
  4 31  1  0  0  0  0
  9 32  1  0  0  0  0
  9 33  1  0  0  0  0
  9 34  1  0  0  0  0
 10 35  1  0  0  0  0
 10 36  1  0  0  0  0
 10 37  1  0  0  0  0
 11 38  1  0  0  0  0
 11 39  1  0  0  0  0
 12 40  1  0  0  0  0
 16 41  1  0  0  0  0
 17 42  1  0  0  0  0
 18 43  1  0  0  0  0
 21 44  1  0  0  0  0
M  END
> <POSIT::Probability>
0.24

> <POSIT::Method>
FRED

> <ReceptorTitle>
UCSF-P4271-REFINED_LIGAND-BOUND-STATE_A__DU__LA1_A-201(A)

> <OMEGA_C>
Bu4/wsgg4cE8SalAR0I+wrqU7MGO6VhA7kVFwgQu4MGzAp1AI5pDwgSi68FGXEBAQmw8wpdU58F8
AZFA9BtHwiVu5cH963BA+Ls2wq5Y6MFfEZ5ADhNRwqRj58GySYNAkwFVwloZ+8GTy8FAapZRwna1
7cE2QfdAD3ktwsrI68HGEYVApKBTwmVm78Ep0clA5GIqwrD47cGKsjZA1ZMswn7S5sEG5d4/haAq
ws+1+cF13RtAJXRMwk565MGkYlhA0CEzwk1m6sETxXpAOLdPwo2z68G/IatApo01whKA58HMEMRA
9rZVwpNh5sGe921A4uIkwgM768Gn20JAaQ4swl5a3MEFLwNA0PUpwieC6MGM2BM/E9MxwrK26MHU
6sE/VLMvwj4G/cG+cQ5AiIMownATAMIFo1hAWNwnwgRq+8GNlqU/D4w+wm4A3cGg1MVA2Y87wudu
8cEIkjJAz/hHwgdU28GNLbBAo/xEwsXB78EBQgdAYH1RwuUYAMJKd8ZASXFWwiVJ/MEMBaFAPx1Y
wpDl/cEs0ddAn/xNwhN48sF7Yf1AxKBUwhz478GrYgdBpoxQwuVL5cE8mvxAcgItwqKE8sFFNZtA
Sesrwnih5MElEZVAMDhXwuOG6sFS5cRAVhtNwkE84cE2+RxAiXA0wrt+68Ei8D1AXslLwg2J7MHs
pbJAENIkwviy48HLVFFA

> <OMEGA_E>
pwL0wA==

> <OMEGA_NBR>
     46351

$$$$
CACHE3HI_1879_39
  -OEChem-03092622523D

 58 60  0     1  0  0  0  0  0999 V2000
  -43.9285  -33.6975    1.2676 C   0  0  0  0  0  0  0  0  0  0  0  0
  -43.1422  -32.7044    1.8409 C   0  0  0  0  0  0  0  0  0  0  0  0
  -44.8228  -32.0632   -0.2112 C   0  0  0  0  0  0  0  0  0  0  0  0
  -47.3506  -29.3391    3.5466 C   0  0  0  0  0  0  0  0  0  0  0  0
  -48.9067  -28.7759    5.0755 C   0  0  0  0  0  0  0  0  0  0  0  0
  -46.7844  -29.2243    4.7776 C   0  0  0  0  0  0  0  0  0  0  0  0
  -44.7875  -33.3794    0.2216 C   0  0  0  0  0  0  0  0  0  0  0  0
  -47.7321  -28.8808    5.7121 C   0  0  0  0  0  0  0  0  0  0  0  0
  -43.2508  -31.4187    1.3360 C   0  0  0  0  0  0  0  0  0  0  0  0
  -45.6317  -29.2854    5.6359 C   0  0  0  0  0  0  0  0  0  0  0  0
  -49.7351  -29.0402    2.7341 C   0  0  0  0  0  0  0  0  0  0  0  0
  -45.6415  -34.4192   -0.4123 C   0  0  0  0  0  0  0  0  0  0  0  0
  -42.6175  -28.9097    1.2858 C   0  0  0  0  0  0  0  0  0  0  0  0
  -40.9007  -30.6403    1.7459 C   0  0  0  0  0  0  0  0  0  0  0  0
  -51.9485  -29.7384    4.3572 C   0  0  0  0  0  0  0  0  0  0  0  0
  -52.4059  -29.3406    1.9196 C   0  0  0  0  0  0  0  0  0  0  0  0
  -52.9624  -27.5611    3.6027 C   0  0  0  0  0  0  0  0  0  0  0  0
  -42.6632  -30.1555    3.4697 C   0  0  0  0  0  0  0  0  0  0  0  0
  -44.2494  -29.6124    5.2425 C   0  0  1  0  0  0  0  0  0  0  0  0
  -42.3950  -30.2927    1.9459 C   0  0  0  0  0  0  0  0  0  0  0  0
  -52.0019  -28.6940    3.2426 C   0  0  0  0  0  0  0  0  0  0  0  0
  -44.0738  -31.0716    0.3213 N   0  0  0  0  0  0  0  0  0  0  0  0
  -45.9049  -28.9984    6.9546 N   0  0  0  0  0  0  0  0  0  0  0  0
  -47.2572  -28.7451    6.9641 N   0  0  0  0  0  0  0  0  0  0  0  0
  -48.7355  -29.0530    3.7049 N   0  0  0  0  0  0  0  0  0  0  0  0
  -44.0480  -29.8241    3.7879 N   0  0  0  0  0  0  0  0  0  0  0  0
  -49.6651  -29.7692    1.7583 O   0  0  0  0  0  0  0  0  0  0  0  0
  -43.3825  -28.5462    5.6806 O   0  0  0  0  0  0  0  0  0  0  0  0
  -50.6932  -28.1438    3.0715 O   0  0  0  0  0  0  0  0  0  0  0  0
  -43.8665  -34.7158    1.6416 H   0  0  0  0  0  0  0  0  0  0  0  0
  -42.4678  -32.9396    2.6573 H   0  0  0  0  0  0  0  0  0  0  0  0
  -45.4739  -31.7551   -1.0236 H   0  0  0  0  0  0  0  0  0  0  0  0
  -46.9482  -29.5879    2.5743 H   0  0  0  0  0  0  0  0  0  0  0  0
  -49.8876  -28.5248    5.4575 H   0  0  0  0  0  0  0  0  0  0  0  0
  -46.6170  -34.4996    0.0882 H   0  0  0  0  0  0  0  0  0  0  0  0
  -45.1752  -35.4132   -0.3541 H   0  0  0  0  0  0  0  0  0  0  0  0
  -45.8163  -34.1825   -1.4706 H   0  0  0  0  0  0  0  0  0  0  0  0
  -41.9954  -28.1309    1.7411 H   0  0  0  0  0  0  0  0  0  0  0  0
  -43.6643  -28.5909    1.3642 H   0  0  0  0  0  0  0  0  0  0  0  0
  -42.3697  -28.9387    0.2178 H   0  0  0  0  0  0  0  0  0  0  0  0
  -40.2534  -29.8618    2.1672 H   0  0  0  0  0  0  0  0  0  0  0  0
  -40.6247  -31.5833    2.2326 H   0  0  0  0  0  0  0  0  0  0  0  0
  -40.6552  -30.7372    0.6816 H   0  0  0  0  0  0  0  0  0  0  0  0
  -51.6591  -29.2797    5.3087 H   0  0  0  0  0  0  0  0  0  0  0  0
  -52.9153  -30.2337    4.4914 H   0  0  0  0  0  0  0  0  0  0  0  0
  -51.1937  -30.5016    4.1392 H   0  0  0  0  0  0  0  0  0  0  0  0
  -52.4456  -28.5950    1.1171 H   0  0  0  0  0  0  0  0  0  0  0  0
  -51.7075  -30.1301    1.6252 H   0  0  0  0  0  0  0  0  0  0  0  0
  -53.4101  -29.7742    1.9882 H   0  0  0  0  0  0  0  0  0  0  0  0
  -53.0098  -26.8056    2.8117 H   0  0  0  0  0  0  0  0  0  0  0  0
  -53.9742  -27.9459    3.7745 H   0  0  0  0  0  0  0  0  0  0  0  0
  -52.6552  -27.0716    4.5335 H   0  0  0  0  0  0  0  0  0  0  0  0
  -42.4271  -31.0776    4.0118 H   0  0  0  0  0  0  0  0  0  0  0  0
  -42.0410  -29.3633    3.9028 H   0  0  0  0  0  0  0  0  0  0  0  0
  -43.8641  -30.5098    5.7725 H   0  0  0  0  0  0  0  0  0  0  0  0
  -47.7405  -28.5018    7.8190 H   0  0  0  0  0  0  0  0  0  0  0  0
  -44.3022  -28.9792    3.2762 H   0  0  0  0  0  0  0  0  0  0  0  0
  -43.4529  -28.4733    6.6476 H   0  0  0  0  0  0  0  0  0  0  0  0
  1  2  2  0  0  0  0
  1  7  1  0  0  0  0
  2  9  1  0  0  0  0
  3  7  2  0  0  0  0
  3 22  1  0  0  0  0
  4  6  2  0  0  0  0
  4 25  1  0  0  0  0
  5  8  2  0  0  0  0
  5 25  1  0  0  0  0
  6  8  1  0  0  0  0
  6 10  1  0  0  0  0
  7 12  1  0  0  0  0
  8 24  1  0  0  0  0
  9 20  1  0  0  0  0
  9 22  2  0  0  0  0
 10 19  1  0  0  0  0
 10 23  2  0  0  0  0
 11 25  1  0  0  0  0
 11 27  2  0  0  0  0
 11 29  1  0  0  0  0
 13 20  1  0  0  0  0
 14 20  1  0  0  0  0
 15 21  1  0  0  0  0
 16 21  1  0  0  0  0
 17 21  1  0  0  0  0
 18 20  1  0  0  0  0
 18 26  1  0  0  0  0
 19 26  1  0  0  0  0
 19 28  1  0  0  0  0
 21 29  1  0  0  0  0
 23 24  1  0  0  0  0
  1 30  1  0  0  0  0
  2 31  1  0  0  0  0
  3 32  1  0  0  0  0
  4 33  1  0  0  0  0
  5 34  1  0  0  0  0
 12 35  1  0  0  0  0
 12 36  1  0  0  0  0
 12 37  1  0  0  0  0
 13 38  1  0  0  0  0
 13 39  1  0  0  0  0
 13 40  1  0  0  0  0
 14 41  1  0  0  0  0
 14 42  1  0  0  0  0
 14 43  1  0  0  0  0
 15 44  1  0  0  0  0
 15 45  1  0  0  0  0
 15 46  1  0  0  0  0
 16 47  1  0  0  0  0
 16 48  1  0  0  0  0
 16 49  1  0  0  0  0
 17 50  1  0  0  0  0
 17 51  1  0  0  0  0
 17 52  1  0  0  0  0
 18 53  1  0  0  0  0
 18 54  1  0  0  0  0
 19 55  1  0  0  0  0
 24 56  1  0  0  0  0
 26 57  1  0  0  0  0
 28 58  1  0  0  0  0
M  END
> <POSIT::Probability>
0.19

> <POSIT::Method>
FRED

> <ReceptorTitle>
UCSF-P4271-REFINED_LIGAND-BOUND-STATE_A__DU__LA1_A-201(A)

> <OMEGA_C>
vbYvwjLKBsIOQKI/kpEswknRAsLYoes/kEozwrZAAMIAP1i+AWc9wne26sHM+mJAeaBDwgQ15sHi
aqJAMiM7wk/L6cFk4phAaSYzwouEBcLw5WI+ru0+wuQL58GkybZAygAtwnFZ+8FYAas/3oY2wm5I
6sFQWbRAtPBGwllS6MGz+y5A7ZA2wj2tCcIgHdO+V3gqwhlH58FllqQ/S5ojwlkf9cEweN8/Q8tP
wlXo7cEQbotAqp9RwqS56sFutPU/fNlTwg993MHHkmZAKKcqwpA+8cG7D15AYP8wwkPm7MHOwqdA
eJQpwnZX8sHfEvk//wFQwmiN5cG+hk9Ahkswwp+S+MHQfKQ+mJ43wsL858EyjN5AYQc9wvP15cGs
2d5AJ/FCwnds6MGtHW1AMDEwwq+X7sFQbXJAC6lGwkUn7sF9DuE/o4ctwpNe5MG2x7VAy8VKwpkm
4cFFlERAQXcvwu/cCsLXH9I/A98pwirCA8K3ESpAQuU1wmcK/sFcBIO//so7whi07MHqwSRA5YxH
wrQy5MGZo65A2Hc6wp//CcIAorQ9c7M0wimnDcIQTLW+40M3wuG6CMJkPLy/RPsnwg8M4cFK3d4/
NKguwja65MEDn64/iXopwoGC58HQBV8+hgMhwu3k7sFFswpAvn8iwqOq/MEu4g5A5p4iwsHl9cEo
fi4/76JOwus86sGa4KlAP6lTwqre8cF6uY9AU8ZMwjYD9MFGdIRAP8hRwp/C5MEH/I4/htROwm0K
8cGwBdA/86NVwpwx7sGFfv4/CQpUwuVx1sHq8jNAoeVXwi2R38GJkXFA5Z5Swq+S2MGREpFAWLUp
wvye+MEAYYBA/ikowhLo6sFAx3lA1HQvwvsT9MEtuLhAR/Y+wsUD5MEINfpAejUxwnjV58HGrFFA
vM8twmnJ48ESudRA

> <OMEGA_E>
vWEYwQ==

> <OMEGA_NBR>
     48006

$$$$
CACHE3-HO_1700_34
  -OEChem-03092622503D

 38 40  0     1  0  0  0  0  0999 V2000
  -48.3588  -29.0352    4.8269 C   0  0  0  0  0  0  0  0  0  0  0  0
  -48.9000  -28.9621    6.0929 C   0  0  0  0  0  0  0  0  0  0  0  0
  -44.5109  -29.4716    5.9875 C   0  0  0  0  0  0  0  0  0  0  0  0
  -46.9570  -29.1963    4.9709 C   0  0  0  0  0  0  0  0  0  0  0  0
  -45.8628  -29.3305    4.1172 C   0  0  0  0  0  0  0  0  0  0  0  0
  -46.6892  -29.2163    6.3341 C   0  0  0  0  0  0  0  0  0  0  0  0
  -45.9848  -29.3284    2.6372 C   0  0  0  0  0  0  0  0  0  0  0  0
  -44.4754  -31.5302    0.1696 C   0  0  0  0  0  0  0  0  0  0  0  0
  -40.9882  -30.0389    1.6277 C   0  0  0  0  0  0  0  0  0  0  0  0
  -42.1646  -29.0979    1.5523 C   0  0  0  0  0  0  0  0  0  0  0  0
  -41.4897  -31.2294    0.8369 C   0  0  0  0  0  0  0  0  0  0  0  0
  -42.6519  -29.3351    0.1332 C   0  0  2  0  0  0  0  0  0  0  0  0
  -44.1237  -29.0277   -0.0605 C   0  0  0  0  0  0  0  0  0  0  0  0
  -45.0085  -30.1497    0.5093 C   0  0  2  0  0  0  0  0  0  0  0  0
  -44.6229  -29.4697    4.6402 N   0  0  0  0  0  0  0  0  0  0  0  0
  -45.4839  -29.3516    6.9138 N   0  0  0  0  0  0  0  0  0  0  0  0
  -47.8776  -29.0734    7.0000 N   0  0  0  0  0  0  0  0  0  0  0  0
  -45.0374  -30.0710    1.9679 N   0  0  0  0  0  0  0  0  0  0  0  0
  -46.8793  -28.6726    2.1097 O   0  0  0  0  0  0  0  0  0  0  0  0
  -44.1296  -32.3739    0.9869 O   0  0  0  0  0  0  0  0  0  0  0  0
  -42.4018  -30.7228   -0.1492 O   0  0  0  0  0  0  0  0  0  0  0  0
  -44.3989  -31.7318   -1.1728 O   0  0  0  0  0  0  0  0  0  0  0  0
  -48.9189  -28.9765    3.9037 H   0  0  0  0  0  0  0  0  0  0  0  0
  -49.9205  -28.8410    6.4281 H   0  0  0  0  0  0  0  0  0  0  0  0
  -43.5038  -29.5859    6.3736 H   0  0  0  0  0  0  0  0  0  0  0  0
  -40.1220  -29.5931    1.1245 H   0  0  0  0  0  0  0  0  0  0  0  0
  -40.6951  -30.2973    2.6486 H   0  0  0  0  0  0  0  0  0  0  0  0
  -42.9233  -29.3987    2.2851 H   0  0  0  0  0  0  0  0  0  0  0  0
  -41.8990  -28.0543    1.7419 H   0  0  0  0  0  0  0  0  0  0  0  0
  -40.6812  -31.7770    0.3447 H   0  0  0  0  0  0  0  0  0  0  0  0
  -42.0440  -31.9244    1.4766 H   0  0  0  0  0  0  0  0  0  0  0  0
  -42.0553  -28.7484   -0.5757 H   0  0  0  0  0  0  0  0  0  0  0  0
  -44.3384  -28.8684   -1.1282 H   0  0  0  0  0  0  0  0  0  0  0  0
  -44.3601  -28.0815    0.4498 H   0  0  0  0  0  0  0  0  0  0  0  0
  -46.0206  -30.0448    0.1014 H   0  0  0  0  0  0  0  0  0  0  0  0
  -47.9838  -29.0508    8.0047 H   0  0  0  0  0  0  0  0  0  0  0  0
  -44.2888  -30.5377    2.4546 H   0  0  0  0  0  0  0  0  0  0  0  0
  -44.0453  -32.6056   -1.4427 H   0  0  0  0  0  0  0  0  0  0  0  0
  1  2  2  0  0  0  0
  1  4  1  0  0  0  0
  2 17  1  0  0  0  0
  3 15  2  0  0  0  0
  3 16  1  0  0  0  0
  4  5  2  0  0  0  0
  4  6  1  0  0  0  0
  5  7  1  0  0  0  0
  5 15  1  0  0  0  0
  6 16  2  0  0  0  0
  6 17  1  0  0  0  0
  7 18  1  0  0  0  0
  7 19  2  0  0  0  0
  8 14  1  0  0  0  0
  8 20  2  0  0  0  0
  8 22  1  0  0  0  0
  9 10  1  0  0  0  0
  9 11  1  0  0  0  0
 10 12  1  0  0  0  0
 11 21  1  0  0  0  0
 12 13  1  0  0  0  0
 12 21  1  0  0  0  0
 13 14  1  0  0  0  0
 14 18  1  0  0  0  0
  1 23  1  0  0  0  0
  2 24  1  0  0  0  0
  3 25  1  0  0  0  0
  9 26  1  0  0  0  0
  9 27  1  0  0  0  0
 10 28  1  0  0  0  0
 10 29  1  0  0  0  0
 11 30  1  0  0  0  0
 11 31  1  0  0  0  0
 12 32  1  0  0  0  0
 13 33  1  0  0  0  0
 13 34  1  0  0  0  0
 14 35  1  0  0  0  0
 17 36  1  0  0  0  0
 18 37  1  0  0  0  0
 22 38  1  0  0  0  0
M  END
> <POSIT::Probability>
0.5

> <POSIT::Method>
HYBRID

> <ReceptorTitle>
UCSF-P4280-REFINED_LIGAND-BOUND-STATE_A__DU__LA1_A-201(A)

> <OMEGA_C>
cm9BwghI6MEkdppAnplDwkiy58Hg+MJAJgsywuvF68Gimb9A8NM7wvOR6cHIEZ9AhHM3wsyk6sEY
wINAwsE6wgy76cHwsMpAevA3wqqg6sHxxyhAxeYxwtA9/MG4ri0+6/MjwqxP8MGOWdA/lKgowpDI
6MGCscY/cfUlwsDV+cFYQlY/gJsqwkmu6sGAaQg+sH4wwrg46MEg7He9qAg0wqIy8cHwYQI/5n0y
wujB68FIfJRAeO81wiPQ6sECPt1AqII/wlCW6MHX/99AQSY0wnmR8MGS4vs/X4Q7wohh5cHCBQdA
soQwwup+AcKQonw/fJspwkrI9cHEyBi+epgxwrPa/cGqH5a/8axDwuDP58G71nlAkK5Hwme65sG2
ss1A6QMuwvKv7MEu9MtA+Hwgwqa+7MG48I8/xsciws9g8sEdgilAeLErwoEw68FIPhJAiZgnwjZv
4MFk9d4/grkiwmQ3/sFggbA+Ey0owhll/8HIAb0/qDgowr785cHXYRO/jVoxwoTy5sE7apC/t3Ax
wuCm4MHgTuY+FRU4wrpb8MEAoM89YO8/wgxo6MFUEwBBwCcxwjZN9MFiFx1AXS4wwiZsAsLjqLi/

> <OMEGA_E>
4X40wQ==

> <OMEGA_NBR>
      1265

$$$$
CACHE3-HO_1715_7
  -OEChem-03092622503D

 38 40  0     0  0  0  0  0  0999 V2000
  -48.5128  -28.7949    4.6121 C   0  0  0  0  0  0  0  0  0  0  0  0
  -49.0407  -28.6905    5.8815 C   0  0  0  0  0  0  0  0  0  0  0  0
  -44.6536  -29.2096    5.7430 C   0  0  0  0  0  0  0  0  0  0  0  0
  -47.1097  -28.9548    4.7455 C   0  0  0  0  0  0  0  0  0  0  0  0
  -46.8279  -28.9425    6.1059 C   0  0  0  0  0  0  0  0  0  0  0  0
  -46.0246  -29.1112    3.8840 C   0  0  0  0  0  0  0  0  0  0  0  0
  -44.2472  -29.4725   -0.0039 C   0  0  0  0  0  0  0  0  0  0  0  0
  -44.1428  -32.0021    0.0183 C   0  0  0  0  0  0  0  0  0  0  0  0
  -42.9172  -29.4082    0.7426 C   0  0  0  0  0  0  0  0  0  0  0  0
  -42.8125  -31.9432    0.7656 C   0  0  0  0  0  0  0  0  0  0  0  0
  -45.0268  -30.7692    0.2722 C   0  0  0  0  0  0  0  0  0  0  0  0
  -42.0742  -30.6456    0.4829 C   0  0  0  0  0  0  0  0  0  0  0  0
  -47.0063  -29.7137   -0.4338 C   0  0  0  0  0  0  0  0  0  0  0  0
  -45.6128  -30.7809    1.6881 C   0  0  0  0  0  0  0  0  0  0  0  0
  -45.6167  -29.0658    6.6762 N   0  0  0  0  0  0  0  0  0  0  0  0
  -44.7796  -29.2398    4.3973 N   0  0  0  0  0  0  0  0  0  0  0  0
  -48.0091  -28.7817    6.7804 N   0  0  0  0  0  0  0  0  0  0  0  0
  -46.1445  -30.8239   -0.6220 O   0  0  0  0  0  0  0  0  0  0  0  0
  -40.9500  -30.5924    1.2394 F   0  0  0  0  0  0  0  0  0  0  0  0
  -41.6649  -30.6406   -0.8131 F   0  0  0  0  0  0  0  0  0  0  0  0
  -46.2593  -29.1441    2.1097 S   0  0  0  0  0  0  0  0  0  0  0  0
  -49.0857  -28.7586    3.6955 H   0  0  0  0  0  0  0  0  0  0  0  0
  -50.0575  -28.5585    6.2241 H   0  0  0  0  0  0  0  0  0  0  0  0
  -43.6428  -29.3151    6.1216 H   0  0  0  0  0  0  0  0  0  0  0  0
  -44.8597  -28.6026    0.2801 H   0  0  0  0  0  0  0  0  0  0  0  0
  -44.0416  -29.3795   -1.0812 H   0  0  0  0  0  0  0  0  0  0  0  0
  -43.9300  -32.0998   -1.0566 H   0  0  0  0  0  0  0  0  0  0  0  0
  -44.6823  -32.9132    0.3187 H   0  0  0  0  0  0  0  0  0  0  0  0
  -42.3573  -28.5127    0.4476 H   0  0  0  0  0  0  0  0  0  0  0  0
  -43.1086  -29.3160    1.8178 H   0  0  0  0  0  0  0  0  0  0  0  0
  -42.9969  -32.0313    1.8422 H   0  0  0  0  0  0  0  0  0  0  0  0
  -42.1810  -32.7946    0.4863 H   0  0  0  0  0  0  0  0  0  0  0  0
  -47.8479  -29.7823   -1.1280 H   0  0  0  0  0  0  0  0  0  0  0  0
  -47.3815  -29.7245    0.5923 H   0  0  0  0  0  0  0  0  0  0  0  0
  -46.4524  -28.7881   -0.6067 H   0  0  0  0  0  0  0  0  0  0  0  0
  -44.8377  -31.0570    2.4031 H   0  0  0  0  0  0  0  0  0  0  0  0
  -46.4185  -31.5125    1.7452 H   0  0  0  0  0  0  0  0  0  0  0  0
  -48.1052  -28.7370    7.7854 H   0  0  0  0  0  0  0  0  0  0  0  0
  1  2  2  0  0  0  0
  1  4  1  0  0  0  0
  2 17  1  0  0  0  0
  3 15  2  0  0  0  0
  3 16  1  0  0  0  0
  4  5  2  0  0  0  0
  4  6  1  0  0  0  0
  5 15  1  0  0  0  0
  5 17  1  0  0  0  0
  6 16  2  0  0  0  0
  6 21  1  0  0  0  0
  7  9  1  0  0  0  0
  7 11  1  0  0  0  0
  8 10  1  0  0  0  0
  8 11  1  0  0  0  0
  9 12  1  0  0  0  0
 10 12  1  0  0  0  0
 11 14  1  0  0  0  0
 11 18  1  0  0  0  0
 12 19  1  0  0  0  0
 12 20  1  0  0  0  0
 13 18  1  0  0  0  0
 14 21  1  0  0  0  0
  1 22  1  0  0  0  0
  2 23  1  0  0  0  0
  3 24  1  0  0  0  0
  7 25  1  0  0  0  0
  7 26  1  0  0  0  0
  8 27  1  0  0  0  0
  8 28  1  0  0  0  0
  9 29  1  0  0  0  0
  9 30  1  0  0  0  0
 10 31  1  0  0  0  0
 10 32  1  0  0  0  0
 13 33  1  0  0  0  0
 13 34  1  0  0  0  0
 13 35  1  0  0  0  0
 14 36  1  0  0  0  0
 14 37  1  0  0  0  0
 17 38  1  0  0  0  0
M  END
> <POSIT::Probability>
0.55

> <POSIT::Method>
HYBRID

> <ReceptorTitle>
UCSF-P4280-REFINED_LIGAND-BOUND-STATE_A__DU__LA1_A-201(A)

> <OMEGA_C>
EQ1Cwulb5sF5lpNAqilEwiSG5cESNbxASZ0ywk+t6cEFx7dAV3A8wlSj58HQ2pdAvE87wkWK58Fw
Y8NAOxk4wrrj6MGrknhALP0wwpXH68HAAIG7OJIwwisCAMJQ+5U8MKsrwhVE68FYGD4/BUArwsSL
/8Hg/kM/eBs0wk8n9sFtWos+9UsowkAq9cF9Pvc+eAY8wpa17cHDH96+g3M2wkg/9sHlEtg/jXc2
wsyG6MGEo9VAUx4zwi3r6cGMtoxASwlAwupA5sHm+NhABJQ4wlKX9sEWPB+/2cwjwk699MEopJ4/
36gmwuAf9cHSKFC/jwk5wg0n6cEiBQdAwFdEwoUR5sEQg2xA5zpIwt535MECLMdAPpIuwkSF6sHm
48NAS3AzwirS5ME9ZY8+kiowwikJ68GHY4q/Vbgvwi1mAMKhP4e/o7oywhSnA8LlMKM+4W0pwgwa
5MF9KuU+QG8swiKH6sHareg/0/wrwhUgAMKezes/WLkowrEtA8IV//g+PGQ/wjZC7sEdY5C/pIY9
ws3L7cHSoxc/SM85wvtN5sHiUhu/0Fkzwqx0+MFDzBlAhKw5woMZ/MG5Y98/vmtAwmvl5cHqIflA

> <OMEGA_E>
bZJMwQ==

> <OMEGA_NBR>
      2520

$$$$
CACHE3HI_1687_69
  -OEChem-03092622503D

 44 47  0     1  0  0  0  0  0999 V2000
  -41.5582  -30.3794    3.7487 C   0  0  0  0  0  0  0  0  0  0  0  0
  -42.5307  -31.4039    3.6756 C   0  0  0  0  0  0  0  0  0  0  0  0
  -41.4320  -29.4433    2.6984 C   0  0  0  0  0  0  0  0  0  0  0  0
  -43.3947  -31.4811    2.5615 C   0  0  0  0  0  0  0  0  0  0  0  0
  -48.2236  -28.8873    4.6022 C   0  0  0  0  0  0  0  0  0  0  0  0
  -48.8578  -28.7399    5.8129 C   0  0  0  0  0  0  0  0  0  0  0  0
  -44.3737  -29.4670    6.0302 C   0  0  0  0  0  0  0  0  0  0  0  0
  -43.3867  -29.2258   -0.3078 C   0  0  0  0  0  0  0  0  0  0  0  0
  -46.8138  -29.1282    4.8925 C   0  0  0  0  0  0  0  0  0  0  0  0
  -42.2840  -29.5368    1.5798 C   0  0  0  0  0  0  0  0  0  0  0  0
  -43.2557  -30.5433    1.5161 C   0  0  0  0  0  0  0  0  0  0  0  0
  -45.6812  -29.2944    4.0888 C   0  0  0  0  0  0  0  0  0  0  0  0
  -46.6621  -29.1268    6.2804 C   0  0  0  0  0  0  0  0  0  0  0  0
  -45.8012  -29.2661    2.6318 C   0  0  0  0  0  0  0  0  0  0  0  0
  -47.0432  -29.2578   -0.2165 C   0  0  0  0  0  0  0  0  0  0  0  0
  -45.1814  -31.0522   -0.0974 C   0  0  0  0  0  0  0  0  0  0  0  0
  -47.6228  -31.6345    0.2771 C   0  0  0  0  0  0  0  0  0  0  0  0
  -46.5400  -30.5375    0.5141 C   0  0  2  0  0  0  0  0  0  0  0  0
  -44.4707  -29.4271    4.6760 N   0  0  0  0  0  0  0  0  0  0  0  0
  -45.4486  -29.3104    6.8417 N   0  0  0  0  0  0  0  0  0  0  0  0
  -42.3924  -28.7658    0.4245 N   0  0  0  0  0  0  0  0  0  0  0  0
  -47.9119  -28.8895    6.8280 N   0  0  0  0  0  0  0  0  0  0  0  0
  -43.9583  -30.3168    0.3436 N   0  0  0  0  0  0  0  0  0  0  0  0
  -46.4654  -30.3168    1.9850 N   0  0  0  0  0  0  0  0  0  0  0  0
  -45.2428  -28.3610    2.0233 O   0  0  0  0  0  0  0  0  0  0  0  0
  -47.2764  -32.8709    0.9115 O   0  0  0  0  0  0  0  0  0  0  0  0
  -40.9102  -30.3126    4.6101 H   0  0  0  0  0  0  0  0  0  0  0  0
  -42.6125  -32.1279    4.4729 H   0  0  0  0  0  0  0  0  0  0  0  0
  -40.6883  -28.6620    2.7522 H   0  0  0  0  0  0  0  0  0  0  0  0
  -44.1528  -32.2487    2.5100 H   0  0  0  0  0  0  0  0  0  0  0  0
  -48.6804  -28.8349    3.6249 H   0  0  0  0  0  0  0  0  0  0  0  0
  -49.9100  -28.5419    5.9544 H   0  0  0  0  0  0  0  0  0  0  0  0
  -43.4042  -29.6296    6.4774 H   0  0  0  0  0  0  0  0  0  0  0  0
  -43.7063  -28.8230   -1.2575 H   0  0  0  0  0  0  0  0  0  0  0  0
  -47.9904  -28.9263    0.2339 H   0  0  0  0  0  0  0  0  0  0  0  0
  -46.2918  -28.4604   -0.1184 H   0  0  0  0  0  0  0  0  0  0  0  0
  -47.2025  -29.4825   -1.2815 H   0  0  0  0  0  0  0  0  0  0  0  0
  -45.0616  -32.1088    0.1845 H   0  0  0  0  0  0  0  0  0  0  0  0
  -45.2498  -30.9703   -1.1922 H   0  0  0  0  0  0  0  0  0  0  0  0
  -48.5818  -31.2819    0.6844 H   0  0  0  0  0  0  0  0  0  0  0  0
  -47.7248  -31.8059   -0.8047 H   0  0  0  0  0  0  0  0  0  0  0  0
  -48.1078  -28.8337    7.8071 H   0  0  0  0  0  0  0  0  0  0  0  0
  -46.9339  -30.9819    2.5665 H   0  0  0  0  0  0  0  0  0  0  0  0
  -47.9564  -33.5135    0.7463 H   0  0  0  0  0  0  0  0  0  0  0  0
  1  2  2  0  0  0  0
  1  3  1  0  0  0  0
  2  4  1  0  0  0  0
  3 10  2  0  0  0  0
  4 11  2  0  0  0  0
  5  6  2  0  0  0  0
  5  9  1  0  0  0  0
  6 22  1  0  0  0  0
  7 19  1  0  0  0  0
  7 20  2  0  0  0  0
  8 21  2  0  0  0  0
  8 23  1  0  0  0  0
  9 12  1  0  0  0  0
  9 13  2  0  0  0  0
 10 11  1  0  0  0  0
 10 21  1  0  0  0  0
 11 23  1  0  0  0  0
 12 14  1  0  0  0  0
 12 19  2  0  0  0  0
 13 20  1  0  0  0  0
 13 22  1  0  0  0  0
 14 24  1  0  0  0  0
 14 25  2  0  0  0  0
 15 18  1  0  0  0  0
 16 18  1  0  0  0  0
 16 23  1  0  0  0  0
 17 18  1  0  0  0  0
 17 26  1  0  0  0  0
 18 24  1  0  0  0  0
  1 27  1  0  0  0  0
  2 28  1  0  0  0  0
  3 29  1  0  0  0  0
  4 30  1  0  0  0  0
  5 31  1  0  0  0  0
  6 32  1  0  0  0  0
  7 33  1  0  0  0  0
  8 34  1  0  0  0  0
 15 35  1  0  0  0  0
 15 36  1  0  0  0  0
 15 37  1  0  0  0  0
 16 38  1  0  0  0  0
 16 39  1  0  0  0  0
 17 40  1  0  0  0  0
 17 41  1  0  0  0  0
 22 42  1  0  0  0  0
 24 43  1  0  0  0  0
 26 44  1  0  0  0  0
M  END
> <POSIT::Probability>
0.42

> <POSIT::Method>
SHAPEFIT

> <ReceptorTitle>
UCSF-P4280-REFINED_LIGAND-BOUND-STATE_A__DU__LA1_A-201(A)

> <OMEGA_C>
lzsmwvkI88Hl6m9AdR8qwj87+8GOPWtAU7olwsqL68FtsixAKpQtwmTZ+8GO7yNA8+RAwigZ58Ep
RZNAa25DwlXr5cHkArpAtn4xwna868Gc98BAAYwtwnvO6cEFlZ2+WUE7wqAG6cFdj5xA3SIpwlhL
7MGgNco/3QUtwrxY9ME9D8I/lbk2wvha6sFb14JA+aU6wp4D6cHh+MhAczQ3wvAg6sGdbyhANyw8
wuoP6sHgtl2+tbk0wv1q+MHMZMe9tn0+wnET/cGl240+/Cg6wr9M9MFMngM/C+Ixwrdq68G7oZVA
ass1wql76sH87tpAzJEpwkcg5sFjUtk+1KU/wsQd58FTf9pASdUvwsmI8sHl6q8+idw5ws2I8sFK
E/4/qvg0wkHj4sHsfQFADRs9wsl7A8IAWWk/DaQjwkaA8sFDhpNANnMqwveCAMK4IY9Ax8AiwrNL
5cH6IzBAbJwwwqL+AMIJoyBAr7hCwtSt5sEV/2dA4KNHwrdV5MG0ir5A450twm4J7cGRRs9AStMu
wpiV5sGG9qC/MPY/wv5o58HVem8+1io5wtOu48EBlPK9Ys88whXc68E6B6S/Dz80wl1vAMJ66Dw+
1P80wi3D98HZmJi/vlNCwkpB+sG4Ny8/JeY+wpNy/sFYAE6/ZG5Awlur5sGc0/lAS7w7wuHa98FO
QSRAUNM/wsYNBsKQDz8/

> <OMEGA_E>
ICpyPw==

> <OMEGA_NBR>
      3928

$$$$
CACHE3HI_1690_58
  -OEChem-03092622503D

 39 43  0     1  0  0  0  0  0999 V2000
  -50.1547  -29.1086    3.1766 C   0  0  0  0  0  0  0  0  0  0  0  0
  -50.8983  -28.8841    4.3631 C   0  0  0  0  0  0  0  0  0  0  0  0
  -48.7476  -29.2502    3.2285 C   0  0  0  0  0  0  0  0  0  0  0  0
  -50.2441  -28.7992    5.6134 C   0  0  0  0  0  0  0  0  0  0  0  0
  -44.3262  -29.3636    6.1181 C   0  0  0  0  0  0  0  0  0  0  0  0
  -48.1223  -29.1586    4.4883 C   0  0  0  0  0  0  0  0  0  0  0  0
  -46.7117  -29.2595    4.8648 C   0  0  0  0  0  0  0  0  0  0  0  0
  -48.8451  -28.9388    5.6670 C   0  0  0  0  0  0  0  0  0  0  0  0
  -46.6372  -29.0984    6.2490 C   0  0  0  0  0  0  0  0  0  0  0  0
  -45.5456  -29.4825    4.1056 C   0  0  0  0  0  0  0  0  0  0  0  0
  -44.2853  -32.3091   -0.2587 C   0  0  0  0  0  0  0  0  0  0  0  0
  -45.6603  -31.6292   -0.4558 C   0  0  0  0  0  0  0  0  0  0  0  0
  -43.7535  -30.9135    0.1407 C   0  0  0  0  0  0  0  0  0  0  0  0
  -45.6434  -29.1521    0.4232 C   0  0  0  0  0  0  0  0  0  0  0  0
  -45.3722  -28.5173    1.7958 C   0  0  0  0  0  0  0  0  0  0  0  0
  -45.4650  -30.9837    2.0937 C   0  0  0  0  0  0  0  0  0  0  0  0
  -45.1969  -30.6156    0.6114 C   0  0  0  0  0  0  0  0  0  0  0  0
  -45.4413  -29.1505    6.8677 N   0  0  0  0  0  0  0  0  0  0  0  0
  -44.3586  -29.5313    4.7635 N   0  0  0  0  0  0  0  0  0  0  0  0
  -47.9345  -28.9047    6.7255 N   0  0  0  0  0  0  0  0  0  0  0  0
  -45.5838  -29.6496    2.7238 N   0  0  1  0  0  0  0  0  0  0  0  0
  -50.6656  -29.1720    2.2272 H   0  0  0  0  0  0  0  0  0  0  0  0
  -51.9717  -28.7772    4.3111 H   0  0  0  0  0  0  0  0  0  0  0  0
  -48.1714  -29.4230    2.3315 H   0  0  0  0  0  0  0  0  0  0  0  0
  -50.8114  -28.6292    6.5166 H   0  0  0  0  0  0  0  0  0  0  0  0
  -43.3698  -29.4019    6.6183 H   0  0  0  0  0  0  0  0  0  0  0  0
  -44.2531  -33.0624    0.5423 H   0  0  0  0  0  0  0  0  0  0  0  0
  -43.8416  -32.7280   -1.1739 H   0  0  0  0  0  0  0  0  0  0  0  0
  -45.8284  -31.2047   -1.4566 H   0  0  0  0  0  0  0  0  0  0  0  0
  -46.5266  -32.2427   -0.1675 H   0  0  0  0  0  0  0  0  0  0  0  0
  -42.9963  -30.9162    0.9386 H   0  0  0  0  0  0  0  0  0  0  0  0
  -43.4012  -30.2938   -0.6970 H   0  0  0  0  0  0  0  0  0  0  0  0
  -46.7119  -29.0964    0.1681 H   0  0  0  0  0  0  0  0  0  0  0  0
  -45.0526  -28.6584   -0.3624 H   0  0  0  0  0  0  0  0  0  0  0  0
  -44.3418  -28.1379    1.8610 H   0  0  0  0  0  0  0  0  0  0  0  0
  -46.0780  -27.6988    2.0009 H   0  0  0  0  0  0  0  0  0  0  0  0
  -46.3954  -31.5607    2.2005 H   0  0  0  0  0  0  0  0  0  0  0  0
  -44.6280  -31.5549    2.5216 H   0  0  0  0  0  0  0  0  0  0  0  0
  -48.1769  -28.7623    7.6852 H   0  0  0  0  0  0  0  0  0  0  0  0
  1  2  1  0  0  0  0
  1  3  2  0  0  0  0
  2  4  2  0  0  0  0
  3  6  1  0  0  0  0
  4  8  1  0  0  0  0
  5 18  1  0  0  0  0
  5 19  2  0  0  0  0
  6  7  1  0  0  0  0
  6  8  2  0  0  0  0
  7  9  1  0  0  0  0
  7 10  2  0  0  0  0
  8 20  1  0  0  0  0
  9 18  2  0  0  0  0
  9 20  1  0  0  0  0
 10 19  1  0  0  0  0
 10 21  1  0  0  0  0
 11 12  1  0  0  0  0
 11 13  1  0  0  0  0
 12 17  1  0  0  0  0
 13 17  1  0  0  0  0
 14 15  1  0  0  0  0
 14 17  1  0  0  0  0
 15 21  1  0  0  0  0
 16 17  1  0  0  0  0
 16 21  1  0  0  0  0
  1 22  1  0  0  0  0
  2 23  1  0  0  0  0
  3 24  1  0  0  0  0
  4 25  1  0  0  0  0
  5 26  1  0  0  0  0
 11 27  1  0  0  0  0
 11 28  1  0  0  0  0
 12 29  1  0  0  0  0
 12 30  1  0  0  0  0
 13 31  1  0  0  0  0
 13 32  1  0  0  0  0
 14 33  1  0  0  0  0
 14 34  1  0  0  0  0
 15 35  1  0  0  0  0
 15 36  1  0  0  0  0
 16 37  1  0  0  0  0
 16 38  1  0  0  0  0
 20 39  1  0  0  0  0
M  END
> <POSIT::Probability>
0.72

> <POSIT::Method>
SHAPEFIT

> <ReceptorTitle>
UCSF-P4280-REFINED_LIGAND-BOUND-STATE_A__DU__LA1_A-201(A)

> <OMEGA_C>
cJ5Iwnfe6MExTUtA0ZdLwpQS58FmnotAhv1CwoIA6sFFn05A8/lIwsZk5sE0obNA/00xwqbo6sFr
x8NAM31AwuVE6cGLoI9Ax9g6wnIT6sGVrJtAaWFDwr+C58FoWLVAiow6wnzJ6MHO98dAuC42whTc
68HGYINAKCQxwo48AcLQb4S+HKQ2wqoI/cFwYem+kQMvwuxO98EAGxA+1JI2wo036cFgstg+K301
wlUj5MEA3OU/J9w1wobe98FO/wVApck0wtLs9MFIhBw/3MM1wks06cE4xNtAPm8xwjJA7MGNbphA
+bw/wuM858E2N9dA2VU2wmQy7cF0Uy5An6lKwjRg6cFbig5ABONPwps35sGv9IlAeq9AwkBi68Fz
NxVA1z5LwqwI5cHvh9BAoXotwgk368EhydNAJAMxwtw/BMLK1go/010vwnbpAsJIQ5a/SlA3wiWj
+cFkcLq/NRs6wpH4AMLbiCu+M/wrwmFU98EOSnA/z5otwrxZ8sErcDK/BNk6wmnF6MEkGiw+1jU0
wllE5cFVhrm+/V0xwl8a4cHSNO4/1U84wh6X3cFZDgBA2ZQ5wlp8/MGr1QxAE4Mywn5w/MHxYSFA
KLVAwiAZ5sHP7PVA

> <OMEGA_E>
hPxYPw==

> <OMEGA_NBR>
      5235

$$$$
CACHE3HI_1690_83
  -OEChem-03092622503D

 42 44  0     1  0  0  0  0  0999 V2000
  -47.6593  -29.1631    3.8404 C   0  0  0  0  0  0  0  0  0  0  0  0
  -44.1377  -29.1195    5.8965 C   0  0  0  0  0  0  0  0  0  0  0  0
  -46.3351  -29.1786    4.3818 C   0  0  0  0  0  0  0  0  0  0  0  0
  -48.6214  -28.9648    4.8066 C   0  0  0  0  0  0  0  0  0  0  0  0
  -45.0719  -29.3437    3.8040 C   0  0  0  0  0  0  0  0  0  0  0  0
  -46.3604  -28.9880    5.7570 C   0  0  0  0  0  0  0  0  0  0  0  0
  -44.7850  -28.4554    1.4771 C   0  0  0  0  0  0  0  0  0  0  0  0
  -44.9343  -30.8550    1.8064 C   0  0  0  0  0  0  0  0  0  0  0  0
  -44.4023  -29.1641    0.1634 C   0  0  2  0  0  0  0  0  0  0  0  0
  -45.0847  -30.5507    0.2998 C   0  0  0  0  0  0  0  0  0  0  0  0
  -46.5801  -30.4453   -0.0707 C   0  0  0  0  0  0  0  0  0  0  0  0
  -44.4568  -31.6562   -0.5555 C   0  0  0  0  0  0  0  0  0  0  0  0
  -50.7363  -30.2620    4.4477 C   0  0  0  0  0  0  0  0  0  0  0  0
  -50.0890  -28.8878    4.6408 C   0  0  0  0  0  0  0  0  0  0  0  0
  -42.8790  -29.2085    0.0084 C   0  0  0  0  0  0  0  0  0  0  0  0
  -43.9637  -29.3127    4.5747 N   0  0  0  0  0  0  0  0  0  0  0  0
  -45.2886  -28.9490    6.5716 N   0  0  0  0  0  0  0  0  0  0  0  0
  -44.9425  -29.5394    2.4445 N   0  0  3  0  0  0  0  0  0  0  0  0
  -42.3352  -27.8585   -0.0283 N   0  0  0  0  0  0  0  0  0  0  0  0
  -47.9404  -28.7968    6.3669 S   0  0  0  0  0  0  0  0  0  0  0  0
  -47.8944  -29.2913    2.7908 H   0  0  0  0  0  0  0  0  0  0  0  0
  -43.2323  -29.0986    6.4928 H   0  0  0  0  0  0  0  0  0  0  0  0
  -44.0028  -27.7654    1.8185 H   0  0  0  0  0  0  0  0  0  0  0  0
  -45.7142  -27.8856    1.3453 H   0  0  0  0  0  0  0  0  0  0  0  0
  -45.7840  -31.4416    2.1788 H   0  0  0  0  0  0  0  0  0  0  0  0
  -44.0119  -31.4028    2.0323 H   0  0  0  0  0  0  0  0  0  0  0  0
  -44.8184  -28.6228   -0.6621 H   0  0  0  0  0  0  0  0  0  0  0  0
  -46.6780  -30.2312   -1.1318 H   0  0  0  0  0  0  0  0  0  0  0  0
  -47.0417  -29.6458    0.5029 H   0  0  0  0  0  0  0  0  0  0  0  0
  -47.0787  -31.3852    0.1551 H   0  0  0  0  0  0  0  0  0  0  0  0
  -44.5809  -31.4097   -1.6043 H   0  0  0  0  0  0  0  0  0  0  0  0
  -44.9497  -32.5977   -0.3396 H   0  0  0  0  0  0  0  0  0  0  0  0
  -43.4003  -31.7335   -0.3199 H   0  0  0  0  0  0  0  0  0  0  0  0
  -50.4943  -30.9274    5.2836 H   0  0  0  0  0  0  0  0  0  0  0  0
  -50.3777  -30.7348    3.5274 H   0  0  0  0  0  0  0  0  0  0  0  0
  -51.8258  -30.1796    4.3842 H   0  0  0  0  0  0  0  0  0  0  0  0
  -50.3574  -28.2495    3.7785 H   0  0  0  0  0  0  0  0  0  0  0  0
  -50.5607  -28.3961    5.5126 H   0  0  0  0  0  0  0  0  0  0  0  0
  -42.4416  -29.7548    0.8490 H   0  0  0  0  0  0  0  0  0  0  0  0
  -42.6174  -29.7385   -0.9119 H   0  0  0  0  0  0  0  0  0  0  0  0
  -41.3218  -27.9081   -0.1077 H   0  0  0  0  0  0  0  0  0  0  0  0
  -42.5308  -27.3943    0.8563 H   0  0  0  0  0  0  0  0  0  0  0  0
  1  3  1  0  0  0  0
  1  4  2  0  0  0  0
  2 16  1  0  0  0  0
  2 17  2  0  0  0  0
  3  5  1  0  0  0  0
  3  6  2  0  0  0  0
  4 14  1  0  0  0  0
  4 20  1  0  0  0  0
  5 16  2  0  0  0  0
  5 18  1  0  0  0  0
  6 17  1  0  0  0  0
  6 20  1  0  0  0  0
  7  9  1  0  0  0  0
  7 18  1  0  0  0  0
  8 10  1  0  0  0  0
  8 18  1  0  0  0  0
  9 10  1  0  0  0  0
  9 15  1  0  0  0  0
 10 11  1  0  0  0  0
 10 12  1  0  0  0  0
 13 14  1  0  0  0  0
 15 19  1  0  0  0  0
  1 21  1  0  0  0  0
  2 22  1  0  0  0  0
  7 23  1  0  0  0  0
  7 24  1  0  0  0  0
  8 25  1  0  0  0  0
  8 26  1  0  0  0  0
  9 27  1  0  0  0  0
 11 28  1  0  0  0  0
 11 29  1  0  0  0  0
 11 30  1  0  0  0  0
 12 31  1  0  0  0  0
 12 32  1  0  0  0  0
 12 33  1  0  0  0  0
 13 34  1  0  0  0  0
 13 35  1  0  0  0  0
 13 36  1  0  0  0  0
 14 37  1  0  0  0  0
 14 38  1  0  0  0  0
 15 39  1  0  0  0  0
 15 40  1  0  0  0  0
 19 41  1  0  0  0  0
 19 42  1  0  0  0  0
M  END
> <POSIT::Probability>
0.42

> <POSIT::Method>
HYBRID

> <ReceptorTitle>
UCSF-P4280-REFINED_LIGAND-BOUND-STATE_A__DU__LA1_A-201(A)

> <OMEGA_C>
HqM+wgRO6cGmyXVADY0wwqP06MHSr7xAHVc5wt5t6cEaOIxAUnxCwtS358Gcz5lAoUk0wta/6sG0
dHNAFHE5woTn58H5OLhAyiMzwqik48FcEL0/t7wzwhjX9sGgOOc//Jsxwh9Q6cEAXyc+xlY0wuRn
9MHggpk+BlI6wv2P88GA05C9zdMxws4//cE0Nw6/AfJKwqIY8sHIU45AJVtIwh8a58HWgZRAJIQr
whar6cEASwo83tovwnCA6sH4Y5JAjic1woqX58F8StJAKsUzwr5Q7MEDcxxAQFcpwk7e3sEANei8
88I/wspf5sHEvctA6JM/wn1U6sGomzJA2u0swv3J6MEaxc9A5AIwwoMf3sGbxOg/Wts2wrYV38Eo
Mqw/ziI3wnCI+8E/cgtALgwwwu84+8EtEQJAAUYzwnf75MEggSm/QLY6wm/Z8cFc3ZC/uyo8wpgq
7cFguwA/j1A8wvIU+8FQxx4+2FIywgJH+8EwWc2/gMwzwg9kAsIQ3q2+5ZktwjXe/cHAzKO+KvpJ
wllr98HmEqlAuIJJwvHg9cFcwGFAmk1PwsNv8cGjS4xA9m1Jwur+4cGy0nFALT5Kwjor48FOZ7BA
J8QpwuAJ7sH0VVk/NHgqwono7cGgc2m/gEklwt5D38Ggjty9kB8qwoYn28EENFs/

> <OMEGA_E>
kJgUwQ==

> <OMEGA_NBR>
      6578

$$$$
CACHE3HI_1691_51
  -OEChem-03092622503D

 45 47  0     1  0  0  0  0  0999 V2000
  -45.1390  -28.7056    0.8597 C   0  0  0  0  0  0  0  0  0  0  0  0
  -43.0861  -27.4398    1.0039 C   0  0  0  0  0  0  0  0  0  0  0  0
  -45.6758  -27.7373    0.0113 C   0  0  0  0  0  0  0  0  0  0  0  0
  -43.6228  -26.4714    0.1555 C   0  0  0  0  0  0  0  0  0  0  0  0
  -45.1026  -29.0814    5.4635 C   0  0  0  0  0  0  0  0  0  0  0  0
  -46.4154  -29.0444    5.8868 C   0  0  0  0  0  0  0  0  0  0  0  0
  -43.8439  -28.5568    1.3559 C   0  0  0  0  0  0  0  0  0  0  0  0
  -44.9179  -26.6202   -0.3407 C   0  0  0  0  0  0  0  0  0  0  0  0
  -44.9154  -29.3129    4.1162 C   0  0  0  0  0  0  0  0  0  0  0  0
  -47.1599  -29.4372    3.7749 C   0  0  0  0  0  0  0  0  0  0  0  0
  -46.6407  -23.5325   -1.6227 C   0  0  0  0  0  0  0  0  0  0  0  0
  -46.7105  -24.8635   -0.8669 C   0  0  0  0  0  0  0  0  0  0  0  0
  -45.9092  -23.7978   -2.9296 C   0  0  0  0  0  0  0  0  0  0  0  0
  -41.7442  -29.7189    2.1371 C   0  0  0  0  0  0  0  0  0  0  0  0
  -48.1503  -30.4372    1.7150 C   0  0  0  0  0  0  0  0  0  0  0  0
  -43.2692  -29.5923    2.2627 C   0  0  1  0  0  0  0  0  0  0  0  0
  -47.4724  -29.2189    5.0666 N   0  0  0  0  0  0  0  0  0  0  0  0
  -45.9250  -29.4962    3.2399 N   0  0  0  0  0  0  0  0  0  0  0  0
  -45.4744  -25.6174   -1.2204 N   0  0  1  0  0  0  0  0  0  0  0  0
  -43.6156  -29.3570    3.6535 N   0  0  0  0  0  0  0  0  0  0  0  0
  -48.2416  -29.6244    2.8869 N   0  0  0  0  0  0  0  0  0  0  0  0
  -44.2804  -25.7912   -3.5246 O   0  0  0  0  0  0  0  0  0  0  0  0
  -43.5235  -24.0282   -1.8684 O   0  0  0  0  0  0  0  0  0  0  0  0
  -44.5587  -24.8553   -2.4558 S   0  0  0  0  0  0  0  0  0  0  0  0
  -45.7370  -29.5727    1.1282 H   0  0  0  0  0  0  0  0  0  0  0  0
  -42.0762  -27.3156    1.3863 H   0  0  0  0  0  0  0  0  0  0  0  0
  -46.6856  -27.8623   -0.3705 H   0  0  0  0  0  0  0  0  0  0  0  0
  -43.0243  -25.6044   -0.1118 H   0  0  0  0  0  0  0  0  0  0  0  0
  -44.2823  -28.9362    6.1553 H   0  0  0  0  0  0  0  0  0  0  0  0
  -46.6611  -28.8682    6.9286 H   0  0  0  0  0  0  0  0  0  0  0  0
  -47.6399  -23.1097   -1.7925 H   0  0  0  0  0  0  0  0  0  0  0  0
  -46.0730  -22.8028   -1.0249 H   0  0  0  0  0  0  0  0  0  0  0  0
  -46.7529  -24.6872    0.2204 H   0  0  0  0  0  0  0  0  0  0  0  0
  -47.6107  -25.4312   -1.1608 H   0  0  0  0  0  0  0  0  0  0  0  0
  -46.5409  -24.3489   -3.6241 H   0  0  0  0  0  0  0  0  0  0  0  0
  -45.5258  -22.8908   -3.3879 H   0  0  0  0  0  0  0  0  0  0  0  0
  -41.2416  -28.7690    2.3497 H   0  0  0  0  0  0  0  0  0  0  0  0
  -41.3590  -30.4679    2.8383 H   0  0  0  0  0  0  0  0  0  0  0  0
  -41.4516  -30.0197    1.1246 H   0  0  0  0  0  0  0  0  0  0  0  0
  -47.1502  -30.8707    1.6246 H   0  0  0  0  0  0  0  0  0  0  0  0
  -48.8818  -31.2489    1.7603 H   0  0  0  0  0  0  0  0  0  0  0  0
  -48.3553  -29.8384    0.8233 H   0  0  0  0  0  0  0  0  0  0  0  0
  -43.6951  -30.5846    2.0345 H   0  0  0  0  0  0  0  0  0  0  0  0
  -42.8593  -29.2201    4.3086 H   0  0  0  0  0  0  0  0  0  0  0  0
  -49.0975  -29.1552    3.1121 H   0  0  0  0  0  0  0  0  0  0  0  0
  1  3  2  0  0  0  0
  1  7  1  0  0  0  0
  2  4  1  0  0  0  0
  2  7  2  0  0  0  0
  3  8  1  0  0  0  0
  4  8  2  0  0  0  0
  5  6  2  0  0  0  0
  5  9  1  0  0  0  0
  6 17  1  0  0  0  0
  7 16  1  0  0  0  0
  8 19  1  0  0  0  0
  9 18  2  0  0  0  0
  9 20  1  0  0  0  0
 10 17  2  0  0  0  0
 10 18  1  0  0  0  0
 10 21  1  0  0  0  0
 11 12  1  0  0  0  0
 11 13  1  0  0  0  0
 12 19  1  0  0  0  0
 13 24  1  0  0  0  0
 14 16  1  0  0  0  0
 15 21  1  0  0  0  0
 16 20  1  0  0  0  0
 19 24  1  0  0  0  0
 22 24  2  0  0  0  0
 23 24  2  0  0  0  0
  1 25  1  0  0  0  0
  2 26  1  0  0  0  0
  3 27  1  0  0  0  0
  4 28  1  0  0  0  0
  5 29  1  0  0  0  0
  6 30  1  0  0  0  0
 11 31  1  0  0  0  0
 11 32  1  0  0  0  0
 12 33  1  0  0  0  0
 12 34  1  0  0  0  0
 13 35  1  0  0  0  0
 13 36  1  0  0  0  0
 14 37  1  0  0  0  0
 14 38  1  0  0  0  0
 14 39  1  0  0  0  0
 15 40  1  0  0  0  0
 15 41  1  0  0  0  0
 15 42  1  0  0  0  0
 16 43  1  0  0  0  0
 20 44  1  0  0  0  0
 21 45  1  0  0  0  0
M  END
> <POSIT::Probability>
0.24

> <POSIT::Method>
FRED

> <ReceptorTitle>
UCSF-P4280-REFINED_LIGAND-BOUND-STATE_A__DU__LA1_A-201(A)

> <OMEGA_C>
S440wiql5cHIFVw/JlgswqGE28G8f4A/+bM2wvrl3cEAyDg8x30uwnbF08GAOx8+CGk0wrim6MHm
1K5AUqk5wgNb6MHCYLxALWAvwlR05MFoja0/8aszwkX21MFwcK6+a6kzwsyA6sE0uINAtKM8wnB/
68HQl3FAGJA6wpdCvMGstc+/jdc6wmHoxsEw712//aI3wt5hvsFcfzvADfomwkDA7cF2xQhA7ZlA
wmp/88FMhts/ohMtwvG87MGAzxBAveM9wlbA6cGEIaJAObM3wlH468EKWk9AxuU1woDwzMEANZy/
ZnYuwgrb6sHE0mlAXvdAwrr+7MHGwzhAFR8xwlZUzsGUk2HAERguwrA5wMFIJu+/GjwywprXxsEg
Kx3AqPI2wtuU7MF8apA/C04owlaG2sGMcbE/Dr46wuzl3sGwsL2+3hgswszVzMGA8uS9CSExwmp9
58EV+MRAA6U6wh3y5sEGt91AT48+wsLguMH8b+W/vEo4wg5stsFkL4O/+AI7wnJ/xcHAp2E+XnE+
wg1zy8GElZS/2yk6wqXKwsHc8GfAYxo2wkggt8Hi01jAW/ckwtgm5sFgYRZAnm8lwj6+88FgpjVA
dM4lwmso8MGY8o8/wZk8wjH39sGo8s8/+IZDwtn9+cGgUeE/3GtBwhu17sGww1I/zMcuwkKt9MGu
NAJA9m8rwrzC6cEJ4IlA02NEwvE96cFsLEdA

> <OMEGA_E>
ek73wA==

> <OMEGA_NBR>
      7974

$$$$
CACHE3HI_1696_34
  -OEChem-03092622503D

 33 35  0     1  0  0  0  0  0999 V2000
  -46.9600  -29.3070    0.0096 C   0  0  0  0  0  0  0  0  0  0  0  0
  -46.8521  -29.4569   -1.4546 C   0  0  0  0  0  0  0  0  0  0  0  0
  -48.1558  -29.0584    4.5211 C   0  0  0  0  0  0  0  0  0  0  0  0
  -48.8622  -28.8110    5.6716 C   0  0  0  0  0  0  0  0  0  0  0  0
  -44.3885  -29.3843    6.2441 C   0  0  0  0  0  0  0  0  0  0  0  0
  -46.7540  -29.2805    4.9055 C   0  0  0  0  0  0  0  0  0  0  0  0
  -46.6530  -30.4760    0.6731 C   0  0  0  0  0  0  0  0  0  0  0  0
  -46.6892  -29.0769    6.2906 C   0  0  0  0  0  0  0  0  0  0  0  0
  -45.5582  -29.5671    4.2017 C   0  0  0  0  0  0  0  0  0  0  0  0
  -46.4735  -30.7278   -1.8218 C   0  0  0  0  0  0  0  0  0  0  0  0
  -46.5514  -30.6873    2.1666 C   0  0  0  0  0  0  0  0  0  0  0  0
  -44.2426  -29.5238    2.0576 C   0  0  0  0  0  0  0  0  0  0  0  0
  -43.3524  -30.7800    1.9236 C   0  0  0  0  0  0  0  0  0  0  0  0
  -45.5155  -29.1342    6.9478 N   0  0  0  0  0  0  0  0  0  0  0  0
  -44.3932  -29.5890    4.9035 N   0  0  0  0  0  0  0  0  0  0  0  0
  -47.9735  -28.8197    6.7408 N   0  0  0  0  0  0  0  0  0  0  0  0
  -45.5303  -29.7836    2.8035 N   0  0  2  0  0  0  0  0  0  0  0  0
  -42.8595  -31.2077    3.1909 O   0  0  0  0  0  0  0  0  0  0  0  0
  -46.2551  -31.7511   -0.4370 S   0  0  0  0  0  0  0  0  0  0  0  0
  -46.2051  -31.3322   -3.6093 Br  0  0  0  0  0  0  0  0  0  0  0  0
  -47.2458  -28.3898    0.5032 H   0  0  0  0  0  0  0  0  0  0  0  0
  -47.0478  -28.6604   -2.1572 H   0  0  0  0  0  0  0  0  0  0  0  0
  -48.5558  -29.0849    3.5183 H   0  0  0  0  0  0  0  0  0  0  0  0
  -49.9265  -28.6391    5.7354 H   0  0  0  0  0  0  0  0  0  0  0  0
  -43.4464  -29.4226    6.7709 H   0  0  0  0  0  0  0  0  0  0  0  0
  -47.5333  -30.4863    2.6198 H   0  0  0  0  0  0  0  0  0  0  0  0
  -46.2666  -31.7325    2.3573 H   0  0  0  0  0  0  0  0  0  0  0  0
  -43.6764  -28.7499    2.5965 H   0  0  0  0  0  0  0  0  0  0  0  0
  -44.4900  -29.1614    1.0488 H   0  0  0  0  0  0  0  0  0  0  0  0
  -43.9451  -31.5924    1.4778 H   0  0  0  0  0  0  0  0  0  0  0  0
  -42.5000  -30.5461    1.2689 H   0  0  0  0  0  0  0  0  0  0  0  0
  -48.2250  -28.6630    7.6959 H   0  0  0  0  0  0  0  0  0  0  0  0
  -42.3174  -31.9794    3.0763 H   0  0  0  0  0  0  0  0  0  0  0  0
  1  2  1  0  0  0  0
  1  7  2  0  0  0  0
  2 10  2  0  0  0  0
  3  4  2  0  0  0  0
  3  6  1  0  0  0  0
  4 16  1  0  0  0  0
  5 14  2  0  0  0  0
  5 15  1  0  0  0  0
  6  8  2  0  0  0  0
  6  9  1  0  0  0  0
  7 11  1  0  0  0  0
  7 19  1  0  0  0  0
  8 14  1  0  0  0  0
  8 16  1  0  0  0  0
  9 15  2  0  0  0  0
  9 17  1  0  0  0  0
 10 19  1  0  0  0  0
 10 20  1  0  0  0  0
 11 17  1  0  0  0  0
 12 13  1  0  0  0  0
 12 17  1  0  0  0  0
 13 18  1  0  0  0  0
  1 21  1  0  0  0  0
  2 22  1  0  0  0  0
  3 23  1  0  0  0  0
  4 24  1  0  0  0  0
  5 25  1  0  0  0  0
 11 26  1  0  0  0  0
 11 27  1  0  0  0  0
 12 28  1  0  0  0  0
 12 29  1  0  0  0  0
 13 30  1  0  0  0  0
 13 31  1  0  0  0  0
 16 32  1  0  0  0  0
 18 33  1  0  0  0  0
M  END
> <POSIT::Probability>
0.72

> <POSIT::Method>
SHAPEFIT

> <ReceptorTitle>
UCSF-P4280-REFINED_LIGAND-BOUND-STATE_A__DU__LA1_A-201(A)

> <OMEGA_C>
Fdc7wqR06sHAqh08j2g7wran68HYLrq/iJ9AwoR36MEorZBA6XJDwvp85sHIfbVAz40xwvUS68EQ
0MdAIgQ7woA+6sE++pxArZw6wsLO88GOUSw/wME6wpOd6MGiTMlAozs2wmWJ7ME6dIZA4+Q5wprS
9cFXMem/pDQ6wpp/9cHIqApAbvgwwrow7MH/rgNA32gtwn499sHWOfY/4A82wsoS6cE0VN5Ao5Ix
wja27MEq6ZxA3+Q/wrmO5sGatNdAAB82wulE7sE8bTNAKnArwlyp+cGzN0xAQQU5wkgC/sFRwd++
DNI4wmyo+sHw/mbAs/s8wlIe48E9zwA/9zA8wpJI5cEgEArAJDlCwuWt6MHKK2FAw7RHwswc5cG3
iLdAKMktwmZh68Fhq9hAHiI+wtzj88HMqidABxE5wkPc/cE/3RZAnrQuwtL/5cGpLSZAuvUxwqZK
6cExQIY/zMcvwjq9/MEbKb0/BwAqwmte9MF9aqI/ZOZAwspN5cG0RPZAA0UpwrfV/8Fn4kRA

> <OMEGA_E>
/IE6Pw==

> <OMEGA_NBR>
      9157

$$$$
CACHE3HI_1696_37
  -OEChem-03092622503D

 37 38  0     1  0  0  0  0  0999 V2000
  -44.3212  -29.2384    6.1888 C   0  0  0  0  0  0  0  0  0  0  0  0
  -46.4375  -29.1185    4.5402 C   0  0  0  0  0  0  0  0  0  0  0  0
  -45.1581  -29.3498    4.0778 C   0  0  0  0  0  0  0  0  0  0  0  0
  -46.5588  -28.9527    5.9046 C   0  0  0  0  0  0  0  0  0  0  0  0
  -44.0787  -28.6273    1.9617 C   0  0  0  0  0  0  0  0  0  0  0  0
  -45.6131  -30.6137    1.9894 C   0  0  0  0  0  0  0  0  0  0  0  0
  -43.5265  -29.3004    0.6931 C   0  0  0  0  0  0  0  0  0  0  0  0
  -45.7590  -30.2930    0.4917 C   0  0  1  0  0  0  0  0  0  0  0  0
  -42.4815  -30.3771    1.0245 C   0  0  0  0  0  0  0  0  0  0  0  0
  -42.8490  -28.2336   -0.1808 C   0  0  0  0  0  0  0  0  0  0  0  0
  -46.1988  -31.5655   -0.2484 C   0  0  0  0  0  0  0  0  0  0  0  0
  -46.8160  -29.2068    0.2390 C   0  0  0  0  0  0  0  0  0  0  0  0
  -44.0730  -29.4163    4.8770 N   0  0  0  0  0  0  0  0  0  0  0  0
  -45.5181  -29.0069    6.7618 N   0  0  0  0  0  0  0  0  0  0  0  0
  -44.9544  -29.5263    2.7106 N   0  0  3  0  0  0  0  0  0  0  0  0
  -47.8405  -28.7102    6.4570 N   0  0  0  0  0  0  0  0  0  0  0  0
  -44.5369  -29.8882   -0.1291 O   0  0  0  0  0  0  0  0  0  0  0  0
  -46.4668  -28.0815    0.8741 F   0  0  0  0  0  0  0  0  0  0  0  0
  -48.0047  -29.6203    0.6943 F   0  0  0  0  0  0  0  0  0  0  0  0
  -46.9063  -28.9627   -1.0739 F   0  0  0  0  0  0  0  0  0  0  0  0
  -47.7971  -29.0418    3.4812 Cl  0  0  0  0  0  0  0  0  0  0  0  0
  -43.4686  -29.2905    6.8547 H   0  0  0  0  0  0  0  0  0  0  0  0
  -43.2604  -28.3219    2.6242 H   0  0  0  0  0  0  0  0  0  0  0  0
  -44.6148  -27.7087    1.6872 H   0  0  0  0  0  0  0  0  0  0  0  0
  -46.5978  -30.7817    2.4419 H   0  0  0  0  0  0  0  0  0  0  0  0
  -45.0453  -31.5450    2.1155 H   0  0  0  0  0  0  0  0  0  0  0  0
  -42.1204  -30.8239    0.1034 H   0  0  0  0  0  0  0  0  0  0  0  0
  -42.9371  -31.1418    1.6458 H   0  0  0  0  0  0  0  0  0  0  0  0
  -41.6517  -29.9221    1.5578 H   0  0  0  0  0  0  0  0  0  0  0  0
  -42.4561  -28.7000   -1.0789 H   0  0  0  0  0  0  0  0  0  0  0  0
  -42.0376  -27.7744    0.3755 H   0  0  0  0  0  0  0  0  0  0  0  0
  -43.5774  -27.4752   -0.4537 H   0  0  0  0  0  0  0  0  0  0  0  0
  -46.3044  -31.3483   -1.3068 H   0  0  0  0  0  0  0  0  0  0  0  0
  -47.1503  -31.9034    0.1504 H   0  0  0  0  0  0  0  0  0  0  0  0
  -45.4504  -32.3405   -0.1090 H   0  0  0  0  0  0  0  0  0  0  0  0
  -48.6187  -28.6122    5.8418 H   0  0  0  0  0  0  0  0  0  0  0  0
  -47.9180  -28.5382    7.4358 H   0  0  0  0  0  0  0  0  0  0  0  0
  1 13  1  0  0  0  0
  1 14  2  0  0  0  0
  2  3  1  0  0  0  0
  2  4  2  0  0  0  0
  2 21  1  0  0  0  0
  3 13  2  0  0  0  0
  3 15  1  0  0  0  0
  4 14  1  0  0  0  0
  4 16  1  0  0  0  0
  5  7  1  0  0  0  0
  5 15  1  0  0  0  0
  6  8  1  0  0  0  0
  6 15  1  0  0  0  0
  7  9  1  0  0  0  0
  7 10  1  0  0  0  0
  7 17  1  0  0  0  0
  8 11  1  0  0  0  0
  8 12  1  0  0  0  0
  8 17  1  0  0  0  0
 12 18  1  0  0  0  0
 12 19  1  0  0  0  0
 12 20  1  0  0  0  0
  1 22  1  0  0  0  0
  5 23  1  0  0  0  0
  5 24  1  0  0  0  0
  6 25  1  0  0  0  0
  6 26  1  0  0  0  0
  9 27  1  0  0  0  0
  9 28  1  0  0  0  0
  9 29  1  0  0  0  0
 10 30  1  0  0  0  0
 10 31  1  0  0  0  0
 10 32  1  0  0  0  0
 11 33  1  0  0  0  0
 11 34  1  0  0  0  0
 11 35  1  0  0  0  0
 16 36  1  0  0  0  0
 16 37  1  0  0  0  0
M  END
> <POSIT::Probability>
0.42

> <POSIT::Method>
HYBRID

> <ReceptorTitle>
UCSF-P4280-REFINED_LIGAND-BOUND-STATE_A__DU__LA1_A-201(A)

> <OMEGA_C>
7EgxwkTo6cFTCsZA8785wrDy6MGvSZFA7KE0wl/M6sG6fYJAQjw6wgqf58Fy8rxAilAwwqAE5cGU
GPs/znM2ws7o9MGkpf4/GhsuwkJn6sHwbjE/Qgk3wv5X8sEAu/s+Du0pwlAE88GMIYM/X2Urwl/e
4cHQGjm+lcs4wiCG/MEAX36+nkM7wnCn6cEgxnQ+y0owwopU68G8EJxAjhI2wioO6MHMYNhAVtEz
wvE17MGEei1Ar1w/wnGu5cF6n85A1CUywvsa78EAPgS++t05wvGm4MEYw18/3ARAwkz27MEQwDE/
A6A7wpCz58GSdIm/NjA/woZV6MESzF5A2d8twuNS6sFXWdtAogotwkmT4sGk8idAj3Uywnir3cGk
9Nc/HmQ6wupA9sEkSBxAVy40whRc/MHuYwdASXsowmiX9sHAy9M9lb8rwoIi+cGYqNI/UZsmwmBg
78H0Zcc/CtMpwoqZ5cGEGIq/jSYowggy3sFAQsA+QE8uwiTN28GoSei+rDc5wlbJ+sFgRKe/5pk8
whg6/8FA+Rk+Ps01wrZcAcJAUN+9jHlCwrDl5MEW8LpAFKw/wkZO5MGz8e1A

> <OMEGA_E>
CDgDwQ==

> <OMEGA_NBR>
     10400

$$$$
CACHE3HI_1696_39
  -OEChem-03092622503D

 42 45  0     1  0  0  0  0  0999 V2000
  -44.4020  -29.2568    5.7632 C   0  0  0  0  0  0  0  0  0  0  0  0
  -46.7718  -29.2329    4.5359 C   0  0  0  0  0  0  0  0  0  0  0  0
  -48.1412  -29.1382    4.1955 C   0  0  0  0  0  0  0  0  0  0  0  0
  -48.9266  -28.8065    5.2652 C   0  0  0  0  0  0  0  0  0  0  0  0
  -45.6106  -29.5340    3.8207 C   0  0  0  0  0  0  0  0  0  0  0  0
  -46.6076  -28.9548    5.8956 C   0  0  0  0  0  0  0  0  0  0  0  0
  -48.9556  -29.3100    2.9669 C   0  0  0  0  0  0  0  0  0  0  0  0
  -50.3700  -28.7001    4.9455 C   0  0  0  0  0  0  0  0  0  0  0  0
  -50.3238  -28.6845    3.3861 C   0  0  0  0  0  0  0  0  0  0  0  0
  -46.1769  -28.8988    1.4623 C   0  0  0  0  0  0  0  0  0  0  0  0
  -45.2385  -31.0951    1.8924 C   0  0  0  0  0  0  0  0  0  0  0  0
  -46.3036  -29.7544    0.1869 C   0  0  1  0  0  0  0  0  0  0  0  0
  -45.1990  -30.8279    0.3719 C   0  0  1  0  0  0  0  0  0  0  0  0
  -47.7257  -30.3090    0.0589 C   0  0  0  0  0  0  0  0  0  0  0  0
  -43.8242  -30.2491   -0.0270 C   0  0  0  0  0  0  0  0  0  0  0  0
  -45.4246  -32.1171   -0.4247 C   0  0  0  0  0  0  0  0  0  0  0  0
  -44.4144  -29.5442    4.4462 N   0  0  0  0  0  0  0  0  0  0  0  0
  -45.4384  -28.9518    6.5651 N   0  0  0  0  0  0  0  0  0  0  0  0
  -45.6676  -29.8234    2.4730 N   0  0  3  0  0  0  0  0  0  0  0  0
  -45.3856  -31.7941   -1.7985 O   0  0  0  0  0  0  0  0  0  0  0  0
  -48.0887  -28.5970    6.6956 S   0  0  0  0  0  0  0  0  0  0  0  0
  -43.4275  -29.2746    6.2387 H   0  0  0  0  0  0  0  0  0  0  0  0
  -48.5362  -28.7920    2.1002 H   0  0  0  0  0  0  0  0  0  0  0  0
  -49.0773  -30.3727    2.7325 H   0  0  0  0  0  0  0  0  0  0  0  0
  -50.9143  -29.5796    5.3046 H   0  0  0  0  0  0  0  0  0  0  0  0
  -50.8362  -27.7922    5.3376 H   0  0  0  0  0  0  0  0  0  0  0  0
  -50.3601  -27.6433    3.0389 H   0  0  0  0  0  0  0  0  0  0  0  0
  -51.1738  -29.2097    2.9394 H   0  0  0  0  0  0  0  0  0  0  0  0
  -45.4893  -28.0601    1.2912 H   0  0  0  0  0  0  0  0  0  0  0  0
  -47.1435  -28.4922    1.7862 H   0  0  0  0  0  0  0  0  0  0  0  0
  -45.9263  -31.9074    2.1553 H   0  0  0  0  0  0  0  0  0  0  0  0
  -44.2422  -31.3487    2.2769 H   0  0  0  0  0  0  0  0  0  0  0  0
  -46.0918  -29.1442   -0.6676 H   0  0  0  0  0  0  0  0  0  0  0  0
  -47.9625  -30.9344    0.9201 H   0  0  0  0  0  0  0  0  0  0  0  0
  -47.8132  -30.9090   -0.8474 H   0  0  0  0  0  0  0  0  0  0  0  0
  -48.4445  -29.4896    0.0098 H   0  0  0  0  0  0  0  0  0  0  0  0
  -43.8040  -30.0638   -1.0978 H   0  0  0  0  0  0  0  0  0  0  0  0
  -43.0418  -30.9580    0.2313 H   0  0  0  0  0  0  0  0  0  0  0  0
  -43.6539  -29.3152    0.5039 H   0  0  0  0  0  0  0  0  0  0  0  0
  -46.3949  -32.5306   -0.1697 H   0  0  0  0  0  0  0  0  0  0  0  0
  -44.6368  -32.8263   -0.1898 H   0  0  0  0  0  0  0  0  0  0  0  0
  -45.5299  -32.6195   -2.2941 H   0  0  0  0  0  0  0  0  0  0  0  0
  1 17  1  0  0  0  0
  1 18  2  0  0  0  0
  2  3  1  0  0  0  0
  2  5  1  0  0  0  0
  2  6  2  0  0  0  0
  3  4  2  0  0  0  0
  3  7  1  0  0  0  0
  4  8  1  0  0  0  0
  4 21  1  0  0  0  0
  5 17  2  0  0  0  0
  5 19  1  0  0  0  0
  6 18  1  0  0  0  0
  6 21  1  0  0  0  0
  7  9  1  0  0  0  0
  8  9  1  0  0  0  0
 10 12  1  0  0  0  0
 10 19  1  0  0  0  0
 11 13  1  0  0  0  0
 11 19  1  0  0  0  0
 12 13  1  0  0  0  0
 12 14  1  0  0  0  0
 13 15  1  0  0  0  0
 13 16  1  0  0  0  0
 16 20  1  0  0  0  0
  1 22  1  0  0  0  0
  7 23  1  0  0  0  0
  7 24  1  0  0  0  0
  8 25  1  0  0  0  0
  8 26  1  0  0  0  0
  9 27  1  0  0  0  0
  9 28  1  0  0  0  0
 10 29  1  0  0  0  0
 10 30  1  0  0  0  0
 11 31  1  0  0  0  0
 11 32  1  0  0  0  0
 12 33  1  0  0  0  0
 14 34  1  0  0  0  0
 14 35  1  0  0  0  0
 14 36  1  0  0  0  0
 15 37  1  0  0  0  0
 15 38  1  0  0  0  0
 15 39  1  0  0  0  0
 16 40  1  0  0  0  0
 16 41  1  0  0  0  0
 20 42  1  0  0  0  0
M  END
> <POSIT::Probability>
0.42

> <POSIT::Method>
HYBRID

> <ReceptorTitle>
UCSF-P4280-REFINED_LIGAND-BOUND-STATE_A__DU__LA1_A-201(A)

> <OMEGA_C>
nJsxwugN6sE4bLhAUxY7wvzc6cECJpFAmJBAwgIb6cGOQYZAzbRDwsBz5sEsfKhASHE2wpBF7MG/
hnRALW46wnGj58EOqbxAi9JDwsx66sEe4T1A1npJwrSZ5cGUQZ5Aj0tJwuF55cGytVhAHbU4wtYw
58HbLbs/O/Q0wtLC+MF4O/I/3jY5wvYI7sEgbj8+xss0wpaf9sHIbL4+H+c+wux48sFAE3E9+0sv
wij+8cEAIN28wbI1wu13AMKIc9m+Vqgxwoxa7MFGR45A98A1wmKd58H0FNJAl6s2wkyW7sFPRh5A
3Io1wkta/sHwNOa/y1pAwqbG5MFeQtZAxbUtwmQy6sGmo8dAGSVCwhZW5sFKaQZAMk9Ewl778sHf
4C5ARahLwhqj7MHgvqlAQ1hLwodW3sGSzapAwXBJwoYl3cHlfEJA+rFMwmqt6cGBHzxABvU1whp7
4MFsR6U/75I8whzw48HyoeQ/frQ3wlJC/8EU8QlACvgwwizK+sHsuBFAAF44wlgn6cFE6Cq/mtk/
wpB598F0ims/skA/wo9F98Eo71i/KsdBwrLq68EAViA8QTcvwpSC8MHMg4y/2Coswg+q98EQ1Gw+
k50uwneF6sFAAAE/VpQ5wkofAsKQwS2+EowywhVOA8LwU0K+lR42wmR6AsI10hLA

> <OMEGA_E>
k5wHwQ==

> <OMEGA_NBR>
     11752

$$$$
CACHE3HI_1696_52
  -OEChem-03092622503D

 38 40  0     1  0  0  0  0  0999 V2000
  -44.3459  -29.3861    6.0175 C   0  0  0  0  0  0  0  0  0  0  0  0
  -46.6484  -29.0448    4.6787 C   0  0  0  0  0  0  0  0  0  0  0  0
  -45.5018  -29.5038    4.0633 C   0  0  0  0  0  0  0  0  0  0  0  0
  -46.5351  -28.7724    6.0265 C   0  0  0  0  0  0  0  0  0  0  0  0
  -46.5003  -30.8604    0.6849 C   0  0  0  0  0  0  0  0  0  0  0  0
  -45.1883  -31.6395    0.6831 C   0  0  0  0  0  0  0  0  0  0  0  0
  -42.9277  -31.5531    1.8059 C   0  0  0  0  0  0  0  0  0  0  0  0
  -43.2943  -30.2816   -0.3178 C   0  0  0  0  0  0  0  0  0  0  0  0
  -46.7711  -30.2713    2.0719 C   0  0  0  0  0  0  0  0  0  0  0  0
  -44.4267  -29.4699    1.7999 C   0  0  0  0  0  0  0  0  0  0  0  0
  -41.5672  -30.8673    1.9031 C   0  0  0  0  0  0  0  0  0  0  0  0
  -41.9353  -29.6317   -0.0823 C   0  0  0  0  0  0  0  0  0  0  0  0
  -43.9670  -30.7290    1.0060 C   0  0  0  0  0  0  0  0  0  0  0  0
  -44.3290  -29.6868    4.7048 N   0  0  0  0  0  0  0  0  0  0  0  0
  -45.3950  -28.9326    6.7304 N   0  0  0  0  0  0  0  0  0  0  0  0
  -45.5318  -29.8024    2.7038 N   0  0  3  0  0  0  0  0  0  0  0  0
  -47.6656  -28.2978    6.7348 N   0  0  0  0  0  0  0  0  0  0  0  0
  -41.0696  -30.5276    0.6112 O   0  0  0  0  0  0  0  0  0  0  0  0
  -48.2754  -28.8033    3.7330 Br  0  0  0  0  0  0  0  0  0  0  0  0
  -43.4180  -29.5262    6.5584 H   0  0  0  0  0  0  0  0  0  0  0  0
  -46.4669  -30.0621   -0.0526 H   0  0  0  0  0  0  0  0  0  0  0  0
  -47.3184  -31.5227    0.4099 H   0  0  0  0  0  0  0  0  0  0  0  0
  -45.2548  -32.4297    1.4377 H   0  0  0  0  0  0  0  0  0  0  0  0
  -45.0731  -32.1377   -0.2804 H   0  0  0  0  0  0  0  0  0  0  0  0
  -42.8068  -32.5565    1.3735 H   0  0  0  0  0  0  0  0  0  0  0  0
  -43.3066  -31.6975    2.8296 H   0  0  0  0  0  0  0  0  0  0  0  0
  -43.9405  -29.5368   -0.8003 H   0  0  0  0  0  0  0  0  0  0  0  0
  -43.1900  -31.1097   -1.0244 H   0  0  0  0  0  0  0  0  0  0  0  0
  -47.4869  -29.4434    1.9679 H   0  0  0  0  0  0  0  0  0  0  0  0
  -47.2455  -31.0329    2.7082 H   0  0  0  0  0  0  0  0  0  0  0  0
  -43.5874  -29.0687    2.3805 H   0  0  0  0  0  0  0  0  0  0  0  0
  -44.7350  -28.6899    1.0941 H   0  0  0  0  0  0  0  0  0  0  0  0
  -41.6664  -29.9366    2.4734 H   0  0  0  0  0  0  0  0  0  0  0  0
  -40.8315  -31.4882    2.4285 H   0  0  0  0  0  0  0  0  0  0  0  0
  -41.4638  -29.3117   -1.0156 H   0  0  0  0  0  0  0  0  0  0  0  0
  -42.0576  -28.7432    0.5430 H   0  0  0  0  0  0  0  0  0  0  0  0
  -48.5084  -28.1194    6.2327 H   0  0  0  0  0  0  0  0  0  0  0  0
  -47.5640  -28.0525    7.6959 H   0  0  0  0  0  0  0  0  0  0  0  0
  1 14  2  0  0  0  0
  1 15  1  0  0  0  0
  2  3  2  0  0  0  0
  2  4  1  0  0  0  0
  2 19  1  0  0  0  0
  3 14  1  0  0  0  0
  3 16  1  0  0  0  0
  4 15  2  0  0  0  0
  4 17  1  0  0  0  0
  5  6  1  0  0  0  0
  5  9  1  0  0  0  0
  6 13  1  0  0  0  0
  7 11  1  0  0  0  0
  7 13  1  0  0  0  0
  8 12  1  0  0  0  0
  8 13  1  0  0  0  0
  9 16  1  0  0  0  0
 10 13  1  0  0  0  0
 10 16  1  0  0  0  0
 11 18  1  0  0  0  0
 12 18  1  0  0  0  0
  1 20  1  0  0  0  0
  5 21  1  0  0  0  0
  5 22  1  0  0  0  0
  6 23  1  0  0  0  0
  6 24  1  0  0  0  0
  7 25  1  0  0  0  0
  7 26  1  0  0  0  0
  8 27  1  0  0  0  0
  8 28  1  0  0  0  0
  9 29  1  0  0  0  0
  9 30  1  0  0  0  0
 10 31  1  0  0  0  0
 10 32  1  0  0  0  0
 11 33  1  0  0  0  0
 11 34  1  0  0  0  0
 12 35  1  0  0  0  0
 12 36  1  0  0  0  0
 17 37  1  0  0  0  0
 17 38  1  0  0  0  0
M  END
> <POSIT::Probability>
0.5

> <POSIT::Method>
HYBRID

> <ReceptorTitle>
UCSF-P4280-REFINED_LIGAND-BOUND-STATE_A__DU__LA1_A-201(A)

> <OMEGA_C>
KWIxwsQW68E7j8BA85c6wsdb6MECuJVA3gE2wsUH7MHaBoJA7CM6wust5sF52cBAVgA6wg/i9sE8
WC8/xcA0wrsd/cFk3C4/ArYrwtJs/MHXJ+c/Xi0twrxA8sFwsKK+mBU7wq4r8sG0mgRA7bQxwnLC
68EaY+Y/0EQmwj3w9sHSmPM/wL0nwroN7cEAjqi9MN4vwgzV9cH6w4A/21Axwn5+7cGsjZZAdZQ1
wuF158FEX9dAlCA2wkxr7sHsCi1AmKk+wtdh4sFgg9dASUckwoc49MF8dRw/CBpBwiBt5sHK6W5A
CKwtwro17MFQ3tFAG945wiF/8MHAT1e9DkY9wnIu/MEg39E+5gQ1wge4AcJEBrg/1ko0wgeNAMIA
j4++HzorwuY5AsIAzq8/ATotwn6U/cHKFzVABsMvwnRL7MGE4ky/k8Iswr7g+MF8IIO/l/I9whqM
68EO5Ps/aPs8wklD+MHzUy1AhVkuwrqM6MFQWhhAsPAywtOE5cFdC4w/Y6omwip+78GrTB5AcFMj
wr7n+8GbbBtA7dolwk9+6sGk/oG/+Toowify5cGoAws/mghCwpj04MGWcsdAkUE+woxr4MGGRPZA

> <OMEGA_E>
5q0UwQ==

> <OMEGA_NBR>
     13012

$$$$
CACHE3HI_1696_54
  -OEChem-03092622503D

 41 44  0     1  0  0  0  0  0999 V2000
  -43.8112  -29.2810    6.0275 C   0  0  0  0  0  0  0  0  0  0  0  0
  -45.9165  -28.9876    4.3684 C   0  0  0  0  0  0  0  0  0  0  0  0
  -46.0575  -28.9019    5.7495 C   0  0  0  0  0  0  0  0  0  0  0  0
  -44.6249  -29.2200    3.9138 C   0  0  0  0  0  0  0  0  0  0  0  0
  -47.3852  -28.6822    6.4195 C   0  0  0  0  0  0  0  0  0  0  0  0
  -48.4238  -27.9885    5.5444 C   0  0  0  0  0  0  0  0  0  0  0  0
  -42.6775  -30.8904   -0.8293 C   0  0  0  0  0  0  0  0  0  0  0  0
  -42.2853  -29.4588   -0.4502 C   0  0  0  0  0  0  0  0  0  0  0  0
  -43.8050  -31.2754    0.1189 C   0  0  0  0  0  0  0  0  0  0  0  0
  -43.1183  -28.9218    1.9253 C   0  0  0  0  0  0  0  0  0  0  0  0
  -45.3469  -29.8383    1.5949 C   0  0  0  0  0  0  0  0  0  0  0  0
  -48.6840  -28.7712    4.2680 C   0  0  0  0  0  0  0  0  0  0  0  0
  -43.4360  -28.9098    0.4114 C   0  0  2  0  0  0  0  0  0  0  0  0
  -44.5491  -29.9588    0.3060 C   0  0  1  0  0  0  0  0  0  0  0  0
  -43.8763  -27.5149   -0.0390 C   0  0  0  0  0  0  0  0  0  0  0  0
  -45.0089  -29.0564    6.5960 N   0  0  0  0  0  0  0  0  0  0  0  0
  -43.5500  -29.3725    4.7141 N   0  0  0  0  0  0  0  0  0  0  0  0
  -44.3843  -29.3049    2.5579 N   0  0  3  0  0  0  0  0  0  0  0  0
  -42.7727  -26.6369    0.0799 O   0  0  0  0  0  0  0  0  0  0  0  0
  -45.3290  -29.7367   -0.7763 F   0  0  0  0  0  0  0  0  0  0  0  0
  -47.2231  -28.7902    3.1861 S   0  0  0  0  0  0  0  0  0  0  0  0
  -42.9705  -29.4007    6.6995 H   0  0  0  0  0  0  0  0  0  0  0  0
  -47.7894  -29.6505    6.7394 H   0  0  0  0  0  0  0  0  0  0  0  0
  -47.2137  -28.0892    7.3267 H   0  0  0  0  0  0  0  0  0  0  0  0
  -49.3575  -27.8377    6.1016 H   0  0  0  0  0  0  0  0  0  0  0  0
  -48.0510  -26.9912    5.2813 H   0  0  0  0  0  0  0  0  0  0  0  0
  -43.0232  -30.9321   -1.8647 H   0  0  0  0  0  0  0  0  0  0  0  0
  -41.8230  -31.5630   -0.7354 H   0  0  0  0  0  0  0  0  0  0  0  0
  -41.3378  -29.4824    0.1110 H   0  0  0  0  0  0  0  0  0  0  0  0
  -42.0952  -28.8444   -1.3427 H   0  0  0  0  0  0  0  0  0  0  0  0
  -44.4537  -32.0129   -0.3422 H   0  0  0  0  0  0  0  0  0  0  0  0
  -43.4369  -31.6769    1.0547 H   0  0  0  0  0  0  0  0  0  0  0  0
  -42.3176  -29.6295    2.1582 H   0  0  0  0  0  0  0  0  0  0  0  0
  -42.8282  -27.9283    2.2799 H   0  0  0  0  0  0  0  0  0  0  0  0
  -46.1954  -29.1535    1.4716 H   0  0  0  0  0  0  0  0  0  0  0  0
  -45.7214  -30.8061    1.9540 H   0  0  0  0  0  0  0  0  0  0  0  0
  -48.9374  -29.8078    4.5097 H   0  0  0  0  0  0  0  0  0  0  0  0
  -49.5277  -28.3438    3.7160 H   0  0  0  0  0  0  0  0  0  0  0  0
  -44.6895  -27.1624    0.5934 H   0  0  0  0  0  0  0  0  0  0  0  0
  -44.2025  -27.5478   -1.0778 H   0  0  0  0  0  0  0  0  0  0  0  0
  -43.0733  -25.7588   -0.2105 H   0  0  0  0  0  0  0  0  0  0  0  0
  1 16  1  0  0  0  0
  1 17  2  0  0  0  0
  2  3  1  0  0  0  0
  2  4  2  0  0  0  0
  2 21  1  0  0  0  0
  3  5  1  0  0  0  0
  3 16  2  0  0  0  0
  4 17  1  0  0  0  0
  4 18  1  0  0  0  0
  5  6  1  0  0  0  0
  6 12  1  0  0  0  0
  7  8  1  0  0  0  0
  7  9  1  0  0  0  0
  8 13  1  0  0  0  0
  9 14  1  0  0  0  0
 10 13  1  0  0  0  0
 10 18  1  0  0  0  0
 11 14  1  0  0  0  0
 11 18  1  0  0  0  0
 12 21  1  0  0  0  0
 13 14  1  0  0  0  0
 13 15  1  0  0  0  0
 14 20  1  0  0  0  0
 15 19  1  0  0  0  0
  1 22  1  0  0  0  0
  5 23  1  0  0  0  0
  5 24  1  0  0  0  0
  6 25  1  0  0  0  0
  6 26  1  0  0  0  0
  7 27  1  0  0  0  0
  7 28  1  0  0  0  0
  8 29  1  0  0  0  0
  8 30  1  0  0  0  0
  9 31  1  0  0  0  0
  9 32  1  0  0  0  0
 10 33  1  0  0  0  0
 10 34  1  0  0  0  0
 11 35  1  0  0  0  0
 11 36  1  0  0  0  0
 12 37  1  0  0  0  0
 12 38  1  0  0  0  0
 15 39  1  0  0  0  0
 15 40  1  0  0  0  0
 19 41  1  0  0  0  0
M  END
> <POSIT::Probability>
0.33

> <POSIT::Method>
HYBRID

> <ReceptorTitle>
UCSF-P4280-REFINED_LIGAND-BOUND-STATE_A__DU__LA1_A-201(A)

> <OMEGA_C>
rz4vwnM/6sEk4cBAhKo3wq3m58HCyYtA7jo4wjE358GQ+7dA538yworC6cEgfHpAfoo9whp15cE6
bM1A/bFBwl3o38Gia7FAxrUqwnwf98EITlS/MSQpwpOr68EAh+a+XDgvwgc0+sGAj/M9LXkswvJf
58HYcPY/O2M1wuC07sEYJ8w/Z7xCwlsr5sE8k4hAar4twklH58HAotI+UDIywrar78FAqJw+UIEv
wnge3MEAmx+9Egk0wn9z6MFeEtNAOzMuwvr66sG+2ZZAeYkxwnFw6sE8tSNAPhcrwmUY1cEAiqM9
7lA1wtPk7cGYu0a/c+Q8wlhS5sE06UtAv+Erwog068EaYtZATig/wkk07cE4qddAzNo8wq624MEE
dOpAGG5FwrKz3sEQQMNAMTRAwgnu18FMAKlAtxcswgN198H0re6/xEonwiCB/MGIQDy/7FklwgHc
68EATOM9c2EowkvB5sGQ3Ku/n9Axwi4NAMKANa++Yb8twkJq/cEAAYc/NEUpwiUJ7cEsHwpAEVAr
whht38EU6hFAEcg4wkw66cF4XLw/rOI2wtVy9sFYG/o/3L9Dwmx27sF6T5BAVRxGwgzA4sGw0m1A
CMIywqpM2cEA6hc/UM8wwt9h3MFU9Ym/FUsswvoRzsFgiVe+

> <OMEGA_E>
PekMwQ==

> <OMEGA_NBR>
     14338

$$$$
CACHE3HI_1696_57
  -OEChem-03092622503D

 35 37  0     1  0  0  0  0  0999 V2000
  -48.1239  -28.8699    5.3381 C   0  0  0  0  0  0  0  0  0  0  0  0
  -46.8739  -29.6540    3.0709 C   0  0  0  0  0  0  0  0  0  0  0  0
  -48.2017  -29.4031    3.0963 C   0  0  0  0  0  0  0  0  0  0  0  0
  -46.2138  -30.0907    1.7824 C   0  0  0  0  0  0  0  0  0  0  0  0
  -46.6525  -29.1265    5.3968 C   0  0  0  0  0  0  0  0  0  0  0  0
  -42.7718  -31.1895    2.3402 C   0  0  0  0  0  0  0  0  0  0  0  0
  -44.1402  -30.8297    2.9044 C   0  0  0  0  0  0  0  0  0  0  0  0
  -44.0462  -30.1616    0.5903 C   0  0  0  0  0  0  0  0  0  0  0  0
  -48.3166  -29.9713    0.6821 C   0  0  0  0  0  0  0  0  0  0  0  0
  -42.6085  -30.2541    1.1241 C   0  0  1  0  0  0  0  0  0  0  0  0
  -42.1008  -28.8709    1.5595 C   0  0  0  0  0  0  0  0  0  0  0  0
  -41.6538  -30.8441    0.0854 C   0  0  0  0  0  0  0  0  0  0  0  0
  -48.8300  -29.0024    4.2642 N   0  0  0  0  0  0  0  0  0  0  0  0
  -46.8761  -30.2402    0.6695 N   0  0  0  0  0  0  0  0  0  0  0  0
  -46.1101  -29.5188    4.1996 N   0  0  0  0  0  0  0  0  0  0  0  0
  -48.9153  -29.5574    1.9254 N   0  0  0  0  0  0  0  0  0  0  0  0
  -44.8879  -30.3408    1.7619 N   0  0  0  0  0  0  0  0  0  0  0  0
  -46.0761  -28.9728    6.4615 O   0  0  0  0  0  0  0  0  0  0  0  0
  -42.1295  -32.0175   -0.3471 F   0  0  0  0  0  0  0  0  0  0  0  0
  -40.4493  -31.0308    0.6373 F   0  0  0  0  0  0  0  0  0  0  0  0
  -41.5412  -30.0038   -0.9497 F   0  0  0  0  0  0  0  0  0  0  0  0
  -48.5886  -28.5530    6.2851 H   0  0  0  0  0  0  0  0  0  0  0  0
  -42.0024  -30.9788    3.0940 H   0  0  0  0  0  0  0  0  0  0  0  0
  -42.7017  -32.2496    2.0760 H   0  0  0  0  0  0  0  0  0  0  0  0
  -44.6344  -31.7135    3.3232 H   0  0  0  0  0  0  0  0  0  0  0  0
  -44.0543  -30.0735    3.6917 H   0  0  0  0  0  0  0  0  0  0  0  0
  -44.2500  -29.1759    0.1552 H   0  0  0  0  0  0  0  0  0  0  0  0
  -44.2512  -30.9207   -0.1731 H   0  0  0  0  0  0  0  0  0  0  0  0
  -48.5198  -29.1996   -0.0686 H   0  0  0  0  0  0  0  0  0  0  0  0
  -48.8295  -30.8773    0.3408 H   0  0  0  0  0  0  0  0  0  0  0  0
  -41.9930  -28.2285    0.6881 H   0  0  0  0  0  0  0  0  0  0  0  0
  -41.1360  -28.9723    2.0517 H   0  0  0  0  0  0  0  0  0  0  0  0
  -42.8103  -28.4202    2.2514 H   0  0  0  0  0  0  0  0  0  0  0  0
  -45.1169  -29.7141    4.1489 H   0  0  0  0  0  0  0  0  0  0  0  0
  -49.9102  -29.3649    1.9642 H   0  0  0  0  0  0  0  0  0  0  0  0
  1  5  1  0  0  0  0
  1 13  2  0  0  0  0
  2  3  2  0  0  0  0
  2  4  1  0  0  0  0
  2 15  1  0  0  0  0
  3 13  1  0  0  0  0
  3 16  1  0  0  0  0
  4 14  2  0  0  0  0
  4 17  1  0  0  0  0
  5 15  1  0  0  0  0
  5 18  2  0  0  0  0
  6  7  1  0  0  0  0
  6 10  1  0  0  0  0
  7 17  1  0  0  0  0
  8 10  1  0  0  0  0
  8 17  1  0  0  0  0
  9 14  1  0  0  0  0
  9 16  1  0  0  0  0
 10 11  1  0  0  0  0
 10 12  1  0  0  0  0
 12 19  1  0  0  0  0
 12 20  1  0  0  0  0
 12 21  1  0  0  0  0
  1 22  1  0  0  0  0
  6 23  1  0  0  0  0
  6 24  1  0  0  0  0
  7 25  1  0  0  0  0
  7 26  1  0  0  0  0
  8 27  1  0  0  0  0
  8 28  1  0  0  0  0
  9 29  1  0  0  0  0
  9 30  1  0  0  0  0
 11 31  1  0  0  0  0
 11 32  1  0  0  0  0
 11 33  1  0  0  0  0
 15 34  1  0  0  0  0
 16 35  1  0  0  0  0
M  END
> <POSIT::Probability>
0.18

> <POSIT::Method>
FRED

> <ReceptorTitle>
UCSF-P4280-REFINED_LIGAND-BOUND-STATE_A__DU__LA1_A-201(A)

> <OMEGA_C>
335AwoX15sGB0apA4n47wkw77cEAiURAgM5AwqA568GZKkZA6do4wrm58MH4JeQ/MZw6wvwC6cF+
sqxAVBYrwhSE+cFuxhVAhY8wwlKj9sFb4TlAUy8wwv5K8cHoHBc/KURBwjzF78EIni4/HG8qwlkI
8sEI4Y8/QmcowoL35sGcnMc/dp0mwq7A9sEA7K499lFDwtQE6MH5c4hAJ4E7wgPs8cEwZCs/xnA4
wosm7ME1Y4ZAOqlDwqF17MFEc/Y/No0zwt258sEAheE/6U04wlTI58FWxM5AmYQowuYRAMJws7G+
F8whwiA/+MFwIyM/PSomwtIH8MFwInO/ulpCwnhs5MFKH8lAfwIowo3U98F7BEZAjs4qwo7/AMKI
3ARAmokywim1/cHVrlRAnzcwwnyW8MG2RGxA+P8wwk9o6cGA5B4+LwExwrBd98EgOzG+SBRCwtaY
6cHAbYy9Y1FDwqAE98Fwf64+3PgnwhLU4cHwKTA/SYskwlfH58HQTgNAvj0rwoBc48FFFhBAuHc0
wna27cH7w4RAAqRHwkTr6sG0avs/

> <OMEGA_E>
mcPywA==

> <OMEGA_NBR>
     15533

$$$$
CACHE3HI_1696_60
  -OEChem-03092622503D

 40 42  0     0  0  0  0  0  0999 V2000
  -48.2298  -29.0806    4.5852 C   0  0  0  0  0  0  0  0  0  0  0  0
  -48.8759  -28.8748    5.7794 C   0  0  0  0  0  0  0  0  0  0  0  0
  -44.3554  -29.3787    6.0332 C   0  0  0  0  0  0  0  0  0  0  0  0
  -46.8135  -29.2337    4.8960 C   0  0  0  0  0  0  0  0  0  0  0  0
  -46.6587  -29.0841    6.2718 C   0  0  0  0  0  0  0  0  0  0  0  0
  -45.6904  -29.4985    4.1112 C   0  0  0  0  0  0  0  0  0  0  0  0
  -43.4555  -30.4383   -0.5178 C   0  0  0  0  0  0  0  0  0  0  0  0
  -45.6914  -28.5096    1.8538 C   0  0  0  0  0  0  0  0  0  0  0  0
  -45.8755  -31.0452    2.1662 C   0  0  0  0  0  0  0  0  0  0  0  0
  -44.4251  -28.7351    1.0287 C   0  0  0  0  0  0  0  0  0  0  0  0
  -45.6120  -30.9806    0.6469 C   0  0  0  0  0  0  0  0  0  0  0  0
  -42.2287  -31.1743    2.9357 C   0  0  0  0  0  0  0  0  0  0  0  0
  -41.9914  -30.0688   -0.2161 C   0  0  0  0  0  0  0  0  0  0  0  0
  -41.2376  -31.3162    0.2996 C   0  0  0  0  0  0  0  0  0  0  0  0
  -45.4327  -29.1614    6.8342 N   0  0  0  0  0  0  0  0  0  0  0  0
  -44.4669  -29.5539    4.6889 N   0  0  0  0  0  0  0  0  0  0  0  0
  -47.9242  -28.8799    6.8014 N   0  0  0  0  0  0  0  0  0  0  0  0
  -45.8508  -29.6733    2.7481 N   0  0  0  0  0  0  0  0  0  0  0  0
  -44.4551  -30.0795    0.3890 N   0  0  0  0  0  0  0  0  0  0  0  0
  -43.6614  -31.3339   -1.3305 O   0  0  0  0  0  0  0  0  0  0  0  0
  -42.2224  -32.3257    1.5138 S   0  0  0  0  0  0  0  0  0  0  0  0
  -48.6830  -29.1211    3.6057 H   0  0  0  0  0  0  0  0  0  0  0  0
  -49.9390  -28.7333    5.9066 H   0  0  0  0  0  0  0  0  0  0  0  0
  -43.3736  -29.4136    6.4817 H   0  0  0  0  0  0  0  0  0  0  0  0
  -45.5933  -27.5894    2.4486 H   0  0  0  0  0  0  0  0  0  0  0  0
  -46.5632  -28.4248    1.1884 H   0  0  0  0  0  0  0  0  0  0  0  0
  -46.8613  -31.4991    2.3458 H   0  0  0  0  0  0  0  0  0  0  0  0
  -45.0972  -31.6577    2.6449 H   0  0  0  0  0  0  0  0  0  0  0  0
  -44.3592  -27.9634    0.2476 H   0  0  0  0  0  0  0  0  0  0  0  0
  -43.5465  -28.6665    1.6870 H   0  0  0  0  0  0  0  0  0  0  0  0
  -45.3847  -31.9886    0.2696 H   0  0  0  0  0  0  0  0  0  0  0  0
  -46.5039  -30.5901    0.1350 H   0  0  0  0  0  0  0  0  0  0  0  0
  -42.7860  -31.6247    3.7704 H   0  0  0  0  0  0  0  0  0  0  0  0
  -41.1938  -30.9754    3.2509 H   0  0  0  0  0  0  0  0  0  0  0  0
  -42.7100  -30.2302    2.6408 H   0  0  0  0  0  0  0  0  0  0  0  0
  -41.5092  -29.7035   -1.1349 H   0  0  0  0  0  0  0  0  0  0  0  0
  -41.9632  -29.2809    0.5509 H   0  0  0  0  0  0  0  0  0  0  0  0
  -40.9875  -31.9532   -0.5616 H   0  0  0  0  0  0  0  0  0  0  0  0
  -40.3113  -30.9850    0.7919 H   0  0  0  0  0  0  0  0  0  0  0  0
  -48.1256  -28.7545    7.7728 H   0  0  0  0  0  0  0  0  0  0  0  0
  1  2  2  0  0  0  0
  1  4  1  0  0  0  0
  2 17  1  0  0  0  0
  3 15  2  0  0  0  0
  3 16  1  0  0  0  0
  4  5  2  0  0  0  0
  4  6  1  0  0  0  0
  5 15  1  0  0  0  0
  5 17  1  0  0  0  0
  6 16  2  0  0  0  0
  6 18  1  0  0  0  0
  7 13  1  0  0  0  0
  7 19  1  0  0  0  0
  7 20  2  0  0  0  0
  8 10  1  0  0  0  0
  8 18  1  0  0  0  0
  9 11  1  0  0  0  0
  9 18  1  0  0  0  0
 10 19  1  0  0  0  0
 11 19  1  0  0  0  0
 12 21  1  0  0  0  0
 13 14  1  0  0  0  0
 14 21  1  0  0  0  0
  1 22  1  0  0  0  0
  2 23  1  0  0  0  0
  3 24  1  0  0  0  0
  8 25  1  0  0  0  0
  8 26  1  0  0  0  0
  9 27  1  0  0  0  0
  9 28  1  0  0  0  0
 10 29  1  0  0  0  0
 10 30  1  0  0  0  0
 11 31  1  0  0  0  0
 11 32  1  0  0  0  0
 12 33  1  0  0  0  0
 12 34  1  0  0  0  0
 12 35  1  0  0  0  0
 13 36  1  0  0  0  0
 13 37  1  0  0  0  0
 14 38  1  0  0  0  0
 14 39  1  0  0  0  0
 17 40  1  0  0  0  0
M  END
> <POSIT::Probability>
0.72

> <POSIT::Method>
SHAPEFIT

> <ReceptorTitle>
UCSF-P4280-REFINED_LIGAND-BOUND-STATE_A__DU__LA1_A-201(A)

> <OMEGA_C>
WutAwgul6MECupJA7IBDwrD/5sEz8bhA9GsxwpoH68EyEMFAE0E7wrbe6cESrJxAf6I6wkCs6MH+
sshA9cI2wuz868FOj4NAdNItwqqB88EGjQS/9sM2wpQT5MHlSe0/g4A3wqhc+MG2owpASbMxwoXh
5cG2rIM/vHI2wl7Y98FUmCU/MuoowgRl+cHs4jtAJvcnwvCM8MHITl2+RfMkwo6H+sF6Y5k+Hrs1
wopK6cF2sdpAF94xwlZu7MGUC5ZAYLI/wvYJ58HRpNlARWc3wupi7cFo4C9ACdIxwtyi8MG8Kcc+
TqUuwsir+sFpT6q/sOMowoFNAcK4wsE/W7tCwv736MHJw2ZAicFHwr/d5cEfA71Ai34twvtO68Fu
as9AgV82wia33MFmtRxAtEA6whdm48EbHpg/83E7wjL++8FSIRZAhGM0wu5C/cGERilAym8xwhK1
38Exi30+my8uwvlU5cH179c/5Yk1wqro/8GpCYo+CAQ6wpG49MG9OAo+0SQrwmX//MHATXFAbcYk
wrXN98F1D1BADtcqwnzX8cE7AilAbAkmwtWg7cFMQ5G/S9onwkY/6sGVCg0/O/Mjwjeg/8GexQ+/
xj4hwkvh98FwuEo/qoBAwkkJ5sHouvhA

> <OMEGA_E>
kJ4rPw==

> <OMEGA_NBR>
     16851

$$$$
CACHE3HI_1696_63
  -OEChem-03092622503D

 39 41  0     1  0  0  0  0  0999 V2000
  -48.4133  -28.7717    4.7985 C   0  0  0  0  0  0  0  0  0  0  0  0
  -48.9733  -28.7377    6.0513 C   0  0  0  0  0  0  0  0  0  0  0  0
  -44.4650  -29.3401    5.9542 C   0  0  0  0  0  0  0  0  0  0  0  0
  -46.9650  -28.9418    4.9737 C   0  0  0  0  0  0  0  0  0  0  0  0
  -45.8731  -29.0749    4.0836 C   0  0  0  0  0  0  0  0  0  0  0  0
  -46.7338  -29.0233    6.3502 C   0  0  0  0  0  0  0  0  0  0  0  0
  -46.0961  -29.0963    2.6064 C   0  0  0  0  0  0  0  0  0  0  0  0
  -46.2116  -30.7970    0.8048 C   0  0  0  0  0  0  0  0  0  0  0  0
  -45.8606  -30.3487   -0.6015 C   0  0  0  0  0  0  0  0  0  0  0  0
  -43.9603  -30.2431    1.8467 C   0  0  2  0  0  0  0  0  0  0  0  0
  -43.2671  -30.0094    0.4506 C   0  0  0  0  0  0  0  0  0  0  0  0
  -43.2114  -28.4862    0.1783 C   0  0  0  0  0  0  0  0  0  0  0  0
  -41.8134  -30.5355    0.4311 C   0  0  0  0  0  0  0  0  0  0  0  0
  -43.7281  -31.6478    2.4536 C   0  0  0  0  0  0  0  0  0  0  0  0
  -44.6382  -29.2729    4.6102 N   0  0  0  0  0  0  0  0  0  0  0  0
  -45.4909  -29.2217    6.8294 N   0  0  0  0  0  0  0  0  0  0  0  0
  -47.9560  -28.8864    6.9895 N   0  0  0  0  0  0  0  0  0  0  0  0
  -45.4278  -30.0140    1.7793 N   0  0  0  0  0  0  0  0  0  0  0  0
  -47.0876  -28.5334    2.1529 O   0  0  0  0  0  0  0  0  0  0  0  0
  -42.5235  -31.6619    3.2116 O   0  0  0  0  0  0  0  0  0  0  0  0
  -44.1388  -30.8433   -0.9570 S   0  0  0  0  0  0  0  0  0  0  0  0
  -48.9395  -28.6889    3.8591 H   0  0  0  0  0  0  0  0  0  0  0  0
  -50.0237  -28.6163    6.2713 H   0  0  0  0  0  0  0  0  0  0  0  0
  -43.4686  -29.4943    6.3414 H   0  0  0  0  0  0  0  0  0  0  0  0
  -47.2850  -30.6366    0.9838 H   0  0  0  0  0  0  0  0  0  0  0  0
  -45.9765  -31.8655    0.9187 H   0  0  0  0  0  0  0  0  0  0  0  0
  -46.5400  -30.8259   -1.3231 H   0  0  0  0  0  0  0  0  0  0  0  0
  -45.9553  -29.2553   -0.6765 H   0  0  0  0  0  0  0  0  0  0  0  0
  -43.5322  -29.5093    2.5454 H   0  0  0  0  0  0  0  0  0  0  0  0
  -42.7298  -28.3043   -0.7938 H   0  0  0  0  0  0  0  0  0  0  0  0
  -44.2331  -28.0789    0.1631 H   0  0  0  0  0  0  0  0  0  0  0  0
  -42.6318  -27.9928    0.9725 H   0  0  0  0  0  0  0  0  0  0  0  0
  -41.3699  -30.3523   -0.5587 H   0  0  0  0  0  0  0  0  0  0  0  0
  -41.2242  -30.0131    1.1992 H   0  0  0  0  0  0  0  0  0  0  0  0
  -41.8117  -31.6156    0.6392 H   0  0  0  0  0  0  0  0  0  0  0  0
  -44.5732  -31.9048    3.1092 H   0  0  0  0  0  0  0  0  0  0  0  0
  -43.6556  -32.3869    1.6422 H   0  0  0  0  0  0  0  0  0  0  0  0
  -48.0877  -28.8934    7.9808 H   0  0  0  0  0  0  0  0  0  0  0  0
  -42.3904  -32.5276    3.5795 H   0  0  0  0  0  0  0  0  0  0  0  0
  1  2  2  0  0  0  0
  1  4  1  0  0  0  0
  2 17  1  0  0  0  0
  3 15  1  0  0  0  0
  3 16  2  0  0  0  0
  4  5  1  0  0  0  0
  4  6  2  0  0  0  0
  5  7  1  0  0  0  0
  5 15  2  0  0  0  0
  6 16  1  0  0  0  0
  6 17  1  0  0  0  0
  7 18  1  0  0  0  0
  7 19  2  0  0  0  0
  8  9  1  0  0  0  0
  8 18  1  0  0  0  0
  9 21  1  0  0  0  0
 10 11  1  0  0  0  0
 10 14  1  0  0  0  0
 10 18  1  0  0  0  0
 11 12  1  0  0  0  0
 11 13  1  0  0  0  0
 11 21  1  0  0  0  0
 14 20  1  0  0  0  0
  1 22  1  0  0  0  0
  2 23  1  0  0  0  0
  3 24  1  0  0  0  0
  8 25  1  0  0  0  0
  8 26  1  0  0  0  0
  9 27  1  0  0  0  0
  9 28  1  0  0  0  0
 10 29  1  0  0  0  0
 12 30  1  0  0  0  0
 12 31  1  0  0  0  0
 12 32  1  0  0  0  0
 13 33  1  0  0  0  0
 13 34  1  0  0  0  0
 13 35  1  0  0  0  0
 14 36  1  0  0  0  0
 14 37  1  0  0  0  0
 17 38  1  0  0  0  0
 20 39  1  0  0  0  0
M  END
> <POSIT::Probability>
0.79

> <POSIT::Method>
SHAPEFIT

> <ReceptorTitle>
UCSF-P4280-REFINED_LIGAND-BOUND-STATE_A__DU__LA1_A-201(A)

> <OMEGA_C>
LKdBwnks5sGPjZlAr+RDwsPm5cFBpMFAKNwxwpW46sELib5AJ9w7ws6I58EwKJ9AD343wlCZ6MHH
rIJAcO86wqov6MGTNMtAamI4wjfF6ME0zyZAtdg4wj5g9sE8B04/SXE3whLK8sHY+Bm/Wtcvws3x
8cEYYOw/jBEtwisT8MFar+Y+dtgswq/j48HxlTY+9kAnwrlI9ME6tdw+kOkuwrMu/cEOCB1AeI0y
wvAu6sEFh5NAtfY1wvjF6cHEitpA99I/wkkX58Eoqt9ABbY1wqgc8MGEv+M/uVk8wmNE5MFYyAlA
Dxgqwn5L/cGri01AKY4wwha/9sHy+3S/GcJDwsiC5cFP+3ZAQRhIwibu5MGhrshA4d8twmb068GK
7MpA4yM9wtUX9cFC3Xs/8+c3wpfs/sEmLms/7Sg6wmCb9sGXW6m/MNI3wuMK6sFzLC2/8CAuwv4S
7MFM6CJASusqwjZv4sHgNUu/s+4wwp+h4MFm+yY+/4Yqwlnx38HA9Xg/vXolwnrR8sGrBw+/oOUk
wu0a8MGRfpk/Oz8nwtHs/MGEpCM/60oywu48/8GV/UZAVZ8uwjeMAcLJMtI/1llAwrMl58GVYv9A
uo8pwkEcAsLgFWVA

> <OMEGA_E>
PIgEPw==

> <OMEGA_NBR>
     18153

$$$$
CACHE3HI_1700_11
  -OEChem-03092622503D

 42 45  0     1  0  0  0  0  0999 V2000
  -46.2737  -29.2271    4.3358 C   0  0  0  0  0  0  0  0  0  0  0  0
  -44.1693  -29.1452    6.0018 C   0  0  0  0  0  0  0  0  0  0  0  0
  -46.4192  -29.0332    5.6942 C   0  0  0  0  0  0  0  0  0  0  0  0
  -44.9769  -29.3763    3.8890 C   0  0  0  0  0  0  0  0  0  0  0  0
  -50.3020  -29.4765    5.8349 C   0  0  0  0  0  0  0  0  0  0  0  0
  -49.7832  -28.8604    4.5656 C   0  0  0  0  0  0  0  0  0  0  0  0
  -44.9310  -30.3263    0.2934 C   0  0  0  0  0  0  0  0  0  0  0  0
  -43.5764  -29.1174    1.8510 C   0  0  0  0  0  0  0  0  0  0  0  0
  -41.8640  -31.4651   -0.0587 C   0  0  0  0  0  0  0  0  0  0  0  0
  -41.5480  -30.0718   -0.5310 C   0  0  0  0  0  0  0  0  0  0  0  0
  -48.8485  -29.6111    5.4730 C   0  0  0  0  0  0  0  0  0  0  0  0
  -45.6259  -30.4114    1.6646 C   0  0  2  0  0  0  0  0  0  0  0  0
  -43.4758  -30.0411    0.6373 C   0  0  0  0  0  0  0  0  0  0  0  0
  -47.7845  -28.8616    6.2705 C   0  0  0  0  0  0  0  0  0  0  0  0
  -47.0577  -29.8977    1.5520 C   0  0  0  0  0  0  0  0  0  0  0  0
  -45.3849  -28.9867    6.5595 N   0  0  0  0  0  0  0  0  0  0  0  0
  -43.8968  -29.3403    4.6971 N   0  0  0  0  0  0  0  0  0  0  0  0
  -44.7895  -29.5720    2.5346 N   0  0  3  0  0  0  0  0  0  0  0  0
  -42.7958  -31.2507    1.0008 O   0  0  0  0  0  0  0  0  0  0  0  0
  -42.8082  -29.4072   -0.4536 O   0  0  0  0  0  0  0  0  0  0  0  0
  -47.8076  -30.4057    2.6414 O   0  0  0  0  0  0  0  0  0  0  0  0
  -47.1256  -29.2596    3.6669 H   0  0  0  0  0  0  0  0  0  0  0  0
  -43.3207  -29.1107    6.6738 H   0  0  0  0  0  0  0  0  0  0  0  0
  -50.5758  -28.8094    6.6430 H   0  0  0  0  0  0  0  0  0  0  0  0
  -50.9262  -30.3574    5.7492 H   0  0  0  0  0  0  0  0  0  0  0  0
  -50.0599  -29.3282    3.6288 H   0  0  0  0  0  0  0  0  0  0  0  0
  -49.7099  -27.7807    4.5236 H   0  0  0  0  0  0  0  0  0  0  0  0
  -45.0188  -31.2873   -0.2246 H   0  0  0  0  0  0  0  0  0  0  0  0
  -45.3709  -29.5541   -0.3426 H   0  0  0  0  0  0  0  0  0  0  0  0
  -42.7102  -29.2399    2.5057 H   0  0  0  0  0  0  0  0  0  0  0  0
  -43.6688  -28.0687    1.5642 H   0  0  0  0  0  0  0  0  0  0  0  0
  -42.2995  -32.0989   -0.8358 H   0  0  0  0  0  0  0  0  0  0  0  0
  -40.9799  -31.9596    0.3597 H   0  0  0  0  0  0  0  0  0  0  0  0
  -40.8023  -29.5629    0.0840 H   0  0  0  0  0  0  0  0  0  0  0  0
  -41.2234  -30.0653   -1.5770 H   0  0  0  0  0  0  0  0  0  0  0  0
  -48.5006  -30.5828    5.1439 H   0  0  0  0  0  0  0  0  0  0  0  0
  -45.6416  -31.4550    1.9819 H   0  0  0  0  0  0  0  0  0  0  0  0
  -48.0514  -27.7939    6.3124 H   0  0  0  0  0  0  0  0  0  0  0  0
  -47.8054  -29.2089    7.3160 H   0  0  0  0  0  0  0  0  0  0  0  0
  -47.5049  -30.2389    0.6179 H   0  0  0  0  0  0  0  0  0  0  0  0
  -47.0680  -28.8074    1.5867 H   0  0  0  0  0  0  0  0  0  0  0  0
  -48.7131  -30.0650    2.5468 H   0  0  0  0  0  0  0  0  0  0  0  0
  1  3  1  0  0  0  0
  1  4  2  0  0  0  0
  2 16  1  0  0  0  0
  2 17  2  0  0  0  0
  3 14  1  0  0  0  0
  3 16  2  0  0  0  0
  4 17  1  0  0  0  0
  4 18  1  0  0  0  0
  5  6  1  0  0  0  0
  5 11  1  0  0  0  0
  6 11  1  0  0  0  0
  7 12  1  0  0  0  0
  7 13  1  0  0  0  0
  8 13  1  0  0  0  0
  8 18  1  0  0  0  0
  9 10  1  0  0  0  0
  9 19  1  0  0  0  0
 10 20  1  0  0  0  0
 11 14  1  0  0  0  0
 12 15  1  0  0  0  0
 12 18  1  0  0  0  0
 13 19  1  0  0  0  0
 13 20  1  0  0  0  0
 15 21  1  0  0  0  0
  1 22  1  0  0  0  0
  2 23  1  0  0  0  0
  5 24  1  0  0  0  0
  5 25  1  0  0  0  0
  6 26  1  0  0  0  0
  6 27  1  0  0  0  0
  7 28  1  0  0  0  0
  7 29  1  0  0  0  0
  8 30  1  0  0  0  0
  8 31  1  0  0  0  0
  9 32  1  0  0  0  0
  9 33  1  0  0  0  0
 10 34  1  0  0  0  0
 10 35  1  0  0  0  0
 11 36  1  0  0  0  0
 12 37  1  0  0  0  0
 14 38  1  0  0  0  0
 14 39  1  0  0  0  0
 15 40  1  0  0  0  0
 15 41  1  0  0  0  0
 21 42  1  0  0  0  0
M  END
> <POSIT::Probability>
0.42

> <POSIT::Method>
HYBRID

> <ReceptorTitle>
UCSF-P4280-REFINED_LIGAND-BOUND-STATE_A__DU__LA1_A-201(A)

> <OMEGA_C>
Rhg5whDR6cHWvopAaa0wwk0p6cFaDsBAOK05wghE6MHINrZAUegzwqQC68HF5HhANDVJwtHP68G6
t7pA+SFHwhzi5sGmGZJAWbkzwjac8sGVMpY+O04uwnnw6MFT7Ow/xnQnwnG4+8FYeHC9NDEmwhKT
8MGG8Qe/32RDworj7MHkIq9A6oA2woxK88EqEtU/O+ctwipU8MGmKCM/XiM/wqjk5sEPqMhAFzs8
woou78FMqcY/K4o1wrPk58Fa59FAUpYvwte46sFJTpZAcCgzwluT7MFENiJA5y4rwnMB+sGbGYA/
jTsrwtxB68EjOOi+Bjs/wso+88ESDSlAoYA8wr8T6sEsrmpAXUgtwq3i6MFxj9VAqE1Kwr955sFg
k9RAY7RLwgvc8sGM+bdAXz1IwhGg6sG9PWhA6tZGwug+3sEYwZBAOhM0wndM+sEW+WW+03s1wt5u
7MG7Yq++R9cqwjnr6cHJXSBA4awuwruM4ME7N8g/rjIpwkZlAMIO91W/d+sjwlGt/8FlJrg+gzUj
wsqA7MF0Hqw9wuQkwraF8MG/3Mm/ngBCwqap9MHAmqRAA5E2wuuj+8FVrv0/rTRAwv9Z3sHK/slA
tTg/wuKr6cGxHOpAEAU+wjLp8cFWMB4/pEU8wnh15sEAGcs/P9pCwhaF8MF9/yJA

> <OMEGA_E>
B+ABwQ==

> <OMEGA_NBR>
     19499

$$$$
CACHE3HI_1700_79
  -OEChem-03092622503D

 44 46  0     1  0  0  0  0  0999 V2000
  -45.5045  -32.3868    0.1941 C   0  0  0  0  0  0  0  0  0  0  0  0
  -45.0940  -31.2422   -0.4893 C   0  0  0  0  0  0  0  0  0  0  0  0
  -44.6420  -33.0049    1.0993 C   0  0  0  0  0  0  0  0  0  0  0  0
  -43.8214  -30.7156   -0.2673 C   0  0  0  0  0  0  0  0  0  0  0  0
  -43.3694  -32.4784    1.3213 C   0  0  0  0  0  0  0  0  0  0  0  0
  -45.6792  -28.9614    3.7174 C   0  0  0  0  0  0  0  0  0  0  0  0
  -43.9143  -29.0267    5.7401 C   0  0  0  0  0  0  0  0  0  0  0  0
  -42.9589  -31.3338    0.6380 C   0  0  0  0  0  0  0  0  0  0  0  0
  -46.0763  -28.9753    5.0388 C   0  0  0  0  0  0  0  0  0  0  0  0
  -44.3165  -28.9834    3.5028 C   0  0  0  0  0  0  0  0  0  0  0  0
  -49.7545  -29.2008    5.0159 C   0  0  0  0  0  0  0  0  0  0  0  0
  -49.4830  -28.6415    6.4029 C   0  0  0  0  0  0  0  0  0  0  0  0
  -48.4592  -28.9187    4.2597 C   0  0  0  0  0  0  0  0  0  0  0  0
  -48.0102  -28.9670    6.6355 C   0  0  0  0  0  0  0  0  0  0  0  0
  -42.5282  -28.5709    1.8128 C   0  0  0  0  0  0  0  0  0  0  0  0
  -41.5448  -29.7291    2.0169 C   0  0  2  0  0  0  0  0  0  0  0  0
  -41.5804  -30.7638    0.8787 C   0  0  0  0  0  0  0  0  0  0  0  0
  -45.2176  -29.0080    6.0791 N   0  0  0  0  0  0  0  0  0  0  0  0
  -43.4019  -29.0160    4.4944 N   0  0  0  0  0  0  0  0  0  0  0  0
  -47.4307  -28.9544    5.2952 N   0  0  0  0  0  0  0  0  0  0  0  0
  -43.8802  -28.9707    2.1984 N   0  0  0  0  0  0  0  0  0  0  0  0
  -41.9047  -30.4043    3.2274 O   0  0  0  0  0  0  0  0  0  0  0  0
  -41.0514  -30.1812   -0.2394 F   0  0  0  0  0  0  0  0  0  0  0  0
  -40.6987  -31.7588    1.2034 F   0  0  0  0  0  0  0  0  0  0  0  0
  -46.4952  -32.7969    0.0213 H   0  0  0  0  0  0  0  0  0  0  0  0
  -45.7656  -30.7606   -1.1939 H   0  0  0  0  0  0  0  0  0  0  0  0
  -44.9614  -33.8963    1.6313 H   0  0  0  0  0  0  0  0  0  0  0  0
  -43.5103  -29.8235   -0.8044 H   0  0  0  0  0  0  0  0  0  0  0  0
  -42.7049  -32.9664    2.0293 H   0  0  0  0  0  0  0  0  0  0  0  0
  -46.3918  -28.9352    2.9009 H   0  0  0  0  0  0  0  0  0  0  0  0
  -43.2025  -29.0531    6.5560 H   0  0  0  0  0  0  0  0  0  0  0  0
  -49.9294  -30.2818    5.0732 H   0  0  0  0  0  0  0  0  0  0  0  0
  -50.6236  -28.7356    4.5422 H   0  0  0  0  0  0  0  0  0  0  0  0
  -49.6337  -27.5554    6.4073 H   0  0  0  0  0  0  0  0  0  0  0  0
  -50.1327  -29.0827    7.1641 H   0  0  0  0  0  0  0  0  0  0  0  0
  -48.2863  -29.6628    3.4699 H   0  0  0  0  0  0  0  0  0  0  0  0
  -48.4765  -27.9203    3.7993 H   0  0  0  0  0  0  0  0  0  0  0  0
  -47.5367  -28.2334    7.3027 H   0  0  0  0  0  0  0  0  0  0  0  0
  -47.8896  -29.9672    7.0764 H   0  0  0  0  0  0  0  0  0  0  0  0
  -42.2336  -27.7098    2.4233 H   0  0  0  0  0  0  0  0  0  0  0  0
  -42.5539  -28.2573    0.7656 H   0  0  0  0  0  0  0  0  0  0  0  0
  -40.5257  -29.3465    2.1518 H   0  0  0  0  0  0  0  0  0  0  0  0
  -44.5064  -29.2458    1.4611 H   0  0  0  0  0  0  0  0  0  0  0  0
  -41.8363  -29.7460    3.9334 H   0  0  0  0  0  0  0  0  0  0  0  0
  1  2  1  0  0  0  0
  1  3  2  0  0  0  0
  2  4  2  0  0  0  0
  3  5  1  0  0  0  0
  4  8  1  0  0  0  0
  5  8  2  0  0  0  0
  6  9  2  0  0  0  0
  6 10  1  0  0  0  0
  7 18  2  0  0  0  0
  7 19  1  0  0  0  0
  8 17  1  0  0  0  0
  9 18  1  0  0  0  0
  9 20  1  0  0  0  0
 10 19  2  0  0  0  0
 10 21  1  0  0  0  0
 11 12  1  0  0  0  0
 11 13  1  0  0  0  0
 12 14  1  0  0  0  0
 13 20  1  0  0  0  0
 14 20  1  0  0  0  0
 15 16  1  0  0  0  0
 15 21  1  0  0  0  0
 16 17  1  0  0  0  0
 16 22  1  0  0  0  0
 17 23  1  0  0  0  0
 17 24  1  0  0  0  0
  1 25  1  0  0  0  0
  2 26  1  0  0  0  0
  3 27  1  0  0  0  0
  4 28  1  0  0  0  0
  5 29  1  0  0  0  0
  6 30  1  0  0  0  0
  7 31  1  0  0  0  0
 11 32  1  0  0  0  0
 11 33  1  0  0  0  0
 12 34  1  0  0  0  0
 12 35  1  0  0  0  0
 13 36  1  0  0  0  0
 13 37  1  0  0  0  0
 14 38  1  0  0  0  0
 14 39  1  0  0  0  0
 15 40  1  0  0  0  0
 15 41  1  0  0  0  0
 16 42  1  0  0  0  0
 21 43  1  0  0  0  0
 22 44  1  0  0  0  0
M  END
> <POSIT::Probability>
0.18

> <POSIT::Method>
HYBRID

> <ReceptorTitle>
UCSF-P4280-REFINED_LIGAND-BOUND-STATE_A__DU__LA1_A-201(A)

> <OMEGA_C>
ngQ2wh+MAcJAvkY+OmA0wgTw+cEwgPq+ZpEywhEFBMJstow/Hkkvwo259cFw2Yi+THotwtXpAcIc
IKk/h7c2wgix58FS6m1ASKgvwq426MEhr7dA4tUrwoir+sEwUyM/Lk44woLN58H8PaFADkQxwgbe
58FALWBAoARHwkCb6cF3gqBAme5Fwr4h5cFG5MxAO9ZBwnRZ58HXT4hAdApAwmy858FEVtRA7Bwq
wjWR5MHECOg/6C0mwkXV7cFUFQFAYFImwjAc9sFY72A/3N40wmkQ6MGmh8JAhZstwrYg6MEe0o9A
Dbk9wpSi58GAcqlASoUvwhfE58GmsgxAap4nwvg788EojU5AmTQkwixz8cEgKHW+gssiwhgS/sHQ
B5o/EPs5wv8vA8IAb648/Q83wqAV9sFs0Ji/btgzwsuVB8LsztA/mAouwnKW7sFY8E2/x9Eqwpjd
A8IG4AFAMpE5wjh758GmqDlAXM8swsRs6MHGytFAqLdHwhlB8sFoV6JAjH5KwnLi5cFLWZFA64hG
wmRx3MHDCM1A1odIwkap6MExQOVAMiVBwmhN7cFgEl5A7udBwsBc38H0J3NAliU+whDe4cFTr+lA
7I4/wuK878GdceJAQO8owq+t3cEqFxtAOjcqwvYO4sEw/EM/RxoiwojF6sHmtwlAmAYywlD36cEY
Brs/Wlgnwsr37cGavHtA

> <OMEGA_E>
lKL4wA==

> <OMEGA_NBR>
     20875

$$$$
CACHE3HI_1700_85
  -OEChem-03092622503D

 42 45  0     1  0  0  0  0  0999 V2000
  -44.2652  -29.5507    4.7858 C   0  0  0  0  0  0  0  0  0  0  0  0
  -44.3667  -29.2140    6.1201 C   0  0  0  0  0  0  0  0  0  0  0  0
  -45.4485  -29.5445    4.0763 C   0  0  0  0  0  0  0  0  0  0  0  0
  -46.6134  -28.9243    5.9276 C   0  0  0  0  0  0  0  0  0  0  0  0
  -44.6409  -30.7836    0.7009 C   0  0  0  0  0  0  0  0  0  0  0  0
  -45.9427  -30.0376    0.4582 C   0  0  0  0  0  0  0  0  0  0  0  0
  -51.5661  -29.3441    6.2270 C   0  0  0  0  0  0  0  0  0  0  0  0
  -48.9210  -28.9952    4.3310 C   0  0  0  0  0  0  0  0  0  0  0  0
  -44.1578  -30.2285    2.0380 C   0  0  0  0  0  0  0  0  0  0  0  0
  -46.5489  -29.9169    1.8537 C   0  0  0  0  0  0  0  0  0  0  0  0
  -50.8516  -30.1355    5.1676 C   0  0  2  0  0  0  0  0  0  0  0  0
  -50.0860  -29.5836    6.3362 C   0  0  1  0  0  0  0  0  0  0  0  0
  -50.3250  -29.4763    3.9134 C   0  0  2  0  0  0  0  0  0  0  0  0
  -49.0929  -28.5823    5.8044 C   0  0  1  0  0  0  0  0  0  0  0  0
  -50.2820  -30.4166    2.7207 C   0  0  0  0  0  0  0  0  0  0  0  0
  -45.5291  -28.8941    6.7259 N   0  0  0  0  0  0  0  0  0  0  0  0
  -46.6453  -29.2354    4.6174 N   0  0  0  0  0  0  0  0  0  0  0  0
  -45.3886  -29.8754    2.7393 N   0  0  0  0  0  0  0  0  0  0  0  0
  -47.8262  -28.6008    6.5173 N   0  0  0  0  0  0  0  0  0  0  0  0
  -49.7072  -29.7321    1.6197 O   0  0  0  0  0  0  0  0  0  0  0  0
  -43.3116  -29.8013    4.3380 H   0  0  0  0  0  0  0  0  0  0  0  0
  -43.4898  -29.1914    6.7583 H   0  0  0  0  0  0  0  0  0  0  0  0
  -44.8337  -31.8596    0.7875 H   0  0  0  0  0  0  0  0  0  0  0  0
  -43.9152  -30.6268   -0.1022 H   0  0  0  0  0  0  0  0  0  0  0  0
  -45.7356  -29.0411    0.0503 H   0  0  0  0  0  0  0  0  0  0  0  0
  -46.6011  -30.5649   -0.2379 H   0  0  0  0  0  0  0  0  0  0  0  0
  -51.9138  -28.3476    5.9846 H   0  0  0  0  0  0  0  0  0  0  0  0
  -52.2133  -29.8852    6.9068 H   0  0  0  0  0  0  0  0  0  0  0  0
  -48.2051  -29.8239    4.2457 H   0  0  0  0  0  0  0  0  0  0  0  0
  -48.5615  -28.1712    3.7066 H   0  0  0  0  0  0  0  0  0  0  0  0
  -43.5593  -30.9691    2.5864 H   0  0  0  0  0  0  0  0  0  0  0  0
  -43.5482  -29.3244    1.8967 H   0  0  0  0  0  0  0  0  0  0  0  0
  -47.1757  -29.0189    1.9436 H   0  0  0  0  0  0  0  0  0  0  0  0
  -47.1631  -30.7960    2.0971 H   0  0  0  0  0  0  0  0  0  0  0  0
  -50.9936  -31.2052    5.1135 H   0  0  0  0  0  0  0  0  0  0  0  0
  -49.7108  -30.2802    7.0724 H   0  0  0  0  0  0  0  0  0  0  0  0
  -50.9510  -28.6097    3.6649 H   0  0  0  0  0  0  0  0  0  0  0  0
  -49.5185  -27.5626    5.8597 H   0  0  0  0  0  0  0  0  0  0  0  0
  -51.2916  -30.7358    2.4541 H   0  0  0  0  0  0  0  0  0  0  0  0
  -49.6730  -31.2937    2.9517 H   0  0  0  0  0  0  0  0  0  0  0  0
  -47.8268  -28.3629    7.5043 H   0  0  0  0  0  0  0  0  0  0  0  0
  -49.6929  -30.3558    0.8748 H   0  0  0  0  0  0  0  0  0  0  0  0
  1  2  1  0  0  0  0
  1  3  2  0  0  0  0
  2 16  2  0  0  0  0
  3 17  1  0  0  0  0
  3 18  1  0  0  0  0
  4 16  1  0  0  0  0
  4 17  2  0  0  0  0
  4 19  1  0  0  0  0
  5  6  1  0  0  0  0
  5  9  1  0  0  0  0
  6 10  1  0  0  0  0
  7 11  1  0  0  0  0
  7 12  1  0  0  0  0
  8 13  1  0  0  0  0
  8 14  1  0  0  0  0
  9 18  1  0  0  0  0
 10 18  1  0  0  0  0
 11 12  1  0  0  0  0
 11 13  1  0  0  0  0
 12 14  1  0  0  0  0
 13 15  1  0  0  0  0
 14 19  1  0  0  0  0
 15 20  1  0  0  0  0
  1 21  1  0  0  0  0
  2 22  1  0  0  0  0
  5 23  1  0  0  0  0
  5 24  1  0  0  0  0
  6 25  1  0  0  0  0
  6 26  1  0  0  0  0
  7 27  1  0  0  0  0
  7 28  1  0  0  0  0
  8 29  1  0  0  0  0
  8 30  1  0  0  0  0
  9 31  1  0  0  0  0
  9 32  1  0  0  0  0
 10 33  1  0  0  0  0
 10 34  1  0  0  0  0
 11 35  1  0  0  0  0
 12 36  1  0  0  0  0
 13 37  1  0  0  0  0
 14 38  1  0  0  0  0
 15 39  1  0  0  0  0
 15 40  1  0  0  0  0
 19 41  1  0  0  0  0
 20 42  1  0  0  0  0
M  END
> <POSIT::Probability>
0.23

> <POSIT::Method>
HYBRID

> <ReceptorTitle>
UCSF-P4280-REFINED_LIGAND-BOUND-STATE_A__DU__LA1_A-201(A)

> <OMEGA_C>
ig8xwuBn7MFJJZlAe3cxwky26cGu18NAPss1wiRb7MGncIJAIXQ6wuRk58Eur71AS5AywtlE9sHw
cDM/XcU3wg1N8MEgn+o+o0NOwr7A6sGZQ8dAGa9Dwj7258HBl4pAmqEwwvfT8cFSbgJADjI6wspV
78GARe0/FWhLwmsV8cECXaVAElhIwkyr7MF/wspAw0xJwmrP68G8dXpAJl9Ewqao5MGKvblAvCBJ
wjxV88HjHy5AzB02wiUn58FoOtdA1pQ6whri6cGmwZNA5o01wtoA78EGUS9ACk4/wmjO5MGXjdBA
KtRGwkrb7cHEUs8/HD8twvdo7sGz0IpAkPUtwgqI6cEqRNhAtVUzwm7g/sHYl0k/M6kvwsID9cFA
P9G9Q/E2witU6MGAIU49gGc6wgKF9MFAo3O+uadPwtPH4sHLgb9AYtpQwv0U78HOBN1AC9JAwmaX
7sGZ3IdA+z5CwpZe4cHsOG1AtjwuwrrA98GwhyVAVjEuwk6Y6sGExfI/8rM8wrkm6MGSxvg/BKc8
wjRe9sHYNgZAb/lLwkSk+cH2oaNA2tdGwtY98sF8UeJAxs1Lwrrg5MHojGpA5hJGwkWA3MGkgrtA
kCpNwvzi9cEZEB1AIbFGwnxZ+sH76DxAmE4/wjDn4sE1I/BAhsVGwqjY8sHI8l8/

> <OMEGA_E>
D8T3wA==

> <OMEGA_NBR>
     22225

$$$$
CACHE3HI_1706_13
  -OEChem-03092622503D

 45 47  0     1  0  0  0  0  0999 V2000
  -44.5640  -31.3703    1.9859 C   0  0  0  0  0  0  0  0  0  0  0  0
  -45.6232  -31.0356   -0.1597 C   0  0  0  0  0  0  0  0  0  0  0  0
  -43.3179  -31.4250    1.3615 C   0  0  0  0  0  0  0  0  0  0  0  0
  -44.3771  -31.0903   -0.7841 C   0  0  0  0  0  0  0  0  0  0  0  0
  -45.2689  -29.0650    4.2248 C   0  0  0  0  0  0  0  0  0  0  0  0
  -49.0044  -28.6521    4.7246 C   0  0  0  0  0  0  0  0  0  0  0  0
  -45.0399  -29.1992    5.5875 C   0  0  0  0  0  0  0  0  0  0  0  0
  -49.4474  -28.7004    6.0290 C   0  0  0  0  0  0  0  0  0  0  0  0
  -47.5952  -28.8242    4.7429 C   0  0  0  0  0  0  0  0  0  0  0  0
  -45.7167  -31.1755    1.2251 C   0  0  0  0  0  0  0  0  0  0  0  0
  -46.5747  -28.8723    3.7790 C   0  0  0  0  0  0  0  0  0  0  0  0
  -43.2244  -31.2851   -0.0233 C   0  0  0  0  0  0  0  0  0  0  0  0
  -47.2249  -28.9731    6.0764 C   0  0  0  0  0  0  0  0  0  0  0  0
  -48.0110  -32.2207    1.3949 C   0  0  0  0  0  0  0  0  0  0  0  0
  -47.4461  -33.6214    1.6145 C   0  0  0  0  0  0  0  0  0  0  0  0
  -47.0712  -31.1159    1.9031 C   0  0  2  0  0  0  0  0  0  0  0  0
  -46.8306  -28.7269    2.3149 C   0  0  2  0  0  0  0  0  0  0  0  0
  -41.0266  -30.3772   -0.2608 C   0  0  0  0  0  0  0  0  0  0  0  0
  -45.9820  -29.1612    6.5586 N   0  0  0  0  0  0  0  0  0  0  0  0
  -48.3598  -28.8955    6.8405 N   0  0  0  0  0  0  0  0  0  0  0  0
  -47.6717  -29.7959    1.7427 N   0  0  0  0  0  0  0  0  0  0  0  0
  -48.3857  -34.5734    1.1345 O   0  0  0  0  0  0  0  0  0  0  0  0
  -45.5581  -28.6916    1.6497 O   0  0  0  0  0  0  0  0  0  0  0  0
  -42.0082  -31.3386   -0.6321 O   0  0  0  0  0  0  0  0  0  0  0  0
  -40.7354  -30.4627    1.0546 F   0  0  0  0  0  0  0  0  0  0  0  0
  -41.4348  -29.1255   -0.5607 F   0  0  0  0  0  0  0  0  0  0  0  0
  -39.8924  -30.6231   -0.9550 F   0  0  0  0  0  0  0  0  0  0  0  0
  -44.6271  -31.4804    3.0652 H   0  0  0  0  0  0  0  0  0  0  0  0
  -46.5162  -30.8836   -0.7603 H   0  0  0  0  0  0  0  0  0  0  0  0
  -42.4233  -31.5769    1.9593 H   0  0  0  0  0  0  0  0  0  0  0  0
  -44.3109  -30.9805   -1.8631 H   0  0  0  0  0  0  0  0  0  0  0  0
  -44.4392  -29.1109    3.5262 H   0  0  0  0  0  0  0  0  0  0  0  0
  -49.6328  -28.5092    3.8562 H   0  0  0  0  0  0  0  0  0  0  0  0
  -44.0272  -29.3505    5.9519 H   0  0  0  0  0  0  0  0  0  0  0  0
  -50.4389  -28.6142    6.4507 H   0  0  0  0  0  0  0  0  0  0  0  0
  -48.9825  -32.1521    1.9033 H   0  0  0  0  0  0  0  0  0  0  0  0
  -48.2304  -32.0919    0.3269 H   0  0  0  0  0  0  0  0  0  0  0  0
  -47.2746  -33.8093    2.6789 H   0  0  0  0  0  0  0  0  0  0  0  0
  -46.5067  -33.7604    1.0710 H   0  0  0  0  0  0  0  0  0  0  0  0
  -46.9352  -31.2457    2.9840 H   0  0  0  0  0  0  0  0  0  0  0  0
  -47.2956  -27.7524    2.0854 H   0  0  0  0  0  0  0  0  0  0  0  0
  -48.3894  -28.9702    7.8478 H   0  0  0  0  0  0  0  0  0  0  0  0
  -48.5780  -29.7958    2.2106 H   0  0  0  0  0  0  0  0  0  0  0  0
  -47.9989  -35.4506    1.2877 H   0  0  0  0  0  0  0  0  0  0  0  0
  -45.7276  -28.5969    0.6970 H   0  0  0  0  0  0  0  0  0  0  0  0
  1  3  1  0  0  0  0
  1 10  2  0  0  0  0
  2  4  2  0  0  0  0
  2 10  1  0  0  0  0
  3 12  2  0  0  0  0
  4 12  1  0  0  0  0
  5  7  2  0  0  0  0
  5 11  1  0  0  0  0
  6  8  2  0  0  0  0
  6  9  1  0  0  0  0
  7 19  1  0  0  0  0
  8 20  1  0  0  0  0
  9 11  2  0  0  0  0
  9 13  1  0  0  0  0
 10 16  1  0  0  0  0
 11 17  1  0  0  0  0
 12 24  1  0  0  0  0
 13 19  2  0  0  0  0
 13 20  1  0  0  0  0
 14 15  1  0  0  0  0
 14 16  1  0  0  0  0
 15 22  1  0  0  0  0
 16 21  1  0  0  0  0
 17 21  1  0  0  0  0
 17 23  1  0  0  0  0
 18 24  1  0  0  0  0
 18 25  1  0  0  0  0
 18 26  1  0  0  0  0
 18 27  1  0  0  0  0
  1 28  1  0  0  0  0
  2 29  1  0  0  0  0
  3 30  1  0  0  0  0
  4 31  1  0  0  0  0
  5 32  1  0  0  0  0
  6 33  1  0  0  0  0
  7 34  1  0  0  0  0
  8 35  1  0  0  0  0
 14 36  1  0  0  0  0
 14 37  1  0  0  0  0
 15 38  1  0  0  0  0
 15 39  1  0  0  0  0
 16 40  1  0  0  0  0
 17 41  1  0  0  0  0
 20 42  1  0  0  0  0
 21 43  1  0  0  0  0
 22 44  1  0  0  0  0
 23 45  1  0  0  0  0
M  END
> <POSIT::Probability>
0.23

> <POSIT::Method>
HYBRID

> <ReceptorTitle>
UCSF-P4280-REFINED_LIGAND-BOUND-STATE_A__DU__LA1_A-201(A)

> <OMEGA_C>
ikEywnf2+sHEMP4/KH42wvtI+MHAkyO+f0Utwldm+8GwRK4/LIIxwte4+MGgvUi/URM1whmF6MFg
MYdAewREwpo35cGkL5dA0ig0wgCY6cGAzLJAJMpFwlOa5cFy7cBAhGE+wuaX5sF0xZdA4t02wnRn
+cH0zpw/hUw6wm765sGx23FAxeUswt5H+sGALL+8UOY8wv/I58G9ccJAQQtAwgziAMJwi7I/y8g9
wlx8BsLCps4/8Eg8wmLt+MHEl/M/hlI7wrDQ5cH1JhRASRskwngE88FYiIW+ku03wh9K6cFd4NFA
cHBBwuIp58EQ5dpAy68+wudd7sEOEt8/64pBwh9LCsLIN5E/gTs2wk+I5cGUKNM/Yggowlu1+sEI
0iG/GPEiwpuz88FI/IY/SL0lwhUB6cEUig+/x5Efwgv89MEge3S/IYIywtjX+8EdLERAjBA6wo0R
98FooUK/abEpwmWd/ME+yfo/UT4xwhjY98Fce+6/xsExwhTj6MGgrGFAB4hGwtYS5MF0zHZA2xsw
wsDN6sE0dr5AaMFJwvDp5MF5bM5AG+5DwsObAMJinvM/7+tAwideAMIQX6c+PBk9wrs8B8ITcytA
2gY6wqkKB8KSF4k/r707wiL3+cF3+T5AqC49wuQE3sG9dgVAuI5BwgvD58ExIftA109Cwtld7sEK
eg1A5f4/wl7NDcJo06Q/Eek2wm/G5MGsbjI/

> <OMEGA_E>
7YA4wQ==

> <OMEGA_NBR>
     23626

$$$$
CACHE3HI_1706_29
  -OEChem-03092622503D

 51 54  0     0  0  0  0  0  0999 V2000
  -43.9867  -31.2893    0.3788 C   0  0  0  0  0  0  0  0  0  0  0  0
  -43.2984  -28.9804    0.5592 C   0  0  0  0  0  0  0  0  0  0  0  0
  -42.6864  -31.6485    0.0238 C   0  0  0  0  0  0  0  0  0  0  0  0
  -41.9982  -29.3395    0.2042 C   0  0  0  0  0  0  0  0  0  0  0  0
  -46.6495  -28.8327    4.7936 C   0  0  0  0  0  0  0  0  0  0  0  0
  -44.2925  -29.9551    0.6466 C   0  0  0  0  0  0  0  0  0  0  0  0
  -41.6923  -30.6738   -0.0636 C   0  0  0  0  0  0  0  0  0  0  0  0
  -47.7859  -29.2148    5.4643 C   0  0  0  0  0  0  0  0  0  0  0  0
  -45.7091  -28.6065    5.8146 C   0  0  0  0  0  0  0  0  0  0  0  0
  -47.7962  -29.9502    1.4609 C   0  0  0  0  0  0  0  0  0  0  0  0
  -46.5686  -28.7163    3.3182 C   0  0  0  0  0  0  0  0  0  0  0  0
  -49.0760  -29.5789    4.8414 C   0  0  0  0  0  0  0  0  0  0  0  0
  -47.0240  -33.5630    0.7961 C   0  0  0  0  0  0  0  0  0  0  0  0
  -47.5167  -32.5853   -0.2669 C   0  0  0  0  0  0  0  0  0  0  0  0
  -46.9440  -32.9069    2.1709 C   0  0  0  0  0  0  0  0  0  0  0  0
  -46.6620  -31.3207   -0.3094 C   0  0  0  0  0  0  0  0  0  0  0  0
  -46.0860  -31.6434    2.1433 C   0  0  0  0  0  0  0  0  0  0  0  0
  -49.0774  -29.0612    3.3911 C   0  0  0  0  0  0  0  0  0  0  0  0
  -46.5297  -30.6546    1.0629 C   0  0  0  0  0  0  0  0  0  0  0  0
  -44.3087  -28.1727    5.6721 C   0  0  0  0  0  0  0  0  0  0  0  0
  -46.2106  -28.8312    7.0349 N   0  0  0  0  0  0  0  0  0  0  0  0
  -47.4818  -29.2028    6.7881 N   0  0  0  0  0  0  0  0  0  0  0  0
  -47.7875  -29.3046    2.7014 N   0  0  0  0  0  0  0  0  0  0  0  0
  -48.7651  -29.9742    0.6975 O   0  0  0  0  0  0  0  0  0  0  0  0
  -43.5037  -29.2584    5.2102 O   0  0  0  0  0  0  0  0  0  0  0  0
  -45.5694  -29.6024    0.9951 O   0  0  0  0  0  0  0  0  0  0  0  0
  -40.0888  -31.1179   -0.5030 Cl  0  0  0  0  0  0  0  0  0  0  0  0
  -44.7570  -32.0529    0.4452 H   0  0  0  0  0  0  0  0  0  0  0  0
  -43.5310  -27.9393    0.7664 H   0  0  0  0  0  0  0  0  0  0  0  0
  -42.4620  -32.6920   -0.1821 H   0  0  0  0  0  0  0  0  0  0  0  0
  -41.2342  -28.5692    0.1390 H   0  0  0  0  0  0  0  0  0  0  0  0
  -46.4521  -27.6691    3.0317 H   0  0  0  0  0  0  0  0  0  0  0  0
  -45.7113  -29.2805    2.9357 H   0  0  0  0  0  0  0  0  0  0  0  0
  -49.2278  -30.6632    4.8508 H   0  0  0  0  0  0  0  0  0  0  0  0
  -49.8968  -29.1156    5.4005 H   0  0  0  0  0  0  0  0  0  0  0  0
  -47.6942  -34.4287    0.8391 H   0  0  0  0  0  0  0  0  0  0  0  0
  -46.0331  -33.9396    0.5136 H   0  0  0  0  0  0  0  0  0  0  0  0
  -47.5009  -33.0716   -1.2490 H   0  0  0  0  0  0  0  0  0  0  0  0
  -48.5606  -32.3189   -0.0622 H   0  0  0  0  0  0  0  0  0  0  0  0
  -47.9546  -32.6598    2.5179 H   0  0  0  0  0  0  0  0  0  0  0  0
  -46.5266  -33.6175    2.8933 H   0  0  0  0  0  0  0  0  0  0  0  0
  -45.6607  -31.5729   -0.6816 H   0  0  0  0  0  0  0  0  0  0  0  0
  -47.0795  -30.6192   -1.0419 H   0  0  0  0  0  0  0  0  0  0  0  0
  -46.0992  -31.1691    3.1321 H   0  0  0  0  0  0  0  0  0  0  0  0
  -45.0393  -31.9215    1.9649 H   0  0  0  0  0  0  0  0  0  0  0  0
  -49.8436  -29.5845    2.8043 H   0  0  0  0  0  0  0  0  0  0  0  0
  -49.3358  -27.9974    3.3804 H   0  0  0  0  0  0  0  0  0  0  0  0
  -44.2011  -27.3406    4.9529 H   0  0  0  0  0  0  0  0  0  0  0  0
  -43.8829  -27.8173    6.6287 H   0  0  0  0  0  0  0  0  0  0  0  0
  -48.0788  -29.4310    7.5735 H   0  0  0  0  0  0  0  0  0  0  0  0
  -42.6004  -28.9161    5.1361 H   0  0  0  0  0  0  0  0  0  0  0  0
  1  3  1  0  0  0  0
  1  6  2  0  0  0  0
  2  4  2  0  0  0  0
  2  6  1  0  0  0  0
  3  7  2  0  0  0  0
  4  7  1  0  0  0  0
  5  8  2  0  0  0  0
  5  9  1  0  0  0  0
  5 11  1  0  0  0  0
  6 26  1  0  0  0  0
  7 27  1  0  0  0  0
  8 12  1  0  0  0  0
  8 22  1  0  0  0  0
  9 20  1  0  0  0  0
  9 21  2  0  0  0  0
 10 19  1  0  0  0  0
 10 23  1  0  0  0  0
 10 24  2  0  0  0  0
 11 23  1  0  0  0  0
 12 18  1  0  0  0  0
 13 14  1  0  0  0  0
 13 15  1  0  0  0  0
 14 16  1  0  0  0  0
 15 17  1  0  0  0  0
 16 19  1  0  0  0  0
 17 19  1  0  0  0  0
 18 23  1  0  0  0  0
 19 26  1  0  0  0  0
 20 25  1  0  0  0  0
 21 22  1  0  0  0  0
  1 28  1  0  0  0  0
  2 29  1  0  0  0  0
  3 30  1  0  0  0  0
  4 31  1  0  0  0  0
 11 32  1  0  0  0  0
 11 33  1  0  0  0  0
 12 34  1  0  0  0  0
 12 35  1  0  0  0  0
 13 36  1  0  0  0  0
 13 37  1  0  0  0  0
 14 38  1  0  0  0  0
 14 39  1  0  0  0  0
 15 40  1  0  0  0  0
 15 41  1  0  0  0  0
 16 42  1  0  0  0  0
 16 43  1  0  0  0  0
 17 44  1  0  0  0  0
 17 45  1  0  0  0  0
 18 46  1  0  0  0  0
 18 47  1  0  0  0  0
 20 48  1  0  0  0  0
 20 49  1  0  0  0  0
 22 50  1  0  0  0  0
 25 51  1  0  0  0  0
M  END
> <POSIT::Probability>
0.18

> <POSIT::Method>
FRED

> <ReceptorTitle>
UCSF-P4280-REFINED_LIGAND-BOUND-STATE_A__DU__LA1_A-201(A)

> <OMEGA_C>
WfIvwoVQ+sHA9ME+iDEtwsfX58F8Jg8/474qwjMw/cEAWsM8HP4nwl636sFQIFE+Cpk6wnWp5sEd
ZZlAgysxwgCk78H4iCU/6MQmwvxj9cEAPYK9uSQ/wta36cHP265AGtY2wgra5ME+EbpAWi8/wveZ
78GW/bo/OkY6wga75cEGXVRAz01EwrCh7MHD7JpAiBg8wnhABsLMy0s/FhE+wllXAsJQp4i+nMY7
wqCgA8JM8ApA6qU6wrGQ+sHgbp6+Glg4wp4l/cF3LAlAPU9EwlZ96MEaCFlAXR46wqE89cF+DIg/
ETwxwpdh4cHOgbVAndc4wkym5sH4HeFAXu09wl+f6cEOONlAZCY/wuBv6sHx4yxAbQ9DwjzL78Eo
jjI/vQMuwjQR6sHquaZAHEc2wsXR7MF8wH4/9logwnvx+MF4wwC/JQczwik2AMKA8eM+tB8uwp2D
38H4MUQ/I9kpwpnEAsIgcjq+0O8kwqeN5MHgUA4+6c45wlta3cHgB0JAVdg2wmg+6sHU4jtAPOlE
wkhO9cF3OZtAR5ZHwqrs6MHQ0KxA3cY+wvO2CcIgzVY/8CE4wijCB8KwfQM/7AA+wlJJBMIQ3p+/
Ez5CwotGAcKA7H69fdE/wpqjAsLrJSFAPBs6wlV4BsJ1KzlAh6Q2wkuV/MHwfC6/a1E8wi709MEE
XIW/nWU4wkxa+cEVdEhARSg0wkJf/8FIgPs/2l9HwhOt7MGpeTNA51dFwqn638HwV1hA8M0wwny5
2sHPfZ5ADIgvwsSJ3sFWHtRAsFBAwqNy68H8WfJA22YqwjFU58GuWqRA

> <OMEGA_E>
HEwfwQ==

> <OMEGA_NBR>
     25141

$$$$
CACHE3HI_1706_35
  -OEChem-03092622503D

 36 38  0     1  0  0  0  0  0999 V2000
  -44.4561  -29.4775    4.4523 C   0  0  0  0  0  0  0  0  0  0  0  0
  -48.1849  -28.8091    4.6050 C   0  0  0  0  0  0  0  0  0  0  0  0
  -43.3125  -31.6439    0.0670 C   0  0  0  0  0  0  0  0  0  0  0  0
  -44.3478  -29.5333    5.8352 C   0  0  0  0  0  0  0  0  0  0  0  0
  -48.7347  -28.7429    5.8673 C   0  0  0  0  0  0  0  0  0  0  0  0
  -46.7962  -29.0635    4.7541 C   0  0  0  0  0  0  0  0  0  0  0  0
  -45.7061  -29.2373    3.8856 C   0  0  0  0  0  0  0  0  0  0  0  0
  -44.1779  -30.5889    0.1875 C   0  0  0  0  0  0  0  0  0  0  0  0
  -46.5459  -29.1444    6.1210 C   0  0  0  0  0  0  0  0  0  0  0  0
  -42.0520  -31.0320   -0.0401 C   0  0  0  0  0  0  0  0  0  0  0  0
  -46.4908  -31.6184   -0.3229 C   0  0  0  0  0  0  0  0  0  0  0  0
  -46.1725  -29.1479   -0.2801 C   0  0  0  0  0  0  0  0  0  0  0  0
  -45.8321  -29.1756    2.3988 C   0  0  2  0  0  0  0  0  0  0  0  0
  -45.6998  -30.4760    0.3421 C   0  0  0  0  0  0  0  0  0  0  0  0
  -45.3613  -29.3737    6.7182 N   0  0  0  0  0  0  0  0  0  0  0  0
  -42.1292  -29.6995    0.0100 N   0  0  0  0  0  0  0  0  0  0  0  0
  -47.7317  -28.9477    6.7792 N   0  0  0  0  0  0  0  0  0  0  0  0
  -46.0476  -30.4877    1.7590 N   0  0  0  0  0  0  0  0  0  0  0  0
  -43.4831  -29.4223    0.1544 O   0  0  0  0  0  0  0  0  0  0  0  0
  -44.6381  -28.5660    1.8834 O   0  0  0  0  0  0  0  0  0  0  0  0
  -40.5659  -31.8233   -0.2174 Cl  0  0  0  0  0  0  0  0  0  0  0  0
  -43.5772  -29.6198    3.8312 H   0  0  0  0  0  0  0  0  0  0  0  0
  -48.7301  -28.6874    3.6790 H   0  0  0  0  0  0  0  0  0  0  0  0
  -43.5602  -32.6953    0.0572 H   0  0  0  0  0  0  0  0  0  0  0  0
  -43.3802  -29.7200    6.2934 H   0  0  0  0  0  0  0  0  0  0  0  0
  -49.7494  -28.5694    6.1968 H   0  0  0  0  0  0  0  0  0  0  0  0
  -47.5711  -31.4993   -0.1889 H   0  0  0  0  0  0  0  0  0  0  0  0
  -46.2817  -31.6773   -1.3976 H   0  0  0  0  0  0  0  0  0  0  0  0
  -46.2155  -32.5894    0.1073 H   0  0  0  0  0  0  0  0  0  0  0  0
  -47.2576  -29.0185   -0.1952 H   0  0  0  0  0  0  0  0  0  0  0  0
  -45.9329  -29.1043   -1.3492 H   0  0  0  0  0  0  0  0  0  0  0  0
  -45.6966  -28.2883    0.2068 H   0  0  0  0  0  0  0  0  0  0  0  0
  -46.6484  -28.4975    2.0948 H   0  0  0  0  0  0  0  0  0  0  0  0
  -47.8478  -28.9527    7.7830 H   0  0  0  0  0  0  0  0  0  0  0  0
  -47.0301  -30.7466    1.8479 H   0  0  0  0  0  0  0  0  0  0  0  0
  -44.7228  -28.5271    0.9156 H   0  0  0  0  0  0  0  0  0  0  0  0
  1  4  2  0  0  0  0
  1  7  1  0  0  0  0
  2  5  2  0  0  0  0
  2  6  1  0  0  0  0
  3  8  2  0  0  0  0
  3 10  1  0  0  0  0
  4 15  1  0  0  0  0
  5 17  1  0  0  0  0
  6  7  2  0  0  0  0
  6  9  1  0  0  0  0
  7 13  1  0  0  0  0
  8 14  1  0  0  0  0
  8 19  1  0  0  0  0
  9 15  2  0  0  0  0
  9 17  1  0  0  0  0
 10 16  2  0  0  0  0
 10 21  1  0  0  0  0
 11 14  1  0  0  0  0
 12 14  1  0  0  0  0
 13 18  1  0  0  0  0
 13 20  1  0  0  0  0
 14 18  1  0  0  0  0
 16 19  1  0  0  0  0
  1 22  1  0  0  0  0
  2 23  1  0  0  0  0
  3 24  1  0  0  0  0
  4 25  1  0  0  0  0
  5 26  1  0  0  0  0
 11 27  1  0  0  0  0
 11 28  1  0  0  0  0
 11 29  1  0  0  0  0
 12 30  1  0  0  0  0
 12 31  1  0  0  0  0
 12 32  1  0  0  0  0
 13 33  1  0  0  0  0
 17 34  1  0  0  0  0
 18 35  1  0  0  0  0
 20 36  1  0  0  0  0
M  END
> <POSIT::Probability>
0.5

> <POSIT::Method>
HYBRID

> <ReceptorTitle>
UCSF-P4280-REFINED_LIGAND-BOUND-STATE_A__DU__LA1_A-201(A)

> <OMEGA_C>
CdMxwtPR68HYeI5AXb1AwvZ45sEUXJNABEAtwr8m/cEANok9LGQxwhlE7MHvubpATfBCwmbx5cEu
wbtARy87whSC6MEzIZhA/9I2wgTm6cFyrnhALrYwwvu19MFA9j8+Cy86wsIn6cEF38NAQDUowpZB
+MEAIyS9n/Y5wn/y/MFwTqW+l7A4wuou6cHwaY++ClQ3wq1n6cEshhlApcw2wvLO88GQIa8+7XE1
wlT96sG4+9ZAT4Qowo6Y7cEABiQ8Oe0+wvaU58Hg7thAsjA4wt/m88EsJ+E/ue4twtZg68FAFh4+
ZY0ywhaH5MGMEvE/dUMiwiiW/sGgll6+EU8uwlL17MGUMXVAm+tCwuB/5cEUdWtAmD0uwgjIAsIA
Wmo9SIUtwpLC7cF8Y8lAYP9GwhiO5MFPTMZAzUg+wpT++8FAdEG+diA5wjBr/cEQ5bK/o9w4woZb
AsIAuNs9vQc9wvol6MHA7ke+ULs3woTV6MEotKy/T8k2woRO4sGgxlM+7Jc6wvn648GiEQZAJ2Q/
wjKf58FODvlAxx48wh/59cFsh+w/JOQywng35MHoZGo/

> <OMEGA_E>
hgskwQ==

> <OMEGA_NBR>
     26363

$$$$
CACHE3HI_1708_68
  -OEChem-03092622503D

 39 41  0     1  0  0  0  0  0999 V2000
  -48.3142  -28.5619    4.7983 C   0  0  0  0  0  0  0  0  0  0  0  0
  -48.8566  -28.7804    6.0413 C   0  0  0  0  0  0  0  0  0  0  0  0
  -44.3641  -29.4085    5.7555 C   0  0  0  0  0  0  0  0  0  0  0  0
  -46.8704  -28.8123    4.9002 C   0  0  0  0  0  0  0  0  0  0  0  0
  -45.7883  -28.7757    3.9830 C   0  0  0  0  0  0  0  0  0  0  0  0
  -46.6247  -29.1798    6.2296 C   0  0  0  0  0  0  0  0  0  0  0  0
  -46.0085  -28.5893    2.5080 C   0  0  0  0  0  0  0  0  0  0  0  0
  -42.8554  -27.6217    0.6118 C   0  0  0  0  0  0  0  0  0  0  0  0
  -42.7677  -28.7024   -0.4977 C   0  0  0  0  0  0  0  0  0  0  0  0
  -43.6068  -28.0688    1.8848 C   0  0  0  0  0  0  0  0  0  0  0  0
  -45.2118  -29.1647    0.2195 C   0  0  0  0  0  0  0  0  0  0  0  0
  -43.9515  -29.7141   -0.4964 C   0  0  2  0  0  0  0  0  0  0  0  0
  -43.6521  -31.5846    2.3375 C   0  0  0  0  0  0  0  0  0  0  0  0
  -42.7801  -31.2352    1.1279 C   0  0  0  0  0  0  0  0  0  0  0  0
  -44.5486  -29.0614    4.4561 N   0  0  0  0  0  0  0  0  0  0  0  0
  -45.3813  -29.4861    6.6427 N   0  0  0  0  0  0  0  0  0  0  0  0
  -47.8337  -29.1560    6.9059 N   0  0  0  0  0  0  0  0  0  0  0  0
  -44.9495  -28.6200    1.5725 N   0  0  0  0  0  0  0  0  0  0  0  0
  -47.1555  -28.6340    2.0736 O   0  0  0  0  0  0  0  0  0  0  0  0
  -42.9009  -31.3569    3.5243 O   0  0  0  0  0  0  0  0  0  0  0  0
  -43.5766  -31.0686   -0.0754 O   0  0  0  0  0  0  0  0  0  0  0  0
  -48.8503  -28.2614    3.9102 H   0  0  0  0  0  0  0  0  0  0  0  0
  -49.8994  -28.6780    6.3027 H   0  0  0  0  0  0  0  0  0  0  0  0
  -43.3633  -29.6320    6.0945 H   0  0  0  0  0  0  0  0  0  0  0  0
  -41.8314  -27.3401    0.8985 H   0  0  0  0  0  0  0  0  0  0  0  0
  -43.3742  -26.7450    0.1969 H   0  0  0  0  0  0  0  0  0  0  0  0
  -42.7485  -28.1947   -1.4733 H   0  0  0  0  0  0  0  0  0  0  0  0
  -41.8327  -29.2649   -0.3586 H   0  0  0  0  0  0  0  0  0  0  0  0
  -43.0142  -28.8435    2.3935 H   0  0  0  0  0  0  0  0  0  0  0  0
  -43.7249  -27.2013    2.5508 H   0  0  0  0  0  0  0  0  0  0  0  0
  -45.6383  -28.3617   -0.3996 H   0  0  0  0  0  0  0  0  0  0  0  0
  -45.9410  -29.9831    0.3119 H   0  0  0  0  0  0  0  0  0  0  0  0
  -44.2448  -29.8024   -1.5528 H   0  0  0  0  0  0  0  0  0  0  0  0
  -44.5508  -30.9503    2.3412 H   0  0  0  0  0  0  0  0  0  0  0  0
  -43.9499  -32.6423    2.2856 H   0  0  0  0  0  0  0  0  0  0  0  0
  -42.2437  -30.2972    1.3337 H   0  0  0  0  0  0  0  0  0  0  0  0
  -42.0536  -32.0451    0.9658 H   0  0  0  0  0  0  0  0  0  0  0  0
  -47.9535  -29.3766    7.8739 H   0  0  0  0  0  0  0  0  0  0  0  0
  -43.4326  -31.5706    4.2820 H   0  0  0  0  0  0  0  0  0  0  0  0
  1  2  2  0  0  0  0
  1  4  1  0  0  0  0
  2 17  1  0  0  0  0
  3 15  2  0  0  0  0
  3 16  1  0  0  0  0
  4  5  2  0  0  0  0
  4  6  1  0  0  0  0
  5  7  1  0  0  0  0
  5 15  1  0  0  0  0
  6 16  2  0  0  0  0
  6 17  1  0  0  0  0
  7 18  1  0  0  0  0
  7 19  2  0  0  0  0
  8  9  1  0  0  0  0
  8 10  1  0  0  0  0
  9 12  1  0  0  0  0
 10 18  1  0  0  0  0
 11 12  1  0  0  0  0
 11 18  1  0  0  0  0
 12 21  1  0  0  0  0
 13 14  1  0  0  0  0
 13 20  1  0  0  0  0
 14 21  1  0  0  0  0
  1 22  1  0  0  0  0
  2 23  1  0  0  0  0
  3 24  1  0  0  0  0
  8 25  1  0  0  0  0
  8 26  1  0  0  0  0
  9 27  1  0  0  0  0
  9 28  1  0  0  0  0
 10 29  1  0  0  0  0
 10 30  1  0  0  0  0
 11 31  1  0  0  0  0
 11 32  1  0  0  0  0
 12 33  1  0  0  0  0
 13 34  1  0  0  0  0
 13 35  1  0  0  0  0
 14 36  1  0  0  0  0
 14 37  1  0  0  0  0
 17 38  1  0  0  0  0
 20 39  1  0  0  0  0
M  END
> <POSIT::Probability>
0.5

> <POSIT::Method>
SHAPEFIT

> <ReceptorTitle>
UCSF-P4280-REFINED_LIGAND-BOUND-STATE_A__DU__LA1_A-201(A)

> <OMEGA_C>
wEFBwrl+5MGoi5lAIW1DwkI+5sEmUsFAy3QxwrRE68H6LLhASXs7wqF/5sGTzpxAPic3wpo05sEQ
6X5Aq386wilw6cEsWcdAsQg4wvq25MGqgiBA52srwkj53MHgnBw/HxIrwnie5cFAzv6+U20uwviM
4MEEQvE/6Ng0wl1R6cGAwWA+W84vwo227cEAIv6+tZsuwk6t/MGmmRVA3x4rwsbh+cH4X5A/yjEy
wtd96ME3mI5AfoY1woDj68FJkdRAuVU/wnc/6cEa/dxAU8wzwsn15MEMSMk/RZ88wncS5cFItQRA
j5orwtza+sHYjWFAaE4uwnmM+MGAgpq9s2ZDwm0X4sFlQHpACJlHwp5s5cGer8lAAXQtwkkO7cFI
BsNAX1MnwoS42sHwAmY/N38twr311cF4nEk+fP4qws2O4cEplry/qlQnwnQe6sF+lre+kQ4swpW/
5sGsLhlATuYuwlac2cHxPyNApY02wsDk4sFrlMy+osM3wljd78FIrZ8+svowwk1r7sHHw8a//DMy
wk2a98GI1RVAt8wvwquRAsLURhJAkvkowqtg8sFotao/7TYowjMuAMKgPnc/WtA/wjED68Hk9vtA
AbstwoqQ/MEmBolA

> <OMEGA_E>
KBo7Pw==

> <OMEGA_NBR>
     27667

$$$$
CACHE3HI_1708_87
  -OEChem-03092622503D

 42 44  0     1  0  0  0  0  0999 V2000
  -48.2204  -28.6064    4.6143 C   0  0  0  0  0  0  0  0  0  0  0  0
  -48.8876  -28.5867    5.8131 C   0  0  0  0  0  0  0  0  0  0  0  0
  -44.4419  -29.5041    6.0982 C   0  0  0  0  0  0  0  0  0  0  0  0
  -46.8231  -28.9921    4.8866 C   0  0  0  0  0  0  0  0  0  0  0  0
  -46.7179  -29.0818    6.2821 C   0  0  0  0  0  0  0  0  0  0  0  0
  -45.6607  -29.2226    4.0949 C   0  0  0  0  0  0  0  0  0  0  0  0
  -46.6127  -30.9222    1.1438 C   0  0  0  0  0  0  0  0  0  0  0  0
  -45.3170  -30.8775    0.3195 C   0  0  0  0  0  0  0  0  0  0  0  0
  -46.8596  -29.5909    1.8612 C   0  0  0  0  0  0  0  0  0  0  0  0
  -44.3961  -29.1045    1.8851 C   0  0  0  0  0  0  0  0  0  0  0  0
  -44.0621  -30.4516    1.1498 C   0  0  1  0  0  0  0  0  0  0  0  0
  -41.9461  -29.0800    0.3573 C   0  0  0  0  0  0  0  0  0  0  0  0
  -42.0274  -31.5408   -0.1101 C   0  0  0  0  0  0  0  0  0  0  0  0
  -43.7761  -31.5627    2.2296 C   0  0  0  0  0  0  0  0  0  0  0  0
  -42.8886  -30.2681    0.0791 C   0  0  0  0  0  0  0  0  0  0  0  0
  -45.5372  -29.3381    6.8731 N   0  0  0  0  0  0  0  0  0  0  0  0
  -44.4871  -29.4562    4.7427 N   0  0  0  0  0  0  0  0  0  0  0  0
  -47.9766  -28.8690    6.8219 N   0  0  0  0  0  0  0  0  0  0  0  0
  -45.6657  -29.2124    2.6727 N   0  0  3  0  0  0  0  0  0  0  0  0
  -42.6495  -31.2542    3.0440 O   0  0  0  0  0  0  0  0  0  0  0  0
  -48.6423  -28.3803    3.6461 H   0  0  0  0  0  0  0  0  0  0  0  0
  -49.9402  -28.3861    5.9487 H   0  0  0  0  0  0  0  0  0  0  0  0
  -43.4909  -29.6822    6.5781 H   0  0  0  0  0  0  0  0  0  0  0  0
  -47.4584  -31.1299    0.4717 H   0  0  0  0  0  0  0  0  0  0  0  0
  -46.5339  -31.7241    1.8926 H   0  0  0  0  0  0  0  0  0  0  0  0
  -45.1349  -31.8791   -0.0972 H   0  0  0  0  0  0  0  0  0  0  0  0
  -45.4516  -30.1578   -0.5014 H   0  0  0  0  0  0  0  0  0  0  0  0
  -47.0549  -28.8069    1.1148 H   0  0  0  0  0  0  0  0  0  0  0  0
  -47.7319  -29.6918    2.5238 H   0  0  0  0  0  0  0  0  0  0  0  0
  -43.5710  -28.8556    2.5685 H   0  0  0  0  0  0  0  0  0  0  0  0
  -44.5060  -28.3059    1.1367 H   0  0  0  0  0  0  0  0  0  0  0  0
  -41.1749  -29.0319   -0.4256 H   0  0  0  0  0  0  0  0  0  0  0  0
  -42.5256  -28.1450    0.3589 H   0  0  0  0  0  0  0  0  0  0  0  0
  -41.4654  -29.2152    1.3375 H   0  0  0  0  0  0  0  0  0  0  0  0
  -41.2431  -31.3458   -0.8563 H   0  0  0  0  0  0  0  0  0  0  0  0
  -41.5617  -31.8140    0.8483 H   0  0  0  0  0  0  0  0  0  0  0  0
  -42.6656  -32.3671   -0.4564 H   0  0  0  0  0  0  0  0  0  0  0  0
  -44.6611  -31.6634    2.8752 H   0  0  0  0  0  0  0  0  0  0  0  0
  -43.5882  -32.5159    1.7138 H   0  0  0  0  0  0  0  0  0  0  0  0
  -43.3789  -30.0688   -0.8852 H   0  0  0  0  0  0  0  0  0  0  0  0
  -48.1965  -28.9126    7.7964 H   0  0  0  0  0  0  0  0  0  0  0  0
  -42.5163  -31.9495    3.6775 H   0  0  0  0  0  0  0  0  0  0  0  0
  1  2  2  0  0  0  0
  1  4  1  0  0  0  0
  2 18  1  0  0  0  0
  3 16  2  0  0  0  0
  3 17  1  0  0  0  0
  4  5  2  0  0  0  0
  4  6  1  0  0  0  0
  5 16  1  0  0  0  0
  5 18  1  0  0  0  0
  6 17  2  0  0  0  0
  6 19  1  0  0  0  0
  7  8  1  0  0  0  0
  7  9  1  0  0  0  0
  8 11  1  0  0  0  0
  9 19  1  0  0  0  0
 10 11  1  0  0  0  0
 10 19  1  0  0  0  0
 11 14  1  0  0  0  0
 11 15  1  0  0  0  0
 12 15  1  0  0  0  0
 13 15  1  0  0  0  0
 14 20  1  0  0  0  0
  1 21  1  0  0  0  0
  2 22  1  0  0  0  0
  3 23  1  0  0  0  0
  7 24  1  0  0  0  0
  7 25  1  0  0  0  0
  8 26  1  0  0  0  0
  8 27  1  0  0  0  0
  9 28  1  0  0  0  0
  9 29  1  0  0  0  0
 10 30  1  0  0  0  0
 10 31  1  0  0  0  0
 12 32  1  0  0  0  0
 12 33  1  0  0  0  0
 12 34  1  0  0  0  0
 13 35  1  0  0  0  0
 13 36  1  0  0  0  0
 13 37  1  0  0  0  0
 14 38  1  0  0  0  0
 14 39  1  0  0  0  0
 15 40  1  0  0  0  0
 18 41  1  0  0  0  0
 20 42  1  0  0  0  0
M  END
> <POSIT::Probability>
0.91

> <POSIT::Method>
SHAPEFIT

> <ReceptorTitle>
UCSF-P4280-REFINED_LIGAND-BOUND-STATE_A__DU__LA1_A-201(A)

> <OMEGA_C>
u+FAwtnZ5MFSqJNA8YxDwn+x5MFMBbpAfcQxwlEI7MGiJMNA40o7wsrv58ESX5xAJd86wpKn6MGc
BslAmKQ2wuLH6cFWCYNAXXM6wsJg98GWZpI/kkQ1whkF98FUlKM+R3A7wji67MG0PO4/qJUxwv/V
6MHZSvE/kj8wwvqc88HyK5M/zcgnwt2j6MHQ8bY+FBwowodT/MHQa+G9wBovwnGA/MEYsg5A640r
wh4l8sGQBaI9HSY2wmu06sHC8NtA0PIxwjqm68How5dAAOg/ws/z5sGyTNpApKk2wuay6cE4DStA
IJkqwpgI+sEY0EJAs5FCws0K48FZWmlAuMJHwqYW48F7W75ArvYtwj517cG9f9JAYdU9wgIK+cHc
g/E+wSI6wgbL/cHzQPI/KYo0wnAI/8G7+8a9Zs41wihD8cEJXgC/OTg8wn505sH8sY4/d+0+wtKI
7cHdhSFAq0guwi/Y5sEQYyRAHwYywmly4sGMfpE/HbMkwmVB6MGR6dm+MhoqwgUp4cHow7c+l9wl
wqS46cHiMas/8vgkwkfE+sE5Nlu/OD8mwieD/sEqKlk/m6kqwuB3AcKQrem+86Qywp1O/cF5AjhA
SVouwlEQAsKdXts/C4QtwtiM8MF6mWK/OMlAwgJN58EifPlApxAqwnuY/8HOW2tA

> <OMEGA_E>
gM31PQ==

> <OMEGA_NBR>
     29034

$$$$
CACHE3HI_1708_93
  -OEChem-03092622503D

 46 49  0     1  0  0  0  0  0999 V2000
  -48.1990  -28.7608    4.5856 C   0  0  0  0  0  0  0  0  0  0  0  0
  -48.8538  -28.7462    5.7894 C   0  0  0  0  0  0  0  0  0  0  0  0
  -44.3609  -29.4406    6.0327 C   0  0  0  0  0  0  0  0  0  0  0  0
  -46.7870  -29.0736    4.8574 C   0  0  0  0  0  0  0  0  0  0  0  0
  -46.6564  -29.1279    6.2478 C   0  0  0  0  0  0  0  0  0  0  0  0
  -45.6307  -29.2418    4.0593 C   0  0  0  0  0  0  0  0  0  0  0  0
  -44.8736  -31.7232   -0.5741 C   0  0  0  0  0  0  0  0  0  0  0  0
  -41.7078  -31.7840    0.1602 C   0  0  0  0  0  0  0  0  0  0  0  0
  -42.4705  -32.2064    1.4406 C   0  0  0  0  0  0  0  0  0  0  0  0
  -41.5327  -30.2582    0.0384 C   0  0  0  0  0  0  0  0  0  0  0  0
  -43.2492  -31.0539    2.1181 C   0  0  0  0  0  0  0  0  0  0  0  0
  -42.8552  -29.4661    0.1245 C   0  0  0  0  0  0  0  0  0  0  0  0
  -46.7946  -29.6673    1.8461 C   0  0  0  0  0  0  0  0  0  0  0  0
  -46.3342  -30.9554    1.1984 C   0  0  0  0  0  0  0  0  0  0  0  0
  -44.4570  -28.8277    1.8791 C   0  0  0  0  0  0  0  0  0  0  0  0
  -43.9219  -30.0714    1.1071 C   0  0  0  0  0  0  0  0  0  0  0  0
  -44.5008  -31.3019   -2.0018 C   0  0  0  0  0  0  0  0  0  0  0  0
  -45.4513  -29.3053    6.8234 N   0  0  0  0  0  0  0  0  0  0  0  0
  -44.4338  -29.4203    4.6791 N   0  0  0  0  0  0  0  0  0  0  0  0
  -47.9189  -28.9627    6.7950 N   0  0  0  0  0  0  0  0  0  0  0  0
  -45.6731  -29.1425    2.6569 N   0  0  2  0  0  0  0  0  0  0  0  0
  -45.0877  -30.7604    0.4191 N   0  0  0  0  0  0  0  0  0  0  0  0
  -45.3070  -32.8605   -0.4124 O   0  0  0  0  0  0  0  0  0  0  0  0
  -48.6382  -28.5767    3.6163 H   0  0  0  0  0  0  0  0  0  0  0  0
  -49.9133  -28.5929    5.9321 H   0  0  0  0  0  0  0  0  0  0  0  0
  -43.3950  -29.5698    6.4984 H   0  0  0  0  0  0  0  0  0  0  0  0
  -40.7119  -32.2508    0.1756 H   0  0  0  0  0  0  0  0  0  0  0  0
  -42.2678  -32.1434   -0.7157 H   0  0  0  0  0  0  0  0  0  0  0  0
  -43.1868  -32.9967    1.1716 H   0  0  0  0  0  0  0  0  0  0  0  0
  -41.7414  -32.6027    2.1626 H   0  0  0  0  0  0  0  0  0  0  0  0
  -40.8731  -29.9196    0.8509 H   0  0  0  0  0  0  0  0  0  0  0  0
  -41.0614  -30.0403   -0.9314 H   0  0  0  0  0  0  0  0  0  0  0  0
  -44.0344  -31.4910    2.7524 H   0  0  0  0  0  0  0  0  0  0  0  0
  -42.5483  -30.4820    2.7440 H   0  0  0  0  0  0  0  0  0  0  0  0
  -42.6214  -28.4448    0.4597 H   0  0  0  0  0  0  0  0  0  0  0  0
  -43.2984  -29.4294   -0.8816 H   0  0  0  0  0  0  0  0  0  0  0  0
  -47.0703  -28.9367    1.0714 H   0  0  0  0  0  0  0  0  0  0  0  0
  -47.6636  -29.8629    2.4915 H   0  0  0  0  0  0  0  0  0  0  0  0
  -46.1508  -31.7038    1.9835 H   0  0  0  0  0  0  0  0  0  0  0  0
  -47.1239  -31.3177    0.5238 H   0  0  0  0  0  0  0  0  0  0  0  0
  -43.6759  -28.4739    2.5682 H   0  0  0  0  0  0  0  0  0  0  0  0
  -44.6936  -28.0344    1.1548 H   0  0  0  0  0  0  0  0  0  0  0  0
  -44.6929  -32.1360   -2.6928 H   0  0  0  0  0  0  0  0  0  0  0  0
  -45.1074  -30.4334   -2.2980 H   0  0  0  0  0  0  0  0  0  0  0  0
  -43.4345  -31.0340   -2.0383 H   0  0  0  0  0  0  0  0  0  0  0  0
  -48.1273  -28.9947    7.7726 H   0  0  0  0  0  0  0  0  0  0  0  0
  1  2  2  0  0  0  0
  1  4  1  0  0  0  0
  2 20  1  0  0  0  0
  3 18  2  0  0  0  0
  3 19  1  0  0  0  0
  4  5  2  0  0  0  0
  4  6  1  0  0  0  0
  5 18  1  0  0  0  0
  5 20  1  0  0  0  0
  6 19  2  0  0  0  0
  6 21  1  0  0  0  0
  7 17  1  0  0  0  0
  7 22  1  0  0  0  0
  7 23  2  0  0  0  0
  8  9  1  0  0  0  0
  8 10  1  0  0  0  0
  9 11  1  0  0  0  0
 10 12  1  0  0  0  0
 11 16  1  0  0  0  0
 12 16  1  0  0  0  0
 13 14  1  0  0  0  0
 13 21  1  0  0  0  0
 14 22  1  0  0  0  0
 15 16  1  0  0  0  0
 15 21  1  0  0  0  0
 16 22  1  0  0  0  0
  1 24  1  0  0  0  0
  2 25  1  0  0  0  0
  3 26  1  0  0  0  0
  8 27  1  0  0  0  0
  8 28  1  0  0  0  0
  9 29  1  0  0  0  0
  9 30  1  0  0  0  0
 10 31  1  0  0  0  0
 10 32  1  0  0  0  0
 11 33  1  0  0  0  0
 11 34  1  0  0  0  0
 12 35  1  0  0  0  0
 12 36  1  0  0  0  0
 13 37  1  0  0  0  0
 13 38  1  0  0  0  0
 14 39  1  0  0  0  0
 14 40  1  0  0  0  0
 15 41  1  0  0  0  0
 15 42  1  0  0  0  0
 17 43  1  0  0  0  0
 17 44  1  0  0  0  0
 17 45  1  0  0  0  0
 20 46  1  0  0  0  0
M  END
> <POSIT::Probability>
0.79

> <POSIT::Method>
SHAPEFIT

> <ReceptorTitle>
UCSF-P4280-REFINED_LIGAND-BOUND-STATE_A__DU__LA1_A-201(A)

> <OMEGA_C>
yMtAwg0W5sH4vJJAT2pDwi345cHLQrlAhnExwmSG68HIC8FA3CU7wrOW6MFzb5tAMaA6wtkF6cFG
7sdA2oU2wj/v6cH75YFAnn4zwirJ/cHa9xK/0dQmwqRF/sHIFiQ+wuEpwmDTAMKgZLg/fCEmwrEQ
8sHANB09JP8swk9u+MFOjwdAt2srwpa668Gw6P49tS07wrtW7cEeTOw/PFY5wpuk98GYZpk/7NMx
wg6f5sH6h/A/AbAvwjGS8MHyto0/xQAywlhq+sH7HQDAJM41wjVx6sEvWdpAMrwxws9c68F1u5VA
+Kw/wqCz58H5cNlASLE2wuMj6cH8CipAzFk0wjMV9sFQj9Y+azo1wiVxA8LQIdO+kI1Cwvyc5MGv
cGdAPadHwki+5MHi071AhZQtwgGP7MHx8s9AANkiwtYAAcIW1jM+MRIpwuCSAMJwODe/Tb8swpv8
A8KE+JU/J/cmwiRpAsK5aApABn4jwklb78E611k/3j4kwotS8MEsbm6/NyMwwp3t+8FJJzBAbDEq
wjzb88Fani9AXXwqwgKP48GqWOs+lDEtwmNv68GSsWG/+kc8wlh+58HdIok/kac+wiHn7sEldR9A
apo4wlOh/cEn4v0/2H48wpSK+sGwFQY/KbQuwn/K48ERXiRAS8YywmNG4MH00JM/i8UywjyLAMLY
VizA9W00wqN388G+ERPA7rwtwqFF+MHBcgLAX4JAwib158HSuPhA

> <OMEGA_E>
fAUdPw==

> <OMEGA_NBR>
     30480

$$$$
CACHE3HI_1712_35
  -OEChem-03092622503D

 49 52  0     1  0  0  0  0  0999 V2000
  -50.5472  -29.2287    3.9762 C   0  0  0  0  0  0  0  0  0  0  0  0
  -49.9300  -28.5332    5.0159 C   0  0  0  0  0  0  0  0  0  0  0  0
  -46.7518  -32.4895    1.2179 C   0  0  0  0  0  0  0  0  0  0  0  0
  -47.7763  -29.3469    4.2831 C   0  0  0  0  0  0  0  0  0  0  0  0
  -46.6080  -30.2723    1.5845 C   0  0  0  0  0  0  0  0  0  0  0  0
  -49.7787  -29.9832    3.0898 C   0  0  0  0  0  0  0  0  0  0  0  0
  -46.0591  -31.3068    0.8589 C   0  0  0  0  0  0  0  0  0  0  0  0
  -48.3935  -30.0424    3.2434 C   0  0  0  0  0  0  0  0  0  0  0  0
  -48.5447  -28.5924    5.1694 C   0  0  0  0  0  0  0  0  0  0  0  0
  -47.7026  -32.1419    2.1520 C   0  0  0  0  0  0  0  0  0  0  0  0
  -40.8471  -29.6554    2.5725 C   0  0  0  0  0  0  0  0  0  0  0  0
  -42.4154  -28.5542    0.9218 C   0  0  0  0  0  0  0  0  0  0  0  0
  -43.7725  -29.2120    0.6182 C   0  0  0  0  0  0  0  0  0  0  0  0
  -42.5094  -31.1051   -0.2529 C   0  0  0  0  0  0  0  0  0  0  0  0
  -40.8641  -31.7271    1.6272 C   0  0  0  0  0  0  0  0  0  0  0  0
  -41.2384  -30.7281    0.5356 C   0  0  1  0  0  0  0  0  0  0  0  0
  -50.4710  -30.7171    1.9869 C   0  0  0  0  0  0  0  0  0  0  0  0
  -40.0541  -30.5213   -0.4188 C   0  0  0  0  0  0  0  0  0  0  0  0
  -44.9274  -31.1984   -0.1366 C   0  0  1  0  0  0  0  0  0  0  0  0
  -47.6060  -30.7920    2.3670 N   0  0  0  0  0  0  0  0  0  0  0  0
  -41.4545  -29.5516    1.3431 N   0  0  0  0  0  0  0  0  0  0  0  0
  -43.7104  -30.6825    0.4843 N   0  0  2  0  0  0  0  0  0  0  0  0
  -40.7890  -28.8130    3.4567 O   0  0  0  0  0  0  0  0  0  0  0  0
  -40.3126  -30.9164    2.6872 O   0  0  0  0  0  0  0  0  0  0  0  0
  -48.5971  -32.8868    2.7900 O   0  0  0  0  0  0  0  0  0  0  0  0
  -44.7087  -32.4693   -0.7445 O   0  0  0  0  0  0  0  0  0  0  0  0
  -47.7843  -27.7341    6.4532 Cl  0  0  0  0  0  0  0  0  0  0  0  0
  -51.6270  -29.1763    3.8659 H   0  0  0  0  0  0  0  0  0  0  0  0
  -50.5413  -27.9493    5.6990 H   0  0  0  0  0  0  0  0  0  0  0  0
  -46.5787  -33.4872    0.8375 H   0  0  0  0  0  0  0  0  0  0  0  0
  -46.6956  -29.3934    4.4042 H   0  0  0  0  0  0  0  0  0  0  0  0
  -46.3689  -29.2165    1.6062 H   0  0  0  0  0  0  0  0  0  0  0  0
  -42.0149  -28.0571    0.0313 H   0  0  0  0  0  0  0  0  0  0  0  0
  -42.5232  -27.7957    1.7047 H   0  0  0  0  0  0  0  0  0  0  0  0
  -44.4633  -28.9778    1.4355 H   0  0  0  0  0  0  0  0  0  0  0  0
  -44.2091  -28.7626   -0.2786 H   0  0  0  0  0  0  0  0  0  0  0  0
  -42.4898  -30.6942   -1.2414 H   0  0  0  0  0  0  0  0  0  0  0  0
  -42.5680  -32.1761   -0.3385 H   0  0  0  0  0  0  0  0  0  0  0  0
  -41.7207  -32.2697    2.0427 H   0  0  0  0  0  0  0  0  0  0  0  0
  -40.1080  -32.4535    1.3116 H   0  0  0  0  0  0  0  0  0  0  0  0
  -50.5526  -30.0945    1.0877 H   0  0  0  0  0  0  0  0  0  0  0  0
  -51.4912  -30.9959    2.2774 H   0  0  0  0  0  0  0  0  0  0  0  0
  -49.9177  -31.6283    1.7329 H   0  0  0  0  0  0  0  0  0  0  0  0
  -39.1729  -30.2574    0.1562 H   0  0  0  0  0  0  0  0  0  0  0  0
  -40.2899  -29.7224   -1.1138 H   0  0  0  0  0  0  0  0  0  0  0  0
  -39.8711  -31.4402   -0.9671 H   0  0  0  0  0  0  0  0  0  0  0  0
  -45.2196  -30.5162   -0.9432 H   0  0  0  0  0  0  0  0  0  0  0  0
  -48.5253  -33.8305    2.5133 H   0  0  0  0  0  0  0  0  0  0  0  0
  -45.5382  -32.7140   -1.1887 H   0  0  0  0  0  0  0  0  0  0  0  0
  1  2  2  0  0  0  0
  1  6  1  0  0  0  0
  2  9  1  0  0  0  0
  3  7  1  0  0  0  0
  3 10  2  0  0  0  0
  4  8  1  0  0  0  0
  4  9  2  0  0  0  0
  5  7  2  0  0  0  0
  5 20  1  0  0  0  0
  6  8  2  0  0  0  0
  6 17  1  0  0  0  0
  7 19  1  0  0  0  0
  8 20  1  0  0  0  0
  9 27  1  0  0  0  0
 10 20  1  0  0  0  0
 10 25  1  0  0  0  0
 11 21  1  0  0  0  0
 11 23  2  0  0  0  0
 11 24  1  0  0  0  0
 12 13  1  0  0  0  0
 12 21  1  0  0  0  0
 13 22  1  0  0  0  0
 14 16  1  0  0  0  0
 14 22  1  0  0  0  0
 15 16  1  0  0  0  0
 15 24  1  0  0  0  0
 16 18  1  0  0  0  0
 16 21  1  0  0  0  0
 19 22  1  0  0  0  0
 19 26  1  0  0  0  0
  1 28  1  0  0  0  0
  2 29  1  0  0  0  0
  3 30  1  0  0  0  0
  4 31  1  0  0  0  0
  5 32  1  0  0  0  0
 12 33  1  0  0  0  0
 12 34  1  0  0  0  0
 13 35  1  0  0  0  0
 13 36  1  0  0  0  0
 14 37  1  0  0  0  0
 14 38  1  0  0  0  0
 15 39  1  0  0  0  0
 15 40  1  0  0  0  0
 17 41  1  0  0  0  0
 17 42  1  0  0  0  0
 17 43  1  0  0  0  0
 18 44  1  0  0  0  0
 18 45  1  0  0  0  0
 18 46  1  0  0  0  0
 19 47  1  0  0  0  0
 25 48  1  0  0  0  0
 26 49  1  0  0  0  0
M  END
> <POSIT::Probability>
0.05

> <POSIT::Method>
FRED

> <ReceptorTitle>
UCSF-P4280-REFINED_LIGAND-BOUND-STATE_A__DU__LA1_A-201(A)

> <OMEGA_C>
WDBKwmTU6cGSeX5ATrhHwvhD5MEUgqBA3QE7wkP1AcJ145s/5Bo/wobG6sH0DolAjG46wqwt8sFR
0Mo/bx1HwrDd78EAwEVAezw4wmB0+sEJ4ls/8JJBwuFW8MEalE9A0C1Cwiq95MEibKVAas8+wkOR
AMLPuglAdWMjwk0+7cEspCRAV6kpwhZv5MEu+Ws/ERcvwh2y6cG1QR4/ogkqwkbX+MG4f4G+znQj
whrR/cH8SNA/JfQkwhjT9cGrHQk/ROJJwoi89cGqUf4/Xjcgwo0r9MHYcda+r7UzwmCW+cFY2gu+
j2w+wgVW9sGOfRdAcNElwq5p7MH96qs/dtcuwsB19cGc/Pc++CcjwvSA5sFtOl1AEkAhwrFU98Es
+ytAYmNCwiCMA8LCjjJAqdUywofgAcJclj6/JSM/wn7f3cGwgM5ABIJOwgJp6cGiandATCpKwiaY
38HUXbZAnFA6wubyBcJWaVY/QMg6wqYl68HZ7oxAzXk5wky76cHUl80/Og8owgB14MHAYAA9wRcq
wqtd3sFXNNo/Z9oxwqDS58GTvrc/JtYwwscZ5sHYpo6+lPUpwq6N9cG85p6/pkUqwla0AMIgUa2+
DOImwjUUAcJwuwJAoG4gwmvQAcIv46c/0DVKwpDB8MFiOYs/A/dNwp7398E+wRFAxatHwqgG/cGb
zt0/D7EcwjoP8sEm/h8+1CghwmDH7cHGkI6/+3sfwouF+8EilHe/1uA0wjUh9MH4cnG/7BlCwnJS
B8K02SBAEyc2whvbAsJkKJi/

> <OMEGA_E>
hofywA==

> <OMEGA_NBR>
     31964

$$$$
CACHE3HI_1715_14
  -OEChem-03092622503D

 42 44  0     1  0  0  0  0  0999 V2000
  -48.1517  -29.0884    4.4618 C   0  0  0  0  0  0  0  0  0  0  0  0
  -48.8797  -28.7572    5.5782 C   0  0  0  0  0  0  0  0  0  0  0  0
  -44.4236  -29.3635    6.2798 C   0  0  0  0  0  0  0  0  0  0  0  0
  -46.7545  -29.2372    4.8839 C   0  0  0  0  0  0  0  0  0  0  0  0
  -46.7149  -28.9587    6.2537 C   0  0  0  0  0  0  0  0  0  0  0  0
  -45.5835  -29.7287    4.2694 C   0  0  0  0  0  0  0  0  0  0  0  0
  -43.5352  -31.1782    2.2472 C   0  0  0  0  0  0  0  0  0  0  0  0
  -44.7301  -31.6914    3.0260 C   0  0  0  0  0  0  0  0  0  0  0  0
  -46.2168  -30.1370    1.8739 C   0  0  0  0  0  0  0  0  0  0  0  0
  -45.0655  -29.5662    0.9834 C   0  0  0  0  0  0  0  0  0  0  0  0
  -44.9244  -28.0655    1.3691 C   0  0  0  0  0  0  0  0  0  0  0  0
  -45.6121  -29.7448   -0.4568 C   0  0  0  0  0  0  0  0  0  0  0  0
  -42.6208  -31.1070   -0.9212 C   0  0  0  0  0  0  0  0  0  0  0  0
  -42.3214  -28.6555   -0.3110 C   0  0  0  0  0  0  0  0  0  0  0  0
  -42.5491  -30.0840    0.2294 C   0  0  0  0  0  0  0  0  0  0  0  0
  -45.5603  -29.0484    6.9439 N   0  0  0  0  0  0  0  0  0  0  0  0
  -44.4211  -29.7120    4.9719 N   0  0  0  0  0  0  0  0  0  0  0  0
  -48.0130  -28.7030    6.6655 N   0  0  0  0  0  0  0  0  0  0  0  0
  -45.6768  -30.5780    3.1571 N   0  0  2  0  0  0  0  0  0  0  0  0
  -43.7162  -30.2726    1.1731 N   0  0  0  0  0  0  0  0  0  0  0  0
  -42.4438  -31.6715    2.5096 O   0  0  0  0  0  0  0  0  0  0  0  0
  -48.5358  -29.2155    3.4605 H   0  0  0  0  0  0  0  0  0  0  0  0
  -49.9430  -28.5707    5.6072 H   0  0  0  0  0  0  0  0  0  0  0  0
  -43.4847  -29.3359    6.8128 H   0  0  0  0  0  0  0  0  0  0  0  0
  -45.2020  -32.5250    2.4853 H   0  0  0  0  0  0  0  0  0  0  0  0
  -44.4115  -32.0338    4.0217 H   0  0  0  0  0  0  0  0  0  0  0  0
  -46.9695  -29.3533    2.0444 H   0  0  0  0  0  0  0  0  0  0  0  0
  -46.6854  -30.9905    1.3622 H   0  0  0  0  0  0  0  0  0  0  0  0
  -44.1235  -27.6063    0.7709 H   0  0  0  0  0  0  0  0  0  0  0  0
  -45.8734  -27.5455    1.1716 H   0  0  0  0  0  0  0  0  0  0  0  0
  -44.6769  -27.9834    2.4377 H   0  0  0  0  0  0  0  0  0  0  0  0
  -44.8721  -29.3704   -1.1794 H   0  0  0  0  0  0  0  0  0  0  0  0
  -45.8029  -30.8113   -0.6467 H   0  0  0  0  0  0  0  0  0  0  0  0
  -46.5494  -29.1795   -0.5658 H   0  0  0  0  0  0  0  0  0  0  0  0
  -42.7832  -32.1134   -0.5081 H   0  0  0  0  0  0  0  0  0  0  0  0
  -43.4536  -30.8471   -1.5913 H   0  0  0  0  0  0  0  0  0  0  0  0
  -41.6769  -31.0904   -1.4858 H   0  0  0  0  0  0  0  0  0  0  0  0
  -42.2744  -27.9480    0.5300 H   0  0  0  0  0  0  0  0  0  0  0  0
  -41.3754  -28.6220   -0.8714 H   0  0  0  0  0  0  0  0  0  0  0  0
  -43.1521  -28.3788   -0.9768 H   0  0  0  0  0  0  0  0  0  0  0  0
  -41.6453  -30.3372    0.8030 H   0  0  0  0  0  0  0  0  0  0  0  0
  -48.2872  -28.5079    7.6072 H   0  0  0  0  0  0  0  0  0  0  0  0
  1  2  2  0  0  0  0
  1  4  1  0  0  0  0
  2 18  1  0  0  0  0
  3 16  2  0  0  0  0
  3 17  1  0  0  0  0
  4  5  2  0  0  0  0
  4  6  1  0  0  0  0
  5 16  1  0  0  0  0
  5 18  1  0  0  0  0
  6 17  2  0  0  0  0
  6 19  1  0  0  0  0
  7  8  1  0  0  0  0
  7 20  1  0  0  0  0
  7 21  2  0  0  0  0
  8 19  1  0  0  0  0
  9 10  1  0  0  0  0
  9 19  1  0  0  0  0
 10 11  1  0  0  0  0
 10 12  1  0  0  0  0
 10 20  1  0  0  0  0
 13 15  1  0  0  0  0
 14 15  1  0  0  0  0
 15 20  1  0  0  0  0
  1 22  1  0  0  0  0
  2 23  1  0  0  0  0
  3 24  1  0  0  0  0
  8 25  1  0  0  0  0
  8 26  1  0  0  0  0
  9 27  1  0  0  0  0
  9 28  1  0  0  0  0
 11 29  1  0  0  0  0
 11 30  1  0  0  0  0
 11 31  1  0  0  0  0
 12 32  1  0  0  0  0
 12 33  1  0  0  0  0
 12 34  1  0  0  0  0
 13 35  1  0  0  0  0
 13 36  1  0  0  0  0
 13 37  1  0  0  0  0
 14 38  1  0  0  0  0
 14 39  1  0  0  0  0
 14 40  1  0  0  0  0
 15 41  1  0  0  0  0
 18 42  1  0  0  0  0
M  END
> <POSIT::Probability>
0.72

> <POSIT::Method>
SHAPEFIT

> <ReceptorTitle>
UCSF-P4280-REFINED_LIGAND-BOUND-STATE_A__DU__LA1_A-201(A)

> <OMEGA_C>
UptAwvi06MFfx45Ax4RDwrQO5sE+gLJAu7Exworo6sHg88hAlAQ7wuPl6cGQSJxAEdw6wlir58FK
HshAiVU2wkzU7cHqnohADCQuwv1s+cFp0Q9AoesywgiI/cFMqkFA9d04wpsY8cGL3e8/GUM0wouH
7MEQvns/orIzwhSG4MHgPa8/zHI2wlj17cGY2+m+vHsqwg3b+MFA0Wu/GkkpwoI+5cF4NZ++QTIq
wiGs8MEo3mo+xz02wjdj6MGyNN5AMa8xwj+y7cG4GZ9AVA1Awrif5cEMTNVADrU2wq6f9MHPDUpA
Yd0uwlQu8sEYJ5Y/bsYpwkBf/cG1nCBAsyRCwkK56cHkeF1ArMVHwraQ5MEnbrNATfAtwtav6sFe
AtpA3840wp4ZAsKfDh9AbaUxwpkiAMJ3sYBAzeA7wnnT6sFX1wJA5b06wo/s98HOXK4/gn4wwsrZ
3MHlXEU/aX43wiRd3ME39pU/GrUywvfd38FNAxxACn0zwqD26sE595a/LzY3wp199sExkCW/nTI6
wqZv6cGh1xC/+SErwih0AMIlEAK/ctAtwtTG9sGArsu/MbUmwg25+MEYLr6/BhkpwoaV38G+rgc/
c4AlwvX55MGwEV+/tJsswr0H48GAEnq/vpQmwqWy8sG0jk0/DyZBwi0Q5MFgbvNA

> <OMEGA_E>
Dg0nPw==

> <OMEGA_NBR>
     33325

$$$$
CACHE3HI_1715_20
  -OEChem-03092622503D

 34 37  0     1  0  0  0  0  0999 V2000
  -48.1895  -28.9136    4.5591 C   0  0  0  0  0  0  0  0  0  0  0  0
  -48.8587  -28.8165    5.7554 C   0  0  0  0  0  0  0  0  0  0  0  0
  -44.3604  -29.4026    6.1036 C   0  0  0  0  0  0  0  0  0  0  0  0
  -46.7685  -29.1372    4.8663 C   0  0  0  0  0  0  0  0  0  0  0  0
  -46.6607  -29.1096    6.2633 C   0  0  0  0  0  0  0  0  0  0  0  0
  -45.5898  -29.3236    4.0951 C   0  0  0  0  0  0  0  0  0  0  0  0
  -42.4673  -31.1943    0.1018 C   0  0  0  0  0  0  0  0  0  0  0  0
  -43.2116  -31.2062    1.4539 C   0  0  0  0  0  0  0  0  0  0  0  0
  -42.7721  -29.6826    0.0565 C   0  0  0  0  0  0  0  0  0  0  0  0
  -46.7532  -29.8744    1.8892 C   0  0  0  0  0  0  0  0  0  0  0  0
  -44.3880  -28.9381    1.9107 C   0  0  0  0  0  0  0  0  0  0  0  0
  -46.2882  -30.9042    0.8384 C   0  0  0  0  0  0  0  0  0  0  0  0
  -44.0254  -30.0213    0.8840 C   0  0  0  0  0  0  0  0  0  0  0  0
  -45.4655  -29.2442    6.8676 N   0  0  0  0  0  0  0  0  0  0  0  0
  -44.4057  -29.4470    4.7492 N   0  0  0  0  0  0  0  0  0  0  0  0
  -47.9318  -28.9304    6.7854 N   0  0  0  0  0  0  0  0  0  0  0  0
  -45.5837  -29.3897    2.6850 N   0  0  3  0  0  0  0  0  0  0  0  0
  -45.1656  -30.4083    0.0708 O   0  0  0  0  0  0  0  0  0  0  0  0
  -48.6265  -28.8394    3.5743 H   0  0  0  0  0  0  0  0  0  0  0  0
  -49.9228  -28.6758    5.8750 H   0  0  0  0  0  0  0  0  0  0  0  0
  -43.4022  -29.4977    6.5927 H   0  0  0  0  0  0  0  0  0  0  0  0
  -41.3988  -31.4495    0.1595 H   0  0  0  0  0  0  0  0  0  0  0  0
  -42.9432  -31.7865   -0.6937 H   0  0  0  0  0  0  0  0  0  0  0  0
  -43.7946  -32.1168    1.6564 H   0  0  0  0  0  0  0  0  0  0  0  0
  -42.5905  -30.9662    2.3294 H   0  0  0  0  0  0  0  0  0  0  0  0
  -42.0362  -29.0446    0.5678 H   0  0  0  0  0  0  0  0  0  0  0  0
  -42.9729  -29.2790   -0.9469 H   0  0  0  0  0  0  0  0  0  0  0  0
  -47.2249  -29.0216    1.3791 H   0  0  0  0  0  0  0  0  0  0  0  0
  -47.4821  -30.3469    2.5641 H   0  0  0  0  0  0  0  0  0  0  0  0
  -43.5420  -28.7799    2.5957 H   0  0  0  0  0  0  0  0  0  0  0  0
  -44.6188  -27.9972    1.3896 H   0  0  0  0  0  0  0  0  0  0  0  0
  -45.9889  -31.8294    1.3526 H   0  0  0  0  0  0  0  0  0  0  0  0
  -47.1224  -31.1184    0.1542 H   0  0  0  0  0  0  0  0  0  0  0  0
  -48.1504  -28.8889    7.7604 H   0  0  0  0  0  0  0  0  0  0  0  0
  1  2  2  0  0  0  0
  1  4  1  0  0  0  0
  2 16  1  0  0  0  0
  3 14  1  0  0  0  0
  3 15  2  0  0  0  0
  4  5  1  0  0  0  0
  4  6  2  0  0  0  0
  5 14  2  0  0  0  0
  5 16  1  0  0  0  0
  6 15  1  0  0  0  0
  6 17  1  0  0  0  0
  7  8  1  0  0  0  0
  7  9  1  0  0  0  0
  8 13  1  0  0  0  0
  9 13  1  0  0  0  0
 10 12  1  0  0  0  0
 10 17  1  0  0  0  0
 11 13  1  0  0  0  0
 11 17  1  0  0  0  0
 12 18  1  0  0  0  0
 13 18  1  0  0  0  0
  1 19  1  0  0  0  0
  2 20  1  0  0  0  0
  3 21  1  0  0  0  0
  7 22  1  0  0  0  0
  7 23  1  0  0  0  0
  8 24  1  0  0  0  0
  8 25  1  0  0  0  0
  9 26  1  0  0  0  0
  9 27  1  0  0  0  0
 10 28  1  0  0  0  0
 10 29  1  0  0  0  0
 11 30  1  0  0  0  0
 11 31  1  0  0  0  0
 12 32  1  0  0  0  0
 12 33  1  0  0  0  0
 16 34  1  0  0  0  0
M  END
> <POSIT::Probability>
0.79

> <POSIT::Method>
SHAPEFIT

> <ReceptorTitle>
UCSF-P4280-REFINED_LIGAND-BOUND-STATE_A__DU__LA1_A-201(A)

> <OMEGA_C>
AcJAwhxP58EU5JFAWm9Dwj+I5sFrLLhAA3Exwo0468FrUMNA5RI7wvIY6cEjuZtAkaQ6woXg6MEN
bchAAVw2wquW6sF4C4NAgN4pwgeO+cFgkNA9rNgswmWm+cGzGLo/qRYrwuV17cFgVWc9SQM7ws/+
7sH7z/E/W40xwiaB58E7kPQ/HCc5wtM798FmoFY/BBowwqUr8MGqSmI/oNw1wiz06cGzw9tAZp8x
wnaT68EN+ZdAMLo/wl9x58FNItlAtlU2wjQe68Fs1itAlqk0wk1E88EQ8JA9joFCwii35sHYwGRA
/LBHwiFo5cFhALxA25stwjL768HD99JAaJglwoSY+8FIUyM+4MUrwrtK/sGflDG/oC0vwpx3AMKH
BtQ/qFwqwrW698FRFRVAECUowmRb6MExWhE/R+Qrwk876sGAaHK/WeY8wj0s6MFFhrA/pu09wl7G
8sFCGiRADysuwi095sG9HyZAp3kywj/638HY3bE/n/Q3wqWi/sHaIa0/Xn08wony+MEB3B0+AZpA
wocc58EGVfhA

> <OMEGA_E>
gDEMPw==

> <OMEGA_NBR>
     34531

$$$$
CACHE3HI_1715_3
  -OEChem-03092622503D

 43 46  0     0  0  0  0  0  0999 V2000
  -40.9365  -30.3902    2.1341 C   0  0  0  0  0  0  0  0  0  0  0  0
  -41.6445  -31.4102    2.8167 C   0  0  0  0  0  0  0  0  0  0  0  0
  -47.9430  -28.7665    4.5598 C   0  0  0  0  0  0  0  0  0  0  0  0
  -48.6304  -28.5703    5.7387 C   0  0  0  0  0  0  0  0  0  0  0  0
  -44.3667  -29.6214    6.2401 C   0  0  0  0  0  0  0  0  0  0  0  0
  -46.6041  -29.0926    4.8959 C   0  0  0  0  0  0  0  0  0  0  0  0
  -46.5208  -29.0841    6.2827 C   0  0  0  0  0  0  0  0  0  0  0  0
  -45.4345  -29.3990    4.2015 C   0  0  0  0  0  0  0  0  0  0  0  0
  -41.3375  -30.4223    0.8164 C   0  0  0  0  0  0  0  0  0  0  0  0
  -42.4568  -32.0341    1.8956 C   0  0  0  0  0  0  0  0  0  0  0  0
  -44.4520  -31.6817   -0.4727 C   0  0  0  0  0  0  0  0  0  0  0  0
  -46.5928  -29.7875    2.0106 C   0  0  0  0  0  0  0  0  0  0  0  0
  -44.2209  -29.0217    2.0695 C   0  0  0  0  0  0  0  0  0  0  0  0
  -46.2184  -30.9065    1.0446 C   0  0  0  0  0  0  0  0  0  0  0  0
  -44.3144  -29.3725    0.5816 C   0  0  0  0  0  0  0  0  0  0  0  0
  -42.9538  -31.7993   -0.5920 C   0  0  0  0  0  0  0  0  0  0  0  0
  -45.4285  -29.3408    7.0231 N   0  0  0  0  0  0  0  0  0  0  0  0
  -44.3014  -29.6664    4.8905 N   0  0  0  0  0  0  0  0  0  0  0  0
  -47.7575  -28.7659    6.7781 N   0  0  0  0  0  0  0  0  0  0  0  0
  -42.2618  -31.4255    0.6835 N   0  0  0  0  0  0  0  0  0  0  0  0
  -45.4215  -29.4312    2.8094 N   0  0  0  0  0  0  0  0  0  0  0  0
  -44.9385  -30.6827    0.3711 N   0  0  0  0  0  0  0  0  0  0  0  0
  -45.1757  -32.4534   -1.1070 O   0  0  0  0  0  0  0  0  0  0  0  0
  -40.9728  -29.6779   -0.2194 O   0  0  0  0  0  0  0  0  0  0  0  0
  -43.3081  -33.0423    2.0328 O   0  0  0  0  0  0  0  0  0  0  0  0
  -40.2132  -29.7073    2.5578 H   0  0  0  0  0  0  0  0  0  0  0  0
  -41.5691  -31.6616    3.8655 H   0  0  0  0  0  0  0  0  0  0  0  0
  -48.3654  -28.6818    3.5680 H   0  0  0  0  0  0  0  0  0  0  0  0
  -49.6620  -28.3097    5.9302 H   0  0  0  0  0  0  0  0  0  0  0  0
  -43.4417  -29.8404    6.7620 H   0  0  0  0  0  0  0  0  0  0  0  0
  -46.9370  -28.9261    1.4417 H   0  0  0  0  0  0  0  0  0  0  0  0
  -47.3981  -30.1163    2.6654 H   0  0  0  0  0  0  0  0  0  0  0  0
  -43.3262  -29.5055    2.4858 H   0  0  0  0  0  0  0  0  0  0  0  0
  -44.0828  -27.9389    2.1909 H   0  0  0  0  0  0  0  0  0  0  0  0
  -46.1870  -31.8572    1.5827 H   0  0  0  0  0  0  0  0  0  0  0  0
  -46.9792  -30.9956    0.2617 H   0  0  0  0  0  0  0  0  0  0  0  0
  -44.8777  -28.6011    0.0544 H   0  0  0  0  0  0  0  0  0  0  0  0
  -43.3173  -29.4155    0.1363 H   0  0  0  0  0  0  0  0  0  0  0  0
  -42.6228  -31.1616   -1.4123 H   0  0  0  0  0  0  0  0  0  0  0  0
  -42.7105  -32.8231   -0.8774 H   0  0  0  0  0  0  0  0  0  0  0  0
  -47.9904  -28.6886    7.7585 H   0  0  0  0  0  0  0  0  0  0  0  0
  -40.3031  -29.0066    0.0516 H   0  0  0  0  0  0  0  0  0  0  0  0
  -43.3246  -33.3608    2.9661 H   0  0  0  0  0  0  0  0  0  0  0  0
  1  2  1  0  0  0  0
  1  9  2  0  0  0  0
  2 10  2  0  0  0  0
  3  4  2  0  0  0  0
  3  6  1  0  0  0  0
  4 19  1  0  0  0  0
  5 17  2  0  0  0  0
  5 18  1  0  0  0  0
  6  7  2  0  0  0  0
  6  8  1  0  0  0  0
  7 17  1  0  0  0  0
  7 19  1  0  0  0  0
  8 18  2  0  0  0  0
  8 21  1  0  0  0  0
  9 20  1  0  0  0  0
  9 24  1  0  0  0  0
 10 20  1  0  0  0  0
 10 25  1  0  0  0  0
 11 16  1  0  0  0  0
 11 22  1  0  0  0  0
 11 23  2  0  0  0  0
 12 14  1  0  0  0  0
 12 21  1  0  0  0  0
 13 15  1  0  0  0  0
 13 21  1  0  0  0  0
 14 22  1  0  0  0  0
 15 22  1  0  0  0  0
 16 20  1  0  0  0  0
  1 26  1  0  0  0  0
  2 27  1  0  0  0  0
  3 28  1  0  0  0  0
  4 29  1  0  0  0  0
  5 30  1  0  0  0  0
 12 31  1  0  0  0  0
 12 32  1  0  0  0  0
 13 33  1  0  0  0  0
 13 34  1  0  0  0  0
 14 35  1  0  0  0  0
 14 36  1  0  0  0  0
 15 37  1  0  0  0  0
 15 38  1  0  0  0  0
 16 39  1  0  0  0  0
 16 40  1  0  0  0  0
 19 41  1  0  0  0  0
 24 42  1  0  0  0  0
 25 43  1  0  0  0  0
M  END
> <POSIT::Probability>
0.5

> <POSIT::Method>
HYBRID

> <ReceptorTitle>
UCSF-P4280-REFINED_LIGAND-BOUND-STATE_A__DU__LA1_A-201(A)

> <OMEGA_C>
AL8jwiMf88HOlAhA/ZMmwghI+8FYRDRAosU/wtYh5sHU6ZFAiIVCwvOP5MGLo7dAiHcxwrT47MEq
r8dAnWo6wqS96MHoqpxARxU6wkSs6MHpC8lA7Lw1wiwx68GYcoZAlVklws9g88FoAlE/t9MpwvYi
AMKOo/I/3M4xwhJ0/cGABvK+E186wtVM7sEKrgBAKuIwwmgs6MEScgRAqN84woZA98HCtYU/50Ex
wvD66sFw5hQ/qNArwv5k/sHcjRe/vrY1wuS56sGOveBAnTQxwrFU7cHGfpxApgc/woog5sEQ5thA
FgwpwoJn+8GQ+C4/qa81widz68HszDNA/8AzwjB29cGw/70+5LM0wkPQAcLGso2/LOQjwm1s7cFA
t2C+gDstwlQrBMKiGAJAW9ogwpCo7cEHsyNAzEYmwt9K/cEPZXdAJHZBwkZ05cGWWmRA2qVGwkB6
4sHrw71AUMQtwi657sHxYdhAfb87wqRo58HciLg/opc9wkbu8MEmlSpA/00twj0L7MGEFx9AvVQw
wseC38F8OAxAer84wnzb/sF8lMo/p+o7wgH398GI/oU+woIzwhjP5MFA71495kQtwu9S68GAmws+
wn0qwghL+cG8xbS/lNcqwtBKA8JgnGC/NPY/wjaC5cE9RfhAVTYhwpQN6MHAilM9ZEwtwnJxBcLi
0z1A

> <OMEGA_E>
hP9NwQ==

> <OMEGA_NBR>
     35891

$$$$
CACHE3HI_1715_30
  -OEChem-03092622503D

 41 44  0     1  0  0  0  0  0999 V2000
  -48.1915  -28.8039    4.5663 C   0  0  0  0  0  0  0  0  0  0  0  0
  -48.8604  -28.7633    5.7650 C   0  0  0  0  0  0  0  0  0  0  0  0
  -44.3692  -29.4404    6.0806 C   0  0  0  0  0  0  0  0  0  0  0  0
  -46.7709  -29.0765    4.8575 C   0  0  0  0  0  0  0  0  0  0  0  0
  -46.6666  -29.1253    6.2532 C   0  0  0  0  0  0  0  0  0  0  0  0
  -45.5875  -29.2316    4.0777 C   0  0  0  0  0  0  0  0  0  0  0  0
  -43.1271  -31.2169    1.3967 C   0  0  0  0  0  0  0  0  0  0  0  0
  -46.7287  -29.7741    1.8974 C   0  0  0  0  0  0  0  0  0  0  0  0
  -44.3055  -28.9368    1.8795 C   0  0  0  0  0  0  0  0  0  0  0  0
  -42.6072  -31.8574    0.1088 C   0  0  0  0  0  0  0  0  0  0  0  0
  -43.0557  -29.5750   -0.2868 C   0  0  0  0  0  0  0  0  0  0  0  0
  -46.1646  -31.0004    1.2207 C   0  0  1  0  0  0  0  0  0  0  0  0
  -43.9775  -30.0677    0.8403 C   0  0  1  0  0  0  0  0  0  0  0  0
  -46.5016  -33.0812   -0.0555 C   0  0  0  0  0  0  0  0  0  0  0  0
  -47.2111  -31.8459    0.5289 C   0  0  0  0  0  0  0  0  0  0  0  0
  -45.4736  -29.3025    6.8502 N   0  0  0  0  0  0  0  0  0  0  0  0
  -44.4091  -29.4100    4.7258 N   0  0  0  0  0  0  0  0  0  0  0  0
  -47.9360  -28.9542    6.7848 N   0  0  0  0  0  0  0  0  0  0  0  0
  -45.5829  -29.2099    2.6653 N   0  0  3  0  0  0  0  0  0  0  0  0
  -42.3524  -30.7495   -0.7922 O   0  0  0  0  0  0  0  0  0  0  0  0
  -45.1930  -30.5616    0.2577 O   0  0  0  0  0  0  0  0  0  0  0  0
  -48.6264  -28.6621    3.5880 H   0  0  0  0  0  0  0  0  0  0  0  0
  -49.9217  -28.6095    5.8930 H   0  0  0  0  0  0  0  0  0  0  0  0
  -43.4149  -29.5806    6.5665 H   0  0  0  0  0  0  0  0  0  0  0  0
  -43.7367  -31.9229    1.9797 H   0  0  0  0  0  0  0  0  0  0  0  0
  -42.3027  -30.8419    2.0210 H   0  0  0  0  0  0  0  0  0  0  0  0
  -47.0907  -29.0508    1.1519 H   0  0  0  0  0  0  0  0  0  0  0  0
  -47.5525  -30.0475    2.5731 H   0  0  0  0  0  0  0  0  0  0  0  0
  -43.4676  -28.8561    2.5876 H   0  0  0  0  0  0  0  0  0  0  0  0
  -44.4218  -27.9857    1.3391 H   0  0  0  0  0  0  0  0  0  0  0  0
  -41.6804  -32.4170    0.3034 H   0  0  0  0  0  0  0  0  0  0  0  0
  -43.3621  -32.5348   -0.3169 H   0  0  0  0  0  0  0  0  0  0  0  0
  -43.6502  -29.1139   -1.0893 H   0  0  0  0  0  0  0  0  0  0  0  0
  -42.3362  -28.8408    0.1046 H   0  0  0  0  0  0  0  0  0  0  0  0
  -45.6683  -31.6193    1.9827 H   0  0  0  0  0  0  0  0  0  0  0  0
  -47.2371  -33.7193   -0.5672 H   0  0  0  0  0  0  0  0  0  0  0  0
  -45.7343  -32.7575   -0.7741 H   0  0  0  0  0  0  0  0  0  0  0  0
  -46.0260  -33.6495    0.7575 H   0  0  0  0  0  0  0  0  0  0  0  0
  -47.9770  -32.1609    1.2529 H   0  0  0  0  0  0  0  0  0  0  0  0
  -47.6852  -31.2689   -0.2787 H   0  0  0  0  0  0  0  0  0  0  0  0
  -48.1545  -28.9664    7.7605 H   0  0  0  0  0  0  0  0  0  0  0  0
  1  2  2  0  0  0  0
  1  4  1  0  0  0  0
  2 18  1  0  0  0  0
  3 16  2  0  0  0  0
  3 17  1  0  0  0  0
  4  5  2  0  0  0  0
  4  6  1  0  0  0  0
  5 16  1  0  0  0  0
  5 18  1  0  0  0  0
  6 17  2  0  0  0  0
  6 19  1  0  0  0  0
  7 10  1  0  0  0  0
  7 13  1  0  0  0  0
  8 12  1  0  0  0  0
  8 19  1  0  0  0  0
  9 13  1  0  0  0  0
  9 19  1  0  0  0  0
 10 20  1  0  0  0  0
 11 13  1  0  0  0  0
 11 20  1  0  0  0  0
 12 15  1  0  0  0  0
 12 21  1  0  0  0  0
 13 21  1  0  0  0  0
 14 15  1  0  0  0  0
  1 22  1  0  0  0  0
  2 23  1  0  0  0  0
  3 24  1  0  0  0  0
  7 25  1  0  0  0  0
  7 26  1  0  0  0  0
  8 27  1  0  0  0  0
  8 28  1  0  0  0  0
  9 29  1  0  0  0  0
  9 30  1  0  0  0  0
 10 31  1  0  0  0  0
 10 32  1  0  0  0  0
 11 33  1  0  0  0  0
 11 34  1  0  0  0  0
 12 35  1  0  0  0  0
 14 36  1  0  0  0  0
 14 37  1  0  0  0  0
 14 38  1  0  0  0  0
 15 39  1  0  0  0  0
 15 40  1  0  0  0  0
 18 41  1  0  0  0  0
M  END
> <POSIT::Probability>
0.79

> <POSIT::Method>
SHAPEFIT

> <ReceptorTitle>
UCSF-P4280-REFINED_LIGAND-BOUND-STATE_A__DU__LA1_A-201(A)

> <OMEGA_C>
GMRAwnBu5sFSH5JABnFDwjIb5sHqerhAC3oxwvKF68ESlMJAcRU7wpqc6MGMcJtAlao6woYA6cFO
GshAkFk2wlTa6cGufIJALoIswiy8+cG8xrI/M+o6wnIx7sF43PI/4Dgxwnp+58Hck/A/x20qwujb
/sGA2d49DzkswpiZ7MHw25K+h6g4wtwA+MHMP5w/9+gvwrCK8ME4IFc/lwE6wi9TBMIAMmO9Jtg8
wk7E/sHYZwc/AeU1wphr6sHSNNtA9aIxwsJH68HYOZdAfb4/wiyi58HSHNlA21Q2wu6t6cGUlCpA
3mgpwg7/9cGwzEq/qMU0wix+9MEA9YM+aoFCwgZM5cFaoWVAzK9Hwjbg5MF3k7xA3Kgtwiul7MFm
INJAXPIuwjFi/8F8Z/0//jUpwiC89sF2VwFA3Vw8wg1o6MFKcJM/vDU+wkhh8MFKriRA1t4twkfZ
5sEBmyVA7K8xwsHi38GOaKs/xbgmwg6rAcKpW5s+y3ItwqEjAsJSQaK+0JkuwkLp6MGYbou/Slgp
wu255sG3StY9XKw2wlv0/MEvyv0/x/I8wozgBsKzNBG/4u82wqYHA8LOK0a/oho4wiKZBsIm6kE/
b+g/ws6kAMKAXqA/r70+wqQm+sHqsY6+M55Awke758FPVvhA

> <OMEGA_E>
FggvPw==

> <OMEGA_NBR>
     37241

$$$$
CACHE3HI_1717_9
  -OEChem-03092622503D

 44 45  0     1  0  0  0  0  0999 V2000
  -48.1253  -29.2648    4.4961 C   0  0  0  0  0  0  0  0  0  0  0  0
  -48.8488  -28.8966    5.6053 C   0  0  0  0  0  0  0  0  0  0  0  0
  -44.3660  -29.3612    6.2625 C   0  0  0  0  0  0  0  0  0  0  0  0
  -46.7187  -29.3738    4.9025 C   0  0  0  0  0  0  0  0  0  0  0  0
  -46.6759  -29.0585    6.2644 C   0  0  0  0  0  0  0  0  0  0  0  0
  -45.5084  -29.7128    4.2463 C   0  0  0  0  0  0  0  0  0  0  0  0
  -42.3453  -30.0896   -0.3905 C   0  0  0  0  0  0  0  0  0  0  0  0
  -49.9645  -29.6800    0.8623 C   0  0  0  0  0  0  0  0  0  0  0  0
  -43.1487  -31.2491    0.2241 C   0  0  0  0  0  0  0  0  0  0  0  0
  -42.9266  -31.2774    1.7574 C   0  0  0  0  0  0  0  0  0  0  0  0
  -44.0036  -32.0839    2.5223 C   0  0  0  0  0  0  0  0  0  0  0  0
  -46.6212  -28.3656    1.4908 C   0  0  0  0  0  0  0  0  0  0  0  0
  -45.4196  -31.4659    2.4414 C   0  0  0  0  0  0  0  0  0  0  0  0
  -45.2752  -28.9471    1.8997 C   0  0  0  0  0  0  0  0  0  0  0  0
  -47.5640  -29.4564    0.9499 C   0  0  0  0  0  0  0  0  0  0  0  0
  -45.5063  -29.0616    6.9328 N   0  0  0  0  0  0  0  0  0  0  0  0
  -44.3504  -29.6838    4.9442 N   0  0  0  0  0  0  0  0  0  0  0  0
  -47.9713  -28.7826    6.6783 N   0  0  0  0  0  0  0  0  0  0  0  0
  -45.4581  -30.0371    2.8897 N   0  0  3  0  0  0  0  0  0  0  0  0
  -48.8199  -28.8305    0.6650 O   0  0  0  0  0  0  0  0  0  0  0  0
  -48.5196  -29.4416    3.5063 H   0  0  0  0  0  0  0  0  0  0  0  0
  -49.9146  -28.7253    5.6379 H   0  0  0  0  0  0  0  0  0  0  0  0
  -43.4299  -29.3424    6.8009 H   0  0  0  0  0  0  0  0  0  0  0  0
  -42.5032  -30.0698   -1.4789 H   0  0  0  0  0  0  0  0  0  0  0  0
  -42.6827  -29.1380    0.0462 H   0  0  0  0  0  0  0  0  0  0  0  0
  -41.2755  -30.2317   -0.1779 H   0  0  0  0  0  0  0  0  0  0  0  0
  -50.8816  -29.1222    0.6218 H   0  0  0  0  0  0  0  0  0  0  0  0
  -49.8867  -30.5584    0.2047 H   0  0  0  0  0  0  0  0  0  0  0  0
  -50.0002  -30.0092    1.9112 H   0  0  0  0  0  0  0  0  0  0  0  0
  -44.2185  -31.1069    0.0113 H   0  0  0  0  0  0  0  0  0  0  0  0
  -42.8113  -32.2007   -0.2127 H   0  0  0  0  0  0  0  0  0  0  0  0
  -41.9444  -31.7300    1.9586 H   0  0  0  0  0  0  0  0  0  0  0  0
  -42.9367  -30.2425    2.1298 H   0  0  0  0  0  0  0  0  0  0  0  0
  -44.0432  -33.0985    2.0991 H   0  0  0  0  0  0  0  0  0  0  0  0
  -43.7091  -32.1394    3.5807 H   0  0  0  0  0  0  0  0  0  0  0  0
  -47.0876  -27.8921    2.3673 H   0  0  0  0  0  0  0  0  0  0  0  0
  -46.4615  -27.6101    0.7074 H   0  0  0  0  0  0  0  0  0  0  0  0
  -45.7655  -31.5160    1.3985 H   0  0  0  0  0  0  0  0  0  0  0  0
  -46.0957  -32.0527    3.0806 H   0  0  0  0  0  0  0  0  0  0  0  0
  -44.7688  -29.3482    1.0093 H   0  0  0  0  0  0  0  0  0  0  0  0
  -44.6584  -28.1529    2.3457 H   0  0  0  0  0  0  0  0  0  0  0  0
  -47.1451  -29.8949    0.0322 H   0  0  0  0  0  0  0  0  0  0  0  0
  -47.6992  -30.2452    1.7046 H   0  0  0  0  0  0  0  0  0  0  0  0
  -48.2351  -28.5378    7.6112 H   0  0  0  0  0  0  0  0  0  0  0  0
  1  2  2  0  0  0  0
  1  4  1  0  0  0  0
  2 18  1  0  0  0  0
  3 16  2  0  0  0  0
  3 17  1  0  0  0  0
  4  5  2  0  0  0  0
  4  6  1  0  0  0  0
  5 16  1  0  0  0  0
  5 18  1  0  0  0  0
  6 17  2  0  0  0  0
  6 19  1  0  0  0  0
  7  9  1  0  0  0  0
  8 20  1  0  0  0  0
  9 10  1  0  0  0  0
 10 11  1  0  0  0  0
 11 13  1  0  0  0  0
 12 14  1  0  0  0  0
 12 15  1  0  0  0  0
 13 19  1  0  0  0  0
 14 19  1  0  0  0  0
 15 20  1  0  0  0  0
  1 21  1  0  0  0  0
  2 22  1  0  0  0  0
  3 23  1  0  0  0  0
  7 24  1  0  0  0  0
  7 25  1  0  0  0  0
  7 26  1  0  0  0  0
  8 27  1  0  0  0  0
  8 28  1  0  0  0  0
  8 29  1  0  0  0  0
  9 30  1  0  0  0  0
  9 31  1  0  0  0  0
 10 32  1  0  0  0  0
 10 33  1  0  0  0  0
 11 34  1  0  0  0  0
 11 35  1  0  0  0  0
 12 36  1  0  0  0  0
 12 37  1  0  0  0  0
 13 38  1  0  0  0  0
 13 39  1  0  0  0  0
 14 40  1  0  0  0  0
 14 41  1  0  0  0  0
 15 42  1  0  0  0  0
 15 43  1  0  0  0  0
 18 44  1  0  0  0  0
M  END
> <POSIT::Probability>
0.72

> <POSIT::Method>
SHAPEFIT

> <ReceptorTitle>
UCSF-P4280-REFINED_LIGAND-BOUND-STATE_A__DU__LA1_A-201(A)

> <OMEGA_C>
UIBAwjse6sEM4I9AJmVDwiws58FiXrNAwHYxws/j6sEeZshA6t86woD96sGe4ZxAK7Q6wsd36MHQ
dchAoQg2wsKz7cGY4YdAmmEpwoC38MFQ8ce+pNtHwpJw7cE8vVw/RZgswj3++cFwb2U+2LQrwjE4
+sHq8OA/ugMwwvNVAMIZbSFAJnw6wszs4sGm0b4/qq01wie6+8G1QBxAyRk1wqST58GyKPM/jUE+
wrym68FYLXM/bAY2wiR+6MHC2d1A3GYxwmV47cGKNp5AkOI/wtdC5sFotNVAEtU1wv1L8MGV8DhA
kEdDwtGk5sH4Oio/BxRCwmGI68FJZ2BAkKhHwm7N5cEFarRAPrgtwiy96sGgoNlASgMqwv6O8MH3
Tb2/Ebsqwqoa6cHECz09FBolwpva8cEVIja+t4ZLwi766MEMLB8//YtHwpF39MFTp1E+KwBIwsMS
8MGWo/Q/xd8wwgfb+MGMXTk8xz4rwnzNAMIuz1m+Fccnwv/W/cEItPo/Mb8rwo/w8cG2TghANiww
wttkBMIcVwZAItYuwraOAMK1KWVArVk8wvEi38GPgRdAnNg5wn/h3MGdFzU/3g83wtwg/MGOALM/
DGI4wuw1AMK0KEVAPxMzwg7J6sEBMoE/PqIywjM54cEYIBZAlZQ8wrQo78FNvAM99cs+wjz28cEF
L9o/yvBAwnNN5MFAj/NA

> <OMEGA_E>
VIdAPw==

> <OMEGA_NBR>
     38638

$$$$
CACHE3HI_1718_57
  -OEChem-03092622503D

 40 43  0     1  0  0  0  0  0999 V2000
  -50.2119  -29.2344    3.2599 C   0  0  0  0  0  0  0  0  0  0  0  0
  -50.9244  -28.9194    4.4419 C   0  0  0  0  0  0  0  0  0  0  0  0
  -48.8131  -29.4037    3.2978 C   0  0  0  0  0  0  0  0  0  0  0  0
  -50.2467  -28.7848    5.6740 C   0  0  0  0  0  0  0  0  0  0  0  0
  -44.3389  -29.3919    6.0878 C   0  0  0  0  0  0  0  0  0  0  0  0
  -48.1532  -29.1848    4.5230 C   0  0  0  0  0  0  0  0  0  0  0  0
  -46.7370  -29.2339    4.8681 C   0  0  0  0  0  0  0  0  0  0  0  0
  -48.8500  -28.9195    5.7054 C   0  0  0  0  0  0  0  0  0  0  0  0
  -46.6399  -29.0803    6.2509 C   0  0  0  0  0  0  0  0  0  0  0  0
  -45.5879  -29.4742    4.0943 C   0  0  0  0  0  0  0  0  0  0  0  0
  -45.8696  -29.5622    0.4009 C   0  0  0  0  0  0  0  0  0  0  0  0
  -45.9677  -28.7529    1.6875 C   0  0  0  0  0  0  0  0  0  0  0  0
  -44.7645  -30.8006    2.1178 C   0  0  0  0  0  0  0  0  0  0  0  0
  -44.5899  -30.3798    0.6498 C   0  0  0  0  0  0  0  0  0  0  0  0
  -43.3015  -29.4934    0.5425 C   0  0  0  0  0  0  0  0  0  0  0  0
  -44.4831  -31.6355   -0.2459 C   0  0  0  0  0  0  0  0  0  0  0  0
  -45.4386  -29.1663    6.8522 N   0  0  0  0  0  0  0  0  0  0  0  0
  -44.3955  -29.5466    4.7372 N   0  0  0  0  0  0  0  0  0  0  0  0
  -47.9254  -28.8758    6.7477 N   0  0  0  0  0  0  0  0  0  0  0  0
  -45.6483  -29.7638    2.7379 N   0  0  1  0  0  0  0  0  0  0  0  0
  -43.3231  -28.6519   -0.6124 O   0  0  0  0  0  0  0  0  0  0  0  0
  -43.9717  -31.3106   -1.5344 O   0  0  0  0  0  0  0  0  0  0  0  0
  -50.7421  -29.3454    2.3256 H   0  0  0  0  0  0  0  0  0  0  0  0
  -51.9947  -28.7808    4.4014 H   0  0  0  0  0  0  0  0  0  0  0  0
  -48.2637  -29.6927    2.4141 H   0  0  0  0  0  0  0  0  0  0  0  0
  -50.7966  -28.5807    6.5809 H   0  0  0  0  0  0  0  0  0  0  0  0
  -43.3763  -29.4513    6.5739 H   0  0  0  0  0  0  0  0  0  0  0  0
  -46.7447  -30.2156    0.2695 H   0  0  0  0  0  0  0  0  0  0  0  0
  -45.7644  -28.9089   -0.4778 H   0  0  0  0  0  0  0  0  0  0  0  0
  -45.2380  -27.9297    1.6946 H   0  0  0  0  0  0  0  0  0  0  0  0
  -46.9806  -28.3461    1.8237 H   0  0  0  0  0  0  0  0  0  0  0  0
  -45.2369  -31.7922    2.1782 H   0  0  0  0  0  0  0  0  0  0  0  0
  -43.7898  -30.8271    2.6270 H   0  0  0  0  0  0  0  0  0  0  0  0
  -43.2296  -28.8618    1.4403 H   0  0  0  0  0  0  0  0  0  0  0  0
  -42.4218  -30.1514    0.4857 H   0  0  0  0  0  0  0  0  0  0  0  0
  -43.8104  -32.3616    0.2339 H   0  0  0  0  0  0  0  0  0  0  0  0
  -45.4826  -32.0809   -0.3591 H   0  0  0  0  0  0  0  0  0  0  0  0
  -48.1514  -28.7207    7.7094 H   0  0  0  0  0  0  0  0  0  0  0  0
  -42.5281  -28.1326   -0.6413 H   0  0  0  0  0  0  0  0  0  0  0  0
  -43.9170  -32.0988   -2.0619 H   0  0  0  0  0  0  0  0  0  0  0  0
  1  2  1  0  0  0  0
  1  3  2  0  0  0  0
  2  4  2  0  0  0  0
  3  6  1  0  0  0  0
  4  8  1  0  0  0  0
  5 17  1  0  0  0  0
  5 18  2  0  0  0  0
  6  7  1  0  0  0  0
  6  8  2  0  0  0  0
  7  9  1  0  0  0  0
  7 10  2  0  0  0  0
  8 19  1  0  0  0  0
  9 17  2  0  0  0  0
  9 19  1  0  0  0  0
 10 18  1  0  0  0  0
 10 20  1  0  0  0  0
 11 12  1  0  0  0  0
 11 14  1  0  0  0  0
 12 20  1  0  0  0  0
 13 14  1  0  0  0  0
 13 20  1  0  0  0  0
 14 15  1  0  0  0  0
 14 16  1  0  0  0  0
 15 21  1  0  0  0  0
 16 22  1  0  0  0  0
  1 23  1  0  0  0  0
  2 24  1  0  0  0  0
  3 25  1  0  0  0  0
  4 26  1  0  0  0  0
  5 27  1  0  0  0  0
 11 28  1  0  0  0  0
 11 29  1  0  0  0  0
 12 30  1  0  0  0  0
 12 31  1  0  0  0  0
 13 32  1  0  0  0  0
 13 33  1  0  0  0  0
 15 34  1  0  0  0  0
 15 35  1  0  0  0  0
 16 36  1  0  0  0  0
 16 37  1  0  0  0  0
 19 38  1  0  0  0  0
 21 39  1  0  0  0  0
 22 40  1  0  0  0  0
M  END
> <POSIT::Probability>
0.87

> <POSIT::Method>
SHAPEFIT

> <ReceptorTitle>
UCSF-P4280-REFINED_LIGAND-BOUND-STATE_A__DU__LA1_A-201(A)

> <OMEGA_C>
/dhIwhfg6cHboVBAobJLwtta58F0JI5AoEBDwt0668HFD1NAl/xIwklH5sGmkbVABFsxwq8i68GL
z8JA4ZxAwnN66cGrvJBArPI6wv/e6cE0x5tAX2ZDwipb58H2krZARo86wm2k6MESB8hACVo2wh3L
68GPBINAbHo3wnd/7ME0RM0+4943wt4F5sGKANg/2g4zwpVn9sFWiQdAD1wywukJ88EhWyY/vDQt
wm/y68F44wo/t+4xwpUV/cHhzXu+GsE1wntU6cE+RdtA9JQxwolf7MFfl5dAqbM/wqYB58Hq7NdA
4Jc2wisc7sE4Oi9AzkotwhE35cFIyRy//uIvwgt8+sGOZsS/6PdKwnXD6sHR1RRAn/pPwgw/5sFj
2IxAAw5BwqOK7cExgBpAtC9Lwl6l5MF2ltJAS4Etwi+c68E6XdJAi/o6wpC58cGX9ok+yg43wnlF
58H8ofS+tvM0whtw38Hs6dg/IOw7wuDE4sH7buk/jPI0wlRW/sE8aAtAxygvwtad9sE6IChAHess
wg7l5sH+W7g/+a8pwgw28cEnrvg+zz0vwlByAcLYem8+JO41ws5SAMKA2be+/JpAwvXD5cFSs/ZA
wxwqwn0P4cFDLSS/+KovwiBlAML+9QPA

> <OMEGA_E>
eCZpPw==

> <OMEGA_NBR>
     39963

$$$$
CACHE3HI_1718_7
  -OEChem-03092622503D

 52 55  0     1  0  0  0  0  0999 V2000
  -40.9365  -30.9417    0.2357 C   0  0  0  0  0  0  0  0  0  0  0  0
  -41.2810  -29.5806    0.3345 C   0  0  0  0  0  0  0  0  0  0  0  0
  -41.8787  -31.8889   -0.1692 C   0  0  0  0  0  0  0  0  0  0  0  0
  -42.5745  -29.1431    0.0293 C   0  0  0  0  0  0  0  0  0  0  0  0
  -48.4464  -28.5430    5.4488 C   0  0  0  0  0  0  0  0  0  0  0  0
  -45.9974  -30.0549    2.9808 C   0  0  0  0  0  0  0  0  0  0  0  0
  -47.5150  -28.5626    6.4781 C   0  0  0  0  0  0  0  0  0  0  0  0
  -44.7405  -30.3346    3.4727 C   0  0  0  0  0  0  0  0  0  0  0  0
  -46.7607  -29.5011    4.0421 C   0  0  0  0  0  0  0  0  0  0  0  0
  -43.1472  -31.4306   -0.4642 C   0  0  0  0  0  0  0  0  0  0  0  0
  -43.5033  -30.0843   -0.3712 C   0  0  0  0  0  0  0  0  0  0  0  0
  -48.0719  -29.0214    4.1950 C   0  0  0  0  0  0  0  0  0  0  0  0
  -45.9299  -29.4627    5.1583 C   0  0  0  0  0  0  0  0  0  0  0  0
  -44.3214  -32.1886   -0.9089 C   0  0  0  0  0  0  0  0  0  0  0  0
  -47.5602  -31.8430   -0.2901 C   0  0  0  0  0  0  0  0  0  0  0  0
  -44.9322  -29.8957   -0.7519 C   0  0  0  0  0  0  0  0  0  0  0  0
  -50.4508  -29.1387    0.5020 C   0  0  0  0  0  0  0  0  0  0  0  0
  -46.6916  -31.5593   -1.4969 C   0  0  0  0  0  0  0  0  0  0  0  0
  -49.9221  -31.6280    0.4723 C   0  0  0  0  0  0  0  0  0  0  0  0
  -49.0804  -29.0040    3.0669 C   0  0  1  0  0  0  0  0  0  0  0  0
  -50.0946  -30.3709    1.3278 C   0  0  1  0  0  0  0  0  0  0  0  0
  -46.2413  -29.0119    6.3882 N   0  0  0  0  0  0  0  0  0  0  0  0
  -44.7107  -29.9715    4.7943 N   0  0  0  0  0  0  0  0  0  0  0  0
  -45.3432  -31.2588   -1.0666 N   0  0  0  0  0  0  0  0  0  0  0  0
  -48.8840  -31.5005   -0.5257 N   0  0  0  0  0  0  0  0  0  0  0  0
  -48.9157  -30.1240    2.1235 N   0  0  0  0  0  0  0  0  0  0  0  0
  -44.3289  -33.3931   -1.0852 O   0  0  0  0  0  0  0  0  0  0  0  0
  -47.1203  -32.2851    0.7682 O   0  0  0  0  0  0  0  0  0  0  0  0
  -50.3789  -29.0173    3.6668 O   0  0  0  0  0  0  0  0  0  0  0  0
  -39.9250  -31.2566    0.4783 H   0  0  0  0  0  0  0  0  0  0  0  0
  -40.5309  -28.8610    0.6521 H   0  0  0  0  0  0  0  0  0  0  0  0
  -41.6155  -32.9374   -0.2459 H   0  0  0  0  0  0  0  0  0  0  0  0
  -42.8343  -28.0930    0.1068 H   0  0  0  0  0  0  0  0  0  0  0  0
  -49.4464  -28.1598    5.6266 H   0  0  0  0  0  0  0  0  0  0  0  0
  -46.3244  -30.2316    1.9653 H   0  0  0  0  0  0  0  0  0  0  0  0
  -47.7908  -28.1927    7.4621 H   0  0  0  0  0  0  0  0  0  0  0  0
  -43.8659  -30.7584    2.9997 H   0  0  0  0  0  0  0  0  0  0  0  0
  -45.5337  -29.5212    0.0810 H   0  0  0  0  0  0  0  0  0  0  0  0
  -45.0411  -29.2717   -1.6432 H   0  0  0  0  0  0  0  0  0  0  0  0
  -49.6610  -28.9226   -0.2253 H   0  0  0  0  0  0  0  0  0  0  0  0
  -50.5631  -28.2488    1.1307 H   0  0  0  0  0  0  0  0  0  0  0  0
  -51.3844  -29.2925   -0.0482 H   0  0  0  0  0  0  0  0  0  0  0  0
  -46.6506  -32.4297   -2.1579 H   0  0  0  0  0  0  0  0  0  0  0  0
  -47.0850  -30.6965   -2.0408 H   0  0  0  0  0  0  0  0  0  0  0  0
  -49.6676  -32.4899    1.0984 H   0  0  0  0  0  0  0  0  0  0  0  0
  -50.8500  -31.8601   -0.0622 H   0  0  0  0  0  0  0  0  0  0  0  0
  -49.0196  -28.0565    2.5178 H   0  0  0  0  0  0  0  0  0  0  0  0
  -50.9064  -30.5537    2.0412 H   0  0  0  0  0  0  0  0  0  0  0  0
  -43.9126  -30.0646    5.4071 H   0  0  0  0  0  0  0  0  0  0  0  0
  -49.1356  -31.1433   -1.4427 H   0  0  0  0  0  0  0  0  0  0  0  0
  -48.6945  -30.9628    2.6693 H   0  0  0  0  0  0  0  0  0  0  0  0
  -51.0245  -29.0061    2.9400 H   0  0  0  0  0  0  0  0  0  0  0  0
  1  2  1  0  0  0  0
  1  3  2  0  0  0  0
  2  4  2  0  0  0  0
  3 10  1  0  0  0  0
  4 11  1  0  0  0  0
  5  7  2  0  0  0  0
  5 12  1  0  0  0  0
  6  8  2  0  0  0  0
  6  9  1  0  0  0  0
  7 22  1  0  0  0  0
  8 23  1  0  0  0  0
  9 12  2  0  0  0  0
  9 13  1  0  0  0  0
 10 11  2  0  0  0  0
 10 14  1  0  0  0  0
 11 16  1  0  0  0  0
 12 20  1  0  0  0  0
 13 22  2  0  0  0  0
 13 23  1  0  0  0  0
 14 24  1  0  0  0  0
 14 27  2  0  0  0  0
 15 18  1  0  0  0  0
 15 25  1  0  0  0  0
 15 28  2  0  0  0  0
 16 24  1  0  0  0  0
 17 21  1  0  0  0  0
 18 24  1  0  0  0  0
 19 21  1  0  0  0  0
 19 25  1  0  0  0  0
 20 26  1  0  0  0  0
 20 29  1  0  0  0  0
 21 26  1  0  0  0  0
  1 30  1  0  0  0  0
  2 31  1  0  0  0  0
  3 32  1  0  0  0  0
  4 33  1  0  0  0  0
  5 34  1  0  0  0  0
  6 35  1  0  0  0  0
  7 36  1  0  0  0  0
  8 37  1  0  0  0  0
 16 38  1  0  0  0  0
 16 39  1  0  0  0  0
 17 40  1  0  0  0  0
 17 41  1  0  0  0  0
 17 42  1  0  0  0  0
 18 43  1  0  0  0  0
 18 44  1  0  0  0  0
 19 45  1  0  0  0  0
 19 46  1  0  0  0  0
 20 47  1  0  0  0  0
 21 48  1  0  0  0  0
 23 49  1  0  0  0  0
 25 50  1  0  0  0  0
 26 51  1  0  0  0  0
 29 52  1  0  0  0  0
M  END
> <POSIT::Probability>
0.18

> <POSIT::Method>
HYBRID

> <ReceptorTitle>
UCSF-P4280-REFINED_LIGAND-BOUND-STATE_A__DU__LA1_A-201(A)

> <OMEGA_C>
9L4jwqyI98HAYnE+ux8lwh2l7MHARas+vYMnwosc/8HAOC2+SUwqwhsl6cEAIPA8H8lBwhJY5ME3
XK5AXv03wl1w8MHIxD5AXg8+wh6A5MFUTM9ASfYywlCt8sEAQV5A7go7wj0C7MGyWIFAxpYswsxx
+8GAqO2+aQMuwrSs8MFgCr6+mElAwuUr6MFdPYZAOLg3wpqz68HYEKVAIUkxwijBAMJQsGi/rz0+
wnG+/sGAjZS+mrozwmgq78GgfEC/ks1JwiYc6cGwhQA/KMQ6wod5/MEgmb+/PLBHwi4G/cFAzvE+
W1JEwkEI6MF8SERA6mBIwrP38sHg9qk/IPc4wmYY6MHja8xAvNcywonF78Eaa5lAZV81wh4S+sHw
hIi/PolDwgIB/MHgkQa/uKlDwvL98MHG5gdA11AxwoKSBcIQ6Iq/LHs8wuwjAcLwqkQ/84NJwnUj
6MFqrWpANbMfwogN+sGg5/Q+qx8iwkzj5sEA8SY/S3Ymwuy/A8IAzXu+RlYrwo6+4MGAxNo9G8lF
wjRH4cHgDLRAMkw5wkva8cFYjfs/vSk/wr2K4cHbye5AonYvwi0R9sHU+z9AfCI2wl0r7MGAz6U9
Eio0wnEs6sGIVdK/36RGwoJh58HAq2a+mEBKwpT94cE4upA/qYlNwgBX6sEAU0W9Kpo6wg64AcLk
GgrADFc8wlqS9cHcmwLAmatGwp71AcLImIw/XGZLwo7h/sEA8369BRREwr1z4MEKIyFAHaBLwu5t
9MHcogJAdaYvwlWE8MEkB61A44pEwmQl+cFwqbi/NcdCws+z98HM1SpAIBlMwnoM6MFQKTxA

> <OMEGA_E>
Yy29wA==

> <OMEGA_NBR>
     41508

$$$$
CACHE3HI_1687_11
  -OEChem-03092622533D

 38 39  0     1  0  0  0  0  0999 V2000
  -47.9527  -30.1755    7.4792 C   0  0  0  0  0  0  0  0  0  0  0  0
  -44.1293  -28.6724    1.1673 C   0  0  0  0  0  0  0  0  0  0  0  0
  -50.9079  -30.0108    7.7978 C   0  0  0  0  0  0  0  0  0  0  0  0
  -45.5752  -29.1140    1.3918 C   0  0  0  0  0  0  0  0  0  0  0  0
  -43.1535  -29.5142    1.9817 C   0  0  0  0  0  0  0  0  0  0  0  0
  -50.1493  -29.1083    6.8052 C   0  0  0  0  0  0  0  0  0  0  0  0
  -50.2322  -31.2232    7.1276 C   0  0  0  0  0  0  0  0  0  0  0  0
  -44.9578  -29.9613    3.6918 C   0  0  0  0  0  0  0  0  0  0  0  0
  -45.9378  -29.1067    2.8822 C   0  0  2  0  0  0  0  0  0  0  0  0
  -43.5124  -29.5160    3.4660 C   0  0  1  0  0  0  0  0  0  0  0  0
  -49.1190  -30.2619    6.6121 C   0  0  0  0  0  0  0  0  0  0  0  0
  -48.7107  -30.4969    5.1749 C   0  0  0  0  0  0  0  0  0  0  0  0
  -47.0231  -30.1059    8.1708 N   0  0  0  0  0  0  0  0  0  0  0  0
  -47.3021  -29.5953    3.0810 N   0  0  0  0  0  0  0  0  0  0  0  0
  -49.4084  -28.3627    3.8474 O   0  0  0  0  0  0  0  0  0  0  0  0
  -47.3489  -28.2652    5.2994 O   0  0  0  0  0  0  0  0  0  0  0  0
  -42.6272  -30.4013    4.1456 O   0  0  0  0  0  0  0  0  0  0  0  0
  -48.2127  -28.9851    4.3833 S   0  0  0  0  0  0  0  0  0  0  0  0
  -43.8826  -28.7479    0.1022 H   0  0  0  0  0  0  0  0  0  0  0  0
  -44.0227  -27.6170    1.4461 H   0  0  0  0  0  0  0  0  0  0  0  0
  -50.6135  -29.8630    8.8431 H   0  0  0  0  0  0  0  0  0  0  0  0
  -51.9983  -29.9786    7.7287 H   0  0  0  0  0  0  0  0  0  0  0  0
  -46.2514  -28.4512    0.8383 H   0  0  0  0  0  0  0  0  0  0  0  0
  -45.7169  -30.1203    0.9760 H   0  0  0  0  0  0  0  0  0  0  0  0
  -43.1434  -30.5444    1.6027 H   0  0  0  0  0  0  0  0  0  0  0  0
  -42.1314  -29.1400    1.8482 H   0  0  0  0  0  0  0  0  0  0  0  0
  -50.7340  -28.8676    5.9086 H   0  0  0  0  0  0  0  0  0  0  0  0
  -49.7683  -28.1721    7.2249 H   0  0  0  0  0  0  0  0  0  0  0  0
  -49.9192  -32.0184    7.8114 H   0  0  0  0  0  0  0  0  0  0  0  0
  -50.8440  -31.6743    6.3365 H   0  0  0  0  0  0  0  0  0  0  0  0
  -45.1987  -29.9073    4.7612 H   0  0  0  0  0  0  0  0  0  0  0  0
  -45.0630  -31.0227    3.4272 H   0  0  0  0  0  0  0  0  0  0  0  0
  -45.8910  -28.0615    3.2575 H   0  0  0  0  0  0  0  0  0  0  0  0
  -43.3621  -28.5115    3.8794 H   0  0  0  0  0  0  0  0  0  0  0  0
  -49.5416  -30.9062    4.5944 H   0  0  0  0  0  0  0  0  0  0  0  0
  -47.8636  -31.1862    5.1160 H   0  0  0  0  0  0  0  0  0  0  0  0
  -47.7978  -29.7871    2.2056 H   0  0  0  0  0  0  0  0  0  0  0  0
  -42.8792  -30.3809    5.0822 H   0  0  0  0  0  0  0  0  0  0  0  0
  1 11  1  0  0  0  0
  1 13  3  0  0  0  0
  2  4  1  0  0  0  0
  2  5  1  0  0  0  0
  3  6  1  0  0  0  0
  3  7  1  0  0  0  0
  4  9  1  0  0  0  0
  5 10  1  0  0  0  0
  6 11  1  0  0  0  0
  7 11  1  0  0  0  0
  8  9  1  0  0  0  0
  8 10  1  0  0  0  0
  9 14  1  0  0  0  0
 10 17  1  0  0  0  0
 11 12  1  0  0  0  0
 12 18  1  0  0  0  0
 14 18  1  0  0  0  0
 15 18  2  0  0  0  0
 16 18  2  0  0  0  0
  2 19  1  0  0  0  0
  2 20  1  0  0  0  0
  3 21  1  0  0  0  0
  3 22  1  0  0  0  0
  4 23  1  0  0  0  0
  4 24  1  0  0  0  0
  5 25  1  0  0  0  0
  5 26  1  0  0  0  0
  6 27  1  0  0  0  0
  6 28  1  0  0  0  0
  7 29  1  0  0  0  0
  7 30  1  0  0  0  0
  8 31  1  0  0  0  0
  8 32  1  0  0  0  0
  9 33  1  0  0  0  0
 10 34  1  0  0  0  0
 12 35  1  0  0  0  0
 12 36  1  0  0  0  0
 14 37  1  0  0  0  0
 17 38  1  0  0  0  0
M  END
> <POSIT::Probability>
0.24

> <POSIT::Method>
FRED

> <ReceptorTitle>
UCSF-P4409-REFINED_LIGAND-BOUND-STATE_A__DU__LA1_A-201(A)

> <OMEGA_C>
j88/wmZn8cHJVe9AbIQwwgBh5cEMaZU/tKFLwiQW8MGvh/lA/kw2wnXp6MHAJrI/L50swgQd7MEU
qP0/35hIwtnd6MFUxNlAxu1IwijJ+cGzFeRAwNQzwrew78E4RmxARMA3wpra6MF2dThAqAwuwrAg
7MGw011A3HlEwkgY8sEBltNAwtdCwsD588H7mKVAnxc8wuDY8MFquwJBZTU9wjjD7MF4L0VAPaJF
wunm4sHgO3ZAOWU9wiwf4sHTlKlASIIqwsc188H4qIRAyNlAwnTh58GvQ4xAwocvwrX75cHgO9E9
PBcwwqLv3MG0Gbk/RnRKwmPn7sEqfQ1BQP5PwiTU78G8UfdAeQE5wiac48GYmFY/I942wkj28MH4
2Hk/zZIswvBa9MEoJs0/joYowrAe6cGYkOw/le9Kwu3w5sELE71AvxJHwm9g4cE8MudAP61Hwt8S
AMKb9vlARWBLwv1k/cFqxMpAgcs0wipC78HIW5hAe0A0wn8u+MG0V1tAYZA3wv594MF+e1BAyHIt
wn8X5MHcR3hAnipGwgBA98FcBZNAX3Q/wlJ9+cE0tqNA5zA/wgZM7sEgKA1ARIQrwhMM88GDoaJA

> <OMEGA_E>
7VTawA==

> <OMEGA_NBR>
      1253

$$$$
CACHE3HI_1691_16
  -OEChem-03092622533D

 44 46  0     1  0  0  0  0  0999 V2000
  -56.5659  -32.0254    9.1418 C   0  0  0  0  0  0  0  0  0  0  0  0
  -55.3409  -31.4983    8.7230 C   0  0  0  0  0  0  0  0  0  0  0  0
  -56.5181  -33.4866    7.2073 C   0  0  0  0  0  0  0  0  0  0  0  0
  -57.1576  -33.0466    8.3862 C   0  0  0  0  0  0  0  0  0  0  0  0
  -54.7277  -31.9939    7.5399 C   0  0  0  0  0  0  0  0  0  0  0  0
  -49.1790  -29.0016    1.5442 C   0  0  0  0  0  0  0  0  0  0  0  0
  -46.8732  -29.5710    2.9948 C   0  0  0  0  0  0  0  0  0  0  0  0
  -49.1901  -29.0442    2.9303 C   0  0  0  0  0  0  0  0  0  0  0  0
  -47.9208  -29.2681    0.8416 C   0  0  0  0  0  0  0  0  0  0  0  0
  -50.4609  -28.7964    3.6706 C   0  0  0  0  0  0  0  0  0  0  0  0
  -52.6464  -30.5624    7.5947 C   0  0  0  0  0  0  0  0  0  0  0  0
  -48.9907  -29.3863    6.8972 C   0  0  0  0  0  0  0  0  0  0  0  0
  -50.2118  -29.8291    7.7305 C   0  0  0  0  0  0  0  0  0  0  0  0
  -49.4125  -28.2432    5.9494 C   0  0  0  0  0  0  0  0  0  0  0  0
  -51.7439  -29.0932    5.8081 C   0  0  0  0  0  0  0  0  0  0  0  0
  -51.3912  -30.2297    6.7958 C   0  0  2  0  0  0  0  0  0  0  0  0
  -58.4976  -33.6137    8.7982 C   0  0  0  0  0  0  0  0  0  0  0  0
  -55.3311  -32.9680    6.8104 N   0  0  0  0  0  0  0  0  0  0  0  0
  -48.0097  -29.3693    3.6331 N   0  0  0  0  0  0  0  0  0  0  0  0
  -46.7902  -29.5200    1.6002 N   0  0  0  0  0  0  0  0  0  0  0  0
  -50.5240  -28.7048    5.0807 N   0  0  0  0  0  0  0  0  0  0  0  0
  -53.4960  -31.5319    7.0558 N   0  0  0  0  0  0  0  0  0  0  0  0
  -47.8720  -29.2695   -0.3820 O   0  0  0  0  0  0  0  0  0  0  0  0
  -51.5082  -28.7746    3.0285 O   0  0  0  0  0  0  0  0  0  0  0  0
  -52.9068  -29.9066    8.5977 O   0  0  0  0  0  0  0  0  0  0  0  0
  -57.0483  -31.6520   10.0330 H   0  0  0  0  0  0  0  0  0  0  0  0
  -54.8622  -30.7178    9.2958 H   0  0  0  0  0  0  0  0  0  0  0  0
  -56.9856  -34.2540    6.6081 H   0  0  0  0  0  0  0  0  0  0  0  0
  -50.0801  -28.7764    0.9932 H   0  0  0  0  0  0  0  0  0  0  0  0
  -45.9812  -29.7817    3.5660 H   0  0  0  0  0  0  0  0  0  0  0  0
  -48.1950  -29.0325    7.5693 H   0  0  0  0  0  0  0  0  0  0  0  0
  -48.6202  -30.2368    6.3062 H   0  0  0  0  0  0  0  0  0  0  0  0
  -49.9325  -30.6927    8.3519 H   0  0  0  0  0  0  0  0  0  0  0  0
  -50.5289  -28.9985    8.3783 H   0  0  0  0  0  0  0  0  0  0  0  0
  -49.7458  -27.3790    6.5428 H   0  0  0  0  0  0  0  0  0  0  0  0
  -48.5561  -27.9503    5.3243 H   0  0  0  0  0  0  0  0  0  0  0  0
  -52.5039  -29.4451    5.0949 H   0  0  0  0  0  0  0  0  0  0  0  0
  -52.1349  -28.2280    6.3636 H   0  0  0  0  0  0  0  0  0  0  0  0
  -51.0919  -31.1164    6.2178 H   0  0  0  0  0  0  0  0  0  0  0  0
  -59.3034  -33.0242    8.3366 H   0  0  0  0  0  0  0  0  0  0  0  0
  -58.5713  -34.6594    8.4648 H   0  0  0  0  0  0  0  0  0  0  0  0
  -58.5929  -33.5705    9.8932 H   0  0  0  0  0  0  0  0  0  0  0  0
  -45.9101  -29.6661    1.1484 H   0  0  0  0  0  0  0  0  0  0  0  0
  -53.1815  -31.9553    6.2062 H   0  0  0  0  0  0  0  0  0  0  0  0
  1  2  2  0  0  0  0
  1  4  1  0  0  0  0
  2  5  1  0  0  0  0
  3  4  2  0  0  0  0
  3 18  1  0  0  0  0
  4 17  1  0  0  0  0
  5 18  2  0  0  0  0
  5 22  1  0  0  0  0
  6  8  2  0  0  0  0
  6  9  1  0  0  0  0
  7 19  2  0  0  0  0
  7 20  1  0  0  0  0
  8 10  1  0  0  0  0
  8 19  1  0  0  0  0
  9 20  1  0  0  0  0
  9 23  2  0  0  0  0
 10 21  1  0  0  0  0
 10 24  2  0  0  0  0
 11 16  1  0  0  0  0
 11 22  1  0  0  0  0
 11 25  2  0  0  0  0
 12 13  1  0  0  0  0
 12 14  1  0  0  0  0
 13 16  1  0  0  0  0
 14 21  1  0  0  0  0
 15 16  1  0  0  0  0
 15 21  1  0  0  0  0
  1 26  1  0  0  0  0
  2 27  1  0  0  0  0
  3 28  1  0  0  0  0
  6 29  1  0  0  0  0
  7 30  1  0  0  0  0
 12 31  1  0  0  0  0
 12 32  1  0  0  0  0
 13 33  1  0  0  0  0
 13 34  1  0  0  0  0
 14 35  1  0  0  0  0
 14 36  1  0  0  0  0
 15 37  1  0  0  0  0
 15 38  1  0  0  0  0
 16 39  1  0  0  0  0
 17 40  1  0  0  0  0
 17 41  1  0  0  0  0
 17 42  1  0  0  0  0
 20 43  1  0  0  0  0
 22 44  1  0  0  0  0
M  END
> <POSIT::Probability>
0.72

> <POSIT::Method>
SHAPEFIT

> <ReceptorTitle>
UCSF-P4409-REFINED_LIGAND-BOUND-STATE_A__DU__LA1_A-201(A)

> <OMEGA_C>
b0Niwg4aAML3RBJBFV1dwpz8+8FnkQtBihJiwkDyBcIgouZAXqFkwrkvBMLLLQZBMOlawm7z/8E2
R/FAR7dEwjoD6MGIqMU/MH47wnGR7MFtqz9AnsJEwnBa6MFUijtA3K4/wgIl6sFKclc/89dJwv9e
5sHh6mpA5JVSwtN/9MEmCPNAc/ZDwhcX68G4tdxA6NhIwvuh7sH0X/dAc6ZFwgHy4cEmYb5AtPlO
wtW+6MG+27lAk5BNwlbW8cEgd9lAkf1pwnN0BsJsxQxBE1NdwjPfA8Ky7tlA8QlAwkH06sENhWhA
Lik7wvIo7MHq08w/iBhKwnKj5cEWlaJA6vtVwlBB/ME8yeFA7nw/wvsn6sEQkMO+ZQhOwkgy5sGu
0kFAnaBTwq1A78FXkAlBcTFkwjQ3/cEphyBB5XJbwiS+9cF3uxRBQPFjwg0ECcLsddNAD1JIwgk2
5sEBQn4/s+w3wuVA7sEtOWRAqcdAwqlC6MHFN/JAGXtCwgvl8cEZzMlA6rpHwraK9cEyoQVBkx1K
wvr858FQDQZBsftGwj8I28HiXtFAbzlCwkma38F9YKpA9wNSwnmP68HQCaNAKIpQwvnS4cE0ostA
EV5Mwmbu+MEn+MZAuzZtwsMYBMKeYgVB+0hqwjSjCsKxbwdBJF9qwiVIBsKWSh5B/qM3wj5U7cEy
/5I/47lUwlyk/8EWmcZA

> <OMEGA_E>
ON1VPw==

> <OMEGA_NBR>
      2654

$$$$
CACHE3HI_1691_68
  -OEChem-03092622533D

 45 47  0     1  0  0  0  0  0999 V2000
  -47.5362  -30.6890    3.8671 C   0  0  0  0  0  0  0  0  0  0  0  0
  -48.4131  -28.7853    3.2036 C   0  0  0  0  0  0  0  0  0  0  0  0
  -48.0363  -29.4606    4.3389 C   0  0  0  0  0  0  0  0  0  0  0  0
  -53.0349  -30.4349    7.9529 C   0  0  0  0  0  0  0  0  0  0  0  0
  -55.5155  -32.4293   10.1013 C   0  0  0  0  0  0  0  0  0  0  0  0
  -54.1975  -32.0445    9.4345 C   0  0  0  0  0  0  0  0  0  0  0  0
  -56.6652  -32.4640    9.0950 C   0  0  0  0  0  0  0  0  0  0  0  0
  -55.4679  -30.7521    7.6678 C   0  0  0  0  0  0  0  0  0  0  0  0
  -50.8502  -28.6022    6.8645 C   0  0  0  0  0  0  0  0  0  0  0  0
  -50.0068  -30.3888    7.5818 C   0  0  0  0  0  0  0  0  0  0  0  0
  -54.3151  -30.7217    8.6773 C   0  0  2  0  0  0  0  0  0  0  0  0
  -50.8422  -29.2806    8.2458 C   0  0  0  0  0  0  0  0  0  0  0  0
  -56.7924  -31.1520    8.3194 C   0  0  2  0  0  0  0  0  0  0  0  0
  -48.3486  -29.3451    0.7617 C   0  0  0  0  0  0  0  0  0  0  0  0
  -47.5894  -30.7908    2.5364 N   0  0  0  0  0  0  0  0  0  0  0  0
  -48.1272  -29.6177    2.1617 N   0  0  0  0  0  0  0  0  0  0  0  0
  -49.7068  -29.4757    6.4249 N   0  0  0  0  0  0  0  0  0  0  0  0
  -52.1478  -29.7054    8.7255 N   0  0  0  0  0  0  0  0  0  0  0  0
  -52.8451  -30.8088    6.7980 O   0  0  0  0  0  0  0  0  0  0  0  0
  -48.1548  -27.4546    5.9940 O   0  0  0  0  0  0  0  0  0  0  0  0
  -47.1519  -29.6273    6.7824 O   0  0  0  0  0  0  0  0  0  0  0  0
  -57.2009  -30.1087    9.2009 O   0  0  0  0  0  0  0  0  0  0  0  0
  -48.1542  -28.9075    6.0146 S   0  0  0  0  0  0  0  0  0  0  0  0
  -47.1348  -31.5162    4.4352 H   0  0  0  0  0  0  0  0  0  0  0  0
  -48.8497  -27.8074    3.0520 H   0  0  0  0  0  0  0  0  0  0  0  0
  -55.4199  -33.4113   10.5782 H   0  0  0  0  0  0  0  0  0  0  0  0
  -55.7482  -31.7126   10.8961 H   0  0  0  0  0  0  0  0  0  0  0  0
  -53.4280  -31.9461   10.2040 H   0  0  0  0  0  0  0  0  0  0  0  0
  -53.8870  -32.8454    8.7608 H   0  0  0  0  0  0  0  0  0  0  0  0
  -56.5236  -33.2969    8.3929 H   0  0  0  0  0  0  0  0  0  0  0  0
  -57.6093  -32.6793    9.6163 H   0  0  0  0  0  0  0  0  0  0  0  0
  -55.5751  -29.7637    7.2091 H   0  0  0  0  0  0  0  0  0  0  0  0
  -55.2430  -31.4421    6.8491 H   0  0  0  0  0  0  0  0  0  0  0  0
  -51.7476  -28.7687    6.2541 H   0  0  0  0  0  0  0  0  0  0  0  0
  -50.5936  -27.5375    6.8556 H   0  0  0  0  0  0  0  0  0  0  0  0
  -49.1042  -30.6932    8.1226 H   0  0  0  0  0  0  0  0  0  0  0  0
  -50.5615  -31.2812    7.2627 H   0  0  0  0  0  0  0  0  0  0  0  0
  -54.4647  -29.9149    9.3685 H   0  0  0  0  0  0  0  0  0  0  0  0
  -50.2962  -28.7151    9.0115 H   0  0  0  0  0  0  0  0  0  0  0  0
  -57.5736  -31.2529    7.5520 H   0  0  0  0  0  0  0  0  0  0  0  0
  -47.4728  -28.8639    0.3136 H   0  0  0  0  0  0  0  0  0  0  0  0
  -49.2144  -28.6866    0.6409 H   0  0  0  0  0  0  0  0  0  0  0  0
  -48.5281  -30.2718    0.2068 H   0  0  0  0  0  0  0  0  0  0  0  0
  -52.4205  -29.4231    9.6622 H   0  0  0  0  0  0  0  0  0  0  0  0
  -58.0580  -30.3762    9.5673 H   0  0  0  0  0  0  0  0  0  0  0  0
  1  3  1  0  0  0  0
  1 15  2  0  0  0  0
  2  3  2  0  0  0  0
  2 16  1  0  0  0  0
  3 23  1  0  0  0  0
  4 11  1  0  0  0  0
  4 18  1  0  0  0  0
  4 19  2  0  0  0  0
  5  6  1  0  0  0  0
  5  7  1  0  0  0  0
  6 11  1  0  0  0  0
  7 13  1  0  0  0  0
  8 11  1  0  0  0  0
  8 13  1  0  0  0  0
  9 12  1  0  0  0  0
  9 17  1  0  0  0  0
 10 12  1  0  0  0  0
 10 17  1  0  0  0  0
 12 18  1  0  0  0  0
 13 22  1  0  0  0  0
 14 16  1  0  0  0  0
 15 16  1  0  0  0  0
 17 23  1  0  0  0  0
 20 23  2  0  0  0  0
 21 23  2  0  0  0  0
  1 24  1  0  0  0  0
  2 25  1  0  0  0  0
  5 26  1  0  0  0  0
  5 27  1  0  0  0  0
  6 28  1  0  0  0  0
  6 29  1  0  0  0  0
  7 30  1  0  0  0  0
  7 31  1  0  0  0  0
  8 32  1  0  0  0  0
  8 33  1  0  0  0  0
  9 34  1  0  0  0  0
  9 35  1  0  0  0  0
 10 36  1  0  0  0  0
 10 37  1  0  0  0  0
 11 38  1  0  0  0  0
 12 39  1  0  0  0  0
 13 40  1  0  0  0  0
 14 41  1  0  0  0  0
 14 42  1  0  0  0  0
 14 43  1  0  0  0  0
 18 44  1  0  0  0  0
 22 45  1  0  0  0  0
M  END
> <POSIT::Probability>
0.14

> <POSIT::Method>
HYBRID

> <ReceptorTitle>
UCSF-P4409-REFINED_LIGAND-BOUND-STATE_A__DU__LA1_A-201(A)

> <OMEGA_C>
FyU+wiyD9cFAfndAAKdBwjNI5sF8B01ANCVAwkev68Gi2IpAxyNUwsB688EZfv5A2g9ewpG3AcLR
niFBPspYwpgtAMLW8xZBNaliwi7bAcI+hRFBLN9dwlQE9sHRXvVAmWZLwlHR5MEfqttAAAdIwlcc
88F6nvJAp0JZwhLG9cEf1gpBaF5LwrI+6sG97gNBZCtjwj43+cFeHAVB9mRBws/C6sGwAEM/g1s+
wpBT9sG0VCJAOoJAwvvw7MFQWQpAu9NGwlTO68GRmM1AZJdQwpak7cHWmwtBZGFTwlZ49sEyidlA
ip5Awvqi28HWzr9Al5s8wqoE7cGHCdlAss1kwqve8METNxNB7J1AwnhC58E5d8BAD4o8wkEh/MGG
7Y1AHGZDwqR13sGsU0NA861dwiilBcJ9QClBI/5ewk6z/cF+Vi5BRLZVwp+R/8GxQyNBVYxXwrxh
A8JuLAxBNBhiwgwwBcJoSQZB8m9mwp63AsI93BlB30xewhgc7sExseZA2/hcwlKJ+8EDLNtAhf1O
wj4m5sG1IchA0l9KwtNM3MFPYdtAu2pEwrCL9cFM9gFB8z5Kwv0/+sEVaOhA5dtZwq1R78F25RVB
VC9JwpG45cEBLxBBUktmwgAG+sHHqfFAKuQ9wivp5sFAjqA+i9tEwjR+5cHwEiQ/xhxCwqos8sGA
ylM+n65RwoZi68GDmBpBaDtowmMC88GoExlB

> <OMEGA_E>
dWj2vw==

> <OMEGA_NBR>
      4053

$$$$
CACHE3HI_1695_15
  -OEChem-03092622533D

 37 39  0     1  0  0  0  0  0999 V2000
  -48.0012  -29.0787    0.2389 C   0  0  0  0  0  0  0  0  0  0  0  0
  -49.8043  -28.9962    1.8838 C   0  0  0  0  0  0  0  0  0  0  0  0
  -50.2125  -29.0544    3.2185 C   0  0  0  0  0  0  0  0  0  0  0  0
  -56.6428  -33.2354    7.5416 C   0  0  0  0  0  0  0  0  0  0  0  0
  -47.5177  -29.2657    2.6464 C   0  0  0  0  0  0  0  0  0  0  0  0
  -57.0847  -32.1808    8.3023 C   0  0  0  0  0  0  0  0  0  0  0  0
  -48.4401  -29.1117    1.5938 C   0  0  0  0  0  0  0  0  0  0  0  0
  -49.2486  -29.2565    4.2449 C   0  0  0  0  0  0  0  0  0  0  0  0
  -54.7393  -31.9816    7.5204 C   0  0  0  0  0  0  0  0  0  0  0  0
  -52.6991  -30.5724    7.5052 C   0  0  0  0  0  0  0  0  0  0  0  0
  -48.8585  -30.2560    7.8148 C   0  0  0  0  0  0  0  0  0  0  0  0
  -50.3208  -30.2496    8.2849 C   0  0  0  0  0  0  0  0  0  0  0  0
  -48.6444  -29.2178    6.7004 C   0  0  0  0  0  0  0  0  0  0  0  0
  -51.0696  -29.4970    5.9804 C   0  0  0  0  0  0  0  0  0  0  0  0
  -51.2399  -30.5378    7.0859 C   0  0  2  0  0  0  0  0  0  0  0  0
  -47.6595  -29.0569   -0.8750 N   0  0  0  0  0  0  0  0  0  0  0  0
  -47.9276  -29.3374    3.9318 N   0  0  0  0  0  0  0  0  0  0  0  0
  -55.3193  -33.0894    7.1234 N   0  0  0  0  0  0  0  0  0  0  0  0
  -49.6340  -29.4224    5.5895 N   0  0  3  0  0  0  0  0  0  0  0  0
  -53.4193  -31.7124    7.1778 N   0  0  0  0  0  0  0  0  0  0  0  0
  -53.2074  -29.5889    8.0342 O   0  0  0  0  0  0  0  0  0  0  0  0
  -55.8279  -31.0078    8.4850 S   0  0  0  0  0  0  0  0  0  0  0  0
  -50.5268  -28.8648    1.0919 H   0  0  0  0  0  0  0  0  0  0  0  0
  -51.2571  -28.9462    3.4704 H   0  0  0  0  0  0  0  0  0  0  0  0
  -57.2558  -34.0891    7.2927 H   0  0  0  0  0  0  0  0  0  0  0  0
  -46.4630  -29.3278    2.4222 H   0  0  0  0  0  0  0  0  0  0  0  0
  -58.0748  -32.0963    8.7255 H   0  0  0  0  0  0  0  0  0  0  0  0
  -48.2042  -30.0139    8.6652 H   0  0  0  0  0  0  0  0  0  0  0  0
  -48.6064  -31.2556    7.4311 H   0  0  0  0  0  0  0  0  0  0  0  0
  -50.4638  -31.0245    9.0524 H   0  0  0  0  0  0  0  0  0  0  0  0
  -50.5667  -29.2645    8.7082 H   0  0  0  0  0  0  0  0  0  0  0  0
  -48.7729  -28.2081    7.1176 H   0  0  0  0  0  0  0  0  0  0  0  0
  -47.6251  -29.3222    6.3003 H   0  0  0  0  0  0  0  0  0  0  0  0
  -51.6733  -29.7862    5.1076 H   0  0  0  0  0  0  0  0  0  0  0  0
  -51.4018  -28.5144    6.3468 H   0  0  0  0  0  0  0  0  0  0  0  0
  -50.9720  -31.5233    6.6771 H   0  0  0  0  0  0  0  0  0  0  0  0
  -52.9415  -32.4091    6.6427 H   0  0  0  0  0  0  0  0  0  0  0  0
  1  7  1  0  0  0  0
  1 16  3  0  0  0  0
  2  3  1  0  0  0  0
  2  7  2  0  0  0  0
  3  8  2  0  0  0  0
  4  6  2  0  0  0  0
  4 18  1  0  0  0  0
  5  7  1  0  0  0  0
  5 17  2  0  0  0  0
  6 22  1  0  0  0  0
  8 17  1  0  0  0  0
  8 19  1  0  0  0  0
  9 18  2  0  0  0  0
  9 20  1  0  0  0  0
  9 22  1  0  0  0  0
 10 15  1  0  0  0  0
 10 20  1  0  0  0  0
 10 21  2  0  0  0  0
 11 12  1  0  0  0  0
 11 13  1  0  0  0  0
 12 15  1  0  0  0  0
 13 19  1  0  0  0  0
 14 15  1  0  0  0  0
 14 19  1  0  0  0  0
  2 23  1  0  0  0  0
  3 24  1  0  0  0  0
  4 25  1  0  0  0  0
  5 26  1  0  0  0  0
  6 27  1  0  0  0  0
 11 28  1  0  0  0  0
 11 29  1  0  0  0  0
 12 30  1  0  0  0  0
 12 31  1  0  0  0  0
 13 32  1  0  0  0  0
 13 33  1  0  0  0  0
 14 34  1  0  0  0  0
 14 35  1  0  0  0  0
 15 36  1  0  0  0  0
 20 37  1  0  0  0  0
M  END
> <POSIT::Probability>
0.91

> <POSIT::Method>
SHAPEFIT

> <ReceptorTitle>
UCSF-P4409-REFINED_LIGAND-BOUND-STATE_A__DU__LA1_A-201(A)

> <OMEGA_C>
QAFAwh2h6MHSpnQ+mDdHwkH458HOIPE/ldlIwmxv6MGK+01APZJiwhbxBMJ4VPFAFBI+wjcg6sH5
XilAvlZkwhu5AMJI1gRBtcJBwrzk6MFWAcw/if5EwlIN6sEB1odAEfVawk3a/8Ebp/BA18tSwkyU
9MFUKvBAJW9DwlMM8sHeEvpAiUhJwif/8cEPjwRB0ZNCwhm+6cH+adZAO0dMwsH568HUX79AoPVM
wnJN9MEDwOJATaM+woZ06MFa/V+/47U/wuWy6sFIontA8kZdwoFbBMJG8+NAL4lGwiBh68Ea3bJA
Vq1Vwgqz/cHTsOVAaNRUwgS27MEwjABBvE9fwvwP+MGOwgdBaxtKwhnr5sH8wos/RgdNwueR58Em
G15A8QVlwjxbCMI0XulAIdo5wkWf6sHtBBtAj0xowqdiAMKGmwtBGdFAwokc8MHLpApB+2xCwoQL
+sGVy+1A4tpJwjEy+MHH1hBBRkRKwrcd6sHrVAtBcRdDwkCq4cEmw+NADoA+wt2T6sHTm8lAd7FO
whFK7sGJcaNAfptNwosd5MEvGctAYONLwqQv/MGjqtVAIMRTwu6iAcLikNRA

> <OMEGA_E>
kChnPg==

> <OMEGA_NBR>
      5317

$$$$
CACHE3HI_1695_4
  -OEChem-03092622533D

 35 37  0     0  0  0  0  0  0999 V2000
  -46.9187  -29.9546    4.7721 C   0  0  0  0  0  0  0  0  0  0  0  0
  -46.5915  -29.9786    3.4163 C   0  0  0  0  0  0  0  0  0  0  0  0
  -48.4637  -28.5284    2.9377 C   0  0  0  0  0  0  0  0  0  0  0  0
  -56.1314  -31.1659    7.7069 C   0  0  0  0  0  0  0  0  0  0  0  0
  -56.0516  -31.2439    9.0815 C   0  0  0  0  0  0  0  0  0  0  0  0
  -48.7910  -28.5044    4.2934 C   0  0  0  0  0  0  0  0  0  0  0  0
  -48.0185  -29.2173    5.2105 C   0  0  0  0  0  0  0  0  0  0  0  0
  -47.3639  -29.2657    2.4992 C   0  0  0  0  0  0  0  0  0  0  0  0
  -53.9794  -30.8113    7.9331 C   0  0  0  0  0  0  0  0  0  0  0  0
  -52.2529  -29.3429    6.9068 C   0  0  0  0  0  0  0  0  0  0  0  0
  -51.5922  -31.4936    8.0177 C   0  0  0  0  0  0  0  0  0  0  0  0
  -50.9955  -29.5835    6.0783 C   0  0  0  0  0  0  0  0  0  0  0  0
  -50.2630  -30.7618    8.1711 C   0  0  0  0  0  0  0  0  0  0  0  0
  -54.9439  -30.9179    7.0466 N   0  0  0  0  0  0  0  0  0  0  0  0
  -52.6466  -30.5605    7.6159 N   0  0  0  0  0  0  0  0  0  0  0  0
  -49.8719  -30.1035    6.9010 N   0  0  0  0  0  0  0  0  0  0  0  0
  -48.7434  -27.8259    7.2880 O   0  0  0  0  0  0  0  0  0  0  0  0
  -47.4148  -29.9376    7.6389 O   0  0  0  0  0  0  0  0  0  0  0  0
  -49.8516  -27.7945    4.7031 F   0  0  0  0  0  0  0  0  0  0  0  0
  -54.4286  -30.9998    9.5781 S   0  0  0  0  0  0  0  0  0  0  0  0
  -48.4302  -29.1916    6.9268 S   0  0  0  0  0  0  0  0  0  0  0  0
  -46.9592  -29.2952    0.8268 Cl  0  0  0  0  0  0  0  0  0  0  0  0
  -46.3095  -30.5140    5.4770 H   0  0  0  0  0  0  0  0  0  0  0  0
  -45.7318  -30.5573    3.0880 H   0  0  0  0  0  0  0  0  0  0  0  0
  -49.0737  -27.9667    2.2352 H   0  0  0  0  0  0  0  0  0  0  0  0
  -57.0398  -31.2834    7.1317 H   0  0  0  0  0  0  0  0  0  0  0  0
  -56.8433  -31.4273    9.7936 H   0  0  0  0  0  0  0  0  0  0  0  0
  -52.0710  -28.5433    7.6375 H   0  0  0  0  0  0  0  0  0  0  0  0
  -53.0574  -29.0040    6.2411 H   0  0  0  0  0  0  0  0  0  0  0  0
  -51.4749  -32.2915    7.2740 H   0  0  0  0  0  0  0  0  0  0  0  0
  -51.8709  -31.9645    8.9691 H   0  0  0  0  0  0  0  0  0  0  0  0
  -51.2079  -30.2898    5.2527 H   0  0  0  0  0  0  0  0  0  0  0  0
  -50.6928  -28.6284    5.6107 H   0  0  0  0  0  0  0  0  0  0  0  0
  -50.3679  -30.0019    8.9609 H   0  0  0  0  0  0  0  0  0  0  0  0
  -49.4727  -31.4613    8.4888 H   0  0  0  0  0  0  0  0  0  0  0  0
  1  2  1  0  0  0  0
  1  7  2  0  0  0  0
  2  8  2  0  0  0  0
  3  6  2  0  0  0  0
  3  8  1  0  0  0  0
  4  5  2  0  0  0  0
  4 14  1  0  0  0  0
  5 20  1  0  0  0  0
  6  7  1  0  0  0  0
  6 19  1  0  0  0  0
  7 21  1  0  0  0  0
  8 22  1  0  0  0  0
  9 14  2  0  0  0  0
  9 15  1  0  0  0  0
  9 20  1  0  0  0  0
 10 12  1  0  0  0  0
 10 15  1  0  0  0  0
 11 13  1  0  0  0  0
 11 15  1  0  0  0  0
 12 16  1  0  0  0  0
 13 16  1  0  0  0  0
 16 21  1  0  0  0  0
 17 21  2  0  0  0  0
 18 21  2  0  0  0  0
  1 23  1  0  0  0  0
  2 24  1  0  0  0  0
  3 25  1  0  0  0  0
  4 26  1  0  0  0  0
  5 27  1  0  0  0  0
 10 28  1  0  0  0  0
 10 29  1  0  0  0  0
 11 30  1  0  0  0  0
 11 31  1  0  0  0  0
 12 32  1  0  0  0  0
 12 33  1  0  0  0  0
 13 34  1  0  0  0  0
 13 35  1  0  0  0  0
M  END
> <POSIT::Probability>
0.18

> <POSIT::Method>
HYBRID

> <ReceptorTitle>
UCSF-P4409-REFINED_LIGAND-BOUND-STATE_A__DU__LA1_A-201(A)

> <OMEGA_C>
yKw7wg6j78HqtJhAq106wjXU78FjpVpA3tpBwhw65MGiAjxAhoZgwthT+cGanvZA0TRgworz+cGg
TRFB8ilDwgAJ5MEyY4lA+hJAwvq86cF2vKZAonQ9wjog6sHc8h9A5epXwnN99sHa2/1A9wJRwiy+
6sGmBN1AbF5OwtLy+8FlSABBY/tLwgyr7MEegcJATw1Jwi0Y9sHrvAJBkMZbwtBX98HIfeFAFZZS
wvJ79MEdtfNA3HxHwvTT8MEL1dxASPlCwmSb3sH0NulAw6g9wkyA78HLcfRA/2dHwiZb3sHof5ZA
57ZZwqj/98HfPxlBirhBwlaI6cF+qN1ALdY7wqBc6sFQp1M/7Tw5wqIc9MG+Q69AU+02wlx19MGs
oUVAfktEwsG738HoDA9AxihkwmdE+sHPNuRAg19jwh5r+8GsshxBrUhQwqhY5MFlZvRAvjpUwikI
6MFMt8dAWeZNwowqAcI6xOhAzntPwl63/8FagQ9B7dRMwolR8sEvFqhAbMVKwuoG5cGQirNAxnhJ
wtQD8MG2Xw9BBORFwtWw+8Hx0QdB

> <OMEGA_E>
Su1WwA==

> <OMEGA_NBR>
      6510

$$$$
CACHE3HI_1695_47
  -OEChem-03092622533D

 41 43  0     0  0  0  0  0  0999 V2000
  -47.7989  -29.0496   -0.0431 C   0  0  0  0  0  0  0  0  0  0  0  0
  -49.3192  -28.6392    1.8388 C   0  0  0  0  0  0  0  0  0  0  0  0
  -47.0082  -29.3024    2.2597 C   0  0  0  0  0  0  0  0  0  0  0  0
  -49.5346  -28.5421    3.2220 C   0  0  0  0  0  0  0  0  0  0  0  0
  -47.2385  -29.2589    3.6434 C   0  0  0  0  0  0  0  0  0  0  0  0
  -55.3574  -30.7395    7.9837 C   0  0  0  0  0  0  0  0  0  0  0  0
  -54.5648  -29.6301    8.3144 C   0  0  0  0  0  0  0  0  0  0  0  0
  -48.0500  -29.0096    1.3589 C   0  0  0  0  0  0  0  0  0  0  0  0
  -48.5096  -28.9007    4.1381 C   0  0  0  0  0  0  0  0  0  0  0  0
  -54.7151  -31.9287    7.5610 C   0  0  0  0  0  0  0  0  0  0  0  0
  -52.6374  -30.8769    7.8665 C   0  0  0  0  0  0  0  0  0  0  0  0
  -48.7520  -28.8904    5.6002 C   0  0  0  0  0  0  0  0  0  0  0  0
  -50.7942  -31.3010    6.3469 C   0  0  0  0  0  0  0  0  0  0  0  0
  -50.3703  -29.9245    8.3795 C   0  0  0  0  0  0  0  0  0  0  0  0
  -50.9493  -30.0276    5.5101 C   0  0  0  0  0  0  0  0  0  0  0  0
  -50.3259  -28.6396    7.5176 C   0  0  0  0  0  0  0  0  0  0  0  0
  -56.8210  -33.1170    7.4744 C   0  0  0  0  0  0  0  0  0  0  0  0
  -47.5790  -29.0775   -1.1871 N   0  0  0  0  0  0  0  0  0  0  0  0
  -53.2227  -29.7164    8.2597 N   0  0  0  0  0  0  0  0  0  0  0  0
  -53.3690  -31.9570    7.4867 N   0  0  0  0  0  0  0  0  0  0  0  0
  -51.2470  -30.9302    7.7014 N   0  0  0  0  0  0  0  0  0  0  0  0
  -50.0492  -29.0010    6.1043 N   0  0  0  0  0  0  0  0  0  0  0  0
  -47.8006  -28.7986    6.3709 O   0  0  0  0  0  0  0  0  0  0  0  0
  -55.3931  -33.0960    7.2360 O   0  0  0  0  0  0  0  0  0  0  0  0
  -50.1225  -28.4310    1.1475 H   0  0  0  0  0  0  0  0  0  0  0  0
  -46.0290  -29.5612    1.8848 H   0  0  0  0  0  0  0  0  0  0  0  0
  -50.4866  -28.1921    3.5929 H   0  0  0  0  0  0  0  0  0  0  0  0
  -46.4410  -29.5001    4.3305 H   0  0  0  0  0  0  0  0  0  0  0  0
  -56.4341  -30.6877    8.0501 H   0  0  0  0  0  0  0  0  0  0  0  0
  -55.0329  -28.7040    8.6137 H   0  0  0  0  0  0  0  0  0  0  0  0
  -51.4189  -32.1093    5.9389 H   0  0  0  0  0  0  0  0  0  0  0  0
  -49.7430  -31.6243    6.3664 H   0  0  0  0  0  0  0  0  0  0  0  0
  -49.3545  -30.3326    8.4873 H   0  0  0  0  0  0  0  0  0  0  0  0
  -50.7783  -29.6889    9.3735 H   0  0  0  0  0  0  0  0  0  0  0  0
  -50.6608  -30.2240    4.4670 H   0  0  0  0  0  0  0  0  0  0  0  0
  -51.9922  -29.6793    5.5427 H   0  0  0  0  0  0  0  0  0  0  0  0
  -51.2944  -28.1219    7.5808 H   0  0  0  0  0  0  0  0  0  0  0  0
  -49.5307  -27.9763    7.8888 H   0  0  0  0  0  0  0  0  0  0  0  0
  -57.2289  -34.0938    7.1750 H   0  0  0  0  0  0  0  0  0  0  0  0
  -57.0166  -32.9504    8.5440 H   0  0  0  0  0  0  0  0  0  0  0  0
  -57.3026  -32.3226    6.8854 H   0  0  0  0  0  0  0  0  0  0  0  0
  1  8  1  0  0  0  0
  1 18  3  0  0  0  0
  2  4  2  0  0  0  0
  2  8  1  0  0  0  0
  3  5  1  0  0  0  0
  3  8  2  0  0  0  0
  4  9  1  0  0  0  0
  5  9  2  0  0  0  0
  6  7  2  0  0  0  0
  6 10  1  0  0  0  0
  7 19  1  0  0  0  0
  9 12  1  0  0  0  0
 10 20  2  0  0  0  0
 10 24  1  0  0  0  0
 11 19  2  0  0  0  0
 11 20  1  0  0  0  0
 11 21  1  0  0  0  0
 12 22  1  0  0  0  0
 12 23  2  0  0  0  0
 13 15  1  0  0  0  0
 13 21  1  0  0  0  0
 14 16  1  0  0  0  0
 14 21  1  0  0  0  0
 15 22  1  0  0  0  0
 16 22  1  0  0  0  0
 17 24  1  0  0  0  0
  2 25  1  0  0  0  0
  3 26  1  0  0  0  0
  4 27  1  0  0  0  0
  5 28  1  0  0  0  0
  6 29  1  0  0  0  0
  7 30  1  0  0  0  0
 13 31  1  0  0  0  0
 13 32  1  0  0  0  0
 14 33  1  0  0  0  0
 14 34  1  0  0  0  0
 15 35  1  0  0  0  0
 15 36  1  0  0  0  0
 16 37  1  0  0  0  0
 16 38  1  0  0  0  0
 17 39  1  0  0  0  0
 17 40  1  0  0  0  0
 17 41  1  0  0  0  0
M  END
> <POSIT::Probability>
0.72

> <POSIT::Method>
SHAPEFIT

> <ReceptorTitle>
UCSF-P4409-REFINED_LIGAND-BOUND-STATE_A__DU__LA1_A-201(A)

> <OMEGA_C>
EzI/wqZl6MGgqDC96UZFwhMd5cHmXus/Wwg8wkZr6sFOnxBAciNGwiFW5MHPNE5AQfQ8wiAS6sHW
LGlA8m1dwnnq9cGEev9ATkJawnEK7cGnBwVBNzNAwo8T6MHt760/0AlCwpM058Gfa4RAS9xawgNu
/8GR8/FApoxSwuYD98G5uvtABQJDwoUf58F4NLNAQi1LwoNo+sF9GctANHtJwl1l78E+EgZBE8xL
wm848MHaUrBAr01Jwtod5cH7j/BAt0hjwtd3BMIiLu9A2VA+wqKe6MGk85e/CuRUwiG77cHSJwRB
2nlVwu2n/8E/k+9A8PxMwh1x98EQcvZAZjJIwv4B6ME6VsNA2jM/wp5j5sHC3stAgJJdwlViBMKM
jedAbH1IwsNy48Ga4pI/qx04wmB97MENQPE/T/JJwmSJ4cEb8mVAkMM5wi0A7ME5k4pAf7xhwlKA
9cFGzQBBtyFcwtSh5cGj0QlB8KxNwvJvAMJ3C75Ay/hGwqP+/MFductACWtFwiSp8sEFzAdB9hxL
wuyC7cG8+RVBpqRKwsvK8cFW8Y5ABPhPwj5v7cElXrFAdC1Nwrf54ME+lvJAbx9GwpDP38FscfxA
a+pkwgBgCMKdmeVA+RBkwjXNA8IKtAhB6TVlwk5KAcKTVdxA

> <OMEGA_E>
dEVZPw==

> <OMEGA_NBR>
      7846

$$$$
CACHE3HI_1695_7
  -OEChem-03092622533D

 48 51  0     1  0  0  0  0  0999 V2000
  -46.2816  -29.2995    4.2013 C   0  0  0  0  0  0  0  0  0  0  0  0
  -57.4090  -32.6952    8.1467 C   0  0  0  0  0  0  0  0  0  0  0  0
  -56.8756  -31.4810    8.6037 C   0  0  0  0  0  0  0  0  0  0  0  0
  -56.6002  -33.5197    7.3464 C   0  0  0  0  0  0  0  0  0  0  0  0
  -47.4478  -29.2933    3.3751 C   0  0  0  0  0  0  0  0  0  0  0  0
  -48.7756  -29.2820    3.7366 C   0  0  0  0  0  0  0  0  0  0  0  0
  -48.6495  -29.1608    1.5607 C   0  0  0  0  0  0  0  0  0  0  0  0
  -54.8454  -31.9856    7.5425 C   0  0  0  0  0  0  0  0  0  0  0  0
  -52.7596  -30.6597    7.8351 C   0  0  0  0  0  0  0  0  0  0  0  0
  -48.1914  -29.3509   -0.9742 C   0  0  0  0  0  0  0  0  0  0  0  0
  -48.4537  -27.8850   -0.6477 C   0  0  0  0  0  0  0  0  0  0  0  0
  -48.7305  -29.6622    6.2172 C   0  0  0  0  0  0  0  0  0  0  0  0
  -50.9265  -29.2211    4.9084 C   0  0  0  0  0  0  0  0  0  0  0  0
  -49.3853  -28.9649    7.4026 C   0  0  0  0  0  0  0  0  0  0  0  0
  -51.4763  -28.5734    6.1733 C   0  0  0  0  0  0  0  0  0  0  0  0
  -49.1459  -28.9830    0.1668 C   0  0  0  0  0  0  0  0  0  0  0  0
  -50.5440  -31.3026    8.7625 C   0  0  0  0  0  0  0  0  0  0  0  0
  -51.2604  -30.6337    7.5730 C   0  0  2  0  0  0  0  0  0  0  0  0
  -45.3464  -29.3055    4.8975 N   0  0  0  0  0  0  0  0  0  0  0  0
  -55.6108  -31.1424    8.2891 N   0  0  0  0  0  0  0  0  0  0  0  0
  -55.3351  -33.1507    7.0519 N   0  0  0  0  0  0  0  0  0  0  0  0
  -47.4127  -29.2040    1.9968 N   0  0  0  0  0  0  0  0  0  0  0  0
  -49.4258  -29.2543    4.9573 N   0  0  0  0  0  0  0  0  0  0  0  0
  -50.8476  -29.2036    7.3683 N   0  0  0  0  0  0  0  0  0  0  0  0
  -53.4938  -31.7209    7.3115 N   0  0  0  0  0  0  0  0  0  0  0  0
  -53.2600  -29.7707    8.5192 O   0  0  0  0  0  0  0  0  0  0  0  0
  -49.4830  -29.2594    2.5958 O   0  0  0  0  0  0  0  0  0  0  0  0
  -58.4161  -32.9890    8.4034 H   0  0  0  0  0  0  0  0  0  0  0  0
  -57.4785  -30.8186    9.2071 H   0  0  0  0  0  0  0  0  0  0  0  0
  -56.9916  -34.4515    6.9657 H   0  0  0  0  0  0  0  0  0  0  0  0
  -48.5877  -29.7864   -1.9033 H   0  0  0  0  0  0  0  0  0  0  0  0
  -47.2117  -29.7973   -0.7487 H   0  0  0  0  0  0  0  0  0  0  0  0
  -47.6631  -27.2746   -0.1869 H   0  0  0  0  0  0  0  0  0  0  0  0
  -49.0391  -27.2637   -1.3415 H   0  0  0  0  0  0  0  0  0  0  0  0
  -47.6703  -29.3742    6.1614 H   0  0  0  0  0  0  0  0  0  0  0  0
  -48.8082  -30.7522    6.3433 H   0  0  0  0  0  0  0  0  0  0  0  0
  -51.3110  -30.2486    4.8289 H   0  0  0  0  0  0  0  0  0  0  0  0
  -51.2493  -28.6399    4.0320 H   0  0  0  0  0  0  0  0  0  0  0  0
  -48.9700  -29.3655    8.3391 H   0  0  0  0  0  0  0  0  0  0  0  0
  -49.1886  -27.8841    7.3470 H   0  0  0  0  0  0  0  0  0  0  0  0
  -51.2478  -27.4975    6.1633 H   0  0  0  0  0  0  0  0  0  0  0  0
  -52.5662  -28.7163    6.2143 H   0  0  0  0  0  0  0  0  0  0  0  0
  -50.2200  -29.1344   -0.0159 H   0  0  0  0  0  0  0  0  0  0  0  0
  -49.4577  -31.2926    8.5897 H   0  0  0  0  0  0  0  0  0  0  0  0
  -50.7733  -30.7506    9.6860 H   0  0  0  0  0  0  0  0  0  0  0  0
  -50.8899  -32.3421    8.8613 H   0  0  0  0  0  0  0  0  0  0  0  0
  -51.0452  -31.2088    6.6603 H   0  0  0  0  0  0  0  0  0  0  0  0
  -53.0057  -32.3550    6.7118 H   0  0  0  0  0  0  0  0  0  0  0  0
  1  5  1  0  0  0  0
  1 19  3  0  0  0  0
  2  3  1  0  0  0  0
  2  4  2  0  0  0  0
  3 20  2  0  0  0  0
  4 21  1  0  0  0  0
  5  6  2  0  0  0  0
  5 22  1  0  0  0  0
  6 23  1  0  0  0  0
  6 27  1  0  0  0  0
  7 16  1  0  0  0  0
  7 22  2  0  0  0  0
  7 27  1  0  0  0  0
  8 20  1  0  0  0  0
  8 21  2  0  0  0  0
  8 25  1  0  0  0  0
  9 18  1  0  0  0  0
  9 25  1  0  0  0  0
  9 26  2  0  0  0  0
 10 11  1  0  0  0  0
 10 16  1  0  0  0  0
 11 16  1  0  0  0  0
 12 14  1  0  0  0  0
 12 23  1  0  0  0  0
 13 15  1  0  0  0  0
 13 23  1  0  0  0  0
 14 24  1  0  0  0  0
 15 24  1  0  0  0  0
 17 18  1  0  0  0  0
 18 24  1  0  0  0  0
  2 28  1  0  0  0  0
  3 29  1  0  0  0  0
  4 30  1  0  0  0  0
 10 31  1  0  0  0  0
 10 32  1  0  0  0  0
 11 33  1  0  0  0  0
 11 34  1  0  0  0  0
 12 35  1  0  0  0  0
 12 36  1  0  0  0  0
 13 37  1  0  0  0  0
 13 38  1  0  0  0  0
 14 39  1  0  0  0  0
 14 40  1  0  0  0  0
 15 41  1  0  0  0  0
 15 42  1  0  0  0  0
 16 43  1  0  0  0  0
 17 44  1  0  0  0  0
 17 45  1  0  0  0  0
 17 46  1  0  0  0  0
 18 47  1  0  0  0  0
 25 48  1  0  0  0  0
M  END
> <POSIT::Probability>
0.72

> <POSIT::Method>
SHAPEFIT

> <ReceptorTitle>
UCSF-P4409-REFINED_LIGAND-BOUND-STATE_A__DU__LA1_A-201(A)

> <OMEGA_C>
UiA5wlJl6sHHcIZA1KJlwubHAsK5WAJBooBjwgLZ+8HYqAlBlmZiwicUBsK8FetAjMo9wsVY6sEk
AlhALBpDwphB6sFoJG9AFZlCwkJJ6cFsxcc/rGFbwm7i/8GAXPFA1AlTwg5H9cFsufpACcRAwpzO
6sFXZXm/m9BBwmQU38Eb0iW//+tCwjNM7cHu8sZAurRLwrzE6cGzEZ1AkIpFwhu458EE4uxAxudN
wlWW5MGyi8VAZpVEwhzd58FwzCo+BC1Kwrpr+sFiMwxBngpNwtIR9cHgVfJAqmI1wsFx6sGCuJxA
f3Fewpwj+cEXoARBIlddwkiaBMIjqeFAmaY9wt+h6cEglv8/CbRFwtwI6sFMop5A82NLwuWg6cE+
yetAo/lVwmzE/cHM9+lAOwpVwk8q7sGFTghBne5FwjMT6sEgIiZAD6ppwrn0A8JpdAZBBeplwmiM
9sFyUBNBX/djwk/OCcKj5t5A21lCwoVK7sFGoPO/zdg8wuxg7sE3rT+/+6Y+wmUy2sEaaT++CihE
wv8b2sHNtqu/Ya4+wnT+6sHuKcVAnDtDwnYE9sFq/MpAbz5Nwij98cF0hppAVP9Mwpge5cFOBoFA
TuFDwn/s6sH9bAVBFcFEwpES38FpGutAtf1Mws3628H4OcVA1kNSwhK75cFe28ZAROFIwlUT6cGu
foK8p9RFwlBX+sFybwlB0xdLwjgB9sG5+RpBPI9LwlReAcLExw1BTi5Mwp6r+cE+IdVA2wVUwpBr
AcLdxtZA

> <OMEGA_E>
HnRTPw==

> <OMEGA_NBR>
      9326

$$$$
CACHE3HI_1695_80
  -OEChem-03092622533D

 33 35  0     1  0  0  0  0  0999 V2000
  -45.6318  -29.3708    3.5651 C   0  0  0  0  0  0  0  0  0  0  0  0
  -46.6849  -29.3793    2.6312 C   0  0  0  0  0  0  0  0  0  0  0  0
  -45.8766  -29.6068    4.9190 C   0  0  0  0  0  0  0  0  0  0  0  0
  -48.0017  -29.6246    3.0357 C   0  0  0  0  0  0  0  0  0  0  0  0
  -55.7298  -32.4145    7.4151 C   0  0  0  0  0  0  0  0  0  0  0  0
  -55.3416  -33.1583    6.3206 C   0  0  0  0  0  0  0  0  0  0  0  0
  -47.1846  -29.8459    5.2912 C   0  0  0  0  0  0  0  0  0  0  0  0
  -48.2388  -29.8578    4.3767 C   0  0  0  0  0  0  0  0  0  0  0  0
  -53.6159  -31.8350    7.3553 C   0  0  0  0  0  0  0  0  0  0  0  0
  -47.7280  -30.1220    6.6252 C   0  0  0  0  0  0  0  0  0  0  0  0
  -51.1642  -31.4430    6.9293 C   0  0  0  0  0  0  0  0  0  0  0  0
  -49.5272  -30.1432    5.0702 C   0  0  0  0  0  0  0  0  0  0  0  0
  -50.6003  -29.3036    8.1158 C   0  0  0  0  0  0  0  0  0  0  0  0
  -50.0436  -30.5831    7.5111 C   0  0  2  0  0  0  0  0  0  0  0  0
  -54.7414  -31.6549    8.0098 N   0  0  0  0  0  0  0  0  0  0  0  0
  -49.0978  -30.2901    6.4559 N   0  0  0  0  0  0  0  0  0  0  0  0
  -52.3552  -31.2506    7.6243 N   0  0  0  0  0  0  0  0  0  0  0  0
  -47.0546  -30.1784    7.6377 O   0  0  0  0  0  0  0  0  0  0  0  0
  -50.9866  -32.1595    5.9489 O   0  0  0  0  0  0  0  0  0  0  0  0
  -53.6741  -32.9028    6.0138 S   0  0  0  0  0  0  0  0  0  0  0  0
  -44.6175  -29.1777    3.2260 H   0  0  0  0  0  0  0  0  0  0  0  0
  -46.4706  -29.1928    1.5821 H   0  0  0  0  0  0  0  0  0  0  0  0
  -45.0673  -29.6007    5.6398 H   0  0  0  0  0  0  0  0  0  0  0  0
  -48.8091  -29.6303    2.3117 H   0  0  0  0  0  0  0  0  0  0  0  0
  -56.7309  -32.3906    7.8240 H   0  0  0  0  0  0  0  0  0  0  0  0
  -55.9389  -33.8172    5.7068 H   0  0  0  0  0  0  0  0  0  0  0  0
  -50.2277  -29.3069    4.9968 H   0  0  0  0  0  0  0  0  0  0  0  0
  -49.9776  -31.0802    4.7313 H   0  0  0  0  0  0  0  0  0  0  0  0
  -51.1464  -28.7228    7.3649 H   0  0  0  0  0  0  0  0  0  0  0  0
  -51.2937  -29.5222    8.9362 H   0  0  0  0  0  0  0  0  0  0  0  0
  -49.8005  -28.6733    8.5185 H   0  0  0  0  0  0  0  0  0  0  0  0
  -49.4995  -31.1565    8.2696 H   0  0  0  0  0  0  0  0  0  0  0  0
  -52.3321  -30.6178    8.4209 H   0  0  0  0  0  0  0  0  0  0  0  0
  1  2  1  0  0  0  0
  1  3  2  0  0  0  0
  2  4  2  0  0  0  0
  3  7  1  0  0  0  0
  4  8  1  0  0  0  0
  5  6  2  0  0  0  0
  5 15  1  0  0  0  0
  6 20  1  0  0  0  0
  7  8  2  0  0  0  0
  7 10  1  0  0  0  0
  8 12  1  0  0  0  0
  9 15  2  0  0  0  0
  9 17  1  0  0  0  0
  9 20  1  0  0  0  0
 10 16  1  0  0  0  0
 10 18  2  0  0  0  0
 11 14  1  0  0  0  0
 11 17  1  0  0  0  0
 11 19  2  0  0  0  0
 12 16  1  0  0  0  0
 13 14  1  0  0  0  0
 14 16  1  0  0  0  0
  1 21  1  0  0  0  0
  2 22  1  0  0  0  0
  3 23  1  0  0  0  0
  4 24  1  0  0  0  0
  5 25  1  0  0  0  0
  6 26  1  0  0  0  0
 12 27  1  0  0  0  0
 12 28  1  0  0  0  0
 13 29  1  0  0  0  0
 13 30  1  0  0  0  0
 13 31  1  0  0  0  0
 14 32  1  0  0  0  0
 17 33  1  0  0  0  0
M  END
> <POSIT::Probability>
0.18

> <POSIT::Method>
HYBRID

> <ReceptorTitle>
UCSF-P4409-REFINED_LIGAND-BOUND-STATE_A__DU__LA1_A-201(A)

> <OMEGA_C>
Aoc2wnL36sH7KWRAUL06wtEI68FAZShAr4E3wqfa7MG3aJ1AtQFAwjX/7MEzSEJAVetewmuoAcLY
SO1A1l1dwhqiBMKHQspACb08wn7E7sFjUalAjfRAwszc7sHcDYxAsXZWwguu/sG0XutAhOk+wsn5
8MHOAdRAIqhMwkOL+8GNvN1A0BtGwkQl8cFkP6JAqGZKwr5t6sEt2gFBqyxIwhiq9MHAWvBAMfda
wkA9/cErKABBMmREwiNS8sHuls5At2tRwicB+sHc+fNA6zc8wlVt8cEJaPRARvJLwlGjAMJdXb5A
QLJWwnicA8KkcMBAW3gywgds6cGRdk5A2OE5wtiK6cF0gco/9kQ0wjfO7MHjeLRAfzxDwvEK7cEU
8hNAbOxiwvGPAcKHXvpAdMFfwsNEB8IEnrZAN+lIwnV06sF35Z9AB+lHwjek+MGeZpdA4pVMwkDI
5cE+retAyixNwnIt7MF8+g5BtjNHwt1i5cGeSwhBff9FwphA+cEkUARBB1RRwlDx9MECvAZB

> <OMEGA_E>
7zAnwA==

> <OMEGA_NBR>
     10482

$$$$
CACHE3HI_1697_2
  -OEChem-03092622533D

 55 58  0     1  0  0  0  0  0999 V2000
  -50.7465  -29.3375    8.5134 C   0  0  0  0  0  0  0  0  0  0  0  0
  -51.3770  -29.0313    7.3074 C   0  0  0  0  0  0  0  0  0  0  0  0
  -51.4686  -29.3010    9.7062 C   0  0  0  0  0  0  0  0  0  0  0  0
  -53.4514  -28.6526    8.4868 C   0  0  0  0  0  0  0  0  0  0  0  0
  -41.8318  -30.6423    2.0997 C   0  0  0  0  0  0  0  0  0  0  0  0
  -42.9211  -31.4305    1.7990 C   0  0  0  0  0  0  0  0  0  0  0  0
  -54.8356  -27.8487    4.7492 C   0  0  0  0  0  0  0  0  0  0  0  0
  -43.1659  -29.2803    3.3632 C   0  0  0  0  0  0  0  0  0  0  0  0
  -52.7293  -28.6890    7.2940 C   0  0  0  0  0  0  0  0  0  0  0  0
  -52.8209  -28.9587    9.6928 C   0  0  0  0  0  0  0  0  0  0  0  0
  -53.6315  -28.0684    4.0660 C   0  0  0  0  0  0  0  0  0  0  0  0
  -44.2553  -30.0686    3.0623 C   0  0  0  0  0  0  0  0  0  0  0  0
  -53.3468  -27.9629    2.6123 C   0  0  0  0  0  0  0  0  0  0  0  0
  -49.1371  -29.5222    2.6068 C   0  0  0  0  0  0  0  0  0  0  0  0
  -46.7535  -28.7365    5.4823 C   0  0  0  0  0  0  0  0  0  0  0  0
  -48.0583  -29.0894    4.7804 C   0  0  0  0  0  0  0  0  0  0  0  0
  -45.6174  -29.6654    5.0615 C   0  0  0  0  0  0  0  0  0  0  0  0
  -46.7216  -30.0228    2.8471 C   0  0  0  0  0  0  0  0  0  0  0  0
  -47.8627  -29.0931    3.2674 C   0  0  1  0  0  0  0  0  0  0  0  0
  -51.6064  -28.1625    0.8553 C   0  0  0  0  0  0  0  0  0  0  0  0
  -50.4842  -29.1418    0.5511 C   0  0  0  0  0  0  0  0  0  0  0  0
  -41.9343  -29.5533    2.8870 N   0  0  0  0  0  0  0  0  0  0  0  0
  -44.1527  -31.1577    2.2753 N   0  0  0  0  0  0  0  0  0  0  0  0
  -54.6578  -28.0519    6.0575 N   0  0  0  0  0  0  0  0  0  0  0  0
  -52.6758  -28.4142    4.9329 N   0  0  0  0  0  0  0  0  0  0  0  0
  -53.3572  -28.3834    6.0891 N   0  0  0  0  0  0  0  0  0  0  0  0
  -45.4995  -29.7132    3.5978 N   0  0  2  0  0  0  0  0  0  0  0  0
  -52.0427  -28.2436    2.2233 N   0  0  0  0  0  0  0  0  0  0  0  0
  -49.3220  -28.9115    1.3784 N   0  0  0  0  0  0  0  0  0  0  0  0
  -54.2460  -27.6233    1.8478 O   0  0  0  0  0  0  0  0  0  0  0  0
  -49.9096  -30.3147    3.1404 O   0  0  0  0  0  0  0  0  0  0  0  0
  -53.7985  -28.9093   11.3097 Br  0  0  0  0  0  0  0  0  0  0  0  0
  -49.6939  -29.6049    8.5234 H   0  0  0  0  0  0  0  0  0  0  0  0
  -50.8025  -29.0639    6.3848 H   0  0  0  0  0  0  0  0  0  0  0  0
  -50.9624  -29.5408   10.6377 H   0  0  0  0  0  0  0  0  0  0  0  0
  -54.5062  -28.3854    8.4735 H   0  0  0  0  0  0  0  0  0  0  0  0
  -40.8430  -30.8611    1.7163 H   0  0  0  0  0  0  0  0  0  0  0  0
  -42.8377  -32.3038    1.1641 H   0  0  0  0  0  0  0  0  0  0  0  0
  -55.8070  -27.5591    4.3765 H   0  0  0  0  0  0  0  0  0  0  0  0
  -43.2373  -28.4021    3.9947 H   0  0  0  0  0  0  0  0  0  0  0  0
  -46.4810  -27.6988    5.2525 H   0  0  0  0  0  0  0  0  0  0  0  0
  -46.8921  -28.7947    6.5679 H   0  0  0  0  0  0  0  0  0  0  0  0
  -48.4068  -30.0728    5.1220 H   0  0  0  0  0  0  0  0  0  0  0  0
  -48.8367  -28.3696    5.0612 H   0  0  0  0  0  0  0  0  0  0  0  0
  -44.6826  -29.3025    5.5066 H   0  0  0  0  0  0  0  0  0  0  0  0
  -45.7999  -30.6754    5.4512 H   0  0  0  0  0  0  0  0  0  0  0  0
  -47.0002  -31.0731    3.0104 H   0  0  0  0  0  0  0  0  0  0  0  0
  -46.5443  -29.9043    1.7697 H   0  0  0  0  0  0  0  0  0  0  0  0
  -47.6476  -28.0734    2.9244 H   0  0  0  0  0  0  0  0  0  0  0  0
  -51.2693  -27.1358    0.6873 H   0  0  0  0  0  0  0  0  0  0  0  0
  -52.4784  -28.3517    0.2209 H   0  0  0  0  0  0  0  0  0  0  0  0
  -50.1625  -29.0692   -0.4923 H   0  0  0  0  0  0  0  0  0  0  0  0
  -50.8173  -30.1665    0.7422 H   0  0  0  0  0  0  0  0  0  0  0  0
  -51.3397  -28.4573    2.9276 H   0  0  0  0  0  0  0  0  0  0  0  0
  -48.6300  -28.2473    1.0446 H   0  0  0  0  0  0  0  0  0  0  0  0
  1  2  1  0  0  0  0
  1  3  2  0  0  0  0
  2  9  2  0  0  0  0
  3 10  1  0  0  0  0
  4  9  1  0  0  0  0
  4 10  2  0  0  0  0
  5  6  2  0  0  0  0
  5 22  1  0  0  0  0
  6 23  1  0  0  0  0
  7 11  1  0  0  0  0
  7 24  2  0  0  0  0
  8 12  1  0  0  0  0
  8 22  2  0  0  0  0
  9 26  1  0  0  0  0
 10 32  1  0  0  0  0
 11 13  1  0  0  0  0
 11 25  2  0  0  0  0
 12 23  2  0  0  0  0
 12 27  1  0  0  0  0
 13 28  1  0  0  0  0
 13 30  2  0  0  0  0
 14 19  1  0  0  0  0
 14 29  1  0  0  0  0
 14 31  2  0  0  0  0
 15 16  1  0  0  0  0
 15 17  1  0  0  0  0
 16 19  1  0  0  0  0
 17 27  1  0  0  0  0
 18 19  1  0  0  0  0
 18 27  1  0  0  0  0
 20 21  1  0  0  0  0
 20 28  1  0  0  0  0
 21 29  1  0  0  0  0
 24 26  1  0  0  0  0
 25 26  1  0  0  0  0
  1 33  1  0  0  0  0
  2 34  1  0  0  0  0
  3 35  1  0  0  0  0
  4 36  1  0  0  0  0
  5 37  1  0  0  0  0
  6 38  1  0  0  0  0
  7 39  1  0  0  0  0
  8 40  1  0  0  0  0
 15 41  1  0  0  0  0
 15 42  1  0  0  0  0
 16 43  1  0  0  0  0
 16 44  1  0  0  0  0
 17 45  1  0  0  0  0
 17 46  1  0  0  0  0
 18 47  1  0  0  0  0
 18 48  1  0  0  0  0
 19 49  1  0  0  0  0
 20 50  1  0  0  0  0
 20 51  1  0  0  0  0
 21 52  1  0  0  0  0
 21 53  1  0  0  0  0
 28 54  1  0  0  0  0
 29 55  1  0  0  0  0
M  END
> <POSIT::Probability>
0.02

> <POSIT::Method>
FRED

> <ReceptorTitle>
UCSF-P4409-REFINED_LIGAND-BOUND-STATE_A__DU__LA1_A-201(A)

> <OMEGA_C>
a/xKwjWz6sEUNwhBBIJNwipA6MF51ulA5d9NwoJo6sGGTBtBPc5Vwns45cETygdBxlMnwoYj9cGO
YQZAP68rwqlx+8H0ReY/nldbwjrK3sHC+ZdA4akswig+6sEoP1dAwepSwiyD5cHDaOlAokhTwoKr
58GqFRtBp4ZWwiGM4MF2HIJAZAUxwpSM8MFQ/UNAG2NVwvuz38FoMCdAZIxEwnIt7MFy1iZAjwM7
wmnk5cHwbq9AvjtAwhm36MFk+ZhANng2wrJS7cG296FA8uI6wrMu8MGeNjZAXXM/wqe+6MGAHFFA
+mxOwslM4cGo9lo/0+9Jwnsi6cHwFw0/xbwnwhBt7MFSxDhAU5wwwvRC+cHcnhFAjKFawkBq4MEu
18FAA7RSwklQ48EA2p1AwW1VwiIR48Ho2cJAhv81wqa07cEoQmZAritQwuXy4cE2Sg5ArklFwrZK
58Ewb7A/5vtYwor83MHMhew/dKNHwoSE8sGE/EhApTFXwjNG58F69DRBh8ZGwr3W7MECYAhBzTVL
wuqC6MHlT8xAiNlLwpBT7MEwNCpBVQZawjgV48GLkwdBSF8jwnrj9sFMrts/21krwiA3AcJEAZU/
Ujpfwvx43ME3DIxAAPMswns348HoqH9Ai+w5wiaX3cGFFKhAg5E7woZb5sEPLNJAiqBBwi6V8MEy
56NAzFhDwvr04sFC9aFA+boywnVr6sHENbBAFjM3wiJn9cHnb65ANwA8wraV+MGsqkBAYy06wvY7
78H4hOI/LJc+wjyW4MHiKTtAwhNNwh0W2cEA9i8/3elRwjPQ4sGgNWI+ZKZIwsqN6MHADfy+5ERL
wu5U8cEIAz4/4VtNwpOo48HiXTtAFIVCwnj64cEwtYU/

> <OMEGA_E>
4nrdwA==

> <OMEGA_NBR>
     12081

$$$$
CACHE3HI_1700_37
  -OEChem-03092622533D

 49 52  0     1  0  0  0  0  0999 V2000
  -52.9389  -29.9643    8.9128 C   0  0  0  0  0  0  0  0  0  0  0  0
  -52.3383  -28.6357    6.9999 C   0  0  0  0  0  0  0  0  0  0  0  0
  -54.2450  -29.5374    8.7315 C   0  0  0  0  0  0  0  0  0  0  0  0
  -44.1225  -29.3997    1.3881 C   0  0  0  0  0  0  0  0  0  0  0  0
  -44.7195  -29.0859    2.5978 C   0  0  0  0  0  0  0  0  0  0  0  0
  -51.9738  -29.5001    8.0261 C   0  0  0  0  0  0  0  0  0  0  0  0
  -53.6708  -28.2682    6.9039 C   0  0  0  0  0  0  0  0  0  0  0  0
  -45.4361  -30.9899    1.7858 C   0  0  0  0  0  0  0  0  0  0  0  0
  -47.0392  -31.6870    3.5052 C   0  0  0  0  0  0  0  0  0  0  0  0
  -46.4649  -30.5072    3.8122 C   0  0  0  0  0  0  0  0  0  0  0  0
  -48.4914  -29.7504    6.7789 C   0  0  0  0  0  0  0  0  0  0  0  0
  -54.0888  -26.8677    3.4580 C   0  0  0  0  0  0  0  0  0  0  0  0
  -54.6702  -25.5018    3.7896 C   0  0  0  0  0  0  0  0  0  0  0  0
  -53.2589  -27.4255    4.6130 C   0  0  0  0  0  0  0  0  0  0  0  0
  -54.6396  -26.1174    6.2353 C   0  0  0  0  0  0  0  0  0  0  0  0
  -55.4756  -25.5639    5.0816 C   0  0  1  0  0  0  0  0  0  0  0  0
  -50.5535  -29.9282    8.1756 C   0  0  0  0  0  0  0  0  0  0  0  0
  -46.7203  -29.6768    5.0185 C   0  0  0  0  0  0  0  0  0  0  0  0
  -54.6366  -28.6984    7.7463 N   0  0  0  0  0  0  0  0  0  0  0  0
  -44.5795  -30.6016    0.8824 N   0  0  0  0  0  0  0  0  0  0  0  0
  -45.5647  -30.1288    2.8335 N   0  0  0  0  0  0  0  0  0  0  0  0
  -54.0224  -27.3970    5.8654 N   0  0  2  0  0  0  0  0  0  0  0  0
  -49.8606  -29.9803    6.9135 N   0  0  0  0  0  0  0  0  0  0  0  0
  -48.0869  -29.8641    5.4518 N   0  0  0  0  0  0  0  0  0  0  0  0
  -47.7394  -29.4824    7.7149 O   0  0  0  0  0  0  0  0  0  0  0  0
  -55.9160  -24.2476    5.4005 O   0  0  0  0  0  0  0  0  0  0  0  0
  -46.4710  -32.3698    1.9731 S   0  0  0  0  0  0  0  0  0  0  0  0
  -52.6863  -30.6389    9.7237 H   0  0  0  0  0  0  0  0  0  0  0  0
  -51.5973  -28.2637    6.2987 H   0  0  0  0  0  0  0  0  0  0  0  0
  -55.0353  -29.8700    9.3962 H   0  0  0  0  0  0  0  0  0  0  0  0
  -43.3842  -28.8179    0.8551 H   0  0  0  0  0  0  0  0  0  0  0  0
  -44.6126  -28.2464    3.2704 H   0  0  0  0  0  0  0  0  0  0  0  0
  -47.7774  -32.1986    4.1073 H   0  0  0  0  0  0  0  0  0  0  0  0
  -54.9021  -27.5658    3.2229 H   0  0  0  0  0  0  0  0  0  0  0  0
  -53.4645  -26.7948    2.5602 H   0  0  0  0  0  0  0  0  0  0  0  0
  -53.8651  -24.7616    3.8851 H   0  0  0  0  0  0  0  0  0  0  0  0
  -55.3051  -25.1482    2.9685 H   0  0  0  0  0  0  0  0  0  0  0  0
  -52.9638  -28.4541    4.3705 H   0  0  0  0  0  0  0  0  0  0  0  0
  -52.3400  -26.8356    4.7263 H   0  0  0  0  0  0  0  0  0  0  0  0
  -53.8652  -25.3925    6.5214 H   0  0  0  0  0  0  0  0  0  0  0  0
  -55.2856  -26.2411    7.1146 H   0  0  0  0  0  0  0  0  0  0  0  0
  -56.3660  -26.1860    4.9316 H   0  0  0  0  0  0  0  0  0  0  0  0
  -49.9983  -29.2400    8.8282 H   0  0  0  0  0  0  0  0  0  0  0  0
  -50.4783  -30.9256    8.6309 H   0  0  0  0  0  0  0  0  0  0  0  0
  -46.0326  -29.9665    5.8180 H   0  0  0  0  0  0  0  0  0  0  0  0
  -46.5533  -28.6206    4.7893 H   0  0  0  0  0  0  0  0  0  0  0  0
  -50.4043  -30.1611    6.0725 H   0  0  0  0  0  0  0  0  0  0  0  0
  -48.7874  -30.0902    4.7523 H   0  0  0  0  0  0  0  0  0  0  0  0
  -56.4633  -23.9506    4.6567 H   0  0  0  0  0  0  0  0  0  0  0  0
  1  3  1  0  0  0  0
  1  6  2  0  0  0  0
  2  6  1  0  0  0  0
  2  7  2  0  0  0  0
  3 19  2  0  0  0  0
  4  5  2  0  0  0  0
  4 20  1  0  0  0  0
  5 21  1  0  0  0  0
  6 17  1  0  0  0  0
  7 19  1  0  0  0  0
  7 22  1  0  0  0  0
  8 20  2  0  0  0  0
  8 21  1  0  0  0  0
  8 27  1  0  0  0  0
  9 10  2  0  0  0  0
  9 27  1  0  0  0  0
 10 18  1  0  0  0  0
 10 21  1  0  0  0  0
 11 23  1  0  0  0  0
 11 24  1  0  0  0  0
 11 25  2  0  0  0  0
 12 13  1  0  0  0  0
 12 14  1  0  0  0  0
 13 16  1  0  0  0  0
 14 22  1  0  0  0  0
 15 16  1  0  0  0  0
 15 22  1  0  0  0  0
 16 26  1  0  0  0  0
 17 23  1  0  0  0  0
 18 24  1  0  0  0  0
  1 28  1  0  0  0  0
  2 29  1  0  0  0  0
  3 30  1  0  0  0  0
  4 31  1  0  0  0  0
  5 32  1  0  0  0  0
  9 33  1  0  0  0  0
 12 34  1  0  0  0  0
 12 35  1  0  0  0  0
 13 36  1  0  0  0  0
 13 37  1  0  0  0  0
 14 38  1  0  0  0  0
 14 39  1  0  0  0  0
 15 40  1  0  0  0  0
 15 41  1  0  0  0  0
 16 42  1  0  0  0  0
 17 43  1  0  0  0  0
 17 44  1  0  0  0  0
 18 45  1  0  0  0  0
 18 46  1  0  0  0  0
 23 47  1  0  0  0  0
 24 48  1  0  0  0  0
 26 49  1  0  0  0  0
M  END
> <POSIT::Probability>
0.02

> <POSIT::Method>
FRED

> <ReceptorTitle>
UCSF-P4409-REFINED_LIGAND-BOUND-STATE_A__DU__LA1_A-201(A)

> <OMEGA_C>
csFTwuq278Hpmg5Bd1pRwgMW5cE6/99A3/pYwoFM7MFCtAtBa30wwpMy68EGrbE/yuAywuSv6MET
QiZAJuVPwkIA7MHlagBB665Wwl0l4sHg7NxAir41wkPr98F0leQ/GSg8wup+/cHcVGBAGNw5wrwO
9MGy+nNAO/dBwsIA7sES7dhA71pYwh/x1sEpUF1ARK5awqYDzMETiHJAGAlVwnBn28HKnZNA7I5a
wmfw0MGUh8dA/uZdwtaCzMEenKJAzjZKwtps78FZzwJBluE6wiJq7cE6l6BA5ItawkqW5cHI4fdA
cVEywgHQ9MEo52E/NkI2wt8H8cGhWDVA+xZYwh4t28H8sLtASnFHwqPX78GyO91A9FhAwrLp7sFC
da5AH/U+wvzb68Gu4PZABapfwgr7wcGU0KxAVeI5wrB6AcK0jfw/z75SwnEc9cFqlBtBrWNOwiQc
4sHUjslAISRcwqr17sHcVhZBdoktwhyL5sFU51o/WnMywqT44cE8TlFADxw/wl/LAMIrb4NAv5tb
wsWG3MFJRE5Ao9tVwshb1sGC2iNA5HVXwtIXxsHrpXhAdThdwn4vycEW+z1A5dpTwvah48Fw24tA
HVxRwkyv1sGsPZdA+XVXwsAjy8For9BAcCRdwrvt0cEEq+NA0HZhwuh80cGQz51APf5Hwn/r6cFE
QA1ByelJwoxn98EAGApBZyE4wl+778E+LbpAjjY6whT35MEjQplABZ5JwgBK8cGIUcJATyZDwrG4
8MG8EphAYdphwt2av8GkA5VA

> <OMEGA_E>
bOP4wA==

> <OMEGA_NBR>
     13560

$$$$
CACHE3HI_1700_45
  -OEChem-03092622533D

 46 49  0     1  0  0  0  0  0999 V2000
  -50.7995  -29.1061    6.1244 C   0  0  0  0  0  0  0  0  0  0  0  0
  -47.2613  -29.5659    5.6072 C   0  0  0  0  0  0  0  0  0  0  0  0
  -48.7128  -30.1197    3.8627 C   0  0  0  0  0  0  0  0  0  0  0  0
  -51.1316  -30.4158    8.0159 C   0  0  0  0  0  0  0  0  0  0  0  0
  -48.5503  -29.8522    5.2065 C   0  0  0  0  0  0  0  0  0  0  0  0
  -51.6564  -29.4232    7.2179 C   0  0  0  0  0  0  0  0  0  0  0  0
  -49.6519  -29.8690    6.1288 C   0  0  0  0  0  0  0  0  0  0  0  0
  -46.4916  -29.8177    3.4828 C   0  0  0  0  0  0  0  0  0  0  0  0
  -55.2976  -26.4971    5.2084 C   0  0  0  0  0  0  0  0  0  0  0  0
  -44.6409  -30.1605    0.2738 C   0  0  0  0  0  0  0  0  0  0  0  0
  -43.2109  -29.8843    0.7255 C   0  0  0  0  0  0  0  0  0  0  0  0
  -54.2661  -29.3989    6.9542 C   0  0  0  0  0  0  0  0  0  0  0  0
  -45.4969  -30.6930    1.4192 C   0  0  0  0  0  0  0  0  0  0  0  0
  -44.0743  -29.4626    3.0716 C   0  0  0  0  0  0  0  0  0  0  0  0
  -52.9992  -28.7419    7.4741 C   0  0  2  0  0  0  0  0  0  0  0  0
  -53.7569  -28.1508    6.2966 C   0  0  2  0  0  0  0  0  0  0  0  0
  -43.1880  -28.9528    1.9335 C   0  0  2  0  0  0  0  0  0  0  0  0
  -54.5013  -26.8689    6.4464 C   0  0  0  0  0  0  0  0  0  0  0  0
  -46.2043  -29.5399    4.7689 N   0  0  0  0  0  0  0  0  0  0  0  0
  -47.7018  -30.1109    2.9690 N   0  0  0  0  0  0  0  0  0  0  0  0
  -45.4184  -29.8009    2.5832 N   0  0  2  0  0  0  0  0  0  0  0  0
  -54.8671  -25.8591    4.2594 O   0  0  0  0  0  0  0  0  0  0  0  0
  -56.5687  -26.9682    5.2866 O   0  0  0  0  0  0  0  0  0  0  0  0
  -43.6368  -27.6518    1.5566 O   0  0  0  0  0  0  0  0  0  0  0  0
  -49.6113  -30.9615    7.4469 S   0  0  0  0  0  0  0  0  0  0  0  0
  -51.0163  -28.3557    5.3737 H   0  0  0  0  0  0  0  0  0  0  0  0
  -47.0218  -29.3403    6.6422 H   0  0  0  0  0  0  0  0  0  0  0  0
  -49.6858  -30.3562    3.4423 H   0  0  0  0  0  0  0  0  0  0  0  0
  -51.5646  -30.8496    8.9067 H   0  0  0  0  0  0  0  0  0  0  0  0
  -45.0911  -29.2432   -0.1250 H   0  0  0  0  0  0  0  0  0  0  0  0
  -44.6322  -30.8885   -0.5457 H   0  0  0  0  0  0  0  0  0  0  0  0
  -42.7194  -30.8307    0.9808 H   0  0  0  0  0  0  0  0  0  0  0  0
  -42.6566  -29.4361   -0.1073 H   0  0  0  0  0  0  0  0  0  0  0  0
  -54.1761  -30.3282    6.4042 H   0  0  0  0  0  0  0  0  0  0  0  0
  -55.1568  -29.3351    7.5683 H   0  0  0  0  0  0  0  0  0  0  0  0
  -46.5347  -30.7768    1.0733 H   0  0  0  0  0  0  0  0  0  0  0  0
  -45.1586  -31.6989    1.7003 H   0  0  0  0  0  0  0  0  0  0  0  0
  -43.6172  -30.3524    3.5237 H   0  0  0  0  0  0  0  0  0  0  0  0
  -44.1505  -28.6891    3.8463 H   0  0  0  0  0  0  0  0  0  0  0  0
  -53.0813  -28.2254    8.4288 H   0  0  0  0  0  0  0  0  0  0  0  0
  -53.3218  -28.2485    5.3086 H   0  0  0  0  0  0  0  0  0  0  0  0
  -42.1593  -28.8464    2.2938 H   0  0  0  0  0  0  0  0  0  0  0  0
  -55.2142  -26.9265    7.2883 H   0  0  0  0  0  0  0  0  0  0  0  0
  -53.8062  -26.0349    6.6507 H   0  0  0  0  0  0  0  0  0  0  0  0
  -57.0941  -26.7342    4.4924 H   0  0  0  0  0  0  0  0  0  0  0  0
  -43.0270  -27.3389    0.8713 H   0  0  0  0  0  0  0  0  0  0  0  0
  1  6  1  0  0  0  0
  1  7  2  0  0  0  0
  2  5  1  0  0  0  0
  2 19  2  0  0  0  0
  3  5  2  0  0  0  0
  3 20  1  0  0  0  0
  4  6  2  0  0  0  0
  4 25  1  0  0  0  0
  5  7  1  0  0  0  0
  6 15  1  0  0  0  0
  7 25  1  0  0  0  0
  8 19  1  0  0  0  0
  8 20  2  0  0  0  0
  8 21  1  0  0  0  0
  9 18  1  0  0  0  0
  9 22  2  0  0  0  0
  9 23  1  0  0  0  0
 10 11  1  0  0  0  0
 10 13  1  0  0  0  0
 11 17  1  0  0  0  0
 12 15  1  0  0  0  0
 12 16  1  0  0  0  0
 13 21  1  0  0  0  0
 14 17  1  0  0  0  0
 14 21  1  0  0  0  0
 15 16  1  0  0  0  0
 16 18  1  0  0  0  0
 17 24  1  0  0  0  0
  1 26  1  0  0  0  0
  2 27  1  0  0  0  0
  3 28  1  0  0  0  0
  4 29  1  0  0  0  0
 10 30  1  0  0  0  0
 10 31  1  0  0  0  0
 11 32  1  0  0  0  0
 11 33  1  0  0  0  0
 12 34  1  0  0  0  0
 12 35  1  0  0  0  0
 13 36  1  0  0  0  0
 13 37  1  0  0  0  0
 14 38  1  0  0  0  0
 14 39  1  0  0  0  0
 15 40  1  0  0  0  0
 16 41  1  0  0  0  0
 17 42  1  0  0  0  0
 18 43  1  0  0  0  0
 18 44  1  0  0  0  0
 23 45  1  0  0  0  0
 24 46  1  0  0  0  0
M  END
> <POSIT::Probability>
0.05

> <POSIT::Method>
FRED

> <ReceptorTitle>
UCSF-P4409-REFINED_LIGAND-BOUND-STATE_A__DU__LA1_A-201(A)

> <OMEGA_C>
pDJLwmLZ6MFS+8NAkQs9wgaH7MH0bbNA59lCwjX18MF+NndAzoZMwoRT88FOQQBBezNCwj/R7sFW
m6ZAL6BOwrRi68HQ+OZAiptGwr/z7sFcH8RAXPc5wraK7sF15l5AuzBdwhv608EEq6ZAQZAywrxI
8cFoKYw+9dcswgUT78EAuDk/fhBZwtow68Eoid5A0vw1wk6L9cHyqbU/GkwwwoCz68FdlERAMf9T
wmfv5cGkK+9ACwdXwuU04cFtfclAi8AswmOf58Heffc/WwFawpTz1sEiSc5ANNE4wrdR7MEsm5hA
oc4+wiHj8MGFBD5Abaw1wido7sHbUiVA3XdbwmHfzsHNTIhAXEZiwvW+18E2LKlADIwuwvE23cHt
Psc/9HFGwg2x98EMTe5AqxBMwnfY4sFa9atAVBY8wge56sG8jNRATr5GworZ8sH7TlxAIEJOwvvL
9sHVgQ5BPV00wv7x6cFgCAC+ZocywpUb98GYtQu/n+Aqwj6l9sHQGHs/XqAqwhx968GgvNu9SbRY
wjWg8sFW78xAj6BcwjSu6sFsL/JAgyM6wtk29sGvYok/a6I0wkSX/cHGo9k/EHguwsTR8sGOg2FA
GpowwmCD5cEaKXZAPVNUwqHN4cFl3AZBkUlVwgH94cFA4KlAGqMownXF5sFZzRJAXNtcwo1p18H8
OelAizlXwpBH0MHs0tRAYGBkwqXf1cFZwY9Aohsswii22sE6DV8/

> <OMEGA_E>
7QXhwA==

> <OMEGA_NBR>
     14984

$$$$
CACHE3HI_1700_51
  -OEChem-03092622533D

 41 44  0     1  0  0  0  0  0999 V2000
  -43.3063  -29.0307    1.6336 C   0  0  0  0  0  0  0  0  0  0  0  0
  -50.2016  -29.2301    3.2123 C   0  0  0  0  0  0  0  0  0  0  0  0
  -49.6791  -30.2727    6.6978 C   0  0  0  0  0  0  0  0  0  0  0  0
  -49.5489  -29.1607    1.9801 C   0  0  0  0  0  0  0  0  0  0  0  0
  -50.3658  -30.3199    7.9058 C   0  0  0  0  0  0  0  0  0  0  0  0
  -48.0942  -29.5735    4.3424 C   0  0  0  0  0  0  0  0  0  0  0  0
  -46.0019  -29.6195    2.8165 C   0  0  0  0  0  0  0  0  0  0  0  0
  -51.3542  -28.8051    5.8625 C   0  0  0  0  0  0  0  0  0  0  0  0
  -47.4025  -29.5074    3.1086 C   0  0  0  0  0  0  0  0  0  0  0  0
  -49.4835  -29.4336    4.3825 C   0  0  0  0  0  0  0  0  0  0  0  0
  -50.1757  -29.5034    5.6515 C   0  0  0  0  0  0  0  0  0  0  0  0
  -48.1477  -29.3007    1.9434 C   0  0  0  0  0  0  0  0  0  0  0  0
  -45.7236  -29.4976    1.4755 C   0  0  0  0  0  0  0  0  0  0  0  0
  -51.5354  -29.5854    8.0163 C   0  0  0  0  0  0  0  0  0  0  0  0
  -53.6066  -30.3971   10.9615 C   0  0  0  0  0  0  0  0  0  0  0  0
  -52.7277  -30.8741    9.8052 C   0  0  0  0  0  0  0  0  0  0  0  0
  -52.4749  -28.4761   10.0624 C   0  0  0  0  0  0  0  0  0  0  0  0
  -52.9754  -29.0755   11.3762 C   0  0  2  0  0  0  0  0  0  0  0  0
  -44.4090  -29.5582    0.8008 C   0  0  0  0  0  0  0  0  0  0  0  0
  -42.4527  -28.6136    2.2993 N   0  0  0  0  0  0  0  0  0  0  0  0
  -52.0489  -28.8267    7.0222 N   0  0  0  0  0  0  0  0  0  0  0  0
  -52.2055  -29.6423    9.2207 N   0  0  3  0  0  0  0  0  0  0  0  0
  -51.8855  -29.3033   12.2627 O   0  0  0  0  0  0  0  0  0  0  0  0
  -47.1333  -29.2487    0.5499 S   0  0  0  0  0  0  0  0  0  0  0  0
  -51.2840  -29.1217    3.2360 H   0  0  0  0  0  0  0  0  0  0  0  0
  -48.7588  -30.8408    6.5866 H   0  0  0  0  0  0  0  0  0  0  0  0
  -50.1180  -28.9992    1.0689 H   0  0  0  0  0  0  0  0  0  0  0  0
  -49.9850  -30.9171    8.7278 H   0  0  0  0  0  0  0  0  0  0  0  0
  -47.5307  -29.7333    5.2597 H   0  0  0  0  0  0  0  0  0  0  0  0
  -45.2377  -29.7821    3.5669 H   0  0  0  0  0  0  0  0  0  0  0  0
  -51.7946  -28.1864    5.0855 H   0  0  0  0  0  0  0  0  0  0  0  0
  -54.6273  -30.2275   10.5991 H   0  0  0  0  0  0  0  0  0  0  0  0
  -53.6322  -31.1324   11.7713 H   0  0  0  0  0  0  0  0  0  0  0  0
  -51.8902  -31.4873   10.1682 H   0  0  0  0  0  0  0  0  0  0  0  0
  -53.3050  -31.4694    9.0842 H   0  0  0  0  0  0  0  0  0  0  0  0
  -53.2563  -27.8681    9.5842 H   0  0  0  0  0  0  0  0  0  0  0  0
  -51.5737  -27.8611   10.1957 H   0  0  0  0  0  0  0  0  0  0  0  0
  -53.6993  -28.4179   11.8847 H   0  0  0  0  0  0  0  0  0  0  0  0
  -44.1650  -30.5963    0.5063 H   0  0  0  0  0  0  0  0  0  0  0  0
  -44.4298  -28.9993   -0.1536 H   0  0  0  0  0  0  0  0  0  0  0  0
  -51.5259  -28.4316   12.4910 H   0  0  0  0  0  0  0  0  0  0  0  0
  1 19  1  0  0  0  0
  1 20  3  0  0  0  0
  2  4  1  0  0  0  0
  2 10  2  0  0  0  0
  3  5  2  0  0  0  0
  3 11  1  0  0  0  0
  4 12  2  0  0  0  0
  5 14  1  0  0  0  0
  6  9  2  0  0  0  0
  6 10  1  0  0  0  0
  7  9  1  0  0  0  0
  7 13  2  0  0  0  0
  8 11  2  0  0  0  0
  8 21  1  0  0  0  0
  9 12  1  0  0  0  0
 10 11  1  0  0  0  0
 12 24  1  0  0  0  0
 13 19  1  0  0  0  0
 13 24  1  0  0  0  0
 14 21  2  0  0  0  0
 14 22  1  0  0  0  0
 15 16  1  0  0  0  0
 15 18  1  0  0  0  0
 16 22  1  0  0  0  0
 17 18  1  0  0  0  0
 17 22  1  0  0  0  0
 18 23  1  0  0  0  0
  2 25  1  0  0  0  0
  3 26  1  0  0  0  0
  4 27  1  0  0  0  0
  5 28  1  0  0  0  0
  6 29  1  0  0  0  0
  7 30  1  0  0  0  0
  8 31  1  0  0  0  0
 15 32  1  0  0  0  0
 15 33  1  0  0  0  0
 16 34  1  0  0  0  0
 16 35  1  0  0  0  0
 17 36  1  0  0  0  0
 17 37  1  0  0  0  0
 18 38  1  0  0  0  0
 19 39  1  0  0  0  0
 19 40  1  0  0  0  0
 23 41  1  0  0  0  0
M  END
> <POSIT::Probability>
0.24

> <POSIT::Method>
FRED

> <ReceptorTitle>
UCSF-P4409-REFINED_LIGAND-BOUND-STATE_A__DU__LA1_A-201(A)

> <OMEGA_C>
qjktwuE+6MFNGNE/b85IwljX6cE/lk1AaLdGwm8u8sF3VNZAFDJGwgVJ6cGBdP0/mXZJwiCP8sGc
/PxAeGBAwoiW7MET9YpA7QE4ws707MHaQDRAsWpNwtdw5sGpmbtAIJw9wiwP7MHM8kZAIe9Fwup3
68GQPYxA4rNIwuIG7MHl2LRAO5dAwr1n6sEZwvg/8eQ2wiz768GF3bw/TCROwtGu7MG0QgBBH21W
wjot88E2Yi9BIelSwkD+9sEY4hxBU+ZRwgjP48G4/yBB1OZTwqCa6MHeBDZByaIxwht37MFiAE0/
ks8pwqvo5MGAKBNABzJQwhOd5sGoteBAY9JQwmoj7cEsiBNByYpPwilt6sE1NERBhog8wlP96cES
xww/1iJNwjX56MHtGU9A9ghDwvK59sFnxdJA1nhIwkr+58Hd0og/rfBHwkRW98EGpQtBcR8+wr3d
7cGqT6hAY/M0wrhB7sFGR2RAtC1PwrJ94cGZvKJAXYJawt3R8cH6lSlBY4dWwiAP+cE4VzxBhY9P
wvvl+8EesSJBXjhVwmPB+8HwWBFBfAZVwufx3sH1WBlBe0tOwm/j3sGgISNBGcxWws5X48G8Jz5B
AqkwwkPF9MGymgE/HrgxwqD+58EaQR2+iBpOwuNz48EV20dB

> <OMEGA_E>
ri/vwA==

> <OMEGA_NBR>
     16302

$$$$
CACHE3HI_1704_17
  -OEChem-03092622533D

 54 56  0     1  0  0  0  0  0999 V2000
  -48.7154  -29.0566   -0.0497 C   0  0  0  0  0  0  0  0  0  0  0  0
  -47.5964  -28.3314    0.3598 C   0  0  0  0  0  0  0  0  0  0  0  0
  -49.3901  -29.8698    0.8607 C   0  0  0  0  0  0  0  0  0  0  0  0
  -47.1524  -28.4192    1.6793 C   0  0  0  0  0  0  0  0  0  0  0  0
  -48.9462  -29.9576    2.1802 C   0  0  0  0  0  0  0  0  0  0  0  0
  -47.8272  -29.2325    2.5897 C   0  0  0  0  0  0  0  0  0  0  0  0
  -54.9333  -29.7736    6.6906 C   0  0  0  0  0  0  0  0  0  0  0  0
  -51.4999  -29.3787    5.4635 C   0  0  0  0  0  0  0  0  0  0  0  0
  -49.0802  -30.4895    7.1494 C   0  0  0  0  0  0  0  0  0  0  0  0
  -49.9729  -29.2816    7.4220 C   0  0  0  0  0  0  0  0  0  0  0  0
  -53.6907  -31.7894    6.3492 C   0  0  0  0  0  0  0  0  0  0  0  0
  -47.9346  -30.1381    6.2016 C   0  0  0  0  0  0  0  0  0  0  0  0
  -54.2833  -31.7879    7.7468 C   0  0  0  0  0  0  0  0  0  0  0  0
  -49.2296  -28.3642    5.1722 C   0  0  0  0  0  0  0  0  0  0  0  0
  -53.7827  -30.3363    5.8949 C   0  0  2  0  0  0  0  0  0  0  0  0
  -50.4064  -28.5921    6.1288 C   0  0  1  0  0  0  0  0  0  0  0  0
  -57.2274  -31.5349    8.7533 C   0  0  0  0  0  0  0  0  0  0  0  0
  -55.4516  -30.4215   10.1424 C   0  0  0  0  0  0  0  0  0  0  0  0
  -47.3496  -29.3273    4.0104 C   0  0  0  0  0  0  0  0  0  0  0  0
  -56.1520  -30.4567    8.7900 C   0  0  0  0  0  0  0  0  0  0  0  0
  -55.1892  -30.6639    7.7307 N   0  0  0  0  0  0  0  0  0  0  0  0
  -48.4476  -29.5887    4.9407 N   0  0  1  0  0  0  0  0  0  0  0  0
  -52.5856  -29.5767    6.2991 N   0  0  0  0  0  0  0  0  0  0  0  0
  -55.4825  -28.7048    6.4627 O   0  0  0  0  0  0  0  0  0  0  0  0
  -51.3917  -29.7951    4.3127 O   0  0  0  0  0  0  0  0  0  0  0  0
  -49.0610  -28.9884   -1.0770 H   0  0  0  0  0  0  0  0  0  0  0  0
  -47.0711  -27.6979   -0.3489 H   0  0  0  0  0  0  0  0  0  0  0  0
  -50.2613  -30.4347    0.5420 H   0  0  0  0  0  0  0  0  0  0  0  0
  -46.2795  -27.8506    1.9891 H   0  0  0  0  0  0  0  0  0  0  0  0
  -49.4791  -30.5931    2.8825 H   0  0  0  0  0  0  0  0  0  0  0  0
  -48.6738  -30.8653    8.0955 H   0  0  0  0  0  0  0  0  0  0  0  0
  -49.6790  -31.3019    6.7187 H   0  0  0  0  0  0  0  0  0  0  0  0
  -50.8438  -29.5949    8.0098 H   0  0  0  0  0  0  0  0  0  0  0  0
  -49.4151  -28.5634    8.0365 H   0  0  0  0  0  0  0  0  0  0  0  0
  -52.6720  -32.1887    6.3217 H   0  0  0  0  0  0  0  0  0  0  0  0
  -54.3077  -32.4138    5.6908 H   0  0  0  0  0  0  0  0  0  0  0  0
  -47.2533  -29.4293    6.6904 H   0  0  0  0  0  0  0  0  0  0  0  0
  -47.3642  -31.0538    6.0035 H   0  0  0  0  0  0  0  0  0  0  0  0
  -54.8212  -32.7138    7.9693 H   0  0  0  0  0  0  0  0  0  0  0  0
  -53.5211  -31.6064    8.5115 H   0  0  0  0  0  0  0  0  0  0  0  0
  -49.6189  -27.9969    4.2139 H   0  0  0  0  0  0  0  0  0  0  0  0
  -48.5851  -27.5753    5.5832 H   0  0  0  0  0  0  0  0  0  0  0  0
  -53.9195  -30.2334    4.8341 H   0  0  0  0  0  0  0  0  0  0  0  0
  -50.8496  -27.6210    6.3826 H   0  0  0  0  0  0  0  0  0  0  0  0
  -56.7933  -32.5232    8.9394 H   0  0  0  0  0  0  0  0  0  0  0  0
  -57.7230  -31.5614    7.7767 H   0  0  0  0  0  0  0  0  0  0  0  0
  -57.9911  -31.3619    9.5191 H   0  0  0  0  0  0  0  0  0  0  0  0
  -54.9729  -31.3814   10.3670 H   0  0  0  0  0  0  0  0  0  0  0  0
  -56.1610  -30.1965   10.9447 H   0  0  0  0  0  0  0  0  0  0  0  0
  -54.6698  -29.6536   10.1552 H   0  0  0  0  0  0  0  0  0  0  0  0
  -46.6166  -30.1337    4.1180 H   0  0  0  0  0  0  0  0  0  0  0  0
  -46.8600  -28.3990    4.3229 H   0  0  0  0  0  0  0  0  0  0  0  0
  -56.6174  -29.4827    8.6007 H   0  0  0  0  0  0  0  0  0  0  0  0
  -52.5569  -29.2112    7.2462 H   0  0  0  0  0  0  0  0  0  0  0  0
  1  2  1  0  0  0  0
  1  3  2  0  0  0  0
  2  4  2  0  0  0  0
  3  5  1  0  0  0  0
  4  6  1  0  0  0  0
  5  6  2  0  0  0  0
  6 19  1  0  0  0  0
  7 15  1  0  0  0  0
  7 21  1  0  0  0  0
  7 24  2  0  0  0  0
  8 16  1  0  0  0  0
  8 23  1  0  0  0  0
  8 25  2  0  0  0  0
  9 10  1  0  0  0  0
  9 12  1  0  0  0  0
 10 16  1  0  0  0  0
 11 13  1  0  0  0  0
 11 15  1  0  0  0  0
 12 22  1  0  0  0  0
 13 21  1  0  0  0  0
 14 16  1  0  0  0  0
 14 22  1  0  0  0  0
 15 23  1  0  0  0  0
 17 20  1  0  0  0  0
 18 20  1  0  0  0  0
 19 22  1  0  0  0  0
 20 21  1  0  0  0  0
  1 26  1  0  0  0  0
  2 27  1  0  0  0  0
  3 28  1  0  0  0  0
  4 29  1  0  0  0  0
  5 30  1  0  0  0  0
  9 31  1  0  0  0  0
  9 32  1  0  0  0  0
 10 33  1  0  0  0  0
 10 34  1  0  0  0  0
 11 35  1  0  0  0  0
 11 36  1  0  0  0  0
 12 37  1  0  0  0  0
 12 38  1  0  0  0  0
 13 39  1  0  0  0  0
 13 40  1  0  0  0  0
 14 41  1  0  0  0  0
 14 42  1  0  0  0  0
 15 43  1  0  0  0  0
 16 44  1  0  0  0  0
 17 45  1  0  0  0  0
 17 46  1  0  0  0  0
 17 47  1  0  0  0  0
 18 48  1  0  0  0  0
 18 49  1  0  0  0  0
 18 50  1  0  0  0  0
 19 51  1  0  0  0  0
 19 52  1  0  0  0  0
 20 53  1  0  0  0  0
 23 54  1  0  0  0  0
M  END
> <POSIT::Probability>
0.14

> <POSIT::Method>
HYBRID

> <ReceptorTitle>
UCSF-P4409-REFINED_LIGAND-BOUND-STATE_A__DU__LA1_A-201(A)

> <OMEGA_C>
hdxCwvJz6MEApku9rGI+ws2m4sEwNrg+gY9Fwmz17sGgU1w/DZw8woha48FY9NY/4shDwiap78FN
iAtAFE8/whbc6cHwvSVAsbtbwkcw7sF2GdZA3P9NwqIH68FO1a5AKFJEwpbq88E7yORAO+RHwqhA
6sE9ge1AU8NWwqdQ/sHRLMtA/rw/wtsa8cHic8ZAHCJZwqZN/sFj5fdAIOtEwtvp4sHzgqVAhSFX
ws2w8sEio7xAKqBJwoe85MHYHsRA2OhkwnBH/MFeDQxBac5dwjxf88FaRyJB8WU9wkGe6sECVYBA
pJtgwmun88GyowxBs8FcwqVP9cG0YfdAWcpBwpe17MEhGp5AqldSwhSd7MFDkslADu5dwnGj5cG8
zs5AGJFNwkVc7sFEAYpAeD5EwjDo58GU2om/w0g8wj6V3cGQnrK+iwtJwj1688Ggvgo/Ph45wu/N
3sGem/4/n+pFwqq+9MGHejhAAbJCwins9sFahwFBS7dGwlRq+sFp/9ZAFGBLwnLC7MFQKABBCKlF
wtOB5MFelQBBH7BSwi/BAMKiS8pAHjtZwrynAcK+GrZAVgM9wi5v68EjGNZA6XQ9wiZu+MGwHMBA
4EhbwuvaAsKXBP9ApxVWwvfZ/MEDLwhBtHlGwrP538Ec2IZAIFdCwiya3MEtqbJAmq1XwvPd8cH+
sJpACWZLwrn33MFdPsxAUyxjwroXAsK6Bw9BYuRmwsV9/MHg2vhA3PZnwkLl+sFMThhBN+Rbwi8N
+8EK3yVB5qRgwnqS8cGgHS9B561awno67cHUeyJBcXc6wuYR8cEQx4NApnA7wiQx48EKVYpALnhi
wp/c68GLnAlBNzpSwnqw6cHK4OdA

> <OMEGA_E>
rAsMwA==

> <OMEGA_NBR>
     17886

$$$$
CACHE3HI_1704_4
  -OEChem-03092622533D

 31 33  0     0  0  0  0  0  0999 V2000
  -49.5037  -30.2030    5.7278 C   0  0  0  0  0  0  0  0  0  0  0  0
  -51.1189  -28.8092    4.5320 C   0  0  0  0  0  0  0  0  0  0  0  0
  -50.4876  -30.5399    6.6686 C   0  0  0  0  0  0  0  0  0  0  0  0
  -52.0938  -29.1374    5.4726 C   0  0  0  0  0  0  0  0  0  0  0  0
  -47.4858  -29.2618    3.7263 C   0  0  0  0  0  0  0  0  0  0  0  0
  -46.8720  -29.0396    2.4068 C   0  0  0  0  0  0  0  0  0  0  0  0
  -56.8978  -32.4873    8.6693 C   0  0  0  0  0  0  0  0  0  0  0  0
  -49.8316  -29.3722    4.6278 C   0  0  0  0  0  0  0  0  0  0  0  0
  -51.7846  -30.0179    6.5202 C   0  0  0  0  0  0  0  0  0  0  0  0
  -48.8423  -29.1512    3.5673 C   0  0  0  0  0  0  0  0  0  0  0  0
  -54.7334  -32.0254    7.5849 C   0  0  0  0  0  0  0  0  0  0  0  0
  -52.8507  -30.4283    7.3998 C   0  0  0  0  0  0  0  0  0  0  0  0
  -50.2801  -28.6563    1.5077 C   0  0  0  0  0  0  0  0  0  0  0  0
  -47.8225  -28.8143    1.5290 N   0  0  0  0  0  0  0  0  0  0  0  0
  -56.5698  -33.3431    7.7304 N   0  0  0  0  0  0  0  0  0  0  0  0
  -55.3530  -33.0844    7.1224 N   0  0  0  0  0  0  0  0  0  0  0  0
  -48.9888  -28.8819    2.2112 N   0  0  0  0  0  0  0  0  0  0  0  0
  -53.5100  -31.6070    7.0697 N   0  0  0  0  0  0  0  0  0  0  0  0
  -53.2995  -29.6043    8.1875 O   0  0  0  0  0  0  0  0  0  0  0  0
  -55.6735  -31.2814    8.8509 S   0  0  0  0  0  0  0  0  0  0  0  0
  -48.4968  -30.5765    5.8417 H   0  0  0  0  0  0  0  0  0  0  0  0
  -51.3506  -28.1236    3.7303 H   0  0  0  0  0  0  0  0  0  0  0  0
  -50.2519  -31.1920    7.4966 H   0  0  0  0  0  0  0  0  0  0  0  0
  -53.0848  -28.7149    5.3952 H   0  0  0  0  0  0  0  0  0  0  0  0
  -46.9640  -29.4728    4.6481 H   0  0  0  0  0  0  0  0  0  0  0  0
  -45.8131  -29.0587    2.1953 H   0  0  0  0  0  0  0  0  0  0  0  0
  -57.8080  -32.5307    9.2490 H   0  0  0  0  0  0  0  0  0  0  0  0
  -50.0877  -28.4495    0.4445 H   0  0  0  0  0  0  0  0  0  0  0  0
  -50.9087  -29.5544    1.5984 H   0  0  0  0  0  0  0  0  0  0  0  0
  -50.7989  -27.7983    1.9600 H   0  0  0  0  0  0  0  0  0  0  0  0
  -53.0664  -32.2067    6.4038 H   0  0  0  0  0  0  0  0  0  0  0  0
  1  3  2  0  0  0  0
  1  8  1  0  0  0  0
  2  4  1  0  0  0  0
  2  8  2  0  0  0  0
  3  9  1  0  0  0  0
  4  9  2  0  0  0  0
  5  6  1  0  0  0  0
  5 10  2  0  0  0  0
  6 14  2  0  0  0  0
  7 15  2  0  0  0  0
  7 20  1  0  0  0  0
  8 10  1  0  0  0  0
  9 12  1  0  0  0  0
 10 17  1  0  0  0  0
 11 16  2  0  0  0  0
 11 18  1  0  0  0  0
 11 20  1  0  0  0  0
 12 18  1  0  0  0  0
 12 19  2  0  0  0  0
 13 17  1  0  0  0  0
 14 17  1  0  0  0  0
 15 16  1  0  0  0  0
  1 21  1  0  0  0  0
  2 22  1  0  0  0  0
  3 23  1  0  0  0  0
  4 24  1  0  0  0  0
  5 25  1  0  0  0  0
  6 26  1  0  0  0  0
  7 27  1  0  0  0  0
 13 28  1  0  0  0  0
 13 29  1  0  0  0  0
 13 30  1  0  0  0  0
 18 31  1  0  0  0  0
M  END
> <POSIT::Probability>
0.5

> <POSIT::Method>
SHAPEFIT

> <ReceptorTitle>
UCSF-P4409-REFINED_LIGAND-BOUND-STATE_A__DU__LA1_A-201(A)

> <OMEGA_C>
ygNGwqaf8cFkSrdAunlMwkZ55sGABpFAQvNJwqVR9MFQZdVAGGBQwmEZ6cHYH69AbPE9wjsY6sG4
e25A7nw7wh5R6MF4CRpAWpdjwgnzAcJQtQpBiFNHwi366sHAFpRAZiNPwsIk8MHQpdBAgl5Dwqo1
6cEAT2RAAO9awg8aAMKEt/JAJmdTwilt88HYyuxAyh5JwiRA5cEw+8A/Qko/wqyD5sEQtcM/bkdi
wlRfBcKYX/dAgmldwmNWBMK06uNAhvRDwhQO58GQhA1ARApWwgnb/MEwO+JApDJVwpbV7MHs/wJB
qrFewjdA+sEknQ1BrfxBwpac9MHh7rpA+WZNwjr94MEAvm5A+AFJwjGJ+cFu5O9AzVZUwi645cGD
paxAIts7wkjI68H6vJRAnUA3wkl46MErfwxAYztnwmYfAsLY+xNB2FlIwnuY48ECnOM+gaJLwnVv
7MGMmcw/HjJLwvZi3sFU4fo/9UNUwqLTAMKt68xA

> <OMEGA_E>
nrFaPw==

> <OMEGA_NBR>
     19022

$$$$
CACHE3HI_1704_41
  -OEChem-03092622533D

 47 50  0     1  0  0  0  0  0999 V2000
  -48.0813  -29.1040    0.2440 C   0  0  0  0  0  0  0  0  0  0  0  0
  -49.6222  -30.0344    1.9191 C   0  0  0  0  0  0  0  0  0  0  0  0
  -47.8444  -28.5196    2.6185 C   0  0  0  0  0  0  0  0  0  0  0  0
  -50.0410  -30.1605    3.2564 C   0  0  0  0  0  0  0  0  0  0  0  0
  -48.2785  -28.6229    3.9524 C   0  0  0  0  0  0  0  0  0  0  0  0
  -58.5917  -30.2488    8.7868 C   0  0  0  0  0  0  0  0  0  0  0  0
  -59.0457  -32.6189    9.0074 C   0  0  0  0  0  0  0  0  0  0  0  0
  -55.7092  -31.1541    8.0634 C   0  0  0  0  0  0  0  0  0  0  0  0
  -59.8826  -29.9954    9.2940 C   0  0  0  0  0  0  0  0  0  0  0  0
  -60.3134  -32.2931    9.5252 C   0  0  0  0  0  0  0  0  0  0  0  0
  -48.5199  -29.2182    1.5997 C   0  0  0  0  0  0  0  0  0  0  0  0
  -58.1695  -31.5827    8.6360 C   0  0  0  0  0  0  0  0  0  0  0  0
  -49.3852  -29.4433    4.2932 C   0  0  0  0  0  0  0  0  0  0  0  0
  -56.8530  -31.9057    8.0873 C   0  0  0  0  0  0  0  0  0  0  0  0
  -54.6792  -31.9877    7.4037 C   0  0  0  0  0  0  0  0  0  0  0  0
  -51.1489  -29.6960    6.0141 C   0  0  0  0  0  0  0  0  0  0  0  0
  -53.2903  -31.6123    7.1789 C   0  0  0  0  0  0  0  0  0  0  0  0
  -48.9650  -30.3594    7.9042 C   0  0  0  0  0  0  0  0  0  0  0  0
  -50.4148  -30.8273    8.1619 C   0  0  0  0  0  0  0  0  0  0  0  0
  -48.8298  -29.3320    6.7526 C   0  0  0  0  0  0  0  0  0  0  0  0
  -51.4658  -29.8887    7.5126 C   0  0  2  0  0  0  0  0  0  0  0  0
  -47.7213  -29.0101   -0.8609 N   0  0  0  0  0  0  0  0  0  0  0  0
  -60.7138  -31.0047    9.6556 N   0  0  0  0  0  0  0  0  0  0  0  0
  -55.2152  -33.1355    7.0498 N   0  0  0  0  0  0  0  0  0  0  0  0
  -56.4930  -33.0761    7.4687 N   0  0  0  0  0  0  0  0  0  0  0  0
  -49.7993  -29.5647    5.6447 N   0  0  0  0  0  0  0  0  0  0  0  0
  -52.8248  -30.4117    7.7144 N   0  0  0  0  0  0  0  0  0  0  0  0
  -52.0699  -29.5411    5.2141 O   0  0  0  0  0  0  0  0  0  0  0  0
  -52.5744  -32.3553    6.5142 O   0  0  0  0  0  0  0  0  0  0  0  0
  -50.1463  -30.5637    1.1371 H   0  0  0  0  0  0  0  0  0  0  0  0
  -46.9914  -27.9033    2.3754 H   0  0  0  0  0  0  0  0  0  0  0  0
  -50.8699  -30.8095    3.4975 H   0  0  0  0  0  0  0  0  0  0  0  0
  -47.7639  -28.0719    4.7258 H   0  0  0  0  0  0  0  0  0  0  0  0
  -57.9375  -29.4325    8.5184 H   0  0  0  0  0  0  0  0  0  0  0  0
  -58.7493  -33.6515    8.8966 H   0  0  0  0  0  0  0  0  0  0  0  0
  -55.5834  -30.1531    8.4487 H   0  0  0  0  0  0  0  0  0  0  0  0
  -60.2175  -28.9738    9.3971 H   0  0  0  0  0  0  0  0  0  0  0  0
  -60.9816  -33.0869    9.8251 H   0  0  0  0  0  0  0  0  0  0  0  0
  -48.5813  -29.8982    8.8261 H   0  0  0  0  0  0  0  0  0  0  0  0
  -48.3564  -31.2410    7.6544 H   0  0  0  0  0  0  0  0  0  0  0  0
  -50.5388  -31.8377    7.7453 H   0  0  0  0  0  0  0  0  0  0  0  0
  -50.5890  -30.8544    9.2477 H   0  0  0  0  0  0  0  0  0  0  0  0
  -48.9995  -28.3246    7.1604 H   0  0  0  0  0  0  0  0  0  0  0  0
  -47.8102  -29.3955    6.3447 H   0  0  0  0  0  0  0  0  0  0  0  0
  -51.3876  -28.9071    8.0028 H   0  0  0  0  0  0  0  0  0  0  0  0
  -57.1346  -33.8319    7.3381 H   0  0  0  0  0  0  0  0  0  0  0  0
  -53.4559  -29.8719    8.2715 H   0  0  0  0  0  0  0  0  0  0  0  0
  1 11  1  0  0  0  0
  1 22  3  0  0  0  0
  2  4  1  0  0  0  0
  2 11  2  0  0  0  0
  3  5  2  0  0  0  0
  3 11  1  0  0  0  0
  4 13  2  0  0  0  0
  5 13  1  0  0  0  0
  6  9  2  0  0  0  0
  6 12  1  0  0  0  0
  7 10  1  0  0  0  0
  7 12  2  0  0  0  0
  8 14  2  0  0  0  0
  8 15  1  0  0  0  0
  9 23  1  0  0  0  0
 10 23  2  0  0  0  0
 12 14  1  0  0  0  0
 13 26  1  0  0  0  0
 14 25  1  0  0  0  0
 15 17  1  0  0  0  0
 15 24  2  0  0  0  0
 16 21  1  0  0  0  0
 16 26  1  0  0  0  0
 16 28  2  0  0  0  0
 17 27  1  0  0  0  0
 17 29  2  0  0  0  0
 18 19  1  0  0  0  0
 18 20  1  0  0  0  0
 19 21  1  0  0  0  0
 20 26  1  0  0  0  0
 21 27  1  0  0  0  0
 24 25  1  0  0  0  0
  2 30  1  0  0  0  0
  3 31  1  0  0  0  0
  4 32  1  0  0  0  0
  5 33  1  0  0  0  0
  6 34  1  0  0  0  0
  7 35  1  0  0  0  0
  8 36  1  0  0  0  0
  9 37  1  0  0  0  0
 10 38  1  0  0  0  0
 18 39  1  0  0  0  0
 18 40  1  0  0  0  0
 19 41  1  0  0  0  0
 19 42  1  0  0  0  0
 20 43  1  0  0  0  0
 20 44  1  0  0  0  0
 21 45  1  0  0  0  0
 25 46  1  0  0  0  0
 27 47  1  0  0  0  0
M  END
> <POSIT::Probability>
0.42

> <POSIT::Method>
SHAPEFIT

> <ReceptorTitle>
UCSF-P4409-REFINED_LIGAND-BOUND-STATE_A__DU__LA1_A-201(A)

> <OMEGA_C>
TVNAwhDV6MHR3nk+F31GwmBG8MEkpfU/oWA/wigo5MH/lSdAAypIws1I8cGZaFBAJB1Bwsj75MHT
9HxA611qwo398cHLlgxBxy5swr95AsI+HhBBL9ZewqE7+cGaAwFBx4dvwo3278FEtBRB+UBxwiMs
AcI7ZxhBZhRCwvS+6cEfxMw/kK1ownGp/MHzLApBeopFwvGL68E5YolAg2ljwsg+/8HCZQFBh7da
wtbm/8F86+xAfJhMwnCR7cEec8BASClVwgHm/MFiueVANNxDwiPg8sHb7vxAtqhJwjie9sFIlwJB
s1FDwumn6sEWFdhA9NxNwhAc78HdZvBAqOI+wsEU6MHIY1y/9NpywqIJ+MEzfRpBX9xcwriKBMIf
mOFAyvhhwutNBMJL/+5AdDJHwpaE7MF+obRAmUxTwidL88GP3PZAjEdQwh1U7MHr2aZAJUxSwuBr
AcKadNBAzJVIwn+C9MGvjZE/Ovc7wgo638FFBhhA0XpLwud59sH51l9AOg4/wlmT4MF8OZdADMBn
wqx168FwSwhBR/9qwiObBsJpWA5BW1VewoI58cEGLgdBvt5wwmLK58GKWhZBHu1zwvhYBMKgMx1B
TVNCwmwv78G9Nw1B6WxBwpHt+cEh8fRAvCdKwqWz/sGM2fdAG1tKwszV9sGh9hNBdf9DwsOY4sFb
IuVAoD0/wuwp68GfB8tA2oxNwr9B58F+CwBB4YlkwtNTB8LC0epA49JVwrf57sH/VwRB

> <OMEGA_E>
wG1uPw==

> <OMEGA_NBR>
     20490

$$$$
CACHE3HI_1704_80
  -OEChem-03092622533D

 22 23  0     0  0  0  0  0  0999 V2000
  -48.3274  -28.3368    4.3672 C   0  0  0  0  0  0  0  0  0  0  0  0
  -48.1225  -28.8136    3.0894 C   0  0  0  0  0  0  0  0  0  0  0  0
  -49.4946  -30.1872    4.5144 C   0  0  0  0  0  0  0  0  0  0  0  0
  -50.8807  -31.4004    6.2252 C   0  0  0  0  0  0  0  0  0  0  0  0
  -49.0935  -30.0316    7.3788 C   0  0  0  0  0  0  0  0  0  0  0  0
  -51.4229  -29.0433    7.0421 C   0  0  0  0  0  0  0  0  0  0  0  0
  -51.4984  -29.9483    8.2309 C   0  0  0  0  0  0  0  0  0  0  0  0
  -50.5283  -30.2680    7.1083 C   0  0  0  0  0  0  0  0  0  0  0  0
  -49.1140  -29.1233    5.1858 N   0  0  0  0  0  0  0  0  0  0  0  0
  -50.3083  -31.2515    4.9687 N   0  0  0  0  0  0  0  0  0  0  0  0
  -51.5875  -32.3174    6.6315 O   0  0  0  0  0  0  0  0  0  0  0  0
  -48.1750  -30.7002    6.9286 O   0  0  0  0  0  0  0  0  0  0  0  0
  -48.9310  -28.9679    8.2026 O   0  0  0  0  0  0  0  0  0  0  0  0
  -48.9421  -30.3071    2.8946 S   0  0  0  0  0  0  0  0  0  0  0  0
  -47.9219  -27.4123    4.7554 H   0  0  0  0  0  0  0  0  0  0  0  0
  -47.5488  -28.3705    2.2881 H   0  0  0  0  0  0  0  0  0  0  0  0
  -52.2587  -29.0485    6.3520 H   0  0  0  0  0  0  0  0  0  0  0  0
  -50.9754  -28.0660    7.1814 H   0  0  0  0  0  0  0  0  0  0  0  0
  -51.1018  -29.5795    9.1698 H   0  0  0  0  0  0  0  0  0  0  0  0
  -52.3852  -30.5618    8.3405 H   0  0  0  0  0  0  0  0  0  0  0  0
  -50.4868  -31.9853    4.2863 H   0  0  0  0  0  0  0  0  0  0  0  0
  -47.9846  -28.7954    8.3971 H   0  0  0  0  0  0  0  0  0  0  0  0
  1  2  2  0  0  0  0
  1  9  1  0  0  0  0
  2 14  1  0  0  0  0
  3  9  2  0  0  0  0
  3 10  1  0  0  0  0
  3 14  1  0  0  0  0
  4  8  1  0  0  0  0
  4 10  1  0  0  0  0
  4 11  2  0  0  0  0
  5  8  1  0  0  0  0
  5 12  2  0  0  0  0
  5 13  1  0  0  0  0
  6  7  1  0  0  0  0
  6  8  1  0  0  0  0
  7  8  1  0  0  0  0
  1 15  1  0  0  0  0
  2 16  1  0  0  0  0
  6 17  1  0  0  0  0
  6 18  1  0  0  0  0
  7 19  1  0  0  0  0
  7 20  1  0  0  0  0
 10 21  1  0  0  0  0
 13 22  1  0  0  0  0
M  END
> <POSIT::Probability>
0.18

> <POSIT::Method>
HYBRID

> <ReceptorTitle>
UCSF-P4409-REFINED_LIGAND-BOUND-STATE_A__DU__LA1_A-201(A)

> <OMEGA_C>
N09Bws+x4sG2v4tAeX1AwlSC5sHKuEVAffpFwlJ/8cEbdpBA4YVLwvAz+8EqNcdAyl9EwrBA8MHA
HuxADLFNwrxY6MF/WOFAWP5NwhiW78GXsQNB9hxKws4k8sFwd+NAwHREwnb86MEm8qVArDtJwiYD
+sE8/55AlVlOwvxEAcI6NdRAPrNAwhCa9cHNtt1AVrlDwjK+58G2PQNBv8RDwgJ18sFCQTlACrA/
wmFM28GYLJhA8jE+ws724sGKcBJA9QhRwlRj6MHNQ8tA0OZLwjmH4MEzzuVAO2hMwrmi7MFVtxJB
cYpRwpB+9MGccgVBcvJJwvLh/8GfKYlAPfA/wvBc5sGqWgZB

> <OMEGA_E>
AAUywA==

> <OMEGA_NBR>
     21418

$$$$
CACHE3HI_1707_100
  -OEChem-03092622533D

 41 42  0     1  0  0  0  0  0999 V2000
  -46.1286  -29.7313    3.7088 C   0  0  0  0  0  0  0  0  0  0  0  0
  -46.9727  -29.5763    4.8027 C   0  0  0  0  0  0  0  0  0  0  0  0
  -48.0229  -29.5301    2.2845 C   0  0  0  0  0  0  0  0  0  0  0  0
  -46.6554  -29.7089    2.4222 C   0  0  0  0  0  0  0  0  0  0  0  0
  -48.3256  -29.4034    4.5589 C   0  0  0  0  0  0  0  0  0  0  0  0
  -48.8171  -29.2439    7.0237 C   0  0  0  0  0  0  0  0  0  0  0  0
  -51.9058  -32.1752    8.6823 C   0  0  0  0  0  0  0  0  0  0  0  0
  -52.9674  -32.0374    7.5971 C   0  0  0  0  0  0  0  0  0  0  0  0
  -50.6984  -31.2666    8.4080 C   0  0  0  0  0  0  0  0  0  0  0  0
  -52.3830  -29.5724    7.9794 C   0  0  0  0  0  0  0  0  0  0  0  0
  -53.4259  -30.5786    7.4711 C   0  0  2  0  0  0  0  0  0  0  0  0
  -50.0341  -29.0004    7.8970 C   0  0  0  0  0  0  0  0  0  0  0  0
  -55.6048  -32.3322    7.2517 C   0  0  0  0  0  0  0  0  0  0  0  0
  -55.7627  -30.8496    7.5299 C   0  0  0  0  0  0  0  0  0  0  0  0
  -48.8741  -29.3762    3.3237 N   0  0  0  0  0  0  0  0  0  0  0  0
  -51.0340  -30.0392    7.6695 N   0  0  1  0  0  0  0  0  0  0  0  0
  -49.1764  -29.2464    5.6791 N   0  0  0  0  0  0  0  0  0  0  0  0
  -47.6919  -29.3777    7.4945 O   0  0  0  0  0  0  0  0  0  0  0  0
  -56.7391  -32.7921    6.5268 O   0  0  0  0  0  0  0  0  0  0  0  0
  -54.6179  -30.3849    8.2310 O   0  0  0  0  0  0  0  0  0  0  0  0
  -45.6450  -29.8968    1.0495 Cl  0  0  0  0  0  0  0  0  0  0  0  0
  -45.0632  -29.8688    3.8728 H   0  0  0  0  0  0  0  0  0  0  0  0
  -46.5695  -29.5929    5.8101 H   0  0  0  0  0  0  0  0  0  0  0  0
  -48.4956  -29.5033    1.3073 H   0  0  0  0  0  0  0  0  0  0  0  0
  -52.3392  -31.9268    9.6582 H   0  0  0  0  0  0  0  0  0  0  0  0
  -51.5713  -33.2194    8.7385 H   0  0  0  0  0  0  0  0  0  0  0  0
  -52.5824  -32.3924    6.6346 H   0  0  0  0  0  0  0  0  0  0  0  0
  -53.8290  -32.6754    7.8302 H   0  0  0  0  0  0  0  0  0  0  0  0
  -50.2048  -31.0193    9.3698 H   0  0  0  0  0  0  0  0  0  0  0  0
  -49.9578  -31.8537    7.8316 H   0  0  0  0  0  0  0  0  0  0  0  0
  -52.5747  -28.6095    7.4955 H   0  0  0  0  0  0  0  0  0  0  0  0
  -52.5184  -29.4121    9.0546 H   0  0  0  0  0  0  0  0  0  0  0  0
  -53.6717  -30.3560    6.4204 H   0  0  0  0  0  0  0  0  0  0  0  0
  -50.4920  -28.0359    7.6611 H   0  0  0  0  0  0  0  0  0  0  0  0
  -49.7409  -29.0271    8.9505 H   0  0  0  0  0  0  0  0  0  0  0  0
  -54.7129  -32.5146    6.6449 H   0  0  0  0  0  0  0  0  0  0  0  0
  -55.5408  -32.9039    8.1828 H   0  0  0  0  0  0  0  0  0  0  0  0
  -55.8411  -30.2910    6.5929 H   0  0  0  0  0  0  0  0  0  0  0  0
  -56.6437  -30.6562    8.1498 H   0  0  0  0  0  0  0  0  0  0  0  0
  -50.1628  -29.1191    5.4615 H   0  0  0  0  0  0  0  0  0  0  0  0
  -56.6029  -33.7397    6.3680 H   0  0  0  0  0  0  0  0  0  0  0  0
  1  2  1  0  0  0  0
  1  4  2  0  0  0  0
  2  5  2  0  0  0  0
  3  4  1  0  0  0  0
  3 15  2  0  0  0  0
  4 21  1  0  0  0  0
  5 15  1  0  0  0  0
  5 17  1  0  0  0  0
  6 12  1  0  0  0  0
  6 17  1  0  0  0  0
  6 18  2  0  0  0  0
  7  8  1  0  0  0  0
  7  9  1  0  0  0  0
  8 11  1  0  0  0  0
  9 16  1  0  0  0  0
 10 11  1  0  0  0  0
 10 16  1  0  0  0  0
 11 20  1  0  0  0  0
 12 16  1  0  0  0  0
 13 14  1  0  0  0  0
 13 19  1  0  0  0  0
 14 20  1  0  0  0  0
  1 22  1  0  0  0  0
  2 23  1  0  0  0  0
  3 24  1  0  0  0  0
  7 25  1  0  0  0  0
  7 26  1  0  0  0  0
  8 27  1  0  0  0  0
  8 28  1  0  0  0  0
  9 29  1  0  0  0  0
  9 30  1  0  0  0  0
 10 31  1  0  0  0  0
 10 32  1  0  0  0  0
 11 33  1  0  0  0  0
 12 34  1  0  0  0  0
 12 35  1  0  0  0  0
 13 36  1  0  0  0  0
 13 37  1  0  0  0  0
 14 38  1  0  0  0  0
 14 39  1  0  0  0  0
 17 40  1  0  0  0  0
 19 41  1  0  0  0  0
M  END
> <POSIT::Probability>
0.14

> <POSIT::Method>
HYBRID

> <ReceptorTitle>
UCSF-P4409-REFINED_LIGAND-BOUND-STATE_A__DU__LA1_A-201(A)

> <OMEGA_C>
t4M4wqLZ7cHAXG1AAeQ7wlec7MESsJlAfRdAwpg97MG2NRJAKp86wumr7cH4BRtAYk1BwhM668GG
4pFAq0RDwpXz6cHRweBAhp9PwmizAMKY6gpBm95TwlAmAMI3G/NALctKwvkh+sE9hwZBLIhRwlKU
7MHmVv9AFrRVwvCg9MHYEu9A+CJIwsEA6MHcs/xAWWtewjVUAcIADuhABw1fwv3L9sEz9fBACH9D
wnoC68HCtlRA1CJMwlFQ8MGUbPVAr7REwpn46cGNu7VAhsQ+wnQF68Et0+9AyvRiwiYrA8I329BA
sXhawjwU88FIsgNBh5Q2wqEs78FtVIY/rEA0wlDz7sEM3HdAM0c6wi2+7MG27LlAd/tBwsoG7MF/
Vac/S1tRwgNq/8H4hxpBCklOwqrgBMIG0QtBW1RSwtCRAcKpTtRA8VBXwpOzAsK7kPpAsdFIwngn
+MHc6hVBv9RHwmTU/sGjnPpAeExSwkjg5MF22+9A3BJSwuRL68HG3xBB269WwhbZ8sHyc81A2PdJ
wn5J4MFoJ/VArfZGwnc36ME8NQ9BCtpawgAPAsJlo9RAvylewqKdA8Lo7AJBTV1fwg5U8sEI+dJA
MpNiwv0/9cHDZQJBuaZIwt3z6MF3xK5AVGliwnn1BsKGxstA

> <OMEGA_E>
MOQawA==

> <OMEGA_NBR>
     22737

$$$$
CACHE3HI_1708_44
  -OEChem-03092622533D

 47 49  0     1  0  0  0  0  0999 V2000
  -43.8274  -33.3178   -1.2364 C   0  0  0  0  0  0  0  0  0  0  0  0
  -45.5832  -34.9576   -0.9799 C   0  0  0  0  0  0  0  0  0  0  0  0
  -44.0928  -32.8342    0.0448 C   0  0  0  0  0  0  0  0  0  0  0  0
  -45.8486  -34.4741    0.3013 C   0  0  0  0  0  0  0  0  0  0  0  0
  -45.0837  -29.8519    6.2873 C   0  0  0  0  0  0  0  0  0  0  0  0
  -44.5727  -34.3797   -1.7486 C   0  0  0  0  0  0  0  0  0  0  0  0
  -46.2213  -29.7337    5.5265 C   0  0  0  0  0  0  0  0  0  0  0  0
  -45.1033  -33.4121    0.8135 C   0  0  0  0  0  0  0  0  0  0  0  0
  -45.7485  -29.4808    4.2248 C   0  0  0  0  0  0  0  0  0  0  0  0
  -47.9791  -30.0976    7.2866 C   0  0  0  0  0  0  0  0  0  0  0  0
  -48.7779  -30.5045    2.5179 C   0  0  0  0  0  0  0  0  0  0  0  0
  -48.1045  -29.2668    3.1155 C   0  0  0  0  0  0  0  0  0  0  0  0
  -47.9439  -31.7645    2.6853 C   0  0  0  0  0  0  0  0  0  0  0  0
  -46.1314  -30.2186    1.8361 C   0  0  0  0  0  0  0  0  0  0  0  0
  -46.5687  -29.2629    2.9572 C   0  0  2  0  0  0  0  0  0  0  0  0
  -44.2889  -34.8977   -3.1180 C   0  0  0  0  0  0  0  0  0  0  0  0
  -49.4844  -30.1433    7.3652 C   0  0  0  0  0  0  0  0  0  0  0  0
  -44.4152  -29.4404    4.1590 N   0  0  0  0  0  0  0  0  0  0  0  0
  -44.0397  -29.6696    5.4288 N   0  0  0  0  0  0  0  0  0  0  0  0
  -46.6018  -31.6113    2.0679 N   0  0  1  0  0  0  0  0  0  0  0  0
  -47.5148  -29.8439    5.9750 N   0  0  0  0  0  0  0  0  0  0  0  0
  -47.2924  -30.2633    8.2898 O   0  0  0  0  0  0  0  0  0  0  0  0
  -44.2408  -32.1505    2.9210 O   0  0  0  0  0  0  0  0  0  0  0  0
  -46.0724  -33.8597    3.1886 O   0  0  0  0  0  0  0  0  0  0  0  0
  -45.4386  -32.7996    2.4346 S   0  0  0  0  0  0  0  0  0  0  0  0
  -43.0378  -32.8616   -1.8276 H   0  0  0  0  0  0  0  0  0  0  0  0
  -46.1692  -35.7852   -1.3712 H   0  0  0  0  0  0  0  0  0  0  0  0
  -43.5061  -32.0067    0.4347 H   0  0  0  0  0  0  0  0  0  0  0  0
  -46.6379  -34.9316    0.8915 H   0  0  0  0  0  0  0  0  0  0  0  0
  -44.9236  -30.0428    7.3391 H   0  0  0  0  0  0  0  0  0  0  0  0
  -49.7646  -30.6463    2.9872 H   0  0  0  0  0  0  0  0  0  0  0  0
  -48.9671  -30.3257    1.4455 H   0  0  0  0  0  0  0  0  0  0  0  0
  -48.5342  -28.3568    2.6489 H   0  0  0  0  0  0  0  0  0  0  0  0
  -48.3714  -29.1914    4.1906 H   0  0  0  0  0  0  0  0  0  0  0  0
  -47.8323  -32.0162    3.7555 H   0  0  0  0  0  0  0  0  0  0  0  0
  -48.4728  -32.6070    2.2066 H   0  0  0  0  0  0  0  0  0  0  0  0
  -46.5385  -29.8555    0.8699 H   0  0  0  0  0  0  0  0  0  0  0  0
  -45.0264  -30.2173    1.7242 H   0  0  0  0  0  0  0  0  0  0  0  0
  -46.2813  -28.2183    2.6003 H   0  0  0  0  0  0  0  0  0  0  0  0
  -43.5380  -35.6983   -3.0941 H   0  0  0  0  0  0  0  0  0  0  0  0
  -43.8905  -34.1075   -3.7681 H   0  0  0  0  0  0  0  0  0  0  0  0
  -45.2047  -35.2939   -3.5738 H   0  0  0  0  0  0  0  0  0  0  0  0
  -49.8379  -31.1644    7.1968 H   0  0  0  0  0  0  0  0  0  0  0  0
  -49.8130  -29.8167    8.3557 H   0  0  0  0  0  0  0  0  0  0  0  0
  -49.9139  -29.4782    6.6106 H   0  0  0  0  0  0  0  0  0  0  0  0
  -43.0500  -29.6894    5.6413 H   0  0  0  0  0  0  0  0  0  0  0  0
  -48.2726  -29.7294    5.2778 H   0  0  0  0  0  0  0  0  0  0  0  0
  1  3  2  0  0  0  0
  1  6  1  0  0  0  0
  2  4  1  0  0  0  0
  2  6  2  0  0  0  0
  3  8  1  0  0  0  0
  4  8  2  0  0  0  0
  5  7  2  0  0  0  0
  5 19  1  0  0  0  0
  6 16  1  0  0  0  0
  7  9  1  0  0  0  0
  7 21  1  0  0  0  0
  8 25  1  0  0  0  0
  9 15  1  0  0  0  0
  9 18  2  0  0  0  0
 10 17  1  0  0  0  0
 10 21  1  0  0  0  0
 10 22  2  0  0  0  0
 11 12  1  0  0  0  0
 11 13  1  0  0  0  0
 12 15  1  0  0  0  0
 13 20  1  0  0  0  0
 14 15  1  0  0  0  0
 14 20  1  0  0  0  0
 18 19  1  0  0  0  0
 20 25  1  0  0  0  0
 23 25  2  0  0  0  0
 24 25  2  0  0  0  0
  1 26  1  0  0  0  0
  2 27  1  0  0  0  0
  3 28  1  0  0  0  0
  4 29  1  0  0  0  0
  5 30  1  0  0  0  0
 11 31  1  0  0  0  0
 11 32  1  0  0  0  0
 12 33  1  0  0  0  0
 12 34  1  0  0  0  0
 13 35  1  0  0  0  0
 13 36  1  0  0  0  0
 14 37  1  0  0  0  0
 14 38  1  0  0  0  0
 15 39  1  0  0  0  0
 16 40  1  0  0  0  0
 16 41  1  0  0  0  0
 16 42  1  0  0  0  0
 17 43  1  0  0  0  0
 17 44  1  0  0  0  0
 17 45  1  0  0  0  0
 19 46  1  0  0  0  0
 21 47  1  0  0  0  0
M  END
> <POSIT::Probability>
0.02

> <POSIT::Method>
FRED

> <ReceptorTitle>
UCSF-P4409-REFINED_LIGAND-BOUND-STATE_A__DU__LA1_A-201(A)

> <OMEGA_C>
TE8vwm5FBcLUQJ6/NlU2wpvUC8JA2Xq/DF8wwjZWA8IAlDc9+mQ3wm/lCcLwPZo+qlU0wq3Q7sFT
MclAckoywtSECcIE0d+/peI4wpje7cES2bBA0Wk0wvylBcIAQlA/gf42wsDY68GOMYdAnuo/wvvH
8MF2K+lAmxxDwjQJ9MFVJSFABGtAwnMi6sHkY0dAl8Y/wsUd/sH02ytAhoY4wp6/8cEUBes/Y0Y6
wm4a6sHAQj1A2ycxwkiXC8IEjkfAD/BFwoYl8cHjr+tAJKkxwu2F68FRFoVAnygwwk1b7cFsuK1A
NGg6wgLk/MHrWARAHg8+wjnA7sEQM79Abis9wjIb8sHhogRBifYwwheaAMLQ8TpAHUo4wlxwB8L/
EUxAJME1wtcyA8Ih0BtAtCYswkVyA8Ls7em/Rq04wv8jD8KYgq+/SgYuwuIGAMIQkt4+OY06wv25
C8KAN2Q/wrEzwp1X8MG82epA6w5Hwowr9cFSLj9ATd5DwvKa8sFsB7k/AyNCwrTa4sGdhylARXxB
whKI6cGbGYZASFQ/wosQAMLQWnBAMuRBwp5tAsIoOA1AYic6wgvY7sH4s14/ARs0wgy98cGkstw/
DiA5whi/4cG0aiZA5yYuwg3LDsIKBkbA648vwiBuCMJIKXHAoNE0wvcsDcKKuWTA+FlHwqJQ+cH6
S+ZAf0BHwrSI7sHKsAVB0KdHwkLT68HjidNANjMswuuD7cHZhbRALxdBwujV7cHb46hA

> <OMEGA_E>
rBQAwQ==

> <OMEGA_NBR>
     24175

$$$$
CACHE3HI_1709_31
  -OEChem-03092622533D

 53 55  0     1  0  0  0  0  0999 V2000
  -54.9126  -31.4236    7.4592 C   0  0  0  0  0  0  0  0  0  0  0  0
  -53.5415  -30.1360    5.8040 C   0  0  0  0  0  0  0  0  0  0  0  0
  -52.1519  -29.9383    5.6100 C   0  0  0  0  0  0  0  0  0  0  0  0
  -49.2203  -29.1649   -0.2453 C   0  0  0  0  0  0  0  0  0  0  0  0
  -53.6910  -30.9589    6.8986 C   0  0  0  0  0  0  0  0  0  0  0  0
  -49.2896  -29.3994    1.1026 C   0  0  0  0  0  0  0  0  0  0  0  0
  -47.9690  -29.2090    1.5435 C   0  0  0  0  0  0  0  0  0  0  0  0
  -51.4947  -30.6461    6.5922 C   0  0  0  0  0  0  0  0  0  0  0  0
  -47.4384  -29.3326    2.9250 C   0  0  0  0  0  0  0  0  0  0  0  0
  -50.0443  -30.7478    6.8026 C   0  0  0  0  0  0  0  0  0  0  0  0
  -48.4183  -27.4794    6.0779 C   0  0  0  0  0  0  0  0  0  0  0  0
  -49.6861  -28.2605    6.3975 C   0  0  0  0  0  0  0  0  0  0  0  0
  -47.5674  -28.4694    5.2739 C   0  0  1  0  0  0  0  0  0  0  0  0
  -47.8891  -29.8172    5.9435 C   0  0  1  0  0  0  0  0  0  0  0  0
  -46.9424  -30.1042    7.1113 C   0  0  0  0  0  0  0  0  0  0  0  0
  -51.5095  -30.5878    1.0419 C   0  0  0  0  0  0  0  0  0  0  0  0
  -51.2347  -28.5065    2.4301 C   0  0  0  0  0  0  0  0  0  0  0  0
  -50.2152  -30.6523    3.1635 C   0  0  0  0  0  0  0  0  0  0  0  0
  -52.1554  -32.1049    8.5127 C   0  0  0  0  0  0  0  0  0  0  0  0
  -50.4774  -29.7674    1.8892 C   0  0  0  0  0  0  0  0  0  0  0  0
  -55.9095  -31.8027    7.9167 N   0  0  0  0  0  0  0  0  0  0  0  0
  -47.1434  -28.8816    0.5458 N   0  0  0  0  0  0  0  0  0  0  0  0
  -52.4401  -31.2624    7.3694 N   0  0  0  0  0  0  0  0  0  0  0  0
  -49.2689  -29.6621    6.4194 N   0  0  0  0  0  0  0  0  0  0  0  0
  -47.9984  -28.4853    3.8757 N   0  0  0  0  0  0  0  0  0  0  0  0
  -46.5418  -30.1402    3.1534 O   0  0  0  0  0  0  0  0  0  0  0  0
  -49.6232  -31.7846    7.3110 O   0  0  0  0  0  0  0  0  0  0  0  0
  -47.9436  -28.8551   -0.5899 O   0  0  0  0  0  0  0  0  0  0  0  0
  -54.3408  -29.7198    5.2056 H   0  0  0  0  0  0  0  0  0  0  0  0
  -51.6859  -29.3432    4.8365 H   0  0  0  0  0  0  0  0  0  0  0  0
  -49.9360  -29.1762   -1.0539 H   0  0  0  0  0  0  0  0  0  0  0  0
  -48.6663  -26.5922    5.4720 H   0  0  0  0  0  0  0  0  0  0  0  0
  -47.9052  -27.1337    6.9875 H   0  0  0  0  0  0  0  0  0  0  0  0
  -50.0666  -28.0112    7.3969 H   0  0  0  0  0  0  0  0  0  0  0  0
  -50.4774  -28.0804    5.6607 H   0  0  0  0  0  0  0  0  0  0  0  0
  -46.5399  -28.2200    5.3033 H   0  0  0  0  0  0  0  0  0  0  0  0
  -47.8834  -30.6470    5.2462 H   0  0  0  0  0  0  0  0  0  0  0  0
  -46.9513  -29.2682    7.8090 H   0  0  0  0  0  0  0  0  0  0  0  0
  -45.9289  -30.2468    6.7395 H   0  0  0  0  0  0  0  0  0  0  0  0
  -47.2603  -31.0066    7.6328 H   0  0  0  0  0  0  0  0  0  0  0  0
  -52.3792  -30.8440    1.6584 H   0  0  0  0  0  0  0  0  0  0  0  0
  -51.8742  -30.0493    0.1587 H   0  0  0  0  0  0  0  0  0  0  0  0
  -51.0713  -31.5267    0.6850 H   0  0  0  0  0  0  0  0  0  0  0  0
  -52.1251  -28.7534    3.0206 H   0  0  0  0  0  0  0  0  0  0  0  0
  -50.5665  -27.9147    3.0667 H   0  0  0  0  0  0  0  0  0  0  0  0
  -51.5647  -27.8612    1.6097 H   0  0  0  0  0  0  0  0  0  0  0  0
  -51.1296  -30.8996    3.7151 H   0  0  0  0  0  0  0  0  0  0  0  0
  -49.5490  -30.1317    3.8615 H   0  0  0  0  0  0  0  0  0  0  0  0
  -49.7423  -31.6010    2.8826 H   0  0  0  0  0  0  0  0  0  0  0  0
  -52.0472  -33.1518    8.2099 H   0  0  0  0  0  0  0  0  0  0  0  0
  -52.9664  -32.0304    9.2438 H   0  0  0  0  0  0  0  0  0  0  0  0
  -51.2172  -31.8081    8.9928 H   0  0  0  0  0  0  0  0  0  0  0  0
  -48.6957  -27.7995    3.5891 H   0  0  0  0  0  0  0  0  0  0  0  0
  1  5  1  0  0  0  0
  1 21  3  0  0  0  0
  2  3  1  0  0  0  0
  2  5  2  0  0  0  0
  3  8  2  0  0  0  0
  4  6  2  0  0  0  0
  4 28  1  0  0  0  0
  5 23  1  0  0  0  0
  6  7  1  0  0  0  0
  6 20  1  0  0  0  0
  7  9  1  0  0  0  0
  7 22  2  0  0  0  0
  8 10  1  0  0  0  0
  8 23  1  0  0  0  0
  9 25  1  0  0  0  0
  9 26  2  0  0  0  0
 10 24  1  0  0  0  0
 10 27  2  0  0  0  0
 11 12  1  0  0  0  0
 11 13  1  0  0  0  0
 12 24  1  0  0  0  0
 13 14  1  0  0  0  0
 13 25  1  0  0  0  0
 14 15  1  0  0  0  0
 14 24  1  0  0  0  0
 16 20  1  0  0  0  0
 17 20  1  0  0  0  0
 18 20  1  0  0  0  0
 19 23  1  0  0  0  0
 22 28  1  0  0  0  0
  2 29  1  0  0  0  0
  3 30  1  0  0  0  0
  4 31  1  0  0  0  0
 11 32  1  0  0  0  0
 11 33  1  0  0  0  0
 12 34  1  0  0  0  0
 12 35  1  0  0  0  0
 13 36  1  0  0  0  0
 14 37  1  0  0  0  0
 15 38  1  0  0  0  0
 15 39  1  0  0  0  0
 15 40  1  0  0  0  0
 16 41  1  0  0  0  0
 16 42  1  0  0  0  0
 16 43  1  0  0  0  0
 17 44  1  0  0  0  0
 17 45  1  0  0  0  0
 17 46  1  0  0  0  0
 18 47  1  0  0  0  0
 18 48  1  0  0  0  0
 18 49  1  0  0  0  0
 19 50  1  0  0  0  0
 19 51  1  0  0  0  0
 19 52  1  0  0  0  0
 25 53  1  0  0  0  0
M  END
> <POSIT::Probability>
0.18

> <POSIT::Method>
HYBRID

> <ReceptorTitle>
UCSF-P4409-REFINED_LIGAND-BOUND-STATE_A__DU__LA1_A-201(A)

> <OMEGA_C>
eqZbwoJj+8G1se5AcipWwnEW8cEeurlAjJtQwq6B78FchbNAmuFEwrhR6cFgNHu+osNWwuCr98G6
wdxAlChFwvEx68HWII0/POA/wgqs6cFmkcU/n/pNwjIr9cEc89JA8cA9wi+p6sEPMztAWy1Iwnb7
9cHXrtlAUqxBwunV28EIfsJAm75GwosV4sGquMxADkU+wkHB48EcxKhAcY4/wpCJ7sFiMb5A+MQ7
wlPV8MGnj+NAtQlOwsKz9MFEXIU/WPBMwmEN5MFUhxtAWNxIwto39cGKdkpAJp9QwmprAMIINAhB
4OhJwrcj7sGu0vE/TqNfwt1r/sH6Vf1A3JI8wnwN58Gwugs/rMJRwnMZ+sFJ0utAXBNFwv9L7cEI
bM1AXv4/wvDh48ESDHhAxCo6whMf8cHS0UlAJn5GwutG/sFc8+lAPMY/wkPX5sE4Ahe//lxZwhDC
7cFClKZAXL5Owve+6sGexJpAfb5Hwtho6cGC54a/V6pCwsy81MF6Gq9A5p4/wsIR2cE4md9AMkRI
wgMX4MFDs+xA5ehJwrek4MEpJLVA5yg6wo7C4cHutKlAj4g/wg8t9cGs4KdALs47wlIl6sE04/lA
Lbc3wnz58cHSqddAigo9wnAN+MEiQPRARoRRwoPA9sHoR9Q/NH9PwgRl8MGAiiI+CUlMwqo2/MHU
Xi8/HIBQwgEH5sGxUUFAHkRKwkFR38FmRERAPEJOwsbj3sF1Cs4/uIRMwkgy98F3w21AIDJGwq8N
8cFYI3dAIvhGwsTO/MGkfDhASzBQwnSbBMLCWwNBoN1Twh0fAMKy5hNBaN5Mwgd3/sGt4g9BXshC
wmRl3sEbtGVA

> <OMEGA_E>
Gtisvw==

> <OMEGA_NBR>
     25736

$$$$
CACHE3HI_1712_39
  -OEChem-03092622533D

 44 46  0     0  0  0  0  0  0999 V2000
  -47.3384  -28.8255    1.2359 C   0  0  0  0  0  0  0  0  0  0  0  0
  -48.8578  -28.3667    3.0963 C   0  0  0  0  0  0  0  0  0  0  0  0
  -46.8590  -29.6685    3.4809 C   0  0  0  0  0  0  0  0  0  0  0  0
  -55.4530  -32.6551    6.7140 C   0  0  0  0  0  0  0  0  0  0  0  0
  -49.1983  -28.4929    4.4431 C   0  0  0  0  0  0  0  0  0  0  0  0
  -47.1996  -29.7947    4.8276 C   0  0  0  0  0  0  0  0  0  0  0  0
  -54.5322  -31.6382    6.4881 C   0  0  0  0  0  0  0  0  0  0  0  0
  -56.9786  -31.0219    7.5283 C   0  0  0  0  0  0  0  0  0  0  0  0
  -47.6879  -28.9545    2.6153 C   0  0  0  0  0  0  0  0  0  0  0  0
  -56.7018  -32.3499    7.2437 C   0  0  0  0  0  0  0  0  0  0  0  0
  -48.3695  -29.2069    5.3086 C   0  0  0  0  0  0  0  0  0  0  0  0
  -54.9056  -30.3424    6.8062 C   0  0  0  0  0  0  0  0  0  0  0  0
  -50.3524  -30.1321    8.2208 C   0  0  0  0  0  0  0  0  0  0  0  0
  -50.3802  -30.8782    5.8073 C   0  0  0  0  0  0  0  0  0  0  0  0
  -51.4926  -29.1645    7.9083 C   0  0  0  0  0  0  0  0  0  0  0  0
  -51.5187  -29.8954    5.5427 C   0  0  0  0  0  0  0  0  0  0  0  0
  -49.5054  -30.4545    6.9885 C   0  0  0  0  0  0  0  0  0  0  0  0
  -57.7085  -33.4150    7.4968 C   0  0  0  0  0  0  0  0  0  0  0  0
  -47.0547  -28.7208    0.1154 N   0  0  0  0  0  0  0  0  0  0  0  0
  -56.1092  -30.0072    7.3222 N   0  0  0  0  0  0  0  0  0  0  0  0
  -52.3166  -29.7062    6.7889 N   0  0  0  0  0  0  0  0  0  0  0  0
  -54.0691  -28.0312    7.6641 O   0  0  0  0  0  0  0  0  0  0  0  0
  -53.9631  -28.5260    5.1959 O   0  0  0  0  0  0  0  0  0  0  0  0
  -48.7045  -29.3305    6.6315 O   0  0  0  0  0  0  0  0  0  0  0  0
  -53.8415  -28.9536    6.5730 S   0  0  0  0  0  0  0  0  0  0  0  0
  -49.5141  -27.8071    2.4341 H   0  0  0  0  0  0  0  0  0  0  0  0
  -45.9439  -30.1324    3.1206 H   0  0  0  0  0  0  0  0  0  0  0  0
  -55.1896  -33.6816    6.4745 H   0  0  0  0  0  0  0  0  0  0  0  0
  -50.1109  -28.0327    4.8123 H   0  0  0  0  0  0  0  0  0  0  0  0
  -46.5498  -30.3520    5.4969 H   0  0  0  0  0  0  0  0  0  0  0  0
  -53.5545  -31.8613    6.0754 H   0  0  0  0  0  0  0  0  0  0  0  0
  -57.9361  -30.7231    7.9435 H   0  0  0  0  0  0  0  0  0  0  0  0
  -49.7066  -29.7066    9.0070 H   0  0  0  0  0  0  0  0  0  0  0  0
  -50.7546  -31.0631    8.6496 H   0  0  0  0  0  0  0  0  0  0  0  0
  -50.7872  -31.8855    5.9874 H   0  0  0  0  0  0  0  0  0  0  0  0
  -49.7532  -30.9761    4.9051 H   0  0  0  0  0  0  0  0  0  0  0  0
  -52.1222  -29.0119    8.7921 H   0  0  0  0  0  0  0  0  0  0  0  0
  -51.0667  -28.1987    7.6158 H   0  0  0  0  0  0  0  0  0  0  0  0
  -51.0928  -28.9356    5.2317 H   0  0  0  0  0  0  0  0  0  0  0  0
  -52.1674  -30.2630    4.7396 H   0  0  0  0  0  0  0  0  0  0  0  0
  -48.8081  -31.2838    7.2391 H   0  0  0  0  0  0  0  0  0  0  0  0
  -57.6111  -33.8291    8.5106 H   0  0  0  0  0  0  0  0  0  0  0  0
  -57.5872  -34.2571    6.8002 H   0  0  0  0  0  0  0  0  0  0  0  0
  -58.7267  -33.0187    7.3835 H   0  0  0  0  0  0  0  0  0  0  0  0
  1  9  1  0  0  0  0
  1 19  3  0  0  0  0
  2  5  2  0  0  0  0
  2  9  1  0  0  0  0
  3  6  1  0  0  0  0
  3  9  2  0  0  0  0
  4  7  2  0  0  0  0
  4 10  1  0  0  0  0
  5 11  1  0  0  0  0
  6 11  2  0  0  0  0
  7 12  1  0  0  0  0
  8 10  2  0  0  0  0
  8 20  1  0  0  0  0
 10 18  1  0  0  0  0
 11 24  1  0  0  0  0
 12 20  2  0  0  0  0
 12 25  1  0  0  0  0
 13 15  1  0  0  0  0
 13 17  1  0  0  0  0
 14 16  1  0  0  0  0
 14 17  1  0  0  0  0
 15 21  1  0  0  0  0
 16 21  1  0  0  0  0
 17 24  1  0  0  0  0
 21 25  1  0  0  0  0
 22 25  2  0  0  0  0
 23 25  2  0  0  0  0
  2 26  1  0  0  0  0
  3 27  1  0  0  0  0
  4 28  1  0  0  0  0
  5 29  1  0  0  0  0
  6 30  1  0  0  0  0
  7 31  1  0  0  0  0
  8 32  1  0  0  0  0
 13 33  1  0  0  0  0
 13 34  1  0  0  0  0
 14 35  1  0  0  0  0
 14 36  1  0  0  0  0
 15 37  1  0  0  0  0
 15 38  1  0  0  0  0
 16 39  1  0  0  0  0
 16 40  1  0  0  0  0
 17 41  1  0  0  0  0
 18 42  1  0  0  0  0
 18 43  1  0  0  0  0
 18 44  1  0  0  0  0
M  END
> <POSIT::Probability>
0.18

> <POSIT::Method>
HYBRID

> <ReceptorTitle>
UCSF-P4409-REFINED_LIGAND-BOUND-STATE_A__DU__LA1_A-201(A)

> <OMEGA_C>
j1o9wp+a5sEAMZ4/V25Dwv7u4sGUKUZApm87wiJZ7cH8xl5A689dws+eAsJN2dZAFMtEwl/x48GT
LY5AWcw8wolb7sHte5pA7CBawg4b/cGJns9AC+pjwuIs+MF55/BAZcA+wtyi58GSYSdAr85iwkdm
AcKjzOdAVXpBwqOn6cFJ4KlATp9bwji98sEUzNlA0WhJwoIO8cFUiANBXIVJwpAG98Ea1blAZfhN
wuBQ6cF6EP1AKBNOwtwp78E0XrFAhwVGwtCi88Flod9AfNVmwvaoBcKk5e9A/zc8wkzE5cFAY+w9
129gwrwO8MFkT+pANkRRwkqm7cHJPtlAvkZYwu4/4MFIQPVALtpXwkM15MHuRKZAatFCwumk6sH5
NNRAvF1XwuGg58E2VtJAbQ5GwvB03sEkyBtAg8Y3whQP8cEut0dAM8Jcwv65BsIML89AhnFIwvlC
4MEl/plACDM6wtvQ8sHd5q9AwzdWwvHj/sGYacJAlL5nwuDI9cHIMP5AkNNGwhCn7cHKHBBBtQRL
wkeB+MGWZApBIiZLwpoV/8EXmb9ASANHwgfP98Eu9pxAI31QwmoY6MFsrAxBSERMwuqW4cFutPNA
BV9Mwhh858EiaqdAZatQwrga8sHUqpdAeTtDwjNF+sFUpudAxXFmwghRB8I+KwhBSllmwkgHCcIw
m9lAGuhqwicTBMJoRexA

> <OMEGA_E>
02eiwA==

> <OMEGA_NBR>
     27109

$$$$
CACHE3HI_1712_40
  -OEChem-03092622533D

 57 60  0     1  0  0  0  0  0999 V2000
  -47.7275  -28.7523   -0.4017 C   0  0  0  0  0  0  0  0  0  0  0  0
  -47.8442  -28.4517    2.0227 C   0  0  0  0  0  0  0  0  0  0  0  0
  -49.6431  -29.5820    0.8720 C   0  0  0  0  0  0  0  0  0  0  0  0
  -48.5108  -28.6266    3.2354 C   0  0  0  0  0  0  0  0  0  0  0  0
  -50.3097  -29.7570    2.0847 C   0  0  0  0  0  0  0  0  0  0  0  0
  -49.8280  -29.5913    5.7360 C   0  0  0  0  0  0  0  0  0  0  0  0
  -48.4104  -28.9296    0.8410 C   0  0  0  0  0  0  0  0  0  0  0  0
  -49.7435  -29.2790    3.2664 C   0  0  0  0  0  0  0  0  0  0  0  0
  -50.4256  -29.4564    4.5081 C   0  0  0  0  0  0  0  0  0  0  0  0
  -53.8673  -30.0311    8.3536 C   0  0  0  0  0  0  0  0  0  0  0  0
  -58.3351  -31.1227    7.6399 C   0  0  0  0  0  0  0  0  0  0  0  0
  -57.0513  -30.8353    8.4123 C   0  0  0  0  0  0  0  0  0  0  0  0
  -51.5091  -31.1013    8.8540 C   0  0  0  0  0  0  0  0  0  0  0  0
  -51.5698  -28.9868    9.1054 C   0  0  0  0  0  0  0  0  0  0  0  0
  -58.4443  -32.6029    7.2729 C   0  0  0  0  0  0  0  0  0  0  0  0
  -56.0305  -32.8496    7.2827 C   0  0  0  0  0  0  0  0  0  0  0  0
  -52.6241  -30.1077    9.2515 C   0  0  0  0  0  0  0  0  0  0  0  0
  -50.7513  -29.9257    8.1698 C   0  0  0  0  0  0  0  0  0  0  0  0
  -55.8401  -31.3710    7.6474 C   0  0  2  0  0  0  0  0  0  0  0  0
  -56.5188  -34.7687    4.9316 C   0  0  0  0  0  0  0  0  0  0  0  0
  -57.0990  -35.3607    7.3056 C   0  0  0  0  0  0  0  0  0  0  0  0
  -57.4111  -34.4505    6.1244 C   0  0  0  0  0  0  0  0  0  0  0  0
  -47.1730  -28.6082   -1.4110 N   0  0  0  0  0  0  0  0  0  0  0  0
  -51.7842  -29.5173    4.6484 N   0  0  0  0  0  0  0  0  0  0  0  0
  -52.0535  -29.6875    5.9382 N   0  0  0  0  0  0  0  0  0  0  0  0
  -50.8796  -29.7317    6.5888 N   0  0  0  0  0  0  0  0  0  0  0  0
  -57.2684  -33.0473    6.5125 N   0  0  1  0  0  0  0  0  0  0  0  0
  -54.6312  -31.1848    8.4147 N   0  0  0  0  0  0  0  0  0  0  0  0
  -54.1082  -29.0449    7.6615 O   0  0  0  0  0  0  0  0  0  0  0  0
  -46.8836  -27.9419    2.0148 H   0  0  0  0  0  0  0  0  0  0  0  0
  -50.0964  -29.9609   -0.0409 H   0  0  0  0  0  0  0  0  0  0  0  0
  -48.0559  -28.2494    4.1482 H   0  0  0  0  0  0  0  0  0  0  0  0
  -51.2705  -30.2664    2.0919 H   0  0  0  0  0  0  0  0  0  0  0  0
  -48.7975  -29.5995    6.0640 H   0  0  0  0  0  0  0  0  0  0  0  0
  -59.2019  -30.8258    8.2411 H   0  0  0  0  0  0  0  0  0  0  0  0
  -58.3564  -30.5148    6.7264 H   0  0  0  0  0  0  0  0  0  0  0  0
  -56.9553  -29.7554    8.5751 H   0  0  0  0  0  0  0  0  0  0  0  0
  -57.1132  -31.3088    9.4007 H   0  0  0  0  0  0  0  0  0  0  0  0
  -50.9740  -31.5717    9.6876 H   0  0  0  0  0  0  0  0  0  0  0  0
  -51.8482  -31.8948    8.1725 H   0  0  0  0  0  0  0  0  0  0  0  0
  -51.9572  -28.0765    8.6253 H   0  0  0  0  0  0  0  0  0  0  0  0
  -51.0550  -28.6955   10.0285 H   0  0  0  0  0  0  0  0  0  0  0  0
  -58.5684  -33.2006    8.1857 H   0  0  0  0  0  0  0  0  0  0  0  0
  -59.3499  -32.7387    6.6692 H   0  0  0  0  0  0  0  0  0  0  0  0
  -55.1737  -33.1734    6.6779 H   0  0  0  0  0  0  0  0  0  0  0  0
  -56.0414  -33.4647    8.1931 H   0  0  0  0  0  0  0  0  0  0  0  0
  -52.9235  -30.2395   10.3052 H   0  0  0  0  0  0  0  0  0  0  0  0
  -49.6250  -29.9213    8.4212 H   0  0  0  0  0  0  0  0  0  0  0  0
  -55.7075  -30.7862    6.7285 H   0  0  0  0  0  0  0  0  0  0  0  0
  -55.4624  -34.6413    5.1917 H   0  0  0  0  0  0  0  0  0  0  0  0
  -56.7416  -34.1070    4.0875 H   0  0  0  0  0  0  0  0  0  0  0  0
  -56.6527  -35.8035    4.5988 H   0  0  0  0  0  0  0  0  0  0  0  0
  -56.0570  -35.2514    7.6268 H   0  0  0  0  0  0  0  0  0  0  0  0
  -57.2694  -36.4102    7.0465 H   0  0  0  0  0  0  0  0  0  0  0  0
  -57.7349  -35.1153    8.1638 H   0  0  0  0  0  0  0  0  0  0  0  0
  -58.4585  -34.5871    5.8322 H   0  0  0  0  0  0  0  0  0  0  0  0
  -54.3209  -31.9539    9.0019 H   0  0  0  0  0  0  0  0  0  0  0  0
  1  7  1  0  0  0  0
  1 23  3  0  0  0  0
  2  4  2  0  0  0  0
  2  7  1  0  0  0  0
  3  5  1  0  0  0  0
  3  7  2  0  0  0  0
  4  8  1  0  0  0  0
  5  8  2  0  0  0  0
  6  9  2  0  0  0  0
  6 26  1  0  0  0  0
  8  9  1  0  0  0  0
  9 24  1  0  0  0  0
 10 17  1  0  0  0  0
 10 28  1  0  0  0  0
 10 29  2  0  0  0  0
 11 12  1  0  0  0  0
 11 15  1  0  0  0  0
 12 19  1  0  0  0  0
 13 17  1  0  0  0  0
 13 18  1  0  0  0  0
 14 17  1  0  0  0  0
 14 18  1  0  0  0  0
 15 27  1  0  0  0  0
 16 19  1  0  0  0  0
 16 27  1  0  0  0  0
 18 26  1  0  0  0  0
 19 28  1  0  0  0  0
 20 22  1  0  0  0  0
 21 22  1  0  0  0  0
 22 27  1  0  0  0  0
 24 25  2  0  0  0  0
 25 26  1  0  0  0  0
  2 30  1  0  0  0  0
  3 31  1  0  0  0  0
  4 32  1  0  0  0  0
  5 33  1  0  0  0  0
  6 34  1  0  0  0  0
 11 35  1  0  0  0  0
 11 36  1  0  0  0  0
 12 37  1  0  0  0  0
 12 38  1  0  0  0  0
 13 39  1  0  0  0  0
 13 40  1  0  0  0  0
 14 41  1  0  0  0  0
 14 42  1  0  0  0  0
 15 43  1  0  0  0  0
 15 44  1  0  0  0  0
 16 45  1  0  0  0  0
 16 46  1  0  0  0  0
 17 47  1  0  0  0  0
 18 48  1  0  0  0  0
 19 49  1  0  0  0  0
 20 50  1  0  0  0  0
 20 51  1  0  0  0  0
 20 52  1  0  0  0  0
 21 53  1  0  0  0  0
 21 54  1  0  0  0  0
 21 55  1  0  0  0  0
 22 56  1  0  0  0  0
 28 57  1  0  0  0  0
M  END
> <POSIT::Probability>
0.18

> <POSIT::Method>
HYBRID

> <ReceptorTitle>
UCSF-P4409-REFINED_LIGAND-BOUND-STATE_A__DU__LA1_A-201(A)

> <OMEGA_C>
7eg+wqEE5sEors2+eGA/wgWd48E4cwFAf5JGwgGo7ME4PV8/GwtCwkID5cGCEE9AIz1JwkIO7sGc
awVA3k9HwuS67MFbjbdASKRBwtpv58FYSVc/U/lGwmg76sF4DVFA0LNJwrGm68F1QpBAH3hXwro/
8MEvqAVBJFdpwl77+MFCevRAkDRkwsuu9sHHmAZBUAlOwo7P+MHxqQ1Be0dOwubk58GZrxFB+sZp
wldpAsK0u+hAMh9gwvZlA8L9C+lAEn9Swovc8MEaBhRBXwFLwtpn78GEtwJBO1xfwsT3+sHPt/RA
OBNiwiMTC8K1z51AbWVkwl5xDcIjx+lA9KRlwljNCcL4+sNAHrE8wp/d5MGUm7S/BCNPwogj7MGZ
v5RAxDZQwguA7cFaBb5AsYRLwmza7cE/19JA3RJlwncwBMITZtBAT4ZawnR6+cFvogZBwm5Ywu5b
6MFIK/VAy4g7wgCJ38F48gBAumJIwuWv78EArCe9RTlAwrz+4cH+vYRABBVNwpUh8sFM4gVApzBD
ws3L7MGeDMJAys5swj6b9sF82wNB6mxpwmce9MHMPtdAQ9JjwiUL7sHOMwlB6nNkwnt4+sFOaRZB
YOVLwtKS/MGOABtBmmRPwnQo/8FrwgJBKtRPwsGc4MFAAQpBTjhMwniQ5cHSdCBBFUZqwmLNBMJy
+AJBVWZtwmb0AsJzatVA1rFcwo2xBMJcsdVAcCpgwuDbBcLeFgNBprFTwoLq8cFL4iRBC4BGwtde
78EIvQZBetRewhlK9sEpUNdAfdldwreQCsKIIqZAa/diwpBtCMLVzIJAZZxiwtQ2D8IkKZNAWjpg
wnABDcLPDvRA2RNlwhakEcLKfOFAifBmwhp2DMLKngJBhNVpwjhZCsLHobpAnEhZwo2h/8HmBxBB

> <OMEGA_E>
IDfQPg==

> <OMEGA_NBR>
     28752

$$$$
CACHE3HI_1712_65
  -OEChem-03092622533D

 42 45  0     1  0  0  0  0  0999 V2000
  -56.0590  -32.8466    7.0909 C   0  0  0  0  0  0  0  0  0  0  0  0
  -55.7703  -30.7808    8.3569 C   0  0  0  0  0  0  0  0  0  0  0  0
  -54.6973  -32.8133    6.7315 C   0  0  0  0  0  0  0  0  0  0  0  0
  -54.4038  -30.7498    8.0019 C   0  0  0  0  0  0  0  0  0  0  0  0
  -49.8118  -29.4302    8.1849 C   0  0  0  0  0  0  0  0  0  0  0  0
  -56.6051  -31.8207    7.8902 C   0  0  0  0  0  0  0  0  0  0  0  0
  -53.8574  -31.7724    7.1856 C   0  0  0  0  0  0  0  0  0  0  0  0
  -50.7203  -30.1581    6.2059 C   0  0  0  0  0  0  0  0  0  0  0  0
  -51.5300  -30.8524    7.0929 C   0  0  0  0  0  0  0  0  0  0  0  0
  -49.5729  -29.3140    1.4922 C   0  0  0  0  0  0  0  0  0  0  0  0
  -50.8640  -30.1545    4.7147 C   0  0  0  0  0  0  0  0  0  0  0  0
  -50.5369  -28.8476    2.5850 C   0  0  0  0  0  0  0  0  0  0  0  0
  -47.6796  -30.1534    4.1531 C   0  0  0  0  0  0  0  0  0  0  0  0
  -47.6587  -29.0305    3.0944 C   0  0  2  0  0  0  0  0  0  0  0  0
  -48.6691  -28.9774    4.2513 C   0  0  1  0  0  0  0  0  0  0  0  0
  -58.0658  -31.8700    8.2946 C   0  0  0  0  0  0  0  0  0  0  0  0
  -47.2462  -29.8133    0.7198 C   0  0  0  0  0  0  0  0  0  0  0  0
  -49.7855  -29.3578    6.8780 N   0  0  0  0  0  0  0  0  0  0  0  0
  -48.1995  -29.4095    1.7677 N   0  0  0  0  0  0  0  0  0  0  0  0
  -50.0572  -29.3364    3.8920 N   0  0  0  0  0  0  0  0  0  0  0  0
  -52.5293  -31.7646    6.7321 N   0  0  0  0  0  0  0  0  0  0  0  0
  -50.0060  -29.4867    0.3576 O   0  0  0  0  0  0  0  0  0  0  0  0
  -51.7912  -30.7782    4.2065 O   0  0  0  0  0  0  0  0  0  0  0  0
  -51.0560  -30.5065    8.7320 S   0  0  0  0  0  0  0  0  0  0  0  0
  -56.6858  -33.6590    6.7539 H   0  0  0  0  0  0  0  0  0  0  0  0
  -56.1792  -30.0057    8.9882 H   0  0  0  0  0  0  0  0  0  0  0  0
  -54.2913  -33.5917    6.1024 H   0  0  0  0  0  0  0  0  0  0  0  0
  -53.7738  -29.9458    8.3528 H   0  0  0  0  0  0  0  0  0  0  0  0
  -49.1439  -28.8888    8.8385 H   0  0  0  0  0  0  0  0  0  0  0  0
  -50.5783  -27.7485    2.5953 H   0  0  0  0  0  0  0  0  0  0  0  0
  -51.5411  -29.2505    2.3869 H   0  0  0  0  0  0  0  0  0  0  0  0
  -48.0418  -31.1567    3.8844 H   0  0  0  0  0  0  0  0  0  0  0  0
  -46.8567  -30.2425    4.8775 H   0  0  0  0  0  0  0  0  0  0  0  0
  -46.8160  -28.3244    3.1310 H   0  0  0  0  0  0  0  0  0  0  0  0
  -48.5005  -28.2335    5.0438 H   0  0  0  0  0  0  0  0  0  0  0  0
  -58.1679  -32.4328    9.2342 H   0  0  0  0  0  0  0  0  0  0  0  0
  -58.4412  -30.8460    8.4380 H   0  0  0  0  0  0  0  0  0  0  0  0
  -58.6482  -32.3668    7.5047 H   0  0  0  0  0  0  0  0  0  0  0  0
  -46.2278  -29.8266    1.1353 H   0  0  0  0  0  0  0  0  0  0  0  0
  -47.5064  -30.8179    0.3550 H   0  0  0  0  0  0  0  0  0  0  0  0
  -47.2927  -29.0970   -0.1137 H   0  0  0  0  0  0  0  0  0  0  0  0
  -52.2705  -32.4827    6.0861 H   0  0  0  0  0  0  0  0  0  0  0  0
  1  3  2  0  0  0  0
  1  6  1  0  0  0  0
  2  4  1  0  0  0  0
  2  6  2  0  0  0  0
  3  7  1  0  0  0  0
  4  7  2  0  0  0  0
  5 18  2  0  0  0  0
  5 24  1  0  0  0  0
  6 16  1  0  0  0  0
  7 21  1  0  0  0  0
  8  9  2  0  0  0  0
  8 11  1  0  0  0  0
  8 18  1  0  0  0  0
  9 21  1  0  0  0  0
  9 24  1  0  0  0  0
 10 12  1  0  0  0  0
 10 19  1  0  0  0  0
 10 22  2  0  0  0  0
 11 20  1  0  0  0  0
 11 23  2  0  0  0  0
 12 20  1  0  0  0  0
 13 14  1  0  0  0  0
 13 15  1  0  0  0  0
 14 15  1  0  0  0  0
 14 19  1  0  0  0  0
 15 20  1  0  0  0  0
 17 19  1  0  0  0  0
  1 25  1  0  0  0  0
  2 26  1  0  0  0  0
  3 27  1  0  0  0  0
  4 28  1  0  0  0  0
  5 29  1  0  0  0  0
 12 30  1  0  0  0  0
 12 31  1  0  0  0  0
 13 32  1  0  0  0  0
 13 33  1  0  0  0  0
 14 34  1  0  0  0  0
 15 35  1  0  0  0  0
 16 36  1  0  0  0  0
 16 37  1  0  0  0  0
 16 38  1  0  0  0  0
 17 39  1  0  0  0  0
 17 40  1  0  0  0  0
 17 41  1  0  0  0  0
 21 42  1  0  0  0  0
M  END
> <POSIT::Probability>
0.42

> <POSIT::Method>
SHAPEFIT

> <ReceptorTitle>
UCSF-P4409-REFINED_LIGAND-BOUND-STATE_A__DU__LA1_A-201(A)

> <OMEGA_C>
bzxgwvViA8Jy6OJAwRRfwvs+9sG5tQVBA8pawtpAA8K/aNdAhp1Zwn3/9cHfBwBBRT9Hwg5x68Ff
9QJBo2tiwrOQ/sElfPxA/m1Xwtst/sEm8OVAm+FKwr9D8cGGlsZAxB5OwtDR9sHj+OJAm0pGwhKD
6sFv/74/sXRLwoI88cEW35ZAzCVKwvLH5sGzcCVA7rc+wi868cED5oRAi6I+wmQ+6ME2C0ZAMa1C
wsnR58HyCohAYkNowsP1/sGHtgRBH/w8wpiB7sEmRjg/XSRHwtzc6sFRGNxAP8xAwq5G68HXQuI/
mjpIwvOw6sFVF3lABh5Sws8d/sECbddAGQZIwtrk68HiF7c+JypPwts59sFXm4ZAWjlMwlQN9MET
tgtBTr5iws2iBsKlH9hAebdgwsYL8MGdzw9BUipZwuZdBsJBR8NAaRhXwvKQ78ErpQVBZJNEwjYc
58Gkag1BLVBKwtf83cEMGSZAGypOwhcB6sF0wxhAyypAwvZA+cGXmXhAOW07wp/w8cGcFJxAmkM7
wmqY4sHEYUhAfwBCwh3e4cEVZ6FA4atowia7AcI2vxNBz8NpwrDE9sHqAQdBzJdqwp13AcIoJvBA
Puk4wtyc7sHYUJE/jQY+wvuK9sGPvrU+uys9wq7G6MEY6ei9CxVRwlbuAcJ9wcJA

> <OMEGA_E>
bFKGPw==

> <OMEGA_NBR>
     30122

$$$$
CACHE3HI_1712_78
  -OEChem-03092622533D

 58 60  0     1  0  0  0  0  0999 V2000
  -46.9119  -36.3288   -1.3963 C   0  0  0  0  0  0  0  0  0  0  0  0
  -45.0106  -34.8818   -0.8742 C   0  0  0  0  0  0  0  0  0  0  0  0
  -47.2315  -34.2316   -0.1796 C   0  0  0  0  0  0  0  0  0  0  0  0
  -44.4924  -33.7192   -0.3036 C   0  0  0  0  0  0  0  0  0  0  0  0
  -46.7133  -33.0691    0.3910 C   0  0  0  0  0  0  0  0  0  0  0  0
  -46.3802  -35.1380   -0.8120 C   0  0  0  0  0  0  0  0  0  0  0  0
  -45.3436  -32.8129    0.3288 C   0  0  0  0  0  0  0  0  0  0  0  0
  -44.7929  -31.5736    0.9339 C   0  0  0  0  0  0  0  0  0  0  0  0
  -46.5151  -28.3953    1.5340 C   0  0  0  0  0  0  0  0  0  0  0  0
  -49.0326  -29.9942    6.1851 C   0  0  0  0  0  0  0  0  0  0  0  0
  -50.6406  -28.4886    5.1934 C   0  0  0  0  0  0  0  0  0  0  0  0
  -50.1777  -30.8263    6.7754 C   0  0  0  0  0  0  0  0  0  0  0  0
  -51.7838  -29.3229    5.7858 C   0  0  0  0  0  0  0  0  0  0  0  0
  -47.2090  -29.3490    3.8071 C   0  0  0  0  0  0  0  0  0  0  0  0
  -48.6326  -27.9842    2.9780 C   0  0  0  0  0  0  0  0  0  0  0  0
  -48.3667  -28.5262    4.3918 C   0  0  0  0  0  0  0  0  0  0  0  0
  -44.1882  -28.5527    0.7260 C   0  0  0  0  0  0  0  0  0  0  0  0
  -53.8976  -27.6205   10.2774 C   0  0  0  0  0  0  0  0  0  0  0  0
  -51.3195  -29.1935    8.1677 C   0  0  0  0  0  0  0  0  0  0  0  0
  -52.7122  -28.8069    8.6306 C   0  0  0  0  0  0  0  0  0  0  0  0
  -45.2702  -29.2176    1.5480 C   0  0  2  0  0  0  0  0  0  0  0  0
  -47.3439  -37.2958   -1.8709 N   0  0  0  0  0  0  0  0  0  0  0  0
  -47.3400  -28.5303    2.6168 N   0  0  0  0  0  0  0  0  0  0  0  0
  -49.4568  -29.3217    4.9519 N   0  0  0  0  0  0  0  0  0  0  0  0
  -51.4134  -30.0640    6.9981 N   0  0  0  0  0  0  0  0  0  0  0  0
  -45.6612  -30.4886    1.0113 N   0  0  0  0  0  0  0  0  0  0  0  0
  -43.6237  -31.5575    1.3094 O   0  0  0  0  0  0  0  0  0  0  0  0
  -46.7371  -27.6614    0.5764 O   0  0  0  0  0  0  0  0  0  0  0  0
  -52.6150  -27.9689    9.7752 O   0  0  0  0  0  0  0  0  0  0  0  0
  -44.3347  -35.5786   -1.3644 H   0  0  0  0  0  0  0  0  0  0  0  0
  -48.3015  -34.4177   -0.1236 H   0  0  0  0  0  0  0  0  0  0  0  0
  -43.4237  -33.5279   -0.3581 H   0  0  0  0  0  0  0  0  0  0  0  0
  -47.3861  -32.3694    0.8806 H   0  0  0  0  0  0  0  0  0  0  0  0
  -48.6857  -29.2669    6.9320 H   0  0  0  0  0  0  0  0  0  0  0  0
  -48.1922  -30.6652    5.9702 H   0  0  0  0  0  0  0  0  0  0  0  0
  -50.9847  -28.0515    4.2484 H   0  0  0  0  0  0  0  0  0  0  0  0
  -50.4058  -27.6564    5.8712 H   0  0  0  0  0  0  0  0  0  0  0  0
  -50.3733  -31.7003    6.1164 H   0  0  0  0  0  0  0  0  0  0  0  0
  -49.8300  -31.2531    7.7385 H   0  0  0  0  0  0  0  0  0  0  0  0
  -52.6248  -28.6370    6.0158 H   0  0  0  0  0  0  0  0  0  0  0  0
  -52.1707  -30.0174    5.0085 H   0  0  0  0  0  0  0  0  0  0  0  0
  -46.2509  -29.2218    4.3185 H   0  0  0  0  0  0  0  0  0  0  0  0
  -47.3850  -30.4097    3.6014 H   0  0  0  0  0  0  0  0  0  0  0  0
  -49.4492  -28.4333    2.4038 H   0  0  0  0  0  0  0  0  0  0  0  0
  -48.6843  -26.8940    2.9118 H   0  0  0  0  0  0  0  0  0  0  0  0
  -47.9911  -27.7063    5.1053 H   0  0  0  0  0  0  0  0  0  0  0  0
  -44.5224  -28.4177   -0.3086 H   0  0  0  0  0  0  0  0  0  0  0  0
  -43.2743  -29.1566    0.7154 H   0  0  0  0  0  0  0  0  0  0  0  0
  -43.9281  -27.5642    1.1216 H   0  0  0  0  0  0  0  0  0  0  0  0
  -53.7846  -26.9779   11.1544 H   0  0  0  0  0  0  0  0  0  0  0  0
  -54.4488  -27.0823    9.5026 H   0  0  0  0  0  0  0  0  0  0  0  0
  -54.4435  -28.5280   10.5456 H   0  0  0  0  0  0  0  0  0  0  0  0
  -50.7883  -29.7343    8.9568 H   0  0  0  0  0  0  0  0  0  0  0  0
  -50.7398  -28.3085    7.8878 H   0  0  0  0  0  0  0  0  0  0  0  0
  -53.2640  -28.2736    7.8496 H   0  0  0  0  0  0  0  0  0  0  0  0
  -53.2738  -29.7021    8.9146 H   0  0  0  0  0  0  0  0  0  0  0  0
  -44.9603  -29.3626    2.5827 H   0  0  0  0  0  0  0  0  0  0  0  0
  -46.5987  -30.5678    0.6183 H   0  0  0  0  0  0  0  0  0  0  0  0
  1  6  1  0  0  0  0
  1 22  3  0  0  0  0
  2  4  2  0  0  0  0
  2  6  1  0  0  0  0
  3  5  1  0  0  0  0
  3  6  2  0  0  0  0
  4  7  1  0  0  0  0
  5  7  2  0  0  0  0
  7  8  1  0  0  0  0
  8 26  1  0  0  0  0
  8 27  2  0  0  0  0
  9 21  1  0  0  0  0
  9 23  1  0  0  0  0
  9 28  2  0  0  0  0
 10 12  1  0  0  0  0
 10 24  1  0  0  0  0
 11 13  1  0  0  0  0
 11 24  1  0  0  0  0
 12 25  1  0  0  0  0
 13 25  1  0  0  0  0
 14 16  1  0  0  0  0
 14 23  1  0  0  0  0
 15 16  1  0  0  0  0
 15 23  1  0  0  0  0
 16 24  1  0  0  0  0
 17 21  1  0  0  0  0
 18 29  1  0  0  0  0
 19 20  1  0  0  0  0
 19 25  1  0  0  0  0
 20 29  1  0  0  0  0
 21 26  1  0  0  0  0
  2 30  1  0  0  0  0
  3 31  1  0  0  0  0
  4 32  1  0  0  0  0
  5 33  1  0  0  0  0
 10 34  1  0  0  0  0
 10 35  1  0  0  0  0
 11 36  1  0  0  0  0
 11 37  1  0  0  0  0
 12 38  1  0  0  0  0
 12 39  1  0  0  0  0
 13 40  1  0  0  0  0
 13 41  1  0  0  0  0
 14 42  1  0  0  0  0
 14 43  1  0  0  0  0
 15 44  1  0  0  0  0
 15 45  1  0  0  0  0
 16 46  1  0  0  0  0
 17 47  1  0  0  0  0
 17 48  1  0  0  0  0
 17 49  1  0  0  0  0
 18 50  1  0  0  0  0
 18 51  1  0  0  0  0
 18 52  1  0  0  0  0
 19 53  1  0  0  0  0
 19 54  1  0  0  0  0
 20 55  1  0  0  0  0
 20 56  1  0  0  0  0
 21 57  1  0  0  0  0
 26 58  1  0  0  0  0
M  END
> <POSIT::Probability>
0.05

> <POSIT::Method>
FRED

> <ReceptorTitle>
UCSF-P4409-REFINED_LIGAND-BOUND-STATE_A__DU__LA1_A-201(A)

> <OMEGA_C>
0qU7wrBQEcKSurK/1Ao0wv2GC8I+yV+/Au08wiztCMIQ3ze+Pvgxwn/gBsJQa5u+eNo6wrZGBMKA
Nsg+XIU5wkmNDMLE3E+/4181wmFAA8KwXqg+6iszwquW/MGcE28/cQ86wpEp48F4WsQ/XSFEwir0
78Gg7MVABZBKwrLo48GxMKZA/7VIwkKc9sFO0NhAoyJPwjyV6sEYJblAAtY8wsfK6sEUp3NAzodC
wq7f38H5lj5Af3dBwpM15MFDiYxAssAwwuNr5MFw3Dk/H5dXwtL23MFScCRBJEdNwkiM6cEGrwJB
UNlSwot05sEjFwpBthQ1wpS96cH4JcY/IGA9wuMuFcKYee+/M1w9wh8+5MEVeSdAz9NFwtuS6sGa
dZ5AV6dNwh6D8MGA8N9ACaU2wqHo88Gqc4E/pX4uwqp1/MFIm6c/wvI6wpNK3cFYkBM/wnVSwkLA
38FcZxxBs1YxwoNQDsINpq6/uzRBwr6rCcLAKv2967EtwpMcBsJwWre+W4s9wkV6AcKgbWE/K75C
wpUi6sG20t1AycRAwmlS9cEYDL9AXPBLwopp4MHH8odAkp9JwmJA3cEm4btAP35JwlGa/cGZucNA
6FFHwmcG+sHrofdA039SwoYY5cFcgcBAxa5Qwo8j8MFWRaBA4AA5wj3G6cFUMYpARoo9wgJH88Ht
fWZACMxFwnV348FQ1xlAubxCwgAn18GcWzpA3/Y/wnOm3cH0XqNA6BYywoNX48GoAJ6+5hgtwr1A
6cHQJTc/YbYvwnuD3MHOj48/cyNXwqnS18FoeDJBkMtZwoeo2MGNChhBKcZZwkE55MG3uihBNSdL
wuTf7cENTw9Bk/VKwst34sE0afxAUQ5Vwmsw4sE+MPtAaxhVwuyd7cESog5BX9czwo3m6sF+SiVA
EWU6wteK9MEgSB4/

> <OMEGA_E>
7QK+wA==

> <OMEGA_NBR>
     31774

$$$$
CACHE3HI_1718_50
  -OEChem-03092622533D

 44 45  0     1  0  0  0  0  0999 V2000
  -53.7774  -28.7523    7.0735 C   0  0  0  0  0  0  0  0  0  0  0  0
  -52.4610  -29.3312    6.7888 C   0  0  0  0  0  0  0  0  0  0  0  0
  -51.7106  -29.6514    7.8413 C   0  0  0  0  0  0  0  0  0  0  0  0
  -53.4545  -28.8746    9.3508 C   0  0  0  0  0  0  0  0  0  0  0  0
  -44.4389  -30.1310    3.0690 C   0  0  0  0  0  0  0  0  0  0  0  0
  -47.8950  -29.4444    6.4712 C   0  0  0  0  0  0  0  0  0  0  0  0
  -48.1294  -31.1475    3.3167 C   0  0  0  0  0  0  0  0  0  0  0  0
  -46.7620  -30.9063    2.6814 C   0  0  0  0  0  0  0  0  0  0  0  0
  -48.5769  -29.9499    4.1491 C   0  0  0  0  0  0  0  0  0  0  0  0
  -46.2247  -29.3026    4.5596 C   0  0  0  0  0  0  0  0  0  0  0  0
  -45.7319  -30.4928    3.7340 C   0  0  2  0  0  0  0  0  0  0  0  0
  -43.0612  -30.4047    0.2593 C   0  0  0  0  0  0  0  0  0  0  0  0
  -49.3440  -27.7216    7.5674 C   0  0  0  0  0  0  0  0  0  0  0  0
  -43.5365  -29.2255    1.0812 C   0  0  0  0  0  0  0  0  0  0  0  0
  -49.3095  -29.0163    6.7722 C   0  0  2  0  0  0  0  0  0  0  0  0
  -54.2452  -28.5377    8.2611 N   0  0  0  0  0  0  0  0  0  0  0  0
  -52.1959  -29.4283    9.1046 N   0  0  0  0  0  0  0  0  0  0  0  0
  -47.5529  -29.5716    5.1248 N   0  0  0  0  0  0  0  0  0  0  0  0
  -53.8366  -28.6988   10.5088 O   0  0  0  0  0  0  0  0  0  0  0  0
  -43.3387  -30.2854    3.5807 O   0  0  0  0  0  0  0  0  0  0  0  0
  -47.1179  -29.6571    7.4057 O   0  0  0  0  0  0  0  0  0  0  0  0
  -44.6910  -29.6156    1.8320 O   0  0  0  0  0  0  0  0  0  0  0  0
  -52.1143  -29.4929    5.5017 F   0  0  0  0  0  0  0  0  0  0  0  0
  -50.1412  -30.3391    7.7011 S   0  0  0  0  0  0  0  0  0  0  0  0
  -54.3889  -28.4941    6.1949 H   0  0  0  0  0  0  0  0  0  0  0  0
  -48.8684  -31.3502    2.5335 H   0  0  0  0  0  0  0  0  0  0  0  0
  -48.0854  -32.0392    3.9541 H   0  0  0  0  0  0  0  0  0  0  0  0
  -46.4292  -31.8134    2.1624 H   0  0  0  0  0  0  0  0  0  0  0  0
  -46.8506  -30.1262    1.9137 H   0  0  0  0  0  0  0  0  0  0  0  0
  -48.7475  -29.0795    3.5043 H   0  0  0  0  0  0  0  0  0  0  0  0
  -49.5253  -30.1789    4.6454 H   0  0  0  0  0  0  0  0  0  0  0  0
  -45.4913  -29.0623    5.3326 H   0  0  0  0  0  0  0  0  0  0  0  0
  -46.3206  -28.4058    3.9340 H   0  0  0  0  0  0  0  0  0  0  0  0
  -45.5296  -31.3388    4.4032 H   0  0  0  0  0  0  0  0  0  0  0  0
  -42.7906  -31.2460    0.9036 H   0  0  0  0  0  0  0  0  0  0  0  0
  -43.8412  -30.7290   -0.4371 H   0  0  0  0  0  0  0  0  0  0  0  0
  -42.1909  -30.1278   -0.3442 H   0  0  0  0  0  0  0  0  0  0  0  0
  -48.8252  -27.8400    8.5253 H   0  0  0  0  0  0  0  0  0  0  0  0
  -48.8370  -26.9170    7.0220 H   0  0  0  0  0  0  0  0  0  0  0  0
  -50.3675  -27.3846    7.7705 H   0  0  0  0  0  0  0  0  0  0  0  0
  -43.8054  -28.3878    0.4311 H   0  0  0  0  0  0  0  0  0  0  0  0
  -42.7563  -28.9027    1.7775 H   0  0  0  0  0  0  0  0  0  0  0  0
  -49.8295  -28.8806    5.8234 H   0  0  0  0  0  0  0  0  0  0  0  0
  -51.6080  -29.6805    9.8927 H   0  0  0  0  0  0  0  0  0  0  0  0
  1  2  1  0  0  0  0
  1 16  2  0  0  0  0
  2  3  2  0  0  0  0
  2 23  1  0  0  0  0
  3 17  1  0  0  0  0
  3 24  1  0  0  0  0
  4 16  1  0  0  0  0
  4 17  1  0  0  0  0
  4 19  2  0  0  0  0
  5 11  1  0  0  0  0
  5 20  2  0  0  0  0
  5 22  1  0  0  0  0
  6 15  1  0  0  0  0
  6 18  1  0  0  0  0
  6 21  2  0  0  0  0
  7  8  1  0  0  0  0
  7  9  1  0  0  0  0
  8 11  1  0  0  0  0
  9 18  1  0  0  0  0
 10 11  1  0  0  0  0
 10 18  1  0  0  0  0
 12 14  1  0  0  0  0
 13 15  1  0  0  0  0
 14 22  1  0  0  0  0
 15 24  1  0  0  0  0
  1 25  1  0  0  0  0
  7 26  1  0  0  0  0
  7 27  1  0  0  0  0
  8 28  1  0  0  0  0
  8 29  1  0  0  0  0
  9 30  1  0  0  0  0
  9 31  1  0  0  0  0
 10 32  1  0  0  0  0
 10 33  1  0  0  0  0
 11 34  1  0  0  0  0
 12 35  1  0  0  0  0
 12 36  1  0  0  0  0
 12 37  1  0  0  0  0
 13 38  1  0  0  0  0
 13 39  1  0  0  0  0
 13 40  1  0  0  0  0
 14 41  1  0  0  0  0
 14 42  1  0  0  0  0
 15 43  1  0  0  0  0
 17 44  1  0  0  0  0
M  END
> <POSIT::Probability>
0.05

> <POSIT::Method>
FRED

> <ReceptorTitle>
UCSF-P4409-REFINED_LIGAND-BOUND-STATE_A__DU__LA1_A-201(A)

> <OMEGA_C>
CxxXwsIE5sF/WuJACdhRwkKm6sEEPtlAm9dOwgA27cE27PpAYtFVwjb/5sG3nBVBccExwj0M8cFs
akRAepQ/wjCO68H4E89AiIRAwv4t+cHsRFRARgw7wiRA98FImytAwk5CwmaZ78FoxYRAFuY4wqJr
6sE86JFAc+02wkTx88HA+W5Aoj4swrs888EgxYQ+PGBFwtjF3cFGKPJAayUuwszN6cGYY4o/4TxF
wnIh6MEAtthACvtYwjVN5MFbLQRBpchQwhpt68FurBFBNjY+wpKS7MFL/qNApVhXwiSX5cElJChB
zlotwmdI8sFYKmVAuHg8ws1B7cE1++xAicMywq7s7MEIf+o/D3VQwoLx68EGDrBAkpBIwnC28sEX
b/ZAMI5ZwvPz48E/PMZAOHlDwkDN+sEoJCJAdldAwigoAMJgEH1Agrc5wtOB/sGYZApA/2Y7wncC
8cEg8/Q/cP1Cwt6i6MH8RWBA5RlGwmBu8cHIppRAEvc1wpV/6MHhpKpATkg5whg/48GwxntARh42
wsa1+sHg5oxAmykrwrf3+cGQVGc/WF0vwvvU9cEgz9++csMowrkF8cEAPrC+CE1Dwky43sGoZwhB
IllDwhFW18EZtOBAXHhJwpIT28ELqPhAwjgvwkQa48HAs9w+aAYrwrs458Ggg+M/XlFHwoIL58FB
WbpAjG5Owrhx7cFvSB5B

> <OMEGA_E>
RZADwQ==

> <OMEGA_NBR>
     33148

$$$$
CACHE3HI_1718_82
  -OEChem-03092622533D

 58 61  0     0  0  0  0  0  0999 V2000
  -52.4964  -30.7191    3.6612 C   0  0  0  0  0  0  0  0  0  0  0  0
  -51.6323  -31.6927    3.1601 C   0  0  0  0  0  0  0  0  0  0  0  0
  -52.3256  -29.3829    3.2992 C   0  0  0  0  0  0  0  0  0  0  0  0
  -43.2983  -29.8061    0.9313 C   0  0  0  0  0  0  0  0  0  0  0  0
  -50.5979  -31.3305    2.2971 C   0  0  0  0  0  0  0  0  0  0  0  0
  -51.2912  -29.0207    2.4362 C   0  0  0  0  0  0  0  0  0  0  0  0
  -49.3614  -30.9134    6.9156 C   0  0  0  0  0  0  0  0  0  0  0  0
  -50.2324  -28.7377    6.3279 C   0  0  0  0  0  0  0  0  0  0  0  0
  -50.1183  -30.8992    8.0872 C   0  0  0  0  0  0  0  0  0  0  0  0
  -50.9893  -28.7235    7.4995 C   0  0  0  0  0  0  0  0  0  0  0  0
  -44.0986  -29.1390    1.9034 C   0  0  0  0  0  0  0  0  0  0  0  0
  -43.8982  -30.9564    0.4682 C   0  0  0  0  0  0  0  0  0  0  0  0
  -50.4271  -29.9943    1.9351 C   0  0  0  0  0  0  0  0  0  0  0  0
  -49.4187  -29.8325    6.0359 C   0  0  0  0  0  0  0  0  0  0  0  0
  -50.9321  -29.8044    8.3792 C   0  0  0  0  0  0  0  0  0  0  0  0
  -45.2800  -29.8054    2.1461 C   0  0  0  0  0  0  0  0  0  0  0  0
  -49.3571  -29.6198    1.0429 C   0  0  0  0  0  0  0  0  0  0  0  0
  -46.3646  -29.4430    3.0708 C   0  0  0  0  0  0  0  0  0  0  0  0
  -47.6509  -29.2131    2.7346 C   0  0  0  0  0  0  0  0  0  0  0  0
  -48.5758  -28.8549    3.8757 C   0  0  0  0  0  0  0  0  0  0  0  0
  -52.5618  -28.7879   10.0197 C   0  0  0  0  0  0  0  0  0  0  0  0
  -55.2916  -25.5902   12.1226 C   0  0  0  0  0  0  0  0  0  0  0  0
  -54.0690  -28.3237   11.9642 C   0  0  0  0  0  0  0  0  0  0  0  0
  -53.4171  -26.9964   12.3056 C   0  0  0  0  0  0  0  0  0  0  0  0
  -49.4262  -29.5619   -0.2672 N   0  0  0  0  0  0  0  0  0  0  0  0
  -48.1766  -29.1636   -0.6875 N   0  0  0  0  0  0  0  0  0  0  0  0
  -47.3620  -28.9819    0.3448 N   0  0  0  0  0  0  0  0  0  0  0  0
  -48.1020  -29.2678    1.4251 N   0  0  0  0  0  0  0  0  0  0  0  0
  -48.6505  -29.8470    4.8452 N   0  0  0  0  0  0  0  0  0  0  0  0
  -51.6884  -29.7906    9.5515 N   0  0  0  0  0  0  0  0  0  0  0  0
  -53.1321  -29.1553   11.2429 N   0  0  0  0  0  0  0  0  0  0  0  0
  -49.1631  -27.7758    3.8826 O   0  0  0  0  0  0  0  0  0  0  0  0
  -52.8097  -27.7257    9.4542 O   0  0  0  0  0  0  0  0  0  0  0  0
  -54.3464  -26.1786   13.0052 O   0  0  0  0  0  0  0  0  0  0  0  0
  -45.4205  -31.2286    1.2041 S   0  0  0  0  0  0  0  0  0  0  0  0
  -53.3013  -31.0007    4.3336 H   0  0  0  0  0  0  0  0  0  0  0  0
  -51.7656  -32.7333    3.4410 H   0  0  0  0  0  0  0  0  0  0  0  0
  -52.9982  -28.6250    3.6900 H   0  0  0  0  0  0  0  0  0  0  0  0
  -42.3310  -29.4606    0.5907 H   0  0  0  0  0  0  0  0  0  0  0  0
  -49.9323  -32.1012    1.9156 H   0  0  0  0  0  0  0  0  0  0  0  0
  -51.1720  -27.9746    2.1635 H   0  0  0  0  0  0  0  0  0  0  0  0
  -48.7318  -31.7723    6.6975 H   0  0  0  0  0  0  0  0  0  0  0  0
  -50.2838  -27.8892    5.6505 H   0  0  0  0  0  0  0  0  0  0  0  0
  -50.0664  -31.7472    8.7653 H   0  0  0  0  0  0  0  0  0  0  0  0
  -51.6201  -27.8652    7.7167 H   0  0  0  0  0  0  0  0  0  0  0  0
  -43.8139  -28.2170    2.3952 H   0  0  0  0  0  0  0  0  0  0  0  0
  -43.5153  -31.6506   -0.2664 H   0  0  0  0  0  0  0  0  0  0  0  0
  -46.0414  -29.3832    4.1082 H   0  0  0  0  0  0  0  0  0  0  0  0
  -55.9880  -24.9704   12.6932 H   0  0  0  0  0  0  0  0  0  0  0  0
  -54.7618  -24.9669   11.3982 H   0  0  0  0  0  0  0  0  0  0  0  0
  -55.8360  -26.3761   11.5939 H   0  0  0  0  0  0  0  0  0  0  0  0
  -54.9485  -28.1688   11.3318 H   0  0  0  0  0  0  0  0  0  0  0  0
  -54.3698  -28.8573   12.8710 H   0  0  0  0  0  0  0  0  0  0  0  0
  -52.5277  -27.1319   12.9297 H   0  0  0  0  0  0  0  0  0  0  0  0
  -53.1312  -26.4732   11.3880 H   0  0  0  0  0  0  0  0  0  0  0  0
  -48.0896  -30.6856    4.7183 H   0  0  0  0  0  0  0  0  0  0  0  0
  -51.5970  -30.6181   10.1511 H   0  0  0  0  0  0  0  0  0  0  0  0
  -52.9054  -30.0648   11.6332 H   0  0  0  0  0  0  0  0  0  0  0  0
  1  2  1  0  0  0  0
  1  3  2  0  0  0  0
  2  5  2  0  0  0  0
  3  6  1  0  0  0  0
  4 11  1  0  0  0  0
  4 12  2  0  0  0  0
  5 13  1  0  0  0  0
  6 13  2  0  0  0  0
  7  9  2  0  0  0  0
  7 14  1  0  0  0  0
  8 10  1  0  0  0  0
  8 14  2  0  0  0  0
  9 15  1  0  0  0  0
 10 15  2  0  0  0  0
 11 16  2  0  0  0  0
 12 35  1  0  0  0  0
 13 17  1  0  0  0  0
 14 29  1  0  0  0  0
 15 30  1  0  0  0  0
 16 18  1  0  0  0  0
 16 35  1  0  0  0  0
 17 25  2  0  0  0  0
 17 28  1  0  0  0  0
 18 19  2  0  0  0  0
 19 20  1  0  0  0  0
 19 28  1  0  0  0  0
 20 29  1  0  0  0  0
 20 32  2  0  0  0  0
 21 30  1  0  0  0  0
 21 31  1  0  0  0  0
 21 33  2  0  0  0  0
 22 34  1  0  0  0  0
 23 24  1  0  0  0  0
 23 31  1  0  0  0  0
 24 34  1  0  0  0  0
 25 26  1  0  0  0  0
 26 27  2  0  0  0  0
 27 28  1  0  0  0  0
  1 36  1  0  0  0  0
  2 37  1  0  0  0  0
  3 38  1  0  0  0  0
  4 39  1  0  0  0  0
  5 40  1  0  0  0  0
  6 41  1  0  0  0  0
  7 42  1  0  0  0  0
  8 43  1  0  0  0  0
  9 44  1  0  0  0  0
 10 45  1  0  0  0  0
 11 46  1  0  0  0  0
 12 47  1  0  0  0  0
 18 48  1  0  0  0  0
 22 49  1  0  0  0  0
 22 50  1  0  0  0  0
 22 51  1  0  0  0  0
 23 52  1  0  0  0  0
 23 53  1  0  0  0  0
 24 54  1  0  0  0  0
 24 55  1  0  0  0  0
 29 56  1  0  0  0  0
 30 57  1  0  0  0  0
 31 58  1  0  0  0  0
M  END
> <POSIT::Probability>
0.24

> <POSIT::Method>
FRED

> <ReceptorTitle>
UCSF-P4409-REFINED_LIGAND-BOUND-STATE_A__DU__LA1_A-201(A)

> <OMEGA_C>
TPxRwqjA9cFMUGpAfodOwriK/cGKPkpAZU1Rwj8Q68FAJlNAczEtwvty7sFIam4/QmRKwtCk+sE6
AxNAKSpNwlgq6MHs6htAGHJFwp5O98G0TN1A8+1Iws3m5cF6fspAL3lIwqcx98EYZQFBBvVLwsbJ
5cGM++9A62QwwqEc6cHAo/M/tpcvws+m98HgtO8+XrVJwkj078Fosvc/s6xFwvOo7sFaJsFAb7pL
woFv7sEpEQZBxB41wm5x7sHoWAlAs21FwnP17MF4fIU/TXU5wk2L68Fgh0RAgJo+wlS06cF6BC9A
kk1CwsfW5sHMCnhAVT9SwoZN5sHeUCBBlypdws+4zMEc9kFBtEZYwgqX4sFEbT9BHKtVwpn418Gz
40RBebRFwtN+7MFgzYi+4rRAwvhO6cFQ/S+/vHI9wvTa58Fgi7A+b2hAwmMk6sH8aLY/IppCwrjG
7sHsC5tA4sBOwiZT7sHm0hhBRodUwhY+6cHM4jNB+KZEwsY03sEkfHhAJT1TwkPO3cE8RBdBwWJZ
wuBt0cFWFVBBjq41whvU+cHYIJo/hjRVwmsB+MEerYpA/A9Pwu/uAsKaOFxAH/5TwhAA5cG8KGxA
/FIpwkuv68GQNRc/sLpHwqVnAMIoM/U/ILBMwgrM38F0dwpAYe1Cwrkt/sEgUtZAlyJJwgId38FF
0bRABERIwlv6/cGlPgxB9XpOwgDs3sF67/ZAckEvwmS84cHESxlAng8uwls0/cHgZoi+bCo4wrsQ
68EkdoNAwvNfwkzDx8EvF0tBEwxbwj68x8EqXzZBBFhfwjUC08GEgDlBP8tbwsNZ4cElTzVBuHpZ
wtDb5sG8701BaBxSwgoO2cHm305BV4ZUwiLJ08FANTZByltAwi589cFt/JZASGNOwuvx9MHQaiJB
FZ9TwqqE8MGeITpB

> <OMEGA_E>
ADHKwA==

> <OMEGA_NBR>
     34800

$$$$
CACHE3HI_1879_49
  -OEChem-03092622533D

 40 42  0     0  0  0  0  0  0999 V2000
  -54.9443  -32.9510    6.8487 C   0  0  0  0  0  0  0  0  0  0  0  0
  -55.6451  -31.0515    8.1714 C   0  0  0  0  0  0  0  0  0  0  0  0
  -56.1319  -33.6087    7.2251 C   0  0  0  0  0  0  0  0  0  0  0  0
  -50.8454  -29.6003    6.1188 C   0  0  0  0  0  0  0  0  0  0  0  0
  -48.9789  -29.9720    7.3778 C   0  0  0  0  0  0  0  0  0  0  0  0
  -54.7116  -31.6454    7.3122 C   0  0  0  0  0  0  0  0  0  0  0  0
  -51.1609  -30.3722    7.2150 C   0  0  0  0  0  0  0  0  0  0  0  0
  -56.8098  -31.7675    8.5121 C   0  0  0  0  0  0  0  0  0  0  0  0
  -53.5597  -30.8857    6.8455 C   0  0  0  0  0  0  0  0  0  0  0  0
  -49.0420  -29.3263    1.7890 C   0  0  0  0  0  0  0  0  0  0  0  0
  -47.9551  -28.7706    2.7241 C   0  0  0  0  0  0  0  0  0  0  0  0
  -49.9801  -29.2276    3.0024 C   0  0  0  0  0  0  0  0  0  0  0  0
  -48.7193  -29.4674    3.8676 C   0  0  0  0  0  0  0  0  0  0  0  0
  -48.6776  -28.7251    5.2202 C   0  0  0  0  0  0  0  0  0  0  0  0
  -57.0394  -33.0144    8.0334 N   0  0  0  0  0  0  0  0  0  0  0  0
  -49.9939  -30.5487    7.9806 N   0  0  0  0  0  0  0  0  0  0  0  0
  -49.4992  -29.4163    6.2369 N   0  0  0  0  0  0  0  0  0  0  0  0
  -57.3279  -31.3557   11.2375 N   0  0  0  0  0  0  0  0  0  0  0  0
  -52.3751  -30.9594    7.5688 N   0  0  0  0  0  0  0  0  0  0  0  0
  -53.6884  -30.1890    5.8456 O   0  0  0  0  0  0  0  0  0  0  0  0
  -59.2231  -31.8271    9.5700 O   0  0  0  0  0  0  0  0  0  0  0  0
  -57.9746  -29.6004    9.4800 O   0  0  0  0  0  0  0  0  0  0  0  0
  -57.9767  -31.0567    9.6795 S   0  0  0  0  0  0  0  0  0  0  0  0
  -54.2232  -33.4434    6.2130 H   0  0  0  0  0  0  0  0  0  0  0  0
  -55.4748  -30.0608    8.5663 H   0  0  0  0  0  0  0  0  0  0  0  0
  -56.3216  -34.6076    6.8610 H   0  0  0  0  0  0  0  0  0  0  0  0
  -51.5062  -29.2294    5.3493 H   0  0  0  0  0  0  0  0  0  0  0  0
  -47.9518  -29.9419    7.7104 H   0  0  0  0  0  0  0  0  0  0  0  0
  -49.3056  -28.6742    0.9433 H   0  0  0  0  0  0  0  0  0  0  0  0
  -48.8621  -30.3476    1.4222 H   0  0  0  0  0  0  0  0  0  0  0  0
  -46.9427  -29.1594    2.5397 H   0  0  0  0  0  0  0  0  0  0  0  0
  -47.9197  -27.6733    2.7922 H   0  0  0  0  0  0  0  0  0  0  0  0
  -50.4575  -28.2463    3.1407 H   0  0  0  0  0  0  0  0  0  0  0  0
  -50.7423  -30.0182    3.0647 H   0  0  0  0  0  0  0  0  0  0  0  0
  -48.4659  -30.5337    3.9604 H   0  0  0  0  0  0  0  0  0  0  0  0
  -47.6363  -28.6788    5.5717 H   0  0  0  0  0  0  0  0  0  0  0  0
  -49.0634  -27.7044    5.0810 H   0  0  0  0  0  0  0  0  0  0  0  0
  -57.9405  -30.9789   11.9322 H   0  0  0  0  0  0  0  0  0  0  0  0
  -57.2338  -32.3417   11.3756 H   0  0  0  0  0  0  0  0  0  0  0  0
  -52.3955  -31.4817    8.4213 H   0  0  0  0  0  0  0  0  0  0  0  0
  1  3  1  0  0  0  0
  1  6  2  0  0  0  0
  2  6  1  0  0  0  0
  2  8  2  0  0  0  0
  3 15  2  0  0  0  0
  4  7  2  0  0  0  0
  4 17  1  0  0  0  0
  5 16  2  0  0  0  0
  5 17  1  0  0  0  0
  6  9  1  0  0  0  0
  7 16  1  0  0  0  0
  7 19  1  0  0  0  0
  8 15  1  0  0  0  0
  8 23  1  0  0  0  0
  9 19  1  0  0  0  0
  9 20  2  0  0  0  0
 10 11  1  0  0  0  0
 10 12  1  0  0  0  0
 11 13  1  0  0  0  0
 12 13  1  0  0  0  0
 13 14  1  0  0  0  0
 14 17  1  0  0  0  0
 18 23  1  0  0  0  0
 21 23  2  0  0  0  0
 22 23  2  0  0  0  0
  1 24  1  0  0  0  0
  2 25  1  0  0  0  0
  3 26  1  0  0  0  0
  4 27  1  0  0  0  0
  5 28  1  0  0  0  0
 10 29  1  0  0  0  0
 10 30  1  0  0  0  0
 11 31  1  0  0  0  0
 11 32  1  0  0  0  0
 12 33  1  0  0  0  0
 12 34  1  0  0  0  0
 13 35  1  0  0  0  0
 14 36  1  0  0  0  0
 14 37  1  0  0  0  0
 18 38  1  0  0  0  0
 18 39  1  0  0  0  0
 19 40  1  0  0  0  0
M  END
> <POSIT::Probability>
0.42

> <POSIT::Method>
SHAPEFIT

> <ReceptorTitle>
UCSF-P4409-REFINED_LIGAND-BOUND-STATE_A__DU__LA1_A-201(A)

> <OMEGA_C>
88Zbwt7NA8IuKNtAmZRewnhp+MH9vQJBBodgwkpvBsL0M+dApmFLwn7N7MEozcNAWOpDwq3G78Ei
F+xAtthawtIp/cFi/elAzKRMwkX68sGa4eZAPj1jwuoj/sFeMQhBIT1WwuIV98GMDttAAStEwkSc
6sHq/OQ//9E/wjoq5sHhVy5Ak+tHwhXS6cFtJ0BAjeBCwiW968E9h3dA47VCwhrN5cGUC6dAYyhk
wsUOBMKpiABByPlHwrlj9MFKYf9ALv9Fwo1U68GqlMdAuE9lwo3Y+sG/zDNBGYBRwuys98FCM/JA
+cBWwhaD8cEiD7tAfORswv6d/sGPHhlB9OVnwp7N7MH6rRdBGOhnwg50+MEk3xpBk+RYwgfGBcLl
0MZANuZdwot88MF4DwlBWElhwi5uCsJqjdtAXgZOws3V6cG8LatAn84/wg2J78G3u/ZA6ThFwqtk
5cFEeXE/zHJDwvvH8sHRC7Y/WMU7wl1G6cH3iSJAyq0/wuli3cE6szJAdNRJwmL44cEYAUlAHPhK
wlAl8MGKI0RAE91BwhxF9MFSd31Anos+wkZu5cGMS7JA4kBEwrSi3cFZl6JAHcNnwtDU98FC6j5B
Xe9kwt9dAcKLAjZB8pRRwpna+8GKvQZB

> <OMEGA_E>
a0SLPw==

> <OMEGA_NBR>
     36120

$$$$
CACHE3-HO_1700_26
  -OEChem-03092622513D

 32 34  0     0  0  0  0  0  0999 V2000
  -51.1985  -29.7974    4.8466 C   0  0  0  0  0  0  0  0  0  0  0  0
  -51.6252  -29.5789    6.1562 C   0  0  0  0  0  0  0  0  0  0  0  0
  -47.5516  -29.2212    5.1589 C   0  0  0  0  0  0  0  0  0  0  0  0
  -49.3482  -29.1186    6.8237 C   0  0  0  0  0  0  0  0  0  0  0  0
  -47.1892  -29.4508    3.8397 C   0  0  0  0  0  0  0  0  0  0  0  0
  -49.3578  -29.8860    3.2202 C   0  0  0  0  0  0  0  0  0  0  0  0
  -51.8746  -29.1704   11.2837 C   0  0  0  0  0  0  0  0  0  0  0  0
  -53.1280  -27.6958   12.4108 C   0  0  0  0  0  0  0  0  0  0  0  0
  -49.8391  -29.6781    4.5142 C   0  0  0  0  0  0  0  0  0  0  0  0
  -48.9015  -29.3354    5.5100 C   0  0  0  0  0  0  0  0  0  0  0  0
  -52.5191  -28.3832   10.3548 C   0  0  0  0  0  0  0  0  0  0  0  0
  -53.3118  -27.4502   11.0680 C   0  0  0  0  0  0  0  0  0  0  0  0
  -50.7011  -29.2399    7.1421 C   0  0  0  0  0  0  0  0  0  0  0  0
  -52.3706  -28.5334    8.8833 C   0  0  0  0  0  0  0  0  0  0  0  0
  -54.1643  -26.4215   10.5442 C   0  0  0  0  0  0  0  0  0  0  0  0
  -48.0584  -29.7806    2.8608 N   0  0  0  0  0  0  0  0  0  0  0  0
  -52.2525  -28.7433   12.5300 N   0  0  0  0  0  0  0  0  0  0  0  0
  -51.1301  -29.0213    8.4519 N   0  0  0  0  0  0  0  0  0  0  0  0
  -53.3179  -28.2054    8.1767 O   0  0  0  0  0  0  0  0  0  0  0  0
  -55.3923  -26.3165   10.7336 O   0  0  0  0  0  0  0  0  0  0  0  0
  -53.4970  -25.5064    9.7758 O   0  0  0  0  0  0  0  0  0  0  0  0
  -51.9324  -30.0614    4.0884 H   0  0  0  0  0  0  0  0  0  0  0  0
  -52.6814  -29.6753    6.3955 H   0  0  0  0  0  0  0  0  0  0  0  0
  -46.7938  -28.9603    5.8915 H   0  0  0  0  0  0  0  0  0  0  0  0
  -48.6345  -28.8535    7.6026 H   0  0  0  0  0  0  0  0  0  0  0  0
  -46.1525  -29.3724    3.5287 H   0  0  0  0  0  0  0  0  0  0  0  0
  -50.0264  -30.1530    2.4063 H   0  0  0  0  0  0  0  0  0  0  0  0
  -51.1833  -29.9946   11.1736 H   0  0  0  0  0  0  0  0  0  0  0  0
  -53.5384  -27.2221   13.2921 H   0  0  0  0  0  0  0  0  0  0  0  0
  -51.9340  -29.1401   13.4033 H   0  0  0  0  0  0  0  0  0  0  0  0
  -50.4535  -29.2456    9.1903 H   0  0  0  0  0  0  0  0  0  0  0  0
  -54.0710  -24.7980    9.4128 H   0  0  0  0  0  0  0  0  0  0  0  0
  1  2  1  0  0  0  0
  1  9  2  0  0  0  0
  2 13  2  0  0  0  0
  3  5  2  0  0  0  0
  3 10  1  0  0  0  0
  4 10  2  0  0  0  0
  4 13  1  0  0  0  0
  5 16  1  0  0  0  0
  6  9  1  0  0  0  0
  6 16  2  0  0  0  0
  7 11  2  0  0  0  0
  7 17  1  0  0  0  0
  8 12  2  0  0  0  0
  8 17  1  0  0  0  0
  9 10  1  0  0  0  0
 11 12  1  0  0  0  0
 11 14  1  0  0  0  0
 12 15  1  0  0  0  0
 13 18  1  0  0  0  0
 14 18  1  0  0  0  0
 14 19  2  0  0  0  0
 15 20  2  0  0  0  0
 15 21  1  0  0  0  0
  1 22  1  0  0  0  0
  2 23  1  0  0  0  0
  3 24  1  0  0  0  0
  4 25  1  0  0  0  0
  5 26  1  0  0  0  0
  6 27  1  0  0  0  0
  7 28  1  0  0  0  0
  8 29  1  0  0  0  0
 17 30  1  0  0  0  0
 18 31  1  0  0  0  0
 21 32  1  0  0  0  0
M  END
> <POSIT::Probability>
0.33

> <POSIT::Method>
HYBRID

> <ReceptorTitle>
UCSF-P4432-REFINED_LIGAND-BOUND-STATE_A__DU__LA1_A-201(A)

> <OMEGA_C>
QMtMwgBh7sEWF5tAO4BOwoGh7MHt/8RAzTQ+whzF6cHBFaVAhmRFwtfy6MGuW9pAuME8wjSb68Eg
vnVAYm5FwoQW78F4GE5Aln9PwuVc6cEWijRBB4NUwhmR3cHOkkZBNFtHwrxs7cFtdJBAGJtDwuqu
6sHfUbBAkxNSwsEQ48ErrSVBUj9VwgSa28F6FjFB581Kwlrr6cEJjORAintRwnVE5MHbIQ5BN6hY
wihf08EwtShBxztAwpQ+7sH0FjdAlAJRwjHy5cEVe0hBQoVMwpor6MEIOwdBi0VVwrKk4cGn0wJB
upFdwh6I0sHYvCtB8PxVwiwNzMF8aRxBxLpPwsZ98MGC1IJAwLlSwhxn7cGtp8xA3Cw7wsSu58Eg
h7xAr4lCwuLT5sEeSPNAKJw4wqj66sEI12FAAxtIwkg58cF0ARpArLtMwvD078EcxzJBSydWwtrG
2cFLrFRBc7xPwvge6cHSc1ZBWNBJwur26cGYCxNBvkhYwlRixsHsmhZB

> <OMEGA_E>
X/cLwQ==

> <OMEGA_NBR>
      1136

$$$$
CACHE3-HO_1700_29
  -OEChem-03092622513D

 56 59  0     1  0  0  0  0  0999 V2000
  -56.5464  -26.2650   12.7488 C   0  0  0  0  0  0  0  0  0  0  0  0
  -55.7680  -26.5981   11.6459 C   0  0  0  0  0  0  0  0  0  0  0  0
  -55.8954  -25.8587   13.9029 C   0  0  0  0  0  0  0  0  0  0  0  0
  -53.8283  -26.0986   12.9283 C   0  0  0  0  0  0  0  0  0  0  0  0
  -54.3826  -26.5161   11.7290 C   0  0  0  0  0  0  0  0  0  0  0  0
  -48.5809  -30.1056    4.1891 C   0  0  0  0  0  0  0  0  0  0  0  0
  -47.7824  -29.7447    5.2494 C   0  0  0  0  0  0  0  0  0  0  0  0
  -49.8965  -29.8293    5.8298 C   0  0  0  0  0  0  0  0  0  0  0  0
  -52.3584  -29.2951    6.0103 C   0  0  0  0  0  0  0  0  0  0  0  0
  -54.3396  -27.2591    9.3325 C   0  0  0  0  0  0  0  0  0  0  0  0
  -48.0581  -30.3736    2.8293 C   0  0  0  0  0  0  0  0  0  0  0  0
  -46.3096  -29.6071    5.2410 C   0  0  0  0  0  0  0  0  0  0  0  0
  -46.5280  -30.5805    2.8714 C   0  0  0  0  0  0  0  0  0  0  0  0
  -45.8155  -29.5526    3.7788 C   0  0  0  0  0  0  0  0  0  0  0  0
  -54.8897  -25.5545    4.8002 C   0  0  0  0  0  0  0  0  0  0  0  0
  -53.7477  -26.5573    4.7678 C   0  0  0  0  0  0  0  0  0  0  0  0
  -55.0101  -25.2323    6.2819 C   0  0  0  0  0  0  0  0  0  0  0  0
  -54.0265  -27.4590    5.9703 C   0  0  2  0  0  0  0  0  0  0  0  0
  -54.7871  -26.5756    6.9824 C   0  0  1  0  0  0  0  0  0  0  0  0
  -51.0733  -29.7332    6.7141 C   0  0  0  0  0  0  0  0  0  0  0  0
  -53.5096  -26.8709   10.5486 C   0  0  1  0  0  0  0  0  0  0  0  0
  -54.5517  -25.7667   14.0210 N   0  0  0  0  0  0  0  0  0  0  0  0
  -49.8986  -30.1526    4.5521 N   0  0  0  0  0  0  0  0  0  0  0  0
  -48.6332  -29.5730    6.3001 N   0  0  0  0  0  0  0  0  0  0  0  0
  -52.8303  -28.0754    6.4747 N   0  0  0  0  0  0  0  0  0  0  0  0
  -54.1339  -26.4080    8.2523 N   0  0  0  0  0  0  0  0  0  0  0  0
  -52.8940  -29.9725    5.1369 O   0  0  0  0  0  0  0  0  0  0  0  0
  -55.0883  -28.2339    9.3285 O   0  0  0  0  0  0  0  0  0  0  0  0
  -52.6984  -25.7516   10.2251 O   0  0  0  0  0  0  0  0  0  0  0  0
  -57.6281  -26.3206   12.7057 H   0  0  0  0  0  0  0  0  0  0  0  0
  -56.2493  -26.9195   10.7262 H   0  0  0  0  0  0  0  0  0  0  0  0
  -56.4568  -25.5867   14.7907 H   0  0  0  0  0  0  0  0  0  0  0  0
  -52.7530  -26.0155   13.0528 H   0  0  0  0  0  0  0  0  0  0  0  0
  -48.5407  -31.2560    2.3963 H   0  0  0  0  0  0  0  0  0  0  0  0
  -48.2918  -29.5180    2.1849 H   0  0  0  0  0  0  0  0  0  0  0  0
  -45.9918  -28.7060    5.7758 H   0  0  0  0  0  0  0  0  0  0  0  0
  -45.8632  -30.4725    5.7448 H   0  0  0  0  0  0  0  0  0  0  0  0
  -46.3087  -31.5894    3.2446 H   0  0  0  0  0  0  0  0  0  0  0  0
  -46.1250  -30.5225    1.8538 H   0  0  0  0  0  0  0  0  0  0  0  0
  -45.9918  -28.5470    3.3744 H   0  0  0  0  0  0  0  0  0  0  0  0
  -44.7330  -29.7208    3.7546 H   0  0  0  0  0  0  0  0  0  0  0  0
  -54.6808  -24.6660    4.1976 H   0  0  0  0  0  0  0  0  0  0  0  0
  -55.8144  -26.0138    4.4318 H   0  0  0  0  0  0  0  0  0  0  0  0
  -53.7159  -27.1166    3.8278 H   0  0  0  0  0  0  0  0  0  0  0  0
  -52.7922  -26.0302    4.8842 H   0  0  0  0  0  0  0  0  0  0  0  0
  -54.2317  -24.5103    6.5601 H   0  0  0  0  0  0  0  0  0  0  0  0
  -55.9806  -24.7920    6.5308 H   0  0  0  0  0  0  0  0  0  0  0  0
  -54.6847  -28.2808    5.6604 H   0  0  0  0  0  0  0  0  0  0  0  0
  -55.7549  -27.0437    7.1994 H   0  0  0  0  0  0  0  0  0  0  0  0
  -51.2870  -30.7020    7.2074 H   0  0  0  0  0  0  0  0  0  0  0  0
  -50.8894  -29.0222    7.5439 H   0  0  0  0  0  0  0  0  0  0  0  0
  -52.8353  -27.6972   10.8025 H   0  0  0  0  0  0  0  0  0  0  0  0
  -48.3834  -29.3107    7.2448 H   0  0  0  0  0  0  0  0  0  0  0  0
  -52.3359  -27.6035    7.2267 H   0  0  0  0  0  0  0  0  0  0  0  0
  -53.4889  -25.6277    8.3662 H   0  0  0  0  0  0  0  0  0  0  0  0
  -52.1611  -25.5570   11.0104 H   0  0  0  0  0  0  0  0  0  0  0  0
  1  2  1  0  0  0  0
  1  3  2  0  0  0  0
  2  5  2  0  0  0  0
  3 22  1  0  0  0  0
  4  5  1  0  0  0  0
  4 22  2  0  0  0  0
  5 21  1  0  0  0  0
  6  7  2  0  0  0  0
  6 11  1  0  0  0  0
  6 23  1  0  0  0  0
  7 12  1  0  0  0  0
  7 24  1  0  0  0  0
  8 20  1  0  0  0  0
  8 23  2  0  0  0  0
  8 24  1  0  0  0  0
  9 20  1  0  0  0  0
  9 25  1  0  0  0  0
  9 27  2  0  0  0  0
 10 21  1  0  0  0  0
 10 26  1  0  0  0  0
 10 28  2  0  0  0  0
 11 13  1  0  0  0  0
 12 14  1  0  0  0  0
 13 14  1  0  0  0  0
 15 16  1  0  0  0  0
 15 17  1  0  0  0  0
 16 18  1  0  0  0  0
 17 19  1  0  0  0  0
 18 19  1  0  0  0  0
 18 25  1  0  0  0  0
 19 26  1  0  0  0  0
 21 29  1  0  0  0  0
  1 30  1  0  0  0  0
  2 31  1  0  0  0  0
  3 32  1  0  0  0  0
  4 33  1  0  0  0  0
 11 34  1  0  0  0  0
 11 35  1  0  0  0  0
 12 36  1  0  0  0  0
 12 37  1  0  0  0  0
 13 38  1  0  0  0  0
 13 39  1  0  0  0  0
 14 40  1  0  0  0  0
 14 41  1  0  0  0  0
 15 42  1  0  0  0  0
 15 43  1  0  0  0  0
 16 44  1  0  0  0  0
 16 45  1  0  0  0  0
 17 46  1  0  0  0  0
 17 47  1  0  0  0  0
 18 48  1  0  0  0  0
 19 49  1  0  0  0  0
 20 50  1  0  0  0  0
 20 51  1  0  0  0  0
 21 52  1  0  0  0  0
 24 53  1  0  0  0  0
 25 54  1  0  0  0  0
 26 55  1  0  0  0  0
 29 56  1  0  0  0  0
M  END
> <POSIT::Probability>
0.24

> <POSIT::Method>
FRED

> <ReceptorTitle>
UCSF-P4432-REFINED_LIGAND-BOUND-STATE_A__DU__LA1_A-201(A)

> <OMEGA_C>
gy9iwr0e0sHv+ktBdRJfwvXI1MFuVTpB5JRfwpPezsFvcl5BLFBXwvXJ0MFa2k5BwodZwvYg1MEr
qjtB4FJCwlrY8MFwDYZAOCE/wij17cHI+qdAAJZHwlKi7sGojbpA/25Rwlxc6sGtVMBAyltZwpMS
2sHQURVBiTtAwhL98sHYEjVABT05wmTb7MGItqdAqRw6wuSk9MEIxTdAFkM3wqBr7MFz13FAF49b
wo9vzMGYm5lAmv1Wwk511MGYkZhATQpcwqzbycGmBclAGBtYwiGs28GkDL9A8SVbwt2a1MF7b99A
FEtMwoLd7cHa2dZA0glWwq/31sEyxyhB9jRawkwizsHpVWBBKJhHwpU48cHqqpFAaohCwmiV7MFw
mslAOFJTwmWa4MGmMM9AFYlYwqhD08F4CQRBcpNTwqvH78FoYaRAY1pcwgPf4cFgQRVBLctSwl4D
zsEgmiNBI4NmwoSQ0sGUSktBSv9gwihb18GanitButNhwpSxzMHApmxBFANTwtIf0MFq2FBBtilC
wmAM+sGBXBlAzSpBwvAk7MHs1QtAkvc3wvGl5cGY07hA7nM3wprH88F61bdAJDw5wiu3/MHZpk9A
/384whEu9MGcSu0/lPc3wlpg5MGN9ldAne4ywj3E7cGgSnBAKrlawhFUxcHkUoZA9kFfwlsc0MEs
0Y1AFN1WwuDu2MGd+nRAQytTwss90MEKS5xASe1YwioVxMFm7NFAG+xfwvxVxsGQ/NBAIb1awiQ/
4sGgIbVACAVfwnVZ2MHGYeZA7CVNwsid9cEno+ZAxY5LwoQt6MGuZ/FAVVdTwsaT3cE21yxBmIhB
wkt86sFw1edA7ldRwvHT3MF2QedAlvRVwowFzcES3AVB+aRQwsh0zMGmKjBB

> <OMEGA_E>
FEUGwQ==

> <OMEGA_NBR>
      2762

$$$$
CACHE3-HO_1700_3
  -OEChem-03092622513D

 44 47  0     0  0  0  0  0  0999 V2000
  -55.1288  -25.0996   12.0470 C   0  0  0  0  0  0  0  0  0  0  0  0
  -48.8985  -29.5005    3.5261 C   0  0  0  0  0  0  0  0  0  0  0  0
  -47.5727  -28.7286    5.9023 C   0  0  0  0  0  0  0  0  0  0  0  0
  -54.9233  -25.0477   13.4210 C   0  0  0  0  0  0  0  0  0  0  0  0
  -53.1572  -26.5733   13.4128 C   0  0  0  0  0  0  0  0  0  0  0  0
  -49.6239  -29.1948    4.6792 C   0  0  0  0  0  0  0  0  0  0  0  0
  -47.5169  -29.4275    3.5821 C   0  0  0  0  0  0  0  0  0  0  0  0
  -46.8610  -29.0456    4.7583 C   0  0  0  0  0  0  0  0  0  0  0  0
  -54.2761  -25.9541   11.3409 C   0  0  0  0  0  0  0  0  0  0  0  0
  -53.3099  -26.6717   12.0397 C   0  0  0  0  0  0  0  0  0  0  0  0
  -48.9660  -28.8116    5.8583 C   0  0  0  0  0  0  0  0  0  0  0  0
  -53.2315  -27.1017    9.8738 C   0  0  0  0  0  0  0  0  0  0  0  0
  -51.0787  -29.2771    4.6221 C   0  0  0  0  0  0  0  0  0  0  0  0
  -50.9191  -29.0333    7.4265 C   0  0  0  0  0  0  0  0  0  0  0  0
  -46.5354  -29.6684    2.4788 C   0  0  0  0  0  0  0  0  0  0  0  0
  -45.3806  -28.9957    4.5505 C   0  0  0  0  0  0  0  0  0  0  0  0
  -45.2312  -29.8346    3.2722 C   0  0  0  0  0  0  0  0  0  0  0  0
  -52.7424  -27.7377    8.5955 C   0  0  0  0  0  0  0  0  0  0  0  0
  -51.3918  -28.4405    8.7450 C   0  0  0  0  0  0  0  0  0  0  0  0
  -53.9816  -25.7471   14.1004 N   0  0  0  0  0  0  0  0  0  0  0  0
  -54.2123  -26.2348    9.9952 N   0  0  0  0  0  0  0  0  0  0  0  0
  -52.6564  -27.3972   11.0790 N   0  0  0  0  0  0  0  0  0  0  0  0
  -49.6934  -28.5022    7.0118 N   0  0  0  0  0  0  0  0  0  0  0  0
  -51.8330  -28.3521    4.3110 O   0  0  0  0  0  0  0  0  0  0  0  0
  -51.5809  -29.9010    6.8639 O   0  0  0  0  0  0  0  0  0  0  0  0
  -51.5400  -30.5120    4.9551 O   0  0  0  0  0  0  0  0  0  0  0  0
  -55.9003  -24.5146   11.5618 H   0  0  0  0  0  0  0  0  0  0  0  0
  -49.3975  -29.7874    2.6054 H   0  0  0  0  0  0  0  0  0  0  0  0
  -47.0553  -28.4236    6.8068 H   0  0  0  0  0  0  0  0  0  0  0  0
  -55.5450  -24.4075   14.0403 H   0  0  0  0  0  0  0  0  0  0  0  0
  -52.4142  -27.1207   13.9767 H   0  0  0  0  0  0  0  0  0  0  0  0
  -46.7672  -30.5666    1.8997 H   0  0  0  0  0  0  0  0  0  0  0  0
  -46.4890  -28.7963    1.8187 H   0  0  0  0  0  0  0  0  0  0  0  0
  -45.0574  -27.9627    4.3860 H   0  0  0  0  0  0  0  0  0  0  0  0
  -44.8248  -29.4357    5.3832 H   0  0  0  0  0  0  0  0  0  0  0  0
  -45.1120  -30.8915    3.5492 H   0  0  0  0  0  0  0  0  0  0  0  0
  -44.3485  -29.5540    2.6891 H   0  0  0  0  0  0  0  0  0  0  0  0
  -52.6603  -26.9563    7.8297 H   0  0  0  0  0  0  0  0  0  0  0  0
  -53.4939  -28.4459    8.2242 H   0  0  0  0  0  0  0  0  0  0  0  0
  -50.6346  -27.7124    9.0621 H   0  0  0  0  0  0  0  0  0  0  0  0
  -51.4252  -29.2136    9.5212 H   0  0  0  0  0  0  0  0  0  0  0  0
  -51.8872  -28.0353   11.2348 H   0  0  0  0  0  0  0  0  0  0  0  0
  -49.2677  -27.8118    7.6372 H   0  0  0  0  0  0  0  0  0  0  0  0
  -52.5185  -30.5783    4.9194 H   0  0  0  0  0  0  0  0  0  0  0  0
  1  4  1  0  0  0  0
  1  9  2  0  0  0  0
  2  6  1  0  0  0  0
  2  7  2  0  0  0  0
  3  8  2  0  0  0  0
  3 11  1  0  0  0  0
  4 20  2  0  0  0  0
  5 10  2  0  0  0  0
  5 20  1  0  0  0  0
  6 11  2  0  0  0  0
  6 13  1  0  0  0  0
  7  8  1  0  0  0  0
  7 15  1  0  0  0  0
  8 16  1  0  0  0  0
  9 10  1  0  0  0  0
  9 21  1  0  0  0  0
 10 22  1  0  0  0  0
 11 23  1  0  0  0  0
 12 18  1  0  0  0  0
 12 21  2  0  0  0  0
 12 22  1  0  0  0  0
 13 24  2  0  0  0  0
 13 26  1  0  0  0  0
 14 19  1  0  0  0  0
 14 23  1  0  0  0  0
 14 25  2  0  0  0  0
 15 17  1  0  0  0  0
 16 17  1  0  0  0  0
 18 19  1  0  0  0  0
  1 27  1  0  0  0  0
  2 28  1  0  0  0  0
  3 29  1  0  0  0  0
  4 30  1  0  0  0  0
  5 31  1  0  0  0  0
 15 32  1  0  0  0  0
 15 33  1  0  0  0  0
 16 34  1  0  0  0  0
 16 35  1  0  0  0  0
 17 36  1  0  0  0  0
 17 37  1  0  0  0  0
 18 38  1  0  0  0  0
 18 39  1  0  0  0  0
 19 40  1  0  0  0  0
 19 41  1  0  0  0  0
 22 42  1  0  0  0  0
 23 43  1  0  0  0  0
 26 44  1  0  0  0  0
M  END
> <POSIT::Probability>
0.33

> <POSIT::Method>
HYBRID

> <ReceptorTitle>
UCSF-P4432-REFINED_LIGAND-BOUND-STATE_A__DU__LA1_A-201(A)

> <OMEGA_C>
3YNcwgvMyMF/wEBBFJhDwvEA7MHdq2FAeEo+wirU5cHI37xAc7FbwpdhyMF9vFZBBqFUwiyW1MGx
mlZB5H5GwvqO6cHtu5VAWRE+wpxr68HKQWVAq3E7wmVd6MEDRJhAtBpZwuyhz8E2dDVBSz1Vwq1f
1cGaokBBKt1DwjR+5sFkd7tAF+1Uwk/Q2MFJ+x1BllBMwos36sF46JNAMa1LwiFE6MHQpe1APSQ6
wu1Y7cGspB5AyYU1wj/358GsnZFAxOw0wjut7sGia1FAPfhSwtLm3cFYhwlBMpFNwjSG48GB6wtB
KO1Xwij6zcEKm2FBZ9lYwtXg0cFB7B9BL6BSwmwt28GaQzFBD8ZGwokE5MGeYOBA8lRPwhbR4sHp
84lAy1JOwiY178HgpNtA8ShOwpQY9MHUj55A3ZlfwvIdxMER/ThBFpdFwp5M7sE+vyZAmTg8wnpj
48EH0dlAGC5ewpdCw8H/pGBBKqhRwiP32MGIoF9BmhE7wnWI9MHCKvM/xPQ5wsle5sHZyeg/1Do0
wq+z38FQWoxAjEwzwjh868HSQqxApnI0ws0h98HpJWNA6GQxwoFu7MH6GSxAH6RSwoam18EIjfpA
u/lVwh+R48FglgNB0IlKwu2y3cFp/hBBaLNNwom16cHKVhhBf4xPwl1I4MHZwTNBIxJFwpN+3sH3
Y/RA6BJSwkqg9MHKa51A

> <OMEGA_E>
W2sDwQ==

> <OMEGA_NBR>
      4140

$$$$
CACHE3HI_1687_19
  -OEChem-03092622513D

 35 38  0     0  0  0  0  0  0999 V2000
  -47.4520  -28.9357    3.7859 C   0  0  0  0  0  0  0  0  0  0  0  0
  -48.4193  -29.4716    2.9218 C   0  0  0  0  0  0  0  0  0  0  0  0
  -47.7521  -28.6969    5.1287 C   0  0  0  0  0  0  0  0  0  0  0  0
  -49.7001  -29.7742    3.3893 C   0  0  0  0  0  0  0  0  0  0  0  0
  -51.8400  -28.1040   11.3521 C   0  0  0  0  0  0  0  0  0  0  0  0
  -52.5799  -27.1836   13.6934 C   0  0  0  0  0  0  0  0  0  0  0  0
  -53.6027  -27.6443    9.7912 C   0  0  0  0  0  0  0  0  0  0  0  0
  -52.6432  -27.4871   12.3188 C   0  0  0  0  0  0  0  0  0  0  0  0
  -49.0224  -29.0099    5.5853 C   0  0  0  0  0  0  0  0  0  0  0  0
  -49.9857  -29.5427    4.7251 C   0  0  0  0  0  0  0  0  0  0  0  0
  -52.3462  -28.1784   10.0539 C   0  0  0  0  0  0  0  0  0  0  0  0
  -53.8769  -26.9962   11.9212 C   0  0  0  0  0  0  0  0  0  0  0  0
  -51.9527  -28.9389    7.6903 C   0  0  0  0  0  0  0  0  0  0  0  0
  -49.5732  -28.8152    6.9612 C   0  0  0  0  0  0  0  0  0  0  0  0
  -51.2836  -29.7617    5.4341 C   0  0  0  0  0  0  0  0  0  0  0  0
  -50.8650  -29.6459    6.9086 C   0  0  0  0  0  0  0  0  0  0  0  0
  -54.4158  -27.0389   10.6898 N   0  0  0  0  0  0  0  0  0  0  0  0
  -53.6744  -26.5552   14.1355 N   0  0  0  0  0  0  0  0  0  0  0  0
  -54.4441  -26.4558   13.0374 N   0  0  0  0  0  0  0  0  0  0  0  0
  -51.5926  -28.7870    9.0230 N   0  0  0  0  0  0  0  0  0  0  0  0
  -52.9860  -28.5732    7.1388 O   0  0  0  0  0  0  0  0  0  0  0  0
  -46.4593  -28.7099    3.4063 H   0  0  0  0  0  0  0  0  0  0  0  0
  -48.1676  -29.6565    1.8814 H   0  0  0  0  0  0  0  0  0  0  0  0
  -47.0046  -28.2769    5.7938 H   0  0  0  0  0  0  0  0  0  0  0  0
  -50.4489  -30.1823    2.7188 H   0  0  0  0  0  0  0  0  0  0  0  0
  -50.8650  -28.5076   11.6059 H   0  0  0  0  0  0  0  0  0  0  0  0
  -51.7832  -27.3930   14.3928 H   0  0  0  0  0  0  0  0  0  0  0  0
  -54.0192  -27.6899    8.7870 H   0  0  0  0  0  0  0  0  0  0  0  0
  -48.8754  -29.2312    7.6953 H   0  0  0  0  0  0  0  0  0  0  0  0
  -49.7546  -27.7584    7.1787 H   0  0  0  0  0  0  0  0  0  0  0  0
  -52.0341  -29.0206    5.1445 H   0  0  0  0  0  0  0  0  0  0  0  0
  -51.6521  -30.7692    5.2154 H   0  0  0  0  0  0  0  0  0  0  0  0
  -50.7410  -30.6195    7.3730 H   0  0  0  0  0  0  0  0  0  0  0  0
  -55.3472  -26.0060   13.1213 H   0  0  0  0  0  0  0  0  0  0  0  0
  -50.6844  -29.1507    9.3037 H   0  0  0  0  0  0  0  0  0  0  0  0
  1  2  1  0  0  0  0
  1  3  2  0  0  0  0
  2  4  2  0  0  0  0
  3  9  1  0  0  0  0
  4 10  1  0  0  0  0
  5  8  2  0  0  0  0
  5 11  1  0  0  0  0
  6  8  1  0  0  0  0
  6 18  2  0  0  0  0
  7 11  2  0  0  0  0
  7 17  1  0  0  0  0
  8 12  1  0  0  0  0
  9 10  2  0  0  0  0
  9 14  1  0  0  0  0
 10 15  1  0  0  0  0
 11 20  1  0  0  0  0
 12 17  2  0  0  0  0
 12 19  1  0  0  0  0
 13 16  1  0  0  0  0
 13 20  1  0  0  0  0
 13 21  2  0  0  0  0
 14 16  1  0  0  0  0
 15 16  1  0  0  0  0
 18 19  1  0  0  0  0
  1 22  1  0  0  0  0
  2 23  1  0  0  0  0
  3 24  1  0  0  0  0
  4 25  1  0  0  0  0
  5 26  1  0  0  0  0
  6 27  1  0  0  0  0
  7 28  1  0  0  0  0
 14 29  1  0  0  0  0
 14 30  1  0  0  0  0
 15 31  1  0  0  0  0
 15 32  1  0  0  0  0
 16 33  1  0  0  0  0
 19 34  1  0  0  0  0
 20 35  1  0  0  0  0
M  END
> <POSIT::Probability>
0.5

> <POSIT::Method>
HYBRID

> <ReceptorTitle>
UCSF-P4432-REFINED_LIGAND-BOUND-STATE_A__DU__LA1_A-201(A)

> <OMEGA_C>
1s49wkR858G9S3JAaK1BwurF68Eh/jpAKwI/wkST5cEoHqRA58xGwqgx7sE/6lhAHVxPwg7V4MEM
ojVBxlFSwgh42cH+F1tBNmlWwp4n3cGeqBxBnJJSwofl28GiGUVB+RZEwlUU6MH8urJAUPFHwnNX
7MERNJdAgmJRwlNt4cHk3CBB+oFXwkX418FMvT5BmM9PwsuC58GgFvZA8UpGwn+F5sEkwt5AbiJN
wgYY7sEb5K1AwHVLwtcq7cEjE91AzalZwrRP2MFbCStBnLJWwvpw1ME1K2JBuMZZwmel08H+mFBB
yl5OwrBL5sEFXhBBqfFTwgOW5MHvcORAVdY5wvSt5cEaAFpAlqtAwnVA7cFQ0/A/vwQ8whI34sEB
Z7lAqctJwk518cFLAS5AxnVLwpEP5MGZsTlB9CFPwvMk28EMSWZBphNYwgSF3cGslwxBbYBDwnLZ
6cEwQPZArwRHwikR3sHft+VA4iJQwioq6MEBoKRAxJtOwjkn9sFz5KZAzfZKwrX09MHL7+tAfWNd
wlEM0MG68FFB07xKwog06cEI3BRB

> <OMEGA_E>
zgD3wA==

> <OMEGA_NBR>
      5341

$$$$
CACHE3HI_1687_21
  -OEChem-03092622513D

 41 43  0     0  0  0  0  0  0999 V2000
  -54.1019  -27.0829    9.6611 C   0  0  0  0  0  0  0  0  0  0  0  0
  -52.3864  -28.1464   11.0427 C   0  0  0  0  0  0  0  0  0  0  0  0
  -54.5985  -26.4179   10.7801 C   0  0  0  0  0  0  0  0  0  0  0  0
  -52.8941  -27.4763   12.1740 C   0  0  0  0  0  0  0  0  0  0  0  0
  -49.2788  -28.9456    7.2766 C   0  0  0  0  0  0  0  0  0  0  0  0
  -51.1953  -29.9878    6.2099 C   0  0  0  0  0  0  0  0  0  0  0  0
  -53.0155  -27.9749    9.7844 C   0  0  0  0  0  0  0  0  0  0  0  0
  -48.6320  -28.9771    6.0356 C   0  0  0  0  0  0  0  0  0  0  0  0
  -50.5907  -29.4256    7.3612 C   0  0  0  0  0  0  0  0  0  0  0  0
  -54.0123  -26.6223   12.0392 C   0  0  0  0  0  0  0  0  0  0  0  0
  -49.3372  -29.4470    4.8970 C   0  0  0  0  0  0  0  0  0  0  0  0
  -52.5731  -28.7148    8.5941 C   0  0  0  0  0  0  0  0  0  0  0  0
  -47.2215  -28.4359    5.9112 C   0  0  0  0  0  0  0  0  0  0  0  0
  -48.6496  -29.5241    3.5480 C   0  0  0  0  0  0  0  0  0  0  0  0
  -47.3457  -28.7041    3.5237 C   0  0  0  0  0  0  0  0  0  0  0  0
  -55.8506  -27.6300   15.3645 C   0  0  0  0  0  0  0  0  0  0  0  0
  -50.5813  -29.9655    5.0103 N   0  0  0  0  0  0  0  0  0  0  0  0
  -51.2813  -29.2317    8.5541 N   0  0  0  0  0  0  0  0  0  0  0  0
  -55.9347  -27.1351   13.9831 N   0  0  0  0  0  0  0  0  0  0  0  0
  -53.2913  -28.7053    7.5983 O   0  0  0  0  0  0  0  0  0  0  0  0
  -55.6517  -24.7967   13.0129 O   0  0  0  0  0  0  0  0  0  0  0  0
  -53.8207  -25.7334   14.5273 O   0  0  0  0  0  0  0  0  0  0  0  0
  -46.5865  -28.9530    4.7250 O   0  0  0  0  0  0  0  0  0  0  0  0
  -54.8320  -25.9242   13.4775 S   0  0  0  0  0  0  0  0  0  0  0  0
  -54.5512  -26.9147    8.6935 H   0  0  0  0  0  0  0  0  0  0  0  0
  -51.5221  -28.7876   11.1343 H   0  0  0  0  0  0  0  0  0  0  0  0
  -55.4362  -25.7438   10.6787 H   0  0  0  0  0  0  0  0  0  0  0  0
  -52.4307  -27.6148   13.1397 H   0  0  0  0  0  0  0  0  0  0  0  0
  -48.7760  -28.5588    8.1507 H   0  0  0  0  0  0  0  0  0  0  0  0
  -52.1702  -30.4446    6.2954 H   0  0  0  0  0  0  0  0  0  0  0  0
  -47.2586  -27.3381    5.8529 H   0  0  0  0  0  0  0  0  0  0  0  0
  -46.6389  -28.7368    6.7944 H   0  0  0  0  0  0  0  0  0  0  0  0
  -48.4131  -30.5757    3.3284 H   0  0  0  0  0  0  0  0  0  0  0  0
  -49.3308  -29.1330    2.7780 H   0  0  0  0  0  0  0  0  0  0  0  0
  -46.7479  -28.9954    2.6475 H   0  0  0  0  0  0  0  0  0  0  0  0
  -47.5895  -27.6332    3.4616 H   0  0  0  0  0  0  0  0  0  0  0  0
  -56.6215  -28.3976   15.5271 H   0  0  0  0  0  0  0  0  0  0  0  0
  -54.8561  -28.0669   15.5375 H   0  0  0  0  0  0  0  0  0  0  0  0
  -56.0111  -26.7956   16.0631 H   0  0  0  0  0  0  0  0  0  0  0  0
  -50.8326  -29.4728    9.4146 H   0  0  0  0  0  0  0  0  0  0  0  0
  -55.8056  -27.9220   13.3797 H   0  0  0  0  0  0  0  0  0  0  0  0
  1  3  2  0  0  0  0
  1  7  1  0  0  0  0
  2  4  1  0  0  0  0
  2  7  2  0  0  0  0
  3 10  1  0  0  0  0
  4 10  2  0  0  0  0
  5  8  2  0  0  0  0
  5  9  1  0  0  0  0
  6  9  2  0  0  0  0
  6 17  1  0  0  0  0
  7 12  1  0  0  0  0
  8 11  1  0  0  0  0
  8 13  1  0  0  0  0
  9 18  1  0  0  0  0
 10 24  1  0  0  0  0
 11 14  1  0  0  0  0
 11 17  2  0  0  0  0
 12 18  1  0  0  0  0
 12 20  2  0  0  0  0
 13 23  1  0  0  0  0
 14 15  1  0  0  0  0
 15 23  1  0  0  0  0
 16 19  1  0  0  0  0
 19 24  1  0  0  0  0
 21 24  2  0  0  0  0
 22 24  2  0  0  0  0
  1 25  1  0  0  0  0
  2 26  1  0  0  0  0
  3 27  1  0  0  0  0
  4 28  1  0  0  0  0
  5 29  1  0  0  0  0
  6 30  1  0  0  0  0
 13 31  1  0  0  0  0
 13 32  1  0  0  0  0
 14 33  1  0  0  0  0
 14 34  1  0  0  0  0
 15 35  1  0  0  0  0
 15 36  1  0  0  0  0
 16 37  1  0  0  0  0
 16 38  1  0  0  0  0
 16 39  1  0  0  0  0
 18 40  1  0  0  0  0
 19 41  1  0  0  0  0
M  END
> <POSIT::Probability>
0.5

> <POSIT::Method>
SHAPEFIT

> <ReceptorTitle>
UCSF-P4432-REFINED_LIGAND-BOUND-STATE_A__DU__LA1_A-201(A)

> <OMEGA_C>
XmhYwsKp2MEDlBpBrItRwuIr4cG8rjBB3GRawuBX08FieyxBg5NTwnTP28HQyEJBgx1FwoqQ58EO
2uhABchMwhzn78FMt8ZA0w9UwqTM38H8jBxBIIdCwjTR58GQI8FA51xKwrZn68G4jutAjQxYwmb6
1MFkoEBBSFlFwmKT68EYtJxA3EpSwuK35cGLgQlB0OI8wsp848FgKL1AKJlCwnIx7MH4EmNAC2I9
wuah5cFIhGFAD2dfwigK3cHu1HVBPFNKwlK578EAVKBAFCBNwoja6cGW3QhBFr1fwsQU2cH2ul9B
SipVwmyk5cFQJfNAU5tewo1fxsHMNFBBXEhXwg7ezcHQb2hBk1g6wqyf58F4M5dA/lNbwtVkz8G8
o1dBaDRawkJR18GtGAtBqBZOwuhM5sHuJTJBpb5dwlLzzcET3CpBBLlRwgnr3MEuPFJBlxpDwm54
5MEXaQJBUa5Qwp2O88HMc8lAzwg9wm+02sE6S7tAM446wunk5cGIa9lAAKdBwhqb9MGqBFVAxlJF
wlwQ6cGKyzFA4f06wo7258GBcClAr1s+ws4Q3cFYi11Ad3xiwksu48HXbnhBnmxbwvyI4MFymXhB
ZwtgwmFd1sFAgYBBj1RLwkfI68FLohZB5zhfwlFg38FFE1ZB

> <OMEGA_E>
EAg2Pw==

> <OMEGA_NBR>
      6680

$$$$
CACHE3HI_1687_23
  -OEChem-03092622513D

 44 46  0     0  0  0  0  0  0999 V2000
  -48.8896  -28.7584    5.8056 C   0  0  0  0  0  0  0  0  0  0  0  0
  -48.3608  -28.2943    4.6011 C   0  0  0  0  0  0  0  0  0  0  0  0
  -52.2603  -27.6900   10.6081 C   0  0  0  0  0  0  0  0  0  0  0  0
  -50.0886  -30.4840    4.6129 C   0  0  0  0  0  0  0  0  0  0  0  0
  -53.8027  -28.1754    8.8658 C   0  0  0  0  0  0  0  0  0  0  0  0
  -53.2621  -26.9682   11.2578 C   0  0  0  0  0  0  0  0  0  0  0  0
  -49.7537  -29.8533    5.8113 C   0  0  0  0  0  0  0  0  0  0  0  0
  -52.5273  -28.3032    9.3898 C   0  0  0  0  0  0  0  0  0  0  0  0
  -48.6957  -28.9250    3.4028 C   0  0  0  0  0  0  0  0  0  0  0  0
  -49.5598  -30.0199    3.4085 C   0  0  0  0  0  0  0  0  0  0  0  0
  -54.5199  -26.9092   10.6544 C   0  0  0  0  0  0  0  0  0  0  0  0
  -51.6426  -29.6957    7.4863 C   0  0  0  0  0  0  0  0  0  0  0  0
  -53.0159  -26.3292   12.5955 C   0  0  0  0  0  0  0  0  0  0  0  0
  -55.6166  -26.1123   11.3082 C   0  0  0  0  0  0  0  0  0  0  0  0
  -55.3390  -25.9217   12.7941 C   0  0  0  0  0  0  0  0  0  0  0  0
  -46.9322  -29.0234    1.8098 C   0  0  0  0  0  0  0  0  0  0  0  0
  -51.0441  -30.1598    1.5553 C   0  0  0  0  0  0  0  0  0  0  0  0
  -50.3241  -30.3536    7.1117 C   0  0  0  0  0  0  0  0  0  0  0  0
  -54.8033  -27.4926    9.4645 N   0  0  0  0  0  0  0  0  0  0  0  0
  -51.5424  -29.0214    8.7161 N   0  0  0  0  0  0  0  0  0  0  0  0
  -52.6380  -29.7686    6.7727 O   0  0  0  0  0  0  0  0  0  0  0  0
  -54.0269  -25.3812   12.9571 O   0  0  0  0  0  0  0  0  0  0  0  0
  -48.1731  -28.4616    2.2332 O   0  0  0  0  0  0  0  0  0  0  0  0
  -49.8932  -30.6446    2.2450 O   0  0  0  0  0  0  0  0  0  0  0  0
  -48.6226  -28.2614    6.7343 H   0  0  0  0  0  0  0  0  0  0  0  0
  -47.6880  -27.4408    4.6029 H   0  0  0  0  0  0  0  0  0  0  0  0
  -51.2724  -27.7696   11.0558 H   0  0  0  0  0  0  0  0  0  0  0  0
  -50.7617  -31.3378    4.6153 H   0  0  0  0  0  0  0  0  0  0  0  0
  -54.0713  -28.6316    7.9175 H   0  0  0  0  0  0  0  0  0  0  0  0
  -53.0007  -27.0942   13.3791 H   0  0  0  0  0  0  0  0  0  0  0  0
  -52.0447  -25.8206   12.5921 H   0  0  0  0  0  0  0  0  0  0  0  0
  -55.7264  -25.1393   10.8181 H   0  0  0  0  0  0  0  0  0  0  0  0
  -56.5509  -26.6717   11.1780 H   0  0  0  0  0  0  0  0  0  0  0  0
  -56.0749  -25.2618   13.2694 H   0  0  0  0  0  0  0  0  0  0  0  0
  -55.3752  -26.8873   13.3075 H   0  0  0  0  0  0  0  0  0  0  0  0
  -46.6278  -28.5670    0.8644 H   0  0  0  0  0  0  0  0  0  0  0  0
  -46.1732  -28.8228    2.5698 H   0  0  0  0  0  0  0  0  0  0  0  0
  -47.0435  -30.1031    1.6860 H   0  0  0  0  0  0  0  0  0  0  0  0
  -51.1979  -30.7447    0.6447 H   0  0  0  0  0  0  0  0  0  0  0  0
  -51.9173  -30.2630    2.2040 H   0  0  0  0  0  0  0  0  0  0  0  0
  -50.9024  -29.1060    1.3044 H   0  0  0  0  0  0  0  0  0  0  0  0
  -50.4743  -31.4388    7.0520 H   0  0  0  0  0  0  0  0  0  0  0  0
  -49.6038  -30.1813    7.9214 H   0  0  0  0  0  0  0  0  0  0  0  0
  -50.6211  -29.0687    9.1688 H   0  0  0  0  0  0  0  0  0  0  0  0
  1  2  2  0  0  0  0
  1  7  1  0  0  0  0
  2  9  1  0  0  0  0
  3  6  2  0  0  0  0
  3  8  1  0  0  0  0
  4  7  2  0  0  0  0
  4 10  1  0  0  0  0
  5  8  2  0  0  0  0
  5 19  1  0  0  0  0
  6 11  1  0  0  0  0
  6 13  1  0  0  0  0
  7 18  1  0  0  0  0
  8 20  1  0  0  0  0
  9 10  2  0  0  0  0
  9 23  1  0  0  0  0
 10 24  1  0  0  0  0
 11 14  1  0  0  0  0
 11 19  2  0  0  0  0
 12 18  1  0  0  0  0
 12 20  1  0  0  0  0
 12 21  2  0  0  0  0
 13 22  1  0  0  0  0
 14 15  1  0  0  0  0
 15 22  1  0  0  0  0
 16 23  1  0  0  0  0
 17 24  1  0  0  0  0
  1 25  1  0  0  0  0
  2 26  1  0  0  0  0
  3 27  1  0  0  0  0
  4 28  1  0  0  0  0
  5 29  1  0  0  0  0
 13 30  1  0  0  0  0
 13 31  1  0  0  0  0
 14 32  1  0  0  0  0
 14 33  1  0  0  0  0
 15 34  1  0  0  0  0
 15 35  1  0  0  0  0
 16 36  1  0  0  0  0
 16 37  1  0  0  0  0
 16 38  1  0  0  0  0
 17 39  1  0  0  0  0
 17 40  1  0  0  0  0
 17 41  1  0  0  0  0
 18 42  1  0  0  0  0
 18 43  1  0  0  0  0
 20 44  1  0  0  0  0
M  END
> <POSIT::Probability>
0.23

> <POSIT::Method>
HYBRID

> <ReceptorTitle>
UCSF-P4432-REFINED_LIGAND-BOUND-STATE_A__DU__LA1_A-201(A)

> <OMEGA_C>
7o5DwkoR5sERx7lAbnFBwtBa4sFNPJNAmQpRwhKF3cGauilBvlpIwkDf88FEnZNA/DVXwjBn4cEh
2g1BaQxVwvS+18EVIDRBxgNHwpXT7sEr9rlAABxSwtxs4sGhPBZBZMhCwnlm58HQxllASD1Gwtgo
8MF0JVpAahRawhZG18GceCpBDJJOwsOQ7cGej+9AQBBUwkii0sEuh0lBcHdewv7l0MF67jRBG1td
wq9fz8F7tExBjro7wv4v6MGwqOc/Ji1MwjpH8cGgE8c/40tJwjrU8sHdkuNAnjZbwu7w28GUbhdB
YytOwskr6MEodQtBU41Swgsm7sEVuthAhRtYwp4My8FdUE9BTLFAwkmx48E87A5Ar5JHwiAo9cGc
rg9AhX1CwlkX4sGAf9dAgsA+wsiG28HtSpNA6hZNwiUo3sFb5DBBBgxLwuKz+sFYsJNA9khYwnYN
5cHvW/1AwABUwtXA2MGYEFZByy1QwqqQzsFdeUlB3udewjgdycEHFy1BGjRiwqtf1cEc2TJBqExg
wi8YysFPT1RBNoBdwiYZ18Ge61RB2YI6wh6J5MHASl0/XLE4whSV5sEweCRAlyw8wiTT8MHAztc/
scpMwhb19cFQDiU/TqtPwrca8sGIDQ1AFpxLwiXZ6MEo9qY/ruVJwpaC+8HMqeFASGpGwk5z8cH0
e/1ADnxKwquM6MFgsxJB

> <OMEGA_E>
XpLdwA==

> <OMEGA_NBR>
      8053

$$$$
CACHE3HI_1687_24
  -OEChem-03092622513D

 38 40  0     0  0  0  0  0  0999 V2000
  -53.9403  -26.9382    9.6402 C   0  0  0  0  0  0  0  0  0  0  0  0
  -52.4440  -28.2887   11.0215 C   0  0  0  0  0  0  0  0  0  0  0  0
  -54.4457  -26.3163   10.7844 C   0  0  0  0  0  0  0  0  0  0  0  0
  -52.9598  -27.6622   12.1765 C   0  0  0  0  0  0  0  0  0  0  0  0
  -49.3071  -29.2987    7.3477 C   0  0  0  0  0  0  0  0  0  0  0  0
  -51.2677  -30.0611    6.1353 C   0  0  0  0  0  0  0  0  0  0  0  0
  -52.9708  -27.9596    9.7475 C   0  0  0  0  0  0  0  0  0  0  0  0
  -48.6340  -29.2258    6.1240 C   0  0  0  0  0  0  0  0  0  0  0  0
  -50.6608  -29.6474    7.3480 C   0  0  0  0  0  0  0  0  0  0  0  0
  -53.9844  -26.6952   12.0574 C   0  0  0  0  0  0  0  0  0  0  0  0
  -49.3173  -29.5772    4.9312 C   0  0  0  0  0  0  0  0  0  0  0  0
  -52.5654  -28.6862    8.5289 C   0  0  0  0  0  0  0  0  0  0  0  0
  -47.1794  -28.7967    6.0973 C   0  0  0  0  0  0  0  0  0  0  0  0
  -48.6678  -29.3181    3.5852 C   0  0  0  0  0  0  0  0  0  0  0  0
  -47.1384  -29.1839    3.7201 C   0  0  0  0  0  0  0  0  0  0  0  0
  -50.6023  -30.0053    4.9611 N   0  0  0  0  0  0  0  0  0  0  0  0
  -55.6333  -27.2559   14.2849 N   0  0  0  0  0  0  0  0  0  0  0  0
  -51.3818  -29.4220    8.5189 N   0  0  0  0  0  0  0  0  0  0  0  0
  -53.2249  -28.5295    7.5052 O   0  0  0  0  0  0  0  0  0  0  0  0
  -55.7659  -25.0032   13.0774 O   0  0  0  0  0  0  0  0  0  0  0  0
  -53.6959  -25.5851   14.4480 O   0  0  0  0  0  0  0  0  0  0  0  0
  -46.8201  -28.2815    4.8003 O   0  0  0  0  0  0  0  0  0  0  0  0
  -54.7691  -25.9850   13.5289 S   0  0  0  0  0  0  0  0  0  0  0  0
  -54.2938  -26.6355    8.6656 H   0  0  0  0  0  0  0  0  0  0  0  0
  -51.6507  -29.0164   11.1082 H   0  0  0  0  0  0  0  0  0  0  0  0
  -55.1930  -25.5422   10.6909 H   0  0  0  0  0  0  0  0  0  0  0  0
  -52.5719  -27.9214   13.1505 H   0  0  0  0  0  0  0  0  0  0  0  0
  -48.7917  -29.0898    8.2735 H   0  0  0  0  0  0  0  0  0  0  0  0
  -52.2832  -30.4286    6.1507 H   0  0  0  0  0  0  0  0  0  0  0  0
  -47.0208  -28.0132    6.8529 H   0  0  0  0  0  0  0  0  0  0  0  0
  -46.5436  -29.6639    6.3294 H   0  0  0  0  0  0  0  0  0  0  0  0
  -48.8961  -30.1556    2.9096 H   0  0  0  0  0  0  0  0  0  0  0  0
  -49.0739  -28.3864    3.1644 H   0  0  0  0  0  0  0  0  0  0  0  0
  -46.7022  -30.1718    3.9291 H   0  0  0  0  0  0  0  0  0  0  0  0
  -46.7222  -28.7905    2.7810 H   0  0  0  0  0  0  0  0  0  0  0  0
  -56.0856  -26.9093   15.1067 H   0  0  0  0  0  0  0  0  0  0  0  0
  -56.3201  -27.6141   13.6525 H   0  0  0  0  0  0  0  0  0  0  0  0
  -51.0392  -29.8000    9.3790 H   0  0  0  0  0  0  0  0  0  0  0  0
  1  3  1  0  0  0  0
  1  7  2  0  0  0  0
  2  4  2  0  0  0  0
  2  7  1  0  0  0  0
  3 10  2  0  0  0  0
  4 10  1  0  0  0  0
  5  8  2  0  0  0  0
  5  9  1  0  0  0  0
  6  9  2  0  0  0  0
  6 16  1  0  0  0  0
  7 12  1  0  0  0  0
  8 11  1  0  0  0  0
  8 13  1  0  0  0  0
  9 18  1  0  0  0  0
 10 23  1  0  0  0  0
 11 14  1  0  0  0  0
 11 16  2  0  0  0  0
 12 18  1  0  0  0  0
 12 19  2  0  0  0  0
 13 22  1  0  0  0  0
 14 15  1  0  0  0  0
 15 22  1  0  0  0  0
 17 23  1  0  0  0  0
 20 23  2  0  0  0  0
 21 23  2  0  0  0  0
  1 24  1  0  0  0  0
  2 25  1  0  0  0  0
  3 26  1  0  0  0  0
  4 27  1  0  0  0  0
  5 28  1  0  0  0  0
  6 29  1  0  0  0  0
 13 30  1  0  0  0  0
 13 31  1  0  0  0  0
 14 32  1  0  0  0  0
 14 33  1  0  0  0  0
 15 34  1  0  0  0  0
 15 35  1  0  0  0  0
 17 36  1  0  0  0  0
 17 37  1  0  0  0  0
 18 38  1  0  0  0  0
M  END
> <POSIT::Probability>
0.5

> <POSIT::Method>
SHAPEFIT

> <ReceptorTitle>
UCSF-P4432-REFINED_LIGAND-BOUND-STATE_A__DU__LA1_A-201(A)

> <OMEGA_C>
4MJXwl+B18E+PhpBtMZRwlNP4sH6VzBBZ8hZwtWH0sHMjCxBytZTwklM3cG+0kJBeDpFwqRj6sFz
IOtAKBJNwjN98MFrVMRAE+JTwkGt38H29RtBM4lCwlfO6cG798NAoaRKwu8t7cFrIutAD/BXwsuP
1cE+60BB80RFwhWe7MFnzJ1A8kJSwkN95cGMdghBqbc8wrFf5sFnHcNA1qtCwnmL6sH0c2VAxI08
wpF46cFSFm5Ax2hKws0K8MFjwZ5Ad4hewhIM2sH4jmRB9IZNwj1g68GITQhBVOZUwmM85MHJKvBA
PxBfwnQGyMEOPVFBjchWwi+uzME2K2dB1Uc7wnpA4sH1m5lAghNbwknhz8FSdlhB1SxZwmsV1cFU
pgpBXppOwqkh6MFjuzFBncVcwndWzMHaDStBn0lSwgVf38GHaFJBpypDwt636MFEYARB/CFRwrRt
88Fu0sRAUhU8wvca4MEjS9tAmyw6wpZP7cE6ispAo5VDwsM+8cF0NzpAqUtEwmMX48GohUpAEM86
wt9f8cFSdntAgeM6wt9S5sG++zFAoVdgwlNG18H3tHFBwEdhwsTp3MGScFpBKyhMwnZm7sFsEBZB

> <OMEGA_E>
oEgzPw==

> <OMEGA_NBR>
      9332

$$$$
CACHE3HI_1687_26
  -OEChem-03092622513D

 41 44  0     0  0  0  0  0  0999 V2000
  -47.4931  -29.6357    3.2097 C   0  0  0  0  0  0  0  0  0  0  0  0
  -48.3977  -28.8375    2.5128 C   0  0  0  0  0  0  0  0  0  0  0  0
  -47.7939  -30.1085    4.4920 C   0  0  0  0  0  0  0  0  0  0  0  0
  -49.6289  -28.4865    3.0727 C   0  0  0  0  0  0  0  0  0  0  0  0
  -49.6510  -30.0617    6.3234 C   0  0  0  0  0  0  0  0  0  0  0  0
  -52.6054  -28.3751   10.9342 C   0  0  0  0  0  0  0  0  0  0  0  0
  -52.6956  -26.4889    9.4904 C   0  0  0  0  0  0  0  0  0  0  0  0
  -49.0300  -29.7680    5.0770 C   0  0  0  0  0  0  0  0  0  0  0  0
  -53.4144  -27.6877   11.8395 C   0  0  0  0  0  0  0  0  0  0  0  0
  -49.9171  -28.9663    4.3556 C   0  0  0  0  0  0  0  0  0  0  0  0
  -52.2332  -27.7702    9.7396 C   0  0  0  0  0  0  0  0  0  0  0  0
  -53.8404  -26.4046   11.4903 C   0  0  0  0  0  0  0  0  0  0  0  0
  -50.8801  -29.4439    6.3337 C   0  0  0  0  0  0  0  0  0  0  0  0
  -53.8674  -28.3307   13.1200 C   0  0  0  0  0  0  0  0  0  0  0  0
  -54.6865  -25.6185   12.4554 C   0  0  0  0  0  0  0  0  0  0  0  0
  -55.3844  -26.5431   13.4450 C   0  0  0  0  0  0  0  0  0  0  0  0
  -52.1942  -28.0104    4.7594 C   0  0  0  0  0  0  0  0  0  0  0  0
  -53.4859  -25.7907   10.3353 N   0  0  0  0  0  0  0  0  0  0  0  0
  -51.0319  -28.7854    5.1427 N   0  0  0  0  0  0  0  0  0  0  0  0
  -51.3997  -28.4460    8.8021 N   0  0  0  0  0  0  0  0  0  0  0  0
  -52.2701  -30.7760    8.0726 O   0  0  0  0  0  0  0  0  0  0  0  0
  -53.2902  -28.7313    7.0330 O   0  0  0  0  0  0  0  0  0  0  0  0
  -54.4112  -27.3920   14.0554 O   0  0  0  0  0  0  0  0  0  0  0  0
  -52.1358  -29.4166    7.5814 S   0  0  0  0  0  0  0  0  0  0  0  0
  -46.5414  -29.8944    2.7537 H   0  0  0  0  0  0  0  0  0  0  0  0
  -48.1421  -28.4805    1.5185 H   0  0  0  0  0  0  0  0  0  0  0  0
  -47.0791  -30.7297    5.0241 H   0  0  0  0  0  0  0  0  0  0  0  0
  -50.3290  -27.8636    2.5261 H   0  0  0  0  0  0  0  0  0  0  0  0
  -49.2407  -30.6609    7.1251 H   0  0  0  0  0  0  0  0  0  0  0  0
  -52.2663  -29.3823   11.1653 H   0  0  0  0  0  0  0  0  0  0  0  0
  -52.4380  -25.9656    8.5746 H   0  0  0  0  0  0  0  0  0  0  0  0
  -54.6517  -29.0666   12.9133 H   0  0  0  0  0  0  0  0  0  0  0  0
  -53.0259  -28.8496   13.5941 H   0  0  0  0  0  0  0  0  0  0  0  0
  -54.0742  -24.8862   12.9919 H   0  0  0  0  0  0  0  0  0  0  0  0
  -55.4366  -25.0766   11.8675 H   0  0  0  0  0  0  0  0  0  0  0  0
  -55.9274  -25.9851   14.2172 H   0  0  0  0  0  0  0  0  0  0  0  0
  -56.1062  -27.1761   12.9199 H   0  0  0  0  0  0  0  0  0  0  0  0
  -52.9317  -28.6382    4.2481 H   0  0  0  0  0  0  0  0  0  0  0  0
  -51.8975  -27.1970    4.0899 H   0  0  0  0  0  0  0  0  0  0  0  0
  -52.6867  -27.5835    5.6392 H   0  0  0  0  0  0  0  0  0  0  0  0
  -50.5117  -28.8151    9.1820 H   0  0  0  0  0  0  0  0  0  0  0  0
  1  2  1  0  0  0  0
  1  3  2  0  0  0  0
  2  4  2  0  0  0  0
  3  8  1  0  0  0  0
  4 10  1  0  0  0  0
  5  8  1  0  0  0  0
  5 13  2  0  0  0  0
  6  9  2  0  0  0  0
  6 11  1  0  0  0  0
  7 11  2  0  0  0  0
  7 18  1  0  0  0  0
  8 10  2  0  0  0  0
  9 12  1  0  0  0  0
  9 14  1  0  0  0  0
 10 19  1  0  0  0  0
 11 20  1  0  0  0  0
 12 15  1  0  0  0  0
 12 18  2  0  0  0  0
 13 19  1  0  0  0  0
 13 24  1  0  0  0  0
 14 23  1  0  0  0  0
 15 16  1  0  0  0  0
 16 23  1  0  0  0  0
 17 19  1  0  0  0  0
 20 24  1  0  0  0  0
 21 24  2  0  0  0  0
 22 24  2  0  0  0  0
  1 25  1  0  0  0  0
  2 26  1  0  0  0  0
  3 27  1  0  0  0  0
  4 28  1  0  0  0  0
  5 29  1  0  0  0  0
  6 30  1  0  0  0  0
  7 31  1  0  0  0  0
 14 32  1  0  0  0  0
 14 33  1  0  0  0  0
 15 34  1  0  0  0  0
 15 35  1  0  0  0  0
 16 36  1  0  0  0  0
 16 37  1  0  0  0  0
 17 38  1  0  0  0  0
 17 39  1  0  0  0  0
 17 40  1  0  0  0  0
 20 41  1  0  0  0  0
M  END
> <POSIT::Probability>
0.33

> <POSIT::Method>
HYBRID

> <ReceptorTitle>
UCSF-P4432-REFINED_LIGAND-BOUND-STATE_A__DU__LA1_A-201(A)

> <OMEGA_C>
8vg9wuIV7cHHa01ANpdBwkmz5sHl0SBA+Cw/wire8MF8vo9AAYRGwkfk48GnpkRAn5pGwmd+8MF+
WcpA62tSwkAA48FT8i5BUshSwljp08Hc2BdBth5Ewtkk7sHDdqJAXahVwl6A3cFmbj1BEqtHwhC7
58HtYItAxO5QwlQp3sGA1RtBh1xXwpg808FM2DdBQoVLwiWN68EHrspALHhXwi2l4sFx61FB775a
wsLyzMF5SUdBoYldwk9Y1MGMHldB0MZQwmUV4MG6TJhAlPFVwkdTzsEyXSVBpiBMwpJI5sHvkKRA
RJlNwluR48GY1QxBixRRwjI19sE+KQFBJClVwrTZ5cGzDuFAC6VZwtIi28HN4mBBB4tQwkRV68Es
m/JAYCo6wrsn78E2PDBAf5FAwgnY48EsXsI/9FA8wl3W9cFHxaBA5VBJwpvo3sFUrCFAefZEwotJ
9cH8AORAqxBRwuMO68HwpDJBecBRwna5z8FcMQlBUptawnaI6MHYnE5BhBpUwuXL5sFcgVlB+EtY
wgUXx8Gu3k9BH79dwsqcyMFA4T1BqbVfwo/hz8HXeWNBw2xgwo9o2cEBuE5BFLpTwhIb5cHS8IdA
E5dPwnST2cGe4IJAKL9SwgSr3MHvc7RAAwxKwlqF5sGk6RJB

> <OMEGA_E>
OAq3wA==

> <OMEGA_NBR>
     10648

$$$$
CACHE3HI_1687_28
  -OEChem-03092622513D

 43 45  0     0  0  0  0  0  0999 V2000
  -48.8955  -29.4449    3.1404 C   0  0  0  0  0  0  0  0  0  0  0  0
  -48.0456  -29.0204    5.3619 C   0  0  0  0  0  0  0  0  0  0  0  0
  -50.2010  -29.3545    3.6232 C   0  0  0  0  0  0  0  0  0  0  0  0
  -49.3511  -28.9300    5.8447 C   0  0  0  0  0  0  0  0  0  0  0  0
  -52.1270  -28.6316   10.1882 C   0  0  0  0  0  0  0  0  0  0  0  0
  -52.6725  -27.5187    8.1600 C   0  0  0  0  0  0  0  0  0  0  0  0
  -47.8178  -29.2777    4.0099 C   0  0  0  0  0  0  0  0  0  0  0  0
  -52.8579  -27.6672   10.8831 C   0  0  0  0  0  0  0  0  0  0  0  0
  -50.4289  -29.0972    4.9752 C   0  0  0  0  0  0  0  0  0  0  0  0
  -52.0313  -28.5640    8.8032 C   0  0  0  0  0  0  0  0  0  0  0  0
  -53.4555  -26.6436   10.1444 C   0  0  0  0  0  0  0  0  0  0  0  0
  -46.4565  -29.3739    3.5071 C   0  0  0  0  0  0  0  0  0  0  0  0
  -52.9457  -27.6898   12.3835 C   0  0  0  0  0  0  0  0  0  0  0  0
  -54.2777  -25.6023   10.8547 C   0  0  0  0  0  0  0  0  0  0  0  0
  -53.9033  -25.5258   12.3288 C   0  0  0  0  0  0  0  0  0  0  0  0
  -44.1578  -29.2547    4.1315 C   0  0  0  0  0  0  0  0  0  0  0  0
  -51.8308  -28.9994    5.4929 C   0  0  0  0  0  0  0  0  0  0  0  0
  -53.3836  -26.5597    8.7941 N   0  0  0  0  0  0  0  0  0  0  0  0
  -51.2946  -29.5377    8.0691 N   0  0  0  0  0  0  0  0  0  0  0  0
  -46.1608  -29.6005    2.3264 O   0  0  0  0  0  0  0  0  0  0  0  0
  -51.3009  -31.4405    6.2711 O   0  0  0  0  0  0  0  0  0  0  0  0
  -53.4741  -30.3742    6.9672 O   0  0  0  0  0  0  0  0  0  0  0  0
  -53.9747  -26.8344   12.8975 O   0  0  0  0  0  0  0  0  0  0  0  0
  -45.5383  -29.1830    4.5032 O   0  0  0  0  0  0  0  0  0  0  0  0
  -52.0499  -30.2793    6.7085 S   0  0  0  0  0  0  0  0  0  0  0  0
  -48.7299  -29.6462    2.0851 H   0  0  0  0  0  0  0  0  0  0  0  0
  -47.2135  -28.8892    6.0488 H   0  0  0  0  0  0  0  0  0  0  0  0
  -51.0345  -29.4867    2.9386 H   0  0  0  0  0  0  0  0  0  0  0  0
  -49.5186  -28.7274    6.8991 H   0  0  0  0  0  0  0  0  0  0  0  0
  -51.6323  -29.4334   10.7313 H   0  0  0  0  0  0  0  0  0  0  0  0
  -52.6349  -27.4143    7.0797 H   0  0  0  0  0  0  0  0  0  0  0  0
  -53.1705  -28.7037   12.7310 H   0  0  0  0  0  0  0  0  0  0  0  0
  -51.9868  -27.3827   12.8174 H   0  0  0  0  0  0  0  0  0  0  0  0
  -54.1464  -24.6235   10.3814 H   0  0  0  0  0  0  0  0  0  0  0  0
  -55.3304  -25.8937   10.7576 H   0  0  0  0  0  0  0  0  0  0  0  0
  -52.8989  -25.1106   12.4779 H   0  0  0  0  0  0  0  0  0  0  0  0
  -54.6120  -24.8845   12.8621 H   0  0  0  0  0  0  0  0  0  0  0  0
  -43.5328  -29.0858    5.0123 H   0  0  0  0  0  0  0  0  0  0  0  0
  -43.9499  -30.2473    3.7248 H   0  0  0  0  0  0  0  0  0  0  0  0
  -43.9449  -28.5002    3.3707 H   0  0  0  0  0  0  0  0  0  0  0  0
  -52.5709  -29.1504    4.7021 H   0  0  0  0  0  0  0  0  0  0  0  0
  -52.0240  -28.0365    5.9736 H   0  0  0  0  0  0  0  0  0  0  0  0
  -50.2971  -29.3022    7.9282 H   0  0  0  0  0  0  0  0  0  0  0  0
  1  3  2  0  0  0  0
  1  7  1  0  0  0  0
  2  4  1  0  0  0  0
  2  7  2  0  0  0  0
  3  9  1  0  0  0  0
  4  9  2  0  0  0  0
  5  8  2  0  0  0  0
  5 10  1  0  0  0  0
  6 10  2  0  0  0  0
  6 18  1  0  0  0  0
  7 12  1  0  0  0  0
  8 11  1  0  0  0  0
  8 13  1  0  0  0  0
  9 17  1  0  0  0  0
 10 19  1  0  0  0  0
 11 14  1  0  0  0  0
 11 18  2  0  0  0  0
 12 20  2  0  0  0  0
 12 24  1  0  0  0  0
 13 23  1  0  0  0  0
 14 15  1  0  0  0  0
 15 23  1  0  0  0  0
 16 24  1  0  0  0  0
 17 25  1  0  0  0  0
 19 25  1  0  0  0  0
 21 25  2  0  0  0  0
 22 25  2  0  0  0  0
  1 26  1  0  0  0  0
  2 27  1  0  0  0  0
  3 28  1  0  0  0  0
  4 29  1  0  0  0  0
  5 30  1  0  0  0  0
  6 31  1  0  0  0  0
 13 32  1  0  0  0  0
 13 33  1  0  0  0  0
 14 34  1  0  0  0  0
 14 35  1  0  0  0  0
 15 36  1  0  0  0  0
 15 37  1  0  0  0  0
 16 38  1  0  0  0  0
 16 39  1  0  0  0  0
 16 40  1  0  0  0  0
 17 41  1  0  0  0  0
 17 42  1  0  0  0  0
 19 43  1  0  0  0  0
M  END
> <POSIT::Probability>
0.23

> <POSIT::Method>
HYBRID

> <ReceptorTitle>
UCSF-P4432-REFINED_LIGAND-BOUND-STATE_A__DU__LA1_A-201(A)

> <OMEGA_C>
AJVDwjyP68Hk+0hAui5AwtEp6MF0lKtA281IwvbV6sHS4mdAhmdFwopw58EKCLtACIJQwnIN5cGs
AiNBp7BSwmIm3ME8jwJBb0U/wsw46sHwUIBAim5TwlhW3cEuIS5BJrdJwvzG6MHwNJ9AGSBQwgiD
5MHn2QxBbdJVwg4m1cGATyJBe9M5wrr96sGUc2BAXchTwqyE3cHzIkZBXBxZwmzRzMHerC1B+JxX
wug0zMG+QkVBjqEwwokJ6sENNYRAulJPwsn+58Glxa9A04hVwlJ61MG9tAxBsi1NwkZN7MHWGgFB
sqQ4wr7N7MEy4xRAJTRNwjSG+8HhrMhAg+VVwmr+8sGD895AEeZXwtCs1sH9W05BLic2wtR26cHU
GZBAIDNQwhQ88sEDrNZAaetCwlsr7cHOcgVAnNo8wvwc58HXj8FAXSNMwrjk68F0ETxAABNGwrTR
5cFGxdxAcIdOwqJ368F9sytBJYpSwpBQ28EtjeJAlK5Uwj6h5cFWsktBgfJPwqwP28HoE01B7JVY
wvL8xMEgGiZBS1Jdwkwmz8FCHyxBhphTwnbiyMFapUdBs3JawoITx8ECy01BliEuwsyv6MFfZKBA
vswvwnb68cH+Ym5Ah8cvwlwA5MH2uFdAoEhSwhQ06cFpd5ZAnRhQwshK4MHdJ79ARTBJwtxq6sHk
s/1A

> <OMEGA_E>
NTnXwA==

> <OMEGA_NBR>
     12001

$$$$
CACHE3HI_1687_64
  -OEChem-03092622513D

 26 28  0     0  0  0  0  0  0999 V2000
  -52.4978  -28.0186    8.3728 C   0  0  0  0  0  0  0  0  0  0  0  0
  -52.7666  -28.2603    9.7308 C   0  0  0  0  0  0  0  0  0  0  0  0
  -52.6950  -29.2374    7.7794 C   0  0  0  0  0  0  0  0  0  0  0  0
  -47.3349  -28.9595    3.8724 C   0  0  0  0  0  0  0  0  0  0  0  0
  -48.6321  -28.9820    3.5269 C   0  0  0  0  0  0  0  0  0  0  0  0
  -47.7370  -29.3725    6.0851 C   0  0  0  0  0  0  0  0  0  0  0  0
  -49.1877  -29.4145    5.7906 C   0  0  0  0  0  0  0  0  0  0  0  0
  -50.9177  -29.2966    4.4787 C   0  0  0  0  0  0  0  0  0  0  0  0
  -52.7146  -27.3010   10.8457 C   0  0  0  0  0  0  0  0  0  0  0  0
  -52.5947  -29.7345    6.3658 C   0  0  0  0  0  0  0  0  0  0  0  0
  -53.1048  -29.5315    9.9624 N   0  0  0  0  0  0  0  0  0  0  0  0
  -46.8586  -29.1530    5.1549 N   0  0  0  0  0  0  0  0  0  0  0  0
  -50.1510  -29.6231    6.6278 N   0  0  0  0  0  0  0  0  0  0  0  0
  -49.5435  -29.2123    4.5051 N   0  0  0  0  0  0  0  0  0  0  0  0
  -51.2738  -29.5552    5.8246 N   0  0  0  0  0  0  0  0  0  0  0  0
  -51.6676  -29.1774    3.5209 O   0  0  0  0  0  0  0  0  0  0  0  0
  -53.0582  -30.1490    8.7185 O   0  0  0  0  0  0  0  0  0  0  0  0
  -52.2053  -27.0957    7.8936 H   0  0  0  0  0  0  0  0  0  0  0  0
  -46.5778  -28.7786    3.1170 H   0  0  0  0  0  0  0  0  0  0  0  0
  -48.9893  -28.8282    2.5175 H   0  0  0  0  0  0  0  0  0  0  0  0
  -47.4458  -29.5372    7.1335 H   0  0  0  0  0  0  0  0  0  0  0  0
  -53.6842  -26.7963   11.0093 H   0  0  0  0  0  0  0  0  0  0  0  0
  -51.9808  -26.4936   10.6686 H   0  0  0  0  0  0  0  0  0  0  0  0
  -52.4371  -27.7989   11.7912 H   0  0  0  0  0  0  0  0  0  0  0  0
  -52.8391  -30.8006    6.3134 H   0  0  0  0  0  0  0  0  0  0  0  0
  -53.2982  -29.2070    5.7132 H   0  0  0  0  0  0  0  0  0  0  0  0
  1  2  1  0  0  0  0
  1  3  2  0  0  0  0
  2  9  1  0  0  0  0
  2 11  2  0  0  0  0
  3 10  1  0  0  0  0
  3 17  1  0  0  0  0
  4  5  2  0  0  0  0
  4 12  1  0  0  0  0
  5 14  1  0  0  0  0
  6  7  1  0  0  0  0
  6 12  2  0  0  0  0
  7 13  2  0  0  0  0
  7 14  1  0  0  0  0
  8 14  1  0  0  0  0
  8 15  1  0  0  0  0
  8 16  2  0  0  0  0
 10 15  1  0  0  0  0
 11 17  1  0  0  0  0
 13 15  1  0  0  0  0
  1 18  1  0  0  0  0
  4 19  1  0  0  0  0
  5 20  1  0  0  0  0
  6 21  1  0  0  0  0
  9 22  1  0  0  0  0
  9 23  1  0  0  0  0
  9 24  1  0  0  0  0
 10 25  1  0  0  0  0
 10 26  1  0  0  0  0
M  END
> <POSIT::Probability>
0.18

> <POSIT::Method>
HYBRID

> <ReceptorTitle>
UCSF-P4432-REFINED_LIGAND-BOUND-STATE_A__DU__LA1_A-201(A)

> <OMEGA_C>
t/1Rwgom4MHw9gVB/hBTwgkV4sE2sRtBqMdSwkLm6cEg8fhA+FY9wgyt58Eh1ndAS4dCwizb58Fg
uWFAvfI+wtv66sHAuMJAL8BEwtpQ68FsTLlAuKtLwnJf6sE2UY9AyttSwoRo2sHyhy1B9GBSwj7g
7cHNtMtARmtUwpZA7MHkZR9BMm87wl856cHG9KRAq5pIwhf87MFSF9RAkyxGws6y6cEMKpBAWhhN
wgZx7MERY7pAoqtOwkVr6cFPVmFAmztUwjMx8cHVfgtBOtJQwhjE2MH7l/xApk86wqM65sFXfEdA
E/VDwj6g5sHjHiFAeMg9whlM7MHUReRAlLxWwtJe1sEWJjBBXOxPwtvy08F4sipBnL9Rwhdk3sGs
qDxBR1tTwq5n9sFeB8pAUDFVwvSn6cGd0rZA

> <OMEGA_E>
MWpcwA==

> <OMEGA_NBR>
     13012

$$$$
CACHE3HI_1687_7
  -OEChem-03092622513D

 41 44  0     0  0  0  0  0  0999 V2000
  -47.2011  -29.3301    3.7778 C   0  0  0  0  0  0  0  0  0  0  0  0
  -48.0661  -29.2526    2.6750 C   0  0  0  0  0  0  0  0  0  0  0  0
  -47.7072  -29.3851    5.0776 C   0  0  0  0  0  0  0  0  0  0  0  0
  -49.4512  -29.2295    2.8583 C   0  0  0  0  0  0  0  0  0  0  0  0
  -52.8957  -28.1178   10.7386 C   0  0  0  0  0  0  0  0  0  0  0  0
  -54.3434  -28.0894    8.8537 C   0  0  0  0  0  0  0  0  0  0  0  0
  -49.0805  -29.3499    5.2501 C   0  0  0  0  0  0  0  0  0  0  0  0
  -49.9437  -29.2729    4.1515 C   0  0  0  0  0  0  0  0  0  0  0  0
  -53.9034  -27.5100   11.4886 C   0  0  0  0  0  0  0  0  0  0  0  0
  -53.1139  -28.4182    9.3992 C   0  0  0  0  0  0  0  0  0  0  0  0
  -55.1033  -27.2042   10.8427 C   0  0  0  0  0  0  0  0  0  0  0  0
  -49.8486  -29.4317    6.5311 C   0  0  0  0  0  0  0  0  0  0  0  0
  -51.3735  -29.2959    4.5902 C   0  0  0  0  0  0  0  0  0  0  0  0
  -53.6834  -27.1356   12.9277 C   0  0  0  0  0  0  0  0  0  0  0  0
  -56.2251  -26.5765   11.6252 C   0  0  0  0  0  0  0  0  0  0  0  0
  -55.6975  -25.8932   12.8797 C   0  0  0  0  0  0  0  0  0  0  0  0
  -51.2358  -28.9453    6.0805 C   0  0  0  0  0  0  0  0  0  0  0  0
  -55.3434  -27.4935    9.5411 N   0  0  0  0  0  0  0  0  0  0  0  0
  -52.0933  -29.0482    8.6041 N   0  0  0  0  0  0  0  0  0  0  0  0
  -52.4193  -31.0765    6.9825 O   0  0  0  0  0  0  0  0  0  0  0  0
  -53.7564  -28.9683    6.6475 O   0  0  0  0  0  0  0  0  0  0  0  0
  -54.9002  -26.8213   13.6171 O   0  0  0  0  0  0  0  0  0  0  0  0
  -52.5327  -29.6337    7.0511 S   0  0  0  0  0  0  0  0  0  0  0  0
  -46.1261  -29.3412    3.6165 H   0  0  0  0  0  0  0  0  0  0  0  0
  -47.6545  -29.2051    1.6715 H   0  0  0  0  0  0  0  0  0  0  0  0
  -47.0362  -29.4527    5.9277 H   0  0  0  0  0  0  0  0  0  0  0  0
  -50.1181  -29.1771    2.0046 H   0  0  0  0  0  0  0  0  0  0  0  0
  -51.9411  -28.3541   11.2029 H   0  0  0  0  0  0  0  0  0  0  0  0
  -54.5727  -28.3008    7.8135 H   0  0  0  0  0  0  0  0  0  0  0  0
  -49.8607  -30.4450    6.9403 H   0  0  0  0  0  0  0  0  0  0  0  0
  -49.4122  -28.7395    7.2580 H   0  0  0  0  0  0  0  0  0  0  0  0
  -51.9265  -28.5157    4.0576 H   0  0  0  0  0  0  0  0  0  0  0  0
  -51.8415  -30.2687    4.4194 H   0  0  0  0  0  0  0  0  0  0  0  0
  -53.2181  -27.9687   13.4652 H   0  0  0  0  0  0  0  0  0  0  0  0
  -53.0132  -26.2701   12.9890 H   0  0  0  0  0  0  0  0  0  0  0  0
  -56.7682  -25.8565   11.0041 H   0  0  0  0  0  0  0  0  0  0  0  0
  -56.9170  -27.3792   11.9074 H   0  0  0  0  0  0  0  0  0  0  0  0
  -55.1056  -25.0001   12.6445 H   0  0  0  0  0  0  0  0  0  0  0  0
  -56.5323  -25.5823   13.5156 H   0  0  0  0  0  0  0  0  0  0  0  0
  -51.3285  -27.8424    6.2305 H   0  0  0  0  0  0  0  0  0  0  0  0
  -51.4689  -29.6619    9.1442 H   0  0  0  0  0  0  0  0  0  0  0  0
  1  2  1  0  0  0  0
  1  3  2  0  0  0  0
  2  4  2  0  0  0  0
  3  7  1  0  0  0  0
  4  8  1  0  0  0  0
  5  9  2  0  0  0  0
  5 10  1  0  0  0  0
  6 10  2  0  0  0  0
  6 18  1  0  0  0  0
  7  8  2  0  0  0  0
  7 12  1  0  0  0  0
  8 13  1  0  0  0  0
  9 11  1  0  0  0  0
  9 14  1  0  0  0  0
 10 19  1  0  0  0  0
 11 15  1  0  0  0  0
 11 18  2  0  0  0  0
 12 17  1  0  0  0  0
 13 17  1  0  0  0  0
 14 22  1  0  0  0  0
 15 16  1  0  0  0  0
 16 22  1  0  0  0  0
 17 23  1  0  0  0  0
 19 23  1  0  0  0  0
 20 23  2  0  0  0  0
 21 23  2  0  0  0  0
  1 24  1  0  0  0  0
  2 25  1  0  0  0  0
  3 26  1  0  0  0  0
  4 27  1  0  0  0  0
  5 28  1  0  0  0  0
  6 29  1  0  0  0  0
 12 30  1  0  0  0  0
 12 31  1  0  0  0  0
 13 32  1  0  0  0  0
 13 33  1  0  0  0  0
 14 34  1  0  0  0  0
 14 35  1  0  0  0  0
 15 36  1  0  0  0  0
 15 37  1  0  0  0  0
 16 38  1  0  0  0  0
 16 39  1  0  0  0  0
 17 40  1  0  0  0  0
 19 41  1  0  0  0  0
M  END
> <POSIT::Probability>
0.23

> <POSIT::Method>
HYBRID

> <ReceptorTitle>
UCSF-P4432-REFINED_LIGAND-BOUND-STATE_A__DU__LA1_A-201(A)

> <OMEGA_C>
6s08wgmk6sE6x3FAqkNAwmQF6sEaMytAMtQ+wsgU68Hke6JADM5FwvfV6cG27jZAN5VTwlHx4MF0
0StBm19ZwgK34MG7qA1BaFJEwpbM6sEFAahAUsZHwvMu6sF62YRAHp1XwpAU3MFM0TdBnHRUwmlY
48E/YxZBy2lcwkqi2cGRey1B+mRHwiB068ER/9BAbn5Nwvld6sHe4pJAxbtWwskV2cGu105Bg+Zg
wrWc1MH4ADpBQ8pewlAlz8FOE05Ba/FMwguQ58FDk8JAml9dwqjy28EwqBhBk19QwtBi6MFOqglB
Vq1Rwpyc+MFPcN9AmgZXwiK/58GzuNRAwplbwvqR1sF/31lBgyFSwrgR7cGUouFAG4E4ws+66sGE
dGdAPJ4+wv6j6cG49NU/HCU8wg6f68Htr71A7HhIwrZq6cHUSwBApsNPwjrV4sEYPzNBa0pawgRo
4sFvCPpAVXFHwnCP88GhFt5AIKZFwmrq5cFcQehAubRPwj4g5MES2IFAp11Pwlgm8sFya41AWt9U
wt6/38GDcVdBkQ1Uwjop0sEl009BmRJjwhjazsGaEDBB9apjwogI28G0hD5BH2xcwjcAyMHsT0pB
GCFiwn+ozMHqP1hBblBNwk693sGkYMdAG+BNwpVL7cHDThJB

> <OMEGA_E>
UMX1wA==

> <OMEGA_NBR>
     14327

$$$$
CACHE3HI_1689_15
  -OEChem-03092622513D

 38 40  0     0  0  0  0  0  0999 V2000
  -48.0351  -29.3662    3.6772 C   0  0  0  0  0  0  0  0  0  0  0  0
  -47.5011  -28.5339    4.6609 C   0  0  0  0  0  0  0  0  0  0  0  0
  -53.2926  -26.2283   10.0386 C   0  0  0  0  0  0  0  0  0  0  0  0
  -52.8090  -27.1588    9.1141 C   0  0  0  0  0  0  0  0  0  0  0  0
  -49.2780  -29.9682    3.8731 C   0  0  0  0  0  0  0  0  0  0  0  0
  -48.2098  -28.3033    5.8401 C   0  0  0  0  0  0  0  0  0  0  0  0
  -52.7730  -28.8388   10.8336 C   0  0  0  0  0  0  0  0  0  0  0  0
  -53.2591  -27.8967   11.7568 C   0  0  0  0  0  0  0  0  0  0  0  0
  -53.5255  -26.5740   11.3673 C   0  0  0  0  0  0  0  0  0  0  0  0
  -52.5496  -28.4657    9.5124 C   0  0  0  0  0  0  0  0  0  0  0  0
  -49.9867  -29.7376    5.0523 C   0  0  0  0  0  0  0  0  0  0  0  0
  -49.4527  -28.9053    6.0360 C   0  0  0  0  0  0  0  0  0  0  0  0
  -53.5042  -28.2041   13.0916 C   0  0  0  0  0  0  0  0  0  0  0  0
  -54.1874  -26.0872   13.5074 C   0  0  0  0  0  0  0  0  0  0  0  0
  -52.2988  -29.4477    7.2080 C   0  0  0  0  0  0  0  0  0  0  0  0
  -51.5854  -30.6263    6.5726 C   0  0  0  0  0  0  0  0  0  0  0  0
  -53.9907  -25.6647   12.2420 N   0  0  0  0  0  0  0  0  0  0  0  0
  -53.9689  -27.3191   13.9938 N   0  0  0  0  0  0  0  0  0  0  0  0
  -53.2614  -29.5200   13.5582 N   0  0  0  0  0  0  0  0  0  0  0  0
  -54.6768  -25.1276   14.4204 N   0  0  0  0  0  0  0  0  0  0  0  0
  -52.0676  -29.3960    8.5914 N   0  0  0  0  0  0  0  0  0  0  0  0
  -52.9781  -28.6731    6.5425 O   0  0  0  0  0  0  0  0  0  0  0  0
  -51.2124  -30.3310    5.2434 O   0  0  0  0  0  0  0  0  0  0  0  0
  -50.1292  -28.6794    7.1705 F   0  0  0  0  0  0  0  0  0  0  0  0
  -47.4833  -29.5458    2.7592 H   0  0  0  0  0  0  0  0  0  0  0  0
  -46.5334  -28.0649    4.5086 H   0  0  0  0  0  0  0  0  0  0  0  0
  -53.4893  -25.2118    9.7021 H   0  0  0  0  0  0  0  0  0  0  0  0
  -52.6409  -26.8484    8.0860 H   0  0  0  0  0  0  0  0  0  0  0  0
  -49.6894  -30.6154    3.1036 H   0  0  0  0  0  0  0  0  0  0  0  0
  -47.7942  -27.6547    6.6056 H   0  0  0  0  0  0  0  0  0  0  0  0
  -52.5650  -29.8643   11.1318 H   0  0  0  0  0  0  0  0  0  0  0  0
  -52.2368  -31.5059    6.5756 H   0  0  0  0  0  0  0  0  0  0  0  0
  -50.6793  -30.8507    7.1443 H   0  0  0  0  0  0  0  0  0  0  0  0
  -52.9690  -30.2146   12.9062 H   0  0  0  0  0  0  0  0  0  0  0  0
  -53.4894  -29.7452   14.5018 H   0  0  0  0  0  0  0  0  0  0  0  0
  -54.8028  -24.1854   14.1134 H   0  0  0  0  0  0  0  0  0  0  0  0
  -54.7871  -25.3821   15.3801 H   0  0  0  0  0  0  0  0  0  0  0  0
  -51.4665  -30.1392    8.9661 H   0  0  0  0  0  0  0  0  0  0  0  0
  1  2  1  0  0  0  0
  1  5  2  0  0  0  0
  2  6  2  0  0  0  0
  3  4  2  0  0  0  0
  3  9  1  0  0  0  0
  4 10  1  0  0  0  0
  5 11  1  0  0  0  0
  6 12  1  0  0  0  0
  7  8  1  0  0  0  0
  7 10  2  0  0  0  0
  8  9  1  0  0  0  0
  8 13  2  0  0  0  0
  9 17  2  0  0  0  0
 10 21  1  0  0  0  0
 11 12  2  0  0  0  0
 11 23  1  0  0  0  0
 12 24  1  0  0  0  0
 13 18  1  0  0  0  0
 13 19  1  0  0  0  0
 14 17  1  0  0  0  0
 14 18  2  0  0  0  0
 14 20  1  0  0  0  0
 15 16  1  0  0  0  0
 15 21  1  0  0  0  0
 15 22  2  0  0  0  0
 16 23  1  0  0  0  0
  1 25  1  0  0  0  0
  2 26  1  0  0  0  0
  3 27  1  0  0  0  0
  4 28  1  0  0  0  0
  5 29  1  0  0  0  0
  6 30  1  0  0  0  0
  7 31  1  0  0  0  0
 16 32  1  0  0  0  0
 16 33  1  0  0  0  0
 19 34  1  0  0  0  0
 19 35  1  0  0  0  0
 20 36  1  0  0  0  0
 20 37  1  0  0  0  0
 21 38  1  0  0  0  0
M  END
> <POSIT::Probability>
0.42

> <POSIT::Method>
HYBRID

> <ReceptorTitle>
UCSF-P4432-REFINED_LIGAND-BOUND-STATE_A__DU__LA1_A-201(A)

> <OMEGA_C>
7iNAwgbu6sF6VmtAGwE+wmdF5MEcJpVAoitVwnbT0cEFniBBazxTwk5F2cGI0xFBnxxFwti+78E0
4HdA1dZAwi5t4sFG4rpAkRdTwuy15sGLVi1BWQlVwmYs38HjGzxBJRpWwn+X1MFs4DVBxDJSwr65
48GbMhhBWPJHwpzm7cFCrKFAk89FwhA+58EDJ8FAUARWwgKi4cFld1FB5L9YwpKy0MFIHlhB+zFR
wt+U68H4p+ZAcFdOwpoC9cHZUtJAbvZXwmZRzcE+30NBKOBXwnmN2sGX5l9BpQtVwu4o7MF17lhB
CbVawlgFycHSuWZBQ0VQwv4q68GGdglBmelTwmpi5cFaXNFAedlMwtql8sHIyadARoRIwlBv5cEi
deVA2+49wtBd7MHwlTBALCI6wu2E4ME3RpBAEPVVwt6xycGyOxtBTJBSwnfJ1sFOYAFB7sFGwmzs
9MEEoUZAQS0/wtg83cE/YdNAiUJSwirq7sGwGzJBdfJQwh8M/MH0atJAmLdKwkrO9sH/neRANeBT
wnS38cHof05BMfVVwiL27cFPB2hBFzZbwqB7wcFL0GFB+CVbwpsOy8G+FHZBtN1NwhId8cEOdQ9B

> <OMEGA_E>
0wT/wA==

> <OMEGA_NBR>
     15584

$$$$
CACHE3HI_1689_46
  -OEChem-03092622513D

 39 39  0     0  0  0  0  0  0999 V2000
  -53.2504  -26.9710   11.7345 C   0  0  0  0  0  0  0  0  0  0  0  0
  -54.3432  -26.3267    9.6783 C   0  0  0  0  0  0  0  0  0  0  0  0
  -52.3998  -27.8129   11.0180 C   0  0  0  0  0  0  0  0  0  0  0  0
  -53.4927  -27.1686    8.9617 C   0  0  0  0  0  0  0  0  0  0  0  0
  -54.2220  -26.2278   11.0645 C   0  0  0  0  0  0  0  0  0  0  0  0
  -52.5210  -27.9119    9.6318 C   0  0  0  0  0  0  0  0  0  0  0  0
  -47.9851  -29.4338    5.8566 C   0  0  0  0  0  0  0  0  0  0  0  0
  -51.6350  -28.9887    7.5255 C   0  0  0  0  0  0  0  0  0  0  0  0
  -57.0187  -27.7108   14.4702 C   0  0  0  0  0  0  0  0  0  0  0  0
  -55.1334  -25.3294   11.8304 C   0  0  0  0  0  0  0  0  0  0  0  0
  -49.3335  -29.4515    5.1597 C   0  0  0  0  0  0  0  0  0  0  0  0
  -50.3585  -30.3404    5.8488 C   0  0  0  0  0  0  0  0  0  0  0  0
  -46.9449  -29.2246    4.9764 N   0  0  0  0  0  0  0  0  0  0  0  0
  -51.6581  -28.7658    8.9051 N   0  0  0  0  0  0  0  0  0  0  0  0
  -50.6291  -29.9083    7.1934 N   0  0  0  0  0  0  0  0  0  0  0  0
  -56.1557  -26.0586   12.5362 N   0  0  0  0  0  0  0  0  0  0  0  0
  -47.8332  -29.5964    7.0634 O   0  0  0  0  0  0  0  0  0  0  0  0
  -52.3719  -28.4735    6.6882 O   0  0  0  0  0  0  0  0  0  0  0  0
  -54.5086  -27.6455   13.7639 O   0  0  0  0  0  0  0  0  0  0  0  0
  -56.1918  -28.6225   12.1603 O   0  0  0  0  0  0  0  0  0  0  0  0
  -55.8251  -27.6327   13.1550 S   0  0  0  0  0  0  0  0  0  0  0  0
  -53.1489  -26.9005   12.8141 H   0  0  0  0  0  0  0  0  0  0  0  0
  -55.0979  -25.7514    9.1481 H   0  0  0  0  0  0  0  0  0  0  0  0
  -51.6460  -28.3876   11.5504 H   0  0  0  0  0  0  0  0  0  0  0  0
  -53.5966  -27.2378    7.8818 H   0  0  0  0  0  0  0  0  0  0  0  0
  -56.9233  -28.6784   14.9650 H   0  0  0  0  0  0  0  0  0  0  0  0
  -58.0141  -27.5986   14.0387 H   0  0  0  0  0  0  0  0  0  0  0  0
  -56.8124  -26.9007   15.1711 H   0  0  0  0  0  0  0  0  0  0  0  0
  -54.5771  -24.7396   12.5720 H   0  0  0  0  0  0  0  0  0  0  0  0
  -55.6401  -24.6117   11.1705 H   0  0  0  0  0  0  0  0  0  0  0  0
  -49.1693  -29.8190    4.1400 H   0  0  0  0  0  0  0  0  0  0  0  0
  -49.7054  -28.4226    5.0914 H   0  0  0  0  0  0  0  0  0  0  0  0
  -50.0250  -31.3816    5.8958 H   0  0  0  0  0  0  0  0  0  0  0  0
  -51.3087  -30.3083    5.3068 H   0  0  0  0  0  0  0  0  0  0  0  0
  -47.1421  -29.1050    3.9879 H   0  0  0  0  0  0  0  0  0  0  0  0
  -45.9851  -29.1887    5.3030 H   0  0  0  0  0  0  0  0  0  0  0  0
  -50.9718  -29.2794    9.4528 H   0  0  0  0  0  0  0  0  0  0  0  0
  -50.0380  -30.2642    7.9431 H   0  0  0  0  0  0  0  0  0  0  0  0
  -57.1281  -25.9229   12.1871 H   0  0  0  0  0  0  0  0  0  0  0  0
  1  3  2  0  0  0  0
  1  5  1  0  0  0  0
  2  4  1  0  0  0  0
  2  5  2  0  0  0  0
  3  6  1  0  0  0  0
  4  6  2  0  0  0  0
  5 10  1  0  0  0  0
  6 14  1  0  0  0  0
  7 11  1  0  0  0  0
  7 13  1  0  0  0  0
  7 17  2  0  0  0  0
  8 14  1  0  0  0  0
  8 15  1  0  0  0  0
  8 18  2  0  0  0  0
  9 21  1  0  0  0  0
 10 16  1  0  0  0  0
 11 12  1  0  0  0  0
 12 15  1  0  0  0  0
 16 21  1  0  0  0  0
 19 21  2  0  0  0  0
 20 21  2  0  0  0  0
  1 22  1  0  0  0  0
  2 23  1  0  0  0  0
  3 24  1  0  0  0  0
  4 25  1  0  0  0  0
  9 26  1  0  0  0  0
  9 27  1  0  0  0  0
  9 28  1  0  0  0  0
 10 29  1  0  0  0  0
 10 30  1  0  0  0  0
 11 31  1  0  0  0  0
 11 32  1  0  0  0  0
 12 33  1  0  0  0  0
 12 34  1  0  0  0  0
 13 35  1  0  0  0  0
 13 36  1  0  0  0  0
 14 37  1  0  0  0  0
 15 38  1  0  0  0  0
 16 39  1  0  0  0  0
M  END
> <POSIT::Probability>
0.23

> <POSIT::Method>
HYBRID

> <ReceptorTitle>
UCSF-P4432-REFINED_LIGAND-BOUND-STATE_A__DU__LA1_A-201(A)

> <OMEGA_C>
XgBVwpLE18GnwDtBal9ZwiCd0sEw2hpBbZlRwt6A3sGsSTBBhfhVwlZZ2cEwYw9BUONYwnPS0cEF
CDFBhhVSwopL38HWGxpBxvA/wmd468EwabtAQopOwtXo58G70PBALxNkwq6v3cHwhWdBkIhcwoSi
ysFOST1BdFVFwrOc68ECHKVAHm9Jwgy58sEZKbtAnMc7wgzM6cFwPp9A7aFOwkkg5sFaew5BM4RK
wkxE78EnMOZAap9gwgN40MEslEhBP1U/wlXF7MERB+JA4HxRwr/J48H4BdZAyghawuop3cEWOVxB
csRgwvb65MGMkEJB8UxfwsIP3cHqelJBfphUwiI018HCBk1BNGRcwvACzsG4XhJBhJVOwrgZ48GJ
zjhB4GJWwhnn2cGFN/xAbrFjwmtt5cGMcG9BdA5owuvJ3MFVnmBB6D9jwqI018HkvHJB/k5awqXq
xcEGJ0lBgY9ewsrkxMF6ujJBYK1EwjuN7sEse4RAWNJGwoRh48Gm7KJAjhlIwn8N+8FOqrxAFDxN
wmh38sGF0alAeJE8wgPX6MF7OX9AxfA3wl6C6cFxsqlAFONLwjo86sGcPhdB5yZIwgEd8sElLv5A
IYNkwjJiz8Fq/kJB

> <OMEGA_E>
zH/XwA==

> <OMEGA_NBR>
     16851

$$$$
CACHE3HI_1689_67
  -OEChem-03092622513D

 48 49  0     0  0  0  0  0  0999 V2000
  -52.0734  -29.1551   11.3459 C   0  0  0  0  0  0  0  0  0  0  0  0
  -52.4995  -27.1687   10.0381 C   0  0  0  0  0  0  0  0  0  0  0  0
  -52.6206  -28.5329   12.4680 C   0  0  0  0  0  0  0  0  0  0  0  0
  -53.0466  -26.5465   11.1602 C   0  0  0  0  0  0  0  0  0  0  0  0
  -52.0131  -28.4728   10.1308 C   0  0  0  0  0  0  0  0  0  0  0  0
  -53.1070  -27.2288   12.3753 C   0  0  0  0  0  0  0  0  0  0  0  0
  -52.0874  -29.3650    7.7817 C   0  0  0  0  0  0  0  0  0  0  0  0
  -54.9578  -26.1006   13.6726 C   0  0  0  0  0  0  0  0  0  0  0  0
  -49.9245  -29.1727    6.6086 C   0  0  0  0  0  0  0  0  0  0  0  0
  -51.8810  -30.3414    5.5133 C   0  0  0  0  0  0  0  0  0  0  0  0
  -48.9796  -29.7816    5.5722 C   0  0  0  0  0  0  0  0  0  0  0  0
  -50.9368  -30.9506    4.4757 C   0  0  0  0  0  0  0  0  0  0  0  0
  -51.1572  -30.0507    6.8279 C   0  0  0  0  0  0  0  0  0  0  0  0
  -49.6926  -30.0905    4.2550 C   0  0  0  0  0  0  0  0  0  0  0  0
  -57.9696  -26.5983   13.4274 C   0  0  0  0  0  0  0  0  0  0  0  0
  -57.2135  -24.3633   12.5579 C   0  0  0  0  0  0  0  0  0  0  0  0
  -57.1041  -25.8750   12.4037 C   0  0  0  0  0  0  0  0  0  0  0  0
  -51.4591  -29.1039    8.9924 N   0  0  0  0  0  0  0  0  0  0  0  0
  -53.6535  -26.6068   13.4982 N   0  0  0  0  0  0  0  0  0  0  0  0
  -55.7252  -26.2931   12.5192 N   0  0  0  0  0  0  0  0  0  0  0  0
  -53.2390  -29.0977    7.4531 O   0  0  0  0  0  0  0  0  0  0  0  0
  -55.3915  -25.5588   14.6864 O   0  0  0  0  0  0  0  0  0  0  0  0
  -50.0840  -28.8742    3.6211 O   0  0  0  0  0  0  0  0  0  0  0  0
  -51.6986  -30.1721   11.4293 H   0  0  0  0  0  0  0  0  0  0  0  0
  -52.4563  -26.6268    9.0969 H   0  0  0  0  0  0  0  0  0  0  0  0
  -52.6630  -29.0743   13.4097 H   0  0  0  0  0  0  0  0  0  0  0  0
  -53.4229  -25.5301   11.0764 H   0  0  0  0  0  0  0  0  0  0  0  0
  -49.3882  -29.0783    7.5525 H   0  0  0  0  0  0  0  0  0  0  0  0
  -50.2138  -28.1736    6.2887 H   0  0  0  0  0  0  0  0  0  0  0  0
  -52.3214  -29.4310    5.1074 H   0  0  0  0  0  0  0  0  0  0  0  0
  -52.6918  -31.0460    5.7036 H   0  0  0  0  0  0  0  0  0  0  0  0
  -48.1389  -29.1002    5.3852 H   0  0  0  0  0  0  0  0  0  0  0  0
  -48.5277  -30.6984    5.9716 H   0  0  0  0  0  0  0  0  0  0  0  0
  -50.6367  -31.9574    4.7959 H   0  0  0  0  0  0  0  0  0  0  0  0
  -51.4608  -31.0975    3.5213 H   0  0  0  0  0  0  0  0  0  0  0  0
  -50.8639  -30.9760    7.2922 H   0  0  0  0  0  0  0  0  0  0  0  0
  -49.0024  -30.6106    3.5758 H   0  0  0  0  0  0  0  0  0  0  0  0
  -57.6670  -26.3358   14.4469 H   0  0  0  0  0  0  0  0  0  0  0  0
  -57.8820  -27.6847   13.3175 H   0  0  0  0  0  0  0  0  0  0  0  0
  -59.0255  -26.3282   13.3182 H   0  0  0  0  0  0  0  0  0  0  0  0
  -56.8938  -24.0416   13.5556 H   0  0  0  0  0  0  0  0  0  0  0  0
  -58.2437  -24.0278   12.4036 H   0  0  0  0  0  0  0  0  0  0  0  0
  -56.5767  -23.8511   11.8277 H   0  0  0  0  0  0  0  0  0  0  0  0
  -57.4314  -26.1582   11.3968 H   0  0  0  0  0  0  0  0  0  0  0  0
  -50.4881  -29.3947    9.0847 H   0  0  0  0  0  0  0  0  0  0  0  0
  -53.0241  -26.5044   14.3020 H   0  0  0  0  0  0  0  0  0  0  0  0
  -55.2878  -26.7183   11.7076 H   0  0  0  0  0  0  0  0  0  0  0  0
  -49.2707  -28.3704    3.4614 H   0  0  0  0  0  0  0  0  0  0  0  0
  1  3  2  0  0  0  0
  1  5  1  0  0  0  0
  2  4  1  0  0  0  0
  2  5  2  0  0  0  0
  3  6  1  0  0  0  0
  4  6  2  0  0  0  0
  5 18  1  0  0  0  0
  6 19  1  0  0  0  0
  7 13  1  0  0  0  0
  7 18  1  0  0  0  0
  7 21  2  0  0  0  0
  8 19  1  0  0  0  0
  8 20  1  0  0  0  0
  8 22  2  0  0  0  0
  9 11  1  0  0  0  0
  9 13  1  0  0  0  0
 10 12  1  0  0  0  0
 10 13  1  0  0  0  0
 11 14  1  0  0  0  0
 12 14  1  0  0  0  0
 14 23  1  0  0  0  0
 15 17  1  0  0  0  0
 16 17  1  0  0  0  0
 17 20  1  0  0  0  0
  1 24  1  0  0  0  0
  2 25  1  0  0  0  0
  3 26  1  0  0  0  0
  4 27  1  0  0  0  0
  9 28  1  0  0  0  0
  9 29  1  0  0  0  0
 10 30  1  0  0  0  0
 10 31  1  0  0  0  0
 11 32  1  0  0  0  0
 11 33  1  0  0  0  0
 12 34  1  0  0  0  0
 12 35  1  0  0  0  0
 13 36  1  0  0  0  0
 14 37  1  0  0  0  0
 15 38  1  0  0  0  0
 15 39  1  0  0  0  0
 15 40  1  0  0  0  0
 16 41  1  0  0  0  0
 16 42  1  0  0  0  0
 16 43  1  0  0  0  0
 17 44  1  0  0  0  0
 18 45  1  0  0  0  0
 19 46  1  0  0  0  0
 20 47  1  0  0  0  0
 23 48  1  0  0  0  0
M  END
> <POSIT::Probability>
0.23

> <POSIT::Method>
HYBRID

> <ReceptorTitle>
UCSF-P4432-REFINED_LIGAND-BOUND-STATE_A__DU__LA1_A-201(A)

> <OMEGA_C>
MEtQwqk96cGiiDVBdv9RwnlZ2cEknCBBeXtSwnZD5MH8fEdBvC9UwkRf1ME/kDJBXg1QwmDI48Ha
FyJBkG1UwpLU2cFFAUZBhVlQwofr6sFVA/lAw9Rbwg3O0MHgwlpBp7JHwsNh6cHgedNAMIZPwj27
8sHUbLBAJetDwsJA7sE2T7JAPL9Lws6a98GSOI9A9KBMwuZn8MHlfdpAP8VGwmK58ME6KYhA5uBn
wlDJ1MGZ1lZBqtpkwgnowsEz7UhBo2pkwvz/zsGKdUZBEtZNwtnU6MHN4A9BMZ1WwsHa1MGz+FdB
muZewklY0sGsTkhBsPRUwv3H6MH2f+5A6JBdwoB4zMF3+2pBDlZIwmz+5sHAwGdAXstOwnpg8cFV
3jZBRdNRwqUD1cG3jBFB7aZSwheY6ME1jlZBALFVwpA9zMG+ODFBiY1Fwk2g6MFarvFA+dpIwphj
4cEkPclAFUlRwqJy68E2cKNAbcRSwjte+ME4hLZAR45AwiPN6MFuU6xAXxxCwjyW9cEaF79A/YtK
wtKo/8FkeJlA2NdNwsDH+MGgXGFAm3RLwszO98HfWelAdwJEwozi9MFI2WRABqtmwrKv0sFaJmdB
KYdnwj563cF7FFVBEhpswiqg0sF5F1VBPZNjwkRVwMGm41hBkflowuc4wMEWdUZBhE5iwiTPvsF2
Pj1BtLllwvND0cFMWTZByvNJwk8o68H+WhFBuRhUwg4J1MED1WRBtiZdwii/1cEuUjtBKBVFwn32
4sFgh11A

> <OMEGA_E>
x1C8wA==

> <OMEGA_NBR>
     18301

$$$$
CACHE3HI_1690_68
  -OEChem-03092622513D

 33 36  0     1  0  0  0  0  0999 V2000
  -51.7305  -30.7980    5.8313 C   0  0  0  0  0  0  0  0  0  0  0  0
  -51.0585  -29.7486    6.4764 C   0  0  0  0  0  0  0  0  0  0  0  0
  -49.9228  -29.5592    5.7283 C   0  0  0  0  0  0  0  0  0  0  0  0
  -51.5084  -29.0584    7.6608 C   0  0  0  0  0  0  0  0  0  0  0  0
  -52.8233  -28.2636    9.0456 C   0  0  0  0  0  0  0  0  0  0  0  0
  -48.8087  -28.6765    5.8029 C   0  0  0  0  0  0  0  0  0  0  0  0
  -47.8330  -28.7583    4.8788 C   0  0  0  0  0  0  0  0  0  0  0  0
  -47.8920  -29.7308    3.8011 C   0  0  0  0  0  0  0  0  0  0  0  0
  -48.9415  -30.5637    3.7275 C   0  0  0  0  0  0  0  0  0  0  0  0
  -53.3262  -26.5036   12.0842 C   0  0  0  0  0  0  0  0  0  0  0  0
  -54.6060  -25.8723   11.6006 C   0  0  1  0  0  0  0  0  0  0  0  0
  -53.6421  -26.4851   10.6112 C   0  0  2  0  0  0  0  0  0  0  0  0
  -55.9204  -26.4940   11.9250 C   0  0  0  0  0  0  0  0  0  0  0  0
  -53.9462  -27.7932    9.8674 C   0  0  0  0  0  0  0  0  0  0  0  0
  -51.0854  -31.2514    4.7556 N   0  0  0  0  0  0  0  0  0  0  0  0
  -52.8422  -28.9275    7.9174 N   0  0  0  0  0  0  0  0  0  0  0  0
  -50.6867  -28.5150    8.5636 N   0  0  0  0  0  0  0  0  0  0  0  0
  -49.9609  -30.4884    4.6832 N   0  0  0  0  0  0  0  0  0  0  0  0
  -51.5761  -27.9762    9.5018 O   0  0  0  0  0  0  0  0  0  0  0  0
  -52.6713  -31.2604    6.0968 H   0  0  0  0  0  0  0  0  0  0  0  0
  -48.7508  -27.9451    6.6020 H   0  0  0  0  0  0  0  0  0  0  0  0
  -46.9756  -28.0954    4.9156 H   0  0  0  0  0  0  0  0  0  0  0  0
  -47.0853  -29.7613    3.0785 H   0  0  0  0  0  0  0  0  0  0  0  0
  -49.0440  -31.3099    2.9489 H   0  0  0  0  0  0  0  0  0  0  0  0
  -52.5430  -25.8438   12.4385 H   0  0  0  0  0  0  0  0  0  0  0  0
  -53.3827  -27.4471   12.6135 H   0  0  0  0  0  0  0  0  0  0  0  0
  -54.6676  -24.7897   11.6146 H   0  0  0  0  0  0  0  0  0  0  0  0
  -53.0824  -25.7975    9.9866 H   0  0  0  0  0  0  0  0  0  0  0  0
  -55.8640  -27.5944   11.9122 H   0  0  0  0  0  0  0  0  0  0  0  0
  -56.6989  -26.1990   11.2031 H   0  0  0  0  0  0  0  0  0  0  0  0
  -56.2751  -26.1974   12.9260 H   0  0  0  0  0  0  0  0  0  0  0  0
  -54.2464  -28.5531   10.6182 H   0  0  0  0  0  0  0  0  0  0  0  0
  -54.8595  -27.6374    9.2560 H   0  0  0  0  0  0  0  0  0  0  0  0
  1  2  1  0  0  0  0
  1 15  2  0  0  0  0
  2  3  2  0  0  0  0
  2  4  1  0  0  0  0
  3  6  1  0  0  0  0
  3 18  1  0  0  0  0
  4 16  1  0  0  0  0
  4 17  2  0  0  0  0
  5 14  1  0  0  0  0
  5 16  2  0  0  0  0
  5 19  1  0  0  0  0
  6  7  2  0  0  0  0
  7  8  1  0  0  0  0
  8  9  2  0  0  0  0
  9 18  1  0  0  0  0
 10 11  1  0  0  0  0
 10 12  1  0  0  0  0
 11 12  1  0  0  0  0
 11 13  1  0  0  0  0
 12 14  1  0  0  0  0
 15 18  1  0  0  0  0
 17 19  1  0  0  0  0
  1 20  1  0  0  0  0
  6 21  1  0  0  0  0
  7 22  1  0  0  0  0
  8 23  1  0  0  0  0
  9 24  1  0  0  0  0
 10 25  1  0  0  0  0
 10 26  1  0  0  0  0
 11 27  1  0  0  0  0
 12 28  1  0  0  0  0
 13 29  1  0  0  0  0
 13 30  1  0  0  0  0
 13 31  1  0  0  0  0
 14 32  1  0  0  0  0
 14 33  1  0  0  0  0
M  END
> <POSIT::Probability>
0.18

> <POSIT::Method>
HYBRID

> <ReceptorTitle>
UCSF-P4432-REFINED_LIGAND-BOUND-STATE_A__DU__LA1_A-201(A)

> <OMEGA_C>
/utOwkJi9sFKmrpA7jtMwhb97cGSPs9A/LBHwjJ57MFGTrdAmQhOwqx36MEwJfVABktTwswb4sGy
uhBBETxDwmhp5cG/sblAClU/wvEQ5sHjHpxAYpE/wqDY7cHcRXNAFcRDwoCC9MH2jm5A/01VwmgH
1MECWUFBgWxawnf6zsH2mzlBhJFWwmzh08FKxylBg65fwsXz08GgzD5B7chXwpFY3sH64B1Ba1dM
wvUC+sGCLZhAZV5TwnVr58GGW/1AKL9Kwqke5MFoBAlB+ddHwjLo88EW3ZVA4k1OwljP38GMBxhB
ZK9SwjkV+sEEGcNAyQBDwoaP38G2Q9NADec7wlnD4MHtTJ1AYVc8wiMX7sG8BkVAGC1Ewp56+sEE
ujxAFSxSwiXAzsH6A0dB6odVwqqT28H20ElBmKtawj1RxsGG1TlBaFRUwjRhzsEXyR9BuHRfwjzB
3MFbmD5BsstiwoWX0cEaQDNBpxlhwkSU0cH00E5BR/xYwrls5MFL5ClBLXBbwngZ3cGoGBRB

> <OMEGA_E>
nnaPwA==

> <OMEGA_NBR>
     19464

$$$$
CACHE3HI_1691_1
  -OEChem-03092622513D

 46 48  0     1  0  0  0  0  0999 V2000
  -50.9062  -29.5887    1.9192 C   0  0  0  0  0  0  0  0  0  0  0  0
  -49.6356  -29.6252    2.4827 C   0  0  0  0  0  0  0  0  0  0  0  0
  -51.9277  -29.0147    2.6596 C   0  0  0  0  0  0  0  0  0  0  0  0
  -50.5148  -28.5427    4.4094 C   0  0  0  0  0  0  0  0  0  0  0  0
  -49.4278  -29.0945    3.7509 C   0  0  0  0  0  0  0  0  0  0  0  0
  -45.6929  -29.1657    5.4998 C   0  0  0  0  0  0  0  0  0  0  0  0
  -46.8536  -29.2112    6.2444 C   0  0  0  0  0  0  0  0  0  0  0  0
  -45.8625  -29.0942    4.1324 C   0  0  0  0  0  0  0  0  0  0  0  0
  -48.1244  -29.1185    4.3615 C   0  0  0  0  0  0  0  0  0  0  0  0
  -44.4375  -32.6859    1.2527 C   0  0  0  0  0  0  0  0  0  0  0  0
  -44.6926  -31.2193    0.9083 C   0  0  0  0  0  0  0  0  0  0  0  0
  -43.7238  -32.6890    2.5996 C   0  0  0  0  0  0  0  0  0  0  0  0
  -43.3504  -30.5079    1.1033 C   0  0  1  0  0  0  0  0  0  0  0  0
  -44.3491  -29.1940    6.1400 C   0  0  0  0  0  0  0  0  0  0  0  0
  -46.7950  -29.2902    7.7347 C   0  0  0  0  0  0  0  0  0  0  0  0
  -43.4809  -29.0013    1.2091 C   0  0  0  0  0  0  0  0  0  0  0  0
  -44.7267  -28.5641    1.9753 C   0  0  0  0  0  0  0  0  0  0  0  0
  -51.7636  -28.4890    3.8944 N   0  0  0  0  0  0  0  0  0  0  0  0
  -48.0907  -29.1893    5.7060 N   0  0  0  0  0  0  0  0  0  0  0  0
  -47.0682  -29.0689    3.5269 N   0  0  0  0  0  0  0  0  0  0  0  0
  -44.7300  -29.0443    3.3297 N   0  0  0  0  0  0  0  0  0  0  0  0
  -42.9539  -30.4478    3.7346 O   0  0  0  0  0  0  0  0  0  0  0  0
  -41.3021  -31.6967    2.2729 O   0  0  0  0  0  0  0  0  0  0  0  0
  -42.6500  -31.2605    2.5754 S   0  0  0  0  0  0  0  0  0  0  0  0
  -51.0912  -29.9976    0.9324 H   0  0  0  0  0  0  0  0  0  0  0  0
  -48.8176  -30.0704    1.9219 H   0  0  0  0  0  0  0  0  0  0  0  0
  -52.9373  -28.9613    2.2657 H   0  0  0  0  0  0  0  0  0  0  0  0
  -50.4198  -28.1125    5.4023 H   0  0  0  0  0  0  0  0  0  0  0  0
  -45.3661  -33.2632    1.2918 H   0  0  0  0  0  0  0  0  0  0  0  0
  -43.7937  -33.1374    0.4882 H   0  0  0  0  0  0  0  0  0  0  0  0
  -45.0587  -31.1059   -0.1169 H   0  0  0  0  0  0  0  0  0  0  0  0
  -45.4531  -30.8100    1.5848 H   0  0  0  0  0  0  0  0  0  0  0  0
  -44.4359  -32.5575    3.4195 H   0  0  0  0  0  0  0  0  0  0  0  0
  -43.1340  -33.5939    2.7584 H   0  0  0  0  0  0  0  0  0  0  0  0
  -42.6785  -30.7669    0.2763 H   0  0  0  0  0  0  0  0  0  0  0  0
  -43.9819  -30.2230    6.2576 H   0  0  0  0  0  0  0  0  0  0  0  0
  -44.3746  -28.7511    7.1455 H   0  0  0  0  0  0  0  0  0  0  0  0
  -43.6230  -28.6354    5.5349 H   0  0  0  0  0  0  0  0  0  0  0  0
  -46.7846  -28.2898    8.1851 H   0  0  0  0  0  0  0  0  0  0  0  0
  -45.8830  -29.8006    8.0688 H   0  0  0  0  0  0  0  0  0  0  0  0
  -47.6629  -29.8377    8.1204 H   0  0  0  0  0  0  0  0  0  0  0  0
  -42.5843  -28.5892    1.6916 H   0  0  0  0  0  0  0  0  0  0  0  0
  -43.5243  -28.5749    0.1979 H   0  0  0  0  0  0  0  0  0  0  0  0
  -45.6377  -28.9264    1.4889 H   0  0  0  0  0  0  0  0  0  0  0  0
  -44.7770  -27.4717    2.0234 H   0  0  0  0  0  0  0  0  0  0  0  0
  -43.8535  -29.3692    3.7308 H   0  0  0  0  0  0  0  0  0  0  0  0
  1  2  2  0  0  0  0
  1  3  1  0  0  0  0
  2  5  1  0  0  0  0
  3 18  2  0  0  0  0
  4  5  2  0  0  0  0
  4 18  1  0  0  0  0
  5  9  1  0  0  0  0
  6  7  1  0  0  0  0
  6  8  2  0  0  0  0
  6 14  1  0  0  0  0
  7 15  1  0  0  0  0
  7 19  2  0  0  0  0
  8 20  1  0  0  0  0
  8 21  1  0  0  0  0
  9 19  1  0  0  0  0
  9 20  2  0  0  0  0
 10 11  1  0  0  0  0
 10 12  1  0  0  0  0
 11 13  1  0  0  0  0
 12 24  1  0  0  0  0
 13 16  1  0  0  0  0
 13 24  1  0  0  0  0
 16 17  1  0  0  0  0
 17 21  1  0  0  0  0
 22 24  2  0  0  0  0
 23 24  2  0  0  0  0
  1 25  1  0  0  0  0
  2 26  1  0  0  0  0
  3 27  1  0  0  0  0
  4 28  1  0  0  0  0
 10 29  1  0  0  0  0
 10 30  1  0  0  0  0
 11 31  1  0  0  0  0
 11 32  1  0  0  0  0
 12 33  1  0  0  0  0
 12 34  1  0  0  0  0
 13 35  1  0  0  0  0
 14 36  1  0  0  0  0
 14 37  1  0  0  0  0
 14 38  1  0  0  0  0
 15 39  1  0  0  0  0
 15 40  1  0  0  0  0
 15 41  1  0  0  0  0
 16 42  1  0  0  0  0
 16 43  1  0  0  0  0
 17 44  1  0  0  0  0
 17 45  1  0  0  0  0
 21 46  1  0  0  0  0
M  END
> <POSIT::Probability>
0.05

> <POSIT::Method>
FRED

> <ReceptorTitle>
UCSF-P4432-REFINED_LIGAND-BOUND-STATE_A__DU__LA1_A-201(A)

> <OMEGA_C>
959LwpO17ME7qfU/5opGwnEA7cEb5R5A7bVPwgke6MFtNypAMQ9KwmdX5MGDGY1ADrZFwpfB6MEO
D3BAfcU2wkNT6cEO/q9AIWo7wnCw6cEo0sdAO3M3wtvA6MFHPIRAb39Awpny6MGakYtAAMAxwme+
AsIXWaA/Q8UywhTB+cFhhGg/L+UuwonBAsK0XyZA0mYtwh4Q9MGvOI0/cmUxwl2N6cEKe8RAHi47
wkdS6sHGgvdAauwtwpsC6MFDxJo/H+gywj+D5MEl1/w/5g1PwpPp48HoPXlA1lxAwqOD6cG6l7ZA
3kU8wjON6MF+uWFAfOsywqNa6MGYGVVAxNArwgeV88FOA29AVDUlwseS/cGvdhFAmZkqwo0V+sHS
0iRAZV1MwgT778E9tG4/NUVDwhWQ8MEfAvY/xr9TwtWw58GmABFA2a1Jwmbm4MHe36xA4HY1wooN
BcLbWaU/wiwvwraMBMKK7/k+ETw0wvjY+MGWb++9/M81wuV69sGs2co/X74xwtw6AsIQ2VpALIks
wjNgBsKAiTBAzbYqwrUi9sEqeo0+de0vwrvI8cGKPshAmX8xwjsC5sHqp+RA8X0uwlIV5cEiHrFA
dCM7woJR4sH+9QJBKYg3wqxn7sHOGQFB06Y+wqCz7sEN7QFBUlYqwrq25MH6hNg/2BguwlKZ5MFV
o0o+Ao02wjxp58EJk74/pRszwvHF28HpfgFA82kvwgb06sFExW5A

> <OMEGA_E>
GerNwA==

> <OMEGA_NBR>
     20876

$$$$
CACHE3HI_1691_13
  -OEChem-03092622513D

 41 43  0     1  0  0  0  0  0999 V2000
  -48.7615  -29.1273    4.8338 C   0  0  0  0  0  0  0  0  0  0  0  0
  -49.8310  -29.2803    3.9755 C   0  0  0  0  0  0  0  0  0  0  0  0
  -44.1135  -29.2977    6.6087 C   0  0  0  0  0  0  0  0  0  0  0  0
  -44.0772  -29.2643    5.2318 C   0  0  0  0  0  0  0  0  0  0  0  0
  -46.3887  -29.5227    6.5434 C   0  0  0  0  0  0  0  0  0  0  0  0
  -47.5488  -29.5900    4.3658 C   0  0  0  0  0  0  0  0  0  0  0  0
  -46.3522  -29.4892    5.1663 C   0  0  0  0  0  0  0  0  0  0  0  0
  -48.5000  -30.2530    2.4100 C   0  0  0  0  0  0  0  0  0  0  0  0
  -46.9451  -32.5320   -0.9726 C   0  0  0  0  0  0  0  0  0  0  0  0
  -47.6055  -31.1635   -1.1372 C   0  0  0  0  0  0  0  0  0  0  0  0
  -45.5179  -32.4038   -0.4524 C   0  0  0  0  0  0  0  0  0  0  0  0
  -46.0587  -30.2491    0.6407 C   0  0  0  0  0  0  0  0  0  0  0  0
  -47.4981  -30.3057    0.1273 C   0  0  2  0  0  0  0  0  0  0  0  0
  -44.0438  -33.4866    2.0209 C   0  0  0  0  0  0  0  0  0  0  0  0
  -45.2695  -29.4274    7.2893 N   0  0  0  0  0  0  0  0  0  0  0  0
  -45.1963  -29.3597    4.4858 N   0  0  0  0  0  0  0  0  0  0  0  0
  -49.7357  -29.8408    2.7519 N   0  0  0  0  0  0  0  0  0  0  0  0
  -47.3812  -30.1608    3.1546 N   0  0  0  0  0  0  0  0  0  0  0  0
  -45.5178  -31.6301    0.8234 N   0  0  2  0  0  0  0  0  0  0  0  0
  -48.3654  -30.8319    1.1635 N   0  0  0  0  0  0  0  0  0  0  0  0
  -44.2886  -31.0832    3.0159 O   0  0  0  0  0  0  0  0  0  0  0  0
  -42.9569  -31.3966    0.8918 O   0  0  0  0  0  0  0  0  0  0  0  0
  -44.0755  -31.7347    1.7433 S   0  0  0  0  0  0  0  0  0  0  0  0
  -48.8815  -28.6710    5.8086 H   0  0  0  0  0  0  0  0  0  0  0  0
  -50.8243  -28.9465    4.2564 H   0  0  0  0  0  0  0  0  0  0  0  0
  -43.2141  -29.2200    7.2069 H   0  0  0  0  0  0  0  0  0  0  0  0
  -43.1478  -29.1610    4.6856 H   0  0  0  0  0  0  0  0  0  0  0  0
  -47.3126  -29.6264    7.1010 H   0  0  0  0  0  0  0  0  0  0  0  0
  -47.5352  -33.1389   -0.2749 H   0  0  0  0  0  0  0  0  0  0  0  0
  -46.9437  -33.0599   -1.9327 H   0  0  0  0  0  0  0  0  0  0  0  0
  -47.1116  -30.6335   -1.9621 H   0  0  0  0  0  0  0  0  0  0  0  0
  -48.6536  -31.2862   -1.4354 H   0  0  0  0  0  0  0  0  0  0  0  0
  -45.1138  -33.4060   -0.2726 H   0  0  0  0  0  0  0  0  0  0  0  0
  -44.8804  -31.9015   -1.1893 H   0  0  0  0  0  0  0  0  0  0  0  0
  -45.4260  -29.7075   -0.0731 H   0  0  0  0  0  0  0  0  0  0  0  0
  -46.0229  -29.7076    1.5934 H   0  0  0  0  0  0  0  0  0  0  0  0
  -47.8346  -29.2859   -0.1023 H   0  0  0  0  0  0  0  0  0  0  0  0
  -43.1582  -33.7257    2.6115 H   0  0  0  0  0  0  0  0  0  0  0  0
  -44.0047  -33.9877    1.0530 H   0  0  0  0  0  0  0  0  0  0  0  0
  -44.9501  -33.7663    2.5599 H   0  0  0  0  0  0  0  0  0  0  0  0
  -48.8958  -31.6658    0.9538 H   0  0  0  0  0  0  0  0  0  0  0  0
  1  2  1  0  0  0  0
  1  6  2  0  0  0  0
  2 17  2  0  0  0  0
  3  4  2  0  0  0  0
  3 15  1  0  0  0  0
  4 16  1  0  0  0  0
  5  7  1  0  0  0  0
  5 15  2  0  0  0  0
  6  7  1  0  0  0  0
  6 18  1  0  0  0  0
  7 16  2  0  0  0  0
  8 17  1  0  0  0  0
  8 18  2  0  0  0  0
  8 20  1  0  0  0  0
  9 10  1  0  0  0  0
  9 11  1  0  0  0  0
 10 13  1  0  0  0  0
 11 19  1  0  0  0  0
 12 13  1  0  0  0  0
 12 19  1  0  0  0  0
 13 20  1  0  0  0  0
 14 23  1  0  0  0  0
 19 23  1  0  0  0  0
 21 23  2  0  0  0  0
 22 23  2  0  0  0  0
  1 24  1  0  0  0  0
  2 25  1  0  0  0  0
  3 26  1  0  0  0  0
  4 27  1  0  0  0  0
  5 28  1  0  0  0  0
  9 29  1  0  0  0  0
  9 30  1  0  0  0  0
 10 31  1  0  0  0  0
 10 32  1  0  0  0  0
 11 33  1  0  0  0  0
 11 34  1  0  0  0  0
 12 35  1  0  0  0  0
 12 36  1  0  0  0  0
 13 37  1  0  0  0  0
 14 38  1  0  0  0  0
 14 39  1  0  0  0  0
 14 40  1  0  0  0  0
 20 41  1  0  0  0  0
M  END
> <POSIT::Probability>
0.02

> <POSIT::Method>
FRED

> <ReceptorTitle>
UCSF-P4432-REFINED_LIGAND-BOUND-STATE_A__DU__LA1_A-201(A)

> <OMEGA_C>
wwtDwqoE6cFOrppA/lJHwgo+6sERb35AOHQwwpxh6sFcetNAEE8wwjEd6sHlaqdA/o05wnEu7MEo
Y9FAATI+wmS47MFotItAqWg5ws3p68GOUqVAAABCwhkG8sHiPBpAwsc7wsAgAsIi/3i/DWw+wtNO
+cFTkJG/SBI2wnSdAcLopee+Jzw4whr+8cEIAyQ/Gf49whZy8sFgUwI+4CwwwkDyBcLBVgFA/BM1
wkhr68HjQelABMk0wpTg6sEFjI9AZPFGwgG67sEOHzBAYIY9wjtJ8cEr5ElAMRI2woYK/cHkylI/
MXZBwrWn9sFk7ZQ/jycxwl6q+MGiBEFA0tMrwi4s+8EoS2Q/WE0wwrTg/cFaI98/r4ZDwk9e5cEI
4LlAC0xLwluS58EaNIhARNsswpXC6cGunuZAVZcswshJ6cEe8JVAJUA9wtgC7cFyO+NAECQ+wj2O
BMJwvIy+V8Y7wlI9BMJQYve/UHI8wngR9cH+JPu/R51CwhpK+sGVube/iHQ0wsGfBcI4k4u+koUz
wko2/8FyOZi/LbQ1wgGp7cGgp5W9aBc4whSp7cH888s/mVY/wp5J6sEAbNG9B6IswijnBsLEIidA
yAQwwnHzB8IqyIY/5swzwroQB8Ip1SNARJVDwqBT/cE0LHQ/

> <OMEGA_E>
wCXwwA==

> <OMEGA_NBR>
     22191

$$$$
CACHE3HI_1691_18
  -OEChem-03092622513D

 43 45  0     1  0  0  0  0  0999 V2000
  -55.1025  -27.1757   10.5529 C   0  0  0  0  0  0  0  0  0  0  0  0
  -55.5102  -26.4623   11.6800 C   0  0  0  0  0  0  0  0  0  0  0  0
  -53.5874  -27.2793   12.8938 C   0  0  0  0  0  0  0  0  0  0  0  0
  -46.7822  -29.2981    6.7544 C   0  0  0  0  0  0  0  0  0  0  0  0
  -44.6089  -29.6943    6.2175 C   0  0  0  0  0  0  0  0  0  0  0  0
  -53.9371  -27.9409   10.5962 C   0  0  0  0  0  0  0  0  0  0  0  0
  -47.1255  -29.2010    5.4215 C   0  0  0  0  0  0  0  0  0  0  0  0
  -54.7528  -26.5142   12.8504 C   0  0  0  0  0  0  0  0  0  0  0  0
  -53.1798  -27.9927   11.7666 C   0  0  0  0  0  0  0  0  0  0  0  0
  -46.0918  -29.3740    4.5241 C   0  0  0  0  0  0  0  0  0  0  0  0
  -53.5055  -28.6995    9.3948 C   0  0  0  0  0  0  0  0  0  0  0  0
  -48.5294  -28.9270    5.0225 C   0  0  0  0  0  0  0  0  0  0  0  0
  -51.7948  -29.6647    5.5458 C   0  0  0  0  0  0  0  0  0  0  0  0
  -51.9025  -28.9077    6.8396 C   0  0  2  0  0  0  0  0  0  0  0  0
  -50.8407  -28.5345    5.8346 C   0  0  1  0  0  0  0  0  0  0  0  0
  -55.1891  -25.7513   14.0552 C   0  0  0  0  0  0  0  0  0  0  0  0
  -51.5622  -29.5776    8.1267 C   0  0  0  0  0  0  0  0  0  0  0  0
  -45.5290  -29.5446    7.1895 N   0  0  0  0  0  0  0  0  0  0  0  0
  -44.8166  -29.6227    4.8885 N   0  0  0  0  0  0  0  0  0  0  0  0
  -46.3809  -29.2861    3.1397 N   0  0  0  0  0  0  0  0  0  0  0  0
  -49.4602  -28.7768    6.0573 N   0  0  0  0  0  0  0  0  0  0  0  0
  -52.1478  -28.8709    9.2714 N   0  0  0  0  0  0  0  0  0  0  0  0
  -54.3530  -29.0979    8.6002 O   0  0  0  0  0  0  0  0  0  0  0  0
  -48.8128  -28.8644    3.8292 O   0  0  0  0  0  0  0  0  0  0  0  0
  -52.0580  -28.7248   11.8188 F   0  0  0  0  0  0  0  0  0  0  0  0
  -55.7008  -27.1280    9.6464 H   0  0  0  0  0  0  0  0  0  0  0  0
  -56.4196  -25.8687   11.6371 H   0  0  0  0  0  0  0  0  0  0  0  0
  -52.9907  -27.3259   13.8008 H   0  0  0  0  0  0  0  0  0  0  0  0
  -47.5202  -29.1786    7.5417 H   0  0  0  0  0  0  0  0  0  0  0  0
  -43.5932  -29.8908    6.5386 H   0  0  0  0  0  0  0  0  0  0  0  0
  -51.4132  -30.6785    5.5694 H   0  0  0  0  0  0  0  0  0  0  0  0
  -52.5619  -29.4972    4.7992 H   0  0  0  0  0  0  0  0  0  0  0  0
  -52.7366  -28.2249    6.9538 H   0  0  0  0  0  0  0  0  0  0  0  0
  -51.0030  -27.6138    5.2834 H   0  0  0  0  0  0  0  0  0  0  0  0
  -55.8483  -26.3550   14.6928 H   0  0  0  0  0  0  0  0  0  0  0  0
  -55.7544  -24.8526   13.7747 H   0  0  0  0  0  0  0  0  0  0  0  0
  -54.3190  -25.4434   14.6482 H   0  0  0  0  0  0  0  0  0  0  0  0
  -51.9310  -30.6190    8.1427 H   0  0  0  0  0  0  0  0  0  0  0  0
  -50.4683  -29.6313    8.2734 H   0  0  0  0  0  0  0  0  0  0  0  0
  -47.3265  -29.1554    2.8536 H   0  0  0  0  0  0  0  0  0  0  0  0
  -45.6513  -29.4621    2.4841 H   0  0  0  0  0  0  0  0  0  0  0  0
  -49.1378  -28.9087    7.0230 H   0  0  0  0  0  0  0  0  0  0  0  0
  -51.4950  -28.4683    9.9204 H   0  0  0  0  0  0  0  0  0  0  0  0
  1  2  2  0  0  0  0
  1  6  1  0  0  0  0
  2  8  1  0  0  0  0
  3  8  2  0  0  0  0
  3  9  1  0  0  0  0
  4  7  1  0  0  0  0
  4 18  2  0  0  0  0
  5 18  1  0  0  0  0
  5 19  2  0  0  0  0
  6  9  2  0  0  0  0
  6 11  1  0  0  0  0
  7 10  2  0  0  0  0
  7 12  1  0  0  0  0
  8 16  1  0  0  0  0
  9 25  1  0  0  0  0
 10 19  1  0  0  0  0
 10 20  1  0  0  0  0
 11 22  1  0  0  0  0
 11 23  2  0  0  0  0
 12 21  1  0  0  0  0
 12 24  2  0  0  0  0
 13 14  1  0  0  0  0
 13 15  1  0  0  0  0
 14 15  1  0  0  0  0
 14 17  1  0  0  0  0
 15 21  1  0  0  0  0
 17 22  1  0  0  0  0
  1 26  1  0  0  0  0
  2 27  1  0  0  0  0
  3 28  1  0  0  0  0
  4 29  1  0  0  0  0
  5 30  1  0  0  0  0
 13 31  1  0  0  0  0
 13 32  1  0  0  0  0
 14 33  1  0  0  0  0
 15 34  1  0  0  0  0
 16 35  1  0  0  0  0
 16 36  1  0  0  0  0
 16 37  1  0  0  0  0
 17 38  1  0  0  0  0
 17 39  1  0  0  0  0
 20 40  1  0  0  0  0
 20 41  1  0  0  0  0
 21 42  1  0  0  0  0
 22 43  1  0  0  0  0
M  END
> <POSIT::Probability>
0.23

> <POSIT::Method>
HYBRID

> <ReceptorTitle>
UCSF-P4432-REFINED_LIGAND-BOUND-STATE_A__DU__LA1_A-201(A)

> <OMEGA_C>
Amlcwuxn2cF82ChBbQpewtiy08F74TpBf1lWwg882sHlTE5BAiE7wmxi6sE9JNhAem8ywuWN7cEN
9sZAor9Xwt6G38EwiilBgoA8wrOb6cHMfK1A6QJbwggd1MFIm01BHrhUwg/x38EBRDxBBl44wg3+
6sGLxZBAqwVWwoOY5cEEURZBIB5Cwmdq58GOuKBA6C1Pwl9R7cEUd7FAHJxPwgdD58HG3dpA61xL
wppG5MFGtbpArcFcwqMCzsE24mBBqz9OwgKf7MEVBwJBvx02wmlb7MFJEOZAK0Qzwkf77MGxbpxA
CIY5wtlJ6sEU8UhAPtdFwu825sE21cFAUpdQwoL35sGkVxRBfmlZwnfI6MFemglBVUBDwjTq5sEm
EXVAaDtQwnLM5cGkGT1Bk81ewh4G2cHQVxpBs61hwh3zzsFtMTpBevZTwmOb2sEM0FxBuRQ+wrht
6cFlVfFAdl8uwmYg78GYPNFAE6dNwoZt9cHeOLJAbz9Swi3668GmkplAU/JSwpHM4cHahd5ADANM
whfp3MHMEalAnWRfwhLX0sHbFWtBfQRfwibSxsH8ZFxBsUZZwgWMy8HpXmpBTLlPwp7z9MF0SAJB
kt9Jws4M7cHcXwRBX049wjk+6cHAoTZA8Jo2wlyy68HY+h5AD41EwhZF58EevOBA1vpNwg6/48Hk
uR5B

> <OMEGA_E>
8KCtwA==

> <OMEGA_NBR>
     23551

$$$$
CACHE3HI_1691_25
  -OEChem-03092622513D

 45 46  0     0  0  0  0  0  0999 V2000
  -48.2636  -30.4916    3.7980 C   0  0  0  0  0  0  0  0  0  0  0  0
  -47.8810  -28.6383    5.3002 C   0  0  0  0  0  0  0  0  0  0  0  0
  -49.4980  -30.7267    4.4035 C   0  0  0  0  0  0  0  0  0  0  0  0
  -49.1154  -28.8734    5.9057 C   0  0  0  0  0  0  0  0  0  0  0  0
  -53.7088  -25.7560   10.7539 C   0  0  0  0  0  0  0  0  0  0  0  0
  -53.3404  -27.3399   12.5408 C   0  0  0  0  0  0  0  0  0  0  0  0
  -53.0572  -26.6096    9.8637 C   0  0  0  0  0  0  0  0  0  0  0  0
  -52.6889  -28.1936   11.6507 C   0  0  0  0  0  0  0  0  0  0  0  0
  -47.4552  -29.4471    4.2464 C   0  0  0  0  0  0  0  0  0  0  0  0
  -49.9238  -29.9179    5.4573 C   0  0  0  0  0  0  0  0  0  0  0  0
  -53.8505  -26.1214   12.0925 C   0  0  0  0  0  0  0  0  0  0  0  0
  -52.5472  -27.8282   10.3120 C   0  0  0  0  0  0  0  0  0  0  0  0
  -52.1128  -28.8366    8.0370 C   0  0  0  0  0  0  0  0  0  0  0  0
  -56.9164  -26.4002   12.2206 C   0  0  0  0  0  0  0  0  0  0  0  0
  -46.1359  -29.1945    3.5986 C   0  0  0  0  0  0  0  0  0  0  0  0
  -51.2433  -30.1702    6.1049 C   0  0  0  0  0  0  0  0  0  0  0  0
  -54.5448  -25.2079   13.0453 C   0  0  0  0  0  0  0  0  0  0  0  0
  -45.1386  -30.1563    3.9930 N   0  0  0  0  0  0  0  0  0  0  0  0
  -51.8865  -28.6940    9.4089 N   0  0  0  0  0  0  0  0  0  0  0  0
  -51.2502  -29.8001    7.4970 N   0  0  0  0  0  0  0  0  0  0  0  0
  -52.9385  -28.2247    7.3638 O   0  0  0  0  0  0  0  0  0  0  0  0
  -55.5182  -27.3273   14.2252 O   0  0  0  0  0  0  0  0  0  0  0  0
  -56.7199  -25.1231   14.4927 O   0  0  0  0  0  0  0  0  0  0  0  0
  -55.9573  -26.0543   13.6773 S   0  0  0  0  0  0  0  0  0  0  0  0
  -47.9406  -31.1259    2.9768 H   0  0  0  0  0  0  0  0  0  0  0  0
  -47.2571  -27.8231    5.6571 H   0  0  0  0  0  0  0  0  0  0  0  0
  -50.1215  -31.5426    4.0473 H   0  0  0  0  0  0  0  0  0  0  0  0
  -49.4391  -28.2381    6.7258 H   0  0  0  0  0  0  0  0  0  0  0  0
  -54.1027  -24.8086   10.3959 H   0  0  0  0  0  0  0  0  0  0  0  0
  -53.4460  -27.6324   13.5824 H   0  0  0  0  0  0  0  0  0  0  0  0
  -52.9526  -26.3149    8.8226 H   0  0  0  0  0  0  0  0  0  0  0  0
  -52.2952  -29.1406   12.0114 H   0  0  0  0  0  0  0  0  0  0  0  0
  -57.8213  -26.9299   12.5217 H   0  0  0  0  0  0  0  0  0  0  0  0
  -56.3160  -27.0185   11.5521 H   0  0  0  0  0  0  0  0  0  0  0  0
  -57.1689  -25.4532   11.7415 H   0  0  0  0  0  0  0  0  0  0  0  0
  -46.2178  -29.2345    2.5036 H   0  0  0  0  0  0  0  0  0  0  0  0
  -45.7470  -28.1983    3.8509 H   0  0  0  0  0  0  0  0  0  0  0  0
  -52.0432  -29.6033    5.6088 H   0  0  0  0  0  0  0  0  0  0  0  0
  -51.5244  -31.2309    6.0473 H   0  0  0  0  0  0  0  0  0  0  0  0
  -54.8919  -24.2879   12.5613 H   0  0  0  0  0  0  0  0  0  0  0  0
  -53.9098  -24.9316   13.8946 H   0  0  0  0  0  0  0  0  0  0  0  0
  -44.2483  -29.9446    3.5361 H   0  0  0  0  0  0  0  0  0  0  0  0
  -45.4014  -31.0887    3.6636 H   0  0  0  0  0  0  0  0  0  0  0  0
  -51.1590  -29.2840    9.8060 H   0  0  0  0  0  0  0  0  0  0  0  0
  -50.5703  -30.2389    8.1142 H   0  0  0  0  0  0  0  0  0  0  0  0
  1  3  2  0  0  0  0
  1  9  1  0  0  0  0
  2  4  1  0  0  0  0
  2  9  2  0  0  0  0
  3 10  1  0  0  0  0
  4 10  2  0  0  0  0
  5  7  2  0  0  0  0
  5 11  1  0  0  0  0
  6  8  1  0  0  0  0
  6 11  2  0  0  0  0
  7 12  1  0  0  0  0
  8 12  2  0  0  0  0
  9 15  1  0  0  0  0
 10 16  1  0  0  0  0
 11 17  1  0  0  0  0
 12 19  1  0  0  0  0
 13 19  1  0  0  0  0
 13 20  1  0  0  0  0
 13 21  2  0  0  0  0
 14 24  1  0  0  0  0
 15 18  1  0  0  0  0
 16 20  1  0  0  0  0
 17 24  1  0  0  0  0
 22 24  2  0  0  0  0
 23 24  2  0  0  0  0
  1 25  1  0  0  0  0
  2 26  1  0  0  0  0
  3 27  1  0  0  0  0
  4 28  1  0  0  0  0
  5 29  1  0  0  0  0
  6 30  1  0  0  0  0
  7 31  1  0  0  0  0
  8 32  1  0  0  0  0
 14 33  1  0  0  0  0
 14 34  1  0  0  0  0
 14 35  1  0  0  0  0
 15 36  1  0  0  0  0
 15 37  1  0  0  0  0
 16 38  1  0  0  0  0
 16 39  1  0  0  0  0
 17 40  1  0  0  0  0
 17 41  1  0  0  0  0
 18 42  1  0  0  0  0
 18 43  1  0  0  0  0
 19 44  1  0  0  0  0
 20 45  1  0  0  0  0
M  END
> <POSIT::Probability>
0.42

> <POSIT::Method>
HYBRID

> <ReceptorTitle>
UCSF-P4432-REFINED_LIGAND-BOUND-STATE_A__DU__LA1_A-201(A)

> <OMEGA_C>
6w1BwrLu88EfEnNAJoY/wjsb5cEhm6lA9P1Fwk/Q9cFj6YxAInZEwsX85sFy+7xA19VWwkUMzsEc
ECxBlVxVwi642sEup0hBnTpUwong1MHm0R1BYsFSwnCM4cE0aTpBHNI9wrKT68Fr4odA/rFHwtlX
78EYoq5A4mZXwpL40MEOe0FBUTBSwieg3sEH/iRBd3NQwk2x5sG3lwBBX6pjwpMz08Frh0NBIIs4
wl+O6cFuT2ZAH/lMwqZc8cFAW8NA1y1awrCpycHAuVBB8o00wjFA8cEtjX9AwotPwmKN5cEDixZB
LQBNwpFm7sHV5+9AA8FTwivM4cFapOtAohJewkqe2sFsmmNBJuFiwi/8yMEK4mdBOtRfwiVv0ME7
1lpBMcM/wswB+cHWgz5APQc9wr+V3sGkBrVAcHxIwjZX/MFUg4FAsMFFwpfn4cHCOddAJWlYwgB4
xsHPVSZBtshVwhsP3cF0UVlBa89TwtaE0sErKQ1BUC5Rwt8f6cGyLkBBDklnwmlw18ESWUhBnUNh
wucl2MFU1ThB+axkwhOgy8FY3TtBDt84wing6cHmOiBA4vw2whqW4cHMdHZANixQwnjT7MGte7NA
BRlOwuDY+cFkg8FAWJFbwq9NwsES+0hBm6NXwgF0x8FCUF5BOP4wwpGO78HKT2JAFJs1wqi1+MER
eWpA1qJMwplF6sFM5RxB/EdKwl3p8cG20wFB

> <OMEGA_E>
jx4fwQ==

> <OMEGA_NBR>
     24945

$$$$
CACHE3HI_1691_40
  -OEChem-03092622513D

 39 40  0     1  0  0  0  0  0999 V2000
  -55.3097  -25.0931   13.3512 C   0  0  0  0  0  0  0  0  0  0  0  0
  -55.9398  -25.2804   12.1209 C   0  0  0  0  0  0  0  0  0  0  0  0
  -54.1207  -25.7650   13.6346 C   0  0  0  0  0  0  0  0  0  0  0  0
  -55.3810  -26.1392   11.1741 C   0  0  0  0  0  0  0  0  0  0  0  0
  -53.5619  -26.6238   12.6878 C   0  0  0  0  0  0  0  0  0  0  0  0
  -48.6069  -28.5759    6.6796 C   0  0  0  0  0  0  0  0  0  0  0  0
  -47.5777  -28.6222    5.7460 C   0  0  0  0  0  0  0  0  0  0  0  0
  -50.0790  -29.4390    5.0227 C   0  0  0  0  0  0  0  0  0  0  0  0
  -54.1920  -26.8111   11.4576 C   0  0  0  0  0  0  0  0  0  0  0  0
  -49.8843  -28.9902    6.3195 C   0  0  0  0  0  0  0  0  0  0  0  0
  -47.8751  -29.0874    4.4752 C   0  0  0  0  0  0  0  0  0  0  0  0
  -52.2747  -29.3345    7.0362 C   0  0  0  0  0  0  0  0  0  0  0  0
  -52.4502  -28.4315   10.6082 C   0  0  0  0  0  0  0  0  0  0  0  0
  -54.1831  -30.2128    8.4110 C   0  0  0  0  0  0  0  0  0  0  0  0
  -53.1111  -29.1399    8.2997 C   0  0  1  0  0  0  0  0  0  0  0  0
  -49.1035  -29.4983    4.0885 N   0  0  0  0  0  0  0  0  0  0  0  0
  -46.8156  -29.1289    3.5351 N   0  0  0  0  0  0  0  0  0  0  0  0
  -50.9521  -28.9547    7.2480 N   0  0  0  0  0  0  0  0  0  0  0  0
  -53.6250  -27.6823   10.4978 N   0  0  0  0  0  0  0  0  0  0  0  0
  -52.2298  -29.1711    9.4380 N   0  0  0  0  0  0  0  0  0  0  0  0
  -52.7538  -29.8079    6.0104 O   0  0  0  0  0  0  0  0  0  0  0  0
  -51.6917  -28.4656   11.5741 O   0  0  0  0  0  0  0  0  0  0  0  0
  -55.7455  -24.4255   14.0886 H   0  0  0  0  0  0  0  0  0  0  0  0
  -56.8664  -24.7585   11.9004 H   0  0  0  0  0  0  0  0  0  0  0  0
  -53.6300  -25.6200   14.5925 H   0  0  0  0  0  0  0  0  0  0  0  0
  -55.8823  -26.2777   10.2193 H   0  0  0  0  0  0  0  0  0  0  0  0
  -52.6349  -27.1423   12.9204 H   0  0  0  0  0  0  0  0  0  0  0  0
  -48.4029  -28.2153    7.6843 H   0  0  0  0  0  0  0  0  0  0  0  0
  -46.5776  -28.3011    6.0189 H   0  0  0  0  0  0  0  0  0  0  0  0
  -51.0534  -29.7754    4.6818 H   0  0  0  0  0  0  0  0  0  0  0  0
  -53.7348  -31.2118    8.4268 H   0  0  0  0  0  0  0  0  0  0  0  0
  -54.7668  -30.0955    9.3314 H   0  0  0  0  0  0  0  0  0  0  0  0
  -54.8814  -30.1660    7.5688 H   0  0  0  0  0  0  0  0  0  0  0  0
  -53.5693  -28.1449    8.2846 H   0  0  0  0  0  0  0  0  0  0  0  0
  -45.9222  -28.7772    3.8022 H   0  0  0  0  0  0  0  0  0  0  0  0
  -47.0137  -29.4090    2.5995 H   0  0  0  0  0  0  0  0  0  0  0  0
  -50.7096  -28.6097    8.1741 H   0  0  0  0  0  0  0  0  0  0  0  0
  -54.1336  -27.7745    9.6216 H   0  0  0  0  0  0  0  0  0  0  0  0
  -51.3849  -29.7356    9.3768 H   0  0  0  0  0  0  0  0  0  0  0  0
  1  2  1  0  0  0  0
  1  3  2  0  0  0  0
  2  4  2  0  0  0  0
  3  5  1  0  0  0  0
  4  9  1  0  0  0  0
  5  9  2  0  0  0  0
  6  7  2  0  0  0  0
  6 10  1  0  0  0  0
  7 11  1  0  0  0  0
  8 10  2  0  0  0  0
  8 16  1  0  0  0  0
  9 19  1  0  0  0  0
 10 18  1  0  0  0  0
 11 16  2  0  0  0  0
 11 17  1  0  0  0  0
 12 15  1  0  0  0  0
 12 18  1  0  0  0  0
 12 21  2  0  0  0  0
 13 19  1  0  0  0  0
 13 20  1  0  0  0  0
 13 22  2  0  0  0  0
 14 15  1  0  0  0  0
 15 20  1  0  0  0  0
  1 23  1  0  0  0  0
  2 24  1  0  0  0  0
  3 25  1  0  0  0  0
  4 26  1  0  0  0  0
  5 27  1  0  0  0  0
  6 28  1  0  0  0  0
  7 29  1  0  0  0  0
  8 30  1  0  0  0  0
 14 31  1  0  0  0  0
 14 32  1  0  0  0  0
 14 33  1  0  0  0  0
 15 34  1  0  0  0  0
 17 35  1  0  0  0  0
 17 36  1  0  0  0  0
 18 37  1  0  0  0  0
 19 38  1  0  0  0  0
 20 39  1  0  0  0  0
M  END
> <POSIT::Probability>
0.33

> <POSIT::Method>
HYBRID

> <ReceptorTitle>
UCSF-P4432-REFINED_LIGAND-BOUND-STATE_A__DU__LA1_A-201(A)

> <OMEGA_C>
GD1dwru+yMFbnlVBV8Jfwls+ysEq70FBlXtYwsoezsErJ1pBJoZdwg4d0cFHyTJBZD9Wwnz91MFI
AUtBcm1CwnOb5MGdv9VAjU8+wlf65MH/3rdA3VBIwiCD68EauqBAl8RYwiZ91sE8UjdBkYlHwujr
58F6OcpAG4A/wguz6MG2NI9AThlRwiGt6sGqKOFA+sxRwrRz48EOuylBdLtYwriz8cFDkwZBvnFU
wo4e6cFrywRBAmpEwpL868Gb1IJAM0M7wv0H6cFHP2JA6M5LwkSj58FS7+dA9n9Wwlh13cHK9idB
SOtQwlxe6cHeARdB7gNTwpR27sHLVMBAS8ROwnS548F8LzlBYPtewoFnw8Eaa2FBOHdjwl0RxsHs
Zz5BIYVWwsn1zMECe2lBb4dfwrY40sFegiNBJIpSwmMj2cEMuk5Bm5xBwgS54cEs5vVAdU86wqRo
4sHSmsBAuzZMwhk07sEE0ZVAbPBWwtyx+cEG1AZBLhFbwp/D8MGOTRVBlIZbwg9U8cHVM/JA7EZW
wrgo4cHVjQRBX7A3wr035sGkVnNAFA48wrlF68HuXSZAmNZKwsPg5MEeyQJB14hYwkIy3sEf8hlB
F4pNwnzi7cFsBxZB

> <OMEGA_E>
FtXZwA==

> <OMEGA_NBR>
     26219

$$$$
CACHE3HI_1691_48
  -OEChem-03092622513D

 42 43  0     0  0  0  0  0  0999 V2000
  -46.8468  -28.8898    1.5144 C   0  0  0  0  0  0  0  0  0  0  0  0
  -53.4985  -27.7008   12.6210 C   0  0  0  0  0  0  0  0  0  0  0  0
  -54.0936  -26.0445   10.9656 C   0  0  0  0  0  0  0  0  0  0  0  0
  -48.0409  -28.8767    2.2265 C   0  0  0  0  0  0  0  0  0  0  0  0
  -52.7074  -28.3577   11.6785 C   0  0  0  0  0  0  0  0  0  0  0  0
  -53.3025  -26.7014   10.0231 C   0  0  0  0  0  0  0  0  0  0  0  0
  -45.7140  -29.3644    2.1567 C   0  0  0  0  0  0  0  0  0  0  0  0
  -46.8792  -29.7866    4.0918 C   0  0  0  0  0  0  0  0  0  0  0  0
  -54.1915  -26.5441   12.2644 C   0  0  0  0  0  0  0  0  0  0  0  0
  -52.6095  -27.8582   10.3797 C   0  0  0  0  0  0  0  0  0  0  0  0
  -48.0660  -29.3319    3.5400 C   0  0  0  0  0  0  0  0  0  0  0  0
  -49.4443  -29.7506    5.6057 C   0  0  0  0  0  0  0  0  0  0  0  0
  -51.9901  -28.5791    8.0392 C   0  0  0  0  0  0  0  0  0  0  0  0
  -56.0447  -27.9943   13.6188 C   0  0  0  0  0  0  0  0  0  0  0  0
  -55.0396  -25.8428   13.2711 C   0  0  0  0  0  0  0  0  0  0  0  0
  -50.8933  -29.5811    6.0240 C   0  0  0  0  0  0  0  0  0  0  0  0
  -45.6999  -29.8145    3.4315 N   0  0  0  0  0  0  0  0  0  0  0  0
  -49.2662  -29.3319    4.2905 N   0  0  0  0  0  0  0  0  0  0  0  0
  -51.8181  -28.5151    9.4372 N   0  0  0  0  0  0  0  0  0  0  0  0
  -50.9773  -29.3406    7.4470 N   0  0  0  0  0  0  0  0  0  0  0  0
  -55.5998  -26.7480   14.2415 N   0  0  0  0  0  0  0  0  0  0  0  0
  -48.5872  -30.1708    6.3765 O   0  0  0  0  0  0  0  0  0  0  0  0
  -52.8950  -28.0493    7.3990 O   0  0  0  0  0  0  0  0  0  0  0  0
  -46.8044  -28.5391    0.4897 H   0  0  0  0  0  0  0  0  0  0  0  0
  -53.5692  -28.0973   13.6303 H   0  0  0  0  0  0  0  0  0  0  0  0
  -54.6306  -25.1439   10.6791 H   0  0  0  0  0  0  0  0  0  0  0  0
  -48.9457  -28.5103    1.7487 H   0  0  0  0  0  0  0  0  0  0  0  0
  -52.1716  -29.2585   11.9673 H   0  0  0  0  0  0  0  0  0  0  0  0
  -53.2339  -26.3030    9.0139 H   0  0  0  0  0  0  0  0  0  0  0  0
  -44.7574  -29.3946    1.6454 H   0  0  0  0  0  0  0  0  0  0  0  0
  -46.8357  -30.1540    5.1126 H   0  0  0  0  0  0  0  0  0  0  0  0
  -56.7939  -27.7928   12.8477 H   0  0  0  0  0  0  0  0  0  0  0  0
  -55.1974  -28.5102   13.1586 H   0  0  0  0  0  0  0  0  0  0  0  0
  -56.4838  -28.6562   14.3704 H   0  0  0  0  0  0  0  0  0  0  0  0
  -54.4603  -25.0877   13.8202 H   0  0  0  0  0  0  0  0  0  0  0  0
  -55.8772  -25.3148   12.7948 H   0  0  0  0  0  0  0  0  0  0  0  0
  -51.4678  -30.4843    5.8014 H   0  0  0  0  0  0  0  0  0  0  0  0
  -51.3279  -28.7236    5.5020 H   0  0  0  0  0  0  0  0  0  0  0  0
  -50.0859  -28.9801    3.7996 H   0  0  0  0  0  0  0  0  0  0  0  0
  -51.0047  -29.0173    9.8099 H   0  0  0  0  0  0  0  0  0  0  0  0
  -50.2432  -29.7194    8.0373 H   0  0  0  0  0  0  0  0  0  0  0  0
  -54.9006  -26.9736   14.9567 H   0  0  0  0  0  0  0  0  0  0  0  0
  1  4  2  0  0  0  0
  1  7  1  0  0  0  0
  2  5  2  0  0  0  0
  2  9  1  0  0  0  0
  3  6  1  0  0  0  0
  3  9  2  0  0  0  0
  4 11  1  0  0  0  0
  5 10  1  0  0  0  0
  6 10  2  0  0  0  0
  7 17  2  0  0  0  0
  8 11  2  0  0  0  0
  8 17  1  0  0  0  0
  9 15  1  0  0  0  0
 10 19  1  0  0  0  0
 11 18  1  0  0  0  0
 12 16  1  0  0  0  0
 12 18  1  0  0  0  0
 12 22  2  0  0  0  0
 13 19  1  0  0  0  0
 13 20  1  0  0  0  0
 13 23  2  0  0  0  0
 14 21  1  0  0  0  0
 15 21  1  0  0  0  0
 16 20  1  0  0  0  0
  1 24  1  0  0  0  0
  2 25  1  0  0  0  0
  3 26  1  0  0  0  0
  4 27  1  0  0  0  0
  5 28  1  0  0  0  0
  6 29  1  0  0  0  0
  7 30  1  0  0  0  0
  8 31  1  0  0  0  0
 14 32  1  0  0  0  0
 14 33  1  0  0  0  0
 14 34  1  0  0  0  0
 15 35  1  0  0  0  0
 15 36  1  0  0  0  0
 16 37  1  0  0  0  0
 16 38  1  0  0  0  0
 18 39  1  0  0  0  0
 19 40  1  0  0  0  0
 20 41  1  0  0  0  0
 21 42  1  0  0  0  0
M  END
> <POSIT::Probability>
0.33

> <POSIT::Method>
HYBRID

> <ReceptorTitle>
UCSF-P4432-REFINED_LIGAND-BOUND-STATE_A__DU__LA1_A-201(A)

> <OMEGA_C>
GGM7wl8e58Hg2ME/g/5Vwkyb3cGj70lB1F9Ywjlb0MFKcy9B6ClAwpMD58Ewfw5AadRSwpPc4sEG
2zpBxDVVwmic1cG8XiBBGNs2wjjq6sEYCApARoQ7wvdK7sHw74JAHsRYwkBa1MEvO0RBIHBSwozd
3sEiEyZBlENAwqan6sEgkGJA+sZFwjoB7sHaYbNA1/VPwhOi5MG+oABBzC1gwkL038G65llBjyhc
wgS+zsFwVlRBuJJLwgim7MH4xMBAuMw2wi+E7sGsnVtAkxBFwryn6sFoS4lAt0VPwgQf5MGh/hZB
zuhLwp656sG4Te5AOGZewvz71cFC3WNBP1lCwuJd8cGmDMxAdpRTwvFk4MHgxOxAtTc7wiRQ5MHg
ufo+2UZWwlbH4MGaFVpBsYVawsEmycHB3SpBZMhDwhsV5MF41N8/rq9QwloR6sHmeT9Bie9Uwoxs
0sEhORBBkgczwjAo68FYnNI/yVc7wnk78cEsmqNA9CxjwrhX3sFXkE1BHspcwugU5MF8iVJBYu9h
wtM/5cFC7WVBXtdZwoOzyMFXH11BRYJfwqCEysF5t0xBCt9Nwubf88HcpLlAu09NwvrJ5cH8D7BA
6ldIwkXX58FQLXNAzARMwmsj6MGM9RxBEflIwm7B7cHHmABBPJpbwtvJ18FxTm9B

> <OMEGA_E>
cj3ywA==

> <OMEGA_NBR>
     27549

$$$$
CACHE3HI_1691_58
  -OEChem-03092622513D

 42 43  0     1  0  0  0  0  0999 V2000
  -45.5068  -28.8841    5.4758 C   0  0  0  0  0  0  0  0  0  0  0  0
  -53.0134  -27.3238   12.8577 C   0  0  0  0  0  0  0  0  0  0  0  0
  -54.1176  -25.9870   11.1750 C   0  0  0  0  0  0  0  0  0  0  0  0
  -46.7384  -29.2206    6.0265 C   0  0  0  0  0  0  0  0  0  0  0  0
  -52.3361  -28.0218   11.8578 C   0  0  0  0  0  0  0  0  0  0  0  0
  -53.4403  -26.6850   10.1751 C   0  0  0  0  0  0  0  0  0  0  0  0
  -45.4506  -28.6421    4.1122 C   0  0  0  0  0  0  0  0  0  0  0  0
  -47.6989  -29.0430    3.8579 C   0  0  0  0  0  0  0  0  0  0  0  0
  -53.9041  -26.3062   12.5161 C   0  0  0  0  0  0  0  0  0  0  0  0
  -52.5496  -27.7026   10.5167 C   0  0  0  0  0  0  0  0  0  0  0  0
  -47.8601  -29.3037    5.2091 C   0  0  0  0  0  0  0  0  0  0  0  0
  -50.3768  -29.2436    5.2749 C   0  0  0  0  0  0  0  0  0  0  0  0
  -52.2945  -28.6781    8.2006 C   0  0  0  0  0  0  0  0  0  0  0  0
  -56.0052  -25.0502   13.1303 C   0  0  0  0  0  0  0  0  0  0  0  0
  -51.4772  -29.8353    6.1365 C   0  0  0  0  0  0  0  0  0  0  0  0
  -54.6305  -25.5613   13.5847 C   0  0  1  0  0  0  0  0  0  0  0  0
  -46.5189  -28.7132    3.2867 N   0  0  0  0  0  0  0  0  0  0  0  0
  -54.7907  -26.3517   14.7928 N   0  0  0  0  0  0  0  0  0  0  0  0
  -49.1275  -29.6430    5.7402 N   0  0  0  0  0  0  0  0  0  0  0  0
  -51.8720  -28.4007    9.5168 N   0  0  0  0  0  0  0  0  0  0  0  0
  -51.3220  -29.4070    7.5084 N   0  0  0  0  0  0  0  0  0  0  0  0
  -50.6189  -28.5456    4.2952 O   0  0  0  0  0  0  0  0  0  0  0  0
  -53.3643  -28.3395    7.7002 O   0  0  0  0  0  0  0  0  0  0  0  0
  -44.6195  -28.8142    6.0943 H   0  0  0  0  0  0  0  0  0  0  0  0
  -52.8412  -27.5795   13.8997 H   0  0  0  0  0  0  0  0  0  0  0  0
  -54.8102  -25.1957   10.8999 H   0  0  0  0  0  0  0  0  0  0  0  0
  -46.8131  -29.4157    7.0930 H   0  0  0  0  0  0  0  0  0  0  0  0
  -51.6441  -28.8130   12.1354 H   0  0  0  0  0  0  0  0  0  0  0  0
  -53.6148  -26.4276    9.1334 H   0  0  0  0  0  0  0  0  0  0  0  0
  -44.5136  -28.3769    3.6336 H   0  0  0  0  0  0  0  0  0  0  0  0
  -48.5373  -29.0921    3.1698 H   0  0  0  0  0  0  0  0  0  0  0  0
  -56.6495  -25.8700   12.7941 H   0  0  0  0  0  0  0  0  0  0  0  0
  -56.5170  -24.5348   13.9510 H   0  0  0  0  0  0  0  0  0  0  0  0
  -55.9127  -24.3481   12.2939 H   0  0  0  0  0  0  0  0  0  0  0  0
  -51.4362  -30.9278    6.1188 H   0  0  0  0  0  0  0  0  0  0  0  0
  -52.4508  -29.4921    5.7748 H   0  0  0  0  0  0  0  0  0  0  0  0
  -54.0484  -24.6798   13.9048 H   0  0  0  0  0  0  0  0  0  0  0  0
  -55.2569  -25.7908   15.5042 H   0  0  0  0  0  0  0  0  0  0  0  0
  -53.8726  -26.5828   15.1701 H   0  0  0  0  0  0  0  0  0  0  0  0
  -49.1083  -30.2522    6.5557 H   0  0  0  0  0  0  0  0  0  0  0  0
  -50.9453  -28.7590    9.7727 H   0  0  0  0  0  0  0  0  0  0  0  0
  -50.4473  -29.6215    7.9773 H   0  0  0  0  0  0  0  0  0  0  0  0
  1  4  2  0  0  0  0
  1  7  1  0  0  0  0
  2  5  2  0  0  0  0
  2  9  1  0  0  0  0
  3  6  1  0  0  0  0
  3  9  2  0  0  0  0
  4 11  1  0  0  0  0
  5 10  1  0  0  0  0
  6 10  2  0  0  0  0
  7 17  2  0  0  0  0
  8 11  2  0  0  0  0
  8 17  1  0  0  0  0
  9 16  1  0  0  0  0
 10 20  1  0  0  0  0
 11 19  1  0  0  0  0
 12 15  1  0  0  0  0
 12 19  1  0  0  0  0
 12 22  2  0  0  0  0
 13 20  1  0  0  0  0
 13 21  1  0  0  0  0
 13 23  2  0  0  0  0
 14 16  1  0  0  0  0
 15 21  1  0  0  0  0
 16 18  1  0  0  0  0
  1 24  1  0  0  0  0
  2 25  1  0  0  0  0
  3 26  1  0  0  0  0
  4 27  1  0  0  0  0
  5 28  1  0  0  0  0
  6 29  1  0  0  0  0
  7 30  1  0  0  0  0
  8 31  1  0  0  0  0
 14 32  1  0  0  0  0
 14 33  1  0  0  0  0
 14 34  1  0  0  0  0
 15 35  1  0  0  0  0
 15 36  1  0  0  0  0
 16 37  1  0  0  0  0
 18 38  1  0  0  0  0
 18 39  1  0  0  0  0
 19 40  1  0  0  0  0
 20 41  1  0  0  0  0
 21 42  1  0  0  0  0
M  END
> <POSIT::Probability>
0.42

> <POSIT::Method>
HYBRID

> <ReceptorTitle>
UCSF-P4432-REFINED_LIGAND-BOUND-STATE_A__DU__LA1_A-201(A)

> <OMEGA_C>
/QY2wpUS58GDOa9AwA1UwiOX2sEGuU1BYXhYwlblz8HRzDJBHPQ6wrPD6cGx2MBANVhRwrMs4MGJ
uT1B4cJVws561cFgzSJBZM01wvoi5cE8l4NAscs+wgRY6MHM53ZAyJ1Xwhxz0sHuQUhBzjJSwu2e
3cFtRChBuXA/wvRt6sEjsaZA44FJwtfy6cGZy6hAjC1Rwq1s5cGSNQNBWwVgwuhmyMHUFVJBn+hN
wsSu7sHhXcRAnYVawoN9zMHMWllBXRM6wrS05cFYWVJAoylbwjjQ0sFGr2xBlIJEwssk7cHwr7dA
8XxPwpo048HTRBhBvElNwplB68GKRPBAyHlKwlFd5MFOcolAAHVVwk+34sGyZ/ZAWXoywn6D5sGy
BMNAV11TwtWi3MEOZV5BoT1bwsyQycHwZS5BlEA7wk1T68EH+uJAmZNOwhqB5sF4KkJBkXVWwsNr
08GEIhJB5g0ywtID48GUjGhAPSZCwrC86MGq3UpAGJliwtz1zsHOtExBaBFiwjRHxMFNN19BkKZf
wgDJwsGqs0RBor5NwjRs98GOzcNAqc1RwsTv68E8y7hAljFYwixwxcH/eV5BFAddwpFTzsEaEXhB
ln1XwpCp1MHouHJB525EwpIE8sH8x9FA9MdLwnQS5sHNXBxBE8pJwsP47MHkRf9A

> <OMEGA_E>
BoEGwQ==

> <OMEGA_NBR>
     28887

$$$$
CACHE3HI_1691_9
  -OEChem-03092622513D

 44 46  0     1  0  0  0  0  0999 V2000
  -42.1975  -31.4740    2.3599 C   0  0  0  0  0  0  0  0  0  0  0  0
  -43.5058  -31.1179    2.6680 C   0  0  0  0  0  0  0  0  0  0  0  0
  -41.1916  -30.5682    2.6581 C   0  0  0  0  0  0  0  0  0  0  0  0
  -42.6896  -29.0505    3.5143 C   0  0  0  0  0  0  0  0  0  0  0  0
  -43.7650  -29.8850    3.2562 C   0  0  0  0  0  0  0  0  0  0  0  0
  -51.0611  -30.6089    6.5116 C   0  0  0  0  0  0  0  0  0  0  0  0
  -51.9431  -30.6732    5.5063 C   0  0  0  0  0  0  0  0  0  0  0  0
  -53.3421  -30.1723    5.7552 C   0  0  0  0  0  0  0  0  0  0  0  0
  -52.6924  -29.6612    7.9146 C   0  0  0  0  0  0  0  0  0  0  0  0
  -45.1515  -29.4756    3.5956 C   0  0  0  0  0  0  0  0  0  0  0  0
  -51.4958  -31.2220    4.2260 C   0  0  0  0  0  0  0  0  0  0  0  0
  -48.7620  -31.9106    2.3210 C   0  0  0  0  0  0  0  0  0  0  0  0
  -48.4164  -30.4719    2.0597 C   0  0  1  0  0  0  0  0  0  0  0  0
  -49.8343  -30.8554    2.4045 C   0  0  2  0  0  0  0  0  0  0  0  0
  -52.4740  -27.7195    9.4674 C   0  0  0  0  0  0  0  0  0  0  0  0
  -53.0294  -29.1137    9.2794 C   0  0  0  0  0  0  0  0  0  0  0  0
  -47.5513  -29.7261    3.0175 C   0  0  0  0  0  0  0  0  0  0  0  0
  -41.4053  -29.3616    3.2294 N   0  0  0  0  0  0  0  0  0  0  0  0
  -53.6346  -29.6718    7.0196 N   0  0  0  0  0  0  0  0  0  0  0  0
  -51.4102  -30.1054    7.7307 N   0  0  0  0  0  0  0  0  0  0  0  0
  -46.1331  -30.0474    2.8225 N   0  0  0  0  0  0  0  0  0  0  0  0
  -50.4483  -30.5094    3.6666 N   0  0  0  0  0  0  0  0  0  0  0  0
  -54.1687  -30.2197    4.8479 O   0  0  0  0  0  0  0  0  0  0  0  0
  -45.3334  -28.6651    4.5003 O   0  0  0  0  0  0  0  0  0  0  0  0
  -52.0320  -32.2185    3.7398 O   0  0  0  0  0  0  0  0  0  0  0  0
  -41.9720  -32.4296    1.9008 H   0  0  0  0  0  0  0  0  0  0  0  0
  -44.3155  -31.8078    2.4449 H   0  0  0  0  0  0  0  0  0  0  0  0
  -40.1547  -30.7987    2.4369 H   0  0  0  0  0  0  0  0  0  0  0  0
  -42.8290  -28.0759    3.9721 H   0  0  0  0  0  0  0  0  0  0  0  0
  -50.0313  -30.9370    6.4458 H   0  0  0  0  0  0  0  0  0  0  0  0
  -48.7846  -32.5850    1.4732 H   0  0  0  0  0  0  0  0  0  0  0  0
  -48.4169  -32.3669    3.2411 H   0  0  0  0  0  0  0  0  0  0  0  0
  -48.2185  -30.1812    1.0342 H   0  0  0  0  0  0  0  0  0  0  0  0
  -50.5507  -30.8305    1.5896 H   0  0  0  0  0  0  0  0  0  0  0  0
  -52.8940  -27.0519    8.7079 H   0  0  0  0  0  0  0  0  0  0  0  0
  -52.7299  -27.3137   10.4524 H   0  0  0  0  0  0  0  0  0  0  0  0
  -51.3835  -27.7041    9.3648 H   0  0  0  0  0  0  0  0  0  0  0  0
  -52.6213  -29.7914   10.0279 H   0  0  0  0  0  0  0  0  0  0  0  0
  -54.1144  -29.1021    9.3828 H   0  0  0  0  0  0  0  0  0  0  0  0
  -47.6745  -28.6349    2.8977 H   0  0  0  0  0  0  0  0  0  0  0  0
  -47.8201  -29.9581    4.0638 H   0  0  0  0  0  0  0  0  0  0  0  0
  -50.7065  -30.0779    8.4595 H   0  0  0  0  0  0  0  0  0  0  0  0
  -45.9223  -30.6576    2.0526 H   0  0  0  0  0  0  0  0  0  0  0  0
  -50.0873  -29.6920    4.1500 H   0  0  0  0  0  0  0  0  0  0  0  0
  1  2  2  0  0  0  0
  1  3  1  0  0  0  0
  2  5  1  0  0  0  0
  3 18  2  0  0  0  0
  4  5  2  0  0  0  0
  4 18  1  0  0  0  0
  5 10  1  0  0  0  0
  6  7  2  0  0  0  0
  6 20  1  0  0  0  0
  7  8  1  0  0  0  0
  7 11  1  0  0  0  0
  8 19  1  0  0  0  0
  8 23  2  0  0  0  0
  9 16  1  0  0  0  0
  9 19  2  0  0  0  0
  9 20  1  0  0  0  0
 10 21  1  0  0  0  0
 10 24  2  0  0  0  0
 11 22  1  0  0  0  0
 11 25  2  0  0  0  0
 12 13  1  0  0  0  0
 12 14  1  0  0  0  0
 13 14  1  0  0  0  0
 13 17  1  0  0  0  0
 14 22  1  0  0  0  0
 15 16  1  0  0  0  0
 17 21  1  0  0  0  0
  1 26  1  0  0  0  0
  2 27  1  0  0  0  0
  3 28  1  0  0  0  0
  4 29  1  0  0  0  0
  6 30  1  0  0  0  0
 12 31  1  0  0  0  0
 12 32  1  0  0  0  0
 13 33  1  0  0  0  0
 14 34  1  0  0  0  0
 15 35  1  0  0  0  0
 15 36  1  0  0  0  0
 15 37  1  0  0  0  0
 16 38  1  0  0  0  0
 16 39  1  0  0  0  0
 17 40  1  0  0  0  0
 17 41  1  0  0  0  0
 20 42  1  0  0  0  0
 21 43  1  0  0  0  0
 22 44  1  0  0  0  0
M  END
> <POSIT::Probability>
0.05

> <POSIT::Method>
FRED

> <ReceptorTitle>
UCSF-P4432-REFINED_LIGAND-BOUND-STATE_A__DU__LA1_A-201(A)

> <OMEGA_C>
PcoowqfK+8FeCRdA6QUuwmzx+MHavypAPsQkwqqL9MFQHipAHcIqwlhn6MHS6mBAYQ8vwooU78EQ
ZVBAkz5Mwgzf9MG2XtBAssVPwrFi9cE0M7BARF5VwuJg8cHiKrhA+cRSwixK7cFMRP1AK5s0wgbO
68HMHmZAuftNwq3G+cGmO4dARAxDwvZI/8F0ihRAXKpBwmnG88GC0QNAUFZHwtDX9sEm4xlAbOVR
wnjB3cFRehdBJx5Uwuvo6MGVeBRBhDQ+whzP7cFmH0FAAp8lwovk6sGwrU5A1IlWwtZf7cHWoOBA
E6RNwvPX8MG1YfdAT4g4whth8MGSozRAE8tJwi4T9MEWqWpAy6xYwuLB8cH0IZtAblU1wjFS5cFR
ApBAySBQwrLfAMJgWW9AWuMnwu23AcIQTfM/CkMxwnR2/sGYeRxAb54gwqlj9sFo9htA6lArwm6b
4MFENn5AESBIwgJ/98HCQ85AdiNDwgVXAsI8kLw/7qpBwr53AcL2bU9Aut9Awgdz8cG0YIQ/4DNK
wtuk9sEkeMs/bZNTwjhq2MGHUwtBX+tSwnSC2sEwPSdBvohNwu+h3cFZ1hVBP3xSws9U7sE4ciBB
IHVYwgHR6MEEIBZBs7I+wjgU5cGYczlAx0c/wiuq78GOCoJAaNNKwpGf8MEjWgdBbbA3wtRC9cEq
XgNAb1lIwj+J7cFxzIRA

> <OMEGA_E>
UqoAwQ==

> <OMEGA_NBR>
     30264

$$$$
CACHE3HI_1694_47
  -OEChem-03092622513D

 43 44  0     0  0  0  0  0  0999 V2000
  -44.3650  -29.9192    5.3957 C   0  0  0  0  0  0  0  0  0  0  0  0
  -50.6077  -31.4854    4.0559 C   0  0  0  0  0  0  0  0  0  0  0  0
  -50.7095  -30.6223    5.1412 C   0  0  0  0  0  0  0  0  0  0  0  0
  -45.6884  -29.5057    5.5484 C   0  0  0  0  0  0  0  0  0  0  0  0
  -43.7588  -29.8663    4.1407 C   0  0  0  0  0  0  0  0  0  0  0  0
  -45.7991  -28.9863    3.1913 C   0  0  0  0  0  0  0  0  0  0  0  0
  -49.5232  -31.3336    3.2062 C   0  0  0  0  0  0  0  0  0  0  0  0
  -49.7382  -29.6478    5.3413 C   0  0  0  0  0  0  0  0  0  0  0  0
  -46.4054  -29.0392    4.4464 C   0  0  0  0  0  0  0  0  0  0  0  0
  -44.4758  -29.3998    3.0387 C   0  0  0  0  0  0  0  0  0  0  0  0
  -48.6928  -29.5780    4.4346 C   0  0  0  0  0  0  0  0  0  0  0  0
  -52.1436  -28.8473    7.4272 C   0  0  0  0  0  0  0  0  0  0  0  0
  -44.0614  -30.9194    0.7424 C   0  0  0  0  0  0  0  0  0  0  0  0
  -49.8385  -28.7105    6.5104 C   0  0  0  0  0  0  0  0  0  0  0  0
  -52.9205  -29.4695    8.5762 C   0  0  0  0  0  0  0  0  0  0  0  0
  -52.8461  -30.9896    8.6062 C   0  0  0  0  0  0  0  0  0  0  0  0
  -48.5601  -30.3988    3.3686 N   0  0  0  0  0  0  0  0  0  0  0  0
  -51.4920  -31.4600    8.7224 N   0  0  0  0  0  0  0  0  0  0  0  0
  -50.7958  -29.1690    7.4901 N   0  0  0  0  0  0  0  0  0  0  0  0
  -52.6643  -28.1552    6.5563 O   0  0  0  0  0  0  0  0  0  0  0  0
  -44.3994  -28.3360    0.6552 O   0  0  0  0  0  0  0  0  0  0  0  0
  -42.2767  -29.2372    1.6704 O   0  0  0  0  0  0  0  0  0  0  0  0
  -47.7153  -28.6312    4.5980 O   0  0  0  0  0  0  0  0  0  0  0  0
  -43.7155  -29.3332    1.4680 S   0  0  0  0  0  0  0  0  0  0  0  0
  -43.8065  -30.2820    6.2536 H   0  0  0  0  0  0  0  0  0  0  0  0
  -51.3526  -32.2533    3.8811 H   0  0  0  0  0  0  0  0  0  0  0  0
  -51.5479  -30.7171    5.8253 H   0  0  0  0  0  0  0  0  0  0  0  0
  -46.1553  -29.5494    6.5286 H   0  0  0  0  0  0  0  0  0  0  0  0
  -42.7276  -30.1907    4.0324 H   0  0  0  0  0  0  0  0  0  0  0  0
  -46.3618  -28.6217    2.3354 H   0  0  0  0  0  0  0  0  0  0  0  0
  -49.3964  -31.9821    2.3457 H   0  0  0  0  0  0  0  0  0  0  0  0
  -43.6115  -30.9492   -0.2510 H   0  0  0  0  0  0  0  0  0  0  0  0
  -45.1435  -31.0387    0.6759 H   0  0  0  0  0  0  0  0  0  0  0  0
  -43.6302  -31.6917    1.3810 H   0  0  0  0  0  0  0  0  0  0  0  0
  -48.8684  -28.6091    7.0080 H   0  0  0  0  0  0  0  0  0  0  0  0
  -50.1441  -27.7101    6.1866 H   0  0  0  0  0  0  0  0  0  0  0  0
  -52.4992  -29.0728    9.5082 H   0  0  0  0  0  0  0  0  0  0  0  0
  -53.9655  -29.1410    8.5111 H   0  0  0  0  0  0  0  0  0  0  0  0
  -53.4147  -31.4064    9.4438 H   0  0  0  0  0  0  0  0  0  0  0  0
  -53.2490  -31.4049    7.6765 H   0  0  0  0  0  0  0  0  0  0  0  0
  -51.4733  -32.4835    8.7214 H   0  0  0  0  0  0  0  0  0  0  0  0
  -51.0978  -31.1808    9.6252 H   0  0  0  0  0  0  0  0  0  0  0  0
  -50.4495  -29.7192    8.2707 H   0  0  0  0  0  0  0  0  0  0  0  0
  1  4  1  0  0  0  0
  1  5  2  0  0  0  0
  2  3  1  0  0  0  0
  2  7  2  0  0  0  0
  3  8  2  0  0  0  0
  4  9  2  0  0  0  0
  5 10  1  0  0  0  0
  6  9  1  0  0  0  0
  6 10  2  0  0  0  0
  7 17  1  0  0  0  0
  8 11  1  0  0  0  0
  8 14  1  0  0  0  0
  9 23  1  0  0  0  0
 10 24  1  0  0  0  0
 11 17  2  0  0  0  0
 11 23  1  0  0  0  0
 12 15  1  0  0  0  0
 12 19  1  0  0  0  0
 12 20  2  0  0  0  0
 13 24  1  0  0  0  0
 14 19  1  0  0  0  0
 15 16  1  0  0  0  0
 16 18  1  0  0  0  0
 21 24  2  0  0  0  0
 22 24  2  0  0  0  0
  1 25  1  0  0  0  0
  2 26  1  0  0  0  0
  3 27  1  0  0  0  0
  4 28  1  0  0  0  0
  5 29  1  0  0  0  0
  6 30  1  0  0  0  0
  7 31  1  0  0  0  0
 13 32  1  0  0  0  0
 13 33  1  0  0  0  0
 13 34  1  0  0  0  0
 14 35  1  0  0  0  0
 14 36  1  0  0  0  0
 15 37  1  0  0  0  0
 15 38  1  0  0  0  0
 16 39  1  0  0  0  0
 16 40  1  0  0  0  0
 18 41  1  0  0  0  0
 18 42  1  0  0  0  0
 19 43  1  0  0  0  0
M  END
> <POSIT::Probability>
0.24

> <POSIT::Method>
FRED

> <ReceptorTitle>
UCSF-P4432-REFINED_LIGAND-BOUND-STATE_A__DU__LA1_A-201(A)

> <OMEGA_C>
yXUxwota78HEqaxAPm5Kwizi+8EKyoFAgtZKwor69MH2hKRA88A2wqcL7MFkjLFABgkvwkju7sFi
gIRAUDI3wvXj58HNPkxAyRdGwkGr+sGhMk1A6PNGwrMu7cGw66pAHp85wjVQ6MEcSY5AMecxwtYy
68EzekJAd8VCwtaf7MHs541AFJNQwi7H5sH8q+1A5D4wwvha98G8ED4/o1pHwhOv5cH8VNBAja5T
wnHB68H/NwlBXmJTwr3q98EeswlBlz1Cwqww88GDl1dAxfdNwhqu+8HYjgtB3C5LwhRa6cHOru9A
PahSwsk94cF2zdFA8JgxwjGw4sEQuCc/Txspwtbl6cEyztU/fdw+wqEM5cGkIpNAoNwuwlaq6sG6
6Ls/5zkvwopB8sHaHchAG2lNwlgDAcIJZHhADTFOwo289cG4aLpAEp84whxl7MGO6tBAA+kqwo6G
8cGcCYFAgHI5wk/55MH6dxVA9ZVFwlbb/8EkHxZAOHIuwg6Y98FYhoC+9ZI0wlJP+MH0BC0/XIUu
wpaI/cHUxLA/MXlDwmbf5MGsQeBAlZNIwkiu3cF8+MVAN/9RwgKV6MGBIRhBptxXwtog6cGXLQhB
o6hVwk1A+8HFGRdBBP9UwjI9+8HmpfVAouRNwiTvAcK/igtBGWRMwldy+cH2ABpBP8xJwufA7cHf
VARB

> <OMEGA_E>
PJvpwA==

> <OMEGA_NBR>
     31610

$$$$
CACHE3HI_1694_54
  -OEChem-03092622513D

 39 40  0     1  0  0  0  0  0999 V2000
  -47.7306  -28.7358    5.3412 C   0  0  0  0  0  0  0  0  0  0  0  0
  -48.5678  -28.7043    6.4508 C   0  0  0  0  0  0  0  0  0  0  0  0
  -48.1610  -29.4338    4.2237 C   0  0  0  0  0  0  0  0  0  0  0  0
  -55.3090  -25.7757   12.0562 C   0  0  0  0  0  0  0  0  0  0  0  0
  -49.7922  -29.3619    6.4102 C   0  0  0  0  0  0  0  0  0  0  0  0
  -50.1305  -30.0317    5.2454 C   0  0  0  0  0  0  0  0  0  0  0  0
  -53.2921  -27.4557   11.5675 C   0  0  0  0  0  0  0  0  0  0  0  0
  -53.3809  -26.2436   10.9182 C   0  0  0  0  0  0  0  0  0  0  0  0
  -55.2201  -26.9877   12.7053 C   0  0  0  0  0  0  0  0  0  0  0  0
  -51.9477  -28.8336    7.6021 C   0  0  0  0  0  0  0  0  0  0  0  0
  -51.4334  -30.7563    5.1404 C   0  0  0  0  0  0  0  0  0  0  0  0
  -53.9457  -28.4508    9.0733 C   0  0  0  0  0  0  0  0  0  0  0  0
  -52.1656  -28.4139   11.3063 C   0  0  0  0  0  0  0  0  0  0  0  0
  -52.5275  -28.9956    9.0062 C   0  0  2  0  0  0  0  0  0  0  0  0
  -49.3435  -30.0846    4.1476 N   0  0  0  0  0  0  0  0  0  0  0  0
  -54.3913  -25.3816   11.1512 N   0  0  0  0  0  0  0  0  0  0  0  0
  -54.2098  -27.8497   12.4722 N   0  0  0  0  0  0  0  0  0  0  0  0
  -52.3860  -25.8887    9.9798 N   0  0  0  0  0  0  0  0  0  0  0  0
  -50.6502  -29.3343    7.5355 N   0  0  0  0  0  0  0  0  0  0  0  0
  -51.6664  -28.3111    9.9353 N   0  0  0  0  0  0  0  0  0  0  0  0
  -52.6045  -28.3546    6.6828 O   0  0  0  0  0  0  0  0  0  0  0  0
  -56.5468  -27.4755   13.9641 Br  0  0  0  0  0  0  0  0  0  0  0  0
  -46.7719  -28.2300    5.3507 H   0  0  0  0  0  0  0  0  0  0  0  0
  -48.2564  -28.1637    7.3409 H   0  0  0  0  0  0  0  0  0  0  0  0
  -47.5452  -29.4878    3.3321 H   0  0  0  0  0  0  0  0  0  0  0  0
  -56.1151  -25.0728   12.2330 H   0  0  0  0  0  0  0  0  0  0  0  0
  -52.2216  -30.0994    4.7532 H   0  0  0  0  0  0  0  0  0  0  0  0
  -51.7673  -31.1133    6.1224 H   0  0  0  0  0  0  0  0  0  0  0  0
  -51.3348  -31.6175    4.4699 H   0  0  0  0  0  0  0  0  0  0  0  0
  -53.9704  -27.3921    8.7940 H   0  0  0  0  0  0  0  0  0  0  0  0
  -54.6104  -28.9909    8.3891 H   0  0  0  0  0  0  0  0  0  0  0  0
  -54.3612  -28.5467   10.0819 H   0  0  0  0  0  0  0  0  0  0  0  0
  -51.3289  -28.2202   11.9857 H   0  0  0  0  0  0  0  0  0  0  0  0
  -52.4844  -29.4487   11.4697 H   0  0  0  0  0  0  0  0  0  0  0  0
  -52.5134  -30.0544    9.2872 H   0  0  0  0  0  0  0  0  0  0  0  0
  -51.6084  -26.5001    9.8434 H   0  0  0  0  0  0  0  0  0  0  0  0
  -52.4239  -24.9881    9.5502 H   0  0  0  0  0  0  0  0  0  0  0  0
  -50.2600  -29.7305    8.3877 H   0  0  0  0  0  0  0  0  0  0  0  0
  -50.7232  -28.7121    9.9024 H   0  0  0  0  0  0  0  0  0  0  0  0
  1  2  1  0  0  0  0
  1  3  2  0  0  0  0
  2  5  2  0  0  0  0
  3 15  1  0  0  0  0
  4  9  2  0  0  0  0
  4 16  1  0  0  0  0
  5  6  1  0  0  0  0
  5 19  1  0  0  0  0
  6 11  1  0  0  0  0
  6 15  2  0  0  0  0
  7  8  1  0  0  0  0
  7 13  1  0  0  0  0
  7 17  2  0  0  0  0
  8 16  2  0  0  0  0
  8 18  1  0  0  0  0
  9 17  1  0  0  0  0
  9 22  1  0  0  0  0
 10 14  1  0  0  0  0
 10 19  1  0  0  0  0
 10 21  2  0  0  0  0
 12 14  1  0  0  0  0
 13 20  1  0  0  0  0
 14 20  1  0  0  0  0
  1 23  1  0  0  0  0
  2 24  1  0  0  0  0
  3 25  1  0  0  0  0
  4 26  1  0  0  0  0
 11 27  1  0  0  0  0
 11 28  1  0  0  0  0
 11 29  1  0  0  0  0
 12 30  1  0  0  0  0
 12 31  1  0  0  0  0
 12 32  1  0  0  0  0
 13 33  1  0  0  0  0
 13 34  1  0  0  0  0
 14 35  1  0  0  0  0
 18 36  1  0  0  0  0
 18 37  1  0  0  0  0
 19 38  1  0  0  0  0
 20 39  1  0  0  0  0
M  END
> <POSIT::Probability>
0.23

> <POSIT::Method>
HYBRID

> <ReceptorTitle>
UCSF-P4432-REFINED_LIGAND-BOUND-STATE_A__DU__LA1_A-201(A)

> <OMEGA_C>
Hew+wubi5cHc6qpAdUVCwl6i5cHcbM5A0qRAwlN468HlKIdAYTxdwow0zsFY5kBBLStHwjrl6sF8
IM1AoIVIwt1A8MGQ2qdAJitVwjSl28FSFDlBFoZVwszy0cHwsC5BWeFcwtnm18HUSEtBb8pPwj+r
5sG6RPNAyLtNwgAN9sEJfqRAXMhXwjCb48FeLBFBmalQwqRP48Go5jRBKRxSwvb258E4GRBByV9F
wjCt8MHRuIRArpBZwpINy8FrazJB3NZYwi7M3sEijkdBT4tRwhgcz8EwrR9B1JlKwpqs6sHBIvFA
ZqpOwhx94sEg9x5BAGtSwjfW4sGF2dVA5C9iwsjN28EJbV9BeBY7wvbW4cGpOKtAmgZBwlBP4cHF
6OpAQi4+whTn68HIQVVA43Vgwi6VyME5ukNB9uJQwo7L8MEbGphAuxFPwvrn+MGm6sNAzFZNwrnw
/MEjCY9AsOFXwhgj28EUtAxBAnFawm7t58HGOQZB4nFZwqxf5MFkTyFBz1BNwufC4cFUxT9BAPBR
wtaW68G8gzdBuA1Swmxv8ME8mBRB/25OwiYA1MGwfh1BDLJRwqTnx8GAzRhBPApJwvjX7cEeNAZB
juRKwnqy5cEmcB5B

> <OMEGA_E>
xpnfwA==

> <OMEGA_NBR>
     32884

$$$$
CACHE3HI_1694_6
  -OEChem-03092622513D

 40 42  0     0  0  0  0  0  0999 V2000
  -52.8637  -28.3097    7.6887 C   0  0  0  0  0  0  0  0  0  0  0  0
  -50.2413  -28.2614    5.1078 C   0  0  0  0  0  0  0  0  0  0  0  0
  -50.8247  -29.4026    3.1041 C   0  0  0  0  0  0  0  0  0  0  0  0
  -55.0126  -28.2795    6.6817 C   0  0  0  0  0  0  0  0  0  0  0  0
  -53.4061  -27.6920    8.8194 C   0  0  0  0  0  0  0  0  0  0  0  0
  -51.2242  -28.6828    4.2191 C   0  0  0  0  0  0  0  0  0  0  0  0
  -53.6737  -28.6137    6.6026 C   0  0  0  0  0  0  0  0  0  0  0  0
  -48.9083  -28.5680    4.8584 C   0  0  0  0  0  0  0  0  0  0  0  0
  -48.6122  -29.2927    3.7152 C   0  0  0  0  0  0  0  0  0  0  0  0
  -54.7688  -27.3793    8.7985 C   0  0  0  0  0  0  0  0  0  0  0  0
  -47.2373  -29.6423    3.4017 C   0  0  0  0  0  0  0  0  0  0  0  0
  -52.5159  -27.3254    9.9755 C   0  0  0  0  0  0  0  0  0  0  0  0
  -55.4380  -26.7410    9.9869 C   0  0  0  0  0  0  0  0  0  0  0  0
  -53.2915  -26.9925   11.2493 C   0  0  0  0  0  0  0  0  0  0  0  0
  -54.4566  -26.0601   10.9388 C   0  0  0  0  0  0  0  0  0  0  0  0
  -45.8433  -30.7588    1.8193 C   0  0  0  0  0  0  0  0  0  0  0  0
  -52.6710  -28.3678    4.4599 C   0  0  0  0  0  0  0  0  0  0  0  0
  -49.5394  -29.7192    2.8288 N   0  0  0  0  0  0  0  0  0  0  0  0
  -55.5776  -27.6747    7.7496 N   0  0  0  0  0  0  0  0  0  0  0  0
  -46.2595  -29.3359    4.0980 O   0  0  0  0  0  0  0  0  0  0  0  0
  -53.1665  -29.2157    5.4986 O   0  0  0  0  0  0  0  0  0  0  0  0
  -47.1517  -30.3552    2.2365 O   0  0  0  0  0  0  0  0  0  0  0  0
  -47.9491  -28.1702    5.7033 F   0  0  0  0  0  0  0  0  0  0  0  0
  -51.8041  -28.5520    7.6565 H   0  0  0  0  0  0  0  0  0  0  0  0
  -50.5046  -27.6940    5.9961 H   0  0  0  0  0  0  0  0  0  0  0  0
  -51.5465  -29.7583    2.3754 H   0  0  0  0  0  0  0  0  0  0  0  0
  -55.6939  -28.4946    5.8645 H   0  0  0  0  0  0  0  0  0  0  0  0
  -51.8222  -28.1471   10.1894 H   0  0  0  0  0  0  0  0  0  0  0  0
  -51.9169  -26.4545    9.6807 H   0  0  0  0  0  0  0  0  0  0  0  0
  -56.1758  -26.0068    9.6431 H   0  0  0  0  0  0  0  0  0  0  0  0
  -55.9835  -27.5250   10.5264 H   0  0  0  0  0  0  0  0  0  0  0  0
  -53.6731  -27.9150   11.7052 H   0  0  0  0  0  0  0  0  0  0  0  0
  -52.6189  -26.5290   11.9796 H   0  0  0  0  0  0  0  0  0  0  0  0
  -54.0764  -25.1346   10.4878 H   0  0  0  0  0  0  0  0  0  0  0  0
  -54.9743  -25.7803   11.8631 H   0  0  0  0  0  0  0  0  0  0  0  0
  -45.9142  -31.3162    0.8816 H   0  0  0  0  0  0  0  0  0  0  0  0
  -45.2285  -29.8687    1.6658 H   0  0  0  0  0  0  0  0  0  0  0  0
  -45.3897  -31.3828    2.5928 H   0  0  0  0  0  0  0  0  0  0  0  0
  -52.7975  -27.3222    4.7600 H   0  0  0  0  0  0  0  0  0  0  0  0
  -53.2618  -28.5310    3.5516 H   0  0  0  0  0  0  0  0  0  0  0  0
  1  5  2  0  0  0  0
  1  7  1  0  0  0  0
  2  6  1  0  0  0  0
  2  8  2  0  0  0  0
  3  6  2  0  0  0  0
  3 18  1  0  0  0  0
  4  7  2  0  0  0  0
  4 19  1  0  0  0  0
  5 10  1  0  0  0  0
  5 12  1  0  0  0  0
  6 17  1  0  0  0  0
  7 21  1  0  0  0  0
  8  9  1  0  0  0  0
  8 23  1  0  0  0  0
  9 11  1  0  0  0  0
  9 18  2  0  0  0  0
 10 13  1  0  0  0  0
 10 19  2  0  0  0  0
 11 20  2  0  0  0  0
 11 22  1  0  0  0  0
 12 14  1  0  0  0  0
 13 15  1  0  0  0  0
 14 15  1  0  0  0  0
 16 22  1  0  0  0  0
 17 21  1  0  0  0  0
  1 24  1  0  0  0  0
  2 25  1  0  0  0  0
  3 26  1  0  0  0  0
  4 27  1  0  0  0  0
 12 28  1  0  0  0  0
 12 29  1  0  0  0  0
 13 30  1  0  0  0  0
 13 31  1  0  0  0  0
 14 32  1  0  0  0  0
 14 33  1  0  0  0  0
 15 34  1  0  0  0  0
 15 35  1  0  0  0  0
 16 36  1  0  0  0  0
 16 37  1  0  0  0  0
 16 38  1  0  0  0  0
 17 39  1  0  0  0  0
 17 40  1  0  0  0  0
M  END
> <POSIT::Probability>
0.24

> <POSIT::Method>
FRED

> <ReceptorTitle>
UCSF-P4432-REFINED_LIGAND-BOUND-STATE_A__DU__LA1_A-201(A)

> <OMEGA_C>
Z3RTwip64sGECfZAJPdIwnEX4sEoc6NAckxLwnY468HpqEZA8wxcwnE84sGD0NVAzp9VwiaJ3cEQ
HA1BiuVMwmJ25cEEA4dA5LFWwt/o5MGjSNNAHqJDwkGL5ME0eJtA7XJCwoFX6sGWxm1AQhNbwr8I
28GoxgxB9PI8wnoj7cGttVlAVRBSwnqa2sHYmx9Be8Bdwont1cEzyh9BdCpVwrzw18H0/DNBgtNZ
wgt70MF6BS9Bh183wg4S9sED3ug/GK9Swlrx4sGlt45AYChGwvTA7cGqCjVAdU9ewtVl3cFe/PdA
sAk5wv2v6sGoIoNAeqpUwrG56cGX9K9AY5s8wlnX8sEWIg9A2cs/wo1c4cHPgbZAXDdPwmlq5MFL
AvVAwQRKwkSN3cHv379AoC9OwhkR7sGvBhhAmsZewuL048EeqrtA80lPwlot4cHNByNB7qpPwt2i
08H04xpBBrRgwtYN0MH+SRpBEe9fwkwz3MEebChBNbFWwgBS38GYSDtBuHlSwmM71MF1rD9BRU5Y
wp0TycHbzSdBr+Vbwgo+zsEkzz1BMKg3woGH+sGvsmE/8uk0wgnz7sGDOtU/FI81wgEQ+8Eh8CVA
nTBTwvCT2sHPUZhAGgxVwnE/5MGpTGNA

> <OMEGA_E>
VgkFwQ==

> <OMEGA_NBR>
     34172

$$$$
CACHE3HI_1694_61
  -OEChem-03092622513D

 34 35  0     0  0  0  0  0  0999 V2000
  -49.0171  -29.2749    5.5961 C   0  0  0  0  0  0  0  0  0  0  0  0
  -48.3678  -29.3091    4.3671 C   0  0  0  0  0  0  0  0  0  0  0  0
  -42.8969  -30.7984    2.9201 C   0  0  0  0  0  0  0  0  0  0  0  0
  -48.2437  -29.1036    6.7335 C   0  0  0  0  0  0  0  0  0  0  0  0
  -41.6983  -30.1509    3.1749 C   0  0  0  0  0  0  0  0  0  0  0  0
  -46.3026  -29.0062    5.5074 C   0  0  0  0  0  0  0  0  0  0  0  0
  -42.1773  -28.4815    1.6703 C   0  0  0  0  0  0  0  0  0  0  0  0
  -43.7570  -30.2311    1.9864 C   0  0  0  0  0  0  0  0  0  0  0  0
  -46.9851  -29.1730    4.3132 C   0  0  0  0  0  0  0  0  0  0  0  0
  -43.3979  -29.0509    1.3452 C   0  0  0  0  0  0  0  0  0  0  0  0
  -45.0316  -30.9118    1.7096 C   0  0  0  0  0  0  0  0  0  0  0  0
  -46.2548  -29.2057    3.0013 C   0  0  0  0  0  0  0  0  0  0  0  0
  -47.2681  -31.4473    2.7815 C   0  0  0  0  0  0  0  0  0  0  0  0
  -48.3295  -31.3359    1.7024 C   0  0  0  0  0  0  0  0  0  0  0  0
  -46.8986  -28.9679    6.7202 N   0  0  0  0  0  0  0  0  0  0  0  0
  -41.3155  -29.0031    2.5717 N   0  0  0  0  0  0  0  0  0  0  0  0
  -46.1522  -30.5572    2.4682 N   0  0  0  0  0  0  0  0  0  0  0  0
  -45.0181  -31.7465    0.8062 O   0  0  0  0  0  0  0  0  0  0  0  0
  -47.7671  -31.6938    0.4464 O   0  0  0  0  0  0  0  0  0  0  0  0
  -44.4080  -28.2889    0.1790 Cl  0  0  0  0  0  0  0  0  0  0  0  0
  -50.0941  -29.3778    5.6613 H   0  0  0  0  0  0  0  0  0  0  0  0
  -48.9469  -29.4413    3.4573 H   0  0  0  0  0  0  0  0  0  0  0  0
  -43.1442  -31.7184    3.4396 H   0  0  0  0  0  0  0  0  0  0  0  0
  -48.7017  -29.0688    7.7164 H   0  0  0  0  0  0  0  0  0  0  0  0
  -40.9921  -30.5521    3.8944 H   0  0  0  0  0  0  0  0  0  0  0  0
  -45.2229  -28.8952    5.5280 H   0  0  0  0  0  0  0  0  0  0  0  0
  -41.8377  -27.5604    1.2058 H   0  0  0  0  0  0  0  0  0  0  0  0
  -46.7692  -28.5877    2.2578 H   0  0  0  0  0  0  0  0  0  0  0  0
  -45.2395  -28.8096    3.1071 H   0  0  0  0  0  0  0  0  0  0  0  0
  -46.8853  -32.4707    2.8401 H   0  0  0  0  0  0  0  0  0  0  0  0
  -47.6700  -31.1590    3.7577 H   0  0  0  0  0  0  0  0  0  0  0  0
  -49.1827  -31.9913    1.9057 H   0  0  0  0  0  0  0  0  0  0  0  0
  -48.6837  -30.3030    1.6314 H   0  0  0  0  0  0  0  0  0  0  0  0
  -48.4758  -31.6092   -0.2113 H   0  0  0  0  0  0  0  0  0  0  0  0
  1  2  1  0  0  0  0
  1  4  2  0  0  0  0
  2  9  2  0  0  0  0
  3  5  2  0  0  0  0
  3  8  1  0  0  0  0
  4 15  1  0  0  0  0
  5 16  1  0  0  0  0
  6  9  1  0  0  0  0
  6 15  2  0  0  0  0
  7 10  1  0  0  0  0
  7 16  2  0  0  0  0
  8 10  2  0  0  0  0
  8 11  1  0  0  0  0
  9 12  1  0  0  0  0
 10 20  1  0  0  0  0
 11 17  1  0  0  0  0
 11 18  2  0  0  0  0
 12 17  1  0  0  0  0
 13 14  1  0  0  0  0
 13 17  1  0  0  0  0
 14 19  1  0  0  0  0
  1 21  1  0  0  0  0
  2 22  1  0  0  0  0
  3 23  1  0  0  0  0
  4 24  1  0  0  0  0
  5 25  1  0  0  0  0
  6 26  1  0  0  0  0
  7 27  1  0  0  0  0
 12 28  1  0  0  0  0
 12 29  1  0  0  0  0
 13 30  1  0  0  0  0
 13 31  1  0  0  0  0
 14 32  1  0  0  0  0
 14 33  1  0  0  0  0
 19 34  1  0  0  0  0
M  END
> <POSIT::Probability>
0.02

> <POSIT::Method>
FRED

> <ReceptorTitle>
UCSF-P4432-REFINED_LIGAND-BOUND-STATE_A__DU__LA1_A-201(A)

> <OMEGA_C>
dhFEwvEy6sFWE7NAmXhBwgp56sE0v4tAdZYrwiVj9sHZ4jpAi/lAwiHU6MGheNdABcsmwg418cFd
MktA6DU5wr0M6MGdPLBAh7Uowhra48Ghy9U/KwcvwmLZ8cGJQ/4/xfA7wlBi6cGTBYpAa5ctwj9o
6MGcL6w/YiA0wmtL98Fw1No/9QQ5wi+l6cEvFUBAiBI9whuU+8FoAzJAb1FBwvOv+sH45tk/Kpg7
wlW+58GGC9dACEMlwl0G6ME1lyRAz5s4wiJ19MGc9x1AfRI0wtf4/cHAYk4/fxE/wv2M/cHgkeQ+
v6ExwrJP4sEAQTc+ZGBIwrYF68F/KbVAnMlDwq+H68GmQ11Ap5MswkG//cH8IlxAls5CwteM6MEL
7fZA7/cjwrJq9MGaPnlAO+Q0wlMp58Fc5bBAwlknwp173MGLWJo/qBM7wqGz5MF/gBBAN/U0wh56
5sFw2kZAjoo7wv/hAcJyxDVADq4+wrtF+cF7fXBAD7tEwjju/8Fc7/M/ILxCwn9s8sG+0tA/OudB
wpnf/MEAVli+

> <OMEGA_E>
F3MLwQ==

> <OMEGA_NBR>
     35339

$$$$
CACHE3HI_1694_88
  -OEChem-03092622513D

 35 36  0     1  0  0  0  0  0999 V2000
  -55.4119  -28.9216   14.2550 C   0  0  0  0  0  0  0  0  0  0  0  0
  -55.0852  -28.7096   12.9202 C   0  0  0  0  0  0  0  0  0  0  0  0
  -54.7709  -28.1486   15.2102 C   0  0  0  0  0  0  0  0  0  0  0  0
  -53.5571  -27.0247   13.6152 C   0  0  0  0  0  0  0  0  0  0  0  0
  -51.6637  -30.1116    6.9625 C   0  0  0  0  0  0  0  0  0  0  0  0
  -54.1413  -27.7451   12.5858 C   0  0  0  0  0  0  0  0  0  0  0  0
  -50.7355  -29.2994    7.5767 C   0  0  0  0  0  0  0  0  0  0  0  0
  -50.3377  -30.2202    5.1021 C   0  0  0  0  0  0  0  0  0  0  0  0
  -49.4095  -29.4079    5.7164 C   0  0  0  0  0  0  0  0  0  0  0  0
  -53.2776  -28.3658    8.2237 C   0  0  0  0  0  0  0  0  0  0  0  0
  -53.7655  -27.4913   11.1475 C   0  0  0  0  0  0  0  0  0  0  0  0
  -52.5928  -28.3491   10.6500 C   0  0  0  0  0  0  0  0  0  0  0  0
  -52.1538  -28.0527    9.2071 C   0  0  1  0  0  0  0  0  0  0  0  0
  -53.8488  -27.2025   14.9231 N   0  0  0  0  0  0  0  0  0  0  0  0
  -51.4817  -30.5865    5.7144 N   0  0  0  0  0  0  0  0  0  0  0  0
  -49.5914  -28.9332    6.9644 N   0  0  0  0  0  0  0  0  0  0  0  0
  -50.0957  -30.6918    3.7924 N   0  0  0  0  0  0  0  0  0  0  0  0
  -50.9991  -28.8544    8.8592 N   0  0  0  0  0  0  0  0  0  0  0  0
  -47.9385  -28.9109    4.9835 Cl  0  0  0  0  0  0  0  0  0  0  0  0
  -56.1458  -29.6674   14.5382 H   0  0  0  0  0  0  0  0  0  0  0  0
  -55.5715  -29.2994   12.1480 H   0  0  0  0  0  0  0  0  0  0  0  0
  -54.9909  -28.2741   16.2652 H   0  0  0  0  0  0  0  0  0  0  0  0
  -52.8136  -26.2593   13.4154 H   0  0  0  0  0  0  0  0  0  0  0  0
  -52.5864  -30.4119    7.4456 H   0  0  0  0  0  0  0  0  0  0  0  0
  -53.5724  -29.4192    8.2924 H   0  0  0  0  0  0  0  0  0  0  0  0
  -52.9612  -28.1703    7.1937 H   0  0  0  0  0  0  0  0  0  0  0  0
  -54.1682  -27.7609    8.4279 H   0  0  0  0  0  0  0  0  0  0  0  0
  -54.6389  -27.6314   10.4985 H   0  0  0  0  0  0  0  0  0  0  0  0
  -53.4966  -26.4310   11.0482 H   0  0  0  0  0  0  0  0  0  0  0  0
  -52.8558  -29.4113   10.7349 H   0  0  0  0  0  0  0  0  0  0  0  0
  -51.7448  -28.1847   11.3283 H   0  0  0  0  0  0  0  0  0  0  0  0
  -51.8927  -26.9941    9.1039 H   0  0  0  0  0  0  0  0  0  0  0  0
  -49.2768  -30.3850    3.3103 H   0  0  0  0  0  0  0  0  0  0  0  0
  -50.7974  -31.2360    3.3356 H   0  0  0  0  0  0  0  0  0  0  0  0
  -50.3526  -29.0991    9.5982 H   0  0  0  0  0  0  0  0  0  0  0  0
  1  2  2  0  0  0  0
  1  3  1  0  0  0  0
  2  6  1  0  0  0  0
  3 14  2  0  0  0  0
  4  6  2  0  0  0  0
  4 14  1  0  0  0  0
  5  7  1  0  0  0  0
  5 15  2  0  0  0  0
  6 11  1  0  0  0  0
  7 16  2  0  0  0  0
  7 18  1  0  0  0  0
  8  9  2  0  0  0  0
  8 15  1  0  0  0  0
  8 17  1  0  0  0  0
  9 16  1  0  0  0  0
  9 19  1  0  0  0  0
 10 13  1  0  0  0  0
 11 12  1  0  0  0  0
 12 13  1  0  0  0  0
 13 18  1  0  0  0  0
  1 20  1  0  0  0  0
  2 21  1  0  0  0  0
  3 22  1  0  0  0  0
  4 23  1  0  0  0  0
  5 24  1  0  0  0  0
 10 25  1  0  0  0  0
 10 26  1  0  0  0  0
 10 27  1  0  0  0  0
 11 28  1  0  0  0  0
 11 29  1  0  0  0  0
 12 30  1  0  0  0  0
 12 31  1  0  0  0  0
 13 32  1  0  0  0  0
 17 33  1  0  0  0  0
 17 34  1  0  0  0  0
 18 35  1  0  0  0  0
M  END
> <POSIT::Probability>
0.14

> <POSIT::Method>
HYBRID

> <ReceptorTitle>
UCSF-P4432-REFINED_LIGAND-BOUND-STATE_A__DU__LA1_A-201(A)

> <OMEGA_C>
1qVdwopf58FfFGRBSldcwiyt5cFOuU5BXBVbwmYw4cECXXNBfDpWwqYy2MHR11lBnqdOwnvk8MHm
zN5AqZBYwvD13cGEX0lBLPFKwkJl6sFGdPJAyFlJwgDD8cE8RKNAYaNFwnBD68EI7bZAQxxVwjjt
4sFjlANB1g9Xwizu28H8WzJB+l5Swt7K4sFZZipBd51QwgJs4MFMUBNBImVXwrSe2cEzxW5BTe1N
wjKx9MF83LZAnV1Gwjl358Gy3N5ACmJIwtyI9cEQt3JAFP9LwrfV5sE+vw1BE8E/wpVJ58F6eJ9A
V5VgwtRW7cFnnGhBOElewidl6sFiXkJBrPZbwnEx4sEvH4JBJkFTwvkS0sFcpVZBbVhSwp5L88Em
Qu5AKkpWwnha68HErQRBO9hTwtBc4cESM+ZANKxYwmgW3sHR2AZBOI5awhIN3cHO+SdBgPxVwppy
08E9xTBBXWxTwkFK68FZwitBovpOwlJ64cGHQDVBLZJPwvLz18GJqRFBextFwnMU88GI3FNAjDBL
wmDj+cG0elVABGlJwgvL6MEokhlB

> <OMEGA_E>
avy+wA==

> <OMEGA_NBR>
     36534

$$$$
CACHE3HI_1695_12
  -OEChem-03092622513D

 39 42  0     1  0  0  0  0  0999 V2000
  -47.7890  -29.0054    3.6618 C   0  0  0  0  0  0  0  0  0  0  0  0
  -48.7196  -29.2655    2.6572 C   0  0  0  0  0  0  0  0  0  0  0  0
  -54.7529  -25.9735   11.2046 C   0  0  0  0  0  0  0  0  0  0  0  0
  -49.5229  -29.2615    5.3269 C   0  0  0  0  0  0  0  0  0  0  0  0
  -50.4567  -29.4995    4.3220 C   0  0  0  0  0  0  0  0  0  0  0  0
  -48.1903  -29.0002    4.9979 C   0  0  0  0  0  0  0  0  0  0  0  0
  -50.0525  -29.5103    2.9856 C   0  0  0  0  0  0  0  0  0  0  0  0
  -55.0306  -25.6509   12.5439 C   0  0  0  0  0  0  0  0  0  0  0  0
  -53.5142  -26.5560   11.2597 C   0  0  0  0  0  0  0  0  0  0  0  0
  -51.6575  -29.3292    8.2114 C   0  0  0  0  0  0  0  0  0  0  0  0
  -52.6138  -28.1804    6.2940 C   0  0  0  0  0  0  0  0  0  0  0  0
  -51.0751  -29.9127    6.9271 C   0  0  1  0  0  0  0  0  0  0  0  0
  -52.1685  -29.5927    5.9207 C   0  0  2  0  0  0  0  0  0  0  0  0
  -56.2359  -25.0023   13.0847 C   0  0  0  0  0  0  0  0  0  0  0  0
  -52.5966  -27.1412   10.2309 C   0  0  0  0  0  0  0  0  0  0  0  0
  -54.0403  -26.0060   13.3669 N   0  0  0  0  0  0  0  0  0  0  0  0
  -52.3358  -28.0738    7.7578 N   0  0  0  0  0  0  0  0  0  0  0  0
  -54.5234  -28.4577    9.0561 O   0  0  0  0  0  0  0  0  0  0  0  0
  -53.9562  -26.1346    8.2403 O   0  0  0  0  0  0  0  0  0  0  0  0
  -53.0784  -26.5815   12.5458 O   0  0  0  0  0  0  0  0  0  0  0  0
  -49.8475  -29.2359    6.6527 O   0  0  0  0  0  0  0  0  0  0  0  0
  -51.7833  -29.7139    4.5616 O   0  0  0  0  0  0  0  0  0  0  0  0
  -47.2906  -28.7513    5.9597 F   0  0  0  0  0  0  0  0  0  0  0  0
  -50.9420  -29.7446    2.0106 F   0  0  0  0  0  0  0  0  0  0  0  0
  -53.5473  -27.4270    8.7577 S   0  0  0  0  0  0  0  0  0  0  0  0
  -46.7524  -28.8083    3.4052 H   0  0  0  0  0  0  0  0  0  0  0  0
  -48.4079  -29.2706    1.6168 H   0  0  0  0  0  0  0  0  0  0  0  0
  -55.3618  -25.8095   10.3276 H   0  0  0  0  0  0  0  0  0  0  0  0
  -52.3976  -30.0108    8.6447 H   0  0  0  0  0  0  0  0  0  0  0  0
  -50.8873  -29.0846    8.9482 H   0  0  0  0  0  0  0  0  0  0  0  0
  -52.0491  -27.4073    5.7630 H   0  0  0  0  0  0  0  0  0  0  0  0
  -53.6749  -28.0376    6.0665 H   0  0  0  0  0  0  0  0  0  0  0  0
  -50.8691  -30.9855    7.0154 H   0  0  0  0  0  0  0  0  0  0  0  0
  -53.0113  -30.2780    6.0812 H   0  0  0  0  0  0  0  0  0  0  0  0
  -57.0135  -25.7344   13.3692 H   0  0  0  0  0  0  0  0  0  0  0  0
  -56.7122  -24.3270   12.3506 H   0  0  0  0  0  0  0  0  0  0  0  0
  -56.0013  -24.4033   13.9819 H   0  0  0  0  0  0  0  0  0  0  0  0
  -52.1745  -28.0967   10.5546 H   0  0  0  0  0  0  0  0  0  0  0  0
  -51.7760  -26.4633    9.9805 H   0  0  0  0  0  0  0  0  0  0  0  0
  1  2  1  0  0  0  0
  1  6  2  0  0  0  0
  2  7  2  0  0  0  0
  3  8  1  0  0  0  0
  3  9  2  0  0  0  0
  4  5  2  0  0  0  0
  4  6  1  0  0  0  0
  4 21  1  0  0  0  0
  5  7  1  0  0  0  0
  5 22  1  0  0  0  0
  6 23  1  0  0  0  0
  7 24  1  0  0  0  0
  8 14  1  0  0  0  0
  8 16  2  0  0  0  0
  9 15  1  0  0  0  0
  9 20  1  0  0  0  0
 10 12  1  0  0  0  0
 10 17  1  0  0  0  0
 11 13  1  0  0  0  0
 11 17  1  0  0  0  0
 12 13  1  0  0  0  0
 12 21  1  0  0  0  0
 13 22  1  0  0  0  0
 15 25  1  0  0  0  0
 16 20  1  0  0  0  0
 17 25  1  0  0  0  0
 18 25  2  0  0  0  0
 19 25  2  0  0  0  0
  1 26  1  0  0  0  0
  2 27  1  0  0  0  0
  3 28  1  0  0  0  0
 10 29  1  0  0  0  0
 10 30  1  0  0  0  0
 11 31  1  0  0  0  0
 11 32  1  0  0  0  0
 12 33  1  0  0  0  0
 13 34  1  0  0  0  0
 14 35  1  0  0  0  0
 14 36  1  0  0  0  0
 14 37  1  0  0  0  0
 15 38  1  0  0  0  0
 15 39  1  0  0  0  0
M  END
> <POSIT::Probability>
0.18

> <POSIT::Method>
HYBRID

> <ReceptorTitle>
UCSF-P4432-REFINED_LIGAND-BOUND-STATE_A__DU__LA1_A-201(A)

> <OMEGA_C>
7Cc/whkL6MEpWmpA2eBCwr8f6sHzDypA9QJbwtPJz8EeRjNBZhdGwqIX6sHKdapAr9NJwun+68H0
TYpA08JAwnQA6ME0759AuTVIwhQV7MGMFD9AVx9cwiA1zcGss0hBjQ5WwqNy1MGqJzRBPaFOwjKi
6sESYgNBjnRSwnZx4cHbaMlA5ExMwi5N78GGqt1AmKxQwuC97MEWdr1Aj/Fgwr0EyMG+WlFB4GJS
wjUh2cHesSNBSilYwkUM0MHX3lVB6VdRwiqX4MGIP/hA/xdawlOp48G55RBBM9NXwrMT0cFM2ANB
O1BUwtem1MGXu0hB2mNHwhvj6cEv49RAECJPwvq17cHi+JFAlik9wrsC5sEhtr5AkcRLwgH17cHI
rQBAeDBWwpZq28GkHwxBdQI7wl535sFN71lAtaFBwikq6sFQ9M4/fnJdwsh5zsH+PSVBIJdRwhAW
8MGFUApBkoxLwjat6MGxKw9BSjJQwjdC28HfarhAHbNWwuhM4MHIIMJA6XlLwlDi98EmfuBAkQtU
wkU58sHImMJAxg1kwgvgzcEp6FVBVNliwqudwsH+m0VBXgFgwu45w8GqtV9BsbJQwiTG4MHU3yhB
oxpPwtC008Htrx9B

> <OMEGA_E>
wBXEwA==

> <OMEGA_NBR>
     37817

$$$$
CACHE3HI_1695_20
  -OEChem-03092622513D

 41 43  0     0  0  0  0  0  0999 V2000
  -48.2178  -29.0795    6.3740 C   0  0  0  0  0  0  0  0  0  0  0  0
  -46.9612  -29.3123    5.8120 C   0  0  0  0  0  0  0  0  0  0  0  0
  -49.3127  -29.6499    4.2771 C   0  0  0  0  0  0  0  0  0  0  0  0
  -49.3848  -29.2472    5.6123 C   0  0  0  0  0  0  0  0  0  0  0  0
  -46.8983  -29.6992    4.4841 C   0  0  0  0  0  0  0  0  0  0  0  0
  -48.0622  -29.8662    3.7246 C   0  0  0  0  0  0  0  0  0  0  0  0
  -50.6728  -29.0072    6.2178 C   0  0  0  0  0  0  0  0  0  0  0  0
  -52.6822  -28.4936    6.4539 C   0  0  0  0  0  0  0  0  0  0  0  0
  -54.2562  -26.8746    8.7327 C   0  0  0  0  0  0  0  0  0  0  0  0
  -45.6836  -30.0395    3.6794 C   0  0  0  0  0  0  0  0  0  0  0  0
  -47.7338  -30.3334    2.3422 C   0  0  0  0  0  0  0  0  0  0  0  0
  -46.2439  -29.9699    2.2514 C   0  0  0  0  0  0  0  0  0  0  0  0
  -54.5162  -26.5674    7.2784 C   0  0  0  0  0  0  0  0  0  0  0  0
  -53.4689  -25.7806   10.8179 C   0  0  0  0  0  0  0  0  0  0  0  0
  -54.7028  -26.1555   11.5941 C   0  0  0  0  0  0  0  0  0  0  0  0
  -51.7612  -28.5649    5.5213 N   0  0  0  0  0  0  0  0  0  0  0  0
  -52.1560  -28.8782    7.6474 N   0  0  0  0  0  0  0  0  0  0  0  0
  -50.8631  -29.2137    7.5225 N   0  0  0  0  0  0  0  0  0  0  0  0
  -53.7899  -25.7570    9.4102 N   0  0  0  0  0  0  0  0  0  0  0  0
  -54.4434  -27.9780    9.2382 O   0  0  0  0  0  0  0  0  0  0  0  0
  -54.4927  -27.5117    4.8487 O   0  0  0  0  0  0  0  0  0  0  0  0
  -55.2056  -29.0359    6.7240 O   0  0  0  0  0  0  0  0  0  0  0  0
  -54.4534  -26.2027   12.9203 F   0  0  0  0  0  0  0  0  0  0  0  0
  -55.7020  -25.2715   11.3864 F   0  0  0  0  0  0  0  0  0  0  0  0
  -55.1489  -27.3745   11.2168 F   0  0  0  0  0  0  0  0  0  0  0  0
  -54.2871  -27.9986    6.2250 S   0  0  0  0  0  0  0  0  0  0  0  0
  -48.2786  -28.7712    7.4156 H   0  0  0  0  0  0  0  0  0  0  0  0
  -46.0611  -29.1933    6.4055 H   0  0  0  0  0  0  0  0  0  0  0  0
  -50.2085  -29.7938    3.6801 H   0  0  0  0  0  0  0  0  0  0  0  0
  -44.8698  -29.3235    3.8241 H   0  0  0  0  0  0  0  0  0  0  0  0
  -45.3425  -31.0512    3.9217 H   0  0  0  0  0  0  0  0  0  0  0  0
  -47.8822  -31.4152    2.2649 H   0  0  0  0  0  0  0  0  0  0  0  0
  -48.3178  -29.8178    1.5747 H   0  0  0  0  0  0  0  0  0  0  0  0
  -46.1483  -28.9405    1.8783 H   0  0  0  0  0  0  0  0  0  0  0  0
  -45.6985  -30.6152    1.5557 H   0  0  0  0  0  0  0  0  0  0  0  0
  -55.5475  -26.2270    7.1492 H   0  0  0  0  0  0  0  0  0  0  0  0
  -53.8260  -25.7935    6.9298 H   0  0  0  0  0  0  0  0  0  0  0  0
  -52.6679  -26.5069   10.9803 H   0  0  0  0  0  0  0  0  0  0  0  0
  -53.1088  -24.7897   11.1095 H   0  0  0  0  0  0  0  0  0  0  0  0
  -50.2950  -29.5261    8.3054 H   0  0  0  0  0  0  0  0  0  0  0  0
  -53.6697  -24.8893    8.8963 H   0  0  0  0  0  0  0  0  0  0  0  0
  1  2  1  0  0  0  0
  1  4  2  0  0  0  0
  2  5  2  0  0  0  0
  3  4  1  0  0  0  0
  3  6  2  0  0  0  0
  4  7  1  0  0  0  0
  5  6  1  0  0  0  0
  5 10  1  0  0  0  0
  6 11  1  0  0  0  0
  7 16  2  0  0  0  0
  7 18  1  0  0  0  0
  8 16  1  0  0  0  0
  8 17  2  0  0  0  0
  8 26  1  0  0  0  0
  9 13  1  0  0  0  0
  9 19  1  0  0  0  0
  9 20  2  0  0  0  0
 10 12  1  0  0  0  0
 11 12  1  0  0  0  0
 13 26  1  0  0  0  0
 14 15  1  0  0  0  0
 14 19  1  0  0  0  0
 15 23  1  0  0  0  0
 15 24  1  0  0  0  0
 15 25  1  0  0  0  0
 17 18  1  0  0  0  0
 21 26  2  0  0  0  0
 22 26  2  0  0  0  0
  1 27  1  0  0  0  0
  2 28  1  0  0  0  0
  3 29  1  0  0  0  0
 10 30  1  0  0  0  0
 10 31  1  0  0  0  0
 11 32  1  0  0  0  0
 11 33  1  0  0  0  0
 12 34  1  0  0  0  0
 12 35  1  0  0  0  0
 13 36  1  0  0  0  0
 13 37  1  0  0  0  0
 14 38  1  0  0  0  0
 14 39  1  0  0  0  0
 18 40  1  0  0  0  0
 19 41  1  0  0  0  0
M  END
> <POSIT::Probability>
0.18

> <POSIT::Method>
FRED

> <ReceptorTitle>
UCSF-P4432-REFINED_LIGAND-BOUND-STATE_A__DU__LA1_A-201(A)

> <OMEGA_C>
FN9AwtOi6MF698tAONg7wn1/6sFD/LlAOUBFwgAz7cE63ohAC4pFwlD66cHbl7NA0Jc7wveX7cF+
fY9Atz9AwuPt7sGcX25A8LBKwrkO6MFT+MZAjrpSwvjy48Fnhs5AXQZZwjP/1sFOuQtB+rs2wudQ
8MGOemtAb+8+wr2q8sG25hVAzPk4wm3C78HJFhBAmxBawh+K1MG46OhALuBVwqo+zsEdFi1BsM9a
wn0+0cFzgTlBcwtPwv6E5MGLrrBAuJ9QwqYG58Flt/RAxHNLwrq16cH0t/BA2yhXwm8OzsEmkBZB
FsZZwv/S38HBzxNBevhZwucX3MFcKJtAldJcwppJ6MEAK9dAUtBZwhif0cGiuU5B0M5ewvwrysHP
LjZBbZhcwhL/2sHxdzNB/yVZwhf938GRM8dASR1BwnAr5sHKTO1Ahz44wuiL6cF8+cxAfdVIwqFZ
7sGdhmtAoXozwpSW6sGvvnRAsF41wuBo+MFA/XpAa4c/wmtS+8FI9BBAZ0VBwsGK7sHMkMk/6Jc4
wjmG58FQbfA/Rss2wuDr9MEwIsc/mzBewtLQ0cFpxuRA4E1Xwg9ZzsECwd1A8qtSwjsO1ME5ry9B
Z29UwkRRxsFqwDFBGS5JwnY17MES4wRBy61WwjMdx8E2Vw5B

> <OMEGA_E>
tHULwQ==

> <OMEGA_NBR>
     39128

$$$$
CACHE3HI_1695_23
  -OEChem-03092622513D

 46 49  0     1  0  0  0  0  0999 V2000
  -46.4207  -29.2791    5.7982 C   0  0  0  0  0  0  0  0  0  0  0  0
  -47.4114  -29.5099    3.5812 C   0  0  0  0  0  0  0  0  0  0  0  0
  -52.9286  -28.2239   10.9221 C   0  0  0  0  0  0  0  0  0  0  0  0
  -54.0769  -26.2642   10.0982 C   0  0  0  0  0  0  0  0  0  0  0  0
  -48.5305  -29.5409    2.7547 C   0  0  0  0  0  0  0  0  0  0  0  0
  -53.2906  -27.8869   12.2263 C   0  0  0  0  0  0  0  0  0  0  0  0
  -54.4389  -25.9272   11.4024 C   0  0  0  0  0  0  0  0  0  0  0  0
  -48.8504  -29.2057    5.5009 C   0  0  0  0  0  0  0  0  0  0  0  0
  -47.5706  -29.3300    4.9505 C   0  0  0  0  0  0  0  0  0  0  0  0
  -53.3220  -27.4124    9.8580 C   0  0  0  0  0  0  0  0  0  0  0  0
  -49.8096  -29.3986    3.3064 C   0  0  0  0  0  0  0  0  0  0  0  0
  -49.9926  -29.2712    4.6918 C   0  0  0  0  0  0  0  0  0  0  0  0
  -54.0455  -26.7387   12.4666 C   0  0  0  0  0  0  0  0  0  0  0  0
  -52.1919  -29.1362    2.8505 C   0  0  0  0  0  0  0  0  0  0  0  0
  -51.7338  -29.4417    6.5161 C   0  0  0  0  0  0  0  0  0  0  0  0
  -52.3349  -28.6658    4.2806 C   0  0  0  0  0  0  0  0  0  0  0  0
  -53.7771  -27.2664    7.3171 C   0  0  0  0  0  0  0  0  0  0  0  0
  -52.9378  -27.7703    8.4712 C   0  0  2  0  0  0  0  0  0  0  0  0
  -53.8152  -28.7204    7.6832 C   0  0  2  0  0  0  0  0  0  0  0  0
  -55.1703  -25.2227   13.9136 C   0  0  0  0  0  0  0  0  0  0  0  0
  -53.1908  -29.7489    6.7699 C   0  0  0  0  0  0  0  0  0  0  0  0
  -45.4876  -29.2377    6.4870 N   0  0  0  0  0  0  0  0  0  0  0  0
  -50.9109  -29.4114    2.4394 N   0  0  0  0  0  0  0  0  0  0  0  0
  -51.3244  -29.1814    5.2035 N   0  0  0  0  0  0  0  0  0  0  0  0
  -53.1496  -29.1187    2.0765 O   0  0  0  0  0  0  0  0  0  0  0  0
  -50.9778  -29.3533    7.4914 O   0  0  0  0  0  0  0  0  0  0  0  0
  -54.3980  -26.4101   13.7395 O   0  0  0  0  0  0  0  0  0  0  0  0
  -46.4234  -29.6365    3.1431 H   0  0  0  0  0  0  0  0  0  0  0  0
  -52.3407  -29.1208   10.7456 H   0  0  0  0  0  0  0  0  0  0  0  0
  -54.3881  -25.6255    9.2758 H   0  0  0  0  0  0  0  0  0  0  0  0
  -48.3956  -29.6804    1.6867 H   0  0  0  0  0  0  0  0  0  0  0  0
  -52.9813  -28.5225   13.0516 H   0  0  0  0  0  0  0  0  0  0  0  0
  -55.0279  -25.0322   11.5833 H   0  0  0  0  0  0  0  0  0  0  0  0
  -48.9214  -29.0956    6.5767 H   0  0  0  0  0  0  0  0  0  0  0  0
  -52.2857  -27.5854    4.2574 H   0  0  0  0  0  0  0  0  0  0  0  0
  -53.3041  -28.9898    4.6406 H   0  0  0  0  0  0  0  0  0  0  0  0
  -54.6573  -26.6717    7.5323 H   0  0  0  0  0  0  0  0  0  0  0  0
  -53.2590  -26.9725    6.4118 H   0  0  0  0  0  0  0  0  0  0  0  0
  -51.8689  -27.8278    8.2847 H   0  0  0  0  0  0  0  0  0  0  0  0
  -54.7206  -29.0945    8.1475 H   0  0  0  0  0  0  0  0  0  0  0  0
  -55.3827  -25.0773   14.9759 H   0  0  0  0  0  0  0  0  0  0  0  0
  -54.6003  -24.3694   13.5382 H   0  0  0  0  0  0  0  0  0  0  0  0
  -56.1039  -25.3089   13.3530 H   0  0  0  0  0  0  0  0  0  0  0  0
  -53.2520  -30.7419    7.2089 H   0  0  0  0  0  0  0  0  0  0  0  0
  -53.7024  -29.7624    5.8095 H   0  0  0  0  0  0  0  0  0  0  0  0
  -50.7557  -29.6337    1.4648 H   0  0  0  0  0  0  0  0  0  0  0  0
  1  9  1  0  0  0  0
  1 22  3  0  0  0  0
  2  5  1  0  0  0  0
  2  9  2  0  0  0  0
  3  6  2  0  0  0  0
  3 10  1  0  0  0  0
  4  7  1  0  0  0  0
  4 10  2  0  0  0  0
  5 11  2  0  0  0  0
  6 13  1  0  0  0  0
  7 13  2  0  0  0  0
  8  9  1  0  0  0  0
  8 12  2  0  0  0  0
 10 18  1  0  0  0  0
 11 12  1  0  0  0  0
 11 23  1  0  0  0  0
 12 24  1  0  0  0  0
 13 27  1  0  0  0  0
 14 16  1  0  0  0  0
 14 23  1  0  0  0  0
 14 25  2  0  0  0  0
 15 21  1  0  0  0  0
 15 24  1  0  0  0  0
 15 26  2  0  0  0  0
 16 24  1  0  0  0  0
 17 18  1  0  0  0  0
 17 19  1  0  0  0  0
 18 19  1  0  0  0  0
 19 21  1  0  0  0  0
 20 27  1  0  0  0  0
  2 28  1  0  0  0  0
  3 29  1  0  0  0  0
  4 30  1  0  0  0  0
  5 31  1  0  0  0  0
  6 32  1  0  0  0  0
  7 33  1  0  0  0  0
  8 34  1  0  0  0  0
 16 35  1  0  0  0  0
 16 36  1  0  0  0  0
 17 37  1  0  0  0  0
 17 38  1  0  0  0  0
 18 39  1  0  0  0  0
 19 40  1  0  0  0  0
 20 41  1  0  0  0  0
 20 42  1  0  0  0  0
 20 43  1  0  0  0  0
 21 44  1  0  0  0  0
 21 45  1  0  0  0  0
 23 46  1  0  0  0  0
M  END
> <POSIT::Probability>
0.23

> <POSIT::Method>
HYBRID

> <ReceptorTitle>
UCSF-P4432-REFINED_LIGAND-BOUND-STATE_A__DU__LA1_A-201(A)

> <OMEGA_C>
1K45wpY76sHHirlARaU9wloU7MGyMmVA47ZTwn7K4cHJwC5BwU5YwiMd0sFQkiFBPB9CwsZT7MHS
TDBAlClVwmIY38EPn0NBdMFZwv5qz8FYcDZBymZDwlyl6cEkB7BASEg+wsKj6sEpap5AtUlVwqhM
28FVuh1BCz1HwmYw68Gem1NAYfhHwlkr6sHsIpZAni5Ywtzo1cEKd0dBgsRQwvgW6cEzbjZAYe9O
wqiI68E7hNBA81ZRwn1T5cG5+ohAyRtXwrAh2sECJupAT8BTwqQp3sEEigdBzUJXwlzD5cEQ3fVA
V65cwiPIycEMnl5BW8NUwtL97cFBo9hAWvM1wrvm6cHIlc9AuaRLwoZK68FKHxxAL0xNwoRz6cHe
gqZAOplUwhLz6MEc5gRASulLwo3T6sGLue9Ak5dZws9H08HY1FtBh7E5wpwX7cGIKElA11xRwk33
6MEs7itBdY1ZwgMBzcGOaRRBH5VBwodx7cEW5tc/2+xTwi4u5MF201BBhhxcwuZByMEfVTlBgK9D
wtjD6MGvdNJAmiRRws+u3MGiPIhAWTdVwivr58Frf5RAGKFawq1f1cHkCPFANglVwsfH18HJLc1A
zHlPwkef3sEEjgRB3eFawprB6MH6WwJB7oddwmSeyMFinW9BrGZawqH0wsFPnFhBaGpgwqp4ysHk
pVVBAAJVwnDv9cEwr+ZASM9WwncZ7sGO57lA2QVLwr0R7cGkfbs/

> <OMEGA_E>
Qs2wwA==

> <OMEGA_NBR>
     40550

$$$$
CACHE3HI_1695_53
  -OEChem-03092622513D

 40 43  0     1  0  0  0  0  0999 V2000
  -48.6092  -28.1733    5.6534 C   0  0  0  0  0  0  0  0  0  0  0  0
  -49.9072  -28.6628    5.5070 C   0  0  0  0  0  0  0  0  0  0  0  0
  -47.5740  -28.7022    4.8826 C   0  0  0  0  0  0  0  0  0  0  0  0
  -54.0336  -27.2978    9.7855 C   0  0  0  0  0  0  0  0  0  0  0  0
  -49.1348  -30.2095    3.8192 C   0  0  0  0  0  0  0  0  0  0  0  0
  -55.2968  -25.2908   13.3063 C   0  0  0  0  0  0  0  0  0  0  0  0
  -52.7637  -29.2267    9.2162 C   0  0  0  0  0  0  0  0  0  0  0  0
  -52.9040  -28.6015   11.4229 C   0  0  0  0  0  0  0  0  0  0  0  0
  -55.3250  -25.9589   12.1080 C   0  0  0  0  0  0  0  0  0  0  0  0
  -53.5583  -28.1665    8.8094 C   0  0  0  0  0  0  0  0  0  0  0  0
  -50.1700  -29.6806    4.5899 C   0  0  0  0  0  0  0  0  0  0  0  0
  -53.7048  -27.5124   11.1193 C   0  0  0  0  0  0  0  0  0  0  0  0
  -47.8368  -29.7201    3.9656 C   0  0  0  0  0  0  0  0  0  0  0  0
  -53.8906  -27.9652    7.3770 C   0  0  0  0  0  0  0  0  0  0  0  0
  -52.3716  -30.7433    5.7034 C   0  0  0  0  0  0  0  0  0  0  0  0
  -52.8469  -29.2712    4.2110 C   0  0  0  0  0  0  0  0  0  0  0  0
  -51.6552  -30.2395    4.4232 C   0  0  1  0  0  0  0  0  0  0  0  0
  -53.2573  -29.4831    5.6803 C   0  0  2  0  0  0  0  0  0  0  0  0
  -52.4235  -29.4670   10.5024 N   0  0  0  0  0  0  0  0  0  0  0  0
  -54.1500  -25.6045   13.9812 N   0  0  0  0  0  0  0  0  0  0  0  0
  -53.4565  -26.4555   13.2329 N   0  0  0  0  0  0  0  0  0  0  0  0
  -54.1624  -26.6669   12.1102 N   0  0  0  0  0  0  0  0  0  0  0  0
  -54.9292  -27.4472    6.9963 O   0  0  0  0  0  0  0  0  0  0  0  0
  -52.8886  -28.4343    6.5946 O   0  0  0  0  0  0  0  0  0  0  0  0
  -46.5588  -30.3719    3.0149 Cl  0  0  0  0  0  0  0  0  0  0  0  0
  -48.4049  -27.3809    6.3673 H   0  0  0  0  0  0  0  0  0  0  0  0
  -50.7086  -28.2459    6.1109 H   0  0  0  0  0  0  0  0  0  0  0  0
  -46.5674  -28.3114    5.0072 H   0  0  0  0  0  0  0  0  0  0  0  0
  -54.6602  -26.4540    9.5039 H   0  0  0  0  0  0  0  0  0  0  0  0
  -49.3465  -31.0029    3.1062 H   0  0  0  0  0  0  0  0  0  0  0  0
  -56.0306  -24.6110   13.7119 H   0  0  0  0  0  0  0  0  0  0  0  0
  -52.3630  -29.9385    8.5008 H   0  0  0  0  0  0  0  0  0  0  0  0
  -52.6124  -28.8228   12.4454 H   0  0  0  0  0  0  0  0  0  0  0  0
  -56.0398  -25.9864   11.2972 H   0  0  0  0  0  0  0  0  0  0  0  0
  -52.9093  -31.6969    5.5930 H   0  0  0  0  0  0  0  0  0  0  0  0
  -51.7258  -30.8213    6.5942 H   0  0  0  0  0  0  0  0  0  0  0  0
  -52.5624  -28.2328    3.9708 H   0  0  0  0  0  0  0  0  0  0  0  0
  -53.5877  -29.5978    3.4657 H   0  0  0  0  0  0  0  0  0  0  0  0
  -51.6382  -31.0377    3.6481 H   0  0  0  0  0  0  0  0  0  0  0  0
  -54.3316  -29.7168    5.7940 H   0  0  0  0  0  0  0  0  0  0  0  0
  1  2  2  0  0  0  0
  1  3  1  0  0  0  0
  2 11  1  0  0  0  0
  3 13  2  0  0  0  0
  4 10  2  0  0  0  0
  4 12  1  0  0  0  0
  5 11  2  0  0  0  0
  5 13  1  0  0  0  0
  6  9  2  0  0  0  0
  6 20  1  0  0  0  0
  7 10  1  0  0  0  0
  7 19  2  0  0  0  0
  8 12  2  0  0  0  0
  8 19  1  0  0  0  0
  9 22  1  0  0  0  0
 10 14  1  0  0  0  0
 11 17  1  0  0  0  0
 12 22  1  0  0  0  0
 13 25  1  0  0  0  0
 14 23  2  0  0  0  0
 14 24  1  0  0  0  0
 15 17  1  0  0  0  0
 15 18  1  0  0  0  0
 16 17  1  0  0  0  0
 16 18  1  0  0  0  0
 18 24  1  0  0  0  0
 20 21  2  0  0  0  0
 21 22  1  0  0  0  0
  1 26  1  0  0  0  0
  2 27  1  0  0  0  0
  3 28  1  0  0  0  0
  4 29  1  0  0  0  0
  5 30  1  0  0  0  0
  6 31  1  0  0  0  0
  7 32  1  0  0  0  0
  8 33  1  0  0  0  0
  9 34  1  0  0  0  0
 15 35  1  0  0  0  0
 15 36  1  0  0  0  0
 16 37  1  0  0  0  0
 16 38  1  0  0  0  0
 17 39  1  0  0  0  0
 18 40  1  0  0  0  0
M  END
> <POSIT::Probability>
0.18

> <POSIT::Method>
HYBRID

> <ReceptorTitle>
UCSF-P4432-REFINED_LIGAND-BOUND-STATE_A__DU__LA1_A-201(A)

> <OMEGA_C>
3G9CwgFj4cFt6LRA/aBHwldN5cE6ObBAzks+wi2e5cGAPpxAZSJYwuhh2sFNkRxB/olEwgit8cF8
bXRA9S9dwphTysGb5lRBEA5TwljQ6cFcdRNBuJ1Twt/P5MFIxDZByExdwt6rz8FwukFBvDtWwu5U
4cEq8wxBHK5Iwtdx7cHW4JJAwdFWwkwZ3MGK6DFB7Vg/wq7C7cEzzH1A+I9Xwqa438GOEOxAg3xR
wmDy9cGIgrZANmNTwngr6sGCwIZA455Oworq8cHuio1AeAdVwm7d68GnxLVApbFRwmi868G2CShB
l5lYwhrWzMESs19BftNVwsSk08HLuVNBTqZYwrpV1cFtw0FBjbdbwsuT28Hp4d9A6Y1TwnR548El
B9NAQTw6wqv58sFh9EBAk55BwvwL28EvwctAoNVKwqb34cF7jMNAA0U6wrZ94sG7OqBAF6RawuKh
08EEEBhB0mJFwuAF+MHJy0ZAXB9gwl7jxMEGZFtBq3NRwgyC78FnAwhBFXNSwgaV5sFQIEdBwChg
wjjkz8GDwTRBKaNTwj+T/cGa+bJAOedOwuyR9sGVA9NA6T9SwtDc4cG5IX5AzFlWwlHI7MGrzV1A
ho1OwiZN+MGteWlAlFNZwva77cGtaLlA

> <OMEGA_E>
XD6zwA==

> <OMEGA_NBR>
     41854

$$$$
CACHE3HI_1695_54
  -OEChem-03092622513D

 38 40  0     1  0  0  0  0  0999 V2000
  -46.8782  -29.0808    5.6077 C   0  0  0  0  0  0  0  0  0  0  0  0
  -48.1932  -29.0928    6.0957 C   0  0  0  0  0  0  0  0  0  0  0  0
  -53.4491  -27.1251    9.7806 C   0  0  0  0  0  0  0  0  0  0  0  0
  -52.2489  -28.4298   11.4471 C   0  0  0  0  0  0  0  0  0  0  0  0
  -46.6612  -29.0916    4.2139 C   0  0  0  0  0  0  0  0  0  0  0  0
  -48.9669  -29.1280    3.7891 C   0  0  0  0  0  0  0  0  0  0  0  0
  -49.2545  -29.1282    5.1681 C   0  0  0  0  0  0  0  0  0  0  0  0
  -52.5140  -28.1364   10.0996 C   0  0  0  0  0  0  0  0  0  0  0  0
  -54.1583  -26.4657   10.7957 C   0  0  0  0  0  0  0  0  0  0  0  0
  -52.9472  -27.7715   12.4708 C   0  0  0  0  0  0  0  0  0  0  0  0
  -53.9211  -26.7913   12.1567 C   0  0  0  0  0  0  0  0  0  0  0  0
  -52.0799  -29.0088    7.7939 C   0  0  0  0  0  0  0  0  0  0  0  0
  -51.4568  -30.4530    5.6666 C   0  0  0  0  0  0  0  0  0  0  0  0
  -50.6912  -29.1266    5.6132 C   0  0  1  0  0  0  0  0  0  0  0  0
  -51.0434  -29.7442    6.9662 C   0  0  1  0  0  0  0  0  0  0  0  0
  -55.9109  -27.2781   14.2394 C   0  0  0  0  0  0  0  0  0  0  0  0
  -47.6929  -29.1127    3.3348 N   0  0  0  0  0  0  0  0  0  0  0  0
  -51.7933  -28.8520    9.1444 N   0  0  0  0  0  0  0  0  0  0  0  0
  -53.0971  -28.5773    7.2608 O   0  0  0  0  0  0  0  0  0  0  0  0
  -53.8802  -25.6131   14.5536 O   0  0  0  0  0  0  0  0  0  0  0  0
  -55.7534  -24.9749   12.9635 O   0  0  0  0  0  0  0  0  0  0  0  0
  -55.0629  -25.5300   10.4285 F   0  0  0  0  0  0  0  0  0  0  0  0
  -52.6903  -28.1150   13.7544 F   0  0  0  0  0  0  0  0  0  0  0  0
  -54.8543  -25.9941   13.5216 S   0  0  0  0  0  0  0  0  0  0  0  0
  -46.0418  -29.0635    6.2908 H   0  0  0  0  0  0  0  0  0  0  0  0
  -48.3883  -29.0752    7.1578 H   0  0  0  0  0  0  0  0  0  0  0  0
  -53.6187  -26.8582    8.7479 H   0  0  0  0  0  0  0  0  0  0  0  0
  -51.5016  -29.1682   11.6976 H   0  0  0  0  0  0  0  0  0  0  0  0
  -45.6488  -29.0828    3.8381 H   0  0  0  0  0  0  0  0  0  0  0  0
  -49.7809  -29.1403    3.0795 H   0  0  0  0  0  0  0  0  0  0  0  0
  -52.5161  -30.4898    5.3723 H   0  0  0  0  0  0  0  0  0  0  0  0
  -50.9604  -31.3879    5.3673 H   0  0  0  0  0  0  0  0  0  0  0  0
  -51.2856  -28.2477    5.3229 H   0  0  0  0  0  0  0  0  0  0  0  0
  -50.2112  -30.2022    7.5209 H   0  0  0  0  0  0  0  0  0  0  0  0
  -56.4960  -26.8516   15.0675 H   0  0  0  0  0  0  0  0  0  0  0  0
  -56.5940  -27.6639   13.4685 H   0  0  0  0  0  0  0  0  0  0  0  0
  -55.2842  -28.0990   14.6182 H   0  0  0  0  0  0  0  0  0  0  0  0
  -50.9667  -29.3096    9.4722 H   0  0  0  0  0  0  0  0  0  0  0  0
  1  2  2  0  0  0  0
  1  5  1  0  0  0  0
  2  7  1  0  0  0  0
  3  8  1  0  0  0  0
  3  9  2  0  0  0  0
  4  8  2  0  0  0  0
  4 10  1  0  0  0  0
  5 17  2  0  0  0  0
  6  7  2  0  0  0  0
  6 17  1  0  0  0  0
  7 14  1  0  0  0  0
  8 18  1  0  0  0  0
  9 11  1  0  0  0  0
  9 22  1  0  0  0  0
 10 11  2  0  0  0  0
 10 23  1  0  0  0  0
 11 24  1  0  0  0  0
 12 15  1  0  0  0  0
 12 18  1  0  0  0  0
 12 19  2  0  0  0  0
 13 14  1  0  0  0  0
 13 15  1  0  0  0  0
 14 15  1  0  0  0  0
 16 24  1  0  0  0  0
 20 24  2  0  0  0  0
 21 24  2  0  0  0  0
  1 25  1  0  0  0  0
  2 26  1  0  0  0  0
  3 27  1  0  0  0  0
  4 28  1  0  0  0  0
  5 29  1  0  0  0  0
  6 30  1  0  0  0  0
 13 31  1  0  0  0  0
 13 32  1  0  0  0  0
 14 33  1  0  0  0  0
 15 34  1  0  0  0  0
 16 35  1  0  0  0  0
 16 36  1  0  0  0  0
 16 37  1  0  0  0  0
 18 38  1  0  0  0  0
M  END
> <POSIT::Probability>
0.99

> <POSIT::Method>
SHAPEFIT

> <ReceptorTitle>
UCSF-P4432-REFINED_LIGAND-BOUND-STATE_A__DU__LA1_A-201(A)

> <OMEGA_C>
PIM7wmal6MEJcrNAy8VAwvW96MH9D8NA5ctVwigA2cFOfRxB5P5QwlBw48F9JzdBG6U6woq76MF8
2IZAHd5DwiAG6cFUgXJAnwRFwpAG6cEoYaVAVA5SwmEX4cEcmCFBIaJYwqu508FAuyxB4slTwg4s
3sF9iEdBO69XwqlU1sHwgUJB0lFQwg0S6MGqZ/lAxtNNws+f88ELVbVAzMNKwksD6cHznrNAaSxM
whb07cEp695At6RfwoA52sGp1GNBgMU+wtjm6MHdbVVATixPwvHQ5sFYTxJBa2NUwlme5MHRWOhA
TIVXwrbnzMGR22hBcQNfwrLMx8Grak9BYkBcwl09zMEr2yZB2MJSworr4MECElxB1Wpbwurzz8Fk
WFhB2Co4wveB6MFBTslAlI1BwhKa6MGaDOVAjHlWwqnd1sFv9wtBnAFOwnhY6cEtKTtBVpg2wo6p
6MHPo3VArx9Hwk0f6cF5FkVAdBBSwhnr88EC6qtAeddLwm4a+8HEwKtAeSRNwlz74cECVapAOthI
wgme8cEoq/BA7PthwgLQ1sFfFHFBTGBiwsRP3cHdfldBCiNdwrbK4MH642lB8d1Lwhd66sEVjhdB

> <OMEGA_E>
AAAAAA==

> <OMEGA_NBR>
     43127

$$$$
CACHE3HI_1695_61
  -OEChem-03092622513D

 29 31  0     1  0  0  0  0  0999 V2000
  -49.6642  -29.3827    3.5188 C   0  0  0  0  0  0  0  0  0  0  0  0
  -50.4481  -29.5785    4.6559 C   0  0  0  0  0  0  0  0  0  0  0  0
  -48.2998  -29.1239    3.6491 C   0  0  0  0  0  0  0  0  0  0  0  0
  -48.5034  -29.2570    6.0532 C   0  0  0  0  0  0  0  0  0  0  0  0
  -53.2571  -28.1299   12.5722 C   0  0  0  0  0  0  0  0  0  0  0  0
  -49.8678  -29.5158    5.9229 C   0  0  0  0  0  0  0  0  0  0  0  0
  -47.7195  -29.0613    4.9161 C   0  0  0  0  0  0  0  0  0  0  0  0
  -52.4656  -28.9689   10.8325 C   0  0  0  0  0  0  0  0  0  0  0  0
  -52.7081  -28.6695    8.3482 C   0  0  0  0  0  0  0  0  0  0  0  0
  -51.8354  -30.7211    7.0847 C   0  0  0  0  0  0  0  0  0  0  0  0
  -50.7063  -29.7263    7.1366 C   0  0  2  0  0  0  0  0  0  0  0  0
  -52.1434  -29.2528    7.1254 C   0  0  2  0  0  0  0  0  0  0  0  0
  -53.3183  -28.0453   11.2105 N   0  0  0  0  0  0  0  0  0  0  0  0
  -51.9266  -29.5698   11.9268 N   0  0  0  0  0  0  0  0  0  0  0  0
  -52.4200  -29.0477   13.0599 N   0  0  0  0  0  0  0  0  0  0  0  0
  -52.1730  -29.2685    9.4812 N   0  0  0  0  0  0  0  0  0  0  0  0
  -53.5364  -27.7663    8.2888 O   0  0  0  0  0  0  0  0  0  0  0  0
  -45.8700  -28.7134    5.0912 Br  0  0  0  0  0  0  0  0  0  0  0  0
  -50.1152  -29.4317    2.5320 H   0  0  0  0  0  0  0  0  0  0  0  0
  -51.5101  -29.7802    4.5445 H   0  0  0  0  0  0  0  0  0  0  0  0
  -47.7030  -28.9738    2.7528 H   0  0  0  0  0  0  0  0  0  0  0  0
  -48.0568  -29.2091    7.0439 H   0  0  0  0  0  0  0  0  0  0  0  0
  -53.8489  -27.4926   13.2159 H   0  0  0  0  0  0  0  0  0  0  0  0
  -52.0310  -31.2488    6.1580 H   0  0  0  0  0  0  0  0  0  0  0  0
  -52.0186  -31.3140    7.9735 H   0  0  0  0  0  0  0  0  0  0  0  0
  -50.1730  -29.6599    8.0780 H   0  0  0  0  0  0  0  0  0  0  0  0
  -52.5239  -28.8152    6.2077 H   0  0  0  0  0  0  0  0  0  0  0  0
  -52.1415  -29.3655   13.9841 H   0  0  0  0  0  0  0  0  0  0  0  0
  -51.4905  -30.0096    9.3373 H   0  0  0  0  0  0  0  0  0  0  0  0
  1  2  1  0  0  0  0
  1  3  2  0  0  0  0
  2  6  2  0  0  0  0
  3  7  1  0  0  0  0
  4  6  1  0  0  0  0
  4  7  2  0  0  0  0
  5 13  2  0  0  0  0
  5 15  1  0  0  0  0
  6 11  1  0  0  0  0
  7 18  1  0  0  0  0
  8 13  1  0  0  0  0
  8 14  2  0  0  0  0
  8 16  1  0  0  0  0
  9 12  1  0  0  0  0
  9 16  1  0  0  0  0
  9 17  2  0  0  0  0
 10 11  1  0  0  0  0
 10 12  1  0  0  0  0
 11 12  1  0  0  0  0
 14 15  1  0  0  0  0
  1 19  1  0  0  0  0
  2 20  1  0  0  0  0
  3 21  1  0  0  0  0
  4 22  1  0  0  0  0
  5 23  1  0  0  0  0
 10 24  1  0  0  0  0
 10 25  1  0  0  0  0
 11 26  1  0  0  0  0
 12 27  1  0  0  0  0
 15 28  1  0  0  0  0
 16 29  1  0  0  0  0
M  END
> <POSIT::Probability>
0.18

> <POSIT::Method>
HYBRID

> <ReceptorTitle>
UCSF-P4432-REFINED_LIGAND-BOUND-STATE_A__DU__LA1_A-201(A)

> <OMEGA_C>
J6hGwtQP68FRNGFA1cpJwtSg7MH8/JRACjNBwtL96MEci2lAcQNCwmwO6sGSs8FAOgdVwvAJ4cHg
J0lBm3hHwnUg7MFYiL1Az+A+wnJ96MHpUJ1AwtxRwkTA58HeUS1BFtVSwi5b5cFBkgVBaFdPwr7E
9cGAteJAQtNKwm7P7cFpX+RA4ZJQwsoF6sF7A+RA+UVVwsJc4MEdXjNBzLRPwuSO7MFU1D5BG65R
wsZh6MFI9VBBI7FQwt0l6sEqsxdBTiVWwnIh3sHdngRB1Xo3whO15cF/66JA+HVIwix068H1DCJA
XApOwto97sGRbJFA5s8+wmrK58EpLjBAMDpAwiys6cFYZ+FAR2VXwubw28GAdFNBuB9Qwoj9+cEY
DsVAFRNQwg+D+sGCJv9AM7FIwnxH7cGxPwFBcBhSwoSF5sFfpcZA8JBQwqTs6sHnvl9BPPZNwrwT
8MFyZRVB

> <OMEGA_E>
imDVwA==

> <OMEGA_NBR>
     44208

$$$$
CACHE3HI_1695_71
  -OEChem-03092622513D

 37 39  0     0  0  0  0  0  0999 V2000
  -52.8050  -27.6118   12.9576 C   0  0  0  0  0  0  0  0  0  0  0  0
  -52.4523  -29.1684    6.3869 C   0  0  0  0  0  0  0  0  0  0  0  0
  -52.3142  -27.6799   11.6537 C   0  0  0  0  0  0  0  0  0  0  0  0
  -51.5210  -29.5963    5.4395 C   0  0  0  0  0  0  0  0  0  0  0  0
  -53.9652  -26.8865   13.2285 C   0  0  0  0  0  0  0  0  0  0  0  0
  -50.6537  -28.4691    7.8360 C   0  0  0  0  0  0  0  0  0  0  0  0
  -54.1438  -26.2979   10.8918 C   0  0  0  0  0  0  0  0  0  0  0  0
  -52.0179  -28.6073    7.5851 C   0  0  0  0  0  0  0  0  0  0  0  0
  -49.7155  -28.8765    6.8793 C   0  0  0  0  0  0  0  0  0  0  0  0
  -52.9835  -27.0232   10.6209 C   0  0  0  0  0  0  0  0  0  0  0  0
  -50.1491  -29.4510    5.6786 C   0  0  0  0  0  0  0  0  0  0  0  0
  -54.6345  -26.2298   12.1957 C   0  0  0  0  0  0  0  0  0  0  0  0
  -47.2979  -28.9175    6.3202 C   0  0  0  0  0  0  0  0  0  0  0  0
  -52.9882  -28.1600    8.5730 C   0  0  0  0  0  0  0  0  0  0  0  0
  -47.6191  -28.9854    4.8496 C   0  0  0  0  0  0  0  0  0  0  0  0
  -57.4018  -26.5044   12.3384 C   0  0  0  0  0  0  0  0  0  0  0  0
  -48.3498  -28.7387    7.1921 N   0  0  0  0  0  0  0  0  0  0  0  0
  -46.1246  -28.9065    6.7024 O   0  0  0  0  0  0  0  0  0  0  0  0
  -54.1095  -28.6636    8.7304 O   0  0  0  0  0  0  0  0  0  0  0  0
  -56.0790  -24.9274   13.9381 O   0  0  0  0  0  0  0  0  0  0  0  0
  -56.2363  -24.3100   11.5003 O   0  0  0  0  0  0  0  0  0  0  0  0
  -52.4907  -27.0909    9.3152 O   0  0  0  0  0  0  0  0  0  0  0  0
  -48.9886  -30.0933    4.4929 S   0  0  0  0  0  0  0  0  0  0  0  0
  -56.0875  -25.3229   12.5358 S   0  0  0  0  0  0  0  0  0  0  0  0
  -52.2843  -28.1235   13.7618 H   0  0  0  0  0  0  0  0  0  0  0  0
  -53.5128  -29.2678    6.1737 H   0  0  0  0  0  0  0  0  0  0  0  0
  -51.4098  -28.2464   11.4489 H   0  0  0  0  0  0  0  0  0  0  0  0
  -51.8821  -30.0360    4.5124 H   0  0  0  0  0  0  0  0  0  0  0  0
  -54.3393  -26.8398   14.2475 H   0  0  0  0  0  0  0  0  0  0  0  0
  -50.3195  -28.0483    8.7826 H   0  0  0  0  0  0  0  0  0  0  0  0
  -54.6621  -25.7879   10.0835 H   0  0  0  0  0  0  0  0  0  0  0  0
  -47.8838  -27.9835    4.4971 H   0  0  0  0  0  0  0  0  0  0  0  0
  -46.7232  -29.3108    4.3097 H   0  0  0  0  0  0  0  0  0  0  0  0
  -58.3495  -26.0020   12.5378 H   0  0  0  0  0  0  0  0  0  0  0  0
  -57.2433  -27.3172   13.0482 H   0  0  0  0  0  0  0  0  0  0  0  0
  -57.3761  -26.8804   11.3147 H   0  0  0  0  0  0  0  0  0  0  0  0
  -48.1221  -28.4607    8.1437 H   0  0  0  0  0  0  0  0  0  0  0  0
  1  3  1  0  0  0  0
  1  5  2  0  0  0  0
  2  4  2  0  0  0  0
  2  8  1  0  0  0  0
  3 10  2  0  0  0  0
  4 11  1  0  0  0  0
  5 12  1  0  0  0  0
  6  8  2  0  0  0  0
  6  9  1  0  0  0  0
  7 10  1  0  0  0  0
  7 12  2  0  0  0  0
  8 14  1  0  0  0  0
  9 11  2  0  0  0  0
  9 17  1  0  0  0  0
 10 22  1  0  0  0  0
 11 23  1  0  0  0  0
 12 24  1  0  0  0  0
 13 15  1  0  0  0  0
 13 17  1  0  0  0  0
 13 18  2  0  0  0  0
 14 19  2  0  0  0  0
 14 22  1  0  0  0  0
 15 23  1  0  0  0  0
 16 24  1  0  0  0  0
 20 24  2  0  0  0  0
 21 24  2  0  0  0  0
  1 25  1  0  0  0  0
  2 26  1  0  0  0  0
  3 27  1  0  0  0  0
  4 28  1  0  0  0  0
  5 29  1  0  0  0  0
  6 30  1  0  0  0  0
  7 31  1  0  0  0  0
 15 32  1  0  0  0  0
 15 33  1  0  0  0  0
 16 34  1  0  0  0  0
 16 35  1  0  0  0  0
 16 36  1  0  0  0  0
 17 37  1  0  0  0  0
M  END
> <POSIT::Probability>
0.23

> <POSIT::Method>
HYBRID

> <ReceptorTitle>
UCSF-P4432-REFINED_LIGAND-BOUND-STATE_A__DU__LA1_A-201(A)

> <OMEGA_C>
XDhTwgnl3MF5Uk9BHM9RwthY6cHQYcxAykFRwoRw3cGidTpBfxVOwj7F7MFoEK5AZdxXwqcX18H5
p1NBYJ1KwsHA48G8wPpAOZNYwhti0sHKRC5BWRJQwtbb5MEQufJAptxGwgoD58FoI9xAJ+9Twokv
2MEk7ylBpphIwrCb68HMtrVAwYlawqzW0cF4IUNBAzE9whZX58E4P8pA4vNTwqRH4cH5KglB/Xk+
wgbi58HML5tAdZtlwgAJ1MEjakVBMWZBwuLo5cFcJeZAn384woVA58HUedZAJHBYwiRP5cHCrwtB
5VBgwlhrx8FyAl9B+vFgwuN6wsFnAThBhvZRwiq62MEgCxVBXPRDwii/8MEUxo9AollgwjaVysHF
kkhBKiNRwtr84MFCMFxBHA1Wwl4k6sEej8VAqaNNwp744cHILjdBRodPwsxJ8MGEZZBAZltZwuq3
1sHA9WNBMUdJwv5i4MFyhQxBBqZawqRNzsEoViFBA4k/wh/e38EQ6I9Ah+Q6wnh86sE46YlA4mVp
wg4E0MHEmkhBJflkwrKJ2sFXxVBBH4FlwvUK18HQCDVBE31AwnSv48GQTAJB

> <OMEGA_E>
fKS0wA==

> <OMEGA_NBR>
     45441

$$$$
CACHE3HI_1695_85
  -OEChem-03092622513D

 42 45  0     1  0  0  0  0  0999 V2000
  -54.0487  -26.0786    9.2259 C   0  0  0  0  0  0  0  0  0  0  0  0
  -47.3421  -29.0991    0.0861 C   0  0  0  0  0  0  0  0  0  0  0  0
  -48.5223  -29.8134   -0.0984 C   0  0  0  0  0  0  0  0  0  0  0  0
  -46.9208  -28.7659    1.3743 C   0  0  0  0  0  0  0  0  0  0  0  0
  -49.2859  -30.1971    1.0043 C   0  0  0  0  0  0  0  0  0  0  0  0
  -47.2693  -28.8169    3.7989 C   0  0  0  0  0  0  0  0  0  0  0  0
  -48.0330  -29.2006    4.9016 C   0  0  0  0  0  0  0  0  0  0  0  0
  -49.6345  -30.2481    3.4289 C   0  0  0  0  0  0  0  0  0  0  0  0
  -54.1251  -26.1559   11.7123 C   0  0  0  0  0  0  0  0  0  0  0  0
  -53.6703  -26.5983   10.4939 C   0  0  0  0  0  0  0  0  0  0  0  0
  -47.6774  -29.1439    2.4954 C   0  0  0  0  0  0  0  0  0  0  0  0
  -48.8776  -29.8702    2.3078 C   0  0  0  0  0  0  0  0  0  0  0  0
  -49.2134  -29.9146    4.7163 C   0  0  0  0  0  0  0  0  0  0  0  0
  -52.7806  -27.6426   10.8093 C   0  0  0  0  0  0  0  0  0  0  0  0
  -52.0864  -28.2867    8.4674 C   0  0  0  0  0  0  0  0  0  0  0  0
  -51.5021  -30.5746    5.7163 C   0  0  0  0  0  0  0  0  0  0  0  0
  -50.0281  -30.3242    5.8952 C   0  0  2  0  0  0  0  0  0  0  0  0
  -51.0423  -29.3546    6.4581 C   0  0  2  0  0  0  0  0  0  0  0  0
  -53.6645  -26.8429   14.0783 C   0  0  0  0  0  0  0  0  0  0  0  0
  -54.3574  -25.6544    8.1907 N   0  0  0  0  0  0  0  0  0  0  0  0
  -52.6749  -27.8509   12.1243 N   0  0  0  0  0  0  0  0  0  0  0  0
  -53.5043  -26.9316   12.6467 N   0  0  0  0  0  0  0  0  0  0  0  0
  -52.0619  -28.4067    9.8598 N   0  0  0  0  0  0  0  0  0  0  0  0
  -51.2294  -29.2319    7.8603 N   0  0  0  0  0  0  0  0  0  0  0  0
  -52.7471  -27.4836    7.8133 O   0  0  0  0  0  0  0  0  0  0  0  0
  -46.7487  -28.8011   -0.7734 H   0  0  0  0  0  0  0  0  0  0  0  0
  -48.8489  -30.0725   -1.1013 H   0  0  0  0  0  0  0  0  0  0  0  0
  -45.9953  -28.2065    1.4944 H   0  0  0  0  0  0  0  0  0  0  0  0
  -50.2049  -30.7548    0.8362 H   0  0  0  0  0  0  0  0  0  0  0  0
  -46.3502  -28.2592    3.9667 H   0  0  0  0  0  0  0  0  0  0  0  0
  -47.6974  -28.9366    5.9011 H   0  0  0  0  0  0  0  0  0  0  0  0
  -50.5600  -30.8064    3.2974 H   0  0  0  0  0  0  0  0  0  0  0  0
  -54.8202  -25.3747   11.9901 H   0  0  0  0  0  0  0  0  0  0  0  0
  -51.9467  -30.4300    4.7385 H   0  0  0  0  0  0  0  0  0  0  0  0
  -51.9404  -31.3885    6.2825 H   0  0  0  0  0  0  0  0  0  0  0  0
  -49.5180  -30.9670    6.6028 H   0  0  0  0  0  0  0  0  0  0  0  0
  -51.1713  -28.4041    5.9504 H   0  0  0  0  0  0  0  0  0  0  0  0
  -54.4788  -27.4898   14.4216 H   0  0  0  0  0  0  0  0  0  0  0  0
  -53.8871  -25.8109   14.3668 H   0  0  0  0  0  0  0  0  0  0  0  0
  -52.7545  -27.1666   14.5941 H   0  0  0  0  0  0  0  0  0  0  0  0
  -51.4541  -29.1306   10.2358 H   0  0  0  0  0  0  0  0  0  0  0  0
  -50.6925  -29.8385    8.4924 H   0  0  0  0  0  0  0  0  0  0  0  0
  1 10  1  0  0  0  0
  1 20  3  0  0  0  0
  2  3  1  0  0  0  0
  2  4  2  0  0  0  0
  3  5  2  0  0  0  0
  4 11  1  0  0  0  0
  5 12  1  0  0  0  0
  6  7  2  0  0  0  0
  6 11  1  0  0  0  0
  7 13  1  0  0  0  0
  8 12  1  0  0  0  0
  8 13  2  0  0  0  0
  9 10  2  0  0  0  0
  9 22  1  0  0  0  0
 10 14  1  0  0  0  0
 11 12  2  0  0  0  0
 13 17  1  0  0  0  0
 14 21  2  0  0  0  0
 14 23  1  0  0  0  0
 15 23  1  0  0  0  0
 15 24  1  0  0  0  0
 15 25  2  0  0  0  0
 16 17  1  0  0  0  0
 16 18  1  0  0  0  0
 17 18  1  0  0  0  0
 18 24  1  0  0  0  0
 19 22  1  0  0  0  0
 21 22  1  0  0  0  0
  2 26  1  0  0  0  0
  3 27  1  0  0  0  0
  4 28  1  0  0  0  0
  5 29  1  0  0  0  0
  6 30  1  0  0  0  0
  7 31  1  0  0  0  0
  8 32  1  0  0  0  0
  9 33  1  0  0  0  0
 16 34  1  0  0  0  0
 16 35  1  0  0  0  0
 17 36  1  0  0  0  0
 18 37  1  0  0  0  0
 19 38  1  0  0  0  0
 19 39  1  0  0  0  0
 19 40  1  0  0  0  0
 23 41  1  0  0  0  0
 24 42  1  0  0  0  0
M  END
> <POSIT::Probability>
0.18

> <POSIT::Method>
HYBRID

> <ReceptorTitle>
UCSF-P4432-REFINED_LIGAND-BOUND-STATE_A__DU__LA1_A-201(A)

> <OMEGA_C>
1DFYwuGg0ME+nRNBXF49wuzK6MHATLA9yhZCwtiB7sFgfsm93K47wpIg5sGa6a8/zSRFwo+T8cFW
joA/vhM9whOJ5sFcIXNAwCFAwsqa6cE32pxArolGwhD88cGsc1tAIYBYwlk/0cGvZTtBcK5WwkHJ
1MH85idBo7U+wrUm6cFctR9ApoJDwib27sELsxNAjdpEwhdR78EI7JZASh9TwhQk3cHu8ixBelhQ
wjZL4sGkegdBHQJOwuCY9MHt67ZAvxxIwg2Y8sGhpbxATCtMwibW6sHkqM5AaqhWwlG+1sGdQGFB
8G1ZwiA8zcEWDQNBF7NSwqPO3sFE/UFBYgRWwuZz18HvWEpBbT9QwtdA48G1wR1B8OpMwuHa6cFs
h/tADf1Swlbe28HkBvpApv46wqRo5sGA+kW/RmVDwniU8MGm94y/M/s3wuam4cHuSb8/19FIwtQJ
9sG8EVY/oGY5wtoS4sGm3n1ALso+whZ+58He1bxAdT1KwoRz9sHLCFNA70dbwnj/ysGe1z9BdslP
wq1w88GUoZdABcNPwo4b+8HhCclAdBJGwmS898GFStNAb69MwqI748Hoab5ASepZwhbr28HsvmZB
YIxXws18zsGc3mVBnQRTwkBV2cFygWlBDNFNwnoL6cHOxSNBGMVKwla17sHf4AdB

> <OMEGA_E>
0afvwA==

> <OMEGA_NBR>
     46783

$$$$
CACHE3HI_1695_87
  -OEChem-03092622513D

 43 45  0     0  0  0  0  0  0999 V2000
  -56.4628  -27.7459   13.5369 C   0  0  0  0  0  0  0  0  0  0  0  0
  -55.7120  -27.7963   12.3678 C   0  0  0  0  0  0  0  0  0  0  0  0
  -55.9524  -27.0244   14.6047 C   0  0  0  0  0  0  0  0  0  0  0  0
  -54.0691  -26.4397   13.4249 C   0  0  0  0  0  0  0  0  0  0  0  0
  -51.5913  -29.7039    3.7189 C   0  0  0  0  0  0  0  0  0  0  0  0
  -54.4914  -27.1337   12.3024 C   0  0  0  0  0  0  0  0  0  0  0  0
  -51.0461  -29.6537    4.9847 C   0  0  0  0  0  0  0  0  0  0  0  0
  -49.1907  -29.5400    3.8216 C   0  0  0  0  0  0  0  0  0  0  0  0
  -53.1828  -28.2817   10.5102 C   0  0  0  0  0  0  0  0  0  0  0  0
  -52.4005  -27.9250    9.2819 C   0  0  0  0  0  0  0  0  0  0  0  0
  -45.5078  -29.5860    3.7039 C   0  0  0  0  0  0  0  0  0  0  0  0
  -45.8588  -29.0363    2.3310 C   0  0  0  0  0  0  0  0  0  0  0  0
  -46.7855  -29.3697    4.5100 C   0  0  0  0  0  0  0  0  0  0  0  0
  -47.3218  -29.4325    2.1528 C   0  0  0  0  0  0  0  0  0  0  0  0
  -51.8026  -29.6977    6.2518 C   0  0  0  0  0  0  0  0  0  0  0  0
  -51.1309  -28.9411    7.4117 C   0  0  0  0  0  0  0  0  0  0  0  0
  -54.7708  -26.3680   14.5781 N   0  0  0  0  0  0  0  0  0  0  0  0
  -49.6695  -29.5597    5.0455 N   0  0  0  0  0  0  0  0  0  0  0  0
  -47.8498  -29.4523    3.5141 N   0  0  0  0  0  0  0  0  0  0  0  0
  -53.7054  -27.1656   11.1270 N   0  0  0  0  0  0  0  0  0  0  0  0
  -51.8970  -29.0290    8.6257 N   0  0  0  0  0  0  0  0  0  0  0  0
  -53.2647  -29.4675   10.7841 O   0  0  0  0  0  0  0  0  0  0  0  0
  -52.3046  -26.7441    8.9875 O   0  0  0  0  0  0  0  0  0  0  0  0
  -50.3389  -29.6296    2.5500 S   0  0  0  0  0  0  0  0  0  0  0  0
  -57.4166  -28.2556   13.6099 H   0  0  0  0  0  0  0  0  0  0  0  0
  -56.0870  -28.3543   11.5138 H   0  0  0  0  0  0  0  0  0  0  0  0
  -56.4989  -26.9547   15.5395 H   0  0  0  0  0  0  0  0  0  0  0  0
  -53.1253  -25.9030   13.4346 H   0  0  0  0  0  0  0  0  0  0  0  0
  -52.6307  -29.7766    3.4314 H   0  0  0  0  0  0  0  0  0  0  0  0
  -45.2836  -30.6571    3.6339 H   0  0  0  0  0  0  0  0  0  0  0  0
  -44.6448  -29.0807    4.1466 H   0  0  0  0  0  0  0  0  0  0  0  0
  -45.7617  -27.9441    2.3273 H   0  0  0  0  0  0  0  0  0  0  0  0
  -45.2177  -29.4424    1.5434 H   0  0  0  0  0  0  0  0  0  0  0  0
  -46.8872  -30.1260    5.2958 H   0  0  0  0  0  0  0  0  0  0  0  0
  -46.7904  -28.3758    4.9714 H   0  0  0  0  0  0  0  0  0  0  0  0
  -47.8543  -28.7186    1.5160 H   0  0  0  0  0  0  0  0  0  0  0  0
  -47.3960  -30.4317    1.7079 H   0  0  0  0  0  0  0  0  0  0  0  0
  -52.8311  -29.3038    6.1217 H   0  0  0  0  0  0  0  0  0  0  0  0
  -51.9472  -30.7487    6.5718 H   0  0  0  0  0  0  0  0  0  0  0  0
  -50.1419  -29.3570    7.6307 H   0  0  0  0  0  0  0  0  0  0  0  0
  -51.0080  -27.8796    7.1738 H   0  0  0  0  0  0  0  0  0  0  0  0
  -53.5043  -26.2691   10.6903 H   0  0  0  0  0  0  0  0  0  0  0  0
  -52.0709  -29.9532    9.0168 H   0  0  0  0  0  0  0  0  0  0  0  0
  1  2  1  0  0  0  0
  1  3  2  0  0  0  0
  2  6  2  0  0  0  0
  3 17  1  0  0  0  0
  4  6  1  0  0  0  0
  4 17  2  0  0  0  0
  5  7  2  0  0  0  0
  5 24  1  0  0  0  0
  6 20  1  0  0  0  0
  7 15  1  0  0  0  0
  7 18  1  0  0  0  0
  8 18  2  0  0  0  0
  8 19  1  0  0  0  0
  8 24  1  0  0  0  0
  9 10  1  0  0  0  0
  9 20  1  0  0  0  0
  9 22  2  0  0  0  0
 10 21  1  0  0  0  0
 10 23  2  0  0  0  0
 11 12  1  0  0  0  0
 11 13  1  0  0  0  0
 12 14  1  0  0  0  0
 13 19  1  0  0  0  0
 14 19  1  0  0  0  0
 15 16  1  0  0  0  0
 16 21  1  0  0  0  0
  1 25  1  0  0  0  0
  2 26  1  0  0  0  0
  3 27  1  0  0  0  0
  4 28  1  0  0  0  0
  5 29  1  0  0  0  0
 11 30  1  0  0  0  0
 11 31  1  0  0  0  0
 12 32  1  0  0  0  0
 12 33  1  0  0  0  0
 13 34  1  0  0  0  0
 13 35  1  0  0  0  0
 14 36  1  0  0  0  0
 14 37  1  0  0  0  0
 15 38  1  0  0  0  0
 15 39  1  0  0  0  0
 16 40  1  0  0  0  0
 16 41  1  0  0  0  0
 20 42  1  0  0  0  0
 21 43  1  0  0  0  0
M  END
> <POSIT::Probability>
0.18

> <POSIT::Method>
HYBRID

> <ReceptorTitle>
UCSF-P4432-REFINED_LIGAND-BOUND-STATE_A__DU__LA1_A-201(A)

> <OMEGA_C>
4NlhwoT33cFQl1hBDNlewuJe3sFe4kVBOs9fwhAy2MHLrGlBykZYwoqE08FVzFZBdV1Owpqh7cFy
Am5ANPdZwsER2cHU1kRBNC9Mwsc67cGLgp9AU8NEwvdR7MFGlXRAM7tUwuxA4sH0KShBEJpRwnNm
38HFghRB9gc2wjaw7MFoDG1Aa283wmxK6MFILxVAWCQ7wib16sEaUpBAk0k9wtN168HsxglA2zVP
wvyU7cHCDshAAIZMwnSH58H+LO1AQxVbwqDx0sELQGlBlK1Gwjp67MHGdKFAKWY/wlCe68F452BA
S9JWwjRT2cFWCDJBgJZPwm476MG4AgpBDA9VwmK968G+iyxB5DdRwtjz1cHRzA9BEltJwlQJ7cHW
MiNAkqplwmIL4sEowllBHFlgwqDV4sGlODhB0/5hwlCj18HdoXhBW4BUwlo5z8EE9FZB14VSwnQ2
7sFSnFtAcCI1wsxB9cEwkWhATZQywjil6MGQsIRAAQw3woiN38EK8hRA7t40whOK68FYj8U/eow7
wggC8cF1d6lAXSk7wqgB48GXFZ9A0Go/wrK/5cHYCsI/f5U9whh088Fkndo/BlNTwixu6sEl5cNA
68lPwlr99cH3S9JAUZFIwjjb6sETL/RAJwhMwn8J38EnkOVAZgRWwhUn0sGnCytBpUhQwjyg78H0
RBBB

> <OMEGA_E>
GHq6wA==

> <OMEGA_NBR>
     48136

$$$$
CACHE3HI_1695_94
  -OEChem-03092622513D

 38 40  0     0  0  0  0  0  0999 V2000
  -44.0407  -30.6713    3.2131 C   0  0  0  0  0  0  0  0  0  0  0  0
  -46.7885  -28.9681    1.3677 C   0  0  0  0  0  0  0  0  0  0  0  0
  -45.5944  -29.6384    1.6330 C   0  0  0  0  0  0  0  0  0  0  0  0
  -47.6536  -28.6453    2.4131 C   0  0  0  0  0  0  0  0  0  0  0  0
  -53.5558  -28.1808    7.6550 C   0  0  0  0  0  0  0  0  0  0  0  0
  -46.1304  -29.6629    3.9888 C   0  0  0  0  0  0  0  0  0  0  0  0
  -54.7931  -27.8033    8.1367 C   0  0  0  0  0  0  0  0  0  0  0  0
  -54.6487  -28.6905    5.6167 C   0  0  0  0  0  0  0  0  0  0  0  0
  -45.2652  -29.9857    2.9434 C   0  0  0  0  0  0  0  0  0  0  0  0
  -53.4814  -28.6399    6.3518 C   0  0  0  0  0  0  0  0  0  0  0  0
  -47.3244  -28.9926    3.7234 C   0  0  0  0  0  0  0  0  0  0  0  0
  -51.7852  -28.3205    4.6038 C   0  0  0  0  0  0  0  0  0  0  0  0
  -51.2300  -29.6248    6.6635 C   0  0  0  0  0  0  0  0  0  0  0  0
  -50.7887  -29.1709    3.8230 C   0  0  0  0  0  0  0  0  0  0  0  0
  -50.2425  -30.4520    5.8468 C   0  0  0  0  0  0  0  0  0  0  0  0
  -43.0463  -31.2282    3.4319 N   0  0  0  0  0  0  0  0  0  0  0  0
  -55.9194  -27.8636    7.3948 N   0  0  0  0  0  0  0  0  0  0  0  0
  -55.8462  -28.3144    6.1141 N   0  0  0  0  0  0  0  0  0  0  0  0
  -52.2594  -29.0394    5.7958 N   0  0  0  0  0  0  0  0  0  0  0  0
  -49.7037  -29.6586    4.7127 N   0  0  0  0  0  0  0  0  0  0  0  0
  -48.8764  -27.2265    4.8414 O   0  0  0  0  0  0  0  0  0  0  0  0
  -47.7860  -28.9792    6.2861 O   0  0  0  0  0  0  0  0  0  0  0  0
  -48.4197  -28.5842    5.0462 S   0  0  0  0  0  0  0  0  0  0  0  0
  -47.0448  -28.6973    0.3476 H   0  0  0  0  0  0  0  0  0  0  0  0
  -44.9300  -29.8827    0.8073 H   0  0  0  0  0  0  0  0  0  0  0  0
  -48.5814  -28.1233    2.1954 H   0  0  0  0  0  0  0  0  0  0  0  0
  -52.6756  -28.1160    8.2858 H   0  0  0  0  0  0  0  0  0  0  0  0
  -45.8773  -29.9318    5.0122 H   0  0  0  0  0  0  0  0  0  0  0  0
  -54.9182  -27.4359    9.1487 H   0  0  0  0  0  0  0  0  0  0  0  0
  -54.6663  -29.0397    4.5900 H   0  0  0  0  0  0  0  0  0  0  0  0
  -51.3092  -27.3806    4.9118 H   0  0  0  0  0  0  0  0  0  0  0  0
  -52.6291  -28.0694    3.9501 H   0  0  0  0  0  0  0  0  0  0  0  0
  -51.6913  -30.2694    7.4227 H   0  0  0  0  0  0  0  0  0  0  0  0
  -50.6952  -28.8217    7.1888 H   0  0  0  0  0  0  0  0  0  0  0  0
  -51.2970  -30.0262    3.3525 H   0  0  0  0  0  0  0  0  0  0  0  0
  -50.3549  -28.5584    3.0194 H   0  0  0  0  0  0  0  0  0  0  0  0
  -49.4149  -30.7627    6.5016 H   0  0  0  0  0  0  0  0  0  0  0  0
  -50.7265  -31.3653    5.4669 H   0  0  0  0  0  0  0  0  0  0  0  0
  1  9  1  0  0  0  0
  1 16  3  0  0  0  0
  2  3  1  0  0  0  0
  2  4  2  0  0  0  0
  3  9  2  0  0  0  0
  4 11  1  0  0  0  0
  5  7  2  0  0  0  0
  5 10  1  0  0  0  0
  6  9  1  0  0  0  0
  6 11  2  0  0  0  0
  7 17  1  0  0  0  0
  8 10  2  0  0  0  0
  8 18  1  0  0  0  0
 10 19  1  0  0  0  0
 11 23  1  0  0  0  0
 12 14  1  0  0  0  0
 12 19  1  0  0  0  0
 13 15  1  0  0  0  0
 13 19  1  0  0  0  0
 14 20  1  0  0  0  0
 15 20  1  0  0  0  0
 17 18  2  0  0  0  0
 20 23  1  0  0  0  0
 21 23  2  0  0  0  0
 22 23  2  0  0  0  0
  2 24  1  0  0  0  0
  3 25  1  0  0  0  0
  4 26  1  0  0  0  0
  5 27  1  0  0  0  0
  6 28  1  0  0  0  0
  7 29  1  0  0  0  0
  8 30  1  0  0  0  0
 12 31  1  0  0  0  0
 12 32  1  0  0  0  0
 13 33  1  0  0  0  0
 13 34  1  0  0  0  0
 14 35  1  0  0  0  0
 14 36  1  0  0  0  0
 15 37  1  0  0  0  0
 15 38  1  0  0  0  0
M  END
> <POSIT::Probability>
0.05

> <POSIT::Method>
FRED

> <ReceptorTitle>
UCSF-P4432-REFINED_LIGAND-BOUND-STATE_A__DU__LA1_A-201(A)

> <OMEGA_C>
sikwws1e9cHKok1AcCc7wpm+58F4D68/pWA2wnQb7cHmBdE/SZ0+wpEp5cHSbxpAHTlWwlFy4cGQ
9fRAfYU4wo5N7cGSSH9ALixbwjht3sHmLwJBOphawh+G5cH+u7NAmA81wqLi78ERYDxA+uxVwnQe
5cHKQctAOkw9wr/w58HxTG5AEyRPwliQ4sGIUpNAjutMwpv/7MEvO9VAmSdLwhFe6cHYrHRAWvhI
wp+d88G3GLtAby8swkzT+cH+pFtAeq1fwpfo3sHfoexAfmJfwtKD4sFTpsNAmglRwrRQ6MFbd7lA
mtBGwtVE7cGBzpZAaoFDwurP2cEc7ZpA3iQ/wnjV58HTJ8lAwq1Bwn+s5MGVeqFA6y08whOU5cEQ
+rE+U7gzwsQP78EMrE4/XVNCwo384MG7gQxA1bNSwobt4MG9kgRBXII3wlh078GJY6BAO6xbwqt8
28E7YRJBP6pawmdR6MEq4ZJAnzxNwnIL28FcLZ1AMYRSwhqO4MHhzXxA4MNOwtIn8sGRhu1A78dK
wsiS5sEOC+ZAGzBNwr818MEzj1ZAdmtJwpB35MGYPkFA0ahFwvQZ9sEDDdBA7+dKwhzs+sFA8a5A

> <OMEGA_E>
LP7vwA==

> <OMEGA_NBR>
     49385

$$$$
CACHE3HI_1702_39
  -OEChem-03092622513D

 35 37  0     0  0  0  0  0  0999 V2000
  -51.5498  -31.6420    4.3072 C   0  0  0  0  0  0  0  0  0  0  0  0
  -50.3140  -31.6267    3.6605 C   0  0  0  0  0  0  0  0  0  0  0  0
  -54.6136  -26.3237   10.1397 C   0  0  0  0  0  0  0  0  0  0  0  0
  -51.7125  -30.9645    5.5154 C   0  0  0  0  0  0  0  0  0  0  0  0
  -53.7074  -27.0140    9.3306 C   0  0  0  0  0  0  0  0  0  0  0  0
  -49.2412  -30.9338    4.2217 C   0  0  0  0  0  0  0  0  0  0  0  0
  -52.4517  -27.7756   11.2843 C   0  0  0  0  0  0  0  0  0  0  0  0
  -54.4009  -26.3863   11.4977 C   0  0  0  0  0  0  0  0  0  0  0  0
  -52.6356  -27.7342    9.8980 C   0  0  0  0  0  0  0  0  0  0  0  0
  -50.6397  -30.2715    6.0766 C   0  0  0  0  0  0  0  0  0  0  0  0
  -53.3567  -27.0868   12.0621 C   0  0  0  0  0  0  0  0  0  0  0  0
  -49.4039  -30.2562    5.4300 C   0  0  0  0  0  0  0  0  0  0  0  0
  -54.4677  -26.1956   13.7123 C   0  0  0  0  0  0  0  0  0  0  0  0
  -51.9964  -28.9997    7.7980 C   0  0  0  0  0  0  0  0  0  0  0  0
  -47.7602  -28.5374    5.1961 C   0  0  0  0  0  0  0  0  0  0  0  0
  -55.0983  -25.8270   12.5349 N   0  0  0  0  0  0  0  0  0  0  0  0
  -51.7478  -28.4155    9.0636 N   0  0  0  0  0  0  0  0  0  0  0  0
  -50.8214  -29.5871    7.3018 N   0  0  0  0  0  0  0  0  0  0  0  0
  -54.8068  -25.8820   14.8466 O   0  0  0  0  0  0  0  0  0  0  0  0
  -53.0812  -28.9900    7.2251 O   0  0  0  0  0  0  0  0  0  0  0  0
  -53.3473  -27.0038   13.4460 O   0  0  0  0  0  0  0  0  0  0  0  0
  -48.3430  -29.5852    5.9612 O   0  0  0  0  0  0  0  0  0  0  0  0
  -48.6782  -27.9445    4.4035 F   0  0  0  0  0  0  0  0  0  0  0  0
  -46.7335  -28.9946    4.4476 F   0  0  0  0  0  0  0  0  0  0  0  0
  -47.2742  -27.6012    6.0424 F   0  0  0  0  0  0  0  0  0  0  0  0
  -52.3847  -32.1813    3.8697 H   0  0  0  0  0  0  0  0  0  0  0  0
  -50.1876  -32.1540    2.7196 H   0  0  0  0  0  0  0  0  0  0  0  0
  -55.4394  -25.7689    9.7109 H   0  0  0  0  0  0  0  0  0  0  0  0
  -52.6798  -30.9842    6.0107 H   0  0  0  0  0  0  0  0  0  0  0  0
  -53.8381  -26.9907    8.2508 H   0  0  0  0  0  0  0  0  0  0  0  0
  -48.2817  -30.9248    3.7115 H   0  0  0  0  0  0  0  0  0  0  0  0
  -51.6324  -28.3264   11.7329 H   0  0  0  0  0  0  0  0  0  0  0  0
  -55.9250  -25.2496   12.4454 H   0  0  0  0  0  0  0  0  0  0  0  0
  -50.7845  -28.5114    9.4014 H   0  0  0  0  0  0  0  0  0  0  0  0
  -49.9960  -29.5153    7.8913 H   0  0  0  0  0  0  0  0  0  0  0  0
  1  2  1  0  0  0  0
  1  4  2  0  0  0  0
  2  6  2  0  0  0  0
  3  5  2  0  0  0  0
  3  8  1  0  0  0  0
  4 10  1  0  0  0  0
  5  9  1  0  0  0  0
  6 12  1  0  0  0  0
  7  9  2  0  0  0  0
  7 11  1  0  0  0  0
  8 11  2  0  0  0  0
  8 16  1  0  0  0  0
  9 17  1  0  0  0  0
 10 12  2  0  0  0  0
 10 18  1  0  0  0  0
 11 21  1  0  0  0  0
 12 22  1  0  0  0  0
 13 16  1  0  0  0  0
 13 19  2  0  0  0  0
 13 21  1  0  0  0  0
 14 17  1  0  0  0  0
 14 18  1  0  0  0  0
 14 20  2  0  0  0  0
 15 22  1  0  0  0  0
 15 23  1  0  0  0  0
 15 24  1  0  0  0  0
 15 25  1  0  0  0  0
  1 26  1  0  0  0  0
  2 27  1  0  0  0  0
  3 28  1  0  0  0  0
  4 29  1  0  0  0  0
  5 30  1  0  0  0  0
  6 31  1  0  0  0  0
  7 32  1  0  0  0  0
 16 33  1  0  0  0  0
 17 34  1  0  0  0  0
 18 35  1  0  0  0  0
M  END
> <POSIT::Probability>
0.42

> <POSIT::Method>
HYBRID

> <ReceptorTitle>
UCSF-P4432-REFINED_LIGAND-BOUND-STATE_A__DU__LA1_A-201(A)

> <OMEGA_C>
AjNOwuki/cGI1IlAhEFJwoMD/cEsRmpAWHRawuCW0sFBPCJBnNlOwjW398FyfrBAXdRWwsQc2MEt
ShVB9/ZEwmh498GEGIdAiM5RwnQ03sFejDRBjJpZwiAX08Fv9jdB1opSwpLf3cFGXh5BEY9Kwhgs
8sHhc8JARG1VwrKx2MEu/kBBmZ1FwqkM8sHRwq1A6N5Zwn2Q0cG3ZVtBR/xPwmv/58E+iflAcQo/
wpdM5MEjRqZAsWRcwrKdzsEij0hBuf1Owu1S48FjBBFBEUlLwkiy7MF/qOlAHzpbwlAOz8F/i21B
LFNUwoTr58HIM+dAl2NVwsIH2MGhIldBO19Bwmyu7MEcwr5AdLZCwlyO38GM6YxAJ+86wgb158Em
U45A0Rg9wjLP3MFpW8FA54lRwp65AMJoqHdAGMBIwqedAMKcDS5A68FdwrgmzsGvXxtBKbhSwrTf
98GcV8BAPVpXwvzs18F7AwRBaiBBwghm98FIiW1AkodOwoCc4sHWuTtBKbNfwhr/ycF6IEdBWCNL
wmUX5MENbBZB2/tHwm4f7MHghfxA

> <OMEGA_E>
HDoCwQ==

> <OMEGA_NBR>
     50584

$$$$
CACHE3HI_1702_4
  -OEChem-03092622513D

 37 39  0     0  0  0  0  0  0999 V2000
  -54.7997  -30.7148    4.1706 C   0  0  0  0  0  0  0  0  0  0  0  0
  -55.4284  -31.1935    5.3147 C   0  0  0  0  0  0  0  0  0  0  0  0
  -49.1035  -30.4309    4.9051 C   0  0  0  0  0  0  0  0  0  0  0  0
  -50.4448  -30.7752    4.7800 C   0  0  0  0  0  0  0  0  0  0  0  0
  -53.0426  -28.7825   10.6862 C   0  0  0  0  0  0  0  0  0  0  0  0
  -53.4583  -30.3526    4.2208 C   0  0  0  0  0  0  0  0  0  0  0  0
  -53.7649  -28.1957   11.7192 C   0  0  0  0  0  0  0  0  0  0  0  0
  -54.6769  -31.2903    6.4752 C   0  0  0  0  0  0  0  0  0  0  0  0
  -48.7703  -29.4413    5.8166 C   0  0  0  0  0  0  0  0  0  0  0  0
  -52.5527  -26.6059    9.8618 C   0  0  0  0  0  0  0  0  0  0  0  0
  -51.3984  -30.1293    5.5587 C   0  0  0  0  0  0  0  0  0  0  0  0
  -52.4218  -27.9799    9.7356 C   0  0  0  0  0  0  0  0  0  0  0  0
  -52.7949  -30.4869    5.4298 C   0  0  0  0  0  0  0  0  0  0  0  0
  -53.8358  -26.8124   11.7569 C   0  0  0  0  0  0  0  0  0  0  0  0
  -50.9630  -29.1535    6.4409 C   0  0  0  0  0  0  0  0  0  0  0  0
  -54.5782  -26.1458   12.8127 C   0  0  0  0  0  0  0  0  0  0  0  0
  -51.8905  -28.4229    7.2953 C   0  0  0  0  0  0  0  0  0  0  0  0
  -53.3719  -30.9480    6.5620 N   0  0  0  0  0  0  0  0  0  0  0  0
  -49.6691  -28.7919    6.5901 N   0  0  0  0  0  0  0  0  0  0  0  0
  -53.2462  -25.9999   10.8516 N   0  0  0  0  0  0  0  0  0  0  0  0
  -55.9270  -25.8811   12.5899 N   0  0  0  0  0  0  0  0  0  0  0  0
  -51.6760  -28.5482    8.6737 N   0  0  0  0  0  0  0  0  0  0  0  0
  -54.0386  -25.8341   13.8898 O   0  0  0  0  0  0  0  0  0  0  0  0
  -52.8035  -27.7684    6.7695 O   0  0  0  0  0  0  0  0  0  0  0  0
  -55.3539  -30.6244    3.2412 H   0  0  0  0  0  0  0  0  0  0  0  0
  -56.4726  -31.4834    5.2978 H   0  0  0  0  0  0  0  0  0  0  0  0
  -48.3429  -30.9227    4.3097 H   0  0  0  0  0  0  0  0  0  0  0  0
  -50.7304  -31.5495    4.0722 H   0  0  0  0  0  0  0  0  0  0  0  0
  -52.9690  -29.8656   10.6316 H   0  0  0  0  0  0  0  0  0  0  0  0
  -52.9598  -29.9786    3.3322 H   0  0  0  0  0  0  0  0  0  0  0  0
  -54.2535  -28.8115   12.4666 H   0  0  0  0  0  0  0  0  0  0  0  0
  -55.1198  -31.6589    7.3946 H   0  0  0  0  0  0  0  0  0  0  0  0
  -47.7379  -29.1370    5.9534 H   0  0  0  0  0  0  0  0  0  0  0  0
  -52.0898  -25.9273    9.1516 H   0  0  0  0  0  0  0  0  0  0  0  0
  -56.4027  -26.1502   11.7357 H   0  0  0  0  0  0  0  0  0  0  0  0
  -56.5030  -25.4333   13.2949 H   0  0  0  0  0  0  0  0  0  0  0  0
  -50.8817  -29.1218    8.9478 H   0  0  0  0  0  0  0  0  0  0  0  0
  1  2  1  0  0  0  0
  1  6  2  0  0  0  0
  2  8  2  0  0  0  0
  3  4  2  0  0  0  0
  3  9  1  0  0  0  0
  4 11  1  0  0  0  0
  5  7  2  0  0  0  0
  5 12  1  0  0  0  0
  6 13  1  0  0  0  0
  7 14  1  0  0  0  0
  8 18  1  0  0  0  0
  9 19  2  0  0  0  0
 10 12  2  0  0  0  0
 10 20  1  0  0  0  0
 11 13  1  0  0  0  0
 11 15  2  0  0  0  0
 12 22  1  0  0  0  0
 13 18  2  0  0  0  0
 14 16  1  0  0  0  0
 14 20  2  0  0  0  0
 15 17  1  0  0  0  0
 15 19  1  0  0  0  0
 16 21  1  0  0  0  0
 16 23  2  0  0  0  0
 17 22  1  0  0  0  0
 17 24  2  0  0  0  0
  1 25  1  0  0  0  0
  2 26  1  0  0  0  0
  3 27  1  0  0  0  0
  4 28  1  0  0  0  0
  5 29  1  0  0  0  0
  6 30  1  0  0  0  0
  7 31  1  0  0  0  0
  8 32  1  0  0  0  0
  9 33  1  0  0  0  0
 10 34  1  0  0  0  0
 21 35  1  0  0  0  0
 21 36  1  0  0  0  0
 22 37  1  0  0  0  0
M  END
> <POSIT::Probability>
0.18

> <POSIT::Method>
HYBRID

> <ReceptorTitle>
UCSF-P4432-REFINED_LIGAND-BOUND-STATE_A__DU__LA1_A-201(A)

> <OMEGA_C>
5TJbwta39cHkdYVAs7ZdwjyM+cG1EapA+mlEwnRy88GA9pxAccdJwq4z9sEi9phArCtUwp1C5sGi
+ipBQNVVwjTS8sEFEYdARg9XwrGQ4cGwgTtBKrVawpVS+sH3NM9A1BRDwuCH68GCIbpA9TVSwuDY
1MHiyR1BAJhNwr0I8cEz4bFA+a9RwubW38HjxBtB9S1TwiLl88Eawa1Az1dXwtl/1sFYHDxBI9pL
wnc66cGKG85AGFBawo0q0cG8AE1B4I9PwgJi48Ehc+lAy3xVwoqV98H9+9FAHq1Gws1V5sFe4tJA
D/xUws3/z8EtoC1BPbVfwoIMz8FccElBRLROwshi5MFlxwpBfSdYwkiszsGbPF5BwzZTwrsl3sFa
n9hAZmpdwt3+9MFjb09A++Nhwhfe+8Hyh6lAIl9Bwq5h98EU6YlA+etKwlJl/MEqT4JAQuBTwszs
7sHYGipB29ZTwiTU78F+Q1VAkgNZwvd95sEOd0dBonpcwnpF/cG9oOxAovM+woEY6cFCgr5A+FtQ
wgRrz8HZbBJBVpxhwqYz0cFJxTtBCgNiwmF3y8ESuFRB24ZLwmj56MFVKg9B

> <OMEGA_E>
krBIwA==

> <OMEGA_NBR>
     51816

$$$$
CACHE3HI_1702_47
  -OEChem-03092622513D

 48 50  0     1  0  0  0  0  0999 V2000
  -46.8570  -28.8217    4.9358 C   0  0  0  0  0  0  0  0  0  0  0  0
  -48.0680  -28.5938    4.2918 C   0  0  0  0  0  0  0  0  0  0  0  0
  -50.4410  -30.3253    6.3417 C   0  0  0  0  0  0  0  0  0  0  0  0
  -52.1954  -28.7431    5.8359 C   0  0  0  0  0  0  0  0  0  0  0  0
  -50.1137  -30.3944    4.9875 C   0  0  0  0  0  0  0  0  0  0  0  0
  -51.8682  -28.8121    4.4817 C   0  0  0  0  0  0  0  0  0  0  0  0
  -45.8565  -29.4669    4.2261 C   0  0  0  0  0  0  0  0  0  0  0  0
  -47.1777  -29.6483    2.3548 C   0  0  0  0  0  0  0  0  0  0  0  0
  -48.2396  -29.0119    2.9769 C   0  0  0  0  0  0  0  0  0  0  0  0
  -51.4819  -29.4995    6.7658 C   0  0  0  0  0  0  0  0  0  0  0  0
  -50.8272  -29.6380    4.0576 C   0  0  0  0  0  0  0  0  0  0  0  0
  -52.8167  -28.6626    8.7404 C   0  0  0  0  0  0  0  0  0  0  0  0
  -53.4977  -28.7026   12.4526 C   0  0  0  0  0  0  0  0  0  0  0  0
  -53.5930  -26.7004   10.9114 C   0  0  0  0  0  0  0  0  0  0  0  0
  -54.4020  -27.9775   13.4523 C   0  0  0  0  0  0  0  0  0  0  0  0
  -54.4966  -25.9731   11.9106 C   0  0  0  0  0  0  0  0  0  0  0  0
  -53.7497  -28.2180   11.0241 C   0  0  1  0  0  0  0  0  0  0  0  0
  -54.2777  -26.4567   13.3441 C   0  0  2  0  0  0  0  0  0  0  0  0
  -49.5341  -28.7806    2.2549 C   0  0  0  0  0  0  0  0  0  0  0  0
  -45.9867  -29.8873    2.9478 N   0  0  0  0  0  0  0  0  0  0  0  0
  -51.8138  -29.4284    8.1393 N   0  0  0  0  0  0  0  0  0  0  0  0
  -52.8233  -28.8718   10.1241 N   0  0  0  0  0  0  0  0  0  0  0  0
  -53.5989  -27.9046    8.1719 O   0  0  0  0  0  0  0  0  0  0  0  0
  -52.9802  -26.0463   13.7721 O   0  0  0  0  0  0  0  0  0  0  0  0
  -50.5078  -29.7061    2.7362 O   0  0  0  0  0  0  0  0  0  0  0  0
  -46.7010  -28.5032    5.9601 H   0  0  0  0  0  0  0  0  0  0  0  0
  -48.8715  -28.0894    4.8216 H   0  0  0  0  0  0  0  0  0  0  0  0
  -49.8777  -30.9184    7.0577 H   0  0  0  0  0  0  0  0  0  0  0  0
  -53.0091  -28.0970    6.1555 H   0  0  0  0  0  0  0  0  0  0  0  0
  -49.3013  -31.0392    4.6632 H   0  0  0  0  0  0  0  0  0  0  0  0
  -52.4281  -28.2207    3.7623 H   0  0  0  0  0  0  0  0  0  0  0  0
  -44.8928  -29.6675    4.6825 H   0  0  0  0  0  0  0  0  0  0  0  0
  -47.2530  -29.9972    1.3295 H   0  0  0  0  0  0  0  0  0  0  0  0
  -52.4475  -28.5391   12.7266 H   0  0  0  0  0  0  0  0  0  0  0  0
  -53.6816  -29.7816   12.5230 H   0  0  0  0  0  0  0  0  0  0  0  0
  -53.8446  -26.3692    9.8965 H   0  0  0  0  0  0  0  0  0  0  0  0
  -52.5487  -26.4149   11.0917 H   0  0  0  0  0  0  0  0  0  0  0  0
  -55.4437  -28.2714   13.2752 H   0  0  0  0  0  0  0  0  0  0  0  0
  -54.1350  -28.3022   14.4650 H   0  0  0  0  0  0  0  0  0  0  0  0
  -54.2981  -24.8971   11.8424 H   0  0  0  0  0  0  0  0  0  0  0  0
  -55.5447  -26.1320   11.6295 H   0  0  0  0  0  0  0  0  0  0  0  0
  -54.7432  -28.5114   10.7059 H   0  0  0  0  0  0  0  0  0  0  0  0
  -55.0063  -25.9783   14.0084 H   0  0  0  0  0  0  0  0  0  0  0  0
  -49.8963  -27.7606    2.4214 H   0  0  0  0  0  0  0  0  0  0  0  0
  -49.4087  -28.9211    1.1754 H   0  0  0  0  0  0  0  0  0  0  0  0
  -51.2551  -30.0042    8.7648 H   0  0  0  0  0  0  0  0  0  0  0  0
  -52.1674  -29.5403   10.5179 H   0  0  0  0  0  0  0  0  0  0  0  0
  -52.8907  -26.3343   14.6934 H   0  0  0  0  0  0  0  0  0  0  0  0
  1  2  2  0  0  0  0
  1  7  1  0  0  0  0
  2  9  1  0  0  0  0
  3  5  2  0  0  0  0
  3 10  1  0  0  0  0
  4  6  1  0  0  0  0
  4 10  2  0  0  0  0
  5 11  1  0  0  0  0
  6 11  2  0  0  0  0
  7 20  2  0  0  0  0
  8  9  2  0  0  0  0
  8 20  1  0  0  0  0
  9 19  1  0  0  0  0
 10 21  1  0  0  0  0
 11 25  1  0  0  0  0
 12 21  1  0  0  0  0
 12 22  1  0  0  0  0
 12 23  2  0  0  0  0
 13 15  1  0  0  0  0
 13 17  1  0  0  0  0
 14 16  1  0  0  0  0
 14 17  1  0  0  0  0
 15 18  1  0  0  0  0
 16 18  1  0  0  0  0
 17 22  1  0  0  0  0
 18 24  1  0  0  0  0
 19 25  1  0  0  0  0
  1 26  1  0  0  0  0
  2 27  1  0  0  0  0
  3 28  1  0  0  0  0
  4 29  1  0  0  0  0
  5 30  1  0  0  0  0
  6 31  1  0  0  0  0
  7 32  1  0  0  0  0
  8 33  1  0  0  0  0
 13 34  1  0  0  0  0
 13 35  1  0  0  0  0
 14 36  1  0  0  0  0
 14 37  1  0  0  0  0
 15 38  1  0  0  0  0
 15 39  1  0  0  0  0
 16 40  1  0  0  0  0
 16 41  1  0  0  0  0
 17 42  1  0  0  0  0
 18 43  1  0  0  0  0
 19 44  1  0  0  0  0
 19 45  1  0  0  0  0
 21 46  1  0  0  0  0
 22 47  1  0  0  0  0
 24 48  1  0  0  0  0
M  END
> <POSIT::Probability>
0.18

> <POSIT::Method>
HYBRID

> <ReceptorTitle>
UCSF-P4432-REFINED_LIGAND-BOUND-STATE_A__DU__LA1_A-201(A)

> <OMEGA_C>
j207wsKS5sEu8p1ApkVAwiDA5MGSVolAlMNJwk6a8sE878pAJMhQwtXx5cF0v7pAaXRIwqon88HG
mZ9ABHlPwiV/5sFWao9ADm03wja868EqPIdA/7U8wsov7cGYtBZAWfVAwkgY6MEEhj5AfO1Nwun+
68FSgdhAEk9LwpYa7cHk14FAUURTwgBN5cGa2AtBq/1VwuCe5cH6PUdBRF9Wwnqa1cHwlC5Bn5tZ
wgTS38HJPFdBfPxZwt3Iz8HCkT5Bqv9Wwmy+4cGgYjBBVxxZwmGn08GEgVVB5iJGwqM+5sE4UBBA
VvI3wkIZ78EEqDxAVkFPwmxt68GZOgJBFEtTwnb55sFN/CFBQGVWwqg838EfwAJBu+tTwupe0MGz
WlxB8AdKwiqm7cFcHi9A3s06wooG5MFNub5AYnxDwjC34MHuSppAxoJHwspY98GA2OFAUQlUwpbG
4MG1+cRAhzRFwjFQ+MHYOJVAY7ZRwvjD4cGAyXBAOpIzwghX7cHD1pVADgM9wjz678F4K6o/N8pR
wgxQ5MEaoEtB/LlWwr1A7sFnXkhB22BXwib00sHmVx5B6jFSwqZR08HMdzFBXcZdwtwr4sFAZ1RB
N4pYwv5q4sF0cGdBRDFZwjYtx8Frej1Bzy1ewmYO0cFnEjpBD/lawlMX5MFGSytBbwZcwqDTz8FU
ImBBzpVHwqQV3sGQ9xpAj6JFwmRe58G4cpY/QQVNwoQI8MHQPAxBbKtQwp1S7MGESShBEpBTwpys
0sEqGGtB

> <OMEGA_E>
4t7XwA==

> <OMEGA_NBR>
     53276

$$$$
CACHE3HI_1702_52
  -OEChem-03092622513D

 40 42  0     1  0  0  0  0  0999 V2000
  -45.0936  -28.1545    0.8974 C   0  0  0  0  0  0  0  0  0  0  0  0
  -51.5403  -28.4789    4.5636 C   0  0  0  0  0  0  0  0  0  0  0  0
  -52.8182  -28.4403    5.1214 C   0  0  0  0  0  0  0  0  0  0  0  0
  -46.4527  -28.4588    1.0368 C   0  0  0  0  0  0  0  0  0  0  0  0
  -50.6477  -29.2674    6.6657 C   0  0  0  0  0  0  0  0  0  0  0  0
  -45.9708  -30.0407    2.8190 C   0  0  0  0  0  0  0  0  0  0  0  0
  -44.1767  -28.7858    1.7255 C   0  0  0  0  0  0  0  0  0  0  0  0
  -50.4550  -28.8924    5.3360 C   0  0  0  0  0  0  0  0  0  0  0  0
  -53.0109  -28.8153    6.4512 C   0  0  0  0  0  0  0  0  0  0  0  0
  -51.9255  -29.2288    7.2236 C   0  0  0  0  0  0  0  0  0  0  0  0
  -44.6380  -29.7237    2.6488 C   0  0  0  0  0  0  0  0  0  0  0  0
  -46.8876  -29.3938    1.9925 C   0  0  0  0  0  0  0  0  0  0  0  0
  -42.6845  -28.6138    1.6802 C   0  0  0  0  0  0  0  0  0  0  0  0
  -42.1465  -29.1277    3.0221 C   0  0  0  0  0  0  0  0  0  0  0  0
  -48.0888  -28.0320    5.4782 C   0  0  0  0  0  0  0  0  0  0  0  0
  -49.0688  -28.9346    4.7316 C   0  0  2  0  0  0  0  0  0  0  0  0
  -49.1036  -28.5989    3.3012 N   0  0  0  0  0  0  0  0  0  0  0  0
  -42.9768  -31.6567    3.0506 O   0  0  0  0  0  0  0  0  0  0  0  0
  -43.6150  -30.1361    4.9949 O   0  0  0  0  0  0  0  0  0  0  0  0
  -48.7450  -31.0805    2.7095 O   0  0  0  0  0  0  0  0  0  0  0  0
  -49.2242  -29.4360    0.8693 O   0  0  0  0  0  0  0  0  0  0  0  0
  -54.2382  -28.7782    6.9863 F   0  0  0  0  0  0  0  0  0  0  0  0
  -52.1105  -29.5885    8.5004 F   0  0  0  0  0  0  0  0  0  0  0  0
  -43.3231  -30.3632    3.5964 S   0  0  0  0  0  0  0  0  0  0  0  0
  -48.5919  -29.7467    2.1437 S   0  0  0  0  0  0  0  0  0  0  0  0
  -44.7699  -27.4359    0.1512 H   0  0  0  0  0  0  0  0  0  0  0  0
  -51.3998  -28.1843    3.5270 H   0  0  0  0  0  0  0  0  0  0  0  0
  -53.6638  -28.1182    4.5209 H   0  0  0  0  0  0  0  0  0  0  0  0
  -47.1737  -27.9620    0.3918 H   0  0  0  0  0  0  0  0  0  0  0  0
  -49.8079  -29.5900    7.2754 H   0  0  0  0  0  0  0  0  0  0  0  0
  -46.2888  -30.7616    3.5638 H   0  0  0  0  0  0  0  0  0  0  0  0
  -42.2846  -29.2182    0.8580 H   0  0  0  0  0  0  0  0  0  0  0  0
  -42.3964  -27.5698    1.5231 H   0  0  0  0  0  0  0  0  0  0  0  0
  -41.1509  -29.5686    2.9415 H   0  0  0  0  0  0  0  0  0  0  0  0
  -42.1375  -28.3241    3.7662 H   0  0  0  0  0  0  0  0  0  0  0  0
  -48.4121  -26.9853    5.4742 H   0  0  0  0  0  0  0  0  0  0  0  0
  -47.9800  -28.3467    6.5223 H   0  0  0  0  0  0  0  0  0  0  0  0
  -47.0992  -28.0663    5.0085 H   0  0  0  0  0  0  0  0  0  0  0  0
  -48.6820  -29.9596    4.7773 H   0  0  0  0  0  0  0  0  0  0  0  0
  -49.0382  -27.6000    3.0704 H   0  0  0  0  0  0  0  0  0  0  0  0
  1  4  2  0  0  0  0
  1  7  1  0  0  0  0
  2  3  2  0  0  0  0
  2  8  1  0  0  0  0
  3  9  1  0  0  0  0
  4 12  1  0  0  0  0
  5  8  2  0  0  0  0
  5 10  1  0  0  0  0
  6 11  1  0  0  0  0
  6 12  2  0  0  0  0
  7 11  2  0  0  0  0
  7 13  1  0  0  0  0
  8 16  1  0  0  0  0
  9 10  2  0  0  0  0
  9 22  1  0  0  0  0
 10 23  1  0  0  0  0
 11 24  1  0  0  0  0
 12 25  1  0  0  0  0
 13 14  1  0  0  0  0
 14 24  1  0  0  0  0
 15 16  1  0  0  0  0
 16 17  1  0  0  0  0
 17 25  1  0  0  0  0
 18 24  2  0  0  0  0
 19 24  2  0  0  0  0
 20 25  2  0  0  0  0
 21 25  2  0  0  0  0
  1 26  1  0  0  0  0
  2 27  1  0  0  0  0
  3 28  1  0  0  0  0
  4 29  1  0  0  0  0
  5 30  1  0  0  0  0
  6 31  1  0  0  0  0
 13 32  1  0  0  0  0
 13 33  1  0  0  0  0
 14 34  1  0  0  0  0
 14 35  1  0  0  0  0
 15 36  1  0  0  0  0
 15 37  1  0  0  0  0
 15 38  1  0  0  0  0
 16 39  1  0  0  0  0
 17 40  1  0  0  0  0
M  END
> <POSIT::Probability>
0.05

> <POSIT::Method>
FRED

> <ReceptorTitle>
UCSF-P4432-REFINED_LIGAND-BOUND-STATE_A__DU__LA1_A-201(A)

> <OMEGA_C>
4V80wmY84cHYumU/TilOwuDU48GxCJJA4UVTws+F48Fu4qNAkM85wrOr48GwtIQ/QJdKwpsj6sGr
TdVAHOI3wktT8MEsajRA6bQwwjlJ5sGc3Nw/9NFJwqIj58FDwKpALAtUwsiF5sHWb85AwrNPwo7U
6cF+J+dAT40ywiPK7cGchilA8ow7wn4m68H4Cv8/5bwqwgLp5ME8D9c/EJYowoQF6cHIakFA9FpA
woBB4ME2Ta9AeUZEwhZ658FOaZdAE2pEwqDK5MFARlNANOgrwt5A/cGsPUNAt3UuwrkW8cF61p9A
4PpCwuuk+MEgaS1AjOVEwtp868EIjV4/8fNYwqs55sF5j99AIHFQwjy17MFzAQhB30otwuDn8sGg
KmZAJV5Cwlb57cH4MQlAVRQzwtB828HAxxo+cZlNwmB54cG8umFAu6dWwv7x4MEoq5BA2LE8wkKy
38HQmMg+SztHwjq47MH/z+hAtic5wsIX9sE+FWRAdiMpwsq+6cEAp1s/6pUpwuiO3MHQ88I/gJok
wmaM7MEyQTxA1IwowrqX4sF8CXFAB6ZBws/h18GiLK9AfOs/wg/G4sHJttBAj2U8wsmH4MFSRaBA
YLpCwjmt78Hq35hAFSdEwtzM3ME+gURA

> <OMEGA_E>
9cPfwA==

> <OMEGA_NBR>
     54568

$$$$
CACHE3HI_1702_78
  -OEChem-03092622513D

 43 45  0     0  0  0  0  0  0999 V2000
  -48.0774  -30.0056    0.9703 C   0  0  0  0  0  0  0  0  0  0  0  0
  -47.4949  -28.9601    0.2446 C   0  0  0  0  0  0  0  0  0  0  0  0
  -46.9051  -27.7939    2.2947 C   0  0  0  0  0  0  0  0  0  0  0  0
  -48.0638  -29.9487    2.3566 C   0  0  0  0  0  0  0  0  0  0  0  0
  -47.4958  -28.8373    2.9789 C   0  0  0  0  0  0  0  0  0  0  0  0
  -46.9112  -27.8634    0.9029 C   0  0  0  0  0  0  0  0  0  0  0  0
  -48.6817  -30.9554    3.2856 C   0  0  0  0  0  0  0  0  0  0  0  0
  -44.4152  -29.6994    1.5900 C   0  0  0  0  0  0  0  0  0  0  0  0
  -42.0151  -28.9479    1.8667 C   0  0  0  0  0  0  0  0  0  0  0  0
  -43.9715  -31.1567    1.6945 C   0  0  0  0  0  0  0  0  0  0  0  0
  -41.5708  -30.4050    1.9705 C   0  0  0  0  0  0  0  0  0  0  0  0
  -48.0419  -30.7275    4.6615 C   0  0  0  0  0  0  0  0  0  0  0  0
  -43.2974  -28.8046    1.0338 C   0  0  0  0  0  0  0  0  0  0  0  0
  -42.6875  -31.2907    2.4950 C   0  0  0  0  0  0  0  0  0  0  0  0
  -43.7479  -27.3462    0.9852 C   0  0  0  0  0  0  0  0  0  0  0  0
  -44.5659  -27.1144   -0.1945 N   0  0  0  0  0  0  0  0  0  0  0  0
  -48.6730  -28.1946    5.1832 O   0  0  0  0  0  0  0  0  0  0  0  0
  -46.2181  -28.8807    5.2342 O   0  0  0  0  0  0  0  0  0  0  0  0
  -46.1928  -25.3586    0.7645 O   0  0  0  0  0  0  0  0  0  0  0  0
  -46.8209  -26.5740   -1.3448 O   0  0  0  0  0  0  0  0  0  0  0  0
  -42.9354  -30.9764    3.7929 F   0  0  0  0  0  0  0  0  0  0  0  0
  -42.2812  -32.5845    2.4839 F   0  0  0  0  0  0  0  0  0  0  0  0
  -47.5629  -28.9930    4.7130 S   0  0  0  0  0  0  0  0  0  0  0  0
  -46.1796  -26.5624   -0.0445 S   0  0  0  0  0  0  0  0  0  0  0  0
  -48.5309  -30.8434    0.4503 H   0  0  0  0  0  0  0  0  0  0  0  0
  -47.5005  -29.0046   -0.8420 H   0  0  0  0  0  0  0  0  0  0  0  0
  -46.4563  -26.9576    2.8189 H   0  0  0  0  0  0  0  0  0  0  0  0
  -49.7609  -30.7717    3.3372 H   0  0  0  0  0  0  0  0  0  0  0  0
  -48.5145  -31.9826    2.9474 H   0  0  0  0  0  0  0  0  0  0  0  0
  -45.3005  -29.6363    0.9462 H   0  0  0  0  0  0  0  0  0  0  0  0
  -44.7190  -29.3422    2.5825 H   0  0  0  0  0  0  0  0  0  0  0  0
  -42.1791  -28.5473    2.8753 H   0  0  0  0  0  0  0  0  0  0  0  0
  -41.2089  -28.3554    1.4180 H   0  0  0  0  0  0  0  0  0  0  0  0
  -44.7641  -31.7452    2.1703 H   0  0  0  0  0  0  0  0  0  0  0  0
  -43.8259  -31.5765    0.6919 H   0  0  0  0  0  0  0  0  0  0  0  0
  -41.2433  -30.7675    0.9887 H   0  0  0  0  0  0  0  0  0  0  0  0
  -40.7036  -30.4742    2.6370 H   0  0  0  0  0  0  0  0  0  0  0  0
  -48.7180  -30.9533    5.4886 H   0  0  0  0  0  0  0  0  0  0  0  0
  -47.1238  -31.3162    4.7612 H   0  0  0  0  0  0  0  0  0  0  0  0
  -43.0788  -29.1245    0.0062 H   0  0  0  0  0  0  0  0  0  0  0  0
  -44.3247  -27.1167    1.8837 H   0  0  0  0  0  0  0  0  0  0  0  0
  -42.8712  -26.6953    0.9662 H   0  0  0  0  0  0  0  0  0  0  0  0
  -44.3169  -27.6447   -1.0468 H   0  0  0  0  0  0  0  0  0  0  0  0
  1  2  1  0  0  0  0
  1  4  2  0  0  0  0
  2  6  2  0  0  0  0
  3  5  2  0  0  0  0
  3  6  1  0  0  0  0
  4  5  1  0  0  0  0
  4  7  1  0  0  0  0
  5 23  1  0  0  0  0
  6 24  1  0  0  0  0
  7 12  1  0  0  0  0
  8 10  1  0  0  0  0
  8 13  1  0  0  0  0
  9 11  1  0  0  0  0
  9 13  1  0  0  0  0
 10 14  1  0  0  0  0
 11 14  1  0  0  0  0
 12 23  1  0  0  0  0
 13 15  1  0  0  0  0
 14 21  1  0  0  0  0
 14 22  1  0  0  0  0
 15 16  1  0  0  0  0
 16 24  1  0  0  0  0
 17 23  2  0  0  0  0
 18 23  2  0  0  0  0
 19 24  2  0  0  0  0
 20 24  2  0  0  0  0
  1 25  1  0  0  0  0
  2 26  1  0  0  0  0
  3 27  1  0  0  0  0
  7 28  1  0  0  0  0
  7 29  1  0  0  0  0
  8 30  1  0  0  0  0
  8 31  1  0  0  0  0
  9 32  1  0  0  0  0
  9 33  1  0  0  0  0
 10 34  1  0  0  0  0
 10 35  1  0  0  0  0
 11 36  1  0  0  0  0
 11 37  1  0  0  0  0
 12 38  1  0  0  0  0
 12 39  1  0  0  0  0
 13 40  1  0  0  0  0
 15 41  1  0  0  0  0
 15 42  1  0  0  0  0
 16 43  1  0  0  0  0
M  END
> <POSIT::Probability>
0.02

> <POSIT::Method>
FRED

> <ReceptorTitle>
UCSF-P4432-REFINED_LIGAND-BOUND-STATE_A__DU__LA1_A-201(A)

> <OMEGA_C>
P09AwnUL8MEEaHg/yvo9wjqu58HQc3o+1547wu5Z3sEz3BJAVkFAwvCW78H50RZAv/s9wsmy5sEH
pz5AB6U7wjro3sF8IWc/HLpCwpCk98E/R1JAIakxwkuY7cGGhMs/ag8owjSV58Gk7+4/0eIvwvBA
+cEa5dg/gkgmwnU988GcOvw/8SpAwtTR9cEIK5VAiDAtwtpv5sGiUoQ/+L8qwlxT+sHerh9A3P0u
whzF2sHwNHw/gEMywjvq2ME4H0e+GrFCwoKO4cEF3aVAUt84wqEL58G3fqdAb8U4wn/eysGAs0M/
lEg7woqX1MGdIqy/4L0rwrrP98EAv3JA9h8pwoVWAsLX+B5AZkA+wpzx58Hm0JZA8Lc4ws1/1MGA
Iza9mx9Cwli/9sGAk+Y+ewA+wnQJ6MH0ile/N9M5wj6p18FaaDRANQtHwnIs9sEDlVVA0A5Cwl7c
/8GCojxAwDM1wjQX7cFMO3I/ROAywtG86sHjRiVAZ7cowvFg5MG7BThA5NUkwsrX4sF4gLU/cA4z
wkL2/cES5gpAxU0vwrmc/MFQIDE/IvkkwtQj9sH8HH0/e9AiwivL88F0xChASN9CwnCg98Fyoq9A
zH48wpuH+sGQW5hAq1Aswgz/6MEAMco7ckwxwgzv2MFAHPE/HnwrwvuP1cEQV3c/hUQxwkQo3cHs
/IW/

> <OMEGA_E>
Ab3KwA==

> <OMEGA_NBR>
     55917

$$$$
CACHE3HI_1702_93
  -OEChem-03092622513D

 42 45  0     0  0  0  0  0  0999 V2000
  -52.4780  -32.7085    3.6830 C   0  0  0  0  0  0  0  0  0  0  0  0
  -47.2698  -27.8316    4.6264 C   0  0  0  0  0  0  0  0  0  0  0  0
  -51.1695  -32.2828    3.4544 C   0  0  0  0  0  0  0  0  0  0  0  0
  -53.1839  -32.2296    4.7865 C   0  0  0  0  0  0  0  0  0  0  0  0
  -48.4089  -28.0921    3.8647 C   0  0  0  0  0  0  0  0  0  0  0  0
  -47.2127  -28.2435    5.9578 C   0  0  0  0  0  0  0  0  0  0  0  0
  -50.5671  -31.3782    4.3289 C   0  0  0  0  0  0  0  0  0  0  0  0
  -52.5815  -31.3249    5.6610 C   0  0  0  0  0  0  0  0  0  0  0  0
  -49.4905  -28.7644    4.4339 C   0  0  0  0  0  0  0  0  0  0  0  0
  -48.2943  -28.9158    6.5271 C   0  0  0  0  0  0  0  0  0  0  0  0
  -54.6067  -27.3206    9.8438 C   0  0  0  0  0  0  0  0  0  0  0  0
  -53.7755  -27.9951    8.9456 C   0  0  0  0  0  0  0  0  0  0  0  0
  -52.0635  -28.2963   10.6637 C   0  0  0  0  0  0  0  0  0  0  0  0
  -51.2730  -30.8992    5.4325 C   0  0  0  0  0  0  0  0  0  0  0  0
  -49.4333  -29.1763    5.7654 C   0  0  0  0  0  0  0  0  0  0  0  0
  -54.1297  -27.1589   11.1243 C   0  0  0  0  0  0  0  0  0  0  0  0
  -52.5146  -28.4791    9.3521 C   0  0  0  0  0  0  0  0  0  0  0  0
  -52.8992  -27.6277   11.5314 C   0  0  0  0  0  0  0  0  0  0  0  0
  -53.7987  -26.6621   13.2665 C   0  0  0  0  0  0  0  0  0  0  0  0
  -51.6362  -28.9661    7.0400 C   0  0  0  0  0  0  0  0  0  0  0  0
  -50.6153  -29.9111    6.3880 C   0  0  0  0  0  0  0  0  0  0  0  0
  -54.6940  -26.5527   12.2148 N   0  0  0  0  0  0  0  0  0  0  0  0
  -51.7076  -29.1508    8.4322 N   0  0  0  0  0  0  0  0  0  0  0  0
  -53.9585  -26.2360   14.4035 O   0  0  0  0  0  0  0  0  0  0  0  0
  -52.2886  -28.1604    6.3822 O   0  0  0  0  0  0  0  0  0  0  0  0
  -52.6371  -27.3461   12.8634 O   0  0  0  0  0  0  0  0  0  0  0  0
  -52.9471  -33.4128    3.0023 H   0  0  0  0  0  0  0  0  0  0  0  0
  -46.4277  -27.3082    4.1833 H   0  0  0  0  0  0  0  0  0  0  0  0
  -50.6199  -32.6554    2.5950 H   0  0  0  0  0  0  0  0  0  0  0  0
  -54.2027  -32.5610    4.9648 H   0  0  0  0  0  0  0  0  0  0  0  0
  -48.4533  -27.7718    2.8278 H   0  0  0  0  0  0  0  0  0  0  0  0
  -46.3259  -28.0406    6.5512 H   0  0  0  0  0  0  0  0  0  0  0  0
  -49.5471  -31.0523    4.1427 H   0  0  0  0  0  0  0  0  0  0  0  0
  -53.1399  -30.9566    6.5175 H   0  0  0  0  0  0  0  0  0  0  0  0
  -50.3738  -28.9628    3.8326 H   0  0  0  0  0  0  0  0  0  0  0  0
  -48.2400  -29.2337    7.5649 H   0  0  0  0  0  0  0  0  0  0  0  0
  -55.5765  -26.9466    9.5387 H   0  0  0  0  0  0  0  0  0  0  0  0
  -54.1134  -28.1447    7.9224 H   0  0  0  0  0  0  0  0  0  0  0  0
  -51.0967  -28.6645   10.9889 H   0  0  0  0  0  0  0  0  0  0  0  0
  -50.2003  -30.5014    7.2201 H   0  0  0  0  0  0  0  0  0  0  0  0
  -55.6031  -26.1078   12.2367 H   0  0  0  0  0  0  0  0  0  0  0  0
  -51.0811  -29.8654    8.8182 H   0  0  0  0  0  0  0  0  0  0  0  0
  1  3  1  0  0  0  0
  1  4  2  0  0  0  0
  2  5  1  0  0  0  0
  2  6  2  0  0  0  0
  3  7  2  0  0  0  0
  4  8  1  0  0  0  0
  5  9  2  0  0  0  0
  6 10  1  0  0  0  0
  7 14  1  0  0  0  0
  8 14  2  0  0  0  0
  9 15  1  0  0  0  0
 10 15  2  0  0  0  0
 11 12  2  0  0  0  0
 11 16  1  0  0  0  0
 12 17  1  0  0  0  0
 13 17  2  0  0  0  0
 13 18  1  0  0  0  0
 14 21  1  0  0  0  0
 15 21  1  0  0  0  0
 16 18  2  0  0  0  0
 16 22  1  0  0  0  0
 17 23  1  0  0  0  0
 18 26  1  0  0  0  0
 19 22  1  0  0  0  0
 19 24  2  0  0  0  0
 19 26  1  0  0  0  0
 20 21  1  0  0  0  0
 20 23  1  0  0  0  0
 20 25  2  0  0  0  0
  1 27  1  0  0  0  0
  2 28  1  0  0  0  0
  3 29  1  0  0  0  0
  4 30  1  0  0  0  0
  5 31  1  0  0  0  0
  6 32  1  0  0  0  0
  7 33  1  0  0  0  0
  8 34  1  0  0  0  0
  9 35  1  0  0  0  0
 10 36  1  0  0  0  0
 11 37  1  0  0  0  0
 12 38  1  0  0  0  0
 13 39  1  0  0  0  0
 21 40  1  0  0  0  0
 22 41  1  0  0  0  0
 23 42  1  0  0  0  0
M  END
> <POSIT::Probability>
0.33

> <POSIT::Method>
HYBRID

> <ReceptorTitle>
UCSF-P4432-REFINED_LIGAND-BOUND-STATE_A__DU__LA1_A-201(A)

> <OMEGA_C>
gOlRworVAsIotmtAQRQ9wimn3sHIC5RAka1Mwp8hAcJEFV1AU7xUwhLrAMIVK5lAsqJBwpq84MGg
VndAw9k8wpzy4cFupr5ArERKwpMG+8F4hopAb1NSwnuZ+sHqJrVAQvZFwpYd5sHf4o1AUS1BwplT
58H73dBAO21awq6Q2sFLgB1BHhpXwg7238FUIQ9B+0BQwuFe4sF+nipBjhdNwqIx98HK1q1AvbtF
wg1p6cH1fbhA0IRYwmJF2cH6/DFB+w5SwkzV48FDohVBzphTwngF3cGbgDhB2jFXwgNM1cGkQ1RB
fYtOwoi658ENSOFAEHZKwv1J78FpasxAtMZawvpr1MG8b0NBmNROwuk06cE+6gZBidVXwk7j0cGJ
dGZBfSdRwmdI4cGpOsxAZ4xSwrjE2sFY0E1BzMlTwrmmBcIIJUBAALY5whp32sHK3YVAvXpKwiCf
AsIkFCZAhc9YwoA+AsJj355AOtBBwq4s3sFg+zRAxU05wh1T4MEko9FAODBGwjZr+MH2kIRAOo9U
wg6n98F1j9BAwn5JwtKz58HuSHVAwvVAwpDe6cEGFPJAUk5ewqKS18GWnhhBIXRYwk8o4cF0hP1A
DGNMwuVQ5cF40i9BG81Iwt4C9MFLC+dAhmlewrLc0MF4yUNBA1NMwkLs7sEyFw1B

> <OMEGA_E>
9jTCwA==

> <OMEGA_NBR>
     57255

$$$$
CACHE3HI_1704_28
  -OEChem-03092622513D

 45 48  0     1  0  0  0  0  0999 V2000
  -45.6816  -29.8678    2.8185 C   0  0  0  0  0  0  0  0  0  0  0  0
  -45.0764  -30.0583    4.0608 C   0  0  0  0  0  0  0  0  0  0  0  0
  -46.8809  -29.1614    2.7286 C   0  0  0  0  0  0  0  0  0  0  0  0
  -54.0060  -25.9143   13.6216 C   0  0  0  0  0  0  0  0  0  0  0  0
  -54.6646  -25.3053   12.5524 C   0  0  0  0  0  0  0  0  0  0  0  0
  -50.1502  -30.7528    4.0814 C   0  0  0  0  0  0  0  0  0  0  0  0
  -45.6702  -29.5423    5.2128 C   0  0  0  0  0  0  0  0  0  0  0  0
  -47.4747  -28.6454    3.8806 C   0  0  0  0  0  0  0  0  0  0  0  0
  -53.1289  -26.9741   13.3907 C   0  0  0  0  0  0  0  0  0  0  0  0
  -54.4402  -25.7464   11.2485 C   0  0  0  0  0  0  0  0  0  0  0  0
  -49.1150  -30.3087    4.8964 C   0  0  0  0  0  0  0  0  0  0  0  0
  -51.4504  -30.5571    4.5200 C   0  0  0  0  0  0  0  0  0  0  0  0
  -46.8696  -28.8358    5.1228 C   0  0  0  0  0  0  0  0  0  0  0  0
  -52.9139  -27.4254   12.0881 C   0  0  0  0  0  0  0  0  0  0  0  0
  -53.5528  -26.7970   11.0154 C   0  0  0  0  0  0  0  0  0  0  0  0
  -49.4067  -29.6913    6.1075 C   0  0  0  0  0  0  0  0  0  0  0  0
  -50.7395  -29.5430    6.4556 C   0  0  0  0  0  0  0  0  0  0  0  0
  -52.3011  -28.6719    8.2228 C   0  0  0  0  0  0  0  0  0  0  0  0
  -52.1783  -29.0740   10.6283 C   0  0  0  0  0  0  0  0  0  0  0  0
  -52.1965  -27.9905    9.5681 C   0  0  2  0  0  0  0  0  0  0  0  0
  -47.5085  -28.2808    6.3615 C   0  0  0  0  0  0  0  0  0  0  0  0
  -51.7722  -29.9615    5.6903 N   0  0  0  0  0  0  0  0  0  0  0  0
  -51.0432  -28.9177    7.6877 N   0  0  0  0  0  0  0  0  0  0  0  0
  -53.3957  -28.9447    7.7402 O   0  0  0  0  0  0  0  0  0  0  0  0
  -52.0573  -28.4837   11.9267 O   0  0  0  0  0  0  0  0  0  0  0  0
  -53.3580  -27.1734    9.7115 O   0  0  0  0  0  0  0  0  0  0  0  0
  -48.3964  -29.2579    6.9059 O   0  0  0  0  0  0  0  0  0  0  0  0
  -45.2194  -30.2696    1.9216 H   0  0  0  0  0  0  0  0  0  0  0  0
  -44.1424  -30.6080    4.1309 H   0  0  0  0  0  0  0  0  0  0  0  0
  -47.3523  -29.0132    1.7615 H   0  0  0  0  0  0  0  0  0  0  0  0
  -54.1802  -25.5652   14.6353 H   0  0  0  0  0  0  0  0  0  0  0  0
  -55.3501  -24.4831   12.7361 H   0  0  0  0  0  0  0  0  0  0  0  0
  -49.9462  -31.2369    3.1331 H   0  0  0  0  0  0  0  0  0  0  0  0
  -45.1914  -29.6958    6.1763 H   0  0  0  0  0  0  0  0  0  0  0  0
  -48.4086  -28.0955    3.8003 H   0  0  0  0  0  0  0  0  0  0  0  0
  -52.6270  -27.4485   14.2295 H   0  0  0  0  0  0  0  0  0  0  0  0
  -54.9508  -25.2607   10.4215 H   0  0  0  0  0  0  0  0  0  0  0  0
  -48.0840  -30.4479    4.5831 H   0  0  0  0  0  0  0  0  0  0  0  0
  -52.2937  -30.8851    3.9215 H   0  0  0  0  0  0  0  0  0  0  0  0
  -53.0880  -29.6885   10.6082 H   0  0  0  0  0  0  0  0  0  0  0  0
  -51.3241  -29.7446   10.4848 H   0  0  0  0  0  0  0  0  0  0  0  0
  -51.2969  -27.3817    9.5860 H   0  0  0  0  0  0  0  0  0  0  0  0
  -46.7510  -28.0279    7.1108 H   0  0  0  0  0  0  0  0  0  0  0  0
  -48.0737  -27.3700    6.1338 H   0  0  0  0  0  0  0  0  0  0  0  0
  -50.2386  -28.6188    8.2346 H   0  0  0  0  0  0  0  0  0  0  0  0
  1  2  1  0  0  0  0
  1  3  2  0  0  0  0
  2  7  2  0  0  0  0
  3  8  1  0  0  0  0
  4  5  1  0  0  0  0
  4  9  2  0  0  0  0
  5 10  2  0  0  0  0
  6 11  2  0  0  0  0
  6 12  1  0  0  0  0
  7 13  1  0  0  0  0
  8 13  2  0  0  0  0
  9 14  1  0  0  0  0
 10 15  1  0  0  0  0
 11 16  1  0  0  0  0
 12 22  2  0  0  0  0
 13 21  1  0  0  0  0
 14 15  2  0  0  0  0
 14 25  1  0  0  0  0
 15 26  1  0  0  0  0
 16 17  2  0  0  0  0
 16 27  1  0  0  0  0
 17 22  1  0  0  0  0
 17 23  1  0  0  0  0
 18 20  1  0  0  0  0
 18 23  1  0  0  0  0
 18 24  2  0  0  0  0
 19 20  1  0  0  0  0
 19 25  1  0  0  0  0
 20 26  1  0  0  0  0
 21 27  1  0  0  0  0
  1 28  1  0  0  0  0
  2 29  1  0  0  0  0
  3 30  1  0  0  0  0
  4 31  1  0  0  0  0
  5 32  1  0  0  0  0
  6 33  1  0  0  0  0
  7 34  1  0  0  0  0
  8 35  1  0  0  0  0
  9 36  1  0  0  0  0
 10 37  1  0  0  0  0
 11 38  1  0  0  0  0
 12 39  1  0  0  0  0
 19 40  1  0  0  0  0
 19 41  1  0  0  0  0
 20 42  1  0  0  0  0
 21 43  1  0  0  0  0
 21 44  1  0  0  0  0
 23 45  1  0  0  0  0
M  END
> <POSIT::Probability>
0.25

> <POSIT::Method>
FRED

> <ReceptorTitle>
UCSF-P4432-REFINED_LIGAND-BOUND-STATE_A__DU__LA1_A-201(A)

> <OMEGA_C>
87k2wlnx7sFkYjRASE40wl538MHn8YFACIY7wp9K6cHkoC5AJQZYwmNQz8Er8llBgahawlZxysHK
1khB2ZlIws4F9sGqmoJAUK42wopW7MEtz6ZAEuY9wsop5cF4W3hA/oNUwvjK18F8QFZBysJZwqn4
zcHS+TNBvXVEwi948sH+rpxALs1Nwgh19MHoo5BAdHo7wsOv5sEz7qNAzqdTwiln28G2aEFBEzZW
wkhg1sECPzBBaqBFwtOH7cHbcMNASPVKwvxX7MFhlM5ASjRRwhRg5cGckANBiLZQwoiX6MGrDSpB
QMlQwnTs38EeFxlBtgg+wgg/4sEakctAwxZPwi6x78GZFrZASCxMwlxX58GBAfZALJVVwrSO58EK
sPdAuTpQwo/e48HN0z5BpG5VwjVj2cF3YhtB7JVBwjIQ6sF+/dxAquA0whso8sHY9/U/zpEwwiHd
9MF6MIRAyWg9whUb6MEQeOE/grhYwpOFzMFJKmpBjGZdwlbdw8EYx0tB6shHwhbl+cGEhEhA+MM0
wvuQ7cE5pMVAcaJBwpjD4ME4OHNAAIJSwpqW28ExrGNBqs1bwu0VysFzviZB+lVAwmSV88HiqJJA
yixRwqMU98Hw+XpAJFpUwhKC7cFZuylB4UtNwtz07cG4wSdBBzBNwq8N28FsYBlBBAE7whg54MHx
i+NAgktAwsT12sFnSMRAUvRIwkXz5MHHwANB

> <OMEGA_E>
9If7wA==

> <OMEGA_NBR>
     58650

$$$$
CACHE3HI_1704_32
  -OEChem-03092622513D

 40 42  0     0  0  0  0  0  0999 V2000
  -46.3269  -26.7265   -0.5942 C   0  0  0  0  0  0  0  0  0  0  0  0
  -45.0316  -26.2489   -0.3949 C   0  0  0  0  0  0  0  0  0  0  0  0
  -46.7362  -27.9090    0.0219 C   0  0  0  0  0  0  0  0  0  0  0  0
  -44.1458  -26.9534    0.4207 C   0  0  0  0  0  0  0  0  0  0  0  0
  -45.8504  -28.6135    0.8374 C   0  0  0  0  0  0  0  0  0  0  0  0
  -43.0723  -30.7113    3.3195 C   0  0  0  0  0  0  0  0  0  0  0  0
  -50.1943  -31.3774    3.6629 C   0  0  0  0  0  0  0  0  0  0  0  0
  -41.8109  -30.1523    3.4514 C   0  0  0  0  0  0  0  0  0  0  0  0
  -42.3504  -28.3905    2.0783 C   0  0  0  0  0  0  0  0  0  0  0  0
  -44.5551  -28.1360    1.0368 C   0  0  0  0  0  0  0  0  0  0  0  0
  -43.6365  -28.8671    1.8823 C   0  0  0  0  0  0  0  0  0  0  0  0
  -43.9963  -30.0501    2.5181 C   0  0  0  0  0  0  0  0  0  0  0  0
  -49.3646  -31.8760    2.6796 C   0  0  0  0  0  0  0  0  0  0  0  0
  -49.6215  -30.4602    4.5198 C   0  0  0  0  0  0  0  0  0  0  0  0
  -47.6307  -30.6125    3.4321 C   0  0  0  0  0  0  0  0  0  0  0  0
  -45.3270  -30.6274    2.3717 C   0  0  0  0  0  0  0  0  0  0  0  0
  -49.8953  -32.8733    1.7054 C   0  0  0  0  0  0  0  0  0  0  0  0
  -49.7370  -28.9787    6.3769 C   0  0  0  0  0  0  0  0  0  0  0  0
  -41.4254  -29.0049    2.8492 N   0  0  0  0  0  0  0  0  0  0  0  0
  -48.0728  -31.5141    2.5346 N   0  0  0  0  0  0  0  0  0  0  0  0
  -48.3377  -30.0537    4.4333 N   0  0  0  0  0  0  0  0  0  0  0  0
  -46.2781  -30.2094    3.3108 N   0  0  0  0  0  0  0  0  0  0  0  0
  -45.5289  -31.4480    1.4642 O   0  0  0  0  0  0  0  0  0  0  0  0
  -50.3799  -29.9189    5.5237 O   0  0  0  0  0  0  0  0  0  0  0  0
  -47.0164  -26.1785   -1.2295 H   0  0  0  0  0  0  0  0  0  0  0  0
  -44.7131  -25.3278   -0.8740 H   0  0  0  0  0  0  0  0  0  0  0  0
  -47.7445  -28.2810   -0.1334 H   0  0  0  0  0  0  0  0  0  0  0  0
  -43.1391  -26.5683    0.5654 H   0  0  0  0  0  0  0  0  0  0  0  0
  -46.1846  -29.5334    1.3113 H   0  0  0  0  0  0  0  0  0  0  0  0
  -43.3190  -31.6362    3.8306 H   0  0  0  0  0  0  0  0  0  0  0  0
  -51.2288  -31.6840    3.7586 H   0  0  0  0  0  0  0  0  0  0  0  0
  -41.0540  -30.6284    4.0659 H   0  0  0  0  0  0  0  0  0  0  0  0
  -42.0065  -27.4722    1.6110 H   0  0  0  0  0  0  0  0  0  0  0  0
  -50.3198  -32.3801    0.8214 H   0  0  0  0  0  0  0  0  0  0  0  0
  -50.6984  -33.4756    2.1502 H   0  0  0  0  0  0  0  0  0  0  0  0
  -49.0957  -33.5483    1.3767 H   0  0  0  0  0  0  0  0  0  0  0  0
  -50.4455  -28.6245    7.1302 H   0  0  0  0  0  0  0  0  0  0  0  0
  -48.8945  -29.4665    6.8730 H   0  0  0  0  0  0  0  0  0  0  0  0
  -49.3699  -28.1383    5.7832 H   0  0  0  0  0  0  0  0  0  0  0  0
  -45.9560  -29.5282    3.9943 H   0  0  0  0  0  0  0  0  0  0  0  0
  1  2  1  0  0  0  0
  1  3  2  0  0  0  0
  2  4  2  0  0  0  0
  3  5  1  0  0  0  0
  4 10  1  0  0  0  0
  5 10  2  0  0  0  0
  6  8  2  0  0  0  0
  6 12  1  0  0  0  0
  7 13  1  0  0  0  0
  7 14  2  0  0  0  0
  8 19  1  0  0  0  0
  9 11  1  0  0  0  0
  9 19  2  0  0  0  0
 10 11  1  0  0  0  0
 11 12  2  0  0  0  0
 12 16  1  0  0  0  0
 13 17  1  0  0  0  0
 13 20  2  0  0  0  0
 14 21  1  0  0  0  0
 14 24  1  0  0  0  0
 15 20  1  0  0  0  0
 15 21  2  0  0  0  0
 15 22  1  0  0  0  0
 16 22  1  0  0  0  0
 16 23  2  0  0  0  0
 18 24  1  0  0  0  0
  1 25  1  0  0  0  0
  2 26  1  0  0  0  0
  3 27  1  0  0  0  0
  4 28  1  0  0  0  0
  5 29  1  0  0  0  0
  6 30  1  0  0  0  0
  7 31  1  0  0  0  0
  8 32  1  0  0  0  0
  9 33  1  0  0  0  0
 17 34  1  0  0  0  0
 17 35  1  0  0  0  0
 17 36  1  0  0  0  0
 18 37  1  0  0  0  0
 18 38  1  0  0  0  0
 18 39  1  0  0  0  0
 22 40  1  0  0  0  0
M  END
> <POSIT::Probability>
0.02

> <POSIT::Method>
FRED

> <ReceptorTitle>
UCSF-P4432-REFINED_LIGAND-BOUND-STATE_A__DU__LA1_A-201(A)

> <OMEGA_C>
vE45wt3P1cHgHxi/USA0ws390cHwKcq+0vE6wp1F38EAlLM8SZUwwqOg18EwYdc+ymY3wnXo5MFA
YlY/A0osws2w9cE4clRAAsdIwuIE+8EcbWpAXD4nwtk38cGq41xAz2Ypwqkf48HuAgVAaTgywnsW
4cEAt4Q/y4suwuTv5sHE7fA/Ofwvwolm8ME+KSFAVXVFwvcB/8GSfitAYXxGwnuu88E8opBA3oU+
wmzm9MEop1tA4k41wuEE9cGQyhdAzJRHwk9+A8IcS9o/sPJGwkjU58F4D8xAkrMlwvkJ6MGiWDZA
mEpAwuYc/MG+NiJAxFlBwvpt8MH+3Y1AxRw5wuGs8cFG5FNAmh02wm6V+8Foars/BoVJwvFZ78FA
wrBA0hA8wntt0cEgYJ2/NtoywjyfysF4vl+/ZPo+wog/4sEApgi+eo4swsqL1MHgvhA/Br04wlRE
7MFs2ac/pkYtwvcW/cHIJ3VARupMwtV4/cF6jXBASTckwuIG9cECHIJAoQYowgDH28GoM84/gkdJ
wkOFAcIgRFI/I8tKwgHnBcJ8nAlA+mFEwn0xBsKkNrA/KMhJwub+5MGeKuRAApRDwm+768Hr79tA
x3pFwkQb4cHzD7lA6NI3wq457MFgo39A

> <OMEGA_E>
vXbjwA==

> <OMEGA_NBR>
     59939

$$$$
CACHE3HI_1704_37
  -OEChem-03092622513D

 40 42  0     0  0  0  0  0  0999 V2000
  -47.1841  -28.8708    4.7312 C   0  0  0  0  0  0  0  0  0  0  0  0
  -48.0458  -29.1168    3.6623 C   0  0  0  0  0  0  0  0  0  0  0  0
  -47.6278  -29.0552    6.0406 C   0  0  0  0  0  0  0  0  0  0  0  0
  -49.3508  -29.5473    3.9026 C   0  0  0  0  0  0  0  0  0  0  0  0
  -48.9328  -29.4856    6.2809 C   0  0  0  0  0  0  0  0  0  0  0  0
  -54.1303  -26.6794   10.6179 C   0  0  0  0  0  0  0  0  0  0  0  0
  -53.3194  -27.2461   12.8221 C   0  0  0  0  0  0  0  0  0  0  0  0
  -55.1687  -25.9440   11.1896 C   0  0  0  0  0  0  0  0  0  0  0  0
  -54.3577  -26.5108   13.3939 C   0  0  0  0  0  0  0  0  0  0  0  0
  -51.9907  -30.9908    4.6919 C   0  0  0  0  0  0  0  0  0  0  0  0
  -49.7945  -29.7316    5.2121 C   0  0  0  0  0  0  0  0  0  0  0  0
  -51.1376  -30.1756    5.4598 C   0  0  0  0  0  0  0  0  0  0  0  0
  -53.2056  -27.3303   11.4343 C   0  0  0  0  0  0  0  0  0  0  0  0
  -55.2825  -25.8599   12.5774 C   0  0  0  0  0  0  0  0  0  0  0  0
  -51.8773  -29.8585    6.5731 C   0  0  0  0  0  0  0  0  0  0  0  0
  -52.4472  -28.3276    8.4885 C   0  0  0  0  0  0  0  0  0  0  0  0
  -54.2066  -30.4486    7.3168 C   0  0  0  0  0  0  0  0  0  0  0  0
  -51.7058  -27.6289    9.6127 C   0  0  0  0  0  0  0  0  0  0  0  0
  -53.1805  -31.1798    5.2686 N   0  0  0  0  0  0  0  0  0  0  0  0
  -53.0810  -30.4789    6.4108 N   0  0  0  0  0  0  0  0  0  0  0  0
  -51.5779  -29.0962    7.6724 N   0  0  0  0  0  0  0  0  0  0  0  0
  -53.6595  -28.2074    8.3463 O   0  0  0  0  0  0  0  0  0  0  0  0
  -52.1825  -28.0562   10.8710 O   0  0  0  0  0  0  0  0  0  0  0  0
  -56.2798  -25.1535   13.1255 F   0  0  0  0  0  0  0  0  0  0  0  0
  -46.1681  -28.5354    4.5442 H   0  0  0  0  0  0  0  0  0  0  0  0
  -47.7015  -28.9716    2.6426 H   0  0  0  0  0  0  0  0  0  0  0  0
  -46.9570  -28.8638    6.8731 H   0  0  0  0  0  0  0  0  0  0  0  0
  -50.0104  -29.7342    3.0582 H   0  0  0  0  0  0  0  0  0  0  0  0
  -49.2633  -29.6250    7.3077 H   0  0  0  0  0  0  0  0  0  0  0  0
  -54.0467  -26.7410    9.5363 H   0  0  0  0  0  0  0  0  0  0  0  0
  -52.6024  -27.7517   13.4632 H   0  0  0  0  0  0  0  0  0  0  0  0
  -55.8888  -25.4365   10.5547 H   0  0  0  0  0  0  0  0  0  0  0  0
  -54.4471  -26.4456   14.4744 H   0  0  0  0  0  0  0  0  0  0  0  0
  -51.7980  -31.4569    3.7355 H   0  0  0  0  0  0  0  0  0  0  0  0
  -54.8738  -29.6119    7.0840 H   0  0  0  0  0  0  0  0  0  0  0  0
  -53.8545  -30.3437    8.3478 H   0  0  0  0  0  0  0  0  0  0  0  0
  -54.7981  -31.3664    7.2361 H   0  0  0  0  0  0  0  0  0  0  0  0
  -51.8329  -26.5449    9.5300 H   0  0  0  0  0  0  0  0  0  0  0  0
  -50.6400  -27.8697    9.5467 H   0  0  0  0  0  0  0  0  0  0  0  0
  -50.5859  -29.0573    7.9739 H   0  0  0  0  0  0  0  0  0  0  0  0
  1  2  1  0  0  0  0
  1  3  2  0  0  0  0
  2  4  2  0  0  0  0
  3  5  1  0  0  0  0
  4 11  1  0  0  0  0
  5 11  2  0  0  0  0
  6  8  2  0  0  0  0
  6 13  1  0  0  0  0
  7  9  1  0  0  0  0
  7 13  2  0  0  0  0
  8 14  1  0  0  0  0
  9 14  2  0  0  0  0
 10 12  1  0  0  0  0
 10 19  2  0  0  0  0
 11 12  1  0  0  0  0
 12 15  2  0  0  0  0
 13 23  1  0  0  0  0
 14 24  1  0  0  0  0
 15 20  1  0  0  0  0
 15 21  1  0  0  0  0
 16 18  1  0  0  0  0
 16 21  1  0  0  0  0
 16 22  2  0  0  0  0
 17 20  1  0  0  0  0
 18 23  1  0  0  0  0
 19 20  1  0  0  0  0
  1 25  1  0  0  0  0
  2 26  1  0  0  0  0
  3 27  1  0  0  0  0
  4 28  1  0  0  0  0
  5 29  1  0  0  0  0
  6 30  1  0  0  0  0
  7 31  1  0  0  0  0
  8 32  1  0  0  0  0
  9 33  1  0  0  0  0
 10 34  1  0  0  0  0
 17 35  1  0  0  0  0
 17 36  1  0  0  0  0
 17 37  1  0  0  0  0
 18 38  1  0  0  0  0
 18 39  1  0  0  0  0
 21 40  1  0  0  0  0
M  END
> <POSIT::Probability>
0.33

> <POSIT::Method>
HYBRID

> <ReceptorTitle>
UCSF-P4432-REFINED_LIGAND-BOUND-STATE_A__DU__LA1_A-201(A)

> <OMEGA_C>
hrw8wmf35sHYZZdA8S5Awizv6MFSYmpA3II+wvRw6MGtTMFAOWdFws1g7MH8w3lAJLtDwpPi68GC
/chAcoVYwlxv1cG/4ilBGUdVwhX42cFtJ01Bs6xcwmqNz8GHCDNBTG5ZwjMW1MFCTVZBffZPwhPt
98FYJJZAjS1Hwlra7cFSyaZA7IxMwpJn8cGYtq5AjdJUwnyk2sEL8zZBQCFdwgPhzsHpPElBWoJP
wjne7sGoVtJA7slRwuee4sHK0AdBhtNYwq6W88F2I+pAt9JOwvgH3cGPzRlB0rhUwj9w+cFAmKhA
+1JUwsDU88FwJc1AzU9Owv7E6MGehPVAWaNWwteo4cFSigVB2bpQwgBz4MGw7y1Bdx5hwmM6ycHq
AVJBLKw4wnZI5MHQaZFAY84+wunF58GzHylA89M7wgPp5sGu8NtAqQpIwqzf7cEBukNAmw1FwhMA
7cG/2OlA3S9Ywqbt1cGJlBhB1WhSwnUD3sE+aVdBG45fwvB9y8Hg3yhByclZwqSQ08Eel2dBGzFP
wqGn+8FPEm9AwH5bwiLl7MEQsOJACGtXwum/8sGWkAVBOjFbwnzu+sG+jedA5FRPwupb1MHBehhB
Xo9KwjP13sFIvxhB8ldKwmB16MFyKv9A

> <OMEGA_E>
twrMwA==

> <OMEGA_NBR>
     61232

$$$$
CACHE3HI_1704_53
  -OEChem-03092622513D

 43 45  0     0  0  0  0  0  0999 V2000
  -44.9581  -28.8780    3.6325 C   0  0  0  0  0  0  0  0  0  0  0  0
  -46.3836  -28.4619    5.5757 C   0  0  0  0  0  0  0  0  0  0  0  0
  -47.2220  -29.7964    3.7444 C   0  0  0  0  0  0  0  0  0  0  0  0
  -52.5615  -28.5409   11.8473 C   0  0  0  0  0  0  0  0  0  0  0  0
  -47.5939  -28.6267    6.2491 C   0  0  0  0  0  0  0  0  0  0  0  0
  -48.4323  -29.9612    4.4178 C   0  0  0  0  0  0  0  0  0  0  0  0
  -53.4012  -28.4358   12.9564 C   0  0  0  0  0  0  0  0  0  0  0  0
  -53.2588  -26.3478   11.1044 C   0  0  0  0  0  0  0  0  0  0  0  0
  -46.1976  -29.0469    4.3233 C   0  0  0  0  0  0  0  0  0  0  0  0
  -52.4944  -27.5003   10.9197 C   0  0  0  0  0  0  0  0  0  0  0  0
  -48.6183  -29.3761    5.6703 C   0  0  0  0  0  0  0  0  0  0  0  0
  -54.1756  -27.2896   13.1348 C   0  0  0  0  0  0  0  0  0  0  0  0
  -54.0879  -26.2369   12.2206 C   0  0  0  0  0  0  0  0  0  0  0  0
  -52.2720  -28.2409    8.5153 C   0  0  0  0  0  0  0  0  0  0  0  0
  -50.9642  -30.2547    5.9289 C   0  0  0  0  0  0  0  0  0  0  0  0
  -55.9759  -26.2178   14.1314 C   0  0  0  0  0  0  0  0  0  0  0  0
  -55.3287  -24.9239   13.6777 C   0  0  0  0  0  0  0  0  0  0  0  0
  -51.6002  -27.6184    9.7315 C   0  0  0  0  0  0  0  0  0  0  0  0
  -52.0680  -30.1776    6.9676 C   0  0  0  0  0  0  0  0  0  0  0  0
  -43.9514  -28.7407    3.0717 N   0  0  0  0  0  0  0  0  0  0  0  0
  -49.8464  -29.5428    6.3540 N   0  0  0  0  0  0  0  0  0  0  0  0
  -51.6304  -29.4007    8.1040 N   0  0  0  0  0  0  0  0  0  0  0  0
  -53.2610  -27.7523    7.9751 O   0  0  0  0  0  0  0  0  0  0  0  0
  -51.0867  -30.9005    4.8928 O   0  0  0  0  0  0  0  0  0  0  0  0
  -54.9965  -27.2543   14.2320 O   0  0  0  0  0  0  0  0  0  0  0  0
  -54.7978  -25.0728   12.3580 O   0  0  0  0  0  0  0  0  0  0  0  0
  -45.5946  -27.8753    6.0405 H   0  0  0  0  0  0  0  0  0  0  0  0
  -47.0910  -30.2585    2.7688 H   0  0  0  0  0  0  0  0  0  0  0  0
  -51.9658  -29.4396   11.7112 H   0  0  0  0  0  0  0  0  0  0  0  0
  -47.7280  -28.1669    7.2252 H   0  0  0  0  0  0  0  0  0  0  0  0
  -49.2238  -30.5466    3.9567 H   0  0  0  0  0  0  0  0  0  0  0  0
  -53.4540  -29.2541   13.6692 H   0  0  0  0  0  0  0  0  0  0  0  0
  -53.2001  -25.5333   10.3863 H   0  0  0  0  0  0  0  0  0  0  0  0
  -56.4287  -26.0898   15.1195 H   0  0  0  0  0  0  0  0  0  0  0  0
  -56.7603  -26.5428   13.4366 H   0  0  0  0  0  0  0  0  0  0  0  0
  -56.0685  -24.1179   13.6503 H   0  0  0  0  0  0  0  0  0  0  0  0
  -54.5168  -24.6197   14.3499 H   0  0  0  0  0  0  0  0  0  0  0  0
  -51.2175  -26.6281    9.4358 H   0  0  0  0  0  0  0  0  0  0  0  0
  -50.7123  -28.2217    9.9820 H   0  0  0  0  0  0  0  0  0  0  0  0
  -52.3324  -31.1765    7.3251 H   0  0  0  0  0  0  0  0  0  0  0  0
  -52.9466  -29.6913    6.5337 H   0  0  0  0  0  0  0  0  0  0  0  0
  -49.9042  -29.0855    7.2617 H   0  0  0  0  0  0  0  0  0  0  0  0
  -50.7959  -29.7093    8.5951 H   0  0  0  0  0  0  0  0  0  0  0  0
  1  9  1  0  0  0  0
  1 20  3  0  0  0  0
  2  5  1  0  0  0  0
  2  9  2  0  0  0  0
  3  6  2  0  0  0  0
  3  9  1  0  0  0  0
  4  7  2  0  0  0  0
  4 10  1  0  0  0  0
  5 11  2  0  0  0  0
  6 11  1  0  0  0  0
  7 12  1  0  0  0  0
  8 10  2  0  0  0  0
  8 13  1  0  0  0  0
 10 18  1  0  0  0  0
 11 21  1  0  0  0  0
 12 13  2  0  0  0  0
 12 25  1  0  0  0  0
 13 26  1  0  0  0  0
 14 18  1  0  0  0  0
 14 22  1  0  0  0  0
 14 23  2  0  0  0  0
 15 19  1  0  0  0  0
 15 21  1  0  0  0  0
 15 24  2  0  0  0  0
 16 17  1  0  0  0  0
 16 25  1  0  0  0  0
 17 26  1  0  0  0  0
 19 22  1  0  0  0  0
  2 27  1  0  0  0  0
  3 28  1  0  0  0  0
  4 29  1  0  0  0  0
  5 30  1  0  0  0  0
  6 31  1  0  0  0  0
  7 32  1  0  0  0  0
  8 33  1  0  0  0  0
 16 34  1  0  0  0  0
 16 35  1  0  0  0  0
 17 36  1  0  0  0  0
 17 37  1  0  0  0  0
 18 38  1  0  0  0  0
 18 39  1  0  0  0  0
 19 40  1  0  0  0  0
 19 41  1  0  0  0  0
 21 42  1  0  0  0  0
 22 43  1  0  0  0  0
M  END
> <POSIT::Probability>
0.33

> <POSIT::Method>
HYBRID

> <ReceptorTitle>
UCSF-P4432-REFINED_LIGAND-BOUND-STATE_A__DU__LA1_A-201(A)

> <OMEGA_C>
FdUzwg0G58Fye2hAxIg5wuCx48E+bLJASOM8wvte7sFcpG9A9j5SwrFT5MF0jj1BNGA+wnkD5cH1
+MdAr7pBwpuw78F8Xo1A4ZpVwn1848FnTU9B/ghVwlDI0sG2qzFBY8o4whxg6MFmWIpATPpRwqwA
3MH0ti5BGXlCwlgC68G8crVAxrNYwgJR2sH4J1JBClpYwhTl0cGOh0NBiRZRwk7t4cGePghBS9tL
wqkJ8sF2ub1ASedfwie+0cE9GmJBjlBdwh1kx8G011pBpWZOwony3MFitBtBnUVQwqdr8cFp9t5A
NM4vwuLs5cGulkRAuGJHwqBX7MGpU8tAf4VOwpg068EZqgFBTgtVwsUE3sEeNP9AwlhMwjw098HO
kZxAZvxbwtgI2sF6tmNB8jBbwjGVyMGHukVB4mA2woYA38G9S8FAPF08wnwR8sFIMzFA8dxPwmSE
68E8YTtBgOk+wttV4cFuNOdAMuVEwn5f9MFaOn1A7dBVwnoI6sEetVpB9MxUwkhEzMF9LiZBAbdh
wtq30MGQ6XFBlgpjwppX1MFj/FZBLkZgwmbxwMG2Z1pBMxFawhf1xMEtmWVBw95MwkwG1cHu+BZB
btlKwvfF4cFBth9BXVRRwl9p+cGcZ+pAS8lTwsyH7cHHE9FA6p1Hwg6v6MEPYOhA/C5Lwris7cFW
hQlB

> <OMEGA_E>
rNnpwA==

> <OMEGA_NBR>
     62585

$$$$
CACHE3HI_1704_59
  -OEChem-03092622513D

 56 58  0     0  0  0  0  0  0999 V2000
  -52.7060  -31.6684    4.9910 C   0  0  0  0  0  0  0  0  0  0  0  0
  -51.4476  -31.6242    4.3908 C   0  0  0  0  0  0  0  0  0  0  0  0
  -52.9294  -30.9951    6.1919 C   0  0  0  0  0  0  0  0  0  0  0  0
  -52.5652  -30.3044    9.1619 C   0  0  0  0  0  0  0  0  0  0  0  0
  -51.9880  -28.2031    8.1183 C   0  0  0  0  0  0  0  0  0  0  0  0
  -50.4129  -30.9066    4.9912 C   0  0  0  0  0  0  0  0  0  0  0  0
  -52.8122  -29.6393   10.3629 C   0  0  0  0  0  0  0  0  0  0  0  0
  -52.2350  -27.5381    9.3192 C   0  0  0  0  0  0  0  0  0  0  0  0
  -52.1532  -29.5861    8.0395 C   0  0  0  0  0  0  0  0  0  0  0  0
  -51.8947  -30.2775    6.7922 C   0  0  0  0  0  0  0  0  0  0  0  0
  -52.6470  -28.2564   10.4416 C   0  0  0  0  0  0  0  0  0  0  0  0
  -50.6363  -30.2333    6.1922 C   0  0  0  0  0  0  0  0  0  0  0  0
  -47.0833  -29.2216    6.2719 C   0  0  0  0  0  0  0  0  0  0  0  0
  -46.7909  -29.5884    3.8532 C   0  0  0  0  0  0  0  0  0  0  0  0
  -44.7893  -29.6012    5.4317 C   0  0  0  0  0  0  0  0  0  0  0  0
  -45.9494  -29.3403    2.6108 C   0  0  0  0  0  0  0  0  0  0  0  0
  -43.7753  -29.3529    4.3255 C   0  0  0  0  0  0  0  0  0  0  0  0
  -46.1586  -28.9903    5.1146 C   0  0  0  0  0  0  0  0  0  0  0  0
  -54.5685  -27.1549   13.4221 C   0  0  0  0  0  0  0  0  0  0  0  0
  -54.9143  -26.3293   11.1922 C   0  0  0  0  0  0  0  0  0  0  0  0
  -52.9125  -27.5460   11.7256 C   0  0  0  0  0  0  0  0  0  0  0  0
  -49.4986  -29.4718    6.8096 C   0  0  0  0  0  0  0  0  0  0  0  0
  -48.4096  -29.2783    5.8796 N   0  0  0  0  0  0  0  0  0  0  0  0
  -54.3210  -27.4088   11.9951 N   0  0  0  0  0  0  0  0  0  0  0  0
  -46.6682  -29.3245    7.4237 O   0  0  0  0  0  0  0  0  0  0  0  0
  -43.4887  -29.4598    1.7257 O   0  0  0  0  0  0  0  0  0  0  0  0
  -44.4411  -31.4677    2.9183 O   0  0  0  0  0  0  0  0  0  0  0  0
  -44.3163  -30.0305    2.7708 S   0  0  0  0  0  0  0  0  0  0  0  0
  -53.5111  -32.2272    4.5227 H   0  0  0  0  0  0  0  0  0  0  0  0
  -51.2724  -32.1477    3.4555 H   0  0  0  0  0  0  0  0  0  0  0  0
  -53.9160  -31.0415    6.6472 H   0  0  0  0  0  0  0  0  0  0  0  0
  -52.6984  -31.3826    9.1166 H   0  0  0  0  0  0  0  0  0  0  0  0
  -51.6663  -27.6295    7.2521 H   0  0  0  0  0  0  0  0  0  0  0  0
  -49.4363  -30.8790    4.5150 H   0  0  0  0  0  0  0  0  0  0  0  0
  -53.1331  -30.2061   11.2329 H   0  0  0  0  0  0  0  0  0  0  0  0
  -52.1039  -26.4605    9.3709 H   0  0  0  0  0  0  0  0  0  0  0  0
  -47.7874  -29.1556    3.6999 H   0  0  0  0  0  0  0  0  0  0  0  0
  -46.9435  -30.6670    3.9899 H   0  0  0  0  0  0  0  0  0  0  0  0
  -44.8936  -30.6804    5.6038 H   0  0  0  0  0  0  0  0  0  0  0  0
  -44.4057  -29.1776    6.3682 H   0  0  0  0  0  0  0  0  0  0  0  0
  -46.4099  -29.7998    1.7309 H   0  0  0  0  0  0  0  0  0  0  0  0
  -45.8349  -28.2681    2.4218 H   0  0  0  0  0  0  0  0  0  0  0  0
  -43.6112  -28.2808    4.1763 H   0  0  0  0  0  0  0  0  0  0  0  0
  -42.8154  -29.8201    4.5654 H   0  0  0  0  0  0  0  0  0  0  0  0
  -46.0592  -27.9044    4.9949 H   0  0  0  0  0  0  0  0  0  0  0  0
  -54.1334  -27.9494   14.0352 H   0  0  0  0  0  0  0  0  0  0  0  0
  -54.1251  -26.2002   13.7185 H   0  0  0  0  0  0  0  0  0  0  0  0
  -55.6437  -27.1103   13.6167 H   0  0  0  0  0  0  0  0  0  0  0  0
  -54.7394  -26.5021   10.1264 H   0  0  0  0  0  0  0  0  0  0  0  0
  -55.9926  -26.2772   11.3671 H   0  0  0  0  0  0  0  0  0  0  0  0
  -54.4739  -25.3673   11.4688 H   0  0  0  0  0  0  0  0  0  0  0  0
  -52.4649  -28.0811   12.5746 H   0  0  0  0  0  0  0  0  0  0  0  0
  -52.4800  -26.5359   11.7246 H   0  0  0  0  0  0  0  0  0  0  0  0
  -49.8330  -28.4855    7.1479 H   0  0  0  0  0  0  0  0  0  0  0  0
  -49.1023  -29.9985    7.6840 H   0  0  0  0  0  0  0  0  0  0  0  0
  -48.6437  -29.1513    4.8996 H   0  0  0  0  0  0  0  0  0  0  0  0
  1  2  1  0  0  0  0
  1  3  2  0  0  0  0
  2  6  2  0  0  0  0
  3 10  1  0  0  0  0
  4  7  2  0  0  0  0
  4  9  1  0  0  0  0
  5  8  1  0  0  0  0
  5  9  2  0  0  0  0
  6 12  1  0  0  0  0
  7 11  1  0  0  0  0
  8 11  2  0  0  0  0
  9 10  1  0  0  0  0
 10 12  2  0  0  0  0
 11 21  1  0  0  0  0
 12 22  1  0  0  0  0
 13 18  1  0  0  0  0
 13 23  1  0  0  0  0
 13 25  2  0  0  0  0
 14 16  1  0  0  0  0
 14 18  1  0  0  0  0
 15 17  1  0  0  0  0
 15 18  1  0  0  0  0
 16 28  1  0  0  0  0
 17 28  1  0  0  0  0
 19 24  1  0  0  0  0
 20 24  1  0  0  0  0
 21 24  1  0  0  0  0
 22 23  1  0  0  0  0
 26 28  2  0  0  0  0
 27 28  2  0  0  0  0
  1 29  1  0  0  0  0
  2 30  1  0  0  0  0
  3 31  1  0  0  0  0
  4 32  1  0  0  0  0
  5 33  1  0  0  0  0
  6 34  1  0  0  0  0
  7 35  1  0  0  0  0
  8 36  1  0  0  0  0
 14 37  1  0  0  0  0
 14 38  1  0  0  0  0
 15 39  1  0  0  0  0
 15 40  1  0  0  0  0
 16 41  1  0  0  0  0
 16 42  1  0  0  0  0
 17 43  1  0  0  0  0
 17 44  1  0  0  0  0
 18 45  1  0  0  0  0
 19 46  1  0  0  0  0
 19 47  1  0  0  0  0
 19 48  1  0  0  0  0
 20 49  1  0  0  0  0
 20 50  1  0  0  0  0
 20 51  1  0  0  0  0
 21 52  1  0  0  0  0
 21 53  1  0  0  0  0
 22 54  1  0  0  0  0
 22 55  1  0  0  0  0
 23 56  1  0  0  0  0
M  END
> <POSIT::Probability>
0.24

> <POSIT::Method>
FRED

> <ReceptorTitle>
UCSF-P4432-REFINED_LIGAND-BOUND-STATE_A__DU__LA1_A-201(A)

> <OMEGA_C>
/NJSwu5Y/cHftZ9AYMpNwlj+/MGPgYxAtrdTwvD198GuI8ZAv0JSwmdv8sEZlxJBu/NPwgSg4cFy
5AFB06ZJwsdA98Hxt59AtD9Twlwd7cFcziVBrfBQwvVN3MF3GxVB3ZxQwkaw7MHeoQBBKZRPwl44
8sEQWtlAkpZSwhoN4sHtECdBlYtKwsDd8cElJsZAVlU8wsXF6cHCs8hA5Sk7wgq17MEWm3ZANCgz
wjLP7MEg0K1AO8w3wgi56sGMFydA9RkvwqjS6sEZaopAZaI4wjLs58HoqqNALkZawkY92cH7wFZB
M6hbwmKi0sFwEzNBZqZTwj5e3MEynDtBkf5FwlbG68Fk6NlAdqNBwg466sGpJbxAs0hZwixF28HN
6z9BOqw6wpGY6sE5j+1Ab/Qtwpit68Fo5Nw/rMMxwua9+8E+xTpA4EMxwog+8MGxVDFAWgtWwqbo
AMKwuZBA5xZNwjmXAMLoJl1A/qlXwgBV+MGetdRAHstSwpAP+8HM3RFBUqpOwk0J3cFrEehAvL5F
wkoI98GbepBAWIhUwv+l8cEUujNBa2pQwhav08Ep7xVBWCY/wqk+6cGky2xALMY7wvBV9cHUWn9A
FpMzwmdx9cEUUrNAaJ8xwr1r6cGwyMtAt6M5wuVl7sEojd0/7FY3whEl4sEM/hpA13Euwgw/4sER
pIVA/UIrwpCP7sGnF5JApTw4wkg838FH1p9AlohYwmCY38EpkGBBHIBYwvaZ0cEpf1tBHJNewuvh
2ME03llBMfVawkQE1MHEBSJBZPhfwsQ30sGG3zVBPeVZwkrwysEIgDdBE9xRwgim4MG0MUlBkOtR
wnBJ1MHOlztB8lRHwkPi48GAu+RAwGhEwuj878GZ4/VAKZNCwus16cEqyZxA

> <OMEGA_E>
CMHSwA==

> <OMEGA_NBR>
     64194

$$$$
CACHE3HI_1704_62
  -OEChem-03092622513D

 38 40  0     0  0  0  0  0  0999 V2000
  -46.2791  -29.5311    3.7967 C   0  0  0  0  0  0  0  0  0  0  0  0
  -46.8102  -28.7236    4.8025 C   0  0  0  0  0  0  0  0  0  0  0  0
  -47.0400  -30.5715    3.2638 C   0  0  0  0  0  0  0  0  0  0  0  0
  -53.2809  -26.6457   11.5057 C   0  0  0  0  0  0  0  0  0  0  0  0
  -48.1019  -28.9562    5.2751 C   0  0  0  0  0  0  0  0  0  0  0  0
  -48.3317  -30.8041    3.7364 C   0  0  0  0  0  0  0  0  0  0  0  0
  -52.7823  -30.6731    6.2024 C   0  0  0  0  0  0  0  0  0  0  0  0
  -52.2683  -31.4908    5.1961 C   0  0  0  0  0  0  0  0  0  0  0  0
  -52.8739  -27.2338   10.3212 C   0  0  0  0  0  0  0  0  0  0  0  0
  -50.7164  -29.4208    6.2387 C   0  0  0  0  0  0  0  0  0  0  0  0
  -53.5110  -27.4692   12.5894 C   0  0  0  0  0  0  0  0  0  0  0  0
  -48.8628  -29.9967    4.7422 C   0  0  0  0  0  0  0  0  0  0  0  0
  -50.2023  -30.2385    5.2324 C   0  0  0  0  0  0  0  0  0  0  0  0
  -52.0062  -29.6381    6.7238 C   0  0  0  0  0  0  0  0  0  0  0  0
  -50.9785  -31.2735    4.7110 C   0  0  0  0  0  0  0  0  0  0  0  0
  -52.7246  -28.6058   10.2986 C   0  0  0  0  0  0  0  0  0  0  0  0
  -52.5429  -28.7853    7.7727 C   0  0  0  0  0  0  0  0  0  0  0  0
  -51.3729  -33.1167    3.2604 C   0  0  0  0  0  0  0  0  0  0  0  0
  -53.3567  -28.8095   12.5389 N   0  0  0  0  0  0  0  0  0  0  0  0
  -52.9571  -29.3873   11.3748 N   0  0  0  0  0  0  0  0  0  0  0  0
  -52.3079  -29.2112    9.0875 N   0  0  0  0  0  0  0  0  0  0  0  0
  -53.1803  -27.7677    7.4564 O   0  0  0  0  0  0  0  0  0  0  0  0
  -50.5024  -32.0880    3.7264 O   0  0  0  0  0  0  0  0  0  0  0  0
  -45.2733  -29.3504    3.4291 H   0  0  0  0  0  0  0  0  0  0  0  0
  -46.2180  -27.9129    5.2170 H   0  0  0  0  0  0  0  0  0  0  0  0
  -46.6265  -31.2004    2.4809 H   0  0  0  0  0  0  0  0  0  0  0  0
  -53.4139  -25.5726   11.5799 H   0  0  0  0  0  0  0  0  0  0  0  0
  -48.5012  -28.3183    6.0601 H   0  0  0  0  0  0  0  0  0  0  0  0
  -48.9126  -31.6187    3.3104 H   0  0  0  0  0  0  0  0  0  0  0  0
  -53.7884  -30.8506    6.5730 H   0  0  0  0  0  0  0  0  0  0  0  0
  -52.8789  -32.2949    4.7939 H   0  0  0  0  0  0  0  0  0  0  0  0
  -52.6838  -26.6227    9.4448 H   0  0  0  0  0  0  0  0  0  0  0  0
  -50.1156  -28.6116    6.6495 H   0  0  0  0  0  0  0  0  0  0  0  0
  -53.8323  -27.0703   13.5445 H   0  0  0  0  0  0  0  0  0  0  0  0
  -50.8723  -33.6925    2.4777 H   0  0  0  0  0  0  0  0  0  0  0  0
  -51.6204  -33.7780    4.0943 H   0  0  0  0  0  0  0  0  0  0  0  0
  -52.2895  -32.6698    2.8688 H   0  0  0  0  0  0  0  0  0  0  0  0
  -51.7670  -30.0674    9.1847 H   0  0  0  0  0  0  0  0  0  0  0  0
  1  2  1  0  0  0  0
  1  3  2  0  0  0  0
  2  5  2  0  0  0  0
  3  6  1  0  0  0  0
  4  9  2  0  0  0  0
  4 11  1  0  0  0  0
  5 12  1  0  0  0  0
  6 12  2  0  0  0  0
  7  8  2  0  0  0  0
  7 14  1  0  0  0  0
  8 15  1  0  0  0  0
  9 16  1  0  0  0  0
 10 13  1  0  0  0  0
 10 14  2  0  0  0  0
 11 19  2  0  0  0  0
 12 13  1  0  0  0  0
 13 15  2  0  0  0  0
 14 17  1  0  0  0  0
 15 23  1  0  0  0  0
 16 20  2  0  0  0  0
 16 21  1  0  0  0  0
 17 21  1  0  0  0  0
 17 22  2  0  0  0  0
 18 23  1  0  0  0  0
 19 20  1  0  0  0  0
  1 24  1  0  0  0  0
  2 25  1  0  0  0  0
  3 26  1  0  0  0  0
  4 27  1  0  0  0  0
  5 28  1  0  0  0  0
  6 29  1  0  0  0  0
  7 30  1  0  0  0  0
  8 31  1  0  0  0  0
  9 32  1  0  0  0  0
 10 33  1  0  0  0  0
 11 34  1  0  0  0  0
 18 35  1  0  0  0  0
 18 36  1  0  0  0  0
 18 37  1  0  0  0  0
 21 38  1  0  0  0  0
M  END
> <POSIT::Probability>
0.23

> <POSIT::Method>
HYBRID

> <ReceptorTitle>
UCSF-P4432-REFINED_LIGAND-BOUND-STATE_A__DU__LA1_A-201(A)

> <OMEGA_C>
xh05wpo/7MGa/XJAoT07wuPJ5cE+rplA7yg8wmKS9MFS4lBApR9Vwmwq1cFQFzhBWGhAwlam58G/
zahAqFNBwtZu9sFMIW9AHyFTwnJi9cE5esZAtBJRwi/t+8FERqZA6H5Twsze2cF7IyVBlN1KwuRd
68HSo8dARgtWwgTB28FIbklBhHNDwjj578HOv5dAJs9Iwojo8cEtcKdATwZQwtoa7cFuKddA+elL
wjkw+sGpwJZABOZSwsbY5MHpxiRB5itSwlBI5sGqufhA2H1Nwod3BMLuqlBAN21Vwsp55sFpn0hB
BdRTwioZ68EU/zVBRjtRwniw6cFUZhFBnrhUwiwk3sGemu5AdgJKwh9aAML6fG5A4Bc1wrDN6sHM
dVtAP984wrVN38Fi8aZAhoE6wlKa+cGMxx5A2KdVwrqUzMEoRzlBOAFCwsuL4sGJ7MFAeaZDwgXz
/MEU3VNAXidXwhjO9sFQVtJA/INTwvgtAcKFZ5lAPLxSwjj71MHWHRdBXnZIwnrk5MHQyNRAQlRX
wgKQ2MEatlhBOH1LwiDFBsIckh5ASHtOwq4cB8KmBINAfyhRwtqtAsJcmjdAcBFPwgeK8MFf9BJB

> <OMEGA_E>
yVvFwA==

> <OMEGA_NBR>
     65447

$$$$
CACHE3HI_1704_83
  -OEChem-03092622513D

 26 27  0     0  0  0  0  0  0999 V2000
  -50.7176  -29.5145    5.8653 C   0  0  0  0  0  0  0  0  0  0  0  0
  -48.8947  -28.2192    6.7799 C   0  0  0  0  0  0  0  0  0  0  0  0
  -50.1061  -29.4889    4.6119 C   0  0  0  0  0  0  0  0  0  0  0  0
  -48.2832  -28.1936    5.5266 C   0  0  0  0  0  0  0  0  0  0  0  0
  -52.6616  -27.6321   10.9561 C   0  0  0  0  0  0  0  0  0  0  0  0
  -52.7449  -29.6892   11.8150 C   0  0  0  0  0  0  0  0  0  0  0  0
  -52.9198  -28.3639   12.1394 C   0  0  0  0  0  0  0  0  0  0  0  0
  -50.1117  -28.8797    6.9494 C   0  0  0  0  0  0  0  0  0  0  0  0
  -48.8891  -28.8284    4.4424 C   0  0  0  0  0  0  0  0  0  0  0  0
  -52.3474  -28.5620    9.9926 C   0  0  0  0  0  0  0  0  0  0  0  0
  -53.2899  -27.8725   13.4328 C   0  0  0  0  0  0  0  0  0  0  0  0
  -51.9844  -28.4104    8.5590 C   0  0  0  0  0  0  0  0  0  0  0  0
  -50.7227  -28.9054    8.2036 N   0  0  0  0  0  0  0  0  0  0  0  0
  -53.4536  -26.6757   13.7490 O   0  0  0  0  0  0  0  0  0  0  0  0
  -52.7919  -27.8567    7.8204 O   0  0  0  0  0  0  0  0  0  0  0  0
  -52.3962  -29.8183   10.5080 O   0  0  0  0  0  0  0  0  0  0  0  0
  -53.4646  -28.8646   14.3609 O   0  0  0  0  0  0  0  0  0  0  0  0
  -48.3026  -28.8037    3.2385 F   0  0  0  0  0  0  0  0  0  0  0  0
  -51.6656  -30.0327    5.9856 H   0  0  0  0  0  0  0  0  0  0  0  0
  -48.4138  -27.7208    7.6178 H   0  0  0  0  0  0  0  0  0  0  0  0
  -50.5776  -29.9831    3.7675 H   0  0  0  0  0  0  0  0  0  0  0  0
  -47.3355  -27.6799    5.3948 H   0  0  0  0  0  0  0  0  0  0  0  0
  -52.6999  -26.5599   10.8223 H   0  0  0  0  0  0  0  0  0  0  0  0
  -52.8259  -30.6140   12.3681 H   0  0  0  0  0  0  0  0  0  0  0  0
  -50.1810  -29.3405    8.9591 H   0  0  0  0  0  0  0  0  0  0  0  0
  -53.7188  -28.5384   15.2509 H   0  0  0  0  0  0  0  0  0  0  0  0
  1  3  1  0  0  0  0
  1  8  2  0  0  0  0
  2  4  2  0  0  0  0
  2  8  1  0  0  0  0
  3  9  2  0  0  0  0
  4  9  1  0  0  0  0
  5  7  1  0  0  0  0
  5 10  2  0  0  0  0
  6  7  2  0  0  0  0
  6 16  1  0  0  0  0
  7 11  1  0  0  0  0
  8 13  1  0  0  0  0
  9 18  1  0  0  0  0
 10 12  1  0  0  0  0
 10 16  1  0  0  0  0
 11 14  2  0  0  0  0
 11 17  1  0  0  0  0
 12 13  1  0  0  0  0
 12 15  2  0  0  0  0
  1 19  1  0  0  0  0
  2 20  1  0  0  0  0
  3 21  1  0  0  0  0
  4 22  1  0  0  0  0
  5 23  1  0  0  0  0
  6 24  1  0  0  0  0
 13 25  1  0  0  0  0
 17 26  1  0  0  0  0
M  END
> <POSIT::Probability>
0.18

> <POSIT::Method>
HYBRID

> <ReceptorTitle>
UCSF-P4432-REFINED_LIGAND-BOUND-STATE_A__DU__LA1_A-201(A)

> <OMEGA_C>
3t5Kwscd7MGAsLtAMpRDwuXA4cEv9dhArGxIwlPp68FolJNA/iFBwmeM4cGS2bBAeqVSwpsO3cEu
TC9BvfpSwmSD7cFaCj1B461Twjbp4sEuO0JBYnJIwpYJ58FDYd5AfI5DwqCg5sFSKI5As2NRwvt+
5MHi4R9B2ihVwtH63sHc7FZBCvBPwn1I48HM8QhBDORKwio+58H6QQNBgtBVwsVn1cHJ+1tB4CpT
wpLa3sFvQPpAwpVRwtKL7sH0IChBudtVwprq5sFVxmVB1zVBwuJt5sHoQ09AmKlOwvpC8MHiib9A
x6dBwhrE3cEdxfNAdE9Kwnbd78FYH3FAi1c9wm9w3cFyoqxArcxSwqZ61MFIKC1BwE1TwpHp9MGO
40VBWblIwm+56sFyWA9BFuBWwqZO5MGyA3RB

> <OMEGA_E>
MuTZwA==

> <OMEGA_NBR>
     66455

$$$$
CACHE3HI_1704_9
  -OEChem-03092622513D

 41 43  0     1  0  0  0  0  0999 V2000
  -45.2642  -29.3433    4.0907 C   0  0  0  0  0  0  0  0  0  0  0  0
  -56.6746  -26.5958   12.0966 C   0  0  0  0  0  0  0  0  0  0  0  0
  -55.8043  -25.7075   12.7286 C   0  0  0  0  0  0  0  0  0  0  0  0
  -56.1687  -27.7124   11.4313 C   0  0  0  0  0  0  0  0  0  0  0  0
  -46.5748  -28.9250    6.1127 C   0  0  0  0  0  0  0  0  0  0  0  0
  -47.7014  -29.5454    4.0674 C   0  0  0  0  0  0  0  0  0  0  0  0
  -54.4286  -25.9359   12.6955 C   0  0  0  0  0  0  0  0  0  0  0  0
  -54.7929  -27.9407   11.3982 C   0  0  0  0  0  0  0  0  0  0  0  0
  -47.8043  -28.8540    6.7677 C   0  0  0  0  0  0  0  0  0  0  0  0
  -48.9309  -29.4744    4.7222 C   0  0  0  0  0  0  0  0  0  0  0  0
  -46.5235  -29.2709    4.7625 C   0  0  0  0  0  0  0  0  0  0  0  0
  -53.9226  -27.0526   12.0301 C   0  0  0  0  0  0  0  0  0  0  0  0
  -48.9822  -29.1285    6.0725 C   0  0  0  0  0  0  0  0  0  0  0  0
  -52.5552  -28.0603    9.5127 C   0  0  0  0  0  0  0  0  0  0  0  0
  -51.3792  -29.7925    6.4674 C   0  0  0  0  0  0  0  0  0  0  0  0
  -51.9526  -28.7143   11.9198 C   0  0  0  0  0  0  0  0  0  0  0  0
  -52.4597  -27.2957   11.9946 C   0  0  1  0  0  0  0  0  0  0  0  0
  -51.7625  -27.7981   10.7650 C   0  0  2  0  0  0  0  0  0  0  0  0
  -52.4945  -29.4022    7.4197 C   0  0  0  0  0  0  0  0  0  0  0  0
  -44.2416  -29.4019    3.5451 N   0  0  0  0  0  0  0  0  0  0  0  0
  -50.2118  -29.0570    6.7281 N   0  0  0  0  0  0  0  0  0  0  0  0
  -51.9488  -28.9957    8.6814 N   0  0  0  0  0  0  0  0  0  0  0  0
  -53.6105  -27.4763    9.2786 O   0  0  0  0  0  0  0  0  0  0  0  0
  -51.5208  -30.6687    5.6202 O   0  0  0  0  0  0  0  0  0  0  0  0
  -57.7456  -26.4176   12.1228 H   0  0  0  0  0  0  0  0  0  0  0  0
  -56.1980  -24.8380   13.2469 H   0  0  0  0  0  0  0  0  0  0  0  0
  -56.8460  -28.4041   10.9391 H   0  0  0  0  0  0  0  0  0  0  0  0
  -45.6655  -28.7087    6.6686 H   0  0  0  0  0  0  0  0  0  0  0  0
  -47.6766  -29.8167    3.0145 H   0  0  0  0  0  0  0  0  0  0  0  0
  -53.7593  -25.2375   13.1911 H   0  0  0  0  0  0  0  0  0  0  0  0
  -54.4088  -28.8139   10.8773 H   0  0  0  0  0  0  0  0  0  0  0  0
  -47.8329  -28.5841    7.8204 H   0  0  0  0  0  0  0  0  0  0  0  0
  -49.8424  -29.6896    4.1703 H   0  0  0  0  0  0  0  0  0  0  0  0
  -51.0677  -28.9626   12.4946 H   0  0  0  0  0  0  0  0  0  0  0  0
  -52.6718  -29.5225   11.8521 H   0  0  0  0  0  0  0  0  0  0  0  0
  -51.8659  -26.6156   12.6001 H   0  0  0  0  0  0  0  0  0  0  0  0
  -50.7765  -27.4375   10.5514 H   0  0  0  0  0  0  0  0  0  0  0  0
  -53.1627  -30.2488    7.5997 H   0  0  0  0  0  0  0  0  0  0  0  0
  -53.0583  -28.5638    7.0003 H   0  0  0  0  0  0  0  0  0  0  0  0
  -50.2766  -28.3847    7.5016 H   0  0  0  0  0  0  0  0  0  0  0  0
  -51.0542  -29.3932    8.9712 H   0  0  0  0  0  0  0  0  0  0  0  0
  1 11  1  0  0  0  0
  1 20  3  0  0  0  0
  2  3  1  0  0  0  0
  2  4  2  0  0  0  0
  3  7  2  0  0  0  0
  4  8  1  0  0  0  0
  5  9  2  0  0  0  0
  5 11  1  0  0  0  0
  6 10  1  0  0  0  0
  6 11  2  0  0  0  0
  7 12  1  0  0  0  0
  8 12  2  0  0  0  0
  9 13  1  0  0  0  0
 10 13  2  0  0  0  0
 12 17  1  0  0  0  0
 13 21  1  0  0  0  0
 14 18  1  0  0  0  0
 14 22  1  0  0  0  0
 14 23  2  0  0  0  0
 15 19  1  0  0  0  0
 15 21  1  0  0  0  0
 15 24  2  0  0  0  0
 16 17  1  0  0  0  0
 16 18  1  0  0  0  0
 17 18  1  0  0  0  0
 19 22  1  0  0  0  0
  2 25  1  0  0  0  0
  3 26  1  0  0  0  0
  4 27  1  0  0  0  0
  5 28  1  0  0  0  0
  6 29  1  0  0  0  0
  7 30  1  0  0  0  0
  8 31  1  0  0  0  0
  9 32  1  0  0  0  0
 10 33  1  0  0  0  0
 16 34  1  0  0  0  0
 16 35  1  0  0  0  0
 17 36  1  0  0  0  0
 18 37  1  0  0  0  0
 19 38  1  0  0  0  0
 19 39  1  0  0  0  0
 21 40  1  0  0  0  0
 22 41  1  0  0  0  0
M  END
> <POSIT::Probability>
0.23

> <POSIT::Method>
HYBRID

> <ReceptorTitle>
UCSF-P4432-REFINED_LIGAND-BOUND-STATE_A__DU__LA1_A-201(A)

> <OMEGA_C>
jw41wgy/6sFM54JAyrJiwiLE1MHfi0FBozdfwgipzcFqqEtBu6xgwu+y3cGY5jZBm0w6wnBm58F8
m8NANM4+wgZd7MHcJ4JA2bZZwr58z8HbIEtB8CtbwqaG38EKXzZBpDc/wvbU5sGYkNhANrlDwpPL
68GQHJdABxg6wtYq6sFIZphAy7BXwqZr2MFwe0BB0O1DwiUH6cEwUsJAfzhSwml74MEyNBhBRIRN
wvJW7sHI9M5Ads9Pwsy25cFutz5BxdZRwold2sHk6T9B1AxPwo9i3sFyPSxBZfpRwqI368Ewbu1A
a/cwwis368Hs4mJA29hIwqh06MFATNdAl8tPwir358ES5wpBJXFWwmXP28E8dRRBVhVOwmxZ9cGk
2LNAg/tmwk9X08HN9kFBuspgwkq0xsEm81NBVGJjwpI748GRBi9Beqk2wnWr5cHIZNVAzbQ+woWI
7sFI7kBAkQlXwk/mycGzDlNBnqJZwuCC5sFyCS5B5VQ/wjis5MHQQPpAoF5HwjiE7cFYc4VAVUVM
wn6z58Hd6UdB969Swg0u7MFUoj1BpXZPwrzs1MEimklBGhtLwv5/28Fe0ihBlaZUwnb98cFsMPNA
tTtUwpiC5MFsAuBARBtJwtAT48EeDfBAdDdMwlYl68EGig9B

> <OMEGA_E>
9AX6wA==

> <OMEGA_NBR>
     67774

$$$$
CACHE3HI_1707_31
  -OEChem-03092622513D

 37 39  0     0  0  0  0  0  0999 V2000
  -54.3052  -26.8642   11.7478 C   0  0  0  0  0  0  0  0  0  0  0  0
  -53.4139  -27.8167   12.2418 C   0  0  0  0  0  0  0  0  0  0  0  0
  -54.1827  -26.4103   10.4346 C   0  0  0  0  0  0  0  0  0  0  0  0
  -50.2424  -30.0815    3.9181 C   0  0  0  0  0  0  0  0  0  0  0  0
  -48.9026  -30.0365    3.5333 C   0  0  0  0  0  0  0  0  0  0  0  0
  -52.4006  -28.3154   11.4230 C   0  0  0  0  0  0  0  0  0  0  0  0
  -53.1694  -26.9089    9.6157 C   0  0  0  0  0  0  0  0  0  0  0  0
  -50.6065  -29.7523    5.2220 C   0  0  0  0  0  0  0  0  0  0  0  0
  -47.9133  -29.6666    4.4542 C   0  0  0  0  0  0  0  0  0  0  0  0
  -48.2834  -29.3142    5.7645 C   0  0  0  0  0  0  0  0  0  0  0  0
  -52.2782  -27.8614   10.1098 C   0  0  0  0  0  0  0  0  0  0  0  0
  -49.6304  -29.3723    6.1435 C   0  0  0  0  0  0  0  0  0  0  0  0
  -51.2643  -28.5210    7.8833 C   0  0  0  0  0  0  0  0  0  0  0  0
  -47.2296  -28.9366    6.7746 C   0  0  0  0  0  0  0  0  0  0  0  0
  -46.4715  -29.5843    4.0180 C   0  0  0  0  0  0  0  0  0  0  0  0
  -45.8966  -28.5671    6.1224 C   0  0  0  0  0  0  0  0  0  0  0  0
  -45.5199  -29.5770    5.1348 N   0  0  0  0  0  0  0  0  0  0  0  0
  -51.2503  -28.3668    9.2788 N   0  0  0  0  0  0  0  0  0  0  0  0
  -50.0326  -29.0627    7.4464 N   0  0  0  0  0  0  0  0  0  0  0  0
  -52.2017  -28.2305    7.1470 O   0  0  0  0  0  0  0  0  0  0  0  0
  -55.0932  -26.4751   12.3858 H   0  0  0  0  0  0  0  0  0  0  0  0
  -53.5081  -28.1694   13.2648 H   0  0  0  0  0  0  0  0  0  0  0  0
  -54.8760  -25.6682   10.0497 H   0  0  0  0  0  0  0  0  0  0  0  0
  -51.0029  -30.3735    3.1997 H   0  0  0  0  0  0  0  0  0  0  0  0
  -48.6338  -30.2911    2.5113 H   0  0  0  0  0  0  0  0  0  0  0  0
  -51.7115  -29.0567   11.8200 H   0  0  0  0  0  0  0  0  0  0  0  0
  -53.0838  -26.5471    8.5940 H   0  0  0  0  0  0  0  0  0  0  0  0
  -51.6542  -29.7969    5.5092 H   0  0  0  0  0  0  0  0  0  0  0  0
  -47.5624  -28.0806    7.3735 H   0  0  0  0  0  0  0  0  0  0  0  0
  -47.0825  -29.7874    7.4522 H   0  0  0  0  0  0  0  0  0  0  0  0
  -46.2322  -30.4406    3.3769 H   0  0  0  0  0  0  0  0  0  0  0  0
  -46.3335  -28.6779    3.4161 H   0  0  0  0  0  0  0  0  0  0  0  0
  -45.9550  -27.5798    5.6470 H   0  0  0  0  0  0  0  0  0  0  0  0
  -45.1190  -28.5003    6.8911 H   0  0  0  0  0  0  0  0  0  0  0  0
  -45.5140  -30.4962    5.5774 H   0  0  0  0  0  0  0  0  0  0  0  0
  -50.3995  -28.6511    9.7576 H   0  0  0  0  0  0  0  0  0  0  0  0
  -49.3534  -29.2494    8.1899 H   0  0  0  0  0  0  0  0  0  0  0  0
  1  2  1  0  0  0  0
  1  3  2  0  0  0  0
  2  6  2  0  0  0  0
  3  7  1  0  0  0  0
  4  5  1  0  0  0  0
  4  8  2  0  0  0  0
  5  9  2  0  0  0  0
  6 11  1  0  0  0  0
  7 11  2  0  0  0  0
  8 12  1  0  0  0  0
  9 10  1  0  0  0  0
  9 15  1  0  0  0  0
 10 12  2  0  0  0  0
 10 14  1  0  0  0  0
 11 18  1  0  0  0  0
 12 19  1  0  0  0  0
 13 18  1  0  0  0  0
 13 19  1  0  0  0  0
 13 20  2  0  0  0  0
 14 16  1  0  0  0  0
 15 17  1  0  0  0  0
 16 17  1  0  0  0  0
  1 21  1  0  0  0  0
  2 22  1  0  0  0  0
  3 23  1  0  0  0  0
  4 24  1  0  0  0  0
  5 25  1  0  0  0  0
  6 26  1  0  0  0  0
  7 27  1  0  0  0  0
  8 28  1  0  0  0  0
 14 29  1  0  0  0  0
 14 30  1  0  0  0  0
 15 31  1  0  0  0  0
 15 32  1  0  0  0  0
 16 33  1  0  0  0  0
 16 34  1  0  0  0  0
 17 35  1  0  0  0  0
 18 36  1  0  0  0  0
 19 37  1  0  0  0  0
M  END
> <POSIT::Probability>
0.23

> <POSIT::Method>
HYBRID

> <ReceptorTitle>
UCSF-P4432-REFINED_LIGAND-BOUND-STATE_A__DU__LA1_A-201(A)

> <OMEGA_C>
gDhZwt7p1sHr9jtB3KdVwpyI3sGZ3kNBE7tYwjNI08E69CZBQvhIwvim8ME0wnpAQ5xDwsNK8MGI
IWJAQJpRwuuF4sF4xDZBea1UwoBF18Ea2hlBF21KwqIE7sHsGqdARKc/wipV7cEoiY5ANyJBwnOD
6sGidrhA2RxRwi3k3sGYwSFBh4VGwoz66sHKl8RAnw5Nwu4q5MGvQ/xAJ+s8whl+58F/ydhA2+I5
wpes7MFek4BAGpY3woWJ5MH76sNAahQ2wpid7MFCUKRAWQBNwk7v4sHHdRRBbSFIwliA6MGqSO5A
i85QwiTY4cHUs+RAc19cwvbM08FTLEZBUAhWwvNa4cGwPFRBAYFbwnVYzcFtyyBBAANMwvb88sFA
x0xADolCwjJU8sFMuSBAldhOwh506MHcHj1BzVVUwnlg1MHhgAlB3Z1Owgpg7sGCS7BA5D8+wgWl
4MGd8+tAhlQ8wo1M7sG0eO5Ay+04wmqG88GMH1hAfFU5wj1s5cGkoFpA5tE3wn6j3MEhtLRA33k0
wp4A5MErhNxAUA42win488FIerJAEJlJwow15cH2HhxB12lFwsD+6cGzCQNB

> <OMEGA_E>
OeP0wA==

> <OMEGA_NBR>
     69007

$$$$
CACHE3HI_1707_46
  -OEChem-03092622513D

 47 49  0     1  0  0  0  0  0999 V2000
  -44.2590  -29.6495    5.4781 C   0  0  0  0  0  0  0  0  0  0  0  0
  -45.1705  -29.1812    4.5483 C   0  0  0  0  0  0  0  0  0  0  0  0
  -53.6500  -26.9516    9.6298 C   0  0  0  0  0  0  0  0  0  0  0  0
  -44.6488  -29.6873    6.8018 C   0  0  0  0  0  0  0  0  0  0  0  0
  -53.7562  -26.1784   10.7556 C   0  0  0  0  0  0  0  0  0  0  0  0
  -46.4107  -28.7812    5.0037 C   0  0  0  0  0  0  0  0  0  0  0  0
  -52.5037  -27.7295    9.8652 C   0  0  0  0  0  0  0  0  0  0  0  0
  -52.4969  -29.0468    7.7189 C   0  0  0  0  0  0  0  0  0  0  0  0
  -51.2506  -31.1990    4.9274 C   0  0  0  0  0  0  0  0  0  0  0  0
  -50.9176  -28.8196    5.1081 C   0  0  0  0  0  0  0  0  0  0  0  0
  -49.7350  -31.3844    4.9315 C   0  0  0  0  0  0  0  0  0  0  0  0
  -49.4011  -29.0562    5.1157 C   0  0  2  0  0  0  0  0  0  0  0  0
  -54.7047  -25.1476   11.1954 C   0  0  0  0  0  0  0  0  0  0  0  0
  -46.9814  -28.2424    2.6495 C   0  0  0  0  0  0  0  0  0  0  0  0
  -51.6133  -30.0925    7.0638 C   0  0  0  0  0  0  0  0  0  0  0  0
  -48.6644  -27.8932    4.4641 C   0  0  0  0  0  0  0  0  0  0  0  0
  -45.8695  -29.2896    7.2193 N   0  0  0  0  0  0  0  0  0  0  0  0
  -46.7650  -28.8290    6.3056 N   0  0  0  0  0  0  0  0  0  0  0  0
  -51.9415  -27.4599   11.0465 N   0  0  0  0  0  0  0  0  0  0  0  0
  -51.6814  -29.9714    5.6096 N   0  0  2  0  0  0  0  0  0  0  0  0
  -51.9890  -28.6935    8.9655 N   0  0  0  0  0  0  0  0  0  0  0  0
  -47.3295  -28.3083    4.0648 N   0  0  3  0  0  0  0  0  0  0  0  0
  -53.4894  -28.5888    7.1615 O   0  0  0  0  0  0  0  0  0  0  0  0
  -52.7413  -26.4726   11.6090 O   0  0  0  0  0  0  0  0  0  0  0  0
  -49.0920  -30.2393    4.3714 O   0  0  0  0  0  0  0  0  0  0  0  0
  -43.2708  -29.9768    5.1758 H   0  0  0  0  0  0  0  0  0  0  0  0
  -44.9042  -29.1338    3.4975 H   0  0  0  0  0  0  0  0  0  0  0  0
  -54.3047  -26.9496    8.7708 H   0  0  0  0  0  0  0  0  0  0  0  0
  -43.9810  -30.0427    7.5779 H   0  0  0  0  0  0  0  0  0  0  0  0
  -51.6010  -31.1911    3.8752 H   0  0  0  0  0  0  0  0  0  0  0  0
  -51.7250  -32.0837    5.4035 H   0  0  0  0  0  0  0  0  0  0  0  0
  -51.1404  -27.9296    5.7281 H   0  0  0  0  0  0  0  0  0  0  0  0
  -51.2392  -28.5698    4.0801 H   0  0  0  0  0  0  0  0  0  0  0  0
  -49.3822  -31.4885    5.9597 H   0  0  0  0  0  0  0  0  0  0  0  0
  -49.4358  -32.2852    4.3915 H   0  0  0  0  0  0  0  0  0  0  0  0
  -49.0494  -29.1818    6.0997 H   0  0  0  0  0  0  0  0  0  0  0  0
  -55.5559  -25.5710   11.7616 H   0  0  0  0  0  0  0  0  0  0  0  0
  -55.1548  -24.5991   10.3461 H   0  0  0  0  0  0  0  0  0  0  0  0
  -54.2170  -24.3999   11.8471 H   0  0  0  0  0  0  0  0  0  0  0  0
  -47.8184  -27.8491    2.0655 H   0  0  0  0  0  0  0  0  0  0  0  0
  -46.1149  -27.5913    2.5034 H   0  0  0  0  0  0  0  0  0  0  0  0
  -46.7301  -29.2388    2.2757 H   0  0  0  0  0  0  0  0  0  0  0  0
  -51.9426  -31.0998    7.3328 H   0  0  0  0  0  0  0  0  0  0  0  0
  -50.5754  -29.9430    7.3753 H   0  0  0  0  0  0  0  0  0  0  0  0
  -49.2236  -27.5584    3.5882 H   0  0  0  0  0  0  0  0  0  0  0  0
  -48.6029  -27.0619    5.1694 H   0  0  0  0  0  0  0  0  0  0  0  0
  -51.1483  -29.1750    9.2783 H   0  0  0  0  0  0  0  0  0  0  0  0
  1  2  2  0  0  0  0
  1  4  1  0  0  0  0
  2  6  1  0  0  0  0
  3  5  2  0  0  0  0
  3  7  1  0  0  0  0
  4 17  2  0  0  0  0
  5 13  1  0  0  0  0
  5 24  1  0  0  0  0
  6 18  2  0  0  0  0
  6 22  1  0  0  0  0
  7 19  2  0  0  0  0
  7 21  1  0  0  0  0
  8 15  1  0  0  0  0
  8 21  1  0  0  0  0
  8 23  2  0  0  0  0
  9 11  1  0  0  0  0
  9 20  1  0  0  0  0
 10 12  1  0  0  0  0
 10 20  1  0  0  0  0
 11 25  1  0  0  0  0
 12 16  1  0  0  0  0
 12 25  1  0  0  0  0
 14 22  1  0  0  0  0
 15 20  1  0  0  0  0
 16 22  1  0  0  0  0
 17 18  1  0  0  0  0
 19 24  1  0  0  0  0
  1 26  1  0  0  0  0
  2 27  1  0  0  0  0
  3 28  1  0  0  0  0
  4 29  1  0  0  0  0
  9 30  1  0  0  0  0
  9 31  1  0  0  0  0
 10 32  1  0  0  0  0
 10 33  1  0  0  0  0
 11 34  1  0  0  0  0
 11 35  1  0  0  0  0
 12 36  1  0  0  0  0
 13 37  1  0  0  0  0
 13 38  1  0  0  0  0
 13 39  1  0  0  0  0
 14 40  1  0  0  0  0
 14 41  1  0  0  0  0
 14 42  1  0  0  0  0
 15 43  1  0  0  0  0
 15 44  1  0  0  0  0
 16 45  1  0  0  0  0
 16 46  1  0  0  0  0
 21 47  1  0  0  0  0
M  END
> <POSIT::Probability>
0.18

> <POSIT::Method>
HYBRID

> <ReceptorTitle>
UCSF-P4432-REFINED_LIGAND-BOUND-STATE_A__DU__LA1_A-201(A)

> <OMEGA_C>
PAkxwj4y7cFJTK9Aoa40whdz6cERjJFAmJlWwsqc18F+ExpBYpgywoZ/7cFLqNlAWwZXwnRt0cET
FyxBj6Q5wvQ/5sFTHqBAvgNSwhjW3cHW1x1BzPxRwtpf6MHWAPdAmQBNwpiX+cFDrZ1AmatLwnuO
5sGqdaNAo/BGwkAT+8Hmzp1Au5pFwhZz6MHjs6NAotFawjwuycFSIDNB7+w7wmzw4cFwkSlADnRO
wnK98MFrCuJAXqhCwjMl38Ei2o5AYHo3wgZR6sFkBOdAZw87wuKh5sHfx8lAI8RPwtKt28FevjBB
urlOwnDF78EEgrNAvfRPwluM5cG7cg9BdFE9wl134sE4E4JAJvVVwt615MHmKuVAIPdSwuvH08Fw
vjlBQV5Ewh7q8cGL4otATBUtwm7Q78H2n6VA850zwhwS6cHY1l9AEDhZwt2Y18EYVQxBmOwvwmZX
8MFIfvJAcmdOwkaH+cG6AnhAXuZOwrZVAMJF6axAvI9MwuRv38HqTLdA7vRMwuqO5MGKkIJAWodF
wnDo+8H9tb5AN75FwhMkAcLnhoxAnzJEwlR06cEGMcNAQTlewnqRzMFaLzxBip5cwgTLxMGCiSVB
L95YwgAzw8GZjT1BDUY/wu7K3sF8MARAsnU4wuW63ME0OCBAles6wh7p6cEQpRFAO8VPwnrM+MGS
pupAOE1KwjqL78EoAuxA6+REwo533MGSpGVAVWlCwtR+2MF+a6VA2ZdMwoBm6cH2cxRB

> <OMEGA_E>
dQyrwA==

> <OMEGA_NBR>
     70449

$$$$
CACHE3HI_1707_54
  -OEChem-03092622513D

 40 42  0     1  0  0  0  0  0999 V2000
  -57.5566  -27.5002   11.8576 C   0  0  0  0  0  0  0  0  0  0  0  0
  -52.9949  -26.8339    8.8543 C   0  0  0  0  0  0  0  0  0  0  0  0
  -56.2318  -27.1437   11.6051 C   0  0  0  0  0  0  0  0  0  0  0  0
  -58.3042  -26.7857   12.7936 C   0  0  0  0  0  0  0  0  0  0  0  0
  -53.6957  -26.0673    9.7787 C   0  0  0  0  0  0  0  0  0  0  0  0
  -52.3177  -28.2632   10.6307 C   0  0  0  0  0  0  0  0  0  0  0  0
  -52.2901  -27.9543    9.2798 C   0  0  0  0  0  0  0  0  0  0  0  0
  -55.6549  -26.0729   12.2882 C   0  0  0  0  0  0  0  0  0  0  0  0
  -57.7272  -25.7149   13.4766 C   0  0  0  0  0  0  0  0  0  0  0  0
  -56.4026  -25.3584   13.2242 C   0  0  0  0  0  0  0  0  0  0  0  0
  -53.6606  -26.4604   11.1068 C   0  0  0  0  0  0  0  0  0  0  0  0
  -48.5193  -29.0291    6.8680 C   0  0  0  0  0  0  0  0  0  0  0  0
  -51.8542  -28.9679    7.0209 C   0  0  0  0  0  0  0  0  0  0  0  0
  -48.4060  -28.5788    5.4276 C   0  0  0  0  0  0  0  0  0  0  0  0
  -49.7452  -28.3277    4.7576 C   0  0  0  0  0  0  0  0  0  0  0  0
  -50.6502  -29.5407    4.9223 C   0  0  0  0  0  0  0  0  0  0  0  0
  -50.8452  -29.8794    6.3931 C   0  0  1  0  0  0  0  0  0  0  0  0
  -52.9873  -27.5423   11.5579 N   0  0  0  0  0  0  0  0  0  0  0  0
  -49.6501  -29.7396    7.2043 N   0  0  0  0  0  0  0  0  0  0  0  0
  -51.5674  -28.7529    8.3627 N   0  0  0  0  0  0  0  0  0  0  0  0
  -47.5977  -28.8373    7.6611 O   0  0  0  0  0  0  0  0  0  0  0  0
  -52.7809  -28.5075    6.3616 O   0  0  0  0  0  0  0  0  0  0  0  0
  -54.3438  -25.7213   12.0368 O   0  0  0  0  0  0  0  0  0  0  0  0
  -58.4461  -25.0289   14.3749 F   0  0  0  0  0  0  0  0  0  0  0  0
  -55.8540  -24.3291   13.8835 F   0  0  0  0  0  0  0  0  0  0  0  0
  -58.0052  -28.3336   11.3251 H   0  0  0  0  0  0  0  0  0  0  0  0
  -53.0049  -26.5502    7.8052 H   0  0  0  0  0  0  0  0  0  0  0  0
  -55.6540  -27.7044   10.8754 H   0  0  0  0  0  0  0  0  0  0  0  0
  -59.3355  -27.0630   12.9908 H   0  0  0  0  0  0  0  0  0  0  0  0
  -54.2488  -25.1896    9.4626 H   0  0  0  0  0  0  0  0  0  0  0  0
  -51.7874  -29.1252   11.0240 H   0  0  0  0  0  0  0  0  0  0  0  0
  -47.8080  -27.6611    5.3987 H   0  0  0  0  0  0  0  0  0  0  0  0
  -47.8535  -29.3551    4.8854 H   0  0  0  0  0  0  0  0  0  0  0  0
  -50.2182  -27.4389    5.1909 H   0  0  0  0  0  0  0  0  0  0  0  0
  -49.5924  -28.1202    3.6925 H   0  0  0  0  0  0  0  0  0  0  0  0
  -51.6142  -29.3462    4.4379 H   0  0  0  0  0  0  0  0  0  0  0  0
  -50.1984  -30.3988    4.4091 H   0  0  0  0  0  0  0  0  0  0  0  0
  -51.2109  -30.9020    6.5062 H   0  0  0  0  0  0  0  0  0  0  0  0
  -49.6473  -30.2100    8.1047 H   0  0  0  0  0  0  0  0  0  0  0  0
  -50.7453  -29.2172    8.7428 H   0  0  0  0  0  0  0  0  0  0  0  0
  1  3  1  0  0  0  0
  1  4  2  0  0  0  0
  2  5  2  0  0  0  0
  2  7  1  0  0  0  0
  3  8  2  0  0  0  0
  4  9  1  0  0  0  0
  5 11  1  0  0  0  0
  6  7  2  0  0  0  0
  6 18  1  0  0  0  0
  7 20  1  0  0  0  0
  8 10  1  0  0  0  0
  8 23  1  0  0  0  0
  9 10  2  0  0  0  0
  9 24  1  0  0  0  0
 10 25  1  0  0  0  0
 11 18  2  0  0  0  0
 11 23  1  0  0  0  0
 12 14  1  0  0  0  0
 12 19  1  0  0  0  0
 12 21  2  0  0  0  0
 13 17  1  0  0  0  0
 13 20  1  0  0  0  0
 13 22  2  0  0  0  0
 14 15  1  0  0  0  0
 15 16  1  0  0  0  0
 16 17  1  0  0  0  0
 17 19  1  0  0  0  0
  1 26  1  0  0  0  0
  2 27  1  0  0  0  0
  3 28  1  0  0  0  0
  4 29  1  0  0  0  0
  5 30  1  0  0  0  0
  6 31  1  0  0  0  0
 14 32  1  0  0  0  0
 14 33  1  0  0  0  0
 15 34  1  0  0  0  0
 15 35  1  0  0  0  0
 16 36  1  0  0  0  0
 16 37  1  0  0  0  0
 17 38  1  0  0  0  0
 19 39  1  0  0  0  0
 20 40  1  0  0  0  0
M  END
> <POSIT::Probability>
0.18

> <POSIT::Method>
HYBRID

> <ReceptorTitle>
UCSF-P4432-REFINED_LIGAND-BOUND-STATE_A__DU__LA1_A-201(A)

> <OMEGA_C>
6zlmwmQA3MG2uD1Bw/pTwr+r1sEWqw1Bae1gwkwm2cF8rjlBeDdpwjJJ1sGIskxBW8hWwuuJ0MFj
dRxBUEVRwhEb4sFqFypBFylRwnGi38FCehRBpZ5ewk+V0MFEnERBtOhmwjW4zcFQoFdBP5xhwhTe
ysE5llNBcqRWwsyu08GitTFByRNCwqA76MFIxttAuGpPwke+58GAq+BAx59Bwkmh5MEEr61AIvtG
wg6f4sEcPphAyJlKwmFT7MHeg51AcWFLwu8I78GYlMxA9vJTwo5W3MFY7ThBsZlGwrLq7cGkieZA
AkVOwvwF5sGuzQVBDGQ+wt+y5sGwJ/VAoh9TwnQP5MHkkctACGBZwk/FzcG0lkBBxshpwjU7yMGh
/2VBimpfwu6hwsHIIl5BVAVowiSr4sGsMzVBAAVUwthm1MFfxPlAuJ1ewqKi3cGnAS5BlFdtwhqB
2MF82k9BwP5YwkSEycGgZhdBViZPwmoA6cEwYjBBZTs/wvBJ3cFJwqxA/Gk/wljX6sHbVJxAd99I
wumC28ElHKZAkl5GwhT24MF4UmxA+3ROwvzE6sH+Ao5AIMtIwtcw88G1F41A/9dMwlg398FzMtBA
25ZGwgGu8cHwrAFBLvtKwsy86cGh4gtB

> <OMEGA_E>
ih/ZwA==

> <OMEGA_NBR>
     71746

$$$$
CACHE3HI_1707_70
  -OEChem-03092622513D

 33 35  0     0  0  0  0  0  0999 V2000
  -45.1454  -29.4488    1.2816 C   0  0  0  0  0  0  0  0  0  0  0  0
  -44.8239  -30.0236    2.5112 C   0  0  0  0  0  0  0  0  0  0  0  0
  -46.3364  -28.7379    1.1348 C   0  0  0  0  0  0  0  0  0  0  0  0
  -45.6930  -29.8874    3.5938 C   0  0  0  0  0  0  0  0  0  0  0  0
  -47.2055  -28.6017    2.2174 C   0  0  0  0  0  0  0  0  0  0  0  0
  -53.6196  -29.1312    6.9127 C   0  0  0  0  0  0  0  0  0  0  0  0
  -48.5867  -28.5444    6.4741 C   0  0  0  0  0  0  0  0  0  0  0  0
  -54.8357  -28.7425    7.4521 C   0  0  0  0  0  0  0  0  0  0  0  0
  -54.9802  -26.9293    6.0479 C   0  0  0  0  0  0  0  0  0  0  0  0
  -47.4467  -28.4536    5.7130 C   0  0  0  0  0  0  0  0  0  0  0  0
  -46.8841  -29.1765    3.4470 C   0  0  0  0  0  0  0  0  0  0  0  0
  -53.0844  -28.3566    5.8895 C   0  0  0  0  0  0  0  0  0  0  0  0
  -53.7713  -27.2332    5.4432 C   0  0  0  0  0  0  0  0  0  0  0  0
  -49.5115  -29.2055    5.6436 C   0  0  0  0  0  0  0  0  0  0  0  0
  -50.9035  -29.5661    5.9610 C   0  0  0  0  0  0  0  0  0  0  0  0
  -55.5318  -27.6576    7.0443 N   0  0  0  0  0  0  0  0  0  0  0  0
  -49.0032  -29.5123    4.4472 N   0  0  0  0  0  0  0  0  0  0  0  0
  -47.7463  -29.0424    4.5198 N   0  0  0  0  0  0  0  0  0  0  0  0
  -51.8729  -28.7031    5.3194 N   0  0  0  0  0  0  0  0  0  0  0  0
  -53.2887  -26.4620    4.4608 F   0  0  0  0  0  0  0  0  0  0  0  0
  -44.4681  -29.5540    0.4391 H   0  0  0  0  0  0  0  0  0  0  0  0
  -43.8958  -30.5755    2.6274 H   0  0  0  0  0  0  0  0  0  0  0  0
  -46.5875  -28.2890    0.1782 H   0  0  0  0  0  0  0  0  0  0  0  0
  -45.4289  -30.3393    4.5468 H   0  0  0  0  0  0  0  0  0  0  0  0
  -48.1306  -28.0449    2.0885 H   0  0  0  0  0  0  0  0  0  0  0  0
  -53.1098  -30.0139    7.2844 H   0  0  0  0  0  0  0  0  0  0  0  0
  -48.7233  -28.1845    7.4834 H   0  0  0  0  0  0  0  0  0  0  0  0
  -55.2966  -29.3131    8.2517 H   0  0  0  0  0  0  0  0  0  0  0  0
  -55.5543  -26.0629    5.7364 H   0  0  0  0  0  0  0  0  0  0  0  0
  -46.4741  -28.0281    5.9220 H   0  0  0  0  0  0  0  0  0  0  0  0
  -51.1459  -30.5991    5.6502 H   0  0  0  0  0  0  0  0  0  0  0  0
  -51.1143  -29.5210    7.0456 H   0  0  0  0  0  0  0  0  0  0  0  0
  -51.6472  -28.3353    4.4039 H   0  0  0  0  0  0  0  0  0  0  0  0
  1  2  1  0  0  0  0
  1  3  2  0  0  0  0
  2  4  2  0  0  0  0
  3  5  1  0  0  0  0
  4 11  1  0  0  0  0
  5 11  2  0  0  0  0
  6  8  2  0  0  0  0
  6 12  1  0  0  0  0
  7 10  2  0  0  0  0
  7 14  1  0  0  0  0
  8 16  1  0  0  0  0
  9 13  1  0  0  0  0
  9 16  2  0  0  0  0
 10 18  1  0  0  0  0
 11 18  1  0  0  0  0
 12 13  2  0  0  0  0
 12 19  1  0  0  0  0
 13 20  1  0  0  0  0
 14 15  1  0  0  0  0
 14 17  2  0  0  0  0
 15 19  1  0  0  0  0
 17 18  1  0  0  0  0
  1 21  1  0  0  0  0
  2 22  1  0  0  0  0
  3 23  1  0  0  0  0
  4 24  1  0  0  0  0
  5 25  1  0  0  0  0
  6 26  1  0  0  0  0
  7 27  1  0  0  0  0
  8 28  1  0  0  0  0
  9 29  1  0  0  0  0
 10 30  1  0  0  0  0
 15 31  1  0  0  0  0
 15 32  1  0  0  0  0
 19 33  1  0  0  0  0
M  END
> <POSIT::Probability>
0.24

> <POSIT::Method>
FRED

> <ReceptorTitle>
UCSF-P4432-REFINED_LIGAND-BOUND-STATE_A__DU__LA1_A-201(A)

> <OMEGA_C>
2JQ0wgyX68FOC6Q/q0szwj4w8MHKtyBAeFg5wjrn5cE4QJE/rsU2wk8Z78E0AWZAetI8wkvQ5MGG
6Q1AbXpWwskM6cGiNN1AxlhCwgBb5MF5K89AtldbwpTw5cGmd+5Axutbwh9v18F0iMFAbMk9wvKg
48HY0LZAWok7wm1p6cEom1xAbFZUwmna4sH8drxAxRVXwp3d2cFjLq5AyAtGwsWk6cFVmLRAOp1L
wlSH7MFuwL5AiiBewsJC3cG1auFASwNEwjQZ7MGYT45APfw+wsNW6MEbopBA331Pwgqg5cEmOKpA
nSdVwi+y08G4vo5AUt8xwqZu7MEAzeA+RZUvwqma9MH4JihAkFk6wuFP4sEQgzY+Mbc1wui28sGR
f5FAuoVAwvFb4MFcqgVAe3BUwmYc8MFwGelAn+RCwtl54cEGeO9AsC9dwlGB6sEPBwRBozdewteA
0MFKkLdAh+U5woU54MH/gL1AYZVMwg/L9MGxzrRABnVMwu4q7MGAdeFAuJZOwsuu4sGA7IxA

> <OMEGA_E>
XTwKwQ==

> <OMEGA_NBR>
     72895

$$$$
CACHE3HI_1707_86
  -OEChem-03092622513D

 51 54  0     1  0  0  0  0  0999 V2000
  -53.4645  -28.2939   12.8185 C   0  0  0  0  0  0  0  0  0  0  0  0
  -54.0716  -26.2045   11.7933 C   0  0  0  0  0  0  0  0  0  0  0  0
  -53.5031  -27.6429   14.0415 C   0  0  0  0  0  0  0  0  0  0  0  0
  -54.0832  -25.6470   13.0617 C   0  0  0  0  0  0  0  0  0  0  0  0
  -50.8274  -28.8357    3.3297 C   0  0  0  0  0  0  0  0  0  0  0  0
  -53.7555  -27.5535   11.6781 C   0  0  0  0  0  0  0  0  0  0  0  0
  -50.3020  -28.7625    4.6337 C   0  0  0  0  0  0  0  0  0  0  0  0
  -51.2872  -29.2934    5.4303 C   0  0  0  0  0  0  0  0  0  0  0  0
  -51.2973  -29.4754    6.8861 C   0  0  0  0  0  0  0  0  0  0  0  0
  -47.2055  -29.2095    4.1932 C   0  0  0  0  0  0  0  0  0  0  0  0
  -54.1933  -27.7630    7.8055 C   0  0  0  0  0  0  0  0  0  0  0  0
  -47.7975  -29.1770    5.6128 C   0  0  0  0  0  0  0  0  0  0  0  0
  -47.8354  -27.8234    3.9737 C   0  0  0  0  0  0  0  0  0  0  0  0
  -54.2334  -27.2322    9.2377 C   0  0  0  0  0  0  0  0  0  0  0  0
  -52.3723  -28.9096   10.0423 C   0  0  0  0  0  0  0  0  0  0  0  0
  -52.8365  -27.5668    7.1327 C   0  0  0  0  0  0  0  0  0  0  0  0
  -51.4188  -28.2000    9.0825 C   0  0  0  0  0  0  0  0  0  0  0  0
  -53.7279  -28.2194   10.3064 C   0  0  1  0  0  0  0  0  0  0  0  0
  -48.8784  -28.1864    5.0772 C   0  0  0  0  0  0  0  0  0  0  0  0
  -53.5658  -30.2384    4.9518 C   0  0  0  0  0  0  0  0  0  0  0  0
  -53.8061  -26.3340   14.1924 N   0  0  0  0  0  0  0  0  0  0  0  0
  -52.0507  -29.3708    3.2956 N   0  0  0  0  0  0  0  0  0  0  0  0
  -52.3028  -29.6388    4.5881 N   0  0  0  0  0  0  0  0  0  0  0  0
  -51.7968  -28.4334    7.6817 N   0  0  0  0  0  0  0  0  0  0  0  0
  -50.8587  -30.5484    7.2975 O   0  0  0  0  0  0  0  0  0  0  0  0
  -53.2138  -29.3478   12.7621 H   0  0  0  0  0  0  0  0  0  0  0  0
  -54.3032  -25.6008   10.9226 H   0  0  0  0  0  0  0  0  0  0  0  0
  -53.2844  -28.1748   14.9613 H   0  0  0  0  0  0  0  0  0  0  0  0
  -54.3241  -24.5988   13.2056 H   0  0  0  0  0  0  0  0  0  0  0  0
  -50.3716  -28.5208    2.4015 H   0  0  0  0  0  0  0  0  0  0  0  0
  -46.1081  -29.2060    4.1709 H   0  0  0  0  0  0  0  0  0  0  0  0
  -47.5703  -30.0093    3.5412 H   0  0  0  0  0  0  0  0  0  0  0  0
  -54.4898  -28.8136    7.7756 H   0  0  0  0  0  0  0  0  0  0  0  0
  -54.9334  -27.2176    7.2128 H   0  0  0  0  0  0  0  0  0  0  0  0
  -48.1919  -30.1462    5.9449 H   0  0  0  0  0  0  0  0  0  0  0  0
  -47.1320  -28.7851    6.3882 H   0  0  0  0  0  0  0  0  0  0  0  0
  -47.1837  -26.9724    4.1938 H   0  0  0  0  0  0  0  0  0  0  0  0
  -48.2616  -27.6904    2.9709 H   0  0  0  0  0  0  0  0  0  0  0  0
  -53.6930  -26.2695    9.3077 H   0  0  0  0  0  0  0  0  0  0  0  0
  -55.2871  -26.9861    9.4682 H   0  0  0  0  0  0  0  0  0  0  0  0
  -52.5754  -29.9196    9.6337 H   0  0  0  0  0  0  0  0  0  0  0  0
  -51.8512  -29.1041   11.0018 H   0  0  0  0  0  0  0  0  0  0  0  0
  -52.9192  -27.7879    6.0745 H   0  0  0  0  0  0  0  0  0  0  0  0
  -52.5472  -26.5297    7.2469 H   0  0  0  0  0  0  0  0  0  0  0  0
  -51.4682  -27.1245    9.2804 H   0  0  0  0  0  0  0  0  0  0  0  0
  -50.3776  -28.4980    9.2343 H   0  0  0  0  0  0  0  0  0  0  0  0
  -54.5094  -29.0425   10.3878 H   0  0  0  0  0  0  0  0  0  0  0  0
  -49.0293  -27.3152    5.8004 H   0  0  0  0  0  0  0  0  0  0  0  0
  -54.3173  -29.4701    5.1624 H   0  0  0  0  0  0  0  0  0  0  0  0
  -53.4409  -30.8640    5.8411 H   0  0  0  0  0  0  0  0  0  0  0  0
  -53.9544  -30.8563    4.1356 H   0  0  0  0  0  0  0  0  0  0  0  0
  1  3  2  0  0  0  0
  1  6  1  0  0  0  0
  2  4  1  0  0  0  0
  2  6  2  0  0  0  0
  3 21  1  0  0  0  0
  4 21  2  0  0  0  0
  5  7  1  0  0  0  0
  5 22  2  0  0  0  0
  6 18  1  0  0  0  0
  7  8  2  0  0  0  0
  7 19  1  0  0  0  0
  8  9  1  0  0  0  0
  8 23  1  0  0  0  0
  9 24  1  0  0  0  0
  9 25  2  0  0  0  0
 10 12  1  0  0  0  0
 10 13  1  0  0  0  0
 11 14  1  0  0  0  0
 11 16  1  0  0  0  0
 12 19  1  0  0  0  0
 13 19  1  0  0  0  0
 14 18  1  0  0  0  0
 15 17  1  0  0  0  0
 15 18  1  0  0  0  0
 16 24  1  0  0  0  0
 17 24  1  0  0  0  0
 20 23  1  0  0  0  0
 22 23  1  0  0  0  0
  1 26  1  0  0  0  0
  2 27  1  0  0  0  0
  3 28  1  0  0  0  0
  4 29  1  0  0  0  0
  5 30  1  0  0  0  0
 10 31  1  0  0  0  0
 10 32  1  0  0  0  0
 11 33  1  0  0  0  0
 11 34  1  0  0  0  0
 12 35  1  0  0  0  0
 12 36  1  0  0  0  0
 13 37  1  0  0  0  0
 13 38  1  0  0  0  0
 14 39  1  0  0  0  0
 14 40  1  0  0  0  0
 15 41  1  0  0  0  0
 15 42  1  0  0  0  0
 16 43  1  0  0  0  0
 16 44  1  0  0  0  0
 17 45  1  0  0  0  0
 17 46  1  0  0  0  0
 18 47  1  0  0  0  0
 19 48  1  0  0  0  0
 20 49  1  0  0  0  0
 20 50  1  0  0  0  0
 20 51  1  0  0  0  0
M  END
> <POSIT::Probability>
0.23

> <POSIT::Method>
HYBRID

> <ReceptorTitle>
UCSF-P4432-REFINED_LIGAND-BOUND-STATE_A__DU__LA1_A-201(A)

> <OMEGA_C>
qdtVwtJZ4sGBGE1BWUlYws6i0cFjsTxBNQNWwq4k3cEIqmBBO1VYwvgszcGm/FBBRE9LwoGv5sFq
GVVAmgVXwqJt3MF22TpBNjVJwqwZ5sEtR5RAFSZNwsxY6sEmxa1AfDBNwqjN68GgWtxAddI8wiKt
6cFULoZA8sVYwosa3sGMxvlApDA/wn5q6cEtnLNAbVc/wlyW3sFSUH5AAO9Ywnrb2cGXzRNBRn1R
wuFG58EtrSBBnlhTwsqI3MHfPuRA3qxNwo+Z4cHyURFBaelWwk7B4cHZ5iRBhYNDwtZ94cHQeKJA
VENWwjHo8cHNdJ5AeDlXwgKs0sE3FGNB3jNQwmn36sFM61JAEjZRwk0c7cGR0ZJA8i9PwqJ348Fg
0PVAR29LwhRj9MEFhelA8dpUwkPI6sFgMUxBgjZZwnnOzMHrwi5BQSNVwhdm4cGfYW9B6EtZwm3K
xMFSSlNBh3xJwoEq5MHgshlAtW44wtSl6cG/d4VA8kc+wiIT8MHsomJAkPVZwlSC5sFz0fhAzLtb
wr692cE4z+ZAjMRAwlkr8cGVPL5AK4c8wsxH5sEqbMxAELw8woDH18GxM4ZA1gtBwviF3cG0Ij5A
n8VWwuYn0sFe7BRB9SVdwoLj18GhfRdBNk1Swmxb78GLIxpBlmdPwibV6MEvBzBBQ61TwpFN3sE0
YsJAXjBSwtI81MH75udAfN9Nwgz/2MFmfBRBqoJJwtL748HAvxNBqAlawiBX6MGiNCZB+x1EwnGF
2sH6nLlA60RZwsDC68H9MaVAc8NVwmTp9sEX6rpATNFXwq3Z9sE5V4RA

> <OMEGA_E>
cnXBwA==

> <OMEGA_NBR>
     74415

$$$$
CACHE3HI_1708_11
  -OEChem-03092622513D

 34 35  0     1  0  0  0  0  0999 V2000
  -48.1868  -31.4227    2.4854 C   0  0  0  0  0  0  0  0  0  0  0  0
  -46.9881  -31.2067    1.8057 C   0  0  0  0  0  0  0  0  0  0  0  0
  -48.4939  -30.6641    3.6149 C   0  0  0  0  0  0  0  0  0  0  0  0
  -46.4039  -29.4736    3.3846 C   0  0  0  0  0  0  0  0  0  0  0  0
  -46.0968  -30.2322    2.2551 C   0  0  0  0  0  0  0  0  0  0  0  0
  -47.6026  -29.6896    4.0643 C   0  0  0  0  0  0  0  0  0  0  0  0
  -43.2815  -31.4133    2.9305 C   0  0  0  0  0  0  0  0  0  0  0  0
  -44.6848  -28.5552    1.0065 C   0  0  0  0  0  0  0  0  0  0  0  0
  -42.7218  -29.0295    2.2826 C   0  0  0  0  0  0  0  0  0  0  0  0
  -44.7974  -29.9987    1.5173 C   0  0  1  0  0  0  0  0  0  0  0  0
  -43.1879  -28.2686    1.0517 C   0  0  2  0  0  0  0  0  0  0  0  0
  -43.9277  -32.6277    2.3136 C   0  0  0  0  0  0  0  0  0  0  0  0
  -47.9318  -28.8789    5.2720 C   0  0  0  0  0  0  0  0  0  0  0  0
  -43.5919  -30.1985    2.3355 N   0  0  0  0  0  0  0  0  0  0  0  0
  -42.5315  -31.5369    3.9007 O   0  0  0  0  0  0  0  0  0  0  0  0
  -42.9486  -26.8804    1.1717 O   0  0  0  0  0  0  0  0  0  0  0  0
  -43.0857  -33.7444    2.5036 O   0  0  0  0  0  0  0  0  0  0  0  0
  -49.1344  -29.1962    5.8361 F   0  0  0  0  0  0  0  0  0  0  0  0
  -47.9945  -27.5417    5.0054 F   0  0  0  0  0  0  0  0  0  0  0  0
  -47.0193  -29.0091    6.2801 F   0  0  0  0  0  0  0  0  0  0  0  0
  -48.8807  -32.1813    2.1354 H   0  0  0  0  0  0  0  0  0  0  0  0
  -46.7569  -31.8025    0.9266 H   0  0  0  0  0  0  0  0  0  0  0  0
  -49.4301  -30.8391    4.1384 H   0  0  0  0  0  0  0  0  0  0  0  0
  -45.7091  -28.7140    3.7350 H   0  0  0  0  0  0  0  0  0  0  0  0
  -45.0233  -28.5213   -0.0345 H   0  0  0  0  0  0  0  0  0  0  0  0
  -45.2692  -27.8447    1.5965 H   0  0  0  0  0  0  0  0  0  0  0  0
  -41.6995  -29.3921    2.1548 H   0  0  0  0  0  0  0  0  0  0  0  0
  -42.8024  -28.4573    3.2070 H   0  0  0  0  0  0  0  0  0  0  0  0
  -44.7769  -30.7161    0.6594 H   0  0  0  0  0  0  0  0  0  0  0  0
  -42.6868  -28.6257    0.1311 H   0  0  0  0  0  0  0  0  0  0  0  0
  -44.0882  -32.4584    1.2527 H   0  0  0  0  0  0  0  0  0  0  0  0
  -44.8825  -32.8078    2.7993 H   0  0  0  0  0  0  0  0  0  0  0  0
  -43.3480  -26.4604    0.3934 H   0  0  0  0  0  0  0  0  0  0  0  0
  -43.5259  -34.5117    2.0970 H   0  0  0  0  0  0  0  0  0  0  0  0
  1  2  1  0  0  0  0
  1  3  2  0  0  0  0
  2  5  2  0  0  0  0
  3  6  1  0  0  0  0
  4  5  1  0  0  0  0
  4  6  2  0  0  0  0
  5 10  1  0  0  0  0
  6 13  1  0  0  0  0
  7 12  1  0  0  0  0
  7 14  1  0  0  0  0
  7 15  2  0  0  0  0
  8 10  1  0  0  0  0
  8 11  1  0  0  0  0
  9 11  1  0  0  0  0
  9 14  1  0  0  0  0
 10 14  1  0  0  0  0
 11 16  1  0  0  0  0
 12 17  1  0  0  0  0
 13 18  1  0  0  0  0
 13 19  1  0  0  0  0
 13 20  1  0  0  0  0
  1 21  1  0  0  0  0
  2 22  1  0  0  0  0
  3 23  1  0  0  0  0
  4 24  1  0  0  0  0
  8 25  1  0  0  0  0
  8 26  1  0  0  0  0
  9 27  1  0  0  0  0
  9 28  1  0  0  0  0
 10 29  1  0  0  0  0
 11 30  1  0  0  0  0
 12 31  1  0  0  0  0
 12 32  1  0  0  0  0
 16 33  1  0  0  0  0
 17 34  1  0  0  0  0
M  END
> <POSIT::Probability>
0.02

> <POSIT::Method>
FRED

> <ReceptorTitle>
UCSF-P4432-REFINED_LIGAND-BOUND-STATE_A__DU__LA1_A-201(A)

> <OMEGA_C>
VL9AwqZh+8FKER9A0PM7wjyn+cG0IOc/yflBwhZQ9cGCWmdAmJ05wubJ68HLnFhAGmM4wn/b8cHI
UhBAE2k+wleE7cF6DoJAQSAtwmRO+8EcjjtAPb0ywvpw5MHQ1YA/FOMqwlw86MFpFhJAlTAzwj/9
78GsNsI/XMAswi8m4sG0n4Y/ALYvwreCAsLMEhRAKLo/wuYH58Has6hAGV4uwm6W8cF8eBVATiAq
wp1L/MEnpXlAUssrwhUL18Fc+ZU/u1cswkT6BsLdOiBArIlEwsqR6cGdwbpAU/o/wk1V3MFhLKBA
xhM8wr0S6MG49shA3oVDwrG5AMLeqghAHAc7wnBr/sE4OG0/aLhFwna29sEeboRAJdY2wi+25cGZ
Cm9A6Rc0wpAr5MEAUA29rxM1wujB3sEcWcw/S8wmwh4j68HM5wlAoTUrwnWo48GQP01Agxszwqi6
9cHwzig/VL8qwnMB5cFASgY+UlowwnLVAcIIWaA/u4czwjY7A8IjKDNAYWQtwtWu08Gwack+kBou
wv0LCsKoNAZA

> <OMEGA_E>
WnwJwQ==

> <OMEGA_NBR>
     75588

$$$$
CACHE3HI_1708_20
  -OEChem-03092622513D

 38 40  0     1  0  0  0  0  0999 V2000
  -48.6503  -28.9457    6.1337 C   0  0  0  0  0  0  0  0  0  0  0  0
  -49.1791  -29.2201    4.8759 C   0  0  0  0  0  0  0  0  0  0  0  0
  -47.2686  -28.9645    6.3305 C   0  0  0  0  0  0  0  0  0  0  0  0
  -48.3286  -29.5149    3.8100 C   0  0  0  0  0  0  0  0  0  0  0  0
  -45.0053  -29.2837    5.4482 C   0  0  0  0  0  0  0  0  0  0  0  0
  -44.1548  -29.5785    4.3823 C   0  0  0  0  0  0  0  0  0  0  0  0
  -46.0653  -29.8341    2.9278 C   0  0  0  0  0  0  0  0  0  0  0  0
  -46.3980  -29.2596    5.2687 C   0  0  0  0  0  0  0  0  0  0  0  0
  -46.9358  -29.5388    3.9897 C   0  0  0  0  0  0  0  0  0  0  0  0
  -44.6844  -29.8534    3.1247 C   0  0  0  0  0  0  0  0  0  0  0  0
  -45.5754  -34.6799   -0.6836 C   0  0  0  0  0  0  0  0  0  0  0  0
  -43.6626  -31.9536    0.2570 C   0  0  0  0  0  0  0  0  0  0  0  0
  -43.3636  -28.9241    1.2025 C   0  0  0  0  0  0  0  0  0  0  0  0
  -44.1115  -34.2674   -0.9192 C   0  0  0  0  0  0  0  0  0  0  0  0
  -45.9072  -33.3153   -0.0532 C   0  0  0  0  0  0  0  0  0  0  0  0
  -44.5462  -32.7867   -0.6321 C   0  0  0  0  0  0  0  0  0  0  0  0
  -43.7745  -30.1694    1.9859 C   0  0  2  0  0  0  0  0  0  0  0  0
  -42.1690  -28.3859    1.6321 N   0  0  0  0  0  0  0  0  0  0  0  0
  -44.3949  -31.0976    1.0511 N   0  0  0  0  0  0  0  0  0  0  0  0
  -46.2180  -35.6813   -0.9144 O   0  0  0  0  0  0  0  0  0  0  0  0
  -42.4380  -32.0490    0.2279 O   0  0  0  0  0  0  0  0  0  0  0  0
  -44.0164  -28.4635    0.2681 O   0  0  0  0  0  0  0  0  0  0  0  0
  -49.3125  -28.7162    6.9635 H   0  0  0  0  0  0  0  0  0  0  0  0
  -50.2544  -29.2046    4.7242 H   0  0  0  0  0  0  0  0  0  0  0  0
  -46.8786  -28.7479    7.3229 H   0  0  0  0  0  0  0  0  0  0  0  0
  -48.7641  -29.7277    2.8359 H   0  0  0  0  0  0  0  0  0  0  0  0
  -44.5698  -29.0739    6.4231 H   0  0  0  0  0  0  0  0  0  0  0  0
  -43.0802  -29.5918    4.5441 H   0  0  0  0  0  0  0  0  0  0  0  0
  -46.4658  -30.0505    1.9388 H   0  0  0  0  0  0  0  0  0  0  0  0
  -43.4247  -34.6930   -0.1819 H   0  0  0  0  0  0  0  0  0  0  0  0
  -43.7448  -34.4608   -1.9296 H   0  0  0  0  0  0  0  0  0  0  0  0
  -46.8040  -32.8383   -0.4548 H   0  0  0  0  0  0  0  0  0  0  0  0
  -45.9584  -33.3524    1.0387 H   0  0  0  0  0  0  0  0  0  0  0  0
  -44.7360  -32.2662   -1.5942 H   0  0  0  0  0  0  0  0  0  0  0  0
  -42.8510  -30.6596    2.3415 H   0  0  0  0  0  0  0  0  0  0  0  0
  -41.6299  -28.7900    2.3903 H   0  0  0  0  0  0  0  0  0  0  0  0
  -41.7839  -27.5576    1.1916 H   0  0  0  0  0  0  0  0  0  0  0  0
  -45.4026  -31.0743    0.9797 H   0  0  0  0  0  0  0  0  0  0  0  0
  1  2  1  0  0  0  0
  1  3  2  0  0  0  0
  2  4  2  0  0  0  0
  3  8  1  0  0  0  0
  4  9  1  0  0  0  0
  5  6  2  0  0  0  0
  5  8  1  0  0  0  0
  6 10  1  0  0  0  0
  7  9  1  0  0  0  0
  7 10  2  0  0  0  0
  8  9  2  0  0  0  0
 10 17  1  0  0  0  0
 11 14  1  0  0  0  0
 11 15  1  0  0  0  0
 11 20  2  0  0  0  0
 12 16  1  0  0  0  0
 12 19  1  0  0  0  0
 12 21  2  0  0  0  0
 13 17  1  0  0  0  0
 13 18  1  0  0  0  0
 13 22  2  0  0  0  0
 14 16  1  0  0  0  0
 15 16  1  0  0  0  0
 17 19  1  0  0  0  0
  1 23  1  0  0  0  0
  2 24  1  0  0  0  0
  3 25  1  0  0  0  0
  4 26  1  0  0  0  0
  5 27  1  0  0  0  0
  6 28  1  0  0  0  0
  7 29  1  0  0  0  0
 14 30  1  0  0  0  0
 14 31  1  0  0  0  0
 15 32  1  0  0  0  0
 15 33  1  0  0  0  0
 16 34  1  0  0  0  0
 17 35  1  0  0  0  0
 18 36  1  0  0  0  0
 18 37  1  0  0  0  0
 19 38  1  0  0  0  0
M  END
> <POSIT::Probability>
0.05

> <POSIT::Method>
FRED

> <ReceptorTitle>
UCSF-P4432-REFINED_LIGAND-BOUND-STATE_A__DU__LA1_A-201(A)

> <OMEGA_C>
35lCwruQ58FmR8RAWrdEwtPC6cG1B5xACRM9wla358FJk8pAclBBwp4e7MGw13NAawU0wvxE6sHg
V65AhJ4wwsOg7MELPIxA1UI4wkCs7sHwYDtAkZc5wpAT6sFMmahARL47woRP7MGcVn9A37wywrvT
7sFm+0dANU02wj24CsJgAi+/iKYuwv+g/8Fwk4M+T3Qtwqdk58Hw7Jk/KnIwwtYRCcIITmu//KA3
wtNCBcIA/Fm9SC8ywpYlA8KA0CG/HRkvwuta8cH0Mv4/Cq0owjwW48Ee59A/ZZQxwvrH+MEAjIY/
NN84wq25DsKYFWq/jsApwjoyAMLgV2k+xRAwwk+148GgRYk+AEBFwr+65cEP1d5AggRJwu6i6cHA
LJdAroM7wqX75cHKVOpAfA5DwmLS7cHbfjVAe0cywk+X6MEzis1AJFIswgW87MEHaZFA/dw5wlVn
8MG4Kfg/2LItwp/FCsLgRTq+rvouwuPXCcLo/fa/RDc7wm9aA8KQ3ei+YNU3wuFoBcLA9IQ/qvEy
wpcQAcJ4Dcy/ZGcrwvZG9cGS2hVA/IQmwvZR5sFl+xhAvSInwuR13MH8hpg/RZw1whaY+MEwz3o/

> <OMEGA_E>
8R32wA==

> <OMEGA_NBR>
     76840

$$$$
CACHE3HI_1708_59
  -OEChem-03092622513D

 26 27  0     1  0  0  0  0  0999 V2000
  -47.6473  -28.8136    5.7212 C   0  0  0  0  0  0  0  0  0  0  0  0
  -46.2547  -28.7433    5.6825 C   0  0  0  0  0  0  0  0  0  0  0  0
  -48.3602  -29.1495    4.5704 C   0  0  0  0  0  0  0  0  0  0  0  0
  -45.5752  -29.0090    4.4935 C   0  0  0  0  0  0  0  0  0  0  0  0
  -47.6807  -29.4152    3.3814 C   0  0  0  0  0  0  0  0  0  0  0  0
  -46.2882  -29.3448    3.3427 C   0  0  0  0  0  0  0  0  0  0  0  0
  -43.2235  -28.9322    1.5204 C   0  0  0  0  0  0  0  0  0  0  0  0
  -46.3691  -27.7503    0.5950 C   0  0  0  0  0  0  0  0  0  0  0  0
  -45.5513  -29.6331    2.0524 C   0  0  1  0  0  0  0  0  0  0  0  0
  -47.5748  -28.5766    0.2162 C   0  0  0  0  0  0  0  0  0  0  0  0
  -44.0305  -28.0804    0.9816 N   0  0  0  0  0  0  0  0  0  0  0  0
  -45.3380  -28.4432    1.2135 N   0  0  0  0  0  0  0  0  0  0  0  0
  -41.8660  -28.8509    1.4723 N   0  0  0  0  0  0  0  0  0  0  0  0
  -46.3420  -26.5420    0.3549 O   0  0  0  0  0  0  0  0  0  0  0  0
  -43.8837  -30.2941    2.3693 S   0  0  0  0  0  0  0  0  0  0  0  0
  -48.1763  -28.6068    6.6467 H   0  0  0  0  0  0  0  0  0  0  0  0
  -45.6994  -28.4821    6.5786 H   0  0  0  0  0  0  0  0  0  0  0  0
  -49.4445  -29.2041    4.6002 H   0  0  0  0  0  0  0  0  0  0  0  0
  -44.4900  -28.9515    4.4731 H   0  0  0  0  0  0  0  0  0  0  0  0
  -48.2448  -29.6770    2.4902 H   0  0  0  0  0  0  0  0  0  0  0  0
  -46.1492  -30.3659    1.4627 H   0  0  0  0  0  0  0  0  0  0  0  0
  -48.2762  -28.5770    1.0433 H   0  0  0  0  0  0  0  0  0  0  0  0
  -47.2555  -29.5900   -0.0011 H   0  0  0  0  0  0  0  0  0  0  0  0
  -48.0372  -28.1433   -0.6640 H   0  0  0  0  0  0  0  0  0  0  0  0
  -41.4516  -28.0840    0.9900 H   0  0  0  0  0  0  0  0  0  0  0  0
  -41.3301  -29.5603    1.9207 H   0  0  0  0  0  0  0  0  0  0  0  0
  1  2  1  0  0  0  0
  1  3  2  0  0  0  0
  2  4  2  0  0  0  0
  3  5  1  0  0  0  0
  4  6  1  0  0  0  0
  5  6  2  0  0  0  0
  6  9  1  0  0  0  0
  7 11  2  0  0  0  0
  7 13  1  0  0  0  0
  7 15  1  0  0  0  0
  8 10  1  0  0  0  0
  8 12  1  0  0  0  0
  8 14  2  0  0  0  0
  9 12  1  0  0  0  0
  9 15  1  0  0  0  0
 11 12  1  0  0  0  0
  1 16  1  0  0  0  0
  2 17  1  0  0  0  0
  3 18  1  0  0  0  0
  4 19  1  0  0  0  0
  5 20  1  0  0  0  0
  9 21  1  0  0  0  0
 10 22  1  0  0  0  0
 10 23  1  0  0  0  0
 10 24  1  0  0  0  0
 13 25  1  0  0  0  0
 13 26  1  0  0  0  0
M  END
> <POSIT::Probability>
0.02

> <POSIT::Method>
FRED

> <ReceptorTitle>
UCSF-P4432-REFINED_LIGAND-BOUND-STATE_A__DU__LA1_A-201(A)

> <OMEGA_C>
yZY+wlSC5sGwE7dAygQ5wjjy5cEs17VA2HBBwi4y6cFVQJJA90w2wlYS6MELy49ABbk+wkxS68Fo
aFhAFCc5wjbC6sHY7lVA0+Qswj1158GmnMI/8Xk5woQA3sF7Uxg/gTQ2wpsQ7cHiWgNAnkw+wtmc
5MFsbV0+OR8wwpOk4MEHTHs/FFo1wqiL48H8U5s/ynYnwpXO5sGkc7w/M145wutV1MG2tbU+4Ygv
wkFa8sEIohdAjbRAwqza5MEPstRAKMw2wnDb48ELhNJAH8dFwhai6cGLNJNAy/Uxwr2c58GiI49A
uPpAwpdq7cHBXh9Axpg4wnXt8sGWObs/1hpBwpyd5MGci4U/qwU9wji47MEAOpa6DyZAwowl4cE5
+Sm/bs4lwgGs4MHnb30/B1Ilwpd77MHk2vU/

> <OMEGA_E>
AAHTwA==

> <OMEGA_NBR>
     77848

$$$$
CACHE3HI_1708_61
  -OEChem-03092622513D

 36 39  0     1  0  0  0  0  0999 V2000
  -47.8802  -27.8472    5.5910 C   0  0  0  0  0  0  0  0  0  0  0  0
  -48.1258  -28.0841    4.2282 C   0  0  0  0  0  0  0  0  0  0  0  0
  -53.1461  -25.9026   10.0972 C   0  0  0  0  0  0  0  0  0  0  0  0
  -53.6234  -26.3491   11.3293 C   0  0  0  0  0  0  0  0  0  0  0  0
  -48.6403  -28.4881    6.5731 C   0  0  0  0  0  0  0  0  0  0  0  0
  -52.3988  -26.7566    9.2892 C   0  0  0  0  0  0  0  0  0  0  0  0
  -49.1309  -28.9670    3.8301 C   0  0  0  0  0  0  0  0  0  0  0  0
  -52.3406  -29.8247   11.3954 C   0  0  0  0  0  0  0  0  0  0  0  0
  -52.8423  -30.2101   12.6299 C   0  0  0  0  0  0  0  0  0  0  0  0
  -53.8069  -28.1560   12.9853 C   0  0  0  0  0  0  0  0  0  0  0  0
  -53.3542  -27.6579   11.7622 C   0  0  0  0  0  0  0  0  0  0  0  0
  -52.5979  -28.5244   10.9465 C   0  0  0  0  0  0  0  0  0  0  0  0
  -49.6312  -29.3650    6.1660 C   0  0  0  0  0  0  0  0  0  0  0  0
  -52.1251  -28.0587    9.7087 C   0  0  0  0  0  0  0  0  0  0  0  0
  -49.8619  -29.5979    4.8181 C   0  0  0  0  0  0  0  0  0  0  0  0
  -51.6700  -29.2621    7.5489 C   0  0  0  0  0  0  0  0  0  0  0  0
  -51.1594  -31.0597    5.8838 C   0  0  0  0  0  0  0  0  0  0  0  0
  -50.6021  -30.1368    6.9759 C   0  0  1  0  0  0  0  0  0  0  0  0
  -53.5693  -29.4083   13.4369 N   0  0  0  0  0  0  0  0  0  0  0  0
  -51.3603  -28.8805    8.8479 N   0  0  0  0  0  0  0  0  0  0  0  0
  -52.6581  -28.9613    6.8866 O   0  0  0  0  0  0  0  0  0  0  0  0
  -50.8835  -30.4817    4.5829 O   0  0  0  0  0  0  0  0  0  0  0  0
  -47.0955  -27.1544    5.8826 H   0  0  0  0  0  0  0  0  0  0  0  0
  -47.5276  -27.5733    3.4785 H   0  0  0  0  0  0  0  0  0  0  0  0
  -53.3571  -24.8893    9.7679 H   0  0  0  0  0  0  0  0  0  0  0  0
  -54.2045  -25.6697   11.9487 H   0  0  0  0  0  0  0  0  0  0  0  0
  -48.4581  -28.2952    7.6248 H   0  0  0  0  0  0  0  0  0  0  0  0
  -52.0327  -26.3940    8.3316 H   0  0  0  0  0  0  0  0  0  0  0  0
  -49.3243  -29.1501    2.7791 H   0  0  0  0  0  0  0  0  0  0  0  0
  -51.7653  -30.5389   10.8146 H   0  0  0  0  0  0  0  0  0  0  0  0
  -52.6637  -31.2099   13.0122 H   0  0  0  0  0  0  0  0  0  0  0  0
  -54.3946  -27.5408   13.6613 H   0  0  0  0  0  0  0  0  0  0  0  0
  -50.6651  -32.0393    5.9143 H   0  0  0  0  0  0  0  0  0  0  0  0
  -52.2389  -31.2243    5.9720 H   0  0  0  0  0  0  0  0  0  0  0  0
  -50.1330  -30.7086    7.7817 H   0  0  0  0  0  0  0  0  0  0  0  0
  -50.4853  -29.2244    9.2376 H   0  0  0  0  0  0  0  0  0  0  0  0
  1  2  1  0  0  0  0
  1  5  2  0  0  0  0
  2  7  2  0  0  0  0
  3  4  1  0  0  0  0
  3  6  2  0  0  0  0
  4 11  2  0  0  0  0
  5 13  1  0  0  0  0
  6 14  1  0  0  0  0
  7 15  1  0  0  0  0
  8  9  2  0  0  0  0
  8 12  1  0  0  0  0
  9 19  1  0  0  0  0
 10 11  1  0  0  0  0
 10 19  2  0  0  0  0
 11 12  1  0  0  0  0
 12 14  2  0  0  0  0
 13 15  2  0  0  0  0
 13 18  1  0  0  0  0
 14 20  1  0  0  0  0
 15 22  1  0  0  0  0
 16 18  1  0  0  0  0
 16 20  1  0  0  0  0
 16 21  2  0  0  0  0
 17 18  1  0  0  0  0
 17 22  1  0  0  0  0
  1 23  1  0  0  0  0
  2 24  1  0  0  0  0
  3 25  1  0  0  0  0
  4 26  1  0  0  0  0
  5 27  1  0  0  0  0
  6 28  1  0  0  0  0
  7 29  1  0  0  0  0
  8 30  1  0  0  0  0
  9 31  1  0  0  0  0
 10 32  1  0  0  0  0
 17 33  1  0  0  0  0
 17 34  1  0  0  0  0
 18 35  1  0  0  0  0
 20 36  1  0  0  0  0
M  END
> <POSIT::Probability>
0.23

> <POSIT::Method>
HYBRID

> <ReceptorTitle>
UCSF-P4432-REFINED_LIGAND-BOUND-STATE_A__DU__LA1_A-201(A)

> <OMEGA_C>
UoU/wvnG3sGe6bJA0IBAwk+s4MGMTYdAnZVUwnM4z8FNjiFBU35WwgfL0sGvRDVBqo9CwrLn48G5
VtJAVZhRwoEN1sGAoBRBEoZEwli858G6H3VAulxRwv2Y7sGBUzZBgF5TwjOu8cELFEpBQjpXwnA/
4cH7w09BtGpVwmVD3cHGMTxBOGRSwvQx5MHjJC9BWoZGwnbr6sHRT8VAJ4BQwkh44MEAVxtBonJH
wnXI7MGwLZpAFK5OwrwY6sGokPFARqNMwkF6+MFnSLxAgGhKwhQY8cHyOt9A90ZWwkxE68Gx/VZB
/XBNwjAL58H0kA1B2aFSwrqw58GuXtxAq4hLwnTa88HappJAvmE8wiM82cFiPrxAPRw+wjaW3MGO
n15Ao21VwlYdx8FOSRxBZtFYwolbzcHKLT9BGdVBwpJc4sEI/vNAiCFQwu4m08E7TgVBG0xFwlIz
6cE23DFAsw9PwphP9MGgCC1BnKdSwt2t+cERMlBBHJRZwp9T3MGzlFpBG6lKwjooAMIeQr1Ap/RQ
wlDL+cFbGr9AM4hIwk6r9cHJA/lA8vBJwnvL6cFjzRNB

> <OMEGA_E>
iI/AwA==

> <OMEGA_NBR>
     79068

$$$$
CACHE3HI_1708_73
  -OEChem-03092622513D

 34 37  0     1  0  0  0  0  0999 V2000
  -49.7374  -29.5025    6.1825 C   0  0  0  0  0  0  0  0  0  0  0  0
  -48.9050  -29.5184    3.8834 C   0  0  0  0  0  0  0  0  0  0  0  0
  -47.8462  -29.4667    2.9768 C   0  0  0  0  0  0  0  0  0  0  0  0
  -47.3429  -29.3286    5.7168 C   0  0  0  0  0  0  0  0  0  0  0  0
  -48.6532  -29.4494    5.2536 C   0  0  0  0  0  0  0  0  0  0  0  0
  -46.5359  -29.3459    3.4401 C   0  0  0  0  0  0  0  0  0  0  0  0
  -46.2841  -29.2770    4.8103 C   0  0  0  0  0  0  0  0  0  0  0  0
  -42.8134  -27.9417    1.7874 C   0  0  0  0  0  0  0  0  0  0  0  0
  -42.2896  -30.2063    1.3108 C   0  0  0  0  0  0  0  0  0  0  0  0
  -45.3636  -28.2669    1.5274 C   0  0  0  0  0  0  0  0  0  0  0  0
  -42.2174  -29.1955    2.4569 C   0  0  2  0  0  0  0  0  0  0  0  0
  -43.9734  -28.5190    0.9406 C   0  0  2  0  0  0  0  0  0  0  0  0
  -43.7860  -30.0362    1.1207 C   0  0  2  0  0  0  0  0  0  0  0  0
  -44.3913  -30.2378    2.5350 C   0  0  1  0  0  0  0  0  0  0  0  0
  -43.2515  -29.7484    3.4568 C   0  0  1  0  0  0  0  0  0  0  0  0
  -50.6182  -29.5456    6.9370 N   0  0  0  0  0  0  0  0  0  0  0  0
  -45.5094  -29.2952    2.5576 N   0  0  3  0  0  0  0  0  0  0  0  0
  -42.6900  -30.8462    4.1657 O   0  0  0  0  0  0  0  0  0  0  0  0
  -45.0290  -29.1604    5.2672 F   0  0  0  0  0  0  0  0  0  0  0  0
  -49.9206  -29.6127    3.5063 H   0  0  0  0  0  0  0  0  0  0  0  0
  -48.0533  -29.5208    1.9110 H   0  0  0  0  0  0  0  0  0  0  0  0
  -47.1309  -29.2734    6.7821 H   0  0  0  0  0  0  0  0  0  0  0  0
  -43.1363  -27.1864    2.5104 H   0  0  0  0  0  0  0  0  0  0  0  0
  -42.0681  -27.4828    1.1267 H   0  0  0  0  0  0  0  0  0  0  0  0
  -41.7078  -29.9052    0.4336 H   0  0  0  0  0  0  0  0  0  0  0  0
  -42.0098  -31.2213    1.6086 H   0  0  0  0  0  0  0  0  0  0  0  0
  -45.4579  -27.2570    1.9396 H   0  0  0  0  0  0  0  0  0  0  0  0
  -46.1335  -28.4109    0.7608 H   0  0  0  0  0  0  0  0  0  0  0  0
  -41.2163  -29.0590    2.8715 H   0  0  0  0  0  0  0  0  0  0  0  0
  -43.8978  -28.1915   -0.1009 H   0  0  0  0  0  0  0  0  0  0  0  0
  -44.2536  -30.6420    0.3411 H   0  0  0  0  0  0  0  0  0  0  0  0
  -44.6942  -31.2750    2.7151 H   0  0  0  0  0  0  0  0  0  0  0  0
  -43.5648  -28.9997    4.1922 H   0  0  0  0  0  0  0  0  0  0  0  0
  -43.3727  -31.1600    4.7799 H   0  0  0  0  0  0  0  0  0  0  0  0
  1  5  1  0  0  0  0
  1 16  3  0  0  0  0
  2  3  1  0  0  0  0
  2  5  2  0  0  0  0
  3  6  2  0  0  0  0
  4  5  1  0  0  0  0
  4  7  2  0  0  0  0
  6  7  1  0  0  0  0
  6 17  1  0  0  0  0
  7 19  1  0  0  0  0
  8 11  1  0  0  0  0
  8 12  1  0  0  0  0
  9 11  1  0  0  0  0
  9 13  1  0  0  0  0
 10 12  1  0  0  0  0
 10 17  1  0  0  0  0
 11 15  1  0  0  0  0
 12 13  1  0  0  0  0
 13 14  1  0  0  0  0
 14 15  1  0  0  0  0
 14 17  1  0  0  0  0
 15 18  1  0  0  0  0
  2 20  1  0  0  0  0
  3 21  1  0  0  0  0
  4 22  1  0  0  0  0
  8 23  1  0  0  0  0
  8 24  1  0  0  0  0
  9 25  1  0  0  0  0
  9 26  1  0  0  0  0
 10 27  1  0  0  0  0
 10 28  1  0  0  0  0
 11 29  1  0  0  0  0
 12 30  1  0  0  0  0
 13 31  1  0  0  0  0
 14 32  1  0  0  0  0
 15 33  1  0  0  0  0
 18 34  1  0  0  0  0
M  END
> <POSIT::Probability>
0.05

> <POSIT::Method>
FRED

> <ReceptorTitle>
UCSF-P4432-REFINED_LIGAND-BOUND-STATE_A__DU__LA1_A-201(A)

> <OMEGA_C>
H/NGwjgF7ME418VAtp5Dwpwl7MH5iXhAgWI/wty768HAgz5AI189wv2g6sFW8LZA1pxCwmuY68Eh
HahAzSQ6wmvE6sEmKlxA8SI5wjw36sGz7ZlA6UArwqKI38Hox+Q/gigpwoWm8cFkyKc/WXQ1wqQi
4sE0gsM/kd4owlSQ6cHYPR1AxuQvwtom5MEQy3A/4yQvwhdK8MHEcY8/ppAxwgTn8cGZPSJAkQEt
wsD87cF+O11AA3lKwkxd7MEm/N1AqAk2wp1c6sFMryNAlsIqwgbF9sGOTYVAvR00wolI6cHgjKhA
r65Hwtbm7MEAaGBAjDZAwpEq7MHcmvQ/C4Y8wtYv6sG6BtlAmosswtR92cH0qSBAvEUowrfc28Hg
NpA/w9QmwtQ978Gw+90+EAoowijF+cEI580/8NQ1wlcO2sGuRfg/qog4wnJJ48EYxkI/gt0kwuV4
6MH4xTdAXZcvwi+I4cEApM69pgMxwsci9cGwnq4+6MYywhkz+sH/wy1AVEIuwlb/58GoJoZAqH0t
wrlH+cH89JhA

> <OMEGA_E>
aC8MwQ==

> <OMEGA_NBR>
     80257

$$$$
CACHE3HI_1708_75
  -OEChem-03092622513D

 39 40  0     1  0  0  0  0  0999 V2000
  -52.3131  -28.3336   11.2374 C   0  0  0  0  0  0  0  0  0  0  0  0
  -52.8017  -26.8225    9.7171 C   0  0  0  0  0  0  0  0  0  0  0  0
  -52.1040  -27.9935    9.8875 C   0  0  0  0  0  0  0  0  0  0  0  0
  -48.6274  -28.9887    5.2186 C   0  0  0  0  0  0  0  0  0  0  0  0
  -51.5787  -28.7058    7.5344 C   0  0  0  0  0  0  0  0  0  0  0  0
  -49.3356  -28.6736    6.5213 C   0  0  0  0  0  0  0  0  0  0  0  0
  -51.2017  -30.2083    5.6105 C   0  0  0  0  0  0  0  0  0  0  0  0
  -50.8893  -29.4467    4.3343 C   0  0  0  0  0  0  0  0  0  0  0  0
  -50.5545  -29.5503    6.8338 C   0  0  2  0  0  0  0  0  0  0  0  0
  -54.6536  -26.1764   13.5926 C   0  0  0  0  0  0  0  0  0  0  0  0
  -56.2794  -26.7688   11.7846 C   0  0  0  0  0  0  0  0  0  0  0  0
  -54.1958  -25.4072   11.2446 C   0  0  0  0  0  0  0  0  0  0  0  0
  -55.2935  -25.7091   12.2831 C   0  0  0  0  0  0  0  0  0  0  0  0
  -53.0829  -27.4504   11.8787 N   0  0  0  0  0  0  0  0  0  0  0  0
  -53.3641  -26.5434   10.9279 N   0  0  0  0  0  0  0  0  0  0  0  0
  -49.4577  -29.3335    4.1748 N   0  0  0  0  0  0  0  0  0  0  0  0
  -51.3523  -28.6789    8.9044 N   0  0  0  0  0  0  0  0  0  0  0  0
  -47.4083  -28.8810    5.1052 O   0  0  0  0  0  0  0  0  0  0  0  0
  -52.4650  -28.1398    6.9022 O   0  0  0  0  0  0  0  0  0  0  0  0
  -51.9376  -29.1876   11.7833 H   0  0  0  0  0  0  0  0  0  0  0  0
  -52.9428  -26.1792    8.8589 H   0  0  0  0  0  0  0  0  0  0  0  0
  -48.5943  -28.8235    7.3101 H   0  0  0  0  0  0  0  0  0  0  0  0
  -49.6085  -27.6178    6.5134 H   0  0  0  0  0  0  0  0  0  0  0  0
  -52.2893  -30.2768    5.7395 H   0  0  0  0  0  0  0  0  0  0  0  0
  -50.8290  -31.2374    5.5202 H   0  0  0  0  0  0  0  0  0  0  0  0
  -51.2861  -29.9613    3.4710 H   0  0  0  0  0  0  0  0  0  0  0  0
  -51.2887  -28.4425    4.3742 H   0  0  0  0  0  0  0  0  0  0  0  0
  -50.2780  -30.3101    7.5553 H   0  0  0  0  0  0  0  0  0  0  0  0
  -54.0741  -27.0927   13.4378 H   0  0  0  0  0  0  0  0  0  0  0  0
  -53.9802  -25.4145   14.0011 H   0  0  0  0  0  0  0  0  0  0  0  0
  -55.4200  -26.3910   14.3451 H   0  0  0  0  0  0  0  0  0  0  0  0
  -55.7700  -27.7099   11.5545 H   0  0  0  0  0  0  0  0  0  0  0  0
  -56.7760  -26.4345   10.8669 H   0  0  0  0  0  0  0  0  0  0  0  0
  -57.0537  -26.9735   12.5316 H   0  0  0  0  0  0  0  0  0  0  0  0
  -53.5716  -24.5730   11.5918 H   0  0  0  0  0  0  0  0  0  0  0  0
  -54.6555  -25.0602   10.3088 H   0  0  0  0  0  0  0  0  0  0  0  0
  -55.8585  -24.7927   12.4965 H   0  0  0  0  0  0  0  0  0  0  0  0
  -49.0583  -29.5094    3.2859 H   0  0  0  0  0  0  0  0  0  0  0  0
  -50.5573  -29.2090    9.2549 H   0  0  0  0  0  0  0  0  0  0  0  0
  1  3  1  0  0  0  0
  1 14  2  0  0  0  0
  2  3  2  0  0  0  0
  2 15  1  0  0  0  0
  3 17  1  0  0  0  0
  4  6  1  0  0  0  0
  4 16  1  0  0  0  0
  4 18  2  0  0  0  0
  5  9  1  0  0  0  0
  5 17  1  0  0  0  0
  5 19  2  0  0  0  0
  6  9  1  0  0  0  0
  7  8  1  0  0  0  0
  7  9  1  0  0  0  0
  8 16  1  0  0  0  0
 10 13  1  0  0  0  0
 11 13  1  0  0  0  0
 12 13  1  0  0  0  0
 12 15  1  0  0  0  0
 14 15  1  0  0  0  0
  1 20  1  0  0  0  0
  2 21  1  0  0  0  0
  6 22  1  0  0  0  0
  6 23  1  0  0  0  0
  7 24  1  0  0  0  0
  7 25  1  0  0  0  0
  8 26  1  0  0  0  0
  8 27  1  0  0  0  0
  9 28  1  0  0  0  0
 10 29  1  0  0  0  0
 10 30  1  0  0  0  0
 10 31  1  0  0  0  0
 11 32  1  0  0  0  0
 11 33  1  0  0  0  0
 11 34  1  0  0  0  0
 12 35  1  0  0  0  0
 12 36  1  0  0  0  0
 13 37  1  0  0  0  0
 16 38  1  0  0  0  0
 17 39  1  0  0  0  0
M  END
> <POSIT::Probability>
0.33

> <POSIT::Method>
HYBRID

> <ReceptorTitle>
UCSF-P4432-REFINED_LIGAND-BOUND-STATE_A__DU__LA1_A-201(A)

> <OMEGA_C>
qkBRwk6r4sF5zDNB9TRTwoKU1sFKeRtBcmpQwqjy38EAMx5BfYJCwsTo58G3/qZAo1BOwnel5cHM
GfFApFdFwqBj5cGartBAlc5MwoSq8cGKibNAqo5LwtuS68GfsopA0zdKwhtn7MFXrtpARZ1awkxp
0cFMe1lBHR5hwmsm1sGQjTxBeshYwt1By8EW6jNBgyxdwjmszcGMh0RB6VRUwoGa28EpDz5B2nRV
wtVY1MGb2C5BpNRFwgSr6sEhmIVAwmhNwnpu5cFfeA5BH6I9wjkM58GZXaNAMNxRwmMe4cEZ39xA
J8BPwiuA6cGMiDxBZsVTwulu0cFAvg1Bm2BCwpGW5sHx6+lAJm9Gwkfx3MEibtBASihRwuM28sHZ
qbdA6lBLwiXm+cFEpbBA9yRNwtCw78GWJV5AmidNwjqK48GN+YtApBxJwiR78sHcxPFA5ktYwtS9
2MFoAVdBsutXwulQy8FrBGBBDK5dwtMg08G8hWVBhxRfwuat3cFM3zhBoBpjwtJ508Hv3i1B9jZk
wsbJ18GFgUhBWElWwn6VxMEOeDlBQZ9awmJ7yMHc8CRBFm9fwmlXxsGc8UdBtDtEwk8T7MHaS1JA
pjpKwvmr6cEiFBRB

> <OMEGA_E>
XlzewA==

> <OMEGA_NBR>
     81530

$$$$
CACHE3HI_1709_28
  -OEChem-03092622513D

 42 44  0     0  0  0  0  0  0999 V2000
  -53.3973  -27.4328   11.8232 C   0  0  0  0  0  0  0  0  0  0  0  0
  -54.4597  -26.7376    9.7677 C   0  0  0  0  0  0  0  0  0  0  0  0
  -52.3846  -28.0512   11.0899 C   0  0  0  0  0  0  0  0  0  0  0  0
  -53.4471  -27.3559    9.0343 C   0  0  0  0  0  0  0  0  0  0  0  0
  -49.9483  -30.8991    5.3087 C   0  0  0  0  0  0  0  0  0  0  0  0
  -48.1608  -29.1470    4.0752 C   0  0  0  0  0  0  0  0  0  0  0  0
  -54.4348  -26.7758   11.1619 C   0  0  0  0  0  0  0  0  0  0  0  0
  -52.4095  -28.0129    9.6956 C   0  0  0  0  0  0  0  0  0  0  0  0
  -49.5615  -29.7260    5.9568 C   0  0  0  0  0  0  0  0  0  0  0  0
  -48.5476  -30.3200    3.4271 C   0  0  0  0  0  0  0  0  0  0  0  0
  -48.6678  -28.8501    5.3403 C   0  0  0  0  0  0  0  0  0  0  0  0
  -49.4413  -31.1959    4.0436 C   0  0  0  0  0  0  0  0  0  0  0  0
  -57.3247  -25.3911   12.4408 C   0  0  0  0  0  0  0  0  0  0  0  0
  -55.2816  -25.5981   13.1762 C   0  0  0  0  0  0  0  0  0  0  0  0
  -51.2408  -28.7057    7.5569 C   0  0  0  0  0  0  0  0  0  0  0  0
  -56.9228  -24.4309   14.7128 C   0  0  0  0  0  0  0  0  0  0  0  0
  -46.8205  -31.3275    2.1391 C   0  0  0  0  0  0  0  0  0  0  0  0
  -56.7417  -26.0075   11.4672 N   0  0  0  0  0  0  0  0  0  0  0  0
  -55.4473  -26.1564   11.8952 N   0  0  0  0  0  0  0  0  0  0  0  0
  -56.5366  -25.1088   13.4943 N   0  0  0  0  0  0  0  0  0  0  0  0
  -51.3967  -28.6322    8.9627 N   0  0  0  0  0  0  0  0  0  0  0  0
  -50.0777  -29.4258    7.2398 N   0  0  0  0  0  0  0  0  0  0  0  0
  -54.2615  -25.5584   13.8490 O   0  0  0  0  0  0  0  0  0  0  0  0
  -52.0126  -28.2101    6.7420 O   0  0  0  0  0  0  0  0  0  0  0  0
  -48.0367  -30.5847    2.1913 O   0  0  0  0  0  0  0  0  0  0  0  0
  -48.2895  -27.7198    5.9540 F   0  0  0  0  0  0  0  0  0  0  0  0
  -49.9363  -32.6530    3.2638 Cl  0  0  0  0  0  0  0  0  0  0  0  0
  -53.3670  -27.4678   12.9093 H   0  0  0  0  0  0  0  0  0  0  0  0
  -55.2640  -26.2298    9.2416 H   0  0  0  0  0  0  0  0  0  0  0  0
  -51.5806  -28.5599   11.6157 H   0  0  0  0  0  0  0  0  0  0  0  0
  -53.4766  -27.3196    7.9482 H   0  0  0  0  0  0  0  0  0  0  0  0
  -50.6460  -31.5794    5.7925 H   0  0  0  0  0  0  0  0  0  0  0  0
  -47.4651  -28.4600    3.6013 H   0  0  0  0  0  0  0  0  0  0  0  0
  -58.3789  -25.0887   12.4774 H   0  0  0  0  0  0  0  0  0  0  0  0
  -57.2691  -25.1506   15.4601 H   0  0  0  0  0  0  0  0  0  0  0  0
  -56.0727  -23.8794   15.1242 H   0  0  0  0  0  0  0  0  0  0  0  0
  -57.7287  -23.7201   14.5102 H   0  0  0  0  0  0  0  0  0  0  0  0
  -46.5230  -31.4690    1.0968 H   0  0  0  0  0  0  0  0  0  0  0  0
  -46.0412  -30.7714    2.6658 H   0  0  0  0  0  0  0  0  0  0  0  0
  -46.9633  -32.2964    2.6230 H   0  0  0  0  0  0  0  0  0  0  0  0
  -50.6606  -29.0999    9.5026 H   0  0  0  0  0  0  0  0  0  0  0  0
  -49.5355  -29.7779    8.0246 H   0  0  0  0  0  0  0  0  0  0  0  0
  1  3  2  0  0  0  0
  1  7  1  0  0  0  0
  2  4  1  0  0  0  0
  2  7  2  0  0  0  0
  3  8  1  0  0  0  0
  4  8  2  0  0  0  0
  5  9  1  0  0  0  0
  5 12  2  0  0  0  0
  6 10  2  0  0  0  0
  6 11  1  0  0  0  0
  7 19  1  0  0  0  0
  8 21  1  0  0  0  0
  9 11  2  0  0  0  0
  9 22  1  0  0  0  0
 10 12  1  0  0  0  0
 10 25  1  0  0  0  0
 11 26  1  0  0  0  0
 12 27  1  0  0  0  0
 13 18  2  0  0  0  0
 13 20  1  0  0  0  0
 14 19  1  0  0  0  0
 14 20  1  0  0  0  0
 14 23  2  0  0  0  0
 15 21  1  0  0  0  0
 15 22  1  0  0  0  0
 15 24  2  0  0  0  0
 16 20  1  0  0  0  0
 17 25  1  0  0  0  0
 18 19  1  0  0  0  0
  1 28  1  0  0  0  0
  2 29  1  0  0  0  0
  3 30  1  0  0  0  0
  4 31  1  0  0  0  0
  5 32  1  0  0  0  0
  6 33  1  0  0  0  0
 13 34  1  0  0  0  0
 16 35  1  0  0  0  0
 16 36  1  0  0  0  0
 16 37  1  0  0  0  0
 17 38  1  0  0  0  0
 17 39  1  0  0  0  0
 17 40  1  0  0  0  0
 21 41  1  0  0  0  0
 22 42  1  0  0  0  0
M  END
> <POSIT::Probability>
0.19

> <POSIT::Method>
FRED

> <ReceptorTitle>
UCSF-P4432-REFINED_LIGAND-BOUND-STATE_A__DU__LA1_A-201(A)

> <OMEGA_C>
y5ZVwm9228HiKz1BwtZZwobm1cFRSBxBz4lRwupo4MEpcDFB1clVwvHY2sGVjBBBEMtHwkcx98GN
4KlAs6RAwgQt6cHTZ4JAOr1ZwvA01sEklzJBWKNRwoIa4MFXIRtBAT9GwuLO7cEUnr5AxDBCwlaP
8sFtVVtA2qtCwhPN5sFq46pA6sNFwieR+cFgZYFAeUxlwg0hy8GwDUdBZyBdwvPIzMHr0VJBjvZM
wkql5cHA0fFA9bBjwnpyw8GYZ2tBKEg7wqye+sGn5ghAifdiwkMP0MF4eTdBBcpdwmhA0cGLUj5B
byViwr/eyMHW6FdBPZZNwtkO5cFZZw9Bkk9IwgRo68EWrOdAxgtZwq93zMGGlV1B2gxQwjmu4cGV
vtdAmCVAwnut9MHyPQxAeShBwhbC3cE8h75Aw75HwrGcAsLl4lBA1HdVwg2+28GIjE5BXQ5dwprW
0cFu3RNBi1JOwsF65MHc2TlB/udVwoSO2sHxV/5AfJVKwrKi/MGBXLlAOtw9wieu48G2e2ZA/oNp
wqG1yMF0o0dBhxNlwoc0ycGcXHdBbkpgwh0Jv8Gh/HFBMOpmwrXCvcHeKWhBjhc6wpTA+8E4ZIw/
Lyo4wtMr9sFcnCpAcNo7wosvAcKI3idAfKRKwoDM6MGjChhBZyRGwiU57sHyZABB

> <OMEGA_E>
dB8QwQ==

> <OMEGA_NBR>
     82860

$$$$
CACHE3HI_1709_53
  -OEChem-03092622513D

 40 43  0     0  0  0  0  0  0999 V2000
  -48.3556  -28.5496    3.1283 C   0  0  0  0  0  0  0  0  0  0  0  0
  -48.9686  -29.5956    2.4383 C   0  0  0  0  0  0  0  0  0  0  0  0
  -44.9311  -29.7152    3.8080 C   0  0  0  0  0  0  0  0  0  0  0  0
  -44.5905  -29.5954    7.3233 C   0  0  0  0  0  0  0  0  0  0  0  0
  -49.2242  -29.4154    5.2100 C   0  0  0  0  0  0  0  0  0  0  0  0
  -45.4899  -29.6278    5.0948 C   0  0  0  0  0  0  0  0  0  0  0  0
  -44.4042  -29.6623    5.9554 C   0  0  0  0  0  0  0  0  0  0  0  0
  -48.4837  -28.4596    4.5143 C   0  0  0  0  0  0  0  0  0  0  0  0
  -49.8371  -30.4613    4.5201 C   0  0  0  0  0  0  0  0  0  0  0  0
  -49.7090  -30.5514    3.1340 C   0  0  0  0  0  0  0  0  0  0  0  0
  -46.8553  -29.4693    6.8700 C   0  0  0  0  0  0  0  0  0  0  0  0
  -49.3578  -29.3184    6.6874 C   0  0  0  0  0  0  0  0  0  0  0  0
  -47.7072  -31.2609    0.2253 C   0  0  0  0  0  0  0  0  0  0  0  0
  -47.1774  -32.6471   -0.0142 C   0  0  0  0  0  0  0  0  0  0  0  0
  -48.6207  -32.4482    0.3571 C   0  0  0  0  0  0  0  0  0  0  0  0
  -49.1228  -32.8762    1.7180 C   0  0  0  0  0  0  0  0  0  0  0  0
  -45.8580  -29.4957    7.7850 N   0  0  0  0  0  0  0  0  0  0  0  0
  -43.5970  -29.7994    3.8362 N   0  0  0  0  0  0  0  0  0  0  0  0
  -46.7695  -29.5288    5.5233 N   0  0  0  0  0  0  0  0  0  0  0  0
  -43.3081  -29.7645    5.1513 N   0  0  0  0  0  0  0  0  0  0  0  0
  -48.1556  -29.3661    7.3934 N   0  0  0  0  0  0  0  0  0  0  0  0
  -50.4882  -29.2281    7.1545 O   0  0  0  0  0  0  0  0  0  0  0  0
  -51.2551  -32.6547    3.2012 O   0  0  0  0  0  0  0  0  0  0  0  0
  -51.1165  -31.2951    1.0845 O   0  0  0  0  0  0  0  0  0  0  0  0
  -47.8912  -27.4495    5.1669 F   0  0  0  0  0  0  0  0  0  0  0  0
  -50.5472  -31.3815    5.1899 F   0  0  0  0  0  0  0  0  0  0  0  0
  -50.4744  -31.8577    2.2641 S   0  0  0  0  0  0  0  0  0  0  0  0
  -47.7800  -27.8046    2.5872 H   0  0  0  0  0  0  0  0  0  0  0  0
  -48.8637  -29.6555    1.3584 H   0  0  0  0  0  0  0  0  0  0  0  0
  -45.4336  -29.7212    2.8514 H   0  0  0  0  0  0  0  0  0  0  0  0
  -43.7887  -29.6180    8.0478 H   0  0  0  0  0  0  0  0  0  0  0  0
  -47.3889  -30.7487    1.1249 H   0  0  0  0  0  0  0  0  0  0  0  0
  -47.8398  -30.6163   -0.6350 H   0  0  0  0  0  0  0  0  0  0  0  0
  -46.9543  -32.9319   -1.0351 H   0  0  0  0  0  0  0  0  0  0  0  0
  -46.5040  -33.0632    0.7250 H   0  0  0  0  0  0  0  0  0  0  0  0
  -49.3642  -32.5985   -0.4163 H   0  0  0  0  0  0  0  0  0  0  0  0
  -48.3333  -32.7943    2.4696 H   0  0  0  0  0  0  0  0  0  0  0  0
  -49.4850  -33.9079    1.6954 H   0  0  0  0  0  0  0  0  0  0  0  0
  -42.3358  -29.8161    5.4287 H   0  0  0  0  0  0  0  0  0  0  0  0
  -48.2291  -29.3206    8.4119 H   0  0  0  0  0  0  0  0  0  0  0  0
  1  2  1  0  0  0  0
  1  8  2  0  0  0  0
  2 10  2  0  0  0  0
  3  6  1  0  0  0  0
  3 18  2  0  0  0  0
  4  7  1  0  0  0  0
  4 17  2  0  0  0  0
  5  8  1  0  0  0  0
  5  9  2  0  0  0  0
  5 12  1  0  0  0  0
  6  7  2  0  0  0  0
  6 19  1  0  0  0  0
  7 20  1  0  0  0  0
  8 25  1  0  0  0  0
  9 10  1  0  0  0  0
  9 26  1  0  0  0  0
 10 27  1  0  0  0  0
 11 17  1  0  0  0  0
 11 19  2  0  0  0  0
 11 21  1  0  0  0  0
 12 21  1  0  0  0  0
 12 22  2  0  0  0  0
 13 14  1  0  0  0  0
 13 15  1  0  0  0  0
 14 15  1  0  0  0  0
 15 16  1  0  0  0  0
 16 27  1  0  0  0  0
 18 20  1  0  0  0  0
 23 27  2  0  0  0  0
 24 27  2  0  0  0  0
  1 28  1  0  0  0  0
  2 29  1  0  0  0  0
  3 30  1  0  0  0  0
  4 31  1  0  0  0  0
 13 32  1  0  0  0  0
 13 33  1  0  0  0  0
 14 34  1  0  0  0  0
 14 35  1  0  0  0  0
 15 36  1  0  0  0  0
 16 37  1  0  0  0  0
 16 38  1  0  0  0  0
 20 39  1  0  0  0  0
 21 40  1  0  0  0  0
M  END
> <POSIT::Probability>
0.05

> <POSIT::Method>
FRED

> <ReceptorTitle>
UCSF-P4432-REFINED_LIGAND-BOUND-STATE_A__DU__LA1_A-201(A)

> <OMEGA_C>
LmxBwq1l5MGUNUhAzN9DwsHD7MHvDBxAf7kzwsW47cFMtnNArVwywmbD7MFUWOpAiuVEws9S68Fq
uKZAovU1wsEF7cGaCKNA8p0xwn5M7cGSkr5ARu9Bwkut48HAdJBAJllHwtSw88GKpJBAEdZGwkJp
9MFAlEhA3Gs7wjDB68Hx1ttAWW5FwgiM6sE7/9VAKdQ+wkQW+sEYt2Y+pLU8wq6WAsKADGi8j3tC
wvzKAcI427Y+xn1EwkWBA8Lk59s/jG43wj7368HyHvlASmMuwhpl7sHqhHVAABQ7wuQ67MEpv7BA
fjstwqsd7sG016RAV59Awsjt6sHfluxA6fNJwkDT6cF+8eRAPQVNwnCeAsJA4UxATndMwmRc+sFc
z4o/nJA/wpOY28FAV6VAUTBKwlcN+8GpE6ZA0OVJwpDc/sFN5xBAwh4/wttv3sE8lSVAdHRDwmY+
7cEt360/+bs1wvLE7cGwfTZAmicvwpLx7MGawwBBOI49wk799cFI/I8/61s/wjju9MFYjCK/PdE7
wke6A8JifYS/HgQ6wsNABMJ0lzk/6HRFwtVkAsIcKNW+SFVBwlotA8LDDR5AnPBFwrehB8I+Adk/
1VcpwkuH7sEPuK1AkOpAwqSQ6sH5lgZB

> <OMEGA_E>
7iAJwQ==

> <OMEGA_NBR>
     84154

$$$$
CACHE3HI_1709_66
  -OEChem-03092622513D

 45 47  0     0  0  0  0  0  0999 V2000
  -55.6712  -24.7711   14.6675 C   0  0  0  0  0  0  0  0  0  0  0  0
  -54.7512  -25.4337   13.8549 C   0  0  0  0  0  0  0  0  0  0  0  0
  -53.9607  -25.9562   10.3039 C   0  0  0  0  0  0  0  0  0  0  0  0
  -53.0420  -26.6168    9.4881 C   0  0  0  0  0  0  0  0  0  0  0  0
  -56.8566  -24.2796   14.1209 C   0  0  0  0  0  0  0  0  0  0  0  0
  -56.2019  -25.1133   11.9495 C   0  0  0  0  0  0  0  0  0  0  0  0
  -52.3258  -27.9494   11.3720 C   0  0  0  0  0  0  0  0  0  0  0  0
  -50.8944  -30.0744    5.1344 C   0  0  0  0  0  0  0  0  0  0  0  0
  -55.0165  -25.6049   12.4961 C   0  0  0  0  0  0  0  0  0  0  0  0
  -54.0618  -26.2925   11.6537 C   0  0  0  0  0  0  0  0  0  0  0  0
  -52.2246  -27.6131   10.0221 C   0  0  0  0  0  0  0  0  0  0  0  0
  -57.1219  -24.4508   12.7621 C   0  0  0  0  0  0  0  0  0  0  0  0
  -53.2444  -27.2888   12.1877 C   0  0  0  0  0  0  0  0  0  0  0  0
  -50.1568  -30.4366    4.0336 C   0  0  0  0  0  0  0  0  0  0  0  0
  -49.9342  -29.6896    6.0893 C   0  0  0  0  0  0  0  0  0  0  0  0
  -46.8194  -29.2791    3.3656 C   0  0  0  0  0  0  0  0  0  0  0  0
  -51.3902  -28.5441    7.8181 C   0  0  0  0  0  0  0  0  0  0  0  0
  -50.5737  -30.9305    2.7084 C   0  0  0  0  0  0  0  0  0  0  0  0
  -47.6896  -30.5033    3.5604 C   0  0  0  0  0  0  0  0  0  0  0  0
  -48.6828  -29.7975    5.6350 N   0  0  0  0  0  0  0  0  0  0  0  0
  -48.8510  -30.2541    4.3824 N   0  0  0  0  0  0  0  0  0  0  0  0
  -45.4841  -29.6011    3.2431 N   0  0  0  0  0  0  0  0  0  0  0  0
  -51.3062  -28.2738    9.2061 N   0  0  0  0  0  0  0  0  0  0  0  0
  -50.2438  -29.2347    7.3930 N   0  0  0  0  0  0  0  0  0  0  0  0
  -47.2469  -28.1286    3.3278 O   0  0  0  0  0  0  0  0  0  0  0  0
  -52.3298  -28.2190    7.0994 O   0  0  0  0  0  0  0  0  0  0  0  0
  -58.2605  -23.9788   12.2380 F   0  0  0  0  0  0  0  0  0  0  0  0
  -53.3300  -27.6235   13.4836 F   0  0  0  0  0  0  0  0  0  0  0  0
  -55.4651  -24.6378   15.7254 H   0  0  0  0  0  0  0  0  0  0  0  0
  -53.8318  -25.8122   14.2955 H   0  0  0  0  0  0  0  0  0  0  0  0
  -54.5905  -25.1816    9.8728 H   0  0  0  0  0  0  0  0  0  0  0  0
  -52.9717  -26.3467    8.4374 H   0  0  0  0  0  0  0  0  0  0  0  0
  -57.5727  -23.7634   14.7533 H   0  0  0  0  0  0  0  0  0  0  0  0
  -56.4236  -25.2384   10.8925 H   0  0  0  0  0  0  0  0  0  0  0  0
  -51.6938  -28.7237   11.7993 H   0  0  0  0  0  0  0  0  0  0  0  0
  -51.9710  -30.0899    5.2283 H   0  0  0  0  0  0  0  0  0  0  0  0
  -50.7340  -30.1079    1.9894 H   0  0  0  0  0  0  0  0  0  0  0  0
  -51.5278  -31.4848    2.7530 H   0  0  0  0  0  0  0  0  0  0  0  0
  -49.8155  -31.6062    2.2779 H   0  0  0  0  0  0  0  0  0  0  0  0
  -48.0087  -30.8741    2.5779 H   0  0  0  0  0  0  0  0  0  0  0  0
  -47.0782  -31.2964    4.0094 H   0  0  0  0  0  0  0  0  0  0  0  0
  -45.1977  -30.5742    3.2893 H   0  0  0  0  0  0  0  0  0  0  0  0
  -44.7841  -28.8799    3.1076 H   0  0  0  0  0  0  0  0  0  0  0  0
  -50.4513  -28.6139    9.6597 H   0  0  0  0  0  0  0  0  0  0  0  0
  -49.5468  -29.4361    8.1055 H   0  0  0  0  0  0  0  0  0  0  0  0
  1  2  2  0  0  0  0
  1  5  1  0  0  0  0
  2  9  1  0  0  0  0
  3  4  2  0  0  0  0
  3 10  1  0  0  0  0
  4 11  1  0  0  0  0
  5 12  2  0  0  0  0
  6  9  2  0  0  0  0
  6 12  1  0  0  0  0
  7 11  2  0  0  0  0
  7 13  1  0  0  0  0
  8 14  2  0  0  0  0
  8 15  1  0  0  0  0
  9 10  1  0  0  0  0
 10 13  2  0  0  0  0
 11 23  1  0  0  0  0
 12 27  1  0  0  0  0
 13 28  1  0  0  0  0
 14 18  1  0  0  0  0
 14 21  1  0  0  0  0
 15 20  2  0  0  0  0
 15 24  1  0  0  0  0
 16 19  1  0  0  0  0
 16 22  1  0  0  0  0
 16 25  2  0  0  0  0
 17 23  1  0  0  0  0
 17 24  1  0  0  0  0
 17 26  2  0  0  0  0
 19 21  1  0  0  0  0
 20 21  1  0  0  0  0
  1 29  1  0  0  0  0
  2 30  1  0  0  0  0
  3 31  1  0  0  0  0
  4 32  1  0  0  0  0
  5 33  1  0  0  0  0
  6 34  1  0  0  0  0
  7 35  1  0  0  0  0
  8 36  1  0  0  0  0
 18 37  1  0  0  0  0
 18 38  1  0  0  0  0
 18 39  1  0  0  0  0
 19 40  1  0  0  0  0
 19 41  1  0  0  0  0
 22 42  1  0  0  0  0
 22 43  1  0  0  0  0
 23 44  1  0  0  0  0
 24 45  1  0  0  0  0
M  END
> <POSIT::Probability>
0.23

> <POSIT::Method>
HYBRID

> <ReceptorTitle>
UCSF-P4432-REFINED_LIGAND-BOUND-STATE_A__DU__LA1_A-201(A)

> <OMEGA_C>
V69ewk8rxsEPrmpBRgFbwkJ4y8GqrV1Bt9dXwl6mz8Gr3CRBBStUwjDv1MFYzxdBHG1jwo08wsEL
72FBws5gwhzoyMESMT9BlU1RwkuY38Gs8zVB1JNLwnCY8MHzTKRA8BBcwu3WzMET8EdBVD9Ywv9W
0sG5dTpB8uVQwqvn3MFiWiBByHxkwjibw8F2MUxBQvpUwntP2sHFAENBiKBIwil+88HaEoFAkrxH
wkmE7cFI28JAGUc7wos76sFDZldAi49Nwl1a5MEjLvpAb0tKwpRx98G6VS1AHsI+wrwG9MEW3WNA
MbtCwjdh7sFAUrRAYGdDwlEI8sGCPIxAu+81wg7P7ME6j09AhTlNwtcw4sFYTBNBqvlIwrDg6cGS
k+xA3/w8wngH4cGY+lRAuFFRwm3A4cHyLeNAwQppwoHUv8HozkNB71FVwvT83MHQvFdBT9xdwiga
xcE1m3tBylNXwnp/zsF/umRBq1xawthzycHn9h1BEuNTwv7F0sG//wZBeEpmwoUbvsGCDWxBw7Fh
wizoycF6Ry5BdsZOwjDK5cHIyTxBSuJPwhq48MHmTadAku9Kwu7c8MFwpP4/cxxOwszg+8FNMTBA
HkNHwnPZ/MGbyBFA8QhAwg/+9sG++yRAD1A8wgZf+sESTYBAbMo0wgSY9MHFg1JA7iIzwhAK58F4
4kZAKM5Jwk/p5MFLjhpB6y9Gwh1968H8rwFB

> <OMEGA_E>
rCn+wA==

> <OMEGA_NBR>
     85547

$$$$
CACHE3HI_1712_12
  -OEChem-03092622513D

 47 49  0     0  0  0  0  0  0999 V2000
  -56.1858  -24.2320   12.9845 C   0  0  0  0  0  0  0  0  0  0  0  0
  -55.7174  -25.0404   11.9548 C   0  0  0  0  0  0  0  0  0  0  0  0
  -53.6210  -26.2564   10.0223 C   0  0  0  0  0  0  0  0  0  0  0  0
  -53.1311  -27.0785    9.0075 C   0  0  0  0  0  0  0  0  0  0  0  0
  -53.8038  -29.0304   10.2627 C   0  0  0  0  0  0  0  0  0  0  0  0
  -55.6181  -24.3861   14.2394 C   0  0  0  0  0  0  0  0  0  0  0  0
  -54.2084  -26.0418   13.4965 C   0  0  0  0  0  0  0  0  0  0  0  0
  -47.0112  -28.8544    5.7188 C   0  0  0  0  0  0  0  0  0  0  0  0
  -54.7102  -25.9651   12.2073 C   0  0  0  0  0  0  0  0  0  0  0  0
  -54.2025  -26.8214   11.1572 C   0  0  0  0  0  0  0  0  0  0  0  0
  -53.2223  -28.4653    9.1277 C   0  0  0  0  0  0  0  0  0  0  0  0
  -48.3529  -29.1254    5.6020 C   0  0  0  0  0  0  0  0  0  0  0  0
  -54.2937  -28.2082   11.2774 C   0  0  0  0  0  0  0  0  0  0  0  0
  -48.5243  -29.4730    4.2486 C   0  0  0  0  0  0  0  0  0  0  0  0
  -49.7398  -29.8510    3.5832 C   0  0  0  0  0  0  0  0  0  0  0  0
  -50.6829  -29.3251    6.5570 C   0  0  0  0  0  0  0  0  0  0  0  0
  -44.3751  -30.2117    3.9672 C   0  0  0  0  0  0  0  0  0  0  0  0
  -52.6984  -29.3436    8.0420 C   0  0  0  0  0  0  0  0  0  0  0  0
  -45.0982  -28.8826    4.1004 C   0  0  0  0  0  0  0  0  0  0  0  0
  -54.6381  -25.2735   14.5224 N   0  0  0  0  0  0  0  0  0  0  0  0
  -47.3834  -29.4274    3.5557 N   0  0  0  0  0  0  0  0  0  0  0  0
  -46.4815  -29.0483    4.4770 N   0  0  0  0  0  0  0  0  0  0  0  0
  -50.5191  -28.8451    2.9991 N   0  0  0  0  0  0  0  0  0  0  0  0
  -49.3135  -29.0573    6.6385 N   0  0  0  0  0  0  0  0  0  0  0  0
  -51.2916  -29.1433    7.8062 N   0  0  0  0  0  0  0  0  0  0  0  0
  -50.1088  -31.0454    3.4974 O   0  0  0  0  0  0  0  0  0  0  0  0
  -51.3026  -29.6725    5.5546 O   0  0  0  0  0  0  0  0  0  0  0  0
  -54.8499  -28.7664   12.3626 F   0  0  0  0  0  0  0  0  0  0  0  0
  -56.9711  -23.5052   12.8104 H   0  0  0  0  0  0  0  0  0  0  0  0
  -56.1468  -24.9387   10.9613 H   0  0  0  0  0  0  0  0  0  0  0  0
  -53.5429  -25.1771    9.9128 H   0  0  0  0  0  0  0  0  0  0  0  0
  -52.6806  -26.6298    8.1261 H   0  0  0  0  0  0  0  0  0  0  0  0
  -53.8783  -30.1096   10.3652 H   0  0  0  0  0  0  0  0  0  0  0  0
  -55.9480  -23.7801   15.0768 H   0  0  0  0  0  0  0  0  0  0  0  0
  -53.4219  -26.7434   13.7598 H   0  0  0  0  0  0  0  0  0  0  0  0
  -46.4022  -28.5476    6.5588 H   0  0  0  0  0  0  0  0  0  0  0  0
  -44.3989  -30.7715    4.9080 H   0  0  0  0  0  0  0  0  0  0  0  0
  -43.3279  -30.0483    3.6942 H   0  0  0  0  0  0  0  0  0  0  0  0
  -44.8354  -30.8365    3.1950 H   0  0  0  0  0  0  0  0  0  0  0  0
  -52.8443  -30.4049    8.2859 H   0  0  0  0  0  0  0  0  0  0  0  0
  -53.2184  -29.1627    7.0911 H   0  0  0  0  0  0  0  0  0  0  0  0
  -45.0691  -28.3302    3.1550 H   0  0  0  0  0  0  0  0  0  0  0  0
  -44.6146  -28.2548    4.8578 H   0  0  0  0  0  0  0  0  0  0  0  0
  -50.2411  -27.8700    3.0193 H   0  0  0  0  0  0  0  0  0  0  0  0
  -51.3787  -29.0500    2.5008 H   0  0  0  0  0  0  0  0  0  0  0  0
  -48.9656  -28.7800    7.5533 H   0  0  0  0  0  0  0  0  0  0  0  0
  -50.7036  -28.8873    8.5965 H   0  0  0  0  0  0  0  0  0  0  0  0
  1  2  2  0  0  0  0
  1  6  1  0  0  0  0
  2  9  1  0  0  0  0
  3  4  2  0  0  0  0
  3 10  1  0  0  0  0
  4 11  1  0  0  0  0
  5 11  2  0  0  0  0
  5 13  1  0  0  0  0
  6 20  2  0  0  0  0
  7  9  2  0  0  0  0
  7 20  1  0  0  0  0
  8 12  2  0  0  0  0
  8 22  1  0  0  0  0
  9 10  1  0  0  0  0
 10 13  2  0  0  0  0
 11 18  1  0  0  0  0
 12 14  1  0  0  0  0
 12 24  1  0  0  0  0
 13 28  1  0  0  0  0
 14 15  1  0  0  0  0
 14 21  2  0  0  0  0
 15 23  1  0  0  0  0
 15 26  2  0  0  0  0
 16 24  1  0  0  0  0
 16 25  1  0  0  0  0
 16 27  2  0  0  0  0
 17 19  1  0  0  0  0
 18 25  1  0  0  0  0
 19 22  1  0  0  0  0
 21 22  1  0  0  0  0
  1 29  1  0  0  0  0
  2 30  1  0  0  0  0
  3 31  1  0  0  0  0
  4 32  1  0  0  0  0
  5 33  1  0  0  0  0
  6 34  1  0  0  0  0
  7 35  1  0  0  0  0
  8 36  1  0  0  0  0
 17 37  1  0  0  0  0
 17 38  1  0  0  0  0
 17 39  1  0  0  0  0
 18 40  1  0  0  0  0
 18 41  1  0  0  0  0
 19 42  1  0  0  0  0
 19 43  1  0  0  0  0
 23 44  1  0  0  0  0
 23 45  1  0  0  0  0
 24 46  1  0  0  0  0
 25 47  1  0  0  0  0
M  END
> <POSIT::Probability>
0.33

> <POSIT::Method>
HYBRID

> <ReceptorTitle>
UCSF-P4432-REFINED_LIGAND-BOUND-STATE_A__DU__LA1_A-201(A)

> <OMEGA_C>
Rr5gwgrbwcFqwE9Bn95ewtBSyMH6Rj9B63tWwgIN0sEuWyBBO4ZUwtCg2MHGHhBBHjdXwik+6MEJ
NCRB5nhewsYWw8G31GNBa9VYwrVV0MHe8VdBgws8wsjV5sFZALdASNdawn24z8FMUUNBWc9Ywi6S
1sHegzJBqONUwvy448EhCxJBVmlBwtQA6cFTQ7NAxixZwlyq4cE4cDRB4hhCwqPI68E99IdAhPVG
wuHO7sHJUmVATbtKwsiZ6sH50tFAEIAxwnux8cEr531AL8tSwsC/6sEKrABBmGQ0wpYP58HPNoNA
YI1awgowysHMW2hBkog9wmZr68GYkGNAG+05wtVi6MG1Q49AhhNKwsDC5sHY8D9ABkFFwl516MEy
btRAkSpNwnAl6cGyzPlAZ29Iwvpc+MHv1V9A0TVNwklh7cFMv7FAVmZbwpkh5sFWzUVBbuJjwqkK
vMFU90xBRpZgwnaCx8FXYS9B+ytWwr5qycG9mh5B7LhSwssJ1cG1BAJBaoNXwobg8MHp1yVBtMpf
wpE9vsG6OnFBCrBVwoHy1cH2J1xB3Js5wndh5MGj4dFAdpgxwhIs9sEcDp1Awk8twgVj8MH8bWxA
eVczwjex9sFZekxAk2BTwlI988EqkwRBmd9UwkVN6cGd6uJAukY0wj2k4sEW7ElAY3Uywt4J4sHa
cptA8PZIwsL13sEBPUFA0oNNwllm6MFmDCBAv9xDwno95sGYtPFAhtBKwjYZ58FuiwlB

> <OMEGA_E>
KqAPwQ==

> <OMEGA_NBR>
     86980

$$$$
CACHE3HI_1712_15
  -OEChem-03092622513D

 33 34  0     0  0  0  0  0  0999 V2000
  -44.2777  -28.9204    5.7824 C   0  0  0  0  0  0  0  0  0  0  0  0
  -43.3918  -28.8662    4.7063 C   0  0  0  0  0  0  0  0  0  0  0  0
  -49.9610  -30.8401    3.4983 C   0  0  0  0  0  0  0  0  0  0  0  0
  -45.1581  -29.5697    3.2153 C   0  0  0  0  0  0  0  0  0  0  0  0
  -48.4483  -29.5378    4.8402 C   0  0  0  0  0  0  0  0  0  0  0  0
  -48.8621  -31.2646    2.7681 C   0  0  0  0  0  0  0  0  0  0  0  0
  -46.0440  -29.6239    4.2914 C   0  0  0  0  0  0  0  0  0  0  0  0
  -45.6039  -29.2991    5.5747 C   0  0  0  0  0  0  0  0  0  0  0  0
  -49.7412  -29.9604    4.5524 C   0  0  0  0  0  0  0  0  0  0  0  0
  -43.8318  -29.1909    3.4230 C   0  0  0  0  0  0  0  0  0  0  0  0
  -47.4172  -30.0203    4.0504 C   0  0  0  0  0  0  0  0  0  0  0  0
  -46.5243  -29.3466    6.7520 C   0  0  0  0  0  0  0  0  0  0  0  0
  -50.8878  -29.4725    5.3708 C   0  0  0  0  0  0  0  0  0  0  0  0
  -42.8690  -27.4603    1.4655 C   0  0  0  0  0  0  0  0  0  0  0  0
  -47.5917  -30.8756    3.0182 N   0  0  0  0  0  0  0  0  0  0  0  0
  -41.3625  -29.2739    2.5777 O   0  0  0  0  0  0  0  0  0  0  0  0
  -43.2152  -30.0252    1.0442 O   0  0  0  0  0  0  0  0  0  0  0  0
  -42.7223  -29.1240    2.0763 S   0  0  0  0  0  0  0  0  0  0  0  0
  -43.9249  -28.6652    6.7782 H   0  0  0  0  0  0  0  0  0  0  0  0
  -42.3610  -28.5691    4.8797 H   0  0  0  0  0  0  0  0  0  0  0  0
  -50.9573  -31.1881    3.2480 H   0  0  0  0  0  0  0  0  0  0  0  0
  -45.4955  -29.8234    2.2124 H   0  0  0  0  0  0  0  0  0  0  0  0
  -48.2595  -28.8506    5.6595 H   0  0  0  0  0  0  0  0  0  0  0  0
  -48.9788  -31.9514    1.9363 H   0  0  0  0  0  0  0  0  0  0  0  0
  -47.0219  -28.3814    6.9039 H   0  0  0  0  0  0  0  0  0  0  0  0
  -45.9747  -29.5729    7.6737 H   0  0  0  0  0  0  0  0  0  0  0  0
  -47.2900  -30.1160    6.6026 H   0  0  0  0  0  0  0  0  0  0  0  0
  -51.0777  -30.1337    6.2267 H   0  0  0  0  0  0  0  0  0  0  0  0
  -51.8141  -29.4421    4.7816 H   0  0  0  0  0  0  0  0  0  0  0  0
  -50.6847  -28.4633    5.7504 H   0  0  0  0  0  0  0  0  0  0  0  0
  -42.1965  -27.3453    0.6142 H   0  0  0  0  0  0  0  0  0  0  0  0
  -42.5923  -26.7739    2.2667 H   0  0  0  0  0  0  0  0  0  0  0  0
  -43.9034  -27.2951    1.1609 H   0  0  0  0  0  0  0  0  0  0  0  0
  1  2  2  0  0  0  0
  1  8  1  0  0  0  0
  2 10  1  0  0  0  0
  3  6  2  0  0  0  0
  3  9  1  0  0  0  0
  4  7  1  0  0  0  0
  4 10  2  0  0  0  0
  5  9  2  0  0  0  0
  5 11  1  0  0  0  0
  6 15  1  0  0  0  0
  7  8  2  0  0  0  0
  7 11  1  0  0  0  0
  8 12  1  0  0  0  0
  9 13  1  0  0  0  0
 10 18  1  0  0  0  0
 11 15  2  0  0  0  0
 14 18  1  0  0  0  0
 16 18  2  0  0  0  0
 17 18  2  0  0  0  0
  1 19  1  0  0  0  0
  2 20  1  0  0  0  0
  3 21  1  0  0  0  0
  4 22  1  0  0  0  0
  5 23  1  0  0  0  0
  6 24  1  0  0  0  0
 12 25  1  0  0  0  0
 12 26  1  0  0  0  0
 12 27  1  0  0  0  0
 13 28  1  0  0  0  0
 13 29  1  0  0  0  0
 13 30  1  0  0  0  0
 14 31  1  0  0  0  0
 14 32  1  0  0  0  0
 14 33  1  0  0  0  0
M  END
> <POSIT::Probability>
0.02

> <POSIT::Method>
FRED

> <ReceptorTitle>
UCSF-P4432-REFINED_LIGAND-BOUND-STATE_A__DU__LA1_A-201(A)

> <OMEGA_C>
Vxwxwu1c58EHCblALZEtwvrt5sHGmZZAFthHwo649sFs5F9A6KE0wruO7MEzyE1ADMtBwnBN7MHq
4ppAznJDws0d+sHlJzFAAy04wqj97ME4U4lAZmo2wppk6sElZLJABfdGwt+u78HprJFAylMvwgiH
6cGwEVtAM6s9wn0p8MGwnIFA5xg6wt7F6sGtENhAIY1LwrjH68H03atA3HkrwqCu28Hmlrs/4V0+
wk4B98H1KkFANnMlwvAw6sFh+SRAVdwswowz8MHlpoU/q+Mqwuz96MGo4gRAD7MvwlNS5cG25thA
snEpwm6N5MGrJpxAOtRLwkeB+cHW3k9AW/s1wj6W7sFslw1ArwlBwgzO5sH1GrVATOpDwnCc/8HM
2Pc/dhY8wgQN48Gy7NxAEeY3wkKV7MHwjvVA9Cg9wpDt8MG1SNNAlU9MwugR8cFpQcdArkFPwm+J
68HkAplAJr1KwuW048GaA7hAMMkowkLD2sFVPR0/fV4qwvQw1sFpEhFAHJ0vwmtc2sF2mZQ/

> <OMEGA_E>
1NLYwA==

> <OMEGA_NBR>
     88126

$$$$
CACHE3HI_1712_23
  -OEChem-03092622513D

 42 44  0     0  0  0  0  0  0999 V2000
  -46.0383  -30.8081    1.6116 C   0  0  0  0  0  0  0  0  0  0  0  0
  -45.0378  -31.2216    0.7320 C   0  0  0  0  0  0  0  0  0  0  0  0
  -44.3545  -30.1256    3.2043 C   0  0  0  0  0  0  0  0  0  0  0  0
  -49.9047  -28.8878    6.2007 C   0  0  0  0  0  0  0  0  0  0  0  0
  -45.6964  -30.2602    2.8479 C   0  0  0  0  0  0  0  0  0  0  0  0
  -43.6958  -31.0869    1.0883 C   0  0  0  0  0  0  0  0  0  0  0  0
  -43.3540  -30.5390    2.3247 C   0  0  0  0  0  0  0  0  0  0  0  0
  -50.7803  -29.8373    5.7302 C   0  0  0  0  0  0  0  0  0  0  0  0
  -48.9916  -30.1142    4.5930 C   0  0  0  0  0  0  0  0  0  0  0  0
  -47.9264  -30.4850    3.7199 C   0  0  0  0  0  0  0  0  0  0  0  0
  -46.5526  -28.7257    4.7146 C   0  0  0  0  0  0  0  0  0  0  0  0
  -47.5532  -28.3729    5.5371 C   0  0  0  0  0  0  0  0  0  0  0  0
  -46.7418  -29.8283    3.7661 C   0  0  0  0  0  0  0  0  0  0  0  0
  -53.0821  -28.8423    5.9659 C   0  0  0  0  0  0  0  0  0  0  0  0
  -52.2348  -30.4730    7.6856 C   0  0  0  0  0  0  0  0  0  0  0  0
  -52.9129  -31.2637    5.4281 C   0  0  0  0  0  0  0  0  0  0  0  0
  -52.1611  -30.0948    6.1663 C   0  0  0  0  0  0  0  0  0  0  0  0
  -50.2109  -30.5924    4.7363 N   0  0  0  0  0  0  0  0  0  0  0  0
  -48.7564  -29.0637    5.4721 N   0  0  0  0  0  0  0  0  0  0  0  0
  -41.8225  -29.6691    4.3260 N   0  0  0  0  0  0  0  0  0  0  0  0
  -41.0554  -29.4004    1.8802 O   0  0  0  0  0  0  0  0  0  0  0  0
  -41.0977  -31.6984    2.9126 O   0  0  0  0  0  0  0  0  0  0  0  0
  -42.7437  -31.4871    0.2341 F   0  0  0  0  0  0  0  0  0  0  0  0
  -41.6749  -30.3685    2.7741 S   0  0  0  0  0  0  0  0  0  0  0  0
  -47.0798  -30.9191    1.3188 H   0  0  0  0  0  0  0  0  0  0  0  0
  -45.3030  -31.6477   -0.2312 H   0  0  0  0  0  0  0  0  0  0  0  0
  -44.0839  -29.6986    4.1676 H   0  0  0  0  0  0  0  0  0  0  0  0
  -49.9931  -28.1277    6.9653 H   0  0  0  0  0  0  0  0  0  0  0  0
  -48.0971  -31.3037    3.0267 H   0  0  0  0  0  0  0  0  0  0  0  0
  -45.5993  -28.2096    4.7386 H   0  0  0  0  0  0  0  0  0  0  0  0
  -47.4657  -27.5675    6.2560 H   0  0  0  0  0  0  0  0  0  0  0  0
  -54.1008  -29.0707    6.3008 H   0  0  0  0  0  0  0  0  0  0  0  0
  -52.7408  -27.9573    6.5166 H   0  0  0  0  0  0  0  0  0  0  0  0
  -53.1393  -28.5584    4.9090 H   0  0  0  0  0  0  0  0  0  0  0  0
  -53.2547  -30.6702    8.0367 H   0  0  0  0  0  0  0  0  0  0  0  0
  -51.6374  -31.3725    7.8752 H   0  0  0  0  0  0  0  0  0  0  0  0
  -51.8308  -29.6715    8.3125 H   0  0  0  0  0  0  0  0  0  0  0  0
  -53.9370  -31.4162    5.7879 H   0  0  0  0  0  0  0  0  0  0  0  0
  -52.3786  -32.2110    5.5666 H   0  0  0  0  0  0  0  0  0  0  0  0
  -52.9767  -31.0611    4.3523 H   0  0  0  0  0  0  0  0  0  0  0  0
  -41.5925  -30.2509    5.1402 H   0  0  0  0  0  0  0  0  0  0  0  0
  -41.5635  -28.6814    4.4353 H   0  0  0  0  0  0  0  0  0  0  0  0
  1  2  2  0  0  0  0
  1  5  1  0  0  0  0
  2  6  1  0  0  0  0
  3  5  2  0  0  0  0
  3  7  1  0  0  0  0
  4  8  2  0  0  0  0
  4 19  1  0  0  0  0
  5 13  1  0  0  0  0
  6  7  2  0  0  0  0
  6 23  1  0  0  0  0
  7 24  1  0  0  0  0
  8 17  1  0  0  0  0
  8 18  1  0  0  0  0
  9 10  1  0  0  0  0
  9 18  2  0  0  0  0
  9 19  1  0  0  0  0
 10 13  2  0  0  0  0
 11 12  2  0  0  0  0
 11 13  1  0  0  0  0
 12 19  1  0  0  0  0
 14 17  1  0  0  0  0
 15 17  1  0  0  0  0
 16 17  1  0  0  0  0
 20 24  1  0  0  0  0
 21 24  2  0  0  0  0
 22 24  2  0  0  0  0
  1 25  1  0  0  0  0
  2 26  1  0  0  0  0
  3 27  1  0  0  0  0
  4 28  1  0  0  0  0
 10 29  1  0  0  0  0
 11 30  1  0  0  0  0
 12 31  1  0  0  0  0
 14 32  1  0  0  0  0
 14 33  1  0  0  0  0
 14 34  1  0  0  0  0
 15 35  1  0  0  0  0
 15 36  1  0  0  0  0
 15 37  1  0  0  0  0
 16 38  1  0  0  0  0
 16 39  1  0  0  0  0
 16 40  1  0  0  0  0
 20 41  1  0  0  0  0
 20 42  1  0  0  0  0
M  END
> <POSIT::Probability>
0.24

> <POSIT::Method>
FRED

> <ReceptorTitle>
UCSF-P4432-REFINED_LIGAND-BOUND-STATE_A__DU__LA1_A-201(A)

> <OMEGA_C>
OSc4wvl29sFYSs4/uyY0wr3F+cFwYzs/92oxwjgB8cGMEk1AY55HwjIa58EobMZAJck2wucU8sFk
RDZAisguwg+y+MEITos/fGotwvBP9MEkxxRAAh9LwuSy7sE0XrdAcvdDwujp8MGA+ZJAmLQ/wjbh
88FIEm5A2jU6wlTO5cEI3pZAfDY+wsP74sEcMLFAlvc6wm6g7sFYB3FABVRUwhq95sGU6L5AZfBQ
wqPI88Gc8PVA1KZTwvYb+sEUs61A/aRQwijC8MFaUsVA69dIwiS99MEEkJdAmgZDwn6C6MEUG69A
REonwjla7cHUbopAwjgkwhY068HIqvA/DWQkwjqW/cGsZzpAlfkqwoHl+8EAs28+JLMmwqLy8sFs
ijFAu1E8wmRa98HQz6g/RTY1wmgu/cGAtWy+41UwwsSW7cHyXIVA+fhHwoEF4cGQ495AYmNAwg9u
+sEUtkFAuGU2wkqt4cFsopdA2Nw9wiaK3MEsMchANmdYwsOQ6MGMoMlAmvZSwpyo38Gqh9BAqo5U
wpZ35MG4Fp1AywRVwo9c9cFwlgBBvoxOwvH6+sEEAvxAwlJPwklf7cHy/wRBhr9XwlxU+8HQNrlA
pYNRwgzYAMJMIbJAG+hTwhx9+MHoRYtAvF4mwvEB8sHMfKRACUEmwm9z5cEE7o1A

> <OMEGA_E>
aEbiwA==

> <OMEGA_NBR>
     89455

$$$$
CACHE3HI_1712_5
  -OEChem-03092622513D

 44 47  0     1  0  0  0  0  0999 V2000
  -46.7236  -30.2789    3.2033 C   0  0  0  0  0  0  0  0  0  0  0  0
  -46.0857  -29.4888    4.1680 C   0  0  0  0  0  0  0  0  0  0  0  0
  -48.0874  -30.5605    3.3077 C   0  0  0  0  0  0  0  0  0  0  0  0
  -46.8052  -28.9719    5.2472 C   0  0  0  0  0  0  0  0  0  0  0  0
  -48.7997  -30.0540    4.3891 C   0  0  0  0  0  0  0  0  0  0  0  0
  -48.1584  -29.2627    5.3456 C   0  0  0  0  0  0  0  0  0  0  0  0
  -51.8877  -29.2299    6.2566 C   0  0  0  0  0  0  0  0  0  0  0  0
  -50.2761  -30.2258    4.6036 C   0  0  0  0  0  0  0  0  0  0  0  0
  -54.3855  -26.3256   11.2901 C   0  0  0  0  0  0  0  0  0  0  0  0
  -55.1539  -28.3233   12.5033 C   0  0  0  0  0  0  0  0  0  0  0  0
  -53.4169  -28.7436    8.2553 C   0  0  0  0  0  0  0  0  0  0  0  0
  -51.3325  -28.4986    8.6782 C   0  0  0  0  0  0  0  0  0  0  0  0
  -53.9136  -25.7602   12.6212 C   0  0  0  0  0  0  0  0  0  0  0  0
  -54.6510  -27.6768   13.7854 C   0  0  0  0  0  0  0  0  0  0  0  0
  -50.5605  -29.8838    6.0722 C   0  0  1  0  0  0  0  0  0  0  0  0
  -52.6259  -28.0063    9.3462 C   0  0  0  0  0  0  0  0  0  0  0  0
  -52.1592  -28.8578    7.5433 N   0  0  0  0  0  0  0  0  0  0  0  0
  -54.3703  -27.8145   11.3423 N   0  0  0  0  0  0  0  0  0  0  0  0
  -52.6514  -29.0498    5.3082 O   0  0  0  0  0  0  0  0  0  0  0  0
  -53.1143  -30.0243   10.9324 O   0  0  0  0  0  0  0  0  0  0  0  0
  -51.8539  -28.0323   11.8419 O   0  0  0  0  0  0  0  0  0  0  0  0
  -54.7300  -26.2525   13.6868 O   0  0  0  0  0  0  0  0  0  0  0  0
  -49.2665  -28.7252    6.6147 S   0  0  0  0  0  0  0  0  0  0  0  0
  -52.8913  -28.5932   10.9977 S   0  0  0  0  0  0  0  0  0  0  0  0
  -46.1512  -30.6798    2.3711 H   0  0  0  0  0  0  0  0  0  0  0  0
  -45.0241  -29.2795    4.0768 H   0  0  0  0  0  0  0  0  0  0  0  0
  -48.5771  -31.1694    2.5546 H   0  0  0  0  0  0  0  0  0  0  0  0
  -46.3048  -28.3543    5.9868 H   0  0  0  0  0  0  0  0  0  0  0  0
  -50.8479  -29.5925    3.9187 H   0  0  0  0  0  0  0  0  0  0  0  0
  -50.5371  -31.2722    4.4119 H   0  0  0  0  0  0  0  0  0  0  0  0
  -55.4043  -25.9708   11.0801 H   0  0  0  0  0  0  0  0  0  0  0  0
  -53.7237  -25.9912   10.4768 H   0  0  0  0  0  0  0  0  0  0  0  0
  -55.0414  -29.4168   12.5571 H   0  0  0  0  0  0  0  0  0  0  0  0
  -56.2186  -28.0880   12.3657 H   0  0  0  0  0  0  0  0  0  0  0  0
  -53.8340  -29.7184    8.5250 H   0  0  0  0  0  0  0  0  0  0  0  0
  -54.1661  -28.1396    7.7376 H   0  0  0  0  0  0  0  0  0  0  0  0
  -50.5982  -27.7169    8.4688 H   0  0  0  0  0  0  0  0  0  0  0  0
  -50.8462  -29.3661    9.1331 H   0  0  0  0  0  0  0  0  0  0  0  0
  -52.8835  -26.0737   12.8176 H   0  0  0  0  0  0  0  0  0  0  0  0
  -53.9362  -24.6638   12.6245 H   0  0  0  0  0  0  0  0  0  0  0  0
  -55.2246  -28.0120   14.6581 H   0  0  0  0  0  0  0  0  0  0  0  0
  -53.6024  -27.9422   13.9527 H   0  0  0  0  0  0  0  0  0  0  0  0
  -50.5489  -30.7925    6.6973 H   0  0  0  0  0  0  0  0  0  0  0  0
  -52.7442  -26.9168    9.2990 H   0  0  0  0  0  0  0  0  0  0  0  0
  1  2  1  0  0  0  0
  1  3  2  0  0  0  0
  2  4  2  0  0  0  0
  3  5  1  0  0  0  0
  4  6  1  0  0  0  0
  5  6  2  0  0  0  0
  5  8  1  0  0  0  0
  6 23  1  0  0  0  0
  7 15  1  0  0  0  0
  7 17  1  0  0  0  0
  7 19  2  0  0  0  0
  8 15  1  0  0  0  0
  9 13  1  0  0  0  0
  9 18  1  0  0  0  0
 10 14  1  0  0  0  0
 10 18  1  0  0  0  0
 11 16  1  0  0  0  0
 11 17  1  0  0  0  0
 12 16  1  0  0  0  0
 12 17  1  0  0  0  0
 13 22  1  0  0  0  0
 14 22  1  0  0  0  0
 15 23  1  0  0  0  0
 16 24  1  0  0  0  0
 18 24  1  0  0  0  0
 20 24  2  0  0  0  0
 21 24  2  0  0  0  0
  1 25  1  0  0  0  0
  2 26  1  0  0  0  0
  3 27  1  0  0  0  0
  4 28  1  0  0  0  0
  8 29  1  0  0  0  0
  8 30  1  0  0  0  0
  9 31  1  0  0  0  0
  9 32  1  0  0  0  0
 10 33  1  0  0  0  0
 10 34  1  0  0  0  0
 11 35  1  0  0  0  0
 11 36  1  0  0  0  0
 12 37  1  0  0  0  0
 12 38  1  0  0  0  0
 13 39  1  0  0  0  0
 13 40  1  0  0  0  0
 14 41  1  0  0  0  0
 14 42  1  0  0  0  0
 15 43  1  0  0  0  0
 16 44  1  0  0  0  0
M  END
> <POSIT::Probability>
0.23

> <POSIT::Method>
HYBRID

> <ReceptorTitle>
UCSF-P4432-REFINED_LIGAND-BOUND-STATE_A__DU__LA1_A-201(A)

> <OMEGA_C>
8uQ6wjs78sHtAk1AyFc4whPp68GAYIVAeFlAwuJ79MEhslNAjjg7wnvG58He6KdA2zJDwqVu8MG1
c4xAP6JAwvAZ6sGPD6tABI1PwszW6cGzNchAwhpJwn3O8cFWUJNAxYpZwsOa0sFnpDRBjJ1cwiOW
4sF8DUhB7qpVwt3y5cGSFQRBcVRNwif948Hn2QpBf6dXwvcUzsFB8ElBp5pawhpq3cHwkFxB6z1K
wv0R78GvT8JA54BSwvUM4MEJihVBC6NQwtjc5sH+YvFAK3tZwjGE3sE9ejVBCZtSwhdm6MHP3KlA
/nRUwssx8MEs6y5BYmpPwipC4MF8eD1Bj+tawiwF0sEi/VpB8hBFwkfN5cHTq9NAsZBTwtK+5MG7
9i9B1Jo4wjBw9cG7wBdAqBg0wnQ86sH8dIJA+05CwtZa+cHBfiNAGDg5wq7V4sHxk79AP2RLwoO9
7MFFzHpAACZKwnUt+sGfLo1A+Z1dwkHEz8HsRzFBE+VWwvPtz8HloCdBZCpcwppV68Hl6UhB5N9g
wjy04MEI2kVBDVZXwkS/7cEyZghBC6pYwtkd4cEzmvdAi2RKwju83cEMgAdBgWJLwtDt6sElIRJB
q4hTwuOW0MHNFE1BoL5XwolPxcEf/klBBOZcwoYY4MGdh2pB5WhWwpqJ38FNPl9BDTJKwgVX9sFA
UNZAE/pSwq9V18HTyBRB

> <OMEGA_E>
gsCmwA==

> <OMEGA_NBR>
     90834

$$$$
CACHE3HI_1712_57
  -OEChem-03092622513D

 27 28  0     0  0  0  0  0  0999 V2000
  -46.8279  -30.9530    0.7525 C   0  0  0  0  0  0  0  0  0  0  0  0
  -47.6748  -30.6625    1.8221 C   0  0  0  0  0  0  0  0  0  0  0  0
  -45.4492  -30.7951    0.8925 C   0  0  0  0  0  0  0  0  0  0  0  0
  -45.7645  -30.0566    3.1715 C   0  0  0  0  0  0  0  0  0  0  0  0
  -48.4305  -29.2760    6.1373 C   0  0  0  0  0  0  0  0  0  0  0  0
  -47.1432  -30.2145    3.0315 C   0  0  0  0  0  0  0  0  0  0  0  0
  -44.9176  -30.3471    2.1020 C   0  0  0  0  0  0  0  0  0  0  0  0
  -49.5990  -29.5883    5.4880 C   0  0  0  0  0  0  0  0  0  0  0  0
  -48.0204  -29.9147    4.1370 C   0  0  0  0  0  0  0  0  0  0  0  0
  -42.8842  -28.4731    1.7750 C   0  0  0  0  0  0  0  0  0  0  0  0
  -50.9771  -29.5299    5.9938 C   0  0  0  0  0  0  0  0  0  0  0  0
  -49.3302  -29.9967    4.2067 N   0  0  0  0  0  0  0  0  0  0  0  0
  -42.8474  -30.2413    3.6901 O   0  0  0  0  0  0  0  0  0  0  0  0
  -42.5406  -31.0321    1.3175 O   0  0  0  0  0  0  0  0  0  0  0  0
  -47.4010  -29.4843    5.2702 O   0  0  0  0  0  0  0  0  0  0  0  0
  -51.0911  -29.1022    7.2955 F   0  0  0  0  0  0  0  0  0  0  0  0
  -51.6201  -30.7436    5.9714 F   0  0  0  0  0  0  0  0  0  0  0  0
  -51.8038  -28.6868    5.2892 F   0  0  0  0  0  0  0  0  0  0  0  0
  -43.1911  -30.1511    2.2771 S   0  0  0  0  0  0  0  0  0  0  0  0
  -47.2418  -31.3012   -0.1895 H   0  0  0  0  0  0  0  0  0  0  0  0
  -48.7475  -30.7900    1.6972 H   0  0  0  0  0  0  0  0  0  0  0  0
  -44.7983  -31.0239    0.0529 H   0  0  0  0  0  0  0  0  0  0  0  0
  -45.3452  -29.7079    4.1133 H   0  0  0  0  0  0  0  0  0  0  0  0
  -48.1678  -28.9237    7.1235 H   0  0  0  0  0  0  0  0  0  0  0  0
  -41.8140  -28.2784    1.8598 H   0  0  0  0  0  0  0  0  0  0  0  0
  -43.4468  -27.8088    2.4322 H   0  0  0  0  0  0  0  0  0  0  0  0
  -43.2134  -28.3571    0.7414 H   0  0  0  0  0  0  0  0  0  0  0  0
  1  2  1  0  0  0  0
  1  3  2  0  0  0  0
  2  6  2  0  0  0  0
  3  7  1  0  0  0  0
  4  6  1  0  0  0  0
  4  7  2  0  0  0  0
  5  8  2  0  0  0  0
  5 15  1  0  0  0  0
  6  9  1  0  0  0  0
  7 19  1  0  0  0  0
  8 11  1  0  0  0  0
  8 12  1  0  0  0  0
  9 12  2  0  0  0  0
  9 15  1  0  0  0  0
 10 19  1  0  0  0  0
 11 16  1  0  0  0  0
 11 17  1  0  0  0  0
 11 18  1  0  0  0  0
 13 19  2  0  0  0  0
 14 19  2  0  0  0  0
  1 20  1  0  0  0  0
  2 21  1  0  0  0  0
  3 22  1  0  0  0  0
  4 23  1  0  0  0  0
  5 24  1  0  0  0  0
 10 25  1  0  0  0  0
 10 26  1  0  0  0  0
 10 27  1  0  0  0  0
M  END
> <POSIT::Probability>
0.24

> <POSIT::Method>
FRED

> <ReceptorTitle>
UCSF-P4432-REFINED_LIGAND-BOUND-STATE_A__DU__LA1_A-201(A)

> <OMEGA_C>
w087wrqf98HAoUA/BrM+wsVM9cH8OOk/8ss1wlxc9sHcfWQ/0A43wuVz8MF6+kpA1LhBwiw16sF+
ZMRAsJI8wkC38cG+A0JAm6szwtrG8sG8hgZAZmVGwtC07MHjna9A7RRAwkNR78H5YYRAY4krwtHI
48HxM+M/iuhLwjs97MFWzb9AGFJFwlH578H6nIZAyGMrwkPu8cGrKmxAhikqwsNB+MEKpag/nJo9
wu3f68HQpahAP11MwmDR6MH8dOlA+3pOwtTy9cHLFb9AHDdPwqJ+5cE6QalAtcMswok18cGTvBFA
ovc8wvVo+sHgEEK+av1CwtdR9sFiP9k/bDEzwgkx+MEAmVg9gmE1wsap7cEcoINA0KtAwtJj58Ff
8+NAk0Enwi864sFhD+4/jsktwoR43sGEqBtAetoswlzb4sF4zz0/

> <OMEGA_E>
HmK3wA==

> <OMEGA_NBR>
     91858

$$$$
CACHE3HI_1712_68
  -OEChem-03092622513D

 49 50  0     0  0  0  0  0  0999 V2000
  -53.5210  -26.6086   13.4845 C   0  0  0  0  0  0  0  0  0  0  0  0
  -52.8710  -27.0440   12.3297 C   0  0  0  0  0  0  0  0  0  0  0  0
  -51.8054  -30.1612    5.2032 C   0  0  0  0  0  0  0  0  0  0  0  0
  -54.5723  -25.9924   10.9743 C   0  0  0  0  0  0  0  0  0  0  0  0
  -50.8282  -30.4610    4.2854 C   0  0  0  0  0  0  0  0  0  0  0  0
  -54.6967  -25.8649   13.3840 C   0  0  0  0  0  0  0  0  0  0  0  0
  -55.2223  -25.5570   12.1290 C   0  0  0  0  0  0  0  0  0  0  0  0
  -53.3966  -26.7361   11.0747 C   0  0  0  0  0  0  0  0  0  0  0  0
  -51.0971  -29.8067    6.3670 C   0  0  0  0  0  0  0  0  0  0  0  0
  -55.3710  -25.4121   14.5903 C   0  0  0  0  0  0  0  0  0  0  0  0
  -53.0684  -29.3155    7.8552 C   0  0  0  0  0  0  0  0  0  0  0  0
  -56.1798  -24.1192   14.5794 C   0  0  0  0  0  0  0  0  0  0  0  0
  -46.8424  -28.9520    2.9587 C   0  0  0  0  0  0  0  0  0  0  0  0
  -47.9819  -28.0100    4.9692 C   0  0  0  0  0  0  0  0  0  0  0  0
  -46.0402  -29.5728    5.2390 C   0  0  0  0  0  0  0  0  0  0  0  0
  -53.2848  -28.8645    9.2827 C   0  0  0  0  0  0  0  0  0  0  0  0
  -48.2621  -30.4762    4.3461 C   0  0  0  0  0  0  0  0  0  0  0  0
  -47.2925  -29.2622    4.4011 C   0  0  0  0  0  0  0  0  0  0  0  0
  -49.7730  -29.8747    6.2060 N   0  0  0  0  0  0  0  0  0  0  0  0
  -49.6407  -30.2754    4.9301 N   0  0  0  0  0  0  0  0  0  0  0  0
  -51.6919  -29.4280    7.5542 N   0  0  0  0  0  0  0  0  0  0  0  0
  -55.3089  -26.0605   15.6538 O   0  0  0  0  0  0  0  0  0  0  0  0
  -53.9988  -29.5422    7.0890 O   0  0  0  0  0  0  0  0  0  0  0  0
  -52.9441  -26.3933    8.5259 O   0  0  0  0  0  0  0  0  0  0  0  0
  -51.1710  -27.4674    9.9580 O   0  0  0  0  0  0  0  0  0  0  0  0
  -56.3513  -24.8424   12.0207 F   0  0  0  0  0  0  0  0  0  0  0  0
  -52.5718  -27.2887    9.6102 S   0  0  0  0  0  0  0  0  0  0  0  0
  -53.1025  -26.8546   14.4571 H   0  0  0  0  0  0  0  0  0  0  0  0
  -51.9559  -27.6232   12.4188 H   0  0  0  0  0  0  0  0  0  0  0  0
  -52.8738  -30.1967    5.0453 H   0  0  0  0  0  0  0  0  0  0  0  0
  -54.9909  -25.7469   10.0021 H   0  0  0  0  0  0  0  0  0  0  0  0
  -50.8779  -30.7832    3.2543 H   0  0  0  0  0  0  0  0  0  0  0  0
  -57.2161  -24.3338   14.3053 H   0  0  0  0  0  0  0  0  0  0  0  0
  -55.7730  -23.4229   13.8398 H   0  0  0  0  0  0  0  0  0  0  0  0
  -56.1237  -23.6412   15.5604 H   0  0  0  0  0  0  0  0  0  0  0  0
  -46.3430  -29.8155    2.5057 H   0  0  0  0  0  0  0  0  0  0  0  0
  -47.6958  -28.6903    2.3221 H   0  0  0  0  0  0  0  0  0  0  0  0
  -46.1412  -28.1101    2.9349 H   0  0  0  0  0  0  0  0  0  0  0  0
  -48.3215  -28.1806    5.9973 H   0  0  0  0  0  0  0  0  0  0  0  0
  -48.8633  -27.7301    4.3826 H   0  0  0  0  0  0  0  0  0  0  0  0
  -47.2981  -27.1539    4.9840 H   0  0  0  0  0  0  0  0  0  0  0  0
  -46.3057  -29.8011    6.2774 H   0  0  0  0  0  0  0  0  0  0  0  0
  -45.3378  -28.7330    5.2450 H   0  0  0  0  0  0  0  0  0  0  0  0
  -45.5028  -30.4387    4.8370 H   0  0  0  0  0  0  0  0  0  0  0  0
  -54.3553  -28.7849    9.4915 H   0  0  0  0  0  0  0  0  0  0  0  0
  -52.8259  -29.5787    9.9723 H   0  0  0  0  0  0  0  0  0  0  0  0
  -48.3784  -30.8006    3.3028 H   0  0  0  0  0  0  0  0  0  0  0  0
  -47.7992  -31.3345    4.8541 H   0  0  0  0  0  0  0  0  0  0  0  0
  -51.0446  -29.1960    8.3253 H   0  0  0  0  0  0  0  0  0  0  0  0
  1  2  2  0  0  0  0
  1  6  1  0  0  0  0
  2  8  1  0  0  0  0
  3  5  2  0  0  0  0
  3  9  1  0  0  0  0
  4  7  1  0  0  0  0
  4  8  2  0  0  0  0
  5 20  1  0  0  0  0
  6  7  2  0  0  0  0
  6 10  1  0  0  0  0
  7 26  1  0  0  0  0
  8 27  1  0  0  0  0
  9 19  2  0  0  0  0
  9 21  1  0  0  0  0
 10 12  1  0  0  0  0
 10 22  2  0  0  0  0
 11 16  1  0  0  0  0
 11 21  1  0  0  0  0
 11 23  2  0  0  0  0
 13 18  1  0  0  0  0
 14 18  1  0  0  0  0
 15 18  1  0  0  0  0
 16 27  1  0  0  0  0
 17 18  1  0  0  0  0
 17 20  1  0  0  0  0
 19 20  1  0  0  0  0
 24 27  2  0  0  0  0
 25 27  2  0  0  0  0
  1 28  1  0  0  0  0
  2 29  1  0  0  0  0
  3 30  1  0  0  0  0
  4 31  1  0  0  0  0
  5 32  1  0  0  0  0
 12 33  1  0  0  0  0
 12 34  1  0  0  0  0
 12 35  1  0  0  0  0
 13 36  1  0  0  0  0
 13 37  1  0  0  0  0
 13 38  1  0  0  0  0
 14 39  1  0  0  0  0
 14 40  1  0  0  0  0
 14 41  1  0  0  0  0
 15 42  1  0  0  0  0
 15 43  1  0  0  0  0
 15 44  1  0  0  0  0
 16 45  1  0  0  0  0
 16 46  1  0  0  0  0
 17 47  1  0  0  0  0
 17 48  1  0  0  0  0
 21 49  1  0  0  0  0
M  END
> <POSIT::Probability>
0.18

> <POSIT::Method>
HYBRID

> <ReceptorTitle>
UCSF-P4432-REFINED_LIGAND-BOUND-STATE_A__DU__LA1_A-201(A)

> <OMEGA_C>
hRVWwmze1MF8wFdB4ntTwh9a2MFhRkVBtThPwihK8cGBgKZAFUpawmrwz8GOli9BElBLwjmw88FH
IolAcslawl7rzsHkJFZBq+NcwsZ0zMGQEEJBHJZVwojj1cEQMjFBbWNMwgt07sGovstA33tdwuhL
y8HXcWlBFEZUwjWG6sGKXftAH7hgwgj0wMFjRWlBpF47wqWd58G+Wj1Adu0/wnwU4MFeA59AISk4
whSV7ME+pqdAqiNVwmnq5sH6hRRBbAxBwjjP88FtE4tAeis9wuoY6sGs1YxAiRdHwnb/7sGjl8ZA
G5BGwvgz8sGOw51AisROwpBs68EIvPFASTxdwuh70MEJdnpByv5XwnhW7ME/2eJAxMZTwmMl08EK
aghBH69Mwii928EfVB9BumdhwlS9xsGyVEBBhklSwlBP2sE+wxlB6mhUwiPW1sEnUGdB09JPwmj8
3MFYs0ZByX5TwuCS8cH+cqFAq/Zbwqb5zcFyCCBB9oJLwudD9sHSRlBARt1kwqarwsGw4mRBgxdf
wgZiu8HGb11Bsn5gwjwhvcF293hBMF85wimG7sHpXCBAeMg+ws+F5cGynRRAmJA4wnrh4MHg1DtA
OklBwuxx4cFG6r9AEHRDwjzX3cH6PYxAODE9wjw72cHzfJ9ADDk5wrZo7sGr4MhA51k1wijd5cED
16dA1wI2wlyC88GcyJpA3mtZwoZH5sEk3RdBwk1Twjih7MGsjh9BhoNBwrhn9sGnYVNAXjI/wiit
+sHbVJtAry1MwliR6cFmNAVB

> <OMEGA_E>
0K+uwA==

> <OMEGA_NBR>
     93328

$$$$
CACHE3HI_1712_7
  -OEChem-03092622513D

 50 52  0     1  0  0  0  0  0999 V2000
  -51.4757  -30.8471    4.8392 C   0  0  0  0  0  0  0  0  0  0  0  0
  -43.7921  -28.7289    4.3673 C   0  0  0  0  0  0  0  0  0  0  0  0
  -50.1524  -30.5667    4.4989 C   0  0  0  0  0  0  0  0  0  0  0  0
  -51.9552  -30.5135    6.1058 C   0  0  0  0  0  0  0  0  0  0  0  0
  -45.1306  -28.9540    4.8013 C   0  0  0  0  0  0  0  0  0  0  0  0
  -49.7883  -29.6188    6.6913 C   0  0  0  0  0  0  0  0  0  0  0  0
  -43.5908  -29.1485    3.0708 C   0  0  0  0  0  0  0  0  0  0  0  0
  -49.3088  -29.9525    5.4247 C   0  0  0  0  0  0  0  0  0  0  0  0
  -51.1116  -29.8993    7.0316 C   0  0  0  0  0  0  0  0  0  0  0  0
  -45.9013  -29.5374    3.8192 C   0  0  0  0  0  0  0  0  0  0  0  0
  -47.3340  -29.9309    3.8697 C   0  0  0  0  0  0  0  0  0  0  0  0
  -52.8860  -29.7682    8.8169 C   0  0  0  0  0  0  0  0  0  0  0  0
  -54.6264  -28.9571   10.3832 C   0  0  0  0  0  0  0  0  0  0  0  0
  -52.4505  -27.7687   10.3611 C   0  0  0  0  0  0  0  0  0  0  0  0
  -55.3236  -27.6147   10.5856 C   0  0  0  0  0  0  0  0  0  0  0  0
  -53.2119  -26.4632   10.6023 C   0  0  0  0  0  0  0  0  0  0  0  0
  -56.8572  -24.2973   13.0254 C   0  0  0  0  0  0  0  0  0  0  0  0
  -55.1538  -25.4266   11.5773 C   0  0  0  0  0  0  0  0  0  0  0  0
  -56.1252  -25.5705   12.7439 C   0  0  1  0  0  0  0  0  0  0  0  0
  -53.3020  -28.8135    9.7753 N   0  0  0  0  0  0  0  0  0  0  0  0
  -54.4630  -26.6918   11.3327 N   0  0  0  0  0  0  0  0  0  0  0  0
  -47.9856  -29.6717    5.0828 N   0  0  0  0  0  0  0  0  0  0  0  0
  -51.5994  -29.5600    8.3179 N   0  0  0  0  0  0  0  0  0  0  0  0
  -47.8170  -30.4597    2.8741 O   0  0  0  0  0  0  0  0  0  0  0  0
  -53.6090  -30.7118    8.4847 O   0  0  0  0  0  0  0  0  0  0  0  0
  -55.4183  -25.9000   13.8614 F   0  0  0  0  0  0  0  0  0  0  0  0
  -45.0119  -29.8108    2.3817 S   0  0  0  0  0  0  0  0  0  0  0  0
  -52.1325  -31.3257    4.1184 H   0  0  0  0  0  0  0  0  0  0  0  0
  -43.0164  -28.2818    4.9753 H   0  0  0  0  0  0  0  0  0  0  0  0
  -49.7890  -30.8311    3.5088 H   0  0  0  0  0  0  0  0  0  0  0  0
  -52.9880  -30.7369    6.3607 H   0  0  0  0  0  0  0  0  0  0  0  0
  -45.5040  -28.6991    5.7852 H   0  0  0  0  0  0  0  0  0  0  0  0
  -49.1306  -29.1397    7.4132 H   0  0  0  0  0  0  0  0  0  0  0  0
  -42.6774  -29.0977    2.4952 H   0  0  0  0  0  0  0  0  0  0  0  0
  -54.4766  -29.4566   11.3487 H   0  0  0  0  0  0  0  0  0  0  0  0
  -55.2614  -29.6130    9.7789 H   0  0  0  0  0  0  0  0  0  0  0  0
  -51.5968  -27.5449    9.7182 H   0  0  0  0  0  0  0  0  0  0  0  0
  -52.0640  -28.1683   11.3063 H   0  0  0  0  0  0  0  0  0  0  0  0
  -55.6059  -27.1934    9.6116 H   0  0  0  0  0  0  0  0  0  0  0  0
  -56.2507  -27.7925   11.1441 H   0  0  0  0  0  0  0  0  0  0  0  0
  -52.5631  -25.7927   11.1790 H   0  0  0  0  0  0  0  0  0  0  0  0
  -53.4068  -25.9741    9.6382 H   0  0  0  0  0  0  0  0  0  0  0  0
  -56.1407  -23.4888   13.2123 H   0  0  0  0  0  0  0  0  0  0  0  0
  -57.4801  -24.0109   12.1717 H   0  0  0  0  0  0  0  0  0  0  0  0
  -57.4898  -24.4031   13.9134 H   0  0  0  0  0  0  0  0  0  0  0  0
  -54.4100  -24.6542   11.8004 H   0  0  0  0  0  0  0  0  0  0  0  0
  -55.6876  -25.1264   10.6691 H   0  0  0  0  0  0  0  0  0  0  0  0
  -56.8463  -26.3742   12.5580 H   0  0  0  0  0  0  0  0  0  0  0  0
  -47.4195  -29.2193    5.8099 H   0  0  0  0  0  0  0  0  0  0  0  0
  -50.9088  -29.0975    8.9701 H   0  0  0  0  0  0  0  0  0  0  0  0
  1  3  1  0  0  0  0
  1  4  2  0  0  0  0
  2  5  1  0  0  0  0
  2  7  2  0  0  0  0
  3  8  2  0  0  0  0
  4  9  1  0  0  0  0
  5 10  2  0  0  0  0
  6  8  1  0  0  0  0
  6  9  2  0  0  0  0
  7 27  1  0  0  0  0
  8 22  1  0  0  0  0
  9 23  1  0  0  0  0
 10 11  1  0  0  0  0
 10 27  1  0  0  0  0
 11 22  1  0  0  0  0
 11 24  2  0  0  0  0
 12 20  1  0  0  0  0
 12 23  1  0  0  0  0
 12 25  2  0  0  0  0
 13 15  1  0  0  0  0
 13 20  1  0  0  0  0
 14 16  1  0  0  0  0
 14 20  1  0  0  0  0
 15 21  1  0  0  0  0
 16 21  1  0  0  0  0
 17 19  1  0  0  0  0
 18 19  1  0  0  0  0
 18 21  1  0  0  0  0
 19 26  1  0  0  0  0
  1 28  1  0  0  0  0
  2 29  1  0  0  0  0
  3 30  1  0  0  0  0
  4 31  1  0  0  0  0
  5 32  1  0  0  0  0
  6 33  1  0  0  0  0
  7 34  1  0  0  0  0
 13 35  1  0  0  0  0
 13 36  1  0  0  0  0
 14 37  1  0  0  0  0
 14 38  1  0  0  0  0
 15 39  1  0  0  0  0
 15 40  1  0  0  0  0
 16 41  1  0  0  0  0
 16 42  1  0  0  0  0
 17 43  1  0  0  0  0
 17 44  1  0  0  0  0
 17 45  1  0  0  0  0
 18 46  1  0  0  0  0
 18 47  1  0  0  0  0
 19 48  1  0  0  0  0
 22 49  1  0  0  0  0
 23 50  1  0  0  0  0
M  END
> <POSIT::Probability>
0.14

> <POSIT::Method>
HYBRID

> <ReceptorTitle>
UCSF-P4432-REFINED_LIGAND-BOUND-STATE_A__DU__LA1_A-201(A)

> <OMEGA_C>
JudNwujG9sH32ppAFysvwsbU5cE/wYtAD5xIwoWI9MGh9o9AGtJPwpsb9MHjYsNAr4U0wuKh58F/
pJlAMidHwmDz7MEHH9ZA+VwuwiIw6cFriERAMzxFwq+e78HAlq1APHJMwsUx78ECA+FA8Jo3wpVM
7ME2bnRA/VU9wpVy78HoqHdAPotTwlYl7sELEg1Bb4Fawg2o58GCISZBVM1Rwkcm3sEtxyVBYktd
wgLr3MFzXilBAdlUwqy008HUoilBym1jwu9gwsHYZ1BBfp1cwsNpy8GsPDlBL4BgwlWQzMEd50tB
QDVVwhSC5sGNZxxBH9pZwsCI1cGVUjVBRfE/wqJf7cGtpqJAw2VOwuZ67ME3FgVBlEQ/woSt88GK
8DdApW9WwtSx9cEmwQdBWaxdwh8zz8FRyF1BKgw0wpd87sGKbRhAr4dQwvWa+sHwyYNAwhAswh5B
4sF6NZ9A6SdHwham9sFnj2BAufNTwhzl9cGsistAGwQ2ws2X5cEuILlAsYVEwgEe6cFMOe1Ao7Uq
whzI6MGMsB9ADuhZwhen68FPlDVBtwtdwl7n7MFOdhxBHWNOwgpc3MG8fRtBhkFQwrhY4cGq5jRB
cWxewhmM2cHyyBlBuwBhwiJX3sEKTjJBlkBSwmVXzsEq3TJBkqBVwgrLz8HyNRpBE5Bgwgzpu8Gs
ZVNBl+tlwkMWwMF0v0JBlfVlwpY5w8EbnV5B2qNZwt87xcFlzjxBI8BewvECycG6tCpBl2Jjwlf+
0sGb7UhBia09whvB6cGf6rlAmKJLwrrH6MGYhQ9B

> <OMEGA_E>
QB7fwA==

> <OMEGA_NBR>
     94824

$$$$
CACHE3HI_1712_77
  -OEChem-03092622513D

 46 48  0     0  0  0  0  0  0999 V2000
  -48.5468  -30.7931    2.9664 C   0  0  0  0  0  0  0  0  0  0  0  0
  -47.2972  -30.3618    2.5135 C   0  0  0  0  0  0  0  0  0  0  0  0
  -47.0143  -28.9439    4.4645 C   0  0  0  0  0  0  0  0  0  0  0  0
  -49.0426  -29.0664    6.1004 C   0  0  0  0  0  0  0  0  0  0  0  0
  -48.2717  -29.3647    4.9418 C   0  0  0  0  0  0  0  0  0  0  0  0
  -49.0076  -30.2775    4.1834 C   0  0  0  0  0  0  0  0  0  0  0  0
  -46.5414  -29.4517    3.2493 C   0  0  0  0  0  0  0  0  0  0  0  0
  -50.2097  -29.7906    6.0236 C   0  0  0  0  0  0  0  0  0  0  0  0
  -51.2862  -29.8082    6.9667 C   0  0  0  0  0  0  0  0  0  0  0  0
  -52.9570  -27.0782    8.7076 C   0  0  0  0  0  0  0  0  0  0  0  0
  -54.1318  -26.1274   10.8700 C   0  0  0  0  0  0  0  0  0  0  0  0
  -52.4444  -27.2963   11.2857 C   0  0  0  0  0  0  0  0  0  0  0  0
  -52.8338  -26.4115   10.0790 C   0  0  0  0  0  0  0  0  0  0  0  0
  -51.2291  -31.4117    4.4179 C   0  0  0  0  0  0  0  0  0  0  0  0
  -44.8963  -29.6005    1.5380 C   0  0  0  0  0  0  0  0  0  0  0  0
  -55.2421  -25.8004   13.9301 C   0  0  0  0  0  0  0  0  0  0  0  0
  -52.4625  -28.5057    8.6092 C   0  0  0  0  0  0  0  0  0  0  0  0
  -50.1799  -30.5181    4.8638 N   0  0  0  0  0  0  0  0  0  0  0  0
  -53.4541  -26.5782   12.1272 N   0  0  0  0  0  0  0  0  0  0  0  0
  -52.0423  -30.7815    7.1828 O   0  0  0  0  0  0  0  0  0  0  0  0
  -53.4331  -26.4780    7.7455 O   0  0  0  0  0  0  0  0  0  0  0  0
  -53.2403  -27.3523   14.5708 O   0  0  0  0  0  0  0  0  0  0  0  0
  -55.0967  -28.2837   13.1321 O   0  0  0  0  0  0  0  0  0  0  0  0
  -45.3261  -29.0497    2.7814 O   0  0  0  0  0  0  0  0  0  0  0  0
  -51.4174  -28.6127    7.6369 O   0  0  0  0  0  0  0  0  0  0  0  0
  -54.2181  -27.1908   13.5100 S   0  0  0  0  0  0  0  0  0  0  0  0
  -49.1312  -31.5019    2.3892 H   0  0  0  0  0  0  0  0  0  0  0  0
  -46.9153  -30.7473    1.5710 H   0  0  0  0  0  0  0  0  0  0  0  0
  -46.4191  -28.2343    5.0326 H   0  0  0  0  0  0  0  0  0  0  0  0
  -48.7677  -28.3933    6.9016 H   0  0  0  0  0  0  0  0  0  0  0  0
  -54.4515  -25.0839   10.9131 H   0  0  0  0  0  0  0  0  0  0  0  0
  -54.9802  -26.7678   10.6076 H   0  0  0  0  0  0  0  0  0  0  0  0
  -52.6834  -28.3589   11.1737 H   0  0  0  0  0  0  0  0  0  0  0  0
  -51.4244  -27.1808   11.6590 H   0  0  0  0  0  0  0  0  0  0  0  0
  -52.1975  -25.5140   10.0204 H   0  0  0  0  0  0  0  0  0  0  0  0
  -51.0649  -32.4267    4.7950 H   0  0  0  0  0  0  0  0  0  0  0  0
  -51.2562  -31.4409    3.3242 H   0  0  0  0  0  0  0  0  0  0  0  0
  -52.2058  -31.0830    4.7879 H   0  0  0  0  0  0  0  0  0  0  0  0
  -43.9133  -29.1979    1.2801 H   0  0  0  0  0  0  0  0  0  0  0  0
  -44.8287  -30.6868    1.6346 H   0  0  0  0  0  0  0  0  0  0  0  0
  -45.6198  -29.3509    0.7585 H   0  0  0  0  0  0  0  0  0  0  0  0
  -55.8114  -26.0503   14.8266 H   0  0  0  0  0  0  0  0  0  0  0  0
  -55.9135  -25.6023   13.0937 H   0  0  0  0  0  0  0  0  0  0  0  0
  -54.5966  -24.9404   14.1142 H   0  0  0  0  0  0  0  0  0  0  0  0
  -52.0830  -28.8338    9.5815 H   0  0  0  0  0  0  0  0  0  0  0  0
  -53.2907  -29.1493    8.3000 H   0  0  0  0  0  0  0  0  0  0  0  0
  1  2  2  0  0  0  0
  1  6  1  0  0  0  0
  2  7  1  0  0  0  0
  3  5  1  0  0  0  0
  3  7  2  0  0  0  0
  4  5  1  0  0  0  0
  4  8  2  0  0  0  0
  5  6  2  0  0  0  0
  6 18  1  0  0  0  0
  7 24  1  0  0  0  0
  8  9  1  0  0  0  0
  8 18  1  0  0  0  0
  9 20  2  0  0  0  0
  9 25  1  0  0  0  0
 10 13  1  0  0  0  0
 10 17  1  0  0  0  0
 10 21  2  0  0  0  0
 11 13  1  0  0  0  0
 11 19  1  0  0  0  0
 12 13  1  0  0  0  0
 12 19  1  0  0  0  0
 14 18  1  0  0  0  0
 15 24  1  0  0  0  0
 16 26  1  0  0  0  0
 17 25  1  0  0  0  0
 19 26  1  0  0  0  0
 22 26  2  0  0  0  0
 23 26  2  0  0  0  0
  1 27  1  0  0  0  0
  2 28  1  0  0  0  0
  3 29  1  0  0  0  0
  4 30  1  0  0  0  0
 11 31  1  0  0  0  0
 11 32  1  0  0  0  0
 12 33  1  0  0  0  0
 12 34  1  0  0  0  0
 13 35  1  0  0  0  0
 14 36  1  0  0  0  0
 14 37  1  0  0  0  0
 14 38  1  0  0  0  0
 15 39  1  0  0  0  0
 15 40  1  0  0  0  0
 15 41  1  0  0  0  0
 16 42  1  0  0  0  0
 16 43  1  0  0  0  0
 16 44  1  0  0  0  0
 17 45  1  0  0  0  0
 17 46  1  0  0  0  0
M  END
> <POSIT::Probability>
0.18

> <POSIT::Method>
FRED

> <ReceptorTitle>
UCSF-P4432-REFINED_LIGAND-BOUND-STATE_A__DU__LA1_A-201(A)

> <OMEGA_C>
9i9CwkFY9sFA2T1AVDA9wgzl8sGm3SBApg48whKN58FT3Y5AoCtEwuiH6MFWNsNAOhZBwv3q6sGf
I55AywdEwkw48sEG3oVAYSo6wiqd68Go9E9AwtZIwh1T7sF2wcBAGCVNwi937sHW7t5AAdRTwkCg
2ME8UgtB8IZYwvYE0cGO6y1BGsdRwtRe2sFukjRBzVVTwqpK08F+QyFBl+pMwilL+8GwX41AyZUz
wuLN7MFw3cQ/5PdcwkJnzsGw4V5BpdlRwr4L5ME2vwlBL7hIwv4k9MF6pJtAANFVwhOg1MESCUJB
UCtQwoBA9sFg2eVAgbtVwgLT08Fk2/dABfZUwoTR2sEGImlBBGNcwvtE4sEBHVJB4U01wt5l6MEC
AjJAc6tNwtrm5MF3YfRAWd9YwtqG2cHLKFhBXIZEwvcD/MEq6BhASak7woz69cHIFsk/Ja05wszf
4cFKC6FAIRJDwnsl48FA2txAWc5ZwryryMH4my5BtOtbwm8k1sGiuClBzrtSwv7e4sFOxzJBmrJN
wkhy2cFXizpBPspQwpwczMGoUyBBdUJMwvu0AcJ8cJlAYQZNwvqG+8G4v1RAvdJQwvap+MGiNplA
O6cvwkyV6cHY2aM/oFAzwpp+9cFQOdE/sHo2wrbO6sGQLkI/4D5fwhJn0MGqOW1BZKdfwoDRzMHA
f1FB6GJawgqGx8Gt02FBBVVQwoar5sGyTRlBrSlVwrIx6cHJzARB

> <OMEGA_E>
nKzkwA==

> <OMEGA_NBR>
     96233

$$$$
CACHE3HI_1714_22
  -OEChem-03092622513D

 50 54  0     0  0  0  0  0  0999 V2000
  -56.3863  -24.6369   14.2268 C   0  0  0  0  0  0  0  0  0  0  0  0
  -56.5149  -25.4430   15.3585 C   0  0  0  0  0  0  0  0  0  0  0  0
  -55.6586  -25.0829   13.1237 C   0  0  0  0  0  0  0  0  0  0  0  0
  -55.9126  -26.7006   15.3935 C   0  0  0  0  0  0  0  0  0  0  0  0
  -48.3319  -28.7965    3.3172 C   0  0  0  0  0  0  0  0  0  0  0  0
  -49.5820  -29.5781    6.7166 C   0  0  0  0  0  0  0  0  0  0  0  0
  -50.6057  -29.1778    4.1505 C   0  0  0  0  0  0  0  0  0  0  0  0
  -46.9768  -28.7217    3.6041 C   0  0  0  0  0  0  0  0  0  0  0  0
  -47.3247  -29.1869    5.8264 C   0  0  0  0  0  0  0  0  0  0  0  0
  -49.2201  -29.0847    4.3596 C   0  0  0  0  0  0  0  0  0  0  0  0
  -48.7069  -29.2875    5.6572 C   0  0  0  0  0  0  0  0  0  0  0  0
  -55.0609  -26.3443   13.1567 C   0  0  0  0  0  0  0  0  0  0  0  0
  -55.1833  -27.1472   14.2874 C   0  0  0  0  0  0  0  0  0  0  0  0
  -50.9555  -29.6666    6.4916 C   0  0  0  0  0  0  0  0  0  0  0  0
  -51.4653  -29.4670    5.2106 C   0  0  0  0  0  0  0  0  0  0  0  0
  -54.2797  -26.8881   12.0419 C   0  0  0  0  0  0  0  0  0  0  0  0
  -54.5267  -28.4656   14.2981 C   0  0  0  0  0  0  0  0  0  0  0  0
  -51.8641  -29.9714    7.6125 C   0  0  0  0  0  0  0  0  0  0  0  0
  -54.1107  -26.1097   10.7868 C   0  0  0  0  0  0  0  0  0  0  0  0
  -52.6574  -29.1089    9.8850 C   0  0  0  0  0  0  0  0  0  0  0  0
  -51.2663  -27.7972    8.9126 C   0  0  0  0  0  0  0  0  0  0  0  0
  -52.2723  -27.6332   10.0622 C   0  0  0  0  0  0  0  0  0  0  0  0
  -53.5927  -26.4166    8.3686 C   0  0  0  0  0  0  0  0  0  0  0  0
  -46.4501  -28.9096    4.8329 N   0  0  0  0  0  0  0  0  0  0  0  0
  -53.6954  -28.0422   12.0510 N   0  0  0  0  0  0  0  0  0  0  0  0
  -53.8202  -28.8070   13.1627 N   0  0  0  0  0  0  0  0  0  0  0  0
  -51.8693  -29.0934    8.6659 N   0  0  0  0  0  0  0  0  0  0  0  0
  -53.3556  -26.6962    9.7784 N   0  0  0  0  0  0  0  0  0  0  0  0
  -54.6181  -29.1977   15.2790 O   0  0  0  0  0  0  0  0  0  0  0  0
  -52.5728  -30.9721    7.5341 O   0  0  0  0  0  0  0  0  0  0  0  0
  -54.6376  -25.0019   10.7314 O   0  0  0  0  0  0  0  0  0  0  0  0
  -52.7843  -29.5496    4.9833 F   0  0  0  0  0  0  0  0  0  0  0  0
  -56.8545  -23.6568   14.2057 H   0  0  0  0  0  0  0  0  0  0  0  0
  -57.0827  -25.0892   16.2142 H   0  0  0  0  0  0  0  0  0  0  0  0
  -55.5723  -24.4312   12.2599 H   0  0  0  0  0  0  0  0  0  0  0  0
  -56.0203  -27.3124   16.2847 H   0  0  0  0  0  0  0  0  0  0  0  0
  -48.6810  -28.6331    2.3022 H   0  0  0  0  0  0  0  0  0  0  0  0
  -49.1880  -29.7352    7.7192 H   0  0  0  0  0  0  0  0  0  0  0  0
  -51.0267  -29.0246    3.1592 H   0  0  0  0  0  0  0  0  0  0  0  0
  -46.2572  -28.5001    2.8228 H   0  0  0  0  0  0  0  0  0  0  0  0
  -46.8635  -29.3312    6.7996 H   0  0  0  0  0  0  0  0  0  0  0  0
  -52.2736  -29.7805   10.6607 H   0  0  0  0  0  0  0  0  0  0  0  0
  -53.7170  -29.3199    9.6958 H   0  0  0  0  0  0  0  0  0  0  0  0
  -51.3778  -27.1156    8.0606 H   0  0  0  0  0  0  0  0  0  0  0  0
  -50.2153  -27.8471    9.2176 H   0  0  0  0  0  0  0  0  0  0  0  0
  -51.8017  -27.4166   11.0265 H   0  0  0  0  0  0  0  0  0  0  0  0
  -52.9925  -25.5634    8.0394 H   0  0  0  0  0  0  0  0  0  0  0  0
  -53.3285  -27.2867    7.7611 H   0  0  0  0  0  0  0  0  0  0  0  0
  -54.6490  -26.1880    8.2014 H   0  0  0  0  0  0  0  0  0  0  0  0
  -53.3540  -29.7087   13.1601 H   0  0  0  0  0  0  0  0  0  0  0  0
  1  2  1  0  0  0  0
  1  3  2  0  0  0  0
  2  4  2  0  0  0  0
  3 12  1  0  0  0  0
  4 13  1  0  0  0  0
  5  8  2  0  0  0  0
  5 10  1  0  0  0  0
  6 11  2  0  0  0  0
  6 14  1  0  0  0  0
  7 10  2  0  0  0  0
  7 15  1  0  0  0  0
  8 24  1  0  0  0  0
  9 11  1  0  0  0  0
  9 24  2  0  0  0  0
 10 11  1  0  0  0  0
 12 13  2  0  0  0  0
 12 16  1  0  0  0  0
 13 17  1  0  0  0  0
 14 15  2  0  0  0  0
 14 18  1  0  0  0  0
 15 32  1  0  0  0  0
 16 19  1  0  0  0  0
 16 25  2  0  0  0  0
 17 26  1  0  0  0  0
 17 29  2  0  0  0  0
 18 27  1  0  0  0  0
 18 30  2  0  0  0  0
 19 28  1  0  0  0  0
 19 31  2  0  0  0  0
 20 22  1  0  0  0  0
 20 27  1  0  0  0  0
 21 22  1  0  0  0  0
 21 27  1  0  0  0  0
 22 28  1  0  0  0  0
 23 28  1  0  0  0  0
 25 26  1  0  0  0  0
  1 33  1  0  0  0  0
  2 34  1  0  0  0  0
  3 35  1  0  0  0  0
  4 36  1  0  0  0  0
  5 37  1  0  0  0  0
  6 38  1  0  0  0  0
  7 39  1  0  0  0  0
  8 40  1  0  0  0  0
  9 41  1  0  0  0  0
 20 42  1  0  0  0  0
 20 43  1  0  0  0  0
 21 44  1  0  0  0  0
 21 45  1  0  0  0  0
 22 46  1  0  0  0  0
 23 47  1  0  0  0  0
 23 48  1  0  0  0  0
 23 49  1  0  0  0  0
 26 50  1  0  0  0  0
M  END
> <POSIT::Probability>
0.23

> <POSIT::Method>
HYBRID

> <ReceptorTitle>
UCSF-P4432-REFINED_LIGAND-BOUND-STATE_A__DU__LA1_A-201(A)

> <OMEGA_C>
lothwl4YxcHaoGNBSA9iwjyLy8FYvHVBc6JewsCpyMGf+lFBi6ZfwtKa1cHhS3ZB41NBwipf5sF2
TVRA8FNGwtyf7MG97tZAP2xKwi5s6cGl0IRAPug7wvzF5cEgqWZAekw9wsl+6cGgcbpAX+FEwoyt
6MEIgotA1tNCwtZM6sF0B7VAZT5cwjHB0sG5gVJBqbtcwnAt2cFCmWRBctJLwkBV7cF6u89AhNxN
wmG868E3vaZAXx5Zwr4a18Fuq0BBYRtawnS548EGxWRB13RPwmvF78HzmfNAUnFYwqzg0MHslixB
OKFSwgTf6MEdKR5BsBBNwsJg3sEqmg5BzhZRwrQQ3cGp/iBB915WwiFV08Gu5QVB7sw5wshG58HJ
pppACshWwnNW4MHv0EBB5EdXwtJ05sFKmlJBMnpPwl6/6MFrpwpBHmxVwriR1cEwdBxB5HhawvCU
6cG8dnRBh0pSwszG98G5F/FA8oxawuMDyMGmsytBJCNTwpFl7MExd59ADWtjwh5BvcG3SmNBp1Rk
wrm2yMG/toFB/klewhVzw8GyKERBvxRgwrh/2sEGR4JBXrlCwoQQ5cHgVxNAecBEwrTh7cG8A/dA
VhtMwmUy6MGYL0pAbAc5wkAA5MEUqTRARXQ7wmCm6sGoltlAKhhRwmE+7sFhkipBQd5WwjaP6sEl
IhtB4IJNwqbs2MFe+ABBc9xIwsjG3sFyexNB7jRPwjhV28GqbDBBX/hTwt+BzMGLoQBBWVBVwjpL
2sETW/hAiphawhqB0cESOQNBempVwm6r7cHQj1JB

> <OMEGA_E>
AF2RwA==

> <OMEGA_NBR>
     97734

$$$$
CACHE3HI_1715_13
  -OEChem-03092622513D

 45 48  0     0  0  0  0  0  0999 V2000
  -47.2196  -34.4782    0.1575 C   0  0  0  0  0  0  0  0  0  0  0  0
  -52.3819  -31.5006    4.6718 C   0  0  0  0  0  0  0  0  0  0  0  0
  -45.8687  -34.5057   -0.1890 C   0  0  0  0  0  0  0  0  0  0  0  0
  -52.8544  -30.2392    5.0344 C   0  0  0  0  0  0  0  0  0  0  0  0
  -47.6877  -33.5253    1.0621 C   0  0  0  0  0  0  0  0  0  0  0  0
  -51.0680  -31.6516    4.2287 C   0  0  0  0  0  0  0  0  0  0  0  0
  -44.9861  -33.5805    0.3688 C   0  0  0  0  0  0  0  0  0  0  0  0
  -52.0132  -29.1293    4.9542 C   0  0  0  0  0  0  0  0  0  0  0  0
  -47.6808  -30.0738    3.9287 C   0  0  0  0  0  0  0  0  0  0  0  0
  -46.8051  -32.6001    1.6199 C   0  0  0  0  0  0  0  0  0  0  0  0
  -50.2269  -30.5417    4.1484 C   0  0  0  0  0  0  0  0  0  0  0  0
  -45.4543  -32.6276    1.2735 C   0  0  0  0  0  0  0  0  0  0  0  0
  -50.6993  -29.2804    4.5110 C   0  0  0  0  0  0  0  0  0  0  0  0
  -48.8782  -30.7026    3.6933 C   0  0  0  0  0  0  0  0  0  0  0  0
  -47.3194  -31.6239    2.5538 C   0  0  0  0  0  0  0  0  0  0  0  0
  -43.2618  -26.9706    1.3518 C   0  0  0  0  0  0  0  0  0  0  0  0
  -43.8998  -28.1241    1.1019 C   0  0  0  0  0  0  0  0  0  0  0  0
  -44.4812  -31.6607    1.8424 C   0  0  0  0  0  0  0  0  0  0  0  0
  -44.7329  -25.8228   -0.0315 C   0  0  0  0  0  0  0  0  0  0  0  0
  -45.7395  -26.8897    0.3686 C   0  0  0  0  0  0  0  0  0  0  0  0
  -43.3854  -29.4550    1.5429 C   0  0  0  0  0  0  0  0  0  0  0  0
  -46.6856  -30.6685    3.1960 N   0  0  0  0  0  0  0  0  0  0  0  0
  -44.3087  -30.4790    1.1325 N   0  0  0  0  0  0  0  0  0  0  0  0
  -43.8786  -31.9516    2.8722 O   0  0  0  0  0  0  0  0  0  0  0  0
  -48.6550  -31.7089    2.8031 O   0  0  0  0  0  0  0  0  0  0  0  0
  -43.6775  -25.7313    0.9335 O   0  0  0  0  0  0  0  0  0  0  0  0
  -45.1079  -28.1746    0.4275 O   0  0  0  0  0  0  0  0  0  0  0  0
  -49.9032  -28.2035    4.4390 F   0  0  0  0  0  0  0  0  0  0  0  0
  -47.9067  -35.1976   -0.2782 H   0  0  0  0  0  0  0  0  0  0  0  0
  -53.0375  -32.3643    4.7343 H   0  0  0  0  0  0  0  0  0  0  0  0
  -45.5043  -35.2469   -0.8946 H   0  0  0  0  0  0  0  0  0  0  0  0
  -53.8774  -30.1209    5.3794 H   0  0  0  0  0  0  0  0  0  0  0  0
  -48.7443  -33.5172    1.3200 H   0  0  0  0  0  0  0  0  0  0  0  0
  -50.7150  -32.6412    3.9481 H   0  0  0  0  0  0  0  0  0  0  0  0
  -43.9362  -33.6126    0.0885 H   0  0  0  0  0  0  0  0  0  0  0  0
  -52.3808  -28.1474    5.2371 H   0  0  0  0  0  0  0  0  0  0  0  0
  -47.4790  -29.2339    4.5772 H   0  0  0  0  0  0  0  0  0  0  0  0
  -42.3397  -26.8938    1.9116 H   0  0  0  0  0  0  0  0  0  0  0  0
  -44.2834  -26.0629   -0.9997 H   0  0  0  0  0  0  0  0  0  0  0  0
  -45.2113  -24.8389   -0.1098 H   0  0  0  0  0  0  0  0  0  0  0  0
  -46.1539  -26.6735    1.3580 H   0  0  0  0  0  0  0  0  0  0  0  0
  -46.5693  -26.9432   -0.3469 H   0  0  0  0  0  0  0  0  0  0  0  0
  -42.4049  -29.6301    1.0968 H   0  0  0  0  0  0  0  0  0  0  0  0
  -43.2805  -29.4681    2.6290 H   0  0  0  0  0  0  0  0  0  0  0  0
  -44.8007  -30.3407    0.2525 H   0  0  0  0  0  0  0  0  0  0  0  0
  1  3  1  0  0  0  0
  1  5  2  0  0  0  0
  2  4  1  0  0  0  0
  2  6  2  0  0  0  0
  3  7  2  0  0  0  0
  4  8  2  0  0  0  0
  5 10  1  0  0  0  0
  6 11  1  0  0  0  0
  7 12  1  0  0  0  0
  8 13  1  0  0  0  0
  9 14  2  0  0  0  0
  9 22  1  0  0  0  0
 10 12  2  0  0  0  0
 10 15  1  0  0  0  0
 11 13  2  0  0  0  0
 11 14  1  0  0  0  0
 12 18  1  0  0  0  0
 13 28  1  0  0  0  0
 14 25  1  0  0  0  0
 15 22  2  0  0  0  0
 15 25  1  0  0  0  0
 16 17  2  0  0  0  0
 16 26  1  0  0  0  0
 17 21  1  0  0  0  0
 17 27  1  0  0  0  0
 18 23  1  0  0  0  0
 18 24  2  0  0  0  0
 19 20  1  0  0  0  0
 19 26  1  0  0  0  0
 20 27  1  0  0  0  0
 21 23  1  0  0  0  0
  1 29  1  0  0  0  0
  2 30  1  0  0  0  0
  3 31  1  0  0  0  0
  4 32  1  0  0  0  0
  5 33  1  0  0  0  0
  6 34  1  0  0  0  0
  7 35  1  0  0  0  0
  8 36  1  0  0  0  0
  9 37  1  0  0  0  0
 16 38  1  0  0  0  0
 19 39  1  0  0  0  0
 19 40  1  0  0  0  0
 20 41  1  0  0  0  0
 20 42  1  0  0  0  0
 21 43  1  0  0  0  0
 21 44  1  0  0  0  0
 23 45  1  0  0  0  0
M  END
> <POSIT::Probability>
0.01

> <POSIT::Method>
FRED

> <ReceptorTitle>
UCSF-P4432-REFINED_LIGAND-BOUND-STATE_A__DU__LA1_A-201(A)

> <OMEGA_C>
0uA8wqfpCcIgOyE+EodRwi4B/MF6f5VAgXk3wtQFCsKghkG+5mpTwvHp8cHdGaFALcA+wu4ZBsKU
8oc/rUVMwok2/cEmUYdAyvEzwmdSBsKQ0bw+jg1QwrwI6cGGiJ5AL7k+wjqX8MGvb3tAeDg7woNm
AsLUV88/VehIwlVV9MHNv4RAL9E1wqeCAsK4AKM/HMxKwis+6sEEWpBAU4NDwuue9cGhXmxAE0c9
wtD9/MHlcCNAFgwtwr7D18EUB60/cZkvwjv+4MGwCo0/zOwxwjVJ/cFy0+s/hu4ywgiVzsEA2QC9
O/U2wgYe18Gwubw+sootwtqj68HcfcU/C746wi9Z9cHoi0xAFjwxwu3U88GY9ZA/poMvwtec/8FE
0jdAvJ5Cwu2r/cGAZTNAxLUuwsjZzcEU+24/gm40wptl4cGQ59o+65xHwsig4cFoDI5AcKA/wlHK
DMKgao6+XiZUwgx1AcJKf5dAYwQ2wsf8DMJgAmW/cIJXwpX38MHSI6xAL/pCwpQRBsKM9qg/INxK
wp+QAsJarXxAoL4vwkRzBsLAPbU97YVRwsct4cEzlqdAduo9whvf6cFMeJJA3VspwoMm18HYrfQ/
LiIxwuWA0MFg7X+/a9g0wg62xsFA2OC9lJ04wkBj1cH80q0/6kY6wsKL18HgmLG+nZ4pwosK7cE4
ZIw/NR8twqO+68EIQihA5TMzwsO58sHgTYE+

> <OMEGA_E>
SRrWwA==

> <OMEGA_NBR>
     99126

$$$$
CACHE3HI_1715_16
  -OEChem-03092622513D

 55 58  0     0  0  0  0  0  0999 V2000
  -54.2583  -28.5669    5.0873 C   0  0  0  0  0  0  0  0  0  0  0  0
  -53.0188  -28.8457    4.5114 C   0  0  0  0  0  0  0  0  0  0  0  0
  -54.3840  -28.5067    6.4751 C   0  0  0  0  0  0  0  0  0  0  0  0
  -52.0311  -29.0037    6.7107 C   0  0  0  0  0  0  0  0  0  0  0  0
  -48.2583  -30.3933    3.2087 C   0  0  0  0  0  0  0  0  0  0  0  0
  -48.2862  -29.8257    4.4968 C   0  0  0  0  0  0  0  0  0  0  0  0
  -51.9053  -29.0639    5.3229 C   0  0  0  0  0  0  0  0  0  0  0  0
  -53.2706  -28.7250    7.2867 C   0  0  0  0  0  0  0  0  0  0  0  0
  -46.9732  -29.5265    4.7679 C   0  0  0  0  0  0  0  0  0  0  0  0
  -44.5316  -29.6601    2.0332 C   0  0  0  0  0  0  0  0  0  0  0  0
  -43.2317  -29.5537    1.7613 C   0  0  0  0  0  0  0  0  0  0  0  0
  -44.9063  -29.8261    3.4555 C   0  0  0  0  0  0  0  0  0  0  0  0
  -42.2410  -29.6079    2.8545 C   0  0  0  0  0  0  0  0  0  0  0  0
  -49.4476  -29.5863    5.3934 C   0  0  0  0  0  0  0  0  0  0  0  0
  -54.5486  -28.3996    9.4270 C   0  0  0  0  0  0  0  0  0  0  0  0
  -54.8861  -25.7961   12.1346 C   0  0  0  0  0  0  0  0  0  0  0  0
  -56.0087  -26.7418   11.7255 C   0  0  0  0  0  0  0  0  0  0  0  0
  -53.6585  -25.9704   11.2481 C   0  0  0  0  0  0  0  0  0  0  0  0
  -55.5480  -28.1995   11.7092 C   0  0  0  0  0  0  0  0  0  0  0  0
  -53.1670  -27.4169   11.2445 C   0  0  0  0  0  0  0  0  0  0  0  0
  -54.2672  -28.4236   10.9016 C   0  0  0  0  0  0  0  0  0  0  0  0
  -46.3371  -28.9152    5.9518 C   0  0  0  0  0  0  0  0  0  0  0  0
  -47.0259  -30.4519    2.6974 N   0  0  0  0  0  0  0  0  0  0  0  0
  -44.0574  -29.8955    4.4328 N   0  0  0  0  0  0  0  0  0  0  0  0
  -46.2665  -29.9175    3.6688 N   0  0  0  0  0  0  0  0  0  0  0  0
  -42.7435  -29.7859    4.1214 N   0  0  0  0  0  0  0  0  0  0  0  0
  -50.6660  -29.3418    4.7457 N   0  0  0  0  0  0  0  0  0  0  0  0
  -53.3986  -28.6632    8.6942 N   0  0  0  0  0  0  0  0  0  0  0  0
  -41.0425  -29.5010    2.6039 O   0  0  0  0  0  0  0  0  0  0  0  0
  -49.2481  -29.6002    6.6034 O   0  0  0  0  0  0  0  0  0  0  0  0
  -55.6794  -28.1754    9.0069 O   0  0  0  0  0  0  0  0  0  0  0  0
  -55.1253  -28.3973    4.4554 H   0  0  0  0  0  0  0  0  0  0  0  0
  -52.9320  -28.8903    3.4284 H   0  0  0  0  0  0  0  0  0  0  0  0
  -55.3547  -28.2891    6.9135 H   0  0  0  0  0  0  0  0  0  0  0  0
  -51.1628  -29.1736    7.3437 H   0  0  0  0  0  0  0  0  0  0  0  0
  -49.0839  -30.7668    2.6198 H   0  0  0  0  0  0  0  0  0  0  0  0
  -45.2897  -29.6248    1.2610 H   0  0  0  0  0  0  0  0  0  0  0  0
  -42.8736  -29.4265    0.7467 H   0  0  0  0  0  0  0  0  0  0  0  0
  -55.2379  -24.7599   12.0770 H   0  0  0  0  0  0  0  0  0  0  0  0
  -54.6123  -25.9826   13.1803 H   0  0  0  0  0  0  0  0  0  0  0  0
  -56.8527  -26.6322   12.4160 H   0  0  0  0  0  0  0  0  0  0  0  0
  -56.3757  -26.4624   10.7303 H   0  0  0  0  0  0  0  0  0  0  0  0
  -53.8941  -25.6509   10.2262 H   0  0  0  0  0  0  0  0  0  0  0  0
  -52.8553  -25.3143   11.6031 H   0  0  0  0  0  0  0  0  0  0  0  0
  -55.3676  -28.5171   12.7442 H   0  0  0  0  0  0  0  0  0  0  0  0
  -56.3599  -28.8287   11.3243 H   0  0  0  0  0  0  0  0  0  0  0  0
  -52.3310  -27.5105   10.5407 H   0  0  0  0  0  0  0  0  0  0  0  0
  -52.7701  -27.6545   12.2399 H   0  0  0  0  0  0  0  0  0  0  0  0
  -53.8894  -29.4321   11.1123 H   0  0  0  0  0  0  0  0  0  0  0  0
  -46.0323  -29.6718    6.6948 H   0  0  0  0  0  0  0  0  0  0  0  0
  -47.0203  -28.2274    6.4791 H   0  0  0  0  0  0  0  0  0  0  0  0
  -45.4386  -28.3430    5.6684 H   0  0  0  0  0  0  0  0  0  0  0  0
  -42.0767  -29.8396    4.8848 H   0  0  0  0  0  0  0  0  0  0  0  0
  -50.6438  -29.3708    3.7198 H   0  0  0  0  0  0  0  0  0  0  0  0
  -52.5424  -28.8334    9.2174 H   0  0  0  0  0  0  0  0  0  0  0  0
  1  2  2  0  0  0  0
  1  3  1  0  0  0  0
  2  7  1  0  0  0  0
  3  8  2  0  0  0  0
  4  7  2  0  0  0  0
  4  8  1  0  0  0  0
  5  6  1  0  0  0  0
  5 23  2  0  0  0  0
  6  9  2  0  0  0  0
  6 14  1  0  0  0  0
  7 27  1  0  0  0  0
  8 28  1  0  0  0  0
  9 22  1  0  0  0  0
  9 25  1  0  0  0  0
 10 11  2  0  0  0  0
 10 12  1  0  0  0  0
 11 13  1  0  0  0  0
 12 24  2  0  0  0  0
 12 25  1  0  0  0  0
 13 26  1  0  0  0  0
 13 29  2  0  0  0  0
 14 27  1  0  0  0  0
 14 30  2  0  0  0  0
 15 21  1  0  0  0  0
 15 28  1  0  0  0  0
 15 31  2  0  0  0  0
 16 17  1  0  0  0  0
 16 18  1  0  0  0  0
 17 19  1  0  0  0  0
 18 20  1  0  0  0  0
 19 21  1  0  0  0  0
 20 21  1  0  0  0  0
 23 25  1  0  0  0  0
 24 26  1  0  0  0  0
  1 32  1  0  0  0  0
  2 33  1  0  0  0  0
  3 34  1  0  0  0  0
  4 35  1  0  0  0  0
  5 36  1  0  0  0  0
 10 37  1  0  0  0  0
 11 38  1  0  0  0  0
 16 39  1  0  0  0  0
 16 40  1  0  0  0  0
 17 41  1  0  0  0  0
 17 42  1  0  0  0  0
 18 43  1  0  0  0  0
 18 44  1  0  0  0  0
 19 45  1  0  0  0  0
 19 46  1  0  0  0  0
 20 47  1  0  0  0  0
 20 48  1  0  0  0  0
 21 49  1  0  0  0  0
 22 50  1  0  0  0  0
 22 51  1  0  0  0  0
 22 52  1  0  0  0  0
 26 53  1  0  0  0  0
 27 54  1  0  0  0  0
 28 55  1  0  0  0  0
M  END
> <POSIT::Probability>
0.24

> <POSIT::Method>
FRED

> <ReceptorTitle>
UCSF-P4432-REFINED_LIGAND-BOUND-STATE_A__DU__LA1_A-201(A)

> <OMEGA_C>
eAhZwhSJ5MGHy6JAQhNUwvbD5sEkXZBAQYlZwtEN5MFrNM9A4R9Qwp8H6MFtvtZAhghBwmIl88Ee
XE1AHiVBwgib7sF+5Y9AEp9PwueC6MEbVapAEBVVwsDM5cFgLOlAkeQ7wlg27MFLkphAYCAywtRH
7cFbHwJAS+0swgJu7MEdcuE/GaAzwuCb7sEKJ11AxvYowgPd7ME+sDZAXMpFwsGw7MFulqxAvDFa
wmEy48Hl1BZBWItbwlZezsFDJ0JB3ghgwiXv1cGbmztBVqJWwnbDz8Ez+DNBMTFewp2Y4cGuWDtB
/apUws9V28GL6TNBmhFZwn5j48EmbS5BN1k5wmBS58HKdL5Afxo8wm+d88EuoixAzjowwvIp78FG
2Y1A4xA5whFX78EizmpAUPkqwpNJ7sF+4oNA8qlKwhW86sG63JdAMJhVwiZO5cFCGwtBiyskwgQC
7MEkpiZACf5EwknN7MH1TtNAqbdewktn4cEZHBBBWIBcwrYt48GQko5AY7pTwmEf58Eza1tAMGtd
whlQ4sEEO91AvqZMwp5j6cF0/+pA71VEwnEi9sHeqidAoig1woj/7MGxZ6E/jn4rwoVp68HMJT8/
qPNcwl0UxsFYO0FB/HJawmrcz8Fn4lJBH2ljwskO1cH+p0ZBq4BhwvSy08F+rytBi5NXwh81zcFs
niNB22tTwsiDysE/pjlBeHhdwu4i5ME/6EtBk3BhwkSh5sFOMDVB9lJRwn4V3MHkpihBkBRTwm08
3cGQ1kNByY5Xwv9068HtyzFBByE4wtZf7cEwPNZA0BQ8wsDR4cFkVM9AJcE1wnm+4sHfY7VAk04o
wn237sFHUJxAR5NKwnD36sFAEW5AcCtSwt+q5sF+ehNB

> <OMEGA_E>
CvoSwQ==

> <OMEGA_NBR>
    100720

$$$$
CACHE3HI_1715_42
  -OEChem-03092622513D

 53 56  0     0  0  0  0  0  0999 V2000
  -53.8884  -25.8286   10.6690 C   0  0  0  0  0  0  0  0  0  0  0  0
  -54.8544  -26.1051    9.7015 C   0  0  0  0  0  0  0  0  0  0  0  0
  -52.6349  -26.4359   10.5956 C   0  0  0  0  0  0  0  0  0  0  0  0
  -47.3124  -28.1583    5.5890 C   0  0  0  0  0  0  0  0  0  0  0  0
  -42.8090  -28.6651    0.8323 C   0  0  0  0  0  0  0  0  0  0  0  0
  -48.6919  -28.1223    5.3856 C   0  0  0  0  0  0  0  0  0  0  0  0
  -54.5669  -26.9884    8.6607 C   0  0  0  0  0  0  0  0  0  0  0  0
  -52.3474  -27.3191    9.5548 C   0  0  0  0  0  0  0  0  0  0  0  0
  -46.5220  -29.0393    4.8510 C   0  0  0  0  0  0  0  0  0  0  0  0
  -43.2210  -27.3331    0.7919 C   0  0  0  0  0  0  0  0  0  0  0  0
  -43.7464  -29.6788    1.0300 C   0  0  0  0  0  0  0  0  0  0  0  0
  -48.4905  -29.8478    3.7064 C   0  0  0  0  0  0  0  0  0  0  0  0
  -45.5076  -28.0285    1.1465 C   0  0  0  0  0  0  0  0  0  0  0  0
  -49.2809  -28.9668    4.4444 C   0  0  0  0  0  0  0  0  0  0  0  0
  -53.3134  -27.5956    8.5873 C   0  0  0  0  0  0  0  0  0  0  0  0
  -47.1110  -29.8838    3.9097 C   0  0  0  0  0  0  0  0  0  0  0  0
  -44.5701  -27.0147    0.9488 C   0  0  0  0  0  0  0  0  0  0  0  0
  -45.0955  -29.3605    1.1869 C   0  0  0  0  0  0  0  0  0  0  0  0
  -50.7338  -28.9291    4.2318 C   0  0  0  0  0  0  0  0  0  0  0  0
  -53.6679  -28.3158    6.2373 C   0  0  0  0  0  0  0  0  0  0  0  0
  -52.1526  -29.6397    7.7115 C   0  0  0  0  0  0  0  0  0  0  0  0
  -53.0077  -29.1918    5.1703 C   0  0  0  0  0  0  0  0  0  0  0  0
  -51.0510  -29.5943    6.6538 C   0  0  0  0  0  0  0  0  0  0  0  0
  -53.0262  -28.4774    7.5491 N   0  0  0  0  0  0  0  0  0  0  0  0
  -51.5548  -29.2216    5.3249 N   0  0  0  0  0  0  0  0  0  0  0  0
  -46.3010  -30.7855    3.1551 N   0  0  0  0  0  0  0  0  0  0  0  0
  -51.1162  -28.6358    3.1014 O   0  0  0  0  0  0  0  0  0  0  0  0
  -45.7198  -31.8586    0.8713 O   0  0  0  0  0  0  0  0  0  0  0  0
  -47.5681  -30.1625    0.9668 O   0  0  0  0  0  0  0  0  0  0  0  0
  -44.9652  -25.7354    0.9098 F   0  0  0  0  0  0  0  0  0  0  0  0
  -46.2850  -30.6474    1.4377 S   0  0  0  0  0  0  0  0  0  0  0  0
  -54.1127  -25.1418   11.4797 H   0  0  0  0  0  0  0  0  0  0  0  0
  -55.8305  -25.6320    9.7584 H   0  0  0  0  0  0  0  0  0  0  0  0
  -51.8827  -26.2205   11.3490 H   0  0  0  0  0  0  0  0  0  0  0  0
  -46.8541  -27.5010    6.3220 H   0  0  0  0  0  0  0  0  0  0  0  0
  -41.7586  -28.9126    0.7100 H   0  0  0  0  0  0  0  0  0  0  0  0
  -49.2986  -27.4321    5.9664 H   0  0  0  0  0  0  0  0  0  0  0  0
  -55.3278  -27.1970    7.9130 H   0  0  0  0  0  0  0  0  0  0  0  0
  -51.3671  -27.7867    9.5068 H   0  0  0  0  0  0  0  0  0  0  0  0
  -45.4480  -29.0595    5.0166 H   0  0  0  0  0  0  0  0  0  0  0  0
  -42.4916  -26.5433    0.6381 H   0  0  0  0  0  0  0  0  0  0  0  0
  -43.4149  -30.7133    1.0599 H   0  0  0  0  0  0  0  0  0  0  0  0
  -48.9491  -30.5070    2.9726 H   0  0  0  0  0  0  0  0  0  0  0  0
  -46.5558  -27.7691    1.2677 H   0  0  0  0  0  0  0  0  0  0  0  0
  -53.6161  -27.2612    5.9337 H   0  0  0  0  0  0  0  0  0  0  0  0
  -54.7306  -28.5826    6.3085 H   0  0  0  0  0  0  0  0  0  0  0  0
  -52.7415  -30.5481    7.6011 H   0  0  0  0  0  0  0  0  0  0  0  0
  -51.6926  -29.6490    8.6983 H   0  0  0  0  0  0  0  0  0  0  0  0
  -53.3634  -30.2190    5.2536 H   0  0  0  0  0  0  0  0  0  0  0  0
  -53.2707  -28.8194    4.1824 H   0  0  0  0  0  0  0  0  0  0  0  0
  -50.2927  -28.8519    6.9247 H   0  0  0  0  0  0  0  0  0  0  0  0
  -50.5474  -30.5634    6.5946 H   0  0  0  0  0  0  0  0  0  0  0  0
  -45.3969  -31.0341    3.5876 H   0  0  0  0  0  0  0  0  0  0  0  0
  1  2  1  0  0  0  0
  1  3  2  0  0  0  0
  2  7  2  0  0  0  0
  3  8  1  0  0  0  0
  4  6  2  0  0  0  0
  4  9  1  0  0  0  0
  5 10  1  0  0  0  0
  5 11  2  0  0  0  0
  6 14  1  0  0  0  0
  7 15  1  0  0  0  0
  8 15  2  0  0  0  0
  9 16  2  0  0  0  0
 10 17  2  0  0  0  0
 11 18  1  0  0  0  0
 12 14  2  0  0  0  0
 12 16  1  0  0  0  0
 13 17  1  0  0  0  0
 13 18  2  0  0  0  0
 14 19  1  0  0  0  0
 15 24  1  0  0  0  0
 16 26  1  0  0  0  0
 17 30  1  0  0  0  0
 18 31  1  0  0  0  0
 19 25  1  0  0  0  0
 19 27  2  0  0  0  0
 20 22  1  0  0  0  0
 20 24  1  0  0  0  0
 21 23  1  0  0  0  0
 21 24  1  0  0  0  0
 22 25  1  0  0  0  0
 23 25  1  0  0  0  0
 26 31  1  0  0  0  0
 28 31  2  0  0  0  0
 29 31  2  0  0  0  0
  1 32  1  0  0  0  0
  2 33  1  0  0  0  0
  3 34  1  0  0  0  0
  4 35  1  0  0  0  0
  5 36  1  0  0  0  0
  6 37  1  0  0  0  0
  7 38  1  0  0  0  0
  8 39  1  0  0  0  0
  9 40  1  0  0  0  0
 10 41  1  0  0  0  0
 11 42  1  0  0  0  0
 12 43  1  0  0  0  0
 13 44  1  0  0  0  0
 20 45  1  0  0  0  0
 20 46  1  0  0  0  0
 21 47  1  0  0  0  0
 21 48  1  0  0  0  0
 22 49  1  0  0  0  0
 22 50  1  0  0  0  0
 23 51  1  0  0  0  0
 23 52  1  0  0  0  0
 26 53  1  0  0  0  0
M  END
> <POSIT::Probability>
0.24

> <POSIT::Method>
FRED

> <ReceptorTitle>
UCSF-P4432-REFINED_LIGAND-BOUND-STATE_A__DU__LA1_A-201(A)

> <OMEGA_C>
tY1XwhChzsFKtCpB5mpbwlPX0MFbORtBF4pSwql808GehylB5z89wjVE4cHL2LJAaDwrwhtS5cHG
ElU/h8RCwoH64ME5V6xAi0RawjLo18E9kgpBvWNRwoeN2sGA4BhBjRY6wmxQ6MEaO5tATuIswhqq
2sHUuko/WvwuwiFu7cFk1oM/RPZBwk/I7sHbNW1Avgc2wlQ64MHgwJI/qx9Fwgm858G/OI5A4EBV
wtLD3MGmZQlBsXE8wvUR78FEOXpAxkcywjAe2ME653I/0mE0wjji6sGM7Jc/aO9Kwthu58G1aodA
6KtWws2G4sHWl8dAT5xQwiQe7cHixPZA2gdUwuSI6cHscqVANTRMwhvB7MHC69RA2BpUwq7R48Ho
kfFAEThOwszF6cGOZapANDQ5wrNI9sFb7UlABndMwiYW5cHHfEZAEOE2wlPe/sEkEF8/tEU+wsBM
8cGOfXc/UtwzwhzizcGc62g/4iM5wvEt9cHvBLg/XHNYwlQiycH8rDdBa1JfwmkOzcGVIhxB2YdP
wq7D0cGalTVBl2o7wgEC3MEsTspA0QgnwhNN58HOxDU/uDFFwvd028EE7b5AqU9dwoiT2cGEN/1A
9XdNwjVL3sHHGxhBuMo1wut56ME7iKBAXvcpwrxY1MEWXCM/4agtwr+09cHyqoc/5MtDwm8O9MGs
Pj5AGzk6wiQn3sHCQqI/43ZWwgUX2sGJ4L1AJexawjyp5MEW38lASPdSwmpi9MFmPPNAQcVOwhYx
7cEnLAtBIXRVwpzA8cG2HahANBVVwhKO5sFy1oVAvytJwp7Q5sEPl91AfzBKwsqB9MHKBtNAY5Y1
wu1F+MGsmmVA

> <OMEGA_E>
bEbswA==

> <OMEGA_NBR>
    102272

$$$$
CACHE3HI_1715_60
  -OEChem-03092622513D

 49 52  0     1  0  0  0  0  0999 V2000
  -49.5518  -29.5116    3.4505 C   0  0  0  0  0  0  0  0  0  0  0  0
  -43.9328  -29.5507    1.4129 C   0  0  0  0  0  0  0  0  0  0  0  0
  -43.4717  -28.3660    0.8381 C   0  0  0  0  0  0  0  0  0  0  0  0
  -50.8634  -29.1283    3.7305 C   0  0  0  0  0  0  0  0  0  0  0  0
  -49.0340  -29.4596    5.8099 C   0  0  0  0  0  0  0  0  0  0  0  0
  -46.2032  -28.7249    1.3072 C   0  0  0  0  0  0  0  0  0  0  0  0
  -48.6370  -29.6770    4.4904 C   0  0  0  0  0  0  0  0  0  0  0  0
  -45.2963  -29.7276    1.6521 C   0  0  0  0  0  0  0  0  0  0  0  0
  -50.3456  -29.0764    6.0900 C   0  0  0  0  0  0  0  0  0  0  0  0
  -44.3762  -27.3579    0.5052 C   0  0  0  0  0  0  0  0  0  0  0  0
  -45.7437  -27.5462    0.7197 C   0  0  0  0  0  0  0  0  0  0  0  0
  -51.2604  -28.9109    5.0501 C   0  0  0  0  0  0  0  0  0  0  0  0
  -47.2548  -30.0804    4.1952 C   0  0  0  0  0  0  0  0  0  0  0  0
  -52.0017  -28.4747    7.8831 C   0  0  0  0  0  0  0  0  0  0  0  0
  -47.2850  -32.8507    1.8340 C   0  0  0  0  0  0  0  0  0  0  0  0
  -46.1362  -32.0646    1.2150 C   0  0  0  0  0  0  0  0  0  0  0  0
  -48.0542  -31.7922    2.6023 C   0  0  0  0  0  0  0  0  0  0  0  0
  -44.8067  -25.1381   -0.0144 C   0  0  0  0  0  0  0  0  0  0  0  0
  -46.1584  -25.6190   -0.5052 C   0  0  0  0  0  0  0  0  0  0  0  0
  -45.7924  -31.0110    2.2815 C   0  0  2  0  0  0  0  0  0  0  0  0
  -52.0198  -28.3468    9.3856 C   0  0  0  0  0  0  0  0  0  0  0  0
  -47.0302  -30.8722    3.0746 N   0  0  0  0  0  0  0  0  0  0  0  0
  -50.7406  -28.8598    7.4105 N   0  0  0  0  0  0  0  0  0  0  0  0
  -46.3851  -29.6924    4.9733 O   0  0  0  0  0  0  0  0  0  0  0  0
  -53.0125  -28.2582    7.2221 O   0  0  0  0  0  0  0  0  0  0  0  0
  -43.8604  -26.2093   -0.0368 O   0  0  0  0  0  0  0  0  0  0  0  0
  -46.6842  -26.6077    0.3844 O   0  0  0  0  0  0  0  0  0  0  0  0
  -52.5237  -28.5429    5.3066 F   0  0  0  0  0  0  0  0  0  0  0  0
  -49.2535  -29.6783    2.4185 H   0  0  0  0  0  0  0  0  0  0  0  0
  -43.2216  -30.3294    1.6757 H   0  0  0  0  0  0  0  0  0  0  0  0
  -42.4076  -28.2328    0.6632 H   0  0  0  0  0  0  0  0  0  0  0  0
  -51.5758  -28.9991    2.9211 H   0  0  0  0  0  0  0  0  0  0  0  0
  -48.3201  -29.5890    6.6208 H   0  0  0  0  0  0  0  0  0  0  0  0
  -47.2665  -28.8662    1.4855 H   0  0  0  0  0  0  0  0  0  0  0  0
  -47.9157  -33.2771    1.0465 H   0  0  0  0  0  0  0  0  0  0  0  0
  -46.9352  -33.6631    2.4754 H   0  0  0  0  0  0  0  0  0  0  0  0
  -45.2803  -32.7346    1.0778 H   0  0  0  0  0  0  0  0  0  0  0  0
  -46.4027  -31.6436    0.2426 H   0  0  0  0  0  0  0  0  0  0  0  0
  -48.7926  -31.2696    1.9942 H   0  0  0  0  0  0  0  0  0  0  0  0
  -48.5488  -32.2167    3.4785 H   0  0  0  0  0  0  0  0  0  0  0  0
  -44.4271  -24.3440   -0.6649 H   0  0  0  0  0  0  0  0  0  0  0  0
  -44.8650  -24.7428    1.0074 H   0  0  0  0  0  0  0  0  0  0  0  0
  -46.8692  -24.7875   -0.5371 H   0  0  0  0  0  0  0  0  0  0  0  0
  -46.0934  -26.0517   -1.5113 H   0  0  0  0  0  0  0  0  0  0  0  0
  -44.9731  -31.3976    2.9478 H   0  0  0  0  0  0  0  0  0  0  0  0
  -51.7530  -27.3275    9.6784 H   0  0  0  0  0  0  0  0  0  0  0  0
  -53.0211  -28.5702    9.7637 H   0  0  0  0  0  0  0  0  0  0  0  0
  -51.3081  -29.0519    9.8247 H   0  0  0  0  0  0  0  0  0  0  0  0
  -50.0214  -28.9988    8.1292 H   0  0  0  0  0  0  0  0  0  0  0  0
  1  4  2  0  0  0  0
  1  7  1  0  0  0  0
  2  3  2  0  0  0  0
  2  8  1  0  0  0  0
  3 10  1  0  0  0  0
  4 12  1  0  0  0  0
  5  7  2  0  0  0  0
  5  9  1  0  0  0  0
  6  8  2  0  0  0  0
  6 11  1  0  0  0  0
  7 13  1  0  0  0  0
  8 20  1  0  0  0  0
  9 12  2  0  0  0  0
  9 23  1  0  0  0  0
 10 11  2  0  0  0  0
 10 26  1  0  0  0  0
 11 27  1  0  0  0  0
 12 28  1  0  0  0  0
 13 22  1  0  0  0  0
 13 24  2  0  0  0  0
 14 21  1  0  0  0  0
 14 23  1  0  0  0  0
 14 25  2  0  0  0  0
 15 16  1  0  0  0  0
 15 17  1  0  0  0  0
 16 20  1  0  0  0  0
 17 22  1  0  0  0  0
 18 19  1  0  0  0  0
 18 26  1  0  0  0  0
 19 27  1  0  0  0  0
 20 22  1  0  0  0  0
  1 29  1  0  0  0  0
  2 30  1  0  0  0  0
  3 31  1  0  0  0  0
  4 32  1  0  0  0  0
  5 33  1  0  0  0  0
  6 34  1  0  0  0  0
 15 35  1  0  0  0  0
 15 36  1  0  0  0  0
 16 37  1  0  0  0  0
 16 38  1  0  0  0  0
 17 39  1  0  0  0  0
 17 40  1  0  0  0  0
 18 41  1  0  0  0  0
 18 42  1  0  0  0  0
 19 43  1  0  0  0  0
 19 44  1  0  0  0  0
 20 45  1  0  0  0  0
 21 46  1  0  0  0  0
 21 47  1  0  0  0  0
 21 48  1  0  0  0  0
 23 49  1  0  0  0  0
M  END
> <POSIT::Probability>
0.24

> <POSIT::Method>
FRED

> <ReceptorTitle>
UCSF-P4432-REFINED_LIGAND-BOUND-STATE_A__DU__LA1_A-201(A)

> <OMEGA_C>
/zRGwrEX7MEv1VxALLsvwr1n7MFN27Q/BeMtwqft4sGSi1Y/H3RLwswG6cEmwW5A0iJEwj2t68HS
6rlACNA4wrLM5cFlUqc/VIxCwpdq7cFRsY9AaS81wiXS7cF9d9M/42FJwl6c6MEB4cJAPYExwg3d
2sGWVQE/lPk2wqpe3MG2PTg/nApNwnNJ58EWmqFA3gQ9wo+k8MFhP4ZAvwFQwiDM48FpQvxA4CM9
whZnA8L9wOo/e4s4wjNCAMKJhZs/fzdAwllW/sE7jCZAFTozwt0aycFgXGy8KaI4wsnzzMFKVgG/
cCs3wpAW+MHEBBJAPxRQwjLG4sGCKxZB7x48wkn69sHkxkRAafZKwtTg5sEiI+1AXYo5wviJ7cHy
JJ9AxwxUwuIQ4sF3G+dABHEvwrOs0cEY3Ra9oLw6wpXc1MHN0MQ+PBhSws9X5MHez6lAoANFwhVt
7cFqyRpA7eIswoqi8sGpfNY/ZKEpwt/c4cGGySk/lU1Owh3+58Ho8jpAxUdBwlG27MGI3dNA5BA9
wujt5sG7JL4/sqk/wr8bBcKt84U/q707wgqnBsKPbB5AEB81wjTwAsIf9Ik/WZw5wgcm/cE6eXg+
lStDwiUo+sEpQ/8//zFCwuHdAMKKoF5AXbUxwpTAwsH6OSq/tnUzwkjxxcFB8YA/DHo7wrhMxsFi
gQm/pl84wt9p0MG5ccG/aeQzwjsu+8EhqTxADANPwrGe2sGi2hpBphVUwquP5MEQOBxBijtNwjNq
6MEEMh1B8RVIwoT958FZEQJB

> <OMEGA_E>
KicEwQ==

> <OMEGA_NBR>
    103747

$$$$
CACHE3HI_1716_2
  -OEChem-03092622513D

 39 42  0     1  0  0  0  0  0999 V2000
  -50.6063  -30.1362    3.2708 C   0  0  0  0  0  0  0  0  0  0  0  0
  -49.3527  -29.4653    3.1126 C   0  0  0  0  0  0  0  0  0  0  0  0
  -51.2000  -30.4110    4.5177 C   0  0  0  0  0  0  0  0  0  0  0  0
  -48.5694  -29.0026    4.1939 C   0  0  0  0  0  0  0  0  0  0  0  0
  -54.5923  -24.9768   12.0253 C   0  0  0  0  0  0  0  0  0  0  0  0
  -54.5658  -25.0800   13.4067 C   0  0  0  0  0  0  0  0  0  0  0  0
  -53.2987  -26.9984   13.3373 C   0  0  0  0  0  0  0  0  0  0  0  0
  -50.4073  -29.9454    5.5585 C   0  0  0  0  0  0  0  0  0  0  0  0
  -53.2483  -26.9833   11.9499 C   0  0  0  0  0  0  0  0  0  0  0  0
  -49.1390  -29.2645    5.4537 C   0  0  0  0  0  0  0  0  0  0  0  0
  -53.9106  -25.9450   11.2936 C   0  0  0  0  0  0  0  0  0  0  0  0
  -50.6957  -30.0521    6.8889 C   0  0  0  0  0  0  0  0  0  0  0  0
  -53.1545  -26.7185    9.0818 C   0  0  0  0  0  0  0  0  0  0  0  0
  -52.5549  -29.6450    8.5492 C   0  0  0  0  0  0  0  0  0  0  0  0
  -52.6146  -28.0856   11.1583 C   0  0  0  0  0  0  0  0  0  0  0  0
  -52.1124  -27.5549    9.8200 C   0  0  1  0  0  0  0  0  0  0  0  0
  -51.8485  -30.6461    7.6554 C   0  0  0  0  0  0  0  0  0  0  0  0
  -53.9332  -26.0647   14.0842 N   0  0  0  0  0  0  0  0  0  0  0  0
  -48.6910  -28.9771    6.6891 N   0  0  0  0  0  0  0  0  0  0  0  0
  -49.6391  -29.4589    7.5166 N   0  0  0  0  0  0  0  0  0  0  0  0
  -53.9172  -25.8906    9.8886 N   0  0  0  0  0  0  0  0  0  0  0  0
  -51.6979  -28.6303    8.9592 N   0  0  0  0  0  0  0  0  0  0  0  0
  -53.2346  -26.6911    7.8533 O   0  0  0  0  0  0  0  0  0  0  0  0
  -53.7376  -29.7378    8.8675 O   0  0  0  0  0  0  0  0  0  0  0  0
  -51.1307  -30.4523    2.3693 H   0  0  0  0  0  0  0  0  0  0  0  0
  -48.9835  -29.3030    2.1005 H   0  0  0  0  0  0  0  0  0  0  0  0
  -52.1487  -30.9193    4.6186 H   0  0  0  0  0  0  0  0  0  0  0  0
  -47.6234  -28.4967    4.0534 H   0  0  0  0  0  0  0  0  0  0  0  0
  -55.1231  -24.1632   11.5431 H   0  0  0  0  0  0  0  0  0  0  0  0
  -55.0734  -24.3481   14.0265 H   0  0  0  0  0  0  0  0  0  0  0  0
  -52.8246  -27.7907   13.9085 H   0  0  0  0  0  0  0  0  0  0  0  0
  -51.7795  -28.5236   11.7185 H   0  0  0  0  0  0  0  0  0  0  0  0
  -53.3682  -28.8690   11.0058 H   0  0  0  0  0  0  0  0  0  0  0  0
  -51.2368  -26.9117    9.9727 H   0  0  0  0  0  0  0  0  0  0  0  0
  -52.5819  -31.0676    6.9567 H   0  0  0  0  0  0  0  0  0  0  0  0
  -51.4878  -31.4801    8.2705 H   0  0  0  0  0  0  0  0  0  0  0  0
  -49.4977  -29.3461    8.5126 H   0  0  0  0  0  0  0  0  0  0  0  0
  -54.5246  -25.2083    9.4436 H   0  0  0  0  0  0  0  0  0  0  0  0
  -50.7227  -28.6599    8.6683 H   0  0  0  0  0  0  0  0  0  0  0  0
  1  2  1  0  0  0  0
  1  3  2  0  0  0  0
  2  4  2  0  0  0  0
  3  8  1  0  0  0  0
  4 10  1  0  0  0  0
  5  6  2  0  0  0  0
  5 11  1  0  0  0  0
  6 18  1  0  0  0  0
  7  9  1  0  0  0  0
  7 18  2  0  0  0  0
  8 10  1  0  0  0  0
  8 12  2  0  0  0  0
  9 11  2  0  0  0  0
  9 15  1  0  0  0  0
 10 19  2  0  0  0  0
 11 21  1  0  0  0  0
 12 17  1  0  0  0  0
 12 20  1  0  0  0  0
 13 16  1  0  0  0  0
 13 21  1  0  0  0  0
 13 23  2  0  0  0  0
 14 17  1  0  0  0  0
 14 22  1  0  0  0  0
 14 24  2  0  0  0  0
 15 16  1  0  0  0  0
 16 22  1  0  0  0  0
 19 20  1  0  0  0  0
  1 25  1  0  0  0  0
  2 26  1  0  0  0  0
  3 27  1  0  0  0  0
  4 28  1  0  0  0  0
  5 29  1  0  0  0  0
  6 30  1  0  0  0  0
  7 31  1  0  0  0  0
 15 32  1  0  0  0  0
 15 33  1  0  0  0  0
 16 34  1  0  0  0  0
 17 35  1  0  0  0  0
 17 36  1  0  0  0  0
 20 37  1  0  0  0  0
 21 38  1  0  0  0  0
 22 39  1  0  0  0  0
M  END
> <POSIT::Probability>
0.23

> <POSIT::Method>
HYBRID

> <ReceptorTitle>
UCSF-P4432-REFINED_LIGAND-BOUND-STATE_A__DU__LA1_A-201(A)

> <OMEGA_C>
z2xKwvgW8cGDVFFALGlFwvK468GZNEdAzcxMwrdJ88E8kZBADkdCwjsF6MF6NIZAeF5awo3Qx8F5
Z0BBV0NawsSjyMG+gVZB2TFVwqD818GIZVVBG6FJwiqQ78Fm37FASP5UwtDd18HPMj9BV45Ewp0d
6sGvhK5AbKRXwl2Pz8GEsjRBbMhKwsdq8MEDctxANp5UwmS/1cHhThFBQzhSwuIo7cFmyQhBUnVS
wkuv4ME2iDJBEHNQwmpw3MGGHh1B2GRPwjEr9cET+fRApLtXwoqE0MHxWGFBisNCwhnR58HmDNZA
ZY5Gwryr68EViPBALKtXwu0fz8HKNx5BsMpOwsoK5cHGWA9BMfBUwmaH1cFbTvtATPNWwvXm7cFo
4Q1B44VMwl2e88FKohdAJe9DwpZs6sEGbgZAQJhQwrZa98Fsy5NAVX4+wkj548GKtYFAD35cwj1O
wcGKsDhBNktcwuzIwsGhbGBBcUxTwkdT3sE4iV5BOR5Pwk0w5MHpfjtBCnlVwqbz5sHOFzBBdPJM
wjRL18FGkB9B1VNSwl6K+MGxnd5Ai/NNwkrX+8EOVARBpP1FwsDE6sFwMwhBMxlawpCqycEAGRdB
BORKwo1H5cGLsQpB

> <OMEGA_E>
yCXswA==

> <OMEGA_NBR>
    105028

$$$$
CACHE3HI_1718_21
  -OEChem-03092622513D

 36 38  0     0  0  0  0  0  0999 V2000
  -46.4517  -30.9919    1.2551 C   0  0  0  0  0  0  0  0  0  0  0  0
  -47.3989  -30.6575    2.2230 C   0  0  0  0  0  0  0  0  0  0  0  0
  -49.1734  -30.4865    4.5214 C   0  0  0  0  0  0  0  0  0  0  0  0
  -47.7202  -28.7404    5.3440 C   0  0  0  0  0  0  0  0  0  0  0  0
  -45.0948  -30.7947    1.5107 C   0  0  0  0  0  0  0  0  0  0  0  0
  -50.1214  -30.1523    5.4886 C   0  0  0  0  0  0  0  0  0  0  0  0
  -48.6681  -28.4062    6.3112 C   0  0  0  0  0  0  0  0  0  0  0  0
  -45.6323  -29.9290    3.7016 C   0  0  0  0  0  0  0  0  0  0  0  0
  -42.5946  -28.9625    2.7317 C   0  0  0  0  0  0  0  0  0  0  0  0
  -47.9728  -29.7802    4.4491 C   0  0  0  0  0  0  0  0  0  0  0  0
  -46.9893  -30.1263    3.4461 C   0  0  0  0  0  0  0  0  0  0  0  0
  -44.6852  -30.2634    2.7338 C   0  0  0  0  0  0  0  0  0  0  0  0
  -49.8687  -29.1124    6.3835 C   0  0  0  0  0  0  0  0  0  0  0  0
  -52.2200  -28.9019    7.2825 C   0  0  0  0  0  0  0  0  0  0  0  0
  -52.0672  -27.9421    9.5898 C   0  0  0  0  0  0  0  0  0  0  0  0
  -41.3622  -29.1891    3.1243 N   0  0  0  0  0  0  0  0  0  0  0  0
  -41.3637  -30.4698    3.6309 N   0  0  0  0  0  0  0  0  0  0  0  0
  -42.5720  -31.0132    3.5493 N   0  0  0  0  0  0  0  0  0  0  0  0
  -43.3396  -30.0694    2.9869 N   0  0  0  0  0  0  0  0  0  0  0  0
  -50.8172  -28.7787    7.3507 N   0  0  0  0  0  0  0  0  0  0  0  0
  -52.8174  -28.4555    8.4658 N   0  0  0  0  0  0  0  0  0  0  0  0
  -52.8601  -29.3380    6.3288 O   0  0  0  0  0  0  0  0  0  0  0  0
  -46.7706  -31.4050    0.3029 H   0  0  0  0  0  0  0  0  0  0  0  0
  -48.4532  -30.8165    2.0093 H   0  0  0  0  0  0  0  0  0  0  0  0
  -49.3851  -31.2996    3.8311 H   0  0  0  0  0  0  0  0  0  0  0  0
  -46.7888  -28.1807    5.3002 H   0  0  0  0  0  0  0  0  0  0  0  0
  -44.3669  -31.0595    0.7475 H   0  0  0  0  0  0  0  0  0  0  0  0
  -51.0538  -30.7093    5.5359 H   0  0  0  0  0  0  0  0  0  0  0  0
  -48.4606  -27.5940    7.0033 H   0  0  0  0  0  0  0  0  0  0  0  0
  -45.3102  -29.5148    4.6557 H   0  0  0  0  0  0  0  0  0  0  0  0
  -42.9771  -28.0582    2.2801 H   0  0  0  0  0  0  0  0  0  0  0  0
  -51.8370  -28.7441   10.2970 H   0  0  0  0  0  0  0  0  0  0  0  0
  -51.1291  -27.4970    9.2463 H   0  0  0  0  0  0  0  0  0  0  0  0
  -52.6442  -27.1715   10.1085 H   0  0  0  0  0  0  0  0  0  0  0  0
  -50.4453  -28.3934    8.2258 H   0  0  0  0  0  0  0  0  0  0  0  0
  -53.8305  -28.4596    8.5325 H   0  0  0  0  0  0  0  0  0  0  0  0
  1  2  2  0  0  0  0
  1  5  1  0  0  0  0
  2 11  1  0  0  0  0
  3  6  2  0  0  0  0
  3 10  1  0  0  0  0
  4  7  1  0  0  0  0
  4 10  2  0  0  0  0
  5 12  2  0  0  0  0
  6 13  1  0  0  0  0
  7 13  2  0  0  0  0
  8 11  2  0  0  0  0
  8 12  1  0  0  0  0
  9 16  2  0  0  0  0
  9 19  1  0  0  0  0
 10 11  1  0  0  0  0
 12 19  1  0  0  0  0
 13 20  1  0  0  0  0
 14 20  1  0  0  0  0
 14 21  1  0  0  0  0
 14 22  2  0  0  0  0
 15 21  1  0  0  0  0
 16 17  1  0  0  0  0
 17 18  2  0  0  0  0
 18 19  1  0  0  0  0
  1 23  1  0  0  0  0
  2 24  1  0  0  0  0
  3 25  1  0  0  0  0
  4 26  1  0  0  0  0
  5 27  1  0  0  0  0
  6 28  1  0  0  0  0
  7 29  1  0  0  0  0
  8 30  1  0  0  0  0
  9 31  1  0  0  0  0
 15 32  1  0  0  0  0
 15 33  1  0  0  0  0
 15 34  1  0  0  0  0
 20 35  1  0  0  0  0
 21 36  1  0  0  0  0
M  END
> <POSIT::Probability>
0.24

> <POSIT::Method>
FRED

> <ReceptorTitle>
UCSF-P4432-REFINED_LIGAND-BOUND-STATE_A__DU__LA1_A-201(A)

> <OMEGA_C>
hc45wmnv98FUqKA/cpg9wopC9cEwRQ5Al7FEwknk88Egr5BAeuE+wj/s5cFCAqtAB2E0wndb9sFm
XcE/S3xIwvM38cFQoq9AHqxCwuM/48E+9clAgoc2wqJu78FS52xA2WAqwh+z58HT0y5AK+Q/wuw9
7sFMX45ADvU7wpMC8cEDjVxApL0ywoAb8sGH9i5AmHlHwkfm6MFERcxASOFQwg0358GDCulAzkRQ
wmaJ38GobxlB2XIlwjyD6cGX9EdAY3QlwhbC88HNYGhAxEkqwggb+MFSKGNAulstwhaO8MEmKj9A
ykRLws465sEPOetAAEVTwsyk48HkcwdBxXBTwjG06sHuhcpAFxU7wlg9+8HAEps+DdBBwiKI9sH6
mABAUIpFwoJl+sE+MHVAyCc7wg9y4cHvmqlAs3cxwtJ5+MEAXT8/EzdMwpSs9cFNJrFAnNdBwobA
3MHhGuBAqD01wmUe7MGo+5RAjugrwjt34MFK7RFACllPwuTz5cGWwCRBMoRMwvH528H48BNBnpNS
wkJf2cFyvCFB8MdJwqQl48EGnQNBclJXwiut48EOhQhB

> <OMEGA_E>
FQwRwQ==

> <OMEGA_NBR>
    106237

$$$$
CACHE3HI_1718_22
  -OEChem-03092622513D

 33 35  0     0  0  0  0  0  0999 V2000
  -46.4347  -29.3171    0.9774 C   0  0  0  0  0  0  0  0  0  0  0  0
  -47.3441  -29.3063    2.0350 C   0  0  0  0  0  0  0  0  0  0  0  0
  -49.1144  -29.8995    4.2655 C   0  0  0  0  0  0  0  0  0  0  0  0
  -47.4575  -28.8586    5.6828 C   0  0  0  0  0  0  0  0  0  0  0  0
  -45.0675  -29.4167    1.2349 C   0  0  0  0  0  0  0  0  0  0  0  0
  -50.0246  -29.8886    5.3224 C   0  0  0  0  0  0  0  0  0  0  0  0
  -48.3676  -28.8476    6.7398 C   0  0  0  0  0  0  0  0  0  0  0  0
  -45.5192  -29.4950    3.6073 C   0  0  0  0  0  0  0  0  0  0  0  0
  -42.5980  -30.6094    3.4426 C   0  0  0  0  0  0  0  0  0  0  0  0
  -47.8309  -29.3844    4.4458 C   0  0  0  0  0  0  0  0  0  0  0  0
  -46.8865  -29.3953    3.3498 C   0  0  0  0  0  0  0  0  0  0  0  0
  -44.6099  -29.5058    2.5497 C   0  0  0  0  0  0  0  0  0  0  0  0
  -49.6513  -29.3628    6.5595 C   0  0  0  0  0  0  0  0  0  0  0  0
  -51.8857  -29.8204    7.6321 C   0  0  0  0  0  0  0  0  0  0  0  0
  -41.3180  -30.3176    3.4736 N   0  0  0  0  0  0  0  0  0  0  0  0
  -41.1988  -29.1028    2.8357 N   0  0  0  0  0  0  0  0  0  0  0  0
  -42.3815  -28.6627    2.4237 N   0  0  0  0  0  0  0  0  0  0  0  0
  -43.2543  -29.6059    2.8042 N   0  0  0  0  0  0  0  0  0  0  0  0
  -51.9517  -31.1548    8.0080 N   0  0  0  0  0  0  0  0  0  0  0  0
  -50.5619  -29.3522    7.6164 N   0  0  0  0  0  0  0  0  0  0  0  0
  -52.8966  -29.1793    7.3582 O   0  0  0  0  0  0  0  0  0  0  0  0
  -46.7909  -29.2473   -0.0460 H   0  0  0  0  0  0  0  0  0  0  0  0
  -48.4069  -29.2277    1.8188 H   0  0  0  0  0  0  0  0  0  0  0  0
  -49.4204  -30.3128    3.3073 H   0  0  0  0  0  0  0  0  0  0  0  0
  -46.4605  -28.4535    5.8387 H   0  0  0  0  0  0  0  0  0  0  0  0
  -44.3695  -29.4239    0.4012 H   0  0  0  0  0  0  0  0  0  0  0  0
  -51.0224  -30.2926    5.1709 H   0  0  0  0  0  0  0  0  0  0  0  0
  -48.0658  -28.4354    7.6993 H   0  0  0  0  0  0  0  0  0  0  0  0
  -45.1597  -29.5649    4.6327 H   0  0  0  0  0  0  0  0  0  0  0  0
  -43.0737  -31.4911    3.8478 H   0  0  0  0  0  0  0  0  0  0  0  0
  -51.0963  -31.6542    8.2273 H   0  0  0  0  0  0  0  0  0  0  0  0
  -52.8415  -31.6392    8.0672 H   0  0  0  0  0  0  0  0  0  0  0  0
  -50.2357  -28.9545    8.5030 H   0  0  0  0  0  0  0  0  0  0  0  0
  1  2  1  0  0  0  0
  1  5  2  0  0  0  0
  2 11  2  0  0  0  0
  3  6  2  0  0  0  0
  3 10  1  0  0  0  0
  4  7  1  0  0  0  0
  4 10  2  0  0  0  0
  5 12  1  0  0  0  0
  6 13  1  0  0  0  0
  7 13  2  0  0  0  0
  8 11  1  0  0  0  0
  8 12  2  0  0  0  0
  9 15  2  0  0  0  0
  9 18  1  0  0  0  0
 10 11  1  0  0  0  0
 12 18  1  0  0  0  0
 13 20  1  0  0  0  0
 14 19  1  0  0  0  0
 14 20  1  0  0  0  0
 14 21  2  0  0  0  0
 15 16  1  0  0  0  0
 16 17  2  0  0  0  0
 17 18  1  0  0  0  0
  1 22  1  0  0  0  0
  2 23  1  0  0  0  0
  3 24  1  0  0  0  0
  4 25  1  0  0  0  0
  5 26  1  0  0  0  0
  6 27  1  0  0  0  0
  7 28  1  0  0  0  0
  8 29  1  0  0  0  0
  9 30  1  0  0  0  0
 19 31  1  0  0  0  0
 19 32  1  0  0  0  0
 20 33  1  0  0  0  0
M  END
> <POSIT::Probability>
0.24

> <POSIT::Method>
FRED

> <ReceptorTitle>
UCSF-P4432-REFINED_LIGAND-BOUND-STATE_A__DU__LA1_A-201(A)

> <OMEGA_C>
I705wnaJ6sHoM3o/VmA9wkRz6sGQPQJAK3VEwj4y78GqfohAh9Q9wnve5sF02bVAI0U0wn9V68Es
EJ4/KBlIwskb78F9UapAdXhBwvzH5sEhrNdAtRM2wqz168EJ3mZAUmQqwhDg9MHRUlxAzlI/wikT
68GuQ45AxYs7wqAp68EwY1ZAkXAywtwL7MGwLSNA4ppGwhrn6sFD59FA6YpPwjuQ7sE5OvRAq0Ul
wmaK8sEVUF5AlMskwovS6MGQfDVAoYYpwjRN5cH+HRtAbwQtwtLY7MFmdzNAhc5Pwgg9+cHlIABB
az9KwlvR6sFeufNAE5ZTwjVv6cEhdutA7Sk7wnz66cGAlDy9pqBBwkHS6cFkz+g/iK5FwqaA8sGD
q1NAitc5wsag48FR1rpAU3oxwjpk68GQbM0+6hZMwj1X8sFSeKVAa0NAwr9748GdYPZAi6M0wvuE
7MEhP5RAgUsswrnt+8EaQnZApWJMwsk7/cErowNBu11TwhYd/cEOEwFBaPFIwtui58E2DAhB

> <OMEGA_E>
Q20RwQ==

> <OMEGA_NBR>
    107386

$$$$
CACHE3HI_1718_33
  -OEChem-03092622513D

 41 42  0     0  0  0  0  0  0999 V2000
  -44.6824  -33.5092    0.1247 C   0  0  0  0  0  0  0  0  0  0  0  0
  -49.7175  -29.4033    3.7602 C   0  0  0  0  0  0  0  0  0  0  0  0
  -47.9229  -28.6434    5.1883 C   0  0  0  0  0  0  0  0  0  0  0  0
  -50.4644  -29.7520    4.8854 C   0  0  0  0  0  0  0  0  0  0  0  0
  -48.6698  -28.9921    6.3135 C   0  0  0  0  0  0  0  0  0  0  0  0
  -43.6894  -32.6575    0.5956 C   0  0  0  0  0  0  0  0  0  0  0  0
  -45.9995  -33.1973    0.4234 C   0  0  0  0  0  0  0  0  0  0  0  0
  -48.4466  -28.8488    3.9118 C   0  0  0  0  0  0  0  0  0  0  0  0
  -49.9407  -29.5466    6.1619 C   0  0  0  0  0  0  0  0  0  0  0  0
  -44.0381  -31.5361    1.3400 C   0  0  0  0  0  0  0  0  0  0  0  0
  -45.3835  -31.3123    1.5843 C   0  0  0  0  0  0  0  0  0  0  0  0
  -45.8320  -30.1368    2.3732 C   0  0  0  0  0  0  0  0  0  0  0  0
  -51.9725  -30.4601    7.3409 C   0  0  0  0  0  0  0  0  0  0  0  0
  -47.6464  -28.4782    2.7090 C   0  0  0  0  0  0  0  0  0  0  0  0
  -42.6923  -29.6126    0.9584 C   0  0  0  0  0  0  0  0  0  0  0  0
  -43.5484  -28.4147    1.2775 C   0  0  0  0  0  0  0  0  0  0  0  0
  -46.3763  -32.1170    1.1436 N   0  0  0  0  0  0  0  0  0  0  0  0
  -52.1344  -31.2563    8.4660 N   0  0  0  0  0  0  0  0  0  0  0  0
  -50.6880  -29.8952    7.2872 N   0  0  0  0  0  0  0  0  0  0  0  0
  -47.0829  -29.6286    2.0501 N   0  0  0  0  0  0  0  0  0  0  0  0
  -45.0889  -29.6728    3.2338 O   0  0  0  0  0  0  0  0  0  0  0  0
  -52.8788  -30.3064    6.5266 O   0  0  0  0  0  0  0  0  0  0  0  0
  -43.0749  -30.6990    1.8035 O   0  0  0  0  0  0  0  0  0  0  0  0
  -44.8535  -28.6982    1.0819 F   0  0  0  0  0  0  0  0  0  0  0  0
  -43.2334  -27.3640    0.4906 F   0  0  0  0  0  0  0  0  0  0  0  0
  -43.3986  -28.0344    2.5637 F   0  0  0  0  0  0  0  0  0  0  0  0
  -44.4339  -34.3880   -0.4592 H   0  0  0  0  0  0  0  0  0  0  0  0
  -50.1333  -29.5672    2.7697 H   0  0  0  0  0  0  0  0  0  0  0  0
  -46.9332  -28.2122    5.3156 H   0  0  0  0  0  0  0  0  0  0  0  0
  -51.4539  -30.1834    4.7556 H   0  0  0  0  0  0  0  0  0  0  0  0
  -48.2513  -28.8276    7.3033 H   0  0  0  0  0  0  0  0  0  0  0  0
  -42.6473  -32.8730    0.3781 H   0  0  0  0  0  0  0  0  0  0  0  0
  -46.8117  -33.8285    0.0783 H   0  0  0  0  0  0  0  0  0  0  0  0
  -48.2626  -27.9448    1.9721 H   0  0  0  0  0  0  0  0  0  0  0  0
  -46.8140  -27.8099    2.9689 H   0  0  0  0  0  0  0  0  0  0  0  0
  -42.8265  -29.9138   -0.0843 H   0  0  0  0  0  0  0  0  0  0  0  0
  -41.6358  -29.3870    1.1317 H   0  0  0  0  0  0  0  0  0  0  0  0
  -51.3643  -31.3612    9.1180 H   0  0  0  0  0  0  0  0  0  0  0  0
  -53.0105  -31.7354    8.6473 H   0  0  0  0  0  0  0  0  0  0  0  0
  -50.2555  -29.7229    8.2004 H   0  0  0  0  0  0  0  0  0  0  0  0
  -47.6118  -30.0310    1.2807 H   0  0  0  0  0  0  0  0  0  0  0  0
  1  6  1  0  0  0  0
  1  7  2  0  0  0  0
  2  4  2  0  0  0  0
  2  8  1  0  0  0  0
  3  5  1  0  0  0  0
  3  8  2  0  0  0  0
  4  9  1  0  0  0  0
  5  9  2  0  0  0  0
  6 10  2  0  0  0  0
  7 17  1  0  0  0  0
  8 14  1  0  0  0  0
  9 19  1  0  0  0  0
 10 11  1  0  0  0  0
 10 23  1  0  0  0  0
 11 12  1  0  0  0  0
 11 17  2  0  0  0  0
 12 20  1  0  0  0  0
 12 21  2  0  0  0  0
 13 18  1  0  0  0  0
 13 19  1  0  0  0  0
 13 22  2  0  0  0  0
 14 20  1  0  0  0  0
 15 16  1  0  0  0  0
 15 23  1  0  0  0  0
 16 24  1  0  0  0  0
 16 25  1  0  0  0  0
 16 26  1  0  0  0  0
  1 27  1  0  0  0  0
  2 28  1  0  0  0  0
  3 29  1  0  0  0  0
  4 30  1  0  0  0  0
  5 31  1  0  0  0  0
  6 32  1  0  0  0  0
  7 33  1  0  0  0  0
 14 34  1  0  0  0  0
 14 35  1  0  0  0  0
 15 36  1  0  0  0  0
 15 37  1  0  0  0  0
 18 38  1  0  0  0  0
 18 39  1  0  0  0  0
 19 40  1  0  0  0  0
 20 41  1  0  0  0  0
M  END
> <POSIT::Probability>
0.05

> <POSIT::Method>
FRED

> <ReceptorTitle>
UCSF-P4432-REFINED_LIGAND-BOUND-STATE_A__DU__LA1_A-201(A)

> <OMEGA_C>
1LoywmoJBsJQd/89rd5GwvQ568GhpnBADLE/wq8l5cHSBqZAmNtJwhYE7sEnVZxA6K1CwsTv58F/
CMpA+8EuwkahAsLQexg/ef83whHKBMLQyNg+WslBwmbK5sElW3pAScNHwl9f7MFoLsVACycwwgBK
/MGWhas/sIg1wqJ/+sHYyso/A1Q3wjQY8cHB4RdA0ONPwjOu88Fq6OpA9ZU+wmXT48FQYC1A4cQq
wozm7MHIWXU/jjEuwl9R48Ggg6M/WoE5wsR3AMLaYJI/pYlQwvkM+sHMdAdBhMBKwlYp78HUMOlA
5lQ8wlIH7cHGNANAFVs0wsxh7cFV905A4INTwolz8sES2tBArUwswnaX9cEY2OY/BmozwteV5cGf
e4o/CO8swpPp2sE0Mvs+LJgtwnBG4MEmFCRAWbwxwkqNCcJeIOu+hYhIwqeJ7MHVQjFAors7wqqy
4cHDGapAyNBNwol38cGaLZhAYAFBwu2e5sHCtOlA3pYqwul9A8JcnME+Nj87wl1QB8KARqA97gxB
wveO38G2bfw/gEE7wqJ63sEKAz5AU04rwn5P78Gwn6y9DosmwosY68Gi25A/DnVNwrrj+sE+4xFB
yApUwini/cFiWwpBlQVJwm7I7cHWNANBgXI+wpE/8MFG76M/

> <OMEGA_E>
CQ4ewQ==

> <OMEGA_NBR>
    108692

$$$$
CACHE3HI_1718_40
  -OEChem-03092622513D

 48 50  0     1  0  0  0  0  0999 V2000
  -51.5201  -28.2482    8.8268 C   0  0  0  0  0  0  0  0  0  0  0  0
  -53.1445  -27.9306    7.0667 C   0  0  0  0  0  0  0  0  0  0  0  0
  -52.1459  -27.2566    9.5823 C   0  0  0  0  0  0  0  0  0  0  0  0
  -53.7703  -26.9391    7.8222 C   0  0  0  0  0  0  0  0  0  0  0  0
  -52.0196  -28.5852    7.5689 C   0  0  0  0  0  0  0  0  0  0  0  0
  -53.2707  -26.6021    9.0801 C   0  0  0  0  0  0  0  0  0  0  0  0
  -49.2186  -29.3612    3.8676 C   0  0  0  0  0  0  0  0  0  0  0  0
  -51.3679  -29.6193    6.7808 C   0  0  0  0  0  0  0  0  0  0  0  0
  -54.4814  -25.7199   11.1142 C   0  0  0  0  0  0  0  0  0  0  0  0
  -46.4948  -28.1222    6.2512 C   0  0  0  0  0  0  0  0  0  0  0  0
  -47.1147  -29.4436    6.5820 C   0  0  0  0  0  0  0  0  0  0  0  0
  -47.8963  -28.4307    5.7786 C   0  0  0  0  0  0  0  0  0  0  0  0
  -51.3143  -30.7589    3.8711 C   0  0  0  0  0  0  0  0  0  0  0  0
  -56.3550  -27.2265   12.9633 C   0  0  0  0  0  0  0  0  0  0  0  0
  -54.5245  -28.9468   13.0777 C   0  0  0  0  0  0  0  0  0  0  0  0
  -50.2583  -30.0575    4.7156 C   0  0  2  0  0  0  0  0  0  0  0  0
  -54.8559  -27.4760   12.8588 C   0  0  0  0  0  0  0  0  0  0  0  0
  -49.1436  -29.3305    2.5570 N   0  0  0  0  0  0  0  0  0  0  0  0
  -48.0287  -28.5757    2.2667 N   0  0  0  0  0  0  0  0  0  0  0  0
  -47.4360  -28.1544    3.3773 N   0  0  0  0  0  0  0  0  0  0  0  0
  -48.1814  -28.6466    4.3765 N   0  0  0  0  0  0  0  0  0  0  0  0
  -53.9050  -25.5963    9.8468 N   0  0  0  0  0  0  0  0  0  0  0  0
  -54.3574  -27.0350   11.5791 N   0  0  0  0  0  0  0  0  0  0  0  0
  -51.2321  -30.7950    7.1442 O   0  0  0  0  0  0  0  0  0  0  0  0
  -55.0276  -24.8289   11.7601 O   0  0  0  0  0  0  0  0  0  0  0  0
  -50.9205  -29.1315    5.5834 O   0  0  0  0  0  0  0  0  0  0  0  0
  -50.6446  -28.7513    9.2289 H   0  0  0  0  0  0  0  0  0  0  0  0
  -53.5423  -28.1848    6.0876 H   0  0  0  0  0  0  0  0  0  0  0  0
  -51.7483  -27.0023   10.5616 H   0  0  0  0  0  0  0  0  0  0  0  0
  -54.6458  -26.4355    7.4203 H   0  0  0  0  0  0  0  0  0  0  0  0
  -46.3814  -27.4036    7.0538 H   0  0  0  0  0  0  0  0  0  0  0  0
  -45.6929  -28.1111    5.5233 H   0  0  0  0  0  0  0  0  0  0  0  0
  -46.7337  -30.3213    6.0743 H   0  0  0  0  0  0  0  0  0  0  0  0
  -47.4185  -29.6161    7.6074 H   0  0  0  0  0  0  0  0  0  0  0  0
  -48.7076  -27.9237    6.2890 H   0  0  0  0  0  0  0  0  0  0  0  0
  -51.8275  -30.0570    3.2060 H   0  0  0  0  0  0  0  0  0  0  0  0
  -50.8752  -31.5555    3.2592 H   0  0  0  0  0  0  0  0  0  0  0  0
  -52.0597  -31.2379    4.5160 H   0  0  0  0  0  0  0  0  0  0  0  0
  -56.8997  -27.8146   12.2169 H   0  0  0  0  0  0  0  0  0  0  0  0
  -56.5891  -26.1693   12.7979 H   0  0  0  0  0  0  0  0  0  0  0  0
  -56.7383  -27.5109   13.9492 H   0  0  0  0  0  0  0  0  0  0  0  0
  -55.0233  -29.5810   12.3361 H   0  0  0  0  0  0  0  0  0  0  0  0
  -54.8370  -29.2742   14.0741 H   0  0  0  0  0  0  0  0  0  0  0  0
  -53.4462  -29.1199   12.9861 H   0  0  0  0  0  0  0  0  0  0  0  0
  -49.7739  -30.7988    5.3625 H   0  0  0  0  0  0  0  0  0  0  0  0
  -54.3410  -26.8748   13.6168 H   0  0  0  0  0  0  0  0  0  0  0  0
  -53.9465  -24.6715    9.4249 H   0  0  0  0  0  0  0  0  0  0  0  0
  -53.9223  -27.7246   10.9716 H   0  0  0  0  0  0  0  0  0  0  0  0
  1  3  2  0  0  0  0
  1  5  1  0  0  0  0
  2  4  1  0  0  0  0
  2  5  2  0  0  0  0
  3  6  1  0  0  0  0
  4  6  2  0  0  0  0
  5  8  1  0  0  0  0
  6 22  1  0  0  0  0
  7 16  1  0  0  0  0
  7 18  2  0  0  0  0
  7 21  1  0  0  0  0
  8 24  2  0  0  0  0
  8 26  1  0  0  0  0
  9 22  1  0  0  0  0
  9 23  1  0  0  0  0
  9 25  2  0  0  0  0
 10 11  1  0  0  0  0
 10 12  1  0  0  0  0
 11 12  1  0  0  0  0
 12 21  1  0  0  0  0
 13 16  1  0  0  0  0
 14 17  1  0  0  0  0
 15 17  1  0  0  0  0
 16 26  1  0  0  0  0
 17 23  1  0  0  0  0
 18 19  1  0  0  0  0
 19 20  2  0  0  0  0
 20 21  1  0  0  0  0
  1 27  1  0  0  0  0
  2 28  1  0  0  0  0
  3 29  1  0  0  0  0
  4 30  1  0  0  0  0
 10 31  1  0  0  0  0
 10 32  1  0  0  0  0
 11 33  1  0  0  0  0
 11 34  1  0  0  0  0
 12 35  1  0  0  0  0
 13 36  1  0  0  0  0
 13 37  1  0  0  0  0
 13 38  1  0  0  0  0
 14 39  1  0  0  0  0
 14 40  1  0  0  0  0
 14 41  1  0  0  0  0
 15 42  1  0  0  0  0
 15 43  1  0  0  0  0
 15 44  1  0  0  0  0
 16 45  1  0  0  0  0
 17 46  1  0  0  0  0
 22 47  1  0  0  0  0
 23 48  1  0  0  0  0
M  END
> <POSIT::Probability>
0.18

> <POSIT::Method>
HYBRID

> <ReceptorTitle>
UCSF-P4432-REFINED_LIGAND-BOUND-STATE_A__DU__LA1_A-201(A)

> <OMEGA_C>
jRROwkb84cFiOg1B+pNUwvJx38EYIuJAX5VQwpgN2sFLURlByxRXwlWD18GAT/pAGxRQwoKu5MEf
NPJAPRVVwgrR1MFISBFB5d9Ewrrj6sEKh3dAu3hNwjz07MG4/NhA9exZwmXCzcGQ0zFBtfo5wkn6
4MEsCshAZ3U8wnGM68EIoNJA05U/wgFy48H+6bhA1kFNwjkS9sFuv3dAfGthwu7P2cHXaU9BFhla
wvSS58FmPlFBeghJwrZ18MEF5pZAfmxbwtDO28GqvU1BAJNEwtak6sF0pSNAZR1Awgub5MFUEhFA
e749wiY84cHQJVhAxLlAwjgs5cH5C4xAtZ5XwiHFzMGujB1B+m1ZwrxH2MH5QzlBoO1MwjNc9sEV
neRAPBxcwpGhxsFMKTxBo65LwmYN6cEZq7JAGJRKwpIC5sGjqRNBXCtWwmB64cGnzcJATv5OwqwE
2MGA/ChBUpVawuF708Fjc+1AhYY5wpA628HjuOFAf8U2wnXj4MFAv7BAWO86wu+R8sGAYMJAk6w9
wtTt7MEmcPNAltRCwsRj38FAP8lAW09PwrN08MGQL01AMYBLwrxx/MGYllBAID1QwjDn+cG8gpBA
T5ljwk6E3sFMeENBQltiwqRa0cE0xExB/PNiwj0W3MHcL19B0hdcwt6l7MGeYEVBGVlbwn4x6sGa
L2FB7shVwnn16MEzx09BgBhHwuZj9sFamatALl1Zwpr/1sFH3llBNMlXwlNfxcE4zBZBerBXwhPM
3cHEiy9B

> <OMEGA_E>
EYBVwA==

> <OMEGA_NBR>
    110148

$$$$
CACHE3HI_1718_96
  -OEChem-03092622513D

 45 47  0     1  0  0  0  0  0999 V2000
  -51.7095  -28.3070   10.6511 C   0  0  0  0  0  0  0  0  0  0  0  0
  -53.1414  -27.5922    8.8410 C   0  0  0  0  0  0  0  0  0  0  0  0
  -52.5033  -27.6025   11.5564 C   0  0  0  0  0  0  0  0  0  0  0  0
  -53.9351  -26.8878    9.7462 C   0  0  0  0  0  0  0  0  0  0  0  0
  -52.0288  -28.3019    9.2934 C   0  0  0  0  0  0  0  0  0  0  0  0
  -53.6158  -26.8929   11.1040 C   0  0  0  0  0  0  0  0  0  0  0  0
  -51.3972  -29.1176    7.0009 C   0  0  0  0  0  0  0  0  0  0  0  0
  -54.2530  -26.0713   13.4062 C   0  0  0  0  0  0  0  0  0  0  0  0
  -57.5557  -25.4228   12.8055 C   0  0  0  0  0  0  0  0  0  0  0  0
  -57.6293  -24.2871   13.7815 C   0  0  0  0  0  0  0  0  0  0  0  0
  -48.7294  -28.1922    5.9879 C   0  0  0  0  0  0  0  0  0  0  0  0
  -50.5176  -30.1012    4.8753 C   0  0  0  0  0  0  0  0  0  0  0  0
  -50.3295  -29.9697    6.3838 C   0  0  1  0  0  0  0  0  0  0  0  0
  -56.3091  -24.6629   13.1673 C   0  0  0  0  0  0  0  0  0  0  0  0
  -48.8792  -28.4013    4.4795 C   0  0  1  0  0  0  0  0  0  0  0  0
  -47.7907  -29.2804    3.8673 C   0  0  0  0  0  0  0  0  0  0  0  0
  -49.0296  -29.4058    6.7529 N   0  0  0  0  0  0  0  0  0  0  0  0
  -51.2246  -29.0170    8.3753 N   0  0  0  0  0  0  0  0  0  0  0  0
  -54.4089  -26.1879   12.0098 N   0  0  0  0  0  0  0  0  0  0  0  0
  -55.2615  -25.2725   13.9551 N   0  0  0  0  0  0  0  0  0  0  0  0
  -52.2708  -28.6055    6.3080 O   0  0  0  0  0  0  0  0  0  0  0  0
  -53.3636  -26.5879   14.0782 O   0  0  0  0  0  0  0  0  0  0  0  0
  -50.1887  -28.8962    4.1820 O   0  0  0  0  0  0  0  0  0  0  0  0
  -46.5800  -28.7412    4.0857 F   0  0  0  0  0  0  0  0  0  0  0  0
  -47.9778  -29.3964    2.5422 F   0  0  0  0  0  0  0  0  0  0  0  0
  -47.8208  -30.5064    4.4155 F   0  0  0  0  0  0  0  0  0  0  0  0
  -50.8457  -28.8577   11.0149 H   0  0  0  0  0  0  0  0  0  0  0  0
  -53.3990  -27.5799    7.7851 H   0  0  0  0  0  0  0  0  0  0  0  0
  -52.2454  -27.6139   12.6123 H   0  0  0  0  0  0  0  0  0  0  0  0
  -54.7998  -26.3384    9.3825 H   0  0  0  0  0  0  0  0  0  0  0  0
  -57.6789  -26.4271   13.1921 H   0  0  0  0  0  0  0  0  0  0  0  0
  -57.9711  -25.2672   11.8175 H   0  0  0  0  0  0  0  0  0  0  0  0
  -58.0945  -23.3665   13.4511 H   0  0  0  0  0  0  0  0  0  0  0  0
  -57.8017  -24.5288   14.8231 H   0  0  0  0  0  0  0  0  0  0  0  0
  -47.7024  -27.8615    6.2305 H   0  0  0  0  0  0  0  0  0  0  0  0
  -49.4042  -27.3856    6.3230 H   0  0  0  0  0  0  0  0  0  0  0  0
  -49.8649  -30.8996    4.4808 H   0  0  0  0  0  0  0  0  0  0  0  0
  -51.5501  -30.4000    4.6095 H   0  0  0  0  0  0  0  0  0  0  0  0
  -50.4167  -30.9903    6.8546 H   0  0  0  0  0  0  0  0  0  0  0  0
  -55.9137  -23.9895   12.4146 H   0  0  0  0  0  0  0  0  0  0  0  0
  -48.8009  -27.3800    3.9751 H   0  0  0  0  0  0  0  0  0  0  0  0
  -48.2903  -30.1019    6.5812 H   0  0  0  0  0  0  0  0  0  0  0  0
  -50.4321  -29.5095    8.7818 H   0  0  0  0  0  0  0  0  0  0  0  0
  -55.2101  -25.6893   11.6073 H   0  0  0  0  0  0  0  0  0  0  0  0
  -55.2829  -25.1367   14.9610 H   0  0  0  0  0  0  0  0  0  0  0  0
  1  3  1  0  0  0  0
  1  5  2  0  0  0  0
  2  4  2  0  0  0  0
  2  5  1  0  0  0  0
  3  6  2  0  0  0  0
  4  6  1  0  0  0  0
  5 18  1  0  0  0  0
  6 19  1  0  0  0  0
  7 13  1  0  0  0  0
  7 18  1  0  0  0  0
  7 21  2  0  0  0  0
  8 19  1  0  0  0  0
  8 20  1  0  0  0  0
  8 22  2  0  0  0  0
  9 10  1  0  0  0  0
  9 14  1  0  0  0  0
 10 14  1  0  0  0  0
 11 15  1  0  0  0  0
 11 17  1  0  0  0  0
 12 13  1  0  0  0  0
 12 23  1  0  0  0  0
 13 17  1  0  0  0  0
 14 20  1  0  0  0  0
 15 16  1  0  0  0  0
 15 23  1  0  0  0  0
 16 24  1  0  0  0  0
 16 25  1  0  0  0  0
 16 26  1  0  0  0  0
  1 27  1  0  0  0  0
  2 28  1  0  0  0  0
  3 29  1  0  0  0  0
  4 30  1  0  0  0  0
  9 31  1  0  0  0  0
  9 32  1  0  0  0  0
 10 33  1  0  0  0  0
 10 34  1  0  0  0  0
 11 35  1  0  0  0  0
 11 36  1  0  0  0  0
 12 37  1  0  0  0  0
 12 38  1  0  0  0  0
 13 39  1  0  0  0  0
 14 40  1  0  0  0  0
 15 41  1  0  0  0  0
 17 42  1  0  0  0  0
 18 43  1  0  0  0  0
 19 44  1  0  0  0  0
 20 45  1  0  0  0  0
M  END
> <POSIT::Probability>
0.23

> <POSIT::Method>
HYBRID

> <ReceptorTitle>
UCSF-P4432-REFINED_LIGAND-BOUND-STATE_A__DU__LA1_A-201(A)

> <OMEGA_C>
k9ZOwsp04sEIaypByJBUwty83MHndA1BWANSwgTS3MHS5jhBjL1Xwh4a18F38BtBiR1QwkJq4sG6
sRRBl3ZWwp4k18EDqjFBuZZNwt7w6MEWB+BADwNZwvCR0MG5f1ZBCDlmwt9hy8GG40xBW4RmwuJL
wsH6gFxB7upCwq6J4cG+nL9ACxJKwjTP8MHaApxAblFJwvjB78ESSMxAejxhwrhNxcEurVJBQIRD
wto148HqV49AuCk/wlg+6sEQgXdAUx5Ewv8+68FkF9hA++VMwuYi6MEPAQZBsqJZws+A0cE1KEBB
vAtdwiYuysHsR19BQxVRwiHY5MEW28lAXHRVwhu01MEwQGFBMsFIwmcr58FU04VA91E6wvLt5cGq
vYJAT+k/wucr68GQsyJAe0g/wggN9MFmS41ABmJLwoDc5sEwPTBBkJhVwpWj3MGUH/lARPtQwkXp
3MHyy0lBAzNbwg610sHqHhZBOrdmwrdq08HFElNBc+JnwkYjysFkFD1BymBowq7uusHDN1dB7TRn
wv86xMFNK21BPs8+wmTk3sEaYMdA4J1FwqUV28EGVspAoHVHwlYy98GAYo9ASDNOwkIz88EugZNA
uqpJwjDs98EWWdtAmKdfwpbqv8FGokZBGzRDwkAK28FwaH5AOilBwq7Q8MFgmdJAc7pJwnIT7MFH
ggxBJddcwpqDzcFMtzlBtiFdwuQXycFkYG9B

> <OMEGA_E>
OmDTwA==

> <OMEGA_NBR>
    111549

$$$$
CACHE3HI_1879_31
  -OEChem-03092622513D

 45 48  0     0  0  0  0  0  0999 V2000
  -53.4329  -26.3759    9.6864 C   0  0  0  0  0  0  0  0  0  0  0  0
  -46.4394  -28.8433    1.6963 C   0  0  0  0  0  0  0  0  0  0  0  0
  -44.9599  -29.5497    3.4710 C   0  0  0  0  0  0  0  0  0  0  0  0
  -47.5398  -29.0810    2.5199 C   0  0  0  0  0  0  0  0  0  0  0  0
  -46.0603  -29.7875    4.2946 C   0  0  0  0  0  0  0  0  0  0  0  0
  -53.0478  -27.1936    8.6238 C   0  0  0  0  0  0  0  0  0  0  0  0
  -52.8988  -29.0846   10.1210 C   0  0  0  0  0  0  0  0  0  0  0  0
  -50.2615  -30.6264    5.2920 C   0  0  0  0  0  0  0  0  0  0  0  0
  -48.6933  -29.1857    5.8385 C   0  0  0  0  0  0  0  0  0  0  0  0
  -53.2794  -28.2655   11.1894 C   0  0  0  0  0  0  0  0  0  0  0  0
  -53.5417  -26.9018   10.9799 C   0  0  0  0  0  0  0  0  0  0  0  0
  -45.1494  -29.0776    2.1721 C   0  0  0  0  0  0  0  0  0  0  0  0
  -47.3504  -29.5532    3.8188 C   0  0  0  0  0  0  0  0  0  0  0  0
  -49.8776  -29.7135    6.2925 C   0  0  0  0  0  0  0  0  0  0  0  0
  -52.7797  -28.5437    8.8406 C   0  0  0  0  0  0  0  0  0  0  0  0
  -53.4295  -28.8515   12.5456 C   0  0  0  0  0  0  0  0  0  0  0  0
  -53.9968  -26.0302   12.1181 C   0  0  0  0  0  0  0  0  0  0  0  0
  -53.4020  -26.5210   13.4276 C   0  0  0  0  0  0  0  0  0  0  0  0
  -43.9725  -28.8224    1.2924 C   0  0  0  0  0  0  0  0  0  0  0  0
  -49.3922  -30.6778    4.2793 N   0  0  0  0  0  0  0  0  0  0  0  0
  -48.4497  -29.7907    4.6407 N   0  0  0  0  0  0  0  0  0  0  0  0
  -53.5717  -27.9514   13.5868 N   0  0  0  0  0  0  0  0  0  0  0  0
  -50.5844  -29.4166    7.5091 N   0  0  0  0  0  0  0  0  0  0  0  0
  -53.4372  -30.0679   12.7018 O   0  0  0  0  0  0  0  0  0  0  0  0
  -52.8046  -28.9517    6.2788 O   0  0  0  0  0  0  0  0  0  0  0  0
  -52.6751  -30.9375    7.8091 O   0  0  0  0  0  0  0  0  0  0  0  0
  -44.3042  -28.3624    0.0499 F   0  0  0  0  0  0  0  0  0  0  0  0
  -43.2235  -29.9435    1.0792 F   0  0  0  0  0  0  0  0  0  0  0  0
  -43.1069  -27.8940    1.7973 F   0  0  0  0  0  0  0  0  0  0  0  0
  -52.3017  -29.5616    7.5048 S   0  0  0  0  0  0  0  0  0  0  0  0
  -53.6487  -25.3272    9.4990 H   0  0  0  0  0  0  0  0  0  0  0  0
  -46.5956  -28.4742    0.6861 H   0  0  0  0  0  0  0  0  0  0  0  0
  -43.9581  -29.7361    3.8487 H   0  0  0  0  0  0  0  0  0  0  0  0
  -48.5398  -28.8933    2.1362 H   0  0  0  0  0  0  0  0  0  0  0  0
  -45.8980  -30.1555    5.3048 H   0  0  0  0  0  0  0  0  0  0  0  0
  -52.9651  -26.7668    7.6277 H   0  0  0  0  0  0  0  0  0  0  0  0
  -52.6926  -30.1406   10.2768 H   0  0  0  0  0  0  0  0  0  0  0  0
  -51.1377  -31.2584    5.2561 H   0  0  0  0  0  0  0  0  0  0  0  0
  -48.0234  -28.4479    6.2609 H   0  0  0  0  0  0  0  0  0  0  0  0
  -53.6900  -24.9908   11.9539 H   0  0  0  0  0  0  0  0  0  0  0  0
  -55.0922  -26.0535   12.1639 H   0  0  0  0  0  0  0  0  0  0  0  0
  -52.3242  -26.3235   13.4619 H   0  0  0  0  0  0  0  0  0  0  0  0
  -53.8692  -26.0220   14.2822 H   0  0  0  0  0  0  0  0  0  0  0  0
  -53.8063  -28.3105   14.5070 H   0  0  0  0  0  0  0  0  0  0  0  0
  -50.1090  -29.7200    8.3690 H   0  0  0  0  0  0  0  0  0  0  0  0
  1  6  2  0  0  0  0
  1 11  1  0  0  0  0
  2  4  1  0  0  0  0
  2 12  2  0  0  0  0
  3  5  2  0  0  0  0
  3 12  1  0  0  0  0
  4 13  2  0  0  0  0
  5 13  1  0  0  0  0
  6 15  1  0  0  0  0
  7 10  1  0  0  0  0
  7 15  2  0  0  0  0
  8 14  1  0  0  0  0
  8 20  2  0  0  0  0
  9 14  2  0  0  0  0
  9 21  1  0  0  0  0
 10 11  2  0  0  0  0
 10 16  1  0  0  0  0
 11 17  1  0  0  0  0
 12 19  1  0  0  0  0
 13 21  1  0  0  0  0
 14 23  1  0  0  0  0
 15 30  1  0  0  0  0
 16 22  1  0  0  0  0
 16 24  2  0  0  0  0
 17 18  1  0  0  0  0
 18 22  1  0  0  0  0
 19 27  1  0  0  0  0
 19 28  1  0  0  0  0
 19 29  1  0  0  0  0
 20 21  1  0  0  0  0
 23 30  1  0  0  0  0
 25 30  2  0  0  0  0
 26 30  2  0  0  0  0
  1 31  1  0  0  0  0
  2 32  1  0  0  0  0
  3 33  1  0  0  0  0
  4 34  1  0  0  0  0
  5 35  1  0  0  0  0
  6 36  1  0  0  0  0
  7 37  1  0  0  0  0
  8 38  1  0  0  0  0
  9 39  1  0  0  0  0
 17 40  1  0  0  0  0
 17 41  1  0  0  0  0
 18 42  1  0  0  0  0
 18 43  1  0  0  0  0
 22 44  1  0  0  0  0
 23 45  1  0  0  0  0
M  END
> <POSIT::Probability>
0.18

> <POSIT::Method>
FRED

> <ReceptorTitle>
UCSF-P4432-REFINED_LIGAND-BOUND-STATE_A__DU__LA1_A-201(A)

> <OMEGA_C>
UrtVwtoB08Gg+xpB/ME5wiC/5sEYINk/+9Yzwtxl7MEMJV5AzSg+wvml6MGwRSFAvT04wrdM7sFT
bYlA7zBUwouM2cEs+wlBVJhTwkOt6MHQ7yFBygtJwuYC9cEiWKlA/MVCwkx86cFd1bpAFh5Vwqkf
4sHGBzNBuSpWwtw218GOrS9B/pg0wu+e6MGEAwtAyWY9wuRs7ME0Z3RApoJHwjG17cFQXMlAbR5T
woVZ5MEacw1ByrdVwvTP5sGoukhBu/xXwus90MHk40FBnJtVwgor1MFw11ZB1OMvwlKU5sEQbqU/
nJFFwhhs9cFl8IhAe8xBwkRT7sGsgJRAYklWwoSc38FeY1lBalZKwidV68HxSvBArL9Vwh6L8MF6
OktB9TdTwgqd58EY7MhASrNSwvx/98EC5PlAdzcxwh3m4sEAlEw94eQswjSM78HYJIo/dG0swvYm
38FQDOY/8DRRwhd+7MGYJ/BATJhWwgieysEV/BdB3GE6wjbL48GApy8/F9UvwnPj7cHYUXZAzChC
wn4l58EguAhAhpc3wog+8cHZwKlARtxTwl4i1sEBFvRAL8VSwt8f8cHEbSRBAo1MwjoR+sGVMahA
/BdAwjuV48EnWchAl8JWwj/tx8E2Qz9BcV5cwp5t0MF+n0JB/EtRwoSW0sEbZFdBC3pXwhot0MHZ
g2RBozlXwvR74sG1HGhBqG9Iwn7C7cGQ5wVB

> <OMEGA_E>
6CgWwQ==

> <OMEGA_NBR>
    112941

$$$$
CACHE3HI_1879_35
  -OEChem-03092622513D

 44 47  0     0  0  0  0  0  0999 V2000
  -48.1691  -29.5387    4.3720 C   0  0  0  0  0  0  0  0  0  0  0  0
  -48.2665  -29.2162    6.7645 C   0  0  0  0  0  0  0  0  0  0  0  0
  -49.5569  -29.4181    4.2999 C   0  0  0  0  0  0  0  0  0  0  0  0
  -49.6543  -29.0957    6.6924 C   0  0  0  0  0  0  0  0  0  0  0  0
  -46.0920  -29.0923    0.4921 C   0  0  0  0  0  0  0  0  0  0  0  0
  -45.2067  -30.9652    1.7686 C   0  0  0  0  0  0  0  0  0  0  0  0
  -44.2204  -29.6161    6.5275 C   0  0  0  0  0  0  0  0  0  0  0  0
  -45.3022  -29.7729    4.6199 C   0  0  0  0  0  0  0  0  0  0  0  0
  -46.2194  -30.3934    0.9827 C   0  0  0  0  0  0  0  0  0  0  0  0
  -44.9487  -28.3806    0.8117 C   0  0  0  0  0  0  0  0  0  0  0  0
  -43.9384  -28.9506    1.5952 C   0  0  0  0  0  0  0  0  0  0  0  0
  -47.5240  -29.4375    5.6045 C   0  0  0  0  0  0  0  0  0  0  0  0
  -44.0342  -29.8166    5.1465 C   0  0  0  0  0  0  0  0  0  0  0  0
  -50.2994  -29.1968    5.4599 C   0  0  0  0  0  0  0  0  0  0  0  0
  -44.0510  -30.2444    2.0754 C   0  0  0  0  0  0  0  0  0  0  0  0
  -47.4103  -31.1678    0.6691 C   0  0  0  0  0  0  0  0  0  0  0  0
  -44.5709  -27.0001    0.3773 C   0  0  0  0  0  0  0  0  0  0  0  0
  -42.7913  -28.0036    1.7571 C   0  0  0  0  0  0  0  0  0  0  0  0
  -43.4505  -26.6703    1.3752 C   0  0  0  0  0  0  0  0  0  0  0  0
  -45.5049  -29.4567    6.8570 N   0  0  0  0  0  0  0  0  0  0  0  0
  -46.1379  -29.5571    5.6759 N   0  0  0  0  0  0  0  0  0  0  0  0
  -42.7853  -30.0192    4.4631 N   0  0  0  0  0  0  0  0  0  0  0  0
  -47.6327  -32.3233    1.0455 O   0  0  0  0  0  0  0  0  0  0  0  0
  -41.5243  -30.7692    2.3402 O   0  0  0  0  0  0  0  0  0  0  0  0
  -43.1906  -32.3433    3.3637 O   0  0  0  0  0  0  0  0  0  0  0  0
  -48.2909  -30.4773   -0.1056 O   0  0  0  0  0  0  0  0  0  0  0  0
  -51.6320  -29.0816    5.3897 F   0  0  0  0  0  0  0  0  0  0  0  0
  -42.7922  -30.9800    3.0317 S   0  0  0  0  0  0  0  0  0  0  0  0
  -47.6027  -29.7106    3.4598 H   0  0  0  0  0  0  0  0  0  0  0  0
  -47.7763  -29.1352    7.7316 H   0  0  0  0  0  0  0  0  0  0  0  0
  -50.0603  -29.4968    3.3408 H   0  0  0  0  0  0  0  0  0  0  0  0
  -50.2326  -28.9233    7.5953 H   0  0  0  0  0  0  0  0  0  0  0  0
  -46.8655  -28.6467   -0.1256 H   0  0  0  0  0  0  0  0  0  0  0  0
  -45.3217  -31.9832    2.1358 H   0  0  0  0  0  0  0  0  0  0  0  0
  -43.4757  -29.5796    7.3101 H   0  0  0  0  0  0  0  0  0  0  0  0
  -45.6661  -29.8751    3.6057 H   0  0  0  0  0  0  0  0  0  0  0  0
  -44.1933  -27.0192   -0.6502 H   0  0  0  0  0  0  0  0  0  0  0  0
  -45.4001  -26.2921    0.4602 H   0  0  0  0  0  0  0  0  0  0  0  0
  -42.4065  -27.9709    2.7801 H   0  0  0  0  0  0  0  0  0  0  0  0
  -41.9875  -28.2611    1.0598 H   0  0  0  0  0  0  0  0  0  0  0  0
  -42.7319  -25.9493    0.9733 H   0  0  0  0  0  0  0  0  0  0  0  0
  -43.8929  -26.2181    2.2740 H   0  0  0  0  0  0  0  0  0  0  0  0
  -42.1613  -29.2019    4.4537 H   0  0  0  0  0  0  0  0  0  0  0  0
  -49.0985  -30.9909   -0.3228 H   0  0  0  0  0  0  0  0  0  0  0  0
  1  3  1  0  0  0  0
  1 12  2  0  0  0  0
  2  4  2  0  0  0  0
  2 12  1  0  0  0  0
  3 14  2  0  0  0  0
  4 14  1  0  0  0  0
  5  9  1  0  0  0  0
  5 10  2  0  0  0  0
  6  9  2  0  0  0  0
  6 15  1  0  0  0  0
  7 13  1  0  0  0  0
  7 20  2  0  0  0  0
  8 13  2  0  0  0  0
  8 21  1  0  0  0  0
  9 16  1  0  0  0  0
 10 11  1  0  0  0  0
 10 17  1  0  0  0  0
 11 15  2  0  0  0  0
 11 18  1  0  0  0  0
 12 21  1  0  0  0  0
 13 22  1  0  0  0  0
 14 27  1  0  0  0  0
 15 28  1  0  0  0  0
 16 23  2  0  0  0  0
 16 26  1  0  0  0  0
 17 19  1  0  0  0  0
 18 19  1  0  0  0  0
 20 21  1  0  0  0  0
 22 28  1  0  0  0  0
 24 28  2  0  0  0  0
 25 28  2  0  0  0  0
  1 29  1  0  0  0  0
  2 30  1  0  0  0  0
  3 31  1  0  0  0  0
  4 32  1  0  0  0  0
  5 33  1  0  0  0  0
  6 34  1  0  0  0  0
  7 35  1  0  0  0  0
  8 36  1  0  0  0  0
 17 37  1  0  0  0  0
 17 38  1  0  0  0  0
 18 39  1  0  0  0  0
 18 40  1  0  0  0  0
 19 41  1  0  0  0  0
 19 42  1  0  0  0  0
 22 43  1  0  0  0  0
 26 44  1  0  0  0  0
M  END
> <POSIT::Probability>
0.02

> <POSIT::Method>
FRED

> <ReceptorTitle>
UCSF-P4432-REFINED_LIGAND-BOUND-STATE_A__DU__LA1_A-201(A)

> <OMEGA_C>
IK1AwixP7MFs54tA6hBBws666cHVdthAOzpGwlxY68F+mIlA+J1Gwv3D6MEwKNZALF44wv686MEw
9Ps+qdM0wqa498HwYOI/veEwwrXt7MH04NBAejU1wvou7sFm1pNAtuA4wsUl88HslHs/a8szwnYL
48HIyk8/48Avwuqa58EiL8w/iBg+wgyA68EGWLNACiMwwnKI7sFSsKRAnTJJwh6T6cFLt65AOTQw
wpz08cE60wRALqQ9wpRX+cGARys/nEgywj8A2MFgLME+TiorwmQH4MEk6eA/RM0twtJc1cHcB7A/
AgU2wjun68HvbNtAQo04wvl07ME7obVAICQrwlsn8MEK0o5A54c+wgpLAcJ00oU/3Rgmwk8n9sEP
xhVAMMMswn9fAcKGR1dA3ilBwojR88FASdi9L4dOwgun6MGGeKxANysrwgXX98HHB0JAJmk+wmiv
7cFzbV1A5Bo/wvwU6cEdafdAuj1IwmH568Fez1VAJ+5IwgVj58HYDPNATHY7wnEs5cFAmQC+Y0k1
wozd/8EDsQhAIuctwvKi7MED7OlAFKo2wjoA78FEw2ZA/MUwwkwn2MHQcia/vJk1wjJW0sFgnes+
Q6Apwm/E38Hk7TFALvMnwqwW4sGIpoc/cO0qwhiYz8GQKHk/SJIvwpq+0cGxiBFAOKUownad6cHP
hI5A1GREwknt98FQQ6W+

> <OMEGA_E>
EM4PwQ==

> <OMEGA_NBR>
    114313

$$$$
CACHE3HI_1879_45
  -OEChem-03092622513D

 54 57  0     0  0  0  0  0  0999 V2000
  -55.6253  -25.5669   12.8531 C   0  0  0  0  0  0  0  0  0  0  0  0
  -54.3692  -25.7216   13.4395 C   0  0  0  0  0  0  0  0  0  0  0  0
  -55.7745  -25.7205   11.4748 C   0  0  0  0  0  0  0  0  0  0  0  0
  -53.2626  -26.0300   12.6481 C   0  0  0  0  0  0  0  0  0  0  0  0
  -52.4619  -28.2285    7.4775 C   0  0  0  0  0  0  0  0  0  0  0  0
  -49.3946  -29.2752    3.2711 C   0  0  0  0  0  0  0  0  0  0  0  0
  -47.8730  -29.2577    4.8578 C   0  0  0  0  0  0  0  0  0  0  0  0
  -52.6580  -29.0012    9.5836 C   0  0  0  0  0  0  0  0  0  0  0  0
  -54.6680  -26.0290   10.6834 C   0  0  0  0  0  0  0  0  0  0  0  0
  -49.2307  -29.1756    4.6657 C   0  0  0  0  0  0  0  0  0  0  0  0
  -53.4119  -26.1836   11.2698 C   0  0  0  0  0  0  0  0  0  0  0  0
  -53.3436  -28.3532    8.5796 C   0  0  0  0  0  0  0  0  0  0  0  0
  -51.2644  -28.8036    7.8417 C   0  0  0  0  0  0  0  0  0  0  0  0
  -50.0189  -28.9293    7.0398 C   0  0  0  0  0  0  0  0  0  0  0  0
  -45.5405  -30.8234    2.5219 C   0  0  0  0  0  0  0  0  0  0  0  0
  -44.9686  -29.4412    4.5433 C   0  0  0  0  0  0  0  0  0  0  0  0
  -44.0414  -30.9497    2.2391 C   0  0  0  0  0  0  0  0  0  0  0  0
  -43.4894  -29.6165    4.1887 C   0  0  0  0  0  0  0  0  0  0  0  0
  -45.8528  -29.5292    3.2895 C   0  0  0  0  0  0  0  0  0  0  0  0
  -41.8359  -31.0623    3.1998 C   0  0  0  0  0  0  0  0  0  0  0  0
  -48.2343  -29.4099    2.6235 N   0  0  0  0  0  0  0  0  0  0  0  0
  -51.3952  -29.2699    9.1235 N   0  0  0  0  0  0  0  0  0  0  0  0
  -47.3277  -29.3957    3.6153 N   0  0  0  0  0  0  0  0  0  0  0  0
  -43.2603  -30.8845    3.4822 N   0  0  0  0  0  0  0  0  0  0  0  0
  -50.1880  -29.0291    5.6381 N   0  0  0  0  0  0  0  0  0  0  0  0
  -54.8253  -26.1871    9.2627 N   0  0  0  0  0  0  0  0  0  0  0  0
  -48.9513  -28.9579    7.6428 O   0  0  0  0  0  0  0  0  0  0  0  0
  -55.6907  -28.5856    9.6598 O   0  0  0  0  0  0  0  0  0  0  0  0
  -55.5336  -27.7431    7.3003 O   0  0  0  0  0  0  0  0  0  0  0  0
  -52.3420  -26.4800   10.5182 F   0  0  0  0  0  0  0  0  0  0  0  0
  -54.9551  -27.8041    8.6522 S   0  0  0  0  0  0  0  0  0  0  0  0
  -56.4867  -25.3272   13.4697 H   0  0  0  0  0  0  0  0  0  0  0  0
  -54.2529  -25.6020   14.5127 H   0  0  0  0  0  0  0  0  0  0  0  0
  -56.7574  -25.5973   11.0274 H   0  0  0  0  0  0  0  0  0  0  0  0
  -52.2847  -26.1504   13.1050 H   0  0  0  0  0  0  0  0  0  0  0  0
  -52.6769  -27.7689    6.5220 H   0  0  0  0  0  0  0  0  0  0  0  0
  -50.3101  -29.2552    2.6969 H   0  0  0  0  0  0  0  0  0  0  0  0
  -47.2626  -29.2300    5.7505 H   0  0  0  0  0  0  0  0  0  0  0  0
  -52.9525  -29.2951   10.5815 H   0  0  0  0  0  0  0  0  0  0  0  0
  -46.0956  -30.8406    1.5761 H   0  0  0  0  0  0  0  0  0  0  0  0
  -45.8810  -31.6948    3.0980 H   0  0  0  0  0  0  0  0  0  0  0  0
  -45.2665  -30.2101    5.2692 H   0  0  0  0  0  0  0  0  0  0  0  0
  -45.1156  -28.4734    5.0379 H   0  0  0  0  0  0  0  0  0  0  0  0
  -43.8684  -31.9119    1.7418 H   0  0  0  0  0  0  0  0  0  0  0  0
  -43.7318  -30.1607    1.5409 H   0  0  0  0  0  0  0  0  0  0  0  0
  -43.1524  -28.7642    3.5841 H   0  0  0  0  0  0  0  0  0  0  0  0
  -42.9123  -29.6021    5.1214 H   0  0  0  0  0  0  0  0  0  0  0  0
  -45.6528  -28.6548    2.6347 H   0  0  0  0  0  0  0  0  0  0  0  0
  -41.2518  -31.0143    4.1233 H   0  0  0  0  0  0  0  0  0  0  0  0
  -41.6629  -32.0323    2.7252 H   0  0  0  0  0  0  0  0  0  0  0  0
  -41.4849  -30.2797    2.5214 H   0  0  0  0  0  0  0  0  0  0  0  0
  -50.6729  -29.7404    9.6515 H   0  0  0  0  0  0  0  0  0  0  0  0
  -51.1672  -28.9857    5.3004 H   0  0  0  0  0  0  0  0  0  0  0  0
  -54.2707  -25.5356    8.6923 H   0  0  0  0  0  0  0  0  0  0  0  0
  1  2  1  0  0  0  0
  1  3  2  0  0  0  0
  2  4  2  0  0  0  0
  3  9  1  0  0  0  0
  4 11  1  0  0  0  0
  5 12  1  0  0  0  0
  5 13  2  0  0  0  0
  6 10  1  0  0  0  0
  6 21  2  0  0  0  0
  7 10  2  0  0  0  0
  7 23  1  0  0  0  0
  8 12  2  0  0  0  0
  8 22  1  0  0  0  0
  9 11  2  0  0  0  0
  9 26  1  0  0  0  0
 10 25  1  0  0  0  0
 11 30  1  0  0  0  0
 12 31  1  0  0  0  0
 13 14  1  0  0  0  0
 13 22  1  0  0  0  0
 14 25  1  0  0  0  0
 14 27  2  0  0  0  0
 15 17  1  0  0  0  0
 15 19  1  0  0  0  0
 16 18  1  0  0  0  0
 16 19  1  0  0  0  0
 17 24  1  0  0  0  0
 18 24  1  0  0  0  0
 19 23  1  0  0  0  0
 20 24  1  0  0  0  0
 21 23  1  0  0  0  0
 26 31  1  0  0  0  0
 28 31  2  0  0  0  0
 29 31  2  0  0  0  0
  1 32  1  0  0  0  0
  2 33  1  0  0  0  0
  3 34  1  0  0  0  0
  4 35  1  0  0  0  0
  5 36  1  0  0  0  0
  6 37  1  0  0  0  0
  7 38  1  0  0  0  0
  8 39  1  0  0  0  0
 15 40  1  0  0  0  0
 15 41  1  0  0  0  0
 16 42  1  0  0  0  0
 16 43  1  0  0  0  0
 17 44  1  0  0  0  0
 17 45  1  0  0  0  0
 18 46  1  0  0  0  0
 18 47  1  0  0  0  0
 19 48  1  0  0  0  0
 20 49  1  0  0  0  0
 20 50  1  0  0  0  0
 20 51  1  0  0  0  0
 22 52  1  0  0  0  0
 25 53  1  0  0  0  0
 26 54  1  0  0  0  0
M  END
> <POSIT::Probability>
0.18

> <POSIT::Method>
FRED

> <ReceptorTitle>
UCSF-P4432-REFINED_LIGAND-BOUND-STATE_A__DU__LA1_A-201(A)

> <OMEGA_C>
ToBewhqJzMEdpk1BCnpZwtnFzcFRCFdBGxlfwqrDzcHImDdB6gxVwoY90MGVXkpB9NhRwt7T4cGi
R+9AH5RFwqUz6sEgWVFA8H0/wrMP6sE6c5tA0aFSwoAC6ME8VhlB/atawlY70MEK7ypBQexEwqxn
6cGsTZVAwaVVwhZ40cEKUTRB1l9VwlHT4sHZRQlBug5NwtFt5sHQ7vpAVRNIwkZv58FmRuFAeik2
wkGW9sGgZyFA0t8zwpeH68FsYpFAWiowwvCY98GQTQ9AKfUtwqju7MGCCYZAPWk3wtY77MFkhlJA
7VcnwpB/+ME2yUxA8O9AwnBH68Go5ydAsJRNwtso6sHO+RFBjE89wn0q68G2YWdAfwotwoUT98HA
3F5AisBIwqQ76MFWa7RAHE1bwjB/0cE1NBRBG85DwuGp58HjkfRAP8Newlav5MGUjhpBdSJewtbx
3cHMm+lAOV5RwiPX08GMSihB+dFbwrRu3sFybwpBXPJhwjCeysGyg1dB9wJZwvLQzMEnNGhBlwdj
wlzHzMExcDBBhSNRwgk00cH4rVFBKbVSwrIm3sFdtNBAlz1JwrIK6sGcmSxA5Qw9wiDX6cE4BLhA
U89TwnZc6sHOTSlB42E4wpq59sGAvMk/MYY3wuiO/cHcRUZA8RA1wmOu8cGQnahAXnY0wn/J48Fl
NqFAQ3kvwn5L/8Hw894/V+0uwhZJ8cH4PMU/DJwswh8d5sFSYWVAN6YrwijR7MEe4qNAhJw2whA9
5cHYnihAywElwjwd+MFH8oNA1aYmwhMhAMIEai5AjfAlwuM88sGIXiFABLFKwlbs7cF2bBpBK6tM
wq7i58HwnKlAOBVZwvBIzMGmEwtB

> <OMEGA_E>
2NIewQ==

> <OMEGA_NBR>
    115887

$$$$
CACHE3HI_1687_66
  -OEChem-03092622513D

 35 37  0     0  0  0  0  0  0999 V2000
  -52.1215  -27.8054    2.6426 C   0  0  0  0  0  0  0  0  0  0  0  0
  -41.6487  -30.6830    2.7182 C   0  0  0  0  0  0  0  0  0  0  0  0
  -50.2529  -29.3651    6.0915 C   0  0  0  0  0  0  0  0  0  0  0  0
  -41.9976  -29.9338    1.5946 C   0  0  0  0  0  0  0  0  0  0  0  0
  -42.3174  -30.4813    3.9255 C   0  0  0  0  0  0  0  0  0  0  0  0
  -51.6435  -29.2687    6.0417 C   0  0  0  0  0  0  0  0  0  0  0  0
  -50.1096  -28.4321    3.8674 C   0  0  0  0  0  0  0  0  0  0  0  0
  -43.6840  -28.7815    2.8854 C   0  0  0  0  0  0  0  0  0  0  0  0
  -47.2797  -29.2456    3.9243 C   0  0  0  0  0  0  0  0  0  0  0  0
  -47.3428  -28.9524    6.2409 C   0  0  0  0  0  0  0  0  0  0  0  0
  -51.5002  -28.3357    3.8176 C   0  0  0  0  0  0  0  0  0  0  0  0
  -49.4860  -28.9468    5.0041 C   0  0  0  0  0  0  0  0  0  0  0  0
  -48.0436  -29.0479    5.0563 C   0  0  0  0  0  0  0  0  0  0  0  0
  -43.0152  -28.9832    1.6780 C   0  0  0  0  0  0  0  0  0  0  0  0
  -43.3350  -29.5307    4.0089 C   0  0  0  0  0  0  0  0  0  0  0  0
  -52.2672  -28.7540    4.9050 C   0  0  0  0  0  0  0  0  0  0  0  0
  -45.3666  -29.2350    5.1526 C   0  0  0  0  0  0  0  0  0  0  0  0
  -52.6255  -27.3752    1.6898 N   0  0  0  0  0  0  0  0  0  0  0  0
  -45.9341  -29.3442    3.9361 N   0  0  0  0  0  0  0  0  0  0  0  0
  -45.9991  -29.0421    6.3262 N   0  0  0  0  0  0  0  0  0  0  0  0
  -43.3676  -28.2262    0.5415 N   0  0  0  0  0  0  0  0  0  0  0  0
  -53.6282  -28.6714    4.8835 O   0  0  0  0  0  0  0  0  0  0  0  0
  -43.9954  -29.3320    5.2021 O   0  0  0  0  0  0  0  0  0  0  0  0
  -40.8565  -31.4231    2.6531 H   0  0  0  0  0  0  0  0  0  0  0  0
  -49.7809  -29.7687    6.9844 H   0  0  0  0  0  0  0  0  0  0  0  0
  -41.4700  -30.0989    0.6586 H   0  0  0  0  0  0  0  0  0  0  0  0
  -42.0413  -31.0678    4.7975 H   0  0  0  0  0  0  0  0  0  0  0  0
  -52.2348  -29.5960    6.8925 H   0  0  0  0  0  0  0  0  0  0  0  0
  -49.5095  -28.1061    3.0193 H   0  0  0  0  0  0  0  0  0  0  0  0
  -44.4779  -28.0416    2.9554 H   0  0  0  0  0  0  0  0  0  0  0  0
  -47.7311  -29.3346    2.9406 H   0  0  0  0  0  0  0  0  0  0  0  0
  -47.8465  -28.7966    7.1903 H   0  0  0  0  0  0  0  0  0  0  0  0
  -42.8452  -28.3431   -0.3029 H   0  0  0  0  0  0  0  0  0  0  0  0
  -44.0617  -27.5117    0.6277 H   0  0  0  0  0  0  0  0  0  0  0  0
  -53.9747  -29.0101    5.7281 H   0  0  0  0  0  0  0  0  0  0  0  0
  1 11  1  0  0  0  0
  1 18  3  0  0  0  0
  2  4  1  0  0  0  0
  2  5  2  0  0  0  0
  3  6  2  0  0  0  0
  3 12  1  0  0  0  0
  4 14  2  0  0  0  0
  5 15  1  0  0  0  0
  6 16  1  0  0  0  0
  7 11  1  0  0  0  0
  7 12  2  0  0  0  0
  8 14  1  0  0  0  0
  8 15  2  0  0  0  0
  9 13  1  0  0  0  0
  9 19  2  0  0  0  0
 10 13  2  0  0  0  0
 10 20  1  0  0  0  0
 11 16  2  0  0  0  0
 12 13  1  0  0  0  0
 14 21  1  0  0  0  0
 15 23  1  0  0  0  0
 16 22  1  0  0  0  0
 17 19  1  0  0  0  0
 17 20  2  0  0  0  0
 17 23  1  0  0  0  0
  2 24  1  0  0  0  0
  3 25  1  0  0  0  0
  4 26  1  0  0  0  0
  5 27  1  0  0  0  0
  6 28  1  0  0  0  0
  7 29  1  0  0  0  0
  8 30  1  0  0  0  0
  9 31  1  0  0  0  0
 10 32  1  0  0  0  0
 21 33  1  0  0  0  0
 21 34  1  0  0  0  0
 22 35  1  0  0  0  0
M  END
> <POSIT::Probability>
0.14

> <POSIT::Method>
HYBRID

> <ReceptorTitle>
UCSF-P4450-REFINED_LIGAND-BOUND-STATE_A__DU__LA1_A-201(A)

> <OMEGA_C>
dXxQwndx3sHOIClAOZgmwtl29cFA9y1A7QJJwrjr6sGJ7cJAjv0nwmV478ESG8w/B0UpwqbZ88Eu
O3tA9pJOwl4m6sF+VcFARHBIwuR048HSg3dAY7wuwoBA5sHLqThAaR49wuv26cGAJ3tA/l49woKe
58GetcdAQABOwoSv4sE+U3RAo/FFwhOT58HKIaBAoyxAwg5i6MHczKFAkw8swq/d58HKydY/C1ct
wu4+7MFESYBAlhFRwi0I5sGf9ZxAbXc1wj/h6cFM4qRAhoBSwngA28EsTNg/f7w3wtnA6sFB6XtA
Cf83wiZW6MGTcMpAangtwjnP4cGonAo/R4NWwvRe5cGiRZxASPsvwgCo6sGid6ZABG0jwpFi+8Ek
zSlAqB9HwkUm7sEVgN9ASOElwpzK8MEknCg/PioowsuK+MFshZlAZvBQwqPE7MGAj9xAvQlGwlTZ
4MEwPEFAZOkxwihV4MG/JT1AnOw+wjqt6sEcMjxA22I/wnlf5sEAF+ZAcGErwrG+4sHoGJu+JD8w
wg8Y3MHIriA/I+ZXwqwU6MH/TLdA

> <OMEGA_E>
BNXuwA==

> <OMEGA_NBR>
      1193

$$$$
CACHE3HI_1696_25
  -OEChem-03092622513D

 26 28  0     0  0  0  0  0  0999 V2000
  -49.6875  -28.6960    3.8185 C   0  0  0  0  0  0  0  0  0  0  0  0
  -43.9028  -31.3553    0.4827 C   0  0  0  0  0  0  0  0  0  0  0  0
  -42.8703  -29.2300    1.0864 C   0  0  0  0  0  0  0  0  0  0  0  0
  -49.2824  -28.7481    6.2635 C   0  0  0  0  0  0  0  0  0  0  0  0
  -44.8035  -29.3924    5.7852 C   0  0  0  0  0  0  0  0  0  0  0  0
  -48.8414  -28.8265    4.9636 C   0  0  0  0  0  0  0  0  0  0  0  0
  -47.3859  -29.0474    5.0112 C   0  0  0  0  0  0  0  0  0  0  0  0
  -42.7772  -30.5089    0.5038 C   0  0  0  0  0  0  0  0  0  0  0  0
  -45.1197  -30.9302    1.0546 C   0  0  0  0  0  0  0  0  0  0  0  0
  -44.0876  -28.7943    1.6481 C   0  0  0  0  0  0  0  0  0  0  0  0
  -45.2150  -29.6533    1.6577 C   0  0  0  0  0  0  0  0  0  0  0  0
  -47.0333  -29.0766    6.3665 C   0  0  0  0  0  0  0  0  0  0  0  0
  -46.3705  -29.2049    4.0366 C   0  0  0  0  0  0  0  0  0  0  0  0
  -50.3863  -28.5847    2.8918 N   0  0  0  0  0  0  0  0  0  0  0  0
  -45.7511  -29.2449    6.7418 N   0  0  0  0  0  0  0  0  0  0  0  0
  -45.0911  -29.3830    4.4576 N   0  0  0  0  0  0  0  0  0  0  0  0
  -48.1895  -28.8986    7.1098 N   0  0  0  0  0  0  0  0  0  0  0  0
  -41.6112  -30.9188   -0.0464 F   0  0  0  0  0  0  0  0  0  0  0  0
  -46.1994  -31.7449    0.9986 F   0  0  0  0  0  0  0  0  0  0  0  0
  -44.1669  -27.5495    2.1748 F   0  0  0  0  0  0  0  0  0  0  0  0
  -46.7802  -29.0942    2.2974 S   0  0  0  0  0  0  0  0  0  0  0  0
  -43.8337  -32.3323    0.0275 H   0  0  0  0  0  0  0  0  0  0  0  0
  -42.0068  -28.5815    1.1028 H   0  0  0  0  0  0  0  0  0  0  0  0
  -50.3053  -28.5954    6.5748 H   0  0  0  0  0  0  0  0  0  0  0  0
  -43.7759  -29.5228    6.0908 H   0  0  0  0  0  0  0  0  0  0  0  0
  -48.2315  -28.8811    8.1087 H   0  0  0  0  0  0  0  0  0  0  0  0
  1  6  1  0  0  0  0
  1 14  3  0  0  0  0
  2  8  1  0  0  0  0
  2  9  2  0  0  0  0
  3  8  2  0  0  0  0
  3 10  1  0  0  0  0
  4  6  2  0  0  0  0
  4 17  1  0  0  0  0
  5 15  2  0  0  0  0
  5 16  1  0  0  0  0
  6  7  1  0  0  0  0
  7 12  2  0  0  0  0
  7 13  1  0  0  0  0
  8 18  1  0  0  0  0
  9 11  1  0  0  0  0
  9 19  1  0  0  0  0
 10 11  2  0  0  0  0
 10 20  1  0  0  0  0
 11 21  1  0  0  0  0
 12 15  1  0  0  0  0
 12 17  1  0  0  0  0
 13 16  2  0  0  0  0
 13 21  1  0  0  0  0
  2 22  1  0  0  0  0
  3 23  1  0  0  0  0
  4 24  1  0  0  0  0
  5 25  1  0  0  0  0
 17 26  1  0  0  0  0
M  END
> <POSIT::Probability>
0.99

> <POSIT::Method>
SHAPEFIT

> <ReceptorTitle>
UCSF-P4450-REFINED_LIGAND-BOUND-STATE_A__DU__LA1_A-201(A)

> <OMEGA_C>
A8BGwoKR5cGyYXRAcZwvwrnX+sGIJPc+K3srwh/X6cHtDYs/OiFFwib85cHjbshAvTYzwokj68Eu
ILlAlF1Dwp+c5sHn1Z5AKIs9wgFh6MHWW6BA0RsrwkMS9MHO9gA/ino0wgRx98ET/oY/tVkwwsJa
5sHp89I/I9w0wuo57cFGL9Q/EyI8wtSc6MEXustAYXs5wouj6cF3K4FAjItJwout5MHTEjlAKQE3
wqT16cG4vNdAVl00wlUQ68FZpI5AAcJAwmow58FKg+NA2HEmwsNZ98HGAj69OMw4wob1/cEMp38/
66owwm5l3MG8MAtA6h47wgLB6MHPBxNAwlUvwj1UAcKJ8eA8AAcowu+m5MEiKY0/nDhJwmzD5MHR
ZNJAfBovwsIu7MEv6MJABO1AwnAM58FmvQFB

> <OMEGA_E>
AAAAAA==

> <OMEGA_NBR>
      2218

$$$$
CACHE3HI_1706_67
  -OEChem-03092622513D

 37 40  0     0  0  0  0  0  0999 V2000
  -49.6821  -28.6982    3.7690 C   0  0  0  0  0  0  0  0  0  0  0  0
  -49.2801  -28.7160    6.1684 C   0  0  0  0  0  0  0  0  0  0  0  0
  -44.7907  -29.4020    5.9292 C   0  0  0  0  0  0  0  0  0  0  0  0
  -48.7987  -28.8233    4.8845 C   0  0  0  0  0  0  0  0  0  0  0  0
  -47.3336  -29.0671    4.9804 C   0  0  0  0  0  0  0  0  0  0  0  0
  -47.0502  -29.0812    6.3581 C   0  0  0  0  0  0  0  0  0  0  0  0
  -46.2335  -29.2262    4.0812 C   0  0  0  0  0  0  0  0  0  0  0  0
  -43.4243  -30.4006   -0.1660 C   0  0  0  0  0  0  0  0  0  0  0  0
  -43.9215  -31.4890    0.8047 C   0  0  0  0  0  0  0  0  0  0  0  0
  -45.1964  -28.7697    1.8524 C   0  0  0  0  0  0  0  0  0  0  0  0
  -46.8003  -30.1283    1.7988 C   0  0  0  0  0  0  0  0  0  0  0  0
  -44.9287  -30.6670   -0.0086 C   0  0  0  0  0  0  0  0  0  0  0  0
  -45.8322  -29.5791    0.6417 C   0  0  0  0  0  0  0  0  0  0  0  0
  -46.4766  -28.6559   -0.4453 C   0  0  0  0  0  0  0  0  0  0  0  0
  -47.5725  -27.6423    0.0037 C   0  0  0  0  0  0  0  0  0  0  0  0
  -50.4681  -28.5865    2.9152 N   0  0  0  0  0  0  0  0  0  0  0  0
  -45.7965  -29.2486    6.8146 N   0  0  0  0  0  0  0  0  0  0  0  0
  -44.9885  -29.3881    4.5936 N   0  0  0  0  0  0  0  0  0  0  0  0
  -48.2272  -28.8707    7.0521 N   0  0  0  0  0  0  0  0  0  0  0  0
  -46.3266  -29.1074    2.6888 N   0  0  0  0  0  0  0  0  0  0  0  0
  -47.1809  -26.8385    1.0286 F   0  0  0  0  0  0  0  0  0  0  0  0
  -48.7111  -28.2917    0.3514 F   0  0  0  0  0  0  0  0  0  0  0  0
  -50.3101  -28.5402    6.4415 H   0  0  0  0  0  0  0  0  0  0  0  0
  -43.7872  -29.5414    6.3034 H   0  0  0  0  0  0  0  0  0  0  0  0
  -42.9857  -29.4714    0.2266 H   0  0  0  0  0  0  0  0  0  0  0  0
  -42.9090  -30.6853   -1.0952 H   0  0  0  0  0  0  0  0  0  0  0  0
  -43.7606  -32.5514    0.5692 H   0  0  0  0  0  0  0  0  0  0  0  0
  -43.8373  -31.3374    1.8910 H   0  0  0  0  0  0  0  0  0  0  0  0
  -44.2389  -29.1772    2.2088 H   0  0  0  0  0  0  0  0  0  0  0  0
  -45.0878  -27.6918    1.6615 H   0  0  0  0  0  0  0  0  0  0  0  0
  -47.8714  -30.0529    1.5601 H   0  0  0  0  0  0  0  0  0  0  0  0
  -46.5691  -31.1521    2.1279 H   0  0  0  0  0  0  0  0  0  0  0  0
  -45.3936  -31.2039   -0.8486 H   0  0  0  0  0  0  0  0  0  0  0  0
  -45.6629  -28.0746   -0.9034 H   0  0  0  0  0  0  0  0  0  0  0  0
  -46.9301  -29.3119   -1.2030 H   0  0  0  0  0  0  0  0  0  0  0  0
  -47.7825  -27.0124   -0.8733 H   0  0  0  0  0  0  0  0  0  0  0  0
  -48.3059  -28.8354    8.0484 H   0  0  0  0  0  0  0  0  0  0  0  0
  1  4  1  0  0  0  0
  1 16  3  0  0  0  0
  2  4  2  0  0  0  0
  2 19  1  0  0  0  0
  3 17  1  0  0  0  0
  3 18  2  0  0  0  0
  4  5  1  0  0  0  0
  5  6  1  0  0  0  0
  5  7  2  0  0  0  0
  6 17  2  0  0  0  0
  6 19  1  0  0  0  0
  7 18  1  0  0  0  0
  7 20  1  0  0  0  0
  8  9  1  0  0  0  0
  8 12  1  0  0  0  0
  9 12  1  0  0  0  0
 10 13  1  0  0  0  0
 10 20  1  0  0  0  0
 11 13  1  0  0  0  0
 11 20  1  0  0  0  0
 12 13  1  0  0  0  0
 13 14  1  0  0  0  0
 14 15  1  0  0  0  0
 15 21  1  0  0  0  0
 15 22  1  0  0  0  0
  2 23  1  0  0  0  0
  3 24  1  0  0  0  0
  8 25  1  0  0  0  0
  8 26  1  0  0  0  0
  9 27  1  0  0  0  0
  9 28  1  0  0  0  0
 10 29  1  0  0  0  0
 10 30  1  0  0  0  0
 11 31  1  0  0  0  0
 11 32  1  0  0  0  0
 12 33  1  0  0  0  0
 14 34  1  0  0  0  0
 14 35  1  0  0  0  0
 15 36  1  0  0  0  0
 19 37  1  0  0  0  0
M  END
> <POSIT::Probability>
0.75

> <POSIT::Method>
SHAPEFIT

> <ReceptorTitle>
UCSF-P4450-REFINED_LIGAND-BOUND-STATE_A__DU__LA1_A-201(A)

> <OMEGA_C>
cbpGwuyV5cG6N3FA0h5Fwna65cE1Y8VArykzwkE368FVvL1A1DFDwgaW5sHRTZxAqFU9wn+J6MFJ
X59AazM8wlam6MGndctAGu84wjrP6cFtmYJAdrItwnA088Fg+Sm+ka8vwnLp+8HIAk4/H8k0wkco
5sFEGu0/dzM7wq0G8cGcPuY/Abczwg9W9cEAHA28LlQ3wgWi7MHwRiQ/Feg5wk4/5cFwAeS+PEo+
wlUj3cEAOHA7YN9Jwj2x5MGOkjpApy83wh/96cFXEdpAPvQzwtka68GN/pJAnuhAwjX35sHNquFA
fU45wvvb6MEGFSxAQ7k8wlG11sH4qIM/NthCwlFV4sHg77M+iD1JwkBS5MFoIM5AIyYvwtpU7MGo
tclAUvErwlzF68FDDWg+x6IrwoB79cHuLoy/3govwpo0AsJ3thE/aVkvwg+z+sHSC/I/nfQwwvdq
6cGyXA1A51k0wteI3cHJqtQ/Tnw/wkps8MEJsMc/xkY6woM3+cF1LwhAFpM1woKh+cGjQFm/xqY2
wsCY4MHyRGe/c7g7ws1+6sGQ+pm/USE/wlsZ2MF6k1+/RTlBwtSu5sEcxgBB

> <OMEGA_E>
gBIWPw==

> <OMEGA_NBR>
      3479

$$$$
CACHE3HI_1716_30
  -OEChem-03092622513D

 35 38  0     1  0  0  0  0  0999 V2000
  -49.6375  -28.6969    3.8146 C   0  0  0  0  0  0  0  0  0  0  0  0
  -49.3583  -28.7709    6.2772 C   0  0  0  0  0  0  0  0  0  0  0  0
  -44.8460  -29.3189    6.0191 C   0  0  0  0  0  0  0  0  0  0  0  0
  -48.8504  -28.8297    5.0014 C   0  0  0  0  0  0  0  0  0  0  0  0
  -47.3972  -29.0255    5.1253 C   0  0  0  0  0  0  0  0  0  0  0  0
  -47.1138  -29.0838    6.4938 C   0  0  0  0  0  0  0  0  0  0  0  0
  -46.3267  -29.1049    4.2090 C   0  0  0  0  0  0  0  0  0  0  0  0
  -44.3677  -31.4295    0.0213 C   0  0  0  0  0  0  0  0  0  0  0  0
  -42.3731  -30.4005    1.0736 C   0  0  0  0  0  0  0  0  0  0  0  0
  -43.3501  -29.8336    2.1369 C   0  0  0  0  0  0  0  0  0  0  0  0
  -44.0174  -29.0981   -0.0310 C   0  0  0  0  0  0  0  0  0  0  0  0
  -43.2507  -30.3854   -0.1920 C   0  0  2  0  0  0  0  0  0  0  0  0
  -44.6201  -29.5244    1.2899 C   0  0  2  0  0  0  0  0  0  0  0  0
  -45.5783  -28.4598    1.8697 C   0  0  0  0  0  0  0  0  0  0  0  0
  -50.2973  -28.5854    2.8598 N   0  0  0  0  0  0  0  0  0  0  0  0
  -45.8476  -29.2385    6.9294 N   0  0  0  0  0  0  0  0  0  0  0  0
  -45.0637  -29.2384    4.6813 N   0  0  0  0  0  0  0  0  0  0  0  0
  -48.3088  -28.9256    7.1777 N   0  0  0  0  0  0  0  0  0  0  0  0
  -45.2637  -30.8038    0.9029 N   0  0  0  0  0  0  0  0  0  0  0  0
  -46.5692  -29.0016    2.8391 N   0  0  0  0  0  0  0  0  0  0  0  0
  -44.3035  -32.6295   -0.2137 O   0  0  0  0  0  0  0  0  0  0  0  0
  -50.3969  -28.6287    6.5370 H   0  0  0  0  0  0  0  0  0  0  0  0
  -43.8342  -29.4523    6.3724 H   0  0  0  0  0  0  0  0  0  0  0  0
  -41.4890  -29.7565    0.9569 H   0  0  0  0  0  0  0  0  0  0  0  0
  -42.0520  -31.4216    1.3273 H   0  0  0  0  0  0  0  0  0  0  0  0
  -43.5640  -30.5778    2.9183 H   0  0  0  0  0  0  0  0  0  0  0  0
  -42.9484  -28.9205    2.6004 H   0  0  0  0  0  0  0  0  0  0  0  0
  -43.3706  -28.2120    0.0501 H   0  0  0  0  0  0  0  0  0  0  0  0
  -44.7663  -28.9345   -0.8199 H   0  0  0  0  0  0  0  0  0  0  0  0
  -42.6981  -30.4896   -1.1374 H   0  0  0  0  0  0  0  0  0  0  0  0
  -44.9763  -27.6945    2.3815 H   0  0  0  0  0  0  0  0  0  0  0  0
  -46.1271  -27.9975    1.0359 H   0  0  0  0  0  0  0  0  0  0  0  0
  -48.4031  -28.9230    8.1733 H   0  0  0  0  0  0  0  0  0  0  0  0
  -46.1516  -31.1490    1.2069 H   0  0  0  0  0  0  0  0  0  0  0  0
  -46.7782  -29.9285    2.5276 H   0  0  0  0  0  0  0  0  0  0  0  0
  1  4  1  0  0  0  0
  1 15  3  0  0  0  0
  2  4  2  0  0  0  0
  2 18  1  0  0  0  0
  3 16  1  0  0  0  0
  3 17  2  0  0  0  0
  4  5  1  0  0  0  0
  5  6  1  0  0  0  0
  5  7  2  0  0  0  0
  6 16  2  0  0  0  0
  6 18  1  0  0  0  0
  7 17  1  0  0  0  0
  7 20  1  0  0  0  0
  8 12  1  0  0  0  0
  8 19  1  0  0  0  0
  8 21  2  0  0  0  0
  9 10  1  0  0  0  0
  9 12  1  0  0  0  0
 10 13  1  0  0  0  0
 11 12  1  0  0  0  0
 11 13  1  0  0  0  0
 13 14  1  0  0  0  0
 13 19  1  0  0  0  0
 14 20  1  0  0  0  0
  2 22  1  0  0  0  0
  3 23  1  0  0  0  0
  9 24  1  0  0  0  0
  9 25  1  0  0  0  0
 10 26  1  0  0  0  0
 10 27  1  0  0  0  0
 11 28  1  0  0  0  0
 11 29  1  0  0  0  0
 12 30  1  0  0  0  0
 14 31  1  0  0  0  0
 14 32  1  0  0  0  0
 18 33  1  0  0  0  0
 19 34  1  0  0  0  0
 20 35  1  0  0  0  0
M  END
> <POSIT::Probability>
0.75

> <POSIT::Method>
SHAPEFIT

> <ReceptorTitle>
UCSF-P4450-REFINED_LIGAND-BOUND-STATE_A__DU__LA1_A-201(A)

> <OMEGA_C>
wYxGwlGT5cGFInRA6G5FwuEq5sEd38hAUWIzwh2N6sGvnMBAy2ZDwk2j5sFxC6BAsJY9wj806MG9
AqRAknQ8wrOr6MGSzc9Al045wtzW6MHCr4ZAiHgxwplv+8FwlK48En4pwkA088E8bYk/iWYtwk6r
7sFNwwhA0xEwwtnI6MFAuv28sQAtwkAV88Fak0S+9Xoywv0x7MHIG6U/NlA2wpyt48FUUe8/YzBJ
wtmu5MFCBzdA9WM3wobo6cGBvd1AQEE0wlTo6cHszJVAQTxBwqZn58HPr+VA/Q01witu9sFYJGc/
4kY6wjQD6MEotDVAzTYxwpiEAsJd1Fq+bJZJwoIH5cFCL9FANFYvwk+e68G66stAyfQlwj0N7sHS
93Q/QTUowlhf+8Ez5qk/hEEuwlif9MHUxDpAJcsrwjFd58E1bCZAiHstwi6y4cFJG009rxAzwsl5
58He5FG/3soqwrTq88HKlZG/yOczwk2O3cE5ahhAK4I4wur638GxmIQ/0JxBwkRi58GkxQJBOJs4
wjIx+cGke5o/1xw7wqJt78FvwyFA

> <OMEGA_E>
uEwRPw==

> <OMEGA_NBR>
      4700

$$$$
CACHE3HI_1716_35
  -OEChem-03092622513D

 32 34  0     0  0  0  0  0  0999 V2000
  -49.7138  -28.6967    3.8612 C   0  0  0  0  0  0  0  0  0  0  0  0
  -43.8418  -31.4760    0.0793 C   0  0  0  0  0  0  0  0  0  0  0  0
  -43.3414  -28.9492    1.0733 C   0  0  0  0  0  0  0  0  0  0  0  0
  -49.3403  -28.6977    6.3104 C   0  0  0  0  0  0  0  0  0  0  0  0
  -44.8550  -29.3901    5.9056 C   0  0  0  0  0  0  0  0  0  0  0  0
  -48.8830  -28.8173    5.0194 C   0  0  0  0  0  0  0  0  0  0  0  0
  -47.4309  -29.0579    5.0959 C   0  0  0  0  0  0  0  0  0  0  0  0
  -44.8812  -30.8056    0.7534 C   0  0  0  0  0  0  0  0  0  0  0  0
  -44.6263  -29.5084    1.2698 C   0  0  0  0  0  0  0  0  0  0  0  0
  -47.0972  -29.0646    6.4544 C   0  0  0  0  0  0  0  0  0  0  0  0
  -46.3965  -29.2180    4.1453 C   0  0  0  0  0  0  0  0  0  0  0  0
  -42.5996  -30.8367   -0.1020 C   0  0  0  0  0  0  0  0  0  0  0  0
  -46.2423  -31.4678    0.8573 C   0  0  0  0  0  0  0  0  0  0  0  0
  -45.7331  -28.5867    1.7877 C   0  0  0  0  0  0  0  0  0  0  0  0
  -50.4107  -28.5924    2.9323 N   0  0  0  0  0  0  0  0  0  0  0  0
  -42.3655  -29.6029    0.4005 N   0  0  0  0  0  0  0  0  0  0  0  0
  -45.8190  -29.2354    6.8481 N   0  0  0  0  0  0  0  0  0  0  0  0
  -45.1204  -29.3757    4.5734 N   0  0  0  0  0  0  0  0  0  0  0  0
  -48.2616  -28.8483    7.1760 N   0  0  0  0  0  0  0  0  0  0  0  0
  -46.6798  -29.1636    2.7828 N   0  0  0  0  0  0  0  0  0  0  0  0
  -41.6347  -31.4526   -0.8223 F   0  0  0  0  0  0  0  0  0  0  0  0
  -43.9966  -32.4764   -0.2972 H   0  0  0  0  0  0  0  0  0  0  0  0
  -43.1323  -27.9681    1.4734 H   0  0  0  0  0  0  0  0  0  0  0  0
  -50.3640  -28.5173    6.6032 H   0  0  0  0  0  0  0  0  0  0  0  0
  -43.8339  -29.5306    6.2282 H   0  0  0  0  0  0  0  0  0  0  0  0
  -46.2920  -32.0620    1.7817 H   0  0  0  0  0  0  0  0  0  0  0  0
  -47.0253  -30.6954    0.8756 H   0  0  0  0  0  0  0  0  0  0  0  0
  -46.3969  -32.1261   -0.0103 H   0  0  0  0  0  0  0  0  0  0  0  0
  -45.2492  -27.7164    2.2551 H   0  0  0  0  0  0  0  0  0  0  0  0
  -46.3233  -28.2561    0.9203 H   0  0  0  0  0  0  0  0  0  0  0  0
  -48.3176  -28.8066    8.1736 H   0  0  0  0  0  0  0  0  0  0  0  0
  -46.8423  -30.1076    2.4957 H   0  0  0  0  0  0  0  0  0  0  0  0
  1  6  1  0  0  0  0
  1 15  3  0  0  0  0
  2  8  1  0  0  0  0
  2 12  2  0  0  0  0
  3  9  1  0  0  0  0
  3 16  2  0  0  0  0
  4  6  2  0  0  0  0
  4 19  1  0  0  0  0
  5 17  2  0  0  0  0
  5 18  1  0  0  0  0
  6  7  1  0  0  0  0
  7 10  2  0  0  0  0
  7 11  1  0  0  0  0
  8  9  2  0  0  0  0
  8 13  1  0  0  0  0
  9 14  1  0  0  0  0
 10 17  1  0  0  0  0
 10 19  1  0  0  0  0
 11 18  2  0  0  0  0
 11 20  1  0  0  0  0
 12 16  1  0  0  0  0
 12 21  1  0  0  0  0
 14 20  1  0  0  0  0
  2 22  1  0  0  0  0
  3 23  1  0  0  0  0
  4 24  1  0  0  0  0
  5 25  1  0  0  0  0
 13 26  1  0  0  0  0
 13 27  1  0  0  0  0
 13 28  1  0  0  0  0
 14 29  1  0  0  0  0
 14 30  1  0  0  0  0
 19 31  1  0  0  0  0
 20 32  1  0  0  0  0
M  END
> <POSIT::Probability>
0.83

> <POSIT::Method>
SHAPEFIT

> <ReceptorTitle>
UCSF-P4450-REFINED_LIGAND-BOUND-STATE_A__DU__LA1_A-201(A)

> <OMEGA_C>
5NpGwtyS5cFTHndA+F0vwuLO+8FgTqI9kF0twgSY58EOYYk/bFxFwu6U5cE078lAhmszwvIe68GO
+rxALohDwtyJ5sGWnqBAMbk9wo526MG2EaNAT4Yzwu1x9sE04EA/ToEywjMR7MHCiKI/k2M8wlmE
6ME6is5A+pU5wmG+6cGgpoRA8WUqwn+x9sHg+NC9KPg4whG++8Esels/ru42wnux5MFe0+Q/iqRJ
wje95MGLqjtASnYpwr/S7MGgDs0+pkY3wgzi6cGoI9tASns0wnEB68GOWZJA2QtBwkfJ5sEmouVA
Grg6whlP6cEfGTJA+4kmwtme+8HghFK/fvwvwsznAcJ8L5i+fIcswre+38F6mbw/x3RJwoMj5MHR
TdNA8FUvwrE+7MERTcdABys5wnU/AMKZD+Q/5Bk8whyQ9cEYJmA/apY5wiSBAMK/WCi8M/80wh+7
3cGMUxBADUs5woQM4sFzmGs/QkVBwtlz5sEQxwJBfF47wnPc8MFOuR9A

> <OMEGA_E>
iICrPg==

> <OMEGA_NBR>
      5859

$$$$
CACHE3-HO_1696_18
  -OEChem-03092622523D

 43 46  0     1  0  0  0  0  0999 V2000
  -44.0126  -29.3830    6.2720 C   0  0  0  0  0  0  0  0  0  0  0  0
  -46.4240  -29.4683    5.0041 C   0  0  0  0  0  0  0  0  0  0  0  0
  -47.8667  -29.3458    4.6874 C   0  0  0  0  0  0  0  0  0  0  0  0
  -48.5420  -29.3310    5.8876 C   0  0  0  0  0  0  0  0  0  0  0  0
  -46.3309  -29.3951    6.4017 C   0  0  0  0  0  0  0  0  0  0  0  0
  -45.2179  -29.5515    4.2532 C   0  0  0  0  0  0  0  0  0  0  0  0
  -43.8880  -32.1369    2.7573 C   0  0  0  0  0  0  0  0  0  0  0  0
  -45.2815  -32.1334    2.0975 C   0  0  0  0  0  0  0  0  0  0  0  0
  -46.0972  -28.7262    0.4546 C   0  0  0  0  0  0  0  0  0  0  0  0
  -46.3325  -30.2467    0.6831 C   0  0  0  0  0  0  0  0  0  0  0  0
  -44.7037  -28.2179    0.9223 C   0  0  0  0  0  0  0  0  0  0  0  0
  -43.1539  -30.1555    1.4265 C   0  0  0  0  0  0  0  0  0  0  0  0
  -45.9901  -30.7379    2.1337 C   0  0  2  0  0  0  0  0  0  0  0  0
  -44.0794  -29.0716    2.0495 C   0  0  2  0  0  0  0  0  0  0  0  0
  -48.5300  -29.0878    3.3516 C   0  0  0  0  0  0  0  0  0  0  0  0
  -50.0362  -29.2448    6.1100 C   0  0  0  0  0  0  0  0  0  0  0  0
  -45.1375  -29.3572    7.0207 N   0  0  0  0  0  0  0  0  0  0  0  0
  -44.0347  -29.4864    4.9197 N   0  0  0  0  0  0  0  0  0  0  0  0
  -47.6125  -29.3626    6.9152 N   0  0  0  0  0  0  0  0  0  0  0  0
  -42.8916  -31.2529    2.3592 N   0  0  0  0  0  0  0  0  0  0  0  0
  -45.1902  -29.6839    2.8464 N   0  0  2  0  0  0  0  0  0  0  0  0
  -43.6310  -32.9748    3.6108 O   0  0  0  0  0  0  0  0  0  0  0  0
  -43.0569  -29.3187    6.7709 H   0  0  0  0  0  0  0  0  0  0  0  0
  -45.1693  -32.4391    1.0468 H   0  0  0  0  0  0  0  0  0  0  0  0
  -45.9174  -32.8598    2.6247 H   0  0  0  0  0  0  0  0  0  0  0  0
  -46.1961  -28.5199   -0.6214 H   0  0  0  0  0  0  0  0  0  0  0  0
  -46.8698  -28.1710    1.0068 H   0  0  0  0  0  0  0  0  0  0  0  0
  -47.3922  -30.4657    0.4856 H   0  0  0  0  0  0  0  0  0  0  0  0
  -45.7043  -30.8040   -0.0274 H   0  0  0  0  0  0  0  0  0  0  0  0
  -44.0218  -28.2294    0.0592 H   0  0  0  0  0  0  0  0  0  0  0  0
  -44.8146  -27.1865    1.2882 H   0  0  0  0  0  0  0  0  0  0  0  0
  -43.6386  -30.5621    0.5266 H   0  0  0  0  0  0  0  0  0  0  0  0
  -42.1973  -29.6890    1.1487 H   0  0  0  0  0  0  0  0  0  0  0  0
  -46.9420  -30.8664    2.6697 H   0  0  0  0  0  0  0  0  0  0  0  0
  -43.4759  -28.4201    2.6986 H   0  0  0  0  0  0  0  0  0  0  0  0
  -48.8213  -30.0453    2.8953 H   0  0  0  0  0  0  0  0  0  0  0  0
  -49.4247  -28.4655    3.5007 H   0  0  0  0  0  0  0  0  0  0  0  0
  -47.8260  -28.5646    2.6878 H   0  0  0  0  0  0  0  0  0  0  0  0
  -50.4585  -30.2591    6.1639 H   0  0  0  0  0  0  0  0  0  0  0  0
  -50.2365  -28.7138    7.0522 H   0  0  0  0  0  0  0  0  0  0  0  0
  -50.5000  -28.6986    5.2755 H   0  0  0  0  0  0  0  0  0  0  0  0
  -47.8378  -29.3620    7.8895 H   0  0  0  0  0  0  0  0  0  0  0  0
  -41.9669  -31.3703    2.7212 H   0  0  0  0  0  0  0  0  0  0  0  0
  1 17  1  0  0  0  0
  1 18  2  0  0  0  0
  2  3  1  0  0  0  0
  2  5  1  0  0  0  0
  2  6  2  0  0  0  0
  3  4  2  0  0  0  0
  3 15  1  0  0  0  0
  4 16  1  0  0  0  0
  4 19  1  0  0  0  0
  5 17  2  0  0  0  0
  5 19  1  0  0  0  0
  6 18  1  0  0  0  0
  6 21  1  0  0  0  0
  7  8  1  0  0  0  0
  7 20  1  0  0  0  0
  7 22  2  0  0  0  0
  8 13  1  0  0  0  0
  9 10  1  0  0  0  0
  9 11  1  0  0  0  0
 10 13  1  0  0  0  0
 11 14  1  0  0  0  0
 12 14  1  0  0  0  0
 12 20  1  0  0  0  0
 13 21  1  0  0  0  0
 14 21  1  0  0  0  0
  1 23  1  0  0  0  0
  8 24  1  0  0  0  0
  8 25  1  0  0  0  0
  9 26  1  0  0  0  0
  9 27  1  0  0  0  0
 10 28  1  0  0  0  0
 10 29  1  0  0  0  0
 11 30  1  0  0  0  0
 11 31  1  0  0  0  0
 12 32  1  0  0  0  0
 12 33  1  0  0  0  0
 13 34  1  0  0  0  0
 14 35  1  0  0  0  0
 15 36  1  0  0  0  0
 15 37  1  0  0  0  0
 15 38  1  0  0  0  0
 16 39  1  0  0  0  0
 16 40  1  0  0  0  0
 16 41  1  0  0  0  0
 19 42  1  0  0  0  0
 20 43  1  0  0  0  0
M  END
> <POSIT::Probability>
0.89

> <POSIT::Method>
SHAPEFIT

> <ReceptorTitle>
UCSF-P4452-REFINED_LIGAND-BOUND-STATE_A__DU__LA1_A-201(A)

> <OMEGA_C>
4wwwwmwQ68ExtMhAMLI5wiS/68HMIaBAgXc/wh7E6sEH/5VABStCwt+l6sESZ7xA1VI5wj0p68GI
2sxAJt80wmtp7MF5GohASI0vwjmMAMJjdzBARyA1wqSIAMKkPQZAkmM4winP5cGgv+g+d1Q5wlP5
8cFI4i4/jNAywkS+4cEIGmw/np0swnk+8cE0mLY/3vU3wkvn9cH9jQhAQlEwwrmS6MEzKwNAtB5C
wsSz6ME3gFZACSVIwmj16cHZhMNA1Yw0wpnb6sFwqeBAiCMwwivk68HLbZ1APnM+wqTm6sF/Sd1A
DJErwvQF+sFk/BZA0MI0wrJ47cGLKzZAHIYuwjDmA8IIGGdAQToswqWM6sExq9hAXq00wprBAcJ/
/YU/das3wnVwA8Li+ydAy8g4wtQo5MGyEh+/p3o7wite4cGI34A/n5E9wsy588GSnPg+LNE2woNu
9sHXXeC8URYwwt7V4cHxZ3I9KEIzwu592cF54qQ/8o0uwiN/9MFp0gY/BsoowgKD7cHeB5M/pMQ7
wknu9sGB3CpAT+ctwkpc48FXtSxADklDwtFc8MEQTDlA7LJFwme548GyC2BA0U0/wkKE5MEZBCxA
eNVJwqQS8sHNPsVAJ/JIwtm15cH0q+FADABKwqiW5cGI0KhA5Vk/wlbl6sH6dvxAHt4nwnb2+sH/
Jy5A

> <OMEGA_E>
SPiuPg==

> <OMEGA_NBR>
      1387

$$$$
CACHE3-HO_1696_19
  -OEChem-03092622523D

 36 38  0     1  0  0  0  0  0999 V2000
  -44.1754  -32.1773    2.8795 C   0  0  0  0  0  0  0  0  0  0  0  0
  -45.4665  -31.8288    2.2753 C   0  0  0  0  0  0  0  0  0  0  0  0
  -47.9624  -29.0510    4.8512 C   0  0  0  0  0  0  0  0  0  0  0  0
  -43.1093  -31.7456    2.1295 C   0  0  0  0  0  0  0  0  0  0  0  0
  -44.0692  -29.5514    6.2353 C   0  0  0  0  0  0  0  0  0  0  0  0
  -46.5104  -29.1752    5.0874 C   0  0  0  0  0  0  0  0  0  0  0  0
  -45.3206  -31.0739    1.1332 C   0  0  0  0  0  0  0  0  0  0  0  0
  -46.3717  -29.3932    6.4680 C   0  0  0  0  0  0  0  0  0  0  0  0
  -45.3273  -29.0754    4.2937 C   0  0  0  0  0  0  0  0  0  0  0  0
  -48.5918  -29.1480    6.0659 C   0  0  0  0  0  0  0  0  0  0  0  0
  -43.9925  -28.1936    2.3487 C   0  0  0  0  0  0  0  0  0  0  0  0
  -47.2636  -29.4971    1.5571 C   0  0  0  0  0  0  0  0  0  0  0  0
  -46.5179  -28.2750    2.1636 C   0  0  0  0  0  0  0  0  0  0  0  0
  -46.4363  -30.2708    0.4938 C   0  0  1  0  0  0  0  0  0  0  0  0
  -45.1623  -29.5678    7.0274 N   0  0  0  0  0  0  0  0  0  0  0  0
  -44.1324  -29.3025    4.9046 N   0  0  0  0  0  0  0  0  0  0  0  0
  -47.6296  -29.3441    7.0430 N   0  0  0  0  0  0  0  0  0  0  0  0
  -45.2955  -28.6400    2.9394 N   0  0  3  0  0  0  0  0  0  0  0  0
  -45.8906  -29.3412   -0.4446 O   0  0  0  0  0  0  0  0  0  0  0  0
  -43.6374  -30.9558    0.6728 S   0  0  0  0  0  0  0  0  0  0  0  0
  -50.3102  -29.0408    6.3424 Cl  0  0  0  0  0  0  0  0  0  0  0  0
  -44.0749  -32.7140    3.8113 H   0  0  0  0  0  0  0  0  0  0  0  0
  -46.4215  -32.1299    2.6800 H   0  0  0  0  0  0  0  0  0  0  0  0
  -48.4425  -28.9093    3.8942 H   0  0  0  0  0  0  0  0  0  0  0  0
  -42.0746  -31.8795    2.4086 H   0  0  0  0  0  0  0  0  0  0  0  0
  -43.1044  -29.7446    6.6806 H   0  0  0  0  0  0  0  0  0  0  0  0
  -44.1477  -27.8929    1.3020 H   0  0  0  0  0  0  0  0  0  0  0  0
  -43.6039  -27.3389    2.9219 H   0  0  0  0  0  0  0  0  0  0  0  0
  -43.2691  -29.0213    2.3888 H   0  0  0  0  0  0  0  0  0  0  0  0
  -47.5146  -30.1905    2.3734 H   0  0  0  0  0  0  0  0  0  0  0  0
  -48.1892  -29.1385    1.0830 H   0  0  0  0  0  0  0  0  0  0  0  0
  -46.2205  -27.6072    1.3417 H   0  0  0  0  0  0  0  0  0  0  0  0
  -47.2094  -27.7448    2.8350 H   0  0  0  0  0  0  0  0  0  0  0  0
  -47.1133  -30.9657   -0.0247 H   0  0  0  0  0  0  0  0  0  0  0  0
  -47.8167  -29.4367    8.0210 H   0  0  0  0  0  0  0  0  0  0  0  0
  -46.5943  -28.8414   -0.8416 H   0  0  0  0  0  0  0  0  0  0  0  0
  1  2  1  0  0  0  0
  1  4  2  0  0  0  0
  2  7  2  0  0  0  0
  3  6  1  0  0  0  0
  3 10  2  0  0  0  0
  4 20  1  0  0  0  0
  5 15  2  0  0  0  0
  5 16  1  0  0  0  0
  6  8  2  0  0  0  0
  6  9  1  0  0  0  0
  7 14  1  0  0  0  0
  7 20  1  0  0  0  0
  8 15  1  0  0  0  0
  8 17  1  0  0  0  0
  9 16  2  0  0  0  0
  9 18  1  0  0  0  0
 10 17  1  0  0  0  0
 10 21  1  0  0  0  0
 11 18  1  0  0  0  0
 12 13  1  0  0  0  0
 12 14  1  0  0  0  0
 13 18  1  0  0  0  0
 14 19  1  0  0  0  0
  1 22  1  0  0  0  0
  2 23  1  0  0  0  0
  3 24  1  0  0  0  0
  4 25  1  0  0  0  0
  5 26  1  0  0  0  0
 11 27  1  0  0  0  0
 11 28  1  0  0  0  0
 11 29  1  0  0  0  0
 12 30  1  0  0  0  0
 12 31  1  0  0  0  0
 13 32  1  0  0  0  0
 13 33  1  0  0  0  0
 14 34  1  0  0  0  0
 17 35  1  0  0  0  0
 19 36  1  0  0  0  0
M  END
> <POSIT::Probability>
0.5

> <POSIT::Method>
SHAPEFIT

> <ReceptorTitle>
UCSF-P4452-REFINED_LIGAND-BOUND-STATE_A__DU__LA1_A-201(A)

> <OMEGA_C>
qLMwwoW1AMKDSjhAuN01wkuh/sH+nRFAgNk/woZo6MG+PJtA7G8swvf2/cHJSQhA0kYwwjpp7MHZ
h8dAsgo6wuZm6cE1zKJAWEg1wkuX+MHCDZE/nHw5wiwl68HJ+c5AHE81wn+a6MEzZolABF5CwhUv
6cHlG8JAWPgvwoeM4cEGURZA7A09whz668G/T8c/SBI6wj4z4sGPeApAur45wqYq8sGs0Pw+PKY0
wtWK7MHQ4OBAkIcwwppr6sGV8pxAwoQ+wrPA6sEwYOFAni41wtEe5cEBHzxA/o83wrq66sGApOO+
sowuwmSl98GQOyw/nD1JwnVT6MHj9MpAskwwwibbAsKe7HNAma85wv6EAMKZhCtAIcVBwllG58E2
OnlAaUwowjEJ/8EJJxpA22oswtf07cErx9VAQZcwwqgk38FEqaY/bmouwiO22sG8/zpAnBMtwrMr
6MHT4hhA5w4+wimG8cEM5RdAscFAwrIb6cEaoYo/zuE4woHb3MHqu6s/ZdY8wmn13cHXbzVA/HM8
wra598ENcMq8RkQ/wlV+68HnVQBBhmA6wiW75sFIcle/

> <OMEGA_E>
/EJLPw==

> <OMEGA_NBR>
      2639

$$$$
CACHE3-HO_1718_2
  -OEChem-03092622523D

 37 41  0     1  0  0  0  0  0999 V2000
  -49.8508  -30.2333    3.5754 C   0  0  0  0  0  0  0  0  0  0  0  0
  -50.6026  -30.0495    4.7608 C   0  0  0  0  0  0  0  0  0  0  0  0
  -48.4512  -30.1049    3.6017 C   0  0  0  0  0  0  0  0  0  0  0  0
  -49.9611  -29.7378    5.9829 C   0  0  0  0  0  0  0  0  0  0  0  0
  -44.0381  -29.1726    6.2559 C   0  0  0  0  0  0  0  0  0  0  0  0
  -47.8406  -29.8102    4.8361 C   0  0  0  0  0  0  0  0  0  0  0  0
  -46.4461  -29.6145    5.1624 C   0  0  0  0  0  0  0  0  0  0  0  0
  -48.5630  -29.6176    6.0123 C   0  0  0  0  0  0  0  0  0  0  0  0
  -46.3528  -29.3035    6.5128 C   0  0  0  0  0  0  0  0  0  0  0  0
  -45.3159  -29.7001    4.3526 C   0  0  0  0  0  0  0  0  0  0  0  0
  -43.9619  -32.0369    2.8084 C   0  0  0  0  0  0  0  0  0  0  0  0
  -45.8893  -31.6170    1.2524 C   0  0  0  0  0  0  0  0  0  0  0  0
  -45.5256  -30.2238    0.6979 C   0  0  0  0  0  0  0  0  0  0  0  0
  -43.2810  -29.8059    1.8700 C   0  0  0  0  0  0  0  0  0  0  0  0
  -45.4154  -31.5732    2.7146 C   0  0  2  0  0  0  0  0  0  0  0  0
  -44.8119  -29.5130    1.8672 C   0  0  2  0  0  0  0  0  0  0  0  0
  -45.1387  -29.0830    7.0559 N   0  0  0  0  0  0  0  0  0  0  0  0
  -44.1069  -29.4717    4.9242 N   0  0  0  0  0  0  0  0  0  0  0  0
  -47.6513  -29.3107    7.0287 N   0  0  0  0  0  0  0  0  0  0  0  0
  -42.9710  -31.1847    2.3289 N   0  0  0  0  0  0  0  0  0  0  0  0
  -45.4593  -30.1341    3.0401 N   0  0  2  0  0  0  0  0  0  0  0  0
  -43.6724  -33.0782    3.3824 O   0  0  0  0  0  0  0  0  0  0  0  0
  -50.3532  -30.4725    2.6497 H   0  0  0  0  0  0  0  0  0  0  0  0
  -51.6777  -30.1482    4.7320 H   0  0  0  0  0  0  0  0  0  0  0  0
  -47.8632  -30.2282    2.7042 H   0  0  0  0  0  0  0  0  0  0  0  0
  -50.5407  -29.5940    6.8827 H   0  0  0  0  0  0  0  0  0  0  0  0
  -43.0668  -28.9991    6.6951 H   0  0  0  0  0  0  0  0  0  0  0  0
  -46.9746  -31.7878    1.1984 H   0  0  0  0  0  0  0  0  0  0  0  0
  -45.3655  -32.4080    0.6955 H   0  0  0  0  0  0  0  0  0  0  0  0
  -44.8548  -30.3140   -0.1692 H   0  0  0  0  0  0  0  0  0  0  0  0
  -46.4321  -29.6740    0.4045 H   0  0  0  0  0  0  0  0  0  0  0  0
  -42.8947  -29.6780    0.8480 H   0  0  0  0  0  0  0  0  0  0  0  0
  -42.7852  -29.0897    2.5417 H   0  0  0  0  0  0  0  0  0  0  0  0
  -46.0714  -32.1689    3.3664 H   0  0  0  0  0  0  0  0  0  0  0  0
  -44.9947  -28.4289    1.8308 H   0  0  0  0  0  0  0  0  0  0  0  0
  -47.8928  -29.1246    7.9810 H   0  0  0  0  0  0  0  0  0  0  0  0
  -42.0257  -31.5090    2.2924 H   0  0  0  0  0  0  0  0  0  0  0  0
  1  2  1  0  0  0  0
  1  3  2  0  0  0  0
  2  4  2  0  0  0  0
  3  6  1  0  0  0  0
  4  8  1  0  0  0  0
  5 17  1  0  0  0  0
  5 18  2  0  0  0  0
  6  7  1  0  0  0  0
  6  8  2  0  0  0  0
  7  9  1  0  0  0  0
  7 10  2  0  0  0  0
  8 19  1  0  0  0  0
  9 17  2  0  0  0  0
  9 19  1  0  0  0  0
 10 18  1  0  0  0  0
 10 21  1  0  0  0  0
 11 15  1  0  0  0  0
 11 20  1  0  0  0  0
 11 22  2  0  0  0  0
 12 13  1  0  0  0  0
 12 15  1  0  0  0  0
 13 16  1  0  0  0  0
 14 16  1  0  0  0  0
 14 20  1  0  0  0  0
 15 21  1  0  0  0  0
 16 21  1  0  0  0  0
  1 23  1  0  0  0  0
  2 24  1  0  0  0  0
  3 25  1  0  0  0  0
  4 26  1  0  0  0  0
  5 27  1  0  0  0  0
 12 28  1  0  0  0  0
 12 29  1  0  0  0  0
 13 30  1  0  0  0  0
 13 31  1  0  0  0  0
 14 32  1  0  0  0  0
 14 33  1  0  0  0  0
 15 34  1  0  0  0  0
 16 35  1  0  0  0  0
 19 36  1  0  0  0  0
 20 37  1  0  0  0  0
M  END
> <POSIT::Probability>
0.85

> <POSIT::Method>
SHAPEFIT

> <ReceptorTitle>
UCSF-P4452-REFINED_LIGAND-BOUND-STATE_A__DU__LA1_A-201(A)

> <OMEGA_C>
QGdHwtDd8cGM0mRACmlKwlpl8MEZWJhADc5Bws7W8MGWgWZANthHwgrn7cGTc79AAicwwoZh6cH8
L8hAv1w/wkh77sFCwZpA28g5worq7MGOMqVAd0BCwt3w7MGaZMBAPWk5wplt6sEoadBAeEM1wtiZ
7cHCSItACdkvwr0lAMI0vDNAn443wqTv/MHITaA/ORo2wlrK8cEYqjI/xx8twmxy7sFoW+8/Zqk1
wgCW/MFHuy1AVz8zwo4a7MGo/+4/EY40wgiq6MHiyeFAhG0wwh7G68Flk51A6Jo+wll86sH86uBA
R+IrwlB6+cG+DBVATdY1wqoS8cH0kEJAj7AuwhtQBMJ/eVhAsGlJwqfH88HilClA7rVOwp0v8cFV
bJdA43M/wmTT8cEOEi1AtylKwpvA7MF7P9xAaEQswi7+58HgPdZA/uU7wmVN/sHEZZk/SXY1wr+h
AcLiDTI/RmszwieD8sFgOi2+bLo5wlVk7cHBIM8+IJQrwpls7cHGGFk/ByQrwrS36MF1qyJAJUk4
wumsAMIfc1dAnPozwltu48ENWeo/RpI/whX/6MG0ZP9AWhoowogS/MGAthJA

> <OMEGA_E>
6JsgPw==

> <OMEGA_NBR>
      3910

$$$$
CACHE3HI_1695_63
  -OEChem-03092622523D

 35 37  0     0  0  0  0  0  0999 V2000
  -46.7034  -28.6219    0.9387 C   0  0  0  0  0  0  0  0  0  0  0  0
  -47.0326  -27.7112   -0.0653 C   0  0  0  0  0  0  0  0  0  0  0  0
  -49.8188  -28.9093    4.3058 C   0  0  0  0  0  0  0  0  0  0  0  0
  -44.4241  -27.8204    0.9167 C   0  0  0  0  0  0  0  0  0  0  0  0
  -49.2655  -29.1254    3.0610 C   0  0  0  0  0  0  0  0  0  0  0  0
  -45.3989  -28.6765    1.4295 C   0  0  0  0  0  0  0  0  0  0  0  0
  -48.9646  -28.9312    5.3973 C   0  0  0  0  0  0  0  0  0  0  0  0
  -47.6006  -29.1681    5.2050 C   0  0  0  0  0  0  0  0  0  0  0  0
  -46.0578  -26.8552   -0.5781 C   0  0  0  0  0  0  0  0  0  0  0  0
  -44.7534  -26.9098   -0.0873 C   0  0  0  0  0  0  0  0  0  0  0  0
  -47.1108  -29.3594    3.9152 C   0  0  0  0  0  0  0  0  0  0  0  0
  -45.4231  -29.4781    6.2498 C   0  0  0  0  0  0  0  0  0  0  0  0
  -45.0518  -29.6385    2.4885 C   0  0  0  0  0  0  0  0  0  0  0  0
  -44.9171  -29.9421    4.9062 C   0  0  0  0  0  0  0  0  0  0  0  0
  -49.5518  -28.6971    6.7516 C   0  0  0  0  0  0  0  0  0  0  0  0
  -47.9486  -29.3483    2.8485 N   0  0  0  0  0  0  0  0  0  0  0  0
  -46.7585  -29.1790    6.3207 N   0  0  0  0  0  0  0  0  0  0  0  0
  -45.7075  -29.5817    3.7344 N   0  0  0  0  0  0  0  0  0  0  0  0
  -46.4330  -25.9405   -1.6022 N   0  3  0  0  0  0  0  0  0  0  0  0
  -47.6195  -25.9369   -2.0044 O   0  5  0  0  0  0  0  0  0  0  0  0
  -44.6909  -29.4920    7.2404 O   0  0  0  0  0  0  0  0  0  0  0  0
  -44.1308  -30.4139    2.2222 O   0  0  0  0  0  0  0  0  0  0  0  0
  -45.5647  -25.1670   -2.0696 O   0  0  0  0  0  0  0  0  0  0  0  0
  -43.5115  -25.8674   -0.6869 Cl  0  0  0  0  0  0  0  0  0  0  0  0
  -47.4706  -29.2847    1.3303 H   0  0  0  0  0  0  0  0  0  0  0  0
  -48.0536  -27.6814   -0.4383 H   0  0  0  0  0  0  0  0  0  0  0  0
  -50.8830  -28.7325    4.4153 H   0  0  0  0  0  0  0  0  0  0  0  0
  -43.4087  -27.8672    1.3042 H   0  0  0  0  0  0  0  0  0  0  0  0
  -49.8828  -29.1258    2.1687 H   0  0  0  0  0  0  0  0  0  0  0  0
  -43.9184  -29.5290    4.7751 H   0  0  0  0  0  0  0  0  0  0  0  0
  -44.8508  -31.0281    4.9439 H   0  0  0  0  0  0  0  0  0  0  0  0
  -49.8663  -29.6402    7.2140 H   0  0  0  0  0  0  0  0  0  0  0  0
  -50.4402  -28.0571    6.6909 H   0  0  0  0  0  0  0  0  0  0  0  0
  -48.8160  -28.2147    7.4044 H   0  0  0  0  0  0  0  0  0  0  0  0
  -47.1440  -28.9561    7.2295 H   0  0  0  0  0  0  0  0  0  0  0  0
  1  2  2  0  0  0  0
  1  6  1  0  0  0  0
  2  9  1  0  0  0  0
  3  5  2  0  0  0  0
  3  7  1  0  0  0  0
  4  6  2  0  0  0  0
  4 10  1  0  0  0  0
  5 16  1  0  0  0  0
  6 13  1  0  0  0  0
  7  8  2  0  0  0  0
  7 15  1  0  0  0  0
  8 11  1  0  0  0  0
  8 17  1  0  0  0  0
  9 10  2  0  0  0  0
  9 19  1  0  0  0  0
 10 24  1  0  0  0  0
 11 16  2  0  0  0  0
 11 18  1  0  0  0  0
 12 14  1  0  0  0  0
 12 17  1  0  0  0  0
 12 21  2  0  0  0  0
 13 18  1  0  0  0  0
 13 22  2  0  0  0  0
 14 18  1  0  0  0  0
 19 20  1  0  0  0  0
 19 23  2  0  0  0  0
  1 25  1  0  0  0  0
  2 26  1  0  0  0  0
  3 27  1  0  0  0  0
  4 28  1  0  0  0  0
  5 29  1  0  0  0  0
 14 30  1  0  0  0  0
 14 31  1  0  0  0  0
 15 32  1  0  0  0  0
 15 33  1  0  0  0  0
 15 34  1  0  0  0  0
 17 35  1  0  0  0  0
M  CHG  2  19   1  20  -1
M  END
> <POSIT::Probability>
0.18

> <POSIT::Method>
FRED

> <ReceptorTitle>
UCSF-P4452-REFINED_LIGAND-BOUND-STATE_A__DU__LA1_A-201(A)

> <OMEGA_C>
O9A6wpP55MGiTXA/ZCE8woOw3cGAuIW9aEZHwkxG58HUyIlAU7IxwkCQ3sFCqmo/1w9FwsQA6cFV
50NAfpg1wmpp5cFS+rY/uttDwhhz58HntqxADmc+wixY6cEcj6ZAODs4wlrX1sFyARS/bwMzwjxH
18FAwbK9eHE8wibg6sGVknpANbE1wiXT68HE/sdAEjU0wqkb7cFgQx9AIKszwl6J78GQ/5xABjVG
wpST5cFKDdhAYss/wkvJ6sEiTjZArAg7wp5u6cHOQspAgdQ2wlin7MFNAG9AX7s5wgyGz8F9FM2/
ano+wrB+z8GFSADAd8Myworv68GIsedA/IUwwpRP88GgOA5AQkI2wgZWycHUcwTAwgsuwlnwzsHe
2S+/8uE9whZH6sH2R6o/3TZAwopz3cHcauC+LIhLwhjc5cH0SY1AiKItwgfw3sGg8aY/9YdHwrQB
6cFsywpAdqwvwnw77MFxzZhALWczwpY5+MGhNJ5AHXdHwg4f7cEZ2eZAysJJwvl04MF0G9ZAi0ND
wp234cEq8exAb5M8wgCm58G8V+dA

> <OMEGA_E>
X0C5wA==

> <OMEGA_NBR>
      5106

$$$$
CACHE3HI_1696_12
  -OEChem-03092622523D

 36 38  0     1  0  0  0  0  0999 V2000
  -44.8910  -33.5674    1.0485 C   0  0  0  0  0  0  0  0  0  0  0  0
  -44.6063  -32.4395    1.8182 C   0  0  0  0  0  0  0  0  0  0  0  0
  -44.5273  -33.6024   -0.2976 C   0  0  0  0  0  0  0  0  0  0  0  0
  -47.5694  -29.7288    4.2707 C   0  0  0  0  0  0  0  0  0  0  0  0
  -43.5942  -31.3820   -0.1041 C   0  0  0  0  0  0  0  0  0  0  0  0
  -44.0357  -29.3350    6.1947 C   0  0  0  0  0  0  0  0  0  0  0  0
  -46.2239  -29.5946    4.6991 C   0  0  0  0  0  0  0  0  0  0  0  0
  -43.9579  -31.3470    1.2421 C   0  0  0  0  0  0  0  0  0  0  0  0
  -43.8789  -32.5099   -0.8737 C   0  0  0  0  0  0  0  0  0  0  0  0
  -46.2454  -29.5239    6.0865 C   0  0  0  0  0  0  0  0  0  0  0  0
  -44.9721  -29.5232    4.0891 C   0  0  0  0  0  0  0  0  0  0  0  0
  -48.3645  -29.7357    5.3970 C   0  0  0  0  0  0  0  0  0  0  0  0
  -42.9320  -29.0423    1.2723 C   0  0  0  0  0  0  0  0  0  0  0  0
  -45.9118  -29.0907    1.8334 C   0  0  0  0  0  0  0  0  0  0  0  0
  -43.6490  -30.1240    2.0773 C   0  0  1  0  0  0  0  0  0  0  0  0
  -45.1835  -29.3935    6.9005 N   0  0  0  0  0  0  0  0  0  0  0  0
  -43.8646  -29.3910    4.8547 N   0  0  0  0  0  0  0  0  0  0  0  0
  -47.5503  -29.6110    6.4935 N   0  0  0  0  0  0  0  0  0  0  0  0
  -44.8499  -29.5862    2.6894 N   0  0  3  0  0  0  0  0  0  0  0  0
  -43.5234  -32.5445   -2.1871 O   0  0  0  0  0  0  0  0  0  0  0  0
  -50.0369  -29.8618    5.6263 Cl  0  0  0  0  0  0  0  0  0  0  0  0
  -45.3958  -34.4178    1.4971 H   0  0  0  0  0  0  0  0  0  0  0  0
  -44.8931  -32.4204    2.8663 H   0  0  0  0  0  0  0  0  0  0  0  0
  -44.7515  -34.4838   -0.8923 H   0  0  0  0  0  0  0  0  0  0  0  0
  -47.9231  -29.8110    3.2517 H   0  0  0  0  0  0  0  0  0  0  0  0
  -43.0888  -30.5321   -0.5565 H   0  0  0  0  0  0  0  0  0  0  0  0
  -43.1282  -29.2293    6.7792 H   0  0  0  0  0  0  0  0  0  0  0  0
  -43.5269  -28.7080    0.4153 H   0  0  0  0  0  0  0  0  0  0  0  0
  -42.7157  -28.1661    1.8942 H   0  0  0  0  0  0  0  0  0  0  0  0
  -41.9822  -29.4214    0.8781 H   0  0  0  0  0  0  0  0  0  0  0  0
  -45.6477  -29.2190    0.7797 H   0  0  0  0  0  0  0  0  0  0  0  0
  -46.8406  -29.6332    2.0310 H   0  0  0  0  0  0  0  0  0  0  0  0
  -46.0863  -28.0283    2.0247 H   0  0  0  0  0  0  0  0  0  0  0  0
  -42.9987  -30.4080    2.9133 H   0  0  0  0  0  0  0  0  0  0  0  0
  -47.8647  -29.5872    7.4535 H   0  0  0  0  0  0  0  0  0  0  0  0
  -43.7971  -33.4002   -2.5648 H   0  0  0  0  0  0  0  0  0  0  0  0
  1  2  2  0  0  0  0
  1  3  1  0  0  0  0
  2  8  1  0  0  0  0
  3  9  2  0  0  0  0
  4  7  1  0  0  0  0
  4 12  2  0  0  0  0
  5  8  2  0  0  0  0
  5  9  1  0  0  0  0
  6 16  2  0  0  0  0
  6 17  1  0  0  0  0
  7 10  2  0  0  0  0
  7 11  1  0  0  0  0
  8 15  1  0  0  0  0
  9 20  1  0  0  0  0
 10 16  1  0  0  0  0
 10 18  1  0  0  0  0
 11 17  2  0  0  0  0
 11 19  1  0  0  0  0
 12 18  1  0  0  0  0
 12 21  1  0  0  0  0
 13 15  1  0  0  0  0
 14 19  1  0  0  0  0
 15 19  1  0  0  0  0
  1 22  1  0  0  0  0
  2 23  1  0  0  0  0
  3 24  1  0  0  0  0
  4 25  1  0  0  0  0
  5 26  1  0  0  0  0
  6 27  1  0  0  0  0
 13 28  1  0  0  0  0
 13 29  1  0  0  0  0
 13 30  1  0  0  0  0
 14 31  1  0  0  0  0
 14 32  1  0  0  0  0
 14 33  1  0  0  0  0
 15 34  1  0  0  0  0
 18 35  1  0  0  0  0
 20 36  1  0  0  0  0
M  END
> <POSIT::Probability>
0.42

> <POSIT::Method>
HYBRID

> <ReceptorTitle>
UCSF-P4452-REFINED_LIGAND-BOUND-STATE_A__DU__LA1_A-201(A)

> <OMEGA_C>
WZAzwhBFBsJVNYY/z2wywgzCAcLmueg/+hsywuhoBsJnXpi+EEc+wqTU7cE1qYhAd2AuwkwO+8Ec
MdW9hSQwwheu6sGbOsZARuU4wsTB7MGfXpZA19Qvwo7G+sGu+54/AoQvwiMKAsKYq1+/Uvs4wvQw
7ME3xMJAd+MzwnMv7MEN2oJANHVBwrzi7cFvtKxAV7orwopW6MFs2aI/pKU3wsu56MEirOo/jZgu
wgn+8MEw8wRA6bs0wvwl68GX0NxAYnUvwtAg68G1WZtAjDM+wmTj7MGrys9AQmYzwp2w7MHnHyxA
6xcuwoctAsJ5+QvAxSVIwujk7sG9CrRASZU1wt+rCcKLoL8/iJIzwneuAcJycTdAkgEzwl/vCcLY
bmS/NrE/wgV97sFTG1BA6VoswqRB9MEAdA6/R4MswqHV6cHa7thAlBsuwvOp5cHRm9Q+69wqwj9U
4cFodPI/wu0nwv1e68FWy2A/SJc2woXA6cGwmUc/wVw7wsgQ7cFc+wFAUlg4wvg54MGhlAFAq/4r
wpdD88EeczpAcnU/wpqy7MEWg+5ARDAvwtGZBcIJJSTA

> <OMEGA_E>
tskcwQ==

> <OMEGA_NBR>
      6333

$$$$
CACHE3HI_1696_50
  -OEChem-03092622523D

 37 40  0     1  0  0  0  0  0999 V2000
  -47.8819  -29.3393    4.7193 C   0  0  0  0  0  0  0  0  0  0  0  0
  -44.0365  -29.4259    6.3192 C   0  0  0  0  0  0  0  0  0  0  0  0
  -46.4353  -29.4368    5.0196 C   0  0  0  0  0  0  0  0  0  0  0  0
  -46.3488  -29.3650    6.4218 C   0  0  0  0  0  0  0  0  0  0  0  0
  -45.2193  -29.5521    4.2728 C   0  0  0  0  0  0  0  0  0  0  0  0
  -48.5569  -29.3456    5.9111 C   0  0  0  0  0  0  0  0  0  0  0  0
  -44.0142  -32.1869    2.6209 C   0  0  0  0  0  0  0  0  0  0  0  0
  -43.2713  -31.0927    1.8189 C   0  0  0  0  0  0  0  0  0  0  0  0
  -44.9442  -29.0351    0.0056 C   0  0  0  0  0  0  0  0  0  0  0  0
  -43.7915  -28.7065    0.9799 C   0  0  0  0  0  0  0  0  0  0  0  0
  -46.2993  -29.1246    0.7479 C   0  0  0  0  0  0  0  0  0  0  0  0
  -46.1336  -31.5766    1.4750 C   0  0  0  0  0  0  0  0  0  0  0  0
  -43.7481  -29.6528    2.2005 C   0  0  1  0  0  0  0  0  0  0  0  0
  -46.2487  -30.0965    1.9477 C   0  0  1  0  0  0  0  0  0  0  0  0
  -45.1633  -29.3517    7.0522 N   0  0  0  0  0  0  0  0  0  0  0  0
  -44.0503  -29.5444    4.9726 N   0  0  0  0  0  0  0  0  0  0  0  0
  -47.6307  -29.3352    6.9382 N   0  0  0  0  0  0  0  0  0  0  0  0
  -45.3701  -32.4039    2.4138 N   0  0  0  0  0  0  0  0  0  0  0  0
  -45.1181  -29.6613    2.8505 N   0  0  3  0  0  0  0  0  0  0  0  0
  -43.4319  -32.8153    3.4948 O   0  0  0  0  0  0  0  0  0  0  0  0
  -50.2889  -29.3104    6.1007 Cl  0  0  0  0  0  0  0  0  0  0  0  0
  -48.3254  -29.2749    3.7366 H   0  0  0  0  0  0  0  0  0  0  0  0
  -43.0840  -29.3893    6.8269 H   0  0  0  0  0  0  0  0  0  0  0  0
  -42.1935  -31.1744    2.0228 H   0  0  0  0  0  0  0  0  0  0  0  0
  -43.4548  -31.2538    0.7463 H   0  0  0  0  0  0  0  0  0  0  0  0
  -45.0049  -28.2448   -0.7572 H   0  0  0  0  0  0  0  0  0  0  0  0
  -44.7379  -29.9996   -0.4813 H   0  0  0  0  0  0  0  0  0  0  0  0
  -42.8384  -28.7899    0.4370 H   0  0  0  0  0  0  0  0  0  0  0  0
  -43.9194  -27.6749    1.3398 H   0  0  0  0  0  0  0  0  0  0  0  0
  -46.5681  -28.1231    1.1152 H   0  0  0  0  0  0  0  0  0  0  0  0
  -47.0668  -29.4743    0.0417 H   0  0  0  0  0  0  0  0  0  0  0  0
  -47.1457  -31.9960    1.3766 H   0  0  0  0  0  0  0  0  0  0  0  0
  -45.6314  -31.5972    0.4966 H   0  0  0  0  0  0  0  0  0  0  0  0
  -43.0266  -29.2418    2.9219 H   0  0  0  0  0  0  0  0  0  0  0  0
  -47.1925  -29.9955    2.5037 H   0  0  0  0  0  0  0  0  0  0  0  0
  -47.8555  -29.3098    7.9122 H   0  0  0  0  0  0  0  0  0  0  0  0
  -45.8331  -33.1362    2.9132 H   0  0  0  0  0  0  0  0  0  0  0  0
  1  3  1  0  0  0  0
  1  6  2  0  0  0  0
  2 15  1  0  0  0  0
  2 16  2  0  0  0  0
  3  4  1  0  0  0  0
  3  5  2  0  0  0  0
  4 15  2  0  0  0  0
  4 17  1  0  0  0  0
  5 16  1  0  0  0  0
  5 19  1  0  0  0  0
  6 17  1  0  0  0  0
  6 21  1  0  0  0  0
  7  8  1  0  0  0  0
  7 18  1  0  0  0  0
  7 20  2  0  0  0  0
  8 13  1  0  0  0  0
  9 10  1  0  0  0  0
  9 11  1  0  0  0  0
 10 13  1  0  0  0  0
 11 14  1  0  0  0  0
 12 14  1  0  0  0  0
 12 18  1  0  0  0  0
 13 19  1  0  0  0  0
 14 19  1  0  0  0  0
  1 22  1  0  0  0  0
  2 23  1  0  0  0  0
  8 24  1  0  0  0  0
  8 25  1  0  0  0  0
  9 26  1  0  0  0  0
  9 27  1  0  0  0  0
 10 28  1  0  0  0  0
 10 29  1  0  0  0  0
 11 30  1  0  0  0  0
 11 31  1  0  0  0  0
 12 32  1  0  0  0  0
 12 33  1  0  0  0  0
 13 34  1  0  0  0  0
 14 35  1  0  0  0  0
 17 36  1  0  0  0  0
 18 37  1  0  0  0  0
M  END
> <POSIT::Probability>
0.99

> <POSIT::Method>
SHAPEFIT

> <ReceptorTitle>
UCSF-P4452-REFINED_LIGAND-BOUND-STATE_A__DU__LA1_A-201(A)

> <OMEGA_C>
HYc/wu226sFaBJdAVCUwwkZo68GSNspAzL05wo1+68F/oKBAKWU5wpfr6sEqf81AhOA0wrlq7MHq
uohAPDpCwrPD6sEgKL1AjA4wwm+/AMJjvSdA0xUtwsW9+MG70Og/28YzwsxH6MHsELg7fCovwuKm
5cEk2Xo/hjI5wh7/6MEcdT8/x4g4wuWc/MFHzrw/Dv4uwvQ47cGc1AxAsf44wrzF8MGpTfk/Qqc0
wk/Q6sFzq+FAijMwwvZa7MFBH59A04U+wn2u6sFuBd5A/Xo1wpidAcJ3fBpA7Xg0wkBK7cFgbjZA
T7otwtVCA8J+q19A0ydJwsV76sHnOMNAPE1Bwuoy6sEyJW9A+lUswlgd68EfdtpAIMYowi5l+cHi
dQFAs9Etwq8H+sEZDj8/DAU0wmn14cEp1kG/n/MywjT/78FYbPa+klorwr1R5sFgud8+a60vwkVm
3cEYf6s/tkU6wjb84MGkv44/cEQ8wkXL68H22So9M5U8wtn3/8G+NLA/ioY2wgbH/MEzQP4+NBss
wk/v6cHxADtAFcU8wrf278FKPCBAFGw/woh66sHyMP1AEVU3woSLBMJ/cTpA

> <OMEGA_E>
AJG4PA==

> <OMEGA_NBR>
      7600

$$$$
CACHE3HI_1696_53
  -OEChem-03092622523D

 42 45  0     1  0  0  0  0  0999 V2000
  -43.0670  -29.6105    4.2411 C   0  0  0  0  0  0  0  0  0  0  0  0
  -45.5526  -29.5585    4.8926 C   0  0  0  0  0  0  0  0  0  0  0  0
  -46.7635  -29.4902    5.5181 C   0  0  0  0  0  0  0  0  0  0  0  0
  -44.5646  -29.4030    5.9055 C   0  0  0  0  0  0  0  0  0  0  0  0
  -45.3092  -29.7419    3.5404 C   0  0  0  0  0  0  0  0  0  0  0  0
  -45.7647  -32.9427    2.0294 C   0  0  0  0  0  0  0  0  0  0  0  0
  -47.0147  -33.3029    1.2368 C   0  0  0  0  0  0  0  0  0  0  0  0
  -45.0342  -31.7557    1.4050 C   0  0  0  0  0  0  0  0  0  0  0  0
  -47.9304  -32.0954    1.0562 C   0  0  0  0  0  0  0  0  0  0  0  0
  -47.1703  -28.7010    2.5215 C   0  0  0  0  0  0  0  0  0  0  0  0
  -48.5115  -28.9686    1.8601 C   0  0  0  0  0  0  0  0  0  0  0  0
  -45.9236  -30.4978    1.2505 C   0  0  1  0  0  0  0  0  0  0  0  0
  -47.1743  -30.9093    0.4364 C   0  0  2  0  0  0  0  0  0  0  0  0
  -49.1588  -29.7530    6.2096 C   0  0  0  0  0  0  0  0  0  0  0  0
  -48.1604  -29.5759    5.0590 C   0  0  0  0  0  0  0  0  0  0  0  0
  -43.2390  -29.4266    5.5905 N   0  0  0  0  0  0  0  0  0  0  0  0
  -43.9835  -29.7660    3.2220 N   0  0  0  0  0  0  0  0  0  0  0  0
  -45.1316  -29.2453    7.1062 N   0  0  0  0  0  0  0  0  0  0  0  0
  -46.4558  -29.3021    6.8401 N   0  0  0  0  0  0  0  0  0  0  0  0
  -46.3051  -29.8946    2.5529 N   0  0  1  0  0  0  0  0  0  0  0  0
  -48.3050  -29.5082    0.1470 S   0  0  0  0  0  0  0  0  0  0  0  0
  -42.0298  -29.6399    3.9183 H   0  0  0  0  0  0  0  0  0  0  0  0
  -46.0363  -32.7076    3.0613 H   0  0  0  0  0  0  0  0  0  0  0  0
  -45.0933  -33.8063    2.0599 H   0  0  0  0  0  0  0  0  0  0  0  0
  -46.7239  -33.6904    0.2548 H   0  0  0  0  0  0  0  0  0  0  0  0
  -47.5498  -34.1110    1.7464 H   0  0  0  0  0  0  0  0  0  0  0  0
  -44.1306  -31.5383    2.0031 H   0  0  0  0  0  0  0  0  0  0  0  0
  -44.6568  -32.0582    0.4085 H   0  0  0  0  0  0  0  0  0  0  0  0
  -48.7415  -32.3768    0.3837 H   0  0  0  0  0  0  0  0  0  0  0  0
  -48.3854  -31.8227    2.0066 H   0  0  0  0  0  0  0  0  0  0  0  0
  -46.6511  -27.8868    2.0094 H   0  0  0  0  0  0  0  0  0  0  0  0
  -47.3551  -28.3742    3.5480 H   0  0  0  0  0  0  0  0  0  0  0  0
  -49.0845  -29.7058    2.4133 H   0  0  0  0  0  0  0  0  0  0  0  0
  -49.0950  -28.0513    1.8422 H   0  0  0  0  0  0  0  0  0  0  0  0
  -45.3860  -29.7907    0.6578 H   0  0  0  0  0  0  0  0  0  0  0  0
  -46.8284  -31.2130   -0.5763 H   0  0  0  0  0  0  0  0  0  0  0  0
  -49.0565  -28.9427    6.9396 H   0  0  0  0  0  0  0  0  0  0  0  0
  -48.9835  -30.6995    6.7318 H   0  0  0  0  0  0  0  0  0  0  0  0
  -50.1907  -29.7529    5.8451 H   0  0  0  0  0  0  0  0  0  0  0  0
  -48.2993  -30.4144    4.3480 H   0  0  0  0  0  0  0  0  0  0  0  0
  -48.4504  -28.6741    4.4832 H   0  0  0  0  0  0  0  0  0  0  0  0
  -47.0993  -29.2041    7.6153 H   0  0  0  0  0  0  0  0  0  0  0  0
  1 16  2  0  0  0  0
  1 17  1  0  0  0  0
  2  3  2  0  0  0  0
  2  4  1  0  0  0  0
  2  5  1  0  0  0  0
  3 15  1  0  0  0  0
  3 19  1  0  0  0  0
  4 16  1  0  0  0  0
  4 18  2  0  0  0  0
  5 17  2  0  0  0  0
  5 20  1  0  0  0  0
  6  7  1  0  0  0  0
  6  8  1  0  0  0  0
  7  9  1  0  0  0  0
  8 12  1  0  0  0  0
  9 13  1  0  0  0  0
 10 11  1  0  0  0  0
 10 20  1  0  0  0  0
 11 21  1  0  0  0  0
 12 13  1  0  0  0  0
 12 20  1  0  0  0  0
 13 21  1  0  0  0  0
 14 15  1  0  0  0  0
 18 19  1  0  0  0  0
  1 22  1  0  0  0  0
  6 23  1  0  0  0  0
  6 24  1  0  0  0  0
  7 25  1  0  0  0  0
  7 26  1  0  0  0  0
  8 27  1  0  0  0  0
  8 28  1  0  0  0  0
  9 29  1  0  0  0  0
  9 30  1  0  0  0  0
 10 31  1  0  0  0  0
 10 32  1  0  0  0  0
 11 33  1  0  0  0  0
 11 34  1  0  0  0  0
 12 35  1  0  0  0  0
 13 36  1  0  0  0  0
 14 37  1  0  0  0  0
 14 38  1  0  0  0  0
 14 39  1  0  0  0  0
 15 40  1  0  0  0  0
 15 41  1  0  0  0  0
 19 42  1  0  0  0  0
M  END
> <POSIT::Probability>
0.23

> <POSIT::Method>
HYBRID

> <ReceptorTitle>
UCSF-P4452-REFINED_LIGAND-BOUND-STATE_A__DU__LA1_A-201(A)

> <OMEGA_C>
nkQswlji7MH6todA0jU2wrh37MHqj5xA2g07wtrr68GelLBAHEIywlU568GO+bxAkzw1wlTv7cHw
lWJACA83wkzFA8J84QFACA88wjc2BcJUT54//CI0wsAL/sEQ17M/uLg/wq5hAMKMMoc/aK48wqCb
5cG+XyFAzQtCwsq/58FEF+4/zrE3wmj788G8EKA/e7I8wjpG98GAb98+nKJEwiwG7sE8tcZAPKRA
woCb7ME646FAxvQswp5p68FT5bJAGe8vwsEg7sHyNU5AwIY0wkv26cFRZuNAxNI5wqZq6sED4tpA
aTg5wjUo78G0YiNASzhBws4Q7MFAghY+gh4owowe7cGoxXpAISU4wozUAsKc60NAjl80wq85B8Kk
1QNAQeU6wvLCBsKgb4I+9jI+wqNxCMJAi98/soUwwoRO/MF6MgBAjqAywpY7AMKwKdE+UPdCwt6B
AcKgdMQ+m4pBwtGU/sGEbABAuZo6wjAY38G0mgBAqWs9wnX+4sEgEmNAh1ZEwnql7cHkcxpAS2FE
wiBp4MHMzus/RYs1wmZT7sEgZyg/QlA7wiS0+cFgihO/4jlEwriK58F8Ed5AGe9DwqaY9cGRatdA
SMNIwgoG7sHOCrtAgzJBwsZQ88GsIotAO81Bwndk5cFhdo9AsmU8whii6cHJsPNA

> <OMEGA_E>
4ijawA==

> <OMEGA_NBR>
      8949

$$$$
CACHE3HI_1700_80
  -OEChem-03092622523D

 50 53  0     1  0  0  0  0  0999 V2000
  -45.7585  -29.5770    4.7575 C   0  0  0  0  0  0  0  0  0  0  0  0
  -43.7353  -29.4013    6.5143 C   0  0  0  0  0  0  0  0  0  0  0  0
  -44.4421  -29.7500    4.3818 C   0  0  0  0  0  0  0  0  0  0  0  0
  -45.9679  -29.3077    6.0944 C   0  0  0  0  0  0  0  0  0  0  0  0
  -43.5329  -30.5121    0.2632 C   0  0  0  0  0  0  0  0  0  0  0  0
  -48.2007  -30.1453    0.4343 C   0  0  0  0  0  0  0  0  0  0  0  0
  -44.2758  -29.2540    0.6915 C   0  0  0  0  0  0  0  0  0  0  0  0
  -43.8357  -31.6581    1.2190 C   0  0  0  0  0  0  0  0  0  0  0  0
  -49.5426  -30.4747    1.1064 C   0  0  0  0  0  0  0  0  0  0  0  0
  -47.4451  -29.2225    1.4018 C   0  0  0  0  0  0  0  0  0  0  0  0
  -43.9649  -28.8804    2.1384 C   0  0  0  0  0  0  0  0  0  0  0  0
  -43.5289  -31.2849    2.6683 C   0  0  0  0  0  0  0  0  0  0  0  0
  -50.3394  -28.7631    4.2931 C   0  0  0  0  0  0  0  0  0  0  0  0
  -49.3161  -30.0970    2.5620 C   0  0  1  0  0  0  0  0  0  0  0  0
  -48.4868  -28.8271    2.4381 C   0  0  1  0  0  0  0  0  0  0  0  0
  -48.8860  -28.5420    4.7671 C   0  0  1  0  0  0  0  0  0  0  0  0
  -48.4219  -29.6058    5.7583 C   0  0  0  0  0  0  0  0  0  0  0  0
  -43.4018  -29.6687    5.2371 N   0  0  0  0  0  0  0  0  0  0  0  0
  -44.9759  -29.2128    7.0042 N   0  0  0  0  0  0  0  0  0  0  0  0
  -50.5188  -29.8797    3.3546 N   0  0  0  0  0  0  0  0  0  0  0  0
  -44.1870  -30.0251    3.0318 N   0  0  0  0  0  0  0  0  0  0  0  0
  -47.2701  -29.1281    6.5098 N   0  0  0  0  0  0  0  0  0  0  0  0
  -47.9284  -28.4758    3.6924 O   0  0  0  0  0  0  0  0  0  0  0  0
  -46.5752  -29.6479    4.0482 H   0  0  0  0  0  0  0  0  0  0  0  0
  -42.9192  -29.3304    7.2228 H   0  0  0  0  0  0  0  0  0  0  0  0
  -43.8252  -30.7891   -0.7558 H   0  0  0  0  0  0  0  0  0  0  0  0
  -42.4535  -30.3178    0.2489 H   0  0  0  0  0  0  0  0  0  0  0  0
  -47.6191  -31.0564    0.2514 H   0  0  0  0  0  0  0  0  0  0  0  0
  -48.3666  -29.6592   -0.5338 H   0  0  0  0  0  0  0  0  0  0  0  0
  -44.0031  -28.4224    0.0316 H   0  0  0  0  0  0  0  0  0  0  0  0
  -45.3564  -29.4079    0.5782 H   0  0  0  0  0  0  0  0  0  0  0  0
  -44.8926  -31.9396    1.1314 H   0  0  0  0  0  0  0  0  0  0  0  0
  -43.2488  -32.5390    0.9352 H   0  0  0  0  0  0  0  0  0  0  0  0
  -50.3402  -29.8658    0.6589 H   0  0  0  0  0  0  0  0  0  0  0  0
  -49.8210  -31.5277    0.9837 H   0  0  0  0  0  0  0  0  0  0  0  0
  -46.6059  -29.7529    1.8713 H   0  0  0  0  0  0  0  0  0  0  0  0
  -47.0221  -28.3480    0.8937 H   0  0  0  0  0  0  0  0  0  0  0  0
  -42.9196  -28.5440    2.2211 H   0  0  0  0  0  0  0  0  0  0  0  0
  -44.6015  -28.0319    2.4313 H   0  0  0  0  0  0  0  0  0  0  0  0
  -43.8658  -32.1017    3.3242 H   0  0  0  0  0  0  0  0  0  0  0  0
  -42.4408  -31.1873    2.8054 H   0  0  0  0  0  0  0  0  0  0  0  0
  -50.9974  -28.9336    5.1727 H   0  0  0  0  0  0  0  0  0  0  0  0
  -50.7179  -27.8345    3.8182 H   0  0  0  0  0  0  0  0  0  0  0  0
  -48.7261  -30.9049    3.0386 H   0  0  0  0  0  0  0  0  0  0  0  0
  -49.0713  -27.9796    2.0468 H   0  0  0  0  0  0  0  0  0  0  0  0
  -48.8313  -27.5518    5.3074 H   0  0  0  0  0  0  0  0  0  0  0  0
  -49.2359  -29.8414    6.4497 H   0  0  0  0  0  0  0  0  0  0  0  0
  -48.1596  -30.5214    5.2204 H   0  0  0  0  0  0  0  0  0  0  0  0
  -50.7459  -30.7375    3.8802 H   0  0  0  0  0  0  0  0  0  0  0  0
  -47.4476  -28.6426    7.3755 H   0  0  0  0  0  0  0  0  0  0  0  0
  1  3  2  0  0  0  0
  1  4  1  0  0  0  0
  2 18  2  0  0  0  0
  2 19  1  0  0  0  0
  3 18  1  0  0  0  0
  3 21  1  0  0  0  0
  4 19  2  0  0  0  0
  4 22  1  0  0  0  0
  5  7  1  0  0  0  0
  5  8  1  0  0  0  0
  6  9  1  0  0  0  0
  6 10  1  0  0  0  0
  7 11  1  0  0  0  0
  8 12  1  0  0  0  0
  9 14  1  0  0  0  0
 10 15  1  0  0  0  0
 11 21  1  0  0  0  0
 12 21  1  0  0  0  0
 13 16  1  0  0  0  0
 13 20  1  0  0  0  0
 14 15  1  0  0  0  0
 14 20  1  0  0  0  0
 15 23  1  0  0  0  0
 16 17  1  0  0  0  0
 16 23  1  0  0  0  0
 17 22  1  0  0  0  0
  1 24  1  0  0  0  0
  2 25  1  0  0  0  0
  5 26  1  0  0  0  0
  5 27  1  0  0  0  0
  6 28  1  0  0  0  0
  6 29  1  0  0  0  0
  7 30  1  0  0  0  0
  7 31  1  0  0  0  0
  8 32  1  0  0  0  0
  8 33  1  0  0  0  0
  9 34  1  0  0  0  0
  9 35  1  0  0  0  0
 10 36  1  0  0  0  0
 10 37  1  0  0  0  0
 11 38  1  0  0  0  0
 11 39  1  0  0  0  0
 12 40  1  0  0  0  0
 12 41  1  0  0  0  0
 13 42  1  0  0  0  0
 13 43  1  0  0  0  0
 14 44  1  0  0  0  0
 15 45  1  0  0  0  0
 16 46  1  0  0  0  0
 17 47  1  0  0  0  0
 17 48  1  0  0  0  0
 20 49  1  0  0  0  0
 22 50  1  0  0  0  0
M  END
> <POSIT::Probability>
0.23

> <POSIT::Method>
HYBRID

> <ReceptorTitle>
UCSF-P4452-REFINED_LIGAND-BOUND-STATE_A__DU__LA1_A-201(A)

> <OMEGA_C>
tgg3wrad7MGCPZhA9vAuwuo168EIddBAu8Qxwv//7cF0N4xAG983wjp26sGFBcNAtSEuwroY9MFQ
yIY+gs1AwpMp8cHAYN4+choxwjII6sGIAzE/wlcvwsdD/cFoB5w/nCtGwjbM88Hkn40/z8c9wqTH
6cFQbrM/A9wvwgoL58FM2whAmh0uwnBH+sEIxSpAj1tJwsYa5sE2YYlAq0NFwqvG8ME89yNAffJB
wvSd5sEwChxAQotDwvRV5MEyjJhAArBBwprY7MHNQ7hAb5stwoxZ7cGvlqdASuczwsaz6cG8IuBA
TBNKwpsJ78HssVZAcL8wwmsz8MFOCEJAkhQ9wlcG6cH0T9BArLY/wmHO48GqUGxAAk06wtou7cH0
ioFAS60rwqKk6sFyIedAB00vwgBQ9sEgekG/YtApwuWK8sGg0n4+63k+wpVz+MFAtYA+WXdBwg5G
7cFQpAi/KAMwwh5h48GAnAE97Ww1wm5D68EYBRQ/BpIzwmSE/8Fo0pA/z/4swuonAsKIam8/Y1xJ
whLt7sFwrCg/qUhHwqc4/MEA0Xs/cGw6wtsF7sHYhu8/rhY8wqnI4sHQyWQ/ra0rwixa5MEAJw5A
42cywmJB4MFKmhtAj3YvwhhoAMK6v1RAXsMpwox/+cF+izNAWP1Lwvl358GqhqVAI99Kwhqt3sEo
XXRAjOdCwk8998GQeEJACUlEwjjW38EG/wJATFNDwv1p3ME+1qlAjPFEwkm77sE+ZM5AZ6NAwr0r
9MHNDadA2vtKwlHm9cH4VXhAW8o9wiQk5cFqBOxA

> <OMEGA_E>
Qu/jwA==

> <OMEGA_NBR>
     10457

$$$$
CACHE3HI_1706_63
  -OEChem-03092622523D

 39 41  0     0  0  0  0  0  0999 V2000
  -45.9843  -30.1274    0.7900 C   0  0  0  0  0  0  0  0  0  0  0  0
  -43.7493  -29.3485    0.7457 C   0  0  0  0  0  0  0  0  0  0  0  0
  -44.5585  -30.4448    0.9565 C   0  0  0  0  0  0  0  0  0  0  0  0
  -46.1958  -28.7983    0.5415 C   0  0  0  0  0  0  0  0  0  0  0  0
  -46.6808  -30.0177    4.3107 C   0  0  0  0  0  0  0  0  0  0  0  0
  -48.0984  -29.8060    4.6646 C   0  0  0  0  0  0  0  0  0  0  0  0
  -45.6956  -29.8419    5.2684 C   0  0  0  0  0  0  0  0  0  0  0  0
  -48.4295  -29.4653    5.9704 C   0  0  0  0  0  0  0  0  0  0  0  0
  -46.0961  -29.4657    6.6290 C   0  0  0  0  0  0  0  0  0  0  0  0
  -43.9090  -31.5986    3.0612 C   0  0  0  0  0  0  0  0  0  0  0  0
  -49.1599  -29.9995    3.5939 C   0  0  0  0  0  0  0  0  0  0  0  0
  -49.8538  -29.1851    6.4020 C   0  0  0  0  0  0  0  0  0  0  0  0
  -50.4939  -29.3253    3.9681 C   0  0  0  0  0  0  0  0  0  0  0  0
  -50.8949  -29.7059    5.4000 C   0  0  0  0  0  0  0  0  0  0  0  0
  -44.2129  -30.0432    4.9987 C   0  0  0  0  0  0  0  0  0  0  0  0
  -44.0735  -31.7576    1.5465 C   0  0  0  0  0  0  0  0  0  0  0  0
  -47.4337  -29.3152    6.9322 N   0  0  0  0  0  0  0  0  0  0  0  0
  -43.9255  -30.3206    3.6068 N   0  0  0  0  0  0  0  0  0  0  0  0
  -45.2562  -29.3105    7.5059 O   0  0  0  0  0  0  0  0  0  0  0  0
  -43.7934  -32.5921    3.7709 O   0  0  0  0  0  0  0  0  0  0  0  0
  -42.8730  -32.0982    1.0129 F   0  0  0  0  0  0  0  0  0  0  0  0
  -44.9872  -32.7396    1.3100 F   0  0  0  0  0  0  0  0  0  0  0  0
  -44.6930  -27.9266    0.4046 S   0  0  0  0  0  0  0  0  0  0  0  0
  -47.7758  -28.0781    0.4489 Cl  0  0  0  0  0  0  0  0  0  0  0  0
  -46.7752  -30.8599    0.8562 H   0  0  0  0  0  0  0  0  0  0  0  0
  -42.6703  -29.3694    0.7870 H   0  0  0  0  0  0  0  0  0  0  0  0
  -46.4122  -30.3093    3.3061 H   0  0  0  0  0  0  0  0  0  0  0  0
  -48.7956  -29.5650    2.6513 H   0  0  0  0  0  0  0  0  0  0  0  0
  -49.3336  -31.0772    3.4580 H   0  0  0  0  0  0  0  0  0  0  0  0
  -50.0281  -29.6705    7.3736 H   0  0  0  0  0  0  0  0  0  0  0  0
  -49.9813  -28.0976    6.5074 H   0  0  0  0  0  0  0  0  0  0  0  0
  -50.3810  -28.2332    3.9002 H   0  0  0  0  0  0  0  0  0  0  0  0
  -51.2772  -29.6571    3.2707 H   0  0  0  0  0  0  0  0  0  0  0  0
  -50.9590  -30.8012    5.4798 H   0  0  0  0  0  0  0  0  0  0  0  0
  -51.8749  -29.2634    5.6321 H   0  0  0  0  0  0  0  0  0  0  0  0
  -43.6755  -29.1294    5.2926 H   0  0  0  0  0  0  0  0  0  0  0  0
  -43.8574  -30.8889    5.6057 H   0  0  0  0  0  0  0  0  0  0  0  0
  -47.6960  -29.0915    7.8709 H   0  0  0  0  0  0  0  0  0  0  0  0
  -43.7274  -29.5481    3.0035 H   0  0  0  0  0  0  0  0  0  0  0  0
  1  3  1  0  0  0  0
  1  4  2  0  0  0  0
  2  3  2  0  0  0  0
  2 23  1  0  0  0  0
  3 16  1  0  0  0  0
  4 23  1  0  0  0  0
  4 24  1  0  0  0  0
  5  6  1  0  0  0  0
  5  7  2  0  0  0  0
  6  8  2  0  0  0  0
  6 11  1  0  0  0  0
  7  9  1  0  0  0  0
  7 15  1  0  0  0  0
  8 12  1  0  0  0  0
  8 17  1  0  0  0  0
  9 17  1  0  0  0  0
  9 19  2  0  0  0  0
 10 16  1  0  0  0  0
 10 18  1  0  0  0  0
 10 20  2  0  0  0  0
 11 13  1  0  0  0  0
 12 14  1  0  0  0  0
 13 14  1  0  0  0  0
 15 18  1  0  0  0  0
 16 21  1  0  0  0  0
 16 22  1  0  0  0  0
  1 25  1  0  0  0  0
  2 26  1  0  0  0  0
  5 27  1  0  0  0  0
 11 28  1  0  0  0  0
 11 29  1  0  0  0  0
 12 30  1  0  0  0  0
 12 31  1  0  0  0  0
 13 32  1  0  0  0  0
 13 33  1  0  0  0  0
 14 34  1  0  0  0  0
 14 35  1  0  0  0  0
 15 36  1  0  0  0  0
 15 37  1  0  0  0  0
 17 38  1  0  0  0  0
 18 39  1  0  0  0  0
M  END
> <POSIT::Probability>
0.51

> <POSIT::Method>
SHAPEFIT

> <ReceptorTitle>
UCSF-P4452-REFINED_LIGAND-BOUND-STATE_A__DU__LA1_A-201(A)

> <OMEGA_C>
9u83wtQE8cEwO0o/Tv8uwq3J6sFg6D4/7zsywgmP88GQ33Q/eMg4wtFi5sGInwo/Kbk6wjgk8MH6
8IlAymRAwr1y7sGzRJVARcg2wjy87sEBl6hA2bdBwvu468FEDb9Ac2I4ws2568GsINRA3aIvwvXJ
/MES6kNAvKNEwv7+78EAA2ZAUGpHwiF76cGF3cxAuvlJwjua6sEo9X1AZ5RLwsil7cHpzKxA+dkw
wnFY8MFm9Z9AQUswwosP/sEA88U/Jrw9wnqF6sGn1N1Ar7Mvwp+Q8sEQ1mZAYAY1wvN76sFPMPBA
bCwvwlZeAsKoVXFAAH4rwotkAMKcp4E/4vIzwlT1AsK4rqc/mMUywqNp38FQJc8+ZRo/wuuf4MGQ
1eU+xBk7whDh9sEMLls/Zq4qwpT06sHLdkk/IKY5wlx58sFjllNApS5DwiyF7MGXrylAkFVFwgue
+MFDT11A0xxIwjxd7cHR9OtAz+xHwuvH4MFPPNBAKIZJwqTd4cFsnHlA1htNwqVB7cHtUlFADtZL
ws9o9sGQWq9A4H9Pwncb6sHxObRAwLMuwh0J6cHtXKlA/G0vwmUc98EfYrNAtMg+wmi76MGj3vtA
4eguwn5i7MFzOUBA

> <OMEGA_E>
FEV+Pw==

> <OMEGA_NBR>
     11756

$$$$
CACHE3HI_1706_83
  -OEChem-03092622523D

 42 45  0     1  0  0  0  0  0999 V2000
  -50.9502  -30.5924    4.0987 C   0  0  0  0  0  0  0  0  0  0  0  0
  -51.0619  -30.2590    5.4628 C   0  0  0  0  0  0  0  0  0  0  0  0
  -49.6794  -30.7178    3.5114 C   0  0  0  0  0  0  0  0  0  0  0  0
  -49.9098  -29.9630    6.2161 C   0  0  0  0  0  0  0  0  0  0  0  0
  -48.5315  -30.4969    4.2906 C   0  0  0  0  0  0  0  0  0  0  0  0
  -45.8850  -29.0550    4.6622 C   0  0  0  0  0  0  0  0  0  0  0  0
  -43.9553  -29.3838    6.5320 C   0  0  0  0  0  0  0  0  0  0  0  0
  -48.6372  -30.0214    5.6194 C   0  0  0  0  0  0  0  0  0  0  0  0
  -44.5319  -29.0880    4.2852 C   0  0  0  0  0  0  0  0  0  0  0  0
  -46.2255  -29.4002    5.9875 C   0  0  0  0  0  0  0  0  0  0  0  0
  -44.5311  -31.7638    3.0293 C   0  0  0  0  0  0  0  0  0  0  0  0
  -45.4617  -28.0019    1.0813 C   0  0  0  0  0  0  0  0  0  0  0  0
  -45.7329  -29.3857    0.4101 C   0  0  0  0  0  0  0  0  0  0  0  0
  -44.2106  -28.0092    2.0318 C   0  0  0  0  0  0  0  0  0  0  0  0
  -46.0338  -31.8323    1.2077 C   0  0  0  0  0  0  0  0  0  0  0  0
  -44.4322  -30.4748    2.2102 C   0  0  1  0  0  0  0  0  0  0  0  0
  -45.7856  -30.3884    1.5544 C   0  0  1  0  0  0  0  0  0  0  0  0
  -43.5834  -29.2460    5.2345 N   0  0  0  0  0  0  0  0  0  0  0  0
  -45.2494  -29.5147    6.9093 N   0  0  0  0  0  0  0  0  0  0  0  0
  -45.5506  -32.5226    2.4294 N   0  0  0  0  0  0  0  0  0  0  0  0
  -44.1823  -29.2041    2.9340 N   0  0  2  0  0  0  0  0  0  0  0  0
  -47.5356  -29.6574    6.4075 N   0  0  0  0  0  0  0  0  0  0  0  0
  -43.7531  -32.1491    3.8932 O   0  0  0  0  0  0  0  0  0  0  0  0
  -51.8387  -30.7512    3.5056 H   0  0  0  0  0  0  0  0  0  0  0  0
  -52.0341  -30.2304    5.9322 H   0  0  0  0  0  0  0  0  0  0  0  0
  -49.5861  -30.9821    2.4684 H   0  0  0  0  0  0  0  0  0  0  0  0
  -50.0035  -29.6898    7.2567 H   0  0  0  0  0  0  0  0  0  0  0  0
  -47.5561  -30.6925    3.8702 H   0  0  0  0  0  0  0  0  0  0  0  0
  -46.6483  -28.7713    3.9528 H   0  0  0  0  0  0  0  0  0  0  0  0
  -43.1896  -29.3892    7.2936 H   0  0  0  0  0  0  0  0  0  0  0  0
  -45.2951  -27.2562    0.2900 H   0  0  0  0  0  0  0  0  0  0  0  0
  -46.3467  -27.7197    1.6705 H   0  0  0  0  0  0  0  0  0  0  0  0
  -46.6902  -29.3695   -0.1314 H   0  0  0  0  0  0  0  0  0  0  0  0
  -44.9213  -29.6405   -0.2874 H   0  0  0  0  0  0  0  0  0  0  0  0
  -43.2995  -28.0109    1.4155 H   0  0  0  0  0  0  0  0  0  0  0  0
  -44.2328  -27.1003    2.6510 H   0  0  0  0  0  0  0  0  0  0  0  0
  -47.1029  -32.0249    1.0346 H   0  0  0  0  0  0  0  0  0  0  0  0
  -45.4582  -32.1364    0.3211 H   0  0  0  0  0  0  0  0  0  0  0  0
  -43.6650  -30.6083    1.4333 H   0  0  0  0  0  0  0  0  0  0  0  0
  -46.5297  -30.0560    2.2931 H   0  0  0  0  0  0  0  0  0  0  0  0
  -45.8977  -33.3951    2.7734 H   0  0  0  0  0  0  0  0  0  0  0  0
  -47.7070  -29.5711    7.3889 H   0  0  0  0  0  0  0  0  0  0  0  0
  1  2  1  0  0  0  0
  1  3  2  0  0  0  0
  2  4  2  0  0  0  0
  3  5  1  0  0  0  0
  4  8  1  0  0  0  0
  5  8  2  0  0  0  0
  6  9  2  0  0  0  0
  6 10  1  0  0  0  0
  7 18  2  0  0  0  0
  7 19  1  0  0  0  0
  8 22  1  0  0  0  0
  9 18  1  0  0  0  0
  9 21  1  0  0  0  0
 10 19  2  0  0  0  0
 10 22  1  0  0  0  0
 11 16  1  0  0  0  0
 11 20  1  0  0  0  0
 11 23  2  0  0  0  0
 12 13  1  0  0  0  0
 12 14  1  0  0  0  0
 13 17  1  0  0  0  0
 14 21  1  0  0  0  0
 15 17  1  0  0  0  0
 15 20  1  0  0  0  0
 16 17  1  0  0  0  0
 16 21  1  0  0  0  0
  1 24  1  0  0  0  0
  2 25  1  0  0  0  0
  3 26  1  0  0  0  0
  4 27  1  0  0  0  0
  5 28  1  0  0  0  0
  6 29  1  0  0  0  0
  7 30  1  0  0  0  0
 12 31  1  0  0  0  0
 12 32  1  0  0  0  0
 13 33  1  0  0  0  0
 13 34  1  0  0  0  0
 14 35  1  0  0  0  0
 14 36  1  0  0  0  0
 15 37  1  0  0  0  0
 15 38  1  0  0  0  0
 16 39  1  0  0  0  0
 17 40  1  0  0  0  0
 20 41  1  0  0  0  0
 22 42  1  0  0  0  0
M  END
> <POSIT::Probability>
0.78

> <POSIT::Method>
SHAPEFIT

> <ReceptorTitle>
UCSF-P4452-REFINED_LIGAND-BOUND-STATE_A__DU__LA1_A-201(A)

> <OMEGA_C>
B81LwiS99MFYKINAZz9MwmIS8sGIz65AtrdGwvi99cFou2BAqaNHwi6078Hs6cZASyBCwrj588Fs
TIlAOIo3woxw6MG8MJVAO9IvwvAR68EEBtFAfYxCwuQr8MFW0rNAsiAywjC06MFUIIlA7uY4wp4z
68GAmb9A0x8ywkoc/sGU4EFAxNg1wswD4MGwaIo/du42wvgV68Eg/9E+rtcwwtgS4MEgCQJAoiI4
wnao/sFwlpo/h7oxwmbM88FYdA1AbSQ3wnYb88H49MY/XFUuwsT36cH4gKdAX/80wiYe7ME4Gd1A
zjM2wikXAsJwextAobowwgCi6cHUxjtAbCQ+wk5C7cFMCs1ALAMvwquYAMI8KnlA4FpPwmEC9sE2
XGBA9yJQwsrX8cH91L1AH1hGwj/b98EE+x1AnwNIwquE7cEJN+hAcjk+wjSK9cEesndA3pc6wrgr
5sEg+nxAHsIswhod68H2ZOlAKS41wrUM2sGwdZQ+AWM5wvHB3cHr09U/xsI6wrz06sE3hQa+c68z
wrIf7cGYIJO+rjItwmEW4MEcL7U/XO4wwlfN2ME3qSlAXWk8wooZAMLNboQ/LNU1wrKLAML6ZKQ+
9KguwsPd9MGodbc/aB46wsBy8MHNwhJANpc3wpGUBcKYfzFAAdQ+woiR7MHwcexA

> <OMEGA_E>
NCZAPw==

> <OMEGA_NBR>
     13127

$$$$
CACHE3HI_1708_39
  -OEChem-03092622523D

 34 37  0     0  0  0  0  0  0999 V2000
  -47.6266  -29.2407    6.2636 C   0  0  0  0  0  0  0  0  0  0  0  0
  -46.9904  -29.8578    3.6483 C   0  0  0  0  0  0  0  0  0  0  0  0
  -44.0420  -29.2465    6.4020 C   0  0  0  0  0  0  0  0  0  0  0  0
  -44.3827  -32.5671    2.1292 C   0  0  0  0  0  0  0  0  0  0  0  0
  -46.2862  -29.3402    5.8980 C   0  0  0  0  0  0  0  0  0  0  0  0
  -45.9622  -29.6544    4.5654 C   0  0  0  0  0  0  0  0  0  0  0  0
  -48.6472  -29.4458    5.3382 C   0  0  0  0  0  0  0  0  0  0  0  0
  -48.3289  -29.7555    4.0241 C   0  0  0  0  0  0  0  0  0  0  0  0
  -43.7254  -29.5527    5.1049 C   0  0  0  0  0  0  0  0  0  0  0  0
  -42.8534  -31.4592    3.1988 C   0  0  0  0  0  0  0  0  0  0  0  0
  -44.8236  -29.1248    1.5885 C   0  0  0  0  0  0  0  0  0  0  0  0
  -45.2114  -30.0810    0.5045 C   0  0  0  0  0  0  0  0  0  0  0  0
  -43.9063  -30.2739    1.2409 C   0  0  0  0  0  0  0  0  0  0  0  0
  -41.9174  -30.3489    3.5815 C   0  0  0  0  0  0  0  0  0  0  0  0
  -45.3188  -29.1380    6.8093 N   0  0  0  0  0  0  0  0  0  0  0  0
  -43.9520  -33.3327    3.1067 N   0  0  0  0  0  0  0  0  0  0  0  0
  -44.6790  -29.7581    4.1778 N   0  0  0  0  0  0  0  0  0  0  0  0
  -42.9786  -32.6276    3.7871 N   0  0  0  0  0  0  0  0  0  0  0  0
  -43.7185  -31.3785    2.1498 N   0  0  0  0  0  0  0  0  0  0  0  0
  -42.3638  -29.6506    4.7460 N   0  0  0  0  0  0  0  0  0  0  0  0
  -50.2800  -29.3015    5.8846 Cl  0  0  0  0  0  0  0  0  0  0  0  0
  -49.5353  -30.0233    2.8169 Cl  0  0  0  0  0  0  0  0  0  0  0  0
  -47.8730  -28.9977    7.2965 H   0  0  0  0  0  0  0  0  0  0  0  0
  -46.7353  -30.1005    2.6174 H   0  0  0  0  0  0  0  0  0  0  0  0
  -43.2914  -29.0777    7.1653 H   0  0  0  0  0  0  0  0  0  0  0  0
  -45.1457  -32.8156    1.4053 H   0  0  0  0  0  0  0  0  0  0  0  0
  -44.5153  -28.1286    1.2953 H   0  0  0  0  0  0  0  0  0  0  0  0
  -45.3779  -29.1668    2.5181 H   0  0  0  0  0  0  0  0  0  0  0  0
  -46.0231  -30.7696    0.7052 H   0  0  0  0  0  0  0  0  0  0  0  0
  -45.1651  -29.7295   -0.5191 H   0  0  0  0  0  0  0  0  0  0  0  0
  -42.9994  -30.0295    0.6991 H   0  0  0  0  0  0  0  0  0  0  0  0
  -40.9160  -30.7419    3.7866 H   0  0  0  0  0  0  0  0  0  0  0  0
  -41.8207  -29.6196    2.7705 H   0  0  0  0  0  0  0  0  0  0  0  0
  -41.7031  -29.2027    5.3514 H   0  0  0  0  0  0  0  0  0  0  0  0
  1  5  1  0  0  0  0
  1  7  2  0  0  0  0
  2  6  1  0  0  0  0
  2  8  2  0  0  0  0
  3  9  2  0  0  0  0
  3 15  1  0  0  0  0
  4 16  2  0  0  0  0
  4 19  1  0  0  0  0
  5  6  1  0  0  0  0
  5 15  2  0  0  0  0
  6 17  2  0  0  0  0
  7  8  1  0  0  0  0
  7 21  1  0  0  0  0
  8 22  1  0  0  0  0
  9 17  1  0  0  0  0
  9 20  1  0  0  0  0
 10 14  1  0  0  0  0
 10 18  2  0  0  0  0
 10 19  1  0  0  0  0
 11 12  1  0  0  0  0
 11 13  1  0  0  0  0
 12 13  1  0  0  0  0
 13 19  1  0  0  0  0
 14 20  1  0  0  0  0
 16 18  1  0  0  0  0
  1 23  1  0  0  0  0
  2 24  1  0  0  0  0
  3 25  1  0  0  0  0
  4 26  1  0  0  0  0
 11 27  1  0  0  0  0
 11 28  1  0  0  0  0
 12 29  1  0  0  0  0
 12 30  1  0  0  0  0
 13 31  1  0  0  0  0
 14 32  1  0  0  0  0
 14 33  1  0  0  0  0
 20 34  1  0  0  0  0
M  END
> <POSIT::Probability>
0.42

> <POSIT::Method>
HYBRID

> <ReceptorTitle>
UCSF-P4452-REFINED_LIGAND-BOUND-STATE_A__DU__LA1_A-201(A)

> <OMEGA_C>
mYE+wuDs6cEgb8hALvY7wrLc7sGAfWlAACswwu746cF/3cxA7ocxwrFEAsKURAhAHiU5wrG46sE1
vLxAS9k3wkM87cEAGJJAwZZCwvqQ68Gd0qpA0lBBwjYL7sE6xYBA3OYuwttr7MF2W6NA6Gkrwnes
+8FjuExAZkszwpT/6MFYU8s/dtg0wual8MGUKQE/FaAvwvEw8sFC1J4/Y6snwprK8sFTN2VAdkY1
wpIa6cH65dlAzM4vwqtUBcL500ZASrcywowQ7sHesIVAHeorwqqCAsKfYHJAyt8uwjoH+8EBlglA
fnQpwoQ07cE035dArh5Jwnlp6sEKT7xAHCRGwrAv8MF7RzRA630/wjD758HCfOlA9PA6wuvN8MEn
gydAWyotwhqf6MHBSeVAOpU0wipDA8KS37M/sg8ywlcH4cHtzaU/74I1wo1V6cFQKCFAqRc4wgwo
9sFGhjQ/Eqk0wg3W7cEg5QS/Zf8rwmE88MHe+TI/Bqojwl7v9cHtV3JAcEgnwvD07MGETzFA9c8m
wiif6cHQPqtA

> <OMEGA_E>
7MsDwQ==

> <OMEGA_NBR>
     14309

$$$$
CACHE3HI_1708_85
  -OEChem-03092622523D

 36 38  0     1  0  0  0  0  0999 V2000
  -47.8108  -29.5138    4.6897 C   0  0  0  0  0  0  0  0  0  0  0  0
  -44.0077  -29.3044    6.3778 C   0  0  0  0  0  0  0  0  0  0  0  0
  -46.3740  -29.4799    5.0400 C   0  0  0  0  0  0  0  0  0  0  0  0
  -46.3291  -29.3817    6.4368 C   0  0  0  0  0  0  0  0  0  0  0  0
  -45.1398  -29.5021    4.3226 C   0  0  0  0  0  0  0  0  0  0  0  0
  -48.5228  -29.5254    5.8600 C   0  0  0  0  0  0  0  0  0  0  0  0
  -43.8782  -28.9036    0.8091 C   0  0  0  0  0  0  0  0  0  0  0  0
  -44.9351  -29.6558   -0.0458 C   0  0  0  0  0  0  0  0  0  0  0  0
  -43.7081  -29.4660    2.2311 C   0  0  0  0  0  0  0  0  0  0  0  0
  -46.2400  -29.9037    2.0819 C   0  0  0  0  0  0  0  0  0  0  0  0
  -45.8561  -30.5960    0.7739 C   0  0  2  0  0  0  0  0  0  0  0  0
  -45.1925  -32.0135    0.9423 C   0  0  0  0  0  0  0  0  0  0  0  0
  -45.3541  -32.7544    2.3011 C   0  0  0  0  0  0  0  0  0  0  0  0
  -45.1568  -29.2842    7.0887 N   0  0  0  0  0  0  0  0  0  0  0  0
  -43.9831  -29.4240    5.0295 N   0  0  0  0  0  0  0  0  0  0  0  0
  -47.6288  -29.4171    6.9139 N   0  0  0  0  0  0  0  0  0  0  0  0
  -45.0467  -29.5946    2.9162 N   0  0  3  0  0  0  0  0  0  0  0  0
  -44.2768  -32.4494    3.1873 O   0  0  0  0  0  0  0  0  0  0  0  0
  -50.2592  -29.6116    5.9975 Cl  0  0  0  0  0  0  0  0  0  0  0  0
  -48.2238  -29.5271    3.6919 H   0  0  0  0  0  0  0  0  0  0  0  0
  -43.0701  -29.2216    6.9073 H   0  0  0  0  0  0  0  0  0  0  0  0
  -42.9083  -28.9666    0.2939 H   0  0  0  0  0  0  0  0  0  0  0  0
  -44.1836  -27.8498    0.8882 H   0  0  0  0  0  0  0  0  0  0  0  0
  -45.5652  -28.9095   -0.5520 H   0  0  0  0  0  0  0  0  0  0  0  0
  -44.4058  -30.2594   -0.7977 H   0  0  0  0  0  0  0  0  0  0  0  0
  -43.2350  -30.4574    2.1733 H   0  0  0  0  0  0  0  0  0  0  0  0
  -43.0676  -28.7876    2.8138 H   0  0  0  0  0  0  0  0  0  0  0  0
  -46.7630  -28.9649    1.8475 H   0  0  0  0  0  0  0  0  0  0  0  0
  -46.9103  -30.5647    2.6509 H   0  0  0  0  0  0  0  0  0  0  0  0
  -46.7783  -30.7393    0.1916 H   0  0  0  0  0  0  0  0  0  0  0  0
  -45.6180  -32.6652    0.1649 H   0  0  0  0  0  0  0  0  0  0  0  0
  -44.1137  -31.8895    0.7668 H   0  0  0  0  0  0  0  0  0  0  0  0
  -46.3010  -32.4454    2.7679 H   0  0  0  0  0  0  0  0  0  0  0  0
  -45.3722  -33.8390    2.1184 H   0  0  0  0  0  0  0  0  0  0  0  0
  -47.8854  -29.3712    7.8794 H   0  0  0  0  0  0  0  0  0  0  0  0
  -44.3995  -32.9133    4.0072 H   0  0  0  0  0  0  0  0  0  0  0  0
  1  3  1  0  0  0  0
  1  6  2  0  0  0  0
  2 14  1  0  0  0  0
  2 15  2  0  0  0  0
  3  4  1  0  0  0  0
  3  5  2  0  0  0  0
  4 14  2  0  0  0  0
  4 16  1  0  0  0  0
  5 15  1  0  0  0  0
  5 17  1  0  0  0  0
  6 16  1  0  0  0  0
  6 19  1  0  0  0  0
  7  8  1  0  0  0  0
  7  9  1  0  0  0  0
  8 11  1  0  0  0  0
  9 17  1  0  0  0  0
 10 11  1  0  0  0  0
 10 17  1  0  0  0  0
 11 12  1  0  0  0  0
 12 13  1  0  0  0  0
 13 18  1  0  0  0  0
  1 20  1  0  0  0  0
  2 21  1  0  0  0  0
  7 22  1  0  0  0  0
  7 23  1  0  0  0  0
  8 24  1  0  0  0  0
  8 25  1  0  0  0  0
  9 26  1  0  0  0  0
  9 27  1  0  0  0  0
 10 28  1  0  0  0  0
 10 29  1  0  0  0  0
 11 30  1  0  0  0  0
 12 31  1  0  0  0  0
 12 32  1  0  0  0  0
 13 33  1  0  0  0  0
 13 34  1  0  0  0  0
 16 35  1  0  0  0  0
 18 36  1  0  0  0  0
M  END
> <POSIT::Probability>
0.79

> <POSIT::Method>
SHAPEFIT

> <ReceptorTitle>
UCSF-P4452-REFINED_LIGAND-BOUND-STATE_A__DU__LA1_A-201(A)

> <OMEGA_C>
RD4/wkwc7MFBEpZA6gcwwllv6sFVF8xA8345wr3W68GRR6FA+1A5wqAN68FM+s1AM480wmME7MHP
UopATBdCwhE07MGHhbtAPYMvwpU658F4IE8/kr0zwgE/7cFgmTu9DNUuwm6668EDyg5AuPU4wsM6
78GkPgVAnWw3wpDE9MHsHEY/KsU0wtANAMKkOnE/nGo1wosEA8KHRRNAnKA0wiJG6sF/1uJAqu4v
wllk68F38aBA6oM+wkJW68G5Pt1Axy80wqzB7MFCojpAahsxwjfMAcIK/EtAaglJwnvk7MG2679A
LOVAwm437MEbSGxAw0csws/F6cHtCN1AGKIrwoK758GhfZY+B7wwwnTM3sGlX2M/uUI2wr9G58Fr
Tg2/h58xwkQT8sHlOEy/q/Aswtuo88HcFwtAO0UswvVM5sHTFDRAWw07wgu458Fxeew/JaQ7wniE
9MHYqClA8xw7whfq9cG3PUQ+2ng2wiOpAsKz5yg+eHQwwr8d/8FvSkQ/OzQ5whDIAcL7JDFAKn01
wiNbB8KskwdAm4o/wkD46sGkI/xAGZkxwkGnA8KXOoBA

> <OMEGA_E>
/B4APw==

> <OMEGA_NBR>
     15556

$$$$
CACHE3HI_1712_60
  -OEChem-03092622523D

 45 47  0     1  0  0  0  0  0999 V2000
  -48.3988  -30.7693    1.5721 C   0  0  0  0  0  0  0  0  0  0  0  0
  -48.6753  -29.4613    1.9377 C   0  0  0  0  0  0  0  0  0  0  0  0
  -46.0984  -30.1137    1.3208 C   0  0  0  0  0  0  0  0  0  0  0  0
  -47.0833  -31.0932    1.2594 C   0  0  0  0  0  0  0  0  0  0  0  0
  -46.4773  -28.8353    1.6974 C   0  0  0  0  0  0  0  0  0  0  0  0
  -46.2125  -22.2833   -2.5902 C   0  0  0  0  0  0  0  0  0  0  0  0
  -47.8955  -24.1028   -1.3209 C   0  0  0  0  0  0  0  0  0  0  0  0
  -48.4249  -22.8856   -1.5073 C   0  0  0  0  0  0  0  0  0  0  0  0
  -45.7964  -23.5422   -2.3454 C   0  0  0  0  0  0  0  0  0  0  0  0
  -47.5795  -21.8648   -2.1797 C   0  0  0  0  0  0  0  0  0  0  0  0
  -46.1806  -26.0942    0.0459 C   0  0  0  0  0  0  0  0  0  0  0  0
  -43.3652  -28.4236    0.7376 C   0  0  0  0  0  0  0  0  0  0  0  0
  -44.0357  -28.2831    2.1008 C   0  0  0  0  0  0  0  0  0  0  0  0
  -43.9308  -27.2590   -0.0586 C   0  0  0  0  0  0  0  0  0  0  0  0
  -45.4317  -27.7372    1.7762 C   0  0  1  0  0  0  0  0  0  0  0  0
  -44.4090  -23.9460   -2.7723 C   0  0  0  0  0  0  0  0  0  0  0  0
  -50.6377  -22.8267   -2.1307 C   0  0  0  0  0  0  0  0  0  0  0  0
  -46.1583  -25.8561   -1.4427 C   0  0  0  0  0  0  0  0  0  0  0  0
  -47.7448  -28.4830    2.0085 N   0  0  0  0  0  0  0  0  0  0  0  0
  -46.6076  -24.5191   -1.7002 N   0  0  0  0  0  0  0  0  0  0  0  0
  -45.2463  -27.0031    0.5203 N   0  0  0  0  0  0  0  0  0  0  0  0
  -47.9837  -20.7267   -2.3897 O   0  0  0  0  0  0  0  0  0  0  0  0
  -46.9968  -25.5069    0.7581 O   0  0  0  0  0  0  0  0  0  0  0  0
  -49.6974  -22.5616   -1.1046 O   0  0  0  0  0  0  0  0  0  0  0  0
  -44.8216  -30.3935    1.0254 F   0  0  0  0  0  0  0  0  0  0  0  0
  -46.6825  -32.7018    0.7992 Cl  0  0  0  0  0  0  0  0  0  0  0  0
  -49.1939  -31.5064    1.5348 H   0  0  0  0  0  0  0  0  0  0  0  0
  -49.6857  -29.1568    2.1904 H   0  0  0  0  0  0  0  0  0  0  0  0
  -45.5903  -21.5446   -3.0824 H   0  0  0  0  0  0  0  0  0  0  0  0
  -48.4697  -24.8846   -0.8349 H   0  0  0  0  0  0  0  0  0  0  0  0
  -42.2743  -28.3920    0.8074 H   0  0  0  0  0  0  0  0  0  0  0  0
  -43.6534  -29.3739    0.2731 H   0  0  0  0  0  0  0  0  0  0  0  0
  -44.0426  -29.2282    2.6530 H   0  0  0  0  0  0  0  0  0  0  0  0
  -43.4850  -27.5435    2.6955 H   0  0  0  0  0  0  0  0  0  0  0  0
  -43.3248  -26.3562    0.0754 H   0  0  0  0  0  0  0  0  0  0  0  0
  -44.0098  -27.4780   -1.1271 H   0  0  0  0  0  0  0  0  0  0  0  0
  -45.7679  -27.0207    2.5684 H   0  0  0  0  0  0  0  0  0  0  0  0
  -43.7145  -23.7432   -1.9632 H   0  0  0  0  0  0  0  0  0  0  0  0
  -44.1266  -23.3777   -3.6530 H   0  0  0  0  0  0  0  0  0  0  0  0
  -44.4033  -25.0057   -3.0080 H   0  0  0  0  0  0  0  0  0  0  0  0
  -51.6402  -22.5608   -1.7855 H   0  0  0  0  0  0  0  0  0  0  0  0
  -50.3856  -22.2261   -3.0080 H   0  0  0  0  0  0  0  0  0  0  0  0
  -50.6010  -23.8861   -2.3948 H   0  0  0  0  0  0  0  0  0  0  0  0
  -45.1430  -25.9992   -1.8023 H   0  0  0  0  0  0  0  0  0  0  0  0
  -46.8146  -26.5746   -1.9259 H   0  0  0  0  0  0  0  0  0  0  0  0
  1  2  2  0  0  0  0
  1  4  1  0  0  0  0
  2 19  1  0  0  0  0
  3  4  2  0  0  0  0
  3  5  1  0  0  0  0
  3 25  1  0  0  0  0
  4 26  1  0  0  0  0
  5 15  1  0  0  0  0
  5 19  2  0  0  0  0
  6  9  2  0  0  0  0
  6 10  1  0  0  0  0
  7  8  2  0  0  0  0
  7 20  1  0  0  0  0
  8 10  1  0  0  0  0
  8 24  1  0  0  0  0
  9 16  1  0  0  0  0
  9 20  1  0  0  0  0
 10 22  2  0  0  0  0
 11 18  1  0  0  0  0
 11 21  1  0  0  0  0
 11 23  2  0  0  0  0
 12 13  1  0  0  0  0
 12 14  1  0  0  0  0
 13 15  1  0  0  0  0
 14 21  1  0  0  0  0
 15 21  1  0  0  0  0
 17 24  1  0  0  0  0
 18 20  1  0  0  0  0
  1 27  1  0  0  0  0
  2 28  1  0  0  0  0
  6 29  1  0  0  0  0
  7 30  1  0  0  0  0
 12 31  1  0  0  0  0
 12 32  1  0  0  0  0
 13 33  1  0  0  0  0
 13 34  1  0  0  0  0
 14 35  1  0  0  0  0
 14 36  1  0  0  0  0
 15 37  1  0  0  0  0
 16 38  1  0  0  0  0
 16 39  1  0  0  0  0
 16 40  1  0  0  0  0
 17 41  1  0  0  0  0
 17 42  1  0  0  0  0
 17 43  1  0  0  0  0
 18 44  1  0  0  0  0
 18 45  1  0  0  0  0
M  END
> <POSIT::Probability>
0.02

> <POSIT::Method>
FRED

> <ReceptorTitle>
UCSF-P4452-REFINED_LIGAND-BOUND-STATE_A__DU__LA1_A-201(A)

> <OMEGA_C>
YJhBwpIn9sGgO8k/drNCwruw68FUB/g/umQ4wuro8MGOD6k/S1U8wsq++MHUNKE/y+g5wsKu5sEy
RNk/k9k4wjREssFexiXA+5Q/wm/SwMF8Eqm/ILNBwqQVt8Gs7cC/jC83wntWvMFeGhbAXVE+whjr
rsGffwvA6Lg4wu/A0MEAKDw983UtwoBj48EQ1Dw/jiQwwshD4sHQcgZAHrkvwmMS2sEALnC9E7o1
wsrl3cGUWeM/16IxwnKRv8GVbTHA/oxKwgWdtsFYXQjAIqI4wl3ZzsHcq7i/rvo+wh7d48HTigBA
KG46wjcnxMFEn9m/Nfw0wk8G2MGwLwU/Vu8/wmDQpcGi8BjAvPw7wjMOzMGYEEI/J8pGwh9+tMHc
ZI2/XUkzwsol88EcQIM/4Lo6wpjOAsLomUw/j8ZEwg0N/MHmcsQ/LL5GwjpB6cF6LwxAflw2wnBb
rMHQRkXA/uBBwrITx8EgulW/3Bgpwt4i48HosE4/DZ0uwrf96sEI2os+lyswwmjT6cG4yilAnvAt
wgNZ3MFEgixAm0wtwoDZ0sFAfJo9DwowwubS28EURJC/XxI3wlAq2MH+YCRAndsuwgXyvcH0Sfu/
qoEwwngFu8FpymnA/Jwxwp4LyMG6gkDAio9Owmt8tMFOi+S/1IpJwhnPscFkg0DAaGdKwqgWv8FC
RBnAZpI0wmb+z8ECs+a/HkI7wsuY1MEIg/a/

> <OMEGA_E>
Pv/mwA==

> <OMEGA_NBR>
     16950

$$$$
CACHE3HI_1715_7
  -OEChem-03092622523D

 40 43  0     0  0  0  0  0  0999 V2000
  -47.3804  -29.5628    3.0895 C   0  0  0  0  0  0  0  0  0  0  0  0
  -48.6568  -29.6833    3.6414 C   0  0  0  0  0  0  0  0  0  0  0  0
  -47.7020  -29.7734    5.8580 C   0  0  0  0  0  0  0  0  0  0  0  0
  -46.4256  -29.6521    5.3012 C   0  0  0  0  0  0  0  0  0  0  0  0
  -46.2494  -29.5455    3.9134 C   0  0  0  0  0  0  0  0  0  0  0  0
  -48.8169  -29.7886    5.0222 C   0  0  0  0  0  0  0  0  0  0  0  0
  -44.5699  -33.0359    2.0664 C   0  0  0  0  0  0  0  0  0  0  0  0
  -43.0159  -32.0106    3.2024 C   0  0  0  0  0  0  0  0  0  0  0  0
  -45.2280  -29.6331    6.1693 C   0  0  0  0  0  0  0  0  0  0  0  0
  -43.9509  -29.4096    4.1119 C   0  0  0  0  0  0  0  0  0  0  0  0
  -45.4978  -33.3869    0.9625 C   0  0  0  0  0  0  0  0  0  0  0  0
  -46.4227  -32.2315    0.5825 C   0  0  0  0  0  0  0  0  0  0  0  0
  -45.7425  -31.1316   -0.2372 C   0  0  0  0  0  0  0  0  0  0  0  0
  -44.6944  -30.3144    0.5217 C   0  0  0  0  0  0  0  0  0  0  0  0
  -43.4481  -31.1081    0.9034 C   0  0  0  0  0  0  0  0  0  0  0  0
  -42.5710  -29.2823    3.5729 C   0  0  0  0  0  0  0  0  0  0  0  0
  -44.4669  -33.6267    3.2409 N   0  0  0  0  0  0  0  0  0  0  0  0
  -43.4838  -32.9773    3.9581 N   0  0  0  0  0  0  0  0  0  0  0  0
  -44.9774  -29.4222    3.3225 N   0  0  0  0  0  0  0  0  0  0  0  0
  -43.6664  -32.0117    2.0088 N   0  0  0  0  0  0  0  0  0  0  0  0
  -44.0299  -29.5087    5.4855 N   0  0  0  0  0  0  0  0  0  0  0  0
  -45.3188  -29.7214    7.3881 O   0  0  0  0  0  0  0  0  0  0  0  0
  -41.7624  -30.9180    3.6686 S   0  0  0  0  0  0  0  0  0  0  0  0
  -50.3943  -29.9371    5.6949 Cl  0  0  0  0  0  0  0  0  0  0  0  0
  -47.2733  -29.4817    2.0105 H   0  0  0  0  0  0  0  0  0  0  0  0
  -49.5193  -29.6938    2.9796 H   0  0  0  0  0  0  0  0  0  0  0  0
  -47.8301  -29.8560    6.9344 H   0  0  0  0  0  0  0  0  0  0  0  0
  -44.8999  -33.6566    0.0834 H   0  0  0  0  0  0  0  0  0  0  0  0
  -46.0798  -34.2764    1.2293 H   0  0  0  0  0  0  0  0  0  0  0  0
  -47.3054  -32.6033    0.0465 H   0  0  0  0  0  0  0  0  0  0  0  0
  -46.7899  -31.7736    1.5098 H   0  0  0  0  0  0  0  0  0  0  0  0
  -45.2438  -31.6080   -1.0904 H   0  0  0  0  0  0  0  0  0  0  0  0
  -46.5013  -30.4610   -0.6588 H   0  0  0  0  0  0  0  0  0  0  0  0
  -44.4203  -29.4266   -0.0617 H   0  0  0  0  0  0  0  0  0  0  0  0
  -45.1628  -29.9528    1.4457 H   0  0  0  0  0  0  0  0  0  0  0  0
  -43.1092  -31.6689    0.0292 H   0  0  0  0  0  0  0  0  0  0  0  0
  -42.6267  -30.4405    1.1894 H   0  0  0  0  0  0  0  0  0  0  0  0
  -42.0145  -28.5553    4.1683 H   0  0  0  0  0  0  0  0  0  0  0  0
  -42.6192  -28.9527    2.5328 H   0  0  0  0  0  0  0  0  0  0  0  0
  -43.1735  -29.4902    6.0323 H   0  0  0  0  0  0  0  0  0  0  0  0
  1  2  1  0  0  0  0
  1  5  2  0  0  0  0
  2  6  2  0  0  0  0
  3  4  2  0  0  0  0
  3  6  1  0  0  0  0
  4  5  1  0  0  0  0
  4  9  1  0  0  0  0
  5 19  1  0  0  0  0
  6 24  1  0  0  0  0
  7 11  1  0  0  0  0
  7 17  2  0  0  0  0
  7 20  1  0  0  0  0
  8 18  2  0  0  0  0
  8 20  1  0  0  0  0
  8 23  1  0  0  0  0
  9 21  1  0  0  0  0
  9 22  2  0  0  0  0
 10 16  1  0  0  0  0
 10 19  2  0  0  0  0
 10 21  1  0  0  0  0
 11 12  1  0  0  0  0
 12 13  1  0  0  0  0
 13 14  1  0  0  0  0
 14 15  1  0  0  0  0
 15 20  1  0  0  0  0
 16 23  1  0  0  0  0
 17 18  1  0  0  0  0
  1 25  1  0  0  0  0
  2 26  1  0  0  0  0
  3 27  1  0  0  0  0
 11 28  1  0  0  0  0
 11 29  1  0  0  0  0
 12 30  1  0  0  0  0
 12 31  1  0  0  0  0
 13 32  1  0  0  0  0
 13 33  1  0  0  0  0
 14 34  1  0  0  0  0
 14 35  1  0  0  0  0
 15 36  1  0  0  0  0
 15 37  1  0  0  0  0
 16 38  1  0  0  0  0
 16 39  1  0  0  0  0
 21 40  1  0  0  0  0
M  END
> <POSIT::Probability>
0.19

> <POSIT::Method>
FRED

> <ReceptorTitle>
UCSF-P4452-REFINED_LIGAND-BOUND-STATE_A__DU__LA1_A-201(A)

> <OMEGA_C>
foU9woaA7MGYuUVAkKBCwm137cEBDWlA4M4+wgUw7sHKdLtAx7M5woo37cEgo6lAWf84wjtd7MFQ
dXpAe0RDwgVP7sHktaBAikcyws8kBMJwQARAVBAswt0KAMJm9ExAfuk0woQQ7cHwasVAws0vwtBG
68GZlINAvv01wiyMBcJyZHY/4LA5wg/tAMKqHhU/V/g2wm8N+cH28HK+HMcywt+D8sHeiwU/3cot
wmXd+ME2Q2c/sEgqwipC6sHIqWRAEN4xwrKBBsKgak9AXu8twrnoA8LBUX1A2+gzwqhg68Hto1RA
Z6ouwvILAMLUjwBAkx4wwsoR7MEHia9AeEY1woXF7cGYa+xArAwnwhBY98EFympAxZNJwil/78Gu
PLZA5Rc9woza68FOqwBAzxNGwt6M7cFosj5AAlI/wgLZ7sGl5t1AiZkzwk+gBsJUy6o9wVE4wgwb
CcJNWJ0/rjg9wsBpAsIojD490Sg7wmUw/sFbQcE/q/k0wjTd/MHLkou/UgE6wiKw88FOpCi/Wq4x
wphp68HYwny9rqY0wmif78EjDrk/0G8swvBZ/cFQa+88xYEqwg2G88G/PJg/0g4owlJx5MH/YoVA
CHoqwiuf58GxGCJAqbEswvTr68FPCMFA

> <OMEGA_E>
WlIRwQ==

> <OMEGA_NBR>
     18244

$$$$
CACHE3HI_1716_49
  -OEChem-03092622523D

 32 34  0     1  0  0  0  0  0999 V2000
  -43.4185  -29.5529    5.4753 C   0  0  0  0  0  0  0  0  0  0  0  0
  -43.2230  -29.8443    4.1064 C   0  0  0  0  0  0  0  0  0  0  0  0
  -45.6392  -30.2548    3.5820 C   0  0  0  0  0  0  0  0  0  0  0  0
  -45.7982  -29.9643    4.9306 C   0  0  0  0  0  0  0  0  0  0  0  0
  -44.7649  -29.6224    5.8785 C   0  0  0  0  0  0  0  0  0  0  0  0
  -44.2841  -30.1784    3.2069 C   0  0  0  0  0  0  0  0  0  0  0  0
  -46.9836  -29.9507    5.6082 C   0  0  0  0  0  0  0  0  0  0  0  0
  -47.4024  -27.9632   -0.1362 C   0  0  0  0  0  0  0  0  0  0  0  0
  -47.9387  -28.8982    3.1478 C   0  0  0  0  0  0  0  0  0  0  0  0
  -47.9832  -29.3016   -0.4813 C   0  0  0  0  0  0  0  0  0  0  0  0
  -48.1910  -29.9216    0.8791 C   0  0  0  0  0  0  0  0  0  0  0  0
  -48.4373  -28.7183    1.7529 C   0  0  2  0  0  0  0  0  0  0  0  0
  -48.3789  -30.2091    5.2149 C   0  0  0  0  0  0  0  0  0  0  0  0
  -45.3254  -29.4126    7.0832 N   0  0  0  0  0  0  0  0  0  0  0  0
  -46.6429  -29.6161    6.8867 N   0  0  0  0  0  0  0  0  0  0  0  0
  -48.6528  -29.8615    3.8364 N   0  0  0  0  0  0  0  0  0  0  0  0
  -46.8165  -27.2233   -0.9114 O   0  0  0  0  0  0  0  0  0  0  0  0
  -47.0092  -28.2311    3.5957 O   0  0  0  0  0  0  0  0  0  0  0  0
  -47.6578  -27.6705    1.1751 O   0  0  0  0  0  0  0  0  0  0  0  0
  -43.8774  -30.5086    1.5564 Cl  0  0  0  0  0  0  0  0  0  0  0  0
  -42.6026  -29.3024    6.1402 H   0  0  0  0  0  0  0  0  0  0  0  0
  -42.2014  -29.8090    3.7269 H   0  0  0  0  0  0  0  0  0  0  0  0
  -46.4392  -30.5040    2.8981 H   0  0  0  0  0  0  0  0  0  0  0  0
  -48.9255  -29.1935   -1.0217 H   0  0  0  0  0  0  0  0  0  0  0  0
  -47.2576  -29.8615   -1.0766 H   0  0  0  0  0  0  0  0  0  0  0  0
  -49.0933  -30.5397    0.8577 H   0  0  0  0  0  0  0  0  0  0  0  0
  -47.3550  -30.5460    1.1950 H   0  0  0  0  0  0  0  0  0  0  0  0
  -49.4835  -28.4294    1.7841 H   0  0  0  0  0  0  0  0  0  0  0  0
  -48.6531  -31.2738    5.3325 H   0  0  0  0  0  0  0  0  0  0  0  0
  -49.1025  -29.6425    5.8299 H   0  0  0  0  0  0  0  0  0  0  0  0
  -47.2605  -29.5082    7.6814 H   0  0  0  0  0  0  0  0  0  0  0  0
  -49.4243  -30.3346    3.3782 H   0  0  0  0  0  0  0  0  0  0  0  0
  1  2  2  0  0  0  0
  1  5  1  0  0  0  0
  2  6  1  0  0  0  0
  3  4  1  0  0  0  0
  3  6  2  0  0  0  0
  4  5  1  0  0  0  0
  4  7  2  0  0  0  0
  5 14  2  0  0  0  0
  6 20  1  0  0  0  0
  7 13  1  0  0  0  0
  7 15  1  0  0  0  0
  8 10  1  0  0  0  0
  8 17  2  0  0  0  0
  8 19  1  0  0  0  0
  9 12  1  0  0  0  0
  9 16  1  0  0  0  0
  9 18  2  0  0  0  0
 10 11  1  0  0  0  0
 11 12  1  0  0  0  0
 12 19  1  0  0  0  0
 13 16  1  0  0  0  0
 14 15  1  0  0  0  0
  1 21  1  0  0  0  0
  2 22  1  0  0  0  0
  3 23  1  0  0  0  0
 10 24  1  0  0  0  0
 10 25  1  0  0  0  0
 11 26  1  0  0  0  0
 11 27  1  0  0  0  0
 12 28  1  0  0  0  0
 13 29  1  0  0  0  0
 13 30  1  0  0  0  0
 15 31  1  0  0  0  0
 16 32  1  0  0  0  0
M  END
> <POSIT::Probability>
0.14

> <POSIT::Method>
HYBRID

> <ReceptorTitle>
UCSF-P4452-REFINED_LIGAND-BOUND-STATE_A__DU__LA1_A-201(A)

> <OMEGA_C>
h6wtwkxs7MF1Na9AZOQswgrB7sFwZ4NAh442wsAJ8sE0P2VAYjE3wvO278FWx51AOA8zwpb67MGL
HLxA4iIxwkRt8cEYPU1ANu87whKb78G3drNAApw9wrq038FAfwu+R8E/wngv58EWdUlA1e4/wr9p
6sFwcva+i8NAwmZf78GYDGE/079Bwhm/5cGUX+A/AoRBwiqs8cGG4KZAME01wvZM68FuqeJAS5I6
wtbt7MHuX9xAgpxCwlTk7sGYh3VAEkQ7wmbJ2cGIT2m/eAk8wljZ4cHcH2ZAmKE+wiRd3cEkaJY/
eYIvwrQR9MEAOcc/Fmkqwlpr6sGmfMRANM4owsh47sHohG5AxsE5wjQI9MGKejlAtrNDwj2M6cGa
xYK/xQc9wmLk7sGEz4m/gF9EwmNR9MGYj1s/iWs9wjBe9ME89Zg/Ie9Fwm5v48HMXeQ/vZxCwrIw
+sHqo6pAAGlEwtEj7cGXjrpAuAo9wsQQ7MEFzvVAerJFwi+t8sEwNVhA

> <OMEGA_E>
nVudwA==

> <OMEGA_NBR>
     19383

$$$$
CACHE3HI_1879_21
  -OEChem-03092622523D

 46 49  0     0  0  0  0  0  0999 V2000
  -45.0781  -29.9859    4.4053 C   0  0  0  0  0  0  0  0  0  0  0  0
  -44.3680  -29.7814    3.2230 C   0  0  0  0  0  0  0  0  0  0  0  0
  -46.3892  -29.0310    2.1293 C   0  0  0  0  0  0  0  0  0  0  0  0
  -43.4124  -24.9916   -0.9738 C   0  0  0  0  0  0  0  0  0  0  0  0
  -45.5715  -24.6315   -0.7686 C   0  0  0  0  0  0  0  0  0  0  0  0
  -44.5452  -25.3664   -0.2267 C   0  0  0  0  0  0  0  0  0  0  0  0
  -47.1003  -29.2482    3.3117 C   0  0  0  0  0  0  0  0  0  0  0  0
  -46.4487  -29.7279    4.4463 C   0  0  0  0  0  0  0  0  0  0  0  0
  -45.0229  -29.3053    2.0865 C   0  0  0  0  0  0  0  0  0  0  0  0
  -49.2165  -29.2156    4.4875 C   0  0  0  0  0  0  0  0  0  0  0  0
  -48.4883  -30.0326    5.5407 C   0  0  0  0  0  0  0  0  0  0  0  0
  -49.1631  -22.5044   -2.6408 C   0  0  0  0  0  0  0  0  0  0  0  0
  -48.1974  -23.6879   -2.4255 C   0  0  0  0  0  0  0  0  0  0  0  0
  -47.9271  -21.6515   -2.9934 C   0  0  0  0  0  0  0  0  0  0  0  0
  -47.0943  -22.6380   -2.1340 C   0  0  0  0  0  0  0  0  0  0  0  0
  -44.6181  -26.3481    0.9075 C   0  0  0  0  0  0  0  0  0  0  0  0
  -45.7008  -22.9616   -2.6324 C   0  0  0  0  0  0  0  0  0  0  0  0
  -43.6924  -24.0893   -1.9179 N   0  0  0  0  0  0  0  0  0  0  0  0
  -45.0130  -23.8904   -1.7681 N   0  0  0  0  0  0  0  0  0  0  0  0
  -48.4639  -28.9409    3.3696 N   0  0  0  0  0  0  0  0  0  0  0  0
  -43.6194  -27.4181    0.7738 N   0  0  0  0  0  0  0  0  0  0  0  0
  -50.3991  -28.9036    4.6099 O   0  0  0  0  0  0  0  0  0  0  0  0
  -45.0441  -29.1329   -0.5171 O   0  0  0  0  0  0  0  0  0  0  0  0
  -42.9515  -29.9013    0.6454 O   0  0  0  0  0  0  0  0  0  0  0  0
  -47.0832  -29.9013    5.6441 O   0  0  0  0  0  0  0  0  0  0  0  0
  -44.1266  -29.0416    0.6113 S   0  0  0  0  0  0  0  0  0  0  0  0
  -44.5579  -30.3451    5.2891 H   0  0  0  0  0  0  0  0  0  0  0  0
  -43.3016  -29.9894    3.1996 H   0  0  0  0  0  0  0  0  0  0  0  0
  -46.8965  -28.6490    1.2466 H   0  0  0  0  0  0  0  0  0  0  0  0
  -42.3933  -25.3376   -0.8719 H   0  0  0  0  0  0  0  0  0  0  0  0
  -46.6259  -24.5754   -0.5342 H   0  0  0  0  0  0  0  0  0  0  0  0
  -48.9070  -29.7583    6.5155 H   0  0  0  0  0  0  0  0  0  0  0  0
  -48.7271  -31.0891    5.3683 H   0  0  0  0  0  0  0  0  0  0  0  0
  -49.8991  -22.6288   -3.4388 H   0  0  0  0  0  0  0  0  0  0  0  0
  -49.6758  -22.1813   -1.7274 H   0  0  0  0  0  0  0  0  0  0  0  0
  -48.4463  -24.3566   -1.5975 H   0  0  0  0  0  0  0  0  0  0  0  0
  -48.0305  -24.2861   -3.3289 H   0  0  0  0  0  0  0  0  0  0  0  0
  -47.6811  -21.6580   -4.0618 H   0  0  0  0  0  0  0  0  0  0  0  0
  -47.9498  -20.6173   -2.6402 H   0  0  0  0  0  0  0  0  0  0  0  0
  -47.0748  -22.3453   -1.0741 H   0  0  0  0  0  0  0  0  0  0  0  0
  -44.4476  -25.8449    1.8650 H   0  0  0  0  0  0  0  0  0  0  0  0
  -45.6062  -26.8172    0.9580 H   0  0  0  0  0  0  0  0  0  0  0  0
  -45.0943  -22.0521   -2.7021 H   0  0  0  0  0  0  0  0  0  0  0  0
  -45.7426  -23.4010   -3.6358 H   0  0  0  0  0  0  0  0  0  0  0  0
  -48.8999  -28.4899    2.5707 H   0  0  0  0  0  0  0  0  0  0  0  0
  -42.6955  -27.2262    1.1799 H   0  0  0  0  0  0  0  0  0  0  0  0
  1  2  1  0  0  0  0
  1  8  2  0  0  0  0
  2  9  2  0  0  0  0
  3  7  2  0  0  0  0
  3  9  1  0  0  0  0
  4  6  1  0  0  0  0
  4 18  2  0  0  0  0
  5  6  2  0  0  0  0
  5 19  1  0  0  0  0
  6 16  1  0  0  0  0
  7  8  1  0  0  0  0
  7 20  1  0  0  0  0
  8 25  1  0  0  0  0
  9 26  1  0  0  0  0
 10 11  1  0  0  0  0
 10 20  1  0  0  0  0
 10 22  2  0  0  0  0
 11 25  1  0  0  0  0
 12 13  1  0  0  0  0
 12 14  1  0  0  0  0
 13 15  1  0  0  0  0
 14 15  1  0  0  0  0
 15 17  1  0  0  0  0
 16 21  1  0  0  0  0
 17 19  1  0  0  0  0
 18 19  1  0  0  0  0
 21 26  1  0  0  0  0
 23 26  2  0  0  0  0
 24 26  2  0  0  0  0
  1 27  1  0  0  0  0
  2 28  1  0  0  0  0
  3 29  1  0  0  0  0
  4 30  1  0  0  0  0
  5 31  1  0  0  0  0
 11 32  1  0  0  0  0
 11 33  1  0  0  0  0
 12 34  1  0  0  0  0
 12 35  1  0  0  0  0
 13 36  1  0  0  0  0
 13 37  1  0  0  0  0
 14 38  1  0  0  0  0
 14 39  1  0  0  0  0
 15 40  1  0  0  0  0
 16 41  1  0  0  0  0
 16 42  1  0  0  0  0
 17 43  1  0  0  0  0
 17 44  1  0  0  0  0
 20 45  1  0  0  0  0
 21 46  1  0  0  0  0
M  END
> <POSIT::Probability>
0.24

> <POSIT::Method>
FRED

> <ReceptorTitle>
UCSF-P4452-REFINED_LIGAND-BOUND-STATE_A__DU__LA1_A-201(A)

> <OMEGA_C>
/k80wgbj78E2+IxA33gxwmdA7sEYRU5Ak445wm4/6MHiRghARaYtwrnux8HgSnm/M0k2wk0NxcHI
wES/QS4ywnbuysHgKGi+sWY8wjv86cGM81NAdss5wtDS7cF5SI5Achc0wjxx6sHUiAVArd1EwoK5
6cE7mY9A/PNBwqxC8MHETbFABKdEwvkItMFYAinAKMpAwrmAvcHgOhvAU7U/wiw2rcEmkz/AhWA8
wq4atcH+kwjA6ngywvXI0sFwUGg/ms02wkixt8FueSjACsUuwuC2wMG8ffW/TA00wpgfv8E0UeK/
/NpBwt2G58ECp1dAO3ouwixY28FgFUY/rJhJwpA658GChJNAHC00wjYQ6cEgYwS/V84rws4178FY
NiU/L1U8wvQ178FPnLRAqYEwwkRV6ME4gBw/TDsywq3C8sGCQKlA0DQtwkzq78GwxUxABJY7wjgx
5cGQkZ8/upIpwk6zysHAM1+/44A6wlyaxMHAwQi/waBDwgMR7sHhftBAkehCwnK2+ME5yatAp5hH
ws0HtcE9FVzA/bNGwlNzscFEHN2/98hBwmvawsGgesy/Ph9AwuFJwsE7DVXAcbk+wopDrcES+oHA
jMw/wi3wpMEu+SjAmUw8whbDssFwe4m/S8oxwk7CzsFwt+4/y2w2woyJ1sEoP3U/kmA0wrBqsMFW
7yzAafg2wjo1u8EusGjAhplDwl7r48EohyRAKsgqwknP2cGgB5c/

> <OMEGA_E>
H+H1wA==

> <OMEGA_NBR>
     20795

$$$$
CACHE3-HO_1690_38
  -OEChem-03092622513D

 39 42  0     1  0  0  0  0  0999 V2000
  -49.7401  -28.9824    6.3913 C   0  0  0  0  0  0  0  0  0  0  0  0
  -50.5754  -29.0998    5.2602 C   0  0  0  0  0  0  0  0  0  0  0  0
  -48.6173  -29.3812    3.8000 C   0  0  0  0  0  0  0  0  0  0  0  0
  -43.8074  -29.2599    5.9688 C   0  0  0  0  0  0  0  0  0  0  0  0
  -47.8105  -29.2531    4.9465 C   0  0  0  0  0  0  0  0  0  0  0  0
  -46.3589  -29.2662    5.0957 C   0  0  0  0  0  0  0  0  0  0  0  0
  -48.3488  -29.0694    6.2250 C   0  0  0  0  0  0  0  0  0  0  0  0
  -50.0199  -29.3057    3.9732 C   0  0  0  0  0  0  0  0  0  0  0  0
  -46.0792  -29.1463    6.4569 C   0  0  0  0  0  0  0  0  0  0  0  0
  -45.3128  -29.3489    4.1594 C   0  0  0  0  0  0  0  0  0  0  0  0
  -42.9069  -31.7255    1.0838 C   0  0  0  0  0  0  0  0  0  0  0  0
  -43.8988  -32.4389    0.1441 C   0  0  0  0  0  0  0  0  0  0  0  0
  -44.7823  -32.3537    2.4193 C   0  0  0  0  0  0  0  0  0  0  0  0
  -43.7606  -31.2189    2.2423 C   0  0  2  0  0  0  0  0  0  0  0  0
  -45.1657  -32.7378    0.9886 C   0  0  1  0  0  0  0  0  0  0  0  0
  -44.4255  -29.8511    1.8689 C   0  0  0  0  0  0  0  0  0  0  0  0
  -44.8026  -29.1570    6.8844 N   0  0  0  0  0  0  0  0  0  0  0  0
  -44.0410  -29.3177    4.6325 N   0  0  0  0  0  0  0  0  0  0  0  0
  -47.2907  -29.0100    7.1305 N   0  0  0  0  0  0  0  0  0  0  0  0
  -45.5370  -29.5031    2.7940 N   0  0  0  0  0  0  0  0  0  0  0  0
  -46.2704  -31.9411    0.5476 O   0  0  0  0  0  0  0  0  0  0  0  0
  -51.1800  -29.4728    2.4724 Br  0  0  0  0  0  0  0  0  0  0  0  0
  -50.1653  -28.8277    7.3720 H   0  0  0  0  0  0  0  0  0  0  0  0
  -51.6470  -29.0321    5.3764 H   0  0  0  0  0  0  0  0  0  0  0  0
  -48.1816  -29.5317    2.8233 H   0  0  0  0  0  0  0  0  0  0  0  0
  -42.7859  -29.2974    6.3173 H   0  0  0  0  0  0  0  0  0  0  0  0
  -42.1418  -32.4285    1.4450 H   0  0  0  0  0  0  0  0  0  0  0  0
  -42.4187  -30.8863    0.5666 H   0  0  0  0  0  0  0  0  0  0  0  0
  -44.1529  -31.7880   -0.7055 H   0  0  0  0  0  0  0  0  0  0  0  0
  -43.4613  -33.3762   -0.2301 H   0  0  0  0  0  0  0  0  0  0  0  0
  -44.3302  -33.2077    2.9449 H   0  0  0  0  0  0  0  0  0  0  0  0
  -45.6623  -32.0031    2.9785 H   0  0  0  0  0  0  0  0  0  0  0  0
  -43.1513  -31.1060    3.1511 H   0  0  0  0  0  0  0  0  0  0  0  0
  -45.3997  -33.8114    0.9379 H   0  0  0  0  0  0  0  0  0  0  0  0
  -43.6625  -29.0602    1.9166 H   0  0  0  0  0  0  0  0  0  0  0  0
  -44.8224  -29.9165    0.8451 H   0  0  0  0  0  0  0  0  0  0  0  0
  -47.3872  -28.8875    8.1183 H   0  0  0  0  0  0  0  0  0  0  0  0
  -46.2227  -30.2246    2.6983 H   0  0  0  0  0  0  0  0  0  0  0  0
  -47.0347  -32.1385    1.0762 H   0  0  0  0  0  0  0  0  0  0  0  0
  1  2  1  0  0  0  0
  1  7  2  0  0  0  0
  2  8  2  0  0  0  0
  3  5  2  0  0  0  0
  3  8  1  0  0  0  0
  4 17  1  0  0  0  0
  4 18  2  0  0  0  0
  5  6  1  0  0  0  0
  5  7  1  0  0  0  0
  6  9  1  0  0  0  0
  6 10  2  0  0  0  0
  7 19  1  0  0  0  0
  8 22  1  0  0  0  0
  9 17  2  0  0  0  0
  9 19  1  0  0  0  0
 10 18  1  0  0  0  0
 10 20  1  0  0  0  0
 11 12  1  0  0  0  0
 11 14  1  0  0  0  0
 12 15  1  0  0  0  0
 13 14  1  0  0  0  0
 13 15  1  0  0  0  0
 14 16  1  0  0  0  0
 15 21  1  0  0  0  0
 16 20  1  0  0  0  0
  1 23  1  0  0  0  0
  2 24  1  0  0  0  0
  3 25  1  0  0  0  0
  4 26  1  0  0  0  0
 11 27  1  0  0  0  0
 11 28  1  0  0  0  0
 12 29  1  0  0  0  0
 12 30  1  0  0  0  0
 13 31  1  0  0  0  0
 13 32  1  0  0  0  0
 14 33  1  0  0  0  0
 15 34  1  0  0  0  0
 16 35  1  0  0  0  0
 16 36  1  0  0  0  0
 19 37  1  0  0  0  0
 20 38  1  0  0  0  0
 21 39  1  0  0  0  0
M  END
> <POSIT::Probability>
0.9

> <POSIT::Method>
SHAPEFIT

> <ReceptorTitle>
UCSF-P4463-REFINED_LIGAND-BOUND-STATE_A__DU__LA1_A-201(A)

> <OMEGA_C>
0vVGwvjb58HshcxAQU1KwlXM6MGOU6hAFHhCwrkM68EdM3NAxDovwkgU6sEyAL9A5z0/wmQG6sFU
SZ5AfG85whQh6sH2D6NAL2VBwiWO6MGQM8dAWBRIwhpy6sFNSX5AG1E4wosr6cHOns5AWUA1wo/K
6sGUGYVAoKArwuLN/cFGuYo/XJgvwmLBAcJAjBM+ICEzwjdqAcJp1RpA3AovwmXA+cHNgQ9Ar6k0
wnjzAsLUFH0/srMxwh3P7sHqOO8/4zUzwpVB6cEATdxA8SkwwqWK6sGSPZRAtik9wm8U6MEoLeRA
2yU2wlwG7MGd0DJA6RQ5wlCH/8EgMgw/VLhMwlPI68EhPB5ASalIwiaf5sEz5+tAkJZOwqxB6MGb
C6xA6blAwulA7MEisTRAuSQrwiph6sFlJ8pAOpEowtK2AcJ29rg/w6wpwjUX98F6DRE/kpwwwuFN
/sGunTS/U9gtwjSBBcIWlGu+J1IxwrHUBMKSeTxAM6Y2wikDAMLAnz5A65oswgbZ+MENrElARZk1
wt8+B8KxGnA/XaYuwld76MGvUvU/F0ozwghV78FnWFg/h4w9wqkZ58F+5AFBGOQ4wvrL8cEFsSxA
kSM8wtWNAMLnv4k/

> <OMEGA_E>
mNL/Pg==

> <OMEGA_NBR>
      1311

$$$$
CACHE3-HO_1690_43
  -OEChem-03092622513D

 38 40  0     1  0  0  0  0  0999 V2000
  -49.7429  -29.0714    6.3581 C   0  0  0  0  0  0  0  0  0  0  0  0
  -50.5790  -29.1747    5.2263 C   0  0  0  0  0  0  0  0  0  0  0  0
  -48.6190  -29.3587    3.7531 C   0  0  0  0  0  0  0  0  0  0  0  0
  -43.8045  -29.2766    5.9221 C   0  0  0  0  0  0  0  0  0  0  0  0
  -47.8105  -29.2507    4.9015 C   0  0  0  0  0  0  0  0  0  0  0  0
  -46.3567  -29.2687    5.0511 C   0  0  0  0  0  0  0  0  0  0  0  0
  -48.3499  -29.1108    6.1854 C   0  0  0  0  0  0  0  0  0  0  0  0
  -50.0229  -29.3191    3.9315 C   0  0  0  0  0  0  0  0  0  0  0  0
  -46.0770  -29.1430    6.4116 C   0  0  0  0  0  0  0  0  0  0  0  0
  -45.3115  -29.3942    4.1164 C   0  0  0  0  0  0  0  0  0  0  0  0
  -46.3435  -31.8566    0.5173 C   0  0  0  0  0  0  0  0  0  0  0  0
  -43.0892  -31.6302    0.6335 C   0  0  0  0  0  0  0  0  0  0  0  0
  -45.3556  -32.3044    1.6157 C   0  0  0  0  0  0  0  0  0  0  0  0
  -44.4721  -29.8672    1.7808 C   0  0  0  0  0  0  0  0  0  0  0  0
  -44.1037  -31.3841    1.7685 C   0  0  2  0  0  0  0  0  0  0  0  0
  -44.7994  -29.1496    6.8374 N   0  0  0  0  0  0  0  0  0  0  0  0
  -44.0384  -29.3836    4.5869 N   0  0  0  0  0  0  0  0  0  0  0  0
  -47.2906  -29.0373    7.0890 N   0  0  0  0  0  0  0  0  0  0  0  0
  -45.5509  -29.5367    2.7532 N   0  0  0  0  0  0  0  0  0  0  0  0
  -43.4484  -31.7508    2.9831 O   0  0  0  0  0  0  0  0  0  0  0  0
  -51.1859  -29.4622    2.4295 Br  0  0  0  0  0  0  0  0  0  0  0  0
  -50.1689  -28.9635    7.3447 H   0  0  0  0  0  0  0  0  0  0  0  0
  -51.6517  -29.1434    5.3481 H   0  0  0  0  0  0  0  0  0  0  0  0
  -48.1833  -29.4680    2.7709 H   0  0  0  0  0  0  0  0  0  0  0  0
  -42.7822  -29.2932    6.2700 H   0  0  0  0  0  0  0  0  0  0  0  0
  -47.1910  -32.5568    0.4781 H   0  0  0  0  0  0  0  0  0  0  0  0
  -46.7131  -30.8462    0.7464 H   0  0  0  0  0  0  0  0  0  0  0  0
  -45.8303  -31.8475   -0.4556 H   0  0  0  0  0  0  0  0  0  0  0  0
  -42.2203  -30.9692    0.7679 H   0  0  0  0  0  0  0  0  0  0  0  0
  -42.7590  -32.6792    0.6580 H   0  0  0  0  0  0  0  0  0  0  0  0
  -43.5647  -31.4180   -0.3355 H   0  0  0  0  0  0  0  0  0  0  0  0
  -45.8918  -32.3187    2.5760 H   0  0  0  0  0  0  0  0  0  0  0  0
  -45.0091  -33.3200    1.3740 H   0  0  0  0  0  0  0  0  0  0  0  0
  -43.5734  -29.2907    2.0454 H   0  0  0  0  0  0  0  0  0  0  0  0
  -44.8085  -29.5803    0.7736 H   0  0  0  0  0  0  0  0  0  0  0  0
  -47.3873  -28.9252    8.0779 H   0  0  0  0  0  0  0  0  0  0  0  0
  -46.2349  -30.2609    2.6657 H   0  0  0  0  0  0  0  0  0  0  0  0
  -44.0384  -31.6154    3.7152 H   0  0  0  0  0  0  0  0  0  0  0  0
  1  2  2  0  0  0  0
  1  7  1  0  0  0  0
  2  8  1  0  0  0  0
  3  5  1  0  0  0  0
  3  8  2  0  0  0  0
  4 16  2  0  0  0  0
  4 17  1  0  0  0  0
  5  6  1  0  0  0  0
  5  7  2  0  0  0  0
  6  9  2  0  0  0  0
  6 10  1  0  0  0  0
  7 18  1  0  0  0  0
  8 21  1  0  0  0  0
  9 16  1  0  0  0  0
  9 18  1  0  0  0  0
 10 17  2  0  0  0  0
 10 19  1  0  0  0  0
 11 13  1  0  0  0  0
 12 15  1  0  0  0  0
 13 15  1  0  0  0  0
 14 15  1  0  0  0  0
 14 19  1  0  0  0  0
 15 20  1  0  0  0  0
  1 22  1  0  0  0  0
  2 23  1  0  0  0  0
  3 24  1  0  0  0  0
  4 25  1  0  0  0  0
 11 26  1  0  0  0  0
 11 27  1  0  0  0  0
 11 28  1  0  0  0  0
 12 29  1  0  0  0  0
 12 30  1  0  0  0  0
 12 31  1  0  0  0  0
 13 32  1  0  0  0  0
 13 33  1  0  0  0  0
 14 34  1  0  0  0  0
 14 35  1  0  0  0  0
 18 36  1  0  0  0  0
 19 37  1  0  0  0  0
 20 38  1  0  0  0  0
M  END
> <POSIT::Probability>
0.79

> <POSIT::Method>
SHAPEFIT

> <ReceptorTitle>
UCSF-P4463-REFINED_LIGAND-BOUND-STATE_A__DU__LA1_A-201(A)

> <OMEGA_C>
wfhGwkqS6MHudctA8FBKwsll6cGmPadA6HlCwrbe6sFbMnBA1Dcvwmo26sH2gb1A6j0/wnQB6sF+
2ZxAO205wkcm6sE2oqFAQGZBwtXi6MEg78VAgBdIwnWN6sFhnXtAzU44wsUk6cEILM1ABj81wlMn
68EquYNAu185wmLa/sFkbQQ/Vlsswq4K/cG4KiI/J2w1wqk3AcIizs4/cOMxwhfw7sHA8eM/MGow
wrgS+8HWX+I/mzIzwnky6cHKy9pARycwwrQR68GWx5JAhyk9wlBM6MHQ2OJAJDQ2wiJL7MHDMzBA
IcstwrEB/sF96z5AWb5MwrCy68GZfBtA7axIwkm158HsB+tAVZtOwrkl6cGHI6tArrtAwnm+68E3
VzFA/yArwoNY6sH0o8hAksM8wiU6AsJPyfQ+Lto6whfF9sF2Fj8/QFI3wp3H/sEOSOm+k+EowvLA
98FelUQ/OwkrwoG3AsKhcig/P0IuwipY+8FFxqu+NJE3wmNGAcKx3SRARQk0wqdHBcIk3q8/NEsu
wk1T6sEm5wJA4Tszwomk7MFuCEY/lIw9wrpm58FCPwFBkPA4wlAW8sEMmipAWycwwkfs/MFAxm1A

> <OMEGA_E>
9G0WPw==

> <OMEGA_NBR>
      2596

$$$$
CACHE3-HO_1690_44
  -OEChem-03092622513D

 33 35  0     1  0  0  0  0  0999 V2000
  -48.6375  -29.4465    3.8442 C   0  0  0  0  0  0  0  0  0  0  0  0
  -50.0366  -29.4449    4.0562 C   0  0  0  0  0  0  0  0  0  0  0  0
  -49.7017  -29.1258    6.4692 C   0  0  0  0  0  0  0  0  0  0  0  0
  -43.7761  -29.2698    5.8910 C   0  0  0  0  0  0  0  0  0  0  0  0
  -47.8042  -29.2828    4.9676 C   0  0  0  0  0  0  0  0  0  0  0  0
  -46.3477  -29.2740    5.0801 C   0  0  0  0  0  0  0  0  0  0  0  0
  -48.3138  -29.1338    6.2622 C   0  0  0  0  0  0  0  0  0  0  0  0
  -50.5647  -29.2814    5.3633 C   0  0  0  0  0  0  0  0  0  0  0  0
  -46.0367  -29.1406    6.4335 C   0  0  0  0  0  0  0  0  0  0  0  0
  -45.3238  -29.3737    4.1180 C   0  0  0  0  0  0  0  0  0  0  0  0
  -44.5168  -29.7145    1.7553 C   0  0  0  0  0  0  0  0  0  0  0  0
  -45.3215  -32.0578    1.3053 C   0  0  0  0  0  0  0  0  0  0  0  0
  -44.1301  -31.2051    1.7872 C   0  0  1  0  0  0  0  0  0  0  0  0
  -44.7495  -29.1349    6.8284 N   0  0  0  0  0  0  0  0  0  0  0  0
  -44.0399  -29.3771    4.5607 N   0  0  0  0  0  0  0  0  0  0  0  0
  -47.2344  -29.0310    7.1383 N   0  0  0  0  0  0  0  0  0  0  0  0
  -45.5877  -29.4350    2.7509 N   0  0  0  0  0  0  0  0  0  0  0  0
  -45.0839  -33.4290    1.5924 O   0  0  0  0  0  0  0  0  0  0  0  0
  -42.9987  -31.4180    0.9427 O   0  0  0  0  0  0  0  0  0  0  0  0
  -52.4506  -29.2843    5.6472 Br  0  0  0  0  0  0  0  0  0  0  0  0
  -48.2229  -29.5690    2.8546 H   0  0  0  0  0  0  0  0  0  0  0  0
  -50.7065  -29.5687    3.2182 H   0  0  0  0  0  0  0  0  0  0  0  0
  -50.1048  -29.0021    7.4635 H   0  0  0  0  0  0  0  0  0  0  0  0
  -42.7465  -29.2929    6.2162 H   0  0  0  0  0  0  0  0  0  0  0  0
  -43.6323  -29.1054    1.9937 H   0  0  0  0  0  0  0  0  0  0  0  0
  -44.8801  -29.4556    0.7499 H   0  0  0  0  0  0  0  0  0  0  0  0
  -46.2362  -31.7305    1.8212 H   0  0  0  0  0  0  0  0  0  0  0  0
  -45.4465  -31.9290    0.2200 H   0  0  0  0  0  0  0  0  0  0  0  0
  -43.8909  -31.4863    2.8234 H   0  0  0  0  0  0  0  0  0  0  0  0
  -47.3084  -28.8981    8.1267 H   0  0  0  0  0  0  0  0  0  0  0  0
  -46.2765  -30.1499    2.6300 H   0  0  0  0  0  0  0  0  0  0  0  0
  -45.8211  -33.9480    1.2932 H   0  0  0  0  0  0  0  0  0  0  0  0
  -42.7581  -32.3369    0.9606 H   0  0  0  0  0  0  0  0  0  0  0  0
  1  2  1  0  0  0  0
  1  5  2  0  0  0  0
  2  8  2  0  0  0  0
  3  7  2  0  0  0  0
  3  8  1  0  0  0  0
  4 14  1  0  0  0  0
  4 15  2  0  0  0  0
  5  6  1  0  0  0  0
  5  7  1  0  0  0  0
  6  9  1  0  0  0  0
  6 10  2  0  0  0  0
  7 16  1  0  0  0  0
  8 20  1  0  0  0  0
  9 14  2  0  0  0  0
  9 16  1  0  0  0  0
 10 15  1  0  0  0  0
 10 17  1  0  0  0  0
 11 13  1  0  0  0  0
 11 17  1  0  0  0  0
 12 13  1  0  0  0  0
 12 18  1  0  0  0  0
 13 19  1  0  0  0  0
  1 21  1  0  0  0  0
  2 22  1  0  0  0  0
  3 23  1  0  0  0  0
  4 24  1  0  0  0  0
 11 25  1  0  0  0  0
 11 26  1  0  0  0  0
 12 27  1  0  0  0  0
 12 28  1  0  0  0  0
 13 29  1  0  0  0  0
 16 30  1  0  0  0  0
 17 31  1  0  0  0  0
 18 32  1  0  0  0  0
 19 33  1  0  0  0  0
M  END
> <POSIT::Probability>
0.9

> <POSIT::Method>
SHAPEFIT

> <ReceptorTitle>
UCSF-P4463-REFINED_LIGAND-BOUND-STATE_A__DU__LA1_A-201(A)

> <OMEGA_C>
z4xCwmCS68HnB3ZAbyVIwg+P68EuzIFAfs5Gwr0B6cHCA89AxBovwoYo6sHUgrxAeTc/wjtD6sE4
9p5AFWQ5wg4x6sFEkKJAYEFBwvwR6cGkY8hAO0JKwl9A6sGEoKtAniU4wvkf6cGK381Akks1wl/9
6sFSxoNAKBEywjy37cFGr+A/LEk1wic7AMJ2E6c/NoUwwhak+cHOweQ/fP8ywj4U6cEYgtpA3igw
wkgE68H08JFADPA8wmc/6MH4bORAx1k2wvB668E/DzBA31U0wj+3BcJu1Ms/sv4rwh5Y+8HsVnE/
c81RwlRG6sGwtbRAOeRAwmqN7MEZsTZAe9NKwryM7MH49k1AVmtIwkwE6MGx1O5Ab/wqwudX6sHC
6sZAgYcuwtzX6MFZMv8/L4UzwhOl68E89z8/3fE4whfY/cGbHOk/Psk1wotu/8GET2E+S5AvwuXj
+8FGsjRAyzs9wlkv58HdBgJBFhs5wuUy8cFzUihA0Eg3wr/KB8IMhqU/VggrwvhYAcJa6HU/

> <OMEGA_E>
GBK+Pg==

> <OMEGA_NBR>
      3781

$$$$
CACHE3-HO_1708_30
  -OEChem-03092622513D

 34 37  0     0  0  0  0  0  0999 V2000
  -48.6645  -29.4744    3.8636 C   0  0  0  0  0  0  0  0  0  0  0  0
  -50.0613  -29.4599    4.0853 C   0  0  0  0  0  0  0  0  0  0  0  0
  -49.7062  -29.0777    6.4866 C   0  0  0  0  0  0  0  0  0  0  0  0
  -43.9933  -33.2673    1.7866 C   0  0  0  0  0  0  0  0  0  0  0  0
  -43.7881  -29.3137    5.8610 C   0  0  0  0  0  0  0  0  0  0  0  0
  -47.8221  -29.2861    4.9764 C   0  0  0  0  0  0  0  0  0  0  0  0
  -46.3664  -29.2928    5.0777 C   0  0  0  0  0  0  0  0  0  0  0  0
  -44.8310  -32.2075    1.5662 C   0  0  0  0  0  0  0  0  0  0  0  0
  -48.3198  -29.1028    6.2706 C   0  0  0  0  0  0  0  0  0  0  0  0
  -50.5782  -29.2586    5.3913 C   0  0  0  0  0  0  0  0  0  0  0  0
  -44.0440  -30.9955    1.7731 C   0  0  0  0  0  0  0  0  0  0  0  0
  -46.0411  -29.1425    6.4254 C   0  0  0  0  0  0  0  0  0  0  0  0
  -45.3562  -29.4047    4.1049 C   0  0  0  0  0  0  0  0  0  0  0  0
  -46.2947  -32.2658    1.1901 C   0  0  0  0  0  0  0  0  0  0  0  0
  -44.5894  -29.5937    1.7106 C   0  0  0  0  0  0  0  0  0  0  0  0
  -44.7496  -29.1487    6.8068 N   0  0  0  0  0  0  0  0  0  0  0  0
  -44.0671  -29.4243    4.5332 N   0  0  0  0  0  0  0  0  0  0  0  0
  -42.8217  -31.3477    2.0889 N   0  0  0  0  0  0  0  0  0  0  0  0
  -47.2318  -28.9962    7.1367 N   0  0  0  0  0  0  0  0  0  0  0  0
  -45.6456  -29.4377    2.7414 N   0  0  0  0  0  0  0  0  0  0  0  0
  -42.7670  -32.7604    2.0962 O   0  0  0  0  0  0  0  0  0  0  0  0
  -52.4617  -29.2407    5.6874 Br  0  0  0  0  0  0  0  0  0  0  0  0
  -48.2577  -29.6247    2.8745 H   0  0  0  0  0  0  0  0  0  0  0  0
  -50.7381  -29.6027    3.2559 H   0  0  0  0  0  0  0  0  0  0  0  0
  -50.1015  -28.9218    7.4795 H   0  0  0  0  0  0  0  0  0  0  0  0
  -44.2561  -34.3131    1.7263 H   0  0  0  0  0  0  0  0  0  0  0  0
  -42.7563  -29.3591    6.1768 H   0  0  0  0  0  0  0  0  0  0  0  0
  -46.9081  -32.2796    2.1031 H   0  0  0  0  0  0  0  0  0  0  0  0
  -46.5538  -31.3825    0.5878 H   0  0  0  0  0  0  0  0  0  0  0  0
  -46.4869  -33.1775    0.6055 H   0  0  0  0  0  0  0  0  0  0  0  0
  -43.7794  -28.8744    1.9013 H   0  0  0  0  0  0  0  0  0  0  0  0
  -45.0170  -29.4088    0.7141 H   0  0  0  0  0  0  0  0  0  0  0  0
  -47.2959  -28.8382    8.1220 H   0  0  0  0  0  0  0  0  0  0  0  0
  -46.2788  -30.2004    2.6093 H   0  0  0  0  0  0  0  0  0  0  0  0
  1  2  2  0  0  0  0
  1  6  1  0  0  0  0
  2 10  1  0  0  0  0
  3  9  1  0  0  0  0
  3 10  2  0  0  0  0
  4  8  2  0  0  0  0
  4 21  1  0  0  0  0
  5 16  2  0  0  0  0
  5 17  1  0  0  0  0
  6  7  1  0  0  0  0
  6  9  2  0  0  0  0
  7 12  2  0  0  0  0
  7 13  1  0  0  0  0
  8 11  1  0  0  0  0
  8 14  1  0  0  0  0
  9 19  1  0  0  0  0
 10 22  1  0  0  0  0
 11 15  1  0  0  0  0
 11 18  2  0  0  0  0
 12 16  1  0  0  0  0
 12 19  1  0  0  0  0
 13 17  2  0  0  0  0
 13 20  1  0  0  0  0
 15 20  1  0  0  0  0
 18 21  1  0  0  0  0
  1 23  1  0  0  0  0
  2 24  1  0  0  0  0
  3 25  1  0  0  0  0
  4 26  1  0  0  0  0
  5 27  1  0  0  0  0
 14 28  1  0  0  0  0
 14 29  1  0  0  0  0
 14 30  1  0  0  0  0
 15 31  1  0  0  0  0
 15 32  1  0  0  0  0
 19 33  1  0  0  0  0
 20 34  1  0  0  0  0
M  END
> <POSIT::Probability>
0.83

> <POSIT::Method>
SHAPEFIT

> <ReceptorTitle>
UCSF-P4463-REFINED_LIGAND-BOUND-STATE_A__DU__LA1_A-201(A)

> <OMEGA_C>
dKhCwoLL68F4RXdAvD5Iwset68G1uoJAItNGwi2f6MFgks9AKfkvwrgRBcKEsOQ/+yYvwnSC6sF0
jbtA2kk/wgVK6sFgPp9AOXc5wr5X6sFmfKJA71IzwnrUAMIwecg/gkdBwnDS6MHwqMhAF1BKwrIR
6sGUhaxAEy0wwt/298Fw9uI/Hyo4wsoj6cGMnM1Au2w1ws0868EuW4NAyC05wiIQAcJkVpg/llsy
wva/7MF89do/jf8ywn4w6cFS0dlAs0QwwgVl68HkD5FAbEkrwi7I+sEssAVAUu08wiD458HGX+RA
IZU2wniA68HCci9AYhErwp0KA8LYJwZA0dhRwurs6cH2/rVA6AdBwmf/7MEA+DdA2vNKwlfS7MEz
YVBA8GdIwuZf58EVWO9ANgYxwqJACcLq99w/bAYrwoDf6sGMqMVA6aE7wlAeAcKCmQZAIDc6wnMP
+8H9ehY/ofI5wsO1BMIwBBs/HB4vwrX+5sERXvM/XxE0wk5F68GKzzY//C49wo605sHo8wFBeR05
wm6a8cGF/iZA

> <OMEGA_E>
eNvNPg==

> <OMEGA_NBR>
      4986

$$$$
CACHE3-HO_1708_36
  -OEChem-03092622513D

 34 37  0     0  0  0  0  0  0999 V2000
  -48.6613  -29.4778    3.8670 C   0  0  0  0  0  0  0  0  0  0  0  0
  -50.0576  -29.4547    4.0850 C   0  0  0  0  0  0  0  0  0  0  0  0
  -49.7047  -29.0848    6.4890 C   0  0  0  0  0  0  0  0  0  0  0  0
  -43.7846  -29.2939    5.8568 C   0  0  0  0  0  0  0  0  0  0  0  0
  -43.7336  -33.1547    1.8103 C   0  0  0  0  0  0  0  0  0  0  0  0
  -47.8201  -29.2981    4.9827 C   0  0  0  0  0  0  0  0  0  0  0  0
  -46.3657  -29.3035    5.0849 C   0  0  0  0  0  0  0  0  0  0  0  0
  -48.3179  -29.1155    6.2763 C   0  0  0  0  0  0  0  0  0  0  0  0
  -50.5755  -29.2546    5.3903 C   0  0  0  0  0  0  0  0  0  0  0  0
  -46.0378  -29.1453    6.4304 C   0  0  0  0  0  0  0  0  0  0  0  0
  -45.3609  -29.4131    4.1094 C   0  0  0  0  0  0  0  0  0  0  0  0
  -43.9864  -30.9021    1.7587 C   0  0  0  0  0  0  0  0  0  0  0  0
  -46.0206  -32.2874    1.2260 C   0  0  0  0  0  0  0  0  0  0  0  0
  -44.6266  -29.5418    1.7003 C   0  0  0  0  0  0  0  0  0  0  0  0
  -44.7442  -29.1370    6.8069 N   0  0  0  0  0  0  0  0  0  0  0  0
  -44.0689  -29.4158    4.5305 N   0  0  0  0  0  0  0  0  0  0  0  0
  -42.5903  -32.5802    2.1128 N   0  0  0  0  0  0  0  0  0  0  0  0
  -42.7468  -31.1904    2.0858 N   0  0  0  0  0  0  0  0  0  0  0  0
  -47.2292  -29.0089    7.1431 N   0  0  0  0  0  0  0  0  0  0  0  0
  -44.5873  -32.1153    1.5704 N   0  0  0  0  0  0  0  0  0  0  0  0
  -45.6675  -29.4556    2.7502 N   0  0  0  0  0  0  0  0  0  0  0  0
  -52.4596  -29.2261    5.6798 Br  0  0  0  0  0  0  0  0  0  0  0  0
  -48.2530  -29.6281    2.8785 H   0  0  0  0  0  0  0  0  0  0  0  0
  -50.7335  -29.5901    3.2537 H   0  0  0  0  0  0  0  0  0  0  0  0
  -50.1016  -28.9331    7.4819 H   0  0  0  0  0  0  0  0  0  0  0  0
  -42.7507  -29.3232    6.1677 H   0  0  0  0  0  0  0  0  0  0  0  0
  -43.9496  -34.2118    1.7622 H   0  0  0  0  0  0  0  0  0  0  0  0
  -46.4849  -31.3005    1.0827 H   0  0  0  0  0  0  0  0  0  0  0  0
  -46.1070  -32.8714    0.2979 H   0  0  0  0  0  0  0  0  0  0  0  0
  -46.5325  -32.8182    2.0422 H   0  0  0  0  0  0  0  0  0  0  0  0
  -43.8645  -28.7673    1.8716 H   0  0  0  0  0  0  0  0  0  0  0  0
  -45.0859  -29.3920    0.7120 H   0  0  0  0  0  0  0  0  0  0  0  0
  -47.2938  -28.8571    8.1294 H   0  0  0  0  0  0  0  0  0  0  0  0
  -46.2560  -30.2541    2.6234 H   0  0  0  0  0  0  0  0  0  0  0  0
  1  2  2  0  0  0  0
  1  6  1  0  0  0  0
  2  9  1  0  0  0  0
  3  8  1  0  0  0  0
  3  9  2  0  0  0  0
  4 15  2  0  0  0  0
  4 16  1  0  0  0  0
  5 17  2  0  0  0  0
  5 20  1  0  0  0  0
  6  7  1  0  0  0  0
  6  8  2  0  0  0  0
  7 10  2  0  0  0  0
  7 11  1  0  0  0  0
  8 19  1  0  0  0  0
  9 22  1  0  0  0  0
 10 15  1  0  0  0  0
 10 19  1  0  0  0  0
 11 16  2  0  0  0  0
 11 21  1  0  0  0  0
 12 14  1  0  0  0  0
 12 18  2  0  0  0  0
 12 20  1  0  0  0  0
 13 20  1  0  0  0  0
 14 21  1  0  0  0  0
 17 18  1  0  0  0  0
  1 23  1  0  0  0  0
  2 24  1  0  0  0  0
  3 25  1  0  0  0  0
  4 26  1  0  0  0  0
  5 27  1  0  0  0  0
 13 28  1  0  0  0  0
 13 29  1  0  0  0  0
 13 30  1  0  0  0  0
 14 31  1  0  0  0  0
 14 32  1  0  0  0  0
 19 33  1  0  0  0  0
 21 34  1  0  0  0  0
M  END
> <POSIT::Probability>
0.83

> <POSIT::Method>
SHAPEFIT

> <ReceptorTitle>
UCSF-P4463-REFINED_LIGAND-BOUND-STATE_A__DU__LA1_A-201(A)

> <OMEGA_C>
JqVCwofS68EXfXdA+jpIwkGj68F+uIJAotFGwr2t6MEaps9AZCMvwuFZ6sFKa7tAKe8uwm+eBMKS
t+c/x0c/wpVi6sEYcp9AenY5woNt6sGyt6JAhkVBwnbs6ME618hAW01KwlsJ6sFafaxAvCY4wn0p
6cEsxs1AlHE1wgVO68F+gINABvIvwnc398EGHOE/IRU4wk0mAcIK7pw/rYEywoxV7ME+otk/D/oy
wpkY6cHO0dlAkEYwwn1T68He+ZBAcVwqwixSAsJhNwdAtfwqwuGF+cEjfgVAv+o8wiYS6ME2lORA
Y1kywgZ2AMKGAck/eqs2wiSl68G/AjBAmdZRwvzO6cECwbVAGANBwlUG7cF3OThAI+9Kwpq47MHl
O1BABmhIwhd358EbbO9AswArwtuV6sHdXcVAW8wvwuTYCMK1kOE/j/A5woRn+sEblYo/nW04wld8
A8J9gpg+RyE6wt1FA8IPtAJAOHUvwn8j5sGqj+8/7Vc0wtoi68EZRTY/1Cw9wl/b5sEIEgJBHAY5
wncI8sF+5idA

> <OMEGA_E>
0LHvPg==

> <OMEGA_NBR>
      6191

$$$$
CACHE3-HO_1708_50
  -OEChem-03092622513D

 39 42  0     1  0  0  0  0  0999 V2000
  -48.6540  -29.4566    3.8707 C   0  0  0  0  0  0  0  0  0  0  0  0
  -50.0487  -29.4433    4.0827 C   0  0  0  0  0  0  0  0  0  0  0  0
  -49.7034  -29.1197    6.4952 C   0  0  0  0  0  0  0  0  0  0  0  0
  -43.7798  -29.2204    5.8432 C   0  0  0  0  0  0  0  0  0  0  0  0
  -47.8159  -29.2981    4.9937 C   0  0  0  0  0  0  0  0  0  0  0  0
  -46.3638  -29.2971    5.0991 C   0  0  0  0  0  0  0  0  0  0  0  0
  -48.3152  -29.1360    6.2879 C   0  0  0  0  0  0  0  0  0  0  0  0
  -50.5698  -29.2754    5.3897 C   0  0  0  0  0  0  0  0  0  0  0  0
  -46.0322  -29.1394    6.4416 C   0  0  0  0  0  0  0  0  0  0  0  0
  -45.3695  -29.3750    4.1160 C   0  0  0  0  0  0  0  0  0  0  0  0
  -44.9756  -32.9789    1.3130 C   0  0  0  0  0  0  0  0  0  0  0  0
  -43.5292  -33.3939    1.5790 C   0  0  0  0  0  0  0  0  0  0  0  0
  -42.9150  -32.3578    2.5305 C   0  0  0  0  0  0  0  0  0  0  0  0
  -42.8909  -30.9781    1.8497 C   0  0  0  0  0  0  0  0  0  0  0  0
  -44.2300  -30.5995    1.1255 C   0  0  2  0  0  0  0  0  0  0  0  0
  -44.7779  -29.2551    1.6472 C   0  0  0  0  0  0  0  0  0  0  0  0
  -44.7346  -29.1023    6.8061 N   0  0  0  0  0  0  0  0  0  0  0  0
  -44.0750  -29.3360    4.5174 N   0  0  0  0  0  0  0  0  0  0  0  0
  -47.2257  -29.0290    7.1573 N   0  0  0  0  0  0  0  0  0  0  0  0
  -45.2850  -31.6363    1.2050 N   0  0  0  0  0  0  0  0  0  0  0  0
  -45.7207  -29.4195    2.7742 N   0  0  0  0  0  0  0  0  0  0  0  0
  -45.8576  -33.8219    1.2152 O   0  0  0  0  0  0  0  0  0  0  0  0
  -52.4538  -29.2740    5.6705 Br  0  0  0  0  0  0  0  0  0  0  0  0
  -48.2416  -29.5840    2.8807 H   0  0  0  0  0  0  0  0  0  0  0  0
  -50.7215  -29.5615    3.2461 H   0  0  0  0  0  0  0  0  0  0  0  0
  -50.1051  -28.9896    7.4893 H   0  0  0  0  0  0  0  0  0  0  0  0
  -42.7422  -29.2225    6.1428 H   0  0  0  0  0  0  0  0  0  0  0  0
  -43.5047  -34.3906    2.0438 H   0  0  0  0  0  0  0  0  0  0  0  0
  -42.9658  -33.4158    0.6345 H   0  0  0  0  0  0  0  0  0  0  0  0
  -43.5181  -32.3018    3.4487 H   0  0  0  0  0  0  0  0  0  0  0  0
  -41.8877  -32.6582    2.7843 H   0  0  0  0  0  0  0  0  0  0  0  0
  -42.6858  -30.2173    2.6172 H   0  0  0  0  0  0  0  0  0  0  0  0
  -42.0818  -30.9744    1.1044 H   0  0  0  0  0  0  0  0  0  0  0  0
  -43.9838  -30.4547    0.0632 H   0  0  0  0  0  0  0  0  0  0  0  0
  -43.9320  -28.6376    1.9837 H   0  0  0  0  0  0  0  0  0  0  0  0
  -45.2995  -28.7449    0.8240 H   0  0  0  0  0  0  0  0  0  0  0  0
  -47.2916  -28.8933    8.1459 H   0  0  0  0  0  0  0  0  0  0  0  0
  -46.2451  -31.3577    1.1798 H   0  0  0  0  0  0  0  0  0  0  0  0
  -46.1453  -30.3147    2.6388 H   0  0  0  0  0  0  0  0  0  0  0  0
  1  2  1  0  0  0  0
  1  5  2  0  0  0  0
  2  8  2  0  0  0  0
  3  7  2  0  0  0  0
  3  8  1  0  0  0  0
  4 17  1  0  0  0  0
  4 18  2  0  0  0  0
  5  6  1  0  0  0  0
  5  7  1  0  0  0  0
  6  9  1  0  0  0  0
  6 10  2  0  0  0  0
  7 19  1  0  0  0  0
  8 23  1  0  0  0  0
  9 17  2  0  0  0  0
  9 19  1  0  0  0  0
 10 18  1  0  0  0  0
 10 21  1  0  0  0  0
 11 12  1  0  0  0  0
 11 20  1  0  0  0  0
 11 22  2  0  0  0  0
 12 13  1  0  0  0  0
 13 14  1  0  0  0  0
 14 15  1  0  0  0  0
 15 16  1  0  0  0  0
 15 20  1  0  0  0  0
 16 21  1  0  0  0  0
  1 24  1  0  0  0  0
  2 25  1  0  0  0  0
  3 26  1  0  0  0  0
  4 27  1  0  0  0  0
 12 28  1  0  0  0  0
 12 29  1  0  0  0  0
 13 30  1  0  0  0  0
 13 31  1  0  0  0  0
 14 32  1  0  0  0  0
 14 33  1  0  0  0  0
 15 34  1  0  0  0  0
 16 35  1  0  0  0  0
 16 36  1  0  0  0  0
 19 37  1  0  0  0  0
 20 38  1  0  0  0  0
 21 39  1  0  0  0  0
M  END
> <POSIT::Probability>
0.91

> <POSIT::Method>
SHAPEFIT

> <ReceptorTitle>
UCSF-P4463-REFINED_LIGAND-BOUND-STATE_A__DU__LA1_A-201(A)

> <OMEGA_C>
pp1CwiWn68FGuXdA5jFIwuOL68GkpYJARtBGwjr16MED2c9AjR4vwlLD6cEp+7pAhkM/wn5i6sGh
zJ9AjXQ5woZg6sGOK6NAvUJBwn8W6cGPNslAhUdKwgE06sG1eKxA7iA4wowd6cGFIc5AWXo1whAA
68FItoNAAOczwlvqA8KIEag/7h0uwlaTBcKwHco/9agrwl1uAcLQ8yFAP5ArwibT98Gowew/gusw
wsTL9MGoEJA/iBwzwmUK6sEQ1tI/L/AywpPR6MG3y9lAxkwwwjSw6sFHjpBAJ+c8wlc76MH7COVA
4CM1wg8X/cE8PJo/DOI2wixb68HEjDFAMG43wqtJB8J+i5s/pdBRwikx6sGjdLVAXPdAwhus7MEh
XThAyOJKwuh97MHMwE9ApmtIwsnq58ERqO9AEPgqwqbH6cEwksRA0AQuwu2PCcI5zgJAAd0rwsyp
BcIgcCI/jBIuwhU1AcLlt1xABY0nwgiiAsIRMjJAR74qwg698cGjgCdAwlMowp/L98FmXY0/Xu8v
wiyj88EviIE9X7ovwtsZ5cGi6v0/vDI1wqD15cEq8VI/nSo9wpQl58GqVQJBBPs4wqLc+sHeApc/
xpQ4wpqE8sFy4ihA

> <OMEGA_E>
4IvFPg==

> <OMEGA_NBR>
      7499

$$$$
CACHE3-HO_1715_19
  -OEChem-03092622513D

 37 39  0     1  0  0  0  0  0999 V2000
  -48.6017  -29.4860    3.8802 C   0  0  0  0  0  0  0  0  0  0  0  0
  -50.0010  -29.4831    4.0726 C   0  0  0  0  0  0  0  0  0  0  0  0
  -49.6970  -29.0988    6.4809 C   0  0  0  0  0  0  0  0  0  0  0  0
  -43.7610  -29.2232    5.9436 C   0  0  0  0  0  0  0  0  0  0  0  0
  -47.7821  -29.2882    5.0090 C   0  0  0  0  0  0  0  0  0  0  0  0
  -46.3286  -29.2693    5.1339 C   0  0  0  0  0  0  0  0  0  0  0  0
  -48.3050  -29.1025    6.2924 C   0  0  0  0  0  0  0  0  0  0  0  0
  -50.5455  -29.2882    5.3671 C   0  0  0  0  0  0  0  0  0  0  0  0
  -46.0252  -29.0818    6.4811 C   0  0  0  0  0  0  0  0  0  0  0  0
  -45.3073  -29.4160    4.1783 C   0  0  0  0  0  0  0  0  0  0  0  0
  -42.1852  -31.9135    2.6126 C   0  0  0  0  0  0  0  0  0  0  0  0
  -45.6552  -32.2426    1.6216 C   0  0  0  0  0  0  0  0  0  0  0  0
  -44.6003  -29.8957    1.7853 C   0  0  0  0  0  0  0  0  0  0  0  0
  -44.3522  -31.4253    1.6816 C   0  0  1  0  0  0  0  0  0  0  0  0
  -44.7373  -29.0552    6.8765 N   0  0  0  0  0  0  0  0  0  0  0  0
  -44.0225  -29.3930    4.6165 N   0  0  0  0  0  0  0  0  0  0  0  0
  -47.2314  -28.9609    7.1744 N   0  0  0  0  0  0  0  0  0  0  0  0
  -46.4736  -31.8172    0.4752 N   0  0  0  0  0  0  0  0  0  0  0  0
  -45.6039  -29.5515    2.8242 N   0  0  0  0  0  0  0  0  0  0  0  0
  -43.6070  -31.8908    2.8207 O   0  0  0  0  0  0  0  0  0  0  0  0
  -52.4355  -29.2875    5.6174 Br  0  0  0  0  0  0  0  0  0  0  0  0
  -48.1740  -29.6350    2.8998 H   0  0  0  0  0  0  0  0  0  0  0  0
  -50.6596  -29.6302    3.2294 H   0  0  0  0  0  0  0  0  0  0  0  0
  -50.1140  -28.9526    7.4663 H   0  0  0  0  0  0  0  0  0  0  0  0
  -42.7314  -29.2218    6.2696 H   0  0  0  0  0  0  0  0  0  0  0  0
  -41.6867  -32.2787    3.5227 H   0  0  0  0  0  0  0  0  0  0  0  0
  -41.9484  -32.5819    1.7717 H   0  0  0  0  0  0  0  0  0  0  0  0
  -41.8320  -30.8971    2.3839 H   0  0  0  0  0  0  0  0  0  0  0  0
  -45.4096  -33.3096    1.5158 H   0  0  0  0  0  0  0  0  0  0  0  0
  -46.2237  -32.0875    2.5505 H   0  0  0  0  0  0  0  0  0  0  0  0
  -43.6503  -29.4004    2.0347 H   0  0  0  0  0  0  0  0  0  0  0  0
  -44.9601  -29.5299    0.8123 H   0  0  0  0  0  0  0  0  0  0  0  0
  -43.7806  -31.6181    0.7617 H   0  0  0  0  0  0  0  0  0  0  0  0
  -47.3142  -28.7971    8.1574 H   0  0  0  0  0  0  0  0  0  0  0  0
  -47.3159  -32.3555    0.4483 H   0  0  0  0  0  0  0  0  0  0  0  0
  -46.7006  -30.8478    0.5693 H   0  0  0  0  0  0  0  0  0  0  0  0
  -46.3051  -30.2624    2.7700 H   0  0  0  0  0  0  0  0  0  0  0  0
  1  2  2  0  0  0  0
  1  5  1  0  0  0  0
  2  8  1  0  0  0  0
  3  7  1  0  0  0  0
  3  8  2  0  0  0  0
  4 15  2  0  0  0  0
  4 16  1  0  0  0  0
  5  6  1  0  0  0  0
  5  7  2  0  0  0  0
  6  9  2  0  0  0  0
  6 10  1  0  0  0  0
  7 17  1  0  0  0  0
  8 21  1  0  0  0  0
  9 15  1  0  0  0  0
  9 17  1  0  0  0  0
 10 16  2  0  0  0  0
 10 19  1  0  0  0  0
 11 20  1  0  0  0  0
 12 14  1  0  0  0  0
 12 18  1  0  0  0  0
 13 14  1  0  0  0  0
 13 19  1  0  0  0  0
 14 20  1  0  0  0  0
  1 22  1  0  0  0  0
  2 23  1  0  0  0  0
  3 24  1  0  0  0  0
  4 25  1  0  0  0  0
 11 26  1  0  0  0  0
 11 27  1  0  0  0  0
 11 28  1  0  0  0  0
 12 29  1  0  0  0  0
 12 30  1  0  0  0  0
 13 31  1  0  0  0  0
 13 32  1  0  0  0  0
 14 33  1  0  0  0  0
 17 34  1  0  0  0  0
 18 35  1  0  0  0  0
 18 36  1  0  0  0  0
 19 37  1  0  0  0  0
M  END
> <POSIT::Probability>
0.9

> <POSIT::Method>
SHAPEFIT

> <ReceptorTitle>
UCSF-P4463-REFINED_LIGAND-BOUND-STATE_A__DU__LA1_A-201(A)

> <OMEGA_C>
H2hCwlLj68H4VXhAEwFIwnnd68EWU4JArslGwkHK6MFsY89ASgsvwgnJ6cEgMr5A2iA/wj1O6sGw
SaBAclA5wpEn6sE1SaRAXDhBwvXR6MF2W8lAjy5KwlJO6sEkv6tA0xk4wnGn6MFGZc9ApDo1wvJT
68HatIVApL0owspO/8FwNSdA+J42wmr4AMJMkc8/tmYywmwq78E4heQ/omgxwvtm+8E8Pdc/9fIy
wiFx6ME6DNxABhcwwtYk68EsupNA9uw8wu2v58FQlOVA/+Q5woiJ/sHITvM+aWo2wmJp7MF8vzRA
l20uwlYg/8F8hjRA+r1RwstM6sEmwrNAIbJAwmIU7cFzljlAbqNKwpkK7cElrk5AxnRIwv+e58Ej
7O5A9+wqwlfG6cHyoMhAL78mwlgdAcJKc2FANMsnwtFTAsJVxuI/71Mnwlot98FVkhhAcqM1wgQ9
BcIQB8I/EuU4wqJZAMJhOyNA8JkuwgA068EGOQJALdczwlI97MHE808/Th8vws7x/MEtAEM/wkE9
wnZg5sGShAJBhUM9wgNsAcIIh+U+YM06wknI9sGPuxE/bzg5wlEZ8sFlRzFA

> <OMEGA_E>
hAbBPg==

> <OMEGA_NBR>
      8764

$$$$
CACHE3-HO_1715_22
  -OEChem-03092622513D

 38 40  0     0  0  0  0  0  0999 V2000
  -48.6841  -29.4096    3.8899 C   0  0  0  0  0  0  0  0  0  0  0  0
  -50.0755  -29.3805    4.1075 C   0  0  0  0  0  0  0  0  0  0  0  0
  -49.7130  -29.0661    6.5194 C   0  0  0  0  0  0  0  0  0  0  0  0
  -43.7951  -29.2609    5.8116 C   0  0  0  0  0  0  0  0  0  0  0  0
  -47.8382  -29.2783    5.0110 C   0  0  0  0  0  0  0  0  0  0  0  0
  -46.3879  -29.2971    5.1050 C   0  0  0  0  0  0  0  0  0  0  0  0
  -48.3250  -29.0955    6.3057 C   0  0  0  0  0  0  0  0  0  0  0  0
  -50.5871  -29.2148    5.4172 C   0  0  0  0  0  0  0  0  0  0  0  0
  -46.0377  -29.0995    6.4362 C   0  0  0  0  0  0  0  0  0  0  0  0
  -45.4157  -29.5078    4.1234 C   0  0  0  0  0  0  0  0  0  0  0  0
  -43.3146  -32.2255    2.8634 C   0  0  0  0  0  0  0  0  0  0  0  0
  -42.6994  -32.2102    0.4388 C   0  0  0  0  0  0  0  0  0  0  0  0
  -43.7282  -30.1415    1.4231 C   0  0  0  0  0  0  0  0  0  0  0  0
  -45.1041  -29.4761    1.6126 C   0  0  0  0  0  0  0  0  0  0  0  0
  -43.7297  -31.7063    1.4682 C   0  0  0  0  0  0  0  0  0  0  0  0
  -44.7342  -29.0926    6.7843 N   0  0  0  0  0  0  0  0  0  0  0  0
  -44.1129  -29.4563    4.4990 N   0  0  0  0  0  0  0  0  0  0  0  0
  -47.2248  -28.9766    7.1635 N   0  0  0  0  0  0  0  0  0  0  0  0
  -45.8114  -29.8697    2.8412 N   0  0  0  0  0  0  0  0  0  0  0  0
  -45.0107  -32.2629    1.1393 O   0  0  0  0  0  0  0  0  0  0  0  0
  -52.4699  -29.1922    5.6999 Br  0  0  0  0  0  0  0  0  0  0  0  0
  -48.2779  -29.5287    2.8963 H   0  0  0  0  0  0  0  0  0  0  0  0
  -50.7535  -29.4848    3.2734 H   0  0  0  0  0  0  0  0  0  0  0  0
  -50.1089  -28.9314    7.5151 H   0  0  0  0  0  0  0  0  0  0  0  0
  -42.7524  -29.2387    6.0920 H   0  0  0  0  0  0  0  0  0  0  0  0
  -44.0380  -31.8768    3.6151 H   0  0  0  0  0  0  0  0  0  0  0  0
  -43.2965  -33.3253    2.8547 H   0  0  0  0  0  0  0  0  0  0  0  0
  -42.3136  -31.8442    3.1134 H   0  0  0  0  0  0  0  0  0  0  0  0
  -42.9762  -31.8514   -0.5636 H   0  0  0  0  0  0  0  0  0  0  0  0
  -41.7017  -31.8290    0.7020 H   0  0  0  0  0  0  0  0  0  0  0  0
  -42.6846  -33.3101    0.4432 H   0  0  0  0  0  0  0  0  0  0  0  0
  -43.3319  -29.8301    0.4453 H   0  0  0  0  0  0  0  0  0  0  0  0
  -43.0628  -29.7792    2.2206 H   0  0  0  0  0  0  0  0  0  0  0  0
  -44.9577  -28.3861    1.6353 H   0  0  0  0  0  0  0  0  0  0  0  0
  -45.7357  -29.7434    0.7526 H   0  0  0  0  0  0  0  0  0  0  0  0
  -47.2802  -28.8261    8.1506 H   0  0  0  0  0  0  0  0  0  0  0  0
  -45.8256  -30.8696    2.8356 H   0  0  0  0  0  0  0  0  0  0  0  0
  -45.2807  -31.9529    0.2828 H   0  0  0  0  0  0  0  0  0  0  0  0
  1  2  2  0  0  0  0
  1  5  1  0  0  0  0
  2  8  1  0  0  0  0
  3  7  1  0  0  0  0
  3  8  2  0  0  0  0
  4 16  2  0  0  0  0
  4 17  1  0  0  0  0
  5  6  1  0  0  0  0
  5  7  2  0  0  0  0
  6  9  2  0  0  0  0
  6 10  1  0  0  0  0
  7 18  1  0  0  0  0
  8 21  1  0  0  0  0
  9 16  1  0  0  0  0
  9 18  1  0  0  0  0
 10 17  2  0  0  0  0
 10 19  1  0  0  0  0
 11 15  1  0  0  0  0
 12 15  1  0  0  0  0
 13 14  1  0  0  0  0
 13 15  1  0  0  0  0
 14 19  1  0  0  0  0
 15 20  1  0  0  0  0
  1 22  1  0  0  0  0
  2 23  1  0  0  0  0
  3 24  1  0  0  0  0
  4 25  1  0  0  0  0
 11 26  1  0  0  0  0
 11 27  1  0  0  0  0
 11 28  1  0  0  0  0
 12 29  1  0  0  0  0
 12 30  1  0  0  0  0
 12 31  1  0  0  0  0
 13 32  1  0  0  0  0
 13 33  1  0  0  0  0
 14 34  1  0  0  0  0
 14 35  1  0  0  0  0
 18 36  1  0  0  0  0
 19 37  1  0  0  0  0
 20 38  1  0  0  0  0
M  END
> <POSIT::Probability>
0.9

> <POSIT::Method>
SHAPEFIT

> <ReceptorTitle>
UCSF-P4463-REFINED_LIGAND-BOUND-STATE_A__DU__LA1_A-201(A)

> <OMEGA_C>
hbxCwvJG68Eg9HhARk1IwjkL68EDcYNAI9pGwm6H6MHCntBAKi4vwmAW6sEA+blARFo/wgI66sFC
WqBALI05wl5g6sFbXKNAx0xBwqPD6MGyyMlALFlKwuG36cHqWa1AkCY4wrvL6MFk9c1At6k1wu4P
7MEs84NALkItwujmAMKAQTdAOMwqwjzXAMLkpeA+pekuwsQh8cE7J7Y/jWo0whHP68GZac4/Oesu
wnim/cFj7rs/z+8ywou96MFSGdlAqHMwwo+m68Eq+I9AKOY8winQ58FqO+VA4T43wiP17sHQ1jVA
6wo0wj0NAcLX05E/MuFRwoaJ6cE+ZbZAmRxBwuA67MEDXTlAogNLwsng68EUgFFAf29IwnZz58EF
fPBAaQIrwvTo6cEP8sJA6iYwwpYD/8HxXWdAni8twh5NBcJXszZAGkEpwgHB/sGnQkdAo+crwqnP
/sGxRRC/kM4mwtCh/sEZtDM/FL0qwoY9BcKx7eI+6lMtwiGk7sEG/OM+R0Aswso77sGqHQ5AsNQz
wscW48GvUdE/V/E2woXy7cGUqkA/4x49wtub5sGqaAJBbU03wub09sGzejVAaR81wpmf/8Ggz5A+

> <OMEGA_E>
iBnrPg==

> <OMEGA_NBR>
     10045

$$$$
CACHE3-HO_1715_25
  -OEChem-03092622513D

 38 40  0     0  0  0  0  0  0999 V2000
  -48.6374  -29.4541    3.8697 C   0  0  0  0  0  0  0  0  0  0  0  0
  -50.0373  -29.4407    4.0795 C   0  0  0  0  0  0  0  0  0  0  0  0
  -49.7043  -29.1046    6.4902 C   0  0  0  0  0  0  0  0  0  0  0  0
  -43.7776  -29.2011    5.9200 C   0  0  0  0  0  0  0  0  0  0  0  0
  -47.8047  -29.2908    4.9935 C   0  0  0  0  0  0  0  0  0  0  0  0
  -46.3476  -29.2735    5.1072 C   0  0  0  0  0  0  0  0  0  0  0  0
  -48.3165  -29.1222    6.2851 C   0  0  0  0  0  0  0  0  0  0  0  0
  -50.5666  -29.2640    5.3847 C   0  0  0  0  0  0  0  0  0  0  0  0
  -46.0401  -29.1052    6.4579 C   0  0  0  0  0  0  0  0  0  0  0  0
  -45.3200  -29.4057    4.1516 C   0  0  0  0  0  0  0  0  0  0  0  0
  -43.2218  -31.6056    0.4575 C   0  0  0  0  0  0  0  0  0  0  0  0
  -43.3042  -31.8902    2.9305 C   0  0  0  0  0  0  0  0  0  0  0  0
  -44.5020  -29.9014    1.8041 C   0  0  0  0  0  0  0  0  0  0  0  0
  -45.3930  -32.3076    1.5782 C   0  0  0  0  0  0  0  0  0  0  0  0
  -44.1221  -31.4171    1.7017 C   0  0  0  0  0  0  0  0  0  0  0  0
  -44.7540  -29.0762    6.8546 N   0  0  0  0  0  0  0  0  0  0  0  0
  -44.0383  -29.3444    4.5933 N   0  0  0  0  0  0  0  0  0  0  0  0
  -47.2391  -29.0064    7.1613 N   0  0  0  0  0  0  0  0  0  0  0  0
  -45.5797  -29.6192    2.7995 N   0  0  0  0  0  0  0  0  0  0  0  0
  -46.3407  -31.7577    0.6628 O   0  0  0  0  0  0  0  0  0  0  0  0
  -52.4530  -29.2450    5.6666 Br  0  0  0  0  0  0  0  0  0  0  0  0
  -48.2222  -29.5852    2.8814 H   0  0  0  0  0  0  0  0  0  0  0  0
  -50.7067  -29.5657    3.2413 H   0  0  0  0  0  0  0  0  0  0  0  0
  -50.1081  -28.9705    7.4829 H   0  0  0  0  0  0  0  0  0  0  0  0
  -42.7477  -29.1860    6.2447 H   0  0  0  0  0  0  0  0  0  0  0  0
  -43.7654  -31.2806   -0.4419 H   0  0  0  0  0  0  0  0  0  0  0  0
  -42.3084  -31.0033    0.5713 H   0  0  0  0  0  0  0  0  0  0  0  0
  -42.9509  -32.6671    0.3584 H   0  0  0  0  0  0  0  0  0  0  0  0
  -43.9094  -31.7731    3.8416 H   0  0  0  0  0  0  0  0  0  0  0  0
  -43.0325  -32.9486    2.8045 H   0  0  0  0  0  0  0  0  0  0  0  0
  -42.3900  -31.2847    3.0174 H   0  0  0  0  0  0  0  0  0  0  0  0
  -43.6038  -29.3370    2.0951 H   0  0  0  0  0  0  0  0  0  0  0  0
  -44.8444  -29.5615    0.8155 H   0  0  0  0  0  0  0  0  0  0  0  0
  -45.0950  -33.3058    1.2249 H   0  0  0  0  0  0  0  0  0  0  0  0
  -45.8640  -32.3947    2.5684 H   0  0  0  0  0  0  0  0  0  0  0  0
  -47.3152  -28.8722    8.1493 H   0  0  0  0  0  0  0  0  0  0  0  0
  -46.2056  -30.3980    2.7577 H   0  0  0  0  0  0  0  0  0  0  0  0
  -47.1004  -32.3260    0.6133 H   0  0  0  0  0  0  0  0  0  0  0  0
  1  2  2  0  0  0  0
  1  5  1  0  0  0  0
  2  8  1  0  0  0  0
  3  7  1  0  0  0  0
  3  8  2  0  0  0  0
  4 16  2  0  0  0  0
  4 17  1  0  0  0  0
  5  6  1  0  0  0  0
  5  7  2  0  0  0  0
  6  9  2  0  0  0  0
  6 10  1  0  0  0  0
  7 18  1  0  0  0  0
  8 21  1  0  0  0  0
  9 16  1  0  0  0  0
  9 18  1  0  0  0  0
 10 17  2  0  0  0  0
 10 19  1  0  0  0  0
 11 15  1  0  0  0  0
 12 15  1  0  0  0  0
 13 15  1  0  0  0  0
 13 19  1  0  0  0  0
 14 15  1  0  0  0  0
 14 20  1  0  0  0  0
  1 22  1  0  0  0  0
  2 23  1  0  0  0  0
  3 24  1  0  0  0  0
  4 25  1  0  0  0  0
 11 26  1  0  0  0  0
 11 27  1  0  0  0  0
 11 28  1  0  0  0  0
 12 29  1  0  0  0  0
 12 30  1  0  0  0  0
 12 31  1  0  0  0  0
 13 32  1  0  0  0  0
 13 33  1  0  0  0  0
 14 34  1  0  0  0  0
 14 35  1  0  0  0  0
 18 36  1  0  0  0  0
 19 37  1  0  0  0  0
 20 38  1  0  0  0  0
M  END
> <POSIT::Probability>
0.9

> <POSIT::Method>
SHAPEFIT

> <ReceptorTitle>
UCSF-P4463-REFINED_LIGAND-BOUND-STATE_A__DU__LA1_A-201(A)

> <OMEGA_C>
u4xCwhii68E6qXdAJyZIwpqG68Eii4JAOtFGwifW6MEMsM9AQBwvwtib6cGYcL1ACjg/wpxT6sHc
yp9A+2M5wggw6sHubaNAEERBwkX66MGqH8lAKURKwqMc6sG2T6xABSk4wofX6MECp85Au0c1wuY+
68HT2YRAFOMswlDY/MHIOeo+hzctwhof/8HijDtACAIywiU278HM6+Y/Z5I1wgM7AcIoAco/E30w
wkdW+8F80Nk/GwQzwgic6ME2WdtAMCcwwkvB6sES/JJA2/Q8wh4N6ME6KeVAo1E2wjP07MGmKjNA
2lw5wtYP/sHwqyk/189RwsL16cEkVbVAgONAwniu7MGHaDhAs9NKwpqG7ME+cU9Ap25IwprD58Ej
dO9AnP0qwud86cGK1MdAzQ8vwrM++sG9OuK+0Dspwq4G+MHUQhI/v80rwimrAsIBhrc+NaMvwkEv
/sEL3HVAQiEswmPLA8K6fDNAU48pwiFH+sGvHEFARWouwkOy6sHQFQZAn2AzwvB97MFgxlA/PGE0
wiY5BcItyJw/unQ3wiaUAcKUYCRAt0I9wiv65sGRYwJBjdI4wikv88HzfTBAxmY8wtJNAcLVAR0/

> <OMEGA_E>
lF+lPg==

> <OMEGA_NBR>
     11326

$$$$
CACHE3-HO_1715_30
  -OEChem-03092622513D

 32 34  0     0  0  0  0  0  0999 V2000
  -48.6523  -29.4525    3.8610 C   0  0  0  0  0  0  0  0  0  0  0  0
  -50.0519  -29.4442    4.0776 C   0  0  0  0  0  0  0  0  0  0  0  0
  -49.7094  -29.0957    6.4846 C   0  0  0  0  0  0  0  0  0  0  0  0
  -43.7851  -29.2412    5.9087 C   0  0  0  0  0  0  0  0  0  0  0  0
  -47.8143  -29.2806    4.9799 C   0  0  0  0  0  0  0  0  0  0  0  0
  -46.3550  -29.2734    5.0907 C   0  0  0  0  0  0  0  0  0  0  0  0
  -48.3226  -29.1108    6.2734 C   0  0  0  0  0  0  0  0  0  0  0  0
  -50.5761  -29.2647    5.3847 C   0  0  0  0  0  0  0  0  0  0  0  0
  -46.0467  -29.1119    6.4426 C   0  0  0  0  0  0  0  0  0  0  0  0
  -45.3253  -29.3933    4.1324 C   0  0  0  0  0  0  0  0  0  0  0  0
  -44.1262  -31.2702    1.7659 C   0  0  0  0  0  0  0  0  0  0  0  0
  -44.5055  -29.7761    1.7686 C   0  0  0  0  0  0  0  0  0  0  0  0
  -45.3635  -32.1241    1.4329 C   0  0  0  0  0  0  0  0  0  0  0  0
  -44.7613  -29.0921    6.8403 N   0  0  0  0  0  0  0  0  0  0  0  0
  -44.0434  -29.3800    4.5799 N   0  0  0  0  0  0  0  0  0  0  0  0
  -47.2437  -28.9954    7.1464 N   0  0  0  0  0  0  0  0  0  0  0  0
  -45.5803  -29.4898    2.7646 N   0  0  0  0  0  0  0  0  0  0  0  0
  -45.0182  -33.5016    1.4431 O   0  0  0  0  0  0  0  0  0  0  0  0
  -52.4609  -29.2625    5.6796 Br  0  0  0  0  0  0  0  0  0  0  0  0
  -48.2414  -29.5861    2.8712 H   0  0  0  0  0  0  0  0  0  0  0  0
  -50.7247  -29.5752    3.2431 H   0  0  0  0  0  0  0  0  0  0  0  0
  -50.1089  -28.9563    7.4783 H   0  0  0  0  0  0  0  0  0  0  0  0
  -42.7563  -29.2500    6.2374 H   0  0  0  0  0  0  0  0  0  0  0  0
  -43.3467  -31.4473    1.0102 H   0  0  0  0  0  0  0  0  0  0  0  0
  -43.7451  -31.5517    2.7586 H   0  0  0  0  0  0  0  0  0  0  0  0
  -43.6154  -29.1812    2.0213 H   0  0  0  0  0  0  0  0  0  0  0  0
  -44.8619  -29.4953    0.7666 H   0  0  0  0  0  0  0  0  0  0  0  0
  -46.1467  -31.9391    2.1828 H   0  0  0  0  0  0  0  0  0  0  0  0
  -45.7383  -31.8496    0.4358 H   0  0  0  0  0  0  0  0  0  0  0  0
  -47.3172  -28.8503    8.1331 H   0  0  0  0  0  0  0  0  0  0  0  0
  -46.2585  -30.2171    2.6588 H   0  0  0  0  0  0  0  0  0  0  0  0
  -45.7856  -34.0224    1.2370 H   0  0  0  0  0  0  0  0  0  0  0  0
  1  2  1  0  0  0  0
  1  5  2  0  0  0  0
  2  8  2  0  0  0  0
  3  7  2  0  0  0  0
  3  8  1  0  0  0  0
  4 14  1  0  0  0  0
  4 15  2  0  0  0  0
  5  6  1  0  0  0  0
  5  7  1  0  0  0  0
  6  9  1  0  0  0  0
  6 10  2  0  0  0  0
  7 16  1  0  0  0  0
  8 19  1  0  0  0  0
  9 14  2  0  0  0  0
  9 16  1  0  0  0  0
 10 15  1  0  0  0  0
 10 17  1  0  0  0  0
 11 12  1  0  0  0  0
 11 13  1  0  0  0  0
 12 17  1  0  0  0  0
 13 18  1  0  0  0  0
  1 20  1  0  0  0  0
  2 21  1  0  0  0  0
  3 22  1  0  0  0  0
  4 23  1  0  0  0  0
 11 24  1  0  0  0  0
 11 25  1  0  0  0  0
 12 26  1  0  0  0  0
 12 27  1  0  0  0  0
 13 28  1  0  0  0  0
 13 29  1  0  0  0  0
 16 30  1  0  0  0  0
 17 31  1  0  0  0  0
 18 32  1  0  0  0  0
M  END
> <POSIT::Probability>
0.93

> <POSIT::Method>
SHAPEFIT

> <ReceptorTitle>
UCSF-P4463-REFINED_LIGAND-BOUND-STATE_A__DU__LA1_A-201(A)

> <OMEGA_C>
8ZtCwque68FoG3dAJTVIwqON68EbfIJAcNZGwgHE6MENgs9A5yMvwvnt6cFpFL1A40E/wpY+6sGb
W59Ah2s5wuAv6sEH56JAYUpBwuTi6MFPv8hA8E1Kwhoe6sHLT6xA2C84wiLl6MHpKc5AEU01wngl
68FOPIRALoEwwnIp+sGEB+I/oAUywns17sGMYuI/O3Q1wh1/AMIQabc/ngszwqq86MGh49pAaSww
wkcK68GZjpJAk/k8wpL258Gpr+RARlI2wjTr68EC8DBAqBI0wq4BBsLctrg/69dRwq8Z6sFXv7VA
NPdAwmqw7MFvwjdAIuZKwvuZ7MGEjk9Ah29Iwm6m58EWTu9AdgYrwgoA6sFzmMdA+mItwg6U+8Gi
TYE/+vouwuNp/MEijTBAOHYuwghz6cGxXQFAinIzwlf268GPPUQ/OZY4wi+D/8HtsgtADfQ2wgHM
/sGmJN8+10Q9wnHN5sFLIQJBrAg5wrK88cFyKipAaiQ3wvsWCMJvV54/

> <OMEGA_E>
UMyTPg==

> <OMEGA_NBR>
     12488

$$$$
CACHE3-HO_1715_37
  -OEChem-03092622513D

 40 43  0     0  0  0  0  0  0999 V2000
  -48.6838  -29.3992    3.9341 C   0  0  0  0  0  0  0  0  0  0  0  0
  -50.0748  -29.3774    4.1490 C   0  0  0  0  0  0  0  0  0  0  0  0
  -49.7181  -29.0502    6.5596 C   0  0  0  0  0  0  0  0  0  0  0  0
  -43.7951  -29.2372    5.8620 C   0  0  0  0  0  0  0  0  0  0  0  0
  -47.8390  -29.2573    5.0557 C   0  0  0  0  0  0  0  0  0  0  0  0
  -46.3882  -29.2765    5.1540 C   0  0  0  0  0  0  0  0  0  0  0  0
  -48.3289  -29.0768    6.3497 C   0  0  0  0  0  0  0  0  0  0  0  0
  -50.5895  -29.2095    5.4564 C   0  0  0  0  0  0  0  0  0  0  0  0
  -46.0406  -29.0908    6.4868 C   0  0  0  0  0  0  0  0  0  0  0  0
  -45.4124  -29.4444    4.1688 C   0  0  0  0  0  0  0  0  0  0  0  0
  -42.5493  -32.1754    0.8597 C   0  0  0  0  0  0  0  0  0  0  0  0
  -42.6769  -32.1567    2.3875 C   0  0  0  0  0  0  0  0  0  0  0  0
  -43.7640  -31.5065    1.5175 C   0  0  0  0  0  0  0  0  0  0  0  0
  -43.7339  -29.9461    1.4494 C   0  0  0  0  0  0  0  0  0  0  0  0
  -45.1170  -32.2757    1.4374 C   0  0  0  0  0  0  0  0  0  0  0  0
  -45.0563  -29.2019    1.6832 C   0  0  0  0  0  0  0  0  0  0  0  0
  -44.7365  -29.0778    6.8351 N   0  0  0  0  0  0  0  0  0  0  0  0
  -44.1103  -29.4097    4.5457 N   0  0  0  0  0  0  0  0  0  0  0  0
  -47.2299  -28.9640    7.2110 N   0  0  0  0  0  0  0  0  0  0  0  0
  -45.9383  -31.8698    0.2819 N   0  0  0  0  0  0  0  0  0  0  0  0
  -45.8048  -29.6635    2.8585 N   0  0  0  0  0  0  0  0  0  0  0  0
  -52.4731  -29.2048    5.7337 Br  0  0  0  0  0  0  0  0  0  0  0  0
  -48.2756  -29.5209    2.9416 H   0  0  0  0  0  0  0  0  0  0  0  0
  -50.7508  -29.4890    3.3141 H   0  0  0  0  0  0  0  0  0  0  0  0
  -50.1167  -28.9095    7.5535 H   0  0  0  0  0  0  0  0  0  0  0  0
  -42.7531  -29.2264    6.1457 H   0  0  0  0  0  0  0  0  0  0  0  0
  -41.7839  -31.5598    0.3645 H   0  0  0  0  0  0  0  0  0  0  0  0
  -42.6728  -33.1197    0.3093 H   0  0  0  0  0  0  0  0  0  0  0  0
  -42.8925  -33.0874    2.9328 H   0  0  0  0  0  0  0  0  0  0  0  0
  -42.0037  -31.5274    2.9880 H   0  0  0  0  0  0  0  0  0  0  0  0
  -43.0200  -29.5966    2.2098 H   0  0  0  0  0  0  0  0  0  0  0  0
  -43.3706  -29.6666    0.4495 H   0  0  0  0  0  0  0  0  0  0  0  0
  -44.9050  -33.3521    1.3570 H   0  0  0  0  0  0  0  0  0  0  0  0
  -45.6863  -32.0819    2.3585 H   0  0  0  0  0  0  0  0  0  0  0  0
  -44.8324  -28.1330    1.8144 H   0  0  0  0  0  0  0  0  0  0  0  0
  -45.6905  -29.3375    0.7948 H   0  0  0  0  0  0  0  0  0  0  0  0
  -47.2874  -28.8148    8.1981 H   0  0  0  0  0  0  0  0  0  0  0  0
  -46.7912  -32.3919    0.2788 H   0  0  0  0  0  0  0  0  0  0  0  0
  -46.1454  -30.8936    0.3468 H   0  0  0  0  0  0  0  0  0  0  0  0
  -45.8757  -30.6562    2.7605 H   0  0  0  0  0  0  0  0  0  0  0  0
  1  2  1  0  0  0  0
  1  5  2  0  0  0  0
  2  8  2  0  0  0  0
  3  7  2  0  0  0  0
  3  8  1  0  0  0  0
  4 17  1  0  0  0  0
  4 18  2  0  0  0  0
  5  6  1  0  0  0  0
  5  7  1  0  0  0  0
  6  9  1  0  0  0  0
  6 10  2  0  0  0  0
  7 19  1  0  0  0  0
  8 22  1  0  0  0  0
  9 17  2  0  0  0  0
  9 19  1  0  0  0  0
 10 18  1  0  0  0  0
 10 21  1  0  0  0  0
 11 12  1  0  0  0  0
 11 13  1  0  0  0  0
 12 13  1  0  0  0  0
 13 14  1  0  0  0  0
 13 15  1  0  0  0  0
 14 16  1  0  0  0  0
 15 20  1  0  0  0  0
 16 21  1  0  0  0  0
  1 23  1  0  0  0  0
  2 24  1  0  0  0  0
  3 25  1  0  0  0  0
  4 26  1  0  0  0  0
 11 27  1  0  0  0  0
 11 28  1  0  0  0  0
 12 29  1  0  0  0  0
 12 30  1  0  0  0  0
 14 31  1  0  0  0  0
 14 32  1  0  0  0  0
 15 33  1  0  0  0  0
 15 34  1  0  0  0  0
 16 35  1  0  0  0  0
 16 36  1  0  0  0  0
 19 37  1  0  0  0  0
 20 38  1  0  0  0  0
 20 39  1  0  0  0  0
 21 40  1  0  0  0  0
M  END
> <POSIT::Probability>
0.9

> <POSIT::Method>
SHAPEFIT

> <ReceptorTitle>
UCSF-P4463-REFINED_LIGAND-BOUND-STATE_A__DU__LA1_A-201(A)

> <OMEGA_C>
LbxCwqMx68GlyHtAnkxIwtwE68GexIRASt9GwsZm6MGM6NFALy4vwsnl6cEmlbtAJ1s/wtsO6sGK
yKFAjY05wjc26sE07aRAxVBBwj+d6MHAMMtAmltKwvms6cG2mq5AiCk4wuO56MFElM9AUqY1whyO
68GKZoVAczIqwp6zAMKwFVw/L7UqwoOgAMJRzBhAUg4vwmoN/MFOPMI/f+8uwomR78EGh7k/znc0
wkkaAcJ2/bc/nDk0wped6cGOdNc/KPIywmOf6MF+udpA5nAwwhxH68EKdpFAX+s8wju258GKwOZA
18A3wkT1/sFYWpA+Izg3wuxO7cHZ8TZAaeRRwnuj6cEuerdAPBpBws4q7MHdQzxAywBLwn7p68GU
GlRAg3dIwrZG58H5tfFAKQMrwrHP6cE+qcRAuSInwml6/MHloLo+7rAqwp96BMLpWZ4+9JErwoRZ
BMLvsjtAvwMowjM4/MHOOz9AdBQsws7F7MHObQ1Af3stwiBV7cEBIuY+vp4zwoBoBcJ0sa0/wb42
wt9TAMKK8RZAa1QzwlQQ4cFqPeg/E8M2wiaz6sGxdks/VSY9wrCE5sGPKwNBMCo7wkORAcL1uY4+
7ZQ4whYm98G7k7E+voA3wuI/9cEQrDBA

> <OMEGA_E>
2F6rPg==

> <OMEGA_NBR>
     13812

$$$$
CACHE3-HO_1715_40
  -OEChem-03092622513D

 36 39  0     0  0  0  0  0  0999 V2000
  -49.9613  -29.3838    3.8450 C   0  0  0  0  0  0  0  0  0  0  0  0
  -50.5537  -29.2530    5.1262 C   0  0  0  0  0  0  0  0  0  0  0  0
  -48.5551  -29.3950    3.7051 C   0  0  0  0  0  0  0  0  0  0  0  0
  -49.7473  -29.1357    6.2813 C   0  0  0  0  0  0  0  0  0  0  0  0
  -43.7944  -29.2518    5.9599 C   0  0  0  0  0  0  0  0  0  0  0  0
  -47.7778  -29.2737    4.8729 C   0  0  0  0  0  0  0  0  0  0  0  0
  -46.3296  -29.2709    5.0505 C   0  0  0  0  0  0  0  0  0  0  0  0
  -48.3480  -29.1487    6.1446 C   0  0  0  0  0  0  0  0  0  0  0  0
  -46.0768  -29.1498    6.4166 C   0  0  0  0  0  0  0  0  0  0  0  0
  -45.2704  -29.3690    4.1280 C   0  0  0  0  0  0  0  0  0  0  0  0
  -45.1694  -32.1998    1.4286 C   0  0  0  0  0  0  0  0  0  0  0  0
  -42.6534  -31.5427    1.0858 C   0  0  0  0  0  0  0  0  0  0  0  0
  -42.8485  -31.6843    2.6021 C   0  0  0  0  0  0  0  0  0  0  0  0
  -44.0148  -31.2095    1.7124 C   0  0  0  0  0  0  0  0  0  0  0  0
  -44.4141  -29.7141    1.7678 C   0  0  0  0  0  0  0  0  0  0  0  0
  -44.8053  -29.1399    6.8617 N   0  0  0  0  0  0  0  0  0  0  0  0
  -44.0054  -29.3540    4.6183 N   0  0  0  0  0  0  0  0  0  0  0  0
  -47.3068  -29.0621    7.0712 N   0  0  0  0  0  0  0  0  0  0  0  0
  -46.3512  -31.7471    0.8698 N   0  0  0  0  0  0  0  0  0  0  0  0
  -45.4974  -29.4638    2.7560 N   0  0  0  0  0  0  0  0  0  0  0  0
  -45.0119  -33.4055    1.5819 O   0  0  0  0  0  0  0  0  0  0  0  0
  -50.5884  -29.4755    2.9705 H   0  0  0  0  0  0  0  0  0  0  0  0
  -51.6295  -29.2428    5.2205 H   0  0  0  0  0  0  0  0  0  0  0  0
  -48.0919  -29.4934    2.7345 H   0  0  0  0  0  0  0  0  0  0  0  0
  -50.2004  -29.0374    7.2567 H   0  0  0  0  0  0  0  0  0  0  0  0
  -42.7776  -29.2601    6.3238 H   0  0  0  0  0  0  0  0  0  0  0  0
  -42.0206  -30.7365    0.6864 H   0  0  0  0  0  0  0  0  0  0  0  0
  -42.5418  -32.4406    0.4602 H   0  0  0  0  0  0  0  0  0  0  0  0
  -42.8785  -32.6830    3.0623 H   0  0  0  0  0  0  0  0  0  0  0  0
  -42.3573  -30.9789    3.2885 H   0  0  0  0  0  0  0  0  0  0  0  0
  -43.5318  -29.1209    2.0501 H   0  0  0  0  0  0  0  0  0  0  0  0
  -44.7624  -29.4022    0.7721 H   0  0  0  0  0  0  0  0  0  0  0  0
  -47.4249  -28.9533    8.0582 H   0  0  0  0  0  0  0  0  0  0  0  0
  -47.0585  -32.4000    0.5990 H   0  0  0  0  0  0  0  0  0  0  0  0
  -46.4981  -30.7669    0.7368 H   0  0  0  0  0  0  0  0  0  0  0  0
  -46.1552  -30.2075    2.6370 H   0  0  0  0  0  0  0  0  0  0  0  0
  1  2  1  0  0  0  0
  1  3  2  0  0  0  0
  2  4  2  0  0  0  0
  3  6  1  0  0  0  0
  4  8  1  0  0  0  0
  5 16  1  0  0  0  0
  5 17  2  0  0  0  0
  6  7  1  0  0  0  0
  6  8  2  0  0  0  0
  7  9  1  0  0  0  0
  7 10  2  0  0  0  0
  8 18  1  0  0  0  0
  9 16  2  0  0  0  0
  9 18  1  0  0  0  0
 10 17  1  0  0  0  0
 10 20  1  0  0  0  0
 11 14  1  0  0  0  0
 11 19  1  0  0  0  0
 11 21  2  0  0  0  0
 12 13  1  0  0  0  0
 12 14  1  0  0  0  0
 13 14  1  0  0  0  0
 14 15  1  0  0  0  0
 15 20  1  0  0  0  0
  1 22  1  0  0  0  0
  2 23  1  0  0  0  0
  3 24  1  0  0  0  0
  4 25  1  0  0  0  0
  5 26  1  0  0  0  0
 12 27  1  0  0  0  0
 12 28  1  0  0  0  0
 13 29  1  0  0  0  0
 13 30  1  0  0  0  0
 15 31  1  0  0  0  0
 15 32  1  0  0  0  0
 18 33  1  0  0  0  0
 19 34  1  0  0  0  0
 19 35  1  0  0  0  0
 20 36  1  0  0  0  0
M  END
> <POSIT::Probability>
0.95

> <POSIT::Method>
SHAPEFIT

> <ReceptorTitle>
UCSF-P4463-REFINED_LIGAND-BOUND-STATE_A__DU__LA1_A-201(A)

> <OMEGA_C>
XthHwgsS68HdFHZAADdKwhMG6sHLCaRAcjhCwgop68F1IG1ANf1GwvQV6cFqAMlAgy0vwrYD6sE9
t75Afhw/woUw6sEQ75tAilE5wuAq6sFhnaFAWGRBwoMw6cHMoMRApU44wsUy6cGDVM1A7hQ1wqbz
6sHtGIRAhK00wpfMAMKx3LY/G50qwm9X/MF/+oo/22QrwnJ5/cGhiCZAJA8wwhit+cE4Mds/DKgx
wmK27cF5SOI/qTgzwnwe6cEQk9tAhgUwwvfU6sE4yZNANjo9wiZ/6MFZR+JAlGc5wgr6/cFIrl4/
Yv01wtG168ElYjBALww0wkCfBcK3fMo/jFpKwsXN68FyHT5ApYROwjTx6cGXDqdAH15AwpXy68Fi
AS9ANc1IwphM6MHsNuhAUBwrwqoU6sGtXMpAFhUowkvk9cHQtC8/xCoqwiDDAcKsmus+jIMrwlu7
AsJX/ENA3m0pwsHU98E2dlJAiCAuwp736MFANANAsgwzwqY368GTqkU/GrM9wk+g58GK7gBB5zs8
wpiZAcKUVRk/Av45wqoi9sEcnzw/9p44wv2o8cEexChA

> <OMEGA_E>
kBMXPg==

> <OMEGA_NBR>
     15056

$$$$
CACHE3-HO_1715_41
  -OEChem-03092622513D

 35 38  0     0  0  0  0  0  0999 V2000
  -49.9553  -29.4097    3.8464 C   0  0  0  0  0  0  0  0  0  0  0  0
  -50.5510  -29.2139    5.1178 C   0  0  0  0  0  0  0  0  0  0  0  0
  -48.5489  -29.4410    3.7142 C   0  0  0  0  0  0  0  0  0  0  0  0
  -49.7477  -29.0624    6.2720 C   0  0  0  0  0  0  0  0  0  0  0  0
  -44.2513  -32.9958    1.7985 C   0  0  0  0  0  0  0  0  0  0  0  0
  -43.0662  -32.2910    2.0808 C   0  0  0  0  0  0  0  0  0  0  0  0
  -43.7954  -29.3335    5.9673 C   0  0  0  0  0  0  0  0  0  0  0  0
  -47.7759  -29.2714    4.8790 C   0  0  0  0  0  0  0  0  0  0  0  0
  -46.3303  -29.2951    5.0627 C   0  0  0  0  0  0  0  0  0  0  0  0
  -48.3478  -29.1043    6.1439 C   0  0  0  0  0  0  0  0  0  0  0  0
  -46.0767  -29.1769    6.4270 C   0  0  0  0  0  0  0  0  0  0  0  0
  -45.2805  -32.3166    1.1202 C   0  0  0  0  0  0  0  0  0  0  0  0
  -45.2730  -29.3354    4.1376 C   0  0  0  0  0  0  0  0  0  0  0  0
  -44.0699  -30.3439    1.2679 C   0  0  0  0  0  0  0  0  0  0  0  0
  -44.4186  -28.9796    1.7692 C   0  0  0  0  0  0  0  0  0  0  0  0
  -42.9949  -30.9683    1.8168 N   0  0  0  0  0  0  0  0  0  0  0  0
  -44.8032  -29.1869    6.8699 N   0  0  0  0  0  0  0  0  0  0  0  0
  -44.0074  -29.3875    4.6232 N   0  0  0  0  0  0  0  0  0  0  0  0
  -45.1202  -31.0327    0.7713 N   0  0  0  0  0  0  0  0  0  0  0  0
  -47.3067  -29.0288    7.0738 N   0  0  0  0  0  0  0  0  0  0  0  0
  -46.5165  -32.9077    0.9250 N   0  0  0  0  0  0  0  0  0  0  0  0
  -45.5048  -29.1442    2.7792 N   0  0  0  0  0  0  0  0  0  0  0  0
  -50.5797  -29.5356    2.9742 H   0  0  0  0  0  0  0  0  0  0  0  0
  -51.6269  -29.1802    5.2058 H   0  0  0  0  0  0  0  0  0  0  0  0
  -48.0821  -29.5902    2.7518 H   0  0  0  0  0  0  0  0  0  0  0  0
  -50.2038  -28.9163    7.2400 H   0  0  0  0  0  0  0  0  0  0  0  0
  -44.3675  -34.0281    2.0940 H   0  0  0  0  0  0  0  0  0  0  0  0
  -42.2176  -32.8055    2.5067 H   0  0  0  0  0  0  0  0  0  0  0  0
  -42.7822  -29.4104    6.3333 H   0  0  0  0  0  0  0  0  0  0  0  0
  -43.5382  -28.5130    2.2354 H   0  0  0  0  0  0  0  0  0  0  0  0
  -44.7696  -28.3509    0.9376 H   0  0  0  0  0  0  0  0  0  0  0  0
  -47.4246  -28.8893    8.0569 H   0  0  0  0  0  0  0  0  0  0  0  0
  -47.1459  -32.2411    0.5256 H   0  0  0  0  0  0  0  0  0  0  0  0
  -46.4191  -33.6868    0.3057 H   0  0  0  0  0  0  0  0  0  0  0  0
  -46.0375  -29.9357    2.4797 H   0  0  0  0  0  0  0  0  0  0  0  0
  1  2  1  0  0  0  0
  1  3  2  0  0  0  0
  2  4  2  0  0  0  0
  3  8  1  0  0  0  0
  4 10  1  0  0  0  0
  5  6  1  0  0  0  0
  5 12  2  0  0  0  0
  6 16  2  0  0  0  0
  7 17  1  0  0  0  0
  7 18  2  0  0  0  0
  8  9  1  0  0  0  0
  8 10  2  0  0  0  0
  9 11  1  0  0  0  0
  9 13  2  0  0  0  0
 10 20  1  0  0  0  0
 11 17  2  0  0  0  0
 11 20  1  0  0  0  0
 12 19  1  0  0  0  0
 12 21  1  0  0  0  0
 13 18  1  0  0  0  0
 13 22  1  0  0  0  0
 14 15  1  0  0  0  0
 14 16  1  0  0  0  0
 14 19  2  0  0  0  0
 15 22  1  0  0  0  0
  1 23  1  0  0  0  0
  2 24  1  0  0  0  0
  3 25  1  0  0  0  0
  4 26  1  0  0  0  0
  5 27  1  0  0  0  0
  6 28  1  0  0  0  0
  7 29  1  0  0  0  0
 15 30  1  0  0  0  0
 15 31  1  0  0  0  0
 20 32  1  0  0  0  0
 21 33  1  0  0  0  0
 21 34  1  0  0  0  0
 22 35  1  0  0  0  0
M  END
> <POSIT::Probability>
0.79

> <POSIT::Method>
SHAPEFIT

> <ReceptorTitle>
UCSF-P4463-REFINED_LIGAND-BOUND-STATE_A__DU__LA1_A-201(A)

> <OMEGA_C>
OdJHwiVH68GjKnZANDRKwha26cEuxaNABzJCwkWH68HXtW1AqP1Gwsl/6MEctMhAVgExwrz7A8Lc
NuY/1UMswvApAcIDLAVAdS4vwviq6sFu9L5AkRo/wtIr6sGyIJxANVI5wk5c6sFUAaJAMWRBwpnV
6MEGm8RAhk44wj9q6cEuqs1ARR81wjhEAcIWY48/hxc1wtyu6sFkZ4RAi0cwwlzA8sEaS6I/p6wx
wjTW58GmdeI/xforwiO/98Gui+g/dTYzwsF+6cEa1ttAlgcwwpwZ68Es8ZNAD3s0wg9D+MFMc0U/
BTo9wvA66MEuXOJA2hA6wnihA8JszGw/4wQ2wmQn6cFH3jFAplFKwv9I7MGGWT5A6IFOwvNw6cHt
laZAFVRAwqe47MEAHTBAu9BIwo1U58HdredAU3gxws0cCMJ7AwZAyt4owtI4A8I6biBA9SArwoRI
68GBqspAKCcuwrca5MESEA9ABxQzwrnO4sHTBHA/1LI9wlAd58Es6QBBZpU8wuv2AMIRjgY/Mq05
wkG/BsIggpw+cCY4wmR878HEsx5A

> <OMEGA_E>
pkMbPw==

> <OMEGA_NBR>
     16280

$$$$
CACHE3-HO_1718_1
  -OEChem-03092622513D

 37 41  0     1  0  0  0  0  0999 V2000
  -48.8213  -29.3012    3.8833 C   0  0  0  0  0  0  0  0  0  0  0  0
  -50.2069  -29.2136    4.1625 C   0  0  0  0  0  0  0  0  0  0  0  0
  -49.7459  -29.0827    6.5721 C   0  0  0  0  0  0  0  0  0  0  0  0
  -43.8635  -29.3274    5.6866 C   0  0  0  0  0  0  0  0  0  0  0  0
  -47.9318  -29.2918    4.9740 C   0  0  0  0  0  0  0  0  0  0  0  0
  -46.4724  -29.3713    5.0142 C   0  0  0  0  0  0  0  0  0  0  0  0
  -48.3720  -29.1573    6.2962 C   0  0  0  0  0  0  0  0  0  0  0  0
  -50.6660  -29.1204    5.5029 C   0  0  0  0  0  0  0  0  0  0  0  0
  -46.0905  -29.2096    6.3476 C   0  0  0  0  0  0  0  0  0  0  0  0
  -45.5000  -29.5744    4.0088 C   0  0  0  0  0  0  0  0  0  0  0  0
  -44.5638  -31.9439    1.9895 C   0  0  0  0  0  0  0  0  0  0  0  0
  -46.6231  -31.1034    0.8310 C   0  0  0  0  0  0  0  0  0  0  0  0
  -46.0514  -29.7562    0.3401 C   0  0  0  0  0  0  0  0  0  0  0  0
  -43.6955  -29.6796    1.3685 C   0  0  0  0  0  0  0  0  0  0  0  0
  -45.9591  -31.2986    2.1992 C   0  0  2  0  0  0  0  0  0  0  0  0
  -45.1915  -29.2366    1.5167 C   0  0  2  0  0  0  0  0  0  0  0  0
  -44.7855  -29.1978    6.6742 N   0  0  0  0  0  0  0  0  0  0  0  0
  -44.1970  -29.5224    4.3821 N   0  0  0  0  0  0  0  0  0  0  0  0
  -47.2481  -29.1115    7.1183 N   0  0  0  0  0  0  0  0  0  0  0  0
  -43.5203  -31.1345    1.5604 N   0  0  0  0  0  0  0  0  0  0  0  0
  -45.8330  -29.8897    2.6851 N   0  0  2  0  0  0  0  0  0  0  0  0
  -44.4638  -33.1560    1.8431 O   0  0  0  0  0  0  0  0  0  0  0  0
  -52.5349  -29.0509    5.8812 Br  0  0  0  0  0  0  0  0  0  0  0  0
  -48.4596  -29.3728    2.8682 H   0  0  0  0  0  0  0  0  0  0  0  0
  -50.9191  -29.2178    3.3506 H   0  0  0  0  0  0  0  0  0  0  0  0
  -50.0949  -28.9974    7.5906 H   0  0  0  0  0  0  0  0  0  0  0  0
  -42.8171  -29.2731    5.9483 H   0  0  0  0  0  0  0  0  0  0  0  0
  -47.7176  -31.0534    0.9289 H   0  0  0  0  0  0  0  0  0  0  0  0
  -46.3533  -31.9186    0.1434 H   0  0  0  0  0  0  0  0  0  0  0  0
  -45.4319  -29.9025   -0.5570 H   0  0  0  0  0  0  0  0  0  0  0  0
  -46.8641  -29.0505    0.1135 H   0  0  0  0  0  0  0  0  0  0  0  0
  -43.3449  -29.4108    0.3611 H   0  0  0  0  0  0  0  0  0  0  0  0
  -43.0931  -29.1485    2.1202 H   0  0  0  0  0  0  0  0  0  0  0  0
  -46.5841  -31.9106    2.8661 H   0  0  0  0  0  0  0  0  0  0  0  0
  -45.2570  -28.1407    1.5851 H   0  0  0  0  0  0  0  0  0  0  0  0
  -47.2687  -29.0217    8.1140 H   0  0  0  0  0  0  0  0  0  0  0  0
  -42.6278  -31.5464    1.3766 H   0  0  0  0  0  0  0  0  0  0  0  0
  1  2  1  0  0  0  0
  1  5  2  0  0  0  0
  2  8  2  0  0  0  0
  3  7  2  0  0  0  0
  3  8  1  0  0  0  0
  4 17  1  0  0  0  0
  4 18  2  0  0  0  0
  5  6  1  0  0  0  0
  5  7  1  0  0  0  0
  6  9  1  0  0  0  0
  6 10  2  0  0  0  0
  7 19  1  0  0  0  0
  8 23  1  0  0  0  0
  9 17  2  0  0  0  0
  9 19  1  0  0  0  0
 10 18  1  0  0  0  0
 10 21  1  0  0  0  0
 11 15  1  0  0  0  0
 11 20  1  0  0  0  0
 11 22  2  0  0  0  0
 12 13  1  0  0  0  0
 12 15  1  0  0  0  0
 13 16  1  0  0  0  0
 14 16  1  0  0  0  0
 14 20  1  0  0  0  0
 15 21  1  0  0  0  0
 16 21  1  0  0  0  0
  1 24  1  0  0  0  0
  2 25  1  0  0  0  0
  3 26  1  0  0  0  0
  4 27  1  0  0  0  0
 12 28  1  0  0  0  0
 12 29  1  0  0  0  0
 13 30  1  0  0  0  0
 13 31  1  0  0  0  0
 14 32  1  0  0  0  0
 14 33  1  0  0  0  0
 15 34  1  0  0  0  0
 16 35  1  0  0  0  0
 19 36  1  0  0  0  0
 20 37  1  0  0  0  0
M  END
> <POSIT::Probability>
0.72

> <POSIT::Method>
SHAPEFIT

> <ReceptorTitle>
UCSF-P4463-REFINED_LIGAND-BOUND-STATE_A__DU__LA1_A-201(A)

> <OMEGA_C>
DElDwt1o6sFph3hA5dNIwoG16cEeM4VA1ftGwlGp6MFmTtJAL3Qvwnie6sGw+LVANbo/wppV6sHI
Kp9AteM5wnH46sFgdKBA5HxBwhRC6cHMeslACKpKwov26MHsF7BAtlw4wiqt6cF4H8tABgA2wlWY
7MEsSIBASkEywjSN/8GKpv4/CH46wrzT+MGsuVQ/nzQ4wrwM7sG4J64+J8guwsZv7cFCLK8/FNY3
wnJj+sEcvwxAFcQ0wnrk6cHOIcI/VyQzwimV6cG6ktVAsMkwwvAt7MHCOYxAEP48wm3k6MHWyONA
yRQuwn8T+cESu8c/CFU3whIe78Fn2CtA+9oxwsmfBMJS7Os/wiNSwj5o6MHcMrxAn9ZBwmj76sES
kDdAJ61LwgW+6cHbb1ZANWFIwrj658Hn5fJArEQrwmQv6sHUWL5Ayt4+wnBt+MEUzm0/ymk5wjdZ
/8Hl2xI+Rbo1wk4478GNlg6/2XQ7wlVn6MH2Xeg9L2EtwkJJ68FA57g+TV8swhgw6cEWsgdAFVY6
wttI/8E0bjdAMwc1wg4g4cGx5co/JhM9wmYs6MH60gFB3YIqwgtf/MGbM7A/

> <OMEGA_E>
+FY2Pw==

> <OMEGA_NBR>
     17551

$$$$
CACHE3HI_1687_14
  -OEChem-03092622513D

 32 34  0     0  0  0  0  0  0999 V2000
  -44.9508  -32.8091    1.2665 C   0  0  0  0  0  0  0  0  0  0  0  0
  -46.1543  -32.1841    0.9397 C   0  0  0  0  0  0  0  0  0  0  0  0
  -43.7866  -32.0527    1.4005 C   0  0  0  0  0  0  0  0  0  0  0  0
  -46.1936  -30.8030    0.7473 C   0  0  0  0  0  0  0  0  0  0  0  0
  -45.7382  -29.5364    4.0672 C   0  0  0  0  0  0  0  0  0  0  0  0
  -48.1560  -28.8017    4.7677 C   0  0  0  0  0  0  0  0  0  0  0  0
  -44.4160  -29.7097    6.0614 C   0  0  0  0  0  0  0  0  0  0  0  0
  -46.8004  -29.1633    4.8995 C   0  0  0  0  0  0  0  0  0  0  0  0
  -43.8260  -30.6717    1.2080 C   0  0  0  0  0  0  0  0  0  0  0  0
  -44.5153  -29.8151    4.6786 C   0  0  0  0  0  0  0  0  0  0  0  0
  -45.0294  -30.0466    0.8813 C   0  0  0  0  0  0  0  0  0  0  0  0
  -46.5646  -29.0977    6.2638 C   0  0  0  0  0  0  0  0  0  0  0  0
  -42.5510  -29.9012    1.3626 C   0  0  0  0  0  0  0  0  0  0  0  0
  -45.4121  -29.3538    6.9077 N   0  0  0  0  0  0  0  0  0  0  0  0
  -48.7354  -28.5293    5.9419 N   0  0  0  0  0  0  0  0  0  0  0  0
  -47.7446  -28.7171    6.8315 N   0  0  0  0  0  0  0  0  0  0  0  0
  -43.3864  -30.2008    3.8974 N   0  0  0  0  0  0  0  0  0  0  0  0
  -43.5168  -27.8739    2.7052 O   0  0  0  0  0  0  0  0  0  0  0  0
  -41.2748  -28.8205    3.3546 O   0  0  0  0  0  0  0  0  0  0  0  0
  -42.6392  -29.0107    2.8999 S   0  0  0  0  0  0  0  0  0  0  0  0
  -45.1326  -28.1725    0.6099 Br  0  0  0  0  0  0  0  0  0  0  0  0
  -44.9205  -33.8844    1.4163 H   0  0  0  0  0  0  0  0  0  0  0  0
  -47.0608  -32.7730    0.8353 H   0  0  0  0  0  0  0  0  0  0  0  0
  -42.8542  -32.5497    1.6552 H   0  0  0  0  0  0  0  0  0  0  0  0
  -47.1409  -30.3342    0.4933 H   0  0  0  0  0  0  0  0  0  0  0  0
  -45.8630  -29.6053    2.9911 H   0  0  0  0  0  0  0  0  0  0  0  0
  -48.7475  -28.7248    3.8666 H   0  0  0  0  0  0  0  0  0  0  0  0
  -43.4731  -29.9225    6.5602 H   0  0  0  0  0  0  0  0  0  0  0  0
  -42.4104  -29.1758    0.5564 H   0  0  0  0  0  0  0  0  0  0  0  0
  -41.6773  -30.5576    1.3989 H   0  0  0  0  0  0  0  0  0  0  0  0
  -47.9444  -28.5690    7.8128 H   0  0  0  0  0  0  0  0  0  0  0  0
  -42.7244  -30.8274    4.3855 H   0  0  0  0  0  0  0  0  0  0  0  0
  1  2  1  0  0  0  0
  1  3  2  0  0  0  0
  2  4  2  0  0  0  0
  3  9  1  0  0  0  0
  4 11  1  0  0  0  0
  5  8  2  0  0  0  0
  5 10  1  0  0  0  0
  6  8  1  0  0  0  0
  6 15  2  0  0  0  0
  7 10  2  0  0  0  0
  7 14  1  0  0  0  0
  8 12  1  0  0  0  0
  9 11  2  0  0  0  0
  9 13  1  0  0  0  0
 10 17  1  0  0  0  0
 11 21  1  0  0  0  0
 12 14  2  0  0  0  0
 12 16  1  0  0  0  0
 13 20  1  0  0  0  0
 15 16  1  0  0  0  0
 17 20  1  0  0  0  0
 18 20  2  0  0  0  0
 19 20  2  0  0  0  0
  1 22  1  0  0  0  0
  2 23  1  0  0  0  0
  3 24  1  0  0  0  0
  4 25  1  0  0  0  0
  5 26  1  0  0  0  0
  6 27  1  0  0  0  0
  7 28  1  0  0  0  0
 13 29  1  0  0  0  0
 13 30  1  0  0  0  0
 16 31  1  0  0  0  0
 17 32  1  0  0  0  0
M  END
> <POSIT::Probability>
0.33

> <POSIT::Method>
HYBRID

> <ReceptorTitle>
UCSF-P4463-REFINED_LIGAND-BOUND-STATE_A__DU__LA1_A-201(A)

> <OMEGA_C>
qs0zwpA8A8LKG6I/+J04wn28AMJMknA/hiUvwgM2AMIQQrM/Q8Y4woBs9sFKTj8/4vM2wn5K7MGA
JoJAuJ9AwuNp5sFWkZhA8qkxwnGt7cER98FApDM7wntO6cGqyJxA0k0vwoxf9cEFoJo/pQ8ywmGF
7sEat5VADx40wmJf8MF0m2E/MkI6wgjI6MHCcMhARjQqwro178Gqaq4//aU1wqTU6sHyC91ACvFC
wvU75MHeI75Ag/o+wq+85cF5m9pAt4stwkSb8cHZbnlAQREuwq/93sEcIi1AbhklwnmQ5sFBsVZA
ho4qwgEW6MEvmDlAyYc0wlRh4cHUIhw/m64zwp2JB8L8SbU/TT48wo8XA8Lo1lU/t2orwvAyAsK4
3tM/U5A8wmGs8sFYjvw+qnM3wrLX7MHZbj9Ae/1CwlzM5cFcdndAduQtwlhh78Hj7NFAR6Qpwhpo
6cG4cA4/jLUmwgJ29MGMELM/Ecc/wjyN5MFKAvpAxOUqwpye9sFYVoxA

> <OMEGA_E>
MEgdwQ==

> <OMEGA_NBR>
     18687

$$$$
CACHE3HI_1687_20
  -OEChem-03092622513D

 40 43  0     0  0  0  0  0  0999 V2000
  -49.1097  -29.2652    5.9077 C   0  0  0  0  0  0  0  0  0  0  0  0
  -49.8558  -29.2532    4.7263 C   0  0  0  0  0  0  0  0  0  0  0  0
  -47.8366  -29.1230    3.3835 C   0  0  0  0  0  0  0  0  0  0  0  0
  -44.7069  -32.1786    0.5490 C   0  0  0  0  0  0  0  0  0  0  0  0
  -46.4939  -32.8853    1.9478 C   0  0  0  0  0  0  0  0  0  0  0  0
  -45.5020  -29.1305    6.1956 C   0  0  0  0  0  0  0  0  0  0  0  0
  -47.0631  -29.1345    4.5615 C   0  0  0  0  0  0  0  0  0  0  0  0
  -44.8647  -33.3467   -0.1980 C   0  0  0  0  0  0  0  0  0  0  0  0
  -45.6663  -29.0881    4.8304 C   0  0  0  0  0  0  0  0  0  0  0  0
  -47.7160  -29.2049    5.7938 C   0  0  0  0  0  0  0  0  0  0  0  0
  -45.5341  -31.9361    1.6393 C   0  0  0  0  0  0  0  0  0  0  0  0
  -49.2312  -29.1832    3.4829 C   0  0  0  0  0  0  0  0  0  0  0  0
  -45.8520  -34.2493    0.2030 C   0  0  0  0  0  0  0  0  0  0  0  0
  -44.2780  -30.3322    3.1206 C   0  0  0  0  0  0  0  0  0  0  0  0
  -43.9591  -33.6566   -1.3571 C   0  0  0  0  0  0  0  0  0  0  0  0
  -46.0734  -35.5057   -0.5953 C   0  0  0  0  0  0  0  0  0  0  0  0
  -44.8387  -35.8533   -1.4162 C   0  0  0  0  0  0  0  0  0  0  0  0
  -44.5595  -29.0081    3.8129 C   0  0  0  0  0  0  0  0  0  0  0  0
  -46.6757  -34.0328    1.2566 N   0  0  0  0  0  0  0  0  0  0  0  0
  -46.7438  -29.2007    6.7685 N   0  0  0  0  0  0  0  0  0  0  0  0
  -45.3999  -30.7765    2.3988 N   0  0  0  0  0  0  0  0  0  0  0  0
  -43.1939  -30.9001    3.2073 O   0  0  0  0  0  0  0  0  0  0  0  0
  -44.4549  -34.7142   -2.1881 O   0  0  0  0  0  0  0  0  0  0  0  0
  -50.2782  -29.1678    1.9068 Br  0  0  0  0  0  0  0  0  0  0  0  0
  -49.5967  -29.3195    6.8757 H   0  0  0  0  0  0  0  0  0  0  0  0
  -50.9403  -29.3000    4.7979 H   0  0  0  0  0  0  0  0  0  0  0  0
  -47.3481  -29.0688    2.4143 H   0  0  0  0  0  0  0  0  0  0  0  0
  -43.9357  -31.4615    0.2772 H   0  0  0  0  0  0  0  0  0  0  0  0
  -47.1703  -32.7518    2.7869 H   0  0  0  0  0  0  0  0  0  0  0  0
  -44.6140  -29.1177    6.8127 H   0  0  0  0  0  0  0  0  0  0  0  0
  -43.8517  -32.7734   -1.9954 H   0  0  0  0  0  0  0  0  0  0  0  0
  -42.9658  -33.9383   -0.9888 H   0  0  0  0  0  0  0  0  0  0  0  0
  -46.3320  -36.3388    0.0669 H   0  0  0  0  0  0  0  0  0  0  0  0
  -46.9214  -35.3226   -1.2664 H   0  0  0  0  0  0  0  0  0  0  0  0
  -44.0007  -36.1741   -0.7850 H   0  0  0  0  0  0  0  0  0  0  0  0
  -45.0674  -36.6706   -2.1074 H   0  0  0  0  0  0  0  0  0  0  0  0
  -44.8141  -28.2586    3.0533 H   0  0  0  0  0  0  0  0  0  0  0  0
  -43.6373  -28.6625    4.2970 H   0  0  0  0  0  0  0  0  0  0  0  0
  -46.9219  -29.2454    7.7624 H   0  0  0  0  0  0  0  0  0  0  0  0
  -46.2214  -30.1608    2.4416 H   0  0  0  0  0  0  0  0  0  0  0  0
  1  2  1  0  0  0  0
  1 10  2  0  0  0  0
  2 12  2  0  0  0  0
  3  7  2  0  0  0  0
  3 12  1  0  0  0  0
  4  8  2  0  0  0  0
  4 11  1  0  0  0  0
  5 11  2  0  0  0  0
  5 19  1  0  0  0  0
  6  9  2  0  0  0  0
  6 20  1  0  0  0  0
  7  9  1  0  0  0  0
  7 10  1  0  0  0  0
  8 13  1  0  0  0  0
  8 15  1  0  0  0  0
  9 18  1  0  0  0  0
 10 20  1  0  0  0  0
 11 21  1  0  0  0  0
 12 24  1  0  0  0  0
 13 16  1  0  0  0  0
 13 19  2  0  0  0  0
 14 18  1  0  0  0  0
 14 21  1  0  0  0  0
 14 22  2  0  0  0  0
 15 23  1  0  0  0  0
 16 17  1  0  0  0  0
 17 23  1  0  0  0  0
  1 25  1  0  0  0  0
  2 26  1  0  0  0  0
  3 27  1  0  0  0  0
  4 28  1  0  0  0  0
  5 29  1  0  0  0  0
  6 30  1  0  0  0  0
 15 31  1  0  0  0  0
 15 32  1  0  0  0  0
 16 33  1  0  0  0  0
 16 34  1  0  0  0  0
 17 35  1  0  0  0  0
 17 36  1  0  0  0  0
 18 37  1  0  0  0  0
 18 38  1  0  0  0  0
 20 39  1  0  0  0  0
 21 40  1  0  0  0  0
M  END
> <POSIT::Probability>
0.18

> <POSIT::Method>
FRED

> <ReceptorTitle>
UCSF-P4463-REFINED_LIGAND-BOUND-STATE_A__DU__LA1_A-201(A)

> <OMEGA_C>
WXBEwiwf6sExDL1AVWxHwnQG6sGYPZdAsFg/wv776MHDi1hA2NMywua2AMLrjAw/y/k5woqKA8Iw
Ufk/AwI2wj4L6cF2QsZAk0A8wn0T6cGC95FAb3Uzwv5iBcJoxkq+Qqo2wnG06MG9kppAI90+wrCj
6cEhZ7lA5CI2wjp9/8G61dE/uOxEwhx36cGM6F5AcGg3wlX/CMKe5E8+nxwxwl6o8sGkuEdAKtYv
wmOgBsIUta2/Hks4wuAFDsIFaBi/4Vozws9pD8JcR7W/5jwywqIQ6MHsBnRA57M6wpkhCMJw2aA/
ovk6wg6b6cGMl9hAf5k1wlQ29sF6hhlAhMYswnQz98FqRE1A0tExwk3bCsJZCQzA4hxJwrNX6cG6
EfQ/+mJGwm+O6sFfBdxA28JLwltm6sEKiJlAcGQ9wvGM6MG4gxpAMr4vwhix+8EF6Y0+bq48wssB
A8L3XDJAtnQywvbw6MFvAdpAKGgvwu4XA8ICaf+/At0rwsvAB8IkIX2/A1Q5wuRaEcKQ9og9ea87
wllKDcLwGqK/wAAwwj2yEMJI80i/BkU0wr6uEsL23gbAsEEzwpoR4sHCaUNAkYwuwuNM5cHAgIlA
/687wn726cEyZfhAs+I4wkZJ8cGsQxxA

> <OMEGA_E>
OKMbwQ==

> <OMEGA_NBR>
     19982

$$$$
CACHE3HI_1687_5
  -OEChem-03092622513D

 32 34  0     0  0  0  0  0  0999 V2000
  -45.1843  -33.3207    2.0993 C   0  0  0  0  0  0  0  0  0  0  0  0
  -43.6898  -32.1678    0.5911 C   0  0  0  0  0  0  0  0  0  0  0  0
  -45.6556  -34.0953    1.0393 C   0  0  0  0  0  0  0  0  0  0  0  0
  -44.1611  -32.9423   -0.4690 C   0  0  0  0  0  0  0  0  0  0  0  0
  -45.6396  -29.0610    4.0189 C   0  0  0  0  0  0  0  0  0  0  0  0
  -48.1430  -29.1350    4.7959 C   0  0  0  0  0  0  0  0  0  0  0  0
  -44.2604  -29.0631    5.9818 C   0  0  0  0  0  0  0  0  0  0  0  0
  -46.7372  -29.1030    4.8871 C   0  0  0  0  0  0  0  0  0  0  0  0
  -44.2012  -32.3570    1.8751 C   0  0  0  0  0  0  0  0  0  0  0  0
  -44.3693  -29.0408    4.5958 C   0  0  0  0  0  0  0  0  0  0  0  0
  -45.1442  -33.9060   -0.2447 C   0  0  0  0  0  0  0  0  0  0  0  0
  -46.4868  -29.1218    6.2502 C   0  0  0  0  0  0  0  0  0  0  0  0
  -43.6960  -31.5240    3.0125 C   0  0  0  0  0  0  0  0  0  0  0  0
  -45.2893  -29.1039    6.8620 N   0  0  0  0  0  0  0  0  0  0  0  0
  -48.7385  -29.1711    5.9929 N   0  0  0  0  0  0  0  0  0  0  0  0
  -47.7077  -29.1617    6.8563 N   0  0  0  0  0  0  0  0  0  0  0  0
  -43.2027  -28.9972    3.7770 N   0  0  0  0  0  0  0  0  0  0  0  0
  -44.1820  -29.5173    1.4056 O   0  0  0  0  0  0  0  0  0  0  0  0
  -41.7932  -30.1198    1.9300 O   0  0  0  0  0  0  0  0  0  0  0  0
  -43.1730  -29.9593    2.3476 S   0  0  0  0  0  0  0  0  0  0  0  0
  -45.7830  -34.9557   -1.6803 Br  0  0  0  0  0  0  0  0  0  0  0  0
  -45.5891  -33.4754    3.0960 H   0  0  0  0  0  0  0  0  0  0  0  0
  -42.9244  -31.4188    0.4070 H   0  0  0  0  0  0  0  0  0  0  0  0
  -46.4219  -34.8421    1.2310 H   0  0  0  0  0  0  0  0  0  0  0  0
  -43.7526  -32.7824   -1.4637 H   0  0  0  0  0  0  0  0  0  0  0  0
  -45.7736  -29.0449    2.9418 H   0  0  0  0  0  0  0  0  0  0  0  0
  -48.7602  -29.1337    3.9088 H   0  0  0  0  0  0  0  0  0  0  0  0
  -43.2807  -29.0485    6.4540 H   0  0  0  0  0  0  0  0  0  0  0  0
  -42.8387  -31.9864    3.5097 H   0  0  0  0  0  0  0  0  0  0  0  0
  -44.4727  -31.3346    3.7585 H   0  0  0  0  0  0  0  0  0  0  0  0
  -47.9102  -29.1856    7.8479 H   0  0  0  0  0  0  0  0  0  0  0  0
  -42.3128  -28.9853    4.3034 H   0  0  0  0  0  0  0  0  0  0  0  0
  1  3  1  0  0  0  0
  1  9  2  0  0  0  0
  2  4  2  0  0  0  0
  2  9  1  0  0  0  0
  3 11  2  0  0  0  0
  4 11  1  0  0  0  0
  5  8  2  0  0  0  0
  5 10  1  0  0  0  0
  6  8  1  0  0  0  0
  6 15  2  0  0  0  0
  7 10  2  0  0  0  0
  7 14  1  0  0  0  0
  8 12  1  0  0  0  0
  9 13  1  0  0  0  0
 10 17  1  0  0  0  0
 11 21  1  0  0  0  0
 12 14  2  0  0  0  0
 12 16  1  0  0  0  0
 13 20  1  0  0  0  0
 15 16  1  0  0  0  0
 17 20  1  0  0  0  0
 18 20  2  0  0  0  0
 19 20  2  0  0  0  0
  1 22  1  0  0  0  0
  2 23  1  0  0  0  0
  3 24  1  0  0  0  0
  4 25  1  0  0  0  0
  5 26  1  0  0  0  0
  6 27  1  0  0  0  0
  7 28  1  0  0  0  0
 13 29  1  0  0  0  0
 13 30  1  0  0  0  0
 16 31  1  0  0  0  0
 17 32  1  0  0  0  0
M  END
> <POSIT::Probability>
0.33

> <POSIT::Method>
HYBRID

> <ReceptorTitle>
UCSF-P4463-REFINED_LIGAND-BOUND-STATE_A__DU__LA1_A-201(A)

> <OMEGA_C>
vrw0wm5IBcKMWwZAaMIuwtSrAMKcUBc/Vp82wo9hCMKoB4U/9qQwwunEA8JoGvC+8442wu186MGP
moBAa5JAwpIU6cFseJlAqwoxwieB6MGnar9A3/I6wgfT6MEqY5xAE84wwpttAcKQAvA/KnoxwpNT
6MEqEZNAq5M0wsifB8LQlHq+fvI5wnz56MHYAchAr8guwjgx/MH0zEBAQCg1wuDU6MHFldtAPPRC
wnBe6cF+xb9ArNQ+wjNL6cEMZ9tAl88swkH658E+unFAU7owwmAj7MEc6rM/MCwnwmf18MF0Cfc/
NLEswp2s78FPPxZAviE3wq7SC8J6FNe/R1s2wtjmBcIUJUZAi7IrwsZZ+8HQXdA+AbA5wk5eC8K7
kZ0/rAIvwjghA8I2W7u/Ixg3wvVb6MHaRjxAZQpDwuYR6cHKKXpAeR8twllj6MGLh85A0Forwjvk
/8HfnmBAAOQxwjOt+sE4i3BADaQ/wgx86cEQIvtAQkApwu/h58FctYlA

> <OMEGA_E>
FrQjwQ==

> <OMEGA_NBR>
     21117

$$$$
CACHE3HI_1689_37
  -OEChem-03092622513D

 42 44  0     0  0  0  0  0  0999 V2000
  -48.9285  -28.5736    5.9605 C   0  0  0  0  0  0  0  0  0  0  0  0
  -48.1039  -28.7969    4.8562 C   0  0  0  0  0  0  0  0  0  0  0  0
  -49.6888  -30.3985    3.9377 C   0  0  0  0  0  0  0  0  0  0  0  0
  -50.1181  -29.2773    6.0433 C   0  0  0  0  0  0  0  0  0  0  0  0
  -50.4942  -30.1805    5.0421 C   0  0  0  0  0  0  0  0  0  0  0  0
  -48.4813  -29.7023    3.8523 C   0  0  0  0  0  0  0  0  0  0  0  0
  -42.9636  -31.1101    2.9352 C   0  0  0  0  0  0  0  0  0  0  0  0
  -44.0335  -30.6073    2.3011 C   0  0  0  0  0  0  0  0  0  0  0  0
  -41.7227  -30.2774    3.0319 C   0  0  0  0  0  0  0  0  0  0  0  0
  -42.8232  -28.5968    1.8535 C   0  0  0  0  0  0  0  0  0  0  0  0
  -47.2040  -28.9604    1.8032 C   0  0  0  0  0  0  0  0  0  0  0  0
  -51.1740  -29.1824    7.0993 C   0  0  0  0  0  0  0  0  0  0  0  0
  -51.8357  -30.7730    5.3358 C   0  0  0  0  0  0  0  0  0  0  0  0
  -51.9754  -30.4652    6.8344 C   0  0  0  0  0  0  0  0  0  0  0  0
  -45.3121  -31.3656    2.1547 C   0  0  0  0  0  0  0  0  0  0  0  0
  -46.0275  -30.9659    0.8748 C   0  0  0  0  0  0  0  0  0  0  0  0
  -41.7390  -29.0164    2.4555 N   0  0  0  0  0  0  0  0  0  0  0  0
  -43.9718  -29.3481    1.7565 N   0  0  0  0  0  0  0  0  0  0  0  0
  -42.9153  -27.3643    1.2610 N   0  0  0  0  0  0  0  0  0  0  0  0
  -47.6439  -29.9034    2.7540 N   0  0  0  0  0  0  0  0  0  0  0  0
  -46.3711  -29.5619    0.8541 N   0  0  0  0  0  0  0  0  0  0  0  0
  -40.7458  -30.7418    3.6144 O   0  0  0  0  0  0  0  0  0  0  0  0
  -47.4941  -27.7667    1.7833 O   0  0  0  0  0  0  0  0  0  0  0  0
  -48.6401  -27.8648    6.7292 H   0  0  0  0  0  0  0  0  0  0  0  0
  -47.1644  -28.2542    4.7801 H   0  0  0  0  0  0  0  0  0  0  0  0
  -49.9935  -31.0930    3.1610 H   0  0  0  0  0  0  0  0  0  0  0  0
  -42.9532  -32.0962    3.3839 H   0  0  0  0  0  0  0  0  0  0  0  0
  -50.7568  -29.1745    8.1101 H   0  0  0  0  0  0  0  0  0  0  0  0
  -51.7888  -28.2911    6.9387 H   0  0  0  0  0  0  0  0  0  0  0  0
  -52.6093  -30.2626    4.7531 H   0  0  0  0  0  0  0  0  0  0  0  0
  -51.8699  -31.8492    5.1450 H   0  0  0  0  0  0  0  0  0  0  0  0
  -51.5340  -31.2894    7.4123 H   0  0  0  0  0  0  0  0  0  0  0  0
  -53.0208  -30.3775    7.1472 H   0  0  0  0  0  0  0  0  0  0  0  0
  -45.9332  -31.1724    3.0358 H   0  0  0  0  0  0  0  0  0  0  0  0
  -45.0639  -32.4318    2.1237 H   0  0  0  0  0  0  0  0  0  0  0  0
  -46.9632  -31.5243    0.7729 H   0  0  0  0  0  0  0  0  0  0  0  0
  -45.4075  -31.1634   -0.0059 H   0  0  0  0  0  0  0  0  0  0  0  0
  -44.7960  -28.9963    1.2823 H   0  0  0  0  0  0  0  0  0  0  0  0
  -42.1223  -26.7663    1.2920 H   0  0  0  0  0  0  0  0  0  0  0  0
  -43.7712  -27.1151    0.8227 H   0  0  0  0  0  0  0  0  0  0  0  0
  -47.3043  -30.8621    2.6216 H   0  0  0  0  0  0  0  0  0  0  0  0
  -46.0126  -28.9959    0.0912 H   0  0  0  0  0  0  0  0  0  0  0  0
  1  2  1  0  0  0  0
  1  4  2  0  0  0  0
  2  6  2  0  0  0  0
  3  5  2  0  0  0  0
  3  6  1  0  0  0  0
  4  5  1  0  0  0  0
  4 12  1  0  0  0  0
  5 13  1  0  0  0  0
  6 20  1  0  0  0  0
  7  8  2  0  0  0  0
  7  9  1  0  0  0  0
  8 15  1  0  0  0  0
  8 18  1  0  0  0  0
  9 17  1  0  0  0  0
  9 22  2  0  0  0  0
 10 17  2  0  0  0  0
 10 18  1  0  0  0  0
 10 19  1  0  0  0  0
 11 20  1  0  0  0  0
 11 21  1  0  0  0  0
 11 23  2  0  0  0  0
 12 14  1  0  0  0  0
 13 14  1  0  0  0  0
 15 16  1  0  0  0  0
 16 21  1  0  0  0  0
  1 24  1  0  0  0  0
  2 25  1  0  0  0  0
  3 26  1  0  0  0  0
  7 27  1  0  0  0  0
 12 28  1  0  0  0  0
 12 29  1  0  0  0  0
 13 30  1  0  0  0  0
 13 31  1  0  0  0  0
 14 32  1  0  0  0  0
 14 33  1  0  0  0  0
 15 34  1  0  0  0  0
 15 35  1  0  0  0  0
 16 36  1  0  0  0  0
 16 37  1  0  0  0  0
 18 38  1  0  0  0  0
 19 39  1  0  0  0  0
 19 40  1  0  0  0  0
 20 41  1  0  0  0  0
 21 42  1  0  0  0  0
M  END
> <POSIT::Probability>
0.24

> <POSIT::Method>
FRED

> <ReceptorTitle>
UCSF-P4463-REFINED_LIGAND-BOUND-STATE_A__DU__LA1_A-201(A)

> <OMEGA_C>
y7ZDwsyW5MFbvL5AbWpAwvpf5sEKZptAYMFGwiQw88G8A3xA83hIwvU36sHpYsFABfpJwqpx8cFK
WaFA4+xBwmSe7cHEjHZArdorwn7h+MFA2jtAViIwwtDb9MEQRRNABuQmwhI48sFcCkJA+korwk7G
5MHQP+0/4tA8wuKu58GEz+Y/ILJMwpt16cFNLeNAzVdPwhUv9sGYvqpA1OZPwqa488Els9pAoj81
wqfs+sFi5wlANRw4whi698GQ818/x/Qmwosh6MGMJx1AIuMvwuvI6sHg1OA/SKkrwgzq2sEkZ6E/
VJM+whQ678EkQjBAAnw5wrh+7MEYp1o/rvsiwi3v9cFwUmdA/Pk9wjci3sH4QuQ/go9Cwifr3sHE
VddAUqg8wpUI4sG+9phAXvlHwne++MGkTkpAHNArwo1iAMLAkVhA/gZLwndl6cEUwwFBxydPwj9U
4sF8Cd5A7m9SwtkZ8sGcGZhAzXpPwkHL/sGbo6RAySJOwr5Q+sGTMe1ATBVUwi4F88EKtuRAkrs3
wg5h+cEMS0JAckE0wi26AcKe6gdATto7wrkx/MEo3UU/RqE1woxO+cEAZMK7Ey8zwnH458HIIqQ/
N30ownAh1sHQXqU/sRUvwsLr2MFQn1I/njc9wq7l9sGYxydA2gw4wq7358FAwbo9

> <OMEGA_E>
RKIMwQ==

> <OMEGA_NBR>
     22448

$$$$
CACHE3HI_1689_41
  -OEChem-03092622513D

 38 40  0     0  0  0  0  0  0999 V2000
  -43.7648  -32.9146    0.6906 C   0  0  0  0  0  0  0  0  0  0  0  0
  -43.6461  -31.5749    0.3380 C   0  0  0  0  0  0  0  0  0  0  0  0
  -47.0430  -29.1905    5.6912 C   0  0  0  0  0  0  0  0  0  0  0  0
  -46.0844  -29.0932    4.6819 C   0  0  0  0  0  0  0  0  0  0  0  0
  -47.7989  -29.4003    3.0045 C   0  0  0  0  0  0  0  0  0  0  0  0
  -43.5658  -33.2554    2.0192 C   0  0  0  0  0  0  0  0  0  0  0  0
  -48.7570  -29.4975    4.0165 C   0  0  0  0  0  0  0  0  0  0  0  0
  -43.3367  -30.6303    1.3102 C   0  0  0  0  0  0  0  0  0  0  0  0
  -48.3863  -29.3935    5.3640 C   0  0  0  0  0  0  0  0  0  0  0  0
  -46.4614  -29.1978    3.3431 C   0  0  0  0  0  0  0  0  0  0  0  0
  -43.1570  -31.0729    2.6108 C   0  0  0  0  0  0  0  0  0  0  0  0
  -50.1966  -29.7140    3.6965 C   0  0  0  0  0  0  0  0  0  0  0  0
  -50.6798  -29.6967    5.9605 C   0  0  0  0  0  0  0  0  0  0  0  0
  -45.6458  -28.6126    1.0251 C   0  0  0  0  0  0  0  0  0  0  0  0
  -51.7000  -29.7996    7.0672 C   0  0  0  0  0  0  0  0  0  0  0  0
  -43.2122  -29.1884    0.9089 C   0  0  0  0  0  0  0  0  0  0  0  0
  -43.2640  -32.3656    2.9914 N   0  0  0  0  0  0  0  0  0  0  0  0
  -51.1061  -29.8036    4.7356 N   0  0  0  0  0  0  0  0  0  0  0  0
  -49.3746  -29.4961    6.3448 N   0  0  0  0  0  0  0  0  0  0  0  0
  -45.4967  -29.0991    2.3397 N   0  0  0  0  0  0  0  0  0  0  0  0
  -44.4349  -28.6810    0.3284 N   0  0  0  0  0  0  0  0  0  0  0  0
  -50.5274  -29.8058    2.5182 O   0  0  0  0  0  0  0  0  0  0  0  0
  -46.6836  -28.1805    0.5292 O   0  0  0  0  0  0  0  0  0  0  0  0
  -42.7295  -29.8341    3.9948 Br  0  0  0  0  0  0  0  0  0  0  0  0
  -44.0061  -33.6683   -0.0499 H   0  0  0  0  0  0  0  0  0  0  0  0
  -43.7969  -31.2779   -0.6964 H   0  0  0  0  0  0  0  0  0  0  0  0
  -46.7343  -29.1071    6.7301 H   0  0  0  0  0  0  0  0  0  0  0  0
  -45.0430  -28.9353    4.9522 H   0  0  0  0  0  0  0  0  0  0  0  0
  -48.0835  -29.4812    1.9584 H   0  0  0  0  0  0  0  0  0  0  0  0
  -43.6470  -34.2866    2.3462 H   0  0  0  0  0  0  0  0  0  0  0  0
  -51.7953  -30.8383    7.3653 H   0  0  0  0  0  0  0  0  0  0  0  0
  -52.6535  -29.4279    6.7071 H   0  0  0  0  0  0  0  0  0  0  0  0
  -51.3706  -29.2002    7.9093 H   0  0  0  0  0  0  0  0  0  0  0  0
  -42.9665  -28.5664    1.7760 H   0  0  0  0  0  0  0  0  0  0  0  0
  -42.4116  -29.0530    0.1742 H   0  0  0  0  0  0  0  0  0  0  0  0
  -49.1056  -29.4209    7.3185 H   0  0  0  0  0  0  0  0  0  0  0  0
  -44.5564  -29.4229    2.5915 H   0  0  0  0  0  0  0  0  0  0  0  0
  -44.4148  -28.3911   -0.6444 H   0  0  0  0  0  0  0  0  0  0  0  0
  1  2  2  0  0  0  0
  1  6  1  0  0  0  0
  2  8  1  0  0  0  0
  3  4  2  0  0  0  0
  3  9  1  0  0  0  0
  4 10  1  0  0  0  0
  5  7  1  0  0  0  0
  5 10  2  0  0  0  0
  6 17  2  0  0  0  0
  7  9  2  0  0  0  0
  7 12  1  0  0  0  0
  8 11  2  0  0  0  0
  8 16  1  0  0  0  0
  9 19  1  0  0  0  0
 10 20  1  0  0  0  0
 11 17  1  0  0  0  0
 11 24  1  0  0  0  0
 12 18  1  0  0  0  0
 12 22  2  0  0  0  0
 13 15  1  0  0  0  0
 13 18  2  0  0  0  0
 13 19  1  0  0  0  0
 14 20  1  0  0  0  0
 14 21  1  0  0  0  0
 14 23  2  0  0  0  0
 16 21  1  0  0  0  0
  1 25  1  0  0  0  0
  2 26  1  0  0  0  0
  3 27  1  0  0  0  0
  4 28  1  0  0  0  0
  5 29  1  0  0  0  0
  6 30  1  0  0  0  0
 15 31  1  0  0  0  0
 15 32  1  0  0  0  0
 15 33  1  0  0  0  0
 16 34  1  0  0  0  0
 16 35  1  0  0  0  0
 19 36  1  0  0  0  0
 20 37  1  0  0  0  0
 21 38  1  0  0  0  0
M  END
> <POSIT::Probability>
0.18

> <POSIT::Method>
FRED

> <ReceptorTitle>
UCSF-P4463-REFINED_LIGAND-BOUND-STATE_A__DU__LA1_A-201(A)

> <OMEGA_C>
Hg8vwoGoA8JIzDA/o5Uuwk6Z/MGICq0+Aiw8wi+G6cFuHrZAZlY4wtC+6MFK0pVADTI/wr4z68FI
SkBAZkMuwooFBcJcOwFAIwdDwvX668H2hoBAzFgtwswK9cFes6c/lotBwtEl68ELpqtAfdg5wgyV
6cEl9lVAx6AswkaV+MGnFidAS8lIwlK27cGnkmxAG7hKwr6S7cG1vL5AU5U2wovm5MEANoM/1cxO
wqBl7sGdJuJAQNkswueB6cEsrmg/VA4twmB2AcJkcj9AnGxMwrht7sG/iZdAkX9Fwg/468FNCMtA
lfw1wg7L6MH8vBVAX70xwp5y5cH4KKg+DhxKwlxy7sHPKiFA/rs6wrxx4cEUfAc/Cesqwkqs7sGg
qn9ANAYwwkysBsLEPEy9CjAvwh85+sEERTK/7u86wk3b6MGpXNdA/Cs0wnR758GPeJ5AilVAwmvZ
68E3rvo/jZYuwn0lCcLxJxZAYi5Pwui09sEksOtAMp1Swm5s68HkoNZAgntNwu+Z6cE8Gf1Avt0r
wv+H5MH0VOM/d6UpwoZs6MH/ZzI+I2xEwvFd68EEMepAwjkywixi68F32iVAwagxwg4h48Es+iS/

> <OMEGA_E>
rfogwQ==

> <OMEGA_NBR>
     23700

$$$$
CACHE3HI_1689_54
  -OEChem-03092622513D

 36 37  0     0  0  0  0  0  0999 V2000
  -49.0082  -29.9870    3.8896 C   0  0  0  0  0  0  0  0  0  0  0  0
  -47.5301  -28.2382    4.6606 C   0  0  0  0  0  0  0  0  0  0  0  0
  -49.7743  -29.8490    5.0470 C   0  0  0  0  0  0  0  0  0  0  0  0
  -48.2961  -28.1002    5.8181 C   0  0  0  0  0  0  0  0  0  0  0  0
  -47.8861  -29.1813    3.6964 C   0  0  0  0  0  0  0  0  0  0  0  0
  -49.4183  -28.9058    6.0113 C   0  0  0  0  0  0  0  0  0  0  0  0
  -47.0709  -29.3274    2.4649 C   0  0  0  0  0  0  0  0  0  0  0  0
  -51.3366  -29.4794    7.5422 C   0  0  0  0  0  0  0  0  0  0  0  0
  -43.0958  -29.2374    3.4547 C   0  0  0  0  0  0  0  0  0  0  0  0
  -42.3658  -29.6711    1.5727 C   0  0  0  0  0  0  0  0  0  0  0  0
  -43.4848  -28.7280    2.0538 C   0  0  0  0  0  0  0  0  0  0  0  0
  -43.1871  -27.2494    1.8291 C   0  0  0  0  0  0  0  0  0  0  0  0
  -44.8844  -29.1148    1.5995 C   0  0  0  0  0  0  0  0  0  0  0  0
  -51.1522  -30.1606    8.7372 N   0  0  0  0  0  0  0  0  0  0  0  0
  -50.1847  -28.7683    7.1689 N   0  0  0  0  0  0  0  0  0  0  0  0
  -47.5345  -29.6846    1.3927 O   0  0  0  0  0  0  0  0  0  0  0  0
  -52.4004  -29.5306    6.9309 O   0  0  0  0  0  0  0  0  0  0  0  0
  -41.9122  -29.8873    2.9310 O   0  0  0  0  0  0  0  0  0  0  0  0
  -43.1278  -27.0076    0.4347 O   0  0  0  0  0  0  0  0  0  0  0  0
  -45.7661  -29.0124    2.7048 O   0  0  0  0  0  0  0  0  0  0  0  0
  -49.2958  -30.7251    3.1454 H   0  0  0  0  0  0  0  0  0  0  0  0
  -46.6576  -27.6053    4.5209 H   0  0  0  0  0  0  0  0  0  0  0  0
  -50.6470  -30.4817    5.1871 H   0  0  0  0  0  0  0  0  0  0  0  0
  -48.0087  -27.3622    6.5628 H   0  0  0  0  0  0  0  0  0  0  0  0
  -42.8412  -28.4716    4.1936 H   0  0  0  0  0  0  0  0  0  0  0  0
  -43.7723  -29.9676    3.9109 H   0  0  0  0  0  0  0  0  0  0  0  0
  -42.6868  -30.6122    1.1141 H   0  0  0  0  0  0  0  0  0  0  0  0
  -41.5851  -29.2174    0.9548 H   0  0  0  0  0  0  0  0  0  0  0  0
  -42.2297  -26.9890    2.2805 H   0  0  0  0  0  0  0  0  0  0  0  0
  -43.9778  -26.6387    2.2665 H   0  0  0  0  0  0  0  0  0  0  0  0
  -44.8903  -30.1421    1.2314 H   0  0  0  0  0  0  0  0  0  0  0  0
  -45.2233  -28.4423    0.8089 H   0  0  0  0  0  0  0  0  0  0  0  0
  -50.2600  -30.0961    9.2157 H   0  0  0  0  0  0  0  0  0  0  0  0
  -51.8953  -30.7221    9.1404 H   0  0  0  0  0  0  0  0  0  0  0  0
  -49.8785  -28.0605    7.8441 H   0  0  0  0  0  0  0  0  0  0  0  0
  -42.9375  -26.0614    0.3176 H   0  0  0  0  0  0  0  0  0  0  0  0
  1  3  1  0  0  0  0
  1  5  2  0  0  0  0
  2  4  2  0  0  0  0
  2  5  1  0  0  0  0
  3  6  2  0  0  0  0
  4  6  1  0  0  0  0
  5  7  1  0  0  0  0
  6 15  1  0  0  0  0
  7 16  2  0  0  0  0
  7 20  1  0  0  0  0
  8 14  1  0  0  0  0
  8 15  1  0  0  0  0
  8 17  2  0  0  0  0
  9 11  1  0  0  0  0
  9 18  1  0  0  0  0
 10 11  1  0  0  0  0
 10 18  1  0  0  0  0
 11 12  1  0  0  0  0
 11 13  1  0  0  0  0
 12 19  1  0  0  0  0
 13 20  1  0  0  0  0
  1 21  1  0  0  0  0
  2 22  1  0  0  0  0
  3 23  1  0  0  0  0
  4 24  1  0  0  0  0
  9 25  1  0  0  0  0
  9 26  1  0  0  0  0
 10 27  1  0  0  0  0
 10 28  1  0  0  0  0
 12 29  1  0  0  0  0
 12 30  1  0  0  0  0
 13 31  1  0  0  0  0
 13 32  1  0  0  0  0
 14 33  1  0  0  0  0
 14 34  1  0  0  0  0
 15 35  1  0  0  0  0
 19 36  1  0  0  0  0
M  END
> <POSIT::Probability>
0.24

> <POSIT::Method>
FRED

> <ReceptorTitle>
UCSF-P4463-REFINED_LIGAND-BOUND-STATE_A__DU__LA1_A-201(A)

> <OMEGA_C>
XghEwlbl78F67nhAzx4+wtTn4cHsI5VA2RhHwrDK7sFWgaFAPC9BwiTN4MHFLbpAWYs/wmZz6cHx
kWxAT6xFwh4/58FJXMBAnUg8wnSe6sFLwB1Ao1hNwszV68FNWfFAE2IswjLm6cE+Gl1AmnYpwm1e
7cFvTck/dfAtwv7S5cHDcANAmr8swtj+2cGcHuo/rIkzwg3r6ME1vcw/4ptMwuVI8cG2ywtBH71I
wowl5sGKZ+VAUyM+wh167cF0RLI//5lRwsE+7MGvyd1ADKYnwjwZ78EUljtA2IIswn0P2MG8jt4+
dBA3wnYZ6MH0Gy1A7C5FwvLM9cHnTklAXKE6wpPX3MF8q5BAkpZKwpna88GI/KVA8ghAwt/l2sEs
AtJAZl0rwurF48G9MYZAyhYvwpS978HyTHpAQ78qwsDl9MF2nI4/IFcmwjm96cH+cHQ/OOsowmjp
18H98xFAP+kvwgkc1cEUDhFApI8zwvIi8cFtn50/rOQ0ws6J48F+Fk8/QgpJwtrE8MF1cxNBwZRP
wvTG9cECPxJBlYNHwuF74MGYAvtA/b8rwsx90MH4oqI+

> <OMEGA_E>
BB0PwQ==

> <OMEGA_NBR>
     24906

$$$$
CACHE3HI_1690_12
  -OEChem-03092622513D

 44 47  0     1  0  0  0  0  0999 V2000
  -48.7053  -29.1367    3.8083 C   0  0  0  0  0  0  0  0  0  0  0  0
  -50.1000  -29.1862    4.0543 C   0  0  0  0  0  0  0  0  0  0  0  0
  -49.7004  -29.2400    6.4674 C   0  0  0  0  0  0  0  0  0  0  0  0
  -43.7833  -29.1840    5.9103 C   0  0  0  0  0  0  0  0  0  0  0  0
  -47.8249  -29.1933    4.9104 C   0  0  0  0  0  0  0  0  0  0  0  0
  -46.3426  -29.1892    5.0103 C   0  0  0  0  0  0  0  0  0  0  0  0
  -48.3199  -29.2243    6.2229 C   0  0  0  0  0  0  0  0  0  0  0  0
  -50.5940  -29.2348    5.3813 C   0  0  0  0  0  0  0  0  0  0  0  0
  -46.0518  -29.2095    6.3828 C   0  0  0  0  0  0  0  0  0  0  0  0
  -45.2645  -29.1674    4.0691 C   0  0  0  0  0  0  0  0  0  0  0  0
  -45.8023  -32.6605    1.0970 C   0  0  0  0  0  0  0  0  0  0  0  0
  -46.2609  -30.3053    2.0544 C   0  0  0  0  0  0  0  0  0  0  0  0
  -44.1544  -29.2908    1.7810 C   0  0  0  0  0  0  0  0  0  0  0  0
  -45.3947  -31.1543    1.0982 C   0  0  1  0  0  0  0  0  0  0  0  0
  -43.9384  -30.7802    1.4509 C   0  0  0  0  0  0  0  0  0  0  0  0
  -43.3194  -31.5172    2.6792 C   0  0  0  0  0  0  0  0  0  0  0  0
  -43.0117  -30.9784    0.2324 C   0  0  0  0  0  0  0  0  0  0  0  0
  -47.9752  -32.1018    0.2099 C   0  0  0  0  0  0  0  0  0  0  0  0
  -44.7820  -29.2201    6.8163 N   0  0  0  0  0  0  0  0  0  0  0  0
  -44.0040  -29.1278    4.5763 N   0  0  0  0  0  0  0  0  0  0  0  0
  -47.2432  -29.2189    7.0924 N   0  0  0  0  0  0  0  0  0  0  0  0
  -45.3755  -29.2811    2.6668 N   0  0  2  0  0  0  0  0  0  0  0  0
  -45.1205  -33.4951    1.6775 O   0  0  0  0  0  0  0  0  0  0  0  0
  -46.9502  -33.0888    0.4832 O   0  0  0  0  0  0  0  0  0  0  0  0
  -52.4707  -29.2575    5.7244 Br  0  0  0  0  0  0  0  0  0  0  0  0
  -48.3247  -29.0575    2.8007 H   0  0  0  0  0  0  0  0  0  0  0  0
  -50.7912  -29.1870    3.2244 H   0  0  0  0  0  0  0  0  0  0  0  0
  -50.0742  -29.2560    7.4805 H   0  0  0  0  0  0  0  0  0  0  0  0
  -42.7633  -29.2006    6.2649 H   0  0  0  0  0  0  0  0  0  0  0  0
  -47.0701  -29.8152    1.4931 H   0  0  0  0  0  0  0  0  0  0  0  0
  -46.6933  -30.9451    2.8377 H   0  0  0  0  0  0  0  0  0  0  0  0
  -43.2838  -28.8788    2.3123 H   0  0  0  0  0  0  0  0  0  0  0  0
  -44.3330  -28.7100    0.8641 H   0  0  0  0  0  0  0  0  0  0  0  0
  -45.5818  -30.7776    0.0818 H   0  0  0  0  0  0  0  0  0  0  0  0
  -43.1694  -32.5788    2.4331 H   0  0  0  0  0  0  0  0  0  0  0  0
  -42.3517  -31.0592    2.9319 H   0  0  0  0  0  0  0  0  0  0  0  0
  -44.0006  -31.4329    3.5387 H   0  0  0  0  0  0  0  0  0  0  0  0
  -42.8880  -32.0537    0.0363 H   0  0  0  0  0  0  0  0  0  0  0  0
  -43.4567  -30.4938   -0.6491 H   0  0  0  0  0  0  0  0  0  0  0  0
  -42.0299  -30.5287    0.4416 H   0  0  0  0  0  0  0  0  0  0  0  0
  -48.8312  -32.5877   -0.2812 H   0  0  0  0  0  0  0  0  0  0  0  0
  -48.3054  -31.6451    1.1545 H   0  0  0  0  0  0  0  0  0  0  0  0
  -47.5671  -31.3229   -0.4510 H   0  0  0  0  0  0  0  0  0  0  0  0
  -47.3142  -29.2214    8.0899 H   0  0  0  0  0  0  0  0  0  0  0  0
  1  2  2  0  0  0  0
  1  5  1  0  0  0  0
  2  8  1  0  0  0  0
  3  7  1  0  0  0  0
  3  8  2  0  0  0  0
  4 19  2  0  0  0  0
  4 20  1  0  0  0  0
  5  6  1  0  0  0  0
  5  7  2  0  0  0  0
  6  9  2  0  0  0  0
  6 10  1  0  0  0  0
  7 21  1  0  0  0  0
  8 25  1  0  0  0  0
  9 19  1  0  0  0  0
  9 21  1  0  0  0  0
 10 20  2  0  0  0  0
 10 22  1  0  0  0  0
 11 14  1  0  0  0  0
 11 23  2  0  0  0  0
 11 24  1  0  0  0  0
 12 14  1  0  0  0  0
 12 22  1  0  0  0  0
 13 15  1  0  0  0  0
 13 22  1  0  0  0  0
 14 15  1  0  0  0  0
 15 16  1  0  0  0  0
 15 17  1  0  0  0  0
 18 24  1  0  0  0  0
  1 26  1  0  0  0  0
  2 27  1  0  0  0  0
  3 28  1  0  0  0  0
  4 29  1  0  0  0  0
 12 30  1  0  0  0  0
 12 31  1  0  0  0  0
 13 32  1  0  0  0  0
 13 33  1  0  0  0  0
 14 34  1  0  0  0  0
 16 35  1  0  0  0  0
 16 36  1  0  0  0  0
 16 37  1  0  0  0  0
 17 38  1  0  0  0  0
 17 39  1  0  0  0  0
 17 40  1  0  0  0  0
 18 41  1  0  0  0  0
 18 42  1  0  0  0  0
 18 43  1  0  0  0  0
 21 44  1  0  0  0  0
M  END
> <POSIT::Probability>
0.83

> <POSIT::Method>
SHAPEFIT

> <ReceptorTitle>
UCSF-P4463-REFINED_LIGAND-BOUND-STATE_A__DU__LA1_A-201(A)

> <OMEGA_C>
RNJCwgcY6cHLunNAX2ZIwm996cGqvIFAMs1Gwo7r6cEI9c5AGyIvws546cE4Ib1Arkw/wtyL6cHe
IZ1A3V45wo+D6cEaVKBAlkdBwk/L6cEcIsdAOmBKwsjg6cEENKxAAjU4wiOt6cHMP8xA4Q41wuBW
6cESNoJAmjU3wmWkAsKCaow/MQs5wi9x8sGlegNAHp4wwqJT6sHK9+M/KJQ1wv87+cE0kow/7sAv
wtg99sEetrk/CUctwjQj/MGxdytABQwswsjT98GAAm4+oOY/wkRoAMIQ6lY+viAzwtfC6cFcH9pA
DQQwwrgF6cECcZJAC/k8wlTA6cEE9eJAhIA1wrA/6sElrSpAYHs0wvH6BcKut9Y/DM07wvJaBMKg
Zfc+A+JRwmAP6sGQLrdAdUxBwtZ16MGdPjNAKSpLwgF/6cElXU5A+EtIwl4M6sGFYO9Aog0rwtqa
6cEYeshA0Uc8wpCF7sERHb8/+cU6woaP98FYnTVAnSItwtMH58G6/BNABVUxwgyu5cGINV0/uFM2
wnk49sGJiKc9bq0swqlQAsItuBtAImgpwlF5+MG3pDtAmQAwwot2+8GzemJAWY0rwvk2AMLnixQ9
ptMtwk/z88FwLia/pB4owrI69MG0HeI+J1NDwtBZAsKY/4++xzhBwh4p/cENx5M/ukQ+wmOV+sFn
7ea+wUE9wn/F6cEocAFB

> <OMEGA_E>
FAX0Pg==

> <OMEGA_NBR>
     26316

$$$$
CACHE3HI_1690_15
  -OEChem-03092622513D

 36 38  0     0  0  0  0  0  0999 V2000
  -48.6413  -29.3032    3.8188 C   0  0  0  0  0  0  0  0  0  0  0  0
  -50.0378  -29.2977    4.0289 C   0  0  0  0  0  0  0  0  0  0  0  0
  -49.6989  -29.1577    6.4589 C   0  0  0  0  0  0  0  0  0  0  0  0
  -43.7734  -29.2877    5.8371 C   0  0  0  0  0  0  0  0  0  0  0  0
  -47.8050  -29.2348    4.9514 C   0  0  0  0  0  0  0  0  0  0  0  0
  -46.3500  -29.2499    5.0603 C   0  0  0  0  0  0  0  0  0  0  0  0
  -48.3099  -29.1646    6.2530 C   0  0  0  0  0  0  0  0  0  0  0  0
  -50.5631  -29.2255    5.3435 C   0  0  0  0  0  0  0  0  0  0  0  0
  -46.0288  -29.1887    6.4149 C   0  0  0  0  0  0  0  0  0  0  0  0
  -45.3434  -29.3238    4.0821 C   0  0  0  0  0  0  0  0  0  0  0  0
  -43.1380  -32.4249    2.6107 C   0  0  0  0  0  0  0  0  0  0  0  0
  -43.9267  -31.6558    1.7848 C   0  0  0  0  0  0  0  0  0  0  0  0
  -43.5414  -30.1963    1.5668 C   0  0  0  0  0  0  0  0  0  0  0  0
  -45.0003  -32.3311    0.9357 C   0  0  0  0  0  0  0  0  0  0  0  0
  -44.7253  -29.2021    1.5994 C   0  0  0  0  0  0  0  0  0  0  0  0
  -44.7363  -29.2084    6.7946 N   0  0  0  0  0  0  0  0  0  0  0  0
  -44.0539  -29.3363    4.5039 N   0  0  0  0  0  0  0  0  0  0  0  0
  -47.2250  -29.1236    7.1313 N   0  0  0  0  0  0  0  0  0  0  0  0
  -45.6735  -29.3894    2.7300 N   0  0  0  0  0  0  0  0  0  0  0  0
  -46.2949  -31.7668    1.1366 O   0  0  0  0  0  0  0  0  0  0  0  0
  -52.4490  -29.2324    5.6197 Br  0  0  0  0  0  0  0  0  0  0  0  0
  -48.2276  -29.3580    2.8227 H   0  0  0  0  0  0  0  0  0  0  0  0
  -50.7086  -29.3488    3.1841 H   0  0  0  0  0  0  0  0  0  0  0  0
  -50.1021  -29.1012    7.4592 H   0  0  0  0  0  0  0  0  0  0  0  0
  -42.7392  -29.3133    6.1472 H   0  0  0  0  0  0  0  0  0  0  0  0
  -43.2823  -33.4943    2.6529 H   0  0  0  0  0  0  0  0  0  0  0  0
  -42.3750  -31.9586    3.2164 H   0  0  0  0  0  0  0  0  0  0  0  0
  -42.8307  -29.9084    2.3554 H   0  0  0  0  0  0  0  0  0  0  0  0
  -43.0525  -30.1143    0.5848 H   0  0  0  0  0  0  0  0  0  0  0  0
  -44.7299  -32.2233   -0.1251 H   0  0  0  0  0  0  0  0  0  0  0  0
  -45.0370  -33.3988    1.1980 H   0  0  0  0  0  0  0  0  0  0  0  0
  -44.3140  -28.1840    1.6643 H   0  0  0  0  0  0  0  0  0  0  0  0
  -45.2881  -29.3111    0.6606 H   0  0  0  0  0  0  0  0  0  0  0  0
  -47.2947  -29.0572    8.1266 H   0  0  0  0  0  0  0  0  0  0  0  0
  -46.0664  -30.2994    2.5976 H   0  0  0  0  0  0  0  0  0  0  0  0
  -46.9262  -32.2184    0.5889 H   0  0  0  0  0  0  0  0  0  0  0  0
  1  2  2  0  0  0  0
  1  5  1  0  0  0  0
  2  8  1  0  0  0  0
  3  7  1  0  0  0  0
  3  8  2  0  0  0  0
  4 16  2  0  0  0  0
  4 17  1  0  0  0  0
  5  6  1  0  0  0  0
  5  7  2  0  0  0  0
  6  9  2  0  0  0  0
  6 10  1  0  0  0  0
  7 18  1  0  0  0  0
  8 21  1  0  0  0  0
  9 16  1  0  0  0  0
  9 18  1  0  0  0  0
 10 17  2  0  0  0  0
 10 19  1  0  0  0  0
 11 12  2  0  0  0  0
 12 13  1  0  0  0  0
 12 14  1  0  0  0  0
 13 15  1  0  0  0  0
 14 20  1  0  0  0  0
 15 19  1  0  0  0  0
  1 22  1  0  0  0  0
  2 23  1  0  0  0  0
  3 24  1  0  0  0  0
  4 25  1  0  0  0  0
 11 26  1  0  0  0  0
 11 27  1  0  0  0  0
 13 28  1  0  0  0  0
 13 29  1  0  0  0  0
 14 30  1  0  0  0  0
 14 31  1  0  0  0  0
 15 32  1  0  0  0  0
 15 33  1  0  0  0  0
 18 34  1  0  0  0  0
 19 35  1  0  0  0  0
 20 36  1  0  0  0  0
M  END
> <POSIT::Probability>
0.83

> <POSIT::Method>
SHAPEFIT

> <ReceptorTitle>
UCSF-P4463-REFINED_LIGAND-BOUND-STATE_A__DU__LA1_A-201(A)

> <OMEGA_C>
tZBCwvNs6sH4Z3RAsyZIwr5h6sHf7IBAostGwgZD6cGEr85A+xcvwiJN6sE8ybpATjg/wvbg6cHP
cZ5Aa2Y5wsP/6cFZ7qFAYT1Bwh9R6cHtGMhAqUBKws/N6cEv/qpAch04wn6C6cHRRs1AoF81wg6X
6sE1oIJAUI0swg2zAcJoFidA9LQvwgc//cEsdeQ/YyouwhaS8cGmjMg/WgA0whZTAcLdh28/tOYy
wv6d6cGKusw/8fEywriq6cFKbdlANTcwwquw6sHWH5BAYeY8wgr96MFkM+RAq7E2wnAd68F0uC5A
9i05wlsi/sH6fJE/ystRwv3b6cGI1LNACOlAwiTd6sHfpzRAotVKwl7K6sG2x0tAimhIwlPP6MEK
su5A+vQqwqSB6sEntsRAICEtwjP6BcJKySlA/H8pwk6r/8H02U1AnlIrwmBE78GkvxZAuzUswjDq
8MH0txU/b+sywqjkAMLGGwC+3SU0wleYBcKFWJk/hEExwtd44cGCCNU/DSc1whx96sH6Hyk/0i09
wj516MGuBgJB8kM4wixl8sHGPyZAcbQ7wpzfAMIHwxY/

> <OMEGA_E>
7J2vPg==

> <OMEGA_NBR>
     27556

$$$$
CACHE3HI_1690_19
  -OEChem-03092622513D

 41 44  0     1  0  0  0  0  0999 V2000
  -48.7988  -29.4253    3.9492 C   0  0  0  0  0  0  0  0  0  0  0  0
  -50.1857  -29.3558    4.1960 C   0  0  0  0  0  0  0  0  0  0  0  0
  -49.7632  -29.0082    6.5934 C   0  0  0  0  0  0  0  0  0  0  0  0
  -43.8687  -29.2649    5.7582 C   0  0  0  0  0  0  0  0  0  0  0  0
  -47.9295  -29.3350    5.0537 C   0  0  0  0  0  0  0  0  0  0  0  0
  -46.4794  -29.4165    5.1232 C   0  0  0  0  0  0  0  0  0  0  0  0
  -48.3830  -29.0804    6.3485 C   0  0  0  0  0  0  0  0  0  0  0  0
  -50.6650  -29.1666    5.5164 C   0  0  0  0  0  0  0  0  0  0  0  0
  -46.0969  -29.0799    6.4180 C   0  0  0  0  0  0  0  0  0  0  0  0
  -45.5229  -29.7731    4.1628 C   0  0  0  0  0  0  0  0  0  0  0  0
  -44.2958  -32.3312    0.8058 C   0  0  0  0  0  0  0  0  0  0  0  0
  -46.7604  -31.8139    1.3064 C   0  0  0  0  0  0  0  0  0  0  0  0
  -46.5970  -31.6252    2.8097 C   0  0  0  0  0  0  0  0  0  0  0  0
  -45.4306  -31.2981    0.7586 C   0  0  1  0  0  0  0  0  0  0  0  0
  -45.0369  -30.1527    1.7273 C   0  0  1  0  0  0  0  0  0  0  0  0
  -45.3144  -28.7730    1.1262 C   0  0  0  0  0  0  0  0  0  0  0  0
  -41.9722  -32.1327    1.1042 C   0  0  0  0  0  0  0  0  0  0  0  0
  -44.7871  -29.0119    6.7296 N   0  0  0  0  0  0  0  0  0  0  0  0
  -44.2128  -29.6560    4.4995 N   0  0  0  0  0  0  0  0  0  0  0  0
  -47.2628  -28.9190    7.1686 N   0  0  0  0  0  0  0  0  0  0  0  0
  -45.8823  -30.3210    2.9356 N   0  0  2  0  0  0  0  0  0  0  0  0
  -44.4501  -33.4169    1.3596 O   0  0  0  0  0  0  0  0  0  0  0  0
  -43.1195  -31.9285    0.2586 O   0  0  0  0  0  0  0  0  0  0  0  0
  -52.5392  -29.1005    5.8484 Br  0  0  0  0  0  0  0  0  0  0  0  0
  -48.4160  -29.5440    2.9463 H   0  0  0  0  0  0  0  0  0  0  0  0
  -50.8840  -29.4469    3.3771 H   0  0  0  0  0  0  0  0  0  0  0  0
  -50.1320  -28.8336    7.5933 H   0  0  0  0  0  0  0  0  0  0  0  0
  -42.8213  -29.1507    5.9954 H   0  0  0  0  0  0  0  0  0  0  0  0
  -46.9097  -32.8740    1.0533 H   0  0  0  0  0  0  0  0  0  0  0  0
  -47.6045  -31.2227    0.9216 H   0  0  0  0  0  0  0  0  0  0  0  0
  -47.5772  -31.5833    3.3071 H   0  0  0  0  0  0  0  0  0  0  0  0
  -46.0004  -32.4412    3.2434 H   0  0  0  0  0  0  0  0  0  0  0  0
  -45.5563  -30.9089   -0.2626 H   0  0  0  0  0  0  0  0  0  0  0  0
  -43.9716  -30.2396    1.9873 H   0  0  0  0  0  0  0  0  0  0  0  0
  -45.0212  -27.9936    1.8449 H   0  0  0  0  0  0  0  0  0  0  0  0
  -44.7344  -28.6536    0.1992 H   0  0  0  0  0  0  0  0  0  0  0  0
  -46.3873  -28.6799    0.9020 H   0  0  0  0  0  0  0  0  0  0  0  0
  -41.0674  -31.7812    0.5867 H   0  0  0  0  0  0  0  0  0  0  0  0
  -42.1016  -31.5691    2.0399 H   0  0  0  0  0  0  0  0  0  0  0  0
  -41.8711  -33.2040    1.3324 H   0  0  0  0  0  0  0  0  0  0  0  0
  -47.2921  -28.7180    8.1478 H   0  0  0  0  0  0  0  0  0  0  0  0
  1  2  2  0  0  0  0
  1  5  1  0  0  0  0
  2  8  1  0  0  0  0
  3  7  1  0  0  0  0
  3  8  2  0  0  0  0
  4 18  2  0  0  0  0
  4 19  1  0  0  0  0
  5  6  1  0  0  0  0
  5  7  2  0  0  0  0
  6  9  2  0  0  0  0
  6 10  1  0  0  0  0
  7 20  1  0  0  0  0
  8 24  1  0  0  0  0
  9 18  1  0  0  0  0
  9 20  1  0  0  0  0
 10 19  2  0  0  0  0
 10 21  1  0  0  0  0
 11 14  1  0  0  0  0
 11 22  2  0  0  0  0
 11 23  1  0  0  0  0
 12 13  1  0  0  0  0
 12 14  1  0  0  0  0
 13 21  1  0  0  0  0
 14 15  1  0  0  0  0
 15 16  1  0  0  0  0
 15 21  1  0  0  0  0
 17 23  1  0  0  0  0
  1 25  1  0  0  0  0
  2 26  1  0  0  0  0
  3 27  1  0  0  0  0
  4 28  1  0  0  0  0
 12 29  1  0  0  0  0
 12 30  1  0  0  0  0
 13 31  1  0  0  0  0
 13 32  1  0  0  0  0
 14 33  1  0  0  0  0
 15 34  1  0  0  0  0
 16 35  1  0  0  0  0
 16 36  1  0  0  0  0
 16 37  1  0  0  0  0
 17 38  1  0  0  0  0
 17 39  1  0  0  0  0
 17 40  1  0  0  0  0
 20 41  1  0  0  0  0
M  END
> <POSIT::Probability>
0.72

> <POSIT::Method>
SHAPEFIT

> <ReceptorTitle>
UCSF-P4463-REFINED_LIGAND-BOUND-STATE_A__DU__LA1_A-201(A)

> <OMEGA_C>
9jFDwhtn68HGv3xALr5IwrbY6sGRRYZAeg1Hws4Q6MHT/NJAi3kvwoge6sFlQ7hA1bc/wgau6sHH
t6FA4Oo5wvFU68Hl8KNAPohBwpyk6MHNJstA9ahKwjFV6cG1hrBAQ2M4wo2j6MHtX81AZhc2wjYv
7sGvNYVA7S4xwh5TAcIwR04/sAo7wvGC/sG0Oac/WWM6wnMA/cEi0jNA57g1wnli+sGYMEI/wCU0
wtQ48cFEF90/9EE1whov5sGgJpA/huMnwt6HAMLEVY0/+CUzwnUY6MGzWNdA5NkwwoY/7cEX/I9A
Gg09wgta58EvZeVAfoc3wnSR8sEO4DtA2swxwvKqBcLoBa4/VHoswqZt/8HwaYQ+HihSwuHN6MH5
JbtA8KlBwhBa7MGgkDxAN4lLwlWT68E1I1hAIIdIwkOr5sF0/PJA+kgrwpM06cEi2r9AfKM7wvJ+
A8K804Y/9Wo+wivI+cE87Gs/FU8+womq/MH4p1NAYAA4wtXDAcIjlE9AsDk2wnNF98G3cYa+5uIv
wrvq8cFdYP4/sBU0wu/y38FFJuw/C/Aywqg65cGH8Es+low5wn5w5cFG6WY/CkUkwtU//sEXLxY/
AWgowmuN/MHNjQJA9XsnwuDQBMKxjKo/KCs9wo++5cFDXQJB

> <OMEGA_E>
SFsGPw==

> <OMEGA_NBR>
     28909

$$$$
CACHE3HI_1690_21
  -OEChem-03092622513D

 43 46  0     1  0  0  0  0  0999 V2000
  -48.6658  -29.0608    3.8029 C   0  0  0  0  0  0  0  0  0  0  0  0
  -50.0625  -29.1582    4.0293 C   0  0  0  0  0  0  0  0  0  0  0  0
  -49.6920  -29.2725    6.4454 C   0  0  0  0  0  0  0  0  0  0  0  0
  -43.7680  -29.1141    5.9864 C   0  0  0  0  0  0  0  0  0  0  0  0
  -47.7967  -29.1534    4.9145 C   0  0  0  0  0  0  0  0  0  0  0  0
  -46.3112  -29.1650    5.0352 C   0  0  0  0  0  0  0  0  0  0  0  0
  -48.3095  -29.2122    6.2196 C   0  0  0  0  0  0  0  0  0  0  0  0
  -50.5714  -29.2707    5.3479 C   0  0  0  0  0  0  0  0  0  0  0  0
  -46.0451  -29.1331    6.4136 C   0  0  0  0  0  0  0  0  0  0  0  0
  -45.2104  -29.2173    4.1151 C   0  0  0  0  0  0  0  0  0  0  0  0
  -46.2452  -32.8309    1.3829 C   0  0  0  0  0  0  0  0  0  0  0  0
  -44.0648  -31.6686    1.3567 C   0  0  0  0  0  0  0  0  0  0  0  0
  -46.1526  -30.4211    2.1399 C   0  0  0  0  0  0  0  0  0  0  0  0
  -44.0361  -29.1847    1.8881 C   0  0  0  0  0  0  0  0  0  0  0  0
  -45.4057  -31.7718    2.1046 C   0  0  1  0  0  0  0  0  0  0  0  0
  -43.2040  -30.5058    1.8618 C   0  0  2  0  0  0  0  0  0  0  0  0
  -47.1545  -32.4145    0.2136 C   0  0  0  0  0  0  0  0  0  0  0  0
  -41.9982  -30.3858    0.9174 C   0  0  0  0  0  0  0  0  0  0  0  0
  -44.7847  -29.1065    6.8720 N   0  0  0  0  0  0  0  0  0  0  0  0
  -43.9597  -29.1703    4.6482 N   0  0  0  0  0  0  0  0  0  0  0  0
  -47.2469  -29.1730    7.1045 N   0  0  0  0  0  0  0  0  0  0  0  0
  -45.2821  -29.3810    2.7116 N   0  0  2  0  0  0  0  0  0  0  0  0
  -45.8361  -33.9851    1.4018 O   0  0  0  0  0  0  0  0  0  0  0  0
  -52.4508  -29.3771    5.6659 Br  0  0  0  0  0  0  0  0  0  0  0  0
  -48.2756  -28.9194    2.8058 H   0  0  0  0  0  0  0  0  0  0  0  0
  -50.7434  -29.1467    3.1912 H   0  0  0  0  0  0  0  0  0  0  0  0
  -50.0781  -29.3199    7.4529 H   0  0  0  0  0  0  0  0  0  0  0  0
  -42.7561  -29.0735    6.3618 H   0  0  0  0  0  0  0  0  0  0  0  0
  -43.5086  -32.6071    1.4970 H   0  0  0  0  0  0  0  0  0  0  0  0
  -44.2678  -31.5191    0.2860 H   0  0  0  0  0  0  0  0  0  0  0  0
  -46.4381  -30.1356    1.1167 H   0  0  0  0  0  0  0  0  0  0  0  0
  -47.0566  -30.5205    2.7586 H   0  0  0  0  0  0  0  0  0  0  0  0
  -43.4297  -28.3802    2.3297 H   0  0  0  0  0  0  0  0  0  0  0  0
  -44.3172  -28.9100    0.8607 H   0  0  0  0  0  0  0  0  0  0  0  0
  -45.2167  -32.1031    3.1364 H   0  0  0  0  0  0  0  0  0  0  0  0
  -42.8500  -30.7275    2.8794 H   0  0  0  0  0  0  0  0  0  0  0  0
  -47.3016  -33.2714   -0.4603 H   0  0  0  0  0  0  0  0  0  0  0  0
  -48.1281  -32.0852    0.6056 H   0  0  0  0  0  0  0  0  0  0  0  0
  -46.6841  -31.5889   -0.3406 H   0  0  0  0  0  0  0  0  0  0  0  0
  -41.3536  -29.5582    1.2483 H   0  0  0  0  0  0  0  0  0  0  0  0
  -41.4258  -31.3250    0.9326 H   0  0  0  0  0  0  0  0  0  0  0  0
  -42.3519  -30.1885   -0.1054 H   0  0  0  0  0  0  0  0  0  0  0  0
  -47.3331  -29.1735    8.1008 H   0  0  0  0  0  0  0  0  0  0  0  0
  1  2  2  0  0  0  0
  1  5  1  0  0  0  0
  2  8  1  0  0  0  0
  3  7  1  0  0  0  0
  3  8  2  0  0  0  0
  4 19  2  0  0  0  0
  4 20  1  0  0  0  0
  5  6  1  0  0  0  0
  5  7  2  0  0  0  0
  6  9  2  0  0  0  0
  6 10  1  0  0  0  0
  7 21  1  0  0  0  0
  8 24  1  0  0  0  0
  9 19  1  0  0  0  0
  9 21  1  0  0  0  0
 10 20  2  0  0  0  0
 10 22  1  0  0  0  0
 11 15  1  0  0  0  0
 11 17  1  0  0  0  0
 11 23  2  0  0  0  0
 12 15  1  0  0  0  0
 12 16  1  0  0  0  0
 13 15  1  0  0  0  0
 13 22  1  0  0  0  0
 14 16  1  0  0  0  0
 14 22  1  0  0  0  0
 16 18  1  0  0  0  0
  1 25  1  0  0  0  0
  2 26  1  0  0  0  0
  3 27  1  0  0  0  0
  4 28  1  0  0  0  0
 12 29  1  0  0  0  0
 12 30  1  0  0  0  0
 13 31  1  0  0  0  0
 13 32  1  0  0  0  0
 14 33  1  0  0  0  0
 14 34  1  0  0  0  0
 15 35  1  0  0  0  0
 16 36  1  0  0  0  0
 17 37  1  0  0  0  0
 17 38  1  0  0  0  0
 17 39  1  0  0  0  0
 18 40  1  0  0  0  0
 18 41  1  0  0  0  0
 18 42  1  0  0  0  0
 21 43  1  0  0  0  0
M  END
> <POSIT::Probability>
0.72

> <POSIT::Method>
SHAPEFIT

> <ReceptorTitle>
UCSF-P4463-REFINED_LIGAND-BOUND-STATE_A__DU__LA1_A-201(A)

> <OMEGA_C>
x6lCwpN86MEgYnNA9z9IwhhE6cFq8IBAo8RGwgsu6sGTQM5AYxIvwqDp6MH8kL9AyC8/wio66cGr
Q51Apz45wv1R6cGvIKFA9zxBwnyy6cEHB8dAIElKwlEq6sGfIatAMi44wpkQ6cFgPM1Ab9c0wgq9
6cGYroNAGfs4wthSA8JWArE/WEIwwjFZ/cHiqK0/QZw4wnJe88Ht8whA8SQwwjh66cGgq/E/dJ81
wo8s/sFysgZA8NAsws8L9MF0UO4/Op48wnOoAcLwslo+Mf4nwgsW88Fg2Wo/hCMzwjba6MF659tA
utYvwq9c6cEvvpRAyvw8wlpi6cEFWONA1yA1wj4M68Fmiy1AKVg3wsnwB8J8b7M/ks1RwmEE68Hu
TrVAMRpBwu9a58FRkjNARvlKwnos6cEIPExA9k9IwjGP6sE7fu5AOwYrwnuW6MGhk8tAxwguwrdt
AsKKnL8/MBIxwiAn/MF1bJI+ocA5wrsV8cE7744/ADo8wvcp9MEejTBA/LctwqUK48FoGhVA2UQx
wsBH58F7VFw/4900wpppAMJFukhAcmYrwv7R9cGMSDhA2zQ9wt4VBcJUsuu+KYNAwjZXAMIPChs/
g7w6wgq2/MGRXa6+DWolwiV37MH/x58/BbQlwoSZ+sFKwW4/XWgpwgyC8cHsxte9DFU9wkFj6cHE
nAFB

> <OMEGA_E>
NJUHPw==

> <OMEGA_NBR>
     30302

$$$$
CACHE3HI_1690_22
  -OEChem-03092622513D

 40 43  0     1  0  0  0  0  0999 V2000
  -48.7076  -29.5054    3.8827 C   0  0  0  0  0  0  0  0  0  0  0  0
  -50.1045  -29.4572    4.1118 C   0  0  0  0  0  0  0  0  0  0  0  0
  -49.7282  -29.0944    6.5120 C   0  0  0  0  0  0  0  0  0  0  0  0
  -43.8052  -29.2142    5.8547 C   0  0  0  0  0  0  0  0  0  0  0  0
  -47.8513  -29.3526    4.9925 C   0  0  0  0  0  0  0  0  0  0  0  0
  -46.3881  -29.3571    5.0869 C   0  0  0  0  0  0  0  0  0  0  0  0
  -48.3423  -29.1459    6.2874 C   0  0  0  0  0  0  0  0  0  0  0  0
  -50.6115  -29.2533    5.4218 C   0  0  0  0  0  0  0  0  0  0  0  0
  -46.0605  -29.1434    6.4277 C   0  0  0  0  0  0  0  0  0  0  0  0
  -45.3725  -29.4887    4.1145 C   0  0  0  0  0  0  0  0  0  0  0  0
  -44.2612  -34.0831    1.2798 C   0  0  0  0  0  0  0  0  0  0  0  0
  -44.9834  -32.9642    0.9266 C   0  0  0  0  0  0  0  0  0  0  0  0
  -45.0829  -28.7441    1.7506 C   0  0  0  0  0  0  0  0  0  0  0  0
  -45.9543  -31.0494    2.2703 C   0  0  0  0  0  0  0  0  0  0  0  0
  -43.8530  -29.3970    1.0851 C   0  0  0  0  0  0  0  0  0  0  0  0
  -44.6836  -31.6276    1.5883 C   0  0  2  0  0  0  0  0  0  0  0  0
  -46.0491  -33.0577   -0.1555 C   0  0  0  0  0  0  0  0  0  0  0  0
  -44.7690  -29.0776    6.8033 N   0  0  0  0  0  0  0  0  0  0  0  0
  -44.0821  -29.4064    4.5326 N   0  0  0  0  0  0  0  0  0  0  0  0
  -47.2497  -29.0223    7.1452 N   0  0  0  0  0  0  0  0  0  0  0  0
  -45.6565  -29.6779    2.7587 N   0  0  1  0  0  0  0  0  0  0  0  0
  -44.2099  -30.7039    0.5717 O   0  0  0  0  0  0  0  0  0  0  0  0
  -52.4958  -29.1875    5.7273 Br  0  0  0  0  0  0  0  0  0  0  0  0
  -48.3108  -29.6545    2.8893 H   0  0  0  0  0  0  0  0  0  0  0  0
  -50.7883  -29.5763    3.2844 H   0  0  0  0  0  0  0  0  0  0  0  0
  -50.1140  -28.9350    7.5080 H   0  0  0  0  0  0  0  0  0  0  0  0
  -42.7709  -29.1683    6.1621 H   0  0  0  0  0  0  0  0  0  0  0  0
  -44.4516  -35.0259    0.7887 H   0  0  0  0  0  0  0  0  0  0  0  0
  -43.5047  -34.0173    2.0477 H   0  0  0  0  0  0  0  0  0  0  0  0
  -44.7788  -27.8106    2.2468 H   0  0  0  0  0  0  0  0  0  0  0  0
  -45.8399  -28.5221    0.9840 H   0  0  0  0  0  0  0  0  0  0  0  0
  -46.7789  -31.0115    1.5432 H   0  0  0  0  0  0  0  0  0  0  0  0
  -46.2420  -31.6888    3.1178 H   0  0  0  0  0  0  0  0  0  0  0  0
  -43.5054  -28.7617    0.2571 H   0  0  0  0  0  0  0  0  0  0  0  0
  -43.0489  -29.5034    1.8281 H   0  0  0  0  0  0  0  0  0  0  0  0
  -43.9083  -31.7726    2.3551 H   0  0  0  0  0  0  0  0  0  0  0  0
  -46.5149  -32.0715   -0.2983 H   0  0  0  0  0  0  0  0  0  0  0  0
  -45.5864  -33.3845   -1.0984 H   0  0  0  0  0  0  0  0  0  0  0  0
  -46.8165  -33.7851    0.1477 H   0  0  0  0  0  0  0  0  0  0  0  0
  -47.3104  -28.8690    8.1316 H   0  0  0  0  0  0  0  0  0  0  0  0
  1  2  2  0  0  0  0
  1  5  1  0  0  0  0
  2  8  1  0  0  0  0
  3  7  1  0  0  0  0
  3  8  2  0  0  0  0
  4 18  2  0  0  0  0
  4 19  1  0  0  0  0
  5  6  1  0  0  0  0
  5  7  2  0  0  0  0
  6  9  2  0  0  0  0
  6 10  1  0  0  0  0
  7 20  1  0  0  0  0
  8 23  1  0  0  0  0
  9 18  1  0  0  0  0
  9 20  1  0  0  0  0
 10 19  2  0  0  0  0
 10 21  1  0  0  0  0
 11 12  2  0  0  0  0
 12 16  1  0  0  0  0
 12 17  1  0  0  0  0
 13 15  1  0  0  0  0
 13 21  1  0  0  0  0
 14 16  1  0  0  0  0
 14 21  1  0  0  0  0
 15 22  1  0  0  0  0
 16 22  1  0  0  0  0
  1 24  1  0  0  0  0
  2 25  1  0  0  0  0
  3 26  1  0  0  0  0
  4 27  1  0  0  0  0
 11 28  1  0  0  0  0
 11 29  1  0  0  0  0
 13 30  1  0  0  0  0
 13 31  1  0  0  0  0
 14 32  1  0  0  0  0
 14 33  1  0  0  0  0
 15 34  1  0  0  0  0
 15 35  1  0  0  0  0
 16 36  1  0  0  0  0
 17 37  1  0  0  0  0
 17 38  1  0  0  0  0
 17 39  1  0  0  0  0
 20 40  1  0  0  0  0
M  END
> <POSIT::Probability>
0.75

> <POSIT::Method>
SHAPEFIT

> <ReceptorTitle>
UCSF-P4463-REFINED_LIGAND-BOUND-STATE_A__DU__LA1_A-201(A)

> <OMEGA_C>
jNRCwhcL7MGqfXhAAmtIwlGo68EElINAuelGwmPB6MH0YdBAfTgvwpa26cHFWbtAwWc/wh3S6sGH
wp9AZ405wlnb6sGfx6JAhV5BwtMq6cEiMslAIXJKws8G6sGVf61A/D04wqwl6cFur81Adn01wtvo
68GoqYNAgAsxwhVVCMK7z6M/CO8zwljbA8I6M20/2lQ0wuTz5cErFOA/P9E3wh5l+MGKTBFAdWkv
wvos68Gx44o/BLwywlAF/cExTss/RzI4whQ7BMJmQB++dxMzwvKe6MHftNlAClQwwjVA68E+C5FA
u/88wpIt6MHApeRAQ6A2wl1s7cGYjjBA5tYwwpyh9cEEXhI/uvtRwgiA6cG9RbdAQz5BwnY87cGX
6jhAPydLwkKc7MHmM1JAyHRIwtd658GuQfBAXBUrwrpY6cE8MMVAdc4xwpIaDMJU50k/1wQuwrcR
CMJADgNAgx0zwi983sERzA9ABFw3wj4t5MFs6Hs/jx07woQX+MFQhsU/zfc4wsOC/cGtikdAfAUu
wusX5sFBoIM+FjIswukG7MFmAOo/IaIvwjYu/sG1uRZASQ86wjJJAMK6upi+bVg2wq+JBcKCmYy/
HkQ7wvIjB8KhPBc+5j09wrDz5sHWGgJB

> <OMEGA_E>
ehgVPw==

> <OMEGA_NBR>
     31630

$$$$
CACHE3HI_1690_26
  -OEChem-03092622513D

 45 48  0     1  0  0  0  0  0999 V2000
  -48.7862  -29.5327    3.9528 C   0  0  0  0  0  0  0  0  0  0  0  0
  -50.1753  -29.4930    4.2013 C   0  0  0  0  0  0  0  0  0  0  0  0
  -49.7587  -29.0045    6.5691 C   0  0  0  0  0  0  0  0  0  0  0  0
  -43.8420  -29.2351    5.8587 C   0  0  0  0  0  0  0  0  0  0  0  0
  -47.9049  -29.3634    5.0426 C   0  0  0  0  0  0  0  0  0  0  0  0
  -46.4372  -29.3838    5.1213 C   0  0  0  0  0  0  0  0  0  0  0  0
  -48.3755  -29.0735    6.3280 C   0  0  0  0  0  0  0  0  0  0  0  0
  -50.6597  -29.2311    5.5053 C   0  0  0  0  0  0  0  0  0  0  0  0
  -46.0912  -29.0577    6.4350 C   0  0  0  0  0  0  0  0  0  0  0  0
  -45.4301  -29.6629    4.1702 C   0  0  0  0  0  0  0  0  0  0  0  0
  -44.5835  -32.4919    1.1859 C   0  0  0  0  0  0  0  0  0  0  0  0
  -45.4969  -29.5197    0.4136 C   0  0  0  0  0  0  0  0  0  0  0  0
  -46.2448  -30.8436    0.1174 C   0  0  0  0  0  0  0  0  0  0  0  0
  -45.8277  -28.9892    1.8219 C   0  0  0  0  0  0  0  0  0  0  0  0
  -46.3244  -31.3979    2.6307 C   0  0  0  0  0  0  0  0  0  0  0  0
  -46.0404  -31.9452    1.2105 C   0  0  2  0  0  0  0  0  0  0  0  0
  -47.0580  -33.0898    0.9257 C   0  0  0  0  0  0  0  0  0  0  0  0
  -42.1238  -31.9908    1.4197 C   0  0  0  0  0  0  0  0  0  0  0  0
  -44.7949  -28.9832    6.7943 N   0  0  0  0  0  0  0  0  0  0  0  0
  -44.1351  -29.5740    4.5702 N   0  0  0  0  0  0  0  0  0  0  0  0
  -47.2704  -28.8791    7.1563 N   0  0  0  0  0  0  0  0  0  0  0  0
  -45.7053  -30.0528    2.8605 N   0  0  2  0  0  0  0  0  0  0  0  0
  -43.5375  -31.6372    1.5232 N   0  0  0  0  0  0  0  0  0  0  0  0
  -44.3624  -33.6751    0.9455 O   0  0  0  0  0  0  0  0  0  0  0  0
  -52.5384  -29.1372    5.8235 Br  0  0  0  0  0  0  0  0  0  0  0  0
  -48.4072  -29.6888    2.9536 H   0  0  0  0  0  0  0  0  0  0  0  0
  -50.8713  -29.6633    3.3933 H   0  0  0  0  0  0  0  0  0  0  0  0
  -50.1290  -28.7803    7.5585 H   0  0  0  0  0  0  0  0  0  0  0  0
  -42.8041  -29.1636    6.1488 H   0  0  0  0  0  0  0  0  0  0  0  0
  -44.4136  -29.6974    0.3435 H   0  0  0  0  0  0  0  0  0  0  0  0
  -45.7939  -28.7667   -0.3313 H   0  0  0  0  0  0  0  0  0  0  0  0
  -47.3202  -30.6248    0.0430 H   0  0  0  0  0  0  0  0  0  0  0  0
  -45.8834  -31.2381   -0.8437 H   0  0  0  0  0  0  0  0  0  0  0  0
  -45.1330  -28.1721    2.0662 H   0  0  0  0  0  0  0  0  0  0  0  0
  -46.8591  -28.6067    1.8245 H   0  0  0  0  0  0  0  0  0  0  0  0
  -47.4129  -31.3131    2.7652 H   0  0  0  0  0  0  0  0  0  0  0  0
  -45.9177  -32.1044    3.3692 H   0  0  0  0  0  0  0  0  0  0  0  0
  -48.0808  -32.6856    0.9470 H   0  0  0  0  0  0  0  0  0  0  0  0
  -46.8554  -33.5223   -0.0652 H   0  0  0  0  0  0  0  0  0  0  0  0
  -46.9563  -33.8703    1.6941 H   0  0  0  0  0  0  0  0  0  0  0  0
  -41.5076  -31.1404    1.7470 H   0  0  0  0  0  0  0  0  0  0  0  0
  -41.9160  -32.8615    2.0590 H   0  0  0  0  0  0  0  0  0  0  0  0
  -41.8831  -32.2372    0.3750 H   0  0  0  0  0  0  0  0  0  0  0  0
  -47.3173  -28.6454    8.1274 H   0  0  0  0  0  0  0  0  0  0  0  0
  -43.7684  -30.7235    1.8574 H   0  0  0  0  0  0  0  0  0  0  0  0
  1  2  2  0  0  0  0
  1  5  1  0  0  0  0
  2  8  1  0  0  0  0
  3  7  1  0  0  0  0
  3  8  2  0  0  0  0
  4 19  2  0  0  0  0
  4 20  1  0  0  0  0
  5  6  1  0  0  0  0
  5  7  2  0  0  0  0
  6  9  2  0  0  0  0
  6 10  1  0  0  0  0
  7 21  1  0  0  0  0
  8 25  1  0  0  0  0
  9 19  1  0  0  0  0
  9 21  1  0  0  0  0
 10 20  2  0  0  0  0
 10 22  1  0  0  0  0
 11 16  1  0  0  0  0
 11 23  1  0  0  0  0
 11 24  2  0  0  0  0
 12 13  1  0  0  0  0
 12 14  1  0  0  0  0
 13 16  1  0  0  0  0
 14 22  1  0  0  0  0
 15 16  1  0  0  0  0
 15 22  1  0  0  0  0
 16 17  1  0  0  0  0
 18 23  1  0  0  0  0
  1 26  1  0  0  0  0
  2 27  1  0  0  0  0
  3 28  1  0  0  0  0
  4 29  1  0  0  0  0
 12 30  1  0  0  0  0
 12 31  1  0  0  0  0
 13 32  1  0  0  0  0
 13 33  1  0  0  0  0
 14 34  1  0  0  0  0
 14 35  1  0  0  0  0
 15 36  1  0  0  0  0
 15 37  1  0  0  0  0
 17 38  1  0  0  0  0
 17 39  1  0  0  0  0
 17 40  1  0  0  0  0
 18 41  1  0  0  0  0
 18 42  1  0  0  0  0
 18 43  1  0  0  0  0
 21 44  1  0  0  0  0
 23 45  1  0  0  0  0
M  END
> <POSIT::Probability>
0.79

> <POSIT::Method>
SHAPEFIT

> <ReceptorTitle>
UCSF-P4463-REFINED_LIGAND-BOUND-STATE_A__DU__LA1_A-201(A)

> <OMEGA_C>
HSVDwgVD7MF++nxAi7NIwr/x68FwcYZA5AhHwiYJ6MHcNdJAMV4vwnbh6cGHertAmJ4/wi7o6sGY
XKFAp785wgkS68HL4aNAdoBBwoCW6MFaf8pAh6NKwjbZ6cEwK7BAWF04wil26MHJ681Adrg1wqVN
7cEJcoVAiFUywrv3AcIvzJc/1fw1wmIo7MFxvdM+pfo4wrO/9sE6fvA9lE83ws7p58HnMuk/MEw5
wtQu+8GOXShAXik4wtGP/8Fi8po/ajs8wv1bBMJ++mw/u34owkDt/8HiuLU/+C0zwp3d58EFa9lA
U4owwo6X7MEoP5JA4BQ9wn8I58ETAOVAR9I2wjRs8MFFEjdAWiYuwg8Z/cHk98I/GHMxwkWzBsL1
CnI/VidSwvsY6cG4WbpA7KBBwqSC7cEoCD1APXxLwmRO7cEQK1lAEIRIwvU95sF23/FAbzcrwhFP
6cEUw8RAiqcxwkOU7cEj4q8+7yw3wkUi5sEYoam+5Uc9wor/9MGq/C89pYg3wpDn+cE5/1e/LYg0
wmVg4cHZPARAr287wnPa5MHriOk/xKY9wjCB+sGN+DBAr6s3wvBqAMJ/oFdAwlJAwgO+AsLIb3I/
7Ws7wsoWBsK2m4W9QdM7wjp7B8K92Ng/zwcmwowf+cHsnd8/86knwjVyA8ICxwNASIgnwvHyAMLk
AsA+50Q9wtUp5cH1CQJB3hIvwrLJ9cEAwO0/

> <OMEGA_E>
IHcYPw==

> <OMEGA_NBR>
     33059

$$$$
CACHE3HI_1690_31
  -OEChem-03092622513D

 41 44  0     0  0  0  0  0  0999 V2000
  -48.6076  -29.5070    3.8481 C   0  0  0  0  0  0  0  0  0  0  0  0
  -50.0094  -29.5076    4.0480 C   0  0  0  0  0  0  0  0  0  0  0  0
  -49.6980  -29.1247    6.4547 C   0  0  0  0  0  0  0  0  0  0  0  0
  -43.7683  -29.1535    5.9396 C   0  0  0  0  0  0  0  0  0  0  0  0
  -47.7856  -29.3139    4.9758 C   0  0  0  0  0  0  0  0  0  0  0  0
  -46.3300  -29.2768    5.1035 C   0  0  0  0  0  0  0  0  0  0  0  0
  -48.3095  -29.1294    6.2601 C   0  0  0  0  0  0  0  0  0  0  0  0
  -50.5500  -29.3152    5.3468 C   0  0  0  0  0  0  0  0  0  0  0  0
  -46.0365  -29.0893    6.4545 C   0  0  0  0  0  0  0  0  0  0  0  0
  -45.2917  -29.3928    4.1598 C   0  0  0  0  0  0  0  0  0  0  0  0
  -45.2791  -32.2404    1.3007 C   0  0  0  0  0  0  0  0  0  0  0  0
  -41.9833  -31.4479    2.1509 C   0  0  0  0  0  0  0  0  0  0  0  0
  -43.2180  -31.9955    2.8701 C   0  0  0  0  0  0  0  0  0  0  0  0
  -42.8031  -31.6365    0.8614 C   0  0  0  0  0  0  0  0  0  0  0  0
  -44.0723  -31.3799    1.7136 C   0  0  0  0  0  0  0  0  0  0  0  0
  -47.5518  -32.3715    0.6082 C   0  0  0  0  0  0  0  0  0  0  0  0
  -44.4304  -29.8566    1.8352 C   0  0  0  0  0  0  0  0  0  0  0  0
  -44.7550  -29.0380    6.8635 N   0  0  0  0  0  0  0  0  0  0  0  0
  -44.0156  -29.3013    4.6119 N   0  0  0  0  0  0  0  0  0  0  0  0
  -47.2420  -28.9869    7.1437 N   0  0  0  0  0  0  0  0  0  0  0  0
  -45.5320  -29.6023    2.8063 N   0  0  0  0  0  0  0  0  0  0  0  0
  -45.1953  -33.4631    1.3878 O   0  0  0  0  0  0  0  0  0  0  0  0
  -46.3561  -31.5867    0.7682 O   0  0  0  0  0  0  0  0  0  0  0  0
  -52.4377  -29.3207    5.6198 Br  0  0  0  0  0  0  0  0  0  0  0  0
  -48.1833  -29.6496    2.8653 H   0  0  0  0  0  0  0  0  0  0  0  0
  -50.6713  -29.6553    3.2075 H   0  0  0  0  0  0  0  0  0  0  0  0
  -50.1106  -28.9768    7.4418 H   0  0  0  0  0  0  0  0  0  0  0  0
  -42.7417  -29.1268    6.2740 H   0  0  0  0  0  0  0  0  0  0  0  0
  -41.7264  -30.4059    2.3925 H   0  0  0  0  0  0  0  0  0  0  0  0
  -41.0825  -32.0747    2.2271 H   0  0  0  0  0  0  0  0  0  0  0  0
  -43.2608  -33.0925    2.9393 H   0  0  0  0  0  0  0  0  0  0  0  0
  -43.4040  -31.5580    3.8620 H   0  0  0  0  0  0  0  0  0  0  0  0
  -42.6132  -30.8833    0.0825 H   0  0  0  0  0  0  0  0  0  0  0  0
  -42.7414  -32.6427    0.4213 H   0  0  0  0  0  0  0  0  0  0  0  0
  -48.3461  -31.7463    0.1746 H   0  0  0  0  0  0  0  0  0  0  0  0
  -47.3465  -33.2199   -0.0612 H   0  0  0  0  0  0  0  0  0  0  0  0
  -47.8765  -32.7487    1.5892 H   0  0  0  0  0  0  0  0  0  0  0  0
  -43.5354  -29.3097    2.1666 H   0  0  0  0  0  0  0  0  0  0  0  0
  -44.7403  -29.4876    0.8463 H   0  0  0  0  0  0  0  0  0  0  0  0
  -47.3288  -28.8335    8.1281 H   0  0  0  0  0  0  0  0  0  0  0  0
  -46.1419  -30.3928    2.7501 H   0  0  0  0  0  0  0  0  0  0  0  0
  1  2  2  0  0  0  0
  1  5  1  0  0  0  0
  2  8  1  0  0  0  0
  3  7  1  0  0  0  0
  3  8  2  0  0  0  0
  4 18  2  0  0  0  0
  4 19  1  0  0  0  0
  5  6  1  0  0  0  0
  5  7  2  0  0  0  0
  6  9  2  0  0  0  0
  6 10  1  0  0  0  0
  7 20  1  0  0  0  0
  8 24  1  0  0  0  0
  9 18  1  0  0  0  0
  9 20  1  0  0  0  0
 10 19  2  0  0  0  0
 10 21  1  0  0  0  0
 11 15  1  0  0  0  0
 11 22  2  0  0  0  0
 11 23  1  0  0  0  0
 12 13  1  0  0  0  0
 12 14  1  0  0  0  0
 13 15  1  0  0  0  0
 14 15  1  0  0  0  0
 15 17  1  0  0  0  0
 16 23  1  0  0  0  0
 17 21  1  0  0  0  0
  1 25  1  0  0  0  0
  2 26  1  0  0  0  0
  3 27  1  0  0  0  0
  4 28  1  0  0  0  0
 12 29  1  0  0  0  0
 12 30  1  0  0  0  0
 13 31  1  0  0  0  0
 13 32  1  0  0  0  0
 14 33  1  0  0  0  0
 14 34  1  0  0  0  0
 16 35  1  0  0  0  0
 16 36  1  0  0  0  0
 16 37  1  0  0  0  0
 17 38  1  0  0  0  0
 17 39  1  0  0  0  0
 20 40  1  0  0  0  0
 21 41  1  0  0  0  0
M  END
> <POSIT::Probability>
0.93

> <POSIT::Method>
SHAPEFIT

> <ReceptorTitle>
UCSF-P4463-REFINED_LIGAND-BOUND-STATE_A__DU__LA1_A-201(A)

> <OMEGA_C>
LG5CwlIO7MHyR3ZAmwlIwo8P7MFYiYFAy8pGwlj/6MHJjM5AvxIvwlg66cHpEL5AdCQ/wveC6sGd
OZ9A5lE5wv026sERUKNA6zxBwgsJ6cHrUshANTNKwpyF6sHnGKtAVSU4wvS26MFji85AwCo1wmAk
68E+HYVA1x01wjf2AMKsfKY/2u4nwkyV+8EaqQlAPd8swtn2/8EOrzdAYTYrwnsX/cHohlw/E0ow
whMK+8H4V9s//jQ+wmt8AcKotRs/u7gxwl3a7sF45uo/JQUzwuFN6MF7odtA+g8wwvdo6sHzlJNA
1Pc8wh3l58FbmeRAySA2wnXR7MFCmjNA+sc0wi/aBcKYpLE/rWw5woqx/MFgpkQ/QMBRwuKQ6sGd
1bNAsrtAwlky7cGIYDdAc69Kwvg97cE8SE1ASHFIwnXQ58HUIu5Ai/cqwqQD6cGhxMhAz+cmwlw/
88ELHhlAg1QkwoBMAMJviQ5ABgstwrxeBMLEHTxArp0twr92/MEkK3dA9HMqwvoQ98GiCqk9M/cq
whySAsI5tdc+cGJBwlT4/cFn0DI+1WI9wiXhBMJrsXq9k4E/wqz+AsIPass/OiQuwld66sFsqQpA
GvYywq3m68HQqFg/pVA9whSr5sGeDAJBR5E4wm8k88HpADBA

> <OMEGA_E>
QCSIPg==

> <OMEGA_NBR>
     34402

$$$$
CACHE3HI_1690_82
  -OEChem-03092622513D

 31 34  0     1  0  0  0  0  0999 V2000
  -43.3589  -27.5833    1.0814 C   0  0  0  0  0  0  0  0  0  0  0  0
  -44.4179  -28.1202    1.2567 C   0  0  0  0  0  0  0  0  0  0  0  0
  -48.9953  -29.5728    3.2790 C   0  0  0  0  0  0  0  0  0  0  0  0
  -50.3921  -29.5764    3.3666 C   0  0  0  0  0  0  0  0  0  0  0  0
  -50.2948  -29.1732    5.7605 C   0  0  0  0  0  0  0  0  0  0  0  0
  -44.4743  -29.0657    5.9375 C   0  0  0  0  0  0  0  0  0  0  0  0
  -48.2306  -29.3660    4.4465 C   0  0  0  0  0  0  0  0  0  0  0  0
  -46.8325  -29.3016    4.7204 C   0  0  0  0  0  0  0  0  0  0  0  0
  -48.8983  -29.1723    5.6591 C   0  0  0  0  0  0  0  0  0  0  0  0
  -51.0300  -29.3796    4.5899 C   0  0  0  0  0  0  0  0  0  0  0  0
  -46.6907  -29.0711    6.0819 C   0  0  0  0  0  0  0  0  0  0  0  0
  -45.6539  -29.4098    3.9811 C   0  0  0  0  0  0  0  0  0  0  0  0
  -45.9651  -30.0072    0.6001 C   0  0  0  0  0  0  0  0  0  0  0  0
  -45.6891  -30.8520    1.8459 C   0  0  0  0  0  0  0  0  0  0  0  0
  -45.6938  -28.7671    1.4680 C   0  0  1  0  0  0  0  0  0  0  0  0
  -45.5371  -28.9416    6.7592 N   0  0  0  0  0  0  0  0  0  0  0  0
  -44.4602  -29.2881    4.6051 N   0  0  0  0  0  0  0  0  0  0  0  0
  -47.9402  -28.9956    6.6329 N   0  0  0  0  0  0  0  0  0  0  0  0
  -45.6836  -29.6428    2.5971 N   0  0  3  0  0  0  0  0  0  0  0  0
  -52.9209  -29.3907    4.6711 Br  0  0  0  0  0  0  0  0  0  0  0  0
  -42.4189  -27.1055    0.9253 H   0  0  0  0  0  0  0  0  0  0  0  0
  -48.5185  -29.7275    2.3157 H   0  0  0  0  0  0  0  0  0  0  0  0
  -50.9699  -29.7365    2.4590 H   0  0  0  0  0  0  0  0  0  0  0  0
  -50.7791  -29.0179    6.7196 H   0  0  0  0  0  0  0  0  0  0  0  0
  -43.5015  -28.9745    6.4081 H   0  0  0  0  0  0  0  0  0  0  0  0
  -45.2800  -30.1827   -0.2355 H   0  0  0  0  0  0  0  0  0  0  0  0
  -46.9948  -30.0760    0.2313 H   0  0  0  0  0  0  0  0  0  0  0  0
  -46.4875  -31.5359    2.1451 H   0  0  0  0  0  0  0  0  0  0  0  0
  -44.7201  -31.3608    1.8572 H   0  0  0  0  0  0  0  0  0  0  0  0
  -46.5324  -28.0694    1.5203 H   0  0  0  0  0  0  0  0  0  0  0  0
  -48.1325  -28.8352    7.6119 H   0  0  0  0  0  0  0  0  0  0  0  0
  1  2  3  0  0  0  0
  2 15  1  0  0  0  0
  3  4  2  0  0  0  0
  3  7  1  0  0  0  0
  4 10  1  0  0  0  0
  5  9  1  0  0  0  0
  5 10  2  0  0  0  0
  6 16  2  0  0  0  0
  6 17  1  0  0  0  0
  7  8  1  0  0  0  0
  7  9  2  0  0  0  0
  8 11  2  0  0  0  0
  8 12  1  0  0  0  0
  9 18  1  0  0  0  0
 10 20  1  0  0  0  0
 11 16  1  0  0  0  0
 11 18  1  0  0  0  0
 12 17  2  0  0  0  0
 12 19  1  0  0  0  0
 13 14  1  0  0  0  0
 13 15  1  0  0  0  0
 14 19  1  0  0  0  0
 15 19  1  0  0  0  0
  1 21  1  0  0  0  0
  3 22  1  0  0  0  0
  4 23  1  0  0  0  0
  5 24  1  0  0  0  0
  6 25  1  0  0  0  0
 13 26  1  0  0  0  0
 13 27  1  0  0  0  0
 14 28  1  0  0  0  0
 14 29  1  0  0  0  0
 15 30  1  0  0  0  0
 18 31  1  0  0  0  0
M  END
> <POSIT::Probability>
0.42

> <POSIT::Method>
HYBRID

> <ReceptorTitle>
UCSF-P4463-REFINED_LIGAND-BOUND-STATE_A__DU__LA1_A-201(A)

> <OMEGA_C>
iW8twoqq3MGSaoo/+qsxwiP24MH52aA/OPtDwgWV7MGA21FAipFJwm2c7MG5dVdA0y1Jwr5i6cEq
VrhAuuUxwpSG6MExAL5AF+xAwqTt6sEMSo5Ab1Q7wrBp6sG1DZdA1ZdDwvNg6cEUF7VAuh5MwloJ
68FI4JJAR8M6wpKR6MEIn8JAmZ02wjZH68Gzyn5AQNw3wq0O8ME3oBk/qME2ws7Q9sEVSOw/e8Y2
wgcj5sFv6Ls/9SU2wlmI58GiS9hAQ9cxwvdN6sH3XJNAvsI/wg7358FrQNRAALw2wnok7cEtNiZA
965TwiIg68HceZVA7KwpwhHY2MGw3Ww/8BJCwvbR7cHwMxRAKuFLwlbk7cF8YB1A1B1Lwpok6ME+
B9dAgAEuwsrL58HYDs1ArR41wi528cH4IHG+uPo7wo2b8MHo0Ww+NPM5woVJ/ME/SQlAYOEywgXj
+sGjue0/NCE6wiSO4MGRmMI/r4dAwoqu5sGNlPNA

> <OMEGA_E>
t5NGwQ==

> <OMEGA_NBR>
     35532

$$$$
CACHE3HI_1691_56
  -OEChem-03092622513D

 37 39  0     0  0  0  0  0  0999 V2000
  -50.9879  -29.5169    4.9734 C   0  0  0  0  0  0  0  0  0  0  0  0
  -50.7777  -29.3108    6.3524 C   0  0  0  0  0  0  0  0  0  0  0  0
  -49.8933  -29.5567    4.0959 C   0  0  0  0  0  0  0  0  0  0  0  0
  -49.4723  -29.1495    6.8619 C   0  0  0  0  0  0  0  0  0  0  0  0
  -47.5093  -29.4123    3.7370 C   0  0  0  0  0  0  0  0  0  0  0  0
  -46.0499  -29.0634    5.6528 C   0  0  0  0  0  0  0  0  0  0  0  0
  -48.5931  -29.3910    4.6043 C   0  0  0  0  0  0  0  0  0  0  0  0
  -48.3680  -29.1927    5.9916 C   0  0  0  0  0  0  0  0  0  0  0  0
  -46.2272  -29.2415    4.2574 C   0  0  0  0  0  0  0  0  0  0  0  0
  -45.1228  -32.3204    1.2501 C   0  0  0  0  0  0  0  0  0  0  0  0
  -43.8582  -29.3467    3.4661 C   0  0  0  0  0  0  0  0  0  0  0  0
  -42.7086  -32.3091    0.2237 C   0  0  0  0  0  0  0  0  0  0  0  0
  -42.5124  -32.3147    1.7382 C   0  0  0  0  0  0  0  0  0  0  0  0
  -43.7471  -31.6156    1.1180 C   0  0  0  0  0  0  0  0  0  0  0  0
  -43.7298  -30.0653    1.0760 C   0  0  0  0  0  0  0  0  0  0  0  0
  -47.1145  -29.0404    6.4886 N   0  0  0  0  0  0  0  0  0  0  0  0
  -46.2516  -31.7670    0.6753 N   0  0  0  0  0  0  0  0  0  0  0  0
  -45.2243  -29.2460    3.3121 N   0  0  0  0  0  0  0  0  0  0  0  0
  -43.1224  -29.5342    2.3140 N   0  0  0  0  0  0  0  0  0  0  0  0
  -45.1933  -33.4600    1.6966 O   0  0  0  0  0  0  0  0  0  0  0  0
  -43.2869  -29.2521    4.5455 O   0  0  0  0  0  0  0  0  0  0  0  0
  -51.9906  -29.6441    4.5927 H   0  0  0  0  0  0  0  0  0  0  0  0
  -51.6229  -29.2762    7.0238 H   0  0  0  0  0  0  0  0  0  0  0  0
  -50.0485  -29.7134    3.0386 H   0  0  0  0  0  0  0  0  0  0  0  0
  -49.3208  -28.9928    7.9196 H   0  0  0  0  0  0  0  0  0  0  0  0
  -47.6568  -29.5586    2.6771 H   0  0  0  0  0  0  0  0  0  0  0  0
  -45.0540  -28.9448    6.0536 H   0  0  0  0  0  0  0  0  0  0  0  0
  -42.0438  -31.7066   -0.4127 H   0  0  0  0  0  0  0  0  0  0  0  0
  -42.9702  -33.2413   -0.2983 H   0  0  0  0  0  0  0  0  0  0  0  0
  -42.6363  -33.2488    2.3056 H   0  0  0  0  0  0  0  0  0  0  0  0
  -41.7099  -31.7141    2.1912 H   0  0  0  0  0  0  0  0  0  0  0  0
  -43.1416  -29.7307    0.2087 H   0  0  0  0  0  0  0  0  0  0  0  0
  -44.7605  -29.6916    0.9862 H   0  0  0  0  0  0  0  0  0  0  0  0
  -47.1000  -32.2945    0.6310 H   0  0  0  0  0  0  0  0  0  0  0  0
  -46.2199  -30.8391    0.3039 H   0  0  0  0  0  0  0  0  0  0  0  0
  -45.5368  -29.1632    2.3658 H   0  0  0  0  0  0  0  0  0  0  0  0
  -42.1493  -29.3040    2.3169 H   0  0  0  0  0  0  0  0  0  0  0  0
  1  2  1  0  0  0  0
  1  3  2  0  0  0  0
  2  4  2  0  0  0  0
  3  7  1  0  0  0  0
  4  8  1  0  0  0  0
  5  7  2  0  0  0  0
  5  9  1  0  0  0  0
  6  9  2  0  0  0  0
  6 16  1  0  0  0  0
  7  8  1  0  0  0  0
  8 16  2  0  0  0  0
  9 18  1  0  0  0  0
 10 14  1  0  0  0  0
 10 17  1  0  0  0  0
 10 20  2  0  0  0  0
 11 18  1  0  0  0  0
 11 19  1  0  0  0  0
 11 21  2  0  0  0  0
 12 13  1  0  0  0  0
 12 14  1  0  0  0  0
 13 14  1  0  0  0  0
 14 15  1  0  0  0  0
 15 19  1  0  0  0  0
  1 22  1  0  0  0  0
  2 23  1  0  0  0  0
  3 24  1  0  0  0  0
  4 25  1  0  0  0  0
  5 26  1  0  0  0  0
  6 27  1  0  0  0  0
 12 28  1  0  0  0  0
 12 29  1  0  0  0  0
 13 30  1  0  0  0  0
 13 31  1  0  0  0  0
 15 32  1  0  0  0  0
 15 33  1  0  0  0  0
 17 34  1  0  0  0  0
 17 35  1  0  0  0  0
 18 36  1  0  0  0  0
 19 37  1  0  0  0  0
M  END
> <POSIT::Probability>
0.78

> <POSIT::Method>
SHAPEFIT

> <ReceptorTitle>
UCSF-P4463-REFINED_LIGAND-BOUND-STATE_A__DU__LA1_A-201(A)

> <OMEGA_C>
n/NLwq4i7MEdJp9AWhxLwod86sF9RstAu5JHwjF07MFpEYNArONFwhMy6cFVlNtAeQk+wk9M68FO
Km9AGTM4wtuB6MEV5LRAWF9CwrQg68HFVpNA3XhBwpKK6cE9u79Ap+g4woXu6cE9PIhAyX00wgtI
AcJMA6A/x24vwv7F6sHC1F1Al9UqwpA8AcKAGmU+vgwqwjhCAcJcfN4/B/0uws3s/MEMHI8/W+su
wsuF8MEouYk/S3U8wrFS6MHlos9AqAE5wsUi/sGw4iw/tOU0wsz36cEe+VNAXX0swh9G7MEaGRRA
+sU0wgbXBcLEK9k/xiUtwjUE6sEhdZFAVvZPwiAn7cGY95JA131OwqM16sHwwuBArzFIwhi17cEH
eUJAfUhFwkLx58Gnbf1AiqA+whh47MFJVitAUzc0wvCO58G8tsFA4Swowien/cHrTtO+geErwiP3
BMKXvpi+losqwsv+BMJqjxNA9tYmwni2/cFfPQxADJEswofY7cHRwFU+wgozwmeI7cFTd3w/YGY8
wp0tAcJyiSE/I+E4wm+29sEqk5s+pyU2wlFO6cGPaBdA45gowoVu6sG8SBRA

> <OMEGA_E>
uB5kPw==

> <OMEGA_NBR>
     36789

$$$$
CACHE3HI_1694_17
  -OEChem-03092622513D

 31 32  0     0  0  0  0  0  0999 V2000
  -43.5371  -29.4783    5.3692 C   0  0  0  0  0  0  0  0  0  0  0  0
  -48.5311  -29.0845    4.3375 C   0  0  0  0  0  0  0  0  0  0  0  0
  -44.2225  -29.3446    6.5797 C   0  0  0  0  0  0  0  0  0  0  0  0
  -48.3539  -28.9525    6.7603 C   0  0  0  0  0  0  0  0  0  0  0  0
  -50.4772  -28.8737    5.7835 C   0  0  0  0  0  0  0  0  0  0  0  0
  -47.7233  -29.0711    5.4932 C   0  0  0  0  0  0  0  0  0  0  0  0
  -49.9239  -28.9829    4.4912 C   0  0  0  0  0  0  0  0  0  0  0  0
  -44.2691  -29.4579    4.1731 C   0  0  0  0  0  0  0  0  0  0  0  0
  -46.2489  -29.1925    5.4121 C   0  0  0  0  0  0  0  0  0  0  0  0
  -44.9642  -32.2624    1.2908 C   0  0  0  0  0  0  0  0  0  0  0  0
  -43.7465  -31.3261    1.3016 C   0  0  0  0  0  0  0  0  0  0  0  0
  -44.1072  -29.8616    1.6682 C   0  0  0  0  0  0  0  0  0  0  0  0
  -49.6957  -28.8595    6.8863 N   0  0  0  0  0  0  0  0  0  0  0  0
  -45.5577  -29.1970    6.5824 N   0  0  0  0  0  0  0  0  0  0  0  0
  -45.6201  -29.3212    4.2067 N   0  0  0  0  0  0  0  0  0  0  0  0
  -46.2025  -31.8031    0.8759 N   0  0  0  0  0  0  0  0  0  0  0  0
  -43.5441  -29.5276    2.9874 N   0  0  0  0  0  0  0  0  0  0  0  0
  -44.7998  -33.4666    1.4411 O   0  0  0  0  0  0  0  0  0  0  0  0
  -51.0616  -28.9934    2.9653 Br  0  0  0  0  0  0  0  0  0  0  0  0
  -42.4635  -29.5952    5.3550 H   0  0  0  0  0  0  0  0  0  0  0  0
  -48.0889  -29.1709    3.3560 H   0  0  0  0  0  0  0  0  0  0  0  0
  -43.6789  -29.3599    7.5128 H   0  0  0  0  0  0  0  0  0  0  0  0
  -47.7420  -28.9363    7.6501 H   0  0  0  0  0  0  0  0  0  0  0  0
  -51.5489  -28.7999    5.8946 H   0  0  0  0  0  0  0  0  0  0  0  0
  -43.0218  -31.7030    2.0384 H   0  0  0  0  0  0  0  0  0  0  0  0
  -43.2899  -31.3341    0.3009 H   0  0  0  0  0  0  0  0  0  0  0  0
  -43.6912  -29.1817    0.9102 H   0  0  0  0  0  0  0  0  0  0  0  0
  -45.2013  -29.7511    1.6989 H   0  0  0  0  0  0  0  0  0  0  0  0
  -46.9444  -32.4513    0.7044 H   0  0  0  0  0  0  0  0  0  0  0  0
  -46.3551  -30.8232    0.7478 H   0  0  0  0  0  0  0  0  0  0  0  0
  -43.1262  -28.6257    2.8777 H   0  0  0  0  0  0  0  0  0  0  0  0
  1  3  1  0  0  0  0
  1  8  2  0  0  0  0
  2  6  1  0  0  0  0
  2  7  2  0  0  0  0
  3 14  2  0  0  0  0
  4  6  2  0  0  0  0
  4 13  1  0  0  0  0
  5  7  1  0  0  0  0
  5 13  2  0  0  0  0
  6  9  1  0  0  0  0
  7 19  1  0  0  0  0
  8 15  1  0  0  0  0
  8 17  1  0  0  0  0
  9 14  1  0  0  0  0
  9 15  2  0  0  0  0
 10 11  1  0  0  0  0
 10 16  1  0  0  0  0
 10 18  2  0  0  0  0
 11 12  1  0  0  0  0
 12 17  1  0  0  0  0
  1 20  1  0  0  0  0
  2 21  1  0  0  0  0
  3 22  1  0  0  0  0
  4 23  1  0  0  0  0
  5 24  1  0  0  0  0
 11 25  1  0  0  0  0
 11 26  1  0  0  0  0
 12 27  1  0  0  0  0
 12 28  1  0  0  0  0
 16 29  1  0  0  0  0
 16 30  1  0  0  0  0
 17 31  1  0  0  0  0
M  END
> <POSIT::Probability>
0.72

> <POSIT::Method>
SHAPEFIT

> <ReceptorTitle>
UCSF-P4463-REFINED_LIGAND-BOUND-STATE_A__DU__LA1_A-201(A)

> <OMEGA_C>
/yUuwpzT68E70KtA0R9Cwvus6ME0zYpA2uMwwsDB6sHbjNJAXGpBws6e58EMVNhAq+hJwm795sE4
ErlAsuQ+woaR6MERyK9ACrJHwvvc58Hft49AlxMxwr+p68HLiYVA1/44wkiK6cFTMK1AWNszwq8M
AcJfN6U/bfwuwuib+sEsnKY/0m0wwn7k7sFKiNU/a8hGwjLg5sH1XNxAIDs2wm+T6cFBo9JAB3s2
wt6R6sH+nIZAU884wtFs/sHBPWA/Jy0uwoI47MFsMT9ABjMzwsPdBcIcd7g/Gj9MwoLy58HOxz1A
rNopwhDD7ME+XKtABFtAwvxd6cEJyVZAKrcuwifh6sGRaPBA0fc+wpp958FkzfRAHjJOwj1m5sGI
oLxAVhYswryf/cHVdAJA2CgtwlCs+sEIE5o+yMMuwht06cHg/2g/Fc40wjIC7sEhd9k/Ccc7wijO
AcJEUzQ/l2s5wuGV9sEacj8/P4EswoMB5cHZKzhA

> <OMEGA_E>
bjBePw==

> <OMEGA_NBR>
     37922

$$$$
CACHE3HI_1694_23
  -OEChem-03092622513D

 43 45  0     0  0  0  0  0  0999 V2000
  -44.0925  -32.7848    2.0144 C   0  0  0  0  0  0  0  0  0  0  0  0
  -45.3640  -32.9142    1.4556 C   0  0  0  0  0  0  0  0  0  0  0  0
  -43.5867  -31.5189    2.3100 C   0  0  0  0  0  0  0  0  0  0  0  0
  -45.6240  -30.5123    1.4885 C   0  0  0  0  0  0  0  0  0  0  0  0
  -46.1297  -31.7781    1.1928 C   0  0  0  0  0  0  0  0  0  0  0  0
  -44.3525  -30.3829    2.0472 C   0  0  0  0  0  0  0  0  0  0  0  0
  -47.0035  -29.0666    4.4393 C   0  0  0  0  0  0  0  0  0  0  0  0
  -47.4489  -29.1826    5.7027 C   0  0  0  0  0  0  0  0  0  0  0  0
  -44.7934  -29.3994    5.0173 C   0  0  0  0  0  0  0  0  0  0  0  0
  -45.2016  -29.5405    6.4742 C   0  0  0  0  0  0  0  0  0  0  0  0
  -47.4554  -31.9132    0.6103 C   0  0  0  0  0  0  0  0  0  0  0  0
  -47.9467  -28.7883    3.2945 C   0  0  0  0  0  0  0  0  0  0  0  0
  -48.8956  -29.0803    6.0966 C   0  0  0  0  0  0  0  0  0  0  0  0
  -49.3319  -28.3144    3.7400 C   0  0  0  0  0  0  0  0  0  0  0  0
  -49.8482  -29.1540    4.9022 C   0  0  0  0  0  0  0  0  0  0  0  0
  -43.8061  -29.0139    2.3690 C   0  0  0  0  0  0  0  0  0  0  0  0
  -42.8425  -29.0195    3.5527 C   0  0  0  0  0  0  0  0  0  0  0  0
  -45.6794  -29.1756    4.0873 N   0  0  0  0  0  0  0  0  0  0  0  0
  -46.5504  -29.4172    6.7083 N   0  0  0  0  0  0  0  0  0  0  0  0
  -48.1777  -30.7485    0.3681 N   0  0  0  0  0  0  0  0  0  0  0  0
  -43.4531  -29.5210    4.7513 N   0  0  0  0  0  0  0  0  0  0  0  0
  -44.3424  -29.7478    7.3184 O   0  0  0  0  0  0  0  0  0  0  0  0
  -47.9258  -33.0272    0.3202 O   0  0  0  0  0  0  0  0  0  0  0  0
  -43.4958  -33.6691    2.2180 H   0  0  0  0  0  0  0  0  0  0  0  0
  -45.7481  -33.9053    1.2281 H   0  0  0  0  0  0  0  0  0  0  0  0
  -42.5949  -31.4275    2.7448 H   0  0  0  0  0  0  0  0  0  0  0  0
  -46.2204  -29.6257    1.2851 H   0  0  0  0  0  0  0  0  0  0  0  0
  -47.5160  -28.0273    2.6321 H   0  0  0  0  0  0  0  0  0  0  0  0
  -48.0508  -29.7063    2.7024 H   0  0  0  0  0  0  0  0  0  0  0  0
  -49.1563  -29.8801    6.8004 H   0  0  0  0  0  0  0  0  0  0  0  0
  -49.0470  -28.1287    6.6222 H   0  0  0  0  0  0  0  0  0  0  0  0
  -49.2813  -27.2609    4.0433 H   0  0  0  0  0  0  0  0  0  0  0  0
  -50.0292  -28.3699    2.8967 H   0  0  0  0  0  0  0  0  0  0  0  0
  -49.9536  -30.1977    4.5796 H   0  0  0  0  0  0  0  0  0  0  0  0
  -50.8449  -28.8113    5.2025 H   0  0  0  0  0  0  0  0  0  0  0  0
  -43.3131  -28.5933    1.4831 H   0  0  0  0  0  0  0  0  0  0  0  0
  -44.6485  -28.3466    2.5910 H   0  0  0  0  0  0  0  0  0  0  0  0
  -41.9895  -29.6708    3.3356 H   0  0  0  0  0  0  0  0  0  0  0  0
  -42.4584  -28.0178    3.7709 H   0  0  0  0  0  0  0  0  0  0  0  0
  -46.8972  -29.5023    7.6592 H   0  0  0  0  0  0  0  0  0  0  0  0
  -47.8085  -29.8248    0.5651 H   0  0  0  0  0  0  0  0  0  0  0  0
  -49.1009  -30.7759   -0.0519 H   0  0  0  0  0  0  0  0  0  0  0  0
  -42.8856  -29.9822    5.4370 H   0  0  0  0  0  0  0  0  0  0  0  0
  1  2  2  0  0  0  0
  1  3  1  0  0  0  0
  2  5  1  0  0  0  0
  3  6  2  0  0  0  0
  4  5  2  0  0  0  0
  4  6  1  0  0  0  0
  5 11  1  0  0  0  0
  6 16  1  0  0  0  0
  7  8  2  0  0  0  0
  7 12  1  0  0  0  0
  7 18  1  0  0  0  0
  8 13  1  0  0  0  0
  8 19  1  0  0  0  0
  9 10  1  0  0  0  0
  9 18  2  0  0  0  0
  9 21  1  0  0  0  0
 10 19  1  0  0  0  0
 10 22  2  0  0  0  0
 11 20  1  0  0  0  0
 11 23  2  0  0  0  0
 12 14  1  0  0  0  0
 13 15  1  0  0  0  0
 14 15  1  0  0  0  0
 16 17  1  0  0  0  0
 17 21  1  0  0  0  0
  1 24  1  0  0  0  0
  2 25  1  0  0  0  0
  3 26  1  0  0  0  0
  4 27  1  0  0  0  0
 12 28  1  0  0  0  0
 12 29  1  0  0  0  0
 13 30  1  0  0  0  0
 13 31  1  0  0  0  0
 14 32  1  0  0  0  0
 14 33  1  0  0  0  0
 15 34  1  0  0  0  0
 15 35  1  0  0  0  0
 16 36  1  0  0  0  0
 16 37  1  0  0  0  0
 17 38  1  0  0  0  0
 17 39  1  0  0  0  0
 19 40  1  0  0  0  0
 20 41  1  0  0  0  0
 20 42  1  0  0  0  0
 21 43  1  0  0  0  0
M  END
> <POSIT::Probability>
0.25

> <POSIT::Method>
FRED

> <ReceptorTitle>
UCSF-P4463-REFINED_LIGAND-BOUND-STATE_A__DU__LA1_A-201(A)

> <OMEGA_C>
rV4wwpojA8JI6wBAuXQ1whyoA8KIUro/0Fguwswm/MF41hNA9n42wioZ9MHIhb4/3YQ4wqU5/sHY
rpg/9GgxwjkQ88GgBANAiQM8wm6I6MEaD45AtMs9whB26cEkfLZAaSwzwvQx68EQjqBAbM40wulS
7MH6LM9AXtI9wjFO/8HgOxw/X8k/wnRO5sGw2FJAG5VDwlyk6MFkF8NA5VNFwtWD4sGAXG9AiGRH
wmU76cF43pxAaDkvwnsc6MHQnRdAw14rwuwn6MFEX2NAqrc2wrhn6cGEy4JAnDM6wlxW68GsqtZA
/bVAwgf99cFAcbw++88twvwq7MHMCphAol4xwmX77cGQMOpABbQ/wtwbBMIg9qM+r/stwiCtBsK8
8w1AE/42wgGfB8JIMZ0/OGEqwnhr+8EAqy9AteE4wlwB7cHIfqQ/YRA+wvo34MEAdShABzRAwm6m
7cFw9CxAGqBEwmAK78HcnNlAHjBEwoAH4cHs6NNABiBFwkkW2sEQY4FA5R1Iwnz14sHIYjlAgNBH
wvSU8cE4jJJANmFLwp595sGaeqZAn0Atwvq+5MFw1b0/FpgywubF4sFw0iVAR/UnwsVd7cHweVVA
YNUpwokk4MG4VXFAwZY7wqsE7MEsGPVA9Ds/wiqZ7sHgqhA/TGdEwvo09sEAllS95Iorwofb78EY
/K1A

> <OMEGA_E>
1RgtwQ==

> <OMEGA_NBR>
     39273

$$$$
CACHE3HI_1694_38
  -OEChem-03092622513D

 42 44  0     0  0  0  0  0  0999 V2000
  -50.4022  -30.8056    4.1886 C   0  0  0  0  0  0  0  0  0  0  0  0
  -49.8161  -29.9566    5.1275 C   0  0  0  0  0  0  0  0  0  0  0  0
  -49.8639  -30.9033    2.9056 C   0  0  0  0  0  0  0  0  0  0  0  0
  -48.1536  -29.3035    3.5005 C   0  0  0  0  0  0  0  0  0  0  0  0
  -48.6919  -29.2057    4.7835 C   0  0  0  0  0  0  0  0  0  0  0  0
  -48.7397  -30.1525    2.5617 C   0  0  0  0  0  0  0  0  0  0  0  0
  -44.6541  -29.5115    3.5588 C   0  0  0  0  0  0  0  0  0  0  0  0
  -43.4454  -29.6340    4.1351 C   0  0  0  0  0  0  0  0  0  0  0  0
  -45.7420  -29.1011    5.5530 C   0  0  0  0  0  0  0  0  0  0  0  0
  -44.4192  -29.2174    6.2919 C   0  0  0  0  0  0  0  0  0  0  0  0
  -48.6451  -31.0400    0.2046 C   0  0  0  0  0  0  0  0  0  0  0  0
  -44.8316  -29.6445    2.0658 C   0  0  0  0  0  0  0  0  0  0  0  0
  -42.1815  -29.9375    3.3809 C   0  0  0  0  0  0  0  0  0  0  0  0
  -43.5196  -29.5752    1.2811 C   0  0  0  0  0  0  0  0  0  0  0  0
  -42.4379  -30.4145    1.9503 C   0  0  0  0  0  0  0  0  0  0  0  0
  -48.0618  -28.2917    5.7950 C   0  0  0  0  0  0  0  0  0  0  0  0
  -45.8068  -29.2476    4.2592 N   0  0  0  0  0  0  0  0  0  0  0  0
  -43.3347  -29.4864    5.4914 N   0  0  0  0  0  0  0  0  0  0  0  0
  -49.9458  -30.7223   -0.1606 N   0  0  0  0  0  0  0  0  0  0  0  0
  -48.2018  -30.2508    1.2781 N   0  0  0  0  0  0  0  0  0  0  0  0
  -46.8440  -28.8360    6.3258 N   0  0  0  0  0  0  0  0  0  0  0  0
  -44.3974  -29.0718    7.5052 O   0  0  0  0  0  0  0  0  0  0  0  0
  -48.0096  -31.9147   -0.3776 O   0  0  0  0  0  0  0  0  0  0  0  0
  -51.2776  -31.3900    4.4565 H   0  0  0  0  0  0  0  0  0  0  0  0
  -50.2423  -29.8866    6.1247 H   0  0  0  0  0  0  0  0  0  0  0  0
  -50.3286  -31.5682    2.1819 H   0  0  0  0  0  0  0  0  0  0  0  0
  -47.2769  -28.7170    3.2343 H   0  0  0  0  0  0  0  0  0  0  0  0
  -45.3262  -30.5954    1.8317 H   0  0  0  0  0  0  0  0  0  0  0  0
  -45.5003  -28.8438    1.7254 H   0  0  0  0  0  0  0  0  0  0  0  0
  -41.5383  -29.0500    3.3424 H   0  0  0  0  0  0  0  0  0  0  0  0
  -41.6274  -30.7118    3.9268 H   0  0  0  0  0  0  0  0  0  0  0  0
  -43.6826  -29.9363    0.2576 H   0  0  0  0  0  0  0  0  0  0  0  0
  -43.1920  -28.5325    1.2024 H   0  0  0  0  0  0  0  0  0  0  0  0
  -41.5104  -30.3458    1.3678 H   0  0  0  0  0  0  0  0  0  0  0  0
  -42.7307  -31.4705    1.9596 H   0  0  0  0  0  0  0  0  0  0  0  0
  -47.8298  -27.3204    5.3458 H   0  0  0  0  0  0  0  0  0  0  0  0
  -48.7401  -28.1081    6.6347 H   0  0  0  0  0  0  0  0  0  0  0  0
  -42.4170  -29.5797    5.9166 H   0  0  0  0  0  0  0  0  0  0  0  0
  -50.4414  -29.9940    0.3424 H   0  0  0  0  0  0  0  0  0  0  0  0
  -50.4093  -31.2066   -0.9226 H   0  0  0  0  0  0  0  0  0  0  0  0
  -47.3759  -29.6776    1.0784 H   0  0  0  0  0  0  0  0  0  0  0  0
  -46.7816  -29.0396    7.3053 H   0  0  0  0  0  0  0  0  0  0  0  0
  1  2  1  0  0  0  0
  1  3  2  0  0  0  0
  2  5  2  0  0  0  0
  3  6  1  0  0  0  0
  4  5  1  0  0  0  0
  4  6  2  0  0  0  0
  5 16  1  0  0  0  0
  6 20  1  0  0  0  0
  7  8  2  0  0  0  0
  7 12  1  0  0  0  0
  7 17  1  0  0  0  0
  8 13  1  0  0  0  0
  8 18  1  0  0  0  0
  9 10  1  0  0  0  0
  9 17  2  0  0  0  0
  9 21  1  0  0  0  0
 10 18  1  0  0  0  0
 10 22  2  0  0  0  0
 11 19  1  0  0  0  0
 11 20  1  0  0  0  0
 11 23  2  0  0  0  0
 12 14  1  0  0  0  0
 13 15  1  0  0  0  0
 14 15  1  0  0  0  0
 16 21  1  0  0  0  0
  1 24  1  0  0  0  0
  2 25  1  0  0  0  0
  3 26  1  0  0  0  0
  4 27  1  0  0  0  0
 12 28  1  0  0  0  0
 12 29  1  0  0  0  0
 13 30  1  0  0  0  0
 13 31  1  0  0  0  0
 14 32  1  0  0  0  0
 14 33  1  0  0  0  0
 15 34  1  0  0  0  0
 15 35  1  0  0  0  0
 16 36  1  0  0  0  0
 16 37  1  0  0  0  0
 18 38  1  0  0  0  0
 19 39  1  0  0  0  0
 19 40  1  0  0  0  0
 20 41  1  0  0  0  0
 21 42  1  0  0  0  0
M  END
> <POSIT::Probability>
0.18

> <POSIT::Method>
FRED

> <ReceptorTitle>
UCSF-P4463-REFINED_LIGAND-BOUND-STATE_A__DU__LA1_A-201(A)

> <OMEGA_C>
4ptJwsxx9sFWCYZAuUNHwgqn78EyFKRApXRHwgA698H09TlAP51Awopt6sEFCGBAfcRCwkyl6cHW
EplAaPVCwkI48cE98yNAw50ywokX7MHDwmNAGMgtwmwS7cGXUoRAyPc2wgTP6MFqsrFANq0xwi29
6cHiVslAiJRCwt1R+MEAjVE+mVMzwv8n7cGZNgRA17kowvZ/78HCYFhAHBQuwvOZ7MFU/KM/dcAp
wuVQ88EAovk/Rj9AwoFV4sHgcLlALjo3wi376cEAS4hAsVYtwhXk68Euua9AfshHwkvH9cEQcCS+
ms5AwrYB8sGmmKM/PWA7wjaw5sGubMpA9ZYxwgmT6MG+KvBA3wlAwmFR/8FgWsG+PRxNwqMe+8Hk
m45AI/hIwr0X78HP/cNAglBJwpSL/MHgpAtAkxs9wnu85cGO/05A+001wlfD9MFyduo/UQA2wgrA
5sHI2Nw/MCcmwltm6MG/6VVAfoImwsmx9cFiUHtABbsuwnh978HY4IM+qMQswnpC5MGi6Zk/mgom
wkDE8sEUFK8/Q+wqwqfD+8EB1Po/wVE/wjCQ2sGfEKtA5/VCwlvd4MHUT9RAA6spwk2j7MH7VL1A
BsRJwrjz78GQU68+IKNJwhun+cHkLGy/5YA9wrVr7cECCoo/UiA7wiJR6MFoxelA

> <OMEGA_E>
BhkmwQ==

> <OMEGA_NBR>
     40604

$$$$
CACHE3HI_1694_45
  -OEChem-03092622513D

 38 40  0     0  0  0  0  0  0999 V2000
  -43.9555  -32.8979    2.4934 C   0  0  0  0  0  0  0  0  0  0  0  0
  -45.1227  -31.3416    1.0605 C   0  0  0  0  0  0  0  0  0  0  0  0
  -43.1097  -31.8727    2.9168 C   0  0  0  0  0  0  0  0  0  0  0  0
  -44.2769  -30.3165    1.4838 C   0  0  0  0  0  0  0  0  0  0  0  0
  -47.3951  -29.4351    3.6492 C   0  0  0  0  0  0  0  0  0  0  0  0
  -48.6733  -29.5114    4.2003 C   0  0  0  0  0  0  0  0  0  0  0  0
  -47.7041  -29.3229    6.3910 C   0  0  0  0  0  0  0  0  0  0  0  0
  -44.1409  -29.0479    6.0804 C   0  0  0  0  0  0  0  0  0  0  0  0
  -44.9621  -32.6321    1.5653 C   0  0  0  0  0  0  0  0  0  0  0  0
  -43.2702  -30.5821    2.4120 C   0  0  0  0  0  0  0  0  0  0  0  0
  -46.2656  -29.3024    4.4532 C   0  0  0  0  0  0  0  0  0  0  0  0
  -46.4229  -29.2455    5.8501 C   0  0  0  0  0  0  0  0  0  0  0  0
  -48.8272  -29.4553    5.5778 C   0  0  0  0  0  0  0  0  0  0  0  0
  -43.9866  -29.1034    4.7204 C   0  0  0  0  0  0  0  0  0  0  0  0
  -46.3834  -33.5511   -0.3053 C   0  0  0  0  0  0  0  0  0  0  0  0
  -45.8675  -33.7276    1.1132 C   0  0  0  0  0  0  0  0  0  0  0  0
  -42.3588  -29.4789    2.8676 C   0  0  0  0  0  0  0  0  0  0  0  0
  -45.3542  -29.1181    6.6557 N   0  0  0  0  0  0  0  0  0  0  0  0
  -45.0436  -29.2301    3.8972 N   0  0  0  0  0  0  0  0  0  0  0  0
  -47.5988  -32.9013   -0.3534 N   0  0  0  0  0  0  0  0  0  0  0  0
  -42.6831  -29.0265    4.1840 N   0  0  0  0  0  0  0  0  0  0  0  0
  -45.7855  -33.9481   -1.3017 O   0  0  0  0  0  0  0  0  0  0  0  0
  -50.5498  -29.5579    6.3461 Br  0  0  0  0  0  0  0  0  0  0  0  0
  -43.8239  -33.8999    2.8931 H   0  0  0  0  0  0  0  0  0  0  0  0
  -45.9034  -31.1257    0.3359 H   0  0  0  0  0  0  0  0  0  0  0  0
  -42.3282  -32.0888    3.6407 H   0  0  0  0  0  0  0  0  0  0  0  0
  -44.4095  -29.3141    1.0855 H   0  0  0  0  0  0  0  0  0  0  0  0
  -47.2876  -29.4806    2.5672 H   0  0  0  0  0  0  0  0  0  0  0  0
  -49.5303  -29.6149    3.5406 H   0  0  0  0  0  0  0  0  0  0  0  0
  -47.8231  -29.2783    7.4727 H   0  0  0  0  0  0  0  0  0  0  0  0
  -43.3048  -28.9461    6.7623 H   0  0  0  0  0  0  0  0  0  0  0  0
  -46.7355  -33.8088    1.7882 H   0  0  0  0  0  0  0  0  0  0  0  0
  -45.3526  -34.7011    1.1676 H   0  0  0  0  0  0  0  0  0  0  0  0
  -41.3172  -29.8167    2.8738 H   0  0  0  0  0  0  0  0  0  0  0  0
  -42.4174  -28.6177    2.1938 H   0  0  0  0  0  0  0  0  0  0  0  0
  -48.0407  -32.6024    0.5101 H   0  0  0  0  0  0  0  0  0  0  0  0
  -48.0580  -32.7176   -1.2400 H   0  0  0  0  0  0  0  0  0  0  0  0
  -41.9741  -28.6341    4.7730 H   0  0  0  0  0  0  0  0  0  0  0  0
  1  3  1  0  0  0  0
  1  9  2  0  0  0  0
  2  4  2  0  0  0  0
  2  9  1  0  0  0  0
  3 10  2  0  0  0  0
  4 10  1  0  0  0  0
  5  6  2  0  0  0  0
  5 11  1  0  0  0  0
  6 13  1  0  0  0  0
  7 12  1  0  0  0  0
  7 13  2  0  0  0  0
  8 14  1  0  0  0  0
  8 18  2  0  0  0  0
  9 16  1  0  0  0  0
 10 17  1  0  0  0  0
 11 12  2  0  0  0  0
 11 19  1  0  0  0  0
 12 18  1  0  0  0  0
 13 23  1  0  0  0  0
 14 19  2  0  0  0  0
 14 21  1  0  0  0  0
 15 16  1  0  0  0  0
 15 20  1  0  0  0  0
 15 22  2  0  0  0  0
 17 21  1  0  0  0  0
  1 24  1  0  0  0  0
  2 25  1  0  0  0  0
  3 26  1  0  0  0  0
  4 27  1  0  0  0  0
  5 28  1  0  0  0  0
  6 29  1  0  0  0  0
  7 30  1  0  0  0  0
  8 31  1  0  0  0  0
 16 32  1  0  0  0  0
 16 33  1  0  0  0  0
 17 34  1  0  0  0  0
 17 35  1  0  0  0  0
 20 36  1  0  0  0  0
 20 37  1  0  0  0  0
 21 38  1  0  0  0  0
M  END
> <POSIT::Probability>
0.25

> <POSIT::Method>
FRED

> <ReceptorTitle>
UCSF-P4463-REFINED_LIGAND-BOUND-STATE_A__DU__LA1_A-201(A)

> <OMEGA_C>
adIvwmqXA8J0lB9AoX00wq+7+sHQvYc/TXAswjT7/sFMrTpAkRsxwheI8sFg7r0/j5Q9wv9668HM
jGlAbLFCwlYX7MH6aIZAA9E+wmOV6sG0gsxAVJAwwgZi6MGSksJAOtkzwlKHAsLIWsg/thQtwj6o
9MHUXhpA7g85wlFr6sE2gI5AE7E5wq/26cHkM7tAC09Dwoak68HyfLJAU/IvwtLT6MGiDZdApYg5
wls0BsIATJy+RXg3whPpBsLge44/Zm8pwr3U68EMhjdAuGo1wtjx6MF6+9RAnyw0wkjX6cEAa3lA
LWU+wviaA8Kg9rS+h7sqwkA26MES44VAYiQ3wtjKB8JInaa/9DJKwqF27MHsEstAq0svwnaZB8Iw
KDlAGp03wogB+cEA/Ks+GlApwulaAMKgAGlAWKMxwi+D6sEY8Yo/eCY9wkLY68FMTSRADx9Gwjrr
7MEUmWJA4Uo/wvQ56sFqIO9AIzgtwqmR58EIZdhALvE6wio8B8LA4+Q/EGk1wvfNCsJYc5U/xEQl
wo2I7sGY6zdAdaspwv7w5MHMZwxArClAwuhoAsIQlQI/ajtAwsbeAsIouZ6/hOUnwqoS5cF+vJhA

> <OMEGA_E>
6AYLwQ==

> <OMEGA_NBR>
     41854

$$$$
CACHE3HI_1694_52
  -OEChem-03092622513D

 32 34  0     0  0  0  0  0  0999 V2000
  -47.8034  -28.5546    4.3887 C   0  0  0  0  0  0  0  0  0  0  0  0
  -47.0779  -28.3352    3.2183 C   0  0  0  0  0  0  0  0  0  0  0  0
  -48.5819  -29.7850    1.9951 C   0  0  0  0  0  0  0  0  0  0  0  0
  -44.3240  -30.2061    1.5762 C   0  0  0  0  0  0  0  0  0  0  0  0
  -43.0686  -28.1879    1.6665 C   0  0  0  0  0  0  0  0  0  0  0  0
  -42.0227  -30.1696    2.1759 C   0  0  0  0  0  0  0  0  0  0  0  0
  -48.9204  -29.3926    4.3575 C   0  0  0  0  0  0  0  0  0  0  0  0
  -47.4648  -28.9476    2.0259 C   0  0  0  0  0  0  0  0  0  0  0  0
  -49.3207  -30.0157    3.1598 C   0  0  0  0  0  0  0  0  0  0  0  0
  -44.2757  -28.8248    1.4251 C   0  0  0  0  0  0  0  0  0  0  0  0
  -43.1806  -30.8988    1.9585 C   0  0  0  0  0  0  0  0  0  0  0  0
  -50.8870  -30.5424    5.4885 C   0  0  0  0  0  0  0  0  0  0  0  0
  -51.1629  -31.0724    4.2925 C   0  0  0  0  0  0  0  0  0  0  0  0
  -49.7083  -29.6404    5.5965 C   0  0  0  0  0  0  0  0  0  0  0  0
  -46.6824  -28.7061    0.7788 C   0  0  0  0  0  0  0  0  0  0  0  0
  -41.9372  -28.8274    2.0392 N   0  0  0  0  0  0  0  0  0  0  0  0
  -50.4445  -30.8512    3.1527 N   0  0  0  0  0  0  0  0  0  0  0  0
  -45.3999  -28.1067    1.0446 N   0  0  0  0  0  0  0  0  0  0  0  0
  -49.4064  -29.1277    6.6665 O   0  0  0  0  0  0  0  0  0  0  0  0
  -43.2050  -32.7697    2.1741 Br  0  0  0  0  0  0  0  0  0  0  0  0
  -47.4859  -28.0685    5.3065 H   0  0  0  0  0  0  0  0  0  0  0  0
  -46.2091  -27.6822    3.2441 H   0  0  0  0  0  0  0  0  0  0  0  0
  -48.8777  -30.2583    1.0613 H   0  0  0  0  0  0  0  0  0  0  0  0
  -45.2551  -30.7381    1.3943 H   0  0  0  0  0  0  0  0  0  0  0  0
  -42.9687  -27.1113    1.5663 H   0  0  0  0  0  0  0  0  0  0  0  0
  -41.0963  -30.6499    2.4761 H   0  0  0  0  0  0  0  0  0  0  0  0
  -51.4820  -30.7444    6.3696 H   0  0  0  0  0  0  0  0  0  0  0  0
  -52.0060  -31.7372    4.1473 H   0  0  0  0  0  0  0  0  0  0  0  0
  -46.5025  -29.6443    0.2364 H   0  0  0  0  0  0  0  0  0  0  0  0
  -47.2187  -28.0393    0.0898 H   0  0  0  0  0  0  0  0  0  0  0  0
  -50.7357  -31.3010    2.2954 H   0  0  0  0  0  0  0  0  0  0  0  0
  -45.3101  -27.0997    0.9483 H   0  0  0  0  0  0  0  0  0  0  0  0
  1  2  1  0  0  0  0
  1  7  2  0  0  0  0
  2  8  2  0  0  0  0
  3  8  1  0  0  0  0
  3  9  2  0  0  0  0
  4 10  1  0  0  0  0
  4 11  2  0  0  0  0
  5 10  2  0  0  0  0
  5 16  1  0  0  0  0
  6 11  1  0  0  0  0
  6 16  2  0  0  0  0
  7  9  1  0  0  0  0
  7 14  1  0  0  0  0
  8 15  1  0  0  0  0
  9 17  1  0  0  0  0
 10 18  1  0  0  0  0
 11 20  1  0  0  0  0
 12 13  2  0  0  0  0
 12 14  1  0  0  0  0
 13 17  1  0  0  0  0
 14 19  2  0  0  0  0
 15 18  1  0  0  0  0
  1 21  1  0  0  0  0
  2 22  1  0  0  0  0
  3 23  1  0  0  0  0
  4 24  1  0  0  0  0
  5 25  1  0  0  0  0
  6 26  1  0  0  0  0
 12 27  1  0  0  0  0
 13 28  1  0  0  0  0
 15 29  1  0  0  0  0
 15 30  1  0  0  0  0
 17 31  1  0  0  0  0
 18 32  1  0  0  0  0
M  END
> <POSIT::Probability>
0.24

> <POSIT::Method>
FRED

> <ReceptorTitle>
UCSF-P4463-REFINED_LIGAND-BOUND-STATE_A__DU__LA1_A-201(A)

> <OMEGA_C>
ujY/wt5v5MH7b4xAvE88wmuu4sGX+E1A0VNCwrpH7sGIYP8/v0sxwi6m8cGswMk/O0YswtWA4cFU
TtU/RBcowk5b8cEKQgtAc65DwgUk68EGcYtA89s9wsSU58GAqAFAaUhFwhMg8MHVOkpATxoxwjmZ
5sHQaLY/9LgswrMw98E0r/o/QoxLws5W9MHVoa9A16ZMwkKU+MFhXIlAUdVGwpQf7cFjFrNAx7o6
wv+l5cEQYUc/vb8nwoee5sGvggJAMsdJwi/P9sFcxUlAhpk1wpza4MEstoU/HqBFwp4F6cHKU9VA
9tEswiMUA8KfJAtAifE9wkyM4MECz6lAFNY4wjx13cFgn09AuoJDwuoQ8sHE14c/LQU1worn9cEY
eLI/5t8rwuTj2MEMfMg/oWIkwg0z9cEleR5AmO1Nwnz09cH308tAHgZQwtTl/cF8toRAhwI6wpIn
7cHAH3I+/N88wo5Q4MGA8Lc9Z/FKwmto+sEg5xJAfz01wjrM2MGowXI/

> <OMEGA_E>
gkj5wA==

> <OMEGA_NBR>
     42986

$$$$
CACHE3HI_1694_62
  -OEChem-03092622513D

 43 45  0     0  0  0  0  0  0999 V2000
  -45.0268  -32.6702    2.0557 C   0  0  0  0  0  0  0  0  0  0  0  0
  -45.4417  -30.6155    0.8543 C   0  0  0  0  0  0  0  0  0  0  0  0
  -44.1535  -31.9947    2.9082 C   0  0  0  0  0  0  0  0  0  0  0  0
  -44.5683  -29.9400    1.7066 C   0  0  0  0  0  0  0  0  0  0  0  0
  -45.6710  -31.9804    1.0288 C   0  0  0  0  0  0  0  0  0  0  0  0
  -43.9241  -30.6298    2.7336 C   0  0  0  0  0  0  0  0  0  0  0  0
  -47.1210  -29.4521    4.4440 C   0  0  0  0  0  0  0  0  0  0  0  0
  -47.5993  -29.2223    5.6796 C   0  0  0  0  0  0  0  0  0  0  0  0
  -44.9195  -29.5233    5.1347 C   0  0  0  0  0  0  0  0  0  0  0  0
  -45.3661  -29.2708    6.5651 C   0  0  0  0  0  0  0  0  0  0  0  0
  -45.9339  -33.2858   -1.1137 C   0  0  0  0  0  0  0  0  0  0  0  0
  -48.0414  -29.5788    3.2545 C   0  0  0  0  0  0  0  0  0  0  0  0
  -49.0572  -29.0421    5.9965 C   0  0  0  0  0  0  0  0  0  0  0  0
  -49.5120  -29.7707    3.6315 C   0  0  0  0  0  0  0  0  0  0  0  0
  -49.9174  -28.8199    4.7513 C   0  0  0  0  0  0  0  0  0  0  0  0
  -46.6058  -32.7018    0.1179 C   0  0  0  0  0  0  0  0  0  0  0  0
  -42.9830  -29.9032    3.6511 C   0  0  0  0  0  0  0  0  0  0  0  0
  -45.7842  -29.6015    4.1621 N   0  0  0  0  0  0  0  0  0  0  0  0
  -46.7240  -29.1340    6.7283 N   0  0  0  0  0  0  0  0  0  0  0  0
  -44.6016  -33.5758   -0.9071 N   0  0  0  0  0  0  0  0  0  0  0  0
  -43.5687  -29.6611    4.9393 N   0  0  0  0  0  0  0  0  0  0  0  0
  -44.5264  -29.2058    7.4508 O   0  0  0  0  0  0  0  0  0  0  0  0
  -46.5128  -33.4753   -2.1799 O   0  0  0  0  0  0  0  0  0  0  0  0
  -45.2005  -33.7333    2.2000 H   0  0  0  0  0  0  0  0  0  0  0  0
  -45.9382  -30.0702    0.0559 H   0  0  0  0  0  0  0  0  0  0  0  0
  -43.6561  -32.5402    3.7059 H   0  0  0  0  0  0  0  0  0  0  0  0
  -44.3959  -28.8766    1.5634 H   0  0  0  0  0  0  0  0  0  0  0  0
  -47.9589  -28.6864    2.6217 H   0  0  0  0  0  0  0  0  0  0  0  0
  -47.7080  -30.4317    2.6498 H   0  0  0  0  0  0  0  0  0  0  0  0
  -49.4413  -29.9176    6.5339 H   0  0  0  0  0  0  0  0  0  0  0  0
  -49.1638  -28.1810    6.6685 H   0  0  0  0  0  0  0  0  0  0  0  0
  -50.1444  -29.5921    2.7524 H   0  0  0  0  0  0  0  0  0  0  0  0
  -49.6810  -30.8087    3.9395 H   0  0  0  0  0  0  0  0  0  0  0  0
  -50.9741  -28.9797    5.0009 H   0  0  0  0  0  0  0  0  0  0  0  0
  -49.8228  -27.7805    4.4173 H   0  0  0  0  0  0  0  0  0  0  0  0
  -47.4108  -32.0265   -0.2162 H   0  0  0  0  0  0  0  0  0  0  0  0
  -47.1072  -33.5254    0.6527 H   0  0  0  0  0  0  0  0  0  0  0  0
  -42.0658  -30.4824    3.8007 H   0  0  0  0  0  0  0  0  0  0  0  0
  -42.6916  -28.9358    3.2289 H   0  0  0  0  0  0  0  0  0  0  0  0
  -47.0957  -28.9613    7.6576 H   0  0  0  0  0  0  0  0  0  0  0  0
  -44.1842  -33.3907   -0.0006 H   0  0  0  0  0  0  0  0  0  0  0  0
  -44.0322  -33.9716   -1.6486 H   0  0  0  0  0  0  0  0  0  0  0  0
  -42.9750  -29.5842    5.7434 H   0  0  0  0  0  0  0  0  0  0  0  0
  1  3  1  0  0  0  0
  1  5  2  0  0  0  0
  2  4  2  0  0  0  0
  2  5  1  0  0  0  0
  3  6  2  0  0  0  0
  4  6  1  0  0  0  0
  5 16  1  0  0  0  0
  6 17  1  0  0  0  0
  7  8  2  0  0  0  0
  7 12  1  0  0  0  0
  7 18  1  0  0  0  0
  8 13  1  0  0  0  0
  8 19  1  0  0  0  0
  9 10  1  0  0  0  0
  9 18  2  0  0  0  0
  9 21  1  0  0  0  0
 10 19  1  0  0  0  0
 10 22  2  0  0  0  0
 11 16  1  0  0  0  0
 11 20  1  0  0  0  0
 11 23  2  0  0  0  0
 12 14  1  0  0  0  0
 13 15  1  0  0  0  0
 14 15  1  0  0  0  0
 17 21  1  0  0  0  0
  1 24  1  0  0  0  0
  2 25  1  0  0  0  0
  3 26  1  0  0  0  0
  4 27  1  0  0  0  0
 12 28  1  0  0  0  0
 12 29  1  0  0  0  0
 13 30  1  0  0  0  0
 13 31  1  0  0  0  0
 14 32  1  0  0  0  0
 14 33  1  0  0  0  0
 15 34  1  0  0  0  0
 15 35  1  0  0  0  0
 16 36  1  0  0  0  0
 16 37  1  0  0  0  0
 17 38  1  0  0  0  0
 17 39  1  0  0  0  0
 19 40  1  0  0  0  0
 20 41  1  0  0  0  0
 20 42  1  0  0  0  0
 21 43  1  0  0  0  0
M  END
> <POSIT::Probability>
0.25

> <POSIT::Method>
FRED

> <ReceptorTitle>
UCSF-P4463-REFINED_LIGAND-BOUND-STATE_A__DU__LA1_A-201(A)

> <OMEGA_C>
exs0wk6uAsI2kQNAQ8Q1woXs9MHwsFo/JZ0wwi31/8FMHzpA+EUywhSF78Egc9o/JK82ws/X/8FU
sIM/RbIvwuQJ9cFi8y5A9Hs8wu+d68GdNY5ApmU+wlTH6cEGv7VAh60zwr4v7MGRT6RA53Y1wpcq
6sE2FdJASLw3wq8kBcLUjI6/WipAwluh7MF4SVBAhjpEwlFW6MFu479AVAxGwnUq7sHQamhAd6tH
wjeP5sF/CphAVWw6wrHOAsLAevE9oe4rwrA578Gkq2lAASM3wvfP7MElMIVAbOU6wogS6cHWTddA
CmgywppNBsIAOWi/UkYuwuBJ7cGaDp5ABBsywmul6cEube5AHw06wqvmBcJsgwvAVM00wtruBsKe
zQxAq8A3wsmP8MEAGWU95J8uwjUpAsJiLW1AYpUxwj0D58H0Hcg/9NU/wsx95cGoyidA8tQ+wiJ0
88GOlilA7sNFwlBX78G+FdFAtqdEwqNy4cFLZNVA45NIwom87MG4JzBAW7lGwit49sE4IXxAfOVL
wnzW58G0B6BAhEpHwmY+3sEvWo1As6Q9whwbAMJAWF2+0m08wgkaBsIYGic/aEMowuzb88HcPnNA
NcQqwoZ858GspU5A9GE8wtWw58FKC/VAorwwwiCQBcIA4BS68yAwwvHiB8JYBNO/YuYrwlys7MGQ
ybdA

> <OMEGA_E>
jEMvwQ==

> <OMEGA_NBR>
     44337

$$$$
CACHE3HI_1694_70
  -OEChem-03092622513D

 31 33  0     0  0  0  0  0  0999 V2000
  -47.5585  -29.3967    2.7429 C   0  0  0  0  0  0  0  0  0  0  0  0
  -46.2033  -29.1848    2.9937 C   0  0  0  0  0  0  0  0  0  0  0  0
  -46.6506  -29.0291    5.3677 C   0  0  0  0  0  0  0  0  0  0  0  0
  -42.2177  -31.3750    0.8637 C   0  0  0  0  0  0  0  0  0  0  0  0
  -42.2966  -32.2228    1.9469 C   0  0  0  0  0  0  0  0  0  0  0  0
  -42.9946  -29.6538    2.1540 C   0  0  0  0  0  0  0  0  0  0  0  0
  -48.4586  -29.4237    3.8105 C   0  0  0  0  0  0  0  0  0  0  0  0
  -45.7503  -29.0015    4.3005 C   0  0  0  0  0  0  0  0  0  0  0  0
  -48.0130  -29.2406    5.1337 C   0  0  0  0  0  0  0  0  0  0  0  0
  -43.0736  -30.5018    3.2372 C   0  0  0  0  0  0  0  0  0  0  0  0
  -50.8101  -29.6664    4.7487 C   0  0  0  0  0  0  0  0  0  0  0  0
  -50.2630  -29.4802    5.9543 C   0  0  0  0  0  0  0  0  0  0  0  0
  -49.9099  -29.6479    3.5639 C   0  0  0  0  0  0  0  0  0  0  0  0
  -44.2983  -28.7762    4.5587 C   0  0  0  0  0  0  0  0  0  0  0  0
  -42.5652  -30.0756    0.9475 N   0  0  0  0  0  0  0  0  0  0  0  0
  -42.7259  -31.8010    3.1534 N   0  0  0  0  0  0  0  0  0  0  0  0
  -48.9339  -29.2725    6.1882 N   0  0  0  0  0  0  0  0  0  0  0  0
  -43.5273  -29.9872    4.4429 N   0  0  0  0  0  0  0  0  0  0  0  0
  -50.3549  -29.8111    2.4351 O   0  0  0  0  0  0  0  0  0  0  0  0
  -47.8909  -29.5372    1.7185 H   0  0  0  0  0  0  0  0  0  0  0  0
  -45.5039  -29.1646    2.1617 H   0  0  0  0  0  0  0  0  0  0  0  0
  -46.2895  -28.8861    6.3839 H   0  0  0  0  0  0  0  0  0  0  0  0
  -41.8738  -31.7142   -0.1055 H   0  0  0  0  0  0  0  0  0  0  0  0
  -42.0196  -33.2674    1.8774 H   0  0  0  0  0  0  0  0  0  0  0  0
  -43.2721  -28.6074    2.2103 H   0  0  0  0  0  0  0  0  0  0  0  0
  -51.8708  -29.8269    4.6057 H   0  0  0  0  0  0  0  0  0  0  0  0
  -50.8633  -29.4814    6.8562 H   0  0  0  0  0  0  0  0  0  0  0  0
  -43.8787  -28.0485    3.8506 H   0  0  0  0  0  0  0  0  0  0  0  0
  -44.1262  -28.3737    5.5663 H   0  0  0  0  0  0  0  0  0  0  0  0
  -48.6189  -29.1413    7.1398 H   0  0  0  0  0  0  0  0  0  0  0  0
  -43.3005  -30.4964    5.2919 H   0  0  0  0  0  0  0  0  0  0  0  0
  1  2  1  0  0  0  0
  1  7  2  0  0  0  0
  2  8  2  0  0  0  0
  3  8  1  0  0  0  0
  3  9  2  0  0  0  0
  4  5  2  0  0  0  0
  4 15  1  0  0  0  0
  5 16  1  0  0  0  0
  6 10  1  0  0  0  0
  6 15  2  0  0  0  0
  7  9  1  0  0  0  0
  7 13  1  0  0  0  0
  8 14  1  0  0  0  0
  9 17  1  0  0  0  0
 10 16  2  0  0  0  0
 10 18  1  0  0  0  0
 11 12  2  0  0  0  0
 11 13  1  0  0  0  0
 12 17  1  0  0  0  0
 13 19  2  0  0  0  0
 14 18  1  0  0  0  0
  1 20  1  0  0  0  0
  2 21  1  0  0  0  0
  3 22  1  0  0  0  0
  4 23  1  0  0  0  0
  5 24  1  0  0  0  0
  6 25  1  0  0  0  0
 11 26  1  0  0  0  0
 12 27  1  0  0  0  0
 14 28  1  0  0  0  0
 14 29  1  0  0  0  0
 17 30  1  0  0  0  0
 18 31  1  0  0  0  0
M  END
> <POSIT::Probability>
0.18

> <POSIT::Method>
FRED

> <ReceptorTitle>
UCSF-P4463-REFINED_LIGAND-BOUND-STATE_A__DU__LA1_A-201(A)

> <OMEGA_C>
3zs+wmIs68HIiy9AIdA4wnp66cGAmD9AL5o6woA76MEAxKtA5t4owhoA+8EAGl0/ui8pwiPkAMLo
M/k/eforwvw67cGg2wlAnNVBwrZj68HE3nNAVQA3whsD6MEUnolATA1Awq3s6cEkR6RAVEsswqcD
9MHwLk9Ahz1LwspU7cF49ZdAUQ1JwlrX68Ggib5AtKNHwvku7cFUF2RAezExwpw15sHK4JFAwEIq
wsSa8MEwj3I/Vecqwodo/sEI0klAUrxDwhUu6sF+BcZA9xsuwuLl78FULI5AXmtJwiJ97sF82BtA
PJA/wjBM7MEw+Ns/8gM2whJR6cH4WApAcCg5wtQW58EOScxAyH4nwr62/cEA+9e9BRQows8RBcKA
TvA/ohYtwufb5MHQdA1Aq3tPwned7sEyYpNABHRLwtfZ68E6ZttAyIMvwmRj4MHccHZAPYEwwlX9
4sE0H7JAw3lCwk0h6cGeeeRAtzMtwpL488FWV6lA

> <OMEGA_E>
PwoNwQ==

> <OMEGA_NBR>
     45447

$$$$
CACHE3HI_1694_84
  -OEChem-03092622513D

 42 44  0     0  0  0  0  0  0999 V2000
  -43.4081  -31.9738    3.0284 C   0  0  0  0  0  0  0  0  0  0  0  0
  -42.9194  -30.4279    1.2370 C   0  0  0  0  0  0  0  0  0  0  0  0
  -43.9114  -32.8872    2.1020 C   0  0  0  0  0  0  0  0  0  0  0  0
  -43.4227  -31.3412    0.3107 C   0  0  0  0  0  0  0  0  0  0  0  0
  -42.9120  -30.7442    2.5957 C   0  0  0  0  0  0  0  0  0  0  0  0
  -43.9189  -32.5709    0.7434 C   0  0  0  0  0  0  0  0  0  0  0  0
  -46.5692  -29.6898    4.2883 C   0  0  0  0  0  0  0  0  0  0  0  0
  -47.0726  -29.3998    5.5009 C   0  0  0  0  0  0  0  0  0  0  0  0
  -44.3822  -29.7241    5.0263 C   0  0  0  0  0  0  0  0  0  0  0  0
  -44.8580  -29.4017    6.4330 C   0  0  0  0  0  0  0  0  0  0  0  0
  -45.7159  -34.0247   -0.2614 C   0  0  0  0  0  0  0  0  0  0  0  0
  -47.4651  -29.8763    3.0879 C   0  0  0  0  0  0  0  0  0  0  0  0
  -48.5367  -29.2060    5.7788 C   0  0  0  0  0  0  0  0  0  0  0  0
  -48.9431  -30.0511    3.4440 C   0  0  0  0  0  0  0  0  0  0  0  0
  -49.3714  -29.0466    4.5068 C   0  0  0  0  0  0  0  0  0  0  0  0
  -42.3724  -29.7593    3.5929 C   0  0  0  0  0  0  0  0  0  0  0  0
  -45.2269  -29.8514    4.0414 N   0  0  0  0  0  0  0  0  0  0  0  0
  -46.2190  -29.2587    6.5615 N   0  0  0  0  0  0  0  0  0  0  0  0
  -46.5358  -33.5365    0.7464 N   0  0  0  0  0  0  0  0  0  0  0  0
  -44.4221  -33.4846   -0.1830 N   0  0  0  0  0  0  0  0  0  0  0  0
  -43.0277  -29.8697    4.8655 N   0  0  0  0  0  0  0  0  0  0  0  0
  -44.0365  -29.2920    7.3314 O   0  0  0  0  0  0  0  0  0  0  0  0
  -46.1284  -34.8297   -1.0919 O   0  0  0  0  0  0  0  0  0  0  0  0
  -43.4066  -32.2285    4.0848 H   0  0  0  0  0  0  0  0  0  0  0  0
  -42.5351  -29.4718    0.8912 H   0  0  0  0  0  0  0  0  0  0  0  0
  -44.2956  -33.8427    2.4503 H   0  0  0  0  0  0  0  0  0  0  0  0
  -43.4236  -31.0838   -0.7455 H   0  0  0  0  0  0  0  0  0  0  0  0
  -47.3699  -29.0162    2.4136 H   0  0  0  0  0  0  0  0  0  0  0  0
  -47.1192  -30.7576    2.5331 H   0  0  0  0  0  0  0  0  0  0  0  0
  -48.9316  -30.0543    6.3509 H   0  0  0  0  0  0  0  0  0  0  0  0
  -48.6572  -28.3127    6.4051 H   0  0  0  0  0  0  0  0  0  0  0  0
  -49.5574  -29.9169    2.5444 H   0  0  0  0  0  0  0  0  0  0  0  0
  -49.1181  -31.0728    3.7994 H   0  0  0  0  0  0  0  0  0  0  0  0
  -50.4329  -29.1952    4.7425 H   0  0  0  0  0  0  0  0  0  0  0  0
  -49.2702  -28.0248    4.1238 H   0  0  0  0  0  0  0  0  0  0  0  0
  -41.3003  -29.9177    3.7503 H   0  0  0  0  0  0  0  0  0  0  0  0
  -42.5007  -28.7313    3.2385 H   0  0  0  0  0  0  0  0  0  0  0  0
  -46.6095  -29.0408    7.4735 H   0  0  0  0  0  0  0  0  0  0  0  0
  -46.1619  -32.8724    1.4159 H   0  0  0  0  0  0  0  0  0  0  0  0
  -47.5033  -33.8330    0.8246 H   0  0  0  0  0  0  0  0  0  0  0  0
  -43.7746  -33.8125   -0.9069 H   0  0  0  0  0  0  0  0  0  0  0  0
  -42.4825  -30.0596    5.6850 H   0  0  0  0  0  0  0  0  0  0  0  0
  1  3  1  0  0  0  0
  1  5  2  0  0  0  0
  2  4  2  0  0  0  0
  2  5  1  0  0  0  0
  3  6  2  0  0  0  0
  4  6  1  0  0  0  0
  5 16  1  0  0  0  0
  6 20  1  0  0  0  0
  7  8  2  0  0  0  0
  7 12  1  0  0  0  0
  7 17  1  0  0  0  0
  8 13  1  0  0  0  0
  8 18  1  0  0  0  0
  9 10  1  0  0  0  0
  9 17  2  0  0  0  0
  9 21  1  0  0  0  0
 10 18  1  0  0  0  0
 10 22  2  0  0  0  0
 11 19  1  0  0  0  0
 11 20  1  0  0  0  0
 11 23  2  0  0  0  0
 12 14  1  0  0  0  0
 13 15  1  0  0  0  0
 14 15  1  0  0  0  0
 16 21  1  0  0  0  0
  1 24  1  0  0  0  0
  2 25  1  0  0  0  0
  3 26  1  0  0  0  0
  4 27  1  0  0  0  0
 12 28  1  0  0  0  0
 12 29  1  0  0  0  0
 13 30  1  0  0  0  0
 13 31  1  0  0  0  0
 14 32  1  0  0  0  0
 14 33  1  0  0  0  0
 15 34  1  0  0  0  0
 15 35  1  0  0  0  0
 16 36  1  0  0  0  0
 16 37  1  0  0  0  0
 18 38  1  0  0  0  0
 19 39  1  0  0  0  0
 19 40  1  0  0  0  0
 20 41  1  0  0  0  0
 21 42  1  0  0  0  0
M  END
> <POSIT::Probability>
0.18

> <POSIT::Method>
FRED

> <ReceptorTitle>
UCSF-P4463-REFINED_LIGAND-BOUND-STATE_A__DU__LA1_A-201(A)

> <OMEGA_C>
7KEtwlvK/8Em0UFAdK0rwmBs88GYV54/TqUvwnaMA8J2hwZAzrAtwtO6+sHAEZ8+2qUrwgj09cH3
HyZA6KwvwqFIAsIoTT4/5EY6wsGE7cFgOYlAV0o8wtQy68FxB7BAWYcxwv7K7cFk16BAkG4zwsQ2
68F0281AFd02wkwZCMIQ2oW+N9w9wpUC78FtoEVAkSVCwsql6cHk67hAt8VDwq5o8MGzaVxAW3xF
wnRf6MEBOJBAUn0pwiAT7sEi8mVAT+g0wqTP7sHNUoFAO+A4wuYR6sE2+NFAsiQ6wmclBsLgED8/
N7AxwjzwBcIAcDu+Uhwswjj17sHnsZtAYCUwwv5V6sHLmupAhYM4wqlRC8KAxIu/ZKAtwgbqAMJ1
toJA5iMqwjDG68F8JWQ/rS4xwu5eB8IP0hxAurEtwpqr+MGw2j6/zno9wh8h6MH1eBpAE3o8wp4P
9sH7HSJA8blDwiRv8MF4OstA86BCwoGA4sE59sxAzzpGwshV78Fy1yJA7nhEwgiV+MF2KXNAVrtJ
wqyP6cG5wpdAqhRFwtQy4MFQ9oNAjDMlwmxX78GkBXBAvQAqwqHZ5cGCQ09AIXA6wnVT6MHMJu9A
y6U4wlx9A8JKO7U/YgM+wvFUB8K4FVM/Khkvwvo/B8JQKWi/He4pwgd68MHs67VA

> <OMEGA_E>
kBAmwQ==

> <OMEGA_NBR>
     46778

$$$$
CACHE3HI_1697_15
  -OEChem-03092622513D

 43 46  0     0  0  0  0  0  0999 V2000
  -44.6596  -33.8375   -0.4852 C   0  0  0  0  0  0  0  0  0  0  0  0
  -43.4752  -33.1475   -0.2271 C   0  0  0  0  0  0  0  0  0  0  0  0
  -45.8657  -33.3854    0.0490 C   0  0  0  0  0  0  0  0  0  0  0  0
  -43.4894  -32.0004    0.5672 C   0  0  0  0  0  0  0  0  0  0  0  0
  -48.3994  -29.2639    4.7124 C   0  0  0  0  0  0  0  0  0  0  0  0
  -49.6634  -29.0619    6.5652 C   0  0  0  0  0  0  0  0  0  0  0  0
  -50.9256  -29.7026    3.0381 C   0  0  0  0  0  0  0  0  0  0  0  0
  -49.7274  -29.2791    5.2062 C   0  0  0  0  0  0  0  0  0  0  0  0
  -45.8778  -32.2368    0.8441 C   0  0  0  0  0  0  0  0  0  0  0  0
  -44.6921  -31.5379    1.1080 C   0  0  0  0  0  0  0  0  0  0  0  0
  -50.9083  -29.4879    4.4003 C   0  0  0  0  0  0  0  0  0  0  0  0
  -47.5645  -29.0375    5.7843 C   0  0  0  0  0  0  0  0  0  0  0  0
  -53.0750  -29.6815    4.1243 C   0  0  0  0  0  0  0  0  0  0  0  0
  -47.1458  -31.7211    1.4338 C   0  0  0  0  0  0  0  0  0  0  0  0
  -45.9608  -29.9892    2.4117 C   0  0  0  0  0  0  0  0  0  0  0  0
  -46.0970  -28.9334    5.7936 C   0  0  0  0  0  0  0  0  0  0  0  0
  -44.0631  -29.6285    4.5869 C   0  0  0  0  0  0  0  0  0  0  0  0
  -45.9552  -28.7463    3.2672 C   0  0  0  0  0  0  0  0  0  0  0  0
  -52.1401  -29.4754    5.0249 N   0  0  0  0  0  0  0  0  0  0  0  0
  -47.1039  -30.5793    2.2146 N   0  0  0  0  0  0  0  0  0  0  0  0
  -48.3436  -28.9164    6.9051 N   0  0  0  0  0  0  0  0  0  0  0  0
  -44.7473  -30.3946    1.9074 N   0  0  0  0  0  0  0  0  0  0  0  0
  -54.4055  -29.7304    4.3992 N   0  0  0  0  0  0  0  0  0  0  0  0
  -45.4255  -29.0804    4.5566 N   0  0  0  0  0  0  0  0  0  0  0  0
  -48.1872  -32.3291    1.2059 O   0  0  0  0  0  0  0  0  0  0  0  0
  -45.5736  -28.7141    6.8849 O   0  0  0  0  0  0  0  0  0  0  0  0
  -52.5442  -29.8998    2.5075 S   0  0  0  0  0  0  0  0  0  0  0  0
  -44.6419  -34.7300   -1.1042 H   0  0  0  0  0  0  0  0  0  0  0  0
  -42.5387  -33.5044   -0.6460 H   0  0  0  0  0  0  0  0  0  0  0  0
  -46.7769  -33.9369   -0.1637 H   0  0  0  0  0  0  0  0  0  0  0  0
  -42.5586  -31.4730    0.7596 H   0  0  0  0  0  0  0  0  0  0  0  0
  -48.0825  -29.4025    3.6869 H   0  0  0  0  0  0  0  0  0  0  0  0
  -50.4336  -28.9972    7.3215 H   0  0  0  0  0  0  0  0  0  0  0  0
  -50.0962  -29.7532    2.3467 H   0  0  0  0  0  0  0  0  0  0  0  0
  -44.0852  -30.7188    4.5017 H   0  0  0  0  0  0  0  0  0  0  0  0
  -43.4745  -29.2237    3.7589 H   0  0  0  0  0  0  0  0  0  0  0  0
  -43.5687  -29.3596    5.5245 H   0  0  0  0  0  0  0  0  0  0  0  0
  -45.3427  -27.9929    2.7799 H   0  0  0  0  0  0  0  0  0  0  0  0
  -46.9725  -28.3772    3.3604 H   0  0  0  0  0  0  0  0  0  0  0  0
  -48.0004  -28.7458    7.8405 H   0  0  0  0  0  0  0  0  0  0  0  0
  -43.8895  -29.8903    2.0970 H   0  0  0  0  0  0  0  0  0  0  0  0
  -54.7596  -29.6584    5.3590 H   0  0  0  0  0  0  0  0  0  0  0  0
  -55.0975  -29.9464    3.6738 H   0  0  0  0  0  0  0  0  0  0  0  0
  1  2  1  0  0  0  0
  1  3  2  0  0  0  0
  2  4  2  0  0  0  0
  3  9  1  0  0  0  0
  4 10  1  0  0  0  0
  5  8  1  0  0  0  0
  5 12  2  0  0  0  0
  6  8  2  0  0  0  0
  6 21  1  0  0  0  0
  7 11  2  0  0  0  0
  7 27  1  0  0  0  0
  8 11  1  0  0  0  0
  9 10  2  0  0  0  0
  9 14  1  0  0  0  0
 10 22  1  0  0  0  0
 11 19  1  0  0  0  0
 12 16  1  0  0  0  0
 12 21  1  0  0  0  0
 13 19  2  0  0  0  0
 13 23  1  0  0  0  0
 13 27  1  0  0  0  0
 14 20  1  0  0  0  0
 14 25  2  0  0  0  0
 15 18  1  0  0  0  0
 15 20  2  0  0  0  0
 15 22  1  0  0  0  0
 16 24  1  0  0  0  0
 16 26  2  0  0  0  0
 17 24  1  0  0  0  0
 18 24  1  0  0  0  0
  1 28  1  0  0  0  0
  2 29  1  0  0  0  0
  3 30  1  0  0  0  0
  4 31  1  0  0  0  0
  5 32  1  0  0  0  0
  6 33  1  0  0  0  0
  7 34  1  0  0  0  0
 17 35  1  0  0  0  0
 17 36  1  0  0  0  0
 17 37  1  0  0  0  0
 18 38  1  0  0  0  0
 18 39  1  0  0  0  0
 21 40  1  0  0  0  0
 22 41  1  0  0  0  0
 23 42  1  0  0  0  0
 23 43  1  0  0  0  0
M  END
> <POSIT::Probability>
0.18

> <POSIT::Method>
FRED

> <ReceptorTitle>
UCSF-P4463-REFINED_LIGAND-BOUND-STATE_A__DU__LA1_A-201(A)

> <OMEGA_C>
caMywpBZB8IwZ/i+neYtwg6XBMKglmi+hXY3wpyKBcKAs0g9JPUtwm0AAMJ0NhE/B5lBwnIc6sG8
y5ZAR6dGwrR+6MHOFdJA17NLwv6e7cHtb0JA0uhGwpg76sF4maZA04I3woPyAMKwFVg/rMQywpBN
/MFG1I0/IqJLwiHn68HozoxAD0I+wrtM6MH2GLlAw0xUwshz7cHs+YNATpU8wszE/cFCiLc/5dc3
wtvp78F6WRpAR2M4wq9358HUZLlAnEAwwjEH7cHyx5JAJ9I3wl345cFbGlFAdo9QwrjN68Gcy6BA
Ymo8wnOi9MGouw1AzF9BwrBU58E49txAOf0ywh4o88FQJPQ/RZ9Zws7X7cEmxoxAsLM1wsKk6MHG
z5FAr79AwvVQAcKMXJo/Yks2wpG25cE3UdxAQi1SwuIy78E+eiBAQ5EywoPrCsIWVY2/qicqwo4E
BsLsYiW/lxs7wla/B8Lgoye+9TsqwsjI+8G4d0I/cFRAwkI468HO9WtADbxJwlz658GqSepAj2JI
wqMG7sGaLxZAOFcwwg7A9cExDpBA1+Utwh7K6cE5kXBAVUYuwnvg6sF3yLBA9141woLx38F56jFA
0OM7wpkE48EkEFdAXQBAwmz35cE25fpA3o4vwmkf78E3NQZAywlbwllE7cGOfKtAzmNcwkSS78HE
HmtA

> <OMEGA_E>
zTUJwQ==

> <OMEGA_NBR>
     48134

$$$$
CACHE3HI_1697_74
  -OEChem-03092622513D

 60 64  0     1  0  0  0  0  0999 V2000
  -43.4944  -31.8423    2.3832 C   0  0  0  0  0  0  0  0  0  0  0  0
  -50.2149  -28.9952    7.4239 C   0  0  0  0  0  0  0  0  0  0  0  0
  -42.1554  -31.7153    2.7528 C   0  0  0  0  0  0  0  0  0  0  0  0
  -51.4709  -29.6010    7.4188 C   0  0  0  0  0  0  0  0  0  0  0  0
  -51.0920  -30.3685    5.1594 C   0  0  0  0  0  0  0  0  0  0  0  0
  -42.2010  -29.3838    2.1207 C   0  0  0  0  0  0  0  0  0  0  0  0
  -49.8315  -29.7599    5.1560 C   0  0  0  0  0  0  0  0  0  0  0  0
  -44.1867  -30.7399    1.8824 C   0  0  0  0  0  0  0  0  0  0  0  0
  -49.3985  -29.0692    6.2924 C   0  0  0  0  0  0  0  0  0  0  0  0
  -51.9093  -30.2860    6.2875 C   0  0  0  0  0  0  0  0  0  0  0  0
  -41.5087  -30.4863    2.6215 C   0  0  0  0  0  0  0  0  0  0  0  0
  -43.5400  -29.5108    1.7511 C   0  0  0  0  0  0  0  0  0  0  0  0
  -48.9628  -29.8571    3.9914 C   0  0  0  0  0  0  0  0  0  0  0  0
  -47.8165  -29.1720    4.0234 C   0  0  0  0  0  0  0  0  0  0  0  0
  -46.9368  -29.2534    2.8556 C   0  0  0  0  0  0  0  0  0  0  0  0
  -49.4058  -35.0626    0.3116 C   0  0  0  0  0  0  0  0  0  0  0  0
  -47.7501  -32.7477   -0.7153 C   0  0  0  0  0  0  0  0  0  0  0  0
  -47.3965  -28.3307    5.1867 C   0  0  0  0  0  0  0  0  0  0  0  0
  -51.4320  -31.9294   -0.3490 C   0  0  0  0  0  0  0  0  0  0  0  0
  -51.3152  -33.3474    0.2181 C   0  0  0  0  0  0  0  0  0  0  0  0
  -49.9875  -31.4903   -0.6057 C   0  0  0  0  0  0  0  0  0  0  0  0
  -49.7856  -33.7739   -1.8527 C   0  0  0  0  0  0  0  0  0  0  0  0
  -50.0393  -33.9179   -0.3676 C   0  0  2  0  0  0  0  0  0  0  0  0
  -49.2153  -32.7658   -0.8787 C   0  0  1  0  0  0  0  0  0  0  0  0
  -45.9894  -32.2918    0.9810 C   0  0  0  0  0  0  0  0  0  0  0  0
  -45.6447  -30.8807    1.4804 C   0  0  1  0  0  0  0  0  0  0  0  0
  -48.2694  -35.5037   -0.3258 N   0  0  0  0  0  0  0  0  0  0  0  0
  -46.5186  -30.5445    2.5818 N   0  0  0  0  0  0  0  0  0  0  0  0
  -47.3654  -32.4006    0.5715 N   0  0  0  0  0  0  0  0  0  0  0  0
  -46.6323  -28.2444    2.2195 O   0  0  0  0  0  0  0  0  0  0  0  0
  -49.8709  -35.5688    1.3290 O   0  0  0  0  0  0  0  0  0  0  0  0
  -46.9902  -33.0004   -1.6471 O   0  0  0  0  0  0  0  0  0  0  0  0
  -48.1753  -28.4640    6.3864 O   0  0  0  0  0  0  0  0  0  0  0  0
  -53.1150  -30.8699    6.2839 F   0  0  0  0  0  0  0  0  0  0  0  0
  -40.2230  -30.3653    2.9771 F   0  0  0  0  0  0  0  0  0  0  0  0
  -44.1974  -28.4461    1.2707 F   0  0  0  0  0  0  0  0  0  0  0  0
  -43.9898  -32.8037    2.4896 H   0  0  0  0  0  0  0  0  0  0  0  0
  -49.8790  -28.4667    8.3122 H   0  0  0  0  0  0  0  0  0  0  0  0
  -41.6162  -32.5733    3.1435 H   0  0  0  0  0  0  0  0  0  0  0  0
  -52.1062  -29.5409    8.2976 H   0  0  0  0  0  0  0  0  0  0  0  0
  -51.4495  -30.9127    4.2884 H   0  0  0  0  0  0  0  0  0  0  0  0
  -41.6978  -28.4270    2.0188 H   0  0  0  0  0  0  0  0  0  0  0  0
  -49.2696  -30.4625    3.1462 H   0  0  0  0  0  0  0  0  0  0  0  0
  -46.3641  -28.5754    5.4611 H   0  0  0  0  0  0  0  0  0  0  0  0
  -47.4159  -27.2726    4.9011 H   0  0  0  0  0  0  0  0  0  0  0  0
  -51.9849  -31.9541   -1.2959 H   0  0  0  0  0  0  0  0  0  0  0  0
  -51.9642  -31.2506    0.3238 H   0  0  0  0  0  0  0  0  0  0  0  0
  -51.2338  -33.3040    1.3105 H   0  0  0  0  0  0  0  0  0  0  0  0
  -52.1877  -33.9558   -0.0398 H   0  0  0  0  0  0  0  0  0  0  0  0
  -49.9208  -30.7917   -1.4486 H   0  0  0  0  0  0  0  0  0  0  0  0
  -49.5850  -30.9894    0.2853 H   0  0  0  0  0  0  0  0  0  0  0  0
  -49.1160  -34.4796   -2.3310 H   0  0  0  0  0  0  0  0  0  0  0  0
  -50.5945  -33.4559   -2.4976 H   0  0  0  0  0  0  0  0  0  0  0  0
  -45.3854  -32.5497    0.1030 H   0  0  0  0  0  0  0  0  0  0  0  0
  -45.8132  -33.0599    1.7423 H   0  0  0  0  0  0  0  0  0  0  0  0
  -45.8580  -30.1729    0.6687 H   0  0  0  0  0  0  0  0  0  0  0  0
  -47.9689  -35.0316   -1.1719 H   0  0  0  0  0  0  0  0  0  0  0  0
  -47.7207  -36.2846    0.0200 H   0  0  0  0  0  0  0  0  0  0  0  0
  -46.8235  -31.3056    3.1816 H   0  0  0  0  0  0  0  0  0  0  0  0
  -48.0855  -32.1833    1.2575 H   0  0  0  0  0  0  0  0  0  0  0  0
  1  3  1  0  0  0  0
  1  8  2  0  0  0  0
  2  4  2  0  0  0  0
  2  9  1  0  0  0  0
  3 11  2  0  0  0  0
  4 10  1  0  0  0  0
  5  7  1  0  0  0  0
  5 10  2  0  0  0  0
  6 11  1  0  0  0  0
  6 12  2  0  0  0  0
  7  9  2  0  0  0  0
  7 13  1  0  0  0  0
  8 12  1  0  0  0  0
  8 26  1  0  0  0  0
  9 33  1  0  0  0  0
 10 34  1  0  0  0  0
 11 35  1  0  0  0  0
 12 36  1  0  0  0  0
 13 14  2  0  0  0  0
 14 15  1  0  0  0  0
 14 18  1  0  0  0  0
 15 28  1  0  0  0  0
 15 30  2  0  0  0  0
 16 23  1  0  0  0  0
 16 27  1  0  0  0  0
 16 31  2  0  0  0  0
 17 24  1  0  0  0  0
 17 29  1  0  0  0  0
 17 32  2  0  0  0  0
 18 33  1  0  0  0  0
 19 20  1  0  0  0  0
 19 21  1  0  0  0  0
 20 23  1  0  0  0  0
 21 24  1  0  0  0  0
 22 23  1  0  0  0  0
 22 24  1  0  0  0  0
 23 24  1  0  0  0  0
 25 26  1  0  0  0  0
 25 29  1  0  0  0  0
 26 28  1  0  0  0  0
  1 37  1  0  0  0  0
  2 38  1  0  0  0  0
  3 39  1  0  0  0  0
  4 40  1  0  0  0  0
  5 41  1  0  0  0  0
  6 42  1  0  0  0  0
 13 43  1  0  0  0  0
 18 44  1  0  0  0  0
 18 45  1  0  0  0  0
 19 46  1  0  0  0  0
 19 47  1  0  0  0  0
 20 48  1  0  0  0  0
 20 49  1  0  0  0  0
 21 50  1  0  0  0  0
 21 51  1  0  0  0  0
 22 52  1  0  0  0  0
 22 53  1  0  0  0  0
 25 54  1  0  0  0  0
 25 55  1  0  0  0  0
 26 56  1  0  0  0  0
 27 57  1  0  0  0  0
 27 58  1  0  0  0  0
 28 59  1  0  0  0  0
 29 60  1  0  0  0  0
M  END
> <POSIT::Probability>
0.24

> <POSIT::Method>
FRED

> <ReceptorTitle>
UCSF-P4463-REFINED_LIGAND-BOUND-STATE_A__DU__LA1_A-201(A)

> <OMEGA_C>
Ufotwhi9/sEMhhhABtxIwjT258FckO1AKp8owvi4/cHmLTBALeJNwuzO7MEiZ+1AN15Mwrzy8sGF
GaVA3M0owvoR68F6uQdAelNHwjYU7sH1/aRAML8wwjjr9cFW8/A/BphFwsaN6MGDW8lAH6NPws5J
8sHdMslA7wgmwujj88EzxidA9SguwioW7MHrI+A/39lDwkTb7sGIc39AEUQ/wkpg6cEZwIBATb87
wuIG6sGwwTZAkJ9FwhdADMJAhZ8+IwA/wpj9AsJYHze/DJY9wmCl4sHL+aVAVLpNwn5v/8EQqrK+
yEJNwrxjBcIQSl8+PfNHwhzs+8HgDBu/ciRHwn4YB8IcJe2/QihIwuirB8IQMLy+edxEwi4QA8Ko
8GC/LfU3wtMqAcIIIHs/N5Q2wpoL98HWfr0/5hNBwsADDsIQ0Ka+EBM6wh5b9MGsOyVAIHY9wi6a
AcKETBI/d4c6wpj04cGSCw5AwXtHwm5GDsI2HKo/8PU7wmMABMIk09K/ibNAwi6248FmXcxAt3VU
wnz19sH4FclAXOQgwizs8sEWiD5AKMowwqCR48Hup6I/kPUvwvw2A8LyVR9AFoRHwti748Gl/gRB
CncmwgxLAsJeL0lAt2xQws5T7MHUwgRBScxNwjxN98HeOolAmcomwoRq48FRMwFAExRFwiiz88G6
W0lA03Q5wmSa5MEkwa5A2qk9wlAu2sF81ZxAjPBPwuqh/8F43qW/WdtPwj4B+sGoyqU+cu9Mwlc3
BcLovac/MMBQwsPSB8IA0SK96a5HwmxV9sFoarm/FldGwl7q98HADZI+0nZEwh/rCcKwLhXA0GBK
wtfSBcLS2B/AqIo1wugyAsKA4tI9r0A3wmI9BMK8BN8/nm43wipi8cHYMSs/JuA/wlogDMKAAJa/
A+I+wmgjEcKAN6Q8Sks7wsxx+sGcn0tAlFdAwqy7AMKy9qA/

> <OMEGA_E>
uK6rwA==

> <OMEGA_NBR>
     49840

$$$$
CACHE3HI_1702_32
  -OEChem-03092622513D

 35 37  0     0  0  0  0  0  0999 V2000
  -49.5530  -28.5843    6.3730 C   0  0  0  0  0  0  0  0  0  0  0  0
  -50.7172  -29.0857    5.7917 C   0  0  0  0  0  0  0  0  0  0  0  0
  -48.3142  -28.8163    5.7773 C   0  0  0  0  0  0  0  0  0  0  0  0
  -43.7444  -31.6696    2.5750 C   0  0  0  0  0  0  0  0  0  0  0  0
  -44.0027  -29.6575    1.2626 C   0  0  0  0  0  0  0  0  0  0  0  0
  -44.8986  -32.1956    1.9945 C   0  0  0  0  0  0  0  0  0  0  0  0
  -45.1568  -30.1834    0.6822 C   0  0  0  0  0  0  0  0  0  0  0  0
  -50.6477  -29.8227    4.6075 C   0  0  0  0  0  0  0  0  0  0  0  0
  -48.2482  -29.5546    4.5924 C   0  0  0  0  0  0  0  0  0  0  0  0
  -43.2964  -30.4005    2.2088 C   0  0  0  0  0  0  0  0  0  0  0  0
  -45.6048  -31.4526    1.0484 C   0  0  0  0  0  0  0  0  0  0  0  0
  -49.4121  -30.0616    4.0009 C   0  0  0  0  0  0  0  0  0  0  0  0
  -46.9447  -29.8246    3.9243 C   0  0  0  0  0  0  0  0  0  0  0  0
  -48.0621  -31.0027    2.2594 C   0  0  0  0  0  0  0  0  0  0  0  0
  -42.0929  -29.8518    2.8132 C   0  0  0  0  0  0  0  0  0  0  0  0
  -46.8343  -32.0134    0.4305 C   0  0  0  0  0  0  0  0  0  0  0  0
  -46.9345  -30.5615    2.7527 N   0  0  0  0  0  0  0  0  0  0  0  0
  -49.3037  -30.7946    2.8177 N   0  0  0  0  0  0  0  0  0  0  0  0
  -41.4254  -30.6336    3.7513 N   0  0  0  0  0  0  0  0  0  0  0  0
  -48.0130  -31.7308    1.0956 N   0  0  0  0  0  0  0  0  0  0  0  0
  -45.9213  -29.3833    4.4378 O   0  0  0  0  0  0  0  0  0  0  0  0
  -41.6603  -28.7304    2.4940 O   0  0  0  0  0  0  0  0  0  0  0  0
  -46.7351  -32.6582   -0.6105 O   0  0  0  0  0  0  0  0  0  0  0  0
  -49.6115  -28.0111    7.2938 H   0  0  0  0  0  0  0  0  0  0  0  0
  -51.6800  -28.9022    6.2596 H   0  0  0  0  0  0  0  0  0  0  0  0
  -47.4202  -28.4171    6.2474 H   0  0  0  0  0  0  0  0  0  0  0  0
  -43.2022  -32.2575    3.3109 H   0  0  0  0  0  0  0  0  0  0  0  0
  -43.6618  -28.6674    0.9702 H   0  0  0  0  0  0  0  0  0  0  0  0
  -45.2389  -33.1860    2.2866 H   0  0  0  0  0  0  0  0  0  0  0  0
  -45.6994  -29.5952   -0.0533 H   0  0  0  0  0  0  0  0  0  0  0  0
  -51.5631  -30.2073    4.1652 H   0  0  0  0  0  0  0  0  0  0  0  0
  -50.1449  -31.1624    2.3907 H   0  0  0  0  0  0  0  0  0  0  0  0
  -41.7364  -31.5638    4.0090 H   0  0  0  0  0  0  0  0  0  0  0  0
  -40.5714  -30.3135    4.1957 H   0  0  0  0  0  0  0  0  0  0  0  0
  -48.9027  -32.0733    0.7553 H   0  0  0  0  0  0  0  0  0  0  0  0
  1  2  1  0  0  0  0
  1  3  2  0  0  0  0
  2  8  2  0  0  0  0
  3  9  1  0  0  0  0
  4  6  2  0  0  0  0
  4 10  1  0  0  0  0
  5  7  1  0  0  0  0
  5 10  2  0  0  0  0
  6 11  1  0  0  0  0
  7 11  2  0  0  0  0
  8 12  1  0  0  0  0
  9 12  2  0  0  0  0
  9 13  1  0  0  0  0
 10 15  1  0  0  0  0
 11 16  1  0  0  0  0
 12 18  1  0  0  0  0
 13 17  1  0  0  0  0
 13 21  2  0  0  0  0
 14 17  2  0  0  0  0
 14 18  1  0  0  0  0
 14 20  1  0  0  0  0
 15 19  1  0  0  0  0
 15 22  2  0  0  0  0
 16 20  1  0  0  0  0
 16 23  2  0  0  0  0
  1 24  1  0  0  0  0
  2 25  1  0  0  0  0
  3 26  1  0  0  0  0
  4 27  1  0  0  0  0
  5 28  1  0  0  0  0
  6 29  1  0  0  0  0
  7 30  1  0  0  0  0
  8 31  1  0  0  0  0
 18 32  1  0  0  0  0
 19 33  1  0  0  0  0
 19 34  1  0  0  0  0
 20 35  1  0  0  0  0
M  END
> <POSIT::Probability>
0.18

> <POSIT::Method>
FRED

> <ReceptorTitle>
UCSF-P4463-REFINED_LIGAND-BOUND-STATE_A__DU__LA1_A-201(A)

> <OMEGA_C>
PzZGwq6s5MGO78tAXd5KwpWv6MFWVblAtkFBwt6H5sG637hAPfouwk9b/cEozCRAvwIwwoZC7cEo
naE/IpgzwkTIAMJQTf8/nKA0wqV38cFwpC4/QJdKwuSU7sHocJNAJf5Awupv7MFW9ZJAiy8twiY0
88E4XA1AVms2wuie+8EQMoY/+KVFwiB+8MG+B4BAa8c7wq6Y7sFwKHtApD9Awn4F+MHQmhBAJl8o
wnjQ7sEwCzRAR1Y7wrwNAMJAZtw+57w7wuZ99MHALDBA8jZFwmZb9sH0VTRAorMlwooR9cHyFXBA
VQ1AwprY/cEQO4w/cK83wu0Q68FQAo5AI6QmwuPX5cHcnR9AufA6wvahAsIwRxy/LHJGwroW4MHp
ZulAUrhOwr4358FLTshAPa49wkRW48He6sdADc8swrYHAcIc5VNAs6UuwuJW5cGgYXg/nfQ0wm2+
BMJwVxJALcw2wt/C7MEAM1q9nEBOwqao8cEISYVAaZRIwqhM+cFMARlAFvImwqiC/MEgSoBAEkki
whiC8sFPQ4ZAYJxDwhRLAMJwW0E/

> <OMEGA_E>
9ujawA==

> <OMEGA_NBR>
     51031

$$$$
CACHE3HI_1702_67
  -OEChem-03092622513D

 35 38  0     0  0  0  0  0  0999 V2000
  -49.7733  -28.8163    6.7451 C   0  0  0  0  0  0  0  0  0  0  0  0
  -51.1287  -29.0483    6.9598 C   0  0  0  0  0  0  0  0  0  0  0  0
  -49.2136  -29.0551    5.4890 C   0  0  0  0  0  0  0  0  0  0  0  0
  -51.9297  -29.5202    5.9196 C   0  0  0  0  0  0  0  0  0  0  0  0
  -45.4047  -28.2030    0.7754 C   0  0  0  0  0  0  0  0  0  0  0  0
  -44.0145  -28.0617    0.7712 C   0  0  0  0  0  0  0  0  0  0  0  0
  -50.2603  -30.2488    2.1204 C   0  0  0  0  0  0  0  0  0  0  0  0
  -51.6157  -30.4810    2.3360 C   0  0  0  0  0  0  0  0  0  0  0  0
  -45.2952  -29.8136    2.6105 C   0  0  0  0  0  0  0  0  0  0  0  0
  -50.0052  -29.5304    4.4309 C   0  0  0  0  0  0  0  0  0  0  0  0
  -51.3836  -29.7664    4.6493 C   0  0  0  0  0  0  0  0  0  0  0  0
  -46.0398  -29.0714    1.6875 C   0  0  0  0  0  0  0  0  0  0  0  0
  -43.3153  -28.8075    1.6921 C   0  0  0  0  0  0  0  0  0  0  0  0
  -49.4592  -29.7769    3.1606 C   0  0  0  0  0  0  0  0  0  0  0  0
  -43.9262  -29.6591    2.5873 C   0  0  0  0  0  0  0  0  0  0  0  0
  -52.1754  -30.2420    3.5912 C   0  0  0  0  0  0  0  0  0  0  0  0
  -41.7844  -29.7899    2.9715 C   0  0  0  0  0  0  0  0  0  0  0  0
  -47.5208  -29.1983    1.6686 C   0  0  0  0  0  0  0  0  0  0  0  0
  -41.9701  -28.8902    1.9343 N   0  0  0  0  0  0  0  0  0  0  0  0
  -48.1029  -29.5615    2.8868 N   0  0  0  0  0  0  0  0  0  0  0  0
  -40.7126  -30.1204    3.4630 O   0  0  0  0  0  0  0  0  0  0  0  0
  -48.0981  -28.9995    0.6050 O   0  0  0  0  0  0  0  0  0  0  0  0
  -43.0178  -30.3019    3.4143 O   0  0  0  0  0  0  0  0  0  0  0  0
  -54.0433  -30.6034    3.7430 Br  0  0  0  0  0  0  0  0  0  0  0  0
  -49.1502  -28.4492    7.5555 H   0  0  0  0  0  0  0  0  0  0  0  0
  -51.5630  -28.8616    7.9377 H   0  0  0  0  0  0  0  0  0  0  0  0
  -48.1508  -28.8616    5.3623 H   0  0  0  0  0  0  0  0  0  0  0  0
  -52.9795  -29.6826    6.1450 H   0  0  0  0  0  0  0  0  0  0  0  0
  -45.9963  -27.6317    0.0634 H   0  0  0  0  0  0  0  0  0  0  0  0
  -43.5205  -27.3964    0.0735 H   0  0  0  0  0  0  0  0  0  0  0  0
  -49.8382  -30.4399    1.1368 H   0  0  0  0  0  0  0  0  0  0  0  0
  -52.2192  -30.8493    1.5099 H   0  0  0  0  0  0  0  0  0  0  0  0
  -45.7719  -30.4846    3.3164 H   0  0  0  0  0  0  0  0  0  0  0  0
  -41.2499  -28.3807    1.4378 H   0  0  0  0  0  0  0  0  0  0  0  0
  -47.4595  -29.6851    3.6741 H   0  0  0  0  0  0  0  0  0  0  0  0
  1  2  1  0  0  0  0
  1  3  2  0  0  0  0
  2  4  2  0  0  0  0
  3 10  1  0  0  0  0
  4 11  1  0  0  0  0
  5  6  2  0  0  0  0
  5 12  1  0  0  0  0
  6 13  1  0  0  0  0
  7  8  2  0  0  0  0
  7 14  1  0  0  0  0
  8 16  1  0  0  0  0
  9 12  2  0  0  0  0
  9 15  1  0  0  0  0
 10 11  1  0  0  0  0
 10 14  2  0  0  0  0
 11 16  2  0  0  0  0
 12 18  1  0  0  0  0
 13 15  2  0  0  0  0
 13 19  1  0  0  0  0
 14 20  1  0  0  0  0
 15 23  1  0  0  0  0
 16 24  1  0  0  0  0
 17 19  1  0  0  0  0
 17 21  2  0  0  0  0
 17 23  1  0  0  0  0
 18 20  1  0  0  0  0
 18 22  2  0  0  0  0
  1 25  1  0  0  0  0
  2 26  1  0  0  0  0
  3 27  1  0  0  0  0
  4 28  1  0  0  0  0
  5 29  1  0  0  0  0
  6 30  1  0  0  0  0
  7 31  1  0  0  0  0
  8 32  1  0  0  0  0
  9 33  1  0  0  0  0
 19 34  1  0  0  0  0
 20 35  1  0  0  0  0
M  END
> <POSIT::Probability>
0.05

> <POSIT::Method>
FRED

> <ReceptorTitle>
UCSF-P4463-REFINED_LIGAND-BOUND-STATE_A__DU__LA1_A-201(A)

> <OMEGA_C>
1hdHwuGH5sHs19dAwINMwtpi6MGstt5As9pEwuJw6MHMpa9AA7hPwmsp7MFrbb1AaZ41wr+f4cEU
g0Y/5A4wwlZ+4MFCcEU/hQpJwpz98cGptAdAg3ZOwiHZ88F3gRVAPi41wlWC7sEXEidAYAVIwlI+
7MG0yY1AyYhNwqQh7sHmxpRAtig4wkuS6MFD/9c/6kItwtR15sHel9g/Q9ZFwgw37sEfR0pAaLQv
wsxF7cFqliVAk7NQwpjv8cFp1mVAOCMnwsBR7sGsLD5ATxU+whCW6cFqldU/Y+Enwhof58FUlvc/
XmlAwgp+7MGewDhAsNkiwon28MEkol1Ac2RAwvL+58FU3ho/RBIswkxq8sEkg1pAUCxYwsTT9MES
jm9A1ZlEwvmX48HyxvFAekBOwqLk5sG0Af5AcZpAwnrk5sFQmKtACetTwgR27cEWpMRAQfw3wsYN
3cFA8IE9AhUuwssr28EgeJY9TlpHwuaE88FsgZE/deBQwmTL9sE4Q8E/YhY3wmng88G3QFRA2/8k
wr4L48EDC7g/gtY9whx77cFxJGtA

> <OMEGA_E>
x9vvwA==

> <OMEGA_NBR>
     52226

$$$$
CACHE3HI_1706_55
  -OEChem-03092622513D

 39 42  0     1  0  0  0  0  0999 V2000
  -52.4460  -29.4943    3.7255 C   0  0  0  0  0  0  0  0  0  0  0  0
  -51.9742  -29.4798    2.4134 C   0  0  0  0  0  0  0  0  0  0  0  0
  -49.7038  -29.4824    3.2366 C   0  0  0  0  0  0  0  0  0  0  0  0
  -43.8882  -29.2870    6.3304 C   0  0  0  0  0  0  0  0  0  0  0  0
  -50.1660  -29.4958    4.5618 C   0  0  0  0  0  0  0  0  0  0  0  0
  -43.7825  -29.6085    4.9887 C   0  0  0  0  0  0  0  0  0  0  0  0
  -51.5485  -29.4935    4.7965 C   0  0  0  0  0  0  0  0  0  0  0  0
  -50.6035  -29.4720    2.1700 C   0  0  0  0  0  0  0  0  0  0  0  0
  -44.9392  -29.4929    4.2365 C   0  0  0  0  0  0  0  0  0  0  0  0
  -46.0814  -28.7620    6.0757 C   0  0  0  0  0  0  0  0  0  0  0  0
  -42.2902  -30.2698    3.1329 C   0  0  0  0  0  0  0  0  0  0  0  0
  -43.2485  -29.6700    2.1342 C   0  0  0  0  0  0  0  0  0  0  0  0
  -49.8918  -29.9567    6.9894 C   0  0  0  0  0  0  0  0  0  0  0  0
  -51.2218  -29.2322    7.1255 C   0  0  0  0  0  0  0  0  0  0  0  0
  -49.1792  -29.5215    5.7047 C   0  0  2  0  0  0  0  0  0  0  0  0
  -48.4942  -28.1614    5.8712 C   0  0  0  0  0  0  0  0  0  0  0  0
  -45.0265  -28.8521    6.9055 N   0  0  0  0  0  0  0  0  0  0  0  0
  -46.1088  -29.0660    4.7635 N   0  0  0  0  0  0  0  0  0  0  0  0
  -42.5664  -30.0762    4.4699 N   0  0  0  0  0  0  0  0  0  0  0  0
  -47.2646  -28.3152    6.6290 N   0  0  0  0  0  0  0  0  0  0  0  0
  -41.2465  -30.8073    2.7526 O   0  0  0  0  0  0  0  0  0  0  0  0
  -52.1115  -29.5286    6.0462 O   0  0  0  0  0  0  0  0  0  0  0  0
  -44.9701  -30.0056    2.5357 S   0  0  0  0  0  0  0  0  0  0  0  0
  -49.9600  -29.4552    0.3928 Br  0  0  0  0  0  0  0  0  0  0  0  0
  -53.5179  -29.5040    3.9064 H   0  0  0  0  0  0  0  0  0  0  0  0
  -52.6881  -29.4766    1.5940 H   0  0  0  0  0  0  0  0  0  0  0  0
  -48.6326  -29.4852    3.0452 H   0  0  0  0  0  0  0  0  0  0  0  0
  -43.0391  -29.3643    7.0023 H   0  0  0  0  0  0  0  0  0  0  0  0
  -43.0787  -28.5889    2.0919 H   0  0  0  0  0  0  0  0  0  0  0  0
  -43.0369  -30.0876    1.1450 H   0  0  0  0  0  0  0  0  0  0  0  0
  -49.2617  -29.7812    7.8682 H   0  0  0  0  0  0  0  0  0  0  0  0
  -50.0853  -31.0365    6.9361 H   0  0  0  0  0  0  0  0  0  0  0  0
  -51.7178  -29.5553    8.0471 H   0  0  0  0  0  0  0  0  0  0  0  0
  -51.0955  -28.1457    7.1955 H   0  0  0  0  0  0  0  0  0  0  0  0
  -48.4050  -30.2693    5.4876 H   0  0  0  0  0  0  0  0  0  0  0  0
  -48.2735  -27.7508    4.8853 H   0  0  0  0  0  0  0  0  0  0  0  0
  -49.1715  -27.4789    6.3858 H   0  0  0  0  0  0  0  0  0  0  0  0
  -41.8275  -30.2903    5.1345 H   0  0  0  0  0  0  0  0  0  0  0  0
  -47.2862  -28.0800    7.6108 H   0  0  0  0  0  0  0  0  0  0  0  0
  1  2  1  0  0  0  0
  1  7  2  0  0  0  0
  2  8  2  0  0  0  0
  3  5  2  0  0  0  0
  3  8  1  0  0  0  0
  4  6  1  0  0  0  0
  4 17  2  0  0  0  0
  5  7  1  0  0  0  0
  5 15  1  0  0  0  0
  6  9  2  0  0  0  0
  6 19  1  0  0  0  0
  7 22  1  0  0  0  0
  8 24  1  0  0  0  0
  9 18  1  0  0  0  0
  9 23  1  0  0  0  0
 10 17  1  0  0  0  0
 10 18  2  0  0  0  0
 10 20  1  0  0  0  0
 11 12  1  0  0  0  0
 11 19  1  0  0  0  0
 11 21  2  0  0  0  0
 12 23  1  0  0  0  0
 13 14  1  0  0  0  0
 13 15  1  0  0  0  0
 14 22  1  0  0  0  0
 15 16  1  0  0  0  0
 16 20  1  0  0  0  0
  1 25  1  0  0  0  0
  2 26  1  0  0  0  0
  3 27  1  0  0  0  0
  4 28  1  0  0  0  0
 12 29  1  0  0  0  0
 12 30  1  0  0  0  0
 13 31  1  0  0  0  0
 13 32  1  0  0  0  0
 14 33  1  0  0  0  0
 14 34  1  0  0  0  0
 15 35  1  0  0  0  0
 16 36  1  0  0  0  0
 16 37  1  0  0  0  0
 19 38  1  0  0  0  0
 20 39  1  0  0  0  0
M  END
> <POSIT::Probability>
0.18

> <POSIT::Method>
FRED

> <ReceptorTitle>
UCSF-P4463-REFINED_LIGAND-BOUND-STATE_A__DU__LA1_A-201(A)

> <OMEGA_C>
vchRwkL068H4bW5AnuVPwpvW68E0dRpAqNBGwtzb68EcJE9AkI0vwslL6sE8kspA9qlIwlP368Hu
+ZFAQiEvwiHe7ME8o59AtjFOwqXy68EAfZlABGpKwr3G68E04QpAtsEzwnbx68GikYdAYlM4wpUY
5sEfbMJAHykpwnso8sE8gkhAfP4swhFc7cFQlwhAM5FHwkSn78EBqd9AFeNMwnXb6cFeBORAjbdE
whss7MHmjLZADvpBwodK4cGo4LtALhs0wgnR5sEz+txAcm84wiSH6MFybphA+kMqwiKc8MGUCY9A
8A49woKF4sFqINRAbfwkwlR19sHAKjBAJXJQwp867MEkesFAZeEzwmYL8MHYSCJABddHwjKk68Hg
Hsk+WxJWwjwI7MHQAnpAm8BSwinQ68GwCMw/zodCwrTh68FI5EJADSgswgbq6sGhEuBAnlAswiG2
5MGI4QVA0SUswnKz8MG4jpI/BgxFwvk/7sF6yPtAVFdIwrFK+MFZ9N1ADN9OwjZx7MHwwABBx2FM
wlQq4cEmQeZAwJ5BwpMn8sHAmq9AERhBwqAB3sFEVJxAnK9EwuHU28GvWMxAVU8nwpNS8sG+TaRA
ECU9wuij4MEHjPNA

> <OMEGA_E>
F58OwQ==

> <OMEGA_NBR>
     53502

$$$$
CACHE3HI_1706_77
  -OEChem-03092622513D

 40 42  0     0  0  0  0  0  0999 V2000
  -46.2845  -28.9605    3.5401 C   0  0  0  0  0  0  0  0  0  0  0  0
  -45.0959  -29.3628    2.9011 C   0  0  0  0  0  0  0  0  0  0  0  0
  -43.7984  -29.7884    5.0038 C   0  0  0  0  0  0  0  0  0  0  0  0
  -46.1443  -29.0015    4.9210 C   0  0  0  0  0  0  0  0  0  0  0  0
  -44.9731  -29.3913    5.6691 C   0  0  0  0  0  0  0  0  0  0  0  0
  -43.9092  -29.7581    3.5953 C   0  0  0  0  0  0  0  0  0  0  0  0
  -47.1090  -28.6731    5.8299 C   0  0  0  0  0  0  0  0  0  0  0  0
  -48.5063  -28.2043    5.6484 C   0  0  0  0  0  0  0  0  0  0  0  0
  -51.2383  -30.2268    2.7172 C   0  0  0  0  0  0  0  0  0  0  0  0
  -51.2802  -30.4276    5.3371 C   0  0  0  0  0  0  0  0  0  0  0  0
  -52.8636  -29.2314    4.5252 C   0  0  0  0  0  0  0  0  0  0  0  0
  -51.3948  -29.5056    4.0872 C   0  0  0  0  0  0  0  0  0  0  0  0
  -52.5103  -29.7229    5.9441 C   0  0  0  0  0  0  0  0  0  0  0  0
  -50.5023  -28.2640    4.1759 C   0  0  0  0  0  0  0  0  0  0  0  0
  -42.6520  -29.5285    1.5761 C   0  0  0  0  0  0  0  0  0  0  0  0
  -45.2394  -29.2955    6.9841 N   0  0  0  0  0  0  0  0  0  0  0  0
  -46.5156  -28.8668    7.0435 N   0  0  0  0  0  0  0  0  0  0  0  0
  -50.0126  -30.8324    2.5659 N   0  0  0  0  0  0  0  0  0  0  0  0
  -49.1426  -28.6533    4.5069 N   0  0  0  0  0  0  0  0  0  0  0  0
  -49.0001  -27.4516    6.4838 O   0  0  0  0  0  0  0  0  0  0  0  0
  -52.1217  -30.2270    1.8645 O   0  0  0  0  0  0  0  0  0  0  0  0
  -42.8197  -30.1275    2.8515 O   0  0  0  0  0  0  0  0  0  0  0  0
  -53.4214  -30.5362    6.5231 F   0  0  0  0  0  0  0  0  0  0  0  0
  -52.2349  -28.7484    6.8414 F   0  0  0  0  0  0  0  0  0  0  0  0
  -43.6476  -28.6566    1.3100 F   0  0  0  0  0  0  0  0  0  0  0  0
  -42.5860  -30.4617    0.6024 F   0  0  0  0  0  0  0  0  0  0  0  0
  -41.4866  -28.8424    1.5753 F   0  0  0  0  0  0  0  0  0  0  0  0
  -47.1716  -28.6649    2.9975 H   0  0  0  0  0  0  0  0  0  0  0  0
  -45.0822  -29.3725    1.8108 H   0  0  0  0  0  0  0  0  0  0  0  0
  -42.8939  -30.0896    5.5160 H   0  0  0  0  0  0  0  0  0  0  0  0
  -51.4494  -31.4916    5.1338 H   0  0  0  0  0  0  0  0  0  0  0  0
  -50.3592  -30.3312    5.9200 H   0  0  0  0  0  0  0  0  0  0  0  0
  -53.1943  -28.1900    4.4669 H   0  0  0  0  0  0  0  0  0  0  0  0
  -53.6114  -29.8584    4.0252 H   0  0  0  0  0  0  0  0  0  0  0  0
  -50.5166  -27.7456    3.2165 H   0  0  0  0  0  0  0  0  0  0  0  0
  -50.8978  -27.5911    4.9378 H   0  0  0  0  0  0  0  0  0  0  0  0
  -46.9237  -28.7255    7.9590 H   0  0  0  0  0  0  0  0  0  0  0  0
  -49.3379  -30.7662    3.3205 H   0  0  0  0  0  0  0  0  0  0  0  0
  -49.7588  -31.3433    1.7261 H   0  0  0  0  0  0  0  0  0  0  0  0
  -48.6548  -29.2220    3.8278 H   0  0  0  0  0  0  0  0  0  0  0  0
  1  2  2  0  0  0  0
  1  4  1  0  0  0  0
  2  6  1  0  0  0  0
  3  5  1  0  0  0  0
  3  6  2  0  0  0  0
  4  5  1  0  0  0  0
  4  7  2  0  0  0  0
  5 16  2  0  0  0  0
  6 22  1  0  0  0  0
  7  8  1  0  0  0  0
  7 17  1  0  0  0  0
  8 19  1  0  0  0  0
  8 20  2  0  0  0  0
  9 12  1  0  0  0  0
  9 18  1  0  0  0  0
  9 21  2  0  0  0  0
 10 12  1  0  0  0  0
 10 13  1  0  0  0  0
 11 12  1  0  0  0  0
 11 13  1  0  0  0  0
 12 14  1  0  0  0  0
 13 23  1  0  0  0  0
 13 24  1  0  0  0  0
 14 19  1  0  0  0  0
 15 22  1  0  0  0  0
 15 25  1  0  0  0  0
 15 26  1  0  0  0  0
 15 27  1  0  0  0  0
 16 17  1  0  0  0  0
  1 28  1  0  0  0  0
  2 29  1  0  0  0  0
  3 30  1  0  0  0  0
 10 31  1  0  0  0  0
 10 32  1  0  0  0  0
 11 33  1  0  0  0  0
 11 34  1  0  0  0  0
 14 35  1  0  0  0  0
 14 36  1  0  0  0  0
 17 37  1  0  0  0  0
 18 38  1  0  0  0  0
 18 39  1  0  0  0  0
 19 40  1  0  0  0  0
M  END
> <POSIT::Probability>
0.18

> <POSIT::Method>
HYBRID

> <ReceptorTitle>
UCSF-P4463-REFINED_LIGAND-BOUND-STATE_A__DU__LA1_A-201(A)

> <OMEGA_C>
WiM5whev58FQkGJAN2I0wu7m6sEMqzlAlTEvwrVO7sEkH6BAwZM4wiID6MHgeJ1AbeQzwmgh68E8
abVACaMvwokQ7sHoGWZAkm88wn5i5cF2jrpAcwZCwnGi4cFwv7RADPRMwpPQ8cFs5y1A9h5NwrZr
88G0yapAXnRTwv/Z6cGszpBAS5RNwooL7MEEyoJAkApSwnbI7cH0Nb5AZAJKwpYc4sFGoYVAo5sq
wnY67MF4vMk/LvU0wh9d6sEcft9A8w86wkDv5sGQZOFA3QxIwtuo9sHwNiRA/ZFEwuk55cFcOJBA
DwBEwvSc28Gge89ArHxQwvDQ8cHQp+4/akcrwjcF8cEkfzZAiK9Vwj1K9MHovNBAkPBQwqL85cHI
7NpAHpcuwqNA5cFwrac/BVgqwpax88FgNho/PvIlwkm95sGgpMk/w688wsdR5cHA1z9AKlQ0wtf6
6sF4yOc/VJMrwn238MFYg7BAOcxNwrLu+8H6R6RA1G9JwmWm8sHkcL1A+MZUwiWF4cHQ8I5ADnJW
wvHd7sEYzoBA8xBKwu/23cEw201AV5dLwoq63MESAp5A5bE7wszN5cEUsP5AC1pFwkMh9sF8g1RA
/AhHwvq++sGA8Nw/iJ5CwrTG6cEo+3RA

> <OMEGA_E>
WAnfwA==

> <OMEGA_NBR>
     54797

$$$$
CACHE3HI_1707_101
  -OEChem-03092622513D

 34 36  0     0  0  0  0  0  0999 V2000
  -43.7885  -32.0935   -0.0976 C   0  0  0  0  0  0  0  0  0  0  0  0
  -44.9312  -32.4911    0.5875 C   0  0  0  0  0  0  0  0  0  0  0  0
  -47.6254  -28.8870    6.4203 C   0  0  0  0  0  0  0  0  0  0  0  0
  -48.4838  -29.1347    5.3254 C   0  0  0  0  0  0  0  0  0  0  0  0
  -42.5958  -31.9159    0.5945 C   0  0  0  0  0  0  0  0  0  0  0  0
  -46.6772  -29.8266    3.7320 C   0  0  0  0  0  0  0  0  0  0  0  0
  -44.8291  -32.6966    1.9544 C   0  0  0  0  0  0  0  0  0  0  0  0
  -45.8602  -29.5740    4.8261 C   0  0  0  0  0  0  0  0  0  0  0  0
  -46.2677  -29.1223    6.1350 C   0  0  0  0  0  0  0  0  0  0  0  0
  -48.0282  -29.5826    4.0454 C   0  0  0  0  0  0  0  0  0  0  0  0
  -44.5021  -29.7122    4.8550 C   0  0  0  0  0  0  0  0  0  0  0  0
  -42.5979  -32.1469    1.9607 C   0  0  0  0  0  0  0  0  0  0  0  0
  -43.5765  -30.1257    3.8497 C   0  0  0  0  0  0  0  0  0  0  0  0
  -41.3212  -31.9630    2.7432 C   0  0  0  0  0  0  0  0  0  0  0  0
  -41.1491  -30.5443    3.2791 C   0  0  0  0  0  0  0  0  0  0  0  0
  -43.6878  -32.5340    2.6606 N   0  0  0  0  0  0  0  0  0  0  0  0
  -45.1792  -28.9974    6.9154 N   0  0  0  0  0  0  0  0  0  0  0  0
  -44.1489  -29.3552    6.1240 N   0  0  0  0  0  0  0  0  0  0  0  0
  -42.2069  -30.1685    4.1893 N   0  0  0  0  0  0  0  0  0  0  0  0
  -43.9565  -30.4255    2.6895 O   0  0  0  0  0  0  0  0  0  0  0  0
  -49.3252  -29.8657    2.6835 Br  0  0  0  0  0  0  0  0  0  0  0  0
  -43.8282  -31.9226   -1.1690 H   0  0  0  0  0  0  0  0  0  0  0  0
  -45.8718  -32.6357    0.0686 H   0  0  0  0  0  0  0  0  0  0  0  0
  -47.9895  -28.5467    7.3806 H   0  0  0  0  0  0  0  0  0  0  0  0
  -49.5505  -28.9690    5.4797 H   0  0  0  0  0  0  0  0  0  0  0  0
  -41.6974  -31.6058    0.0716 H   0  0  0  0  0  0  0  0  0  0  0  0
  -46.3359  -30.1647    2.7628 H   0  0  0  0  0  0  0  0  0  0  0  0
  -45.6913  -33.0075    2.5352 H   0  0  0  0  0  0  0  0  0  0  0  0
  -41.2845  -32.6853    3.5689 H   0  0  0  0  0  0  0  0  0  0  0  0
  -40.4744  -32.2085    2.0897 H   0  0  0  0  0  0  0  0  0  0  0  0
  -40.2098  -30.4680    3.8366 H   0  0  0  0  0  0  0  0  0  0  0  0
  -41.1271  -29.8036    2.4732 H   0  0  0  0  0  0  0  0  0  0  0  0
  -43.2185  -29.3321    6.5222 H   0  0  0  0  0  0  0  0  0  0  0  0
  -41.9310  -29.8592    5.1153 H   0  0  0  0  0  0  0  0  0  0  0  0
  1  2  1  0  0  0  0
  1  5  2  0  0  0  0
  2  7  2  0  0  0  0
  3  4  2  0  0  0  0
  3  9  1  0  0  0  0
  4 10  1  0  0  0  0
  5 12  1  0  0  0  0
  6  8  1  0  0  0  0
  6 10  2  0  0  0  0
  7 16  1  0  0  0  0
  8  9  1  0  0  0  0
  8 11  2  0  0  0  0
  9 17  2  0  0  0  0
 10 21  1  0  0  0  0
 11 13  1  0  0  0  0
 11 18  1  0  0  0  0
 12 14  1  0  0  0  0
 12 16  2  0  0  0  0
 13 19  1  0  0  0  0
 13 20  2  0  0  0  0
 14 15  1  0  0  0  0
 15 19  1  0  0  0  0
 17 18  1  0  0  0  0
  1 22  1  0  0  0  0
  2 23  1  0  0  0  0
  3 24  1  0  0  0  0
  4 25  1  0  0  0  0
  5 26  1  0  0  0  0
  6 27  1  0  0  0  0
  7 28  1  0  0  0  0
 14 29  1  0  0  0  0
 14 30  1  0  0  0  0
 15 31  1  0  0  0  0
 15 32  1  0  0  0  0
 18 33  1  0  0  0  0
 19 34  1  0  0  0  0
M  END
> <POSIT::Probability>
0.19

> <POSIT::Method>
FRED

> <ReceptorTitle>
UCSF-P4463-REFINED_LIGAND-BOUND-STATE_A__DU__LA1_A-201(A)

> <OMEGA_C>
dCcvwrNfAMIA5se9jbkzwt/2AcJAaBY/Y4A+wowY58HUcs1AZO9BwuYT6cGdaapAG2IqwrdT/8HA
MBg/frU6wuuc7sHk2G5AClEzwkjJAsJUKvo/33A3woiX7ME7b5pAFhI5wov66MEJUsRA5hxAwkSp
7MH9c4FAIQIywq6y7cFdXJtATWQqwmKWAMK89vo/Wk4uwoMB8cEiYnZA4Eglwji0/8HqkC9AuZgk
wqpa9MH621FAQsAuwsgiAsLYRipAebc0wrD658FCS91AfZgwwnPX6sHg98NA5NMowhRZ8cGIDoZA
f9MvwnJn88GoICxADk1FwgPt7sEEvitAE1Avwmxh/8HsoJW/xXw3wv+KAsLAf4w9SPU/wpRf5MG5
LexAtjNGwpfA58FNWa9AJMomwqjY/MEAiZI99Fc5wjdR8cHS0TBA4cM2wqIHBMIOQSJAXiMlwsK9
AsLqaGRAzuUhwnbVAMJivgVA3NYgwne+88E4inVAGoIkwsht7sGySB5AyN8swjyo6sGXtdBAYLkn
wp/f7sFKsKNA

> <OMEGA_E>
YQszwQ==

> <OMEGA_NBR>
     55970

$$$$
CACHE3HI_1715_80
  -OEChem-03092622513D

 40 43  0     0  0  0  0  0  0999 V2000
  -48.7719  -29.2685    3.8834 C   0  0  0  0  0  0  0  0  0  0  0  0
  -50.1630  -29.2280    4.1464 C   0  0  0  0  0  0  0  0  0  0  0  0
  -49.7306  -29.0679    6.5584 C   0  0  0  0  0  0  0  0  0  0  0  0
  -43.8377  -29.4036    5.7745 C   0  0  0  0  0  0  0  0  0  0  0  0
  -43.0449  -32.9517    2.2211 C   0  0  0  0  0  0  0  0  0  0  0  0
  -47.8930  -29.2242    4.9811 C   0  0  0  0  0  0  0  0  0  0  0  0
  -46.4312  -29.2788    5.0405 C   0  0  0  0  0  0  0  0  0  0  0  0
  -48.3526  -29.1210    6.2989 C   0  0  0  0  0  0  0  0  0  0  0  0
  -50.6384  -29.1266    5.4802 C   0  0  0  0  0  0  0  0  0  0  0  0
  -46.0736  -29.2081    6.3883 C   0  0  0  0  0  0  0  0  0  0  0  0
  -45.4376  -29.3889    4.0429 C   0  0  0  0  0  0  0  0  0  0  0  0
  -44.1954  -31.1253    1.7487 C   0  0  0  0  0  0  0  0  0  0  0  0
  -48.6095  -32.0249    1.7773 C   0  0  0  0  0  0  0  0  0  0  0  0
  -44.6884  -29.6940    1.6508 C   0  0  0  0  0  0  0  0  0  0  0  0
  -47.1805  -32.3980    2.1779 C   0  0  0  0  0  0  0  0  0  0  0  0
  -46.2548  -32.2980    0.9548 C   0  0  0  0  0  0  0  0  0  0  0  0
  -44.7771  -29.2646    6.7439 N   0  0  0  0  0  0  0  0  0  0  0  0
  -44.1430  -29.4534    4.4500 N   0  0  0  0  0  0  0  0  0  0  0  0
  -43.0596  -31.5436    2.2532 N   0  0  0  0  0  0  0  0  0  0  0  0
  -44.1646  -33.3950    1.6942 N   0  0  0  0  0  0  0  0  0  0  0  0
  -47.2420  -29.0911    7.1383 N   0  0  0  0  0  0  0  0  0  0  0  0
  -44.8528  -32.2776    1.4070 N   0  0  0  0  0  0  0  0  0  0  0  0
  -45.7357  -29.4294    2.6785 N   0  0  0  0  0  0  0  0  0  0  0  0
  -52.5115  -29.0570    5.8384 Br  0  0  0  0  0  0  0  0  0  0  0  0
  -48.3977  -29.3315    2.8723 H   0  0  0  0  0  0  0  0  0  0  0  0
  -50.8659  -29.2745    3.3277 H   0  0  0  0  0  0  0  0  0  0  0  0
  -50.0922  -28.9832    7.5725 H   0  0  0  0  0  0  0  0  0  0  0  0
  -42.8010  -29.4781    6.0680 H   0  0  0  0  0  0  0  0  0  0  0  0
  -42.2360  -33.5732    2.5758 H   0  0  0  0  0  0  0  0  0  0  0  0
  -49.2680  -32.0979    2.6555 H   0  0  0  0  0  0  0  0  0  0  0  0
  -48.6251  -30.9946    1.3922 H   0  0  0  0  0  0  0  0  0  0  0  0
  -48.9629  -32.7138    0.9959 H   0  0  0  0  0  0  0  0  0  0  0  0
  -43.8431  -29.0085    1.8108 H   0  0  0  0  0  0  0  0  0  0  0  0
  -45.1128  -29.5253    0.6501 H   0  0  0  0  0  0  0  0  0  0  0  0
  -46.8286  -31.7089    2.9597 H   0  0  0  0  0  0  0  0  0  0  0  0
  -47.1664  -33.4281    2.5635 H   0  0  0  0  0  0  0  0  0  0  0  0
  -46.4170  -33.1660    0.2990 H   0  0  0  0  0  0  0  0  0  0  0  0
  -46.4759  -31.3736    0.4010 H   0  0  0  0  0  0  0  0  0  0  0  0
  -47.2777  -28.9992    8.1334 H   0  0  0  0  0  0  0  0  0  0  0  0
  -46.4276  -30.1421    2.5637 H   0  0  0  0  0  0  0  0  0  0  0  0
  1  2  2  0  0  0  0
  1  6  1  0  0  0  0
  2  9  1  0  0  0  0
  3  8  1  0  0  0  0
  3  9  2  0  0  0  0
  4 17  2  0  0  0  0
  4 18  1  0  0  0  0
  5 19  1  0  0  0  0
  5 20  2  0  0  0  0
  6  7  1  0  0  0  0
  6  8  2  0  0  0  0
  7 10  2  0  0  0  0
  7 11  1  0  0  0  0
  8 21  1  0  0  0  0
  9 24  1  0  0  0  0
 10 17  1  0  0  0  0
 10 21  1  0  0  0  0
 11 18  2  0  0  0  0
 11 23  1  0  0  0  0
 12 14  1  0  0  0  0
 12 19  2  0  0  0  0
 12 22  1  0  0  0  0
 13 15  1  0  0  0  0
 14 23  1  0  0  0  0
 15 16  1  0  0  0  0
 16 22  1  0  0  0  0
 20 22  1  0  0  0  0
  1 25  1  0  0  0  0
  2 26  1  0  0  0  0
  3 27  1  0  0  0  0
  4 28  1  0  0  0  0
  5 29  1  0  0  0  0
 13 30  1  0  0  0  0
 13 31  1  0  0  0  0
 13 32  1  0  0  0  0
 14 33  1  0  0  0  0
 14 34  1  0  0  0  0
 15 35  1  0  0  0  0
 15 36  1  0  0  0  0
 16 37  1  0  0  0  0
 16 38  1  0  0  0  0
 21 39  1  0  0  0  0
 23 40  1  0  0  0  0
M  END
> <POSIT::Probability>
0.72

> <POSIT::Method>
SHAPEFIT

> <ReceptorTitle>
UCSF-P4463-REFINED_LIGAND-BOUND-STATE_A__DU__LA1_A-201(A)

> <OMEGA_C>
dxZDwvwl6sEsinhA6qZIwvDS6cEMr4RAGexGwiiL6MFm3tFA0Fkvwp4668EOybhA9y0swovOA8L8
Jg5AYpI/whvL6cGOZZ9Ahbk5wuo66sGSS6FACGlBwrv36MFekMlAxY1KwjkD6cGUXa9AZEs4wjeq
6cGSbMxAFcA1wpAc68GmX4FAEcgwwrcA+cHc1t8/KnBCwn4ZAMJYf+M/6sAywkeN7cGkTNM/3rg8
womXAcIkYgtA7gQ5whoxAcLQbnQ/vRszwgAe6sECztdAbZIwwn6g68FaZo5A/zwswmVZ/MFINBBA
jKgwwniUBcLU3Ng/zvc8wqS66MHKbORAOWkzwlAcAcLAGLQ/UvE2wlJv68FcbStAxwtSwqZ06MFa
1LpAQ5dBwv6m6sHC0zdArXZLwiYy6sFr+VRAZl5IwpHd58EZUvJAOjQrwh3T68G+LMJAofEowvFK
BsI52iRAYhJFwkxkAMJM8ylAHoBCwgD198EXNLI//9lDwu7aAsIy9n4/WV8vwmwR6MHQyec/jnM0
ws8z7MHvayY/elA7wtyr/cFPbD1AXKo8wly2BcLRDyRADqs5wgKqBMIFE5k+Vec5wiL9+sFwUs0+
Zhw9wnD+58FvIgJB2LU5wh4j8cFlFCRA

> <OMEGA_E>
TM8APw==

> <OMEGA_NBR>
     57292

$$$$
CACHE3HI_1715_82
  -OEChem-03092622513D

 37 40  0     0  0  0  0  0  0999 V2000
  -48.6404  -29.4209    3.8415 C   0  0  0  0  0  0  0  0  0  0  0  0
  -50.0412  -29.4183    4.0560 C   0  0  0  0  0  0  0  0  0  0  0  0
  -49.7032  -29.1443    6.4728 C   0  0  0  0  0  0  0  0  0  0  0  0
  -43.7748  -29.2082    5.9088 C   0  0  0  0  0  0  0  0  0  0  0  0
  -46.1561  -32.1208    1.1303 C   0  0  0  0  0  0  0  0  0  0  0  0
  -44.9837  -34.0278    1.5054 C   0  0  0  0  0  0  0  0  0  0  0  0
  -47.8037  -29.2808    4.9665 C   0  0  0  0  0  0  0  0  0  0  0  0
  -46.3425  -29.2597    5.0813 C   0  0  0  0  0  0  0  0  0  0  0  0
  -48.3159  -29.1488    6.2630 C   0  0  0  0  0  0  0  0  0  0  0  0
  -50.5683  -29.2775    5.3670 C   0  0  0  0  0  0  0  0  0  0  0  0
  -46.0401  -29.1266    6.4374 C   0  0  0  0  0  0  0  0  0  0  0  0
  -45.3061  -29.3530    4.1261 C   0  0  0  0  0  0  0  0  0  0  0  0
  -43.4437  -30.6565    1.8260 C   0  0  0  0  0  0  0  0  0  0  0  0
  -43.9762  -31.9632    2.4575 C   0  0  0  0  0  0  0  0  0  0  0  0
  -44.4905  -29.5088    1.7066 C   0  0  0  0  0  0  0  0  0  0  0  0
  -44.7563  -29.1020    6.8402 N   0  0  0  0  0  0  0  0  0  0  0  0
  -44.0270  -29.3189    4.5772 N   0  0  0  0  0  0  0  0  0  0  0  0
  -46.8268  -33.1420    0.6569 N   0  0  0  0  0  0  0  0  0  0  0  0
  -46.1076  -34.3162    0.8922 N   0  0  0  0  0  0  0  0  0  0  0  0
  -47.2399  -29.0495    7.1413 N   0  0  0  0  0  0  0  0  0  0  0  0
  -45.0063  -32.6706    1.6521 N   0  0  0  0  0  0  0  0  0  0  0  0
  -45.5574  -29.4954    2.7630 N   0  0  0  0  0  0  0  0  0  0  0  0
  -52.4546  -29.2723    5.6581 Br  0  0  0  0  0  0  0  0  0  0  0  0
  -48.2280  -29.5268    2.8490 H   0  0  0  0  0  0  0  0  0  0  0  0
  -50.7124  -29.5241    3.2166 H   0  0  0  0  0  0  0  0  0  0  0  0
  -50.1042  -29.0400    7.4701 H   0  0  0  0  0  0  0  0  0  0  0  0
  -42.7470  -29.2047    6.2403 H   0  0  0  0  0  0  0  0  0  0  0  0
  -46.4415  -31.0793    1.1148 H   0  0  0  0  0  0  0  0  0  0  0  0
  -44.2116  -34.7126    1.8236 H   0  0  0  0  0  0  0  0  0  0  0  0
  -42.6091  -30.2942    2.4440 H   0  0  0  0  0  0  0  0  0  0  0  0
  -43.0772  -30.8905    0.8156 H   0  0  0  0  0  0  0  0  0  0  0  0
  -43.1254  -32.6456    2.6003 H   0  0  0  0  0  0  0  0  0  0  0  0
  -44.4162  -31.7162    3.4350 H   0  0  0  0  0  0  0  0  0  0  0  0
  -43.9511  -28.5515    1.7572 H   0  0  0  0  0  0  0  0  0  0  0  0
  -44.9838  -29.6004    0.7277 H   0  0  0  0  0  0  0  0  0  0  0  0
  -47.3171  -28.9391    8.1322 H   0  0  0  0  0  0  0  0  0  0  0  0
  -46.0441  -30.3637    2.6670 H   0  0  0  0  0  0  0  0  0  0  0  0
  1  2  1  0  0  0  0
  1  7  2  0  0  0  0
  2 10  2  0  0  0  0
  3  9  2  0  0  0  0
  3 10  1  0  0  0  0
  4 16  1  0  0  0  0
  4 17  2  0  0  0  0
  5 18  2  0  0  0  0
  5 21  1  0  0  0  0
  6 19  2  0  0  0  0
  6 21  1  0  0  0  0
  7  8  1  0  0  0  0
  7  9  1  0  0  0  0
  8 11  1  0  0  0  0
  8 12  2  0  0  0  0
  9 20  1  0  0  0  0
 10 23  1  0  0  0  0
 11 16  2  0  0  0  0
 11 20  1  0  0  0  0
 12 17  1  0  0  0  0
 12 22  1  0  0  0  0
 13 14  1  0  0  0  0
 13 15  1  0  0  0  0
 14 21  1  0  0  0  0
 15 22  1  0  0  0  0
 18 19  1  0  0  0  0
  1 24  1  0  0  0  0
  2 25  1  0  0  0  0
  3 26  1  0  0  0  0
  4 27  1  0  0  0  0
  5 28  1  0  0  0  0
  6 29  1  0  0  0  0
 13 30  1  0  0  0  0
 13 31  1  0  0  0  0
 14 32  1  0  0  0  0
 14 33  1  0  0  0  0
 15 34  1  0  0  0  0
 15 35  1  0  0  0  0
 20 36  1  0  0  0  0
 22 37  1  0  0  0  0
M  END
> <POSIT::Probability>
0.79

> <POSIT::Method>
SHAPEFIT

> <ReceptorTitle>
UCSF-P4463-REFINED_LIGAND-BOUND-STATE_A__DU__LA1_A-201(A)

> <OMEGA_C>
wI9Cwhte68H12nVAJypIwqVY68EQy4FAFNBGwocn6cEMIc9AahkvwnKq6cHoFL1A2584wrR7AMLk
rZA/Su8zwn0cCMJisMA/Ajc/wiI/6sF47Z5Ar145wucT6sHymaJAfkNBwsIw6cHOashA+0VKwlE4
6sEuvqtABSk4wkID6cH+/s1Acjk1wv3S6sFeCYRAYsYtwoBA9cEEuek/pOcvwpO0/8EHSB1AOvYx
whsS7MGCcdo/egYzwujQ6MHo4tpAnhswwiGN6sGkeJJAr047wmGRBMLEJyg/Jm44wtRDCcL0aGQ/
rvU8wnll6MFEheRAgAY0wquuAsLidtM/wjo2wo/268Gt1TBAjdFRwrAt6sFOD7VAculAwvU27MFm
VTZAhtlKwksx7MEl3U1ArWpIwtxR6MFzC+9A4/wqwiyj6cGcsMdAJMQ5wnOi+MHosY4/ptgwwsDZ
CsJ/a+k/rG8qwnJa8sEyaxxACE8swr0f98FjyVA/boAswiKVAsLUayZAPaoxws66/cFR1ltA8s0v
wmxp5MF/7eA/Z+8zwqbN7MEmSjo/tkQ9wlWD58FLHQJBJy04wsPo8sG8rypA

> <OMEGA_E>
UDwGPw==

> <OMEGA_NBR>
     58555

$$$$
CACHE3HI_1715_83
  -OEChem-03092622513D

 36 39  0     0  0  0  0  0  0999 V2000
  -48.6091  -29.3926    3.8218 C   0  0  0  0  0  0  0  0  0  0  0  0
  -50.0096  -29.4005    4.0212 C   0  0  0  0  0  0  0  0  0  0  0  0
  -49.6960  -29.1411    6.4443 C   0  0  0  0  0  0  0  0  0  0  0  0
  -43.7652  -29.2430    5.9091 C   0  0  0  0  0  0  0  0  0  0  0  0
  -47.7854  -29.2594    4.9567 C   0  0  0  0  0  0  0  0  0  0  0  0
  -46.3301  -29.2554    5.0820 C   0  0  0  0  0  0  0  0  0  0  0  0
  -48.3062  -29.1367    6.2494 C   0  0  0  0  0  0  0  0  0  0  0  0
  -50.5490  -29.2770    5.3278 C   0  0  0  0  0  0  0  0  0  0  0  0
  -46.0298  -29.1345    6.4392 C   0  0  0  0  0  0  0  0  0  0  0  0
  -45.3011  -29.3588    4.1261 C   0  0  0  0  0  0  0  0  0  0  0  0
  -45.2277  -32.1924    1.4057 C   0  0  0  0  0  0  0  0  0  0  0  0
  -42.7284  -31.5003    1.0344 C   0  0  0  0  0  0  0  0  0  0  0  0
  -42.8984  -31.6524    2.5526 C   0  0  0  0  0  0  0  0  0  0  0  0
  -44.0847  -31.1886    1.6825 C   0  0  0  0  0  0  0  0  0  0  0  0
  -44.5066  -29.6990    1.7455 C   0  0  0  0  0  0  0  0  0  0  0  0
  -44.7452  -29.1291    6.8429 N   0  0  0  0  0  0  0  0  0  0  0  0
  -44.0207  -29.3439    4.5757 N   0  0  0  0  0  0  0  0  0  0  0  0
  -47.2340  -29.0439    7.1364 N   0  0  0  0  0  0  0  0  0  0  0  0
  -46.4116  -31.7552    0.8397 N   0  0  0  0  0  0  0  0  0  0  0  0
  -45.5681  -29.4619    2.7619 N   0  0  0  0  0  0  0  0  0  0  0  0
  -45.0566  -33.3954    1.5649 O   0  0  0  0  0  0  0  0  0  0  0  0
  -52.4369  -29.3117    5.5969 Br  0  0  0  0  0  0  0  0  0  0  0  0
  -48.1856  -29.4857    2.8326 H   0  0  0  0  0  0  0  0  0  0  0  0
  -50.6720  -29.5010    3.1741 H   0  0  0  0  0  0  0  0  0  0  0  0
  -50.1084  -29.0416    7.4375 H   0  0  0  0  0  0  0  0  0  0  0  0
  -42.7370  -29.2541    6.2394 H   0  0  0  0  0  0  0  0  0  0  0  0
  -42.1125  -30.6836    0.6299 H   0  0  0  0  0  0  0  0  0  0  0  0
  -42.6141  -32.3934    0.4025 H   0  0  0  0  0  0  0  0  0  0  0  0
  -42.9080  -32.6537    3.0079 H   0  0  0  0  0  0  0  0  0  0  0  0
  -42.4064  -30.9439    3.2353 H   0  0  0  0  0  0  0  0  0  0  0  0
  -43.6265  -29.0914    2.0030 H   0  0  0  0  0  0  0  0  0  0  0  0
  -44.8858  -29.3954    0.7586 H   0  0  0  0  0  0  0  0  0  0  0  0
  -47.3167  -28.9294    8.1263 H   0  0  0  0  0  0  0  0  0  0  0  0
  -47.1103  -32.4171    0.5681 H   0  0  0  0  0  0  0  0  0  0  0  0
  -46.5688  -30.7773    0.7020 H   0  0  0  0  0  0  0  0  0  0  0  0
  -46.2172  -30.2163    2.6640 H   0  0  0  0  0  0  0  0  0  0  0  0
  1  2  1  0  0  0  0
  1  5  2  0  0  0  0
  2  8  2  0  0  0  0
  3  7  2  0  0  0  0
  3  8  1  0  0  0  0
  4 16  1  0  0  0  0
  4 17  2  0  0  0  0
  5  6  1  0  0  0  0
  5  7  1  0  0  0  0
  6  9  1  0  0  0  0
  6 10  2  0  0  0  0
  7 18  1  0  0  0  0
  8 22  1  0  0  0  0
  9 16  2  0  0  0  0
  9 18  1  0  0  0  0
 10 17  1  0  0  0  0
 10 20  1  0  0  0  0
 11 14  1  0  0  0  0
 11 19  1  0  0  0  0
 11 21  2  0  0  0  0
 12 13  1  0  0  0  0
 12 14  1  0  0  0  0
 13 14  1  0  0  0  0
 14 15  1  0  0  0  0
 15 20  1  0  0  0  0
  1 23  1  0  0  0  0
  2 24  1  0  0  0  0
  3 25  1  0  0  0  0
  4 26  1  0  0  0  0
 12 27  1  0  0  0  0
 12 28  1  0  0  0  0
 13 29  1  0  0  0  0
 13 30  1  0  0  0  0
 15 31  1  0  0  0  0
 15 32  1  0  0  0  0
 18 33  1  0  0  0  0
 19 34  1  0  0  0  0
 19 35  1  0  0  0  0
 20 36  1  0  0  0  0
M  END
> <POSIT::Probability>
0.99

> <POSIT::Method>
SHAPEFIT

> <ReceptorTitle>
UCSF-P4463-REFINED_LIGAND-BOUND-STATE_A__DU__LA1_A-201(A)

> <OMEGA_C>
tG9Cwhwk68FYmHRA2glIwig068FNrYBAushGwukg6cHnN85Akw8vwrbx6cFXF71APCQ/wj4T6sFO
nZ5ABlI5wiML6sEfoKJAjDlBwtwX6cFU+8dANjJKwlQ36sG1fapAex44wmYT6cHEDc5AUTQ1wt/e
6sH1CIRAH+k0wgDFAMLg7LM/6OkqwpUA/MEiZ4Q/+pcrwgU4/cHzXSNAs1YwwkCC+cHoW9c/uAYy
wqWX7cH8bd8/CfsywmUI6cEd+dpAKxUwwkzA6sFAbJJAqe88wvBZ6MEEXeRAeKU5wrsK/sF59FY/
t0U2wvOx68F6wjBA7Tk0wuiUBcLITcg/XL9RwnB+6sH2GbNAEr5Awq3i68EhSjVAJbBKwv0B7MEq
JEtA+W5Iwh1V6MFIAO5As/IqwlgI6sEEqcdAMnMowvt39cHyPyE/13Qqws2SAcJoD84+1KErwl6d
AsLUgEBALqApwhyN98HkDk9AiYEuwji76MH7MABADoszwtEp68HTNUI/QEQ9wlhv58F0BQJB8XA8
wh+rAcL8bxE/gEY6wvU39sFJtzM/Yd44wvS68cFXfypA

> <OMEGA_E>
gE02PQ==

> <OMEGA_NBR>
     59798

$$$$
CACHE3HI_1718_73
  -OEChem-03092622513D

 43 44  0     0  0  0  0  0  0999 V2000
  -48.6206  -29.7834    3.0874 C   0  0  0  0  0  0  0  0  0  0  0  0
  -46.6779  -28.9015    4.2213 C   0  0  0  0  0  0  0  0  0  0  0  0
  -49.3357  -29.7456    4.2845 C   0  0  0  0  0  0  0  0  0  0  0  0
  -47.3929  -28.8636    5.4183 C   0  0  0  0  0  0  0  0  0  0  0  0
  -44.5799  -33.4579   -1.4600 C   0  0  0  0  0  0  0  0  0  0  0  0
  -45.8384  -33.6014   -2.0443 C   0  0  0  0  0  0  0  0  0  0  0  0
  -46.8685  -32.7183   -0.0452 C   0  0  0  0  0  0  0  0  0  0  0  0
  -47.2916  -29.3612    3.0559 C   0  0  0  0  0  0  0  0  0  0  0  0
  -48.7219  -29.2859    5.4498 C   0  0  0  0  0  0  0  0  0  0  0  0
  -44.4659  -32.9443   -0.1682 C   0  0  0  0  0  0  0  0  0  0  0  0
  -45.6101  -32.5748    0.5391 C   0  0  0  0  0  0  0  0  0  0  0  0
  -46.9825  -33.2318   -1.3370 C   0  0  0  0  0  0  0  0  0  0  0  0
  -50.7693  -29.6264    6.8797 C   0  0  0  0  0  0  0  0  0  0  0  0
  -41.8893  -31.5947    1.9521 C   0  0  0  0  0  0  0  0  0  0  0  0
  -46.5258  -29.4040    1.7768 C   0  0  0  0  0  0  0  0  0  0  0  0
  -42.8239  -31.4987    0.7650 C   0  0  0  0  0  0  0  0  0  0  0  0
  -51.1283  -29.4436    8.2078 N   0  0  0  0  0  0  0  0  0  0  0  0
  -49.4373  -29.2478    6.6469 N   0  0  0  0  0  0  0  0  0  0  0  0
  -45.3564  -30.2403    1.8661 N   0  0  0  0  0  0  0  0  0  0  0  0
  -51.5637  -30.0693    6.0546 O   0  0  0  0  0  0  0  0  0  0  0  0
  -44.2463  -32.3932    2.7563 O   0  0  0  0  0  0  0  0  0  0  0  0
  -46.7522  -32.2077    2.8377 O   0  0  0  0  0  0  0  0  0  0  0  0
  -43.2272  -32.8127    0.3836 O   0  0  0  0  0  0  0  0  0  0  0  0
  -45.4918  -31.9252    2.1790 S   0  0  0  0  0  0  0  0  0  0  0  0
  -48.6868  -33.4267   -2.1299 Br  0  0  0  0  0  0  0  0  0  0  0  0
  -49.1067  -30.1434    2.1846 H   0  0  0  0  0  0  0  0  0  0  0  0
  -45.6425  -28.5710    4.2058 H   0  0  0  0  0  0  0  0  0  0  0  0
  -50.3710  -30.0770    4.2975 H   0  0  0  0  0  0  0  0  0  0  0  0
  -46.9042  -28.5036    6.3202 H   0  0  0  0  0  0  0  0  0  0  0  0
  -43.6931  -33.7480   -2.0166 H   0  0  0  0  0  0  0  0  0  0  0  0
  -45.9098  -34.0033   -3.0517 H   0  0  0  0  0  0  0  0  0  0  0  0
  -47.7572  -32.4277    0.5107 H   0  0  0  0  0  0  0  0  0  0  0  0
  -42.3867  -32.0681    2.8034 H   0  0  0  0  0  0  0  0  0  0  0  0
  -40.9979  -32.1761    1.6952 H   0  0  0  0  0  0  0  0  0  0  0  0
  -41.5447  -30.6001    2.2527 H   0  0  0  0  0  0  0  0  0  0  0  0
  -47.1460  -29.7905    0.9564 H   0  0  0  0  0  0  0  0  0  0  0  0
  -46.1893  -28.4025    1.4748 H   0  0  0  0  0  0  0  0  0  0  0  0
  -42.3205  -31.0246   -0.0826 H   0  0  0  0  0  0  0  0  0  0  0  0
  -43.7149  -30.9180    1.0233 H   0  0  0  0  0  0  0  0  0  0  0  0
  -50.4466  -29.0756    8.8628 H   0  0  0  0  0  0  0  0  0  0  0  0
  -52.0616  -29.6720    8.5347 H   0  0  0  0  0  0  0  0  0  0  0  0
  -48.9381  -28.9014    7.4724 H   0  0  0  0  0  0  0  0  0  0  0  0
  -44.4598  -29.7855    2.1340 H   0  0  0  0  0  0  0  0  0  0  0  0
  1  3  2  0  0  0  0
  1  8  1  0  0  0  0
  2  4  1  0  0  0  0
  2  8  2  0  0  0  0
  3  9  1  0  0  0  0
  4  9  2  0  0  0  0
  5  6  2  0  0  0  0
  5 10  1  0  0  0  0
  6 12  1  0  0  0  0
  7 11  1  0  0  0  0
  7 12  2  0  0  0  0
  8 15  1  0  0  0  0
  9 18  1  0  0  0  0
 10 11  2  0  0  0  0
 10 23  1  0  0  0  0
 11 24  1  0  0  0  0
 12 25  1  0  0  0  0
 13 17  1  0  0  0  0
 13 18  1  0  0  0  0
 13 20  2  0  0  0  0
 14 16  1  0  0  0  0
 15 19  1  0  0  0  0
 16 23  1  0  0  0  0
 19 24  1  0  0  0  0
 21 24  2  0  0  0  0
 22 24  2  0  0  0  0
  1 26  1  0  0  0  0
  2 27  1  0  0  0  0
  3 28  1  0  0  0  0
  4 29  1  0  0  0  0
  5 30  1  0  0  0  0
  6 31  1  0  0  0  0
  7 32  1  0  0  0  0
 14 33  1  0  0  0  0
 14 34  1  0  0  0  0
 14 35  1  0  0  0  0
 15 36  1  0  0  0  0
 15 37  1  0  0  0  0
 16 38  1  0  0  0  0
 16 39  1  0  0  0  0
 17 40  1  0  0  0  0
 17 41  1  0  0  0  0
 18 42  1  0  0  0  0
 19 43  1  0  0  0  0
M  END
> <POSIT::Probability>
0.24

> <POSIT::Method>
FRED

> <ReceptorTitle>
UCSF-P4463-REFINED_LIGAND-BOUND-STATE_A__DU__LA1_A-201(A)

> <OMEGA_C>
gntCwn1E7sETmEVAKrY6wks258GAFIdAvVdFwub27cFUGolAV5I9wq7o5sGSYq1A2VEywtzUBcJ8
4Lq/fVo3wtdnBsLn1QLAW3k7woLfAsKg+Di9oyo9wsLj6sE1lENARONCwm9J6sG5ZK5AH90xwgLH
A8IANyy+wXA2woxMAsLmAwo/Hu47wmHtBML2Iqu/zBNLwt4C7cGWJtxAoo4nwgzC/MGg3vk/bBo6
wkw768Eeb+M/rEsrwlX9+8Ed2UM/aoNMwoCM68FSUwNBy79Fwpb76cF+s9RA7Ww1wizs8cGc3O4/
MEFOwvWN8MHkvsFALPwwwqSSAcJsZzBANQI7wqbUAMKYnTVArugswi9AA8JIbcQ+lfc1wuRm/8EO
dQtAQr9Cwui0BcIyUAjASG1Ewpol8cEo0QtA7JE2wlqR5MHqlYZA7ntJwqCd8MFqhYlA3507wnQH
5MHUPspAtsUuwuj9BsKPDwHAoqM3wlUDCMJMT0PAZgc/wvW1AcJNvAI/9ospwr9FAMJYajNAzv0j
wlK0AMLe/Ng/0C0mwgnN9MGYKxBAi5U8wuFS7sEp1HQ/1cE4wmo448GQx7w/PUgpwk0y+MHAH6m9
FNwuwgtY98EN/II/TMlJwuCa6MHczQ1BFj9Qwjpg7cH8jQhBmsBDwhM258EbHu9Ay9Yxwq9I7sH8
kwhA

> <OMEGA_E>
xI3cwA==

> <OMEGA_NBR>
     61145

$$$$
CACHE3HI_1696_32
  -OEChem-03092622493D

 33 36  0     1  0  0  0  0  0999 V2000
  -42.9420  -25.7736   -0.0274 C   0  0  0  0  0  0  0  0  0  0  0  0
  -43.2265  -27.1082    0.5020 C   0  0  0  0  0  0  0  0  0  0  0  0
  -44.0004  -25.2453   -0.7184 C   0  0  0  0  0  0  0  0  0  0  0  0
  -44.2243  -29.2314    5.7066 C   0  0  0  0  0  0  0  0  0  0  0  0
  -48.7228  -29.2237    5.7904 C   0  0  0  0  0  0  0  0  0  0  0  0
  -46.7728  -29.5693    4.8184 C   0  0  0  0  0  0  0  0  0  0  0  0
  -46.5073  -29.0623    6.0920 C   0  0  0  0  0  0  0  0  0  0  0  0
  -45.6875  -29.9216    3.9838 C   0  0  0  0  0  0  0  0  0  0  0  0
  -44.5143  -27.5401    0.2365 C   0  0  0  0  0  0  0  0  0  0  0  0
  -46.4408  -28.9727    0.8744 C   0  0  0  0  0  0  0  0  0  0  0  0
  -46.9711  -30.0807    1.7940 C   0  0  0  0  0  0  0  0  0  0  0  0
  -44.6985  -30.9607    1.9392 C   0  0  0  0  0  0  0  0  0  0  0  0
  -44.0542  -29.7144    1.3275 C   0  0  0  0  0  0  0  0  0  0  0  0
  -45.2451  -28.8967    6.5295 N   0  0  0  0  0  0  0  0  0  0  0  0
  -44.4245  -29.7456    4.4660 N   0  0  0  0  0  0  0  0  0  0  0  0
  -48.1559  -29.6616    4.6898 N   0  0  0  0  0  0  0  0  0  0  0  0
  -47.7301  -28.8440    6.6834 N   0  0  0  0  0  0  0  0  0  0  0  0
  -45.8755  -30.5052    2.7034 N   0  0  1  0  0  0  0  0  0  0  0  0
  -45.0406  -28.7519    0.7372 N   0  0  0  0  0  0  0  0  0  0  0  0
  -47.2772  -28.3288    0.2521 O   0  0  0  0  0  0  0  0  0  0  0  0
  -45.3544  -26.3330   -0.7266 S   0  0  0  0  0  0  0  0  0  0  0  0
  -42.0012  -25.2617    0.1115 H   0  0  0  0  0  0  0  0  0  0  0  0
  -42.5032  -27.6975    1.0459 H   0  0  0  0  0  0  0  0  0  0  0  0
  -43.9937  -24.2770   -1.1966 H   0  0  0  0  0  0  0  0  0  0  0  0
  -43.2110  -29.0838    6.0500 H   0  0  0  0  0  0  0  0  0  0  0  0
  -49.7862  -29.1682    5.9710 H   0  0  0  0  0  0  0  0  0  0  0  0
  -47.8166  -29.6989    2.3850 H   0  0  0  0  0  0  0  0  0  0  0  0
  -47.3036  -30.9371    1.1890 H   0  0  0  0  0  0  0  0  0  0  0  0
  -45.0094  -31.6544    1.1442 H   0  0  0  0  0  0  0  0  0  0  0  0
  -43.9857  -31.4652    2.6081 H   0  0  0  0  0  0  0  0  0  0  0  0
  -43.4899  -29.1934    2.1151 H   0  0  0  0  0  0  0  0  0  0  0  0
  -43.3641  -30.0349    0.5331 H   0  0  0  0  0  0  0  0  0  0  0  0
  -47.8787  -28.4745    7.6007 H   0  0  0  0  0  0  0  0  0  0  0  0
  1  2  1  0  0  0  0
  1  3  2  0  0  0  0
  2  9  2  0  0  0  0
  3 21  1  0  0  0  0
  4 14  2  0  0  0  0
  4 15  1  0  0  0  0
  5 16  2  0  0  0  0
  5 17  1  0  0  0  0
  6  7  2  0  0  0  0
  6  8  1  0  0  0  0
  6 16  1  0  0  0  0
  7 14  1  0  0  0  0
  7 17  1  0  0  0  0
  8 15  2  0  0  0  0
  8 18  1  0  0  0  0
  9 19  1  0  0  0  0
  9 21  1  0  0  0  0
 10 11  1  0  0  0  0
 10 19  1  0  0  0  0
 10 20  2  0  0  0  0
 11 18  1  0  0  0  0
 12 13  1  0  0  0  0
 12 18  1  0  0  0  0
 13 19  1  0  0  0  0
  1 22  1  0  0  0  0
  2 23  1  0  0  0  0
  3 24  1  0  0  0  0
  4 25  1  0  0  0  0
  5 26  1  0  0  0  0
 11 27  1  0  0  0  0
 11 28  1  0  0  0  0
 12 29  1  0  0  0  0
 12 30  1  0  0  0  0
 13 31  1  0  0  0  0
 13 32  1  0  0  0  0
 17 33  1  0  0  0  0
M  END
> <POSIT::Probability>
0.72

> <POSIT::Method>
SHAPEFIT

> <ReceptorTitle>
UCSF-P4468-REFINED_LIGAND-BOUND-STATE_A__DU__LA1_A-201(A)

> <OMEGA_C>
msQrwmgwzsEAKOC8/OcswoTd2MF0ggA/cAAwwnj2ycEI6Te/sOUwwuLZ6cGAnLZAMuRCwjjK6cG2
SrlAXhc7wtyN7ME2MJpAeAc6wqh/6MHS8cJA+r82wlZf78FO935AqA4ywh5S3MHQMHI+XMM5whLI
58Fo218/aOI7wjCl8MGroeU/UMsywoKv98E9Ofg/djcwwgC37cHe7Kk/8vo0wn4s58Fi8dBAsrIx
wu727cGS6Y5Anp9AwvJK7cF2EpZArOs+wnbA5sE+3tVAkIA3wpwK9ME1BC1AlCk0wvYD5sGctjw/
3Bs9wkyh4sFoEYE+9Go1wgqq0sEEADq/QAEowv0XysF7V+Q9SQMqwnyU3cG04IU/jfkvwlI3wsFr
Kpm/G9gswpCr6MFjmcFADiVHwo5Y6cGPEr9AOkQ/wlqX7cGlpBhA7TY9wh5/98FQMpg/lwk0wkw8
/cHrdJI/YvEvwru4+8EV6yZAtPUtwiOM6cE9XgdA3nQtwoVH8MECewg/w4M/wrfL48GeOPNA

> <OMEGA_E>
zBkKPw==

> <OMEGA_NBR>
      1185

$$$$
CACHE3HI_1700_48
  -OEChem-03092622493D

 46 49  0     1  0  0  0  0  0999 V2000
  -47.5197  -28.9197    4.6961 C   0  0  0  0  0  0  0  0  0  0  0  0
  -48.7252  -29.1113    5.3619 C   0  0  0  0  0  0  0  0  0  0  0  0
  -48.4844  -29.9248    2.7683 C   0  0  0  0  0  0  0  0  0  0  0  0
  -47.3884  -29.3312    3.3745 C   0  0  0  0  0  0  0  0  0  0  0  0
  -49.7612  -29.7144    4.6672 C   0  0  0  0  0  0  0  0  0  0  0  0
  -51.8331  -31.0325    5.0051 C   0  0  0  0  0  0  0  0  0  0  0  0
  -51.0566  -29.4314    6.7399 C   0  0  0  0  0  0  0  0  0  0  0  0
  -42.8940  -29.1993    3.2594 C   0  0  0  0  0  0  0  0  0  0  0  0
  -41.1222  -30.6415    2.8645 C   0  0  0  0  0  0  0  0  0  0  0  0
  -53.2515  -30.7736    5.5003 C   0  0  0  0  0  0  0  0  0  0  0  0
  -52.5181  -29.2629    7.1391 C   0  0  0  0  0  0  0  0  0  0  0  0
  -43.9727  -31.6800    0.9349 C   0  0  0  0  0  0  0  0  0  0  0  0
  -43.0702  -29.6353    1.8090 C   0  0  2  0  0  0  0  0  0  0  0  0
  -44.3787  -30.2842    1.3816 C   0  0  2  0  0  0  0  0  0  0  0  0
  -42.0156  -30.7220    1.6377 C   0  0  2  0  0  0  0  0  0  0  0  0
  -46.1004  -29.1368    2.6270 C   0  0  0  0  0  0  0  0  0  0  0  0
  -49.6713  -30.1275    3.3832 N   0  0  0  0  0  0  0  0  0  0  0  0
  -41.4501  -29.3519    3.4873 N   0  0  0  0  0  0  0  0  0  0  0  0
  -50.9670  -29.9004    5.3504 N   0  0  0  0  0  0  0  0  0  0  0  0
  -45.3593  -30.3801    2.4877 N   0  0  0  0  0  0  0  0  0  0  0  0
  -53.2505  -30.4613    6.8913 O   0  0  0  0  0  0  0  0  0  0  0  0
  -42.7241  -31.9591    1.5811 O   0  0  0  0  0  0  0  0  0  0  0  0
  -46.6892  -28.4483    5.2139 H   0  0  0  0  0  0  0  0  0  0  0  0
  -48.8360  -28.7931    6.3934 H   0  0  0  0  0  0  0  0  0  0  0  0
  -48.4413  -30.2656    1.7383 H   0  0  0  0  0  0  0  0  0  0  0  0
  -51.4384  -31.9436    5.4810 H   0  0  0  0  0  0  0  0  0  0  0  0
  -51.8474  -31.2013    3.9183 H   0  0  0  0  0  0  0  0  0  0  0  0
  -50.5254  -28.4771    6.8697 H   0  0  0  0  0  0  0  0  0  0  0  0
  -50.5789  -30.1735    7.3983 H   0  0  0  0  0  0  0  0  0  0  0  0
  -43.1718  -28.1466    3.3735 H   0  0  0  0  0  0  0  0  0  0  0  0
  -43.4850  -29.7872    3.9629 H   0  0  0  0  0  0  0  0  0  0  0  0
  -41.2794  -31.4634    3.5681 H   0  0  0  0  0  0  0  0  0  0  0  0
  -40.0694  -30.6307    2.5610 H   0  0  0  0  0  0  0  0  0  0  0  0
  -53.7299  -29.9619    4.9391 H   0  0  0  0  0  0  0  0  0  0  0  0
  -53.8612  -31.6721    5.3611 H   0  0  0  0  0  0  0  0  0  0  0  0
  -52.5858  -29.0467    8.2102 H   0  0  0  0  0  0  0  0  0  0  0  0
  -52.9860  -28.4264    6.6061 H   0  0  0  0  0  0  0  0  0  0  0  0
  -44.7004  -32.4646    1.1814 H   0  0  0  0  0  0  0  0  0  0  0  0
  -43.8075  -31.7104   -0.1520 H   0  0  0  0  0  0  0  0  0  0  0  0
  -42.8502  -28.7849    1.1446 H   0  0  0  0  0  0  0  0  0  0  0  0
  -44.8602  -29.7218    0.5710 H   0  0  0  0  0  0  0  0  0  0  0  0
  -41.4486  -30.6008    0.7175 H   0  0  0  0  0  0  0  0  0  0  0  0
  -46.2924  -28.7439    1.6231 H   0  0  0  0  0  0  0  0  0  0  0  0
  -45.4536  -28.4173    3.1397 H   0  0  0  0  0  0  0  0  0  0  0  0
  -40.9336  -28.5990    3.0557 H   0  0  0  0  0  0  0  0  0  0  0  0
  -46.0059  -31.1408    2.2897 H   0  0  0  0  0  0  0  0  0  0  0  0
  1  2  1  0  0  0  0
  1  4  2  0  0  0  0
  2  5  2  0  0  0  0
  3  4  1  0  0  0  0
  3 17  2  0  0  0  0
  4 16  1  0  0  0  0
  5 17  1  0  0  0  0
  5 19  1  0  0  0  0
  6 10  1  0  0  0  0
  6 19  1  0  0  0  0
  7 11  1  0  0  0  0
  7 19  1  0  0  0  0
  8 13  1  0  0  0  0
  8 18  1  0  0  0  0
  9 15  1  0  0  0  0
  9 18  1  0  0  0  0
 10 21  1  0  0  0  0
 11 21  1  0  0  0  0
 12 14  1  0  0  0  0
 12 22  1  0  0  0  0
 13 14  1  0  0  0  0
 13 15  1  0  0  0  0
 14 20  1  0  0  0  0
 15 22  1  0  0  0  0
 16 20  1  0  0  0  0
  1 23  1  0  0  0  0
  2 24  1  0  0  0  0
  3 25  1  0  0  0  0
  6 26  1  0  0  0  0
  6 27  1  0  0  0  0
  7 28  1  0  0  0  0
  7 29  1  0  0  0  0
  8 30  1  0  0  0  0
  8 31  1  0  0  0  0
  9 32  1  0  0  0  0
  9 33  1  0  0  0  0
 10 34  1  0  0  0  0
 10 35  1  0  0  0  0
 11 36  1  0  0  0  0
 11 37  1  0  0  0  0
 12 38  1  0  0  0  0
 12 39  1  0  0  0  0
 13 40  1  0  0  0  0
 14 41  1  0  0  0  0
 15 42  1  0  0  0  0
 16 43  1  0  0  0  0
 16 44  1  0  0  0  0
 18 45  1  0  0  0  0
 20 46  1  0  0  0  0
M  END
> <POSIT::Probability>
0.02

> <POSIT::Method>
FRED

> <ReceptorTitle>
UCSF-P4468-REFINED_LIGAND-BOUND-STATE_A__DU__LA1_A-201(A)

> <OMEGA_C>
NBQ+wnZb58GiRpZAmuZCwtrj6MHAlKtAB/BBwgNm78HYKzFAwo09wkqm6sEo+FdAfwtHwiC37cHU
WZVAGFVPwqBC+MGuKaBA9TlMwopz68FIrddAf5MrwiKY6cEAmlBAL30kwrkh9cFsUzdAgQFVwkQw
9sG8ArBAhhJSwnUa6sHcc+RAAOQvwpdw/cGgVG8/40cswhMV7cFojuc/voMxwg5G8sEA2LA/9g8o
wq7G9cF4n9E/2mY4wjwY6cFgIShAZq9GwgsF8cE8hlhA7cwlwsLQ6sGEMF9AK95Lwgg078FMNqtA
7W81wl8K88H0Nh9AewBVwtCw88EuhdxAg+UqwkGs/8EIYso/tcE6whqW48Es2KZAGFhDwlpY5sEk
l8xA68NBwgEg8sHogN4/98BNwnmM/8EyZK9AsGNPwlGc+cHQxXpA+BlKwirR48Fs1NtA0VBKwlBj
8cGgvuxA6K8swlYs4cHE5ldAmPAtwiFM7sF4oH1AER4lwv20+8EwXGRABEcgwqEL9cE05yNAX+tW
wuyx78G+DJ5A2HFXwotg/cHejatA4ldSwqBf6MEiXQNBrfFTwlJp48HiZNNAOM0ywsfbAcJ4N5c/
1zovwtiu/cEAmRu+kGYrwm1H5sEYgpI/5XAzwkXG7cGgKhI/U8slwnzO9MEgqzc/dCs5wpvz5cFA
wc8/eNA1wpdW48Hw8EhACLwjwq3K5MHUj0NAEgY4wmQg+cGkihJA

> <OMEGA_E>
A63fwA==

> <OMEGA_NBR>
      2606

$$$$
CACHE3HI_1707_59
  -OEChem-03092622493D

 43 44  0     0  0  0  0  0  0999 V2000
  -49.0510  -28.4807    5.7351 C   0  0  0  0  0  0  0  0  0  0  0  0
  -49.1172  -29.2673    4.5846 C   0  0  0  0  0  0  0  0  0  0  0  0
  -47.8159  -28.1941    6.3171 C   0  0  0  0  0  0  0  0  0  0  0  0
  -47.9474  -29.7617    4.0068 C   0  0  0  0  0  0  0  0  0  0  0  0
  -46.6467  -28.6992    5.7473 C   0  0  0  0  0  0  0  0  0  0  0  0
  -46.7110  -29.4644    4.5801 C   0  0  0  0  0  0  0  0  0  0  0  0
  -45.7610  -29.1123    1.1473 C   0  0  0  0  0  0  0  0  0  0  0  0
  -44.3955  -29.2354    5.9247 C   0  0  0  0  0  0  0  0  0  0  0  0
  -44.4007  -29.3226    4.4104 C   0  0  0  0  0  0  0  0  0  0  0  0
  -42.6212  -29.0669    2.1849 C   0  0  0  0  0  0  0  0  0  0  0  0
  -44.9701  -26.1950   -0.1870 C   0  0  0  0  0  0  0  0  0  0  0  0
  -48.0476  -30.6150    2.7849 C   0  0  0  0  0  0  0  0  0  0  0  0
  -47.0911  -28.4238    1.3671 C   0  0  0  0  0  0  0  0  0  0  0  0
  -43.2934  -28.7819    0.8529 C   0  0  0  0  0  0  0  0  0  0  0  0
  -44.7507  -26.8218    1.1791 C   0  0  0  0  0  0  0  0  0  0  0  0
  -44.6460  -28.2708    1.0632 N   0  0  0  0  0  0  0  0  0  0  0  0
  -45.6921  -30.3400    1.0516 O   0  0  0  0  0  0  0  0  0  0  0  0
  -49.6443  -28.8107    1.7709 O   0  0  0  0  0  0  0  0  0  0  0  0
  -48.4084  -30.3616    0.2085 O   0  0  0  0  0  0  0  0  0  0  0  0
  -45.4660  -28.4013    6.3763 O   0  0  0  0  0  0  0  0  0  0  0  0
  -45.5970  -29.9605    3.9552 O   0  0  0  0  0  0  0  0  0  0  0  0
  -48.4516  -29.5674    1.4256 S   0  0  0  0  0  0  0  0  0  0  0  0
  -49.9624  -28.0866    6.1760 H   0  0  0  0  0  0  0  0  0  0  0  0
  -50.0866  -29.4925    4.1476 H   0  0  0  0  0  0  0  0  0  0  0  0
  -47.7716  -27.5698    7.2049 H   0  0  0  0  0  0  0  0  0  0  0  0
  -44.5388  -30.2275    6.3630 H   0  0  0  0  0  0  0  0  0  0  0  0
  -43.4503  -28.8271    6.3021 H   0  0  0  0  0  0  0  0  0  0  0  0
  -44.3695  -28.3203    3.9715 H   0  0  0  0  0  0  0  0  0  0  0  0
  -43.5380  -29.8874    4.0357 H   0  0  0  0  0  0  0  0  0  0  0  0
  -43.1996  -29.8059    2.7482 H   0  0  0  0  0  0  0  0  0  0  0  0
  -42.5476  -28.1604    2.7951 H   0  0  0  0  0  0  0  0  0  0  0  0
  -41.6115  -29.4665    2.0414 H   0  0  0  0  0  0  0  0  0  0  0  0
  -45.8881  -26.5854   -0.6375 H   0  0  0  0  0  0  0  0  0  0  0  0
  -44.1401  -26.4196   -0.8654 H   0  0  0  0  0  0  0  0  0  0  0  0
  -45.0670  -25.1065   -0.1124 H   0  0  0  0  0  0  0  0  0  0  0  0
  -48.8331  -31.3729    2.8730 H   0  0  0  0  0  0  0  0  0  0  0  0
  -47.1037  -31.1196    2.5540 H   0  0  0  0  0  0  0  0  0  0  0  0
  -47.2999  -27.7346    0.5448 H   0  0  0  0  0  0  0  0  0  0  0  0
  -47.0886  -27.8954    2.3241 H   0  0  0  0  0  0  0  0  0  0  0  0
  -42.7094  -28.0423    0.2956 H   0  0  0  0  0  0  0  0  0  0  0  0
  -43.3347  -29.6973    0.2537 H   0  0  0  0  0  0  0  0  0  0  0  0
  -43.8312  -26.4267    1.6231 H   0  0  0  0  0  0  0  0  0  0  0  0
  -45.5816  -26.5646    1.8441 H   0  0  0  0  0  0  0  0  0  0  0  0
  1  2  2  0  0  0  0
  1  3  1  0  0  0  0
  2  4  1  0  0  0  0
  3  5  2  0  0  0  0
  4  6  2  0  0  0  0
  4 12  1  0  0  0  0
  5  6  1  0  0  0  0
  5 20  1  0  0  0  0
  6 21  1  0  0  0  0
  7 13  1  0  0  0  0
  7 16  1  0  0  0  0
  7 17  2  0  0  0  0
  8  9  1  0  0  0  0
  8 20  1  0  0  0  0
  9 21  1  0  0  0  0
 10 14  1  0  0  0  0
 11 15  1  0  0  0  0
 12 22  1  0  0  0  0
 13 22  1  0  0  0  0
 14 16  1  0  0  0  0
 15 16  1  0  0  0  0
 18 22  2  0  0  0  0
 19 22  2  0  0  0  0
  1 23  1  0  0  0  0
  2 24  1  0  0  0  0
  3 25  1  0  0  0  0
  8 26  1  0  0  0  0
  8 27  1  0  0  0  0
  9 28  1  0  0  0  0
  9 29  1  0  0  0  0
 10 30  1  0  0  0  0
 10 31  1  0  0  0  0
 10 32  1  0  0  0  0
 11 33  1  0  0  0  0
 11 34  1  0  0  0  0
 11 35  1  0  0  0  0
 12 36  1  0  0  0  0
 12 37  1  0  0  0  0
 13 38  1  0  0  0  0
 13 39  1  0  0  0  0
 14 40  1  0  0  0  0
 14 41  1  0  0  0  0
 15 42  1  0  0  0  0
 15 43  1  0  0  0  0
M  END
> <POSIT::Probability>
0.33

> <POSIT::Method>
HYBRID

> <ReceptorTitle>
UCSF-P4468-REFINED_LIGAND-BOUND-STATE_A__DU__LA1_A-201(A)

> <OMEGA_C>
OjREwmbY48EKhrdADnhEwmQj6sEgtZJAb0M/woCN4cHIJcpAJso/wvIX7sEXOIBAN5Y6wvmX5cE1
6rdAFdg6whi368EAkJJATgs3wufl6MHO2ZI/CJUxwiXi6cHMlr1AT5oxwpaU6sHFIY1AIHwqwheJ
6MGk1QtAYOEzwnWP0cGwiT++szBAwoTr9MF5OzJASF08wtlj48FT/a4/cywtwkhB5sEkVlo/rwAz
whKT1sG77ZY/iZUywoIq4sHWFog/rcQ2wjy48sEOmoY/wJNGwlp85sEsruI/OKJBwqDk8sFAh1U+
Ot01wsU148FqCsxAVmM2whiv78HHIX1Afc5BwvaJ7MFierY/jNlHwkux4MFmocVArlhIwrfw68He
uIRAIhY/wueO3MGYjuZAticywgPS8cECnstAKM0twu6d5sG2qslAX3oxwv6P4sGyLX5A8yYuwlYZ
78G6JIFAccwswpNy7sFE4y9AxzAqwpdI4cGr4zJAK3Imwm6768EOpwJAao03wumu1MEcNiO/co8w
wlFb08HMi12/mUQ0wjTayMEgOOa9DlVDwr/7+sFx3jdAKWo8wu70+MF2dCNAJTM9wn7g3cE4egs/
rVo8wrYp38ESvhRAYdYqwqlW4MEYVpc+uFYtwiiU7cG45IE+JlMvwshp08FKwM8/mFM2wl2E1MHG
Cuw/

> <OMEGA_E>
uOnLwA==

> <OMEGA_NBR>
      3956

$$$$
CACHE3HI_1715_58
  -OEChem-03092622493D

 53 57  0     0  0  0  0  0  0999 V2000
  -41.7587  -29.4745    2.5668 C   0  0  0  0  0  0  0  0  0  0  0  0
  -41.3027  -30.7921    2.5265 C   0  0  0  0  0  0  0  0  0  0  0  0
  -43.0923  -29.1892    2.2742 C   0  0  0  0  0  0  0  0  0  0  0  0
  -48.3825  -29.3282    4.3229 C   0  0  0  0  0  0  0  0  0  0  0  0
  -46.3958  -33.2630   -1.3386 C   0  0  0  0  0  0  0  0  0  0  0  0
  -46.5392  -34.0929    0.9260 C   0  0  0  0  0  0  0  0  0  0  0  0
  -42.1802  -31.8243    2.1939 C   0  0  0  0  0  0  0  0  0  0  0  0
  -47.6779  -33.7479   -1.5968 C   0  0  0  0  0  0  0  0  0  0  0  0
  -47.8213  -34.5778    0.6678 C   0  0  0  0  0  0  0  0  0  0  0  0
  -49.5159  -29.2484    5.1242 C   0  0  0  0  0  0  0  0  0  0  0  0
  -49.8014  -29.5824    2.4310 C   0  0  0  0  0  0  0  0  0  0  0  0
  -48.5189  -29.4983    2.9497 C   0  0  0  0  0  0  0  0  0  0  0  0
  -43.9697  -30.2215    1.9417 C   0  0  0  0  0  0  0  0  0  0  0  0
  -45.8265  -33.4355   -0.0769 C   0  0  0  0  0  0  0  0  0  0  0  0
  -43.5138  -31.5391    1.9013 C   0  0  0  0  0  0  0  0  0  0  0  0
  -48.3906  -34.4053   -0.5938 C   0  0  0  0  0  0  0  0  0  0  0  0
  -50.7536  -29.3435    4.5087 C   0  0  0  0  0  0  0  0  0  0  0  0
  -47.3645  -29.5842    2.0937 C   0  0  0  0  0  0  0  0  0  0  0  0
  -45.3370  -29.9067    1.6453 C   0  0  0  0  0  0  0  0  0  0  0  0
  -53.1317  -28.7054    4.7940 C   0  0  0  0  0  0  0  0  0  0  0  0
  -52.0369  -30.2536    6.4004 C   0  0  0  0  0  0  0  0  0  0  0  0
  -54.0406  -28.2718    5.9386 C   0  0  0  0  0  0  0  0  0  0  0  0
  -53.0078  -29.7346    7.4549 C   0  0  0  0  0  0  0  0  0  0  0  0
  -44.4470  -32.9155    0.2008 C   0  0  0  0  0  0  0  0  0  0  0  0
  -50.9258  -29.5091    3.1781 N   0  0  0  0  0  0  0  0  0  0  0  0
  -47.2479  -29.3962    0.7997 N   0  0  0  0  0  0  0  0  0  0  0  0
  -45.9142  -29.6086    0.5052 N   0  0  0  0  0  0  0  0  0  0  0  0
  -51.8838  -29.2614    5.3277 N   0  0  0  0  0  0  0  0  0  0  0  0
  -46.1929  -29.9121    2.7035 O   0  0  0  0  0  0  0  0  0  0  0  0
  -54.2419  -29.3441    6.8561 O   0  0  0  0  0  0  0  0  0  0  0  0
  -44.3497  -32.5676    1.5801 O   0  0  0  0  0  0  0  0  0  0  0  0
  -49.6214  -34.8711   -0.8428 F   0  0  0  0  0  0  0  0  0  0  0  0
  -41.0753  -28.6712    2.8265 H   0  0  0  0  0  0  0  0  0  0  0  0
  -40.2643  -31.0143    2.7541 H   0  0  0  0  0  0  0  0  0  0  0  0
  -43.4313  -28.1566    2.3097 H   0  0  0  0  0  0  0  0  0  0  0  0
  -47.3999  -29.2559    4.7824 H   0  0  0  0  0  0  0  0  0  0  0  0
  -45.8479  -32.7515   -2.1254 H   0  0  0  0  0  0  0  0  0  0  0  0
  -46.1034  -34.2315    1.9120 H   0  0  0  0  0  0  0  0  0  0  0  0
  -41.8179  -32.8484    2.1646 H   0  0  0  0  0  0  0  0  0  0  0  0
  -48.1220  -33.6139   -2.5786 H   0  0  0  0  0  0  0  0  0  0  0  0
  -48.3764  -35.0899    1.4484 H   0  0  0  0  0  0  0  0  0  0  0  0
  -49.4184  -29.1155    6.1967 H   0  0  0  0  0  0  0  0  0  0  0  0
  -49.9765  -29.7154    1.3672 H   0  0  0  0  0  0  0  0  0  0  0  0
  -53.6391  -29.4747    4.1978 H   0  0  0  0  0  0  0  0  0  0  0  0
  -52.9278  -27.8464    4.1439 H   0  0  0  0  0  0  0  0  0  0  0  0
  -51.0701  -30.4730    6.8684 H   0  0  0  0  0  0  0  0  0  0  0  0
  -52.4295  -31.1841    5.9706 H   0  0  0  0  0  0  0  0  0  0  0  0
  -53.6311  -27.4032    6.4683 H   0  0  0  0  0  0  0  0  0  0  0  0
  -55.0199  -27.9831    5.5435 H   0  0  0  0  0  0  0  0  0  0  0  0
  -53.2248  -30.5266    8.1789 H   0  0  0  0  0  0  0  0  0  0  0  0
  -52.5828  -28.8902    8.0109 H   0  0  0  0  0  0  0  0  0  0  0  0
  -43.6909  -33.6728   -0.0320 H   0  0  0  0  0  0  0  0  0  0  0  0
  -44.2345  -32.0296   -0.4082 H   0  0  0  0  0  0  0  0  0  0  0  0
  1  2  1  0  0  0  0
  1  3  2  0  0  0  0
  2  7  2  0  0  0  0
  3 13  1  0  0  0  0
  4 10  2  0  0  0  0
  4 12  1  0  0  0  0
  5  8  2  0  0  0  0
  5 14  1  0  0  0  0
  6  9  1  0  0  0  0
  6 14  2  0  0  0  0
  7 15  1  0  0  0  0
  8 16  1  0  0  0  0
  9 16  2  0  0  0  0
 10 17  1  0  0  0  0
 11 12  2  0  0  0  0
 11 25  1  0  0  0  0
 12 18  1  0  0  0  0
 13 15  2  0  0  0  0
 13 19  1  0  0  0  0
 14 24  1  0  0  0  0
 15 31  1  0  0  0  0
 16 32  1  0  0  0  0
 17 25  2  0  0  0  0
 17 28  1  0  0  0  0
 18 26  2  0  0  0  0
 18 29  1  0  0  0  0
 19 27  2  0  0  0  0
 19 29  1  0  0  0  0
 20 22  1  0  0  0  0
 20 28  1  0  0  0  0
 21 23  1  0  0  0  0
 21 28  1  0  0  0  0
 22 30  1  0  0  0  0
 23 30  1  0  0  0  0
 24 31  1  0  0  0  0
 26 27  1  0  0  0  0
  1 33  1  0  0  0  0
  2 34  1  0  0  0  0
  3 35  1  0  0  0  0
  4 36  1  0  0  0  0
  5 37  1  0  0  0  0
  6 38  1  0  0  0  0
  7 39  1  0  0  0  0
  8 40  1  0  0  0  0
  9 41  1  0  0  0  0
 10 42  1  0  0  0  0
 11 43  1  0  0  0  0
 20 44  1  0  0  0  0
 20 45  1  0  0  0  0
 21 46  1  0  0  0  0
 21 47  1  0  0  0  0
 22 48  1  0  0  0  0
 22 49  1  0  0  0  0
 23 50  1  0  0  0  0
 23 51  1  0  0  0  0
 24 52  1  0  0  0  0
 24 53  1  0  0  0  0
M  END
> <POSIT::Probability>
0.05

> <POSIT::Method>
FRED

> <ReceptorTitle>
UCSF-P4468-REFINED_LIGAND-BOUND-STATE_A__DU__LA1_A-201(A)

> <OMEGA_C>
3Agnwq7L68GCRiRAAjYlwkBW9sF5sSFAd14swpGD6cHUjBFAp4dBwhSg6sH4VIpAQpU5wlENBcLA
Vau/HCg6wiJfCML4Dm0/g7gowkKY/sHuaAxAMbY+wtD9BsL0Ysy//0g/wqBPCsJI9yo/RhBGwrv8
6cF7+aNAqzRHwruo7MHWlBtAXBNCwoL868F5xzxA+OAvwpTF8cGYiPg/WU43wvC9BcKAl529Kw4u
whJQ/ME6XvM/849BwgGfCcIQBBi/pANLwo6/6sHuRpBAM3U9wmus7MHS/gVAG1k1wu5A78FMmdI/
4IZUwq+k5cFLaJlA1iVQwnIH8sEl0MxAjClYwrYs4sHACL5A9wdUwoXg7cE5ju5Aw8kxwnGpA8Ig
mU0+CLRLwowS7MFHZktA2f08wncr68EItkw/Iqg3wm/e7MHgUQE/DYlPwkcX6sFxfKpAhMU4wu5L
78GHBS1ArvdYwqzA6sF2ZdtAFmYxwkVFAsIkQco/RHxGwgB8C8IAxFe/EU0kwqhe5cF25TRAnw4h
wkQd+MFcQzBAr7ktws5A4cHB0RNAe5k9wg4M6sG1CZlATWQ3wpYBA8LMBgjA1mk4whbtCMKsvPQ/
kkUnwr1kA8INiQpA6XxAwqt0BsIoCCXAa4FBwgNcDMLqZLk/bKxFwqPs6MGuS8ZA+OdHwju57cEE
AK8/do5Wwi7M68F0VIZAGLZTwoXF3sHHmoRAxEdMwrjI88GvydtA27dRwh55+cHYDr9APoZWwtI5
28Eq/M5AbBRcwnTd38GMZLFAJ+ZUwpI29MG53AJBxFRSwisf58GyLABBhMMuwuawBsIACAO9I/Aw
wk0eAMLAANG+

> <OMEGA_E>
zGSzwA==

> <OMEGA_NBR>
      5511

$$$$
CACHE3HI_1717_72
  -OEChem-03092622493D

 34 37  0     1  0  0  0  0  0999 V2000
  -43.2888  -26.3417    0.5667 C   0  0  0  0  0  0  0  0  0  0  0  0
  -43.3829  -27.6235    1.1388 C   0  0  0  0  0  0  0  0  0  0  0  0
  -44.3792  -25.8059   -0.1406 C   0  0  0  0  0  0  0  0  0  0  0  0
  -48.1954  -29.3016    4.5614 C   0  0  0  0  0  0  0  0  0  0  0  0
  -48.7296  -29.0115    5.7914 C   0  0  0  0  0  0  0  0  0  0  0  0
  -44.1902  -29.3005    5.7014 C   0  0  0  0  0  0  0  0  0  0  0  0
  -46.7283  -29.3883    4.7159 C   0  0  0  0  0  0  0  0  0  0  0  0
  -44.5698  -28.3794    1.0151 C   0  0  0  0  0  0  0  0  0  0  0  0
  -45.6814  -27.8320    0.3083 C   0  0  0  0  0  0  0  0  0  0  0  0
  -45.5683  -26.5479   -0.2723 C   0  0  0  0  0  0  0  0  0  0  0  0
  -46.4745  -29.1008    6.0667 C   0  0  0  0  0  0  0  0  0  0  0  0
  -45.6190  -29.6541    3.8545 C   0  0  0  0  0  0  0  0  0  0  0  0
  -44.5825  -29.8013    1.5531 C   0  0  0  0  0  0  0  0  0  0  0  0
  -47.0192  -30.2797    1.8117 C   0  0  0  0  0  0  0  0  0  0  0  0
  -47.5920  -28.9728    1.2415 C   0  0  0  0  0  0  0  0  0  0  0  0
  -45.2183  -29.0633    6.5454 N   0  0  0  0  0  0  0  0  0  0  0  0
  -44.3695  -29.5883    4.3884 N   0  0  0  0  0  0  0  0  0  0  0  0
  -47.6889  -28.8911    6.7005 N   0  0  0  0  0  0  0  0  0  0  0  0
  -45.7295  -30.0091    2.4808 N   0  0  3  0  0  0  0  0  0  0  0  0
  -46.8505  -28.5414    0.0744 O   0  0  0  0  0  0  0  0  0  0  0  0
  -46.6052  -26.0221   -0.9665 F   0  0  0  0  0  0  0  0  0  0  0  0
  -42.3789  -25.7693    0.6709 H   0  0  0  0  0  0  0  0  0  0  0  0
  -42.5408  -28.0330    1.6769 H   0  0  0  0  0  0  0  0  0  0  0  0
  -44.3045  -24.8238   -0.5836 H   0  0  0  0  0  0  0  0  0  0  0  0
  -48.7483  -29.4417    3.6443 H   0  0  0  0  0  0  0  0  0  0  0  0
  -49.7802  -28.8966    6.0137 H   0  0  0  0  0  0  0  0  0  0  0  0
  -43.1830  -29.2593    6.0889 H   0  0  0  0  0  0  0  0  0  0  0  0
  -44.6684  -30.5040    0.7112 H   0  0  0  0  0  0  0  0  0  0  0  0
  -43.6433  -29.9900    2.0938 H   0  0  0  0  0  0  0  0  0  0  0  0
  -47.7272  -30.7020    2.5400 H   0  0  0  0  0  0  0  0  0  0  0  0
  -46.8629  -30.9979    0.9934 H   0  0  0  0  0  0  0  0  0  0  0  0
  -48.6428  -29.1345    0.9595 H   0  0  0  0  0  0  0  0  0  0  0  0
  -47.5355  -28.1899    2.0122 H   0  0  0  0  0  0  0  0  0  0  0  0
  -47.7990  -28.6830    7.6724 H   0  0  0  0  0  0  0  0  0  0  0  0
  1  2  1  0  0  0  0
  1  3  2  0  0  0  0
  2  8  2  0  0  0  0
  3 10  1  0  0  0  0
  4  5  2  0  0  0  0
  4  7  1  0  0  0  0
  5 18  1  0  0  0  0
  6 16  2  0  0  0  0
  6 17  1  0  0  0  0
  7 11  2  0  0  0  0
  7 12  1  0  0  0  0
  8  9  1  0  0  0  0
  8 13  1  0  0  0  0
  9 10  2  0  0  0  0
  9 20  1  0  0  0  0
 10 21  1  0  0  0  0
 11 16  1  0  0  0  0
 11 18  1  0  0  0  0
 12 17  2  0  0  0  0
 12 19  1  0  0  0  0
 13 19  1  0  0  0  0
 14 15  1  0  0  0  0
 14 19  1  0  0  0  0
 15 20  1  0  0  0  0
  1 22  1  0  0  0  0
  2 23  1  0  0  0  0
  3 24  1  0  0  0  0
  4 25  1  0  0  0  0
  5 26  1  0  0  0  0
  6 27  1  0  0  0  0
 13 28  1  0  0  0  0
 13 29  1  0  0  0  0
 14 30  1  0  0  0  0
 14 31  1  0  0  0  0
 15 32  1  0  0  0  0
 15 33  1  0  0  0  0
 18 34  1  0  0  0  0
M  END
> <POSIT::Probability>
0.99

> <POSIT::Method>
SHAPEFIT

> <ReceptorTitle>
UCSF-P4468-REFINED_LIGAND-BOUND-STATE_A__DU__LA1_A-201(A)

> <OMEGA_C>
uictwta70sHQEhE/Hogtwun83MECw5E/R4QxwpByzsH8BBC+IshAwsRp6sEf95FAHetCwpgX6MF9
U7lAzsIwwoFn6sEjcrZAxuk6wiUb68GY6JZAf0cywu0I48GO7YE/yLk2wuen3sG+1J0+6UU2wi1i
1MEccYu+6OU5wonO6MHHIsJA4nk2wn877cFssHZAb1Qywgtp7sGDysY/rhM8wrs88sEp5+c/Nl4+
wjvI58GS6p4/gN80wqSB6MEudNFAZXoxwsG07MGmbYxAcsE+wusg58GyatZAC+s2wrsS8METxR5A
5GY7wrtU5MGQdpg9vms6wlMt0MF6bne//4MpwpUnzsHcwCs/0SkqwoBD4MGipdY/1Dcxwh+XxsHM
ZhW/Sf5Cwo+I68EmPGlA8R5Hwk0s58FncMBAYbsswgUT6sFt2MJAb6wywjsI9MGTDjY/v5Iuwojr
78GZAAZAs+g+wpyd9cFOjyJAk3M7wrf798E1UH4/R5JCwm8T6cGFnnU/YyQ+wtaE4cFExwBALDI/
ws925cGDhPVA

> <OMEGA_E>
AAC2PA==

> <OMEGA_NBR>
      6716

$$$$
CACHE3-HO_1715_31
  -OEChem-03092622503D

 32 35  0     0  0  0  0  0  0999 V2000
  -48.5085  -29.5429    3.1363 C   0  0  0  0  0  0  0  0  0  0  0  0
  -49.9105  -29.3216    3.0898 C   0  0  0  0  0  0  0  0  0  0  0  0
  -49.9556  -28.8451    5.4960 C   0  0  0  0  0  0  0  0  0  0  0  0
  -44.0687  -29.4471    6.0352 C   0  0  0  0  0  0  0  0  0  0  0  0
  -47.8677  -29.4212    4.3833 C   0  0  0  0  0  0  0  0  0  0  0  0
  -46.4537  -29.5642    4.7649 C   0  0  0  0  0  0  0  0  0  0  0  0
  -48.5686  -29.0436    5.5390 C   0  0  0  0  0  0  0  0  0  0  0  0
  -50.6315  -28.9912    4.2696 C   0  0  0  0  0  0  0  0  0  0  0  0
  -46.3709  -29.1751    6.1090 C   0  0  0  0  0  0  0  0  0  0  0  0
  -45.2769  -29.9690    4.0714 C   0  0  0  0  0  0  0  0  0  0  0  0
  -44.1101  -30.7222    0.5484 C   0  0  0  0  0  0  0  0  0  0  0  0
  -45.6053  -32.5085    1.2255 C   0  0  0  0  0  0  0  0  0  0  0  0
  -44.0194  -30.1959    1.9792 C   0  0  0  0  0  0  0  0  0  0  0  0
  -45.6814  -31.9828    2.6810 C   0  0  0  0  0  0  0  0  0  0  0  0
  -45.1831  -29.1309    6.7326 N   0  0  0  0  0  0  0  0  0  0  0  0
  -44.0989  -29.8676    4.7448 N   0  0  0  0  0  0  0  0  0  0  0  0
  -47.6537  -28.9089    6.5721 N   0  0  0  0  0  0  0  0  0  0  0  0
  -44.8461  -31.8589    0.2628 N   0  0  0  0  0  0  0  0  0  0  0  0
  -45.2257  -30.5581    2.7914 N   0  0  0  0  0  0  0  0  0  0  0  0
  -43.3747  -30.2505   -0.3091 O   0  0  0  0  0  0  0  0  0  0  0  0
  -46.1223  -33.5816    0.9415 O   0  0  0  0  0  0  0  0  0  0  0  0
  -51.9708  -28.8025    4.2290 F   0  0  0  0  0  0  0  0  0  0  0  0
  -47.9532  -29.7959    2.2453 H   0  0  0  0  0  0  0  0  0  0  0  0
  -50.4342  -29.4050    2.1489 H   0  0  0  0  0  0  0  0  0  0  0  0
  -50.4988  -28.5834    6.3921 H   0  0  0  0  0  0  0  0  0  0  0  0
  -43.1110  -29.3612    6.5270 H   0  0  0  0  0  0  0  0  0  0  0  0
  -43.1272  -30.6247    2.4589 H   0  0  0  0  0  0  0  0  0  0  0  0
  -43.9285  -29.1001    1.9488 H   0  0  0  0  0  0  0  0  0  0  0  0
  -46.7230  -32.0498    3.0282 H   0  0  0  0  0  0  0  0  0  0  0  0
  -45.0413  -32.6102    3.3186 H   0  0  0  0  0  0  0  0  0  0  0  0
  -47.8832  -28.6572    7.5123 H   0  0  0  0  0  0  0  0  0  0  0  0
  -44.8302  -32.2242   -0.6680 H   0  0  0  0  0  0  0  0  0  0  0  0
  1  2  1  0  0  0  0
  1  5  2  0  0  0  0
  2  8  2  0  0  0  0
  3  7  2  0  0  0  0
  3  8  1  0  0  0  0
  4 15  1  0  0  0  0
  4 16  2  0  0  0  0
  5  6  1  0  0  0  0
  5  7  1  0  0  0  0
  6  9  1  0  0  0  0
  6 10  2  0  0  0  0
  7 17  1  0  0  0  0
  8 22  1  0  0  0  0
  9 15  2  0  0  0  0
  9 17  1  0  0  0  0
 10 16  1  0  0  0  0
 10 19  1  0  0  0  0
 11 13  1  0  0  0  0
 11 18  1  0  0  0  0
 11 20  2  0  0  0  0
 12 14  1  0  0  0  0
 12 18  1  0  0  0  0
 12 21  2  0  0  0  0
 13 19  1  0  0  0  0
 14 19  1  0  0  0  0
  1 23  1  0  0  0  0
  2 24  1  0  0  0  0
  3 25  1  0  0  0  0
  4 26  1  0  0  0  0
 13 27  1  0  0  0  0
 13 28  1  0  0  0  0
 14 29  1  0  0  0  0
 14 30  1  0  0  0  0
 17 31  1  0  0  0  0
 18 32  1  0  0  0  0
M  END
> <POSIT::Probability>
0.91

> <POSIT::Method>
SHAPEFIT

> <ReceptorTitle>
UCSF-P4473_LA2_MERGED(A)

> <OMEGA_C>
vAhCwtJX7MGouUhAZ6RHwpCS6sEFv0VAldJHwrLC5sGM369AUEYwwq2T68H+H8FAfXg/wp9e68E4
RIxAoNA5wnuD7ME6ephAS0ZCwkNZ6MFmP7FAm4ZKwgju58G0oIhA1Hs5wo1m6cGVfMNAgRs1wpLA
78GMSIJAuHAwwh3H9cH8Ygw/0Ws2wqkIAsKv3pw/5hMwwjKR8cF9Vv0/yLk2wrDc/8FslStAdrs0
wg4M6cGycddAUGUwwu/w7sFM1ZdAV50+wm1F58HGTtJAYWIzwiDf/sHYjoY+JOc0wg139MFcpjJA
vX8twv8A8sFIRp6+SX04wpRTBsLaCHE/E+JPwo5r5sE+VIdACdA/wgBe7sHmsg9AlLxJwoI968GM
hwlAwv5Jwsyq5MEWjMxAqnEswsLj6sEf3dBARoIswmf/9MEEXh1Aw7YvwvnM6MH5cfk/ZuQ6wvoy
AMLDzUFATio0wuFwAsLKY1RAYog/wvRB5cHXZPBAFlIzwo7lAMJlACu/

> <OMEGA_E>
GBbWPg==

> <OMEGA_NBR>
      1098

$$$$
CACHE3-HO_1718_14
  -OEChem-03092622503D

 39 42  0     1  0  0  0  0  0999 V2000
  -48.4694  -28.9266    3.3135 C   0  0  0  0  0  0  0  0  0  0  0  0
  -49.8743  -28.8419    3.2312 C   0  0  0  0  0  0  0  0  0  0  0  0
  -50.0526  -29.0089    5.6789 C   0  0  0  0  0  0  0  0  0  0  0  0
  -44.1463  -29.5346    6.2322 C   0  0  0  0  0  0  0  0  0  0  0  0
  -47.8957  -29.0650    4.5926 C   0  0  0  0  0  0  0  0  0  0  0  0
  -46.5108  -29.2443    4.9855 C   0  0  0  0  0  0  0  0  0  0  0  0
  -48.6556  -29.1003    5.7630 C   0  0  0  0  0  0  0  0  0  0  0  0
  -50.6611  -28.8946    4.4088 C   0  0  0  0  0  0  0  0  0  0  0  0
  -46.4656  -29.3411    6.3730 C   0  0  0  0  0  0  0  0  0  0  0  0
  -45.3430  -29.2985    4.2200 C   0  0  0  0  0  0  0  0  0  0  0  0
  -45.7709  -29.5559    0.4718 C   0  0  0  0  0  0  0  0  0  0  0  0
  -42.7747  -29.3086    1.6919 C   0  0  0  0  0  0  0  0  0  0  0  0
  -42.9340  -28.2515    0.5666 C   0  0  0  0  0  0  0  0  0  0  0  0
  -43.7788  -30.4960    1.6475 C   0  0  0  0  0  0  0  0  0  0  0  0
  -44.2903  -27.5045    0.5173 C   0  0  0  0  0  0  0  0  0  0  0  0
  -45.2493  -30.0666    1.8236 C   0  0  1  0  0  0  0  0  0  0  0  0
  -45.2760  -29.4855    6.9908 N   0  0  0  0  0  0  0  0  0  0  0  0
  -44.1614  -29.4334    4.8715 N   0  0  0  0  0  0  0  0  0  0  0  0
  -47.7778  -29.2529    6.8401 N   0  0  0  0  0  0  0  0  0  0  0  0
  -45.3587  -28.3391   -0.0564 N   0  0  0  0  0  0  0  0  0  0  0  0
  -45.3749  -29.0148    2.8653 N   0  0  0  0  0  0  0  0  0  0  0  0
  -46.3843  -30.3256   -0.2571 O   0  0  0  0  0  0  0  0  0  0  0  0
  -52.5586  -28.8446    4.2861 Br  0  0  0  0  0  0  0  0  0  0  0  0
  -47.8543  -28.8867    2.4267 H   0  0  0  0  0  0  0  0  0  0  0  0
  -50.3521  -28.7366    2.2683 H   0  0  0  0  0  0  0  0  0  0  0  0
  -50.6562  -29.0256    6.5744 H   0  0  0  0  0  0  0  0  0  0  0  0
  -43.1959  -29.6592    6.7297 H   0  0  0  0  0  0  0  0  0  0  0  0
  -41.7579  -29.7228    1.6254 H   0  0  0  0  0  0  0  0  0  0  0  0
  -42.8995  -28.7963    2.6573 H   0  0  0  0  0  0  0  0  0  0  0  0
  -42.1414  -27.5000    0.6973 H   0  0  0  0  0  0  0  0  0  0  0  0
  -42.7979  -28.7640   -0.3972 H   0  0  0  0  0  0  0  0  0  0  0  0
  -43.6778  -31.0009    0.6754 H   0  0  0  0  0  0  0  0  0  0  0  0
  -43.5225  -31.1988    2.4540 H   0  0  0  0  0  0  0  0  0  0  0  0
  -44.5748  -27.2170    1.5402 H   0  0  0  0  0  0  0  0  0  0  0  0
  -44.1759  -26.6007   -0.0992 H   0  0  0  0  0  0  0  0  0  0  0  0
  -45.8394  -30.9463    2.1202 H   0  0  0  0  0  0  0  0  0  0  0  0
  -48.0494  -29.2929    7.8016 H   0  0  0  0  0  0  0  0  0  0  0  0
  -45.8179  -28.0083   -0.8808 H   0  0  0  0  0  0  0  0  0  0  0  0
  -46.2505  -28.5617    2.6976 H   0  0  0  0  0  0  0  0  0  0  0  0
  1  2  1  0  0  0  0
  1  5  2  0  0  0  0
  2  8  2  0  0  0  0
  3  7  2  0  0  0  0
  3  8  1  0  0  0  0
  4 17  1  0  0  0  0
  4 18  2  0  0  0  0
  5  6  1  0  0  0  0
  5  7  1  0  0  0  0
  6  9  1  0  0  0  0
  6 10  2  0  0  0  0
  7 19  1  0  0  0  0
  8 23  1  0  0  0  0
  9 17  2  0  0  0  0
  9 19  1  0  0  0  0
 10 18  1  0  0  0  0
 10 21  1  0  0  0  0
 11 16  1  0  0  0  0
 11 20  1  0  0  0  0
 11 22  2  0  0  0  0
 12 13  1  0  0  0  0
 12 14  1  0  0  0  0
 13 15  1  0  0  0  0
 14 16  1  0  0  0  0
 15 20  1  0  0  0  0
 16 21  1  0  0  0  0
  1 24  1  0  0  0  0
  2 25  1  0  0  0  0
  3 26  1  0  0  0  0
  4 27  1  0  0  0  0
 12 28  1  0  0  0  0
 12 29  1  0  0  0  0
 13 30  1  0  0  0  0
 13 31  1  0  0  0  0
 14 32  1  0  0  0  0
 14 33  1  0  0  0  0
 15 34  1  0  0  0  0
 15 35  1  0  0  0  0
 16 36  1  0  0  0  0
 19 37  1  0  0  0  0
 20 38  1  0  0  0  0
 21 39  1  0  0  0  0
M  END
> <POSIT::Probability>
0.85

> <POSIT::Method>
SHAPEFIT

> <ReceptorTitle>
UCSF-P4473-REFINED_LIGAND-BOUND-STATE_AALTB__DU__LA1_A-201(A)

> <OMEGA_C>
reBBwqVp58EnEVRATH9Hwji85sFzy05A4jVIwjAS6MGEubVA2ZUwwsxG7MEHbsdAO5U/whKF6MEx
9pJAGgs6wk306cEeiZ9AWJ9CwlHN6MG5arhAA6VKwjko58GgFI1Autw5wo266sHI78tAOl81wlZj
6sEyCodAaRU3wpBy7MGwlfE+UxkrwgV46sFYkdg/Z7wrwgwD4sHAChE/cR0vwuP388EA4NI/Qykx
wjQJ3MHYbgQ/Uv80wmKI8MHAbOk/lho1wjni68FutN9APKUwwox368Gl45tAcxw/wusF6sHs4dpA
RG81wou24sGAAme97X81wkEe6ME5YTdAgok5wtya8sGgnoO+CjxSwq/B5sHYJ4lA2mo/wgIY58H1
ThtAimhJwork5cF4LBFA6J9KwoM06MEvYdJAmMgswglG7cG3WddAEwgnwmPI7cHXC9A/DJkrwrpe
5sFQESpA05Aowvr/28E5hTI/BDErwsIc5sF9V8u+BbYuws4B+MH75Sw/BBcuwh6X+cHyDR1AmEwy
wli82cHKJsU/E7QwwkDO1MEtIsu9mFs3wvmR98GtsAdAoDJAwuNX6sEKp/lAjEU3wv0Q4MHJe2G/
fQA5wlp+5MERpSxA

> <OMEGA_E>
oBoDPw==

> <OMEGA_NBR>
      2415

$$$$
CACHE3-HO_1718_16
  -OEChem-03092622503D

 36 39  0     1  0  0  0  0  0999 V2000
  -48.5061  -29.0952    3.3047 C   0  0  0  0  0  0  0  0  0  0  0  0
  -49.9143  -28.9749    3.2529 C   0  0  0  0  0  0  0  0  0  0  0  0
  -50.0311  -28.9865    5.7062 C   0  0  0  0  0  0  0  0  0  0  0  0
  -44.1093  -29.4355    6.2184 C   0  0  0  0  0  0  0  0  0  0  0  0
  -47.8948  -29.1582    4.5737 C   0  0  0  0  0  0  0  0  0  0  0  0
  -46.4846  -29.2508    4.9575 C   0  0  0  0  0  0  0  0  0  0  0  0
  -48.6342  -29.1097    5.7594 C   0  0  0  0  0  0  0  0  0  0  0  0
  -50.6713  -28.9145    4.4505 C   0  0  0  0  0  0  0  0  0  0  0  0
  -46.4311  -29.2689    6.3492 C   0  0  0  0  0  0  0  0  0  0  0  0
  -45.3037  -29.3298    4.1965 C   0  0  0  0  0  0  0  0  0  0  0  0
  -43.9503  -28.4249    1.0474 C   0  0  0  0  0  0  0  0  0  0  0  0
  -45.9252  -30.3853    0.2031 C   0  0  0  0  0  0  0  0  0  0  0  0
  -44.6536  -30.7990    0.9893 C   0  0  0  0  0  0  0  0  0  0  0  0
  -45.7162  -29.0618   -0.5845 C   0  0  0  0  0  0  0  0  0  0  0  0
  -44.2163  -29.6489    1.9116 C   0  0  2  0  0  0  0  0  0  0  0  0
  -45.2395  -29.3589    6.9713 N   0  0  0  0  0  0  0  0  0  0  0  0
  -44.1229  -29.4225    4.8563 N   0  0  0  0  0  0  0  0  0  0  0  0
  -47.7392  -29.1889    6.8262 N   0  0  0  0  0  0  0  0  0  0  0  0
  -44.9147  -28.0445    0.1287 N   0  0  0  0  0  0  0  0  0  0  0  0
  -45.3526  -29.3268    2.8135 N   0  0  0  0  0  0  0  0  0  0  0  0
  -42.9291  -27.7646    1.1882 O   0  0  0  0  0  0  0  0  0  0  0  0
  -52.5651  -28.7156    4.3820 Br  0  0  0  0  0  0  0  0  0  0  0  0
  -47.9172  -29.1375    2.4003 H   0  0  0  0  0  0  0  0  0  0  0  0
  -50.4152  -28.9288    2.2972 H   0  0  0  0  0  0  0  0  0  0  0  0
  -50.6103  -28.9471    6.6169 H   0  0  0  0  0  0  0  0  0  0  0  0
  -43.1577  -29.5100    6.7236 H   0  0  0  0  0  0  0  0  0  0  0  0
  -46.1795  -31.1854   -0.5077 H   0  0  0  0  0  0  0  0  0  0  0  0
  -46.7537  -30.2490    0.9136 H   0  0  0  0  0  0  0  0  0  0  0  0
  -44.8725  -31.6905    1.5955 H   0  0  0  0  0  0  0  0  0  0  0  0
  -43.8438  -31.0273    0.2807 H   0  0  0  0  0  0  0  0  0  0  0  0
  -45.2059  -29.3009   -1.5292 H   0  0  0  0  0  0  0  0  0  0  0  0
  -46.7048  -28.6307   -0.8007 H   0  0  0  0  0  0  0  0  0  0  0  0
  -43.3182  -29.9289    2.4818 H   0  0  0  0  0  0  0  0  0  0  0  0
  -47.9977  -29.1883    7.7922 H   0  0  0  0  0  0  0  0  0  0  0  0
  -45.0701  -27.0736   -0.0536 H   0  0  0  0  0  0  0  0  0  0  0  0
  -46.0742  -29.9757    2.5725 H   0  0  0  0  0  0  0  0  0  0  0  0
  1  2  1  0  0  0  0
  1  5  2  0  0  0  0
  2  8  2  0  0  0  0
  3  7  2  0  0  0  0
  3  8  1  0  0  0  0
  4 16  1  0  0  0  0
  4 17  2  0  0  0  0
  5  6  1  0  0  0  0
  5  7  1  0  0  0  0
  6  9  1  0  0  0  0
  6 10  2  0  0  0  0
  7 18  1  0  0  0  0
  8 22  1  0  0  0  0
  9 16  2  0  0  0  0
  9 18  1  0  0  0  0
 10 17  1  0  0  0  0
 10 20  1  0  0  0  0
 11 15  1  0  0  0  0
 11 19  1  0  0  0  0
 11 21  2  0  0  0  0
 12 13  1  0  0  0  0
 12 14  1  0  0  0  0
 13 15  1  0  0  0  0
 14 19  1  0  0  0  0
 15 20  1  0  0  0  0
  1 23  1  0  0  0  0
  2 24  1  0  0  0  0
  3 25  1  0  0  0  0
  4 26  1  0  0  0  0
 12 27  1  0  0  0  0
 12 28  1  0  0  0  0
 13 29  1  0  0  0  0
 13 30  1  0  0  0  0
 14 31  1  0  0  0  0
 14 32  1  0  0  0  0
 15 33  1  0  0  0  0
 18 34  1  0  0  0  0
 19 35  1  0  0  0  0
 20 36  1  0  0  0  0
M  END
> <POSIT::Probability>
0.94

> <POSIT::Method>
SHAPEFIT

> <ReceptorTitle>
UCSF-P4473-REFINED_LIGAND-BOUND-STATE_AALTB__DU__LA1_A-201(A)

> <OMEGA_C>
OAZCwvPC6MEqgFNAOqhHwpTM58HsL1BA1R9Iwk3k58ERmbZA928wwuJ768E0/cZASpQ/wvFD6cF6
W5JAQvA5wpcB6sEtpJ5AX4lCwrDg6MHmTLhAZ69Kwu9Q58Hmao5Ac7k5wp8m6sH+LMtABjc1wmuj
6sG4SYZAJM0vwkBm48HHEYY/YLM3wiIV88GI7E8+P50ywnBk9sH+RX0/WN02wnh+6MG+oxW/eN0w
wu0w7cHFsPQ/P/U0wgff6sHJFN9A2H0wwkth68EOZ5tA5fQ+wsyC6cFRcNpAm6gzwhpb4MGw1AM+
DGk1wjSd6sHODzRAXLcrwu4d3sGhFpg/qEJSwpe55cF+OYxAQqs/wpYZ6cHnnhlANqlJwjVu58Ei
BhNA9HBKwquT58FtvdNAeaEswn4U7MGfJ9dA2rc4wrd7+cED+AG/0wM7wvH98cFp4mk/eH0zwh2G
/cFcOMw/CmAvwvM3+MEnuo8+1dI0wjto6sGAvcO/vNE6wqoL5cHL+0y/0kUtwkxu78Fb1R5AqP0/
wraB6cHCWflAvEc0wr+W2MHMklu9AEw4wk/O78GLoyRA

> <OMEGA_E>
wNiHPg==

> <OMEGA_NBR>
      3671

$$$$
CACHE3-HO_1718_17
  -OEChem-03092622503D

 36 39  0     1  0  0  0  0  0999 V2000
  -48.4864  -29.0479    3.2987 C   0  0  0  0  0  0  0  0  0  0  0  0
  -49.8973  -28.9698    3.2367 C   0  0  0  0  0  0  0  0  0  0  0  0
  -50.0334  -29.0062    5.6886 C   0  0  0  0  0  0  0  0  0  0  0  0
  -44.1157  -29.4812    6.2405 C   0  0  0  0  0  0  0  0  0  0  0  0
  -47.8838  -29.1183    4.5711 C   0  0  0  0  0  0  0  0  0  0  0  0
  -46.4767  -29.2282    4.9639 C   0  0  0  0  0  0  0  0  0  0  0  0
  -48.6336  -29.0972    5.7514 C   0  0  0  0  0  0  0  0  0  0  0  0
  -50.6669  -28.9519    4.4280 C   0  0  0  0  0  0  0  0  0  0  0  0
  -46.4353  -29.2768    6.3554 C   0  0  0  0  0  0  0  0  0  0  0  0
  -45.2899  -29.3098    4.2110 C   0  0  0  0  0  0  0  0  0  0  0  0
  -43.9414  -28.4313    1.0104 C   0  0  0  0  0  0  0  0  0  0  0  0
  -45.9407  -30.4209    0.2840 C   0  0  0  0  0  0  0  0  0  0  0  0
  -44.6497  -30.8015    1.0548 C   0  0  0  0  0  0  0  0  0  0  0  0
  -45.7690  -29.1137   -0.5423 C   0  0  0  0  0  0  0  0  0  0  0  0
  -44.1989  -29.6177    1.9263 C   0  0  2  0  0  0  0  0  0  0  0  0
  -45.2507  -29.3988    6.9853 N   0  0  0  0  0  0  0  0  0  0  0  0
  -44.1171  -29.4405    4.8789 N   0  0  0  0  0  0  0  0  0  0  0  0
  -47.7461  -29.1875    6.8238 N   0  0  0  0  0  0  0  0  0  0  0  0
  -44.9231  -28.0816    0.0973 N   0  0  0  0  0  0  0  0  0  0  0  0
  -45.3217  -29.2483    2.8286 N   0  0  0  0  0  0  0  0  0  0  0  0
  -42.9423  -27.7369    1.1483 O   0  0  0  0  0  0  0  0  0  0  0  0
  -52.0162  -28.8894    4.3644 F   0  0  0  0  0  0  0  0  0  0  0  0
  -47.8891  -29.0534    2.3989 H   0  0  0  0  0  0  0  0  0  0  0  0
  -50.3912  -28.9234    2.2773 H   0  0  0  0  0  0  0  0  0  0  0  0
  -50.6195  -28.9780    6.5953 H   0  0  0  0  0  0  0  0  0  0  0  0
  -43.1700  -29.5835    6.7520 H   0  0  0  0  0  0  0  0  0  0  0  0
  -46.1989  -31.2417   -0.4014 H   0  0  0  0  0  0  0  0  0  0  0  0
  -46.7562  -30.2775    1.0081 H   0  0  0  0  0  0  0  0  0  0  0  0
  -44.8501  -31.6724    1.6963 H   0  0  0  0  0  0  0  0  0  0  0  0
  -43.8548  -31.0504    0.3364 H   0  0  0  0  0  0  0  0  0  0  0  0
  -45.3151  -29.3771   -1.5091 H   0  0  0  0  0  0  0  0  0  0  0  0
  -46.7666  -28.6820   -0.7111 H   0  0  0  0  0  0  0  0  0  0  0  0
  -43.2945  -29.8772    2.4962 H   0  0  0  0  0  0  0  0  0  0  0  0
  -48.0110  -29.1882    7.7880 H   0  0  0  0  0  0  0  0  0  0  0  0
  -45.0620  -27.1183   -0.1326 H   0  0  0  0  0  0  0  0  0  0  0  0
  -46.0855  -29.8326    2.5545 H   0  0  0  0  0  0  0  0  0  0  0  0
  1  2  1  0  0  0  0
  1  5  2  0  0  0  0
  2  8  2  0  0  0  0
  3  7  2  0  0  0  0
  3  8  1  0  0  0  0
  4 16  1  0  0  0  0
  4 17  2  0  0  0  0
  5  6  1  0  0  0  0
  5  7  1  0  0  0  0
  6  9  1  0  0  0  0
  6 10  2  0  0  0  0
  7 18  1  0  0  0  0
  8 22  1  0  0  0  0
  9 16  2  0  0  0  0
  9 18  1  0  0  0  0
 10 17  1  0  0  0  0
 10 20  1  0  0  0  0
 11 15  1  0  0  0  0
 11 19  1  0  0  0  0
 11 21  2  0  0  0  0
 12 13  1  0  0  0  0
 12 14  1  0  0  0  0
 13 15  1  0  0  0  0
 14 19  1  0  0  0  0
 15 20  1  0  0  0  0
  1 23  1  0  0  0  0
  2 24  1  0  0  0  0
  3 25  1  0  0  0  0
  4 26  1  0  0  0  0
 12 27  1  0  0  0  0
 12 28  1  0  0  0  0
 13 29  1  0  0  0  0
 13 30  1  0  0  0  0
 14 31  1  0  0  0  0
 14 32  1  0  0  0  0
 15 33  1  0  0  0  0
 18 34  1  0  0  0  0
 19 35  1  0  0  0  0
 20 36  1  0  0  0  0
M  END
> <POSIT::Probability>
0.94

> <POSIT::Method>
SHAPEFIT

> <ReceptorTitle>
UCSF-P4473-REFINED_LIGAND-BOUND-STATE_AALTB__DU__LA1_A-201(A)

> <OMEGA_C>
FPJBwgti6MG9HVNA2pZHwg/C58GOJU9AOCJIwrEM6ME6CbZAdnYwwnLZ68EyssdADIk/wk7y6MG2
RpJAHOg5wlTT6cFG2J5AxohCwiXH6MGqC7hA3KpKwpWd58HasY1AwL05wuk26sGUX8tA3Cg1wn56
6sHAwIZA/sMvwlZz48EvVIE/RsM3wvxd88GEZJE+TJkywoNp9sEXBIc/eBM3wsXo6MEI1gq/qMsw
wvvw7MF9j/Y/uAA1wsow68Gwh99A4ncwwi+G68HAH5xA/Ps+whCA6cFeXNpASrEzwhGn4MHAWcc9
Zkk1wpD86cH9BjVA6MQrwjLl3cEm+pI/mBBQwmod58HCqItAeo4/wlRt6MFnhxlAj5BJwjJj58F+
vxFAYHpKwt/S58HoDNNAFq4swvmq7MFaENhAr8s4wuju+cHSfs2+YQY7wms48sE/CYE/emYzwgph
/cHgHtk/RGsvwkVn+MGhPqw+s0I1wj8E68GJKcG/BRE7wtB05cEhCja/nC0twpQE78ECwR9ATwtA
wlqB6cGRN/lAfz80wlPy2MGXwAe+klc4wj+p7sGFfCNA

> <OMEGA_E>
6JlCPg==

> <OMEGA_NBR>
      4926

$$$$
CACHE3-HO_1718_3
  -OEChem-03092622503D

 39 42  0     1  0  0  0  0  0999 V2000
  -49.8698  -28.8368    3.2193 C   0  0  0  0  0  0  0  0  0  0  0  0
  -50.6605  -28.8544    4.3949 C   0  0  0  0  0  0  0  0  0  0  0  0
  -48.4677  -28.9598    3.3052 C   0  0  0  0  0  0  0  0  0  0  0  0
  -50.0572  -28.9834    5.6680 C   0  0  0  0  0  0  0  0  0  0  0  0
  -44.1458  -29.5108    6.2353 C   0  0  0  0  0  0  0  0  0  0  0  0
  -47.8980  -29.0971    4.5862 C   0  0  0  0  0  0  0  0  0  0  0  0
  -46.5132  -29.2764    4.9823 C   0  0  0  0  0  0  0  0  0  0  0  0
  -48.6601  -29.1054    5.7561 C   0  0  0  0  0  0  0  0  0  0  0  0
  -46.4679  -29.3425    6.3717 C   0  0  0  0  0  0  0  0  0  0  0  0
  -45.3444  -29.3320    4.2172 C   0  0  0  0  0  0  0  0  0  0  0  0
  -45.7164  -29.5622    0.4528 C   0  0  0  0  0  0  0  0  0  0  0  0
  -42.7530  -29.2618    1.7178 C   0  0  0  0  0  0  0  0  0  0  0  0
  -42.9254  -28.2004    0.5987 C   0  0  0  0  0  0  0  0  0  0  0  0
  -43.7272  -30.4728    1.6545 C   0  0  0  0  0  0  0  0  0  0  0  0
  -44.2931  -27.4743    0.5548 C   0  0  0  0  0  0  0  0  0  0  0  0
  -45.2098  -30.0798    1.8094 C   0  0  1  0  0  0  0  0  0  0  0  0
  -45.2764  -29.4588    6.9927 N   0  0  0  0  0  0  0  0  0  0  0  0
  -44.1615  -29.4394    4.8725 N   0  0  0  0  0  0  0  0  0  0  0  0
  -47.7821  -29.2494    6.8362 N   0  0  0  0  0  0  0  0  0  0  0  0
  -45.3421  -28.3183   -0.0394 N   0  0  0  0  0  0  0  0  0  0  0  0
  -45.3793  -29.0444    2.8621 N   0  0  0  0  0  0  0  0  0  0  0  0
  -46.2523  -30.3476   -0.3192 O   0  0  0  0  0  0  0  0  0  0  0  0
  -50.3425  -28.7288    2.2543 H   0  0  0  0  0  0  0  0  0  0  0  0
  -51.7343  -28.7685    4.3183 H   0  0  0  0  0  0  0  0  0  0  0  0
  -47.8512  -28.9491    2.4185 H   0  0  0  0  0  0  0  0  0  0  0  0
  -50.6634  -28.9880    6.5618 H   0  0  0  0  0  0  0  0  0  0  0  0
  -43.1941  -29.6130    6.7355 H   0  0  0  0  0  0  0  0  0  0  0  0
  -41.7257  -29.6509    1.6592 H   0  0  0  0  0  0  0  0  0  0  0  0
  -42.9002  -28.7597    2.6854 H   0  0  0  0  0  0  0  0  0  0  0  0
  -42.1441  -27.4381    0.7348 H   0  0  0  0  0  0  0  0  0  0  0  0
  -42.7812  -28.7047   -0.3682 H   0  0  0  0  0  0  0  0  0  0  0  0
  -43.5993  -30.9718    0.6825 H   0  0  0  0  0  0  0  0  0  0  0  0
  -43.4663  -31.1719    2.4627 H   0  0  0  0  0  0  0  0  0  0  0  0
  -44.5882  -27.2090    1.5807 H   0  0  0  0  0  0  0  0  0  0  0  0
  -44.1906  -26.5583   -0.0457 H   0  0  0  0  0  0  0  0  0  0  0  0
  -45.7853  -30.9764    2.0827 H   0  0  0  0  0  0  0  0  0  0  0  0
  -48.0549  -29.2809    7.7977 H   0  0  0  0  0  0  0  0  0  0  0  0
  -45.8162  -27.9741   -0.8498 H   0  0  0  0  0  0  0  0  0  0  0  0
  -46.2702  -28.6230    2.6929 H   0  0  0  0  0  0  0  0  0  0  0  0
  1  2  1  0  0  0  0
  1  3  2  0  0  0  0
  2  4  2  0  0  0  0
  3  6  1  0  0  0  0
  4  8  1  0  0  0  0
  5 17  1  0  0  0  0
  5 18  2  0  0  0  0
  6  7  1  0  0  0  0
  6  8  2  0  0  0  0
  7  9  1  0  0  0  0
  7 10  2  0  0  0  0
  8 19  1  0  0  0  0
  9 17  2  0  0  0  0
  9 19  1  0  0  0  0
 10 18  1  0  0  0  0
 10 21  1  0  0  0  0
 11 16  1  0  0  0  0
 11 20  1  0  0  0  0
 11 22  2  0  0  0  0
 12 13  1  0  0  0  0
 12 14  1  0  0  0  0
 13 15  1  0  0  0  0
 14 16  1  0  0  0  0
 15 20  1  0  0  0  0
 16 21  1  0  0  0  0
  1 23  1  0  0  0  0
  2 24  1  0  0  0  0
  3 25  1  0  0  0  0
  4 26  1  0  0  0  0
  5 27  1  0  0  0  0
 12 28  1  0  0  0  0
 12 29  1  0  0  0  0
 13 30  1  0  0  0  0
 13 31  1  0  0  0  0
 14 32  1  0  0  0  0
 14 33  1  0  0  0  0
 15 34  1  0  0  0  0
 15 35  1  0  0  0  0
 16 36  1  0  0  0  0
 19 37  1  0  0  0  0
 20 38  1  0  0  0  0
 21 39  1  0  0  0  0
M  END
> <POSIT::Probability>
0.91

> <POSIT::Method>
SHAPEFIT

> <ReceptorTitle>
UCSF-P4473-REFINED_LIGAND-BOUND-STATE_AALTB__DU__LA1_A-201(A)

> <OMEGA_C>
r3pHws+x5sGfCU5AV6RKws/V5sHJooxA495Bwr6t58FfiFNAjjpIwvrd58EFYLVAUpUwwgkW7MGN
h8dAlJc/wvDG6MEiwpJAkA06wv016sHfbp9A5qNCwuTX6MEaMrhALt85wnu96sH45MtAtWA1wvOn
6sFL84ZAnN02wmt/7MHQ2Oc+BgMrwicY6sHA4Ns/obMrwmua4cGAQRk/n+guwl3I88G4xdM/GSwx
wkTL28FABw4/ytY0wlSj8MHUmuc/Dxs1wo+r68EzxN9AZqUwwvWD68Gw65tA5CA/wrT+6cHlwdpA
W141wvGL4sEANyG9X4Q1wt5a6MFVLTdAVgI5wu3H8sEAaKO+wF5Jwq/U5cGcRhBA9+9Owtol5sGF
L4pAmGc/wtaX58HeyBpAT6dKwnbn58Ec+tFAycYswnbn7MFbiddAKecmwgw17cE3YdQ/2ZkrwvIT
5sGC3StAk5Mowk+B28F9GTw/9x8rwjGj5cH9iry+omUuwk7G98FFuy4/c90twg1g+cHgnB1AW1oy
wgGs2cHjVMo/McMwwnV31MHzKTu9KCQ3wsLP98GwSgVAQThAwj0/6sHqhvlAw0M3wgHL38GTjFm/
thQ5wtz75MEmWSxA

> <OMEGA_E>
nMH0Pg==

> <OMEGA_NBR>
      6240

$$$$
CACHE3-HO_1718_4
  -OEChem-03092622503D

 36 39  0     1  0  0  0  0  0999 V2000
  -50.0397  -29.0018    5.7033 C   0  0  0  0  0  0  0  0  0  0  0  0
  -50.6803  -28.9646    4.4468 C   0  0  0  0  0  0  0  0  0  0  0  0
  -48.5083  -29.0799    3.3026 C   0  0  0  0  0  0  0  0  0  0  0  0
  -44.1174  -29.4693    6.2286 C   0  0  0  0  0  0  0  0  0  0  0  0
  -47.8957  -29.1281    4.5717 C   0  0  0  0  0  0  0  0  0  0  0  0
  -46.4848  -29.2338    4.9579 C   0  0  0  0  0  0  0  0  0  0  0  0
  -48.6388  -29.0945    5.7568 C   0  0  0  0  0  0  0  0  0  0  0  0
  -49.9217  -29.0083    3.2522 C   0  0  0  0  0  0  0  0  0  0  0  0
  -46.4368  -29.2679    6.3499 C   0  0  0  0  0  0  0  0  0  0  0  0
  -45.2995  -29.3204    4.2018 C   0  0  0  0  0  0  0  0  0  0  0  0
  -43.9353  -28.4296    1.0209 C   0  0  0  0  0  0  0  0  0  0  0  0
  -45.9345  -30.4149    0.2698 C   0  0  0  0  0  0  0  0  0  0  0  0
  -44.6365  -30.7962    1.0279 C   0  0  0  0  0  0  0  0  0  0  0  0
  -45.7942  -29.0799   -0.5197 C   0  0  0  0  0  0  0  0  0  0  0  0
  -44.1988  -29.6251    1.9209 C   0  0  2  0  0  0  0  0  0  0  0  0
  -45.2496  -29.3811    6.9764 N   0  0  0  0  0  0  0  0  0  0  0  0
  -44.1242  -29.4427    4.8670 N   0  0  0  0  0  0  0  0  0  0  0  0
  -47.7451  -29.1765    6.8242 N   0  0  0  0  0  0  0  0  0  0  0  0
  -44.9099  -28.0691    0.1042 N   0  0  0  0  0  0  0  0  0  0  0  0
  -45.3320  -29.2719    2.8190 N   0  0  0  0  0  0  0  0  0  0  0  0
  -42.9290  -27.7466    1.1630 O   0  0  0  0  0  0  0  0  0  0  0  0
  -50.8252  -28.9832    1.5743 Br  0  0  0  0  0  0  0  0  0  0  0  0
  -50.6194  -28.9595    6.6135 H   0  0  0  0  0  0  0  0  0  0  0  0
  -51.7573  -28.9022    4.3959 H   0  0  0  0  0  0  0  0  0  0  0  0
  -47.9185  -29.0971    2.3980 H   0  0  0  0  0  0  0  0  0  0  0  0
  -43.1697  -29.5647    6.7375 H   0  0  0  0  0  0  0  0  0  0  0  0
  -46.1783  -31.2200   -0.4390 H   0  0  0  0  0  0  0  0  0  0  0  0
  -46.7508  -30.3091    0.9994 H   0  0  0  0  0  0  0  0  0  0  0  0
  -44.8238  -31.6825    1.6519 H   0  0  0  0  0  0  0  0  0  0  0  0
  -43.8409  -31.0204    0.3020 H   0  0  0  0  0  0  0  0  0  0  0  0
  -45.3928  -29.3145   -1.5166 H   0  0  0  0  0  0  0  0  0  0  0  0
  -46.7964  -28.6383   -0.6227 H   0  0  0  0  0  0  0  0  0  0  0  0
  -43.2991  -29.8900    2.4957 H   0  0  0  0  0  0  0  0  0  0  0  0
  -48.0048  -29.1707    7.7899 H   0  0  0  0  0  0  0  0  0  0  0  0
  -45.0184  -27.1058   -0.1412 H   0  0  0  0  0  0  0  0  0  0  0  0
  -46.0825  -29.8753    2.5496 H   0  0  0  0  0  0  0  0  0  0  0  0
  1  2  1  0  0  0  0
  1  7  2  0  0  0  0
  2  8  2  0  0  0  0
  3  5  2  0  0  0  0
  3  8  1  0  0  0  0
  4 16  1  0  0  0  0
  4 17  2  0  0  0  0
  5  6  1  0  0  0  0
  5  7  1  0  0  0  0
  6  9  1  0  0  0  0
  6 10  2  0  0  0  0
  7 18  1  0  0  0  0
  8 22  1  0  0  0  0
  9 16  2  0  0  0  0
  9 18  1  0  0  0  0
 10 17  1  0  0  0  0
 10 20  1  0  0  0  0
 11 15  1  0  0  0  0
 11 19  1  0  0  0  0
 11 21  2  0  0  0  0
 12 13  1  0  0  0  0
 12 14  1  0  0  0  0
 13 15  1  0  0  0  0
 14 19  1  0  0  0  0
 15 20  1  0  0  0  0
  1 23  1  0  0  0  0
  2 24  1  0  0  0  0
  3 25  1  0  0  0  0
  4 26  1  0  0  0  0
 12 27  1  0  0  0  0
 12 28  1  0  0  0  0
 13 29  1  0  0  0  0
 13 30  1  0  0  0  0
 14 31  1  0  0  0  0
 14 32  1  0  0  0  0
 15 33  1  0  0  0  0
 18 34  1  0  0  0  0
 19 35  1  0  0  0  0
 20 36  1  0  0  0  0
M  END
> <POSIT::Probability>
0.94

> <POSIT::Method>
SHAPEFIT

> <ReceptorTitle>
UCSF-P4473-REFINED_LIGAND-BOUND-STATE_AALTB__DU__LA1_A-201(A)

> <OMEGA_C>
myhIwroD6MEugbZAmLhKwmy358EmTI5AhQhCwrSj6MFkXVNAPHgwwg3B68FPUMdAN5U/wmoG6cGH
S5JAcPA5wuje6cH2pp5AIo5CwqLB6MGKN7hAyq9HwggR6MFAJFBAUb85wpEk6sEcMstApDI1wiqQ
6sHYdIZAxL0vwtdv48E6rYI/4bw3wspR88HeJoo+u4sywqhe9sGgkYM/Ry03wpaj6MFTDgW/kcsw
wkkA7cH44PU/k/80wm4M68GEPt9AJH8wwrqK68FUvptAAfs+wodp6cHZX9pAxKMzwpCN4MEAdtU9
9FM1wsYs6sEMajRAULcrwgj53cEc3ZQ/9UxLwn/d58E+gck/T3pKwiet58GDodNAcAdPwrc358Hr
qoxAlaw/wtbG6MHJeBlAu60swn+E7MHCmddAk7Y4wnzC+cHyx+C+1wA7wgR58sF7238/j0szwrt1
/cF/ctM/G10vwr8p+MEyopo+MJI1wguE6sFlIcK/jC87wkcb5cErZx+/RTItwrYe78HguR9A5QRA
wotd6cG5RvlA4xI0wq7Y2MHJlhC+gVQ4wpQA78EoLCNA

> <OMEGA_E>
SBiVPg==

> <OMEGA_NBR>
      7494

$$$$
CACHE3-HO_1718_5
  -OEChem-03092622503D

 33 36  0     1  0  0  0  0  0999 V2000
  -50.0381  -28.9219    5.7397 C   0  0  0  0  0  0  0  0  0  0  0  0
  -50.6777  -28.8023    4.4873 C   0  0  0  0  0  0  0  0  0  0  0  0
  -48.5140  -28.9497    3.3320 C   0  0  0  0  0  0  0  0  0  0  0  0
  -44.1284  -29.5724    6.2107 C   0  0  0  0  0  0  0  0  0  0  0  0
  -47.9021  -29.0576    4.5983 C   0  0  0  0  0  0  0  0  0  0  0  0
  -46.4954  -29.2082    4.9744 C   0  0  0  0  0  0  0  0  0  0  0  0
  -48.6404  -29.0558    5.7863 C   0  0  0  0  0  0  0  0  0  0  0  0
  -49.9231  -28.8216    3.2893 C   0  0  0  0  0  0  0  0  0  0  0  0
  -46.4408  -29.3103    6.3620 C   0  0  0  0  0  0  0  0  0  0  0  0
  -45.3212  -29.2834    4.2050 C   0  0  0  0  0  0  0  0  0  0  0  0
  -43.9718  -28.4004    0.9760 C   0  0  0  0  0  0  0  0  0  0  0  0
  -44.9125  -30.5928    0.9435 C   0  0  0  0  0  0  0  0  0  0  0  0
  -45.6573  -29.6948   -0.0350 C   0  0  0  0  0  0  0  0  0  0  0  0
  -44.3127  -29.5735    1.8910 C   0  0  2  0  0  0  0  0  0  0  0  0
  -45.2523  -29.4852    6.9727 N   0  0  0  0  0  0  0  0  0  0  0  0
  -44.1440  -29.4763    4.8510 N   0  0  0  0  0  0  0  0  0  0  0  0
  -47.7452  -29.2075    6.8463 N   0  0  0  0  0  0  0  0  0  0  0  0
  -44.8056  -28.4973   -0.1418 N   0  0  0  0  0  0  0  0  0  0  0  0
  -45.3720  -29.1373    2.8296 N   0  0  0  0  0  0  0  0  0  0  0  0
  -43.2017  -27.4824    1.2279 O   0  0  0  0  0  0  0  0  0  0  0  0
  -50.8269  -28.6924    1.6164 Br  0  0  0  0  0  0  0  0  0  0  0  0
  -50.6164  -28.9107    6.6517 H   0  0  0  0  0  0  0  0  0  0  0  0
  -51.7514  -28.6952    4.4423 H   0  0  0  0  0  0  0  0  0  0  0  0
  -47.9272  -28.9643    2.4254 H   0  0  0  0  0  0  0  0  0  0  0  0
  -43.1807  -29.7247    6.7057 H   0  0  0  0  0  0  0  0  0  0  0  0
  -45.5996  -31.2733    1.4676 H   0  0  0  0  0  0  0  0  0  0  0  0
  -44.1316  -31.1788    0.4367 H   0  0  0  0  0  0  0  0  0  0  0  0
  -45.7642  -30.1867   -1.0131 H   0  0  0  0  0  0  0  0  0  0  0  0
  -46.6523  -29.4332    0.3545 H   0  0  0  0  0  0  0  0  0  0  0  0
  -43.4233  -29.9628    2.4081 H   0  0  0  0  0  0  0  0  0  0  0  0
  -48.0014  -29.2381    7.8125 H   0  0  0  0  0  0  0  0  0  0  0  0
  -44.8218  -27.8486   -0.9026 H   0  0  0  0  0  0  0  0  0  0  0  0
  -46.1996  -29.6184    2.5405 H   0  0  0  0  0  0  0  0  0  0  0  0
  1  2  1  0  0  0  0
  1  7  2  0  0  0  0
  2  8  2  0  0  0  0
  3  5  2  0  0  0  0
  3  8  1  0  0  0  0
  4 15  1  0  0  0  0
  4 16  2  0  0  0  0
  5  6  1  0  0  0  0
  5  7  1  0  0  0  0
  6  9  1  0  0  0  0
  6 10  2  0  0  0  0
  7 17  1  0  0  0  0
  8 21  1  0  0  0  0
  9 15  2  0  0  0  0
  9 17  1  0  0  0  0
 10 16  1  0  0  0  0
 10 19  1  0  0  0  0
 11 14  1  0  0  0  0
 11 18  1  0  0  0  0
 11 20  2  0  0  0  0
 12 13  1  0  0  0  0
 12 14  1  0  0  0  0
 13 18  1  0  0  0  0
 14 19  1  0  0  0  0
  1 22  1  0  0  0  0
  2 23  1  0  0  0  0
  3 24  1  0  0  0  0
  4 25  1  0  0  0  0
 12 26  1  0  0  0  0
 12 27  1  0  0  0  0
 13 28  1  0  0  0  0
 13 29  1  0  0  0  0
 14 30  1  0  0  0  0
 17 31  1  0  0  0  0
 18 32  1  0  0  0  0
 19 33  1  0  0  0  0
M  END
> <POSIT::Probability>
0.91

> <POSIT::Method>
SHAPEFIT

> <ReceptorTitle>
UCSF-P4473-REFINED_LIGAND-BOUND-STATE_AALTB__DU__LA1_A-201(A)

> <OMEGA_C>
ACdIwg1g58HOq7dA+LVKwhZr5sEumI9AVQ5Cwu6Y58GxPlVAf4Mwwj2U7MHIvcZAuZs/wvN16MFU
JZNAQvs5wn6q6cFELp9AxY9Cwi5y6ME6KblANrFHwo2S5sEEhFJAX8M5wmh76sG2lctA4Ug1wnJE
6sF+j4ZAFuMvwhY048Fu2Xk/YKYzwvS99MHIhnE/IKE2wu2O7cHAVw+9MEAxwpqW7MH7DPI/YgI1
wrvh68FaIN9AfJMwwnDP68GgO5tAEPs+wu6o6cEsFdtA+zgzwmX648HAKxG++nw1whoZ6cGLGDVA
ls4swt/b28GtKp0/xE5Lwv+J5cHj5s4/O3dKwghJ58EW29RAeQFPwsGP5cGPJ45AbLU/wuS258Hf
ORtAB7kswhfM7cHrlNZABmY2wq8v+sFg2bs/xoYwwjNu+cEGmd8+jg43wlN+8cEirIG/6Js6wht3
68HvgbU+crEtwuaz78H/HhpAfAFAwpnn6cGi//lAfEkzwtrJ3sFrE2e/bsw4wm3y7MHCliJA

> <OMEGA_E>
iCLWPg==

> <OMEGA_NBR>
      8688

$$$$
CACHE3HI_1687_13
  -OEChem-03092622503D

 29 31  0     0  0  0  0  0  0999 V2000
  -47.7398  -28.8556    3.6745 C   0  0  0  0  0  0  0  0  0  0  0  0
  -49.2161  -30.7491    3.9438 C   0  0  0  0  0  0  0  0  0  0  0  0
  -47.3670  -29.3261    2.4154 C   0  0  0  0  0  0  0  0  0  0  0  0
  -48.8433  -31.2197    2.6848 C   0  0  0  0  0  0  0  0  0  0  0  0
  -44.3097  -30.4510    0.9983 C   0  0  0  0  0  0  0  0  0  0  0  0
  -42.3148  -28.9328    1.7675 C   0  0  0  0  0  0  0  0  0  0  0  0
  -44.6738  -32.1034    2.6989 C   0  0  0  0  0  0  0  0  0  0  0  0
  -43.2730  -29.9653    1.8043 C   0  0  0  0  0  0  0  0  0  0  0  0
  -45.0234  -31.5529    1.4710 C   0  0  0  0  0  0  0  0  0  0  0  0
  -48.6645  -29.5672    4.4386 C   0  0  0  0  0  0  0  0  0  0  0  0
  -47.9185  -30.5081    1.9206 C   0  0  0  0  0  0  0  0  0  0  0  0
  -43.0299  -30.6087    3.0077 C   0  0  0  0  0  0  0  0  0  0  0  0
  -43.6818  -31.6706    3.5136 N   0  0  0  0  0  0  0  0  0  0  0  0
  -41.5294  -28.9168    2.8498 N   0  0  0  0  0  0  0  0  0  0  0  0
  -41.9870  -29.9459    3.5845 N   0  0  0  0  0  0  0  0  0  0  0  0
  -46.0928  -32.1051    0.7063 N   0  0  0  0  0  0  0  0  0  0  0  0
  -46.9838  -29.9567   -0.4356 O   0  0  0  0  0  0  0  0  0  0  0  0
  -48.5321  -31.9170   -0.1873 O   0  0  0  0  0  0  0  0  0  0  0  0
  -49.0214  -29.1165    5.6485 F   0  0  0  0  0  0  0  0  0  0  0  0
  -47.4441  -31.1054    0.3231 S   0  0  0  0  0  0  0  0  0  0  0  0
  -47.3098  -27.9361    4.0600 H   0  0  0  0  0  0  0  0  0  0  0  0
  -49.9350  -31.3037    4.5399 H   0  0  0  0  0  0  0  0  0  0  0  0
  -46.6452  -28.7642    1.8287 H   0  0  0  0  0  0  0  0  0  0  0  0
  -49.2784  -32.1420    2.3094 H   0  0  0  0  0  0  0  0  0  0  0  0
  -44.5467  -29.9880    0.0456 H   0  0  0  0  0  0  0  0  0  0  0  0
  -42.1544  -28.1905    0.9986 H   0  0  0  0  0  0  0  0  0  0  0  0
  -45.2162  -32.9622    3.0879 H   0  0  0  0  0  0  0  0  0  0  0  0
  -41.5410  -30.1393    4.4725 H   0  0  0  0  0  0  0  0  0  0  0  0
  -46.3183  -33.0932    0.9085 H   0  0  0  0  0  0  0  0  0  0  0  0
  1  3  1  0  0  0  0
  1 10  2  0  0  0  0
  2  4  2  0  0  0  0
  2 10  1  0  0  0  0
  3 11  2  0  0  0  0
  4 11  1  0  0  0  0
  5  8  2  0  0  0  0
  5  9  1  0  0  0  0
  6  8  1  0  0  0  0
  6 14  2  0  0  0  0
  7  9  2  0  0  0  0
  7 13  1  0  0  0  0
  8 12  1  0  0  0  0
  9 16  1  0  0  0  0
 10 19  1  0  0  0  0
 11 20  1  0  0  0  0
 12 13  2  0  0  0  0
 12 15  1  0  0  0  0
 14 15  1  0  0  0  0
 16 20  1  0  0  0  0
 17 20  2  0  0  0  0
 18 20  2  0  0  0  0
  1 21  1  0  0  0  0
  2 22  1  0  0  0  0
  3 23  1  0  0  0  0
  4 24  1  0  0  0  0
  5 25  1  0  0  0  0
  6 26  1  0  0  0  0
  7 27  1  0  0  0  0
 15 28  1  0  0  0  0
 16 29  1  0  0  0  0
M  END
> <POSIT::Probability>
0.24

> <POSIT::Method>
FRED

> <ReceptorTitle>
UCSF-P4473_LA2_MERGED(A)

> <OMEGA_C>
gvU+wj7Y5sEgK2tAR91EwjD+9cHgZ3xAxnc9wu6b6sEilhpAlF9DwuTB+cGu0ytAHj0xwrGb88HA
kn8/W0IpwlZ258GQPuI/BLIywu5pAMIsuyxAihctwvq478Gk9OY/9xc0wmFs/MHkSLw/eahCwpaJ
7ME2CY5Ak6w/woYQ9MEw1/U/mR4swore9MGwfkBAKrouwm5d/cGQ3mBAGB4mwppV58HwYzZAtPIn
wj2R78HuaGVADV84wqVrAMKozzQ/Ye87wmGn78GwDN++5yBCwh1W/8Ggzz++4hVEwqHu6MHlwLRA
vsY9wunX+MHwaaU+PT09whh938Gn64FAbr1Hwv9t+sGaRpFApZQ6wgsd5sEAFOo/DB1FwmORAMLo
zBNA2i8ywnjn78GA2Do9HZ4owh+G4cHIpn8/aN00wlbZA8LUoEVA7ykmwj4d8cGCHo9A80U5wmdf
BMJAk2g/

> <OMEGA_E>
hgUZwQ==

> <OMEGA_NBR>
      9691

$$$$
CACHE3HI_1687_48
  -OEChem-03092622503D

 45 47  0     1  0  0  0  0  0999 V2000
  -50.6611  -29.4619    3.8513 C   0  0  0  0  0  0  0  0  0  0  0  0
  -50.7215  -29.2080    5.2217 C   0  0  0  0  0  0  0  0  0  0  0  0
  -49.4297  -29.4931    3.1969 C   0  0  0  0  0  0  0  0  0  0  0  0
  -49.5473  -28.9889    5.9431 C   0  0  0  0  0  0  0  0  0  0  0  0
  -48.2465  -29.2885    3.9155 C   0  0  0  0  0  0  0  0  0  0  0  0
  -48.3129  -29.0394    5.2918 C   0  0  0  0  0  0  0  0  0  0  0  0
  -45.8606  -28.9800    5.5156 C   0  0  0  0  0  0  0  0  0  0  0  0
  -46.9170  -29.2230    3.2181 C   0  0  0  0  0  0  0  0  0  0  0  0
  -44.1287  -33.1214   -0.3173 C   0  0  0  0  0  0  0  0  0  0  0  0
  -43.3451  -31.8535    0.0739 C   0  0  0  0  0  0  0  0  0  0  0  0
  -45.4257  -32.3671    0.0351 C   0  0  0  0  0  0  0  0  0  0  0  0
  -45.8001  -29.6678    4.1547 C   0  0  1  0  0  0  0  0  0  0  0  0
  -44.5736  -31.4127    0.9232 C   0  0  0  0  0  0  0  0  0  0  0  0
  -43.8928  -27.8341    0.6776 C   0  0  0  0  0  0  0  0  0  0  0  0
  -44.9351  -29.9386    0.7739 C   0  0  0  0  0  0  0  0  0  0  0  0
  -44.5000  -31.8206    2.3776 C   0  0  0  0  0  0  0  0  0  0  0  0
  -47.1358  -28.8082    6.0260 N   0  0  0  0  0  0  0  0  0  0  0  0
  -44.5105  -29.4186    3.5678 N   0  0  0  0  0  0  0  0  0  0  0  0
  -44.8516  -28.7038    6.1645 O   0  0  0  0  0  0  0  0  0  0  0  0
  -43.1879  -31.3650    4.5855 O   0  0  0  0  0  0  0  0  0  0  0  0
  -42.3584  -30.3175    2.4467 O   0  0  0  0  0  0  0  0  0  0  0  0
  -43.8307  -29.1581    1.1948 O   0  0  0  0  0  0  0  0  0  0  0  0
  -43.4501  -30.7289    3.3084 S   0  0  0  0  0  0  0  0  0  0  0  0
  -51.5767  -29.6246    3.2902 H   0  0  0  0  0  0  0  0  0  0  0  0
  -51.6828  -29.1762    5.7261 H   0  0  0  0  0  0  0  0  0  0  0  0
  -49.3994  -29.6678    2.1249 H   0  0  0  0  0  0  0  0  0  0  0  0
  -49.6071  -28.7872    7.0093 H   0  0  0  0  0  0  0  0  0  0  0  0
  -46.9192  -29.8598    2.3248 H   0  0  0  0  0  0  0  0  0  0  0  0
  -46.7572  -28.1901    2.8822 H   0  0  0  0  0  0  0  0  0  0  0  0
  -44.0322  -33.4338   -1.3604 H   0  0  0  0  0  0  0  0  0  0  0  0
  -43.9279  -33.9832    0.3288 H   0  0  0  0  0  0  0  0  0  0  0  0
  -42.4144  -32.0290    0.6211 H   0  0  0  0  0  0  0  0  0  0  0  0
  -43.1266  -31.2033   -0.7819 H   0  0  0  0  0  0  0  0  0  0  0  0
  -45.8918  -31.8858   -0.8331 H   0  0  0  0  0  0  0  0  0  0  0  0
  -46.1865  -32.9603    0.5509 H   0  0  0  0  0  0  0  0  0  0  0  0
  -45.8985  -30.7587    4.3574 H   0  0  0  0  0  0  0  0  0  0  0  0
  -43.0259  -27.2653    1.0238 H   0  0  0  0  0  0  0  0  0  0  0  0
  -43.8847  -27.8780   -0.4142 H   0  0  0  0  0  0  0  0  0  0  0  0
  -44.8147  -27.3538    1.0135 H   0  0  0  0  0  0  0  0  0  0  0  0
  -45.8000  -29.7023    1.3938 H   0  0  0  0  0  0  0  0  0  0  0  0
  -45.1581  -29.7128   -0.2695 H   0  0  0  0  0  0  0  0  0  0  0  0
  -44.0893  -32.8284    2.4807 H   0  0  0  0  0  0  0  0  0  0  0  0
  -45.4892  -31.7917    2.8432 H   0  0  0  0  0  0  0  0  0  0  0  0
  -47.2315  -28.4869    6.9853 H   0  0  0  0  0  0  0  0  0  0  0  0
  -44.5139  -28.6730    2.8617 H   0  0  0  0  0  0  0  0  0  0  0  0
  1  2  1  0  0  0  0
  1  3  2  0  0  0  0
  2  4  2  0  0  0  0
  3  5  1  0  0  0  0
  4  6  1  0  0  0  0
  5  6  2  0  0  0  0
  5  8  1  0  0  0  0
  6 17  1  0  0  0  0
  7 12  1  0  0  0  0
  7 17  1  0  0  0  0
  7 19  2  0  0  0  0
  8 12  1  0  0  0  0
  9 10  1  0  0  0  0
  9 11  1  0  0  0  0
 10 13  1  0  0  0  0
 11 13  1  0  0  0  0
 12 18  1  0  0  0  0
 13 15  1  0  0  0  0
 13 16  1  0  0  0  0
 14 22  1  0  0  0  0
 15 22  1  0  0  0  0
 16 23  1  0  0  0  0
 18 23  1  0  0  0  0
 20 23  2  0  0  0  0
 21 23  2  0  0  0  0
  1 24  1  0  0  0  0
  2 25  1  0  0  0  0
  3 26  1  0  0  0  0
  4 27  1  0  0  0  0
  8 28  1  0  0  0  0
  8 29  1  0  0  0  0
  9 30  1  0  0  0  0
  9 31  1  0  0  0  0
 10 32  1  0  0  0  0
 10 33  1  0  0  0  0
 11 34  1  0  0  0  0
 11 35  1  0  0  0  0
 12 36  1  0  0  0  0
 14 37  1  0  0  0  0
 14 38  1  0  0  0  0
 14 39  1  0  0  0  0
 15 40  1  0  0  0  0
 15 41  1  0  0  0  0
 16 42  1  0  0  0  0
 16 43  1  0  0  0  0
 17 44  1  0  0  0  0
 18 45  1  0  0  0  0
M  END
> <POSIT::Probability>
0.19

> <POSIT::Method>
FRED

> <ReceptorTitle>
UCSF-P4473-REFINED_LIGAND-BOUND-STATE_AALTB__DU__LA1_A-201(A)

> <OMEGA_C>
7aRKwvyx68HIe3ZA0eJKwg+q6cHTF6dA+rdFwubx68GsmkxAdzBGwlDp58HMLb5AYfxAwt9O6sGj
l3pAakBBwqxQ6MGjVqlASXE3wgvX58Gif7BAAKs7wqvI6cGs9U1Ax4MwwkZ8BMJAe6K+ZmEtwgfU
/sFAZpc977M1wvJ3AcIA0w89VDM3wo9X7cFI84RAW0sywipN+8GoVGw/QJIvwjqs3sHodS0/jb0z
wjSC78GQHUY/CgAywqqQ/sFUKxhAGos8wjJ35sHR1MBAuwoywjlZ68GGVmRAAGgzwmmh5cHDQ8VA
XMAswpDr+sE6vJJAC28pwiqK8sGAlhxAmFIvwslD6cGU75g/9Mwtws7U9cFavVNAj05Owjz/7MGi
klJAKLtOwtRo6cGHPLdA95hFwrZX7cEW/wdApm1GwiJM5sGXTOBAS607wtvg7sG4yBRAZgc7wlGF
4cGkdThA8CAwwiu8BcJQIa6/N7YvwtTuB8JgVag+XqgpwrIdAMKY/h4/noEswmig+cFIKki/OJE3
wi0W/8HgSFW/8L44wmPXA8IoBg0/Cpg3wuIR9sGSb4tAkhoswlQf2sGcCoM/+IkvwhkG38EADtS+
QkIzworU2sEYuoE/MTM3wj6e7cE8Z7I/5KE0wuOz7cHw/Im+cFswwkxQA8LYwx5A8fQ1wlFV/sE0
9zVAFO08wkLl48FPh99ANQ4ywkpi5cEgJjdA

> <OMEGA_E>
xFLowA==

> <OMEGA_NBR>
     11092

$$$$
CACHE3HI_1687_49
  -OEChem-03092622503D

 38 40  0     1  0  0  0  0  0999 V2000
  -50.2029  -28.9424    3.9674 C   0  0  0  0  0  0  0  0  0  0  0  0
  -50.4611  -29.1536    5.3219 C   0  0  0  0  0  0  0  0  0  0  0  0
  -48.8900  -28.8090    3.5157 C   0  0  0  0  0  0  0  0  0  0  0  0
  -49.4041  -29.2367    6.2291 C   0  0  0  0  0  0  0  0  0  0  0  0
  -47.8235  -28.9053    4.4166 C   0  0  0  0  0  0  0  0  0  0  0  0
  -48.0886  -29.1226    5.7742 C   0  0  0  0  0  0  0  0  0  0  0  0
  -45.6943  -29.2474    6.3394 C   0  0  0  0  0  0  0  0  0  0  0  0
  -46.4079  -28.6707    3.9705 C   0  0  0  0  0  0  0  0  0  0  0  0
  -43.4076  -31.9477   -0.1063 C   0  0  0  0  0  0  0  0  0  0  0  0
  -44.5819  -31.0871    0.4037 C   0  0  0  0  0  0  0  0  0  0  0  0
  -42.4840  -31.0869    0.7799 C   0  0  0  0  0  0  0  0  0  0  0  0
  -45.4353  -29.4484    4.8490 C   0  0  1  0  0  0  0  0  0  0  0  0
  -43.5467  -29.9630    0.6659 C   0  0  0  0  0  0  0  0  0  0  0  0
  -43.7675  -29.1112    1.8990 C   0  0  0  0  0  0  0  0  0  0  0  0
  -47.0305  -29.1987    6.6977 N   0  0  0  0  0  0  0  0  0  0  0  0
  -44.0758  -29.0755    4.5617 N   0  0  0  0  0  0  0  0  0  0  0  0
  -44.7905  -29.2455    7.1753 O   0  0  0  0  0  0  0  0  0  0  0  0
  -43.7280  -31.2946    3.3255 O   0  0  0  0  0  0  0  0  0  0  0  0
  -41.7911  -29.6907    3.5141 O   0  0  0  0  0  0  0  0  0  0  0  0
  -43.2128  -29.9393    3.3711 S   0  0  0  0  0  0  0  0  0  0  0  0
  -51.0275  -28.8704    3.2641 H   0  0  0  0  0  0  0  0  0  0  0  0
  -51.4851  -29.2486    5.6711 H   0  0  0  0  0  0  0  0  0  0  0  0
  -48.7049  -28.6206    2.4617 H   0  0  0  0  0  0  0  0  0  0  0  0
  -49.6176  -29.3965    7.2826 H   0  0  0  0  0  0  0  0  0  0  0  0
  -46.2784  -28.9756    2.9245 H   0  0  0  0  0  0  0  0  0  0  0  0
  -46.2064  -27.5929    4.0235 H   0  0  0  0  0  0  0  0  0  0  0  0
  -43.4519  -33.0106    0.1434 H   0  0  0  0  0  0  0  0  0  0  0  0
  -43.2148  -31.8394   -1.1799 H   0  0  0  0  0  0  0  0  0  0  0  0
  -45.3550  -30.8572   -0.3340 H   0  0  0  0  0  0  0  0  0  0  0  0
  -45.0583  -31.4880    1.3060 H   0  0  0  0  0  0  0  0  0  0  0  0
  -42.3509  -31.4873    1.7919 H   0  0  0  0  0  0  0  0  0  0  0  0
  -41.5028  -30.8567    0.3569 H   0  0  0  0  0  0  0  0  0  0  0  0
  -45.5565  -30.5396    4.6607 H   0  0  0  0  0  0  0  0  0  0  0  0
  -43.3879  -29.3331   -0.2207 H   0  0  0  0  0  0  0  0  0  0  0  0
  -44.8290  -28.8882    2.0351 H   0  0  0  0  0  0  0  0  0  0  0  0
  -43.2137  -28.1707    1.8298 H   0  0  0  0  0  0  0  0  0  0  0  0
  -47.2648  -29.2089    7.6864 H   0  0  0  0  0  0  0  0  0  0  0  0
  -43.9011  -28.0656    4.6254 H   0  0  0  0  0  0  0  0  0  0  0  0
  1  2  1  0  0  0  0
  1  3  2  0  0  0  0
  2  4  2  0  0  0  0
  3  5  1  0  0  0  0
  4  6  1  0  0  0  0
  5  6  2  0  0  0  0
  5  8  1  0  0  0  0
  6 15  1  0  0  0  0
  7 12  1  0  0  0  0
  7 15  1  0  0  0  0
  7 17  2  0  0  0  0
  8 12  1  0  0  0  0
  9 10  1  0  0  0  0
  9 11  1  0  0  0  0
 10 13  1  0  0  0  0
 11 13  1  0  0  0  0
 12 16  1  0  0  0  0
 13 14  1  0  0  0  0
 14 20  1  0  0  0  0
 16 20  1  0  0  0  0
 18 20  2  0  0  0  0
 19 20  2  0  0  0  0
  1 21  1  0  0  0  0
  2 22  1  0  0  0  0
  3 23  1  0  0  0  0
  4 24  1  0  0  0  0
  8 25  1  0  0  0  0
  8 26  1  0  0  0  0
  9 27  1  0  0  0  0
  9 28  1  0  0  0  0
 10 29  1  0  0  0  0
 10 30  1  0  0  0  0
 11 31  1  0  0  0  0
 11 32  1  0  0  0  0
 12 33  1  0  0  0  0
 13 34  1  0  0  0  0
 14 35  1  0  0  0  0
 14 36  1  0  0  0  0
 15 37  1  0  0  0  0
 16 38  1  0  0  0  0
M  END
> <POSIT::Probability>
0.25

> <POSIT::Method>
FRED

> <ReceptorTitle>
UCSF-P4473_LA2_MERGED(A)

> <OMEGA_C>
wc9IwhaK58Eg6n1ANdhJwpc66cEqTapAW49Dwu545sFsAWFAy51Fwsfk6cFqVMdATEs/wv4958GS
VI1AsFpAwi/76MGGxrhA/sY2wqD66cEJ3MpAp6E5wq5d5cEyHH5AaqEtwuuU/8GAx9m91FMywney
+MHgrM4+o+8pwvax+MGAqkc/vb01wjyW68EDK5tAzi8uwkC078GoeSo/8hEvwrfj6MHQEfM/Qx88
wu2W6cE0U9ZAok0wwpaa6MGQ+ZFAeikzws/26cGsm+VAcekuwmFb+sFa1VRADConwo6G7cFw5mBA
9dkswriD78GUv1dAHxxMwqL25sE851BAy/BNwhL96cHOebVA0tFCwvb25MFMjR1Ad3hGwgos68Fe
C+lAHx05wvbN58GoKztAUtM4wi++3MHOwIBAws4twtEKBMLA4hI+8dsswi63/sFABpe/gGs1wpfb
9sEABKu+sDs0woHn+8EQLKc/Umcpwu7l+8HUXOU/3wImwnLa9sHQvbY+5zk2wh5R9MFkJJVAQY0t
wkKq6sEgCmK+41Azwgsb58ESPwJA39oswopd4cHwNuo/Lg89ws6r6cHy9vVAsZovwmCG4MGsA5RA

> <OMEGA_E>
KgMIwQ==

> <OMEGA_NBR>
     12279

$$$$
CACHE3HI_1687_50
  -OEChem-03092622503D

 41 43  0     1  0  0  0  0  0999 V2000
  -50.2221  -29.2359    3.2760 C   0  0  0  0  0  0  0  0  0  0  0  0
  -50.6778  -29.1682    4.5927 C   0  0  0  0  0  0  0  0  0  0  0  0
  -48.8547  -29.1962    3.0037 C   0  0  0  0  0  0  0  0  0  0  0  0
  -49.7646  -29.0650    5.6427 C   0  0  0  0  0  0  0  0  0  0  0  0
  -47.9316  -29.1071    4.0516 C   0  0  0  0  0  0  0  0  0  0  0  0
  -48.3947  -29.0447    5.3716 C   0  0  0  0  0  0  0  0  0  0  0  0
  -46.1108  -29.0509    6.2942 C   0  0  0  0  0  0  0  0  0  0  0  0
  -46.4604  -28.9671    3.7794 C   0  0  0  0  0  0  0  0  0  0  0  0
  -42.3314  -30.7479    0.8624 C   0  0  0  0  0  0  0  0  0  0  0  0
  -41.7666  -29.3157    0.9285 C   0  0  0  0  0  0  0  0  0  0  0  0
  -43.6135  -30.1593    0.2417 C   0  0  0  0  0  0  0  0  0  0  0  0
  -45.6468  -29.5498    4.9287 C   0  0  1  0  0  0  0  0  0  0  0  0
  -43.2295  -28.7858    0.8678 C   0  0  0  0  0  0  0  0  0  0  0  0
  -43.4222  -27.6001   -0.0718 C   0  0  0  0  0  0  0  0  0  0  0  0
  -43.8514  -28.5265    2.2218 C   0  0  0  0  0  0  0  0  0  0  0  0
  -47.4826  -28.9313    6.4361 N   0  0  0  0  0  0  0  0  0  0  0  0
  -44.2499  -29.2421    4.7744 N   0  0  0  0  0  0  0  0  0  0  0  0
  -45.3364  -28.8790    7.2357 O   0  0  0  0  0  0  0  0  0  0  0  0
  -44.0593  -31.0250    2.9417 O   0  0  0  0  0  0  0  0  0  0  0  0
  -41.9939  -29.7412    3.6093 O   0  0  0  0  0  0  0  0  0  0  0  0
  -43.4263  -29.7987    3.3886 S   0  0  0  0  0  0  0  0  0  0  0  0
  -50.9349  -29.3085    2.4597 H   0  0  0  0  0  0  0  0  0  0  0  0
  -51.7436  -29.1909    4.8003 H   0  0  0  0  0  0  0  0  0  0  0  0
  -48.5151  -29.2253    1.9720 H   0  0  0  0  0  0  0  0  0  0  0  0
  -50.1315  -29.0079    6.6641 H   0  0  0  0  0  0  0  0  0  0  0  0
  -46.1913  -29.4776    2.8463 H   0  0  0  0  0  0  0  0  0  0  0  0
  -46.2373  -27.9007    3.6439 H   0  0  0  0  0  0  0  0  0  0  0  0
  -41.7773  -31.4459    0.2295 H   0  0  0  0  0  0  0  0  0  0  0  0
  -42.4859  -31.2089    1.8443 H   0  0  0  0  0  0  0  0  0  0  0  0
  -41.2010  -29.0772    1.8338 H   0  0  0  0  0  0  0  0  0  0  0  0
  -41.1522  -29.0565    0.0577 H   0  0  0  0  0  0  0  0  0  0  0  0
  -43.6070  -30.1774   -0.8548 H   0  0  0  0  0  0  0  0  0  0  0  0
  -44.5494  -30.6066    0.5890 H   0  0  0  0  0  0  0  0  0  0  0  0
  -45.7715  -30.6566    4.9476 H   0  0  0  0  0  0  0  0  0  0  0  0
  -44.4648  -27.2848   -0.0630 H   0  0  0  0  0  0  0  0  0  0  0  0
  -43.1450  -27.8819   -1.0870 H   0  0  0  0  0  0  0  0  0  0  0  0
  -42.7966  -26.7666    0.2482 H   0  0  0  0  0  0  0  0  0  0  0  0
  -44.9422  -28.5036    2.1531 H   0  0  0  0  0  0  0  0  0  0  0  0
  -43.5024  -27.5774    2.6380 H   0  0  0  0  0  0  0  0  0  0  0  0
  -47.8563  -28.7409    7.3616 H   0  0  0  0  0  0  0  0  0  0  0  0
  -43.9874  -28.3169    5.1342 H   0  0  0  0  0  0  0  0  0  0  0  0
  1  2  1  0  0  0  0
  1  3  2  0  0  0  0
  2  4  2  0  0  0  0
  3  5  1  0  0  0  0
  4  6  1  0  0  0  0
  5  6  2  0  0  0  0
  5  8  1  0  0  0  0
  6 16  1  0  0  0  0
  7 12  1  0  0  0  0
  7 16  1  0  0  0  0
  7 18  2  0  0  0  0
  8 12  1  0  0  0  0
  9 10  1  0  0  0  0
  9 11  1  0  0  0  0
 10 13  1  0  0  0  0
 11 13  1  0  0  0  0
 12 17  1  0  0  0  0
 13 14  1  0  0  0  0
 13 15  1  0  0  0  0
 15 21  1  0  0  0  0
 17 21  1  0  0  0  0
 19 21  2  0  0  0  0
 20 21  2  0  0  0  0
  1 22  1  0  0  0  0
  2 23  1  0  0  0  0
  3 24  1  0  0  0  0
  4 25  1  0  0  0  0
  8 26  1  0  0  0  0
  8 27  1  0  0  0  0
  9 28  1  0  0  0  0
  9 29  1  0  0  0  0
 10 30  1  0  0  0  0
 10 31  1  0  0  0  0
 11 32  1  0  0  0  0
 11 33  1  0  0  0  0
 12 34  1  0  0  0  0
 14 35  1  0  0  0  0
 14 36  1  0  0  0  0
 14 37  1  0  0  0  0
 15 38  1  0  0  0  0
 15 39  1  0  0  0  0
 16 40  1  0  0  0  0
 17 41  1  0  0  0  0
M  END
> <POSIT::Probability>
0.25

> <POSIT::Method>
FRED

> <ReceptorTitle>
UCSF-P4473_LA2_MERGED(A)

> <OMEGA_C>
buNIwirj6cFFqlFAGbZKwmpY6cGD95JAOGtDwr6R6cFGPEBA6g5HwgiF6MHfkLRA9rk/wkjb6MGT
poFAJZRBwqJb6MEQ5KtAdHE4wjVo6MG9aclActc5wo6858Gf4XFAYVMpwqr79cEgxVw/+hAnwqCG
6sGIsG0/OXQuwidG8cEAjXc+VZY2wvpl7MHqt51ACesswk5J5sEUJ14/TLAtwvDM3MGwI5O92mcv
wlw25MEdMg5AJu49wlpz58FC9M1A7f8wwurv6cGmx5hAgFg1wjgI58GDiudAwjwwwkgz+MHHRDxA
xvknwgfu7cH7/WZAibQtwshj7sF03lhAXb1Lwt136sECbB1AfPlOwgSH6cEBnJlAcQ9CwlXN6cGI
afw/nYZIwiYQ6MFkQNVA8MM4wiLS68FcKjZAAvM4wqo038ESNmlAABwnwjuR+8Hw9mo+mvEpwsqr
+cGkEuw/x80kwiye6MGGuOo/1Jskwrxz6MEgSWw9jm0uwkFr8cG001q/mTIywlna9ME8xxY/ChY3
wsNA9cGUUp5A/dsxwlJH2sEg84C9g5QswiIO38E5IYu/vi8rwgwi1sHALn4+xMQzwlgH5MFszAlA
bgIuwmqe3MFy1ShA4Ww/wmft5cFikutAG/MvwhWJ4sGxS6RA

> <OMEGA_E>
kS0HwQ==

> <OMEGA_NBR>
     13526

$$$$
CACHE3HI_1718_24
  -OEChem-03092622503D

 37 39  0     0  0  0  0  0  0999 V2000
  -50.5066  -30.3212    4.1666 C   0  0  0  0  0  0  0  0  0  0  0  0
  -48.4882  -29.4247    5.0391 C   0  0  0  0  0  0  0  0  0  0  0  0
  -49.1670  -30.0056    3.9831 C   0  0  0  0  0  0  0  0  0  0  0  0
  -51.1291  -30.0312    5.3817 C   0  0  0  0  0  0  0  0  0  0  0  0
  -50.3625  -29.4393    6.3845 C   0  0  0  0  0  0  0  0  0  0  0  0
  -43.8603  -29.0962    0.9958 C   0  0  0  0  0  0  0  0  0  0  0  0
  -44.6115  -30.7487    2.5007 C   0  0  0  0  0  0  0  0  0  0  0  0
  -44.8716  -29.9093    1.3118 C   0  0  0  0  0  0  0  0  0  0  0  0
  -52.3157  -29.2659    7.8815 C   0  0  0  0  0  0  0  0  0  0  0  0
  -42.5066  -29.8838    2.8456 C   0  0  0  0  0  0  0  0  0  0  0  0
  -48.5036  -30.2618    2.7157 C   0  0  0  0  0  0  0  0  0  0  0  0
  -52.5450  -30.4395    5.6551 C   0  0  0  0  0  0  0  0  0  0  0  0
  -53.1906  -29.5072    6.6680 C   0  0  0  0  0  0  0  0  0  0  0  0
  -46.1654  -30.0097    0.5737 C   0  0  0  0  0  0  0  0  0  0  0  0
  -47.2166  -29.0486    1.1131 C   0  0  0  0  0  0  0  0  0  0  0  0
  -49.0503  -29.1423    6.2357 N   0  0  0  0  0  0  0  0  0  0  0  0
  -43.5294  -30.7433    3.2104 N   0  0  0  0  0  0  0  0  0  0  0  0
  -50.9624  -29.1605    7.6281 N   0  0  0  0  0  0  0  0  0  0  0  0
  -42.7074  -29.0727    1.7308 N   0  0  0  0  0  0  0  0  0  0  0  0
  -52.8053  -29.0838    8.9963 O   0  0  0  0  0  0  0  0  0  0  0  0
  -41.4489  -29.8260    3.4741 O   0  0  0  0  0  0  0  0  0  0  0  0
  -48.8040  -31.1795    1.9390 O   0  0  0  0  0  0  0  0  0  0  0  0
  -47.4991  -29.3618    2.4810 O   0  0  0  0  0  0  0  0  0  0  0  0
  -51.0743  -30.7844    3.3630 H   0  0  0  0  0  0  0  0  0  0  0  0
  -47.4398  -29.1539    4.9568 H   0  0  0  0  0  0  0  0  0  0  0  0
  -43.8935  -28.4199    0.1504 H   0  0  0  0  0  0  0  0  0  0  0  0
  -45.4241  -31.4342    2.7912 H   0  0  0  0  0  0  0  0  0  0  0  0
  -53.1014  -30.4086    4.7101 H   0  0  0  0  0  0  0  0  0  0  0  0
  -52.5852  -31.4672    6.0346 H   0  0  0  0  0  0  0  0  0  0  0  0
  -54.1344  -29.9340    7.0297 H   0  0  0  0  0  0  0  0  0  0  0  0
  -53.4165  -28.5462    6.1938 H   0  0  0  0  0  0  0  0  0  0  0  0
  -46.5295  -31.0402    0.6516 H   0  0  0  0  0  0  0  0  0  0  0  0
  -45.9786  -29.7938   -0.4839 H   0  0  0  0  0  0  0  0  0  0  0  0
  -48.1454  -29.1569    0.5436 H   0  0  0  0  0  0  0  0  0  0  0  0
  -46.8848  -28.0069    1.0478 H   0  0  0  0  0  0  0  0  0  0  0  0
  -50.3445  -28.8639    8.3769 H   0  0  0  0  0  0  0  0  0  0  0  0
  -41.9660  -28.4371    1.4521 H   0  0  0  0  0  0  0  0  0  0  0  0
  1  3  1  0  0  0  0
  1  4  2  0  0  0  0
  2  3  2  0  0  0  0
  2 16  1  0  0  0  0
  3 11  1  0  0  0  0
  4  5  1  0  0  0  0
  4 12  1  0  0  0  0
  5 16  2  0  0  0  0
  5 18  1  0  0  0  0
  6  8  2  0  0  0  0
  6 19  1  0  0  0  0
  7  8  1  0  0  0  0
  7 17  2  0  0  0  0
  8 14  1  0  0  0  0
  9 13  1  0  0  0  0
  9 18  1  0  0  0  0
  9 20  2  0  0  0  0
 10 17  1  0  0  0  0
 10 19  1  0  0  0  0
 10 21  2  0  0  0  0
 11 22  2  0  0  0  0
 11 23  1  0  0  0  0
 12 13  1  0  0  0  0
 14 15  1  0  0  0  0
 15 23  1  0  0  0  0
  1 24  1  0  0  0  0
  2 25  1  0  0  0  0
  6 26  1  0  0  0  0
  7 27  1  0  0  0  0
 12 28  1  0  0  0  0
 12 29  1  0  0  0  0
 13 30  1  0  0  0  0
 13 31  1  0  0  0  0
 14 32  1  0  0  0  0
 14 33  1  0  0  0  0
 15 34  1  0  0  0  0
 15 35  1  0  0  0  0
 18 36  1  0  0  0  0
 19 37  1  0  0  0  0
M  END
> <POSIT::Probability>
0.24

> <POSIT::Method>
FRED

> <ReceptorTitle>
UCSF-P4473-REFINED_LIGAND-BOUND-STATE_AALTB__DU__LA1_A-201(A)

> <OMEGA_C>
zAZKwr+R8sGsVIVA5vNBwtdl68GWQKFA+KpEwmsL8MFa6n5AKIRMwu0/8MH6NqxAO3NJwraD68Gk
TcxA9HAvwgPF6MFK7n4/J3Iywkz99cFRCyBAfXwzwlRG78ES6Kc/RkNRwngg6sFoNfxAywYqwhAS
78FqHjZAqwNCwiEY8sG6zi1ADy5SwhGE88Gv9rRAJsNUwr4O7MFEYNVAUqk4wuIT8MEI3BI/zt08
wp5j6MFreo4/fzNEwlQj6cGOisdAGB4uwlXy9cHqd01AhNlLwqBI6cFLGfRAZ9QqwvyU6ME+id0/
ojhTwpKr6MHY8A9Br8slwqSb7sFOWF5ATDdDwoRv+cHiMPg/H/89wv7k6sHWyB5AE0xMwotG9sEQ
O1dAaMI9wj476cESnp5A/JIvwgxc48FAAho+PLI1wkR5+8FkozJA0GdUwupE88HiuJZAQVdSwui8
+8FEG8FAp4lYwth478Go8+BAhapVwpBe5MFyM8ZAOx46wk5S+ME8zyY/Euo3wqJZ7sGoxfe+6ZRA
wmtB6cHEKgs/Boo7whwO4MFOHYY/0GBJwkjp5sHXBwZBNd0nwiR/48Fe3bk/

> <OMEGA_E>
RB8cwQ==

> <OMEGA_NBR>
     14765

$$$$
CACHE3HI_1718_58
  -OEChem-03092622503D

 35 38  0     1  0  0  0  0  0999 V2000
  -49.9044  -28.9774    3.2530 C   0  0  0  0  0  0  0  0  0  0  0  0
  -50.6687  -28.9198    4.4451 C   0  0  0  0  0  0  0  0  0  0  0  0
  -48.4955  -29.0855    3.3105 C   0  0  0  0  0  0  0  0  0  0  0  0
  -50.0335  -28.9699    5.7063 C   0  0  0  0  0  0  0  0  0  0  0  0
  -44.1133  -29.4867    6.2334 C   0  0  0  0  0  0  0  0  0  0  0  0
  -47.8892  -29.1339    4.5824 C   0  0  0  0  0  0  0  0  0  0  0  0
  -46.4813  -29.2455    4.9692 C   0  0  0  0  0  0  0  0  0  0  0  0
  -48.6333  -29.0815    5.7660 C   0  0  0  0  0  0  0  0  0  0  0  0
  -46.4313  -29.2672    6.3609 C   0  0  0  0  0  0  0  0  0  0  0  0
  -45.3007  -29.3446    4.2092 C   0  0  0  0  0  0  0  0  0  0  0  0
  -45.9688  -28.9310   -0.2164 C   0  0  0  0  0  0  0  0  0  0  0  0
  -43.9686  -28.3871    1.0372 C   0  0  0  0  0  0  0  0  0  0  0  0
  -45.9349  -30.4142    0.2502 C   0  0  0  0  0  0  0  0  0  0  0  0
  -44.6113  -30.7648    0.9852 C   0  0  0  0  0  0  0  0  0  0  0  0
  -44.2030  -29.6122    1.9185 C   0  0  2  0  0  0  0  0  0  0  0  0
  -45.2427  -29.3843    6.9847 N   0  0  0  0  0  0  0  0  0  0  0  0
  -44.1237  -29.4684    4.8711 N   0  0  0  0  0  0  0  0  0  0  0  0
  -47.7398  -29.1645    6.8354 N   0  0  0  0  0  0  0  0  0  0  0  0
  -44.9458  -28.0425    0.1152 N   0  0  0  0  0  0  0  0  0  0  0  0
  -45.3458  -29.3206    2.8255 N   0  0  0  0  0  0  0  0  0  0  0  0
  -46.9480  -28.5152   -0.8216 O   0  0  0  0  0  0  0  0  0  0  0  0
  -42.9434  -27.7252    1.1377 O   0  0  0  0  0  0  0  0  0  0  0  0
  -50.4010  -28.9385    2.2947 H   0  0  0  0  0  0  0  0  0  0  0  0
  -51.7441  -28.8371    4.3892 H   0  0  0  0  0  0  0  0  0  0  0  0
  -47.9028  -29.1295    2.4088 H   0  0  0  0  0  0  0  0  0  0  0  0
  -50.6169  -28.9231    6.6140 H   0  0  0  0  0  0  0  0  0  0  0  0
  -43.1649  -29.5872    6.7400 H   0  0  0  0  0  0  0  0  0  0  0  0
  -46.7781  -30.5903    0.9344 H   0  0  0  0  0  0  0  0  0  0  0  0
  -46.0350  -31.0656   -0.6304 H   0  0  0  0  0  0  0  0  0  0  0  0
  -44.7562  -31.6795    1.5788 H   0  0  0  0  0  0  0  0  0  0  0  0
  -43.8163  -30.9312    0.2434 H   0  0  0  0  0  0  0  0  0  0  0  0
  -43.2949  -29.8700    2.4832 H   0  0  0  0  0  0  0  0  0  0  0  0
  -47.9995  -29.1520    7.8010 H   0  0  0  0  0  0  0  0  0  0  0  0
  -44.9165  -27.1422   -0.3190 H   0  0  0  0  0  0  0  0  0  0  0  0
  -46.0577  -29.9759    2.5728 H   0  0  0  0  0  0  0  0  0  0  0  0
  1  2  1  0  0  0  0
  1  3  2  0  0  0  0
  2  4  2  0  0  0  0
  3  6  1  0  0  0  0
  4  8  1  0  0  0  0
  5 16  1  0  0  0  0
  5 17  2  0  0  0  0
  6  7  1  0  0  0  0
  6  8  2  0  0  0  0
  7  9  1  0  0  0  0
  7 10  2  0  0  0  0
  8 18  1  0  0  0  0
  9 16  2  0  0  0  0
  9 18  1  0  0  0  0
 10 17  1  0  0  0  0
 10 20  1  0  0  0  0
 11 13  1  0  0  0  0
 11 19  1  0  0  0  0
 11 21  2  0  0  0  0
 12 15  1  0  0  0  0
 12 19  1  0  0  0  0
 12 22  2  0  0  0  0
 13 14  1  0  0  0  0
 14 15  1  0  0  0  0
 15 20  1  0  0  0  0
  1 23  1  0  0  0  0
  2 24  1  0  0  0  0
  3 25  1  0  0  0  0
  4 26  1  0  0  0  0
  5 27  1  0  0  0  0
 13 28  1  0  0  0  0
 13 29  1  0  0  0  0
 14 30  1  0  0  0  0
 14 31  1  0  0  0  0
 15 32  1  0  0  0  0
 18 33  1  0  0  0  0
 19 34  1  0  0  0  0
 20 35  1  0  0  0  0
M  END
> <POSIT::Probability>
0.97

> <POSIT::Method>
SHAPEFIT

> <ReceptorTitle>
UCSF-P4473-REFINED_LIGAND-BOUND-STATE_AALTB__DU__LA1_A-201(A)

> <OMEGA_C>
HZ5HwsfR58FTMVBAzKxKwtlb58GiPo5AZPtBwhav6MG431NAWSJIwnTC58E6mrZAC3Qwwtfk68HF
d8dAio4/wjUS6cFJo5JA4Ow5wsr26cFYA59AjIhCwv+m6MFJg7hAq7k5wisj6sHYjMtA3jM1wsTB
6sG1sYZAGOA3wqly58EQol2+2t8vwssY48FlwoQ/UL03wjdQ88H6HYA+9XEywmIe9sEnOXw/2c8w
wsnl7MFPkPU/jPg0wg0T68HMgt9Arn4wwjm/68Hg35tAj/U+wsxQ6cGvu9pAfcgzwghX4MEgAew9
EmI1wpeQ6sEu1DRAuso7whEf5MFsVFK/FcYrwk/N3cHWn5E/nJpJwiSC58Hi3BJA+/lOwmOy5sGM
dIxAfJw/wkwJ6cEcKRpAwHdKwmti58HGpdNAz6gswqyy7MFJrtdAuhw7wuW49ME4Mm8/2yM4wmGG
+MHvZCG/UwYzwqxv/cE5F8o/60Mvwitz98HGO3k++y0twrj17sEb7R5Ahf8/wmM36cHloflAfaoz
wiAj2cEeTqO+CTs4wpbO78FeqCRA

> <OMEGA_E>
YGC5PQ==

> <OMEGA_NBR>
     15998

$$$$
CACHE3HI_1718_59
  -OEChem-03092622503D

 35 38  0     1  0  0  0  0  0999 V2000
  -48.5010  -29.0803    3.3256 C   0  0  0  0  0  0  0  0  0  0  0  0
  -49.9124  -29.0064    3.2733 C   0  0  0  0  0  0  0  0  0  0  0  0
  -50.0323  -29.0252    5.7270 C   0  0  0  0  0  0  0  0  0  0  0  0
  -44.1091  -29.4719    6.2343 C   0  0  0  0  0  0  0  0  0  0  0  0
  -47.8906  -29.1327    4.5956 C   0  0  0  0  0  0  0  0  0  0  0  0
  -46.4819  -29.2367    4.9786 C   0  0  0  0  0  0  0  0  0  0  0  0
  -48.6315  -29.1039    5.7813 C   0  0  0  0  0  0  0  0  0  0  0  0
  -50.6740  -28.9844    4.4698 C   0  0  0  0  0  0  0  0  0  0  0  0
  -46.4274  -29.2634    6.3701 C   0  0  0  0  0  0  0  0  0  0  0  0
  -45.3048  -29.3362    4.2148 C   0  0  0  0  0  0  0  0  0  0  0  0
  -45.9780  -28.9122   -0.2174 C   0  0  0  0  0  0  0  0  0  0  0  0
  -43.9747  -28.3889    1.0407 C   0  0  0  0  0  0  0  0  0  0  0  0
  -45.9660  -30.3928    0.2578 C   0  0  0  0  0  0  0  0  0  0  0  0
  -44.6450  -30.7594    0.9892 C   0  0  0  0  0  0  0  0  0  0  0  0
  -44.2205  -29.6120    1.9212 C   0  0  2  0  0  0  0  0  0  0  0  0
  -45.2361  -29.3741    6.9898 N   0  0  0  0  0  0  0  0  0  0  0  0
  -44.1253  -29.4601    4.8720 N   0  0  0  0  0  0  0  0  0  0  0  0
  -47.7351  -29.1768    6.8481 N   0  0  0  0  0  0  0  0  0  0  0  0
  -44.9476  -28.0336    0.1183 N   0  0  0  0  0  0  0  0  0  0  0  0
  -45.3561  -29.3095    2.8318 N   0  0  0  0  0  0  0  0  0  0  0  0
  -46.9352  -28.4948   -0.8555 O   0  0  0  0  0  0  0  0  0  0  0  0
  -42.9218  -27.7675    1.1071 O   0  0  0  0  0  0  0  0  0  0  0  0
  -52.0241  -28.9319    4.4145 F   0  0  0  0  0  0  0  0  0  0  0  0
  -47.9098  -29.0961    2.4219 H   0  0  0  0  0  0  0  0  0  0  0  0
  -50.4131  -28.9665    2.3172 H   0  0  0  0  0  0  0  0  0  0  0  0
  -50.6129  -28.9962    6.6372 H   0  0  0  0  0  0  0  0  0  0  0  0
  -43.1578  -29.5630    6.7375 H   0  0  0  0  0  0  0  0  0  0  0  0
  -46.8089  -30.5514    0.9465 H   0  0  0  0  0  0  0  0  0  0  0  0
  -46.0801  -31.0478   -0.6185 H   0  0  0  0  0  0  0  0  0  0  0  0
  -44.7994  -31.6723    1.5832 H   0  0  0  0  0  0  0  0  0  0  0  0
  -43.8541  -30.9354    0.2453 H   0  0  0  0  0  0  0  0  0  0  0  0
  -43.3136  -29.8806    2.4826 H   0  0  0  0  0  0  0  0  0  0  0  0
  -47.9924  -29.1683    7.8144 H   0  0  0  0  0  0  0  0  0  0  0  0
  -44.9098  -27.1324   -0.3135 H   0  0  0  0  0  0  0  0  0  0  0  0
  -46.0761  -29.9567    2.5811 H   0  0  0  0  0  0  0  0  0  0  0  0
  1  2  1  0  0  0  0
  1  5  2  0  0  0  0
  2  8  2  0  0  0  0
  3  7  2  0  0  0  0
  3  8  1  0  0  0  0
  4 16  1  0  0  0  0
  4 17  2  0  0  0  0
  5  6  1  0  0  0  0
  5  7  1  0  0  0  0
  6  9  1  0  0  0  0
  6 10  2  0  0  0  0
  7 18  1  0  0  0  0
  8 23  1  0  0  0  0
  9 16  2  0  0  0  0
  9 18  1  0  0  0  0
 10 17  1  0  0  0  0
 10 20  1  0  0  0  0
 11 13  1  0  0  0  0
 11 19  1  0  0  0  0
 11 21  2  0  0  0  0
 12 15  1  0  0  0  0
 12 19  1  0  0  0  0
 12 22  2  0  0  0  0
 13 14  1  0  0  0  0
 14 15  1  0  0  0  0
 15 20  1  0  0  0  0
  1 24  1  0  0  0  0
  2 25  1  0  0  0  0
  3 26  1  0  0  0  0
  4 27  1  0  0  0  0
 13 28  1  0  0  0  0
 13 29  1  0  0  0  0
 14 30  1  0  0  0  0
 14 31  1  0  0  0  0
 15 32  1  0  0  0  0
 18 33  1  0  0  0  0
 19 34  1  0  0  0  0
 20 35  1  0  0  0  0
M  END
> <POSIT::Probability>
0.99

> <POSIT::Method>
SHAPEFIT

> <ReceptorTitle>
UCSF-P4473-REFINED_LIGAND-BOUND-STATE_AALTB__DU__LA1_A-201(A)

> <OMEGA_C>
AQFCwnWk6MH21VRAUaZHwiUN6MEWfVFAHSFIwpoz6MGwQ7dAs28wwmPG68GBf8dA/I8/wsAP6cHQ
DpNAcu05wrDk6cGQUJ9ArIZCwtHU6MFGALlAMLJKwhDg58H8CI9Ao7U5wmcb6sGL18tAHDg1wpuw
6sH134ZAb+k3whdM58Hwn16+EOYvwooc48GcNYU/KN03wmck88E8/YM+gJQywlET9sF7Pn0/1OEw
wk/l7MER6fU/zPE0wg/+6sEerN9AU4Awwliu68Gy55tAsfA+wh5q6cELJNtAVMozwtdE4MFgP/I9
r2w1wtJ56sG6PDVAo707wmD148HmBFu/8q8rws4j3sGpto0/oxhQwoB058FhQ41AmaM/wsfE6MFF
ABtAAKdJwnu758E5TBRApHNKwh7458ESZNRAm6EswgyB7MGRmddAVzw7wlBp9MEsS3I/D1I4wuJh
+MElVx6/mTIzwuNg/cEFp8o/jWovwsB798EQN3s+F0EtwosL78FF4x5AQ/g/wpZY6cG4D/pAq6Mz
wiwP2cHzfaC+4k04wkun78F5MSVA

> <OMEGA_E>
EHmPPQ==

> <OMEGA_NBR>
     17231

$$$$
CACHE3HI_1718_60
  -OEChem-03092622503D

 39 42  0     1  0  0  0  0  0999 V2000
  -48.2978  -29.0910    1.4498 C   0  0  0  0  0  0  0  0  0  0  0  0
  -49.6818  -29.1741    1.6066 C   0  0  0  0  0  0  0  0  0  0  0  0
  -45.2114  -29.8890    3.2607 C   0  0  0  0  0  0  0  0  0  0  0  0
  -47.9996  -29.4657    3.8210 C   0  0  0  0  0  0  0  0  0  0  0  0
  -44.0812  -28.2804    1.2060 C   0  0  0  0  0  0  0  0  0  0  0  0
  -47.4580  -29.2355    2.5555 C   0  0  0  0  0  0  0  0  0  0  0  0
  -46.0230  -29.1557    2.3873 C   0  0  0  0  0  0  0  0  0  0  0  0
  -45.4669  -28.3654    1.3787 C   0  0  0  0  0  0  0  0  0  0  0  0
  -43.8174  -29.8147    3.1017 C   0  0  0  0  0  0  0  0  0  0  0  0
  -43.2918  -29.0191    2.0875 C   0  0  0  0  0  0  0  0  0  0  0  0
  -49.3847  -29.5333    3.9762 C   0  0  0  0  0  0  0  0  0  0  0  0
  -50.2243  -29.3836    2.8733 C   0  0  0  0  0  0  0  0  0  0  0  0
  -41.6967  -30.0165    3.2520 C   0  0  0  0  0  0  0  0  0  0  0  0
  -51.2996  -29.8015    5.4390 C   0  0  0  0  0  0  0  0  0  0  0  0
  -52.0895  -29.2166    4.2651 C   0  0  2  0  0  0  0  0  0  0  0  0
  -46.3344  -27.5800    0.4445 C   0  0  0  0  0  0  0  0  0  0  0  0
  -53.5390  -29.6883    4.3012 C   0  0  0  0  0  0  0  0  0  0  0  0
  -42.8117  -30.4267    3.8150 N   0  0  0  0  0  0  0  0  0  0  0  0
  -41.9335  -29.1677    2.2075 N   0  0  0  0  0  0  0  0  0  0  0  0
  -49.9357  -29.8084    5.2324 N   0  0  0  0  0  0  0  0  0  0  0  0
  -40.4143  -30.3118    3.5588 N   0  0  0  0  0  0  0  0  0  0  0  0
  -51.8227  -30.1465    6.4951 O   0  0  0  0  0  0  0  0  0  0  0  0
  -51.5828  -29.5081    2.9688 O   0  0  0  0  0  0  0  0  0  0  0  0
  -47.8875  -28.9202    0.4572 H   0  0  0  0  0  0  0  0  0  0  0  0
  -50.3281  -29.0741    0.7389 H   0  0  0  0  0  0  0  0  0  0  0  0
  -45.6379  -30.5058    4.0470 H   0  0  0  0  0  0  0  0  0  0  0  0
  -47.3479  -29.5928    4.6830 H   0  0  0  0  0  0  0  0  0  0  0  0
  -43.6373  -27.6709    0.4262 H   0  0  0  0  0  0  0  0  0  0  0  0
  -52.0845  -28.1252    4.3913 H   0  0  0  0  0  0  0  0  0  0  0  0
  -46.5932  -28.1704   -0.4415 H   0  0  0  0  0  0  0  0  0  0  0  0
  -45.8179  -26.6796    0.0930 H   0  0  0  0  0  0  0  0  0  0  0  0
  -47.2581  -27.2813    0.9509 H   0  0  0  0  0  0  0  0  0  0  0  0
  -53.5813  -30.7700    4.1784 H   0  0  0  0  0  0  0  0  0  0  0  0
  -54.1034  -29.2178    3.4966 H   0  0  0  0  0  0  0  0  0  0  0  0
  -53.9937  -29.4218    5.2557 H   0  0  0  0  0  0  0  0  0  0  0  0
  -41.2322  -28.7280    1.6267 H   0  0  0  0  0  0  0  0  0  0  0  0
  -49.3142  -30.0533    5.9975 H   0  0  0  0  0  0  0  0  0  0  0  0
  -40.1676  -30.9014    4.3663 H   0  0  0  0  0  0  0  0  0  0  0  0
  -39.6207  -29.8776    3.0665 H   0  0  0  0  0  0  0  0  0  0  0  0
  1  2  2  0  0  0  0
  1  6  1  0  0  0  0
  2 12  1  0  0  0  0
  3  7  1  0  0  0  0
  3  9  2  0  0  0  0
  4  6  2  0  0  0  0
  4 11  1  0  0  0  0
  5  8  1  0  0  0  0
  5 10  2  0  0  0  0
  6  7  1  0  0  0  0
  7  8  2  0  0  0  0
  8 16  1  0  0  0  0
  9 10  1  0  0  0  0
  9 18  1  0  0  0  0
 10 19  1  0  0  0  0
 11 12  2  0  0  0  0
 11 20  1  0  0  0  0
 12 23  1  0  0  0  0
 13 18  2  0  0  0  0
 13 19  1  0  0  0  0
 13 21  1  0  0  0  0
 14 15  1  0  0  0  0
 14 20  1  0  0  0  0
 14 22  2  0  0  0  0
 15 17  1  0  0  0  0
 15 23  1  0  0  0  0
  1 24  1  0  0  0  0
  2 25  1  0  0  0  0
  3 26  1  0  0  0  0
  4 27  1  0  0  0  0
  5 28  1  0  0  0  0
 15 29  1  0  0  0  0
 16 30  1  0  0  0  0
 16 31  1  0  0  0  0
 16 32  1  0  0  0  0
 17 33  1  0  0  0  0
 17 34  1  0  0  0  0
 17 35  1  0  0  0  0
 19 36  1  0  0  0  0
 20 37  1  0  0  0  0
 21 38  1  0  0  0  0
 21 39  1  0  0  0  0
M  END
> <POSIT::Probability>
0.24

> <POSIT::Method>
FRED

> <ReceptorTitle>
UCSF-P4473-REFINED_LIGAND-BOUND-STATE_AALTB__DU__LA1_A-201(A)

> <OMEGA_C>
9jBBwle66MGckbk/NrpGwohk6cGLpM0/hNg0wr4c78EIsFBAmP8/wsS568FOi3RAKlMwwlY+4sFW
Xpo/CdU9wmji6cHIjSNAlhc4wvg+6cE0yRhAIN41wlbs4sFnebA/DkUvwoKE7sE+gkZAyyotwjMn
6MHumQVA+olFwkBE7MGXeX5AouVIwoQR68Fv4zdAbskmwt4h8MExIFBA1TJNwm9p7sEZDK5Ar1tQ
woC76cFUe4hAelY5wsyj3MFYmeM++idWwpmB7cEJo4lAIz8rwtxp88EEKXRA3Lsnwl5X6cH+Rg1A
Jb5HwqJ37sEocKdAM6ghwoF+8sF1w2NAekpPwgQs8cGN189AzlROwoQQ7MEqAT5AxIw/wpBc58FQ
Euo+AlBJwsuX6MHEJT0/Mo02wtgL9MEOgYFASmQ9whq+7MHe2pVAo4wuwvJd3cHYPNo+kFZQwlwA
4cFKhYxAal86wvFc4cFwEeK+j0U3wuJv1cFgbb49VAg9whNA2sFcb3M/P1NWwgwp9sFRtYVA5GlY
wv696cH6yF9Ai/lXwvBf68GdLqhA0O0kwuDS5cFNOdA/wEFFwhRt8MG4679ArKsgwiI298EIuYtA
k3sewlIF78EnQURA

> <OMEGA_E>
FxD2wA==

> <OMEGA_NBR>
     18516

$$$$
CACHE3HI_1879_10
  -OEChem-03092622503D

 49 52  0     0  0  0  0  0  0999 V2000
  -43.1965  -32.4427    0.3136 C   0  0  0  0  0  0  0  0  0  0  0  0
  -42.7080  -31.3616    1.0483 C   0  0  0  0  0  0  0  0  0  0  0  0
  -44.8800  -30.3225    0.9472 C   0  0  0  0  0  0  0  0  0  0  0  0
  -47.7409  -28.3960    4.9816 C   0  0  0  0  0  0  0  0  0  0  0  0
  -45.3972  -31.4314    0.2595 C   0  0  0  0  0  0  0  0  0  0  0  0
  -44.5388  -32.4889   -0.0948 C   0  0  0  0  0  0  0  0  0  0  0  0
  -43.5469  -30.2950    1.3530 C   0  0  0  0  0  0  0  0  0  0  0  0
  -47.0449  -29.0690    4.0047 C   0  0  0  0  0  0  0  0  0  0  0  0
  -48.9670  -30.0009    4.0675 C   0  0  0  0  0  0  0  0  0  0  0  0
  -47.6528  -32.4328   -0.1601 C   0  0  0  0  0  0  0  0  0  0  0  0
  -50.1755  -30.8352    3.8181 C   0  0  0  0  0  0  0  0  0  0  0  0
  -47.2047  -33.7455    0.4466 C   0  0  0  0  0  0  0  0  0  0  0  0
  -51.1688  -30.7629    4.9805 C   0  0  0  0  0  0  0  0  0  0  0  0
  -51.3771  -29.3156    5.4322 C   0  0  0  0  0  0  0  0  0  0  0  0
  -50.0593  -28.6996    5.9021 C   0  0  0  0  0  0  0  0  0  0  0  0
  -46.3629  -34.5941   -0.4807 C   0  0  0  0  0  0  0  0  0  0  0  0
  -45.6298  -28.8323    3.5378 C   0  0  0  0  0  0  0  0  0  0  0  0
  -44.6008  -29.6475    4.3164 C   0  0  0  0  0  0  0  0  0  0  0  0
  -47.8089  -30.0618    3.4405 N   0  0  0  0  0  0  0  0  0  0  0  0
  -48.9613  -29.0000    5.0066 N   0  0  0  0  0  0  0  0  0  0  0  0
  -46.7684  -31.3764   -0.0746 N   0  0  0  0  0  0  0  0  0  0  0  0
  -43.2255  -29.3844    3.8698 N   0  0  0  0  0  0  0  0  0  0  0  0
  -48.7849  -32.3092   -0.6285 O   0  0  0  0  0  0  0  0  0  0  0  0
  -43.7407  -27.7591    1.9385 O   0  0  0  0  0  0  0  0  0  0  0  0
  -41.4881  -28.8709    2.0404 O   0  0  0  0  0  0  0  0  0  0  0  0
  -44.9670  -33.7582   -1.2842 S   0  0  0  0  0  0  0  0  0  0  0  0
  -42.9287  -28.9291    2.2495 S   0  0  0  0  0  0  0  0  0  0  0  0
  -42.4981  -33.2312    0.0661 H   0  0  0  0  0  0  0  0  0  0  0  0
  -41.6692  -31.3595    1.3730 H   0  0  0  0  0  0  0  0  0  0  0  0
  -45.5060  -29.4757    1.1848 H   0  0  0  0  0  0  0  0  0  0  0  0
  -47.4798  -27.5764    5.6367 H   0  0  0  0  0  0  0  0  0  0  0  0
  -50.6595  -30.4795    2.9005 H   0  0  0  0  0  0  0  0  0  0  0  0
  -49.8825  -31.8769    3.6478 H   0  0  0  0  0  0  0  0  0  0  0  0
  -46.7409  -33.5417    1.4245 H   0  0  0  0  0  0  0  0  0  0  0  0
  -48.1276  -34.3059    0.6690 H   0  0  0  0  0  0  0  0  0  0  0  0
  -52.1245  -31.2042    4.6766 H   0  0  0  0  0  0  0  0  0  0  0  0
  -50.7946  -31.3553    5.8249 H   0  0  0  0  0  0  0  0  0  0  0  0
  -51.7806  -28.7304    4.5959 H   0  0  0  0  0  0  0  0  0  0  0  0
  -52.1145  -29.2724    6.2408 H   0  0  0  0  0  0  0  0  0  0  0  0
  -50.1489  -27.6109    5.9789 H   0  0  0  0  0  0  0  0  0  0  0  0
  -49.7780  -29.0991    6.8831 H   0  0  0  0  0  0  0  0  0  0  0  0
  -45.9236  -35.4475    0.1099 H   0  0  0  0  0  0  0  0  0  0  0  0
  -46.9958  -35.1250   -1.2568 H   0  0  0  0  0  0  0  0  0  0  0  0
  -45.5513  -29.0511    2.4651 H   0  0  0  0  0  0  0  0  0  0  0  0
  -45.4022  -27.7642    3.6454 H   0  0  0  0  0  0  0  0  0  0  0  0
  -44.6443  -29.3853    5.3786 H   0  0  0  0  0  0  0  0  0  0  0  0
  -44.7786  -30.7238    4.2245 H   0  0  0  0  0  0  0  0  0  0  0  0
  -47.1507  -30.5161   -0.2439 H   0  0  0  0  0  0  0  0  0  0  0  0
  -42.4818  -29.8609    4.3944 H   0  0  0  0  0  0  0  0  0  0  0  0
  1  2  1  0  0  0  0
  1  6  2  0  0  0  0
  2  7  2  0  0  0  0
  3  5  2  0  0  0  0
  3  7  1  0  0  0  0
  4  8  2  0  0  0  0
  4 20  1  0  0  0  0
  5  6  1  0  0  0  0
  5 21  1  0  0  0  0
  6 26  1  0  0  0  0
  7 27  1  0  0  0  0
  8 17  1  0  0  0  0
  8 19  1  0  0  0  0
  9 11  1  0  0  0  0
  9 19  2  0  0  0  0
  9 20  1  0  0  0  0
 10 12  1  0  0  0  0
 10 21  1  0  0  0  0
 10 23  2  0  0  0  0
 11 13  1  0  0  0  0
 12 16  1  0  0  0  0
 13 14  1  0  0  0  0
 14 15  1  0  0  0  0
 15 20  1  0  0  0  0
 16 26  1  0  0  0  0
 17 18  1  0  0  0  0
 18 22  1  0  0  0  0
 22 27  1  0  0  0  0
 24 27  2  0  0  0  0
 25 27  2  0  0  0  0
  1 28  1  0  0  0  0
  2 29  1  0  0  0  0
  3 30  1  0  0  0  0
  4 31  1  0  0  0  0
 11 32  1  0  0  0  0
 11 33  1  0  0  0  0
 12 34  1  0  0  0  0
 12 35  1  0  0  0  0
 13 36  1  0  0  0  0
 13 37  1  0  0  0  0
 14 38  1  0  0  0  0
 14 39  1  0  0  0  0
 15 40  1  0  0  0  0
 15 41  1  0  0  0  0
 16 42  1  0  0  0  0
 16 43  1  0  0  0  0
 17 44  1  0  0  0  0
 17 45  1  0  0  0  0
 18 46  1  0  0  0  0
 18 47  1  0  0  0  0
 21 48  1  0  0  0  0
 22 49  1  0  0  0  0
M  END
> <POSIT::Probability>
0.18

> <POSIT::Method>
FRED

> <ReceptorTitle>
UCSF-P4473_LA2_MERGED(A)

> <OMEGA_C>
MskswlrFAcJwlqA+CdUqwqbk+sH0L4Y/KIUzwpSU8sFAenI/qfY+wu0q48FcaZ9AxZY1wmlz+8GA
4IQ+wycywqj0AcLAF8K9DDAuwiRc8sGQLq0/8i08wjyN6MFcJoBAQd5DwuYB8MEbKYJAeZw+wjG7
AcIg9CO+s7NIwo6u9sH8WnRAk9E8wmf7BsJwreQ+2axMwlca9sFyYJ9AKYJNwkiG6sFg1K1AwjxI
wrSY5cHe3bxAqHM5wmVgCsLQHfa+6IQ2wpqo5sEabGJALWcywgUu7cHoH4pARTw/wpt+8MHSMFxA
YthDwur/58E6NqBA0RI7wvIC+8EA0Ji94eYswkoT68HqqndAwSNDwp48AcIo5SC/d/YuwrES3sFw
Ifg/zfMlwoT35sE+lgJAOd4zwl4IB8JwX6S/+LYrws5u58GK9w9AB/4pwsHsBMIAboc9Sq0mwlPg
+sEEva8/MQY2wkTO68FQqJc/Ves9wmSc3MHQX7RAUKNKwgnW88EMoTlAtIdHwuwD/8FMdWlAufY6
wqwqBsLQVLY/tIJAwjM5CcKoQCs/dX9Qwi2i+cGqppVAqi1LwqbX+sGhZbpAXh9PwtbX5cHxEZNA
Q3VQwsct6sHDtMdAbZhIwgvj3MH6Ur9AtRxHwgnL6MHAQtxAzLE3wkLKDcJAAuE9q/s7wguADMJI
4KC/gzQ2wrho6MEqxB1A2ps1whMd3sGeTmlAuJMywhgV68GrHaxASR0zwkfK9cEuL4dAU5o8wvkg
9MHAvnm+Wu0pwijj7sE3n4xA

> <OMEGA_E>
t9fQwA==

> <OMEGA_NBR>
     19922

$$$$
CACHE3HI_1879_12
  -OEChem-03092622503D

 47 50  0     0  0  0  0  0  0999 V2000
  -50.1241  -28.4254    4.4074 C   0  0  0  0  0  0  0  0  0  0  0  0
  -50.4466  -29.8234    6.3379 C   0  0  0  0  0  0  0  0  0  0  0  0
  -44.8877  -29.3674    0.6508 C   0  0  0  0  0  0  0  0  0  0  0  0
  -42.3565  -28.6354    1.5827 C   0  0  0  0  0  0  0  0  0  0  0  0
  -47.1139  -29.0172    4.8655 C   0  0  0  0  0  0  0  0  0  0  0  0
  -51.4967  -28.4621    4.2188 C   0  0  0  0  0  0  0  0  0  0  0  0
  -51.8044  -29.7976    6.0632 C   0  0  0  0  0  0  0  0  0  0  0  0
  -49.5974  -29.1218    5.4895 C   0  0  0  0  0  0  0  0  0  0  0  0
  -44.3293  -28.1477    0.2526 C   0  0  0  0  0  0  0  0  0  0  0  0
  -43.0618  -27.7862    0.7264 C   0  0  0  0  0  0  0  0  0  0  0  0
  -42.9277  -29.8426    1.9846 C   0  0  0  0  0  0  0  0  0  0  0  0
  -44.1918  -30.2068    1.5215 C   0  0  0  0  0  0  0  0  0  0  0  0
  -48.1772  -29.1182    5.7294 C   0  0  0  0  0  0  0  0  0  0  0  0
  -45.9793  -29.0764    5.6968 C   0  0  0  0  0  0  0  0  0  0  0  0
  -43.1455  -25.6006   -0.4000 C   0  0  0  0  0  0  0  0  0  0  0  0
  -45.0148  -27.2724   -0.7566 C   0  0  0  0  0  0  0  0  0  0  0  0
  -44.6396  -25.8126   -0.5519 C   0  0  0  0  0  0  0  0  0  0  0  0
  -44.5307  -29.0121    5.2797 C   0  0  0  0  0  0  0  0  0  0  0  0
  -43.9344  -30.3851    4.9818 C   0  0  0  0  0  0  0  0  0  0  0  0
  -52.3529  -29.1327    5.0219 N   0  0  0  0  0  0  0  0  0  0  0  0
  -46.2924  -29.2046    6.9888 N   0  0  0  0  0  0  0  0  0  0  0  0
  -47.6360  -29.2272    6.9766 N   0  0  0  0  0  0  0  0  0  0  0  0
  -42.4765  -26.5743    0.3180 N   0  0  0  0  0  0  0  0  0  0  0  0
  -42.5158  -30.3085    4.6052 N   0  0  0  0  0  0  0  0  0  0  0  0
  -42.5995  -24.5788   -0.8119 O   0  0  0  0  0  0  0  0  0  0  0  0
  -40.5945  -30.5594    2.9074 O   0  0  0  0  0  0  0  0  0  0  0  0
  -42.4740  -32.2291    2.8910 O   0  0  0  0  0  0  0  0  0  0  0  0
  -42.0078  -30.8635    3.0727 S   0  0  0  0  0  0  0  0  0  0  0  0
  -44.9351  -31.6959    1.9839 Cl  0  0  0  0  0  0  0  0  0  0  0  0
  -49.4932  -27.8671    3.7233 H   0  0  0  0  0  0  0  0  0  0  0  0
  -50.0725  -30.3795    7.1917 H   0  0  0  0  0  0  0  0  0  0  0  0
  -45.8634  -29.6595    0.2684 H   0  0  0  0  0  0  0  0  0  0  0  0
  -41.3693  -28.3523    1.9404 H   0  0  0  0  0  0  0  0  0  0  0  0
  -47.1519  -28.9161    3.7899 H   0  0  0  0  0  0  0  0  0  0  0  0
  -51.9583  -27.9359    3.3900 H   0  0  0  0  0  0  0  0  0  0  0  0
  -52.5091  -30.3286    6.6949 H   0  0  0  0  0  0  0  0  0  0  0  0
  -44.7119  -27.6005   -1.7584 H   0  0  0  0  0  0  0  0  0  0  0  0
  -46.1033  -27.3777   -0.6834 H   0  0  0  0  0  0  0  0  0  0  0  0
  -45.1142  -25.4222    0.3574 H   0  0  0  0  0  0  0  0  0  0  0  0
  -44.9979  -25.2171   -1.3985 H   0  0  0  0  0  0  0  0  0  0  0  0
  -44.4249  -28.3568    4.4055 H   0  0  0  0  0  0  0  0  0  0  0  0
  -43.9578  -28.5354    6.0852 H   0  0  0  0  0  0  0  0  0  0  0  0
  -43.9915  -31.0175    5.8738 H   0  0  0  0  0  0  0  0  0  0  0  0
  -44.4654  -30.8932    4.1705 H   0  0  0  0  0  0  0  0  0  0  0  0
  -48.1197  -29.3212    7.8613 H   0  0  0  0  0  0  0  0  0  0  0  0
  -41.5056  -26.4046    0.5649 H   0  0  0  0  0  0  0  0  0  0  0  0
  -41.8423  -30.3114    5.3810 H   0  0  0  0  0  0  0  0  0  0  0  0
  1  6  1  0  0  0  0
  1  8  2  0  0  0  0
  2  7  2  0  0  0  0
  2  8  1  0  0  0  0
  3  9  2  0  0  0  0
  3 12  1  0  0  0  0
  4 10  2  0  0  0  0
  4 11  1  0  0  0  0
  5 13  2  0  0  0  0
  5 14  1  0  0  0  0
  6 20  2  0  0  0  0
  7 20  1  0  0  0  0
  8 13  1  0  0  0  0
  9 10  1  0  0  0  0
  9 16  1  0  0  0  0
 10 23  1  0  0  0  0
 11 12  2  0  0  0  0
 11 28  1  0  0  0  0
 12 29  1  0  0  0  0
 13 22  1  0  0  0  0
 14 18  1  0  0  0  0
 14 21  2  0  0  0  0
 15 17  1  0  0  0  0
 15 23  1  0  0  0  0
 15 25  2  0  0  0  0
 16 17  1  0  0  0  0
 18 19  1  0  0  0  0
 19 24  1  0  0  0  0
 21 22  1  0  0  0  0
 24 28  1  0  0  0  0
 26 28  2  0  0  0  0
 27 28  2  0  0  0  0
  1 30  1  0  0  0  0
  2 31  1  0  0  0  0
  3 32  1  0  0  0  0
  4 33  1  0  0  0  0
  5 34  1  0  0  0  0
  6 35  1  0  0  0  0
  7 36  1  0  0  0  0
 16 37  1  0  0  0  0
 16 38  1  0  0  0  0
 17 39  1  0  0  0  0
 17 40  1  0  0  0  0
 18 41  1  0  0  0  0
 18 42  1  0  0  0  0
 19 43  1  0  0  0  0
 19 44  1  0  0  0  0
 22 45  1  0  0  0  0
 23 46  1  0  0  0  0
 24 47  1  0  0  0  0
M  END
> <POSIT::Probability>
0.18

> <POSIT::Method>
FRED

> <ReceptorTitle>
UCSF-P4473-REFINED_LIGAND-BOUND-STATE_AALTB__DU__LA1_A-201(A)

> <OMEGA_C>
EH9Iwkpn48GvCY1ATslJwkyW7sEc0MpADo0zwoDw6sEsmSY/Fm0pwlwV5cEKlso/oHQ8wkEj6MFo
sptAoPxNwlyy48ESAIdAtDdPwoRh7sEQBsJAvGNGwln56MFiqq9APlExwpAu4cFoVYE+PD8swiJK
3sFA9jk/9bUrwqu97sH+Bf4/csQwwqCn8cGQwMI/bbVAwgzy6MFbV7dAyOo3wmqc6MFcTLZAA5Us
wiDOzMEwyMy+LQ80wtAt2sHgskG/7I4ywjCAzsH0Rg2/eR8ywrYY6MF686hA0bwvwpkU88HKap9A
ZmlRwskP6cFDs6BAdys5whij6cGWpN9ATYs+wjvR6cFEQN9A6OcpwjaY1MEI0KI+KxAqwuB38sEz
XpNA3mUqwkmhxMGW2k+/z2Aiwp159MF4EjpAYuUpwpPqAMIFBjlACQgowmro9sFUpkRAhL0zwkCR
/cE68f0/CflFwtHv3sEjS25AOUpIwiYJ88EtIuZAJHQ3wrhG7cH4cIk+KXolwnHR4sFcYPg/iZs8
whRU58HBjXJASNVPwrZ838FL9VhAVwlSwuGg8sH2PNZA+tgywujN3MGdE+G/xmk4wowF28Fm8y6/
5XQ0wrhgy8Go+7Y+4P0zwpC8ycGWA7O/FrMxwsra4sG1+YxAydQvwpNI5MEmusJAQPcvwtIj+MFU
9rtAkdwxwl4l98FYdIVAi3pAwr2R6sEgkPtAsAUmwpU808FQoBA/fV4nwr598sHMMKxA

> <OMEGA_E>
qRAvwQ==

> <OMEGA_NBR>
     21365

$$$$
CACHE3HI_1879_43
  -OEChem-03092622503D

 56 59  0     0  0  0  0  0  0999 V2000
  -45.7158  -29.7803    1.4052 C   0  0  0  0  0  0  0  0  0  0  0  0
  -50.8725  -29.4174    6.9681 C   0  0  0  0  0  0  0  0  0  0  0  0
  -44.4580  -29.2107    1.6054 C   0  0  0  0  0  0  0  0  0  0  0  0
  -49.6155  -29.4984    6.3709 C   0  0  0  0  0  0  0  0  0  0  0  0
  -50.5888  -28.7336    4.3192 C   0  0  0  0  0  0  0  0  0  0  0  0
  -44.8332  -31.9532    1.9932 C   0  0  0  0  0  0  0  0  0  0  0  0
  -51.8797  -28.6617    4.8994 C   0  0  0  0  0  0  0  0  0  0  0  0
  -45.9044  -31.1485    1.6035 C   0  0  0  0  0  0  0  0  0  0  0  0
  -52.0167  -28.9844    6.2590 C   0  0  0  0  0  0  0  0  0  0  0  0
  -43.3896  -30.0126    2.0080 C   0  0  0  0  0  0  0  0  0  0  0  0
  -43.5722  -31.3871    2.1804 C   0  0  0  0  0  0  0  0  0  0  0  0
  -49.4725  -29.1467    5.0414 C   0  0  0  0  0  0  0  0  0  0  0  0
  -54.4554  -28.4721    6.8355 C   0  0  0  0  0  0  0  0  0  0  0  0
  -52.9632  -28.2271    3.9487 C   0  0  0  0  0  0  0  0  0  0  0  0
  -54.7942  -27.7583    5.5609 C   0  0  0  0  0  0  0  0  0  0  0  0
  -54.3902  -28.5542    4.3421 C   0  0  0  0  0  0  0  0  0  0  0  0
  -41.2732  -30.2198    2.9378 C   0  0  0  0  0  0  0  0  0  0  0  0
  -41.2714  -31.6261    2.3695 C   0  0  0  0  0  0  0  0  0  0  0  0
  -47.3469  -33.2967    1.6549 C   0  0  0  0  0  0  0  0  0  0  0  0
  -47.7236  -31.5593   -0.0754 C   0  0  0  0  0  0  0  0  0  0  0  0
  -48.3515  -31.0869    2.3112 C   0  0  0  0  0  0  0  0  0  0  0  0
  -47.2981  -31.7706    1.3971 C   0  0  0  0  0  0  0  0  0  0  0  0
  -53.1891  -28.9443    7.0502 N   0  0  0  0  0  0  0  0  0  0  0  0
  -47.8559  -30.8061    3.6660 N   0  0  0  0  0  0  0  0  0  0  0  0
  -55.3189  -28.5747    7.7156 O   0  0  0  0  0  0  0  0  0  0  0  0
  -46.8762  -29.0729    5.3010 O   0  0  0  0  0  0  0  0  0  0  0  0
  -47.9178  -28.2838    3.1532 O   0  0  0  0  0  0  0  0  0  0  0  0
  -42.1841  -29.3923    2.2090 O   0  0  0  0  0  0  0  0  0  0  0  0
  -42.5555  -32.2315    2.5422 O   0  0  0  0  0  0  0  0  0  0  0  0
  -47.9045  -29.2107    4.2770 S   0  0  0  0  0  0  0  0  0  0  0  0
  -46.5435  -29.1500    1.0898 H   0  0  0  0  0  0  0  0  0  0  0  0
  -50.9544  -29.7155    8.0132 H   0  0  0  0  0  0  0  0  0  0  0  0
  -44.3168  -28.1472    1.4360 H   0  0  0  0  0  0  0  0  0  0  0  0
  -48.7664  -29.8423    6.9531 H   0  0  0  0  0  0  0  0  0  0  0  0
  -50.4593  -28.4470    3.2757 H   0  0  0  0  0  0  0  0  0  0  0  0
  -44.9830  -33.0170    2.1615 H   0  0  0  0  0  0  0  0  0  0  0  0
  -52.9114  -27.1353    3.8410 H   0  0  0  0  0  0  0  0  0  0  0  0
  -52.7437  -28.6498    2.9597 H   0  0  0  0  0  0  0  0  0  0  0  0
  -55.8587  -27.5010    5.5659 H   0  0  0  0  0  0  0  0  0  0  0  0
  -54.2348  -26.8147    5.5616 H   0  0  0  0  0  0  0  0  0  0  0  0
  -55.0769  -28.3871    3.5035 H   0  0  0  0  0  0  0  0  0  0  0  0
  -54.4382  -29.6221    4.5880 H   0  0  0  0  0  0  0  0  0  0  0  0
  -41.5976  -30.2330    3.9826 H   0  0  0  0  0  0  0  0  0  0  0  0
  -40.2759  -29.7655    2.8953 H   0  0  0  0  0  0  0  0  0  0  0  0
  -41.0556  -31.6022    1.2967 H   0  0  0  0  0  0  0  0  0  0  0  0
  -40.5176  -32.2581    2.8554 H   0  0  0  0  0  0  0  0  0  0  0  0
  -48.3504  -33.7089    1.5000 H   0  0  0  0  0  0  0  0  0  0  0  0
  -47.0386  -33.5412    2.6789 H   0  0  0  0  0  0  0  0  0  0  0  0
  -46.6692  -33.8321    0.9788 H   0  0  0  0  0  0  0  0  0  0  0  0
  -48.7143  -31.9889   -0.2665 H   0  0  0  0  0  0  0  0  0  0  0  0
  -47.7784  -30.4976   -0.3437 H   0  0  0  0  0  0  0  0  0  0  0  0
  -47.0160  -32.0351   -0.7647 H   0  0  0  0  0  0  0  0  0  0  0  0
  -48.6955  -30.1328    1.8972 H   0  0  0  0  0  0  0  0  0  0  0  0
  -49.2375  -31.7229    2.4242 H   0  0  0  0  0  0  0  0  0  0  0  0
  -53.0818  -29.3737    7.9672 H   0  0  0  0  0  0  0  0  0  0  0  0
  -47.1477  -31.4547    4.0309 H   0  0  0  0  0  0  0  0  0  0  0  0
  1  3  2  0  0  0  0
  1  8  1  0  0  0  0
  2  4  2  0  0  0  0
  2  9  1  0  0  0  0
  3 10  1  0  0  0  0
  4 12  1  0  0  0  0
  5  7  1  0  0  0  0
  5 12  2  0  0  0  0
  6  8  2  0  0  0  0
  6 11  1  0  0  0  0
  7  9  2  0  0  0  0
  7 14  1  0  0  0  0
  8 22  1  0  0  0  0
  9 23  1  0  0  0  0
 10 11  2  0  0  0  0
 10 28  1  0  0  0  0
 11 29  1  0  0  0  0
 12 30  1  0  0  0  0
 13 15  1  0  0  0  0
 13 23  1  0  0  0  0
 13 25  2  0  0  0  0
 14 16  1  0  0  0  0
 15 16  1  0  0  0  0
 17 18  1  0  0  0  0
 17 28  1  0  0  0  0
 18 29  1  0  0  0  0
 19 22  1  0  0  0  0
 20 22  1  0  0  0  0
 21 22  1  0  0  0  0
 21 24  1  0  0  0  0
 24 30  1  0  0  0  0
 26 30  2  0  0  0  0
 27 30  2  0  0  0  0
  1 31  1  0  0  0  0
  2 32  1  0  0  0  0
  3 33  1  0  0  0  0
  4 34  1  0  0  0  0
  5 35  1  0  0  0  0
  6 36  1  0  0  0  0
 14 37  1  0  0  0  0
 14 38  1  0  0  0  0
 15 39  1  0  0  0  0
 15 40  1  0  0  0  0
 16 41  1  0  0  0  0
 16 42  1  0  0  0  0
 17 43  1  0  0  0  0
 17 44  1  0  0  0  0
 18 45  1  0  0  0  0
 18 46  1  0  0  0  0
 19 47  1  0  0  0  0
 19 48  1  0  0  0  0
 19 49  1  0  0  0  0
 20 50  1  0  0  0  0
 20 51  1  0  0  0  0
 20 52  1  0  0  0  0
 21 53  1  0  0  0  0
 21 54  1  0  0  0  0
 23 55  1  0  0  0  0
 24 56  1  0  0  0  0
M  END
> <POSIT::Probability>
0.24

> <POSIT::Method>
FRED

> <ReceptorTitle>
UCSF-P4473-REFINED_LIGAND-BOUND-STATE_AALTB__DU__LA1_A-201(A)

> <OMEGA_C>
9dw2wh8+7sGY3bM/d31LwutW68Gj+t5AB9Uxwpav6cFEf80/UXZGwtP868Gq3stA5lpKwnLe5cEa
N4pANlUzwhOg/8H0IP8/1IRPwjhL5cFGyJxAF543wigw+cGEPs0/IxFQwhLg58FfSchA544twtsZ
8MGoggBA8kkuwrMY+8FuiwtA2ONFwl4s6cFsU6FATtJZwsPG48HEvNpAVdpTwgfR4cHMtnxATC1b
wu8Q3sEz87FAnI9Zwg1v5ME88opAthclwjbC8cEkBTxA8BUlwlMC/cHEpRdAQmM9wtgvBcI40tM/
/+Q+woh5/MGAZJq98WdBwt+x+MHA6hNARTE9wjUq/sH40rI/oMFUwvGN58F+m+FAc2w/wt9y9sGO
oGpAjUZdwgqZ5MHQ5fZARIE7wjSV6MGzoalA3Ks/wi5F4sEQzklAgrwowogj68F4Xw1A4jgqwhrt
AMLgsiJALZ4/wpSv6cE03YhAjiw6wiYz6cEAgIs/TdFLwj657cEFNgBBc0QxwnIt4cH8zbc/yhBD
whS97sG1f95AXtZJwmCT48GYpFFApO4zwmwRBMKcVgpARKVTwgYV2cFs03VAhvlSwswy5cFAbD1A
SW9fwvgB3MGqG7JAcvBYwpCE1sFd+LFAwU5cwrEY48G4OWBAwsBZwiT67MEN0ZJA6WMmwiDd8cFE
4n5Aihohwrwf7sEwTTlA6zgkwj3R/MFE+6U//hEiwkYIAcKuvjZA1mZBwvXVBsJw/r8/gic8wjkq
BsJYcitAR606whNUB8LgkXo/ettCwkLp/8HgeIi+FR0/whv788Fg/6++YRA8wusjAMKQxUO/O8hC
wgUQ8cFo2PI/OPNEworI/cHQJRtAuVNUwln96sGU8/5AQZc8wkGj+8HU/IBA

> <OMEGA_E>
nLLkwA==

> <OMEGA_NBR>
     22985

$$$$
CACHE3HI_1689_29
  -OEChem-03092622503D

 34 36  0     0  0  0  0  0  0999 V2000
  -48.9570  -32.3804    2.9589 C   0  0  0  0  0  0  0  0  0  0  0  0
  -50.0023  -32.4533    3.8840 C   0  0  0  0  0  0  0  0  0  0  0  0
  -47.9235  -30.5803    4.2118 C   0  0  0  0  0  0  0  0  0  0  0  0
  -41.7184  -29.5193    2.4929 C   0  0  0  0  0  0  0  0  0  0  0  0
  -42.6244  -30.5121    4.2327 C   0  0  0  0  0  0  0  0  0  0  0  0
  -47.9323  -31.4550    3.1231 C   0  0  0  0  0  0  0  0  0  0  0  0
  -42.7852  -30.3534    2.8777 C   0  0  0  0  0  0  0  0  0  0  0  0
  -50.0182  -31.5809    4.9939 C   0  0  0  0  0  0  0  0  0  0  0  0
  -48.9767  -30.6591    5.1373 C   0  0  0  0  0  0  0  0  0  0  0  0
  -50.6786  -30.6061    6.8592 C   0  0  0  0  0  0  0  0  0  0  0  0
  -46.2187  -30.0000    1.9584 C   0  0  0  0  0  0  0  0  0  0  0  0
  -44.3548  -28.8237    0.8467 C   0  0  0  0  0  0  0  0  0  0  0  0
  -46.8159  -31.3913    2.1104 C   0  0  0  0  0  0  0  0  0  0  0  0
  -43.8578  -30.9400    2.0054 C   0  0  0  0  0  0  0  0  0  0  0  0
  -40.9382  -29.1725    3.5200 N   0  0  0  0  0  0  0  0  0  0  0  0
  -50.9853  -31.5381    5.9882 N   0  0  0  0  0  0  0  0  0  0  0  0
  -41.5148  -29.7916    4.5641 N   0  0  0  0  0  0  0  0  0  0  0  0
  -44.8597  -29.9461    1.6280 N   0  0  0  0  0  0  0  0  0  0  0  0
  -46.9158  -28.9939    2.1226 O   0  0  0  0  0  0  0  0  0  0  0  0
  -49.2412  -29.7267    6.5644 S   0  0  0  0  0  0  0  0  0  0  0  0
  -51.6402  -30.2551    8.2336 Cl  0  0  0  0  0  0  0  0  0  0  0  0
  -48.9559  -33.0566    2.1075 H   0  0  0  0  0  0  0  0  0  0  0  0
  -50.7980  -33.1799    3.7456 H   0  0  0  0  0  0  0  0  0  0  0  0
  -47.1238  -29.8561    4.3396 H   0  0  0  0  0  0  0  0  0  0  0  0
  -41.4745  -29.1487    1.5071 H   0  0  0  0  0  0  0  0  0  0  0  0
  -43.1857  -31.0603    4.9760 H   0  0  0  0  0  0  0  0  0  0  0  0
  -44.0320  -28.0116    1.5045 H   0  0  0  0  0  0  0  0  0  0  0  0
  -43.5041  -29.1403    0.2366 H   0  0  0  0  0  0  0  0  0  0  0  0
  -45.1350  -28.4463    0.1800 H   0  0  0  0  0  0  0  0  0  0  0  0
  -47.2005  -31.7222    1.1388 H   0  0  0  0  0  0  0  0  0  0  0  0
  -46.0254  -32.0886    2.4114 H   0  0  0  0  0  0  0  0  0  0  0  0
  -43.4263  -31.3502    1.0864 H   0  0  0  0  0  0  0  0  0  0  0  0
  -44.3748  -31.7592    2.5159 H   0  0  0  0  0  0  0  0  0  0  0  0
  -41.0969  -29.6803    5.4794 H   0  0  0  0  0  0  0  0  0  0  0  0
  1  2  2  0  0  0  0
  1  6  1  0  0  0  0
  2  8  1  0  0  0  0
  3  6  2  0  0  0  0
  3  9  1  0  0  0  0
  4  7  1  0  0  0  0
  4 15  2  0  0  0  0
  5  7  2  0  0  0  0
  5 17  1  0  0  0  0
  6 13  1  0  0  0  0
  7 14  1  0  0  0  0
  8  9  2  0  0  0  0
  8 16  1  0  0  0  0
  9 20  1  0  0  0  0
 10 16  2  0  0  0  0
 10 20  1  0  0  0  0
 10 21  1  0  0  0  0
 11 13  1  0  0  0  0
 11 18  1  0  0  0  0
 11 19  2  0  0  0  0
 12 18  1  0  0  0  0
 14 18  1  0  0  0  0
 15 17  1  0  0  0  0
  1 22  1  0  0  0  0
  2 23  1  0  0  0  0
  3 24  1  0  0  0  0
  4 25  1  0  0  0  0
  5 26  1  0  0  0  0
 12 27  1  0  0  0  0
 12 28  1  0  0  0  0
 12 29  1  0  0  0  0
 13 30  1  0  0  0  0
 13 31  1  0  0  0  0
 14 32  1  0  0  0  0
 14 33  1  0  0  0  0
 17 34  1  0  0  0  0
M  END
> <POSIT::Probability>
0.05

> <POSIT::Method>
FRED

> <ReceptorTitle>
UCSF-P4486-REFINED_LIGAND-BOUND-STATE_A__DU__LA1_A-201(A)

> <OMEGA_C>
+NNDwoCFAcLmXT1AVwJIwjPQAcJOk3hAqLE/wmSk9MF0x4ZAnN8mwown7MGWix9AYH8qwtcY9MFv
codAsbo/wuOj+8Er4EdADiQrwq7T8sG+LDhAmhJIwqOl/MEkzp9AKOhDwuNF9cFwZKRA4LZKwjXZ
9MHFfttA6N84wgwA8MGArfo/RWsxwvOW5sEQw1g/gEM7wm0h+8GOEAdAYW4vwhOF98ExWQBAt8Aj
wkph6cFJR2FA9fBLwv1N/MGtn79AHQ8mwkdV7sHfDJJAWnAzwq+R78GYYtA/zak7wnHz58Hy2AdA
BvdEwjbQ7cGTD9JAlo9Owm8K8sHkvANBztJDwvY5BMKm4AZAGzFLwiu4BMIxuG9Ayn48wkfZ7sG5
3YpA7eUlwqIw6cHQ6MA/M74swol7+MFxO59AuiAwwrUX4MG6k8A/NQQuwlEf6cFgUHI+SIo0whaS
48HgUzg+V808wiDH/cGwxJE/Bxo4wq1aAMIZVBpAhrQtwkPN+sH8Dos/y38xwtIS/sE5BSFAL2Mk
wjRx7cH2Vq9A

> <OMEGA_E>
01EUwQ==

> <OMEGA_NBR>
      1172

$$$$
CACHE3HI_1691_24
  -OEChem-03092622503D

 46 47  0     0  0  0  0  0  0999 V2000
  -48.0214  -28.8665    4.1545 C   0  0  0  0  0  0  0  0  0  0  0  0
  -48.9835  -29.0399    5.1495 C   0  0  0  0  0  0  0  0  0  0  0  0
  -47.2493  -29.6303    6.7249 C   0  0  0  0  0  0  0  0  0  0  0  0
  -46.6732  -29.0750    4.4449 C   0  0  0  0  0  0  0  0  0  0  0  0
  -48.5976  -29.4219    6.4345 C   0  0  0  0  0  0  0  0  0  0  0  0
  -46.2873  -29.4570    5.7298 C   0  0  0  0  0  0  0  0  0  0  0  0
  -50.9582  -29.4329    7.3337 C   0  0  0  0  0  0  0  0  0  0  0  0
  -54.5920  -26.0325   10.6850 C   0  0  0  0  0  0  0  0  0  0  0  0
  -55.1931  -27.3780   11.0780 C   0  0  0  0  0  0  0  0  0  0  0  0
  -53.0838  -26.1274   10.4826 C   0  0  0  0  0  0  0  0  0  0  0  0
  -54.8347  -28.4703   10.0690 C   0  0  0  0  0  0  0  0  0  0  0  0
  -52.7167  -27.2183    9.4749 C   0  0  0  0  0  0  0  0  0  0  0  0
  -53.3177  -28.5826    9.8472 C   0  0  0  0  0  0  0  0  0  0  0  0
  -45.6676  -28.8790    3.3578 C   0  0  0  0  0  0  0  0  0  0  0  0
  -53.0038  -29.6173    8.7652 C   0  0  0  0  0  0  0  0  0  0  0  0
  -44.7275  -30.1543    7.7764 N   0  0  0  0  0  0  0  0  0  0  0  0
  -49.5744  -29.5970    7.4429 N   0  0  0  0  0  0  0  0  0  0  0  0
  -51.5677  -29.7018    8.5587 N   0  0  0  0  0  0  0  0  0  0  0  0
  -51.5790  -29.1027    6.3262 O   0  0  0  0  0  0  0  0  0  0  0  0
  -43.9022  -28.4556    6.0226 O   0  0  0  0  0  0  0  0  0  0  0  0
  -44.1352  -30.8794    5.3755 O   0  0  0  0  0  0  0  0  0  0  0  0
  -52.7001  -29.0197   11.0609 O   0  0  0  0  0  0  0  0  0  0  0  0
  -44.6042  -29.7255    6.1278 S   0  0  0  0  0  0  0  0  0  0  0  0
  -48.3337  -28.5689    3.1569 H   0  0  0  0  0  0  0  0  0  0  0  0
  -50.0313  -28.8750    4.9111 H   0  0  0  0  0  0  0  0  0  0  0  0
  -46.9494  -29.9267    7.7277 H   0  0  0  0  0  0  0  0  0  0  0  0
  -55.0622  -25.6798    9.7587 H   0  0  0  0  0  0  0  0  0  0  0  0
  -54.8143  -25.2888   11.4586 H   0  0  0  0  0  0  0  0  0  0  0  0
  -54.8351  -27.6620   12.0749 H   0  0  0  0  0  0  0  0  0  0  0  0
  -56.2831  -27.2871   11.1474 H   0  0  0  0  0  0  0  0  0  0  0  0
  -52.6980  -25.1626   10.1340 H   0  0  0  0  0  0  0  0  0  0  0  0
  -52.5974  -26.3341   11.4438 H   0  0  0  0  0  0  0  0  0  0  0  0
  -55.2318  -29.4236   10.4400 H   0  0  0  0  0  0  0  0  0  0  0  0
  -55.3372  -28.2553    9.1175 H   0  0  0  0  0  0  0  0  0  0  0  0
  -53.0672  -26.9154    8.4800 H   0  0  0  0  0  0  0  0  0  0  0  0
  -51.6230  -27.2868    9.4270 H   0  0  0  0  0  0  0  0  0  0  0  0
  -45.3056  -27.8436    3.3344 H   0  0  0  0  0  0  0  0  0  0  0  0
  -46.1035  -29.0878    2.3728 H   0  0  0  0  0  0  0  0  0  0  0  0
  -44.8105  -29.5454    3.5091 H   0  0  0  0  0  0  0  0  0  0  0  0
  -53.3902  -30.5894    9.0761 H   0  0  0  0  0  0  0  0  0  0  0  0
  -53.5006  -29.3311    7.8366 H   0  0  0  0  0  0  0  0  0  0  0  0
  -44.9688  -29.4164    8.4485 H   0  0  0  0  0  0  0  0  0  0  0  0
  -45.1281  -31.0717    8.0057 H   0  0  0  0  0  0  0  0  0  0  0  0
  -49.2279  -29.8759    8.3578 H   0  0  0  0  0  0  0  0  0  0  0  0
  -50.9998  -30.0023    9.3402 H   0  0  0  0  0  0  0  0  0  0  0  0
  -52.9089  -28.3493   11.7274 H   0  0  0  0  0  0  0  0  0  0  0  0
  1  2  2  0  0  0  0
  1  4  1  0  0  0  0
  2  5  1  0  0  0  0
  3  5  2  0  0  0  0
  3  6  1  0  0  0  0
  4  6  2  0  0  0  0
  4 14  1  0  0  0  0
  5 17  1  0  0  0  0
  6 23  1  0  0  0  0
  7 17  1  0  0  0  0
  7 18  1  0  0  0  0
  7 19  2  0  0  0  0
  8  9  1  0  0  0  0
  8 10  1  0  0  0  0
  9 11  1  0  0  0  0
 10 12  1  0  0  0  0
 11 13  1  0  0  0  0
 12 13  1  0  0  0  0
 13 15  1  0  0  0  0
 13 22  1  0  0  0  0
 15 18  1  0  0  0  0
 16 23  1  0  0  0  0
 20 23  2  0  0  0  0
 21 23  2  0  0  0  0
  1 24  1  0  0  0  0
  2 25  1  0  0  0  0
  3 26  1  0  0  0  0
  8 27  1  0  0  0  0
  8 28  1  0  0  0  0
  9 29  1  0  0  0  0
  9 30  1  0  0  0  0
 10 31  1  0  0  0  0
 10 32  1  0  0  0  0
 11 33  1  0  0  0  0
 11 34  1  0  0  0  0
 12 35  1  0  0  0  0
 12 36  1  0  0  0  0
 14 37  1  0  0  0  0
 14 38  1  0  0  0  0
 14 39  1  0  0  0  0
 15 40  1  0  0  0  0
 15 41  1  0  0  0  0
 16 42  1  0  0  0  0
 16 43  1  0  0  0  0
 17 44  1  0  0  0  0
 18 45  1  0  0  0  0
 22 46  1  0  0  0  0
M  END
> <POSIT::Probability>
0.05

> <POSIT::Method>
FRED

> <ReceptorTitle>
UCSF-P4486-REFINED_LIGAND-BOUND-STATE_A__DU__LA1_A-201(A)

> <OMEGA_C>
8xVAwqvu5sGY8YRAHe9Dwq5R6MHYyKRATv88wvMK7cH+MddAZLE6wqSZ6MFUPI5A7mNCwvpf68FY
581ANSY5wvCn68HYWrdALdVLwpt268GgrepAQl5awnxC0MH19SpBv8VcwhIG28FaPzFBxlVUwvoE
0cHauCdBuVZbwh/D48HIGiFB6N1Swhy/2cFKmRdBSEVVwhKp5MEOjh1Blas2wiQI58Ho5lZA5wNU
wkDw7MFRPgxB++gywgY88cGC2PhANUxGwprG7ME6LO5AXkVOwlyd7cFA8AhB3lBOwkbS6MFScMpA
3Jsvwgul48FgucBAboowwgQJ98HQA6xA4MxSwkgo6MFv+TBBvmoywsDN7cHOFsRAtFVBwhqN5MGA
CkpACiBIwvr/5sHoJ51ALsw7wtFp78ECSfdAtD9cwjBwzcHTIxxB4kFbwpBPysFUVjdBK1dbws9L
3cH0MkFB2iFhwgJM2sGcWzJBvMpSwvVMycH4JCJBuGNSwlKs0sHAGTdBVe1cwnRj68ElCidBV1ld
wvAK4sFU4RFBzkRUwrxS18EyrgdB7H1OwmBL2sHa1BZB8zg1wsa/3sHoZlVA8Wk4wsyz6MGI3BdA
7z0zwvFc7MHQlGBAjY9VwhS39MHTNxFBngBWwgam6sHExfpAGuAzwsRU68EHLQdBJIM0wsmS+MFm
FwBBVulEwuUB78FiuQVBxf9LwqsE8MFGcRVBrqJTwlLL4sFAoztB

> <OMEGA_E>
AAkCwQ==

> <OMEGA_NBR>
      2578

$$$$
CACHE3HI_1691_31
  -OEChem-03092622503D

 47 48  0     0  0  0  0  0  0999 V2000
  -48.6473  -28.6324    4.3699 C   0  0  0  0  0  0  0  0  0  0  0  0
  -49.4507  -28.8270    5.4935 C   0  0  0  0  0  0  0  0  0  0  0  0
  -47.5306  -29.6139    6.7312 C   0  0  0  0  0  0  0  0  0  0  0  0
  -47.2856  -28.9286    4.4271 C   0  0  0  0  0  0  0  0  0  0  0  0
  -48.8925  -29.3178    6.6740 C   0  0  0  0  0  0  0  0  0  0  0  0
  -46.7274  -29.4194    5.6076 C   0  0  0  0  0  0  0  0  0  0  0  0
  -51.0795  -29.2734    7.9373 C   0  0  0  0  0  0  0  0  0  0  0  0
  -54.6460  -26.1661    9.9929 C   0  0  0  0  0  0  0  0  0  0  0  0
  -55.2752  -27.5096   10.3440 C   0  0  0  0  0  0  0  0  0  0  0  0
  -53.2169  -26.3228    9.4843 C   0  0  0  0  0  0  0  0  0  0  0  0
  -54.4108  -28.2994   11.3274 C   0  0  0  0  0  0  0  0  0  0  0  0
  -52.3503  -27.1110   10.4671 C   0  0  0  0  0  0  0  0  0  0  0  0
  -52.9547  -28.4789   10.8502 C   0  0  0  0  0  0  0  0  0  0  0  0
  -46.4523  -28.7071    3.2073 C   0  0  0  0  0  0  0  0  0  0  0  0
  -52.8834  -29.4553    9.6638 C   0  0  0  0  0  0  0  0  0  0  0  0
  -52.1763  -29.0474   11.9431 N   0  0  0  0  0  0  0  0  0  0  0  0
  -44.9120  -30.3373    7.3309 N   0  0  0  0  0  0  0  0  0  0  0  0
  -49.7084  -29.5143    7.8131 N   0  0  0  0  0  0  0  0  0  0  0  0
  -51.5073  -29.5970    9.2257 N   0  0  0  0  0  0  0  0  0  0  0  0
  -51.8290  -28.8420    7.0646 O   0  0  0  0  0  0  0  0  0  0  0  0
  -44.2693  -28.5626    5.5760 O   0  0  0  0  0  0  0  0  0  0  0  0
  -44.7479  -30.9198    4.8259 O   0  0  0  0  0  0  0  0  0  0  0  0
  -45.0223  -29.7997    5.7135 S   0  0  0  0  0  0  0  0  0  0  0  0
  -49.0931  -28.2496    3.4555 H   0  0  0  0  0  0  0  0  0  0  0  0
  -50.5108  -28.5931    5.4367 H   0  0  0  0  0  0  0  0  0  0  0  0
  -47.0961  -29.9951    7.6528 H   0  0  0  0  0  0  0  0  0  0  0  0
  -55.2523  -25.6708    9.2238 H   0  0  0  0  0  0  0  0  0  0  0  0
  -54.6552  -25.5125   10.8731 H   0  0  0  0  0  0  0  0  0  0  0  0
  -56.2742  -27.3496   10.7657 H   0  0  0  0  0  0  0  0  0  0  0  0
  -55.4137  -28.0966    9.4289 H   0  0  0  0  0  0  0  0  0  0  0  0
  -53.2316  -26.8415    8.5177 H   0  0  0  0  0  0  0  0  0  0  0  0
  -52.7786  -25.3350    9.2980 H   0  0  0  0  0  0  0  0  0  0  0  0
  -54.4366  -27.8051   12.3068 H   0  0  0  0  0  0  0  0  0  0  0  0
  -54.8686  -29.2871   11.4710 H   0  0  0  0  0  0  0  0  0  0  0  0
  -51.3609  -27.2652   10.0124 H   0  0  0  0  0  0  0  0  0  0  0  0
  -52.1795  -26.5012   11.3653 H   0  0  0  0  0  0  0  0  0  0  0  0
  -46.0360  -27.6922    3.1902 H   0  0  0  0  0  0  0  0  0  0  0  0
  -47.0488  -28.8235    2.2938 H   0  0  0  0  0  0  0  0  0  0  0  0
  -45.6243  -29.4248    3.1778 H   0  0  0  0  0  0  0  0  0  0  0  0
  -53.2768  -30.4210    9.9785 H   0  0  0  0  0  0  0  0  0  0  0  0
  -53.5029  -29.0742    8.8528 H   0  0  0  0  0  0  0  0  0  0  0  0
  -52.5999  -29.9268   12.2148 H   0  0  0  0  0  0  0  0  0  0  0  0
  -52.2430  -28.4268   12.7415 H   0  0  0  0  0  0  0  0  0  0  0  0
  -44.9998  -29.6375    8.0773 H   0  0  0  0  0  0  0  0  0  0  0  0
  -45.3270  -31.2472    7.5642 H   0  0  0  0  0  0  0  0  0  0  0  0
  -49.2406  -29.8743    8.6416 H   0  0  0  0  0  0  0  0  0  0  0  0
  -50.8414  -29.9804    9.8854 H   0  0  0  0  0  0  0  0  0  0  0  0
  1  2  2  0  0  0  0
  1  4  1  0  0  0  0
  2  5  1  0  0  0  0
  3  5  2  0  0  0  0
  3  6  1  0  0  0  0
  4  6  2  0  0  0  0
  4 14  1  0  0  0  0
  5 18  1  0  0  0  0
  6 23  1  0  0  0  0
  7 18  1  0  0  0  0
  7 19  1  0  0  0  0
  7 20  2  0  0  0  0
  8  9  1  0  0  0  0
  8 10  1  0  0  0  0
  9 11  1  0  0  0  0
 10 12  1  0  0  0  0
 11 13  1  0  0  0  0
 12 13  1  0  0  0  0
 13 15  1  0  0  0  0
 13 16  1  0  0  0  0
 15 19  1  0  0  0  0
 17 23  1  0  0  0  0
 21 23  2  0  0  0  0
 22 23  2  0  0  0  0
  1 24  1  0  0  0  0
  2 25  1  0  0  0  0
  3 26  1  0  0  0  0
  8 27  1  0  0  0  0
  8 28  1  0  0  0  0
  9 29  1  0  0  0  0
  9 30  1  0  0  0  0
 10 31  1  0  0  0  0
 10 32  1  0  0  0  0
 11 33  1  0  0  0  0
 11 34  1  0  0  0  0
 12 35  1  0  0  0  0
 12 36  1  0  0  0  0
 14 37  1  0  0  0  0
 14 38  1  0  0  0  0
 14 39  1  0  0  0  0
 15 40  1  0  0  0  0
 15 41  1  0  0  0  0
 16 42  1  0  0  0  0
 16 43  1  0  0  0  0
 17 44  1  0  0  0  0
 17 45  1  0  0  0  0
 18 46  1  0  0  0  0
 19 47  1  0  0  0  0
M  END
> <POSIT::Probability>
0.05

> <POSIT::Method>
FRED

> <ReceptorTitle>
UCSF-P4486-REFINED_LIGAND-BOUND-STATE_A__DU__LA1_A-201(A)

> <OMEGA_C>
4pZCwjAP5cE21otAes1FwqSd5sH6yq9AXR8+wlPp7ME+ZtdAaiQ9wq5t58Eqq41A5ZFDwtWK6sF4
kdVA1ug6wt5a68GmcbNAdVFMwgAw6sEK/v1AfJVawiBU0cEV4x9Bxhldwp8T3MERgSVBGt5UwhqV
0sGmvxdBqqRZwhpl4sHoPDVBsGZRwm7j2MFKeSdBltFTwrfU48Gami1BIs85whWo5cGERE1AoIhT
wmik68HFnhpBirRQwglh6MHkFj9B8KUzwsey8sHUlupAWtVGwlAd7MG0BPpAbgdOwrLG7MFwnBNB
6lBPwlS85sHyEOJAvxMxwiyA5MEvbrJA4v0ywrBb98HYbZpA1RY0wtxl7sEG1bZAVV9Ewkf/4cE4
J11AEwtKwpu+5MFG+a1AcGI8wgj278G+4/RAZQJdwtBdzcGSlBNB+Z5awoMZzME6+C1B0xhhwvTL
2sFmQCxBladdwuDF4MHe3BZBHe1Uwmu71sGiSAhBSR1TwhiuysGMxBRBDr9Zwuhw3sF36ERBbnlb
wvpL6sENiTdBjHFNwigf2sH1MiBB0rdQwooC1MEm2DVB5SQ4wqyJ3cHILExA/DE8woyW5sEkzhJA
Tn82wg5m68HAYUtAbRtVwj5e88HBpx9B7AJWwgyY6MFBpQ1BTWZSwhlq78Gib0NB0/hQwgFq48FW
3UtB1f8zwp4Z7cF0PAFBzE41wlD6+cFODvJAX/ZEwqb+7sEFRApBjF1LwtjX78GdKh5B

> <OMEGA_E>
jtP2wA==

> <OMEGA_NBR>
      4004

$$$$
CACHE3HI_1695_16
  -OEChem-03092622503D

 39 41  0     0  0  0  0  0  0999 V2000
  -44.9894  -32.6537    3.1493 C   0  0  0  0  0  0  0  0  0  0  0  0
  -43.9637  -31.7035    3.2139 C   0  0  0  0  0  0  0  0  0  0  0  0
  -46.0772  -31.3643    1.4467 C   0  0  0  0  0  0  0  0  0  0  0  0
  -46.0403  -32.4915    2.2593 C   0  0  0  0  0  0  0  0  0  0  0  0
  -45.0606  -30.3947    1.5187 C   0  0  0  0  0  0  0  0  0  0  0  0
  -43.9577  -30.5668    2.3860 C   0  0  0  0  0  0  0  0  0  0  0  0
  -49.3256  -30.8009    5.6163 C   0  0  0  0  0  0  0  0  0  0  0  0
  -48.3978  -32.2151    3.9710 C   0  0  0  0  0  0  0  0  0  0  0  0
  -41.1449  -32.0251    1.9363 C   0  0  0  0  0  0  0  0  0  0  0  0
  -41.2279  -31.3061    3.0578 C   0  0  0  0  0  0  0  0  0  0  0  0
  -47.1030  -33.4800    2.1904 C   0  0  0  0  0  0  0  0  0  0  0  0
  -41.6204  -29.8781    2.9663 C   0  0  0  0  0  0  0  0  0  0  0  0
  -45.1632  -29.1938    0.6223 C   0  0  0  0  0  0  0  0  0  0  0  0
  -44.5617  -28.0051    1.3365 C   0  0  0  0  0  0  0  0  0  0  0  0
  -43.1204  -28.3052    1.7106 C   0  0  0  0  0  0  0  0  0  0  0  0
  -50.1635  -30.1483    6.6419 C   0  0  0  0  0  0  0  0  0  0  0  0
  -48.1652  -30.3527    5.1860 N   0  0  0  0  0  0  0  0  0  0  0  0
  -47.6215  -31.1829    4.2214 N   0  0  0  0  0  0  0  0  0  0  0  0
  -42.8834  -29.5877    2.4057 N   0  0  0  0  0  0  0  0  0  0  0  0
  -48.1883  -33.2743    3.0539 N   0  0  0  0  0  0  0  0  0  0  0  0
  -46.9865  -34.4382    1.4087 O   0  0  0  0  0  0  0  0  0  0  0  0
  -40.8063  -29.0744    3.4199 O   0  0  0  0  0  0  0  0  0  0  0  0
  -49.6357  -28.9872    7.1473 F   0  0  0  0  0  0  0  0  0  0  0  0
  -50.3886  -30.9394    7.7385 F   0  0  0  0  0  0  0  0  0  0  0  0
  -51.4130  -29.7934    6.2002 F   0  0  0  0  0  0  0  0  0  0  0  0
  -49.8483  -32.2622    4.8856 S   0  0  0  0  0  0  0  0  0  0  0  0
  -44.9567  -33.5131    3.8163 H   0  0  0  0  0  0  0  0  0  0  0  0
  -43.2001  -31.8805    3.9636 H   0  0  0  0  0  0  0  0  0  0  0  0
  -46.9018  -31.2297    0.7503 H   0  0  0  0  0  0  0  0  0  0  0  0
  -40.8633  -33.0728    1.9388 H   0  0  0  0  0  0  0  0  0  0  0  0
  -41.3631  -31.5651    0.9783 H   0  0  0  0  0  0  0  0  0  0  0  0
  -41.0182  -31.7288    4.0322 H   0  0  0  0  0  0  0  0  0  0  0  0
  -44.6259  -29.3603   -0.3075 H   0  0  0  0  0  0  0  0  0  0  0  0
  -46.2118  -29.0099    0.4014 H   0  0  0  0  0  0  0  0  0  0  0  0
  -44.5977  -27.1140    0.6967 H   0  0  0  0  0  0  0  0  0  0  0  0
  -45.1441  -27.7765    2.2359 H   0  0  0  0  0  0  0  0  0  0  0  0
  -42.5275  -28.2722    0.7744 H   0  0  0  0  0  0  0  0  0  0  0  0
  -42.7065  -27.5033    2.3594 H   0  0  0  0  0  0  0  0  0  0  0  0
  -48.9218  -33.9784    3.0170 H   0  0  0  0  0  0  0  0  0  0  0  0
  1  2  1  0  0  0  0
  1  4  2  0  0  0  0
  2  6  2  0  0  0  0
  3  4  1  0  0  0  0
  3  5  2  0  0  0  0
  4 11  1  0  0  0  0
  5  6  1  0  0  0  0
  5 13  1  0  0  0  0
  6 19  1  0  0  0  0
  7 16  1  0  0  0  0
  7 17  2  0  0  0  0
  7 26  1  0  0  0  0
  8 18  2  0  0  0  0
  8 20  1  0  0  0  0
  8 26  1  0  0  0  0
  9 10  2  0  0  0  0
 10 12  1  0  0  0  0
 11 20  1  0  0  0  0
 11 21  2  0  0  0  0
 12 19  1  0  0  0  0
 12 22  2  0  0  0  0
 13 14  1  0  0  0  0
 14 15  1  0  0  0  0
 15 19  1  0  0  0  0
 16 23  1  0  0  0  0
 16 24  1  0  0  0  0
 16 25  1  0  0  0  0
 17 18  1  0  0  0  0
  1 27  1  0  0  0  0
  2 28  1  0  0  0  0
  3 29  1  0  0  0  0
  9 30  1  0  0  0  0
  9 31  1  0  0  0  0
 10 32  1  0  0  0  0
 13 33  1  0  0  0  0
 13 34  1  0  0  0  0
 14 35  1  0  0  0  0
 14 36  1  0  0  0  0
 15 37  1  0  0  0  0
 15 38  1  0  0  0  0
 20 39  1  0  0  0  0
M  END
> <POSIT::Probability>
0.24

> <POSIT::Method>
FRED

> <ReceptorTitle>
UCSF-P4486-REFINED_LIGAND-BOUND-STATE_A__DU__LA1_A-201(A)

> <OMEGA_C>
KfUzwmqdAsKvjUlA3NovwrWg/cGhsE1AEU84wh3q+sGoLbk/Ryk4wk/3AcJYmBBAGj40wkMo88F8
Y8I/rNQvwtyI9MH3sxhAaE1FwjBo9sF3uLNAXZdBwlDcAML4JH5AZZQkwrEZAMJI2vc/VOkkwvNy
+sH6skNAdWk8wpDrBcLmLgxAT3smwmYG78Gy1z1AKKc0wt2M6cHgTB8/JD8ywocK4MFwEas/V3ss
wvZw4sHw9do/YqdIwrgv8cGNitRAMKlAwmzS8sHT86VAcnw+woF2+cHvFYdApYgrwqSz7MEq9xlA
yMBAwugYBcJYc0NAN/I7wrDACcJsUbQ/nDkjwnaY6MGK31pA7opGwuLl58HXtuRA5o1JwtKD98Hy
ofdA66ZNwtZY7sGmZ8ZAsmRHwoYMAcL0VpxAndMzwmENBsKVPXRA6swswjkL/8H8q31AdJs7wlvW
+cHoFUA/+HMjwpNKBMLwK/g/x3Mlwk2F/MHkcno/qRIkwn/U/cEUCIFA84AywuDh6sHgdZ2+6dg4
wjgU6MEwf80+BmQywnTp2MGIXTI/mZM0wkA23sFIGA9AHBwqwmst4sHoP0Y/atMqwrsG3MGq/xZA
6a9DwtjpB8IgF0FA

> <OMEGA_E>
F1vCwA==

> <OMEGA_NBR>
      5273

$$$$
CACHE3HI_1695_37
  -OEChem-03092622503D

 38 40  0     0  0  0  0  0  0999 V2000
  -47.5385  -33.3486    0.3761 C   0  0  0  0  0  0  0  0  0  0  0  0
  -46.6651  -33.6792    2.6044 C   0  0  0  0  0  0  0  0  0  0  0  0
  -46.3470  -32.7274    0.0018 C   0  0  0  0  0  0  0  0  0  0  0  0
  -45.4735  -33.0581    2.2302 C   0  0  0  0  0  0  0  0  0  0  0  0
  -47.6974  -33.8246    1.6775 C   0  0  0  0  0  0  0  0  0  0  0  0
  -45.3146  -32.5820    0.9287 C   0  0  0  0  0  0  0  0  0  0  0  0
  -46.9213  -29.1480    6.4954 C   0  0  0  0  0  0  0  0  0  0  0  0
  -45.6517  -29.4696    4.7574 C   0  0  0  0  0  0  0  0  0  0  0  0
  -43.7453  -29.8680    3.2602 C   0  0  0  0  0  0  0  0  0  0  0  0
  -46.0799  -30.2085    2.4322 C   0  0  0  0  0  0  0  0  0  0  0  0
  -43.3203  -29.4965    1.8434 C   0  0  0  0  0  0  0  0  0  0  0  0
  -45.6138  -29.8318    1.0296 C   0  0  0  0  0  0  0  0  0  0  0  0
  -49.8738  -34.5466    1.0457 C   0  0  0  0  0  0  0  0  0  0  0  0
  -46.8990  -29.2557    5.1155 N   0  0  0  0  0  0  0  0  0  0  0  0
  -45.7999  -29.2618    7.2069 N   0  0  0  0  0  0  0  0  0  0  0  0
  -45.1857  -29.6382    3.4472 N   0  0  0  0  0  0  0  0  0  0  0  0
  -44.1813  -30.1757    0.8414 N   0  0  0  0  0  0  0  0  0  0  0  0
  -43.6748  -31.9184   -0.9812 O   0  0  0  0  0  0  0  0  0  0  0  0
  -42.7638  -32.2622    1.3426 O   0  0  0  0  0  0  0  0  0  0  0  0
  -48.8597  -34.4310    2.0431 O   0  0  0  0  0  0  0  0  0  0  0  0
  -44.5781  -29.5289    6.0949 S   0  0  0  0  0  0  0  0  0  0  0  0
  -43.8071  -31.7958    0.4545 S   0  0  0  0  0  0  0  0  0  0  0  0
  -48.3886  -28.8647    7.3266 Cl  0  0  0  0  0  0  0  0  0  0  0  0
  -48.3390  -33.4593   -0.3504 H   0  0  0  0  0  0  0  0  0  0  0  0
  -46.7836  -34.0480    3.6196 H   0  0  0  0  0  0  0  0  0  0  0  0
  -46.2336  -32.3602   -1.0147 H   0  0  0  0  0  0  0  0  0  0  0  0
  -44.6758  -32.9508    2.9602 H   0  0  0  0  0  0  0  0  0  0  0  0
  -43.5247  -30.9254    3.4528 H   0  0  0  0  0  0  0  0  0  0  0  0
  -43.1647  -29.2723    3.9748 H   0  0  0  0  0  0  0  0  0  0  0  0
  -47.1070  -29.8484    2.5750 H   0  0  0  0  0  0  0  0  0  0  0  0
  -46.0945  -31.3013    2.5405 H   0  0  0  0  0  0  0  0  0  0  0  0
  -43.3702  -28.4065    1.6994 H   0  0  0  0  0  0  0  0  0  0  0  0
  -42.2751  -29.8046    1.6960 H   0  0  0  0  0  0  0  0  0  0  0  0
  -46.2215  -30.3819    0.2959 H   0  0  0  0  0  0  0  0  0  0  0  0
  -45.7665  -28.7564    0.8483 H   0  0  0  0  0  0  0  0  0  0  0  0
  -50.7474  -35.0491    1.4691 H   0  0  0  0  0  0  0  0  0  0  0  0
  -50.1585  -33.5464    0.7103 H   0  0  0  0  0  0  0  0  0  0  0  0
  -49.4882  -35.1166    0.1973 H   0  0  0  0  0  0  0  0  0  0  0  0
  1  3  2  0  0  0  0
  1  5  1  0  0  0  0
  2  4  1  0  0  0  0
  2  5  2  0  0  0  0
  3  6  1  0  0  0  0
  4  6  2  0  0  0  0
  5 20  1  0  0  0  0
  6 22  1  0  0  0  0
  7 14  1  0  0  0  0
  7 15  2  0  0  0  0
  7 23  1  0  0  0  0
  8 14  2  0  0  0  0
  8 16  1  0  0  0  0
  8 21  1  0  0  0  0
  9 11  1  0  0  0  0
  9 16  1  0  0  0  0
 10 12  1  0  0  0  0
 10 16  1  0  0  0  0
 11 17  1  0  0  0  0
 12 17  1  0  0  0  0
 13 20  1  0  0  0  0
 15 21  1  0  0  0  0
 17 22  1  0  0  0  0
 18 22  2  0  0  0  0
 19 22  2  0  0  0  0
  1 24  1  0  0  0  0
  2 25  1  0  0  0  0
  3 26  1  0  0  0  0
  4 27  1  0  0  0  0
  9 28  1  0  0  0  0
  9 29  1  0  0  0  0
 10 30  1  0  0  0  0
 10 31  1  0  0  0  0
 11 32  1  0  0  0  0
 11 33  1  0  0  0  0
 12 34  1  0  0  0  0
 12 35  1  0  0  0  0
 13 36  1  0  0  0  0
 13 37  1  0  0  0  0
 13 38  1  0  0  0  0
M  END
> <POSIT::Probability>
0.18

> <POSIT::Method>
HYBRID

> <ReceptorTitle>
UCSF-P4486-REFINED_LIGAND-BOUND-STATE_A__DU__LA1_A-201(A)

> <OMEGA_C>
eSc+wuxkBcLgi8A+CKk6woG3BsKyrSZAUWM5wtzoAsIA4O865+Q1wng7BML0ug5AJco+wl5MB8LG
ttY/M0I1wv5TAsIwwW0/Yq87wiov6cFx2s9AUps2wqnB68GFPJhAPfsuwqPx7sHsplBA0FE4wgar
8cHaqBtABEgtwub468F48+s/jHQ2wp2n7sGkyYM/w35Hwr4vCsLQ2YU/npg7wsQL6sFCsqNAFDM3
wj8Y6sGnnuZANL40wvca7cHTnlxAorkwwu9n8cGwZ1c//LIuwtNY/8FELnu/HQ4rwoEMAcKQ2as/
WHBDwmW5CcIQwgJAAVAywhc77ME8CcNAcjovwsJd/sGIsug+9I1Bwv7q5sGpc+pAF1tBwkrWBcKA
aLO+ZyI7wiQxCMIYp2dAMO84wttwAcLk4YG//bMywqTNA8IudD1AVRkuwlJn98Gq+lxArKgswqEt
6sEpY35Ajm08wnbJ7sFgzSRAzGA4wgBp+sHrlyJAEXstwoZA48HMhNk/qhkpwr9v7sHKFdk/2OI4
wjAO88EwgZc+5hA3wh0N5sGUJ1k/S/1KwkgyDMJsCrw/QqJIwosvBsIo1zU/5fNFwl53DMIA/0k+

> <OMEGA_E>
GgKRwA==

> <OMEGA_NBR>
      6527

$$$$
CACHE3HI_1695_77
  -OEChem-03092622503D

 47 49  0     1  0  0  0  0  0999 V2000
  -47.4545  -29.0435    5.3854 C   0  0  0  0  0  0  0  0  0  0  0  0
  -48.4206  -31.1428    4.6802 C   0  0  0  0  0  0  0  0  0  0  0  0
  -46.5635  -29.0941    4.3134 C   0  0  0  0  0  0  0  0  0  0  0  0
  -47.5296  -31.1934    3.6082 C   0  0  0  0  0  0  0  0  0  0  0  0
  -48.3832  -30.0679    5.5686 C   0  0  0  0  0  0  0  0  0  0  0  0
  -46.6008  -30.1690    3.4250 C   0  0  0  0  0  0  0  0  0  0  0  0
  -53.1704  -28.0037   11.6318 C   0  0  0  0  0  0  0  0  0  0  0  0
  -51.9881  -28.3611    9.9490 C   0  0  0  0  0  0  0  0  0  0  0  0
  -50.5751  -30.5439    6.7165 C   0  0  0  0  0  0  0  0  0  0  0  0
  -42.1123  -29.3743    3.9415 C   0  0  0  0  0  0  0  0  0  0  0  0
  -41.7666  -29.3848    2.4653 C   0  0  0  0  0  0  0  0  0  0  0  0
  -43.5163  -29.9582    3.9518 C   0  0  0  0  0  0  0  0  0  0  0  0
  -43.0656  -28.9529    1.7980 C   0  0  0  0  0  0  0  0  0  0  0  0
  -54.2693  -27.5000   12.4638 C   0  0  0  0  0  0  0  0  0  0  0  0
  -52.6529  -30.8058    8.1265 C   0  0  0  0  0  0  0  0  0  0  0  0
  -51.2250  -30.2766    8.0708 C   0  0  2  0  0  0  0  0  0  0  0  0
  -53.0953  -27.7455   10.2927 N   0  0  0  0  0  0  0  0  0  0  0  0
  -52.1792  -28.7404   12.1375 N   0  0  0  0  0  0  0  0  0  0  0  0
  -51.4367  -28.9553   11.0409 N   0  0  0  0  0  0  0  0  0  0  0  0
  -44.1467  -29.3994    2.7244 N   0  0  0  0  0  0  0  0  0  0  0  0
  -49.2748  -30.0177    6.6409 N   0  0  0  0  0  0  0  0  0  0  0  0
  -51.1715  -31.1417    5.8249 O   0  0  0  0  0  0  0  0  0  0  0  0
  -46.0465  -29.4536    0.9841 O   0  0  0  0  0  0  0  0  0  0  0  0
  -45.1148  -31.6249    1.8590 O   0  0  0  0  0  0  0  0  0  0  0  0
  -51.2298  -28.4726    8.3344 S   0  0  0  0  0  0  0  0  0  0  0  0
  -45.4715  -30.2324    2.0663 S   0  0  0  0  0  0  0  0  0  0  0  0
  -47.4160  -28.2015    6.0717 H   0  0  0  0  0  0  0  0  0  0  0  0
  -49.1403  -31.9466    4.8139 H   0  0  0  0  0  0  0  0  0  0  0  0
  -45.8434  -28.2913    4.1802 H   0  0  0  0  0  0  0  0  0  0  0  0
  -47.5676  -32.0350    2.9220 H   0  0  0  0  0  0  0  0  0  0  0  0
  -41.4121  -29.9568    4.5465 H   0  0  0  0  0  0  0  0  0  0  0  0
  -42.1241  -28.3450    4.3194 H   0  0  0  0  0  0  0  0  0  0  0  0
  -40.9309  -28.7241    2.2185 H   0  0  0  0  0  0  0  0  0  0  0  0
  -41.5026  -30.4014    2.1495 H   0  0  0  0  0  0  0  0  0  0  0  0
  -43.4771  -31.0514    3.8908 H   0  0  0  0  0  0  0  0  0  0  0  0
  -44.0730  -29.6597    4.8439 H   0  0  0  0  0  0  0  0  0  0  0  0
  -43.1199  -27.8628    1.7082 H   0  0  0  0  0  0  0  0  0  0  0  0
  -43.1639  -29.3937    0.8018 H   0  0  0  0  0  0  0  0  0  0  0  0
  -55.1221  -28.2041   12.5096 H   0  0  0  0  0  0  0  0  0  0  0  0
  -54.6882  -26.5500   12.0800 H   0  0  0  0  0  0  0  0  0  0  0  0
  -53.9402  -27.3165   13.5031 H   0  0  0  0  0  0  0  0  0  0  0  0
  -53.2750  -30.3581    7.3429 H   0  0  0  0  0  0  0  0  0  0  0  0
  -52.6963  -31.8960    8.0192 H   0  0  0  0  0  0  0  0  0  0  0  0
  -53.1104  -30.5595    9.0918 H   0  0  0  0  0  0  0  0  0  0  0  0
  -50.6378  -30.7467    8.8670 H   0  0  0  0  0  0  0  0  0  0  0  0
  -50.5893  -29.5053   11.1143 H   0  0  0  0  0  0  0  0  0  0  0  0
  -48.9376  -29.5348    7.4814 H   0  0  0  0  0  0  0  0  0  0  0  0
  1  3  2  0  0  0  0
  1  5  1  0  0  0  0
  2  4  1  0  0  0  0
  2  5  2  0  0  0  0
  3  6  1  0  0  0  0
  4  6  2  0  0  0  0
  5 21  1  0  0  0  0
  6 26  1  0  0  0  0
  7 14  1  0  0  0  0
  7 17  1  0  0  0  0
  7 18  2  0  0  0  0
  8 17  2  0  0  0  0
  8 19  1  0  0  0  0
  8 25  1  0  0  0  0
  9 16  1  0  0  0  0
  9 21  1  0  0  0  0
  9 22  2  0  0  0  0
 10 11  1  0  0  0  0
 10 12  1  0  0  0  0
 11 13  1  0  0  0  0
 12 20  1  0  0  0  0
 13 20  1  0  0  0  0
 15 16  1  0  0  0  0
 16 25  1  0  0  0  0
 18 19  1  0  0  0  0
 20 26  1  0  0  0  0
 23 26  2  0  0  0  0
 24 26  2  0  0  0  0
  1 27  1  0  0  0  0
  2 28  1  0  0  0  0
  3 29  1  0  0  0  0
  4 30  1  0  0  0  0
 10 31  1  0  0  0  0
 10 32  1  0  0  0  0
 11 33  1  0  0  0  0
 11 34  1  0  0  0  0
 12 35  1  0  0  0  0
 12 36  1  0  0  0  0
 13 37  1  0  0  0  0
 13 38  1  0  0  0  0
 14 39  1  0  0  0  0
 14 40  1  0  0  0  0
 14 41  1  0  0  0  0
 15 42  1  0  0  0  0
 15 43  1  0  0  0  0
 15 44  1  0  0  0  0
 16 45  1  0  0  0  0
 19 46  1  0  0  0  0
 21 47  1  0  0  0  0
M  END
> <POSIT::Probability>
0.05

> <POSIT::Method>
FRED

> <ReceptorTitle>
UCSF-P4486-REFINED_LIGAND-BOUND-STATE_A__DU__LA1_A-201(A)

> <OMEGA_C>
atE9whBZ6MGKVaxApq5Bwl8k+cE9xJVA+kA6wsbA6MG+B4pARB4+wiKM+cFY7WZAYIhBwhSL8ME8
MrJAQGc6whBa8cF/M1tAfq5Uwq4H4MGvGzpBx/NPwonj4sFOLx9B8ExKwgBa9MF27dZA9nIowpn+
6sE4QXxA9xAnwg0U68HJxh1AvhAuwlWq78Hi6nxAKEMswoKf58H4JOY/yhNZwgQA3MGKa0dBmpxS
wjdy9sEkBgJBcuZMwpI28sHtIQFBl2FUwsj23cEUryRBdbdQwlHs5cEbM0JBOL9Nwnek58GdpzBB
OpYwwuEx68EWXC5AYRlFwjYk8MFigtRAla9Mwk0i+cFOZbpAlS84wgCh68Hk63s/lnU0wtj//MHM
8u0/UetMwtDH48GGWQVBy+I1wufb8cFePgRA+6k9wrac4cHES8JApo9EwpaS/8FSC5pApl83wohU
4sHQw4VAOUU+wtgjAMIsAjtAAKYlwnOn78G5fJFAEH8owoDC4sGOOIpAO7kjwt/K5cFP/A1AtAIm
whg288EbkQlAmegtwlBp+ME5A3lAtEowwiBH7cGaAZtAw3oswh3n3sFspto/4KcswlQm68EYQk0/
/HxcwgOi4cGEJ0hBtcBawk9m1MGMR0FBw8JXwhyI2sGQDFhBkhlVwl7d8sEq+epABclSwgwr/8GV
TgBBAHFUwsJ59MH1dxFBKI1KwlD59cFm3w1BfVtKwugK7MET1DFBHsBDwjlH7MF+Z+9A

> <OMEGA_E>
4x4AwQ==

> <OMEGA_NBR>
      7961

$$$$
CACHE3HI_1704_22
  -OEChem-03092622503D

 45 47  0     0  0  0  0  0  0999 V2000
  -43.3079  -26.6432    1.3579 C   0  0  0  0  0  0  0  0  0  0  0  0
  -44.9928  -28.3253    0.9463 C   0  0  0  0  0  0  0  0  0  0  0  0
  -46.0573  -29.2349    6.2160 C   0  0  0  0  0  0  0  0  0  0  0  0
  -44.6794  -29.1711    5.9899 C   0  0  0  0  0  0  0  0  0  0  0  0
  -42.5593  -27.5712    2.0820 C   0  0  0  0  0  0  0  0  0  0  0  0
  -44.2442  -29.2532    1.6703 C   0  0  0  0  0  0  0  0  0  0  0  0
  -44.8718  -30.7330    4.1455 C   0  0  0  0  0  0  0  0  0  0  0  0
  -44.5247  -27.0205    0.7900 C   0  0  0  0  0  0  0  0  0  0  0  0
  -46.8642  -30.0574    5.4001 C   0  0  0  0  0  0  0  0  0  0  0  0
  -44.0969  -29.9115    4.9673 C   0  0  0  0  0  0  0  0  0  0  0  0
  -46.2553  -30.7923    4.3784 C   0  0  0  0  0  0  0  0  0  0  0  0
  -43.0274  -28.8759    2.2383 C   0  0  0  0  0  0  0  0  0  0  0  0
  -48.6534  -31.0577    4.5853 C   0  0  0  0  0  0  0  0  0  0  0  0
  -45.3053  -26.0538    0.0345 C   0  0  0  0  0  0  0  0  0  0  0  0
  -51.1293  -31.1277    5.0439 C   0  0  0  0  0  0  0  0  0  0  0  0
  -51.6612  -28.7059    8.0315 C   0  0  0  0  0  0  0  0  0  0  0  0
  -50.7915  -30.1451    6.1564 C   0  0  0  0  0  0  0  0  0  0  0  0
  -52.0208  -29.7116    6.9496 C   0  0  0  0  0  0  0  0  0  0  0  0
  -48.2383  -30.2201    5.5059 N   0  0  0  0  0  0  0  0  0  0  0  0
  -42.6865  -29.8327    4.7534 N   0  0  0  0  0  0  0  0  0  0  0  0
  -49.9789  -31.4938    4.3495 N   0  0  0  0  0  0  0  0  0  0  0  0
  -44.8427  -25.1068   -0.6108 O   0  0  0  0  0  0  0  0  0  0  0  0
  -52.2771  -31.5080    4.8363 O   0  0  0  0  0  0  0  0  0  0  0  0
  -40.6967  -29.6054    3.1132 O   0  0  0  0  0  0  0  0  0  0  0  0
  -42.4211  -31.3758    2.6724 O   0  0  0  0  0  0  0  0  0  0  0  0
  -46.6430  -26.2957    0.1045 O   0  0  0  0  0  0  0  0  0  0  0  0
  -47.4596  -31.7027    3.5436 S   0  0  0  0  0  0  0  0  0  0  0  0
  -42.0768  -30.0531    3.1574 S   0  0  0  0  0  0  0  0  0  0  0  0
  -42.9335  -25.6294    1.2419 H   0  0  0  0  0  0  0  0  0  0  0  0
  -45.9400  -28.6295    0.5082 H   0  0  0  0  0  0  0  0  0  0  0  0
  -46.5024  -28.6529    7.0181 H   0  0  0  0  0  0  0  0  0  0  0  0
  -44.0696  -28.5331    6.6252 H   0  0  0  0  0  0  0  0  0  0  0  0
  -41.6124  -27.2674    2.5203 H   0  0  0  0  0  0  0  0  0  0  0  0
  -44.6179  -30.2670    1.7859 H   0  0  0  0  0  0  0  0  0  0  0  0
  -44.4181  -31.3124    3.3461 H   0  0  0  0  0  0  0  0  0  0  0  0
  -51.1852  -27.8251    7.5882 H   0  0  0  0  0  0  0  0  0  0  0  0
  -52.5546  -28.3745    8.5703 H   0  0  0  0  0  0  0  0  0  0  0  0
  -50.9648  -29.1405    8.7557 H   0  0  0  0  0  0  0  0  0  0  0  0
  -50.0651  -30.6218    6.8255 H   0  0  0  0  0  0  0  0  0  0  0  0
  -50.3108  -29.2687    5.7052 H   0  0  0  0  0  0  0  0  0  0  0  0
  -52.4957  -30.5855    7.4115 H   0  0  0  0  0  0  0  0  0  0  0  0
  -52.7629  -29.2671    6.2760 H   0  0  0  0  0  0  0  0  0  0  0  0
  -42.1933  -29.1271    5.3229 H   0  0  0  0  0  0  0  0  0  0  0  0
  -50.1064  -32.1516    3.5830 H   0  0  0  0  0  0  0  0  0  0  0  0
  -47.1792  -25.6488   -0.4026 H   0  0  0  0  0  0  0  0  0  0  0  0
  1  5  2  0  0  0  0
  1  8  1  0  0  0  0
  2  6  1  0  0  0  0
  2  8  2  0  0  0  0
  3  4  2  0  0  0  0
  3  9  1  0  0  0  0
  4 10  1  0  0  0  0
  5 12  1  0  0  0  0
  6 12  2  0  0  0  0
  7 10  2  0  0  0  0
  7 11  1  0  0  0  0
  8 14  1  0  0  0  0
  9 11  2  0  0  0  0
  9 19  1  0  0  0  0
 10 20  1  0  0  0  0
 11 27  1  0  0  0  0
 12 28  1  0  0  0  0
 13 19  2  0  0  0  0
 13 21  1  0  0  0  0
 13 27  1  0  0  0  0
 14 22  2  0  0  0  0
 14 26  1  0  0  0  0
 15 17  1  0  0  0  0
 15 21  1  0  0  0  0
 15 23  2  0  0  0  0
 16 18  1  0  0  0  0
 17 18  1  0  0  0  0
 20 28  1  0  0  0  0
 24 28  2  0  0  0  0
 25 28  2  0  0  0  0
  1 29  1  0  0  0  0
  2 30  1  0  0  0  0
  3 31  1  0  0  0  0
  4 32  1  0  0  0  0
  5 33  1  0  0  0  0
  6 34  1  0  0  0  0
  7 35  1  0  0  0  0
 16 36  1  0  0  0  0
 16 37  1  0  0  0  0
 16 38  1  0  0  0  0
 17 39  1  0  0  0  0
 17 40  1  0  0  0  0
 18 41  1  0  0  0  0
 18 42  1  0  0  0  0
 20 43  1  0  0  0  0
 21 44  1  0  0  0  0
 26 45  1  0  0  0  0
M  END
> <POSIT::Probability>
0.05

> <POSIT::Method>
FRED

> <ReceptorTitle>
UCSF-P4486-REFINED_LIGAND-BOUND-STATE_A__DU__LA1_A-201(A)

> <OMEGA_C>
Vjstwlsl1cH4z60/oPgzwkOa4sEQQHI/sDo4wgnh6cGJ6cZAuLcywmJe6cHgrL9AwjwqwsCR3MG8
PgVAF/owwqEG6sF6zNU/r3wzwkbd9cGdp4RATRkywhEq2MHoOko/93Q7wnZ18MFizaxAN2MwwsxK
78EI9J5AaQU5wptW9sGoG4xAFBwswvIB58EKQA9AGp1CwkV2+MH6upJArDg1whlu0MGAMg09dIRM
wngF+cFvZ6FAEaVOwrCl5cH4gABBiipLwjgp8cGEAcVAVhVQwlyx7cHkYt5AEPRAwsTC8cEgMLBA
874qwnSp7sGsG5hAcepHwj3z+8HQLotA9l4zwszayMGSXRy/wxtRwk4Q/ME2w5pAb8kiwtLX7MH1
PkdALK8pwowB+8GNCCtAaJI6woZd0sFA89U9rdY9wiKf/cFjymJAo04owsps8MErEkpA3bsrwvgI
zcEU954/lsI3wkUJ5cGcGQI/bQI6wjw55cGMlOBARkcwwtFD5MHaAdRAJHMmwrYj2sHkSyFAs3gy
wuQi8sG2meQ/JKwxwrV/+sEmJ1ZAmr1MwsWZ3sHw0vJA8TdSwgL/4sEEIAlB6NtLwrgf6cFWFwxB
pEJIwnn59MHiatpASz5Jwkgm6sEkkbZAlftRwgOv9MFkK+1ANA1TwvIi6sHc1MhA6cUowkYE6cH0
VKpA9GxIwjCbAMKoUGVAdLc8wrQwzcFcJc6+

> <OMEGA_E>
ymnVwA==

> <OMEGA_NBR>
      9350

$$$$
CACHE3HI_1704_76
  -OEChem-03092622503D

 53 56  0     1  0  0  0  0  0999 V2000
  -48.6426  -29.5178    6.7276 C   0  0  0  0  0  0  0  0  0  0  0  0
  -49.9736  -29.5105    7.1545 C   0  0  0  0  0  0  0  0  0  0  0  0
  -50.7495  -29.6127    4.8597 C   0  0  0  0  0  0  0  0  0  0  0  0
  -48.3493  -29.5733    5.3477 C   0  0  0  0  0  0  0  0  0  0  0  0
  -49.4101  -29.6198    4.4380 C   0  0  0  0  0  0  0  0  0  0  0  0
  -51.0115  -29.5573    6.2305 C   0  0  0  0  0  0  0  0  0  0  0  0
  -47.1893  -29.6428    3.4727 C   0  0  0  0  0  0  0  0  0  0  0  0
  -44.7756  -29.6560    2.7699 C   0  0  0  0  0  0  0  0  0  0  0  0
  -44.6197  -31.8429    0.4072 C   0  0  0  0  0  0  0  0  0  0  0  0
  -41.7074  -29.4268    2.5983 C   0  0  0  0  0  0  0  0  0  0  0  0
  -41.7167  -30.9525    2.6380 C   0  0  0  0  0  0  0  0  0  0  0  0
  -54.5880  -26.6011    5.0084 C   0  0  0  0  0  0  0  0  0  0  0  0
  -55.1461  -26.6621    6.4168 C   0  0  0  0  0  0  0  0  0  0  0  0
  -42.7481  -28.8367    1.6461 C   0  0  0  0  0  0  0  0  0  0  0  0
  -42.2958  -31.5718    1.3727 C   0  0  0  0  0  0  0  0  0  0  0  0
  -53.7638  -27.8766    4.9286 C   0  0  0  0  0  0  0  0  0  0  0  0
  -53.9727  -27.1820    7.2366 C   0  0  0  0  0  0  0  0  0  0  0  0
  -43.9836  -29.7153    1.4738 C   0  0  1  0  0  0  0  0  0  0  0  0
  -44.2080  -33.2261   -0.0333 C   0  0  0  0  0  0  0  0  0  0  0  0
  -47.0834  -29.5872    4.7793 N   0  0  0  0  0  0  0  0  0  0  0  0
  -43.6540  -31.0910    1.0842 N   0  0  0  0  0  0  0  0  0  0  0  0
  -53.1679  -28.0047    6.2868 N   0  0  0  0  0  0  0  0  0  0  0  0
  -46.1420  -29.6756    2.5223 N   0  0  0  0  0  0  0  0  0  0  0  0
  -44.2032  -29.6066    3.8541 O   0  0  0  0  0  0  0  0  0  0  0  0
  -45.7603  -31.4422    0.1636 O   0  0  0  0  0  0  0  0  0  0  0  0
  -52.6617  -29.5891    8.2437 O   0  0  0  0  0  0  0  0  0  0  0  0
  -53.4115  -30.5490    6.0382 O   0  0  0  0  0  0  0  0  0  0  0  0
  -48.7761  -29.6820    2.8348 S   0  0  0  0  0  0  0  0  0  0  0  0
  -52.6681  -29.5474    6.7889 S   0  0  0  0  0  0  0  0  0  0  0  0
  -47.8390  -29.4808    7.4576 H   0  0  0  0  0  0  0  0  0  0  0  0
  -50.1856  -29.4681    8.2200 H   0  0  0  0  0  0  0  0  0  0  0  0
  -51.5586  -29.6499    4.1358 H   0  0  0  0  0  0  0  0  0  0  0  0
  -41.8659  -29.0305    3.6212 H   0  0  0  0  0  0  0  0  0  0  0  0
  -40.6996  -29.0729    2.3041 H   0  0  0  0  0  0  0  0  0  0  0  0
  -40.6890  -31.3233    2.7906 H   0  0  0  0  0  0  0  0  0  0  0  0
  -42.2962  -31.2915    3.5118 H   0  0  0  0  0  0  0  0  0  0  0  0
  -55.3679  -26.5580    4.2433 H   0  0  0  0  0  0  0  0  0  0  0  0
  -53.9425  -25.7219    4.8955 H   0  0  0  0  0  0  0  0  0  0  0  0
  -55.5083  -25.6941    6.7740 H   0  0  0  0  0  0  0  0  0  0  0  0
  -55.9785  -27.3749    6.4594 H   0  0  0  0  0  0  0  0  0  0  0  0
  -43.0359  -27.8411    2.0099 H   0  0  0  0  0  0  0  0  0  0  0  0
  -42.2785  -28.6881    0.6635 H   0  0  0  0  0  0  0  0  0  0  0  0
  -41.6291  -31.3663    0.5306 H   0  0  0  0  0  0  0  0  0  0  0  0
  -42.3551  -32.6605    1.4761 H   0  0  0  0  0  0  0  0  0  0  0  0
  -54.4087  -28.7369    4.7176 H   0  0  0  0  0  0  0  0  0  0  0  0
  -52.9826  -27.8075    4.1673 H   0  0  0  0  0  0  0  0  0  0  0  0
  -53.3449  -26.3588    7.5936 H   0  0  0  0  0  0  0  0  0  0  0  0
  -54.3179  -27.7609    8.0980 H   0  0  0  0  0  0  0  0  0  0  0  0
  -44.6146  -29.2190    0.7225 H   0  0  0  0  0  0  0  0  0  0  0  0
  -44.4401  -33.9326    0.7565 H   0  0  0  0  0  0  0  0  0  0  0  0
  -43.1422  -33.2320   -0.2352 H   0  0  0  0  0  0  0  0  0  0  0  0
  -44.7507  -33.4863   -0.9359 H   0  0  0  0  0  0  0  0  0  0  0  0
  -46.4379  -29.7187    1.5494 H   0  0  0  0  0  0  0  0  0  0  0  0
  1  2  2  0  0  0  0
  1  4  1  0  0  0  0
  2  6  1  0  0  0  0
  3  5  1  0  0  0  0
  3  6  2  0  0  0  0
  4  5  2  0  0  0  0
  4 20  1  0  0  0  0
  5 28  1  0  0  0  0
  6 29  1  0  0  0  0
  7 20  2  0  0  0  0
  7 23  1  0  0  0  0
  7 28  1  0  0  0  0
  8 18  1  0  0  0  0
  8 23  1  0  0  0  0
  8 24  2  0  0  0  0
  9 19  1  0  0  0  0
  9 21  1  0  0  0  0
  9 25  2  0  0  0  0
 10 11  1  0  0  0  0
 10 14  1  0  0  0  0
 11 15  1  0  0  0  0
 12 13  1  0  0  0  0
 12 16  1  0  0  0  0
 13 17  1  0  0  0  0
 14 18  1  0  0  0  0
 15 21  1  0  0  0  0
 16 22  1  0  0  0  0
 17 22  1  0  0  0  0
 18 21  1  0  0  0  0
 22 29  1  0  0  0  0
 26 29  2  0  0  0  0
 27 29  2  0  0  0  0
  1 30  1  0  0  0  0
  2 31  1  0  0  0  0
  3 32  1  0  0  0  0
 10 33  1  0  0  0  0
 10 34  1  0  0  0  0
 11 35  1  0  0  0  0
 11 36  1  0  0  0  0
 12 37  1  0  0  0  0
 12 38  1  0  0  0  0
 13 39  1  0  0  0  0
 13 40  1  0  0  0  0
 14 41  1  0  0  0  0
 14 42  1  0  0  0  0
 15 43  1  0  0  0  0
 15 44  1  0  0  0  0
 16 45  1  0  0  0  0
 16 46  1  0  0  0  0
 17 47  1  0  0  0  0
 17 48  1  0  0  0  0
 18 49  1  0  0  0  0
 19 50  1  0  0  0  0
 19 51  1  0  0  0  0
 19 52  1  0  0  0  0
 23 53  1  0  0  0  0
M  END
> <POSIT::Probability>
0.05

> <POSIT::Method>
FRED

> <ReceptorTitle>
UCSF-P4486-REFINED_LIGAND-BOUND-STATE_A__DU__LA1_A-201(A)

> <OMEGA_C>
/pFCwo0k7MGKSNdA6+RHwm4V7MGY8eRAgv9Kwsjm7MHpgptAuGVBwjOW7MH4H6tA9aNFwkr17MFu
BI5AwQtMwm517MFgYMdA18E8wmEk7cFOQV5ANxozwpY/7cE0RjFAmHoywjO+/sEgd9A+YdQmwi5q
68H4SiZA4t0mwrOe98Fu1ChAElpawhrP1MGTRKBAj5Vcwu1L1cFrVs1AB/4qwpOx5sFotNI/3i4p
wg+T/MEQtK8/Iw5XwkgD38Ekt51AAORXwsV02cH/kedALu8vwv247cGApbw/A9UwwoLnBMIANQi9
YlU8woCy7MHT75hArJ0uwnS6+MGIyIo/9atUwpAJ4MHeLclAcpE4wrpn7cG4bCFAHtAwwmna7MEG
qXZAjwo3woaJ+8EAjyc+laVSwoe27MFV5gNBX6VVwl5k9MHYOMFArRpDwrB07cHmbTVAJqxSwiFh
7MHEPtlAGFs/wqPY68ERpe5AGr5Iwra+68E5hQNBDDxOwgoz7cGCWIRAsnYnwpA+6MEAwmdAbcwi
wl2V6MHydRNAfsEiwi+W+sGYmDJAVC8pwuZU+sH6wWBAsHhdwsN21MHgyIdAE8VXwl/GzcEzqJxA
ewhewnSNzcFXxNhA++lfwsX/2sGEs85AwiQswoi63sH8oQBANx0pwjSB5cEQ2Ck/MIQmwj3u+sFg
1wc/qGspwlakAsLc8Lw/eqJZwh/l5cE19pZAJO5Twtx13sFJWoVANGFVwtze0sHy/vJAiEVZwmsW
3sF9kQFBYXUywoPA6cGo9jg/psIxwvq6B8LgqkE/lJEswpPtBMJAzHC+rAAzwvHxBcJgmG+/YcA5
wvW/7cEQUsY/

> <OMEGA_E>
E2XhwA==

> <OMEGA_NBR>
     10906

$$$$
CACHE3HI_1704_89
  -OEChem-03092622503D

 57 59  0     0  0  0  0  0  0999 V2000
  -53.1624  -26.4303   10.2994 C   0  0  0  0  0  0  0  0  0  0  0  0
  -52.3527  -27.4814   10.7300 C   0  0  0  0  0  0  0  0  0  0  0  0
  -53.8441  -26.5277    9.0864 C   0  0  0  0  0  0  0  0  0  0  0  0
  -52.2249  -28.6296    9.9481 C   0  0  0  0  0  0  0  0  0  0  0  0
  -53.7163  -27.6758    8.3045 C   0  0  0  0  0  0  0  0  0  0  0  0
  -46.2233  -32.5083    1.9801 C   0  0  0  0  0  0  0  0  0  0  0  0
  -45.7111  -33.3845    0.9764 C   0  0  0  0  0  0  0  0  0  0  0  0
  -52.9067  -28.7268    8.7351 C   0  0  0  0  0  0  0  0  0  0  0  0
  -46.3912  -34.5876    0.9641 C   0  0  0  0  0  0  0  0  0  0  0  0
  -47.2590  -33.0791    2.6879 C   0  0  0  0  0  0  0  0  0  0  0  0
  -45.7460  -31.1752    2.2512 C   0  0  0  0  0  0  0  0  0  0  0  0
  -47.9558  -31.3355    4.3661 C   0  0  0  0  0  0  0  0  0  0  0  0
  -44.6029  -33.0860    0.0145 C   0  0  0  0  0  0  0  0  0  0  0  0
  -46.0895  -35.7364    0.0534 C   0  0  0  0  0  0  0  0  0  0  0  0
  -44.0670  -34.3631   -0.6515 C   0  0  0  0  0  0  0  0  0  0  0  0
  -45.2075  -35.2789   -1.1195 C   0  0  0  0  0  0  0  0  0  0  0  0
  -43.9664  -28.9114    0.9204 C   0  0  0  0  0  0  0  0  0  0  0  0
  -52.7689  -29.9674    7.8898 C   0  0  0  0  0  0  0  0  0  0  0  0
  -48.9902  -31.2149    5.4633 C   0  0  0  0  0  0  0  0  0  0  0  0
  -51.6171  -29.9085    6.8785 C   0  0  0  0  0  0  0  0  0  0  0  0
  -45.4281  -28.9979    1.3047 C   0  0  0  0  0  0  0  0  0  0  0  0
  -50.2287  -29.7740    7.4922 C   0  0  0  0  0  0  0  0  0  0  0  0
  -48.0214  -32.5985    3.7179 N   0  0  0  0  0  0  0  0  0  0  0  0
  -45.2748  -30.7945    3.3392 O   0  0  0  0  0  0  0  0  0  0  0  0
  -47.1717  -30.4312    4.0994 O   0  0  0  0  0  0  0  0  0  0  0  0
  -49.3344  -28.6276    5.3202 O   0  0  0  0  0  0  0  0  0  0  0  0
  -47.6744  -29.5465    6.9856 O   0  0  0  0  0  0  0  0  0  0  0  0
  -45.8691  -30.3519    1.1594 O   0  0  0  0  0  0  0  0  0  0  0  0
  -47.6155  -34.6636    2.1455 S   0  0  0  0  0  0  0  0  0  0  0  0
  -48.9385  -29.6529    6.2734 S   0  0  0  0  0  0  0  0  0  0  0  0
  -53.2619  -25.5364   10.9080 H   0  0  0  0  0  0  0  0  0  0  0  0
  -51.8221  -27.4059   11.6746 H   0  0  0  0  0  0  0  0  0  0  0  0
  -54.4744  -25.7094    8.7509 H   0  0  0  0  0  0  0  0  0  0  0  0
  -51.5917  -29.4432   10.2918 H   0  0  0  0  0  0  0  0  0  0  0  0
  -54.2522  -27.7428    7.3614 H   0  0  0  0  0  0  0  0  0  0  0  0
  -44.9853  -32.4078   -0.7585 H   0  0  0  0  0  0  0  0  0  0  0  0
  -43.7794  -32.5722    0.5233 H   0  0  0  0  0  0  0  0  0  0  0  0
  -45.5607  -36.5107    0.6230 H   0  0  0  0  0  0  0  0  0  0  0  0
  -47.0109  -36.1832   -0.3370 H   0  0  0  0  0  0  0  0  0  0  0  0
  -43.4311  -34.0923   -1.5019 H   0  0  0  0  0  0  0  0  0  0  0  0
  -43.4359  -34.9117    0.0595 H   0  0  0  0  0  0  0  0  0  0  0  0
  -44.7975  -36.1565   -1.6320 H   0  0  0  0  0  0  0  0  0  0  0  0
  -45.8219  -34.7390   -1.8516 H   0  0  0  0  0  0  0  0  0  0  0  0
  -43.3548  -29.5488    1.5652 H   0  0  0  0  0  0  0  0  0  0  0  0
  -43.8222  -29.2190   -0.1204 H   0  0  0  0  0  0  0  0  0  0  0  0
  -43.6074  -27.8803    1.0001 H   0  0  0  0  0  0  0  0  0  0  0  0
  -53.7106  -30.1115    7.3444 H   0  0  0  0  0  0  0  0  0  0  0  0
  -52.6681  -30.8526    8.5291 H   0  0  0  0  0  0  0  0  0  0  0  0
  -49.9940  -31.3294    5.0450 H   0  0  0  0  0  0  0  0  0  0  0  0
  -48.8171  -31.9816    6.2239 H   0  0  0  0  0  0  0  0  0  0  0  0
  -51.7754  -29.0658    6.1943 H   0  0  0  0  0  0  0  0  0  0  0  0
  -51.6518  -30.8175    6.2654 H   0  0  0  0  0  0  0  0  0  0  0  0
  -46.0341  -28.3584    0.6563 H   0  0  0  0  0  0  0  0  0  0  0  0
  -45.5708  -28.6909    2.3455 H   0  0  0  0  0  0  0  0  0  0  0  0
  -49.9808  -30.6091    8.1527 H   0  0  0  0  0  0  0  0  0  0  0  0
  -50.1730  -28.8517    8.0798 H   0  0  0  0  0  0  0  0  0  0  0  0
  -48.7495  -33.2474    4.0757 H   0  0  0  0  0  0  0  0  0  0  0  0
  1  2  1  0  0  0  0
  1  3  2  0  0  0  0
  2  4  2  0  0  0  0
  3  5  1  0  0  0  0
  4  8  1  0  0  0  0
  5  8  2  0  0  0  0
  6  7  1  0  0  0  0
  6 10  2  0  0  0  0
  6 11  1  0  0  0  0
  7  9  2  0  0  0  0
  7 13  1  0  0  0  0
  8 18  1  0  0  0  0
  9 14  1  0  0  0  0
  9 29  1  0  0  0  0
 10 23  1  0  0  0  0
 10 29  1  0  0  0  0
 11 24  2  0  0  0  0
 11 28  1  0  0  0  0
 12 19  1  0  0  0  0
 12 23  1  0  0  0  0
 12 25  2  0  0  0  0
 13 15  1  0  0  0  0
 14 16  1  0  0  0  0
 15 16  1  0  0  0  0
 17 21  1  0  0  0  0
 18 20  1  0  0  0  0
 19 30  1  0  0  0  0
 20 22  1  0  0  0  0
 21 28  1  0  0  0  0
 22 30  1  0  0  0  0
 26 30  2  0  0  0  0
 27 30  2  0  0  0  0
  1 31  1  0  0  0  0
  2 32  1  0  0  0  0
  3 33  1  0  0  0  0
  4 34  1  0  0  0  0
  5 35  1  0  0  0  0
 13 36  1  0  0  0  0
 13 37  1  0  0  0  0
 14 38  1  0  0  0  0
 14 39  1  0  0  0  0
 15 40  1  0  0  0  0
 15 41  1  0  0  0  0
 16 42  1  0  0  0  0
 16 43  1  0  0  0  0
 17 44  1  0  0  0  0
 17 45  1  0  0  0  0
 17 46  1  0  0  0  0
 18 47  1  0  0  0  0
 18 48  1  0  0  0  0
 19 49  1  0  0  0  0
 19 50  1  0  0  0  0
 20 51  1  0  0  0  0
 20 52  1  0  0  0  0
 21 53  1  0  0  0  0
 21 54  1  0  0  0  0
 22 55  1  0  0  0  0
 22 56  1  0  0  0  0
 23 57  1  0  0  0  0
M  END
> <POSIT::Probability>
0.24

> <POSIT::Method>
FRED

> <ReceptorTitle>
UCSF-P4486-REFINED_LIGAND-BOUND-STATE_A__DU__LA1_A-201(A)

> <OMEGA_C>
SaZUwlZx08FOyiRBLWlRwuLZ28EYritBXGBXwqE41MESYhFBWeZQwlMJ5cFcKx9BiN1WwhJo3cFY
3wRBr+Q4wnQIAsIZc/0/Ntg2wsCJBcJ89Hk/daBTwpHQ5cHzwgtBkJA5wrlZCsLEzXY/Lgk9wv5Q
BMLVBixA5/s2wr9m+cEuExBAx9I/wjSv+sFIt4tAVGkywgpYBMIAWm48r1s4whnyDsLAy1o9qEQw
wsRzCcJsyia/ctQ0wpwdDcJkTI+/kN0vwotK58G8oGs/UBNTwjG978E9efxA6/VDwgS4+cFU065A
63dOwpFE78HqHNxAZbY1wq3758H4/6Y/OOpIwigx7sHov+9A7BVAwuVkAsIi8m1AYhk1whJb9sHI
tFVAxq88whJz88HsLYNAeFZFwkQF5cHpPqpAk7I+wkNf7MEPit9AAXo3wsLQ8sGcaJQ/P3Y+wnyn
CsJDTwlADcFDwi857cG2v8hAJgxVwqNKzMFchy5B30lPwlY/28FYyzpByeVZwsCszcGkAwxB7F1O
wsWL68E6qyRBTAJZwj/x3cHckOtA/vAzwp6hAcL8KkK/FB4vwudJAsKY+QU/Lj42wu8KEsJYex8/
JQs8wqW7EMKIjay+dbktwoZeCMLgPsC/ab4twoilC8LAjXM9pzAzwk2gEMKQ5NC/nkk3wrf0CsIk
Ae2/SGstwvdj7MEtWcg/90kvwn3A6cFAf/a9AG4uwt4K38GwAYA/oddWwlbk8MFaBetAJ6xSwjTS
9sEpdwhB6PlHwpui+sGQcKFAtERDwkTa/8EwKsdACBpPwtaG6MEJOMZAb5tOwkGK9sHkfchA5SI4
wuzd4sFoASg/e0g2wvGG5cFoHBZAYexHwnHf9MFpcQJBIbFIwk7Q5sEQRwFBcf9Cwkz9BMIAbIJA

> <OMEGA_E>
+XmwwA==

> <OMEGA_NBR>
     12535

$$$$
CACHE3HI_1706_57
  -OEChem-03092622503D

 42 45  0     0  0  0  0  0  0999 V2000
  -47.1706  -34.2660    0.5278 C   0  0  0  0  0  0  0  0  0  0  0  0
  -46.0189  -33.4940    0.6324 C   0  0  0  0  0  0  0  0  0  0  0  0
  -47.5261  -33.9584    2.8594 C   0  0  0  0  0  0  0  0  0  0  0  0
  -47.9444  -34.5075    1.6575 C   0  0  0  0  0  0  0  0  0  0  0  0
  -45.6867  -32.9903    1.8797 C   0  0  0  0  0  0  0  0  0  0  0  0
  -47.1281  -29.3918    4.7590 C   0  0  0  0  0  0  0  0  0  0  0  0
  -48.3961  -29.2058    5.3970 C   0  0  0  0  0  0  0  0  0  0  0  0
  -46.0117  -29.5387    5.4978 C   0  0  0  0  0  0  0  0  0  0  0  0
  -48.4869  -29.1722    6.7259 C   0  0  0  0  0  0  0  0  0  0  0  0
  -46.1148  -29.5019    7.0088 C   0  0  0  0  0  0  0  0  0  0  0  0
  -44.1947  -31.6700    3.4083 C   0  0  0  0  0  0  0  0  0  0  0  0
  -49.7188  -29.0227    4.7447 C   0  0  0  0  0  0  0  0  0  0  0  0
  -49.8713  -28.9648    7.2136 C   0  0  0  0  0  0  0  0  0  0  0  0
  -50.6857  -29.1879    5.9295 C   0  0  0  0  0  0  0  0  0  0  0  0
  -44.0612  -31.2586    0.8921 C   0  0  0  0  0  0  0  0  0  0  0  0
  -43.2632  -32.4923    1.1779 C   0  0  0  0  0  0  0  0  0  0  0  0
  -44.4673  -32.1690    2.0149 C   0  0  0  0  0  0  0  0  0  0  0  0
  -44.6541  -29.7377    4.9051 C   0  0  0  0  0  0  0  0  0  0  0  0
  -46.4133  -33.2035    2.9995 N   0  0  0  0  0  0  0  0  0  0  0  0
  -47.3923  -29.3141    7.5265 N   0  0  0  0  0  0  0  0  0  0  0  0
  -44.7831  -30.4372    3.6555 N   0  0  0  0  0  0  0  0  0  0  0  0
  -45.1161  -29.6331    7.7136 O   0  0  0  0  0  0  0  0  0  0  0  0
  -43.5063  -32.3065    4.2024 O   0  0  0  0  0  0  0  0  0  0  0  0
  -49.3735  -35.4512    1.5656 Cl  0  0  0  0  0  0  0  0  0  0  0  0
  -47.4534  -34.6721   -0.4398 H   0  0  0  0  0  0  0  0  0  0  0  0
  -45.4075  -33.2990   -0.2421 H   0  0  0  0  0  0  0  0  0  0  0  0
  -48.0863  -34.1088    3.7772 H   0  0  0  0  0  0  0  0  0  0  0  0
  -47.0967  -29.4109    3.6750 H   0  0  0  0  0  0  0  0  0  0  0  0
  -49.7999  -28.0232    4.3047 H   0  0  0  0  0  0  0  0  0  0  0  0
  -49.9164  -29.7720    3.9722 H   0  0  0  0  0  0  0  0  0  0  0  0
  -50.1588  -29.6796    7.9902 H   0  0  0  0  0  0  0  0  0  0  0  0
  -50.0017  -27.9465    7.5942 H   0  0  0  0  0  0  0  0  0  0  0  0
  -51.5362  -28.5015    5.8608 H   0  0  0  0  0  0  0  0  0  0  0  0
  -51.0954  -30.2068    5.9281 H   0  0  0  0  0  0  0  0  0  0  0  0
  -43.6044  -30.3018    1.1177 H   0  0  0  0  0  0  0  0  0  0  0  0
  -44.6711  -31.2512   -0.0040 H   0  0  0  0  0  0  0  0  0  0  0  0
  -43.3371  -33.3132    0.4737 H   0  0  0  0  0  0  0  0  0  0  0  0
  -42.2712  -32.3632    1.5959 H   0  0  0  0  0  0  0  0  0  0  0  0
  -44.1835  -28.7662    4.7483 H   0  0  0  0  0  0  0  0  0  0  0  0
  -44.0360  -30.3182    5.5910 H   0  0  0  0  0  0  0  0  0  0  0  0
  -47.5218  -29.2798    8.5331 H   0  0  0  0  0  0  0  0  0  0  0  0
  -45.3103  -29.9883    2.9080 H   0  0  0  0  0  0  0  0  0  0  0  0
  1  2  1  0  0  0  0
  1  4  2  0  0  0  0
  2  5  2  0  0  0  0
  3  4  1  0  0  0  0
  3 19  2  0  0  0  0
  4 24  1  0  0  0  0
  5 17  1  0  0  0  0
  5 19  1  0  0  0  0
  6  7  1  0  0  0  0
  6  8  2  0  0  0  0
  7  9  2  0  0  0  0
  7 12  1  0  0  0  0
  8 10  1  0  0  0  0
  8 18  1  0  0  0  0
  9 13  1  0  0  0  0
  9 20  1  0  0  0  0
 10 20  1  0  0  0  0
 10 22  2  0  0  0  0
 11 17  1  0  0  0  0
 11 21  1  0  0  0  0
 11 23  2  0  0  0  0
 12 14  1  0  0  0  0
 13 14  1  0  0  0  0
 15 16  1  0  0  0  0
 15 17  1  0  0  0  0
 16 17  1  0  0  0  0
 18 21  1  0  0  0  0
  1 25  1  0  0  0  0
  2 26  1  0  0  0  0
  3 27  1  0  0  0  0
  6 28  1  0  0  0  0
 12 29  1  0  0  0  0
 12 30  1  0  0  0  0
 13 31  1  0  0  0  0
 13 32  1  0  0  0  0
 14 33  1  0  0  0  0
 14 34  1  0  0  0  0
 15 35  1  0  0  0  0
 15 36  1  0  0  0  0
 16 37  1  0  0  0  0
 16 38  1  0  0  0  0
 18 39  1  0  0  0  0
 18 40  1  0  0  0  0
 20 41  1  0  0  0  0
 21 42  1  0  0  0  0
M  END
> <POSIT::Probability>
0.23

> <POSIT::Method>
HYBRID

> <ReceptorTitle>
UCSF-P4486-REFINED_LIGAND-BOUND-STATE_A__DU__LA1_A-201(A)

> <OMEGA_C>
ta48wlcQCcKCHgc/ZRM4wuj5BcLO5yE/vRo+wmnVB8LdADdABsc/wqcHCsIfKdQ/Or82wg72A8Kt
mfA/OYM8wm0i68GqSZhAm5VBwn6l6cFItKxABww4wj5P7ME67q9AlfJBwqlg6cGROtdAi3U4wt0D
7ME+SOBAV8cwwhpc/cFZIlpABuBGwogu6MH11JdAOXxHwtK358Fu1eZANb5KwtKA6cGkvr1Aoz4w
wrMR+sHaYmQ/jg0twhP4AcIfxpY/id4xwgytAMKO8wBA0J0ywsHm7cHM9pxAO6c5wl/QBMJg+D9A
vpE9wmCD6sFm2fBA5SEzwmB/88Fg82lA4HY0wp0Q7cG21fZAcgYuwtc5AcJAeoZAdH5FwgrODcLL
Zcg/SdA9wkWwCsJdLeG+RaE1wjoyBcIa83e+ZlhAwmxvCMIavnFADGM8wptJ68GWM2tAJTNHwngv
4MH/v4lAY6pHwgst7sEGOH5AlKJIwrtv7cEWsP9AtgFIwlyS38GQA/NAESVOwgID5MESjLtAsmFM
wn2n8cGcsr1A4Gouwgxq8sFNEI8/La8ywl8C+sFAx4O7LFktwrlABcIThfI+vhUpwu9zAcL9RMw/
7rswwiEh5sFo8pdA2SQwwqKL8sG56bJASBY+whc96sG4hwhBwT01wvbn78GtHDpA

> <OMEGA_E>
omkHwQ==

> <OMEGA_NBR>
     13874

$$$$
CACHE3HI_1706_68
  -OEChem-03092622503D

 41 43  0     0  0  0  0  0  0999 V2000
  -47.8766  -30.8897    0.8043 C   0  0  0  0  0  0  0  0  0  0  0  0
  -47.8872  -32.2752    0.9655 C   0  0  0  0  0  0  0  0  0  0  0  0
  -45.6684  -32.1825    1.9172 C   0  0  0  0  0  0  0  0  0  0  0  0
  -45.6578  -30.7970    1.7561 C   0  0  0  0  0  0  0  0  0  0  0  0
  -46.7618  -30.1506    1.1998 C   0  0  0  0  0  0  0  0  0  0  0  0
  -46.7832  -32.9216    1.5217 C   0  0  0  0  0  0  0  0  0  0  0  0
  -47.2124  -29.4125    5.0778 C   0  0  0  0  0  0  0  0  0  0  0  0
  -48.5242  -29.3884    5.3262 C   0  0  0  0  0  0  0  0  0  0  0  0
  -46.2964  -29.3192    6.2317 C   0  0  0  0  0  0  0  0  0  0  0  0
  -48.9852  -29.2688    6.7359 C   0  0  0  0  0  0  0  0  0  0  0  0
  -44.5807  -30.1683    4.7026 C   0  0  0  0  0  0  0  0  0  0  0  0
  -42.4122  -29.2383    1.7117 C   0  0  0  0  0  0  0  0  0  0  0  0
  -42.9797  -30.5989    2.1608 C   0  0  0  0  0  0  0  0  0  0  0  0
  -43.8396  -28.8374    1.2906 C   0  0  0  0  0  0  0  0  0  0  0  0
  -44.3987  -29.9655    2.2034 C   0  0  0  0  0  0  0  0  0  0  0  0
  -44.8160  -29.3438    5.9460 C   0  0  0  0  0  0  0  0  0  0  0  0
  -49.5630  -29.4757    4.2537 C   0  0  0  0  0  0  0  0  0  0  0  0
  -46.6710  -29.2141    7.4656 N   0  0  0  0  0  0  0  0  0  0  0  0
  -48.0042  -29.1900    7.6982 N   0  0  0  0  0  0  0  0  0  0  0  0
  -44.6159  -29.4041    3.5475 N   0  0  0  0  0  0  0  0  0  0  0  0
  -50.1852  -29.2432    7.0050 O   0  0  0  0  0  0  0  0  0  0  0  0
  -44.3689  -31.3795    4.7455 O   0  0  0  0  0  0  0  0  0  0  0  0
  -46.7590  -28.8197    1.0426 F   0  0  0  0  0  0  0  0  0  0  0  0
  -48.9936  -29.5793    3.0344 F   0  0  0  0  0  0  0  0  0  0  0  0
  -50.3583  -30.5516    4.4294 F   0  0  0  0  0  0  0  0  0  0  0  0
  -50.3495  -28.3788    4.2494 F   0  0  0  0  0  0  0  0  0  0  0  0
  -46.7970  -34.6311    1.7208 Cl  0  0  0  0  0  0  0  0  0  0  0  0
  -48.7360  -30.3862    0.3720 H   0  0  0  0  0  0  0  0  0  0  0  0
  -48.7631  -32.8379    0.6534 H   0  0  0  0  0  0  0  0  0  0  0  0
  -44.8044  -32.6804    2.3515 H   0  0  0  0  0  0  0  0  0  0  0  0
  -46.8074  -29.4971    4.0773 H   0  0  0  0  0  0  0  0  0  0  0  0
  -42.0128  -28.6363    2.5356 H   0  0  0  0  0  0  0  0  0  0  0  0
  -41.6736  -29.2753    0.9070 H   0  0  0  0  0  0  0  0  0  0  0  0
  -42.8612  -31.3844    1.4041 H   0  0  0  0  0  0  0  0  0  0  0  0
  -42.5821  -30.9768    3.1080 H   0  0  0  0  0  0  0  0  0  0  0  0
  -44.1269  -27.8123    1.5449 H   0  0  0  0  0  0  0  0  0  0  0  0
  -44.0306  -28.9892    0.2209 H   0  0  0  0  0  0  0  0  0  0  0  0
  -44.4679  -28.3193    5.8421 H   0  0  0  0  0  0  0  0  0  0  0  0
  -44.2962  -29.8124    6.7797 H   0  0  0  0  0  0  0  0  0  0  0  0
  -48.3061  -29.1067    8.6637 H   0  0  0  0  0  0  0  0  0  0  0  0
  -44.8082  -28.4092    3.6104 H   0  0  0  0  0  0  0  0  0  0  0  0
  1  2  1  0  0  0  0
  1  5  2  0  0  0  0
  2  6  2  0  0  0  0
  3  4  2  0  0  0  0
  3  6  1  0  0  0  0
  4  5  1  0  0  0  0
  4 15  1  0  0  0  0
  5 23  1  0  0  0  0
  6 27  1  0  0  0  0
  7  8  2  0  0  0  0
  7  9  1  0  0  0  0
  8 10  1  0  0  0  0
  8 17  1  0  0  0  0
  9 16  1  0  0  0  0
  9 18  2  0  0  0  0
 10 19  1  0  0  0  0
 10 21  2  0  0  0  0
 11 16  1  0  0  0  0
 11 20  1  0  0  0  0
 11 22  2  0  0  0  0
 12 13  1  0  0  0  0
 12 14  1  0  0  0  0
 13 15  1  0  0  0  0
 14 15  1  0  0  0  0
 15 20  1  0  0  0  0
 17 24  1  0  0  0  0
 17 25  1  0  0  0  0
 17 26  1  0  0  0  0
 18 19  1  0  0  0  0
  1 28  1  0  0  0  0
  2 29  1  0  0  0  0
  3 30  1  0  0  0  0
  7 31  1  0  0  0  0
 12 32  1  0  0  0  0
 12 33  1  0  0  0  0
 13 34  1  0  0  0  0
 13 35  1  0  0  0  0
 14 36  1  0  0  0  0
 14 37  1  0  0  0  0
 16 38  1  0  0  0  0
 16 39  1  0  0  0  0
 19 40  1  0  0  0  0
 20 41  1  0  0  0  0
M  END
> <POSIT::Probability>
0.14

> <POSIT::Method>
HYBRID

> <ReceptorTitle>
UCSF-P4486-REFINED_LIGAND-BOUND-STATE_A__DU__LA1_A-201(A)

> <OMEGA_C>
pIE/wgke98GI6E0/gYw/wsYZAcKoKnc/Zaw2wuG6AMIKaPU/kKE2wlpg9sGyxuA/Cgw7woY08cH6
k5k/CCI7wrCvA8IIyMI/ftk8wuJM68EVfaJAzxhCwnIb68FUcKpAgy85wtKN6sF7asdA4/BDwoIm
6sFmjNdAmFIywrBY8cHJe5ZAFqYpwgHo6cH2GNs/PusrwpnK9MFASwpAwFsvwgiz5sFYM6U/UZgx
wmW578EGBQ1AmUMzwiDA6sFZRb5AeEBGwjLO68FPHohAFa86woi26cEJ5u5AWgRAwhiF6cFZV/ZA
o3Yywpg768H0CmNAqr1Iwijy6cG1KOBAzXkxwiYJ+8FR25dAQAk7wsiO5sEOc4U/Z/lDwnmi7MFe
M0JA825Jwrpp9MG+vY1A22VJwrIH48E++4dAIzA7wjSGCsIMQtw/rfFCwvsW88GId74+dg1DwgJa
A8L4Ryc/tjczwsO4AsIyfxZAxDo7whL668EheYJAFw0owicX5cFoRyJAxrEmwugz6sHwL2g/43Er
wlYT+8EcuLM/G1QqwnDQ98He6UZA/IEwwqZ/3sESwMU/Sx8wwszp58FgK2I+Kt8xwuON4sFS8rpA
SC8xwuJ/7sEe89hAbDlBwpja6MGbngpBnTszwhJG48HyEGdA

> <OMEGA_E>
Ne0cwQ==

> <OMEGA_NBR>
     15190

$$$$
CACHE3HI_1707_73
  -OEChem-03092622503D

 47 50  0     0  0  0  0  0  0999 V2000
  -48.4226  -28.8631    5.6462 C   0  0  0  0  0  0  0  0  0  0  0  0
  -47.1058  -28.8821    6.1061 C   0  0  0  0  0  0  0  0  0  0  0  0
  -47.6737  -29.6110    3.4743 C   0  0  0  0  0  0  0  0  0  0  0  0
  -54.8736  -26.7072    9.6261 C   0  0  0  0  0  0  0  0  0  0  0  0
  -53.4998  -26.8044    9.6640 C   0  0  0  0  0  0  0  0  0  0  0  0
  -54.9206  -28.0817    7.7986 C   0  0  0  0  0  0  0  0  0  0  0  0
  -48.7064  -29.2275    4.3301 C   0  0  0  0  0  0  0  0  0  0  0  0
  -46.3570  -29.6301    3.9341 C   0  0  0  0  0  0  0  0  0  0  0  0
  -46.0732  -29.2657    5.2502 C   0  0  0  0  0  0  0  0  0  0  0  0
  -53.5466  -28.1787    7.8366 C   0  0  0  0  0  0  0  0  0  0  0  0
  -44.4451  -31.1141    3.1905 C   0  0  0  0  0  0  0  0  0  0  0  0
  -50.0932  -29.2069    3.8461 C   0  0  0  0  0  0  0  0  0  0  0  0
  -43.6045  -31.1967    1.9382 C   0  0  0  0  0  0  0  0  0  0  0  0
  -43.7347  -29.8159    1.3264 C   0  0  0  0  0  0  0  0  0  0  0  0
  -45.1123  -29.3606    1.7623 C   0  0  0  0  0  0  0  0  0  0  0  0
  -51.6477  -29.6378    7.1877 C   0  0  0  0  0  0  0  0  0  0  0  0
  -53.4755  -29.2105    5.5472 C   0  0  0  0  0  0  0  0  0  0  0  0
  -51.0113  -30.2925    5.9585 C   0  0  0  0  0  0  0  0  0  0  0  0
  -52.4328  -28.8645    4.4908 C   0  0  0  0  0  0  0  0  0  0  0  0
  -55.6087  -27.3439    8.6930 N   0  0  0  0  0  0  0  0  0  0  0  0
  -52.8116  -27.5423    8.7697 N   0  0  0  0  0  0  0  0  0  0  0  0
  -45.3252  -30.0272    3.0328 N   0  0  0  0  0  0  0  0  0  0  0  0
  -52.9130  -28.9620    6.8731 N   0  0  0  0  0  0  0  0  0  0  0  0
  -51.1218  -29.4524    4.7609 N   0  0  0  0  0  0  0  0  0  0  0  0
  -44.3502  -31.9262    4.0994 O   0  0  0  0  0  0  0  0  0  0  0  0
  -50.2537  -28.9803    2.6463 O   0  0  0  0  0  0  0  0  0  0  0  0
  -44.4570  -29.2721    5.8608 Cl  0  0  0  0  0  0  0  0  0  0  0  0
  -49.2199  -28.5624    6.3212 H   0  0  0  0  0  0  0  0  0  0  0  0
  -46.9022  -28.5952    7.1347 H   0  0  0  0  0  0  0  0  0  0  0  0
  -47.8980  -29.8954    2.4480 H   0  0  0  0  0  0  0  0  0  0  0  0
  -55.4260  -26.1138   10.3439 H   0  0  0  0  0  0  0  0  0  0  0  0
  -52.9102  -26.2901   10.4128 H   0  0  0  0  0  0  0  0  0  0  0  0
  -55.5213  -28.5889    7.0523 H   0  0  0  0  0  0  0  0  0  0  0  0
  -42.5667  -31.4392    2.1797 H   0  0  0  0  0  0  0  0  0  0  0  0
  -44.0255  -31.9673    1.2847 H   0  0  0  0  0  0  0  0  0  0  0  0
  -42.9706  -29.1488    1.7437 H   0  0  0  0  0  0  0  0  0  0  0  0
  -43.6185  -29.8285    0.2390 H   0  0  0  0  0  0  0  0  0  0  0  0
  -45.1730  -28.2735    1.8779 H   0  0  0  0  0  0  0  0  0  0  0  0
  -45.8866  -29.7006    1.0647 H   0  0  0  0  0  0  0  0  0  0  0  0
  -51.8251  -30.4014    7.9619 H   0  0  0  0  0  0  0  0  0  0  0  0
  -50.9354  -28.9132    7.6120 H   0  0  0  0  0  0  0  0  0  0  0  0
  -54.3639  -28.5966    5.4147 H   0  0  0  0  0  0  0  0  0  0  0  0
  -53.7614  -30.2546    5.4327 H   0  0  0  0  0  0  0  0  0  0  0  0
  -49.9463  -30.4655    6.1319 H   0  0  0  0  0  0  0  0  0  0  0  0
  -51.4824  -31.2593    5.7777 H   0  0  0  0  0  0  0  0  0  0  0  0
  -52.7508  -29.2336    3.5064 H   0  0  0  0  0  0  0  0  0  0  0  0
  -52.3353  -27.7753    4.4029 H   0  0  0  0  0  0  0  0  0  0  0  0
  1  2  1  0  0  0  0
  1  7  2  0  0  0  0
  2  9  2  0  0  0  0
  3  7  1  0  0  0  0
  3  8  2  0  0  0  0
  4  5  2  0  0  0  0
  4 20  1  0  0  0  0
  5 21  1  0  0  0  0
  6 10  1  0  0  0  0
  6 20  2  0  0  0  0
  7 12  1  0  0  0  0
  8  9  1  0  0  0  0
  8 22  1  0  0  0  0
  9 27  1  0  0  0  0
 10 21  2  0  0  0  0
 10 23  1  0  0  0  0
 11 13  1  0  0  0  0
 11 22  1  0  0  0  0
 11 25  2  0  0  0  0
 12 24  1  0  0  0  0
 12 26  2  0  0  0  0
 13 14  1  0  0  0  0
 14 15  1  0  0  0  0
 15 22  1  0  0  0  0
 16 18  1  0  0  0  0
 16 23  1  0  0  0  0
 17 19  1  0  0  0  0
 17 23  1  0  0  0  0
 18 24  1  0  0  0  0
 19 24  1  0  0  0  0
  1 28  1  0  0  0  0
  2 29  1  0  0  0  0
  3 30  1  0  0  0  0
  4 31  1  0  0  0  0
  5 32  1  0  0  0  0
  6 33  1  0  0  0  0
 13 34  1  0  0  0  0
 13 35  1  0  0  0  0
 14 36  1  0  0  0  0
 14 37  1  0  0  0  0
 15 38  1  0  0  0  0
 15 39  1  0  0  0  0
 16 40  1  0  0  0  0
 16 41  1  0  0  0  0
 17 42  1  0  0  0  0
 17 43  1  0  0  0  0
 18 44  1  0  0  0  0
 18 45  1  0  0  0  0
 19 46  1  0  0  0  0
 19 47  1  0  0  0  0
M  END
> <POSIT::Probability>
0.05

> <POSIT::Method>
FRED

> <ReceptorTitle>
UCSF-P4486-REFINED_LIGAND-BOUND-STATE_A__DU__LA1_A-201(A)

> <OMEGA_C>
v7BBwpTn5sGcrbRAYWw8woUO58HXZMNA57E+wmnj7MFJWl5AmH5bwm6o1cG0BBpBzf9Vwmpv1sHF
nxpBp65bwl6n4MEujvlAXNNCwt3R6cEokIpAk205wl8K7cH2x3tA60o4wg8g6sHTAahAsy9WwgRu
4cESxfpA0scxwsfp+MFMMUxAcl9IwtWn6cGvJnZA+Wouwt2S+cE+F/g/VvAuwgyH7sGcxqk/CHM0
wofi6sG+k+E/MpdOwjca7cFwAeZA8eZVwiev6cHagrFAjQtMwg1X8sFErL5ALrtRwo3q5sGMtI9A
XG9ewkXA2sGjFgtBFT9TwqVW3MGnUAxBA001wsc38MH+GUJA6qZTwjCy58G68NtAsnxMwpWe68EE
WZhAk2Yxwtto/8EgLoNAvgNJwpzX58FtXSlAANQxwkwt6sHgi7tANeFEwsN/5MH7RspA1ps7wgzD
5MEeT+RAl5c/wrcp78GXrBxAQ7RdwgDp0MGSgCVBDaRTwjNS0sHKmiZB0RVewiW25ME4rOFASkQq
wmWD+8E0gAtAJhowwv+8/8G1b6Q/6OErwtEw6cGGMN8/UXkuwqyg7sFQtHQ+KrE0wi4w4sHKX/A/
2os3wtSa7cH6R4g/8ExPwvk188GGx/5A2r1LwihO58G+lfNAl3RZwtHF5MGQRa1AqwtXwmAJ8sFO
2K1AC8lHwm+588G2OMRAAu5Nwg4T+sGU4rhA0ABTwl/e6cEeaGBAYldRws0z3sHs5IxA

> <OMEGA_E>
07YDwQ==

> <OMEGA_NBR>
     16623

$$$$
CACHE3HI_1708_17
  -OEChem-03092622503D

 39 40  0     1  0  0  0  0  0999 V2000
  -45.6674  -29.2979    2.4850 C   0  0  0  0  0  0  0  0  0  0  0  0
  -45.5230  -29.7297    3.7868 C   0  0  0  0  0  0  0  0  0  0  0  0
  -43.8087  -30.7716    2.9015 C   0  0  0  0  0  0  0  0  0  0  0  0
  -46.4245  -29.3413    4.8831 C   0  0  0  0  0  0  0  0  0  0  0  0
  -41.3301  -31.1766    2.7883 C   0  0  0  0  0  0  0  0  0  0  0  0
  -49.8201  -29.2196    3.4252 C   0  0  0  0  0  0  0  0  0  0  0  0
  -50.0307  -28.4216    4.7046 C   0  0  0  0  0  0  0  0  0  0  0  0
  -48.3200  -29.1288    3.2130 C   0  0  0  0  0  0  0  0  0  0  0  0
  -48.7909  -28.7556    5.5641 C   0  0  2  0  0  0  0  0  0  0  0  0
  -40.4016  -32.3297    2.5011 C   0  0  0  0  0  0  0  0  0  0  0  0
  -50.2392  -29.7157    7.3824 C   0  0  0  0  0  0  0  0  0  0  0  0
  -49.0741  -29.9774    6.4530 C   0  0  0  0  0  0  0  0  0  0  0  0
  -48.4260  -27.5449    6.4320 C   0  0  0  0  0  0  0  0  0  0  0  0
  -44.4576  -30.5750    4.0275 N   0  0  0  0  0  0  0  0  0  0  0  0
  -47.7506  -29.0670    4.5592 N   0  0  0  0  0  0  0  0  0  0  0  0
  -42.6955  -31.5439    2.7005 N   0  0  0  0  0  0  0  0  0  0  0  0
  -45.9325  -29.2937    6.0075 O   0  0  0  0  0  0  0  0  0  0  0  0
  -40.8864  -30.0676    3.0686 O   0  0  0  0  0  0  0  0  0  0  0  0
  -47.6355  -27.9977    7.5128 O   0  0  0  0  0  0  0  0  0  0  0  0
  -44.4234  -29.9699    1.5149 S   0  0  0  0  0  0  0  0  0  0  0  0
  -46.4175  -28.6418    2.0660 H   0  0  0  0  0  0  0  0  0  0  0  0
  -50.1235  -30.2627    3.5708 H   0  0  0  0  0  0  0  0  0  0  0  0
  -50.3863  -28.8105    2.5837 H   0  0  0  0  0  0  0  0  0  0  0  0
  -50.0625  -27.3527    4.4575 H   0  0  0  0  0  0  0  0  0  0  0  0
  -50.9765  -28.6816    5.1909 H   0  0  0  0  0  0  0  0  0  0  0  0
  -47.9298  -29.9817    2.6502 H   0  0  0  0  0  0  0  0  0  0  0  0
  -48.0464  -28.2027    2.6950 H   0  0  0  0  0  0  0  0  0  0  0  0
  -40.1729  -32.3698    1.4325 H   0  0  0  0  0  0  0  0  0  0  0  0
  -39.4681  -32.1996    3.0555 H   0  0  0  0  0  0  0  0  0  0  0  0
  -40.8713  -33.2678    2.8104 H   0  0  0  0  0  0  0  0  0  0  0  0
  -51.1512  -29.4865    6.8214 H   0  0  0  0  0  0  0  0  0  0  0  0
  -50.0119  -28.8608    8.0265 H   0  0  0  0  0  0  0  0  0  0  0  0
  -50.4381  -30.5809    8.0227 H   0  0  0  0  0  0  0  0  0  0  0  0
  -48.1769  -30.2033    7.0288 H   0  0  0  0  0  0  0  0  0  0  0  0
  -49.2890  -30.8320    5.8110 H   0  0  0  0  0  0  0  0  0  0  0  0
  -49.3336  -27.0824    6.8110 H   0  0  0  0  0  0  0  0  0  0  0  0
  -47.8601  -26.8296    5.8397 H   0  0  0  0  0  0  0  0  0  0  0  0
  -42.8408  -32.5399    2.4478 H   0  0  0  0  0  0  0  0  0  0  0  0
  -47.4129  -27.2192    8.0524 H   0  0  0  0  0  0  0  0  0  0  0  0
  1  2  2  0  0  0  0
  1 20  1  0  0  0  0
  2  4  1  0  0  0  0
  2 14  1  0  0  0  0
  3 14  2  0  0  0  0
  3 16  1  0  0  0  0
  3 20  1  0  0  0  0
  4 15  1  0  0  0  0
  4 17  2  0  0  0  0
  5 10  1  0  0  0  0
  5 16  1  0  0  0  0
  5 18  2  0  0  0  0
  6  7  1  0  0  0  0
  6  8  1  0  0  0  0
  7  9  1  0  0  0  0
  8 15  1  0  0  0  0
  9 12  1  0  0  0  0
  9 13  1  0  0  0  0
  9 15  1  0  0  0  0
 11 12  1  0  0  0  0
 13 19  1  0  0  0  0
  1 21  1  0  0  0  0
  6 22  1  0  0  0  0
  6 23  1  0  0  0  0
  7 24  1  0  0  0  0
  7 25  1  0  0  0  0
  8 26  1  0  0  0  0
  8 27  1  0  0  0  0
 10 28  1  0  0  0  0
 10 29  1  0  0  0  0
 10 30  1  0  0  0  0
 11 31  1  0  0  0  0
 11 32  1  0  0  0  0
 11 33  1  0  0  0  0
 12 34  1  0  0  0  0
 12 35  1  0  0  0  0
 13 36  1  0  0  0  0
 13 37  1  0  0  0  0
 16 38  1  0  0  0  0
 19 39  1  0  0  0  0
M  END
> <POSIT::Probability>
0.05

> <POSIT::Method>
FRED

> <ReceptorTitle>
UCSF-P4486-REFINED_LIGAND-BOUND-STATE_A__DU__LA1_A-201(A)

> <OMEGA_C>
Yas2whZi6sE6Ch9Akhc2wn/W7cGSWnJAGDwvwiks9sHvsjlAs7I5wvm66sH1QZxAEFIlwrJp+cEW
czJAxEdHws/B6cEYNltAdB9IwoFf48EKjJZApEdBwssH6cEEoU1A5ylDwn0L5sHVDLJANpshwpVR
AcJ2EiBA8vRIwri57cGkPOxA5UtEwsvR78H6fs5AMLRBwu9b3MEK081AjdQxwoGZ9MFl4YBAnwA/
wjyJ6MEX5ZFALMgqwulZ/MEu1CxA4bo3wnhZ6sE5PcBAq4sjwmuK8ME4ZERAt4o+wk/738GmaPBA
hrExwkvC78FM58E/gKs5wmAi5cGdOARAfX5IwvEZ8sFPh2RAiYtJwtR75sFnWyVAAkBIwmnS2sH6
o45A9edLwv1z5cHZG6ZAHLg/wp3a78E2nSlAiS9Awiuf4cGbeixAD7EgwqJ6AcKQXLc/Xd8dwl3M
AMIejUNAPXwjwjYSBcIn3TNA0ZpMwmHk68HmSNpANwxIwuTi5sGkbABBncBJwqOl9MHnXABBKrVA
wnGg8cH+6+BA5CdFwgCo9sHD87lAnlVFwqyo2MH+89lAu3A/wh6j1sGt3rpABV0rwuYoAsKOqRxA
26Y9wgDB2cHO1gBB

> <OMEGA_E>
Vd/RwA==

> <OMEGA_NBR>
     17892

$$$$
CACHE3HI_1708_66
  -OEChem-03092622503D

 39 41  0     0  0  0  0  0  0999 V2000
  -45.3311  -29.4942    4.4926 C   0  0  0  0  0  0  0  0  0  0  0  0
  -44.2641  -29.6845    6.6318 C   0  0  0  0  0  0  0  0  0  0  0  0
  -44.7976  -30.4826    1.5377 C   0  0  0  0  0  0  0  0  0  0  0  0
  -42.9381  -31.6484    1.4079 C   0  0  0  0  0  0  0  0  0  0  0  0
  -46.4979  -29.2128    5.1739 C   0  0  0  0  0  0  0  0  0  0  0  0
  -44.1796  -29.7311    5.2400 C   0  0  0  0  0  0  0  0  0  0  0  0
  -43.4614  -30.5144    1.9799 C   0  0  0  0  0  0  0  0  0  0  0  0
  -46.4807  -29.1922    6.5646 C   0  0  0  0  0  0  0  0  0  0  0  0
  -47.8673  -28.9545    4.6425 C   0  0  0  0  0  0  0  0  0  0  0  0
  -47.8540  -28.9226    7.1081 C   0  0  0  0  0  0  0  0  0  0  0  0
  -48.5465  -28.3285    5.8721 C   0  0  0  0  0  0  0  0  0  0  0  0
  -43.4070  -33.1386   -1.5240 C   0  0  0  0  0  0  0  0  0  0  0  0
  -45.2225  -34.1580   -0.1022 C   0  0  0  0  0  0  0  0  0  0  0  0
  -43.8837  -33.4163   -0.0956 C   0  0  0  0  0  0  0  0  0  0  0  0
  -45.3985  -29.4235    7.3253 N   0  0  0  0  0  0  0  0  0  0  0  0
  -45.1036  -31.5138    0.7460 N   0  0  0  0  0  0  0  0  0  0  0  0
  -43.9527  -32.2049    0.6860 N   0  0  0  0  0  0  0  0  0  0  0  0
  -42.9414  -30.0228    4.5965 N   0  0  0  0  0  0  0  0  0  0  0  0
  -43.3472  -28.0961    2.9118 O   0  0  0  0  0  0  0  0  0  0  0  0
  -41.2196  -29.4171    2.7383 O   0  0  0  0  0  0  0  0  0  0  0  0
  -42.6376  -29.3563    3.0356 S   0  0  0  0  0  0  0  0  0  0  0  0
  -45.3154  -29.5290    3.4081 H   0  0  0  0  0  0  0  0  0  0  0  0
  -43.3901  -29.8664    7.2508 H   0  0  0  0  0  0  0  0  0  0  0  0
  -45.5631  -29.7520    1.7576 H   0  0  0  0  0  0  0  0  0  0  0  0
  -41.9544  -32.0958    1.4518 H   0  0  0  0  0  0  0  0  0  0  0  0
  -47.8665  -28.2653    3.7937 H   0  0  0  0  0  0  0  0  0  0  0  0
  -48.3490  -29.8969    4.3619 H   0  0  0  0  0  0  0  0  0  0  0  0
  -48.3245  -29.8627    7.4132 H   0  0  0  0  0  0  0  0  0  0  0  0
  -47.8390  -28.2202    7.9453 H   0  0  0  0  0  0  0  0  0  0  0  0
  -48.3839  -27.2413    5.8573 H   0  0  0  0  0  0  0  0  0  0  0  0
  -49.6287  -28.4918    5.8800 H   0  0  0  0  0  0  0  0  0  0  0  0
  -44.1010  -32.4705   -2.0450 H   0  0  0  0  0  0  0  0  0  0  0  0
  -42.4222  -32.6585   -1.5141 H   0  0  0  0  0  0  0  0  0  0  0  0
  -43.3219  -34.0579   -2.1136 H   0  0  0  0  0  0  0  0  0  0  0  0
  -46.0223  -33.5566   -0.5476 H   0  0  0  0  0  0  0  0  0  0  0  0
  -45.1457  -35.0864   -0.6777 H   0  0  0  0  0  0  0  0  0  0  0  0
  -45.5303  -34.4201    0.9171 H   0  0  0  0  0  0  0  0  0  0  0  0
  -43.1463  -34.0876    0.3644 H   0  0  0  0  0  0  0  0  0  0  0  0
  -42.5781  -30.9787    4.7460 H   0  0  0  0  0  0  0  0  0  0  0  0
  1  5  2  0  0  0  0
  1  6  1  0  0  0  0
  2  6  2  0  0  0  0
  2 15  1  0  0  0  0
  3  7  1  0  0  0  0
  3 16  2  0  0  0  0
  4  7  2  0  0  0  0
  4 17  1  0  0  0  0
  5  8  1  0  0  0  0
  5  9  1  0  0  0  0
  6 18  1  0  0  0  0
  7 21  1  0  0  0  0
  8 10  1  0  0  0  0
  8 15  2  0  0  0  0
  9 11  1  0  0  0  0
 10 11  1  0  0  0  0
 12 14  1  0  0  0  0
 13 14  1  0  0  0  0
 14 17  1  0  0  0  0
 16 17  1  0  0  0  0
 18 21  1  0  0  0  0
 19 21  2  0  0  0  0
 20 21  2  0  0  0  0
  1 22  1  0  0  0  0
  2 23  1  0  0  0  0
  3 24  1  0  0  0  0
  4 25  1  0  0  0  0
  9 26  1  0  0  0  0
  9 27  1  0  0  0  0
 10 28  1  0  0  0  0
 10 29  1  0  0  0  0
 11 30  1  0  0  0  0
 11 31  1  0  0  0  0
 12 32  1  0  0  0  0
 12 33  1  0  0  0  0
 12 34  1  0  0  0  0
 13 35  1  0  0  0  0
 13 36  1  0  0  0  0
 13 37  1  0  0  0  0
 14 38  1  0  0  0  0
 18 39  1  0  0  0  0
M  END
> <POSIT::Probability>
0.18

> <POSIT::Method>
FRED

> <ReceptorTitle>
UCSF-P4486-REFINED_LIGAND-BOUND-STATE_A__DU__LA1_A-201(A)

> <OMEGA_C>
B1M1wh/068GCw49Aag4xwtd57cEMONRAsjAzwljc88HQ0cQ/oMArwv4v/cE0N7Q/3/05wtiz6cHj
kKVA57cwwlrZ7cF6rqdAfNgtwnod9MEUbv0/POw5wriJ6cHuENJAKHg/wsGi58FQj5RAfmo/wodh
58G8deNAlS9CwrSg4sFi6LtAvqAtwvCNBMKUEcO/zuM0wsWhCMIAXdG99YgvwkmqBcJA2cO9Cpg1
wk9j68GzaOpAI2o0wkoc/MHY+T4/kM8vwtLRAMJIoC8//8MrwqEu8MFuFpNAfGMtwr7E4MEUWzpA
0uAkwjlW68GMQC9A9Iwqws7Z6sFgR0JA7EI1wmE77MGUHlpAcI8twnDu7sGtBuhAlkA2wggE7sGA
9+A/SdEnwg9iAMI01bk/THc/wlQf4sESzHJAYWVBwtks78EJlYtARExBwtvm7sFEOe1AKVs/wubC
4cEaQP5AJ4lBwh/u2cEtb7tAxYNGwivv48FKKbxAaGcwws3hAcKm4ALAXLApwkSiAsKkzsG/pEkt
wj47CML8RQfA1hY4wu05BsI4Lwy/J5U0wn5YDMJ4ey2/Ch82wjuuCcJgxGo/0ZUswrZZCMIQjro+
708qwnfU98Fk35dA

> <OMEGA_E>
WOoFwQ==

> <OMEGA_NBR>
     19161

$$$$
CACHE3HI_1709_22
  -OEChem-03092622503D

 42 45  0     1  0  0  0  0  0999 V2000
  -49.4302  -29.7665    7.6447 C   0  0  0  0  0  0  0  0  0  0  0  0
  -50.6457  -29.5695    8.3000 C   0  0  0  0  0  0  0  0  0  0  0  0
  -50.5656  -29.6754    5.5139 C   0  0  0  0  0  0  0  0  0  0  0  0
  -46.0539  -30.0249    5.0714 C   0  0  0  0  0  0  0  0  0  0  0  0
  -43.8504  -31.9197    0.3914 C   0  0  0  0  0  0  0  0  0  0  0  0
  -44.8572  -32.3004    1.3272 C   0  0  0  0  0  0  0  0  0  0  0  0
  -49.3903  -29.8196    6.2515 C   0  0  0  0  0  0  0  0  0  0  0  0
  -51.8210  -29.4254    7.5624 C   0  0  0  0  0  0  0  0  0  0  0  0
  -51.7810  -29.4784    6.1692 C   0  0  0  0  0  0  0  0  0  0  0  0
  -46.9454  -29.6215    6.0355 C   0  0  0  0  0  0  0  0  0  0  0  0
  -46.8519  -30.6513    4.0954 C   0  0  0  0  0  0  0  0  0  0  0  0
  -45.5608  -33.2547    0.6513 C   0  0  0  0  0  0  0  0  0  0  0  0
  -45.0926  -31.8226    2.6541 C   0  0  0  0  0  0  0  0  0  0  0  0
  -45.5638  -34.3854   -1.4102 C   0  0  0  0  0  0  0  0  0  0  0  0
  -46.6394  -34.9669   -0.4594 C   0  0  0  0  0  0  0  0  0  0  0  0
  -46.7240  -28.9090    7.3093 C   0  0  0  0  0  0  0  0  0  0  0  0
  -47.6966  -33.9735    1.6393 C   0  0  0  0  0  0  0  0  0  0  0  0
  -43.9212  -32.5905   -0.7733 N   0  0  0  0  0  0  0  0  0  0  0  0
  -48.1498  -30.6487    4.4107 N   0  0  0  0  0  0  0  0  0  0  0  0
  -48.1748  -30.0156    5.5958 N   0  0  0  0  0  0  0  0  0  0  0  0
  -44.9724  -33.3731   -0.5583 N   0  0  0  0  0  0  0  0  0  0  0  0
  -46.5878  -34.1134    0.7369 N   0  0  2  0  0  0  0  0  0  0  0  0
  -46.3495  -31.2272    2.9026 N   0  0  0  0  0  0  0  0  0  0  0  0
  -44.1971  -31.9225    3.5262 O   0  0  0  0  0  0  0  0  0  0  0  0
  -53.2949  -29.1827    8.4324 Cl  0  0  0  0  0  0  0  0  0  0  0  0
  -53.2023  -29.3033    5.2003 Cl  0  0  0  0  0  0  0  0  0  0  0  0
  -48.5214  -29.8744    8.2321 H   0  0  0  0  0  0  0  0  0  0  0  0
  -50.6581  -29.5292    9.3864 H   0  0  0  0  0  0  0  0  0  0  0  0
  -50.5303  -29.7162    4.4268 H   0  0  0  0  0  0  0  0  0  0  0  0
  -44.9823  -29.8839    5.0778 H   0  0  0  0  0  0  0  0  0  0  0  0
  -43.0679  -31.1843    0.5167 H   0  0  0  0  0  0  0  0  0  0  0  0
  -44.7948  -35.1124   -1.6812 H   0  0  0  0  0  0  0  0  0  0  0  0
  -45.9933  -33.8886   -2.2836 H   0  0  0  0  0  0  0  0  0  0  0  0
  -47.6317  -34.9404   -0.9221 H   0  0  0  0  0  0  0  0  0  0  0  0
  -46.4011  -36.0056   -0.2027 H   0  0  0  0  0  0  0  0  0  0  0  0
  -46.7768  -27.8137    7.1858 H   0  0  0  0  0  0  0  0  0  0  0  0
  -45.7273  -29.1204    7.7336 H   0  0  0  0  0  0  0  0  0  0  0  0
  -47.4762  -29.1976    8.0617 H   0  0  0  0  0  0  0  0  0  0  0  0
  -48.4000  -34.8019    1.5156 H   0  0  0  0  0  0  0  0  0  0  0  0
  -47.3428  -33.9651    2.6741 H   0  0  0  0  0  0  0  0  0  0  0  0
  -48.2230  -33.0344    1.4479 H   0  0  0  0  0  0  0  0  0  0  0  0
  -46.9865  -31.2095    2.1095 H   0  0  0  0  0  0  0  0  0  0  0  0
  1  2  2  0  0  0  0
  1  7  1  0  0  0  0
  2  8  1  0  0  0  0
  3  7  2  0  0  0  0
  3  9  1  0  0  0  0
  4 10  2  0  0  0  0
  4 11  1  0  0  0  0
  5  6  1  0  0  0  0
  5 18  2  0  0  0  0
  6 12  2  0  0  0  0
  6 13  1  0  0  0  0
  7 20  1  0  0  0  0
  8  9  2  0  0  0  0
  8 25  1  0  0  0  0
  9 26  1  0  0  0  0
 10 16  1  0  0  0  0
 10 20  1  0  0  0  0
 11 19  2  0  0  0  0
 11 23  1  0  0  0  0
 12 21  1  0  0  0  0
 12 22  1  0  0  0  0
 13 23  1  0  0  0  0
 13 24  2  0  0  0  0
 14 15  1  0  0  0  0
 14 21  1  0  0  0  0
 15 22  1  0  0  0  0
 17 22  1  0  0  0  0
 18 21  1  0  0  0  0
 19 20  1  0  0  0  0
  1 27  1  0  0  0  0
  2 28  1  0  0  0  0
  3 29  1  0  0  0  0
  4 30  1  0  0  0  0
  5 31  1  0  0  0  0
 14 32  1  0  0  0  0
 14 33  1  0  0  0  0
 15 34  1  0  0  0  0
 15 35  1  0  0  0  0
 16 36  1  0  0  0  0
 16 37  1  0  0  0  0
 16 38  1  0  0  0  0
 17 39  1  0  0  0  0
 17 40  1  0  0  0  0
 17 41  1  0  0  0  0
 23 42  1  0  0  0  0
M  END
> <POSIT::Probability>
0.18

> <POSIT::Method>
HYBRID

> <ReceptorTitle>
UCSF-P4486-REFINED_LIGAND-BOUND-STATE_A__DU__LA1_A-201(A)

> <OMEGA_C>
kLhFwsQh7sFSofRAPJVKwl6O7MH0zARBI0NKwj5n7cHUcbBAMzc4wvgy8MHQSKJAxGYvwp9b/8GA
aMg+0m0zwpUzAcI+46k/so9FwnOO7sEoDMhAr0hPwiVn68GV//FAyB9PwtjT68H4acVAFMg7wtH4
7MEuI8FAY2g7wuo19cFQDYNAOD42wtYEBcISviY/zl40wqyU/sG83ClATkE2wq2KCcJ1grS/vo46
wiPeC8LAMOu+ZOU6wp5F58G05elASMk+wuTkB8KP1dE/Sq8vwrlcAsK880W/YJlAwqAw9cGmJI1A
ArNAwuMf8MGjELNAxOMzwgJ+BcKW6w6/3lk6wix0CMIdpzw/7WU5wmDR+cEWxDlA0ckwwlNh/8Gk
rGFA8y1VwjR26cEZ6wZBIM9Uwjht6sEUaaZA7xVCws7+7sHKtgNB6qFKwtg77MGpLhZBDB9Kwtq6
7cGcqI1A5e0zwjAS78H6fKJAjEUswnV5+cGCRwQ/0y0zwhVzDMKdMte/Lvk3wvmNB8LfJhLA3YY+
wvPCC8JmD2y/r5o5wrwFEMJQhU++dhs7wmSC3sFN8uVAyug2wqP26MGYefdAqOc9wrOU6cG0/ABB
nplBwjA1C8IY/8E/EF89wkrcB8IkJStAYeRAwjwjBMIGVLk/OfI7wiat+cHyAQdA

> <OMEGA_E>
p+9vwA==

> <OMEGA_NBR>
     20502

$$$$
CACHE3HI_1712_21
  -OEChem-03092622503D

 41 42  0     1  0  0  0  0  0999 V2000
  -46.9842  -30.3019    4.3889 C   0  0  0  0  0  0  0  0  0  0  0  0
  -46.3377  -30.6281    3.1967 C   0  0  0  0  0  0  0  0  0  0  0  0
  -49.1245  -30.6230    3.3148 C   0  0  0  0  0  0  0  0  0  0  0  0
  -49.2584  -29.4154    7.6481 C   0  0  0  0  0  0  0  0  0  0  0  0
  -50.3742  -29.9355    5.8265 C   0  0  0  0  0  0  0  0  0  0  0  0
  -50.5612  -29.5712    7.1377 C   0  0  0  0  0  0  0  0  0  0  0  0
  -48.3778  -30.2993    4.4477 C   0  0  0  0  0  0  0  0  0  0  0  0
  -47.0844  -30.9519    2.0638 C   0  0  0  0  0  0  0  0  0  0  0  0
  -48.4780  -30.9493    2.1227 C   0  0  0  0  0  0  0  0  0  0  0  0
  -51.8701  -29.3944    7.8167 C   0  0  0  0  0  0  0  0  0  0  0  0
  -54.8656  -26.0027   11.4065 C   0  0  0  0  0  0  0  0  0  0  0  0
  -52.6445  -27.0173   10.4679 C   0  0  0  0  0  0  0  0  0  0  0  0
  -53.0718  -29.4889    9.9852 C   0  0  0  0  0  0  0  0  0  0  0  0
  -53.6828  -26.5505    9.4506 C   0  0  0  0  0  0  0  0  0  0  0  0
  -52.9423  -28.4035   11.0694 C   0  0  1  0  0  0  0  0  0  0  0  0
  -48.3142  -29.6608    6.7359 N   0  0  0  0  0  0  0  0  0  0  0  0
  -49.0238  -29.9744    5.6386 N   0  0  0  0  0  0  0  0  0  0  0  0
  -51.8733  -28.8048   11.9896 N   0  0  0  0  0  0  0  0  0  0  0  0
  -51.8597  -29.6012    9.1788 N   0  0  0  0  0  0  0  0  0  0  0  0
  -52.8584  -29.1036    7.1481 O   0  0  0  0  0  0  0  0  0  0  0  0
  -54.9607  -26.4772   10.0709 O   0  0  0  0  0  0  0  0  0  0  0  0
  -46.2251  -31.3482    0.6172 Cl  0  0  0  0  0  0  0  0  0  0  0  0
  -49.4578  -31.3447    0.7541 Cl  0  0  0  0  0  0  0  0  0  0  0  0
  -46.3896  -30.0543    5.2651 H   0  0  0  0  0  0  0  0  0  0  0  0
  -45.2509  -30.6266    3.1692 H   0  0  0  0  0  0  0  0  0  0  0  0
  -50.2117  -30.6211    3.3649 H   0  0  0  0  0  0  0  0  0  0  0  0
  -48.9537  -29.1331    8.6462 H   0  0  0  0  0  0  0  0  0  0  0  0
  -51.0745  -30.1638    5.0333 H   0  0  0  0  0  0  0  0  0  0  0  0
  -55.8633  -25.9594   11.8510 H   0  0  0  0  0  0  0  0  0  0  0  0
  -54.2413  -26.6887   11.9841 H   0  0  0  0  0  0  0  0  0  0  0  0
  -54.4104  -25.0097   11.4096 H   0  0  0  0  0  0  0  0  0  0  0  0
  -52.5579  -26.2657   11.2646 H   0  0  0  0  0  0  0  0  0  0  0  0
  -51.6659  -27.0250    9.9717 H   0  0  0  0  0  0  0  0  0  0  0  0
  -53.2831  -30.4617   10.4429 H   0  0  0  0  0  0  0  0  0  0  0  0
  -53.9081  -29.2545    9.3166 H   0  0  0  0  0  0  0  0  0  0  0  0
  -53.7607  -27.2339    8.5995 H   0  0  0  0  0  0  0  0  0  0  0  0
  -53.4364  -25.5537    9.0732 H   0  0  0  0  0  0  0  0  0  0  0  0
  -53.8800  -28.3532   11.6373 H   0  0  0  0  0  0  0  0  0  0  0  0
  -52.1200  -29.6976   12.4031 H   0  0  0  0  0  0  0  0  0  0  0  0
  -51.8281  -28.1319   12.7476 H   0  0  0  0  0  0  0  0  0  0  0  0
  -51.0275  -29.9002    9.6623 H   0  0  0  0  0  0  0  0  0  0  0  0
  1  2  2  0  0  0  0
  1  7  1  0  0  0  0
  2  8  1  0  0  0  0
  3  7  2  0  0  0  0
  3  9  1  0  0  0  0
  4  6  1  0  0  0  0
  4 16  2  0  0  0  0
  5  6  2  0  0  0  0
  5 17  1  0  0  0  0
  6 10  1  0  0  0  0
  7 17  1  0  0  0  0
  8  9  2  0  0  0  0
  8 22  1  0  0  0  0
  9 23  1  0  0  0  0
 10 19  1  0  0  0  0
 10 20  2  0  0  0  0
 11 21  1  0  0  0  0
 12 14  1  0  0  0  0
 12 15  1  0  0  0  0
 13 15  1  0  0  0  0
 13 19  1  0  0  0  0
 14 21  1  0  0  0  0
 15 18  1  0  0  0  0
 16 17  1  0  0  0  0
  1 24  1  0  0  0  0
  2 25  1  0  0  0  0
  3 26  1  0  0  0  0
  4 27  1  0  0  0  0
  5 28  1  0  0  0  0
 11 29  1  0  0  0  0
 11 30  1  0  0  0  0
 11 31  1  0  0  0  0
 12 32  1  0  0  0  0
 12 33  1  0  0  0  0
 13 34  1  0  0  0  0
 13 35  1  0  0  0  0
 14 36  1  0  0  0  0
 14 37  1  0  0  0  0
 15 38  1  0  0  0  0
 18 39  1  0  0  0  0
 18 40  1  0  0  0  0
 19 41  1  0  0  0  0
M  END
> <POSIT::Probability>
0.02

> <POSIT::Method>
FRED

> <ReceptorTitle>
UCSF-P4486-REFINED_LIGAND-BOUND-STATE_A__DU__LA1_A-201(A)

> <OMEGA_C>
1u87wjlq8sGycYxAylk5wlUG9cHKlkxAeH9Ewv/79MGtJVRApwhFws1S68E0vfRAJH9JwtR778F9
crpAqj5Kwt+R7MFZaORA1IJBwt5k8sHqU45AblY8wnad98GjFARAeulBwhWY98GE2QdA73pPwtIn
68EAIvpAWnZbwpgF0MECgTZBApRSwlcj2MFmfCdBh0lUwlzp68Fmwx9BLrtWwlVn1MG2NRdB4cRT
wmA648EYHDFBxUFBwkhJ7cGOjNdAaRhEwojL78G3b7RARX5PwlNw5sGI1T9BS3BPwj/P7MFQ3BJB
/m5TwivU6MFgveRAxNdbwlDR08FCIiFBduY4wjbJ+sEkAh4/ytRFwtrB+sEcDUE/7445wjpv8MH6
e6hA4QA1wlgD9cHw1EpA0NhIwur39MH/WVdAodBDwpYQ6cG8VgpBPkxMwnFP8cErEaFA/nNfwsGs
z8GanT1BFfdYwoqC1cGsvj9BOKRZwsgTyMHqjTZBTztSwi8g0sHIOzRB3alOwi0z2MEZjB9B4SFV
wnix88EQFidB2aFXwi4J6sHAEBVB8wpXwvDe2cFklwlB1L5VwuVtzMH2KxFBFYVXwlDT4sFJMjpB
7HpQwpmU7cFAc0ZB9U9PwjYO4cEL9ktBMhxMwoMz78HumBpB

> <OMEGA_E>
SFjawA==

> <OMEGA_NBR>
     21814

$$$$
CACHE3HI_1712_41
  -OEChem-03092622503D

 50 51  0     0  0  0  0  0  0999 V2000
  -44.1735  -29.0376    2.1251 C   0  0  0  0  0  0  0  0  0  0  0  0
  -45.3485  -28.9911    1.3748 C   0  0  0  0  0  0  0  0  0  0  0  0
  -50.1948  -31.0327    5.5280 C   0  0  0  0  0  0  0  0  0  0  0  0
  -45.3983  -29.9787    3.9830 C   0  0  0  0  0  0  0  0  0  0  0  0
  -49.5259  -29.2483    6.9954 C   0  0  0  0  0  0  0  0  0  0  0  0
  -51.2760  -31.2460    6.3686 C   0  0  0  0  0  0  0  0  0  0  0  0
  -46.5733  -29.9323    3.2328 C   0  0  0  0  0  0  0  0  0  0  0  0
  -44.1986  -29.5313    3.4293 C   0  0  0  0  0  0  0  0  0  0  0  0
  -49.3081  -30.0129    5.8548 C   0  0  0  0  0  0  0  0  0  0  0  0
  -46.5482  -29.4385    1.9285 C   0  0  0  0  0  0  0  0  0  0  0  0
  -50.6366  -29.5411    7.7703 C   0  0  0  0  0  0  0  0  0  0  0  0
  -47.8275  -30.4198    3.8647 C   0  0  0  0  0  0  0  0  0  0  0  0
  -41.6845  -29.7709    3.3953 C   0  0  0  0  0  0  0  0  0  0  0  0
  -40.6358  -31.3770    1.8116 C   0  0  0  0  0  0  0  0  0  0  0  0
  -53.7860  -27.1668   12.3154 C   0  0  0  0  0  0  0  0  0  0  0  0
  -54.3559  -26.5911   10.0533 C   0  0  0  0  0  0  0  0  0  0  0  0
  -42.9424  -29.5793    4.2317 C   0  0  0  0  0  0  0  0  0  0  0  0
  -52.3051  -27.7537   10.5166 C   0  0  0  0  0  0  0  0  0  0  0  0
  -52.2320  -28.6404    9.2870 C   0  0  0  0  0  0  0  0  0  0  0  0
  -51.5201  -30.5236    7.4850 N   0  0  0  0  0  0  0  0  0  0  0  0
  -48.2038  -29.7582    5.0414 N   0  0  0  0  0  0  0  0  0  0  0  0
  -41.7136  -30.9581    2.6772 N   0  0  0  0  0  0  0  0  0  0  0  0
  -53.7010  -27.5761   10.9136 N   0  0  0  0  0  0  0  0  0  0  0  0
  -48.4105  -31.3567    3.3295 O   0  0  0  0  0  0  0  0  0  0  0  0
  -40.7630  -28.9590    3.3792 O   0  0  0  0  0  0  0  0  0  0  0  0
  -50.8735  -28.8008    8.8991 O   0  0  0  0  0  0  0  0  0  0  0  0
  -47.9806  -29.3611    0.9669 Cl  0  0  0  0  0  0  0  0  0  0  0  0
  -43.2436  -28.6877    1.6848 H   0  0  0  0  0  0  0  0  0  0  0  0
  -45.3112  -28.6046    0.3593 H   0  0  0  0  0  0  0  0  0  0  0  0
  -50.0537  -31.6471    4.6451 H   0  0  0  0  0  0  0  0  0  0  0  0
  -45.4138  -30.3624    5.0008 H   0  0  0  0  0  0  0  0  0  0  0  0
  -48.8489  -28.4466    7.2730 H   0  0  0  0  0  0  0  0  0  0  0  0
  -51.9973  -32.0286    6.1577 H   0  0  0  0  0  0  0  0  0  0  0  0
  -40.8105  -31.0358    0.7871 H   0  0  0  0  0  0  0  0  0  0  0  0
  -39.6865  -30.9624    2.1624 H   0  0  0  0  0  0  0  0  0  0  0  0
  -40.5553  -32.4676    1.8095 H   0  0  0  0  0  0  0  0  0  0  0  0
  -53.2969  -27.9019   12.9610 H   0  0  0  0  0  0  0  0  0  0  0  0
  -53.2998  -26.1974   12.4562 H   0  0  0  0  0  0  0  0  0  0  0  0
  -54.8325  -27.0743   12.6189 H   0  0  0  0  0  0  0  0  0  0  0  0
  -54.2936  -26.8949    9.0043 H   0  0  0  0  0  0  0  0  0  0  0  0
  -55.4098  -26.4910   10.3277 H   0  0  0  0  0  0  0  0  0  0  0  0
  -53.8769  -25.6144   10.1649 H   0  0  0  0  0  0  0  0  0  0  0  0
  -42.8209  -28.6525    4.8160 H   0  0  0  0  0  0  0  0  0  0  0  0
  -42.9932  -30.3960    4.9704 H   0  0  0  0  0  0  0  0  0  0  0  0
  -51.8798  -26.7678   10.3055 H   0  0  0  0  0  0  0  0  0  0  0  0
  -51.7667  -28.2033   11.3566 H   0  0  0  0  0  0  0  0  0  0  0  0
  -52.6634  -29.6289    9.4757 H   0  0  0  0  0  0  0  0  0  0  0  0
  -52.7674  -28.1718    8.4556 H   0  0  0  0  0  0  0  0  0  0  0  0
  -47.5910  -28.9913    5.3420 H   0  0  0  0  0  0  0  0  0  0  0  0
  -42.5072  -31.5843    2.7816 H   0  0  0  0  0  0  0  0  0  0  0  0
  1  2  2  0  0  0  0
  1  8  1  0  0  0  0
  2 10  1  0  0  0  0
  3  6  2  0  0  0  0
  3  9  1  0  0  0  0
  4  7  1  0  0  0  0
  4  8  2  0  0  0  0
  5  9  2  0  0  0  0
  5 11  1  0  0  0  0
  6 20  1  0  0  0  0
  7 10  2  0  0  0  0
  7 12  1  0  0  0  0
  8 17  1  0  0  0  0
  9 21  1  0  0  0  0
 10 27  1  0  0  0  0
 11 20  2  0  0  0  0
 11 26  1  0  0  0  0
 12 21  1  0  0  0  0
 12 24  2  0  0  0  0
 13 17  1  0  0  0  0
 13 22  1  0  0  0  0
 13 25  2  0  0  0  0
 14 22  1  0  0  0  0
 15 23  1  0  0  0  0
 16 23  1  0  0  0  0
 18 19  1  0  0  0  0
 18 23  1  0  0  0  0
 19 26  1  0  0  0  0
  1 28  1  0  0  0  0
  2 29  1  0  0  0  0
  3 30  1  0  0  0  0
  4 31  1  0  0  0  0
  5 32  1  0  0  0  0
  6 33  1  0  0  0  0
 14 34  1  0  0  0  0
 14 35  1  0  0  0  0
 14 36  1  0  0  0  0
 15 37  1  0  0  0  0
 15 38  1  0  0  0  0
 15 39  1  0  0  0  0
 16 40  1  0  0  0  0
 16 41  1  0  0  0  0
 16 42  1  0  0  0  0
 17 43  1  0  0  0  0
 17 44  1  0  0  0  0
 18 45  1  0  0  0  0
 18 46  1  0  0  0  0
 19 47  1  0  0  0  0
 19 48  1  0  0  0  0
 21 49  1  0  0  0  0
 22 50  1  0  0  0  0
M  END
> <POSIT::Probability>
0.02

> <POSIT::Method>
FRED

> <ReceptorTitle>
UCSF-P4486-REFINED_LIGAND-BOUND-STATE_A__DU__LA1_A-201(A)

> <OMEGA_C>
rbEwwvRM6MEBAQhA5WQ1wszt58G/+a8/g8dIwgxD+MFi5bBA15c1wmDU78G76H5AhhpGwpH86cG4
2t9ApRpNwtf3+cFpy8tACUs6wkB178F/5U5AVsswwiFA7MGheVtAcztFwm4a8MF/WrtAZzE6wguC
68H31/Y/54tKwhpU7MEQpvhAU08/wqpb88HSVndA97wmwtIq7sFhTVlACYsiwh0E+8GP4ec/6iRX
wqJV2cEBDEVBbGxZwo+61ME22iBBAsUrwlOi7MEfaodAbDhRwoQH3sHzQyhBne1Qwpgf5cGvlxRB
nRROwmww9MFNhe9AuNBAwtMQ7sFiU6FAxtomwiWq98HMVitAyc1Wws+b3MFLni5BV6RBwoza+sE6
F1VATA0jwiGs58FHRVhAeX5LwvZn5sGyYg5BIuw/wojj6sGGg3c/evkswmqA5cGPp9c/oj41wjDW
5MF797c+8zZIwk0t/cFipJRAsac1wi7m8sFdBqBASWVDwpiS48GIvOhANP1PwkUdAMLHC8VA8z0j
wmlJ+MF+gEk//74ewhiz98HXZApAozgiwsfeAcJjnOc/CjBVwhU338F1YE9B9jJVwkyU0cG0TEdB
gVRbwiOY2MEQ50lBrixZwqwo18HBERBBoaNdwqrt08EvPiVB84FXwlTqzMFuoyJBlkgrwmA45cGs
HJpAFPkrwu4q88F8DZ9A74RPwoYk1sFu4yRBHBFPwlqg4cFxtDVBTadSwg0I7cF4nBdBxRFTwsVf
4cFBSgdBPF0+wi7u58G/8apAYQcqwoys/MGbBTJA

> <OMEGA_E>
krHmwA==

> <OMEGA_NBR>
     23301

$$$$
CACHE3HI_1716_55
  -OEChem-03092622503D

 36 38  0     0  0  0  0  0  0999 V2000
  -42.8534  -28.4663    1.2605 C   0  0  0  0  0  0  0  0  0  0  0  0
  -44.0400  -28.7885    0.5640 C   0  0  0  0  0  0  0  0  0  0  0  0
  -45.2200  -29.8128    2.5235 C   0  0  0  0  0  0  0  0  0  0  0  0
  -44.0411  -29.4839    3.1796 C   0  0  0  0  0  0  0  0  0  0  0  0
  -42.8791  -28.8381    2.6174 C   0  0  0  0  0  0  0  0  0  0  0  0
  -45.1661  -29.4303    1.1693 C   0  0  0  0  0  0  0  0  0  0  0  0
  -43.7707  -29.7181    4.4974 C   0  0  0  0  0  0  0  0  0  0  0  0
  -46.8084  -30.0089    6.5466 C   0  0  0  0  0  0  0  0  0  0  0  0
  -50.4985  -29.4525    7.1055 C   0  0  0  0  0  0  0  0  0  0  0  0
  -48.4927  -29.2173    4.7990 C   0  0  0  0  0  0  0  0  0  0  0  0
  -48.6904  -30.6921    4.9628 C   0  0  0  0  0  0  0  0  0  0  0  0
  -48.2474  -29.8617    6.1309 C   0  0  0  0  0  0  0  0  0  0  0  0
  -51.1806  -29.1922    8.4217 C   0  0  0  0  0  0  0  0  0  0  0  0
  -44.5343  -30.3361    5.5944 C   0  0  0  0  0  0  0  0  0  0  0  0
  -41.9480  -28.6951    3.5776 N   0  0  0  0  0  0  0  0  0  0  0  0
  -42.5101  -29.2282    4.6802 N   0  0  0  0  0  0  0  0  0  0  0  0
  -45.9646  -30.1562    5.4610 N   0  0  0  0  0  0  0  0  0  0  0  0
  -49.1136  -29.6251    7.2248 N   0  0  0  0  0  0  0  0  0  0  0  0
  -46.4712  -30.0106    7.7281 O   0  0  0  0  0  0  0  0  0  0  0  0
  -51.1217  -29.4856    6.0472 O   0  0  0  0  0  0  0  0  0  0  0  0
  -46.5470  -29.7565    0.1768 Cl  0  0  0  0  0  0  0  0  0  0  0  0
  -42.0118  -27.9807    0.7847 H   0  0  0  0  0  0  0  0  0  0  0  0
  -44.0872  -28.5279   -0.4939 H   0  0  0  0  0  0  0  0  0  0  0  0
  -46.0747  -30.2945    2.9787 H   0  0  0  0  0  0  0  0  0  0  0  0
  -47.6517  -28.8861    4.2011 H   0  0  0  0  0  0  0  0  0  0  0  0
  -49.3779  -28.6007    4.6955 H   0  0  0  0  0  0  0  0  0  0  0  0
  -49.7082  -31.0647    4.9676 H   0  0  0  0  0  0  0  0  0  0  0  0
  -47.9827  -31.3524    4.4752 H   0  0  0  0  0  0  0  0  0  0  0  0
  -51.2082  -28.1151    8.6110 H   0  0  0  0  0  0  0  0  0  0  0  0
  -52.2037  -29.5787    8.3896 H   0  0  0  0  0  0  0  0  0  0  0  0
  -50.6436  -29.6916    9.2337 H   0  0  0  0  0  0  0  0  0  0  0  0
  -44.3579  -31.4256    5.6607 H   0  0  0  0  0  0  0  0  0  0  0  0
  -44.2586  -29.9261    6.5837 H   0  0  0  0  0  0  0  0  0  0  0  0
  -41.9680  -29.2242    5.5350 H   0  0  0  0  0  0  0  0  0  0  0  0
  -46.3532  -30.1693    4.5242 H   0  0  0  0  0  0  0  0  0  0  0  0
  -48.7154  -29.5438    8.1709 H   0  0  0  0  0  0  0  0  0  0  0  0
  1  2  2  0  0  0  0
  1  5  1  0  0  0  0
  2  6  1  0  0  0  0
  3  4  1  0  0  0  0
  3  6  2  0  0  0  0
  4  5  1  0  0  0  0
  4  7  2  0  0  0  0
  5 15  2  0  0  0  0
  6 21  1  0  0  0  0
  7 14  1  0  0  0  0
  7 16  1  0  0  0  0
  8 12  1  0  0  0  0
  8 17  1  0  0  0  0
  8 19  2  0  0  0  0
  9 13  1  0  0  0  0
  9 18  1  0  0  0  0
  9 20  2  0  0  0  0
 10 11  1  0  0  0  0
 10 12  1  0  0  0  0
 11 12  1  0  0  0  0
 12 18  1  0  0  0  0
 14 17  1  0  0  0  0
 15 16  1  0  0  0  0
  1 22  1  0  0  0  0
  2 23  1  0  0  0  0
  3 24  1  0  0  0  0
 10 25  1  0  0  0  0
 10 26  1  0  0  0  0
 11 27  1  0  0  0  0
 11 28  1  0  0  0  0
 13 29  1  0  0  0  0
 13 30  1  0  0  0  0
 13 31  1  0  0  0  0
 14 32  1  0  0  0  0
 14 33  1  0  0  0  0
 16 34  1  0  0  0  0
 17 35  1  0  0  0  0
 18 36  1  0  0  0  0
M  END
> <POSIT::Probability>
0.24

> <POSIT::Method>
FRED

> <ReceptorTitle>
UCSF-P4486-REFINED_LIGAND-BOUND-STATE_A__DU__LA1_A-201(A)

> <OMEGA_C>
6mkrwuu648EoWKE/+Sgwws9O5sEQXxA/POE0wqKA7sG8gCFAHCowwv3e68H0fktAPIQrwnS05sG8
gydAGao0wkJx68HwrJU/OBUvwqa+7cHA6o9Axzs7wicS8MHAfdFAgf5JwsGe68GgYONAgvhBwhS9
6cEWkZlAAsNCwleJ9cFCz55ATP1Awtfk7sFGMMRA77hMwqmJ6cEsvwZBGSMywkGw8sF6BbNAxMon
woqP5cE0+GRAWgoqwmzT6cE0xJVAzds3wtY/8cF+wK5AWnREwh4A7cHQMedAguI5wqwV8MFYTPdA
lHxMwoHi68FEgsFAIDA6wjoN7sFACDU+DQwownnY38Hw5Eg/V1kwwjY55MHA2/y+hkw4wjZb8sFo
oj5AUps+wr8W58GEb4ZA+oJFwlbO5ME2QZZAKtVGwnCE+MGM9p5AVu4/wp/R+sGINI9AOdVMwqjr
4MF4xglBmtBQwjah7MHsOwZBAJNKwmGI7cEOvRNBhW4xwqVn+8E8JLVAwggxwpto78EErtJAMt8n
wirL6cG4HrFAuGk5ws9a8cHwxZBAh9xCwslZ7MEzvAJB

> <OMEGA_E>
wioiwQ==

> <OMEGA_NBR>
     24513

$$$$
CACHE3HI_1717_59
  -OEChem-03092622503D

 48 52  0     1  0  0  0  0  0999 V2000
  -44.5186  -30.5860    3.9405 C   0  0  0  0  0  0  0  0  0  0  0  0
  -45.3794  -30.3012    1.6996 C   0  0  0  0  0  0  0  0  0  0  0  0
  -42.1585  -29.2759    2.5029 C   0  0  0  0  0  0  0  0  0  0  0  0
  -43.5547  -28.6322    2.4959 C   0  0  0  0  0  0  0  0  0  0  0  0
  -42.8084  -30.5612    1.9636 C   0  0  0  0  0  0  0  0  0  0  0  0
  -46.7055  -29.4244    3.7647 C   0  0  0  0  0  0  0  0  0  0  0  0
  -45.7771  -29.7767    5.9922 C   0  0  0  0  0  0  0  0  0  0  0  0
  -45.5605  -32.5909    2.6417 C   0  0  0  0  0  0  0  0  0  0  0  0
  -46.4292  -32.2101    0.3949 C   0  0  0  0  0  0  0  0  0  0  0  0
  -47.6872  -28.9223    4.7708 C   0  0  2  0  0  0  0  0  0  0  0  0
  -47.1196  -29.1369    6.1340 C   0  0  1  0  0  0  0  0  0  0  0  0
  -46.1830  -33.8571    2.1547 C   0  0  2  0  0  0  0  0  0  0  0  0
  -46.7142  -33.6252    0.7798 C   0  0  1  0  0  0  0  0  0  0  0  0
  -48.3762  -29.8637    5.7263 C   0  0  0  0  0  0  0  0  0  0  0  0
  -47.6667  -33.9508    1.9023 C   0  0  0  0  0  0  0  0  0  0  0  0
  -44.1681  -30.0716    2.5673 C   0  0  0  0  0  0  0  0  0  0  0  0
  -49.6834  -29.4844    6.3306 C   0  0  0  0  0  0  0  0  0  0  0  0
  -48.3451  -35.2759    1.9406 C   0  0  0  0  0  0  0  0  0  0  0  0
  -45.6016  -29.9737    4.5506 N   0  0  0  0  0  0  0  0  0  0  0  0
  -45.7815  -31.6209    1.5701 N   0  0  0  0  0  0  0  0  0  0  0  0
  -43.8600  -31.4914    4.4545 O   0  0  0  0  0  0  0  0  0  0  0  0
  -45.9465  -29.3522    1.1560 O   0  0  0  0  0  0  0  0  0  0  0  0
  -49.8881  -30.1170    7.5112 F   0  0  0  0  0  0  0  0  0  0  0  0
  -50.7187  -29.8034    5.5169 F   0  0  0  0  0  0  0  0  0  0  0  0
  -49.7531  -28.1525    6.5695 F   0  0  0  0  0  0  0  0  0  0  0  0
  -49.4742  -35.2788    1.1917 F   0  0  0  0  0  0  0  0  0  0  0  0
  -48.6975  -35.6180    3.2034 F   0  0  0  0  0  0  0  0  0  0  0  0
  -47.5433  -36.2590    1.4648 F   0  0  0  0  0  0  0  0  0  0  0  0
  -41.4168  -28.8088    1.8503 H   0  0  0  0  0  0  0  0  0  0  0  0
  -41.7306  -29.3870    3.5058 H   0  0  0  0  0  0  0  0  0  0  0  0
  -43.7666  -27.9802    3.3482 H   0  0  0  0  0  0  0  0  0  0  0  0
  -43.7852  -28.0862    1.5733 H   0  0  0  0  0  0  0  0  0  0  0  0
  -42.7987  -30.6361    0.8696 H   0  0  0  0  0  0  0  0  0  0  0  0
  -42.4081  -31.4903    2.3795 H   0  0  0  0  0  0  0  0  0  0  0  0
  -47.1220  -30.2063    3.1220 H   0  0  0  0  0  0  0  0  0  0  0  0
  -46.3138  -28.6162    3.1388 H   0  0  0  0  0  0  0  0  0  0  0  0
  -44.9781  -29.1220    6.3539 H   0  0  0  0  0  0  0  0  0  0  0  0
  -45.7209  -30.7402    6.5071 H   0  0  0  0  0  0  0  0  0  0  0  0
  -46.0166  -32.2247    3.5668 H   0  0  0  0  0  0  0  0  0  0  0  0
  -44.4815  -32.6984    2.7916 H   0  0  0  0  0  0  0  0  0  0  0  0
  -45.7356  -32.1537   -0.4499 H   0  0  0  0  0  0  0  0  0  0  0  0
  -47.3406  -31.6540    0.1568 H   0  0  0  0  0  0  0  0  0  0  0  0
  -48.1431  -27.9752    4.5240 H   0  0  0  0  0  0  0  0  0  0  0  0
  -47.1680  -28.3446    6.8657 H   0  0  0  0  0  0  0  0  0  0  0  0
  -45.6143  -34.7504    2.3650 H   0  0  0  0  0  0  0  0  0  0  0  0
  -46.5272  -34.3515    0.0032 H   0  0  0  0  0  0  0  0  0  0  0  0
  -48.3161  -30.9284    5.5339 H   0  0  0  0  0  0  0  0  0  0  0  0
  -48.3048  -33.1614    2.2817 H   0  0  0  0  0  0  0  0  0  0  0  0
  1 16  1  0  0  0  0
  1 19  1  0  0  0  0
  1 21  2  0  0  0  0
  2 16  1  0  0  0  0
  2 20  1  0  0  0  0
  2 22  2  0  0  0  0
  3  4  1  0  0  0  0
  3  5  1  0  0  0  0
  4 16  1  0  0  0  0
  5 16  1  0  0  0  0
  6 10  1  0  0  0  0
  6 19  1  0  0  0  0
  7 11  1  0  0  0  0
  7 19  1  0  0  0  0
  8 12  1  0  0  0  0
  8 20  1  0  0  0  0
  9 13  1  0  0  0  0
  9 20  1  0  0  0  0
 10 11  1  0  0  0  0
 10 14  1  0  0  0  0
 11 14  1  0  0  0  0
 12 13  1  0  0  0  0
 12 15  1  0  0  0  0
 13 15  1  0  0  0  0
 14 17  1  0  0  0  0
 15 18  1  0  0  0  0
 17 23  1  0  0  0  0
 17 24  1  0  0  0  0
 17 25  1  0  0  0  0
 18 26  1  0  0  0  0
 18 27  1  0  0  0  0
 18 28  1  0  0  0  0
  3 29  1  0  0  0  0
  3 30  1  0  0  0  0
  4 31  1  0  0  0  0
  4 32  1  0  0  0  0
  5 33  1  0  0  0  0
  5 34  1  0  0  0  0
  6 35  1  0  0  0  0
  6 36  1  0  0  0  0
  7 37  1  0  0  0  0
  7 38  1  0  0  0  0
  8 39  1  0  0  0  0
  8 40  1  0  0  0  0
  9 41  1  0  0  0  0
  9 42  1  0  0  0  0
 10 43  1  0  0  0  0
 11 44  1  0  0  0  0
 12 45  1  0  0  0  0
 13 46  1  0  0  0  0
 14 47  1  0  0  0  0
 15 48  1  0  0  0  0
M  END
> <POSIT::Probability>
0.14

> <POSIT::Method>
HYBRID

> <ReceptorTitle>
UCSF-P4486-REFINED_LIGAND-BOUND-STATE_A__DU__LA1_A-201(A)

> <OMEGA_C>
BBMywiyw9MFyMHxAioQ1wsZo8sE8jdk/WqIowvU06sHMLyBA+TcuwscO5cFgvB9AyjsrwkV99MHg
Vfs/d9I6widl68GY8XBAvRs3wpY27sEewL9A/j02wg9dAsIgESlAgbc5wi7XAMJALMo+sb8+wt5g
58GIqphAgXo8wnMY6cGbScRAXbs4wrRtB8Ky5glAXds6wjKABsIQoEc/NoFBws/o7sEmPrdAsao+
wpjNB8KkfvM/GawwwpOS8MH2TiRAxLtGwhzg68E0lMpAYWFBwogaDcLYZfg/FGg2wjzK78EsnpFA
OyA3wpz3/MHE+cg/oHAvwmDu+8Hmio5AMck3wkLR6sHg95M/ZY1Hwpfv8MGtW/BA9N9Kwl9t7sGM
irBALANHwmg44cEzOdJAmeVFwnMdDcIsiJg/NMpCwtR4DsLwA01AVCw+wkQJEcK8frs/xaolwmh4
5sGA1+w/GuwmwpYY68FmXmBA+xAvwmTX38FwSFZAByQvwpaw4MG8YMk/0zErwqsW9cFonV4/6aEp
whjs+8GWSRhA93w8wnem8cFEz0dAUUE5wurt5MGk4khAi+kzwu356MFYU8tALeI2wu3r9cHyOdBA
AhE4wg7mAMLsRWRAA+0xwjLLAsKsqTJAS/E2wmqdAMKgVea+y1w9wl87/cHggyA+iJJAwknN38EE
xZBAA6w8wrrB4sG5s9tA/3Q2wnUAC8KOWxdA4Rs6wutnCcIAmFI7qENBwm5t98EFFrFAHzhBwjyl
BMIqCBJA

> <OMEGA_E>
UF2+wA==

> <OMEGA_NBR>
     25994

$$$$
CACHE3HI_1879_11
  -OEChem-03092622503D

 46 48  0     1  0  0  0  0  0999 V2000
  -46.2241  -29.3516    2.0256 C   0  0  0  0  0  0  0  0  0  0  0  0
  -47.5762  -29.1074    2.2661 C   0  0  0  0  0  0  0  0  0  0  0  0
  -45.7888  -29.2742    4.4009 C   0  0  0  0  0  0  0  0  0  0  0  0
  -43.5965  -32.8132   -0.5104 C   0  0  0  0  0  0  0  0  0  0  0  0
  -45.3304  -29.4349    3.0932 C   0  0  0  0  0  0  0  0  0  0  0  0
  -48.0346  -28.9468    3.5738 C   0  0  0  0  0  0  0  0  0  0  0  0
  -47.1408  -29.0300    4.6414 C   0  0  0  0  0  0  0  0  0  0  0  0
  -44.3387  -32.6293    0.6290 C   0  0  0  0  0  0  0  0  0  0  0  0
  -43.2344  -30.4655    4.0141 C   0  0  0  0  0  0  0  0  0  0  0  0
  -41.7520  -36.6814   -3.7600 C   0  0  0  0  0  0  0  0  0  0  0  0
  -42.5484  -35.4420   -4.0819 C   0  0  0  0  0  0  0  0  0  0  0  0
  -42.4804  -37.2144   -2.5443 C   0  0  0  0  0  0  0  0  0  0  0  0
  -42.8727  -34.9216   -2.6921 C   0  0  1  0  0  0  0  0  0  0  0  0
  -42.9806  -28.4416    2.6514 C   0  0  0  0  0  0  0  0  0  0  0  0
  -43.9921  -31.8889    1.8489 C   0  0  0  0  0  0  0  0  0  0  0  0
  -44.1276  -34.0722   -2.6411 C   0  0  0  0  0  0  0  0  0  0  0  0
  -43.8467  -29.7028    2.8285 C   0  0  2  0  0  0  0  0  0  0  0  0
  -45.5425  -33.2647    0.5015 N   0  0  0  0  0  0  0  0  0  0  0  0
  -45.5730  -33.8442   -0.6935 N   0  0  0  0  0  0  0  0  0  0  0  0
  -44.4055  -33.5725   -1.2989 N   0  0  0  0  0  0  0  0  0  0  0  0
  -43.7119  -30.4877    1.6060 N   0  0  0  0  0  0  0  0  0  0  0  0
  -43.8733  -31.2389    4.7206 O   0  0  0  0  0  0  0  0  0  0  0  0
  -43.0342  -36.0816   -1.8586 O   0  0  0  0  0  0  0  0  0  0  0  0
  -41.9088  -30.2492    4.2008 O   0  0  0  0  0  0  0  0  0  0  0  0
  -49.7214  -28.6467    3.8064 Cl  0  0  0  0  0  0  0  0  0  0  0  0
  -47.6477  -28.8410    6.2836 Cl  0  0  0  0  0  0  0  0  0  0  0  0
  -45.8759  -29.4757    1.0035 H   0  0  0  0  0  0  0  0  0  0  0  0
  -48.2591  -29.0458    1.4222 H   0  0  0  0  0  0  0  0  0  0  0  0
  -45.0845  -29.3410    5.2274 H   0  0  0  0  0  0  0  0  0  0  0  0
  -42.6125  -32.4850   -0.8143 H   0  0  0  0  0  0  0  0  0  0  0  0
  -41.7069  -37.4018   -4.5808 H   0  0  0  0  0  0  0  0  0  0  0  0
  -40.7258  -36.4048   -3.4902 H   0  0  0  0  0  0  0  0  0  0  0  0
  -41.9989  -34.7178   -4.6895 H   0  0  0  0  0  0  0  0  0  0  0  0
  -43.4616  -35.7216   -4.6212 H   0  0  0  0  0  0  0  0  0  0  0  0
  -43.3113  -37.8662   -2.8347 H   0  0  0  0  0  0  0  0  0  0  0  0
  -41.8216  -37.7682   -1.8696 H   0  0  0  0  0  0  0  0  0  0  0  0
  -42.0248  -34.3520   -2.2930 H   0  0  0  0  0  0  0  0  0  0  0  0
  -41.9302  -28.6940    2.4650 H   0  0  0  0  0  0  0  0  0  0  0  0
  -43.3210  -27.8476    1.7933 H   0  0  0  0  0  0  0  0  0  0  0  0
  -43.0260  -27.7877    3.5309 H   0  0  0  0  0  0  0  0  0  0  0  0
  -44.8028  -31.9195    2.6024 H   0  0  0  0  0  0  0  0  0  0  0  0
  -43.0982  -32.2997    2.3571 H   0  0  0  0  0  0  0  0  0  0  0  0
  -45.0003  -34.6468   -2.9732 H   0  0  0  0  0  0  0  0  0  0  0  0
  -44.0383  -33.2071   -3.3099 H   0  0  0  0  0  0  0  0  0  0  0  0
  -42.7589  -30.3850    1.2505 H   0  0  0  0  0  0  0  0  0  0  0  0
  -41.5085  -30.7557    4.9379 H   0  0  0  0  0  0  0  0  0  0  0  0
  1  2  2  0  0  0  0
  1  5  1  0  0  0  0
  2  6  1  0  0  0  0
  3  5  2  0  0  0  0
  3  7  1  0  0  0  0
  4  8  2  0  0  0  0
  4 20  1  0  0  0  0
  5 17  1  0  0  0  0
  6  7  2  0  0  0  0
  6 25  1  0  0  0  0
  7 26  1  0  0  0  0
  8 15  1  0  0  0  0
  8 18  1  0  0  0  0
  9 17  1  0  0  0  0
  9 22  2  0  0  0  0
  9 24  1  0  0  0  0
 10 11  1  0  0  0  0
 10 12  1  0  0  0  0
 11 13  1  0  0  0  0
 12 23  1  0  0  0  0
 13 16  1  0  0  0  0
 13 23  1  0  0  0  0
 14 17  1  0  0  0  0
 15 21  1  0  0  0  0
 16 20  1  0  0  0  0
 17 21  1  0  0  0  0
 18 19  2  0  0  0  0
 19 20  1  0  0  0  0
  1 27  1  0  0  0  0
  2 28  1  0  0  0  0
  3 29  1  0  0  0  0
  4 30  1  0  0  0  0
 10 31  1  0  0  0  0
 10 32  1  0  0  0  0
 11 33  1  0  0  0  0
 11 34  1  0  0  0  0
 12 35  1  0  0  0  0
 12 36  1  0  0  0  0
 13 37  1  0  0  0  0
 14 38  1  0  0  0  0
 14 39  1  0  0  0  0
 14 40  1  0  0  0  0
 15 41  1  0  0  0  0
 15 42  1  0  0  0  0
 16 43  1  0  0  0  0
 16 44  1  0  0  0  0
 21 45  1  0  0  0  0
 24 46  1  0  0  0  0
M  END
> <POSIT::Probability>
0.05

> <POSIT::Method>
FRED

> <ReceptorTitle>
UCSF-P4486-REFINED_LIGAND-BOUND-STATE_A__DU__LA1_A-201(A)

> <OMEGA_C>
deU4whDQ6sFkowFACU4+wuvb6MFcBxFAtic3wqYx6sE21IxAymIuwsFAA8JQqwK/TVI1wpp668Eo
90VAcSNAwvaS58GkuGRAOpA8woY96MFmhpRA1FoxwmeEAsJgBiE/DPAswmi588Gwc4BACQInwrm5
EsIupHDAmDEqwqTEDcLRnoLA4uspwozbFMK01SLAqX0rwqyvC8L4SizAHOwrwnCI48FssClA7/cv
wm4c/8EQqew/tYIwwvFJCMJ0CCnADmMvwmWf7cF8BTVAkCs2wgQPBcJgZQA/uUo2wnBgB8IQizG/
PJ8xwkJKBsIoQ6a/B9kuwuDm88GYks0/Q34vwkXp+cGAD5dA+SIswodTEMLw5e2/oKInwkj+8cEq
bYZAuuJGwoss5cE8nHNARZc+wla65sHYEslA9oA3wkbO68HAcYA/TglBwrtd6ME4CrY/gFY0wnG6
6sHgRqdANnMqwqDwAcIAeVC/5NMmwnqbFcLQlZLAM+ciwoieEcKSX1/A2/4nwg3fCsJSEJbAstgt
wuDiDsLt4JPAuz4twvJ2F8IYbDXAVkknwq4SF8IgT++/WxkowmZoCcJEwBLAg7gnwlqN5cHAwR1A
uEgtwtDH3sFAjOU/qhoswkhN3sGk+mFAEjYzwjtb/8F0jiZAhGQswu4yAcJ82xZAUwA0wkuWCsJg
SD7AOycwwhXUBMKw1VPAFQkrwoYU88HAEaA/vggmwpkL9sGQA55A

> <OMEGA_E>
Ut/LwA==

> <OMEGA_NBR>
     27412

$$$$
CACHE3HI_1879_22
  -OEChem-03092622503D

 42 44  0     0  0  0  0  0  0999 V2000
  -47.6355  -34.8262    1.9309 C   0  0  0  0  0  0  0  0  0  0  0  0
  -48.8336  -35.3027    2.4921 C   0  0  0  0  0  0  0  0  0  0  0  0
  -47.8664  -32.7676    3.2183 C   0  0  0  0  0  0  0  0  0  0  0  0
  -44.5407  -29.8492    6.4811 C   0  0  0  0  0  0  0  0  0  0  0  0
  -47.1305  -33.5560    2.3033 C   0  0  0  0  0  0  0  0  0  0  0  0
  -49.5335  -34.5273    3.4352 C   0  0  0  0  0  0  0  0  0  0  0  0
  -49.0490  -33.2546    3.7976 C   0  0  0  0  0  0  0  0  0  0  0  0
  -44.8747  -29.8116    5.1518 C   0  0  0  0  0  0  0  0  0  0  0  0
  -46.7782  -29.4652    6.6951 C   0  0  0  0  0  0  0  0  0  0  0  0
  -44.9669  -32.2967    2.8048 C   0  0  0  0  0  0  0  0  0  0  0  0
  -49.2306  -29.0780    6.8789 C   0  0  0  0  0  0  0  0  0  0  0  0
  -44.7390  -32.6153   -0.0777 C   0  0  0  0  0  0  0  0  0  0  0  0
  -45.0179  -33.8781    0.7500 C   0  0  0  0  0  0  0  0  0  0  0  0
  -46.0975  -32.1169    0.4422 C   0  0  0  0  0  0  0  0  0  0  0  0
  -45.8427  -32.9721    1.7169 C   0  0  0  0  0  0  0  0  0  0  0  0
  -50.4200  -29.1066    7.8341 C   0  0  0  0  0  0  0  0  0  0  0  0
  -45.6370  -29.6493    7.3176 N   0  0  0  0  0  0  0  0  0  0  0  0
  -47.9605  -29.2826    7.4127 N   0  0  0  0  0  0  0  0  0  0  0  0
  -44.5577  -30.9827    2.6214 N   0  0  0  0  0  0  0  0  0  0  0  0
  -44.6991  -32.9092    3.8340 O   0  0  0  0  0  0  0  0  0  0  0  0
  -49.4395  -29.0168    5.6723 O   0  0  0  0  0  0  0  0  0  0  0  0
  -43.4928  -28.7434    3.1861 O   0  0  0  0  0  0  0  0  0  0  0  0
  -42.6083  -30.8643    4.2986 O   0  0  0  0  0  0  0  0  0  0  0  0
  -46.5636  -29.5151    4.9607 S   0  0  0  0  0  0  0  0  0  0  0  0
  -43.7290  -30.0593    3.7926 S   0  0  0  0  0  0  0  0  0  0  0  0
  -50.9944  -35.1577    4.1535 Cl  0  0  0  0  0  0  0  0  0  0  0  0
  -49.9018  -32.2707    4.9638 Cl  0  0  0  0  0  0  0  0  0  0  0  0
  -47.0989  -35.4301    1.2142 H   0  0  0  0  0  0  0  0  0  0  0  0
  -49.2184  -36.2680    2.1980 H   0  0  0  0  0  0  0  0  0  0  0  0
  -47.5144  -31.7792    3.4745 H   0  0  0  0  0  0  0  0  0  0  0  0
  -43.5362  -30.0157    6.8410 H   0  0  0  0  0  0  0  0  0  0  0  0
  -43.8700  -32.0259    0.2501 H   0  0  0  0  0  0  0  0  0  0  0  0
  -44.6859  -32.7733   -1.1650 H   0  0  0  0  0  0  0  0  0  0  0  0
  -45.6052  -34.6486    0.2291 H   0  0  0  0  0  0  0  0  0  0  0  0
  -44.1262  -34.3386    1.2003 H   0  0  0  0  0  0  0  0  0  0  0  0
  -46.1515  -31.0327    0.6198 H   0  0  0  0  0  0  0  0  0  0  0  0
  -46.9632  -32.4337   -0.1579 H   0  0  0  0  0  0  0  0  0  0  0  0
  -51.3555  -29.0651    7.2570 H   0  0  0  0  0  0  0  0  0  0  0  0
  -50.3941  -30.0347    8.4240 H   0  0  0  0  0  0  0  0  0  0  0  0
  -50.3678  -28.2407    8.5105 H   0  0  0  0  0  0  0  0  0  0  0  0
  -47.8890  -29.3004    8.4100 H   0  0  0  0  0  0  0  0  0  0  0  0
  -44.7624  -30.5484    1.7442 H   0  0  0  0  0  0  0  0  0  0  0  0
  1  2  2  0  0  0  0
  1  5  1  0  0  0  0
  2  6  1  0  0  0  0
  3  5  2  0  0  0  0
  3  7  1  0  0  0  0
  4  8  2  0  0  0  0
  4 17  1  0  0  0  0
  5 15  1  0  0  0  0
  6  7  2  0  0  0  0
  6 26  1  0  0  0  0
  7 27  1  0  0  0  0
  8 24  1  0  0  0  0
  8 25  1  0  0  0  0
  9 17  2  0  0  0  0
  9 18  1  0  0  0  0
  9 24  1  0  0  0  0
 10 15  1  0  0  0  0
 10 19  1  0  0  0  0
 10 20  2  0  0  0  0
 11 16  1  0  0  0  0
 11 18  1  0  0  0  0
 11 21  2  0  0  0  0
 12 13  1  0  0  0  0
 12 14  1  0  0  0  0
 13 15  1  0  0  0  0
 14 15  1  0  0  0  0
 19 25  1  0  0  0  0
 22 25  2  0  0  0  0
 23 25  2  0  0  0  0
  1 28  1  0  0  0  0
  2 29  1  0  0  0  0
  3 30  1  0  0  0  0
  4 31  1  0  0  0  0
 12 32  1  0  0  0  0
 12 33  1  0  0  0  0
 13 34  1  0  0  0  0
 13 35  1  0  0  0  0
 14 36  1  0  0  0  0
 14 37  1  0  0  0  0
 16 38  1  0  0  0  0
 16 39  1  0  0  0  0
 16 40  1  0  0  0  0
 18 41  1  0  0  0  0
 19 42  1  0  0  0  0
M  END
> <POSIT::Probability>
0.99

> <POSIT::Method>
SHAPEFIT

> <ReceptorTitle>
UCSF-P4486-REFINED_LIGAND-BOUND-STATE_A__DU__LA1_A-201(A)

> <OMEGA_C>
wYo+wgZOC8LkJ/c/p1VDwvI1DcJTfh9AJ3c/wgsSA8K3+E1AuikywhDL7sEYZc9AoIU8wks5BsK8
aRNAVCJGwvkbCsLA2VtAOTJEwrYEBcLSC3NAvn8zwiZ+7sGE26RA1Bw7wrq468FAPtZAGd4zwskv
AcIYgTNAKOxEws6f6MEiINxAx/Qywg12AsKsJJ+9UBI0wiKDB8Lo/z8/ymM4wq53AMJbZ+I+7l43
wmnjA8Lswts/C65JwmHa6MFUsfpAVYw2wr4x7cEiKupAj9c/wtJC6sGeNO1AHTsywpDc98FFxSdA
3MsywhGjA8KwYHVAD8JFwmwi6MHfg7VAnPgtwn7y5cFj6EtA824qwgvq9sE4jolAIUE6wvke7MEq
vp5Aheouwol58MEiunJAOvpLwnOhDMLI6YRAaJtHwjkVAcIc155ARGU8wnG4DcKEaZs/rt9Ewm8S
EcL6qwxAwA4+wuQ7/sFCXl5ADyUuwiYg8MFQ6dpA7XovwoEaAMJoDIA+VL4ywtcXA8LEHpW/sms2
wjKYCsI2nmo+O4EwwsFaCcLKo5k/GJs4wuBC+MFHrB4/Sto7whi8AcI6uSG+CGxNwk+F6MG2OehA
iZNJwiBH8MHVyAZBmHhJwvrs4cEHKwhBUY4/wkln6sErjwZBuQwzwh9j9MFfQt8/

> <OMEGA_E>
QL0/PQ==

> <OMEGA_NBR>
     28771

$$$$
CACHE3-HO_1705_17
  -OEChem-03092622503D

 44 45  0     1  0  0  0  0  0999 V2000
  -44.1837  -27.0745    0.4447 C   0  0  0  0  0  0  0  0  0  0  0  0
  -44.9634  -29.1022    1.0378 C   0  0  0  0  0  0  0  0  0  0  0  0
  -45.3398  -27.8060    0.6067 C   0  0  0  0  0  0  0  0  0  0  0  0
  -43.5889  -29.1234    1.1257 C   0  0  0  0  0  0  0  0  0  0  0  0
  -45.8474  -30.2548    1.3465 C   0  0  0  0  0  0  0  0  0  0  0  0
  -42.0894  -30.0566    2.9269 C   0  0  0  0  0  0  0  0  0  0  0  0
  -49.9282  -29.3862    4.9702 C   0  0  0  0  0  0  0  0  0  0  0  0
  -49.0657  -30.4406    5.6613 C   0  0  0  0  0  0  0  0  0  0  0  0
  -48.9843  -28.5533    4.0979 C   0  0  0  0  0  0  0  0  0  0  0  0
  -47.7726  -30.5100    4.8461 C   0  0  2  0  0  0  0  0  0  0  0  0
  -47.5780  -29.0573    4.4075 C   0  0  2  0  0  0  0  0  0  0  0  0
  -46.7128  -27.3165    0.3718 C   0  0  0  0  0  0  0  0  0  0  0  0
  -42.6554  -30.1982    1.5172 C   0  0  0  0  0  0  0  0  0  0  0  0
  -47.9006  -31.4617    3.6584 C   0  0  0  0  0  0  0  0  0  0  0  0
  -46.5498  -31.8774    3.0871 C   0  0  0  0  0  0  0  0  0  0  0  0
  -43.1258  -27.8858    0.7631 N   0  0  0  0  0  0  0  0  0  0  0  0
  -42.8980  -30.6115    3.8964 N   0  0  0  0  0  0  0  0  0  0  0  0
  -45.7746  -30.7520    2.6427 N   0  0  0  0  0  0  0  0  0  0  0  0
  -46.5658  -30.7138    0.4624 O   0  0  0  0  0  0  0  0  0  0  0  0
  -41.0221  -29.5000    3.1696 O   0  0  0  0  0  0  0  0  0  0  0  0
  -47.0524  -28.2920    5.4893 O   0  0  0  0  0  0  0  0  0  0  0  0
  -44.0172  -26.0525    0.1336 H   0  0  0  0  0  0  0  0  0  0  0  0
  -50.7118  -29.8602    4.3686 H   0  0  0  0  0  0  0  0  0  0  0  0
  -50.4256  -28.7428    5.7051 H   0  0  0  0  0  0  0  0  0  0  0  0
  -48.8753  -30.1891    6.7122 H   0  0  0  0  0  0  0  0  0  0  0  0
  -49.5875  -31.4083    5.6472 H   0  0  0  0  0  0  0  0  0  0  0  0
  -49.2207  -28.6512    3.0320 H   0  0  0  0  0  0  0  0  0  0  0  0
  -49.0824  -27.4872    4.3425 H   0  0  0  0  0  0  0  0  0  0  0  0
  -46.9442  -30.8358    5.4644 H   0  0  0  0  0  0  0  0  0  0  0  0
  -46.9244  -28.9593    3.5535 H   0  0  0  0  0  0  0  0  0  0  0  0
  -47.0403  -27.4856   -0.6682 H   0  0  0  0  0  0  0  0  0  0  0  0
  -46.7997  -26.2303    0.5464 H   0  0  0  0  0  0  0  0  0  0  0  0
  -47.4332  -27.8212    1.0361 H   0  0  0  0  0  0  0  0  0  0  0  0
  -41.7981  -30.2535    0.8176 H   0  0  0  0  0  0  0  0  0  0  0  0
  -43.1409  -31.1923    1.4575 H   0  0  0  0  0  0  0  0  0  0  0  0
  -48.4669  -32.3489    3.9663 H   0  0  0  0  0  0  0  0  0  0  0  0
  -48.4801  -30.9653    2.8708 H   0  0  0  0  0  0  0  0  0  0  0  0
  -46.6695  -32.5582    2.2385 H   0  0  0  0  0  0  0  0  0  0  0  0
  -45.9598  -32.3890    3.8542 H   0  0  0  0  0  0  0  0  0  0  0  0
  -42.1538  -27.6095    0.7356 H   0  0  0  0  0  0  0  0  0  0  0  0
  -43.7704  -31.0546    3.6266 H   0  0  0  0  0  0  0  0  0  0  0  0
  -42.6335  -30.5832    4.8762 H   0  0  0  0  0  0  0  0  0  0  0  0
  -45.1058  -30.3535    3.2990 H   0  0  0  0  0  0  0  0  0  0  0  0
  -47.0362  -27.3631    5.2014 H   0  0  0  0  0  0  0  0  0  0  0  0
  1  3  2  0  0  0  0
  1 16  1  0  0  0  0
  2  3  1  0  0  0  0
  2  4  2  0  0  0  0
  2  5  1  0  0  0  0
  3 12  1  0  0  0  0
  4 13  1  0  0  0  0
  4 16  1  0  0  0  0
  5 18  1  0  0  0  0
  5 19  2  0  0  0  0
  6 13  1  0  0  0  0
  6 17  1  0  0  0  0
  6 20  2  0  0  0  0
  7  8  1  0  0  0  0
  7  9  1  0  0  0  0
  8 10  1  0  0  0  0
  9 11  1  0  0  0  0
 10 11  1  0  0  0  0
 10 14  1  0  0  0  0
 11 21  1  0  0  0  0
 14 15  1  0  0  0  0
 15 18  1  0  0  0  0
  1 22  1  0  0  0  0
  7 23  1  0  0  0  0
  7 24  1  0  0  0  0
  8 25  1  0  0  0  0
  8 26  1  0  0  0  0
  9 27  1  0  0  0  0
  9 28  1  0  0  0  0
 10 29  1  0  0  0  0
 11 30  1  0  0  0  0
 12 31  1  0  0  0  0
 12 32  1  0  0  0  0
 12 33  1  0  0  0  0
 13 34  1  0  0  0  0
 13 35  1  0  0  0  0
 14 36  1  0  0  0  0
 14 37  1  0  0  0  0
 15 38  1  0  0  0  0
 15 39  1  0  0  0  0
 16 40  1  0  0  0  0
 17 41  1  0  0  0  0
 17 42  1  0  0  0  0
 18 43  1  0  0  0  0
 21 44  1  0  0  0  0
M  END
> <POSIT::Probability>
0.24

> <POSIT::Method>
FRED

> <ReceptorTitle>
UCSF-P4508-REFINED_LIGAND-BOUND-STATE_AALTB__DU__LA1_A-201(A)

> <OMEGA_C>
Gbwwwo+Y2MHYteM+hNozwj/R6MGG1oQ/91s1wrhy3sG4URs/C1suwrT86MF6GJA/tmM3wtYJ8sFf
Wqw/lFsowvtz8MF2UjtAhrZHwu4W68HaC59AU0NEwmiG88FoKbVA5O9DwiJt5MFCIoNAHhc/wpUU
9MFUE5tA108+wkZ16MGMCo1A5dk6wheI2sHwW74+Ip8qwvyV8cEWMsI/Qpo/wqSx+8F/ImpA8zI6
wu4E/8G3kkVA2IAswg0W38EmWkM/lpcrwkrk9MFKX3lAKhk3whwE9sH7ISlAVkM6wtC19cGEwuw+
ohYkwggA7MET2kpArjU8wglW4sH0p69AmxEwwnRr0MEAxQg+6thKwrrh7sH3y4tA27NJwi7x5cEp
kLZASIBDwjeD8cEKytZAmFlGwiFE+8EltrRABuJEwrg15cG2DEJAZVREwt3l28Ea9opA4cY7wqqv
9sFw3K5AnrI7wpGs58FBbWNAQyk8wpLi28GoECu/7zI7wo7X0cHk3gs/krs9wt6R3sH/nYQ/SDEn
wiQH8sHwS1E/RpAswuaJ+cFokLo/J95BwkhlAcKd131AqetBwt2498G3ujdAl606wpA7AsKmQw9A
0NY3wliOAcLoqnZAfp0owlPg3MHsUDw/7xQvwtlv+MEcGmhAqogqwlOq9MGgCZxAS2w0wvLT8sGW
I1NAByU8wq7n2sH9caZA

> <OMEGA_E>
glcMwQ==

> <OMEGA_NBR>
      1383

$$$$
CACHE3-HO_1706_1
  -OEChem-03092622503D

 36 38  0     0  0  0  0  0  0999 V2000
  -48.8172  -28.6298    5.6032 C   0  0  0  0  0  0  0  0  0  0  0  0
  -44.3819  -29.6528    5.4941 C   0  0  0  0  0  0  0  0  0  0  0  0
  -46.8780  -29.1721    4.5124 C   0  0  0  0  0  0  0  0  0  0  0  0
  -48.3208  -28.8581    4.3377 C   0  0  0  0  0  0  0  0  0  0  0  0
  -46.6110  -29.0990    5.8844 C   0  0  0  0  0  0  0  0  0  0  0  0
  -45.8167  -29.5163    3.6454 C   0  0  0  0  0  0  0  0  0  0  0  0
  -49.1768  -28.7725    3.1220 C   0  0  0  0  0  0  0  0  0  0  0  0
  -44.1242  -28.7457    0.9938 C   0  0  0  0  0  0  0  0  0  0  0  0
  -44.5900  -31.3631    1.1577 C   0  0  0  0  0  0  0  0  0  0  0  0
  -42.6816  -29.0613    1.4295 C   0  0  0  0  0  0  0  0  0  0  0  0
  -43.1173  -31.5092    1.5807 C   0  0  0  0  0  0  0  0  0  0  0  0
  -45.1459  -29.9089    1.1782 C   0  0  0  0  0  0  0  0  0  0  0  0
  -42.2352  -30.4384    0.9217 C   0  0  0  0  0  0  0  0  0  0  0  0
  -45.3751  -29.3440    6.3640 N   0  0  0  0  0  0  0  0  0  0  0  0
  -44.5820  -29.7370    4.1537 N   0  0  0  0  0  0  0  0  0  0  0  0
  -47.7902  -28.7694    6.5269 N   0  0  0  0  0  0  0  0  0  0  0  0
  -50.5355  -28.5579    3.2573 N   0  0  0  0  0  0  0  0  0  0  0  0
  -46.0878  -29.6806    2.2951 N   0  0  0  0  0  0  0  0  0  0  0  0
  -48.7262  -28.8647    1.9888 O   0  0  0  0  0  0  0  0  0  0  0  0
  -42.3469  -30.4974   -0.4374 F   0  0  0  0  0  0  0  0  0  0  0  0
  -49.8417  -28.3818    5.8385 H   0  0  0  0  0  0  0  0  0  0  0  0
  -43.3917  -29.8393    5.8829 H   0  0  0  0  0  0  0  0  0  0  0  0
  -44.4770  -27.8869    1.5836 H   0  0  0  0  0  0  0  0  0  0  0  0
  -44.1057  -28.4756   -0.0723 H   0  0  0  0  0  0  0  0  0  0  0  0
  -44.6896  -31.7509    0.1332 H   0  0  0  0  0  0  0  0  0  0  0  0
  -45.2018  -31.9707    1.8408 H   0  0  0  0  0  0  0  0  0  0  0  0
  -42.0079  -28.2932    1.0218 H   0  0  0  0  0  0  0  0  0  0  0  0
  -42.6284  -29.0498    2.5282 H   0  0  0  0  0  0  0  0  0  0  0  0
  -43.0472  -31.4074    2.6737 H   0  0  0  0  0  0  0  0  0  0  0  0
  -42.7561  -32.5042    1.2812 H   0  0  0  0  0  0  0  0  0  0  0  0
  -45.7708  -29.8543    0.2745 H   0  0  0  0  0  0  0  0  0  0  0  0
  -41.1942  -30.6043    1.2359 H   0  0  0  0  0  0  0  0  0  0  0  0
  -47.8890  -28.6489    7.5147 H   0  0  0  0  0  0  0  0  0  0  0  0
  -51.1133  -28.4835    2.4445 H   0  0  0  0  0  0  0  0  0  0  0  0
  -50.9407  -28.4770    4.1680 H   0  0  0  0  0  0  0  0  0  0  0  0
  -46.7098  -30.4628    2.2597 H   0  0  0  0  0  0  0  0  0  0  0  0
  1  4  2  0  0  0  0
  1 16  1  0  0  0  0
  2 14  1  0  0  0  0
  2 15  2  0  0  0  0
  3  4  1  0  0  0  0
  3  5  1  0  0  0  0
  3  6  2  0  0  0  0
  4  7  1  0  0  0  0
  5 14  2  0  0  0  0
  5 16  1  0  0  0  0
  6 15  1  0  0  0  0
  6 18  1  0  0  0  0
  7 17  1  0  0  0  0
  7 19  2  0  0  0  0
  8 10  1  0  0  0  0
  8 12  1  0  0  0  0
  9 11  1  0  0  0  0
  9 12  1  0  0  0  0
 10 13  1  0  0  0  0
 11 13  1  0  0  0  0
 12 18  1  0  0  0  0
 13 20  1  0  0  0  0
  1 21  1  0  0  0  0
  2 22  1  0  0  0  0
  8 23  1  0  0  0  0
  8 24  1  0  0  0  0
  9 25  1  0  0  0  0
  9 26  1  0  0  0  0
 10 27  1  0  0  0  0
 10 28  1  0  0  0  0
 11 29  1  0  0  0  0
 11 30  1  0  0  0  0
 12 31  1  0  0  0  0
 13 32  1  0  0  0  0
 16 33  1  0  0  0  0
 17 34  1  0  0  0  0
 17 35  1  0  0  0  0
 18 36  1  0  0  0  0
M  END
> <POSIT::Probability>
0.95

> <POSIT::Method>
SHAPEFIT

> <ReceptorTitle>
UCSF-P4508-REFINED_LIGAND-BOUND-STATE_AALTB__DU__LA1_A-201(A)

> <OMEGA_C>
0kRDwsoJ5cEUTbNAB4cxwgA57cFcz69AE4M7wnhg6cHEZZBAeUhBwnjd5sGCzopAtnE6wrjK6MH+
TLxAQUQ3wmgh7MEFT2lAArVEwgAu5sF4z0dAJn8wwkj35cEnan4/JVwywrDn+sGtMJQ/9bkqwnN9
6MEP+rY/Engswu0S/MHwU8o/cZU0wnZF78GezpY/1vAowtSB88Fb8Ws/FIA1wpvA6sG4pctA9lMy
wl3l7cHw6oRAJyk/wq0n5sHA3NBAYyRKwpJ25MHjd1BA8Vk4wslx7cEl4hJAo+dCwuXq5sG8kf4/
MGMpwrH688FY+d++3l1HwvcN48FC1bpAH5Etwv227sEWQbxAfugxwloY38FWs8o/MmwwwgzO48Ga
KpS9IcIywsEB/sHbWwg+pM40wvjD/8HTnus/GwgownlY4sGUyYI/dYMqwhRm6MFazSFATTAswlpC
+8EuHitAOAYrwkMEAsIh/6M/QhU3wqPV7sHBjIw+0sYkwoPV9MGxMZ4/WY4/wu0w5cGuePBAEXRM
wjze48FncxxAUsNLwv/Q48HvX4VA1NY6wtaz88G6nhBA

> <OMEGA_E>
AE8lPg==

> <OMEGA_NBR>
      2630

$$$$
CACHE3-HO_1706_10
  -OEChem-03092622503D

 31 33  0     1  0  0  0  0  0999 V2000
  -48.8045  -28.5867    5.5880 C   0  0  0  0  0  0  0  0  0  0  0  0
  -44.3867  -29.6622    5.5125 C   0  0  0  0  0  0  0  0  0  0  0  0
  -46.8793  -29.2045    4.5051 C   0  0  0  0  0  0  0  0  0  0  0  0
  -48.3124  -28.8579    4.3293 C   0  0  0  0  0  0  0  0  0  0  0  0
  -46.6105  -29.0893    5.8767 C   0  0  0  0  0  0  0  0  0  0  0  0
  -45.8209  -29.6018    3.6502 C   0  0  0  0  0  0  0  0  0  0  0  0
  -42.7673  -29.2465    1.1241 C   0  0  0  0  0  0  0  0  0  0  0  0
  -44.0706  -28.8054    1.2427 C   0  0  0  0  0  0  0  0  0  0  0  0
  -49.1572  -28.7678    3.1146 C   0  0  0  0  0  0  0  0  0  0  0  0
  -42.7478  -30.7571    0.9986 C   0  0  0  0  0  0  0  0  0  0  0  0
  -44.1362  -31.2393    1.3904 C   0  0  0  0  0  0  0  0  0  0  0  0
  -45.0091  -29.9944    1.2401 C   0  0  1  0  0  0  0  0  0  0  0  0
  -45.3805  -29.3308    6.3682 N   0  0  0  0  0  0  0  0  0  0  0  0
  -44.5845  -29.7901    4.1774 N   0  0  0  0  0  0  0  0  0  0  0  0
  -47.7809  -28.7220    6.5127 N   0  0  0  0  0  0  0  0  0  0  0  0
  -50.5141  -28.5298    3.2439 N   0  0  0  0  0  0  0  0  0  0  0  0
  -46.0559  -29.8596    2.2941 N   0  0  0  0  0  0  0  0  0  0  0  0
  -48.6901  -28.8708    1.9890 O   0  0  0  0  0  0  0  0  0  0  0  0
  -49.8238  -28.3129    5.8169 H   0  0  0  0  0  0  0  0  0  0  0  0
  -43.3963  -29.8317    5.9085 H   0  0  0  0  0  0  0  0  0  0  0  0
  -41.8939  -28.6113    1.1213 H   0  0  0  0  0  0  0  0  0  0  0  0
  -44.3739  -27.7721    1.3248 H   0  0  0  0  0  0  0  0  0  0  0  0
  -42.5219  -31.0497   -0.0374 H   0  0  0  0  0  0  0  0  0  0  0  0
  -41.9920  -31.1851    1.6736 H   0  0  0  0  0  0  0  0  0  0  0  0
  -44.4771  -32.0406    0.7184 H   0  0  0  0  0  0  0  0  0  0  0  0
  -44.1466  -31.6023    2.4287 H   0  0  0  0  0  0  0  0  0  0  0  0
  -45.5042  -30.0406    0.2589 H   0  0  0  0  0  0  0  0  0  0  0  0
  -47.8757  -28.5751    7.4973 H   0  0  0  0  0  0  0  0  0  0  0  0
  -51.0870  -28.4462    2.4286 H   0  0  0  0  0  0  0  0  0  0  0  0
  -50.9218  -28.4414    4.1527 H   0  0  0  0  0  0  0  0  0  0  0  0
  -46.5631  -30.7212    2.2737 H   0  0  0  0  0  0  0  0  0  0  0  0
  1  4  2  0  0  0  0
  1 15  1  0  0  0  0
  2 13  1  0  0  0  0
  2 14  2  0  0  0  0
  3  4  1  0  0  0  0
  3  5  1  0  0  0  0
  3  6  2  0  0  0  0
  4  9  1  0  0  0  0
  5 13  2  0  0  0  0
  5 15  1  0  0  0  0
  6 14  1  0  0  0  0
  6 17  1  0  0  0  0
  7  8  2  0  0  0  0
  7 10  1  0  0  0  0
  8 12  1  0  0  0  0
  9 16  1  0  0  0  0
  9 18  2  0  0  0  0
 10 11  1  0  0  0  0
 11 12  1  0  0  0  0
 12 17  1  0  0  0  0
  1 19  1  0  0  0  0
  2 20  1  0  0  0  0
  7 21  1  0  0  0  0
  8 22  1  0  0  0  0
 10 23  1  0  0  0  0
 10 24  1  0  0  0  0
 11 25  1  0  0  0  0
 11 26  1  0  0  0  0
 12 27  1  0  0  0  0
 15 28  1  0  0  0  0
 16 29  1  0  0  0  0
 16 30  1  0  0  0  0
 17 31  1  0  0  0  0
M  END
> <POSIT::Probability>
0.94

> <POSIT::Method>
SHAPEFIT

> <ReceptorTitle>
UCSF-P4508-REFINED_LIGAND-BOUND-STATE_AALTB__DU__LA1_A-201(A)

> <OMEGA_C>
xTdDwqSx5MHi0LJA9YsxwkJM7cEoZrBAcIQ7wt6i6cHwKZBA5T9Bwurc5sFciYpAHnE6wva26MFB
DrxAmUg3wmbQ7MFCnWlAtBErwuv46cF/448/T0gwwm1x5sFVEp8//6BEwo0k5sHyVUdAxP0qwosO
9sFMo38/dIswwgTq+cGT+bE/Ugk0wnP078Geup4/ooU1woOl6sGSyMtAe1Yywi9S7sGhrYVAmx8/
wqzG5cEnaNBAcQ5Kwgo95MGZnE9ASjk4wmfg7sG00hJAs8JCwlP35sFgl/4/jktHwtaA4sEfJLpA
1JUtwken7sHMEr1AVpMnwunj5MElhY8/3X4xwj0t3sHAkak/eBYqwtll+MGRWhm91vcnwhh7+cFO
N9Y/hegxwpcpAMJY6Dc/F5YwwoHR/MGOcBtASAQ2whFT8MEdioQ+rYA/wsCZ5MHx6e9AF1lMwsSR
48HwbRtA+a9LwvqH48E644RAkUA6wgvF9cGZgxFA

> <OMEGA_E>
UN86Pg==

> <OMEGA_NBR>
      3782

$$$$
CACHE3-HO_1706_11
  -OEChem-03092622503D

 33 35  0     0  0  0  0  0  0999 V2000
  -48.8151  -28.6068    5.5861 C   0  0  0  0  0  0  0  0  0  0  0  0
  -44.4047  -29.7150    5.5279 C   0  0  0  0  0  0  0  0  0  0  0  0
  -46.8677  -29.1493    4.5037 C   0  0  0  0  0  0  0  0  0  0  0  0
  -48.3114  -28.8457    4.3255 C   0  0  0  0  0  0  0  0  0  0  0  0
  -46.6218  -29.1088    5.8834 C   0  0  0  0  0  0  0  0  0  0  0  0
  -45.7827  -29.4466    3.6429 C   0  0  0  0  0  0  0  0  0  0  0  0
  -49.1708  -28.8129    3.1159 C   0  0  0  0  0  0  0  0  0  0  0  0
  -42.5836  -30.0092    0.7711 C   0  0  0  0  0  0  0  0  0  0  0  0
  -43.0685  -31.3373    1.3561 C   0  0  0  0  0  0  0  0  0  0  0  0
  -43.6170  -28.9917    1.2541 C   0  0  0  0  0  0  0  0  0  0  0  0
  -44.6006  -31.2704    1.2799 C   0  0  0  0  0  0  0  0  0  0  0  0
  -44.9544  -29.7675    1.2173 C   0  0  0  0  0  0  0  0  0  0  0  0
  -45.4001  -29.3793    6.3811 N   0  0  0  0  0  0  0  0  0  0  0  0
  -44.5762  -29.7518    4.1832 N   0  0  0  0  0  0  0  0  0  0  0  0
  -47.7988  -28.7578    6.5165 N   0  0  0  0  0  0  0  0  0  0  0  0
  -50.5292  -28.5889    3.2512 N   0  0  0  0  0  0  0  0  0  0  0  0
  -45.9434  -29.3658    2.2566 N   0  0  0  0  0  0  0  0  0  0  0  0
  -48.7276  -29.0058    1.9928 O   0  0  0  0  0  0  0  0  0  0  0  0
  -49.8378  -28.3439    5.8126 H   0  0  0  0  0  0  0  0  0  0  0  0
  -43.4353  -29.9634    5.9341 H   0  0  0  0  0  0  0  0  0  0  0  0
  -41.5816  -29.7582    1.1494 H   0  0  0  0  0  0  0  0  0  0  0  0
  -42.5606  -30.0513   -0.3278 H   0  0  0  0  0  0  0  0  0  0  0  0
  -42.6887  -32.1823    0.7631 H   0  0  0  0  0  0  0  0  0  0  0  0
  -42.7377  -31.4436    2.3997 H   0  0  0  0  0  0  0  0  0  0  0  0
  -43.3875  -28.6571    2.2765 H   0  0  0  0  0  0  0  0  0  0  0  0
  -43.6516  -28.1212    0.5825 H   0  0  0  0  0  0  0  0  0  0  0  0
  -44.9621  -31.7868    0.3785 H   0  0  0  0  0  0  0  0  0  0  0  0
  -45.0489  -31.7325    2.1719 H   0  0  0  0  0  0  0  0  0  0  0  0
  -45.4084  -29.5827    0.2326 H   0  0  0  0  0  0  0  0  0  0  0  0
  -47.9024  -28.6310    7.5030 H   0  0  0  0  0  0  0  0  0  0  0  0
  -51.1187  -28.5879    2.4435 H   0  0  0  0  0  0  0  0  0  0  0  0
  -50.9216  -28.4280    4.1568 H   0  0  0  0  0  0  0  0  0  0  0  0
  -46.7601  -29.9081    2.0592 H   0  0  0  0  0  0  0  0  0  0  0  0
  1  4  2  0  0  0  0
  1 15  1  0  0  0  0
  2 13  1  0  0  0  0
  2 14  2  0  0  0  0
  3  4  1  0  0  0  0
  3  5  1  0  0  0  0
  3  6  2  0  0  0  0
  4  7  1  0  0  0  0
  5 13  2  0  0  0  0
  5 15  1  0  0  0  0
  6 14  1  0  0  0  0
  6 17  1  0  0  0  0
  7 16  1  0  0  0  0
  7 18  2  0  0  0  0
  8  9  1  0  0  0  0
  8 10  1  0  0  0  0
  9 11  1  0  0  0  0
 10 12  1  0  0  0  0
 11 12  1  0  0  0  0
 12 17  1  0  0  0  0
  1 19  1  0  0  0  0
  2 20  1  0  0  0  0
  8 21  1  0  0  0  0
  8 22  1  0  0  0  0
  9 23  1  0  0  0  0
  9 24  1  0  0  0  0
 10 25  1  0  0  0  0
 10 26  1  0  0  0  0
 11 27  1  0  0  0  0
 11 28  1  0  0  0  0
 12 29  1  0  0  0  0
 15 30  1  0  0  0  0
 16 31  1  0  0  0  0
 16 32  1  0  0  0  0
 17 33  1  0  0  0  0
M  END
> <POSIT::Probability>
0.94

> <POSIT::Method>
SHAPEFIT

> <ReceptorTitle>
UCSF-P4508-REFINED_LIGAND-BOUND-STATE_AALTB__DU__LA1_A-201(A)

> <OMEGA_C>
oEJDwqXa5MEowbJAcZ4xwka47cHZ5LBAkng7wrsx6cGjHpBA1j5BwhbE5sFoaopAvHw6wtHe6MH1
RLxAcSE3wqSS68EYJWlA7K5EwtyA5sEGa0dAk1UqwsoS8MH6Z0U/KUYswrKy+sFHk60/xXcuwgvv
58EvhqA/AGcywr8p+sGv1KM/R9EzwtMj7sET0Js/rJk1wsAI68EMMsxACE4ywq0D7sG23IVA8zE/
wuoP5sEnh9BA5R1KwhO25MFUFFBAEMY3whDt6sGEaxBAB+lCwuYL6MEnE/8/7FlHwl/A4sGuALpA
yr0twh2178EO5L1Ak1MmwsYQ7sGTH5M/Gz4qwiBp8MEE2qe+L8EqwrO6AMJxXEM/cfMqwm+M+8Fj
lRlAw4wtwq5B5cFmshFASpsuwlD44MESHRU/Ndkzwl1L/sHkx8E+CDI0whnc/cGh/wpANaI1wkyp
7MGuI24+B5w/wloM5cGoGPBAjHlMwv2z5MHtYRxAv69LwoNs48HKBIVAVgo7wrZD78E2ygNA

> <OMEGA_E>
EHVBPg==

> <OMEGA_NBR>
      4971

$$$$
CACHE3-HO_1706_12
  -OEChem-03092622503D

 37 40  0     0  0  0  0  0  0999 V2000
  -48.9182  -28.5414    5.6012 C   0  0  0  0  0  0  0  0  0  0  0  0
  -44.5247  -29.6611    5.9653 C   0  0  0  0  0  0  0  0  0  0  0  0
  -46.9059  -29.2008    4.7182 C   0  0  0  0  0  0  0  0  0  0  0  0
  -48.3212  -28.8823    4.4054 C   0  0  0  0  0  0  0  0  0  0  0  0
  -46.7608  -29.0393    6.1053 C   0  0  0  0  0  0  0  0  0  0  0  0
  -45.7703  -29.6074    3.9711 C   0  0  0  0  0  0  0  0  0  0  0  0
  -49.0562  -28.8988    3.1177 C   0  0  0  0  0  0  0  0  0  0  0  0
  -46.3467  -27.9239   -1.7148 C   0  0  0  0  0  0  0  0  0  0  0  0
  -47.2478  -28.6068   -0.6950 C   0  0  0  0  0  0  0  0  0  0  0  0
  -45.0421  -30.6523    0.3207 C   0  0  0  0  0  0  0  0  0  0  0  0
  -43.8246  -29.1215    1.1364 C   0  0  0  0  0  0  0  0  0  0  0  0
  -45.8185  -28.1867   -0.2894 C   0  0  0  0  0  0  0  0  0  0  0  0
  -44.6673  -29.2261   -0.1588 C   0  0  0  0  0  0  0  0  0  0  0  0
  -44.6871  -30.2367    1.7595 C   0  0  0  0  0  0  0  0  0  0  0  0
  -45.5813  -29.2670    6.7144 N   0  0  0  0  0  0  0  0  0  0  0  0
  -44.6002  -29.8334    4.6206 N   0  0  0  0  0  0  0  0  0  0  0  0
  -47.9801  -28.6384    6.6191 N   0  0  0  0  0  0  0  0  0  0  0  0
  -50.3888  -28.5288    3.0787 N   0  0  0  0  0  0  0  0  0  0  0  0
  -45.8351  -29.7838    2.5861 N   0  0  0  0  0  0  0  0  0  0  0  0
  -48.5257  -29.2495    2.0746 O   0  0  0  0  0  0  0  0  0  0  0  0
  -49.9497  -28.2465    5.7253 H   0  0  0  0  0  0  0  0  0  0  0  0
  -43.5817  -29.8462    6.4582 H   0  0  0  0  0  0  0  0  0  0  0  0
  -45.9451  -28.4974   -2.5632 H   0  0  0  0  0  0  0  0  0  0  0  0
  -46.5649  -26.8953   -2.0380 H   0  0  0  0  0  0  0  0  0  0  0  0
  -48.1153  -28.0704   -0.2829 H   0  0  0  0  0  0  0  0  0  0  0  0
  -47.4955  -29.6725   -0.8081 H   0  0  0  0  0  0  0  0  0  0  0  0
  -46.1000  -30.9155    0.1738 H   0  0  0  0  0  0  0  0  0  0  0  0
  -44.4054  -31.4497   -0.0901 H   0  0  0  0  0  0  0  0  0  0  0  0
  -42.7647  -29.3869    1.0093 H   0  0  0  0  0  0  0  0  0  0  0  0
  -43.9008  -28.1510    1.6486 H   0  0  0  0  0  0  0  0  0  0  0  0
  -45.7435  -27.3067    0.3662 H   0  0  0  0  0  0  0  0  0  0  0  0
  -44.0349  -29.2496   -1.0586 H   0  0  0  0  0  0  0  0  0  0  0  0
  -44.0722  -30.9955    2.2656 H   0  0  0  0  0  0  0  0  0  0  0  0
  -48.1599  -28.4462    7.5839 H   0  0  0  0  0  0  0  0  0  0  0  0
  -50.8894  -28.5533    2.2133 H   0  0  0  0  0  0  0  0  0  0  0  0
  -50.8514  -28.2369    3.9158 H   0  0  0  0  0  0  0  0  0  0  0  0
  -46.5634  -30.4511    2.4301 H   0  0  0  0  0  0  0  0  0  0  0  0
  1  4  2  0  0  0  0
  1 17  1  0  0  0  0
  2 15  1  0  0  0  0
  2 16  2  0  0  0  0
  3  4  1  0  0  0  0
  3  5  1  0  0  0  0
  3  6  2  0  0  0  0
  4  7  1  0  0  0  0
  5 15  2  0  0  0  0
  5 17  1  0  0  0  0
  6 16  1  0  0  0  0
  6 19  1  0  0  0  0
  7 18  1  0  0  0  0
  7 20  2  0  0  0  0
  8  9  1  0  0  0  0
  8 12  1  0  0  0  0
  9 12  1  0  0  0  0
 10 13  1  0  0  0  0
 10 14  1  0  0  0  0
 11 13  1  0  0  0  0
 11 14  1  0  0  0  0
 12 13  1  0  0  0  0
 14 19  1  0  0  0  0
  1 21  1  0  0  0  0
  2 22  1  0  0  0  0
  8 23  1  0  0  0  0
  8 24  1  0  0  0  0
  9 25  1  0  0  0  0
  9 26  1  0  0  0  0
 10 27  1  0  0  0  0
 10 28  1  0  0  0  0
 11 29  1  0  0  0  0
 11 30  1  0  0  0  0
 12 31  1  0  0  0  0
 13 32  1  0  0  0  0
 14 33  1  0  0  0  0
 17 34  1  0  0  0  0
 18 35  1  0  0  0  0
 18 36  1  0  0  0  0
 19 37  1  0  0  0  0
M  END
> <POSIT::Probability>
0.9

> <POSIT::Method>
SHAPEFIT

> <ReceptorTitle>
UCSF-P4508_LA2_MERGED(A)

> <OMEGA_C>
NaxDwstU5MEWPbNAQBkywuVJ7cEY5L5AoJ87wkSb6cF9+5ZA4khBwvkO58FC+YxAEws7wpZQ6MGC
XsNAyxQ3wv3b7ME2J35AizlEwsgw58F+iEdABWM5whdk38Ehftu/xv08wqDa5MGy7jG/Jis0wtw3
9cHmMKQ+a0wvwt746MGKdZE/IkY3wm9+4cGfKpS+R6sywgTP6cFGpCK+l78ywsrk8cEuOOE/NVM2
wuYi6sGZ3NZAo2YywuKq7sGj25NArOs/wlgb5cHkz9NAHY5Jwgg75MHzCEVAJFc3wlNF7sEugyVA
TBpCwhP/6cGixQRAe8xHwsr44cFgNbdApVMuwv7E7sHOqc5AyMc3wr3648HnCiTAekI6wqQp18ET
bwLAFHZAwj+Q4MFF3ZC+Yfs9wlhh7cHz3U6/bGY4wvlS98Eo8jE+I58xwumY+8ExiLi9Dw8rwlIY
68HOMIE/ZJovwlM14cEABtM/Wfk2wgh02sGpgrs+uSMwwir/6cF7f4e/6kkwwsP298EMABFAuaNA
wsKR48Ezr/JAso5Lwipt5MEPpw1A0GdLwjbl4cGYnHpA6UA6wuOb88G0hhtA

> <OMEGA_E>
APSsPg==

> <OMEGA_NBR>
      6168

$$$$
CACHE3-HO_1706_14
  -OEChem-03092622503D

 40 43  0     0  0  0  0  0  0999 V2000
  -48.8587  -28.6377    5.6467 C   0  0  0  0  0  0  0  0  0  0  0  0
  -44.4324  -29.6642    5.5029 C   0  0  0  0  0  0  0  0  0  0  0  0
  -46.9251  -29.1301    4.5242 C   0  0  0  0  0  0  0  0  0  0  0  0
  -48.3689  -28.8343    4.3736 C   0  0  0  0  0  0  0  0  0  0  0  0
  -46.6498  -29.0860    5.8982 C   0  0  0  0  0  0  0  0  0  0  0  0
  -45.8596  -29.4545    3.6541 C   0  0  0  0  0  0  0  0  0  0  0  0
  -49.2304  -28.7777    3.1712 C   0  0  0  0  0  0  0  0  0  0  0  0
  -42.5425  -31.8314    0.7349 C   0  0  0  0  0  0  0  0  0  0  0  0
  -42.2888  -30.5622   -0.0918 C   0  0  0  0  0  0  0  0  0  0  0  0
  -43.7821  -31.0995    1.2488 C   0  0  0  0  0  0  0  0  0  0  0  0
  -44.2038  -27.6214    1.8020 C   0  0  0  0  0  0  0  0  0  0  0  0
  -45.0574  -28.4980    0.0867 C   0  0  0  0  0  0  0  0  0  0  0  0
  -42.9351  -29.8019    1.0763 C   0  0  0  0  0  0  0  0  0  0  0  0
  -43.6176  -28.4633    0.6617 C   0  0  0  0  0  0  0  0  0  0  0  0
  -45.5996  -28.2296    1.5091 C   0  0  0  0  0  0  0  0  0  0  0  0
  -45.4132  -29.3336    6.3720 N   0  0  0  0  0  0  0  0  0  0  0  0
  -44.6445  -29.7515    4.1706 N   0  0  0  0  0  0  0  0  0  0  0  0
  -47.8233  -28.7803    6.5575 N   0  0  0  0  0  0  0  0  0  0  0  0
  -50.5906  -28.5668    3.3159 N   0  0  0  0  0  0  0  0  0  0  0  0
  -45.9849  -29.4453    2.2735 N   0  0  0  0  0  0  0  0  0  0  0  0
  -48.7783  -28.9285    2.0447 O   0  0  0  0  0  0  0  0  0  0  0  0
  -49.8846  -28.4091    5.8951 H   0  0  0  0  0  0  0  0  0  0  0  0
  -43.4433  -29.8661    5.8867 H   0  0  0  0  0  0  0  0  0  0  0  0
  -42.7461  -32.7386    0.1471 H   0  0  0  0  0  0  0  0  0  0  0  0
  -41.7809  -32.0519    1.4974 H   0  0  0  0  0  0  0  0  0  0  0  0
  -41.2288  -30.3275   -0.2691 H   0  0  0  0  0  0  0  0  0  0  0  0
  -42.8400  -30.5092   -1.0423 H   0  0  0  0  0  0  0  0  0  0  0  0
  -44.6673  -31.1686    0.5995 H   0  0  0  0  0  0  0  0  0  0  0  0
  -44.0676  -31.3359    2.2845 H   0  0  0  0  0  0  0  0  0  0  0  0
  -43.8037  -27.8671    2.7968 H   0  0  0  0  0  0  0  0  0  0  0  0
  -44.1412  -26.5352    1.6398 H   0  0  0  0  0  0  0  0  0  0  0  0
  -45.2750  -27.7009   -0.6394 H   0  0  0  0  0  0  0  0  0  0  0  0
  -45.3537  -29.4695   -0.3357 H   0  0  0  0  0  0  0  0  0  0  0  0
  -42.2353  -29.6592    1.9129 H   0  0  0  0  0  0  0  0  0  0  0  0
  -42.9517  -27.8636    0.0238 H   0  0  0  0  0  0  0  0  0  0  0  0
  -46.3867  -27.4612    1.5081 H   0  0  0  0  0  0  0  0  0  0  0  0
  -47.9134  -28.6767    7.5480 H   0  0  0  0  0  0  0  0  0  0  0  0
  -51.1810  -28.5403    2.5093 H   0  0  0  0  0  0  0  0  0  0  0  0
  -50.9828  -28.4410    4.2271 H   0  0  0  0  0  0  0  0  0  0  0  0
  -45.4239  -30.1967    1.9260 H   0  0  0  0  0  0  0  0  0  0  0  0
  1  4  2  0  0  0  0
  1 18  1  0  0  0  0
  2 16  1  0  0  0  0
  2 17  2  0  0  0  0
  3  4  1  0  0  0  0
  3  5  1  0  0  0  0
  3  6  2  0  0  0  0
  4  7  1  0  0  0  0
  5 16  2  0  0  0  0
  5 18  1  0  0  0  0
  6 17  1  0  0  0  0
  6 20  1  0  0  0  0
  7 19  1  0  0  0  0
  7 21  2  0  0  0  0
  8  9  1  0  0  0  0
  8 10  1  0  0  0  0
  9 13  1  0  0  0  0
 10 13  1  0  0  0  0
 11 14  1  0  0  0  0
 11 15  1  0  0  0  0
 12 14  1  0  0  0  0
 12 15  1  0  0  0  0
 13 14  1  0  0  0  0
 15 20  1  0  0  0  0
  1 22  1  0  0  0  0
  2 23  1  0  0  0  0
  8 24  1  0  0  0  0
  8 25  1  0  0  0  0
  9 26  1  0  0  0  0
  9 27  1  0  0  0  0
 10 28  1  0  0  0  0
 10 29  1  0  0  0  0
 11 30  1  0  0  0  0
 11 31  1  0  0  0  0
 12 32  1  0  0  0  0
 12 33  1  0  0  0  0
 13 34  1  0  0  0  0
 14 35  1  0  0  0  0
 15 36  1  0  0  0  0
 18 37  1  0  0  0  0
 19 38  1  0  0  0  0
 19 39  1  0  0  0  0
 20 40  1  0  0  0  0
M  END
> <POSIT::Probability>
0.9

> <POSIT::Method>
SHAPEFIT

> <ReceptorTitle>
UCSF-P4508-REFINED_LIGAND-BOUND-STATE_AALTB__DU__LA1_A-201(A)

> <OMEGA_C>
VW9DwuoZ5cEssrRAy7oxwlZQ7cHgF7BARbM7wn8K6cHYxZBAwXlBwqas5sEi9ItAa5k6wiuw6MHG
vbxARnA3wuqi68E53GlA6+tEwtE45sHV9EpAeisqwsGm/sHAIzw/uScpwnl/9MFgGLy92yAvwr/L
+MEu2Z8/ptAwwpL43MHUqOY/0zo0wvb748GAfbE9kL0rwjFq7sG1wok/cnguwuu048FMZik/AmY2
wjzW4cESKsE/Eac1wiir6sGu58tA7JMywiMD7sGIdYVAB0s/wvs95sHy1tFAu1xKwueI5MFMOFRA
fvA3wuqP68FtgRFABB1Dwntt58F93AJA3olHwuFF48GXpLxA78UtwrHt7sHzX7xABvwqwlH0AsIc
mRY+mx8nwiE1AMLCqr8/V+okwrWe8sGqxIm+KFwrwsQS9MHdaYW/VasywkRZ+cHXeRk/QEUwwgCw
+sGQNBJA8TYvwuzv3sFB/jJAoJAwwhhI1MFV5NE/oRk1wmSb3cFIsSO/OWo1wqLB68E/3Ku++/Ao
wgJG7cFV2fQ/lc4rwqXo3sEoJcM8BYw5wo2w28E/CsE/Vqc/wthp5cFZifFAY7lMwoZS5MHBmCBA
b+5LwjWH48GoRIdAHLI1wsuS8cEMiPY/

> <OMEGA_E>
qIvxPg==

> <OMEGA_NBR>
      7499

$$$$
CACHE3-HO_1706_15
  -OEChem-03092622503D

 40 43  0     0  0  0  0  0  0999 V2000
  -48.7901  -28.6161    5.5805 C   0  0  0  0  0  0  0  0  0  0  0  0
  -44.3681  -29.6841    5.4917 C   0  0  0  0  0  0  0  0  0  0  0  0
  -46.8543  -29.1702    4.5049 C   0  0  0  0  0  0  0  0  0  0  0  0
  -48.2953  -28.8592    4.3177 C   0  0  0  0  0  0  0  0  0  0  0  0
  -46.5938  -29.1198    5.8779 C   0  0  0  0  0  0  0  0  0  0  0  0
  -45.7914  -29.4808    3.6395 C   0  0  0  0  0  0  0  0  0  0  0  0
  -49.1624  -28.7965    3.1010 C   0  0  0  0  0  0  0  0  0  0  0  0
  -44.1037  -28.7492    0.9225 C   0  0  0  0  0  0  0  0  0  0  0  0
  -44.7775  -31.3199    1.1056 C   0  0  0  0  0  0  0  0  0  0  0  0
  -42.7523  -29.0797    1.5687 C   0  0  0  0  0  0  0  0  0  0  0  0
  -43.4228  -31.5993    1.7656 C   0  0  0  0  0  0  0  0  0  0  0  0
  -40.9686  -30.9434    1.1629 C   0  0  0  0  0  0  0  0  0  0  0  0
  -41.8552  -30.8032   -0.1085 C   0  0  0  0  0  0  0  0  0  0  0  0
  -45.2093  -29.8266    1.1380 C   0  0  0  0  0  0  0  0  0  0  0  0
  -42.4288  -30.5445    1.2791 C   0  0  0  0  0  0  0  0  0  0  0  0
  -45.3622  -29.3815    6.3615 N   0  0  0  0  0  0  0  0  0  0  0  0
  -44.5636  -29.7264    4.1496 N   0  0  0  0  0  0  0  0  0  0  0  0
  -47.7691  -28.7662    6.5110 N   0  0  0  0  0  0  0  0  0  0  0  0
  -50.5161  -28.5687    3.2429 N   0  0  0  0  0  0  0  0  0  0  0  0
  -46.0747  -29.5395    2.2862 N   0  0  0  0  0  0  0  0  0  0  0  0
  -48.7385  -28.9324    1.9619 O   0  0  0  0  0  0  0  0  0  0  0  0
  -49.8113  -28.3507    5.8109 H   0  0  0  0  0  0  0  0  0  0  0  0
  -43.3841  -29.8995    5.8810 H   0  0  0  0  0  0  0  0  0  0  0  0
  -44.4631  -27.7999    1.3464 H   0  0  0  0  0  0  0  0  0  0  0  0
  -43.9464  -28.6313   -0.1598 H   0  0  0  0  0  0  0  0  0  0  0  0
  -44.7210  -31.6395    0.0546 H   0  0  0  0  0  0  0  0  0  0  0  0
  -45.5437  -31.9115    1.6281 H   0  0  0  0  0  0  0  0  0  0  0  0
  -41.9690  -28.4346    1.1439 H   0  0  0  0  0  0  0  0  0  0  0  0
  -42.8102  -28.9192    2.6554 H   0  0  0  0  0  0  0  0  0  0  0  0
  -43.5222  -31.5409    2.8595 H   0  0  0  0  0  0  0  0  0  0  0  0
  -43.0702  -32.6021    1.4825 H   0  0  0  0  0  0  0  0  0  0  0  0
  -40.6399  -31.9378    1.4993 H   0  0  0  0  0  0  0  0  0  0  0  0
  -40.1776  -30.2070    1.3678 H   0  0  0  0  0  0  0  0  0  0  0  0
  -41.6946  -29.9668   -0.8047 H   0  0  0  0  0  0  0  0  0  0  0  0
  -42.1569  -31.6976   -0.6733 H   0  0  0  0  0  0  0  0  0  0  0  0
  -45.8611  -29.7184    0.2586 H   0  0  0  0  0  0  0  0  0  0  0  0
  -47.8708  -28.6367    7.4973 H   0  0  0  0  0  0  0  0  0  0  0  0
  -51.1026  -28.5212    2.4343 H   0  0  0  0  0  0  0  0  0  0  0  0
  -50.9105  -28.4510    4.1542 H   0  0  0  0  0  0  0  0  0  0  0  0
  -46.7966  -30.2284    2.2213 H   0  0  0  0  0  0  0  0  0  0  0  0
  1  4  2  0  0  0  0
  1 18  1  0  0  0  0
  2 16  1  0  0  0  0
  2 17  2  0  0  0  0
  3  4  1  0  0  0  0
  3  5  1  0  0  0  0
  3  6  2  0  0  0  0
  4  7  1  0  0  0  0
  5 16  2  0  0  0  0
  5 18  1  0  0  0  0
  6 17  1  0  0  0  0
  6 20  1  0  0  0  0
  7 19  1  0  0  0  0
  7 21  2  0  0  0  0
  8 10  1  0  0  0  0
  8 14  1  0  0  0  0
  9 11  1  0  0  0  0
  9 14  1  0  0  0  0
 10 15  1  0  0  0  0
 11 15  1  0  0  0  0
 12 13  1  0  0  0  0
 12 15  1  0  0  0  0
 13 15  1  0  0  0  0
 14 20  1  0  0  0  0
  1 22  1  0  0  0  0
  2 23  1  0  0  0  0
  8 24  1  0  0  0  0
  8 25  1  0  0  0  0
  9 26  1  0  0  0  0
  9 27  1  0  0  0  0
 10 28  1  0  0  0  0
 10 29  1  0  0  0  0
 11 30  1  0  0  0  0
 11 31  1  0  0  0  0
 12 32  1  0  0  0  0
 12 33  1  0  0  0  0
 13 34  1  0  0  0  0
 13 35  1  0  0  0  0
 14 36  1  0  0  0  0
 18 37  1  0  0  0  0
 19 38  1  0  0  0  0
 19 39  1  0  0  0  0
 20 40  1  0  0  0  0
M  END
> <POSIT::Probability>
0.94

> <POSIT::Method>
SHAPEFIT

> <ReceptorTitle>
UCSF-P4508-REFINED_LIGAND-BOUND-STATE_AALTB__DU__LA1_A-201(A)

> <OMEGA_C>
GClDwt3t5MFTk7JA+ngxwvh47cErvK9A2Go7wqRc6cH+J5BAWC5Bwpff5sEzKopAGGA6wkb16MFp
F7xAaCo3wr3Y68ET7WhARqZEwk1f5sF0dkZANGowwkj+5cHoKmw/IhwzwiuP+sEHhY0/VAIrwkKj
6MEnysg/5rAtwlfL/MFm/+E/3t8jwhKM98FF2ZQ/vmsnwtps9sGEN969UNY0wuuc7sH6qZE/Frcp
wjZb9MEXuaM/2HI1wlEN68ErkctAKEEywqDP7cE1yYRAlhM/whwh5sHRWdBAfBBKwqaM5MH3ik9A
dEw4wtFQ7MEbURJARPRCwoN158EjH/s/zj5HwkDO4sHc8rlARYktwiIy78FwMbxAQNoxwhlm3sGQ
Vaw/HMkvwtUM5cFPmCO+V+Iywpwd/cGBiV89vyw2wq9K/8HBZNA/RuAnwid648GkbJI/mj0rwoBa
58FL8SlAvxYuwsFT/MHDAjdA4EcswoFoAsIvwr0/R48iwpGA/8ES6L8/3bUgwuen8cHpE68/Pccm
wgm878HiAk6/pqAowrOU/cGRWiy/znE3wk+/7cEzZIQ+rHs/wvMX5cET6u9ADWlMwnkr5MFsyxtA
XaRLwrGb48Fs74RAtC87wrzT8cGJKg5A

> <OMEGA_E>
WAJRPg==

> <OMEGA_NBR>
      8831

$$$$
CACHE3-HO_1706_19
  -OEChem-03092622503D

 43 46  0     0  0  0  0  0  0999 V2000
  -48.9086  -28.5408    5.5392 C   0  0  0  0  0  0  0  0  0  0  0  0
  -44.5483  -29.7290    6.0765 C   0  0  0  0  0  0  0  0  0  0  0  0
  -46.8689  -29.1955    4.7375 C   0  0  0  0  0  0  0  0  0  0  0  0
  -48.2680  -28.8705    4.3647 C   0  0  0  0  0  0  0  0  0  0  0  0
  -46.7852  -29.0852    6.1298 C   0  0  0  0  0  0  0  0  0  0  0  0
  -45.6867  -29.5204    4.0418 C   0  0  0  0  0  0  0  0  0  0  0  0
  -48.9714  -28.9064    3.0582 C   0  0  0  0  0  0  0  0  0  0  0  0
  -45.4307  -30.2830   -2.7876 C   0  0  0  0  0  0  0  0  0  0  0  0
  -44.2971  -28.6513    0.7442 C   0  0  0  0  0  0  0  0  0  0  0  0
  -44.3678  -31.1103    1.4506 C   0  0  0  0  0  0  0  0  0  0  0  0
  -44.4008  -30.7066   -1.7209 C   0  0  0  0  0  0  0  0  0  0  0  0
  -46.5211  -30.6820   -1.7727 C   0  0  0  0  0  0  0  0  0  0  0  0
  -45.4569  -28.8766   -0.2362 C   0  0  0  0  0  0  0  0  0  0  0  0
  -45.5397  -31.3694    0.4924 C   0  0  0  0  0  0  0  0  0  0  0  0
  -44.3664  -29.6435    1.9153 C   0  0  0  0  0  0  0  0  0  0  0  0
  -45.4894  -30.3674   -0.6816 C   0  0  0  0  0  0  0  0  0  0  0  0
  -45.6331  -29.3391    6.7831 N   0  0  0  0  0  0  0  0  0  0  0  0
  -44.5596  -29.8186    4.7300 N   0  0  0  0  0  0  0  0  0  0  0  0
  -48.0148  -28.6630    6.5933 N   0  0  0  0  0  0  0  0  0  0  0  0
  -50.3205  -28.6013    3.0015 N   0  0  0  0  0  0  0  0  0  0  0  0
  -45.6139  -29.3908    2.6718 N   0  0  0  0  0  0  0  0  0  0  0  0
  -48.4094  -29.2471    2.0265 O   0  0  0  0  0  0  0  0  0  0  0  0
  -49.9411  -28.2360    5.6254 H   0  0  0  0  0  0  0  0  0  0  0  0
  -43.6415  -29.9773    6.6079 H   0  0  0  0  0  0  0  0  0  0  0  0
  -45.4119  -29.2144   -3.0479 H   0  0  0  0  0  0  0  0  0  0  0  0
  -45.4152  -30.8850   -3.7081 H   0  0  0  0  0  0  0  0  0  0  0  0
  -43.3443  -28.7888    0.2120 H   0  0  0  0  0  0  0  0  0  0  0  0
  -44.3527  -27.6257    1.1377 H   0  0  0  0  0  0  0  0  0  0  0  0
  -44.4648  -31.7677    2.3272 H   0  0  0  0  0  0  0  0  0  0  0  0
  -43.4219  -31.3269    0.9326 H   0  0  0  0  0  0  0  0  0  0  0  0
  -44.1067  -31.7660   -1.7554 H   0  0  0  0  0  0  0  0  0  0  0  0
  -43.4999  -30.0774   -1.6708 H   0  0  0  0  0  0  0  0  0  0  0  0
  -47.4097  -30.0336   -1.7697 H   0  0  0  0  0  0  0  0  0  0  0  0
  -46.8358  -31.7349   -1.8219 H   0  0  0  0  0  0  0  0  0  0  0  0
  -46.4066  -28.6221    0.2572 H   0  0  0  0  0  0  0  0  0  0  0  0
  -45.3187  -28.2348   -1.1188 H   0  0  0  0  0  0  0  0  0  0  0  0
  -45.4703  -32.3947    0.1001 H   0  0  0  0  0  0  0  0  0  0  0  0
  -46.4886  -31.2479    1.0353 H   0  0  0  0  0  0  0  0  0  0  0  0
  -43.4984  -29.4802    2.5710 H   0  0  0  0  0  0  0  0  0  0  0  0
  -48.2304  -28.4726    7.5511 H   0  0  0  0  0  0  0  0  0  0  0  0
  -50.8108  -28.6623    2.1321 H   0  0  0  0  0  0  0  0  0  0  0  0
  -50.8047  -28.3200    3.8300 H   0  0  0  0  0  0  0  0  0  0  0  0
  -46.2980  -30.0163    2.2966 H   0  0  0  0  0  0  0  0  0  0  0  0
  1  4  2  0  0  0  0
  1 19  1  0  0  0  0
  2 17  1  0  0  0  0
  2 18  2  0  0  0  0
  3  4  1  0  0  0  0
  3  5  1  0  0  0  0
  3  6  2  0  0  0  0
  4  7  1  0  0  0  0
  5 17  2  0  0  0  0
  5 19  1  0  0  0  0
  6 18  1  0  0  0  0
  6 21  1  0  0  0  0
  7 20  1  0  0  0  0
  7 22  2  0  0  0  0
  8 11  1  0  0  0  0
  8 12  1  0  0  0  0
  9 13  1  0  0  0  0
  9 15  1  0  0  0  0
 10 14  1  0  0  0  0
 10 15  1  0  0  0  0
 11 16  1  0  0  0  0
 12 16  1  0  0  0  0
 13 16  1  0  0  0  0
 14 16  1  0  0  0  0
 15 21  1  0  0  0  0
  1 23  1  0  0  0  0
  2 24  1  0  0  0  0
  8 25  1  0  0  0  0
  8 26  1  0  0  0  0
  9 27  1  0  0  0  0
  9 28  1  0  0  0  0
 10 29  1  0  0  0  0
 10 30  1  0  0  0  0
 11 31  1  0  0  0  0
 11 32  1  0  0  0  0
 12 33  1  0  0  0  0
 12 34  1  0  0  0  0
 13 35  1  0  0  0  0
 13 36  1  0  0  0  0
 14 37  1  0  0  0  0
 14 38  1  0  0  0  0
 15 39  1  0  0  0  0
 19 40  1  0  0  0  0
 20 41  1  0  0  0  0
 20 42  1  0  0  0  0
 21 43  1  0  0  0  0
M  END
> <POSIT::Probability>
0.91

> <POSIT::Method>
SHAPEFIT

> <ReceptorTitle>
UCSF-P4508_LA2_MERGED(A)

> <OMEGA_C>
bqJDwndT5MEAQbFAcTEywgrV7cFocsJAvXk7wleQ6cGYmZdAdBJBwrX25sGAq4tABCQ7woqu6MEM
J8RAN782wtYp7MGMVoFAw+JDwkRA58GwuUNABLk1wqdD8sFGaDLAQzAxwvQ15cGYgj4/rHgxwt7h
+MHgrLk/Ypoxwhun9cGIR9y/phU6wrx09cHA5uK/2NM1wkMD58EA03G+pSg2woX0+sGgGPw+NXcx
wvol7cEIKvU/LvU1wm7w8sEAfC6/WIg2woW26sF6D9lADD0ywpSM7sGAXJdAJg9AwslN5cGE/NJA
JkhJwonP5MHsGEBAoHQ2wmEg68FA/ipAOKNBwvv56cGQsgFAucNHwk/j4cGHA7RA25AuwnbR78EX
dNNAyaU1wjG36cGUEUPAIqk1woMU98E/Um3Ai2AtwmdP5sGJHVk+KGkxwlwB3cGfoZE/6dsxwlMk
/sEb8BRAC7Atwm2d+sHCvm4/Qm0wwsUg/sFUr+C/2f8twpae8MEe3NW/hqM9wrxE8MF+huK/0Fc7
whLh/cELM+m/UaA5win65MFDq4M+W0Y1wt/g4cHyM4+/n+E1wjOUAcLT/8w9WfQ5wsf7+cErhYQ/
XP4twlvX68HliiRA7utAwtPH48FKovFANj5LwlFM5cFLdAhACDhLwm+P4sGXHnVALDE5wl0h8MGv
+xJA

> <OMEGA_E>
zIHCPg==

> <OMEGA_NBR>
     10149

$$$$
CACHE3-HO_1706_2
  -OEChem-03092622503D

 42 44  0     0  0  0  0  0  0999 V2000
  -48.9474  -28.6006    5.6013 C   0  0  0  0  0  0  0  0  0  0  0  0
  -44.5325  -29.5922    6.0521 C   0  0  0  0  0  0  0  0  0  0  0  0
  -46.8920  -29.1500    4.7519 C   0  0  0  0  0  0  0  0  0  0  0  0
  -48.3034  -28.8523    4.4089 C   0  0  0  0  0  0  0  0  0  0  0  0
  -46.7882  -29.0347    6.1459 C   0  0  0  0  0  0  0  0  0  0  0  0
  -45.7407  -29.5550    4.0365 C   0  0  0  0  0  0  0  0  0  0  0  0
  -49.0054  -28.8193    3.1047 C   0  0  0  0  0  0  0  0  0  0  0  0
  -44.5942  -28.6970   -1.2403 C   0  0  0  0  0  0  0  0  0  0  0  0
  -44.6442  -30.2421   -1.3060 C   0  0  0  0  0  0  0  0  0  0  0  0
  -44.8978  -28.0441    0.1283 C   0  0  0  0  0  0  0  0  0  0  0  0
  -45.7686  -30.8852   -0.4576 C   0  0  0  0  0  0  0  0  0  0  0  0
  -43.8099  -28.2495    1.1971 C   0  0  0  0  0  0  0  0  0  0  0  0
  -45.2743  -31.5178    0.8665 C   0  0  0  0  0  0  0  0  0  0  0  0
  -43.4958  -29.7092    1.5985 C   0  0  0  0  0  0  0  0  0  0  0  0
  -44.7085  -30.6009    1.9885 C   0  0  0  0  0  0  0  0  0  0  0  0
  -45.6214  -29.2590    6.7808 N   0  0  0  0  0  0  0  0  0  0  0  0
  -44.5781  -29.7525    4.7089 N   0  0  0  0  0  0  0  0  0  0  0  0
  -48.0354  -28.7070    6.6402 N   0  0  0  0  0  0  0  0  0  0  0  0
  -50.3835  -28.6998    3.0763 N   0  0  0  0  0  0  0  0  0  0  0  0
  -45.7908  -29.8430    2.6733 N   0  0  0  0  0  0  0  0  0  0  0  0
  -48.4052  -28.8973    2.0417 O   0  0  0  0  0  0  0  0  0  0  0  0
  -49.9946  -28.3593    5.7091 H   0  0  0  0  0  0  0  0  0  0  0  0
  -43.5907  -29.7359    6.5610 H   0  0  0  0  0  0  0  0  0  0  0  0
  -43.5832  -28.3843   -1.5406 H   0  0  0  0  0  0  0  0  0  0  0  0
  -45.3275  -28.3098   -1.9631 H   0  0  0  0  0  0  0  0  0  0  0  0
  -44.7943  -30.5367   -2.3551 H   0  0  0  0  0  0  0  0  0  0  0  0
  -43.6794  -30.6325   -0.9500 H   0  0  0  0  0  0  0  0  0  0  0  0
  -45.0232  -26.9626   -0.0288 H   0  0  0  0  0  0  0  0  0  0  0  0
  -45.8372  -28.4706    0.5099 H   0  0  0  0  0  0  0  0  0  0  0  0
  -46.5070  -30.1069   -0.2148 H   0  0  0  0  0  0  0  0  0  0  0  0
  -46.2487  -31.6715   -1.0586 H   0  0  0  0  0  0  0  0  0  0  0  0
  -42.8803  -27.8014    0.8165 H   0  0  0  0  0  0  0  0  0  0  0  0
  -44.1295  -27.7160    2.1044 H   0  0  0  0  0  0  0  0  0  0  0  0
  -46.1264  -32.0632    1.2983 H   0  0  0  0  0  0  0  0  0  0  0  0
  -44.4784  -32.2300    0.6035 H   0  0  0  0  0  0  0  0  0  0  0  0
  -42.9899  -30.1878    0.7470 H   0  0  0  0  0  0  0  0  0  0  0  0
  -42.8132  -29.6786    2.4606 H   0  0  0  0  0  0  0  0  0  0  0  0
  -44.3138  -31.2952    2.7449 H   0  0  0  0  0  0  0  0  0  0  0  0
  -48.2495  -28.5667    7.6068 H   0  0  0  0  0  0  0  0  0  0  0  0
  -50.8656  -28.6788    2.2005 H   0  0  0  0  0  0  0  0  0  0  0  0
  -50.8974  -28.6343    3.9317 H   0  0  0  0  0  0  0  0  0  0  0  0
  -46.6324  -30.3631    2.5276 H   0  0  0  0  0  0  0  0  0  0  0  0
  1  4  2  0  0  0  0
  1 18  1  0  0  0  0
  2 16  1  0  0  0  0
  2 17  2  0  0  0  0
  3  4  1  0  0  0  0
  3  5  1  0  0  0  0
  3  6  2  0  0  0  0
  4  7  1  0  0  0  0
  5 16  2  0  0  0  0
  5 18  1  0  0  0  0
  6 17  1  0  0  0  0
  6 20  1  0  0  0  0
  7 19  1  0  0  0  0
  7 21  2  0  0  0  0
  8  9  1  0  0  0  0
  8 10  1  0  0  0  0
  9 11  1  0  0  0  0
 10 12  1  0  0  0  0
 11 13  1  0  0  0  0
 12 14  1  0  0  0  0
 13 15  1  0  0  0  0
 14 15  1  0  0  0  0
 15 20  1  0  0  0  0
  1 22  1  0  0  0  0
  2 23  1  0  0  0  0
  8 24  1  0  0  0  0
  8 25  1  0  0  0  0
  9 26  1  0  0  0  0
  9 27  1  0  0  0  0
 10 28  1  0  0  0  0
 10 29  1  0  0  0  0
 11 30  1  0  0  0  0
 11 31  1  0  0  0  0
 12 32  1  0  0  0  0
 12 33  1  0  0  0  0
 13 34  1  0  0  0  0
 13 35  1  0  0  0  0
 14 36  1  0  0  0  0
 14 37  1  0  0  0  0
 15 38  1  0  0  0  0
 18 39  1  0  0  0  0
 19 40  1  0  0  0  0
 19 41  1  0  0  0  0
 20 42  1  0  0  0  0
M  END
> <POSIT::Probability>
0.94

> <POSIT::Method>
SHAPEFIT

> <ReceptorTitle>
UCSF-P4508_LA2_MERGED(A)

> <OMEGA_C>
KMpDwhbO5ME2PrNAOyEywtm87MEoq8FAZJE7wiQz6cE6D5hAqTZBwoPR5sEBFo1AFyc7whBH6MEG
q8RAbvY2wrVw7ME/K4FAkQVEwvmN5sHZskZAcGAywmWT5cH8wp6/spMywuTv8cGwKae/XJczwlla
4MGqZwM+BRM3wu4U98GXUOq+Xj0vwhP/4cH7Opk/5hg1wl0k/MGW1V0/t/stwlqs7cFhm8w/hNUy
wo/O9MHRh/4/WXw2wlkS6sFG/NhA+E8ywigF7sEDr5ZANiRAwtmn5cE7fNRAsYhJwhyZ5cEz4kRA
zyk3wn2+7sHmFytA855Bwq8t58E5qwJAc/pHwtzf4sFJsbZA6lwuwifj7cGV89FAMlUuwgMT48Fm
McW/X081woh64sGORfu/ai0zwhpL9MEZuhbAs7cuwk8P9cGSMnO/yRc0wnuz18FSqOu8U1k3wrrD
48FoiwI/LQc6wvXa8MGm/1u+tf44wkZf/cH5gIe/ZIUrwjpp3sHhBVE/mYQwwna63cE9rwZAdIE4
wrhAAMJxLqY/1+kxwn/rAMLYfRo/rfUrwqGA8cFaPj8/xEArwr5t7cHieR1ATEExwnhc+sG1rC9A
f/9AwqCI5MFJa/NAZ3ZLwitu5cFi1AxA75ZLwhET5cEroHtAn4c6wo3n8sFdxCFA

> <OMEGA_E>
MAGRPg==

> <OMEGA_NBR>
     11442

$$$$
CACHE3-HO_1706_3
  -OEChem-03092622503D

 37 39  0     0  0  0  0  0  0999 V2000
  -48.8442  -28.6231    5.6179 C   0  0  0  0  0  0  0  0  0  0  0  0
  -44.4124  -29.6276    5.5520 C   0  0  0  0  0  0  0  0  0  0  0  0
  -46.8992  -29.1622    4.5398 C   0  0  0  0  0  0  0  0  0  0  0  0
  -48.3383  -28.8502    4.3564 C   0  0  0  0  0  0  0  0  0  0  0  0
  -46.6419  -29.0826    5.9148 C   0  0  0  0  0  0  0  0  0  0  0  0
  -45.8376  -29.5315    3.6856 C   0  0  0  0  0  0  0  0  0  0  0  0
  -41.9644  -29.5352    0.8438 C   0  0  0  0  0  0  0  0  0  0  0  0
  -42.0581  -30.8593    0.4515 C   0  0  0  0  0  0  0  0  0  0  0  0
  -49.1836  -28.7572    3.1373 C   0  0  0  0  0  0  0  0  0  0  0  0
  -43.1086  -28.6385    1.2927 C   0  0  0  0  0  0  0  0  0  0  0  0
  -43.2943  -31.7451    0.5307 C   0  0  0  0  0  0  0  0  0  0  0  0
  -44.4579  -28.9756    0.6416 C   0  0  0  0  0  0  0  0  0  0  0  0
  -44.2457  -31.3674    1.6660 C   0  0  0  0  0  0  0  0  0  0  0  0
  -45.1735  -30.1966    1.2592 C   0  0  0  0  0  0  0  0  0  0  0  0
  -45.4128  -29.3248    6.4092 N   0  0  0  0  0  0  0  0  0  0  0  0
  -44.6064  -29.7260    4.2154 N   0  0  0  0  0  0  0  0  0  0  0  0
  -47.8242  -28.7560    6.5483 N   0  0  0  0  0  0  0  0  0  0  0  0
  -50.5456  -28.5630    3.2680 N   0  0  0  0  0  0  0  0  0  0  0  0
  -46.1076  -29.7833    2.3394 N   0  0  0  0  0  0  0  0  0  0  0  0
  -48.7197  -28.8145    2.0072 O   0  0  0  0  0  0  0  0  0  0  0  0
  -49.8715  -28.3803    5.8459 H   0  0  0  0  0  0  0  0  0  0  0  0
  -43.4219  -29.7971    5.9477 H   0  0  0  0  0  0  0  0  0  0  0  0
  -40.9789  -29.0936    0.8297 H   0  0  0  0  0  0  0  0  0  0  0  0
  -41.1634  -31.3102    0.0482 H   0  0  0  0  0  0  0  0  0  0  0  0
  -43.2168  -28.7354    2.3831 H   0  0  0  0  0  0  0  0  0  0  0  0
  -42.8529  -27.5988    1.0406 H   0  0  0  0  0  0  0  0  0  0  0  0
  -43.8401  -31.6665   -0.4211 H   0  0  0  0  0  0  0  0  0  0  0  0
  -42.9682  -32.7848    0.6815 H   0  0  0  0  0  0  0  0  0  0  0  0
  -45.1177  -28.1014    0.7436 H   0  0  0  0  0  0  0  0  0  0  0  0
  -44.2840  -29.1813   -0.4249 H   0  0  0  0  0  0  0  0  0  0  0  0
  -44.8631  -32.2413    1.9214 H   0  0  0  0  0  0  0  0  0  0  0  0
  -43.6543  -31.0672    2.5436 H   0  0  0  0  0  0  0  0  0  0  0  0
  -45.8062  -30.5977    0.4537 H   0  0  0  0  0  0  0  0  0  0  0  0
  -47.9298  -28.6330    7.5351 H   0  0  0  0  0  0  0  0  0  0  0  0
  -51.1184  -28.4742    2.4531 H   0  0  0  0  0  0  0  0  0  0  0  0
  -50.9583  -28.5112    4.1773 H   0  0  0  0  0  0  0  0  0  0  0  0
  -46.8026  -30.5022    2.3555 H   0  0  0  0  0  0  0  0  0  0  0  0
  1  4  2  0  0  0  0
  1 17  1  0  0  0  0
  2 15  1  0  0  0  0
  2 16  2  0  0  0  0
  3  4  1  0  0  0  0
  3  5  1  0  0  0  0
  3  6  2  0  0  0  0
  4  9  1  0  0  0  0
  5 15  2  0  0  0  0
  5 17  1  0  0  0  0
  6 16  1  0  0  0  0
  6 19  1  0  0  0  0
  7  8  2  0  0  0  0
  7 10  1  0  0  0  0
  8 11  1  0  0  0  0
  9 18  1  0  0  0  0
  9 20  2  0  0  0  0
 10 12  1  0  0  0  0
 11 13  1  0  0  0  0
 12 14  1  0  0  0  0
 13 14  1  0  0  0  0
 14 19  1  0  0  0  0
  1 21  1  0  0  0  0
  2 22  1  0  0  0  0
  7 23  1  0  0  0  0
  8 24  1  0  0  0  0
 10 25  1  0  0  0  0
 10 26  1  0  0  0  0
 11 27  1  0  0  0  0
 11 28  1  0  0  0  0
 12 29  1  0  0  0  0
 12 30  1  0  0  0  0
 13 31  1  0  0  0  0
 13 32  1  0  0  0  0
 14 33  1  0  0  0  0
 17 34  1  0  0  0  0
 18 35  1  0  0  0  0
 18 36  1  0  0  0  0
 19 37  1  0  0  0  0
M  END
> <POSIT::Probability>
0.94

> <POSIT::Method>
SHAPEFIT

> <ReceptorTitle>
UCSF-P4508-REFINED_LIGAND-BOUND-STATE_AALTB__DU__LA1_A-201(A)

> <OMEGA_C>
cmBDwhz85MEcxrNAVaYxwjkF7cEsqrFAwJg7wihM6cFMRpFAYFpBwjrN5sH2Z4tATpE6wjap6MFc
Rr1AuVk3wpdA7MFn4GtAmNsnwgRI7MGEAlg/gDsowu3f9sHUK+c+9rtEwq8O5sE5ykhANm8swrIb
5cHyd6U/aS0twg72/cF02wc/29QxwhvO58EMPiQ/k/swwoHw+sE2QNU/t7E0woqS8cG6LaE/wKY1
wkaZ6sFSGM1A7GwywuHO7cHC5IZA70s/wjwM5sGgi9FAsC5KwvyA5MEhJlFALG44wkJE7sHAuBVA
++BCwgSE5sHkdQBAdnxHwssK48GhEbtAE7AtwoVg7sHHU75AbOojwr6/6MFxaVQ/UKckwkF7+sFH
kUU9/90swhPi5cGjhBhAVWkrwlvK3MEEMYU/TFwvwgJV/cEfnNe+c98rwqIjA8J7eS4/hng0wsHP
4MF7Wz4/xyIxwk5z6cGLktm+xHMzwhj3AMJ57/U/BZ4uwrOJ+MGcyiJAhDk3whbI9MHGSOg+Jbg/
wlAQ5cExH/FAQHlMwjnL48FZ/xxAVtVLwvkW5MGqrIVA0TU7wn0E9MHFwBZA

> <OMEGA_E>
kPw+Pg==

> <OMEGA_NBR>
     12709

$$$$
CACHE3-HO_1706_4
  -OEChem-03092622503D

 39 41  0     0  0  0  0  0  0999 V2000
  -48.8253  -28.5890    5.6067 C   0  0  0  0  0  0  0  0  0  0  0  0
  -44.4097  -29.6866    5.5427 C   0  0  0  0  0  0  0  0  0  0  0  0
  -46.8901  -29.1709    4.5379 C   0  0  0  0  0  0  0  0  0  0  0  0
  -48.3264  -28.8430    4.3476 C   0  0  0  0  0  0  0  0  0  0  0  0
  -46.6311  -29.0950    5.9110 C   0  0  0  0  0  0  0  0  0  0  0  0
  -45.8252  -29.5066    3.6787 C   0  0  0  0  0  0  0  0  0  0  0  0
  -49.1820  -28.7828    3.1279 C   0  0  0  0  0  0  0  0  0  0  0  0
  -42.0952  -30.3189    0.3529 C   0  0  0  0  0  0  0  0  0  0  0  0
  -42.3736  -31.1379    1.6384 C   0  0  0  0  0  0  0  0  0  0  0  0
  -42.8260  -28.9455    0.2642 C   0  0  0  0  0  0  0  0  0  0  0  0
  -43.7665  -31.8160    1.6658 C   0  0  0  0  0  0  0  0  0  0  0  0
  -43.9061  -28.6954    1.3329 C   0  0  0  0  0  0  0  0  0  0  0  0
  -44.8547  -31.1140    0.8298 C   0  0  0  0  0  0  0  0  0  0  0  0
  -45.1310  -29.6370    1.1831 C   0  0  0  0  0  0  0  0  0  0  0  0
  -45.4017  -29.3508    6.4018 N   0  0  0  0  0  0  0  0  0  0  0  0
  -44.6028  -29.7682    4.2027 N   0  0  0  0  0  0  0  0  0  0  0  0
  -47.8066  -28.7321    6.5395 N   0  0  0  0  0  0  0  0  0  0  0  0
  -50.5441  -28.5953    3.2604 N   0  0  0  0  0  0  0  0  0  0  0  0
  -46.0784  -29.5554    2.3129 N   0  0  0  0  0  0  0  0  0  0  0  0
  -48.7348  -28.8891    1.9946 O   0  0  0  0  0  0  0  0  0  0  0  0
  -49.8470  -28.3210    5.8323 H   0  0  0  0  0  0  0  0  0  0  0  0
  -43.4277  -29.8972    5.9398 H   0  0  0  0  0  0  0  0  0  0  0  0
  -41.0127  -30.1315    0.2976 H   0  0  0  0  0  0  0  0  0  0  0  0
  -42.4068  -30.9255   -0.5102 H   0  0  0  0  0  0  0  0  0  0  0  0
  -41.6061  -31.9215    1.7221 H   0  0  0  0  0  0  0  0  0  0  0  0
  -42.3018  -30.4606    2.5022 H   0  0  0  0  0  0  0  0  0  0  0  0
  -42.0689  -28.1528    0.3565 H   0  0  0  0  0  0  0  0  0  0  0  0
  -43.3060  -28.8809   -0.7234 H   0  0  0  0  0  0  0  0  0  0  0  0
  -43.6533  -32.8416    1.2847 H   0  0  0  0  0  0  0  0  0  0  0  0
  -44.1085  -31.8488    2.7108 H   0  0  0  0  0  0  0  0  0  0  0  0
  -43.4608  -28.8536    2.3262 H   0  0  0  0  0  0  0  0  0  0  0  0
  -44.2507  -27.6543    1.2472 H   0  0  0  0  0  0  0  0  0  0  0  0
  -44.5478  -31.1560   -0.2257 H   0  0  0  0  0  0  0  0  0  0  0  0
  -45.7931  -31.6728    0.9613 H   0  0  0  0  0  0  0  0  0  0  0  0
  -45.6791  -29.2415    0.3152 H   0  0  0  0  0  0  0  0  0  0  0  0
  -47.9091  -28.5925    7.5244 H   0  0  0  0  0  0  0  0  0  0  0  0
  -51.1242  -28.5512    2.4470 H   0  0  0  0  0  0  0  0  0  0  0  0
  -50.9501  -28.5037    4.1697 H   0  0  0  0  0  0  0  0  0  0  0  0
  -46.6655  -30.3569    2.2001 H   0  0  0  0  0  0  0  0  0  0  0  0
  1  4  2  0  0  0  0
  1 17  1  0  0  0  0
  2 15  1  0  0  0  0
  2 16  2  0  0  0  0
  3  4  1  0  0  0  0
  3  5  1  0  0  0  0
  3  6  2  0  0  0  0
  4  7  1  0  0  0  0
  5 15  2  0  0  0  0
  5 17  1  0  0  0  0
  6 16  1  0  0  0  0
  6 19  1  0  0  0  0
  7 18  1  0  0  0  0
  7 20  2  0  0  0  0
  8  9  1  0  0  0  0
  8 10  1  0  0  0  0
  9 11  1  0  0  0  0
 10 12  1  0  0  0  0
 11 13  1  0  0  0  0
 12 14  1  0  0  0  0
 13 14  1  0  0  0  0
 14 19  1  0  0  0  0
  1 21  1  0  0  0  0
  2 22  1  0  0  0  0
  8 23  1  0  0  0  0
  8 24  1  0  0  0  0
  9 25  1  0  0  0  0
  9 26  1  0  0  0  0
 10 27  1  0  0  0  0
 10 28  1  0  0  0  0
 11 29  1  0  0  0  0
 11 30  1  0  0  0  0
 12 31  1  0  0  0  0
 12 32  1  0  0  0  0
 13 33  1  0  0  0  0
 13 34  1  0  0  0  0
 14 35  1  0  0  0  0
 17 36  1  0  0  0  0
 18 37  1  0  0  0  0
 18 38  1  0  0  0  0
 19 39  1  0  0  0  0
M  END
> <POSIT::Probability>
0.94

> <POSIT::Method>
SHAPEFIT

> <ReceptorTitle>
UCSF-P4508-REFINED_LIGAND-BOUND-STATE_AALTB__DU__LA1_A-201(A)

> <OMEGA_C>
J01DwjK25ME5arNAj6MxwhR+7cGhXbFAf487wvld6cGtNpFAN05Bwoe+5sHoH4tATIY6wnjC6MG+
Jr1ADU03wm0N7MEcb2tAVLpEwhZD5sGAL0hAdWEowgWN8sGSqrQ+jn4pwoEa+cGcuNE/000rwluQ
58HGRoc+5BAvwhWH/sGEOtU/058vwiWQ5cH+nKo/PWszwm7p+MGJbFQ/G4Y0wo8Y7cE4bpc/XJs1
woLO6sFT28xASGkywl0l7sHQfIZA/Tk/wkHb5cHpQ9FAIy1KwjbD5MEoqlBARlA4wl1x7ME1BxRA
evBCwtYc58F4T/8/R2NHwlqR4sGGorpA/7Utwnct78H9Er5A9wwkwjoN8cGRYJg+kKApwmNn98Ee
nQK/mWwmwiNf/8FDbtw/CzUpwlCv88HsIyBAjEYowgg54cHihLY+WjktwggM58EgMjm/9Jwuwspd
A8K4caQ/F28wwknK/sERfi1A0tctwjDU5sHU4BRAuAAxwvk73cFapJ8/7TAywmk/+cGIG2e+GCw3
wtFh/cEvFXY/XLc2woru6cGvYqE++KI/wne95MEqyPBAKH9MwvJo5MElnBxA4sxLwpIH5MHNbYVA
f6k6wgHb8sHjzQxA

> <OMEGA_E>
WIM0Pg==

> <OMEGA_NBR>
     14016

$$$$
CACHE3-HO_1706_5
  -OEChem-03092622503D

 34 36  0     0  0  0  0  0  0999 V2000
  -48.8269  -28.6153    5.6260 C   0  0  0  0  0  0  0  0  0  0  0  0
  -44.4051  -29.6479    5.4836 C   0  0  0  0  0  0  0  0  0  0  0  0
  -46.9089  -29.1747    4.5047 C   0  0  0  0  0  0  0  0  0  0  0  0
  -48.3486  -28.8517    4.3552 C   0  0  0  0  0  0  0  0  0  0  0  0
  -46.6270  -29.1018    5.8777 C   0  0  0  0  0  0  0  0  0  0  0  0
  -45.8531  -29.5208    3.6288 C   0  0  0  0  0  0  0  0  0  0  0  0
  -49.2160  -28.7640    3.1568 C   0  0  0  0  0  0  0  0  0  0  0  0
  -44.0234  -28.7528    1.2073 C   0  0  0  0  0  0  0  0  0  0  0  0
  -44.4059  -31.4051    1.5460 C   0  0  0  0  0  0  0  0  0  0  0  0
  -42.6671  -29.0363    0.5633 C   0  0  0  0  0  0  0  0  0  0  0  0
  -43.0258  -31.6741    0.9381 C   0  0  0  0  0  0  0  0  0  0  0  0
  -45.0020  -29.9790    1.2502 C   0  0  0  0  0  0  0  0  0  0  0  0
  -45.3918  -29.3462    6.3537 N   0  0  0  0  0  0  0  0  0  0  0  0
  -44.6139  -29.7261    4.1500 N   0  0  0  0  0  0  0  0  0  0  0  0
  -47.7909  -28.7591    6.5348 N   0  0  0  0  0  0  0  0  0  0  0  0
  -50.5721  -28.5416    3.3128 N   0  0  0  0  0  0  0  0  0  0  0  0
  -46.0722  -29.6838    2.2500 N   0  0  0  0  0  0  0  0  0  0  0  0
  -48.7723  -28.8666    2.0219 O   0  0  0  0  0  0  0  0  0  0  0  0
  -41.8603  -30.3858    1.4673 S   0  0  0  0  0  0  0  0  0  0  0  0
  -49.8463  -28.3589    5.8739 H   0  0  0  0  0  0  0  0  0  0  0  0
  -43.4125  -29.8335    5.8666 H   0  0  0  0  0  0  0  0  0  0  0  0
  -43.8482  -28.4188    2.2406 H   0  0  0  0  0  0  0  0  0  0  0  0
  -44.5101  -27.9466    0.6388 H   0  0  0  0  0  0  0  0  0  0  0  0
  -45.1051  -32.1554    1.1482 H   0  0  0  0  0  0  0  0  0  0  0  0
  -44.3256  -31.5208    2.6369 H   0  0  0  0  0  0  0  0  0  0  0  0
  -42.8109  -29.3294   -0.4872 H   0  0  0  0  0  0  0  0  0  0  0  0
  -42.0401  -28.1337    0.6096 H   0  0  0  0  0  0  0  0  0  0  0  0
  -42.6630  -32.6561    1.2757 H   0  0  0  0  0  0  0  0  0  0  0  0
  -43.1026  -31.6690   -0.1592 H   0  0  0  0  0  0  0  0  0  0  0  0
  -45.4794  -30.0365    0.2608 H   0  0  0  0  0  0  0  0  0  0  0  0
  -47.8746  -28.6329    7.5233 H   0  0  0  0  0  0  0  0  0  0  0  0
  -51.1626  -28.4687    2.5091 H   0  0  0  0  0  0  0  0  0  0  0  0
  -50.9622  -28.4536    4.2294 H   0  0  0  0  0  0  0  0  0  0  0  0
  -46.7290  -30.4336    2.1693 H   0  0  0  0  0  0  0  0  0  0  0  0
  1  4  2  0  0  0  0
  1 15  1  0  0  0  0
  2 13  1  0  0  0  0
  2 14  2  0  0  0  0
  3  4  1  0  0  0  0
  3  5  1  0  0  0  0
  3  6  2  0  0  0  0
  4  7  1  0  0  0  0
  5 13  2  0  0  0  0
  5 15  1  0  0  0  0
  6 14  1  0  0  0  0
  6 17  1  0  0  0  0
  7 16  1  0  0  0  0
  7 18  2  0  0  0  0
  8 10  1  0  0  0  0
  8 12  1  0  0  0  0
  9 11  1  0  0  0  0
  9 12  1  0  0  0  0
 10 19  1  0  0  0  0
 11 19  1  0  0  0  0
 12 17  1  0  0  0  0
  1 20  1  0  0  0  0
  2 21  1  0  0  0  0
  8 22  1  0  0  0  0
  8 23  1  0  0  0  0
  9 24  1  0  0  0  0
  9 25  1  0  0  0  0
 10 26  1  0  0  0  0
 10 27  1  0  0  0  0
 11 28  1  0  0  0  0
 11 29  1  0  0  0  0
 12 30  1  0  0  0  0
 15 31  1  0  0  0  0
 16 32  1  0  0  0  0
 16 33  1  0  0  0  0
 17 34  1  0  0  0  0
M  END
> <POSIT::Probability>
0.94

> <POSIT::Method>
SHAPEFIT

> <ReceptorTitle>
UCSF-P4508-REFINED_LIGAND-BOUND-STATE_AALTB__DU__LA1_A-201(A)

> <OMEGA_C>
s05DwiPs5MGICLRAyp4xwtMu7cEBeq9Av6I7wuNl6cGDJpBA/2RBwmLQ5sHhXYtAAII6wnXQ6MHw
FbxAjmk3wqYq7MGQPmhALd1Ewrcc5sFiCEpA9xcwwskF5sF4iJo/oJ8xwq89+8HE4sU/JasqwmlK
6MGwMhA/choswpxk/cG0J3A/BwI0wvPU78HeBaA/O5E1whPF6sGbUctAq3Qywh3P7cG/zIRA5Ck/
wqAS5sFhHdFA30lKwiNV5MGiBVRA5Uk4wn147cFQ/w9A4BZDwt/u5sE4ZwFA+3AnwgUW88Ho0Ls/
lmJHwgHf4sHz9rtAWqYtwvqq7sFEu7tAjmQvwq9Z48HyZQ9AUQoywpuS38FWiyM/lWs0wh2fAMJG
95I/bE0xwpcq/MGHwyhAVj4rwoyi6sGycPm+FSkowt4R4cGSERw/36YqwuKfAsLzSqM/Dmkswita
/cFvBSO+3Oo1wrRK8MHoi4U+lH8/wiAQ5cHmvvBAiaZMwu2/48ELlSBAP9lLwvWg48GSV4dAeOo6
wvF388En1gpA

> <OMEGA_E>
sA0oPg==

> <OMEGA_NBR>
     15223

$$$$
CACHE3-HO_1706_6
  -OEChem-03092622503D

 37 39  0     0  0  0  0  0  0999 V2000
  -48.8063  -28.5724    5.5439 C   0  0  0  0  0  0  0  0  0  0  0  0
  -44.4006  -29.7041    5.6549 C   0  0  0  0  0  0  0  0  0  0  0  0
  -46.8442  -29.2132    4.5480 C   0  0  0  0  0  0  0  0  0  0  0  0
  -48.2702  -28.8580    4.3069 C   0  0  0  0  0  0  0  0  0  0  0  0
  -46.6196  -29.0557    5.9209 C   0  0  0  0  0  0  0  0  0  0  0  0
  -45.7693  -29.6740    3.7523 C   0  0  0  0  0  0  0  0  0  0  0  0
  -49.0909  -28.8023    3.0672 C   0  0  0  0  0  0  0  0  0  0  0  0
  -43.7777  -31.0771    1.6697 C   0  0  0  0  0  0  0  0  0  0  0  0
  -45.3170  -29.8340    0.0849 C   0  0  0  0  0  0  0  0  0  0  0  0
  -42.7735  -29.8968    1.6371 C   0  0  0  0  0  0  0  0  0  0  0  0
  -44.3600  -28.6175    0.1374 C   0  0  0  0  0  0  0  0  0  0  0  0
  -45.2515  -30.6494    1.3897 C   0  0  0  0  0  0  0  0  0  0  0  0
  -42.9031  -29.0762    0.3451 C   0  0  0  0  0  0  0  0  0  0  0  0
  -45.4068  -29.2898    6.4591 N   0  0  0  0  0  0  0  0  0  0  0  0
  -44.5705  -29.9160    4.3289 N   0  0  0  0  0  0  0  0  0  0  0  0
  -47.8126  -28.6778    6.5055 N   0  0  0  0  0  0  0  0  0  0  0  0
  -50.4566  -28.5982    3.1618 N   0  0  0  0  0  0  0  0  0  0  0  0
  -45.9443  -29.7785    2.3821 N   0  0  0  0  0  0  0  0  0  0  0  0
  -48.6017  -28.9000    1.9506 O   0  0  0  0  0  0  0  0  0  0  0  0
  -42.4931  -29.8818   -0.7590 O   0  0  0  0  0  0  0  0  0  0  0  0
  -49.8361  -28.3086    5.7341 H   0  0  0  0  0  0  0  0  0  0  0  0
  -43.4253  -29.8719    6.0873 H   0  0  0  0  0  0  0  0  0  0  0  0
  -43.4773  -31.8107    0.9071 H   0  0  0  0  0  0  0  0  0  0  0  0
  -43.7339  -31.5438    2.6649 H   0  0  0  0  0  0  0  0  0  0  0  0
  -46.3462  -29.4750   -0.0628 H   0  0  0  0  0  0  0  0  0  0  0  0
  -45.0297  -30.4806   -0.7573 H   0  0  0  0  0  0  0  0  0  0  0  0
  -42.9675  -29.2398    2.4977 H   0  0  0  0  0  0  0  0  0  0  0  0
  -41.7510  -30.2968    1.7043 H   0  0  0  0  0  0  0  0  0  0  0  0
  -44.4316  -28.0611   -0.8088 H   0  0  0  0  0  0  0  0  0  0  0  0
  -44.6543  -27.9628    0.9710 H   0  0  0  0  0  0  0  0  0  0  0  0
  -45.8460  -31.5643    1.2494 H   0  0  0  0  0  0  0  0  0  0  0  0
  -42.2617  -28.1862    0.4257 H   0  0  0  0  0  0  0  0  0  0  0  0
  -47.9414  -28.5050    7.4821 H   0  0  0  0  0  0  0  0  0  0  0  0
  -51.0113  -28.5350    2.3322 H   0  0  0  0  0  0  0  0  0  0  0  0
  -50.8885  -28.5140    4.0597 H   0  0  0  0  0  0  0  0  0  0  0  0
  -46.9113  -30.0107    2.2770 H   0  0  0  0  0  0  0  0  0  0  0  0
  -42.5703  -29.3812   -1.5628 H   0  0  0  0  0  0  0  0  0  0  0  0
  1  4  2  0  0  0  0
  1 16  1  0  0  0  0
  2 14  1  0  0  0  0
  2 15  2  0  0  0  0
  3  4  1  0  0  0  0
  3  5  1  0  0  0  0
  3  6  2  0  0  0  0
  4  7  1  0  0  0  0
  5 14  2  0  0  0  0
  5 16  1  0  0  0  0
  6 15  1  0  0  0  0
  6 18  1  0  0  0  0
  7 17  1  0  0  0  0
  7 19  2  0  0  0  0
  8 10  1  0  0  0  0
  8 12  1  0  0  0  0
  9 11  1  0  0  0  0
  9 12  1  0  0  0  0
 10 13  1  0  0  0  0
 11 13  1  0  0  0  0
 12 18  1  0  0  0  0
 13 20  1  0  0  0  0
  1 21  1  0  0  0  0
  2 22  1  0  0  0  0
  8 23  1  0  0  0  0
  8 24  1  0  0  0  0
  9 25  1  0  0  0  0
  9 26  1  0  0  0  0
 10 27  1  0  0  0  0
 10 28  1  0  0  0  0
 11 29  1  0  0  0  0
 11 30  1  0  0  0  0
 12 31  1  0  0  0  0
 13 32  1  0  0  0  0
 16 33  1  0  0  0  0
 17 34  1  0  0  0  0
 17 35  1  0  0  0  0
 18 36  1  0  0  0  0
 20 37  1  0  0  0  0
M  END
> <POSIT::Probability>
0.9

> <POSIT::Method>
SHAPEFIT

> <ReceptorTitle>
UCSF-P4508-REFINED_LIGAND-BOUND-STATE_AALTB__DU__LA1_A-201(A)

> <OMEGA_C>
oTlDwl6U5MGCZ7FAOpoxwu2h7cHw9LRAfmA7wre06cGViZFAsRRBwiDd5sHt0YlAeXo6widy6MHA
d71AtxM3wklk7cFwJnBAFF1Ewipr5sEMTURAXRwvwtGd+MGyudU/lkQ1wgas7sFQ4a09DhgrwrEs
78Gwi9E/onAxwo/w5MHovAw+kQE1wgYy9cFQ4LE/0JwrwhGc6MHEqrA+haA1woBR6sE1sc5AJkgy
wghU78FPhopAJEA/wjNs5cFhLdBAgtNJwi/J5MHMWkpAAsc3wmY67sHWcxhAImhCwj0z58FMrfk/
8PgpwugN78F2UEK/NVhHwhZ44sHefbdAe7MtwrP57sHnysJAzegtwlB8/sGjOWg/hu8uwqJZ/MHs
jCpAg2I5wtDM68FOsYC9ch40wkrY88FS4UG/td4rwhDr6cEi2h9AAwEnwtNf8sFtJdo/9bkxwg59
4MHjCk+/+Z0ywrqz38ErkXg/QWI3wq+D/MHS7J8/+Qspwml94cHk9Nk+9MM/wlUK5MH2bO9AkwtM
wsFH5MF1QhVA041Lwp4c5MFt6YFAL6U7wvoV8MG8uRFAAUgqwsgM68EACci/

> <OMEGA_E>
qFXkPg==

> <OMEGA_NBR>
     16489

$$$$
CACHE3-HO_1706_7
  -OEChem-03092622503D

 36 38  0     0  0  0  0  0  0999 V2000
  -48.8196  -28.6384    5.6035 C   0  0  0  0  0  0  0  0  0  0  0  0
  -44.3798  -29.6407    5.4894 C   0  0  0  0  0  0  0  0  0  0  0  0
  -46.8783  -29.1722    4.5094 C   0  0  0  0  0  0  0  0  0  0  0  0
  -48.3222  -28.8616    4.3375 C   0  0  0  0  0  0  0  0  0  0  0  0
  -46.6121  -29.1025    5.8820 C   0  0  0  0  0  0  0  0  0  0  0  0
  -45.8160  -29.5164    3.6410 C   0  0  0  0  0  0  0  0  0  0  0  0
  -49.1766  -28.7702    3.1224 C   0  0  0  0  0  0  0  0  0  0  0  0
  -42.2282  -30.3813    0.9435 C   0  0  0  0  0  0  0  0  0  0  0  0
  -43.0655  -31.4666    1.6318 C   0  0  0  0  0  0  0  0  0  0  0  0
  -42.7434  -29.0018    1.3693 C   0  0  0  0  0  0  0  0  0  0  0  0
  -44.5412  -31.3951    1.2007 C   0  0  0  0  0  0  0  0  0  0  0  0
  -44.1867  -28.7862    0.8871 C   0  0  0  0  0  0  0  0  0  0  0  0
  -45.1599  -29.9672    1.1688 C   0  0  0  0  0  0  0  0  0  0  0  0
  -45.3755  -29.3443    6.3608 N   0  0  0  0  0  0  0  0  0  0  0  0
  -44.5799  -29.7270    4.1491 N   0  0  0  0  0  0  0  0  0  0  0  0
  -47.7919  -28.7768    6.5262 N   0  0  0  0  0  0  0  0  0  0  0  0
  -50.5367  -28.5635    3.2580 N   0  0  0  0  0  0  0  0  0  0  0  0
  -46.0911  -29.7065    2.2932 N   0  0  0  0  0  0  0  0  0  0  0  0
  -48.7218  -28.8474    1.9898 O   0  0  0  0  0  0  0  0  0  0  0  0
  -49.8449  -28.3948    5.8397 H   0  0  0  0  0  0  0  0  0  0  0  0
  -43.3871  -29.8153    5.8773 H   0  0  0  0  0  0  0  0  0  0  0  0
  -41.1739  -30.4876    1.2387 H   0  0  0  0  0  0  0  0  0  0  0  0
  -42.3157  -30.4860   -0.1480 H   0  0  0  0  0  0  0  0  0  0  0  0
  -42.6618  -32.4540    1.3636 H   0  0  0  0  0  0  0  0  0  0  0  0
  -43.0039  -31.3289    2.7214 H   0  0  0  0  0  0  0  0  0  0  0  0
  -42.7150  -28.9290    2.4665 H   0  0  0  0  0  0  0  0  0  0  0  0
  -42.0976  -28.2253    0.9334 H   0  0  0  0  0  0  0  0  0  0  0  0
  -44.6203  -31.8218    0.1899 H   0  0  0  0  0  0  0  0  0  0  0  0
  -45.1295  -32.0041    1.9029 H   0  0  0  0  0  0  0  0  0  0  0  0
  -44.5832  -27.8908    1.3882 H   0  0  0  0  0  0  0  0  0  0  0  0
  -44.1613  -28.6172   -0.1996 H   0  0  0  0  0  0  0  0  0  0  0  0
  -45.8073  -29.9862    0.2796 H   0  0  0  0  0  0  0  0  0  0  0  0
  -47.8903  -28.6582    7.5142 H   0  0  0  0  0  0  0  0  0  0  0  0
  -51.1136  -28.4822    2.4452 H   0  0  0  0  0  0  0  0  0  0  0  0
  -50.9437  -28.4952    4.1689 H   0  0  0  0  0  0  0  0  0  0  0  0
  -46.7205  -30.4834    2.2773 H   0  0  0  0  0  0  0  0  0  0  0  0
  1  4  2  0  0  0  0
  1 16  1  0  0  0  0
  2 14  1  0  0  0  0
  2 15  2  0  0  0  0
  3  4  1  0  0  0  0
  3  5  1  0  0  0  0
  3  6  2  0  0  0  0
  4  7  1  0  0  0  0
  5 14  2  0  0  0  0
  5 16  1  0  0  0  0
  6 15  1  0  0  0  0
  6 18  1  0  0  0  0
  7 17  1  0  0  0  0
  7 19  2  0  0  0  0
  8  9  1  0  0  0  0
  8 10  1  0  0  0  0
  9 11  1  0  0  0  0
 10 12  1  0  0  0  0
 11 13  1  0  0  0  0
 12 13  1  0  0  0  0
 13 18  1  0  0  0  0
  1 20  1  0  0  0  0
  2 21  1  0  0  0  0
  8 22  1  0  0  0  0
  8 23  1  0  0  0  0
  9 24  1  0  0  0  0
  9 25  1  0  0  0  0
 10 26  1  0  0  0  0
 10 27  1  0  0  0  0
 11 28  1  0  0  0  0
 11 29  1  0  0  0  0
 12 30  1  0  0  0  0
 12 31  1  0  0  0  0
 13 32  1  0  0  0  0
 16 33  1  0  0  0  0
 17 34  1  0  0  0  0
 17 35  1  0  0  0  0
 18 36  1  0  0  0  0
M  END
> <POSIT::Probability>
0.95

> <POSIT::Method>
SHAPEFIT

> <ReceptorTitle>
UCSF-P4508-REFINED_LIGAND-BOUND-STATE_AALTB__DU__LA1_A-201(A)

> <OMEGA_C>
R0dDwm4b5cGbT7NA6IQxwjcg7cGPqa9AWoM7wrlg6cFVTZBA80lBwonk5sGDzIpA1HI6wtTR6MF0
ObxAjkM3wqIh7MHxBWlA2rREwm8p5sHv1UdAtOkowv8M88FIjHE/H0Mswpe7+8GE3tA/PPkqwsMD
6MExRa8/LSoywjgp+8GisZk/K78wwhFK5sHOGGM/yaM0wu2878HrmZU/ioA1wiPB6sFyi8tAyFEy
wubQ7cFtxYRA5So/wuY25sFz1tBAoCVKwv+B5MGBg1BAU104wtem7cFNwxJAGONCwoDH5sFcsv4/
MWFHwoko48HF3rpAW4wtwtKF7sGaErxAFbIkwo7m88Gejp4/T0Mpwlvj88Hdghe+qaUqwu3QAcIQ
ia4/BwQswqOh+sFuKy5AHtwqwqBu58Ft2x1A82MownTN4cFl9W4/N3sywgiT/sEJgUI+o4Q0wjIE
AMKOkfM/P1UywnIg38GnsbE/LqUwwgDw5MHfVky+pjo3wrPj78FzJ48+sI8/wu1D5cGHdPBAV3RM
wpXb48HZfhxAZsZLwhz248GWZ4VAxOE6whLe88GsvhFA

> <OMEGA_E>
0O4aPg==

> <OMEGA_NBR>
     17736

$$$$
CACHE3-HO_1706_8
  -OEChem-03092622503D

 41 45  0     0  0  0  0  0  0999 V2000
  -48.8709  -28.6438    5.6382 C   0  0  0  0  0  0  0  0  0  0  0  0
  -44.4185  -29.6076    5.5406 C   0  0  0  0  0  0  0  0  0  0  0  0
  -46.9276  -29.1695    4.5537 C   0  0  0  0  0  0  0  0  0  0  0  0
  -48.3702  -28.8606    4.3732 C   0  0  0  0  0  0  0  0  0  0  0  0
  -46.6650  -29.1091    5.9251 C   0  0  0  0  0  0  0  0  0  0  0  0
  -45.8493  -29.4686    3.6990 C   0  0  0  0  0  0  0  0  0  0  0  0
  -49.2239  -28.7678    3.1581 C   0  0  0  0  0  0  0  0  0  0  0  0
  -42.2332  -31.0266    0.8907 C   0  0  0  0  0  0  0  0  0  0  0  0
  -46.8027  -29.0126   -1.4634 C   0  0  0  0  0  0  0  0  0  0  0  0
  -42.6865  -29.5719    0.4205 C   0  0  0  0  0  0  0  0  0  0  0  0
  -43.7876  -31.3511    1.0676 C   0  0  0  0  0  0  0  0  0  0  0  0
  -45.3742  -28.4258   -1.0612 C   0  0  0  0  0  0  0  0  0  0  0  0
  -46.4799  -30.2097   -0.4644 C   0  0  0  0  0  0  0  0  0  0  0  0
  -45.0687  -29.0409    1.4032 C   0  0  0  0  0  0  0  0  0  0  0  0
  -44.0624  -29.9657    0.6921 C   0  0  0  0  0  0  0  0  0  0  0  0
  -45.2707  -29.4760   -0.0541 C   0  0  0  0  0  0  0  0  0  0  0  0
  -45.4252  -29.3375    6.4073 N   0  0  0  0  0  0  0  0  0  0  0  0
  -44.6091  -29.6626    4.2020 N   0  0  0  0  0  0  0  0  0  0  0  0
  -47.8466  -28.7877    6.5643 N   0  0  0  0  0  0  0  0  0  0  0  0
  -50.5863  -28.5687    3.2961 N   0  0  0  0  0  0  0  0  0  0  0  0
  -46.0497  -29.5609    2.3488 N   0  0  0  0  0  0  0  0  0  0  0  0
  -48.7661  -28.8447    2.0264 O   0  0  0  0  0  0  0  0  0  0  0  0
  -49.8969  -28.4006    5.8722 H   0  0  0  0  0  0  0  0  0  0  0  0
  -43.4281  -29.7853    5.9328 H   0  0  0  0  0  0  0  0  0  0  0  0
  -41.7215  -31.6226    0.1206 H   0  0  0  0  0  0  0  0  0  0  0  0
  -41.6475  -31.0498    1.8215 H   0  0  0  0  0  0  0  0  0  0  0  0
  -47.6590  -28.3859   -1.1738 H   0  0  0  0  0  0  0  0  0  0  0  0
  -46.9026  -29.3048   -2.5192 H   0  0  0  0  0  0  0  0  0  0  0  0
  -42.3136  -28.7515    1.0514 H   0  0  0  0  0  0  0  0  0  0  0  0
  -42.4759  -29.3472   -0.6355 H   0  0  0  0  0  0  0  0  0  0  0  0
  -44.1810  -32.1018    0.3665 H   0  0  0  0  0  0  0  0  0  0  0  0
  -44.0861  -31.6150    2.0929 H   0  0  0  0  0  0  0  0  0  0  0  0
  -44.6179  -28.4830   -1.8579 H   0  0  0  0  0  0  0  0  0  0  0  0
  -45.4002  -27.4046   -0.6530 H   0  0  0  0  0  0  0  0  0  0  0  0
  -47.2222  -30.3498    0.3352 H   0  0  0  0  0  0  0  0  0  0  0  0
  -46.2840  -31.1742   -0.9558 H   0  0  0  0  0  0  0  0  0  0  0  0
  -44.7368  -28.0021    1.5475 H   0  0  0  0  0  0  0  0  0  0  0  0
  -47.9495  -28.6748    7.5526 H   0  0  0  0  0  0  0  0  0  0  0  0
  -51.1652  -28.4922    2.4843 H   0  0  0  0  0  0  0  0  0  0  0  0
  -50.9919  -28.5014    4.2076 H   0  0  0  0  0  0  0  0  0  0  0  0
  -46.1536  -30.5340    2.1433 H   0  0  0  0  0  0  0  0  0  0  0  0
  1  4  2  0  0  0  0
  1 19  1  0  0  0  0
  2 17  1  0  0  0  0
  2 18  2  0  0  0  0
  3  4  1  0  0  0  0
  3  5  1  0  0  0  0
  3  6  2  0  0  0  0
  4  7  1  0  0  0  0
  5 17  2  0  0  0  0
  5 19  1  0  0  0  0
  6 18  1  0  0  0  0
  6 21  1  0  0  0  0
  7 20  1  0  0  0  0
  7 22  2  0  0  0  0
  8 10  1  0  0  0  0
  8 11  1  0  0  0  0
  9 12  1  0  0  0  0
  9 13  1  0  0  0  0
 10 15  1  0  0  0  0
 11 15  1  0  0  0  0
 12 16  1  0  0  0  0
 13 16  1  0  0  0  0
 14 15  1  0  0  0  0
 14 16  1  0  0  0  0
 14 21  1  0  0  0  0
 15 16  1  0  0  0  0
  1 23  1  0  0  0  0
  2 24  1  0  0  0  0
  8 25  1  0  0  0  0
  8 26  1  0  0  0  0
  9 27  1  0  0  0  0
  9 28  1  0  0  0  0
 10 29  1  0  0  0  0
 10 30  1  0  0  0  0
 11 31  1  0  0  0  0
 11 32  1  0  0  0  0
 12 33  1  0  0  0  0
 12 34  1  0  0  0  0
 13 35  1  0  0  0  0
 13 36  1  0  0  0  0
 14 37  1  0  0  0  0
 19 38  1  0  0  0  0
 20 39  1  0  0  0  0
 20 40  1  0  0  0  0
 21 41  1  0  0  0  0
M  END
> <POSIT::Probability>
0.9

> <POSIT::Method>
SHAPEFIT

> <ReceptorTitle>
UCSF-P4508-REFINED_LIGAND-BOUND-STATE_AALTB__DU__LA1_A-201(A)

> <OMEGA_C>
13tDwn4m5cF3bLRAk6wxwk7c7MFxTLFA0bU7wjhb6cE/uJFAGntBwpDi5sE18YtA6ag6wlnf6MEV
mr1ApGU3wpm/68ESvGxAQ+VEwnkk5sE8HkpAzu4owpA2+MFIBGQ/7jU7wtsZ6MEwUru/9b4qwjeT
7MHoUdc+jCYvwvnO+sFMp4g/Kn81wvBn48HE1Ye/b+s5woyt8cHQx+2+WUY0wq5T6MFAm7M/7D8w
wtK578GIKjE/ORU1wurO68EApV29YLM1wimz6sFxCM1Aum8ywhhN7cH8doZA9WI/widN5sH/DtJA
VVhKwsuM5MFe81JA6DI4wrV87MGKUhZAfxBDwv/B5sEosQFAYpZHwnw048F16btAWbYtwllI7sEp
2b1A3eImwgr7/MHT9PY9CpcmwgNm+MH5Juk/z6I+wlAW48E4Ppa/Spw7wjRw6sHSOiHAHUEpwhMD
5sHkkoY/WOcpwh/H6sHeriK/YbkwwkJoAMIDoLs+N1gwwnTr/ME58gVAr3gywiTd48Ewz+2/xJk1
wrg828HVJye/k+M8wlTM8sFHnKs+xSI5wrRk+cECsHS/ffIywkoE4MEBE8Y/Usw/wgdm5cHmrvFA
HqlMwgnw48HK/h5AvPdLwu4C5MEDpYZAQJ04wrVF9MGXLAlA

> <OMEGA_E>
oK7tPg==

> <OMEGA_NBR>
     19088

$$$$
CACHE3-HO_1706_9
  -OEChem-03092622503D

 34 36  0     0  0  0  0  0  0999 V2000
  -48.8288  -28.6103    5.6183 C   0  0  0  0  0  0  0  0  0  0  0  0
  -44.4071  -29.6520    5.5046 C   0  0  0  0  0  0  0  0  0  0  0  0
  -46.9024  -29.1668    4.5113 C   0  0  0  0  0  0  0  0  0  0  0  0
  -48.3419  -28.8470    4.3508 C   0  0  0  0  0  0  0  0  0  0  0  0
  -46.6297  -29.0952    5.8856 C   0  0  0  0  0  0  0  0  0  0  0  0
  -45.8423  -29.5143    3.6423 C   0  0  0  0  0  0  0  0  0  0  0  0
  -49.2027  -28.7665    3.1459 C   0  0  0  0  0  0  0  0  0  0  0  0
  -43.9779  -28.7829    1.2191 C   0  0  0  0  0  0  0  0  0  0  0  0
  -44.3848  -31.3759    1.5208 C   0  0  0  0  0  0  0  0  0  0  0  0
  -42.6354  -29.1917    0.6061 C   0  0  0  0  0  0  0  0  0  0  0  0
  -42.9981  -31.5383    0.8874 C   0  0  0  0  0  0  0  0  0  0  0  0
  -45.0014  -29.9627    1.2581 C   0  0  0  0  0  0  0  0  0  0  0  0
  -45.3983  -29.3454    6.3690 N   0  0  0  0  0  0  0  0  0  0  0  0
  -44.6075  -29.7284    4.1688 N   0  0  0  0  0  0  0  0  0  0  0  0
  -47.7988  -28.7535    6.5346 N   0  0  0  0  0  0  0  0  0  0  0  0
  -50.5642  -28.5738    3.2934 N   0  0  0  0  0  0  0  0  0  0  0  0
  -46.0609  -29.6707    2.2650 N   0  0  0  0  0  0  0  0  0  0  0  0
  -48.7503  -28.8519    2.0130 O   0  0  0  0  0  0  0  0  0  0  0  0
  -42.1752  -30.4069    1.2222 O   0  0  0  0  0  0  0  0  0  0  0  0
  -49.8500  -28.3542    5.8590 H   0  0  0  0  0  0  0  0  0  0  0  0
  -43.4181  -29.8433    5.8939 H   0  0  0  0  0  0  0  0  0  0  0  0
  -43.8041  -28.4325    2.2472 H   0  0  0  0  0  0  0  0  0  0  0  0
  -44.4048  -27.9651    0.6201 H   0  0  0  0  0  0  0  0  0  0  0  0
  -45.0567  -32.1380    1.0991 H   0  0  0  0  0  0  0  0  0  0  0  0
  -44.2963  -31.5259    2.6070 H   0  0  0  0  0  0  0  0  0  0  0  0
  -42.7603  -29.3535   -0.4747 H   0  0  0  0  0  0  0  0  0  0  0  0
  -41.8976  -28.3935    0.7745 H   0  0  0  0  0  0  0  0  0  0  0  0
  -42.5280  -32.4572    1.2677 H   0  0  0  0  0  0  0  0  0  0  0  0
  -43.1011  -31.6045   -0.2057 H   0  0  0  0  0  0  0  0  0  0  0  0
  -45.4811  -30.0025    0.2690 H   0  0  0  0  0  0  0  0  0  0  0  0
  -47.8896  -28.6275    7.5225 H   0  0  0  0  0  0  0  0  0  0  0  0
  -51.1503  -28.5081    2.4858 H   0  0  0  0  0  0  0  0  0  0  0  0
  -50.9627  -28.5002    4.2076 H   0  0  0  0  0  0  0  0  0  0  0  0
  -46.7197  -30.4186    2.1831 H   0  0  0  0  0  0  0  0  0  0  0  0
  1  4  2  0  0  0  0
  1 15  1  0  0  0  0
  2 13  1  0  0  0  0
  2 14  2  0  0  0  0
  3  4  1  0  0  0  0
  3  5  1  0  0  0  0
  3  6  2  0  0  0  0
  4  7  1  0  0  0  0
  5 13  2  0  0  0  0
  5 15  1  0  0  0  0
  6 14  1  0  0  0  0
  6 17  1  0  0  0  0
  7 16  1  0  0  0  0
  7 18  2  0  0  0  0
  8 10  1  0  0  0  0
  8 12  1  0  0  0  0
  9 11  1  0  0  0  0
  9 12  1  0  0  0  0
 10 19  1  0  0  0  0
 11 19  1  0  0  0  0
 12 17  1  0  0  0  0
  1 20  1  0  0  0  0
  2 21  1  0  0  0  0
  8 22  1  0  0  0  0
  8 23  1  0  0  0  0
  9 24  1  0  0  0  0
  9 25  1  0  0  0  0
 10 26  1  0  0  0  0
 10 27  1  0  0  0  0
 11 28  1  0  0  0  0
 11 29  1  0  0  0  0
 12 30  1  0  0  0  0
 15 31  1  0  0  0  0
 16 32  1  0  0  0  0
 16 33  1  0  0  0  0
 17 34  1  0  0  0  0
M  END
> <POSIT::Probability>
0.93

> <POSIT::Method>
SHAPEFIT

> <ReceptorTitle>
UCSF-P4508-REFINED_LIGAND-BOUND-STATE_AALTB__DU__LA1_A-201(A)

> <OMEGA_C>
qlBDwu7h5MHkyLNA6qAxwlY37cFvJbBAFpw7wqFV6cGCXJBADl5BwpTG5sEGOotAyIQ6wvLC6MHx
VrxAgV43wjQd7MHKGmlAic9Ewr0h5sHWVUlAUukvwntD5sFRDJw/EYoxwvIB+8H1qsI/pYoqwqyI
6cHGKhs/Av4rwnRO/MFiLmM/eAE0woKz78E5CaE/3Jc1wnLD6sEsz8tAGG4ywrXT7cEAZ4VA9DE/
whkH5sF8G9FAyEFKwiuX5MFUxlJAYT44wpxd7cEa9hBAQwBDwqLQ5sEm1QBAcbMowl1B88H3b5w/
X2ZHwmjV4sEofbtAIKwtwhS/7sHmmrxAbjcvwrN148GD0g9Afp4xwnC438EswR4/GDo0wkWNAMJF
row/cC8xwvk0/MG92CZAlQorwvXT6sHZDvO+GZcnwtEl48FsR0Y/pxwqwjbUAcJ0Q6I/j2cswvbV
/MGeq1K+pew1wggF8MEvuIk+6Y4/wgUF5cEWuPBA55lMwocQ5MGjFh9Ax9lLwoMA5MGkpIZA7uA6
wk1Z88H8twtA

> <OMEGA_E>
4BluPg==

> <OMEGA_NBR>
     20295

$$$$
CACHE3HI_1691_64
  -OEChem-03092622503D

 43 45  0     0  0  0  0  0  0999 V2000
  -44.1713  -32.8366    2.0269 C   0  0  0  0  0  0  0  0  0  0  0  0
  -43.2438  -31.8344    2.3119 C   0  0  0  0  0  0  0  0  0  0  0  0
  -49.2869  -28.7940    4.0978 C   0  0  0  0  0  0  0  0  0  0  0  0
  -45.1317  -32.6357    1.0357 C   0  0  0  0  0  0  0  0  0  0  0  0
  -48.6007  -28.9330    2.8966 C   0  0  0  0  0  0  0  0  0  0  0  0
  -44.2371  -30.4310    0.6144 C   0  0  0  0  0  0  0  0  0  0  0  0
  -49.6335  -31.1471    4.1121 C   0  0  0  0  0  0  0  0  0  0  0  0
  -43.2766  -30.6318    1.6057 C   0  0  0  0  0  0  0  0  0  0  0  0
  -49.8164  -29.9169    4.7238 C   0  0  0  0  0  0  0  0  0  0  0  0
  -45.1645  -31.4332    0.3294 C   0  0  0  0  0  0  0  0  0  0  0  0
  -48.4720  -30.2067    2.3666 C   0  0  0  0  0  0  0  0  0  0  0  0
  -42.3083  -29.5877    1.9021 C   0  0  0  0  0  0  0  0  0  0  0  0
  -47.1855  -29.3267    0.3897 C   0  0  0  0  0  0  0  0  0  0  0  0
  -52.3978  -30.0708    7.2263 C   0  0  0  0  0  0  0  0  0  0  0  0
  -51.9909  -29.0913    6.1091 C   0  0  0  0  0  0  0  0  0  0  0  0
  -51.3509  -31.0424    6.6488 C   0  0  0  0  0  0  0  0  0  0  0  0
  -50.5998  -29.7942    6.0950 C   0  0  0  0  0  0  0  0  0  0  0  0
  -46.5368  -29.8958   -0.8581 C   0  0  0  0  0  0  0  0  0  0  0  0
  -48.9726  -31.3209    2.9456 N   0  0  0  0  0  0  0  0  0  0  0  0
  -42.3845  -28.4074    1.1688 N   0  0  0  0  0  0  0  0  0  0  0  0
  -47.7730  -30.3379    1.1423 N   0  0  0  0  0  0  0  0  0  0  0  0
  -41.4509  -29.7322    2.7910 O   0  0  0  0  0  0  0  0  0  0  0  0
  -47.1575  -28.1258    0.6378 O   0  0  0  0  0  0  0  0  0  0  0  0
  -46.1015  -31.2369   -0.6379 O   0  0  0  0  0  0  0  0  0  0  0  0
  -44.1452  -33.7728    2.5767 H   0  0  0  0  0  0  0  0  0  0  0  0
  -42.4991  -32.0014    3.0860 H   0  0  0  0  0  0  0  0  0  0  0  0
  -49.4042  -27.8087    4.5401 H   0  0  0  0  0  0  0  0  0  0  0  0
  -45.8519  -33.4196    0.8177 H   0  0  0  0  0  0  0  0  0  0  0  0
  -48.1843  -28.0617    2.4014 H   0  0  0  0  0  0  0  0  0  0  0  0
  -44.2669  -29.4955    0.0606 H   0  0  0  0  0  0  0  0  0  0  0  0
  -50.0232  -32.0582    4.5553 H   0  0  0  0  0  0  0  0  0  0  0  0
  -52.1616  -29.7140    8.2353 H   0  0  0  0  0  0  0  0  0  0  0  0
  -53.4338  -30.4173    7.2028 H   0  0  0  0  0  0  0  0  0  0  0  0
  -52.5727  -29.2074    5.1863 H   0  0  0  0  0  0  0  0  0  0  0  0
  -51.9816  -28.0342    6.3899 H   0  0  0  0  0  0  0  0  0  0  0  0
  -50.8008  -31.6344    7.3859 H   0  0  0  0  0  0  0  0  0  0  0  0
  -51.7499  -31.7157    5.8801 H   0  0  0  0  0  0  0  0  0  0  0  0
  -49.9267  -29.3634    6.8548 H   0  0  0  0  0  0  0  0  0  0  0  0
  -45.6777  -29.2827   -1.1480 H   0  0  0  0  0  0  0  0  0  0  0  0
  -47.2658  -29.8985   -1.6747 H   0  0  0  0  0  0  0  0  0  0  0  0
  -43.0917  -28.2485    0.4595 H   0  0  0  0  0  0  0  0  0  0  0  0
  -41.7483  -27.6359    1.3402 H   0  0  0  0  0  0  0  0  0  0  0  0
  -47.6986  -31.2872    0.7834 H   0  0  0  0  0  0  0  0  0  0  0  0
  1  2  1  0  0  0  0
  1  4  2  0  0  0  0
  2  8  2  0  0  0  0
  3  5  2  0  0  0  0
  3  9  1  0  0  0  0
  4 10  1  0  0  0  0
  5 11  1  0  0  0  0
  6  8  1  0  0  0  0
  6 10  2  0  0  0  0
  7  9  2  0  0  0  0
  7 19  1  0  0  0  0
  8 12  1  0  0  0  0
  9 17  1  0  0  0  0
 10 24  1  0  0  0  0
 11 19  2  0  0  0  0
 11 21  1  0  0  0  0
 12 20  1  0  0  0  0
 12 22  2  0  0  0  0
 13 18  1  0  0  0  0
 13 21  1  0  0  0  0
 13 23  2  0  0  0  0
 14 15  1  0  0  0  0
 14 16  1  0  0  0  0
 15 17  1  0  0  0  0
 16 17  1  0  0  0  0
 18 24  1  0  0  0  0
  1 25  1  0  0  0  0
  2 26  1  0  0  0  0
  3 27  1  0  0  0  0
  4 28  1  0  0  0  0
  5 29  1  0  0  0  0
  6 30  1  0  0  0  0
  7 31  1  0  0  0  0
 14 32  1  0  0  0  0
 14 33  1  0  0  0  0
 15 34  1  0  0  0  0
 15 35  1  0  0  0  0
 16 36  1  0  0  0  0
 16 37  1  0  0  0  0
 17 38  1  0  0  0  0
 18 39  1  0  0  0  0
 18 40  1  0  0  0  0
 20 41  1  0  0  0  0
 20 42  1  0  0  0  0
 21 43  1  0  0  0  0
M  END
> <POSIT::Probability>
0.05

> <POSIT::Method>
FRED

> <ReceptorTitle>
UCSF-P4508-REFINED_LIGAND-BOUND-STATE_AALTB__DU__LA1_A-201(A)

> <OMEGA_C>
Xq8wwqZYA8KEuQFAq/kswtms/sHm9hNAyCVFwg9a5sHUIINA3IY0wgCLAsJgkIQ/E2dCwrp258Et
YTlAwvIwwr1y88EQSB0/vYhGwjIt+cGAloNANxstwv8N9cHch80/9kNHwsFV78HFKZdAZ6g0wih3
+8GIqag+W+NBwkWn8cG2dRdAtzspwoOz7MF2efM/+L08whad6sE4jcc+UJdRwvqQ8MGVPedArvZP
wuS66MF2fcNATWdNwshW+MEmw9RALGZKwoxa7sFVCsNAuyU6wqQq78HAqlu/9uNDwkGR+sFZhDxA
vokpwnFC48FInJU/ixc/why08sFwNpI/us0lwoPb7cHwnzJAQKE8wrcB4cHQRiM/+2c4wjXl+cGc
TyO/upQwwk0XB8K76CRAD/8pwm0BAMKAgUVA6J1Fwjp43sFbSJFAVGg3wrGtBcKcU1E/vLxAwkh+
4MFYsRlASRExwrz268HARXg9vRdIwpo7AMK3xJFAcaVQwkO27cG9wwNBLbxVwolW88FEfeZAckpS
wtao6cEW9qVAJe1PwiBG4MEgesxADjRLwjgT/cECWexA5v9Owru5/cHeKbxA57RHwj3o6sFpWttA
/LU2wvZC6sFc8pK/IhA9wiow78HuXNa/4V0swgD94cFwRus+Tv4mwlkW3cEyiqs/Xss+wilM+sHA
jUg/

> <OMEGA_E>
hcvSwA==

> <OMEGA_NBR>
     21652

$$$$
CACHE3HI_1696_40
  -OEChem-03092622503D

 38 41  0     1  0  0  0  0  0999 V2000
  -48.7907  -28.5580    5.5520 C   0  0  0  0  0  0  0  0  0  0  0  0
  -44.4079  -29.7156    5.6219 C   0  0  0  0  0  0  0  0  0  0  0  0
  -46.8351  -29.1546    4.4967 C   0  0  0  0  0  0  0  0  0  0  0  0
  -48.2734  -28.8255    4.3019 C   0  0  0  0  0  0  0  0  0  0  0  0
  -46.6275  -29.1190    5.8888 C   0  0  0  0  0  0  0  0  0  0  0  0
  -45.7053  -29.4481    3.6767 C   0  0  0  0  0  0  0  0  0  0  0  0
  -49.1268  -28.7932    3.0979 C   0  0  0  0  0  0  0  0  0  0  0  0
  -43.3321  -30.9885   -0.2717 C   0  0  0  0  0  0  0  0  0  0  0  0
  -43.5975  -29.4749   -0.3438 C   0  0  0  0  0  0  0  0  0  0  0  0
  -44.9273  -31.7231    1.6497 C   0  0  0  0  0  0  0  0  0  0  0  0
  -45.9960  -30.6021    1.4853 C   0  0  0  0  0  0  0  0  0  0  0  0
  -44.8020  -28.3432    1.6357 C   0  0  0  0  0  0  0  0  0  0  0  0
  -43.4569  -31.4372    1.1823 C   0  0  2  0  0  0  0  0  0  0  0  0
  -43.4355  -28.8589    1.0666 C   0  0  1  0  0  0  0  0  0  0  0  0
  -45.4323  -29.4005    6.4327 N   0  0  0  0  0  0  0  0  0  0  0  0
  -44.5273  -29.7205    4.2806 N   0  0  0  0  0  0  0  0  0  0  0  0
  -47.7997  -28.7301    6.4979 N   0  0  0  0  0  0  0  0  0  0  0  0
  -45.6876  -29.3759    2.2708 N   0  0  2  0  0  0  0  0  0  0  0  0
  -50.4790  -28.5148    3.2276 N   0  0  0  0  0  0  0  0  0  0  0  0
  -48.6771  -29.0348    1.9874 O   0  0  0  0  0  0  0  0  0  0  0  0
  -42.6151  -30.1246    2.1243 S   0  0  0  0  0  0  0  0  0  0  0  0
  -49.8084  -28.2613    5.7581 H   0  0  0  0  0  0  0  0  0  0  0  0
  -43.4558  -29.9740    6.0613 H   0  0  0  0  0  0  0  0  0  0  0  0
  -44.0688  -31.5235   -0.8890 H   0  0  0  0  0  0  0  0  0  0  0  0
  -42.3186  -31.2048   -0.6404 H   0  0  0  0  0  0  0  0  0  0  0  0
  -42.8785  -29.0083   -1.0332 H   0  0  0  0  0  0  0  0  0  0  0  0
  -44.6209  -29.2983   -0.7064 H   0  0  0  0  0  0  0  0  0  0  0  0
  -44.8837  -31.9744    2.7197 H   0  0  0  0  0  0  0  0  0  0  0  0
  -45.2834  -32.5956    1.0823 H   0  0  0  0  0  0  0  0  0  0  0  0
  -46.0554  -30.3294    0.4213 H   0  0  0  0  0  0  0  0  0  0  0  0
  -46.9682  -30.9948    1.8180 H   0  0  0  0  0  0  0  0  0  0  0  0
  -44.5822  -27.5774    2.3941 H   0  0  0  0  0  0  0  0  0  0  0  0
  -45.3607  -27.8870    0.8052 H   0  0  0  0  0  0  0  0  0  0  0  0
  -42.8580  -32.3478    1.3314 H   0  0  0  0  0  0  0  0  0  0  0  0
  -42.7342  -28.0134    1.0100 H   0  0  0  0  0  0  0  0  0  0  0  0
  -47.9162  -28.5924    7.4815 H   0  0  0  0  0  0  0  0  0  0  0  0
  -51.0690  -28.5139    2.4202 H   0  0  0  0  0  0  0  0  0  0  0  0
  -50.8642  -28.3149    4.1286 H   0  0  0  0  0  0  0  0  0  0  0  0
  1  4  2  0  0  0  0
  1 17  1  0  0  0  0
  2 15  1  0  0  0  0
  2 16  2  0  0  0  0
  3  4  1  0  0  0  0
  3  5  1  0  0  0  0
  3  6  2  0  0  0  0
  4  7  1  0  0  0  0
  5 15  2  0  0  0  0
  5 17  1  0  0  0  0
  6 16  1  0  0  0  0
  6 18  1  0  0  0  0
  7 19  1  0  0  0  0
  7 20  2  0  0  0  0
  8  9  1  0  0  0  0
  8 13  1  0  0  0  0
  9 14  1  0  0  0  0
 10 11  1  0  0  0  0
 10 13  1  0  0  0  0
 11 18  1  0  0  0  0
 12 14  1  0  0  0  0
 12 18  1  0  0  0  0
 13 21  1  0  0  0  0
 14 21  1  0  0  0  0
  1 22  1  0  0  0  0
  2 23  1  0  0  0  0
  8 24  1  0  0  0  0
  8 25  1  0  0  0  0
  9 26  1  0  0  0  0
  9 27  1  0  0  0  0
 10 28  1  0  0  0  0
 10 29  1  0  0  0  0
 11 30  1  0  0  0  0
 11 31  1  0  0  0  0
 12 32  1  0  0  0  0
 12 33  1  0  0  0  0
 13 34  1  0  0  0  0
 14 35  1  0  0  0  0
 17 36  1  0  0  0  0
 19 37  1  0  0  0  0
 19 38  1  0  0  0  0
M  END
> <POSIT::Probability>
0.83

> <POSIT::Method>
SHAPEFIT

> <ReceptorTitle>
UCSF-P4508-REFINED_LIGAND-BOUND-STATE_AALTB__DU__LA1_A-201(A)

> <OMEGA_C>
pylDwsZ25MGmqbFAraExwp657cFO5rNALFc7wpk86cGq5I9AABhBwo6a5sFeqYlAjII6wq/z6MHs
cLxAONI2wqOV68FAT2tA4YFEwmxY5sHAREZAFFQtwnTo98HgHou+32MuwpTM68GQA7C+hrUzwtjI
/cHYKNM/6Ps3wgHR9MGsHb4/TDUzwvO+4sEgX9E/2tMtwnh/+8E8Vpc//L0twhff5sGIh4g/pro1
wkk068GW2M1A8xsywoPD7cHw+ohA5jI/wi3X5cGU7s9AHcA2wu0B68GQVRFAhOpJwkUe5MF8kU5A
WrVCwjJH6MHMYv4/4nUqwjT/8MEo9QdA2TtHwh0X4sG3QrhAsdItwrPK78El9sFAcEYwwjYw/MGX
lWO/NkYpwmqj+cGP8yO/n4MrwvEQ6MErQIS/y3sywtFi6sFm2TS/8ogzwoXL/8GuDy5APCI1wtth
AsJziYo/vzg4wq2i8sHlrtc+Y987wkP198GQtOg/KFQywpCe3MFiORlAYnE1wqMY38GsIU4/l24r
wiRkAcKSa6o/yu8qwnsb4MEVSYE/Lqo/wji95MFDaO9Aq0ZMwnwc5MHk5BpA73RLwt+E4sExHYRA

> <OMEGA_E>
6O3EPg==

> <OMEGA_NBR>
     22945

$$$$
CACHE3HI_1706_56
  -OEChem-03092622503D

 34 36  0     1  0  0  0  0  0999 V2000
  -48.8234  -28.6340    5.6107 C   0  0  0  0  0  0  0  0  0  0  0  0
  -44.3820  -29.6212    5.5051 C   0  0  0  0  0  0  0  0  0  0  0  0
  -46.8767  -29.1376    4.5150 C   0  0  0  0  0  0  0  0  0  0  0  0
  -48.3244  -28.8484    4.3438 C   0  0  0  0  0  0  0  0  0  0  0  0
  -46.6145  -29.0836    5.8898 C   0  0  0  0  0  0  0  0  0  0  0  0
  -45.8096  -29.4643    3.6484 C   0  0  0  0  0  0  0  0  0  0  0  0
  -43.0767  -31.5357    1.3992 C   0  0  0  0  0  0  0  0  0  0  0  0
  -44.4222  -31.3357    1.6109 C   0  0  0  0  0  0  0  0  0  0  0  0
  -49.1871  -28.7844    3.1330 C   0  0  0  0  0  0  0  0  0  0  0  0
  -42.1790  -30.4217    0.9054 C   0  0  0  0  0  0  0  0  0  0  0  0
  -42.7198  -29.0498    1.3412 C   0  0  0  0  0  0  0  0  0  0  0  0
  -44.1556  -28.8615    0.8309 C   0  0  0  0  0  0  0  0  0  0  0  0
  -45.1053  -30.0238    1.2356 C   0  0  2  0  0  0  0  0  0  0  0  0
  -45.3801  -29.3284    6.3727 N   0  0  0  0  0  0  0  0  0  0  0  0
  -44.5768  -29.6916    4.1646 N   0  0  0  0  0  0  0  0  0  0  0  0
  -47.7958  -28.7678    6.5335 N   0  0  0  0  0  0  0  0  0  0  0  0
  -50.5502  -28.6052    3.2753 N   0  0  0  0  0  0  0  0  0  0  0  0
  -46.0543  -29.5899    2.2842 N   0  0  0  0  0  0  0  0  0  0  0  0
  -48.7415  -28.8793    1.9985 O   0  0  0  0  0  0  0  0  0  0  0  0
  -45.4790  -32.7718    2.3050 Br  0  0  0  0  0  0  0  0  0  0  0  0
  -49.8507  -28.3993    5.8473 H   0  0  0  0  0  0  0  0  0  0  0  0
  -43.3923  -29.8058    5.8959 H   0  0  0  0  0  0  0  0  0  0  0  0
  -42.6519  -32.5102    1.5899 H   0  0  0  0  0  0  0  0  0  0  0  0
  -41.1702  -30.5603    1.3216 H   0  0  0  0  0  0  0  0  0  0  0  0
  -42.1306  -30.4577   -0.1930 H   0  0  0  0  0  0  0  0  0  0  0  0
  -42.7133  -28.9885    2.4395 H   0  0  0  0  0  0  0  0  0  0  0  0
  -42.0794  -28.2577    0.9260 H   0  0  0  0  0  0  0  0  0  0  0  0
  -44.5540  -27.9237    1.2453 H   0  0  0  0  0  0  0  0  0  0  0  0
  -44.1309  -28.7959   -0.2669 H   0  0  0  0  0  0  0  0  0  0  0  0
  -45.7069  -30.2412    0.3407 H   0  0  0  0  0  0  0  0  0  0  0  0
  -47.8957  -28.6524    7.5218 H   0  0  0  0  0  0  0  0  0  0  0  0
  -51.1353  -28.5572    2.4658 H   0  0  0  0  0  0  0  0  0  0  0  0
  -50.9512  -28.5234    4.1877 H   0  0  0  0  0  0  0  0  0  0  0  0
  -46.8177  -30.2326    2.2198 H   0  0  0  0  0  0  0  0  0  0  0  0
  1  4  2  0  0  0  0
  1 16  1  0  0  0  0
  2 14  1  0  0  0  0
  2 15  2  0  0  0  0
  3  4  1  0  0  0  0
  3  5  1  0  0  0  0
  3  6  2  0  0  0  0
  4  9  1  0  0  0  0
  5 14  2  0  0  0  0
  5 16  1  0  0  0  0
  6 15  1  0  0  0  0
  6 18  1  0  0  0  0
  7  8  2  0  0  0  0
  7 10  1  0  0  0  0
  8 13  1  0  0  0  0
  8 20  1  0  0  0  0
  9 17  1  0  0  0  0
  9 19  2  0  0  0  0
 10 11  1  0  0  0  0
 11 12  1  0  0  0  0
 12 13  1  0  0  0  0
 13 18  1  0  0  0  0
  1 21  1  0  0  0  0
  2 22  1  0  0  0  0
  7 23  1  0  0  0  0
 10 24  1  0  0  0  0
 10 25  1  0  0  0  0
 11 26  1  0  0  0  0
 11 27  1  0  0  0  0
 12 28  1  0  0  0  0
 12 29  1  0  0  0  0
 13 30  1  0  0  0  0
 16 31  1  0  0  0  0
 17 32  1  0  0  0  0
 17 33  1  0  0  0  0
 18 34  1  0  0  0  0
M  END
> <POSIT::Probability>
0.99

> <POSIT::Method>
SHAPEFIT

> <ReceptorTitle>
UCSF-P4508-REFINED_LIGAND-BOUND-STATE_AALTB__DU__LA1_A-201(A)

> <OMEGA_C>
NUtDwnwS5cF4irNAJ4cxwjL47MG1KbBAuIE7wsYZ6cHhepBAKkxBwo7J5sGzAItANXU6wlCr6MFB
ebxACD03wtO268GSfmlAkk4swi1J/MHIGbM/S7AxwpKv+sF+M84/n79EwnFG5sGLg0hAQbcowpNf
88HQx2c/GuEqwvxl6MGsras/Sp8wwkPk5sHoslQ/3ms0ws8w8MHIJp4/LYU1woGg6sH67MtAr04y
wnSI7cGYRIVA7y4/wokk5sGVEtFAXzNKwl7X5MH1nVFAoTc4wgm47MG4MBJARfdCwscI58H0zv8/
huo1wl4WA8KyhBNAIWdHwrUx48E8HbtArZEtwk5y7sGOq7xAi5sqwm0KAsIngss/Tq4kwnN79MEy
Kqk/tYUowm2p88HtlEW+aNoqwnDo58HpIBxASVEowtAP4sFiDG0/TDcywqNj38HlZZ8//4UwwgZe
5sHEqIi+6tM2wuHt8cFUa64+PpU/wh445cGMsvBAlopMwj515MEzzx1AB85Lwucv5MFsAYZATUU7
wmjc8cHCEA5A

> <OMEGA_E>
QGn7PA==

> <OMEGA_NBR>
     24156

$$$$
CACHE3HI_1706_80
  -OEChem-03092622503D

 38 40  0     1  0  0  0  0  0999 V2000
  -47.2600  -33.5584    0.3819 C   0  0  0  0  0  0  0  0  0  0  0  0
  -47.0810  -33.1863    1.7234 C   0  0  0  0  0  0  0  0  0  0  0  0
  -46.4742  -32.9917   -0.6245 C   0  0  0  0  0  0  0  0  0  0  0  0
  -46.1159  -32.2416    2.0783 C   0  0  0  0  0  0  0  0  0  0  0  0
  -44.8265  -29.5145    5.5910 C   0  0  0  0  0  0  0  0  0  0  0  0
  -45.5109  -32.0649   -0.2626 C   0  0  0  0  0  0  0  0  0  0  0  0
  -45.3364  -31.6881    1.0750 C   0  0  0  0  0  0  0  0  0  0  0  0
  -47.0465  -28.7168    4.3081 C   0  0  0  0  0  0  0  0  0  0  0  0
  -46.9224  -28.6382    5.6801 C   0  0  0  0  0  0  0  0  0  0  0  0
  -45.9560  -29.2320    3.6380 C   0  0  0  0  0  0  0  0  0  0  0  0
  -44.5853  -31.3057   -1.1585 C   0  0  0  0  0  0  0  0  0  0  0  0
  -43.5406  -30.8003   -0.1502 C   0  0  0  0  0  0  0  0  0  0  0  0
  -44.2596  -30.6483    1.2078 C   0  0  1  0  0  0  0  0  0  0  0  0
  -43.8113  -28.3147    2.0483 C   0  0  0  0  0  0  0  0  0  0  0  0
  -44.8354  -29.2516    1.4091 C   0  0  2  0  0  0  0  0  0  0  0  0
  -45.8226  -29.0295    6.3567 N   0  0  0  0  0  0  0  0  0  0  0  0
  -44.8252  -29.6419    4.2499 N   0  0  0  0  0  0  0  0  0  0  0  0
  -48.0006  -28.1210    6.4398 N   0  0  0  0  0  0  0  0  0  0  0  0
  -46.0050  -29.3432    2.2617 N   0  0  0  0  0  0  0  0  0  0  0  0
  -43.1016  -28.9918    3.0794 O   0  0  0  0  0  0  0  0  0  0  0  0
  -48.4726  -28.2041    3.4839 Cl  0  0  0  0  0  0  0  0  0  0  0  0
  -48.0129  -34.2990    0.1257 H   0  0  0  0  0  0  0  0  0  0  0  0
  -47.6956  -33.6451    2.4934 H   0  0  0  0  0  0  0  0  0  0  0  0
  -46.6189  -33.2758   -1.6614 H   0  0  0  0  0  0  0  0  0  0  0  0
  -45.9842  -31.9597    3.1166 H   0  0  0  0  0  0  0  0  0  0  0  0
  -43.9293  -29.8329    6.1074 H   0  0  0  0  0  0  0  0  0  0  0  0
  -44.1325  -31.9798   -1.8937 H   0  0  0  0  0  0  0  0  0  0  0  0
  -45.0806  -30.4736   -1.6680 H   0  0  0  0  0  0  0  0  0  0  0  0
  -42.6745  -31.4714   -0.0869 H   0  0  0  0  0  0  0  0  0  0  0  0
  -43.1612  -29.8240   -0.4912 H   0  0  0  0  0  0  0  0  0  0  0  0
  -43.6080  -30.9127    2.0269 H   0  0  0  0  0  0  0  0  0  0  0  0
  -44.3091  -27.4545    2.5069 H   0  0  0  0  0  0  0  0  0  0  0  0
  -43.0854  -27.9395    1.3187 H   0  0  0  0  0  0  0  0  0  0  0  0
  -45.1524  -28.8398    0.4439 H   0  0  0  0  0  0  0  0  0  0  0  0
  -48.8042  -27.7764    5.9613 H   0  0  0  0  0  0  0  0  0  0  0  0
  -47.8885  -28.0160    7.4246 H   0  0  0  0  0  0  0  0  0  0  0  0
  -46.9006  -29.4962    1.8184 H   0  0  0  0  0  0  0  0  0  0  0  0
  -42.4698  -28.3539    3.4472 H   0  0  0  0  0  0  0  0  0  0  0  0
  1  2  1  0  0  0  0
  1  3  2  0  0  0  0
  2  4  2  0  0  0  0
  3  6  1  0  0  0  0
  4  7  1  0  0  0  0
  5 16  2  0  0  0  0
  5 17  1  0  0  0  0
  6  7  2  0  0  0  0
  6 11  1  0  0  0  0
  7 13  1  0  0  0  0
  8  9  2  0  0  0  0
  8 10  1  0  0  0  0
  8 21  1  0  0  0  0
  9 16  1  0  0  0  0
  9 18  1  0  0  0  0
 10 17  2  0  0  0  0
 10 19  1  0  0  0  0
 11 12  1  0  0  0  0
 12 13  1  0  0  0  0
 13 15  1  0  0  0  0
 14 15  1  0  0  0  0
 14 20  1  0  0  0  0
 15 19  1  0  0  0  0
  1 22  1  0  0  0  0
  2 23  1  0  0  0  0
  3 24  1  0  0  0  0
  4 25  1  0  0  0  0
  5 26  1  0  0  0  0
 11 27  1  0  0  0  0
 11 28  1  0  0  0  0
 12 29  1  0  0  0  0
 12 30  1  0  0  0  0
 13 31  1  0  0  0  0
 14 32  1  0  0  0  0
 14 33  1  0  0  0  0
 15 34  1  0  0  0  0
 18 35  1  0  0  0  0
 18 36  1  0  0  0  0
 19 37  1  0  0  0  0
 20 38  1  0  0  0  0
M  END
> <POSIT::Probability>
0.33

> <POSIT::Method>
HYBRID

> <ReceptorTitle>
UCSF-P4508_LA2_MERGED(A)

> <OMEGA_C>
Pgo9wtI7BsJAg8M+5VI8wtC+BMLEl9w/kOU5woP3A8Ko4B+/qnY4wmv3AMLiAgVAVE4zwrkd7MEx
6bJAKQs2wmtCAMLgb4a+hFg1wjiB/cEYmok/nC88whO85cH+24lAkrA7whwb5cF4w7VA5tI3wjPb
6cGt1WhAXlcywhxy+sHISJS/mykuwhxn9sEgzhm+2QkxwrIv9cHEmZo/yD4vwoGE4sHMFgNAd1cz
wloD6sHcXrQ/WUo3woI86MFPastADU0zwooi7cGD/4dApgBAwtr34MGeEs5AFAU4wu6+6sFOvxBA
Dmgswjnv58EKFUVA8+NBwveh4cHq915ALQ1Awi8yCcLgsgA+S8g+wpCUBsJ/lB9AuHk6wmwaBcIw
qtS/2O83wm6t/8HydkdAl7cvwrip7sE2cMNAp4cwwo7W/8FcZPK/g1I0wujJ88Ggf9W/r7IqwlbF
+8GADrK9BqUswpaX7sGgf/u+kW4uwkNN98F8uAFAhTwxwuOi28E0cSBAdVcswhuE38HCyqg/FZw0
wu635sEgQuM+ezdDwvg13sHzwr5A2Y0/wtcg4MEdlu1AOpo7wiv468Gwweg/GOEpwtTU4sE3nlxA

> <OMEGA_E>
xg3ewA==

> <OMEGA_NBR>
     25351

$$$$
CACHE3HI_1708_35
  -OEChem-03092622503D

 55 58  0     1  0  0  0  0  0999 V2000
  -53.7109  -30.5262    6.6763 C   0  0  0  0  0  0  0  0  0  0  0  0
  -45.3670  -29.5991   -0.9551 C   0  0  0  0  0  0  0  0  0  0  0  0
  -45.1250  -30.9616   -1.1086 C   0  0  0  0  0  0  0  0  0  0  0  0
  -52.5480  -30.0693    7.2963 C   0  0  0  0  0  0  0  0  0  0  0  0
  -53.9386  -30.2459    5.3290 C   0  0  0  0  0  0  0  0  0  0  0  0
  -44.6449  -28.8633   -0.0159 C   0  0  0  0  0  0  0  0  0  0  0  0
  -44.1596  -31.5919   -0.3242 C   0  0  0  0  0  0  0  0  0  0  0  0
  -47.3965  -29.0295    5.2968 C   0  0  0  0  0  0  0  0  0  0  0  0
  -48.0136  -30.1866    3.2675 C   0  0  0  0  0  0  0  0  0  0  0  0
  -51.6127  -29.3326    6.5693 C   0  0  0  0  0  0  0  0  0  0  0  0
  -48.6873  -28.5092    5.3919 C   0  0  0  0  0  0  0  0  0  0  0  0
  -49.3043  -29.6663    3.3626 C   0  0  0  0  0  0  0  0  0  0  0  0
  -53.0033  -29.5092    4.6020 C   0  0  0  0  0  0  0  0  0  0  0  0
  -43.6783  -29.4878    0.7855 C   0  0  0  0  0  0  0  0  0  0  0  0
  -43.4277  -30.8636    0.6254 C   0  0  0  0  0  0  0  0  0  0  0  0
  -47.0599  -29.8683    4.2345 C   0  0  0  0  0  0  0  0  0  0  0  0
  -49.6410  -28.8274    4.4249 C   0  0  0  0  0  0  0  0  0  0  0  0
  -51.8403  -29.0523    5.2220 C   0  0  0  0  0  0  0  0  0  0  0  0
  -53.2612  -29.2271    3.1968 C   0  0  0  0  0  0  0  0  0  0  0  0
  -45.2399  -31.2458    3.1522 C   0  0  0  0  0  0  0  0  0  0  0  0
  -42.8703  -28.6605    1.7565 C   0  0  0  0  0  0  0  0  0  0  0  0
  -41.4203  -30.5457    2.1174 C   0  0  0  0  0  0  0  0  0  0  0  0
  -42.3967  -31.5593    1.4939 C   0  0  1  0  0  0  0  0  0  0  0  0
  -43.0932  -32.3972    2.5745 C   0  0  0  0  0  0  0  0  0  0  0  0
  -42.1510  -29.4532    2.7592 N   0  0  0  0  0  0  0  0  0  0  0  0
  -53.9517  -28.0597    2.8891 N   0  0  0  0  0  0  0  0  0  0  0  0
  -45.7511  -30.3970    4.1380 N   0  0  0  0  0  0  0  0  0  0  0  0
  -43.9021  -31.5379    3.4201 N   0  0  0  0  0  0  0  0  0  0  0  0
  -52.8647  -29.9911    2.3007 O   0  0  0  0  0  0  0  0  0  0  0  0
  -45.8476  -31.6887    2.1806 O   0  0  0  0  0  0  0  0  0  0  0  0
  -50.9002  -28.3190    4.5178 O   0  0  0  0  0  0  0  0  0  0  0  0
  -54.4380  -31.1012    7.2424 H   0  0  0  0  0  0  0  0  0  0  0  0
  -46.1155  -29.1079   -1.5699 H   0  0  0  0  0  0  0  0  0  0  0  0
  -45.6870  -31.5336   -1.8411 H   0  0  0  0  0  0  0  0  0  0  0  0
  -52.3713  -30.2879    8.3454 H   0  0  0  0  0  0  0  0  0  0  0  0
  -54.8481  -30.6086    4.8566 H   0  0  0  0  0  0  0  0  0  0  0  0
  -44.8365  -27.7981    0.0859 H   0  0  0  0  0  0  0  0  0  0  0  0
  -43.9815  -32.6563   -0.4557 H   0  0  0  0  0  0  0  0  0  0  0  0
  -46.6616  -28.7756    6.0564 H   0  0  0  0  0  0  0  0  0  0  0  0
  -47.7615  -30.8386    2.4351 H   0  0  0  0  0  0  0  0  0  0  0  0
  -50.7094  -28.9786    7.0586 H   0  0  0  0  0  0  0  0  0  0  0  0
  -48.9439  -27.8566    6.2221 H   0  0  0  0  0  0  0  0  0  0  0  0
  -50.0426  -29.9177    2.6058 H   0  0  0  0  0  0  0  0  0  0  0  0
  -42.1552  -28.0545    1.1863 H   0  0  0  0  0  0  0  0  0  0  0  0
  -43.5383  -27.9743    2.2893 H   0  0  0  0  0  0  0  0  0  0  0  0
  -40.7899  -31.0460    2.8615 H   0  0  0  0  0  0  0  0  0  0  0  0
  -40.7428  -30.1446    1.3520 H   0  0  0  0  0  0  0  0  0  0  0  0
  -41.8070  -32.2344    0.8598 H   0  0  0  0  0  0  0  0  0  0  0  0
  -43.7228  -33.1444    2.0919 H   0  0  0  0  0  0  0  0  0  0  0  0
  -42.3382  -32.9112    3.1691 H   0  0  0  0  0  0  0  0  0  0  0  0
  -41.4966  -28.8486    3.2549 H   0  0  0  0  0  0  0  0  0  0  0  0
  -54.2600  -27.4023    3.5972 H   0  0  0  0  0  0  0  0  0  0  0  0
  -54.1473  -27.7993    1.9283 H   0  0  0  0  0  0  0  0  0  0  0  0
  -45.1040  -30.1267    4.8750 H   0  0  0  0  0  0  0  0  0  0  0  0
  -43.4535  -31.1109    4.2209 H   0  0  0  0  0  0  0  0  0  0  0  0
  1  4  1  0  0  0  0
  1  5  2  0  0  0  0
  2  3  1  0  0  0  0
  2  6  2  0  0  0  0
  3  7  2  0  0  0  0
  4 10  2  0  0  0  0
  5 13  1  0  0  0  0
  6 14  1  0  0  0  0
  7 15  1  0  0  0  0
  8 11  2  0  0  0  0
  8 16  1  0  0  0  0
  9 12  1  0  0  0  0
  9 16  2  0  0  0  0
 10 18  1  0  0  0  0
 11 17  1  0  0  0  0
 12 17  2  0  0  0  0
 13 18  2  0  0  0  0
 13 19  1  0  0  0  0
 14 15  2  0  0  0  0
 14 21  1  0  0  0  0
 15 23  1  0  0  0  0
 16 27  1  0  0  0  0
 17 31  1  0  0  0  0
 18 31  1  0  0  0  0
 19 26  1  0  0  0  0
 19 29  2  0  0  0  0
 20 27  1  0  0  0  0
 20 28  1  0  0  0  0
 20 30  2  0  0  0  0
 21 25  1  0  0  0  0
 22 23  1  0  0  0  0
 22 25  1  0  0  0  0
 23 24  1  0  0  0  0
 24 28  1  0  0  0  0
  1 32  1  0  0  0  0
  2 33  1  0  0  0  0
  3 34  1  0  0  0  0
  4 35  1  0  0  0  0
  5 36  1  0  0  0  0
  6 37  1  0  0  0  0
  7 38  1  0  0  0  0
  8 39  1  0  0  0  0
  9 40  1  0  0  0  0
 10 41  1  0  0  0  0
 11 42  1  0  0  0  0
 12 43  1  0  0  0  0
 21 44  1  0  0  0  0
 21 45  1  0  0  0  0
 22 46  1  0  0  0  0
 22 47  1  0  0  0  0
 23 48  1  0  0  0  0
 24 49  1  0  0  0  0
 24 50  1  0  0  0  0
 25 51  1  0  0  0  0
 26 52  1  0  0  0  0
 26 53  1  0  0  0  0
 27 54  1  0  0  0  0
 28 55  1  0  0  0  0
M  END
> <POSIT::Probability>
0.24

> <POSIT::Method>
FRED

> <ReceptorTitle>
UCSF-P4508_LA2_MERGED(A)

> <OMEGA_C>
AthWwpk19MHuo9VAy3c1wuHK7MHYfnS/9H80wnGx98Gk5Y2/IDFSwuyN8MFQe+lAFcFXwpj38cFD
h6pAYpQywiLo5sEAaYK8daMwwky8/MFwAqa+D5Y9wlE86MEvf6lA8A1Awhh+8cEfH1FAZXNOwiyp
6sG4N9JAxb9Cws4S5MEViqxAmzdFwqZU7cFhNFdAWgNUwtcS7MGqQ5NAn7Yuwg7n68GAFkk//LUt
wrbo9sGYGyA/Tj08wlby7sE6gYdAaJBGwo6e5sFqmI1Af1xPwixr6MGfGqdAeQtVwgLR6cHel0xA
svU0wnn3+cHivUlAOnsrwsZI5cHg0+A/WK4lwohd9MHoggdALpYpwmR5/MHMN78/al8swrCWAcLO
xCRAnJoowjCg68GnljBAgM5XwjB64MF25zhAGAE3wgst88HAaoRAzJsvwqpN/ME04lpAcXVTwq7t
78HMPhNA62M3woqC/cGejgtA1plLwlmN4sELkpBAkMBZwjTP+MHQwedASnY4wufc6MHc8si/fb82
wttE/MH8qOu/M3xRwo9N8sHWhgVBcmRbwlLe9MGXaZtAjFgzwmli3sFA1689DO0vwgmgAsLAV+m+
h6U6wm005sEnzsFA0ws/wmy19sEw2BtAatZKwiXU58Hz3+FAgsZDwl/a3sEcG8dAlCtIwnlX78H5
xSZA9p4owpJv4ME815c/QycuwlXL38GIgxJA1igjwiZe+MFjIzdAlvgiwh0o8cHwDK0/Wzonwg7w
AMKQGlw/LuQuwtOTBMJi4QVAXVopwhqlA8Im00pAh/wlwuPJ5sGLT1BARgpZwv0328G4N2ZA35ZY
wudk3sHg0fY/gWo0woYD8cEhAJxAX9Atwjnj+MEFEodA

> <OMEGA_E>
d2+gwA==

> <OMEGA_NBR>
     26881

$$$$
CACHE3HI_1708_41
  -OEChem-03092622503D

 36 38  0     0  0  0  0  0  0999 V2000
  -49.1007  -30.9226    0.2514 C   0  0  0  0  0  0  0  0  0  0  0  0
  -45.2864  -29.6616    3.8059 C   0  0  0  0  0  0  0  0  0  0  0  0
  -48.4485  -28.9910    5.4839 C   0  0  0  0  0  0  0  0  0  0  0  0
  -44.0999  -29.7201    5.7894 C   0  0  0  0  0  0  0  0  0  0  0  0
  -46.4370  -29.4073    4.5514 C   0  0  0  0  0  0  0  0  0  0  0  0
  -47.8116  -29.1901    4.2774 C   0  0  0  0  0  0  0  0  0  0  0  0
  -46.2817  -29.3326    5.9300 C   0  0  0  0  0  0  0  0  0  0  0  0
  -48.4936  -29.1697    2.9584 C   0  0  0  0  0  0  0  0  0  0  0  0
  -48.1474  -29.7888   -1.7186 C   0  0  0  0  0  0  0  0  0  0  0  0
  -46.6613  -30.5860    0.1456 C   0  0  0  0  0  0  0  0  0  0  0  0
  -46.9209  -29.0898   -2.2988 C   0  0  0  0  0  0  0  0  0  0  0  0
  -45.5215  -29.8407   -0.5423 C   0  0  0  0  0  0  0  0  0  0  0  0
  -48.0424  -29.9858   -0.1918 C   0  0  0  0  0  0  0  0  0  0  0  0
  -48.2502  -28.6505    0.5445 C   0  0  0  0  0  0  0  0  0  0  0  0
  -49.9301  -31.6563    0.5993 N   0  0  0  0  0  0  0  0  0  0  0  0
  -44.1024  -29.8192    4.4411 N   0  0  0  0  0  0  0  0  0  0  0  0
  -45.1364  -29.4801    6.6184 N   0  0  0  0  0  0  0  0  0  0  0  0
  -47.5104  -29.0799    6.4802 N   0  0  0  0  0  0  0  0  0  0  0  0
  -47.7214  -28.7477    1.8913 N   0  0  0  0  0  0  0  0  0  0  0  0
  -49.6748  -29.4988    2.8884 O   0  0  0  0  0  0  0  0  0  0  0  0
  -45.7279  -29.7897   -1.9528 O   0  0  0  0  0  0  0  0  0  0  0  0
  -45.2735  -29.7434    2.7263 H   0  0  0  0  0  0  0  0  0  0  0  0
  -49.4840  -28.7942    5.7256 H   0  0  0  0  0  0  0  0  0  0  0  0
  -43.1353  -29.8520    6.2676 H   0  0  0  0  0  0  0  0  0  0  0  0
  -49.0550  -29.2323   -1.9835 H   0  0  0  0  0  0  0  0  0  0  0  0
  -48.2323  -30.7735   -2.1995 H   0  0  0  0  0  0  0  0  0  0  0  0
  -46.6345  -31.6306   -0.1956 H   0  0  0  0  0  0  0  0  0  0  0  0
  -46.4941  -30.6069    1.2296 H   0  0  0  0  0  0  0  0  0  0  0  0
  -46.9904  -29.0749   -3.3915 H   0  0  0  0  0  0  0  0  0  0  0  0
  -46.8464  -28.0490   -1.9654 H   0  0  0  0  0  0  0  0  0  0  0  0
  -45.4015  -28.8243   -0.1516 H   0  0  0  0  0  0  0  0  0  0  0  0
  -44.5786  -30.3684   -0.3652 H   0  0  0  0  0  0  0  0  0  0  0  0
  -47.7355  -27.8649   -0.0053 H   0  0  0  0  0  0  0  0  0  0  0  0
  -49.3142  -28.4231    0.5675 H   0  0  0  0  0  0  0  0  0  0  0  0
  -47.6963  -28.9750    7.4680 H   0  0  0  0  0  0  0  0  0  0  0  0
  -46.7705  -28.4308    2.0327 H   0  0  0  0  0  0  0  0  0  0  0  0
  1 13  1  0  0  0  0
  1 15  3  0  0  0  0
  2  5  1  0  0  0  0
  2 16  2  0  0  0  0
  3  6  2  0  0  0  0
  3 18  1  0  0  0  0
  4 16  1  0  0  0  0
  4 17  2  0  0  0  0
  5  6  1  0  0  0  0
  5  7  2  0  0  0  0
  6  8  1  0  0  0  0
  7 17  1  0  0  0  0
  7 18  1  0  0  0  0
  8 19  1  0  0  0  0
  8 20  2  0  0  0  0
  9 11  1  0  0  0  0
  9 13  1  0  0  0  0
 10 12  1  0  0  0  0
 10 13  1  0  0  0  0
 11 21  1  0  0  0  0
 12 21  1  0  0  0  0
 13 14  1  0  0  0  0
 14 19  1  0  0  0  0
  2 22  1  0  0  0  0
  3 23  1  0  0  0  0
  4 24  1  0  0  0  0
  9 25  1  0  0  0  0
  9 26  1  0  0  0  0
 10 27  1  0  0  0  0
 10 28  1  0  0  0  0
 11 29  1  0  0  0  0
 11 30  1  0  0  0  0
 12 31  1  0  0  0  0
 12 32  1  0  0  0  0
 14 33  1  0  0  0  0
 14 34  1  0  0  0  0
 18 35  1  0  0  0  0
 19 36  1  0  0  0  0
M  END
> <POSIT::Probability>
0.23

> <POSIT::Method>
HYBRID

> <ReceptorTitle>
UCSF-P4508_LA2_MERGED(A)

> <OMEGA_C>
HGdEwpRh98FxtIA+UyU1wgFL7cGDlHNAOstBwn3t58EFfK9ASWYwwtfC7cEpQ7lAdL85wjJC68Ht
pJFAFz8/wmGF6cFs4IhAgSA5wiqp6sHPwr1Ac/lBwqRb6cFdVj1A5JZAwmRP7sEs/Nu/OKU6wi6w
9MGiGRU+Ca87wvG36MH8HhPAABY2wri57sFo1wq/bCtAwvvi78FuaES+KQBBwjw05cF+ZAs/b7hH
wiZA/cGkbBk/5mgwwr2N7sF7HY5Atos0wkvX68GVydNAnQo+wpCj6MHBXc9AvOI+wlz75cG6FvI/
9bJGwqD968HU2zhAVOk2wktR7sFA9Pm/Gxg1wmTy7cGJey5Ale9FwnZa5sFHOLdAjYoswtLQ7sEB
kMhAVThEwtnb6cEs4/2/0+1AwjQw9sFExQzAtIk6wpEL/cFuREi+9fk5wv3a9MG8ZJ0/H/Y7wlqZ
6MGYDVnAvmI7wkpk4MHkkfu/G5s1wh6Y5sG+MRu+iVAywoHy8sHf/bq+JvE+wlzr3sHAua67tUFF
woRi48HeRxE//8g+wtvM58Gf+e5A+hQ7wkBy48F3FwJA

> <OMEGA_E>
OgTPwA==

> <OMEGA_NBR>
     28030

$$$$
CACHE3HI_1716_6
  -OEChem-03092622503D

 54 57  0     1  0  0  0  0  0999 V2000
  -45.7059  -29.2633    5.3352 C   0  0  0  0  0  0  0  0  0  0  0  0
  -43.8281  -31.2333    1.9306 C   0  0  0  0  0  0  0  0  0  0  0  0
  -44.0283  -28.1486    0.0050 C   0  0  0  0  0  0  0  0  0  0  0  0
  -41.7349  -30.7237    2.7698 C   0  0  0  0  0  0  0  0  0  0  0  0
  -43.7966  -30.0250    1.2357 C   0  0  0  0  0  0  0  0  0  0  0  0
  -44.6587  -29.3241    0.3539 C   0  0  0  0  0  0  0  0  0  0  0  0
  -45.0622  -28.9108    6.5366 C   0  0  0  0  0  0  0  0  0  0  0  0
  -46.9803  -29.6055    5.7169 C   0  0  0  0  0  0  0  0  0  0  0  0
  -42.6586  -29.2441    1.3957 C   0  0  0  0  0  0  0  0  0  0  0  0
  -46.0000  -29.7312   -0.1364 C   0  0  0  0  0  0  0  0  0  0  0  0
  -50.2256  -29.4703    3.6455 C   0  0  0  0  0  0  0  0  0  0  0  0
  -50.5249  -29.6039   -0.0200 C   0  0  0  0  0  0  0  0  0  0  0  0
  -48.7741  -29.2696    1.5753 C   0  0  0  0  0  0  0  0  0  0  0  0
  -49.0073  -29.7356    0.1396 C   0  0  2  0  0  0  0  0  0  0  0  0
  -51.0653  -30.0092    1.3539 C   0  0  1  0  0  0  0  0  0  0  0  0
  -43.6703  -28.4615    6.7095 C   0  0  0  0  0  0  0  0  0  0  0  0
  -51.3394  -31.5092    1.4437 C   0  0  0  0  0  0  0  0  0  0  0  0
  -48.1771  -30.0749    4.9266 C   0  0  0  0  0  0  0  0  0  0  0  0
  -49.0611  -28.9355    4.4406 C   0  0  0  0  0  0  0  0  0  0  0  0
  -48.2261  -28.9326   -0.8863 C   0  0  0  0  0  0  0  0  0  0  0  0
  -42.7773  -31.5823    2.7079 N   0  0  0  0  0  0  0  0  0  0  0  0
  -41.5854  -29.5344    2.1514 N   0  0  0  0  0  0  0  0  0  0  0  0
  -45.8615  -29.0189    7.6011 N   0  0  0  0  0  0  0  0  0  0  0  0
  -42.8152  -28.1104    0.6433 N   0  0  0  0  0  0  0  0  0  0  0  0
  -47.0210  -29.4434    7.0705 N   0  0  0  0  0  0  0  0  0  0  0  0
  -50.0087  -29.6027    2.2829 N   0  0  0  0  0  0  0  0  0  0  0  0
  -46.8664  -28.6957   -0.4192 N   0  0  0  0  0  0  0  0  0  0  0  0
  -46.2633  -30.9262   -0.2413 O   0  0  0  0  0  0  0  0  0  0  0  0
  -51.2815  -29.7616    4.2089 O   0  0  0  0  0  0  0  0  0  0  0  0
  -45.3030  -29.2692    4.3325 H   0  0  0  0  0  0  0  0  0  0  0  0
  -44.6557  -31.9305    1.8903 H   0  0  0  0  0  0  0  0  0  0  0  0
  -44.3316  -27.3347   -0.6393 H   0  0  0  0  0  0  0  0  0  0  0  0
  -40.9094  -31.0329    3.4018 H   0  0  0  0  0  0  0  0  0  0  0  0
  -50.7986  -28.5621   -0.2298 H   0  0  0  0  0  0  0  0  0  0  0  0
  -50.9074  -30.2254   -0.8358 H   0  0  0  0  0  0  0  0  0  0  0  0
  -47.9183  -29.7679    2.0399 H   0  0  0  0  0  0  0  0  0  0  0  0
  -48.6326  -28.1852    1.6429 H   0  0  0  0  0  0  0  0  0  0  0  0
  -48.7261  -30.7933    0.0541 H   0  0  0  0  0  0  0  0  0  0  0  0
  -51.9862  -29.4643    1.5911 H   0  0  0  0  0  0  0  0  0  0  0  0
  -43.5734  -27.3636    6.6333 H   0  0  0  0  0  0  0  0  0  0  0  0
  -42.9987  -28.8784    5.9374 H   0  0  0  0  0  0  0  0  0  0  0  0
  -43.2717  -28.7623    7.6936 H   0  0  0  0  0  0  0  0  0  0  0  0
  -50.4328  -32.0643    1.2104 H   0  0  0  0  0  0  0  0  0  0  0  0
  -52.1190  -31.7845    0.7357 H   0  0  0  0  0  0  0  0  0  0  0  0
  -51.6656  -31.7652    2.4510 H   0  0  0  0  0  0  0  0  0  0  0  0
  -47.8177  -30.6391    4.0565 H   0  0  0  0  0  0  0  0  0  0  0  0
  -48.7611  -30.7855    5.5260 H   0  0  0  0  0  0  0  0  0  0  0  0
  -49.4613  -28.3386    5.2609 H   0  0  0  0  0  0  0  0  0  0  0  0
  -48.4978  -28.2862    3.7690 H   0  0  0  0  0  0  0  0  0  0  0  0
  -48.1930  -29.4781   -1.8351 H   0  0  0  0  0  0  0  0  0  0  0  0
  -48.7250  -27.9748   -1.0676 H   0  0  0  0  0  0  0  0  0  0  0  0
  -42.1405  -27.3616    0.5700 H   0  0  0  0  0  0  0  0  0  0  0  0
  -47.8026  -29.6023    7.6942 H   0  0  0  0  0  0  0  0  0  0  0  0
  -46.6094  -27.7343   -0.2516 H   0  0  0  0  0  0  0  0  0  0  0  0
  1  7  1  0  0  0  0
  1  8  2  0  0  0  0
  2  5  2  0  0  0  0
  2 21  1  0  0  0  0
  3  6  2  0  0  0  0
  3 24  1  0  0  0  0
  4 21  2  0  0  0  0
  4 22  1  0  0  0  0
  5  6  1  0  0  0  0
  5  9  1  0  0  0  0
  6 10  1  0  0  0  0
  7 16  1  0  0  0  0
  7 23  2  0  0  0  0
  8 18  1  0  0  0  0
  8 25  1  0  0  0  0
  9 22  2  0  0  0  0
  9 24  1  0  0  0  0
 10 27  1  0  0  0  0
 10 28  2  0  0  0  0
 11 19  1  0  0  0  0
 11 26  1  0  0  0  0
 11 29  2  0  0  0  0
 12 14  1  0  0  0  0
 12 15  1  0  0  0  0
 13 14  1  0  0  0  0
 13 26  1  0  0  0  0
 14 20  1  0  0  0  0
 15 17  1  0  0  0  0
 15 26  1  0  0  0  0
 18 19  1  0  0  0  0
 20 27  1  0  0  0  0
 23 25  1  0  0  0  0
  1 30  1  0  0  0  0
  2 31  1  0  0  0  0
  3 32  1  0  0  0  0
  4 33  1  0  0  0  0
 12 34  1  0  0  0  0
 12 35  1  0  0  0  0
 13 36  1  0  0  0  0
 13 37  1  0  0  0  0
 14 38  1  0  0  0  0
 15 39  1  0  0  0  0
 16 40  1  0  0  0  0
 16 41  1  0  0  0  0
 16 42  1  0  0  0  0
 17 43  1  0  0  0  0
 17 44  1  0  0  0  0
 17 45  1  0  0  0  0
 18 46  1  0  0  0  0
 18 47  1  0  0  0  0
 19 48  1  0  0  0  0
 19 49  1  0  0  0  0
 20 50  1  0  0  0  0
 20 51  1  0  0  0  0
 24 52  1  0  0  0  0
 25 53  1  0  0  0  0
 27 54  1  0  0  0  0
M  END
> <POSIT::Probability>
0.18

> <POSIT::Method>
HYBRID

> <ReceptorTitle>
UCSF-P4508-REFINED_LIGAND-BOUND-STATE_AALTB__DU__LA1_A-201(A)

> <OMEGA_C>
2NI2wj8b6sGtuapA+k8vwuLd+cF6HPc/AR0wwlMw4cEAjqI7ifAmwgzK9cHFRDFAwy8vwhwz8MGq
Kp4/g6Iywq+X6sFANLU+tT80wmNJ58FsK9FA3es7wiDY7MEx8bZAdaIqwvjz6cGgp7I/AwA4wnfZ
7cGwtAu+A+dIwj/D68FwUGlAgBlKwrTU7MEAvqO8tRhDwjQo6sE4pMk/bgdEwoni7cEQ9w4+30JM
wugS8MGqS60/X64uwimx48HSs9ZAmFtNwtwS/MFKy7g/TrVAwkyZ8MH7pp1AjD5Ewut758FyGY5A
kudAwt1158FY4mK//hsrwqWo/MHGTS1AZ1cmwm5G7MEEsQlAN3I3wrcm6MEcPPNAxUIrwhXi4MH0
rSQ/dBU8wgmM68HhQeJA4AhIwkrS7MH4GhJANHc7wtKQ5cHAm9a+pg05ws1o98EQH3e+QCBNwtUX
7sE6r4ZASjY1wjon6sG3o4pAZJ8ywqVx/8Hg8/E/kFMxwoqt2sFCqSO/Q6MjwmZD+MEKt1lAuTFL
wi5/5MHgTmu+LKFLwojN8cHy9lW/TKw/wpkk7sFLjgJAvYdCwk574cHkSdI/fudCwqBY9sEAsl09
5/FPwte268EWqMs/KUsuwrPo2sGxQ9RAq/4rwv8G58FV/71APBYtwiYZ5sETMvZAJ7tJwuBBAMIs
7po/2HlQwsBG/sHsWDw/jKlOwhYf/sFh3BxAXUU/wuMc9cHvzoFAVwtDwsZI9sHe1LBAZ9hFwnG1
4sF8WahAt/1BwjBK4sGGN3FAqsVAwh3T68F44+q/ceZCwmLM38ESp4i/1o8owqbk2sGA7RE/2jU/
wobR7MEkN/ZADHA6wuDf3cGg0oC+

> <OMEGA_E>
sMjgwA==

> <OMEGA_NBR>
     29624

$$$$
CACHE3-HO_1690_36
  -OEChem-03092622503D

 38 40  0     1  0  0  0  0  0999 V2000
  -50.0974  -29.1092    3.2447 C   0  0  0  0  0  0  0  0  0  0  0  0
  -50.7660  -28.9223    4.4783 C   0  0  0  0  0  0  0  0  0  0  0  0
  -48.6917  -29.2624    3.2070 C   0  0  0  0  0  0  0  0  0  0  0  0
  -50.0352  -28.8886    5.6850 C   0  0  0  0  0  0  0  0  0  0  0  0
  -44.0980  -29.4153    5.8970 C   0  0  0  0  0  0  0  0  0  0  0  0
  -47.9750  -29.1745    4.4195 C   0  0  0  0  0  0  0  0  0  0  0  0
  -46.5288  -29.2567    4.7152 C   0  0  0  0  0  0  0  0  0  0  0  0
  -48.6348  -29.0108    5.6452 C   0  0  0  0  0  0  0  0  0  0  0  0
  -46.4026  -29.1671    6.1054 C   0  0  0  0  0  0  0  0  0  0  0  0
  -45.3664  -29.4280    3.9112 C   0  0  0  0  0  0  0  0  0  0  0  0
  -42.7029  -27.9841    1.0992 C   0  0  0  0  0  0  0  0  0  0  0  0
  -45.9792  -28.3824    1.7177 C   0  0  0  0  0  0  0  0  0  0  0  0
  -42.5087  -29.4945    0.8861 C   0  0  0  0  0  0  0  0  0  0  0  0
  -44.6671  -30.6269    1.8372 C   0  0  0  0  0  0  0  0  0  0  0  0
  -43.8198  -30.2734    0.5855 C   0  0  2  0  0  0  0  0  0  0  0  0
  -45.1889  -29.2386    6.6820 N   0  0  0  0  0  0  0  0  0  0  0  0
  -44.1687  -29.5180    4.5441 N   0  0  0  0  0  0  0  0  0  0  0  0
  -47.6751  -29.0181    6.6518 N   0  0  0  0  0  0  0  0  0  0  0  0
  -45.3599  -29.4799    2.5129 N   0  0  3  0  0  0  0  0  0  0  0  0
  -43.4413  -31.5217    0.0023 O   0  0  0  0  0  0  0  0  0  0  0  0
  -50.6645  -29.1351    2.3260 H   0  0  0  0  0  0  0  0  0  0  0  0
  -51.8394  -28.8050    4.4960 H   0  0  0  0  0  0  0  0  0  0  0  0
  -48.1796  -29.4423    2.2733 H   0  0  0  0  0  0  0  0  0  0  0  0
  -50.5461  -28.7702    6.6291 H   0  0  0  0  0  0  0  0  0  0  0  0
  -43.1284  -29.4773    6.3685 H   0  0  0  0  0  0  0  0  0  0  0  0
  -41.7298  -27.5143    1.3051 H   0  0  0  0  0  0  0  0  0  0  0  0
  -43.1403  -27.5394    0.1932 H   0  0  0  0  0  0  0  0  0  0  0  0
  -43.3778  -27.8181    1.9517 H   0  0  0  0  0  0  0  0  0  0  0  0
  -45.8747  -28.6022    0.6450 H   0  0  0  0  0  0  0  0  0  0  0  0
  -47.0460  -28.3017    1.9731 H   0  0  0  0  0  0  0  0  0  0  0  0
  -45.4741  -27.4328    1.9482 H   0  0  0  0  0  0  0  0  0  0  0  0
  -41.8217  -29.6371    0.0388 H   0  0  0  0  0  0  0  0  0  0  0  0
  -42.0593  -29.9158    1.7974 H   0  0  0  0  0  0  0  0  0  0  0  0
  -45.4371  -31.3493    1.5285 H   0  0  0  0  0  0  0  0  0  0  0  0
  -43.9984  -31.0961    2.5738 H   0  0  0  0  0  0  0  0  0  0  0  0
  -44.4352  -29.6862   -0.1119 H   0  0  0  0  0  0  0  0  0  0  0  0
  -47.8707  -28.9291    7.6285 H   0  0  0  0  0  0  0  0  0  0  0  0
  -44.2201  -32.0281   -0.1962 H   0  0  0  0  0  0  0  0  0  0  0  0
  1  2  1  0  0  0  0
  1  3  2  0  0  0  0
  2  4  2  0  0  0  0
  3  6  1  0  0  0  0
  4  8  1  0  0  0  0
  5 16  2  0  0  0  0
  5 17  1  0  0  0  0
  6  7  1  0  0  0  0
  6  8  2  0  0  0  0
  7  9  2  0  0  0  0
  7 10  1  0  0  0  0
  8 18  1  0  0  0  0
  9 16  1  0  0  0  0
  9 18  1  0  0  0  0
 10 17  2  0  0  0  0
 10 19  1  0  0  0  0
 11 13  1  0  0  0  0
 12 19  1  0  0  0  0
 13 15  1  0  0  0  0
 14 15  1  0  0  0  0
 14 19  1  0  0  0  0
 15 20  1  0  0  0  0
  1 21  1  0  0  0  0
  2 22  1  0  0  0  0
  3 23  1  0  0  0  0
  4 24  1  0  0  0  0
  5 25  1  0  0  0  0
 11 26  1  0  0  0  0
 11 27  1  0  0  0  0
 11 28  1  0  0  0  0
 12 29  1  0  0  0  0
 12 30  1  0  0  0  0
 12 31  1  0  0  0  0
 13 32  1  0  0  0  0
 13 33  1  0  0  0  0
 14 34  1  0  0  0  0
 14 35  1  0  0  0  0
 15 36  1  0  0  0  0
 18 37  1  0  0  0  0
 20 38  1  0  0  0  0
M  END
> <POSIT::Probability>
0.75

> <POSIT::Method>
SHAPEFIT

> <ReceptorTitle>
UCSF-P4515-REFINED_LIGAND-BOUND-STATE_A__DU__LA1_A-201(A)

> <OMEGA_C>
wmNIwrzf6MH4qU9AWBBLwuJg58EMTo9AWsRCwn0Z6sEeP01AFiRIwuUb58E267VAWmQwwnlS68EO
tLxAceY/wldl6cF+bI1AhR06wr0N6sEF45ZACYpCwiwW6MGspbRAOpw5wiVW6cGoX8NAMnc1wots
68GgUHpAwc8qwoHf38E5sow/p+o3wjgP48FZ3ds/4wgqwtb068Ha1GI/JKsyws0D9cHjKus/gkcv
wuUv8sHm5BU/bsE0wpTo6cFU09VAv6wwwswk7MHnaJFARLM+whsl6MHg29RAf3A1wuPW68G60yBA
4MMtwmYs/MEAvBM7eqhKwqoU6cEB3RRAkltPwqZw5sEc349A8LdAwtCJ68F5fRFAMS9KwnAp5sGz
IdRAb4MswmnR68HaystAW+smwjId3ME9Dac/qo8swqRQ3MGDz0U+6YItwmSL3sHI0vk/pn83wljR
5MGEGyU/Jy88wvlp4sEUjvw/f+U1wlp228GrXfk/ckknwtAY7cGMIB89sTwowpFT78HcEeY/i781
wknL+sGjpMM/Uf4vwuPE+ME1uSRAr70xwkl97cF5QeW9l3s/wttu58FyHPRAbOEwwtAcAMIn6Ei+

> <OMEGA_E>
HDUDPw==

> <OMEGA_NBR>
      1286

$$$$
CACHE3-HO_1708_7
  -OEChem-03092622503D

 43 46  0     1  0  0  0  0  0999 V2000
  -50.0062  -28.6477    3.2279 C   0  0  0  0  0  0  0  0  0  0  0  0
  -50.6592  -28.5749    4.4843 C   0  0  0  0  0  0  0  0  0  0  0  0
  -48.6080  -28.8582    3.1550 C   0  0  0  0  0  0  0  0  0  0  0  0
  -49.9207  -28.7024    5.6814 C   0  0  0  0  0  0  0  0  0  0  0  0
  -44.0232  -29.5752    5.6893 C   0  0  0  0  0  0  0  0  0  0  0  0
  -47.8965  -28.9874    4.3637 C   0  0  0  0  0  0  0  0  0  0  0  0
  -46.4678  -29.2142    4.6166 C   0  0  0  0  0  0  0  0  0  0  0  0
  -44.3419  -31.1416    0.8392 C   0  0  0  0  0  0  0  0  0  0  0  0
  -48.5302  -28.9031    5.6111 C   0  0  0  0  0  0  0  0  0  0  0  0
  -45.4968  -32.0342    0.6000 C   0  0  0  0  0  0  0  0  0  0  0  0
  -43.2465  -31.8342    0.3397 C   0  0  0  0  0  0  0  0  0  0  0  0
  -46.3003  -29.2186    6.0042 C   0  0  0  0  0  0  0  0  0  0  0  0
  -45.3620  -29.4215    3.7512 C   0  0  0  0  0  0  0  0  0  0  0  0
  -46.9419  -31.7813    0.9506 C   0  0  0  0  0  0  0  0  0  0  0  0
  -41.7831  -31.4611    0.2363 C   0  0  0  0  0  0  0  0  0  0  0  0
  -43.2637  -27.4493    1.8137 C   0  0  0  0  0  0  0  0  0  0  0  0
  -43.1051  -28.9488    1.5335 C   0  0  0  0  0  0  0  0  0  0  0  0
  -44.4678  -29.6554    1.2757 C   0  0  2  0  0  0  0  0  0  0  0  0
  -45.0746  -29.3936    6.5295 N   0  0  0  0  0  0  0  0  0  0  0  0
  -44.1485  -29.6057    4.3316 N   0  0  0  0  0  0  0  0  0  0  0  0
  -45.0781  -33.1142   -0.0092 N   0  0  0  0  0  0  0  0  0  0  0  0
  -47.5532  -29.0445    6.5944 N   0  0  0  0  0  0  0  0  0  0  0  0
  -45.5163  -29.4224    2.3518 N   0  0  0  0  0  0  0  0  0  0  0  0
  -43.6937  -33.0111   -0.1787 O   0  0  0  0  0  0  0  0  0  0  0  0
  -50.5800  -28.5417    2.3191 H   0  0  0  0  0  0  0  0  0  0  0  0
  -51.7274  -28.4211    4.5261 H   0  0  0  0  0  0  0  0  0  0  0  0
  -48.1028  -28.9178    2.2023 H   0  0  0  0  0  0  0  0  0  0  0  0
  -50.4173  -28.6464    6.6389 H   0  0  0  0  0  0  0  0  0  0  0  0
  -43.0396  -29.7015    6.1173 H   0  0  0  0  0  0  0  0  0  0  0  0
  -47.5550  -32.6313    0.6167 H   0  0  0  0  0  0  0  0  0  0  0  0
  -47.0396  -31.6644    2.0400 H   0  0  0  0  0  0  0  0  0  0  0  0
  -47.2850  -30.8633    0.4511 H   0  0  0  0  0  0  0  0  0  0  0  0
  -41.2368  -32.2594   -0.2874 H   0  0  0  0  0  0  0  0  0  0  0  0
  -41.6835  -30.5200   -0.3244 H   0  0  0  0  0  0  0  0  0  0  0  0
  -41.3654  -31.3325    1.2458 H   0  0  0  0  0  0  0  0  0  0  0  0
  -42.2741  -27.0017    1.9881 H   0  0  0  0  0  0  0  0  0  0  0  0
  -43.7387  -26.9630    0.9489 H   0  0  0  0  0  0  0  0  0  0  0  0
  -43.8923  -27.3075    2.7052 H   0  0  0  0  0  0  0  0  0  0  0  0
  -42.4684  -29.0762    0.6455 H   0  0  0  0  0  0  0  0  0  0  0  0
  -42.6220  -29.4207    2.4018 H   0  0  0  0  0  0  0  0  0  0  0  0
  -44.8694  -29.1474    0.3865 H   0  0  0  0  0  0  0  0  0  0  0  0
  -47.7245  -29.0242    7.5794 H   0  0  0  0  0  0  0  0  0  0  0  0
  -46.2106  -30.1209    2.1783 H   0  0  0  0  0  0  0  0  0  0  0  0
  1  2  1  0  0  0  0
  1  3  2  0  0  0  0
  2  4  2  0  0  0  0
  3  6  1  0  0  0  0
  4  9  1  0  0  0  0
  5 19  2  0  0  0  0
  5 20  1  0  0  0  0
  6  7  1  0  0  0  0
  6  9  2  0  0  0  0
  7 12  2  0  0  0  0
  7 13  1  0  0  0  0
  8 10  1  0  0  0  0
  8 11  2  0  0  0  0
  8 18  1  0  0  0  0
  9 22  1  0  0  0  0
 10 14  1  0  0  0  0
 10 21  2  0  0  0  0
 11 15  1  0  0  0  0
 11 24  1  0  0  0  0
 12 19  1  0  0  0  0
 12 22  1  0  0  0  0
 13 20  2  0  0  0  0
 13 23  1  0  0  0  0
 16 17  1  0  0  0  0
 17 18  1  0  0  0  0
 18 23  1  0  0  0  0
 21 24  1  0  0  0  0
  1 25  1  0  0  0  0
  2 26  1  0  0  0  0
  3 27  1  0  0  0  0
  4 28  1  0  0  0  0
  5 29  1  0  0  0  0
 14 30  1  0  0  0  0
 14 31  1  0  0  0  0
 14 32  1  0  0  0  0
 15 33  1  0  0  0  0
 15 34  1  0  0  0  0
 15 35  1  0  0  0  0
 16 36  1  0  0  0  0
 16 37  1  0  0  0  0
 16 38  1  0  0  0  0
 17 39  1  0  0  0  0
 17 40  1  0  0  0  0
 18 41  1  0  0  0  0
 22 42  1  0  0  0  0
 23 43  1  0  0  0  0
M  END
> <POSIT::Probability>
0.83

> <POSIT::Method>
SHAPEFIT

> <ReceptorTitle>
UCSF-P4515-REFINED_LIGAND-BOUND-STATE_A__DU__LA1_A-201(A)

> <OMEGA_C>
TwZIwnMu5cGIlk5AEKNKwmKZ5MEdf49AnW5Cwond5sG66klAyq5Hwm+e5cFqzrVAtRcwwvSZ7MEl
D7ZADpY/wkvm58Ggo4tAAN85wsG26cHNupNAFl4xwg4i+cE011Y/+B5CwpA558EEjrNAxvw1wg4j
AMI+lxk/c/wswm2s/sFM8q0+hTM5wsG/6cE3IsBAqHI1wj1f68EkE3BAecQ7whFA/sE1XHM/4CEn
wlOw+8Gw/HE+AQ4twhiY28EcKOg/p2sswjqX58EpSMQ/Dd8xwkk+7cHuSKM/cEw0wh0m68FT8dBA
E5gwwo3Y7MF5nIpA7080wvV0BMKAxBa8bTY+wiZb6MEIBdNAqBA2whxh68EahBZAY8YuwmoLBMIo
+Ta+31FKwl5V5MGsbBRA4ehOwnZe48Gp1ZBARWlAwpBX58H38QxAU6tJwtIr5cGMcdRAmigswrqc
7cEdwcNASzg+wn+GAsI14R0/lig8wqZQ/cGnjwJA1CM9wgDo9sGT9OY+cvIkwpUJAcJoKpO+5bsm
wuoo9MHwFKa+KXYlwuGo+sE3dZ8/rhgpwmsD2MFaef4/b/Quwii018FM7XI/vZEvwql12sGlIS1A
qd8pwgWc6ME2QiU/+HwqwoZd68HgthlARHozwuIt6cGi38U+6+U+wo0x6MEeivJApdc4woX38MHz
aQtA

> <OMEGA_E>
1CLbPg==

> <OMEGA_NBR>
      2671

$$$$
CACHE3-HO_1715_33
  -OEChem-03092622503D

 35 37  0     1  0  0  0  0  0999 V2000
  -48.3943  -28.8094    3.0413 C   0  0  0  0  0  0  0  0  0  0  0  0
  -49.8023  -28.6651    2.9844 C   0  0  0  0  0  0  0  0  0  0  0  0
  -49.9549  -28.8870    5.4262 C   0  0  0  0  0  0  0  0  0  0  0  0
  -44.0532  -29.4997    5.9829 C   0  0  0  0  0  0  0  0  0  0  0  0
  -47.8044  -28.9911    4.3081 C   0  0  0  0  0  0  0  0  0  0  0  0
  -46.4033  -29.1479    4.7006 C   0  0  0  0  0  0  0  0  0  0  0  0
  -48.5594  -29.0215    5.4854 C   0  0  0  0  0  0  0  0  0  0  0  0
  -50.5780  -28.7076    4.1730 C   0  0  0  0  0  0  0  0  0  0  0  0
  -46.3683  -29.2514    6.0900 C   0  0  0  0  0  0  0  0  0  0  0  0
  -45.2181  -29.2720    3.9543 C   0  0  0  0  0  0  0  0  0  0  0  0
  -42.9567  -27.6087    1.0177 C   0  0  0  0  0  0  0  0  0  0  0  0
  -43.9466  -31.2216   -0.1425 C   0  0  0  0  0  0  0  0  0  0  0  0
  -42.8785  -28.9411    0.2428 C   0  0  0  0  0  0  0  0  0  0  0  0
  -44.0894  -29.8522    0.5470 C   0  0  2  0  0  0  0  0  0  0  0  0
  -45.1910  -29.4261    6.7217 N   0  0  0  0  0  0  0  0  0  0  0  0
  -44.0506  -29.4372    4.6249 N   0  0  0  0  0  0  0  0  0  0  0  0
  -47.6802  -29.1847    6.5546 N   0  0  0  0  0  0  0  0  0  0  0  0
  -45.2205  -29.3681    2.5783 N   0  0  0  0  0  0  0  0  0  0  0  0
  -44.1765  -30.0810    1.9547 O   0  0  0  0  0  0  0  0  0  0  0  0
  -51.9223  -28.5698    4.1160 F   0  0  0  0  0  0  0  0  0  0  0  0
  -47.7934  -28.7812    2.1443 H   0  0  0  0  0  0  0  0  0  0  0  0
  -50.2889  -28.5219    2.0310 H   0  0  0  0  0  0  0  0  0  0  0  0
  -50.5454  -28.9205    6.3298 H   0  0  0  0  0  0  0  0  0  0  0  0
  -43.1099  -29.6127    6.4967 H   0  0  0  0  0  0  0  0  0  0  0  0
  -42.0798  -26.9906    0.7748 H   0  0  0  0  0  0  0  0  0  0  0  0
  -43.8737  -27.0721    0.7326 H   0  0  0  0  0  0  0  0  0  0  0  0
  -42.9727  -27.8135    2.0984 H   0  0  0  0  0  0  0  0  0  0  0  0
  -44.8221  -31.8445    0.0932 H   0  0  0  0  0  0  0  0  0  0  0  0
  -43.8809  -31.0787   -1.2312 H   0  0  0  0  0  0  0  0  0  0  0  0
  -43.0345  -31.7200    0.2176 H   0  0  0  0  0  0  0  0  0  0  0  0
  -42.8568  -28.7253   -0.8356 H   0  0  0  0  0  0  0  0  0  0  0  0
  -41.9559  -29.4667    0.5302 H   0  0  0  0  0  0  0  0  0  0  0  0
  -45.0034  -29.3622    0.1803 H   0  0  0  0  0  0  0  0  0  0  0  0
  -47.9515  -29.2452    7.5152 H   0  0  0  0  0  0  0  0  0  0  0  0
  -46.0784  -29.8087    2.3141 H   0  0  0  0  0  0  0  0  0  0  0  0
  1  2  2  0  0  0  0
  1  5  1  0  0  0  0
  2  8  1  0  0  0  0
  3  7  1  0  0  0  0
  3  8  2  0  0  0  0
  4 15  2  0  0  0  0
  4 16  1  0  0  0  0
  5  6  1  0  0  0  0
  5  7  2  0  0  0  0
  6  9  2  0  0  0  0
  6 10  1  0  0  0  0
  7 17  1  0  0  0  0
  8 20  1  0  0  0  0
  9 15  1  0  0  0  0
  9 17  1  0  0  0  0
 10 16  2  0  0  0  0
 10 18  1  0  0  0  0
 11 13  1  0  0  0  0
 12 14  1  0  0  0  0
 13 14  1  0  0  0  0
 14 19  1  0  0  0  0
 18 19  1  0  0  0  0
  1 21  1  0  0  0  0
  2 22  1  0  0  0  0
  3 23  1  0  0  0  0
  4 24  1  0  0  0  0
 11 25  1  0  0  0  0
 11 26  1  0  0  0  0
 11 27  1  0  0  0  0
 12 28  1  0  0  0  0
 12 29  1  0  0  0  0
 12 30  1  0  0  0  0
 13 31  1  0  0  0  0
 13 32  1  0  0  0  0
 14 33  1  0  0  0  0
 17 34  1  0  0  0  0
 18 35  1  0  0  0  0
M  END
> <POSIT::Probability>
0.83

> <POSIT::Method>
SHAPEFIT

> <ReceptorTitle>
UCSF-P4515-REFINED_LIGAND-BOUND-STATE_A__DU__LA1_A-201(A)

> <OMEGA_C>
wpNBwqx55sEipEJAhDVHwiRS5cEOAT9AydFHwpoY58Feo61AbjYwwmT/68E7dL9AvDc/wrjt58HK
24lA+Jw5wu0u6cGEa5ZA0TxCwvMr6MF8iK9A3k9Kwh2p5cFiiYVALXk5wtgC6sEm4cJAUt80wiUt
6sErE31AqNMrwone3MGCRYI/Uckvwt/F+cFQ8xG+ioMrwk6H58FgqHg+iFswwmHR7sEsCAw/jcM0
wrto68EMGNdA2DMwwnZ/68FC/5NAkLg+wlR66cH/vtFAy+E0wu3x6sHxAiVAuLQwwtul8MGMNPo/
ZrBPwgmP5MGqtoNAbSw/wtY/5sGbPAlA0CdJwsgs5MGS+wFAiC5KwjJd58G0jcpAk3Aswsjm7MEp
5c9AtlEowq/s18HvWkY/oX4vwrGT2MFPjTs/EuQrwhmC3sHkSwZAyEkzwo7B/sEl9L49DoYvwjyh
+MHxmJ2/TiMswofC/cEbyV4+aG0rwn3N5cFX6VW/2dInwuW768HpuAc/dQM0wsHl6sGRnjg+W84/
wjb26cE2fPBAVFA4wk147sGGGhRA

> <OMEGA_E>
oOLXPg==

> <OMEGA_NBR>
      3895

$$$$
CACHE3-HO_1715_34
  -OEChem-03092622503D

 35 37  0     0  0  0  0  0  0999 V2000
  -48.5789  -29.2404    3.1239 C   0  0  0  0  0  0  0  0  0  0  0  0
  -49.9899  -29.0992    3.1454 C   0  0  0  0  0  0  0  0  0  0  0  0
  -49.9588  -28.8192    5.5849 C   0  0  0  0  0  0  0  0  0  0  0  0
  -44.0551  -29.5582    5.8433 C   0  0  0  0  0  0  0  0  0  0  0  0
  -47.8930  -29.1504    4.3506 C   0  0  0  0  0  0  0  0  0  0  0  0
  -46.4657  -29.2632    4.6651 C   0  0  0  0  0  0  0  0  0  0  0  0
  -48.5648  -28.9783    5.5671 C   0  0  0  0  0  0  0  0  0  0  0  0
  -50.6732  -28.8712    4.3700 C   0  0  0  0  0  0  0  0  0  0  0  0
  -46.3522  -29.2490    6.0561 C   0  0  0  0  0  0  0  0  0  0  0  0
  -45.3056  -29.3263    3.8619 C   0  0  0  0  0  0  0  0  0  0  0  0
  -43.5060  -32.6259    0.4000 C   0  0  0  0  0  0  0  0  0  0  0  0
  -45.5967  -32.0019    1.6049 C   0  0  0  0  0  0  0  0  0  0  0  0
  -43.9657  -30.1620    0.7764 C   0  0  0  0  0  0  0  0  0  0  0  0
  -44.1149  -31.5983    1.3761 C   0  0  0  0  0  0  0  0  0  0  0  0
  -45.1453  -29.3908    6.6345 N   0  0  0  0  0  0  0  0  0  0  0  0
  -44.1131  -29.5072    4.4851 N   0  0  0  0  0  0  0  0  0  0  0  0
  -47.6204  -29.0294    6.5884 N   0  0  0  0  0  0  0  0  0  0  0  0
  -45.3190  -29.1267    2.4843 N   0  0  0  0  0  0  0  0  0  0  0  0
  -44.0982  -29.1081    1.7583 O   0  0  0  0  0  0  0  0  0  0  0  0
  -52.0162  -28.7075    4.3849 F   0  0  0  0  0  0  0  0  0  0  0  0
  -48.0487  -29.4111    2.1986 H   0  0  0  0  0  0  0  0  0  0  0  0
  -50.5492  -29.1654    2.2239 H   0  0  0  0  0  0  0  0  0  0  0  0
  -50.4785  -28.6588    6.5179 H   0  0  0  0  0  0  0  0  0  0  0  0
  -43.0996  -29.7398    6.3128 H   0  0  0  0  0  0  0  0  0  0  0  0
  -42.4520  -32.3736    0.2117 H   0  0  0  0  0  0  0  0  0  0  0  0
  -43.5690  -33.6318    0.8405 H   0  0  0  0  0  0  0  0  0  0  0  0
  -44.0629  -32.6053   -0.5483 H   0  0  0  0  0  0  0  0  0  0  0  0
  -46.0682  -31.2902    2.2986 H   0  0  0  0  0  0  0  0  0  0  0  0
  -46.1329  -31.9875    0.6445 H   0  0  0  0  0  0  0  0  0  0  0  0
  -45.6389  -33.0141    2.0334 H   0  0  0  0  0  0  0  0  0  0  0  0
  -42.9724  -30.0809    0.3110 H   0  0  0  0  0  0  0  0  0  0  0  0
  -44.7423  -30.0228    0.0099 H   0  0  0  0  0  0  0  0  0  0  0  0
  -43.5764  -31.6442    2.3342 H   0  0  0  0  0  0  0  0  0  0  0  0
  -47.8229  -28.9239    7.5620 H   0  0  0  0  0  0  0  0  0  0  0  0
  -45.8773  -29.8576    2.0919 H   0  0  0  0  0  0  0  0  0  0  0  0
  1  2  2  0  0  0  0
  1  5  1  0  0  0  0
  2  8  1  0  0  0  0
  3  7  1  0  0  0  0
  3  8  2  0  0  0  0
  4 15  2  0  0  0  0
  4 16  1  0  0  0  0
  5  6  1  0  0  0  0
  5  7  2  0  0  0  0
  6  9  2  0  0  0  0
  6 10  1  0  0  0  0
  7 17  1  0  0  0  0
  8 20  1  0  0  0  0
  9 15  1  0  0  0  0
  9 17  1  0  0  0  0
 10 16  2  0  0  0  0
 10 18  1  0  0  0  0
 11 14  1  0  0  0  0
 12 14  1  0  0  0  0
 13 14  1  0  0  0  0
 13 19  1  0  0  0  0
 18 19  1  0  0  0  0
  1 21  1  0  0  0  0
  2 22  1  0  0  0  0
  3 23  1  0  0  0  0
  4 24  1  0  0  0  0
 11 25  1  0  0  0  0
 11 26  1  0  0  0  0
 11 27  1  0  0  0  0
 12 28  1  0  0  0  0
 12 29  1  0  0  0  0
 12 30  1  0  0  0  0
 13 31  1  0  0  0  0
 13 32  1  0  0  0  0
 14 33  1  0  0  0  0
 17 34  1  0  0  0  0
 18 35  1  0  0  0  0
M  END
> <POSIT::Probability>
0.72

> <POSIT::Method>
SHAPEFIT

> <ReceptorTitle>
UCSF-P4515-REFINED_LIGAND-BOUND-STATE_A__DU__LA1_A-201(A)

> <OMEGA_C>
zVBCwlDs6cEk7kdAovVHwhnL6MHUTklAy9VHwsCN5sEut7JAaTgwwh537MGM/LpAaZI/wvsz6cEY
OItA2tw5wg0b6sF+SJVAUUJCwqHT58GgJbJAXLFKwlH45sE+14tAp2g5wgX+6cEyy8FA8jg1wkSc
6sHIKXdAHAYuwuKAAsLA0sw+AGM2wugBAMJwbM0/6twvwtlL8cHowkY/onUwwlvJ/MFUJLA/zpQ0
wk0g68HETdRAy3MwwqgO7MHAhY9AUns+wkQ86MGM1NJArkY1wmQD6cFQ/h5AjGQwwlLd6MHoD+E/
lBBQwuuo5cHkUIxA1jFAwuRJ68GltgxAYDJKwrdS6cHVVA5AAOpJwi9F5cGGktBA9WUswi7r7cE/
AspA2M4pwoZ+AcLivlg+nkYuwgKHBsJ0LVc/cUAwwtVrAsKhXQy/ykU4wk9S+sH4GxNAGog4woDm
/8EpACU/R442wm0OBMLPIgJAteMrwrWl8MGfNp8+HPgywsgu8MHwxCE8RU4uwlEn/cHYYxVAqUo/
wiZk58Em/PFAY4I3wm7c7sFz4QVA

> <OMEGA_E>
DPYIPw==

> <OMEGA_NBR>
      5115

$$$$
CACHE3-HO_1715_39
  -OEChem-03092622503D

 38 41  0     1  0  0  0  0  0999 V2000
  -49.9459  -28.7449    3.1431 C   0  0  0  0  0  0  0  0  0  0  0  0
  -50.6628  -28.7570    4.3660 C   0  0  0  0  0  0  0  0  0  0  0  0
  -48.5377  -28.8778    3.1358 C   0  0  0  0  0  0  0  0  0  0  0  0
  -49.9809  -28.9088    5.5940 C   0  0  0  0  0  0  0  0  0  0  0  0
  -43.4141  -32.2853   -0.0231 C   0  0  0  0  0  0  0  0  0  0  0  0
  -44.0533  -29.4715    5.8604 C   0  0  0  0  0  0  0  0  0  0  0  0
  -45.4909  -33.1931   -0.2410 C   0  0  0  0  0  0  0  0  0  0  0  0
  -47.8836  -29.0202    4.3751 C   0  0  0  0  0  0  0  0  0  0  0  0
  -46.4627  -29.1688    4.6927 C   0  0  0  0  0  0  0  0  0  0  0  0
  -48.5815  -29.0439    5.5888 C   0  0  0  0  0  0  0  0  0  0  0  0
  -44.1058  -31.4057    0.7728 C   0  0  0  0  0  0  0  0  0  0  0  0
  -46.3631  -29.2978    6.0795 C   0  0  0  0  0  0  0  0  0  0  0  0
  -45.3059  -29.1705    3.8825 C   0  0  0  0  0  0  0  0  0  0  0  0
  -43.4194  -30.3021    1.5403 C   0  0  0  0  0  0  0  0  0  0  0  0
  -43.2835  -27.7825    1.8226 C   0  0  0  0  0  0  0  0  0  0  0  0
  -44.2229  -28.9746    1.5380 C   0  0  2  0  0  0  0  0  0  0  0  0
  -44.2238  -33.2763   -0.5765 N   0  0  0  0  0  0  0  0  0  0  0  0
  -45.1555  -29.4519    6.6531 N   0  0  0  0  0  0  0  0  0  0  0  0
  -44.1089  -29.3236    4.5073 N   0  0  0  0  0  0  0  0  0  0  0  0
  -47.6499  -29.2149    6.6125 N   0  0  0  0  0  0  0  0  0  0  0  0
  -45.3841  -28.9985    2.4919 N   0  0  0  0  0  0  0  0  0  0  0  0
  -42.3992  -27.5917    0.7182 O   0  0  0  0  0  0  0  0  0  0  0  0
  -45.7878  -31.8404    0.8191 S   0  0  0  0  0  0  0  0  0  0  0  0
  -50.4788  -28.6333    2.2104 H   0  0  0  0  0  0  0  0  0  0  0  0
  -51.7374  -28.6495    4.3589 H   0  0  0  0  0  0  0  0  0  0  0  0
  -47.9819  -28.8703    2.2099 H   0  0  0  0  0  0  0  0  0  0  0  0
  -50.5279  -28.9209    6.5252 H   0  0  0  0  0  0  0  0  0  0  0  0
  -42.3513  -32.2165   -0.2022 H   0  0  0  0  0  0  0  0  0  0  0  0
  -43.0878  -29.6108    6.3240 H   0  0  0  0  0  0  0  0  0  0  0  0
  -46.2545  -33.8777   -0.5797 H   0  0  0  0  0  0  0  0  0  0  0  0
  -43.2858  -30.6297    2.5819 H   0  0  0  0  0  0  0  0  0  0  0  0
  -42.4353  -30.1175    1.0849 H   0  0  0  0  0  0  0  0  0  0  0  0
  -43.8829  -26.8724    1.9724 H   0  0  0  0  0  0  0  0  0  0  0  0
  -42.6963  -27.9883    2.7297 H   0  0  0  0  0  0  0  0  0  0  0  0
  -44.6247  -28.8392    0.5230 H   0  0  0  0  0  0  0  0  0  0  0  0
  -47.8717  -29.2701    7.5860 H   0  0  0  0  0  0  0  0  0  0  0  0
  -45.9734  -29.7391    2.1689 H   0  0  0  0  0  0  0  0  0  0  0  0
  -41.8229  -26.8579    0.8966 H   0  0  0  0  0  0  0  0  0  0  0  0
  1  2  1  0  0  0  0
  1  3  2  0  0  0  0
  2  4  2  0  0  0  0
  3  8  1  0  0  0  0
  4 10  1  0  0  0  0
  5 11  2  0  0  0  0
  5 17  1  0  0  0  0
  6 18  1  0  0  0  0
  6 19  2  0  0  0  0
  7 17  2  0  0  0  0
  7 23  1  0  0  0  0
  8  9  1  0  0  0  0
  8 10  2  0  0  0  0
  9 12  1  0  0  0  0
  9 13  2  0  0  0  0
 10 20  1  0  0  0  0
 11 14  1  0  0  0  0
 11 23  1  0  0  0  0
 12 18  2  0  0  0  0
 12 20  1  0  0  0  0
 13 19  1  0  0  0  0
 13 21  1  0  0  0  0
 14 16  1  0  0  0  0
 15 16  1  0  0  0  0
 15 22  1  0  0  0  0
 16 21  1  0  0  0  0
  1 24  1  0  0  0  0
  2 25  1  0  0  0  0
  3 26  1  0  0  0  0
  4 27  1  0  0  0  0
  5 28  1  0  0  0  0
  6 29  1  0  0  0  0
  7 30  1  0  0  0  0
 14 31  1  0  0  0  0
 14 32  1  0  0  0  0
 15 33  1  0  0  0  0
 15 34  1  0  0  0  0
 16 35  1  0  0  0  0
 20 36  1  0  0  0  0
 21 37  1  0  0  0  0
 22 38  1  0  0  0  0
M  END
> <POSIT::Probability>
0.9

> <POSIT::Method>
SHAPEFIT

> <ReceptorTitle>
UCSF-P4515-REFINED_LIGAND-BOUND-STATE_A__DU__LA1_A-201(A)

> <OMEGA_C>
oshHwn315cHNKElAtKZKwlkO5sFktotAlyZCwrIF58GxsUhAcuxHwjxF58FnArNAD6gtwi0kAcIA
ob28jTYwwpvF68EYiLtAsvY1wsnFBMKQxXa+2Yg/wm0p6MEWAYxAy9k5wrVZ6cHmKpZAaFNCwttZ
6MHM17JAWGwwwsc++8E01kU/1nM5ws9h6sGCi8JAOjk1wi9d6cEqe3hAfa0twsdq8sFlKMU/TCIt
wqVC3sFFSuk/P+QwwgDM58GK3MQ/JOUwwvQaBcJ0lBO/Np80woid68EE5tRAgW8wwqOW6sH+O5BA
fpk+wiq46cFSmdNATIk1wvT858Ejex9Ay5gpwt673MG83jc/tyY3wjS5/sGArlE/Q+pJwhgR5cFy
dg1AG/NOwiky5cE1fItAcu0/wlX25sGQbg1AhxxKwhZe58GeztBAumcpwrXdAMIwF0++81kswt7i
7MEOXspAnQQ5wsmCB8IQZBS/qiQtwpEJ9cFJPSVAv70pwq7w8MHp3Io/FYgvwsT61sEqd/w/Cckq
whXo38GWsy5ArX8ywre25sGu4QU/pHw/wjkp6sFqwPJAweQ3wpbp7cG/zwpApkonwurc1sGXhmU/

> <OMEGA_E>
vEf3Pg==

> <OMEGA_NBR>
      6401

$$$$
CACHE3-HO_1715_42
  -OEChem-03092622503D

 36 39  0     1  0  0  0  0  0999 V2000
  -44.1990  -33.3382   -0.2722 C   0  0  0  0  0  0  0  0  0  0  0  0
  -48.5716  -28.9554    3.1421 C   0  0  0  0  0  0  0  0  0  0  0  0
  -49.9735  -28.7774    3.1698 C   0  0  0  0  0  0  0  0  0  0  0  0
  -43.3565  -32.2210    0.1851 C   0  0  0  0  0  0  0  0  0  0  0  0
  -49.9590  -28.8239    5.6265 C   0  0  0  0  0  0  0  0  0  0  0  0
  -45.5325  -33.1321   -0.0193 C   0  0  0  0  0  0  0  0  0  0  0  0
  -44.0446  -29.5326    5.7896 C   0  0  0  0  0  0  0  0  0  0  0  0
  -47.8968  -29.0567    4.3758 C   0  0  0  0  0  0  0  0  0  0  0  0
  -46.4781  -29.2327    4.6754 C   0  0  0  0  0  0  0  0  0  0  0  0
  -48.5673  -29.0070    5.6014 C   0  0  0  0  0  0  0  0  0  0  0  0
  -50.6623  -28.7057    4.4075 C   0  0  0  0  0  0  0  0  0  0  0  0
  -44.0791  -31.1996    0.7597 C   0  0  0  0  0  0  0  0  0  0  0  0
  -46.3492  -29.3212    6.0600 C   0  0  0  0  0  0  0  0  0  0  0  0
  -45.3442  -29.2428    3.8456 C   0  0  0  0  0  0  0  0  0  0  0  0
  -44.3474  -28.7591    1.5522 C   0  0  0  0  0  0  0  0  0  0  0  0
  -43.4067  -29.9636    1.3601 C   0  0  2  0  0  0  0  0  0  0  0  0
  -45.1289  -29.4776    6.6087 N   0  0  0  0  0  0  0  0  0  0  0  0
  -44.1301  -29.3964    4.4354 N   0  0  0  0  0  0  0  0  0  0  0  0
  -47.6210  -29.1718    6.6139 N   0  0  0  0  0  0  0  0  0  0  0  0
  -45.4722  -29.0297    2.4749 N   0  0  0  0  0  0  0  0  0  0  0  0
  -42.3585  -29.5189    0.5025 O   0  0  0  0  0  0  0  0  0  0  0  0
  -52.0023  -28.5276    4.4278 F   0  0  0  0  0  0  0  0  0  0  0  0
  -45.7939  -31.5942    0.7597 S   0  0  0  0  0  0  0  0  0  0  0  0
  -43.8105  -34.2232   -0.7541 H   0  0  0  0  0  0  0  0  0  0  0  0
  -48.0350  -29.0120    2.2066 H   0  0  0  0  0  0  0  0  0  0  0  0
  -50.5230  -28.6955    2.2437 H   0  0  0  0  0  0  0  0  0  0  0  0
  -42.2817  -32.2043    0.0807 H   0  0  0  0  0  0  0  0  0  0  0  0
  -50.4861  -28.7739    6.5679 H   0  0  0  0  0  0  0  0  0  0  0  0
  -46.3168  -33.8309   -0.2700 H   0  0  0  0  0  0  0  0  0  0  0  0
  -43.0721  -29.6914    6.2315 H   0  0  0  0  0  0  0  0  0  0  0  0
  -43.7610  -27.9200    1.9547 H   0  0  0  0  0  0  0  0  0  0  0  0
  -44.7609  -28.4804    0.5716 H   0  0  0  0  0  0  0  0  0  0  0  0
  -42.9930  -30.2369    2.3420 H   0  0  0  0  0  0  0  0  0  0  0  0
  -47.8247  -29.1815    7.5928 H   0  0  0  0  0  0  0  0  0  0  0  0
  -45.9195  -29.8495    2.1177 H   0  0  0  0  0  0  0  0  0  0  0  0
  -41.9443  -28.7516    0.8795 H   0  0  0  0  0  0  0  0  0  0  0  0
  1  4  1  0  0  0  0
  1  6  2  0  0  0  0
  2  3  2  0  0  0  0
  2  8  1  0  0  0  0
  3 11  1  0  0  0  0
  4 12  2  0  0  0  0
  5 10  1  0  0  0  0
  5 11  2  0  0  0  0
  6 23  1  0  0  0  0
  7 17  2  0  0  0  0
  7 18  1  0  0  0  0
  8  9  1  0  0  0  0
  8 10  2  0  0  0  0
  9 13  2  0  0  0  0
  9 14  1  0  0  0  0
 10 19  1  0  0  0  0
 11 22  1  0  0  0  0
 12 16  1  0  0  0  0
 12 23  1  0  0  0  0
 13 17  1  0  0  0  0
 13 19  1  0  0  0  0
 14 18  2  0  0  0  0
 14 20  1  0  0  0  0
 15 16  1  0  0  0  0
 15 20  1  0  0  0  0
 16 21  1  0  0  0  0
  1 24  1  0  0  0  0
  2 25  1  0  0  0  0
  3 26  1  0  0  0  0
  4 27  1  0  0  0  0
  5 28  1  0  0  0  0
  6 29  1  0  0  0  0
  7 30  1  0  0  0  0
 15 31  1  0  0  0  0
 15 32  1  0  0  0  0
 16 33  1  0  0  0  0
 19 34  1  0  0  0  0
 20 35  1  0  0  0  0
 21 36  1  0  0  0  0
M  END
> <POSIT::Probability>
0.9

> <POSIT::Method>
SHAPEFIT

> <ReceptorTitle>
UCSF-P4515-REFINED_LIGAND-BOUND-STATE_A__DU__LA1_A-201(A)

> <OMEGA_C>
zMswwkhaBcJ+Y4u+UElCwrak58GVGElA4ORHwhA45sGy3kpAGm0twkniAMK3kD0+B9ZHwkyX5sGK
DLRAPiE2wj6HBMLYQp68sS0wwtxC7MEKRLlAVZY/wjJ06MEoBoxAjek5woTc6cG4nJVA4kRCwmYO
6MGYPrNAO6ZKwjCl5cFpCo1ABFEwwsKY+cH0eEI/kWU5wt6R6sFj68FAdGA1wlTx6cGPHXZAxGMx
wpwS5sE1rcY/faAtwm6178HcF64//YM0wjrS68EhetNALYUwwr4r68GY7o1A5Hs+wu5f6cG0pNNA
fOM1wr486MFHZR5AJG8pwqYm7MHyogA/YQJQwow45MHQsI1A7yw3wt7A/MGPfUI/9z0vwozkCML9
DEG/ziNAwpUY6MHEOA1AlRdKwmmQ5cHemA9AgCApwjXRAMIJN6U9vfFJwgAx5sH2K9JAaUQ5wtdS
B8LYPoq+yEkswgWI7cFWaMdAOgsvwjdc38GRM/o/IAszwuHX48FwVxI/yPgrwkHl8cHj4hVAckw/
wp5z6cGe+PJAnK03wtrL7sGxhwdA/8YnwjAD5sECKWE/

> <OMEGA_E>
wJTiPg==

> <OMEGA_NBR>
      7647

$$$$
CACHE3HI_1690_18
  -OEChem-03092622503D

 40 42  0     1  0  0  0  0  0999 V2000
  -48.5612  -29.4337    4.0461 C   0  0  0  0  0  0  0  0  0  0  0  0
  -49.1964  -29.4329    5.2698 C   0  0  0  0  0  0  0  0  0  0  0  0
  -47.1647  -29.3894    4.2903 C   0  0  0  0  0  0  0  0  0  0  0  0
  -43.6952  -29.8235    1.9328 C   0  0  0  0  0  0  0  0  0  0  0  0
  -42.8119  -28.7334    1.8527 C   0  0  0  0  0  0  0  0  0  0  0  0
  -43.0346  -30.7204    2.7301 C   0  0  0  0  0  0  0  0  0  0  0  0
  -46.9950  -29.3632    5.6690 C   0  0  0  0  0  0  0  0  0  0  0  0
  -46.0044  -29.3683    3.5174 C   0  0  0  0  0  0  0  0  0  0  0  0
  -44.7834  -29.3024    5.4797 C   0  0  0  0  0  0  0  0  0  0  0  0
  -42.9953  -27.4680    1.1222 C   0  0  0  0  0  0  0  0  0  0  0  0
  -43.3512  -32.0628    3.2352 C   0  0  0  0  0  0  0  0  0  0  0  0
  -43.4312  -29.2535    6.1106 C   0  0  0  0  0  0  0  0  0  0  0  0
  -46.7459  -31.6254    0.3289 C   0  0  0  0  0  0  0  0  0  0  0  0
  -45.3761  -31.4484    0.9726 C   0  0  0  0  0  0  0  0  0  0  0  0
  -45.0595  -29.9772    1.2902 C   0  0  1  0  0  0  0  0  0  0  0  0
  -41.6894  -28.9380    2.5471 N   0  0  0  0  0  0  0  0  0  0  0  0
  -45.8273  -29.3195    6.3337 N   0  0  0  0  0  0  0  0  0  0  0  0
  -44.7980  -29.3238    4.1280 N   0  0  0  0  0  0  0  0  0  0  0  0
  -48.2361  -29.3903    6.2478 N   0  0  0  0  0  0  0  0  0  0  0  0
  -46.0755  -29.3926    2.1127 N   0  0  0  0  0  0  0  0  0  0  0  0
  -41.8357  -30.2028    3.1036 O   0  0  0  0  0  0  0  0  0  0  0  0
  -49.0564  -29.4630    3.0852 H   0  0  0  0  0  0  0  0  0  0  0  0
  -50.2450  -29.4591    5.5308 H   0  0  0  0  0  0  0  0  0  0  0  0
  -43.4836  -26.6947    1.7421 H   0  0  0  0  0  0  0  0  0  0  0  0
  -43.6370  -27.5901    0.2309 H   0  0  0  0  0  0  0  0  0  0  0  0
  -42.0288  -27.0583    0.7814 H   0  0  0  0  0  0  0  0  0  0  0  0
  -43.0059  -32.8622    2.5529 H   0  0  0  0  0  0  0  0  0  0  0  0
  -44.4397  -32.2216    3.3547 H   0  0  0  0  0  0  0  0  0  0  0  0
  -42.8827  -32.2457    4.2191 H   0  0  0  0  0  0  0  0  0  0  0  0
  -43.0416  -30.2627    6.2942 H   0  0  0  0  0  0  0  0  0  0  0  0
  -43.4646  -28.7427    7.0814 H   0  0  0  0  0  0  0  0  0  0  0  0
  -42.7272  -28.7209    5.4603 H   0  0  0  0  0  0  0  0  0  0  0  0
  -47.5399  -31.2154    0.9604 H   0  0  0  0  0  0  0  0  0  0  0  0
  -46.9598  -32.6835    0.1465 H   0  0  0  0  0  0  0  0  0  0  0  0
  -46.7799  -31.1035   -0.6329 H   0  0  0  0  0  0  0  0  0  0  0  0
  -44.6175  -31.8734    0.3039 H   0  0  0  0  0  0  0  0  0  0  0  0
  -45.3508  -32.0396    1.8968 H   0  0  0  0  0  0  0  0  0  0  0  0
  -45.0791  -29.4070    0.3529 H   0  0  0  0  0  0  0  0  0  0  0  0
  -48.4157  -29.3802    7.2423 H   0  0  0  0  0  0  0  0  0  0  0  0
  -46.8840  -28.9748    1.6886 H   0  0  0  0  0  0  0  0  0  0  0  0
  1  2  2  0  0  0  0
  1  3  1  0  0  0  0
  2 19  1  0  0  0  0
  3  7  2  0  0  0  0
  3  8  1  0  0  0  0
  4  5  1  0  0  0  0
  4  6  2  0  0  0  0
  4 15  1  0  0  0  0
  5 10  1  0  0  0  0
  5 16  2  0  0  0  0
  6 11  1  0  0  0  0
  6 21  1  0  0  0  0
  7 17  1  0  0  0  0
  7 19  1  0  0  0  0
  8 18  2  0  0  0  0
  8 20  1  0  0  0  0
  9 12  1  0  0  0  0
  9 17  2  0  0  0  0
  9 18  1  0  0  0  0
 13 14  1  0  0  0  0
 14 15  1  0  0  0  0
 15 20  1  0  0  0  0
 16 21  1  0  0  0  0
  1 22  1  0  0  0  0
  2 23  1  0  0  0  0
 10 24  1  0  0  0  0
 10 25  1  0  0  0  0
 10 26  1  0  0  0  0
 11 27  1  0  0  0  0
 11 28  1  0  0  0  0
 11 29  1  0  0  0  0
 12 30  1  0  0  0  0
 12 31  1  0  0  0  0
 12 32  1  0  0  0  0
 13 33  1  0  0  0  0
 13 34  1  0  0  0  0
 13 35  1  0  0  0  0
 14 36  1  0  0  0  0
 14 37  1  0  0  0  0
 15 38  1  0  0  0  0
 19 39  1  0  0  0  0
 20 40  1  0  0  0  0
M  END
> <POSIT::Probability>
0.23

> <POSIT::Method>
HYBRID

> <ReceptorTitle>
UCSF-P4515-REFINED_LIGAND-BOUND-STATE_A__DU__LA1_A-201(A)

> <OMEGA_C>
sz5CwiV468GweYFAGslEwpt268FGoqhAp6g8wnId68FOSolA18cuwnSW7sGQZfc/az8rwvfd5cEI
JO0/ZyMswlLD9cGIui5A3Po7wuXn6sG+aLVAiAQ4wlfy6sGcHWFAPyIzwkpr6sHAWa9AN/srwou+
28FYpY8/rmctwktAAMKIDU9Ak7ktwhYH6sHiicNA2vs6ws8A/cHgZag+HoE1wkSW+8Hw+3g/9Tw0
wkbR78EQJqU/98Emwh6B58EYAyNAG083wnCO6sGsrcpALDEzwjaX6sFUGIRAvvFAwkYf68FK7sdA
VE04wvgj68FINwdAv1cnwlKf8cEwokZAuTlEwjq068GYc0VA1vpIwlas68Gs/LBAPe8twqqO1cHo
/d4/VYwuwnK43MHAcGw+hh0owlh32MEADEg/DwYswuxyA8KoYiNARMIxwubiAMJEs1ZA14crwpf7
AMIAA4dAlCoswgga8sFqaslAvdstwgDx5cHkmuJAo+gqwlbE5cHGuq5A4Cg+wiS5+cEg3HU/1NY7
wuy7AsLABxY+mh47wvLT+MFABiK/VHgywtL8/sGAlps+Omc1wpkoAMLYy/I/+FA0wpFB68HgrrQ+
uqlBwqoK68GYwOdAQIk7wlrM58FAJNg/

> <OMEGA_E>
1OotwQ==

> <OMEGA_NBR>
      8946

$$$$
CACHE3HI_1694_82
  -OEChem-03092622503D

 37 38  0     1  0  0  0  0  0999 V2000
  -44.1933  -34.0840   -0.7200 C   0  0  0  0  0  0  0  0  0  0  0  0
  -45.5464  -33.7677   -0.5980 C   0  0  0  0  0  0  0  0  0  0  0  0
  -43.2326  -33.2875   -0.0971 C   0  0  0  0  0  0  0  0  0  0  0  0
  -45.9387  -32.6555    0.1470 C   0  0  0  0  0  0  0  0  0  0  0  0
  -44.3553  -29.3896    5.3079 C   0  0  0  0  0  0  0  0  0  0  0  0
  -43.6249  -32.1753    0.6479 C   0  0  0  0  0  0  0  0  0  0  0  0
  -44.9779  -31.8590    0.7699 C   0  0  0  0  0  0  0  0  0  0  0  0
  -44.6479  -29.4760    3.9643 C   0  0  0  0  0  0  0  0  0  0  0  0
  -46.5728  -29.0729    5.7705 C   0  0  0  0  0  0  0  0  0  0  0  0
  -46.8652  -29.1593    4.4267 C   0  0  0  0  0  0  0  0  0  0  0  0
  -43.3019  -27.1395    0.2521 C   0  0  0  0  0  0  0  0  0  0  0  0
  -43.2410  -27.7120    1.6629 C   0  0  0  0  0  0  0  0  0  0  0  0
  -42.6318  -30.0257    0.8714 C   0  0  0  0  0  0  0  0  0  0  0  0
  -43.6055  -29.2012    1.7145 C   0  0  1  0  0  0  0  0  0  0  0  0
  -45.3121  -29.1865    6.2351 N   0  0  0  0  0  0  0  0  0  0  0  0
  -45.9085  -29.3625    3.4997 N   0  0  0  0  0  0  0  0  0  0  0  0
  -47.6151  -28.8608    6.7004 N   0  0  0  0  0  0  0  0  0  0  0  0
  -43.6065  -29.6854    3.0774 N   0  0  0  0  0  0  0  0  0  0  0  0
  -42.6803  -31.3949    1.2599 O   0  0  0  0  0  0  0  0  0  0  0  0
  -45.3609  -30.7923    1.4849 F   0  0  0  0  0  0  0  0  0  0  0  0
  -48.4503  -29.0214    3.7815 Cl  0  0  0  0  0  0  0  0  0  0  0  0
  -43.8879  -34.9499   -1.3001 H   0  0  0  0  0  0  0  0  0  0  0  0
  -46.2947  -34.3878   -1.0829 H   0  0  0  0  0  0  0  0  0  0  0  0
  -42.1801  -33.5385   -0.1952 H   0  0  0  0  0  0  0  0  0  0  0  0
  -46.9922  -32.4098    0.2424 H   0  0  0  0  0  0  0  0  0  0  0  0
  -43.3457  -29.4794    5.6920 H   0  0  0  0  0  0  0  0  0  0  0  0
  -42.6456  -27.6873   -0.4307 H   0  0  0  0  0  0  0  0  0  0  0  0
  -44.3229  -27.2080   -0.1380 H   0  0  0  0  0  0  0  0  0  0  0  0
  -43.0066  -26.0852    0.2439 H   0  0  0  0  0  0  0  0  0  0  0  0
  -43.9116  -27.1346    2.3106 H   0  0  0  0  0  0  0  0  0  0  0  0
  -42.2231  -27.5712    2.0464 H   0  0  0  0  0  0  0  0  0  0  0  0
  -41.5992  -29.6735    0.9768 H   0  0  0  0  0  0  0  0  0  0  0  0
  -42.9010  -29.9817   -0.1885 H   0  0  0  0  0  0  0  0  0  0  0  0
  -44.6257  -29.3506    1.3411 H   0  0  0  0  0  0  0  0  0  0  0  0
  -48.5449  -28.7236    6.3633 H   0  0  0  0  0  0  0  0  0  0  0  0
  -47.3877  -28.7468    7.6660 H   0  0  0  0  0  0  0  0  0  0  0  0
  -42.7992  -30.2066    3.3971 H   0  0  0  0  0  0  0  0  0  0  0  0
  1  2  1  0  0  0  0
  1  3  2  0  0  0  0
  2  4  2  0  0  0  0
  3  6  1  0  0  0  0
  4  7  1  0  0  0  0
  5  8  1  0  0  0  0
  5 15  2  0  0  0  0
  6  7  2  0  0  0  0
  6 19  1  0  0  0  0
  7 20  1  0  0  0  0
  8 16  2  0  0  0  0
  8 18  1  0  0  0  0
  9 10  2  0  0  0  0
  9 15  1  0  0  0  0
  9 17  1  0  0  0  0
 10 16  1  0  0  0  0
 10 21  1  0  0  0  0
 11 12  1  0  0  0  0
 12 14  1  0  0  0  0
 13 14  1  0  0  0  0
 13 19  1  0  0  0  0
 14 18  1  0  0  0  0
  1 22  1  0  0  0  0
  2 23  1  0  0  0  0
  3 24  1  0  0  0  0
  4 25  1  0  0  0  0
  5 26  1  0  0  0  0
 11 27  1  0  0  0  0
 11 28  1  0  0  0  0
 11 29  1  0  0  0  0
 12 30  1  0  0  0  0
 12 31  1  0  0  0  0
 13 32  1  0  0  0  0
 13 33  1  0  0  0  0
 14 34  1  0  0  0  0
 17 35  1  0  0  0  0
 17 36  1  0  0  0  0
 18 37  1  0  0  0  0
M  END
> <POSIT::Probability>
0.33

> <POSIT::Method>
HYBRID

> <ReceptorTitle>
UCSF-P4515-REFINED_LIGAND-BOUND-STATE_A__DU__LA1_A-201(A)

> <OMEGA_C>
9MUwwgdWCMJQUzi/fS82wiQSB8KAFhm/KO4swnMmBcKAy8a9NcE3wjCfAsIAgBY+12sxwtId68F1
2qlA4H8uwn+zAMIA3SU/WukzwjDf/sHQGkU/bJcywsDO68HCt31Ag0o6wlSV6MHWp7hA73U7wilG
6cHAp41AKTUtwsAd2cGAGIE+wPYswiqy3cGQ2tQ/8YYqwpQ08MHwFV8/CmwuwgCc6cGYc9s/nD81
wul96cEthsdATKI3wm3m6sHi+l9A1XU+wvHi5sHHadZAEG0uwp177cHw80RApbgqwrwo+8FgQ6E/
mXE1wolW9sEgEr4/Js1Bwr8r6MG8A3JAOo0vwq7MC8LAaaa/yi05wh2NCcIgm4q/Z7gowmAnBsLA
1Ue+BPg7wpijAcIAQHg+AWItwr7V68G0JLZAG5UqwpF/3cGghNy+sUoxwuyp2cGATw2+yAYswpCu
0MEAvHk+eqUvwpYT2cHO4BNAgeQowtWR3MGg9wJAlmUmwjpj7cEgD3o/nZorwo3a78GADEG+soAy
wvnN6sGYp6s/Ay5CwtrJ5cHEn8tA/Yw9wmP55cFIUPVAWjIrwgin8cGMallA

> <OMEGA_E>
t2kQwQ==

> <OMEGA_NBR>
     10181

$$$$
CACHE3HI_1708_3
  -OEChem-03092622503D

 35 37  0     1  0  0  0  0  0999 V2000
  -50.8404  -28.8618    4.7437 C   0  0  0  0  0  0  0  0  0  0  0  0
  -49.9059  -28.6756    3.7225 C   0  0  0  0  0  0  0  0  0  0  0  0
  -49.0744  -29.2852    6.3444 C   0  0  0  0  0  0  0  0  0  0  0  0
  -44.7601  -32.4578    0.6714 C   0  0  0  0  0  0  0  0  0  0  0  0
  -42.8821  -32.3589   -0.4561 C   0  0  0  0  0  0  0  0  0  0  0  0
  -50.4328  -29.1627    6.0385 C   0  0  0  0  0  0  0  0  0  0  0  0
  -48.1084  -29.1021    5.3311 C   0  0  0  0  0  0  0  0  0  0  0  0
  -48.5430  -28.8002    4.0370 C   0  0  0  0  0  0  0  0  0  0  0  0
  -44.3358  -31.2121    1.0839 C   0  0  0  0  0  0  0  0  0  0  0  0
  -46.1453  -28.9633    4.3347 C   0  0  0  0  0  0  0  0  0  0  0  0
  -51.4510  -29.3572    7.1118 C   0  0  0  0  0  0  0  0  0  0  0  0
  -44.9896  -30.2321    2.0290 C   0  0  0  0  0  0  0  0  0  0  0  0
  -42.8038  -29.2105    2.7615 C   0  0  0  0  0  0  0  0  0  0  0  0
  -44.1008  -29.8715    3.2305 C   0  0  1  0  0  0  0  0  0  0  0  0
  -43.9276  -33.1170   -0.2118 N   0  0  0  0  0  0  0  0  0  0  0  0
  -46.7322  -29.1921    5.4856 N   0  0  0  0  0  0  0  0  0  0  0  0
  -44.7988  -28.9781    4.1476 N   0  0  0  0  0  0  0  0  0  0  0  0
  -43.0826  -28.3469    1.6647 O   0  0  0  0  0  0  0  0  0  0  0  0
  -42.8343  -30.8417    0.3433 S   0  0  0  0  0  0  0  0  0  0  0  0
  -47.1701  -28.6299    3.0063 S   0  0  0  0  0  0  0  0  0  0  0  0
  -51.8989  -28.7678    4.5120 H   0  0  0  0  0  0  0  0  0  0  0  0
  -50.2327  -28.4416    2.7139 H   0  0  0  0  0  0  0  0  0  0  0  0
  -48.7562  -29.5212    7.3565 H   0  0  0  0  0  0  0  0  0  0  0  0
  -45.6772  -32.9382    0.9859 H   0  0  0  0  0  0  0  0  0  0  0  0
  -42.0903  -32.6693   -1.1240 H   0  0  0  0  0  0  0  0  0  0  0  0
  -51.7631  -30.4073    7.1790 H   0  0  0  0  0  0  0  0  0  0  0  0
  -52.3557  -28.7681    6.9130 H   0  0  0  0  0  0  0  0  0  0  0  0
  -51.0435  -29.0524    8.0833 H   0  0  0  0  0  0  0  0  0  0  0  0
  -45.9306  -30.6756    2.3787 H   0  0  0  0  0  0  0  0  0  0  0  0
  -45.2723  -29.3235    1.4804 H   0  0  0  0  0  0  0  0  0  0  0  0
  -42.0866  -29.9637    2.4187 H   0  0  0  0  0  0  0  0  0  0  0  0
  -42.3440  -28.6190    3.5604 H   0  0  0  0  0  0  0  0  0  0  0  0
  -43.8586  -30.7682    3.8135 H   0  0  0  0  0  0  0  0  0  0  0  0
  -44.2088  -28.3257    4.6765 H   0  0  0  0  0  0  0  0  0  0  0  0
  -42.2370  -27.9512    1.4009 H   0  0  0  0  0  0  0  0  0  0  0  0
  1  2  2  0  0  0  0
  1  6  1  0  0  0  0
  2  8  1  0  0  0  0
  3  6  2  0  0  0  0
  3  7  1  0  0  0  0
  4  9  2  0  0  0  0
  4 15  1  0  0  0  0
  5 15  2  0  0  0  0
  5 19  1  0  0  0  0
  6 11  1  0  0  0  0
  7  8  2  0  0  0  0
  7 16  1  0  0  0  0
  8 20  1  0  0  0  0
  9 12  1  0  0  0  0
  9 19  1  0  0  0  0
 10 16  2  0  0  0  0
 10 17  1  0  0  0  0
 10 20  1  0  0  0  0
 12 14  1  0  0  0  0
 13 14  1  0  0  0  0
 13 18  1  0  0  0  0
 14 17  1  0  0  0  0
  1 21  1  0  0  0  0
  2 22  1  0  0  0  0
  3 23  1  0  0  0  0
  4 24  1  0  0  0  0
  5 25  1  0  0  0  0
 11 26  1  0  0  0  0
 11 27  1  0  0  0  0
 11 28  1  0  0  0  0
 12 29  1  0  0  0  0
 12 30  1  0  0  0  0
 13 31  1  0  0  0  0
 13 32  1  0  0  0  0
 14 33  1  0  0  0  0
 17 34  1  0  0  0  0
 18 35  1  0  0  0  0
M  END
> <POSIT::Probability>
0.33

> <POSIT::Method>
HYBRID

> <ReceptorTitle>
UCSF-P4515-REFINED_LIGAND-BOUND-STATE_A__DU__LA1_A-201(A)

> <OMEGA_C>
kFxLwu/k5sENzJdAoJ9HwrVn5cFSPW5AJUxEwhtI6sEEBctAWQozwtPUAcLg4Ss/SYcrwoJvAcKo
iem+JLtJwjZN6cEFO8FA/G5AwhXR6MFymKpABSxCws5m5sHsLoFA4Vcxwmiy+cGcu4o/wZQ4wuu0
58E4topAys1Nwozb6sE8lONAXPUzwkbb8cHe2wFADTcrwhOv6cE6vDBAPGcwwtP47sHsv05A5bUv
wsx3BMLg21i+w+06wmKJ6cFUiq9A/jEzwj7T58FJuYRAlFQswoDG4sEWFNU/TFYrwry79sGAya8+
K648wv8J5cEOZ0BAcZhPwogk5sGvYpBATu5IwmGI48EosC1AWwZDwmor7MF7aOtAa7U2wrzAA8KI
ZHw/fVwowlutAsKE34+/bA1PwjhC88FSuuVAMWxRwvwk5sE6N91AkCxMwjxr6MFaVQFB9Lg3wrhn
9cEoPBhAyhY1wnqW6sHIfb0/tFgowqG178HayxpAOmApwrbz5MF23WNAOG8vwkMl9sHWD3RA2NUw
wgCb4sE0ppVAu/IowiSc38HwULM/

> <OMEGA_E>
yn2wwA==

> <OMEGA_NBR>
     11377

$$$$
CACHE3HI_1715_92
  -OEChem-03092622503D

 37 40  0     1  0  0  0  0  0999 V2000
  -48.5727  -29.0304    3.0909 C   0  0  0  0  0  0  0  0  0  0  0  0
  -49.9823  -28.9085    3.1446 C   0  0  0  0  0  0  0  0  0  0  0  0
  -49.9220  -28.9188    5.5993 C   0  0  0  0  0  0  0  0  0  0  0  0
  -43.9719  -33.0169   -0.1335 C   0  0  0  0  0  0  0  0  0  0  0  0
  -45.2890  -33.3004    0.1305 C   0  0  0  0  0  0  0  0  0  0  0  0
  -43.9960  -29.5073    5.6924 C   0  0  0  0  0  0  0  0  0  0  0  0
  -47.8694  -29.0858    4.3106 C   0  0  0  0  0  0  0  0  0  0  0  0
  -46.4355  -29.2265    4.5863 C   0  0  0  0  0  0  0  0  0  0  0  0
  -48.5235  -29.0368    5.5482 C   0  0  0  0  0  0  0  0  0  0  0  0
  -50.6530  -28.8514    4.3940 C   0  0  0  0  0  0  0  0  0  0  0  0
  -46.2903  -29.2543    5.9759 C   0  0  0  0  0  0  0  0  0  0  0  0
  -45.3070  -29.3342    3.7367 C   0  0  0  0  0  0  0  0  0  0  0  0
  -44.5455  -31.0621    0.9064 C   0  0  0  0  0  0  0  0  0  0  0  0
  -42.8277  -27.6396    1.5423 C   0  0  0  0  0  0  0  0  0  0  0  0
  -42.9556  -29.1658    1.4900 C   0  0  0  0  0  0  0  0  0  0  0  0
  -44.4357  -29.5915    1.2724 C   0  0  2  0  0  0  0  0  0  0  0  0
  -43.5981  -31.7425    0.2949 N   0  0  0  0  0  0  0  0  0  0  0  0
  -45.0671  -29.3864    6.5185 N   0  0  0  0  0  0  0  0  0  0  0  0
  -44.0972  -29.4909    4.3322 N   0  0  0  0  0  0  0  0  0  0  0  0
  -47.5570  -29.1314    6.5466 N   0  0  0  0  0  0  0  0  0  0  0  0
  -45.4319  -29.2009    2.3425 N   0  0  0  0  0  0  0  0  0  0  0  0
  -51.9998  -28.7318    4.4396 F   0  0  0  0  0  0  0  0  0  0  0  0
  -46.0271  -31.9799    0.9788 S   0  0  0  0  0  0  0  0  0  0  0  0
  -48.0531  -29.0793    2.1453 H   0  0  0  0  0  0  0  0  0  0  0  0
  -50.5514  -28.8587    2.2280 H   0  0  0  0  0  0  0  0  0  0  0  0
  -50.4323  -28.8800    6.5503 H   0  0  0  0  0  0  0  0  0  0  0  0
  -43.2976  -33.7060   -0.6203 H   0  0  0  0  0  0  0  0  0  0  0  0
  -45.7927  -34.2138   -0.1496 H   0  0  0  0  0  0  0  0  0  0  0  0
  -43.0170  -29.6219    6.1336 H   0  0  0  0  0  0  0  0  0  0  0  0
  -41.7739  -27.3644    1.6966 H   0  0  0  0  0  0  0  0  0  0  0  0
  -43.1839  -27.2092    0.5947 H   0  0  0  0  0  0  0  0  0  0  0  0
  -43.4339  -27.2492    2.3730 H   0  0  0  0  0  0  0  0  0  0  0  0
  -42.3445  -29.5502    0.6601 H   0  0  0  0  0  0  0  0  0  0  0  0
  -42.5945  -29.5902    2.4384 H   0  0  0  0  0  0  0  0  0  0  0  0
  -44.7538  -29.0474    0.3709 H   0  0  0  0  0  0  0  0  0  0  0  0
  -47.7439  -29.1137    7.5288 H   0  0  0  0  0  0  0  0  0  0  0  0
  -46.2610  -29.7110    2.1136 H   0  0  0  0  0  0  0  0  0  0  0  0
  1  2  2  0  0  0  0
  1  7  1  0  0  0  0
  2 10  1  0  0  0  0
  3  9  1  0  0  0  0
  3 10  2  0  0  0  0
  4  5  2  0  0  0  0
  4 17  1  0  0  0  0
  5 23  1  0  0  0  0
  6 18  2  0  0  0  0
  6 19  1  0  0  0  0
  7  8  1  0  0  0  0
  7  9  2  0  0  0  0
  8 11  2  0  0  0  0
  8 12  1  0  0  0  0
  9 20  1  0  0  0  0
 10 22  1  0  0  0  0
 11 18  1  0  0  0  0
 11 20  1  0  0  0  0
 12 19  2  0  0  0  0
 12 21  1  0  0  0  0
 13 16  1  0  0  0  0
 13 17  2  0  0  0  0
 13 23  1  0  0  0  0
 14 15  1  0  0  0  0
 15 16  1  0  0  0  0
 16 21  1  0  0  0  0
  1 24  1  0  0  0  0
  2 25  1  0  0  0  0
  3 26  1  0  0  0  0
  4 27  1  0  0  0  0
  5 28  1  0  0  0  0
  6 29  1  0  0  0  0
 14 30  1  0  0  0  0
 14 31  1  0  0  0  0
 14 32  1  0  0  0  0
 15 33  1  0  0  0  0
 15 34  1  0  0  0  0
 16 35  1  0  0  0  0
 20 36  1  0  0  0  0
 21 37  1  0  0  0  0
M  END
> <POSIT::Probability>
0.91

> <POSIT::Method>
SHAPEFIT

> <ReceptorTitle>
UCSF-P4515-REFINED_LIGAND-BOUND-STATE_A__DU__LA1_A-201(A)

> <OMEGA_C>
bEpCwkA+6MH90EVA7O1HwqxE58H2QElAI7BHwqBZ58FDLbNAL+MvwlARBMLgsAi+7Cc1wqIzBcKA
nQU+7fsvwuoO7MFIKLZATno/wsav6MHS8IlA/r05ws7P6cFRw5JAFhhCwmxL6MELi7FAr5xKwprP
5sHsm4xATyk5wugI6sFpOr9AYzo1woGs6sFcJm9Aiy4ywkZ/+MH6CWg/l08rwtEd3cF3acU/gdIr
wotT6cHNuL4/I74xwmW77MEM3qI/dGQuwpvw/cGyApc+q0Q0wk4X68HZl9BAhWMwwmDt68E7oYpA
Xzo+wh0N6cGefdFASLo1wn+b6cEA7BVAxP9Pwqja5cFLEY5AvRs4wuLW/8Eck3o/aTZAwmSi6MHt
TAlAnDRKwqbe5sGwlw5AuLpJwjIK58EWnNFAwTAtwuvSBsIgyx6/vis3wuTaCMKWOhm+XBEswrX5
7MHORsRAgBgnwlnq2sHIKdk/V7wswoSs2cEcPRg/T7wtwlz+2cEF4BdAwWApwtFm7MF1+ig/uWAq
wqi47MFbDxxA2gMzwgZh6MFM470+vPk+wvLo6MEA7PBAQws5wjew7cFwRQdA

> <OMEGA_E>
ICMGPg==

> <OMEGA_NBR>
     12642

$$$$
CACHE3HI_1715_97
  -OEChem-03092622503D

 40 43  0     1  0  0  0  0  0999 V2000
  -48.6072  -28.8780    3.1789 C   0  0  0  0  0  0  0  0  0  0  0  0
  -50.0225  -28.7771    3.2218 C   0  0  0  0  0  0  0  0  0  0  0  0
  -49.9978  -28.9347    5.6704 C   0  0  0  0  0  0  0  0  0  0  0  0
  -44.4140  -33.0528   -0.6363 C   0  0  0  0  0  0  0  0  0  0  0  0
  -44.0786  -29.4672    5.8768 C   0  0  0  0  0  0  0  0  0  0  0  0
  -45.4254  -31.6738    0.7625 C   0  0  0  0  0  0  0  0  0  0  0  0
  -47.9213  -28.9985    4.4028 C   0  0  0  0  0  0  0  0  0  0  0  0
  -46.4866  -29.1225    4.7021 C   0  0  0  0  0  0  0  0  0  0  0  0
  -48.6007  -29.0500    5.6286 C   0  0  0  0  0  0  0  0  0  0  0  0
  -50.7118  -28.7922    4.4645 C   0  0  0  0  0  0  0  0  0  0  0  0
  -46.3854  -29.3161    6.0845 C   0  0  0  0  0  0  0  0  0  0  0  0
  -45.3120  -29.0439    3.9077 C   0  0  0  0  0  0  0  0  0  0  0  0
  -44.4648  -28.1288    0.2843 C   0  0  0  0  0  0  0  0  0  0  0  0
  -42.9196  -29.4525    1.7627 C   0  0  0  0  0  0  0  0  0  0  0  0
  -43.3280  -30.9406    1.9304 C   0  0  0  0  0  0  0  0  0  0  0  0
  -44.0822  -28.4073    1.7456 C   0  0  2  0  0  0  0  0  0  0  0  0
  -45.6500  -32.6284   -0.1081 N   0  0  0  0  0  0  0  0  0  0  0  0
  -45.1844  -29.5006    6.6567 N   0  0  0  0  0  0  0  0  0  0  0  0
  -44.1222  -29.2062    4.5442 N   0  0  0  0  0  0  0  0  0  0  0  0
  -43.4382  -32.3626   -0.0882 N   0  0  0  0  0  0  0  0  0  0  0  0
  -47.6611  -29.2408    6.6326 N   0  0  0  0  0  0  0  0  0  0  0  0
  -44.0582  -31.5704    0.8047 N   0  0  0  0  0  0  0  0  0  0  0  0
  -45.3196  -28.7990    2.5242 N   0  0  0  0  0  0  0  0  0  0  0  0
  -52.0593  -28.6752    4.5054 F   0  0  0  0  0  0  0  0  0  0  0  0
  -48.0746  -28.8630    2.2395 H   0  0  0  0  0  0  0  0  0  0  0  0
  -50.5806  -28.6879    2.3015 H   0  0  0  0  0  0  0  0  0  0  0  0
  -50.5198  -28.9548    6.6157 H   0  0  0  0  0  0  0  0  0  0  0  0
  -44.2877  -33.8271   -1.3785 H   0  0  0  0  0  0  0  0  0  0  0  0
  -43.1188  -29.6565    6.3343 H   0  0  0  0  0  0  0  0  0  0  0  0
  -46.1514  -31.1000    1.3194 H   0  0  0  0  0  0  0  0  0  0  0  0
  -45.2829  -27.3941    0.2526 H   0  0  0  0  0  0  0  0  0  0  0  0
  -43.5923  -27.7292   -0.2533 H   0  0  0  0  0  0  0  0  0  0  0  0
  -44.7931  -29.0638   -0.1932 H   0  0  0  0  0  0  0  0  0  0  0  0
  -42.2500  -29.1939    2.5961 H   0  0  0  0  0  0  0  0  0  0  0  0
  -42.3740  -29.3609    0.8119 H   0  0  0  0  0  0  0  0  0  0  0  0
  -42.4077  -31.5204    2.0944 H   0  0  0  0  0  0  0  0  0  0  0  0
  -43.9689  -31.0101    2.8216 H   0  0  0  0  0  0  0  0  0  0  0  0
  -43.6916  -27.4726    2.1743 H   0  0  0  0  0  0  0  0  0  0  0  0
  -47.8710  -29.3135    7.6076 H   0  0  0  0  0  0  0  0  0  0  0  0
  -45.6578  -29.6383    2.0985 H   0  0  0  0  0  0  0  0  0  0  0  0
  1  2  2  0  0  0  0
  1  7  1  0  0  0  0
  2 10  1  0  0  0  0
  3  9  1  0  0  0  0
  3 10  2  0  0  0  0
  4 17  1  0  0  0  0
  4 20  2  0  0  0  0
  5 18  2  0  0  0  0
  5 19  1  0  0  0  0
  6 17  2  0  0  0  0
  6 22  1  0  0  0  0
  7  8  1  0  0  0  0
  7  9  2  0  0  0  0
  8 11  2  0  0  0  0
  8 12  1  0  0  0  0
  9 21  1  0  0  0  0
 10 24  1  0  0  0  0
 11 18  1  0  0  0  0
 11 21  1  0  0  0  0
 12 19  2  0  0  0  0
 12 23  1  0  0  0  0
 13 16  1  0  0  0  0
 14 15  1  0  0  0  0
 14 16  1  0  0  0  0
 15 22  1  0  0  0  0
 16 23  1  0  0  0  0
 20 22  1  0  0  0  0
  1 25  1  0  0  0  0
  2 26  1  0  0  0  0
  3 27  1  0  0  0  0
  4 28  1  0  0  0  0
  5 29  1  0  0  0  0
  6 30  1  0  0  0  0
 13 31  1  0  0  0  0
 13 32  1  0  0  0  0
 13 33  1  0  0  0  0
 14 34  1  0  0  0  0
 14 35  1  0  0  0  0
 15 36  1  0  0  0  0
 15 37  1  0  0  0  0
 16 38  1  0  0  0  0
 21 39  1  0  0  0  0
 23 40  1  0  0  0  0
M  END
> <POSIT::Probability>
0.9

> <POSIT::Method>
SHAPEFIT

> <ReceptorTitle>
UCSF-P4515-REFINED_LIGAND-BOUND-STATE_A__DU__LA1_A-201(A)

> <OMEGA_C>
zW1CwjQG58GUcktACBdIwmc35sG9MU5AuP1HwjF658FQdLVA8acxwgY2BMLx5SK/iVAwwsu868H0
DrxApbM1wgpk/cFYNkM/cq8/wvv858GA44xAQvI5wuD66MFdd5ZAJGdCwlhm6ME7HbRA1thKwoBW
5sFY3Y5ApIo5wmuH6sERtMJAdD81wudZ6MFqF3pAANwxwsoH4cGgj5E+uK0rwtCe68HanuE/1E8t
wkSG98FKFvc/KVQwwhtC48HXcN8/kZk2wnuDAsIoWd29y7w0wkIB7MHsA9VAJ30wwjmm6cG/aZFA
wsAtwklzAcK4rLS98aQ+wjft6cFCPtRAlTswwheQ/ME6Ak4/S0c1wlxk5sFpjCFArTxQwsdm5cEY
LJBAZ0xAwlPn5sFEUw9AklJKwr2A5cHTSxNAThRKwnaj58Gas9NAjyYxwvhOB8IDcrC/qHkswmtA
7cGLsspABps4wtHM+MGG4qg/tyE1wjEn28G3ToE+hl4uwnrV3cFvsoG+KywzwqyC6ME71EW++/8o
whON6cG1JiZABX8pwjDj6sF42U8/f6EpwtMp/MGZCgZAKeAvwp4U+MGglTRAOcQuwtjH28GFKAtA
7ns/wh2C6sGAcfNAk6E2wkAb7cHdTQZA

> <OMEGA_E>
MALIPg==

> <OMEGA_NBR>
     13966

$$$$
CACHE3HI_1715_98
  -OEChem-03092622503D

 37 40  0     1  0  0  0  0  0999 V2000
  -48.7203  -28.9167    3.2249 C   0  0  0  0  0  0  0  0  0  0  0  0
  -50.1174  -28.7067    3.3434 C   0  0  0  0  0  0  0  0  0  0  0  0
  -49.9458  -28.7191    5.7916 C   0  0  0  0  0  0  0  0  0  0  0  0
  -44.0615  -29.6442    5.6403 C   0  0  0  0  0  0  0  0  0  0  0  0
  -43.7598  -32.9477   -0.0617 C   0  0  0  0  0  0  0  0  0  0  0  0
  -47.9657  -29.0193    4.4108 C   0  0  0  0  0  0  0  0  0  0  0  0
  -46.5270  -29.2433    4.6255 C   0  0  0  0  0  0  0  0  0  0  0  0
  -48.5617  -28.9285    5.6761 C   0  0  0  0  0  0  0  0  0  0  0  0
  -50.7263  -28.6066    4.6222 C   0  0  0  0  0  0  0  0  0  0  0  0
  -46.3298  -29.2820    6.0087 C   0  0  0  0  0  0  0  0  0  0  0  0
  -45.4322  -29.4034    3.7349 C   0  0  0  0  0  0  0  0  0  0  0  0
  -44.4535  -31.0480    0.8659 C   0  0  0  0  0  0  0  0  0  0  0  0
  -43.2167  -28.8790    1.4694 C   0  0  0  0  0  0  0  0  0  0  0  0
  -46.8251  -31.8337    1.2528 C   0  0  0  0  0  0  0  0  0  0  0  0
  -44.5867  -29.5651    1.2532 C   0  0  2  0  0  0  0  0  0  0  0  0
  -45.0957  -29.4783    6.5048 N   0  0  0  0  0  0  0  0  0  0  0  0
  -44.2090  -29.6165    4.2845 N   0  0  0  0  0  0  0  0  0  0  0  0
  -43.4061  -31.6381    0.3289 N   0  0  0  0  0  0  0  0  0  0  0  0
  -45.0238  -33.1634    0.2182 N   0  0  0  0  0  0  0  0  0  0  0  0
  -47.5620  -29.0854    6.6313 N   0  0  0  0  0  0  0  0  0  0  0  0
  -45.4350  -32.0140    0.7831 N   0  0  0  0  0  0  0  0  0  0  0  0
  -45.5995  -29.2961    2.3447 N   0  0  0  0  0  0  0  0  0  0  0  0
  -52.0600  -28.4033    4.7311 F   0  0  0  0  0  0  0  0  0  0  0  0
  -48.2491  -28.9955    2.2563 H   0  0  0  0  0  0  0  0  0  0  0  0
  -50.7237  -28.6222    2.4536 H   0  0  0  0  0  0  0  0  0  0  0  0
  -50.4074  -28.6452    6.7652 H   0  0  0  0  0  0  0  0  0  0  0  0
  -43.0739  -29.8059    6.0462 H   0  0  0  0  0  0  0  0  0  0  0  0
  -43.0927  -33.6625   -0.5205 H   0  0  0  0  0  0  0  0  0  0  0  0
  -43.3730  -27.8251    1.7430 H   0  0  0  0  0  0  0  0  0  0  0  0
  -42.6739  -29.3909    2.2776 H   0  0  0  0  0  0  0  0  0  0  0  0
  -42.6290  -28.9334    0.5412 H   0  0  0  0  0  0  0  0  0  0  0  0
  -47.3995  -32.7520    1.0610 H   0  0  0  0  0  0  0  0  0  0  0  0
  -46.8227  -31.6215    2.3322 H   0  0  0  0  0  0  0  0  0  0  0  0
  -47.2876  -30.9930    0.7149 H   0  0  0  0  0  0  0  0  0  0  0  0
  -45.0008  -29.0797    0.3572 H   0  0  0  0  0  0  0  0  0  0  0  0
  -47.7063  -29.0608    7.6205 H   0  0  0  0  0  0  0  0  0  0  0  0
  -46.3629  -29.9072    2.1354 H   0  0  0  0  0  0  0  0  0  0  0  0
  1  2  2  0  0  0  0
  1  6  1  0  0  0  0
  2  9  1  0  0  0  0
  3  8  1  0  0  0  0
  3  9  2  0  0  0  0
  4 16  2  0  0  0  0
  4 17  1  0  0  0  0
  5 18  1  0  0  0  0
  5 19  2  0  0  0  0
  6  7  1  0  0  0  0
  6  8  2  0  0  0  0
  7 10  2  0  0  0  0
  7 11  1  0  0  0  0
  8 20  1  0  0  0  0
  9 23  1  0  0  0  0
 10 16  1  0  0  0  0
 10 20  1  0  0  0  0
 11 17  2  0  0  0  0
 11 22  1  0  0  0  0
 12 15  1  0  0  0  0
 12 18  2  0  0  0  0
 12 21  1  0  0  0  0
 13 15  1  0  0  0  0
 14 21  1  0  0  0  0
 15 22  1  0  0  0  0
 19 21  1  0  0  0  0
  1 24  1  0  0  0  0
  2 25  1  0  0  0  0
  3 26  1  0  0  0  0
  4 27  1  0  0  0  0
  5 28  1  0  0  0  0
 13 29  1  0  0  0  0
 13 30  1  0  0  0  0
 13 31  1  0  0  0  0
 14 32  1  0  0  0  0
 14 33  1  0  0  0  0
 14 34  1  0  0  0  0
 15 35  1  0  0  0  0
 20 36  1  0  0  0  0
 22 37  1  0  0  0  0
M  END
> <POSIT::Probability>
0.9

> <POSIT::Method>
SHAPEFIT

> <ReceptorTitle>
UCSF-P4515-REFINED_LIGAND-BOUND-STATE_A__DU__LA1_A-201(A)

> <OMEGA_C>
juFCwldV58HyY05ARHhIwlWn5cFa+lVAhMhHwsbA5cH9VLlABD8wwkEn7cFFfbRACAovwnzKA8Kg
y3y93Nw/wpYn6MEgJY1AoBs6wlby6cEBBJRAKz9CwoZt58HforVAu+dKwkXa5MHY6JNAqlE5wndB
6sFbR8BAlro1wjo668FQCW9AXtAxwjpi+MEyrl0/6N0swjUI58HrFLw/3kw7wl+r/sEvXKA/vFgy
wkuF7MGTaKA//GE0wpLT68FvJ9BADtYwwpvu7MFtGolA2p8twuga/cH0Yag+Zxg0wlqnBMKwcF8+
gT8+wvCu6MFpM9RAbb01wkoOAMLme0g/6GU2wnhe6sF2DxZAZj1Qwgg648EaZZdAC/9AwrP258Gh
ZhBAB+VKwlH65MGiBx1AKqFJwkUp5cGnfNhAoksswoBy7sEoesFA414swmWmBsLDPQW/6X0twtGZ
3sFLG98/DrIqwqkg68HExBFAEIQqwq1358GsiQo/Cpk9wgoCA8Lnz4c/ako7wuX4/MEaQhVAfCY9
wqfx98H3BDc/zAA0wiCj6MHL3rY+QdM+wpV86MEw2/NAm3M5wglC78HWqghA

> <OMEGA_E>
YOi0Pg==

> <OMEGA_NBR>
     15230

$$$$
CACHE3HI_1717_13
  -OEChem-03092622503D

 37 39  0     1  0  0  0  0  0999 V2000
  -46.0297  -33.0408   -0.9139 C   0  0  0  0  0  0  0  0  0  0  0  0
  -47.1197  -32.3327   -0.3300 C   0  0  0  0  0  0  0  0  0  0  0  0
  -48.0009  -29.3741    4.6898 C   0  0  0  0  0  0  0  0  0  0  0  0
  -44.8711  -32.9029   -0.1816 C   0  0  0  0  0  0  0  0  0  0  0  0
  -44.1274  -29.3991    5.7317 C   0  0  0  0  0  0  0  0  0  0  0  0
  -46.5945  -29.3876    4.7485 C   0  0  0  0  0  0  0  0  0  0  0  0
  -46.7522  -31.6805    0.8269 C   0  0  0  0  0  0  0  0  0  0  0  0
  -46.3104  -29.3721    6.1025 C   0  0  0  0  0  0  0  0  0  0  0  0
  -45.5123  -29.4101    3.8756 C   0  0  0  0  0  0  0  0  0  0  0  0
  -42.8548  -28.0061    0.3665 C   0  0  0  0  0  0  0  0  0  0  0  0
  -47.6042  -30.8291    1.7355 C   0  0  0  0  0  0  0  0  0  0  0  0
  -44.0286  -28.0214    1.3353 C   0  0  0  0  0  0  0  0  0  0  0  0
  -47.0486  -29.4204    1.9268 C   0  0  0  0  0  0  0  0  0  0  0  0
  -44.5735  -29.4239    1.5783 C   0  0  0  0  0  0  0  0  0  0  0  0
  -48.5679  -29.3524    5.9015 N   0  0  0  0  0  0  0  0  0  0  0  0
  -45.0953  -29.3765    6.6733 N   0  0  0  0  0  0  0  0  0  0  0  0
  -44.2563  -29.4163    4.3831 N   0  0  0  0  0  0  0  0  0  0  0  0
  -47.5152  -29.3519    6.7397 N   0  0  0  0  0  0  0  0  0  0  0  0
  -45.7081  -29.4266    2.4835 N   0  0  3  0  0  0  0  0  0  0  0  0
  -45.0996  -31.9231    1.2044 S   0  0  0  0  0  0  0  0  0  0  0  0
  -46.0915  -33.6225   -1.8245 H   0  0  0  0  0  0  0  0  0  0  0  0
  -48.1207  -32.3047   -0.7415 H   0  0  0  0  0  0  0  0  0  0  0  0
  -48.6402  -29.3795    3.8185 H   0  0  0  0  0  0  0  0  0  0  0  0
  -43.9010  -33.3296   -0.3939 H   0  0  0  0  0  0  0  0  0  0  0  0
  -43.1087  -29.4037    6.1043 H   0  0  0  0  0  0  0  0  0  0  0  0
  -43.1486  -28.4548   -0.5877 H   0  0  0  0  0  0  0  0  0  0  0  0
  -42.0104  -28.5778    0.7645 H   0  0  0  0  0  0  0  0  0  0  0  0
  -42.5154  -26.9850    0.1667 H   0  0  0  0  0  0  0  0  0  0  0  0
  -48.6291  -30.7808    1.3457 H   0  0  0  0  0  0  0  0  0  0  0  0
  -47.6756  -31.3258    2.7114 H   0  0  0  0  0  0  0  0  0  0  0  0
  -43.7178  -27.5691    2.2844 H   0  0  0  0  0  0  0  0  0  0  0  0
  -44.8301  -27.3959    0.9251 H   0  0  0  0  0  0  0  0  0  0  0  0
  -46.9875  -28.9097    0.9601 H   0  0  0  0  0  0  0  0  0  0  0  0
  -47.6796  -28.8194    2.5894 H   0  0  0  0  0  0  0  0  0  0  0  0
  -43.8066  -30.0811    1.9999 H   0  0  0  0  0  0  0  0  0  0  0  0
  -44.9161  -29.8608    0.6350 H   0  0  0  0  0  0  0  0  0  0  0  0
  -47.6933  -29.3365    7.7361 H   0  0  0  0  0  0  0  0  0  0  0  0
  1  2  1  0  0  0  0
  1  4  2  0  0  0  0
  2  7  2  0  0  0  0
  3  6  1  0  0  0  0
  3 15  2  0  0  0  0
  4 20  1  0  0  0  0
  5 16  2  0  0  0  0
  5 17  1  0  0  0  0
  6  8  2  0  0  0  0
  6  9  1  0  0  0  0
  7 11  1  0  0  0  0
  7 20  1  0  0  0  0
  8 16  1  0  0  0  0
  8 18  1  0  0  0  0
  9 17  2  0  0  0  0
  9 19  1  0  0  0  0
 10 12  1  0  0  0  0
 11 13  1  0  0  0  0
 12 14  1  0  0  0  0
 13 19  1  0  0  0  0
 14 19  1  0  0  0  0
 15 18  1  0  0  0  0
  1 21  1  0  0  0  0
  2 22  1  0  0  0  0
  3 23  1  0  0  0  0
  4 24  1  0  0  0  0
  5 25  1  0  0  0  0
 10 26  1  0  0  0  0
 10 27  1  0  0  0  0
 10 28  1  0  0  0  0
 11 29  1  0  0  0  0
 11 30  1  0  0  0  0
 12 31  1  0  0  0  0
 12 32  1  0  0  0  0
 13 33  1  0  0  0  0
 13 34  1  0  0  0  0
 14 35  1  0  0  0  0
 14 36  1  0  0  0  0
 18 37  1  0  0  0  0
M  END
> <POSIT::Probability>
0.5

> <POSIT::Method>
HYBRID

> <ReceptorTitle>
UCSF-P4515-REFINED_LIGAND-BOUND-STATE_A__DU__LA1_A-201(A)

> <OMEGA_C>
Xh44wsEpBMK392m/k3o8wrNUAcJe9Ki+4wBAwhP+6sGMEpZAAnwzwpKcA8Ls+zm+dYIwwl0x68FO
ardAy2A6wtUZ68HS85dAOwI7wrRx/cFLsVM/4D05wg766sESSMNAkAw2wvBH68G4CXhAUmsrwnYM
4ME6prs+p2o+wuah9sEYJd4/UR0wwtgr4MF27Ko/ujE8wgVd68Hun/Y/PksywiFk68EKBso/iUVC
ws/R6sFs2bxAl2E0wgsD68HQi9VAfQYxwqdU68FwQoxAkQ8+wrnQ6sGaq9dAHtU2wqtp68HX8R5A
+GU0wpNi/8EwKJo/tl04wm19BsLWiOm/nHtAwgk4AcKz0T2/nY9CwkMJ68HIYnRAo5ovwnlRBcKm
qMm+TW8swrE668G7VsNALJgswoWj48Fncha/rQoowl+f5MF3uEM/uA8qwj/h18Hkrio+NIRCwhM/
9sGsPqw/xLM+wjGb+sEjiC1AAd8uwoqN3MEYMxJAB1IzwtYq28GZ1Ww/MPM7wgFH58Ffy3U/4rc+
whKO5sEduCVA7jkvwiem8MFQ/f8/IKozwgXj7sHXjCI/78U+wj6x6sEAjvdA

> <OMEGA_E>
gb42wQ==

> <OMEGA_NBR>
     16472

$$$$
CACHE3HI_1717_15
  -OEChem-03092622503D

 41 43  0     1  0  0  0  0  0999 V2000
  -49.5972  -28.7657    4.1840 C   0  0  0  0  0  0  0  0  0  0  0  0
  -49.9275  -29.7653    6.3587 C   0  0  0  0  0  0  0  0  0  0  0  0
  -50.9782  -28.7307    3.9911 C   0  0  0  0  0  0  0  0  0  0  0  0
  -51.3085  -29.7302    6.1658 C   0  0  0  0  0  0  0  0  0  0  0  0
  -46.6100  -29.4419    4.6739 C   0  0  0  0  0  0  0  0  0  0  0  0
  -49.0719  -29.2830    5.3680 C   0  0  0  0  0  0  0  0  0  0  0  0
  -51.8338  -29.2130    4.9817 C   0  0  0  0  0  0  0  0  0  0  0  0
  -47.6459  -29.3192    5.5676 C   0  0  0  0  0  0  0  0  0  0  0  0
  -45.4515  -29.4139    5.4732 C   0  0  0  0  0  0  0  0  0  0  0  0
  -43.5474  -30.4072    0.8938 C   0  0  0  0  0  0  0  0  0  0  0  0
  -42.0853  -27.0843    1.8382 C   0  0  0  0  0  0  0  0  0  0  0  0
  -44.0180  -29.5130    5.0158 C   0  0  0  0  0  0  0  0  0  0  0  0
  -43.3662  -28.9178    0.9602 C   0  0  0  0  0  0  0  0  0  0  0  0
  -43.8304  -28.9351    3.6106 C   0  0  0  0  0  0  0  0  0  0  0  0
  -42.3818  -29.0781    3.1459 C   0  0  0  0  0  0  0  0  0  0  0  0
  -45.7251  -29.2834    6.7739 N   0  0  0  0  0  0  0  0  0  0  0  0
  -43.7710  -31.1782    1.9959 N   0  0  0  0  0  0  0  0  0  0  0  0
  -43.5036  -31.0925   -0.2515 N   0  0  0  0  0  0  0  0  0  0  0  0
  -43.8785  -32.4253    1.5533 N   0  0  0  0  0  0  0  0  0  0  0  0
  -47.0676  -29.2284    6.7995 N   0  0  0  0  0  0  0  0  0  0  0  0
  -43.7146  -32.3271    0.2263 N   0  0  0  0  0  0  0  0  0  0  0  0
  -42.2272  -28.5413    1.7998 N   0  0  2  0  0  0  0  0  0  0  0  0
  -53.1597  -29.1780    4.7960 F   0  0  0  0  0  0  0  0  0  0  0  0
  -48.9433  -28.3863    3.4022 H   0  0  0  0  0  0  0  0  0  0  0  0
  -49.5331  -30.1725    7.2870 H   0  0  0  0  0  0  0  0  0  0  0  0
  -51.3873  -28.3278    3.0693 H   0  0  0  0  0  0  0  0  0  0  0  0
  -51.9741  -30.1057    6.9371 H   0  0  0  0  0  0  0  0  0  0  0  0
  -46.6806  -29.5385    3.5995 H   0  0  0  0  0  0  0  0  0  0  0  0
  -41.2356  -26.7970    2.4642 H   0  0  0  0  0  0  0  0  0  0  0  0
  -41.9258  -26.6935    0.8293 H   0  0  0  0  0  0  0  0  0  0  0  0
  -42.9915  -26.6272    2.2452 H   0  0  0  0  0  0  0  0  0  0  0  0
  -43.3714  -28.9883    5.7301 H   0  0  0  0  0  0  0  0  0  0  0  0
  -43.7014  -30.5632    5.0383 H   0  0  0  0  0  0  0  0  0  0  0  0
  -43.1996  -28.5044   -0.0400 H   0  0  0  0  0  0  0  0  0  0  0  0
  -44.2582  -28.4315    1.3687 H   0  0  0  0  0  0  0  0  0  0  0  0
  -44.1201  -27.8762    3.6042 H   0  0  0  0  0  0  0  0  0  0  0  0
  -44.4980  -29.4486    2.9062 H   0  0  0  0  0  0  0  0  0  0  0  0
  -41.7109  -28.5455    3.8284 H   0  0  0  0  0  0  0  0  0  0  0  0
  -42.0891  -30.1333    3.1448 H   0  0  0  0  0  0  0  0  0  0  0  0
  -47.5240  -29.1292    7.6981 H   0  0  0  0  0  0  0  0  0  0  0  0
  -43.7491  -33.1398   -0.3798 H   0  0  0  0  0  0  0  0  0  0  0  0
  1  3  2  0  0  0  0
  1  6  1  0  0  0  0
  2  4  1  0  0  0  0
  2  6  2  0  0  0  0
  3  7  1  0  0  0  0
  4  7  2  0  0  0  0
  5  8  2  0  0  0  0
  5  9  1  0  0  0  0
  6  8  1  0  0  0  0
  7 23  1  0  0  0  0
  8 20  1  0  0  0  0
  9 12  1  0  0  0  0
  9 16  2  0  0  0  0
 10 13  1  0  0  0  0
 10 17  1  0  0  0  0
 10 18  2  0  0  0  0
 11 22  1  0  0  0  0
 12 14  1  0  0  0  0
 13 22  1  0  0  0  0
 14 15  1  0  0  0  0
 15 22  1  0  0  0  0
 16 20  1  0  0  0  0
 17 19  2  0  0  0  0
 18 21  1  0  0  0  0
 19 21  1  0  0  0  0
  1 24  1  0  0  0  0
  2 25  1  0  0  0  0
  3 26  1  0  0  0  0
  4 27  1  0  0  0  0
  5 28  1  0  0  0  0
 11 29  1  0  0  0  0
 11 30  1  0  0  0  0
 11 31  1  0  0  0  0
 12 32  1  0  0  0  0
 12 33  1  0  0  0  0
 13 34  1  0  0  0  0
 13 35  1  0  0  0  0
 14 36  1  0  0  0  0
 14 37  1  0  0  0  0
 15 38  1  0  0  0  0
 15 39  1  0  0  0  0
 20 40  1  0  0  0  0
 21 41  1  0  0  0  0
M  END
> <POSIT::Probability>
0.33

> <POSIT::Method>
HYBRID

> <ReceptorTitle>
UCSF-P4515-REFINED_LIGAND-BOUND-STATE_A__DU__LA1_A-201(A)

> <OMEGA_C>
gmNGwjcg5sE744VAvLVHwlkf7sFWestAsOlLwmDY5cFpbX9A3jtNwovX7cEiTsVAonA6whSJ68FY
kJVAoklEwptD6sHoxqtAylVPwiG06cEkap9AbZU+wrCN6sEwKrJATc41wqlP68FiJK9AgjAuwuRB
88Ec0mQ/T1cowpys2MEUSus/exIwwrga7MEqgaBAA3ctwq1X58Hw0HU/S1Ivwhh758GAFGdA+4Yp
wgKg6MFxVklAiOY2wlhE6sH/w9hAdxUvwuVs+cHhev8/tAMuwle9+MFIwYC+nIMvwoCzAcIs0cY/
OEU8ws/T6cGPldlAuNsuwvtOAcIQxmc+negowptU5MHjYOY/lKNUwpBs6cGqeJlA/cVDwj0X48HA
vVlA5SFGwkVh8cGyLulAnoxNwmmf4sEfb0RAguVPwovY8MHC/N1A5rg6ws1O7MGiXWZAOPEkwj1g
1sHCtR1ACrQnwjiM1cEUTVQ/S/crwpcE1cHNsA9AU3wtwvXn58H0XLdASM4uwnyB9MFiOaFAXMws
wv0I5MGA3iO9bggxwsJz48G2Ma8/9XowwnMC38HBq2ZA6f0xwqeW68GJ/zlA8tcmwjpd5MHOA3VA
RVsowuoQ8cE7RElAiRg+wp0I6cGLVvZADP8uwiGPBMLYeMK+

> <OMEGA_E>
tP0DwQ==

> <OMEGA_NBR>
     17792

$$$$
CACHE3-HO_1715_20
  -OEChem-03092622493D

 40 43  0     0  0  0  0  0  0999 V2000
  -48.4112  -29.0637    3.2370 C   0  0  0  0  0  0  0  0  0  0  0  0
  -49.8149  -28.9404    3.1837 C   0  0  0  0  0  0  0  0  0  0  0  0
  -49.9371  -29.0126    5.6385 C   0  0  0  0  0  0  0  0  0  0  0  0
  -44.0048  -29.4106    6.0926 C   0  0  0  0  0  0  0  0  0  0  0  0
  -47.8065  -29.1641    4.5075 C   0  0  0  0  0  0  0  0  0  0  0  0
  -46.4060  -29.2830    4.8824 C   0  0  0  0  0  0  0  0  0  0  0  0
  -48.5392  -29.1349    5.6949 C   0  0  0  0  0  0  0  0  0  0  0  0
  -50.5742  -28.9194    4.3793 C   0  0  0  0  0  0  0  0  0  0  0  0
  -46.3296  -29.3155    6.2701 C   0  0  0  0  0  0  0  0  0  0  0  0
  -45.2509  -29.3120    4.0998 C   0  0  0  0  0  0  0  0  0  0  0  0
  -44.8372  -32.4577    0.9466 C   0  0  0  0  0  0  0  0  0  0  0  0
  -43.8251  -32.6105    1.8716 C   0  0  0  0  0  0  0  0  0  0  0  0
  -44.8285  -31.0552    0.3788 C   0  0  0  0  0  0  0  0  0  0  0  0
  -43.0654  -31.3164    2.0408 C   0  0  0  0  0  0  0  0  0  0  0  0
  -43.7012  -30.2804    1.0904 C   0  0  0  0  0  0  0  0  0  0  0  0
  -44.2273  -29.0139    1.8226 C   0  0  0  0  0  0  0  0  0  0  0  0
  -42.6586  -29.8012    0.0555 C   0  0  0  0  0  0  0  0  0  0  0  0
  -45.1227  -29.3921    6.8692 N   0  0  0  0  0  0  0  0  0  0  0  0
  -44.0508  -29.3551    4.7329 N   0  0  0  0  0  0  0  0  0  0  0  0
  -47.6354  -29.2377    6.7585 N   0  0  0  0  0  0  0  0  0  0  0  0
  -45.3532  -29.2944    2.7191 N   0  0  0  0  0  0  0  0  0  0  0  0
  -41.6414  -29.0292    0.6951 O   0  0  0  0  0  0  0  0  0  0  0  0
  -51.9198  -28.8143    4.3184 F   0  0  0  0  0  0  0  0  0  0  0  0
  -47.8183  -29.0806    2.3344 H   0  0  0  0  0  0  0  0  0  0  0  0
  -50.3125  -28.8617    2.2284 H   0  0  0  0  0  0  0  0  0  0  0  0
  -50.5198  -28.9900    6.5476 H   0  0  0  0  0  0  0  0  0  0  0  0
  -43.0407  -29.4718    6.5754 H   0  0  0  0  0  0  0  0  0  0  0  0
  -45.5375  -33.2308    0.6670 H   0  0  0  0  0  0  0  0  0  0  0  0
  -43.6068  -33.5266    2.4002 H   0  0  0  0  0  0  0  0  0  0  0  0
  -44.6373  -31.0885   -0.7040 H   0  0  0  0  0  0  0  0  0  0  0  0
  -45.7967  -30.5674    0.5653 H   0  0  0  0  0  0  0  0  0  0  0  0
  -43.1422  -30.9687    3.0816 H   0  0  0  0  0  0  0  0  0  0  0  0
  -42.0069  -31.4651    1.7811 H   0  0  0  0  0  0  0  0  0  0  0  0
  -43.4058  -28.5856    2.4156 H   0  0  0  0  0  0  0  0  0  0  0  0
  -44.5542  -28.2835    1.0679 H   0  0  0  0  0  0  0  0  0  0  0  0
  -42.1995  -30.6759   -0.4283 H   0  0  0  0  0  0  0  0  0  0  0  0
  -43.1593  -29.1828   -0.7040 H   0  0  0  0  0  0  0  0  0  0  0  0
  -47.8877  -29.2531    7.7260 H   0  0  0  0  0  0  0  0  0  0  0  0
  -45.6888  -30.2000    2.4594 H   0  0  0  0  0  0  0  0  0  0  0  0
  -41.0079  -28.7414    0.0483 H   0  0  0  0  0  0  0  0  0  0  0  0
  1  2  1  0  0  0  0
  1  5  2  0  0  0  0
  2  8  2  0  0  0  0
  3  7  2  0  0  0  0
  3  8  1  0  0  0  0
  4 18  1  0  0  0  0
  4 19  2  0  0  0  0
  5  6  1  0  0  0  0
  5  7  1  0  0  0  0
  6  9  1  0  0  0  0
  6 10  2  0  0  0  0
  7 20  1  0  0  0  0
  8 23  1  0  0  0  0
  9 18  2  0  0  0  0
  9 20  1  0  0  0  0
 10 19  1  0  0  0  0
 10 21  1  0  0  0  0
 11 12  2  0  0  0  0
 11 13  1  0  0  0  0
 12 14  1  0  0  0  0
 13 15  1  0  0  0  0
 14 15  1  0  0  0  0
 15 16  1  0  0  0  0
 15 17  1  0  0  0  0
 16 21  1  0  0  0  0
 17 22  1  0  0  0  0
  1 24  1  0  0  0  0
  2 25  1  0  0  0  0
  3 26  1  0  0  0  0
  4 27  1  0  0  0  0
 11 28  1  0  0  0  0
 12 29  1  0  0  0  0
 13 30  1  0  0  0  0
 13 31  1  0  0  0  0
 14 32  1  0  0  0  0
 14 33  1  0  0  0  0
 16 34  1  0  0  0  0
 16 35  1  0  0  0  0
 17 36  1  0  0  0  0
 17 37  1  0  0  0  0
 20 38  1  0  0  0  0
 21 39  1  0  0  0  0
 22 40  1  0  0  0  0
M  END
> <POSIT::Probability>
0.9

> <POSIT::Method>
SHAPEFIT

> <ReceptorTitle>
UCSF-P4523-REFINED_LIGAND-BOUND-STATE_A__DU__LA1_A-201(A)

> <OMEGA_C>
E6VBwl+C6MGgKk9AaUJHwt6F58EWwUtAob9Hwt8Z6MGObrRA9AQwwtNI68Gx9sJA1Dk/wh5Q6cGD
PZBAuJ85wphD6sG9PJxAGihCwl8U6cGNPLZA8ktKwtxa58GZI4xAilE5wg+G6sEHpchA5gA1wup+
6sFUMYNAP1kzwqfUAcJAV3I/5UwvwhxxAsK9j+8/bFAzwgpx+MHM7ME+9EIswvmH+sHsnAJACM4u
wkI+8sGekIs/yOgwwnoc6MGmSuk/W6IqwtBo7sHgaWM9mH00whEj68Ef0NtA+TMwwjnX6sHcc5dA
qYo+wsjm6cGiRdhAr2k1wgRb6sErBS5AxJAmwtE76MEs8TE/7a1PwsWD5sGDMIpA+kU/wiCl6MEN
ZxVABEBJwsjk5sHmnQ5ARxRKwpTr58GWhdFArykswjLG68HZadJAayY2wlTsBMIuwyo/ZW0uwjwb
BsIJnRlAoIwywjO1+ME4ODS/xi83wgeK9MEquBA/mJEswtm/98HWOEVADQcownu4+8FD+uM/iZ8t
wmSv5MF3mRpAiDcywphE4sFdr4g/Qcwowj9o9cGnTNu+I6Mswlx26cHDNzS/Co0/wmgG6sGOO/dA
XsE2woGZ8cGSZx1AEwgkwlnu5cE5yEU9

> <OMEGA_E>
iMvxPg==

> <OMEGA_NBR>
      1323

$$$$
CACHE3-HO_1715_21
  -OEChem-03092622493D

 40 43  0     1  0  0  0  0  0999 V2000
  -48.5299  -29.1403    3.2904 C   0  0  0  0  0  0  0  0  0  0  0  0
  -49.9278  -28.9341    3.2913 C   0  0  0  0  0  0  0  0  0  0  0  0
  -49.9280  -28.7580    5.7430 C   0  0  0  0  0  0  0  0  0  0  0  0
  -44.0345  -29.5937    6.0036 C   0  0  0  0  0  0  0  0  0  0  0  0
  -47.8658  -29.1408    4.5335 C   0  0  0  0  0  0  0  0  0  0  0  0
  -46.4536  -29.3034    4.8561 C   0  0  0  0  0  0  0  0  0  0  0  0
  -48.5411  -28.9745    5.7455 C   0  0  0  0  0  0  0  0  0  0  0  0
  -50.6215  -28.7359    4.5125 C   0  0  0  0  0  0  0  0  0  0  0  0
  -46.3334  -29.2989    6.2439 C   0  0  0  0  0  0  0  0  0  0  0  0
  -45.3172  -29.3930    4.0386 C   0  0  0  0  0  0  0  0  0  0  0  0
  -42.6161  -31.4167    1.0274 C   0  0  0  0  0  0  0  0  0  0  0  0
  -42.6527  -31.4529    2.5685 C   0  0  0  0  0  0  0  0  0  0  0  0
  -43.9072  -31.0603    1.7688 C   0  0  0  0  0  0  0  0  0  0  0  0
  -45.7997  -31.9189    0.3303 C   0  0  0  0  0  0  0  0  0  0  0  0
  -44.2859  -29.5625    1.7492 C   0  0  0  0  0  0  0  0  0  0  0  0
  -45.1085  -32.0522    1.6962 C   0  0  1  0  0  0  0  0  0  0  0  0
  -45.1198  -29.4502    6.8100 N   0  0  0  0  0  0  0  0  0  0  0  0
  -44.1116  -29.5449    4.6444 N   0  0  0  0  0  0  0  0  0  0  0  0
  -47.6039  -29.0764    6.7755 N   0  0  0  0  0  0  0  0  0  0  0  0
  -44.6796  -33.4588    1.8589 N   0  0  0  0  0  0  0  0  0  0  0  0
  -45.4169  -29.2798    2.6551 N   0  0  0  0  0  0  0  0  0  0  0  0
  -51.9586  -28.5368    4.5069 F   0  0  0  0  0  0  0  0  0  0  0  0
  -47.9886  -29.2924    2.3683 H   0  0  0  0  0  0  0  0  0  0  0  0
  -50.4707  -28.9274    2.3576 H   0  0  0  0  0  0  0  0  0  0  0  0
  -50.4591  -28.6100    6.6716 H   0  0  0  0  0  0  0  0  0  0  0  0
  -43.0690  -29.7533    6.4606 H   0  0  0  0  0  0  0  0  0  0  0  0
  -42.0451  -30.6321    0.5094 H   0  0  0  0  0  0  0  0  0  0  0  0
  -42.5509  -32.3550    0.4569 H   0  0  0  0  0  0  0  0  0  0  0  0
  -42.6159  -32.4163    3.0981 H   0  0  0  0  0  0  0  0  0  0  0  0
  -42.1102  -30.6934    3.1506 H   0  0  0  0  0  0  0  0  0  0  0  0
  -46.6472  -32.6182    0.2779 H   0  0  0  0  0  0  0  0  0  0  0  0
  -46.1656  -30.8893    0.2036 H   0  0  0  0  0  0  0  0  0  0  0  0
  -45.0810  -32.1536   -0.4687 H   0  0  0  0  0  0  0  0  0  0  0  0
  -43.4159  -28.9694    2.0673 H   0  0  0  0  0  0  0  0  0  0  0  0
  -44.5686  -29.2785    0.7248 H   0  0  0  0  0  0  0  0  0  0  0  0
  -45.8277  -31.7910    2.4864 H   0  0  0  0  0  0  0  0  0  0  0  0
  -47.8126  -29.0011    7.7506 H   0  0  0  0  0  0  0  0  0  0  0  0
  -45.4775  -34.0593    1.8061 H   0  0  0  0  0  0  0  0  0  0  0  0
  -44.0349  -33.6967    1.1324 H   0  0  0  0  0  0  0  0  0  0  0  0
  -46.1539  -29.8968    2.3791 H   0  0  0  0  0  0  0  0  0  0  0  0
  1  2  2  0  0  0  0
  1  5  1  0  0  0  0
  2  8  1  0  0  0  0
  3  7  1  0  0  0  0
  3  8  2  0  0  0  0
  4 17  2  0  0  0  0
  4 18  1  0  0  0  0
  5  6  1  0  0  0  0
  5  7  2  0  0  0  0
  6  9  2  0  0  0  0
  6 10  1  0  0  0  0
  7 19  1  0  0  0  0
  8 22  1  0  0  0  0
  9 17  1  0  0  0  0
  9 19  1  0  0  0  0
 10 18  2  0  0  0  0
 10 21  1  0  0  0  0
 11 12  1  0  0  0  0
 11 13  1  0  0  0  0
 12 13  1  0  0  0  0
 13 15  1  0  0  0  0
 13 16  1  0  0  0  0
 14 16  1  0  0  0  0
 15 21  1  0  0  0  0
 16 20  1  0  0  0  0
  1 23  1  0  0  0  0
  2 24  1  0  0  0  0
  3 25  1  0  0  0  0
  4 26  1  0  0  0  0
 11 27  1  0  0  0  0
 11 28  1  0  0  0  0
 12 29  1  0  0  0  0
 12 30  1  0  0  0  0
 14 31  1  0  0  0  0
 14 32  1  0  0  0  0
 14 33  1  0  0  0  0
 15 34  1  0  0  0  0
 15 35  1  0  0  0  0
 16 36  1  0  0  0  0
 19 37  1  0  0  0  0
 20 38  1  0  0  0  0
 20 39  1  0  0  0  0
 21 40  1  0  0  0  0
M  END
> <POSIT::Probability>
0.83

> <POSIT::Method>
SHAPEFIT

> <ReceptorTitle>
UCSF-P4523-REFINED_LIGAND-BOUND-STATE_A__DU__LA1_A-201(A)

> <OMEGA_C>
mR5Cwlgf6cGKllJAHLZHwh5558E2pFJATLZHwnYQ5sFZxrdATiMwwtK/7MFJHcBAl3Y/wmQg6cER
EpFAhNA5wm5t6sHvZJtAISpCwtrL58EF27dAc3xKwjjj5cEaZpBAaFU5wiBk6sFFzsdAzEQ1wtAk
68H5O4FA3HYqwnZV+8F0goM/YpwqwoKf+8GaYSRA+aAvwmx7+MG4Z+I/4zI3wvhZ/8EQHqk+yyQx
whSA7MG05N8/D280wn41AMIEHdk/pno0wvKZ68HH69lARnIwwgBc7MFVn5RAXGo+wo6c6MEp0dhA
6Lcyws7VBcIY7+0/8ao1wgg96sH67SlAktVPwlBL5MHDOJBAVPQ/wr5W6sGVkhdA9eFJwmpr58FN
4xZAH9ZJwjbh5MEGftVAtEYswrAG7sE6vc5ALC4owpsO9cFGZQI/FDQqwnlrAcIx8Ok+unYqwj6q
AcL/R0ZA0nAowiaM9cFKo0lAw5Y6wgF5AsJ+R44+j6k4wlod98H2fVA+6VI0wkOdAMI59u++36kt
wlPB58GxTgRAPEYywk866sHViTk/h083wuJT/sHAIR9AGEA/wjIC6MHnBPhA8+g1wrQ8CMKALuc/
uiMwwnDJBsJv8pA/nJ04wqEs78HbQxhA

> <OMEGA_E>
eMviPg==

> <OMEGA_NBR>
      2651

$$$$
CACHE3-HO_1715_32
  -OEChem-03092622493D

 33 35  0     1  0  0  0  0  0999 V2000
  -48.4325  -29.2774    3.2107 C   0  0  0  0  0  0  0  0  0  0  0  0
  -49.8395  -29.1419    3.1730 C   0  0  0  0  0  0  0  0  0  0  0  0
  -49.9164  -28.9579    5.6231 C   0  0  0  0  0  0  0  0  0  0  0  0
  -43.9925  -29.4771    6.0479 C   0  0  0  0  0  0  0  0  0  0  0  0
  -47.8048  -29.2498    4.4710 C   0  0  0  0  0  0  0  0  0  0  0  0
  -46.3957  -29.3579    4.8320 C   0  0  0  0  0  0  0  0  0  0  0  0
  -48.5203  -29.1045    5.6634 C   0  0  0  0  0  0  0  0  0  0  0  0
  -50.5769  -28.9796    4.3744 C   0  0  0  0  0  0  0  0  0  0  0  0
  -46.3127  -29.3160    6.2223 C   0  0  0  0  0  0  0  0  0  0  0  0
  -45.2281  -29.4011    4.0517 C   0  0  0  0  0  0  0  0  0  0  0  0
  -44.5163  -33.5008    1.6605 C   0  0  0  0  0  0  0  0  0  0  0  0
  -44.2826  -32.3544    0.9425 C   0  0  0  0  0  0  0  0  0  0  0  0
  -43.1433  -30.1289    0.8128 C   0  0  0  0  0  0  0  0  0  0  0  0
  -44.0305  -31.0615    1.6660 C   0  0  1  0  0  0  0  0  0  0  0  0
  -45.1071  -29.3841    6.8221 N   0  0  0  0  0  0  0  0  0  0  0  0
  -44.0337  -29.4627    4.6869 N   0  0  0  0  0  0  0  0  0  0  0  0
  -47.6063  -29.1473    6.7180 N   0  0  0  0  0  0  0  0  0  0  0  0
  -45.2500  -29.2996    2.6737 N   0  0  0  0  0  0  0  0  0  0  0  0
  -45.3213  -30.4753    1.9154 O   0  0  0  0  0  0  0  0  0  0  0  0
  -51.9227  -28.8557    4.3319 F   0  0  0  0  0  0  0  0  0  0  0  0
  -47.8587  -29.3979    2.3037 H   0  0  0  0  0  0  0  0  0  0  0  0
  -50.3558  -29.1620    2.2245 H   0  0  0  0  0  0  0  0  0  0  0  0
  -50.4787  -28.8299    6.5363 H   0  0  0  0  0  0  0  0  0  0  0  0
  -43.0323  -29.5663    6.5342 H   0  0  0  0  0  0  0  0  0  0  0  0
  -44.5183  -33.4708    2.7401 H   0  0  0  0  0  0  0  0  0  0  0  0
  -44.6980  -34.4327    1.1459 H   0  0  0  0  0  0  0  0  0  0  0  0
  -44.2799  -32.3815   -0.1371 H   0  0  0  0  0  0  0  0  0  0  0  0
  -42.9691  -29.1888    1.3567 H   0  0  0  0  0  0  0  0  0  0  0  0
  -42.1798  -30.6209    0.6134 H   0  0  0  0  0  0  0  0  0  0  0  0
  -43.6487  -29.9128   -0.1400 H   0  0  0  0  0  0  0  0  0  0  0  0
  -43.5164  -31.2693    2.6161 H   0  0  0  0  0  0  0  0  0  0  0  0
  -47.8436  -29.0687    7.6863 H   0  0  0  0  0  0  0  0  0  0  0  0
  -46.0457  -28.7442    2.4318 H   0  0  0  0  0  0  0  0  0  0  0  0
  1  2  2  0  0  0  0
  1  5  1  0  0  0  0
  2  8  1  0  0  0  0
  3  7  1  0  0  0  0
  3  8  2  0  0  0  0
  4 15  2  0  0  0  0
  4 16  1  0  0  0  0
  5  6  1  0  0  0  0
  5  7  2  0  0  0  0
  6  9  2  0  0  0  0
  6 10  1  0  0  0  0
  7 17  1  0  0  0  0
  8 20  1  0  0  0  0
  9 15  1  0  0  0  0
  9 17  1  0  0  0  0
 10 16  2  0  0  0  0
 10 18  1  0  0  0  0
 11 12  2  0  0  0  0
 12 14  1  0  0  0  0
 13 14  1  0  0  0  0
 14 19  1  0  0  0  0
 18 19  1  0  0  0  0
  1 21  1  0  0  0  0
  2 22  1  0  0  0  0
  3 23  1  0  0  0  0
  4 24  1  0  0  0  0
 11 25  1  0  0  0  0
 11 26  1  0  0  0  0
 12 27  1  0  0  0  0
 13 28  1  0  0  0  0
 13 29  1  0  0  0  0
 13 30  1  0  0  0  0
 14 31  1  0  0  0  0
 17 32  1  0  0  0  0
 18 33  1  0  0  0  0
M  END
> <POSIT::Probability>
0.9

> <POSIT::Method>
SHAPEFIT

> <ReceptorTitle>
UCSF-P4523-REFINED_LIGAND-BOUND-STATE_A__DU__LA1_A-201(A)

> <OMEGA_C>
27pBwhM46sFrfE1AsltHwpUi6cHfEUtAW6pHwq+p58GO8LNARfgvwh/R68FeiMFAHDg/won/6cFq
Eo9ANJU5wg/d6sG6n5pA0hRCwg/W6MH4OrVAx05Kwi7W58F6+4tAQUA5wjKH6sHGHMdAiOk0wnU1
68FSp4FApxAywsgABsJ6jNQ/XyExwu9qAcK8SXE/s5IswvcH8cHMEFA/Mh8wwvh9+MHyQNU/tm00
wrAS68FyTtpAiiIwwrOz68E6+5VA0Ww+wr4t6cEE+tZACwA1woZl6sG3HStAB0k1wnrN88E2LfU/
3bBPwo/Y5sFUn4pAR28/wgAv68GCcBNAUmxJwtxL6cEFXw5AJupJwqKj5sEZKdFADCEswrmH7MFK
GNFAxhIywhDiBcIZXi9Ay8oywhK7CcIBrJI/ph4xwqSGAcLbagy+Y+ArwquC6cGDqa0/JLgowon3
9MGLBh0/TpguwnJN78HIZA++1BAuwnEn+sE7bidA4V8/wqyM6MHE9fVAwy44whn05cHtoRtA

> <OMEGA_E>
lGjpPg==

> <OMEGA_NBR>
      3835

$$$$
CACHE3HI_1696_81
  -OEChem-03092622493D

 37 39  0     0  0  0  0  0  0999 V2000
  -48.7660  -29.1241    3.3569 C   0  0  0  0  0  0  0  0  0  0  0  0
  -50.1409  -28.8525    3.4595 C   0  0  0  0  0  0  0  0  0  0  0  0
  -49.9507  -28.7209    5.9049 C   0  0  0  0  0  0  0  0  0  0  0  0
  -44.0897  -29.7994    5.7064 C   0  0  0  0  0  0  0  0  0  0  0  0
  -48.0058  -29.1846    4.5472 C   0  0  0  0  0  0  0  0  0  0  0  0
  -46.5848  -29.4264    4.7650 C   0  0  0  0  0  0  0  0  0  0  0  0
  -48.5757  -28.9908    5.8063 C   0  0  0  0  0  0  0  0  0  0  0  0
  -50.7311  -28.6523    4.7272 C   0  0  0  0  0  0  0  0  0  0  0  0
  -46.3438  -29.3829    6.1351 C   0  0  0  0  0  0  0  0  0  0  0  0
  -45.5450  -29.6569    3.8607 C   0  0  0  0  0  0  0  0  0  0  0  0
  -42.5099  -30.9892    0.1908 C   0  0  0  0  0  0  0  0  0  0  0  0
  -44.9074  -31.6310   -0.1973 C   0  0  0  0  0  0  0  0  0  0  0  0
  -43.7374  -32.2218    2.0087 C   0  0  0  0  0  0  0  0  0  0  0  0
  -44.2449  -29.7398    1.3830 C   0  0  0  0  0  0  0  0  0  0  0  0
  -43.8828  -31.1553    0.8714 C   0  0  0  0  0  0  0  0  0  0  0  0
  -45.0915  -29.5746    6.5993 N   0  0  0  0  0  0  0  0  0  0  0  0
  -44.2960  -29.8392    4.3600 N   0  0  0  0  0  0  0  0  0  0  0  0
  -47.5621  -29.1185    6.7624 N   0  0  0  0  0  0  0  0  0  0  0  0
  -44.9629  -32.8977    2.3034 O   0  0  0  0  0  0  0  0  0  0  0  0
  -52.0540  -28.3968    4.8114 F   0  0  0  0  0  0  0  0  0  0  0  0
  -45.8807  -29.6960    2.1429 S   0  0  0  0  0  0  0  0  0  0  0  0
  -48.3024  -29.2825    2.3944 H   0  0  0  0  0  0  0  0  0  0  0  0
  -50.7474  -28.7966    2.5676 H   0  0  0  0  0  0  0  0  0  0  0  0
  -50.4079  -28.5671    6.8712 H   0  0  0  0  0  0  0  0  0  0  0  0
  -43.0883  -29.9528    6.0807 H   0  0  0  0  0  0  0  0  0  0  0  0
  -41.7707  -30.6526    0.9325 H   0  0  0  0  0  0  0  0  0  0  0  0
  -42.1916  -31.9534   -0.2324 H   0  0  0  0  0  0  0  0  0  0  0  0
  -42.5876  -30.2433   -0.6140 H   0  0  0  0  0  0  0  0  0  0  0  0
  -45.8951  -31.7553    0.2707 H   0  0  0  0  0  0  0  0  0  0  0  0
  -44.9739  -30.8821   -1.0002 H   0  0  0  0  0  0  0  0  0  0  0  0
  -44.5779  -32.5921   -0.6187 H   0  0  0  0  0  0  0  0  0  0  0  0
  -42.9923  -32.9681    1.6958 H   0  0  0  0  0  0  0  0  0  0  0  0
  -43.3885  -31.7156    2.9209 H   0  0  0  0  0  0  0  0  0  0  0  0
  -43.4981  -29.4295    2.1286 H   0  0  0  0  0  0  0  0  0  0  0  0
  -44.2284  -29.0401    0.5343 H   0  0  0  0  0  0  0  0  0  0  0  0
  -47.6917  -29.0328    7.7502 H   0  0  0  0  0  0  0  0  0  0  0  0
  -44.8173  -33.5302    2.9971 H   0  0  0  0  0  0  0  0  0  0  0  0
  1  2  2  0  0  0  0
  1  5  1  0  0  0  0
  2  8  1  0  0  0  0
  3  7  1  0  0  0  0
  3  8  2  0  0  0  0
  4 16  2  0  0  0  0
  4 17  1  0  0  0  0
  5  6  1  0  0  0  0
  5  7  2  0  0  0  0
  6  9  2  0  0  0  0
  6 10  1  0  0  0  0
  7 18  1  0  0  0  0
  8 20  1  0  0  0  0
  9 16  1  0  0  0  0
  9 18  1  0  0  0  0
 10 17  2  0  0  0  0
 10 21  1  0  0  0  0
 11 15  1  0  0  0  0
 12 15  1  0  0  0  0
 13 15  1  0  0  0  0
 13 19  1  0  0  0  0
 14 15  1  0  0  0  0
 14 21  1  0  0  0  0
  1 22  1  0  0  0  0
  2 23  1  0  0  0  0
  3 24  1  0  0  0  0
  4 25  1  0  0  0  0
 11 26  1  0  0  0  0
 11 27  1  0  0  0  0
 11 28  1  0  0  0  0
 12 29  1  0  0  0  0
 12 30  1  0  0  0  0
 12 31  1  0  0  0  0
 13 32  1  0  0  0  0
 13 33  1  0  0  0  0
 14 34  1  0  0  0  0
 14 35  1  0  0  0  0
 18 36  1  0  0  0  0
 19 37  1  0  0  0  0
M  END
> <POSIT::Probability>
0.75

> <POSIT::Method>
SHAPEFIT

> <ReceptorTitle>
UCSF-P4523-REFINED_LIGAND-BOUND-STATE_A__DU__LA1_A-201(A)

> <OMEGA_C>
WBBDwjj+6MF011ZATpBIwtzR5sG+aF1AiM1HwmfE5cG19LxA21swwipl7sHnmrZA9QVAwgR66cGf
gpFAz1Y6wk1p68EZe5hAg01CwkDt58FDzblApOxKwgI45cH/RJdAAWA5wkIQ68GvUsRAFS42wmZB
7cEiFXdAKwoqwvHp98EAV0M+LKEzwjgM/cFgA0q+EPMuwhbjAMI4jwBAzvowwijr7cGYBLE/B4gv
wgY++cGwE18/qF00ws+Y7MFFLdNAIi8xwqC27sHlhItAmj8+wrXy6MFpZdhA+9kzwjiXA8J2axNA
SzdQwros48Fl95lA1IU3wn6R7cHqJQlArTVBwotC6sF8PRlAW/1KwnNf5sFAVCRAr6FJwmWJ5MGc
4NtAdFoswmqf78FUlcJAMBUnwnE49cGFuG4/N8QowoSg/8HJAm6+s1kqwlLy8cHuLB2/lJQ3wssK
/sHUl4o+PuUzwnsO98GfB4C/wU8ywldeAsIBYx6/I/grwk3fA8KgD9k/140twny5/cFZ8DpAE/4t
wqZv68H5OghA5OkwwjhS6MEXyQg/RsQ+wkZD6MH/AfhA6kQzwugeBsJL0T9A

> <OMEGA_E>
Zn8GPw==

> <OMEGA_NBR>
      5093

$$$$
CACHE3HI_1704_69
  -OEChem-03092622493D

 17 17  0     0  0  0  0  0  0999 V2000
  -44.1043  -31.2632    1.4029 C   0  0  0  0  0  0  0  0  0  0  0  0
  -45.0914  -30.3417    1.0532 C   0  0  0  0  0  0  0  0  0  0  0  0
  -42.4152  -29.5584    1.1233 C   0  0  0  0  0  0  0  0  0  0  0  0
  -43.4022  -28.6369    0.7736 C   0  0  0  0  0  0  0  0  0  0  0  0
  -42.7662  -30.8714    1.4378 C   0  0  0  0  0  0  0  0  0  0  0  0
  -44.7405  -29.0287    0.7387 C   0  0  0  0  0  0  0  0  0  0  0  0
  -43.4756  -26.1781    1.1893 C   0  0  0  0  0  0  0  0  0  0  0  0
  -43.0112  -27.3156    0.4606 N   0  0  0  0  0  0  0  0  0  0  0  0
  -41.8181  -31.7558    1.7745 F   0  0  0  0  0  0  0  0  0  0  0  0
  -46.1242  -27.8166    0.2706 Br  0  0  0  0  0  0  0  0  0  0  0  0
  -44.3767  -32.2855    1.6477 H   0  0  0  0  0  0  0  0  0  0  0  0
  -46.1287  -30.6659    1.0308 H   0  0  0  0  0  0  0  0  0  0  0  0
  -41.3688  -29.2660    1.1550 H   0  0  0  0  0  0  0  0  0  0  0  0
  -44.1519  -26.4855    1.9922 H   0  0  0  0  0  0  0  0  0  0  0  0
  -42.6309  -25.6401    1.6286 H   0  0  0  0  0  0  0  0  0  0  0  0
  -44.0097  -25.4951    0.5228 H   0  0  0  0  0  0  0  0  0  0  0  0
  -42.3816  -27.2022   -0.3096 H   0  0  0  0  0  0  0  0  0  0  0  0
  1  2  2  0  0  0  0
  1  5  1  0  0  0  0
  2  6  1  0  0  0  0
  3  4  1  0  0  0  0
  3  5  2  0  0  0  0
  4  6  2  0  0  0  0
  4  8  1  0  0  0  0
  5  9  1  0  0  0  0
  6 10  1  0  0  0  0
  7  8  1  0  0  0  0
  1 11  1  0  0  0  0
  2 12  1  0  0  0  0
  3 13  1  0  0  0  0
  7 14  1  0  0  0  0
  7 15  1  0  0  0  0
  7 16  1  0  0  0  0
  8 17  1  0  0  0  0
M  END
> <POSIT::Probability>
0.02

> <POSIT::Method>
FRED

> <ReceptorTitle>
UCSF-P4523-REFINED_LIGAND-BOUND-STATE_A__DU__LA1_A-201(A)

> <OMEGA_C>
1Gowwvoa+sGfkrM/kl00wsW78sGAz4Y/NakpwoZ37MG+yY8/45stwlUY5cG6DUY/ihArwo349sEB
Crg/PfYywr066MF6Hj0/EOctwqZs0cHCOZg/cAsswnCG2sH+2Os+yEUnwtoL/sFrIuM/O384wlaI
3sH8ioo+vYExwlQkAcLj5tI/xIM4wsxT9cGv74M/p3klwrgg6sE015M/gZswwj3i08FR//4/EYYq
wtcezcHddtA/4gkwwuj1y8FK1wU/xYYpwi2e2cFIfp6+

> <OMEGA_E>
6R6nwA==

> <OMEGA_NBR>
      5915

$$$$
CACHE3HI_1708_62
  -OEChem-03092622493D

 35 37  0     1  0  0  0  0  0999 V2000
  -50.1789  -29.8017    5.0389 C   0  0  0  0  0  0  0  0  0  0  0  0
  -49.2144  -28.9555    5.5661 C   0  0  0  0  0  0  0  0  0  0  0  0
  -49.8716  -30.5915    3.9336 C   0  0  0  0  0  0  0  0  0  0  0  0
  -47.9502  -28.9073    4.9807 C   0  0  0  0  0  0  0  0  0  0  0  0
  -47.1063  -31.2438    1.7437 C   0  0  0  0  0  0  0  0  0  0  0  0
  -48.6114  -30.5509    3.3418 C   0  0  0  0  0  0  0  0  0  0  0  0
  -47.6325  -29.6929    3.8755 C   0  0  0  0  0  0  0  0  0  0  0  0
  -46.1525  -30.4085    2.2624 C   0  0  0  0  0  0  0  0  0  0  0  0
  -42.9131  -30.8818    0.4603 C   0  0  0  0  0  0  0  0  0  0  0  0
  -44.3854  -29.1171    1.1001 C   0  0  0  0  0  0  0  0  0  0  0  0
  -42.9274  -29.3941    0.7641 C   0  0  1  0  0  0  0  0  0  0  0  0
  -43.9580  -31.4987    1.4350 C   0  0  0  0  0  0  0  0  0  0  0  0
  -43.2602  -31.9270    2.7346 C   0  0  0  0  0  0  0  0  0  0  0  0
  -44.6038  -32.6953    0.7246 C   0  0  0  0  0  0  0  0  0  0  0  0
  -48.3388  -31.3227    2.2753 N   0  0  0  0  0  0  0  0  0  0  0  0
  -46.4055  -29.6287    3.3295 N   0  0  0  0  0  0  0  0  0  0  0  0
  -44.9018  -30.3765    1.6650 N   0  0  3  0  0  0  0  0  0  0  0  0
  -42.1085  -29.0886    1.8836 O   0  0  0  0  0  0  0  0  0  0  0  0
  -51.1682  -29.8485    5.4840 H   0  0  0  0  0  0  0  0  0  0  0  0
  -49.4419  -28.3343    6.4269 H   0  0  0  0  0  0  0  0  0  0  0  0
  -50.6382  -31.2507    3.5311 H   0  0  0  0  0  0  0  0  0  0  0  0
  -47.2029  -28.2384    5.4032 H   0  0  0  0  0  0  0  0  0  0  0  0
  -46.9253  -31.8801    0.8853 H   0  0  0  0  0  0  0  0  0  0  0  0
  -43.1508  -31.0783   -0.5940 H   0  0  0  0  0  0  0  0  0  0  0  0
  -41.9081  -31.2955    0.6363 H   0  0  0  0  0  0  0  0  0  0  0  0
  -44.4885  -28.3059    1.8327 H   0  0  0  0  0  0  0  0  0  0  0  0
  -44.9394  -28.8264    0.1986 H   0  0  0  0  0  0  0  0  0  0  0  0
  -42.5964  -28.8028   -0.0930 H   0  0  0  0  0  0  0  0  0  0  0  0
  -43.9889  -32.3585    3.4174 H   0  0  0  0  0  0  0  0  0  0  0  0
  -42.7967  -31.0622    3.2045 H   0  0  0  0  0  0  0  0  0  0  0  0
  -42.4939  -32.6679    2.5132 H   0  0  0  0  0  0  0  0  0  0  0  0
  -45.3414  -33.1516    1.3792 H   0  0  0  0  0  0  0  0  0  0  0  0
  -43.8392  -33.4265    0.4766 H   0  0  0  0  0  0  0  0  0  0  0  0
  -45.0900  -32.3577   -0.1876 H   0  0  0  0  0  0  0  0  0  0  0  0
  -42.1613  -28.1275    2.0238 H   0  0  0  0  0  0  0  0  0  0  0  0
  1  2  1  0  0  0  0
  1  3  2  0  0  0  0
  2  4  2  0  0  0  0
  3  6  1  0  0  0  0
  4  7  1  0  0  0  0
  5  8  1  0  0  0  0
  5 15  2  0  0  0  0
  6  7  2  0  0  0  0
  6 15  1  0  0  0  0
  7 16  1  0  0  0  0
  8 16  2  0  0  0  0
  8 17  1  0  0  0  0
  9 11  1  0  0  0  0
  9 12  1  0  0  0  0
 10 11  1  0  0  0  0
 10 17  1  0  0  0  0
 11 18  1  0  0  0  0
 12 13  1  0  0  0  0
 12 14  1  0  0  0  0
 12 17  1  0  0  0  0
  1 19  1  0  0  0  0
  2 20  1  0  0  0  0
  3 21  1  0  0  0  0
  4 22  1  0  0  0  0
  5 23  1  0  0  0  0
  9 24  1  0  0  0  0
  9 25  1  0  0  0  0
 10 26  1  0  0  0  0
 10 27  1  0  0  0  0
 11 28  1  0  0  0  0
 13 29  1  0  0  0  0
 13 30  1  0  0  0  0
 13 31  1  0  0  0  0
 14 32  1  0  0  0  0
 14 33  1  0  0  0  0
 14 34  1  0  0  0  0
 18 35  1  0  0  0  0
M  END
> <POSIT::Probability>
0.24

> <POSIT::Method>
FRED

> <ReceptorTitle>
UCSF-P4523-REFINED_LIGAND-BOUND-STATE_A__DU__LA1_A-201(A)

> <OMEGA_C>
PLdIwsxp7sH6PqFAmNtEwtGk58GLHbJAkXxHwma79MGYv3tAAs0/whFC58E3Yp9A0mw8wjTz+cEQ
Md8/HHJCwjBo9MHe31VAoYc+wvmK7cHcB3hAIZw4wq1E88G0yxBACqcrwvYN98Hgp+s+sIoxwuTv
6MHgzow/qbUrwgon68GgnUM/+dQvwlH9+8FYrrc/ZwotwpJq/8F4Ay9ATmoywv3HAsLggTk/6FpB
wuCU+sEUnxFAOp85wocH7cEoF1VAdJszwvoC88FoHtU/IG8owoW16MEwGfE/NqxMwrjJ7sG4fK9A
fsRFwpKs4sF+qc1AkY1KwoIB+sEI/WFAxs88wj7o4cHY5qxAhrM7wl4K/8Hgo2I/Yposwkqg+MFg
Ehi/66EnwjRd+sEA5SI/QPQxwnRy4sH4leo/6sEzwoac5sHAUEs+rmIqwhRs5sGAaL69mPQvwiVv
AcIgtlpA2S8rwnJ/+MEIFk1AuvkpwvirAsK41yBAnV01wkGbBMLQibA/Wlsvwr60BcKAA/Q+L1w0
wlRuAcKAGEC+LqUowhQF4cGwhgFA

> <OMEGA_E>
is3swA==

> <OMEGA_NBR>
      7111

$$$$
CACHE3HI_1714_51
  -OEChem-03092622493D

 52 55  0     1  0  0  0  0  0999 V2000
  -44.5567  -29.4309    0.6340 C   0  0  0  0  0  0  0  0  0  0  0  0
  -45.7229  -30.1693    0.4620 C   0  0  0  0  0  0  0  0  0  0  0  0
  -45.2171  -31.4017    2.4771 C   0  0  0  0  0  0  0  0  0  0  0  0
  -42.1355  -30.1805    3.8429 C   0  0  0  0  0  0  0  0  0  0  0  0
  -43.7209  -29.6846    1.7355 C   0  0  0  0  0  0  0  0  0  0  0  0
  -46.0541  -31.1556    1.3847 C   0  0  0  0  0  0  0  0  0  0  0  0
  -44.0438  -30.6780    2.6742 C   0  0  0  0  0  0  0  0  0  0  0  0
  -42.5413  -28.9832    1.9660 C   0  0  0  0  0  0  0  0  0  0  0  0
  -50.2919  -29.1645    4.9718 C   0  0  0  0  0  0  0  0  0  0  0  0
  -51.5284  -29.6446    4.8114 C   0  0  0  0  0  0  0  0  0  0  0  0
  -49.7493  -29.0363    6.3463 C   0  0  0  0  0  0  0  0  0  0  0  0
  -51.9048  -29.9451    7.1849 C   0  0  0  0  0  0  0  0  0  0  0  0
  -47.2966  -31.9497    1.2095 C   0  0  0  0  0  0  0  0  0  0  0  0
  -52.0706  -29.7736    3.4427 C   0  0  0  0  0  0  0  0  0  0  0  0
  -50.5665  -31.6202    0.5747 C   0  0  0  0  0  0  0  0  0  0  0  0
  -50.5891  -31.7741    2.9550 C   0  0  0  0  0  0  0  0  0  0  0  0
  -49.7201  -32.1048    1.7499 C   0  0  2  0  0  0  0  0  0  0  0  0
  -51.3291  -30.3827    1.1062 C   0  0  0  0  0  0  0  0  0  0  0  0
  -50.5749  -29.0888    0.7616 C   0  0  0  0  0  0  0  0  0  0  0  0
  -52.7301  -30.3478    0.4768 C   0  0  0  0  0  0  0  0  0  0  0  0
  -43.2516  -30.9290    3.7313 N   0  0  0  0  0  0  0  0  0  0  0  0
  -41.7256  -29.2079    3.0134 N   0  0  0  0  0  0  0  0  0  0  0  0
  -52.3179  -30.0244    5.8624 N   0  0  0  0  0  0  0  0  0  0  0  0
  -50.6110  -29.4431    7.3562 N   0  0  0  0  0  0  0  0  0  0  0  0
  -51.3754  -30.6001    2.5701 N   0  0  0  0  0  0  0  0  0  0  0  0
  -42.1495  -27.9663    1.0602 N   0  0  0  0  0  0  0  0  0  0  0  0
  -48.4433  -31.4384    1.8103 N   0  0  0  0  0  0  0  0  0  0  0  0
  -48.6174  -28.6004    6.5360 O   0  0  0  0  0  0  0  0  0  0  0  0
  -52.6160  -30.2870    8.1303 O   0  0  0  0  0  0  0  0  0  0  0  0
  -47.2524  -33.0015    0.5769 O   0  0  0  0  0  0  0  0  0  0  0  0
  -53.0969  -29.1525    3.1682 O   0  0  0  0  0  0  0  0  0  0  0  0
  -44.3197  -28.6660   -0.1010 H   0  0  0  0  0  0  0  0  0  0  0  0
  -46.3642  -29.9683   -0.3921 H   0  0  0  0  0  0  0  0  0  0  0  0
  -45.4885  -32.1772    3.1921 H   0  0  0  0  0  0  0  0  0  0  0  0
  -41.5012  -30.3877    4.6961 H   0  0  0  0  0  0  0  0  0  0  0  0
  -49.6586  -28.8622    4.1457 H   0  0  0  0  0  0  0  0  0  0  0  0
  -49.9095  -31.3381   -0.2670 H   0  0  0  0  0  0  0  0  0  0  0  0
  -51.2391  -32.4121    0.2071 H   0  0  0  0  0  0  0  0  0  0  0  0
  -51.2416  -32.6149    3.2277 H   0  0  0  0  0  0  0  0  0  0  0  0
  -49.9919  -31.4904    3.8348 H   0  0  0  0  0  0  0  0  0  0  0  0
  -49.5349  -33.1678    1.6865 H   0  0  0  0  0  0  0  0  0  0  0  0
  -51.1274  -28.2353    1.1436 H   0  0  0  0  0  0  0  0  0  0  0  0
  -50.4762  -29.0037   -0.3167 H   0  0  0  0  0  0  0  0  0  0  0  0
  -49.5873  -29.1135    1.2149 H   0  0  0  0  0  0  0  0  0  0  0  0
  -53.2691  -29.4813    0.8466 H   0  0  0  0  0  0  0  0  0  0  0  0
  -53.2673  -31.2523    0.7443 H   0  0  0  0  0  0  0  0  0  0  0  0
  -52.6381  -30.2854   -0.6037 H   0  0  0  0  0  0  0  0  0  0  0  0
  -53.2488  -30.3806    5.6657 H   0  0  0  0  0  0  0  0  0  0  0  0
  -50.2691  -29.3689    8.3102 H   0  0  0  0  0  0  0  0  0  0  0  0
  -42.7016  -27.8098    0.2455 H   0  0  0  0  0  0  0  0  0  0  0  0
  -41.2777  -27.5052    1.2029 H   0  0  0  0  0  0  0  0  0  0  0  0
  -48.3790  -30.5893    2.3713 H   0  0  0  0  0  0  0  0  0  0  0  0
  1  2  2  0  0  0  0
  1  5  1  0  0  0  0
  2  6  1  0  0  0  0
  3  6  2  0  0  0  0
  3  7  1  0  0  0  0
  4 21  1  0  0  0  0
  4 22  2  0  0  0  0
  5  7  1  0  0  0  0
  5  8  2  0  0  0  0
  6 13  1  0  0  0  0
  7 21  2  0  0  0  0
  8 22  1  0  0  0  0
  8 26  1  0  0  0  0
  9 10  2  0  0  0  0
  9 11  1  0  0  0  0
 10 14  1  0  0  0  0
 10 23  1  0  0  0  0
 11 24  1  0  0  0  0
 11 28  2  0  0  0  0
 12 23  1  0  0  0  0
 12 24  1  0  0  0  0
 12 29  2  0  0  0  0
 13 27  1  0  0  0  0
 13 30  2  0  0  0  0
 14 25  1  0  0  0  0
 14 31  2  0  0  0  0
 15 17  1  0  0  0  0
 15 18  1  0  0  0  0
 16 17  1  0  0  0  0
 16 25  1  0  0  0  0
 17 27  1  0  0  0  0
 18 19  1  0  0  0  0
 18 20  1  0  0  0  0
 18 25  1  0  0  0  0
  1 32  1  0  0  0  0
  2 33  1  0  0  0  0
  3 34  1  0  0  0  0
  4 35  1  0  0  0  0
  9 36  1  0  0  0  0
 15 37  1  0  0  0  0
 15 38  1  0  0  0  0
 16 39  1  0  0  0  0
 16 40  1  0  0  0  0
 17 41  1  0  0  0  0
 19 42  1  0  0  0  0
 19 43  1  0  0  0  0
 19 44  1  0  0  0  0
 20 45  1  0  0  0  0
 20 46  1  0  0  0  0
 20 47  1  0  0  0  0
 23 48  1  0  0  0  0
 24 49  1  0  0  0  0
 26 50  1  0  0  0  0
 26 51  1  0  0  0  0
 27 52  1  0  0  0  0
M  END
> <POSIT::Probability>
0.05

> <POSIT::Method>
FRED

> <ReceptorTitle>
UCSF-P4523-REFINED_LIGAND-BOUND-STATE_A__DU__LA1_A-201(A)

> <OMEGA_C>
DToywmZy68HQTyI/NuQ2ws5a8cGgh+w+Wt40wpY2+8EiiR5Auooowqpx8cHU8XVAMeIuwgZ67cFo
Jd4/ZTc4wpU++cGQPbE/2ywwwoZs9cHyJStAVCoqwp7d58Espvs/7ypJwuNQ6cG7GJ9ACR1OwhYo
7cHL9plAPf9GwkJK6MHwFMtAjJ5PwoKP78EC6+VAwi89wvyY/8G4z5o/TkhQwkYw7sECVlxAIERK
wiH2/MEAIhM/SFtKwkIx/sFUHj1AZuFGwlxrAMKQ+98/BVFNwsgP88HAl40/rUxKwtu16MEA+kI/
l+tSwlPI8sFgHvQ+pAEtwoZu98Fmzm5A/uYmwtup6cFA3EBAjEVRwuox8MHNmLtAtXFKwmqL68E/
ZutAYIBNwgbN9MEYfSRAGpkowua638EAtIc/+MVBwu6B+8Fouec/OHhCwrjN5MHYJtFAxHZSws1L
8sGlFQJBcgI9wokBBMIAshM/O2NUwls46cEgw0pAaUcxwvhT5cGAxM69+XQ5wvy+78EAvci+RfQ1
wn61AMKoS0xARQEmwgwa88F8RpZAdaJGwtLl5sHLqYRAYKNHwni0+sHgsIi+1PRMwgGmAcKAHFQ+
XPdMwrR1AsK8kk5AtvdHwmDs+8FqbXVAtSNGwsyrBMKo3tc/boJMwszh4cGgYJI/oedJwqQH6MEg
JKK+XllGwmro6MFYgZs/lhNVwrLZ68HguFg/qhFVwrcE+sFwij4/YY1SwpJI8sEwjxq/uv5UwmgL
88FGTbVAiRNJwprz6sGU9gRBcs4qwmp63sHAXXs+WxwlwqEK3MEQ+pk/H4RBwsm29MGcwhdA

> <OMEGA_E>
JDcVwQ==

> <OMEGA_NBR>
      8650

$$$$
CACHE3HI_1715_88
  -OEChem-03092622493D

 42 45  0     1  0  0  0  0  0999 V2000
  -48.4183  -29.0760    3.2146 C   0  0  0  0  0  0  0  0  0  0  0  0
  -49.8323  -29.0024    3.1829 C   0  0  0  0  0  0  0  0  0  0  0  0
  -49.9250  -29.0907    5.6361 C   0  0  0  0  0  0  0  0  0  0  0  0
  -43.9994  -29.4323    6.0970 C   0  0  0  0  0  0  0  0  0  0  0  0
  -47.7943  -29.1529    4.4750 C   0  0  0  0  0  0  0  0  0  0  0  0
  -46.3795  -29.2281    4.8407 C   0  0  0  0  0  0  0  0  0  0  0  0
  -48.5245  -29.1701    5.6693 C   0  0  0  0  0  0  0  0  0  0  0  0
  -50.5807  -29.0081    4.3896 C   0  0  0  0  0  0  0  0  0  0  0  0
  -46.3190  -29.3299    6.2322 C   0  0  0  0  0  0  0  0  0  0  0  0
  -45.1949  -29.2037    4.0756 C   0  0  0  0  0  0  0  0  0  0  0  0
  -44.4841  -32.6849    1.2250 C   0  0  0  0  0  0  0  0  0  0  0  0
  -44.0040  -31.8548    2.4255 C   0  0  0  0  0  0  0  0  0  0  0  0
  -44.9030  -31.3356    0.6153 C   0  0  0  0  0  0  0  0  0  0  0  0
  -43.7111  -30.7223    1.3943 C   0  0  0  0  0  0  0  0  0  0  0  0
  -43.9781  -28.3044    0.6732 C   0  0  0  0  0  0  0  0  0  0  0  0
  -41.2656  -30.5669    1.4643 C   0  0  0  0  0  0  0  0  0  0  0  0
  -43.9395  -29.2550    1.8802 C   0  0  1  0  0  0  0  0  0  0  0  0
  -45.1278  -29.4352    6.8494 N   0  0  0  0  0  0  0  0  0  0  0  0
  -44.0153  -29.3126    4.7429 N   0  0  0  0  0  0  0  0  0  0  0  0
  -47.6210  -29.2787    6.7234 N   0  0  0  0  0  0  0  0  0  0  0  0
  -45.1939  -29.0910    2.6817 N   0  0  0  0  0  0  0  0  0  0  0  0
  -42.4462  -30.8872    0.6918 O   0  0  0  0  0  0  0  0  0  0  0  0
  -51.9314  -28.9470    4.3550 F   0  0  0  0  0  0  0  0  0  0  0  0
  -47.8383  -29.0731    2.3036 H   0  0  0  0  0  0  0  0  0  0  0  0
  -50.3450  -28.9416    2.2342 H   0  0  0  0  0  0  0  0  0  0  0  0
  -50.4943  -29.0927    6.5538 H   0  0  0  0  0  0  0  0  0  0  0  0
  -43.0463  -29.5293    6.5955 H   0  0  0  0  0  0  0  0  0  0  0  0
  -43.6914  -33.2174    0.6792 H   0  0  0  0  0  0  0  0  0  0  0  0
  -45.3117  -33.3776    1.4380 H   0  0  0  0  0  0  0  0  0  0  0  0
  -44.7820  -31.6176    3.1660 H   0  0  0  0  0  0  0  0  0  0  0  0
  -43.1174  -32.2538    2.9401 H   0  0  0  0  0  0  0  0  0  0  0  0
  -44.8193  -31.2769   -0.4799 H   0  0  0  0  0  0  0  0  0  0  0  0
  -45.8943  -30.9748    0.9271 H   0  0  0  0  0  0  0  0  0  0  0  0
  -44.1391  -27.2739    1.0225 H   0  0  0  0  0  0  0  0  0  0  0  0
  -43.0232  -28.3625    0.1303 H   0  0  0  0  0  0  0  0  0  0  0  0
  -44.7996  -28.5967    0.0026 H   0  0  0  0  0  0  0  0  0  0  0  0
  -40.3690  -30.7236    0.8466 H   0  0  0  0  0  0  0  0  0  0  0  0
  -41.3111  -29.5155    1.7844 H   0  0  0  0  0  0  0  0  0  0  0  0
  -41.2191  -31.2180    2.3496 H   0  0  0  0  0  0  0  0  0  0  0  0
  -43.0826  -28.9727    2.5095 H   0  0  0  0  0  0  0  0  0  0  0  0
  -47.8705  -29.3148    7.6911 H   0  0  0  0  0  0  0  0  0  0  0  0
  -45.8359  -29.7791    2.3434 H   0  0  0  0  0  0  0  0  0  0  0  0
  1  2  2  0  0  0  0
  1  5  1  0  0  0  0
  2  8  1  0  0  0  0
  3  7  1  0  0  0  0
  3  8  2  0  0  0  0
  4 18  2  0  0  0  0
  4 19  1  0  0  0  0
  5  6  1  0  0  0  0
  5  7  2  0  0  0  0
  6  9  2  0  0  0  0
  6 10  1  0  0  0  0
  7 20  1  0  0  0  0
  8 23  1  0  0  0  0
  9 18  1  0  0  0  0
  9 20  1  0  0  0  0
 10 19  2  0  0  0  0
 10 21  1  0  0  0  0
 11 12  1  0  0  0  0
 11 13  1  0  0  0  0
 12 14  1  0  0  0  0
 13 14  1  0  0  0  0
 14 17  1  0  0  0  0
 14 22  1  0  0  0  0
 15 17  1  0  0  0  0
 16 22  1  0  0  0  0
 17 21  1  0  0  0  0
  1 24  1  0  0  0  0
  2 25  1  0  0  0  0
  3 26  1  0  0  0  0
  4 27  1  0  0  0  0
 11 28  1  0  0  0  0
 11 29  1  0  0  0  0
 12 30  1  0  0  0  0
 12 31  1  0  0  0  0
 13 32  1  0  0  0  0
 13 33  1  0  0  0  0
 15 34  1  0  0  0  0
 15 35  1  0  0  0  0
 15 36  1  0  0  0  0
 16 37  1  0  0  0  0
 16 38  1  0  0  0  0
 16 39  1  0  0  0  0
 17 40  1  0  0  0  0
 20 41  1  0  0  0  0
 21 42  1  0  0  0  0
M  END
> <POSIT::Probability>
0.91

> <POSIT::Method>
SHAPEFIT

> <ReceptorTitle>
UCSF-P4523-REFINED_LIGAND-BOUND-STATE_A__DU__LA1_A-201(A)

> <OMEGA_C>
TqxBwpqb6MGFvE1AU1RHwv0E6MHYs0tALLNHwrq56MG+WrRAaP8vwkd168FyGsNAZS0/wjU56cEg
M49Ap4Q5wiLT6cGe5ppAIxlCwlNc6cEfa7VAq1JKwqoQ6MGwd4xAsEY5womj6sEjbsdAnsc0whSh
6cF4a4JAve8xwk29AsL7zZw/EgQwwqnW/sHVOhtAuZwzwlWv+sGsgx0/ItguwjPH9cEkd7I/lOkv
woJv4sEKWSw//Q8lwgmJ9MGTbbs/EsIvwkIK6sEfqfA/5YI0wjt768ERLttApQ8wwjCA6sHAxZdA
5ns+wtk66sEQJtdAl8Y0wmu66MGPoCtA48gpwvEY98GqFzE/trlPwoWT58E6XItAZFo/wsuV6MH7
bRNAQmFJwmaI58Fo/Q5AIPpJwu+96MEgudFAaC8swv477MF3DtNA/cMuwqPeBMKo3S0/Ij81wqOC
BcJzD7g/ziAzwurw/MF/n0pAQXgswuwDAcJgKjxA/UYzwhk3+sGHu/W+xJM3wmXM98GHV20/e44w
wuYw2sFo4YI/vxcswlHm4sF4bgU+vjIzwiDG5MEXgCg71HkhwtXJ9cFovFg/lT4lwrwf7MEFZuQ/
ZuAkwoy++cGbYBZAmVQswhjI58H8miBAcHs/wqKE6sFlHfZA7Vc3wqw77sFN+hVA

> <OMEGA_E>
ENndPg==

> <OMEGA_NBR>
     10016

$$$$
CACHE3HI_1715_91
  -OEChem-03092622493D

 36 39  0     0  0  0  0  0  0999 V2000
  -48.4918  -29.0524    3.2890 C   0  0  0  0  0  0  0  0  0  0  0  0
  -49.8991  -28.8974    3.2803 C   0  0  0  0  0  0  0  0  0  0  0  0
  -49.9403  -28.8446    5.7355 C   0  0  0  0  0  0  0  0  0  0  0  0
  -44.0206  -29.4290    6.0828 C   0  0  0  0  0  0  0  0  0  0  0  0
  -47.8434  -29.0990    4.5389 C   0  0  0  0  0  0  0  0  0  0  0  0
  -46.4241  -29.2252    4.8780 C   0  0  0  0  0  0  0  0  0  0  0  0
  -48.5441  -28.9945    5.7462 C   0  0  0  0  0  0  0  0  0  0  0  0
  -50.6195  -28.7970    4.4991 C   0  0  0  0  0  0  0  0  0  0  0  0
  -46.3298  -29.2007    6.2700 C   0  0  0  0  0  0  0  0  0  0  0  0
  -45.2698  -29.3947    4.0844 C   0  0  0  0  0  0  0  0  0  0  0  0
  -43.6458  -31.4991    2.4040 C   0  0  0  0  0  0  0  0  0  0  0  0
  -44.8951  -31.1479    0.7854 C   0  0  0  0  0  0  0  0  0  0  0  0
  -44.8732  -32.2409    1.8683 C   0  0  0  0  0  0  0  0  0  0  0  0
  -44.2939  -30.1931    1.8461 C   0  0  0  0  0  0  0  0  0  0  0  0
  -43.2862  -29.1811    1.2731 C   0  0  0  0  0  0  0  0  0  0  0  0
  -45.1265  -29.3131    6.8628 N   0  0  0  0  0  0  0  0  0  0  0  0
  -44.0729  -29.4666    4.7221 N   0  0  0  0  0  0  0  0  0  0  0  0
  -47.6180  -29.0639    6.7853 N   0  0  0  0  0  0  0  0  0  0  0  0
  -45.3541  -29.5562    2.7003 N   0  0  0  0  0  0  0  0  0  0  0  0
  -44.6181  -33.5572    1.3974 O   0  0  0  0  0  0  0  0  0  0  0  0
  -51.9655  -28.6627    4.4852 F   0  0  0  0  0  0  0  0  0  0  0  0
  -47.9338  -29.1323    2.3678 H   0  0  0  0  0  0  0  0  0  0  0  0
  -50.4281  -28.8553    2.3397 H   0  0  0  0  0  0  0  0  0  0  0  0
  -50.4882  -28.7666    6.6629 H   0  0  0  0  0  0  0  0  0  0  0  0
  -43.0556  -29.4943    6.5634 H   0  0  0  0  0  0  0  0  0  0  0  0
  -43.5321  -31.5262    3.4978 H   0  0  0  0  0  0  0  0  0  0  0  0
  -42.6941  -31.7803    1.9294 H   0  0  0  0  0  0  0  0  0  0  0  0
  -44.2439  -31.3438   -0.0792 H   0  0  0  0  0  0  0  0  0  0  0  0
  -45.8992  -30.8699    0.4326 H   0  0  0  0  0  0  0  0  0  0  0  0
  -45.7342  -32.1669    2.5489 H   0  0  0  0  0  0  0  0  0  0  0  0
  -43.8245  -28.2957    0.9041 H   0  0  0  0  0  0  0  0  0  0  0  0
  -42.5813  -28.8792    2.0618 H   0  0  0  0  0  0  0  0  0  0  0  0
  -42.7320  -29.6451    0.4439 H   0  0  0  0  0  0  0  0  0  0  0  0
  -47.8444  -29.0218    7.7584 H   0  0  0  0  0  0  0  0  0  0  0  0
  -46.1828  -30.0934    2.5434 H   0  0  0  0  0  0  0  0  0  0  0  0
  -45.4273  -33.9444    1.0845 H   0  0  0  0  0  0  0  0  0  0  0  0
  1  2  2  0  0  0  0
  1  5  1  0  0  0  0
  2  8  1  0  0  0  0
  3  7  1  0  0  0  0
  3  8  2  0  0  0  0
  4 16  2  0  0  0  0
  4 17  1  0  0  0  0
  5  6  1  0  0  0  0
  5  7  2  0  0  0  0
  6  9  2  0  0  0  0
  6 10  1  0  0  0  0
  7 18  1  0  0  0  0
  8 21  1  0  0  0  0
  9 16  1  0  0  0  0
  9 18  1  0  0  0  0
 10 17  2  0  0  0  0
 10 19  1  0  0  0  0
 11 13  1  0  0  0  0
 11 14  1  0  0  0  0
 12 13  1  0  0  0  0
 12 14  1  0  0  0  0
 13 20  1  0  0  0  0
 14 15  1  0  0  0  0
 14 19  1  0  0  0  0
  1 22  1  0  0  0  0
  2 23  1  0  0  0  0
  3 24  1  0  0  0  0
  4 25  1  0  0  0  0
 11 26  1  0  0  0  0
 11 27  1  0  0  0  0
 12 28  1  0  0  0  0
 12 29  1  0  0  0  0
 13 30  1  0  0  0  0
 15 31  1  0  0  0  0
 15 32  1  0  0  0  0
 15 33  1  0  0  0  0
 18 34  1  0  0  0  0
 19 35  1  0  0  0  0
 20 36  1  0  0  0  0
M  END
> <POSIT::Probability>
0.91

> <POSIT::Method>
SHAPEFIT

> <ReceptorTitle>
UCSF-P4523-REFINED_LIGAND-BOUND-STATE_A__DU__LA1_A-201(A)

> <OMEGA_C>
n/dBwkxr6MHMflJAsJhHwuEt58GA8FFA3cJHwrTB5sFuibdAExUwwoxu68FJpsJApl8/wsPK6MHV
PpFAT7I5wjrN6cGeGJxAKS1Cwqv058Gc4LdAYXpKwk1g5sGj+I9ArVE5wvWa6cGno8hAURQ1wnIo
68Gis4JAQpUuwj3++8EM2xlAmZQzwvsu+cHWD0k/JH4zwqP2AMKQI+8/8CwxwoOL8cF8Tew/ECUt
wuly6cEt9qI/k4E0wkGB6sHJm9tAokowwpW768HZG5dA2ng+wuKC6MHQINlAl2o1wi5z7MEg0ixA
+HgywpI6BsJp3rI/p9xPwi5N5cGXho9AK7w/wtwO6cEBihdAabZJwpPX5sF5vRVA8vNJwvIh5sHC
NtVA8jgswkP068FTB9JA5SAuwr01/MGF219AusYqwgo+/sGj9vY/tPkwwgvA+sHZK6K9zZg3wqD1
9sESet0+y+82wvSqAML0ICNAVEwvwoRd4sHzdGc/NVMqwp0I58HQ8wNAke0qwiMp7cFUSuM+t2A/
wqMs6MGXRPhANbs4wly/8MEHxyJAg7U1whPHB8I00oo/

> <OMEGA_E>
SKuYPg==

> <OMEGA_NBR>
     11258

$$$$
CACHE3HI_1718_86
  -OEChem-03092622493D

 39 42  0     1  0  0  0  0  0999 V2000
  -48.4443  -29.7220    3.3540 C   0  0  0  0  0  0  0  0  0  0  0  0
  -49.8491  -29.5669    3.2768 C   0  0  0  0  0  0  0  0  0  0  0  0
  -49.9211  -28.7963    5.6075 C   0  0  0  0  0  0  0  0  0  0  0  0
  -44.0215  -29.3678    6.2517 C   0  0  0  0  0  0  0  0  0  0  0  0
  -47.8119  -29.4266    4.5797 C   0  0  0  0  0  0  0  0  0  0  0  0
  -46.4022  -29.4953    4.9817 C   0  0  0  0  0  0  0  0  0  0  0  0
  -48.5277  -28.9598    5.6890 C   0  0  0  0  0  0  0  0  0  0  0  0
  -50.5841  -29.1072    4.4000 C   0  0  0  0  0  0  0  0  0  0  0  0
  -46.3275  -29.0474    6.3025 C   0  0  0  0  0  0  0  0  0  0  0  0
  -45.2311  -29.8921    4.3004 C   0  0  0  0  0  0  0  0  0  0  0  0
  -43.9681  -29.9714    0.8356 C   0  0  0  0  0  0  0  0  0  0  0  0
  -43.8329  -31.5171    0.9074 C   0  0  0  0  0  0  0  0  0  0  0  0
  -44.9375  -29.3803    1.8927 C   0  0  0  0  0  0  0  0  0  0  0  0
  -45.6455  -31.7497    2.6899 C   0  0  0  0  0  0  0  0  0  0  0  0
  -45.1568  -32.2466    1.2918 C   0  0  1  0  0  0  0  0  0  0  0  0
  -46.2665  -32.1174    0.1882 C   0  0  0  0  0  0  0  0  0  0  0  0
  -45.1364  -28.9877    6.9291 N   0  0  0  0  0  0  0  0  0  0  0  0
  -44.0496  -29.8115    4.9631 N   0  0  0  0  0  0  0  0  0  0  0  0
  -47.6185  -28.7310    6.7211 N   0  0  0  0  0  0  0  0  0  0  0  0
  -45.2291  -30.3450    2.9855 N   0  0  3  0  0  0  0  0  0  0  0  0
  -44.8500  -33.6401    1.4219 O   0  0  0  0  0  0  0  0  0  0  0  0
  -51.9260  -28.9529    4.3175 F   0  0  0  0  0  0  0  0  0  0  0  0
  -45.8145  -32.6427   -0.9829 F   0  0  0  0  0  0  0  0  0  0  0  0
  -46.6373  -30.8331   -0.0414 F   0  0  0  0  0  0  0  0  0  0  0  0
  -47.3782  -32.8081    0.5608 F   0  0  0  0  0  0  0  0  0  0  0  0
  -47.8738  -30.0565    2.5002 H   0  0  0  0  0  0  0  0  0  0  0  0
  -50.3648  -29.8000    2.3570 H   0  0  0  0  0  0  0  0  0  0  0  0
  -50.4790  -28.4365    6.4594 H   0  0  0  0  0  0  0  0  0  0  0  0
  -43.0688  -29.3160    6.7577 H   0  0  0  0  0  0  0  0  0  0  0  0
  -42.9733  -29.5282    0.9906 H   0  0  0  0  0  0  0  0  0  0  0  0
  -44.3381  -29.7012   -0.1644 H   0  0  0  0  0  0  0  0  0  0  0  0
  -43.5085  -31.8832   -0.0779 H   0  0  0  0  0  0  0  0  0  0  0  0
  -43.0695  -31.7641    1.6599 H   0  0  0  0  0  0  0  0  0  0  0  0
  -44.4812  -28.4789    2.3277 H   0  0  0  0  0  0  0  0  0  0  0  0
  -45.8815  -29.1105    1.3966 H   0  0  0  0  0  0  0  0  0  0  0  0
  -46.7439  -31.8035    2.7174 H   0  0  0  0  0  0  0  0  0  0  0  0
  -45.2266  -32.4102    3.4634 H   0  0  0  0  0  0  0  0  0  0  0  0
  -47.8581  -28.3895    7.6299 H   0  0  0  0  0  0  0  0  0  0  0  0
  -45.6371  -34.1176    1.6566 H   0  0  0  0  0  0  0  0  0  0  0  0
  1  2  1  0  0  0  0
  1  5  2  0  0  0  0
  2  8  2  0  0  0  0
  3  7  2  0  0  0  0
  3  8  1  0  0  0  0
  4 17  1  0  0  0  0
  4 18  2  0  0  0  0
  5  6  1  0  0  0  0
  5  7  1  0  0  0  0
  6  9  1  0  0  0  0
  6 10  2  0  0  0  0
  7 19  1  0  0  0  0
  8 22  1  0  0  0  0
  9 17  2  0  0  0  0
  9 19  1  0  0  0  0
 10 18  1  0  0  0  0
 10 20  1  0  0  0  0
 11 12  1  0  0  0  0
 11 13  1  0  0  0  0
 12 15  1  0  0  0  0
 13 20  1  0  0  0  0
 14 15  1  0  0  0  0
 14 20  1  0  0  0  0
 15 16  1  0  0  0  0
 15 21  1  0  0  0  0
 16 23  1  0  0  0  0
 16 24  1  0  0  0  0
 16 25  1  0  0  0  0
  1 26  1  0  0  0  0
  2 27  1  0  0  0  0
  3 28  1  0  0  0  0
  4 29  1  0  0  0  0
 11 30  1  0  0  0  0
 11 31  1  0  0  0  0
 12 32  1  0  0  0  0
 12 33  1  0  0  0  0
 13 34  1  0  0  0  0
 13 35  1  0  0  0  0
 14 36  1  0  0  0  0
 14 37  1  0  0  0  0
 19 38  1  0  0  0  0
 21 39  1  0  0  0  0
M  END
> <POSIT::Probability>
0.79

> <POSIT::Method>
SHAPEFIT

> <ReceptorTitle>
UCSF-P4523-REFINED_LIGAND-BOUND-STATE_A__DU__LA1_A-201(A)

> <OMEGA_C>
8MZBwrTG7cFYqFZAeWVHwhCJ7MGkt1FALK9Hwr1e5sHdcLNABRYwwlLx6sGTDchAYD8/wp5p68H4
jJJA3Zs5wm7268Eyap9AZhxCwrmt58GGDLZAJ1ZKwovb6MEIzYxAUU85wg9h6MHqrclAoew0wvoi
78HknIlAVt8vwmPF78Go7FU/5FQvwhEj/MEAS2g/CcAzwt8K68EjQ/I/BJU2wnX//cGKJyxAm6A0
wn/8AMLUWqU/4hA5wjN4AMJwtUA+uIs0wt/m58HXut1AyzIwwt597sHG0Z5AUXk+wizZ5cFgE9dA
meo0wpnC8sE6Ej9AbGYzwoKPBsKQALY/Q7RPwnaf58EvKYpAGEI3whmSAsLcn3u/oIw6wieq9sGo
tim9PIM9woM7A8JkjQ8/xX4/wrpz8MG1AiBAmXVJwnZm7sFR2RZAe+pJwv9948GMs85AeUYswjuH
6sFbP9hAq+QrwtI57MHWln0/QFoxwhuc7cFhWSi+tgguwsQQ/8E3f5+9LUcswu0c/sGYdtQ/vOwx
ws/U48G6+BRApoY3wjTi6MG/wrI/uPk6wpFt/sEC6i1ADOg0whikAcLZp11ApW4/wqgd48FcKPRA
YIw2wml4CMLACtQ/

> <OMEGA_E>
zAwvPw==

> <OMEGA_NBR>
     12567

$$$$
CACHE3-HO_1700_11
  -OEChem-03092622573D

 43 46  0     1  0  0  0  0  0999 V2000
  -39.7404  -31.3445    2.6997 C   0  0  0  0  0  0  0  0  0  0  0  0
  -40.1748  -30.3915    3.6163 C   0  0  0  0  0  0  0  0  0  0  0  0
  -43.1847  -29.9106   -0.4240 C   0  0  0  0  0  0  0  0  0  0  0  0
  -40.3771  -31.4668    1.4637 C   0  0  0  0  0  0  0  0  0  0  0  0
  -41.2477  -29.5574    3.3009 C   0  0  0  0  0  0  0  0  0  0  0  0
  -42.1118  -30.7447   -0.1086 C   0  0  0  0  0  0  0  0  0  0  0  0
  -43.6189  -28.9580    0.4934 C   0  0  0  0  0  0  0  0  0  0  0  0
  -47.1338  -28.7955    5.8840 C   0  0  0  0  0  0  0  0  0  0  0  0
  -48.7690  -28.8486    3.5879 C   0  0  0  0  0  0  0  0  0  0  0  0
  -50.5887  -29.5091    6.5127 C   0  0  0  0  0  0  0  0  0  0  0  0
  -41.4588  -30.6355    1.1299 C   0  0  0  0  0  0  0  0  0  0  0  0
  -41.9006  -29.6665    2.0621 C   0  0  0  0  0  0  0  0  0  0  0  0
  -42.9824  -28.8353    1.7286 C   0  0  0  0  0  0  0  0  0  0  0  0
  -49.3255  -29.0904    4.8439 C   0  0  0  0  0  0  0  0  0  0  0  0
  -48.4949  -29.0580    5.9595 C   0  0  0  0  0  0  0  0  0  0  0  0
  -46.6785  -28.5688    4.5928 C   0  0  0  0  0  0  0  0  0  0  0  0
  -45.2402  -28.2759    4.3676 C   0  0  0  0  0  0  0  0  0  0  0  0
  -43.7804  -26.2722    0.6314 C   0  0  0  0  0  0  0  0  0  0  0  0
  -43.4320  -26.3476    2.1045 C   0  0  0  0  0  0  0  0  0  0  0  0
  -43.4998  -27.7897    2.6674 C   0  0  1  0  0  0  0  0  0  0  0  0
  -47.4429  -28.5885    3.4730 N   0  0  0  0  0  0  0  0  0  0  0  0
  -50.6221  -29.3720    5.2057 N   0  0  0  0  0  0  0  0  0  0  0  0
  -49.3287  -29.3292    7.0133 N   0  0  0  0  0  0  0  0  0  0  0  0
  -44.8958  -28.0679    3.0586 N   0  0  0  0  0  0  0  0  0  0  0  0
  -44.4740  -28.2583    5.3272 O   0  0  0  0  0  0  0  0  0  0  0  0
  -44.9040  -26.1232    0.1721 O   0  0  0  0  0  0  0  0  0  0  0  0
  -42.6775  -26.4220   -0.1485 O   0  0  0  0  0  0  0  0  0  0  0  0
  -38.9053  -31.9937    2.9462 H   0  0  0  0  0  0  0  0  0  0  0  0
  -39.6786  -30.2970    4.5778 H   0  0  0  0  0  0  0  0  0  0  0  0
  -43.6815  -30.0053   -1.3854 H   0  0  0  0  0  0  0  0  0  0  0  0
  -40.0208  -32.2189    0.7629 H   0  0  0  0  0  0  0  0  0  0  0  0
  -41.5577  -28.8255    4.0432 H   0  0  0  0  0  0  0  0  0  0  0  0
  -41.7885  -31.4825   -0.8402 H   0  0  0  0  0  0  0  0  0  0  0  0
  -44.4560  -28.3139    0.2363 H   0  0  0  0  0  0  0  0  0  0  0  0
  -46.4936  -28.7705    6.7563 H   0  0  0  0  0  0  0  0  0  0  0  0
  -49.3430  -28.8558    2.6698 H   0  0  0  0  0  0  0  0  0  0  0  0
  -51.4315  -29.7355    7.1499 H   0  0  0  0  0  0  0  0  0  0  0  0
  -42.4162  -25.9450    2.2044 H   0  0  0  0  0  0  0  0  0  0  0  0
  -44.1139  -25.6906    2.6573 H   0  0  0  0  0  0  0  0  0  0  0  0
  -42.9106  -27.7989    3.6026 H   0  0  0  0  0  0  0  0  0  0  0  0
  -49.0603  -29.3867    7.9867 H   0  0  0  0  0  0  0  0  0  0  0  0
  -45.5458  -28.1549    2.3026 H   0  0  0  0  0  0  0  0  0  0  0  0
  -42.8460  -26.4023   -1.1153 H   0  0  0  0  0  0  0  0  0  0  0  0
  1  2  1  0  0  0  0
  1  4  2  0  0  0  0
  2  5  2  0  0  0  0
  3  6  1  0  0  0  0
  3  7  2  0  0  0  0
  4 11  1  0  0  0  0
  5 12  1  0  0  0  0
  6 11  2  0  0  0  0
  7 13  1  0  0  0  0
  8 15  2  0  0  0  0
  8 16  1  0  0  0  0
  9 14  2  0  0  0  0
  9 21  1  0  0  0  0
 10 22  2  0  0  0  0
 10 23  1  0  0  0  0
 11 12  1  0  0  0  0
 12 13  2  0  0  0  0
 13 20  1  0  0  0  0
 14 15  1  0  0  0  0
 14 22  1  0  0  0  0
 15 23  1  0  0  0  0
 16 17  1  0  0  0  0
 16 21  2  0  0  0  0
 17 24  1  0  0  0  0
 17 25  2  0  0  0  0
 18 19  1  0  0  0  0
 18 26  2  0  0  0  0
 18 27  1  0  0  0  0
 19 20  1  0  0  0  0
 20 24  1  0  0  0  0
  1 28  1  0  0  0  0
  2 29  1  0  0  0  0
  3 30  1  0  0  0  0
  4 31  1  0  0  0  0
  5 32  1  0  0  0  0
  6 33  1  0  0  0  0
  7 34  1  0  0  0  0
  8 35  1  0  0  0  0
  9 36  1  0  0  0  0
 10 37  1  0  0  0  0
 19 38  1  0  0  0  0
 19 39  1  0  0  0  0
 20 40  1  0  0  0  0
 23 41  1  0  0  0  0
 24 42  1  0  0  0  0
 27 43  1  0  0  0  0
M  END
> <POSIT::Probability>
0.24

> <POSIT::Method>
FRED

> <ReceptorTitle>
UCSF-P4528-REFINED_LIGAND-BOUND-STATE_A__DU__LA1_A-201(A)

> <OMEGA_C>
NPYewnXB+sFcyCxABbMgwssh88GEcWdAKb0swuxI78GYHNm+LIIhwvu7+8FVWrs/sv0kwoJ17MHI
QVNAf3IowjP19cEAet69zXkuwgqq58EUoPw+/Yg8wkBd5sG0SbxAgRNDwvTJ5sECoGVAzVpKwrMS
7MHxZ9BAw9UlwpUV9cEFopA/NJonwhFV7cE8+gNAA+4rwrqu5sGPQd0/TU1Fwii56MFHAZtAzvpB
wsN26MERtL5Ay7Y6wuCM5MEx+JJA8/U0wgg14sFXw4tAHB8vwn8t0sHYoiE/Z7otws7H0sG+sAZA
1f8twmhR3sHwtipAhcU9wjG15MH8RF5ACH1KwuD56sFulaZAjFBFwjCi6sFLbeBAUJUzwgKL4MGY
wENAVeUxwu8Q4sHGeKpAu50zwmf80MFgNzA+z7UqwlJg08EADxi+Ep8bwjPz/8EMjjxA6LYewkNg
8sGRfZJA0LkuwssK8MHWU7G/SxUgwh/gAMKATUM/Cjsmwqia5sEsYoFAcScnwjLc+8GAF1e/9dIx
wtqC4sEA7HE+f/k5wgwq5sGbM9hAPl9FwsPY5sGH3ipA2rlNwkPi7cFczORANKopwmKPz8G/FA1A
nnQwwkqGzcH3ECpAeqQrwhhk3sEekWZAwz1EwvQX68E3k/9A5S42wkY94cEtXhNARWIrwvg308EC
wY6/

> <OMEGA_E>
Jdc9wQ==

> <OMEGA_NBR>
      1359

$$$$
CACHE3-HO_1700_32
  -OEChem-03092622573D

 48 51  0     1  0  0  0  0  0999 V2000
  -43.6477  -28.9200    2.1885 C   0  0  0  0  0  0  0  0  0  0  0  0
  -43.7152  -28.2895    3.4375 C   0  0  0  0  0  0  0  0  0  0  0  0
  -44.9357  -36.0982   -3.3829 C   0  0  0  0  0  0  0  0  0  0  0  0
  -44.3604  -32.6611   -1.7476 C   0  0  0  0  0  0  0  0  0  0  0  0
  -45.1558  -34.3584   -0.1852 C   0  0  0  0  0  0  0  0  0  0  0  0
  -45.2703  -30.5389    3.0023 C   0  0  0  0  0  0  0  0  0  0  0  0
  -45.3634  -37.1275   -2.5776 C   0  0  0  0  0  0  0  0  0  0  0  0
  -44.8158  -34.9095   -2.5390 C   0  0  0  0  0  0  0  0  0  0  0  0
  -44.4349  -30.0684    1.9640 C   0  0  0  0  0  0  0  0  0  0  0  0
  -44.3992  -33.5886   -2.7998 C   0  0  0  0  0  0  0  0  0  0  0  0
  -45.1802  -35.2916   -1.2401 C   0  0  0  0  0  0  0  0  0  0  0  0
  -44.7495  -33.0263   -0.4336 C   0  0  0  0  0  0  0  0  0  0  0  0
  -44.5664  -28.8135    4.4316 C   0  0  0  0  0  0  0  0  0  0  0  0
  -44.3798  -30.7771    0.6762 C   0  0  0  0  0  0  0  0  0  0  0  0
  -43.9634  -33.1539   -4.1368 C   0  0  0  0  0  0  0  0  0  0  0  0
  -48.6034  -29.4792    6.9965 C   0  0  0  0  0  0  0  0  0  0  0  0
  -47.9213  -28.2877    7.6408 C   0  0  0  0  0  0  0  0  0  0  0  0
  -48.6715  -29.0643    5.5266 C   0  0  0  0  0  0  0  0  0  0  0  0
  -46.9227  -27.8407    6.5636 C   0  0  1  0  0  0  0  0  0  0  0  0
  -45.5637  -28.5593    6.7443 C   0  0  0  0  0  0  0  0  0  0  0  0
  -45.3228  -29.9180    4.1995 N   0  0  0  0  0  0  0  0  0  0  0  0
  -45.5139  -36.6382   -1.2808 N   0  0  0  0  0  0  0  0  0  0  0  0
  -44.7532  -32.1308    0.6476 N   0  0  0  0  0  0  0  0  0  0  0  0
  -44.6129  -28.1755    5.6705 N   0  0  0  0  0  0  0  0  0  0  0  0
  -43.9879  -30.1615   -0.3087 O   0  0  0  0  0  0  0  0  0  0  0  0
  -44.7031  -33.3097   -5.1009 O   0  0  0  0  0  0  0  0  0  0  0  0
  -47.5261  -28.2026    5.2857 O   0  0  0  0  0  0  0  0  0  0  0  0
  -42.7565  -32.5350   -4.2501 O   0  0  0  0  0  0  0  0  0  0  0  0
  -43.0044  -28.5338    1.4117 H   0  0  0  0  0  0  0  0  0  0  0  0
  -43.1208  -27.4101    3.6371 H   0  0  0  0  0  0  0  0  0  0  0  0
  -44.7271  -36.1566   -4.4409 H   0  0  0  0  0  0  0  0  0  0  0  0
  -44.0285  -31.6519   -1.9417 H   0  0  0  0  0  0  0  0  0  0  0  0
  -45.4465  -34.6591    0.8106 H   0  0  0  0  0  0  0  0  0  0  0  0
  -45.8798  -31.4144    2.8341 H   0  0  0  0  0  0  0  0  0  0  0  0
  -45.5509  -38.1425   -2.8956 H   0  0  0  0  0  0  0  0  0  0  0  0
  -48.0082  -30.3954    7.1241 H   0  0  0  0  0  0  0  0  0  0  0  0
  -49.6096  -29.6347    7.4129 H   0  0  0  0  0  0  0  0  0  0  0  0
  -48.6453  -27.4904    7.8646 H   0  0  0  0  0  0  0  0  0  0  0  0
  -47.4017  -28.5811    8.5649 H   0  0  0  0  0  0  0  0  0  0  0  0
  -48.6216  -29.9520    4.8788 H   0  0  0  0  0  0  0  0  0  0  0  0
  -49.6057  -28.5183    5.3290 H   0  0  0  0  0  0  0  0  0  0  0  0
  -46.7729  -26.7528    6.6281 H   0  0  0  0  0  0  0  0  0  0  0  0
  -45.1366  -28.2817    7.7192 H   0  0  0  0  0  0  0  0  0  0  0  0
  -45.7244  -29.6469    6.7107 H   0  0  0  0  0  0  0  0  0  0  0  0
  -45.8175  -37.1779   -0.4956 H   0  0  0  0  0  0  0  0  0  0  0  0
  -45.0653  -32.5096    1.5189 H   0  0  0  0  0  0  0  0  0  0  0  0
  -43.6989  -28.2727    6.0646 H   0  0  0  0  0  0  0  0  0  0  0  0
  -42.6186  -32.2720   -5.1525 H   0  0  0  0  0  0  0  0  0  0  0  0
  1  2  1  0  0  0  0
  1  9  2  0  0  0  0
  2 13  2  0  0  0  0
  3  7  2  0  0  0  0
  3  8  1  0  0  0  0
  4 10  2  0  0  0  0
  4 12  1  0  0  0  0
  5 11  1  0  0  0  0
  5 12  2  0  0  0  0
  6  9  1  0  0  0  0
  6 21  2  0  0  0  0
  7 22  1  0  0  0  0
  8 10  1  0  0  0  0
  8 11  2  0  0  0  0
  9 14  1  0  0  0  0
 10 15  1  0  0  0  0
 11 22  1  0  0  0  0
 12 23  1  0  0  0  0
 13 21  1  0  0  0  0
 13 24  1  0  0  0  0
 14 23  1  0  0  0  0
 14 25  2  0  0  0  0
 15 26  2  0  0  0  0
 15 28  1  0  0  0  0
 16 17  1  0  0  0  0
 16 18  1  0  0  0  0
 17 19  1  0  0  0  0
 18 27  1  0  0  0  0
 19 20  1  0  0  0  0
 19 27  1  0  0  0  0
 20 24  1  0  0  0  0
  1 29  1  0  0  0  0
  2 30  1  0  0  0  0
  3 31  1  0  0  0  0
  4 32  1  0  0  0  0
  5 33  1  0  0  0  0
  6 34  1  0  0  0  0
  7 35  1  0  0  0  0
 16 36  1  0  0  0  0
 16 37  1  0  0  0  0
 17 38  1  0  0  0  0
 17 39  1  0  0  0  0
 18 40  1  0  0  0  0
 18 41  1  0  0  0  0
 19 42  1  0  0  0  0
 20 43  1  0  0  0  0
 20 44  1  0  0  0  0
 22 45  1  0  0  0  0
 23 46  1  0  0  0  0
 24 47  1  0  0  0  0
 28 48  1  0  0  0  0
M  END
> <POSIT::Probability>
0.12

> <POSIT::Method>
SHAPEFIT

> <ReceptorTitle>
UCSF-P4528-REFINED_LIGAND-BOUND-STATE_A__DU__LA1_A-201(A)

> <OMEGA_C>
MpcuwkBc58G/EAxAXNwuwtJQ4sFgAFxAHL4zwpJkEMIhgVjADHExwv6kAsLMst+/h580wgJvCcLs
mz2+vxQ1wrpP9MEhJkBAInQ1wpiCFMK49yTAW0MzwlSjC8LsfiLAVb0xwhWM8MHcY/s/0pgxwrha
BsJdMDPAhLg0wpgqDcJIvJ6/d/8ywu4aBMKcAd6+9kMywhuC5sF+z41A5IQxwn039sFZGi0/gdov
wpGdBMJpYITA7GlCwmzV68Ek499AZK8/wj1N4sFkgfRAmK9Cwr6D6MGr2bBA1bA7wru53sFgCdJA
MUE2wmB55MEE0ddAk0o1wgNY78GhYoZANA42wnmNEsKk8aO/TQMzwviFAMKOxyU/k3MywmNn4cHZ
dLVAnPMvwrlK8cGME56+/c8ywio9BcLIOqPAwxo+wtme4cHHJKlAtQYrwtwjAsITAYjAiQQswlBF
5MFUsbQ/sXsswuVH28F4xWhAk+gywligEMJCHI7ANx0wwgo3/cEQi/i/L8k1wuiiCsLLgU8/9YQ3
wshQ+8GzYjVAKDQ2wuORGMI8UjnAXwhAwr8p88GT+ONAP3BGwuIT7cGpNu1AzpRCwmDs28G7qvtA
Ups9wiGm5MG+CQlBjHxCwqad78E1H5xAPmxGwmIl5MFrh6pAbBc7wtUF1sGDGdRA4Is0wtNA4sHg
A/dA1OU2wuws7cEYvtZAHUU3wii2FMLMw/2+3EI0wtAJAsJxasI/tcsuwnku4sHxEMJAbHkqwoEW
AcJL4aTA

> <OMEGA_E>
lHSrPw==

> <OMEGA_NBR>
      2846

$$$$
CACHE3-HO_1705_12
  -OEChem-03092622573D

 41 44  0     1  0  0  0  0  0999 V2000
  -44.9712  -28.3372    4.2809 C   0  0  0  0  0  0  0  0  0  0  0  0
  -46.2222  -28.5641    3.7199 C   0  0  0  0  0  0  0  0  0  0  0  0
  -47.2858  -28.7794    4.6019 C   0  0  0  0  0  0  0  0  0  0  0  0
  -44.8505  -28.3377    5.6597 C   0  0  0  0  0  0  0  0  0  0  0  0
  -47.0758  -28.7630    5.9836 C   0  0  0  0  0  0  0  0  0  0  0  0
  -49.2372  -29.1708    5.9735 C   0  0  0  0  0  0  0  0  0  0  0  0
  -46.3956  -28.5736    2.2607 C   0  0  0  0  0  0  0  0  0  0  0  0
  -44.0765  -30.9149   -0.3929 C   0  0  0  0  0  0  0  0  0  0  0  0
  -44.3643  -29.9680    2.0042 C   0  0  0  0  0  0  0  0  0  0  0  0
  -44.9994  -28.5446    0.1295 C   0  0  0  0  0  0  0  0  0  0  0  0
  -43.4661  -30.2964    0.8447 C   0  0  2  0  0  0  0  0  0  0  0  0
  -43.8587  -29.4203   -0.3136 C   0  0  1  0  0  0  0  0  0  0  0  0
  -43.5023  -28.0921    6.2569 C   0  0  0  0  0  0  0  0  0  0  0  0
  -42.0356  -30.5983    1.1711 C   0  0  0  0  0  0  0  0  0  0  0  0
  -42.8473  -28.7917   -1.2210 C   0  0  0  0  0  0  0  0  0  0  0  0
  -45.8534  -28.5418    6.5377 N   0  0  0  0  0  0  0  0  0  0  0  0
  -48.2002  -28.9881    6.7580 N   0  0  0  0  0  0  0  0  0  0  0  0
  -45.3153  -28.9849    1.4923 N   0  0  0  0  0  0  0  0  0  0  0  0
  -50.4980  -29.4164    6.4190 N   0  0  0  0  0  0  0  0  0  0  0  0
  -47.4837  -28.2050    1.8211 O   0  0  0  0  0  0  0  0  0  0  0  0
  -41.5220  -29.5975    2.0469 O   0  0  0  0  0  0  0  0  0  0  0  0
  -42.4658  -27.5187   -0.7052 O   0  0  0  0  0  0  0  0  0  0  0  0
  -48.9474  -29.0876    4.2878 S   0  0  0  0  0  0  0  0  0  0  0  0
  -44.1052  -28.1615    3.6488 H   0  0  0  0  0  0  0  0  0  0  0  0
  -43.4377  -31.4965   -1.0481 H   0  0  0  0  0  0  0  0  0  0  0  0
  -45.0907  -31.2943   -0.3382 H   0  0  0  0  0  0  0  0  0  0  0  0
  -44.9059  -30.8435    2.3770 H   0  0  0  0  0  0  0  0  0  0  0  0
  -43.8199  -29.5079    2.8360 H   0  0  0  0  0  0  0  0  0  0  0  0
  -44.7179  -27.4869    0.1712 H   0  0  0  0  0  0  0  0  0  0  0  0
  -45.8796  -28.6605   -0.5111 H   0  0  0  0  0  0  0  0  0  0  0  0
  -43.3361  -27.0224    6.4319 H   0  0  0  0  0  0  0  0  0  0  0  0
  -42.7050  -28.4351    5.5862 H   0  0  0  0  0  0  0  0  0  0  0  0
  -43.4090  -28.6219    7.2116 H   0  0  0  0  0  0  0  0  0  0  0  0
  -41.4117  -30.6110    0.2652 H   0  0  0  0  0  0  0  0  0  0  0  0
  -41.9353  -31.5730    1.6720 H   0  0  0  0  0  0  0  0  0  0  0  0
  -43.2540  -28.6419   -2.2320 H   0  0  0  0  0  0  0  0  0  0  0  0
  -41.9414  -29.4113   -1.3027 H   0  0  0  0  0  0  0  0  0  0  0  0
  -50.7038  -29.5266    7.4176 H   0  0  0  0  0  0  0  0  0  0  0  0
  -51.2703  -29.6058    5.7714 H   0  0  0  0  0  0  0  0  0  0  0  0
  -40.5998  -29.8361    2.2273 H   0  0  0  0  0  0  0  0  0  0  0  0
  -41.8141  -27.1547   -1.3239 H   0  0  0  0  0  0  0  0  0  0  0  0
  1  2  2  0  0  0  0
  1  4  1  0  0  0  0
  2  3  1  0  0  0  0
  2  7  1  0  0  0  0
  3  5  2  0  0  0  0
  3 23  1  0  0  0  0
  4 13  1  0  0  0  0
  4 16  2  0  0  0  0
  5 16  1  0  0  0  0
  5 17  1  0  0  0  0
  6 17  2  0  0  0  0
  6 19  1  0  0  0  0
  6 23  1  0  0  0  0
  7 18  1  0  0  0  0
  7 20  2  0  0  0  0
  8 11  1  0  0  0  0
  8 12  1  0  0  0  0
  9 11  1  0  0  0  0
  9 18  1  0  0  0  0
 10 12  1  0  0  0  0
 10 18  1  0  0  0  0
 11 12  1  0  0  0  0
 11 14  1  0  0  0  0
 12 15  1  0  0  0  0
 14 21  1  0  0  0  0
 15 22  1  0  0  0  0
  1 24  1  0  0  0  0
  8 25  1  0  0  0  0
  8 26  1  0  0  0  0
  9 27  1  0  0  0  0
  9 28  1  0  0  0  0
 10 29  1  0  0  0  0
 10 30  1  0  0  0  0
 13 31  1  0  0  0  0
 13 32  1  0  0  0  0
 13 33  1  0  0  0  0
 14 34  1  0  0  0  0
 14 35  1  0  0  0  0
 15 36  1  0  0  0  0
 15 37  1  0  0  0  0
 19 38  1  0  0  0  0
 19 39  1  0  0  0  0
 21 40  1  0  0  0  0
 22 41  1  0  0  0  0
M  END
> <POSIT::Probability>
0.18

> <POSIT::Method>
FRED

> <ReceptorTitle>
UCSF-P4528-REFINED_LIGAND-BOUND-STATE_A__DU__LA1_A-201(A)

> <OMEGA_C>
ieIzwpiy4sEk/YhAgeM4wlaD5MGDEm5AoCQ9wjU85sFwQpNA6WYzwpyz4sGFHLVAnU08wpca5sF5
eb9A7PJEwsdd6cEGJ79AGJU5wryW5MHQrhBASk4wws5R98EAK8m+BnUxwna+78HiRABAZv8zwm1b
5MEgmgQ+St0twgVf8sGQPlg/TW8vwq5c68GQlaC+UwIuwrm84MFoOMhAdiQowjnJ9MHo5ZU/p2Mr
woBV5sE0S5y/1Wk3wpBV5MGDNNFA+sxAwrTn58HYQdhA6EI1wiXh58F8BL8/+v1JwuFU68FjaM1A
We89wsmj4cFMGek/jxYmwqvH7MEGAQNA+9wpwkYm3MGghzS/GspDwnuz6MHaNYlAsWswwstK4cGl
hmlAN8Atwtn4+8G4J4a/1lw0wq9a+sEgLq2+qp8zwnS/9sFMIRhAk0cvwhwQ7MH0gDVAKN8ywiDl
28FARi8+tIQ3wr1I5cHA2QK/JVgtwt8t2MFt0s1A59Eqwv9648GGwrJA2qItwrD55MEXxeZAnaUl
wmzj9MFAyoc+s70nwpSV/MFoBdY/IwQtwo4i5cEG2Q7ACcQnwm5K68Gwvaa/vtBKwmw27MHOXO1A
0hRNwsTY7MFor7hAMmYiwkCw7sHCiw5Ao0EnwtM82cFMdKm/

> <OMEGA_E>
wrn/wA==

> <OMEGA_NBR>
      4166

$$$$
CACHE3-HO_1705_23
  -OEChem-03092622573D

 49 51  0     0  0  0  0  0  0999 V2000
  -48.2204  -28.7883    3.7257 C   0  0  0  0  0  0  0  0  0  0  0  0
  -46.9012  -28.6540    3.3101 C   0  0  0  0  0  0  0  0  0  0  0  0
  -45.9195  -28.6290    4.3057 C   0  0  0  0  0  0  0  0  0  0  0  0
  -48.4841  -28.8875    5.0808 C   0  0  0  0  0  0  0  0  0  0  0  0
  -46.2736  -28.7355    5.6536 C   0  0  0  0  0  0  0  0  0  0  0  0
  -44.0930  -28.5664    5.8877 C   0  0  0  0  0  0  0  0  0  0  0  0
  -46.5755  -28.5439    1.8796 C   0  0  0  0  0  0  0  0  0  0  0  0
  -44.6167  -30.3257   -0.7332 C   0  0  0  0  0  0  0  0  0  0  0  0
  -44.2387  -31.4824    1.5144 C   0  0  0  0  0  0  0  0  0  0  0  0
  -44.8879  -29.1399    0.1854 C   0  0  0  0  0  0  0  0  0  0  0  0
  -45.6138  -30.8923    1.8158 C   0  0  0  0  0  0  0  0  0  0  0  0
  -43.9147  -31.4947    0.0004 C   0  0  0  0  0  0  0  0  0  0  0  0
  -49.9052  -29.0326    5.5212 C   0  0  0  0  0  0  0  0  0  0  0  0
  -44.3754  -32.8243   -0.6258 C   0  0  0  0  0  0  0  0  0  0  0  0
  -42.3890  -31.3855   -0.1790 C   0  0  0  0  0  0  0  0  0  0  0  0
  -44.5267  -32.6966   -2.1261 C   0  0  0  0  0  0  0  0  0  0  0  0
  -41.9377  -29.9426   -0.1279 C   0  0  0  0  0  0  0  0  0  0  0  0
  -47.5633  -28.8666    6.0656 N   0  0  0  0  0  0  0  0  0  0  0  0
  -45.2195  -28.6985    6.5493 N   0  0  0  0  0  0  0  0  0  0  0  0
  -45.7407  -29.5158    1.3146 N   0  0  0  0  0  0  0  0  0  0  0  0
  -42.8675  -28.4971    6.4723 N   0  0  0  0  0  0  0  0  0  0  0  0
  -47.0704  -27.5950    1.2729 O   0  0  0  0  0  0  0  0  0  0  0  0
  -43.2599  -32.3533   -2.6707 O   0  0  0  0  0  0  0  0  0  0  0  0
  -42.2846  -29.4170    1.1460 O   0  0  0  0  0  0  0  0  0  0  0  0
  -44.2117  -28.4792    4.1816 S   0  0  0  0  0  0  0  0  0  0  0  0
  -49.0288  -28.8161    3.0003 H   0  0  0  0  0  0  0  0  0  0  0  0
  -45.5729  -30.6733   -1.1393 H   0  0  0  0  0  0  0  0  0  0  0  0
  -44.0134  -29.9964   -1.5842 H   0  0  0  0  0  0  0  0  0  0  0  0
  -43.4748  -30.9198    2.0610 H   0  0  0  0  0  0  0  0  0  0  0  0
  -44.2107  -32.5076    1.9025 H   0  0  0  0  0  0  0  0  0  0  0  0
  -43.9544  -28.7356    0.6006 H   0  0  0  0  0  0  0  0  0  0  0  0
  -45.3524  -28.3276   -0.3896 H   0  0  0  0  0  0  0  0  0  0  0  0
  -46.3866  -31.5443    1.3888 H   0  0  0  0  0  0  0  0  0  0  0  0
  -45.8034  -30.8609    2.8988 H   0  0  0  0  0  0  0  0  0  0  0  0
  -50.1953  -30.0886    5.5800 H   0  0  0  0  0  0  0  0  0  0  0  0
  -50.5895  -28.5510    4.8121 H   0  0  0  0  0  0  0  0  0  0  0  0
  -50.0443  -28.5758    6.5075 H   0  0  0  0  0  0  0  0  0  0  0  0
  -43.6499  -33.5989   -0.3786 H   0  0  0  0  0  0  0  0  0  0  0  0
  -45.3203  -33.1184   -0.1693 H   0  0  0  0  0  0  0  0  0  0  0  0
  -41.9025  -31.9680    0.6023 H   0  0  0  0  0  0  0  0  0  0  0  0
  -42.1157  -31.8398   -1.1307 H   0  0  0  0  0  0  0  0  0  0  0  0
  -44.8542  -33.6406   -2.5740 H   0  0  0  0  0  0  0  0  0  0  0  0
  -45.2432  -31.9110   -2.3880 H   0  0  0  0  0  0  0  0  0  0  0  0
  -40.8532  -29.8604   -0.2551 H   0  0  0  0  0  0  0  0  0  0  0  0
  -42.4329  -29.3430   -0.8989 H   0  0  0  0  0  0  0  0  0  0  0  0
  -42.7573  -28.4922    7.4918 H   0  0  0  0  0  0  0  0  0  0  0  0
  -42.0166  -28.3407    5.9217 H   0  0  0  0  0  0  0  0  0  0  0  0
  -43.3793  -32.2766   -3.6311 H   0  0  0  0  0  0  0  0  0  0  0  0
  -41.9872  -28.4929    1.1582 H   0  0  0  0  0  0  0  0  0  0  0  0
  1  2  2  0  0  0  0
  1  4  1  0  0  0  0
  2  3  1  0  0  0  0
  2  7  1  0  0  0  0
  3  5  2  0  0  0  0
  3 25  1  0  0  0  0
  4 13  1  0  0  0  0
  4 18  2  0  0  0  0
  5 18  1  0  0  0  0
  5 19  1  0  0  0  0
  6 19  2  0  0  0  0
  6 21  1  0  0  0  0
  6 25  1  0  0  0  0
  7 20  1  0  0  0  0
  7 22  2  0  0  0  0
  8 10  1  0  0  0  0
  8 12  1  0  0  0  0
  9 11  1  0  0  0  0
  9 12  1  0  0  0  0
 10 20  1  0  0  0  0
 11 20  1  0  0  0  0
 12 14  1  0  0  0  0
 12 15  1  0  0  0  0
 14 16  1  0  0  0  0
 15 17  1  0  0  0  0
 16 23  1  0  0  0  0
 17 24  1  0  0  0  0
  1 26  1  0  0  0  0
  8 27  1  0  0  0  0
  8 28  1  0  0  0  0
  9 29  1  0  0  0  0
  9 30  1  0  0  0  0
 10 31  1  0  0  0  0
 10 32  1  0  0  0  0
 11 33  1  0  0  0  0
 11 34  1  0  0  0  0
 13 35  1  0  0  0  0
 13 36  1  0  0  0  0
 13 37  1  0  0  0  0
 14 38  1  0  0  0  0
 14 39  1  0  0  0  0
 15 40  1  0  0  0  0
 15 41  1  0  0  0  0
 16 42  1  0  0  0  0
 16 43  1  0  0  0  0
 17 44  1  0  0  0  0
 17 45  1  0  0  0  0
 21 46  1  0  0  0  0
 21 47  1  0  0  0  0
 23 48  1  0  0  0  0
 24 49  1  0  0  0  0
M  END
> <POSIT::Probability>
0.24

> <POSIT::Method>
FRED

> <ReceptorTitle>
UCSF-P4528-REFINED_LIGAND-BOUND-STATE_A__DU__LA1_A-201(A)

> <OMEGA_C>
ruFAwmpO5sHEcW5Azpo7wmc75cEM2FNAna03wioI5cEIyIlAvO9BwqYZ58EIlqJAIBg5wkLi5cEE
6rRAP18wwguI5MGrZ7xAW006wv1Z5MHol/A/f3cywgKb8sEotju/evQwwgvc+8EI18E/L40zwpQe
6cFg1z0+jXQ2wlkj98HYbOg/nagvwjn1+8EAgM85955HwshC6MEOrrBAaIAxwiFMA8JINiC/SY4p
wowV+8HgVze+WBsywlXJAsI8EgjAL8AnwmOK78Fg7wK+zUA+wtzu5sElGcJA0OA0woGW5cENlNFA
cPY2wnMg7MH4Q6g/WHgrwgP648HSHM9ADEg8wn7C3MFk7aI/IAotwsBpAcJ/7SrAbyMpwuxV68Gs
r5I/zNgwwlTV48FJz4VAdR1EwmSH5sEeBUBAnko2wvRi9cGA1ZG/uw0wwqf478H4x8q/KOYtwtVb
98H85wNAudcwwr8HAsKAhfM/T9EvwpLi5cGIwxk/2Gg1wtSe4sHAdMe+1Is5wsVa/MGUxLE/sDY3
wjPj9sGyhjlA+MdIwmK18MFfj7JAp1tKwoBo5MH0/JlAVS1Iwjeb5MGSPdBAfJkuwlFlBsLQ28G+
AEg1wkh5BMLgYS2+JJwnwne+/8GgLRo/d3YowuW3/sE0upC/umozwvSPBsJRvCTAAvk0wqdJ/8F5
1RjAuGkjwh3i7sEQmYK+Qbspwny+6sHAHWa/hgcrwgPw48ERve9A/hAowrG54sFbfr1AaoQtwjcb
AcKOZGjA7PInwmvx48EkQJQ/

> <OMEGA_E>
S7EEwQ==

> <OMEGA_NBR>
      5636

$$$$
CACHE3-HO_1705_8
  -OEChem-03092622573D

 41 43  0     1  0  0  0  0  0999 V2000
  -47.5234  -29.3649    2.3626 C   0  0  0  0  0  0  0  0  0  0  0  0
  -47.1212  -29.1649    3.6776 C   0  0  0  0  0  0  0  0  0  0  0  0
  -48.1281  -29.0621    4.6425 C   0  0  0  0  0  0  0  0  0  0  0  0
  -48.8771  -29.4491    2.0864 C   0  0  0  0  0  0  0  0  0  0  0  0
  -49.4735  -29.1588    4.2767 C   0  0  0  0  0  0  0  0  0  0  0  0
  -49.7307  -28.8607    6.4408 C   0  0  0  0  0  0  0  0  0  0  0  0
  -45.6793  -29.0670    4.0192 C   0  0  0  0  0  0  0  0  0  0  0  0
  -42.9362  -30.0767    0.9386 C   0  0  0  0  0  0  0  0  0  0  0  0
  -43.0109  -29.0255   -0.1572 C   0  0  0  0  0  0  0  0  0  0  0  0
  -43.0751  -27.8220    1.8471 C   0  0  0  0  0  0  0  0  0  0  0  0
  -42.6582  -29.2573    2.2037 C   0  0  1  0  0  0  0  0  0  0  0  0
  -49.3030  -29.6652    0.6699 C   0  0  0  0  0  0  0  0  0  0  0  0
  -43.6773  -26.6934   -0.2216 C   0  0  0  0  0  0  0  0  0  0  0  0
  -43.3875  -29.8076    3.4233 C   0  0  0  0  0  0  0  0  0  0  0  0
  -49.8724  -29.3541    2.9910 N   0  0  0  0  0  0  0  0  0  0  0  0
  -50.3812  -29.0421    5.3146 N   0  0  0  0  0  0  0  0  0  0  0  0
  -43.7086  -27.9398    0.5283 N   0  0  1  0  0  0  0  0  0  0  0  0
  -50.3288  -28.7088    7.6523 N   0  0  0  0  0  0  0  0  0  0  0  0
  -44.8261  -29.7829    3.2038 N   0  0  0  0  0  0  0  0  0  0  0  0
  -45.3363  -28.3938    4.9874 O   0  0  0  0  0  0  0  0  0  0  0  0
  -41.2547  -29.2642    2.4652 O   0  0  0  0  0  0  0  0  0  0  0  0
  -48.0217  -28.8180    6.3407 S   0  0  0  0  0  0  0  0  0  0  0  0
  -46.7889  -29.4547    1.5670 H   0  0  0  0  0  0  0  0  0  0  0  0
  -43.9006  -30.5959    1.0079 H   0  0  0  0  0  0  0  0  0  0  0  0
  -42.1576  -30.8165    0.7261 H   0  0  0  0  0  0  0  0  0  0  0  0
  -42.0029  -28.7312   -0.4761 H   0  0  0  0  0  0  0  0  0  0  0  0
  -43.5666  -29.3903   -1.0266 H   0  0  0  0  0  0  0  0  0  0  0  0
  -43.7904  -27.4060    2.5649 H   0  0  0  0  0  0  0  0  0  0  0  0
  -42.1983  -27.1623    1.8166 H   0  0  0  0  0  0  0  0  0  0  0  0
  -49.3822  -30.7344    0.4394 H   0  0  0  0  0  0  0  0  0  0  0  0
  -48.5747  -29.2391   -0.0308 H   0  0  0  0  0  0  0  0  0  0  0  0
  -50.2768  -29.1954    0.4917 H   0  0  0  0  0  0  0  0  0  0  0  0
  -44.2079  -25.9051    0.3203 H   0  0  0  0  0  0  0  0  0  0  0  0
  -42.6435  -26.3745   -0.3816 H   0  0  0  0  0  0  0  0  0  0  0  0
  -44.1511  -26.8281   -1.1979 H   0  0  0  0  0  0  0  0  0  0  0  0
  -43.0638  -30.8353    3.6084 H   0  0  0  0  0  0  0  0  0  0  0  0
  -43.1357  -29.2091    4.3029 H   0  0  0  0  0  0  0  0  0  0  0  0
  -51.3492  -28.6752    7.7481 H   0  0  0  0  0  0  0  0  0  0  0  0
  -49.7853  -28.5164    8.5004 H   0  0  0  0  0  0  0  0  0  0  0  0
  -45.1795  -30.3682    2.4606 H   0  0  0  0  0  0  0  0  0  0  0  0
  -41.1232  -28.7381    3.2682 H   0  0  0  0  0  0  0  0  0  0  0  0
  1  2  2  0  0  0  0
  1  4  1  0  0  0  0
  2  3  1  0  0  0  0
  2  7  1  0  0  0  0
  3  5  2  0  0  0  0
  3 22  1  0  0  0  0
  4 12  1  0  0  0  0
  4 15  2  0  0  0  0
  5 15  1  0  0  0  0
  5 16  1  0  0  0  0
  6 16  2  0  0  0  0
  6 18  1  0  0  0  0
  6 22  1  0  0  0  0
  7 19  1  0  0  0  0
  7 20  2  0  0  0  0
  8  9  1  0  0  0  0
  8 11  1  0  0  0  0
  9 17  1  0  0  0  0
 10 11  1  0  0  0  0
 10 17  1  0  0  0  0
 11 14  1  0  0  0  0
 11 21  1  0  0  0  0
 13 17  1  0  0  0  0
 14 19  1  0  0  0  0
  1 23  1  0  0  0  0
  8 24  1  0  0  0  0
  8 25  1  0  0  0  0
  9 26  1  0  0  0  0
  9 27  1  0  0  0  0
 10 28  1  0  0  0  0
 10 29  1  0  0  0  0
 12 30  1  0  0  0  0
 12 31  1  0  0  0  0
 12 32  1  0  0  0  0
 13 33  1  0  0  0  0
 13 34  1  0  0  0  0
 13 35  1  0  0  0  0
 14 36  1  0  0  0  0
 14 37  1  0  0  0  0
 18 38  1  0  0  0  0
 18 39  1  0  0  0  0
 19 40  1  0  0  0  0
 21 41  1  0  0  0  0
M  END
> <POSIT::Probability>
0.24

> <POSIT::Method>
FRED

> <ReceptorTitle>
UCSF-P4528-REFINED_LIGAND-BOUND-STATE_A__DU__LA1_A-201(A)

> <OMEGA_C>
9hc+wkzr6sEgNBdAG3w8wqdR6cGwXWtAJINAwhd/6MGqj5RAG4JDwsqX68FIhwVA6uRFwkhF6cH9
2ohARexGwsri5sEIG85Anrc2wlGJ6MEgnYBAsL4rwhed8MHQSHA/KAsswik06MFA+iC+7kwswm6T
3sE4bew/9KEqwtoO6sH4CA1ATjZFwkdS7cEwfSs/mrUuwgOM1cFA42K+2Iwtwvh17sHAFltAWn1H
wj/V6sG2bD9AYIZJwk5W6MFaEapAotUuwsuE38HgQQc/plBJwrOr5cF/3/RA400zwl1D7sH4Ck1A
ZFg1wnUm48GXmJ9AygQlwgMd6sFkxR1ARBZAwjaL5sG+5spAzyc7wi2j68HglMg/MJovwn3E9MEw
BIE/a6EowjaI9sHA3zk//QIowonZ5cEAvfO+LkQuwlcf68HQaIO/YCkvwmY/28HYJiRACcsowlVM
2cEUhug/YodFwgjg9cHA8+A+gExCwqPp6cEAjPy8fRtJwjCQ6cHgwfs+19Qwwq49z8HgAaQ+/JIq
wgL/0sFgYsO+tJowwvaf1sFQVJm/WUEswrSu9sHE8GZA6IoswkKs6cE6sYlAnWVNwuJm5cEj8PdA
LyRHwo0h5MG+AQhB2bc0wiPy8sHKeR1AJ34kwpTn5cHgKlFA

> <OMEGA_E>
ByAGwQ==

> <OMEGA_NBR>
      6953

$$$$
CACHE3HI_1687_18
  -OEChem-03092622573D

 31 33  0     0  0  0  0  0  0999 V2000
  -43.3770  -29.5161   -0.7390 C   0  0  0  0  0  0  0  0  0  0  0  0
  -42.7786  -29.8418    0.4782 C   0  0  0  0  0  0  0  0  0  0  0  0
  -43.8293  -28.2167   -0.9676 C   0  0  0  0  0  0  0  0  0  0  0  0
  -46.3216  -28.6532    4.5505 C   0  0  0  0  0  0  0  0  0  0  0  0
  -43.0847  -27.5687    1.2379 C   0  0  0  0  0  0  0  0  0  0  0  0
  -48.7458  -28.6588    5.5501 C   0  0  0  0  0  0  0  0  0  0  0  0
  -44.7806  -28.9905    6.3579 C   0  0  0  0  0  0  0  0  0  0  0  0
  -47.3392  -28.7309    5.5090 C   0  0  0  0  0  0  0  0  0  0  0  0
  -42.6323  -28.8682    1.4665 C   0  0  0  0  0  0  0  0  0  0  0  0
  -45.0080  -28.7886    5.0012 C   0  0  0  0  0  0  0  0  0  0  0  0
  -43.6830  -27.2431    0.0207 C   0  0  0  0  0  0  0  0  0  0  0  0
  -46.9730  -28.9358    6.8300 C   0  0  0  0  0  0  0  0  0  0  0  0
  -42.9753  -29.7045    3.8290 C   0  0  0  0  0  0  0  0  0  0  0  0
  -41.9867  -29.2204    2.7802 C   0  0  0  0  0  0  0  0  0  0  0  0
  -45.7288  -29.0730    7.3219 N   0  0  0  0  0  0  0  0  0  0  0  0
  -49.2356  -28.8045    6.7860 N   0  0  0  0  0  0  0  0  0  0  0  0
  -48.1357  -28.9705    7.5416 N   0  0  0  0  0  0  0  0  0  0  0  0
  -43.9423  -28.7227    4.1054 N   0  0  0  0  0  0  0  0  0  0  0  0
  -42.8994  -30.8187    4.3371 O   0  0  0  0  0  0  0  0  0  0  0  0
  -44.2406  -25.6398   -0.2625 Cl  0  0  0  0  0  0  0  0  0  0  0  0
  -43.4903  -30.2746   -1.5079 H   0  0  0  0  0  0  0  0  0  0  0  0
  -42.4291  -30.8567    0.6473 H   0  0  0  0  0  0  0  0  0  0  0  0
  -44.2936  -27.9771   -1.9206 H   0  0  0  0  0  0  0  0  0  0  0  0
  -46.5489  -28.4931    3.5014 H   0  0  0  0  0  0  0  0  0  0  0  0
  -42.9697  -26.8132    2.0120 H   0  0  0  0  0  0  0  0  0  0  0  0
  -49.4361  -28.5064    4.7327 H   0  0  0  0  0  0  0  0  0  0  0  0
  -43.7654  -29.0991    6.7338 H   0  0  0  0  0  0  0  0  0  0  0  0
  -41.2312  -29.9996    2.6194 H   0  0  0  0  0  0  0  0  0  0  0  0
  -41.4552  -28.3460    3.1765 H   0  0  0  0  0  0  0  0  0  0  0  0
  -48.2517  -29.1030    8.5385 H   0  0  0  0  0  0  0  0  0  0  0  0
  -43.8457  -27.8483    3.5754 H   0  0  0  0  0  0  0  0  0  0  0  0
  1  2  1  0  0  0  0
  1  3  2  0  0  0  0
  2  9  2  0  0  0  0
  3 11  1  0  0  0  0
  4  8  2  0  0  0  0
  4 10  1  0  0  0  0
  5  9  1  0  0  0  0
  5 11  2  0  0  0  0
  6  8  1  0  0  0  0
  6 16  2  0  0  0  0
  7 10  2  0  0  0  0
  7 15  1  0  0  0  0
  8 12  1  0  0  0  0
  9 14  1  0  0  0  0
 10 18  1  0  0  0  0
 11 20  1  0  0  0  0
 12 15  2  0  0  0  0
 12 17  1  0  0  0  0
 13 14  1  0  0  0  0
 13 18  1  0  0  0  0
 13 19  2  0  0  0  0
 16 17  1  0  0  0  0
  1 21  1  0  0  0  0
  2 22  1  0  0  0  0
  3 23  1  0  0  0  0
  4 24  1  0  0  0  0
  5 25  1  0  0  0  0
  6 26  1  0  0  0  0
  7 27  1  0  0  0  0
 14 28  1  0  0  0  0
 14 29  1  0  0  0  0
 17 30  1  0  0  0  0
 18 31  1  0  0  0  0
M  END
> <POSIT::Probability>
0.23

> <POSIT::Method>
HYBRID

> <ReceptorTitle>
UCSF-P4528-REFINED_LIGAND-BOUND-STATE_A__DU__LA1_A-201(A)

> <OMEGA_C>
BIItwg8h7MGyMT2/Sh0rwva77sH70/Q+NVEvwsK74cGas3e/Ukk5ws455cGunZFAuFYswruM3MGL
dJ4/wPtCwjZF5cHImrFAVh8zwoTs58Hkc8tAUFs9wtTY5cEcSrBAgIcqwh/y5sGOtrs/NQg0whlP
5sGzCaBAa7suwuvx2cGw7qk8T+Q7wm1858G9j9pAsOYrwsmi7cEQD3VAXvInwmzD6cHX7jFATOo2
woGV6MHHTOpARvFEwpRv5sE8J9lA9YpAwqHD58HMVPFA6cQvwinI5cE/X4NAAZkrwq2M9sEmyYpA
ZfYwwj4ezcEtaYa+FvYtwngy8sF9BMG/WbcpwpDa9sGasiU/siwxwg7R38F11/W/DTI6wuDx48G4
F2BA/+ArwnWB1sFGxQBAmL5FwioN5MGQcpdAug8vwt3K6MEqe9dAy+wkwif/78GzpCdAG9IlwprE
4sH7S0tAyQFBwtvS6MHhnQhB/GEvwkzJ3sHZ02RA

> <OMEGA_E>
8H87wQ==

> <OMEGA_NBR>
      8068

$$$$
CACHE3HI_1687_4
  -OEChem-03092622573D

 36 39  0     0  0  0  0  0  0999 V2000
  -46.2645  -29.7118   -1.0843 C   0  0  0  0  0  0  0  0  0  0  0  0
  -46.7242  -28.5445   -0.4548 C   0  0  0  0  0  0  0  0  0  0  0  0
  -45.0016  -30.2294   -0.7886 C   0  0  0  0  0  0  0  0  0  0  0  0
  -45.9293  -27.8790    0.4791 C   0  0  0  0  0  0  0  0  0  0  0  0
  -45.9357  -28.6097    4.5425 C   0  0  0  0  0  0  0  0  0  0  0  0
  -48.4805  -28.5681    5.1741 C   0  0  0  0  0  0  0  0  0  0  0  0
  -44.6904  -29.0753    6.5394 C   0  0  0  0  0  0  0  0  0  0  0  0
  -47.0860  -28.6892    5.3367 C   0  0  0  0  0  0  0  0  0  0  0  0
  -44.2243  -29.5687    0.1480 C   0  0  0  0  0  0  0  0  0  0  0  0
  -44.6832  -28.4057    0.7753 C   0  0  0  0  0  0  0  0  0  0  0  0
  -44.7081  -28.8106    5.1746 C   0  0  0  0  0  0  0  0  0  0  0  0
  -46.9259  -28.9605    6.6865 C   0  0  0  0  0  0  0  0  0  0  0  0
  -42.8374  -29.9114    0.5990 C   0  0  0  0  0  0  0  0  0  0  0  0
  -43.6492  -27.8543    1.7084 C   0  0  0  0  0  0  0  0  0  0  0  0
  -42.7084  -29.0610    1.8754 C   0  0  0  0  0  0  0  0  0  0  0  0
  -45.7731  -29.1624    7.3489 N   0  0  0  0  0  0  0  0  0  0  0  0
  -49.1522  -28.7459    6.3167 N   0  0  0  0  0  0  0  0  0  0  0  0
  -48.1818  -28.9820    7.2173 N   0  0  0  0  0  0  0  0  0  0  0  0
  -43.4811  -28.7439    4.4257 N   0  0  0  0  0  0  0  0  0  0  0  0
  -41.9804  -30.7686    3.7201 O   0  0  0  0  0  0  0  0  0  0  0  0
  -44.3957  -30.6833    3.0106 O   0  0  0  0  0  0  0  0  0  0  0  0
  -43.1477  -30.0111    3.3164 S   0  0  0  0  0  0  0  0  0  0  0  0
  -46.8959  -30.2130   -1.8130 H   0  0  0  0  0  0  0  0  0  0  0  0
  -47.7075  -28.1535   -0.7023 H   0  0  0  0  0  0  0  0  0  0  0  0
  -44.6437  -31.1257   -1.2837 H   0  0  0  0  0  0  0  0  0  0  0  0
  -46.2829  -26.9716    0.9568 H   0  0  0  0  0  0  0  0  0  0  0  0
  -45.9986  -28.4003    3.4793 H   0  0  0  0  0  0  0  0  0  0  0  0
  -49.0371  -28.3579    4.2719 H   0  0  0  0  0  0  0  0  0  0  0  0
  -43.7455  -29.2358    7.0535 H   0  0  0  0  0  0  0  0  0  0  0  0
  -42.7180  -30.9830    0.7832 H   0  0  0  0  0  0  0  0  0  0  0  0
  -42.1203  -29.5818   -0.1605 H   0  0  0  0  0  0  0  0  0  0  0  0
  -43.1302  -27.0228    1.2196 H   0  0  0  0  0  0  0  0  0  0  0  0
  -44.0856  -27.5167    2.6529 H   0  0  0  0  0  0  0  0  0  0  0  0
  -41.6739  -28.7483    2.0529 H   0  0  0  0  0  0  0  0  0  0  0  0
  -48.4487  -29.1518    8.1790 H   0  0  0  0  0  0  0  0  0  0  0  0
  -42.6761  -28.4218    4.9794 H   0  0  0  0  0  0  0  0  0  0  0  0
  1  2  1  0  0  0  0
  1  3  2  0  0  0  0
  2  4  2  0  0  0  0
  3  9  1  0  0  0  0
  4 10  1  0  0  0  0
  5  8  2  0  0  0  0
  5 11  1  0  0  0  0
  6  8  1  0  0  0  0
  6 17  2  0  0  0  0
  7 11  2  0  0  0  0
  7 16  1  0  0  0  0
  8 12  1  0  0  0  0
  9 10  2  0  0  0  0
  9 13  1  0  0  0  0
 10 14  1  0  0  0  0
 11 19  1  0  0  0  0
 12 16  2  0  0  0  0
 12 18  1  0  0  0  0
 13 15  1  0  0  0  0
 14 15  1  0  0  0  0
 15 22  1  0  0  0  0
 17 18  1  0  0  0  0
 19 22  1  0  0  0  0
 20 22  2  0  0  0  0
 21 22  2  0  0  0  0
  1 23  1  0  0  0  0
  2 24  1  0  0  0  0
  3 25  1  0  0  0  0
  4 26  1  0  0  0  0
  5 27  1  0  0  0  0
  6 28  1  0  0  0  0
  7 29  1  0  0  0  0
 13 30  1  0  0  0  0
 13 31  1  0  0  0  0
 14 32  1  0  0  0  0
 14 33  1  0  0  0  0
 15 34  1  0  0  0  0
 18 35  1  0  0  0  0
 19 36  1  0  0  0  0
M  END
> <POSIT::Probability>
0.18

> <POSIT::Method>
FRED

> <ReceptorTitle>
UCSF-P4528-REFINED_LIGAND-BOUND-STATE_A__DU__LA1_A-201(A)

> <OMEGA_C>
zg45wtKx7cHky4q/nOU6wjZb5MHg3Oi+qwE0wufV8cEA30m/nrc3wiQI38EkU/U+ML43wqDg5MEQ
XJFA/utBwnSL5MHckaVAAsMywiya6MGiQtFAFFg8wo2D5cFkxqpAseUwwr6M7MHQhhc+mLsywuA+
48EueUY/FdUywhN85sHwlaVALLQ7wiCv58HY99VAjFkrwolK78EuVhk/0pguwo7V3sHHrNo/YdUq
wuB86MEpDfA/qBc3wqBM6cGGKutA0ZtEwpL35cHMIspANrpAwiTb58Em9OZApOwtwn7z5cE9n41A
6+snwigm9sG0FW5AOJUxwmt39cHWrUBANpcswsQW8MEsQFRAXJU7wk608cF2D+i/eNQ+wnc64cHE
yTO/IpMywmAB+cGCT6S/pCE5wsnF18HK8nQ/lf43wuQz48E8rF5AAiZEwvrc4sFss4hAYPsuwubi
6cF8tuFAPt8qwhjd98Hofkg/Nnsowoyn7MFwYyS+UYUswqQu2MFsHJw/olcwwiwi3MEcySlAGrIm
wor85cEEYgNAcstBwtg26cEL3QJBXrQqwupf48GjV59A

> <OMEGA_E>
zmMpwQ==

> <OMEGA_NBR>
      9281

$$$$
CACHE3HI_1689_100
  -OEChem-03092622573D

 39 41  0     0  0  0  0  0  0999 V2000
  -47.1053  -28.6404    5.2918 C   0  0  0  0  0  0  0  0  0  0  0  0
  -47.8625  -28.6961    6.4608 C   0  0  0  0  0  0  0  0  0  0  0  0
  -44.5304  -28.2988    0.8598 C   0  0  0  0  0  0  0  0  0  0  0  0
  -49.1228  -28.8243    3.9786 C   0  0  0  0  0  0  0  0  0  0  0  0
  -43.4288  -28.7245    0.1582 C   0  0  0  0  0  0  0  0  0  0  0  0
  -47.7340  -28.7066    4.0510 C   0  0  0  0  0  0  0  0  0  0  0  0
  -49.2544  -28.8366    6.3939 C   0  0  0  0  0  0  0  0  0  0  0  0
  -49.8901  -28.8923    5.1479 C   0  0  0  0  0  0  0  0  0  0  0  0
  -44.6220  -29.1911    1.9449 C   0  0  0  0  0  0  0  0  0  0  0  0
  -51.3118  -29.1669    7.7419 C   0  0  0  0  0  0  0  0  0  0  0  0
  -46.9427  -28.6692    2.8321 C   0  0  0  0  0  0  0  0  0  0  0  0
  -52.0054  -29.8007    6.5639 C   0  0  0  0  0  0  0  0  0  0  0  0
  -40.5441  -30.2619    1.3060 C   0  0  0  0  0  0  0  0  0  0  0  0
  -41.7920  -30.5941    0.4849 C   0  0  0  0  0  0  0  0  0  0  0  0
  -40.6992  -30.5662    2.7915 C   0  0  0  0  0  0  0  0  0  0  0  0
  -43.6561  -30.1135    1.9373 N   0  0  0  0  0  0  0  0  0  0  0  0
  -42.9465  -29.8035    0.8389 N   0  0  0  0  0  0  0  0  0  0  0  0
  -49.9752  -28.8624    7.6029 N   0  0  0  0  0  0  0  0  0  0  0  0
  -45.6239  -29.1312    2.9446 N   0  0  0  0  0  0  0  0  0  0  0  0
  -51.9012  -29.0405    8.8186 O   0  0  0  0  0  0  0  0  0  0  0  0
  -47.4552  -28.2225    1.7930 O   0  0  0  0  0  0  0  0  0  0  0  0
  -39.4837  -30.2402    3.4543 O   0  0  0  0  0  0  0  0  0  0  0  0
  -51.6637  -28.9458    5.0203 S   0  0  0  0  0  0  0  0  0  0  0  0
  -46.0237  -28.5485    5.3607 H   0  0  0  0  0  0  0  0  0  0  0  0
  -47.3578  -28.6232    7.4214 H   0  0  0  0  0  0  0  0  0  0  0  0
  -45.1699  -27.4629    0.6148 H   0  0  0  0  0  0  0  0  0  0  0  0
  -49.6042  -28.8700    3.0031 H   0  0  0  0  0  0  0  0  0  0  0  0
  -42.9605  -28.3591   -0.7454 H   0  0  0  0  0  0  0  0  0  0  0  0
  -51.6665  -30.8371    6.4670 H   0  0  0  0  0  0  0  0  0  0  0  0
  -53.0837  -29.8112    6.7560 H   0  0  0  0  0  0  0  0  0  0  0  0
  -39.6990  -30.8437    0.9163 H   0  0  0  0  0  0  0  0  0  0  0  0
  -40.2584  -29.2100    1.1773 H   0  0  0  0  0  0  0  0  0  0  0  0
  -42.0220  -31.6627    0.5780 H   0  0  0  0  0  0  0  0  0  0  0  0
  -41.5766  -30.4288   -0.5793 H   0  0  0  0  0  0  0  0  0  0  0  0
  -40.9082  -31.6284    2.9523 H   0  0  0  0  0  0  0  0  0  0  0  0
  -41.5017  -29.9719    3.2388 H   0  0  0  0  0  0  0  0  0  0  0  0
  -49.4544  -28.6576    8.4525 H   0  0  0  0  0  0  0  0  0  0  0  0
  -45.3505  -29.4677    3.8649 H   0  0  0  0  0  0  0  0  0  0  0  0
  -39.6150  -30.4445    4.3939 H   0  0  0  0  0  0  0  0  0  0  0  0
  1  2  1  0  0  0  0
  1  6  2  0  0  0  0
  2  7  2  0  0  0  0
  3  5  2  0  0  0  0
  3  9  1  0  0  0  0
  4  6  1  0  0  0  0
  4  8  2  0  0  0  0
  5 17  1  0  0  0  0
  6 11  1  0  0  0  0
  7  8  1  0  0  0  0
  7 18  1  0  0  0  0
  8 23  1  0  0  0  0
  9 16  2  0  0  0  0
  9 19  1  0  0  0  0
 10 12  1  0  0  0  0
 10 18  1  0  0  0  0
 10 20  2  0  0  0  0
 11 19  1  0  0  0  0
 11 21  2  0  0  0  0
 12 23  1  0  0  0  0
 13 14  1  0  0  0  0
 13 15  1  0  0  0  0
 14 17  1  0  0  0  0
 15 22  1  0  0  0  0
 16 17  1  0  0  0  0
  1 24  1  0  0  0  0
  2 25  1  0  0  0  0
  3 26  1  0  0  0  0
  4 27  1  0  0  0  0
  5 28  1  0  0  0  0
 12 29  1  0  0  0  0
 12 30  1  0  0  0  0
 13 31  1  0  0  0  0
 13 32  1  0  0  0  0
 14 33  1  0  0  0  0
 14 34  1  0  0  0  0
 15 35  1  0  0  0  0
 15 36  1  0  0  0  0
 18 37  1  0  0  0  0
 19 38  1  0  0  0  0
 22 39  1  0  0  0  0
M  END
> <POSIT::Probability>
0.05

> <POSIT::Method>
FRED

> <ReceptorTitle>
UCSF-P4528-REFINED_LIGAND-BOUND-STATE_A__DU__LA1_A-201(A)

> <OMEGA_C>
2Ws8wngf5cEbVqlAPHM/wrKR5cEWv85AKx8ywv9j4sEoHFw/y31EwjOY5sHqoX5AD7ctwsXL5cGA
CiI+mu8+wiWn5cEmooFAfgRFwlqx5sERm8xAeY9Hwm4j58FTu6RA53wywkqH6cFs8vg/ST9NwtdV
6cHJvfdAVsU7wnBa5cGEQTVAfwVQwudn7sE0C9JALS0iwlMY8sF4K6c/+ionwqzA9MGwQvg+Bcwi
woOH9ME+pzJA1Z8uwmLo8MFY+Pc/QskrwqNt7sEIw1Y/leZHwhrm5sExS/NA5342wq8M6cGMczxA
4ZpPwuxS6MHsGA1BGdI9wqzH4cFcgOU/XO8dwuDr8cEcE11Aq6dOwgiR58HkpaBASxg4wkZj5ME4
i6tAbW49wj/85MFLfO1ABa40wgK028GoZh0/sWpGwsD15sGyMkBAh9crwmXf4sFQ0z6/gqpOwlOy
9sHH8c5Av1VUwm997sGLMdhAvssewtu/9sGokGo/mAghwgeu6cFgsJY/kBYowktN/cFY+RM/b04m
wh5u88HQSxS/9KEjwu8G/cHS8TxAtwEmwmbG78H+R09AStFFwtlC5cFYPQdB82Y1wti968E2W3dA
wXUewm+O88FumoxA

> <OMEGA_E>
GLAKwQ==

> <OMEGA_NBR>
     10551

$$$$
CACHE3HI_1689_11
  -OEChem-03092622573D

 34 36  0     0  0  0  0  0  0999 V2000
  -46.1967  -29.0473    4.2557 C   0  0  0  0  0  0  0  0  0  0  0  0
  -44.4813  -29.2360    5.9246 C   0  0  0  0  0  0  0  0  0  0  0  0
  -42.9902  -28.8429    0.3877 C   0  0  0  0  0  0  0  0  0  0  0  0
  -48.7968  -28.8132    6.6127 C   0  0  0  0  0  0  0  0  0  0  0  0
  -44.8477  -29.1853    4.5833 C   0  0  0  0  0  0  0  0  0  0  0  0
  -43.0422  -30.1280    0.8704 C   0  0  0  0  0  0  0  0  0  0  0  0
  -47.1084  -28.9675    5.3167 C   0  0  0  0  0  0  0  0  0  0  0  0
  -44.3071  -30.6013    0.4731 C   0  0  0  0  0  0  0  0  0  0  0  0
  -46.6052  -29.0314    6.6088 C   0  0  0  0  0  0  0  0  0  0  0  0
  -43.8420  -29.2765    3.5386 C   0  0  0  0  0  0  0  0  0  0  0  0
  -41.9757  -30.8569    1.6499 C   0  0  0  0  0  0  0  0  0  0  0  0
  -41.5639  -30.1255    2.9247 C   0  0  0  0  0  0  0  0  0  0  0  0
  -44.8945  -31.9290    0.7253 C   0  0  0  0  0  0  0  0  0  0  0  0
  -45.3220  -29.1633    6.9852 N   0  0  0  0  0  0  0  0  0  0  0  0
  -48.4751  -28.8315    5.3368 N   0  0  0  0  0  0  0  0  0  0  0  0
  -45.0077  -29.6913   -0.2087 N   0  0  0  0  0  0  0  0  0  0  0  0
  -44.1804  -28.6329   -0.2442 N   0  0  0  0  0  0  0  0  0  0  0  0
  -47.6979  -28.9309    7.4226 N   0  0  0  0  0  0  0  0  0  0  0  0
  -42.6646  -29.9678    3.8479 N   0  0  0  0  0  0  0  0  0  0  0  0
  -44.0298  -28.7400    2.4318 O   0  0  0  0  0  0  0  0  0  0  0  0
  -44.0857  -32.7820    1.4349 F   0  0  0  0  0  0  0  0  0  0  0  0
  -45.2022  -32.6134   -0.4231 F   0  0  0  0  0  0  0  0  0  0  0  0
  -46.0668  -31.8983    1.4397 F   0  0  0  0  0  0  0  0  0  0  0  0
  -46.5313  -29.0035    3.2245 H   0  0  0  0  0  0  0  0  0  0  0  0
  -43.4350  -29.3438    6.2025 H   0  0  0  0  0  0  0  0  0  0  0  0
  -42.2314  -28.0747    0.4350 H   0  0  0  0  0  0  0  0  0  0  0  0
  -49.7951  -28.7187    7.0156 H   0  0  0  0  0  0  0  0  0  0  0  0
  -42.3197  -31.8709    1.8910 H   0  0  0  0  0  0  0  0  0  0  0  0
  -41.0972  -30.9818    1.0042 H   0  0  0  0  0  0  0  0  0  0  0  0
  -40.7906  -30.6968    3.4487 H   0  0  0  0  0  0  0  0  0  0  0  0
  -41.1645  -29.1286    2.7123 H   0  0  0  0  0  0  0  0  0  0  0  0
  -44.4930  -27.7951   -0.7188 H   0  0  0  0  0  0  0  0  0  0  0  0
  -47.6964  -28.9416    8.4338 H   0  0  0  0  0  0  0  0  0  0  0  0
  -42.5361  -30.3321    4.7860 H   0  0  0  0  0  0  0  0  0  0  0  0
  1  5  1  0  0  0  0
  1  7  2  0  0  0  0
  2  5  2  0  0  0  0
  2 14  1  0  0  0  0
  3  6  2  0  0  0  0
  3 17  1  0  0  0  0
  4 15  2  0  0  0  0
  4 18  1  0  0  0  0
  5 10  1  0  0  0  0
  6  8  1  0  0  0  0
  6 11  1  0  0  0  0
  7  9  1  0  0  0  0
  7 15  1  0  0  0  0
  8 13  1  0  0  0  0
  8 16  2  0  0  0  0
  9 14  2  0  0  0  0
  9 18  1  0  0  0  0
 10 19  1  0  0  0  0
 10 20  2  0  0  0  0
 11 12  1  0  0  0  0
 12 19  1  0  0  0  0
 13 21  1  0  0  0  0
 13 22  1  0  0  0  0
 13 23  1  0  0  0  0
 16 17  1  0  0  0  0
  1 24  1  0  0  0  0
  2 25  1  0  0  0  0
  3 26  1  0  0  0  0
  4 27  1  0  0  0  0
 11 28  1  0  0  0  0
 11 29  1  0  0  0  0
 12 30  1  0  0  0  0
 12 31  1  0  0  0  0
 17 32  1  0  0  0  0
 18 33  1  0  0  0  0
 19 34  1  0  0  0  0
M  END
> <POSIT::Probability>
0.19

> <POSIT::Method>
FRED

> <ReceptorTitle>
UCSF-P4528-REFINED_LIGAND-BOUND-STATE_A__DU__LA1_A-201(A)

> <OMEGA_C>
dck4wupg6MHsLohA3Owxwk/j6cEzlr1A7vUrwk6+5sHAg8Y+7i9DwlaB5sGEm9NACWQzwpN76cH+
qZJALisswh4G8cGQ0l4/Cm88wni958GMIqpAdjoxwoLP9MFQP/I+t2s6wjhA6MHmetNAQF4vwjI2
6sHZd2JAEucnwtja9sEmMdM/aUEmwv0A8cFnLjtA95Mzwqhu/8F4sDk/sUk1wmpO6cGUht9AheZB
wvGm5sGwxqpA2Ac0wtaH7cEQv1W+vLgwwikQ5cEAGnq+pco+wm5y58EGhu1AiKgqwie+78GVQ3ZA
fh4wwoLr5cFMoxtAvVcwws4gA8I2qrc/As80wip0AsKgpNi+b0Q4wtAv/8FYSbg/FyA6whIH6MG1
Xk5Afb0twiDA6sE+e8ZA+uwowvOY4MEYtt4+Mi5Hws6/5cH+f+BAYEcpwqr3/sFRDPI/gGMkwqLa
98HAioA/lCkjwhaT9cF8t1xAbqgkwk4H6cEdli1A4vgxwkpc3sEwADi/HMk+wnCI58G+8AZB/SQq
whSo8sH/JplA

> <OMEGA_E>
uHQiwQ==

> <OMEGA_NBR>
     11724

$$$$
CACHE3HI_1689_19
  -OEChem-03092622573D

 41 43  0     0  0  0  0  0  0999 V2000
  -44.2693  -29.4090    5.0245 C   0  0  0  0  0  0  0  0  0  0  0  0
  -45.4369  -29.6450    5.9000 C   0  0  0  0  0  0  0  0  0  0  0  0
  -42.6811  -28.2905    0.8086 C   0  0  0  0  0  0  0  0  0  0  0  0
  -43.0878  -29.1620    1.9355 C   0  0  0  0  0  0  0  0  0  0  0  0
  -44.7486  -28.8635    3.8619 C   0  0  0  0  0  0  0  0  0  0  0  0
  -43.9762  -28.4386    2.6912 C   0  0  0  0  0  0  0  0  0  0  0  0
  -44.6352  -31.3390    0.5401 C   0  0  0  0  0  0  0  0  0  0  0  0
  -44.1684  -32.5614   -1.6278 C   0  0  0  0  0  0  0  0  0  0  0  0
  -45.2583  -33.7655    0.3445 C   0  0  0  0  0  0  0  0  0  0  0  0
  -44.5402  -33.7817   -2.4925 C   0  0  0  0  0  0  0  0  0  0  0  0
  -45.5702  -34.9253   -0.6211 C   0  0  0  0  0  0  0  0  0  0  0  0
  -45.1449  -32.4210   -0.4250 C   0  0  0  0  0  0  0  0  0  0  0  0
  -47.0870  -28.4274    3.0013 C   0  0  0  0  0  0  0  0  0  0  0  0
  -42.7385  -30.6271    2.1059 C   0  0  0  0  0  0  0  0  0  0  0  0
  -46.5272  -29.2761    5.2623 N   0  0  0  0  0  0  0  0  0  0  0  0
  -43.3075  -27.1382    0.9163 N   0  0  0  0  0  0  0  0  0  0  0  0
  -44.0720  -27.2434    2.0271 N   0  0  0  0  0  0  0  0  0  0  0  0
  -46.1138  -28.8090    4.0587 N   0  0  0  0  0  0  0  0  0  0  0  0
  -43.3312  -31.4562    1.0420 N   0  0  0  0  0  0  0  0  0  0  0  0
  -45.3887  -30.4302    0.8739 O   0  0  0  0  0  0  0  0  0  0  0  0
  -44.5785  -34.9730   -1.6728 O   0  0  0  0  0  0  0  0  0  0  0  0
  -46.4429  -32.0605   -0.9211 O   0  0  0  0  0  0  0  0  0  0  0  0
  -43.2369  -29.6249    5.2564 H   0  0  0  0  0  0  0  0  0  0  0  0
  -45.4009  -30.0533    6.8992 H   0  0  0  0  0  0  0  0  0  0  0  0
  -41.9849  -28.5571    0.0272 H   0  0  0  0  0  0  0  0  0  0  0  0
  -43.1437  -32.6868   -1.2481 H   0  0  0  0  0  0  0  0  0  0  0  0
  -44.2222  -31.6521   -2.2445 H   0  0  0  0  0  0  0  0  0  0  0  0
  -46.0654  -33.6884    1.0878 H   0  0  0  0  0  0  0  0  0  0  0  0
  -44.3063  -33.9691    0.8566 H   0  0  0  0  0  0  0  0  0  0  0  0
  -45.5290  -33.6194   -2.9464 H   0  0  0  0  0  0  0  0  0  0  0  0
  -43.7890  -33.9089   -3.2859 H   0  0  0  0  0  0  0  0  0  0  0  0
  -45.5585  -35.8748   -0.0659 H   0  0  0  0  0  0  0  0  0  0  0  0
  -46.5650  -34.7723   -1.0650 H   0  0  0  0  0  0  0  0  0  0  0  0
  -48.1110  -28.5894    3.3690 H   0  0  0  0  0  0  0  0  0  0  0  0
  -46.9529  -27.3659    2.7456 H   0  0  0  0  0  0  0  0  0  0  0  0
  -46.9168  -29.0444    2.1067 H   0  0  0  0  0  0  0  0  0  0  0  0
  -41.6445  -30.7384    2.0768 H   0  0  0  0  0  0  0  0  0  0  0  0
  -43.1164  -30.9727    3.0794 H   0  0  0  0  0  0  0  0  0  0  0  0
  -44.6649  -26.5020    2.3414 H   0  0  0  0  0  0  0  0  0  0  0  0
  -42.7515  -32.1661    0.6420 H   0  0  0  0  0  0  0  0  0  0  0  0
  -46.7290  -31.2556   -0.5054 H   0  0  0  0  0  0  0  0  0  0  0  0
  1  2  1  0  0  0  0
  1  5  2  0  0  0  0
  2 15  2  0  0  0  0
  3  4  1  0  0  0  0
  3 16  2  0  0  0  0
  4  6  2  0  0  0  0
  4 14  1  0  0  0  0
  5  6  1  0  0  0  0
  5 18  1  0  0  0  0
  6 17  1  0  0  0  0
  7 12  1  0  0  0  0
  7 19  1  0  0  0  0
  7 20  2  0  0  0  0
  8 10  1  0  0  0  0
  8 12  1  0  0  0  0
  9 11  1  0  0  0  0
  9 12  1  0  0  0  0
 10 21  1  0  0  0  0
 11 21  1  0  0  0  0
 12 22  1  0  0  0  0
 13 18  1  0  0  0  0
 14 19  1  0  0  0  0
 15 18  1  0  0  0  0
 16 17  1  0  0  0  0
  1 23  1  0  0  0  0
  2 24  1  0  0  0  0
  3 25  1  0  0  0  0
  8 26  1  0  0  0  0
  8 27  1  0  0  0  0
  9 28  1  0  0  0  0
  9 29  1  0  0  0  0
 10 30  1  0  0  0  0
 10 31  1  0  0  0  0
 11 32  1  0  0  0  0
 11 33  1  0  0  0  0
 13 34  1  0  0  0  0
 13 35  1  0  0  0  0
 13 36  1  0  0  0  0
 14 37  1  0  0  0  0
 14 38  1  0  0  0  0
 17 39  1  0  0  0  0
 19 40  1  0  0  0  0
 22 41  1  0  0  0  0
M  END
> <POSIT::Probability>
0.25

> <POSIT::Method>
SHAPEFIT

> <ReceptorTitle>
UCSF-P4528-REFINED_LIGAND-BOUND-STATE_A__DU__LA1_A-201(A)

> <OMEGA_C>
zRMxwp5F68GuyKBAZL81wv4o7cH9zLxAcbkqwv1S4sEbA08/3FkswsBL6cECv/c/jP4ywono5sE8
KXdAmecvwkKC48GiPCxAcYoywli2+sE6Rwo/dKwwwuA+AsJDW9C/dQg1wugPB8K+XLA+MCkywnkg
B8LchB/A5Uc2woCzC8JFAB+/W5Q0wh+vAcJMnNm+DVk8wk5r48HFFUBAMfQqwkIE9cHtxgZA0Bs6
wmU16sF7ZKhA3DotwhEb2cG1kWo/vEkwwnfy2cEBvAFAlXQ4wsh45sGt4IFAHlMtwkKm+8HBYIU/
FI41wgFx88E2uF8/aVAywlvkC8JPH9a/hcU5wuw9AMLvz2u/jfIsws//7MGKNKhAkZo1wilt8MF4
xtxAk/AnwvF05ME3lN48HZMswka/AsIqwZ+/kuMwwo43/cGppQ/A9EI4wvLABsIEPos/ojkxwlng
B8JXS1s/rx02wkF6BsIBkTzA8ScvwsOiB8LtS1LA4zs2wtJ/D8Ij84a9jkI6wt4WC8JJUIi/onFA
wha35MFHnVdA0s87wnft2sGjuC9A06o7wt1a6MHY0wZA+ZMmwkHo9cGn6QRANHcswiHI98GuFEVA
3agywhkE1ME82hVAkAErwhaqAMJyWCQ/eOo6wn8L+sEqYAG/

> <OMEGA_E>
fSmaPw==

> <OMEGA_NBR>
     13062

$$$$
CACHE3HI_1689_22
  -OEChem-03092622573D

 41 43  0     0  0  0  0  0  0999 V2000
  -49.6213  -29.1987    3.7491 C   0  0  0  0  0  0  0  0  0  0  0  0
  -48.2689  -29.0896    3.4067 C   0  0  0  0  0  0  0  0  0  0  0  0
  -51.2275  -29.2849    5.8029 C   0  0  0  0  0  0  0  0  0  0  0  0
  -43.5401  -29.6913    2.6451 C   0  0  0  0  0  0  0  0  0  0  0  0
  -43.9573  -28.0860    0.8880 C   0  0  0  0  0  0  0  0  0  0  0  0
  -42.0003  -29.4989    0.7932 C   0  0  0  0  0  0  0  0  0  0  0  0
  -47.6289  -28.9741    5.7472 C   0  0  0  0  0  0  0  0  0  0  0  0
  -50.9580  -29.2269    7.1507 C   0  0  0  0  0  0  0  0  0  0  0  0
  -49.9876  -29.1952    5.1100 C   0  0  0  0  0  0  0  0  0  0  0  0
  -44.3315  -28.6853    2.0908 C   0  0  0  0  0  0  0  0  0  0  0  0
  -42.3745  -30.0982    1.9960 C   0  0  0  0  0  0  0  0  0  0  0  0
  -42.7916  -28.4929    0.2389 C   0  0  0  0  0  0  0  0  0  0  0  0
  -48.9851  -29.0835    6.0757 C   0  0  0  0  0  0  0  0  0  0  0  0
  -47.2898  -28.9791    4.3916 C   0  0  0  0  0  0  0  0  0  0  0  0
  -45.5641  -28.2539    2.7776 C   0  0  0  0  0  0  0  0  0  0  0  0
  -44.8553  -29.3977    4.8976 C   0  0  0  0  0  0  0  0  0  0  0  0
  -41.5287  -31.1749    2.5875 C   0  0  0  0  0  0  0  0  0  0  0  0
  -42.3912  -27.8518   -1.0467 C   0  0  0  0  0  0  0  0  0  0  0  0
  -49.6029  -29.1056    7.3057 N   0  0  0  0  0  0  0  0  0  0  0  0
  -45.9483  -28.8728    4.0199 N   0  0  0  0  0  0  0  0  0  0  0  0
  -46.1882  -27.3539    2.2163 O   0  0  0  0  0  0  0  0  0  0  0  0
  -40.8046  -30.6520    3.6942 O   0  0  0  0  0  0  0  0  0  0  0  0
  -42.2047  -26.4570   -0.8408 O   0  0  0  0  0  0  0  0  0  0  0  0
  -50.3745  -29.2836    2.9710 H   0  0  0  0  0  0  0  0  0  0  0  0
  -47.9932  -29.0923    2.3544 H   0  0  0  0  0  0  0  0  0  0  0  0
  -52.2109  -29.3820    5.3637 H   0  0  0  0  0  0  0  0  0  0  0  0
  -43.8301  -30.1590    3.5832 H   0  0  0  0  0  0  0  0  0  0  0  0
  -44.5727  -27.3004    0.4549 H   0  0  0  0  0  0  0  0  0  0  0  0
  -41.0908  -29.8153    0.2874 H   0  0  0  0  0  0  0  0  0  0  0  0
  -46.8732  -28.8900    6.5224 H   0  0  0  0  0  0  0  0  0  0  0  0
  -51.6092  -29.2610    8.0126 H   0  0  0  0  0  0  0  0  0  0  0  0
  -44.6328  -30.4403    4.6529 H   0  0  0  0  0  0  0  0  0  0  0  0
  -43.9462  -28.8043    4.7648 H   0  0  0  0  0  0  0  0  0  0  0  0
  -45.1538  -29.3397    5.9480 H   0  0  0  0  0  0  0  0  0  0  0  0
  -42.1416  -32.0178    2.9341 H   0  0  0  0  0  0  0  0  0  0  0  0
  -40.8131  -31.5686    1.8523 H   0  0  0  0  0  0  0  0  0  0  0  0
  -41.4552  -28.2794   -1.4306 H   0  0  0  0  0  0  0  0  0  0  0  0
  -43.1595  -27.9944   -1.8195 H   0  0  0  0  0  0  0  0  0  0  0  0
  -49.1249  -29.0407    8.1939 H   0  0  0  0  0  0  0  0  0  0  0  0
  -40.2702  -31.3810    4.0476 H   0  0  0  0  0  0  0  0  0  0  0  0
  -41.9465  -26.0807   -1.6973 H   0  0  0  0  0  0  0  0  0  0  0  0
  1  2  2  0  0  0  0
  1  9  1  0  0  0  0
  2 14  1  0  0  0  0
  3  8  2  0  0  0  0
  3  9  1  0  0  0  0
  4 10  1  0  0  0  0
  4 11  2  0  0  0  0
  5 10  2  0  0  0  0
  5 12  1  0  0  0  0
  6 11  1  0  0  0  0
  6 12  2  0  0  0  0
  7 13  1  0  0  0  0
  7 14  2  0  0  0  0
  8 19  1  0  0  0  0
  9 13  2  0  0  0  0
 10 15  1  0  0  0  0
 11 17  1  0  0  0  0
 12 18  1  0  0  0  0
 13 19  1  0  0  0  0
 14 20  1  0  0  0  0
 15 20  1  0  0  0  0
 15 21  2  0  0  0  0
 16 20  1  0  0  0  0
 17 22  1  0  0  0  0
 18 23  1  0  0  0  0
  1 24  1  0  0  0  0
  2 25  1  0  0  0  0
  3 26  1  0  0  0  0
  4 27  1  0  0  0  0
  5 28  1  0  0  0  0
  6 29  1  0  0  0  0
  7 30  1  0  0  0  0
  8 31  1  0  0  0  0
 16 32  1  0  0  0  0
 16 33  1  0  0  0  0
 16 34  1  0  0  0  0
 17 35  1  0  0  0  0
 17 36  1  0  0  0  0
 18 37  1  0  0  0  0
 18 38  1  0  0  0  0
 19 39  1  0  0  0  0
 22 40  1  0  0  0  0
 23 41  1  0  0  0  0
M  END
> <POSIT::Probability>
0.24

> <POSIT::Method>
FRED

> <ReceptorTitle>
UCSF-P4528-REFINED_LIGAND-BOUND-STATE_A__DU__LA1_A-201(A)

> <OMEGA_C>
QXxGwtmW6cG78W9AVxNBwpK36MHdBlpA6uhMwmtH6sF4sblABikuwtmH7cFqSSlAQtQvwhiw4MEQ
UmM/RwAowrf968EAD0s//YM+wvPK58E56bdABdVLwrHQ6cHL0uRAR/NHwsCP6cHnhKNAa1Mxwm57
5cH9zwVAcH8pwgzJ8MFufv8/nyorwl7x48EAo3Q+wfBDwgCr6MHna8JAxig9wkrV58EmiIxAr0E2
whAI4sHyxDFAzmszwnEu68FjuZxAZh0mwidm+cEZmiVAlZApwoXQ3sG8+YW/UmlGwk3Y6MFxyOlA
G8s3wmz75sH2ooBAvMA4wrPU2sEd1w1A4Tcjwjk39cGabWxAqNEowvKn08GgP1e/iX9JwrZE6sEM
JT5AE/k/wgK96MHKrRZA+tdQwlcO68GPo6tAClIvwpJF8cGqU2VAeUoywkBn2sFQ6Og+BF0kwrWF
7sGAIZM+L347wrYe58Fft9BA1W9OwnkW6sFuMwBB9ocywrCF88GN5JRA88gvwk5v5sFfeZhAfp00
wqm36sEXVr5AApEowi4SAMK6yDtAmkAjwoyM/MHSGO0/HdIlwiY84sEYH7e/S6Mswn7038Hs5Oi/
7H9EwlJT6MEiGgNBvBQhwj4M+8EPhoFALsknwi2l0MHAP9m/

> <OMEGA_E>
nCwywQ==

> <OMEGA_NBR>
     14373

$$$$
CACHE3HI_1689_35
  -OEChem-03092622573D

 39 41  0     0  0  0  0  0  0999 V2000
  -48.5089  -28.7910    3.0958 C   0  0  0  0  0  0  0  0  0  0  0  0
  -47.3242  -28.8081    2.3643 C   0  0  0  0  0  0  0  0  0  0  0  0
  -44.5947  -33.7348   -0.6957 C   0  0  0  0  0  0  0  0  0  0  0  0
  -43.3425  -32.4804   -2.3216 C   0  0  0  0  0  0  0  0  0  0  0  0
  -44.6087  -34.7868   -1.5979 C   0  0  0  0  0  0  0  0  0  0  0  0
  -43.4122  -33.5881   -3.1510 C   0  0  0  0  0  0  0  0  0  0  0  0
  -48.4626  -28.8838    4.4845 C   0  0  0  0  0  0  0  0  0  0  0  0
  -43.9474  -32.5633   -1.0725 C   0  0  0  0  0  0  0  0  0  0  0  0
  -47.2052  -28.9914    5.0773 C   0  0  0  0  0  0  0  0  0  0  0  0
  -46.1273  -28.9180    3.0561 C   0  0  0  0  0  0  0  0  0  0  0  0
  -49.6654  -28.8723    5.3119 C   0  0  0  0  0  0  0  0  0  0  0  0
  -49.5294  -28.9665    6.6394 C   0  0  0  0  0  0  0  0  0  0  0  0
  -47.0987  -29.0938    6.5518 C   0  0  0  0  0  0  0  0  0  0  0  0
  -44.8659  -28.9405    2.3358 C   0  0  0  0  0  0  0  0  0  0  0  0
  -43.9019  -31.3876   -0.1293 C   0  0  0  0  0  0  0  0  0  0  0  0
  -43.8501  -30.0570   -0.8845 C   0  0  0  0  0  0  0  0  0  0  0  0
  -43.7649  -28.8779    0.0836 C   0  0  0  0  0  0  0  0  0  0  0  0
  -44.0319  -34.7430   -2.8199 N   0  0  0  0  0  0  0  0  0  0  0  0
  -46.0353  -29.0108    4.4014 N   0  0  0  0  0  0  0  0  0  0  0  0
  -48.3019  -29.0730    7.2437 N   0  0  0  0  0  0  0  0  0  0  0  0
  -44.9285  -28.8472    0.9402 N   0  0  0  0  0  0  0  0  0  0  0  0
  -45.9991  -29.1897    7.0869 O   0  0  0  0  0  0  0  0  0  0  0  0
  -43.7896  -29.0583    2.9489 O   0  0  0  0  0  0  0  0  0  0  0  0
  -49.4570  -28.7052    2.5718 H   0  0  0  0  0  0  0  0  0  0  0  0
  -47.3491  -28.7364    1.2819 H   0  0  0  0  0  0  0  0  0  0  0  0
  -45.0765  -33.8309    0.2714 H   0  0  0  0  0  0  0  0  0  0  0  0
  -42.8300  -31.5805   -2.6439 H   0  0  0  0  0  0  0  0  0  0  0  0
  -45.0999  -35.7225   -1.3530 H   0  0  0  0  0  0  0  0  0  0  0  0
  -42.9559  -33.5747   -4.1353 H   0  0  0  0  0  0  0  0  0  0  0  0
  -50.6391  -28.7886    4.8447 H   0  0  0  0  0  0  0  0  0  0  0  0
  -50.3820  -28.9637    7.3074 H   0  0  0  0  0  0  0  0  0  0  0  0
  -44.7794  -31.4153    0.5286 H   0  0  0  0  0  0  0  0  0  0  0  0
  -43.0292  -31.4834    0.5286 H   0  0  0  0  0  0  0  0  0  0  0  0
  -44.7418  -29.9553   -1.5167 H   0  0  0  0  0  0  0  0  0  0  0  0
  -42.9834  -30.0465   -1.5584 H   0  0  0  0  0  0  0  0  0  0  0  0
  -42.8628  -28.9582    0.6995 H   0  0  0  0  0  0  0  0  0  0  0  0
  -43.7071  -27.9369   -0.4732 H   0  0  0  0  0  0  0  0  0  0  0  0
  -48.2720  -29.1407    8.2569 H   0  0  0  0  0  0  0  0  0  0  0  0
  -45.8353  -28.8165    0.4863 H   0  0  0  0  0  0  0  0  0  0  0  0
  1  2  1  0  0  0  0
  1  7  2  0  0  0  0
  2 10  2  0  0  0  0
  3  5  2  0  0  0  0
  3  8  1  0  0  0  0
  4  6  1  0  0  0  0
  4  8  2  0  0  0  0
  5 18  1  0  0  0  0
  6 18  2  0  0  0  0
  7  9  1  0  0  0  0
  7 11  1  0  0  0  0
  8 15  1  0  0  0  0
  9 13  1  0  0  0  0
  9 19  2  0  0  0  0
 10 14  1  0  0  0  0
 10 19  1  0  0  0  0
 11 12  2  0  0  0  0
 12 20  1  0  0  0  0
 13 20  1  0  0  0  0
 13 22  2  0  0  0  0
 14 21  1  0  0  0  0
 14 23  2  0  0  0  0
 15 16  1  0  0  0  0
 16 17  1  0  0  0  0
 17 21  1  0  0  0  0
  1 24  1  0  0  0  0
  2 25  1  0  0  0  0
  3 26  1  0  0  0  0
  4 27  1  0  0  0  0
  5 28  1  0  0  0  0
  6 29  1  0  0  0  0
 11 30  1  0  0  0  0
 12 31  1  0  0  0  0
 15 32  1  0  0  0  0
 15 33  1  0  0  0  0
 16 34  1  0  0  0  0
 16 35  1  0  0  0  0
 17 36  1  0  0  0  0
 17 37  1  0  0  0  0
 20 38  1  0  0  0  0
 21 39  1  0  0  0  0
M  END
> <POSIT::Probability>
0.18

> <POSIT::Method>
FRED

> <ReceptorTitle>
UCSF-P4528-REFINED_LIGAND-BOUND-STATE_A__DU__LA1_A-201(A)

> <OMEGA_C>
JwlCwgxU5sH4IEZAAEw9wux25sFKURdA/GAywmPwBsK4GzK/r14twuPrAcLNlBTARW8ywrMlC8KW
icy/FaYtwi5aBsJwqUnAstlBwhsS58ESgY9AJsovwtFAAsKQRom/KNI8wlfu58EaeaJAUYI4whVY
58HKlkNAValGwmL65sEB+6lAIR5GwmO758E8dtRAD2U8wirA6MG4qNFApHYzwjaG58G2fRVAgJsv
wucZ+8HoawS+f2Yvwrp08MGKcGK/Pw8vwv4F58GwMqs9rCAwwsv4CsILejTAISQ4wg4W6MEy2IxA
ITVBwpWV6MGpzOdAwbYzwiHH5sEZsHA/C/83wo6E6cG0x+JAiSgvwlV36MHYujxA9tNFwiak5cHB
lyRAc2U9wiHk5cHrFaQ/X040wtBSB8Ik+Yo+8FErwuek/ME9NinAUmY0wtrjDsLWLq2/19IrwnpM
BsJ1VITAZo5Kwh9P5sHWB5tANIdJwsC158Hb1elAIR4zwndS+8FeVQc/2h0swg3e+8EiUQc/p/cy
wnmk78FsJMK/9u4rwklf8ME6e8e/gHMrwk2q58EkEzM/GtQuwrt+38GMTPK+ihZBwhEg6cFSHARB
UFc3wiaI5sGK+Pg+

> <OMEGA_E>
560lwQ==

> <OMEGA_NBR>
     15644

$$$$
CACHE3HI_1689_63
  -OEChem-03092622573D

 44 46  0     0  0  0  0  0  0999 V2000
  -43.5515  -31.5178    0.7858 C   0  0  0  0  0  0  0  0  0  0  0  0
  -42.5154  -30.5907    0.8988 C   0  0  0  0  0  0  0  0  0  0  0  0
  -44.6268  -31.2609   -0.0646 C   0  0  0  0  0  0  0  0  0  0  0  0
  -42.5544  -29.4072    0.1615 C   0  0  0  0  0  0  0  0  0  0  0  0
  -44.6658  -30.0773   -0.8019 C   0  0  0  0  0  0  0  0  0  0  0  0
  -43.6298  -29.1502   -0.6889 C   0  0  0  0  0  0  0  0  0  0  0  0
  -49.8356  -29.0782    5.6031 C   0  0  0  0  0  0  0  0  0  0  0  0
  -49.6214  -29.0722    6.9223 C   0  0  0  0  0  0  0  0  0  0  0  0
  -48.7108  -29.0716    4.6919 C   0  0  0  0  0  0  0  0  0  0  0  0
  -47.4444  -29.0527    5.1512 C   0  0  0  0  0  0  0  0  0  0  0  0
  -47.2092  -29.0515    6.6378 C   0  0  0  0  0  0  0  0  0  0  0  0
  -45.7767  -28.1766    1.9121 C   0  0  0  0  0  0  0  0  0  0  0  0
  -49.0148  -29.1011    3.2203 C   0  0  0  0  0  0  0  0  0  0  0  0
  -46.2318  -29.0082    4.2629 C   0  0  0  0  0  0  0  0  0  0  0  0
  -47.7988  -29.5091    2.3920 C   0  0  0  0  0  0  0  0  0  0  0  0
  -44.4596  -27.6434    2.4199 C   0  0  0  0  0  0  0  0  0  0  0  0
  -43.0315  -26.8531   -0.8383 C   0  0  0  0  0  0  0  0  0  0  0  0
  -43.6862  -26.5407    0.4937 C   0  0  0  0  0  0  0  0  0  0  0  0
  -48.3478  -29.0604    7.4268 N   0  0  0  0  0  0  0  0  0  0  0  0
  -46.5894  -28.8227    2.8477 N   0  0  0  0  0  0  0  0  0  0  0  0
  -46.0702  -29.0439    7.0999 O   0  0  0  0  0  0  0  0  0  0  0  0
  -46.0741  -28.0197    0.7253 O   0  0  0  0  0  0  0  0  0  0  0  0
  -43.6676  -27.9879   -1.4137 O   0  0  0  0  0  0  0  0  0  0  0  0
  -43.5212  -27.6556    1.3660 O   0  0  0  0  0  0  0  0  0  0  0  0
  -43.5207  -32.4394    1.3595 H   0  0  0  0  0  0  0  0  0  0  0  0
  -41.6776  -30.7908    1.5603 H   0  0  0  0  0  0  0  0  0  0  0  0
  -45.4337  -31.9824   -0.1531 H   0  0  0  0  0  0  0  0  0  0  0  0
  -41.7440  -28.6893    0.2537 H   0  0  0  0  0  0  0  0  0  0  0  0
  -45.5066  -29.8833   -1.4626 H   0  0  0  0  0  0  0  0  0  0  0  0
  -50.8442  -29.0864    5.2052 H   0  0  0  0  0  0  0  0  0  0  0  0
  -50.4243  -29.0766    7.6484 H   0  0  0  0  0  0  0  0  0  0  0  0
  -49.8265  -29.8087    3.0113 H   0  0  0  0  0  0  0  0  0  0  0  0
  -49.3591  -28.1076    2.9067 H   0  0  0  0  0  0  0  0  0  0  0  0
  -45.5726  -28.1999    4.5892 H   0  0  0  0  0  0  0  0  0  0  0  0
  -45.6784  -29.9515    4.3338 H   0  0  0  0  0  0  0  0  0  0  0  0
  -47.6111  -30.5858    2.4915 H   0  0  0  0  0  0  0  0  0  0  0  0
  -47.9907  -29.3137    1.3320 H   0  0  0  0  0  0  0  0  0  0  0  0
  -44.1068  -28.2611    3.2405 H   0  0  0  0  0  0  0  0  0  0  0  0
  -44.5999  -26.6244    2.7683 H   0  0  0  0  0  0  0  0  0  0  0  0
  -43.1447  -26.0106   -1.5270 H   0  0  0  0  0  0  0  0  0  0  0  0
  -41.9695  -27.0856   -0.7113 H   0  0  0  0  0  0  0  0  0  0  0  0
  -43.2136  -25.6700    0.9571 H   0  0  0  0  0  0  0  0  0  0  0  0
  -44.7585  -26.3581    0.3730 H   0  0  0  0  0  0  0  0  0  0  0  0
  -48.2319  -29.0579    8.4360 H   0  0  0  0  0  0  0  0  0  0  0  0
  1  2  1  0  0  0  0
  1  3  2  0  0  0  0
  2  4  2  0  0  0  0
  3  5  1  0  0  0  0
  4  6  1  0  0  0  0
  5  6  2  0  0  0  0
  6 23  1  0  0  0  0
  7  8  2  0  0  0  0
  7  9  1  0  0  0  0
  8 19  1  0  0  0  0
  9 10  2  0  0  0  0
  9 13  1  0  0  0  0
 10 11  1  0  0  0  0
 10 14  1  0  0  0  0
 11 19  1  0  0  0  0
 11 21  2  0  0  0  0
 12 16  1  0  0  0  0
 12 20  1  0  0  0  0
 12 22  2  0  0  0  0
 13 15  1  0  0  0  0
 14 20  1  0  0  0  0
 15 20  1  0  0  0  0
 16 24  1  0  0  0  0
 17 18  1  0  0  0  0
 17 23  1  0  0  0  0
 18 24  1  0  0  0  0
  1 25  1  0  0  0  0
  2 26  1  0  0  0  0
  3 27  1  0  0  0  0
  4 28  1  0  0  0  0
  5 29  1  0  0  0  0
  7 30  1  0  0  0  0
  8 31  1  0  0  0  0
 13 32  1  0  0  0  0
 13 33  1  0  0  0  0
 14 34  1  0  0  0  0
 14 35  1  0  0  0  0
 15 36  1  0  0  0  0
 15 37  1  0  0  0  0
 16 38  1  0  0  0  0
 16 39  1  0  0  0  0
 17 40  1  0  0  0  0
 17 41  1  0  0  0  0
 18 42  1  0  0  0  0
 18 43  1  0  0  0  0
 19 44  1  0  0  0  0
M  END
> <POSIT::Probability>
0.18

> <POSIT::Method>
FRED

> <ReceptorTitle>
UCSF-P4528-REFINED_LIGAND-BOUND-STATE_A__DU__LA1_A-201(A)

> <OMEGA_C>
tjQuwoIk/MHwKEk/yA8qwtG59MGQGGY/04Eywk8W+sFATIS9vjcqwtpB68HAYCU+yKkywlme8MHg
SU2/6oQuwq4z6cHwWzC/sVdHwiCg6MG2TLNATnxGwuST6MFpg91A4NdCwq2S6MHUI5ZACsc9wtRr
6MGH1qRAL9Y8woRp6MGQaNRATxs3wqxp4cG4v/Q/KA9EwvvO6MHWGU5AZO04wuAQ6MFFaYhA8DE/
wrAS7MGeFhlAqtYxwrQl3cG63xpAQiAswinT1sHYm1a/pL4uwk1T1MGwyPw+LmRBwpx76MGeqO1A
k1s6wtKU5sE+QDZA60c4wttZ6MHKMuNA4Es4wmoo4MGQrDk/q6suwkXn38Ho8rS/vBUuwqQ+3cH0
164/NhUuwvzBAcLwBK4/57UmwopT9sGEt8c/I7w1wuvb/8Fgwhy+5fkmwsaD5cFA64E+ugY2wgcR
78HwNLu/c2BLwv6w6MH8kKZAcLJJwvCc6MFbv/RAXk5HwiR47sFcuUBAtG9FwlLc4MFmBzpAWko2
wmKZ4cFj2pJApbY2wq+c78GGropAvnE+wrav9MFwdR9AgfY/wniC6sEkgKo/ZG0wwr8W4sFFZE9A
TWYywrT+1ME1KzFAIJQswrwV0MHgdcO/0OAnwmGv2MGIFza/sdoswhhczcFwAXU/wAgzwnbd0sGQ
+L4+du1Awpd26MH++QZB

> <OMEGA_E>
/8UywQ==

> <OMEGA_NBR>
     17015

$$$$
CACHE3HI_1689_76
  -OEChem-03092622573D

 46 47  0     0  0  0  0  0  0999 V2000
  -46.7521  -24.3764   -1.6201 C   0  0  0  0  0  0  0  0  0  0  0  0
  -47.8595  -22.4933   -1.5890 C   0  0  0  0  0  0  0  0  0  0  0  0
  -43.1037  -25.0773   -1.4116 C   0  0  0  0  0  0  0  0  0  0  0  0
  -41.9572  -29.7484    1.3252 C   0  0  0  0  0  0  0  0  0  0  0  0
  -45.6050  -25.3085   -1.7603 C   0  0  0  0  0  0  0  0  0  0  0  0
  -45.3799  -22.3478   -2.0390 C   0  0  0  0  0  0  0  0  0  0  0  0
  -44.3536  -23.3161   -2.6178 C   0  0  0  0  0  0  0  0  0  0  0  0
  -40.1061  -31.9487    2.6075 C   0  0  0  0  0  0  0  0  0  0  0  0
  -48.8243  -20.8313   -3.8982 C   0  0  0  0  0  0  0  0  0  0  0  0
  -48.1486  -21.0503   -1.6577 C   0  0  0  0  0  0  0  0  0  0  0  0
  -43.1280  -26.4506   -0.7876 C   0  0  0  0  0  0  0  0  0  0  0  0
  -43.3661  -26.3493    0.7120 C   0  0  0  0  0  0  0  0  0  0  0  0
  -43.3564  -27.6920    1.4391 C   0  0  0  0  0  0  0  0  0  0  0  0
  -40.3508  -31.4867    1.1868 C   0  0  0  0  0  0  0  0  0  0  0  0
  -48.0137  -24.6571   -1.3652 N   0  0  0  0  0  0  0  0  0  0  0  0
  -48.7146  -23.4630   -1.3456 N   0  0  0  0  0  0  0  0  0  0  0  0
  -46.6256  -23.0246   -1.7662 N   0  0  0  0  0  0  0  0  0  0  0  0
  -44.3278  -24.5764   -1.8604 N   0  0  0  0  0  0  0  0  0  0  0  0
  -42.0965  -28.3714    1.3201 N   0  0  0  0  0  0  0  0  0  0  0  0
  -42.0324  -24.4701   -1.4924 O   0  0  0  0  0  0  0  0  0  0  0  0
  -42.8747  -30.5561    1.4310 O   0  0  0  0  0  0  0  0  0  0  0  0
  -40.6390  -30.0842    1.1954 O   0  0  0  0  0  0  0  0  0  0  0  0
  -47.8100  -20.5435   -2.9493 O   0  0  0  0  0  0  0  0  0  0  0  0
  -45.5934  -25.9978   -0.9128 H   0  0  0  0  0  0  0  0  0  0  0  0
  -45.7116  -25.8971   -2.6779 H   0  0  0  0  0  0  0  0  0  0  0  0
  -45.0294  -21.9275   -1.0897 H   0  0  0  0  0  0  0  0  0  0  0  0
  -45.5734  -21.5320   -2.7428 H   0  0  0  0  0  0  0  0  0  0  0  0
  -44.6138  -23.5769   -3.6513 H   0  0  0  0  0  0  0  0  0  0  0  0
  -43.3663  -22.8447   -2.6405 H   0  0  0  0  0  0  0  0  0  0  0  0
  -39.2562  -31.4205    3.0489 H   0  0  0  0  0  0  0  0  0  0  0  0
  -40.9914  -31.7749    3.2276 H   0  0  0  0  0  0  0  0  0  0  0  0
  -39.9055  -33.0246    2.6337 H   0  0  0  0  0  0  0  0  0  0  0  0
  -48.5361  -20.4316   -4.8739 H   0  0  0  0  0  0  0  0  0  0  0  0
  -48.9452  -21.9148   -3.9720 H   0  0  0  0  0  0  0  0  0  0  0  0
  -49.7661  -20.3835   -3.5730 H   0  0  0  0  0  0  0  0  0  0  0  0
  -49.2161  -20.8302   -1.4758 H   0  0  0  0  0  0  0  0  0  0  0  0
  -47.5771  -20.4747   -0.9063 H   0  0  0  0  0  0  0  0  0  0  0  0
  -42.1528  -26.8984   -0.9822 H   0  0  0  0  0  0  0  0  0  0  0  0
  -43.8940  -27.0375   -1.2915 H   0  0  0  0  0  0  0  0  0  0  0  0
  -44.3277  -25.8569    0.9022 H   0  0  0  0  0  0  0  0  0  0  0  0
  -42.5852  -25.7050    1.1357 H   0  0  0  0  0  0  0  0  0  0  0  0
  -43.5337  -27.5360    2.5081 H   0  0  0  0  0  0  0  0  0  0  0  0
  -44.1358  -28.3620    1.0636 H   0  0  0  0  0  0  0  0  0  0  0  0
  -41.2017  -32.0187    0.7513 H   0  0  0  0  0  0  0  0  0  0  0  0
  -39.4649  -31.6603    0.5681 H   0  0  0  0  0  0  0  0  0  0  0  0
  -41.2479  -27.8136    1.2372 H   0  0  0  0  0  0  0  0  0  0  0  0
  1  5  1  0  0  0  0
  1 15  2  0  0  0  0
  1 17  1  0  0  0  0
  2 10  1  0  0  0  0
  2 16  2  0  0  0  0
  2 17  1  0  0  0  0
  3 11  1  0  0  0  0
  3 18  1  0  0  0  0
  3 20  2  0  0  0  0
  4 19  1  0  0  0  0
  4 21  2  0  0  0  0
  4 22  1  0  0  0  0
  5 18  1  0  0  0  0
  6  7  1  0  0  0  0
  6 17  1  0  0  0  0
  7 18  1  0  0  0  0
  8 14  1  0  0  0  0
  9 23  1  0  0  0  0
 10 23  1  0  0  0  0
 11 12  1  0  0  0  0
 12 13  1  0  0  0  0
 13 19  1  0  0  0  0
 14 22  1  0  0  0  0
 15 16  1  0  0  0  0
  5 24  1  0  0  0  0
  5 25  1  0  0  0  0
  6 26  1  0  0  0  0
  6 27  1  0  0  0  0
  7 28  1  0  0  0  0
  7 29  1  0  0  0  0
  8 30  1  0  0  0  0
  8 31  1  0  0  0  0
  8 32  1  0  0  0  0
  9 33  1  0  0  0  0
  9 34  1  0  0  0  0
  9 35  1  0  0  0  0
 10 36  1  0  0  0  0
 10 37  1  0  0  0  0
 11 38  1  0  0  0  0
 11 39  1  0  0  0  0
 12 40  1  0  0  0  0
 12 41  1  0  0  0  0
 13 42  1  0  0  0  0
 13 43  1  0  0  0  0
 14 44  1  0  0  0  0
 14 45  1  0  0  0  0
 19 46  1  0  0  0  0
M  END
> <POSIT::Probability>
0.01

> <POSIT::Method>
FRED

> <ReceptorTitle>
UCSF-P4528-REFINED_LIGAND-BOUND-STATE_A__DU__LA1_A-201(A)

> <OMEGA_C>
HQI7wtwCw8HwXs+/KnA/wlrys8FQY8u/M2oswkWeyMFIsLS/LdQnwrn87cEQoak/h2s2wtJ3ysEo
UuG/C4U1wkzIssFIfwLAFWoxwlmHusG4iifAmmwgwvWW/8F84SZACUxDwommpsFAfHnANZhAwhBn
qMFYLtS/E4MswuOa08EQoUm/5HYtwl7L0sHAQjY/8Wwtwi+J3cEQNbg/RWchwtDk+8EY6Jc//Q1A
wsxBxcHovq6/wNtCwlC0u8GQPKy/p4A6wlcyuMH4EeK/rU8xwn2cxMFgIe6/0GIowo344sFI+ag/
KCEowrzCw8GYCL+/qn8rwtRy9MGQKrc/Vo4iwm6s8MFQBJk/aT0/whhZpMH8wTzAmV82wnD7z8EQ
rGm/s9g2wkQtz8EkYyvAEh40wotrr8FofIu/M0s2wp9BrME4ii/AjXQywnidvMEYr2nAGnctwuDB
tsGA/SjAXgYdwhZd+8FkIUNAM/cjwg4z/sGskU5AP58fwiQZBMIAjihA/iRCwuJzo8FM95vA3MdD
wmtRr8HcNX7AiBBHwncRo8GYrGTATd1EwlekpsGA57y//04+wiDMo8FwBWi/cZwowtsv18GwdHu/
cpMvwsZM2MGITqW/hE8xwu3azsEQ+WY/SlcqwtGjzcEoXpE/diIuwq5J3MFUhCBAGYswwmnl4sGY
JYg/kM4kwiATAMKwUkA/BtwdwkJI/cHQbRE/2P0kwkKC3sEgXJ4/

> <OMEGA_E>
ug7xwA==

> <OMEGA_NBR>
     18421

$$$$
CACHE3HI_1689_86
  -OEChem-03092622573D

 44 46  0     0  0  0  0  0  0999 V2000
  -44.9942  -35.0267   -1.0457 C   0  0  0  0  0  0  0  0  0  0  0  0
  -44.6492  -35.5728   -2.2973 C   0  0  0  0  0  0  0  0  0  0  0  0
  -44.9773  -33.6318   -0.8582 C   0  0  0  0  0  0  0  0  0  0  0  0
  -44.2655  -34.7264   -3.3559 C   0  0  0  0  0  0  0  0  0  0  0  0
  -44.6420  -32.7741   -1.9307 C   0  0  0  0  0  0  0  0  0  0  0  0
  -44.2531  -33.3285   -3.1781 C   0  0  0  0  0  0  0  0  0  0  0  0
  -45.1533  -28.9869    5.2133 C   0  0  0  0  0  0  0  0  0  0  0  0
  -43.1020  -28.4481    0.1094 C   0  0  0  0  0  0  0  0  0  0  0  0
  -43.8608  -30.1204    3.3549 C   0  0  0  0  0  0  0  0  0  0  0  0
  -43.6893  -27.5770    3.7223 C   0  0  0  0  0  0  0  0  0  0  0  0
  -44.3592  -29.6167    1.9817 C   0  0  0  0  0  0  0  0  0  0  0  0
  -42.7974  -27.6686    2.4622 C   0  0  0  0  0  0  0  0  0  0  0  0
  -43.8565  -28.9710    4.4089 C   0  0  0  0  0  0  0  0  0  0  0  0
  -44.8321  -31.2802   -1.7556 C   0  0  0  0  0  0  0  0  0  0  0  0
  -43.9824  -29.0851   -0.9633 C   0  0  0  0  0  0  0  0  0  0  0  0
  -43.5791  -30.5505   -1.2470 C   0  0  0  0  0  0  0  0  0  0  0  0
  -46.4545  -29.0907    4.6760 N   0  0  0  0  0  0  0  0  0  0  0  0
  -45.2481  -28.8766    6.5194 N   0  0  0  0  0  0  0  0  0  0  0  0
  -47.3146  -29.0506    5.6300 N   0  0  0  0  0  0  0  0  0  0  0  0
  -46.5705  -28.9198    6.7426 N   0  0  0  0  0  0  0  0  0  0  0  0
  -43.4164  -28.5792    1.4744 N   0  0  0  0  0  0  0  0  0  0  0  0
  -42.1446  -27.7716   -0.2517 O   0  0  0  0  0  0  0  0  0  0  0  0
  -42.7568  -29.1840    5.2997 O   0  0  0  0  0  0  0  0  0  0  0  0
  -43.8151  -32.3134   -4.5379 Cl  0  0  0  0  0  0  0  0  0  0  0  0
  -45.2717  -35.6780   -0.2301 H   0  0  0  0  0  0  0  0  0  0  0  0
  -44.6789  -36.6422   -2.4455 H   0  0  0  0  0  0  0  0  0  0  0  0
  -45.2212  -33.2154    0.1080 H   0  0  0  0  0  0  0  0  0  0  0  0
  -43.9797  -35.1504   -4.3072 H   0  0  0  0  0  0  0  0  0  0  0  0
  -44.5243  -30.9252    3.7043 H   0  0  0  0  0  0  0  0  0  0  0  0
  -42.8381  -30.5101    3.2447 H   0  0  0  0  0  0  0  0  0  0  0  0
  -43.2278  -26.8798    4.4370 H   0  0  0  0  0  0  0  0  0  0  0  0
  -44.6812  -27.2008    3.4315 H   0  0  0  0  0  0  0  0  0  0  0  0
  -44.3992  -30.4570    1.2729 H   0  0  0  0  0  0  0  0  0  0  0  0
  -45.3633  -29.1809    2.0908 H   0  0  0  0  0  0  0  0  0  0  0  0
  -42.6888  -26.6680    2.0184 H   0  0  0  0  0  0  0  0  0  0  0  0
  -41.8064  -28.0544    2.7436 H   0  0  0  0  0  0  0  0  0  0  0  0
  -45.1129  -30.8501   -2.7283 H   0  0  0  0  0  0  0  0  0  0  0  0
  -45.6457  -31.1165   -1.0337 H   0  0  0  0  0  0  0  0  0  0  0  0
  -45.0283  -29.0638   -0.6233 H   0  0  0  0  0  0  0  0  0  0  0  0
  -43.8870  -28.5040   -1.8924 H   0  0  0  0  0  0  0  0  0  0  0  0
  -43.2153  -31.0260   -0.3242 H   0  0  0  0  0  0  0  0  0  0  0  0
  -42.7889  -30.5820   -2.0117 H   0  0  0  0  0  0  0  0  0  0  0  0
  -46.9688  -28.8598    7.6579 H   0  0  0  0  0  0  0  0  0  0  0  0
  -41.9441  -29.1758    4.8078 H   0  0  0  0  0  0  0  0  0  0  0  0
  1  2  1  0  0  0  0
  1  3  2  0  0  0  0
  2  4  2  0  0  0  0
  3  5  1  0  0  0  0
  4  6  1  0  0  0  0
  5  6  2  0  0  0  0
  5 14  1  0  0  0  0
  6 24  1  0  0  0  0
  7 13  1  0  0  0  0
  7 17  1  0  0  0  0
  7 18  2  0  0  0  0
  8 15  1  0  0  0  0
  8 21  1  0  0  0  0
  8 22  2  0  0  0  0
  9 11  1  0  0  0  0
  9 13  1  0  0  0  0
 10 12  1  0  0  0  0
 10 13  1  0  0  0  0
 11 21  1  0  0  0  0
 12 21  1  0  0  0  0
 13 23  1  0  0  0  0
 14 16  1  0  0  0  0
 15 16  1  0  0  0  0
 17 19  2  0  0  0  0
 18 20  1  0  0  0  0
 19 20  1  0  0  0  0
  1 25  1  0  0  0  0
  2 26  1  0  0  0  0
  3 27  1  0  0  0  0
  4 28  1  0  0  0  0
  9 29  1  0  0  0  0
  9 30  1  0  0  0  0
 10 31  1  0  0  0  0
 10 32  1  0  0  0  0
 11 33  1  0  0  0  0
 11 34  1  0  0  0  0
 12 35  1  0  0  0  0
 12 36  1  0  0  0  0
 14 37  1  0  0  0  0
 14 38  1  0  0  0  0
 15 39  1  0  0  0  0
 15 40  1  0  0  0  0
 16 41  1  0  0  0  0
 16 42  1  0  0  0  0
 20 43  1  0  0  0  0
 23 44  1  0  0  0  0
M  END
> <POSIT::Probability>
0.33

> <POSIT::Method>
SHAPEFIT

> <ReceptorTitle>
UCSF-P4528-REFINED_LIGAND-BOUND-STATE_A__DU__LA1_A-201(A)

> <OMEGA_C>
FPozwlEbDMKY2YW/zJgywplKDsIsBhPAwegzwuqGBsLwtVu/2Q8xwuHnCsJ0xlbAdJEywroYA8LA
Ife/JgMxwmdQBcKEZkvA+Zw0wiLl58HC06ZAc2gswreV48GAJeA9gXEvwpD28MGotlZA5MEuwsyd
3MGMOm5AzW8xwgHv7MFoqP0/gjArwkFZ3cGklB1ACW0vwoXE58HiFY1ADVQzwu89+sHYuOC/++0v
wj6u6MHQm3a/81AuwoJn9MEonp+/XtE5wse56MHyoZVAAf40wlkD58GantBAH0I9wo5n6MGOKLRA
Pkg6wrtb58Emw9dAWKotwjSi5MFYubw/DpQowj0s3sHg3oC++gYrwtd46cHKlqlAoEIvwuZAAcKh
NpHALxY1wj+2DsJDm2u+N7cywp+REsLXgxzAhuI0wpfcBMJ2H909PesvwgOaDMJr1InA3BgywuFm
98FbE21AP1orwsUU9MF0qE9AOOkswr8J18Gm+41Akbkywi6b2cH7nFtAx5gxwtyn88FX76I//XM1
wo5y6cFe0AVASMEqwgNY1cHmLAFAzDknwnFv4MFPly9AoHM0wgnN9sH4nC7ALpU2wpPu+MFdT4S/
Ax00wsOC6MF9kx+/R4wvwj0I5MFqO/K/gtwswlk1+MEY/KW+4CcrwvGn9MGZvwDABeA7wvTg5sGF
DfVAxMYnwgRo6cFc2ZlA

> <OMEGA_E>
tl6VPw==

> <OMEGA_NBR>
     19820

$$$$
CACHE3HI_1689_89
  -OEChem-03092622573D

 48 50  0     0  0  0  0  0  0999 V2000
  -43.5236  -30.5402    0.0002 C   0  0  0  0  0  0  0  0  0  0  0  0
  -44.6523  -31.9377    1.6530 C   0  0  0  0  0  0  0  0  0  0  0  0
  -43.1616  -29.6336    1.0242 C   0  0  0  0  0  0  0  0  0  0  0  0
  -44.2410  -31.0825    2.6622 C   0  0  0  0  0  0  0  0  0  0  0  0
  -44.2366  -31.7251    0.3259 C   0  0  0  0  0  0  0  0  0  0  0  0
  -43.4887  -29.9268    2.3680 C   0  0  0  0  0  0  0  0  0  0  0  0
  -46.5653  -29.0174    6.4552 C   0  0  0  0  0  0  0  0  0  0  0  0
  -46.9638  -29.0090    5.1356 C   0  0  0  0  0  0  0  0  0  0  0  0
  -44.7085  -29.2939    5.2667 C   0  0  0  0  0  0  0  0  0  0  0  0
  -44.4883  -32.8026   -0.6508 C   0  0  0  0  0  0  0  0  0  0  0  0
  -47.5315  -28.7094    7.5824 C   0  0  0  0  0  0  0  0  0  0  0  0
  -48.3767  -28.7324    4.6761 C   0  0  0  0  0  0  0  0  0  0  0  0
  -49.0049  -28.7342    7.1187 C   0  0  0  0  0  0  0  0  0  0  0  0
  -49.1725  -28.0039    5.7742 C   0  0  0  0  0  0  0  0  0  0  0  0
  -43.2593  -29.4283    4.8440 C   0  0  0  0  0  0  0  0  0  0  0  0
  -44.4752  -36.1637   -1.3092 C   0  0  0  0  0  0  0  0  0  0  0  0
  -45.5445  -35.0981   -0.9941 C   0  0  0  0  0  0  0  0  0  0  0  0
  -43.4135  -35.6787   -2.3211 C   0  0  0  0  0  0  0  0  0  0  0  0
  -45.1717  -29.2173    6.4952 N   0  0  0  0  0  0  0  0  0  0  0  0
  -45.8110  -29.2050    4.4519 N   0  0  0  0  0  0  0  0  0  0  0  0
  -43.0661  -29.0886    3.4013 N   0  0  0  0  0  0  0  0  0  0  0  0
  -45.0308  -34.0013   -0.1744 N   0  0  0  0  0  0  0  0  0  0  0  0
  -44.1785  -32.6629   -1.8281 O   0  0  0  0  0  0  0  0  0  0  0  0
  -44.0182  -35.2343   -3.5380 O   0  0  0  0  0  0  0  0  0  0  0  0
  -43.2587  -30.3322   -1.0260 H   0  0  0  0  0  0  0  0  0  0  0  0
  -45.2961  -32.7728    1.8864 H   0  0  0  0  0  0  0  0  0  0  0  0
  -42.6375  -28.7213    0.7804 H   0  0  0  0  0  0  0  0  0  0  0  0
  -44.4997  -31.3038    3.6871 H   0  0  0  0  0  0  0  0  0  0  0  0
  -47.3984  -29.4589    8.3764 H   0  0  0  0  0  0  0  0  0  0  0  0
  -47.3031  -27.7095    7.9800 H   0  0  0  0  0  0  0  0  0  0  0  0
  -48.3465  -28.1033    3.7743 H   0  0  0  0  0  0  0  0  0  0  0  0
  -48.8735  -29.6854    4.4420 H   0  0  0  0  0  0  0  0  0  0  0  0
  -49.3281  -29.7793    7.0031 H   0  0  0  0  0  0  0  0  0  0  0  0
  -49.6291  -28.2391    7.8772 H   0  0  0  0  0  0  0  0  0  0  0  0
  -48.8003  -26.9732    5.8707 H   0  0  0  0  0  0  0  0  0  0  0  0
  -50.2376  -27.9850    5.5003 H   0  0  0  0  0  0  0  0  0  0  0  0
  -42.6463  -28.7489    5.4546 H   0  0  0  0  0  0  0  0  0  0  0  0
  -42.9347  -30.4658    5.0118 H   0  0  0  0  0  0  0  0  0  0  0  0
  -43.9668  -36.4366   -0.3727 H   0  0  0  0  0  0  0  0  0  0  0  0
  -44.9765  -37.0497   -1.7260 H   0  0  0  0  0  0  0  0  0  0  0  0
  -45.9165  -34.6830   -1.9425 H   0  0  0  0  0  0  0  0  0  0  0  0
  -46.3730  -35.5809   -0.4552 H   0  0  0  0  0  0  0  0  0  0  0  0
  -42.8494  -34.8456   -1.8765 H   0  0  0  0  0  0  0  0  0  0  0  0
  -42.7268  -36.5084   -2.5448 H   0  0  0  0  0  0  0  0  0  0  0  0
  -45.7670  -29.2775    3.4555 H   0  0  0  0  0  0  0  0  0  0  0  0
  -42.0817  -28.9670    3.2746 H   0  0  0  0  0  0  0  0  0  0  0  0
  -45.0709  -34.1188    0.8179 H   0  0  0  0  0  0  0  0  0  0  0  0
  -43.3432  -34.9428   -4.1395 H   0  0  0  0  0  0  0  0  0  0  0  0
  1  3  1  0  0  0  0
  1  5  2  0  0  0  0
  2  4  2  0  0  0  0
  2  5  1  0  0  0  0
  3  6  2  0  0  0  0
  4  6  1  0  0  0  0
  5 10  1  0  0  0  0
  6 21  1  0  0  0  0
  7  8  2  0  0  0  0
  7 11  1  0  0  0  0
  7 19  1  0  0  0  0
  8 12  1  0  0  0  0
  8 20  1  0  0  0  0
  9 15  1  0  0  0  0
  9 19  2  0  0  0  0
  9 20  1  0  0  0  0
 10 22  1  0  0  0  0
 10 23  2  0  0  0  0
 11 13  1  0  0  0  0
 12 14  1  0  0  0  0
 13 14  1  0  0  0  0
 15 21  1  0  0  0  0
 16 17  1  0  0  0  0
 16 18  1  0  0  0  0
 17 22  1  0  0  0  0
 18 24  1  0  0  0  0
  1 25  1  0  0  0  0
  2 26  1  0  0  0  0
  3 27  1  0  0  0  0
  4 28  1  0  0  0  0
 11 29  1  0  0  0  0
 11 30  1  0  0  0  0
 12 31  1  0  0  0  0
 12 32  1  0  0  0  0
 13 33  1  0  0  0  0
 13 34  1  0  0  0  0
 14 35  1  0  0  0  0
 14 36  1  0  0  0  0
 15 37  1  0  0  0  0
 15 38  1  0  0  0  0
 16 39  1  0  0  0  0
 16 40  1  0  0  0  0
 17 41  1  0  0  0  0
 17 42  1  0  0  0  0
 18 43  1  0  0  0  0
 18 44  1  0  0  0  0
 20 45  1  0  0  0  0
 21 46  1  0  0  0  0
 22 47  1  0  0  0  0
 24 48  1  0  0  0  0
M  END
> <POSIT::Probability>
0.33

> <POSIT::Method>
SHAPEFIT

> <ReceptorTitle>
UCSF-P4528-REFINED_LIGAND-BOUND-STATE_A__DU__LA1_A-201(A)

> <OMEGA_C>
IBguwk5S9MEAwCE58JsywliA/8EmldM/e6Uswp4R7cEkGYM/v/YwwvCo+MGvYCpAQfIwwvjM/cEY
36Y+ePQtwhRq78HujRdA3UI6wpoj6MFAkc5A+No7wnwS6MHWVqRAftUywtpZ6sHwiKhABfQxwtM1
A8IMmia/QyA+wsqs5cGyovJAtoFBwujb5cEAo5VABwVEwpjf5cGIzONAmrBEwvAH4MEoxrhAkwkt
whBt68FeAptAkuYxwpmnEMJ2lae/mi02wmxkDMIkgH6/a6ctwgi3DsJzjRTA0K80wgC96cFc2M9A
fj43wsaj6cHzdY5AtEMswoC16MHWrllAkB80wl0BCMKwijK+yLYwwtamAsI+/um/pBIwwuzvDMKX
bmLA5Qgtwk+o8sG1U4O/My81wlQXA8KxdvE/1owqwjbF5cGFx0c/tv8xwiBu+sEf+WtA/Zc9wtyr
68GpBQZBbDY9wg2t3cEVXP9A3mJBwqDT4MGCjXFAd35Dwsx77cEKJY5A+U9Fwus77sHAGeBALYRG
wqzp4cEcEvxAjDNDwjLJ18Gp3LtAWPNIwjvh38EhArBA1JUqwtj95cG6i65AGL0rwuW588GOYKBA
+90vwgq/EcJe1r6+7eczwuEyFMIX7Ny/iKo3wmO7CsLwovi/+X05wtdSDsKZDOm+x2UrwuRhC8KX
MvC/POgqwqYIEsIG3iLAYhE3wl046sEHJ11An1Mown2858FKklFAoEg0wq95CMJGYlE/a18twmnF
C8Iud4TA

> <OMEGA_E>
JLeaPw==

> <OMEGA_NBR>
     21298

$$$$
CACHE3HI_1689_98
  -OEChem-03092622573D

 46 48  0     0  0  0  0  0  0999 V2000
  -49.4855  -30.2496    2.7247 C   0  0  0  0  0  0  0  0  0  0  0  0
  -48.3747  -30.4719    1.9109 C   0  0  0  0  0  0  0  0  0  0  0  0
  -46.9626  -29.3774    3.5375 C   0  0  0  0  0  0  0  0  0  0  0  0
  -44.6877  -25.0983   -0.9308 C   0  0  0  0  0  0  0  0  0  0  0  0
  -44.4198  -22.9936   -1.7851 C   0  0  0  0  0  0  0  0  0  0  0  0
  -49.3347  -29.5912    3.9451 C   0  0  0  0  0  0  0  0  0  0  0  0
  -48.0735  -29.1551    4.3513 C   0  0  0  0  0  0  0  0  0  0  0  0
  -47.1134  -30.0358    2.3171 C   0  0  0  0  0  0  0  0  0  0  0  0
  -43.3590  -25.3673   -1.1768 C   0  0  0  0  0  0  0  0  0  0  0  0
  -43.0910  -23.2628   -2.0310 C   0  0  0  0  0  0  0  0  0  0  0  0
  -42.7674  -26.6687   -0.8446 C   0  0  0  0  0  0  0  0  0  0  0  0
  -43.8391  -29.7394    0.6658 C   0  0  0  0  0  0  0  0  0  0  0  0
  -45.4940  -27.9171    1.2137 C   0  0  0  0  0  0  0  0  0  0  0  0
  -42.7402  -28.6846    0.5846 C   0  0  0  0  0  0  0  0  0  0  0  0
  -44.3632  -26.8984    1.1292 C   0  0  0  0  0  0  0  0  0  0  0  0
  -44.9692  -29.3012    1.5958 C   0  0  0  0  0  0  0  0  0  0  0  0
  -50.5384  -29.3654    4.7998 C   0  0  0  0  0  0  0  0  0  0  0  0
  -47.8880  -28.4484    5.6539 C   0  0  0  0  0  0  0  0  0  0  0  0
  -45.2421  -23.9069   -1.2304 N   0  0  0  0  0  0  0  0  0  0  0  0
  -42.5368  -24.4541   -1.7317 N   0  0  0  0  0  0  0  0  0  0  0  0
  -43.2988  -27.3776    0.2363 N   0  0  0  0  0  0  0  0  0  0  0  0
  -42.2991  -22.2490   -2.6148 N   0  0  0  0  0  0  0  0  0  0  0  0
  -41.8417  -27.0446   -1.5621 O   0  0  0  0  0  0  0  0  0  0  0  0
  -46.0224  -30.2546    1.5175 O   0  0  0  0  0  0  0  0  0  0  0  0
  -50.4637  -30.5940    2.3999 H   0  0  0  0  0  0  0  0  0  0  0  0
  -48.4974  -30.9859    0.9614 H   0  0  0  0  0  0  0  0  0  0  0  0
  -45.9778  -29.0399    3.8515 H   0  0  0  0  0  0  0  0  0  0  0  0
  -45.3553  -25.8268   -0.4857 H   0  0  0  0  0  0  0  0  0  0  0  0
  -44.8757  -22.0389   -2.0212 H   0  0  0  0  0  0  0  0  0  0  0  0
  -44.2386  -29.9392   -0.3372 H   0  0  0  0  0  0  0  0  0  0  0  0
  -43.4217  -30.6919    1.0139 H   0  0  0  0  0  0  0  0  0  0  0  0
  -46.2412  -27.5902    1.9467 H   0  0  0  0  0  0  0  0  0  0  0  0
  -46.0229  -27.9713    0.2531 H   0  0  0  0  0  0  0  0  0  0  0  0
  -42.2382  -28.5783    1.5535 H   0  0  0  0  0  0  0  0  0  0  0  0
  -41.9839  -28.9899   -0.1457 H   0  0  0  0  0  0  0  0  0  0  0  0
  -44.7626  -25.9354    0.8017 H   0  0  0  0  0  0  0  0  0  0  0  0
  -43.9123  -26.7451    2.1169 H   0  0  0  0  0  0  0  0  0  0  0  0
  -44.6045  -29.2886    2.6297 H   0  0  0  0  0  0  0  0  0  0  0  0
  -50.6971  -30.2025    5.4911 H   0  0  0  0  0  0  0  0  0  0  0  0
  -51.4465  -29.2778    4.1902 H   0  0  0  0  0  0  0  0  0  0  0  0
  -50.4211  -28.4463    5.3857 H   0  0  0  0  0  0  0  0  0  0  0  0
  -47.9990  -27.3633    5.5361 H   0  0  0  0  0  0  0  0  0  0  0  0
  -46.8843  -28.6247    6.0609 H   0  0  0  0  0  0  0  0  0  0  0  0
  -48.6272  -28.7978    6.3841 H   0  0  0  0  0  0  0  0  0  0  0  0
  -42.7315  -21.3891   -2.8812 H   0  0  0  0  0  0  0  0  0  0  0  0
  -41.3486  -22.4490   -2.8467 H   0  0  0  0  0  0  0  0  0  0  0  0
  1  2  2  0  0  0  0
  1  6  1  0  0  0  0
  2  8  1  0  0  0  0
  3  7  1  0  0  0  0
  3  8  2  0  0  0  0
  4  9  1  0  0  0  0
  4 19  2  0  0  0  0
  5 10  2  0  0  0  0
  5 19  1  0  0  0  0
  6  7  2  0  0  0  0
  6 17  1  0  0  0  0
  7 18  1  0  0  0  0
  8 24  1  0  0  0  0
  9 11  1  0  0  0  0
  9 20  2  0  0  0  0
 10 20  1  0  0  0  0
 10 22  1  0  0  0  0
 11 21  1  0  0  0  0
 11 23  2  0  0  0  0
 12 14  1  0  0  0  0
 12 16  1  0  0  0  0
 13 15  1  0  0  0  0
 13 16  1  0  0  0  0
 14 21  1  0  0  0  0
 15 21  1  0  0  0  0
 16 24  1  0  0  0  0
  1 25  1  0  0  0  0
  2 26  1  0  0  0  0
  3 27  1  0  0  0  0
  4 28  1  0  0  0  0
  5 29  1  0  0  0  0
 12 30  1  0  0  0  0
 12 31  1  0  0  0  0
 13 32  1  0  0  0  0
 13 33  1  0  0  0  0
 14 34  1  0  0  0  0
 14 35  1  0  0  0  0
 15 36  1  0  0  0  0
 15 37  1  0  0  0  0
 16 38  1  0  0  0  0
 17 39  1  0  0  0  0
 17 40  1  0  0  0  0
 17 41  1  0  0  0  0
 18 42  1  0  0  0  0
 18 43  1  0  0  0  0
 18 44  1  0  0  0  0
 22 45  1  0  0  0  0
 22 46  1  0  0  0  0
M  END
> <POSIT::Probability>
0.05

> <POSIT::Method>
FRED

> <ReceptorTitle>
UCSF-P4528-REFINED_LIGAND-BOUND-STATE_A__DU__LA1_A-201(A)

> <OMEGA_C>
LPFFwiL/8cGWYS5Aqn9BwnjG88EQmPQ/u9k7wgIF68EWZ2JALsAywlnJyMF0SW6/6q0xwvPyt8Ek
f+S/wVZFwtu67MEIfHxAN0tAwrk96cHgPYtAInQ8wldJ8MHCSxRAnG8twjrwysH4oJa/M10swika
usHC+wHAzxErwndZ1cGMNVi/R1svwk3q7cGAcSo/3/k1wk5W38EkWZs/6vUqwgF65cEoqRU/8nMx
wusv18G0iJA/a+Azwu9o6sHQRMw/RidKwl7s6sFGmJlATo0/wmaW48HP7LRA4/c0wm9Bv8FAfJ2/
qCUqwuihw8HQpt2/BTItwk0F28Hg83E+UzIpwvD9scFyWSfA3V0nwlBb2MEM8se//BY4wnIJ8sFs
PsI/39pJwobA9MGIlxlAXf1BwjLj98E4HnY/Q+k3wshR6MEuf3ZA0Ws1wladzsGQq/i+rYAzwphP
sMEyWwHAYPQwwo+D78GgpKy+1K8twgKJ9cEkx4E/B/c4wrW43MEQLPk/Zxc4wkLF38FQlIE+6fMo
wkSg5MHc2cY/hu8nwlbr58EgJxW+9Awzws17z8HYOU0/NqYvwgb21cGWegdAAGsywvlO6sFiTShA
y8lKwsOe8cH0tq9AQslNwvw46sEiFoZAPa9Jwv2R48EFWKxABf8/whbo2sFnJ7FAiYk7wln/5MHE
8sFAS4JCwuhh5sHNSsxACe0qwtgcq8EUZjjA82QlwpSXs8HoLzbA

> <OMEGA_E>
dbcPwQ==

> <OMEGA_NBR>
     22707

$$$$
CACHE3HI_1690_2
  -OEChem-03092622573D

 38 41  0     1  0  0  0  0  0999 V2000
  -52.4199  -29.6508    5.4966 C   0  0  0  0  0  0  0  0  0  0  0  0
  -52.0789  -29.5360    6.8591 C   0  0  0  0  0  0  0  0  0  0  0  0
  -51.4520  -29.5106    4.4938 C   0  0  0  0  0  0  0  0  0  0  0  0
  -50.7652  -29.2796    7.2515 C   0  0  0  0  0  0  0  0  0  0  0  0
  -46.6150  -28.6219    4.4546 C   0  0  0  0  0  0  0  0  0  0  0  0
  -50.1495  -29.2570    4.8794 C   0  0  0  0  0  0  0  0  0  0  0  0
  -49.8307  -29.1462    6.2451 C   0  0  0  0  0  0  0  0  0  0  0  0
  -47.8707  -28.8346    4.9556 C   0  0  0  0  0  0  0  0  0  0  0  0
  -48.9469  -29.0651    4.1104 C   0  0  0  0  0  0  0  0  0  0  0  0
  -46.5307  -28.6590    3.0738 C   0  0  0  0  0  0  0  0  0  0  0  0
  -48.3767  -28.8748    6.3416 C   0  0  0  0  0  0  0  0  0  0  0  0
  -42.9512  -28.3156    2.2514 C   0  0  0  0  0  0  0  0  0  0  0  0
  -44.0762  -28.1995    3.2793 C   0  0  0  0  0  0  0  0  0  0  0  0
  -45.0288  -28.4876    1.0691 C   0  0  0  0  0  0  0  0  0  0  0  0
  -43.6078  -27.9051    0.9253 C   0  0  0  0  0  0  0  0  0  0  0  0
  -42.8701  -28.5015   -0.2747 C   0  0  0  0  0  0  0  0  0  0  0  0
  -43.6557  -26.3742    0.7846 C   0  0  0  0  0  0  0  0  0  0  0  0
  -48.8362  -29.0950    2.7778 N   0  0  0  0  0  0  0  0  0  0  0  0
  -47.5951  -28.8864    2.2505 N   0  0  0  0  0  0  0  0  0  0  0  0
  -45.2899  -28.4522    2.5082 N   0  0  3  0  0  0  0  0  0  0  0  0
  -47.7312  -28.7174    7.3541 O   0  0  0  0  0  0  0  0  0  0  0  0
  -53.4520  -29.8516    5.2204 H   0  0  0  0  0  0  0  0  0  0  0  0
  -52.8530  -29.6502    7.6136 H   0  0  0  0  0  0  0  0  0  0  0  0
  -51.7287  -29.6012    3.4488 H   0  0  0  0  0  0  0  0  0  0  0  0
  -50.4998  -29.1903    8.2979 H   0  0  0  0  0  0  0  0  0  0  0  0
  -45.7602  -28.4397    5.0927 H   0  0  0  0  0  0  0  0  0  0  0  0
  -42.1462  -27.6186    2.5172 H   0  0  0  0  0  0  0  0  0  0  0  0
  -42.5264  -29.3244    2.2244 H   0  0  0  0  0  0  0  0  0  0  0  0
  -43.9860  -28.9602    4.0671 H   0  0  0  0  0  0  0  0  0  0  0  0
  -44.0720  -27.2097    3.7559 H   0  0  0  0  0  0  0  0  0  0  0  0
  -45.7748  -27.8658    0.5503 H   0  0  0  0  0  0  0  0  0  0  0  0
  -45.1078  -29.5106    0.6723 H   0  0  0  0  0  0  0  0  0  0  0  0
  -43.3628  -28.1894   -1.1897 H   0  0  0  0  0  0  0  0  0  0  0  0
  -42.8850  -29.5840   -0.2029 H   0  0  0  0  0  0  0  0  0  0  0  0
  -41.8427  -28.1501   -0.2753 H   0  0  0  0  0  0  0  0  0  0  0  0
  -44.1239  -26.1073   -0.1602 H   0  0  0  0  0  0  0  0  0  0  0  0
  -42.6454  -25.9718    0.8107 H   0  0  0  0  0  0  0  0  0  0  0  0
  -44.2324  -25.9481    1.6036 H   0  0  0  0  0  0  0  0  0  0  0  0
  1  2  1  0  0  0  0
  1  3  2  0  0  0  0
  2  4  2  0  0  0  0
  3  6  1  0  0  0  0
  4  7  1  0  0  0  0
  5  8  2  0  0  0  0
  5 10  1  0  0  0  0
  6  7  2  0  0  0  0
  6  9  1  0  0  0  0
  7 11  1  0  0  0  0
  8  9  1  0  0  0  0
  8 11  1  0  0  0  0
  9 18  2  0  0  0  0
 10 19  2  0  0  0  0
 10 20  1  0  0  0  0
 11 21  2  0  0  0  0
 12 13  1  0  0  0  0
 12 15  1  0  0  0  0
 13 20  1  0  0  0  0
 14 15  1  0  0  0  0
 14 20  1  0  0  0  0
 15 16  1  0  0  0  0
 15 17  1  0  0  0  0
 18 19  1  0  0  0  0
  1 22  1  0  0  0  0
  2 23  1  0  0  0  0
  3 24  1  0  0  0  0
  4 25  1  0  0  0  0
  5 26  1  0  0  0  0
 12 27  1  0  0  0  0
 12 28  1  0  0  0  0
 13 29  1  0  0  0  0
 13 30  1  0  0  0  0
 14 31  1  0  0  0  0
 14 32  1  0  0  0  0
 16 33  1  0  0  0  0
 16 34  1  0  0  0  0
 16 35  1  0  0  0  0
 17 36  1  0  0  0  0
 17 37  1  0  0  0  0
 17 38  1  0  0  0  0
M  END
> <POSIT::Probability>
0.24

> <POSIT::Method>
FRED

> <ReceptorTitle>
UCSF-P4528-REFINED_LIGAND-BOUND-STATE_A__DU__LA1_A-201(A)

> <OMEGA_C>
+q1Rwu807cFj5K9A1VBQwtFJ7MF/fdtA3M5NwssV7MFFzY9AiA9Lwq886sEeDOhAxnU6wrT55MHU
i45AGZlIwl0O6sFsJJxAqFJHwoQr6cGi18dAoHs/wjet5sEQlJ5AmclDwmOF6MF8iINAdB86wptF
5cFcuURAx4FBwo3/5sEy7spA/M0rwnGG4sH5FhBAE04wwqCY4cGw31FAdx00wq7m48H81og/YG4u
wqQ938EQ4mw/83orwvkC5MEYqYy+Z58uwk/+0sFM3Eg/SlhDwqjC6MEAxzFAY2E+wmcX58GgCBBA
zyg1whme48EchyBAwuw+wk295cF+VOtA285VwvrP7sHGDadAfWlTwpUz7cFmovNANupOwj7P7MFK
uVxAxv9JwqaF6cE5xARBZwo3woCE48Gs96JArZUowvzy3MFBGSFAFRsqwlSY6sHjXA5ArPEvwnGu
58FaJYJAsUkwwl+t2cHOYHBAYBk3wiXt3sEM4Qw/bm40wp4V7MFQHiw/dnMtwt2D4cG6R5i/Roor
whKs7MGAy0++4V4nwmMz4cFI+Iy+3X4wwrHb0MFQESS+35QqwkzGz8EAh08/9e0wwrGVz8HeQ80/

> <OMEGA_E>
6gQBwQ==

> <OMEGA_NBR>
     23961

$$$$
CACHE3HI_1691_23
  -OEChem-03092622573D

 46 48  0     1  0  0  0  0  0999 V2000
  -47.9657  -29.1505    4.4947 C   0  0  0  0  0  0  0  0  0  0  0  0
  -43.1508  -31.2140    2.7946 C   0  0  0  0  0  0  0  0  0  0  0  0
  -41.6991  -29.8380    1.5881 C   0  0  0  0  0  0  0  0  0  0  0  0
  -48.0502  -29.0810    6.7227 C   0  0  0  0  0  0  0  0  0  0  0  0
  -42.8558  -30.5901    1.5998 C   0  0  0  0  0  0  0  0  0  0  0  0
  -48.8140  -29.3474    5.6101 C   0  0  0  0  0  0  0  0  0  0  0  0
  -46.7440  -28.7780    5.0047 C   0  0  0  0  0  0  0  0  0  0  0  0
  -41.2811  -30.3556    3.7622 C   0  0  0  0  0  0  0  0  0  0  0  0
  -43.7183  -30.7188    0.4151 C   0  0  0  0  0  0  0  0  0  0  0  0
  -45.4620  -28.4376    4.3368 C   0  0  0  0  0  0  0  0  0  0  0  0
  -46.5613  -28.6602   -0.7441 C   0  0  0  0  0  0  0  0  0  0  0  0
  -46.0314  -27.7971    0.3919 C   0  0  0  0  0  0  0  0  0  0  0  0
  -46.0175  -30.0362   -0.4079 C   0  0  0  0  0  0  0  0  0  0  0  0
  -44.6222  -28.3683    0.6701 C   0  0  1  0  0  0  0  0  0  0  0  0
  -50.2300  -29.7545    5.5865 C   0  0  0  0  0  0  0  0  0  0  0  0
  -43.5736  -27.6344   -0.1805 C   0  0  0  0  0  0  0  0  0  0  0  0
  -44.2922  -28.2175    2.1600 C   0  0  0  0  0  0  0  0  0  0  0  0
  -42.3828  -31.1180    3.8998 N   0  0  0  0  0  0  0  0  0  0  0  0
  -40.8852  -29.6980    2.6552 N   0  0  0  0  0  0  0  0  0  0  0  0
  -44.7376  -29.7836    0.2560 N   0  0  0  0  0  0  0  0  0  0  0  0
  -40.4536  -30.2315    4.8995 N   0  0  0  0  0  0  0  0  0  0  0  0
  -45.4726  -28.4986    2.9556 N   0  0  0  0  0  0  0  0  0  0  0  0
  -43.4707  -31.6516   -0.3458 O   0  0  0  0  0  0  0  0  0  0  0  0
  -44.4859  -28.1483    5.0237 O   0  0  0  0  0  0  0  0  0  0  0  0
  -46.7870  -28.7336    6.3621 O   0  0  0  0  0  0  0  0  0  0  0  0
  -48.2151  -29.2660    3.4490 H   0  0  0  0  0  0  0  0  0  0  0  0
  -44.0380  -31.8291    2.9084 H   0  0  0  0  0  0  0  0  0  0  0  0
  -41.3775  -29.3074    0.6973 H   0  0  0  0  0  0  0  0  0  0  0  0
  -48.2449  -29.0917    7.7855 H   0  0  0  0  0  0  0  0  0  0  0  0
  -47.6577  -28.6700   -0.7378 H   0  0  0  0  0  0  0  0  0  0  0  0
  -46.2267  -28.3069   -1.7241 H   0  0  0  0  0  0  0  0  0  0  0  0
  -45.9732  -26.7552    0.0527 H   0  0  0  0  0  0  0  0  0  0  0  0
  -46.6904  -27.8297    1.2653 H   0  0  0  0  0  0  0  0  0  0  0  0
  -46.6957  -30.6052    0.2337 H   0  0  0  0  0  0  0  0  0  0  0  0
  -45.8107  -30.6159   -1.3141 H   0  0  0  0  0  0  0  0  0  0  0  0
  -50.3488  -30.8520    5.6207 H   0  0  0  0  0  0  0  0  0  0  0  0
  -50.7430  -29.4229    4.6661 H   0  0  0  0  0  0  0  0  0  0  0  0
  -50.7813  -29.3335    6.4445 H   0  0  0  0  0  0  0  0  0  0  0  0
  -42.5888  -28.0450    0.0243 H   0  0  0  0  0  0  0  0  0  0  0  0
  -43.5830  -26.5764    0.0658 H   0  0  0  0  0  0  0  0  0  0  0  0
  -43.8069  -27.7625   -1.2345 H   0  0  0  0  0  0  0  0  0  0  0  0
  -43.4944  -28.9134    2.4158 H   0  0  0  0  0  0  0  0  0  0  0  0
  -43.9422  -27.2027    2.3447 H   0  0  0  0  0  0  0  0  0  0  0  0
  -40.7386  -30.6589    5.7563 H   0  0  0  0  0  0  0  0  0  0  0  0
  -39.6551  -29.6327    4.8563 H   0  0  0  0  0  0  0  0  0  0  0  0
  -46.2969  -28.8059    2.4555 H   0  0  0  0  0  0  0  0  0  0  0  0
  1  6  1  0  0  0  0
  1  7  2  0  0  0  0
  2  5  1  0  0  0  0
  2 18  2  0  0  0  0
  3  5  2  0  0  0  0
  3 19  1  0  0  0  0
  4  6  2  0  0  0  0
  4 25  1  0  0  0  0
  5  9  1  0  0  0  0
  6 15  1  0  0  0  0
  7 10  1  0  0  0  0
  7 25  1  0  0  0  0
  8 18  1  0  0  0  0
  8 19  2  0  0  0  0
  8 21  1  0  0  0  0
  9 20  1  0  0  0  0
  9 23  2  0  0  0  0
 10 22  1  0  0  0  0
 10 24  2  0  0  0  0
 11 12  1  0  0  0  0
 11 13  1  0  0  0  0
 12 14  1  0  0  0  0
 13 20  1  0  0  0  0
 14 16  1  0  0  0  0
 14 17  1  0  0  0  0
 14 20  1  0  0  0  0
 17 22  1  0  0  0  0
  1 26  1  0  0  0  0
  2 27  1  0  0  0  0
  3 28  1  0  0  0  0
  4 29  1  0  0  0  0
 11 30  1  0  0  0  0
 11 31  1  0  0  0  0
 12 32  1  0  0  0  0
 12 33  1  0  0  0  0
 13 34  1  0  0  0  0
 13 35  1  0  0  0  0
 15 36  1  0  0  0  0
 15 37  1  0  0  0  0
 15 38  1  0  0  0  0
 16 39  1  0  0  0  0
 16 40  1  0  0  0  0
 16 41  1  0  0  0  0
 17 42  1  0  0  0  0
 17 43  1  0  0  0  0
 21 44  1  0  0  0  0
 21 45  1  0  0  0  0
 22 46  1  0  0  0  0
M  END
> <POSIT::Probability>
0.24

> <POSIT::Method>
FRED

> <ReceptorTitle>
UCSF-P4528-REFINED_LIGAND-BOUND-STATE_A__DU__LA1_A-201(A)

> <OMEGA_C>
6Nw/wk406cFD1I9AbposwlC2+cFc2zJA4csmwim07sHQRss/bzNAwtGl6MEoINdAUWwrwnS49MHA
xsw/hkFDwnzH6sGuhbNA1fk6wkE55sF/JqBA3h8lwkjY8sH2x3BAlt8uwjLA9cGwh9Q+Idk1wiKA
48FQx4pAyj46wghI5cHwfj6/LCA4wnFg3sEAq8g+4hE4wihK8MFg19C+IH0ywkDy4sHQiSs/gOtI
wiQJ7sFRxLJAV0suwlIT3cHgyTi+MCsxwli94cHhPApA+Ycpwqfx+MH6lnlAaoojwoaV7cGN7ylA
QvMywr9E7sGQD4M+hdAhwgba8cECyZxA+OM1wjz948FRKD1AAeItwo02/cHQB7G+hvExwr4v4cHt
waBA6iU7wlre5cH0lctAONxAwtMg6sHTvFxA7SYwwhei/sGYIjpAkIIlwoB16sGIgDI/zvpAwre7
6MEfI/lAdqE+whpc5cHw4jy/Geg4wpx04sHMrdy/luQ3wq0K1sGAvVc9/8I6wiyj3sHQ9KE/ccg6
wo3X9MEAVG8+IT43wnft9MHgNKi/NmVJwvfQ9sFl3LNA4vhKwhZi68FvUJVACyBLwhGr6sFGOc5A
+Foqwh5c4MEAKsc8AFUuwmWc1MEAyIY9Tzovwo4Z3sGEBZ6/QfotwptO58HWmxpA1cQvwjKf2cHY
DxZAS/QiwodF9cHJM7hA054ewssP7cEGZ5tA/C85wody5sFfJh1A

> <OMEGA_E>
0BsdwQ==

> <OMEGA_NBR>
     25374

$$$$
CACHE3HI_1691_41
  -OEChem-03092622573D

 46 49  0     1  0  0  0  0  0999 V2000
  -48.3246  -33.0211    1.8134 C   0  0  0  0  0  0  0  0  0  0  0  0
  -46.7281  -24.8044   -1.8690 C   0  0  0  0  0  0  0  0  0  0  0  0
  -45.9738  -33.3843    1.4571 C   0  0  0  0  0  0  0  0  0  0  0  0
  -47.9878  -31.8562    2.4846 C   0  0  0  0  0  0  0  0  0  0  0  0
  -47.5937  -23.7546   -2.0851 C   0  0  0  0  0  0  0  0  0  0  0  0
  -45.5146  -22.9223   -2.1042 C   0  0  0  0  0  0  0  0  0  0  0  0
  -45.4129  -24.2777   -1.8808 C   0  0  0  0  0  0  0  0  0  0  0  0
  -47.2924  -33.7937    1.2930 C   0  0  0  0  0  0  0  0  0  0  0  0
  -45.7419  -32.2035    2.1440 C   0  0  0  0  0  0  0  0  0  0  0  0
  -44.1340  -25.0087   -1.6928 C   0  0  0  0  0  0  0  0  0  0  0  0
  -44.3682  -31.7232    2.3491 C   0  0  0  0  0  0  0  0  0  0  0  0
  -42.4866  -30.3048    1.3748 C   0  0  0  0  0  0  0  0  0  0  0  0
  -44.6344  -30.4625    0.2314 C   0  0  0  0  0  0  0  0  0  0  0  0
  -42.4796  -29.3568    0.2202 C   0  0  1  0  0  0  0  0  0  0  0  0
  -43.7930  -29.4559   -0.4808 C   0  0  2  0  0  0  0  0  0  0  0  0
  -43.3982  -28.1618    0.1850 C   0  0  0  0  0  0  0  0  0  0  0  0
  -47.3760  -21.2940   -2.4697 C   0  0  0  0  0  0  0  0  0  0  0  0
  -43.0445  -26.9757   -0.6442 C   0  0  0  0  0  0  0  0  0  0  0  0
  -46.7185  -31.4265    2.6636 N   0  0  0  0  0  0  0  0  0  0  0  0
  -46.8445  -22.6156   -2.2267 N   0  0  0  0  0  0  0  0  0  0  0  0
  -43.8340  -30.8866    1.3787 N   0  0  0  0  0  0  0  0  0  0  0  0
  -47.5827  -34.9869    0.6010 N   0  0  0  0  0  0  0  0  0  0  0  0
  -44.2244  -26.1547   -0.9405 N   0  0  0  0  0  0  0  0  0  0  0  0
  -43.1048  -24.5538   -2.1849 O   0  0  0  0  0  0  0  0  0  0  0  0
  -43.7830  -32.1040    3.3605 O   0  0  0  0  0  0  0  0  0  0  0  0
  -49.3640  -33.3104    1.7014 H   0  0  0  0  0  0  0  0  0  0  0  0
  -47.0186  -25.8354   -1.7197 H   0  0  0  0  0  0  0  0  0  0  0  0
  -45.1518  -33.9717    1.0593 H   0  0  0  0  0  0  0  0  0  0  0  0
  -48.7556  -31.2171    2.9078 H   0  0  0  0  0  0  0  0  0  0  0  0
  -48.6731  -23.7251   -2.1493 H   0  0  0  0  0  0  0  0  0  0  0  0
  -44.7577  -22.1531   -2.1851 H   0  0  0  0  0  0  0  0  0  0  0  0
  -41.7602  -31.1123    1.2379 H   0  0  0  0  0  0  0  0  0  0  0  0
  -42.2969  -29.8004    2.3273 H   0  0  0  0  0  0  0  0  0  0  0  0
  -45.5857  -30.0485    0.5804 H   0  0  0  0  0  0  0  0  0  0  0  0
  -44.8334  -31.3406   -0.3915 H   0  0  0  0  0  0  0  0  0  0  0  0
  -41.5655  -29.3515   -0.3541 H   0  0  0  0  0  0  0  0  0  0  0  0
  -43.8233  -29.5215   -1.5579 H   0  0  0  0  0  0  0  0  0  0  0  0
  -43.9063  -27.8757    1.0979 H   0  0  0  0  0  0  0  0  0  0  0  0
  -47.5766  -20.7736   -1.5272 H   0  0  0  0  0  0  0  0  0  0  0  0
  -48.3075  -21.3642   -3.0400 H   0  0  0  0  0  0  0  0  0  0  0  0
  -46.6620  -20.6829   -3.0313 H   0  0  0  0  0  0  0  0  0  0  0  0
  -42.3042  -26.3359   -0.1300 H   0  0  0  0  0  0  0  0  0  0  0  0
  -42.5828  -27.2783   -1.6019 H   0  0  0  0  0  0  0  0  0  0  0  0
  -48.5321  -35.2948    0.5364 H   0  0  0  0  0  0  0  0  0  0  0  0
  -46.8291  -35.5598    0.2782 H   0  0  0  0  0  0  0  0  0  0  0  0
  -45.0828  -26.4473   -0.5086 H   0  0  0  0  0  0  0  0  0  0  0  0
  1  4  2  0  0  0  0
  1  8  1  0  0  0  0
  2  5  2  0  0  0  0
  2  7  1  0  0  0  0
  3  8  2  0  0  0  0
  3  9  1  0  0  0  0
  4 19  1  0  0  0  0
  5 20  1  0  0  0  0
  6  7  2  0  0  0  0
  6 20  1  0  0  0  0
  7 10  1  0  0  0  0
  8 22  1  0  0  0  0
  9 11  1  0  0  0  0
  9 19  2  0  0  0  0
 10 23  1  0  0  0  0
 10 24  2  0  0  0  0
 11 21  1  0  0  0  0
 11 25  2  0  0  0  0
 12 14  1  0  0  0  0
 12 21  1  0  0  0  0
 13 15  1  0  0  0  0
 13 21  1  0  0  0  0
 14 15  1  0  0  0  0
 14 16  1  0  0  0  0
 15 16  1  0  0  0  0
 16 18  1  0  0  0  0
 17 20  1  0  0  0  0
 18 23  1  0  0  0  0
  1 26  1  0  0  0  0
  2 27  1  0  0  0  0
  3 28  1  0  0  0  0
  4 29  1  0  0  0  0
  5 30  1  0  0  0  0
  6 31  1  0  0  0  0
 12 32  1  0  0  0  0
 12 33  1  0  0  0  0
 13 34  1  0  0  0  0
 13 35  1  0  0  0  0
 14 36  1  0  0  0  0
 15 37  1  0  0  0  0
 16 38  1  0  0  0  0
 17 39  1  0  0  0  0
 17 40  1  0  0  0  0
 17 41  1  0  0  0  0
 18 42  1  0  0  0  0
 18 43  1  0  0  0  0
 22 44  1  0  0  0  0
 22 45  1  0  0  0  0
 23 46  1  0  0  0  0
M  END
> <POSIT::Probability>
0.02

> <POSIT::Method>
FRED

> <ReceptorTitle>
UCSF-P4528-REFINED_LIGAND-BOUND-STATE_A__DU__LA1_A-201(A)

> <OMEGA_C>
a0xBwpsVBMIMHOg/m+k6woNvxsHcOu+/NOU3woGJBcLQg7o/fPM/wn7Z/sGUAx9A6F8+wnsJvsH/
cQXA/w42wshgt8GuqgbAyKY1wq84wsESv/C/ZSs9wsYsB8IggqU/vvc2wmTQAMIiNwlAOIkwwtcR
yMHcrdi/A3kxwgrJ/cGvVxZARfIpwiZw8sHs+K8/pYkywhyz88HQ+Ww+G+spwsva6sGwe2E+Bywv
wrGl68FIKfa+t5ctwkVL4cFAfT0+EYE9wjNaqsH4Dx7AjS0swkDO18Ec6CS/tt86wmxp+8HmeCpA
0GA7wsLstMG/gQ7ABlYvwrkX98GYeLA/t1Q+wovyC8Kw2xk/zeUwwuc80cE4x3C/VGsswj5uxMH5
1QvAwiEvwoNqAMKmEVdAsnRFwuA9BcJQxtk/FhM8wtOuzsFJINy/Zps0whLjB8IMloc/vgVDwqu8
+cEUGjpATrFCwhHNvcFljQnA3Aczwog5scE52QvAcAonwv/l+MG8c54/BTApwk9n7sHy8hRAtlc2
wkBj8MHkkhQ/Y1Uzwna5+sHAdci+DEMmwtXP6sHoT7W+F0svwv4r7MEMaMe/GqAvwoIB38HYhow/
fE4+wmEwpsEee8O/6DpBwu/pqsHPj0LA16U6wn52pcF/AULAizcpwgWw0sFQJgW+xlQqwvs52sGc
Cc2/6CBCwuwtDcI4UAk/ClE7wkE9DsJQa44+zFQ0wg2U08EAMgK/

> <OMEGA_E>
cogfwQ==

> <OMEGA_NBR>
     26796

$$$$
CACHE3HI_1691_62
  -OEChem-03092622573D

 46 48  0     1  0  0  0  0  0999 V2000
  -46.5706  -35.0395   -2.9534 C   0  0  0  0  0  0  0  0  0  0  0  0
  -47.6584  -34.2505   -2.6596 C   0  0  0  0  0  0  0  0  0  0  0  0
  -45.6095  -34.7735   -1.9494 C   0  0  0  0  0  0  0  0  0  0  0  0
  -46.1781  -33.8411   -1.1134 C   0  0  0  0  0  0  0  0  0  0  0  0
  -45.5860  -28.9744    5.9503 C   0  0  0  0  0  0  0  0  0  0  0  0
  -47.7502  -28.9661    5.7869 C   0  0  0  0  0  0  0  0  0  0  0  0
  -45.6710  -33.1713    0.1111 C   0  0  0  0  0  0  0  0  0  0  0  0
  -45.0508  -28.4920    3.2645 C   0  0  0  0  0  0  0  0  0  0  0  0
  -42.9011  -28.9928    0.3246 C   0  0  0  0  0  0  0  0  0  0  0  0
  -43.8411  -30.1736    0.1461 C   0  0  0  0  0  0  0  0  0  0  0  0
  -43.1118  -28.6170    1.7772 C   0  0  0  0  0  0  0  0  0  0  0  0
  -45.0816  -29.8045    1.0001 C   0  0  1  0  0  0  0  0  0  0  0  0
  -44.2700  -35.3789   -1.8312 C   0  0  0  0  0  0  0  0  0  0  0  0
  -46.0619  -28.9900    0.1395 C   0  0  0  0  0  0  0  0  0  0  0  0
  -46.4599  -28.8900    3.6078 C   0  0  0  0  0  0  0  0  0  0  0  0
  -45.7376  -31.1038    1.4810 C   0  0  0  0  0  0  0  0  0  0  0  0
  -45.9583  -29.0178    7.1887 N   0  0  0  0  0  0  0  0  0  0  0  0
  -47.3223  -29.0140    7.1221 N   0  0  0  0  0  0  0  0  0  0  0  0
  -46.5860  -28.9407    5.0347 N   0  0  0  0  0  0  0  0  0  0  0  0
  -44.4957  -28.9708    2.0856 N   0  0  0  0  0  0  0  0  0  0  0  0
  -46.1562  -31.8974    0.3396 N   0  0  0  0  0  0  0  0  0  0  0  0
  -48.9064  -28.9514    5.3916 O   0  0  0  0  0  0  0  0  0  0  0  0
  -44.8589  -33.7566    0.8226 O   0  0  0  0  0  0  0  0  0  0  0  0
  -44.4268  -27.7819    4.0612 O   0  0  0  0  0  0  0  0  0  0  0  0
  -47.4272  -33.5173   -1.5392 O   0  0  0  0  0  0  0  0  0  0  0  0
  -46.4852  -35.7202   -3.7885 H   0  0  0  0  0  0  0  0  0  0  0  0
  -48.6226  -34.1033   -3.1239 H   0  0  0  0  0  0  0  0  0  0  0  0
  -44.5506  -28.9623    5.5866 H   0  0  0  0  0  0  0  0  0  0  0  0
  -41.8622  -29.2524    0.1063 H   0  0  0  0  0  0  0  0  0  0  0  0
  -43.1971  -28.1666   -0.3308 H   0  0  0  0  0  0  0  0  0  0  0  0
  -44.0809  -30.3455   -0.9082 H   0  0  0  0  0  0  0  0  0  0  0  0
  -43.3564  -31.0795    0.5322 H   0  0  0  0  0  0  0  0  0  0  0  0
  -42.4648  -29.2091    2.4395 H   0  0  0  0  0  0  0  0  0  0  0  0
  -42.9191  -27.5530    1.9616 H   0  0  0  0  0  0  0  0  0  0  0  0
  -43.5020  -34.7977   -2.3709 H   0  0  0  0  0  0  0  0  0  0  0  0
  -44.2357  -36.3970   -2.2574 H   0  0  0  0  0  0  0  0  0  0  0  0
  -43.9556  -35.4482   -0.7763 H   0  0  0  0  0  0  0  0  0  0  0  0
  -46.9321  -28.7295    0.7338 H   0  0  0  0  0  0  0  0  0  0  0  0
  -46.3698  -29.5840   -0.7155 H   0  0  0  0  0  0  0  0  0  0  0  0
  -45.5721  -28.0836   -0.2051 H   0  0  0  0  0  0  0  0  0  0  0  0
  -47.1397  -28.1563    3.1842 H   0  0  0  0  0  0  0  0  0  0  0  0
  -46.6665  -29.8641    3.1747 H   0  0  0  0  0  0  0  0  0  0  0  0
  -45.0188  -31.6629    2.0797 H   0  0  0  0  0  0  0  0  0  0  0  0
  -46.5956  -30.8599    2.1074 H   0  0  0  0  0  0  0  0  0  0  0  0
  -47.9387  -29.0418    7.9243 H   0  0  0  0  0  0  0  0  0  0  0  0
  -46.7765  -31.4503   -0.3226 H   0  0  0  0  0  0  0  0  0  0  0  0
  1  2  2  0  0  0  0
  1  3  1  0  0  0  0
  2 25  1  0  0  0  0
  3  4  2  0  0  0  0
  3 13  1  0  0  0  0
  4  7  1  0  0  0  0
  4 25  1  0  0  0  0
  5 17  2  0  0  0  0
  5 19  1  0  0  0  0
  6 18  1  0  0  0  0
  6 19  1  0  0  0  0
  6 22  2  0  0  0  0
  7 21  1  0  0  0  0
  7 23  2  0  0  0  0
  8 15  1  0  0  0  0
  8 20  1  0  0  0  0
  8 24  2  0  0  0  0
  9 10  1  0  0  0  0
  9 11  1  0  0  0  0
 10 12  1  0  0  0  0
 11 20  1  0  0  0  0
 12 14  1  0  0  0  0
 12 16  1  0  0  0  0
 12 20  1  0  0  0  0
 15 19  1  0  0  0  0
 16 21  1  0  0  0  0
 17 18  1  0  0  0  0
  1 26  1  0  0  0  0
  2 27  1  0  0  0  0
  5 28  1  0  0  0  0
  9 29  1  0  0  0  0
  9 30  1  0  0  0  0
 10 31  1  0  0  0  0
 10 32  1  0  0  0  0
 11 33  1  0  0  0  0
 11 34  1  0  0  0  0
 13 35  1  0  0  0  0
 13 36  1  0  0  0  0
 13 37  1  0  0  0  0
 14 38  1  0  0  0  0
 14 39  1  0  0  0  0
 14 40  1  0  0  0  0
 15 41  1  0  0  0  0
 15 42  1  0  0  0  0
 16 43  1  0  0  0  0
 16 44  1  0  0  0  0
 18 45  1  0  0  0  0
 21 46  1  0  0  0  0
M  END
> <POSIT::Probability>
0.14

> <POSIT::Method>
HYBRID

> <ReceptorTitle>
UCSF-P4528-REFINED_LIGAND-BOUND-STATE_A__DU__LA1_A-201(A)

> <OMEGA_C>
RUg6wmgoDMIkBT3AN6I+wnsACcKcNyrAHHA2wgkYC8KIh/m/bLY4wkNdB8I4hY6/Elg2wn7L58Gt
aL5AQAA/wny658GkLrlADq82wmevBMLAduM9/DM0wofv48Ea7VBAvZorwizx58FwOKY+TF0vwoBj
8cGAmRU+eHIswpLv5MGkfOM/g1M0wopv7sHEAYA/hxQxwgOEDcI0Zeq/Yj84wp/r58Gg1g4+8dY5
wqQe58E65mZAVvM2worU+MFskb0/TNU3wn8k6MEWCuZACko9wp4c6ME+6ONAEFg6wpuG58HoG6FA
l/sxwj3E58GgegVA7p84wtUt/8Ew260+IKBDwl6c58EjiKxAgG8zwsEGB8LwllI/CrUxwkNB3sGY
9YFAdrU9wrsRBsL4A8W/1/A5wnHhDsKIdnLAhX1Cws9pCMIQ7kfA0DMywt2y58EMxbJA2XInwvQE
6sHAuNk93skswkhV4cGAYqm+1lIwwofD8sHggmi//Wwtwr6i+MHYOwg/8tspwjas6cFuIBxAHq0r
wpNs3MEEF/s/BQIuwtEwC8JSvBfAVfEwwouWEcKweRDAkNIvwgHLDcKwvUa/hbo7wu7V5cG42zs/
qno5wgis7MHwKDe/3Uk2wjqr4MEg/1G+Do88wiRA4cGkyUtAi6o6wsLp7sHsLUtAPRM0wq1N/cFq
GgVA32E6wgjh9sGa3wZAMME/wqFV6MHUk/1AKBs7wjma+8FALaW+

> <OMEGA_E>
AvbVwA==

> <OMEGA_NBR>
     28215

$$$$
CACHE3HI_1691_7
  -OEChem-03092622573D

 48 51  0     0  0  0  0  0  0999 V2000
  -44.2309  -29.4162    5.4907 C   0  0  0  0  0  0  0  0  0  0  0  0
  -45.1415  -29.3897    6.5690 C   0  0  0  0  0  0  0  0  0  0  0  0
  -46.0551  -28.9137    3.9522 C   0  0  0  0  0  0  0  0  0  0  0  0
  -44.6855  -29.1288    4.1843 C   0  0  0  0  0  0  0  0  0  0  0  0
  -46.5056  -29.1017    6.3370 C   0  0  0  0  0  0  0  0  0  0  0  0
  -46.9728  -28.9487    5.0094 C   0  0  0  0  0  0  0  0  0  0  0  0
  -44.8932  -32.4672   -0.6686 C   0  0  0  0  0  0  0  0  0  0  0  0
  -44.4391  -34.1761   -2.0019 C   0  0  0  0  0  0  0  0  0  0  0  0
  -43.7506  -29.0095    3.0495 C   0  0  0  0  0  0  0  0  0  0  0  0
  -47.4693  -28.9803    7.5064 C   0  0  0  0  0  0  0  0  0  0  0  0
  -48.4382  -28.6793    4.7155 C   0  0  0  0  0  0  0  0  0  0  0  0
  -45.5740  -31.2128    1.4027 C   0  0  0  0  0  0  0  0  0  0  0  0
  -44.0446  -29.9809   -0.2972 C   0  0  0  0  0  0  0  0  0  0  0  0
  -44.3360  -31.3261    2.3064 C   0  0  0  0  0  0  0  0  0  0  0  0
  -42.9538  -29.9163    0.8161 C   0  0  0  0  0  0  0  0  0  0  0  0
  -48.7926  -28.3199    7.0678 C   0  0  0  0  0  0  0  0  0  0  0  0
  -45.1647  -31.0780   -0.0845 C   0  0  0  0  0  0  0  0  0  0  0  0
  -43.8932  -34.9279   -3.1878 C   0  0  0  0  0  0  0  0  0  0  0  0
  -44.2063  -32.8065   -1.7326 N   0  0  0  0  0  0  0  0  0  0  0  0
  -45.2579  -34.6776   -1.1046 N   0  0  0  0  0  0  0  0  0  0  0  0
  -45.5223  -33.6364   -0.3047 N   0  0  0  0  0  0  0  0  0  0  0  0
  -43.5685  -30.0826    2.1519 N   0  0  0  0  0  0  0  0  0  0  0  0
  -44.3540  -34.2720   -4.4266 N   0  0  0  0  0  0  0  0  0  0  0  0
  -43.2780  -27.9018    2.8185 O   0  0  0  0  0  0  0  0  0  0  0  0
  -49.2629  -28.9589    5.8641 O   0  0  0  0  0  0  0  0  0  0  0  0
  -43.1919  -29.6550    5.6636 H   0  0  0  0  0  0  0  0  0  0  0  0
  -44.7955  -29.5898    7.5723 H   0  0  0  0  0  0  0  0  0  0  0  0
  -46.4032  -28.7194    2.9485 H   0  0  0  0  0  0  0  0  0  0  0  0
  -47.6825  -29.9842    7.9022 H   0  0  0  0  0  0  0  0  0  0  0  0
  -47.0049  -28.3671    8.2927 H   0  0  0  0  0  0  0  0  0  0  0  0
  -48.5592  -27.6222    4.4363 H   0  0  0  0  0  0  0  0  0  0  0  0
  -48.7594  -29.3183    3.8797 H   0  0  0  0  0  0  0  0  0  0  0  0
  -46.1926  -32.1140    1.5253 H   0  0  0  0  0  0  0  0  0  0  0  0
  -46.1548  -30.3264    1.6977 H   0  0  0  0  0  0  0  0  0  0  0  0
  -44.5367  -28.9985   -0.3481 H   0  0  0  0  0  0  0  0  0  0  0  0
  -43.5422  -30.1894   -1.2534 H   0  0  0  0  0  0  0  0  0  0  0  0
  -44.6450  -31.4501    3.3548 H   0  0  0  0  0  0  0  0  0  0  0  0
  -43.7237  -32.1871    2.0003 H   0  0  0  0  0  0  0  0  0  0  0  0
  -42.2207  -30.7198    0.6520 H   0  0  0  0  0  0  0  0  0  0  0  0
  -42.4461  -28.9416    0.7697 H   0  0  0  0  0  0  0  0  0  0  0  0
  -49.5433  -28.4355    7.8635 H   0  0  0  0  0  0  0  0  0  0  0  0
  -48.6242  -27.2501    6.8752 H   0  0  0  0  0  0  0  0  0  0  0  0
  -46.0538  -30.6964   -0.6078 H   0  0  0  0  0  0  0  0  0  0  0  0
  -42.7937  -34.9213   -3.1541 H   0  0  0  0  0  0  0  0  0  0  0  0
  -44.2546  -35.9666   -3.1641 H   0  0  0  0  0  0  0  0  0  0  0  0
  -46.1258  -33.7027    0.4899 H   0  0  0  0  0  0  0  0  0  0  0  0
  -43.9954  -34.7656   -5.2189 H   0  0  0  0  0  0  0  0  0  0  0  0
  -45.3536  -34.2778   -4.4547 H   0  0  0  0  0  0  0  0  0  0  0  0
  1  2  1  0  0  0  0
  1  4  2  0  0  0  0
  2  5  2  0  0  0  0
  3  4  1  0  0  0  0
  3  6  2  0  0  0  0
  4  9  1  0  0  0  0
  5  6  1  0  0  0  0
  5 10  1  0  0  0  0
  6 11  1  0  0  0  0
  7 17  1  0  0  0  0
  7 19  2  0  0  0  0
  7 21  1  0  0  0  0
  8 18  1  0  0  0  0
  8 19  1  0  0  0  0
  8 20  2  0  0  0  0
  9 22  1  0  0  0  0
  9 24  2  0  0  0  0
 10 16  1  0  0  0  0
 11 25  1  0  0  0  0
 12 14  1  0  0  0  0
 12 17  1  0  0  0  0
 13 15  1  0  0  0  0
 13 17  1  0  0  0  0
 14 22  1  0  0  0  0
 15 22  1  0  0  0  0
 16 25  1  0  0  0  0
 18 23  1  0  0  0  0
 20 21  1  0  0  0  0
  1 26  1  0  0  0  0
  2 27  1  0  0  0  0
  3 28  1  0  0  0  0
 10 29  1  0  0  0  0
 10 30  1  0  0  0  0
 11 31  1  0  0  0  0
 11 32  1  0  0  0  0
 12 33  1  0  0  0  0
 12 34  1  0  0  0  0
 13 35  1  0  0  0  0
 13 36  1  0  0  0  0
 14 37  1  0  0  0  0
 14 38  1  0  0  0  0
 15 39  1  0  0  0  0
 15 40  1  0  0  0  0
 16 41  1  0  0  0  0
 16 42  1  0  0  0  0
 17 43  1  0  0  0  0
 18 44  1  0  0  0  0
 18 45  1  0  0  0  0
 21 46  1  0  0  0  0
 23 47  1  0  0  0  0
 23 48  1  0  0  0  0
M  END
> <POSIT::Probability>
0.51

> <POSIT::Method>
SHAPEFIT

> <ReceptorTitle>
UCSF-P4528-REFINED_LIGAND-BOUND-STATE_A__DU__LA1_A-201(A)

> <OMEGA_C>
Z+wwwmxU68EttK9A4JA0wjIe68EwNdJAeTg4wipP58H28HxA6b0ywsoH6cHu5YVAsAU6wkDQ6MF5
yMpAKuQ7wvqW58G9TKBAppIzwnXeAcIAKCu/rcExwl60CMLpHwDAmgAvwooT6MGlK0NAleA9wqDX
58ExNPBAusBBwjJv5cE55ZZAvEs2wsCz+cHEirM/sy0wwvLY78HZMJi+B1gxwtCb+sF2nBNAt9Ar
wpJU78Gq6VA/nStDwjaP4sGlK+JApag0wrSf+MFkAK29mZIvwie2C8JyBEzAOdMwwt85A8LKxd2/
Igg1wta1CsJQYo2/zBY2wquLBsJbB5y+GkYuwj6p8MEXuAlAemoxwn0WCcJ4po3AnxwtwtY238HU
YTRANA1Fwsar58HnprtAeMQswmw97cEUPLVAkS4zwvG37MFjUPJA25w5wkPB5cFtszxA3ro+wrDf
78G03vxACwU8wtjv4sEBrwRBmjxCwkn63MFG9o1AoQlDwuuL6sF6TXhAMMU4wsd0AMJGPMM/h544
wo2c8sHTTdk/mSUywtb858G2P7K+Qisuws+D8cFkbqC/gZQywtGZ+8EdtVZAEuUuwqS/AMJtBQBA
8+Eowg/C9cFC6iY/2MgpwlGI58HZCkU/TCxGwuN748EOovtAJn9CwjQA2sGwAdxAFDc4wiqS9cGw
mRu/vywrwnSvC8IJ3UnAqQQxwsDdD8LggErAyYA4wo/PBsIizvo+S/svwu0PC8JBAafADWo1woAc
CcI2jY7A

> <OMEGA_E>
XLuGPw==

> <OMEGA_NBR>
     29694

$$$$
CACHE3HI_1695_1
  -OEChem-03092622573D

 45 47  0     1  0  0  0  0  0999 V2000
  -49.7941  -29.0477    4.9982 C   0  0  0  0  0  0  0  0  0  0  0  0
  -45.4671  -35.0144   -0.4340 C   0  0  0  0  0  0  0  0  0  0  0  0
  -48.4693  -28.6716    4.6650 C   0  0  0  0  0  0  0  0  0  0  0  0
  -45.1292  -33.6433   -0.5503 C   0  0  0  0  0  0  0  0  0  0  0  0
  -49.8370  -29.2380    6.3620 C   0  0  0  0  0  0  0  0  0  0  0  0
  -44.8836  -35.6732   -1.4939 C   0  0  0  0  0  0  0  0  0  0  0  0
  -47.7432  -28.6431    5.8352 C   0  0  0  0  0  0  0  0  0  0  0  0
  -44.3494  -33.5061   -1.6775 C   0  0  0  0  0  0  0  0  0  0  0  0
  -46.3392  -28.3324    6.1599 C   0  0  0  0  0  0  0  0  0  0  0  0
  -43.6925  -32.3607   -2.3330 C   0  0  0  0  0  0  0  0  0  0  0  0
  -45.3010  -28.5569    5.3422 C   0  0  0  0  0  0  0  0  0  0  0  0
  -43.2615  -31.2631   -1.6955 C   0  0  0  0  0  0  0  0  0  0  0  0
  -45.5381  -29.1580    4.0099 C   0  0  0  0  0  0  0  0  0  0  0  0
  -43.4385  -31.1540   -0.2294 C   0  0  0  0  0  0  0  0  0  0  0  0
  -45.4256  -27.4730    0.8129 C   0  0  0  0  0  0  0  0  0  0  0  0
  -42.8968  -28.3211    1.0772 C   0  0  0  0  0  0  0  0  0  0  0  0
  -45.2423  -28.6931    1.7150 C   0  0  1  0  0  0  0  0  0  0  0  0
  -43.9651  -29.3997    1.2584 C   0  0  1  0  0  0  0  0  0  0  0  0
  -48.5845  -28.9891    6.8599 N   0  0  0  0  0  0  0  0  0  0  0  0
  -44.2068  -34.7461   -2.2429 N   0  0  0  0  0  0  0  0  0  0  0  0
  -46.0432  -30.2503    3.8052 O   0  0  0  0  0  0  0  0  0  0  0  0
  -42.9732  -31.9200    0.5994 O   0  0  0  0  0  0  0  0  0  0  0  0
  -43.4836  -25.7633    1.3390 O   0  0  0  0  0  0  0  0  0  0  0  0
  -43.5988  -26.8082   -0.9692 O   0  0  0  0  0  0  0  0  0  0  0  0
  -45.0935  -28.2777    3.0680 O   0  0  0  0  0  0  0  0  0  0  0  0
  -44.2071  -30.0552    0.0195 O   0  0  0  0  0  0  0  0  0  0  0  0
  -43.7713  -26.8840    0.4672 S   0  0  0  0  0  0  0  0  0  0  0  0
  -50.6268  -29.1683    4.3198 H   0  0  0  0  0  0  0  0  0  0  0  0
  -46.0704  -35.4731    0.3366 H   0  0  0  0  0  0  0  0  0  0  0  0
  -48.0906  -28.4464    3.6772 H   0  0  0  0  0  0  0  0  0  0  0  0
  -45.4247  -32.8461    0.1182 H   0  0  0  0  0  0  0  0  0  0  0  0
  -50.6442  -29.5287    7.0194 H   0  0  0  0  0  0  0  0  0  0  0  0
  -44.8912  -36.7152   -1.7812 H   0  0  0  0  0  0  0  0  0  0  0  0
  -46.1746  -27.9098    7.1487 H   0  0  0  0  0  0  0  0  0  0  0  0
  -43.5858  -32.4429   -3.4124 H   0  0  0  0  0  0  0  0  0  0  0  0
  -44.2806  -28.3062    5.6103 H   0  0  0  0  0  0  0  0  0  0  0  0
  -42.7726  -30.4426   -2.2090 H   0  0  0  0  0  0  0  0  0  0  0  0
  -45.8762  -27.7537   -0.1434 H   0  0  0  0  0  0  0  0  0  0  0  0
  -45.9939  -26.6685    1.2854 H   0  0  0  0  0  0  0  0  0  0  0  0
  -42.4481  -28.0451    2.0359 H   0  0  0  0  0  0  0  0  0  0  0  0
  -42.1246  -28.5958    0.3550 H   0  0  0  0  0  0  0  0  0  0  0  0
  -46.1209  -29.3451    1.6516 H   0  0  0  0  0  0  0  0  0  0  0  0
  -43.6258  -30.1484    1.9821 H   0  0  0  0  0  0  0  0  0  0  0  0
  -48.3294  -29.0529    7.8364 H   0  0  0  0  0  0  0  0  0  0  0  0
  -43.6840  -34.9545   -3.0831 H   0  0  0  0  0  0  0  0  0  0  0  0
  1  3  1  0  0  0  0
  1  5  2  0  0  0  0
  2  4  1  0  0  0  0
  2  6  2  0  0  0  0
  3  7  2  0  0  0  0
  4  8  2  0  0  0  0
  5 19  1  0  0  0  0
  6 20  1  0  0  0  0
  7  9  1  0  0  0  0
  7 19  1  0  0  0  0
  8 10  1  0  0  0  0
  8 20  1  0  0  0  0
  9 11  2  0  0  0  0
 10 12  2  0  0  0  0
 11 13  1  0  0  0  0
 12 14  1  0  0  0  0
 13 21  2  0  0  0  0
 13 25  1  0  0  0  0
 14 22  2  0  0  0  0
 14 26  1  0  0  0  0
 15 17  1  0  0  0  0
 15 27  1  0  0  0  0
 16 18  1  0  0  0  0
 16 27  1  0  0  0  0
 17 18  1  0  0  0  0
 17 25  1  0  0  0  0
 18 26  1  0  0  0  0
 23 27  2  0  0  0  0
 24 27  2  0  0  0  0
  1 28  1  0  0  0  0
  2 29  1  0  0  0  0
  3 30  1  0  0  0  0
  4 31  1  0  0  0  0
  5 32  1  0  0  0  0
  6 33  1  0  0  0  0
  9 34  1  0  0  0  0
 10 35  1  0  0  0  0
 11 36  1  0  0  0  0
 12 37  1  0  0  0  0
 15 38  1  0  0  0  0
 15 39  1  0  0  0  0
 16 40  1  0  0  0  0
 16 41  1  0  0  0  0
 17 42  1  0  0  0  0
 18 43  1  0  0  0  0
 19 44  1  0  0  0  0
 20 45  1  0  0  0  0
M  END
> <POSIT::Probability>
0.18

> <POSIT::Method>
HYBRID

> <ReceptorTitle>
UCSF-P4528-REFINED_LIGAND-BOUND-STATE_A__DU__LA1_A-201(A)

> <OMEGA_C>
KS1Hwqxh6ME68Z9ARt41wroODMLsL96+lOBBwmlf5cGiR5VAV4Q0wr6SBsLc4gy/GFlHwl/n6cFj
lctA0ogzwlmxDsLaOL+/A/k+whAl5cG5ubpAzmUxwjQGBsKmt9a/WFs5wr6o4sHDHcVAI8UuwlRx
AcKBTxXALjQ1wnl05MGY86pAvAstwtYa+sEKBdm/BSc2woBD6cHyUIBAC8EtwlU7+cEg3mq+1bM1
wqnI28EcGlA/UZYrwpCR4sF04ok/Jfg0woeL5cEahds/PtwvwoAy68GXFKE/jVZCwqDp58F6hNtA
x9Mwwvv7CsLciw/AMiw4wosA8sGLiHNAiuQrwhpc/8EQcRk/MO8twjsbzsHXZas/KGUuwht31sGS
G3i/yV80ws044sHbWkRAEdQwwhxx8MGArp88zBUvwogS18FgL+8+24FKwrtY6cF2O4pAEEg4wnzk
DcKAWqw+01xAwkSS48HQVmtA2rI1wlxiA8IQKvI9sZNKwq467MH+nuBAn5AzwlfcEsJQ/uO/ybI4
wlpH38EgwuRA11cuwpLFAcJsZVrATR8xwgxz4sGwh7NAJxcrwmSK88GfXw3AQ4E3wnwH3sEQ2RK+
uvk3whdZ1cE0iKQ/2copwmVc4MEMTAJAkn8owjzE5MF8wLU+yns4wrnC6sHgaNM/3IAuwvov8cHm
tf0/RFFBwmxs6MG9w/pAbbwuwmLRC8KvUUXA

> <OMEGA_E>
CP/ZwA==

> <OMEGA_NBR>
     31098

$$$$
CACHE3HI_1695_10
  -OEChem-03092622573D

 41 43  0     1  0  0  0  0  0999 V2000
  -49.8522  -30.7422    3.9896 C   0  0  0  0  0  0  0  0  0  0  0  0
  -47.5113  -30.0800    4.2363 C   0  0  0  0  0  0  0  0  0  0  0  0
  -49.1918  -29.0739    5.6513 C   0  0  0  0  0  0  0  0  0  0  0  0
  -46.8754  -28.4289    5.8815 C   0  0  0  0  0  0  0  0  0  0  0  0
  -48.8436  -29.9595    4.6312 C   0  0  0  0  0  0  0  0  0  0  0  0
  -46.5272  -29.3145    4.8615 C   0  0  0  0  0  0  0  0  0  0  0  0
  -48.2077  -28.3084    6.2765 C   0  0  0  0  0  0  0  0  0  0  0  0
  -45.1269  -24.4517   -1.2659 C   0  0  0  0  0  0  0  0  0  0  0  0
  -44.6803  -26.3698    0.0337 C   0  0  0  0  0  0  0  0  0  0  0  0
  -45.1213  -29.4407    4.4450 C   0  0  0  0  0  0  0  0  0  0  0  0
  -45.0808  -29.7422    0.6453 C   0  0  0  0  0  0  0  0  0  0  0  0
  -44.0458  -28.7745    0.0668 C   0  0  0  0  0  0  0  0  0  0  0  0
  -45.7158  -29.3532    1.9853 C   0  0  0  0  0  0  0  0  0  0  0  0
  -43.4869  -27.2883    2.0111 C   0  0  0  0  0  0  0  0  0  0  0  0
  -43.4608  -28.5755    2.8446 C   0  0  0  0  0  0  0  0  0  0  0  0
  -45.0665  -23.2691   -2.1481 C   0  0  0  0  0  0  0  0  0  0  0  0
  -50.6713  -31.3781    3.4685 N   0  0  0  0  0  0  0  0  0  0  0  0
  -46.2121  -24.9024   -0.6729 N   0  0  0  0  0  0  0  0  0  0  0  0
  -45.9495  -26.0276    0.0888 N   0  0  0  0  0  0  0  0  0  0  0  0
  -44.1146  -27.4580    0.6957 N   0  0  3  0  0  0  0  0  0  0  0  0
  -44.7877  -29.1445    3.1114 N   0  0  0  0  0  0  0  0  0  0  0  0
  -44.3293  -29.7910    5.3195 O   0  0  0  0  0  0  0  0  0  0  0  0
  -48.5472  -27.4438    7.2717 O   0  0  0  0  0  0  0  0  0  0  0  0
  -46.2694  -22.6336   -2.3236 F   0  0  0  0  0  0  0  0  0  0  0  0
  -44.6350  -23.5628   -3.4155 F   0  0  0  0  0  0  0  0  0  0  0  0
  -44.2194  -22.2846   -1.7059 F   0  0  0  0  0  0  0  0  0  0  0  0
  -43.7043  -25.3554   -0.9466 S   0  0  0  0  0  0  0  0  0  0  0  0
  -47.2352  -30.7699    3.4411 H   0  0  0  0  0  0  0  0  0  0  0  0
  -50.2287  -28.9736    5.9655 H   0  0  0  0  0  0  0  0  0  0  0  0
  -46.1115  -27.8288    6.3709 H   0  0  0  0  0  0  0  0  0  0  0  0
  -45.8783  -29.9184   -0.1044 H   0  0  0  0  0  0  0  0  0  0  0  0
  -44.5926  -30.7287    0.7697 H   0  0  0  0  0  0  0  0  0  0  0  0
  -43.0390  -29.2003    0.1821 H   0  0  0  0  0  0  0  0  0  0  0  0
  -44.2055  -28.6816   -1.0172 H   0  0  0  0  0  0  0  0  0  0  0  0
  -46.3096  -28.4256    1.8372 H   0  0  0  0  0  0  0  0  0  0  0  0
  -46.4674  -30.1137    2.2951 H   0  0  0  0  0  0  0  0  0  0  0  0
  -44.0117  -26.4986    2.5747 H   0  0  0  0  0  0  0  0  0  0  0  0
  -42.4561  -26.9147    1.8917 H   0  0  0  0  0  0  0  0  0  0  0  0
  -42.8755  -29.3407    2.3268 H   0  0  0  0  0  0  0  0  0  0  0  0
  -42.9561  -28.3730    3.7929 H   0  0  0  0  0  0  0  0  0  0  0  0
  -49.5103  -27.4903    7.4136 H   0  0  0  0  0  0  0  0  0  0  0  0
  1  5  1  0  0  0  0
  1 17  3  0  0  0  0
  2  5  1  0  0  0  0
  2  6  2  0  0  0  0
  3  5  2  0  0  0  0
  3  7  1  0  0  0  0
  4  6  1  0  0  0  0
  4  7  2  0  0  0  0
  6 10  1  0  0  0  0
  7 23  1  0  0  0  0
  8 16  1  0  0  0  0
  8 18  2  0  0  0  0
  8 27  1  0  0  0  0
  9 19  2  0  0  0  0
  9 20  1  0  0  0  0
  9 27  1  0  0  0  0
 10 21  1  0  0  0  0
 10 22  2  0  0  0  0
 11 12  1  0  0  0  0
 11 13  1  0  0  0  0
 12 20  1  0  0  0  0
 13 21  1  0  0  0  0
 14 15  1  0  0  0  0
 14 20  1  0  0  0  0
 15 21  1  0  0  0  0
 16 24  1  0  0  0  0
 16 25  1  0  0  0  0
 16 26  1  0  0  0  0
 18 19  1  0  0  0  0
  2 28  1  0  0  0  0
  3 29  1  0  0  0  0
  4 30  1  0  0  0  0
 11 31  1  0  0  0  0
 11 32  1  0  0  0  0
 12 33  1  0  0  0  0
 12 34  1  0  0  0  0
 13 35  1  0  0  0  0
 13 36  1  0  0  0  0
 14 37  1  0  0  0  0
 14 38  1  0  0  0  0
 15 39  1  0  0  0  0
 15 40  1  0  0  0  0
 23 41  1  0  0  0  0
M  END
> <POSIT::Probability>
0.24

> <POSIT::Method>
FRED

> <ReceptorTitle>
UCSF-P4528-REFINED_LIGAND-BOUND-STATE_A__DU__LA1_A-201(A)

> <OMEGA_C>
nGhHwgrw9cEGVX9AjAs+wt2j8MF+j4dAcsREwmKX6MEs17RAXoA7wl1u48GoNbxA5F9Dwgyt78Hg
MpRA0xs6wgaE6sFckZtAqdRAwoF34sEd2chA8YE0wv+cw8GmCKK/pLgywnH10sHgFgo9NXw0wqGG
68FfPY5Ax1I0whbw7cHHLyU/7C4wwhsy5sHgwYg9A902wmvT6sHYH/4/nPItwl5O2sEktQBA0dct
wrSa5MHjDTZADEQ0wggnusGeegnAYa9KwlsG+8Ek+11AJtk4wiE4x8GAQiy/Rcw3wnw40MFg27U9
V3UwwhSq28FBGjI/lyYzwusn6cGDIUdAK1ExwvhT7sEcOapAWjBCwuiM28GDsehA4xM5woYRtcEd
tRTAPYoywoWAvMEDmFrAqeAwwt9GssH1Wdq/KdEuwvDXysEAVXK/2PA8wsUo9sHXOlxAL+pIwvLJ
58FI5b5AK3I4wnqh3sFO3stAX4M3wvpY78EAyNW9zV4ywmHU9cF5CEU/9Ccswh2a6cHofDo+dNIw
wv1z5cFcMoK/Cz05wrtn48H6J+s/pN45ws7o8MEL4xJABgwwwhv908GnyCRAB9MpwkRR18G4IvI/
h4Arwsu56sHB6RRAC9Mrwv/74sEavnJAggpGwi/s28GEPO1A

> <OMEGA_E>
fDkOwQ==

> <OMEGA_NBR>
     32410

$$$$
CACHE3HI_1695_27
  -OEChem-03092622573D

 43 45  0     1  0  0  0  0  0999 V2000
  -48.2610  -28.5576    6.1124 C   0  0  0  0  0  0  0  0  0  0  0  0
  -46.2636  -29.0182    4.4618 C   0  0  0  0  0  0  0  0  0  0  0  0
  -45.9035  -28.9191    6.7436 C   0  0  0  0  0  0  0  0  0  0  0  0
  -46.8901  -28.8083    5.7964 C   0  0  0  0  0  0  0  0  0  0  0  0
  -44.9200  -29.2623    4.6710 C   0  0  0  0  0  0  0  0  0  0  0  0
  -43.8411  -29.5862    3.7166 C   0  0  0  0  0  0  0  0  0  0  0  0
  -45.1378  -34.7682   -0.8060 C   0  0  0  0  0  0  0  0  0  0  0  0
  -44.9477  -33.5357    0.0706 C   0  0  0  0  0  0  0  0  0  0  0  0
  -45.0569  -27.7928    1.0413 C   0  0  0  0  0  0  0  0  0  0  0  0
  -42.7951  -28.6540    0.2702 C   0  0  0  0  0  0  0  0  0  0  0  0
  -44.2276  -27.5124    2.3231 C   0  0  0  0  0  0  0  0  0  0  0  0
  -42.4092  -29.1187    1.6975 C   0  0  0  0  0  0  0  0  0  0  0  0
  -44.3887  -34.3998   -2.0888 C   0  0  0  0  0  0  0  0  0  0  0  0
  -44.3359  -28.7776    0.0595 C   0  0  0  0  0  0  0  0  0  0  0  0
  -44.9740  -32.3883   -0.9548 C   0  0  1  0  0  0  0  0  0  0  0  0
  -44.1259  -31.1477   -0.5664 C   0  0  0  0  0  0  0  0  0  0  0  0
  -49.3681  -28.3559    6.4175 N   0  0  0  0  0  0  0  0  0  0  0  0
  -44.7625  -29.2000    6.0362 N   0  0  0  0  0  0  0  0  0  0  0  0
  -43.4706  -28.7292    2.6629 N   0  0  0  0  0  0  0  0  0  0  0  0
  -43.1715  -30.5858    3.9526 O   0  0  0  0  0  0  0  0  0  0  0  0
  -44.4151  -32.9499   -2.1811 O   0  0  0  0  0  0  0  0  0  0  0  0
  -44.8048  -30.1617    0.2713 O   0  0  0  0  0  0  0  0  0  0  0  0
  -46.7667  -28.9857    3.5067 H   0  0  0  0  0  0  0  0  0  0  0  0
  -46.0036  -28.8090    7.8133 H   0  0  0  0  0  0  0  0  0  0  0  0
  -44.6988  -35.6598   -0.3345 H   0  0  0  0  0  0  0  0  0  0  0  0
  -46.2038  -34.9480   -1.0089 H   0  0  0  0  0  0  0  0  0  0  0  0
  -45.7659  -33.4364    0.7990 H   0  0  0  0  0  0  0  0  0  0  0  0
  -43.9855  -33.5711    0.6025 H   0  0  0  0  0  0  0  0  0  0  0  0
  -46.0216  -28.2320    1.3351 H   0  0  0  0  0  0  0  0  0  0  0  0
  -45.2314  -26.8403    0.5195 H   0  0  0  0  0  0  0  0  0  0  0  0
  -42.4934  -27.6048    0.1360 H   0  0  0  0  0  0  0  0  0  0  0  0
  -42.2761  -29.2822   -0.4688 H   0  0  0  0  0  0  0  0  0  0  0  0
  -43.5314  -26.6806    2.1405 H   0  0  0  0  0  0  0  0  0  0  0  0
  -44.9019  -27.2509    3.1519 H   0  0  0  0  0  0  0  0  0  0  0  0
  -42.2930  -30.2125    1.7056 H   0  0  0  0  0  0  0  0  0  0  0  0
  -41.4596  -28.6469    1.9901 H   0  0  0  0  0  0  0  0  0  0  0  0
  -43.3501  -34.7584   -2.0384 H   0  0  0  0  0  0  0  0  0  0  0  0
  -44.8885  -34.8451   -2.9616 H   0  0  0  0  0  0  0  0  0  0  0  0
  -44.5689  -28.4678   -0.9700 H   0  0  0  0  0  0  0  0  0  0  0  0
  -46.0152  -32.0739   -1.1193 H   0  0  0  0  0  0  0  0  0  0  0  0
  -43.2373  -31.5008   -0.0225 H   0  0  0  0  0  0  0  0  0  0  0  0
  -43.8127  -30.6467   -1.4942 H   0  0  0  0  0  0  0  0  0  0  0  0
  -43.8793  -29.3488    6.4810 H   0  0  0  0  0  0  0  0  0  0  0  0
  1  4  1  0  0  0  0
  1 17  3  0  0  0  0
  2  4  1  0  0  0  0
  2  5  2  0  0  0  0
  3  4  2  0  0  0  0
  3 18  1  0  0  0  0
  5  6  1  0  0  0  0
  5 18  1  0  0  0  0
  6 19  1  0  0  0  0
  6 20  2  0  0  0  0
  7  8  1  0  0  0  0
  7 13  1  0  0  0  0
  8 15  1  0  0  0  0
  9 11  1  0  0  0  0
  9 14  1  0  0  0  0
 10 12  1  0  0  0  0
 10 14  1  0  0  0  0
 11 19  1  0  0  0  0
 12 19  1  0  0  0  0
 13 21  1  0  0  0  0
 14 22  1  0  0  0  0
 15 16  1  0  0  0  0
 15 21  1  0  0  0  0
 16 22  1  0  0  0  0
  2 23  1  0  0  0  0
  3 24  1  0  0  0  0
  7 25  1  0  0  0  0
  7 26  1  0  0  0  0
  8 27  1  0  0  0  0
  8 28  1  0  0  0  0
  9 29  1  0  0  0  0
  9 30  1  0  0  0  0
 10 31  1  0  0  0  0
 10 32  1  0  0  0  0
 11 33  1  0  0  0  0
 11 34  1  0  0  0  0
 12 35  1  0  0  0  0
 12 36  1  0  0  0  0
 13 37  1  0  0  0  0
 13 38  1  0  0  0  0
 14 39  1  0  0  0  0
 15 40  1  0  0  0  0
 16 41  1  0  0  0  0
 16 42  1  0  0  0  0
 18 43  1  0  0  0  0
M  END
> <POSIT::Probability>
0.51

> <POSIT::Method>
SHAPEFIT

> <ReceptorTitle>
UCSF-P4528-REFINED_LIGAND-BOUND-STATE_A__DU__LA1_A-201(A)

> <OMEGA_C>
TAtBwgd25MHvmMNA6A05wlsl6MF5x45AJZ03wjpa58Gxy9dAfI87wl135sHte7lAE64zwkUZ6sEB
eZVAPl0vwnuw7MFO3G1AEY00wpgSC8IkV06/dMozwpYkBsKAf5A9Pzo0wqFX3sH0SIU/Mi4rwnI7
5cHQVYo+GukwwmUZ3MFKrRRAEqMpwiTz6MEISdk/E44xwmGZCcI9rgXA/VcxwoI45sGAjXM9aOUz
wqONAcKQbHS/4IAwwncu+cEA/RC/+XhFwsjY4sF5XM1AyQwzwoiZ6cGXKMFA3eEtwm7V5cEqbCpA
n68swqmv9MHS93xAC6kxwqjMA8JUlwvAIDgzwiBL8cGg64o+FxE7wrLi58GLbmBApwM4wtR45sG0
BvpAi8sywpejDsIsQau+udA4wrrKC8K9I4G/URA3wta+BcJVi0w/LPEvwthIBsLBOxo/JRY4wibb
4cEB5qo/8+w0wum41sE//AQ/M/kpwo/W3MFsSws+wBopwt5B6sEMBvC+ISAuwuNx1cF5/QhAlpsz
wt4B2sGuuElA/ispwkGz8cFZUto/q9YlwsIs5cExu/4/dWYtwpUIC8JHdQLA0Y0zwmphC8KCiz3A
lEYywgi+48ElUHi/lA84wqFLAMKZQ4+/BfMswq8B/MG7Jbi8N0AvwmEs9cGUQr+/aIQvwlLK6sFN
ZM9A

> <OMEGA_E>
2MF2Pw==

> <OMEGA_NBR>
     33792

$$$$
CACHE3HI_1695_29
  -OEChem-03092622573D

 40 42  0     0  0  0  0  0  0999 V2000
  -43.5894  -28.9715   -0.5586 C   0  0  0  0  0  0  0  0  0  0  0  0
  -44.9210  -29.3762   -0.4639 C   0  0  0  0  0  0  0  0  0  0  0  0
  -42.6536  -29.4321    0.3674 C   0  0  0  0  0  0  0  0  0  0  0  0
  -44.3806  -30.7020    1.4824 C   0  0  0  0  0  0  0  0  0  0  0  0
  -45.3165  -30.2414    0.5564 C   0  0  0  0  0  0  0  0  0  0  0  0
  -43.0492  -30.2973    1.3876 C   0  0  0  0  0  0  0  0  0  0  0  0
  -50.2875  -29.2825    5.8732 C   0  0  0  0  0  0  0  0  0  0  0  0
  -48.1690  -29.0124    6.2599 C   0  0  0  0  0  0  0  0  0  0  0  0
  -46.7171  -30.6681    0.6547 C   0  0  0  0  0  0  0  0  0  0  0  0
  -49.3588  -30.2164    3.1094 C   0  0  0  0  0  0  0  0  0  0  0  0
  -47.3964  -28.6889    3.5632 C   0  0  0  0  0  0  0  0  0  0  0  0
  -49.0206  -30.1620    1.6206 C   0  0  0  0  0  0  0  0  0  0  0  0
  -47.0954  -28.6748    2.0650 C   0  0  0  0  0  0  0  0  0  0  0  0
  -48.8828  -28.9491    3.8262 C   0  0  0  0  0  0  0  0  0  0  0  0
  -40.7918  -30.2938    2.1369 C   0  0  0  0  0  0  0  0  0  0  0  0
  -50.2283  -29.3609    7.1634 N   0  0  0  0  0  0  0  0  0  0  0  0
  -48.9019  -29.1941    7.4422 N   0  0  0  0  0  0  0  0  0  0  0  0
  -49.1077  -29.0758    5.2501 N   0  0  0  0  0  0  0  0  0  0  0  0
  -47.5896  -29.8936    1.4239 N   0  0  0  0  0  0  0  0  0  0  0  0
  -46.9631  -28.8371    6.1689 O   0  0  0  0  0  0  0  0  0  0  0  0
  -47.0199  -31.6847    0.0321 O   0  0  0  0  0  0  0  0  0  0  0  0
  -42.1362  -30.7469    2.2914 O   0  0  0  0  0  0  0  0  0  0  0  0
  -43.2818  -28.2982   -1.3532 H   0  0  0  0  0  0  0  0  0  0  0  0
  -45.6421  -29.0118   -1.1911 H   0  0  0  0  0  0  0  0  0  0  0  0
  -41.6177  -29.1137    0.2891 H   0  0  0  0  0  0  0  0  0  0  0  0
  -44.6836  -31.3769    2.2796 H   0  0  0  0  0  0  0  0  0  0  0  0
  -51.1945  -29.3685    5.2613 H   0  0  0  0  0  0  0  0  0  0  0  0
  -50.4429  -30.3303    3.2283 H   0  0  0  0  0  0  0  0  0  0  0  0
  -48.8884  -31.1031    3.5539 H   0  0  0  0  0  0  0  0  0  0  0  0
  -46.7861  -29.4644    4.0443 H   0  0  0  0  0  0  0  0  0  0  0  0
  -47.0989  -27.7278    3.9993 H   0  0  0  0  0  0  0  0  0  0  0  0
  -49.3265  -31.0957    1.1423 H   0  0  0  0  0  0  0  0  0  0  0  0
  -49.5725  -29.3498    1.1325 H   0  0  0  0  0  0  0  0  0  0  0  0
  -47.5925  -27.8257    1.5813 H   0  0  0  0  0  0  0  0  0  0  0  0
  -46.0187  -28.5609    1.9032 H   0  0  0  0  0  0  0  0  0  0  0  0
  -49.4676  -28.0982    3.4976 H   0  0  0  0  0  0  0  0  0  0  0  0
  -40.1674  -30.7271    2.9226 H   0  0  0  0  0  0  0  0  0  0  0  0
  -40.4189  -30.6128    1.1607 H   0  0  0  0  0  0  0  0  0  0  0  0
  -40.7650  -29.2033    2.1957 H   0  0  0  0  0  0  0  0  0  0  0  0
  -48.5031  -29.2007    8.3723 H   0  0  0  0  0  0  0  0  0  0  0  0
  1  2  1  0  0  0  0
  1  3  2  0  0  0  0
  2  5  2  0  0  0  0
  3  6  1  0  0  0  0
  4  5  1  0  0  0  0
  4  6  2  0  0  0  0
  5  9  1  0  0  0  0
  6 22  1  0  0  0  0
  7 16  2  0  0  0  0
  7 18  1  0  0  0  0
  8 17  1  0  0  0  0
  8 18  1  0  0  0  0
  8 20  2  0  0  0  0
  9 19  1  0  0  0  0
  9 21  2  0  0  0  0
 10 12  1  0  0  0  0
 10 14  1  0  0  0  0
 11 13  1  0  0  0  0
 11 14  1  0  0  0  0
 12 19  1  0  0  0  0
 13 19  1  0  0  0  0
 14 18  1  0  0  0  0
 15 22  1  0  0  0  0
 16 17  1  0  0  0  0
  1 23  1  0  0  0  0
  2 24  1  0  0  0  0
  3 25  1  0  0  0  0
  4 26  1  0  0  0  0
  7 27  1  0  0  0  0
 10 28  1  0  0  0  0
 10 29  1  0  0  0  0
 11 30  1  0  0  0  0
 11 31  1  0  0  0  0
 12 32  1  0  0  0  0
 12 33  1  0  0  0  0
 13 34  1  0  0  0  0
 13 35  1  0  0  0  0
 14 36  1  0  0  0  0
 15 37  1  0  0  0  0
 15 38  1  0  0  0  0
 15 39  1  0  0  0  0
 17 40  1  0  0  0  0
M  END
> <POSIT::Probability>
0.05

> <POSIT::Method>
FRED

> <ReceptorTitle>
UCSF-P4528-REFINED_LIGAND-BOUND-STATE_A__DU__LA1_A-201(A)

> <OMEGA_C>
k1suwpbF58HYAQ+/D68zwl4C68HQgu2+Qp0qwt1068EwGbw+w4UxwqWd9cGdvr0/IUQ1wlzu8cEg
bQ4/VTIswtxg8sGRnbE/ZCZJwplC6sGB8btABK1AwloZ6MExUchASt46wkBY9cH4myc/bm9FwjS7
8cHEAEdA4JU9ws6C5cHeCmRAFhVEwsJL8cEDcc8/smE8wg9m5cHqKARA8IdDwquX58EQ4XRA0Coj
wqdZ8sFXwwhAyelIwiTj6sHSOuVAhptDwpaN6cGzJu5ARm5EwjSb6MGwAKhAuFs+wh8m78EfQbY/
NNo7wkyy5sGUZ8VAVRQ8wlR6/cEAoQM9cosowqL59cHXpRJAhSAtwqhi4sGQNa2/j5E2wiQY6MEQ
dpi/engmwsno6MF4B5Q+DrwywssD+8GE5BFAJ8dMwsPy6sGCXKhAk8VJwoSk8sHcm05ArY1DwiTT
+MF+c2NA/SQ7wiS368HoaoFAPGU8woTS3cEj9X9AXk5FwunD+MFrNpI/N0pGwmjM6sHG9pA/vl4+
whqb3sGBaco/GRM4ws585MF+nPM/295FwibJ4MHw119AdKsgwhHR9cGJCztA6qwhwgjn9MFikZQ/
ZQ8jwkKg6cGfhQxALQNCwh2b6cEg9QVB

> <OMEGA_E>
/D8PwQ==

> <OMEGA_NBR>
     35083

$$$$
CACHE3HI_1695_5
  -OEChem-03092622573D

 42 45  0     0  0  0  0  0  0999 V2000
  -49.5200  -29.5382    6.5007 C   0  0  0  0  0  0  0  0  0  0  0  0
  -46.9722  -22.7140   -1.8162 C   0  0  0  0  0  0  0  0  0  0  0  0
  -47.3810  -23.6662   -0.8851 C   0  0  0  0  0  0  0  0  0  0  0  0
  -45.6563  -22.7112   -2.2783 C   0  0  0  0  0  0  0  0  0  0  0  0
  -46.4776  -24.6187   -0.4128 C   0  0  0  0  0  0  0  0  0  0  0  0
  -47.2903  -29.4562    5.3425 C   0  0  0  0  0  0  0  0  0  0  0  0
  -43.4101  -23.7080   -2.2390 C   0  0  0  0  0  0  0  0  0  0  0  0
  -42.9251  -25.5179   -0.9103 C   0  0  0  0  0  0  0  0  0  0  0  0
  -48.0071  -29.8633    3.2469 C   0  0  0  0  0  0  0  0  0  0  0  0
  -48.6588  -29.6103    5.3745 C   0  0  0  0  0  0  0  0  0  0  0  0
  -44.7380  -23.6652   -1.8100 C   0  0  0  0  0  0  0  0  0  0  0  0
  -45.1490  -24.6302   -0.8678 C   0  0  0  0  0  0  0  0  0  0  0  0
  -46.8779  -29.6160    3.9965 C   0  0  0  0  0  0  0  0  0  0  0  0
  -44.2191  -25.5722   -0.4132 C   0  0  0  0  0  0  0  0  0  0  0  0
  -45.5123  -29.5393    3.4510 C   0  0  0  0  0  0  0  0  0  0  0  0
  -45.5918  -27.5404    0.2320 C   0  0  0  0  0  0  0  0  0  0  0  0
  -43.8249  -26.6486    1.7883 C   0  0  0  0  0  0  0  0  0  0  0  0
  -46.2245  -28.0649    1.5190 C   0  0  0  0  0  0  0  0  0  0  0  0
  -43.8797  -28.0626    2.3550 C   0  0  0  0  0  0  0  0  0  0  0  0
  -50.2239  -29.4792    7.4215 N   0  0  0  0  0  0  0  0  0  0  0  0
  -42.4966  -24.6093   -1.8122 N   0  0  0  0  0  0  0  0  0  0  0  0
  -49.0835  -29.8574    4.0954 N   0  0  0  0  0  0  0  0  0  0  0  0
  -44.5451  -26.5588    0.5172 N   0  0  0  0  0  0  0  0  0  0  0  0
  -45.2411  -28.5701    2.4785 N   0  0  0  0  0  0  0  0  0  0  0  0
  -44.6961  -30.3441    3.8980 O   0  0  0  0  0  0  0  0  0  0  0  0
  -47.6780  -21.9737   -2.1813 H   0  0  0  0  0  0  0  0  0  0  0  0
  -48.4064  -23.6676   -0.5262 H   0  0  0  0  0  0  0  0  0  0  0  0
  -45.3527  -21.9603   -3.0040 H   0  0  0  0  0  0  0  0  0  0  0  0
  -46.8351  -25.3458    0.3125 H   0  0  0  0  0  0  0  0  0  0  0  0
  -46.6554  -29.2517    6.1947 H   0  0  0  0  0  0  0  0  0  0  0  0
  -43.0286  -22.9937   -2.9633 H   0  0  0  0  0  0  0  0  0  0  0  0
  -42.1674  -26.2266   -0.5892 H   0  0  0  0  0  0  0  0  0  0  0  0
  -48.1444  -30.0416    2.1893 H   0  0  0  0  0  0  0  0  0  0  0  0
  -45.1661  -28.3760   -0.3379 H   0  0  0  0  0  0  0  0  0  0  0  0
  -46.3730  -27.0840   -0.3881 H   0  0  0  0  0  0  0  0  0  0  0  0
  -44.2691  -25.9409    2.4986 H   0  0  0  0  0  0  0  0  0  0  0  0
  -42.7738  -26.3600    1.6617 H   0  0  0  0  0  0  0  0  0  0  0  0
  -46.7801  -27.2631    2.0210 H   0  0  0  0  0  0  0  0  0  0  0  0
  -46.9430  -28.8539    1.2731 H   0  0  0  0  0  0  0  0  0  0  0  0
  -43.3371  -28.7558    1.7002 H   0  0  0  0  0  0  0  0  0  0  0  0
  -43.3831  -28.0915    3.3312 H   0  0  0  0  0  0  0  0  0  0  0  0
  -50.0428  -30.0103    3.8155 H   0  0  0  0  0  0  0  0  0  0  0  0
  1 10  1  0  0  0  0
  1 20  3  0  0  0  0
  2  3  1  0  0  0  0
  2  4  2  0  0  0  0
  3  5  2  0  0  0  0
  4 11  1  0  0  0  0
  5 12  1  0  0  0  0
  6 10  2  0  0  0  0
  6 13  1  0  0  0  0
  7 11  2  0  0  0  0
  7 21  1  0  0  0  0
  8 14  1  0  0  0  0
  8 21  2  0  0  0  0
  9 13  2  0  0  0  0
  9 22  1  0  0  0  0
 10 22  1  0  0  0  0
 11 12  1  0  0  0  0
 12 14  2  0  0  0  0
 13 15  1  0  0  0  0
 14 23  1  0  0  0  0
 15 24  1  0  0  0  0
 15 25  2  0  0  0  0
 16 18  1  0  0  0  0
 16 23  1  0  0  0  0
 17 19  1  0  0  0  0
 17 23  1  0  0  0  0
 18 24  1  0  0  0  0
 19 24  1  0  0  0  0
  2 26  1  0  0  0  0
  3 27  1  0  0  0  0
  4 28  1  0  0  0  0
  5 29  1  0  0  0  0
  6 30  1  0  0  0  0
  7 31  1  0  0  0  0
  8 32  1  0  0  0  0
  9 33  1  0  0  0  0
 16 34  1  0  0  0  0
 16 35  1  0  0  0  0
 17 36  1  0  0  0  0
 17 37  1  0  0  0  0
 18 38  1  0  0  0  0
 18 39  1  0  0  0  0
 19 40  1  0  0  0  0
 19 41  1  0  0  0  0
 22 42  1  0  0  0  0
M  END
> <POSIT::Probability>
0.02

> <POSIT::Method>
FRED

> <ReceptorTitle>
UCSF-P4528-REFINED_LIGAND-BOUND-STATE_A__DU__LA1_A-201(A)

> <OMEGA_C>
eRRGwj9O7MH4BdBAjeM7wkW2tcFXeui/HIY9wmdUvcHbk2K/FaA2wnawtcHgzxHACOk5wibzxMEc
V9O+Sik9wmCm68EM9qpA6qMtwgqqvcEqSw/AWrMrwpIkzMFMB2m/OgdAwhLo7sEkzU9AlKJCwuzh
7MER/KtAtvMywj5SvcEyr+e/ipg0wrgKxcGaJl6//II7wqTt7MELxn9AVuAwwsyTzMFUlNO+mQw2
wodQ7MHK3VxAA142wrlS3MHgjm0+tkwvwlww1cEA5+Q/5uU4wtyE4MEQbsI/1oQvwkSA4MHFtxZA
UuVIwmXV68EEfe1AiPwpwtXfxMEJ9ue/e1VEwu3b7sEuDYNAIy4ywm941MEIZwQ/4PY0wqSP5MEq
oB5A1sgywsbA8sF3eHlATbY+wg7Kr8FnmgvALKBBwjtXvcHotQa/Imk1wsWur8HRQUDAIFc7wk3E
ysE4+58+JZ86wowD6sHIOsZATx0swhbzt8Ewpz3AbqsowizQ0cGu0xa/1ZNAwkJV8MEzHQxAFKo0
whwC48H4Aa2+7n05wvur2MGQr8a+jRMxwuyGz8F86R9AaxgrwkPh0sFMsdQ/1x47wtoa2sESWAFA
lsU7wszU5sHc86I/M1ktws8L5sG8oNk/R4gtwni74MFaMlVA3StIwi0V8MG6MHRA

> <OMEGA_E>
iTQjwQ==

> <OMEGA_NBR>
     36416

$$$$
CACHE3HI_1695_74
  -OEChem-03092622573D

 49 51  0     1  0  0  0  0  0999 V2000
  -50.4961  -29.3658    6.0058 C   0  0  0  0  0  0  0  0  0  0  0  0
  -47.0807  -29.0430    4.5443 C   0  0  0  0  0  0  0  0  0  0  0  0
  -48.2753  -29.1776    6.9940 C   0  0  0  0  0  0  0  0  0  0  0  0
  -44.8008  -27.7608    2.2505 C   0  0  0  0  0  0  0  0  0  0  0  0
  -45.0618  -29.5926    1.0631 C   0  0  0  0  0  0  0  0  0  0  0  0
  -49.0799  -29.2380    5.8671 C   0  0  0  0  0  0  0  0  0  0  0  0
  -44.1072  -28.8758    1.7428 C   0  0  0  0  0  0  0  0  0  0  0  0
  -48.4631  -29.1687    4.6229 C   0  0  0  0  0  0  0  0  0  0  0  0
  -46.3655  -28.9912    5.7298 C   0  0  0  0  0  0  0  0  0  0  0  0
  -44.8865  -28.8598    5.7058 C   0  0  0  0  0  0  0  0  0  0  0  0
  -40.4763  -31.0829    1.8781 C   0  0  0  0  0  0  0  0  0  0  0  0
  -40.9328  -30.4921    3.2065 C   0  0  0  0  0  0  0  0  0  0  0  0
  -40.8212  -30.1450    0.7326 C   0  0  0  0  0  0  0  0  0  0  0  0
  -42.6703  -29.2049    1.9040 C   0  0  1  0  0  0  0  0  0  0  0  0
  -42.4145  -30.0871    3.1489 C   0  0  2  0  0  0  0  0  0  0  0  0
  -49.2533  -29.2263    3.3556 C   0  0  0  0  0  0  0  0  0  0  0  0
  -47.9736  -30.6173    1.1178 C   0  0  0  0  0  0  0  0  0  0  0  0
  -42.8117  -29.3932    4.4542 C   0  0  0  0  0  0  0  0  0  0  0  0
  -47.5095  -29.2485    0.6509 C   0  0  0  0  0  0  0  0  0  0  0  0
  -51.6465  -29.4695    6.1183 N   0  0  0  0  0  0  0  0  0  0  0  0
  -46.9294  -29.0556    6.9567 N   0  0  0  0  0  0  0  0  0  0  0  0
  -46.0951  -27.7646    1.9212 N   0  0  0  0  0  0  0  0  0  0  0  0
  -46.2233  -28.8908    1.1994 N   0  0  0  0  0  0  0  0  0  0  0  0
  -44.2560  -29.4187    4.6108 N   0  0  0  0  0  0  0  0  0  0  0  0
  -44.3188  -28.2976    6.6385 O   0  0  0  0  0  0  0  0  0  0  0  0
  -42.2199  -29.8715    0.7152 O   0  0  0  0  0  0  0  0  0  0  0  0
  -46.5791  -28.9878    3.5830 H   0  0  0  0  0  0  0  0  0  0  0  0
  -48.6942  -29.2251    7.9953 H   0  0  0  0  0  0  0  0  0  0  0  0
  -44.4188  -26.9438    2.8465 H   0  0  0  0  0  0  0  0  0  0  0  0
  -45.0139  -30.5189    0.5067 H   0  0  0  0  0  0  0  0  0  0  0  0
  -39.3992  -31.2789    1.8995 H   0  0  0  0  0  0  0  0  0  0  0  0
  -40.9851  -32.0428    1.7264 H   0  0  0  0  0  0  0  0  0  0  0  0
  -40.7709  -31.2223    4.0082 H   0  0  0  0  0  0  0  0  0  0  0  0
  -40.3150  -29.6160    3.4423 H   0  0  0  0  0  0  0  0  0  0  0  0
  -40.2641  -29.2035    0.8040 H   0  0  0  0  0  0  0  0  0  0  0  0
  -40.5604  -30.6117   -0.2225 H   0  0  0  0  0  0  0  0  0  0  0  0
  -42.1227  -28.2577    1.9944 H   0  0  0  0  0  0  0  0  0  0  0  0
  -43.0047  -31.0097    3.0553 H   0  0  0  0  0  0  0  0  0  0  0  0
  -49.3705  -30.2601    3.0088 H   0  0  0  0  0  0  0  0  0  0  0  0
  -48.7517  -28.6736    2.5518 H   0  0  0  0  0  0  0  0  0  0  0  0
  -50.2483  -28.7938    3.5098 H   0  0  0  0  0  0  0  0  0  0  0  0
  -47.2607  -31.3968    0.8295 H   0  0  0  0  0  0  0  0  0  0  0  0
  -48.9435  -30.8612    0.6735 H   0  0  0  0  0  0  0  0  0  0  0  0
  -48.0799  -30.6483    2.2071 H   0  0  0  0  0  0  0  0  0  0  0  0
  -42.3395  -29.9093    5.2913 H   0  0  0  0  0  0  0  0  0  0  0  0
  -42.4531  -28.3630    4.4380 H   0  0  0  0  0  0  0  0  0  0  0  0
  -48.2285  -28.4758    0.9437 H   0  0  0  0  0  0  0  0  0  0  0  0
  -47.4305  -29.2203   -0.4420 H   0  0  0  0  0  0  0  0  0  0  0  0
  -44.7800  -29.9230    3.9085 H   0  0  0  0  0  0  0  0  0  0  0  0
  1  6  1  0  0  0  0
  1 20  3  0  0  0  0
  2  8  2  0  0  0  0
  2  9  1  0  0  0  0
  3  6  2  0  0  0  0
  3 21  1  0  0  0  0
  4  7  1  0  0  0  0
  4 22  2  0  0  0  0
  5  7  2  0  0  0  0
  5 23  1  0  0  0  0
  6  8  1  0  0  0  0
  7 14  1  0  0  0  0
  8 16  1  0  0  0  0
  9 10  1  0  0  0  0
  9 21  2  0  0  0  0
 10 24  1  0  0  0  0
 10 25  2  0  0  0  0
 11 12  1  0  0  0  0
 11 13  1  0  0  0  0
 12 15  1  0  0  0  0
 13 26  1  0  0  0  0
 14 15  1  0  0  0  0
 14 26  1  0  0  0  0
 15 18  1  0  0  0  0
 17 19  1  0  0  0  0
 18 24  1  0  0  0  0
 19 23  1  0  0  0  0
 22 23  1  0  0  0  0
  2 27  1  0  0  0  0
  3 28  1  0  0  0  0
  4 29  1  0  0  0  0
  5 30  1  0  0  0  0
 11 31  1  0  0  0  0
 11 32  1  0  0  0  0
 12 33  1  0  0  0  0
 12 34  1  0  0  0  0
 13 35  1  0  0  0  0
 13 36  1  0  0  0  0
 14 37  1  0  0  0  0
 15 38  1  0  0  0  0
 16 39  1  0  0  0  0
 16 40  1  0  0  0  0
 16 41  1  0  0  0  0
 17 42  1  0  0  0  0
 17 43  1  0  0  0  0
 17 44  1  0  0  0  0
 18 45  1  0  0  0  0
 18 46  1  0  0  0  0
 19 47  1  0  0  0  0
 19 48  1  0  0  0  0
 24 49  1  0  0  0  0
M  END
> <POSIT::Probability>
0.24

> <POSIT::Method>
FRED

> <ReceptorTitle>
UCSF-P4528-REFINED_LIGAND-BOUND-STATE_A__DU__LA1_A-201(A)

> <OMEGA_C>
/PtJwh/t6sF1L8BAmlI8whBY6MGhapFA7BlBwsBr6cEZz99A/jMzwiwW3sEUCBBARz80wqq97MGo
Eog/21FEwnjn6cFZv7tAz20wwqUB58H8FN8/ONpBwplZ6cEj75NAP3Y5wgbu58HOWrdAwoszwsvg
5sHvlbZAxOchwsyp+MFQZPA/O7sjwrrv88EmN01A4Egjwuoo8cHAjDs/b64qwoqj6cFwt/M/bagp
wnOy8MEYh0lAVwNFwmzP6cFewlZA8OQ/wkHw9MEIFY8/OT8rwlwl68F0iI5Argk+wuj86cFQoiY/
A5ZOwnTB68FjycNArLc7wsdx6MGend5AbmE4wu4d3sEE6/U/quQ4wnEg58EIhZk/JAYxwoFZ68Hy
i5NAa0Yxwnxh4sH5btRAJeEowrv47sFYFjc/DFE6whrn58E2T2VA5MZCwunM6cFI2f9Az6wxwuqM
18FMLDZANA40wrIm9MEwugE/yJgdwiU7+sFkJPM/u/AjwtArAMKw+9w/WxUjwjTH+cH9QoBAh0Ih
wqLt7ME4T1xAeg4hwsCg6cEA000/zj0iwr7k9MEg02O+sn0owq8P4sEsR/8/2wQswtcT+MF+iUNA
ZHtFwsQU8sH8kEBAsgFDwnZj5cGsUCNATP5IwsNZ5sEuoGBA7go9wrMs+8FgW1Q/L8ZDwtTj9sEY
aSw/21FAwssv9cEuQQ1AmVspwj1G78E+UqlA/M8pwnbn4sGBBI5AAOpAwoLO48FgmXE/zrg9wjfD
6cGwUOK+tB4zwldi78HkJHpA

> <OMEGA_E>
V7UQwQ==

> <OMEGA_NBR>
     37892

$$$$
CACHE3HI_1695_76
  -OEChem-03092622573D

 37 39  0     0  0  0  0  0  0999 V2000
  -46.3667  -29.4415    4.1290 C   0  0  0  0  0  0  0  0  0  0  0  0
  -44.9457  -29.3960    6.0223 C   0  0  0  0  0  0  0  0  0  0  0  0
  -45.0864  -29.5186    4.6543 C   0  0  0  0  0  0  0  0  0  0  0  0
  -47.4598  -29.2395    4.9776 C   0  0  0  0  0  0  0  0  0  0  0  0
  -47.2325  -29.1437    6.3591 C   0  0  0  0  0  0  0  0  0  0  0  0
  -43.9146  -29.7233    3.7827 C   0  0  0  0  0  0  0  0  0  0  0  0
  -48.8545  -29.1759    4.4126 C   0  0  0  0  0  0  0  0  0  0  0  0
  -49.8168  -28.4897    5.3797 C   0  0  0  0  0  0  0  0  0  0  0  0
  -49.6676  -29.0688    6.7815 C   0  0  0  0  0  0  0  0  0  0  0  0
  -43.0819  -28.9072    1.5054 C   0  0  0  0  0  0  0  0  0  0  0  0
  -44.0480  -27.3777    2.6582 C   0  0  0  0  0  0  0  0  0  0  0  0
  -43.7784  -27.5726    1.1456 C   0  0  0  0  0  0  0  0  0  0  0  0
  -42.8469  -26.5285    0.5393 C   0  0  0  0  0  0  0  0  0  0  0  0
  -45.0498  -27.7491    0.3130 C   0  0  0  0  0  0  0  0  0  0  0  0
  -45.9791  -29.2121    6.8755 N   0  0  0  0  0  0  0  0  0  0  0  0
  -48.2956  -28.9550    7.2322 N   0  0  0  0  0  0  0  0  0  0  0  0
  -43.6811  -28.7733    2.8225 N   0  0  0  0  0  0  0  0  0  0  0  0
  -43.2310  -30.7305    3.9483 O   0  0  0  0  0  0  0  0  0  0  0  0
  -46.5245  -29.5405    3.0571 H   0  0  0  0  0  0  0  0  0  0  0  0
  -43.9710  -29.4400    6.4964 H   0  0  0  0  0  0  0  0  0  0  0  0
  -48.8209  -28.6211    3.4674 H   0  0  0  0  0  0  0  0  0  0  0  0
  -49.2241  -30.1851    4.1978 H   0  0  0  0  0  0  0  0  0  0  0  0
  -49.6231  -27.4109    5.3941 H   0  0  0  0  0  0  0  0  0  0  0  0
  -50.8515  -28.6233    5.0365 H   0  0  0  0  0  0  0  0  0  0  0  0
  -50.3256  -28.5394    7.4812 H   0  0  0  0  0  0  0  0  0  0  0  0
  -49.9656  -30.1227    6.7867 H   0  0  0  0  0  0  0  0  0  0  0  0
  -43.4205  -29.7900    0.9561 H   0  0  0  0  0  0  0  0  0  0  0  0
  -41.9884  -28.8906    1.5468 H   0  0  0  0  0  0  0  0  0  0  0  0
  -43.3677  -26.7044    3.1886 H   0  0  0  0  0  0  0  0  0  0  0  0
  -45.0829  -27.1532    2.9307 H   0  0  0  0  0  0  0  0  0  0  0  0
  -43.4042  -25.6203    0.3128 H   0  0  0  0  0  0  0  0  0  0  0  0
  -42.4061  -26.9130   -0.3798 H   0  0  0  0  0  0  0  0  0  0  0  0
  -42.0488  -26.2891    1.2422 H   0  0  0  0  0  0  0  0  0  0  0  0
  -45.4855  -26.7759    0.0973 H   0  0  0  0  0  0  0  0  0  0  0  0
  -45.7697  -28.3497    0.8650 H   0  0  0  0  0  0  0  0  0  0  0  0
  -44.8094  -28.2495   -0.6235 H   0  0  0  0  0  0  0  0  0  0  0  0
  -48.0983  -28.5706    8.1483 H   0  0  0  0  0  0  0  0  0  0  0  0
  1  3  1  0  0  0  0
  1  4  2  0  0  0  0
  2  3  2  0  0  0  0
  2 15  1  0  0  0  0
  3  6  1  0  0  0  0
  4  5  1  0  0  0  0
  4  7  1  0  0  0  0
  5 15  2  0  0  0  0
  5 16  1  0  0  0  0
  6 17  1  0  0  0  0
  6 18  2  0  0  0  0
  7  8  1  0  0  0  0
  8  9  1  0  0  0  0
  9 16  1  0  0  0  0
 10 12  1  0  0  0  0
 10 17  1  0  0  0  0
 11 12  1  0  0  0  0
 11 17  1  0  0  0  0
 12 13  1  0  0  0  0
 12 14  1  0  0  0  0
  1 19  1  0  0  0  0
  2 20  1  0  0  0  0
  7 21  1  0  0  0  0
  7 22  1  0  0  0  0
  8 23  1  0  0  0  0
  8 24  1  0  0  0  0
  9 25  1  0  0  0  0
  9 26  1  0  0  0  0
 10 27  1  0  0  0  0
 10 28  1  0  0  0  0
 11 29  1  0  0  0  0
 11 30  1  0  0  0  0
 13 31  1  0  0  0  0
 13 32  1  0  0  0  0
 13 33  1  0  0  0  0
 14 34  1  0  0  0  0
 14 35  1  0  0  0  0
 14 36  1  0  0  0  0
 16 37  1  0  0  0  0
M  END
> <POSIT::Probability>
0.19

> <POSIT::Method>
FRED

> <ReceptorTitle>
UCSF-P4528-REFINED_LIGAND-BOUND-STATE_A__DU__LA1_A-201(A)

> <OMEGA_C>
dXc5wkCI68G7IIRAX8gzwhUr68HGtsBAf1g0wh8m7MEu8JRAzNY9wpDq6cFMSJ9AEu48wl8m6cFw
fctAkqgvwkrJ7cEaGHJADGtDwjRo6cFDNI1AdERHwt7q48GXJqxAlatGwtaM6MGsAdlA0VMswgxC
58EJsMA/KjEwwqEF28EoICpACR0vwrqU3MFkpJI/RWMrwnY61MHMDQo//TI0wjv+3cHYQqA+o+o3
wmqy6cHZA9xAvi5Bwt+j58EUbudAdbkuwsMv5sFoozRAlOwswiTY9cF6sXxADxk6wuJS7MEuqENA
WeIvwiSF68FI4s9Ao0hDwv735MFA6V1AdeVEwh978cFyVIZADX5GwpRJ28FVnKxA6WdLwnL85MEa
K6FAYk1JwphQ5MG9Ze9AytxHwmL78MG0LNlAja4twu1R7sECxnQ/IvQnwuof58Eo/sU/engtwpqi
1cHkEUxA4FQ0wrY52cHYkDtA7Z0twmD2zMGkJ6A+5J8pwslN18GQd8K+8DEowgJQ0sGCAJ8/GvE1
wgY11sGgUsc9IhQ3wibM4sFmcV0/xzwzwgT/4cGYnh+/rmRAwrCQ5MFiXwJB

> <OMEGA_E>
IOYQwQ==

> <OMEGA_NBR>
     39121

$$$$
CACHE3HI_1695_84
  -OEChem-03092622573D

 46 48  0     1  0  0  0  0  0999 V2000
  -48.1336  -21.3925   -2.3646 C   0  0  0  0  0  0  0  0  0  0  0  0
  -48.1943  -28.8790    4.6622 C   0  0  0  0  0  0  0  0  0  0  0  0
  -46.1977  -22.8938   -2.4649 C   0  0  0  0  0  0  0  0  0  0  0  0
  -49.4540  -28.9974    5.2141 C   0  0  0  0  0  0  0  0  0  0  0  0
  -47.8809  -23.2843   -0.8303 C   0  0  0  0  0  0  0  0  0  0  0  0
  -47.4066  -22.5228   -1.8867 C   0  0  0  0  0  0  0  0  0  0  0  0
  -47.7926  -29.8425    3.7541 C   0  0  0  0  0  0  0  0  0  0  0  0
  -45.5097  -23.9989   -1.9764 C   0  0  0  0  0  0  0  0  0  0  0  0
  -48.6771  -30.8600    3.4575 C   0  0  0  0  0  0  0  0  0  0  0  0
  -46.0684  -24.6943   -0.9162 C   0  0  0  0  0  0  0  0  0  0  0  0
  -46.4465  -29.7573    3.1327 C   0  0  0  0  0  0  0  0  0  0  0  0
  -44.0472  -25.6998    0.1366 C   0  0  0  0  0  0  0  0  0  0  0  0
  -46.1252  -27.0501   -0.1355 C   0  0  0  0  0  0  0  0  0  0  0  0
  -43.2131  -26.9194   -0.2451 C   0  0  0  0  0  0  0  0  0  0  0  0
  -45.1892  -28.2314    0.2030 C   0  0  2  0  0  0  0  0  0  0  0  0
  -48.3159  -31.9354    2.4881 C   0  0  0  0  0  0  0  0  0  0  0  0
  -45.8272  -29.5375   -0.3004 C   0  0  0  0  0  0  0  0  0  0  0  0
  -44.9394  -28.3924    1.7109 C   0  0  0  0  0  0  0  0  0  0  0  0
  -48.7253  -20.4729   -2.7534 N   0  0  0  0  0  0  0  0  0  0  0  0
  -47.2403  -24.3641   -0.3287 N   0  0  0  0  0  0  0  0  0  0  0  0
  -50.2990  -30.0041    4.9057 N   0  0  0  0  0  0  0  0  0  0  0  0
  -49.9043  -30.9508    4.0130 N   0  0  0  0  0  0  0  0  0  0  0  0
  -45.3923  -25.8070   -0.4122 N   0  0  3  0  0  0  0  0  0  0  0  0
  -46.1988  -28.6126    2.3983 N   0  0  0  0  0  0  0  0  0  0  0  0
  -45.6567  -30.6859    3.2821 O   0  0  0  0  0  0  0  0  0  0  0  0
  -43.9632  -28.0992   -0.5180 O   0  0  0  0  0  0  0  0  0  0  0  0
  -44.0130  -24.4455   -2.7045 Cl  0  0  0  0  0  0  0  0  0  0  0  0
  -47.5485  -28.0521    4.9384 H   0  0  0  0  0  0  0  0  0  0  0  0
  -45.7925  -22.3198   -3.2957 H   0  0  0  0  0  0  0  0  0  0  0  0
  -49.8281  -28.2755    5.9305 H   0  0  0  0  0  0  0  0  0  0  0  0
  -48.8179  -23.0471   -0.3345 H   0  0  0  0  0  0  0  0  0  0  0  0
  -44.1077  -25.6320    1.2344 H   0  0  0  0  0  0  0  0  0  0  0  0
  -43.5430  -24.7904   -0.2243 H   0  0  0  0  0  0  0  0  0  0  0  0
  -46.7674  -27.3180   -0.9974 H   0  0  0  0  0  0  0  0  0  0  0  0
  -46.8093  -26.8627    0.7157 H   0  0  0  0  0  0  0  0  0  0  0  0
  -42.5467  -26.6931   -1.1033 H   0  0  0  0  0  0  0  0  0  0  0  0
  -42.5239  -27.1604    0.5888 H   0  0  0  0  0  0  0  0  0  0  0  0
  -47.8327  -32.7813    2.9937 H   0  0  0  0  0  0  0  0  0  0  0  0
  -47.6080  -31.5687    1.7334 H   0  0  0  0  0  0  0  0  0  0  0  0
  -49.2127  -32.3027    1.9749 H   0  0  0  0  0  0  0  0  0  0  0  0
  -45.1735  -30.3714   -0.0651 H   0  0  0  0  0  0  0  0  0  0  0  0
  -45.9690  -29.4779   -1.3750 H   0  0  0  0  0  0  0  0  0  0  0  0
  -46.7881  -29.6799    0.1859 H   0  0  0  0  0  0  0  0  0  0  0  0
  -44.2743  -29.2406    1.8703 H   0  0  0  0  0  0  0  0  0  0  0  0
  -44.4532  -27.4936    2.0893 H   0  0  0  0  0  0  0  0  0  0  0  0
  -46.9188  -27.9147    2.2644 H   0  0  0  0  0  0  0  0  0  0  0  0
  1  6  1  0  0  0  0
  1 19  3  0  0  0  0
  2  4  1  0  0  0  0
  2  7  2  0  0  0  0
  3  6  1  0  0  0  0
  3  8  2  0  0  0  0
  4 21  2  0  0  0  0
  5  6  2  0  0  0  0
  5 20  1  0  0  0  0
  7  9  1  0  0  0  0
  7 11  1  0  0  0  0
  8 10  1  0  0  0  0
  8 27  1  0  0  0  0
  9 16  1  0  0  0  0
  9 22  2  0  0  0  0
 10 20  2  0  0  0  0
 10 23  1  0  0  0  0
 11 24  1  0  0  0  0
 11 25  2  0  0  0  0
 12 14  1  0  0  0  0
 12 23  1  0  0  0  0
 13 15  1  0  0  0  0
 13 23  1  0  0  0  0
 14 26  1  0  0  0  0
 15 17  1  0  0  0  0
 15 18  1  0  0  0  0
 15 26  1  0  0  0  0
 18 24  1  0  0  0  0
 21 22  1  0  0  0  0
  2 28  1  0  0  0  0
  3 29  1  0  0  0  0
  4 30  1  0  0  0  0
  5 31  1  0  0  0  0
 12 32  1  0  0  0  0
 12 33  1  0  0  0  0
 13 34  1  0  0  0  0
 13 35  1  0  0  0  0
 14 36  1  0  0  0  0
 14 37  1  0  0  0  0
 16 38  1  0  0  0  0
 16 39  1  0  0  0  0
 16 40  1  0  0  0  0
 17 41  1  0  0  0  0
 17 42  1  0  0  0  0
 17 43  1  0  0  0  0
 18 44  1  0  0  0  0
 18 45  1  0  0  0  0
 24 46  1  0  0  0  0
M  END
> <POSIT::Probability>
0.02

> <POSIT::Method>
FRED

> <ReceptorTitle>
UCSF-P4528-REFINED_LIGAND-BOUND-STATE_A__DU__LA1_A-201(A)

> <OMEGA_C>
1IhAwsUjq8H4VRfA7MZAwiII58EEMZVAeMo4wpEmt8FuwB3A7tBFwqr658H92aZABYY/wjBGusHg
i1S/UqA9wp4utMG4gPG/pSs/woa97sFrQnBA8Qk2wrP9v8F0+fy/WbVCwi/h9sFHSF1AEUY4wtqN
xcGgiWq/Psk5wugO7sGMfkhAVDAwwkiZzcEA1Qs+NIA4wqFm2MFgvwq+N9oswvRa18Hg83q+tME0
wu3Z4cEA208+ckNBwp17/8GePB9AGk83wsJM7MHwzpm+98Ezwp0j48FoANs/u+ZCwoPIo8EwODDA
FvY8wqjpwsFAT6i+KTJJwm0I8MFR+5xADZ5Hwiab98FLaoBAu5E1wrt0zsEQEtO+k8s4wrXm5MGW
fRlAgqA2wqh89cHdDVJARNovwhvL4MGonAS/TQ0wwmCQw8H4FS3AozE+wqtq4MElB55Agys3wt6O
ssFA7VLAA1BHwj804sGaxr1AfEVDwndguMHASKu+UW4wwmgOzcHoAJ4/CSwuwrJSxsFAq2W+0xE7
wjGL2sHwVH+/vjw7wtPm1sEINjc/yS8qwmOL1cEcOo2/gxgqwoZI2cGIuRY/plQ/wgogA8IBmD9A
mG4+wsWM/MHk3t0/2tlEwvg1AcKEyPw/pLE0wrr48sFAaoW9R+A3wsPS68HI/q+/Bic7wm5w7cEA
WD4+4hgxwsXs6cG4Ze8/GdAxwvny28GatwVA0qw7wkBR38F07BBA

> <OMEGA_E>
qMkNwQ==

> <OMEGA_NBR>
     40538

$$$$
CACHE3HI_1695_86
  -OEChem-03092622573D

 38 40  0     1  0  0  0  0  0999 V2000
  -51.4322  -29.3103    7.5244 C   0  0  0  0  0  0  0  0  0  0  0  0
  -50.0843  -29.1736    5.4069 C   0  0  0  0  0  0  0  0  0  0  0  0
  -48.0754  -28.7596    6.3367 C   0  0  0  0  0  0  0  0  0  0  0  0
  -43.9999  -31.1798    1.5374 C   0  0  0  0  0  0  0  0  0  0  0  0
  -50.2398  -29.1325    6.7750 C   0  0  0  0  0  0  0  0  0  0  0  0
  -48.7149  -28.9379    5.1295 C   0  0  0  0  0  0  0  0  0  0  0  0
  -43.2362  -30.7513    0.4768 C   0  0  0  0  0  0  0  0  0  0  0  0
  -45.2473  -30.7610   -0.2464 C   0  0  0  0  0  0  0  0  0  0  0  0
  -48.0459  -28.8854    3.8048 C   0  0  0  0  0  0  0  0  0  0  0  0
  -46.4910  -30.6082   -1.0508 C   0  0  0  0  0  0  0  0  0  0  0  0
  -47.6748  -31.3498   -0.4236 C   0  0  0  0  0  0  0  0  0  0  0  0
  -46.4650  -31.6030    1.7728 C   0  0  0  0  0  0  0  0  0  0  0  0
  -47.7676  -31.1415    1.0985 C   0  0  1  0  0  0  0  0  0  0  0  0
  -48.1010  -29.6911    1.4589 C   0  0  0  0  0  0  0  0  0  0  0  0
  -41.7791  -30.5598    0.4242 C   0  0  0  0  0  0  0  0  0  0  0  0
  -52.4072  -29.4555    8.1370 N   0  0  0  0  0  0  0  0  0  0  0  0
  -44.0143  -30.4922   -0.6252 N   0  0  0  0  0  0  0  0  0  0  0  0
  -49.0125  -28.8802    7.3297 N   0  0  0  0  0  0  0  0  0  0  0  0
  -45.2760  -31.1792    1.0606 N   0  0  0  0  0  0  0  0  0  0  0  0
  -48.6487  -29.6220    2.8046 N   0  0  0  0  0  0  0  0  0  0  0  0
  -47.0162  -28.2281    3.6783 O   0  0  0  0  0  0  0  0  0  0  0  0
  -41.1225  -30.8530    1.5951 F   0  0  0  0  0  0  0  0  0  0  0  0
  -41.4089  -29.2704    0.1321 F   0  0  0  0  0  0  0  0  0  0  0  0
  -41.1426  -31.3274   -0.5216 F   0  0  0  0  0  0  0  0  0  0  0  0
  -50.8700  -29.3528    4.6848 H   0  0  0  0  0  0  0  0  0  0  0  0
  -47.0413  -28.5595    6.5810 H   0  0  0  0  0  0  0  0  0  0  0  0
  -43.7532  -31.4674    2.5501 H   0  0  0  0  0  0  0  0  0  0  0  0
  -46.7374  -29.5461   -1.1594 H   0  0  0  0  0  0  0  0  0  0  0  0
  -46.3042  -31.0022   -2.0573 H   0  0  0  0  0  0  0  0  0  0  0  0
  -48.6133  -31.0079   -0.8981 H   0  0  0  0  0  0  0  0  0  0  0  0
  -47.5923  -32.4254   -0.6595 H   0  0  0  0  0  0  0  0  0  0  0  0
  -46.3774  -31.1886    2.7871 H   0  0  0  0  0  0  0  0  0  0  0  0
  -46.4378  -32.6986    1.8470 H   0  0  0  0  0  0  0  0  0  0  0  0
  -48.5929  -31.7796    1.4748 H   0  0  0  0  0  0  0  0  0  0  0  0
  -47.1934  -29.0859    1.4004 H   0  0  0  0  0  0  0  0  0  0  0  0
  -48.8226  -29.2937    0.7414 H   0  0  0  0  0  0  0  0  0  0  0  0
  -48.8223  -28.7970    8.3191 H   0  0  0  0  0  0  0  0  0  0  0  0
  -49.4613  -30.1923    2.9921 H   0  0  0  0  0  0  0  0  0  0  0  0
  1  5  1  0  0  0  0
  1 16  3  0  0  0  0
  2  5  2  0  0  0  0
  2  6  1  0  0  0  0
  3  6  2  0  0  0  0
  3 18  1  0  0  0  0
  4  7  2  0  0  0  0
  4 19  1  0  0  0  0
  5 18  1  0  0  0  0
  6  9  1  0  0  0  0
  7 15  1  0  0  0  0
  7 17  1  0  0  0  0
  8 10  1  0  0  0  0
  8 17  2  0  0  0  0
  8 19  1  0  0  0  0
  9 20  1  0  0  0  0
  9 21  2  0  0  0  0
 10 11  1  0  0  0  0
 11 13  1  0  0  0  0
 12 13  1  0  0  0  0
 12 19  1  0  0  0  0
 13 14  1  0  0  0  0
 14 20  1  0  0  0  0
 15 22  1  0  0  0  0
 15 23  1  0  0  0  0
 15 24  1  0  0  0  0
  2 25  1  0  0  0  0
  3 26  1  0  0  0  0
  4 27  1  0  0  0  0
 10 28  1  0  0  0  0
 10 29  1  0  0  0  0
 11 30  1  0  0  0  0
 11 31  1  0  0  0  0
 12 32  1  0  0  0  0
 12 33  1  0  0  0  0
 13 34  1  0  0  0  0
 14 35  1  0  0  0  0
 14 36  1  0  0  0  0
 18 37  1  0  0  0  0
 20 38  1  0  0  0  0
M  END
> <POSIT::Probability>
0.05

> <POSIT::Method>
FRED

> <ReceptorTitle>
UCSF-P4528-REFINED_LIGAND-BOUND-STATE_A__DU__LA1_A-201(A)

> <OMEGA_C>
n7pNwnx76sEUyPBASFZIwnRj6cGIBa1AQk1AwqwT5sEnxspA3P8vwkxw+cEYysQ/jfVIwlMP6cGA
zNhAGNxCwtuA58EbJaRA2PEswrAC9sGAGfQ+Pv00wpUW9sGAUXy+9C5AwjoV58EognNAz/Y5wp/d
9MHggYa/9rI+wk/M+sFg6Ni+MNw5wt3S/MFo6+I/+hE/wtUh+cGImow/aWdAwmyH7cFAvLo/yx0n
wnZ69MHgK9k+8qBRwvCk68FTMQJBnQ4wwhrw88FQCiC/xwxEwpQK58G9jOpAlho1wulu+cE4w4c/
PZhCwuz57MHIfTNAixA8whjT4cHEaGtAZX0kwtrS9sEwLcw/sKIlwr8p6sHAOgc+DpIkwnSe+sGw
hQW/6npLwnPS6sGV6ZVASio8wsR55ME0l9JAUgMvwkS9+8HQNCNAJvM6wnBe7MEgaJS/eTc5wosE
+MFYqgPA+XNCwhoQ+MEw62W/j14+wpGzAcIg1Ci/b4I5wjuC+cGeYDJAUcA5wmDLAsJ8aew/Hl9C
wqY8/sHIxrw/CsY8wuuv6MEIQbM/YkpDwmxZ6sEAzD0/C0pDwi9g5sEsGwVBXthFwuGJ8cFAfj9A

> <OMEGA_E>
PlYCwQ==

> <OMEGA_NBR>
     41793

$$$$
CACHE3HI_1695_90
  -OEChem-03092622573D

 51 54  0     1  0  0  0  0  0999 V2000
  -42.9111  -30.7001   -1.4353 C   0  0  0  0  0  0  0  0  0  0  0  0
  -43.0671  -31.8292   -2.2458 C   0  0  0  0  0  0  0  0  0  0  0  0
  -44.5951  -31.5185    0.1076 C   0  0  0  0  0  0  0  0  0  0  0  0
  -43.6698  -30.5461   -0.2671 C   0  0  0  0  0  0  0  0  0  0  0  0
  -44.7433  -32.6352   -0.7015 C   0  0  0  0  0  0  0  0  0  0  0  0
  -43.9896  -32.7928   -1.8662 C   0  0  0  0  0  0  0  0  0  0  0  0
  -46.5714  -28.7516    5.6437 C   0  0  0  0  0  0  0  0  0  0  0  0
  -45.0647  -28.1801    4.1899 C   0  0  0  0  0  0  0  0  0  0  0  0
  -43.4904  -29.3628    0.5593 C   0  0  0  0  0  0  0  0  0  0  0  0
  -43.7821  -34.4876   -3.6814 C   0  0  0  0  0  0  0  0  0  0  0  0
  -45.6713  -33.7860   -0.4833 C   0  0  0  0  0  0  0  0  0  0  0  0
  -49.0905  -29.4447    5.4195 C   0  0  0  0  0  0  0  0  0  0  0  0
  -49.0599  -28.2056    6.2585 C   0  0  0  0  0  0  0  0  0  0  0  0
  -45.3712  -34.6757   -1.6943 C   0  0  0  0  0  0  0  0  0  0  0  0
  -47.8904  -29.1668    6.3002 C   0  0  0  0  0  0  0  0  0  0  0  0
  -44.3321  -35.8183   -4.1377 C   0  0  0  0  0  0  0  0  0  0  0  0
  -47.6576  -30.0699    2.8952 C   0  0  0  0  0  0  0  0  0  0  0  0
  -42.4418  -29.7834    2.8339 C   0  0  0  0  0  0  0  0  0  0  0  0
  -47.3757  -28.6272    3.2777 C   0  0  0  0  0  0  0  0  0  0  0  0
  -43.7181  -29.4161    2.0832 C   0  0  1  0  0  0  0  0  0  0  0  0
  -45.4459  -28.5630    6.2954 N   0  0  0  0  0  0  0  0  0  0  0  0
  -44.4871  -28.1995    5.3702 N   0  0  0  0  0  0  0  0  0  0  0  0
  -46.3773  -28.5216    4.3157 N   0  0  0  0  0  0  0  0  0  0  0  0
  -44.3303  -34.0055   -2.5010 N   0  0  0  0  0  0  0  0  0  0  0  0
  -43.1433  -28.2811    0.0385 O   0  0  0  0  0  0  0  0  0  0  0  0
  -42.9144  -33.9308   -4.3556 O   0  0  0  0  0  0  0  0  0  0  0  0
  -44.2942  -27.7766    2.6281 S   0  0  0  0  0  0  0  0  0  0  0  0
  -42.1904  -29.9383   -1.7247 H   0  0  0  0  0  0  0  0  0  0  0  0
  -42.4649  -31.9155   -3.1417 H   0  0  0  0  0  0  0  0  0  0  0  0
  -45.1888  -31.4101    1.0103 H   0  0  0  0  0  0  0  0  0  0  0  0
  -45.4400  -34.3018    0.4536 H   0  0  0  0  0  0  0  0  0  0  0  0
  -46.7137  -33.4533   -0.4848 H   0  0  0  0  0  0  0  0  0  0  0  0
  -49.7630  -30.2400    5.7185 H   0  0  0  0  0  0  0  0  0  0  0  0
  -48.9831  -29.3308    4.3476 H   0  0  0  0  0  0  0  0  0  0  0  0
  -48.9320  -27.2572    5.7508 H   0  0  0  0  0  0  0  0  0  0  0  0
  -49.7121  -28.1639    7.1224 H   0  0  0  0  0  0  0  0  0  0  0  0
  -45.0060  -35.6614   -1.3849 H   0  0  0  0  0  0  0  0  0  0  0  0
  -46.2637  -34.8229   -2.3126 H   0  0  0  0  0  0  0  0  0  0  0  0
  -47.7898  -29.7754    7.1951 H   0  0  0  0  0  0  0  0  0  0  0  0
  -45.1880  -35.6439   -4.7800 H   0  0  0  0  0  0  0  0  0  0  0  0
  -44.6297  -36.3945   -3.2688 H   0  0  0  0  0  0  0  0  0  0  0  0
  -43.5599  -36.3506   -4.6818 H   0  0  0  0  0  0  0  0  0  0  0  0
  -46.7512  -30.5690    2.5368 H   0  0  0  0  0  0  0  0  0  0  0  0
  -48.4073  -30.1120    2.0990 H   0  0  0  0  0  0  0  0  0  0  0  0
  -48.0362  -30.6389    3.7505 H   0  0  0  0  0  0  0  0  0  0  0  0
  -41.6420  -29.0608    2.6370 H   0  0  0  0  0  0  0  0  0  0  0  0
  -42.0836  -30.7681    2.5127 H   0  0  0  0  0  0  0  0  0  0  0  0
  -42.5967  -29.8367    3.9183 H   0  0  0  0  0  0  0  0  0  0  0  0
  -48.2877  -28.1367    3.6347 H   0  0  0  0  0  0  0  0  0  0  0  0
  -47.0214  -28.0603    2.4090 H   0  0  0  0  0  0  0  0  0  0  0  0
  -44.4745  -30.1695    2.3185 H   0  0  0  0  0  0  0  0  0  0  0  0
  1  2  2  0  0  0  0
  1  4  1  0  0  0  0
  2  6  1  0  0  0  0
  3  4  2  0  0  0  0
  3  5  1  0  0  0  0
  4  9  1  0  0  0  0
  5  6  2  0  0  0  0
  5 11  1  0  0  0  0
  6 24  1  0  0  0  0
  7 15  1  0  0  0  0
  7 21  2  0  0  0  0
  7 23  1  0  0  0  0
  8 22  2  0  0  0  0
  8 23  1  0  0  0  0
  8 27  1  0  0  0  0
  9 20  1  0  0  0  0
  9 25  2  0  0  0  0
 10 16  1  0  0  0  0
 10 24  1  0  0  0  0
 10 26  2  0  0  0  0
 11 14  1  0  0  0  0
 12 13  1  0  0  0  0
 12 15  1  0  0  0  0
 13 15  1  0  0  0  0
 14 24  1  0  0  0  0
 17 19  1  0  0  0  0
 18 20  1  0  0  0  0
 19 23  1  0  0  0  0
 20 27  1  0  0  0  0
 21 22  1  0  0  0  0
  1 28  1  0  0  0  0
  2 29  1  0  0  0  0
  3 30  1  0  0  0  0
 11 31  1  0  0  0  0
 11 32  1  0  0  0  0
 12 33  1  0  0  0  0
 12 34  1  0  0  0  0
 13 35  1  0  0  0  0
 13 36  1  0  0  0  0
 14 37  1  0  0  0  0
 14 38  1  0  0  0  0
 15 39  1  0  0  0  0
 16 40  1  0  0  0  0
 16 41  1  0  0  0  0
 16 42  1  0  0  0  0
 17 43  1  0  0  0  0
 17 44  1  0  0  0  0
 17 45  1  0  0  0  0
 18 46  1  0  0  0  0
 18 47  1  0  0  0  0
 18 48  1  0  0  0  0
 19 49  1  0  0  0  0
 19 50  1  0  0  0  0
 20 51  1  0  0  0  0
M  END
> <POSIT::Probability>
0.23

> <POSIT::Method>
HYBRID

> <ReceptorTitle>
UCSF-P4528-REFINED_LIGAND-BOUND-STATE_A__DU__LA1_A-201(A)

> <OMEGA_C>
8KQrwr6Z9cFEt7e/ukQswiOi/sG5ug/AWWEywusl/MHAUdw95K0uwlJe9MGgvYi+KvkywnuKAsI0
mDO/W/UvwswrA8Ic3+6/Jkk6wloD5sH7mLRATEI0wuJw4cHIE4ZAKfYtwg3n6sH8Lg8/5SAvwljz
CcKnm2vAaK82wtMkB8Iob/e+q1xEwsyO68HBbK1ASz1EwiCl4cEJRshAFHw1wumzCsI63di/yI8/
wqlV6cHzmslAE1QxwuhFD8I/aITAZKE+wimP8MFqSjlAYcQpwl1E7sFsXzVAuIA9wpQE5cHjxVFA
Td8uwhNU68HEUgVAmMg1wgKB5MFNdMlA0PIxwn6Y4cFz2KtAYII5wkMs5MHQGYpAMlIxwqQFCMI0
ECDAxZIswr0/4sFAkR09Xqgrwi+5B8LZYIvAPC0xwmA23sESMihA9MIowqaB78EIwty/FdwpwgtT
/8FtEUnAUsE0wvZH+8FGUYE/m8I1wgI1CcIAQeg+2No6wjXQBcKYPPi+Tg1Hwobr8cHa/bZAue5D
wmml6sGUH4tAXLpDwroO2sFCBrhAMNlGwrhP4cGi6uNAJAY0wj6lDsIzRbG/+w05wptKC8LvARTA
yyg/wu4z7sHcPeZAjsA0wliTDsKU9ZjAy4QywvSTEcLqM1HAVj0uwgxnEcJi0ZXAQgE7wjaN9MEI
WyJAHaFBwlHl8MGqVQZADCVAwowc9cEBCXBAc5EmwoR86MGOxChAkVUowiAl9sHczyBAEmMqwo6x
7sE1xnpAmSZBwvIX4cHsnmhA9BU8wm174MGiLRpA2OUxwglb8cHxYRRA

> <OMEGA_E>
Esq5wA==

> <OMEGA_NBR>
     43313

$$$$
CACHE3HI_1695_97
  -OEChem-03092622573D

 36 38  0     1  0  0  0  0  0999 V2000
  -45.3916  -32.6726    0.9686 C   0  0  0  0  0  0  0  0  0  0  0  0
  -44.7467  -32.2157   -1.3119 C   0  0  0  0  0  0  0  0  0  0  0  0
  -45.1740  -34.0470    0.7239 C   0  0  0  0  0  0  0  0  0  0  0  0
  -44.5303  -33.6043   -1.4863 C   0  0  0  0  0  0  0  0  0  0  0  0
  -45.1747  -31.7296   -0.0569 C   0  0  0  0  0  0  0  0  0  0  0  0
  -45.4218  -28.9759    6.6565 C   0  0  0  0  0  0  0  0  0  0  0  0
  -46.7645  -29.0430    6.3645 C   0  0  0  0  0  0  0  0  0  0  0  0
  -44.4285  -29.2247    5.5911 C   0  0  0  0  0  0  0  0  0  0  0  0
  -44.8338  -29.5027    4.2941 C   0  0  0  0  0  0  0  0  0  0  0  0
  -47.1792  -29.3606    4.9859 C   0  0  0  0  0  0  0  0  0  0  0  0
  -43.8024  -29.8692    3.2847 C   0  0  0  0  0  0  0  0  0  0  0  0
  -43.3090  -29.4411   -0.3751 C   0  0  0  0  0  0  0  0  0  0  0  0
  -42.7015  -29.7539    0.9956 C   0  0  0  0  0  0  0  0  0  0  0  0
  -44.7232  -28.5272    1.2731 C   0  0  0  0  0  0  0  0  0  0  0  0
  -44.8024  -29.2464   -0.0813 C   0  0  2  0  0  0  0  0  0  0  0  0
  -44.7521  -34.4909   -0.4841 N   0  0  0  0  0  0  0  0  0  0  0  0
  -46.2079  -29.5668    4.0007 N   0  0  0  0  0  0  0  0  0  0  0  0
  -43.7036  -29.3076    1.9991 N   0  0  0  0  0  0  0  0  0  0  0  0
  -48.3696  -29.4491    4.7132 O   0  0  0  0  0  0  0  0  0  0  0  0
  -42.9711  -30.7093    3.6114 O   0  0  0  0  0  0  0  0  0  0  0  0
  -45.6578  -30.4351    0.1277 O   0  0  0  0  0  0  0  0  0  0  0  0
  -45.7245  -32.3440    1.9421 H   0  0  0  0  0  0  0  0  0  0  0  0
  -44.5855  -31.5331   -2.1331 H   0  0  0  0  0  0  0  0  0  0  0  0
  -45.3478  -34.7590    1.5172 H   0  0  0  0  0  0  0  0  0  0  0  0
  -44.1798  -33.9665   -2.4415 H   0  0  0  0  0  0  0  0  0  0  0  0
  -45.0954  -28.7425    7.6592 H   0  0  0  0  0  0  0  0  0  0  0  0
  -47.5027  -28.8660    7.1326 H   0  0  0  0  0  0  0  0  0  0  0  0
  -43.3748  -29.1896    5.8251 H   0  0  0  0  0  0  0  0  0  0  0  0
  -42.8706  -28.5249   -0.7976 H   0  0  0  0  0  0  0  0  0  0  0  0
  -43.1532  -30.2775   -1.0724 H   0  0  0  0  0  0  0  0  0  0  0  0
  -42.5165  -30.8337    1.0942 H   0  0  0  0  0  0  0  0  0  0  0  0
  -41.7569  -29.2064    1.1289 H   0  0  0  0  0  0  0  0  0  0  0  0
  -44.4067  -27.4812    1.1481 H   0  0  0  0  0  0  0  0  0  0  0  0
  -45.6911  -28.5577    1.7949 H   0  0  0  0  0  0  0  0  0  0  0  0
  -45.2465  -28.5774   -0.8332 H   0  0  0  0  0  0  0  0  0  0  0  0
  -46.4977  -29.7647    3.0643 H   0  0  0  0  0  0  0  0  0  0  0  0
  1  3  2  0  0  0  0
  1  5  1  0  0  0  0
  2  4  1  0  0  0  0
  2  5  2  0  0  0  0
  3 16  1  0  0  0  0
  4 16  2  0  0  0  0
  5 21  1  0  0  0  0
  6  7  2  0  0  0  0
  6  8  1  0  0  0  0
  7 10  1  0  0  0  0
  8  9  2  0  0  0  0
  9 11  1  0  0  0  0
  9 17  1  0  0  0  0
 10 17  1  0  0  0  0
 10 19  2  0  0  0  0
 11 18  1  0  0  0  0
 11 20  2  0  0  0  0
 12 13  1  0  0  0  0
 12 15  1  0  0  0  0
 13 18  1  0  0  0  0
 14 15  1  0  0  0  0
 14 18  1  0  0  0  0
 15 21  1  0  0  0  0
  1 22  1  0  0  0  0
  2 23  1  0  0  0  0
  3 24  1  0  0  0  0
  4 25  1  0  0  0  0
  6 26  1  0  0  0  0
  7 27  1  0  0  0  0
  8 28  1  0  0  0  0
 12 29  1  0  0  0  0
 12 30  1  0  0  0  0
 13 31  1  0  0  0  0
 13 32  1  0  0  0  0
 14 33  1  0  0  0  0
 14 34  1  0  0  0  0
 15 35  1  0  0  0  0
 17 36  1  0  0  0  0
M  END
> <POSIT::Probability>
0.25

> <POSIT::Method>
SHAPEFIT

> <ReceptorTitle>
UCSF-P4528-REFINED_LIGAND-BOUND-STATE_A__DU__LA1_A-201(A)

> <OMEGA_C>
BpE1wrywAsJw+Hc/mvwywuXcAMIA66e/LLI0wiUwCMIAVDk/BB8ywsVqBsIwPr6/2rI0wiPW/cEA
92i99K81wpnO58EOAtVA1A47wiJY6MGmqctA0rYxwiLM6cFy6rJA1lUzwp8F7MH+aIlAdLc8wm7i
6sHGjJ9AsjUvwgr07sGMOFJAcjwtwk6H68EgE8C+XM4qwgAI7sFw3H4/kOQywsU35MGY86I/tDUz
wpj46cEAeaa9HgIzwqf2CcJg2Pe+2tQ4wsiI7MGOBYBAcNAuwuF16sEI5P8/eHpBwrqX68Gq0pZA
bOIrwq+s9cF0IGdAmKE2wgN788FAuAI+3uU2wkdgAcLzlvg/j1cywrVD/MFZhAjALmQ1wi4JC8KK
NMI/HbgwwqbdB8LXQBzAuWE0wrbw5cE1GPVAyQI+wpft5sFnPuRAxH8twkmE6cE1Z7pAh3srwg0z
5MGxMUy/1pwswjk48sFrRIm/7hAqwoCr9sGJD4w/BAcnwqSm6cFcgZA/eaAxwnTZ28F59pI/qMM2
whR25MEuv+U/afw0wpue5MH0SlW/ov05wh4e7sFEHURA

> <OMEGA_E>
fpacPw==

> <OMEGA_NBR>
     44554

$$$$
CACHE3HI_1695_98
  -OEChem-03092622573D

 48 50  0     1  0  0  0  0  0999 V2000
  -43.1660  -31.2355   -0.8266 C   0  0  0  0  0  0  0  0  0  0  0  0
  -43.1133  -32.3077   -1.7173 C   0  0  0  0  0  0  0  0  0  0  0  0
  -45.2139  -32.1137    0.1075 C   0  0  0  0  0  0  0  0  0  0  0  0
  -44.2165  -31.1386    0.0857 C   0  0  0  0  0  0  0  0  0  0  0  0
  -44.1106  -33.2828   -1.6956 C   0  0  0  0  0  0  0  0  0  0  0  0
  -45.1612  -33.1858   -0.7832 C   0  0  0  0  0  0  0  0  0  0  0  0
  -47.4843  -28.5633    6.1859 C   0  0  0  0  0  0  0  0  0  0  0  0
  -46.5574  -28.8453    4.2318 C   0  0  0  0  0  0  0  0  0  0  0  0
  -44.2728  -29.9911    1.0376 C   0  0  0  0  0  0  0  0  0  0  0  0
  -48.5145  -28.3168    7.2254 C   0  0  0  0  0  0  0  0  0  0  0  0
  -49.6461  -29.3427    7.1880 C   0  0  0  0  0  0  0  0  0  0  0  0
  -50.6408  -29.1323    6.0423 C   0  0  0  0  0  0  0  0  0  0  0  0
  -50.0801  -29.3915    4.6421 C   0  0  0  0  0  0  0  0  0  0  0  0
  -49.0216  -28.3832    4.2035 C   0  0  0  0  0  0  0  0  0  0  0  0
  -43.9178  -29.9000    3.5199 C   0  0  0  0  0  0  0  0  0  0  0  0
  -43.3422  -35.4897   -2.1389 C   0  0  0  0  0  0  0  0  0  0  0  0
  -47.1788  -33.9589    0.2111 C   0  0  0  0  0  0  0  0  0  0  0  0
  -44.9213  -30.1717    2.4033 C   0  0  1  0  0  0  0  0  0  0  0  0
  -46.1998  -28.7947    6.3738 N   0  0  0  0  0  0  0  0  0  0  0  0
  -45.6142  -28.9733    5.1370 N   0  0  0  0  0  0  0  0  0  0  0  0
  -47.7434  -28.5864    4.8439 N   0  0  0  0  0  0  0  0  0  0  0  0
  -43.7847  -28.9146    0.6924 O   0  0  0  0  0  0  0  0  0  0  0  0
  -44.0462  -34.3260   -2.5693 O   0  0  0  0  0  0  0  0  0  0  0  0
  -46.1404  -34.1320   -0.7517 O   0  0  0  0  0  0  0  0  0  0  0  0
  -46.3107  -28.9916    2.5287 S   0  0  0  0  0  0  0  0  0  0  0  0
  -42.3832  -30.4815   -0.8521 H   0  0  0  0  0  0  0  0  0  0  0  0
  -42.2919  -32.3787   -2.4253 H   0  0  0  0  0  0  0  0  0  0  0  0
  -46.0343  -32.0408    0.8175 H   0  0  0  0  0  0  0  0  0  0  0  0
  -48.0305  -28.3694    8.2085 H   0  0  0  0  0  0  0  0  0  0  0  0
  -48.9114  -27.2996    7.1273 H   0  0  0  0  0  0  0  0  0  0  0  0
  -49.2425  -30.3623    7.1476 H   0  0  0  0  0  0  0  0  0  0  0  0
  -50.2048  -29.2642    8.1291 H   0  0  0  0  0  0  0  0  0  0  0  0
  -51.4833  -29.8175    6.1991 H   0  0  0  0  0  0  0  0  0  0  0  0
  -51.0552  -28.1179    6.0937 H   0  0  0  0  0  0  0  0  0  0  0  0
  -49.6850  -30.4132    4.5822 H   0  0  0  0  0  0  0  0  0  0  0  0
  -50.9170  -29.3342    3.9350 H   0  0  0  0  0  0  0  0  0  0  0  0
  -48.9059  -28.4472    3.1190 H   0  0  0  0  0  0  0  0  0  0  0  0
  -49.3362  -27.3572    4.4284 H   0  0  0  0  0  0  0  0  0  0  0  0
  -43.5081  -28.8862    3.4490 H   0  0  0  0  0  0  0  0  0  0  0  0
  -43.0779  -30.6010    3.4530 H   0  0  0  0  0  0  0  0  0  0  0  0
  -44.3594  -30.0229    4.5162 H   0  0  0  0  0  0  0  0  0  0  0  0
  -43.3665  -36.2447   -2.9289 H   0  0  0  0  0  0  0  0  0  0  0  0
  -42.3047  -35.2199   -1.9275 H   0  0  0  0  0  0  0  0  0  0  0  0
  -43.8061  -35.8821   -1.2310 H   0  0  0  0  0  0  0  0  0  0  0  0
  -47.8937  -34.7818    0.1297 H   0  0  0  0  0  0  0  0  0  0  0  0
  -46.7397  -33.9583    1.2116 H   0  0  0  0  0  0  0  0  0  0  0  0
  -47.6831  -33.0057    0.0368 H   0  0  0  0  0  0  0  0  0  0  0  0
  -45.2924  -31.1925    2.5273 H   0  0  0  0  0  0  0  0  0  0  0  0
  1  2  2  0  0  0  0
  1  4  1  0  0  0  0
  2  5  1  0  0  0  0
  3  4  2  0  0  0  0
  3  6  1  0  0  0  0
  4  9  1  0  0  0  0
  5  6  2  0  0  0  0
  5 23  1  0  0  0  0
  6 24  1  0  0  0  0
  7 10  1  0  0  0  0
  7 19  2  0  0  0  0
  7 21  1  0  0  0  0
  8 20  2  0  0  0  0
  8 21  1  0  0  0  0
  8 25  1  0  0  0  0
  9 18  1  0  0  0  0
  9 22  2  0  0  0  0
 10 11  1  0  0  0  0
 11 12  1  0  0  0  0
 12 13  1  0  0  0  0
 13 14  1  0  0  0  0
 14 21  1  0  0  0  0
 15 18  1  0  0  0  0
 16 23  1  0  0  0  0
 17 24  1  0  0  0  0
 18 25  1  0  0  0  0
 19 20  1  0  0  0  0
  1 26  1  0  0  0  0
  2 27  1  0  0  0  0
  3 28  1  0  0  0  0
 10 29  1  0  0  0  0
 10 30  1  0  0  0  0
 11 31  1  0  0  0  0
 11 32  1  0  0  0  0
 12 33  1  0  0  0  0
 12 34  1  0  0  0  0
 13 35  1  0  0  0  0
 13 36  1  0  0  0  0
 14 37  1  0  0  0  0
 14 38  1  0  0  0  0
 15 39  1  0  0  0  0
 15 40  1  0  0  0  0
 15 41  1  0  0  0  0
 16 42  1  0  0  0  0
 16 43  1  0  0  0  0
 16 44  1  0  0  0  0
 17 45  1  0  0  0  0
 17 46  1  0  0  0  0
 17 47  1  0  0  0  0
 18 48  1  0  0  0  0
M  END
> <POSIT::Probability>
0.18

> <POSIT::Method>
HYBRID

> <ReceptorTitle>
UCSF-P4528-REFINED_LIGAND-BOUND-STATE_A__DU__LA1_A-201(A)

> <OMEGA_C>
+qkswmDi+cH5nFO/+HMswhc7AcJ80du/Bds0wmh0AMIIGtw9v90wwssb+cFwka89P3EwwpohBcLu
CNm/DqU0wki+BMLFf0i/5+89wpqB5MEp88VAvjo6whPD5sEMa4dAUBcxwr3t78H0zoQ/5g5CwsiI
4sGiNudAopVGwtK96sEKBOZAK5BKwvoO6cG2WsFAAlJIws8h68FQjJRAHhZEwuEQ48H2goZA0asv
wisz78GERWFAcl4twmv1DcIK4wjAFbc8wu/VB8I4LFg+bK8zwo5f8cEs0BlAjcw4woVb5sFh9stA
7HQ2wkXJ58EaYqRAPvk+wu+w5ME4AZtAgyMvwjBR58GyQjE/Ty8wwthNCcIHbyTAzY84wjSHCMLv
bkC/JD45wuXu58Gt1iFAZ4gpwi3a88EBJlq/7Sopwr6DAcKLNxvAJiM4wsApAMK4SlE/RR9AwoT0
4sHvVQNBUaVDwp9l2sG4EuRATvhEwv/l8sE4ueRAvtFIwigd6sHsEAJB7+5Nwk6K7sHyXsZAjThM
wmzx4MH+/8JAeb1GwiNO88FSoZJAAKtLwnCs6sFv13tApp9DwtOT48FunUdAUFhFwpbb2sF8tY1A
WAguwgcX58EGvVxAxU8swsLO9MF6/VxA/28xwtgu8MG9hJBAVnctwp/6EMKNcjvABTgpwijhDMIm
ufa/cDkvwj2HD8JUkJ2/I5M/wpQgC8Kg2gQ+Z/U6wkPVB8LkFps/i7s+wtIFBMJgsRY9Yis1wiqK
+cFuvyFA

> <OMEGA_E>
jPG2wA==

> <OMEGA_NBR>
     46011

$$$$
CACHE3HI_1697_10
  -OEChem-03092622573D

 55 59  0     1  0  0  0  0  0999 V2000
  -48.5468  -21.4023   -2.2999 C   0  0  0  0  0  0  0  0  0  0  0  0
  -48.4648  -22.7634   -2.0059 C   0  0  0  0  0  0  0  0  0  0  0  0
  -47.3822  -20.6612   -2.4997 C   0  0  0  0  0  0  0  0  0  0  0  0
  -44.3886  -31.2393    0.1260 C   0  0  0  0  0  0  0  0  0  0  0  0
  -47.2187  -23.3833   -1.9120 C   0  0  0  0  0  0  0  0  0  0  0  0
  -46.1360  -21.2811   -2.4058 C   0  0  0  0  0  0  0  0  0  0  0  0
  -43.7009  -30.1436    0.6477 C   0  0  0  0  0  0  0  0  0  0  0  0
  -45.6389  -31.0600   -0.4657 C   0  0  0  0  0  0  0  0  0  0  0  0
  -49.9148  -29.4661    6.3068 C   0  0  0  0  0  0  0  0  0  0  0  0
  -45.5133  -28.6895   -0.0143 C   0  0  0  0  0  0  0  0  0  0  0  0
  -51.1989  -29.2754    5.7748 C   0  0  0  0  0  0  0  0  0  0  0  0
  -42.7605  -23.8945   -2.0905 C   0  0  0  0  0  0  0  0  0  0  0  0
  -46.0541  -22.6421   -2.1118 C   0  0  0  0  0  0  0  0  0  0  0  0
  -44.2630  -28.8688    0.5775 C   0  0  0  0  0  0  0  0  0  0  0  0
  -46.2010  -29.7852   -0.5359 C   0  0  0  0  0  0  0  0  0  0  0  0
  -49.0665  -29.1064    5.2884 C   0  0  0  0  0  0  0  0  0  0  0  0
  -43.4545  -24.8446   -1.3833 C   0  0  0  0  0  0  0  0  0  0  0  0
  -44.7708  -23.2808   -2.0148 C   0  0  0  0  0  0  0  0  0  0  0  0
  -47.6510  -29.0536    5.1349 C   0  0  0  0  0  0  0  0  0  0  0  0
  -47.9764  -28.2415    2.8503 C   0  0  0  0  0  0  0  0  0  0  0  0
  -49.3099  -28.2924    2.9958 C   0  0  0  0  0  0  0  0  0  0  0  0
  -47.1306  -28.6377    3.9637 C   0  0  0  0  0  0  0  0  0  0  0  0
  -43.0534  -26.1146   -0.7263 C   0  0  0  0  0  0  0  0  0  0  0  0
  -45.6712  -28.5944    3.8408 C   0  0  0  0  0  0  0  0  0  0  0  0
  -43.8382  -27.4244    2.6262 C   0  0  0  0  0  0  0  0  0  0  0  0
  -43.5137  -27.6761    1.1460 C   0  0  2  0  0  0  0  0  0  0  0  0
  -43.6090  -22.8950   -2.4928 N   0  0  0  0  0  0  0  0  0  0  0  0
  -51.1855  -28.8307    4.5182 N   0  0  0  0  0  0  0  0  0  0  0  0
  -49.8655  -28.7217    4.2064 N   0  0  0  0  0  0  0  0  0  0  0  0
  -43.8005  -26.4623    0.3733 N   0  0  0  0  0  0  0  0  0  0  0  0
  -45.2339  -27.6544    2.9239 N   0  0  0  0  0  0  0  0  0  0  0  0
  -42.1008  -26.7472   -1.1743 O   0  0  0  0  0  0  0  0  0  0  0  0
  -44.9572  -29.3413    4.5089 O   0  0  0  0  0  0  0  0  0  0  0  0
  -44.7587  -24.4562   -1.3282 O   0  0  0  0  0  0  0  0  0  0  0  0
  -47.7434  -29.5647   -1.2670 Cl  0  0  0  0  0  0  0  0  0  0  0  0
  -49.5167  -20.9192   -2.3723 H   0  0  0  0  0  0  0  0  0  0  0  0
  -49.3715  -23.3409   -1.8512 H   0  0  0  0  0  0  0  0  0  0  0  0
  -47.4463  -19.6013   -2.7280 H   0  0  0  0  0  0  0  0  0  0  0  0
  -43.9502  -32.2314    0.1810 H   0  0  0  0  0  0  0  0  0  0  0  0
  -47.1716  -24.4450   -1.6814 H   0  0  0  0  0  0  0  0  0  0  0  0
  -45.2377  -20.6891   -2.5648 H   0  0  0  0  0  0  0  0  0  0  0  0
  -42.7273  -30.2929    1.1067 H   0  0  0  0  0  0  0  0  0  0  0  0
  -46.1635  -31.9227   -0.8680 H   0  0  0  0  0  0  0  0  0  0  0  0
  -49.6423  -29.8157    7.2921 H   0  0  0  0  0  0  0  0  0  0  0  0
  -45.9484  -27.6938   -0.0656 H   0  0  0  0  0  0  0  0  0  0  0  0
  -52.1525  -29.4439    6.2542 H   0  0  0  0  0  0  0  0  0  0  0  0
  -41.7076  -23.8743   -2.3313 H   0  0  0  0  0  0  0  0  0  0  0  0
  -47.0242  -29.3510    5.9698 H   0  0  0  0  0  0  0  0  0  0  0  0
  -47.5246  -27.9121    1.9220 H   0  0  0  0  0  0  0  0  0  0  0  0
  -49.9963  -28.0115    2.2063 H   0  0  0  0  0  0  0  0  0  0  0  0
  -43.2696  -28.1074    3.2685 H   0  0  0  0  0  0  0  0  0  0  0  0
  -43.6016  -26.4010    2.9384 H   0  0  0  0  0  0  0  0  0  0  0  0
  -42.4352  -27.8643    1.0649 H   0  0  0  0  0  0  0  0  0  0  0  0
  -44.5305  -25.8737    0.7339 H   0  0  0  0  0  0  0  0  0  0  0  0
  -45.9149  -27.0960    2.4174 H   0  0  0  0  0  0  0  0  0  0  0  0
  1  2  1  0  0  0  0
  1  3  2  0  0  0  0
  2  5  2  0  0  0  0
  3  6  1  0  0  0  0
  4  7  2  0  0  0  0
  4  8  1  0  0  0  0
  5 13  1  0  0  0  0
  6 13  2  0  0  0  0
  7 14  1  0  0  0  0
  8 15  2  0  0  0  0
  9 11  1  0  0  0  0
  9 16  2  0  0  0  0
 10 14  2  0  0  0  0
 10 15  1  0  0  0  0
 11 28  2  0  0  0  0
 12 17  2  0  0  0  0
 12 27  1  0  0  0  0
 13 18  1  0  0  0  0
 14 26  1  0  0  0  0
 15 35  1  0  0  0  0
 16 19  1  0  0  0  0
 16 29  1  0  0  0  0
 17 23  1  0  0  0  0
 17 34  1  0  0  0  0
 18 27  2  0  0  0  0
 18 34  1  0  0  0  0
 19 22  2  0  0  0  0
 20 21  2  0  0  0  0
 20 22  1  0  0  0  0
 21 29  1  0  0  0  0
 22 24  1  0  0  0  0
 23 30  1  0  0  0  0
 23 32  2  0  0  0  0
 24 31  1  0  0  0  0
 24 33  2  0  0  0  0
 25 26  1  0  0  0  0
 25 31  1  0  0  0  0
 26 30  1  0  0  0  0
 28 29  1  0  0  0  0
  1 36  1  0  0  0  0
  2 37  1  0  0  0  0
  3 38  1  0  0  0  0
  4 39  1  0  0  0  0
  5 40  1  0  0  0  0
  6 41  1  0  0  0  0
  7 42  1  0  0  0  0
  8 43  1  0  0  0  0
  9 44  1  0  0  0  0
 10 45  1  0  0  0  0
 11 46  1  0  0  0  0
 12 47  1  0  0  0  0
 19 48  1  0  0  0  0
 20 49  1  0  0  0  0
 21 50  1  0  0  0  0
 25 51  1  0  0  0  0
 25 52  1  0  0  0  0
 26 53  1  0  0  0  0
 30 54  1  0  0  0  0
 31 55  1  0  0  0  0
M  END
> <POSIT::Probability>
0.05

> <POSIT::Method>
FRED

> <ReceptorTitle>
UCSF-P4528-REFINED_LIGAND-BOUND-STATE_A__DU__LA1_A-201(A)

> <OMEGA_C>
5C9Cwtg3q8GiMRPA+ttBwl0btsEOYQDAWYc9whJKpcEd+x/A8o0xwibq+cGgDgE+7t88wv8Qu8FE
vfS/TYs4wrU/qsGz+BnAsc0uwiEm8cEgzyU/N442wtB6+MGAbO6+uqhHwoy668Gr0clAqg02whqE
5cEA3Gm8p8tMwvwz6sFPy7hAuQorwvYnv8EzygXAWjc4wh0jtcFNKAfAWA0xwmfz5sE41BM/3M04
whNI7sEoMQm/F0REwvPZ6MHgOqlAYNEtwtfBxsHADrG/TRUzwv0+usGk8gDAnJo+wr5t6MFYUaRA
zuc/wqru4cF8azZAUD1FwsZW4sG2uj9Aw4U8whYa5cGcrH1AszYswsjq0MG08Dm/TK82wmTB5ME8
0HVATlovwjxl28HaEyhADA4uwrZo3cFAsJI/pW8uwuUot8GliR/A/L1Mwk+l5sHXlJBASHZHwhvG
5cGWmoZAsDMvwr6y08GwHr8+jO80wjI83cEcITtAPmcowlv61cHeUJa/MNQzwva66sEASZBA8wgz
wkemw8EoAqq/Nfk+woyE7MHuLaK/JRFGwopap8HN0xfAY3xFwi+6usGw9Oy/Csk9wonPnMG3ly7A
+cwvwursAMJgWzk+uq88wkqPw8GGN9e/ZvM0wkiDpcHgJSTAtugqwuBX8sHgp40/bKc4wqZh/8GA
Ml6/tJFGwniG7sHmWOlAIMs3wvWM3cGARIa9JpxQwi6N68FjIshAmNQmwqv+vsElNBXAxBg8wtXO
6sHSCL9ANhk+whJM38EQA/Y/OvxHwoUX4MECNA1AFhQtwvnb4MFiLlFA/2cuwlY108GUDjxAn70p
wh/q3sEcUIg/OR8ywlb9zsF44js/1ag3woLE2MF0txpA

> <OMEGA_E>
tKUSwQ==

> <OMEGA_NBR>
     47610

$$$$
CACHE3HI_1697_21
  -OEChem-03092622573D

 56 60  0     0  0  0  0  0  0999 V2000
  -53.0372  -29.4064    7.6965 C   0  0  0  0  0  0  0  0  0  0  0  0
  -53.3136  -30.2272    6.6031 C   0  0  0  0  0  0  0  0  0  0  0  0
  -51.7611  -28.8670    7.8580 C   0  0  0  0  0  0  0  0  0  0  0  0
  -52.3143  -30.5083    5.6712 C   0  0  0  0  0  0  0  0  0  0  0  0
  -50.7618  -29.1481    6.9262 C   0  0  0  0  0  0  0  0  0  0  0  0
  -48.7931  -30.9051    3.2832 C   0  0  0  0  0  0  0  0  0  0  0  0
  -45.0242  -22.6208   -2.1311 C   0  0  0  0  0  0  0  0  0  0  0  0
  -51.0381  -29.9688    5.8327 C   0  0  0  0  0  0  0  0  0  0  0  0
  -45.1939  -23.9503   -1.8236 C   0  0  0  0  0  0  0  0  0  0  0  0
  -48.0229  -30.1071    4.0923 C   0  0  0  0  0  0  0  0  0  0  0  0
  -50.0091  -30.2587    4.8730 C   0  0  0  0  0  0  0  0  0  0  0  0
  -47.1690  -23.1876   -2.1149 C   0  0  0  0  0  0  0  0  0  0  0  0
  -48.0122  -20.5841   -2.7818 C   0  0  0  0  0  0  0  0  0  0  0  0
  -48.9672  -21.6622   -2.5782 C   0  0  0  0  0  0  0  0  0  0  0  0
  -46.6999  -20.8381   -2.6487 C   0  0  0  0  0  0  0  0  0  0  0  0
  -48.5539  -22.9012   -2.2599 C   0  0  0  0  0  0  0  0  0  0  0  0
  -44.1146  -24.9275   -1.5308 C   0  0  0  0  0  0  0  0  0  0  0  0
  -46.6053  -29.6689    4.0322 C   0  0  0  0  0  0  0  0  0  0  0  0
  -42.8131  -28.6726    1.1264 C   0  0  0  0  0  0  0  0  0  0  0  0
  -44.6410  -27.5916    1.4337 C   0  0  0  0  0  0  0  0  0  0  0  0
  -44.2649  -29.0918    1.4569 C   0  0  0  0  0  0  0  0  0  0  0  0
  -43.3656  -27.3235    0.5868 C   0  0  0  0  0  0  0  0  0  0  0  0
  -44.4755  -29.8210    2.7686 C   0  0  0  0  0  0  0  0  0  0  0  0
  -43.6013  -27.2762   -0.9180 C   0  0  0  0  0  0  0  0  0  0  0  0
  -50.0647  -30.9988    3.7885 N   0  0  0  0  0  0  0  0  0  0  0  0
  -46.5223  -24.2953   -1.8152 N   0  0  0  0  0  0  0  0  0  0  0  0
  -46.2890  -22.1277   -2.3188 N   0  0  0  0  0  0  0  0  0  0  0  0
  -44.5363  -26.2111   -1.2483 N   0  0  0  0  0  0  0  0  0  0  0  0
  -45.8857  -30.1423    2.9557 N   0  0  0  0  0  0  0  0  0  0  0  0
  -42.9459  -24.5501   -1.5360 O   0  0  0  0  0  0  0  0  0  0  0  0
  -46.1611  -28.9502    4.9236 O   0  0  0  0  0  0  0  0  0  0  0  0
  -48.8018  -29.6826    5.1258 O   0  0  0  0  0  0  0  0  0  0  0  0
  -42.6170  -26.1575    0.9916 O   0  0  0  0  0  0  0  0  0  0  0  0
  -49.4402  -23.8991   -2.0718 F   0  0  0  0  0  0  0  0  0  0  0  0
  -53.8148  -29.1880    8.4226 H   0  0  0  0  0  0  0  0  0  0  0  0
  -54.3073  -30.6466    6.4765 H   0  0  0  0  0  0  0  0  0  0  0  0
  -51.5461  -28.2284    8.7098 H   0  0  0  0  0  0  0  0  0  0  0  0
  -52.5454  -31.1505    4.8246 H   0  0  0  0  0  0  0  0  0  0  0  0
  -49.7723  -28.7192    7.0665 H   0  0  0  0  0  0  0  0  0  0  0  0
  -48.5063  -31.4136    2.3743 H   0  0  0  0  0  0  0  0  0  0  0  0
  -44.1434  -22.0008   -2.2300 H   0  0  0  0  0  0  0  0  0  0  0  0
  -48.3808  -19.5981   -3.0370 H   0  0  0  0  0  0  0  0  0  0  0  0
  -50.0215  -21.4362   -2.6909 H   0  0  0  0  0  0  0  0  0  0  0  0
  -45.9374  -20.0813   -2.7867 H   0  0  0  0  0  0  0  0  0  0  0  0
  -42.1625  -28.5603    2.0024 H   0  0  0  0  0  0  0  0  0  0  0  0
  -42.3024  -29.3100    0.3981 H   0  0  0  0  0  0  0  0  0  0  0  0
  -45.5953  -27.3618    0.9503 H   0  0  0  0  0  0  0  0  0  0  0  0
  -44.6248  -27.1039    2.4159 H   0  0  0  0  0  0  0  0  0  0  0  0
  -44.7313  -29.6444    0.6292 H   0  0  0  0  0  0  0  0  0  0  0  0
  -43.8912  -30.7484    2.7779 H   0  0  0  0  0  0  0  0  0  0  0  0
  -44.1281  -29.2010    3.6033 H   0  0  0  0  0  0  0  0  0  0  0  0
  -42.6515  -27.1005   -1.4300 H   0  0  0  0  0  0  0  0  0  0  0  0
  -43.9972  -28.2369   -1.2579 H   0  0  0  0  0  0  0  0  0  0  0  0
  -45.5185  -26.4411   -1.1991 H   0  0  0  0  0  0  0  0  0  0  0  0
  -46.2922  -30.7817    2.2899 H   0  0  0  0  0  0  0  0  0  0  0  0
  -42.6544  -26.1490    1.9554 H   0  0  0  0  0  0  0  0  0  0  0  0
  1  2  1  0  0  0  0
  1  3  2  0  0  0  0
  2  4  2  0  0  0  0
  3  5  1  0  0  0  0
  4  8  1  0  0  0  0
  5  8  2  0  0  0  0
  6 10  2  0  0  0  0
  6 25  1  0  0  0  0
  7  9  2  0  0  0  0
  7 27  1  0  0  0  0
  8 11  1  0  0  0  0
  9 17  1  0  0  0  0
  9 26  1  0  0  0  0
 10 18  1  0  0  0  0
 10 32  1  0  0  0  0
 11 25  2  0  0  0  0
 11 32  1  0  0  0  0
 12 16  1  0  0  0  0
 12 26  2  0  0  0  0
 12 27  1  0  0  0  0
 13 14  1  0  0  0  0
 13 15  2  0  0  0  0
 14 16  2  0  0  0  0
 15 27  1  0  0  0  0
 16 34  1  0  0  0  0
 17 28  1  0  0  0  0
 17 30  2  0  0  0  0
 18 29  1  0  0  0  0
 18 31  2  0  0  0  0
 19 21  1  0  0  0  0
 19 22  1  0  0  0  0
 20 21  1  0  0  0  0
 20 22  1  0  0  0  0
 21 23  1  0  0  0  0
 22 24  1  0  0  0  0
 22 33  1  0  0  0  0
 23 29  1  0  0  0  0
 24 28  1  0  0  0  0
  1 35  1  0  0  0  0
  2 36  1  0  0  0  0
  3 37  1  0  0  0  0
  4 38  1  0  0  0  0
  5 39  1  0  0  0  0
  6 40  1  0  0  0  0
  7 41  1  0  0  0  0
 13 42  1  0  0  0  0
 14 43  1  0  0  0  0
 15 44  1  0  0  0  0
 19 45  1  0  0  0  0
 19 46  1  0  0  0  0
 20 47  1  0  0  0  0
 20 48  1  0  0  0  0
 21 49  1  0  0  0  0
 23 50  1  0  0  0  0
 23 51  1  0  0  0  0
 24 52  1  0  0  0  0
 24 53  1  0  0  0  0
 28 54  1  0  0  0  0
 29 55  1  0  0  0  0
 33 56  1  0  0  0  0
M  END
> <POSIT::Probability>
0.05

> <POSIT::Method>
FRED

> <ReceptorTitle>
UCSF-P4528-REFINED_LIGAND-BOUND-STATE_A__DU__LA1_A-201(A)

> <OMEGA_C>
GCZUwlNA68H8SfZAGEFVwkjR8cFjTNNAYgtPwpvv5sEFdftA0UFRwvwQ9MF7erVAGwxLwk8v6cEa
o91AKSxDwp0998GgIFJAxBg0wmD3tMHuYwjAECdMwjTA78G9pbpAjcY0wlCav8FcbOm/gBdAwk/b
8MEF9IJATwlIwtgR8sH775tACa08wkqAucEQWwfAgQxAwiispMFKCTLAXd5DwjJMrcHsASXAvMw6
wnW0psGQhCnAKDdCwpI1t8G0ohDAYXUwwmtrx8EI8sO/2ms6wuBZ7cEICIFAmUArwm1h5cHELZA/
W5AywqS73MFyg7c/Og8xwhm86MFwfLo/ZnYtwnKW2sEEOhY/9OYxwmKR7sGMMTFAsGcuwqo12sHc
AGu/QEJIwor998E2d3JA1hY6wshcwsEIV+i/5ic5wpIFscFeZxTAOCUywk+w0cGOx5+/+oo3wocj
8cEPKj1AnMgrwpJmxMFcmsS/96Q4wg2a58ELjp1AFDVDwg527cHjBqRAx3cqwoRC0cGA2X0/t8JF
wk4xv8E6mATAT0JXwhGB6cHmwgZBuTpZwj8s9cGyP89APC9Owt3T4cFiWwtBei5SwkE0+cFVY5pA
1BZHwgDB5cF8IOJAawZCwvdO+8E/9RdA3pIwwqsBsMHWtw7A+YVBws/InMHcXkLABhZIwkp9q8Hk
NyzA5L83wnGmoMGEWTLAaaYownV75MGCJwBArDUpwst66sEQ1Ms+omE2whDl2sG0Q3M/2H8yws/U
2MHwnRpA2OwywqYn7cFMECE/o5Avwr789cExyTFAMoMwwqSb6cHLnGZAHpsqwt7N2MGMC7e/Hv0v
wi3l4cEGA6G/+xI2wmCH08Hwe5m/NSs5wuBA9sFljRJAJJ4qwjox0cGqSvo/

> <OMEGA_E>
N7EOwQ==

> <OMEGA_NBR>
     49225

$$$$
CACHE3HI_1697_39
  -OEChem-03092622573D

 54 58  0     1  0  0  0  0  0999 V2000
  -49.0713  -21.8277   -1.5122 C   0  0  0  0  0  0  0  0  0  0  0  0
  -48.3171  -21.4162   -2.6111 C   0  0  0  0  0  0  0  0  0  0  0  0
  -48.5830  -22.8222   -0.6649 C   0  0  0  0  0  0  0  0  0  0  0  0
  -47.0747  -21.9988   -2.8625 C   0  0  0  0  0  0  0  0  0  0  0  0
  -47.3406  -23.4048   -0.9163 C   0  0  0  0  0  0  0  0  0  0  0  0
  -44.5920  -29.1493   -0.2811 C   0  0  0  0  0  0  0  0  0  0  0  0
  -44.9193  -30.4228   -0.7466 C   0  0  0  0  0  0  0  0  0  0  0  0
  -42.7805  -31.2513    0.0131 C   0  0  0  0  0  0  0  0  0  0  0  0
  -43.4251  -24.2181   -2.9755 C   0  0  0  0  0  0  0  0  0  0  0  0
  -49.4343  -28.7488    5.3942 C   0  0  0  0  0  0  0  0  0  0  0  0
  -46.5864  -22.9933   -2.0151 C   0  0  0  0  0  0  0  0  0  0  0  0
  -43.3589  -28.9269    0.3317 C   0  0  0  0  0  0  0  0  0  0  0  0
  -44.0136  -31.4737   -0.5997 C   0  0  0  0  0  0  0  0  0  0  0  0
  -42.4533  -29.9778    0.4786 C   0  0  0  0  0  0  0  0  0  0  0  0
  -43.7086  -24.9504   -1.8495 C   0  0  0  0  0  0  0  0  0  0  0  0
  -45.3070  -23.5933   -2.2743 C   0  0  0  0  0  0  0  0  0  0  0  0
  -48.9091  -30.2460    3.8908 C   0  0  0  0  0  0  0  0  0  0  0  0
  -48.0293  -30.9051    2.9878 C   0  0  0  0  0  0  0  0  0  0  0  0
  -46.7529  -30.4857    2.8807 C   0  0  0  0  0  0  0  0  0  0  0  0
  -47.0824  -28.7413    4.5270 C   0  0  0  0  0  0  0  0  0  0  0  0
  -46.2552  -29.3681    3.6723 C   0  0  0  0  0  0  0  0  0  0  0  0
  -42.9717  -26.0114   -1.1170 C   0  0  0  0  0  0  0  0  0  0  0  0
  -44.8722  -28.9073    3.5609 C   0  0  0  0  0  0  0  0  0  0  0  0
  -43.4263  -27.3164    2.2979 C   0  0  0  0  0  0  0  0  0  0  0  0
  -43.0047  -27.5392    0.8376 C   0  0  2  0  0  0  0  0  0  0  0  0
  -44.4529  -23.3504   -3.2430 N   0  0  0  0  0  0  0  0  0  0  0  0
  -50.5037  -29.4746    5.1581 N   0  0  0  0  0  0  0  0  0  0  0  0
  -50.1749  -30.4204    4.2081 N   0  0  0  0  0  0  0  0  0  0  0  0
  -48.3953  -29.1883    4.6244 N   0  0  0  0  0  0  0  0  0  0  0  0
  -43.6129  -26.5044   -0.0062 N   0  0  0  0  0  0  0  0  0  0  0  0
  -44.7016  -27.9287    2.5953 N   0  0  0  0  0  0  0  0  0  0  0  0
  -41.8649  -26.3602   -1.5190 O   0  0  0  0  0  0  0  0  0  0  0  0
  -43.9859  -29.3756    4.2772 O   0  0  0  0  0  0  0  0  0  0  0  0
  -44.9264  -24.5529   -1.3870 O   0  0  0  0  0  0  0  0  0  0  0  0
  -44.3291  -32.6963   -1.0467 F   0  0  0  0  0  0  0  0  0  0  0  0
  -41.2660  -29.7732    1.0660 F   0  0  0  0  0  0  0  0  0  0  0  0
  -50.0388  -21.3749   -1.3167 H   0  0  0  0  0  0  0  0  0  0  0  0
  -48.6966  -20.6412   -3.2705 H   0  0  0  0  0  0  0  0  0  0  0  0
  -49.1707  -23.1427    0.1903 H   0  0  0  0  0  0  0  0  0  0  0  0
  -46.4992  -21.6675   -3.7236 H   0  0  0  0  0  0  0  0  0  0  0  0
  -46.9741  -24.1785   -0.2457 H   0  0  0  0  0  0  0  0  0  0  0  0
  -45.3042  -28.3371   -0.3996 H   0  0  0  0  0  0  0  0  0  0  0  0
  -45.8796  -30.5966   -1.2230 H   0  0  0  0  0  0  0  0  0  0  0  0
  -42.0756  -32.0692    0.1278 H   0  0  0  0  0  0  0  0  0  0  0  0
  -42.5475  -24.2669   -3.6035 H   0  0  0  0  0  0  0  0  0  0  0  0
  -49.3574  -27.9229    6.0872 H   0  0  0  0  0  0  0  0  0  0  0  0
  -48.3948  -31.7370    2.3964 H   0  0  0  0  0  0  0  0  0  0  0  0
  -46.0711  -30.9794    2.1961 H   0  0  0  0  0  0  0  0  0  0  0  0
  -46.7921  -27.9039    5.1507 H   0  0  0  0  0  0  0  0  0  0  0  0
  -42.7000  -27.7687    2.9836 H   0  0  0  0  0  0  0  0  0  0  0  0
  -43.5064  -26.2537    2.5529 H   0  0  0  0  0  0  0  0  0  0  0  0
  -41.9164  -27.4076    0.7775 H   0  0  0  0  0  0  0  0  0  0  0  0
  -44.4918  -26.1371    0.3132 H   0  0  0  0  0  0  0  0  0  0  0  0
  -45.5025  -27.6211    2.0513 H   0  0  0  0  0  0  0  0  0  0  0  0
  1  2  1  0  0  0  0
  1  3  2  0  0  0  0
  2  4  2  0  0  0  0
  3  5  1  0  0  0  0
  4 11  1  0  0  0  0
  5 11  2  0  0  0  0
  6  7  2  0  0  0  0
  6 12  1  0  0  0  0
  7 13  1  0  0  0  0
  8 13  2  0  0  0  0
  8 14  1  0  0  0  0
  9 15  2  0  0  0  0
  9 26  1  0  0  0  0
 10 27  2  0  0  0  0
 10 29  1  0  0  0  0
 11 16  1  0  0  0  0
 12 14  2  0  0  0  0
 12 25  1  0  0  0  0
 13 35  1  0  0  0  0
 14 36  1  0  0  0  0
 15 22  1  0  0  0  0
 15 34  1  0  0  0  0
 16 26  2  0  0  0  0
 16 34  1  0  0  0  0
 17 18  1  0  0  0  0
 17 28  2  0  0  0  0
 17 29  1  0  0  0  0
 18 19  2  0  0  0  0
 19 21  1  0  0  0  0
 20 21  2  0  0  0  0
 20 29  1  0  0  0  0
 21 23  1  0  0  0  0
 22 30  1  0  0  0  0
 22 32  2  0  0  0  0
 23 31  1  0  0  0  0
 23 33  2  0  0  0  0
 24 25  1  0  0  0  0
 24 31  1  0  0  0  0
 25 30  1  0  0  0  0
 27 28  1  0  0  0  0
  1 37  1  0  0  0  0
  2 38  1  0  0  0  0
  3 39  1  0  0  0  0
  4 40  1  0  0  0  0
  5 41  1  0  0  0  0
  6 42  1  0  0  0  0
  7 43  1  0  0  0  0
  8 44  1  0  0  0  0
  9 45  1  0  0  0  0
 10 46  1  0  0  0  0
 18 47  1  0  0  0  0
 19 48  1  0  0  0  0
 20 49  1  0  0  0  0
 24 50  1  0  0  0  0
 24 51  1  0  0  0  0
 25 52  1  0  0  0  0
 30 53  1  0  0  0  0
 31 54  1  0  0  0  0
M  END
> <POSIT::Probability>
0.24

> <POSIT::Method>
FRED

> <ReceptorTitle>
UCSF-P4528-REFINED_LIGAND-BOUND-STATE_A__DU__LA1_A-201(A)

> <OMEGA_C>
A0lEwhmfrsEokMG/r0RBwl5Uq8H8GyfA9FRCws+TtsEYNiq/h0w8woD9r8GpMjfAzFw9wvA8u8Go
kGq/NF4ywsQx6cHQ5o++Vq0zwvlh88FgHz+/Ox8rwpYC+sEAMFY8R7Mtwru+wcEebz7AvbxFwov9
5cERnaxAeFg6wkjyt8FS9wDAgm8twlZq58EA0ak++Q0wwhfK+8EYhRm/JNApwnXS78GwBfU+ktUu
wn6ax8FMvey/azo1wiS/vMHejhHA4KJDwuT38cGbA3lA9B1Awqk998HFNz9AAAM7wrDi88GiXThA
YFQ8wkTu5cFe3ZBAXwU5wtPx6sE8BmtABOMrwmQX0MGQ+Y6/J30zwhdC58E65mNAkbQtwgOI2sFK
EBNAzgQswkBQ3MEocFY/xM8xworNusEgjk/A1gNKwubL68HVDqVAD7NIwu9c88EjqYZAzpRBwpiB
6cFy+5NApHMuwgsJ1MEA8Mq7aM4ywvdt38G5GSZApnUnwsDh0sEscMK/ivEvwkoB68Gc3ohAnbQz
wnFsxMG4h7G/91AxwgPJAsLc+oW/ZxAlwmwv7sHAc4g/yCdIwrf/qsHAiai/VclCwi0hpcEpUFHA
zq5EwkkkucFw1EI+NP85whlXrcEnUG7AgeU7wqZtwcGAj3u+ijc1wnSy4sEQlMy+v4Q3wuXF9MGM
i5y/d00owt5GAMJg1QI+nTAqwqMiwsHfn2bABm5FwgJi38EDysJASZRBwmTl/cEtXxlAxEg4wsLV
98EfjQxAFis7wjU738GX0qRA1cwqwjwm3sGP8j5AkwYuwpwH0sGKYiNAbKonwtFC28FcDUc/ofcx
ws8Y0cGoYKA+jwI2whD43MGzSANA

> <OMEGA_E>
ouIiwQ==

> <OMEGA_NBR>
     50803

$$$$
CACHE3HI_1697_43
  -OEChem-03092622573D

 64 67  0     1  0  0  0  0  0999 V2000
  -50.8953  -30.1521    3.4236 C   0  0  0  0  0  0  0  0  0  0  0  0
  -43.4792  -36.3234   -1.1374 C   0  0  0  0  0  0  0  0  0  0  0  0
  -49.5595  -29.8648    3.7041 C   0  0  0  0  0  0  0  0  0  0  0  0
  -44.2965  -35.6188   -0.2534 C   0  0  0  0  0  0  0  0  0  0  0  0
  -43.3837  -35.9209   -2.4694 C   0  0  0  0  0  0  0  0  0  0  0  0
  -51.8593  -30.0305    4.4243 C   0  0  0  0  0  0  0  0  0  0  0  0
  -46.9542  -28.6694    4.2894 C   0  0  0  0  0  0  0  0  0  0  0  0
  -50.1517  -29.3342    5.9857 C   0  0  0  0  0  0  0  0  0  0  0  0
  -44.9222  -34.1095   -2.0333 C   0  0  0  0  0  0  0  0  0  0  0  0
  -47.2828  -29.3520    6.5440 C   0  0  0  0  0  0  0  0  0  0  0  0
  -45.2027  -28.6203    5.8976 C   0  0  0  0  0  0  0  0  0  0  0  0
  -49.1877  -29.4558    4.9849 C   0  0  0  0  0  0  0  0  0  0  0  0
  -47.8047  -29.1584    5.2747 C   0  0  0  0  0  0  0  0  0  0  0  0
  -45.6272  -28.3927    4.5984 C   0  0  0  0  0  0  0  0  0  0  0  0
  -45.0178  -34.5119   -0.7012 C   0  0  0  0  0  0  0  0  0  0  0  0
  -44.1050  -34.8140   -2.9172 C   0  0  0  0  0  0  0  0  0  0  0  0
  -51.4875  -29.6215    5.7051 C   0  0  0  0  0  0  0  0  0  0  0  0
  -44.7044  -27.8743    3.5809 C   0  0  0  0  0  0  0  0  0  0  0  0
  -45.1333  -32.6493    0.9760 C   0  0  0  0  0  0  0  0  0  0  0  0
  -44.2088  -29.3082   -0.3412 C   0  0  0  0  0  0  0  0  0  0  0  0
  -45.5367  -29.4929    1.7968 C   0  0  0  0  0  0  0  0  0  0  0  0
  -44.5543  -27.3068    1.1778 C   0  0  0  0  0  0  0  0  0  0  0  0
  -44.6082  -30.2222    0.8243 C   0  0  1  0  0  0  0  0  0  0  0  0
  -43.6368  -27.9765    0.1549 C   0  0  1  0  0  0  0  0  0  0  0  0
  -43.1569  -35.1856   -5.0667 C   0  0  0  0  0  0  0  0  0  0  0  0
  -47.5937  -34.1322    1.8429 C   0  0  0  0  0  0  0  0  0  0  0  0
  -45.9023  -33.7491    0.2565 C   0  0  2  0  0  0  0  0  0  0  0  0
  -45.9992  -29.0944    6.8815 N   0  0  0  0  0  0  0  0  0  0  0  0
  -44.9188  -28.2383    2.2487 N   0  0  0  0  0  0  0  0  0  0  0  0
  -45.2324  -31.4253    0.3297 N   0  0  0  0  0  0  0  0  0  0  0  0
  -43.7923  -27.1579    3.9910 O   0  0  0  0  0  0  0  0  0  0  0  0
  -44.5175  -32.8498    2.0207 O   0  0  0  0  0  0  0  0  0  0  0  0
  -42.3630  -28.1880    0.7610 O   0  0  0  0  0  0  0  0  0  0  0  0
  -44.0110  -34.4209   -4.2169 O   0  0  0  0  0  0  0  0  0  0  0  0
  -46.4322  -34.6555    1.2120 O   0  0  0  0  0  0  0  0  0  0  0  0
  -52.4138  -29.5046    6.6654 F   0  0  0  0  0  0  0  0  0  0  0  0
  -51.1852  -30.4705    2.4266 H   0  0  0  0  0  0  0  0  0  0  0  0
  -42.9179  -37.1851   -0.7887 H   0  0  0  0  0  0  0  0  0  0  0  0
  -48.8193  -29.9634    2.9134 H   0  0  0  0  0  0  0  0  0  0  0  0
  -44.3653  -35.9391    0.7829 H   0  0  0  0  0  0  0  0  0  0  0  0
  -42.7454  -36.4735   -3.1535 H   0  0  0  0  0  0  0  0  0  0  0  0
  -52.8992  -30.2545    4.2061 H   0  0  0  0  0  0  0  0  0  0  0  0
  -47.3214  -28.5023    3.2791 H   0  0  0  0  0  0  0  0  0  0  0  0
  -49.8783  -29.0168    6.9890 H   0  0  0  0  0  0  0  0  0  0  0  0
  -45.4832  -33.2472   -2.3858 H   0  0  0  0  0  0  0  0  0  0  0  0
  -47.8942  -29.7309    7.3582 H   0  0  0  0  0  0  0  0  0  0  0  0
  -44.1781  -28.4238    6.1991 H   0  0  0  0  0  0  0  0  0  0  0  0
  -43.4646  -29.8202   -0.9637 H   0  0  0  0  0  0  0  0  0  0  0  0
  -45.0863  -29.1051   -0.9687 H   0  0  0  0  0  0  0  0  0  0  0  0
  -46.4831  -29.2245    1.3106 H   0  0  0  0  0  0  0  0  0  0  0  0
  -45.7779  -30.1437    2.6417 H   0  0  0  0  0  0  0  0  0  0  0  0
  -44.0683  -26.4221    1.6021 H   0  0  0  0  0  0  0  0  0  0  0  0
  -45.4867  -26.9833    0.7006 H   0  0  0  0  0  0  0  0  0  0  0  0
  -43.7084  -30.5464    1.3613 H   0  0  0  0  0  0  0  0  0  0  0  0
  -43.4838  -27.3039   -0.6958 H   0  0  0  0  0  0  0  0  0  0  0  0
  -43.1734  -34.7651   -6.0755 H   0  0  0  0  0  0  0  0  0  0  0  0
  -42.1377  -35.1466   -4.6747 H   0  0  0  0  0  0  0  0  0  0  0  0
  -43.4970  -36.2235   -5.0876 H   0  0  0  0  0  0  0  0  0  0  0  0
  -47.9722  -34.8556    2.5698 H   0  0  0  0  0  0  0  0  0  0  0  0
  -47.3315  -33.2048    2.3578 H   0  0  0  0  0  0  0  0  0  0  0  0
  -48.3564  -33.9243    1.0890 H   0  0  0  0  0  0  0  0  0  0  0  0
  -46.7523  -33.3049   -0.2746 H   0  0  0  0  0  0  0  0  0  0  0  0
  -45.7694  -31.3740   -0.5317 H   0  0  0  0  0  0  0  0  0  0  0  0
  -41.7935  -28.5720    0.0771 H   0  0  0  0  0  0  0  0  0  0  0  0
  1  3  2  0  0  0  0
  1  6  1  0  0  0  0
  2  4  1  0  0  0  0
  2  5  2  0  0  0  0
  3 12  1  0  0  0  0
  4 15  2  0  0  0  0
  5 16  1  0  0  0  0
  6 17  2  0  0  0  0
  7 13  2  0  0  0  0
  7 14  1  0  0  0  0
  8 12  2  0  0  0  0
  8 17  1  0  0  0  0
  9 15  1  0  0  0  0
  9 16  2  0  0  0  0
 10 13  1  0  0  0  0
 10 28  2  0  0  0  0
 11 14  2  0  0  0  0
 11 28  1  0  0  0  0
 12 13  1  0  0  0  0
 14 18  1  0  0  0  0
 15 27  1  0  0  0  0
 16 34  1  0  0  0  0
 17 36  1  0  0  0  0
 18 29  1  0  0  0  0
 18 31  2  0  0  0  0
 19 27  1  0  0  0  0
 19 30  1  0  0  0  0
 19 32  2  0  0  0  0
 20 23  1  0  0  0  0
 20 24  1  0  0  0  0
 21 23  1  0  0  0  0
 21 29  1  0  0  0  0
 22 24  1  0  0  0  0
 22 29  1  0  0  0  0
 23 30  1  0  0  0  0
 24 33  1  0  0  0  0
 25 34  1  0  0  0  0
 26 35  1  0  0  0  0
 27 35  1  0  0  0  0
  1 37  1  0  0  0  0
  2 38  1  0  0  0  0
  3 39  1  0  0  0  0
  4 40  1  0  0  0  0
  5 41  1  0  0  0  0
  6 42  1  0  0  0  0
  7 43  1  0  0  0  0
  8 44  1  0  0  0  0
  9 45  1  0  0  0  0
 10 46  1  0  0  0  0
 11 47  1  0  0  0  0
 20 48  1  0  0  0  0
 20 49  1  0  0  0  0
 21 50  1  0  0  0  0
 21 51  1  0  0  0  0
 22 52  1  0  0  0  0
 22 53  1  0  0  0  0
 23 54  1  0  0  0  0
 24 55  1  0  0  0  0
 25 56  1  0  0  0  0
 25 57  1  0  0  0  0
 25 58  1  0  0  0  0
 26 59  1  0  0  0  0
 26 60  1  0  0  0  0
 26 61  1  0  0  0  0
 27 62  1  0  0  0  0
 30 63  1  0  0  0  0
 33 64  1  0  0  0  0
M  END
> <POSIT::Probability>
0.18

> <POSIT::Method>
FRED

> <ReceptorTitle>
UCSF-P4528-REFINED_LIGAND-BOUND-STATE_A__DU__LA1_A-201(A)

> <OMEGA_C>
05RLwpE38cEtHFtAwOotwiZLEcIqlZG/7DxGwjLr7sGIEG1Ani8xwqd5DsIIv4G+5IgtwgmvD8K/
Ch7A6G9Pwog+8MEQlI1AH9E7wt9a5cFgQolAU5tIwnOs6sG0ir9AVrAzwhZwCMIBIgLAoCE9wtPQ
6sGNaNFAhc80wkr25MH0uLxALsBEwnil68GKhJ9A+Tc/wmhE6cEGyqhAO4I2wjok48F2JpNANhI0
wjMMCsKUgzO/fWswwpJBC8LDszrAK/NNwtD47MFWkLZASdEywoP+3sGsLWVAf4g0wt+YAsJ+2nk/
0tUwwiV36sFQsa6+jCU2wnjx68GM/uU/pzcywmB02sHkwpY/xm4ywvnG8cEsA1M/HYwuwuLP38Hg
lB4+qaAswge+DMJJIqLA618+wmiHCMJi5es/85s3whT/BsLwTYM+Nf83wl7B6MEMNdxA0Kwzwgro
4cHa6g9A9O00wgBn+8GY0Kg+UysvwnlD2cHibH9A7BEywj9mA8JYUgFAuHMpwviA4cFS0UI/Sgsw
wvmuCcL68IbAk7o5wkCfCsIaI5s/vadRwnAJ7MFAS9VAsL1Mwn7D88EcTRtA5qsrwoW9FML85Em/
AEdDwgm178GmdTpAHnYxwqTBD8JAakg/U/sqwtnkEcIW00nA1JhTwicJ8sG7mIZAJkk9wrwE5MEK
3VFAZYNHwmoi6MG/pd9Aw+41whz9BMJasRjAspM/wvDY7cF6dutAXLYwwvtj48EMX8ZAuNstwrmP
7sHksXa/VVg0wjrX6MGc+Xe/pu45wtXL6cGpwac/mhw3wlom8cFjESlA/UUwwolg08EIEc0/WfI1
wsjd18FyVzM/aNUuwhVf9MHsP64/du8twmpu2sFkIjK/j7EswnwPC8LhasLABY0owhmWDMITl5XA
4vwtwuHkEMLNzaLAh+M/wiVsC8IjdyRAdlM9wrvRBMIi5hZA+WxBwniyB8JBZYs/WwI7wjs4BcIw
lIy+3RM3wuT9+sEQHwi/jSwnwmmT5MFA1Z09

> <OMEGA_E>
Egz6wA==

> <OMEGA_NBR>
     52586

$$$$
CACHE3HI_1697_61
  -OEChem-03092622573D

 59 63  0     0  0  0  0  0  0999 V2000
  -52.9026  -29.2777    3.8338 C   0  0  0  0  0  0  0  0  0  0  0  0
  -51.6835  -29.0379    3.1998 C   0  0  0  0  0  0  0  0  0  0  0  0
  -52.9486  -29.4351    5.2190 C   0  0  0  0  0  0  0  0  0  0  0  0
  -50.5107  -28.9551    3.9507 C   0  0  0  0  0  0  0  0  0  0  0  0
  -51.7758  -29.3523    5.9698 C   0  0  0  0  0  0  0  0  0  0  0  0
  -46.9006  -21.4838   -3.0842 C   0  0  0  0  0  0  0  0  0  0  0  0
  -48.0732  -20.7917   -2.7830 C   0  0  0  0  0  0  0  0  0  0  0  0
  -48.5607  -22.3803   -1.0289 C   0  0  0  0  0  0  0  0  0  0  0  0
  -47.8337  -28.8305    7.5544 C   0  0  0  0  0  0  0  0  0  0  0  0
  -50.5567  -29.1125    5.3359 C   0  0  0  0  0  0  0  0  0  0  0  0
  -47.3870  -23.0820   -1.3280 C   0  0  0  0  0  0  0  0  0  0  0  0
  -46.5605  -22.6305   -2.3620 C   0  0  0  0  0  0  0  0  0  0  0  0
  -48.9028  -21.2401   -1.7572 C   0  0  0  0  0  0  0  0  0  0  0  0
  -47.2240  -29.0875    6.3516 C   0  0  0  0  0  0  0  0  0  0  0  0
  -49.3488  -29.0275    6.1089 C   0  0  0  0  0  0  0  0  0  0  0  0
  -47.0107  -24.2612   -0.5611 C   0  0  0  0  0  0  0  0  0  0  0  0
  -45.9296  -24.9346   -0.9638 C   0  0  0  0  0  0  0  0  0  0  0  0
  -45.8033  -29.2342    5.9451 C   0  0  0  0  0  0  0  0  0  0  0  0
  -45.5442  -26.1277   -0.2073 C   0  0  0  0  0  0  0  0  0  0  0  0
  -45.1045  -24.5300   -2.1440 C   0  0  0  0  0  0  0  0  0  0  0  0
  -42.8065  -28.9160    2.0402 C   0  0  0  0  0  0  0  0  0  0  0  0
  -44.5954  -27.7681    2.3344 C   0  0  0  0  0  0  0  0  0  0  0  0
  -44.2070  -29.2395    2.6119 C   0  0  0  0  0  0  0  0  0  0  0  0
  -43.4286  -27.6925    1.3104 C   0  0  0  0  0  0  0  0  0  0  0  0
  -44.2588  -29.6907    4.0577 C   0  0  0  0  0  0  0  0  0  0  0  0
  -43.8368  -27.9410   -0.1366 C   0  0  0  0  0  0  0  0  0  0  0  0
  -49.1951  -28.7931    7.3928 N   0  0  0  0  0  0  0  0  0  0  0  0
  -45.5956  -29.4967    4.6076 N   0  0  0  0  0  0  0  0  0  0  0  0
  -44.4124  -26.7458   -0.7109 N   0  0  0  0  0  0  0  0  0  0  0  0
  -44.9226  -29.1370    6.7956 O   0  0  0  0  0  0  0  0  0  0  0  0
  -46.1969  -26.4981    0.7685 O   0  0  0  0  0  0  0  0  0  0  0  0
  -48.1974  -29.2171    5.4078 O   0  0  0  0  0  0  0  0  0  0  0  0
  -45.3857  -23.2394   -2.7086 O   0  0  0  0  0  0  0  0  0  0  0  0
  -42.6477  -26.4808    1.3868 O   0  0  0  0  0  0  0  0  0  0  0  0
  -50.0279  -20.5736   -1.4667 F   0  0  0  0  0  0  0  0  0  0  0  0
  -53.8156  -29.3430    3.2495 H   0  0  0  0  0  0  0  0  0  0  0  0
  -51.6474  -28.9144    2.1214 H   0  0  0  0  0  0  0  0  0  0  0  0
  -53.8979  -29.6224    5.7122 H   0  0  0  0  0  0  0  0  0  0  0  0
  -49.5682  -28.7684    3.4415 H   0  0  0  0  0  0  0  0  0  0  0  0
  -51.8290  -29.4769    7.0489 H   0  0  0  0  0  0  0  0  0  0  0  0
  -46.2571  -21.1246   -3.8829 H   0  0  0  0  0  0  0  0  0  0  0  0
  -48.3385  -19.9020   -3.3464 H   0  0  0  0  0  0  0  0  0  0  0  0
  -49.2179  -22.7109   -0.2282 H   0  0  0  0  0  0  0  0  0  0  0  0
  -47.3735  -28.6709    8.5186 H   0  0  0  0  0  0  0  0  0  0  0  0
  -47.6117  -24.5574    0.2910 H   0  0  0  0  0  0  0  0  0  0  0  0
  -44.0452  -24.5191   -1.8631 H   0  0  0  0  0  0  0  0  0  0  0  0
  -45.2217  -25.2691   -2.9451 H   0  0  0  0  0  0  0  0  0  0  0  0
  -42.0601  -28.6420    2.7959 H   0  0  0  0  0  0  0  0  0  0  0  0
  -42.3782  -29.6927    1.3994 H   0  0  0  0  0  0  0  0  0  0  0  0
  -45.6010  -27.6245    1.9277 H   0  0  0  0  0  0  0  0  0  0  0  0
  -44.4699  -27.0956    3.1916 H   0  0  0  0  0  0  0  0  0  0  0  0
  -44.7614  -29.9381    1.9696 H   0  0  0  0  0  0  0  0  0  0  0  0
  -43.9922  -30.7517    4.1271 H   0  0  0  0  0  0  0  0  0  0  0  0
  -43.5328  -29.1259    4.6540 H   0  0  0  0  0  0  0  0  0  0  0  0
  -42.9603  -28.2380   -0.7215 H   0  0  0  0  0  0  0  0  0  0  0  0
  -44.5636  -28.7586   -0.1828 H   0  0  0  0  0  0  0  0  0  0  0  0
  -46.3661  -29.6274    3.9700 H   0  0  0  0  0  0  0  0  0  0  0  0
  -43.9561  -26.3591   -1.5320 H   0  0  0  0  0  0  0  0  0  0  0  0
  -42.5737  -26.2808    2.3275 H   0  0  0  0  0  0  0  0  0  0  0  0
  1  2  1  0  0  0  0
  1  3  2  0  0  0  0
  2  4  2  0  0  0  0
  3  5  1  0  0  0  0
  4 10  1  0  0  0  0
  5 10  2  0  0  0  0
  6  7  2  0  0  0  0
  6 12  1  0  0  0  0
  7 13  1  0  0  0  0
  8 11  1  0  0  0  0
  8 13  2  0  0  0  0
  9 14  2  0  0  0  0
  9 27  1  0  0  0  0
 10 15  1  0  0  0  0
 11 12  2  0  0  0  0
 11 16  1  0  0  0  0
 12 33  1  0  0  0  0
 13 35  1  0  0  0  0
 14 18  1  0  0  0  0
 14 32  1  0  0  0  0
 15 27  2  0  0  0  0
 15 32  1  0  0  0  0
 16 17  2  0  0  0  0
 17 19  1  0  0  0  0
 17 20  1  0  0  0  0
 18 28  1  0  0  0  0
 18 30  2  0  0  0  0
 19 29  1  0  0  0  0
 19 31  2  0  0  0  0
 20 33  1  0  0  0  0
 21 23  1  0  0  0  0
 21 24  1  0  0  0  0
 22 23  1  0  0  0  0
 22 24  1  0  0  0  0
 23 25  1  0  0  0  0
 24 26  1  0  0  0  0
 24 34  1  0  0  0  0
 25 28  1  0  0  0  0
 26 29  1  0  0  0  0
  1 36  1  0  0  0  0
  2 37  1  0  0  0  0
  3 38  1  0  0  0  0
  4 39  1  0  0  0  0
  5 40  1  0  0  0  0
  6 41  1  0  0  0  0
  7 42  1  0  0  0  0
  8 43  1  0  0  0  0
  9 44  1  0  0  0  0
 16 45  1  0  0  0  0
 20 46  1  0  0  0  0
 20 47  1  0  0  0  0
 21 48  1  0  0  0  0
 21 49  1  0  0  0  0
 22 50  1  0  0  0  0
 22 51  1  0  0  0  0
 23 52  1  0  0  0  0
 25 53  1  0  0  0  0
 25 54  1  0  0  0  0
 26 55  1  0  0  0  0
 26 56  1  0  0  0  0
 28 57  1  0  0  0  0
 29 58  1  0  0  0  0
 34 59  1  0  0  0  0
M  END
> <POSIT::Probability>
0.24

> <POSIT::Method>
FRED

> <ReceptorTitle>
UCSF-P4528-REFINED_LIGAND-BOUND-STATE_A__DU__LA1_A-201(A)

> <OMEGA_C>
PZxTws846sGyXXVA37tOwpRN6MExykxAWstTwhh768HAAadA+QpKwhek58FO2HxAchpPwpzR6sHS
CL9AQJo7wtveq8HgYkXA+EpAwoFVpsFyHDLAHD5Cwt0Ks8EAtIO/r1U/wvGk5sHTvfFAHDpKwmfm
6MGGv6pAS4w9wvanuMHS+6m/AD46wlsLtcHKKhfAa5xDwsvrqcE06+C/W+U8wiKz6MFJQMtAK2VF
wlM46MFSfMNA6Qo8wgYXwsGyoQ+/47c3wvx5x8EkvXa/iDY3wrDf6cHyPb5ASi02wnAF0cE4PVS+
/mo0wnQ9xMG4NwnA4jkrwuRT58FfkwJAr2Eywikl3sFHZhVA8tMwwmjq6cGAKSdA5LYtwjOK3cGl
u6c/DAkxwqOG7cGo2IFA5VgvwjiH38GQ2gu+yMdEwjNY5sETkuxA3mE2wkj568EmcZNARaYxwnf3
1cEg/TW/vrAzwo0Y6cE1ddlAock4wiz808Evu0Q/IcpAwp286cHeDK1A6Io1wlDqucHSWS3AO5cq
wqrY08F9gbE/hxxIwtCWpMFQu7u/NENXwnK+6sEq909A9pZOwqBQ58GOxQdAZ5dXwrT67MFayrZA
zkVGwqMl5sFiQVxA71BPwr7Q68GqkOFATgc5wiP/qMEdgnjAmFpBwmI3n8ElK1bAJt9EwuCvtcEQ
qWm+bn49wg1e5cE6TAhBY3I+wqV1xMH0AJU+Ti4wwicnxMFJe+6/AeM0wgonysFBfDzAhD0ows8i
5cHo7zJAToMpwraK7cFOILM/eGc2wub+3MFEv/Y/MOExwuLD2MHqQkxApwszwiiB78F+Gvw/+Pcv
woYD9sH3EIRAlSEuwuIB6cG57ZRAUNcrwnfn4cFQszi/IUEywqIR5sEIJTu+6nY5wtoE7cH3FH5A
ENMvwmPf0sGpGcS/bksqwiI/0sE+9RRA

> <OMEGA_E>
L8ESwQ==

> <OMEGA_NBR>
     54261

$$$$
CACHE3HI_1700_42
  -OEChem-03092622573D

 56 59  0     1  0  0  0  0  0999 V2000
  -39.9384  -31.2757    1.8453 C   0  0  0  0  0  0  0  0  0  0  0  0
  -40.6939  -31.2544    0.6729 C   0  0  0  0  0  0  0  0  0  0  0  0
  -40.4135  -30.6399    2.9922 C   0  0  0  0  0  0  0  0  0  0  0  0
  -41.9245  -30.5978    0.6475 C   0  0  0  0  0  0  0  0  0  0  0  0
  -41.6440  -29.9832    2.9668 C   0  0  0  0  0  0  0  0  0  0  0  0
  -48.4590  -30.0077    3.9203 C   0  0  0  0  0  0  0  0  0  0  0  0
  -44.6910  -31.0828    0.1502 C   0  0  0  0  0  0  0  0  0  0  0  0
  -49.4374  -29.0970    5.9199 C   0  0  0  0  0  0  0  0  0  0  0  0
  -49.5635  -30.8393    3.8234 C   0  0  0  0  0  0  0  0  0  0  0  0
  -45.6693  -31.0803   -0.8168 C   0  0  0  0  0  0  0  0  0  0  0  0
  -45.6081  -29.0559   -0.0119 C   0  0  0  0  0  0  0  0  0  0  0  0
  -42.3996  -29.9620    1.7945 C   0  0  0  0  0  0  0  0  0  0  0  0
  -48.4027  -29.1230    4.9915 C   0  0  0  0  0  0  0  0  0  0  0  0
  -44.6513  -29.7683    0.6727 C   0  0  0  0  0  0  0  0  0  0  0  0
  -50.4980  -29.9689    5.7338 C   0  0  0  0  0  0  0  0  0  0  0  0
  -45.6090  -28.6019    3.2921 C   0  0  0  0  0  0  0  0  0  0  0  0
  -52.8884  -31.1673    8.3205 C   0  0  0  0  0  0  0  0  0  0  0  0
  -53.7307  -29.9166    8.5476 C   0  0  0  0  0  0  0  0  0  0  0  0
  -52.2666  -31.1781    6.9270 C   0  0  0  0  0  0  0  0  0  0  0  0
  -52.2631  -28.6748    6.8949 C   0  0  0  0  0  0  0  0  0  0  0  0
  -52.9198  -28.6531    8.2765 C   0  0  2  0  0  0  0  0  0  0  0  0
  -47.2371  -28.2060    5.1434 C   0  0  0  0  0  0  0  0  0  0  0  0
  -43.7382  -29.2475    1.7673 C   0  0  1  0  0  0  0  0  0  0  0  0
  -50.5878  -30.8423    4.7059 N   0  0  0  0  0  0  0  0  0  0  0  0
  -51.5323  -29.9310    6.6773 N   0  0  2  0  0  0  0  0  0  0  0  0
  -46.0222  -28.7709    4.6136 N   0  0  0  0  0  0  0  0  0  0  0  0
  -44.4025  -29.2533    3.0515 N   0  0  0  0  0  0  0  0  0  0  0  0
  -46.2323  -27.9583    2.4490 O   0  0  0  0  0  0  0  0  0  0  0  0
  -46.2334  -29.8485   -0.9213 O   0  0  0  0  0  0  0  0  0  0  0  0
  -51.8987  -28.5063    9.2623 O   0  0  0  0  0  0  0  0  0  0  0  0
  -38.9804  -31.7868    1.8651 H   0  0  0  0  0  0  0  0  0  0  0  0
  -40.3243  -31.7498   -0.2201 H   0  0  0  0  0  0  0  0  0  0  0  0
  -39.8253  -30.6562    3.9050 H   0  0  0  0  0  0  0  0  0  0  0  0
  -42.5061  -30.5865   -0.2705 H   0  0  0  0  0  0  0  0  0  0  0  0
  -42.0064  -29.4916    3.8657 H   0  0  0  0  0  0  0  0  0  0  0  0
  -47.6678  -30.0525    3.1797 H   0  0  0  0  0  0  0  0  0  0  0  0
  -44.0842  -31.9291    0.4394 H   0  0  0  0  0  0  0  0  0  0  0  0
  -49.4094  -28.4124    6.7624 H   0  0  0  0  0  0  0  0  0  0  0  0
  -49.6554  -31.5477    3.0069 H   0  0  0  0  0  0  0  0  0  0  0  0
  -46.0635  -31.8331   -1.4836 H   0  0  0  0  0  0  0  0  0  0  0  0
  -45.9501  -28.0317    0.0264 H   0  0  0  0  0  0  0  0  0  0  0  0
  -52.0958  -31.2269    9.0764 H   0  0  0  0  0  0  0  0  0  0  0  0
  -53.5134  -32.0585    8.4493 H   0  0  0  0  0  0  0  0  0  0  0  0
  -54.6061  -29.9411    7.8876 H   0  0  0  0  0  0  0  0  0  0  0  0
  -54.0941  -29.9173    9.5818 H   0  0  0  0  0  0  0  0  0  0  0  0
  -51.5913  -32.0393    6.8498 H   0  0  0  0  0  0  0  0  0  0  0  0
  -53.0518  -31.3033    6.1700 H   0  0  0  0  0  0  0  0  0  0  0  0
  -53.0324  -28.5628    6.1199 H   0  0  0  0  0  0  0  0  0  0  0  0
  -51.5695  -27.8286    6.8098 H   0  0  0  0  0  0  0  0  0  0  0  0
  -53.5715  -27.7764    8.3554 H   0  0  0  0  0  0  0  0  0  0  0  0
  -47.4113  -27.2533    4.6240 H   0  0  0  0  0  0  0  0  0  0  0  0
  -47.0506  -27.9616    6.1984 H   0  0  0  0  0  0  0  0  0  0  0  0
  -43.5540  -28.1806    1.5837 H   0  0  0  0  0  0  0  0  0  0  0  0
  -45.4533  -29.3511    5.2264 H   0  0  0  0  0  0  0  0  0  0  0  0
  -43.9666  -29.7583    3.8171 H   0  0  0  0  0  0  0  0  0  0  0  0
  -52.3498  -28.4467   10.1181 H   0  0  0  0  0  0  0  0  0  0  0  0
  1  2  1  0  0  0  0
  1  3  2  0  0  0  0
  2  4  2  0  0  0  0
  3  5  1  0  0  0  0
  4 12  1  0  0  0  0
  5 12  2  0  0  0  0
  6  9  2  0  0  0  0
  6 13  1  0  0  0  0
  7 10  2  0  0  0  0
  7 14  1  0  0  0  0
  8 13  2  0  0  0  0
  8 15  1  0  0  0  0
  9 24  1  0  0  0  0
 10 29  1  0  0  0  0
 11 14  2  0  0  0  0
 11 29  1  0  0  0  0
 12 23  1  0  0  0  0
 13 22  1  0  0  0  0
 14 23  1  0  0  0  0
 15 24  2  0  0  0  0
 15 25  1  0  0  0  0
 16 26  1  0  0  0  0
 16 27  1  0  0  0  0
 16 28  2  0  0  0  0
 17 18  1  0  0  0  0
 17 19  1  0  0  0  0
 18 21  1  0  0  0  0
 19 25  1  0  0  0  0
 20 21  1  0  0  0  0
 20 25  1  0  0  0  0
 21 30  1  0  0  0  0
 22 26  1  0  0  0  0
 23 27  1  0  0  0  0
  1 31  1  0  0  0  0
  2 32  1  0  0  0  0
  3 33  1  0  0  0  0
  4 34  1  0  0  0  0
  5 35  1  0  0  0  0
  6 36  1  0  0  0  0
  7 37  1  0  0  0  0
  8 38  1  0  0  0  0
  9 39  1  0  0  0  0
 10 40  1  0  0  0  0
 11 41  1  0  0  0  0
 17 42  1  0  0  0  0
 17 43  1  0  0  0  0
 18 44  1  0  0  0  0
 18 45  1  0  0  0  0
 19 46  1  0  0  0  0
 19 47  1  0  0  0  0
 20 48  1  0  0  0  0
 20 49  1  0  0  0  0
 21 50  1  0  0  0  0
 22 51  1  0  0  0  0
 22 52  1  0  0  0  0
 23 53  1  0  0  0  0
 26 54  1  0  0  0  0
 27 55  1  0  0  0  0
 30 56  1  0  0  0  0
M  END
> <POSIT::Probability>
0.05

> <POSIT::Method>
FRED

> <ReceptorTitle>
UCSF-P4528-REFINED_LIGAND-BOUND-STATE_A__DU__LA1_A-201(A)

> <OMEGA_C>
4MAfwpU0+sFoMew/msYiwgIJ+sGzRSw/b6chwnge9cHcfz9AqbInwjvI9MGbxSU/fpMmwrLd78Hb
3z1AAdZBwrIP8MEe5npAkcMywpup+MH82Bk+5b9FwqPG6MHHb71AEUFGwtq29sEos3RAX602wmek
+MGcF1G/rW42woJy6MGAd0O8OJkpwhSy78H7suU/ZJxBwvf76MFqup9A7poywoAl7sFxNCw/9f1J
wlLA78GZe7dAoG82wrbQ5MGwsVJAso1TwppW+cGmIAVBN+xWwklV78H+wghBCBFRwshs+cHWqd1A
Yg1Rwvtl5cE+o9xA5q1TwoY55cGFbARBwvI8wvml4cGClqRA6vMuwsj66cFBN+I/4FlKwvq89sEG
l5ZAGCFOwq9y78FarNVAuhY4wtsq5sGvopNAI5wxwqoG6sFnS0NA5e04wqWq38H8vBxAAO84wrjJ
7sEv3Wu/R5hPwtkM5MFbMhRB4usbwmNL/sESu+4/DkwhwoT//cFoX2G+F00fws0/9cE463lANQYq
wg2x9MHEgYq+gwYowsru68EqaHdA0Ks+wnpr8MHogEtAMVYwwrdu/8HT9+A+O6NFwpdM48EwZdhA
GJ9Gwrph/MF9cUBA+0A4wkaq/sFY5r2/5cw3wt9A4MHg+dc8DmJQwrLQ+cH1OBFBuQ1Wwu07AMJf
MAdBmmxawmKH78EeZ/xAZWBYwpBW78HvThlBfV1OwkAoAMLWMdtACzVUwixt+sHbcMVAKSFUwpuA
5MFw1sNAKEdOwhKh3sGf6dlAPklWwio23sGurwVBNqU9wtgG2sEr+JNAxDM8wlWx38GsWcZAVjcu
wvRx4cEWuMo/LdA1wgfP6sF0PqdAzN0vwgYR7sHxSnRANGZRwtqS48GX4yFB

> <OMEGA_E>
u5L6wA==

> <OMEGA_NBR>
     55883

$$$$
CACHE3HI_1700_74
  -OEChem-03092622573D

 49 52  0     1  0  0  0  0  0999 V2000
  -44.8682  -34.4192   -0.9371 C   0  0  0  0  0  0  0  0  0  0  0  0
  -44.5631  -34.4779   -2.2924 C   0  0  0  0  0  0  0  0  0  0  0  0
  -44.7334  -33.2175   -0.2509 C   0  0  0  0  0  0  0  0  0  0  0  0
  -44.1304  -33.3153   -2.9105 C   0  0  0  0  0  0  0  0  0  0  0  0
  -44.2931  -32.1116   -0.9599 C   0  0  0  0  0  0  0  0  0  0  0  0
  -45.8448  -29.1273    3.0044 C   0  0  0  0  0  0  0  0  0  0  0  0
  -43.4737  -29.2226    3.7893 C   0  0  0  0  0  0  0  0  0  0  0  0
  -45.3914  -29.4791    1.5791 C   0  0  0  0  0  0  0  0  0  0  0  0
  -43.0126  -29.5749    2.3664 C   0  0  0  0  0  0  0  0  0  0  0  0
  -45.0031  -33.0215   -5.2523 C   0  0  0  0  0  0  0  0  0  0  0  0
  -44.2296  -27.5243    2.2991 C   0  0  0  0  0  0  0  0  0  0  0  0
  -45.6483  -34.3798   -5.4443 C   0  0  0  0  0  0  0  0  0  0  0  0
  -43.3864  -34.6912   -4.9928 C   0  0  0  0  0  0  0  0  0  0  0  0
  -44.6726  -28.2916    3.5451 C   0  0  0  0  0  0  0  0  0  0  0  0
  -43.7852  -33.3424   -4.3944 C   0  0  2  0  0  0  0  0  0  0  0  0
  -44.0094  -28.7988    1.4784 C   0  0  0  0  0  0  0  0  0  0  0  0
  -44.1300  -29.6229   -0.8958 C   0  0  0  0  0  0  0  0  0  0  0  0
  -43.5307  -28.5877    0.0587 C   0  0  1  0  0  0  0  0  0  0  0  0
  -43.9871  -32.1298   -2.2765 N   0  0  0  0  0  0  0  0  0  0  0  0
  -44.1650  -30.9222   -0.2632 N   0  0  0  0  0  0  0  0  0  0  0  0
  -44.5988  -35.3551   -5.3777 O   0  0  0  0  0  0  0  0  0  0  0  0
  -42.7424  -32.4064   -4.6580 O   0  0  0  0  0  0  0  0  0  0  0  0
  -43.9320  -27.2798   -0.3523 O   0  0  0  0  0  0  0  0  0  0  0  0
  -45.2099  -35.3086   -0.4158 H   0  0  0  0  0  0  0  0  0  0  0  0
  -44.6627  -35.4097   -2.8387 H   0  0  0  0  0  0  0  0  0  0  0  0
  -44.9694  -33.1634    0.8070 H   0  0  0  0  0  0  0  0  0  0  0  0
  -46.7639  -28.5314    2.9702 H   0  0  0  0  0  0  0  0  0  0  0  0
  -46.0394  -30.0204    3.6065 H   0  0  0  0  0  0  0  0  0  0  0  0
  -43.7410  -30.1126    4.3675 H   0  0  0  0  0  0  0  0  0  0  0  0
  -42.6748  -28.6952    4.3228 H   0  0  0  0  0  0  0  0  0  0  0  0
  -45.3385  -30.5618    1.4238 H   0  0  0  0  0  0  0  0  0  0  0  0
  -46.0985  -29.0675    0.8492 H   0  0  0  0  0  0  0  0  0  0  0  0
  -41.9828  -29.2327    2.2116 H   0  0  0  0  0  0  0  0  0  0  0  0
  -43.0425  -30.6543    2.1846 H   0  0  0  0  0  0  0  0  0  0  0  0
  -44.7571  -32.5538   -6.2117 H   0  0  0  0  0  0  0  0  0  0  0  0
  -45.6984  -32.3619   -4.7162 H   0  0  0  0  0  0  0  0  0  0  0  0
  -45.0122  -26.8745    1.8923 H   0  0  0  0  0  0  0  0  0  0  0  0
  -43.3145  -26.9424    2.4538 H   0  0  0  0  0  0  0  0  0  0  0  0
  -46.4001  -34.5972   -4.6794 H   0  0  0  0  0  0  0  0  0  0  0  0
  -46.1240  -34.4632   -6.4277 H   0  0  0  0  0  0  0  0  0  0  0  0
  -42.7489  -34.5904   -5.8765 H   0  0  0  0  0  0  0  0  0  0  0  0
  -42.8826  -35.3384   -4.2662 H   0  0  0  0  0  0  0  0  0  0  0  0
  -44.9342  -27.6782    4.4095 H   0  0  0  0  0  0  0  0  0  0  0  0
  -43.5333  -29.6958   -1.8110 H   0  0  0  0  0  0  0  0  0  0  0  0
  -45.1509  -29.3420   -1.1720 H   0  0  0  0  0  0  0  0  0  0  0  0
  -42.4332  -28.6231    0.0273 H   0  0  0  0  0  0  0  0  0  0  0  0
  -44.0910  -30.9623    0.7464 H   0  0  0  0  0  0  0  0  0  0  0  0
  -42.5529  -32.4544   -5.6098 H   0  0  0  0  0  0  0  0  0  0  0  0
  -44.8988  -27.2603   -0.2940 H   0  0  0  0  0  0  0  0  0  0  0  0
  1  2  1  0  0  0  0
  1  3  2  0  0  0  0
  2  4  2  0  0  0  0
  3  5  1  0  0  0  0
  4 15  1  0  0  0  0
  4 19  1  0  0  0  0
  5 19  2  0  0  0  0
  5 20  1  0  0  0  0
  6  8  1  0  0  0  0
  6 14  1  0  0  0  0
  7  9  1  0  0  0  0
  7 14  1  0  0  0  0
  8 16  1  0  0  0  0
  9 16  1  0  0  0  0
 10 12  1  0  0  0  0
 10 15  1  0  0  0  0
 11 14  1  0  0  0  0
 11 16  1  0  0  0  0
 12 21  1  0  0  0  0
 13 15  1  0  0  0  0
 13 21  1  0  0  0  0
 15 22  1  0  0  0  0
 16 18  1  0  0  0  0
 17 18  1  0  0  0  0
 17 20  1  0  0  0  0
 18 23  1  0  0  0  0
  1 24  1  0  0  0  0
  2 25  1  0  0  0  0
  3 26  1  0  0  0  0
  6 27  1  0  0  0  0
  6 28  1  0  0  0  0
  7 29  1  0  0  0  0
  7 30  1  0  0  0  0
  8 31  1  0  0  0  0
  8 32  1  0  0  0  0
  9 33  1  0  0  0  0
  9 34  1  0  0  0  0
 10 35  1  0  0  0  0
 10 36  1  0  0  0  0
 11 37  1  0  0  0  0
 11 38  1  0  0  0  0
 12 39  1  0  0  0  0
 12 40  1  0  0  0  0
 13 41  1  0  0  0  0
 13 42  1  0  0  0  0
 14 43  1  0  0  0  0
 17 44  1  0  0  0  0
 17 45  1  0  0  0  0
 18 46  1  0  0  0  0
 20 47  1  0  0  0  0
 22 48  1  0  0  0  0
 23 49  1  0  0  0  0
M  END
> <POSIT::Probability>
0.14

> <POSIT::Method>
HYBRID

> <ReceptorTitle>
UCSF-P4528-REFINED_LIGAND-BOUND-STATE_A__DU__LA1_A-201(A)

> <OMEGA_C>
FXkzwk+tCcIE5m+/qEAywmPpCcLktRLA/e4ywsTeBMI0d4C+f4UwwuZCBcK5RTrAHCwxwjtyAMLW
u3W/DGE3wp4E6cGMR0BABuUtwtXH6cEjg3JAzpA1whrV68F0IMo/8gwswmKZ7MHGcxdAIQM0wgoW
BMJ0EqjAKOswwq4x3MFCJBNA6Jc2wvSECcKsN67ApYstws3DCsLhxJ/AwLAywh1V4sEu42JACyQv
wpteBcJBn4zAlgkwwvJj5sFxPL0/IoUwwr777MGQVWW/Zh8uwrKz5MGAYnA91fIvwvSEAMJrshHA
8qgwwqhg98FcyIa+IWUywpZrDcJRFqzALPgqwiWgAcJcDpXAZrovwgM92sHoYbS+5NY0wv87DcIE
49S+k6YywoijDcLzrDXAsuAzwlanBMLYlU4/PQ47wlJA5MHhFz5AVSg4ws4p8MGz0GZAyfYuwpzm
8ME+wotA/LIqwriP5cGFVIpAllo1wnh+9MG7PrY/3GQ4wiiK6MH/Zlk/Zu4nwp7c6cFqiw1Ahiss
wgk89cFI0QtARwczwh43AsL7xcbAJss2wopyAcLh6pbAegw0wvT+1sH+NfI/AEItwgGK18EKCx1A
q5k5wn5jCsKUvZXABn84wknaCcLYr83A1f4qwptcCsI4DLzAxIcrwoRaDcL9hIjAk7wzwght3cGy
Go1AICIuwvyQ7cH8zue/f5o0woC86sGQBZa/lrspwiT85MFAjt88Kl0wwrWy98HOFD8/ODYqwk/R
AcJag7PAU5gzwi4V2sE8hpa+

> <OMEGA_E>
eOu1wA==

> <OMEGA_NBR>
     57366

$$$$
CACHE3HI_1700_87
  -OEChem-03092622573D

 49 52  0     0  0  0  0  0  0999 V2000
  -45.0058  -34.8483   -2.2354 C   0  0  0  0  0  0  0  0  0  0  0  0
  -44.3017  -32.6107   -1.6511 C   0  0  0  0  0  0  0  0  0  0  0  0
  -45.2625  -35.0875   -0.8718 C   0  0  0  0  0  0  0  0  0  0  0  0
  -44.5091  -33.5911   -2.6403 C   0  0  0  0  0  0  0  0  0  0  0  0
  -46.6176  -29.1645    6.4154 C   0  0  0  0  0  0  0  0  0  0  0  0
  -46.8768  -28.2942    5.3790 C   0  0  0  0  0  0  0  0  0  0  0  0
  -44.5822  -32.9126   -0.2997 C   0  0  0  0  0  0  0  0  0  0  0  0
  -44.6785  -28.8737    5.3803 C   0  0  0  0  0  0  0  0  0  0  0  0
  -44.2095  -33.3204   -4.0668 C   0  0  0  0  0  0  0  0  0  0  0  0
  -47.7150  -29.5823    7.3754 C   0  0  0  0  0  0  0  0  0  0  0  0
  -48.2480  -27.7185    5.1034 C   0  0  0  0  0  0  0  0  0  0  0  0
  -44.1904  -29.5317    1.2668 C   0  0  0  0  0  0  0  0  0  0  0  0
  -43.1908  -31.3041    2.7746 C   0  0  0  0  0  0  0  0  0  0  0  0
  -45.0056  -30.6048    0.5282 C   0  0  0  0  0  0  0  0  0  0  0  0
  -44.0005  -32.3924    2.0572 C   0  0  0  0  0  0  0  0  0  0  0  0
  -49.3167  -28.5080    5.8889 C   0  0  0  0  0  0  0  0  0  0  0  0
  -43.9541  -29.9635    2.7256 C   0  0  0  0  0  0  0  0  0  0  0  0
  -43.2446  -28.9731    4.9192 C   0  0  0  0  0  0  0  0  0  0  0  0
  -45.0445  -34.1371    0.0642 N   0  0  0  0  0  0  0  0  0  0  0  0
  -45.2580  -29.5243    6.3675 N   0  0  0  0  0  0  0  0  0  0  0  0
  -45.6652  -28.1192    4.7909 N   0  0  0  0  0  0  0  0  0  0  0  0
  -44.3569  -31.9446    0.6800 N   0  0  0  0  0  0  0  0  0  0  0  0
  -43.1896  -28.9004    3.4347 N   0  0  0  0  0  0  0  0  0  0  0  0
  -43.7637  -32.2311   -4.4122 O   0  0  0  0  0  0  0  0  0  0  0  0
  -48.8768  -28.7188    7.2535 O   0  0  0  0  0  0  0  0  0  0  0  0
  -44.4345  -34.3003   -4.9828 O   0  0  0  0  0  0  0  0  0  0  0  0
  -45.1879  -35.6219   -2.9666 H   0  0  0  0  0  0  0  0  0  0  0  0
  -43.9305  -31.6338   -1.9238 H   0  0  0  0  0  0  0  0  0  0  0  0
  -45.6420  -36.0517   -0.5671 H   0  0  0  0  0  0  0  0  0  0  0  0
  -48.0123  -30.6175    7.1517 H   0  0  0  0  0  0  0  0  0  0  0  0
  -47.3319  -29.5251    8.4049 H   0  0  0  0  0  0  0  0  0  0  0  0
  -48.2704  -26.6641    5.4159 H   0  0  0  0  0  0  0  0  0  0  0  0
  -48.4624  -27.7864    4.0266 H   0  0  0  0  0  0  0  0  0  0  0  0
  -43.2209  -29.4001    0.7640 H   0  0  0  0  0  0  0  0  0  0  0  0
  -44.7427  -28.5805    1.2531 H   0  0  0  0  0  0  0  0  0  0  0  0
  -43.0349  -31.5970    3.8233 H   0  0  0  0  0  0  0  0  0  0  0  0
  -42.2163  -31.1873    2.2777 H   0  0  0  0  0  0  0  0  0  0  0  0
  -46.0210  -30.6433    0.9495 H   0  0  0  0  0  0  0  0  0  0  0  0
  -45.0613  -30.3473   -0.5398 H   0  0  0  0  0  0  0  0  0  0  0  0
  -43.3997  -33.3118    1.9964 H   0  0  0  0  0  0  0  0  0  0  0  0
  -44.9216  -32.5931    2.6240 H   0  0  0  0  0  0  0  0  0  0  0  0
  -50.2585  -27.9397    5.8939 H   0  0  0  0  0  0  0  0  0  0  0  0
  -49.4789  -29.4821    5.4043 H   0  0  0  0  0  0  0  0  0  0  0  0
  -44.9300  -30.0975    3.2152 H   0  0  0  0  0  0  0  0  0  0  0  0
  -42.6643  -28.1427    5.3477 H   0  0  0  0  0  0  0  0  0  0  0  0
  -42.8181  -29.9299    5.2546 H   0  0  0  0  0  0  0  0  0  0  0  0
  -45.5081  -27.5088    4.0146 H   0  0  0  0  0  0  0  0  0  0  0  0
  -42.2317  -28.9683    3.1558 H   0  0  0  0  0  0  0  0  0  0  0  0
  -44.1965  -33.9869   -5.8474 H   0  0  0  0  0  0  0  0  0  0  0  0
  1  3  1  0  0  0  0
  1  4  2  0  0  0  0
  2  4  1  0  0  0  0
  2  7  2  0  0  0  0
  3 19  2  0  0  0  0
  4  9  1  0  0  0  0
  5  6  2  0  0  0  0
  5 10  1  0  0  0  0
  5 20  1  0  0  0  0
  6 11  1  0  0  0  0
  6 21  1  0  0  0  0
  7 19  1  0  0  0  0
  7 22  1  0  0  0  0
  8 18  1  0  0  0  0
  8 20  2  0  0  0  0
  8 21  1  0  0  0  0
  9 24  2  0  0  0  0
  9 26  1  0  0  0  0
 10 25  1  0  0  0  0
 11 16  1  0  0  0  0
 12 14  1  0  0  0  0
 12 17  1  0  0  0  0
 13 15  1  0  0  0  0
 13 17  1  0  0  0  0
 14 22  1  0  0  0  0
 15 22  1  0  0  0  0
 16 25  1  0  0  0  0
 17 23  1  0  0  0  0
 18 23  1  0  0  0  0
  1 27  1  0  0  0  0
  2 28  1  0  0  0  0
  3 29  1  0  0  0  0
 10 30  1  0  0  0  0
 10 31  1  0  0  0  0
 11 32  1  0  0  0  0
 11 33  1  0  0  0  0
 12 34  1  0  0  0  0
 12 35  1  0  0  0  0
 13 36  1  0  0  0  0
 13 37  1  0  0  0  0
 14 38  1  0  0  0  0
 14 39  1  0  0  0  0
 15 40  1  0  0  0  0
 15 41  1  0  0  0  0
 16 42  1  0  0  0  0
 16 43  1  0  0  0  0
 17 44  1  0  0  0  0
 18 45  1  0  0  0  0
 18 46  1  0  0  0  0
 21 47  1  0  0  0  0
 23 48  1  0  0  0  0
 26 49  1  0  0  0  0
M  END
> <POSIT::Probability>
0.33

> <POSIT::Method>
SHAPEFIT

> <ReceptorTitle>
UCSF-P4528-REFINED_LIGAND-BOUND-STATE_A__DU__LA1_A-201(A)

> <OMEGA_C>
8QU0wqRkC8JaEA/A+DQxwlZxAsKgWNO/zAw1wqRZDMJkLl+/WQkywlNdBsJt+ijAdHg6wvlQ6cGo
Ss1A4YE7wpda4sHlIKxAJlQywoymA8Lkdpm+yrYywkr95sGgK6xAfdYwwhlIBcJmI4LAHNw+wpuo
7MHpAuxA9/1Awna/3cHMTqNA9MIwwvhA7MH4J6I/WcMswr1u+sFSkjFAyAU0wprW9MHvNwc/fQAw
wtCRAcJXqQNAU0RFwnMQ5MERcrxABNEvwk2178H+cC5AhfoswtLI58EVap1AhS00wm2MCMIgk4M9
PQg1wq8x7MFkwstAMak2wjP04MEZT5lAeW0xwpeO/8HZEy4/H8Iswgc058HO0VtA/A0vwp3sAMLK
MI3A14FDwg/A5cFdHOhA7rwxwoUzCcLbcp/AYcA0wtt8DsIW3T3A4LgvwhAS/cFnQPa/YJE2wuo0
EMKvLBG/mgxAwqPw9MEW2+RA11M9wnoz7MGCegZB8BRBwvtP1cHtTq1AitlBwptK3sEC2oBAOOIs
wl4z68HEmEM/iPgywvKk5MGiZaA/uCMswq3G/MEcsXRAhN0owpF/+cGgxhFAjRU4wmQl9cGvEXM/
xD40wjrH8sGSLwq/Qpktwkw/BcJXiv8/va8zwl1fAsL47idAtwhJwn6E38HRmrxAWepFwmfb68En
8KxAWLgzwqfH8MHVxU1AP6gqwjAk4cHEIKtAx0UrwoJw78F2JahASAg2wgsS3MFrd4BAOO0owgu/
58EN+ElALMkwwpryB8INHrvA

> <OMEGA_E>
hN+ePw==

> <OMEGA_NBR>
     58867

$$$$
CACHE3HI_1702_1
  -OEChem-03092622573D

 52 54  0     0  0  0  0  0  0999 V2000
  -46.1424  -27.8296    1.9894 C   0  0  0  0  0  0  0  0  0  0  0  0
  -44.1763  -28.8443    2.9601 C   0  0  0  0  0  0  0  0  0  0  0  0
  -45.4658  -27.6780    0.7790 C   0  0  0  0  0  0  0  0  0  0  0  0
  -43.4997  -28.6928    1.7498 C   0  0  0  0  0  0  0  0  0  0  0  0
  -46.1823  -24.3886   -2.0886 C   0  0  0  0  0  0  0  0  0  0  0  0
  -44.1761  -23.0688   -1.8223 C   0  0  0  0  0  0  0  0  0  0  0  0
  -46.8748  -23.2511   -2.5035 C   0  0  0  0  0  0  0  0  0  0  0  0
  -44.8685  -21.9313   -2.2372 C   0  0  0  0  0  0  0  0  0  0  0  0
  -45.4975  -28.4129    3.0799 C   0  0  0  0  0  0  0  0  0  0  0  0
  -44.1446  -28.1094    0.6592 C   0  0  0  0  0  0  0  0  0  0  0  0
  -44.8328  -24.2973   -1.7481 C   0  0  0  0  0  0  0  0  0  0  0  0
  -46.2181  -22.0226   -2.5777 C   0  0  0  0  0  0  0  0  0  0  0  0
  -46.2088  -28.5708    4.3545 C   0  0  0  0  0  0  0  0  0  0  0  0
  -42.7870  -25.5469   -0.9515 C   0  0  0  0  0  0  0  0  0  0  0  0
  -49.9987  -30.2206    3.5446 C   0  0  0  0  0  0  0  0  0  0  0  0
  -49.8156  -29.0396    4.4966 C   0  0  0  0  0  0  0  0  0  0  0  0
  -48.7767  -30.4067    2.6477 C   0  0  0  0  0  0  0  0  0  0  0  0
  -48.5106  -29.1543    5.2787 C   0  0  0  0  0  0  0  0  0  0  0  0
  -47.4891  -30.4870    3.4633 C   0  0  0  0  0  0  0  0  0  0  0  0
  -48.2723  -21.0773   -3.3151 C   0  0  0  0  0  0  0  0  0  0  0  0
  -43.4221  -27.9478   -0.6352 C   0  0  0  0  0  0  0  0  0  0  0  0
  -47.3731  -29.3437    4.3687 N   0  0  0  0  0  0  0  0  0  0  0  0
  -44.1297  -25.4510   -1.3279 N   0  0  0  0  0  0  0  0  0  0  0  0
  -42.4710  -26.8664   -0.6007 N   0  0  0  0  0  0  0  0  0  0  0  0
  -45.7100  -28.0084    5.3279 O   0  0  0  0  0  0  0  0  0  0  0  0
  -41.9687  -24.6311   -0.9186 O   0  0  0  0  0  0  0  0  0  0  0  0
  -46.8945  -20.9128   -2.9822 O   0  0  0  0  0  0  0  0  0  0  0  0
  -47.1715  -27.4895    2.0713 H   0  0  0  0  0  0  0  0  0  0  0  0
  -43.6635  -29.2996    3.8035 H   0  0  0  0  0  0  0  0  0  0  0  0
  -45.9761  -27.2219   -0.0651 H   0  0  0  0  0  0  0  0  0  0  0  0
  -42.4714  -29.0335    1.6656 H   0  0  0  0  0  0  0  0  0  0  0  0
  -46.7037  -25.3409   -2.0354 H   0  0  0  0  0  0  0  0  0  0  0  0
  -43.1248  -22.9864   -1.5583 H   0  0  0  0  0  0  0  0  0  0  0  0
  -47.9259  -23.3285   -2.7681 H   0  0  0  0  0  0  0  0  0  0  0  0
  -44.3514  -20.9772   -2.2925 H   0  0  0  0  0  0  0  0  0  0  0  0
  -50.1631  -31.1349    4.1281 H   0  0  0  0  0  0  0  0  0  0  0  0
  -50.8923  -30.0675    2.9293 H   0  0  0  0  0  0  0  0  0  0  0  0
  -49.8181  -28.1034    3.9248 H   0  0  0  0  0  0  0  0  0  0  0  0
  -50.6612  -28.9937    5.1919 H   0  0  0  0  0  0  0  0  0  0  0  0
  -48.8935  -31.3181    2.0508 H   0  0  0  0  0  0  0  0  0  0  0  0
  -48.7096  -29.5687    1.9428 H   0  0  0  0  0  0  0  0  0  0  0  0
  -48.3825  -28.2699    5.9077 H   0  0  0  0  0  0  0  0  0  0  0  0
  -48.5398  -30.0255    5.9440 H   0  0  0  0  0  0  0  0  0  0  0  0
  -47.4825  -31.3935    4.0799 H   0  0  0  0  0  0  0  0  0  0  0  0
  -46.6257  -30.5398    2.7923 H   0  0  0  0  0  0  0  0  0  0  0  0
  -48.6918  -20.1154   -3.6213 H   0  0  0  0  0  0  0  0  0  0  0  0
  -48.3564  -21.7883   -4.1404 H   0  0  0  0  0  0  0  0  0  0  0  0
  -48.8138  -21.4634   -2.4484 H   0  0  0  0  0  0  0  0  0  0  0  0
  -42.8726  -28.8620   -0.8994 H   0  0  0  0  0  0  0  0  0  0  0  0
  -44.1167  -27.7458   -1.4624 H   0  0  0  0  0  0  0  0  0  0  0  0
  -44.6660  -26.3148   -1.2960 H   0  0  0  0  0  0  0  0  0  0  0  0
  -41.5110  -27.0792   -0.3386 H   0  0  0  0  0  0  0  0  0  0  0  0
  1  3  2  0  0  0  0
  1  9  1  0  0  0  0
  2  4  1  0  0  0  0
  2  9  2  0  0  0  0
  3 10  1  0  0  0  0
  4 10  2  0  0  0  0
  5  7  2  0  0  0  0
  5 11  1  0  0  0  0
  6  8  1  0  0  0  0
  6 11  2  0  0  0  0
  7 12  1  0  0  0  0
  8 12  2  0  0  0  0
  9 13  1  0  0  0  0
 10 21  1  0  0  0  0
 11 23  1  0  0  0  0
 12 27  1  0  0  0  0
 13 22  1  0  0  0  0
 13 25  2  0  0  0  0
 14 23  1  0  0  0  0
 14 24  1  0  0  0  0
 14 26  2  0  0  0  0
 15 16  1  0  0  0  0
 15 17  1  0  0  0  0
 16 18  1  0  0  0  0
 17 19  1  0  0  0  0
 18 22  1  0  0  0  0
 19 22  1  0  0  0  0
 20 27  1  0  0  0  0
 21 24  1  0  0  0  0
  1 28  1  0  0  0  0
  2 29  1  0  0  0  0
  3 30  1  0  0  0  0
  4 31  1  0  0  0  0
  5 32  1  0  0  0  0
  6 33  1  0  0  0  0
  7 34  1  0  0  0  0
  8 35  1  0  0  0  0
 15 36  1  0  0  0  0
 15 37  1  0  0  0  0
 16 38  1  0  0  0  0
 16 39  1  0  0  0  0
 17 40  1  0  0  0  0
 17 41  1  0  0  0  0
 18 42  1  0  0  0  0
 18 43  1  0  0  0  0
 19 44  1  0  0  0  0
 19 45  1  0  0  0  0
 20 46  1  0  0  0  0
 20 47  1  0  0  0  0
 20 48  1  0  0  0  0
 21 49  1  0  0  0  0
 21 50  1  0  0  0  0
 23 51  1  0  0  0  0
 24 52  1  0  0  0  0
M  END
> <POSIT::Probability>
0.05

> <POSIT::Method>
FRED

> <ReceptorTitle>
UCSF-P4528-REFINED_LIGAND-BOUND-STATE_A__DU__LA1_A-201(A)

> <OMEGA_C>
15E4wgKj3sFEo/4/jLQwwivB5sEUcj1ABd01wp9s3cFwbEc/uf8twtKK5cH0+N8/pro4wt8bw8Ew
qwXATrQwwvWMuMEgQem/xH87wjYCusHAOSDAXnkzwlhzr8HULg/AdP01wrRN48HMHEVAHZQwwhbg
4MGQwSg/v1QzwvhgwsGMwd+/U984wjYusMGM+STAzdU4wg6R5MHxV4tA5SUrwgRgzMHIknO/of5H
wtDD8cEo2mJAK0NHwixR6MEn5I9AXxtDwtpA88FicylA4ApCwv876cF066hA1PQ9wkzl88Eup11A
2RZBwkCeqMEbKlTASLAtwhmV38FwmSK/En49wty/6sEQzItAxIQwwpmby8Hw+am/TuIpwk3u1sFA
yhm//9Y2wj4R4ME+fqpA8t8nwmQMxcFoK2u/7pM7wlJNp8Eq3D7Apa88wnjq28GIkARAZqcuwpNl
6sEwbHNAg+c3wojG2cGAa4W9ruIpwqtE6ME4MtU/ltA6wiu6ysFYQwLAzX8swhTkt8HQd8e/JbQ/
wsugusEgKDHAy2cxwlDRp8GMuBLA+6ZIwlgU+cFBGYRAq5FLwkeK8MHQeTtAyUVHwrvT4MEyL3tA
F6VKwiTz58HzI6ZA5pJDwn6L+sHEQANArNZCwsuM7MEorPg/tYdBwrIo4sGHC71AzihCwi408MF0
Nb5AG+49wvIl+8GzjoJArYA6wpxR9MFEtTJAZMRCwmvsoME8w2fA8mxBwnlOrsGOfoTASUFDwgy1
q8FAshzAjn0rwkfl5sEQP2a/iHcwwm733cHALru/9qkywr6E0sFU46W/Rwsmwi6i2MEgWK2+

> <OMEGA_E>
9IoKwQ==

> <OMEGA_NBR>
     60395

$$$$
CACHE3HI_1702_38
  -OEChem-03092622573D

 39 41  0     0  0  0  0  0  0999 V2000
  -48.4190  -28.2595    6.2917 C   0  0  0  0  0  0  0  0  0  0  0  0
  -49.6959  -28.5598    5.8309 C   0  0  0  0  0  0  0  0  0  0  0  0
  -44.8488  -26.2958   -0.5682 C   0  0  0  0  0  0  0  0  0  0  0  0
  -47.3372  -28.3285    5.4209 C   0  0  0  0  0  0  0  0  0  0  0  0
  -44.6218  -24.9776   -0.9478 C   0  0  0  0  0  0  0  0  0  0  0  0
  -49.8368  -28.9212    4.5002 C   0  0  0  0  0  0  0  0  0  0  0  0
  -42.5452  -26.7480   -0.9504 C   0  0  0  0  0  0  0  0  0  0  0  0
  -43.7964  -27.2044   -0.5667 C   0  0  0  0  0  0  0  0  0  0  0  0
  -47.5832  -28.7001    4.1090 C   0  0  0  0  0  0  0  0  0  0  0  0
  -43.3342  -24.6207   -1.3142 C   0  0  0  0  0  0  0  0  0  0  0  0
  -45.3734  -28.0033    3.2507 C   0  0  0  0  0  0  0  0  0  0  0  0
  -46.4635  -28.7865    3.1411 C   0  0  0  0  0  0  0  0  0  0  0  0
  -44.0044  -28.6056   -0.1697 C   0  0  0  0  0  0  0  0  0  0  0  0
  -43.0400  -23.2574   -1.7196 C   0  0  0  0  0  0  0  0  0  0  0  0
  -44.2173  -28.0135    2.2921 C   0  0  0  0  0  0  0  0  0  0  0  0
  -46.5811  -29.7778    2.0080 C   0  0  0  0  0  0  0  0  0  0  0  0
  -45.2274  -30.0910    1.3761 C   0  0  0  0  0  0  0  0  0  0  0  0
  -48.8094  -28.9992    3.6248 N   0  0  0  0  0  0  0  0  0  0  0  0
  -42.2866  -25.4750   -1.3253 N   0  0  0  0  0  0  0  0  0  0  0  0
  -44.4766  -28.8639    1.1219 N   0  0  0  0  0  0  0  0  0  0  0  0
  -44.0884  -22.3409   -1.7242 N   0  0  0  0  0  0  0  0  0  0  0  0
  -43.7374  -29.4579   -1.0155 O   0  0  0  0  0  0  0  0  0  0  0  0
  -41.8886  -22.9074   -2.0371 O   0  0  0  0  0  0  0  0  0  0  0  0
  -48.2665  -27.9732    7.3280 H   0  0  0  0  0  0  0  0  0  0  0  0
  -50.5535  -28.5158    6.4923 H   0  0  0  0  0  0  0  0  0  0  0  0
  -45.8488  -26.6044   -0.2752 H   0  0  0  0  0  0  0  0  0  0  0  0
  -46.3376  -28.0956    5.7739 H   0  0  0  0  0  0  0  0  0  0  0  0
  -45.4348  -24.2592   -0.9529 H   0  0  0  0  0  0  0  0  0  0  0  0
  -50.8113  -29.1672    4.0916 H   0  0  0  0  0  0  0  0  0  0  0  0
  -41.6845  -27.4100   -0.9694 H   0  0  0  0  0  0  0  0  0  0  0  0
  -45.2931  -27.3068    4.0829 H   0  0  0  0  0  0  0  0  0  0  0  0
  -44.0293  -26.9979    1.9273 H   0  0  0  0  0  0  0  0  0  0  0  0
  -43.3225  -28.3572    2.8185 H   0  0  0  0  0  0  0  0  0  0  0  0
  -47.0381  -30.7001    2.3882 H   0  0  0  0  0  0  0  0  0  0  0  0
  -47.2453  -29.3826    1.2298 H   0  0  0  0  0  0  0  0  0  0  0  0
  -44.6620  -30.7690    2.0242 H   0  0  0  0  0  0  0  0  0  0  0  0
  -45.3578  -30.5978    0.4114 H   0  0  0  0  0  0  0  0  0  0  0  0
  -45.0306  -22.5875   -1.4414 H   0  0  0  0  0  0  0  0  0  0  0  0
  -43.9433  -21.3702   -1.9813 H   0  0  0  0  0  0  0  0  0  0  0  0
  1  2  1  0  0  0  0
  1  4  2  0  0  0  0
  2  6  2  0  0  0  0
  3  5  2  0  0  0  0
  3  8  1  0  0  0  0
  4  9  1  0  0  0  0
  5 10  1  0  0  0  0
  6 18  1  0  0  0  0
  7  8  2  0  0  0  0
  7 19  1  0  0  0  0
  8 13  1  0  0  0  0
  9 12  1  0  0  0  0
  9 18  2  0  0  0  0
 10 14  1  0  0  0  0
 10 19  2  0  0  0  0
 11 12  2  0  0  0  0
 11 15  1  0  0  0  0
 12 16  1  0  0  0  0
 13 20  1  0  0  0  0
 13 22  2  0  0  0  0
 14 21  1  0  0  0  0
 14 23  2  0  0  0  0
 15 20  1  0  0  0  0
 16 17  1  0  0  0  0
 17 20  1  0  0  0  0
  1 24  1  0  0  0  0
  2 25  1  0  0  0  0
  3 26  1  0  0  0  0
  4 27  1  0  0  0  0
  5 28  1  0  0  0  0
  6 29  1  0  0  0  0
  7 30  1  0  0  0  0
 11 31  1  0  0  0  0
 15 32  1  0  0  0  0
 15 33  1  0  0  0  0
 16 34  1  0  0  0  0
 16 35  1  0  0  0  0
 17 36  1  0  0  0  0
 17 37  1  0  0  0  0
 21 38  1  0  0  0  0
 21 39  1  0  0  0  0
M  END
> <POSIT::Probability>
0.05

> <POSIT::Method>
FRED

> <ReceptorTitle>
UCSF-P4528-REFINED_LIGAND-BOUND-STATE_A__DU__LA1_A-201(A)

> <OMEGA_C>
B61BwmgT4sGEVclApshGwoN65MFilrpAN2UzwtBd0sGQdhG/V1k9wseg4sE0eK1Av3wywjrSx8HQ
n3K/3lhHwpBe58HDAZBAQi4qwuv71cGsS3O/fS8vwp6i2cFQEhG/OlU+wuOZ5cH0fINANVYtwiz3
xMEWOai/WH41wsUG4MEQDFBAl9o5wq9K5sEVB0lAhQQwwkfY5MEgwy2++SgswhwPusFsHdy/it4w
wq4b4MFwsRJABFM6wu047sHAgwBA3+g0wkS68MFsI7A/2TxDwln+58E8/WdAgiUpwuHMy8Feo6m/
FOgxwjnp5sH6m48/kFowwhi6ssFssty/EPMuwrGp68Fw+4G/940nwmdCt8GHXwLA5xBBwi/J38GU
fupA1TZKwlwg5MEDwc9AL2U3wrbV1MGI64y+vFk5wsbD4MEbxLhAOr01wtYSwsGU7nO/0T5LwnBW
6cF+7oJA6rwmwqdH28EAKHi/Jiw1wk502sFUp4JA+R0wwr3718HIsPY/M0otwn/b4sHkYTRAECc8
wtiZ9cEY2BhAKvs8wowP68EEaZ0/2qUywt8m9sEejQFAcG41wmTI9MEYp9I+Wh80wiOztMFOgbi/
88UvwjP2qsG8mv2/

> <OMEGA_E>
Jv8WwQ==

> <OMEGA_NBR>
     61664

$$$$
CACHE3HI_1702_50
  -OEChem-03092622573D

 39 41  0     0  0  0  0  0  0999 V2000
  -45.6950  -23.6370   -1.8053 C   0  0  0  0  0  0  0  0  0  0  0  0
  -44.9065  -22.7375   -2.5141 C   0  0  0  0  0  0  0  0  0  0  0  0
  -45.1157  -24.7703   -1.2456 C   0  0  0  0  0  0  0  0  0  0  0  0
  -46.5181  -28.6293    5.4130 C   0  0  0  0  0  0  0  0  0  0  0  0
  -45.7242  -28.3005    4.3284 C   0  0  0  0  0  0  0  0  0  0  0  0
  -43.5538  -23.0151   -2.6335 C   0  0  0  0  0  0  0  0  0  0  0  0
  -43.7541  -24.9571   -1.4217 C   0  0  0  0  0  0  0  0  0  0  0  0
  -47.8587  -28.8653    5.1836 C   0  0  0  0  0  0  0  0  0  0  0  0
  -46.3233  -28.2291    3.0869 C   0  0  0  0  0  0  0  0  0  0  0  0
  -43.0885  -26.1345   -0.8511 C   0  0  0  0  0  0  0  0  0  0  0  0
  -48.7517  -29.2151    6.2728 C   0  0  0  0  0  0  0  0  0  0  0  0
  -44.0910  -27.6459    2.2411 C   0  0  0  0  0  0  0  0  0  0  0  0
  -46.1207  -27.2072    0.8403 C   0  0  0  0  0  0  0  0  0  0  0  0
  -43.2723  -27.8023    0.9621 C   0  0  0  0  0  0  0  0  0  0  0  0
  -45.2625  -27.3840   -0.4095 C   0  0  0  0  0  0  0  0  0  0  0  0
  -42.9558  -24.1056   -2.1035 N   0  0  0  0  0  0  0  0  0  0  0  0
  -48.4184  -28.7885    3.9574 N   0  0  0  0  0  0  0  0  0  0  0  0
  -47.6383  -28.4651    2.8918 N   0  0  0  0  0  0  0  0  0  0  0  0
  -45.5186  -27.8957    1.9890 N   0  0  0  0  0  0  0  0  0  0  0  0
  -43.8658  -27.0469   -0.1345 N   0  0  0  0  0  0  0  0  0  0  0  0
  -48.2114  -29.3042    7.5537 N   0  0  0  0  0  0  0  0  0  0  0  0
  -41.8771  -26.2206   -1.0424 O   0  0  0  0  0  0  0  0  0  0  0  0
  -49.9659  -29.4139    6.0815 O   0  0  0  0  0  0  0  0  0  0  0  0
  -46.7595  -23.4565   -1.6900 H   0  0  0  0  0  0  0  0  0  0  0  0
  -45.3369  -21.8490   -2.9616 H   0  0  0  0  0  0  0  0  0  0  0  0
  -45.7211  -25.4792   -0.6907 H   0  0  0  0  0  0  0  0  0  0  0  0
  -46.0900  -28.6968    6.4075 H   0  0  0  0  0  0  0  0  0  0  0  0
  -44.6652  -28.1072    4.4646 H   0  0  0  0  0  0  0  0  0  0  0  0
  -42.8955  -22.3463   -3.1782 H   0  0  0  0  0  0  0  0  0  0  0  0
  -43.7287  -28.3454    3.0027 H   0  0  0  0  0  0  0  0  0  0  0  0
  -43.9561  -26.6312    2.6305 H   0  0  0  0  0  0  0  0  0  0  0  0
  -46.2239  -26.1443    1.0793 H   0  0  0  0  0  0  0  0  0  0  0  0
  -47.1240  -27.5958    0.6376 H   0  0  0  0  0  0  0  0  0  0  0  0
  -42.2633  -27.4207    1.1110 H   0  0  0  0  0  0  0  0  0  0  0  0
  -43.2064  -28.8548    0.6996 H   0  0  0  0  0  0  0  0  0  0  0  0
  -45.2831  -28.4202   -0.7418 H   0  0  0  0  0  0  0  0  0  0  0  0
  -45.6409  -26.7617   -1.2157 H   0  0  0  0  0  0  0  0  0  0  0  0
  -47.2334  -29.1182    7.7474 H   0  0  0  0  0  0  0  0  0  0  0  0
  -48.7870  -29.5282    8.3585 H   0  0  0  0  0  0  0  0  0  0  0  0
  1  2  1  0  0  0  0
  1  3  2  0  0  0  0
  2  6  2  0  0  0  0
  3  7  1  0  0  0  0
  4  5  2  0  0  0  0
  4  8  1  0  0  0  0
  5  9  1  0  0  0  0
  6 16  1  0  0  0  0
  7 10  1  0  0  0  0
  7 16  2  0  0  0  0
  8 11  1  0  0  0  0
  8 17  2  0  0  0  0
  9 18  2  0  0  0  0
  9 19  1  0  0  0  0
 10 20  1  0  0  0  0
 10 22  2  0  0  0  0
 11 21  1  0  0  0  0
 11 23  2  0  0  0  0
 12 14  1  0  0  0  0
 12 19  1  0  0  0  0
 13 15  1  0  0  0  0
 13 19  1  0  0  0  0
 14 20  1  0  0  0  0
 15 20  1  0  0  0  0
 17 18  1  0  0  0  0
  1 24  1  0  0  0  0
  2 25  1  0  0  0  0
  3 26  1  0  0  0  0
  4 27  1  0  0  0  0
  5 28  1  0  0  0  0
  6 29  1  0  0  0  0
 12 30  1  0  0  0  0
 12 31  1  0  0  0  0
 13 32  1  0  0  0  0
 13 33  1  0  0  0  0
 14 34  1  0  0  0  0
 14 35  1  0  0  0  0
 15 36  1  0  0  0  0
 15 37  1  0  0  0  0
 21 38  1  0  0  0  0
 21 39  1  0  0  0  0
M  END
> <POSIT::Probability>
0.05

> <POSIT::Method>
FRED

> <ReceptorTitle>
UCSF-P4528-REFINED_LIGAND-BOUND-STATE_A__DU__LA1_A-201(A)

> <OMEGA_C>
qsc2wp8YvcGIFOe/O6AzwmbmtcGL5iDAfHY0wo4pxsEccJ+/hRI6wrkI5cE1N61AneU2wnNn4sFl
gopAGTcuwtgeuMGIiyjAPwQvwjyox8Hw+LW/Um8/wjvs5sHq36VAFEs5wiDV4cHyj0VAmVoswnoT
0cEY5Fm/vQFDwpa46cGvushAJF0wwrYq3cH2bg9AoHs4wkCo2cEkHlc/2hYtwg1r3sEoS3Y/zAw1
wmkS28EgrtG+utIrwlrYwMGNoAbAbaxBwuJO5sGqRn1Alo0+wpu448HjEjlAExM2wnUq38G2l/4/
mHYvwvxf2MEQwAm+bdhAwgRv6sEsuPFAM4InwsfD0cE6boW/Ft1Hwp1P68Fum8JArgk7wvimu8G4
UNi//Fg1wsLKrsEVij3AZOI2woDVy8EgzzC/LFw4wveS5cEjCs1AJakywpLb4MEH3o5AB5UrwkPF
ssHvZ0vAL+ouwmzD4sF6LEBABtMvwrwM1cGxWihAQOU4wpon0cHAJ4o/+348wkLE3MFkOSM/kw0p
wqZd28H8NI4/V9MswonW5sEAGzM/6CE1woFc48F44z2/S5A2wgkY1sFwnZu/A+88whzy6MGh6vdA
7iVDwtM57MGQvAVB

> <OMEGA_E>
9HAFwQ==

> <OMEGA_NBR>
     62933

$$$$
CACHE3HI_1702_6
  -OEChem-03092622573D

 48 49  0     1  0  0  0  0  0999 V2000
  -45.6142  -28.8621    1.7575 C   0  0  0  0  0  0  0  0  0  0  0  0
  -45.7076  -31.0120    1.0939 C   0  0  0  0  0  0  0  0  0  0  0  0
  -46.3733  -30.0563    1.8296 C   0  0  0  0  0  0  0  0  0  0  0  0
  -44.5076  -29.1245    0.9803 C   0  0  0  0  0  0  0  0  0  0  0  0
  -47.6392  -30.2822    2.5425 C   0  0  0  0  0  0  0  0  0  0  0  0
  -51.0536  -29.2225    6.7939 C   0  0  0  0  0  0  0  0  0  0  0  0
  -47.5449  -28.3144    5.6845 C   0  0  0  0  0  0  0  0  0  0  0  0
  -46.9928  -28.5275    4.2802 C   0  0  0  0  0  0  0  0  0  0  0  0
  -49.0445  -29.7616    4.5209 C   0  0  0  0  0  0  0  0  0  0  0  0
  -49.0347  -28.6005    5.5064 C   0  0  1  0  0  0  0  0  0  0  0  0
  -53.8859  -28.6865    7.7937 C   0  0  0  0  0  0  0  0  0  0  0  0
  -53.0089  -28.8087   10.1343 C   0  0  0  0  0  0  0  0  0  0  0  0
  -43.6117  -31.1223   -0.2486 C   0  0  0  0  0  0  0  0  0  0  0  0
  -51.5132  -29.4629    8.2236 C   0  0  0  0  0  0  0  0  0  0  0  0
  -52.6444  -28.5266    8.6752 C   0  0  0  0  0  0  0  0  0  0  0  0
  -44.5749  -30.4340    0.5824 N   0  0  0  0  0  0  0  0  0  0  0  0
  -47.8699  -29.5376    3.6895 N   0  0  0  0  0  0  0  0  0  0  0  0
  -42.0868  -28.3518    1.7867 N   0  0  0  0  0  0  0  0  0  0  0  0
  -49.7049  -28.8998    6.7377 N   0  0  0  0  0  0  0  0  0  0  0  0
  -48.4059  -31.1237    2.0795 O   0  0  0  0  0  0  0  0  0  0  0  0
  -51.8038  -29.2864    5.8240 O   0  0  0  0  0  0  0  0  0  0  0  0
  -43.6440  -26.7048    0.5598 O   0  0  0  0  0  0  0  0  0  0  0  0
  -42.6076  -28.6089   -0.7240 O   0  0  0  0  0  0  0  0  0  0  0  0
  -43.1666  -28.0706    0.4989 S   0  0  0  0  0  0  0  0  0  0  0  0
  -45.8467  -27.9129    2.2209 H   0  0  0  0  0  0  0  0  0  0  0  0
  -45.9424  -32.0490    0.8920 H   0  0  0  0  0  0  0  0  0  0  0  0
  -47.0871  -29.0331    6.3752 H   0  0  0  0  0  0  0  0  0  0  0  0
  -47.3539  -27.3032    6.0551 H   0  0  0  0  0  0  0  0  0  0  0  0
  -47.0776  -27.6217    3.6733 H   0  0  0  0  0  0  0  0  0  0  0  0
  -45.9547  -28.8654    4.2731 H   0  0  0  0  0  0  0  0  0  0  0  0
  -48.9156  -30.7328    5.0169 H   0  0  0  0  0  0  0  0  0  0  0  0
  -49.9575  -29.7919    3.9148 H   0  0  0  0  0  0  0  0  0  0  0  0
  -49.5302  -27.7297    5.0593 H   0  0  0  0  0  0  0  0  0  0  0  0
  -54.2573  -29.7164    7.8319 H   0  0  0  0  0  0  0  0  0  0  0  0
  -54.6978  -28.0312    8.1239 H   0  0  0  0  0  0  0  0  0  0  0  0
  -53.6642  -28.4480    6.7475 H   0  0  0  0  0  0  0  0  0  0  0  0
  -53.3543  -29.8410   10.2575 H   0  0  0  0  0  0  0  0  0  0  0  0
  -52.1494  -28.6574   10.7962 H   0  0  0  0  0  0  0  0  0  0  0  0
  -53.8144  -28.1465   10.4683 H   0  0  0  0  0  0  0  0  0  0  0  0
  -43.8714  -31.0281   -1.3084 H   0  0  0  0  0  0  0  0  0  0  0  0
  -43.5811  -32.1842    0.0149 H   0  0  0  0  0  0  0  0  0  0  0  0
  -42.6110  -30.6967   -0.1214 H   0  0  0  0  0  0  0  0  0  0  0  0
  -50.6328  -29.3147    8.8625 H   0  0  0  0  0  0  0  0  0  0  0  0
  -51.8224  -30.5105    8.3303 H   0  0  0  0  0  0  0  0  0  0  0  0
  -52.3067  -27.4851    8.6082 H   0  0  0  0  0  0  0  0  0  0  0  0
  -41.2379  -28.8942    1.5878 H   0  0  0  0  0  0  0  0  0  0  0  0
  -41.9455  -27.5936    2.4648 H   0  0  0  0  0  0  0  0  0  0  0  0
  -49.1726  -28.8747    7.6017 H   0  0  0  0  0  0  0  0  0  0  0  0
  1  3  1  0  0  0  0
  1  4  2  0  0  0  0
  2  3  2  0  0  0  0
  2 16  1  0  0  0  0
  3  5  1  0  0  0  0
  4 16  1  0  0  0  0
  4 24  1  0  0  0  0
  5 17  1  0  0  0  0
  5 20  2  0  0  0  0
  6 14  1  0  0  0  0
  6 19  1  0  0  0  0
  6 21  2  0  0  0  0
  7  8  1  0  0  0  0
  7 10  1  0  0  0  0
  8 17  1  0  0  0  0
  9 10  1  0  0  0  0
  9 17  1  0  0  0  0
 10 19  1  0  0  0  0
 11 15  1  0  0  0  0
 12 15  1  0  0  0  0
 13 16  1  0  0  0  0
 14 15  1  0  0  0  0
 18 24  1  0  0  0  0
 22 24  2  0  0  0  0
 23 24  2  0  0  0  0
  1 25  1  0  0  0  0
  2 26  1  0  0  0  0
  7 27  1  0  0  0  0
  7 28  1  0  0  0  0
  8 29  1  0  0  0  0
  8 30  1  0  0  0  0
  9 31  1  0  0  0  0
  9 32  1  0  0  0  0
 10 33  1  0  0  0  0
 11 34  1  0  0  0  0
 11 35  1  0  0  0  0
 11 36  1  0  0  0  0
 12 37  1  0  0  0  0
 12 38  1  0  0  0  0
 12 39  1  0  0  0  0
 13 40  1  0  0  0  0
 13 41  1  0  0  0  0
 13 42  1  0  0  0  0
 14 43  1  0  0  0  0
 14 44  1  0  0  0  0
 15 45  1  0  0  0  0
 18 46  1  0  0  0  0
 18 47  1  0  0  0  0
 19 48  1  0  0  0  0
M  END
> <POSIT::Probability>
0.24

> <POSIT::Method>
FRED

> <ReceptorTitle>
UCSF-P4528-REFINED_LIGAND-BOUND-STATE_A__DU__LA1_A-201(A)

> <OMEGA_C>
73Q2wpDl5sFQ9eA/iNQ2wooY+MH4A4w/RH45wj1z8MFcMeo/ywcywuL+6MHQ83o/lo4+wtxB8sE2
uCJA4DZMwprH6cHtZ9lA9S0+ws6D4sE+57VApvg7wl845MG694hAjS1EwrYX7sFRq5BAjiNEwszN
5ME7NLBAJItXwvR95cEtZvlAFAlUwkN45sECJiJBbXIuwoz6+MHgj36+ew1Owu6z68H4kwNB1pNS
wmY25MGxzQpBq0wyws1488H4GhU/uno/wg9N7MHcIGxA4lgowmTQ4sGEs+Q/0NFGwrIy58HymtdA
m59BwkT9+MFKFwVAIzdPwodK6sHWXbpAdpMuwnGj1cGQUA8/MG4qwgrf5MHYWTm/nKoswoSQ4MFw
df8+A2M3wqVN38H0Iw5ACcU3wicyAMIwWGQ/O1k8wrRD6MGIAcxAbmo9wvVs2sFtw8FAbk88wlj5
3MFAF2tAp9E3wmns5sERvYhAjqlDwtjc9cG0iqBAhNRHwspV7sECjHpA5R5Gwl7W3cH25aFAcwdZ
wjG77cEWn/pAgspawvE/4MFi+wFBI6hWwm6V48GM69dA1GpVwnK67sHkHiRBAJlQwmRC5cE2vSxB
5UFXwhYs4cE0fidBRnwvwpo5+MFeeae/ElMuwpe8AMIAcHM8nnEqwuyS9cHApPi99IdKwnSE6sGp
zA1BIEpPwpsV9MG2SAVBFTpRwobh28EXuwlBmvMkwkgn58FIPss/Ocgnwq6/3MFyvx1AuLBEwl//
5sEXQfNA

> <OMEGA_E>
Zy34wA==

> <OMEGA_NBR>
     64382

$$$$
CACHE3HI_1702_99
  -OEChem-03092622573D

 38 41  0     0  0  0  0  0  0999 V2000
  -41.4281  -29.5605    1.4252 C   0  0  0  0  0  0  0  0  0  0  0  0
  -42.1580  -28.4495    1.8375 C   0  0  0  0  0  0  0  0  0  0  0  0
  -45.1788  -31.0076   -1.3162 C   0  0  0  0  0  0  0  0  0  0  0  0
  -41.9926  -30.4775    0.5372 C   0  0  0  0  0  0  0  0  0  0  0  0
  -43.4552  -28.2512    1.3640 C   0  0  0  0  0  0  0  0  0  0  0  0
  -43.8815  -31.2059   -0.8426 C   0  0  0  0  0  0  0  0  0  0  0  0
  -45.9361  -28.7956    5.2220 C   0  0  0  0  0  0  0  0  0  0  0  0
  -45.9083  -29.8964   -0.9030 C   0  0  0  0  0  0  0  0  0  0  0  0
  -46.5534  -28.8691    6.4734 C   0  0  0  0  0  0  0  0  0  0  0  0
  -48.1007  -28.6516    4.0963 C   0  0  0  0  0  0  0  0  0  0  0  0
  -43.2971  -30.2934    0.0509 C   0  0  0  0  0  0  0  0  0  0  0  0
  -44.0394  -29.1637    0.4703 C   0  0  0  0  0  0  0  0  0  0  0  0
  -46.7031  -28.6875    4.0434 C   0  0  0  0  0  0  0  0  0  0  0  0
  -45.3441  -28.9796   -0.0159 C   0  0  0  0  0  0  0  0  0  0  0  0
  -47.9288  -28.8317    6.4865 C   0  0  0  0  0  0  0  0  0  0  0  0
  -48.6875  -28.7266    5.3407 C   0  0  0  0  0  0  0  0  0  0  0  0
  -50.0909  -28.8104    7.0066 C   0  0  0  0  0  0  0  0  0  0  0  0
  -46.0175  -28.6089    2.7285 C   0  0  0  0  0  0  0  0  0  0  0  0
  -46.1837  -27.8068    0.3865 C   0  0  0  0  0  0  0  0  0  0  0  0
  -48.8111  -28.8841    7.5324 N   0  0  0  0  0  0  0  0  0  0  0  0
  -46.7053  -27.9456    1.7196 N   0  0  0  0  0  0  0  0  0  0  0  0
  -51.1385  -28.8283    7.6404 O   0  0  0  0  0  0  0  0  0  0  0  0
  -44.9162  -29.1355    2.5935 O   0  0  0  0  0  0  0  0  0  0  0  0
  -50.0485  -28.7083    5.6040 O   0  0  0  0  0  0  0  0  0  0  0  0
  -40.4184  -29.7144    1.7947 H   0  0  0  0  0  0  0  0  0  0  0  0
  -41.7177  -27.7364    2.5285 H   0  0  0  0  0  0  0  0  0  0  0  0
  -45.6194  -31.7209   -2.0068 H   0  0  0  0  0  0  0  0  0  0  0  0
  -41.4038  -31.3388    0.2288 H   0  0  0  0  0  0  0  0  0  0  0  0
  -43.9932  -27.3714    1.7093 H   0  0  0  0  0  0  0  0  0  0  0  0
  -43.3289  -32.0811   -1.1783 H   0  0  0  0  0  0  0  0  0  0  0  0
  -44.8500  -28.8220    5.1659 H   0  0  0  0  0  0  0  0  0  0  0  0
  -46.9182  -29.7527   -1.2788 H   0  0  0  0  0  0  0  0  0  0  0  0
  -45.9702  -28.9522    7.3825 H   0  0  0  0  0  0  0  0  0  0  0  0
  -48.7011  -28.5688    3.1972 H   0  0  0  0  0  0  0  0  0  0  0  0
  -45.6006  -26.8788    0.3506 H   0  0  0  0  0  0  0  0  0  0  0  0
  -47.0361  -27.6775   -0.2911 H   0  0  0  0  0  0  0  0  0  0  0  0
  -48.5614  -28.9629    8.5103 H   0  0  0  0  0  0  0  0  0  0  0  0
  -47.6428  -27.5907    1.8954 H   0  0  0  0  0  0  0  0  0  0  0  0
  1  2  1  0  0  0  0
  1  4  2  0  0  0  0
  2  5  2  0  0  0  0
  3  6  1  0  0  0  0
  3  8  2  0  0  0  0
  4 11  1  0  0  0  0
  5 12  1  0  0  0  0
  6 11  2  0  0  0  0
  7  9  2  0  0  0  0
  7 13  1  0  0  0  0
  8 14  1  0  0  0  0
  9 15  1  0  0  0  0
 10 13  2  0  0  0  0
 10 16  1  0  0  0  0
 11 12  1  0  0  0  0
 12 14  2  0  0  0  0
 13 18  1  0  0  0  0
 14 19  1  0  0  0  0
 15 16  2  0  0  0  0
 15 20  1  0  0  0  0
 16 24  1  0  0  0  0
 17 20  1  0  0  0  0
 17 22  2  0  0  0  0
 17 24  1  0  0  0  0
 18 21  1  0  0  0  0
 18 23  2  0  0  0  0
 19 21  1  0  0  0  0
  1 25  1  0  0  0  0
  2 26  1  0  0  0  0
  3 27  1  0  0  0  0
  4 28  1  0  0  0  0
  5 29  1  0  0  0  0
  6 30  1  0  0  0  0
  7 31  1  0  0  0  0
  8 32  1  0  0  0  0
  9 33  1  0  0  0  0
 10 34  1  0  0  0  0
 19 35  1  0  0  0  0
 19 36  1  0  0  0  0
 20 37  1  0  0  0  0
 21 38  1  0  0  0  0
M  END
> <POSIT::Probability>
0.18

> <POSIT::Method>
HYBRID

> <ReceptorTitle>
UCSF-P4528-REFINED_LIGAND-BOUND-STATE_A__DU__LA1_A-201(A)

> <OMEGA_C>
YrYlwtp77MHcbbY/vqEowpCY48EUNOs/E7c0wpAP+MHAeKi/avgnwuTR88EYhwk/HdItwmwC4sF8
lq4/tYYvwrKl+cEotle/hr43wlJd5sHcGqdAIaI3wuIr78GgKWe/tDY6wvbz5sFBJs9AEmdAwm42
5cGkFINARjAtwupY8sGATFA9WCgwwjVP6cEAyvA++886wu1/5cFEY4FAZ2A1wjzW58EAEYK8FLc/
wmKn5sGKkc9A979CwgTQ5cHW5qpAD11Iwqx75sEyNuBA4RE4wgrf5MH4ni5AG7w4wjp03sEQ5cU+
jD5Dwq4S58GsCfFAL9I6wqSQ38GYHNw/3I1Mwk6g5sFGfvRAK6ozwoQV6cFm/CVAsDFIwq6q5cHm
U7NAb6whwhS37cFEt+U/+d4mwirk3cFs0iFASno2wljE/cEUbwDAcp0lwtS1+sHAQmo+A/kvwpr4
2sHwyto/xFAtwgRTAMJY05a/a2Yzwn6T5sEaT6VAOqw7wpUF7sGwr6O/d+E3whue58HPPexA+s1C
wvCM5MGsnkxA+WY2wrAH18FgfbM+/iQ8woJr3cFAB5W+4D5Cwg6058EgKghBL5I+wtm53MHknfI/

> <OMEGA_E>
4p0bwQ==

> <OMEGA_NBR>
     65640

$$$$
CACHE3HI_1704_10
  -OEChem-03092622573D

 46 49  0     1  0  0  0  0  0999 V2000
  -52.5446  -30.7658    6.2945 C   0  0  0  0  0  0  0  0  0  0  0  0
  -52.1751  -29.8179    7.2361 C   0  0  0  0  0  0  0  0  0  0  0  0
  -43.1741  -28.4881    0.9280 C   0  0  0  0  0  0  0  0  0  0  0  0
  -44.3226  -28.8228    1.6454 C   0  0  0  0  0  0  0  0  0  0  0  0
  -51.6940  -31.0410    5.2231 C   0  0  0  0  0  0  0  0  0  0  0  0
  -43.1715  -27.3647    0.1013 C   0  0  0  0  0  0  0  0  0  0  0  0
  -50.9661  -29.1442    7.0910 C   0  0  0  0  0  0  0  0  0  0  0  0
  -45.4655  -26.9108    0.7096 C   0  0  0  0  0  0  0  0  0  0  0  0
  -45.4682  -28.0342    1.5364 C   0  0  0  0  0  0  0  0  0  0  0  0
  -44.3171  -26.5762   -0.0078 C   0  0  0  0  0  0  0  0  0  0  0  0
  -50.4583  -30.3792    5.0653 C   0  0  0  0  0  0  0  0  0  0  0  0
  -50.1128  -29.3997    6.0018 C   0  0  0  0  0  0  0  0  0  0  0  0
  -43.2390  -24.9643   -1.6358 C   0  0  0  0  0  0  0  0  0  0  0  0
  -48.4294  -30.5138    3.5257 C   0  0  0  0  0  0  0  0  0  0  0  0
  -46.6904  -28.3915    2.3003 C   0  0  0  0  0  0  0  0  0  0  0  0
  -43.7409  -23.7845   -2.4345 C   0  0  0  0  0  0  0  0  0  0  0  0
  -44.9761  -23.3377   -1.6778 C   0  0  0  0  0  0  0  0  0  0  0  0
  -45.4993  -24.6183   -1.0602 C   0  0  0  0  0  0  0  0  0  0  0  0
  -48.4114  -28.3446    4.7542 C   0  0  0  0  0  0  0  0  0  0  0  0
  -47.5894  -29.5441    4.3285 C   0  0  2  0  0  0  0  0  0  0  0  0
  -49.6967  -30.8205    3.9596 N   0  0  0  0  0  0  0  0  0  0  0  0
  -44.3134  -25.4277   -0.8536 N   0  0  0  0  0  0  0  0  0  0  0  0
  -46.4863  -29.0986    3.4767 N   0  0  0  0  0  0  0  0  0  0  0  0
  -42.1053  -25.4050   -1.7580 O   0  0  0  0  0  0  0  0  0  0  0  0
  -47.9763  -31.0754    2.5215 O   0  0  0  0  0  0  0  0  0  0  0  0
  -47.7901  -28.0708    1.8574 O   0  0  0  0  0  0  0  0  0  0  0  0
  -48.9949  -28.6186    6.0203 O   0  0  0  0  0  0  0  0  0  0  0  0
  -53.4862  -31.2972    6.3929 H   0  0  0  0  0  0  0  0  0  0  0  0
  -52.8247  -29.5993    8.0779 H   0  0  0  0  0  0  0  0  0  0  0  0
  -42.2820  -29.1017    1.0129 H   0  0  0  0  0  0  0  0  0  0  0  0
  -44.3135  -29.7005    2.2866 H   0  0  0  0  0  0  0  0  0  0  0  0
  -52.0052  -31.8029    4.5096 H   0  0  0  0  0  0  0  0  0  0  0  0
  -42.2712  -27.1131   -0.4534 H   0  0  0  0  0  0  0  0  0  0  0  0
  -50.6925  -28.3949    7.8316 H   0  0  0  0  0  0  0  0  0  0  0  0
  -46.3591  -26.2958    0.6244 H   0  0  0  0  0  0  0  0  0  0  0  0
  -42.9857  -22.9963   -2.4834 H   0  0  0  0  0  0  0  0  0  0  0  0
  -43.9898  -24.1263   -3.4442 H   0  0  0  0  0  0  0  0  0  0  0  0
  -44.6950  -22.6293   -0.8890 H   0  0  0  0  0  0  0  0  0  0  0  0
  -45.7099  -22.8511   -2.3266 H   0  0  0  0  0  0  0  0  0  0  0  0
  -46.0185  -24.4401   -0.1130 H   0  0  0  0  0  0  0  0  0  0  0  0
  -46.1625  -25.1538   -1.7492 H   0  0  0  0  0  0  0  0  0  0  0  0
  -47.7586  -27.4784    4.9156 H   0  0  0  0  0  0  0  0  0  0  0  0
  -49.1682  -28.0373    4.0201 H   0  0  0  0  0  0  0  0  0  0  0  0
  -47.1517  -30.0690    5.1760 H   0  0  0  0  0  0  0  0  0  0  0  0
  -50.1620  -31.5175    3.3816 H   0  0  0  0  0  0  0  0  0  0  0  0
  -45.5480  -29.3818    3.7448 H   0  0  0  0  0  0  0  0  0  0  0  0
  1  2  1  0  0  0  0
  1  5  2  0  0  0  0
  2  7  2  0  0  0  0
  3  4  2  0  0  0  0
  3  6  1  0  0  0  0
  4  9  1  0  0  0  0
  5 11  1  0  0  0  0
  6 10  2  0  0  0  0
  7 12  1  0  0  0  0
  8  9  2  0  0  0  0
  8 10  1  0  0  0  0
  9 15  1  0  0  0  0
 10 22  1  0  0  0  0
 11 12  2  0  0  0  0
 11 21  1  0  0  0  0
 12 27  1  0  0  0  0
 13 16  1  0  0  0  0
 13 22  1  0  0  0  0
 13 24  2  0  0  0  0
 14 20  1  0  0  0  0
 14 21  1  0  0  0  0
 14 25  2  0  0  0  0
 15 23  1  0  0  0  0
 15 26  2  0  0  0  0
 16 17  1  0  0  0  0
 17 18  1  0  0  0  0
 18 22  1  0  0  0  0
 19 20  1  0  0  0  0
 19 27  1  0  0  0  0
 20 23  1  0  0  0  0
  1 28  1  0  0  0  0
  2 29  1  0  0  0  0
  3 30  1  0  0  0  0
  4 31  1  0  0  0  0
  5 32  1  0  0  0  0
  6 33  1  0  0  0  0
  7 34  1  0  0  0  0
  8 35  1  0  0  0  0
 16 36  1  0  0  0  0
 16 37  1  0  0  0  0
 17 38  1  0  0  0  0
 17 39  1  0  0  0  0
 18 40  1  0  0  0  0
 18 41  1  0  0  0  0
 19 42  1  0  0  0  0
 19 43  1  0  0  0  0
 20 44  1  0  0  0  0
 21 45  1  0  0  0  0
 23 46  1  0  0  0  0
M  END
> <POSIT::Probability>
0.02

> <POSIT::Method>
FRED

> <ReceptorTitle>
UCSF-P4528-REFINED_LIGAND-BOUND-STATE_A__DU__LA1_A-201(A)

> <OMEGA_C>
sC1SwkMg9sFNbMlATrNQwv+K7sHfjedATLIswqXn48Eykm0/XkoxwgiV5sF+nNI/oMZOwgpU+MF8
I6dAp68swv3q2sEgbs89Q91Lwl0n6cEy6eJAuNw1wkZJ18H0pzU/ZN81wgJG4MGCp8Q/rUQxwveb
1MEAGv67S9VJwpYI88EoF6JAiXNIwnwy68EWD8BAwfQswvS2x8GYYdG/sbdBwkcc9MGxpWFA/sI6
wsgh48HmOBNArPYuwq1GvsHCzhvAeuczwpGzusEGw9a/Pv81wkXyxMEis4e/OaVBwrnB4sGiIphA
lVs+wk5a7MFSg4pAaslGwm+Q9sFOan1A8kAxwtdry8EoiFq//vE5wvnJ6MHQgl5AymsowmI9y8Go
BOG/uec/wnma+MH1YCFAEyk/whGR4MFiv+0/xPpDwvzy5MGEpsBA6/FVwrtg+sGiksxAikxTwkTL
7MECPwFByCApwjbQ6MGApoE/C0ExwrGa7cG7VxJAUQVQwl9s/sE8TpBAsxUpwpPn2MEgHui+HMVK
wtko48FTnPpArW85wrVd0sGs2B8/T/Erwmf4t8Gy8B7AjfUvwrICwcEmbVzAtscyws0ItcFQlmO/
6dY2whvPtsHC5hTA8BI4wkqFw8FAgOe9XaY4wuM6ycFo5d+/2gg/wrTT28F0TJ1ANaxEwlxM4MGF
pIBAYps8wkeN8MH8oaVA6aVIwuAj/MG0a1hAHDE2wtMN68ESqm9A

> <OMEGA_E>
orP6wA==

> <OMEGA_NBR>
     67055

$$$$
CACHE3HI_1704_101
  -OEChem-03092622573D

 54 57  0     1  0  0  0  0  0999 V2000
  -45.9767  -32.4977    2.1870 C   0  0  0  0  0  0  0  0  0  0  0  0
  -46.2951  -33.2893    1.0857 C   0  0  0  0  0  0  0  0  0  0  0  0
  -44.9261  -31.5752    2.1272 C   0  0  0  0  0  0  0  0  0  0  0  0
  -46.2188  -29.0453    5.2727 C   0  0  0  0  0  0  0  0  0  0  0  0
  -47.0999  -28.3910    3.1202 C   0  0  0  0  0  0  0  0  0  0  0  0
  -45.5763  -33.1856   -0.1081 C   0  0  0  0  0  0  0  0  0  0  0  0
  -47.5151  -29.2783    5.7318 C   0  0  0  0  0  0  0  0  0  0  0  0
  -48.3962  -28.6240    3.5793 C   0  0  0  0  0  0  0  0  0  0  0  0
  -42.7900  -30.9703   -0.7761 C   0  0  0  0  0  0  0  0  0  0  0  0
  -44.1872  -31.4524    0.9335 C   0  0  0  0  0  0  0  0  0  0  0  0
  -46.0113  -28.6017    3.9667 C   0  0  0  0  0  0  0  0  0  0  0  0
  -43.0886  -30.6444    0.5266 C   0  0  0  0  0  0  0  0  0  0  0  0
  -44.5284  -32.2588   -0.1543 C   0  0  0  0  0  0  0  0  0  0  0  0
  -48.6038  -29.0676    4.8854 C   0  0  0  0  0  0  0  0  0  0  0  0
  -44.6316  -28.3526    3.4770 C   0  0  0  0  0  0  0  0  0  0  0  0
  -43.4035  -27.7041    0.1050 C   0  0  0  0  0  0  0  0  0  0  0  0
  -44.9638  -23.6076   -2.1188 C   0  0  0  0  0  0  0  0  0  0  0  0
  -44.5902  -24.9627   -1.5729 C   0  0  0  0  0  0  0  0  0  0  0  0
  -43.8425  -23.3465   -3.1023 C   0  0  0  0  0  0  0  0  0  0  0  0
  -43.0773  -24.8505   -1.4944 C   0  0  1  0  0  0  0  0  0  0  0  0
  -42.3717  -29.6128    1.3651 C   0  0  0  0  0  0  0  0  0  0  0  0
  -42.3662  -26.1874   -1.5706 C   0  0  0  0  0  0  0  0  0  0  0  0
  -43.1530  -28.2997    1.4854 C   0  0  2  0  0  0  0  0  0  0  0  0
  -43.6636  -31.9451   -1.1785 N   0  0  0  0  0  0  0  0  0  0  0  0
  -44.4385  -28.4860    2.1089 N   0  0  0  0  0  0  0  0  0  0  0  0
  -42.3867  -26.8436   -0.2836 N   0  0  0  0  0  0  0  0  0  0  0  0
  -43.7506  -28.0684    4.2840 O   0  0  0  0  0  0  0  0  0  0  0  0
  -44.3775  -27.9976   -0.5854 O   0  0  0  0  0  0  0  0  0  0  0  0
  -42.6801  -24.0225   -2.6003 O   0  0  0  0  0  0  0  0  0  0  0  0
  -50.2028  -29.3558    5.4525 Cl  0  0  0  0  0  0  0  0  0  0  0  0
  -46.5504  -32.5964    3.1045 H   0  0  0  0  0  0  0  0  0  0  0  0
  -47.1155  -33.9992    1.1548 H   0  0  0  0  0  0  0  0  0  0  0  0
  -44.6908  -30.9645    2.9942 H   0  0  0  0  0  0  0  0  0  0  0  0
  -45.3776  -29.2118    5.9404 H   0  0  0  0  0  0  0  0  0  0  0  0
  -46.9489  -28.0446    2.1010 H   0  0  0  0  0  0  0  0  0  0  0  0
  -45.8251  -33.8019   -0.9653 H   0  0  0  0  0  0  0  0  0  0  0  0
  -47.6617  -29.6240    6.7522 H   0  0  0  0  0  0  0  0  0  0  0  0
  -49.2350  -28.4554    2.9088 H   0  0  0  0  0  0  0  0  0  0  0  0
  -42.0351  -30.5975   -1.4545 H   0  0  0  0  0  0  0  0  0  0  0  0
  -45.9536  -23.5765   -2.5815 H   0  0  0  0  0  0  0  0  0  0  0  0
  -44.9377  -22.8623   -1.3150 H   0  0  0  0  0  0  0  0  0  0  0  0
  -45.0508  -25.1839   -0.6062 H   0  0  0  0  0  0  0  0  0  0  0  0
  -44.8913  -25.7414   -2.2841 H   0  0  0  0  0  0  0  0  0  0  0  0
  -44.0731  -23.7679   -4.0866 H   0  0  0  0  0  0  0  0  0  0  0  0
  -43.6274  -22.2809   -3.2205 H   0  0  0  0  0  0  0  0  0  0  0  0
  -42.7835  -24.3264   -0.5766 H   0  0  0  0  0  0  0  0  0  0  0  0
  -42.1900  -30.0445    2.3585 H   0  0  0  0  0  0  0  0  0  0  0  0
  -41.3739  -29.4251    0.9457 H   0  0  0  0  0  0  0  0  0  0  0  0
  -42.8593  -26.8260   -2.3106 H   0  0  0  0  0  0  0  0  0  0  0  0
  -41.3300  -26.0397   -1.8922 H   0  0  0  0  0  0  0  0  0  0  0  0
  -42.6109  -27.5693    2.0983 H   0  0  0  0  0  0  0  0  0  0  0  0
  -43.6724  -32.3729   -2.0940 H   0  0  0  0  0  0  0  0  0  0  0  0
  -45.2061  -28.7859    1.5137 H   0  0  0  0  0  0  0  0  0  0  0  0
  -41.6368  -26.6304    0.3677 H   0  0  0  0  0  0  0  0  0  0  0  0
  1  2  1  0  0  0  0
  1  3  2  0  0  0  0
  2  6  2  0  0  0  0
  3 10  1  0  0  0  0
  4  7  2  0  0  0  0
  4 11  1  0  0  0  0
  5  8  1  0  0  0  0
  5 11  2  0  0  0  0
  6 13  1  0  0  0  0
  7 14  1  0  0  0  0
  8 14  2  0  0  0  0
  9 12  2  0  0  0  0
  9 24  1  0  0  0  0
 10 12  1  0  0  0  0
 10 13  2  0  0  0  0
 11 15  1  0  0  0  0
 12 21  1  0  0  0  0
 13 24  1  0  0  0  0
 14 30  1  0  0  0  0
 15 25  1  0  0  0  0
 15 27  2  0  0  0  0
 16 23  1  0  0  0  0
 16 26  1  0  0  0  0
 16 28  2  0  0  0  0
 17 18  1  0  0  0  0
 17 19  1  0  0  0  0
 18 20  1  0  0  0  0
 19 29  1  0  0  0  0
 20 22  1  0  0  0  0
 20 29  1  0  0  0  0
 21 23  1  0  0  0  0
 22 26  1  0  0  0  0
 23 25  1  0  0  0  0
  1 31  1  0  0  0  0
  2 32  1  0  0  0  0
  3 33  1  0  0  0  0
  4 34  1  0  0  0  0
  5 35  1  0  0  0  0
  6 36  1  0  0  0  0
  7 37  1  0  0  0  0
  8 38  1  0  0  0  0
  9 39  1  0  0  0  0
 17 40  1  0  0  0  0
 17 41  1  0  0  0  0
 18 42  1  0  0  0  0
 18 43  1  0  0  0  0
 19 44  1  0  0  0  0
 19 45  1  0  0  0  0
 20 46  1  0  0  0  0
 21 47  1  0  0  0  0
 21 48  1  0  0  0  0
 22 49  1  0  0  0  0
 22 50  1  0  0  0  0
 23 51  1  0  0  0  0
 24 52  1  0  0  0  0
 25 53  1  0  0  0  0
 26 54  1  0  0  0  0
M  END
> <POSIT::Probability>
0.24

> <POSIT::Method>
FRED

> <ReceptorTitle>
UCSF-P4528-REFINED_LIGAND-BOUND-STATE_A__DU__LA1_A-201(A)

> <OMEGA_C>
Jug3wqz9AcIp+AtAMS45wkEoBcLi94o/XbQzwg6a/MF0JAhAA+A4wrFc6MHQuahAUGY8wr4g48He
sUdAGk42wga+BMLAad29fg8+wgQ66sEoa7dAwpVBwgr+5MG+E2VAACkrwiLD98GAsUa/ub8wwnye
+8Es+m4/jQs4wj7Q5MEt3n1As1oswqMn9cHo0AY/CR0ywgMJAcLA/x2+QWpCwoSK6MEBVZxAy4Yy
wgbS4sETh15AN50twvCh3cGA+dY95dozwm3cvMHYmgfAVlwywqazx8ESVcm/vl4vwrzFusGsjEbA
IE8swsjNxsHIR7+/nXwpwhLn7MHgu64/8nYpwst/0cHaCMm/opwswsBl4sEqIb4/h6cuwpCP/8Gc
15a/CcExwmfj48Fi+AZA74spwqe/1sHQN5G+lQAvwiCM4MHrFolAlIIxwg3738HQ3BW/Zrgqwhou
wMGvaybAqM9Iwp/Y6sHAeq5ApTM6wq5iAsL5r0ZASHY8wjX/B8IQ0JM/WMMywlC398G8oD9ApYI1
wsCx6cH7F75Apss7wldb4MH4dQZA4Uw3wio1B8LAH3e/mqU+wuv97MH9EdhAovBEwsGk48GmKTpA
7CMowpXH9MH8LLq/c9A3wpecvMFyNyXAP8AzwgHmtsGOUKi/+TM0wql4ycFYLRu/vpAzwnfuzcG0
LhLA10owwrIkvsGixYLAb4IuwkY/ssGUHE7ARiIrwmicwsHsnRO/lMIowgxb8MFo8RZA034lwodm
68FAFnI/4W8rwq+b1sFa4RPA9FElwlNR0ME0M/K/mHEqwvaN3MEQSwZAfbAuwuZ9AcLYBAbAAdM0
wnBJ5sHMwcE/G4wmwgML1cGQP7w+

> <OMEGA_E>
x2MYwQ==

> <OMEGA_NBR>
     68638

$$$$
CACHE3HI_1704_13
  -OEChem-03092622573D

 44 46  0     0  0  0  0  0  0999 V2000
  -42.5535  -36.4010   -2.8220 C   0  0  0  0  0  0  0  0  0  0  0  0
  -43.6082  -35.8229   -2.9848 C   0  0  0  0  0  0  0  0  0  0  0  0
  -46.4082  -28.7566    6.7013 C   0  0  0  0  0  0  0  0  0  0  0  0
  -47.1118  -28.7628    5.4813 C   0  0  0  0  0  0  0  0  0  0  0  0
  -45.0081  -28.9305    6.7095 C   0  0  0  0  0  0  0  0  0  0  0  0
  -46.4148  -28.9457    4.2720 C   0  0  0  0  0  0  0  0  0  0  0  0
  -44.3064  -29.0991    5.4982 C   0  0  0  0  0  0  0  0  0  0  0  0
  -44.0400  -29.6895    0.9745 C   0  0  0  0  0  0  0  0  0  0  0  0
  -45.0096  -29.1137    4.2758 C   0  0  0  0  0  0  0  0  0  0  0  0
  -43.3212  -28.4578    1.3480 C   0  0  0  0  0  0  0  0  0  0  0  0
  -44.6364  -30.1624    2.1171 C   0  0  0  0  0  0  0  0  0  0  0  0
  -42.6105  -27.5819    0.4176 C   0  0  0  0  0  0  0  0  0  0  0  0
  -44.6122  -32.7067   -1.0912 C   0  0  0  0  0  0  0  0  0  0  0  0
  -44.2505  -30.3355   -0.3830 C   0  0  0  0  0  0  0  0  0  0  0  0
  -45.4923  -31.4186    2.1394 C   0  0  0  0  0  0  0  0  0  0  0  0
  -46.0485  -31.6937    0.7340 C   0  0  0  0  0  0  0  0  0  0  0  0
  -44.8919  -35.1470   -3.1645 C   0  0  0  0  0  0  0  0  0  0  0  0
  -44.8812  -34.1919   -0.7161 C   0  0  0  0  0  0  0  0  0  0  0  0
  -45.6492  -34.9790   -1.8140 C   0  0  0  0  0  0  0  0  0  0  0  0
  -43.5121  -28.2247    2.6296 N   0  0  0  0  0  0  0  0  0  0  0  0
  -44.3264  -29.2169    3.0665 N   0  0  0  0  0  0  0  0  0  0  0  0
  -44.9479  -31.6350   -0.2477 N   0  0  0  0  0  0  0  0  0  0  0  0
  -42.1860  -28.0317   -0.6400 O   0  0  0  0  0  0  0  0  0  0  0  0
  -43.9298  -32.4786   -2.0836 O   0  0  0  0  0  0  0  0  0  0  0  0
  -42.4976  -26.2690    0.7356 O   0  0  0  0  0  0  0  0  0  0  0  0
  -41.6323  -36.9059   -2.6799 H   0  0  0  0  0  0  0  0  0  0  0  0
  -46.9405  -28.6187    7.6308 H   0  0  0  0  0  0  0  0  0  0  0  0
  -48.1833  -28.6276    5.4735 H   0  0  0  0  0  0  0  0  0  0  0  0
  -44.4719  -28.9344    7.6470 H   0  0  0  0  0  0  0  0  0  0  0  0
  -46.9550  -28.9578    3.3369 H   0  0  0  0  0  0  0  0  0  0  0  0
  -43.2328  -29.2168    5.5064 H   0  0  0  0  0  0  0  0  0  0  0  0
  -44.8563  -29.6653   -1.0106 H   0  0  0  0  0  0  0  0  0  0  0  0
  -43.2726  -30.4995   -0.8593 H   0  0  0  0  0  0  0  0  0  0  0  0
  -44.8793  -32.2726    2.4632 H   0  0  0  0  0  0  0  0  0  0  0  0
  -46.3272  -31.2792    2.8418 H   0  0  0  0  0  0  0  0  0  0  0  0
  -46.5088  -32.6925    0.7103 H   0  0  0  0  0  0  0  0  0  0  0  0
  -46.8049  -30.9354    0.4835 H   0  0  0  0  0  0  0  0  0  0  0  0
  -44.7131  -34.1524   -3.5990 H   0  0  0  0  0  0  0  0  0  0  0  0
  -45.5141  -35.7404   -3.8506 H   0  0  0  0  0  0  0  0  0  0  0  0
  -43.9147  -34.6881   -0.5437 H   0  0  0  0  0  0  0  0  0  0  0  0
  -45.4756  -34.2152    0.2092 H   0  0  0  0  0  0  0  0  0  0  0  0
  -46.5914  -34.4485   -2.0163 H   0  0  0  0  0  0  0  0  0  0  0  0
  -45.8704  -35.9823   -1.4211 H   0  0  0  0  0  0  0  0  0  0  0  0
  -42.0590  -25.8084    0.0299 H   0  0  0  0  0  0  0  0  0  0  0  0
  1  2  3  0  0  0  0
  2 17  1  0  0  0  0
  3  4  1  0  0  0  0
  3  5  2  0  0  0  0
  4  6  2  0  0  0  0
  5  7  1  0  0  0  0
  6  9  1  0  0  0  0
  7  9  2  0  0  0  0
  8 10  1  0  0  0  0
  8 11  2  0  0  0  0
  8 14  1  0  0  0  0
  9 21  1  0  0  0  0
 10 12  1  0  0  0  0
 10 20  2  0  0  0  0
 11 15  1  0  0  0  0
 11 21  1  0  0  0  0
 12 23  2  0  0  0  0
 12 25  1  0  0  0  0
 13 18  1  0  0  0  0
 13 22  1  0  0  0  0
 13 24  2  0  0  0  0
 14 22  1  0  0  0  0
 15 16  1  0  0  0  0
 16 22  1  0  0  0  0
 17 19  1  0  0  0  0
 18 19  1  0  0  0  0
 20 21  1  0  0  0  0
  1 26  1  0  0  0  0
  3 27  1  0  0  0  0
  4 28  1  0  0  0  0
  5 29  1  0  0  0  0
  6 30  1  0  0  0  0
  7 31  1  0  0  0  0
 14 32  1  0  0  0  0
 14 33  1  0  0  0  0
 15 34  1  0  0  0  0
 15 35  1  0  0  0  0
 16 36  1  0  0  0  0
 16 37  1  0  0  0  0
 17 38  1  0  0  0  0
 17 39  1  0  0  0  0
 18 40  1  0  0  0  0
 18 41  1  0  0  0  0
 19 42  1  0  0  0  0
 19 43  1  0  0  0  0
 25 44  1  0  0  0  0
M  END
> <POSIT::Probability>
0.25

> <POSIT::Method>
SHAPEFIT

> <ReceptorTitle>
UCSF-P4528-REFINED_LIGAND-BOUND-STATE_A__DU__LA1_A-201(A)

> <OMEGA_C>
wzYqwqCaEcI6nDTA1m4uwqRKD8JwBz/A96E5wooN5sHecNZAdXI8wjsa5sG8Zq9AQAg0wpRx58Fy
tNZAu6g5wsKQ58E4tIhAtDkxwvbK6MEs8a9A9igwwgiE7cEYenk/3wk0wtjo6MEE04hA7EgtwqSp
48F0jKw/posywpBM8cEqfgdAJnEqwqen3MEgzdU+3nIywp7TAsJQrYu/ggAxwgmv8sEAFcS+Hfg1
wjpZ+8FY6whArDE4wr6M/cGo5zs/QpEzwoiWDMLFh0rAXYYzwozECMLgUje/zZg2wnTqC8KAMOi/
awwuwkXM4cFMSyhANk4xwk686cGsQURAp8ozwm0U/cEgm32+dr4owutA4MGQ1CO/IbgvwhzqAcIu
WQXAlP0pwvEm0sEQTjw/hYcmwp2fE8LqgivAF8M7wi/z5MFxL/RAprtAwloF5cE5J69ALuMxwpp5
58FNtPRA5dE7wp+p58GIj1VAaO4swhG86cG0NLBA0GwzwpZS7cFnXIG/Jxctwuf+88HV91u/X4Qz
whoXAcKMpR1AGU85wuE7+sFz4DVAAQk6wiHFAsI81jU/OTg7wqR798H4iPc+PtoywgqcCMKYVmbA
bA42wi/2DsJNcHbAr6gvwp3ACsLkLgu/++Y1wmXcCMJtOVY+ll06wkXLCcICCwHASXs3wuftD8KQ
57W/bjwowpJ3zsE1I/U8

> <OMEGA_E>
KNmZPw==

> <OMEGA_NBR>
     70034

$$$$
CACHE3HI_1704_46
  -OEChem-03092622573D

 45 47  0     0  0  0  0  0  0999 V2000
  -47.4309  -21.6152   -2.3012 C   0  0  0  0  0  0  0  0  0  0  0  0
  -44.3678  -28.0799    5.0993 C   0  0  0  0  0  0  0  0  0  0  0  0
  -47.2214  -23.6529   -0.9651 C   0  0  0  0  0  0  0  0  0  0  0  0
  -45.4629  -23.0523   -2.5093 C   0  0  0  0  0  0  0  0  0  0  0  0
  -44.0485  -27.8676    3.7582 C   0  0  0  0  0  0  0  0  0  0  0  0
  -45.6245  -28.5755    5.4464 C   0  0  0  0  0  0  0  0  0  0  0  0
  -46.5070  -24.7925   -0.5957 C   0  0  0  0  0  0  0  0  0  0  0  0
  -44.7485  -24.1919   -2.1399 C   0  0  0  0  0  0  0  0  0  0  0  0
  -46.2422  -28.6467    3.1114 C   0  0  0  0  0  0  0  0  0  0  0  0
  -46.6992  -22.7827   -1.9219 C   0  0  0  0  0  0  0  0  0  0  0  0
  -44.9855  -28.1510    2.7643 C   0  0  0  0  0  0  0  0  0  0  0  0
  -46.5615  -28.8590    4.4525 C   0  0  0  0  0  0  0  0  0  0  0  0
  -45.2708  -25.0621   -1.1831 C   0  0  0  0  0  0  0  0  0  0  0  0
  -48.6552  -30.2207    4.0368 C   0  0  0  0  0  0  0  0  0  0  0  0
  -44.6517  -27.9291    1.3664 C   0  0  0  0  0  0  0  0  0  0  0  0
  -43.1649  -26.3869   -0.7927 C   0  0  0  0  0  0  0  0  0  0  0  0
  -49.8681  -30.5641    4.8692 C   0  0  0  0  0  0  0  0  0  0  0  0
  -49.9087  -29.4671    5.9146 C   0  0  0  0  0  0  0  0  0  0  0  0
  -48.4517  -29.0951    6.0987 C   0  0  0  0  0  0  0  0  0  0  0  0
  -42.8064  -27.7850   -0.3237 C   0  0  0  0  0  0  0  0  0  0  0  0
  -48.0250  -20.6671   -2.6094 N   0  0  0  0  0  0  0  0  0  0  0  0
  -47.8465  -29.3656    4.8086 N   0  0  0  0  0  0  0  0  0  0  0  0
  -44.5464  -26.2190   -0.8081 N   0  0  0  0  0  0  0  0  0  0  0  0
  -43.2984  -28.0032    1.0176 N   0  0  0  0  0  0  0  0  0  0  0  0
  -48.4652  -30.6960    2.9267 O   0  0  0  0  0  0  0  0  0  0  0  0
  -45.5422  -27.6670    0.5391 O   0  0  0  0  0  0  0  0  0  0  0  0
  -42.3096  -25.5526   -1.0718 O   0  0  0  0  0  0  0  0  0  0  0  0
  -43.6385  -27.8596    5.8733 H   0  0  0  0  0  0  0  0  0  0  0  0
  -48.1834  -23.4563   -0.4977 H   0  0  0  0  0  0  0  0  0  0  0  0
  -45.0433  -22.3826   -3.2563 H   0  0  0  0  0  0  0  0  0  0  0  0
  -43.0662  -27.4808    3.4990 H   0  0  0  0  0  0  0  0  0  0  0  0
  -45.8630  -28.7372    6.4945 H   0  0  0  0  0  0  0  0  0  0  0  0
  -46.9230  -25.4637    0.1515 H   0  0  0  0  0  0  0  0  0  0  0  0
  -43.7865  -24.3924   -2.6049 H   0  0  0  0  0  0  0  0  0  0  0  0
  -46.9731  -28.8677    2.3363 H   0  0  0  0  0  0  0  0  0  0  0  0
  -50.7722  -30.5760    4.2557 H   0  0  0  0  0  0  0  0  0  0  0  0
  -49.7127  -31.5474    5.3243 H   0  0  0  0  0  0  0  0  0  0  0  0
  -50.4692  -28.6060    5.5309 H   0  0  0  0  0  0  0  0  0  0  0  0
  -50.3819  -29.7941    6.8448 H   0  0  0  0  0  0  0  0  0  0  0  0
  -48.3244  -28.0437    6.3745 H   0  0  0  0  0  0  0  0  0  0  0  0
  -47.9669  -29.7343    6.8450 H   0  0  0  0  0  0  0  0  0  0  0  0
  -41.7216  -27.9215   -0.3100 H   0  0  0  0  0  0  0  0  0  0  0  0
  -43.2676  -28.5236   -0.9859 H   0  0  0  0  0  0  0  0  0  0  0  0
  -45.1142  -27.0118   -0.5158 H   0  0  0  0  0  0  0  0  0  0  0  0
  -42.6069  -28.1578    1.7436 H   0  0  0  0  0  0  0  0  0  0  0  0
  1 10  1  0  0  0  0
  1 21  3  0  0  0  0
  2  5  1  0  0  0  0
  2  6  2  0  0  0  0
  3  7  2  0  0  0  0
  3 10  1  0  0  0  0
  4  8  1  0  0  0  0
  4 10  2  0  0  0  0
  5 11  2  0  0  0  0
  6 12  1  0  0  0  0
  7 13  1  0  0  0  0
  8 13  2  0  0  0  0
  9 11  1  0  0  0  0
  9 12  2  0  0  0  0
 11 15  1  0  0  0  0
 12 22  1  0  0  0  0
 13 23  1  0  0  0  0
 14 17  1  0  0  0  0
 14 22  1  0  0  0  0
 14 25  2  0  0  0  0
 15 24  1  0  0  0  0
 15 26  2  0  0  0  0
 16 20  1  0  0  0  0
 16 23  1  0  0  0  0
 16 27  2  0  0  0  0
 17 18  1  0  0  0  0
 18 19  1  0  0  0  0
 19 22  1  0  0  0  0
 20 24  1  0  0  0  0
  2 28  1  0  0  0  0
  3 29  1  0  0  0  0
  4 30  1  0  0  0  0
  5 31  1  0  0  0  0
  6 32  1  0  0  0  0
  7 33  1  0  0  0  0
  8 34  1  0  0  0  0
  9 35  1  0  0  0  0
 17 36  1  0  0  0  0
 17 37  1  0  0  0  0
 18 38  1  0  0  0  0
 18 39  1  0  0  0  0
 19 40  1  0  0  0  0
 19 41  1  0  0  0  0
 20 42  1  0  0  0  0
 20 43  1  0  0  0  0
 23 44  1  0  0  0  0
 24 45  1  0  0  0  0
M  END
> <POSIT::Probability>
0.05

> <POSIT::Method>
FRED

> <ReceptorTitle>
UCSF-P4528-REFINED_LIGAND-BOUND-STATE_A__DU__LA1_A-201(A)

> <OMEGA_C>
NLk9wgDsrMF6RxPApHgxwpuj4MFxLaNAw+I8whM5vcEqEXe/DNo1whFruMEWmCDArDEwwsbw3sGQ
hXBAg382wqma5MHKSK5AKgc6whpXxsGcgRi/c/4ywv2IwcHC9AjADfg4wmks5cHOIUdA9Ms6wutC
tsF9APa/I/EzwlE14cF66jBA+j46wjTf5sE/e45AQhU1wj9/yMFxcJe/8p5CwvDD8cG6LYFAUpsy
wslu38HU5a4/4Kgswl0Y08FG7Uq/5XhHwkKD9MGm0JtAgaJHwqa868FnRL1Ags5Bwq3C6MGnKMNA
vDkrwrdH3sGst6W+kBlAwj9WpcHMACfAx2I/wtHs6sHt35lAfy8ywmrA0cH+4E6/mzEtwooG4MFv
P4I/V9xBwnyR9cECTztAPis2wgdW3cFkAQo/Dz0pwqRrzMEdMIm/zY0uwmng3sHi8btA2btAwpCm
u8HIz/6+Uyw0wqkPs8EGaFDAw0MswrXY28E+8F9ArXM3wsXl5cEZ089AIbE7wr61y8HYKxs+YyUv
wpcjw8HmtibAgOQ7wvbw5sEThhVAxBZLwqSb9MG2LohAy9lGwiVh/MHEYKpAfeBJwgnZ5MHr/LBA
DodJwmJa7sGHCNtAN0xBwpFZ4MHt+8tAHN4/wsTf7cH7CdtA7uImwkJf38Hgsp6+ARItwkEw5MG+
YXy//XQ0whwY2MFACQS/e20qwiND4cGqLt8/

> <OMEGA_E>
I2wowQ==

> <OMEGA_NBR>
     71423

$$$$
CACHE3HI_1704_47
  -OEChem-03092622573D

 42 44  0     0  0  0  0  0  0999 V2000
  -43.7092  -23.3085   -2.4142 C   0  0  0  0  0  0  0  0  0  0  0  0
  -49.5090  -28.6978    5.5452 C   0  0  0  0  0  0  0  0  0  0  0  0
  -49.3886  -30.7392    4.2584 C   0  0  0  0  0  0  0  0  0  0  0  0
  -48.2260  -28.3542    5.1191 C   0  0  0  0  0  0  0  0  0  0  0  0
  -48.1056  -30.3957    3.8323 C   0  0  0  0  0  0  0  0  0  0  0  0
  -43.1219  -24.4010   -1.7858 C   0  0  0  0  0  0  0  0  0  0  0  0
  -45.0885  -23.1415   -2.3614 C   0  0  0  0  0  0  0  0  0  0  0  0
  -44.2166  -28.3665    3.9659 C   0  0  0  0  0  0  0  0  0  0  0  0
  -45.8659  -28.6785    2.5460 C   0  0  0  0  0  0  0  0  0  0  0  0
  -50.0903  -29.8903    5.1146 C   0  0  0  0  0  0  0  0  0  0  0  0
  -44.5326  -28.3514    2.5941 C   0  0  0  0  0  0  0  0  0  0  0  0
  -47.5243  -29.2031    4.2629 C   0  0  0  0  0  0  0  0  0  0  0  0
  -43.9520  -25.2911   -1.1227 C   0  0  0  0  0  0  0  0  0  0  0  0
  -45.8306  -24.0876   -1.6729 C   0  0  0  0  0  0  0  0  0  0  0  0
  -43.3810  -26.4766   -0.4344 C   0  0  0  0  0  0  0  0  0  0  0  0
  -47.7491  -22.8108   -2.2615 C   0  0  0  0  0  0  0  0  0  0  0  0
  -43.6383  -28.0527    1.4644 C   0  0  0  0  0  0  0  0  0  0  0  0
  -51.4625  -30.2575    5.5688 C   0  0  0  0  0  0  0  0  0  0  0  0
  -45.2644  -28.6780    4.7332 N   0  0  0  0  0  0  0  0  0  0  0  0
  -45.2958  -25.1616   -1.0501 N   0  0  0  0  0  0  0  0  0  0  0  0
  -46.2523  -28.8621    3.8410 N   0  0  0  0  0  0  0  0  0  0  0  0
  -44.0804  -26.9229    0.6735 N   0  0  0  0  0  0  0  0  0  0  0  0
  -42.3403  -26.9728   -0.8577 O   0  0  0  0  0  0  0  0  0  0  0  0
  -47.1916  -23.9438   -1.6056 O   0  0  0  0  0  0  0  0  0  0  0  0
  -52.0309  -29.3363    6.4017 F   0  0  0  0  0  0  0  0  0  0  0  0
  -51.4902  -31.4371    6.2551 F   0  0  0  0  0  0  0  0  0  0  0  0
  -52.3527  -30.4089    4.5438 F   0  0  0  0  0  0  0  0  0  0  0  0
  -43.0925  -22.5885   -2.9436 H   0  0  0  0  0  0  0  0  0  0  0  0
  -50.0495  -28.0303    6.2110 H   0  0  0  0  0  0  0  0  0  0  0  0
  -49.8339  -31.6708    3.9195 H   0  0  0  0  0  0  0  0  0  0  0  0
  -47.7854  -27.4211    5.4619 H   0  0  0  0  0  0  0  0  0  0  0  0
  -47.5700  -31.0667    3.1651 H   0  0  0  0  0  0  0  0  0  0  0  0
  -42.0465  -24.5400   -1.8195 H   0  0  0  0  0  0  0  0  0  0  0  0
  -45.5614  -22.2948   -2.8468 H   0  0  0  0  0  0  0  0  0  0  0  0
  -43.2670  -28.1642    4.4406 H   0  0  0  0  0  0  0  0  0  0  0  0
  -46.5516  -28.7918    1.7164 H   0  0  0  0  0  0  0  0  0  0  0  0
  -48.8347  -22.8120   -2.1340 H   0  0  0  0  0  0  0  0  0  0  0  0
  -47.3334  -21.9028   -1.8179 H   0  0  0  0  0  0  0  0  0  0  0  0
  -47.4964  -22.8429   -3.3238 H   0  0  0  0  0  0  0  0  0  0  0  0
  -42.6096  -27.8202    1.7980 H   0  0  0  0  0  0  0  0  0  0  0  0
  -43.5414  -28.9041    0.7648 H   0  0  0  0  0  0  0  0  0  0  0  0
  -44.8990  -26.4248    1.0027 H   0  0  0  0  0  0  0  0  0  0  0  0
  1  6  1  0  0  0  0
  1  7  2  0  0  0  0
  2  4  2  0  0  0  0
  2 10  1  0  0  0  0
  3  5  1  0  0  0  0
  3 10  2  0  0  0  0
  4 12  1  0  0  0  0
  5 12  2  0  0  0  0
  6 13  2  0  0  0  0
  7 14  1  0  0  0  0
  8 11  1  0  0  0  0
  8 19  2  0  0  0  0
  9 11  2  0  0  0  0
  9 21  1  0  0  0  0
 10 18  1  0  0  0  0
 11 17  1  0  0  0  0
 12 21  1  0  0  0  0
 13 15  1  0  0  0  0
 13 20  1  0  0  0  0
 14 20  2  0  0  0  0
 14 24  1  0  0  0  0
 15 22  1  0  0  0  0
 15 23  2  0  0  0  0
 16 24  1  0  0  0  0
 17 22  1  0  0  0  0
 18 25  1  0  0  0  0
 18 26  1  0  0  0  0
 18 27  1  0  0  0  0
 19 21  1  0  0  0  0
  1 28  1  0  0  0  0
  2 29  1  0  0  0  0
  3 30  1  0  0  0  0
  4 31  1  0  0  0  0
  5 32  1  0  0  0  0
  6 33  1  0  0  0  0
  7 34  1  0  0  0  0
  8 35  1  0  0  0  0
  9 36  1  0  0  0  0
 16 37  1  0  0  0  0
 16 38  1  0  0  0  0
 16 39  1  0  0  0  0
 17 40  1  0  0  0  0
 17 41  1  0  0  0  0
 22 42  1  0  0  0  0
M  END
> <POSIT::Probability>
0.05

> <POSIT::Method>
FRED

> <ReceptorTitle>
UCSF-P4528-REFINED_LIGAND-BOUND-STATE_A__DU__LA1_A-201(A)

> <OMEGA_C>
ONYuwtd3usEyghrAPAlGwgiV5cHlcbFA4Y1Fwtfp9cEERYhAbudAwnPV4sFSz6NAHmxAwlgq88HS
RHVA1Hwswic1w8HSlOS/nVo0wtAhucEvIRfAzN0wworu4sGf0H1AsHY3wpRt5cG28SJAcVxIwmYf
78HNqqNAWyEywrjP4sEdBSZA3Rg+wuaf6cGKaYhA084vwhdUysE2tI+/ilI3wk6zwMGsIda/JYYt
wiPQ08Hobd6+Df8+wnl8tsEIvBDAn40uwtdr4MGscrs/k9lNwmoP8sHcM7JAwA41wpls5cHAdpdA
4y41wupKycHCaoa/YQI5wqDl5sG303VATlIwwgRi18GEbCw/flwpwkrI18GwkVu/PMQ8wuCMv8Ge
hM2/mR9Qwsmw6sEJ28xA/vVNwjh/+8GBKchAKGlRwoNF88EcZ5FAtl4swiy1tME0YzzAsTJIwhc+
4MG2wMZA7lVHwsdd/cFu2XpAOiQ/wm1e28H/x65At0c+wrKI+MENkUpAly8owvNRxMHm5ui/1D42
wslbssEGMjbAchEtwkxQ4cFaGY5A2jQ6wpBV5sGAsds/vFZDwgp/tsEslAjAZFU9wvg4r8Essui/
Svw9wiq+tsEXuVTAP3AqwsWP3sFuJuY/WCouwqA758GWzEM/i5gzwgZm08EeV4A/

> <OMEGA_E>
5tUDwQ==

> <OMEGA_NBR>
     72752

$$$$
CACHE3HI_1705_17
  -OEChem-03092622573D

 44 47  0     1  0  0  0  0  0999 V2000
  -48.6561  -28.7351    4.8613 C   0  0  0  0  0  0  0  0  0  0  0  0
  -46.1839  -28.6913    4.0058 C   0  0  0  0  0  0  0  0  0  0  0  0
  -44.6899  -28.8282    5.8718 C   0  0  0  0  0  0  0  0  0  0  0  0
  -49.1388  -28.8205    6.1497 C   0  0  0  0  0  0  0  0  0  0  0  0
  -44.9336  -31.7827    0.3853 C   0  0  0  0  0  0  0  0  0  0  0  0
  -47.2382  -28.7486    4.9320 C   0  0  0  0  0  0  0  0  0  0  0  0
  -44.8820  -28.7329    4.5002 C   0  0  0  0  0  0  0  0  0  0  0  0
  -44.5183  -30.4926    0.1300 C   0  0  0  0  0  0  0  0  0  0  0  0
  -46.9030  -28.8430    6.2797 C   0  0  0  0  0  0  0  0  0  0  0  0
  -46.5730  -30.3321   -0.6186 C   0  0  0  0  0  0  0  0  0  0  0  0
  -43.7220  -28.6762    3.5748 C   0  0  0  0  0  0  0  0  0  0  0  0
  -43.1564  -29.9864    0.4369 C   0  0  0  0  0  0  0  0  0  0  0  0
  -47.7438  -29.7605   -1.1940 C   0  0  0  0  0  0  0  0  0  0  0  0
  -40.1503  -30.1653    3.7980 C   0  0  0  0  0  0  0  0  0  0  0  0
  -40.6154  -31.2880    2.8448 C   0  0  0  0  0  0  0  0  0  0  0  0
  -41.2962  -29.2899    3.2231 C   0  0  1  0  0  0  0  0  0  0  0  0
  -41.2113  -30.1775    1.9556 C   0  0  2  0  0  0  0  0  0  0  0  0
  -47.7708  -28.2913   -1.6564 C   0  0  0  0  0  0  0  0  0  0  0  0
  -45.6655  -28.8866    6.8083 N   0  0  0  0  0  0  0  0  0  0  0  0
  -45.4572  -29.6593   -0.4458 N   0  0  0  0  0  0  0  0  0  0  0  0
  -48.0669  -28.8854    7.0018 N   0  0  0  0  0  0  0  0  0  0  0  0
  -42.5686  -29.2813    4.0313 N   0  0  0  0  0  0  0  0  0  0  0  0
  -42.5388  -30.5806    1.5141 N   0  0  0  0  0  0  0  0  0  0  0  0
  -43.8407  -28.0968    2.4985 O   0  0  0  0  0  0  0  0  0  0  0  0
  -42.6823  -29.0853   -0.2497 O   0  0  0  0  0  0  0  0  0  0  0  0
  -48.8117  -30.4147   -1.3578 O   0  0  0  0  0  0  0  0  0  0  0  0
  -46.5644  -31.9706   -0.1101 S   0  0  0  0  0  0  0  0  0  0  0  0
  -49.2628  -28.6704    3.9685 H   0  0  0  0  0  0  0  0  0  0  0  0
  -46.3811  -28.6171    2.9407 H   0  0  0  0  0  0  0  0  0  0  0  0
  -43.6839  -28.8624    6.2841 H   0  0  0  0  0  0  0  0  0  0  0  0
  -50.1485  -28.8409    6.5348 H   0  0  0  0  0  0  0  0  0  0  0  0
  -44.3790  -32.6003    0.8238 H   0  0  0  0  0  0  0  0  0  0  0  0
  -40.2593  -30.4201    4.8573 H   0  0  0  0  0  0  0  0  0  0  0  0
  -39.1396  -29.7912    3.6231 H   0  0  0  0  0  0  0  0  0  0  0  0
  -39.7914  -31.8255    2.3721 H   0  0  0  0  0  0  0  0  0  0  0  0
  -41.3146  -32.0043    3.2715 H   0  0  0  0  0  0  0  0  0  0  0  0
  -40.9707  -28.2510    3.0360 H   0  0  0  0  0  0  0  0  0  0  0  0
  -40.6111  -29.8246    1.1729 H   0  0  0  0  0  0  0  0  0  0  0  0
  -47.4575  -28.2363   -2.7023 H   0  0  0  0  0  0  0  0  0  0  0  0
  -47.0842  -27.6767   -1.0662 H   0  0  0  0  0  0  0  0  0  0  0  0
  -48.7792  -27.8912   -1.5266 H   0  0  0  0  0  0  0  0  0  0  0  0
  -48.1250  -28.9542    8.0084 H   0  0  0  0  0  0  0  0  0  0  0  0
  -42.5192  -29.6866    4.9549 H   0  0  0  0  0  0  0  0  0  0  0  0
  -43.0038  -31.2724    2.0786 H   0  0  0  0  0  0  0  0  0  0  0  0
  1  4  2  0  0  0  0
  1  6  1  0  0  0  0
  2  6  2  0  0  0  0
  2  7  1  0  0  0  0
  3  7  2  0  0  0  0
  3 19  1  0  0  0  0
  4 21  1  0  0  0  0
  5  8  2  0  0  0  0
  5 27  1  0  0  0  0
  6  9  1  0  0  0  0
  7 11  1  0  0  0  0
  8 12  1  0  0  0  0
  8 20  1  0  0  0  0
  9 19  2  0  0  0  0
  9 21  1  0  0  0  0
 10 13  1  0  0  0  0
 10 20  2  0  0  0  0
 10 27  1  0  0  0  0
 11 22  1  0  0  0  0
 11 24  2  0  0  0  0
 12 23  1  0  0  0  0
 12 25  2  0  0  0  0
 13 18  1  0  0  0  0
 13 26  2  0  0  0  0
 14 15  1  0  0  0  0
 14 16  1  0  0  0  0
 15 17  1  0  0  0  0
 16 17  1  0  0  0  0
 16 22  1  0  0  0  0
 17 23  1  0  0  0  0
  1 28  1  0  0  0  0
  2 29  1  0  0  0  0
  3 30  1  0  0  0  0
  4 31  1  0  0  0  0
  5 32  1  0  0  0  0
 14 33  1  0  0  0  0
 14 34  1  0  0  0  0
 15 35  1  0  0  0  0
 15 36  1  0  0  0  0
 16 37  1  0  0  0  0
 17 38  1  0  0  0  0
 18 39  1  0  0  0  0
 18 40  1  0  0  0  0
 18 41  1  0  0  0  0
 21 42  1  0  0  0  0
 22 43  1  0  0  0  0
 23 44  1  0  0  0  0
M  END
> <POSIT::Probability>
0.18

> <POSIT::Method>
FRED

> <ReceptorTitle>
UCSF-P4528-REFINED_LIGAND-BOUND-STATE_A__DU__LA1_A-201(A)

> <OMEGA_C>
5Z9Cwpbh5cHfj5tAWbw4wt6H5cFoL4BAbMIywhCg5sER5rtAHo5EwleQ5sEoysRAC7wzwvVC/sFY
S8U+9/M8whf95cHK0p1ANoczwgTd5cGsAZBAxhIywuvw88EwFAU+r5w7wmG+5sFJ88hAyUo6whio
8sEYXx6/TeMuwuVo5cEhymRAKqAswj7k78FYs98+nvk+wm8V7sGM1Zi/7pkgwpZS8cEIEnNAI3Yi
wulN+sG0ETZARy8lwrVR6sFHR05AZdgkwpdr8cFEUPo/RxU/wo1U4sHaA9S/eKk2wsEX58Ga3dlA
N9Q1wjdG7cFQQOS+dkRAwlcV58EKD+BAPEYqwi1A6sGwAIFAsicqwhWl9MECzcE/41wvwkvG4MEe
5x9Aoboqwruu6MGguX++OT9DwlFR88FGza2//EE6wr3D/8HAZOG9JQ1Fwvlc5cGA/H1ARoY5wrnv
5MGmMzxATbwuwhrm5sEBF8lAGphIwh665sHeHNFAHYQxwr1mAsLq4lI/ewkhwmdc88FKb5tA544c
wmhU7sE64GdAZSofwo2a/sE80BdALkIlwnQEAMJmYFFABeIjwg4C4sFGTUJAzHEiwtCY7sH9IpY/
fdQ9wtnj4cEJ8izAM1Y8wtxp3cGoeYi/8h1DwkAh38EGacO/+n9AwkCi58E5IgBBrhMqwj9+7cGD
jp5A2AMswtIt+sFKCAVA

> <OMEGA_E>
igM4wQ==

> <OMEGA_NBR>
     74133

$$$$
CACHE3HI_1705_18
  -OEChem-03092622573D

 56 59  0     1  0  0  0  0  0999 V2000
  -48.5473  -28.7682    5.1675 C   0  0  0  0  0  0  0  0  0  0  0  0
  -46.2253  -29.2917    4.0850 C   0  0  0  0  0  0  0  0  0  0  0  0
  -44.4429  -29.3299    5.7488 C   0  0  0  0  0  0  0  0  0  0  0  0
  -48.8818  -28.5408    6.4809 C   0  0  0  0  0  0  0  0  0  0  0  0
  -47.1074  -28.9908    5.1278 C   0  0  0  0  0  0  0  0  0  0  0  0
  -44.8646  -29.4581    4.4055 C   0  0  0  0  0  0  0  0  0  0  0  0
  -46.6274  -28.8740    6.4409 C   0  0  0  0  0  0  0  0  0  0  0  0
  -43.8760  -29.7542    3.3702 C   0  0  0  0  0  0  0  0  0  0  0  0
  -43.6158  -30.5301   -0.9679 C   0  0  0  0  0  0  0  0  0  0  0  0
  -43.9271  -34.9567   -3.2096 C   0  0  0  0  0  0  0  0  0  0  0  0
  -44.9322  -35.7412   -2.3377 C   0  0  0  0  0  0  0  0  0  0  0  0
  -44.2512  -33.4495   -3.2037 C   0  0  0  0  0  0  0  0  0  0  0  0
  -45.0052  -35.1837   -0.8993 C   0  0  0  0  0  0  0  0  0  0  0  0
  -43.8805  -27.1281    0.7035 C   0  0  0  0  0  0  0  0  0  0  0  0
  -44.3967  -27.6172    2.0603 C   0  0  0  0  0  0  0  0  0  0  0  0
  -42.4838  -28.8981    1.4395 C   0  0  0  0  0  0  0  0  0  0  0  0
  -44.3007  -32.9028   -1.7514 C   0  0  2  0  0  0  0  0  0  0  0  0
  -45.3384  -33.6791   -0.9040 C   0  0  2  0  0  0  0  0  0  0  0  0
  -43.0705  -28.3097    0.1534 C   0  0  2  0  0  0  0  0  0  0  0  0
  -41.9830  -27.8049   -0.8166 C   0  0  0  0  0  0  0  0  0  0  0  0
  -44.6378  -31.3717   -1.7487 C   0  0  0  0  0  0  0  0  0  0  0  0
  -45.3183  -29.0393    6.7386 N   0  0  0  0  0  0  0  0  0  0  0  0
  -47.7198  -28.6018    7.2490 N   0  0  0  0  0  0  0  0  0  0  0  0
  -43.5951  -28.8172    2.3831 N   0  0  0  0  0  0  0  0  0  0  0  0
  -43.9934  -29.2696   -0.5053 N   0  0  0  0  0  0  0  0  0  0  0  0
  -43.2065  -30.7767    3.4641 O   0  0  0  0  0  0  0  0  0  0  0  0
  -42.4466  -30.8952   -0.9070 O   0  0  0  0  0  0  0  0  0  0  0  0
  -45.3282  -33.1934    0.4409 O   0  0  0  0  0  0  0  0  0  0  0  0
  -49.2229  -28.7797    4.3249 H   0  0  0  0  0  0  0  0  0  0  0  0
  -46.5761  -29.3930    3.0686 H   0  0  0  0  0  0  0  0  0  0  0  0
  -43.3992  -29.4670    5.9902 H   0  0  0  0  0  0  0  0  0  0  0  0
  -49.8764  -28.3476    6.8548 H   0  0  0  0  0  0  0  0  0  0  0  0
  -42.9121  -35.1082   -2.8136 H   0  0  0  0  0  0  0  0  0  0  0  0
  -43.9774  -35.3316   -4.2425 H   0  0  0  0  0  0  0  0  0  0  0  0
  -45.9296  -35.6732   -2.7964 H   0  0  0  0  0  0  0  0  0  0  0  0
  -44.6192  -36.7949   -2.2951 H   0  0  0  0  0  0  0  0  0  0  0  0
  -43.4737  -32.9111   -3.7655 H   0  0  0  0  0  0  0  0  0  0  0  0
  -45.2279  -33.2886   -3.6833 H   0  0  0  0  0  0  0  0  0  0  0  0
  -45.7867  -35.7231   -0.3441 H   0  0  0  0  0  0  0  0  0  0  0  0
  -44.0339  -35.3350   -0.4056 H   0  0  0  0  0  0  0  0  0  0  0  0
  -44.7181  -26.8850    0.0332 H   0  0  0  0  0  0  0  0  0  0  0  0
  -43.2407  -26.2419    0.8272 H   0  0  0  0  0  0  0  0  0  0  0  0
  -44.2533  -26.8421    2.8275 H   0  0  0  0  0  0  0  0  0  0  0  0
  -45.4640  -27.8750    1.9945 H   0  0  0  0  0  0  0  0  0  0  0  0
  -42.1704  -29.9416    1.2883 H   0  0  0  0  0  0  0  0  0  0  0  0
  -41.6261  -28.3046    1.7890 H   0  0  0  0  0  0  0  0  0  0  0  0
  -43.3086  -33.0372   -1.2957 H   0  0  0  0  0  0  0  0  0  0  0  0
  -46.3334  -33.5391   -1.3518 H   0  0  0  0  0  0  0  0  0  0  0  0
  -41.4101  -28.6606   -1.2035 H   0  0  0  0  0  0  0  0  0  0  0  0
  -42.4574  -27.2727   -1.6543 H   0  0  0  0  0  0  0  0  0  0  0  0
  -41.3057  -27.1210   -0.2842 H   0  0  0  0  0  0  0  0  0  0  0  0
  -45.6284  -31.2322   -1.2913 H   0  0  0  0  0  0  0  0  0  0  0  0
  -44.6612  -31.0166   -2.7895 H   0  0  0  0  0  0  0  0  0  0  0  0
  -47.6803  -28.4686    8.2393 H   0  0  0  0  0  0  0  0  0  0  0  0
  -44.9472  -28.9940   -0.6248 H   0  0  0  0  0  0  0  0  0  0  0  0
  -45.5331  -32.2657    0.4446 H   0  0  0  0  0  0  0  0  0  0  0  0
  1  4  2  0  0  0  0
  1  5  1  0  0  0  0
  2  5  2  0  0  0  0
  2  6  1  0  0  0  0
  3  6  2  0  0  0  0
  3 22  1  0  0  0  0
  4 23  1  0  0  0  0
  5  7  1  0  0  0  0
  6  8  1  0  0  0  0
  7 22  2  0  0  0  0
  7 23  1  0  0  0  0
  8 24  1  0  0  0  0
  8 26  2  0  0  0  0
  9 21  1  0  0  0  0
  9 25  1  0  0  0  0
  9 27  2  0  0  0  0
 10 11  1  0  0  0  0
 10 12  1  0  0  0  0
 11 13  1  0  0  0  0
 12 17  1  0  0  0  0
 13 18  1  0  0  0  0
 14 15  1  0  0  0  0
 14 19  1  0  0  0  0
 15 24  1  0  0  0  0
 16 19  1  0  0  0  0
 16 24  1  0  0  0  0
 17 18  1  0  0  0  0
 17 21  1  0  0  0  0
 18 28  1  0  0  0  0
 19 20  1  0  0  0  0
 19 25  1  0  0  0  0
  1 29  1  0  0  0  0
  2 30  1  0  0  0  0
  3 31  1  0  0  0  0
  4 32  1  0  0  0  0
 10 33  1  0  0  0  0
 10 34  1  0  0  0  0
 11 35  1  0  0  0  0
 11 36  1  0  0  0  0
 12 37  1  0  0  0  0
 12 38  1  0  0  0  0
 13 39  1  0  0  0  0
 13 40  1  0  0  0  0
 14 41  1  0  0  0  0
 14 42  1  0  0  0  0
 15 43  1  0  0  0  0
 15 44  1  0  0  0  0
 16 45  1  0  0  0  0
 16 46  1  0  0  0  0
 17 47  1  0  0  0  0
 18 48  1  0  0  0  0
 20 49  1  0  0  0  0
 20 50  1  0  0  0  0
 20 51  1  0  0  0  0
 21 52  1  0  0  0  0
 21 53  1  0  0  0  0
 23 54  1  0  0  0  0
 25 55  1  0  0  0  0
 28 56  1  0  0  0  0
M  END
> <POSIT::Probability>
0.78

> <POSIT::Method>
SHAPEFIT

> <ReceptorTitle>
UCSF-P4528-REFINED_LIGAND-BOUND-STATE_A__DU__LA1_A-201(A)

> <OMEGA_C>
ezBCwkcl5sHNW6VAweY4wnJV6sGtuIJAjsUxwqij6sFr9rdA8oZDwqBT5MGtY89A+208wi7t58E9
F6RAVHUzwjaq68Ex+oxAb4I6wvb95sGZG85AAYEvwooI7sGysFdAnXYuwrk99MFkyHe/VrUvwrTT
C8KYak3AhrozwgT3DsJfnBXAMQExwkTMBcLZCE3ASAU0why8DMJcOWa/ooUvwlcG2cHwGDQ/NpYx
wgnw3MFQ2wNAbe8pwksv58EMQrg/9DMxwmucA8K2LeC/kFo1wmq3BsKIbme/JkgswlZ64sGgDB0+
lO4nwntw3sHsD1G/D40ywjX5+sH009+/70U1woFQ6MGhotdADOE+wpbQ5MEN+OdAW2Euwq2J5sFm
hBhAPPkvwhQo6sGoXAG/ddMswqs29sHEs11ASskpwlkp98FUM2i/FlA1wgLGBMIgv+E+RuREwuk8
5sHGZYpA7U06wtkk68FFZERAx5gtwlG868GJr79Aa4FHwt7H4sHkWttA+6UrwtduDMJGEjTA3+gv
wppTDcLywofA7rc3wmKxDsIw+DLAEXoywv0tE8ID4xLAEOUtwvCkA8L4/XDAauk0woInBcKVumvA
liU3wnPkDsKYMLC+uSIwwhFXDcLAp8++X98ywn4U18G+Fwg9hvYswlLv0cE8wVM/WgMxwqW81sHS
9TRALNs1wvv/3sH/S/8/cq4owmGI78EW6KQ/K4EmwsBv4sEE/eQ/BjwtwiEmBMII26W/ZFU5wgwo
BsL9Bq2/9qMlwuRI5cEqDJq/ZtQpwmsu2sFKv9O/BzklwtT32MGNfpG+dYM2wpXb+cHtR6W/FaUy
whgi+MGBhzLAq7g+wqS/48FG1ANB98kzwtDz58Fc9B+/6CE2wh0QAcJypOM+

> <OMEGA_E>
HntFPw==

> <OMEGA_NBR>
     75784

$$$$
CACHE3HI_1705_2
  -OEChem-03092622573D

 48 52  0     0  0  0  0  0  0999 V2000
  -45.8622  -34.5667    0.3911 C   0  0  0  0  0  0  0  0  0  0  0  0
  -45.2659  -35.1439   -0.7444 C   0  0  0  0  0  0  0  0  0  0  0  0
  -45.7723  -33.1773    0.6129 C   0  0  0  0  0  0  0  0  0  0  0  0
  -46.0770  -29.1646    4.0095 C   0  0  0  0  0  0  0  0  0  0  0  0
  -48.4688  -28.7658    5.0291 C   0  0  0  0  0  0  0  0  0  0  0  0
  -44.3940  -29.3367    5.7616 C   0  0  0  0  0  0  0  0  0  0  0  0
  -44.5796  -34.3248   -1.6614 C   0  0  0  0  0  0  0  0  0  0  0  0
  -47.0216  -28.9653    5.0282 C   0  0  0  0  0  0  0  0  0  0  0  0
  -45.0785  -32.3371   -0.2972 C   0  0  0  0  0  0  0  0  0  0  0  0
  -44.7267  -29.3500    4.3833 C   0  0  0  0  0  0  0  0  0  0  0  0
  -44.4763  -32.9220   -1.4433 C   0  0  0  0  0  0  0  0  0  0  0  0
  -43.9412  -34.6157   -2.8414 C   0  0  0  0  0  0  0  0  0  0  0  0
  -46.6186  -28.9495    6.3640 C   0  0  0  0  0  0  0  0  0  0  0  0
  -43.6661  -29.6361    3.3910 C   0  0  0  0  0  0  0  0  0  0  0  0
  -45.0435  -30.8637   -0.0725 C   0  0  0  0  0  0  0  0  0  0  0  0
  -44.1648  -27.7697    1.7273 C   0  0  0  0  0  0  0  0  0  0  0  0
  -42.4898  -29.0033    1.2527 C   0  0  0  0  0  0  0  0  0  0  0  0
  -43.3492  -27.9838    0.3776 C   0  0  0  0  0  0  0  0  0  0  0  0
  -43.7703  -35.9338   -3.5469 C   0  0  0  0  0  0  0  0  0  0  0  0
  -44.1762  -28.5738   -0.7991 C   0  0  0  0  0  0  0  0  0  0  0  0
  -45.3279  -29.1304    6.7218 N   0  0  0  0  0  0  0  0  0  0  0  0
  -48.8584  -28.6408    6.2794 N   0  0  0  0  0  0  0  0  0  0  0  0
  -43.8047  -32.3837   -2.4446 N   0  0  0  0  0  0  0  0  0  0  0  0
  -43.4912  -33.4009   -3.2669 N   0  0  0  0  0  0  0  0  0  0  0  0
  -47.7673  -28.7444    7.1090 N   0  0  0  0  0  0  0  0  0  0  0  0
  -43.3838  -28.7833    2.3240 N   0  0  0  0  0  0  0  0  0  0  0  0
  -44.2267  -30.0471   -0.8574 N   0  0  0  0  0  0  0  0  0  0  0  0
  -42.9258  -30.5931    3.5875 O   0  0  0  0  0  0  0  0  0  0  0  0
  -45.7743  -30.3650    0.7746 O   0  0  0  0  0  0  0  0  0  0  0  0
  -46.3913  -35.1906    1.0963 H   0  0  0  0  0  0  0  0  0  0  0  0
  -45.3340  -36.2087   -0.9121 H   0  0  0  0  0  0  0  0  0  0  0  0
  -46.2377  -32.7463    1.4870 H   0  0  0  0  0  0  0  0  0  0  0  0
  -46.3732  -29.1760    2.9709 H   0  0  0  0  0  0  0  0  0  0  0  0
  -49.1058  -28.7277    4.1579 H   0  0  0  0  0  0  0  0  0  0  0  0
  -43.3667  -29.4955    6.0547 H   0  0  0  0  0  0  0  0  0  0  0  0
  -44.0403  -26.7749    2.1800 H   0  0  0  0  0  0  0  0  0  0  0  0
  -45.2363  -28.0070    1.6527 H   0  0  0  0  0  0  0  0  0  0  0  0
  -42.4822  -30.0351    0.8716 H   0  0  0  0  0  0  0  0  0  0  0  0
  -41.4576  -28.6769    1.4477 H   0  0  0  0  0  0  0  0  0  0  0  0
  -42.7732  -27.0916    0.0910 H   0  0  0  0  0  0  0  0  0  0  0  0
  -44.6170  -36.0973   -4.2298 H   0  0  0  0  0  0  0  0  0  0  0  0
  -42.8326  -35.9230   -4.1219 H   0  0  0  0  0  0  0  0  0  0  0  0
  -43.7361  -36.7450   -2.8048 H   0  0  0  0  0  0  0  0  0  0  0  0
  -45.2074  -28.2016   -0.7100 H   0  0  0  0  0  0  0  0  0  0  0  0
  -43.7355  -28.2114   -1.7396 H   0  0  0  0  0  0  0  0  0  0  0  0
  -42.9745  -33.2773   -4.1141 H   0  0  0  0  0  0  0  0  0  0  0  0
  -47.7987  -28.6808    8.1065 H   0  0  0  0  0  0  0  0  0  0  0  0
  -43.6245  -30.4997   -1.5151 H   0  0  0  0  0  0  0  0  0  0  0  0
  1  2  2  0  0  0  0
  1  3  1  0  0  0  0
  2  7  1  0  0  0  0
  3  9  2  0  0  0  0
  4  8  2  0  0  0  0
  4 10  1  0  0  0  0
  5  8  1  0  0  0  0
  5 22  2  0  0  0  0
  6 10  2  0  0  0  0
  6 21  1  0  0  0  0
  7 11  1  0  0  0  0
  7 12  2  0  0  0  0
  8 13  1  0  0  0  0
  9 11  1  0  0  0  0
  9 15  1  0  0  0  0
 10 14  1  0  0  0  0
 11 23  2  0  0  0  0
 12 19  1  0  0  0  0
 12 24  1  0  0  0  0
 13 21  2  0  0  0  0
 13 25  1  0  0  0  0
 14 26  1  0  0  0  0
 14 28  2  0  0  0  0
 15 27  1  0  0  0  0
 15 29  2  0  0  0  0
 16 18  1  0  0  0  0
 16 26  1  0  0  0  0
 17 18  1  0  0  0  0
 17 26  1  0  0  0  0
 18 20  1  0  0  0  0
 20 27  1  0  0  0  0
 22 25  1  0  0  0  0
 23 24  1  0  0  0  0
  1 30  1  0  0  0  0
  2 31  1  0  0  0  0
  3 32  1  0  0  0  0
  4 33  1  0  0  0  0
  5 34  1  0  0  0  0
  6 35  1  0  0  0  0
 16 36  1  0  0  0  0
 16 37  1  0  0  0  0
 17 38  1  0  0  0  0
 17 39  1  0  0  0  0
 18 40  1  0  0  0  0
 19 41  1  0  0  0  0
 19 42  1  0  0  0  0
 19 43  1  0  0  0  0
 20 44  1  0  0  0  0
 20 45  1  0  0  0  0
 24 46  1  0  0  0  0
 25 47  1  0  0  0  0
 27 48  1  0  0  0  0
M  END
> <POSIT::Probability>
0.79

> <POSIT::Method>
SHAPEFIT

> <ReceptorTitle>
UCSF-P4528-REFINED_LIGAND-BOUND-STATE_A__DU__LA1_A-201(A)

> <OMEGA_C>
5XI3wkxECsJQQcg+SBA1wmKTDMI0lD6/4BY3wpW1BMKQ5Rw/4k44wiFR6cF6TYBAAuBBwmQg5sG5
7qBAdZMxwnex6sHzXrhAe1EywpVMCcJIp9S/HhY8wvi458Et56BAWVA0wi9ZAcLQMJi+GOgywsPM
6sFmRIxAxucxwh+wA8IRv7i/wMMvwnB2CsLF2TXAfnk6wqyY58GlpctAIaouwrsW7cFoBllAiyw0
wsTo9sHgkpS9y6gwwkQo3sHEGN0/ifUpwsMG6MGoWaA/iGUtwuje38HoV8E+yBQvwj28D8IwAWPA
ZbQwwjeX5MGokUy/y081wvUK6cERGddACG9Dwlgg5cG/8MhA/DcvwvGIAcIddBzA+fYtwoSaBcJf
FFHAvxE/woT05cEJfeNA+4gtwitE5sGmvBRAG+gwwoxg8MHQfFu/BbQrwr6+9MHamWVA3Bg3wn3r
8sE0SkY/pZA5wiLDDMIqVIw/BFY1wqzVEMIFfmm/XfM4wi38AsKHVb4/H345wm5o6cFuIz5AV2xE
wl7S5cE3DYVAinctwsH268Hsv8FAPCkwwvsy1sERhQtAAvI0wkYO4MG1itM/zO0pwvxH8MHGI18/
ktQlwkFq5cHHT7k/xRcrwoe72MHnaro91ncywpljEMLNWofAiFQrwiexD8I85oPAuvEuwu36EsIw
gjPAbNQ0wvmc4cERwDW/MfEuwuSw4cHdqd6/7OUrwv4bBcK5poPA6jE/wjhy5cEytAFBfH8uwl3/
88GY7sG/

> <OMEGA_E>
UKIaPw==

> <OMEGA_NBR>
     77269

$$$$
CACHE3HI_1705_23
  -OEChem-03092622573D

 52 54  0     1  0  0  0  0  0999 V2000
  -46.7161  -28.7591    4.0403 C   0  0  0  0  0  0  0  0  0  0  0  0
  -44.8797  -29.0134    5.5556 C   0  0  0  0  0  0  0  0  0  0  0  0
  -49.1780  -28.9274    6.7338 C   0  0  0  0  0  0  0  0  0  0  0  0
  -47.5622  -28.8378    5.1586 C   0  0  0  0  0  0  0  0  0  0  0  0
  -45.3429  -28.8504    4.2571 C   0  0  0  0  0  0  0  0  0  0  0  0
  -48.9640  -28.7920    5.3788 C   0  0  0  0  0  0  0  0  0  0  0  0
  -46.9639  -29.0018    6.4047 C   0  0  0  0  0  0  0  0  0  0  0  0
  -44.4016  -28.7751    3.1283 C   0  0  0  0  0  0  0  0  0  0  0  0
  -45.5200  -33.5286   -0.5988 C   0  0  0  0  0  0  0  0  0  0  0  0
  -44.1902  -30.8127    0.0585 C   0  0  0  0  0  0  0  0  0  0  0  0
  -43.6202  -29.7484    0.9849 C   0  0  0  0  0  0  0  0  0  0  0  0
  -45.4397  -30.8660    2.0929 C   0  0  0  0  0  0  0  0  0  0  0  0
  -44.8481  -31.7875    1.0328 C   0  0  1  0  0  0  0  0  0  0  0  0
  -50.0111  -28.6292    4.3505 C   0  0  0  0  0  0  0  0  0  0  0  0
  -44.0527  -36.1959   -1.6438 C   0  0  0  0  0  0  0  0  0  0  0  0
  -44.7666  -35.9607   -4.0232 C   0  0  0  0  0  0  0  0  0  0  0  0
  -44.9079  -35.3749   -2.6123 C   0  0  0  0  0  0  0  0  0  0  0  0
  -46.4012  -35.2835   -2.2151 C   0  0  2  0  0  0  0  0  0  0  0  0
  -46.7327  -34.2910   -1.0942 C   0  0  0  0  0  0  0  0  0  0  0  0
  -45.6468  -29.0954    6.6679 N   0  0  0  0  0  0  0  0  0  0  0  0
  -47.9581  -29.0540    7.3464 N   0  0  0  0  0  0  0  0  0  0  0  0
  -44.5149  -29.7338    2.1335 N   0  0  0  0  0  0  0  0  0  0  0  0
  -45.8245  -32.6343    0.4126 N   0  0  0  0  0  0  0  0  0  0  0  0
  -43.5686  -27.8713    3.1480 O   0  0  0  0  0  0  0  0  0  0  0  0
  -44.4049  -33.7081   -1.0831 O   0  0  0  0  0  0  0  0  0  0  0  0
  -46.8845  -36.5717   -1.8239 O   0  0  0  0  0  0  0  0  0  0  0  0
  -47.3367  -34.9490   -0.0671 F   0  0  0  0  0  0  0  0  0  0  0  0
  -47.6703  -33.4184   -1.5668 F   0  0  0  0  0  0  0  0  0  0  0  0
  -47.1209  -28.6312    3.0409 H   0  0  0  0  0  0  0  0  0  0  0  0
  -43.8127  -29.0875    5.7526 H   0  0  0  0  0  0  0  0  0  0  0  0
  -50.0878  -28.9453    7.3179 H   0  0  0  0  0  0  0  0  0  0  0  0
  -44.9355  -30.3626   -0.6090 H   0  0  0  0  0  0  0  0  0  0  0  0
  -43.4171  -31.2887   -0.5517 H   0  0  0  0  0  0  0  0  0  0  0  0
  -42.6222  -30.0223    1.3447 H   0  0  0  0  0  0  0  0  0  0  0  0
  -43.5669  -28.7585    0.5219 H   0  0  0  0  0  0  0  0  0  0  0  0
  -46.4227  -30.4735    1.8069 H   0  0  0  0  0  0  0  0  0  0  0  0
  -45.5165  -31.3442    3.0740 H   0  0  0  0  0  0  0  0  0  0  0  0
  -44.0851  -32.4330    1.4859 H   0  0  0  0  0  0  0  0  0  0  0  0
  -50.2541  -27.5679    4.1718 H   0  0  0  0  0  0  0  0  0  0  0  0
  -50.9578  -29.1139    4.6446 H   0  0  0  0  0  0  0  0  0  0  0  0
  -49.6949  -29.0669    3.3896 H   0  0  0  0  0  0  0  0  0  0  0  0
  -44.4266  -37.2240   -1.5784 H   0  0  0  0  0  0  0  0  0  0  0  0
  -43.0142  -36.2560   -1.9809 H   0  0  0  0  0  0  0  0  0  0  0  0
  -44.0643  -35.7751   -0.6336 H   0  0  0  0  0  0  0  0  0  0  0  0
  -45.1634  -36.9811   -4.0600 H   0  0  0  0  0  0  0  0  0  0  0  0
  -43.7141  -36.0041   -4.3226 H   0  0  0  0  0  0  0  0  0  0  0  0
  -45.3080  -35.3639   -4.7649 H   0  0  0  0  0  0  0  0  0  0  0  0
  -44.4950  -34.3587   -2.6425 H   0  0  0  0  0  0  0  0  0  0  0  0
  -46.9787  -35.0082   -3.1056 H   0  0  0  0  0  0  0  0  0  0  0  0
  -47.8130  -29.1686    8.3398 H   0  0  0  0  0  0  0  0  0  0  0  0
  -46.7871  -32.5751    0.7311 H   0  0  0  0  0  0  0  0  0  0  0  0
  -46.7679  -37.1494   -2.5920 H   0  0  0  0  0  0  0  0  0  0  0  0
  1  4  2  0  0  0  0
  1  5  1  0  0  0  0
  2  5  2  0  0  0  0
  2 20  1  0  0  0  0
  3  6  2  0  0  0  0
  3 21  1  0  0  0  0
  4  6  1  0  0  0  0
  4  7  1  0  0  0  0
  5  8  1  0  0  0  0
  6 14  1  0  0  0  0
  7 20  2  0  0  0  0
  7 21  1  0  0  0  0
  8 22  1  0  0  0  0
  8 24  2  0  0  0  0
  9 19  1  0  0  0  0
  9 23  1  0  0  0  0
  9 25  2  0  0  0  0
 10 11  1  0  0  0  0
 10 13  1  0  0  0  0
 11 22  1  0  0  0  0
 12 13  1  0  0  0  0
 12 22  1  0  0  0  0
 13 23  1  0  0  0  0
 15 17  1  0  0  0  0
 16 17  1  0  0  0  0
 17 18  1  0  0  0  0
 18 19  1  0  0  0  0
 18 26  1  0  0  0  0
 19 27  1  0  0  0  0
 19 28  1  0  0  0  0
  1 29  1  0  0  0  0
  2 30  1  0  0  0  0
  3 31  1  0  0  0  0
 10 32  1  0  0  0  0
 10 33  1  0  0  0  0
 11 34  1  0  0  0  0
 11 35  1  0  0  0  0
 12 36  1  0  0  0  0
 12 37  1  0  0  0  0
 13 38  1  0  0  0  0
 14 39  1  0  0  0  0
 14 40  1  0  0  0  0
 14 41  1  0  0  0  0
 15 42  1  0  0  0  0
 15 43  1  0  0  0  0
 15 44  1  0  0  0  0
 16 45  1  0  0  0  0
 16 46  1  0  0  0  0
 16 47  1  0  0  0  0
 17 48  1  0  0  0  0
 18 49  1  0  0  0  0
 21 50  1  0  0  0  0
 23 51  1  0  0  0  0
 26 52  1  0  0  0  0
M  END
> <POSIT::Probability>
0.18

> <POSIT::Method>
HYBRID

> <ReceptorTitle>
UCSF-P4528-REFINED_LIGAND-BOUND-STATE_A__DU__LA1_A-201(A)

> <OMEGA_C>
SN06wqoS5sEsSoFA24Qzwm4b6MHax7FAPbZEwmBr58FSe9dArD8+wuKz5sFsE6VAFV81wpnN5sHR
OYhAGttDwhpW5sFJH6xA/do7wq4D6MFy88xAR5sxwlsz5sG0NUhAcRQ2wlMdBsLATRm/z8Iwwm+A
9sEAx289EHsuwsz87cGoI3w/NsI1woXt9sFG8gVAd2QzwrZM/sHAMoQ/VwtIwqEI5cGMN4tA/TUw
wqLIEMKoaNK/CREzwsbXD8LxvYDApKEzwtx/DcIcMCfA15o5wlUiDcLIww3AQu46wgMqCcJYD4y/
TJY2wmXD6MG+X9VADNU/wpZu6MFSFetATg8ywrze7cFQiwhAREw3wo+JAsKwO9M+RUYuwm343sEp
eUlAmJ4xwhrVBsKko4q/vIk7wmpJEsIAdem/ylg9wrrLC8IAdIm9W64+wmasBcLMjci/xns8wqUM
5cG0nkJAM0AvwiKz6MFqFbhA5llIwuuP58FOLOpA6b0zwrLm8sFo5hu/EqstwlxP+sEQOw2/K30q
wp0t8MEAIKw/fkQuwlQR5sFIngU/zLA5wtLJ88H8R+c/4hA2wtrA+sFYvERAKVcwwnC7AcJgMb4/
KQRJwgOL3MFxf4VA0NRLwkzp6MG0oJRAk8dGwgiJ6MFg71hA1rQxwljlFMJcCsq/kA4swh0GEcII
j/2/0kEwwqkZD8IgNCK/Tac0wqrsE8Jv64HAQ9suwjIEEMLJUorAWTs1wqB0DcJ4epjA4voxwlVv
CcJoHynANeo7wmwIDMJswkbAjkA/wkdZ6cH6bwVB8yU7wu1MAsKQJjs/VxI7wv+YFMJA4yXA

> <OMEGA_E>
9JgNwQ==

> <OMEGA_NBR>
     78811

$$$$
CACHE3HI_1705_24
  -OEChem-03092622573D

 46 48  0     1  0  0  0  0  0999 V2000
  -48.6650  -28.9525    5.0780 C   0  0  0  0  0  0  0  0  0  0  0  0
  -46.1655  -29.2173    4.3513 C   0  0  0  0  0  0  0  0  0  0  0  0
  -44.7728  -29.3076    6.2968 C   0  0  0  0  0  0  0  0  0  0  0  0
  -49.2084  -28.8679    6.3420 C   0  0  0  0  0  0  0  0  0  0  0  0
  -47.2592  -29.0880    5.2229 C   0  0  0  0  0  0  0  0  0  0  0  0
  -44.8960  -29.3290    4.9141 C   0  0  0  0  0  0  0  0  0  0  0  0
  -46.9926  -29.0811    6.5891 C   0  0  0  0  0  0  0  0  0  0  0  0
  -44.5606  -33.9425   -1.6165 C   0  0  0  0  0  0  0  0  0  0  0  0
  -43.6972  -29.4683    4.0488 C   0  0  0  0  0  0  0  0  0  0  0  0
  -44.4354  -31.0366   -0.7692 C   0  0  0  0  0  0  0  0  0  0  0  0
  -45.6270  -33.2602   -2.3879 C   0  0  0  0  0  0  0  0  0  0  0  0
  -46.3528  -32.6125   -1.2324 C   0  0  2  0  0  0  0  0  0  0  0  0
  -43.3594  -34.5138   -2.2893 C   0  0  0  0  0  0  0  0  0  0  0  0
  -42.2437  -31.4831    1.6138 C   0  0  0  0  0  0  0  0  0  0  0  0
  -45.9301  -31.1713   -0.9832 C   0  0  0  0  0  0  0  0  0  0  0  0
  -42.7287  -28.9942    1.8143 C   0  0  0  0  0  0  0  0  0  0  0  0
  -42.8006  -30.2396    0.9279 C   0  0  2  0  0  0  0  0  0  0  0  0
  -45.7888  -29.1857    7.1829 N   0  0  0  0  0  0  0  0  0  0  0  0
  -44.7741  -34.0441   -0.3459 N   0  0  0  0  0  0  0  0  0  0  0  0
  -48.1851  -28.9471    7.2509 N   0  0  0  0  0  0  0  0  0  0  0  0
  -43.7956  -28.9199    2.7759 N   0  0  0  0  0  0  0  0  0  0  0  0
  -44.1494  -30.4784    0.4683 N   0  0  0  0  0  0  0  0  0  0  0  0
  -42.7118  -30.0614    4.4796 O   0  0  0  0  0  0  0  0  0  0  0  0
  -43.6003  -31.3850   -1.5993 O   0  0  0  0  0  0  0  0  0  0  0  0
  -46.0134  -33.4069   -0.0863 O   0  0  0  0  0  0  0  0  0  0  0  0
  -49.2239  -28.9198    4.1528 H   0  0  0  0  0  0  0  0  0  0  0  0
  -46.3089  -29.2292    3.2750 H   0  0  0  0  0  0  0  0  0  0  0  0
  -43.7933  -29.3930    6.7620 H   0  0  0  0  0  0  0  0  0  0  0  0
  -50.2311  -28.7588    6.6745 H   0  0  0  0  0  0  0  0  0  0  0  0
  -45.2353  -32.5577   -3.1260 H   0  0  0  0  0  0  0  0  0  0  0  0
  -46.2377  -34.0227   -2.8806 H   0  0  0  0  0  0  0  0  0  0  0  0
  -47.4372  -32.6531   -1.3799 H   0  0  0  0  0  0  0  0  0  0  0  0
  -42.5705  -33.7624   -2.3428 H   0  0  0  0  0  0  0  0  0  0  0  0
  -43.6152  -34.8354   -3.2999 H   0  0  0  0  0  0  0  0  0  0  0  0
  -42.9944  -35.3762   -1.7298 H   0  0  0  0  0  0  0  0  0  0  0  0
  -42.8127  -31.7078    2.5223 H   0  0  0  0  0  0  0  0  0  0  0  0
  -41.1988  -31.3468    1.9127 H   0  0  0  0  0  0  0  0  0  0  0  0
  -42.3028  -32.3542    0.9536 H   0  0  0  0  0  0  0  0  0  0  0  0
  -46.4460  -30.7905   -0.0967 H   0  0  0  0  0  0  0  0  0  0  0  0
  -46.2199  -30.5559   -1.8401 H   0  0  0  0  0  0  0  0  0  0  0  0
  -41.7861  -28.9702    2.3715 H   0  0  0  0  0  0  0  0  0  0  0  0
  -42.7855  -28.0848    1.2058 H   0  0  0  0  0  0  0  0  0  0  0  0
  -42.2070  -30.0485    0.0266 H   0  0  0  0  0  0  0  0  0  0  0  0
  -48.2926  -28.9122    8.2550 H   0  0  0  0  0  0  0  0  0  0  0  0
  -44.6712  -28.4989    2.4729 H   0  0  0  0  0  0  0  0  0  0  0  0
  -44.9132  -30.1919    1.0739 H   0  0  0  0  0  0  0  0  0  0  0  0
  1  4  2  0  0  0  0
  1  5  1  0  0  0  0
  2  5  2  0  0  0  0
  2  6  1  0  0  0  0
  3  6  2  0  0  0  0
  3 18  1  0  0  0  0
  4 20  1  0  0  0  0
  5  7  1  0  0  0  0
  6  9  1  0  0  0  0
  7 18  2  0  0  0  0
  7 20  1  0  0  0  0
  8 11  1  0  0  0  0
  8 13  1  0  0  0  0
  8 19  2  0  0  0  0
  9 21  1  0  0  0  0
  9 23  2  0  0  0  0
 10 15  1  0  0  0  0
 10 22  1  0  0  0  0
 10 24  2  0  0  0  0
 11 12  1  0  0  0  0
 12 15  1  0  0  0  0
 12 25  1  0  0  0  0
 14 17  1  0  0  0  0
 16 17  1  0  0  0  0
 16 21  1  0  0  0  0
 17 22  1  0  0  0  0
 19 25  1  0  0  0  0
  1 26  1  0  0  0  0
  2 27  1  0  0  0  0
  3 28  1  0  0  0  0
  4 29  1  0  0  0  0
 11 30  1  0  0  0  0
 11 31  1  0  0  0  0
 12 32  1  0  0  0  0
 13 33  1  0  0  0  0
 13 34  1  0  0  0  0
 13 35  1  0  0  0  0
 14 36  1  0  0  0  0
 14 37  1  0  0  0  0
 14 38  1  0  0  0  0
 15 39  1  0  0  0  0
 15 40  1  0  0  0  0
 16 41  1  0  0  0  0
 16 42  1  0  0  0  0
 17 43  1  0  0  0  0
 20 44  1  0  0  0  0
 21 45  1  0  0  0  0
 22 46  1  0  0  0  0
M  END
> <POSIT::Probability>
0.33

> <POSIT::Method>
HYBRID

> <ReceptorTitle>
UCSF-P4528-REFINED_LIGAND-BOUND-STATE_A__DU__LA1_A-201(A)

> <OMEGA_C>
+KhCwrWe58HafqJAfak4wvi86cF9PYtATRczwuF16sFqf8lAZdVEwojx5sGF8cpAcQk9wkS06MEz
IqdAd5UzwrOh6sGzQJ1Adfg7wiKm6MEm2tJACT4ywijFB8LY6c6/58kuwgu/68EDkIFA1L0xwghL
+MGQ6kS/DII2wncKBcKV0hjAUGk5wj1zAsKYvp2/DXAtwhYOCsJRhBLAlvkowmvd+8E8ks4/Y7g3
wt9e+cHwr3u/N+oqwhj058EoO+g/3TMrwqvq8cHAh20/sic3wj986cEV2uVAsxgzwistCMJAFrG+
jL1AwqCT58H3BuhAtC4vwgJc58HepzFA9JgwwtLT88EAwe8+3dgqwq598MEgWY9AvmYuwoQU+8G8
tcy/rQ04wqegBcIAwrC9Q+VEwtNb58EL5IRARTw5wl/V6cFamlFATCwvwtIk68H5YdhAmexIwgkS
5sGIldVA+PA0whk7AsIMEEjAcfM4wkcXCMJvWzjAq789wtOcAsLwoLC/JUgqwqoMB8K98BXA73Uu
wn5XC8L7MFPARPorwjeBDcL4aN2/LEArwoap/cG4bCFAmMskwjXG+sGk1PQ/FTYpwrNqAcIQInQ/
qcg5wuZS9sFA88W9KeE4wnty9MFAh+u/9SQnwvbC58HMxhdAYSQrwq6t4MHcVpo/8tMowmlj8MEA
Jto8qStBwiVM58GvFARBWK8ywsL948GMQx5AJaczwgmJ8cFkdYk/

> <OMEGA_E>
BawSwQ==

> <OMEGA_NBR>
     80232

$$$$
CACHE3HI_1705_28
  -OEChem-03092622573D

 51 54  0     0  0  0  0  0  0999 V2000
  -50.3389  -31.1728    3.9959 C   0  0  0  0  0  0  0  0  0  0  0  0
  -51.2220  -30.4224    4.7722 C   0  0  0  0  0  0  0  0  0  0  0  0
  -44.8277  -23.8091   -2.0526 C   0  0  0  0  0  0  0  0  0  0  0  0
  -48.9963  -30.8035    3.9140 C   0  0  0  0  0  0  0  0  0  0  0  0
  -50.7628  -29.3031    5.4667 C   0  0  0  0  0  0  0  0  0  0  0  0
  -45.9295  -22.9889   -2.2682 C   0  0  0  0  0  0  0  0  0  0  0  0
  -45.2037  -28.5323    4.9667 C   0  0  0  0  0  0  0  0  0  0  0  0
  -46.1228  -25.0507   -0.4910 C   0  0  0  0  0  0  0  0  0  0  0  0
  -44.9176  -24.8619   -1.1489 C   0  0  0  0  0  0  0  0  0  0  0  0
  -48.5371  -29.6843    4.6086 C   0  0  0  0  0  0  0  0  0  0  0  0
  -49.4202  -28.9338    5.3848 C   0  0  0  0  0  0  0  0  0  0  0  0
  -45.2820  -29.1070    3.6839 C   0  0  0  0  0  0  0  0  0  0  0  0
  -46.4651  -28.6859    5.4885 C   0  0  0  0  0  0  0  0  0  0  0  0
  -47.0892  -23.2612   -1.5607 C   0  0  0  0  0  0  0  0  0  0  0  0
  -43.7587  -25.7555   -0.8961 C   0  0  0  0  0  0  0  0  0  0  0  0
  -44.1976  -29.2162    2.6752 C   0  0  0  0  0  0  0  0  0  0  0  0
  -42.8132  -30.5686    0.1539 C   0  0  0  0  0  0  0  0  0  0  0  0
  -43.9311  -30.3559   -0.8216 C   0  0  0  0  0  0  0  0  0  0  0  0
  -43.6683  -29.3236    0.2536 C   0  0  0  0  0  0  0  0  0  0  0  0
  -47.0166  -28.2880    6.7987 C   0  0  0  0  0  0  0  0  0  0  0  0
  -43.0494  -28.0198   -0.1711 C   0  0  0  0  0  0  0  0  0  0  0  0
  -47.2145  -24.2745   -0.6747 N   0  0  0  0  0  0  0  0  0  0  0  0
  -46.4964  -29.5895    3.4080 N   0  0  0  0  0  0  0  0  0  0  0  0
  -47.1936  -29.3185    4.5244 N   0  0  0  0  0  0  0  0  0  0  0  0
  -48.2031  -22.4163   -1.7908 N   0  0  0  0  0  0  0  0  0  0  0  0
  -44.0787  -27.0293   -0.4832 N   0  0  0  0  0  0  0  0  0  0  0  0
  -44.5922  -29.2039    1.3381 N   0  0  0  0  0  0  0  0  0  0  0  0
  -42.6205  -25.3187   -1.0448 O   0  0  0  0  0  0  0  0  0  0  0  0
  -43.0348  -29.3294    3.0539 O   0  0  0  0  0  0  0  0  0  0  0  0
  -48.9920  -27.8558    6.0575 F   0  0  0  0  0  0  0  0  0  0  0  0
  -50.6968  -32.0443    3.4558 H   0  0  0  0  0  0  0  0  0  0  0  0
  -52.2673  -30.7102    4.8358 H   0  0  0  0  0  0  0  0  0  0  0  0
  -43.9044  -23.6195   -2.5932 H   0  0  0  0  0  0  0  0  0  0  0  0
  -48.3187  -31.3969    3.3049 H   0  0  0  0  0  0  0  0  0  0  0  0
  -51.4505  -28.7192    6.0710 H   0  0  0  0  0  0  0  0  0  0  0  0
  -45.8674  -22.1649   -2.9718 H   0  0  0  0  0  0  0  0  0  0  0  0
  -44.3524  -28.0710    5.4470 H   0  0  0  0  0  0  0  0  0  0  0  0
  -46.2544  -25.8552    0.2260 H   0  0  0  0  0  0  0  0  0  0  0  0
  -42.9397  -31.3427    0.9018 H   0  0  0  0  0  0  0  0  0  0  0  0
  -41.7986  -30.4741   -0.2143 H   0  0  0  0  0  0  0  0  0  0  0  0
  -43.6683  -30.1184   -1.8456 H   0  0  0  0  0  0  0  0  0  0  0  0
  -44.8070  -30.9872   -0.7268 H   0  0  0  0  0  0  0  0  0  0  0  0
  -47.4427  -27.2703    6.7770 H   0  0  0  0  0  0  0  0  0  0  0  0
  -46.2442  -28.2786    7.5869 H   0  0  0  0  0  0  0  0  0  0  0  0
  -47.8142  -28.9780    7.1199 H   0  0  0  0  0  0  0  0  0  0  0  0
  -42.4082  -27.6210    0.6286 H   0  0  0  0  0  0  0  0  0  0  0  0
  -42.4118  -28.1645   -1.0556 H   0  0  0  0  0  0  0  0  0  0  0  0
  -48.0969  -21.6370   -2.4030 H   0  0  0  0  0  0  0  0  0  0  0  0
  -49.0323  -22.5573   -1.2563 H   0  0  0  0  0  0  0  0  0  0  0  0
  -45.0313  -27.3108   -0.3185 H   0  0  0  0  0  0  0  0  0  0  0  0
  -45.5885  -29.1692    1.1146 H   0  0  0  0  0  0  0  0  0  0  0  0
  1  2  1  0  0  0  0
  1  4  2  0  0  0  0
  2  5  2  0  0  0  0
  3  6  2  0  0  0  0
  3  9  1  0  0  0  0
  4 10  1  0  0  0  0
  5 11  1  0  0  0  0
  6 14  1  0  0  0  0
  7 12  1  0  0  0  0
  7 13  2  0  0  0  0
  8  9  2  0  0  0  0
  8 22  1  0  0  0  0
  9 15  1  0  0  0  0
 10 11  2  0  0  0  0
 10 24  1  0  0  0  0
 11 30  1  0  0  0  0
 12 16  1  0  0  0  0
 12 23  2  0  0  0  0
 13 20  1  0  0  0  0
 13 24  1  0  0  0  0
 14 22  2  0  0  0  0
 14 25  1  0  0  0  0
 15 26  1  0  0  0  0
 15 28  2  0  0  0  0
 16 27  1  0  0  0  0
 16 29  2  0  0  0  0
 17 18  1  0  0  0  0
 17 19  1  0  0  0  0
 18 19  1  0  0  0  0
 19 21  1  0  0  0  0
 19 27  1  0  0  0  0
 21 26  1  0  0  0  0
 23 24  1  0  0  0  0
  1 31  1  0  0  0  0
  2 32  1  0  0  0  0
  3 33  1  0  0  0  0
  4 34  1  0  0  0  0
  5 35  1  0  0  0  0
  6 36  1  0  0  0  0
  7 37  1  0  0  0  0
  8 38  1  0  0  0  0
 17 39  1  0  0  0  0
 17 40  1  0  0  0  0
 18 41  1  0  0  0  0
 18 42  1  0  0  0  0
 20 43  1  0  0  0  0
 20 44  1  0  0  0  0
 20 45  1  0  0  0  0
 21 46  1  0  0  0  0
 21 47  1  0  0  0  0
 25 48  1  0  0  0  0
 25 49  1  0  0  0  0
 26 50  1  0  0  0  0
 27 51  1  0  0  0  0
M  END
> <POSIT::Probability>
0.24

> <POSIT::Method>
FRED

> <ReceptorTitle>
UCSF-P4528-REFINED_LIGAND-BOUND-STATE_A__DU__LA1_A-201(A)

> <OMEGA_C>
/1pJwvhh+cFPvH9AVONMwhJh88F5tZhAj08zwhx5vsEeXgPAQvxDwqJt9sG6f3pAEg1Lws9s6sHo
7q5Axrc3wlDpt8F8KhHAjtA0wj1C5ME9755AzH04wtBnyMGwafu+mqszwjjlxsGwDZO/ACZCwl95
7cFMeZNARq5Fwnt458F1UKxAuyA1wiTb6MFhxWtASNw5wq585cFqoa9AZFs8wvoWusGgxse/7Qgv
wjgLzsEYaWW/YcowwuC66cECNitAt0ArwoyM9MGAjx0+ebkvwuDY8sHgUVK/UawuwsiW6sGg14E+
ChE8wuVN4sGgjtlAnTIswnQo4MGAKS++m9s8wiYywsFguyy/Uvw5wlO37MGfHFpANcY8wkqM6sEk
yJBA7s9AwntUs8FoOuW/k1Awwv872MFwa/e+aV4ywoWh6cGAR6s/bnsqwraMysFcvYW/ryMswqWi
6sGXc0NAxvdDwp7Y3sGq1sFAhMlKwlMtAMJqK11AsxFRwoKu9cHFvppAJJ4vwtb0vMGc9yXAZkZB
wuYs+8HBglNAVM1NwuvA5cHdRcJAPHg3wqBRscGDMT7A5mgxwm2R4ME7Tq5AggQ5wnXXzsHgcmc+
Q8Irwty9+sHI3mY/vTEnwgzL88GgbVu+S6wuwmfy8MG4O+y/Uzozwsbl98EoETq/V8U9wpop2sH6
3NhABPo4woY64sG0x/JAukE/wtvS58Hb1eNABaIpwtz33MGI7SA/uKUpwvdQ4cHMHIe/MGNAwn8Y
rcG2yhnAFyFEwnB1tMHkzqC/GCA0wnZ82sGAFaO+nlo2woha6cGwqo4/

> <OMEGA_E>
+h8YwQ==

> <OMEGA_NBR>
     81744

$$$$
CACHE3HI_1705_29
  -OEChem-03092622573D

 45 47  0     0  0  0  0  0  0999 V2000
  -44.1001  -23.7162   -2.6880 C   0  0  0  0  0  0  0  0  0  0  0  0
  -43.9942  -25.0632   -2.3600 C   0  0  0  0  0  0  0  0  0  0  0  0
  -45.0667  -22.9647   -2.0384 C   0  0  0  0  0  0  0  0  0  0  0  0
  -44.3191  -29.1525    5.9029 C   0  0  0  0  0  0  0  0  0  0  0  0
  -45.7784  -24.7744   -0.8141 C   0  0  0  0  0  0  0  0  0  0  0  0
  -44.4633  -29.3707    4.5480 C   0  0  0  0  0  0  0  0  0  0  0  0
  -44.8454  -25.6101   -1.4064 C   0  0  0  0  0  0  0  0  0  0  0  0
  -45.7625  -29.4361    4.0882 C   0  0  0  0  0  0  0  0  0  0  0  0
  -46.5744  -29.0916    6.1839 C   0  0  0  0  0  0  0  0  0  0  0  0
  -43.2903  -29.5195    3.6777 C   0  0  0  0  0  0  0  0  0  0  0  0
  -43.3260  -28.7489    0.1794 C   0  0  0  0  0  0  0  0  0  0  0  0
  -44.4274  -26.8706    1.4670 C   0  0  0  0  0  0  0  0  0  0  0  0
  -42.4558  -29.0383    1.4035 C   0  0  0  0  0  0  0  0  0  0  0  0
  -43.5258  -27.1983    2.6573 C   0  0  0  0  0  0  0  0  0  0  0  0
  -43.7859  -27.2828    0.1307 C   0  0  0  0  0  0  0  0  0  0  0  0
  -46.0424  -29.6684    2.6396 C   0  0  0  0  0  0  0  0  0  0  0  0
  -44.7557  -27.0624   -1.0302 C   0  0  0  0  0  0  0  0  0  0  0  0
  -45.9113  -23.4614   -1.1067 N   0  0  0  0  0  0  0  0  0  0  0  0
  -45.3567  -29.0078    6.7532 N   0  0  0  0  0  0  0  0  0  0  0  0
  -46.8460  -29.3007    4.8811 N   0  0  0  0  0  0  0  0  0  0  0  0
  -43.1261  -28.6103    2.6305 N   0  0  0  0  0  0  0  0  0  0  0  0
  -47.6845  -28.9459    7.0441 N   0  0  0  0  0  0  0  0  0  0  0  0
  -42.5367  -30.4568    3.9404 O   0  0  0  0  0  0  0  0  0  0  0  0
  -42.6326  -26.4690   -0.1020 O   0  0  0  0  0  0  0  0  0  0  0  0
  -43.4461  -23.2687   -3.4276 H   0  0  0  0  0  0  0  0  0  0  0  0
  -43.2454  -25.6783   -2.8516 H   0  0  0  0  0  0  0  0  0  0  0  0
  -45.1895  -21.9091   -2.2573 H   0  0  0  0  0  0  0  0  0  0  0  0
  -43.3393  -29.0844    6.3654 H   0  0  0  0  0  0  0  0  0  0  0  0
  -46.4697  -25.1449   -0.0634 H   0  0  0  0  0  0  0  0  0  0  0  0
  -42.7458  -28.9912   -0.7197 H   0  0  0  0  0  0  0  0  0  0  0  0
  -44.1972  -29.4158    0.1961 H   0  0  0  0  0  0  0  0  0  0  0  0
  -45.3903  -27.3813    1.5952 H   0  0  0  0  0  0  0  0  0  0  0  0
  -44.6265  -25.7919    1.4727 H   0  0  0  0  0  0  0  0  0  0  0  0
  -42.2193  -30.1066    1.4439 H   0  0  0  0  0  0  0  0  0  0  0  0
  -41.5052  -28.4958    1.3420 H   0  0  0  0  0  0  0  0  0  0  0  0
  -42.6077  -26.5998    2.6243 H   0  0  0  0  0  0  0  0  0  0  0  0
  -44.0424  -26.9427    3.5858 H   0  0  0  0  0  0  0  0  0  0  0  0
  -46.1238  -30.7399    2.4181 H   0  0  0  0  0  0  0  0  0  0  0  0
  -45.2344  -29.2726    2.0116 H   0  0  0  0  0  0  0  0  0  0  0  0
  -46.9804  -29.1799    2.3510 H   0  0  0  0  0  0  0  0  0  0  0  0
  -44.4300  -27.6533   -1.8913 H   0  0  0  0  0  0  0  0  0  0  0  0
  -45.7452  -27.4396   -0.7535 H   0  0  0  0  0  0  0  0  0  0  0  0
  -47.5281  -28.8431    8.0254 H   0  0  0  0  0  0  0  0  0  0  0  0
  -48.6052  -29.0541    6.6717 H   0  0  0  0  0  0  0  0  0  0  0  0
  -42.2641  -26.7585   -0.9490 H   0  0  0  0  0  0  0  0  0  0  0  0
  1  2  2  0  0  0  0
  1  3  1  0  0  0  0
  2  7  1  0  0  0  0
  3 18  2  0  0  0  0
  4  6  2  0  0  0  0
  4 19  1  0  0  0  0
  5  7  2  0  0  0  0
  5 18  1  0  0  0  0
  6  8  1  0  0  0  0
  6 10  1  0  0  0  0
  7 17  1  0  0  0  0
  8 16  1  0  0  0  0
  8 20  2  0  0  0  0
  9 19  2  0  0  0  0
  9 20  1  0  0  0  0
  9 22  1  0  0  0  0
 10 21  1  0  0  0  0
 10 23  2  0  0  0  0
 11 13  1  0  0  0  0
 11 15  1  0  0  0  0
 12 14  1  0  0  0  0
 12 15  1  0  0  0  0
 13 21  1  0  0  0  0
 14 21  1  0  0  0  0
 15 17  1  0  0  0  0
 15 24  1  0  0  0  0
  1 25  1  0  0  0  0
  2 26  1  0  0  0  0
  3 27  1  0  0  0  0
  4 28  1  0  0  0  0
  5 29  1  0  0  0  0
 11 30  1  0  0  0  0
 11 31  1  0  0  0  0
 12 32  1  0  0  0  0
 12 33  1  0  0  0  0
 13 34  1  0  0  0  0
 13 35  1  0  0  0  0
 14 36  1  0  0  0  0
 14 37  1  0  0  0  0
 16 38  1  0  0  0  0
 16 39  1  0  0  0  0
 16 40  1  0  0  0  0
 17 41  1  0  0  0  0
 17 42  1  0  0  0  0
 22 43  1  0  0  0  0
 22 44  1  0  0  0  0
 24 45  1  0  0  0  0
M  END
> <POSIT::Probability>
0.18

> <POSIT::Method>
FRED

> <ReceptorTitle>
UCSF-P4528-REFINED_LIGAND-BOUND-STATE_A__DU__LA1_A-201(A)

> <OMEGA_C>
jGYwwrG6vcFoCCzACPovwl6ByMEMCxfAWkQ0wry3t8HedALAxkYxwk446cFN5LxAEh03wgwyxsGg
aFC/Ztoxwkb36sGQiZFAq2Ezwo7hzMG3BbS/0Aw3whN968HJ0oJAJEw6woy76MEa4sVARiktwgIo
7MFvX2tAyE0twtD95cHQrDc+o7Uxwuv21sE4xrs/vdIpwntO6MEqp7M/bBouwhSW2cHsECpAtiQv
wkBD2sGQ0QU+ais4wvpY7cEA8ChA0AUzwsF/2MEt3YO/IKU3wuawu8HyqI2/RG01wu8P6MH+GdhA
Q2I7wtRn6sE9MpxAGoEswt7h5MFNWihA5bw+wkaR58EkaeFAjyUqwo6n88H6L3xA04cqwnLA08Eg
7dC91cgtwl0musEcXlvAVPsswiptzcEUgTbAFcI0wuVFr8HYdhDAbFstwuis6MF/sctA8eA5wr8o
ycEg24G9wPsqwu7t58HmPDi/+8kwwqBT68FAzUg+o481wuIM28HwMMw/h4EywrxVzsEAgbw/mOAo
wlza8MFK0rg/WAUmwmj348F2x6s/Rm4qwmTM1MEn9CdAcyswwqCK18FtfmVAwn44wkDr9cH2wRpA
/+80wlou6sHHvQBA4us7woRw6cGbdhZAS7gxwv453cHCFvK/DPs2wkCE28GG5UC/0hw+wrG+5sEv
aABBsmtCwtVu6MG+ftVAcw4pwngR1sHI7nK/

> <OMEGA_E>
rE4FwQ==

> <OMEGA_NBR>
     83133

$$$$
CACHE3HI_1705_3
  -OEChem-03092622573D

 42 45  0     0  0  0  0  0  0999 V2000
  -48.2917  -28.2939    4.8697 C   0  0  0  0  0  0  0  0  0  0  0  0
  -45.8877  -28.8703    3.9930 C   0  0  0  0  0  0  0  0  0  0  0  0
  -45.1784  -32.6342   -0.6529 C   0  0  0  0  0  0  0  0  0  0  0  0
  -44.4025  -29.4917    5.8222 C   0  0  0  0  0  0  0  0  0  0  0  0
  -48.7861  -28.2703    6.1528 C   0  0  0  0  0  0  0  0  0  0  0  0
  -45.0347  -31.3260   -0.2586 C   0  0  0  0  0  0  0  0  0  0  0  0
  -46.8930  -28.7010    4.9571 C   0  0  0  0  0  0  0  0  0  0  0  0
  -44.6040  -29.2477    4.4421 C   0  0  0  0  0  0  0  0  0  0  0  0
  -46.6134  -28.9344    6.3123 C   0  0  0  0  0  0  0  0  0  0  0  0
  -43.4912  -29.5302    3.5205 C   0  0  0  0  0  0  0  0  0  0  0  0
  -42.1272  -29.6020    0.7135 C   0  0  0  0  0  0  0  0  0  0  0  0
  -44.1805  -27.9967    0.8208 C   0  0  0  0  0  0  0  0  0  0  0  0
  -41.6374  -28.9099    1.9996 C   0  0  0  0  0  0  0  0  0  0  0  0
  -43.5935  -27.4375    2.1425 C   0  0  0  0  0  0  0  0  0  0  0  0
  -43.0816  -28.6587   -0.0797 C   0  0  0  0  0  0  0  0  0  0  0  0
  -43.7379  -29.3822   -1.3039 C   0  0  0  0  0  0  0  0  0  0  0  0
  -45.3925  -29.3331    6.7280 N   0  0  0  0  0  0  0  0  0  0  0  0
  -44.3156  -32.8570   -1.7419 N   0  0  0  0  0  0  0  0  0  0  0  0
  -43.6721  -31.7739   -2.0200 N   0  0  0  0  0  0  0  0  0  0  0  0
  -47.7715  -28.6637    7.0230 N   0  0  0  0  0  0  0  0  0  0  0  0
  -44.1054  -30.8344   -1.1431 N   0  0  0  0  0  0  0  0  0  0  0  0
  -42.8357  -28.5311    2.7653 N   0  0  0  0  0  0  0  0  0  0  0  0
  -43.0078  -30.6557    3.5895 O   0  0  0  0  0  0  0  0  0  0  0  0
  -42.2684  -27.5956   -0.5836 O   0  0  0  0  0  0  0  0  0  0  0  0
  -48.8359  -28.0560    3.9677 H   0  0  0  0  0  0  0  0  0  0  0  0
  -46.0894  -28.7170    2.9431 H   0  0  0  0  0  0  0  0  0  0  0  0
  -45.8377  -33.3633   -0.2056 H   0  0  0  0  0  0  0  0  0  0  0  0
  -43.4289  -29.8140    6.1608 H   0  0  0  0  0  0  0  0  0  0  0  0
  -49.7905  -27.9938    6.4376 H   0  0  0  0  0  0  0  0  0  0  0  0
  -45.5313  -30.8098    0.5497 H   0  0  0  0  0  0  0  0  0  0  0  0
  -41.2606  -29.8536    0.0844 H   0  0  0  0  0  0  0  0  0  0  0  0
  -42.6665  -30.5229    0.9800 H   0  0  0  0  0  0  0  0  0  0  0  0
  -44.9427  -28.7520    1.0629 H   0  0  0  0  0  0  0  0  0  0  0  0
  -44.6465  -27.1714    0.2626 H   0  0  0  0  0  0  0  0  0  0  0  0
  -41.0157  -29.6011    2.5877 H   0  0  0  0  0  0  0  0  0  0  0  0
  -41.0512  -28.0140    1.7471 H   0  0  0  0  0  0  0  0  0  0  0  0
  -42.9280  -26.5874    1.9317 H   0  0  0  0  0  0  0  0  0  0  0  0
  -44.4052  -27.1112    2.8094 H   0  0  0  0  0  0  0  0  0  0  0  0
  -44.6592  -28.8356   -1.5536 H   0  0  0  0  0  0  0  0  0  0  0  0
  -43.0313  -29.3130   -2.1442 H   0  0  0  0  0  0  0  0  0  0  0  0
  -47.8655  -28.7397    8.0157 H   0  0  0  0  0  0  0  0  0  0  0  0
  -42.8085  -26.9901   -1.0777 H   0  0  0  0  0  0  0  0  0  0  0  0
  1  5  2  0  0  0  0
  1  7  1  0  0  0  0
  2  7  2  0  0  0  0
  2  8  1  0  0  0  0
  3  6  2  0  0  0  0
  3 18  1  0  0  0  0
  4  8  2  0  0  0  0
  4 17  1  0  0  0  0
  5 20  1  0  0  0  0
  6 21  1  0  0  0  0
  7  9  1  0  0  0  0
  8 10  1  0  0  0  0
  9 17  2  0  0  0  0
  9 20  1  0  0  0  0
 10 22  1  0  0  0  0
 10 23  2  0  0  0  0
 11 13  1  0  0  0  0
 11 15  1  0  0  0  0
 12 14  1  0  0  0  0
 12 15  1  0  0  0  0
 13 22  1  0  0  0  0
 14 22  1  0  0  0  0
 15 16  1  0  0  0  0
 15 24  1  0  0  0  0
 16 21  1  0  0  0  0
 18 19  2  0  0  0  0
 19 21  1  0  0  0  0
  1 25  1  0  0  0  0
  2 26  1  0  0  0  0
  3 27  1  0  0  0  0
  4 28  1  0  0  0  0
  5 29  1  0  0  0  0
  6 30  1  0  0  0  0
 11 31  1  0  0  0  0
 11 32  1  0  0  0  0
 12 33  1  0  0  0  0
 12 34  1  0  0  0  0
 13 35  1  0  0  0  0
 13 36  1  0  0  0  0
 14 37  1  0  0  0  0
 14 38  1  0  0  0  0
 16 39  1  0  0  0  0
 16 40  1  0  0  0  0
 20 41  1  0  0  0  0
 24 42  1  0  0  0  0
M  END
> <POSIT::Probability>
0.78

> <POSIT::Method>
SHAPEFIT

> <ReceptorTitle>
UCSF-P4528-REFINED_LIGAND-BOUND-STATE_A__DU__LA1_A-201(A)

> <OMEGA_C>
tSpBwthZ4sHR1JtAC403wlX25sGejH9Ap7Y0wmOJAsK4Iie/I5wxwgfv68FRT7pA7CRDwqgp4sFd
48RAhSM0wqeb+sEQa4S+Y5I7wp2b5cHuoJ5AeGoywlH76cGwJY5AFXQ6wqV558Eo/slA9fYtwuw9
7MF0T2FANYIowuzQ7MFwpzY/37gwwlL538FAIFI/powmwoNH58HQ8v8/w18uwv5/28HeHglAjFMs
wvNE5cEAU6O9lPMuwrIO68Fw5qa/75E1wkiq6sG8S9dAI0MxwphtA8LM9d6/OLAuwtow/sFcRwHA
AhY/wlhP5cFyvOBA+2swwvSs9sF8T5K/xFcrwss/5MG4+jBA+wcswtg+9cG7umVA2BIpwsbD3MEI
ZRW/7FdDwqRy4MFb7n1AjFs4wny85cFjWzxAw1k3wg50BcLnh1K+Mrctwh+D7sFYJcVAbClHwlDz
38GdAM5ABSA2wnh69sHktgw/1QolwjHU7sFv4Kw9eaoqwvcu9MHM4no/XsUzwhcE5sFgDog/EZYy
wvhe2cEfcoY+GRAkwhDP7MF+nCVAZzQkwrMc4MFfod8/QrYrwgez1MHRQvc/4Z4xwqrj2MFOzTNA
B6Mywj6v5sHr3Ma/FSAswgiB6sHeOQnASHY/wtLq5cE1QABB2zsrwrHr18GB84m/

> <OMEGA_E>
PiQ7Pw==

> <OMEGA_NBR>
     84493

$$$$
CACHE3HI_1705_30
  -OEChem-03092622573D

 49 53  0     1  0  0  0  0  0999 V2000
  -43.9120  -34.7226   -3.7762 C   0  0  0  0  0  0  0  0  0  0  0  0
  -43.4393  -33.4245   -4.0066 C   0  0  0  0  0  0  0  0  0  0  0  0
  -44.6741  -34.9976   -2.6277 C   0  0  0  0  0  0  0  0  0  0  0  0
  -43.7225  -32.4033   -3.0857 C   0  0  0  0  0  0  0  0  0  0  0  0
  -48.4777  -28.5226    5.1332 C   0  0  0  0  0  0  0  0  0  0  0  0
  -46.1199  -29.0171    4.1091 C   0  0  0  0  0  0  0  0  0  0  0  0
  -44.4481  -29.4212    5.8373 C   0  0  0  0  0  0  0  0  0  0  0  0
  -48.8741  -28.4405    6.4467 C   0  0  0  0  0  0  0  0  0  0  0  0
  -43.7174  -30.5988   -0.8721 C   0  0  0  0  0  0  0  0  0  0  0  0
  -47.0500  -28.8234    5.1367 C   0  0  0  0  0  0  0  0  0  0  0  0
  -44.7910  -29.3201    4.4685 C   0  0  0  0  0  0  0  0  0  0  0  0
  -44.9883  -33.9817   -1.6930 C   0  0  0  0  0  0  0  0  0  0  0  0
  -44.4935  -32.6499   -1.9143 C   0  0  0  0  0  0  0  0  0  0  0  0
  -44.0045  -30.0413    0.3355 C   0  0  0  0  0  0  0  0  0  0  0  0
  -46.6446  -28.9222    6.4756 C   0  0  0  0  0  0  0  0  0  0  0  0
  -43.7922  -29.5926    3.4280 C   0  0  0  0  0  0  0  0  0  0  0  0
  -43.1103  -26.6733    1.2934 C   0  0  0  0  0  0  0  0  0  0  0  0
  -42.9892  -27.7585    0.2382 C   0  0  0  0  0  0  0  0  0  0  0  0
  -44.0370  -27.3005    2.3291 C   0  0  0  0  0  0  0  0  0  0  0  0
  -43.0862  -29.0690    1.0408 C   0  0  1  0  0  0  0  0  0  0  0  0
  -45.9036  -34.3746   -0.5292 C   0  0  0  0  0  0  0  0  0  0  0  0
  -45.3660  -29.2132    6.8129 N   0  0  0  0  0  0  0  0  0  0  0  0
  -45.2351  -30.5698    0.7714 N   0  0  0  0  0  0  0  0  0  0  0  0
  -45.6272  -31.4841   -0.0480 N   0  0  0  0  0  0  0  0  0  0  0  0
  -47.7655  -28.6832    7.2571 N   0  0  0  0  0  0  0  0  0  0  0  0
  -44.6634  -31.5807   -0.9999 N   0  0  0  0  0  0  0  0  0  0  0  0
  -43.6192  -28.7073    2.3638 N   0  0  0  0  0  0  0  0  0  0  0  0
  -43.2141  -30.6742    3.4304 O   0  0  0  0  0  0  0  0  0  0  0  0
  -45.3034  -34.1581    0.7440 O   0  0  0  0  0  0  0  0  0  0  0  0
  -43.6912  -35.5113   -4.4802 H   0  0  0  0  0  0  0  0  0  0  0  0
  -42.8580  -33.2094   -4.8910 H   0  0  0  0  0  0  0  0  0  0  0  0
  -45.0268  -36.0036   -2.4548 H   0  0  0  0  0  0  0  0  0  0  0  0
  -43.3468  -31.4077   -3.2700 H   0  0  0  0  0  0  0  0  0  0  0  0
  -49.1041  -28.3897    4.2635 H   0  0  0  0  0  0  0  0  0  0  0  0
  -46.4114  -28.9369    3.0723 H   0  0  0  0  0  0  0  0  0  0  0  0
  -43.4333  -29.6694    6.1108 H   0  0  0  0  0  0  0  0  0  0  0  0
  -49.8742  -28.2247    6.7924 H   0  0  0  0  0  0  0  0  0  0  0  0
  -42.9321  -30.3312   -1.5637 H   0  0  0  0  0  0  0  0  0  0  0  0
  -42.1295  -26.4378    1.7321 H   0  0  0  0  0  0  0  0  0  0  0  0
  -43.5519  -25.7588    0.8706 H   0  0  0  0  0  0  0  0  0  0  0  0
  -43.8077  -27.6862   -0.4932 H   0  0  0  0  0  0  0  0  0  0  0  0
  -42.0236  -27.6902   -0.2843 H   0  0  0  0  0  0  0  0  0  0  0  0
  -43.9030  -26.8273    3.3130 H   0  0  0  0  0  0  0  0  0  0  0  0
  -45.0888  -27.2113    2.0195 H   0  0  0  0  0  0  0  0  0  0  0  0
  -42.0837  -29.5106    1.1408 H   0  0  0  0  0  0  0  0  0  0  0  0
  -46.8247  -33.7763   -0.5894 H   0  0  0  0  0  0  0  0  0  0  0  0
  -46.1528  -35.4418   -0.6231 H   0  0  0  0  0  0  0  0  0  0  0  0
  -47.7769  -28.6848    8.2571 H   0  0  0  0  0  0  0  0  0  0  0  0
  -45.9095  -34.4165    1.4284 H   0  0  0  0  0  0  0  0  0  0  0  0
  1  2  1  0  0  0  0
  1  3  2  0  0  0  0
  2  4  2  0  0  0  0
  3 12  1  0  0  0  0
  4 13  1  0  0  0  0
  5  8  2  0  0  0  0
  5 10  1  0  0  0  0
  6 10  2  0  0  0  0
  6 11  1  0  0  0  0
  7 11  2  0  0  0  0
  7 22  1  0  0  0  0
  8 25  1  0  0  0  0
  9 14  2  0  0  0  0
  9 26  1  0  0  0  0
 10 15  1  0  0  0  0
 11 16  1  0  0  0  0
 12 13  2  0  0  0  0
 12 21  1  0  0  0  0
 13 26  1  0  0  0  0
 14 20  1  0  0  0  0
 14 23  1  0  0  0  0
 15 22  2  0  0  0  0
 15 25  1  0  0  0  0
 16 27  1  0  0  0  0
 16 28  2  0  0  0  0
 17 18  1  0  0  0  0
 17 19  1  0  0  0  0
 18 20  1  0  0  0  0
 19 27  1  0  0  0  0
 20 27  1  0  0  0  0
 21 29  1  0  0  0  0
 23 24  2  0  0  0  0
 24 26  1  0  0  0  0
  1 30  1  0  0  0  0
  2 31  1  0  0  0  0
  3 32  1  0  0  0  0
  4 33  1  0  0  0  0
  5 34  1  0  0  0  0
  6 35  1  0  0  0  0
  7 36  1  0  0  0  0
  8 37  1  0  0  0  0
  9 38  1  0  0  0  0
 17 39  1  0  0  0  0
 17 40  1  0  0  0  0
 18 41  1  0  0  0  0
 18 42  1  0  0  0  0
 19 43  1  0  0  0  0
 19 44  1  0  0  0  0
 20 45  1  0  0  0  0
 21 46  1  0  0  0  0
 21 47  1  0  0  0  0
 25 48  1  0  0  0  0
 29 49  1  0  0  0  0
M  END
> <POSIT::Probability>
0.72

> <POSIT::Method>
SHAPEFIT

> <ReceptorTitle>
UCSF-P4528-REFINED_LIGAND-BOUND-STATE_A__DU__LA1_A-201(A)

> <OMEGA_C>
6qUvwu7jCsLxrHHA2cEtwqeyBcLcNYDAPLIywo39C8KxLCjA1eMuwgKdAcKXe0XAKOlBwk0u5MHa
QqRAvno4whIj6MHAfYNA4soxwpBe68H2yrpAEX9Dwi+G48FWS85Ak94uwmDK9MFwRF+/MjM8wkaW
5sHuX6RA9ikzwpGP6sES/o5ABvQzwkvtB8LetNi/UfkxwoSZAsJ+B/W/lQQwwq1U8ME7wqs+CpQ6
wqJg58FSOM9APSsvwq697MEKZVtA9HAswt5i1cFgjaU/9vQrwm4R3sHc4HM+5SUwwnpn2sESEBVA
RVgswkyN6MFcOYU/S503wot/CcKQdge/zHY1wpe06cEYA9pAu/A0wtuO9MFlekU/PII2woXf+8GQ
lES92Q8/wkJ35cF+OuhAVKcywk2l/MGc+X+/GHouwqSo5cHGRxdAQtsswslk9cGhi1tApzY1wu2h
CMIWeT4/08MuwowLDsKuXY/Am24rwnHWBMJLg5zAexs0wrUDEMIiHB3AK2MtwvBC+8HNR1HAoWpE
whwe48GTbohARKU5wtx+58FXoERAqbstwuda7cEJjMNAOH9HwjTM4cGOW9lAfborwmOm8sEPJsi/
koQowqCA08FGtt0/LTUuwhESzsFn314/FjsvwkZ93cFngfy+LBgowp2F3cGDipG+p5wvwjye1sFL
CFRA41o0wqew2cGIPwFAtlUowqgV7MHDBpI/h0w7wvEaB8Jg4xa/bpw4wnHEDcKugh+/jBs/wnV6
5cH5HARBT6M3woKqCcI01rY/

> <OMEGA_E>
BtE0Pw==

> <OMEGA_NBR>
     86001

$$$$
CACHE3HI_1705_40
  -OEChem-03092622573D

 37 39  0     1  0  0  0  0  0999 V2000
  -48.4819  -28.6220    5.2618 C   0  0  0  0  0  0  0  0  0  0  0  0
  -46.0220  -28.8627    4.4035 C   0  0  0  0  0  0  0  0  0  0  0  0
  -44.5753  -29.3468    6.2490 C   0  0  0  0  0  0  0  0  0  0  0  0
  -48.9809  -28.7343    6.5418 C   0  0  0  0  0  0  0  0  0  0  0  0
  -47.0804  -28.8399    5.3264 C   0  0  0  0  0  0  0  0  0  0  0  0
  -44.7424  -29.1236    4.8890 C   0  0  0  0  0  0  0  0  0  0  0  0
  -46.7714  -29.0805    6.6622 C   0  0  0  0  0  0  0  0  0  0  0  0
  -42.7770  -30.2316    3.7726 C   0  0  0  0  0  0  0  0  0  0  0  0
  -43.2058  -27.4566    0.2442 C   0  0  0  0  0  0  0  0  0  0  0  0
  -44.4776  -28.1241   -0.2588 C   0  0  0  0  0  0  0  0  0  0  0  0
  -43.5072  -30.3269    1.0689 C   0  0  0  0  0  0  0  0  0  0  0  0
  -42.3338  -29.4107    1.4206 C   0  0  2  0  0  0  0  0  0  0  0  0
  -41.7228  -29.8405    2.7539 C   0  0  0  0  0  0  0  0  0  0  0  0
  -45.5561  -29.3370    7.1818 N   0  0  0  0  0  0  0  0  0  0  0  0
  -47.9348  -29.0126    7.3831 N   0  0  0  0  0  0  0  0  0  0  0  0
  -42.7583  -28.0059    1.5266 N   0  0  0  0  0  0  0  0  0  0  0  0
  -43.6349  -29.1614    4.0099 N   0  0  0  0  0  0  0  0  0  0  0  0
  -42.8180  -31.3472    4.2801 O   0  0  0  0  0  0  0  0  0  0  0  0
  -45.5572  -30.4918   -0.5545 O   0  0  0  0  0  0  0  0  0  0  0  0
  -43.2695  -30.0738   -1.5341 O   0  0  0  0  0  0  0  0  0  0  0  0
  -44.2486  -29.8726   -0.4838 S   0  0  0  0  0  0  0  0  0  0  0  0
  -49.0667  -28.4058    4.3784 H   0  0  0  0  0  0  0  0  0  0  0  0
  -46.2002  -28.6818    3.3477 H   0  0  0  0  0  0  0  0  0  0  0  0
  -43.5875  -29.5528    6.6550 H   0  0  0  0  0  0  0  0  0  0  0  0
  -49.9866  -28.6408    6.9271 H   0  0  0  0  0  0  0  0  0  0  0  0
  -42.4042  -27.5359   -0.4999 H   0  0  0  0  0  0  0  0  0  0  0  0
  -43.4060  -26.3879    0.3796 H   0  0  0  0  0  0  0  0  0  0  0  0
  -45.3008  -27.9897    0.4510 H   0  0  0  0  0  0  0  0  0  0  0  0
  -44.7813  -27.7082   -1.2243 H   0  0  0  0  0  0  0  0  0  0  0  0
  -43.1825  -31.3683    0.9737 H   0  0  0  0  0  0  0  0  0  0  0  0
  -44.2949  -30.2803    1.8294 H   0  0  0  0  0  0  0  0  0  0  0  0
  -41.5544  -29.4943    0.6519 H   0  0  0  0  0  0  0  0  0  0  0  0
  -41.0615  -30.6922    2.5822 H   0  0  0  0  0  0  0  0  0  0  0  0
  -41.1299  -29.0149    3.1548 H   0  0  0  0  0  0  0  0  0  0  0  0
  -48.0093  -29.1479    8.3817 H   0  0  0  0  0  0  0  0  0  0  0  0
  -41.9751  -27.4463    1.8645 H   0  0  0  0  0  0  0  0  0  0  0  0
  -43.4560  -28.3002    3.4979 H   0  0  0  0  0  0  0  0  0  0  0  0
  1  4  2  0  0  0  0
  1  5  1  0  0  0  0
  2  5  2  0  0  0  0
  2  6  1  0  0  0  0
  3  6  2  0  0  0  0
  3 14  1  0  0  0  0
  4 15  1  0  0  0  0
  5  7  1  0  0  0  0
  6 17  1  0  0  0  0
  7 14  2  0  0  0  0
  7 15  1  0  0  0  0
  8 13  1  0  0  0  0
  8 17  1  0  0  0  0
  8 18  2  0  0  0  0
  9 10  1  0  0  0  0
  9 16  1  0  0  0  0
 10 21  1  0  0  0  0
 11 12  1  0  0  0  0
 11 21  1  0  0  0  0
 12 13  1  0  0  0  0
 12 16  1  0  0  0  0
 19 21  2  0  0  0  0
 20 21  2  0  0  0  0
  1 22  1  0  0  0  0
  2 23  1  0  0  0  0
  3 24  1  0  0  0  0
  4 25  1  0  0  0  0
  9 26  1  0  0  0  0
  9 27  1  0  0  0  0
 10 28  1  0  0  0  0
 10 29  1  0  0  0  0
 11 30  1  0  0  0  0
 11 31  1  0  0  0  0
 12 32  1  0  0  0  0
 13 33  1  0  0  0  0
 13 34  1  0  0  0  0
 15 35  1  0  0  0  0
 16 36  1  0  0  0  0
 17 37  1  0  0  0  0
M  END
> <POSIT::Probability>
0.23

> <POSIT::Method>
HYBRID

> <ReceptorTitle>
UCSF-P4528-REFINED_LIGAND-BOUND-STATE_A__DU__LA1_A-201(A)

> <OMEGA_C>
bO1BwtH55MGcYKhAfBY4wrbm5sGZ6YxAGE0ywifG6sH/98dAbuxDwtPf5cGRVtFAYFI8whG45sEg
cqpAMvgywhX96MG+cpxA8BU7wvKk6MGOMNVAphsrwlTa8cGUcnFAvdIswjSn28GwCno+BukxwhL+
4MF4gYS+WgcuwoOd8sE+0og/2VUpwghJ68Es1rU/MOQmwmu57sFMPzBAdzk2wiiy6sF90eVAQ70/
wsMZ6ME6QuxAdggrwi8M4MEqZsM/JYouwoBK6cF3UYBAo0UrwhzH+sGY9ohAljo2wjTv88HD8w2/
9xMtwiWX8MGWXMS/hf4wwib77sGyt/e+QkREwhQ/48EWHIxA9cw4wlx05cEjQFZAjlkuwjls7MEY
9tRAQvJHwmwg5cEiq91A3J0pwoVJ3MH+9f++v58twnAa08GoYMI+ADQ1wvzq38GA5OY+AyAzwn6q
3cFptJy/37oswlHy+sFoQXk/AC4xwiA+8sFcK+o/uzcmwmH068Hg5CY/8z4kwpiJ9cGFQyVADIUk
wm4e6MGo50lAjQlAws4u6cGSGwZBe+YnwveR28EwqO4/7dItwuNm4sEf3V9A

> <OMEGA_E>
SBs8wQ==

> <OMEGA_NBR>
     87239

$$$$
CACHE3HI_1705_43
  -OEChem-03092622573D

 57 59  0     1  0  0  0  0  0999 V2000
  -47.0735  -28.3632    3.8302 C   0  0  0  0  0  0  0  0  0  0  0  0
  -45.2825  -28.5754    5.4051 C   0  0  0  0  0  0  0  0  0  0  0  0
  -49.6174  -28.8558    6.4051 C   0  0  0  0  0  0  0  0  0  0  0  0
  -47.9536  -28.5643    4.9062 C   0  0  0  0  0  0  0  0  0  0  0  0
  -45.7065  -28.3711    4.0991 C   0  0  0  0  0  0  0  0  0  0  0  0
  -49.3624  -28.6287    5.0696 C   0  0  0  0  0  0  0  0  0  0  0  0
  -47.3928  -28.7572    6.1655 C   0  0  0  0  0  0  0  0  0  0  0  0
  -44.7327  -28.1666    3.0185 C   0  0  0  0  0  0  0  0  0  0  0  0
  -45.6319  -33.8711   -0.4765 C   0  0  0  0  0  0  0  0  0  0  0  0
  -43.1942  -29.5166    0.0839 C   0  0  0  0  0  0  0  0  0  0  0  0
  -43.5902  -30.9922    0.1225 C   0  0  0  0  0  0  0  0  0  0  0  0
  -44.3048  -28.6230    0.6283 C   0  0  0  0  0  0  0  0  0  0  0  0
  -45.1662  -30.4722    2.0223 C   0  0  0  0  0  0  0  0  0  0  0  0
  -44.0585  -31.4097    1.5245 C   0  0  1  0  0  0  0  0  0  0  0  0
  -50.3787  -28.4805    4.0087 C   0  0  0  0  0  0  0  0  0  0  0  0
  -47.7900  -33.8700   -3.5255 C   0  0  0  0  0  0  0  0  0  0  0  0
  -45.6344  -32.8962   -3.1034 C   0  0  0  0  0  0  0  0  0  0  0  0
  -44.5390  -32.8595    1.5243 C   0  0  0  0  0  0  0  0  0  0  0  0
  -47.9349  -34.8491   -0.8444 C   0  0  0  0  0  0  0  0  0  0  0  0
  -46.9220  -33.7971   -1.2861 C   0  0  2  0  0  0  0  0  0  0  0  0
  -46.0833  -28.7740    6.4782 N   0  0  0  0  0  0  0  0  0  0  0  0
  -48.4157  -28.9321    7.0604 N   0  0  0  0  0  0  0  0  0  0  0  0
  -44.7275  -29.0720    1.9540 N   0  0  0  0  0  0  0  0  0  0  0  0
  -45.6589  -33.0154    0.6099 N   0  0  0  0  0  0  0  0  0  0  0  0
  -46.5879  -33.9325   -2.6810 N   0  0  0  0  0  0  0  0  0  0  0  0
  -43.9774  -27.2034    3.1437 O   0  0  0  0  0  0  0  0  0  0  0  0
  -44.6835  -34.5856   -0.7939 O   0  0  0  0  0  0  0  0  0  0  0  0
  -47.9375  -34.9661    0.5743 O   0  0  0  0  0  0  0  0  0  0  0  0
  -47.4482  -28.2068    2.8232 H   0  0  0  0  0  0  0  0  0  0  0  0
  -44.2211  -28.5863    5.6423 H   0  0  0  0  0  0  0  0  0  0  0  0
  -50.5452  -28.9701    6.9487 H   0  0  0  0  0  0  0  0  0  0  0  0
  -42.2825  -29.3671    0.6756 H   0  0  0  0  0  0  0  0  0  0  0  0
  -42.9581  -29.2261   -0.9460 H   0  0  0  0  0  0  0  0  0  0  0  0
  -44.3921  -31.1675   -0.6061 H   0  0  0  0  0  0  0  0  0  0  0  0
  -42.7374  -31.6071   -0.1886 H   0  0  0  0  0  0  0  0  0  0  0  0
  -43.9638  -27.5832    0.6608 H   0  0  0  0  0  0  0  0  0  0  0  0
  -45.1835  -28.6611   -0.0264 H   0  0  0  0  0  0  0  0  0  0  0  0
  -46.0621  -30.5592    1.3949 H   0  0  0  0  0  0  0  0  0  0  0  0
  -45.4578  -30.7491    3.0390 H   0  0  0  0  0  0  0  0  0  0  0  0
  -43.2062  -31.3366    2.2137 H   0  0  0  0  0  0  0  0  0  0  0  0
  -50.6902  -27.4301    3.8778 H   0  0  0  0  0  0  0  0  0  0  0  0
  -51.2987  -29.0458    4.2361 H   0  0  0  0  0  0  0  0  0  0  0  0
  -49.9957  -28.8395    3.0395 H   0  0  0  0  0  0  0  0  0  0  0  0
  -48.5114  -34.6353   -3.2248 H   0  0  0  0  0  0  0  0  0  0  0  0
  -48.2631  -32.8879   -3.4375 H   0  0  0  0  0  0  0  0  0  0  0  0
  -47.5238  -34.0312   -4.5738 H   0  0  0  0  0  0  0  0  0  0  0  0
  -44.7327  -32.9281   -2.4849 H   0  0  0  0  0  0  0  0  0  0  0  0
  -45.3489  -33.0485   -4.1481 H   0  0  0  0  0  0  0  0  0  0  0  0
  -46.0881  -31.9055   -3.0115 H   0  0  0  0  0  0  0  0  0  0  0  0
  -43.7189  -33.5114    1.2160 H   0  0  0  0  0  0  0  0  0  0  0  0
  -44.8395  -33.1432    2.5353 H   0  0  0  0  0  0  0  0  0  0  0  0
  -48.9442  -34.5700   -1.1644 H   0  0  0  0  0  0  0  0  0  0  0  0
  -47.6918  -35.8301   -1.2655 H   0  0  0  0  0  0  0  0  0  0  0  0
  -47.3570  -32.7978   -1.1698 H   0  0  0  0  0  0  0  0  0  0  0  0
  -48.3007  -29.0929    8.0514 H   0  0  0  0  0  0  0  0  0  0  0  0
  -46.4972  -32.4725    0.7762 H   0  0  0  0  0  0  0  0  0  0  0  0
  -48.1787  -34.0941    0.9244 H   0  0  0  0  0  0  0  0  0  0  0  0
  1  4  2  0  0  0  0
  1  5  1  0  0  0  0
  2  5  2  0  0  0  0
  2 21  1  0  0  0  0
  3  6  2  0  0  0  0
  3 22  1  0  0  0  0
  4  6  1  0  0  0  0
  4  7  1  0  0  0  0
  5  8  1  0  0  0  0
  6 15  1  0  0  0  0
  7 21  2  0  0  0  0
  7 22  1  0  0  0  0
  8 23  1  0  0  0  0
  8 26  2  0  0  0  0
  9 20  1  0  0  0  0
  9 24  1  0  0  0  0
  9 27  2  0  0  0  0
 10 11  1  0  0  0  0
 10 12  1  0  0  0  0
 11 14  1  0  0  0  0
 12 23  1  0  0  0  0
 13 14  1  0  0  0  0
 13 23  1  0  0  0  0
 14 18  1  0  0  0  0
 16 25  1  0  0  0  0
 17 25  1  0  0  0  0
 18 24  1  0  0  0  0
 19 20  1  0  0  0  0
 19 28  1  0  0  0  0
 20 25  1  0  0  0  0
  1 29  1  0  0  0  0
  2 30  1  0  0  0  0
  3 31  1  0  0  0  0
 10 32  1  0  0  0  0
 10 33  1  0  0  0  0
 11 34  1  0  0  0  0
 11 35  1  0  0  0  0
 12 36  1  0  0  0  0
 12 37  1  0  0  0  0
 13 38  1  0  0  0  0
 13 39  1  0  0  0  0
 14 40  1  0  0  0  0
 15 41  1  0  0  0  0
 15 42  1  0  0  0  0
 15 43  1  0  0  0  0
 16 44  1  0  0  0  0
 16 45  1  0  0  0  0
 16 46  1  0  0  0  0
 17 47  1  0  0  0  0
 17 48  1  0  0  0  0
 17 49  1  0  0  0  0
 18 50  1  0  0  0  0
 18 51  1  0  0  0  0
 19 52  1  0  0  0  0
 19 53  1  0  0  0  0
 20 54  1  0  0  0  0
 22 55  1  0  0  0  0
 24 56  1  0  0  0  0
 28 57  1  0  0  0  0
M  END
> <POSIT::Probability>
0.18

> <POSIT::Method>
FRED

> <ReceptorTitle>
UCSF-P4528-REFINED_LIGAND-BOUND-STATE_A__DU__LA1_A-201(A)

> <OMEGA_C>
Qks8wtPn4sE+InVARyE1wn+a5MHk9qxAQ3hGwqHY5sEz9sxAftA/wqWD5MFJ/5xAbNM2wvb34sFw
K4NAHnNFwnsH5cECOqJAPJI9wsIO5sG6S8VATO4ywhxV4cHKLkFAGIc2wgN8B8KK/fO+2sYswvQh
7MEWxqs9VVwuwh/w98FW7fo9ITgxwtL75MFP1SA/Jao0whzH88H4bAFA6TswwvxG+8EgI8M/yoNJ
wgbY48EQR4BA/Cg/wux6B8JuoWHAlYk2wqmVA8LEnUbA8ycywhVwA8JvHcM/Vr0/wndlC8LJKFi/
GbA7wjcwB8JxoKS/WFU4whUx5sF5Tc9AtalBwuR058Hi7uFA9egywmWT6METG/o/tqI2wr4PBMKf
JBw/C1o6wt66B8L6lCvAz+gvwoCg2cF4MklA9Lsywp1XCsJlPku/CsA/wk7dC8L3AxM/7so9woan
4cEXrzRAcOIwwsyw5MEIjrRAQC5KwtbC58GbW95ASCEpwubv6sEL8iw/FNUrwv3O6cEhKnK/ipEx
wgRX+cFFLBu/G/MqwlLb/MH1HEG+6Novwmqq3MFxKik/6rs0wtpJ5cGo6de8jj84wi959MFejLI/
ytQ1wjf+9cE7fkJAJdMswm6x+sEtrQ1AxsJKwuFw28FgLnhA6TFNws1d6MHajYdAmftHwly35sEg
h0JAtQtCwoeKCsIiY07AXQ1Bwj+NA8I8/1vAXhg+wuwfCMJgXJLAUO4ywl62A8JECR/ASmU1wrIx
BMLVvITAPVo4wm4+/8F8vEDAK+Auwq4LBsJNpJs/pFszwp+SBMIEQiJA1MZDwqFHCsIFCpW/c8Q+
wgFSD8Il/aG/im09wu0wA8KLupW/6zNBwkC+6MGS0gBBFf05ws/jAcJFtUY//7ZAwmJgCMLlpmw/

> <OMEGA_E>
FR0awQ==

> <OMEGA_NBR>
     88877

$$$$
CACHE3HI_1705_48
  -OEChem-03092622573D

 46 49  0     1  0  0  0  0  0999 V2000
  -45.4114  -34.1519   -0.6769 C   0  0  0  0  0  0  0  0  0  0  0  0
  -49.0396  -28.9456    4.7943 C   0  0  0  0  0  0  0  0  0  0  0  0
  -46.6408  -28.5234    3.8387 C   0  0  0  0  0  0  0  0  0  0  0  0
  -45.0173  -33.9192   -1.9851 C   0  0  0  0  0  0  0  0  0  0  0  0
  -43.7014  -32.1399   -1.3664 C   0  0  0  0  0  0  0  0  0  0  0  0
  -45.0409  -28.6364    5.6165 C   0  0  0  0  0  0  0  0  0  0  0  0
  -49.4373  -29.2012    6.0891 C   0  0  0  0  0  0  0  0  0  0  0  0
  -47.6284  -28.7903    4.8010 C   0  0  0  0  0  0  0  0  0  0  0  0
  -45.3180  -28.4470    4.2694 C   0  0  0  0  0  0  0  0  0  0  0  0
  -44.0341  -32.2894   -0.0297 C   0  0  0  0  0  0  0  0  0  0  0  0
  -44.9058  -33.3168    0.3132 C   0  0  0  0  0  0  0  0  0  0  0  0
  -47.2109  -28.9592    6.1181 C   0  0  0  0  0  0  0  0  0  0  0  0
  -44.2359  -28.1703    3.3125 C   0  0  0  0  0  0  0  0  0  0  0  0
  -43.4668  -31.3694    0.9887 C   0  0  0  0  0  0  0  0  0  0  0  0
  -41.1871  -30.1000    2.5353 C   0  0  0  0  0  0  0  0  0  0  0  0
  -42.1332  -28.9429    2.2503 C   0  0  0  0  0  0  0  0  0  0  0  0
  -43.1593  -30.4227    3.8469 C   0  0  0  0  0  0  0  0  0  0  0  0
  -42.1055  -31.2017    3.0656 C   0  0  1  0  0  0  0  0  0  0  0  0
  -46.4375  -32.8310    2.0668 C   0  0  0  0  0  0  0  0  0  0  0  0
  -44.1723  -32.9311   -2.3561 N   0  0  0  0  0  0  0  0  0  0  0  0
  -45.9498  -28.8957    6.5855 N   0  0  0  0  0  0  0  0  0  0  0  0
  -48.3201  -29.2073    6.8837 N   0  0  0  0  0  0  0  0  0  0  0  0
  -43.2371  -29.1236    3.1809 N   0  0  0  0  0  0  0  0  0  0  0  0
  -42.7034  -31.9580    1.9934 N   0  0  0  0  0  0  0  0  0  0  0  0
  -44.2931  -27.1154    2.6837 O   0  0  0  0  0  0  0  0  0  0  0  0
  -43.7067  -30.1674    0.9115 O   0  0  0  0  0  0  0  0  0  0  0  0
  -45.2749  -33.5191    1.6088 O   0  0  0  0  0  0  0  0  0  0  0  0
  -46.0933  -34.9610   -0.4388 H   0  0  0  0  0  0  0  0  0  0  0  0
  -49.6978  -28.8789    3.9389 H   0  0  0  0  0  0  0  0  0  0  0  0
  -46.9036  -28.3819    2.7948 H   0  0  0  0  0  0  0  0  0  0  0  0
  -45.3847  -34.5415   -2.7946 H   0  0  0  0  0  0  0  0  0  0  0  0
  -43.0255  -31.3565   -1.6958 H   0  0  0  0  0  0  0  0  0  0  0  0
  -44.0169  -28.5820    5.9792 H   0  0  0  0  0  0  0  0  0  0  0  0
  -50.4148  -29.3792    6.5147 H   0  0  0  0  0  0  0  0  0  0  0  0
  -40.6953  -30.4161    1.6019 H   0  0  0  0  0  0  0  0  0  0  0  0
  -40.4034  -29.8275    3.2556 H   0  0  0  0  0  0  0  0  0  0  0  0
  -41.6649  -27.9775    2.4732 H   0  0  0  0  0  0  0  0  0  0  0  0
  -42.4946  -28.9269    1.2174 H   0  0  0  0  0  0  0  0  0  0  0  0
  -44.1558  -30.8829    3.7808 H   0  0  0  0  0  0  0  0  0  0  0  0
  -42.8976  -30.3044    4.9064 H   0  0  0  0  0  0  0  0  0  0  0  0
  -41.5730  -31.8822    3.7031 H   0  0  0  0  0  0  0  0  0  0  0  0
  -46.6204  -33.0800    3.1153 H   0  0  0  0  0  0  0  0  0  0  0  0
  -46.2737  -31.7547    1.9733 H   0  0  0  0  0  0  0  0  0  0  0  0
  -47.2968  -33.1204    1.4574 H   0  0  0  0  0  0  0  0  0  0  0  0
  -48.3143  -29.3697    7.8810 H   0  0  0  0  0  0  0  0  0  0  0  0
  -42.6059  -32.9731    2.0178 H   0  0  0  0  0  0  0  0  0  0  0  0
  1  4  2  0  0  0  0
  1 11  1  0  0  0  0
  2  7  2  0  0  0  0
  2  8  1  0  0  0  0
  3  8  2  0  0  0  0
  3  9  1  0  0  0  0
  4 20  1  0  0  0  0
  5 10  1  0  0  0  0
  5 20  2  0  0  0  0
  6  9  2  0  0  0  0
  6 21  1  0  0  0  0
  7 22  1  0  0  0  0
  8 12  1  0  0  0  0
  9 13  1  0  0  0  0
 10 11  2  0  0  0  0
 10 14  1  0  0  0  0
 11 27  1  0  0  0  0
 12 21  2  0  0  0  0
 12 22  1  0  0  0  0
 13 23  1  0  0  0  0
 13 25  2  0  0  0  0
 14 24  1  0  0  0  0
 14 26  2  0  0  0  0
 15 16  1  0  0  0  0
 15 18  1  0  0  0  0
 16 23  1  0  0  0  0
 17 18  1  0  0  0  0
 17 23  1  0  0  0  0
 18 24  1  0  0  0  0
 19 27  1  0  0  0  0
  1 28  1  0  0  0  0
  2 29  1  0  0  0  0
  3 30  1  0  0  0  0
  4 31  1  0  0  0  0
  5 32  1  0  0  0  0
  6 33  1  0  0  0  0
  7 34  1  0  0  0  0
 15 35  1  0  0  0  0
 15 36  1  0  0  0  0
 16 37  1  0  0  0  0
 16 38  1  0  0  0  0
 17 39  1  0  0  0  0
 17 40  1  0  0  0  0
 18 41  1  0  0  0  0
 19 42  1  0  0  0  0
 19 43  1  0  0  0  0
 19 44  1  0  0  0  0
 22 45  1  0  0  0  0
 24 46  1  0  0  0  0
M  END
> <POSIT::Probability>
0.23

> <POSIT::Method>
HYBRID

> <ReceptorTitle>
UCSF-P4528-REFINED_LIGAND-BOUND-STATE_A__DU__LA1_A-201(A)

> <OMEGA_C>
UaU1woqbCMJERi2/jShEwqiQ58HXaplALZA6wvwv5MFLrXVArRE0wkCtB8KCF/6/M84uwjePAMLS
5K6/5Sk0wmgX5cGxurNAv79FwiGc6cFL2sJAgIM+wodS5sEJoplAqEU1wmiT48E3n4hA4CIwwlEo
AcKIHPO8h58zwmxEBcJYW6A+9Nc8wm+s58HLx8NAjfEwwuBc4cGH/1NAAt4twoT0+sEqHX0/lr8k
wszM8MH8QiJAXogowvyK58E9BRBAHaMswqFh88H7M3ZABmwowgSd+cGGM0RA/r85wvZSA8K3RQRA
bLAwwnu5A8LbyRbAn8w3wloq58GLvNJAvUdBwnOo6cEIR9xAwfIswjT96MHZk0tAS9Aqwvep/8G0
Jv8/HCwxwk7s2MEHwStAn9MuwslW8cHSWGk/ehk1wpsTBsIL7c0/h184whzYC8JYpuC+gcpGwhMI
58H6FnxAQZ07wh4O48E43TJA7Yk1woYqCsI92zLAIBoswiva+sHCD9m/ThEwwvmn5MGhVb9AuahJ
wrQI68FeeNBAAMgiwiZU88EeC80/FJ0hwqSe7sEjXFBA6KgmwvjR38EWSR5Acfopwj9q58F31Js/
k58wwiMQ98Gd+HFAL5crwm5v8sFgAZ1Ax0omwsMO/8FU/2xAR3s6wulRBMLGYEdARRg5wrkJ/sGt
lfw/6i89wkp7BMJYjbo/0EFBwj/16sGHMfxAaGwqwn3kA8I2IwFA

> <OMEGA_E>
Tk8PwQ==

> <OMEGA_NBR>
     90299

$$$$
CACHE3HI_1705_50
  -OEChem-03092622573D

 40 42  0     1  0  0  0  0  0999 V2000
  -47.8925  -29.0467    4.1872 C   0  0  0  0  0  0  0  0  0  0  0  0
  -46.0212  -29.0727    5.6808 C   0  0  0  0  0  0  0  0  0  0  0  0
  -50.2967  -29.2379    6.9308 C   0  0  0  0  0  0  0  0  0  0  0  0
  -48.7145  -29.1217    5.3236 C   0  0  0  0  0  0  0  0  0  0  0  0
  -46.5134  -29.0222    4.3836 C   0  0  0  0  0  0  0  0  0  0  0  0
  -50.1125  -29.1677    5.5665 C   0  0  0  0  0  0  0  0  0  0  0  0
  -48.0881  -29.1662    6.5659 C   0  0  0  0  0  0  0  0  0  0  0  0
  -45.5880  -28.9433    3.2248 C   0  0  0  0  0  0  0  0  0  0  0  0
  -43.8422  -27.3283    1.2761 C   0  0  0  0  0  0  0  0  0  0  0  0
  -42.4294  -29.0250    0.4414 C   0  0  0  0  0  0  0  0  0  0  0  0
  -43.3574  -28.1874    2.4434 C   0  0  2  0  0  0  0  0  0  0  0  0
  -42.9409  -29.4949    1.7893 C   0  0  2  0  0  0  0  0  0  0  0  0
  -51.1832  -29.1448    4.5499 C   0  0  0  0  0  0  0  0  0  0  0  0
  -41.3239  -31.7517    1.6502 C   0  0  0  0  0  0  0  0  0  0  0  0
  -46.7642  -29.1455    6.8099 N   0  0  0  0  0  0  0  0  0  0  0  0
  -49.0623  -29.2364    7.5271 N   0  0  0  0  0  0  0  0  0  0  0  0
  -43.4098  -28.0140    0.0534 N   0  0  0  0  0  0  0  0  0  0  0  0
  -44.3505  -28.3569    3.4672 N   0  0  0  0  0  0  0  0  0  0  0  0
  -45.9557  -29.3695    2.1332 O   0  0  0  0  0  0  0  0  0  0  0  0
  -42.3380  -30.9060    3.9058 O   0  0  0  0  0  0  0  0  0  0  0  0
  -40.5284  -29.5404    2.7948 O   0  0  0  0  0  0  0  0  0  0  0  0
  -41.7196  -30.3716    2.7014 S   0  0  0  0  0  0  0  0  0  0  0  0
  -48.3197  -29.0089    3.1897 H   0  0  0  0  0  0  0  0  0  0  0  0
  -44.9489  -29.0551    5.8620 H   0  0  0  0  0  0  0  0  0  0  0  0
  -51.1943  -29.2888    7.5316 H   0  0  0  0  0  0  0  0  0  0  0  0
  -44.9321  -27.2126    1.2664 H   0  0  0  0  0  0  0  0  0  0  0  0
  -43.4037  -26.3259    1.3257 H   0  0  0  0  0  0  0  0  0  0  0  0
  -41.4333  -28.5723    0.5138 H   0  0  0  0  0  0  0  0  0  0  0  0
  -42.3752  -29.8383   -0.2891 H   0  0  0  0  0  0  0  0  0  0  0  0
  -42.4954  -27.7030    2.9194 H   0  0  0  0  0  0  0  0  0  0  0  0
  -43.7947  -30.1717    1.6590 H   0  0  0  0  0  0  0  0  0  0  0  0
  -51.5082  -28.1171    4.3142 H   0  0  0  0  0  0  0  0  0  0  0  0
  -52.0864  -29.6805    4.8891 H   0  0  0  0  0  0  0  0  0  0  0  0
  -50.8483  -29.6140    3.6104 H   0  0  0  0  0  0  0  0  0  0  0  0
  -40.5632  -32.3560    2.1467 H   0  0  0  0  0  0  0  0  0  0  0  0
  -40.9468  -31.3654    0.7025 H   0  0  0  0  0  0  0  0  0  0  0  0
  -42.2320  -32.3350    1.4910 H   0  0  0  0  0  0  0  0  0  0  0  0
  -48.8952  -29.2806    8.5227 H   0  0  0  0  0  0  0  0  0  0  0  0
  -44.2189  -28.4874   -0.3507 H   0  0  0  0  0  0  0  0  0  0  0  0
  -44.1478  -27.9716    4.3883 H   0  0  0  0  0  0  0  0  0  0  0  0
  1  4  2  0  0  0  0
  1  5  1  0  0  0  0
  2  5  2  0  0  0  0
  2 15  1  0  0  0  0
  3  6  2  0  0  0  0
  3 16  1  0  0  0  0
  4  6  1  0  0  0  0
  4  7  1  0  0  0  0
  5  8  1  0  0  0  0
  6 13  1  0  0  0  0
  7 15  2  0  0  0  0
  7 16  1  0  0  0  0
  8 18  1  0  0  0  0
  8 19  2  0  0  0  0
  9 11  1  0  0  0  0
  9 17  1  0  0  0  0
 10 12  1  0  0  0  0
 10 17  1  0  0  0  0
 11 12  1  0  0  0  0
 11 18  1  0  0  0  0
 12 22  1  0  0  0  0
 14 22  1  0  0  0  0
 20 22  2  0  0  0  0
 21 22  2  0  0  0  0
  1 23  1  0  0  0  0
  2 24  1  0  0  0  0
  3 25  1  0  0  0  0
  9 26  1  0  0  0  0
  9 27  1  0  0  0  0
 10 28  1  0  0  0  0
 10 29  1  0  0  0  0
 11 30  1  0  0  0  0
 12 31  1  0  0  0  0
 13 32  1  0  0  0  0
 13 33  1  0  0  0  0
 13 34  1  0  0  0  0
 14 35  1  0  0  0  0
 14 36  1  0  0  0  0
 14 37  1  0  0  0  0
 16 38  1  0  0  0  0
 17 39  1  0  0  0  0
 18 40  1  0  0  0  0
M  END
> <POSIT::Probability>
0.14

> <POSIT::Method>
HYBRID

> <ReceptorTitle>
UCSF-P4528-REFINED_LIGAND-BOUND-STATE_A__DU__LA1_A-201(A)

> <OMEGA_C>
4ZE/wpJf6MGq/YVAqhU4wtWU6MG/yLVA1S9Jwibn6cHmyN1An9tCwkP56MHcWqpArQ06wl8t6MGa
RoxANnNIwl5X6cHCILJAPlpAwmdU6cHiG9JAKFo2wuqL58EmY05Aa14vwlGg2sEoV6M/qbcpwj0z
6MGA/OE+/G0twsR/4cFIYBxAh8MrwoL168HsCOU/krtMwp8o6cHamJFAr0slwpAD/sHQONM/hw47
wuMp6cFS6tlAyD9Ewizk6cEP3vBAnKMtwpoc4MEAyFo95mYxwu/a4sEI511Ap9I3wqb06sGghghA
KFopwoA/98G0+HlAIB0iwrpS7MEW3jJA5eAmwgb58sGC4yxAV0dBwkIS6ME4JExAscszwsZw6MHU
lbtAAsdMwoBP6sGOAvFAb7ozwnGz2cEkGqI/XJ0twlub0sFUr6k/rLslwgGU5MEYhgM/M4Apwte0
7sEQC5S+VfspwtSf3cHm1zpAui0vwp5f8cFMWtQ/XAhOws7v4MH2DYpAdVhQwq1x7cFUc5xAomRL
wpDp7MGMEWdAxEAiwoBsAcIIZAlAeckjwm/s+sF41TM/j+0owgFXAcKw2b4/p5RDwrQ+6sEoXQhB
MOAwwjbm48FwjrO+YZcwwurF38EjbYxA

> <OMEGA_E>
0AwkwQ==

> <OMEGA_NBR>
     91600

$$$$
CACHE3HI_1705_57
  -OEChem-03092622573D

 41 44  0     1  0  0  0  0  0999 V2000
  -44.5856  -33.3604   -1.1234 C   0  0  0  0  0  0  0  0  0  0  0  0
  -49.3588  -28.7555    5.2906 C   0  0  0  0  0  0  0  0  0  0  0  0
  -47.0558  -28.6025    4.0583 C   0  0  0  0  0  0  0  0  0  0  0  0
  -45.2822  -28.9041    5.6384 C   0  0  0  0  0  0  0  0  0  0  0  0
  -49.6288  -28.9707    6.6251 C   0  0  0  0  0  0  0  0  0  0  0  0
  -47.9480  -28.7606    5.1314 C   0  0  0  0  0  0  0  0  0  0  0  0
  -45.6916  -28.6781    4.3312 C   0  0  0  0  0  0  0  0  0  0  0  0
  -47.4013  -28.9820    6.3923 C   0  0  0  0  0  0  0  0  0  0  0  0
  -44.7058  -28.5211    3.2539 C   0  0  0  0  0  0  0  0  0  0  0  0
  -44.7547  -31.8566    1.4601 C   0  0  0  0  0  0  0  0  0  0  0  0
  -42.9884  -30.2620    0.5563 C   0  0  0  0  0  0  0  0  0  0  0  0
  -45.0448  -30.8887   -0.9148 C   0  0  0  0  0  0  0  0  0  0  0  0
  -45.2350  -30.7681    2.4204 C   0  0  0  0  0  0  0  0  0  0  0  0
  -42.9398  -29.8969    2.0400 C   0  0  0  0  0  0  0  0  0  0  0  0
  -44.0599  -32.0169   -1.0987 C   0  0  1  0  0  0  0  0  0  0  0  0
  -44.1147  -31.2371    0.2291 C   0  0  0  0  0  0  0  0  0  0  0  0
  -42.9295  -31.7908   -2.0707 C   0  0  0  0  0  0  0  0  0  0  0  0
  -45.0090  -34.4409   -1.1439 N   0  0  0  0  0  0  0  0  0  0  0  0
  -46.0952  -29.0636    6.7089 N   0  0  0  0  0  0  0  0  0  0  0  0
  -48.4343  -29.1068    7.2840 N   0  0  0  0  0  0  0  0  0  0  0  0
  -44.2875  -29.6635    2.5659 N   0  0  0  0  0  0  0  0  0  0  0  0
  -44.3030  -27.3784    3.0393 O   0  0  0  0  0  0  0  0  0  0  0  0
  -43.3866  -32.0545   -3.3913 O   0  0  0  0  0  0  0  0  0  0  0  0
  -50.1006  -28.6107    4.5172 H   0  0  0  0  0  0  0  0  0  0  0  0
  -47.4210  -28.4271    3.0510 H   0  0  0  0  0  0  0  0  0  0  0  0
  -44.2233  -28.9675    5.8788 H   0  0  0  0  0  0  0  0  0  0  0  0
  -50.5637  -29.0392    7.1632 H   0  0  0  0  0  0  0  0  0  0  0  0
  -44.0199  -32.4923    1.9634 H   0  0  0  0  0  0  0  0  0  0  0  0
  -45.6095  -32.4868    1.1999 H   0  0  0  0  0  0  0  0  0  0  0  0
  -43.0828  -29.3281   -0.0189 H   0  0  0  0  0  0  0  0  0  0  0  0
  -42.0296  -30.7149    0.2535 H   0  0  0  0  0  0  0  0  0  0  0  0
  -44.8769  -29.9575   -1.4463 H   0  0  0  0  0  0  0  0  0  0  0  0
  -46.0993  -31.1240   -0.8093 H   0  0  0  0  0  0  0  0  0  0  0  0
  -46.1862  -30.3307    2.0591 H   0  0  0  0  0  0  0  0  0  0  0  0
  -45.4597  -31.2161    3.4070 H   0  0  0  0  0  0  0  0  0  0  0  0
  -42.4182  -30.6837    2.5932 H   0  0  0  0  0  0  0  0  0  0  0  0
  -42.3732  -28.9677    2.1854 H   0  0  0  0  0  0  0  0  0  0  0  0
  -42.0883  -32.4593   -1.8536 H   0  0  0  0  0  0  0  0  0  0  0  0
  -42.5768  -30.7533   -2.0256 H   0  0  0  0  0  0  0  0  0  0  0  0
  -48.3304  -29.2737    8.2752 H   0  0  0  0  0  0  0  0  0  0  0  0
  -42.6338  -31.8984   -3.9836 H   0  0  0  0  0  0  0  0  0  0  0  0
  1 15  1  0  0  0  0
  1 18  3  0  0  0  0
  2  5  2  0  0  0  0
  2  6  1  0  0  0  0
  3  6  2  0  0  0  0
  3  7  1  0  0  0  0
  4  7  2  0  0  0  0
  4 19  1  0  0  0  0
  5 20  1  0  0  0  0
  6  8  1  0  0  0  0
  7  9  1  0  0  0  0
  8 19  2  0  0  0  0
  8 20  1  0  0  0  0
  9 21  1  0  0  0  0
  9 22  2  0  0  0  0
 10 13  1  0  0  0  0
 10 16  1  0  0  0  0
 11 14  1  0  0  0  0
 11 16  1  0  0  0  0
 12 15  1  0  0  0  0
 12 16  1  0  0  0  0
 13 21  1  0  0  0  0
 14 21  1  0  0  0  0
 15 16  1  0  0  0  0
 15 17  1  0  0  0  0
 17 23  1  0  0  0  0
  2 24  1  0  0  0  0
  3 25  1  0  0  0  0
  4 26  1  0  0  0  0
  5 27  1  0  0  0  0
 10 28  1  0  0  0  0
 10 29  1  0  0  0  0
 11 30  1  0  0  0  0
 11 31  1  0  0  0  0
 12 32  1  0  0  0  0
 12 33  1  0  0  0  0
 13 34  1  0  0  0  0
 13 35  1  0  0  0  0
 14 36  1  0  0  0  0
 14 37  1  0  0  0  0
 17 38  1  0  0  0  0
 17 39  1  0  0  0  0
 20 40  1  0  0  0  0
 23 41  1  0  0  0  0
M  END
> <POSIT::Probability>
0.18

> <POSIT::Method>
HYBRID

> <ReceptorTitle>
UCSF-P4528-REFINED_LIGAND-BOUND-STATE_A__DU__LA1_A-201(A)

> <OMEGA_C>
plcywgxxBcLozI+/YW9FwjUL5sFoTKlAHTk8wt/R5MHE3YFAAyE1wpk758HkbbRA2oNGwgjE58Gg
ANRAw8o/wswV5sHENKRAOcQ2wrFs5cGUmYpA4po9whXb58GIjcxAwdIywkor5MG8P1BAywQzwlva
/sEY5ro/F/QrwnoY8sEwaQ4/4S00whcc98HwLmq/p/A0wiIl9sFA5xpAWMIrwuQs78FcjwJAUT0w
wlARAMJAooy/b3Uwwqbl+cFAoGo+0bcrwplT/sF0hgTAQwk0woLDCcKQapK/dWE4wlCC6MFQr9ZA
s7xBwqva6ME8FulAayYxwspO7cE4OCRAQjYxwvsG28GEhEJA54stwtc3AMKwClnA/WZIwr/i5MEE
jZBAHq89wsNq48H4QkNAruQwwnS958HEHrxANkFKwjZQ6MGqOOVAYBQwwiP4AcIoUPs/HHA2wnHy
AcJwl5k/01Qswvef6sEAtpq8SB4owi249cFAx4E++oEzwgep78EgIbm/vGU4wuv9+MGALk+/pr44
wlWl8sGcyANAsNY1woO6+cHgC1pAMqwpwjZ49cFo9yVAIX4pwtW958FI3gtAaVoowkzWAcIwQu2/
sE4qwr4G9sFgowHAWlJBwnww6sE6ZwRBBokqwvwv/8G88n7A

> <OMEGA_E>
8IsawQ==

> <OMEGA_NBR>
     92922

$$$$
CACHE3HI_1705_63
  -OEChem-03092622573D

 51 53  0     1  0  0  0  0  0999 V2000
  -46.3399  -29.1977    4.0410 C   0  0  0  0  0  0  0  0  0  0  0  0
  -48.5921  -28.5748    5.2485 C   0  0  0  0  0  0  0  0  0  0  0  0
  -44.5500  -29.5594    5.6609 C   0  0  0  0  0  0  0  0  0  0  0  0
  -47.1793  -28.9258    5.1313 C   0  0  0  0  0  0  0  0  0  0  0  0
  -44.9924  -29.5259    4.3125 C   0  0  0  0  0  0  0  0  0  0  0  0
  -46.6732  -28.9683    6.4319 C   0  0  0  0  0  0  0  0  0  0  0  0
  -44.0537  -29.8206    3.2147 C   0  0  0  0  0  0  0  0  0  0  0  0
  -45.3829  -32.2062   -0.8729 C   0  0  0  0  0  0  0  0  0  0  0  0
  -44.0897  -28.7219   -0.4211 C   0  0  0  0  0  0  0  0  0  0  0  0
  -45.2047  -29.6630   -0.8924 C   0  0  0  0  0  0  0  0  0  0  0  0
  -43.5228  -30.9270    0.2883 C   0  0  0  0  0  0  0  0  0  0  0  0
  -43.4464  -29.4690    0.7567 C   0  0  1  0  0  0  0  0  0  0  0  0
  -41.9896  -28.9883    0.9826 C   0  0  0  0  0  0  0  0  0  0  0  0
  -44.5711  -35.5951   -3.7286 C   0  0  0  0  0  0  0  0  0  0  0  0
  -42.8654  -34.0647   -2.6785 C   0  0  0  0  0  0  0  0  0  0  0  0
  -44.8203  -33.5614   -0.3634 C   0  0  0  0  0  0  0  0  0  0  0  0
  -44.3778  -34.3932   -2.7778 C   0  0  0  0  0  0  0  0  0  0  0  0
  -44.9960  -34.7174   -1.3750 C   0  0  2  0  0  0  0  0  0  0  0  0
  -45.3831  -29.2770    6.6908 N   0  0  0  0  0  0  0  0  0  0  0  0
  -48.8667  -28.4235    6.5266 N   0  0  0  0  0  0  0  0  0  0  0  0
  -47.7307  -28.6516    7.2656 N   0  0  0  0  0  0  0  0  0  0  0  0
  -44.7581  -31.0186   -0.5110 N   0  0  0  0  0  0  0  0  0  0  0  0
  -44.2881  -29.2624    1.9564 N   0  0  0  0  0  0  0  0  0  0  0  0
  -43.0733  -30.5264    3.4318 O   0  0  0  0  0  0  0  0  0  0  0  0
  -46.4069  -32.1708   -1.5486 O   0  0  0  0  0  0  0  0  0  0  0  0
  -46.3894  -35.0191   -1.4957 O   0  0  0  0  0  0  0  0  0  0  0  0
  -46.7111  -29.1575    3.0275 H   0  0  0  0  0  0  0  0  0  0  0  0
  -49.2884  -28.4598    4.4310 H   0  0  0  0  0  0  0  0  0  0  0  0
  -43.5224  -29.8167    5.8710 H   0  0  0  0  0  0  0  0  0  0  0  0
  -43.3567  -28.5514   -1.2234 H   0  0  0  0  0  0  0  0  0  0  0  0
  -44.5048  -27.7576   -0.0926 H   0  0  0  0  0  0  0  0  0  0  0  0
  -46.1538  -29.4157   -0.3944 H   0  0  0  0  0  0  0  0  0  0  0  0
  -45.3334  -29.5923   -1.9826 H   0  0  0  0  0  0  0  0  0  0  0  0
  -42.6468  -31.1796   -0.3272 H   0  0  0  0  0  0  0  0  0  0  0  0
  -43.5723  -31.6063    1.1520 H   0  0  0  0  0  0  0  0  0  0  0  0
  -41.5494  -29.5356    1.8291 H   0  0  0  0  0  0  0  0  0  0  0  0
  -41.3965  -29.1772    0.0757 H   0  0  0  0  0  0  0  0  0  0  0  0
  -41.9893  -27.9106    1.2030 H   0  0  0  0  0  0  0  0  0  0  0  0
  -45.6420  -35.8347   -3.8046 H   0  0  0  0  0  0  0  0  0  0  0  0
  -44.1808  -35.3407   -4.7251 H   0  0  0  0  0  0  0  0  0  0  0  0
  -44.0278  -36.4661   -3.3334 H   0  0  0  0  0  0  0  0  0  0  0  0
  -42.7190  -33.2092   -2.0027 H   0  0  0  0  0  0  0  0  0  0  0  0
  -42.3255  -34.9388   -2.2855 H   0  0  0  0  0  0  0  0  0  0  0  0
  -42.4785  -33.8133   -3.6771 H   0  0  0  0  0  0  0  0  0  0  0  0
  -43.7467  -33.4382   -0.1576 H   0  0  0  0  0  0  0  0  0  0  0  0
  -45.3435  -33.8290    0.5664 H   0  0  0  0  0  0  0  0  0  0  0  0
  -44.9015  -33.5215   -3.1974 H   0  0  0  0  0  0  0  0  0  0  0  0
  -44.4681  -35.5960   -0.9756 H   0  0  0  0  0  0  0  0  0  0  0  0
  -47.6764  -28.5966    8.2626 H   0  0  0  0  0  0  0  0  0  0  0  0
  -45.0910  -28.6745    1.8578 H   0  0  0  0  0  0  0  0  0  0  0  0
  -46.8848  -34.2107   -1.5551 H   0  0  0  0  0  0  0  0  0  0  0  0
  1  4  2  0  0  0  0
  1  5  1  0  0  0  0
  2  4  1  0  0  0  0
  2 20  2  0  0  0  0
  3  5  2  0  0  0  0
  3 19  1  0  0  0  0
  4  6  1  0  0  0  0
  5  7  1  0  0  0  0
  6 19  2  0  0  0  0
  6 21  1  0  0  0  0
  7 23  1  0  0  0  0
  7 24  2  0  0  0  0
  8 16  1  0  0  0  0
  8 22  1  0  0  0  0
  8 25  2  0  0  0  0
  9 10  1  0  0  0  0
  9 12  1  0  0  0  0
 10 22  1  0  0  0  0
 11 12  1  0  0  0  0
 11 22  1  0  0  0  0
 12 13  1  0  0  0  0
 12 23  1  0  0  0  0
 14 17  1  0  0  0  0
 15 17  1  0  0  0  0
 16 18  1  0  0  0  0
 17 18  1  0  0  0  0
 18 26  1  0  0  0  0
 20 21  1  0  0  0  0
  1 27  1  0  0  0  0
  2 28  1  0  0  0  0
  3 29  1  0  0  0  0
  9 30  1  0  0  0  0
  9 31  1  0  0  0  0
 10 32  1  0  0  0  0
 10 33  1  0  0  0  0
 11 34  1  0  0  0  0
 11 35  1  0  0  0  0
 13 36  1  0  0  0  0
 13 37  1  0  0  0  0
 13 38  1  0  0  0  0
 14 39  1  0  0  0  0
 14 40  1  0  0  0  0
 14 41  1  0  0  0  0
 15 42  1  0  0  0  0
 15 43  1  0  0  0  0
 15 44  1  0  0  0  0
 16 45  1  0  0  0  0
 16 46  1  0  0  0  0
 17 47  1  0  0  0  0
 18 48  1  0  0  0  0
 21 49  1  0  0  0  0
 23 50  1  0  0  0  0
 26 51  1  0  0  0  0
M  END
> <POSIT::Probability>
0.51

> <POSIT::Method>
SHAPEFIT

> <ReceptorTitle>
UCSF-P4528-REFINED_LIGAND-BOUND-STATE_A__DU__LA1_A-201(A)

> <OMEGA_C>
Glw5wtWU6cGQT4FAVV5CwjyZ5MEN9KdAPDMywpV57MG5JbVAmrc8wh1o58GTM6RAMvgzwvw07MHD
/4lAVLE6wi6/58Fz0s1A8TYwwpuQ7sFRvk1AG4g1wizTAML2c1+/5VswwmvG5cFsmNe+mdE0wstN
7cE0dGS/Wxcuwmlq98FynJM+EcktwnPA68GNtEE/XvUnwvHn58Ehins/z0gywmFhDsJ1oW7AH3Yr
wjtCCMKgbCvA8kczwus+BsKGEbq+3oIxwpaSCcL7xzHA7vszwqneCsKw/6+/UYg1wls36sG9GtZA
endDwlNj48Go2dBAN+w+wpA25cFuf+hATwgzwv4l+MFmzwK//yYxwmYZ6sG2bPo/F0sswiY29MET
oltAsqA5wuWuAMKIN8a/to45wosTDMIWcr+/K9g6wphC6cEsw0FASSdFwqqt48GOyo1A8RYuwpSI
7sE937tATG0twkxp5MH5lpy/4gQywocP3sGivL29eZ04wkVT68FA6cm+WlU1wvG87MFfxP2/XpYq
wupv+cGdhae+DUouwrPZ/MEfdpM/nTImwgBJ7MHQH+o//pUlwupq6cEn+Jo9CfUnwtVI38Ga+5k/
apE2wrFWD8JAfnPAKrkwwtpcDcLSM5fAdxwwwkzdEcIYV1XAReAqwi7WBMK0LADASk0pwk/BC8L1
RBLA/ekpwt1AB8KBVWvAqfwuwrjABcI7YCG+xl81wuFQB8J9ARE/JpszwhEWBsIwokzAVd8xwkNi
DsL8wXm/lrQ+wt3F5MFzMwRBLV00wmtl5cEpzO0/Foo7wsXXCMLODMe/

> <OMEGA_E>
gLSCPw==

> <OMEGA_NBR>
     94467

$$$$
CACHE3HI_1705_70
  -OEChem-03092622573D

 45 48  0     1  0  0  0  0  0999 V2000
  -46.0498  -29.0861    3.9862 C   0  0  0  0  0  0  0  0  0  0  0  0
  -47.0709  -28.9289    4.9383 C   0  0  0  0  0  0  0  0  0  0  0  0
  -44.4684  -29.2373    5.8253 C   0  0  0  0  0  0  0  0  0  0  0  0
  -45.1792  -34.5113   -1.0134 C   0  0  0  0  0  0  0  0  0  0  0  0
  -44.7204  -29.2278    4.4351 C   0  0  0  0  0  0  0  0  0  0  0  0
  -45.4145  -33.4718   -0.1563 C   0  0  0  0  0  0  0  0  0  0  0  0
  -44.8285  -32.2518   -0.7786 C   0  0  0  0  0  0  0  0  0  0  0  0
  -46.7414  -28.9286    6.3111 C   0  0  0  0  0  0  0  0  0  0  0  0
  -43.6188  -29.5363    3.5018 C   0  0  0  0  0  0  0  0  0  0  0  0
  -44.7821  -30.8992   -0.1927 C   0  0  0  0  0  0  0  0  0  0  0  0
  -43.0024  -27.4500   -0.4150 C   0  0  0  0  0  0  0  0  0  0  0  0
  -43.9273  -27.4680    2.0192 C   0  0  0  0  0  0  0  0  0  0  0  0
  -42.5092  -29.3015    1.2758 C   0  0  0  0  0  0  0  0  0  0  0  0
  -44.2141  -27.6778    0.5209 C   0  0  2  0  0  0  0  0  0  0  0  0
  -43.3519  -28.8610    0.0727 C   0  0  1  0  0  0  0  0  0  0  0  0
  -43.8965  -33.9303   -4.5061 C   0  0  0  0  0  0  0  0  0  0  0  0
  -44.0088  -34.7437   -3.2051 C   0  0  0  0  0  0  0  0  0  0  0  0
  -45.4623  -29.0815    6.7296 N   0  0  0  0  0  0  0  0  0  0  0  0
  -44.2859  -32.5976   -1.9283 N   0  0  0  0  0  0  0  0  0  0  0  0
  -44.5225  -33.9300   -2.0698 N   0  0  0  0  0  0  0  0  0  0  0  0
  -43.2962  -28.7501    2.3806 N   0  0  0  0  0  0  0  0  0  0  0  0
  -47.7466  -28.7778    7.2550 N   0  0  0  0  0  0  0  0  0  0  0  0
  -43.9125  -29.9513   -0.7387 N   0  0  0  0  0  0  0  0  0  0  0  0
  -42.9985  -30.5749    3.7032 O   0  0  0  0  0  0  0  0  0  0  0  0
  -45.3775  -30.6744    0.8559 O   0  0  0  0  0  0  0  0  0  0  0  0
  -46.2219  -33.6102    1.3873 Cl  0  0  0  0  0  0  0  0  0  0  0  0
  -46.2785  -29.0983    2.9307 H   0  0  0  0  0  0  0  0  0  0  0  0
  -48.0970  -28.8094    4.6233 H   0  0  0  0  0  0  0  0  0  0  0  0
  -43.4556  -29.3724    6.1751 H   0  0  0  0  0  0  0  0  0  0  0  0
  -45.4480  -35.5498   -0.8882 H   0  0  0  0  0  0  0  0  0  0  0  0
  -43.1633  -27.1752   -1.4679 H   0  0  0  0  0  0  0  0  0  0  0  0
  -42.1019  -26.9437   -0.0373 H   0  0  0  0  0  0  0  0  0  0  0  0
  -43.2423  -26.6229    2.1826 H   0  0  0  0  0  0  0  0  0  0  0  0
  -44.8551  -27.3029    2.5866 H   0  0  0  0  0  0  0  0  0  0  0  0
  -42.4357  -30.3972    1.3388 H   0  0  0  0  0  0  0  0  0  0  0  0
  -41.4989  -28.8675    1.2428 H   0  0  0  0  0  0  0  0  0  0  0  0
  -45.2366  -27.5585    0.1333 H   0  0  0  0  0  0  0  0  0  0  0  0
  -43.5139  -34.5754   -5.3106 H   0  0  0  0  0  0  0  0  0  0  0  0
  -44.8888  -33.5461   -4.7849 H   0  0  0  0  0  0  0  0  0  0  0  0
  -43.2068  -33.0872   -4.3528 H   0  0  0  0  0  0  0  0  0  0  0  0
  -44.6945  -35.5871   -3.3739 H   0  0  0  0  0  0  0  0  0  0  0  0
  -43.0124  -35.1283   -2.9418 H   0  0  0  0  0  0  0  0  0  0  0  0
  -47.3499  -28.8062    8.1725 H   0  0  0  0  0  0  0  0  0  0  0  0
  -48.2043  -27.8995    7.1169 H   0  0  0  0  0  0  0  0  0  0  0  0
  -43.6653  -30.0163   -1.7055 H   0  0  0  0  0  0  0  0  0  0  0  0
  1  2  2  0  0  0  0
  1  5  1  0  0  0  0
  2  8  1  0  0  0  0
  3  5  2  0  0  0  0
  3 18  1  0  0  0  0
  4  6  2  0  0  0  0
  4 20  1  0  0  0  0
  5  9  1  0  0  0  0
  6  7  1  0  0  0  0
  6 26  1  0  0  0  0
  7 10  1  0  0  0  0
  7 19  2  0  0  0  0
  8 18  2  0  0  0  0
  8 22  1  0  0  0  0
  9 21  1  0  0  0  0
  9 24  2  0  0  0  0
 10 23  1  0  0  0  0
 10 25  2  0  0  0  0
 11 14  1  0  0  0  0
 11 15  1  0  0  0  0
 12 14  1  0  0  0  0
 12 21  1  0  0  0  0
 13 15  1  0  0  0  0
 13 21  1  0  0  0  0
 14 15  1  0  0  0  0
 15 23  1  0  0  0  0
 16 17  1  0  0  0  0
 17 20  1  0  0  0  0
 19 20  1  0  0  0  0
  1 27  1  0  0  0  0
  2 28  1  0  0  0  0
  3 29  1  0  0  0  0
  4 30  1  0  0  0  0
 11 31  1  0  0  0  0
 11 32  1  0  0  0  0
 12 33  1  0  0  0  0
 12 34  1  0  0  0  0
 13 35  1  0  0  0  0
 13 36  1  0  0  0  0
 14 37  1  0  0  0  0
 16 38  1  0  0  0  0
 16 39  1  0  0  0  0
 16 40  1  0  0  0  0
 17 41  1  0  0  0  0
 17 42  1  0  0  0  0
 22 43  1  0  0  0  0
 22 44  1  0  0  0  0
 23 45  1  0  0  0  0
M  END
> <POSIT::Probability>
0.79

> <POSIT::Method>
SHAPEFIT

> <ReceptorTitle>
UCSF-P4528-REFINED_LIGAND-BOUND-STATE_A__DU__LA1_A-201(A)

> <OMEGA_C>
ATM4wm+w6MGKHX9AnUg8wlRu58FvBp5AoN8xwu3l6cF/aLpAfLc0wpILCsI8uIG/suEywpbS6cGH
7I1Abqg1whbjBcLgESC+ZFAzwt8BAcIIU0e/PPc6wtVt58GT9MlAo3kuwlRK7MEeHmBA5yAzwnkx
98HAVEW+dwIswrCZ28Gwd9S+iLUvwnC+28EKOwFAZgkqwm9p6sF8TqM/Qdswwh9s3cEoWgU/WGgt
wkPj5sEA0pQ9EJYvwpa4B8KkMZDADAkwwpP5CsIoIE3AWtk1wuym6MGHWNdAziQxwvhjAsII0/a/
BRcywlW4B8IKdwTAVS8twj0A5sHsWxhAhfw+wus45sG3KOhAYqYvwkec78HUHD2/bv4rwm6Z9MGG
AW1AiYI1wiVl9cFYG1s/OuM4wtxwBsJAlLE/OR05wl3J6MFckTtAXmNAwrB55sFN8pNAiNItwq76
6sGGmsVAtMo1wv4yDsI5YWO/LKcswttm2cFp47u/TGgowraM18Hn2xi9Gvgsws371MEosAtAnWsz
wlZs2sHCiiVAJ74pwn4t88EzX6s/6P4lwrfw5sE3E58/TfI0wsZ33MG3fAg+MA4uwjZNCsK68KnA
K44zwjUvBsJLHpnAutMswk9ZBMJtSovALscywjxZDsLG7VfAvQwswlWDDMIKRjzAVGY9whRz5sGH
wgJBNdFAwiIy38FZveNAQqkuwl0h8MEITtq/

> <OMEGA_E>
KAUUPw==

> <OMEGA_NBR>
     95895

$$$$
CACHE3HI_1705_74
  -OEChem-03092622573D

 47 50  0     1  0  0  0  0  0999 V2000
  -48.5802  -28.5060    5.2805 C   0  0  0  0  0  0  0  0  0  0  0  0
  -46.2887  -29.1111    4.1887 C   0  0  0  0  0  0  0  0  0  0  0  0
  -44.5620  -29.5349    5.8596 C   0  0  0  0  0  0  0  0  0  0  0  0
  -48.9251  -28.3832    6.6045 C   0  0  0  0  0  0  0  0  0  0  0  0
  -47.1682  -28.8631    5.2427 C   0  0  0  0  0  0  0  0  0  0  0  0
  -44.9610  -29.4609    4.5043 C   0  0  0  0  0  0  0  0  0  0  0  0
  -46.7142  -28.9439    6.5664 C   0  0  0  0  0  0  0  0  0  0  0  0
  -44.0000  -29.6662    3.4252 C   0  0  0  0  0  0  0  0  0  0  0  0
  -44.7879  -30.8974   -0.6849 C   0  0  0  0  0  0  0  0  0  0  0  0
  -42.5497  -27.4277    1.0042 C   0  0  0  0  0  0  0  0  0  0  0  0
  -42.6185  -27.7586   -0.4864 C   0  0  0  0  0  0  0  0  0  0  0  0
  -44.3092  -33.9279   -0.2971 C   0  0  0  0  0  0  0  0  0  0  0  0
  -45.8559  -33.9558   -0.3394 C   0  0  0  0  0  0  0  0  0  0  0  0
  -43.1901  -28.8037    1.2160 C   0  0  2  0  0  0  0  0  0  0  0  0
  -43.8688  -28.5917   -0.1502 C   0  0  2  0  0  0  0  0  0  0  0  0
  -45.0532  -33.4106   -1.5367 C   0  0  0  0  0  0  0  0  0  0  0  0
  -45.0713  -31.8836   -1.8497 C   0  0  0  0  0  0  0  0  0  0  0  0
  -44.9750  -34.2751   -2.8258 C   0  0  0  0  0  0  0  0  0  0  0  0
  -45.4335  -29.2704    6.8631 N   0  0  0  0  0  0  0  0  0  0  0  0
  -47.7960  -28.6457    7.3805 N   0  0  0  0  0  0  0  0  0  0  0  0
  -44.1155  -28.8407    2.3267 N   0  0  0  0  0  0  0  0  0  0  0  0
  -44.0239  -29.7790   -0.9947 N   0  0  0  0  0  0  0  0  0  0  0  0
  -43.1288  -30.5252    3.5069 O   0  0  0  0  0  0  0  0  0  0  0  0
  -45.3708  -30.9837    0.3916 O   0  0  0  0  0  0  0  0  0  0  0  0
  -45.1354  -35.6670   -2.5445 O   0  0  0  0  0  0  0  0  0  0  0  0
  -49.2311  -28.3648    4.4303 H   0  0  0  0  0  0  0  0  0  0  0  0
  -46.6157  -29.0373    3.1621 H   0  0  0  0  0  0  0  0  0  0  0  0
  -43.5446  -29.8071    6.0987 H   0  0  0  0  0  0  0  0  0  0  0  0
  -49.9044  -28.1268    6.9808 H   0  0  0  0  0  0  0  0  0  0  0  0
  -41.5336  -27.3186    1.4113 H   0  0  0  0  0  0  0  0  0  0  0  0
  -43.1654  -26.5730    1.3211 H   0  0  0  0  0  0  0  0  0  0  0  0
  -42.8011  -26.8955   -1.1435 H   0  0  0  0  0  0  0  0  0  0  0  0
  -41.7664  -28.3384   -0.8710 H   0  0  0  0  0  0  0  0  0  0  0  0
  -43.7897  -33.2216    0.3672 H   0  0  0  0  0  0  0  0  0  0  0  0
  -43.7405  -34.8680   -0.3494 H   0  0  0  0  0  0  0  0  0  0  0  0
  -46.3877  -34.9150   -0.4234 H   0  0  0  0  0  0  0  0  0  0  0  0
  -46.4370  -33.2686    0.2932 H   0  0  0  0  0  0  0  0  0  0  0  0
  -42.4577  -29.6243    1.2064 H   0  0  0  0  0  0  0  0  0  0  0  0
  -44.7783  -27.9771   -0.0783 H   0  0  0  0  0  0  0  0  0  0  0  0
  -46.0684  -31.6429   -2.2467 H   0  0  0  0  0  0  0  0  0  0  0  0
  -44.3135  -31.6997   -2.6255 H   0  0  0  0  0  0  0  0  0  0  0  0
  -45.7709  -33.9577   -3.5156 H   0  0  0  0  0  0  0  0  0  0  0  0
  -43.9949  -34.1188   -3.3000 H   0  0  0  0  0  0  0  0  0  0  0  0
  -47.7706  -28.6223    8.3799 H   0  0  0  0  0  0  0  0  0  0  0  0
  -44.8991  -28.2202    2.2958 H   0  0  0  0  0  0  0  0  0  0  0  0
  -43.5384  -29.7849   -1.8689 H   0  0  0  0  0  0  0  0  0  0  0  0
  -45.0821  -36.1622   -3.3534 H   0  0  0  0  0  0  0  0  0  0  0  0
  1  4  2  0  0  0  0
  1  5  1  0  0  0  0
  2  5  2  0  0  0  0
  2  6  1  0  0  0  0
  3  6  2  0  0  0  0
  3 19  1  0  0  0  0
  4 20  1  0  0  0  0
  5  7  1  0  0  0  0
  6  8  1  0  0  0  0
  7 19  2  0  0  0  0
  7 20  1  0  0  0  0
  8 21  1  0  0  0  0
  8 23  2  0  0  0  0
  9 17  1  0  0  0  0
  9 22  1  0  0  0  0
  9 24  2  0  0  0  0
 10 11  1  0  0  0  0
 10 14  1  0  0  0  0
 11 15  1  0  0  0  0
 12 13  1  0  0  0  0
 12 16  1  0  0  0  0
 13 16  1  0  0  0  0
 14 15  1  0  0  0  0
 14 21  1  0  0  0  0
 15 22  1  0  0  0  0
 16 17  1  0  0  0  0
 16 18  1  0  0  0  0
 18 25  1  0  0  0  0
  1 26  1  0  0  0  0
  2 27  1  0  0  0  0
  3 28  1  0  0  0  0
  4 29  1  0  0  0  0
 10 30  1  0  0  0  0
 10 31  1  0  0  0  0
 11 32  1  0  0  0  0
 11 33  1  0  0  0  0
 12 34  1  0  0  0  0
 12 35  1  0  0  0  0
 13 36  1  0  0  0  0
 13 37  1  0  0  0  0
 14 38  1  0  0  0  0
 15 39  1  0  0  0  0
 17 40  1  0  0  0  0
 17 41  1  0  0  0  0
 18 42  1  0  0  0  0
 18 43  1  0  0  0  0
 20 44  1  0  0  0  0
 21 45  1  0  0  0  0
 22 46  1  0  0  0  0
 25 47  1  0  0  0  0
M  END
> <POSIT::Probability>
0.72

> <POSIT::Method>
SHAPEFIT

> <ReceptorTitle>
UCSF-P4528-REFINED_LIGAND-BOUND-STATE_A__DU__LA1_A-201(A)

> <OMEGA_C>
F1JCwj4M5MGc+ahAnic5wpPj6MEeCoZAhj8ywnxH7MGYgbtAQbNDwskQ48HoV9NAO6w8wpLn5sE8
xKdACtgzwvWv68HeIpBAYds6wh6N58HQH9JA9P8vwl9U7cG9NltA3CYzwuAt98FZVS+/4zIqwtpr
28FqioA/Tnkqwo8R3sH0Dvm+mzwxwiC2B8JsIJi+dWw3wrLSB8LUxa2+tsIswu9t5sGqpJs/onkv
wru75ME00Rm+bjY0wmqkBcJ6s8S/9kg0wo8R/8Fxwey/b+YzwroZCcIq2jTA6rs1wrYp6sHqnttA
FC8/wn4q5cEYLexAQXYwwr655sHd6BRAhBgwwns77sG5p36/34Mswqwz9MF5cGBAt3s1wqfe98FM
fMg+pIo0wv6qDsKc2CLAn+xEwinr4sH/xI1AbnY6wkxM6MFhX0pAtS0uwvd07sHqKMNAEZ5HwscD
4cH7Yt9AciImwmaM2sE1prQ/XKkswmuV1MFIGak/UTQrwgIq18FZX5K/zxAnwvi04sHQ916/sygv
wuHiBMLoAbw+O/Yuws14C8Jl6bK++Iw5wvuoC8JFyNi+cL85wg8TBcIHI5Y+p9Qpwob+7MHJa5o/
7xwzwhnR38EzcaC9FkY4wqUk/cGuyg/A+kAxwgOZ/cE1CCjAZxU3wrzUB8JUAGHAw/ovwqF5CMJy
M1PADBU/wmv65MEYFAZBpJgzwuvC4cFM7hJATicuwpFH7sEjOe+/DVQ0wiCmEMJYnlbA

> <OMEGA_E>
sL1CPw==

> <OMEGA_NBR>
     97362

$$$$
CACHE3HI_1705_76
  -OEChem-03092622573D

 55 58  0     1  0  0  0  0  0999 V2000
  -46.3977  -33.3202   -0.5908 C   0  0  0  0  0  0  0  0  0  0  0  0
  -45.4857  -32.2933   -0.3084 C   0  0  0  0  0  0  0  0  0  0  0  0
  -48.5143  -28.8277    5.0914 C   0  0  0  0  0  0  0  0  0  0  0  0
  -46.1382  -29.2849    4.0797 C   0  0  0  0  0  0  0  0  0  0  0  0
  -44.4181  -29.3145    5.8094 C   0  0  0  0  0  0  0  0  0  0  0  0
  -48.8978  -28.6210    6.3961 C   0  0  0  0  0  0  0  0  0  0  0  0
  -47.0689  -29.0345    5.0980 C   0  0  0  0  0  0  0  0  0  0  0  0
  -44.7805  -29.4043    4.4428 C   0  0  0  0  0  0  0  0  0  0  0  0
  -46.0934  -34.2412   -1.6109 C   0  0  0  0  0  0  0  0  0  0  0  0
  -44.2777  -32.2168   -1.0420 C   0  0  0  0  0  0  0  0  0  0  0  0
  -44.8691  -34.1052   -2.3181 C   0  0  0  0  0  0  0  0  0  0  0  0
  -46.6401  -28.9387    6.4314 C   0  0  0  0  0  0  0  0  0  0  0  0
  -43.7392  -29.6178    3.4221 C   0  0  0  0  0  0  0  0  0  0  0  0
  -43.3219  -31.1259   -0.7829 C   0  0  0  0  0  0  0  0  0  0  0  0
  -44.8589  -27.3004    0.8876 C   0  0  0  0  0  0  0  0  0  0  0  0
  -44.2251  -27.3813    2.2937 C   0  0  0  0  0  0  0  0  0  0  0  0
  -42.3824  -28.8470    1.4343 C   0  0  0  0  0  0  0  0  0  0  0  0
  -43.7842  -27.4603   -0.2346 C   0  0  2  0  0  0  0  0  0  0  0  0
  -42.9442  -28.7545   -0.0047 C   0  0  2  0  0  0  0  0  0  0  0  0
  -47.0752  -35.3535   -1.9403 C   0  0  0  0  0  0  0  0  0  0  0  0
  -44.5103  -35.0609   -3.4412 C   0  0  0  0  0  0  0  0  0  0  0  0
  -42.8463  -26.2254   -0.3060 C   0  0  0  0  0  0  0  0  0  0  0  0
  -45.3397  -29.0832    6.7752 N   0  0  0  0  0  0  0  0  0  0  0  0
  -43.9941  -33.1163   -2.0162 N   0  0  0  0  0  0  0  0  0  0  0  0
  -47.7640  -28.6895    7.2047 N   0  0  0  0  0  0  0  0  0  0  0  0
  -43.4749  -28.6580    2.4177 N   0  0  0  0  0  0  0  0  0  0  0  0
  -43.7946  -29.9232   -0.2687 N   0  0  0  0  0  0  0  0  0  0  0  0
  -43.0489  -30.6275    3.5242 O   0  0  0  0  0  0  0  0  0  0  0  0
  -42.1371  -31.2700   -1.0702 O   0  0  0  0  0  0  0  0  0  0  0  0
  -43.5953  -25.0513   -0.6168 O   0  0  0  0  0  0  0  0  0  0  0  0
  -47.3195  -33.4032   -0.0342 H   0  0  0  0  0  0  0  0  0  0  0  0
  -45.7029  -31.5676    0.4614 H   0  0  0  0  0  0  0  0  0  0  0  0
  -49.1602  -28.8356    4.2259 H   0  0  0  0  0  0  0  0  0  0  0  0
  -46.4508  -29.3832    3.0506 H   0  0  0  0  0  0  0  0  0  0  0  0
  -43.3816  -29.4335    6.0883 H   0  0  0  0  0  0  0  0  0  0  0  0
  -49.9061  -28.4368    6.7364 H   0  0  0  0  0  0  0  0  0  0  0  0
  -45.6049  -28.1023    0.7851 H   0  0  0  0  0  0  0  0  0  0  0  0
  -45.3523  -26.3239    0.7736 H   0  0  0  0  0  0  0  0  0  0  0  0
  -43.5373  -26.5348    2.4366 H   0  0  0  0  0  0  0  0  0  0  0  0
  -45.0163  -27.3437    3.0569 H   0  0  0  0  0  0  0  0  0  0  0  0
  -41.9246  -29.8360    1.5839 H   0  0  0  0  0  0  0  0  0  0  0  0
  -41.6222  -28.0653    1.5795 H   0  0  0  0  0  0  0  0  0  0  0  0
  -44.3054  -27.5550   -1.1987 H   0  0  0  0  0  0  0  0  0  0  0  0
  -42.0993  -28.7484   -0.7092 H   0  0  0  0  0  0  0  0  0  0  0  0
  -47.7780  -35.0063   -2.7120 H   0  0  0  0  0  0  0  0  0  0  0  0
  -46.5247  -36.2297   -2.3135 H   0  0  0  0  0  0  0  0  0  0  0  0
  -47.6335  -35.6300   -1.0338 H   0  0  0  0  0  0  0  0  0  0  0  0
  -43.5325  -34.7830   -3.8616 H   0  0  0  0  0  0  0  0  0  0  0  0
  -44.4619  -36.0870   -3.0479 H   0  0  0  0  0  0  0  0  0  0  0  0
  -45.2767  -35.0057   -4.2283 H   0  0  0  0  0  0  0  0  0  0  0  0
  -42.3484  -26.0915    0.6656 H   0  0  0  0  0  0  0  0  0  0  0  0
  -42.0889  -26.3897   -1.0866 H   0  0  0  0  0  0  0  0  0  0  0  0
  -47.7616  -28.5755    8.1982 H   0  0  0  0  0  0  0  0  0  0  0  0
  -44.7712  -29.8495   -0.0668 H   0  0  0  0  0  0  0  0  0  0  0  0
  -43.0106  -24.3037   -0.6575 H   0  0  0  0  0  0  0  0  0  0  0  0
  1  2  2  0  0  0  0
  1  9  1  0  0  0  0
  2 10  1  0  0  0  0
  3  6  2  0  0  0  0
  3  7  1  0  0  0  0
  4  7  2  0  0  0  0
  4  8  1  0  0  0  0
  5  8  2  0  0  0  0
  5 23  1  0  0  0  0
  6 25  1  0  0  0  0
  7 12  1  0  0  0  0
  8 13  1  0  0  0  0
  9 11  2  0  0  0  0
  9 20  1  0  0  0  0
 10 14  1  0  0  0  0
 10 24  2  0  0  0  0
 11 21  1  0  0  0  0
 11 24  1  0  0  0  0
 12 23  2  0  0  0  0
 12 25  1  0  0  0  0
 13 26  1  0  0  0  0
 13 28  2  0  0  0  0
 14 27  1  0  0  0  0
 14 29  2  0  0  0  0
 15 16  1  0  0  0  0
 15 18  1  0  0  0  0
 16 26  1  0  0  0  0
 17 19  1  0  0  0  0
 17 26  1  0  0  0  0
 18 19  1  0  0  0  0
 18 22  1  0  0  0  0
 19 27  1  0  0  0  0
 22 30  1  0  0  0  0
  1 31  1  0  0  0  0
  2 32  1  0  0  0  0
  3 33  1  0  0  0  0
  4 34  1  0  0  0  0
  5 35  1  0  0  0  0
  6 36  1  0  0  0  0
 15 37  1  0  0  0  0
 15 38  1  0  0  0  0
 16 39  1  0  0  0  0
 16 40  1  0  0  0  0
 17 41  1  0  0  0  0
 17 42  1  0  0  0  0
 18 43  1  0  0  0  0
 19 44  1  0  0  0  0
 20 45  1  0  0  0  0
 20 46  1  0  0  0  0
 20 47  1  0  0  0  0
 21 48  1  0  0  0  0
 21 49  1  0  0  0  0
 21 50  1  0  0  0  0
 22 51  1  0  0  0  0
 22 52  1  0  0  0  0
 25 53  1  0  0  0  0
 27 54  1  0  0  0  0
 30 55  1  0  0  0  0
M  END
> <POSIT::Probability>
0.78

> <POSIT::Method>
SHAPEFIT

> <ReceptorTitle>
UCSF-P4528-REFINED_LIGAND-BOUND-STATE_A__DU__LA1_A-201(A)

> <OMEGA_C>
NZc5wtpHBcJkPxe/U/E1wk0sAcKe652+rQ5CwjKf5sHd7KJAho04wntH6sHcjIJAKKwxwiWE6sG8
5rlAVZdDwsb35MGDrMxAlEY8wqFG6MGPIqNAMB8zwus768HQK45AoF84wgL3CMKQMc6/VxwxwgDe
AMLmXoW/9HkzwsFrCML8WxTAfI86wlyC58Hlzc1A8PQuwlXx7MF+A1tAq0ktwscB+cF0bUi/hW8z
wjtn2sHTO2M/duYwwuQM28HEyxJAjIcpwp3G5sEzl7c/CCMvwrqu28EQR3C+0cYrwkwJ5sGA6Zq7
+kw8wvtpDcJzXPi/kwoywl4+DMKuPFzAoGIrwqTN0cEHrJy+3Fs1wkyq6MFEzthA8vkvwgx3BMIK
CQHAUQ4/whCE5cH5jOZAQeYtwn5D5cGMuxpAri0vwrti78E/mYm+FTIswjMF9cE2jGFAW4wowvMo
+sEn/Ii/k2EuwgFpyMHX5B2/Hkc9wuKcBcIfFwy9x882wniK/MGcO+w+DaREwmev5sE+OodAk805
wtkQ68HzPENAt4Ytws9368Fc08JA1J9Hwpt+48FykNdAX2s2wojR4MGm/Ug/v2g1wlmX0sEGCUY/
KyYuwlFH1MHu8RtAvhA0wvG/2sHBo0NAz7Inwg2w7sGDvMo/GH0mwsiF4MFzLso/uzgxwp9w3MHu
bpm/vGUowqD85cFBjTW/qRw/wm0GDMJrkS3ARhk6wjbrEMKgDxTAr4g+wh+FDsKAUoS/UyEuwsQh
C8KrI3fAANkxwiFZEMJ7EEPAZBs1wtkFDMJmTofAuGQpwk270MHOZyo/DFsowjMe08HOFYu/2gs/
wpSa5MHFKwNBuhUzwr/L7sGptYi9zwoswuJtwsGkTyi/

> <OMEGA_E>
UJFMPw==

> <OMEGA_NBR>
     98990

$$$$
CACHE3HI_1705_77
  -OEChem-03092622573D

 43 44  0     0  0  0  0  0  0999 V2000
  -45.1554  -23.1248   -2.4986 C   0  0  0  0  0  0  0  0  0  0  0  0
  -46.1967  -29.4456    4.1378 C   0  0  0  0  0  0  0  0  0  0  0  0
  -46.1238  -24.1328   -2.3315 C   0  0  0  0  0  0  0  0  0  0  0  0
  -44.6939  -29.3874    5.9805 C   0  0  0  0  0  0  0  0  0  0  0  0
  -44.0580  -23.5871   -1.8137 C   0  0  0  0  0  0  0  0  0  0  0  0
  -44.9070  -29.6129    4.6297 C   0  0  0  0  0  0  0  0  0  0  0  0
  -47.2193  -29.0635    4.9989 C   0  0  0  0  0  0  0  0  0  0  0  0
  -46.9032  -28.8627    6.3328 C   0  0  0  0  0  0  0  0  0  0  0  0
  -43.7927  -30.0203    3.7366 C   0  0  0  0  0  0  0  0  0  0  0  0
  -44.1327  -27.1035   -0.3119 C   0  0  0  0  0  0  0  0  0  0  0  0
  -42.8093  -31.5446    1.3559 C   0  0  0  0  0  0  0  0  0  0  0  0
  -41.6066  -29.3873    1.8305 C   0  0  0  0  0  0  0  0  0  0  0  0
  -43.5611  -25.7075   -0.4626 C   0  0  0  0  0  0  0  0  0  0  0  0
  -43.4246  -29.4483    0.0584 C   0  0  0  0  0  0  0  0  0  0  0  0
  -42.9407  -30.0155    1.4064 C   0  0  0  0  0  0  0  0  0  0  0  0
  -45.6624  -29.0154    6.8473 N   0  0  0  0  0  0  0  0  0  0  0  0
  -45.6807  -25.1576   -1.5985 N   0  0  0  0  0  0  0  0  0  0  0  0
  -44.4216  -24.7965   -1.2984 N   0  0  0  0  0  0  0  0  0  0  0  0
  -47.9323  -28.4732    7.2257 N   0  0  0  0  0  0  0  0  0  0  0  0
  -43.9460  -29.6635    2.4204 N   0  0  0  0  0  0  0  0  0  0  0  0
  -43.1341  -28.0500   -0.1143 N   0  0  0  0  0  0  0  0  0  0  0  0
  -42.8454  -30.6455    4.2059 O   0  0  0  0  0  0  0  0  0  0  0  0
  -45.3345  -27.3545   -0.3587 O   0  0  0  0  0  0  0  0  0  0  0  0
  -48.8117  -28.8606    4.3727 Cl  0  0  0  0  0  0  0  0  0  0  0  0
  -45.2402  -22.1934   -3.0388 H   0  0  0  0  0  0  0  0  0  0  0  0
  -46.3989  -29.6144    3.0824 H   0  0  0  0  0  0  0  0  0  0  0  0
  -47.1341  -24.1632   -2.7139 H   0  0  0  0  0  0  0  0  0  0  0  0
  -43.7090  -29.5018    6.4232 H   0  0  0  0  0  0  0  0  0  0  0  0
  -43.0747  -23.1674   -1.6523 H   0  0  0  0  0  0  0  0  0  0  0  0
  -43.7505  -32.0175    1.0549 H   0  0  0  0  0  0  0  0  0  0  0  0
  -42.0449  -31.8560    0.6337 H   0  0  0  0  0  0  0  0  0  0  0  0
  -42.5288  -31.9543    2.3336 H   0  0  0  0  0  0  0  0  0  0  0  0
  -41.6755  -28.2940    1.8739 H   0  0  0  0  0  0  0  0  0  0  0  0
  -40.8037  -29.6420    1.1301 H   0  0  0  0  0  0  0  0  0  0  0  0
  -41.2948  -29.7404    2.8213 H   0  0  0  0  0  0  0  0  0  0  0  0
  -42.5610  -25.7811   -0.9093 H   0  0  0  0  0  0  0  0  0  0  0  0
  -43.4257  -25.2742    0.5365 H   0  0  0  0  0  0  0  0  0  0  0  0
  -44.5098  -29.5601   -0.0485 H   0  0  0  0  0  0  0  0  0  0  0  0
  -42.9547  -29.9732   -0.7817 H   0  0  0  0  0  0  0  0  0  0  0  0
  -48.8445  -28.3026    6.8624 H   0  0  0  0  0  0  0  0  0  0  0  0
  -47.6973  -28.2770    8.1740 H   0  0  0  0  0  0  0  0  0  0  0  0
  -44.7708  -29.2071    2.0770 H   0  0  0  0  0  0  0  0  0  0  0  0
  -42.1611  -27.7524   -0.1096 H   0  0  0  0  0  0  0  0  0  0  0  0
  1  3  1  0  0  0  0
  1  5  2  0  0  0  0
  2  6  1  0  0  0  0
  2  7  2  0  0  0  0
  3 17  2  0  0  0  0
  4  6  2  0  0  0  0
  4 16  1  0  0  0  0
  5 18  1  0  0  0  0
  6  9  1  0  0  0  0
  7  8  1  0  0  0  0
  7 24  1  0  0  0  0
  8 16  2  0  0  0  0
  8 19  1  0  0  0  0
  9 20  1  0  0  0  0
  9 22  2  0  0  0  0
 10 13  1  0  0  0  0
 10 21  1  0  0  0  0
 10 23  2  0  0  0  0
 11 15  1  0  0  0  0
 12 15  1  0  0  0  0
 13 18  1  0  0  0  0
 14 15  1  0  0  0  0
 14 21  1  0  0  0  0
 15 20  1  0  0  0  0
 17 18  1  0  0  0  0
  1 25  1  0  0  0  0
  2 26  1  0  0  0  0
  3 27  1  0  0  0  0
  4 28  1  0  0  0  0
  5 29  1  0  0  0  0
 11 30  1  0  0  0  0
 11 31  1  0  0  0  0
 11 32  1  0  0  0  0
 12 33  1  0  0  0  0
 12 34  1  0  0  0  0
 12 35  1  0  0  0  0
 13 36  1  0  0  0  0
 13 37  1  0  0  0  0
 14 38  1  0  0  0  0
 14 39  1  0  0  0  0
 19 40  1  0  0  0  0
 19 41  1  0  0  0  0
 20 42  1  0  0  0  0
 21 43  1  0  0  0  0
M  END
> <POSIT::Probability>
0.18

> <POSIT::Method>
FRED

> <ReceptorTitle>
UCSF-P4528-REFINED_LIGAND-BOUND-STATE_A__DU__LA1_A-201(A)

> <OMEGA_C>
FZ80wqL/uMF46R/AbMk4wp2Q68EoaYRAyn44wv4PwcF8NxXAhMYywnEZ68F1YL9AYzswwmuyvMGz
Jui/xqAzwjzn7MFxJpRAnOA8wh6C6MGW9p9A1Zw7wtDm5sFhpspArisvwoQp8MH0JG9A4IcwwvLT
2MF4tJ++vDwrwlVb/MEPja0/I20mwjgZ68EST+o/iD4uwgmpzcEI3uy+0rItwhWW68HgCm89ScMr
wsgf8MFEBbQ/VaY2wn0f6MEfHdtABrk2wsVCycGHnMy/ra8xwiZfxsG5Mqa/t7o/wjfJ48HBOOdA
ucgvwtZO7cF06BpAS4kswl1m4MFw/em9vWErwgEq9cG8loZAflY1wvjV2sFYpbe+Nz9DwoHi5sFT
7YtA8fU0wi2MscFAe0LAeJg5wjrq7MGeRkVAXYk8wkJOwcGKsC3AA9YuwqwD7MHkis1Ad0wswtBW
ucFPf9O/igAvwvQRAMLBB4c//C0owh/Z/sHGOSI/dR0qwlGi/8EmWRVAwrMmwh5a4sEk3e8/8zYj
wuQi7cE+ppA/4i0lwkLs7cGAkDRAez4qwqY/zsEyymi/87MtwosxysExWAk/FAoywhd77MGAtka9
pdErwgXJ78ESG0i/vGBDwqVr4sGqmNtA/ck+wjU34sGoyAJBRRUzwjGo6cFK7gRA7aQowvIE3sHA
XuC9

> <OMEGA_E>
MsAxwQ==

> <OMEGA_NBR>
    100337

$$$$
CACHE3HI_1706_1
  -OEChem-03092622573D

 45 47  0     1  0  0  0  0  0999 V2000
  -52.1057  -30.1560    5.2211 C   0  0  0  0  0  0  0  0  0  0  0  0
  -52.7763  -29.7505    6.3751 C   0  0  0  0  0  0  0  0  0  0  0  0
  -50.7290  -29.9614    5.1105 C   0  0  0  0  0  0  0  0  0  0  0  0
  -52.0705  -29.1507    7.4182 C   0  0  0  0  0  0  0  0  0  0  0  0
  -47.8177  -28.9611    4.9112 C   0  0  0  0  0  0  0  0  0  0  0  0
  -50.0231  -29.3616    6.1536 C   0  0  0  0  0  0  0  0  0  0  0  0
  -50.6937  -28.9561    7.3075 C   0  0  0  0  0  0  0  0  0  0  0  0
  -48.6018  -29.1709    6.0195 C   0  0  0  0  0  0  0  0  0  0  0  0
  -46.5105  -28.8499    5.4219 C   0  0  0  0  0  0  0  0  0  0  0  0
  -45.2737  -28.6195    4.6662 C   0  0  0  0  0  0  0  0  0  0  0  0
  -46.5859  -27.9298    2.6972 C   0  0  0  0  0  0  0  0  0  0  0  0
  -46.2661  -26.9444    1.5856 C   0  0  0  0  0  0  0  0  0  0  0  0
  -44.3831  -29.0187    2.3002 C   0  0  2  0  0  0  0  0  0  0  0  0
  -44.1127  -27.9528    1.2017 C   0  0  0  0  0  0  0  0  0  0  0  0
  -43.3078  -26.7688    1.7738 C   0  0  0  0  0  0  0  0  0  0  0  0
  -43.3107  -28.5288    0.0252 C   0  0  0  0  0  0  0  0  0  0  0  0
  -44.8865  -30.3651    1.7585 C   0  0  0  0  0  0  0  0  0  0  0  0
  -46.4631  -28.9780    6.7505 N   0  0  0  0  0  0  0  0  0  0  0  0
  -47.7502  -29.1722    7.0847 N   0  0  0  0  0  0  0  0  0  0  0  0
  -45.3666  -28.4908    3.2770 N   0  0  0  0  0  0  0  0  0  0  0  0
  -44.2379  -28.5632    5.3265 O   0  0  0  0  0  0  0  0  0  0  0  0
  -45.3560  -27.4993    0.6381 O   0  0  0  0  0  0  0  0  0  0  0  0
  -50.0288  -28.3680    8.3428 O   0  0  0  0  0  0  0  0  0  0  0  0
  -43.7743  -31.0879    1.2713 O   0  0  0  0  0  0  0  0  0  0  0  0
  -52.6556  -30.6236    4.4096 H   0  0  0  0  0  0  0  0  0  0  0  0
  -53.8484  -29.9019    6.4612 H   0  0  0  0  0  0  0  0  0  0  0  0
  -50.2215  -30.2827    4.2040 H   0  0  0  0  0  0  0  0  0  0  0  0
  -52.5996  -28.8375    8.3141 H   0  0  0  0  0  0  0  0  0  0  0  0
  -48.1443  -28.8980    3.8826 H   0  0  0  0  0  0  0  0  0  0  0  0
  -47.2014  -27.4472    3.4629 H   0  0  0  0  0  0  0  0  0  0  0  0
  -47.1632  -28.7719    2.2994 H   0  0  0  0  0  0  0  0  0  0  0  0
  -47.1852  -26.6936    1.0456 H   0  0  0  0  0  0  0  0  0  0  0  0
  -45.8703  -26.0041    1.9831 H   0  0  0  0  0  0  0  0  0  0  0  0
  -43.4372  -29.2235    2.8103 H   0  0  0  0  0  0  0  0  0  0  0  0
  -43.1351  -26.0439    0.9868 H   0  0  0  0  0  0  0  0  0  0  0  0
  -42.3601  -27.1340    2.1521 H   0  0  0  0  0  0  0  0  0  0  0  0
  -43.8729  -26.3108    2.5783 H   0  0  0  0  0  0  0  0  0  0  0  0
  -43.1469  -27.7508   -0.7138 H   0  0  0  0  0  0  0  0  0  0  0  0
  -43.8667  -29.3460   -0.4234 H   0  0  0  0  0  0  0  0  0  0  0  0
  -42.3539  -28.8949    0.3864 H   0  0  0  0  0  0  0  0  0  0  0  0
  -45.5922  -30.1897    0.9513 H   0  0  0  0  0  0  0  0  0  0  0  0
  -45.3635  -30.9230    2.5602 H   0  0  0  0  0  0  0  0  0  0  0  0
  -47.9750  -29.2990    8.0640 H   0  0  0  0  0  0  0  0  0  0  0  0
  -50.6684  -28.1620    9.0475 H   0  0  0  0  0  0  0  0  0  0  0  0
  -44.1083  -31.9367    0.9322 H   0  0  0  0  0  0  0  0  0  0  0  0
  1  2  1  0  0  0  0
  1  3  2  0  0  0  0
  2  4  2  0  0  0  0
  3  6  1  0  0  0  0
  4  7  1  0  0  0  0
  5  8  2  0  0  0  0
  5  9  1  0  0  0  0
  6  7  2  0  0  0  0
  6  8  1  0  0  0  0
  7 23  1  0  0  0  0
  8 19  1  0  0  0  0
  9 10  1  0  0  0  0
  9 18  2  0  0  0  0
 10 20  1  0  0  0  0
 10 21  2  0  0  0  0
 11 12  1  0  0  0  0
 11 20  1  0  0  0  0
 12 22  1  0  0  0  0
 13 14  1  0  0  0  0
 13 17  1  0  0  0  0
 13 20  1  0  0  0  0
 14 15  1  0  0  0  0
 14 16  1  0  0  0  0
 14 22  1  0  0  0  0
 17 24  1  0  0  0  0
 18 19  1  0  0  0  0
  1 25  1  0  0  0  0
  2 26  1  0  0  0  0
  3 27  1  0  0  0  0
  4 28  1  0  0  0  0
  5 29  1  0  0  0  0
 11 30  1  0  0  0  0
 11 31  1  0  0  0  0
 12 32  1  0  0  0  0
 12 33  1  0  0  0  0
 13 34  1  0  0  0  0
 15 35  1  0  0  0  0
 15 36  1  0  0  0  0
 15 37  1  0  0  0  0
 16 38  1  0  0  0  0
 16 39  1  0  0  0  0
 16 40  1  0  0  0  0
 17 41  1  0  0  0  0
 17 42  1  0  0  0  0
 19 43  1  0  0  0  0
 23 44  1  0  0  0  0
 24 45  1  0  0  0  0
M  END
> <POSIT::Probability>
0.24

> <POSIT::Method>
FRED

> <ReceptorTitle>
UCSF-P4528-REFINED_LIGAND-BOUND-STATE_A__DU__LA1_A-201(A)

> <OMEGA_C>
OWxQwoo/8cGiE6dA9BpTwgYB7sFuAMxAeepKwuSw78FLiaNAL0hQwro06cGpYe1AU0U/wmSw58Gg
KJ1AsxdIwpjk6sGG6sRAYsZKwhSm58ET1+lASGhCwu1d6cFdn8BAzAo6wojM5sGZgK1AThg1wrf0
5MHJUZVA8lc6wkJw38EmnyxAehA5wiOO18FY88o/Rogxwlwm6MG2NRNAaXMwwmif38Hi0Jk/Jjst
wncm1sFcDOM/ID4twv865MGAl848woszwsDr8sHuFeE/Odo5wu7S58F1BNhAKwA/wqJg6cEjtuJA
W3c1whjt48GouVFAkvMwwmWB5MGpcqpAgWw1wqX+28FgWCM/gR1Iwrbx4sEGfAVB3hgvwgW0+ME8
u6I/T59Swij99MFQG41AuWRXwg0378F0ws5A2+JIwhJD8sFgh4ZAAGZSwj+z5sF4BgVBvpNAwgwv
58EtfXhAQM48wu6T28Fgn11AHqc8wucs5sGeKBNAob08wneM1cEe1oU/OXs3wloI0MHU1P0/r78t
wsLJ6cFR3DNAZIoswu5Z0MGAoHw/sXApwlcS2cGWvAlA2H0vwn180sHuAiVAeJYswq8B3sG0uja/
d3cvwqHE6sEwzdi+W2opwrwo58FI18U+bF42wo6E8cF0h3M/QXQ1wlRi98GG2iNAY+Y/wnJk6sEA
BgFBeaxKwrhL4cG0whBB8W4wwlZ+/8Gopm4/

> <OMEGA_E>
SsoLwQ==

> <OMEGA_NBR>
    101730

$$$$
CACHE3HI_1706_15
  -OEChem-03092622573D

 45 47  0     0  0  0  0  0  0999 V2000
  -47.3669  -28.5335    5.0478 C   0  0  0  0  0  0  0  0  0  0  0  0
  -46.0533  -28.3416    5.5165 C   0  0  0  0  0  0  0  0  0  0  0  0
  -48.0799  -28.8945    6.1651 C   0  0  0  0  0  0  0  0  0  0  0  0
  -41.2438  -31.5718    2.7751 C   0  0  0  0  0  0  0  0  0  0  0  0
  -43.5842  -30.6439    2.3474 C   0  0  0  0  0  0  0  0  0  0  0  0
  -40.7958  -30.4203    2.2609 C   0  0  0  0  0  0  0  0  0  0  0  0
  -42.9924  -29.5390    1.8552 C   0  0  0  0  0  0  0  0  0  0  0  0
  -42.7214  -31.7556    2.8506 C   0  0  0  0  0  0  0  0  0  0  0  0
  -44.8623  -27.9407    4.7253 C   0  0  0  0  0  0  0  0  0  0  0  0
  -50.2233  -29.8396    5.0098 C   0  0  0  0  0  0  0  0  0  0  0  0
  -50.5227  -28.4177    5.3686 C   0  0  0  0  0  0  0  0  0  0  0  0
  -49.5643  -29.2259    6.2479 C   0  0  0  0  0  0  0  0  0  0  0  0
  -50.0920  -29.6764    7.5929 C   0  0  0  0  0  0  0  0  0  0  0  0
  -45.1190  -28.8966    0.7611 C   0  0  0  0  0  0  0  0  0  0  0  0
  -42.9824  -27.7125    0.2079 C   0  0  0  0  0  0  0  0  0  0  0  0
  -44.0145  -27.3632    2.4662 C   0  0  0  0  0  0  0  0  0  0  0  0
  -43.7937  -28.3759    1.3290 C   0  0  0  0  0  0  0  0  0  0  0  0
  -45.9363  -28.5620    6.8285 N   0  0  0  0  0  0  0  0  0  0  0  0
  -47.1853  -28.8965    7.1946 N   0  0  0  0  0  0  0  0  0  0  0  0
  -41.6189  -29.4257    1.8116 N   0  0  0  0  0  0  0  0  0  0  0  0
  -45.0732  -27.7325    3.3683 N   0  0  0  0  0  0  0  0  0  0  0  0
  -43.2111  -32.7821    3.3087 O   0  0  0  0  0  0  0  0  0  0  0  0
  -43.7759  -27.8348    5.2882 O   0  0  0  0  0  0  0  0  0  0  0  0
  -47.7445  -28.4255    4.0408 H   0  0  0  0  0  0  0  0  0  0  0  0
  -40.5882  -32.3559    3.1296 H   0  0  0  0  0  0  0  0  0  0  0  0
  -44.6593  -30.7678    2.3970 H   0  0  0  0  0  0  0  0  0  0  0  0
  -39.7402  -30.1984    2.1663 H   0  0  0  0  0  0  0  0  0  0  0  0
  -51.0155  -30.5683    5.1372 H   0  0  0  0  0  0  0  0  0  0  0  0
  -49.5997  -30.0182    4.1415 H   0  0  0  0  0  0  0  0  0  0  0  0
  -50.1009  -27.6412    4.7408 H   0  0  0  0  0  0  0  0  0  0  0  0
  -51.5162  -28.1907    5.7374 H   0  0  0  0  0  0  0  0  0  0  0  0
  -51.1636  -29.8854    7.5334 H   0  0  0  0  0  0  0  0  0  0  0  0
  -49.9325  -28.9004    8.3464 H   0  0  0  0  0  0  0  0  0  0  0  0
  -49.5801  -30.5863    7.9204 H   0  0  0  0  0  0  0  0  0  0  0  0
  -45.7394  -28.0856    0.3648 H   0  0  0  0  0  0  0  0  0  0  0  0
  -45.7108  -29.3971    1.5370 H   0  0  0  0  0  0  0  0  0  0  0  0
  -44.9476  -29.6170   -0.0472 H   0  0  0  0  0  0  0  0  0  0  0  0
  -43.5181  -26.8556   -0.2152 H   0  0  0  0  0  0  0  0  0  0  0  0
  -42.0134  -27.3552    0.5751 H   0  0  0  0  0  0  0  0  0  0  0  0
  -42.7793  -28.4187   -0.6057 H   0  0  0  0  0  0  0  0  0  0  0  0
  -44.2675  -26.3759    2.0655 H   0  0  0  0  0  0  0  0  0  0  0  0
  -43.1096  -27.2565    3.0755 H   0  0  0  0  0  0  0  0  0  0  0  0
  -47.3581  -29.1148    8.1680 H   0  0  0  0  0  0  0  0  0  0  0  0
  -41.2060  -28.5816    1.4349 H   0  0  0  0  0  0  0  0  0  0  0  0
  -45.9923  -27.9021    2.9665 H   0  0  0  0  0  0  0  0  0  0  0  0
  1  2  1  0  0  0  0
  1  3  2  0  0  0  0
  2  9  1  0  0  0  0
  2 18  2  0  0  0  0
  3 12  1  0  0  0  0
  3 19  1  0  0  0  0
  4  6  2  0  0  0  0
  4  8  1  0  0  0  0
  5  7  2  0  0  0  0
  5  8  1  0  0  0  0
  6 20  1  0  0  0  0
  7 17  1  0  0  0  0
  7 20  1  0  0  0  0
  8 22  2  0  0  0  0
  9 21  1  0  0  0  0
  9 23  2  0  0  0  0
 10 11  1  0  0  0  0
 10 12  1  0  0  0  0
 11 12  1  0  0  0  0
 12 13  1  0  0  0  0
 14 17  1  0  0  0  0
 15 17  1  0  0  0  0
 16 17  1  0  0  0  0
 16 21  1  0  0  0  0
 18 19  1  0  0  0  0
  1 24  1  0  0  0  0
  4 25  1  0  0  0  0
  5 26  1  0  0  0  0
  6 27  1  0  0  0  0
 10 28  1  0  0  0  0
 10 29  1  0  0  0  0
 11 30  1  0  0  0  0
 11 31  1  0  0  0  0
 13 32  1  0  0  0  0
 13 33  1  0  0  0  0
 13 34  1  0  0  0  0
 14 35  1  0  0  0  0
 14 36  1  0  0  0  0
 14 37  1  0  0  0  0
 15 38  1  0  0  0  0
 15 39  1  0  0  0  0
 15 40  1  0  0  0  0
 16 41  1  0  0  0  0
 16 42  1  0  0  0  0
 19 43  1  0  0  0  0
 20 44  1  0  0  0  0
 21 45  1  0  0  0  0
M  END
> <POSIT::Probability>
0.24

> <POSIT::Method>
FRED

> <ReceptorTitle>
UCSF-P4528-REFINED_LIGAND-BOUND-STATE_A__DU__LA1_A-201(A)

> <OMEGA_C>
s3c9wq5E5MGsh6FAoDY4wpK74sHghrBA3lFAwukn58F6SMVAsvkkwhmT/MEJnDFAQlYuwp0m9cF3
OxZA6S4jwtxc88FgshBALvgrwtFP7MFfeO0/ueIqwncL/sFjcDZA8nIzwpOG38H8NZdAteRIwoO3
7sH3T6BAMxdKwmBX48G5y6tA1UFGwovO6cEC78dAPV5IwkZp7cHg+PJA0Xk0wk8s58Fy2UI/Bu4r
wjCz3cEK21Q+2g4wwujn2sGX1h1AyywvwtIB48EZHqo/zL43wvh+5MF3g9pAyb08wvsr58EGOuZA
wXkmwupn68E/4uc/AEs0whnc3cFCkldAI9gswuEgA8LRwVNAeRovwq2t3sFGOalAZvo+wmtn48E/
ToFAUFoiwm1sAcLHS0hAFaMywm0k9sHFaBlAAvYewjyW8cH5owpA6A9MwsyL9MGvY6RAJGZGwkUl
8MF2h4RAXWdIwkch3cFrtJdAjBBOwpSG4cGimLdAf6dMwmIV78GFEfFA4bpHwvAz58HiigVBC1JG
wrKw9MFEdP1AGfU2wkSv4MFNyro+2dc2wk4t68Evu8Q/UMozwqTv7MFYNEG9gxIuwk7Y1sH2aFy+
tg0owmLX2sEqOBM/Ch4rwnBZ48G2Dhu/5RExwusB08HoMARAPHAswkAN2sFU1ERAr249wiLr6MFR
sAJB/tIkwjCn5MHXqbc/Jfg3wmY338Hj2j1A

> <OMEGA_E>
SHwVwQ==

> <OMEGA_NBR>
    103123

$$$$
CACHE3HI_1706_20
  -OEChem-03092622573D

 41 43  0     0  0  0  0  0  0999 V2000
  -45.4404  -34.9342   -0.7600 C   0  0  0  0  0  0  0  0  0  0  0  0
  -45.7355  -33.6807   -0.1986 C   0  0  0  0  0  0  0  0  0  0  0  0
  -44.5558  -35.0248   -1.8514 C   0  0  0  0  0  0  0  0  0  0  0  0
  -44.2552  -32.6036   -1.8158 C   0  0  0  0  0  0  0  0  0  0  0  0
  -46.1626  -29.3924    4.4501 C   0  0  0  0  0  0  0  0  0  0  0  0
  -45.1678  -32.5050   -0.7452 C   0  0  0  0  0  0  0  0  0  0  0  0
  -43.9479  -33.8662   -2.3833 C   0  0  0  0  0  0  0  0  0  0  0  0
  -44.7857  -29.4601    4.4469 C   0  0  0  0  0  0  0  0  0  0  0  0
  -46.5682  -29.1600    5.8549 C   0  0  0  0  0  0  0  0  0  0  0  0
  -44.5004  -30.8227    1.0284 C   0  0  0  0  0  0  0  0  0  0  0  0
  -46.9706  -29.4769    3.1649 C   0  0  0  0  0  0  0  0  0  0  0  0
  -43.9474  -29.6762    3.1984 C   0  0  0  0  0  0  0  0  0  0  0  0
  -46.0587  -29.0507    1.9973 C   0  0  0  0  0  0  0  0  0  0  0  0
  -42.4369  -32.8316   -3.9753 C   0  0  0  0  0  0  0  0  0  0  0  0
  -47.9844  -29.0019    6.3547 C   0  0  0  0  0  0  0  0  0  0  0  0
  -45.4835  -31.1485   -0.1285 C   0  0  0  0  0  0  0  0  0  0  0  0
  -45.4825  -29.0965    6.6002 N   0  0  0  0  0  0  0  0  0  0  0  0
  -44.4409  -29.2750    5.7572 N   0  0  0  0  0  0  0  0  0  0  0  0
  -44.8247  -29.8785    2.0230 N   0  0  0  0  0  0  0  0  0  0  0  0
  -43.3847  -31.3402    1.0217 O   0  0  0  0  0  0  0  0  0  0  0  0
  -47.9805  -28.4955    7.6899 O   0  0  0  0  0  0  0  0  0  0  0  0
  -43.0691  -34.0262   -3.4480 O   0  0  0  0  0  0  0  0  0  0  0  0
  -45.3959  -30.1550   -1.0587 F   0  0  0  0  0  0  0  0  0  0  0  0
  -46.7697  -31.2042    0.3142 F   0  0  0  0  0  0  0  0  0  0  0  0
  -45.8917  -35.8277   -0.3546 H   0  0  0  0  0  0  0  0  0  0  0  0
  -46.3973  -33.6140    0.6522 H   0  0  0  0  0  0  0  0  0  0  0  0
  -44.3401  -35.9896   -2.2863 H   0  0  0  0  0  0  0  0  0  0  0  0
  -43.7873  -31.7118   -2.2059 H   0  0  0  0  0  0  0  0  0  0  0  0
  -47.3174  -30.5092    3.0096 H   0  0  0  0  0  0  0  0  0  0  0  0
  -47.8385  -28.8038    3.2251 H   0  0  0  0  0  0  0  0  0  0  0  0
  -43.3120  -28.7942    3.0301 H   0  0  0  0  0  0  0  0  0  0  0  0
  -43.3131  -30.5643    3.3357 H   0  0  0  0  0  0  0  0  0  0  0  0
  -46.5851  -29.2021    1.0434 H   0  0  0  0  0  0  0  0  0  0  0  0
  -45.7932  -27.9886    2.1050 H   0  0  0  0  0  0  0  0  0  0  0  0
  -41.7725  -33.1050   -4.8082 H   0  0  0  0  0  0  0  0  0  0  0  0
  -43.2097  -32.1366   -4.3358 H   0  0  0  0  0  0  0  0  0  0  0  0
  -41.8495  -32.3470   -3.1816 H   0  0  0  0  0  0  0  0  0  0  0  0
  -48.5246  -28.3009    5.7013 H   0  0  0  0  0  0  0  0  0  0  0  0
  -48.4872  -29.9801    6.3382 H   0  0  0  0  0  0  0  0  0  0  0  0
  -43.4905  -29.2719    6.0682 H   0  0  0  0  0  0  0  0  0  0  0  0
  -48.8749  -28.3995    7.9953 H   0  0  0  0  0  0  0  0  0  0  0  0
  1  2  1  0  0  0  0
  1  3  2  0  0  0  0
  2  6  2  0  0  0  0
  3  7  1  0  0  0  0
  4  6  1  0  0  0  0
  4  7  2  0  0  0  0
  5  8  2  0  0  0  0
  5  9  1  0  0  0  0
  5 11  1  0  0  0  0
  6 16  1  0  0  0  0
  7 22  1  0  0  0  0
  8 12  1  0  0  0  0
  8 18  1  0  0  0  0
  9 15  1  0  0  0  0
  9 17  2  0  0  0  0
 10 16  1  0  0  0  0
 10 19  1  0  0  0  0
 10 20  2  0  0  0  0
 11 13  1  0  0  0  0
 12 19  1  0  0  0  0
 13 19  1  0  0  0  0
 14 22  1  0  0  0  0
 15 21  1  0  0  0  0
 16 23  1  0  0  0  0
 16 24  1  0  0  0  0
 17 18  1  0  0  0  0
  1 25  1  0  0  0  0
  2 26  1  0  0  0  0
  3 27  1  0  0  0  0
  4 28  1  0  0  0  0
 11 29  1  0  0  0  0
 11 30  1  0  0  0  0
 12 31  1  0  0  0  0
 12 32  1  0  0  0  0
 13 33  1  0  0  0  0
 13 34  1  0  0  0  0
 14 35  1  0  0  0  0
 14 36  1  0  0  0  0
 14 37  1  0  0  0  0
 15 38  1  0  0  0  0
 15 39  1  0  0  0  0
 18 40  1  0  0  0  0
 21 41  1  0  0  0  0
M  END
> <POSIT::Probability>
0.25

> <POSIT::Method>
SHAPEFIT

> <ReceptorTitle>
UCSF-P4528-REFINED_LIGAND-BOUND-STATE_A__DU__LA1_A-201(A)

> <OMEGA_C>
8cI1wp68C8KJkUK/L/E2wg+5BsLIY0u+LzkywmkZDMIh/Oy/RwUxwhxqAsIka+i/eaY4wrAj68E3
Z45A06s0wiIFAsKdxz6/msovwgJ3B8JyhxjAmiQzwj2u68GrTI5AzkU6wqpH6cEAW7tAcAAywvWU
9sHOoYM/7uE7wrrQ68F2jUpAL8ovwsRo7cF8skxAITw4wr5n6MG7p/8/b78pwolTA8Kia37ACvA/
wvkD6MFOWctAHe81whQw+cEYmAO+HO41wprF6ME2NdNAf8MxwjMz6sEkO7hAgUwzwjgH78FMeQFA
84ktwqu4+sHqxoI/Aew/wrT248HiE/ZAx0YswssaCMK2q1zAWpU1wn098cGagoe/NBQ7wkSi+cFM
3KA+IJE3wo1PD8IvkbW+35Y5wrt0BsIM+SY/PlwxwlP1D8JkUhLAMCYvwsux/cEXLQ3A+EQ9wuYS
9MHVnEBAqVo/wiNu5sG4aE5AfD8twnpa5sFb7UFAokAtwqaD9MFsfFVAKlc6wu2d6cGrjYU/MCw3
wrro38GXtwZAABcnwntrBMLp3JnAtdYswu2LAMINv4rA12UnwkhjAcJZn0vALBlCwlRo4sFYcbZA
8PJBwlfX78E00spAQ/YtwvMs6sFfLsJA6H9Dwjky48HV2f9A

> <OMEGA_E>
ateWPw==

> <OMEGA_NBR>
    104461

$$$$
CACHE3HI_1706_3
  -OEChem-03092622573D

 41 43  0     0  0  0  0  0  0999 V2000
  -52.4395  -29.3307    7.7049 C   0  0  0  0  0  0  0  0  0  0  0  0
  -53.1058  -30.0307    6.6991 C   0  0  0  0  0  0  0  0  0  0  0  0
  -51.0707  -29.0864    7.5945 C   0  0  0  0  0  0  0  0  0  0  0  0
  -52.4037  -30.4860    5.5830 C   0  0  0  0  0  0  0  0  0  0  0  0
  -48.1411  -29.0932    5.2929 C   0  0  0  0  0  0  0  0  0  0  0  0
  -50.3686  -29.5417    6.4783 C   0  0  0  0  0  0  0  0  0  0  0  0
  -51.0349  -30.2417    5.4725 C   0  0  0  0  0  0  0  0  0  0  0  0
  -48.9558  -29.2779    6.3834 C   0  0  0  0  0  0  0  0  0  0  0  0
  -46.8635  -28.8746    5.8422 C   0  0  0  0  0  0  0  0  0  0  0  0
  -45.6095  -28.6205    5.1167 C   0  0  0  0  0  0  0  0  0  0  0  0
  -46.8753  -28.7876    2.9302 C   0  0  0  0  0  0  0  0  0  0  0  0
  -44.4584  -28.2407    2.9634 C   0  0  0  0  0  0  0  0  0  0  0  0
  -46.6798  -28.3231    1.4957 C   0  0  0  0  0  0  0  0  0  0  0  0
  -44.3716  -29.0308    1.6435 C   0  0  0  0  0  0  0  0  0  0  0  0
  -44.0457  -30.5051    1.9118 C   0  0  0  0  0  0  0  0  0  0  0  0
  -43.2801  -28.4270    0.7558 C   0  0  0  0  0  0  0  0  0  0  0  0
  -46.8618  -28.9160    7.1772 N   0  0  0  0  0  0  0  0  0  0  0  0
  -48.1484  -29.1629    7.4766 N   0  0  0  0  0  0  0  0  0  0  0  0
  -45.6585  -28.5859    3.7216 N   0  0  0  0  0  0  0  0  0  0  0  0
  -44.6007  -28.4541    5.7997 O   0  0  0  0  0  0  0  0  0  0  0  0
  -45.5889  -29.0018    0.8804 O   0  0  0  0  0  0  0  0  0  0  0  0
  -50.3738  -30.6976    4.3703 O   0  0  0  0  0  0  0  0  0  0  0  0
  -45.0032  -31.0475    2.6741 F   0  0  0  0  0  0  0  0  0  0  0  0
  -42.8706  -30.5993    2.5459 F   0  0  0  0  0  0  0  0  0  0  0  0
  -43.9761  -31.1701    0.7521 F   0  0  0  0  0  0  0  0  0  0  0  0
  -42.0995  -28.4866    1.3852 F   0  0  0  0  0  0  0  0  0  0  0  0
  -43.5712  -27.1478    0.4869 F   0  0  0  0  0  0  0  0  0  0  0  0
  -43.2007  -29.1111   -0.3929 F   0  0  0  0  0  0  0  0  0  0  0  0
  -52.9867  -28.9758    8.5734 H   0  0  0  0  0  0  0  0  0  0  0  0
  -54.1716  -30.2212    6.7851 H   0  0  0  0  0  0  0  0  0  0  0  0
  -50.5663  -28.5398    8.3877 H   0  0  0  0  0  0  0  0  0  0  0  0
  -52.9295  -31.0305    4.8033 H   0  0  0  0  0  0  0  0  0  0  0  0
  -48.4296  -29.1139    4.2513 H   0  0  0  0  0  0  0  0  0  0  0  0
  -47.6618  -28.1933    3.4169 H   0  0  0  0  0  0  0  0  0  0  0  0
  -47.1925  -29.8378    2.9543 H   0  0  0  0  0  0  0  0  0  0  0  0
  -43.5427  -28.3796    3.5541 H   0  0  0  0  0  0  0  0  0  0  0  0
  -44.5390  -27.1621    2.7541 H   0  0  0  0  0  0  0  0  0  0  0  0
  -47.5904  -28.4547    0.9022 H   0  0  0  0  0  0  0  0  0  0  0  0
  -46.4465  -27.2534    1.4867 H   0  0  0  0  0  0  0  0  0  0  0  0
  -48.4046  -29.2407    8.4533 H   0  0  0  0  0  0  0  0  0  0  0  0
  -51.0097  -31.1555    3.7923 H   0  0  0  0  0  0  0  0  0  0  0  0
  1  2  1  0  0  0  0
  1  3  2  0  0  0  0
  2  4  2  0  0  0  0
  3  6  1  0  0  0  0
  4  7  1  0  0  0  0
  5  8  2  0  0  0  0
  5  9  1  0  0  0  0
  6  7  2  0  0  0  0
  6  8  1  0  0  0  0
  7 22  1  0  0  0  0
  8 18  1  0  0  0  0
  9 10  1  0  0  0  0
  9 17  2  0  0  0  0
 10 19  1  0  0  0  0
 10 20  2  0  0  0  0
 11 13  1  0  0  0  0
 11 19  1  0  0  0  0
 12 14  1  0  0  0  0
 12 19  1  0  0  0  0
 13 21  1  0  0  0  0
 14 15  1  0  0  0  0
 14 16  1  0  0  0  0
 14 21  1  0  0  0  0
 15 23  1  0  0  0  0
 15 24  1  0  0  0  0
 15 25  1  0  0  0  0
 16 26  1  0  0  0  0
 16 27  1  0  0  0  0
 16 28  1  0  0  0  0
 17 18  1  0  0  0  0
  1 29  1  0  0  0  0
  2 30  1  0  0  0  0
  3 31  1  0  0  0  0
  4 32  1  0  0  0  0
  5 33  1  0  0  0  0
 11 34  1  0  0  0  0
 11 35  1  0  0  0  0
 12 36  1  0  0  0  0
 12 37  1  0  0  0  0
 13 38  1  0  0  0  0
 13 39  1  0  0  0  0
 18 40  1  0  0  0  0
 22 41  1  0  0  0  0
M  END
> <POSIT::Probability>
0.24

> <POSIT::Method>
FRED

> <ReceptorTitle>
UCSF-P4528-REFINED_LIGAND-BOUND-STATE_A__DU__LA1_A-201(A)

> <OMEGA_C>
AsJRwl+l6sHZjvZAW2xUwvE+8MEWX9ZAYkhMwvyw6MHdBfNAa51Rwmrj88Gtp7JAgJBAwvK+6MHE
X6lAc3lJwnZV7MF0Ts9AviNMwv3u8cHYHq9Ax9JDwhc56sEmRcxAMHQ7wkD/5sGL87pALXA2wtH2
5MEYvKNAU4A7wv1M5sFkiDtAWtUxwvHs4cFVqD1AFrg6wrGV4sEOdL8/eXwxwhg/6MFaXdI/1i4w
wnMK9MHQtvQ/3R4two1q48HcekE/hnI7wvJT58GOq+VA+JdAwqhN6cFhQO9AWaI2wuqv5MFmLm5A
IWcywgyi48HHlrlAEFs2wq0D6ME4YGE/vH5JwqmU9cHW2YtAQwM0wlph+MF3JCtAdnsrwmXL9MGw
7yJAh+cvwktc+cHAiEA/7GUowqjk48HATrE/6kguwqwu2cFARfk+ic0swnrj6MG4JMm+YfJTwnnO
58GbLAlBvq9YwvvE8cGgH9lA40NKwmxR5MEVNAZB1LdTwoY++MEHtZlA3bdBwkLp6MHUCohAuqU+
wvaL4cHmrlpAJMU8wtGz7sFQEz1AuysuwmIJ48Ebd2NA9icywghM2cH0QzBAjFw+wjmj48GY9GY/
LMk5wgcH2sFATL4/T55Bwgvt6cGOQAdB5AlMwnw++cFItHJA

> <OMEGA_E>
0FcSwQ==

> <OMEGA_NBR>
    105771

$$$$
CACHE3HI_1706_38
  -OEChem-03092622573D

 47 50  0     0  0  0  0  0  0999 V2000
  -45.8533  -27.8833   -0.1465 C   0  0  0  0  0  0  0  0  0  0  0  0
  -45.3563  -27.4796    1.0928 C   0  0  0  0  0  0  0  0  0  0  0  0
  -45.3802  -29.0539   -0.7391 C   0  0  0  0  0  0  0  0  0  0  0  0
  -49.4915  -28.7883    5.5589 C   0  0  0  0  0  0  0  0  0  0  0  0
  -44.3868  -28.2464    1.7394 C   0  0  0  0  0  0  0  0  0  0  0  0
  -43.9138  -29.4171    1.1467 C   0  0  0  0  0  0  0  0  0  0  0  0
  -44.4107  -29.8208   -0.0926 C   0  0  0  0  0  0  0  0  0  0  0  0
  -50.5141  -29.0781    6.4615 C   0  0  0  0  0  0  0  0  0  0  0  0
  -48.4171  -28.4534    6.3273 C   0  0  0  0  0  0  0  0  0  0  0  0
  -44.1406  -28.8341    4.1268 C   0  0  0  0  0  0  0  0  0  0  0  0
  -49.9193  -28.9427    4.1599 C   0  0  0  0  0  0  0  0  0  0  0  0
  -51.7714  -29.4669    5.8020 C   0  0  0  0  0  0  0  0  0  0  0  0
  -51.4766  -29.0629    4.3151 C   0  0  0  0  0  0  0  0  0  0  0  0
  -45.7743  -28.9826    6.1311 C   0  0  0  0  0  0  0  0  0  0  0  0
  -46.5999  -28.1475    4.3518 C   0  0  0  0  0  0  0  0  0  0  0  0
  -46.9641  -28.0291    5.8531 C   0  0  0  0  0  0  0  0  0  0  0  0
  -40.9226  -31.0757    0.9442 C   0  0  0  0  0  0  0  0  0  0  0  0
  -43.8690  -27.7961    3.0709 C   0  0  0  0  0  0  0  0  0  0  0  0
  -41.6036  -29.8489    1.5125 C   0  0  0  0  0  0  0  0  0  0  0  0
  -50.1663  -28.9523    7.7347 N   0  0  0  0  0  0  0  0  0  0  0  0
  -48.8681  -28.5654    7.6241 N   0  0  0  0  0  0  0  0  0  0  0  0
  -45.3217  -28.6655    4.7929 N   0  0  0  0  0  0  0  0  0  0  0  0
  -43.3483  -29.7485    4.3459 O   0  0  0  0  0  0  0  0  0  0  0  0
  -42.9667  -30.1606    1.7891 O   0  0  0  0  0  0  0  0  0  0  0  0
  -43.8484  -31.2657   -0.8496 Cl  0  0  0  0  0  0  0  0  0  0  0  0
  -46.6086  -27.2876   -0.6507 H   0  0  0  0  0  0  0  0  0  0  0  0
  -45.7327  -26.5671    1.5476 H   0  0  0  0  0  0  0  0  0  0  0  0
  -45.7781  -29.3556   -1.7048 H   0  0  0  0  0  0  0  0  0  0  0  0
  -49.6510  -28.0897    3.5312 H   0  0  0  0  0  0  0  0  0  0  0  0
  -49.5091  -29.8603    3.7259 H   0  0  0  0  0  0  0  0  0  0  0  0
  -51.9346  -30.5465    5.8789 H   0  0  0  0  0  0  0  0  0  0  0  0
  -52.6442  -28.9353    6.1901 H   0  0  0  0  0  0  0  0  0  0  0  0
  -51.9291  -28.0815    4.1196 H   0  0  0  0  0  0  0  0  0  0  0  0
  -51.9092  -29.7706    3.6010 H   0  0  0  0  0  0  0  0  0  0  0  0
  -45.0967  -28.6581    6.9243 H   0  0  0  0  0  0  0  0  0  0  0  0
  -46.0186  -30.0426    6.2493 H   0  0  0  0  0  0  0  0  0  0  0  0
  -47.1675  -28.8793    3.7693 H   0  0  0  0  0  0  0  0  0  0  0  0
  -46.5331  -27.2007    3.8104 H   0  0  0  0  0  0  0  0  0  0  0  0
  -46.7353  -26.9742    6.2406 H   0  0  0  0  0  0  0  0  0  0  0  0
  -40.9534  -31.9047    1.6569 H   0  0  0  0  0  0  0  0  0  0  0  0
  -41.4076  -31.3903    0.0144 H   0  0  0  0  0  0  0  0  0  0  0  0
  -39.8779  -30.8582    0.7003 H   0  0  0  0  0  0  0  0  0  0  0  0
  -44.3472  -26.8674    3.3834 H   0  0  0  0  0  0  0  0  0  0  0  0
  -42.7921  -27.6277    3.0358 H   0  0  0  0  0  0  0  0  0  0  0  0
  -41.5694  -29.0237    0.7951 H   0  0  0  0  0  0  0  0  0  0  0  0
  -41.1184  -29.5358    2.4422 H   0  0  0  0  0  0  0  0  0  0  0  0
  -48.3473  -28.3948    8.4751 H   0  0  0  0  0  0  0  0  0  0  0  0
  1  2  1  0  0  0  0
  1  3  2  0  0  0  0
  2  5  2  0  0  0  0
  3  7  1  0  0  0  0
  4  8  1  0  0  0  0
  4  9  2  0  0  0  0
  4 11  1  0  0  0  0
  5  6  1  0  0  0  0
  5 18  1  0  0  0  0
  6  7  2  0  0  0  0
  6 24  1  0  0  0  0
  7 25  1  0  0  0  0
  8 12  1  0  0  0  0
  8 20  2  0  0  0  0
  9 16  1  0  0  0  0
  9 21  1  0  0  0  0
 10 18  1  0  0  0  0
 10 22  1  0  0  0  0
 10 23  2  0  0  0  0
 11 13  1  0  0  0  0
 12 13  1  0  0  0  0
 14 16  1  0  0  0  0
 14 22  1  0  0  0  0
 15 16  1  0  0  0  0
 15 22  1  0  0  0  0
 17 19  1  0  0  0  0
 19 24  1  0  0  0  0
 20 21  1  0  0  0  0
  1 26  1  0  0  0  0
  2 27  1  0  0  0  0
  3 28  1  0  0  0  0
 11 29  1  0  0  0  0
 11 30  1  0  0  0  0
 12 31  1  0  0  0  0
 12 32  1  0  0  0  0
 13 33  1  0  0  0  0
 13 34  1  0  0  0  0
 14 35  1  0  0  0  0
 14 36  1  0  0  0  0
 15 37  1  0  0  0  0
 15 38  1  0  0  0  0
 16 39  1  0  0  0  0
 17 40  1  0  0  0  0
 17 41  1  0  0  0  0
 17 42  1  0  0  0  0
 18 43  1  0  0  0  0
 18 44  1  0  0  0  0
 19 45  1  0  0  0  0
 19 46  1  0  0  0  0
 21 47  1  0  0  0  0
M  END
> <POSIT::Probability>
0.18

> <POSIT::Method>
HYBRID

> <ReceptorTitle>
UCSF-P4528-REFINED_LIGAND-BOUND-STATE_A__DU__LA1_A-201(A)

> <OMEGA_C>
vGk3wvQQ38G4+RW+2mw1wjLW28H44Is/XIU1wnBu6MHEOD2/UPdFwnNO5sHg4rFAGIwxwqj44cEX
pN4/uacvwjtW68F7xZI/m6QxwuaQ7sFAlL29ag5Kwgyg6MHuxM5AH6tBwoig48HyeMpAAJAwwiys
5sHYDoRAZ61HwqaK58HIHYVA5BVPwlC868EVqrlAFuhNwr6A6MFIFYpA4xg3wmHc58GgMcRAS2Y6
wgAu4cE4QotAMds7wos74MHjTLtAwrAjwgub+MEQt3E/5nkvwnte3sH4iERAHWomwnXK7sGImME/
TapIwjqe58GagvdA9nhDwuiF5MFB+PNAY0k1wtxS5cEwX5lAsmQtwuv87cHhEYtA6d0rwvZI8cF+
AOU/wmQvwjIg+sFcgVm/OG86wvZM2sHUkia/TO42wluJ1MEjF8Y/zRw3wl3Y6sHUNdq/rJpGwsK3
4MHR/2FAXQlGwvHh7sGAdG5A/rxPwjxf9MHsH7xAsJNSwmh758ElFcZAYrdPwuCm4MFp04NAEaNP
wioq7sFCd2ZABmM0wtRD5cFGlN1AFRM4wkZX8MHe+cdAeqs8wuUI58F+PHFA5yE6wvia2cEg3XNA
5/A6wh3L18FVs8dATtAjwuA8/8FuFNQ/X6Elwk8f+8EAnGw87YIfwpjd9sEMRDM/jWMxwlvw1sG8
iVhAFSsrwngF3cFYSkJABUcmwqEw6MG8iks/P3kkwmZJ7MFcTRxAmWNBwnwo48HWmQdB

> <OMEGA_E>
eGgNwQ==

> <OMEGA_NBR>
    107210

$$$$
CACHE3HI_1706_4
  -OEChem-03092622573D

 46 49  0     0  0  0  0  0  0999 V2000
  -45.6482  -29.1232    5.1262 C   0  0  0  0  0  0  0  0  0  0  0  0
  -44.2858  -29.2675    5.0351 C   0  0  0  0  0  0  0  0  0  0  0  0
  -45.9229  -29.2198    6.5112 C   0  0  0  0  0  0  0  0  0  0  0  0
  -44.4025  -29.2409   -0.7666 C   0  0  0  0  0  0  0  0  0  0  0  0
  -43.4488  -30.9917    0.8293 C   0  0  0  0  0  0  0  0  0  0  0  0
  -43.3419  -28.4960   -0.4328 C   0  0  0  0  0  0  0  0  0  0  0  0
  -42.4370  -30.1363    1.0695 C   0  0  0  0  0  0  0  0  0  0  0  0
  -44.5202  -30.5836   -0.1295 C   0  0  0  0  0  0  0  0  0  0  0  0
  -43.4403  -29.2502    3.8858 C   0  0  0  0  0  0  0  0  0  0  0  0
  -46.6849  -28.8933    4.0898 C   0  0  0  0  0  0  0  0  0  0  0  0
  -47.2892  -29.1444    7.0887 C   0  0  0  0  0  0  0  0  0  0  0  0
  -48.2730  -28.5262    6.0795 C   0  0  0  0  0  0  0  0  0  0  0  0
  -40.0472  -32.1984    2.3871 C   0  0  0  0  0  0  0  0  0  0  0  0
  -41.5380  -31.9276    2.6499 C   0  0  0  0  0  0  0  0  0  0  0  0
  -40.0829  -31.0906    1.3206 C   0  0  0  0  0  0  0  0  0  0  0  0
  -41.3552  -30.5114    2.0174 C   0  0  0  0  0  0  0  0  0  0  0  0
  -48.0925  -29.0903    4.6653 C   0  0  0  0  0  0  0  0  0  0  0  0
  -41.0678  -29.4112    3.0246 C   0  0  0  0  0  0  0  0  0  0  0  0
  -44.8243  -29.4172    7.2426 N   0  0  0  0  0  0  0  0  0  0  0  0
  -43.8458  -29.4391    6.3172 N   0  0  0  0  0  0  0  0  0  0  0  0
  -42.3813  -28.9062    0.4491 N   0  0  0  0  0  0  0  0  0  0  0  0
  -42.0529  -29.4253    4.0819 N   0  0  0  0  0  0  0  0  0  0  0  0
  -45.4612  -31.3272   -0.3844 O   0  0  0  0  0  0  0  0  0  0  0  0
  -43.9029  -29.0657    2.7311 O   0  0  0  0  0  0  0  0  0  0  0  0
  -48.3892  -30.4178    4.6779 F   0  0  0  0  0  0  0  0  0  0  0  0
  -48.9960  -28.5064    3.8355 F   0  0  0  0  0  0  0  0  0  0  0  0
  -45.1602  -28.9121   -1.4652 H   0  0  0  0  0  0  0  0  0  0  0  0
  -43.5242  -31.9658    1.2977 H   0  0  0  0  0  0  0  0  0  0  0  0
  -43.1730  -27.5090   -0.8447 H   0  0  0  0  0  0  0  0  0  0  0  0
  -46.5883  -27.8709    3.7056 H   0  0  0  0  0  0  0  0  0  0  0  0
  -46.5370  -29.5761    3.2456 H   0  0  0  0  0  0  0  0  0  0  0  0
  -47.6216  -30.1576    7.3453 H   0  0  0  0  0  0  0  0  0  0  0  0
  -47.2904  -28.5537    8.0115 H   0  0  0  0  0  0  0  0  0  0  0  0
  -49.2995  -28.7022    6.4208 H   0  0  0  0  0  0  0  0  0  0  0  0
  -48.1376  -27.4375    6.0466 H   0  0  0  0  0  0  0  0  0  0  0  0
  -39.3997  -31.9687    3.2407 H   0  0  0  0  0  0  0  0  0  0  0  0
  -39.8051  -33.1995    2.0209 H   0  0  0  0  0  0  0  0  0  0  0  0
  -42.1993  -32.6015    2.0904 H   0  0  0  0  0  0  0  0  0  0  0  0
  -41.8360  -31.9528    3.7026 H   0  0  0  0  0  0  0  0  0  0  0  0
  -39.2043  -30.4384    1.2996 H   0  0  0  0  0  0  0  0  0  0  0  0
  -40.2458  -31.4782    0.3072 H   0  0  0  0  0  0  0  0  0  0  0  0
  -40.0719  -29.5563    3.4555 H   0  0  0  0  0  0  0  0  0  0  0  0
  -41.0783  -28.4372    2.5245 H   0  0  0  0  0  0  0  0  0  0  0  0
  -42.8938  -29.5752    6.6338 H   0  0  0  0  0  0  0  0  0  0  0  0
  -41.6056  -28.2872    0.6486 H   0  0  0  0  0  0  0  0  0  0  0  0
  -41.7086  -29.5082    5.0326 H   0  0  0  0  0  0  0  0  0  0  0  0
  1  2  2  0  0  0  0
  1  3  1  0  0  0  0
  1 10  1  0  0  0  0
  2  9  1  0  0  0  0
  2 20  1  0  0  0  0
  3 11  1  0  0  0  0
  3 19  2  0  0  0  0
  4  6  2  0  0  0  0
  4  8  1  0  0  0  0
  5  7  2  0  0  0  0
  5  8  1  0  0  0  0
  6 21  1  0  0  0  0
  7 16  1  0  0  0  0
  7 21  1  0  0  0  0
  8 23  2  0  0  0  0
  9 22  1  0  0  0  0
  9 24  2  0  0  0  0
 10 17  1  0  0  0  0
 11 12  1  0  0  0  0
 12 17  1  0  0  0  0
 13 14  1  0  0  0  0
 13 15  1  0  0  0  0
 14 16  1  0  0  0  0
 15 16  1  0  0  0  0
 16 18  1  0  0  0  0
 17 25  1  0  0  0  0
 17 26  1  0  0  0  0
 18 22  1  0  0  0  0
 19 20  1  0  0  0  0
  4 27  1  0  0  0  0
  5 28  1  0  0  0  0
  6 29  1  0  0  0  0
 10 30  1  0  0  0  0
 10 31  1  0  0  0  0
 11 32  1  0  0  0  0
 11 33  1  0  0  0  0
 12 34  1  0  0  0  0
 12 35  1  0  0  0  0
 13 36  1  0  0  0  0
 13 37  1  0  0  0  0
 14 38  1  0  0  0  0
 14 39  1  0  0  0  0
 15 40  1  0  0  0  0
 15 41  1  0  0  0  0
 18 42  1  0  0  0  0
 18 43  1  0  0  0  0
 20 44  1  0  0  0  0
 21 45  1  0  0  0  0
 22 46  1  0  0  0  0
M  END
> <POSIT::Probability>
0.18

> <POSIT::Method>
FRED

> <ReceptorTitle>
UCSF-P4528-REFINED_LIGAND-BOUND-STATE_A__DU__LA1_A-201(A)

> <OMEGA_C>
uJc2wmr86ME4CqRAnyQxwtoj6sHiH6FAErE3wifC6cGAW9BAJpwxwlzt6cGoPES/jcstwgnv98EE
S1Q/GV4twtf348GAl92+d78pwgsX8cEI5og/rxQywlCr9MFwmgS+1cItwmEA6sE5sXhAS706wn4l
58FI34JAMSg9wsEn6cGU1uJAiBdBwqk15MEqi8JATjAgwjHLAMLrxRhA8iYmwqRr/8ENmClA5lQg
wpG5+MG+Cqk/t2slwkoX9MEEHQFAtV5Awta46MGASpVAdkUkwhJK68GVkkFAH0wzwoFW68GEw+dA
FGIvwlGD68GWJspAgIYpwt0/58Gw7OU+LzYowhNn68E0n4JAPdg1whSe+sEYy8S+lJwvwoWG6MFy
yi5AkY5BwppX88GssZVA5ftDwggN5MGFeXVAAaQ0wvNL58Gwi7u/vhguwgy6/8GcGqY/ILEswm4S
3MEsQFi/X1o6wq333sHYJ21A4SU6wsqb7MGPt09AeXw+wsRC8cHCDOtAWCk9whBu5MHwLgBBrzJF
wiue5cEmd81A5oxAwvN/28FsfcFARZkdwtq//8HiZk9AeTgfwkjMBML4VQFAC8wowvtnAsIoyQVA
Dlgnwl2f/8Hi92xAP9Ecws2B88FuWqY/qPsgwmTT+8HQR50+mkkgwjlz7MGUJl1AL1Akwl9/48Gh
kSFAOpMrwgGa7ME2SNRAK2wmwkBM4sF8CiY/oNUmws0Q7MFqC6FA

> <OMEGA_E>
rDxhwQ==

> <OMEGA_NBR>
    108625

$$$$
CACHE3HI_1706_40
  -OEChem-03092622573D

 43 46  0     0  0  0  0  0  0999 V2000
  -44.7897  -32.0954    1.6443 C   0  0  0  0  0  0  0  0  0  0  0  0
  -45.1376  -32.5962    0.3899 C   0  0  0  0  0  0  0  0  0  0  0  0
  -44.0351  -30.7229   -0.6651 C   0  0  0  0  0  0  0  0  0  0  0  0
  -44.0642  -30.9082    1.7440 C   0  0  0  0  0  0  0  0  0  0  0  0
  -44.7605  -31.9101   -0.7647 C   0  0  0  0  0  0  0  0  0  0  0  0
  -43.6872  -30.2221    0.5894 C   0  0  0  0  0  0  0  0  0  0  0  0
  -48.5442  -28.6556    5.0731 C   0  0  0  0  0  0  0  0  0  0  0  0
  -48.8585  -28.7275    6.3701 C   0  0  0  0  0  0  0  0  0  0  0  0
  -47.1768  -28.8746    4.6512 C   0  0  0  0  0  0  0  0  0  0  0  0
  -46.2108  -29.1594    5.5467 C   0  0  0  0  0  0  0  0  0  0  0  0
  -46.5698  -29.2352    7.0060 C   0  0  0  0  0  0  0  0  0  0  0  0
  -43.7104  -30.4020    3.0790 C   0  0  0  0  0  0  0  0  0  0  0  0
  -46.8812  -28.7567    3.1814 C   0  0  0  0  0  0  0  0  0  0  0  0
  -44.7788  -29.4328    5.1753 C   0  0  0  0  0  0  0  0  0  0  0  0
  -44.7333  -33.8531   -2.4672 C   0  0  0  0  0  0  0  0  0  0  0  0
  -44.0497  -32.6938   -3.1222 C   0  0  0  0  0  0  0  0  0  0  0  0
  -45.3869  -28.5981    2.9101 C   0  0  0  0  0  0  0  0  0  0  0  0
  -45.1327  -32.4465   -2.1043 C   0  0  0  0  0  0  0  0  0  0  0  0
  -42.9089  -28.9490    0.6690 C   0  0  0  0  0  0  0  0  0  0  0  0
  -47.9021  -29.0072    7.3100 N   0  0  0  0  0  0  0  0  0  0  0  0
  -44.6041  -29.5336    3.7166 N   0  0  0  0  0  0  0  0  0  0  0  0
  -45.7184  -29.4849    7.8569 O   0  0  0  0  0  0  0  0  0  0  0  0
  -42.6405  -30.7933    3.5437 O   0  0  0  0  0  0  0  0  0  0  0  0
  -42.6204  -28.4072   -0.5499 F   0  0  0  0  0  0  0  0  0  0  0  0
  -41.7074  -29.1098    1.2940 F   0  0  0  0  0  0  0  0  0  0  0  0
  -43.5538  -27.9625    1.3572 F   0  0  0  0  0  0  0  0  0  0  0  0
  -45.0900  -32.6389    2.5365 H   0  0  0  0  0  0  0  0  0  0  0  0
  -45.7032  -33.5222    0.3229 H   0  0  0  0  0  0  0  0  0  0  0  0
  -43.7412  -30.1878   -1.5650 H   0  0  0  0  0  0  0  0  0  0  0  0
  -49.3022  -28.4331    4.3304 H   0  0  0  0  0  0  0  0  0  0  0  0
  -49.8636  -28.5725    6.7408 H   0  0  0  0  0  0  0  0  0  0  0  0
  -47.2356  -29.6464    2.6467 H   0  0  0  0  0  0  0  0  0  0  0  0
  -47.4242  -27.8938    2.7760 H   0  0  0  0  0  0  0  0  0  0  0  0
  -44.1366  -28.6414    5.5725 H   0  0  0  0  0  0  0  0  0  0  0  0
  -44.4541  -30.3867    5.6063 H   0  0  0  0  0  0  0  0  0  0  0  0
  -45.4286  -34.4316   -3.0637 H   0  0  0  0  0  0  0  0  0  0  0  0
  -44.1608  -34.4392   -1.7582 H   0  0  0  0  0  0  0  0  0  0  0  0
  -43.0182  -32.5001   -2.8529 H   0  0  0  0  0  0  0  0  0  0  0  0
  -44.2842  -32.4900   -4.1602 H   0  0  0  0  0  0  0  0  0  0  0  0
  -45.1617  -28.8134    1.8581 H   0  0  0  0  0  0  0  0  0  0  0  0
  -45.0815  -27.5641    3.1008 H   0  0  0  0  0  0  0  0  0  0  0  0
  -46.0849  -32.1036   -2.4896 H   0  0  0  0  0  0  0  0  0  0  0  0
  -48.1855  -29.0500    8.2846 H   0  0  0  0  0  0  0  0  0  0  0  0
  1  2  1  0  0  0  0
  1  4  2  0  0  0  0
  2  5  2  0  0  0  0
  3  5  1  0  0  0  0
  3  6  2  0  0  0  0
  4  6  1  0  0  0  0
  4 12  1  0  0  0  0
  5 18  1  0  0  0  0
  6 19  1  0  0  0  0
  7  8  2  0  0  0  0
  7  9  1  0  0  0  0
  8 20  1  0  0  0  0
  9 10  2  0  0  0  0
  9 13  1  0  0  0  0
 10 11  1  0  0  0  0
 10 14  1  0  0  0  0
 11 20  1  0  0  0  0
 11 22  2  0  0  0  0
 12 21  1  0  0  0  0
 12 23  2  0  0  0  0
 13 17  1  0  0  0  0
 14 21  1  0  0  0  0
 15 16  1  0  0  0  0
 15 18  1  0  0  0  0
 16 18  1  0  0  0  0
 17 21  1  0  0  0  0
 19 24  1  0  0  0  0
 19 25  1  0  0  0  0
 19 26  1  0  0  0  0
  1 27  1  0  0  0  0
  2 28  1  0  0  0  0
  3 29  1  0  0  0  0
  7 30  1  0  0  0  0
  8 31  1  0  0  0  0
 13 32  1  0  0  0  0
 13 33  1  0  0  0  0
 14 34  1  0  0  0  0
 14 35  1  0  0  0  0
 15 36  1  0  0  0  0
 15 37  1  0  0  0  0
 16 38  1  0  0  0  0
 16 39  1  0  0  0  0
 17 40  1  0  0  0  0
 17 41  1  0  0  0  0
 18 42  1  0  0  0  0
 20 43  1  0  0  0  0
M  END
> <POSIT::Probability>
0.33

> <POSIT::Method>
HYBRID

> <ReceptorTitle>
UCSF-P4528-REFINED_LIGAND-BOUND-STATE_A__DU__LA1_A-201(A)

> <OMEGA_C>
nSgzwqdhAMLkedI/7Iw0wo5iAsLImsc+7yMwwpLI9cGYQSq/x0EwwhFE98FMOt8/zQozwuVH/8Fq
xEO/p78uwtzG8cHQ4hY/Qi1Cwpg+5cGoVqJAD29Dwt7R5cGQ18tAErU8wkf/5sE91pRA0Nc4wmRG
6cFlfrFAdEc6wrXh6cFVMeBAedcuwl4388H9DkVAT4Y7wsgN5sGBm0tAgB0zwl5268Gmm6VA5O4y
woxpB8JZ5h3A3DIwwnTGAsJ30UfANow1wtvI5MFCPzpA4Ic0wivJAcKirQbAs6IrwpyX58FcQCs/
tJs/wtcO6MHA6+lAnWoywsRE7MEj3W1Aqt82wiDh68GKa/tA3I8qwq9Y9sHky2JAVHsqwghC48Go
wwy/aNQmwt7g6ME8o6U/DjcuwiSz38F8ua0/NFw0wj6OAsLKViJAFdA2wrQWBsKIV6U++/YuwqCA
8cH0Usi/cDVFwhR348H6kopAVXRHwmqU5MHFtNdAR/E8wswr7cEGYylAW7I9wogm38EMqjFA3Isw
wn0h5cGGUbJAANExwg4Y88GuZrNA6rY1wuy5CcJvFETAqqQwwrTBCcLMDOG/mhIswhQAAsKdlTbA
ASMxws31AcI9IIXAl6U0wtCB5sG61O0/d1M0wjqD3ME2c0ZA51Y4whZqAML+VR/A/71AwlJm6MGi
jQRB

> <OMEGA_E>
anUjwQ==

> <OMEGA_NBR>
    109983

$$$$
CACHE3HI_1706_45
  -OEChem-03092622573D

 45 47  0     0  0  0  0  0  0999 V2000
  -40.1767  -31.1287    1.5336 C   0  0  0  0  0  0  0  0  0  0  0  0
  -44.3554  -25.4353   -0.1549 C   0  0  0  0  0  0  0  0  0  0  0  0
  -40.9649  -31.1879    2.6985 C   0  0  0  0  0  0  0  0  0  0  0  0
  -41.0724  -30.8607    0.5271 C   0  0  0  0  0  0  0  0  0  0  0  0
  -43.5972  -24.8516   -1.1875 C   0  0  0  0  0  0  0  0  0  0  0  0
  -43.4356  -26.1227    0.5991 C   0  0  0  0  0  0  0  0  0  0  0  0
  -43.8163  -28.9260    0.3328 C   0  0  0  0  0  0  0  0  0  0  0  0
  -45.3225  -31.3534   -0.7166 C   0  0  0  0  0  0  0  0  0  0  0  0
  -44.9253  -31.2892    0.7683 C   0  0  0  0  0  0  0  0  0  0  0  0
  -43.8340  -31.1765   -1.0592 C   0  0  0  0  0  0  0  0  0  0  0  0
  -43.6501  -30.4786    0.3366 C   0  0  0  0  0  0  0  0  0  0  0  0
  -45.6337  -23.7799   -2.2112 C   0  0  0  0  0  0  0  0  0  0  0  0
  -43.7828  -24.6306   -3.6894 C   0  0  0  0  0  0  0  0  0  0  0  0
  -43.4768  -22.5525   -2.3593 C   0  0  0  0  0  0  0  0  0  0  0  0
  -43.5759  -26.9423    1.8136 C   0  0  0  0  0  0  0  0  0  0  0  0
  -44.1058  -23.9641   -2.3349 C   0  0  0  0  0  0  0  0  0  0  0  0
  -42.2608  -30.9744    2.4560 N   0  0  0  0  0  0  0  0  0  0  0  0
  -42.2966  -25.1424   -1.1002 N   0  0  0  0  0  0  0  0  0  0  0  0
  -42.2297  -25.9167   -0.0039 N   0  0  0  0  0  0  0  0  0  0  0  0
  -42.2945  -30.7786    1.1269 N   0  0  0  0  0  0  0  0  0  0  0  0
  -43.4865  -28.3638    1.5522 N   0  0  0  0  0  0  0  0  0  0  0  0
  -44.2151  -28.3185   -0.6578 O   0  0  0  0  0  0  0  0  0  0  0  0
  -39.1095  -31.2626    1.4359 H   0  0  0  0  0  0  0  0  0  0  0  0
  -45.4198  -25.3681    0.0190 H   0  0  0  0  0  0  0  0  0  0  0  0
  -40.6487  -31.3786    3.7140 H   0  0  0  0  0  0  0  0  0  0  0  0
  -40.9428  -30.7257   -0.5379 H   0  0  0  0  0  0  0  0  0  0  0  0
  -45.7782  -32.2907   -1.0454 H   0  0  0  0  0  0  0  0  0  0  0  0
  -45.9540  -30.5185   -1.0411 H   0  0  0  0  0  0  0  0  0  0  0  0
  -45.6305  -30.7445    1.4069 H   0  0  0  0  0  0  0  0  0  0  0  0
  -44.7516  -32.2780    1.2165 H   0  0  0  0  0  0  0  0  0  0  0  0
  -43.3057  -32.1292   -1.2075 H   0  0  0  0  0  0  0  0  0  0  0  0
  -43.6384  -30.5392   -1.9295 H   0  0  0  0  0  0  0  0  0  0  0  0
  -46.0224  -23.1493   -3.0195 H   0  0  0  0  0  0  0  0  0  0  0  0
  -46.1538  -24.7442   -2.2614 H   0  0  0  0  0  0  0  0  0  0  0  0
  -45.9196  -23.3119   -1.2625 H   0  0  0  0  0  0  0  0  0  0  0  0
  -44.1359  -24.0165   -4.5264 H   0  0  0  0  0  0  0  0  0  0  0  0
  -42.7026  -24.7716   -3.8122 H   0  0  0  0  0  0  0  0  0  0  0  0
  -44.2566  -25.6122   -3.7916 H   0  0  0  0  0  0  0  0  0  0  0  0
  -43.8703  -21.9596   -3.1931 H   0  0  0  0  0  0  0  0  0  0  0  0
  -42.3883  -22.5983   -2.4824 H   0  0  0  0  0  0  0  0  0  0  0  0
  -43.6938  -21.9972   -1.4390 H   0  0  0  0  0  0  0  0  0  0  0  0
  -42.7974  -26.7103    2.5641 H   0  0  0  0  0  0  0  0  0  0  0  0
  -44.5433  -26.7791    2.3242 H   0  0  0  0  0  0  0  0  0  0  0  0
  -41.3238  -26.2714    0.2767 H   0  0  0  0  0  0  0  0  0  0  0  0
  -43.1944  -28.9631    2.3166 H   0  0  0  0  0  0  0  0  0  0  0  0
  1  3  1  0  0  0  0
  1  4  2  0  0  0  0
  2  5  1  0  0  0  0
  2  6  2  0  0  0  0
  3 17  2  0  0  0  0
  4 20  1  0  0  0  0
  5 16  1  0  0  0  0
  5 18  2  0  0  0  0
  6 15  1  0  0  0  0
  6 19  1  0  0  0  0
  7 11  1  0  0  0  0
  7 21  1  0  0  0  0
  7 22  2  0  0  0  0
  8  9  1  0  0  0  0
  8 10  1  0  0  0  0
  9 11  1  0  0  0  0
 10 11  1  0  0  0  0
 11 20  1  0  0  0  0
 12 16  1  0  0  0  0
 13 16  1  0  0  0  0
 14 16  1  0  0  0  0
 15 21  1  0  0  0  0
 17 20  1  0  0  0  0
 18 19  1  0  0  0  0
  1 23  1  0  0  0  0
  2 24  1  0  0  0  0
  3 25  1  0  0  0  0
  4 26  1  0  0  0  0
  8 27  1  0  0  0  0
  8 28  1  0  0  0  0
  9 29  1  0  0  0  0
  9 30  1  0  0  0  0
 10 31  1  0  0  0  0
 10 32  1  0  0  0  0
 12 33  1  0  0  0  0
 12 34  1  0  0  0  0
 12 35  1  0  0  0  0
 13 36  1  0  0  0  0
 13 37  1  0  0  0  0
 13 38  1  0  0  0  0
 14 39  1  0  0  0  0
 14 40  1  0  0  0  0
 14 41  1  0  0  0  0
 15 42  1  0  0  0  0
 15 43  1  0  0  0  0
 19 44  1  0  0  0  0
 21 45  1  0  0  0  0
M  END
> <POSIT::Probability>
0.05

> <POSIT::Method>
FRED

> <ReceptorTitle>
UCSF-P4528-REFINED_LIGAND-BOUND-STATE_A__DU__LA1_A-201(A)

> <OMEGA_C>
6LQgwpAH+cEqTMQ/9msxwpR7y8FwmB6+CtwjwsyA+cGNtCxAHEokwqHi9sFU8gY/hGMuwhrQxsGK
/pe/B74twj370MFoXxk/3EMvwm9o58Hgaqo+O0o1wsnT+sGAcTe/iLMzwjtQ+sEksUQ/AlYvwmxp
+cF8lIe/spkuwjTU88HYUqw+34g2wlU9vsEhhA3AnCEvwoULxcEHH2zAQugtwnhrtMER/xbAsU0u
wuSJ18G4Iug/Xmwwwma2v8H2bhXAFQspwqjL98H0Lh1ArS8pwrcjycHa0oy/NOsownZVz8EA8H27
mi0pwpI69sFMP5A/L/ItwhTp4sG8r8Y/QdwwwjqM4sG8Zii/KnAcwuEZ+sFOzLc/6601wuHxysEA
Tps8S5giwl4H+8FSsm1AYsUjwiPO9cE0tgm/3Rw3wq0pAcLs0IW/5tA3wucl9MHMQYW/nIU2ws30
9cFoFbQ/qAEzwq4cAcLIt5s/BTktwkSEAMKAkJq/wI0uwlJQ9MGM+fa/7RY4wtQxucGyP0HAh504
wif0xcEwuxDAuK03wrx+usHKmaG/MYswwsUhwMFC2JDAa88qwlUsxsHh+3PAvQYxwtblzMFUqnLA
MXsvwiqtr8GAW0zAm40pwmjJtMED3x7AdsYuwjf6r8HiL7i/ijArwp6u1cHWGSRAYCwywoo71sFF
wBRAjEslwukr0sGwqY0+G8cswmC058FwQhRA

> <OMEGA_E>
wOAYwQ==

> <OMEGA_NBR>
    111374

$$$$
CACHE3HI_1706_72
  -OEChem-03092622573D

 42 44  0     0  0  0  0  0  0999 V2000
  -45.9832  -29.0696    5.2322 C   0  0  0  0  0  0  0  0  0  0  0  0
  -44.6369  -29.2994    5.0912 C   0  0  0  0  0  0  0  0  0  0  0  0
  -46.1815  -28.9715    6.6300 C   0  0  0  0  0  0  0  0  0  0  0  0
  -42.9615  -28.6263   -0.3624 C   0  0  0  0  0  0  0  0  0  0  0  0
  -42.2331  -28.6908    0.8754 C   0  0  0  0  0  0  0  0  0  0  0  0
  -43.7160  -29.6615   -0.7417 C   0  0  0  0  0  0  0  0  0  0  0  0
  -42.2889  -29.7722    1.6682 C   0  0  0  0  0  0  0  0  0  0  0  0
  -43.1370  -30.9449    1.2479 C   0  0  0  0  0  0  0  0  0  0  0  0
  -43.8597  -29.4771    3.9078 C   0  0  0  0  0  0  0  0  0  0  0  0
  -47.0661  -28.9183    4.2290 C   0  0  0  0  0  0  0  0  0  0  0  0
  -47.5068  -28.7470    7.2619 C   0  0  0  0  0  0  0  0  0  0  0  0
  -48.5166  -28.2106    6.2318 C   0  0  0  0  0  0  0  0  0  0  0  0
  -48.4458  -28.9613    4.8969 C   0  0  0  0  0  0  0  0  0  0  0  0
  -46.0927  -31.4301   -0.6131 C   0  0  0  0  0  0  0  0  0  0  0  0
  -41.5518  -29.8785    2.9547 C   0  0  0  0  0  0  0  0  0  0  0  0
  -44.6588  -31.9002   -0.4388 C   0  0  0  0  0  0  0  0  0  0  0  0
  -45.0531  -29.1334    7.3238 N   0  0  0  0  0  0  0  0  0  0  0  0
  -44.1320  -29.3284    6.3604 N   0  0  0  0  0  0  0  0  0  0  0  0
  -43.8173  -30.8048    0.0298 N   0  0  0  0  0  0  0  0  0  0  0  0
  -42.4734  -29.7018    4.0538 N   0  0  0  0  0  0  0  0  0  0  0  0
  -43.1934  -31.9409    1.9691 O   0  0  0  0  0  0  0  0  0  0  0  0
  -44.3792  -29.4177    2.7641 O   0  0  0  0  0  0  0  0  0  0  0  0
  -48.8047  -30.2577    5.0995 F   0  0  0  0  0  0  0  0  0  0  0  0
  -49.3668  -28.4403    4.0449 F   0  0  0  0  0  0  0  0  0  0  0  0
  -42.8838  -27.7316   -0.9686 H   0  0  0  0  0  0  0  0  0  0  0  0
  -41.6341  -27.8265    1.1434 H   0  0  0  0  0  0  0  0  0  0  0  0
  -44.2773  -29.6430   -1.6693 H   0  0  0  0  0  0  0  0  0  0  0  0
  -46.9429  -27.9608    3.7090 H   0  0  0  0  0  0  0  0  0  0  0  0
  -47.0005  -29.7112    3.4756 H   0  0  0  0  0  0  0  0  0  0  0  0
  -47.8719  -29.6987    7.6664 H   0  0  0  0  0  0  0  0  0  0  0  0
  -47.4260  -28.0432    8.0976 H   0  0  0  0  0  0  0  0  0  0  0  0
  -49.5288  -28.2843    6.6455 H   0  0  0  0  0  0  0  0  0  0  0  0
  -48.3312  -27.1444    6.0489 H   0  0  0  0  0  0  0  0  0  0  0  0
  -46.1351  -30.6109   -1.3377 H   0  0  0  0  0  0  0  0  0  0  0  0
  -46.5094  -31.0658    0.3320 H   0  0  0  0  0  0  0  0  0  0  0  0
  -46.7329  -32.2394   -0.9806 H   0  0  0  0  0  0  0  0  0  0  0  0
  -41.0714  -30.8585    3.0248 H   0  0  0  0  0  0  0  0  0  0  0  0
  -40.7738  -29.1116    3.0060 H   0  0  0  0  0  0  0  0  0  0  0  0
  -44.6246  -32.7192    0.2870 H   0  0  0  0  0  0  0  0  0  0  0  0
  -44.2734  -32.2794   -1.3909 H   0  0  0  0  0  0  0  0  0  0  0  0
  -43.1709  -29.4749    6.6429 H   0  0  0  0  0  0  0  0  0  0  0  0
  -42.0788  -29.6804    4.9883 H   0  0  0  0  0  0  0  0  0  0  0  0
  1  2  2  0  0  0  0
  1  3  1  0  0  0  0
  1 10  1  0  0  0  0
  2  9  1  0  0  0  0
  2 18  1  0  0  0  0
  3 11  1  0  0  0  0
  3 17  2  0  0  0  0
  4  5  1  0  0  0  0
  4  6  2  0  0  0  0
  5  7  2  0  0  0  0
  6 19  1  0  0  0  0
  7  8  1  0  0  0  0
  7 15  1  0  0  0  0
  8 19  1  0  0  0  0
  8 21  2  0  0  0  0
  9 20  1  0  0  0  0
  9 22  2  0  0  0  0
 10 13  1  0  0  0  0
 11 12  1  0  0  0  0
 12 13  1  0  0  0  0
 13 23  1  0  0  0  0
 13 24  1  0  0  0  0
 14 16  1  0  0  0  0
 15 20  1  0  0  0  0
 16 19  1  0  0  0  0
 17 18  1  0  0  0  0
  4 25  1  0  0  0  0
  5 26  1  0  0  0  0
  6 27  1  0  0  0  0
 10 28  1  0  0  0  0
 10 29  1  0  0  0  0
 11 30  1  0  0  0  0
 11 31  1  0  0  0  0
 12 32  1  0  0  0  0
 12 33  1  0  0  0  0
 14 34  1  0  0  0  0
 14 35  1  0  0  0  0
 14 36  1  0  0  0  0
 15 37  1  0  0  0  0
 15 38  1  0  0  0  0
 16 39  1  0  0  0  0
 16 40  1  0  0  0  0
 18 41  1  0  0  0  0
 20 42  1  0  0  0  0
M  END
> <POSIT::Probability>
0.18

> <POSIT::Method>
FRED

> <ReceptorTitle>
UCSF-P4528-REFINED_LIGAND-BOUND-STATE_A__DU__LA1_A-201(A)

> <OMEGA_C>
2e43woaO6MFIbqdAOYwywixl6sHa6qJA1Lk4wq7F58FCKdRAj9grwsEC5cFAjbm+pe4owtqG5cHQ
GWA/ON0uwtpK7cF43z2/2ycpwogt7sE0h9U/R4wswiSP98FIvJ8/W3AvwgzR68GUGHpAr0M8wphY
58HsU4dA8wY+wtf55cFjYehA+xBCwmKv4cEWa8dAe8hBwtaw58GSs5xA8144wupw+8GA9Ry//jQm
wh4H78EDGj1ApKIywqYz/8FQqOC+UzY0wjYR6cG3XOpANocwwoSg6sF+iMtA4EQvwiZw9sEA1fM8
tuQpwlWd7cEDuYFABMYswumG/8HIDPw/TYQxwmJX68E65jBADzhDwtoP8sHVLqNAoHdFwrGF48GG
b4FA+4grwmba3cGI+He/WokmwsOc3sHYWZI/ABwxwvEk7cFQqtW/kMU7wsyv38G7YG1AeAA8wqGw
7cH9cF5A3Hw/wgqX7cFVU/VALbQ9wmdY4MHwjwFBhh1GwiZG4sEdqNRAHVNBwrQn2cFfkMFAXIo4
whfj9MEoO6u/lQk6wseG+MFQ+ak+c+46wi31AMLYCXu/IUkkwjze9sEUlkFAYRgjwpLk6MEPYkBA
nX8ywnXgAsIQ8ZI+/hcxwiceAcKoB7K/Aa8swo3M68EJk9RAuVAowmBx7cHUn59A

> <OMEGA_E>
PIRBwQ==

> <OMEGA_NBR>
    112705

$$$$
CACHE3HI_1706_82
  -OEChem-03092622573D

 47 49  0     1  0  0  0  0  0999 V2000
  -44.6547  -31.5088   -1.5501 C   0  0  0  0  0  0  0  0  0  0  0  0
  -43.2617  -31.6727   -1.5599 C   0  0  0  0  0  0  0  0  0  0  0  0
  -45.2636  -30.6685   -0.6173 C   0  0  0  0  0  0  0  0  0  0  0  0
  -42.4581  -30.9995   -0.6357 C   0  0  0  0  0  0  0  0  0  0  0  0
  -47.2092  -29.1480    5.2024 C   0  0  0  0  0  0  0  0  0  0  0  0
  -44.4545  -30.0122    0.2942 C   0  0  0  0  0  0  0  0  0  0  0  0
  -43.0693  -30.1804    0.2968 C   0  0  0  0  0  0  0  0  0  0  0  0
  -46.0794  -29.2261    6.0386 C   0  0  0  0  0  0  0  0  0  0  0  0
  -48.2768  -29.1607    6.0668 C   0  0  0  0  0  0  0  0  0  0  0  0
  -43.4589  -29.3476    3.4364 C   0  0  0  0  0  0  0  0  0  0  0  0
  -44.8514  -29.0487    1.3713 C   0  0  0  0  0  0  0  0  0  0  0  0
  -43.4873  -28.7452    2.0580 C   0  0  1  0  0  0  0  0  0  0  0  0
  -43.2017  -27.2490    2.1342 C   0  0  0  0  0  0  0  0  0  0  0  0
  -50.2292  -30.3048    4.9610 C   0  0  0  0  0  0  0  0  0  0  0  0
  -50.1523  -27.7925    5.0903 C   0  0  0  0  0  0  0  0  0  0  0  0
  -50.6352  -29.1430    7.1211 C   0  0  0  0  0  0  0  0  0  0  0  0
  -44.6359  -29.2488    5.6250 C   0  0  0  0  0  0  0  0  0  0  0  0
  -49.7293  -29.1044    5.8355 C   0  0  0  0  0  0  0  0  0  0  0  0
  -46.3994  -29.2839    7.3340 N   0  0  0  0  0  0  0  0  0  0  0  0
  -47.7425  -29.2423    7.3190 N   0  0  0  0  0  0  0  0  0  0  0  0
  -42.4523  -29.4063    1.2676 N   0  0  0  0  0  0  0  0  0  0  0  0
  -44.4614  -28.8458    4.2483 N   0  0  0  0  0  0  0  0  0  0  0  0
  -42.6120  -30.1746    3.7658 O   0  0  0  0  0  0  0  0  0  0  0  0
  -45.2633  -32.0381   -2.2784 H   0  0  0  0  0  0  0  0  0  0  0  0
  -42.8033  -32.3267   -2.2968 H   0  0  0  0  0  0  0  0  0  0  0  0
  -46.3397  -30.5339   -0.6137 H   0  0  0  0  0  0  0  0  0  0  0  0
  -41.3803  -31.1239   -0.6545 H   0  0  0  0  0  0  0  0  0  0  0  0
  -47.2455  -29.0908    4.1239 H   0  0  0  0  0  0  0  0  0  0  0  0
  -45.2917  -28.1547    0.9168 H   0  0  0  0  0  0  0  0  0  0  0  0
  -45.5714  -29.5150    2.0521 H   0  0  0  0  0  0  0  0  0  0  0  0
  -43.2228  -26.8152    1.1351 H   0  0  0  0  0  0  0  0  0  0  0  0
  -42.2192  -27.0801    2.5736 H   0  0  0  0  0  0  0  0  0  0  0  0
  -43.9548  -26.7572    2.7503 H   0  0  0  0  0  0  0  0  0  0  0  0
  -51.3126  -30.2308    4.8093 H   0  0  0  0  0  0  0  0  0  0  0  0
  -49.7568  -30.3499    3.9722 H   0  0  0  0  0  0  0  0  0  0  0  0
  -50.0309  -31.2633    5.4537 H   0  0  0  0  0  0  0  0  0  0  0  0
  -51.2310  -27.7255    4.9054 H   0  0  0  0  0  0  0  0  0  0  0  0
  -49.8608  -26.9167    5.6819 H   0  0  0  0  0  0  0  0  0  0  0  0
  -49.6562  -27.7125    4.1177 H   0  0  0  0  0  0  0  0  0  0  0  0
  -51.7073  -29.0987    6.8970 H   0  0  0  0  0  0  0  0  0  0  0  0
  -50.4078  -28.2939    7.7764 H   0  0  0  0  0  0  0  0  0  0  0  0
  -50.4625  -30.0668    7.6862 H   0  0  0  0  0  0  0  0  0  0  0  0
  -44.0442  -28.5736    6.2520 H   0  0  0  0  0  0  0  0  0  0  0  0
  -44.2112  -30.2519    5.7364 H   0  0  0  0  0  0  0  0  0  0  0  0
  -48.2320  -29.2730    8.2048 H   0  0  0  0  0  0  0  0  0  0  0  0
  -41.4826  -29.4889    1.5344 H   0  0  0  0  0  0  0  0  0  0  0  0
  -45.0925  -28.1404    3.8801 H   0  0  0  0  0  0  0  0  0  0  0  0
  1  2  1  0  0  0  0
  1  3  2  0  0  0  0
  2  4  2  0  0  0  0
  3  6  1  0  0  0  0
  4  7  1  0  0  0  0
  5  8  1  0  0  0  0
  5  9  2  0  0  0  0
  6  7  2  0  0  0  0
  6 11  1  0  0  0  0
  7 21  1  0  0  0  0
  8 17  1  0  0  0  0
  8 19  2  0  0  0  0
  9 18  1  0  0  0  0
  9 20  1  0  0  0  0
 10 12  1  0  0  0  0
 10 22  1  0  0  0  0
 10 23  2  0  0  0  0
 11 12  1  0  0  0  0
 12 13  1  0  0  0  0
 12 21  1  0  0  0  0
 14 18  1  0  0  0  0
 15 18  1  0  0  0  0
 16 18  1  0  0  0  0
 17 22  1  0  0  0  0
 19 20  1  0  0  0  0
  1 24  1  0  0  0  0
  2 25  1  0  0  0  0
  3 26  1  0  0  0  0
  4 27  1  0  0  0  0
  5 28  1  0  0  0  0
 11 29  1  0  0  0  0
 11 30  1  0  0  0  0
 13 31  1  0  0  0  0
 13 32  1  0  0  0  0
 13 33  1  0  0  0  0
 14 34  1  0  0  0  0
 14 35  1  0  0  0  0
 14 36  1  0  0  0  0
 15 37  1  0  0  0  0
 15 38  1  0  0  0  0
 15 39  1  0  0  0  0
 16 40  1  0  0  0  0
 16 41  1  0  0  0  0
 16 42  1  0  0  0  0
 17 43  1  0  0  0  0
 17 44  1  0  0  0  0
 20 45  1  0  0  0  0
 21 46  1  0  0  0  0
 22 47  1  0  0  0  0
M  END
> <POSIT::Probability>
0.18

> <POSIT::Method>
FRED

> <ReceptorTitle>
UCSF-P4528-REFINED_LIGAND-BOUND-STATE_A__DU__LA1_A-201(A)

> <OMEGA_C>
cp4ywh8S/MFAasa/Agwtwr1h/cHIqce/+A01wgJZ9cFYBx6/FdUpwvn+98GUvCK/Q9Y8wgwv6cHZ
eaZAatExwu4Y8MGInZY+90YswnZx8cHo8Zc+VVE4wgXP6cFgPMFAcxtBwihJ6cEYI8JA5tUtwvfH
6sH37VtA32czwqxj6MEBh68/A/Mtwh725cE4tgNAis4swgH+2cG0lghAwOpIwipw8sE8wJ5A6JtI
wvdW3sGU46JAaYpKwukk6cEM4ONAIIsywoP96cFhALRAzupGwtPV6MGMvLpA+Jg5wlhF6sF/sOpA
T/g+wiHw6cEyNepAG88pwjRA68HSQaI/hNgxwh7E5sE58odApnIqwntl8cGlAnFAlw01wvsmAMLg
0BHAijYrwn5OAcKE/hLA2Fs5wlZF9MEwGR2/a4Ulwrz9+MH8jie/a/s8wgm66MHh9oNArio1wss8
4cFMsmo/HEk2wrEe7MH8VANALuQswnmF1sH8SZE/cOAowvyj2MFBtiRAv9EvwtUO1sGyBTBAIUBN
wqzY8cHQ5ZlA6wZHwoTM8sHGOH5AqB9Iwjob+sGGhK5AkexMwtXN3cHD+JxAbHFHwnBV18F+0rVA
6Z9Gwiaz3cEgxINAPNROwibK6MFZtNxAn6FJwtJZ4sEC2PhAjdlJwtGI8MEH9fVAOi0wwqWW5MGa
EMhAOdgwwuED8sHykLdAiO1AwgUv6sHqRgNBK+4lwjPp68GTZsQ/vl40wnkf4cHaU3hA

> <OMEGA_E>
+o8PwQ==

> <OMEGA_NBR>
    114140

$$$$
CACHE3HI_1706_86
  -OEChem-03092622573D

 37 39  0     0  0  0  0  0  0999 V2000
  -45.8578  -28.7633    5.8749 C   0  0  0  0  0  0  0  0  0  0  0  0
  -44.7526  -28.6976    5.0264 C   0  0  0  0  0  0  0  0  0  0  0  0
  -47.3241  -28.3830    3.9926 C   0  0  0  0  0  0  0  0  0  0  0  0
  -47.1436  -28.6058    5.3578 C   0  0  0  0  0  0  0  0  0  0  0  0
  -44.9331  -28.4748    3.6612 C   0  0  0  0  0  0  0  0  0  0  0  0
  -46.2189  -28.3173    3.1441 C   0  0  0  0  0  0  0  0  0  0  0  0
  -44.2945  -33.0541   -2.6377 C   0  0  0  0  0  0  0  0  0  0  0  0
  -44.3482  -31.5326   -1.0828 C   0  0  0  0  0  0  0  0  0  0  0  0
  -43.9598  -30.2079    1.0327 C   0  0  0  0  0  0  0  0  0  0  0  0
  -43.1083  -34.6530   -4.3445 C   0  0  0  0  0  0  0  0  0  0  0  0
  -42.8320  -33.2553   -4.8032 C   0  0  0  0  0  0  0  0  0  0  0  0
  -44.1210  -33.5644   -4.0791 C   0  0  0  0  0  0  0  0  0  0  0  0
  -43.7488  -28.4053    2.7573 C   0  0  0  0  0  0  0  0  0  0  0  0
  -48.3257  -28.6758    6.2644 C   0  0  0  0  0  0  0  0  0  0  0  0
  -44.1476  -31.7037   -2.3713 N   0  0  0  0  0  0  0  0  0  0  0  0
  -44.5883  -33.9140   -1.6626 N   0  0  0  0  0  0  0  0  0  0  0  0
  -44.3104  -30.3459   -0.3132 N   0  0  0  0  0  0  0  0  0  0  0  0
  -44.0483  -28.8655    1.4255 N   0  0  0  0  0  0  0  0  0  0  0  0
  -43.6174  -31.1076    1.7961 O   0  0  0  0  0  0  0  0  0  0  0  0
  -47.8927  -28.5624    7.6143 O   0  0  0  0  0  0  0  0  0  0  0  0
  -46.4024  -28.1028    1.8338 F   0  0  0  0  0  0  0  0  0  0  0  0
  -44.7014  -32.9997   -0.2656 S   0  0  0  0  0  0  0  0  0  0  0  0
  -45.7076  -28.9373    6.9370 H   0  0  0  0  0  0  0  0  0  0  0  0
  -43.7544  -28.8213    5.4380 H   0  0  0  0  0  0  0  0  0  0  0  0
  -48.3222  -28.2593    3.5809 H   0  0  0  0  0  0  0  0  0  0  0  0
  -43.3527  -35.3923   -5.0980 H   0  0  0  0  0  0  0  0  0  0  0  0
  -42.5251  -35.0365   -3.5160 H   0  0  0  0  0  0  0  0  0  0  0  0
  -42.0622  -32.6980   -4.2831 H   0  0  0  0  0  0  0  0  0  0  0  0
  -42.8885  -33.0515   -5.8656 H   0  0  0  0  0  0  0  0  0  0  0  0
  -45.0301  -33.5781   -4.6684 H   0  0  0  0  0  0  0  0  0  0  0  0
  -43.3736  -27.3759    2.6741 H   0  0  0  0  0  0  0  0  0  0  0  0
  -42.9171  -29.0160    3.1349 H   0  0  0  0  0  0  0  0  0  0  0  0
  -49.0379  -27.8667    6.0538 H   0  0  0  0  0  0  0  0  0  0  0  0
  -48.8634  -29.6269    6.1455 H   0  0  0  0  0  0  0  0  0  0  0  0
  -44.5697  -29.4900   -0.7980 H   0  0  0  0  0  0  0  0  0  0  0  0
  -44.3067  -28.1740    0.7250 H   0  0  0  0  0  0  0  0  0  0  0  0
  -48.6884  -28.6125    8.1676 H   0  0  0  0  0  0  0  0  0  0  0  0
  1  2  1  0  0  0  0
  1  4  2  0  0  0  0
  2  5  2  0  0  0  0
  3  4  1  0  0  0  0
  3  6  2  0  0  0  0
  4 14  1  0  0  0  0
  5  6  1  0  0  0  0
  5 13  1  0  0  0  0
  6 21  1  0  0  0  0
  7 12  1  0  0  0  0
  7 15  1  0  0  0  0
  7 16  2  0  0  0  0
  8 15  2  0  0  0  0
  8 17  1  0  0  0  0
  8 22  1  0  0  0  0
  9 17  1  0  0  0  0
  9 18  1  0  0  0  0
  9 19  2  0  0  0  0
 10 11  1  0  0  0  0
 10 12  1  0  0  0  0
 11 12  1  0  0  0  0
 13 18  1  0  0  0  0
 14 20  1  0  0  0  0
 16 22  1  0  0  0  0
  1 23  1  0  0  0  0
  2 24  1  0  0  0  0
  3 25  1  0  0  0  0
 10 26  1  0  0  0  0
 10 27  1  0  0  0  0
 11 28  1  0  0  0  0
 11 29  1  0  0  0  0
 12 30  1  0  0  0  0
 13 31  1  0  0  0  0
 13 32  1  0  0  0  0
 14 33  1  0  0  0  0
 14 34  1  0  0  0  0
 17 35  1  0  0  0  0
 18 36  1  0  0  0  0
 20 37  1  0  0  0  0
M  END
> <POSIT::Probability>
0.18

> <POSIT::Method>
HYBRID

> <ReceptorTitle>
UCSF-P4528-REFINED_LIGAND-BOUND-STATE_A__DU__LA1_A-201(A)

> <OMEGA_C>
cG43wiMb5sHp/rtAsQIzwpeU5cFa2KBA4Es9wmgQ48EQhn9AF5M8wrHY5MHWcqtAe7szwk/M48EY
UWpAMeA4wtqJ4sEBOUlAiC0xwnE3BMLc0CjAj2QxwsRC/MGcl4q/2dYvwrKp8cGmMIQ/5G4swqWc
CsIrBovA9FMrwmsFBcLDs5nA83swwupBBsIbiILAzv4uwg0+48GPdzBAe01Bwhxo5cGTdchAGZcw
wjWh/cFEwxfAaloywvanB8Iq0NS/2z0xwnrE8sGYYKC+dzEwwozs5sHTd7Y/MnguwmLc+MEM5eU/
JZI/wsh/5MFMqPNAC5w5wofS4MEWueo/QM4ywq//A8Ik+Ye+l9Q2wp9/58Ea/N1AgQQvwgyS5sHE
A65A6UlBwgwT4sFeLWVAIGktwrGRDcIlI6PAvBkqwlQlDMJaBmHAqz8owrvKAsL8DonAyo0rwsg0
BMLdsrvA0B40wv9PBsKXY5XAnn4twusB28F+JCtAH6srwrog6MGKokhA2iZEwhDv3sFruMFAJ3RD
wtgD7cHFp8RAVUcywn7r68FoS0y/FToxwkRk4cHhmjk/9MBCwmvm5MGUrgJB

> <OMEGA_E>
SEWzwA==

> <OMEGA_NBR>
    115373

$$$$
CACHE3HI_1707_102
  -OEChem-03092622573D

 46 49  0     0  0  0  0  0  0999 V2000
  -46.6926  -28.9517    6.5171 C   0  0  0  0  0  0  0  0  0  0  0  0
  -45.5174  -29.0474    4.6113 C   0  0  0  0  0  0  0  0  0  0  0  0
  -45.3750  -34.8581   -0.9023 C   0  0  0  0  0  0  0  0  0  0  0  0
  -44.7906  -34.5555   -2.1108 C   0  0  0  0  0  0  0  0  0  0  0  0
  -43.7203  -31.6145   -0.0381 C   0  0  0  0  0  0  0  0  0  0  0  0
  -45.9851  -31.5390   -1.2741 C   0  0  0  0  0  0  0  0  0  0  0  0
  -48.0284  -28.7894    7.1718 C   0  0  0  0  0  0  0  0  0  0  0  0
  -45.3226  -33.6652    0.0030 C   0  0  0  0  0  0  0  0  0  0  0  0
  -44.2168  -33.1569   -2.0766 C   0  0  0  0  0  0  0  0  0  0  0  0
  -48.9841  -28.9506    5.9645 C   0  0  0  0  0  0  0  0  0  0  0  0
  -46.0081  -30.0494    2.3664 C   0  0  0  0  0  0  0  0  0  0  0  0
  -43.6326  -29.2050    2.9203 C   0  0  0  0  0  0  0  0  0  0  0  0
  -48.1169  -28.6040    4.7260 C   0  0  0  0  0  0  0  0  0  0  0  0
  -45.1851  -31.2718    2.0123 C   0  0  0  0  0  0  0  0  0  0  0  0
  -43.3082  -29.6495    1.4759 C   0  0  0  0  0  0  0  0  0  0  0  0
  -45.1679  -28.9990    3.1346 C   0  0  0  0  0  0  0  0  0  0  0  0
  -44.7989  -32.4596   -0.8214 C   0  0  0  0  0  0  0  0  0  0  0  0
  -45.4515  -29.1282    6.8800 N   0  0  0  0  0  0  0  0  0  0  0  0
  -44.7120  -29.1879    5.6636 N   0  0  0  0  0  0  0  0  0  0  0  0
  -46.7439  -28.9134    5.1922 N   0  0  0  0  0  0  0  0  0  0  0  0
  -44.0572  -30.8856    1.1247 N   0  0  0  0  0  0  0  0  0  0  0  0
  -42.6273  -31.4139   -0.5616 O   0  0  0  0  0  0  0  0  0  0  0  0
  -45.9265  -30.3200   -1.1395 O   0  0  0  0  0  0  0  0  0  0  0  0
  -47.0640  -32.1115   -1.8704 O   0  0  0  0  0  0  0  0  0  0  0  0
  -45.8073  -35.8137   -0.6446 H   0  0  0  0  0  0  0  0  0  0  0  0
  -44.7479  -35.2206   -2.9606 H   0  0  0  0  0  0  0  0  0  0  0  0
  -48.2023  -29.5681    7.9290 H   0  0  0  0  0  0  0  0  0  0  0  0
  -48.1307  -27.7973    7.6359 H   0  0  0  0  0  0  0  0  0  0  0  0
  -46.3290  -33.4447    0.3884 H   0  0  0  0  0  0  0  0  0  0  0  0
  -44.6433  -33.8650    0.8447 H   0  0  0  0  0  0  0  0  0  0  0  0
  -43.1196  -33.2001   -2.0102 H   0  0  0  0  0  0  0  0  0  0  0  0
  -44.5079  -32.6068   -2.9836 H   0  0  0  0  0  0  0  0  0  0  0  0
  -49.3569  -29.9835    5.9002 H   0  0  0  0  0  0  0  0  0  0  0  0
  -49.8348  -28.2583    6.0482 H   0  0  0  0  0  0  0  0  0  0  0  0
  -46.3880  -29.5943    1.4399 H   0  0  0  0  0  0  0  0  0  0  0  0
  -46.8547  -30.3595    2.9966 H   0  0  0  0  0  0  0  0  0  0  0  0
  -43.2762  -29.9765    3.6186 H   0  0  0  0  0  0  0  0  0  0  0  0
  -43.1143  -28.2567    3.1257 H   0  0  0  0  0  0  0  0  0  0  0  0
  -48.3923  -29.2269    3.8622 H   0  0  0  0  0  0  0  0  0  0  0  0
  -48.2148  -27.5417    4.4580 H   0  0  0  0  0  0  0  0  0  0  0  0
  -44.7862  -31.7217    2.9334 H   0  0  0  0  0  0  0  0  0  0  0  0
  -45.8230  -32.0027    1.4936 H   0  0  0  0  0  0  0  0  0  0  0  0
  -43.5902  -28.8464    0.7791 H   0  0  0  0  0  0  0  0  0  0  0  0
  -42.2290  -29.8453    1.3923 H   0  0  0  0  0  0  0  0  0  0  0  0
  -45.4317  -28.0035    2.7479 H   0  0  0  0  0  0  0  0  0  0  0  0
  -47.6811  -31.4357   -2.1254 H   0  0  0  0  0  0  0  0  0  0  0  0
  1  7  1  0  0  0  0
  1 18  2  0  0  0  0
  1 20  1  0  0  0  0
  2 16  1  0  0  0  0
  2 19  2  0  0  0  0
  2 20  1  0  0  0  0
  3  4  2  0  0  0  0
  3  8  1  0  0  0  0
  4  9  1  0  0  0  0
  5 17  1  0  0  0  0
  5 21  1  0  0  0  0
  5 22  2  0  0  0  0
  6 17  1  0  0  0  0
  6 23  2  0  0  0  0
  6 24  1  0  0  0  0
  7 10  1  0  0  0  0
  8 17  1  0  0  0  0
  9 17  1  0  0  0  0
 10 13  1  0  0  0  0
 11 14  1  0  0  0  0
 11 16  1  0  0  0  0
 12 15  1  0  0  0  0
 12 16  1  0  0  0  0
 13 20  1  0  0  0  0
 14 21  1  0  0  0  0
 15 21  1  0  0  0  0
 18 19  1  0  0  0  0
  3 25  1  0  0  0  0
  4 26  1  0  0  0  0
  7 27  1  0  0  0  0
  7 28  1  0  0  0  0
  8 29  1  0  0  0  0
  8 30  1  0  0  0  0
  9 31  1  0  0  0  0
  9 32  1  0  0  0  0
 10 33  1  0  0  0  0
 10 34  1  0  0  0  0
 11 35  1  0  0  0  0
 11 36  1  0  0  0  0
 12 37  1  0  0  0  0
 12 38  1  0  0  0  0
 13 39  1  0  0  0  0
 13 40  1  0  0  0  0
 14 41  1  0  0  0  0
 14 42  1  0  0  0  0
 15 43  1  0  0  0  0
 15 44  1  0  0  0  0
 16 45  1  0  0  0  0
 24 46  1  0  0  0  0
M  END
> <POSIT::Probability>
0.25

> <POSIT::Method>
SHAPEFIT

> <ReceptorTitle>
UCSF-P4528-REFINED_LIGAND-BOUND-STATE_A__DU__LA1_A-201(A)

> <OMEGA_C>
QMU6whKd58EujNBA1xE2wgNh6MFmj5NAAoA1wr5uC8IsAGe/iykzws44CsLIFgfAjuEuwo/q/MGA
8hu9y/A3wstP/MEqFKO/Dx1AwqRQ5sGYf+VAYUo1wh6pBsIAYEI7/90wwq6gBMKs5gTAu+9Dwr+a
58FC3b5ASwg4wjdl8MFecxdAz4cuwr6j6cHz5TpAv3dAwgPV5MFyO5dAhb00wqss+sHjyABAkjst
wiUy7cHu6Lw/+qs0wuz958EGnkhACTIzwqfWAcJFR1K/V841wo8G6cEcKdxAHdkywtmA6cFSPLVA
uPk6wrJO58GiJqZAiDowws8V98Hv9Y8/YYIqwqNP+8Gfxw+/vLQ3wmmP8sGe25G/gkE8wiFyAMLP
au+/rzo3wjxBD8JeBSW/0f0ywtvhDMKdej3AH89AwoiL7MFSuv1A24VAwvhg3sGqWfRA8VA5wlXH
BcLT1sY+v5IywsB1B8KhQFg/hXoswu/MBMIhpwDADwgywl1tAsL58j7AbW1Fwine78FHzrxA4lZH
wvkQ4sEri8FAWY05wgnB7MHzTbg/O2s7wjfg8sHtxz9AyRotwtfP78Fvl2dAAnUsws8N4sHJC0hA
s5FBwsHQ6cFcLndA+ttAwk1V3MEoqI5ADyUzwh7G/cF5vDtAtko3wrgCAMJuL78/U1wuwl/F5sEa
ckc/eeoowivD7sG6NbI/BLo1wj8H4ME73i9Afbk+wl58+8FHBgjA

> <OMEGA_E>
KxKZPw==

> <OMEGA_NBR>
    116814

$$$$
CACHE3HI_1707_18
  -OEChem-03092622573D

 37 39  0     1  0  0  0  0  0999 V2000
  -44.3695  -32.2783   -1.3650 C   0  0  0  0  0  0  0  0  0  0  0  0
  -44.9100  -30.7266    0.0619 C   0  0  0  0  0  0  0  0  0  0  0  0
  -46.7574  -29.2748    6.8280 C   0  0  0  0  0  0  0  0  0  0  0  0
  -45.0809  -28.6615    1.5066 C   0  0  0  0  0  0  0  0  0  0  0  0
  -46.4432  -29.4199    5.3525 C   0  0  0  0  0  0  0  0  0  0  0  0
  -44.5933  -34.8880   -1.2403 C   0  0  0  0  0  0  0  0  0  0  0  0
  -43.3774  -34.6010   -2.0646 C   0  0  0  0  0  0  0  0  0  0  0  0
  -48.8234  -28.9490    4.7953 C   0  0  0  0  0  0  0  0  0  0  0  0
  -49.0903  -28.5447    6.2344 C   0  0  0  0  0  0  0  0  0  0  0  0
  -44.5361  -33.6321   -2.0773 C   0  0  0  0  0  0  0  0  0  0  0  0
  -47.3740  -28.6301    4.4338 C   0  0  2  0  0  0  0  0  0  0  0  0
  -47.0922  -28.9530    2.9685 C   0  0  0  0  0  0  0  0  0  0  0  0
  -45.2751  -31.9082   -0.3857 N   0  0  0  0  0  0  0  0  0  0  0  0
  -43.3548  -31.4788   -1.6933 N   0  0  0  0  0  0  0  0  0  0  0  0
  -48.0599  -28.9776    7.1592 N   0  0  0  0  0  0  0  0  0  0  0  0
  -45.5028  -29.9166    1.0590 N   0  0  0  0  0  0  0  0  0  0  0  0
  -45.9398  -28.1985    2.5019 N   0  0  0  0  0  0  0  0  0  0  0  0
  -45.8936  -29.4955    7.6778 O   0  0  0  0  0  0  0  0  0  0  0  0
  -44.1053  -28.0313    1.1058 O   0  0  0  0  0  0  0  0  0  0  0  0
  -43.5027  -30.1280   -0.7165 S   0  0  0  0  0  0  0  0  0  0  0  0
  -45.4086  -29.0934    5.1938 H   0  0  0  0  0  0  0  0  0  0  0  0
  -46.4922  -30.4911    5.1200 H   0  0  0  0  0  0  0  0  0  0  0  0
  -45.2518  -35.6821   -1.5719 H   0  0  0  0  0  0  0  0  0  0  0  0
  -44.5047  -34.8024   -0.1640 H   0  0  0  0  0  0  0  0  0  0  0  0
  -42.4700  -34.3222   -1.5426 H   0  0  0  0  0  0  0  0  0  0  0  0
  -43.2146  -35.2017   -2.9512 H   0  0  0  0  0  0  0  0  0  0  0  0
  -49.0218  -30.0207    4.6678 H   0  0  0  0  0  0  0  0  0  0  0  0
  -49.5129  -28.4136    4.1323 H   0  0  0  0  0  0  0  0  0  0  0  0
  -49.1436  -27.4534    6.3175 H   0  0  0  0  0  0  0  0  0  0  0  0
  -50.0450  -28.9516    6.5826 H   0  0  0  0  0  0  0  0  0  0  0  0
  -45.1487  -33.6029   -2.9705 H   0  0  0  0  0  0  0  0  0  0  0  0
  -47.1990  -27.5570    4.5887 H   0  0  0  0  0  0  0  0  0  0  0  0
  -46.8973  -30.0228    2.8652 H   0  0  0  0  0  0  0  0  0  0  0  0
  -47.9692  -28.7061    2.3660 H   0  0  0  0  0  0  0  0  0  0  0  0
  -48.3223  -29.0694    8.1357 H   0  0  0  0  0  0  0  0  0  0  0  0
  -46.3366  -30.2931    1.5039 H   0  0  0  0  0  0  0  0  0  0  0  0
  -45.7476  -27.3139    2.9527 H   0  0  0  0  0  0  0  0  0  0  0  0
  1 10  1  0  0  0  0
  1 13  1  0  0  0  0
  1 14  2  0  0  0  0
  2 13  2  0  0  0  0
  2 16  1  0  0  0  0
  2 20  1  0  0  0  0
  3  5  1  0  0  0  0
  3 15  1  0  0  0  0
  3 18  2  0  0  0  0
  4 16  1  0  0  0  0
  4 17  1  0  0  0  0
  4 19  2  0  0  0  0
  5 11  1  0  0  0  0
  6  7  1  0  0  0  0
  6 10  1  0  0  0  0
  7 10  1  0  0  0  0
  8  9  1  0  0  0  0
  8 11  1  0  0  0  0
  9 15  1  0  0  0  0
 11 12  1  0  0  0  0
 12 17  1  0  0  0  0
 14 20  1  0  0  0  0
  5 21  1  0  0  0  0
  5 22  1  0  0  0  0
  6 23  1  0  0  0  0
  6 24  1  0  0  0  0
  7 25  1  0  0  0  0
  7 26  1  0  0  0  0
  8 27  1  0  0  0  0
  8 28  1  0  0  0  0
  9 29  1  0  0  0  0
  9 30  1  0  0  0  0
 10 31  1  0  0  0  0
 11 32  1  0  0  0  0
 12 33  1  0  0  0  0
 12 34  1  0  0  0  0
 15 35  1  0  0  0  0
 16 36  1  0  0  0  0
 17 37  1  0  0  0  0
M  END
> <POSIT::Probability>
0.18

> <POSIT::Method>
HYBRID

> <ReceptorTitle>
UCSF-P4528-REFINED_LIGAND-BOUND-STATE_A__DU__LA1_A-201(A)

> <OMEGA_C>
VXoxwgEdAcIEuK6/4aMzwh3Q9cFAfX09hwc7wtUy6sG4ftpA01I0wrNK5cHp1sA/18U5wgVc68FN
R6tAkV8ywlqNC8JEwZ6/foItwnFnCsI5IgTAIEtDwpWX58EMc5lAelxEwp1b5MFggMdAAiUywk6H
BsI58gTA9X49wnwK5cHl4Y1AcF48wsKf58Fj/D1AwBk1whVE/8FAesW+TGstwoHU+8GUvNi/Vz1A
wjjS58EAGOVA1wI2wjVV78FUjoc/V8I3woiW4cHDHyBAFJM3wrj268FjsPVA1GswwhVA4MFEjI0/
yAIuwhAG8cHMbze/XaI1wja/6MGJM6ZADvg5wuDt88FV16NA4AE1wnO6DsKENMm/2QQywqA1C8LA
8ie+QeEpwvRJCcKccsW/t9sswoLODMJa4DzAWhZEwmoq8MFhXpVAKQ1GwiBP48G0O4RADJNEwpGg
28GYKMpAEy5Iwumc58FbpNJAOJg0wmRpBsJAHD7A0ss8wq103MEK15JA3ZY7wqgu8MFmXzdAeuA/
wgqm5cHkaxdAFUpBwjaO6MH5KwJBpFg5wkRY8sGIgMA/h/02wuiC2sFo+TxA

> <OMEGA_E>
nbuqwA==

> <OMEGA_NBR>
    118050

$$$$
CACHE3HI_1707_36
  -OEChem-03092622573D

 55 57  0     1  0  0  0  0  0999 V2000
  -45.7134  -25.2349   -2.1178 C   0  0  0  0  0  0  0  0  0  0  0  0
  -44.3825  -24.8228   -2.0517 C   0  0  0  0  0  0  0  0  0  0  0  0
  -46.6650  -32.9662    1.9037 C   0  0  0  0  0  0  0  0  0  0  0  0
  -45.2895  -32.7928    2.0569 C   0  0  0  0  0  0  0  0  0  0  0  0
  -46.2162  -26.1224   -1.1665 C   0  0  0  0  0  0  0  0  0  0  0  0
  -43.5546  -25.2976   -1.0343 C   0  0  0  0  0  0  0  0  0  0  0  0
  -47.5355  -31.9127    2.1828 C   0  0  0  0  0  0  0  0  0  0  0  0
  -45.6550  -30.5128    2.7680 C   0  0  0  0  0  0  0  0  0  0  0  0
  -44.7844  -31.5663    2.4889 C   0  0  0  0  0  0  0  0  0  0  0  0
  -47.0305  -30.6862    2.6147 C   0  0  0  0  0  0  0  0  0  0  0  0
  -45.3883  -26.5972   -0.1491 C   0  0  0  0  0  0  0  0  0  0  0  0
  -44.0574  -26.1850   -0.0828 C   0  0  0  0  0  0  0  0  0  0  0  0
  -43.3381  -31.3841    2.6500 C   0  0  0  0  0  0  0  0  0  0  0  0
  -43.6382  -30.0015   -0.5288 C   0  0  0  0  0  0  0  0  0  0  0  0
  -42.9383  -31.1798    0.1447 C   0  0  0  0  0  0  0  0  0  0  0  0
  -42.9314  -28.6466   -0.3910 C   0  0  0  0  0  0  0  0  0  0  0  0
  -41.4827  -30.0244    1.7789 C   0  0  0  0  0  0  0  0  0  0  0  0
  -41.8943  -28.5495    1.8410 C   0  0  0  0  0  0  0  0  0  0  0  0
  -45.9496  -27.5465    0.8581 C   0  0  0  0  0  0  0  0  0  0  0  0
  -47.4421  -29.2147    5.5220 C   0  0  0  0  0  0  0  0  0  0  0  0
  -43.1471  -26.6828    1.0030 C   0  0  0  0  0  0  0  0  0  0  0  0
  -47.9615  -29.5591    2.9111 C   0  0  0  0  0  0  0  0  0  0  0  0
  -42.6082  -30.9240    1.5501 N   0  0  0  0  0  0  0  0  0  0  0  0
  -43.0176  -28.1413    0.9837 N   0  0  1  0  0  0  0  0  0  0  0  0
  -42.8744  -31.6477    3.7582 O   0  0  0  0  0  0  0  0  0  0  0  0
  -49.8974  -28.7486    4.5689 O   0  0  0  0  0  0  0  0  0  0  0  0
  -48.8207  -29.7854    4.5007 S   0  0  2  0  0  0  0  0  0  0  0  0
  -46.3578  -24.8650   -2.9100 H   0  0  0  0  0  0  0  0  0  0  0  0
  -43.9907  -24.1319   -2.7925 H   0  0  0  0  0  0  0  0  0  0  0  0
  -47.0584  -33.9214    1.5685 H   0  0  0  0  0  0  0  0  0  0  0  0
  -44.6200  -33.6207    1.8378 H   0  0  0  0  0  0  0  0  0  0  0  0
  -47.2545  -26.4378   -1.2264 H   0  0  0  0  0  0  0  0  0  0  0  0
  -42.5191  -24.9700   -0.9918 H   0  0  0  0  0  0  0  0  0  0  0  0
  -48.6058  -32.0568    2.0610 H   0  0  0  0  0  0  0  0  0  0  0  0
  -45.2625  -29.5555    3.1038 H   0  0  0  0  0  0  0  0  0  0  0  0
  -43.7210  -30.2379   -1.6018 H   0  0  0  0  0  0  0  0  0  0  0  0
  -44.6794  -29.9238   -0.1769 H   0  0  0  0  0  0  0  0  0  0  0  0
  -43.5800  -32.0527    0.1163 H   0  0  0  0  0  0  0  0  0  0  0  0
  -42.0293  -31.4002   -0.4004 H   0  0  0  0  0  0  0  0  0  0  0  0
  -41.9020  -28.7004   -0.7438 H   0  0  0  0  0  0  0  0  0  0  0  0
  -43.4687  -27.9585   -1.0467 H   0  0  0  0  0  0  0  0  0  0  0  0
  -40.7661  -30.1405    0.9491 H   0  0  0  0  0  0  0  0  0  0  0  0
  -40.9355  -30.3420    2.6820 H   0  0  0  0  0  0  0  0  0  0  0  0
  -42.1820  -28.3530    2.8922 H   0  0  0  0  0  0  0  0  0  0  0  0
  -41.0084  -27.9060    1.6623 H   0  0  0  0  0  0  0  0  0  0  0  0
  -45.8250  -28.5875    0.5349 H   0  0  0  0  0  0  0  0  0  0  0  0
  -47.0252  -27.3826    1.0006 H   0  0  0  0  0  0  0  0  0  0  0  0
  -45.4459  -27.4179    1.8232 H   0  0  0  0  0  0  0  0  0  0  0  0
  -47.7300  -29.2604    6.5743 H   0  0  0  0  0  0  0  0  0  0  0  0
  -46.5778  -29.8590    5.3453 H   0  0  0  0  0  0  0  0  0  0  0  0
  -47.1987  -28.1860    5.2481 H   0  0  0  0  0  0  0  0  0  0  0  0
  -42.1456  -26.2535    0.8939 H   0  0  0  0  0  0  0  0  0  0  0  0
  -43.5194  -26.3929    1.9911 H   0  0  0  0  0  0  0  0  0  0  0  0
  -48.7253  -29.4531    2.1287 H   0  0  0  0  0  0  0  0  0  0  0  0
  -47.4224  -28.6032    2.9606 H   0  0  0  0  0  0  0  0  0  0  0  0
  1  2  1  0  0  0  0
  1  5  2  0  0  0  0
  2  6  2  0  0  0  0
  3  4  2  0  0  0  0
  3  7  1  0  0  0  0
  4  9  1  0  0  0  0
  5 11  1  0  0  0  0
  6 12  1  0  0  0  0
  7 10  2  0  0  0  0
  8  9  2  0  0  0  0
  8 10  1  0  0  0  0
  9 13  1  0  0  0  0
 10 22  1  0  0  0  0
 11 12  2  0  0  0  0
 11 19  1  0  0  0  0
 12 21  1  0  0  0  0
 13 23  1  0  0  0  0
 13 25  2  0  0  0  0
 14 15  1  0  0  0  0
 14 16  1  0  0  0  0
 15 23  1  0  0  0  0
 16 24  1  0  0  0  0
 17 18  1  0  0  0  0
 17 23  1  0  0  0  0
 18 24  1  0  0  0  0
 20 27  1  0  0  0  0
 21 24  1  0  0  0  0
 22 27  1  0  0  0  0
 26 27  2  0  0  0  0
  1 28  1  0  0  0  0
  2 29  1  0  0  0  0
  3 30  1  0  0  0  0
  4 31  1  0  0  0  0
  5 32  1  0  0  0  0
  6 33  1  0  0  0  0
  7 34  1  0  0  0  0
  8 35  1  0  0  0  0
 14 36  1  0  0  0  0
 14 37  1  0  0  0  0
 15 38  1  0  0  0  0
 15 39  1  0  0  0  0
 16 40  1  0  0  0  0
 16 41  1  0  0  0  0
 17 42  1  0  0  0  0
 17 43  1  0  0  0  0
 18 44  1  0  0  0  0
 18 45  1  0  0  0  0
 19 46  1  0  0  0  0
 19 47  1  0  0  0  0
 19 48  1  0  0  0  0
 20 49  1  0  0  0  0
 20 50  1  0  0  0  0
 20 51  1  0  0  0  0
 21 52  1  0  0  0  0
 21 53  1  0  0  0  0
 22 54  1  0  0  0  0
 22 55  1  0  0  0  0
M  END
> <POSIT::Probability>
0.05

> <POSIT::Method>
FRED

> <ReceptorTitle>
UCSF-P4528-REFINED_LIGAND-BOUND-STATE_A__DU__LA1_A-201(A)

> <OMEGA_C>
ito2wizhycGwigfApocxwv6UxsFYTgPA/ag6wmDdA8JYrPM/aig1wtcrA8K0pANAYt04wp/60MFk
TpW/3jcuwm1hysF0YoS/XiQ+wkBN/8EIswtAtZ42wjAa9MGMJjFARiMzwr6H/MGUSR9AOh88wk59
9cHoVydAmo01wg7H1MFAoRi+wjowwvB60cGAqqm9PlotwqoS+8H8mClAe40uwiYD8MFgXwe/1MAr
wkZw+cFANBQ+vLkrwiMs5cFAMsi+R+4lwgIy8MFMsuM/yJMnwmpl5MFMpus/Zcw3witf3MGQqls/
r8Q9wry36cEotLBAnZYswlB21cEQYoA/j9g/wg557MGcTzpAxm4qwl5k98HgacY/ARIswngh4cEI
0ns/Z38rwpAu/cFchnBA9ZZHwir95cHINJJAaUhDwplI7sFoBZBAYm45wp/rxsE+PTrAhvYvwgwO
wcFZuDLAxTs8wnyvB8JQw8g/2HoywpZ7BsIcPOs/pgQ9wpWA08EA+py/lBMqwpzCx8G4432/V2xC
wiY6AMIK5wNA1gw1wqhx7ME8pEZAVeIuwkXn8cHEBs2/uLcywt9j78FAKTW+5lEuwvE1AMKAPO49
/R0owpIz+8HA/8y+oJsnwnma5cFoaj6//d8twhOr38HI+IW/eRAjwsgf8cEo+XI//70jwnC88sF4
pitAYboowtvS4sFwGjlAnQgkwmg/38HgxNQ/10w3wjCz5MGA7Ag/0Rk8wpQP28GYE4A/lcg1wt1X
28FwX+k/hus+wjgV6sHYYNJApU86winf7sGSDKtAdMs8wt584cGg8KdAG5UowhYH0sEo2GQ/1hMu
wrwk08FI3f4/tuZCwuyf68EIPQhAg7A9wlLT5MEQej1A

> <OMEGA_E>
+C8HwQ==

> <OMEGA_NBR>
    119646

$$$$
CACHE3HI_1707_37
  -OEChem-03092622573D

 39 40  0     0  0  0  0  0  0999 V2000
  -49.4654  -29.0468    3.1933 C   0  0  0  0  0  0  0  0  0  0  0  0
  -48.0949  -29.0463    2.8337 C   0  0  0  0  0  0  0  0  0  0  0  0
  -49.5379  -28.7561    4.5380 C   0  0  0  0  0  0  0  0  0  0  0  0
  -47.3718  -28.7550    3.9693 C   0  0  0  0  0  0  0  0  0  0  0  0
  -45.8969  -28.6391    4.0985 C   0  0  0  0  0  0  0  0  0  0  0  0
  -43.1052  -30.2816    3.6753 C   0  0  0  0  0  0  0  0  0  0  0  0
  -41.9492  -30.9332    0.2182 C   0  0  0  0  0  0  0  0  0  0  0  0
  -43.3508  -31.2495    0.7281 C   0  0  0  0  0  0  0  0  0  0  0  0
  -41.0718  -30.3496    1.3199 C   0  0  0  0  0  0  0  0  0  0  0  0
  -44.0102  -30.0262    1.3654 C   0  0  0  0  0  0  0  0  0  0  0  0
  -41.7138  -29.1191    1.9622 C   0  0  0  0  0  0  0  0  0  0  0  0
  -43.1459  -29.3819    2.4641 C   0  0  0  0  0  0  0  0  0  0  0  0
  -47.9162  -28.2626    6.3677 C   0  0  0  0  0  0  0  0  0  0  0  0
  -43.7859  -28.0664    2.9276 C   0  0  0  0  0  0  0  0  0  0  0  0
  -48.2590  -28.5807    4.9989 N   0  0  0  0  0  0  0  0  0  0  0  0
  -45.2301  -28.2078    2.9671 N   0  0  0  0  0  0  0  0  0  0  0  0
  -45.3622  -28.9413    5.1621 O   0  0  0  0  0  0  0  0  0  0  0  0
  -43.6736  -31.3594    3.7683 O   0  0  0  0  0  0  0  0  0  0  0  0
  -42.3512  -29.7291    4.6565 O   0  0  0  0  0  0  0  0  0  0  0  0
  -50.3080  -29.2377    2.5438 H   0  0  0  0  0  0  0  0  0  0  0  0
  -47.6854  -29.2366    1.8510 H   0  0  0  0  0  0  0  0  0  0  0  0
  -50.3885  -28.6622    5.1998 H   0  0  0  0  0  0  0  0  0  0  0  0
  -41.4867  -31.8441   -0.1780 H   0  0  0  0  0  0  0  0  0  0  0  0
  -42.0148  -30.2205   -0.6131 H   0  0  0  0  0  0  0  0  0  0  0  0
  -43.9705  -31.6073   -0.1021 H   0  0  0  0  0  0  0  0  0  0  0  0
  -43.2997  -32.0665    1.4580 H   0  0  0  0  0  0  0  0  0  0  0  0
  -40.8867  -31.1137    2.0846 H   0  0  0  0  0  0  0  0  0  0  0  0
  -40.0950  -30.0767    0.9045 H   0  0  0  0  0  0  0  0  0  0  0  0
  -44.2063  -29.2882    0.5761 H   0  0  0  0  0  0  0  0  0  0  0  0
  -44.9884  -30.3207    1.7663 H   0  0  0  0  0  0  0  0  0  0  0  0
  -41.0733  -28.7748    2.7842 H   0  0  0  0  0  0  0  0  0  0  0  0
  -41.7303  -28.3100    1.2199 H   0  0  0  0  0  0  0  0  0  0  0  0
  -47.7649  -29.1744    6.9552 H   0  0  0  0  0  0  0  0  0  0  0  0
  -48.7170  -27.6747    6.8272 H   0  0  0  0  0  0  0  0  0  0  0  0
  -46.9845  -27.6893    6.4141 H   0  0  0  0  0  0  0  0  0  0  0  0
  -43.4082  -27.8197    3.9195 H   0  0  0  0  0  0  0  0  0  0  0  0
  -43.5018  -27.2702    2.2399 H   0  0  0  0  0  0  0  0  0  0  0  0
  -45.7282  -28.0359    2.1036 H   0  0  0  0  0  0  0  0  0  0  0  0
  -42.3140  -30.2980    5.4554 H   0  0  0  0  0  0  0  0  0  0  0  0
  1  2  1  0  0  0  0
  1  3  2  0  0  0  0
  2  4  2  0  0  0  0
  3 15  1  0  0  0  0
  4  5  1  0  0  0  0
  4 15  1  0  0  0  0
  5 16  1  0  0  0  0
  5 17  2  0  0  0  0
  6 12  1  0  0  0  0
  6 18  2  0  0  0  0
  6 19  1  0  0  0  0
  7  8  1  0  0  0  0
  7  9  1  0  0  0  0
  8 10  1  0  0  0  0
  9 11  1  0  0  0  0
 10 12  1  0  0  0  0
 11 12  1  0  0  0  0
 12 14  1  0  0  0  0
 13 15  1  0  0  0  0
 14 16  1  0  0  0  0
  1 20  1  0  0  0  0
  2 21  1  0  0  0  0
  3 22  1  0  0  0  0
  7 23  1  0  0  0  0
  7 24  1  0  0  0  0
  8 25  1  0  0  0  0
  8 26  1  0  0  0  0
  9 27  1  0  0  0  0
  9 28  1  0  0  0  0
 10 29  1  0  0  0  0
 10 30  1  0  0  0  0
 11 31  1  0  0  0  0
 11 32  1  0  0  0  0
 13 33  1  0  0  0  0
 13 34  1  0  0  0  0
 13 35  1  0  0  0  0
 14 36  1  0  0  0  0
 14 37  1  0  0  0  0
 16 38  1  0  0  0  0
 19 39  1  0  0  0  0
M  END
> <POSIT::Probability>
0.24

> <POSIT::Method>
FRED

> <ReceptorTitle>
UCSF-P4528-REFINED_LIGAND-BOUND-STATE_A__DU__LA1_A-201(A)

> <OMEGA_C>
jtxFwtJf6MGcX0xAMWFAwt5e6MEeWzVAxiZGwoIM5sGbN5FArXw9wkwK5sHQCH5AcpY3wugc5cFS
J4NAvWsswr5A8sGON2tABswnwiJ398GAeF8+OWctwvb++cGwZjo/ikkkwhPM8sFs86g/awowwqE1
8MEAxK4/6Nomwtrz6MF8Kvs/XJUswhgO68FetB1AO6o/wrYZ4sFpxMtAuSQvwv6H4ME0XTtAOwlB
wkWl5MHI9p9AlOs0wpyp4cGc5T1A2nI1wrGH58G2L6VAv7EuwiTg+sEEK3FAn2cpwj/V7cHeAZVA
XztJwt7m6cHIzSJA270+wqXk6cE47ew/xo1JwhpM5cFcZKZAXPIlwsjA/sEAPja+Gw8owo3D8cHU
8xy/zeEvwrjb/MGAGdG93jItwhJEAMJYnro/AIwjwt/o+MHwaQVAQGEgwiid8MHoimc/SdMwwlNO
6sGIeRM/HfQzwteQ8sH4FOI/Ekskwsgy5sGuMDJA1esmwud64sEMJJw/Tw8/will6cHQkN5AL95C
wuJl3cGdeNpAJvA7wqeD3cGOQM1A+qEtws2O3sES2XpA4wEuwnQp2sHOWQ9Apek2wopJ4MF2oQZA
iEEpwmFi8sFZkq5A

> <OMEGA_E>
9uoAwQ==

> <OMEGA_NBR>
    120912

$$$$
CACHE3HI_1707_38
  -OEChem-03092622573D

 41 43  0     1  0  0  0  0  0999 V2000
  -47.6330  -30.0420    1.7960 C   0  0  0  0  0  0  0  0  0  0  0  0
  -48.8873  -29.8893    2.3867 C   0  0  0  0  0  0  0  0  0  0  0  0
  -45.1930  -24.8961   -2.4100 C   0  0  0  0  0  0  0  0  0  0  0  0
  -46.6032  -28.9941    3.7140 C   0  0  0  0  0  0  0  0  0  0  0  0
  -45.1210  -23.5866   -2.0012 C   0  0  0  0  0  0  0  0  0  0  0  0
  -46.4909  -29.5942    2.4597 C   0  0  0  0  0  0  0  0  0  0  0  0
  -47.8575  -28.8413    4.3048 C   0  0  0  0  0  0  0  0  0  0  0  0
  -48.9996  -29.2892    3.6410 C   0  0  0  0  0  0  0  0  0  0  0  0
  -46.0745  -25.5018   -1.4947 C   0  0  0  0  0  0  0  0  0  0  0  0
  -46.5139  -26.9200   -1.4677 C   0  0  0  0  0  0  0  0  0  0  0  0
  -43.5743  -29.3176   -0.0053 C   0  0  0  0  0  0  0  0  0  0  0  0
  -42.9214  -29.1788    1.3616 C   0  0  0  0  0  0  0  0  0  0  0  0
  -45.1257  -29.7593    1.8170 C   0  0  1  0  0  0  0  0  0  0  0  0
  -44.9788  -29.8724    0.2769 C   0  0  1  0  0  0  0  0  0  0  0  0
  -44.3186  -27.4500    2.2971 C   0  0  0  0  0  0  0  0  0  0  0  0
  -46.0128  -29.1944   -0.6122 C   0  0  0  0  0  0  0  0  0  0  0  0
  -46.5294  -24.6476   -0.5741 N   0  0  0  0  0  0  0  0  0  0  0  0
  -45.9317  -23.4914   -0.9086 N   0  0  0  0  0  0  0  0  0  0  0  0
  -44.0239  -28.8813    2.2937 N   0  0  2  0  0  0  0  0  0  0  0  0
  -45.7275  -27.7722   -0.7181 N   0  0  0  0  0  0  0  0  0  0  0  0
  -47.5081  -27.2525   -2.1077 O   0  0  0  0  0  0  0  0  0  0  0  0
  -47.9491  -28.2645    5.5115 F   0  0  0  0  0  0  0  0  0  0  0  0
  -50.5507  -29.1040    4.3645 Cl  0  0  0  0  0  0  0  0  0  0  0  0
  -47.5553  -30.5102    0.8182 H   0  0  0  0  0  0  0  0  0  0  0  0
  -49.7689  -30.2424    1.8576 H   0  0  0  0  0  0  0  0  0  0  0  0
  -44.6804  -25.3428   -3.2500 H   0  0  0  0  0  0  0  0  0  0  0  0
  -45.7190  -28.6427    4.2391 H   0  0  0  0  0  0  0  0  0  0  0  0
  -44.5771  -22.7336   -2.3807 H   0  0  0  0  0  0  0  0  0  0  0  0
  -43.6240  -28.3402   -0.5001 H   0  0  0  0  0  0  0  0  0  0  0  0
  -43.0022  -29.9876   -0.6557 H   0  0  0  0  0  0  0  0  0  0  0  0
  -42.4611  -30.1314    1.6525 H   0  0  0  0  0  0  0  0  0  0  0  0
  -42.1266  -28.4250    1.3725 H   0  0  0  0  0  0  0  0  0  0  0  0
  -44.8060  -30.7923    2.2094 H   0  0  0  0  0  0  0  0  0  0  0  0
  -44.9701  -30.9523    0.0116 H   0  0  0  0  0  0  0  0  0  0  0  0
  -45.1366  -27.2275    2.9883 H   0  0  0  0  0  0  0  0  0  0  0  0
  -43.4353  -26.8831    2.6044 H   0  0  0  0  0  0  0  0  0  0  0  0
  -44.6069  -27.1216    1.2947 H   0  0  0  0  0  0  0  0  0  0  0  0
  -45.9893  -29.6486   -1.6054 H   0  0  0  0  0  0  0  0  0  0  0  0
  -47.0098  -29.3448   -0.1918 H   0  0  0  0  0  0  0  0  0  0  0  0
  -46.1216  -22.6723   -0.3448 H   0  0  0  0  0  0  0  0  0  0  0  0
  -44.8853  -27.4448   -0.2660 H   0  0  0  0  0  0  0  0  0  0  0  0
  1  2  2  0  0  0  0
  1  6  1  0  0  0  0
  2  8  1  0  0  0  0
  3  5  2  0  0  0  0
  3  9  1  0  0  0  0
  4  6  2  0  0  0  0
  4  7  1  0  0  0  0
  5 18  1  0  0  0  0
  6 13  1  0  0  0  0
  7  8  2  0  0  0  0
  7 22  1  0  0  0  0
  8 23  1  0  0  0  0
  9 10  1  0  0  0  0
  9 17  2  0  0  0  0
 10 20  1  0  0  0  0
 10 21  2  0  0  0  0
 11 12  1  0  0  0  0
 11 14  1  0  0  0  0
 12 19  1  0  0  0  0
 13 14  1  0  0  0  0
 13 19  1  0  0  0  0
 14 16  1  0  0  0  0
 15 19  1  0  0  0  0
 16 20  1  0  0  0  0
 17 18  1  0  0  0  0
  1 24  1  0  0  0  0
  2 25  1  0  0  0  0
  3 26  1  0  0  0  0
  4 27  1  0  0  0  0
  5 28  1  0  0  0  0
 11 29  1  0  0  0  0
 11 30  1  0  0  0  0
 12 31  1  0  0  0  0
 12 32  1  0  0  0  0
 13 33  1  0  0  0  0
 14 34  1  0  0  0  0
 15 35  1  0  0  0  0
 15 36  1  0  0  0  0
 15 37  1  0  0  0  0
 16 38  1  0  0  0  0
 16 39  1  0  0  0  0
 18 40  1  0  0  0  0
 20 41  1  0  0  0  0
M  END
> <POSIT::Probability>
0.05

> <POSIT::Method>
FRED

> <ReceptorTitle>
UCSF-P4528-REFINED_LIGAND-BOUND-STATE_A__DU__LA1_A-201(A)

> <OMEGA_C>
JYg+whNW8MGA4uU/mIxDwlId78FOwBhAl8U0wjQrx8HEPRrAs2k6wtHz58Grsm1A3ns0wmmxvMHa
EgDAr/Y5wuDA7MF0bB1AFW4/wgi75sHpwIlAnP9DwkFQ6sGFBmlAUEw4wpsDzMHoUL+/Rg46wjRc
18HE3ru/DEwuwnSK6sEAWK27iK8rwiBu6cFcSK4/wYA0wgAT7sFck+g/RuozwrL67sHQyY0+QkYx
wrCZ28H9AhNAJA04wheO6cHYuBy/HB46wlguxcGY+RK/G7o3wmruu8GYl2i/dBgwwtEM58E/zBJA
6ug2wl8t3sFw0je/Pwg+wh0F2sFs5AbA1ss/wpsd4sEOXrBA8DNKwgTV6MEUqotAoTg+wtoU9MEg
eFE/UhNHwonw8cEoxu0/xbgywgG+ysFA/0/AO+A2wkEk5cHNpodA704ywlnetcHyXRjA934uwry4
4sEoCAC/RgIswqfm78EA2Se/MNgpwiwN8cFwhNM/mIEowmBm48EIra8/Tzkzwo9W9sG4Zg1AWeEz
wkie98EAXD482Ys0wtTR2cFaQD9AzL0two0Q18EdriZAem0ywvb42MEouKU/EPU3wkAw7cFsfc2/
Ego8wjPC6sHgaUS+eHw4wtJgtcHQhbC+g4ozwuaO28GwL4i+

> <OMEGA_E>
8z8bwQ==

> <OMEGA_NBR>
    122235

$$$$
CACHE3HI_1707_52
  -OEChem-03092622573D

 49 52  0     0  0  0  0  0  0999 V2000
  -43.7379  -26.5344    0.9776 C   0  0  0  0  0  0  0  0  0  0  0  0
  -46.0640  -33.5230   -0.1391 C   0  0  0  0  0  0  0  0  0  0  0  0
  -43.5142  -27.7087    0.2393 C   0  0  0  0  0  0  0  0  0  0  0  0
  -43.8462  -26.5964    2.3786 C   0  0  0  0  0  0  0  0  0  0  0  0
  -45.3889  -32.3968   -0.6235 C   0  0  0  0  0  0  0  0  0  0  0  0
  -41.6627  -35.0916   -4.3351 C   0  0  0  0  0  0  0  0  0  0  0  0
  -43.4893  -29.0124    2.3074 C   0  0  0  0  0  0  0  0  0  0  0  0
  -45.7342  -34.7905   -0.6488 C   0  0  0  0  0  0  0  0  0  0  0  0
  -41.9572  -33.7431   -4.8595 C   0  0  0  0  0  0  0  0  0  0  0  0
  -42.4723  -35.2849   -3.2457 C   0  0  0  0  0  0  0  0  0  0  0  0
  -43.3880  -28.9545    0.9001 C   0  0  0  0  0  0  0  0  0  0  0  0
  -43.7149  -27.8331    3.0467 C   0  0  0  0  0  0  0  0  0  0  0  0
  -44.3728  -32.5600   -1.5950 C   0  0  0  0  0  0  0  0  0  0  0  0
  -44.1176  -33.8714   -2.1040 C   0  0  0  0  0  0  0  0  0  0  0  0
  -45.5105  -29.1480    6.0736 C   0  0  0  0  0  0  0  0  0  0  0  0
  -43.1823  -30.1789    0.1125 C   0  0  0  0  0  0  0  0  0  0  0  0
  -46.9808  -29.5790    6.0116 C   0  0  0  0  0  0  0  0  0  0  0  0
  -47.5873  -28.6805    4.9443 C   0  0  0  0  0  0  0  0  0  0  0  0
  -46.4126  -28.4040    4.0209 C   0  0  0  0  0  0  0  0  0  0  0  0
  -43.8966  -27.9037    4.5498 C   0  0  0  0  0  0  0  0  0  0  0  0
  -43.5602  -31.3503   -2.0761 C   0  0  0  0  0  0  0  0  0  0  0  0
  -44.7898  -34.9462   -1.6062 N   0  0  0  0  0  0  0  0  0  0  0  0
  -42.8882  -33.1999   -4.1114 N   0  0  0  0  0  0  0  0  0  0  0  0
  -43.1749  -34.1021   -3.1300 N   0  0  0  0  0  0  0  0  0  0  0  0
  -45.2248  -28.4421    4.8985 N   0  0  0  0  0  0  0  0  0  0  0  0
  -43.6461  -30.1939   -1.1977 N   0  0  0  0  0  0  0  0  0  0  0  0
  -44.7264  -29.4195    6.9757 O   0  0  0  0  0  0  0  0  0  0  0  0
  -42.6712  -31.1739    0.6206 O   0  0  0  0  0  0  0  0  0  0  0  0
  -43.8266  -25.5852    0.4700 H   0  0  0  0  0  0  0  0  0  0  0  0
  -46.8285  -33.4194    0.6167 H   0  0  0  0  0  0  0  0  0  0  0  0
  -43.4382  -27.6608   -0.8370 H   0  0  0  0  0  0  0  0  0  0  0  0
  -44.0302  -25.6953    2.9448 H   0  0  0  0  0  0  0  0  0  0  0  0
  -45.6412  -31.4119   -0.2592 H   0  0  0  0  0  0  0  0  0  0  0  0
  -40.9452  -35.7932   -4.7343 H   0  0  0  0  0  0  0  0  0  0  0  0
  -43.3941  -29.9597    2.8173 H   0  0  0  0  0  0  0  0  0  0  0  0
  -46.2466  -35.6614   -0.2675 H   0  0  0  0  0  0  0  0  0  0  0  0
  -41.4858  -33.2818   -5.7147 H   0  0  0  0  0  0  0  0  0  0  0  0
  -42.5440  -36.1625   -2.6203 H   0  0  0  0  0  0  0  0  0  0  0  0
  -47.0655  -30.6376    5.7249 H   0  0  0  0  0  0  0  0  0  0  0  0
  -47.4750  -29.4212    6.9816 H   0  0  0  0  0  0  0  0  0  0  0  0
  -48.3984  -29.1953    4.4086 H   0  0  0  0  0  0  0  0  0  0  0  0
  -47.9720  -27.7486    5.3842 H   0  0  0  0  0  0  0  0  0  0  0  0
  -46.3429  -29.1764    3.2409 H   0  0  0  0  0  0  0  0  0  0  0  0
  -46.5146  -27.4152    3.5498 H   0  0  0  0  0  0  0  0  0  0  0  0
  -43.1208  -28.5572    4.9753 H   0  0  0  0  0  0  0  0  0  0  0  0
  -43.7965  -26.8928    4.9718 H   0  0  0  0  0  0  0  0  0  0  0  0
  -42.5046  -31.6502   -2.1511 H   0  0  0  0  0  0  0  0  0  0  0  0
  -43.9299  -31.0581   -3.0700 H   0  0  0  0  0  0  0  0  0  0  0  0
  -44.0638  -29.3598   -1.5581 H   0  0  0  0  0  0  0  0  0  0  0  0
  1  3  2  0  0  0  0
  1  4  1  0  0  0  0
  2  5  2  0  0  0  0
  2  8  1  0  0  0  0
  3 11  1  0  0  0  0
  4 12  2  0  0  0  0
  5 13  1  0  0  0  0
  6  9  1  0  0  0  0
  6 10  2  0  0  0  0
  7 11  2  0  0  0  0
  7 12  1  0  0  0  0
  8 22  2  0  0  0  0
  9 23  2  0  0  0  0
 10 24  1  0  0  0  0
 11 16  1  0  0  0  0
 12 20  1  0  0  0  0
 13 14  2  0  0  0  0
 13 21  1  0  0  0  0
 14 22  1  0  0  0  0
 14 24  1  0  0  0  0
 15 17  1  0  0  0  0
 15 25  1  0  0  0  0
 15 27  2  0  0  0  0
 16 26  1  0  0  0  0
 16 28  2  0  0  0  0
 17 18  1  0  0  0  0
 18 19  1  0  0  0  0
 19 25  1  0  0  0  0
 20 25  1  0  0  0  0
 21 26  1  0  0  0  0
 23 24  1  0  0  0  0
  1 29  1  0  0  0  0
  2 30  1  0  0  0  0
  3 31  1  0  0  0  0
  4 32  1  0  0  0  0
  5 33  1  0  0  0  0
  6 34  1  0  0  0  0
  7 35  1  0  0  0  0
  8 36  1  0  0  0  0
  9 37  1  0  0  0  0
 10 38  1  0  0  0  0
 17 39  1  0  0  0  0
 17 40  1  0  0  0  0
 18 41  1  0  0  0  0
 18 42  1  0  0  0  0
 19 43  1  0  0  0  0
 19 44  1  0  0  0  0
 20 45  1  0  0  0  0
 20 46  1  0  0  0  0
 21 47  1  0  0  0  0
 21 48  1  0  0  0  0
 26 49  1  0  0  0  0
M  END
> <POSIT::Probability>
0.25

> <POSIT::Method>
SHAPEFIT

> <ReceptorTitle>
UCSF-P4528-REFINED_LIGAND-BOUND-STATE_A__DU__LA1_A-201(A)

> <OMEGA_C>
mvMuwltG1MFqRno/hUE4wpgXBsIKbg6+iQ4uwmyr3cH4C3U+d2IvwmPF1MGnOhhAR441wleWAcJa
nh+/oaYmwtZdDMLxuIrAF/UtwncZ6MHjqxNA1e82wnMpC8IiGCa/LNQnwvj4BsJLgZvAmuMpwrkj
DcLMuE/ARI0twsai58FebGY/Ftwuwiyq3sF3/EJAyn0xwnA9AsJyKsy/angwwlN8B8IiqAbAwQo2
wh0v6cHAWsJAoLoswlpu8cE0aeY9Vuw7wtah7MFhX8BAYVk+wq1x5cHqN55AfKY5wmE748F5q4BA
H5Yvwrg638EFmJFAqj0uwmDN+sEi3gTAvCgzwuzIC8Kwls2/f40rwrDMBMLakIPAGbMswoVoCMJQ
UkjAKuY0wnCJ48EiwJxAnJUuwgWN8cGCTpm/3ecywh1b68EtOd9ARa8qwg5k+cGO3h4/b04vwoiu
zMHSpfA+XFA7woCtBcLo3x0/vMAtwmpJ3cHXQla/7x4wwg+QzcFTeDxAlJA2wp1L+8HtsIS+3Mcj
wjosD8ISf5fAm5MtwoKt78HiTTRAjfw4wj+lDsLK+oi+b/ElwokgBcLK3rbAEy0qwmemEMJXsyfA
CUM8wtUZ9cF3MrdAY+Y9wqle68GEad9A/JdBwgWQ6cEbE41AYeM/wiL93cGFS6xAFl85wk1p6cFb
ak9A7Q46wmpS28HuL2NAtHsswhV15MH6NZ9AlC8vwnIk18E1GZ9ArQQqwqgz/cGTqwnAQLgvwgp3
+MEse0TAXUEwwuPg6sEAb8e/

> <OMEGA_E>
Kq6SPw==

> <OMEGA_NBR>
    123734

$$$$
CACHE3HI_1707_55
  -OEChem-03092622573D

 46 48  0     1  0  0  0  0  0999 V2000
  -43.7642  -36.2496   -3.3081 C   0  0  0  0  0  0  0  0  0  0  0  0
  -43.1985  -35.1554   -3.9936 C   0  0  0  0  0  0  0  0  0  0  0  0
  -44.4419  -36.0520   -2.0890 C   0  0  0  0  0  0  0  0  0  0  0  0
  -43.2843  -33.8613   -3.4487 C   0  0  0  0  0  0  0  0  0  0  0  0
  -45.2726  -34.5452   -0.3590 C   0  0  0  0  0  0  0  0  0  0  0  0
  -45.4062  -33.2457    0.1576 C   0  0  0  0  0  0  0  0  0  0  0  0
  -44.0651  -32.3669   -1.6902 C   0  0  0  0  0  0  0  0  0  0  0  0
  -44.5550  -34.7557   -1.5522 C   0  0  0  0  0  0  0  0  0  0  0  0
  -43.9586  -33.6595   -2.2268 C   0  0  0  0  0  0  0  0  0  0  0  0
  -44.8056  -32.1477   -0.5058 C   0  0  0  0  0  0  0  0  0  0  0  0
  -44.9691  -30.7778    0.0151 C   0  0  0  0  0  0  0  0  0  0  0  0
  -46.0328  -29.2287    5.4085 C   0  0  0  0  0  0  0  0  0  0  0  0
  -41.7195  -28.8119    0.7648 C   0  0  0  0  0  0  0  0  0  0  0  0
  -42.5693  -27.9788   -0.2242 C   0  0  0  0  0  0  0  0  0  0  0  0
  -42.2221  -28.6393    2.2107 C   0  0  0  0  0  0  0  0  0  0  0  0
  -44.4800  -28.0516    1.3694 C   0  0  0  0  0  0  0  0  0  0  0  0
  -44.0632  -28.3451   -0.0943 C   0  0  2  0  0  0  0  0  0  0  0  0
  -45.5265  -29.4777    3.9767 C   0  0  0  0  0  0  0  0  0  0  0  0
  -44.1584  -28.7937    3.7416 C   0  0  0  0  0  0  0  0  0  0  0  0
  -43.6871  -28.8871    2.3286 N   0  0  2  0  0  0  0  0  0  0  0  0
  -44.1801  -29.7592   -0.5252 N   0  0  0  0  0  0  0  0  0  0  0  0
  -45.7987  -30.5677    0.8910 O   0  0  0  0  0  0  0  0  0  0  0  0
  -45.2450  -29.2307    6.3478 O   0  0  0  0  0  0  0  0  0  0  0  0
  -47.3644  -29.0262    5.5984 O   0  0  0  0  0  0  0  0  0  0  0  0
  -43.6778  -37.2444   -3.7196 H   0  0  0  0  0  0  0  0  0  0  0  0
  -42.6985  -35.3108   -4.9382 H   0  0  0  0  0  0  0  0  0  0  0  0
  -44.8737  -36.8933   -1.5673 H   0  0  0  0  0  0  0  0  0  0  0  0
  -42.8353  -33.0253   -3.9644 H   0  0  0  0  0  0  0  0  0  0  0  0
  -45.7196  -35.3815    0.1581 H   0  0  0  0  0  0  0  0  0  0  0  0
  -45.9695  -33.0831    1.0646 H   0  0  0  0  0  0  0  0  0  0  0  0
  -43.5800  -31.5375   -2.1834 H   0  0  0  0  0  0  0  0  0  0  0  0
  -41.7835  -29.8743    0.4868 H   0  0  0  0  0  0  0  0  0  0  0  0
  -40.6724  -28.4801    0.7065 H   0  0  0  0  0  0  0  0  0  0  0  0
  -42.4381  -26.9094   -0.0026 H   0  0  0  0  0  0  0  0  0  0  0  0
  -42.2341  -28.1842   -1.2516 H   0  0  0  0  0  0  0  0  0  0  0  0
  -41.6888  -29.3504    2.8587 H   0  0  0  0  0  0  0  0  0  0  0  0
  -42.0086  -27.6117    2.5401 H   0  0  0  0  0  0  0  0  0  0  0  0
  -44.3041  -26.9879    1.5877 H   0  0  0  0  0  0  0  0  0  0  0  0
  -45.5492  -28.2791    1.4921 H   0  0  0  0  0  0  0  0  0  0  0  0
  -44.6489  -27.7014   -0.7671 H   0  0  0  0  0  0  0  0  0  0  0  0
  -45.4185  -30.5608    3.8174 H   0  0  0  0  0  0  0  0  0  0  0  0
  -46.2579  -29.0730    3.2617 H   0  0  0  0  0  0  0  0  0  0  0  0
  -44.2487  -27.7308    4.0100 H   0  0  0  0  0  0  0  0  0  0  0  0
  -43.4117  -29.2738    4.3912 H   0  0  0  0  0  0  0  0  0  0  0  0
  -43.6173  -30.0192   -1.3098 H   0  0  0  0  0  0  0  0  0  0  0  0
  -47.5370  -28.8990    6.5239 H   0  0  0  0  0  0  0  0  0  0  0  0
  1  2  1  0  0  0  0
  1  3  2  0  0  0  0
  2  4  2  0  0  0  0
  3  8  1  0  0  0  0
  4  9  1  0  0  0  0
  5  6  2  0  0  0  0
  5  8  1  0  0  0  0
  6 10  1  0  0  0  0
  7  9  1  0  0  0  0
  7 10  2  0  0  0  0
  8  9  2  0  0  0  0
 10 11  1  0  0  0  0
 11 21  1  0  0  0  0
 11 22  2  0  0  0  0
 12 18  1  0  0  0  0
 12 23  2  0  0  0  0
 12 24  1  0  0  0  0
 13 14  1  0  0  0  0
 13 15  1  0  0  0  0
 14 17  1  0  0  0  0
 15 20  1  0  0  0  0
 16 17  1  0  0  0  0
 16 20  1  0  0  0  0
 17 21  1  0  0  0  0
 18 19  1  0  0  0  0
 19 20  1  0  0  0  0
  1 25  1  0  0  0  0
  2 26  1  0  0  0  0
  3 27  1  0  0  0  0
  4 28  1  0  0  0  0
  5 29  1  0  0  0  0
  6 30  1  0  0  0  0
  7 31  1  0  0  0  0
 13 32  1  0  0  0  0
 13 33  1  0  0  0  0
 14 34  1  0  0  0  0
 14 35  1  0  0  0  0
 15 36  1  0  0  0  0
 15 37  1  0  0  0  0
 16 38  1  0  0  0  0
 16 39  1  0  0  0  0
 17 40  1  0  0  0  0
 18 41  1  0  0  0  0
 18 42  1  0  0  0  0
 19 43  1  0  0  0  0
 19 44  1  0  0  0  0
 21 45  1  0  0  0  0
 24 46  1  0  0  0  0
M  END
> <POSIT::Probability>
0.51

> <POSIT::Method>
SHAPEFIT

> <ReceptorTitle>
UCSF-P4528-REFINED_LIGAND-BOUND-STATE_A__DU__LA1_A-201(A)

> <OMEGA_C>
lw4vwpr/EMJmt1PAOMsswhefDML0ln/AeMQxwjc1EMKAsQXAHCMtwvpxB8IcuFzAMBc1wlIuCsJM
y7e+/581wp/7BMKIXiE+oUIwwsF3AcIUWti/STgywswFC8IMrca/pNUvwlSjBsK1gw7A9zgzwkiX
AMKtewG/UeAzwuo49sGArXY8niE4wnHU6cEHEq1AzeAmws5+5sEiykM/7UYqwq3U38HMmGW+ZuMo
wk8d5cGEew1Agesxwp5p4MEXSq8/w0AwwsTC4sGAKcG9IRs2wmzS68EOg35AMKIwwoBZ5sE0dm9A
lL8uwtgY58FiBxVAcLgwwssS7sG2dga/6zE3wraK9MFuGGQ/4/o0wpHY6cEQIctAHXU9wpI16MHU
JbNAB7Yuwj/6FMLdDW7AR8sqwjw+DcLIBZ7ApX4zwraSE8K1nMi/X1crwusZBMJFuX3A1+A2wqGG
DcIS5CE+uuA3whVVBMIDRog/8VEuwttM/MG7vAvAUCInwoX+7sEUO/k+irAiwi3X48He3jQ/kcAp
wn5G18EZqSq7v+8owkZ54cFDNKC/VMEmwpDN6sG99TZAwggowtXk3MFDkCJAXzcxwjHn18FlOcs/
XDI2wpw74sEn/r4/fJgywoOc3cF4YkS/law1wnV89MGtT3RAGQg5woiV6MF5wFBArP4wwqXY3cED
UoBAlaUtwqsw6sHIhIxAGnguwmgn8MH+qKe/1yU+whIx58F1w9BA

> <OMEGA_E>
psqGPw==

> <OMEGA_NBR>
    125176

$$$$
CACHE3HI_1707_92
  -OEChem-03092622573D

 42 44  0     0  0  0  0  0  0999 V2000
  -48.4730  -30.6714    0.5994 C   0  0  0  0  0  0  0  0  0  0  0  0
  -47.3111  -31.2433    1.1176 C   0  0  0  0  0  0  0  0  0  0  0  0
  -49.0729  -29.5964    1.2551 C   0  0  0  0  0  0  0  0  0  0  0  0
  -46.7490  -30.7403    2.2911 C   0  0  0  0  0  0  0  0  0  0  0  0
  -48.5108  -29.0934    2.4286 C   0  0  0  0  0  0  0  0  0  0  0  0
  -45.5149  -28.4801    5.8434 C   0  0  0  0  0  0  0  0  0  0  0  0
  -47.3490  -29.6653    2.9469 C   0  0  0  0  0  0  0  0  0  0  0  0
  -45.4596  -29.1060    4.5836 C   0  0  0  0  0  0  0  0  0  0  0  0
  -46.7667  -29.1446    4.1626 C   0  0  0  0  0  0  0  0  0  0  0  0
  -44.2856  -29.6172    3.8568 C   0  0  0  0  0  0  0  0  0  0  0  0
  -43.5604  -26.8333    0.1755 C   0  0  0  0  0  0  0  0  0  0  0  0
  -44.9513  -28.4903    1.6650 C   0  0  0  0  0  0  0  0  0  0  0  0
  -42.8285  -28.6350    1.9420 C   0  0  0  0  0  0  0  0  0  0  0  0
  -43.7315  -28.2738    0.7330 C   0  0  0  0  0  0  0  0  0  0  0  0
  -43.6575  -29.3111   -0.3906 C   0  0  0  0  0  0  0  0  0  0  0  0
  -49.6972  -29.6596    5.0437 C   0  0  0  0  0  0  0  0  0  0  0  0
  -48.9272  -28.3582    5.1877 C   0  0  0  0  0  0  0  0  0  0  0  0
  -46.7580  -28.1452    6.1990 N   0  0  0  0  0  0  0  0  0  0  0  0
  -47.4966  -28.5622    5.1567 N   0  0  0  0  0  0  0  0  0  0  0  0
  -44.0308  -29.0653    2.6279 N   0  0  0  0  0  0  0  0  0  0  0  0
  -43.6211  -30.5106    4.3757 O   0  0  0  0  0  0  0  0  0  0  0  0
  -44.3031  -25.8938    0.4187 O   0  0  0  0  0  0  0  0  0  0  0  0
  -42.4707  -26.7571   -0.6266 O   0  0  0  0  0  0  0  0  0  0  0  0
  -48.9113  -31.0633   -0.3137 H   0  0  0  0  0  0  0  0  0  0  0  0
  -46.8432  -32.0798    0.6067 H   0  0  0  0  0  0  0  0  0  0  0  0
  -49.9779  -29.1517    0.8517 H   0  0  0  0  0  0  0  0  0  0  0  0
  -45.8435  -31.1977    2.6827 H   0  0  0  0  0  0  0  0  0  0  0  0
  -48.9907  -28.2546    2.9274 H   0  0  0  0  0  0  0  0  0  0  0  0
  -44.7029  -28.2531    6.5198 H   0  0  0  0  0  0  0  0  0  0  0  0
  -45.4335  -27.5808    2.0403 H   0  0  0  0  0  0  0  0  0  0  0  0
  -45.7125  -29.1876    1.3010 H   0  0  0  0  0  0  0  0  0  0  0  0
  -42.1014  -29.4367    1.7789 H   0  0  0  0  0  0  0  0  0  0  0  0
  -42.3411  -27.7923    2.4446 H   0  0  0  0  0  0  0  0  0  0  0  0
  -43.7798  -30.3074    0.0257 H   0  0  0  0  0  0  0  0  0  0  0  0
  -42.6926  -29.2425   -0.8858 H   0  0  0  0  0  0  0  0  0  0  0  0
  -44.4481  -29.1222   -1.1131 H   0  0  0  0  0  0  0  0  0  0  0  0
  -49.4532  -30.1620    4.1018 H   0  0  0  0  0  0  0  0  0  0  0  0
  -50.7745  -29.4669    5.0581 H   0  0  0  0  0  0  0  0  0  0  0  0
  -49.4632  -30.3498    5.8608 H   0  0  0  0  0  0  0  0  0  0  0  0
  -49.1778  -27.8633    6.1322 H   0  0  0  0  0  0  0  0  0  0  0  0
  -49.1874  -27.6650    4.3795 H   0  0  0  0  0  0  0  0  0  0  0  0
  -42.3460  -25.8547   -0.9919 H   0  0  0  0  0  0  0  0  0  0  0  0
  1  2  1  0  0  0  0
  1  3  2  0  0  0  0
  2  4  2  0  0  0  0
  3  5  1  0  0  0  0
  4  7  1  0  0  0  0
  5  7  2  0  0  0  0
  6  8  1  0  0  0  0
  6 18  2  0  0  0  0
  7  9  1  0  0  0  0
  8  9  2  0  0  0  0
  8 10  1  0  0  0  0
  9 19  1  0  0  0  0
 10 20  1  0  0  0  0
 10 21  2  0  0  0  0
 11 14  1  0  0  0  0
 11 22  2  0  0  0  0
 11 23  1  0  0  0  0
 12 14  1  0  0  0  0
 12 20  1  0  0  0  0
 13 14  1  0  0  0  0
 13 20  1  0  0  0  0
 14 15  1  0  0  0  0
 16 17  1  0  0  0  0
 17 19  1  0  0  0  0
 18 19  1  0  0  0  0
  1 24  1  0  0  0  0
  2 25  1  0  0  0  0
  3 26  1  0  0  0  0
  4 27  1  0  0  0  0
  5 28  1  0  0  0  0
  6 29  1  0  0  0  0
 12 30  1  0  0  0  0
 12 31  1  0  0  0  0
 13 32  1  0  0  0  0
 13 33  1  0  0  0  0
 15 34  1  0  0  0  0
 15 35  1  0  0  0  0
 15 36  1  0  0  0  0
 16 37  1  0  0  0  0
 16 38  1  0  0  0  0
 16 39  1  0  0  0  0
 17 40  1  0  0  0  0
 17 41  1  0  0  0  0
 23 42  1  0  0  0  0
M  END
> <POSIT::Probability>
0.24

> <POSIT::Method>
FRED

> <ReceptorTitle>
UCSF-P4528-REFINED_LIGAND-BOUND-STATE_A__DU__LA1_A-201(A)

> <OMEGA_C>
YuRBwgZf9cFrcRk/lz49wl/y+cHUDY8/qkpEwn7F7MGyqKA/Bv86wjrs9cFBoRJAGAtCwlm/6MGz
bhtARQ82wknX48E8/bpAWGU9wppS7cFgmTxArdY1whjZ6MHsrJJAFRE7wi8o6cE0NIVAdSQxwhLw
7MGf1XZA3T0uwoiq1sFOujM+Fs4zwhjs48GGH9U/aVArwmIU5cHIkvg/De0uwqcw4sEtqDs/S6Eu
wip96sGi/ce+9MlGwtRG7cHsZaFAfrVDwq7d4sGMAaZALAg7wm4p4cGBXsZAhPw9wmN/5MGpA6VA
fx8wwq2F6MGjLyhACXwuwq0V9MH7BYxAXzYxwm4mz8EnY9Y+AuIpwoUO1sGNZiC/I6VDwpmB+MEM
o6C+fF87wrJRAMIkUxs/WOlHwr426cHuCFo/uF83wt6U+cEfsStAgfZDwlwJ4sHOWjtAzM8ywmIG
4sERotBA4bs1woKl3MEAlQJApNk2wiCA6cHUhqY/2mcownF+68GqseM/SF0pwrBW3sHddBxAiR4v
wpR18sFw6tI8NcUqwqrw6cEIwWK/2Moxwjj66MGGeY6/HNBFwrVL8cFNQoNADBlLwi+868Ek3KFA
WNpFwnfM8sFOi7tACLZEwhfo3sH7OsRA4b9EwtJR3cGjJIxAVmIpwnbWzsHW6n2/

> <OMEGA_E>
E+IGwQ==

> <OMEGA_NBR>
    126505

$$$$
CACHE3HI_1707_94
  -OEChem-03092622573D

 42 45  0     1  0  0  0  0  0999 V2000
  -40.7048  -30.8209    0.9221 C   0  0  0  0  0  0  0  0  0  0  0  0
  -39.9740  -31.2521    2.0270 C   0  0  0  0  0  0  0  0  0  0  0  0
  -41.8711  -30.0647    1.0845 C   0  0  0  0  0  0  0  0  0  0  0  0
  -40.3833  -30.9430    3.3268 C   0  0  0  0  0  0  0  0  0  0  0  0
  -42.3033  -29.7401    2.3860 C   0  0  0  0  0  0  0  0  0  0  0  0
  -43.4070  -29.0108    2.9108 C   0  0  0  0  0  0  0  0  0  0  0  0
  -41.5513  -30.1860    3.4749 C   0  0  0  0  0  0  0  0  0  0  0  0
  -43.3050  -29.0280    4.2826 C   0  0  0  0  0  0  0  0  0  0  0  0
  -44.4800  -28.3464    2.1648 C   0  0  0  0  0  0  0  0  0  0  0  0
  -47.8850  -28.9411    4.0645 C   0  0  0  0  0  0  0  0  0  0  0  0
  -46.3964  -28.7955    0.6697 C   0  0  0  0  0  0  0  0  0  0  0  0
  -46.1479  -30.2095    2.6572 C   0  0  0  0  0  0  0  0  0  0  0  0
  -49.2736  -29.3186    4.5393 C   0  0  0  0  0  0  0  0  0  0  0  0
  -47.8612  -28.5997    1.0271 C   0  0  0  0  0  0  0  0  0  0  0  0
  -48.2646  -31.2108    3.6233 C   0  0  0  0  0  0  0  0  0  0  0  0
  -47.6242  -29.9808    2.9852 C   0  0  1  0  0  0  0  0  0  0  0  0
  -44.1637  -28.4390    5.3290 C   0  0  0  0  0  0  0  0  0  0  0  0
  -42.1827  -29.7393    4.6138 N   0  0  0  0  0  0  0  0  0  0  0  0
  -45.6233  -29.0891    1.8710 N   0  0  0  0  0  0  0  0  0  0  0  0
  -44.2853  -27.1722    1.8583 O   0  0  0  0  0  0  0  0  0  0  0  0
  -49.3907  -30.7393    4.3828 O   0  0  0  0  0  0  0  0  0  0  0  0
  -48.3641  -29.7024    1.7839 O   0  0  0  0  0  0  0  0  0  0  0  0
  -40.3660  -31.0731   -0.0793 H   0  0  0  0  0  0  0  0  0  0  0  0
  -39.0710  -31.8382    1.8771 H   0  0  0  0  0  0  0  0  0  0  0  0
  -42.4294  -29.7353    0.2131 H   0  0  0  0  0  0  0  0  0  0  0  0
  -39.8140  -31.2797    4.1868 H   0  0  0  0  0  0  0  0  0  0  0  0
  -47.8463  -27.9000    3.7369 H   0  0  0  0  0  0  0  0  0  0  0  0
  -47.1742  -29.0638    4.8912 H   0  0  0  0  0  0  0  0  0  0  0  0
  -46.2832  -29.6597    0.0045 H   0  0  0  0  0  0  0  0  0  0  0  0
  -46.0077  -27.9151    0.1495 H   0  0  0  0  0  0  0  0  0  0  0  0
  -45.5661  -30.3797    3.5671 H   0  0  0  0  0  0  0  0  0  0  0  0
  -46.0354  -31.1008    2.0269 H   0  0  0  0  0  0  0  0  0  0  0  0
  -49.4466  -29.0486    5.5848 H   0  0  0  0  0  0  0  0  0  0  0  0
  -50.0478  -28.8480    3.9241 H   0  0  0  0  0  0  0  0  0  0  0  0
  -48.0184  -27.6650    1.5746 H   0  0  0  0  0  0  0  0  0  0  0  0
  -48.4571  -28.5354    0.1107 H   0  0  0  0  0  0  0  0  0  0  0  0
  -48.6229  -31.9396    2.8899 H   0  0  0  0  0  0  0  0  0  0  0  0
  -47.5889  -31.7116    4.3254 H   0  0  0  0  0  0  0  0  0  0  0  0
  -44.9576  -29.1338    5.6529 H   0  0  0  0  0  0  0  0  0  0  0  0
  -44.6796  -27.5292    4.9768 H   0  0  0  0  0  0  0  0  0  0  0  0
  -43.5740  -28.1661    6.2195 H   0  0  0  0  0  0  0  0  0  0  0  0
  -41.8611  -29.9136    5.5561 H   0  0  0  0  0  0  0  0  0  0  0  0
  1  2  1  0  0  0  0
  1  3  2  0  0  0  0
  2  4  2  0  0  0  0
  3  5  1  0  0  0  0
  4  7  1  0  0  0  0
  5  6  1  0  0  0  0
  5  7  2  0  0  0  0
  6  8  2  0  0  0  0
  6  9  1  0  0  0  0
  7 18  1  0  0  0  0
  8 17  1  0  0  0  0
  8 18  1  0  0  0  0
  9 19  1  0  0  0  0
  9 20  2  0  0  0  0
 10 13  1  0  0  0  0
 10 16  1  0  0  0  0
 11 14  1  0  0  0  0
 11 19  1  0  0  0  0
 12 16  1  0  0  0  0
 12 19  1  0  0  0  0
 13 21  1  0  0  0  0
 14 22  1  0  0  0  0
 15 16  1  0  0  0  0
 15 21  1  0  0  0  0
 16 22  1  0  0  0  0
  1 23  1  0  0  0  0
  2 24  1  0  0  0  0
  3 25  1  0  0  0  0
  4 26  1  0  0  0  0
 10 27  1  0  0  0  0
 10 28  1  0  0  0  0
 11 29  1  0  0  0  0
 11 30  1  0  0  0  0
 12 31  1  0  0  0  0
 12 32  1  0  0  0  0
 13 33  1  0  0  0  0
 13 34  1  0  0  0  0
 14 35  1  0  0  0  0
 14 36  1  0  0  0  0
 15 37  1  0  0  0  0
 15 38  1  0  0  0  0
 17 39  1  0  0  0  0
 17 40  1  0  0  0  0
 17 41  1  0  0  0  0
 18 42  1  0  0  0  0
M  END
> <POSIT::Probability>
0.02

> <POSIT::Method>
FRED

> <ReceptorTitle>
UCSF-P4528-REFINED_LIGAND-BOUND-STATE_A__DU__LA1_A-201(A)

> <OMEGA_C>
uNEiwh6R9sE4DWw/XeUfwlIE+sFEugFA+Hsnwo6E8MGI0oo/hYghwliL98HK6lRAjTYpwsHr7cHG
tBhAxKAtwhIW6MF8SjpAfjQmwt188cEYZV5ATjgtwmk56MEaC4lAe+sxwlTF4sGMiwpARYo/wniH
58GnEIJA6pU5wkRd5sH4cys/dJc4whSt8cGaDypAIRhFwnmM6sGeQZFA5nE/wjzM5MH4d4M/+g5B
wq2v+cGq5GdALH8+wr7Y78FIDT9AqqcwwiCD48FOh6pACrsowiTq7cH0o5NAN342woy26MFYfe8/
HyQxwrBg2cEo3O0/HpBFwgzq9cETQIxAz3RBwnSe7cH8VeQ/wnYhwp2V+MHAeKK9rUgcwou0/sHc
RPA/rbcpwvTh7cFAP1o+jkEfwuI8+sGE+oVAnWI/wksz38HwKW9AYLI8wriC6MH9hJxABCI5wgRH
7cEANJI73Ac4wg1S38FAHBk+p0M2wqYJ88G4SmRASCQ4woTO+MEWuQFASslFwopj6MGetrJA7jBI
wrfI5sF6JHtA3BJAwtRR3cH0jck/BdRBwnRI5MEAwOI94n1CwjyE/8F08zhAEFs+wmqx/cG5aYpA
idQzwvER6cFM5LRA6LcywrU73MECQp9Ayksuwi5U4cHvBcdAuHEnwiBP78H7y7FA

> <OMEGA_E>
nooLwQ==

> <OMEGA_NBR>
    127839

$$$$
CACHE3HI_1707_99
  -OEChem-03092622573D

 48 50  0     0  0  0  0  0  0999 V2000
  -48.8922  -28.6600    7.0697 C   0  0  0  0  0  0  0  0  0  0  0  0
  -49.3304  -28.5232    5.7391 C   0  0  0  0  0  0  0  0  0  0  0  0
  -45.6726  -34.6665   -0.3465 C   0  0  0  0  0  0  0  0  0  0  0  0
  -44.9523  -34.7169   -1.5523 C   0  0  0  0  0  0  0  0  0  0  0  0
  -47.5473  -28.9752    7.3389 C   0  0  0  0  0  0  0  0  0  0  0  0
  -48.4174  -28.6712    4.6779 C   0  0  0  0  0  0  0  0  0  0  0  0
  -45.7767  -33.4513    0.3566 C   0  0  0  0  0  0  0  0  0  0  0  0
  -44.4422  -32.3348   -1.3518 C   0  0  0  0  0  0  0  0  0  0  0  0
  -44.3388  -33.5464   -2.0626 C   0  0  0  0  0  0  0  0  0  0  0  0
  -46.6285  -29.1328    6.2800 C   0  0  0  0  0  0  0  0  0  0  0  0
  -47.0639  -28.9710    4.9406 C   0  0  0  0  0  0  0  0  0  0  0  0
  -45.1479  -32.2851   -0.1389 C   0  0  0  0  0  0  0  0  0  0  0  0
  -43.6489  -33.5716   -3.3604 C   0  0  0  0  0  0  0  0  0  0  0  0
  -43.8531  -29.8674    3.1423 C   0  0  0  0  0  0  0  0  0  0  0  0
  -45.2265  -29.6231    6.5857 C   0  0  0  0  0  0  0  0  0  0  0  0
  -46.0862  -29.0149    3.7793 C   0  0  0  0  0  0  0  0  0  0  0  0
  -44.2308  -29.2181    5.4938 C   0  0  0  0  0  0  0  0  0  0  0  0
  -43.2931  -34.7186   -5.5483 C   0  0  0  0  0  0  0  0  0  0  0  0
  -45.3011  -30.9690    0.5911 C   0  0  0  0  0  0  0  0  0  0  0  0
  -43.9649  -30.1852    0.6898 C   0  0  0  0  0  0  0  0  0  0  0  0
  -44.7572  -29.5469    4.1560 N   0  0  0  0  0  0  0  0  0  0  0  0
  -43.9466  -34.5890   -4.2522 N   0  0  0  0  0  0  0  0  0  0  0  0
  -44.0177  -29.3223    1.8705 N   0  0  0  0  0  0  0  0  0  0  0  0
  -42.8755  -32.6711   -3.6744 O   0  0  0  0  0  0  0  0  0  0  0  0
  -42.9679  -30.6923    3.3456 O   0  0  0  0  0  0  0  0  0  0  0  0
  -49.5881  -28.5230    7.8842 H   0  0  0  0  0  0  0  0  0  0  0  0
  -50.3677  -28.3046    5.5322 H   0  0  0  0  0  0  0  0  0  0  0  0
  -46.1450  -35.5577    0.0397 H   0  0  0  0  0  0  0  0  0  0  0  0
  -44.8665  -35.6492   -2.0907 H   0  0  0  0  0  0  0  0  0  0  0  0
  -47.2174  -29.0970    8.3600 H   0  0  0  0  0  0  0  0  0  0  0  0
  -48.7543  -28.5548    3.6585 H   0  0  0  0  0  0  0  0  0  0  0  0
  -46.3387  -33.4093    1.2779 H   0  0  0  0  0  0  0  0  0  0  0  0
  -43.9770  -31.4412   -1.7409 H   0  0  0  0  0  0  0  0  0  0  0  0
  -44.8995  -29.1917    7.5433 H   0  0  0  0  0  0  0  0  0  0  0  0
  -45.2422  -30.7202    6.6640 H   0  0  0  0  0  0  0  0  0  0  0  0
  -46.5085  -29.6551    2.9907 H   0  0  0  0  0  0  0  0  0  0  0  0
  -45.9570  -27.9934    3.3922 H   0  0  0  0  0  0  0  0  0  0  0  0
  -44.0506  -28.1346    5.5540 H   0  0  0  0  0  0  0  0  0  0  0  0
  -43.2845  -29.7565    5.6512 H   0  0  0  0  0  0  0  0  0  0  0  0
  -43.6931  -35.5977   -6.0749 H   0  0  0  0  0  0  0  0  0  0  0  0
  -43.4831  -33.8153   -6.1465 H   0  0  0  0  0  0  0  0  0  0  0  0
  -42.2097  -34.8405   -5.4021 H   0  0  0  0  0  0  0  0  0  0  0  0
  -46.0342  -30.3503    0.0528 H   0  0  0  0  0  0  0  0  0  0  0  0
  -45.6679  -31.1705    1.6084 H   0  0  0  0  0  0  0  0  0  0  0  0
  -43.1268  -30.8914    0.7837 H   0  0  0  0  0  0  0  0  0  0  0  0
  -43.8277  -29.5712   -0.2125 H   0  0  0  0  0  0  0  0  0  0  0  0
  -44.6393  -35.2631   -3.9956 H   0  0  0  0  0  0  0  0  0  0  0  0
  -44.1720  -28.3399    1.7645 H   0  0  0  0  0  0  0  0  0  0  0  0
  1  2  1  0  0  0  0
  1  5  2  0  0  0  0
  2  6  2  0  0  0  0
  3  4  2  0  0  0  0
  3  7  1  0  0  0  0
  4  9  1  0  0  0  0
  5 10  1  0  0  0  0
  6 11  1  0  0  0  0
  7 12  2  0  0  0  0
  8  9  2  0  0  0  0
  8 12  1  0  0  0  0
  9 13  1  0  0  0  0
 10 11  2  0  0  0  0
 10 15  1  0  0  0  0
 11 16  1  0  0  0  0
 12 19  1  0  0  0  0
 13 22  1  0  0  0  0
 13 24  2  0  0  0  0
 14 21  1  0  0  0  0
 14 23  1  0  0  0  0
 14 25  2  0  0  0  0
 15 17  1  0  0  0  0
 16 21  1  0  0  0  0
 17 21  1  0  0  0  0
 18 22  1  0  0  0  0
 19 20  1  0  0  0  0
 20 23  1  0  0  0  0
  1 26  1  0  0  0  0
  2 27  1  0  0  0  0
  3 28  1  0  0  0  0
  4 29  1  0  0  0  0
  5 30  1  0  0  0  0
  6 31  1  0  0  0  0
  7 32  1  0  0  0  0
  8 33  1  0  0  0  0
 15 34  1  0  0  0  0
 15 35  1  0  0  0  0
 16 36  1  0  0  0  0
 16 37  1  0  0  0  0
 17 38  1  0  0  0  0
 17 39  1  0  0  0  0
 18 40  1  0  0  0  0
 18 41  1  0  0  0  0
 18 42  1  0  0  0  0
 19 43  1  0  0  0  0
 19 44  1  0  0  0  0
 20 45  1  0  0  0  0
 20 46  1  0  0  0  0
 22 47  1  0  0  0  0
 23 48  1  0  0  0  0
M  END
> <POSIT::Probability>
0.51

> <POSIT::Method>
SHAPEFIT

> <ReceptorTitle>
UCSF-P4528-REFINED_LIGAND-BOUND-STATE_A__DU__LA1_A-201(A)

> <OMEGA_C>
o5FDwqBH5cEcO+JAYVJFwnwv5MHmprdAxLA2woqqCsKqZbG+L88zwhfeCsIks8a/ejA+wkzN58Hs
1+pAaatBwq1e5cGwsZVATxs3wijOBcJQl7Y+xMQxwt5WAcJeBq2/8Voxwo4vBsKVAQTAoIM6whEQ
6cF99chAdkE8wqXE58GaGZ5AfZc0wukjAcJYRg6+cZguwlFJBsISEFfAimkvwnHw7sG0G0lA9ec0
wg387ME4vtJATVg4wnse6MGc33FAU+wwwri+6cE5za9ALywtwt7fCsL/i7HAUDQ1wpjA98EeURc/
GtwvwlZ78cHalDA/XQczwh1g7MHK/YRAVckvwiBbCsKpEYjAFRIwwvmT6sEDbO8/eoArwjmvAsIg
KWvAKt8rwsWJ9cGeHlZAPVpGwg0v5ME2S/xAenhJwrpv4sHyB7FAepQ4whM7DsIAhSI9RnczwsyY
DsJzzQXAkt48wqzG6MF2wgVBbQRDwlNw5MFDJGpAz1o5wiWjBcK+kqM/c+gvwoOH+8Fa1N6/I5kz
wrOI6cEZY/FAB/g0wufC9cHQP9VArwg6wq897cESaD9AAdQ3wm7y38HJGVlA2TMwwsMT4cGaurFA
WiMtwkEN7sGG1rRAt8Uuwg1kDsKLZcLAqu4twtFCB8KIsMTAyNYowqRcC8LP3azA/CI4wlXN8sEC
alg96Ks2wjZd+cEJ380/2IEswpoh98GsoEg/jk8vws6R7MEFn1m+qY4ywl4NDcJ7uH/AJbAwwjS4
4sHs2eE/

> <OMEGA_E>
EXaDPw==

> <OMEGA_NBR>
    129315

$$$$
CACHE3HI_1708_21
  -OEChem-03092622573D

 31 33  0     0  0  0  0  0  0999 V2000
  -42.0178  -30.8504    2.9346 C   0  0  0  0  0  0  0  0  0  0  0  0
  -48.5718  -28.0215    6.0616 C   0  0  0  0  0  0  0  0  0  0  0  0
  -47.3964  -27.8694    5.3238 C   0  0  0  0  0  0  0  0  0  0  0  0
  -49.1627  -29.9774    4.7728 C   0  0  0  0  0  0  0  0  0  0  0  0
  -47.4756  -30.6514    2.9267 C   0  0  0  0  0  0  0  0  0  0  0  0
  -47.9786  -29.8510    4.0065 C   0  0  0  0  0  0  0  0  0  0  0  0
  -49.4468  -29.0644    5.7911 C   0  0  0  0  0  0  0  0  0  0  0  0
  -47.1123  -28.7928    4.2986 C   0  0  0  0  0  0  0  0  0  0  0  0
  -46.2733  -30.1966    2.4387 C   0  0  0  0  0  0  0  0  0  0  0  0
  -45.4534  -30.7481    1.3436 C   0  0  0  0  0  0  0  0  0  0  0  0
  -43.6204  -28.9169    1.5759 C   0  0  0  0  0  0  0  0  0  0  0  0
  -43.1907  -30.4909    0.1844 C   0  0  0  0  0  0  0  0  0  0  0  0
  -42.3232  -29.4513    0.9279 C   0  0  0  0  0  0  0  0  0  0  0  0
  -41.3294  -30.0600    1.9097 C   0  0  0  0  0  0  0  0  0  0  0  0
  -42.5587  -31.4771    3.7469 N   0  0  0  0  0  0  0  0  0  0  0  0
  -44.2831  -30.0961    1.0538 N   0  0  0  0  0  0  0  0  0  0  0  0
  -45.8492  -31.7604    0.7708 O   0  0  0  0  0  0  0  0  0  0  0  0
  -41.6392  -28.5155    0.0680 O   0  0  0  0  0  0  0  0  0  0  0  0
  -50.5704  -29.1959    6.5089 F   0  0  0  0  0  0  0  0  0  0  0  0
  -45.7322  -28.8071    3.2649 S   0  0  0  0  0  0  0  0  0  0  0  0
  -48.8020  -27.3161    6.8556 H   0  0  0  0  0  0  0  0  0  0  0  0
  -46.7170  -27.0505    5.5428 H   0  0  0  0  0  0  0  0  0  0  0  0
  -49.8588  -30.7877    4.5720 H   0  0  0  0  0  0  0  0  0  0  0  0
  -47.9835  -31.5235    2.5324 H   0  0  0  0  0  0  0  0  0  0  0  0
  -43.6167  -28.8545    2.6675 H   0  0  0  0  0  0  0  0  0  0  0  0
  -44.0118  -27.9886    1.1491 H   0  0  0  0  0  0  0  0  0  0  0  0
  -43.3915  -30.2734   -0.8688 H   0  0  0  0  0  0  0  0  0  0  0  0
  -42.8931  -31.5364    0.3002 H   0  0  0  0  0  0  0  0  0  0  0  0
  -40.7536  -29.2585    2.3806 H   0  0  0  0  0  0  0  0  0  0  0  0
  -40.6244  -30.6912    1.3619 H   0  0  0  0  0  0  0  0  0  0  0  0
  -42.2694  -28.2978   -0.6291 H   0  0  0  0  0  0  0  0  0  0  0  0
  1 14  1  0  0  0  0
  1 15  3  0  0  0  0
  2  3  1  0  0  0  0
  2  7  2  0  0  0  0
  3  8  2  0  0  0  0
  4  6  2  0  0  0  0
  4  7  1  0  0  0  0
  5  6  1  0  0  0  0
  5  9  2  0  0  0  0
  6  8  1  0  0  0  0
  7 19  1  0  0  0  0
  8 20  1  0  0  0  0
  9 10  1  0  0  0  0
  9 20  1  0  0  0  0
 10 16  1  0  0  0  0
 10 17  2  0  0  0  0
 11 13  1  0  0  0  0
 11 16  1  0  0  0  0
 12 13  1  0  0  0  0
 12 16  1  0  0  0  0
 13 14  1  0  0  0  0
 13 18  1  0  0  0  0
  2 21  1  0  0  0  0
  3 22  1  0  0  0  0
  4 23  1  0  0  0  0
  5 24  1  0  0  0  0
 11 25  1  0  0  0  0
 11 26  1  0  0  0  0
 12 27  1  0  0  0  0
 12 28  1  0  0  0  0
 14 29  1  0  0  0  0
 14 30  1  0  0  0  0
 18 31  1  0  0  0  0
M  END
> <POSIT::Probability>
0.24

> <POSIT::Method>
FRED

> <ReceptorTitle>
UCSF-P4528-REFINED_LIGAND-BOUND-STATE_A__DU__LA1_A-201(A)

> <OMEGA_C>
OBIowqbN9sHgzztAjElCwu4r4MHX+MFA75U9wpP03sF2XKpAmqZEwsPR78FwuphA+eY9wv819cFO
TztAEOo/wt7O7sFMNYBAfslFwtSD6MG6ULlA8nI8wqVX5sE2jolA1Bc5wruS8cEwExxARdA1wjD8
9cGq+qs/TnsuwuhV58FOuMk/TsMswlLt88FA3jw+/kopwkOc68GYiG0/VlElws168MGwcPQ/ITwq
wgPR+8GSzW9A2CExwsXE8MH84oY/mmU3wmYV/sEwUkU/g44mwqYf5MFgLIs9HkhKwjuR6cGOSNBA
u+02wgd15sFe81BAMzVDwnmH2sFAYdtAM946woRn2MFkXrFAYW9HwjVN9sHuTZJAEO8/wiow/MEO
EiJAhHcuwgnW5sHTuCpAGwwwwpDo38HMFZM/3JAtwuAv8sFgal6/gZIrwp9K/MFYupk+rwMjwlsR
6sGmWxhAan8iwqeH9cG0Uq4/1BMpwvxh4sGgDyG/

> <OMEGA_E>
q94OwQ==

> <OMEGA_NBR>
    130423

$$$$
CACHE3HI_1708_51
  -OEChem-03092622573D

 32 34  0     0  0  0  0  0  0999 V2000
  -48.7655  -28.4106    5.4141 C   0  0  0  0  0  0  0  0  0  0  0  0
  -48.4635  -28.3648    4.0610 C   0  0  0  0  0  0  0  0  0  0  0  0
  -47.7571  -28.6834    6.3354 C   0  0  0  0  0  0  0  0  0  0  0  0
  -47.1537  -28.5935    3.6423 C   0  0  0  0  0  0  0  0  0  0  0  0
  -44.2402  -29.3883    6.3864 C   0  0  0  0  0  0  0  0  0  0  0  0
  -46.4454  -28.9129    5.9273 C   0  0  0  0  0  0  0  0  0  0  0  0
  -46.1379  -28.8669    4.5551 C   0  0  0  0  0  0  0  0  0  0  0  0
  -43.9399  -29.3440    5.0506 C   0  0  0  0  0  0  0  0  0  0  0  0
  -43.3745  -27.8886    0.7787 C   0  0  0  0  0  0  0  0  0  0  0  0
  -43.3286  -27.8270    2.3170 C   0  0  0  0  0  0  0  0  0  0  0  0
  -42.6914  -29.2661    0.8680 C   0  0  0  0  0  0  0  0  0  0  0  0
  -43.2373  -29.3785    2.3182 C   0  0  0  0  0  0  0  0  0  0  0  0
  -42.2548  -29.9648    3.3188 C   0  0  0  0  0  0  0  0  0  0  0  0
  -45.4893  -29.1745    6.8356 N   0  0  0  0  0  0  0  0  0  0  0  0
  -44.8823  -29.0832    4.1260 N   0  0  0  0  0  0  0  0  0  0  0  0
  -42.6071  -29.5783    4.6490 N   0  0  0  0  0  0  0  0  0  0  0  0
  -44.5034  -30.0664    2.4329 O   0  0  0  0  0  0  0  0  0  0  0  0
  -49.7816  -28.2357    5.7543 H   0  0  0  0  0  0  0  0  0  0  0  0
  -49.2408  -28.1540    3.3329 H   0  0  0  0  0  0  0  0  0  0  0  0
  -48.0088  -28.7158    7.3937 H   0  0  0  0  0  0  0  0  0  0  0  0
  -46.9302  -28.5559    2.5779 H   0  0  0  0  0  0  0  0  0  0  0  0
  -43.4982  -29.5967    7.1483 H   0  0  0  0  0  0  0  0  0  0  0  0
  -44.3721  -27.8838    0.3352 H   0  0  0  0  0  0  0  0  0  0  0  0
  -42.7625  -27.1248    0.2887 H   0  0  0  0  0  0  0  0  0  0  0  0
  -42.4750  -27.2895    2.7338 H   0  0  0  0  0  0  0  0  0  0  0  0
  -44.2466  -27.4372    2.7672 H   0  0  0  0  0  0  0  0  0  0  0  0
  -43.1083  -30.0075    0.1795 H   0  0  0  0  0  0  0  0  0  0  0  0
  -41.6056  -29.2530    0.7582 H   0  0  0  0  0  0  0  0  0  0  0  0
  -42.2610  -31.0571    3.2453 H   0  0  0  0  0  0  0  0  0  0  0  0
  -41.2413  -29.6190    3.0910 H   0  0  0  0  0  0  0  0  0  0  0  0
  -41.8974  -29.4621    5.3465 H   0  0  0  0  0  0  0  0  0  0  0  0
  -44.2881  -31.0066    2.4197 H   0  0  0  0  0  0  0  0  0  0  0  0
  1  2  1  0  0  0  0
  1  3  2  0  0  0  0
  2  4  2  0  0  0  0
  3  6  1  0  0  0  0
  4  7  1  0  0  0  0
  5  8  2  0  0  0  0
  5 14  1  0  0  0  0
  6  7  1  0  0  0  0
  6 14  2  0  0  0  0
  7 15  2  0  0  0  0
  8 15  1  0  0  0  0
  8 16  1  0  0  0  0
  9 10  1  0  0  0  0
  9 11  1  0  0  0  0
 10 12  1  0  0  0  0
 11 12  1  0  0  0  0
 12 13  1  0  0  0  0
 12 17  1  0  0  0  0
 13 16  1  0  0  0  0
  1 18  1  0  0  0  0
  2 19  1  0  0  0  0
  3 20  1  0  0  0  0
  4 21  1  0  0  0  0
  5 22  1  0  0  0  0
  9 23  1  0  0  0  0
  9 24  1  0  0  0  0
 10 25  1  0  0  0  0
 10 26  1  0  0  0  0
 11 27  1  0  0  0  0
 11 28  1  0  0  0  0
 13 29  1  0  0  0  0
 13 30  1  0  0  0  0
 16 31  1  0  0  0  0
 17 32  1  0  0  0  0
M  END
> <POSIT::Probability>
0.18

> <POSIT::Method>
FRED

> <ReceptorTitle>
UCSF-P4528-REFINED_LIGAND-BOUND-STATE_A__DU__LA1_A-201(A)

> <OMEGA_C>
2g9DwvBI48E+QK1AptpBwivr4sGe84FASQc/wqN35cH8u8pAXJ08wpC/5MGxG2lA8fUwwkYb68Ee
XcxACsg5wqxN58FgrL1APY04wn7v5sGww5FAb8IvwnXA6sF2nqFAhH8twuob38FkWkc/flAtwqqd
3sEpShRAAsQqwuIg6sGIM14/CvMswiYH68ERXhRA9QQpwue378HDZlRAF/U1wlxl6cEuvdpAc4cz
wnqq6MFuCIRAoW0qwnGg7MGixJRAgAMywvKH8MFStRtAXiBHwqfi4cELI7hAjvZEwlE74cGQTlVA
CwlAwge65cEImexAh7g7woJy5MGk/CRAKP4twv7F7MGWvuRAAX0xwhQS38HYnas+2AwrwoT/2MFg
0pM+buYpwthQ2sH99S5AjvwwwnJ/28GUGTFA4m4swl4P8MGgyjc+F2wmwjAG6sHoF0I/SQspwgZ1
+MGBs09AC/ckwsbz7MEM00VA85Ynwk6y68HSFqtAECcxwngN+MFh3BpA

> <OMEGA_E>
Qr4CwQ==

> <OMEGA_NBR>
    131552

$$$$
CACHE3HI_1708_7
  -OEChem-03092622573D

 35 37  0     1  0  0  0  0  0999 V2000
  -48.7420  -28.8628    6.1607 C   0  0  0  0  0  0  0  0  0  0  0  0
  -47.9664  -28.6803    3.8490 C   0  0  0  0  0  0  0  0  0  0  0  0
  -46.9313  -28.5365    2.9250 C   0  0  0  0  0  0  0  0  0  0  0  0
  -46.3631  -28.6064    5.6550 C   0  0  0  0  0  0  0  0  0  0  0  0
  -45.4453  -31.4945    0.0846 C   0  0  0  0  0  0  0  0  0  0  0  0
  -45.6235  -30.1617   -0.1891 C   0  0  0  0  0  0  0  0  0  0  0  0
  -47.6820  -28.7153    5.2141 C   0  0  0  0  0  0  0  0  0  0  0  0
  -45.6123  -28.4276    3.3660 C   0  0  0  0  0  0  0  0  0  0  0  0
  -45.3280  -28.4627    4.7311 C   0  0  0  0  0  0  0  0  0  0  0  0
  -42.4973  -28.5021    1.3982 C   0  0  0  0  0  0  0  0  0  0  0  0
  -43.4820  -29.2248    2.3129 C   0  0  0  0  0  0  0  0  0  0  0  0
  -44.4915  -27.1772    1.5013 C   0  0  0  0  0  0  0  0  0  0  0  0
  -43.3833  -27.6078    0.5301 C   0  0  2  0  0  0  0  0  0  0  0  0
  -43.9385  -28.3419   -0.6900 C   0  0  0  0  0  0  0  0  0  0  0  0
  -49.6029  -28.9828    6.9297 N   0  0  0  0  0  0  0  0  0  0  0  0
  -44.1118  -31.7949    0.0606 N   0  0  0  0  0  0  0  0  0  0  0  0
  -43.4478  -30.6795   -0.2222 N   0  0  0  0  0  0  0  0  0  0  0  0
  -44.3556  -29.7013   -0.3716 N   0  0  0  0  0  0  0  0  0  0  0  0
  -44.5907  -28.2848    2.4504 N   0  0  3  0  0  0  0  0  0  0  0  0
  -42.6532  -26.4700    0.0936 O   0  0  0  0  0  0  0  0  0  0  0  0
  -44.0642  -28.3586    5.1666 F   0  0  0  0  0  0  0  0  0  0  0  0
  -48.9892  -28.7640    3.4893 H   0  0  0  0  0  0  0  0  0  0  0  0
  -47.1636  -28.5099    1.8634 H   0  0  0  0  0  0  0  0  0  0  0  0
  -46.1258  -28.6317    6.7160 H   0  0  0  0  0  0  0  0  0  0  0  0
  -46.1956  -32.2417    0.2943 H   0  0  0  0  0  0  0  0  0  0  0  0
  -46.4989  -29.5328   -0.2657 H   0  0  0  0  0  0  0  0  0  0  0  0
  -41.7635  -27.9323    1.9828 H   0  0  0  0  0  0  0  0  0  0  0  0
  -41.9588  -29.2370    0.7827 H   0  0  0  0  0  0  0  0  0  0  0  0
  -43.8025  -30.1761    1.8751 H   0  0  0  0  0  0  0  0  0  0  0  0
  -43.0345  -29.4189    3.2944 H   0  0  0  0  0  0  0  0  0  0  0  0
  -44.2390  -26.2414    2.0172 H   0  0  0  0  0  0  0  0  0  0  0  0
  -45.4561  -27.0574    0.9905 H   0  0  0  0  0  0  0  0  0  0  0  0
  -43.1855  -28.3948   -1.4827 H   0  0  0  0  0  0  0  0  0  0  0  0
  -44.8039  -27.8082   -1.0978 H   0  0  0  0  0  0  0  0  0  0  0  0
  -42.3739  -26.0008    0.8940 H   0  0  0  0  0  0  0  0  0  0  0  0
  1  7  1  0  0  0  0
  1 15  3  0  0  0  0
  2  3  1  0  0  0  0
  2  7  2  0  0  0  0
  3  8  2  0  0  0  0
  4  7  1  0  0  0  0
  4  9  2  0  0  0  0
  5  6  2  0  0  0  0
  5 16  1  0  0  0  0
  6 18  1  0  0  0  0
  8  9  1  0  0  0  0
  8 19  1  0  0  0  0
  9 21  1  0  0  0  0
 10 11  1  0  0  0  0
 10 13  1  0  0  0  0
 11 19  1  0  0  0  0
 12 13  1  0  0  0  0
 12 19  1  0  0  0  0
 13 14  1  0  0  0  0
 13 20  1  0  0  0  0
 14 18  1  0  0  0  0
 16 17  2  0  0  0  0
 17 18  1  0  0  0  0
  2 22  1  0  0  0  0
  3 23  1  0  0  0  0
  4 24  1  0  0  0  0
  5 25  1  0  0  0  0
  6 26  1  0  0  0  0
 10 27  1  0  0  0  0
 10 28  1  0  0  0  0
 11 29  1  0  0  0  0
 11 30  1  0  0  0  0
 12 31  1  0  0  0  0
 12 32  1  0  0  0  0
 14 33  1  0  0  0  0
 14 34  1  0  0  0  0
 20 35  1  0  0  0  0
M  END
> <POSIT::Probability>
0.14

> <POSIT::Method>
HYBRID

> <ReceptorTitle>
UCSF-P4528-REFINED_LIGAND-BOUND-STATE_A__DU__LA1_A-201(A)

> <OMEGA_C>
yPdCwgzn5sHEJMVAjt0/wilx5cH9VXZAp7k7wsVK5MHsMztAxHM5wu7Z5MFu9bRAAMg1wsT0+8Fg
N609c342wiRL8cHAl0G+aro+wv+45cGE2aZAAnM2wrZr48G+a1dA4E81wo+z48HiZJdAMf0pwl0E
5MGA+bI/lu0twl/M6cHfBhRATfcxwtJq2cG1K8A/fogtwt3c3MHUsQc/CsEvwkm84sHooDC/V2lG
wrLc58FWwN1AcnIwwgNc/sEAEXg9h8otwqdv9cHAg2O+I2wxwlSc7cEoPb6+4lwywj9H4sFi0xxA
65wqworC08EAq789ykEwwlje4sGlVKVA5vRDwpIc5sFBUF9Ajqc8wjYU5MEPhO4/2oA4wsQN5cF2
6dZAQsg4wnj3AMJQspY+4v45wjxD7MHoDIi+xg0nwkh138HSy/0/z9Unwm7l6cGiX0g/vzUvwrJo
8cGLA/A/YSMswudZ68Eg2FJAsPQwwlHu0cEEGQFAC9M1wnt12MFKjn0/6r0swoEo48GwyL2/Jjcz
whp33sEEhIy/5X4pwqwB0MG022Q/

> <OMEGA_E>
18vfwA==

> <OMEGA_NBR>
    132750

$$$$
CACHE3HI_1708_70
  -OEChem-03092622573D

 43 45  0     1  0  0  0  0  0999 V2000
  -52.2249  -28.5210    4.2307 C   0  0  0  0  0  0  0  0  0  0  0  0
  -50.9677  -28.5596    3.6278 C   0  0  0  0  0  0  0  0  0  0  0  0
  -52.3889  -28.9977    5.5313 C   0  0  0  0  0  0  0  0  0  0  0  0
  -50.0387  -29.5510    5.6257 C   0  0  0  0  0  0  0  0  0  0  0  0
  -48.4204  -29.2505    2.3373 C   0  0  0  0  0  0  0  0  0  0  0  0
  -47.4081  -29.0174    4.4296 C   0  0  0  0  0  0  0  0  0  0  0  0
  -49.8747  -29.0743    4.3251 C   0  0  0  0  0  0  0  0  0  0  0  0
  -48.5761  -29.1134    3.7014 C   0  0  0  0  0  0  0  0  0  0  0  0
  -51.2959  -29.5124    6.2287 C   0  0  0  0  0  0  0  0  0  0  0  0
  -46.1567  -29.1889    2.5391 C   0  0  0  0  0  0  0  0  0  0  0  0
  -43.0537  -30.3719    0.7421 C   0  0  0  0  0  0  0  0  0  0  0  0
  -43.4309  -29.4532   -0.4194 C   0  0  0  0  0  0  0  0  0  0  0  0
  -44.2082  -30.5062    1.7418 C   0  0  0  0  0  0  0  0  0  0  0  0
  -44.1722  -28.0214    1.5636 C   0  0  0  0  0  0  0  0  0  0  0  0
  -43.8375  -28.0562    0.0712 C   0  0  1  0  0  0  0  0  0  0  0  0
  -51.4725  -30.0205    7.6199 C   0  0  0  0  0  0  0  0  0  0  0  0
  -52.5902  -29.3018    8.3816 C   0  0  0  0  0  0  0  0  0  0  0  0
  -47.2211  -29.2921    1.7204 N   0  0  0  0  0  0  0  0  0  0  0  0
  -46.1766  -29.0520    3.8791 N   0  0  0  0  0  0  0  0  0  0  0  0
  -44.9038  -29.2284    1.9365 N   0  0  3  0  0  0  0  0  0  0  0  0
  -42.7662  -27.1408   -0.1523 O   0  0  0  0  0  0  0  0  0  0  0  0
  -52.6863  -29.8318    9.6976 O   0  0  0  0  0  0  0  0  0  0  0  0
  -53.0760  -28.1204    3.6874 H   0  0  0  0  0  0  0  0  0  0  0  0
  -50.8558  -28.1845    2.6131 H   0  0  0  0  0  0  0  0  0  0  0  0
  -53.3719  -28.9641    5.9939 H   0  0  0  0  0  0  0  0  0  0  0  0
  -49.1902  -29.9535    6.1754 H   0  0  0  0  0  0  0  0  0  0  0  0
  -49.2741  -29.3321    1.6711 H   0  0  0  0  0  0  0  0  0  0  0  0
  -47.4177  -28.9077    5.5101 H   0  0  0  0  0  0  0  0  0  0  0  0
  -42.7895  -31.3603    0.3557 H   0  0  0  0  0  0  0  0  0  0  0  0
  -42.1725  -29.9761    1.2521 H   0  0  0  0  0  0  0  0  0  0  0  0
  -42.5873  -29.3680   -1.1216 H   0  0  0  0  0  0  0  0  0  0  0  0
  -44.2521  -29.8949   -1.0022 H   0  0  0  0  0  0  0  0  0  0  0  0
  -44.9078  -31.2678    1.3682 H   0  0  0  0  0  0  0  0  0  0  0  0
  -43.8189  -30.8667    2.7056 H   0  0  0  0  0  0  0  0  0  0  0  0
  -43.2524  -27.9333    2.1520 H   0  0  0  0  0  0  0  0  0  0  0  0
  -44.7663  -27.1253    1.7713 H   0  0  0  0  0  0  0  0  0  0  0  0
  -44.6999  -27.6946   -0.5085 H   0  0  0  0  0  0  0  0  0  0  0  0
  -51.6805  -31.1040    7.6055 H   0  0  0  0  0  0  0  0  0  0  0  0
  -50.5286  -29.9035    8.1781 H   0  0  0  0  0  0  0  0  0  0  0  0
  -53.5574  -29.4189    7.8817 H   0  0  0  0  0  0  0  0  0  0  0  0
  -52.3662  -28.2333    8.4667 H   0  0  0  0  0  0  0  0  0  0  0  0
  -43.0674  -26.2774    0.1712 H   0  0  0  0  0  0  0  0  0  0  0  0
  -53.4026  -29.3499   10.1410 H   0  0  0  0  0  0  0  0  0  0  0  0
  1  2  2  0  0  0  0
  1  3  1  0  0  0  0
  2  7  1  0  0  0  0
  3  9  2  0  0  0  0
  4  7  2  0  0  0  0
  4  9  1  0  0  0  0
  5  8  1  0  0  0  0
  5 18  2  0  0  0  0
  6  8  2  0  0  0  0
  6 19  1  0  0  0  0
  7  8  1  0  0  0  0
  9 16  1  0  0  0  0
 10 18  1  0  0  0  0
 10 19  2  0  0  0  0
 10 20  1  0  0  0  0
 11 12  1  0  0  0  0
 11 13  1  0  0  0  0
 12 15  1  0  0  0  0
 13 20  1  0  0  0  0
 14 15  1  0  0  0  0
 14 20  1  0  0  0  0
 15 21  1  0  0  0  0
 16 17  1  0  0  0  0
 17 22  1  0  0  0  0
  1 23  1  0  0  0  0
  2 24  1  0  0  0  0
  3 25  1  0  0  0  0
  4 26  1  0  0  0  0
  5 27  1  0  0  0  0
  6 28  1  0  0  0  0
 11 29  1  0  0  0  0
 11 30  1  0  0  0  0
 12 31  1  0  0  0  0
 12 32  1  0  0  0  0
 13 33  1  0  0  0  0
 13 34  1  0  0  0  0
 14 35  1  0  0  0  0
 14 36  1  0  0  0  0
 15 37  1  0  0  0  0
 16 38  1  0  0  0  0
 16 39  1  0  0  0  0
 17 40  1  0  0  0  0
 17 41  1  0  0  0  0
 21 42  1  0  0  0  0
 22 43  1  0  0  0  0
M  END
> <POSIT::Probability>
0.05

> <POSIT::Method>
FRED

> <ReceptorTitle>
UCSF-P4528-REFINED_LIGAND-BOUND-STATE_A__DU__LA1_A-201(A)

> <OMEGA_C>
UOZQwhkr5MFFYodA6d5Lwgh65MEiLWhAO45Rwjj758E4ALFAmSdIwl5o7MHTBbRAda5BwhQB6sH4
lRVA7aE9wpQj6MEnv41Apn9HwjiY6MF1Z4pA+U1Cwivo6MEa5GxA+C5NwmgZ7MEeUcdAcqA4wuWC
6cHygCJA8zYswpH58sEy/T0/Mrktwjyg68Ewv9a+OtUwwr4M9MFn9N4/X7Awwswr4MFwJMg/oFkv
wgFz4MF83ZE94uNNwhYq8MEG1vNAYFxSwh5q6sHwGgZBYOI8wk5W6sHdNtw/3rQ4wmtq6MFkQnhA
hp0zwrzT6cG13fc/nxArwkcg2cGo/xu+vb5Swm2n7sGDKRtBzE1Uwpn24MG8/WtAW2xLwvN54cFu
PCdAynxVwnO258Fjzr9AucJEwq6g78G0nMVApxhFwiio6sHo59U/wqs9wgBD58FuUrBAfigrwuTh
+sHAH7Y+mLAowgbP78EBRKA/cVkqwrPx6sHGj4+/LAIxwsUo78GIR4C/k6Ezwmwk+sFPIK8/mUYv
wgDv9sHCKC1AgAItwmR338GuuQlAqxAzwo0A2cHduOI/ucwywnqO3cHyLQK/yrhOwujU+MHwX/NA
UR1KwmI678FS2QJBwzpWwu9Z68H4NvxAB3dRwtTd4cFndwdB+kQswgQ40sHASC8+R5xVwpjM6sG6
QSJB

> <OMEGA_E>
EnoIwQ==

> <OMEGA_NBR>
    134106

$$$$
CACHE3HI_1708_71
  -OEChem-03092622573D

 35 37  0     1  0  0  0  0  0999 V2000
  -49.1425  -28.9175    5.3304 C   0  0  0  0  0  0  0  0  0  0  0  0
  -48.8815  -28.9765    3.9693 C   0  0  0  0  0  0  0  0  0  0  0  0
  -48.0830  -28.9062    6.2345 C   0  0  0  0  0  0  0  0  0  0  0  0
  -47.5609  -29.0244    3.5256 C   0  0  0  0  0  0  0  0  0  0  0  0
  -44.4967  -28.9887    6.2200 C   0  0  0  0  0  0  0  0  0  0  0  0
  -46.7601  -28.9533    5.8012 C   0  0  0  0  0  0  0  0  0  0  0  0
  -46.4942  -29.0134    4.4210 C   0  0  0  0  0  0  0  0  0  0  0  0
  -44.2368  -29.0473    4.8763 C   0  0  0  0  0  0  0  0  0  0  0  0
  -44.3525  -27.8798    0.2980 C   0  0  0  0  0  0  0  0  0  0  0  0
  -43.6043  -27.8392    1.6309 C   0  0  0  0  0  0  0  0  0  0  0  0
  -44.3596  -29.3422   -0.1471 C   0  0  0  0  0  0  0  0  0  0  0  0
  -43.6058  -29.2847    2.1203 C   0  0  1  0  0  0  0  0  0  0  0  0
  -43.4337  -30.0678    0.8219 C   0  0  1  0  0  0  0  0  0  0  0  0
  -42.5193  -29.5714    3.1443 C   0  0  0  0  0  0  0  0  0  0  0  0
  -45.7544  -28.9414    6.6933 N   0  0  0  0  0  0  0  0  0  0  0  0
  -45.2293  -29.0596    3.9677 N   0  0  0  0  0  0  0  0  0  0  0  0
  -42.9238  -29.0938    4.4592 N   0  0  0  0  0  0  0  0  0  0  0  0
  -43.8112  -31.4210    0.9867 O   0  0  0  0  0  0  0  0  0  0  0  0
  -50.1663  -28.8810    5.6903 H   0  0  0  0  0  0  0  0  0  0  0  0
  -49.6987  -28.9867    3.2546 H   0  0  0  0  0  0  0  0  0  0  0  0
  -48.3031  -28.8594    7.2993 H   0  0  0  0  0  0  0  0  0  0  0  0
  -47.3697  -29.0716    2.4553 H   0  0  0  0  0  0  0  0  0  0  0  0
  -43.7140  -28.9781    6.9694 H   0  0  0  0  0  0  0  0  0  0  0  0
  -45.3798  -27.5181    0.4175 H   0  0  0  0  0  0  0  0  0  0  0  0
  -43.8629  -27.2373   -0.4414 H   0  0  0  0  0  0  0  0  0  0  0  0
  -42.5802  -27.4827    1.4646 H   0  0  0  0  0  0  0  0  0  0  0  0
  -44.0800  -27.1601    2.3454 H   0  0  0  0  0  0  0  0  0  0  0  0
  -45.3769  -29.7499   -0.1005 H   0  0  0  0  0  0  0  0  0  0  0  0
  -44.0229  -29.4548   -1.1830 H   0  0  0  0  0  0  0  0  0  0  0  0
  -44.5777  -29.5278    2.5724 H   0  0  0  0  0  0  0  0  0  0  0  0
  -42.3966  -30.0275    0.4648 H   0  0  0  0  0  0  0  0  0  0  0  0
  -42.3333  -30.6486    3.1902 H   0  0  0  0  0  0  0  0  0  0  0  0
  -41.5886  -29.0812    2.8431 H   0  0  0  0  0  0  0  0  0  0  0  0
  -42.1970  -28.7850    5.0860 H   0  0  0  0  0  0  0  0  0  0  0  0
  -43.7617  -31.8405    0.1107 H   0  0  0  0  0  0  0  0  0  0  0  0
  1  2  1  0  0  0  0
  1  3  2  0  0  0  0
  2  4  2  0  0  0  0
  3  6  1  0  0  0  0
  4  7  1  0  0  0  0
  5  8  2  0  0  0  0
  5 15  1  0  0  0  0
  6  7  1  0  0  0  0
  6 15  2  0  0  0  0
  7 16  2  0  0  0  0
  8 16  1  0  0  0  0
  8 17  1  0  0  0  0
  9 10  1  0  0  0  0
  9 11  1  0  0  0  0
 10 12  1  0  0  0  0
 11 13  1  0  0  0  0
 12 13  1  0  0  0  0
 12 14  1  0  0  0  0
 13 18  1  0  0  0  0
 14 17  1  0  0  0  0
  1 19  1  0  0  0  0
  2 20  1  0  0  0  0
  3 21  1  0  0  0  0
  4 22  1  0  0  0  0
  5 23  1  0  0  0  0
  9 24  1  0  0  0  0
  9 25  1  0  0  0  0
 10 26  1  0  0  0  0
 10 27  1  0  0  0  0
 11 28  1  0  0  0  0
 11 29  1  0  0  0  0
 12 30  1  0  0  0  0
 13 31  1  0  0  0  0
 14 32  1  0  0  0  0
 14 33  1  0  0  0  0
 17 34  1  0  0  0  0
 18 35  1  0  0  0  0
M  END
> <POSIT::Probability>
0.18

> <POSIT::Method>
HYBRID

> <ReceptorTitle>
UCSF-P4528-REFINED_LIGAND-BOUND-STATE_A__DU__LA1_A-201(A)

> <OMEGA_C>
85FEwhRX58HqkqpAq4ZDwtzP58HICX5AAlVAwuE/58FogcdAVz4+wu0x6MHUomFArPwxwsbo58Hf
CcdAYgo7wmag58GVo7lACfo5wlsb6MGTeI1Ab/IwwvNg6MGvCpxA8mgxwtwJ38HQk5g+y2ouwsO2
3sFuwNA/NHAxwsO86sHgmha+VWwuwgNH6sG1swdAELwtwvSK8MFMa1I/wBMqwjKS7MEAPUlAggQ3
whaI58EmL9ZAyuo0wv556MEO7n1A/LErwgHA6MH/sY5Aoz4vwiBe+8Hol3w/QapIwlcM58GpFrZA
bstGwsjk58HQS1BAVDZBwg/g5sG4k+lAjno9wqiS6MFUIx1AL9suwjnT58GKBd9A44Q1whIl3MHo
xtU+l3MvwgTm2cF4+eG+KVIqwo7c28EEeLs/81EwwulH2cF6GhZA7oE1wsr/7cHg4829ZxcwwmGj
68GHa5e/lE8ywgk57MF0oSRAHpYpwjs48MG49u0+TVUpwlww9cGGK0xAu1omwjem6MHV9TVAxMko
wsRH5sHOwKJA8wsvwly5/sEwq+I9

> <OMEGA_E>
LGEFwQ==

> <OMEGA_NBR>
    135307

$$$$
CACHE3HI_1709_36
  -OEChem-03092622573D

 54 57  0     1  0  0  0  0  0999 V2000
  -50.0426  -21.9378   -2.8139 C   0  0  0  0  0  0  0  0  0  0  0  0
  -41.9200  -30.3824    2.3744 C   0  0  0  0  0  0  0  0  0  0  0  0
  -47.3703  -19.9420   -1.8136 C   0  0  0  0  0  0  0  0  0  0  0  0
  -48.8479  -21.4086   -2.2580 C   0  0  0  0  0  0  0  0  0  0  0  0
  -42.7801  -28.7791    1.0838 C   0  0  0  0  0  0  0  0  0  0  0  0
  -41.8901  -29.8792    1.0945 C   0  0  0  0  0  0  0  0  0  0  0  0
  -47.9029  -22.0576   -1.4980 C   0  0  0  0  0  0  0  0  0  0  0  0
  -43.2905  -28.6880    2.3577 C   0  0  0  0  0  0  0  0  0  0  0  0
  -43.1270  -27.8767   -0.0434 C   0  0  0  0  0  0  0  0  0  0  0  0
  -47.8386  -23.4529   -1.0407 C   0  0  0  0  0  0  0  0  0  0  0  0
  -46.4878  -25.6141   -1.1191 C   0  0  0  0  0  0  0  0  0  0  0  0
  -45.6797  -23.6099   -2.2486 C   0  0  0  0  0  0  0  0  0  0  0  0
  -45.1154  -25.8860   -1.6428 C   0  0  1  0  0  0  0  0  0  0  0  0
  -44.6226  -24.6603   -2.3363 C   0  0  2  0  0  0  0  0  0  0  0  0
  -43.9134  -25.1548   -1.1008 C   0  0  0  0  0  0  0  0  0  0  0  0
  -41.0875  -30.3925   -0.0309 C   0  0  0  0  0  0  0  0  0  0  0  0
  -45.6551  -27.8221    2.3074 C   0  0  0  0  0  0  0  0  0  0  0  0
  -43.7674  -26.2876    2.9523 C   0  0  0  0  0  0  0  0  0  0  0  0
  -44.5487  -28.0503    4.5219 C   0  0  0  0  0  0  0  0  0  0  0  0
  -42.5586  -25.7641   -1.2138 C   0  0  0  0  0  0  0  0  0  0  0  0
  -44.2503  -27.7779    3.0011 C   0  0  0  0  0  0  0  0  0  0  0  0
  -51.0190  -22.3703   -3.2683 N   0  0  0  0  0  0  0  0  0  0  0  0
  -48.5107  -20.0927   -2.4509 N   0  0  0  0  0  0  0  0  0  0  0  0
  -46.9629  -21.1051   -1.2209 N   0  0  0  0  0  0  0  0  0  0  0  0
  -46.7456  -24.2066   -1.4457 N   0  0  0  0  0  0  0  0  0  0  0  0
  -42.3292  -26.7648   -0.1650 N   0  0  0  0  0  0  0  0  0  0  0  0
  -44.0828  -28.1550   -0.7626 O   0  0  0  0  0  0  0  0  0  0  0  0
  -48.7627  -23.8595   -0.3399 O   0  0  0  0  0  0  0  0  0  0  0  0
  -42.7710  -29.6615    3.1506 O   0  0  0  0  0  0  0  0  0  0  0  0
  -41.4219  -31.2041    2.8685 H   0  0  0  0  0  0  0  0  0  0  0  0
  -46.7956  -19.0296   -1.7436 H   0  0  0  0  0  0  0  0  0  0  0  0
  -47.2401  -26.2305   -1.6220 H   0  0  0  0  0  0  0  0  0  0  0  0
  -46.5560  -25.7637   -0.0372 H   0  0  0  0  0  0  0  0  0  0  0  0
  -45.3250  -22.6936   -1.7665 H   0  0  0  0  0  0  0  0  0  0  0  0
  -46.0891  -23.3622   -3.2333 H   0  0  0  0  0  0  0  0  0  0  0  0
  -44.9934  -26.8515   -2.1102 H   0  0  0  0  0  0  0  0  0  0  0  0
  -44.1473  -24.7448   -3.3019 H   0  0  0  0  0  0  0  0  0  0  0  0
  -44.0237  -24.5897   -0.1829 H   0  0  0  0  0  0  0  0  0  0  0  0
  -41.6284  -31.1604   -0.6113 H   0  0  0  0  0  0  0  0  0  0  0  0
  -40.1530  -30.8720    0.3102 H   0  0  0  0  0  0  0  0  0  0  0  0
  -40.8117  -29.5821   -0.7264 H   0  0  0  0  0  0  0  0  0  0  0  0
  -46.3427  -27.1332    2.8122 H   0  0  0  0  0  0  0  0  0  0  0  0
  -45.6265  -27.5462    1.2463 H   0  0  0  0  0  0  0  0  0  0  0  0
  -46.0934  -28.8249    2.3648 H   0  0  0  0  0  0  0  0  0  0  0  0
  -44.4659  -25.5874    3.4259 H   0  0  0  0  0  0  0  0  0  0  0  0
  -42.8020  -26.1916    3.4629 H   0  0  0  0  0  0  0  0  0  0  0  0
  -43.6285  -25.9506    1.9200 H   0  0  0  0  0  0  0  0  0  0  0  0
  -45.2688  -27.3467    4.9554 H   0  0  0  0  0  0  0  0  0  0  0  0
  -43.6283  -27.9740    5.1129 H   0  0  0  0  0  0  0  0  0  0  0  0
  -44.9605  -29.0574    4.6588 H   0  0  0  0  0  0  0  0  0  0  0  0
  -42.4244  -26.2591   -2.1929 H   0  0  0  0  0  0  0  0  0  0  0  0
  -41.7660  -24.9972   -1.1412 H   0  0  0  0  0  0  0  0  0  0  0  0
  -46.1195  -21.2342   -0.6778 H   0  0  0  0  0  0  0  0  0  0  0  0
  -41.5983  -26.5539    0.4910 H   0  0  0  0  0  0  0  0  0  0  0  0
  1  4  1  0  0  0  0
  1 22  3  0  0  0  0
  2  6  2  0  0  0  0
  2 29  1  0  0  0  0
  3 23  2  0  0  0  0
  3 24  1  0  0  0  0
  4  7  2  0  0  0  0
  4 23  1  0  0  0  0
  5  6  1  0  0  0  0
  5  8  2  0  0  0  0
  5  9  1  0  0  0  0
  6 16  1  0  0  0  0
  7 10  1  0  0  0  0
  7 24  1  0  0  0  0
  8 21  1  0  0  0  0
  8 29  1  0  0  0  0
  9 26  1  0  0  0  0
  9 27  2  0  0  0  0
 10 25  1  0  0  0  0
 10 28  2  0  0  0  0
 11 13  1  0  0  0  0
 11 25  1  0  0  0  0
 12 14  1  0  0  0  0
 12 25  1  0  0  0  0
 13 14  1  0  0  0  0
 13 15  1  0  0  0  0
 14 15  1  0  0  0  0
 15 20  1  0  0  0  0
 17 21  1  0  0  0  0
 18 21  1  0  0  0  0
 19 21  1  0  0  0  0
 20 26  1  0  0  0  0
  2 30  1  0  0  0  0
  3 31  1  0  0  0  0
 11 32  1  0  0  0  0
 11 33  1  0  0  0  0
 12 34  1  0  0  0  0
 12 35  1  0  0  0  0
 13 36  1  0  0  0  0
 14 37  1  0  0  0  0
 15 38  1  0  0  0  0
 16 39  1  0  0  0  0
 16 40  1  0  0  0  0
 16 41  1  0  0  0  0
 17 42  1  0  0  0  0
 17 43  1  0  0  0  0
 17 44  1  0  0  0  0
 18 45  1  0  0  0  0
 18 46  1  0  0  0  0
 18 47  1  0  0  0  0
 19 48  1  0  0  0  0
 19 49  1  0  0  0  0
 19 50  1  0  0  0  0
 20 51  1  0  0  0  0
 20 52  1  0  0  0  0
 24 53  1  0  0  0  0
 26 54  1  0  0  0  0
M  END
> <POSIT::Probability>
0.05

> <POSIT::Method>
FRED

> <ReceptorTitle>
UCSF-P4528-REFINED_LIGAND-BOUND-STATE_A__DU__LA1_A-201(A)

> <OMEGA_C>
oStIwoyAr8EoFjTAEa4nwiQP88HV9RdAO3s9wkSJn8FgJOi/RGRDwtREq8GCgxDAyh4rwoQ75sGn
uYo/cI8nwocI78GmGIw/j5w/wgN2sMHXvr+/fyktwg2B5cEz5BZAD4IswmcD38Ew0zG9wVo/wn6f
u8HNNIW/iPM5wpnpzMFNP4+/97c2wiPhvMGK6A/AL3Y0woYWz8EcR9K/h30ywk5IxcGyhhXAUacv
whY9ycFr54y/lVkkwt8j88HANv283Z42wraT3sEqrBNAyxEvwvhM0sHO8TxA2jEywvRm4MHQs5BA
Cjwqwu0czsEnX5u/VAAxwhU53sF1EkBAbBNMwnP2ssEGK1HA6gpCwuW9oMHA2xzADNo7wjrXqMEm
R5y/evs6wh2nwcEkDrm/IFEpwkwe1sHkACm+01QwwnQ94cFMO0O/Ag1Dwj7gvsHuBa6+fRUrwrNK
7cEmo0lAAbAlwg2i+cHNlDdAqi47wow8mMGtL9+/0fU8whnY0cH+nc+/ZDk6wg0czsGAMRi9yEw1
wmiMtcENHOK/Nls4wtflusFs7k7AMvkzwt/P1sE6DgfA1ZYwwkr1xcFfUlPASRgwwr23xMFUTDu+
foMmwpdI+cG6exy/t5wgwt359sGh1p4+Jj8jwhSo7MF68jm/4145wsoQ2cGh+zNAhYE2woRe3MFK
hp8/qF84wlWZ5sEpWRdAD90xwguzzMFcQVtAQTUrwlOI0cHWoF1AoYMuwuuaz8FuwfU/RhM1wvTF
2sHEkp5AaYMuwrTK38EsnaNAgtczwnR16MEvFZVAmrIpwp8S0sHQVwzAXhAnwjH6x8EZFJK/Wno4
wqvfqcG7gy2/tGQmwmBu1MFoZPs+

> <OMEGA_E>
+wUQwQ==

> <OMEGA_NBR>
    136891

$$$$
CACHE3HI_1709_6
  -OEChem-03092622573D

 48 51  0     0  0  0  0  0  0999 V2000
  -44.6178  -35.9094   -2.3988 C   0  0  0  0  0  0  0  0  0  0  0  0
  -45.6691  -35.6801   -1.5112 C   0  0  0  0  0  0  0  0  0  0  0  0
  -47.4388  -28.5676    4.1489 C   0  0  0  0  0  0  0  0  0  0  0  0
  -44.1803  -33.5351   -2.4924 C   0  0  0  0  0  0  0  0  0  0  0  0
  -45.7092  -28.8082    5.7632 C   0  0  0  0  0  0  0  0  0  0  0  0
  -48.3732  -28.7587    5.1668 C   0  0  0  0  0  0  0  0  0  0  0  0
  -46.0815  -28.5923    4.4467 C   0  0  0  0  0  0  0  0  0  0  0  0
  -45.2316  -33.3057   -1.6048 C   0  0  0  0  0  0  0  0  0  0  0  0
  -43.8735  -34.8367   -2.8894 C   0  0  0  0  0  0  0  0  0  0  0  0
  -45.9760  -34.3784   -1.1142 C   0  0  0  0  0  0  0  0  0  0  0  0
  -47.8999  -28.9688    6.4607 C   0  0  0  0  0  0  0  0  0  0  0  0
  -49.8099  -28.7428    4.9118 C   0  0  0  0  0  0  0  0  0  0  0  0
  -50.6770  -28.9288    5.9122 C   0  0  0  0  0  0  0  0  0  0  0  0
  -50.2052  -29.1561    7.3039 C   0  0  0  0  0  0  0  0  0  0  0  0
  -45.0673  -28.3938    3.3927 C   0  0  0  0  0  0  0  0  0  0  0  0
  -45.5548  -31.9187   -1.1841 C   0  0  0  0  0  0  0  0  0  0  0  0
  -46.0712  -30.1081    1.7061 C   0  0  0  0  0  0  0  0  0  0  0  0
  -44.0073  -29.6382    1.4224 C   0  0  0  0  0  0  0  0  0  0  0  0
  -45.1240  -30.1451    0.4956 C   0  0  0  0  0  0  0  0  0  0  0  0
  -43.2064  -35.0546   -5.2961 C   0  0  0  0  0  0  0  0  0  0  0  0
  -42.7502  -35.0807   -3.8395 C   0  0  0  0  0  0  0  0  0  0  0  0
  -46.5842  -28.9971    6.7762 N   0  0  0  0  0  0  0  0  0  0  0  0
  -48.8377  -29.1622    7.4938 N   0  0  0  0  0  0  0  0  0  0  0  0
  -45.0636  -29.2903    2.3568 N   0  0  0  0  0  0  0  0  0  0  0  0
  -44.8970  -31.4722   -0.0559 N   0  0  0  0  0  0  0  0  0  0  0  0
  -51.0202  -29.3249    8.2085 O   0  0  0  0  0  0  0  0  0  0  0  0
  -44.3040  -27.4370    3.4893 O   0  0  0  0  0  0  0  0  0  0  0  0
  -46.3765  -31.2722   -1.8285 O   0  0  0  0  0  0  0  0  0  0  0  0
  -46.9884  -34.1699   -0.2606 F   0  0  0  0  0  0  0  0  0  0  0  0
  -44.3860  -36.9268   -2.7024 H   0  0  0  0  0  0  0  0  0  0  0  0
  -46.2488  -36.5149   -1.1284 H   0  0  0  0  0  0  0  0  0  0  0  0
  -47.7672  -28.4003    3.1255 H   0  0  0  0  0  0  0  0  0  0  0  0
  -43.5983  -32.7003   -2.8768 H   0  0  0  0  0  0  0  0  0  0  0  0
  -44.6642  -28.8376    6.0565 H   0  0  0  0  0  0  0  0  0  0  0  0
  -50.1605  -28.5774    3.8991 H   0  0  0  0  0  0  0  0  0  0  0  0
  -51.7471  -28.9192    5.7386 H   0  0  0  0  0  0  0  0  0  0  0  0
  -47.0208  -29.5968    1.5291 H   0  0  0  0  0  0  0  0  0  0  0  0
  -46.2393  -31.0571    2.2243 H   0  0  0  0  0  0  0  0  0  0  0  0
  -43.3248  -30.3920    1.8262 H   0  0  0  0  0  0  0  0  0  0  0  0
  -43.4466  -28.7786    1.0470 H   0  0  0  0  0  0  0  0  0  0  0  0
  -45.3946  -29.4281   -0.2890 H   0  0  0  0  0  0  0  0  0  0  0  0
  -43.6863  -34.1008   -5.5408 H   0  0  0  0  0  0  0  0  0  0  0  0
  -43.9273  -35.8543   -5.4961 H   0  0  0  0  0  0  0  0  0  0  0  0
  -42.3551  -35.1889   -5.9706 H   0  0  0  0  0  0  0  0  0  0  0  0
  -42.2736  -36.0513   -3.6293 H   0  0  0  0  0  0  0  0  0  0  0  0
  -41.9567  -34.3294   -3.6964 H   0  0  0  0  0  0  0  0  0  0  0  0
  -48.4869  -29.3153    8.4344 H   0  0  0  0  0  0  0  0  0  0  0  0
  -44.2791  -32.0777    0.4650 H   0  0  0  0  0  0  0  0  0  0  0  0
  1  2  2  0  0  0  0
  1  9  1  0  0  0  0
  2 10  1  0  0  0  0
  3  6  2  0  0  0  0
  3  7  1  0  0  0  0
  4  8  1  0  0  0  0
  4  9  2  0  0  0  0
  5  7  2  0  0  0  0
  5 22  1  0  0  0  0
  6 11  1  0  0  0  0
  6 12  1  0  0  0  0
  7 15  1  0  0  0  0
  8 10  2  0  0  0  0
  8 16  1  0  0  0  0
  9 21  1  0  0  0  0
 10 29  1  0  0  0  0
 11 22  2  0  0  0  0
 11 23  1  0  0  0  0
 12 13  2  0  0  0  0
 13 14  1  0  0  0  0
 14 23  1  0  0  0  0
 14 26  2  0  0  0  0
 15 24  1  0  0  0  0
 15 27  2  0  0  0  0
 16 25  1  0  0  0  0
 16 28  2  0  0  0  0
 17 19  1  0  0  0  0
 17 24  1  0  0  0  0
 18 19  1  0  0  0  0
 18 24  1  0  0  0  0
 19 25  1  0  0  0  0
 20 21  1  0  0  0  0
  1 30  1  0  0  0  0
  2 31  1  0  0  0  0
  3 32  1  0  0  0  0
  4 33  1  0  0  0  0
  5 34  1  0  0  0  0
 12 35  1  0  0  0  0
 13 36  1  0  0  0  0
 17 37  1  0  0  0  0
 17 38  1  0  0  0  0
 18 39  1  0  0  0  0
 18 40  1  0  0  0  0
 19 41  1  0  0  0  0
 20 42  1  0  0  0  0
 20 43  1  0  0  0  0
 20 44  1  0  0  0  0
 21 45  1  0  0  0  0
 21 46  1  0  0  0  0
 23 47  1  0  0  0  0
 25 48  1  0  0  0  0
M  END
> <POSIT::Probability>
0.14

> <POSIT::Method>
HYBRID

> <ReceptorTitle>
UCSF-P4528-REFINED_LIGAND-BOUND-STATE_A__DU__LA1_A-201(A)

> <OMEGA_C>
nHgywjijD8I0hRnANa02wmG4DsIab8G/XME9wn+K5MEXxIRAprgwwuojBsK7gh/AQtY2whl35sF5
bLhAKX5BwsAR5sE7VqVAaVM4wv285MG6S45ANO00wgs5BcJGa82/cH4vwsNYC8IB7DjAa+c3woaD
CcKMnI6/iJk/whXA58FKvs5AUD1Hwk/x5cFOLZ1APLVKwkZu58G/ML1AF9JIwqQ/6cGquelA50Q0
wnsm48EiIllAIzg2wnpZ/8GokJe/8kg4wmXd8MFKYto/gQcwwgQb7cE6EbY/7n40wikp8cE4xf0+
WdMswt83DMKMeanANAArwqBSDMI+unXAQFY6wgL658GV1thAxVlDwjhM6cH8zO9AJUE0wphS6sEq
1RZAjZYzwgrH+8FAymS9vBRMwlGZ6sHWVQNBSTcxwgR/28H8T19Af4E5wmwt+sGwDOq/JPQ7wgKu
CMKAbYW+Rosxwg21E8K99CzAx/44wjoPEsJOb5C/qBE/ws4z48GjB0hAqGQuwhPNAsIUHjjAGKgy
wl6z5sEez8FAZaRIwpqe5MFKinlABv1OwnJa58GKordAThU8wkLG7MGUusM//vQ4wgl1+MGYWg5A
m0wtwuEi88GQwek/Vcktwoo65sEABIY/EpQ1wqZs68Eg9ZO+z74uwjRnCMJtTrHAhLUvwtFqD8In
4K/AoWspwm7BDMJLD7/ANRgpwpM0EMLzRWjAo9Mnwk9RCcKXkmzAoPJBwtGF6sFY8wZB0h0xwpxP
AMLoD+4+

> <OMEGA_E>
0YL8wA==

> <OMEGA_NBR>
    138348

$$$$
CACHE3HI_1709_71
  -OEChem-03092622573D

 52 54  0     0  0  0  0  0  0999 V2000
  -46.8583  -22.2964   -2.6328 C   0  0  0  0  0  0  0  0  0  0  0  0
  -44.6530  -23.3385   -2.7076 C   0  0  0  0  0  0  0  0  0  0  0  0
  -46.2748  -28.6833    4.8958 C   0  0  0  0  0  0  0  0  0  0  0  0
  -47.6149  -28.5657    5.2647 C   0  0  0  0  0  0  0  0  0  0  0  0
  -43.7660  -24.3193   -2.2781 C   0  0  0  0  0  0  0  0  0  0  0  0
  -46.8999  -30.1824    3.1070 C   0  0  0  0  0  0  0  0  0  0  0  0
  -45.9440  -23.3025   -2.1926 C   0  0  0  0  0  0  0  0  0  0  0  0
  -45.9174  -29.4919    3.8169 C   0  0  0  0  0  0  0  0  0  0  0  0
  -48.5974  -29.2562    4.5548 C   0  0  0  0  0  0  0  0  0  0  0  0
  -48.2400  -30.0648    3.4759 C   0  0  0  0  0  0  0  0  0  0  0  0
  -44.2157  -25.2340   -1.3389 C   0  0  0  0  0  0  0  0  0  0  0  0
  -46.2964  -24.2623   -1.2576 C   0  0  0  0  0  0  0  0  0  0  0  0
  -44.5068  -29.6172    3.4277 C   0  0  0  0  0  0  0  0  0  0  0  0
  -43.3227  -26.2930   -0.8496 C   0  0  0  0  0  0  0  0  0  0  0  0
  -42.9216  -28.9961    1.5337 C   0  0  0  0  0  0  0  0  0  0  0  0
  -44.5077  -27.3426    2.4671 C   0  0  0  0  0  0  0  0  0  0  0  0
  -43.3072  -28.5618    0.1238 C   0  0  0  0  0  0  0  0  0  0  0  0
  -44.8938  -26.9062    1.0574 C   0  0  0  0  0  0  0  0  0  0  0  0
  -47.6682  -24.2826   -0.6635 C   0  0  0  0  0  0  0  0  0  0  0  0
  -50.6392  -30.4696    5.3977 C   0  0  0  0  0  0  0  0  0  0  0  0
  -50.8948  -28.5036    3.8397 C   0  0  0  0  0  0  0  0  0  0  0  0
  -50.0293  -29.1275    4.9517 C   0  0  0  0  0  0  0  0  0  0  0  0
  -47.6009  -21.4792   -2.9902 N   0  0  0  0  0  0  0  0  0  0  0  0
  -45.4625  -25.2303   -0.8161 N   0  0  0  0  0  0  0  0  0  0  0  0
  -43.9975  -28.7123    2.4911 N   0  0  0  0  0  0  0  0  0  0  0  0
  -43.8206  -27.1925    0.0975 N   0  0  0  0  0  0  0  0  0  0  0  0
  -43.8758  -30.5291    3.9613 O   0  0  0  0  0  0  0  0  0  0  0  0
  -42.1880  -26.3085   -1.3264 O   0  0  0  0  0  0  0  0  0  0  0  0
  -49.1769  -30.7320    2.7878 F   0  0  0  0  0  0  0  0  0  0  0  0
  -44.3228  -22.6102   -3.4444 H   0  0  0  0  0  0  0  0  0  0  0  0
  -45.5174  -28.1403    5.4554 H   0  0  0  0  0  0  0  0  0  0  0  0
  -47.8841  -27.9336    6.1067 H   0  0  0  0  0  0  0  0  0  0  0  0
  -42.7565  -24.3587   -2.6735 H   0  0  0  0  0  0  0  0  0  0  0  0
  -46.6329  -30.8155    2.2649 H   0  0  0  0  0  0  0  0  0  0  0  0
  -42.6741  -30.0609    1.5406 H   0  0  0  0  0  0  0  0  0  0  0  0
  -42.0358  -28.4489    1.8730 H   0  0  0  0  0  0  0  0  0  0  0  0
  -43.7084  -26.6970    2.8539 H   0  0  0  0  0  0  0  0  0  0  0  0
  -45.3688  -27.2213    3.1313 H   0  0  0  0  0  0  0  0  0  0  0  0
  -42.4432  -28.6615   -0.5440 H   0  0  0  0  0  0  0  0  0  0  0  0
  -44.0983  -29.2123   -0.2720 H   0  0  0  0  0  0  0  0  0  0  0  0
  -45.7772  -27.4594    0.7204 H   0  0  0  0  0  0  0  0  0  0  0  0
  -45.1539  -25.8461    1.0636 H   0  0  0  0  0  0  0  0  0  0  0  0
  -48.3476  -24.9046   -1.2586 H   0  0  0  0  0  0  0  0  0  0  0  0
  -48.0999  -23.2749   -0.6326 H   0  0  0  0  0  0  0  0  0  0  0  0
  -47.6326  -24.6802    0.3569 H   0  0  0  0  0  0  0  0  0  0  0  0
  -50.5890  -31.2020    4.5842 H   0  0  0  0  0  0  0  0  0  0  0  0
  -50.1041  -30.8872    6.2575 H   0  0  0  0  0  0  0  0  0  0  0  0
  -51.6916  -30.3601    5.6829 H   0  0  0  0  0  0  0  0  0  0  0  0
  -50.8714  -29.1091    2.9268 H   0  0  0  0  0  0  0  0  0  0  0  0
  -51.9384  -28.4278    4.1656 H   0  0  0  0  0  0  0  0  0  0  0  0
  -50.5521  -27.4961    3.5792 H   0  0  0  0  0  0  0  0  0  0  0  0
  -50.1182  -28.4491    5.8218 H   0  0  0  0  0  0  0  0  0  0  0  0
  1  7  1  0  0  0  0
  1 23  3  0  0  0  0
  2  5  1  0  0  0  0
  2  7  2  0  0  0  0
  3  4  2  0  0  0  0
  3  8  1  0  0  0  0
  4  9  1  0  0  0  0
  5 11  2  0  0  0  0
  6  8  2  0  0  0  0
  6 10  1  0  0  0  0
  7 12  1  0  0  0  0
  8 13  1  0  0  0  0
  9 10  2  0  0  0  0
  9 22  1  0  0  0  0
 10 29  1  0  0  0  0
 11 14  1  0  0  0  0
 11 24  1  0  0  0  0
 12 19  1  0  0  0  0
 12 24  2  0  0  0  0
 13 25  1  0  0  0  0
 13 27  2  0  0  0  0
 14 26  1  0  0  0  0
 14 28  2  0  0  0  0
 15 17  1  0  0  0  0
 15 25  1  0  0  0  0
 16 18  1  0  0  0  0
 16 25  1  0  0  0  0
 17 26  1  0  0  0  0
 18 26  1  0  0  0  0
 20 22  1  0  0  0  0
 21 22  1  0  0  0  0
  2 30  1  0  0  0  0
  3 31  1  0  0  0  0
  4 32  1  0  0  0  0
  5 33  1  0  0  0  0
  6 34  1  0  0  0  0
 15 35  1  0  0  0  0
 15 36  1  0  0  0  0
 16 37  1  0  0  0  0
 16 38  1  0  0  0  0
 17 39  1  0  0  0  0
 17 40  1  0  0  0  0
 18 41  1  0  0  0  0
 18 42  1  0  0  0  0
 19 43  1  0  0  0  0
 19 44  1  0  0  0  0
 19 45  1  0  0  0  0
 20 46  1  0  0  0  0
 20 47  1  0  0  0  0
 20 48  1  0  0  0  0
 21 49  1  0  0  0  0
 21 50  1  0  0  0  0
 21 51  1  0  0  0  0
 22 52  1  0  0  0  0
M  END
> <POSIT::Probability>
0.24

> <POSIT::Method>
FRED

> <ReceptorTitle>
UCSF-P4528-REFINED_LIGAND-BOUND-STATE_A__DU__LA1_A-201(A)

> <OMEGA_C>
7W47wvVessFigCjAqZwywlS1usGESS3AaRk5wll35cEcqpxApHU+wnWG5MEseKhAWhAvwgSOwsHK
zBHAipk7wnR18cG+2UZAnsY3wm9rusH0UwzAd6s3wlDv68E9SHRAt2NCwpoM6sHrwJFAuvVAwp+E
8ME5dV5A4twwwkzfycHIYau/ji85wh0ZwsHI+KC/9QYywiDw7MEmYFtAZUotwhVY0sHIfVm/w68r
whf458G+TsQ/2gcywqa92sFD5R1Aijotwnd+5MEAjf09OJMzwuQ/18GSV4c/R6w+wtlCwsGI2ym/
l45Kwr/B88GfuaxAUZRLwnIH5MEVvnVA+x1IwigF6cEkdJ5ATWc+wmbVq8G0Xz/Andk1wqXXycH4
7VC/eP0vwuGy5cEgbh9AQEgvwiqK2cEAvMc9z4AvwoQ79MHmhX1AjcAows130sFIyKm/I7VEwiPb
9cFsazJAikoxwsPhtMHgcFzA0RE2wkIf4cFjkq5AWok/wup338FFasNArAYrwpDewsGlGivADog6
wiOG9sH78xBAULIqwsR88MGUMcU/riQowkCX48GIv+8/Y9Uuwn6T1cHXpjZAn3k1wjDF2cFXZ0hA
4MUpwsxK5cGwQQu/s2QwwtKy6cGASYu+5xs3wsys28Hsazg/n500wuTEzsFAJIg/8WNBwoo8x8Gg
GqG/VGZAwv8yusHY7yG/0Yc+wvdwxcEwwbY+HltKwrCd+cErspJAo2pIwu4Y98GdPchAMcROwoDh
8sF/2rVATnxLwnHf6MGgUDtA9sBPwjBs48FZTIVAWzVKwvf328HXEWVA/XhIws6X48GCTLpA

> <OMEGA_E>
l04xwQ==

> <OMEGA_NBR>
    139877

$$$$
CACHE3HI_1712_13
  -OEChem-03092622573D

 55 57  0     0  0  0  0  0  0999 V2000
  -46.4645  -23.0188   -2.0792 C   0  0  0  0  0  0  0  0  0  0  0  0
  -46.6660  -23.8384   -0.9686 C   0  0  0  0  0  0  0  0  0  0  0  0
  -45.2900  -23.1298   -2.8232 C   0  0  0  0  0  0  0  0  0  0  0  0
  -45.6935  -24.7689   -0.6023 C   0  0  0  0  0  0  0  0  0  0  0  0
  -44.3174  -24.0603   -2.4569 C   0  0  0  0  0  0  0  0  0  0  0  0
  -44.5189  -24.8799   -1.3464 C   0  0  0  0  0  0  0  0  0  0  0  0
  -50.0220  -29.3753    5.2396 C   0  0  0  0  0  0  0  0  0  0  0  0
  -48.1940  -28.7724    6.9002 C   0  0  0  0  0  0  0  0  0  0  0  0
  -49.0659  -29.3373    4.3022 C   0  0  0  0  0  0  0  0  0  0  0  0
  -47.3586  -28.7738    5.8532 C   0  0  0  0  0  0  0  0  0  0  0  0
  -49.6254  -29.0926    6.6465 C   0  0  0  0  0  0  0  0  0  0  0  0
  -43.4956  -25.8597   -0.9605 C   0  0  0  0  0  0  0  0  0  0  0  0
  -45.1148  -30.1499    1.1468 C   0  0  0  0  0  0  0  0  0  0  0  0
  -45.1004  -29.0508   -1.0916 C   0  0  0  0  0  0  0  0  0  0  0  0
  -42.9673  -29.2280    0.2750 C   0  0  0  0  0  0  0  0  0  0  0  0
  -45.2245  -27.5940   -0.6418 C   0  0  0  0  0  0  0  0  0  0  0  0
  -43.1560  -27.7691    0.6907 C   0  0  0  0  0  0  0  0  0  0  0  0
  -44.2967  -29.9129   -0.0986 C   0  0  0  0  0  0  0  0  0  0  0  0
  -45.3150  -32.0033   -1.0539 C   0  0  0  0  0  0  0  0  0  0  0  0
  -44.0234  -31.2944   -0.7049 C   0  0  0  0  0  0  0  0  0  0  0  0
  -46.7621  -28.9955    3.4563 C   0  0  0  0  0  0  0  0  0  0  0  0
  -47.3113  -29.5829    2.1662 C   0  0  0  0  0  0  0  0  0  0  0  0
  -47.7150  -29.0593    4.5315 N   0  0  0  0  0  0  0  0  0  0  0  0
  -43.9127  -27.0338   -0.3287 N   0  0  0  0  0  0  0  0  0  0  0  0
  -46.3491  -29.5259    1.0895 N   0  0  0  0  0  0  0  0  0  0  0  0
  -50.4448  -29.1188    7.5576 O   0  0  0  0  0  0  0  0  0  0  0  0
  -42.3314  -25.5578   -1.2175 O   0  0  0  0  0  0  0  0  0  0  0  0
  -44.6863  -30.8131    2.0882 O   0  0  0  0  0  0  0  0  0  0  0  0
  -47.2218  -22.2944   -2.3642 H   0  0  0  0  0  0  0  0  0  0  0  0
  -47.5802  -23.7524   -0.3886 H   0  0  0  0  0  0  0  0  0  0  0  0
  -45.1317  -22.4911   -3.6874 H   0  0  0  0  0  0  0  0  0  0  0  0
  -45.8619  -25.4022    0.2650 H   0  0  0  0  0  0  0  0  0  0  0  0
  -43.4059  -24.1378   -3.0442 H   0  0  0  0  0  0  0  0  0  0  0  0
  -51.0567  -29.5973    5.0139 H   0  0  0  0  0  0  0  0  0  0  0  0
  -47.8711  -28.5467    7.9080 H   0  0  0  0  0  0  0  0  0  0  0  0
  -49.2988  -29.5294    3.2606 H   0  0  0  0  0  0  0  0  0  0  0  0
  -46.3068  -28.5416    5.9790 H   0  0  0  0  0  0  0  0  0  0  0  0
  -46.1066  -29.4641   -1.2360 H   0  0  0  0  0  0  0  0  0  0  0  0
  -44.6105  -29.0697   -2.0743 H   0  0  0  0  0  0  0  0  0  0  0  0
  -42.2828  -29.2598   -0.5831 H   0  0  0  0  0  0  0  0  0  0  0  0
  -42.4712  -29.7680    1.0913 H   0  0  0  0  0  0  0  0  0  0  0  0
  -45.7187  -27.0081   -1.4237 H   0  0  0  0  0  0  0  0  0  0  0  0
  -45.8408  -27.5157    0.2613 H   0  0  0  0  0  0  0  0  0  0  0  0
  -43.7210  -27.7018    1.6278 H   0  0  0  0  0  0  0  0  0  0  0  0
  -42.1787  -27.3150    0.8731 H   0  0  0  0  0  0  0  0  0  0  0  0
  -45.9021  -31.4254   -1.7752 H   0  0  0  0  0  0  0  0  0  0  0  0
  -45.9197  -32.1363   -0.1516 H   0  0  0  0  0  0  0  0  0  0  0  0
  -45.1209  -32.9917   -1.4823 H   0  0  0  0  0  0  0  0  0  0  0  0
  -43.4542  -31.8852    0.0136 H   0  0  0  0  0  0  0  0  0  0  0  0
  -43.4108  -31.1693   -1.5990 H   0  0  0  0  0  0  0  0  0  0  0  0
  -45.8775  -29.5515    3.7793 H   0  0  0  0  0  0  0  0  0  0  0  0
  -46.4850  -27.9445    3.3251 H   0  0  0  0  0  0  0  0  0  0  0  0
  -48.2065  -29.0487    1.8333 H   0  0  0  0  0  0  0  0  0  0  0  0
  -47.5687  -30.6363    2.3124 H   0  0  0  0  0  0  0  0  0  0  0  0
  -46.5904  -28.9762    0.2704 H   0  0  0  0  0  0  0  0  0  0  0  0
  1  2  1  0  0  0  0
  1  3  2  0  0  0  0
  2  4  2  0  0  0  0
  3  5  1  0  0  0  0
  4  6  1  0  0  0  0
  5  6  2  0  0  0  0
  6 12  1  0  0  0  0
  7  9  2  0  0  0  0
  7 11  1  0  0  0  0
  8 10  2  0  0  0  0
  8 11  1  0  0  0  0
  9 23  1  0  0  0  0
 10 23  1  0  0  0  0
 11 26  2  0  0  0  0
 12 24  1  0  0  0  0
 12 27  2  0  0  0  0
 13 18  1  0  0  0  0
 13 25  1  0  0  0  0
 13 28  2  0  0  0  0
 14 16  1  0  0  0  0
 14 18  1  0  0  0  0
 15 17  1  0  0  0  0
 15 18  1  0  0  0  0
 16 24  1  0  0  0  0
 17 24  1  0  0  0  0
 18 20  1  0  0  0  0
 19 20  1  0  0  0  0
 21 22  1  0  0  0  0
 21 23  1  0  0  0  0
 22 25  1  0  0  0  0
  1 29  1  0  0  0  0
  2 30  1  0  0  0  0
  3 31  1  0  0  0  0
  4 32  1  0  0  0  0
  5 33  1  0  0  0  0
  7 34  1  0  0  0  0
  8 35  1  0  0  0  0
  9 36  1  0  0  0  0
 10 37  1  0  0  0  0
 14 38  1  0  0  0  0
 14 39  1  0  0  0  0
 15 40  1  0  0  0  0
 15 41  1  0  0  0  0
 16 42  1  0  0  0  0
 16 43  1  0  0  0  0
 17 44  1  0  0  0  0
 17 45  1  0  0  0  0
 19 46  1  0  0  0  0
 19 47  1  0  0  0  0
 19 48  1  0  0  0  0
 20 49  1  0  0  0  0
 20 50  1  0  0  0  0
 21 51  1  0  0  0  0
 21 52  1  0  0  0  0
 22 53  1  0  0  0  0
 22 54  1  0  0  0  0
 25 55  1  0  0  0  0
M  END
> <POSIT::Probability>
0.24

> <POSIT::Method>
FRED

> <ReceptorTitle>
UCSF-P4528-REFINED_LIGAND-BOUND-STATE_A__DU__LA1_A-201(A)

> <OMEGA_C>
rNs5wnImuMFtEQXACao6wge1vsHn+He/8Cg1wsAJucFwrzTAIsY2ws4mxsHfMRq/CEUxwol7wMGw
PR3AXBMywhUKx8FwVqy/gBZIwrYA68HDqqdApMZAwvgt5sEoztxAhENEwtGy6sHEq4lAPm89wrMw
5sGITbtAYYBGwpy96MHpr9RAePstwrTgzsEM5XW/knU0wgwz8cEky5I/1GY0wvVn6MFSuYu/g94r
wuDS6cHozow+6OU0wpfA3MGUTyS/up8swjgn3sHI1DA/1y8xwoxN78H458m9jEI1wmADAML25Ia/
+hcwwu1a+sGrczS/WQw7ws7258GlM11Axz49wsKp7MHjogpAJdw+wnh56MHLAZFAlqYvwk9F2MF3
T6i+hGU5whs17MFodYs/gMdJwjrz6MGk1/FAU1MpwlB2zMG815u/x74ywiuB9sEBpQVAFuM8wu1a
ssEXTxfALFI+wtgEvsEE9sa+44Y0wrzts8Gr/mvAl3I3wsM3y8EQqYc+oJ8twkYawcHW00LAFjpM
wk7H7MHIcaBADnw/wrJf5MGhDv1A8jFFwkQ87MF8rVBALzo5wkVV5MGVU79AJ204woC268HgNZ6/
MHEywteO6MH4wQTAjSEpwv0T6sGKRxW/ieIpwvIk7sEGsYs/7982wo4Q2MG4PLa/91w3wjog3MEU
yYU+VeIuwj6d3cEiXNA/CLcowg2F2sE4g18/uJs3wjRn+8GYOeO/ua03wo+LAMIuOxu+1ns0wnj3
A8I8u72/HNEtwvwU/8GgZF48tKQtws1a+cFWrcy/iII3wnZp7MGg4HFAnPA5wl2O38F1zlRAeNNA
wsBj6MECq+o/YEY+wikX9cHd/RNAk1w6wkbP58HubYo+

> <OMEGA_E>
pNoRwQ==

> <OMEGA_NBR>
    141466

$$$$
CACHE3HI_1712_18
  -OEChem-03092622573D

 50 53  0     0  0  0  0  0  0999 V2000
  -42.5577  -27.3971    1.5563 C   0  0  0  0  0  0  0  0  0  0  0  0
  -48.5885  -28.0783    6.5761 C   0  0  0  0  0  0  0  0  0  0  0  0
  -43.5670  -27.3995    2.5190 C   0  0  0  0  0  0  0  0  0  0  0  0
  -42.5054  -28.4100    0.5989 C   0  0  0  0  0  0  0  0  0  0  0  0
  -47.5083  -28.0031    5.6497 C   0  0  0  0  0  0  0  0  0  0  0  0
  -44.4719  -29.4273    1.5668 C   0  0  0  0  0  0  0  0  0  0  0  0
  -49.3806  -29.1842    6.3589 C   0  0  0  0  0  0  0  0  0  0  0  0
  -44.5241  -28.4144    2.5242 C   0  0  0  0  0  0  0  0  0  0  0  0
  -43.4625  -29.4249    0.6041 C   0  0  0  0  0  0  0  0  0  0  0  0
  -47.5163  -29.0550    4.7596 C   0  0  0  0  0  0  0  0  0  0  0  0
  -46.5719  -29.3426    3.6481 C   0  0  0  0  0  0  0  0  0  0  0  0
  -44.2716  -31.5358   -0.5159 C   0  0  0  0  0  0  0  0  0  0  0  0
  -42.4609  -34.6948   -3.3071 C   0  0  0  0  0  0  0  0  0  0  0  0
  -43.7212  -33.5098   -4.6146 C   0  0  0  0  0  0  0  0  0  0  0  0
  -42.8274  -32.2416   -2.5303 C   0  0  0  0  0  0  0  0  0  0  0  0
  -44.4871  -33.5744   -2.1376 C   0  0  0  0  0  0  0  0  0  0  0  0
  -43.1641  -34.9625   -4.6698 C   0  0  0  0  0  0  0  0  0  0  0  0
  -43.3698  -33.4986   -3.1456 C   0  0  0  0  0  0  0  0  0  0  0  0
  -46.2327  -36.7478   -3.6900 C   0  0  0  0  0  0  0  0  0  0  0  0
  -44.2062  -36.0707   -4.6693 C   0  0  0  0  0  0  0  0  0  0  0  0
  -43.9262  -32.3507   -1.5769 N   0  0  0  0  0  0  0  0  0  0  0  0
  -45.5337  -28.4153    3.4871 N   0  0  0  0  0  0  0  0  0  0  0  0
  -43.4094  -30.4515   -0.3675 N   0  0  0  0  0  0  0  0  0  0  0  0
  -46.7835  -30.3361    2.9608 O   0  0  0  0  0  0  0  0  0  0  0  0
  -45.2471  -31.7879    0.1913 O   0  0  0  0  0  0  0  0  0  0  0  0
  -45.2255  -35.7456   -3.7361 O   0  0  0  0  0  0  0  0  0  0  0  0
  -48.8217  -30.1266    5.0426 S   0  0  0  0  0  0  0  0  0  0  0  0
  -41.8122  -26.6069    1.5525 H   0  0  0  0  0  0  0  0  0  0  0  0
  -48.7749  -27.3579    7.3618 H   0  0  0  0  0  0  0  0  0  0  0  0
  -43.5983  -26.6051    3.2608 H   0  0  0  0  0  0  0  0  0  0  0  0
  -41.7143  -28.3986   -0.1465 H   0  0  0  0  0  0  0  0  0  0  0  0
  -46.7657  -27.2151    5.6410 H   0  0  0  0  0  0  0  0  0  0  0  0
  -45.2183  -30.2187    1.5706 H   0  0  0  0  0  0  0  0  0  0  0  0
  -50.2606  -29.4840    6.9102 H   0  0  0  0  0  0  0  0  0  0  0  0
  -42.6198  -35.4832   -2.5574 H   0  0  0  0  0  0  0  0  0  0  0  0
  -41.3844  -34.4939   -3.3690 H   0  0  0  0  0  0  0  0  0  0  0  0
  -43.2012  -32.7863   -5.2546 H   0  0  0  0  0  0  0  0  0  0  0  0
  -44.7991  -33.4347   -4.8194 H   0  0  0  0  0  0  0  0  0  0  0  0
  -41.8447  -32.3142   -2.0525 H   0  0  0  0  0  0  0  0  0  0  0  0
  -42.8844  -31.3337   -3.1397 H   0  0  0  0  0  0  0  0  0  0  0  0
  -45.4983  -33.4375   -2.5265 H   0  0  0  0  0  0  0  0  0  0  0  0
  -44.4523  -34.4142   -1.4405 H   0  0  0  0  0  0  0  0  0  0  0  0
  -42.4502  -35.1028   -5.4855 H   0  0  0  0  0  0  0  0  0  0  0  0
  -46.9980  -36.4638   -2.9630 H   0  0  0  0  0  0  0  0  0  0  0  0
  -46.6887  -36.8396   -4.6787 H   0  0  0  0  0  0  0  0  0  0  0  0
  -45.7844  -37.7033   -3.4083 H   0  0  0  0  0  0  0  0  0  0  0  0
  -43.7528  -37.0228   -4.3795 H   0  0  0  0  0  0  0  0  0  0  0  0
  -44.6562  -36.1744   -5.6612 H   0  0  0  0  0  0  0  0  0  0  0  0
  -45.5136  -27.6411    4.1609 H   0  0  0  0  0  0  0  0  0  0  0  0
  -42.6069  -30.3610   -1.0539 H   0  0  0  0  0  0  0  0  0  0  0  0
  1  3  1  0  0  0  0
  1  4  2  0  0  0  0
  2  5  1  0  0  0  0
  2  7  2  0  0  0  0
  3  8  2  0  0  0  0
  4  9  1  0  0  0  0
  5 10  2  0  0  0  0
  6  8  1  0  0  0  0
  6  9  2  0  0  0  0
  7 27  1  0  0  0  0
  8 22  1  0  0  0  0
  9 23  1  0  0  0  0
 10 11  1  0  0  0  0
 10 27  1  0  0  0  0
 11 22  1  0  0  0  0
 11 24  2  0  0  0  0
 12 21  1  0  0  0  0
 12 23  1  0  0  0  0
 12 25  2  0  0  0  0
 13 17  1  0  0  0  0
 13 18  1  0  0  0  0
 14 17  1  0  0  0  0
 14 18  1  0  0  0  0
 15 18  1  0  0  0  0
 15 21  1  0  0  0  0
 16 18  1  0  0  0  0
 16 21  1  0  0  0  0
 17 20  1  0  0  0  0
 19 26  1  0  0  0  0
 20 26  1  0  0  0  0
  1 28  1  0  0  0  0
  2 29  1  0  0  0  0
  3 30  1  0  0  0  0
  4 31  1  0  0  0  0
  5 32  1  0  0  0  0
  6 33  1  0  0  0  0
  7 34  1  0  0  0  0
 13 35  1  0  0  0  0
 13 36  1  0  0  0  0
 14 37  1  0  0  0  0
 14 38  1  0  0  0  0
 15 39  1  0  0  0  0
 15 40  1  0  0  0  0
 16 41  1  0  0  0  0
 16 42  1  0  0  0  0
 17 43  1  0  0  0  0
 19 44  1  0  0  0  0
 19 45  1  0  0  0  0
 19 46  1  0  0  0  0
 20 47  1  0  0  0  0
 20 48  1  0  0  0  0
 22 49  1  0  0  0  0
 23 50  1  0  0  0  0
M  END
> <POSIT::Probability>
0.18

> <POSIT::Method>
HYBRID

> <ReceptorTitle>
UCSF-P4528-REFINED_LIGAND-BOUND-STATE_A__DU__LA1_A-201(A)

> <OMEGA_C>
CzsqwjAt28FoNcc/lFpCwmug4MEyb9JAqEQuwiIy28H0NyFAjwUqwrRH48FoURk/fQg+wlwG4MGI
yrRAMuMxwi5r68EIjMg/tIVFwjh56cEWfMtAtBgywpxQ48EgjSFAmtktwi1m68EIpho/tBA+wrFw
6MHWTphApEk6wqi96sE4e2lAFhYxwlFJ/MGIEAS/8dcpwnrHCsJAqFPAi+IuwgcKBsIPq5PAPE8r
wmr3AMKo7yHAz/IxwjNMBsLczQjAEagswo7ZC8LHbpXArnotwpj+BcJEUknASu44wrz9EsLIKGzA
GdMwwmRIEMIEa5XAbLQvwh1nAcJw2cm/iiI2wpVS48H8LF9AN6Mtwrqc88HAKry+RyI7wlKw8sFs
fj1ADv00wp9N/sGA20M+7uY0won7DsLIHG/AaUlDwkwD8cEwXaFAuz8nwgfb1MGkuMY/gRlDwvrc
2sE8lOtArmQuwijX1MEcsVBAfNsmwlsw48GgDBa+EhA7wpy42cF2g7RAj980wty/8cGoCMk/3ApJ
wkPf68FyIN1Aq3oqwsjuDcICrCPApYklwsD5CcK+nVfACc4swjMlA8LvJajARDIzwi29BcI/OJrA
BGEnwrhBAcK4XAPAnIkrwnSr+sF+8UjAN/41wv+/BcIMsiHAKc8xwimoCcIoYri/DM0pwkZpDML3
iK/A6v07wuraEcI2oT3ARME6wrRbE8LRt5XANiM3wjjQFsKkIVrA0gIvwkwXFML8JIzA7Z8ywp6y
EMLoKLXA4g02wvMg3cHYJYVAeG0qwkzj8sEM5oa/

> <OMEGA_E>
fFxmwA==

> <OMEGA_NBR>
    142962

$$$$
CACHE3HI_1712_32
  -OEChem-03092622573D

 63 66  0     1  0  0  0  0  0999 V2000
  -44.4039  -23.8690   -2.1564 C   0  0  0  0  0  0  0  0  0  0  0  0
  -45.4793  -23.0142   -2.2606 C   0  0  0  0  0  0  0  0  0  0  0  0
  -46.1160  -24.7370   -0.9792 C   0  0  0  0  0  0  0  0  0  0  0  0
  -44.8069  -24.9590   -1.3459 C   0  0  0  0  0  0  0  0  0  0  0  0
  -44.0053  -26.1414   -0.9401 C   0  0  0  0  0  0  0  0  0  0  0  0
  -45.7694  -29.4985    2.9632 C   0  0  0  0  0  0  0  0  0  0  0  0
  -47.6760  -31.0661    2.9527 C   0  0  0  0  0  0  0  0  0  0  0  0
  -47.7094  -29.0142    4.4265 C   0  0  0  0  0  0  0  0  0  0  0  0
  -49.1782  -31.2427    3.1646 C   0  0  0  0  0  0  0  0  0  0  0  0
  -49.2117  -29.1893    4.6378 C   0  0  0  0  0  0  0  0  0  0  0  0
  -43.4132  -27.5459    2.0931 C   0  0  0  0  0  0  0  0  0  0  0  0
  -42.7697  -28.8952    1.9719 C   0  0  0  0  0  0  0  0  0  0  0  0
  -44.9157  -29.7419   -0.6511 C   0  0  0  0  0  0  0  0  0  0  0  0
  -45.9487  -29.8839    0.4601 C   0  0  0  0  0  0  0  0  0  0  0  0
  -47.2584  -29.6014    3.0889 C   0  0  0  0  0  0  0  0  0  0  0  0
  -49.6340  -30.6594    4.5087 C   0  0  0  0  0  0  0  0  0  0  0  0
  -44.0900  -28.5205   -0.2370 C   0  0  2  0  0  0  0  0  0  0  0  0
  -44.0895  -28.6243    1.2801 C   0  0  0  0  0  0  0  0  0  0  0  0
  -51.5977  -29.2967    8.1934 C   0  0  0  0  0  0  0  0  0  0  0  0
  -47.8241  -22.9598   -1.3953 C   0  0  0  0  0  0  0  0  0  0  0  0
  -51.1465  -30.8025    4.6737 C   0  0  0  0  0  0  0  0  0  0  0  0
  -51.1718  -29.3909    6.7605 C   0  0  0  0  0  0  0  0  0  0  0  0
  -51.5511  -30.7372    6.1429 C   0  0  0  0  0  0  0  0  0  0  0  0
  -46.5142  -23.5523   -1.5408 N   0  0  0  0  0  0  0  0  0  0  0  0
  -45.2918  -29.3540    1.6664 N   0  0  0  0  0  0  0  0  0  0  0  0
  -44.7238  -27.2956   -0.6659 N   0  0  0  0  0  0  0  0  0  0  0  0
  -42.7849  -26.0370   -0.8508 O   0  0  0  0  0  0  0  0  0  0  0  0
  -45.0698  -29.5545    3.9751 O   0  0  0  0  0  0  0  0  0  0  0  0
  -43.4369  -23.7182   -2.6165 H   0  0  0  0  0  0  0  0  0  0  0  0
  -45.5919  -22.0742   -2.7840 H   0  0  0  0  0  0  0  0  0  0  0  0
  -46.7953  -25.3188   -0.3700 H   0  0  0  0  0  0  0  0  0  0  0  0
  -47.1304  -31.6854    3.6790 H   0  0  0  0  0  0  0  0  0  0  0  0
  -47.3978  -31.4459    1.9603 H   0  0  0  0  0  0  0  0  0  0  0  0
  -47.4534  -27.9472    4.4738 H   0  0  0  0  0  0  0  0  0  0  0  0
  -47.1682  -29.4937    5.2547 H   0  0  0  0  0  0  0  0  0  0  0  0
  -49.7178  -30.7541    2.3431 H   0  0  0  0  0  0  0  0  0  0  0  0
  -49.4262  -32.3097    3.1164 H   0  0  0  0  0  0  0  0  0  0  0  0
  -49.4840  -28.8081    5.6292 H   0  0  0  0  0  0  0  0  0  0  0  0
  -49.7527  -28.5791    3.9032 H   0  0  0  0  0  0  0  0  0  0  0  0
  -43.8263  -27.2580    3.0502 H   0  0  0  0  0  0  0  0  0  0  0  0
  -42.9389  -26.7228    1.5699 H   0  0  0  0  0  0  0  0  0  0  0  0
  -41.8719  -28.9708    1.3697 H   0  0  0  0  0  0  0  0  0  0  0  0
  -42.7599  -29.5301    2.8493 H   0  0  0  0  0  0  0  0  0  0  0  0
  -44.2708  -30.6296   -0.6630 H   0  0  0  0  0  0  0  0  0  0  0  0
  -45.3687  -29.6438   -1.6424 H   0  0  0  0  0  0  0  0  0  0  0  0
  -46.8369  -29.2727    0.2668 H   0  0  0  0  0  0  0  0  0  0  0  0
  -46.2542  -30.9236    0.6058 H   0  0  0  0  0  0  0  0  0  0  0  0
  -47.6923  -29.0204    2.2669 H   0  0  0  0  0  0  0  0  0  0  0  0
  -49.1519  -31.2297    5.3139 H   0  0  0  0  0  0  0  0  0  0  0  0
  -43.0887  -28.5462   -0.6772 H   0  0  0  0  0  0  0  0  0  0  0  0
  -51.1454  -30.0995    8.7861 H   0  0  0  0  0  0  0  0  0  0  0  0
  -52.6865  -29.3936    8.2650 H   0  0  0  0  0  0  0  0  0  0  0  0
  -51.3126  -28.3297    8.6199 H   0  0  0  0  0  0  0  0  0  0  0  0
  -48.4978  -23.3000   -2.1889 H   0  0  0  0  0  0  0  0  0  0  0  0
  -47.7485  -21.8688   -1.4393 H   0  0  0  0  0  0  0  0  0  0  0  0
  -48.2782  -23.2452   -0.4407 H   0  0  0  0  0  0  0  0  0  0  0  0
  -51.6393  -30.0053    4.1106 H   0  0  0  0  0  0  0  0  0  0  0  0
  -51.4589  -31.7564    4.2381 H   0  0  0  0  0  0  0  0  0  0  0  0
  -51.6399  -28.5762    6.1956 H   0  0  0  0  0  0  0  0  0  0  0  0
  -50.0867  -29.2461    6.7017 H   0  0  0  0  0  0  0  0  0  0  0  0
  -51.0645  -31.5472    6.6997 H   0  0  0  0  0  0  0  0  0  0  0  0
  -52.6327  -30.8946    6.2396 H   0  0  0  0  0  0  0  0  0  0  0  0
  -45.7387  -27.2863   -0.7017 H   0  0  0  0  0  0  0  0  0  0  0  0
  1  2  2  0  0  0  0
  1  4  1  0  0  0  0
  2 24  1  0  0  0  0
  3  4  2  0  0  0  0
  3 24  1  0  0  0  0
  4  5  1  0  0  0  0
  5 26  1  0  0  0  0
  5 27  2  0  0  0  0
  6 15  1  0  0  0  0
  6 25  1  0  0  0  0
  6 28  2  0  0  0  0
  7  9  1  0  0  0  0
  7 15  1  0  0  0  0
  8 10  1  0  0  0  0
  8 15  1  0  0  0  0
  9 16  1  0  0  0  0
 10 16  1  0  0  0  0
 11 12  1  0  0  0  0
 11 18  1  0  0  0  0
 12 18  1  0  0  0  0
 13 14  1  0  0  0  0
 13 17  1  0  0  0  0
 14 25  1  0  0  0  0
 16 21  1  0  0  0  0
 17 18  1  0  0  0  0
 17 26  1  0  0  0  0
 18 25  1  0  0  0  0
 19 22  1  0  0  0  0
 20 24  1  0  0  0  0
 21 23  1  0  0  0  0
 22 23  1  0  0  0  0
  1 29  1  0  0  0  0
  2 30  1  0  0  0  0
  3 31  1  0  0  0  0
  7 32  1  0  0  0  0
  7 33  1  0  0  0  0
  8 34  1  0  0  0  0
  8 35  1  0  0  0  0
  9 36  1  0  0  0  0
  9 37  1  0  0  0  0
 10 38  1  0  0  0  0
 10 39  1  0  0  0  0
 11 40  1  0  0  0  0
 11 41  1  0  0  0  0
 12 42  1  0  0  0  0
 12 43  1  0  0  0  0
 13 44  1  0  0  0  0
 13 45  1  0  0  0  0
 14 46  1  0  0  0  0
 14 47  1  0  0  0  0
 15 48  1  0  0  0  0
 16 49  1  0  0  0  0
 17 50  1  0  0  0  0
 19 51  1  0  0  0  0
 19 52  1  0  0  0  0
 19 53  1  0  0  0  0
 20 54  1  0  0  0  0
 20 55  1  0  0  0  0
 20 56  1  0  0  0  0
 21 57  1  0  0  0  0
 21 58  1  0  0  0  0
 22 59  1  0  0  0  0
 22 60  1  0  0  0  0
 23 61  1  0  0  0  0
 23 62  1  0  0  0  0
 26 63  1  0  0  0  0
M  END
> <POSIT::Probability>
0.05

> <POSIT::Method>
FRED

> <ReceptorTitle>
UCSF-P4528-REFINED_LIGAND-BOUND-STATE_A__DU__LA1_A-201(A)

> <OMEGA_C>
nJ0xwqfzvsGZAgrAz+o1wg8duMFfrRDAwHY4wnTlxcG8q3q/RTozwhWsx8GwRqy/bgUwwpsh0cGM
qnC/1xM3wtj868F3pT1AO7Q+wl6H+MEN+TxAd9Y+wh8d6MEIpo1Ad7ZEwvbw+cFpiUpAwNhEwrCD
6cGEaJRAK6ctwv1d3MFo9QVAIRQrwkgp58EqZ/w/t6kzwnjv7cFqrCa/eMs3wlMS78G0les+mwg9
wpjP7MFnsEVANolGwmpG9cGCR5BAIFwwwv4p5MHornK+sFswwpP+5MHX26M/DmROwpRf6sEbGANB
30s/wputt8Gql7K/BZZMwo5r9sHGjpVA5K9Mwqog68FRVthAWzROwrLl9cFGksRAiw46whZrvMHc
OcW/0io1wuvU6sGCS9U/K+UywnNd2sGUdiq/siMrwtpL0MF0z1m/fEc0wrFv7MFlZ35Ab78twuq+
vcH7dCfAJl42wuKXsMGpLDLAaS47wvqMysHwa72+gYU8wsB7/cF7dWtAUZc9wiyR+8Fw7Po/R9A9
wu6T38EAKY9ANKw8wgLz68FcJqhABd9GwmcI9sHv9RVAdrRFwiA9AcK1c0dAne9Fwuh25sEUIrRA
uAJHwuih5MGOzXlAIE4vwm0Q2sG6NkNAesErwj3I1cEy8cg/3XwnwhnE58FkUq8/LgorwrU97MGG
WzZAWBUxwncJ9cH+uym/lHk1wpQm7cGEOdK/Alk7wpIu6sGSn4g+UAQ5wqJj98GeEhs/6sQ+wrYp
6MHxFBFAhZtEwn7W+cGPC6pAzVoswqZe5MGiWy2/25RMwsDL8MEBlAxBBr9SwiYm68FePQRBEUBN
wiGj4sEJ6wlBtv1Bwm5musGVFgzAcP4+wlXzrsFSOri/5RxBwjD2ucGQouG+po5OwvIK8MEAioNA
8dVNwhcN/sGinodARI9Owh6c5MG6QsZAy1hIwhv46cErdNZACEJMwqBg/MGUY9ZA6YdSwjoo98GP
qsdAZ/Q2wkVK2sFonzO/

> <OMEGA_E>
mG4YwQ==

> <OMEGA_NBR>
    144717

$$$$
CACHE3HI_1712_33
  -OEChem-03092622573D

 51 54  0     0  0  0  0  0  0999 V2000
  -47.4272  -28.5257    4.2896 C   0  0  0  0  0  0  0  0  0  0  0  0
  -48.4099  -28.4047    5.2658 C   0  0  0  0  0  0  0  0  0  0  0  0
  -45.8969  -29.1878    5.9858 C   0  0  0  0  0  0  0  0  0  0  0  0
  -46.1442  -28.9241    4.6477 C   0  0  0  0  0  0  0  0  0  0  0  0
  -48.0616  -28.6915    6.5758 C   0  0  0  0  0  0  0  0  0  0  0  0
  -45.0727  -29.0623    3.6289 C   0  0  0  0  0  0  0  0  0  0  0  0
  -43.2747  -25.7295   -1.1672 C   0  0  0  0  0  0  0  0  0  0  0  0
  -48.9296  -21.3701   -2.5483 C   0  0  0  0  0  0  0  0  0  0  0  0
  -48.3546  -20.9820   -1.2146 C   0  0  0  0  0  0  0  0  0  0  0  0
  -45.5429  -24.5917   -0.4467 C   0  0  0  0  0  0  0  0  0  0  0  0
  -44.5346  -23.5776   -2.0268 C   0  0  0  0  0  0  0  0  0  0  0  0
  -43.0637  -28.1482   -0.3462 C   0  0  0  0  0  0  0  0  0  0  0  0
  -44.5221  -26.9960    0.7166 C   0  0  0  0  0  0  0  0  0  0  0  0
  -44.0489  -24.4503   -0.8398 C   0  0  0  0  0  0  0  0  0  0  0  0
  -47.5048  -21.7165   -2.2141 C   0  0  0  0  0  0  0  0  0  0  0  0
  -45.8038  -23.2638   -1.1981 C   0  0  0  0  0  0  0  0  0  0  0  0
  -43.7433  -28.2889    1.0296 C   0  0  0  0  0  0  0  0  0  0  0  0
  -47.1059  -23.1626   -1.9641 C   0  0  0  0  0  0  0  0  0  0  0  0
  -44.5739  -29.5386    1.2456 C   0  0  0  0  0  0  0  0  0  0  0  0
  -46.8261  -29.0812    6.9620 N   0  0  0  0  0  0  0  0  0  0  0  0
  -43.5744  -26.7915   -0.3613 N   0  0  0  0  0  0  0  0  0  0  0  0
  -49.0736  -28.5631    7.5591 N   0  0  0  0  0  0  0  0  0  0  0  0
  -45.5052  -29.3493    2.3515 N   0  0  0  0  0  0  0  0  0  0  0  0
  -43.8997  -28.9376    3.9709 O   0  0  0  0  0  0  0  0  0  0  0  0
  -42.4539  -25.7663   -2.0828 O   0  0  0  0  0  0  0  0  0  0  0  0
  -47.6712  -28.3072    3.2536 H   0  0  0  0  0  0  0  0  0  0  0  0
  -49.4138  -28.0940    4.9945 H   0  0  0  0  0  0  0  0  0  0  0  0
  -44.9153  -29.5023    6.3269 H   0  0  0  0  0  0  0  0  0  0  0  0
  -49.6658  -22.1642   -2.5672 H   0  0  0  0  0  0  0  0  0  0  0  0
  -49.1001  -20.5827   -3.2721 H   0  0  0  0  0  0  0  0  0  0  0  0
  -48.1400  -19.9341   -1.0442 H   0  0  0  0  0  0  0  0  0  0  0  0
  -48.7060  -21.5160   -0.3404 H   0  0  0  0  0  0  0  0  0  0  0  0
  -46.0406  -25.4677   -0.8807 H   0  0  0  0  0  0  0  0  0  0  0  0
  -45.7475  -24.5689    0.6277 H   0  0  0  0  0  0  0  0  0  0  0  0
  -43.9041  -22.7150   -2.2612 H   0  0  0  0  0  0  0  0  0  0  0  0
  -44.7197  -24.1391   -2.9509 H   0  0  0  0  0  0  0  0  0  0  0  0
  -41.9731  -28.2140   -0.3356 H   0  0  0  0  0  0  0  0  0  0  0  0
  -43.4751  -28.7579   -1.1561 H   0  0  0  0  0  0  0  0  0  0  0  0
  -45.5465  -27.1214    0.3537 H   0  0  0  0  0  0  0  0  0  0  0  0
  -44.4842  -26.2355    1.5002 H   0  0  0  0  0  0  0  0  0  0  0  0
  -43.4831  -23.8668   -0.1046 H   0  0  0  0  0  0  0  0  0  0  0  0
  -46.7217  -21.1594   -2.7141 H   0  0  0  0  0  0  0  0  0  0  0  0
  -45.6637  -22.3890   -0.5473 H   0  0  0  0  0  0  0  0  0  0  0  0
  -43.0315  -28.1496    1.8561 H   0  0  0  0  0  0  0  0  0  0  0  0
  -47.0101  -23.6821   -2.9256 H   0  0  0  0  0  0  0  0  0  0  0  0
  -47.9045  -23.6661   -1.4042 H   0  0  0  0  0  0  0  0  0  0  0  0
  -45.1383  -29.7724    0.3357 H   0  0  0  0  0  0  0  0  0  0  0  0
  -43.9197  -30.3914    1.4599 H   0  0  0  0  0  0  0  0  0  0  0  0
  -49.9700  -28.2248    7.2849 H   0  0  0  0  0  0  0  0  0  0  0  0
  -48.8364  -28.7119    8.5156 H   0  0  0  0  0  0  0  0  0  0  0  0
  -46.4812  -29.5019    2.1474 H   0  0  0  0  0  0  0  0  0  0  0  0
  1  2  1  0  0  0  0
  1  4  2  0  0  0  0
  2  5  2  0  0  0  0
  3  4  1  0  0  0  0
  3 20  2  0  0  0  0
  4  6  1  0  0  0  0
  5 20  1  0  0  0  0
  5 22  1  0  0  0  0
  6 23  1  0  0  0  0
  6 24  2  0  0  0  0
  7 14  1  0  0  0  0
  7 21  1  0  0  0  0
  7 25  2  0  0  0  0
  8  9  1  0  0  0  0
  8 15  1  0  0  0  0
  9 15  1  0  0  0  0
 10 14  1  0  0  0  0
 10 16  1  0  0  0  0
 11 14  1  0  0  0  0
 11 16  1  0  0  0  0
 12 17  1  0  0  0  0
 12 21  1  0  0  0  0
 13 17  1  0  0  0  0
 13 21  1  0  0  0  0
 15 18  1  0  0  0  0
 16 18  1  0  0  0  0
 17 19  1  0  0  0  0
 19 23  1  0  0  0  0
  1 26  1  0  0  0  0
  2 27  1  0  0  0  0
  3 28  1  0  0  0  0
  8 29  1  0  0  0  0
  8 30  1  0  0  0  0
  9 31  1  0  0  0  0
  9 32  1  0  0  0  0
 10 33  1  0  0  0  0
 10 34  1  0  0  0  0
 11 35  1  0  0  0  0
 11 36  1  0  0  0  0
 12 37  1  0  0  0  0
 12 38  1  0  0  0  0
 13 39  1  0  0  0  0
 13 40  1  0  0  0  0
 14 41  1  0  0  0  0
 15 42  1  0  0  0  0
 16 43  1  0  0  0  0
 17 44  1  0  0  0  0
 18 45  1  0  0  0  0
 18 46  1  0  0  0  0
 19 47  1  0  0  0  0
 19 48  1  0  0  0  0
 22 49  1  0  0  0  0
 22 50  1  0  0  0  0
 23 51  1  0  0  0  0
M  END
> <POSIT::Probability>
0.24

> <POSIT::Method>
FRED

> <ReceptorTitle>
UCSF-P4528-REFINED_LIGAND-BOUND-STATE_A__DU__LA1_A-201(A)

> <OMEGA_C>
gLU9wqA05MFPRIlAtaNBwuA848E/gahAaJY3woyA6cGHi79Ap5M4wpNk58FUupRAGD9AwkiI5cEa
bdJAbUo0wpt/6MHoP2hATBktwurVzcF0ZZW/4rdDwgj2qsHMFiPAG2tBwiLbp8F4eZu/8ys2wsu7
xMEQs+S+dyMywgSfvMHetwHAOkEswo8v4cEwRLG+qBYywsv318EwcTc/GDIwwjaaw8GA+la/6gQ+
wly7rcFcsw3AHzc3wkwcusFgXJm/JPkuwr5P4sH8yYM/eWw8wgxNucHMZ/u/sEsywhpP7MHcb58/
9U07wmCm6MG9yN5ANUwuwv5U1sHA+bi+V0tEwiaB5MFo5PFAVwU2wm3L6sFEfhZAVJkvwh6A58Fk
I35Az9ApwmIhzsEQTAXAWK8+whl14sFyOlBAsKdFwovA4MEP059ATqkzwqYE7MEhdspAzalGwjFQ
scG8TSTAhWZEwmGppMFDalHAXY9AwiJ5n8EcqIW/99JCwqwgrMEATK6+kSk4wsq9y8EIdWG/e/02
wg2NxMHQsCA/2Z0vwjy4tcH0txDA9OAywtYcwcEs3DzAceQnwji24cFAz6u+deYtwiYQ5sE4+pO/
my82wqj42MHwG7U+z+8xwl/i0cG0BcA/pe4twk7vvsFANta9EOM6wl9GqcFZtC3Ap6c2wqscs8Gw
HQy/TCAswlEy4cGUlO0/Wgo8wt10vcGxPTvAK54/wjRUvcFwvLO/lo00wsct7sEQ4qs+yK0vwqch
88GA3bo/VOFHwk3M4cE7HulAfFhDwvex5cEMQAhBx+w5wssD7MF4bglA

> <OMEGA_E>
/wwTwQ==

> <OMEGA_NBR>
    146229

$$$$
CACHE3HI_1712_34
  -OEChem-03092622573D

 56 59  0     0  0  0  0  0  0999 V2000
  -44.6684  -22.8958   -2.5092 C   0  0  0  0  0  0  0  0  0  0  0  0
  -43.4302  -23.3517   -2.0568 C   0  0  0  0  0  0  0  0  0  0  0  0
  -45.8151  -23.6584   -2.2879 C   0  0  0  0  0  0  0  0  0  0  0  0
  -42.8362  -29.8466    0.0090 C   0  0  0  0  0  0  0  0  0  0  0  0
  -43.0407  -31.0094    0.7519 C   0  0  0  0  0  0  0  0  0  0  0  0
  -43.3387  -24.5698   -1.3829 C   0  0  0  0  0  0  0  0  0  0  0  0
  -45.7236  -24.8764   -1.6141 C   0  0  0  0  0  0  0  0  0  0  0  0
  -44.4305  -28.6793    1.3992 C   0  0  0  0  0  0  0  0  0  0  0  0
  -43.5313  -28.6816    0.3327 C   0  0  0  0  0  0  0  0  0  0  0  0
  -43.9399  -31.0071    1.8184 C   0  0  0  0  0  0  0  0  0  0  0  0
  -44.4855  -25.3324   -1.1616 C   0  0  0  0  0  0  0  0  0  0  0  0
  -44.6351  -29.8420    2.1421 C   0  0  0  0  0  0  0  0  0  0  0  0
  -43.3188  -27.4696   -0.4422 C   0  0  0  0  0  0  0  0  0  0  0  0
  -45.8802  -28.7420    4.0407 C   0  0  0  0  0  0  0  0  0  0  0  0
  -50.3933  -28.3404    4.7619 C   0  0  0  0  0  0  0  0  0  0  0  0
  -49.6887  -29.4439    6.4905 C   0  0  0  0  0  0  0  0  0  0  0  0
  -47.9093  -27.9031    5.3900 C   0  0  0  0  0  0  0  0  0  0  0  0
  -48.2660  -29.7653    4.3460 C   0  0  0  0  0  0  0  0  0  0  0  0
  -51.0655  -29.3112    5.7761 C   0  0  0  0  0  0  0  0  0  0  0  0
  -49.0595  -28.8570    5.2491 C   0  0  0  0  0  0  0  0  0  0  0  0
  -44.1385  -32.2672    2.5966 C   0  0  0  0  0  0  0  0  0  0  0  0
  -53.6551  -29.4209    5.4133 C   0  0  0  0  0  0  0  0  0  0  0  0
  -51.6312  -30.5945    5.1871 C   0  0  0  0  0  0  0  0  0  0  0  0
  -47.1757  -28.8120    4.5161 N   0  0  0  0  0  0  0  0  0  0  0  0
  -44.3931  -26.5694   -0.4776 N   0  0  0  0  0  0  0  0  0  0  0  0
  -45.5489  -29.8192    3.2216 N   0  0  0  0  0  0  0  0  0  0  0  0
  -42.2372  -27.3114   -1.0318 O   0  0  0  0  0  0  0  0  0  0  0  0
  -45.1401  -27.8052    4.3407 O   0  0  0  0  0  0  0  0  0  0  0  0
  -52.8991  -30.3185    4.6110 O   0  0  0  0  0  0  0  0  0  0  0  0
  -44.7393  -21.9481   -3.0349 H   0  0  0  0  0  0  0  0  0  0  0  0
  -42.5368  -22.7589   -2.2301 H   0  0  0  0  0  0  0  0  0  0  0  0
  -46.7793  -23.3041   -2.6405 H   0  0  0  0  0  0  0  0  0  0  0  0
  -42.1337  -29.8601   -0.8204 H   0  0  0  0  0  0  0  0  0  0  0  0
  -42.4948  -31.9124    0.4913 H   0  0  0  0  0  0  0  0  0  0  0  0
  -42.3677  -24.9149   -1.0362 H   0  0  0  0  0  0  0  0  0  0  0  0
  -46.6245  -25.4622   -1.4479 H   0  0  0  0  0  0  0  0  0  0  0  0
  -44.9715  -27.7691    1.6512 H   0  0  0  0  0  0  0  0  0  0  0  0
  -50.6067  -28.5730    3.7087 H   0  0  0  0  0  0  0  0  0  0  0  0
  -50.6019  -27.2762    4.9260 H   0  0  0  0  0  0  0  0  0  0  0  0
  -49.5872  -28.8672    7.4182 H   0  0  0  0  0  0  0  0  0  0  0  0
  -49.3895  -30.4815    6.6984 H   0  0  0  0  0  0  0  0  0  0  0  0
  -48.0405  -26.9086    4.9508 H   0  0  0  0  0  0  0  0  0  0  0  0
  -47.4613  -27.8196    6.3857 H   0  0  0  0  0  0  0  0  0  0  0  0
  -48.0295  -30.7546    4.7434 H   0  0  0  0  0  0  0  0  0  0  0  0
  -48.6083  -29.8368    3.3115 H   0  0  0  0  0  0  0  0  0  0  0  0
  -51.8105  -28.8103    6.3997 H   0  0  0  0  0  0  0  0  0  0  0  0
  -43.4373  -32.3279    3.4378 H   0  0  0  0  0  0  0  0  0  0  0  0
  -43.9641  -33.1506    1.9699 H   0  0  0  0  0  0  0  0  0  0  0  0
  -45.1607  -32.3131    2.9892 H   0  0  0  0  0  0  0  0  0  0  0  0
  -54.6219  -29.2326    4.9393 H   0  0  0  0  0  0  0  0  0  0  0  0
  -53.8150  -29.8708    6.3961 H   0  0  0  0  0  0  0  0  0  0  0  0
  -53.1058  -28.4838    5.5294 H   0  0  0  0  0  0  0  0  0  0  0  0
  -51.7549  -31.3518    5.9663 H   0  0  0  0  0  0  0  0  0  0  0  0
  -50.9679  -30.9846    4.4092 H   0  0  0  0  0  0  0  0  0  0  0  0
  -45.2142  -26.8402    0.0586 H   0  0  0  0  0  0  0  0  0  0  0  0
  -46.0258  -30.7470    3.4087 H   0  0  0  0  0  0  0  0  0  0  0  0
  1  2  1  0  0  0  0
  1  3  2  0  0  0  0
  2  6  2  0  0  0  0
  3  7  1  0  0  0  0
  4  5  2  0  0  0  0
  4  9  1  0  0  0  0
  5 10  1  0  0  0  0
  6 11  1  0  0  0  0
  7 11  2  0  0  0  0
  8  9  2  0  0  0  0
  8 12  1  0  0  0  0
  9 13  1  0  0  0  0
 10 12  2  0  0  0  0
 10 21  1  0  0  0  0
 11 25  1  0  0  0  0
 12 26  1  0  0  0  0
 13 25  1  0  0  0  0
 13 27  2  0  0  0  0
 14 24  1  0  0  0  0
 14 26  1  0  0  0  0
 14 28  2  0  0  0  0
 15 19  1  0  0  0  0
 15 20  1  0  0  0  0
 16 19  1  0  0  0  0
 16 20  1  0  0  0  0
 17 20  1  0  0  0  0
 17 24  1  0  0  0  0
 18 20  1  0  0  0  0
 18 24  1  0  0  0  0
 19 23  1  0  0  0  0
 22 29  1  0  0  0  0
 23 29  1  0  0  0  0
  1 30  1  0  0  0  0
  2 31  1  0  0  0  0
  3 32  1  0  0  0  0
  4 33  1  0  0  0  0
  5 34  1  0  0  0  0
  6 35  1  0  0  0  0
  7 36  1  0  0  0  0
  8 37  1  0  0  0  0
 15 38  1  0  0  0  0
 15 39  1  0  0  0  0
 16 40  1  0  0  0  0
 16 41  1  0  0  0  0
 17 42  1  0  0  0  0
 17 43  1  0  0  0  0
 18 44  1  0  0  0  0
 18 45  1  0  0  0  0
 19 46  1  0  0  0  0
 21 47  1  0  0  0  0
 21 48  1  0  0  0  0
 21 49  1  0  0  0  0
 22 50  1  0  0  0  0
 22 51  1  0  0  0  0
 22 52  1  0  0  0  0
 23 53  1  0  0  0  0
 23 54  1  0  0  0  0
 25 55  1  0  0  0  0
 26 56  1  0  0  0  0
M  END
> <POSIT::Probability>
0.24

> <POSIT::Method>
FRED

> <ReceptorTitle>
UCSF-P4528-REFINED_LIGAND-BOUND-STATE_A__DU__LA1_A-201(A)

> <OMEGA_C>
cqwywpsqt8H4liDAi7gtwmHQusH2oQPArUI3wmBEvcHgbBLAOlgrwunF7sEAOBM8rCkswj4T+MEQ
ekA/2lotwuaOxMH8A7G/++Q2wuUCx8HYmc6/4LgxwiRv5cFsGbM/EyAuwtxz5cGAWqo+ecIvwoUO
+MHUv+g/IvExwrKoysEMsJS/Vooywlm87sHoFwlAaUYtwszB28FgZ+K+V4U3wpTv5cEETYFAs5JJ
wiC54sGYYZhAQMFGwiqN68Fgss9AF6M/wnU538HneqxAWhBBwmYf7sE8EotAG0NMwk596sHC1bhA
9jxEwinb5sFm+KdA1I0wwqMRAcIULiZAzp5Wwgpe68FvOa1AZoZOwp/B9MFl/KVA7LM8wgV/5sGi
g5BAfJIxwi+O1MHggfS+BjI2wrGN7sG4Lk5A6vIows592sGgEIS/b480wiNx3sHZ5opAtphTwl2M
8sECjZNADfUywsSVr8FePELAtSUqwiMStsHEug7AAR47wt5uusE0/ijA5Ygowmbh7sEgA1K/svop
woJM/8Fwhfs+k3gpwp9Rx8FMoYS/d386woKyy8FwU7m/1+Izwhwn3sGEWdM/Nm1KwoqV5MH6Wm1A
TmhKwqI12sGGoZ1AUFlGwhrw5sHHYe1A1I5Fwh7a88H2WNZAgilAws9E18EqbZ5AX9g9wnyO3sFw
V8xAOx5AwlsJ9sGKyZdA725CwtCx7sEw8FNA6T1PwoN75sGAysxA078twsFPAcJYBVxAOtsvwjGa
BML4Jfw/lKQ0wpVAAcKATj9A2nxawl3c6cEGD55AkEJXwk737sHjrMxAS2xUwtze48Gu8LBA+QRP
wofQ+sHy675AG99Lwmrg98F2GI1AW9s0wtC41sEA9G89Xxo4wuT59cGIJ1pA

> <OMEGA_E>
TlT5wA==

> <OMEGA_NBR>
    147841

$$$$
CACHE3HI_1712_48
  -OEChem-03092622573D

 52 54  0     1  0  0  0  0  0999 V2000
  -43.8817  -26.0410    1.2501 C   0  0  0  0  0  0  0  0  0  0  0  0
  -44.0196  -26.8545    2.3736 C   0  0  0  0  0  0  0  0  0  0  0  0
  -43.0770  -27.9278   -0.0490 C   0  0  0  0  0  0  0  0  0  0  0  0
  -43.4122  -26.5745    0.0451 C   0  0  0  0  0  0  0  0  0  0  0  0
  -43.2024  -28.7478    1.0716 C   0  0  0  0  0  0  0  0  0  0  0  0
  -43.6633  -28.1953    2.2746 C   0  0  0  0  0  0  0  0  0  0  0  0
  -43.2507  -25.7002   -1.1250 C   0  0  0  0  0  0  0  0  0  0  0  0
  -45.6933  -25.6615   -1.4751 C   0  0  0  0  0  0  0  0  0  0  0  0
  -44.3646  -23.7812   -2.3719 C   0  0  0  0  0  0  0  0  0  0  0  0
  -46.7426  -24.6608   -0.9942 C   0  0  0  0  0  0  0  0  0  0  0  0
  -45.4528  -22.8227   -1.8833 C   0  0  0  0  0  0  0  0  0  0  0  0
  -42.9005  -30.2298    1.1054 C   0  0  0  0  0  0  0  0  0  0  0  0
  -41.5493  -30.5892    0.4799 C   0  0  0  0  0  0  0  0  0  0  0  0
  -44.0238  -31.0360    0.4463 C   0  0  0  0  0  0  0  0  0  0  0  0
  -47.1499  -20.4616   -2.6578 C   0  0  0  0  0  0  0  0  0  0  0  0
  -45.2477  -29.4125    3.7139 C   0  0  0  0  0  0  0  0  0  0  0  0
  -47.7977  -22.5368   -1.4137 C   0  0  0  0  0  0  0  0  0  0  0  0
  -48.1509  -21.5657   -2.5351 C   0  0  1  0  0  0  0  0  0  0  0  0
  -43.8307  -29.1441    3.3468 N   0  0  1  0  0  0  0  0  0  0  0  0
  -44.3794  -25.0393   -1.6171 N   0  0  0  0  0  0  0  0  0  0  0  0
  -46.7687  -23.4735   -1.8588 N   0  0  0  0  0  0  0  0  0  0  0  0
  -42.1118  -25.6116   -1.5829 O   0  0  0  0  0  0  0  0  0  0  0  0
  -41.5028  -30.2817    3.3763 O   0  0  0  0  0  0  0  0  0  0  0  0
  -43.5426  -31.7587    3.2429 O   0  0  0  0  0  0  0  0  0  0  0  0
  -49.3604  -21.0021   -2.2586 F   0  0  0  0  0  0  0  0  0  0  0  0
  -42.8557  -30.5276    2.9100 S   0  0  0  0  0  0  0  0  0  0  0  0
  -44.1309  -24.9856    1.3241 H   0  0  0  0  0  0  0  0  0  0  0  0
  -44.3991  -26.4313    3.2961 H   0  0  0  0  0  0  0  0  0  0  0  0
  -42.7093  -28.3333   -0.9878 H   0  0  0  0  0  0  0  0  0  0  0  0
  -45.6433  -26.5094   -0.7838 H   0  0  0  0  0  0  0  0  0  0  0  0
  -45.9673  -26.0601   -2.4598 H   0  0  0  0  0  0  0  0  0  0  0  0
  -44.5308  -24.0409   -3.4247 H   0  0  0  0  0  0  0  0  0  0  0  0
  -43.3908  -23.2883   -2.3078 H   0  0  0  0  0  0  0  0  0  0  0  0
  -47.7213  -25.1555   -1.0141 H   0  0  0  0  0  0  0  0  0  0  0  0
  -46.5373  -24.3846    0.0486 H   0  0  0  0  0  0  0  0  0  0  0  0
  -45.1848  -22.4440   -0.8879 H   0  0  0  0  0  0  0  0  0  0  0  0
  -45.4787  -21.9619   -2.5625 H   0  0  0  0  0  0  0  0  0  0  0  0
  -41.3961  -31.6636    0.5369 H   0  0  0  0  0  0  0  0  0  0  0  0
  -40.7528  -30.0819    1.0179 H   0  0  0  0  0  0  0  0  0  0  0  0
  -41.5358  -30.2777   -0.5621 H   0  0  0  0  0  0  0  0  0  0  0  0
  -43.7837  -32.0961    0.4832 H   0  0  0  0  0  0  0  0  0  0  0  0
  -44.1347  -30.7286   -0.5910 H   0  0  0  0  0  0  0  0  0  0  0  0
  -44.9591  -30.8610    0.9745 H   0  0  0  0  0  0  0  0  0  0  0  0
  -47.0569  -19.9346   -1.7009 H   0  0  0  0  0  0  0  0  0  0  0  0
  -46.1654  -20.8584   -2.9262 H   0  0  0  0  0  0  0  0  0  0  0  0
  -47.4649  -19.7366   -3.4161 H   0  0  0  0  0  0  0  0  0  0  0  0
  -45.3025  -30.1382    4.5305 H   0  0  0  0  0  0  0  0  0  0  0  0
  -45.7372  -28.4879    4.0326 H   0  0  0  0  0  0  0  0  0  0  0  0
  -45.7918  -29.8110    2.8531 H   0  0  0  0  0  0  0  0  0  0  0  0
  -48.6858  -23.1028   -1.1128 H   0  0  0  0  0  0  0  0  0  0  0  0
  -47.4334  -21.9921   -0.5359 H   0  0  0  0  0  0  0  0  0  0  0  0
  -48.2393  -22.0882   -3.4940 H   0  0  0  0  0  0  0  0  0  0  0  0
  1  2  2  0  0  0  0
  1  4  1  0  0  0  0
  2  6  1  0  0  0  0
  3  4  2  0  0  0  0
  3  5  1  0  0  0  0
  4  7  1  0  0  0  0
  5  6  2  0  0  0  0
  5 12  1  0  0  0  0
  6 19  1  0  0  0  0
  7 20  1  0  0  0  0
  7 22  2  0  0  0  0
  8 10  1  0  0  0  0
  8 20  1  0  0  0  0
  9 11  1  0  0  0  0
  9 20  1  0  0  0  0
 10 21  1  0  0  0  0
 11 21  1  0  0  0  0
 12 13  1  0  0  0  0
 12 14  1  0  0  0  0
 12 26  1  0  0  0  0
 15 18  1  0  0  0  0
 16 19  1  0  0  0  0
 17 18  1  0  0  0  0
 17 21  1  0  0  0  0
 18 25  1  0  0  0  0
 19 26  1  0  0  0  0
 23 26  2  0  0  0  0
 24 26  2  0  0  0  0
  1 27  1  0  0  0  0
  2 28  1  0  0  0  0
  3 29  1  0  0  0  0
  8 30  1  0  0  0  0
  8 31  1  0  0  0  0
  9 32  1  0  0  0  0
  9 33  1  0  0  0  0
 10 34  1  0  0  0  0
 10 35  1  0  0  0  0
 11 36  1  0  0  0  0
 11 37  1  0  0  0  0
 13 38  1  0  0  0  0
 13 39  1  0  0  0  0
 13 40  1  0  0  0  0
 14 41  1  0  0  0  0
 14 42  1  0  0  0  0
 14 43  1  0  0  0  0
 15 44  1  0  0  0  0
 15 45  1  0  0  0  0
 15 46  1  0  0  0  0
 16 47  1  0  0  0  0
 16 48  1  0  0  0  0
 16 49  1  0  0  0  0
 17 50  1  0  0  0  0
 17 51  1  0  0  0  0
 18 52  1  0  0  0  0
M  END
> <POSIT::Probability>
0.05

> <POSIT::Method>
FRED

> <ReceptorTitle>
UCSF-P4528-REFINED_LIGAND-BOUND-STATE_A__DU__LA1_A-201(A)

> <OMEGA_C>
0IYvwv5T0MFABKA/DBQwwhLW1sG66BdA204swips38EAj0i9HaYtwqyY1MEArzg9PM8swm/75cGw
KYk/NqcuwgOQ4cEskxFArAAtwvyZzcF4AJC/6sU2wrZKzcHYz7y/TXUxwts/vsFEzRfAdvg6wmZJ
xcEQhX6/p881wvyUtsGYEPG/HJorwqXW8cHkfo0/gTImwpy29MEgsPU+XRgwwsFJ+MHge+Q+fpk8
wm6xo8EsGirAqv00wuZM68G0sG1A3jA/wktLtMF487S/gJpAwoiGrMG0PiLAsFIvwhIn6cFAMVZA
d4QxwmhQyMHw+86/HhM7wtDJu8GY7e2/hXIowpvkzMF4ncq/2wImwvVA8sEMFVhAkysuwtQR/sES
i09AD3FFwlYEqMGQjRDARWwrwm049ME4PTpABIYwwnbix8FUe6k/pJgxwkBz08Fo81JAR9YqwoOq
4sFg33y/tJI2wkYT1MFwqUi/ft43wg970MHYbR3AhB8ywr9TwMHMLlvAKZAtwnpOusHsshPAluI+
wl8+ycHozYG/PCY6wpcTw8EADEc9SL00wkaNs8GQTWO/J+o1wt+xr8F8/yPAkJUlwhxP/cFQdAk/
0gIjwsan8MFgSYI/qSQmwrs48sHw6A+/hyIvwlxiAMJAY/c+9YkwwkHU9cFQTRe/GtYzwkbj9sGQ
eHk/Ojo8wh96n8Hot9m/Wqk4wuvdpsGwRjvAC9w9wnbkncGUoVrAzTU1wggb8cEI+pBA3PI2wlDn
48FNC4FA1Co3wvZ87sGkmTZASr5CwnbSuMFQcY6/xbs9wtrvr8EQMAm/B/VAwrq0sMF8nl/A

> <OMEGA_E>
wCYFwQ==

> <OMEGA_NBR>
    149378

$$$$
CACHE3HI_1712_54
  -OEChem-03092622573D

 60 63  0     1  0  0  0  0  0999 V2000
  -45.3714  -25.3405   -1.2237 C   0  0  0  0  0  0  0  0  0  0  0  0
  -43.3825  -24.1229   -1.8556 C   0  0  0  0  0  0  0  0  0  0  0  0
  -46.1628  -24.3249   -1.7602 C   0  0  0  0  0  0  0  0  0  0  0  0
  -44.1739  -23.1073   -2.3921 C   0  0  0  0  0  0  0  0  0  0  0  0
  -43.9811  -25.2394   -1.2716 C   0  0  0  0  0  0  0  0  0  0  0  0
  -45.5643  -23.2084   -2.3442 C   0  0  0  0  0  0  0  0  0  0  0  0
  -43.1480  -26.3071   -0.7053 C   0  0  0  0  0  0  0  0  0  0  0  0
  -44.1859  -29.1395    3.9573 C   0  0  0  0  0  0  0  0  0  0  0  0
  -48.2027  -29.5554    2.1699 C   0  0  0  0  0  0  0  0  0  0  0  0
  -48.1795  -30.2571    3.5514 C   0  0  0  0  0  0  0  0  0  0  0  0
  -46.9867  -28.7153    2.6362 C   0  0  0  0  0  0  0  0  0  0  0  0
  -47.3952  -28.5999    6.1081 C   0  0  0  0  0  0  0  0  0  0  0  0
  -44.5791  -26.5202    1.3904 C   0  0  0  0  0  0  0  0  0  0  0  0
  -43.3162  -28.4555    0.4999 C   0  0  0  0  0  0  0  0  0  0  0  0
  -44.1228  -26.8783    2.8031 C   0  0  0  0  0  0  0  0  0  0  0  0
  -42.8448  -28.7967    1.9071 C   0  0  0  0  0  0  0  0  0  0  0  0
  -46.3734  -29.2726    5.1443 C   0  0  1  0  0  0  0  0  0  0  0  0
  -48.1195  -27.9995    4.8718 C   0  0  1  0  0  0  0  0  0  0  0  0
  -47.4000  -29.0541    4.0496 C   0  0  0  0  0  0  0  0  0  0  0  0
  -47.6360  -19.9538   -2.4661 C   0  0  0  0  0  0  0  0  0  0  0  0
  -46.4109  -22.1234   -2.9183 C   0  0  0  0  0  0  0  0  0  0  0  0
  -45.0423  -28.5428    5.0261 C   0  0  0  0  0  0  0  0  0  0  0  0
  -46.7451  -21.0394   -1.8837 C   0  0  0  0  0  0  0  0  0  0  0  0
  -43.6538  -27.0380    0.3749 N   0  0  0  0  0  0  0  0  0  0  0  0
  -43.7762  -28.2981    2.9176 N   0  0  0  0  0  0  0  0  0  0  0  0
  -42.0544  -26.4829   -1.2384 O   0  0  0  0  0  0  0  0  0  0  0  0
  -43.8942  -30.3294    4.0513 O   0  0  0  0  0  0  0  0  0  0  0  0
  -49.5564  -28.0308    4.9122 O   0  0  0  0  0  0  0  0  0  0  0  0
  -45.8487  -26.2057   -0.7708 H   0  0  0  0  0  0  0  0  0  0  0  0
  -42.3000  -24.0330   -1.8978 H   0  0  0  0  0  0  0  0  0  0  0  0
  -47.2453  -24.4119   -1.7180 H   0  0  0  0  0  0  0  0  0  0  0  0
  -43.6985  -22.2423   -2.8466 H   0  0  0  0  0  0  0  0  0  0  0  0
  -48.0280  -30.2032    1.3070 H   0  0  0  0  0  0  0  0  0  0  0  0
  -49.1060  -28.9605    1.9924 H   0  0  0  0  0  0  0  0  0  0  0  0
  -49.1577  -30.4497    3.9988 H   0  0  0  0  0  0  0  0  0  0  0  0
  -47.6094  -31.1938    3.5452 H   0  0  0  0  0  0  0  0  0  0  0  0
  -46.0281  -29.1446    2.3237 H   0  0  0  0  0  0  0  0  0  0  0  0
  -47.0115  -27.6602    2.3513 H   0  0  0  0  0  0  0  0  0  0  0  0
  -48.0036  -29.3168    6.6724 H   0  0  0  0  0  0  0  0  0  0  0  0
  -46.9831  -27.8672    6.8083 H   0  0  0  0  0  0  0  0  0  0  0  0
  -45.5588  -26.9688    1.1863 H   0  0  0  0  0  0  0  0  0  0  0  0
  -44.6953  -25.4362    1.3115 H   0  0  0  0  0  0  0  0  0  0  0  0
  -42.5461  -28.7332   -0.2272 H   0  0  0  0  0  0  0  0  0  0  0  0
  -44.2193  -29.0262    0.2528 H   0  0  0  0  0  0  0  0  0  0  0  0
  -43.2218  -26.3092    3.0617 H   0  0  0  0  0  0  0  0  0  0  0  0
  -44.9000  -26.5893    3.5131 H   0  0  0  0  0  0  0  0  0  0  0  0
  -42.7115  -29.8793    1.9998 H   0  0  0  0  0  0  0  0  0  0  0  0
  -41.8720  -28.3308    2.1056 H   0  0  0  0  0  0  0  0  0  0  0  0
  -46.1901  -30.3251    5.3912 H   0  0  0  0  0  0  0  0  0  0  0  0
  -47.7753  -26.9792    4.6573 H   0  0  0  0  0  0  0  0  0  0  0  0
  -48.5658  -20.3900   -2.8450 H   0  0  0  0  0  0  0  0  0  0  0  0
  -47.8951  -19.2097   -1.7064 H   0  0  0  0  0  0  0  0  0  0  0  0
  -47.1383  -19.4405   -3.2949 H   0  0  0  0  0  0  0  0  0  0  0  0
  -47.3455  -22.5453   -3.3228 H   0  0  0  0  0  0  0  0  0  0  0  0
  -45.9042  -21.6624   -3.7818 H   0  0  0  0  0  0  0  0  0  0  0  0
  -45.2031  -27.4924    4.7870 H   0  0  0  0  0  0  0  0  0  0  0  0
  -44.4990  -28.5999    5.9695 H   0  0  0  0  0  0  0  0  0  0  0  0
  -45.8204  -20.5830   -1.5102 H   0  0  0  0  0  0  0  0  0  0  0  0
  -47.2471  -21.4904   -1.0195 H   0  0  0  0  0  0  0  0  0  0  0  0
  -49.8093  -27.5182    5.6911 H   0  0  0  0  0  0  0  0  0  0  0  0
  1  3  2  0  0  0  0
  1  5  1  0  0  0  0
  2  4  1  0  0  0  0
  2  5  2  0  0  0  0
  3  6  1  0  0  0  0
  4  6  2  0  0  0  0
  5  7  1  0  0  0  0
  6 21  1  0  0  0  0
  7 24  1  0  0  0  0
  7 26  2  0  0  0  0
  8 22  1  0  0  0  0
  8 25  1  0  0  0  0
  8 27  2  0  0  0  0
  9 10  1  0  0  0  0
  9 11  1  0  0  0  0
 10 19  1  0  0  0  0
 11 19  1  0  0  0  0
 12 17  1  0  0  0  0
 12 18  1  0  0  0  0
 13 15  1  0  0  0  0
 13 24  1  0  0  0  0
 14 16  1  0  0  0  0
 14 24  1  0  0  0  0
 15 25  1  0  0  0  0
 16 25  1  0  0  0  0
 17 19  1  0  0  0  0
 17 22  1  0  0  0  0
 18 19  1  0  0  0  0
 18 28  1  0  0  0  0
 20 23  1  0  0  0  0
 21 23  1  0  0  0  0
  1 29  1  0  0  0  0
  2 30  1  0  0  0  0
  3 31  1  0  0  0  0
  4 32  1  0  0  0  0
  9 33  1  0  0  0  0
  9 34  1  0  0  0  0
 10 35  1  0  0  0  0
 10 36  1  0  0  0  0
 11 37  1  0  0  0  0
 11 38  1  0  0  0  0
 12 39  1  0  0  0  0
 12 40  1  0  0  0  0
 13 41  1  0  0  0  0
 13 42  1  0  0  0  0
 14 43  1  0  0  0  0
 14 44  1  0  0  0  0
 15 45  1  0  0  0  0
 15 46  1  0  0  0  0
 16 47  1  0  0  0  0
 16 48  1  0  0  0  0
 17 49  1  0  0  0  0
 18 50  1  0  0  0  0
 20 51  1  0  0  0  0
 20 52  1  0  0  0  0
 20 53  1  0  0  0  0
 21 54  1  0  0  0  0
 21 55  1  0  0  0  0
 22 56  1  0  0  0  0
 22 57  1  0  0  0  0
 23 58  1  0  0  0  0
 23 59  1  0  0  0  0
 28 60  1  0  0  0  0
M  END
> <POSIT::Probability>
0.24

> <POSIT::Method>
FRED

> <ReceptorTitle>
UCSF-P4528-REFINED_LIGAND-BOUND-STATE_A__DU__LA1_A-201(A)

> <OMEGA_C>
T3w1wl+5ysGMopy/roctwqv7wMFsg+2/waY4wm6ZwsHMT+G/E7IwwsXbuMEyGBnApOwvwlLqycH8
wqK/y0E2wsmqucEkCBbAipcswgN10sHgjjS/aL4wwrAd6cEsRH1Am89Awntx7MFf3wpAxrdAwpoO
8sGXSmNAY/I7wuu45cE7uChArpQ9wpHM5ME3dcNA81AywlEp1MEu+rE/0EMtwt2k48HY8f8+yn0w
wsIG18H9ZTNAE2ErwqZf5sH2HPQ/V345wlIu6sFhnqRAWXpAwvL+38GY5ZtAkZk9wtlu6MFEloFA
SIs+wmuhn8EA1B3AuaQ5wrv8sMFixTrARys0wrtX5MEE1qBA9/o6wsNQqMEkHfG/hp0uwsxN2MGg
878+3BovwnFi4sF4uTpAwTcowu3c08Gqgp6/sJMvwoii8sEUpIFAxDlGwhs/4MHOMJ1AB2U3wkal
0cGAU0W/PDMpwqtDwMHA6vK/I/s8wqtLw8EI59u/Qcsuwk7wscEQLjbAtRxAwhWg8cF0TKc/g2xE
wi+v58EMB/8/gaFEwuWY88F/7H9AAnA+wvOM+cFY5WJAuxw4whIo6cFNtxRA0Qs8wipI3cHkexZA
sANAwr6I6sF1hNVAr+47wh7w3sH13dlAPzw2winA18Ec2pc/Ccgywm19y8Es3qc/PS8qwoHd5cGQ
pmi+neAwwqc16MGAb4E+I+MswjV50sGw80NAlZkzwvW21MHg1WBAnNgqwr8I78F6+P8/6Hwnwm2l
4sF4wgZAosI4ws+Z8sGghKxA8Bk/wnHV18FXCJVAZUNCwr4eo8EcFDbAmZQ/wl6tmcHYa9q/q408
wieGm8FI31LAy2E9wuBctME2qVTA3J03wrJMrcGKCHLA/M80wn7w28HqLplAA/8xwn/M5MFUBr9A
Fkg3wvGppMGATcG//vw8wlPsq8HMfYK/wjxHwkEl3MGMHbZA

> <OMEGA_E>
K1wIwQ==

> <OMEGA_NBR>
    151078

$$$$
CACHE3HI_1712_55
  -OEChem-03092622573D

 54 57  0     1  0  0  0  0  0999 V2000
  -46.4536  -28.4290    4.8590 C   0  0  0  0  0  0  0  0  0  0  0  0
  -47.7146  -28.1788    5.4003 C   0  0  0  0  0  0  0  0  0  0  0  0
  -47.3528  -30.3086    3.6359 C   0  0  0  0  0  0  0  0  0  0  0  0
  -45.1554  -34.4719   -0.5110 C   0  0  0  0  0  0  0  0  0  0  0  0
  -46.2728  -29.4942    3.9769 C   0  0  0  0  0  0  0  0  0  0  0  0
  -44.8073  -33.7307   -1.6139 C   0  0  0  0  0  0  0  0  0  0  0  0
  -48.6138  -30.0585    4.1771 C   0  0  0  0  0  0  0  0  0  0  0  0
  -48.7946  -28.9933    5.0593 C   0  0  0  0  0  0  0  0  0  0  0  0
  -44.8900  -34.6381   -2.6871 C   0  0  0  0  0  0  0  0  0  0  0  0
  -44.9524  -29.7560    3.4106 C   0  0  0  0  0  0  0  0  0  0  0  0
  -44.4361  -32.2928   -1.6095 C   0  0  0  0  0  0  0  0  0  0  0  0
  -42.3732  -29.1335    1.3017 C   0  0  0  0  0  0  0  0  0  0  0  0
  -42.2712  -30.6036    1.5695 C   0  0  0  0  0  0  0  0  0  0  0  0
  -45.3903  -29.3958   -0.2517 C   0  0  0  0  0  0  0  0  0  0  0  0
  -45.9244  -29.4476    1.1723 C   0  0  0  0  0  0  0  0  0  0  0  0
  -44.1359  -30.2688   -0.2068 C   0  0  1  0  0  0  0  0  0  0  0  0
  -43.6052  -30.0124    1.1966 C   0  0  0  0  0  0  0  0  0  0  0  0
  -49.7582  -30.9406    3.8017 C   0  0  0  0  0  0  0  0  0  0  0  0
  -44.6206  -34.3795   -4.1124 C   0  0  0  0  0  0  0  0  0  0  0  0
  -52.1209  -29.6564    6.2802 C   0  0  0  0  0  0  0  0  0  0  0  0
  -50.6143  -29.7659    6.3818 C   0  0  0  0  0  0  0  0  0  0  0  0
  -45.2611  -35.8616   -2.3007 N   0  0  0  0  0  0  0  0  0  0  0  0
  -45.4150  -35.7288   -0.9724 N   0  0  0  0  0  0  0  0  0  0  0  0
  -44.7634  -29.7221    2.0318 N   0  0  0  0  0  0  0  0  0  0  0  0
  -44.4498  -31.6674   -0.3718 N   0  0  0  0  0  0  0  0  0  0  0  0
  -44.0591  -29.9754    4.2307 O   0  0  0  0  0  0  0  0  0  0  0  0
  -44.1627  -31.7404   -2.6717 O   0  0  0  0  0  0  0  0  0  0  0  0
  -50.0195  -28.7342    5.5967 O   0  0  0  0  0  0  0  0  0  0  0  0
  -45.6190  -27.7884    5.1316 H   0  0  0  0  0  0  0  0  0  0  0  0
  -47.8490  -27.3479    6.0874 H   0  0  0  0  0  0  0  0  0  0  0  0
  -47.2127  -31.1393    2.9479 H   0  0  0  0  0  0  0  0  0  0  0  0
  -45.2401  -34.2270    0.5383 H   0  0  0  0  0  0  0  0  0  0  0  0
  -42.2866  -28.4586    2.1437 H   0  0  0  0  0  0  0  0  0  0  0  0
  -41.9236  -28.7570    0.3912 H   0  0  0  0  0  0  0  0  0  0  0  0
  -41.7427  -31.2064    0.8365 H   0  0  0  0  0  0  0  0  0  0  0  0
  -42.0943  -30.9284    2.5881 H   0  0  0  0  0  0  0  0  0  0  0  0
  -46.1237  -29.7256   -0.9936 H   0  0  0  0  0  0  0  0  0  0  0  0
  -45.1066  -28.3645   -0.4956 H   0  0  0  0  0  0  0  0  0  0  0  0
  -46.4134  -28.5079    1.4636 H   0  0  0  0  0  0  0  0  0  0  0  0
  -46.6422  -30.2699    1.3071 H   0  0  0  0  0  0  0  0  0  0  0  0
  -43.4251  -29.9942   -0.9924 H   0  0  0  0  0  0  0  0  0  0  0  0
  -49.8469  -31.7910    4.4895 H   0  0  0  0  0  0  0  0  0  0  0  0
  -49.6247  -31.3569    2.7950 H   0  0  0  0  0  0  0  0  0  0  0  0
  -50.6974  -30.3752    3.8234 H   0  0  0  0  0  0  0  0  0  0  0  0
  -43.5634  -34.5604   -4.3764 H   0  0  0  0  0  0  0  0  0  0  0  0
  -44.8270  -33.3307   -4.3914 H   0  0  0  0  0  0  0  0  0  0  0  0
  -45.2397  -35.0237   -4.7597 H   0  0  0  0  0  0  0  0  0  0  0  0
  -52.4681  -28.6891    6.6541 H   0  0  0  0  0  0  0  0  0  0  0  0
  -52.4469  -29.7720    5.2415 H   0  0  0  0  0  0  0  0  0  0  0  0
  -52.6046  -30.4520    6.8559 H   0  0  0  0  0  0  0  0  0  0  0  0
  -50.2736  -30.7352    6.0064 H   0  0  0  0  0  0  0  0  0  0  0  0
  -50.2896  -29.6495    7.4204 H   0  0  0  0  0  0  0  0  0  0  0  0
  -45.7003  -36.5408   -0.4393 H   0  0  0  0  0  0  0  0  0  0  0  0
  -44.7479  -32.1763    0.4548 H   0  0  0  0  0  0  0  0  0  0  0  0
  1  2  2  0  0  0  0
  1  5  1  0  0  0  0
  2  8  1  0  0  0  0
  3  5  2  0  0  0  0
  3  7  1  0  0  0  0
  4  6  2  0  0  0  0
  4 23  1  0  0  0  0
  5 10  1  0  0  0  0
  6  9  1  0  0  0  0
  6 11  1  0  0  0  0
  7  8  2  0  0  0  0
  7 18  1  0  0  0  0
  8 28  1  0  0  0  0
  9 19  1  0  0  0  0
  9 22  2  0  0  0  0
 10 24  1  0  0  0  0
 10 26  2  0  0  0  0
 11 25  1  0  0  0  0
 11 27  2  0  0  0  0
 12 13  1  0  0  0  0
 12 17  1  0  0  0  0
 13 17  1  0  0  0  0
 14 15  1  0  0  0  0
 14 16  1  0  0  0  0
 15 24  1  0  0  0  0
 16 17  1  0  0  0  0
 16 25  1  0  0  0  0
 17 24  1  0  0  0  0
 20 21  1  0  0  0  0
 21 28  1  0  0  0  0
 22 23  1  0  0  0  0
  1 29  1  0  0  0  0
  2 30  1  0  0  0  0
  3 31  1  0  0  0  0
  4 32  1  0  0  0  0
 12 33  1  0  0  0  0
 12 34  1  0  0  0  0
 13 35  1  0  0  0  0
 13 36  1  0  0  0  0
 14 37  1  0  0  0  0
 14 38  1  0  0  0  0
 15 39  1  0  0  0  0
 15 40  1  0  0  0  0
 16 41  1  0  0  0  0
 18 42  1  0  0  0  0
 18 43  1  0  0  0  0
 18 44  1  0  0  0  0
 19 45  1  0  0  0  0
 19 46  1  0  0  0  0
 19 47  1  0  0  0  0
 20 48  1  0  0  0  0
 20 49  1  0  0  0  0
 20 50  1  0  0  0  0
 21 51  1  0  0  0  0
 21 52  1  0  0  0  0
 23 53  1  0  0  0  0
 25 54  1  0  0  0  0
M  END
> <POSIT::Probability>
0.18

> <POSIT::Method>
FRED

> <ReceptorTitle>
UCSF-P4528-REFINED_LIGAND-BOUND-STATE_A__DU__LA1_A-201(A)

> <OMEGA_C>
hdA5wq1u48FHfZtAyds+wkBu4cFlz6xARmk9whx48sFfsmhALJ80wjPjCcLIzQK/Xxc5whH068Hq
hH5Aszozwj3sBsIUlc6/g3RCwsR38MEBq4VAsS1Dwkzy58Ee5qFAYI8zwnKNCsLU+CvAQs8zwk8M
7sE/R1pAh74xwuArAcJIA86/I34pwmMR6cE6naY/tBUpwijU9MFc5sg/to81wrEq68FQ4YC+o7I3
wqiU68HMDJY/IYswwokm8sHAzlO+vGsuwl8Z8MHWKJk/bghHwl+G98FcTnNAeXsywpKECcJkmIPA
wntQwllA7cGk98hAGHVKwo4g7sFQN8xAVws1wklyD8I0PxPA/Kg1wkzqDsIQ7Xi/wA0zwuTG7cHy
CAJAnMwxwtBW/cFAV76+ijwwwrfN78GZYYdApqYwwkbs/cG8/SrA+BNIwozf5cHrF7NA5Xk2wpxO
3sFYNqRAWWU/wobI2sFTzMJAzNk8wmMd+cHJqjxA6fU0wn7oCMKgzwk/gyUpwjar48GYMQlAxLEn
wk8O5sEoS8g+evgmwq+m+cEcKFY/jmAowmFt98HjoyVAtX44wvnN7cHoXX6/HG00wpPq4sFQuf2+
Sac5wjIQ5MGMV7s/oZE6wtIo8sFQUKc/TrMtwiz078FQDX6/N2NHwvxT/sHlqY9ApX9GwgDb+sFi
4TJAHMpKwlMA88HosnRA8EAuwtU9CsKJC4zA4E4zwp9SBcJKhozAfPU0wkQYDMJlT5jAXN9RwjyD
5cFq7tRAp8lRwvcs7sFwuqdAJGtSwqad88FxY9tANxhJwsnh9cFONMBAjyhJwiUy7cErdO1AIs02
wscpEsLA6uC+5v0ywo60AMJw3eg+

> <OMEGA_E>
4p4MwQ==

> <OMEGA_NBR>
    152656

$$$$
CACHE3HI_1712_6
  -OEChem-03092622573D

 53 56  0     0  0  0  0  0  0999 V2000
  -43.8414  -23.3947   -2.2854 C   0  0  0  0  0  0  0  0  0  0  0  0
  -43.4715  -24.6095   -1.6768 C   0  0  0  0  0  0  0  0  0  0  0  0
  -47.1165  -28.7753    3.6606 C   0  0  0  0  0  0  0  0  0  0  0  0
  -45.1389  -28.6831    5.0455 C   0  0  0  0  0  0  0  0  0  0  0  0
  -46.3305  -28.5742    2.5259 C   0  0  0  0  0  0  0  0  0  0  0  0
  -44.3529  -28.4821    3.9109 C   0  0  0  0  0  0  0  0  0  0  0  0
  -45.7395  -25.1396   -0.7487 C   0  0  0  0  0  0  0  0  0  0  0  0
  -45.8600  -22.0275   -2.5339 C   0  0  0  0  0  0  0  0  0  0  0  0
  -45.1874  -23.1245   -2.0768 C   0  0  0  0  0  0  0  0  0  0  0  0
  -46.5205  -28.8299    4.9204 C   0  0  0  0  0  0  0  0  0  0  0  0
  -44.3733  -25.4437   -0.9438 C   0  0  0  0  0  0  0  0  0  0  0  0
  -44.9489  -28.4274    2.6510 C   0  0  0  0  0  0  0  0  0  0  0  0
  -46.1375  -23.9298   -1.3474 C   0  0  0  0  0  0  0  0  0  0  0  0
  -47.3484  -29.0397    6.1159 C   0  0  0  0  0  0  0  0  0  0  0  0
  -43.8441  -26.6986   -0.3541 C   0  0  0  0  0  0  0  0  0  0  0  0
  -49.3822  -29.7541    4.7651 C   0  0  0  0  0  0  0  0  0  0  0  0
  -49.6302  -28.6163    6.9525 C   0  0  0  0  0  0  0  0  0  0  0  0
  -50.5454  -30.6711    5.1512 C   0  0  0  0  0  0  0  0  0  0  0  0
  -50.7792  -29.5678    7.2848 C   0  0  0  0  0  0  0  0  0  0  0  0
  -48.2425  -21.2973   -2.3134 C   0  0  0  0  0  0  0  0  0  0  0  0
  -52.3416  -29.0690    5.4894 C   0  0  0  0  0  0  0  0  0  0  0  0
  -44.1091  -28.2132    1.4376 C   0  0  0  0  0  0  0  0  0  0  0  0
  -47.3384  -23.3245   -1.3734 N   0  0  0  0  0  0  0  0  0  0  0  0
  -47.1377  -22.1985   -2.0859 N   0  0  0  0  0  0  0  0  0  0  0  0
  -48.7300  -29.1802    5.9480 N   0  0  0  0  0  0  0  0  0  0  0  0
  -51.4894  -30.0815    6.1078 N   0  0  0  0  0  0  0  0  0  0  0  0
  -46.7509  -29.0690    7.1914 O   0  0  0  0  0  0  0  0  0  0  0  0
  -42.9207  -27.3314   -0.8429 O   0  0  0  0  0  0  0  0  0  0  0  0
  -44.5260  -27.0239    0.7785 O   0  0  0  0  0  0  0  0  0  0  0  0
  -43.1488  -22.7742   -2.8362 H   0  0  0  0  0  0  0  0  0  0  0  0
  -42.4321  -24.9262   -1.7746 H   0  0  0  0  0  0  0  0  0  0  0  0
  -48.1920  -28.8879    3.5512 H   0  0  0  0  0  0  0  0  0  0  0  0
  -44.6636  -28.7232    6.0223 H   0  0  0  0  0  0  0  0  0  0  0  0
  -46.8036  -28.5325    1.5484 H   0  0  0  0  0  0  0  0  0  0  0  0
  -43.2773  -28.3707    4.0182 H   0  0  0  0  0  0  0  0  0  0  0  0
  -46.4156  -25.7761   -0.1921 H   0  0  0  0  0  0  0  0  0  0  0  0
  -45.5631  -21.1665   -3.1179 H   0  0  0  0  0  0  0  0  0  0  0  0
  -48.6571  -30.3064    4.1606 H   0  0  0  0  0  0  0  0  0  0  0  0
  -49.7413  -28.9135    4.1606 H   0  0  0  0  0  0  0  0  0  0  0  0
  -50.0225  -27.6768    6.5377 H   0  0  0  0  0  0  0  0  0  0  0  0
  -49.0937  -28.3602    7.8732 H   0  0  0  0  0  0  0  0  0  0  0  0
  -51.0855  -30.9435    4.2191 H   0  0  0  0  0  0  0  0  0  0  0  0
  -50.1375  -31.6301    5.5439 H   0  0  0  0  0  0  0  0  0  0  0  0
  -50.3901  -30.4060    7.9001 H   0  0  0  0  0  0  0  0  0  0  0  0
  -51.4924  -29.0252    7.9367 H   0  0  0  0  0  0  0  0  0  0  0  0
  -48.7757  -21.5566   -3.2342 H   0  0  0  0  0  0  0  0  0  0  0  0
  -47.8763  -20.2691   -2.3946 H   0  0  0  0  0  0  0  0  0  0  0  0
  -48.9665  -21.3518   -1.4938 H   0  0  0  0  0  0  0  0  0  0  0  0
  -53.0336  -28.6477    6.2242 H   0  0  0  0  0  0  0  0  0  0  0  0
  -51.7304  -28.2602    5.0789 H   0  0  0  0  0  0  0  0  0  0  0  0
  -52.9213  -29.5102    4.6739 H   0  0  0  0  0  0  0  0  0  0  0  0
  -43.0468  -28.1165    1.6999 H   0  0  0  0  0  0  0  0  0  0  0  0
  -44.1995  -29.0547    0.7364 H   0  0  0  0  0  0  0  0  0  0  0  0
  1  2  2  0  0  0  0
  1  9  1  0  0  0  0
  2 11  1  0  0  0  0
  3  5  2  0  0  0  0
  3 10  1  0  0  0  0
  4  6  1  0  0  0  0
  4 10  2  0  0  0  0
  5 12  1  0  0  0  0
  6 12  2  0  0  0  0
  7 11  2  0  0  0  0
  7 13  1  0  0  0  0
  8  9  2  0  0  0  0
  8 24  1  0  0  0  0
  9 13  1  0  0  0  0
 10 14  1  0  0  0  0
 11 15  1  0  0  0  0
 12 22  1  0  0  0  0
 13 23  2  0  0  0  0
 14 25  1  0  0  0  0
 14 27  2  0  0  0  0
 15 28  2  0  0  0  0
 15 29  1  0  0  0  0
 16 18  1  0  0  0  0
 16 25  1  0  0  0  0
 17 19  1  0  0  0  0
 17 25  1  0  0  0  0
 18 26  1  0  0  0  0
 19 26  1  0  0  0  0
 20 24  1  0  0  0  0
 21 26  1  0  0  0  0
 22 29  1  0  0  0  0
 23 24  1  0  0  0  0
  1 30  1  0  0  0  0
  2 31  1  0  0  0  0
  3 32  1  0  0  0  0
  4 33  1  0  0  0  0
  5 34  1  0  0  0  0
  6 35  1  0  0  0  0
  7 36  1  0  0  0  0
  8 37  1  0  0  0  0
 16 38  1  0  0  0  0
 16 39  1  0  0  0  0
 17 40  1  0  0  0  0
 17 41  1  0  0  0  0
 18 42  1  0  0  0  0
 18 43  1  0  0  0  0
 19 44  1  0  0  0  0
 19 45  1  0  0  0  0
 20 46  1  0  0  0  0
 20 47  1  0  0  0  0
 20 48  1  0  0  0  0
 21 49  1  0  0  0  0
 21 50  1  0  0  0  0
 21 51  1  0  0  0  0
 22 52  1  0  0  0  0
 22 53  1  0  0  0  0
M  END
> <POSIT::Probability>
0.05

> <POSIT::Method>
FRED

> <ReceptorTitle>
UCSF-P4528-REFINED_LIGAND-BOUND-STATE_A__DU__LA1_A-201(A)

> <OMEGA_C>
l10vwmAou8FjRBLA0uItwkHgxME4ota/SXc8wrgz5sF9RmpANI40whJ35cHHdKFAZ1I5wuKX5MFC
qCFAUmkxwj7b48FUTHpARvU2wtAdycHcrT+/oXA3wmg4sMENLCLA7780wuj+uMGi6gTA9hQ6wpGj
5sHwc51ATn4xwrGMy8FwnHG/pMszwmJr48HxqSlAyIw4wlNwv8ESd6y/uGQ9wmZR6MEWtcNAW2Av
wqyW1cFITrW+ZYdFwlYI7sFqe5hAT4VGwhbu5MH7et5AeC5KwmVe9cHW1qRA5x1LwtSK7MHKHOlA
WvhAws5gqsGEDxTAwV1RwjyN6MHMqK9AsW8wwrK04cFAA7g/klo9wnqYusE8yq+/B408wo2WscEf
gAXAkutCwgZx6cHeVb5AMvVNwtCm8MG6csNA5gA7wleN6MEwIOZAzK4rwsSm2sGAxVe/pxoywtww
2MGMTkc/UpgswpgxtsGzhDXAhbopwtpox8HUJuO/pMRAwnoa58FQRmNAjqcywgzJ5cGvtsBA1jY7
wnZC5MFCM8Y/9hstwhz34sFKlYBAjak5wnY1zsGQtES+p0A2whZVqcFYjEfA3qBCwpxz8sG8I4VA
G/dGwthO58E+I4VAFxdIwgRq3cGoNNFA+19Ewsrh4sFg8ftAmldMwkKM98HGAodA0IxIwmIK/cGm
Z7FAfo9JwoI/88HgzfxAPPhNwqgz6MFI+f1AXBpDwvhzrMHQ/U7AWIE/wh4nosFgQRnAtN1DwpDQ
qsHwNb+/YCJUwnYu5cEKLcdA9utOwuYU4sFihqJAbq9TwuQU7MGgkJVA+C8swqPu4MFVldk/Psww
whBw6MFwhTw/

> <OMEGA_E>
V+8iwQ==

> <OMEGA_NBR>
    154207

$$$$
CACHE3HI_1712_67
  -OEChem-03092622573D

 55 58  0     0  0  0  0  0  0999 V2000
  -55.3358  -26.3821    5.1510 C   0  0  0  0  0  0  0  0  0  0  0  0
  -55.2016  -27.1675    6.2959 C   0  0  0  0  0  0  0  0  0  0  0  0
  -54.4276  -26.5194    4.1013 C   0  0  0  0  0  0  0  0  0  0  0  0
  -54.1597  -28.0902    6.3910 C   0  0  0  0  0  0  0  0  0  0  0  0
  -53.3857  -27.4421    4.1964 C   0  0  0  0  0  0  0  0  0  0  0  0
  -53.2515  -28.2275    5.3413 C   0  0  0  0  0  0  0  0  0  0  0  0
  -43.5191  -29.4269   -0.4190 C   0  0  0  0  0  0  0  0  0  0  0  0
  -43.5307  -29.8490    1.9278 C   0  0  0  0  0  0  0  0  0  0  0  0
  -44.1829  -30.0128    0.7675 C   0  0  0  0  0  0  0  0  0  0  0  0
  -42.2251  -29.1257    1.9417 C   0  0  0  0  0  0  0  0  0  0  0  0
  -44.1006  -30.3654    3.1853 C   0  0  0  0  0  0  0  0  0  0  0  0
  -48.5728  -28.7025    5.8146 C   0  0  0  0  0  0  0  0  0  0  0  0
  -51.0441  -29.0994    6.6303 C   0  0  0  0  0  0  0  0  0  0  0  0
  -50.8275  -29.0743    4.5035 C   0  0  0  0  0  0  0  0  0  0  0  0
  -45.2362  -29.2834    5.2572 C   0  0  0  0  0  0  0  0  0  0  0  0
  -45.7308  -28.4040    3.3589 C   0  0  0  0  0  0  0  0  0  0  0  0
  -49.8901  -29.4709    5.6691 C   0  0  0  0  0  0  0  0  0  0  0  0
  -46.2947  -28.2790    4.7807 C   0  0  0  0  0  0  0  0  0  0  0  0
  -52.0548  -29.2876    5.4507 C   0  0  0  0  0  0  0  0  0  0  0  0
  -45.4748  -30.7188    0.4975 C   0  0  0  0  0  0  0  0  0  0  0  0
  -52.6392  -30.7052    5.3747 C   0  0  0  0  0  0  0  0  0  0  0  0
  -47.8973  -29.8345    3.7310 C   0  0  0  0  0  0  0  0  0  0  0  0
  -42.3953  -28.7941   -0.4483 N   0  0  0  0  0  0  0  0  0  0  0  0
  -41.7622  -28.6559    0.7362 N   0  0  0  0  0  0  0  0  0  0  0  0
  -44.9092  -29.4950    3.8578 N   0  0  0  0  0  0  0  0  0  0  0  0
  -47.6124  -28.9148    4.8246 N   0  0  0  0  0  0  0  0  0  0  0  0
  -41.6072  -28.9675    2.9940 O   0  0  0  0  0  0  0  0  0  0  0  0
  -43.8357  -31.5063    3.5555 O   0  0  0  0  0  0  0  0  0  0  0  0
  -48.4198  -27.9459    6.7776 O   0  0  0  0  0  0  0  0  0  0  0  0
  -56.1472  -25.6641    5.0770 H   0  0  0  0  0  0  0  0  0  0  0  0
  -55.9088  -27.0610    7.1133 H   0  0  0  0  0  0  0  0  0  0  0  0
  -54.5320  -25.9078    3.2099 H   0  0  0  0  0  0  0  0  0  0  0  0
  -54.0616  -28.6983    7.2862 H   0  0  0  0  0  0  0  0  0  0  0  0
  -52.6828  -27.5435    3.3739 H   0  0  0  0  0  0  0  0  0  0  0  0
  -44.0592  -29.5523   -1.3724 H   0  0  0  0  0  0  0  0  0  0  0  0
  -51.1737  -29.7735    7.4829 H   0  0  0  0  0  0  0  0  0  0  0  0
  -50.9866  -28.0724    7.0130 H   0  0  0  0  0  0  0  0  0  0  0  0
  -50.6967  -28.0388    4.1642 H   0  0  0  0  0  0  0  0  0  0  0  0
  -50.7805  -29.7283    3.6270 H   0  0  0  0  0  0  0  0  0  0  0  0
  -44.4244  -28.8450    5.8471 H   0  0  0  0  0  0  0  0  0  0  0  0
  -45.6085  -30.1928    5.7430 H   0  0  0  0  0  0  0  0  0  0  0  0
  -46.4298  -28.7311    2.5805 H   0  0  0  0  0  0  0  0  0  0  0  0
  -45.1542  -27.5414    3.0094 H   0  0  0  0  0  0  0  0  0  0  0  0
  -49.6894  -30.5511    5.6765 H   0  0  0  0  0  0  0  0  0  0  0  0
  -46.2703  -27.3342    5.2110 H   0  0  0  0  0  0  0  0  0  0  0  0
  -45.2803  -31.7686    0.2839 H   0  0  0  0  0  0  0  0  0  0  0  0
  -45.9715  -30.2617   -0.3568 H   0  0  0  0  0  0  0  0  0  0  0  0
  -46.1236  -30.6405    1.3685 H   0  0  0  0  0  0  0  0  0  0  0  0
  -51.8369  -31.4353    5.4478 H   0  0  0  0  0  0  0  0  0  0  0  0
  -53.1594  -30.8355    4.4288 H   0  0  0  0  0  0  0  0  0  0  0  0
  -53.3392  -30.8565    6.1938 H   0  0  0  0  0  0  0  0  0  0  0  0
  -48.3654  -29.3056    2.8958 H   0  0  0  0  0  0  0  0  0  0  0  0
  -46.9727  -30.2996    3.3778 H   0  0  0  0  0  0  0  0  0  0  0  0
  -48.5731  -30.6250    4.0688 H   0  0  0  0  0  0  0  0  0  0  0  0
  -40.8801  -28.1564    0.6863 H   0  0  0  0  0  0  0  0  0  0  0  0
  1  2  1  0  0  0  0
  1  3  2  0  0  0  0
  2  4  2  0  0  0  0
  3  5  1  0  0  0  0
  4  6  1  0  0  0  0
  5  6  2  0  0  0  0
  6 19  1  0  0  0  0
  7  9  1  0  0  0  0
  7 23  2  0  0  0  0
  8  9  2  0  0  0  0
  8 10  1  0  0  0  0
  8 11  1  0  0  0  0
  9 20  1  0  0  0  0
 10 24  1  0  0  0  0
 10 27  2  0  0  0  0
 11 25  1  0  0  0  0
 11 28  2  0  0  0  0
 12 17  1  0  0  0  0
 12 26  1  0  0  0  0
 12 29  2  0  0  0  0
 13 17  1  0  0  0  0
 13 19  1  0  0  0  0
 14 17  1  0  0  0  0
 14 19  1  0  0  0  0
 15 18  1  0  0  0  0
 15 25  1  0  0  0  0
 16 18  1  0  0  0  0
 16 25  1  0  0  0  0
 18 26  1  0  0  0  0
 19 21  1  0  0  0  0
 22 26  1  0  0  0  0
 23 24  1  0  0  0  0
  1 30  1  0  0  0  0
  2 31  1  0  0  0  0
  3 32  1  0  0  0  0
  4 33  1  0  0  0  0
  5 34  1  0  0  0  0
  7 35  1  0  0  0  0
 13 36  1  0  0  0  0
 13 37  1  0  0  0  0
 14 38  1  0  0  0  0
 14 39  1  0  0  0  0
 15 40  1  0  0  0  0
 15 41  1  0  0  0  0
 16 42  1  0  0  0  0
 16 43  1  0  0  0  0
 17 44  1  0  0  0  0
 18 45  1  0  0  0  0
 20 46  1  0  0  0  0
 20 47  1  0  0  0  0
 20 48  1  0  0  0  0
 21 49  1  0  0  0  0
 21 50  1  0  0  0  0
 21 51  1  0  0  0  0
 22 52  1  0  0  0  0
 22 53  1  0  0  0  0
 22 54  1  0  0  0  0
 24 55  1  0  0  0  0
M  END
> <POSIT::Probability>
0.24

> <POSIT::Method>
FRED

> <ReceptorTitle>
UCSF-P4528-REFINED_LIGAND-BOUND-STATE_A__DU__LA1_A-201(A)

> <OMEGA_C>
3FddwoEO08HE1KRAZM5cwgVX2cHed8lA6bVZws0n1MG+PYNAfaNYwru44MFeg8xAAotVwoOJ28E+
SYZAhAFVwgHS4cHm66pAhhMuwjpq68EIhda+ax8uwrDK7sGQwvY/TLswwi0a8MFkfUQ/dOYowoUB
6cGyiPg/DWcwwlDs8sEF3EtAmEpCwrme5cGMEbpAKC1MwofL6MEDK9RAY09LwiKY6MGoHJBA6PE0
wmBE6sHrOqhAW+w2wnY748Hj91ZAf49HwnPE68FVabVAuy05wk474sF++5hAIDhQwvpM6sH4a65A
JeY1wivA9cE4vv4+kI5Swkyk9cFU/atA2pY/wget7sFwyG5Av5Qpwk1a5sEIhOW+hQwnwkU/5cFU
dTw/AqMzwsX168HP5XZAHXM+wnNR58FaY5pAv20mwm+958FInT9AvFcvwvkM/MGzjWNA6a1BwiiR
38Fg4thAxpZgwv5PzcGmdqJAkKJfwgJ92MGBoONAuiBawilDz8Fybk1AFj9YwgiW5cHdKOlAPbtS
whVZ3MF27VdAqzwwwgRr7MFoq6+/6bFMwjUw7sH5c+9APfJLwkCU4MF5auBAYMlKwoxP4MH8QIVA
Lx9LwpDT7cF6IWhAk7IxwnbC5sFWG7tAJW82wu+K8cG8xrdAGrg5wjLZ5cGmJyVA5J00wrZU3MGZ
mkBA6cFGwpto9MGypbVA1BQ5wnWs2sFTwKZABh81wg4m/sEgWZE+2eI3wgIY8sGoqLa+ln44ws8f
9cF8Ka8/BllPwpZ7+8E6VK5AOKNUwh2v9sEguY1ATltVwjTa9sHlM8ZAKXZBwthx6sEMVDlABuQ7
wp1l8sFQLlhA3UpCwhIA9cGGM4JALIUjwk5A4cF0ri8/

> <OMEGA_E>
fj4nwQ==

> <OMEGA_NBR>
    155801

$$$$
CACHE3HI_1712_70
  -OEChem-03092622573D

 50 53  0     0  0  0  0  0  0999 V2000
  -47.4631  -24.6845   -0.8475 C   0  0  0  0  0  0  0  0  0  0  0  0
  -45.5787  -23.5541   -1.8520 C   0  0  0  0  0  0  0  0  0  0  0  0
  -48.2963  -23.6326   -1.2285 C   0  0  0  0  0  0  0  0  0  0  0  0
  -46.4118  -22.5023   -2.2329 C   0  0  0  0  0  0  0  0  0  0  0  0
  -43.5291  -28.1421   -0.5306 C   0  0  0  0  0  0  0  0  0  0  0  0
  -43.9361  -28.1089    1.6875 C   0  0  0  0  0  0  0  0  0  0  0  0
  -44.3260  -27.5599    0.4846 C   0  0  0  0  0  0  0  0  0  0  0  0
  -46.1042  -24.6452   -1.1595 C   0  0  0  0  0  0  0  0  0  0  0  0
  -47.7707  -22.5416   -1.9209 C   0  0  0  0  0  0  0  0  0  0  0  0
  -42.6719  -29.0333    0.0791 C   0  0  0  0  0  0  0  0  0  0  0  0
  -41.6499  -29.9101   -0.3864 C   0  0  0  0  0  0  0  0  0  0  0  0
  -40.9743  -30.6751    0.4938 C   0  0  0  0  0  0  0  0  0  0  0  0
  -42.2293  -29.7996    2.3644 C   0  0  0  0  0  0  0  0  0  0  0  0
  -41.2667  -30.6242    1.9184 C   0  0  0  0  0  0  0  0  0  0  0  0
  -45.3979  -26.5412    0.3319 C   0  0  0  0  0  0  0  0  0  0  0  0
  -51.2757  -21.1944   -2.9781 C   0  0  0  0  0  0  0  0  0  0  0  0
  -51.5014  -19.7525   -4.8946 C   0  0  0  0  0  0  0  0  0  0  0  0
  -52.0693  -22.2650   -3.7247 C   0  0  0  0  0  0  0  0  0  0  0  0
  -52.2899  -20.8558   -5.5974 C   0  0  0  0  0  0  0  0  0  0  0  0
  -49.3815  -20.8659   -4.4677 C   0  0  0  0  0  0  0  0  0  0  0  0
  -48.2335  -20.8033   -3.4769 C   0  0  0  0  0  0  0  0  0  0  0  0
  -42.9250  -29.0106    1.4468 N   0  0  0  0  0  0  0  0  0  0  0  0
  -50.5752  -20.2668   -3.8764 N   0  0  0  0  0  0  0  0  0  0  0  0
  -45.2706  -25.6973   -0.7795 N   0  0  0  0  0  0  0  0  0  0  0  0
  -46.2791  -26.5064    1.1843 O   0  0  0  0  0  0  0  0  0  0  0  0
  -52.9816  -21.6586   -4.6402 O   0  0  0  0  0  0  0  0  0  0  0  0
  -48.5897  -21.5081   -2.2945 O   0  0  0  0  0  0  0  0  0  0  0  0
  -40.3686  -31.6246    2.9903 Cl  0  0  0  0  0  0  0  0  0  0  0  0
  -47.8834  -25.5300   -0.3091 H   0  0  0  0  0  0  0  0  0  0  0  0
  -44.5209  -23.5130   -2.0993 H   0  0  0  0  0  0  0  0  0  0  0  0
  -49.3543  -23.6691   -0.9831 H   0  0  0  0  0  0  0  0  0  0  0  0
  -45.9962  -21.6551   -2.7718 H   0  0  0  0  0  0  0  0  0  0  0  0
  -43.5737  -27.9359   -1.5917 H   0  0  0  0  0  0  0  0  0  0  0  0
  -44.2925  -27.9351    2.6948 H   0  0  0  0  0  0  0  0  0  0  0  0
  -41.4239  -29.9555   -1.4467 H   0  0  0  0  0  0  0  0  0  0  0  0
  -40.1949  -31.3444    0.1441 H   0  0  0  0  0  0  0  0  0  0  0  0
  -42.5025  -29.7080    3.4093 H   0  0  0  0  0  0  0  0  0  0  0  0
  -51.9654  -20.6297   -2.3141 H   0  0  0  0  0  0  0  0  0  0  0  0
  -50.5466  -21.6973   -2.3098 H   0  0  0  0  0  0  0  0  0  0  0  0
  -50.9404  -19.1767   -5.6594 H   0  0  0  0  0  0  0  0  0  0  0  0
  -52.2141  -19.0369   -4.4302 H   0  0  0  0  0  0  0  0  0  0  0  0
  -51.4091  -22.9529   -4.2662 H   0  0  0  0  0  0  0  0  0  0  0  0
  -52.6543  -22.8569   -3.0141 H   0  0  0  0  0  0  0  0  0  0  0  0
  -53.0371  -20.4128   -6.2629 H   0  0  0  0  0  0  0  0  0  0  0  0
  -51.6382  -21.4929   -6.2072 H   0  0  0  0  0  0  0  0  0  0  0  0
  -49.6102  -21.9043   -4.7260 H   0  0  0  0  0  0  0  0  0  0  0  0
  -49.1408  -20.3144   -5.3818 H   0  0  0  0  0  0  0  0  0  0  0  0
  -47.3201  -21.2450   -3.8885 H   0  0  0  0  0  0  0  0  0  0  0  0
  -48.0329  -19.7632   -3.2023 H   0  0  0  0  0  0  0  0  0  0  0  0
  -44.4642  -25.8752   -1.3894 H   0  0  0  0  0  0  0  0  0  0  0  0
  1  3  1  0  0  0  0
  1  8  2  0  0  0  0
  2  4  2  0  0  0  0
  2  8  1  0  0  0  0
  3  9  2  0  0  0  0
  4  9  1  0  0  0  0
  5  7  1  0  0  0  0
  5 10  2  0  0  0  0
  6  7  2  0  0  0  0
  6 22  1  0  0  0  0
  7 15  1  0  0  0  0
  8 24  1  0  0  0  0
  9 27  1  0  0  0  0
 10 11  1  0  0  0  0
 10 22  1  0  0  0  0
 11 12  2  0  0  0  0
 12 14  1  0  0  0  0
 13 14  2  0  0  0  0
 13 22  1  0  0  0  0
 14 28  1  0  0  0  0
 15 24  1  0  0  0  0
 15 25  2  0  0  0  0
 16 18  1  0  0  0  0
 16 23  1  0  0  0  0
 17 19  1  0  0  0  0
 17 23  1  0  0  0  0
 18 26  1  0  0  0  0
 19 26  1  0  0  0  0
 20 21  1  0  0  0  0
 20 23  1  0  0  0  0
 21 27  1  0  0  0  0
  1 29  1  0  0  0  0
  2 30  1  0  0  0  0
  3 31  1  0  0  0  0
  4 32  1  0  0  0  0
  5 33  1  0  0  0  0
  6 34  1  0  0  0  0
 11 35  1  0  0  0  0
 12 36  1  0  0  0  0
 13 37  1  0  0  0  0
 16 38  1  0  0  0  0
 16 39  1  0  0  0  0
 17 40  1  0  0  0  0
 17 41  1  0  0  0  0
 18 42  1  0  0  0  0
 18 43  1  0  0  0  0
 19 44  1  0  0  0  0
 19 45  1  0  0  0  0
 20 46  1  0  0  0  0
 20 47  1  0  0  0  0
 21 48  1  0  0  0  0
 21 49  1  0  0  0  0
 24 50  1  0  0  0  0
M  END
> <POSIT::Probability>
0.02

> <POSIT::Method>
FRED

> <ReceptorTitle>
UCSF-P4528-REFINED_LIGAND-BOUND-STATE_A__DU__LA1_A-201(A)

> <OMEGA_C>
MNo9wsl5xcHg9li/jlA2wuJuvMGADe2/XS9BwpgPvcHwPZ2/rqU5wroEtMEM6A7A1x0uwu4i4cEQ
1ge/jb4vwg3f4MGQ/tc/3E0xwq563MEAG/g+sWo4wkYpxcGIapS/OxU/wjJVtMHw4PW/DrAqwipE
6MGA7KE9iZkmwt5H78Hg1cW+pOUjwoJm9cFA0fw+yuoowpJl7sGwUhdAFRElwkn+9MEgj/U/eJc1
wmhU1MGA9Kk+SxpNwjKOqcFkmD7AYgFOwhgFnsEsoJzA6kZQwroessFAYW7A0ChRwsXYpsGqHbPA
qIZFwnDtpsF0947AHu9AwhFtpsGchV7AOLMrwrgV6ME4Mrk/90xKwmsiosFkF3jAEhU1wv2TzcGg
i0e/yB05wi4N1MEQl5c/M+1TwrZErcHUfJTA5FtCwp8QrMH42BLAe3khwjT//MHsYD9Ap4g/woQ9
zMEgRp6+cxUywogavMFMWwbAwmpFwmdavcHAq3u/G/w3wqI9rcGgZDHAeksuws1838FIvsu/jisx
wiB738HgdyxAGLIlwuik78EYLrm/jccgwmTB+sGAjRM+igIqwgKq7cHYMVpAltxPwpsJpcHgGRTA
uy9KwhSUrcEA0xPA+cJLwuNpmcHMGbXAQttQwppLmMEexI3A5KJNwpaft8GKhIjAC55SwtnatsE8
5kDAAiZUwlJNo8HsacjAgY1OwnPxq8FYocbA3XBGwgo8r8HAO5fALJBEwvyDosFUN6zA0Ec9wrP1
qcEE3XjAuCFAwvoansEo8kzAX9sxwl8Az8Go17G/

> <OMEGA_E>
XCUFwQ==

> <OMEGA_NBR>
    157294

$$$$
CACHE3HI_1712_71
  -OEChem-03092622573D

 42 45  0     0  0  0  0  0  0999 V2000
  -49.5152  -30.0124    4.9606 C   0  0  0  0  0  0  0  0  0  0  0  0
  -48.9233  -29.0485    5.7692 C   0  0  0  0  0  0  0  0  0  0  0  0
  -48.8712  -30.4615    3.8042 C   0  0  0  0  0  0  0  0  0  0  0  0
  -47.6763  -28.5087    5.4462 C   0  0  0  0  0  0  0  0  0  0  0  0
  -47.6098  -29.9326    3.4541 C   0  0  0  0  0  0  0  0  0  0  0  0
  -47.0350  -28.9645    4.2830 C   0  0  0  0  0  0  0  0  0  0  0  0
  -45.7401  -29.5903    2.3347 C   0  0  0  0  0  0  0  0  0  0  0  0
  -45.0554  -24.3878   -2.5184 C   0  0  0  0  0  0  0  0  0  0  0  0
  -45.7330  -24.4698   -0.1943 C   0  0  0  0  0  0  0  0  0  0  0  0
  -46.0377  -23.5260   -2.8059 C   0  0  0  0  0  0  0  0  0  0  0  0
  -44.9067  -24.8679   -1.1703 C   0  0  0  0  0  0  0  0  0  0  0  0
  -46.8359  -23.5060   -0.5040 C   0  0  0  0  0  0  0  0  0  0  0  0
  -43.8353  -25.8175   -0.8196 C   0  0  0  0  0  0  0  0  0  0  0  0
  -43.6563  -28.3281   -0.3925 C   0  0  0  0  0  0  0  0  0  0  0  0
  -45.3833  -27.4288    0.4996 C   0  0  0  0  0  0  0  0  0  0  0  0
  -44.9604  -28.8770    0.2049 C   0  0  0  0  0  0  0  0  0  0  0  0
  -47.6241  -20.7417   -1.7373 C   0  0  0  0  0  0  0  0  0  0  0  0
  -47.9698  -22.1422   -2.2133 C   0  0  0  0  0  0  0  0  0  0  0  0
  -46.8559  -30.2805    2.3421 N   0  0  0  0  0  0  0  0  0  0  0  0
  -46.9202  -23.0815   -1.8362 N   0  0  0  0  0  0  0  0  0  0  0  0
  -44.2599  -27.0123   -0.3143 N   0  0  0  0  0  0  0  0  0  0  0  0
  -47.5844  -23.1525    0.4058 O   0  0  0  0  0  0  0  0  0  0  0  0
  -42.6595  -25.5041   -0.9875 O   0  0  0  0  0  0  0  0  0  0  0  0
  -44.8125  -29.7375    1.3467 O   0  0  0  0  0  0  0  0  0  0  0  0
  -45.5096  -28.4949    3.6283 S   0  0  0  0  0  0  0  0  0  0  0  0
  -50.4860  -30.4205    5.2286 H   0  0  0  0  0  0  0  0  0  0  0  0
  -49.4365  -28.7092    6.6650 H   0  0  0  0  0  0  0  0  0  0  0  0
  -49.3426  -31.2149    3.1793 H   0  0  0  0  0  0  0  0  0  0  0  0
  -47.2201  -27.7569    6.0826 H   0  0  0  0  0  0  0  0  0  0  0  0
  -44.3715  -24.7277   -3.2877 H   0  0  0  0  0  0  0  0  0  0  0  0
  -45.6475  -24.8130    0.8311 H   0  0  0  0  0  0  0  0  0  0  0  0
  -46.1792  -23.1436   -3.8107 H   0  0  0  0  0  0  0  0  0  0  0  0
  -42.7666  -28.4251    0.2361 H   0  0  0  0  0  0  0  0  0  0  0  0
  -43.4393  -28.6543   -1.4128 H   0  0  0  0  0  0  0  0  0  0  0  0
  -46.3589  -27.1478    0.0951 H   0  0  0  0  0  0  0  0  0  0  0  0
  -45.2957  -27.1126    1.5427 H   0  0  0  0  0  0  0  0  0  0  0  0
  -45.5959  -29.3567   -0.5505 H   0  0  0  0  0  0  0  0  0  0  0  0
  -46.6770  -20.4166   -2.1793 H   0  0  0  0  0  0  0  0  0  0  0  0
  -47.5168  -20.7072   -0.6479 H   0  0  0  0  0  0  0  0  0  0  0  0
  -48.3972  -20.0224   -2.0285 H   0  0  0  0  0  0  0  0  0  0  0  0
  -48.9177  -22.4601   -1.7672 H   0  0  0  0  0  0  0  0  0  0  0  0
  -48.0933  -22.1453   -3.3012 H   0  0  0  0  0  0  0  0  0  0  0  0
  1  2  1  0  0  0  0
  1  3  2  0  0  0  0
  2  4  2  0  0  0  0
  3  5  1  0  0  0  0
  4  6  1  0  0  0  0
  5  6  2  0  0  0  0
  5 19  1  0  0  0  0
  6 25  1  0  0  0  0
  7 19  2  0  0  0  0
  7 24  1  0  0  0  0
  7 25  1  0  0  0  0
  8 10  2  0  0  0  0
  8 11  1  0  0  0  0
  9 11  2  0  0  0  0
  9 12  1  0  0  0  0
 10 20  1  0  0  0  0
 11 13  1  0  0  0  0
 12 20  1  0  0  0  0
 12 22  2  0  0  0  0
 13 21  1  0  0  0  0
 13 23  2  0  0  0  0
 14 16  1  0  0  0  0
 14 21  1  0  0  0  0
 15 16  1  0  0  0  0
 15 21  1  0  0  0  0
 16 24  1  0  0  0  0
 17 18  1  0  0  0  0
 18 20  1  0  0  0  0
  1 26  1  0  0  0  0
  2 27  1  0  0  0  0
  3 28  1  0  0  0  0
  4 29  1  0  0  0  0
  8 30  1  0  0  0  0
  9 31  1  0  0  0  0
 10 32  1  0  0  0  0
 14 33  1  0  0  0  0
 14 34  1  0  0  0  0
 15 35  1  0  0  0  0
 15 36  1  0  0  0  0
 16 37  1  0  0  0  0
 17 38  1  0  0  0  0
 17 39  1  0  0  0  0
 17 40  1  0  0  0  0
 18 41  1  0  0  0  0
 18 42  1  0  0  0  0
M  END
> <POSIT::Probability>
0.02

> <POSIT::Method>
FRED

> <ReceptorTitle>
UCSF-P4528-REFINED_LIGAND-BOUND-STATE_A__DU__LA1_A-201(A)

> <OMEGA_C>
lw9GwlMZ8MFKvZ5AcbFDwlpj6ME0nbhAEXxDwhux88Hsd3NAibQ+wsAR5MH1Rq5AcHA+wvh178Ez
D11A4CM8wkS358GMDolA5vU2wtq47MGVaxVAtzg0wi8aw8E8LSHAo+42wkDCw8EA70a+kyY4wlE1
vMEUlDPAdKAzwmzxxsFMzJW/+Vc7wl0MvMG4AwG/YlcvwlCKzsFI0FG/CqAuwgSg4sEA+Mi+hog1
witu28Ewxf8+Z9czwv8D58Hg0VE+G38+wvLupcH4Xt6/DOE/wiUjscF+pg3AZ2w7wno+8sEJ5RVA
PK47wtGmuMFsB+u/GQoxwjYZ2MHQ5qC+aFY+wkg4ucGQys8+W6Mqwk4IzMHozHy//z8zwmXm7cEw
Yqw/zQk2wqb148HONWhArvFJwkZd88FTUKdA+L5Fwoms5cEUSNVAzV5Fwhi4+cGVeUtAb+E8wg4O
3sHMpMJAdXwxwmvSxcEcalLADJc2wh6BxsEgw1Q/frc4whomucH+4nPAAhErwpJm48EAuHE+38Et
wvg75cGw1rS/iG85wrIu2cEAy8I9vy41wpbm2MEIeMU/NGI2woza6sHQ7wy/RrU6wjBVo8FIeQvA
OhE+wmeopcHI2SW/sZZBwtQtoMFO0wHAu6tDwkaus8GkM+K/hV9AwocpscG0RlPA

> <OMEGA_E>
vdkTwQ==

> <OMEGA_NBR>
    158626

$$$$
CACHE3HI_1714_41
  -OEChem-03092622573D

 52 56  0     1  0  0  0  0  0999 V2000
  -45.0877  -33.0324   -1.8651 C   0  0  0  0  0  0  0  0  0  0  0  0
  -43.9089  -32.2911   -1.7829 C   0  0  0  0  0  0  0  0  0  0  0  0
  -46.0959  -32.8452   -0.9196 C   0  0  0  0  0  0  0  0  0  0  0  0
  -49.3178  -29.1891    2.5601 C   0  0  0  0  0  0  0  0  0  0  0  0
  -43.7384  -31.3628   -0.7557 C   0  0  0  0  0  0  0  0  0  0  0  0
  -45.9254  -31.9168    0.1076 C   0  0  0  0  0  0  0  0  0  0  0  0
  -50.2854  -29.1686    3.5657 C   0  0  0  0  0  0  0  0  0  0  0  0
  -47.5668  -29.1008    4.2287 C   0  0  0  0  0  0  0  0  0  0  0  0
  -48.5364  -29.0804    5.2347 C   0  0  0  0  0  0  0  0  0  0  0  0
  -47.9626  -29.1552    2.8919 C   0  0  0  0  0  0  0  0  0  0  0  0
  -44.7467  -31.1756    0.1898 C   0  0  0  0  0  0  0  0  0  0  0  0
  -49.8924  -29.1139    4.9042 C   0  0  0  0  0  0  0  0  0  0  0  0
  -48.1434  -29.0233    6.6569 C   0  0  0  0  0  0  0  0  0  0  0  0
  -50.5621  -29.0395    7.2602 C   0  0  0  0  0  0  0  0  0  0  0  0
  -46.9471  -29.1772    1.8260 C   0  0  0  0  0  0  0  0  0  0  0  0
  -40.9868  -30.9689    2.7494 C   0  0  0  0  0  0  0  0  0  0  0  0
  -41.5786  -29.5694    2.6026 C   0  0  0  0  0  0  0  0  0  0  0  0
  -41.9516  -32.0380    2.2402 C   0  0  0  0  0  0  0  0  0  0  0  0
  -42.9348  -29.4650    3.2974 C   0  0  0  0  0  0  0  0  0  0  0  0
  -43.3180  -31.9297    2.9152 C   0  0  0  0  0  0  0  0  0  0  0  0
  -45.3168  -30.3979    3.3650 C   0  0  0  0  0  0  0  0  0  0  0  0
  -44.5520  -30.1158    1.3619 C   0  0  2  0  0  0  0  0  0  0  0  0
  -43.9063  -30.5238    2.7359 C   0  0  0  0  0  0  0  0  0  0  0  0
  -50.8687  -29.0932    5.9114 N   0  0  0  0  0  0  0  0  0  0  0  0
  -49.2006  -29.0066    7.5611 N   0  0  0  0  0  0  0  0  0  0  0  0
  -45.7441  -29.7603    2.1345 N   0  0  0  0  0  0  0  0  0  0  0  0
  -46.9634  -28.9934    6.9889 O   0  0  0  0  0  0  0  0  0  0  0  0
  -51.4295  -29.0224    8.1355 O   0  0  0  0  0  0  0  0  0  0  0  0
  -47.2221  -28.6571    0.7483 O   0  0  0  0  0  0  0  0  0  0  0  0
  -45.2203  -33.7548   -2.6651 H   0  0  0  0  0  0  0  0  0  0  0  0
  -43.1237  -32.4364   -2.5192 H   0  0  0  0  0  0  0  0  0  0  0  0
  -47.0137  -33.4224   -0.9834 H   0  0  0  0  0  0  0  0  0  0  0  0
  -49.6316  -29.2319    1.5202 H   0  0  0  0  0  0  0  0  0  0  0  0
  -42.8172  -30.7893   -0.6983 H   0  0  0  0  0  0  0  0  0  0  0  0
  -46.7160  -31.7765    0.8398 H   0  0  0  0  0  0  0  0  0  0  0  0
  -51.3373  -29.1950    3.2941 H   0  0  0  0  0  0  0  0  0  0  0  0
  -46.5084  -29.0754    4.4760 H   0  0  0  0  0  0  0  0  0  0  0  0
  -40.0427  -31.0303    2.1965 H   0  0  0  0  0  0  0  0  0  0  0  0
  -40.7533  -31.1590    3.8042 H   0  0  0  0  0  0  0  0  0  0  0  0
  -40.8890  -28.8333    3.0308 H   0  0  0  0  0  0  0  0  0  0  0  0
  -41.6834  -29.3297    1.5377 H   0  0  0  0  0  0  0  0  0  0  0  0
  -42.0609  -31.9342    1.1545 H   0  0  0  0  0  0  0  0  0  0  0  0
  -41.5285  -33.0318    2.4250 H   0  0  0  0  0  0  0  0  0  0  0  0
  -42.8033  -29.6146    4.3768 H   0  0  0  0  0  0  0  0  0  0  0  0
  -43.3354  -28.4524    3.1656 H   0  0  0  0  0  0  0  0  0  0  0  0
  -43.9890  -32.6951    2.5083 H   0  0  0  0  0  0  0  0  0  0  0  0
  -43.2085  -32.1507    3.9850 H   0  0  0  0  0  0  0  0  0  0  0  0
  -45.8520  -31.3355    3.5466 H   0  0  0  0  0  0  0  0  0  0  0  0
  -45.3980  -29.7540    4.2454 H   0  0  0  0  0  0  0  0  0  0  0  0
  -44.0896  -29.2004    0.9378 H   0  0  0  0  0  0  0  0  0  0  0  0
  -51.8468  -29.1188    5.6380 H   0  0  0  0  0  0  0  0  0  0  0  0
  -48.9546  -28.9668    8.5464 H   0  0  0  0  0  0  0  0  0  0  0  0
  1  2  1  0  0  0  0
  1  3  2  0  0  0  0
  2  5  2  0  0  0  0
  3  6  1  0  0  0  0
  4  7  2  0  0  0  0
  4 10  1  0  0  0  0
  5 11  1  0  0  0  0
  6 11  2  0  0  0  0
  7 12  1  0  0  0  0
  8  9  1  0  0  0  0
  8 10  2  0  0  0  0
  9 12  2  0  0  0  0
  9 13  1  0  0  0  0
 10 15  1  0  0  0  0
 11 22  1  0  0  0  0
 12 24  1  0  0  0  0
 13 25  1  0  0  0  0
 13 27  2  0  0  0  0
 14 24  1  0  0  0  0
 14 25  1  0  0  0  0
 14 28  2  0  0  0  0
 15 26  1  0  0  0  0
 15 29  2  0  0  0  0
 16 17  1  0  0  0  0
 16 18  1  0  0  0  0
 17 19  1  0  0  0  0
 18 20  1  0  0  0  0
 19 23  1  0  0  0  0
 20 23  1  0  0  0  0
 21 23  1  0  0  0  0
 21 26  1  0  0  0  0
 22 23  1  0  0  0  0
 22 26  1  0  0  0  0
  1 30  1  0  0  0  0
  2 31  1  0  0  0  0
  3 32  1  0  0  0  0
  4 33  1  0  0  0  0
  5 34  1  0  0  0  0
  6 35  1  0  0  0  0
  7 36  1  0  0  0  0
  8 37  1  0  0  0  0
 16 38  1  0  0  0  0
 16 39  1  0  0  0  0
 17 40  1  0  0  0  0
 17 41  1  0  0  0  0
 18 42  1  0  0  0  0
 18 43  1  0  0  0  0
 19 44  1  0  0  0  0
 19 45  1  0  0  0  0
 20 46  1  0  0  0  0
 20 47  1  0  0  0  0
 21 48  1  0  0  0  0
 21 49  1  0  0  0  0
 22 50  1  0  0  0  0
 24 51  1  0  0  0  0
 25 52  1  0  0  0  0
M  END
> <POSIT::Probability>
0.24

> <POSIT::Method>
FRED

> <ReceptorTitle>
UCSF-P4528-REFINED_LIGAND-BOUND-STATE_A__DU__LA1_A-201(A)

> <OMEGA_C>
yVk0wiUhBMLWuu6/t6Ivwh0qAcJGNuS/L2I4wnVhA8Lcamu/d0VFwkyD6cEk2CNAI/Quwurm+sHM
eEG/m7M3wptV/8HkRtw9NCRJwklZ6cEUNWRAckQ+wnXO6MF5UYdAQyVCwsGk6MGBgqdAstk/wuU9
6cE+FTlAl/wywpJn+cHyTkI+3pFHwkrp6MFv75xA2pJAwqsv6MFfBdVAnz9KwvhQ6MFNU+hAyck7
wt5q6cFsuek/fvIjwkHA98Hd9i9AdlAmwiqO7MGBkCZAes4nwuQmAMKYXw9ASL0rwjy468FjCVNA
qUUtwvdv/8E6kzpAb0Q1wtwu88FWXFdAQjUywkHt8MH8U64/D6Avws0w9MGNGS9AjHlLwtu+6MEJ
Kr1AZM1EwoMN6MGL9PFA+vk2wgkV7sHzmwhAf9o7wnvy58EZpd9A0bdNwvIt6MH1KgJBbeM8wqVB
5cEgjz8/muE0wuwEB8I3kCrAsX4swt2+AcJBOiHA/w08wpCwBcKsvXu/x4ZGwtja6cESlcI/2EQr
wnlQ9sHkxjK/Od06wjc2/sFY/FY/cllNwmiP6cEt0lJApgg6wlKa6MG2O49Awysgwgw++MFFlAxA
YgMjwpBF+cGFeHNAT44jwqeq5sGQ+EFAxLsmwjCj6sE/1MQ/YT4owjt5/8GixZM/MB0mwpEgBMJl
MhtAlzYrwqfq7MEMD4xAeVctwp6e48HLmEpAvfQvwsDHAsK5iCBAedUswk2aAMJHCn9AcWg3wg2v
+sF8+2JAl5c1wi4I7sEp2odAs1swwoGa6cGYFXA/KWNPwj/z6ME3arRAfdFDwgu858H0vQhB

> <OMEGA_E>
M7obwQ==

> <OMEGA_NBR>
    160168

$$$$
CACHE3HI_1714_42
  -OEChem-03092622573D

 55 60  0     1  0  0  0  0  0999 V2000
  -47.2514  -32.8634    1.7578 C   0  0  0  0  0  0  0  0  0  0  0  0
  -47.1738  -32.5440    0.4022 C   0  0  0  0  0  0  0  0  0  0  0  0
  -46.2732  -32.4033    2.6393 C   0  0  0  0  0  0  0  0  0  0  0  0
  -47.2117  -28.3302   -0.4299 C   0  0  0  0  0  0  0  0  0  0  0  0
  -46.1184  -31.7646   -0.0718 C   0  0  0  0  0  0  0  0  0  0  0  0
  -45.2179  -31.6239    2.1652 C   0  0  0  0  0  0  0  0  0  0  0  0
  -48.5542  -28.5776   -0.1315 C   0  0  0  0  0  0  0  0  0  0  0  0
  -46.6034  -28.4717    1.9168 C   0  0  0  0  0  0  0  0  0  0  0  0
  -49.9775  -29.1445    3.1502 C   0  0  0  0  0  0  0  0  0  0  0  0
  -47.9513  -28.7234    2.2420 C   0  0  0  0  0  0  0  0  0  0  0  0
  -48.6495  -28.9613    3.4591 C   0  0  0  0  0  0  0  0  0  0  0  0
  -46.2500  -28.2775    0.5768 C   0  0  0  0  0  0  0  0  0  0  0  0
  -45.1402  -31.3045    0.8096 C   0  0  0  0  0  0  0  0  0  0  0  0
  -48.8938  -28.7703    1.2126 C   0  0  0  0  0  0  0  0  0  0  0  0
  -48.0512  -28.9996    4.7758 C   0  0  0  0  0  0  0  0  0  0  0  0
  -44.8425  -28.0146    0.2283 C   0  0  0  0  0  0  0  0  0  0  0  0
  -40.0898  -31.6068    2.1758 C   0  0  0  0  0  0  0  0  0  0  0  0
  -40.1026  -31.0507    0.7549 C   0  0  0  0  0  0  0  0  0  0  0  0
  -41.1501  -30.9350    3.0427 C   0  0  0  0  0  0  0  0  0  0  0  0
  -41.4858  -31.1742    0.1197 C   0  0  0  0  0  0  0  0  0  0  0  0
  -42.5407  -31.0484    2.4188 C   0  0  0  0  0  0  0  0  0  0  0  0
  -42.5247  -28.9281    0.9359 C   0  0  0  0  0  0  0  0  0  0  0  0
  -43.9392  -30.4172    0.2699 C   0  0  2  0  0  0  0  0  0  0  0  0
  -42.5462  -30.4793    0.9885 C   0  0  0  0  0  0  0  0  0  0  0  0
  -46.7133  -28.8008    4.9476 N   0  0  0  0  0  0  0  0  0  0  0  0
  -48.7193  -29.2240    5.9101 N   0  0  0  0  0  0  0  0  0  0  0  0
  -46.4942  -28.8994    6.2534 N   0  0  0  0  0  0  0  0  0  0  0  0
  -50.1154  -29.0273    1.7928 N   0  0  0  0  0  0  0  0  0  0  0  0
  -47.7017  -29.1488    6.7797 N   0  0  0  0  0  0  0  0  0  0  0  0
  -43.9294  -28.9828    0.5680 N   0  0  0  0  0  0  0  0  0  0  0  0
  -44.5697  -26.9536   -0.3289 O   0  0  0  0  0  0  0  0  0  0  0  0
  -48.0733  -33.4699    2.1267 H   0  0  0  0  0  0  0  0  0  0  0  0
  -47.9355  -32.9018   -0.2844 H   0  0  0  0  0  0  0  0  0  0  0  0
  -46.3334  -32.6521    3.6948 H   0  0  0  0  0  0  0  0  0  0  0  0
  -46.9256  -28.1773   -1.4682 H   0  0  0  0  0  0  0  0  0  0  0  0
  -46.0648  -31.5202   -1.1293 H   0  0  0  0  0  0  0  0  0  0  0  0
  -44.4602  -31.2688    2.8586 H   0  0  0  0  0  0  0  0  0  0  0  0
  -49.3031  -28.6177   -0.9154 H   0  0  0  0  0  0  0  0  0  0  0  0
  -45.8485  -28.4293    2.6974 H   0  0  0  0  0  0  0  0  0  0  0  0
  -50.8392  -29.3476    3.7715 H   0  0  0  0  0  0  0  0  0  0  0  0
  -40.2637  -32.6882    2.1503 H   0  0  0  0  0  0  0  0  0  0  0  0
  -39.0996  -31.4515    2.6209 H   0  0  0  0  0  0  0  0  0  0  0  0
  -39.7987  -29.9973    0.7710 H   0  0  0  0  0  0  0  0  0  0  0  0
  -39.3622  -31.5874    0.1484 H   0  0  0  0  0  0  0  0  0  0  0  0
  -41.1474  -31.3972    4.0367 H   0  0  0  0  0  0  0  0  0  0  0  0
  -40.8958  -29.8780    3.1817 H   0  0  0  0  0  0  0  0  0  0  0  0
  -41.4661  -30.7213   -0.8827 H   0  0  0  0  0  0  0  0  0  0  0  0
  -41.7255  -32.2373   -0.0251 H   0  0  0  0  0  0  0  0  0  0  0  0
  -42.8629  -32.0951    2.4280 H   0  0  0  0  0  0  0  0  0  0  0  0
  -43.2588  -30.4956    3.0369 H   0  0  0  0  0  0  0  0  0  0  0  0
  -42.3728  -28.4139    1.8891 H   0  0  0  0  0  0  0  0  0  0  0  0
  -41.8875  -28.4799    0.1699 H   0  0  0  0  0  0  0  0  0  0  0  0
  -43.8417  -30.5826   -0.8260 H   0  0  0  0  0  0  0  0  0  0  0  0
  -50.9871  -29.1167    1.2893 H   0  0  0  0  0  0  0  0  0  0  0  0
  -47.8371  -29.2731    7.7773 H   0  0  0  0  0  0  0  0  0  0  0  0
  1  2  1  0  0  0  0
  1  3  2  0  0  0  0
  2  5  2  0  0  0  0
  3  6  1  0  0  0  0
  4  7  2  0  0  0  0
  4 12  1  0  0  0  0
  5 13  1  0  0  0  0
  6 13  2  0  0  0  0
  7 14  1  0  0  0  0
  8 10  1  0  0  0  0
  8 12  2  0  0  0  0
  9 11  2  0  0  0  0
  9 28  1  0  0  0  0
 10 11  1  0  0  0  0
 10 14  2  0  0  0  0
 11 15  1  0  0  0  0
 12 16  1  0  0  0  0
 13 23  1  0  0  0  0
 14 28  1  0  0  0  0
 15 25  1  0  0  0  0
 15 26  2  0  0  0  0
 16 30  1  0  0  0  0
 16 31  2  0  0  0  0
 17 18  1  0  0  0  0
 17 19  1  0  0  0  0
 18 20  1  0  0  0  0
 19 21  1  0  0  0  0
 20 24  1  0  0  0  0
 21 24  1  0  0  0  0
 22 24  1  0  0  0  0
 22 30  1  0  0  0  0
 23 24  1  0  0  0  0
 23 30  1  0  0  0  0
 25 27  2  0  0  0  0
 26 29  1  0  0  0  0
 27 29  1  0  0  0  0
  1 32  1  0  0  0  0
  2 33  1  0  0  0  0
  3 34  1  0  0  0  0
  4 35  1  0  0  0  0
  5 36  1  0  0  0  0
  6 37  1  0  0  0  0
  7 38  1  0  0  0  0
  8 39  1  0  0  0  0
  9 40  1  0  0  0  0
 17 41  1  0  0  0  0
 17 42  1  0  0  0  0
 18 43  1  0  0  0  0
 18 44  1  0  0  0  0
 19 45  1  0  0  0  0
 19 46  1  0  0  0  0
 20 47  1  0  0  0  0
 20 48  1  0  0  0  0
 21 49  1  0  0  0  0
 21 50  1  0  0  0  0
 22 51  1  0  0  0  0
 22 52  1  0  0  0  0
 23 53  1  0  0  0  0
 28 54  1  0  0  0  0
 29 55  1  0  0  0  0
M  END
> <POSIT::Probability>
0.24

> <POSIT::Method>
FRED

> <ReceptorTitle>
UCSF-P4528-REFINED_LIGAND-BOUND-STATE_A__DU__LA1_A-201(A)

> <OMEGA_C>
bQE9whl0A8LGAOE/77E8wg4tAsKM8M0+whc5wvycAcK76ShAwNg8wimk4sEAGdy+R3k4ws4d/sFg
I5O9Gt80wqn9/MGOkgpAgjdCwv6e5MHwtAa+5Wk6wv/F48FcWvU/+uhHwuwn6cGHnElALs4/wpPJ
5cGefA9AHZlCwsmw58F3Yl1AAgA5wmk44sF8pxM/lY80wpFv+sGERE8/O5NDwoAp5sGrNps/ajRA
wkL/58G905hAsl4zws8d4MFwxGk+8Fsgwsza/MFBQAtADWkgwt5n+MHgQEE/rpkkws5698GAu0JA
dPElwrdk+cEgG/U9pykqwiRj+MFUzhpARRkqwrds58Gqlm8/u8EvwnBW88EoNYo+US8qwpLV88EW
Dn0/Yto6wv5n5sGnUp5AjOBCwsjK6cGaH71AGfo5wuUx58HfG8hAMXZIwvM36MFaeuU/k84+wqow
6cE189hAvbcvwtDc58E2ZhE/ZUcywg2h18FYa6i+DUtAwi/hBcJDHAhA870/wnWbA8Jwm5G+cFU5
wsCbAsIid2xA3LM7wgRr4cHo7bu/V0I4wkwp/MGei5C/Q9cxwnwm+sHE8zZAazZFwhbx5MGYVWq/
4GQ3wkVv48EOoixATFtLwtbH6sGsX3FACg4hwrfAAsI0nwlA8mUcwqSc+8EUvCdA4TEfwmH678Eg
YEU/7XIdwv2y/MFA+Bc+6ZYkwogt+8G8LIFAUpUjwi8G78HsoEtAUd0lwkfF9cF492G/8uYmwv3y
AMKA6828k3MrwmthAMINZBtA+Qgtwvj288E0XUJAtn0pwq5P48F4zPE/y4wnwtvW48HQ8C0+710v
wjSp9MFIdVO/z/JLwhDv6MFDBqU/OFk/wmIv6sFj3/hA

> <OMEGA_E>
eNsXwQ==

> <OMEGA_NBR>
    161773

$$$$
CACHE3HI_1714_48
  -OEChem-03092622573D

 52 56  0     1  0  0  0  0  0999 V2000
  -41.0359  -30.5549    1.9671 C   0  0  0  0  0  0  0  0  0  0  0  0
  -41.9655  -30.6396    3.0036 C   0  0  0  0  0  0  0  0  0  0  0  0
  -41.4714  -30.5024    0.6430 C   0  0  0  0  0  0  0  0  0  0  0  0
  -45.6184  -28.4733    5.0266 C   0  0  0  0  0  0  0  0  0  0  0  0
  -45.4251  -28.3047    3.6550 C   0  0  0  0  0  0  0  0  0  0  0  0
  -43.3302  -30.6715    2.7162 C   0  0  0  0  0  0  0  0  0  0  0  0
  -42.8361  -30.5343    0.3557 C   0  0  0  0  0  0  0  0  0  0  0  0
  -47.7561  -28.8014    3.2589 C   0  0  0  0  0  0  0  0  0  0  0  0
  -46.8864  -28.8078    5.5168 C   0  0  0  0  0  0  0  0  0  0  0  0
  -47.9539  -28.9714    4.6342 C   0  0  0  0  0  0  0  0  0  0  0  0
  -46.4914  -28.4684    2.7734 C   0  0  0  0  0  0  0  0  0  0  0  0
  -43.7657  -30.6190    1.3921 C   0  0  0  0  0  0  0  0  0  0  0  0
  -47.0890  -28.9858    6.9674 C   0  0  0  0  0  0  0  0  0  0  0  0
  -49.2926  -29.3232    5.1456 C   0  0  0  0  0  0  0  0  0  0  0  0
  -46.2821  -28.2882    1.3245 C   0  0  0  0  0  0  0  0  0  0  0  0
  -45.9127  -34.2256   -0.4524 C   0  0  0  0  0  0  0  0  0  0  0  0
  -46.8822  -33.4646    0.4480 C   0  0  0  0  0  0  0  0  0  0  0  0
  -44.6209  -33.4391   -0.6698 C   0  0  0  0  0  0  0  0  0  0  0  0
  -47.1731  -32.0704   -0.1039 C   0  0  0  0  0  0  0  0  0  0  0  0
  -44.8988  -32.0344   -1.2020 C   0  0  0  0  0  0  0  0  0  0  0  0
  -46.1208  -29.8295   -0.7634 C   0  0  0  0  0  0  0  0  0  0  0  0
  -45.3213  -30.6552    1.0648 C   0  0  2  0  0  0  0  0  0  0  0  0
  -45.8599  -31.2778   -0.2743 C   0  0  0  0  0  0  0  0  0  0  0  0
  -48.3614  -29.3123    7.3761 N   0  0  0  0  0  0  0  0  0  0  0  0
  -49.4102  -29.4734    6.5085 N   0  0  0  0  0  0  0  0  0  0  0  0
  -45.9220  -29.4002    0.6066 N   0  0  0  0  0  0  0  0  0  0  0  0
  -46.1520  -28.8430    7.7481 O   0  0  0  0  0  0  0  0  0  0  0  0
  -50.2357  -29.4694    4.3730 O   0  0  0  0  0  0  0  0  0  0  0  0
  -46.4259  -27.1653    0.8483 O   0  0  0  0  0  0  0  0  0  0  0  0
  -39.9735  -30.5297    2.1910 H   0  0  0  0  0  0  0  0  0  0  0  0
  -41.6268  -30.6802    4.0347 H   0  0  0  0  0  0  0  0  0  0  0  0
  -40.7476  -30.4367   -0.1641 H   0  0  0  0  0  0  0  0  0  0  0  0
  -44.7713  -28.3400    5.6942 H   0  0  0  0  0  0  0  0  0  0  0  0
  -44.4362  -28.0452    3.2851 H   0  0  0  0  0  0  0  0  0  0  0  0
  -44.0482  -30.7378    3.5291 H   0  0  0  0  0  0  0  0  0  0  0  0
  -43.1671  -30.4923   -0.6785 H   0  0  0  0  0  0  0  0  0  0  0  0
  -48.5795  -28.9269    2.5596 H   0  0  0  0  0  0  0  0  0  0  0  0
  -45.6811  -35.1991   -0.0062 H   0  0  0  0  0  0  0  0  0  0  0  0
  -46.3890  -34.4217   -1.4207 H   0  0  0  0  0  0  0  0  0  0  0  0
  -47.8184  -34.0271    0.5365 H   0  0  0  0  0  0  0  0  0  0  0  0
  -46.4573  -33.3878    1.4559 H   0  0  0  0  0  0  0  0  0  0  0  0
  -44.0742  -33.3792    0.2787 H   0  0  0  0  0  0  0  0  0  0  0  0
  -43.9778  -33.9785   -1.3747 H   0  0  0  0  0  0  0  0  0  0  0  0
  -47.6821  -32.1610   -1.0721 H   0  0  0  0  0  0  0  0  0  0  0  0
  -47.8645  -31.5484    0.5687 H   0  0  0  0  0  0  0  0  0  0  0  0
  -43.9528  -31.4931   -1.3188 H   0  0  0  0  0  0  0  0  0  0  0  0
  -45.3379  -32.1108   -2.2054 H   0  0  0  0  0  0  0  0  0  0  0  0
  -45.3720  -29.4046   -1.4381 H   0  0  0  0  0  0  0  0  0  0  0  0
  -47.1224  -29.6232   -1.1488 H   0  0  0  0  0  0  0  0  0  0  0  0
  -45.8640  -31.0333    1.9520 H   0  0  0  0  0  0  0  0  0  0  0  0
  -48.5767  -29.4506    8.3581 H   0  0  0  0  0  0  0  0  0  0  0  0
  -50.2994  -29.7147    6.9336 H   0  0  0  0  0  0  0  0  0  0  0  0
  1  2  1  0  0  0  0
  1  3  2  0  0  0  0
  2  6  2  0  0  0  0
  3  7  1  0  0  0  0
  4  5  2  0  0  0  0
  4  9  1  0  0  0  0
  5 11  1  0  0  0  0
  6 12  1  0  0  0  0
  7 12  2  0  0  0  0
  8 10  1  0  0  0  0
  8 11  2  0  0  0  0
  9 10  2  0  0  0  0
  9 13  1  0  0  0  0
 10 14  1  0  0  0  0
 11 15  1  0  0  0  0
 12 22  1  0  0  0  0
 13 24  1  0  0  0  0
 13 27  2  0  0  0  0
 14 25  1  0  0  0  0
 14 28  2  0  0  0  0
 15 26  1  0  0  0  0
 15 29  2  0  0  0  0
 16 17  1  0  0  0  0
 16 18  1  0  0  0  0
 17 19  1  0  0  0  0
 18 20  1  0  0  0  0
 19 23  1  0  0  0  0
 20 23  1  0  0  0  0
 21 23  1  0  0  0  0
 21 26  1  0  0  0  0
 22 23  1  0  0  0  0
 22 26  1  0  0  0  0
 24 25  1  0  0  0  0
  1 30  1  0  0  0  0
  2 31  1  0  0  0  0
  3 32  1  0  0  0  0
  4 33  1  0  0  0  0
  5 34  1  0  0  0  0
  6 35  1  0  0  0  0
  7 36  1  0  0  0  0
  8 37  1  0  0  0  0
 16 38  1  0  0  0  0
 16 39  1  0  0  0  0
 17 40  1  0  0  0  0
 17 41  1  0  0  0  0
 18 42  1  0  0  0  0
 18 43  1  0  0  0  0
 19 44  1  0  0  0  0
 19 45  1  0  0  0  0
 20 46  1  0  0  0  0
 20 47  1  0  0  0  0
 21 48  1  0  0  0  0
 21 49  1  0  0  0  0
 22 50  1  0  0  0  0
 24 51  1  0  0  0  0
 25 52  1  0  0  0  0
M  END
> <POSIT::Probability>
0.24

> <POSIT::Method>
FRED

> <ReceptorTitle>
UCSF-P4528-REFINED_LIGAND-BOUND-STATE_A__DU__LA1_A-201(A)

> <OMEGA_C>
xiQkwnJw9MFmyPs/sdwnwugd9cFxOkBAsuIlwu4E9MFInSQ/PXk2wlDJ48FP2qBAWLM1wg9w4sHp
6mlAJlItwkBf9cG51i1AJlgrwkdG9MHoHLY+PAY/wlBp5sFxkVBAros7wlJ25sHqibBA0dA/wmDF
58H6SpRANvc5wjW/48HPfjFAEBAvwrjz9MG1MbI/L1s8wu7i58EV9d5ApCtFwu6V6sGEqKRA0yA5
wiZO4sHliKk/n6Y3wvrmCMJYm+e+ZIc7wsjbBcIoZeU+ynsywqLBBcIAeiu/PLE8wiBIAMKg39S9
aZgzwkYjAMJk3Jm/sXs4wrqi7sHwbkO/CUk1wu899cF8Sog/jnA3wgg5+sEgcYy+H3JBwoZ/6sET
CexA/6NFwnDJ68EGRtBAKLA3wqoz68EASxs/r5s4wo6+5sFg8PdAXPFIwl7B68Fe74tAFLQ5wpJS
2cGgK1k/4+Qfwto89MHiOQxA1YEmwvpw9cGYHIFAlf0iwk5+88FgECi+3BUzwly44sEMN7ZAqb4x
wo9c4MFKP1JAYTEwwu7m9cFk3WFAIqsswjXw88FgtC2/blFCwjZq58Gp0CNAbLk2wuLLDMIAOMy7
Vo45wt6vCcKs2LW/BEY/ws0bCMJAVwk/QtQ5whKNBcI0Wro/BkwwwkKEBcLQso4+PukvwgLqB8Js
9q+/eLo+wt6kAMK0O4m/OHU/wixj/MHglRE/qM8vwuDx+8FCz6i/CFo1wmxxAMJIJQ3A4nw1wqg8
68EmFbi/UH08wlf87MF8DZO/sHQ3wkJE+MGN2fk/l05Cwsqa68GqugVBnDJJwqS37cFB4N1A

> <OMEGA_E>
UU8xwQ==

> <OMEGA_NBR>
    163315

$$$$
CACHE3HI_1714_50
  -OEChem-03092622573D

 54 59  0     1  0  0  0  0  0999 V2000
  -43.2957  -34.3318   -5.5479 C   0  0  0  0  0  0  0  0  0  0  0  0
  -42.9009  -33.1260   -4.9408 C   0  0  0  0  0  0  0  0  0  0  0  0
  -43.9854  -35.3038   -4.8022 C   0  0  0  0  0  0  0  0  0  0  0  0
  -45.5417  -34.1185    0.5810 C   0  0  0  0  0  0  0  0  0  0  0  0
  -43.2298  -32.8741   -3.5977 C   0  0  0  0  0  0  0  0  0  0  0  0
  -44.2970  -35.0674   -3.4534 C   0  0  0  0  0  0  0  0  0  0  0  0
  -45.2953  -29.1945    6.6789 C   0  0  0  0  0  0  0  0  0  0  0  0
  -44.9559  -34.4939   -0.6309 C   0  0  0  0  0  0  0  0  0  0  0  0
  -45.5909  -32.7592    0.9131 C   0  0  0  0  0  0  0  0  0  0  0  0
  -44.3115  -29.3723    5.6952 C   0  0  0  0  0  0  0  0  0  0  0  0
  -43.9471  -33.8364   -2.8447 C   0  0  0  0  0  0  0  0  0  0  0  0
  -46.6214  -29.0492    6.2572 C   0  0  0  0  0  0  0  0  0  0  0  0
  -44.4295  -33.4960   -1.4879 C   0  0  0  0  0  0  0  0  0  0  0  0
  -45.0451  -31.7947    0.0280 C   0  0  0  0  0  0  0  0  0  0  0  0
  -44.6771  -29.3739    4.3273 C   0  0  0  0  0  0  0  0  0  0  0  0
  -46.9392  -29.0699    4.8988 C   0  0  0  0  0  0  0  0  0  0  0  0
  -45.2471  -30.3458    0.3026 C   0  0  0  0  0  0  0  0  0  0  0  0
  -43.6258  -29.6633    3.3303 C   0  0  0  0  0  0  0  0  0  0  0  0
  -43.2478  -29.3178   -0.8638 C   0  0  0  0  0  0  0  0  0  0  0  0
  -44.9674  -27.8948   -0.2869 C   0  0  0  0  0  0  0  0  0  0  0  0
  -42.1464  -28.9173    1.3995 C   0  0  0  0  0  0  0  0  0  0  0  0
  -43.9093  -27.4805    2.0058 C   0  0  0  0  0  0  0  0  0  0  0  0
  -42.6025  -28.2747    0.0808 C   0  0  2  0  0  0  0  0  0  0  0  0
  -43.7535  -27.3314    0.4760 C   0  0  1  0  0  0  0  0  0  0  0  0
  -44.4713  -32.1854   -1.1337 N   0  0  0  0  0  0  0  0  0  0  0  0
  -45.9789  -29.2195    3.9517 N   0  0  0  0  0  0  0  0  0  0  0  0
  -48.3227  -28.9349    4.8137 N   0  0  0  0  0  0  0  0  0  0  0  0
  -48.8184  -28.8270    6.0013 N   0  0  0  0  0  0  0  0  0  0  0  0
  -47.8105  -28.8842    6.9248 N   0  0  0  0  0  0  0  0  0  0  0  0
  -44.6687  -29.3297   -0.4837 N   0  0  0  0  0  0  0  0  0  0  0  0
  -43.2961  -28.7772    2.3023 N   0  0  0  0  0  0  0  0  0  0  0  0
  -46.0769  -30.0343    1.1477 O   0  0  0  0  0  0  0  0  0  0  0  0
  -42.9682  -30.6890    3.4657 O   0  0  0  0  0  0  0  0  0  0  0  0
  -43.0687  -34.5112   -6.5884 H   0  0  0  0  0  0  0  0  0  0  0  0
  -42.3448  -32.3934   -5.5069 H   0  0  0  0  0  0  0  0  0  0  0  0
  -44.2762  -36.2341   -5.2675 H   0  0  0  0  0  0  0  0  0  0  0  0
  -45.9490  -34.8631    1.2490 H   0  0  0  0  0  0  0  0  0  0  0  0
  -42.9344  -31.9428   -3.1376 H   0  0  0  0  0  0  0  0  0  0  0  0
  -44.8052  -35.8267   -2.8777 H   0  0  0  0  0  0  0  0  0  0  0  0
  -45.0378  -29.1706    7.7275 H   0  0  0  0  0  0  0  0  0  0  0  0
  -44.9048  -35.5355   -0.9118 H   0  0  0  0  0  0  0  0  0  0  0  0
  -46.0439  -32.4455    1.8420 H   0  0  0  0  0  0  0  0  0  0  0  0
  -43.2785  -29.5075    5.9801 H   0  0  0  0  0  0  0  0  0  0  0  0
  -43.1290  -29.0164   -1.9150 H   0  0  0  0  0  0  0  0  0  0  0  0
  -42.7968  -30.3098   -0.7136 H   0  0  0  0  0  0  0  0  0  0  0  0
  -45.8867  -27.7696    0.3042 H   0  0  0  0  0  0  0  0  0  0  0  0
  -45.0830  -27.3882   -1.2564 H   0  0  0  0  0  0  0  0  0  0  0  0
  -41.8995  -29.9786    1.2484 H   0  0  0  0  0  0  0  0  0  0  0  0
  -41.2695  -28.3908    1.8042 H   0  0  0  0  0  0  0  0  0  0  0  0
  -43.3838  -26.6704    2.5327 H   0  0  0  0  0  0  0  0  0  0  0  0
  -44.9712  -27.4760    2.2925 H   0  0  0  0  0  0  0  0  0  0  0  0
  -41.7832  -27.7325   -0.4139 H   0  0  0  0  0  0  0  0  0  0  0  0
  -43.5419  -26.2905    0.1902 H   0  0  0  0  0  0  0  0  0  0  0  0
  -47.9206  -28.8173    7.9164 H   0  0  0  0  0  0  0  0  0  0  0  0
  1  2  1  0  0  0  0
  1  3  2  0  0  0  0
  2  5  2  0  0  0  0
  3  6  1  0  0  0  0
  4  8  2  0  0  0  0
  4  9  1  0  0  0  0
  5 11  1  0  0  0  0
  6 11  2  0  0  0  0
  7 10  2  0  0  0  0
  7 12  1  0  0  0  0
  8 13  1  0  0  0  0
  9 14  2  0  0  0  0
 10 15  1  0  0  0  0
 11 13  1  0  0  0  0
 12 16  2  0  0  0  0
 12 29  1  0  0  0  0
 13 25  2  0  0  0  0
 14 17  1  0  0  0  0
 14 25  1  0  0  0  0
 15 18  1  0  0  0  0
 15 26  2  0  0  0  0
 16 26  1  0  0  0  0
 16 27  1  0  0  0  0
 17 30  1  0  0  0  0
 17 32  2  0  0  0  0
 18 31  1  0  0  0  0
 18 33  2  0  0  0  0
 19 23  1  0  0  0  0
 19 30  1  0  0  0  0
 20 24  1  0  0  0  0
 20 30  1  0  0  0  0
 21 23  1  0  0  0  0
 21 31  1  0  0  0  0
 22 24  1  0  0  0  0
 22 31  1  0  0  0  0
 23 24  1  0  0  0  0
 27 28  2  0  0  0  0
 28 29  1  0  0  0  0
  1 34  1  0  0  0  0
  2 35  1  0  0  0  0
  3 36  1  0  0  0  0
  4 37  1  0  0  0  0
  5 38  1  0  0  0  0
  6 39  1  0  0  0  0
  7 40  1  0  0  0  0
  8 41  1  0  0  0  0
  9 42  1  0  0  0  0
 10 43  1  0  0  0  0
 19 44  1  0  0  0  0
 19 45  1  0  0  0  0
 20 46  1  0  0  0  0
 20 47  1  0  0  0  0
 21 48  1  0  0  0  0
 21 49  1  0  0  0  0
 22 50  1  0  0  0  0
 22 51  1  0  0  0  0
 23 52  1  0  0  0  0
 24 53  1  0  0  0  0
 29 54  1  0  0  0  0
M  END
> <POSIT::Probability>
0.72

> <POSIT::Method>
SHAPEFIT

> <ReceptorTitle>
UCSF-P4528-REFINED_LIGAND-BOUND-STATE_A__DU__LA1_A-201(A)

> <OMEGA_C>
zC4twsFTCcJ0iLHAhporwgKBBMLgGp7AGPEvwiA3DcJmq5nAvCo2wmR5CMIEuxQ/U+sswhh/A8Ln
QGbAFjAxwv1EDMKoBF3Aay41wm6O6cHVudVA1tIzwsz5CcLQgyG/GF02wl8JA8KwwWk/8T4xwn76
6sE7P7ZA1skvwntYB8LIDjbASnw6wtBk6MGTOshAzrcxwu37BcI0dL6/Ly40wnxb/sEAx+U8X7Uy
wsL96sFbeYpAxsE7wiiP6MH7wpxA/Pw0wibE8sGA6Zo+3IAuwoJO7cFKI1VAt/0swuCK6sGkIl2/
p94zwpIo38HA4JK+7JUowrJW58GEI7M/GKMvwiLY28GIXwBA9Ggqwqgy4sHgcKU9lwMvwrKm2sGo
tvM+qeIxws+9AMIAHJG/X+o3wpDB6cGG6HxAcUpBwqh658G9CZpAB0ZDwr6d5sHLCsBA7D0/wuAS
58Gbl91AxKwywkSj6sG4qve+Ni8twqQ35sFOWRNAxU44wlhG8MGA55I/dN8rwgqD9cEQzl1AU0Ys
wn0LCsJV1NLAFWEpwtKSAcI4OLDA3RoxwrHvEMIGj6jAw8s3wsdzC8LR3p8/27wrwsqK/8GrzUjA
jzgzwpZOD8KbLDjAqCY0wnRd6cGmR/dAjp4zwmMkDsIZamm/7Sw4wjjIAcI3x+s/OR0twmEP7MFa
Xb9AGYQswoch6MEoH/W/7i8rwoN68sH3sDa/84s3whAo3sG8ups++1Q0wvYa28E40aC/DpknwhTU
78FozJ8/8BMlwmog48Fd8OY/AYktwghd1cHjFyJAjeIzwurO28H2uBJA8yEnwivc3cF45dO+3Cou
wt5S0sF8y0I+u64/wt2J5sFIU/1A

> <OMEGA_E>
+HhXPw==

> <OMEGA_NBR>
    164929

$$$$
CACHE3HI_1714_53
  -OEChem-03092622573D

 47 51  0     1  0  0  0  0  0999 V2000
  -44.6360  -32.2971   -0.7561 C   0  0  0  0  0  0  0  0  0  0  0  0
  -45.3005  -31.8726    0.3945 C   0  0  0  0  0  0  0  0  0  0  0  0
  -43.6172  -31.5156   -1.3008 C   0  0  0  0  0  0  0  0  0  0  0  0
  -44.9953  -28.9928    5.9320 C   0  0  0  0  0  0  0  0  0  0  0  0
  -44.9462  -30.6671    1.0005 C   0  0  0  0  0  0  0  0  0  0  0  0
  -43.2629  -30.3101   -0.6949 C   0  0  0  0  0  0  0  0  0  0  0  0
  -46.1338  -29.0617    6.7362 C   0  0  0  0  0  0  0  0  0  0  0  0
  -46.3824  -29.0147    3.9487 C   0  0  0  0  0  0  0  0  0  0  0  0
  -47.5216  -29.0835    4.7549 C   0  0  0  0  0  0  0  0  0  0  0  0
  -45.1205  -28.9695    4.5421 C   0  0  0  0  0  0  0  0  0  0  0  0
  -43.9273  -29.8855    0.4557 C   0  0  0  0  0  0  0  0  0  0  0  0
  -47.3978  -29.1073    6.1454 C   0  0  0  0  0  0  0  0  0  0  0  0
  -44.0733  -25.0978   -0.3796 C   0  0  0  0  0  0  0  0  0  0  0  0
  -45.1008  -25.7469   -0.9349 C   0  0  0  0  0  0  0  0  0  0  0  0
  -48.8683  -29.1321    4.1514 C   0  0  0  0  0  0  0  0  0  0  0  0
  -49.8262  -29.2252    6.4510 C   0  0  0  0  0  0  0  0  0  0  0  0
  -43.9152  -28.8967    3.6995 C   0  0  0  0  0  0  0  0  0  0  0  0
  -43.2950  -25.9648    0.5530 C   0  0  0  0  0  0  0  0  0  0  0  0
  -45.1911  -27.1642   -0.4752 C   0  0  0  0  0  0  0  0  0  0  0  0
  -44.9551  -27.2010    2.1002 C   0  0  0  0  0  0  0  0  0  0  0  0
  -43.5232  -28.5109    1.1469 C   0  0  1  0  0  0  0  0  0  0  0  0
  -44.2295  -27.1813    0.7255 C   0  0  0  0  0  0  0  0  0  0  0  0
  -48.5391  -29.1768    6.9580 N   0  0  0  0  0  0  0  0  0  0  0  0
  -49.9200  -29.2004    5.0595 N   0  0  0  0  0  0  0  0  0  0  0  0
  -44.0486  -28.2636    2.4903 N   0  0  0  0  0  0  0  0  0  0  0  0
  -49.0200  -29.1124    2.9347 O   0  0  0  0  0  0  0  0  0  0  0  0
  -50.8210  -29.2855    7.1760 O   0  0  0  0  0  0  0  0  0  0  0  0
  -42.8709  -29.3755    4.1330 O   0  0  0  0  0  0  0  0  0  0  0  0
  -44.9119  -33.2358   -1.2275 H   0  0  0  0  0  0  0  0  0  0  0  0
  -46.0937  -32.4810    0.8192 H   0  0  0  0  0  0  0  0  0  0  0  0
  -43.0999  -31.8459   -2.1969 H   0  0  0  0  0  0  0  0  0  0  0  0
  -44.0145  -28.9575    6.3995 H   0  0  0  0  0  0  0  0  0  0  0  0
  -45.4686  -30.3430    1.8965 H   0  0  0  0  0  0  0  0  0  0  0  0
  -42.4675  -29.7074   -1.1252 H   0  0  0  0  0  0  0  0  0  0  0  0
  -46.0227  -29.0796    7.8172 H   0  0  0  0  0  0  0  0  0  0  0  0
  -46.4686  -28.9953    2.8651 H   0  0  0  0  0  0  0  0  0  0  0  0
  -43.8193  -24.0697   -0.5939 H   0  0  0  0  0  0  0  0  0  0  0  0
  -45.7781  -25.3077   -1.6531 H   0  0  0  0  0  0  0  0  0  0  0  0
  -42.3453  -26.2447    0.0845 H   0  0  0  0  0  0  0  0  0  0  0  0
  -43.0877  -25.4550    1.4985 H   0  0  0  0  0  0  0  0  0  0  0  0
  -46.2151  -27.4322   -0.1997 H   0  0  0  0  0  0  0  0  0  0  0  0
  -44.8538  -27.8241   -1.2813 H   0  0  0  0  0  0  0  0  0  0  0  0
  -44.8668  -26.3010    2.7149 H   0  0  0  0  0  0  0  0  0  0  0  0
  -45.9965  -27.5381    2.0977 H   0  0  0  0  0  0  0  0  0  0  0  0
  -42.4216  -28.4142    1.1408 H   0  0  0  0  0  0  0  0  0  0  0  0
  -48.4152  -29.1923    7.9663 H   0  0  0  0  0  0  0  0  0  0  0  0
  -50.8569  -29.2354    4.6673 H   0  0  0  0  0  0  0  0  0  0  0  0
  1  2  1  0  0  0  0
  1  3  2  0  0  0  0
  2  5  2  0  0  0  0
  3  6  1  0  0  0  0
  4  7  2  0  0  0  0
  4 10  1  0  0  0  0
  5 11  1  0  0  0  0
  6 11  2  0  0  0  0
  7 12  1  0  0  0  0
  8  9  1  0  0  0  0
  8 10  2  0  0  0  0
  9 12  2  0  0  0  0
  9 15  1  0  0  0  0
 10 17  1  0  0  0  0
 11 21  1  0  0  0  0
 12 23  1  0  0  0  0
 13 14  2  0  0  0  0
 13 18  1  0  0  0  0
 14 19  1  0  0  0  0
 15 24  1  0  0  0  0
 15 26  2  0  0  0  0
 16 23  1  0  0  0  0
 16 24  1  0  0  0  0
 16 27  2  0  0  0  0
 17 25  1  0  0  0  0
 17 28  2  0  0  0  0
 18 22  1  0  0  0  0
 19 22  1  0  0  0  0
 20 22  1  0  0  0  0
 20 25  1  0  0  0  0
 21 22  1  0  0  0  0
 21 25  1  0  0  0  0
  1 29  1  0  0  0  0
  2 30  1  0  0  0  0
  3 31  1  0  0  0  0
  4 32  1  0  0  0  0
  5 33  1  0  0  0  0
  6 34  1  0  0  0  0
  7 35  1  0  0  0  0
  8 36  1  0  0  0  0
 13 37  1  0  0  0  0
 14 38  1  0  0  0  0
 18 39  1  0  0  0  0
 18 40  1  0  0  0  0
 19 41  1  0  0  0  0
 19 42  1  0  0  0  0
 20 43  1  0  0  0  0
 20 44  1  0  0  0  0
 21 45  1  0  0  0  0
 23 46  1  0  0  0  0
 24 47  1  0  0  0  0
M  END
> <POSIT::Probability>
0.18

> <POSIT::Method>
HYBRID

> <ReceptorTitle>
UCSF-P4528-REFINED_LIGAND-BOUND-STATE_A__DU__LA1_A-201(A)

> <OMEGA_C>
TosywjAwAcKgj0G/uzM1wv36/sEQAco+Cnguwt8f/MEogaa/JfszwlDx58HW0r1A3Mgzwh9W9cFI
EIA/Kw0twv968sFM4jG/BYk4wmJ+6MFcj9dAmoc5wgIe6MGrt3xAHRY+wvaq6MF2KJhAbns0wnnB
58EQWZFAjrUvwpQV78FgVuk+XZc9wsDb6MH0psRAFEswwlLIyMGgVsK+RWc0wrr5zcFoVW+/L3lD
wnEO6cHf14RAEE5HwirN6cFAbs5AHqkvwmQs58HSw2xAHy4twuG3z8GIkQ0/psM0wkRQ2cGQT/O+
+tEzwpqb2cGpaQZAxBcuwmEW5MHLzpI/C+swwmRz2cECvTk/EyhCwgtq6cFKqN5AFq5Hwm6a6cGu
56FAvjEwwsgb4sFJYB9AeBREwhjm6MFI0jtAsUhLwqtI6sGLoeVA1HsrwvYA68EzQYRAvqUzwnTx
BMJCHZ2/9F84wpDsAcI4tlE/UGYswmjE/sFMmQzA3A4wwgCp58GDyMxA1981wou+8sFGwPI/u94p
wryo7cEQBpC/NBc4whmj6MG+JvpA1t85wnL258GnXTdA+0YvwsyOwMEQChi/0hw3wh12ysEgmtO/
mmEpwiH10cGAGq092VkswtSjy8FI0L8/UNw4wjx128Hwgky+QGozwtqX3sHYAKS/knczwmJo0sGT
wS1AYfw3wvBN3MFbQAZAuK8pwjJQ48HfBpI/LKlBwtqJ6cHc6/5Ae21LwhDi6cGMWpVA

> <OMEGA_E>
chIVwQ==

> <OMEGA_NBR>
    166376

$$$$
CACHE3HI_1714_54
  -OEChem-03092622573D

 47 51  0     1  0  0  0  0  0999 V2000
  -40.4434  -30.9098    2.2095 C   0  0  0  0  0  0  0  0  0  0  0  0
  -41.4375  -30.9268    3.1878 C   0  0  0  0  0  0  0  0  0  0  0  0
  -40.7923  -30.8059    0.8631 C   0  0  0  0  0  0  0  0  0  0  0  0
  -45.1873  -28.5084    5.0224 C   0  0  0  0  0  0  0  0  0  0  0  0
  -44.8560  -28.3307    3.6785 C   0  0  0  0  0  0  0  0  0  0  0  0
  -42.7803  -30.8397    2.8198 C   0  0  0  0  0  0  0  0  0  0  0  0
  -42.1351  -30.7188    0.4951 C   0  0  0  0  0  0  0  0  0  0  0  0
  -47.1674  -28.6613    3.0582 C   0  0  0  0  0  0  0  0  0  0  0  0
  -46.5148  -28.7641    5.3860 C   0  0  0  0  0  0  0  0  0  0  0  0
  -47.5037  -28.8401    4.4052 C   0  0  0  0  0  0  0  0  0  0  0  0
  -45.8437  -28.4069    2.6990 C   0  0  0  0  0  0  0  0  0  0  0  0
  -43.1293  -30.7359    1.4733 C   0  0  0  0  0  0  0  0  0  0  0  0
  -45.1192  -32.9061   -1.9613 C   0  0  0  0  0  0  0  0  0  0  0  0
  -46.3687  -32.8394   -1.4976 C   0  0  0  0  0  0  0  0  0  0  0  0
  -46.8634  -28.9519    6.8073 C   0  0  0  0  0  0  0  0  0  0  0  0
  -48.9046  -29.1086    4.7830 C   0  0  0  0  0  0  0  0  0  0  0  0
  -45.4888  -28.2176    1.2814 C   0  0  0  0  0  0  0  0  0  0  0  0
  -44.1727  -32.0658   -1.1682 C   0  0  0  0  0  0  0  0  0  0  0  0
  -46.4857  -31.9401   -0.3118 C   0  0  0  0  0  0  0  0  0  0  0  0
  -45.2332  -29.7321   -0.8174 C   0  0  0  0  0  0  0  0  0  0  0  0
  -44.6596  -30.6365    1.0541 C   0  0  2  0  0  0  0  0  0  0  0  0
  -45.1279  -31.2046   -0.3256 C   0  0  0  0  0  0  0  0  0  0  0  0
  -48.1872  -29.1979    7.0895 N   0  0  0  0  0  0  0  0  0  0  0  0
  -49.1586  -29.2730    6.1256 N   0  0  0  0  0  0  0  0  0  0  0  0
  -45.1377  -29.3387    0.5745 N   0  0  0  0  0  0  0  0  0  0  0  0
  -45.9961  -28.8860    7.6740 O   0  0  0  0  0  0  0  0  0  0  0  0
  -49.7790  -29.1776    3.9237 O   0  0  0  0  0  0  0  0  0  0  0  0
  -45.5120  -27.0788    0.8205 O   0  0  0  0  0  0  0  0  0  0  0  0
  -39.3980  -30.9772    2.4962 H   0  0  0  0  0  0  0  0  0  0  0  0
  -41.1661  -31.0074    4.2364 H   0  0  0  0  0  0  0  0  0  0  0  0
  -40.0183  -30.7928    0.1013 H   0  0  0  0  0  0  0  0  0  0  0  0
  -44.3993  -28.4441    5.7680 H   0  0  0  0  0  0  0  0  0  0  0  0
  -43.8218  -28.1329    3.4073 H   0  0  0  0  0  0  0  0  0  0  0  0
  -43.5490  -30.8539    3.5877 H   0  0  0  0  0  0  0  0  0  0  0  0
  -42.3985  -30.6374   -0.5560 H   0  0  0  0  0  0  0  0  0  0  0  0
  -47.9284  -28.7189    2.2834 H   0  0  0  0  0  0  0  0  0  0  0  0
  -44.8159  -33.5161   -2.8014 H   0  0  0  0  0  0  0  0  0  0  0  0
  -47.2012  -33.3881   -1.9158 H   0  0  0  0  0  0  0  0  0  0  0  0
  -43.5504  -32.7181   -0.5469 H   0  0  0  0  0  0  0  0  0  0  0  0
  -43.5265  -31.4683   -1.8175 H   0  0  0  0  0  0  0  0  0  0  0  0
  -47.3362  -31.2588   -0.4047 H   0  0  0  0  0  0  0  0  0  0  0  0
  -46.6101  -32.5446    0.5928 H   0  0  0  0  0  0  0  0  0  0  0  0
  -44.3923  -29.3534   -1.4039 H   0  0  0  0  0  0  0  0  0  0  0  0
  -46.1723  -29.4419   -1.2930 H   0  0  0  0  0  0  0  0  0  0  0  0
  -45.2891  -30.9964    1.8852 H   0  0  0  0  0  0  0  0  0  0  0  0
  -48.5020  -29.3375    8.0441 H   0  0  0  0  0  0  0  0  0  0  0  0
  -50.0977  -29.4603    6.4614 H   0  0  0  0  0  0  0  0  0  0  0  0
  1  2  1  0  0  0  0
  1  3  2  0  0  0  0
  2  6  2  0  0  0  0
  3  7  1  0  0  0  0
  4  5  2  0  0  0  0
  4  9  1  0  0  0  0
  5 11  1  0  0  0  0
  6 12  1  0  0  0  0
  7 12  2  0  0  0  0
  8 10  1  0  0  0  0
  8 11  2  0  0  0  0
  9 10  2  0  0  0  0
  9 15  1  0  0  0  0
 10 16  1  0  0  0  0
 11 17  1  0  0  0  0
 12 21  1  0  0  0  0
 13 14  2  0  0  0  0
 13 18  1  0  0  0  0
 14 19  1  0  0  0  0
 15 23  1  0  0  0  0
 15 26  2  0  0  0  0
 16 24  1  0  0  0  0
 16 27  2  0  0  0  0
 17 25  1  0  0  0  0
 17 28  2  0  0  0  0
 18 22  1  0  0  0  0
 19 22  1  0  0  0  0
 20 22  1  0  0  0  0
 20 25  1  0  0  0  0
 21 22  1  0  0  0  0
 21 25  1  0  0  0  0
 23 24  1  0  0  0  0
  1 29  1  0  0  0  0
  2 30  1  0  0  0  0
  3 31  1  0  0  0  0
  4 32  1  0  0  0  0
  5 33  1  0  0  0  0
  6 34  1  0  0  0  0
  7 35  1  0  0  0  0
  8 36  1  0  0  0  0
 13 37  1  0  0  0  0
 14 38  1  0  0  0  0
 18 39  1  0  0  0  0
 18 40  1  0  0  0  0
 19 41  1  0  0  0  0
 19 42  1  0  0  0  0
 20 43  1  0  0  0  0
 20 44  1  0  0  0  0
 21 45  1  0  0  0  0
 23 46  1  0  0  0  0
 24 47  1  0  0  0  0
M  END
> <POSIT::Probability>
0.24

> <POSIT::Method>
FRED

> <ReceptorTitle>
UCSF-P4528-REFINED_LIGAND-BOUND-STATE_A__DU__LA1_A-201(A)

> <OMEGA_C>
/8UhwjxH98FJaA1ACsAlwiBq98FcBExAWisjwn9y9sG28Vw/wL80wkYR5MFat6BAhmwzwkul4sHg
bGtACB8rwsS39sHqdzRAWIoowiDA9cHMf/0+d6s8wlhK5cEcukNAMQ86wswc5sHEWaxAxwM+wp+4
5sGI94xA9V83wmpB48HwuyxAYIQswgbj9cEclrw/E3o0wtyfA8KGCvu/lHk5wpFbA8KssL+/JXQ7
wnad58E91dlAVp5Dwn7e6MGJDplAjPQ1wrC94cFuBaQ/4rAwwmRDAMLHh5W/Y/E5wkqF/8HIn5++
2e40wk7b7cGuQ1G/eqMywnYX9cFD7oY/+YI0wgGj+cHwsqa+t79AwjyV6cE/3eJAc6JEwg8v6sH9
BMRA/4w0wpK16sEGERM/+Ps3wpkW58FFkfVAsx1HwtFr6cFDHntARww2wm6h2MFuC1I/lZcdwl3R
98Eywh9AIKokwhMP+MFOkIdAwxIgwr5X9sGgXM896JgxwnON48Fbk7hAjEkvwiYQ4cGsEVpALDIu
wrLU9sECnWVAHJgpwnoZ9cEwWQ6/uLY/wl7A5cG1IxJAeUMzwoEQBsLUSTPAAs48wnCNBcIMOfW/
ozMuwlffAsKwAQy/Khsuwie/+8GZoui/Rlg9wvIR+sEMMc++yHA6wqwtAsL6whc/u5ExwrXT6sHp
srO/ZrA4wu6I68FBgqW/FCg1wqT498H7TPE/CAJCwh6z6sF9tABBE2RIwrqu68GSw85A

> <OMEGA_E>
bnM1wQ==

> <OMEGA_NBR>
    167818

$$$$
CACHE3HI_1714_63
  -OEChem-03092622573D

 53 57  0     1  0  0  0  0  0999 V2000
  -47.1994  -29.7983    3.2156 C   0  0  0  0  0  0  0  0  0  0  0  0
  -46.6563  -32.9773    0.3703 C   0  0  0  0  0  0  0  0  0  0  0  0
  -48.5279  -29.7648    3.6529 C   0  0  0  0  0  0  0  0  0  0  0  0
  -46.9885  -31.6661    0.0344 C   0  0  0  0  0  0  0  0  0  0  0  0
  -46.3888  -29.1698    5.4311 C   0  0  0  0  0  0  0  0  0  0  0  0
  -46.1389  -29.5035    4.0974 C   0  0  0  0  0  0  0  0  0  0  0  0
  -45.7053  -33.5743   -0.4467 C   0  0  0  0  0  0  0  0  0  0  0  0
  -47.7068  -29.1477    5.8255 C   0  0  0  0  0  0  0  0  0  0  0  0
  -48.7503  -29.4343    4.9719 C   0  0  0  0  0  0  0  0  0  0  0  0
  -46.3679  -31.0636   -1.0566 C   0  0  0  0  0  0  0  0  0  0  0  0
  -45.1298  -32.9097   -1.5184 C   0  0  0  0  0  0  0  0  0  0  0  0
  -49.6416  -28.9841    6.9097 C   0  0  0  0  0  0  0  0  0  0  0  0
  -44.7569  -29.5476    3.6068 C   0  0  0  0  0  0  0  0  0  0  0  0
  -46.7213  -29.6792   -1.4076 C   0  0  0  0  0  0  0  0  0  0  0  0
  -42.3145  -28.9969    0.1043 C   0  0  0  0  0  0  0  0  0  0  0  0
  -42.1798  -29.1746    1.6155 C   0  0  0  0  0  0  0  0  0  0  0  0
  -43.5986  -28.3796   -0.4536 C   0  0  0  0  0  0  0  0  0  0  0  0
  -43.0111  -28.2311    2.4739 C   0  0  0  0  0  0  0  0  0  0  0  0
  -45.2867  -28.2936    1.4594 C   0  0  0  0  0  0  0  0  0  0  0  0
  -44.9088  -28.9392    0.1173 C   0  0  1  0  0  0  0  0  0  0  0  0
  -46.2145  -27.2118   -1.1039 C   0  0  0  0  0  0  0  0  0  0  0  0
  -45.4390  -31.6357   -1.8604 N   0  0  0  0  0  0  0  0  0  0  0  0
  -44.2334  -33.7304   -2.1429 N   0  0  0  0  0  0  0  0  0  0  0  0
  -44.2284  -34.8924   -1.4955 N   0  0  0  0  0  0  0  0  0  0  0  0
  -45.1073  -34.7980   -0.4817 N   0  0  0  0  0  0  0  0  0  0  0  0
  -48.2676  -28.8648    7.0423 N   0  0  0  0  0  0  0  0  0  0  0  0
  -44.3965  -28.6937    2.5540 N   0  0  0  0  0  0  0  0  0  0  0  0
  -45.9885  -28.6325   -0.8297 N   0  0  0  0  0  0  0  0  0  0  0  0
  -50.4742  -28.8061    7.7900 O   0  0  0  0  0  0  0  0  0  0  0  0
  -44.0119  -30.3542    4.1609 O   0  0  0  0  0  0  0  0  0  0  0  0
  -47.6432  -29.5394   -2.2098 O   0  0  0  0  0  0  0  0  0  0  0  0
  -49.9859  -29.3479    5.5949 O   0  0  0  0  0  0  0  0  0  0  0  0
  -46.9907  -30.0562    2.1797 H   0  0  0  0  0  0  0  0  0  0  0  0
  -47.1098  -33.4907    1.2083 H   0  0  0  0  0  0  0  0  0  0  0  0
  -49.3439  -29.9911    2.9767 H   0  0  0  0  0  0  0  0  0  0  0  0
  -47.7264  -31.1306    0.6249 H   0  0  0  0  0  0  0  0  0  0  0  0
  -45.5859  -28.9403    6.1225 H   0  0  0  0  0  0  0  0  0  0  0  0
  -41.4567  -28.3695   -0.2266 H   0  0  0  0  0  0  0  0  0  0  0  0
  -42.1302  -29.9752   -0.3959 H   0  0  0  0  0  0  0  0  0  0  0  0
  -42.4407  -30.2103    1.8573 H   0  0  0  0  0  0  0  0  0  0  0  0
  -41.1279  -29.0536    1.8955 H   0  0  0  0  0  0  0  0  0  0  0  0
  -43.5673  -27.2752   -0.3510 H   0  0  0  0  0  0  0  0  0  0  0  0
  -43.5940  -28.5674   -1.5467 H   0  0  0  0  0  0  0  0  0  0  0  0
  -42.5828  -28.1673    3.4665 H   0  0  0  0  0  0  0  0  0  0  0  0
  -43.0029  -27.2336    2.0489 H   0  0  0  0  0  0  0  0  0  0  0  0
  -45.2766  -27.2003    1.3890 H   0  0  0  0  0  0  0  0  0  0  0  0
  -46.3100  -28.5861    1.7209 H   0  0  0  0  0  0  0  0  0  0  0  0
  -44.8723  -29.9969    0.2034 H   0  0  0  0  0  0  0  0  0  0  0  0
  -46.9442  -26.7961   -0.4030 H   0  0  0  0  0  0  0  0  0  0  0  0
  -45.2784  -26.6547   -1.0073 H   0  0  0  0  0  0  0  0  0  0  0  0
  -46.5907  -27.0789   -2.1220 H   0  0  0  0  0  0  0  0  0  0  0  0
  -45.2409  -35.5942    0.1301 H   0  0  0  0  0  0  0  0  0  0  0  0
  -47.7592  -28.6149    7.8813 H   0  0  0  0  0  0  0  0  0  0  0  0
  1  3  2  0  0  0  0
  1  6  1  0  0  0  0
  2  4  2  0  0  0  0
  2  7  1  0  0  0  0
  3  9  1  0  0  0  0
  4 10  1  0  0  0  0
  5  6  2  0  0  0  0
  5  8  1  0  0  0  0
  6 13  1  0  0  0  0
  7 11  2  0  0  0  0
  7 25  1  0  0  0  0
  8  9  2  0  0  0  0
  8 26  1  0  0  0  0
  9 32  1  0  0  0  0
 10 14  1  0  0  0  0
 10 22  2  0  0  0  0
 11 22  1  0  0  0  0
 11 23  1  0  0  0  0
 12 26  1  0  0  0  0
 12 29  2  0  0  0  0
 12 32  1  0  0  0  0
 13 27  1  0  0  0  0
 13 30  2  0  0  0  0
 14 28  1  0  0  0  0
 14 31  2  0  0  0  0
 15 16  1  0  0  0  0
 15 17  1  0  0  0  0
 16 18  1  0  0  0  0
 17 20  1  0  0  0  0
 18 27  1  0  0  0  0
 19 20  1  0  0  0  0
 19 27  1  0  0  0  0
 20 28  1  0  0  0  0
 21 28  1  0  0  0  0
 23 24  2  0  0  0  0
 24 25  1  0  0  0  0
  1 33  1  0  0  0  0
  2 34  1  0  0  0  0
  3 35  1  0  0  0  0
  4 36  1  0  0  0  0
  5 37  1  0  0  0  0
 15 38  1  0  0  0  0
 15 39  1  0  0  0  0
 16 40  1  0  0  0  0
 16 41  1  0  0  0  0
 17 42  1  0  0  0  0
 17 43  1  0  0  0  0
 18 44  1  0  0  0  0
 18 45  1  0  0  0  0
 19 46  1  0  0  0  0
 19 47  1  0  0  0  0
 20 48  1  0  0  0  0
 21 49  1  0  0  0  0
 21 50  1  0  0  0  0
 21 51  1  0  0  0  0
 25 52  1  0  0  0  0
 26 53  1  0  0  0  0
M  END
> <POSIT::Probability>
0.18

> <POSIT::Method>
HYBRID

> <ReceptorTitle>
UCSF-P4528-REFINED_LIGAND-BOUND-STATE_A__DU__LA1_A-201(A)

> <OMEGA_C>
PMw8wuRi7sHUzE1AFqA6wrXoA8IVk70+nhxCwjge7sHPyGlANvQ7wkZU/cFoAA09HY45wtdb6cHJ
y61ANY44wkEH7ME8HoNAP9I2wiFMBsIjsOS+xdM+wnIu6cFkarpATgBDwn1568EQGp9Asng5wkWC
+MENPoe/4YQ0woejA8LHW8K/+5BGwoLf58EjHN1AGAczwoxh7MGC1mZAo+I6whBv7cHHKrS/GUIp
wrb558HUptU9HrgowqNl6cHUyc4/82QuwlwJ48FrOei+XQsswmLZ4cGcVB5AmSU1wlFZ4sFCzbo/
kqIzwpWD58GUQ/A9qds4wrSx2cH1S42/gcE1wtoV/cGjIe6/+O4wwvXrBsIRJgnA6ukwwtWRC8KL
a7+/5200wjAxC8ITn/a++hFBwjDr5sG9WuFADZYxwryM5cFSdCNAN/Q3wlwP5cFaZFS/ieVJwtBy
5sGwR/lALwwwwlXV8sHCJYVAqpI+wsNQ7MFNbQ3AhfFHwnvI6sE8CbNAhPY7wiRz8MFzfwtAbXA8
wm/2BcK0qpo/J2BFwrTt78HWgT5Ayec+wnsL+cFu+h8/61c2wqaF58G468NAqdMlwsv04sFG/2e+
ToUowjrN78F7sMq+TMMpwpyu8cGBvO0/AIMkwrZt6MGpn/I/70QuwpYz2sEzubO+SWAuwvKJ5MHz
+sW/vlQqwohW4cHh211A9QIswlfe2cG+IQNAPxs1wkia2cELyrE/Zz05wj+w5MHZRdw/O30zwr35
78EaSVA+0sY7wnxe1sEDUc6+Cx01wtI81cGB74C/2lw6wp2h2MFJzwfAuvY0wnBgDsJaRAU+dQk/
wlHr5MH4M/xA

> <OMEGA_E>
xtD4wA==

> <OMEGA_NBR>
    169385

$$$$
CACHE3HI_1714_64
  -OEChem-03092622573D

 54 58  0     1  0  0  0  0  0999 V2000
  -48.4462  -29.4718    3.9038 C   0  0  0  0  0  0  0  0  0  0  0  0
  -47.1265  -29.6202    3.4627 C   0  0  0  0  0  0  0  0  0  0  0  0
  -46.9190  -32.6700    0.4244 C   0  0  0  0  0  0  0  0  0  0  0  0
  -47.1064  -31.3135    0.1657 C   0  0  0  0  0  0  0  0  0  0  0  0
  -49.8637  -28.9831    6.0386 C   0  0  0  0  0  0  0  0  0  0  0  0
  -46.2747  -29.2176    5.7018 C   0  0  0  0  0  0  0  0  0  0  0  0
  -49.4722  -28.7450    7.3357 C   0  0  0  0  0  0  0  0  0  0  0  0
  -48.6883  -29.1914    5.2636 C   0  0  0  0  0  0  0  0  0  0  0  0
  -46.0591  -29.4946    4.3492 C   0  0  0  0  0  0  0  0  0  0  0  0
  -46.0316  -33.3172   -0.4253 C   0  0  0  0  0  0  0  0  0  0  0  0
  -47.5994  -29.0712    6.1294 C   0  0  0  0  0  0  0  0  0  0  0  0
  -46.4170  -30.7186   -0.8876 C   0  0  0  0  0  0  0  0  0  0  0  0
  -45.3805  -32.6570   -1.4557 C   0  0  0  0  0  0  0  0  0  0  0  0
  -44.6864  -29.6582    3.8581 C   0  0  0  0  0  0  0  0  0  0  0  0
  -46.6175  -29.2862   -1.1571 C   0  0  0  0  0  0  0  0  0  0  0  0
  -42.1740  -29.1701    0.3960 C   0  0  0  0  0  0  0  0  0  0  0  0
  -42.0699  -29.4489    1.8944 C   0  0  0  0  0  0  0  0  0  0  0  0
  -43.3805  -28.3871   -0.1258 C   0  0  0  0  0  0  0  0  0  0  0  0
  -42.8015  -28.4731    2.8058 C   0  0  0  0  0  0  0  0  0  0  0  0
  -45.0634  -28.2318    1.7874 C   0  0  0  0  0  0  0  0  0  0  0  0
  -44.7471  -28.8351    0.4101 C   0  0  1  0  0  0  0  0  0  0  0  0
  -45.8515  -26.9093   -0.7089 C   0  0  0  0  0  0  0  0  0  0  0  0
  -45.5489  -31.3394   -1.7227 N   0  0  0  0  0  0  0  0  0  0  0  0
  -44.5727  -33.5315   -2.1265 N   0  0  0  0  0  0  0  0  0  0  0  0
  -44.6969  -34.7229   -1.5482 N   0  0  0  0  0  0  0  0  0  0  0  0
  -48.1046  -28.8003    7.3810 N   0  0  0  0  0  0  0  0  0  0  0  0
  -45.5679  -34.5939   -0.5314 N   0  0  0  0  0  0  0  0  0  0  0  0
  -44.2290  -28.7882    2.8574 N   0  0  0  0  0  0  0  0  0  0  0  0
  -45.7810  -28.3596   -0.5182 N   0  0  0  0  0  0  0  0  0  0  0  0
  -44.0360  -30.5709    4.3646 O   0  0  0  0  0  0  0  0  0  0  0  0
  -47.5134  -29.0019   -1.9506 O   0  0  0  0  0  0  0  0  0  0  0  0
  -49.2688  -29.5725    3.2016 H   0  0  0  0  0  0  0  0  0  0  0  0
  -46.9464  -29.8370    2.4123 H   0  0  0  0  0  0  0  0  0  0  0  0
  -47.4308  -33.1796    1.2305 H   0  0  0  0  0  0  0  0  0  0  0  0
  -47.7868  -30.7371    0.7859 H   0  0  0  0  0  0  0  0  0  0  0  0
  -50.8858  -29.0049    5.6862 H   0  0  0  0  0  0  0  0  0  0  0  0
  -45.4496  -29.1185    6.4005 H   0  0  0  0  0  0  0  0  0  0  0  0
  -50.0443  -28.5413    8.2299 H   0  0  0  0  0  0  0  0  0  0  0  0
  -41.2515  -28.6203    0.1033 H   0  0  0  0  0  0  0  0  0  0  0  0
  -42.0919  -30.1318   -0.1605 H   0  0  0  0  0  0  0  0  0  0  0  0
  -42.4420  -30.4628    2.0748 H   0  0  0  0  0  0  0  0  0  0  0  0
  -41.0132  -29.4579    2.1819 H   0  0  0  0  0  0  0  0  0  0  0  0
  -43.2318  -27.3003    0.0413 H   0  0  0  0  0  0  0  0  0  0  0  0
  -43.3882  -28.5103   -1.2281 H   0  0  0  0  0  0  0  0  0  0  0  0
  -42.3759  -28.5134    3.8009 H   0  0  0  0  0  0  0  0  0  0  0  0
  -42.6834  -27.4592    2.4400 H   0  0  0  0  0  0  0  0  0  0  0  0
  -44.9357  -27.1437    1.7811 H   0  0  0  0  0  0  0  0  0  0  0  0
  -46.1139  -28.4274    2.0303 H   0  0  0  0  0  0  0  0  0  0  0  0
  -44.8248  -29.8938    0.4341 H   0  0  0  0  0  0  0  0  0  0  0  0
  -46.5375  -26.4592    0.0145 H   0  0  0  0  0  0  0  0  0  0  0  0
  -44.8618  -26.4625   -0.5790 H   0  0  0  0  0  0  0  0  0  0  0  0
  -46.2040  -26.6779   -1.7179 H   0  0  0  0  0  0  0  0  0  0  0  0
  -47.5466  -28.6619    8.2121 H   0  0  0  0  0  0  0  0  0  0  0  0
  -45.7904  -35.4053    0.0326 H   0  0  0  0  0  0  0  0  0  0  0  0
  1  2  2  0  0  0  0
  1  8  1  0  0  0  0
  2  9  1  0  0  0  0
  3  4  2  0  0  0  0
  3 10  1  0  0  0  0
  4 12  1  0  0  0  0
  5  7  2  0  0  0  0
  5  8  1  0  0  0  0
  6  9  2  0  0  0  0
  6 11  1  0  0  0  0
  7 26  1  0  0  0  0
  8 11  2  0  0  0  0
  9 14  1  0  0  0  0
 10 13  2  0  0  0  0
 10 27  1  0  0  0  0
 11 26  1  0  0  0  0
 12 15  1  0  0  0  0
 12 23  2  0  0  0  0
 13 23  1  0  0  0  0
 13 24  1  0  0  0  0
 14 28  1  0  0  0  0
 14 30  2  0  0  0  0
 15 29  1  0  0  0  0
 15 31  2  0  0  0  0
 16 17  1  0  0  0  0
 16 18  1  0  0  0  0
 17 19  1  0  0  0  0
 18 21  1  0  0  0  0
 19 28  1  0  0  0  0
 20 21  1  0  0  0  0
 20 28  1  0  0  0  0
 21 29  1  0  0  0  0
 22 29  1  0  0  0  0
 24 25  2  0  0  0  0
 25 27  1  0  0  0  0
  1 32  1  0  0  0  0
  2 33  1  0  0  0  0
  3 34  1  0  0  0  0
  4 35  1  0  0  0  0
  5 36  1  0  0  0  0
  6 37  1  0  0  0  0
  7 38  1  0  0  0  0
 16 39  1  0  0  0  0
 16 40  1  0  0  0  0
 17 41  1  0  0  0  0
 17 42  1  0  0  0  0
 18 43  1  0  0  0  0
 18 44  1  0  0  0  0
 19 45  1  0  0  0  0
 19 46  1  0  0  0  0
 20 47  1  0  0  0  0
 20 48  1  0  0  0  0
 21 49  1  0  0  0  0
 22 50  1  0  0  0  0
 22 51  1  0  0  0  0
 22 52  1  0  0  0  0
 26 53  1  0  0  0  0
 27 54  1  0  0  0  0
M  END
> <POSIT::Probability>
0.18

> <POSIT::Method>
HYBRID

> <ReceptorTitle>
UCSF-P4528-REFINED_LIGAND-BOUND-STATE_A__DU__LA1_A-201(A)

> <OMEGA_C>
7shBwjbG68Ge2HlAioE8wjb27MHMnF1ADa07whGuAsIgSdk+6mw8wgyC+sEgpSk+bHRHwnHd58H1
O8FAShk5wo296cHMdLZAf+NFwtn15cEtvupA2sBCwvaH6cEDb6hAkDw4wgj168GlLItAViA4ws5E
BcKgvdm+ymU+wuKR6MFxJMRA96o5wsG/9cFwOWO/mIU1wrugAsKQVbq/3b4ywhJE7cH66nZAX3g6
wjxK6sFkHZS/LbIowmlc6cEgxso+mEcowkeX68FwevI/nIUtwrkY48HA3QC+uzQrwvjI48GQkjNA
5EA0wrra4cH4x+Q/EP0ywk6u5sGg9tE+9Gc3wk9G18GgfDW/HTI2wg23+sGEgty/bkoywjYgBsJe
GAjAoMkywkzkCsL4K8a/JmtAwgxn5sFfMexAgkU2wiRgCsJwCwi/i+owwiZO5sGk3zZAth83wo7g
4sGYqwS/6iQwwk6R9MFnqotAtg0+wssD6MFwrvm/PhNFwoKU7MGC5kxAHMk7wjSy7sFSYhpALrk9
wu63BMLYgZ0/tyU/wpLl9cEQL0k/DotLwh0K6MEg9bVAbsw1wsry6MEc0cxAYS1IwoRU5MGUrQNB
kAElwk/25MFAe9M9Hl4owuEN8cGgUSS+m8QpwtKz88GEyQRAeg0kwtqp68HUowtAY+0swvhm2sGA
Cyk9iY0twjIV5ME8M52/7YApwosb5MF0QXNA0bsqwmSs28GsKRxAJ74zwkYm2cGU/OM/pHQ4wlVr
48Es8QFAmkwzwoYm78FAPt4+WiY6wois08EAaG08e3Izwk2z08FYPBS/3NA4wj5s1cFw49u/tC8+
wnxL5cHiZANBXik3wgyfDcIAaQU9

> <OMEGA_E>
u1sGwQ==

> <OMEGA_NBR>
    170972

$$$$
CACHE3HI_1714_65
  -OEChem-03092622573D

 54 58  0     1  0  0  0  0  0999 V2000
  -47.6069  -29.7709    3.5020 C   0  0  0  0  0  0  0  0  0  0  0  0
  -47.2074  -32.7318    0.4121 C   0  0  0  0  0  0  0  0  0  0  0  0
  -48.9477  -29.6600    3.8840 C   0  0  0  0  0  0  0  0  0  0  0  0
  -47.4135  -31.3730    0.1813 C   0  0  0  0  0  0  0  0  0  0  0  0
  -46.8426  -29.4054    5.7978 C   0  0  0  0  0  0  0  0  0  0  0  0
  -46.5655  -29.6450    4.4477 C   0  0  0  0  0  0  0  0  0  0  0  0
  -46.2746  -33.3381   -0.4190 C   0  0  0  0  0  0  0  0  0  0  0  0
  -49.1946  -29.4243    5.2171 C   0  0  0  0  0  0  0  0  0  0  0  0
  -48.1690  -29.3003    6.1497 C   0  0  0  0  0  0  0  0  0  0  0  0
  -46.6972  -30.7365   -0.8288 C   0  0  0  0  0  0  0  0  0  0  0  0
  -45.5989  -32.6377   -1.4062 C   0  0  0  0  0  0  0  0  0  0  0  0
  -50.1543  -29.0438    7.2606 C   0  0  0  0  0  0  0  0  0  0  0  0
  -45.1719  -29.7677    4.0060 C   0  0  0  0  0  0  0  0  0  0  0  0
  -46.9178  -29.3018   -1.0689 C   0  0  0  0  0  0  0  0  0  0  0  0
  -42.5402  -29.1370    0.6575 C   0  0  0  0  0  0  0  0  0  0  0  0
  -42.4874  -29.4533    2.1510 C   0  0  0  0  0  0  0  0  0  0  0  0
  -43.7423  -28.3650    0.1097 C   0  0  0  0  0  0  0  0  0  0  0  0
  -43.2738  -28.5171    3.0583 C   0  0  0  0  0  0  0  0  0  0  0  0
  -45.4998  -28.2947    1.9597 C   0  0  0  0  0  0  0  0  0  0  0  0
  -45.1185  -28.8547    0.5806 C   0  0  1  0  0  0  0  0  0  0  0  0
  -46.2201  -26.9226   -0.5303 C   0  0  0  0  0  0  0  0  0  0  0  0
  -45.7850  -31.3172   -1.6454 N   0  0  0  0  0  0  0  0  0  0  0  0
  -44.7477  -33.4775   -2.0674 N   0  0  0  0  0  0  0  0  0  0  0  0
  -44.8685  -34.6862   -1.5253 N   0  0  0  0  0  0  0  0  0  0  0  0
  -45.7802  -34.6019   -0.5400 N   0  0  0  0  0  0  0  0  0  0  0  0
  -50.4122  -29.2703    5.8789 N   0  0  0  0  0  0  0  0  0  0  0  0
  -48.7381  -29.0680    7.4017 N   0  0  0  0  0  0  0  0  0  0  0  0
  -44.6953  -28.8623    3.0465 N   0  0  0  0  0  0  0  0  0  0  0  0
  -46.1261  -28.3758   -0.3745 N   0  0  0  0  0  0  0  0  0  0  0  0
  -50.9798  -28.8653    8.1446 O   0  0  0  0  0  0  0  0  0  0  0  0
  -44.5221  -30.6802    4.5136 O   0  0  0  0  0  0  0  0  0  0  0  0
  -47.7886  -29.0147   -1.8889 O   0  0  0  0  0  0  0  0  0  0  0  0
  -47.3707  -29.9576    2.4565 H   0  0  0  0  0  0  0  0  0  0  0  0
  -47.7386  -33.2729    1.1844 H   0  0  0  0  0  0  0  0  0  0  0  0
  -49.7465  -29.7564    3.1585 H   0  0  0  0  0  0  0  0  0  0  0  0
  -48.1292  -30.8271    0.7894 H   0  0  0  0  0  0  0  0  0  0  0  0
  -46.0519  -29.3072    6.5331 H   0  0  0  0  0  0  0  0  0  0  0  0
  -41.6191  -28.5610    0.4149 H   0  0  0  0  0  0  0  0  0  0  0  0
  -42.4165  -30.0817    0.0800 H   0  0  0  0  0  0  0  0  0  0  0  0
  -42.8445  -30.4790    2.2908 H   0  0  0  0  0  0  0  0  0  0  0  0
  -41.4425  -29.4486    2.4789 H   0  0  0  0  0  0  0  0  0  0  0  0
  -43.6232  -27.2802    0.3103 H   0  0  0  0  0  0  0  0  0  0  0  0
  -43.7053  -28.4591   -0.9949 H   0  0  0  0  0  0  0  0  0  0  0  0
  -42.8858  -28.5752    4.0677 H   0  0  0  0  0  0  0  0  0  0  0  0
  -43.1635  -27.4916    2.7236 H   0  0  0  0  0  0  0  0  0  0  0  0
  -45.3952  -27.2044    1.9864 H   0  0  0  0  0  0  0  0  0  0  0  0
  -46.5545  -28.5179    2.1567 H   0  0  0  0  0  0  0  0  0  0  0  0
  -45.1745  -29.9150    0.5743 H   0  0  0  0  0  0  0  0  0  0  0  0
  -46.9426  -26.5059    0.1774 H   0  0  0  0  0  0  0  0  0  0  0  0
  -45.2458  -26.4595   -0.3508 H   0  0  0  0  0  0  0  0  0  0  0  0
  -46.5387  -26.6716   -1.5459 H   0  0  0  0  0  0  0  0  0  0  0  0
  -46.0068  -35.4323   -0.0061 H   0  0  0  0  0  0  0  0  0  0  0  0
  -51.3224  -29.3144    5.4374 H   0  0  0  0  0  0  0  0  0  0  0  0
  -48.2178  -28.9397    8.2608 H   0  0  0  0  0  0  0  0  0  0  0  0
  1  3  2  0  0  0  0
  1  6  1  0  0  0  0
  2  4  2  0  0  0  0
  2  7  1  0  0  0  0
  3  8  1  0  0  0  0
  4 10  1  0  0  0  0
  5  6  2  0  0  0  0
  5  9  1  0  0  0  0
  6 13  1  0  0  0  0
  7 11  2  0  0  0  0
  7 25  1  0  0  0  0
  8  9  2  0  0  0  0
  8 26  1  0  0  0  0
  9 27  1  0  0  0  0
 10 14  1  0  0  0  0
 10 22  2  0  0  0  0
 11 22  1  0  0  0  0
 11 23  1  0  0  0  0
 12 26  1  0  0  0  0
 12 27  1  0  0  0  0
 12 30  2  0  0  0  0
 13 28  1  0  0  0  0
 13 31  2  0  0  0  0
 14 29  1  0  0  0  0
 14 32  2  0  0  0  0
 15 16  1  0  0  0  0
 15 17  1  0  0  0  0
 16 18  1  0  0  0  0
 17 20  1  0  0  0  0
 18 28  1  0  0  0  0
 19 20  1  0  0  0  0
 19 28  1  0  0  0  0
 20 29  1  0  0  0  0
 21 29  1  0  0  0  0
 23 24  2  0  0  0  0
 24 25  1  0  0  0  0
  1 33  1  0  0  0  0
  2 34  1  0  0  0  0
  3 35  1  0  0  0  0
  4 36  1  0  0  0  0
  5 37  1  0  0  0  0
 15 38  1  0  0  0  0
 15 39  1  0  0  0  0
 16 40  1  0  0  0  0
 16 41  1  0  0  0  0
 17 42  1  0  0  0  0
 17 43  1  0  0  0  0
 18 44  1  0  0  0  0
 18 45  1  0  0  0  0
 19 46  1  0  0  0  0
 19 47  1  0  0  0  0
 20 48  1  0  0  0  0
 21 49  1  0  0  0  0
 21 50  1  0  0  0  0
 21 51  1  0  0  0  0
 25 52  1  0  0  0  0
 26 53  1  0  0  0  0
 27 54  1  0  0  0  0
M  END
> <POSIT::Probability>
0.14

> <POSIT::Method>
HYBRID

> <ReceptorTitle>
UCSF-P4528-REFINED_LIGAND-BOUND-STATE_A__DU__LA1_A-201(A)

> <OMEGA_C>
d20+wsEq7sGBIWBAV9Q8wlrtAsIg/NI+ecpDwqZH7cGGk3hAcac9wt37+sFgrzk+0147wlQ+68Fz
h7lAHkM6wgYp7cGgU45AOBk5wjZaBcIgh9a+QMdEwgpl68Ey8qZACa1AwvVm6sGcysRA+Mk6wmPk
9cEQLFS/OWU2wv6MAsK8/LO/Bp5IwrZZ6MEnV+hABLA0wjok7sFiMYBA1Ks7wihq6sGA0oi/LCkq
wqcY6cGkUSg/JvMpwmCg68GwqglAFfguwoTr4sFAl+A9ahgtwhUj5MHsu0NA1f81wodb4sHo1vo/
Y3k0wmjW5sEsohQ/Z+E4wo1h18Hwwwe/1iM3wo2J+sG8ndK/nf0ywvzoBcIYUQTAWXkzwrG+CsII
PcO/6B43wlFoCsIgPAq/IqZJwo4p6sEbILxAxfNCwjeL6MHR2uxA/8cywuvl5sE7+kJAHIE4wpgB
48GAu7++R+tLwibs5sFkUAJBnhYywgBx9cFYb5BAfSc/wgoe6MEgx/G/nns9wh6p78EVNx1AXvQ+
wnUXBcL4mpc/YPxGwiAN7sGiJEpAWYRAwgCe9sFYFUo/HDU4wiR16sF3D9FA/nkmwgB95MHYa9Q+
hqopwlun8MGA06M9x2ArwgDV88EJnBJAGsUlwr6W68E/ph5AMH4uwuw92sFg5Z4+RNIuwjis48HQ
sX6/BYsrwhKa5MH7KoJAZacswuHu28FAUC5AqZQ1wrGi2cH8Q/4/zDc6wrQk5MHdBwpAvLI0wvJR
78EwBBM/L8U7whUM1MFgnjU+sfs0whKt08FQmrO+mic6woBf1cHI3sW/6wY4wre6DcIA/Me7GUpN
wuSD6sGV/61A/95AwmyE58E5LARB

> <OMEGA_E>
8icAwQ==

> <OMEGA_NBR>
    172561

$$$$
CACHE3HI_1714_71
  -OEChem-03092622573D

 59 64  0     1  0  0  0  0  0999 V2000
  -49.0032  -28.4067    6.3864 C   0  0  0  0  0  0  0  0  0  0  0  0
  -47.9236  -28.0584    7.2235 C   0  0  0  0  0  0  0  0  0  0  0  0
  -48.7687  -29.1117    5.1890 C   0  0  0  0  0  0  0  0  0  0  0  0
  -44.9755  -34.8328   -0.5523 C   0  0  0  0  0  0  0  0  0  0  0  0
  -44.2355  -34.6363   -1.7346 C   0  0  0  0  0  0  0  0  0  0  0  0
  -45.5751  -33.7353    0.0956 C   0  0  0  0  0  0  0  0  0  0  0  0
  -46.6063  -28.3978    6.8556 C   0  0  0  0  0  0  0  0  0  0  0  0
  -47.4550  -29.4681    4.8283 C   0  0  0  0  0  0  0  0  0  0  0  0
  -44.6545  -32.2370   -1.6021 C   0  0  0  0  0  0  0  0  0  0  0  0
  -44.0734  -33.3361   -2.2633 C   0  0  0  0  0  0  0  0  0  0  0  0
  -45.4139  -32.4364   -0.4294 C   0  0  0  0  0  0  0  0  0  0  0  0
  -46.3630  -29.0863    5.6473 C   0  0  0  0  0  0  0  0  0  0  0  0
  -43.3230  -33.1378   -3.5101 C   0  0  0  0  0  0  0  0  0  0  0  0
  -42.4476  -33.5616   -5.5224 C   0  0  0  0  0  0  0  0  0  0  0  0
  -46.0135  -31.2759    0.2428 C   0  0  0  0  0  0  0  0  0  0  0  0
  -42.5191  -27.4308    0.5064 C   0  0  0  0  0  0  0  0  0  0  0  0
  -43.8182  -26.9330    1.1543 C   0  0  0  0  0  0  0  0  0  0  0  0
  -42.0433  -28.5376    1.4556 C   0  0  0  0  0  0  0  0  0  0  0  0
  -45.5510  -28.8423    0.8258 C   0  0  0  0  0  0  0  0  0  0  0  0
  -43.7323  -30.3624    0.8464 C   0  0  0  0  0  0  0  0  0  0  0  0
  -44.9817  -28.0383    3.1908 C   0  0  0  0  0  0  0  0  0  0  0  0
  -43.3879  -29.7609    3.3252 C   0  0  0  0  0  0  0  0  0  0  0  0
  -44.4730  -28.2085    1.7491 C   0  0  2  0  0  0  0  0  0  0  0  0
  -43.3462  -29.2644    1.8560 C   0  0  1  0  0  0  0  0  0  0  0  0
  -44.9360  -29.4513    5.2664 C   0  0  0  0  0  0  0  0  0  0  0  0
  -42.7395  -32.0303   -3.9184 N   0  0  0  0  0  0  0  0  0  0  0  0
  -43.1358  -34.1154   -4.4765 N   0  0  0  0  0  0  0  0  0  0  0  0
  -42.1456  -32.2755   -5.1279 N   0  0  0  0  0  0  0  0  0  0  0  0
  -45.1871  -30.2588    0.7133 N   0  0  0  0  0  0  0  0  0  0  0  0
  -44.7355  -29.3697    3.7973 N   0  0  0  0  0  0  0  0  0  0  0  0
  -42.1693  -34.1039   -6.5841 O   0  0  0  0  0  0  0  0  0  0  0  0
  -47.2334  -31.1901    0.3307 O   0  0  0  0  0  0  0  0  0  0  0  0
  -50.0107  -28.1329    6.6629 H   0  0  0  0  0  0  0  0  0  0  0  0
  -48.1064  -27.5308    8.1480 H   0  0  0  0  0  0  0  0  0  0  0  0
  -49.5961  -29.3785    4.5482 H   0  0  0  0  0  0  0  0  0  0  0  0
  -45.0833  -35.8261   -0.1422 H   0  0  0  0  0  0  0  0  0  0  0  0
  -43.7908  -35.4818   -2.2383 H   0  0  0  0  0  0  0  0  0  0  0  0
  -46.1570  -33.8881    0.9925 H   0  0  0  0  0  0  0  0  0  0  0  0
  -45.7811  -28.1307    7.4992 H   0  0  0  0  0  0  0  0  0  0  0  0
  -47.2791  -30.0339    3.9253 H   0  0  0  0  0  0  0  0  0  0  0  0
  -44.5188  -31.2395   -1.9932 H   0  0  0  0  0  0  0  0  0  0  0  0
  -42.7107  -27.8320   -0.4998 H   0  0  0  0  0  0  0  0  0  0  0  0
  -41.7767  -26.6216    0.4432 H   0  0  0  0  0  0  0  0  0  0  0  0
  -43.6014  -26.2020    1.9471 H   0  0  0  0  0  0  0  0  0  0  0  0
  -44.4761  -26.4736    0.4019 H   0  0  0  0  0  0  0  0  0  0  0  0
  -41.3534  -29.2239    0.9428 H   0  0  0  0  0  0  0  0  0  0  0  0
  -41.5460  -28.1096    2.3385 H   0  0  0  0  0  0  0  0  0  0  0  0
  -46.5504  -28.7365    1.2729 H   0  0  0  0  0  0  0  0  0  0  0  0
  -45.5395  -28.3626   -0.1640 H   0  0  0  0  0  0  0  0  0  0  0  0
  -43.2418  -30.1870   -0.1224 H   0  0  0  0  0  0  0  0  0  0  0  0
  -43.4484  -31.3548    1.2268 H   0  0  0  0  0  0  0  0  0  0  0  0
  -44.4179  -27.2546    3.7179 H   0  0  0  0  0  0  0  0  0  0  0  0
  -46.0534  -27.7910    3.2042 H   0  0  0  0  0  0  0  0  0  0  0  0
  -43.2584  -30.8522    3.3730 H   0  0  0  0  0  0  0  0  0  0  0  0
  -42.6063  -29.2722    3.9254 H   0  0  0  0  0  0  0  0  0  0  0  0
  -44.2430  -28.7559    5.7624 H   0  0  0  0  0  0  0  0  0  0  0  0
  -44.7268  -30.4782    5.6007 H   0  0  0  0  0  0  0  0  0  0  0  0
  -43.4499  -35.0630   -4.4190 H   0  0  0  0  0  0  0  0  0  0  0  0
  -41.5840  -31.6269   -5.6417 H   0  0  0  0  0  0  0  0  0  0  0  0
  1  2  1  0  0  0  0
  1  3  2  0  0  0  0
  2  7  2  0  0  0  0
  3  8  1  0  0  0  0
  4  5  1  0  0  0  0
  4  6  2  0  0  0  0
  5 10  2  0  0  0  0
  6 11  1  0  0  0  0
  7 12  1  0  0  0  0
  8 12  2  0  0  0  0
  9 10  1  0  0  0  0
  9 11  2  0  0  0  0
 10 13  1  0  0  0  0
 11 15  1  0  0  0  0
 12 25  1  0  0  0  0
 13 26  2  0  0  0  0
 13 27  1  0  0  0  0
 14 27  1  0  0  0  0
 14 28  1  0  0  0  0
 14 31  2  0  0  0  0
 15 29  1  0  0  0  0
 15 32  2  0  0  0  0
 16 17  1  0  0  0  0
 16 18  1  0  0  0  0
 17 23  1  0  0  0  0
 18 24  1  0  0  0  0
 19 23  1  0  0  0  0
 19 29  1  0  0  0  0
 20 24  1  0  0  0  0
 20 29  1  0  0  0  0
 21 23  1  0  0  0  0
 21 30  1  0  0  0  0
 22 24  1  0  0  0  0
 22 30  1  0  0  0  0
 23 24  1  0  0  0  0
 25 30  1  0  0  0  0
 26 28  1  0  0  0  0
  1 33  1  0  0  0  0
  2 34  1  0  0  0  0
  3 35  1  0  0  0  0
  4 36  1  0  0  0  0
  5 37  1  0  0  0  0
  6 38  1  0  0  0  0
  7 39  1  0  0  0  0
  8 40  1  0  0  0  0
  9 41  1  0  0  0  0
 16 42  1  0  0  0  0
 16 43  1  0  0  0  0
 17 44  1  0  0  0  0
 17 45  1  0  0  0  0
 18 46  1  0  0  0  0
 18 47  1  0  0  0  0
 19 48  1  0  0  0  0
 19 49  1  0  0  0  0
 20 50  1  0  0  0  0
 20 51  1  0  0  0  0
 21 52  1  0  0  0  0
 21 53  1  0  0  0  0
 22 54  1  0  0  0  0
 22 55  1  0  0  0  0
 25 56  1  0  0  0  0
 25 57  1  0  0  0  0
 27 58  1  0  0  0  0
 28 59  1  0  0  0  0
M  END
> <POSIT::Probability>
0.25

> <POSIT::Method>
SHAPEFIT

> <ReceptorTitle>
UCSF-P4528-REFINED_LIGAND-BOUND-STATE_A__DU__LA1_A-201(A)

> <OMEGA_C>
TwNEwtRA48EOXcxAyrE/wpR34MFFJ+dAIhNDwqzk6ME1DKZA6+Yzws5UC8JZZg2/MPEwwp6LCsKo
Bt6/20w2wu3wBsJZvMM9zWw6wrYu48EjYdtA7tE9wsW+68FrgZpAOJ4ywq3yAMJaEc2/NEswwjNY
BcJs2RDA06c1wtm+AcJS1du+sHM5wrmw6MEIt7RAvUotwhyNBMJ9pWDAZMopwgw/BsLXt7DAyg04
wvI0+sF0mHg+kRMqwlNy28HqoQE/4EUvwuF218GGv5M/XywowvNM5MGEUbo/LzQ2wvi85sGDaFM/
5e0uwkrm8sGerlg/N+0zwolO4MHtNUxAQo0twkkW7sFQ0FRAWOQxwvaq4cGM4d8/imItwnsd6sHI
ku0/gb4zwlec68EshqhAOfUqwgEfAMJkx3rACosswiV2CMLYP4/AJJUowhwaAcIcGKTAjb80wggS
8sFqmjY/JvEywjb16sEcB3NAY60owltqCMKtsNLADO88wmWF+cHmUak+9ApIwjsQ4cGmNtVA+GxA
whg/3MFEXgJBamJGwhIH68H6ipFAS1U0wuhND8LFnhG+0CkvwmjtDcL9QA/AuKA4wnWNB8LOEn4/
5R83wrAL4cG++e9AyR09woBF8MG/OHtAOxMywnfq+cEWIf+/x9cqwuOn3sHD4/++TRsnwhz51MH4
7uI+32cuwsqd0cEdPPk/k+cxwvrJ08Fzxc0+32klwozK6cHGXXE/Ii8mwo3g4MGvqhVAnTM6wk/k
5cGV76I/aig2wqzm4sHR+ie+jvcswuV+8cG5nvq9LMstwpnW+sFVBp0/5qsxwmYJ2sF78m1AsDY4
wgJU3sFREU1AnwgtwkbR9sHO3ldA1GwqwpEt6sHmOXtA2/gwwgQM5sGoZbhAQugywl7T88HdOLNA
vcwtwoNADMJKaI3AEVYmwtsD/cGGiLTA

> <OMEGA_E>
lgKUPw==

> <OMEGA_NBR>
    174270

$$$$
CACHE3HI_1714_72
  -OEChem-03092622573D

 48 52  0     1  0  0  0  0  0999 V2000
  -48.1160  -31.5030    2.4081 C   0  0  0  0  0  0  0  0  0  0  0  0
  -47.6676  -30.4934    3.2598 C   0  0  0  0  0  0  0  0  0  0  0  0
  -47.5399  -31.6583    1.1474 C   0  0  0  0  0  0  0  0  0  0  0  0
  -43.5193  -24.4017   -1.7087 C   0  0  0  0  0  0  0  0  0  0  0  0
  -44.3868  -23.4021   -2.1491 C   0  0  0  0  0  0  0  0  0  0  0  0
  -44.0060  -25.4561   -0.9362 C   0  0  0  0  0  0  0  0  0  0  0  0
  -46.6432  -29.6394    2.8510 C   0  0  0  0  0  0  0  0  0  0  0  0
  -46.5154  -30.8042    0.7386 C   0  0  0  0  0  0  0  0  0  0  0  0
  -46.2273  -24.5114   -1.0448 C   0  0  0  0  0  0  0  0  0  0  0  0
  -45.7406  -23.4569   -1.8173 C   0  0  0  0  0  0  0  0  0  0  0  0
  -45.3598  -25.5109   -0.6044 C   0  0  0  0  0  0  0  0  0  0  0  0
  -46.0670  -29.7946    1.5902 C   0  0  0  0  0  0  0  0  0  0  0  0
  -41.6685  -30.0697    0.8636 C   0  0  0  0  0  0  0  0  0  0  0  0
  -42.3606  -31.1586    0.5194 C   0  0  0  0  0  0  0  0  0  0  0  0
  -46.6441  -22.4140   -2.2769 C   0  0  0  0  0  0  0  0  0  0  0  0
  -47.7301  -20.5288   -2.1950 C   0  0  0  0  0  0  0  0  0  0  0  0
  -45.8732  -26.6257    0.2125 C   0  0  0  0  0  0  0  0  0  0  0  0
  -42.3724  -28.8091    0.4897 C   0  0  0  0  0  0  0  0  0  0  0  0
  -43.6523  -30.8226   -0.1490 C   0  0  0  0  0  0  0  0  0  0  0  0
  -44.5167  -28.5030   -0.9726 C   0  0  0  0  0  0  0  0  0  0  0  0
  -44.8989  -28.8209    1.1243 C   0  0  1  0  0  0  0  0  0  0  0  0
  -43.7864  -29.3162    0.1249 C   0  0  0  0  0  0  0  0  0  0  0  0
  -47.3104  -22.4158   -3.3904 N   0  0  0  0  0  0  0  0  0  0  0  0
  -46.8396  -21.3169   -1.5012 N   0  0  0  0  0  0  0  0  0  0  0  0
  -48.0045  -21.2407   -3.3673 N   0  0  0  0  0  0  0  0  0  0  0  0
  -45.2278  -27.8306    0.0966 N   0  0  0  0  0  0  0  0  0  0  0  0
  -48.1850  -19.4444   -1.8645 O   0  0  0  0  0  0  0  0  0  0  0  0
  -46.8301  -26.4155    0.9534 O   0  0  0  0  0  0  0  0  0  0  0  0
  -48.9134  -32.1680    2.7268 H   0  0  0  0  0  0  0  0  0  0  0  0
  -48.1159  -30.3724    4.2417 H   0  0  0  0  0  0  0  0  0  0  0  0
  -47.8891  -32.4443    0.4842 H   0  0  0  0  0  0  0  0  0  0  0  0
  -42.4656  -24.3590   -1.9677 H   0  0  0  0  0  0  0  0  0  0  0  0
  -43.9968  -22.5849   -2.7506 H   0  0  0  0  0  0  0  0  0  0  0  0
  -43.3214  -26.2297   -0.5979 H   0  0  0  0  0  0  0  0  0  0  0  0
  -46.2995  -28.8551    3.5200 H   0  0  0  0  0  0  0  0  0  0  0  0
  -46.0714  -30.9323   -0.2449 H   0  0  0  0  0  0  0  0  0  0  0  0
  -47.2829  -24.5536   -0.7855 H   0  0  0  0  0  0  0  0  0  0  0  0
  -40.7154  -30.0944    1.3740 H   0  0  0  0  0  0  0  0  0  0  0  0
  -42.0380  -32.1706    0.7203 H   0  0  0  0  0  0  0  0  0  0  0  0
  -42.3939  -28.1326    1.3511 H   0  0  0  0  0  0  0  0  0  0  0  0
  -41.8786  -28.3036   -0.3458 H   0  0  0  0  0  0  0  0  0  0  0  0
  -43.6234  -31.0570   -1.2180 H   0  0  0  0  0  0  0  0  0  0  0  0
  -44.4579  -31.3995    0.3192 H   0  0  0  0  0  0  0  0  0  0  0  0
  -43.9028  -27.8323   -1.5806 H   0  0  0  0  0  0  0  0  0  0  0  0
  -45.1985  -29.0600   -1.6237 H   0  0  0  0  0  0  0  0  0  0  0  0
  -44.4613  -28.3235    2.0078 H   0  0  0  0  0  0  0  0  0  0  0  0
  -46.4248  -21.1087   -0.6005 H   0  0  0  0  0  0  0  0  0  0  0  0
  -48.6312  -20.9277   -4.0977 H   0  0  0  0  0  0  0  0  0  0  0  0
  1  2  1  0  0  0  0
  1  3  2  0  0  0  0
  2  7  2  0  0  0  0
  3  8  1  0  0  0  0
  4  5  1  0  0  0  0
  4  6  2  0  0  0  0
  5 10  2  0  0  0  0
  6 11  1  0  0  0  0
  7 12  1  0  0  0  0
  8 12  2  0  0  0  0
  9 10  1  0  0  0  0
  9 11  2  0  0  0  0
 10 15  1  0  0  0  0
 11 17  1  0  0  0  0
 12 21  1  0  0  0  0
 13 14  2  0  0  0  0
 13 18  1  0  0  0  0
 14 19  1  0  0  0  0
 15 23  2  0  0  0  0
 15 24  1  0  0  0  0
 16 24  1  0  0  0  0
 16 25  1  0  0  0  0
 16 27  2  0  0  0  0
 17 26  1  0  0  0  0
 17 28  2  0  0  0  0
 18 22  1  0  0  0  0
 19 22  1  0  0  0  0
 20 22  1  0  0  0  0
 20 26  1  0  0  0  0
 21 22  1  0  0  0  0
 21 26  1  0  0  0  0
 23 25  1  0  0  0  0
  1 29  1  0  0  0  0
  2 30  1  0  0  0  0
  3 31  1  0  0  0  0
  4 32  1  0  0  0  0
  5 33  1  0  0  0  0
  6 34  1  0  0  0  0
  7 35  1  0  0  0  0
  8 36  1  0  0  0  0
  9 37  1  0  0  0  0
 13 38  1  0  0  0  0
 14 39  1  0  0  0  0
 18 40  1  0  0  0  0
 18 41  1  0  0  0  0
 19 42  1  0  0  0  0
 19 43  1  0  0  0  0
 20 44  1  0  0  0  0
 20 45  1  0  0  0  0
 21 46  1  0  0  0  0
 24 47  1  0  0  0  0
 25 48  1  0  0  0  0
M  END
> <POSIT::Probability>
0.02

> <POSIT::Method>
FRED

> <ReceptorTitle>
UCSF-P4528-REFINED_LIGAND-BOUND-STATE_A__DU__LA1_A-201(A)

> <OMEGA_C>
1HZAwj4G/MHwHhpAq6s+wnjy88HAn1BA1Sg+wiRE/cEg35I/vhMuwrU2w8GYt9q/Cowxwnw3u8Ew
iwnAHwYwwhamy8GAqW+/oZI6wmQd7cEYdjZAyg86whFv9sGwFz0/xOg4wkQXxMGguoW/YvY2wsen
u8GInui/d3A1wmAWzMHAuRq/oUQ4wllb7sGoi8s/l6wmwtKO8MFgEl0/O3EpwtBE+cFA9AQ/k5M6
wtRPs8HIuBHArOs+wgk7pMEcewzAHn43wmMB1cFAllk+S30pwiJ55sGAuvo++ZsuwrCU9sGAlRi+
IBEywjgG5MFg+3i/b5gzwhyR5sHg6I8/RiUvwpuH6sEAxv892j09wqVTs8E0/FjAs1s7wgqJqsH4
JsC/owRAwgLtqcGgglfARek0wgWl3sEA78U9Z71Awi6Om8FAqO6/C1I7wuxS08HQD3Q/SqdDwhOs
AMJsgy5AonZAwsD68sHYu4dAa44/wuvGAcJg5vc+y9wpwjPfwsEg3Pu/r/wvwvSttMGICTDAJUkt
woDW0cGQERm/rzI5wkDX5sEIR2FAEkk4wmR198EAyXq+uSE9wr9txMEAFkm/ktwiwl7B8MGo3a8/
9CYowquuAMKAZTg/U5MpwpIP4cHo8aw/qIMnws1t4sFgCbG+U34uwrh0+MEQ6Ju/4tQxwj4y+8Gg
aqM+f5wvwp2o3sHoT8q/O8s0wsl66MGA1M+/atgxwpqW4sEcfwBACrM5wrjeqMEAuhm/ZoZCwgFs
p8HEIIPA

> <OMEGA_E>
dC0xwQ==

> <OMEGA_NBR>
    175733

$$$$
CACHE3HI_1715_17
  -OEChem-03092622573D

 57 61  0     1  0  0  0  0  0999 V2000
  -51.2484  -30.9998    4.2148 C   0  0  0  0  0  0  0  0  0  0  0  0
  -51.0332  -30.1048    5.2628 C   0  0  0  0  0  0  0  0  0  0  0  0
  -50.2210  -31.2771    3.3131 C   0  0  0  0  0  0  0  0  0  0  0  0
  -45.2446  -22.3719   -2.5884 C   0  0  0  0  0  0  0  0  0  0  0  0
  -44.4010  -23.3506   -2.0628 C   0  0  0  0  0  0  0  0  0  0  0  0
  -49.7909  -29.4875    5.4094 C   0  0  0  0  0  0  0  0  0  0  0  0
  -48.9787  -30.6597    3.4597 C   0  0  0  0  0  0  0  0  0  0  0  0
  -46.6221  -22.4577   -2.3867 C   0  0  0  0  0  0  0  0  0  0  0  0
  -46.3121  -24.5004   -1.1338 C   0  0  0  0  0  0  0  0  0  0  0  0
  -45.7406  -28.1904    5.4827 C   0  0  0  0  0  0  0  0  0  0  0  0
  -42.7009  -25.4307   -0.9364 C   0  0  0  0  0  0  0  0  0  0  0  0
  -44.9346  -24.4146   -1.3355 C   0  0  0  0  0  0  0  0  0  0  0  0
  -48.7634  -29.7648    4.5077 C   0  0  0  0  0  0  0  0  0  0  0  0
  -47.1556  -23.5218   -1.6593 C   0  0  0  0  0  0  0  0  0  0  0  0
  -44.0692  -25.4175   -0.7973 C   0  0  0  0  0  0  0  0  0  0  0  0
  -45.6801  -28.3170    4.0819 C   0  0  0  0  0  0  0  0  0  0  0  0
  -46.9523  -28.7400    5.8244 C   0  0  0  0  0  0  0  0  0  0  0  0
  -43.4100  -27.1620    0.2293 C   0  0  0  0  0  0  0  0  0  0  0  0
  -44.5925  -27.8890    3.1920 C   0  0  0  0  0  0  0  0  0  0  0  0
  -44.8925  -30.1153    0.2625 C   0  0  0  0  0  0  0  0  0  0  0  0
  -43.4304  -29.6959    0.1429 C   0  0  0  0  0  0  0  0  0  0  0  0
  -45.2553  -29.7367    1.6875 C   0  0  0  0  0  0  0  0  0  0  0  0
  -43.3176  -28.4471    1.0286 C   0  0  2  0  0  0  0  0  0  0  0  0
  -47.5936  -28.9042    7.1438 C   0  0  0  0  0  0  0  0  0  0  0  0
  -49.3041  -22.5707   -2.0290 C   0  0  0  0  0  0  0  0  0  0  0  0
  -44.5042  -26.4972   -0.0709 N   0  0  0  0  0  0  0  0  0  0  0  0
  -46.7663  -28.9011    3.5694 N   0  0  0  0  0  0  0  0  0  0  0  0
  -42.2931  -26.5542   -0.2736 N   0  0  0  0  0  0  0  0  0  0  0  0
  -47.5214  -29.1466    4.6536 N   0  0  0  0  0  0  0  0  0  0  0  0
  -44.3947  -28.6107    2.0208 N   0  0  0  0  0  0  0  0  0  0  0  0
  -43.9189  -26.9269    3.5557 O   0  0  0  0  0  0  0  0  0  0  0  0
  -48.5001  -23.6050   -1.4633 O   0  0  0  0  0  0  0  0  0  0  0  0
  -52.2154  -31.4812    4.1014 H   0  0  0  0  0  0  0  0  0  0  0  0
  -51.8318  -29.8897    5.9668 H   0  0  0  0  0  0  0  0  0  0  0  0
  -50.3869  -31.9744    2.4973 H   0  0  0  0  0  0  0  0  0  0  0  0
  -44.8292  -21.5439   -3.1554 H   0  0  0  0  0  0  0  0  0  0  0  0
  -43.3291  -23.2699   -2.2292 H   0  0  0  0  0  0  0  0  0  0  0  0
  -49.6368  -28.7932    6.2319 H   0  0  0  0  0  0  0  0  0  0  0  0
  -48.1868  -30.8852    2.7494 H   0  0  0  0  0  0  0  0  0  0  0  0
  -47.2744  -21.6931   -2.7989 H   0  0  0  0  0  0  0  0  0  0  0  0
  -46.7375  -25.3270   -0.5688 H   0  0  0  0  0  0  0  0  0  0  0  0
  -45.0088  -27.7609    6.1522 H   0  0  0  0  0  0  0  0  0  0  0  0
  -41.9990  -24.7711   -1.4271 H   0  0  0  0  0  0  0  0  0  0  0  0
  -45.5053  -29.5461   -0.4463 H   0  0  0  0  0  0  0  0  0  0  0  0
  -45.0365  -31.1808    0.0625 H   0  0  0  0  0  0  0  0  0  0  0  0
  -42.7967  -30.4913    0.5548 H   0  0  0  0  0  0  0  0  0  0  0  0
  -43.1364  -29.5318   -0.8989 H   0  0  0  0  0  0  0  0  0  0  0  0
  -46.3087  -29.4651    1.8046 H   0  0  0  0  0  0  0  0  0  0  0  0
  -45.0248  -30.5488    2.3863 H   0  0  0  0  0  0  0  0  0  0  0  0
  -42.3214  -28.4503    1.5613 H   0  0  0  0  0  0  0  0  0  0  0  0
  -48.2177  -28.0345    7.4121 H   0  0  0  0  0  0  0  0  0  0  0  0
  -46.8517  -29.0088    7.9541 H   0  0  0  0  0  0  0  0  0  0  0  0
  -48.2388  -29.7978    7.1633 H   0  0  0  0  0  0  0  0  0  0  0  0
  -50.3561  -22.7580   -1.7985 H   0  0  0  0  0  0  0  0  0  0  0  0
  -49.0044  -21.6118   -1.5991 H   0  0  0  0  0  0  0  0  0  0  0  0
  -49.1564  -22.5440   -3.1111 H   0  0  0  0  0  0  0  0  0  0  0  0
  -41.3390  -26.8750   -0.1744 H   0  0  0  0  0  0  0  0  0  0  0  0
  1  2  1  0  0  0  0
  1  3  2  0  0  0  0
  2  6  2  0  0  0  0
  3  7  1  0  0  0  0
  4  5  2  0  0  0  0
  4  8  1  0  0  0  0
  5 12  1  0  0  0  0
  6 13  1  0  0  0  0
  7 13  2  0  0  0  0
  8 14  2  0  0  0  0
  9 12  2  0  0  0  0
  9 14  1  0  0  0  0
 10 16  1  0  0  0  0
 10 17  2  0  0  0  0
 11 15  2  0  0  0  0
 11 28  1  0  0  0  0
 12 15  1  0  0  0  0
 13 29  1  0  0  0  0
 14 32  1  0  0  0  0
 15 26  1  0  0  0  0
 16 19  1  0  0  0  0
 16 27  2  0  0  0  0
 17 24  1  0  0  0  0
 17 29  1  0  0  0  0
 18 23  1  0  0  0  0
 18 26  2  0  0  0  0
 18 28  1  0  0  0  0
 19 30  1  0  0  0  0
 19 31  2  0  0  0  0
 20 21  1  0  0  0  0
 20 22  1  0  0  0  0
 21 23  1  0  0  0  0
 22 30  1  0  0  0  0
 23 30  1  0  0  0  0
 25 32  1  0  0  0  0
 27 29  1  0  0  0  0
  1 33  1  0  0  0  0
  2 34  1  0  0  0  0
  3 35  1  0  0  0  0
  4 36  1  0  0  0  0
  5 37  1  0  0  0  0
  6 38  1  0  0  0  0
  7 39  1  0  0  0  0
  8 40  1  0  0  0  0
  9 41  1  0  0  0  0
 10 42  1  0  0  0  0
 11 43  1  0  0  0  0
 20 44  1  0  0  0  0
 20 45  1  0  0  0  0
 21 46  1  0  0  0  0
 21 47  1  0  0  0  0
 22 48  1  0  0  0  0
 22 49  1  0  0  0  0
 23 50  1  0  0  0  0
 24 51  1  0  0  0  0
 24 52  1  0  0  0  0
 24 53  1  0  0  0  0
 25 54  1  0  0  0  0
 25 55  1  0  0  0  0
 25 56  1  0  0  0  0
 28 57  1  0  0  0  0
M  END
> <POSIT::Probability>
0.24

> <POSIT::Method>
FRED

> <ReceptorTitle>
UCSF-P4528-REFINED_LIGAND-BOUND-STATE_A__DU__LA1_A-201(A)

> <OMEGA_C>
X/5MwqD/98F+34ZAACJMwrbW8MEgaahASOJIwnI3+sFtClRAevo0wqP5ssHQqCXAnpoxwvDNusF6
BQTA2ylHwlrm68EDGq1AJepDwhZH9cE2bF1A/Hw6wmyps8GuvxjAlj85wuQAxMHgHpG/VvY2wuCF
4cGEcq9Ars0qwixyy8Fwtm+/BL0zwiRRw8Hk8Kq/vw1Dwjoe7sFWP5BAYZ88wp8svMFQZdS/4EYw
whdXy8F4HEy/crg2wiKJ4sFAn4JAHs87wn7r5cGqYbpA4qMtwrpL2cHA1mo+tl4ywqsc38EuSUxA
65Ezwhns8MFAZoY+trgtwimR7cEASRI+YQU1wq/k7cFoANg/QEUtwq6T48HGqoM/418+ws8758EL
muRAYjdFwrSQtMG42gHARAQywkL608HAQJG9vhA7wnA158FdcGRAHywpwvhu1MGAG4y+7xU+wjIs
6cH36ZRANJQxwsHi5MHoVAFAAK0vwlBq18EakGNAEABCwgLXvMGkTLu/kNxQwnDZ+8FWPoNAvlNP
wi4e78ES8L5AI4xJwqvL/8EF0x9AGVEzwthZrMFo8UnAA1EtwrAousGgqw7AFoxGwoxY5sEUbMdA
VL9AwuwU98GB9i9A8hg9wmiLrcHIITPAKfM6wrKdysFwmxG/+gg0wlwW3sHi3sRABf8nwjArxsFQ
rLa/cwU2wnRe7MEwg+S+XiU0wlFy+cEA1389zC8rwiTu88EECQ4/uIsswidB7MGoH2a/Ijw5wm+4
68FM/uY/YBk0wtpj9ME2uRhAHEkpwkSa48FA2cc/8d5AwsBG4MESMO1AHGg7whIS6MFXiP5AjfRA
wv5h7sFhOeVAm2xJwmUQtsGYNua/dgREwhDlrMFwsMy/MaBEwgRatMF+G0fAJ1slwhYA18FAmjK+

> <OMEGA_E>
huwjwQ==

> <OMEGA_NBR>
    177373

$$$$
CACHE3HI_1715_27
  -OEChem-03092622573D

 54 59  0     1  0  0  0  0  0999 V2000
  -48.4450  -21.3878   -1.9717 C   0  0  0  0  0  0  0  0  0  0  0  0
  -48.8283  -22.3049   -0.9931 C   0  0  0  0  0  0  0  0  0  0  0  0
  -47.2030  -21.5113   -2.5943 C   0  0  0  0  0  0  0  0  0  0  0  0
  -48.1128  -27.9625    6.2985 C   0  0  0  0  0  0  0  0  0  0  0  0
  -47.9699  -23.3454   -0.6373 C   0  0  0  0  0  0  0  0  0  0  0  0
  -46.3447  -22.5518   -2.2385 C   0  0  0  0  0  0  0  0  0  0  0  0
  -46.7710  -27.8622    5.9306 C   0  0  0  0  0  0  0  0  0  0  0  0
  -48.9580  -28.8393    5.6186 C   0  0  0  0  0  0  0  0  0  0  0  0
  -47.1197  -29.5155    4.2036 C   0  0  0  0  0  0  0  0  0  0  0  0
  -50.9897  -31.5295    3.3372 C   0  0  0  0  0  0  0  0  0  0  0  0
  -48.9696  -31.3030    2.8629 C   0  0  0  0  0  0  0  0  0  0  0  0
  -46.7279  -23.4689   -1.2599 C   0  0  0  0  0  0  0  0  0  0  0  0
  -46.2745  -28.6386    4.8835 C   0  0  0  0  0  0  0  0  0  0  0  0
  -48.4614  -29.6158    4.5714 C   0  0  0  0  0  0  0  0  0  0  0  0
  -45.8453  -24.5393   -0.8948 C   0  0  0  0  0  0  0  0  0  0  0  0
  -45.1264  -26.2235    0.0669 C   0  0  0  0  0  0  0  0  0  0  0  0
  -44.8601  -28.5319    4.4966 C   0  0  0  0  0  0  0  0  0  0  0  0
  -44.1651  -29.1352   -0.7078 C   0  0  0  0  0  0  0  0  0  0  0  0
  -42.8946  -28.6788    0.0116 C   0  0  0  0  0  0  0  0  0  0  0  0
  -45.3288  -28.7370    0.1949 C   0  0  0  0  0  0  0  0  0  0  0  0
  -43.3879  -28.5926    2.5084 C   0  0  0  0  0  0  0  0  0  0  0  0
  -45.4154  -27.3077    2.3305 C   0  0  0  0  0  0  0  0  0  0  0  0
  -43.3524  -27.8151    1.1887 C   0  0  2  0  0  0  0  0  0  0  0  0
  -44.8358  -27.4607    0.9127 C   0  0  2  0  0  0  0  0  0  0  0  0
  -50.0259  -31.9830    2.4824 N   0  0  0  0  0  0  0  0  0  0  0  0
  -50.5956  -30.6120    4.2225 N   0  0  0  0  0  0  0  0  0  0  0  0
  -46.1866  -25.4555    0.0571 N   0  0  0  0  0  0  0  0  0  0  0  0
  -44.6458  -24.7068   -1.4593 N   0  0  0  0  0  0  0  0  0  0  0  0
  -49.3001  -30.4848    3.8976 N   0  0  0  0  0  0  0  0  0  0  0  0
  -44.5791  -28.1333    3.1977 N   0  0  0  0  0  0  0  0  0  0  0  0
  -44.0185  -28.8145    5.3478 O   0  0  0  0  0  0  0  0  0  0  0  0
  -44.1579  -25.8471   -0.8086 O   0  0  0  0  0  0  0  0  0  0  0  0
  -49.1131  -20.5774   -2.2486 H   0  0  0  0  0  0  0  0  0  0  0  0
  -49.7944  -22.2082   -0.5066 H   0  0  0  0  0  0  0  0  0  0  0  0
  -46.9043  -20.7973   -3.3564 H   0  0  0  0  0  0  0  0  0  0  0  0
  -48.4997  -27.3581    7.1135 H   0  0  0  0  0  0  0  0  0  0  0  0
  -48.2834  -24.0519    0.1279 H   0  0  0  0  0  0  0  0  0  0  0  0
  -45.3798  -22.6345   -2.7336 H   0  0  0  0  0  0  0  0  0  0  0  0
  -46.1216  -27.1754    6.4671 H   0  0  0  0  0  0  0  0  0  0  0  0
  -50.0018  -28.9077    5.9150 H   0  0  0  0  0  0  0  0  0  0  0  0
  -46.7301  -30.1201    3.3868 H   0  0  0  0  0  0  0  0  0  0  0  0
  -52.0114  -31.8783    3.3135 H   0  0  0  0  0  0  0  0  0  0  0  0
  -47.9774  -31.3676    2.4371 H   0  0  0  0  0  0  0  0  0  0  0  0
  -44.2459  -28.6268   -1.6759 H   0  0  0  0  0  0  0  0  0  0  0  0
  -44.1576  -30.2119   -0.9047 H   0  0  0  0  0  0  0  0  0  0  0  0
  -42.2850  -29.5299    0.3334 H   0  0  0  0  0  0  0  0  0  0  0  0
  -42.2805  -28.0886   -0.6787 H   0  0  0  0  0  0  0  0  0  0  0  0
  -46.2452  -28.5732   -0.3827 H   0  0  0  0  0  0  0  0  0  0  0  0
  -45.5328  -29.5472    0.9059 H   0  0  0  0  0  0  0  0  0  0  0  0
  -43.4798  -29.6760    2.3696 H   0  0  0  0  0  0  0  0  0  0  0  0
  -42.5016  -28.4056    3.1236 H   0  0  0  0  0  0  0  0  0  0  0  0
  -45.3428  -26.2766    2.6978 H   0  0  0  0  0  0  0  0  0  0  0  0
  -46.4628  -27.6218    2.3951 H   0  0  0  0  0  0  0  0  0  0  0  0
  -42.7228  -26.9239    1.3022 H   0  0  0  0  0  0  0  0  0  0  0  0
  1  2  1  0  0  0  0
  1  3  2  0  0  0  0
  2  5  2  0  0  0  0
  3  6  1  0  0  0  0
  4  7  2  0  0  0  0
  4  8  1  0  0  0  0
  5 12  1  0  0  0  0
  6 12  2  0  0  0  0
  7 13  1  0  0  0  0
  8 14  2  0  0  0  0
  9 13  2  0  0  0  0
  9 14  1  0  0  0  0
 10 25  1  0  0  0  0
 10 26  2  0  0  0  0
 11 25  2  0  0  0  0
 11 29  1  0  0  0  0
 12 15  1  0  0  0  0
 13 17  1  0  0  0  0
 14 29  1  0  0  0  0
 15 27  1  0  0  0  0
 15 28  2  0  0  0  0
 16 24  1  0  0  0  0
 16 27  2  0  0  0  0
 16 32  1  0  0  0  0
 17 30  1  0  0  0  0
 17 31  2  0  0  0  0
 18 19  1  0  0  0  0
 18 20  1  0  0  0  0
 19 23  1  0  0  0  0
 20 24  1  0  0  0  0
 21 23  1  0  0  0  0
 21 30  1  0  0  0  0
 22 24  1  0  0  0  0
 22 30  1  0  0  0  0
 23 24  1  0  0  0  0
 26 29  1  0  0  0  0
 28 32  1  0  0  0  0
  1 33  1  0  0  0  0
  2 34  1  0  0  0  0
  3 35  1  0  0  0  0
  4 36  1  0  0  0  0
  5 37  1  0  0  0  0
  6 38  1  0  0  0  0
  7 39  1  0  0  0  0
  8 40  1  0  0  0  0
  9 41  1  0  0  0  0
 10 42  1  0  0  0  0
 11 43  1  0  0  0  0
 18 44  1  0  0  0  0
 18 45  1  0  0  0  0
 19 46  1  0  0  0  0
 19 47  1  0  0  0  0
 20 48  1  0  0  0  0
 20 49  1  0  0  0  0
 21 50  1  0  0  0  0
 21 51  1  0  0  0  0
 22 52  1  0  0  0  0
 22 53  1  0  0  0  0
 23 54  1  0  0  0  0
M  END
> <POSIT::Probability>
0.24

> <POSIT::Method>
FRED

> <ReceptorTitle>
UCSF-P4528-REFINED_LIGAND-BOUND-STATE_A__DU__LA1_A-201(A)

> <OMEGA_C>
r8dBwh4aq8FhYPy/JFBDwmVwssEGOn6/3M88wgsXrMFlCCbAenNAwjWz38ELjclANeE/wl/DusFm
JCO/7mA5wgZqtMH9Qg/AghU7wrbl3sHYx71A/NRDwvy25sGyy7NAmXo8wrIf7MHyg4ZAePVLwn08
/MFklVVA3+BDwops+sFkOjdAV+k6wkXAu8HZQ6G/Chk5wt4b5cFlRZxAhNhBwiTt7MFASZJAnWE3
wnRQxMGqEGW/ZoE0wrbJ0cFwD4k9vnAzwkVB5MEQ5I9AHakwwu8U6cHAMzW/D5QrwkZu5cGAHz48
sVA1wlfl5cEYj0c+Qo0twrS95MHqiCBAZ6k1wjx22sHOJhVA22gtwkKF3sG0JZg/4lczwoKv28HE
o2k/kRpIwiXd/8H13h5A2WFKwkvl9MGIHodACb84wvKky8GgxWk9R5UywoenxcHyyLq/VzNFwtvg
88EacnlAAlEywu8Q4cF9pkxA8BIwwi2E5sH2IKtAqqEwwsrGzsHEAk+/1HNEwpGepMH66A/AdC1H
wkyqscGYswG/DJ47wudgpsG3zlbArP9Bwlvd2sEIouNANyJBwkhqwMHABAM+7oQ1wogTtcEn8y7A
eHw4wh9n2cFM8s5A2AFIwudC58HlR71AnOs6wvz18MH2wFhAuAtQwsYG/8F9EFRA4Og/wszw+sEC
+htA1/swwqMD5cHvg9a/aKEwwuGx8cGOm2e/2iMpwkE97MFgsao+PB8pwoq14MHovC2/G/s4wvCV
5MHM8MO+jiE2wq9g7MGw6mc/Vestwm9o7cEgpxdArgEqwpk+48H46EdA/V41wnY20sGGqCxA59k5
woD53MGNSBlAKuQqwjxk18GCr6Y/

> <OMEGA_E>
ZgcQwQ==

> <OMEGA_NBR>
    178957

$$$$
CACHE3HI_1715_5
  -OEChem-03092622573D

 60 62  0     1  0  0  0  0  0999 V2000
  -45.2151  -28.1799    5.0441 C   0  0  0  0  0  0  0  0  0  0  0  0
  -44.3929  -28.4147    3.9420 C   0  0  0  0  0  0  0  0  0  0  0  0
  -55.0962  -26.9591    5.8804 C   0  0  0  0  0  0  0  0  0  0  0  0
  -54.5230  -27.7325    6.8898 C   0  0  0  0  0  0  0  0  0  0  0  0
  -46.5981  -28.3150    4.9231 C   0  0  0  0  0  0  0  0  0  0  0  0
  -46.3364  -28.9199    2.5984 C   0  0  0  0  0  0  0  0  0  0  0  0
  -53.4474  -27.7800    4.3167 C   0  0  0  0  0  0  0  0  0  0  0  0
  -44.9534  -28.7848    2.7194 C   0  0  0  0  0  0  0  0  0  0  0  0
  -54.5582  -26.9829    4.5937 C   0  0  0  0  0  0  0  0  0  0  0  0
  -53.4123  -28.5297    6.6127 C   0  0  0  0  0  0  0  0  0  0  0  0
  -47.1586  -28.6851    3.7004 C   0  0  0  0  0  0  0  0  0  0  0  0
  -52.8742  -28.5534    5.3261 C   0  0  0  0  0  0  0  0  0  0  0  0
  -44.0879  -29.0313    1.5610 C   0  0  0  0  0  0  0  0  0  0  0  0
  -49.5215  -28.6261    4.5667 C   0  0  0  0  0  0  0  0  0  0  0  0
  -40.7812  -30.2597    0.9533 C   0  0  0  0  0  0  0  0  0  0  0  0
  -40.5150  -31.1842    2.1425 C   0  0  0  0  0  0  0  0  0  0  0  0
  -42.2452  -30.3079    0.5278 C   0  0  0  0  0  0  0  0  0  0  0  0
  -42.9419  -30.9271    2.8225 C   0  0  0  0  0  0  0  0  0  0  0  0
  -41.4863  -30.9217    3.2937 C   0  0  2  0  0  0  0  0  0  0  0  0
  -55.1712  -26.1566    3.5140 C   0  0  0  0  0  0  0  0  0  0  0  0
  -53.7946  -30.4022    8.2558 C   0  0  0  0  0  0  0  0  0  0  0  0
  -52.2691  -28.4875    8.8594 C   0  0  0  0  0  0  0  0  0  0  0  0
  -50.9138  -28.8769    4.0187 C   0  0  0  0  0  0  0  0  0  0  0  0
  -52.8130  -29.3514    7.7056 C   0  0  0  0  0  0  0  0  0  0  0  0
  -43.1282  -30.0414    1.6624 N   0  0  0  0  0  0  0  0  0  0  0  0
  -48.5422  -28.8198    3.5804 N   0  0  0  0  0  0  0  0  0  0  0  0
  -44.2776  -28.3134    0.5809 O   0  0  0  0  0  0  0  0  0  0  0  0
  -49.3401  -28.2982    5.7346 O   0  0  0  0  0  0  0  0  0  0  0  0
  -41.1796  -29.6597    3.8814 O   0  0  0  0  0  0  0  0  0  0  0  0
  -51.7797  -29.3337    5.0359 O   0  0  0  0  0  0  0  0  0  0  0  0
  -44.7791  -27.8921    5.9962 H   0  0  0  0  0  0  0  0  0  0  0  0
  -43.3165  -28.3064    4.0476 H   0  0  0  0  0  0  0  0  0  0  0  0
  -55.9614  -26.3413    6.1054 H   0  0  0  0  0  0  0  0  0  0  0  0
  -54.9484  -27.7073    7.8895 H   0  0  0  0  0  0  0  0  0  0  0  0
  -47.2296  -28.1296    5.7882 H   0  0  0  0  0  0  0  0  0  0  0  0
  -46.7737  -29.2085    1.6447 H   0  0  0  0  0  0  0  0  0  0  0  0
  -53.0261  -27.7999    3.3144 H   0  0  0  0  0  0  0  0  0  0  0  0
  -40.5096  -29.2298    1.2160 H   0  0  0  0  0  0  0  0  0  0  0  0
  -40.1431  -30.5527    0.1119 H   0  0  0  0  0  0  0  0  0  0  0  0
  -40.6136  -32.2264    1.8153 H   0  0  0  0  0  0  0  0  0  0  0  0
  -39.4818  -31.0389    2.4788 H   0  0  0  0  0  0  0  0  0  0  0  0
  -42.4215  -29.5888   -0.2786 H   0  0  0  0  0  0  0  0  0  0  0  0
  -42.5000  -31.3024    0.1424 H   0  0  0  0  0  0  0  0  0  0  0  0
  -43.2331  -31.9345    2.5025 H   0  0  0  0  0  0  0  0  0  0  0  0
  -43.6002  -30.6363    3.6451 H   0  0  0  0  0  0  0  0  0  0  0  0
  -41.3438  -31.6846    4.0675 H   0  0  0  0  0  0  0  0  0  0  0  0
  -54.7171  -25.1580    3.4693 H   0  0  0  0  0  0  0  0  0  0  0  0
  -56.2457  -26.0098    3.6863 H   0  0  0  0  0  0  0  0  0  0  0  0
  -55.0387  -26.6425    2.5395 H   0  0  0  0  0  0  0  0  0  0  0  0
  -54.6874  -29.9158    8.6643 H   0  0  0  0  0  0  0  0  0  0  0  0
  -54.1199  -31.0948    7.4719 H   0  0  0  0  0  0  0  0  0  0  0  0
  -53.3428  -30.9969    9.0576 H   0  0  0  0  0  0  0  0  0  0  0  0
  -53.0620  -27.8835    9.3144 H   0  0  0  0  0  0  0  0  0  0  0  0
  -51.8393  -29.1224    9.6425 H   0  0  0  0  0  0  0  0  0  0  0  0
  -51.4852  -27.8031    8.5164 H   0  0  0  0  0  0  0  0  0  0  0  0
  -50.8742  -29.6235    3.2192 H   0  0  0  0  0  0  0  0  0  0  0  0
  -51.3168  -27.9425    3.6153 H   0  0  0  0  0  0  0  0  0  0  0  0
  -51.9467  -29.9182    7.3153 H   0  0  0  0  0  0  0  0  0  0  0  0
  -48.8948  -29.0943    2.6562 H   0  0  0  0  0  0  0  0  0  0  0  0
  -40.2664  -29.7198    4.2009 H   0  0  0  0  0  0  0  0  0  0  0  0
  1  2  1  0  0  0  0
  1  5  2  0  0  0  0
  2  8  2  0  0  0  0
  3  4  2  0  0  0  0
  3  9  1  0  0  0  0
  4 10  1  0  0  0  0
  5 11  1  0  0  0  0
  6  8  1  0  0  0  0
  6 11  2  0  0  0  0
  7  9  2  0  0  0  0
  7 12  1  0  0  0  0
  8 13  1  0  0  0  0
  9 20  1  0  0  0  0
 10 12  2  0  0  0  0
 10 24  1  0  0  0  0
 11 26  1  0  0  0  0
 12 30  1  0  0  0  0
 13 25  1  0  0  0  0
 13 27  2  0  0  0  0
 14 23  1  0  0  0  0
 14 26  1  0  0  0  0
 14 28  2  0  0  0  0
 15 16  1  0  0  0  0
 15 17  1  0  0  0  0
 16 19  1  0  0  0  0
 17 25  1  0  0  0  0
 18 19  1  0  0  0  0
 18 25  1  0  0  0  0
 19 29  1  0  0  0  0
 21 24  1  0  0  0  0
 22 24  1  0  0  0  0
 23 30  1  0  0  0  0
  1 31  1  0  0  0  0
  2 32  1  0  0  0  0
  3 33  1  0  0  0  0
  4 34  1  0  0  0  0
  5 35  1  0  0  0  0
  6 36  1  0  0  0  0
  7 37  1  0  0  0  0
 15 38  1  0  0  0  0
 15 39  1  0  0  0  0
 16 40  1  0  0  0  0
 16 41  1  0  0  0  0
 17 42  1  0  0  0  0
 17 43  1  0  0  0  0
 18 44  1  0  0  0  0
 18 45  1  0  0  0  0
 19 46  1  0  0  0  0
 20 47  1  0  0  0  0
 20 48  1  0  0  0  0
 20 49  1  0  0  0  0
 21 50  1  0  0  0  0
 21 51  1  0  0  0  0
 21 52  1  0  0  0  0
 22 53  1  0  0  0  0
 22 54  1  0  0  0  0
 22 55  1  0  0  0  0
 23 56  1  0  0  0  0
 23 57  1  0  0  0  0
 24 58  1  0  0  0  0
 26 59  1  0  0  0  0
 29 60  1  0  0  0  0
M  END
> <POSIT::Probability>
0.02

> <POSIT::Method>
FRED

> <ReceptorTitle>
UCSF-P4528-REFINED_LIGAND-BOUND-STATE_A__DU__LA1_A-201(A)

> <OMEGA_C>
UNw0wn9w4cE4aaFAYJIxwmZR48E4SnxAgmJcwkGs18HkK7xAjhdawi/c3cFSedxAdWQ6wjOF4sEP
ip1Aglg5wglc58ExTCZAJspVwn493sEaIopAT9AzwldH5sEyCi5AkDtawujc18Ho/5JAJqZVwsY8
5MGBm9NAZKI8wiR75cEV1GxAMH9TwmRt5MEMb6pACVowwhhA6MGqzsc/BhZGwk8C5cEqIpJA7B8j
wvQT8sEqDHQ/Yw8iwip5+cGAHglAFPsowpx28sHlHgc/gMQrwppq98GUpDRABPIlwrNf98HIzFJA
Va9cwqpA0cGy5WBAsy1XwqY388G8FwRBiBNRwm7m48Hovw1BvqdLwv4D58H3mIBAhEBTwpnP6sGd
lPZAToMswrNU8MGcyNQ/KytCwgKP5sFoJWVAQxwxwuqB4sEMuBQ/UFxFwqxi4sF2gbdA5LckwghH
7cFDaXhAZx5Pwmyr6sFiJqFAzh0zwvQi38Hp4L9AEEQtwmpz4sHxhYFAgdhfwgq70sFCX8NAKstb
wn2o3cEad/xAF+s8wmQJ4cEMOblAOBg7wuqq6cGyhtI/wBpUwkhm3sE7H1RAyQkiwp3W6cFjp5s/
kpIgwvZr9MHoROU9XnQiwsvnAMKeW+g/Y+0dwqxP+MEdpR5Aka8pwva17MEkoY6+9/8pwmRr+sGQ
2xE+r+4swtd5/8HcKCBAjmYuwhgX9cEcSWlAA2Alwgp6/cHUKIJAXN5awpJDycEVCV5Al/tgwggU
0MFO7GtApydcwr8j1cH5hiJA779awo9T78EXoQpBz3pYwjTC+MHXGe9AAV9VwrL598Hr6xBBcT9U
wmYR38HTBxVBeFtPwqD66MGhRxpB0/BNwr5s3sFTQwhBI39Lwuv87MEeB05AZkRNwk6K38GKYWdA
Y8lPwnJY78GhFupAOpRDwiLB6MHy/ylAxxAhwi/C7cEJboZA

> <OMEGA_E>
L38BwQ==

> <OMEGA_NBR>
    180648

$$$$
CACHE3HI_1716_58
  -OEChem-03092622573D

 41 44  0     1  0  0  0  0  0999 V2000
  -46.4928  -27.5385   -0.6763 C   0  0  0  0  0  0  0  0  0  0  0  0
  -47.4561  -28.4472   -0.2509 C   0  0  0  0  0  0  0  0  0  0  0  0
  -45.1407  -27.8556   -0.5599 C   0  0  0  0  0  0  0  0  0  0  0  0
  -47.8992  -29.0736    6.2522 C   0  0  0  0  0  0  0  0  0  0  0  0
  -47.0681  -29.6710    0.2976 C   0  0  0  0  0  0  0  0  0  0  0  0
  -48.5563  -28.9364    5.0087 C   0  0  0  0  0  0  0  0  0  0  0  0
  -46.4806  -29.0330    3.6075 C   0  0  0  0  0  0  0  0  0  0  0  0
  -45.8645  -29.1655    4.8450 C   0  0  0  0  0  0  0  0  0  0  0  0
  -44.7447  -29.0891   -0.0228 C   0  0  0  0  0  0  0  0  0  0  0  0
  -46.5014  -29.1905    6.1399 C   0  0  0  0  0  0  0  0  0  0  0  0
  -45.7124  -30.0054    0.4308 C   0  0  0  0  0  0  0  0  0  0  0  0
  -47.8767  -28.9176    3.7500 C   0  0  0  0  0  0  0  0  0  0  0  0
  -44.5221  -29.2986    5.0564 C   0  0  0  0  0  0  0  0  0  0  0  0
  -43.6033  -31.2783    2.5997 C   0  0  0  0  0  0  0  0  0  0  0  0
  -43.2786  -29.4045    0.1189 C   0  0  0  0  0  0  0  0  0  0  0  0
  -43.0339  -30.9116    0.1974 C   0  0  0  0  0  0  0  0  0  0  0  0
  -43.9692  -31.6027    1.1861 C   0  0  2  0  0  0  0  0  0  0  0  0
  -43.3314  -29.3466    4.1423 C   0  0  0  0  0  0  0  0  0  0  0  0
  -45.5602  -29.3345    7.0901 N   0  0  0  0  0  0  0  0  0  0  0  0
  -44.3973  -29.3951    6.4120 N   0  0  0  0  0  0  0  0  0  0  0  0
  -45.3542  -31.2324    0.9709 N   0  0  0  0  0  0  0  0  0  0  0  0
  -43.6594  -29.9193    2.8568 N   0  0  0  0  0  0  0  0  0  0  0  0
  -43.2783  -32.1500    3.4022 O   0  0  0  0  0  0  0  0  0  0  0  0
  -48.8288  -28.7424    2.3142 Cl  0  0  0  0  0  0  0  0  0  0  0  0
  -46.7931  -26.5826   -1.0961 H   0  0  0  0  0  0  0  0  0  0  0  0
  -48.5106  -28.2063   -0.3462 H   0  0  0  0  0  0  0  0  0  0  0  0
  -44.3952  -27.1344   -0.8852 H   0  0  0  0  0  0  0  0  0  0  0  0
  -48.4310  -29.0853    7.1943 H   0  0  0  0  0  0  0  0  0  0  0  0
  -47.8382  -30.3704    0.6177 H   0  0  0  0  0  0  0  0  0  0  0  0
  -49.6424  -28.8404    5.0231 H   0  0  0  0  0  0  0  0  0  0  0  0
  -45.9706  -29.0222    2.6538 H   0  0  0  0  0  0  0  0  0  0  0  0
  -42.7464  -28.9859   -0.7452 H   0  0  0  0  0  0  0  0  0  0  0  0
  -42.8727  -28.9318    1.0222 H   0  0  0  0  0  0  0  0  0  0  0  0
  -43.1466  -31.3558   -0.8085 H   0  0  0  0  0  0  0  0  0  0  0  0
  -41.9794  -31.1008    0.4782 H   0  0  0  0  0  0  0  0  0  0  0  0
  -43.8788  -32.7093    1.0717 H   0  0  0  0  0  0  0  0  0  0  0  0
  -42.9347  -28.3402    3.9723 H   0  0  0  0  0  0  0  0  0  0  0  0
  -42.5248  -29.9446    4.5791 H   0  0  0  0  0  0  0  0  0  0  0  0
  -43.5447  -29.5042    6.9466 H   0  0  0  0  0  0  0  0  0  0  0  0
  -46.0644  -31.9733    0.9765 H   0  0  0  0  0  0  0  0  0  0  0  0
  -43.9141  -29.2821    2.1081 H   0  0  0  0  0  0  0  0  0  0  0  0
  1  2  1  0  0  0  0
  1  3  2  0  0  0  0
  2  5  2  0  0  0  0
  3  9  1  0  0  0  0
  4  6  2  0  0  0  0
  4 10  1  0  0  0  0
  5 11  1  0  0  0  0
  6 12  1  0  0  0  0
  7  8  1  0  0  0  0
  7 12  2  0  0  0  0
  8 10  1  0  0  0  0
  8 13  2  0  0  0  0
  9 11  2  0  0  0  0
  9 15  1  0  0  0  0
 10 19  2  0  0  0  0
 11 21  1  0  0  0  0
 12 24  1  0  0  0  0
 13 18  1  0  0  0  0
 13 20  1  0  0  0  0
 14 17  1  0  0  0  0
 14 22  1  0  0  0  0
 14 23  2  0  0  0  0
 15 16  1  0  0  0  0
 16 17  1  0  0  0  0
 17 21  1  0  0  0  0
 18 22  1  0  0  0  0
 19 20  1  0  0  0  0
  1 25  1  0  0  0  0
  2 26  1  0  0  0  0
  3 27  1  0  0  0  0
  4 28  1  0  0  0  0
  5 29  1  0  0  0  0
  6 30  1  0  0  0  0
  7 31  1  0  0  0  0
 15 32  1  0  0  0  0
 15 33  1  0  0  0  0
 16 34  1  0  0  0  0
 16 35  1  0  0  0  0
 17 36  1  0  0  0  0
 18 37  1  0  0  0  0
 18 38  1  0  0  0  0
 20 39  1  0  0  0  0
 21 40  1  0  0  0  0
 22 41  1  0  0  0  0
M  END
> <POSIT::Probability>
0.18

> <POSIT::Method>
FRED

> <ReceptorTitle>
UCSF-P4528-REFINED_LIGAND-BOUND-STATE_A__DU__LA1_A-201(A)

> <OMEGA_C>
mPg5wstO3MGIIy2/BNM9wuqT48EweIC+F5A0wlfY3sGQUg+/1Jg/wrSW6MFFEshAtUU8wkVe7cFw
XZg+qzlCwsZ958EaR6BAG+w5wqFD6MG+4WZAOXU3wgBT6cHmCZtAlPoywoS26MEA8Lq8egE6wiuG
6cFOesRAhNk2wgUL8MHgltw+yoE/wjZX58Fi/29AlRYywoxj6sEszqFAw2kuwvg5+sFyYSZASR0t
wlY868GAhPM9rSIswgFL98FAHEo+eOAvwkLS/ME40Zc/YFMtwszF6sEUjoRAnj02wv6s6sHp4eJA
zJYxwhsp68FCL81AsWo1wvrb+cHIiXg/RaMuwq5a78Gc1TZA7hwtwqWZAMJsvVlAsFBDwoDw5cGO
HBRAFyw7wkSp1MEgTIy/zgpCwpqm4cEwRrG+p5QxwjUT2cEwm2K/YLlBwsOu6MEXOOZAVVo/wo32
8sFAIx4/3JFGwjC55sEdvaBA2uE3wmwt6MFa1ylARvwqwi3j58H4xz6/rX0rwkh058HI2II/HJYs
wqTY+sHA+k6/8uonwnXO+MFg2fQ+4IMvwljWAsJgLYk/Jb0rwrS44sGgOX5AcBkqwp6O78EViJJA
wy0uwpQI7MHrSt5A+0E4wjrJ/8Hw/nk/C6gvwrxB6sHM6gZA

> <OMEGA_E>
K0oxwQ==

> <OMEGA_NBR>
    181966

$$$$
CACHE3HI_1718_1
  -OEChem-03092622573D

 50 53  0     1  0  0  0  0  0999 V2000
  -43.6479  -34.4065   -4.4277 C   0  0  0  0  0  0  0  0  0  0  0  0
  -43.8177  -35.7573   -4.0539 C   0  0  0  0  0  0  0  0  0  0  0  0
  -44.0299  -33.3721   -3.5461 C   0  0  0  0  0  0  0  0  0  0  0  0
  -44.3542  -36.0782   -2.7911 C   0  0  0  0  0  0  0  0  0  0  0  0
  -48.5008  -28.6597    5.0252 C   0  0  0  0  0  0  0  0  0  0  0  0
  -46.1390  -29.1810    4.0107 C   0  0  0  0  0  0  0  0  0  0  0  0
  -44.4592  -29.4684    5.7557 C   0  0  0  0  0  0  0  0  0  0  0  0
  -48.8905  -28.5139    6.3358 C   0  0  0  0  0  0  0  0  0  0  0  0
  -44.5661  -33.6986   -2.2816 C   0  0  0  0  0  0  0  0  0  0  0  0
  -47.0685  -28.9424    5.0334 C   0  0  0  0  0  0  0  0  0  0  0  0
  -44.8082  -29.4661    4.3834 C   0  0  0  0  0  0  0  0  0  0  0  0
  -45.1106  -32.8931   -1.1758 C   0  0  0  0  0  0  0  0  0  0  0  0
  -44.7214  -35.0435   -1.9136 C   0  0  0  0  0  0  0  0  0  0  0  0
  -46.6552  -28.9597    6.3742 C   0  0  0  0  0  0  0  0  0  0  0  0
  -45.5257  -33.7829   -0.2073 C   0  0  0  0  0  0  0  0  0  0  0  0
  -43.7885  -29.7513    3.3653 C   0  0  0  0  0  0  0  0  0  0  0  0
  -44.2240  -30.4608   -1.2333 C   0  0  0  0  0  0  0  0  0  0  0  0
  -43.6185  -26.9963    0.0710 C   0  0  0  0  0  0  0  0  0  0  0  0
  -45.4273  -31.4040   -1.1577 C   0  0  0  0  0  0  0  0  0  0  0  0
  -42.7001  -29.0668    1.2078 C   0  0  0  0  0  0  0  0  0  0  0  0
  -43.1915  -28.4652   -0.1221 C   0  0  1  0  0  0  0  0  0  0  0  0
  -45.3725  -29.2100    6.7208 N   0  0  0  0  0  0  0  0  0  0  0  0
  -47.7734  -28.6937    7.1498 N   0  0  0  0  0  0  0  0  0  0  0  0
  -45.2812  -35.0743   -0.6511 N   0  0  0  0  0  0  0  0  0  0  0  0
  -43.7859  -29.0138    2.1961 N   0  0  0  0  0  0  0  0  0  0  0  0
  -44.3445  -29.2372   -0.5925 N   0  0  0  0  0  0  0  0  0  0  0  0
  -42.9088  -30.5756    3.5892 O   0  0  0  0  0  0  0  0  0  0  0  0
  -43.2493  -30.7171   -1.9311 O   0  0  0  0  0  0  0  0  0  0  0  0
  -46.1580  -33.4841    0.9569 O   0  0  0  0  0  0  0  0  0  0  0  0
  -43.2245  -34.1638   -5.3911 H   0  0  0  0  0  0  0  0  0  0  0  0
  -43.5360  -36.5454   -4.7365 H   0  0  0  0  0  0  0  0  0  0  0  0
  -43.9128  -32.3386   -3.8370 H   0  0  0  0  0  0  0  0  0  0  0  0
  -44.4822  -37.1104   -2.5000 H   0  0  0  0  0  0  0  0  0  0  0  0
  -49.1346  -28.5801    4.1543 H   0  0  0  0  0  0  0  0  0  0  0  0
  -46.4322  -29.1476    2.9718 H   0  0  0  0  0  0  0  0  0  0  0  0
  -43.4392  -29.6817    6.0393 H   0  0  0  0  0  0  0  0  0  0  0  0
  -49.8920  -28.2970    6.6766 H   0  0  0  0  0  0  0  0  0  0  0  0
  -43.9656  -26.5856   -0.8886 H   0  0  0  0  0  0  0  0  0  0  0  0
  -44.4338  -26.9455    0.8078 H   0  0  0  0  0  0  0  0  0  0  0  0
  -42.7609  -26.4097    0.4321 H   0  0  0  0  0  0  0  0  0  0  0  0
  -46.0786  -31.1881   -2.0175 H   0  0  0  0  0  0  0  0  0  0  0  0
  -45.9675  -31.1862   -0.2246 H   0  0  0  0  0  0  0  0  0  0  0  0
  -42.3989  -30.1127    1.0487 H   0  0  0  0  0  0  0  0  0  0  0  0
  -41.8395  -28.4894    1.5763 H   0  0  0  0  0  0  0  0  0  0  0  0
  -42.3779  -28.5100   -0.8611 H   0  0  0  0  0  0  0  0  0  0  0  0
  -47.7777  -28.6389    8.1483 H   0  0  0  0  0  0  0  0  0  0  0  0
  -45.4808  -35.9059   -0.1328 H   0  0  0  0  0  0  0  0  0  0  0  0
  -44.5639  -28.4127    2.0134 H   0  0  0  0  0  0  0  0  0  0  0  0
  -45.2606  -28.8645   -0.4446 H   0  0  0  0  0  0  0  0  0  0  0  0
  -46.3298  -34.2845    1.4390 H   0  0  0  0  0  0  0  0  0  0  0  0
  1  2  1  0  0  0  0
  1  3  2  0  0  0  0
  2  4  2  0  0  0  0
  3  9  1  0  0  0  0
  4 13  1  0  0  0  0
  5  8  2  0  0  0  0
  5 10  1  0  0  0  0
  6 10  2  0  0  0  0
  6 11  1  0  0  0  0
  7 11  2  0  0  0  0
  7 22  1  0  0  0  0
  8 23  1  0  0  0  0
  9 12  1  0  0  0  0
  9 13  2  0  0  0  0
 10 14  1  0  0  0  0
 11 16  1  0  0  0  0
 12 15  2  0  0  0  0
 12 19  1  0  0  0  0
 13 24  1  0  0  0  0
 14 22  2  0  0  0  0
 14 23  1  0  0  0  0
 15 24  1  0  0  0  0
 15 29  1  0  0  0  0
 16 25  1  0  0  0  0
 16 27  2  0  0  0  0
 17 19  1  0  0  0  0
 17 26  1  0  0  0  0
 17 28  2  0  0  0  0
 18 21  1  0  0  0  0
 20 21  1  0  0  0  0
 20 25  1  0  0  0  0
 21 26  1  0  0  0  0
  1 30  1  0  0  0  0
  2 31  1  0  0  0  0
  3 32  1  0  0  0  0
  4 33  1  0  0  0  0
  5 34  1  0  0  0  0
  6 35  1  0  0  0  0
  7 36  1  0  0  0  0
  8 37  1  0  0  0  0
 18 38  1  0  0  0  0
 18 39  1  0  0  0  0
 18 40  1  0  0  0  0
 19 41  1  0  0  0  0
 19 42  1  0  0  0  0
 20 43  1  0  0  0  0
 20 44  1  0  0  0  0
 21 45  1  0  0  0  0
 23 46  1  0  0  0  0
 24 47  1  0  0  0  0
 25 48  1  0  0  0  0
 26 49  1  0  0  0  0
 29 50  1  0  0  0  0
M  END
> <POSIT::Probability>
0.78

> <POSIT::Method>
SHAPEFIT

> <ReceptorTitle>
UCSF-P4528-REFINED_LIGAND-BOUND-STATE_A__DU__LA1_A-201(A)

> <OMEGA_C>
dJcuwkagCcLqr43AUEUvwm0HD8JZuYHAox4wwg19BcL882LAuWoxwh5QEMKMoTLA1gBCwg1H5cGk
zqBAWY44wq5y6cG0V4BAQ9YxwlC/68GeLrhA1I9Dwo4c5MHkvspAtUMywlrLBsIFBRLAIUY8wh6K
58HwEaFApTszwoC668HGRIxAOnE0womSA8KigJa/weIywowsDMJ68vS/8J46woit58Fy+ctAXho2
wrMhB8LQSVS+aicvwrkC7sFMYFdAX+Uwws2v88HB3J2/Y3kuwnL418FAb5E9g7U1wnU7+8ERMZS/
68wqws6I6MFwmJo/E8Qsws2448GAJfq9ZX01wgSu6cHYENdA7xc/wsqM5cEwy+RA5h81whpMDMK4
rCa/wyQvwk8c6MGkjAxA0GAxwuLl6cEMsBe/lKIrwtma9MHItGVAQ/8swq+89cHWL/e/waE4wrbv
BcLA+XQ/2OUswq+nCMIrhKzA6CQuwncuEsInkZfAv6YvwsFaAcL0kHXAvu0xwgVxFMJnACDAyIlE
wvij5MFa8IRAkro5wk4u6cHzMT5AwMEtwhd07cE2QsFAc5FHwjVg4sHcptVAydwvwlGv1MGBe2O/
Lbwxwk2Q18Giyk4/KwsrwhFH08HSNd0+dlA4wjSB+cGAHgHAtd43wlV9+cFUBma+epgpwuHm8MEt
PYY/m1snwjnq48G0xck/7oIpwokU5MFCb1y/Yxw/wmoc5cFiXwJBV+w1wqSfD8Ib+we+bkEywjVN
48Gf2wBA2go1wnDq5sE1o+O+vVE5wk4jCcLWL7g/

> <OMEGA_E>
cFpdPw==

> <OMEGA_NBR>
    183492

$$$$
CACHE3HI_1718_4
  -OEChem-03092622573D

 39 40  0     1  0  0  0  0  0999 V2000
  -47.5764  -28.7503    5.6009 C   0  0  0  0  0  0  0  0  0  0  0  0
  -49.1680  -30.0492    4.3293 C   0  0  0  0  0  0  0  0  0  0  0  0
  -48.5102  -28.6126    6.6279 C   0  0  0  0  0  0  0  0  0  0  0  0
  -50.1018  -29.9116    5.3563 C   0  0  0  0  0  0  0  0  0  0  0  0
  -47.9054  -29.4688    4.4516 C   0  0  0  0  0  0  0  0  0  0  0  0
  -49.7728  -29.1930    6.5056 C   0  0  0  0  0  0  0  0  0  0  0  0
  -46.9115  -29.6162    3.3581 C   0  0  0  0  0  0  0  0  0  0  0  0
  -52.0148  -29.5608    7.5968 C   0  0  0  0  0  0  0  0  0  0  0  0
  -44.4340  -28.7052    1.6140 C   0  0  0  0  0  0  0  0  0  0  0  0
  -44.7556  -28.8206   -0.5044 C   0  0  0  0  0  0  0  0  0  0  0  0
  -45.6964  -28.7795    0.7225 C   0  0  1  0  0  0  0  0  0  0  0  0
  -43.6373  -28.1999    0.3785 C   0  0  1  0  0  0  0  0  0  0  0  0
  -46.5962  -29.9821    0.9245 C   0  0  0  0  0  0  0  0  0  0  0  0
  -43.5056  -26.6855    0.2849 C   0  0  0  0  0  0  0  0  0  0  0  0
  -52.1809  -30.4143    8.6785 N   0  0  0  0  0  0  0  0  0  0  0  0
  -50.7064  -29.0548    7.5330 N   0  0  0  0  0  0  0  0  0  0  0  0
  -47.4417  -29.7981    2.0984 N   0  0  0  0  0  0  0  0  0  0  0  0
  -45.7138  -29.5889    3.6281 O   0  0  0  0  0  0  0  0  0  0  0  0
  -52.9370  -29.3163    6.8237 O   0  0  0  0  0  0  0  0  0  0  0  0
  -42.3366  -28.8050    0.2216 O   0  0  0  0  0  0  0  0  0  0  0  0
  -42.8711  -26.2078    1.3675 F   0  0  0  0  0  0  0  0  0  0  0  0
  -44.7205  -26.1187    0.2113 F   0  0  0  0  0  0  0  0  0  0  0  0
  -42.8046  -26.3485   -0.8096 F   0  0  0  0  0  0  0  0  0  0  0  0
  -46.5958  -28.2939    5.7079 H   0  0  0  0  0  0  0  0  0  0  0  0
  -49.4356  -30.6110    3.4381 H   0  0  0  0  0  0  0  0  0  0  0  0
  -48.2429  -28.0509    7.5194 H   0  0  0  0  0  0  0  0  0  0  0  0
  -51.0827  -30.3677    5.2496 H   0  0  0  0  0  0  0  0  0  0  0  0
  -44.5050  -28.0124    2.4580 H   0  0  0  0  0  0  0  0  0  0  0  0
  -44.0872  -29.6745    1.9923 H   0  0  0  0  0  0  0  0  0  0  0  0
  -44.5203  -29.8299   -0.8634 H   0  0  0  0  0  0  0  0  0  0  0  0
  -45.0832  -28.2197   -1.3581 H   0  0  0  0  0  0  0  0  0  0  0  0
  -46.2812  -27.8497    0.7605 H   0  0  0  0  0  0  0  0  0  0  0  0
  -47.2315  -30.1247    0.0427 H   0  0  0  0  0  0  0  0  0  0  0  0
  -45.9910  -30.8876    1.0481 H   0  0  0  0  0  0  0  0  0  0  0  0
  -51.3972  -30.5940    9.2971 H   0  0  0  0  0  0  0  0  0  0  0  0
  -53.0734  -30.8616    8.8610 H   0  0  0  0  0  0  0  0  0  0  0  0
  -50.4127  -28.5171    8.3547 H   0  0  0  0  0  0  0  0  0  0  0  0
  -48.4366  -29.8742    1.9510 H   0  0  0  0  0  0  0  0  0  0  0  0
  -42.5021  -29.7505    0.1275 H   0  0  0  0  0  0  0  0  0  0  0  0
  1  3  2  0  0  0  0
  1  5  1  0  0  0  0
  2  4  1  0  0  0  0
  2  5  2  0  0  0  0
  3  6  1  0  0  0  0
  4  6  2  0  0  0  0
  5  7  1  0  0  0  0
  6 16  1  0  0  0  0
  7 17  1  0  0  0  0
  7 18  2  0  0  0  0
  8 15  1  0  0  0  0
  8 16  1  0  0  0  0
  8 19  2  0  0  0  0
  9 11  1  0  0  0  0
  9 12  1  0  0  0  0
 10 11  1  0  0  0  0
 10 12  1  0  0  0  0
 11 13  1  0  0  0  0
 12 14  1  0  0  0  0
 12 20  1  0  0  0  0
 13 17  1  0  0  0  0
 14 21  1  0  0  0  0
 14 22  1  0  0  0  0
 14 23  1  0  0  0  0
  1 24  1  0  0  0  0
  2 25  1  0  0  0  0
  3 26  1  0  0  0  0
  4 27  1  0  0  0  0
  9 28  1  0  0  0  0
  9 29  1  0  0  0  0
 10 30  1  0  0  0  0
 10 31  1  0  0  0  0
 11 32  1  0  0  0  0
 13 33  1  0  0  0  0
 13 34  1  0  0  0  0
 15 35  1  0  0  0  0
 15 36  1  0  0  0  0
 16 37  1  0  0  0  0
 17 38  1  0  0  0  0
 20 39  1  0  0  0  0
M  END
> <POSIT::Probability>
0.05

> <POSIT::Method>
FRED

> <ReceptorTitle>
UCSF-P4528-REFINED_LIGAND-BOUND-STATE_A__DU__LA1_A-201(A)

> <OMEGA_C>
Mk4+wqEA5sFWOrNAE6xEwtlk8MGsiYpAZQpCwqnm5MHGF9RAQmhIwu9K78GqZqtAKp8/wivA68FV
c45AThdHwleL6cEeLtBAbaU7wvTt7MGu6lZAHg9Qwnl87MHwGPNAcLwxwjmk5cHYl84/twUzwpSQ
5sEIHwG/Jsk2wl885sGA9zg/oIwuwmeZ4cFgz8E+iWI6wkfb78GAqWw/vQUuwv971cFA4JE+NrlQ
wndQ88FG2wpBY9NKwlVw6MGLDvFATsQ9woZi7sHOSwZA59o2wgK27MEiM2hAib9TwsSH6sH8W9pA
pFgpwqpw5sFA9mI++Xsrwqip0cEUC68/0eEywhDz0MEAUlg+7jcrws7J0sGoQU+/JmI6wtBZ4sFU
p7ZADL5Fwm7j9MFeClxAuvhAwkNo4MELn/BAu1RMwiPx8sHU/KdAKgUywnQZ4MFgUB1AT1kwwndl
7cHwAv8/zRQywrKj7sHoBF2/N1U0wtnB4cF81a2/8h85wjLM3sFgrkI/Ee08wmj/8MGAuC49x/Y3
wugZ98GwKIY/spZNwpPA9MHZwBRBLktUwn3k9sF+xg1BkKZJwhwj5MEOrQVBEb9Bwkj+7sGouvk/
LAIqwh0B7sHAkwI+

> <OMEGA_E>
jI0ZwQ==

> <OMEGA_NBR>
    184765

$$$$
CACHE3HI_1718_5
  -OEChem-03092622573D

 52 55  0     1  0  0  0  0  0999 V2000
  -44.0778  -29.8352    6.2002 C   0  0  0  0  0  0  0  0  0  0  0  0
  -45.0707  -29.6653    7.1687 C   0  0  0  0  0  0  0  0  0  0  0  0
  -47.4834  -33.3438    0.1385 C   0  0  0  0  0  0  0  0  0  0  0  0
  -45.4185  -28.6777    4.5389 C   0  0  0  0  0  0  0  0  0  0  0  0
  -47.7159  -27.8766    5.4798 C   0  0  0  0  0  0  0  0  0  0  0  0
  -47.5038  -34.6841    0.4625 C   0  0  0  0  0  0  0  0  0  0  0  0
  -46.4336  -28.4938    5.4989 C   0  0  0  0  0  0  0  0  0  0  0  0
  -44.2471  -29.3499    4.9053 C   0  0  0  0  0  0  0  0  0  0  0  0
  -46.3446  -33.1326   -0.6736 C   0  0  0  0  0  0  0  0  0  0  0  0
  -46.2369  -28.9910    6.7889 C   0  0  0  0  0  0  0  0  0  0  0  0
  -45.7089  -34.3468   -0.8304 C   0  0  0  0  0  0  0  0  0  0  0  0
  -48.2621  -28.0090    6.7354 C   0  0  0  0  0  0  0  0  0  0  0  0
  -44.1409  -33.6597   -2.2505 C   0  0  0  0  0  0  0  0  0  0  0  0
  -43.1724  -29.5464    3.8994 C   0  0  0  0  0  0  0  0  0  0  0  0
  -45.1596  -31.0383   -0.2785 C   0  0  0  0  0  0  0  0  0  0  0  0
  -44.7790  -32.2788   -2.3999 C   0  0  0  0  0  0  0  0  0  0  0  0
  -45.8041  -31.9105   -1.3123 C   0  0  1  0  0  0  0  0  0  0  0  0
  -43.5361  -27.7298   -0.9576 C   0  0  0  0  0  0  0  0  0  0  0  0
  -42.6818  -29.4808    0.6392 C   0  0  0  0  0  0  0  0  0  0  0  0
  -42.1414  -28.6716    1.8192 C   0  0  0  0  0  0  0  0  0  0  0  0
  -43.9308  -28.8891   -0.0415 C   0  0  2  0  0  0  0  0  0  0  0  0
  -44.5901  -34.6457   -1.5282 N   0  0  0  0  0  0  0  0  0  0  0  0
  -46.4187  -35.2831   -0.1284 N   0  0  0  0  0  0  0  0  0  0  0  0
  -47.3630  -28.6826    7.5183 N   0  0  0  0  0  0  0  0  0  0  0  0
  -43.1135  -28.6044    2.8829 N   0  0  0  0  0  0  0  0  0  0  0  0
  -44.6247  -29.8848   -0.8258 N   0  0  0  0  0  0  0  0  0  0  0  0
  -42.4239  -30.5146    4.0024 O   0  0  0  0  0  0  0  0  0  0  0  0
  -45.1177  -31.3593    0.9067 O   0  0  0  0  0  0  0  0  0  0  0  0
  -49.4229  -27.6119    7.2351 O   0  0  0  0  0  0  0  0  0  0  0  0
  -43.1629  -30.3563    6.4742 H   0  0  0  0  0  0  0  0  0  0  0  0
  -44.9386  -30.0438    8.1768 H   0  0  0  0  0  0  0  0  0  0  0  0
  -48.2076  -32.6071    0.4572 H   0  0  0  0  0  0  0  0  0  0  0  0
  -45.5486  -28.2993    3.5283 H   0  0  0  0  0  0  0  0  0  0  0  0
  -48.1871  -27.3883    4.6376 H   0  0  0  0  0  0  0  0  0  0  0  0
  -48.1921  -35.2649    1.0602 H   0  0  0  0  0  0  0  0  0  0  0  0
  -43.2404  -33.8427   -2.8611 H   0  0  0  0  0  0  0  0  0  0  0  0
  -43.9718  -31.5399   -2.4640 H   0  0  0  0  0  0  0  0  0  0  0  0
  -45.2730  -32.2869   -3.3802 H   0  0  0  0  0  0  0  0  0  0  0  0
  -46.6151  -31.3238   -1.7599 H   0  0  0  0  0  0  0  0  0  0  0  0
  -42.8474  -28.0719   -1.7374 H   0  0  0  0  0  0  0  0  0  0  0  0
  -44.4149  -27.3047   -1.4563 H   0  0  0  0  0  0  0  0  0  0  0  0
  -43.0412  -26.9268   -0.4001 H   0  0  0  0  0  0  0  0  0  0  0  0
  -42.9179  -30.4951    0.9890 H   0  0  0  0  0  0  0  0  0  0  0  0
  -41.8786  -29.5889   -0.1019 H   0  0  0  0  0  0  0  0  0  0  0  0
  -41.8550  -27.6603    1.5145 H   0  0  0  0  0  0  0  0  0  0  0  0
  -41.2369  -29.1568    2.2029 H   0  0  0  0  0  0  0  0  0  0  0  0
  -44.6173  -28.5026    0.7203 H   0  0  0  0  0  0  0  0  0  0  0  0
  -46.1850  -36.2640   -0.0610 H   0  0  0  0  0  0  0  0  0  0  0  0
  -47.5057  -28.9183    8.4907 H   0  0  0  0  0  0  0  0  0  0  0  0
  -43.8085  -27.8655    2.8307 H   0  0  0  0  0  0  0  0  0  0  0  0
  -44.6914  -29.7330   -1.8278 H   0  0  0  0  0  0  0  0  0  0  0  0
  -49.9577  -27.1429    6.5508 H   0  0  0  0  0  0  0  0  0  0  0  0
  1  2  2  0  0  0  0
  1  8  1  0  0  0  0
  2 10  1  0  0  0  0
  3  6  2  0  0  0  0
  3  9  1  0  0  0  0
  4  7  1  0  0  0  0
  4  8  2  0  0  0  0
  5  7  1  0  0  0  0
  5 12  2  0  0  0  0
  6 23  1  0  0  0  0
  7 10  2  0  0  0  0
  8 14  1  0  0  0  0
  9 11  2  0  0  0  0
  9 17  1  0  0  0  0
 10 24  1  0  0  0  0
 11 22  1  0  0  0  0
 11 23  1  0  0  0  0
 12 24  1  0  0  0  0
 12 29  1  0  0  0  0
 13 16  1  0  0  0  0
 13 22  2  0  0  0  0
 14 25  1  0  0  0  0
 14 27  2  0  0  0  0
 15 17  1  0  0  0  0
 15 26  1  0  0  0  0
 15 28  2  0  0  0  0
 16 17  1  0  0  0  0
 18 21  1  0  0  0  0
 19 20  1  0  0  0  0
 19 21  1  0  0  0  0
 20 25  1  0  0  0  0
 21 26  1  0  0  0  0
  1 30  1  0  0  0  0
  2 31  1  0  0  0  0
  3 32  1  0  0  0  0
  4 33  1  0  0  0  0
  5 34  1  0  0  0  0
  6 35  1  0  0  0  0
 13 36  1  0  0  0  0
 16 37  1  0  0  0  0
 16 38  1  0  0  0  0
 17 39  1  0  0  0  0
 18 40  1  0  0  0  0
 18 41  1  0  0  0  0
 18 42  1  0  0  0  0
 19 43  1  0  0  0  0
 19 44  1  0  0  0  0
 20 45  1  0  0  0  0
 20 46  1  0  0  0  0
 21 47  1  0  0  0  0
 23 48  1  0  0  0  0
 24 49  1  0  0  0  0
 25 50  1  0  0  0  0
 26 51  1  0  0  0  0
 29 52  1  0  0  0  0
M  END
> <POSIT::Probability>
0.33

> <POSIT::Method>
HYBRID

> <ReceptorTitle>
UCSF-P4528-REFINED_LIGAND-BOUND-STATE_A__DU__LA1_A-201(A)

> <OMEGA_C>
tU8wwnKu7sHDZ8ZAWkg0wqJS7cFIZuVAC+89wgtgBcLA2A0+gaw1wtdr5cGBPpFAEN0+wlsD38FF
Wq9A7gM+woW8CsKAx+w+Abw5wkrz48Fc969A/vwwwpTM6sHr95xA1mA5wsaHBMLYbiy/nfI4wpPt
58EAP9lA7NU2widjCcLAk1S/cAxBwm0S4MGBiNdAVZAwwo2jBsJgCBDAjLAswhhf7MG2j3lAY6M0
wmVO+MGQlY6+vh0zwnsdAcKgmBnAcDc3wq9I/8Fg+Ke/7iQuwo/W3cGIInW/Iroqwq/Y68HwoiM/
y5AowmNf5cEU2ug/H7kvwsgc58EA3ym9P1wywi+VCsIAm8O/uKw5wtohDcIgdQO+sHM9wgJ25cEu
lvBAMnQswrrV5MEZgThAqn8ywhUU78GAalO/B7IpwvId9MGOE4BAf3g0wurf+sFwH2g/B7FFwjfl
3MGrhedA0qYsws3Z8sHRLM9AIcEzwr1Z8MFc1AJBidRAwrZtAsIQEeo+zjE2wg5l4sGjz2FApL9A
wlEb28FrZ5RAtsRAwkIPDcJAtYc/LvYswudeB8LQHDfAGeMvwqVR/MFIsh3AhRc1wsglAcJuVVjA
0XU6wjyX+sGAQ+G/xmMrwj2T4MFoZN6/2agxwgFw2sHkZ7q/MCoswi1q18Gw3cy++KsrwhD288HQ
MX0/rYMnwim27MHAstC9kGsnwl9I3cG43ME/kPIkwhNB6cGb/AxAE3gywk4F5MFgYjg/b704wkwO
EcIA2Xm92gU+wpxY58G02QdB7zsvwpLs3sEAKzVACcQywkfd7cFw9em/p9RHwq4k2cFFoNFA

> <OMEGA_E>
G5PswA==

> <OMEGA_NBR>
    186311

$$$$
CACHE3HI_1718_51
  -OEChem-03092622573D

 42 44  0     1  0  0  0  0  0999 V2000
  -45.8976  -28.9282    4.3291 C   0  0  0  0  0  0  0  0  0  0  0  0
  -47.0354  -28.8304    5.1222 C   0  0  0  0  0  0  0  0  0  0  0  0
  -44.6370  -29.4098    6.2877 C   0  0  0  0  0  0  0  0  0  0  0  0
  -44.6715  -29.2231    4.9148 C   0  0  0  0  0  0  0  0  0  0  0  0
  -46.8954  -29.0347    6.4854 C   0  0  0  0  0  0  0  0  0  0  0  0
  -43.4497  -29.3335    4.1028 C   0  0  0  0  0  0  0  0  0  0  0  0
  -49.3778  -29.2158    6.9168 C   0  0  0  0  0  0  0  0  0  0  0  0
  -52.2748  -30.5509    8.1474 C   0  0  0  0  0  0  0  0  0  0  0  0
  -52.4785  -29.4671    9.1632 C   0  0  0  0  0  0  0  0  0  0  0  0
  -43.5738  -26.6916    1.5332 C   0  0  0  0  0  0  0  0  0  0  0  0
  -44.0607  -27.2884    2.8433 C   0  0  0  0  0  0  0  0  0  0  0  0
  -42.7075  -28.9161    1.6965 C   0  0  0  0  0  0  0  0  0  0  0  0
  -51.6688  -29.1922    7.9261 C   0  0  0  0  0  0  0  0  0  0  0  0
  -43.2458  -27.9155    0.6710 C   0  0  1  0  0  0  0  0  0  0  0  0
  -44.4706  -28.4472   -0.0716 C   0  0  0  0  0  0  0  0  0  0  0  0
  -45.7214  -29.3228    7.0904 N   0  0  0  0  0  0  0  0  0  0  0  0
  -43.3738  -28.5658    2.9500 N   0  0  0  0  0  0  0  0  0  0  0  0
  -48.0469  -28.9341    7.2754 N   0  0  0  0  0  0  0  0  0  0  0  0
  -50.2393  -28.9885    7.9949 N   0  0  0  0  0  0  0  0  0  0  0  0
  -42.5713  -30.0929    4.5052 O   0  0  0  0  0  0  0  0  0  0  0  0
  -49.7639  -29.6087    5.8186 O   0  0  0  0  0  0  0  0  0  0  0  0
  -42.2421  -27.5726   -0.2723 O   0  0  0  0  0  0  0  0  0  0  0  0
  -44.9709  -27.5008   -0.8841 F   0  0  0  0  0  0  0  0  0  0  0  0
  -45.4246  -28.8106    0.8024 F   0  0  0  0  0  0  0  0  0  0  0  0
  -44.1380  -29.5171   -0.8136 F   0  0  0  0  0  0  0  0  0  0  0  0
  -45.9769  -28.7729    3.2564 H   0  0  0  0  0  0  0  0  0  0  0  0
  -47.9961  -28.6005    4.6729 H   0  0  0  0  0  0  0  0  0  0  0  0
  -43.7099  -29.6434    6.8024 H   0  0  0  0  0  0  0  0  0  0  0  0
  -51.6196  -31.3718    8.4121 H   0  0  0  0  0  0  0  0  0  0  0  0
  -53.1205  -30.8313    7.5316 H   0  0  0  0  0  0  0  0  0  0  0  0
  -53.4614  -29.0176    9.2319 H   0  0  0  0  0  0  0  0  0  0  0  0
  -51.9600  -29.5603   10.1095 H   0  0  0  0  0  0  0  0  0  0  0  0
  -44.3781  -26.0953    1.0782 H   0  0  0  0  0  0  0  0  0  0  0  0
  -42.7043  -26.0409    1.6938 H   0  0  0  0  0  0  0  0  0  0  0  0
  -43.7612  -26.6782    3.7029 H   0  0  0  0  0  0  0  0  0  0  0  0
  -45.1457  -27.4272    2.8755 H   0  0  0  0  0  0  0  0  0  0  0  0
  -42.9904  -29.9496    1.4581 H   0  0  0  0  0  0  0  0  0  0  0  0
  -41.6198  -28.8595    1.8255 H   0  0  0  0  0  0  0  0  0  0  0  0
  -52.1333  -28.5693    7.1695 H   0  0  0  0  0  0  0  0  0  0  0  0
  -47.9018  -28.6146    8.2372 H   0  0  0  0  0  0  0  0  0  0  0  0
  -49.8429  -28.6965    8.8829 H   0  0  0  0  0  0  0  0  0  0  0  0
  -41.4693  -27.2915    0.2401 H   0  0  0  0  0  0  0  0  0  0  0  0
  1  2  1  0  0  0  0
  1  4  2  0  0  0  0
  2  5  2  0  0  0  0
  3  4  1  0  0  0  0
  3 16  2  0  0  0  0
  4  6  1  0  0  0  0
  5 16  1  0  0  0  0
  5 18  1  0  0  0  0
  6 17  1  0  0  0  0
  6 20  2  0  0  0  0
  7 18  1  0  0  0  0
  7 19  1  0  0  0  0
  7 21  2  0  0  0  0
  8  9  1  0  0  0  0
  8 13  1  0  0  0  0
  9 13  1  0  0  0  0
 10 11  1  0  0  0  0
 10 14  1  0  0  0  0
 11 17  1  0  0  0  0
 12 14  1  0  0  0  0
 12 17  1  0  0  0  0
 13 19  1  0  0  0  0
 14 15  1  0  0  0  0
 14 22  1  0  0  0  0
 15 23  1  0  0  0  0
 15 24  1  0  0  0  0
 15 25  1  0  0  0  0
  1 26  1  0  0  0  0
  2 27  1  0  0  0  0
  3 28  1  0  0  0  0
  8 29  1  0  0  0  0
  8 30  1  0  0  0  0
  9 31  1  0  0  0  0
  9 32  1  0  0  0  0
 10 33  1  0  0  0  0
 10 34  1  0  0  0  0
 11 35  1  0  0  0  0
 11 36  1  0  0  0  0
 12 37  1  0  0  0  0
 12 38  1  0  0  0  0
 13 39  1  0  0  0  0
 18 40  1  0  0  0  0
 19 41  1  0  0  0  0
 22 42  1  0  0  0  0
M  END
> <POSIT::Probability>
0.23

> <POSIT::Method>
HYBRID

> <ReceptorTitle>
UCSF-P4528-REFINED_LIGAND-BOUND-STATE_A__DU__LA1_A-201(A)

> <OMEGA_C>
I5c3wvls58Hth4pAQCQ8wqKk5sHX6KNASYwywllH68E4NclAqq8ywujI6cEdRp1A75Q7wv9G6MGN
iM9Ag8wtwhir6sEcSoNA4oJFwgi66cFgVt1AXBlRwkRo9MHXWwJB+elRwrK868FInBJBnksuwmGI
1cGkP8Q/Ij4wwoxO2sFC+DVActQqwhZU58EMJtk/1qxOwpiJ6cHDov1AsvsswuNS38EYySs/8OEx
wsyT48GAppK9u+I2wiOV6sHX5OJAuX4twrmG5MEQzDxACDBAwg9558Hcz+hADPVIwnLo58GX1v9A
9kgqwiq+8MF2KpBAPQ5Hwpfe7MHWMbpA9Pcowr6U3MHYb4u+MOIzwrUB3MEUVGK/wLI1whZ85sFw
Z00/UI0wwgwj7MFIRlC/Weg3ws0u5sFgaVBA/fs/wr7N5MEEiJVA79Yuwrgl7cEyrdlAbXpOwn/5
+sHolwZBX3tUwmym9sHZAvFAgNhVwhUk6MHftRNBFtdPwoh77MGQwCFBIIMxwjHD0MGYA4o/KdEq
wr5T0MH0ztg/cQsvwgRt1cEW/GxAK5U0wvJq28FaCDhAMvYrwt+Y78Fkobo/pHomwjXg5sHMqek/
gIhQwt+N5MFEbOVAfJs/wsjq5MGRywNBLF9HwnqS5cGOIA5BieAlwgFV2sHA4XU+

> <OMEGA_E>
/o0wwQ==

> <OMEGA_NBR>
    187648

$$$$
CACHE3HI_1718_80
  -OEChem-03092622573D

 45 47  0     1  0  0  0  0  0999 V2000
  -46.0985  -29.4544    3.9852 C   0  0  0  0  0  0  0  0  0  0  0  0
  -47.1294  -29.2427    4.8938 C   0  0  0  0  0  0  0  0  0  0  0  0
  -44.5578  -29.3833    5.7958 C   0  0  0  0  0  0  0  0  0  0  0  0
  -44.7853  -29.5274    4.4362 C   0  0  0  0  0  0  0  0  0  0  0  0
  -46.7974  -29.1115    6.2326 C   0  0  0  0  0  0  0  0  0  0  0  0
  -43.6727  -29.7506    3.4999 C   0  0  0  0  0  0  0  0  0  0  0  0
  -49.2202  -28.7968    6.8742 C   0  0  0  0  0  0  0  0  0  0  0  0
  -52.2790  -29.6384    8.1489 C   0  0  0  0  0  0  0  0  0  0  0  0
  -52.1544  -28.7449    9.3464 C   0  0  0  0  0  0  0  0  0  0  0  0
  -43.3129  -26.7083    1.4474 C   0  0  0  0  0  0  0  0  0  0  0  0
  -43.8520  -27.4196    2.6774 C   0  0  0  0  0  0  0  0  0  0  0  0
  -42.9907  -29.0592    1.1393 C   0  0  0  0  0  0  0  0  0  0  0  0
  -51.3747  -28.4376    8.0977 C   0  0  0  0  0  0  0  0  0  0  0  0
  -43.3339  -27.7877    0.3596 C   0  0  1  0  0  0  0  0  0  0  0  0
  -42.2622  -26.1137   -0.8826 C   0  0  0  0  0  0  0  0  0  0  0  0
  -44.6901  -27.8823   -0.3378 C   0  0  0  0  0  0  0  0  0  0  0  0
  -45.5337  -29.1766    6.7083 N   0  0  0  0  0  0  0  0  0  0  0  0
  -43.4826  -28.8142    2.4943 N   0  0  0  0  0  0  0  0  0  0  0  0
  -47.8424  -28.8988    7.1396 N   0  0  0  0  0  0  0  0  0  0  0  0
  -49.9371  -28.5828    8.0560 N   0  0  0  0  0  0  0  0  0  0  0  0
  -42.9779  -30.7487    3.6766 O   0  0  0  0  0  0  0  0  0  0  0  0
  -49.7528  -28.8798    5.7701 O   0  0  0  0  0  0  0  0  0  0  0  0
  -42.3329  -27.5039   -0.6060 O   0  0  0  0  0  0  0  0  0  0  0  0
  -44.9971  -26.7116   -0.9219 F   0  0  0  0  0  0  0  0  0  0  0  0
  -45.6517  -28.1836    0.5513 F   0  0  0  0  0  0  0  0  0  0  0  0
  -44.6633  -28.8383   -1.2818 F   0  0  0  0  0  0  0  0  0  0  0  0
  -46.3288  -29.5610    2.9285 H   0  0  0  0  0  0  0  0  0  0  0  0
  -48.1570  -29.1844    4.5499 H   0  0  0  0  0  0  0  0  0  0  0  0
  -43.5546  -29.4319    6.2084 H   0  0  0  0  0  0  0  0  0  0  0  0
  -51.8288  -30.6219    8.2060 H   0  0  0  0  0  0  0  0  0  0  0  0
  -53.2015  -29.5984    7.5828 H   0  0  0  0  0  0  0  0  0  0  0  0
  -52.9929  -28.1033    9.5873 H   0  0  0  0  0  0  0  0  0  0  0  0
  -51.6205  -29.1285   10.2072 H   0  0  0  0  0  0  0  0  0  0  0  0
  -43.9773  -25.8726    1.1838 H   0  0  0  0  0  0  0  0  0  0  0  0
  -42.3061  -26.3102    1.6301 H   0  0  0  0  0  0  0  0  0  0  0  0
  -43.3680  -27.0662    3.5948 H   0  0  0  0  0  0  0  0  0  0  0  0
  -44.9354  -27.3170    2.7930 H   0  0  0  0  0  0  0  0  0  0  0  0
  -43.5237  -29.9392    0.7563 H   0  0  0  0  0  0  0  0  0  0  0  0
  -41.9151  -29.2717    1.1673 H   0  0  0  0  0  0  0  0  0  0  0  0
  -51.7167  -27.5954    7.5059 H   0  0  0  0  0  0  0  0  0  0  0  0
  -41.4842  -25.9284   -1.6277 H   0  0  0  0  0  0  0  0  0  0  0  0
  -43.2259  -25.7795   -1.2744 H   0  0  0  0  0  0  0  0  0  0  0  0
  -42.0373  -25.5693    0.0375 H   0  0  0  0  0  0  0  0  0  0  0  0
  -47.5689  -28.8054    8.1217 H   0  0  0  0  0  0  0  0  0  0  0  0
  -49.4312  -28.5595    8.9360 H   0  0  0  0  0  0  0  0  0  0  0  0
  1  2  2  0  0  0  0
  1  4  1  0  0  0  0
  2  5  1  0  0  0  0
  3  4  2  0  0  0  0
  3 17  1  0  0  0  0
  4  6  1  0  0  0  0
  5 17  2  0  0  0  0
  5 19  1  0  0  0  0
  6 18  1  0  0  0  0
  6 21  2  0  0  0  0
  7 19  1  0  0  0  0
  7 20  1  0  0  0  0
  7 22  2  0  0  0  0
  8  9  1  0  0  0  0
  8 13  1  0  0  0  0
  9 13  1  0  0  0  0
 10 11  1  0  0  0  0
 10 14  1  0  0  0  0
 11 18  1  0  0  0  0
 12 14  1  0  0  0  0
 12 18  1  0  0  0  0
 13 20  1  0  0  0  0
 14 16  1  0  0  0  0
 14 23  1  0  0  0  0
 15 23  1  0  0  0  0
 16 24  1  0  0  0  0
 16 25  1  0  0  0  0
 16 26  1  0  0  0  0
  1 27  1  0  0  0  0
  2 28  1  0  0  0  0
  3 29  1  0  0  0  0
  8 30  1  0  0  0  0
  8 31  1  0  0  0  0
  9 32  1  0  0  0  0
  9 33  1  0  0  0  0
 10 34  1  0  0  0  0
 10 35  1  0  0  0  0
 11 36  1  0  0  0  0
 11 37  1  0  0  0  0
 12 38  1  0  0  0  0
 12 39  1  0  0  0  0
 13 40  1  0  0  0  0
 15 41  1  0  0  0  0
 15 42  1  0  0  0  0
 15 43  1  0  0  0  0
 19 44  1  0  0  0  0
 20 45  1  0  0  0  0
M  END
> <POSIT::Probability>
0.33

> <POSIT::Method>
HYBRID

> <ReceptorTitle>
UCSF-P4528-REFINED_LIGAND-BOUND-STATE_A__DU__LA1_A-201(A)

> <OMEGA_C>
3GQ4wpui68HqDH9AfYQ8whnx6cHtmZxAKDsywhgR68F1d7lAKyQzwhI47MGr9Y1AgTA7wmLk6MEg
ccdA2rAuwjcB7sGG/l9AhuFEwt5f5sFq+dtAsh1RwnQb7cH4YQJBD55Qwp715cHUihVBZkAtwoaq
1cF0Q7k/dWgvwkRb28G8WStAgfYrwjR56MHI1JE/uH9NwiiA48FCkAFB7FUtwiNN3sFgHLg+eAwp
wu3o0MHg8GG/pMIywtwO38Gg8ay+hSI2wrVp6cGiqtZAKO4twoiD5sH+oR9AnV4/wqsw58FEd+RA
k79Hwpqp5MFG5QBBWOkrwkz99cHYTGtA4gJHwsgJ58H8pLhA5FQpwgII3MFQIBu/A/0zwkux1cF4
AGy/UJs2wu934cGoHw0/O6cywuq05sGQEaS/tFA5wtt87MHiaztAw6BAwpl56cGQmJFA6TcuwpZ0
68Fkq8ZAvlBPwsD59MGtSwNBWc5UwmzJ7MGjpvJAwPhTwnjT4MF6ZRlBY3tOwhgH6cGdUCNBzegv
whb7zsEoh5c/fjkpwjV70sG4pdA/2XgtwqiH2MH6EWZAz70zwiOJ2sFkwDJATRguwnSD78EwnEE/
Daknwnks6sGYapU/4d1OwnrD3MG6MPBAye8lwk5tz8EmWNC/TucswoQ8zsEcH6O/MyYowgeOzMGA
dBk9jEY+wn9x5sGu8gFBiLlFwuh55MHO+Q5B

> <OMEGA_E>
dkIWwQ==

> <OMEGA_NBR>
    189045

$$$$
CACHE3HI_1718_91
  -OEChem-03092622573D

 38 40  0     1  0  0  0  0  0999 V2000
  -46.8223  -28.6573    4.8647 C   0  0  0  0  0  0  0  0  0  0  0  0
  -47.0934  -28.7019    6.2365 C   0  0  0  0  0  0  0  0  0  0  0  0
  -49.1906  -28.8057    4.3187 C   0  0  0  0  0  0  0  0  0  0  0  0
  -47.8517  -28.7089    3.9219 C   0  0  0  0  0  0  0  0  0  0  0  0
  -49.4807  -28.8512    5.6926 C   0  0  0  0  0  0  0  0  0  0  0  0
  -48.4342  -28.7983    6.6091 C   0  0  0  0  0  0  0  0  0  0  0  0
  -50.3968  -28.9486    7.6193 C   0  0  0  0  0  0  0  0  0  0  0  0
  -47.5223  -28.6598    2.4747 C   0  0  0  0  0  0  0  0  0  0  0  0
  -44.1572  -28.7313   -0.8429 C   0  0  0  0  0  0  0  0  0  0  0  0
  -42.8906  -28.1957   -0.2207 C   0  0  0  0  0  0  0  0  0  0  0  0
  -45.0257  -29.0321    0.3679 C   0  0  2  0  0  0  0  0  0  0  0  0
  -42.7877  -28.9893    1.0709 C   0  0  2  0  0  0  0  0  0  0  0  0
  -45.9000  -27.8554    0.7786 C   0  0  0  0  0  0  0  0  0  0  0  0
  -41.9900  -30.2773    0.9147 C   0  0  0  0  0  0  0  0  0  0  0  0
  -50.6928  -28.9443    6.3384 N   0  0  0  0  0  0  0  0  0  0  0  0
  -49.0498  -28.8626    7.8332 N   0  0  0  0  0  0  0  0  0  0  0  0
  -51.2123  -29.0227    8.6942 N   0  0  0  0  0  0  0  0  0  0  0  0
  -46.3490  -28.0086    2.1572 N   0  0  0  0  0  0  0  0  0  0  0  0
  -48.2951  -29.1667    1.6659 O   0  0  0  0  0  0  0  0  0  0  0  0
  -44.1307  -29.3320    1.4527 O   0  0  0  0  0  0  0  0  0  0  0  0
  -42.0144  -30.9882    2.0567 F   0  0  0  0  0  0  0  0  0  0  0  0
  -40.7082  -30.0036    0.6111 F   0  0  0  0  0  0  0  0  0  0  0  0
  -42.5078  -31.0355   -0.0689 F   0  0  0  0  0  0  0  0  0  0  0  0
  -45.7869  -28.5807    4.5388 H   0  0  0  0  0  0  0  0  0  0  0  0
  -46.2969  -28.6617    6.9708 H   0  0  0  0  0  0  0  0  0  0  0  0
  -49.9913  -28.8459    3.5861 H   0  0  0  0  0  0  0  0  0  0  0  0
  -44.6151  -27.9538   -1.4749 H   0  0  0  0  0  0  0  0  0  0  0  0
  -43.9900  -29.6146   -1.4748 H   0  0  0  0  0  0  0  0  0  0  0  0
  -42.0364  -28.4067   -0.8836 H   0  0  0  0  0  0  0  0  0  0  0  0
  -42.9165  -27.1103   -0.0508 H   0  0  0  0  0  0  0  0  0  0  0  0
  -45.6421  -29.9090    0.1971 H   0  0  0  0  0  0  0  0  0  0  0  0
  -42.3623  -28.3858    1.8663 H   0  0  0  0  0  0  0  0  0  0  0  0
  -45.3343  -26.9215    0.6857 H   0  0  0  0  0  0  0  0  0  0  0  0
  -46.7698  -27.7855    0.1157 H   0  0  0  0  0  0  0  0  0  0  0  0
  -48.5895  -28.8492    8.7334 H   0  0  0  0  0  0  0  0  0  0  0  0
  -52.2380  -29.0353    8.6019 H   0  0  0  0  0  0  0  0  0  0  0  0
  -50.8534  -28.9632    9.6577 H   0  0  0  0  0  0  0  0  0  0  0  0
  -45.7887  -27.5577    2.8646 H   0  0  0  0  0  0  0  0  0  0  0  0
  1  2  1  0  0  0  0
  1  4  2  0  0  0  0
  2  6  2  0  0  0  0
  3  4  1  0  0  0  0
  3  5  2  0  0  0  0
  4  8  1  0  0  0  0
  5  6  1  0  0  0  0
  5 15  1  0  0  0  0
  6 16  1  0  0  0  0
  7 15  2  0  0  0  0
  7 16  1  0  0  0  0
  7 17  1  0  0  0  0
  8 18  1  0  0  0  0
  8 19  2  0  0  0  0
  9 10  1  0  0  0  0
  9 11  1  0  0  0  0
 10 12  1  0  0  0  0
 11 13  1  0  0  0  0
 11 20  1  0  0  0  0
 12 14  1  0  0  0  0
 12 20  1  0  0  0  0
 13 18  1  0  0  0  0
 14 21  1  0  0  0  0
 14 22  1  0  0  0  0
 14 23  1  0  0  0  0
  1 24  1  0  0  0  0
  2 25  1  0  0  0  0
  3 26  1  0  0  0  0
  9 27  1  0  0  0  0
  9 28  1  0  0  0  0
 10 29  1  0  0  0  0
 10 30  1  0  0  0  0
 11 31  1  0  0  0  0
 12 32  1  0  0  0  0
 13 33  1  0  0  0  0
 13 34  1  0  0  0  0
 16 35  1  0  0  0  0
 17 36  1  0  0  0  0
 17 37  1  0  0  0  0
 18 38  1  0  0  0  0
M  END
> <POSIT::Probability>
0.24

> <POSIT::Method>
FRED

> <ReceptorTitle>
UCSF-P4528-REFINED_LIGAND-BOUND-STATE_A__DU__LA1_A-201(A)

> <OMEGA_C>
EUo7wiNC5cF5q5tAoF88womd5cEAkcdAKMNEwidy5sFxMopAK2g/wsCr5cGLAHtAOexFwi3P5sEp
KrZAobxBwvNi5sGpfdNAW5ZJwqaW58FP0fNA0xY+wlZH5cHdYR5A+KAwwp/Z5cE8xVe/748rwrKQ
4cHR/WG+SRo0wspB6MFoYrw+pCYrwgLq58HuE4k/kZk3wufX3sG0U0c/zfUnwv038sGgJmo/csVK
wuyN58El1MpA/zJEwpTm5sF1qfpAbNlMwmQu6MFbGwtBZWU5woYR4MFiEApAKy5Bwk1V6cHyOtU/
1IUwwuen6sF+8Lk/ug4owrzn98G1oQNAO9UiwlkH8MEEbhw/AwgqwqlI+MEiGI290CU3wlel5MF1
PZFAEDA5whVL5cHeEN9AF/dHwlHE5sGJgmVA4HUywmuh38EGyLy/vPUvwszq7MGuxLy/UyUowtJA
48F8NmK/c6orwtTh2MHEEFC9fpE2wrJF78EPzUk+BXMpwikW48HY4+4/T1Y1wlNf18G0hy8/QRQ7
wrRI3sEe9ew9mVtCwhHL5sEdvAtBtfNQwlhI6MFWoQlB3GlLwqa058HXhRpBmyc3wiR23MHDVTdA

> <OMEGA_E>
J5QbwQ==

> <OMEGA_NBR>
    190302

$$$$
CACHE3HI_1879_37
  -OEChem-03092622573D

 51 54  0     1  0  0  0  0  0999 V2000
  -46.0688  -32.1438    0.1101 C   0  0  0  0  0  0  0  0  0  0  0  0
  -46.0407  -33.5139   -0.1572 C   0  0  0  0  0  0  0  0  0  0  0  0
  -44.3734  -31.7367   -1.5889 C   0  0  0  0  0  0  0  0  0  0  0  0
  -46.4228  -28.3943    4.4292 C   0  0  0  0  0  0  0  0  0  0  0  0
  -44.3620  -33.0953   -1.8492 C   0  0  0  0  0  0  0  0  0  0  0  0
  -45.2404  -31.2615   -0.6024 C   0  0  0  0  0  0  0  0  0  0  0  0
  -45.1817  -33.9610   -1.1431 C   0  0  0  0  0  0  0  0  0  0  0  0
  -45.0605  -28.4090    4.2652 C   0  0  0  0  0  0  0  0  0  0  0  0
  -44.3155  -29.3523    0.7693 C   0  0  0  0  0  0  0  0  0  0  0  0
  -43.5187  -33.8650   -2.7900 C   0  0  0  0  0  0  0  0  0  0  0  0
  -51.2771  -29.6130    5.4177 C   0  0  0  0  0  0  0  0  0  0  0  0
  -50.3463  -28.8439    6.3474 C   0  0  0  0  0  0  0  0  0  0  0  0
  -50.3687  -30.2415    4.3693 C   0  0  0  0  0  0  0  0  0  0  0  0
  -49.0261  -28.7909    5.5934 C   0  0  1  0  0  0  0  0  0  0  0  0
  -44.2132  -35.2350   -2.7043 C   0  0  2  0  0  0  0  0  0  0  0  0
  -45.0942  -35.5263   -3.9171 C   0  0  0  0  0  0  0  0  0  0  0  0
  -45.2946  -29.7988   -0.3073 C   0  0  0  0  0  0  0  0  0  0  0  0
  -44.2581  -28.2617    3.0043 C   0  0  0  0  0  0  0  0  0  0  0  0
  -47.8214  -28.6357    6.5051 C   0  0  0  0  0  0  0  0  0  0  0  0
  -44.4531  -28.5892    5.4768 N   0  0  0  0  0  0  0  0  0  0  0  0
  -45.4044  -28.6882    6.3988 N   0  0  0  0  0  0  0  0  0  0  0  0
  -46.5847  -28.5712    5.7691 N   0  0  0  0  0  0  0  0  0  0  0  0
  -49.0146  -30.0766    4.8933 N   0  0  0  0  0  0  0  0  0  0  0  0
  -44.9628  -28.7741    1.8522 N   0  0  0  0  0  0  0  0  0  0  0  0
  -43.0995  -29.4921    0.6668 O   0  0  0  0  0  0  0  0  0  0  0  0
  -45.0440  -35.2736   -1.5134 O   0  0  0  0  0  0  0  0  0  0  0  0
  -46.7420  -31.7647    0.8748 H   0  0  0  0  0  0  0  0  0  0  0  0
  -46.6728  -34.1997    0.3959 H   0  0  0  0  0  0  0  0  0  0  0  0
  -43.7299  -31.0608   -2.1426 H   0  0  0  0  0  0  0  0  0  0  0  0
  -47.2501  -28.2777    3.7434 H   0  0  0  0  0  0  0  0  0  0  0  0
  -43.5803  -33.4291   -3.7952 H   0  0  0  0  0  0  0  0  0  0  0  0
  -42.4691  -33.9270   -2.4807 H   0  0  0  0  0  0  0  0  0  0  0  0
  -51.8317  -30.3733    5.9782 H   0  0  0  0  0  0  0  0  0  0  0  0
  -52.0046  -28.9434    4.9466 H   0  0  0  0  0  0  0  0  0  0  0  0
  -50.7325  -27.8448    6.5734 H   0  0  0  0  0  0  0  0  0  0  0  0
  -50.2464  -29.3855    7.2965 H   0  0  0  0  0  0  0  0  0  0  0  0
  -50.6079  -31.2951    4.1957 H   0  0  0  0  0  0  0  0  0  0  0  0
  -50.4640  -29.7151    3.4127 H   0  0  0  0  0  0  0  0  0  0  0  0
  -49.0343  -27.9763    4.8609 H   0  0  0  0  0  0  0  0  0  0  0  0
  -43.4678  -36.0343   -2.6031 H   0  0  0  0  0  0  0  0  0  0  0  0
  -45.8431  -34.7418   -4.0352 H   0  0  0  0  0  0  0  0  0  0  0  0
  -45.6042  -36.4825   -3.7905 H   0  0  0  0  0  0  0  0  0  0  0  0
  -44.4860  -35.5703   -4.8227 H   0  0  0  0  0  0  0  0  0  0  0  0
  -45.0862  -29.2135   -1.2174 H   0  0  0  0  0  0  0  0  0  0  0  0
  -46.3106  -29.5125    0.0092 H   0  0  0  0  0  0  0  0  0  0  0  0
  -44.0246  -27.2085    2.8163 H   0  0  0  0  0  0  0  0  0  0  0  0
  -43.3061  -28.7974    3.0798 H   0  0  0  0  0  0  0  0  0  0  0  0
  -47.7552  -29.4760    7.2046 H   0  0  0  0  0  0  0  0  0  0  0  0
  -47.9064  -27.7214    7.1039 H   0  0  0  0  0  0  0  0  0  0  0  0
  -48.8309  -30.8213    5.5671 H   0  0  0  0  0  0  0  0  0  0  0  0
  -45.9736  -28.6710    1.8315 H   0  0  0  0  0  0  0  0  0  0  0  0
  1  2  2  0  0  0  0
  1  6  1  0  0  0  0
  2  7  1  0  0  0  0
  3  5  1  0  0  0  0
  3  6  2  0  0  0  0
  4  8  2  0  0  0  0
  4 22  1  0  0  0  0
  5  7  2  0  0  0  0
  5 10  1  0  0  0  0
  6 17  1  0  0  0  0
  7 26  1  0  0  0  0
  8 18  1  0  0  0  0
  8 20  1  0  0  0  0
  9 17  1  0  0  0  0
  9 24  1  0  0  0  0
  9 25  2  0  0  0  0
 10 15  1  0  0  0  0
 11 12  1  0  0  0  0
 11 13  1  0  0  0  0
 12 14  1  0  0  0  0
 13 23  1  0  0  0  0
 14 19  1  0  0  0  0
 14 23  1  0  0  0  0
 15 16  1  0  0  0  0
 15 26  1  0  0  0  0
 18 24  1  0  0  0  0
 19 22  1  0  0  0  0
 20 21  2  0  0  0  0
 21 22  1  0  0  0  0
  1 27  1  0  0  0  0
  2 28  1  0  0  0  0
  3 29  1  0  0  0  0
  4 30  1  0  0  0  0
 10 31  1  0  0  0  0
 10 32  1  0  0  0  0
 11 33  1  0  0  0  0
 11 34  1  0  0  0  0
 12 35  1  0  0  0  0
 12 36  1  0  0  0  0
 13 37  1  0  0  0  0
 13 38  1  0  0  0  0
 14 39  1  0  0  0  0
 15 40  1  0  0  0  0
 16 41  1  0  0  0  0
 16 42  1  0  0  0  0
 16 43  1  0  0  0  0
 17 44  1  0  0  0  0
 17 45  1  0  0  0  0
 18 46  1  0  0  0  0
 18 47  1  0  0  0  0
 19 48  1  0  0  0  0
 19 49  1  0  0  0  0
 23 50  1  0  0  0  0
 24 51  1  0  0  0  0
M  END
> <POSIT::Probability>
0.18

> <POSIT::Method>
HYBRID

> <ReceptorTitle>
UCSF-P4528-REFINED_LIGAND-BOUND-STATE_A__DU__LA1_A-201(A)

> <OMEGA_C>
eEY4wkOTAMIUaOE9uik4wj4OBsI6/iC+W34xwsrk/cHGX8u/87A5wpYn48EQvI1AvXIxwqNhBMKT
sey/MPY0wqYX+sHsNhq/Fbo0whfYB8LxUJK/7T00wphF48HIfIhADEMxwmrR6sEo80Q/GxMuwsl1
B8IbkDLAvBtNwnzn7MG8Xa1AnWJJwlzA5sFHHstAiHlJwoDu8cF90YtAwxpEwsFT5sHM/LJARNow
wprwDMI9Ey3AgmA0wvsaDsL9sHrArC01wuRj7sEoVJ2+RQgxwu0X4sHXRkBAKEk/wtEV5cH3KdBA
+M8xwqS25MGYQa9AGJ41woWB5cEcw8xAsFY6wsWR5MFnnLhA6Q5Ewvec8MEdlpxA8tkzwmYx5sEw
Fu0/5WUswrnv68EYsSo/Di00wjcYDcI8uMG/2vc6whYe/sEU9F8//bA6woHMCMIpsso+a+suwpN8
+MH9IAnADwA9wsw44sGfk29AN1IuwnK3BcL143LAXuApwku1B8JHxB7ArFNPwn/88sE3Tb9AvQRQ
wv6L58G4Sp5AIO5KwhrC3sGKWdJARfxIwnwV68HffOlAim5Kwktc+sEMQ4ZAHNtJwnu47cEbaVpA
FCNEwmrP38HhjJtACN8twikjEMJLmSbAWV83wp73CsIyIIHAumo2whPuEcIDl3LAqvExwv9HDsJB
U5rASlg0wkS16cHr0pu/Gz45woQZ7MEg6hY8Nhkwwuqq2cGdPjRAazktwhph5sGXG0VASgU/wt3O
68HNi+ZANKA/wofF3cE+U+NA2lJDwvqR9sEJJrJA+uQ3wiZe5cG6beo/

> <OMEGA_E>
Guq0wA==

> <OMEGA_NBR>
    191825

$$$$
CACHE3HI_1879_9
  -OEChem-03092622573D

 57 61  0     0  0  0  0  0  0999 V2000
  -44.6452  -33.3840   -1.5320 C   0  0  0  0  0  0  0  0  0  0  0  0
  -49.3914  -29.7801    5.8454 C   0  0  0  0  0  0  0  0  0  0  0  0
  -44.0488  -32.9759   -0.3390 C   0  0  0  0  0  0  0  0  0  0  0  0
  -45.6906  -32.6398   -2.0787 C   0  0  0  0  0  0  0  0  0  0  0  0
  -50.3111  -29.9350    4.8081 C   0  0  0  0  0  0  0  0  0  0  0  0
  -48.2036  -29.0830    5.6251 C   0  0  0  0  0  0  0  0  0  0  0  0
  -44.4972  -31.8238    0.3071 C   0  0  0  0  0  0  0  0  0  0  0  0
  -46.1390  -31.4876   -1.4326 C   0  0  0  0  0  0  0  0  0  0  0  0
  -50.0433  -29.3927    3.5511 C   0  0  0  0  0  0  0  0  0  0  0  0
  -47.9358  -28.5407    4.3681 C   0  0  0  0  0  0  0  0  0  0  0  0
  -46.1454  -27.9005    1.3540 C   0  0  0  0  0  0  0  0  0  0  0  0
  -45.8215  -23.8941   -1.6561 C   0  0  0  0  0  0  0  0  0  0  0  0
  -45.5426  -31.0795   -0.2396 C   0  0  0  0  0  0  0  0  0  0  0  0
  -48.8554  -28.6956    3.3309 C   0  0  0  0  0  0  0  0  0  0  0  0
  -45.2558  -28.7345    0.7214 C   0  0  0  0  0  0  0  0  0  0  0  0
  -46.0054  -29.8892    0.4270 C   0  0  0  0  0  0  0  0  0  0  0  0
  -44.5781  -23.4030   -1.9780 C   0  0  0  0  0  0  0  0  0  0  0  0
  -45.9291  -21.7901   -2.3522 C   0  0  0  0  0  0  0  0  0  0  0  0
  -46.6261  -20.5875   -2.6696 C   0  0  0  0  0  0  0  0  0  0  0  0
  -47.9642  -20.5300   -2.5203 C   0  0  0  0  0  0  0  0  0  0  0  0
  -48.0740  -22.8137   -1.7372 C   0  0  0  0  0  0  0  0  0  0  0  0
  -48.7222  -21.6762   -2.0388 C   0  0  0  0  0  0  0  0  0  0  0  0
  -43.5523  -26.1631   -0.5327 C   0  0  0  0  0  0  0  0  0  0  0  0
  -48.5654  -28.1090    1.9716 C   0  0  0  0  0  0  0  0  0  0  0  0
  -43.8108  -28.4560    0.4214 C   0  0  0  0  0  0  0  0  0  0  0  0
  -43.2819  -24.0949   -1.9078 C   0  0  0  0  0  0  0  0  0  0  0  0
  -47.2728  -29.8004    0.8389 N   0  0  0  0  0  0  0  0  0  0  0  0
  -44.6502  -22.1025   -2.4077 N   0  0  0  0  0  0  0  0  0  0  0  0
  -46.6911  -22.8617   -1.8951 N   0  0  0  0  0  0  0  0  0  0  0  0
  -47.3273  -28.5798    1.3985 N   0  0  0  0  0  0  0  0  0  0  0  0
  -43.6551  -27.5430   -0.6880 N   0  0  0  0  0  0  0  0  0  0  0  0
  -43.4110  -25.5302   -1.7629 N   0  0  0  0  0  0  0  0  0  0  0  0
  -43.5819  -25.5818    0.5511 O   0  0  0  0  0  0  0  0  0  0  0  0
  -50.4277  -21.5380   -1.8707 Cl  0  0  0  0  0  0  0  0  0  0  0  0
  -44.2963  -34.2812   -2.0350 H   0  0  0  0  0  0  0  0  0  0  0  0
  -49.5998  -30.2023    6.8240 H   0  0  0  0  0  0  0  0  0  0  0  0
  -43.2361  -33.5560    0.0882 H   0  0  0  0  0  0  0  0  0  0  0  0
  -46.1551  -32.9572   -3.0077 H   0  0  0  0  0  0  0  0  0  0  0  0
  -51.2363  -30.4775    4.9796 H   0  0  0  0  0  0  0  0  0  0  0  0
  -47.4873  -28.9624    6.4325 H   0  0  0  0  0  0  0  0  0  0  0  0
  -44.0219  -31.5193    1.2369 H   0  0  0  0  0  0  0  0  0  0  0  0
  -46.9548  -30.9181   -1.8720 H   0  0  0  0  0  0  0  0  0  0  0  0
  -50.7659  -29.5187    2.7490 H   0  0  0  0  0  0  0  0  0  0  0  0
  -47.0080  -27.9982    4.2064 H   0  0  0  0  0  0  0  0  0  0  0  0
  -46.0403  -26.9061    1.7662 H   0  0  0  0  0  0  0  0  0  0  0  0
  -46.1540  -24.8559   -1.2893 H   0  0  0  0  0  0  0  0  0  0  0  0
  -46.0691  -19.7292   -3.0291 H   0  0  0  0  0  0  0  0  0  0  0  0
  -48.4978  -19.6159   -2.7609 H   0  0  0  0  0  0  0  0  0  0  0  0
  -48.5674  -23.7078   -1.3735 H   0  0  0  0  0  0  0  0  0  0  0  0
  -49.3966  -28.3299    1.2885 H   0  0  0  0  0  0  0  0  0  0  0  0
  -48.5490  -27.0129    2.0378 H   0  0  0  0  0  0  0  0  0  0  0  0
  -43.3136  -28.0166    1.2926 H   0  0  0  0  0  0  0  0  0  0  0  0
  -43.2764  -29.3788    0.1729 H   0  0  0  0  0  0  0  0  0  0  0  0
  -42.6688  -23.9240   -2.8127 H   0  0  0  0  0  0  0  0  0  0  0  0
  -42.6634  -23.7504   -1.0576 H   0  0  0  0  0  0  0  0  0  0  0  0
  -43.6549  -27.9289   -1.6274 H   0  0  0  0  0  0  0  0  0  0  0  0
  -43.3976  -26.1022   -2.6004 H   0  0  0  0  0  0  0  0  0  0  0  0
  1  3  1  0  0  0  0
  1  4  2  0  0  0  0
  2  5  1  0  0  0  0
  2  6  2  0  0  0  0
  3  7  2  0  0  0  0
  4  8  1  0  0  0  0
  5  9  2  0  0  0  0
  6 10  1  0  0  0  0
  7 13  1  0  0  0  0
  8 13  2  0  0  0  0
  9 14  1  0  0  0  0
 10 14  2  0  0  0  0
 11 15  2  0  0  0  0
 11 30  1  0  0  0  0
 12 17  2  0  0  0  0
 12 29  1  0  0  0  0
 13 16  1  0  0  0  0
 14 24  1  0  0  0  0
 15 16  1  0  0  0  0
 15 25  1  0  0  0  0
 16 27  2  0  0  0  0
 17 26  1  0  0  0  0
 17 28  1  0  0  0  0
 18 19  1  0  0  0  0
 18 28  2  0  0  0  0
 18 29  1  0  0  0  0
 19 20  2  0  0  0  0
 20 22  1  0  0  0  0
 21 22  2  0  0  0  0
 21 29  1  0  0  0  0
 22 34  1  0  0  0  0
 23 31  1  0  0  0  0
 23 32  1  0  0  0  0
 23 33  2  0  0  0  0
 24 30  1  0  0  0  0
 25 31  1  0  0  0  0
 26 32  1  0  0  0  0
 27 30  1  0  0  0  0
  1 35  1  0  0  0  0
  2 36  1  0  0  0  0
  3 37  1  0  0  0  0
  4 38  1  0  0  0  0
  5 39  1  0  0  0  0
  6 40  1  0  0  0  0
  7 41  1  0  0  0  0
  8 42  1  0  0  0  0
  9 43  1  0  0  0  0
 10 44  1  0  0  0  0
 11 45  1  0  0  0  0
 12 46  1  0  0  0  0
 19 47  1  0  0  0  0
 20 48  1  0  0  0  0
 21 49  1  0  0  0  0
 24 50  1  0  0  0  0
 24 51  1  0  0  0  0
 25 52  1  0  0  0  0
 25 53  1  0  0  0  0
 26 54  1  0  0  0  0
 26 55  1  0  0  0  0
 31 56  1  0  0  0  0
 32 57  1  0  0  0  0
M  END
> <POSIT::Probability>
0.05

> <POSIT::Method>
FRED

> <ReceptorTitle>
UCSF-P4528-REFINED_LIGAND-BOUND-STATE_A__DU__LA1_A-201(A)

> <OMEGA_C>
uZQywjmJBcIQGcS/zpBFwrM97sE3DbtA7zEwwlfnA8Koi62+IMM2wh6PAsJMCQXAmD5JwvZ678FG
3JlAfNBAwuup6MH7ALRAKv0xwhmX/sGwQp0+W444wqfm+8H8Xre/WCxIwlgk68H3RGNAPL4/wkxT
5MEvx4tA55Q4wkQ038GiT60/N0k3wiwnv8Fc+9O/nis2wtyi+MFgUXW+9mtDwoSQ5cG5LFVA8AU1
wjTg5cEArjg/jAU4wgAd78EgpNo++k8ywkE5u8FMMP2/Ybc3whdSrsEtihbAKoE6wkOzpMF22irA
Vts/wlw9pMFwTCHA0ktAwmeCtsFcXd6/juNCwsxorcFcewLAlTUuwgdO0cEsXgi/9kJCwkvf4MHO
Xfw/Tj4vwtyl48EAx9c+qSAtwlPCwMFcM/S/Yxc9wiJn7sFcv1Y/2pkywujRsMEiFxrAuMM6wqzk
tsHMk/K/HE89wnej5MEuArM/0Z4uwhJY3MGcHzC/2KQtwuQ9zMGUpuG/3lMuwninzMGwFg0/7rVJ
wt1NrMHgc++/ai8xwu0fCcKCPQLAPGZGwlme8cEwXtpAwPEswlc5BsKgjbQ92Z44wjfUA8JZfkDA
7fFMwvbR88HVWJ9A/PI9wgaz58H/1s1AdhYwwpMn/MHCUZ4/stE7wkBY98EEnu+/PBBLwj0m7MFJ
8C9ANQg8wmX838HYmoZASSk4wpw/18FBFOI/sp04wtLYxsEKB6W/xEY4wlDVncFy3UHAyP1Bwljt
nMEOszDABEVCwoqpvcHEzq+/FZZFwpmj4sHg7aQ/JjJCwmIa2MHOagJAJEEtwg8i4MEAc6U/Bhst
wtUH68FAGDE+0Kwqwk1kv8GCAjTAVacqwr4AvsEUXoe/qZ4uwmBu38GMTtC/KJctwmfR0MFybCbA

> <OMEGA_E>
d+gCwQ==

> <OMEGA_NBR>
    193460

$$$$
CACHE3-HO_1714_16
  -OEChem-03092622523D

 57 60  0     1  0  0  0  0  0999 V2000
  -51.1149  -29.8061    7.3953 C   0  0  0  0  0  0  0  0  0  0  0  0
  -50.6479  -29.9171    6.0812 C   0  0  0  0  0  0  0  0  0  0  0  0
  -50.3534  -29.1514    8.3931 C   0  0  0  0  0  0  0  0  0  0  0  0
  -49.4053  -29.3126    5.9676 C   0  0  0  0  0  0  0  0  0  0  0  0
  -48.6525  -29.2311    4.8291 C   0  0  0  0  0  0  0  0  0  0  0  0
  -48.6510  -28.6561    6.9871 C   0  0  0  0  0  0  0  0  0  0  0  0
  -48.9047  -29.7228    3.4677 C   0  0  0  0  0  0  0  0  0  0  0  0
  -43.8355  -29.5104    1.7903 C   0  0  0  0  0  0  0  0  0  0  0  0
  -41.7408  -31.1665    3.2189 C   0  0  0  0  0  0  0  0  0  0  0  0
  -41.5452  -29.7030    2.8320 C   0  0  0  0  0  0  0  0  0  0  0  0
  -41.8051  -29.4979    0.2981 C   0  0  0  0  0  0  0  0  0  0  0  0
  -41.9172  -32.1889    2.1005 C   0  0  0  0  0  0  0  0  0  0  0  0
  -41.8095  -30.9657   -0.1227 C   0  0  0  0  0  0  0  0  0  0  0  0
  -46.6277  -29.7995    0.5661 C   0  0  0  0  0  0  0  0  0  0  0  0
  -46.6570  -28.7821    2.7267 C   0  0  0  0  0  0  0  0  0  0  0  0
  -42.3808  -29.1594    1.6745 C   0  0  1  0  0  0  0  0  0  0  0  0
  -41.0918  -31.9334    0.8324 C   0  0  2  0  0  0  0  0  0  0  0  0
  -46.0874  -28.5898    1.3275 C   0  0  1  0  0  0  0  0  0  0  0  0
  -48.0408  -29.9661    1.1367 C   0  0  2  0  0  0  0  0  0  0  0  0
  -40.8635  -33.2664    0.1041 C   0  0  0  0  0  0  0  0  0  0  0  0
  -49.0741  -29.1684    0.3424 C   0  0  0  0  0  0  0  0  0  0  0  0
  -49.1239  -28.5588    8.2616 N   0  0  0  0  0  0  0  0  0  0  0  0
  -47.4926  -28.1925    6.5042 N   0  0  0  0  0  0  0  0  0  0  0  0
  -47.5237  -28.5551    5.2045 N   0  0  0  0  0  0  0  0  0  0  0  0
  -47.9271  -29.4773    2.5132 N   0  0  0  0  0  0  0  0  0  0  0  0
  -44.6569  -28.5053    1.3095 N   0  0  0  0  0  0  0  0  0  0  0  0
  -49.9663  -30.3086    3.2708 O   0  0  0  0  0  0  0  0  0  0  0  0
  -44.2095  -30.5733    2.2801 O   0  0  0  0  0  0  0  0  0  0  0  0
  -52.0812  -30.2294    7.6580 H   0  0  0  0  0  0  0  0  0  0  0  0
  -51.1994  -30.4070    5.2919 H   0  0  0  0  0  0  0  0  0  0  0  0
  -50.7591  -29.0888    9.4015 H   0  0  0  0  0  0  0  0  0  0  0  0
  -40.9299  -31.4965    3.9219 H   0  0  0  0  0  0  0  0  0  0  0  0
  -42.6629  -31.2187    3.8524 H   0  0  0  0  0  0  0  0  0  0  0  0
  -41.6652  -29.0628    3.7334 H   0  0  0  0  0  0  0  0  0  0  0  0
  -40.4770  -29.5617    2.5602 H   0  0  0  0  0  0  0  0  0  0  0  0
  -40.7724  -29.1069    0.2370 H   0  0  0  0  0  0  0  0  0  0  0  0
  -42.3612  -28.9232   -0.4668 H   0  0  0  0  0  0  0  0  0  0  0  0
  -41.6349  -33.1733    2.4994 H   0  0  0  0  0  0  0  0  0  0  0  0
  -42.9824  -32.2657    1.8423 H   0  0  0  0  0  0  0  0  0  0  0  0
  -42.8419  -31.3147   -0.3263 H   0  0  0  0  0  0  0  0  0  0  0  0
  -41.2972  -31.0180   -1.1042 H   0  0  0  0  0  0  0  0  0  0  0  0
  -46.6141  -29.6477   -0.5179 H   0  0  0  0  0  0  0  0  0  0  0  0
  -46.0348  -30.6942    0.7958 H   0  0  0  0  0  0  0  0  0  0  0  0
  -46.0289  -29.4311    3.3484 H   0  0  0  0  0  0  0  0  0  0  0  0
  -46.8177  -27.8342    3.2496 H   0  0  0  0  0  0  0  0  0  0  0  0
  -42.3349  -28.0366    1.7453 H   0  0  0  0  0  0  0  0  0  0  0  0
  -40.1356  -31.5241    1.1062 H   0  0  0  0  0  0  0  0  0  0  0  0
  -46.4790  -27.6630    0.8896 H   0  0  0  0  0  0  0  0  0  0  0  0
  -48.3377  -31.0211    1.1495 H   0  0  0  0  0  0  0  0  0  0  0  0
  -41.8213  -33.6933   -0.1796 H   0  0  0  0  0  0  0  0  0  0  0  0
  -40.3413  -33.9546    0.7628 H   0  0  0  0  0  0  0  0  0  0  0  0
  -40.2654  -33.0951   -0.7875 H   0  0  0  0  0  0  0  0  0  0  0  0
  -48.7916  -28.1176    0.3214 H   0  0  0  0  0  0  0  0  0  0  0  0
  -50.0527  -29.2662    0.8086 H   0  0  0  0  0  0  0  0  0  0  0  0
  -49.1256  -29.5449   -0.6783 H   0  0  0  0  0  0  0  0  0  0  0  0
  -46.7317  -28.3073    4.6248 H   0  0  0  0  0  0  0  0  0  0  0  0
  -44.2396  -27.6516    0.9508 H   0  0  0  0  0  0  0  0  0  0  0  0
  1  2  2  0  0  0  0
  1  3  1  0  0  0  0
  2  4  1  0  0  0  0
  3 22  2  0  0  0  0
  4  5  2  0  0  0  0
  4  6  1  0  0  0  0
  5  7  1  0  0  0  0
  5 24  1  0  0  0  0
  6 22  1  0  0  0  0
  6 23  2  0  0  0  0
  7 25  1  0  0  0  0
  7 27  2  0  0  0  0
  8 16  1  0  0  0  0
  8 26  1  0  0  0  0
  8 28  2  0  0  0  0
  9 10  1  0  0  0  0
  9 12  1  0  0  0  0
 10 16  1  0  0  0  0
 11 13  1  0  0  0  0
 11 16  1  0  0  0  0
 12 17  1  0  0  0  0
 13 17  1  0  0  0  0
 14 18  1  0  0  0  0
 14 19  1  0  0  0  0
 15 18  1  0  0  0  0
 15 25  1  0  0  0  0
 17 20  1  0  0  0  0
 18 26  1  0  0  0  0
 19 21  1  0  0  0  0
 19 25  1  0  0  0  0
 23 24  1  0  0  0  0
  1 29  1  0  0  0  0
  2 30  1  0  0  0  0
  3 31  1  0  0  0  0
  9 32  1  0  0  0  0
  9 33  1  0  0  0  0
 10 34  1  0  0  0  0
 10 35  1  0  0  0  0
 11 36  1  0  0  0  0
 11 37  1  0  0  0  0
 12 38  1  0  0  0  0
 12 39  1  0  0  0  0
 13 40  1  0  0  0  0
 13 41  1  0  0  0  0
 14 42  1  0  0  0  0
 14 43  1  0  0  0  0
 15 44  1  0  0  0  0
 15 45  1  0  0  0  0
 16 46  1  0  0  0  0
 17 47  1  0  0  0  0
 18 48  1  0  0  0  0
 19 49  1  0  0  0  0
 20 50  1  0  0  0  0
 20 51  1  0  0  0  0
 20 52  1  0  0  0  0
 21 53  1  0  0  0  0
 21 54  1  0  0  0  0
 21 55  1  0  0  0  0
 24 56  1  0  0  0  0
 26 57  1  0  0  0  0
M  END
> <POSIT::Probability>
0.18

> <POSIT::Method>
HYBRID

> <ReceptorTitle>
UCSF-P4529-REFINED_LIGAND-BOUND-STATE_A__DU__LA1_A-201(A)

> <OMEGA_C>
oHVMwtpy7sEOpuxAf5dKwklW78GJmcJA6GlJwhI26cEMSgZBA59FwjGA6sGU9r5ALJxCwj3Z6cHE
h5pAnJpCwpg/5cH/ld9AXp5DwjTI7cE6711AiFcvwlAV7MHgKOU/l/YmwgpV+cGvAk5ASC4mwrqf
7cHAPjVAcjgnwqf768GgpJg+PqsnwnDBAMICbgZA8Dwnwsu598FAXvu9woI6wlxl7sF46xA/vqA6
wqpB5sHygS5A+oUpwm9G6cEgV9Y/AV4kwqx3/8GgFVU/dVk4wvK35MEA6qk/1ClAwnm678G4f5E/
MHQjwskQBcIAHNU92ktEwvpY6cGwVK8+4H5Ewm145MGGLwRBa/g9wlSK4cGBItBATBg+wuVw5MF0
i6ZAWLU/wnbR68Hq1yBAo6AywsUK5MEAnac/hd1Hwhh48sFOVVFAidYwwhuW9MHE7RFAGlNQwtjV
8cGnDvVAL8xMwnpB88E7V6lAVQlLwuS16MFhbBZBQrgjwsD4+8H1/3pA0KYqwv+/+cE0jnZAIqkm
wpeA6MFJ725AfeghwlJ+7MF82iNA7BYjwuba6MEAqHI+53Epwq1i58GwBe++KYomwnexBMKk9h9A
Be4rwhkQAcIw0Os/I14rwoSE+sGwD6e+VDAlwvAk+MEgV42/0nQ6wnAu7cEwkwS/rSM4wtKN9cGo
t0s/pR04wuBy68HSS1ZAUEU7wnKs3sEA+k9A5FYpwuBK4MFsZ98/4oogwlYx/MHgl40/fOo5wuhN
3cGYvGM/2FlBwkMr+MEgIpM/CUknwujFBsIA5je+dF0hwoLRB8KwRUM/xQ8hwmBhBMLwmkm/oypD
wtDw4MGAlKQ+/jVIwiwh6sFw/U4/oYBEwv5b7MGgpC2/Re06wlZ14sFz/pNAYvUwwoI23cFIanM/

> <OMEGA_E>
yNquwA==

> <OMEGA_NBR>
      1653

$$$$
CACHE3-HO_1714_2
  -OEChem-03092622523D

 54 59  0     1  0  0  0  0  0999 V2000
  -41.3954  -32.1255   -0.3553 C   0  0  0  0  0  0  0  0  0  0  0  0
  -41.9527  -30.8624   -0.1298 C   0  0  0  0  0  0  0  0  0  0  0  0
  -49.5233  -29.1465    7.4612 C   0  0  0  0  0  0  0  0  0  0  0  0
  -48.4183  -29.0338    6.6169 C   0  0  0  0  0  0  0  0  0  0  0  0
  -51.8611  -29.7988    7.8065 C   0  0  0  0  0  0  0  0  0  0  0  0
  -49.7031  -29.9681    4.7992 C   0  0  0  0  0  0  0  0  0  0  0  0
  -40.8733  -32.8993    0.7091 C   0  0  0  0  0  0  0  0  0  0  0  0
  -53.0218  -30.3282    7.2618 C   0  0  0  0  0  0  0  0  0  0  0  0
  -52.0427  -30.6040    5.2024 C   0  0  0  0  0  0  0  0  0  0  0  0
  -50.7352  -29.6726    6.9849 C   0  0  0  0  0  0  0  0  0  0  0  0
  -41.8942  -30.5532    1.2206 C   0  0  0  0  0  0  0  0  0  0  0  0
  -50.8221  -30.0864    5.6397 C   0  0  0  0  0  0  0  0  0  0  0  0
  -48.5071  -29.4432    5.2883 C   0  0  0  0  0  0  0  0  0  0  0  0
  -42.3461  -29.4008    1.8014 C   0  0  0  0  0  0  0  0  0  0  0  0
  -41.3628  -31.3476    2.2817 C   0  0  0  0  0  0  0  0  0  0  0  0
  -47.3281  -29.3224    4.3934 C   0  0  0  0  0  0  0  0  0  0  0  0
  -42.9888  -28.2133    1.2196 C   0  0  0  0  0  0  0  0  0  0  0  0
  -46.1204  -27.8129   -0.6139 C   0  0  0  0  0  0  0  0  0  0  0  0
  -47.0010  -29.7335    0.7185 C   0  0  0  0  0  0  0  0  0  0  0  0
  -46.1171  -27.6157    1.8726 C   0  0  0  0  0  0  0  0  0  0  0  0
  -44.6154  -29.5946   -0.1905 C   0  0  0  0  0  0  0  0  0  0  0  0
  -46.1027  -29.3374   -0.4716 C   0  0  2  0  0  0  0  0  0  0  0  0
  -45.2756  -27.4214    0.5965 C   0  0  1  0  0  0  0  0  0  0  0  0
  -46.5679  -29.0788    2.0450 C   0  0  1  0  0  0  0  0  0  0  0  0
  -53.1415  -30.7342    5.9799 N   0  0  0  0  0  0  0  0  0  0  0  0
  -40.8238  -32.5760    2.0407 N   0  0  0  0  0  0  0  0  0  0  0  0
  -41.4802  -30.7195    3.4571 N   0  0  0  0  0  0  0  0  0  0  0  0
  -42.0745  -29.5516    3.1339 N   0  0  0  0  0  0  0  0  0  0  0  0
  -44.1877  -28.4034    0.5529 N   0  0  0  0  0  0  0  0  0  0  0  0
  -47.6053  -29.1839    3.0416 N   0  0  0  0  0  0  0  0  0  0  0  0
  -46.2003  -29.3695    4.8771 O   0  0  0  0  0  0  0  0  0  0  0  0
  -42.4271  -27.1316    1.3775 O   0  0  0  0  0  0  0  0  0  0  0  0
  -41.3616  -32.5234   -1.3665 H   0  0  0  0  0  0  0  0  0  0  0  0
  -42.3625  -30.2428   -0.9142 H   0  0  0  0  0  0  0  0  0  0  0  0
  -49.4310  -28.8199    8.4947 H   0  0  0  0  0  0  0  0  0  0  0  0
  -47.4903  -28.6246    7.0088 H   0  0  0  0  0  0  0  0  0  0  0  0
  -51.8410  -29.4943    8.8485 H   0  0  0  0  0  0  0  0  0  0  0  0
  -49.7675  -30.2874    3.7605 H   0  0  0  0  0  0  0  0  0  0  0  0
  -40.4509  -33.8773    0.4845 H   0  0  0  0  0  0  0  0  0  0  0  0
  -53.9153  -30.4421    7.8671 H   0  0  0  0  0  0  0  0  0  0  0  0
  -52.1781  -30.9413    4.1783 H   0  0  0  0  0  0  0  0  0  0  0  0
  -45.6329  -27.5030   -1.5463 H   0  0  0  0  0  0  0  0  0  0  0  0
  -47.1301  -27.3903   -0.5956 H   0  0  0  0  0  0  0  0  0  0  0  0
  -48.0328  -29.4411    0.4821 H   0  0  0  0  0  0  0  0  0  0  0  0
  -46.9990  -30.8244    0.8334 H   0  0  0  0  0  0  0  0  0  0  0  0
  -45.5413  -27.3024    2.7523 H   0  0  0  0  0  0  0  0  0  0  0  0
  -46.9949  -26.9586    1.8164 H   0  0  0  0  0  0  0  0  0  0  0  0
  -44.4276  -30.5052    0.3864 H   0  0  0  0  0  0  0  0  0  0  0  0
  -44.0347  -29.6319   -1.1190 H   0  0  0  0  0  0  0  0  0  0  0  0
  -46.4384  -29.8380   -1.3849 H   0  0  0  0  0  0  0  0  0  0  0  0
  -44.8884  -26.3998    0.5346 H   0  0  0  0  0  0  0  0  0  0  0  0
  -45.7249  -29.6514    2.4517 H   0  0  0  0  0  0  0  0  0  0  0  0
  -42.2667  -28.8957    3.8807 H   0  0  0  0  0  0  0  0  0  0  0  0
  -48.5647  -29.2166    2.7105 H   0  0  0  0  0  0  0  0  0  0  0  0
  1  2  2  0  0  0  0
  1  7  1  0  0  0  0
  2 11  1  0  0  0  0
  3  4  2  0  0  0  0
  3 10  1  0  0  0  0
  4 13  1  0  0  0  0
  5  8  2  0  0  0  0
  5 10  1  0  0  0  0
  6 12  1  0  0  0  0
  6 13  2  0  0  0  0
  7 26  2  0  0  0  0
  8 25  1  0  0  0  0
  9 12  1  0  0  0  0
  9 25  2  0  0  0  0
 10 12  2  0  0  0  0
 11 14  2  0  0  0  0
 11 15  1  0  0  0  0
 13 16  1  0  0  0  0
 14 17  1  0  0  0  0
 14 28  1  0  0  0  0
 15 26  1  0  0  0  0
 15 27  2  0  0  0  0
 16 30  1  0  0  0  0
 16 31  2  0  0  0  0
 17 29  1  0  0  0  0
 17 32  2  0  0  0  0
 18 22  1  0  0  0  0
 18 23  1  0  0  0  0
 19 22  1  0  0  0  0
 19 24  1  0  0  0  0
 20 23  1  0  0  0  0
 20 24  1  0  0  0  0
 21 22  1  0  0  0  0
 21 29  1  0  0  0  0
 23 29  1  0  0  0  0
 24 30  1  0  0  0  0
 27 28  1  0  0  0  0
  1 33  1  0  0  0  0
  2 34  1  0  0  0  0
  3 35  1  0  0  0  0
  4 36  1  0  0  0  0
  5 37  1  0  0  0  0
  6 38  1  0  0  0  0
  7 39  1  0  0  0  0
  8 40  1  0  0  0  0
  9 41  1  0  0  0  0
 18 42  1  0  0  0  0
 18 43  1  0  0  0  0
 19 44  1  0  0  0  0
 19 45  1  0  0  0  0
 20 46  1  0  0  0  0
 20 47  1  0  0  0  0
 21 48  1  0  0  0  0
 21 49  1  0  0  0  0
 22 50  1  0  0  0  0
 23 51  1  0  0  0  0
 24 52  1  0  0  0  0
 28 53  1  0  0  0  0
 30 54  1  0  0  0  0
M  END
> <POSIT::Probability>
0.18

> <POSIT::Method>
HYBRID

> <ReceptorTitle>
UCSF-P4529-REFINED_LIGAND-BOUND-STATE_A__DU__LA1_A-201(A)

> <OMEGA_C>
2JQlwoaAAMIw5rW+h88nwhjm9sEA4AS+4BdGwiIs6cEFwu5AYqxBwi9F6MHWvdNAxXFPwtpj7sGZ
zvlA889Gwpy+78HkkplASX4jwt6YA8JghDU/WhZUwiGg8sHRYOhAxCtQwubU9MGoeaZA5fBKwm9h
7cHxg99Ap5MnwgJt9ME0Ppw/0ElLwuyw8MHGeLRAPQdCwraL68F2OalAZGIpwuE068F0leY/eXMl
wubH+sGpBxJABVA9wlSU6sGTloxAfPQrwtC04cHMG5w/S3s4wuOA3sGoJx2/AgE8wjve7cEY8Tc/
33c4wtzs3MHosu8/M3YywtfB7MGACkO+L2k4wvqy6sFwd/G+PRo1wiFf28HEthg/e0U6wneh6MHj
4QJA75BUwqrf9cH/Wr9AmUsjwtpNAsJimgJAreslworB9cFdQV1ATUwowsFp7MEhkkhALsAwwiE6
48G4iA0/zGs+wrF46cFxqUJAEc04wsP06sFBEZxAXbUpwpoN2cE4UbA/RXIlwvcXAsJg6K6/KHMp
wivx8cE4Bmq/YLlFwhCP5sFy6gdBEPY9wi7/5MEoSOBAK11Pwk3068Fzkw1B6xFHwpFM8sFvrHBA
sM0hwlCCB8IQDPg+OKlXwoSJ88Fxv/tAX7ZQwreH98GxtIVADYg2wj0G3MHc7cW/O4U8wmwf28Eg
ehi/jSFAwmaH68Gg2/Y+8/47wniY9sEkWFU/Uyo2wlZr2sF/JTBAwPo7wiar18Fsgeg/4bUxwrwK
9MFw2MU+kiMwwiwO7cEsO4+/6sA5wj607sHoQ7G/wI0zwtcy08Eg3Qg/VuY2wgw27cEV6BxAJBEp
wnIq58GpXHhAOkJCwqC76cGWeS1A

> <OMEGA_E>
MHaTwA==

> <OMEGA_NBR>
      3241

$$$$
CACHE3-HO_1714_25
  -OEChem-03092622523D

 46 50  0     1  0  0  0  0  0999 V2000
  -40.1942  -32.6032    0.3777 C   0  0  0  0  0  0  0  0  0  0  0  0
  -40.7592  -31.3791    0.7511 C   0  0  0  0  0  0  0  0  0  0  0  0
  -48.8172  -29.7443    2.5440 C   0  0  0  0  0  0  0  0  0  0  0  0
  -49.9367  -30.1720    3.2539 C   0  0  0  0  0  0  0  0  0  0  0  0
  -47.9211  -28.8220    4.5731 C   0  0  0  0  0  0  0  0  0  0  0  0
  -40.8165  -33.8311    0.7077 C   0  0  0  0  0  0  0  0  0  0  0  0
  -51.2235  -30.0985    6.6016 C   0  0  0  0  0  0  0  0  0  0  0  0
  -50.2241  -29.4289    7.2568 C   0  0  0  0  0  0  0  0  0  0  0  0
  -41.9404  -31.5947    1.4446 C   0  0  0  0  0  0  0  0  0  0  0  0
  -47.8042  -29.0657    3.2055 C   0  0  0  0  0  0  0  0  0  0  0  0
  -50.0631  -29.9331    4.6202 C   0  0  0  0  0  0  0  0  0  0  0  0
  -49.0362  -29.2451    5.2923 C   0  0  0  0  0  0  0  0  0  0  0  0
  -42.7578  -30.6271    1.9597 C   0  0  0  0  0  0  0  0  0  0  0  0
  -42.5537  -32.8429    1.7689 C   0  0  0  0  0  0  0  0  0  0  0  0
  -46.6044  -28.6022    2.4631 C   0  0  0  0  0  0  0  0  0  0  0  0
  -42.6493  -29.1604    1.9422 C   0  0  0  0  0  0  0  0  0  0  0  0
  -45.0578  -26.6259    0.7597 C   0  0  0  0  0  0  0  0  0  0  0  0
  -44.0399  -27.1144    1.7798 C   0  0  0  0  0  0  0  0  0  0  0  0
  -44.5525  -28.9081    0.2594 C   0  0  0  0  0  0  0  0  0  0  0  0
  -45.7077  -27.9115    0.2465 C   0  0  1  0  0  0  0  0  0  0  0  0
  -51.1532  -30.3560    5.2837 N   0  0  0  0  0  0  0  0  0  0  0  0
  -49.1256  -28.9970    6.6106 N   0  0  0  0  0  0  0  0  0  0  0  0
  -41.9866  -34.0247    1.3958 N   0  0  0  0  0  0  0  0  0  0  0  0
  -43.6909  -32.6570    2.4486 N   0  0  0  0  0  0  0  0  0  0  0  0
  -43.7847  -31.3142    2.5474 N   0  0  0  0  0  0  0  0  0  0  0  0
  -43.6719  -28.4491    1.3322 N   0  0  0  0  0  0  0  0  0  0  0  0
  -46.7811  -28.3450    1.1063 N   0  0  0  0  0  0  0  0  0  0  0  0
  -45.5366  -28.4891    3.0591 O   0  0  0  0  0  0  0  0  0  0  0  0
  -41.6630  -28.6599    2.4791 O   0  0  0  0  0  0  0  0  0  0  0  0
  -39.2594  -32.6147   -0.1772 H   0  0  0  0  0  0  0  0  0  0  0  0
  -40.3165  -30.4219    0.5169 H   0  0  0  0  0  0  0  0  0  0  0  0
  -48.7498  -29.9462    1.4784 H   0  0  0  0  0  0  0  0  0  0  0  0
  -50.7232  -30.7035    2.7218 H   0  0  0  0  0  0  0  0  0  0  0  0
  -47.1247  -28.2892    5.0910 H   0  0  0  0  0  0  0  0  0  0  0  0
  -40.3395  -34.7583    0.3943 H   0  0  0  0  0  0  0  0  0  0  0  0
  -52.1121  -30.4492    7.1109 H   0  0  0  0  0  0  0  0  0  0  0  0
  -50.2713  -29.2153    8.3171 H   0  0  0  0  0  0  0  0  0  0  0  0
  -45.8016  -25.9824    1.2557 H   0  0  0  0  0  0  0  0  0  0  0  0
  -44.5907  -26.0437   -0.0465 H   0  0  0  0  0  0  0  0  0  0  0  0
  -43.1334  -26.4987    1.7693 H   0  0  0  0  0  0  0  0  0  0  0  0
  -44.4339  -27.1408    2.8004 H   0  0  0  0  0  0  0  0  0  0  0  0
  -44.8798  -29.9253    0.5186 H   0  0  0  0  0  0  0  0  0  0  0  0
  -44.0175  -28.9449   -0.6985 H   0  0  0  0  0  0  0  0  0  0  0  0
  -46.0999  -27.7836   -0.7452 H   0  0  0  0  0  0  0  0  0  0  0  0
  -44.5839  -30.9301    3.0358 H   0  0  0  0  0  0  0  0  0  0  0  0
  -47.6886  -28.5253    0.6769 H   0  0  0  0  0  0  0  0  0  0  0  0
  1  2  2  0  0  0  0
  1  6  1  0  0  0  0
  2  9  1  0  0  0  0
  3  4  2  0  0  0  0
  3 10  1  0  0  0  0
  4 11  1  0  0  0  0
  5 10  2  0  0  0  0
  5 12  1  0  0  0  0
  6 23  2  0  0  0  0
  7  8  2  0  0  0  0
  7 21  1  0  0  0  0
  8 22  1  0  0  0  0
  9 13  2  0  0  0  0
  9 14  1  0  0  0  0
 10 15  1  0  0  0  0
 11 12  1  0  0  0  0
 11 21  2  0  0  0  0
 12 22  2  0  0  0  0
 13 16  1  0  0  0  0
 13 25  1  0  0  0  0
 14 23  1  0  0  0  0
 14 24  2  0  0  0  0
 15 27  1  0  0  0  0
 15 28  2  0  0  0  0
 16 26  1  0  0  0  0
 16 29  2  0  0  0  0
 17 18  1  0  0  0  0
 17 20  1  0  0  0  0
 18 26  1  0  0  0  0
 19 20  1  0  0  0  0
 19 26  1  0  0  0  0
 20 27  1  0  0  0  0
 24 25  1  0  0  0  0
  1 30  1  0  0  0  0
  2 31  1  0  0  0  0
  3 32  1  0  0  0  0
  4 33  1  0  0  0  0
  5 34  1  0  0  0  0
  6 35  1  0  0  0  0
  7 36  1  0  0  0  0
  8 37  1  0  0  0  0
 17 38  1  0  0  0  0
 17 39  1  0  0  0  0
 18 40  1  0  0  0  0
 18 41  1  0  0  0  0
 19 42  1  0  0  0  0
 19 43  1  0  0  0  0
 20 44  1  0  0  0  0
 25 45  1  0  0  0  0
 27 46  1  0  0  0  0
M  END
> <POSIT::Probability>
0.14

> <POSIT::Method>
HYBRID

> <ReceptorTitle>
UCSF-P4529-REFINED_LIGAND-BOUND-STATE_A__DU__LA1_A-201(A)

> <OMEGA_C>
4MYgwqhpAsI0Y8E+bAkjwmII+8E9SEA/yERDwjv07cEF0SJAJL9Hwi9g8cFuP1BAN68/wmqT5sGP
VpJAF0QjwhVTB8KuLjU/2eRMwrTJ8MH+P9NAgOVIwmhu68EBOOhA+MInwtzB/MFm57g/ezc/woeG
6MHqJk1AnkBIwud278Hu2JNAFyVEwuz16cE9WqlA9wcrwlYE9cHe1fo/+jYqwhZfA8K3auI/9Go6
wmLR5MHdox1A75gqwoJI6cGqmfg/NDs0wtgB1cF0fUI/3ygwwjHq2MFo0OM/xjUywrJD58EyyoQ+
p9Q2wq9K38GmcXw+35xMwgTZ8sFAFKlAmIBEwuz558E8itNAT/InwlYZCMJuqrI/ecMuwrmgAsJq
thxAhiMvwmmD+sEjCCNAELAuwrqX48GQhqo/0R87wqDC4sHMmY0/dCU2wsPp48GPyENA6aYmwm9H
5cHPqB5AnAkdwnF1AsJwczW+F0QhwgJg88FsUgQ/xf9CwsmR78FuO70/iORKwrWg9cEfMi5Arn88
wl9Q4sGB6aJArlshwnkIC8Ig4Mk+zHJQwvCX88EhjONAxRVJwtq46cG0EgVB0TQ3wgbcz8E6vKA/
31wywm5Z0MHwpT69nIgswkX908GyeeI/XLwxwlEg2cFoOTNA7IQzwgln78EewAQ/+BEwwimP58GY
0zK/VWY4wrtE3sFExD6/61UywtRw98EZSkJALcE+wtoz5MFHRy0/

> <OMEGA_E>
GfSXwA==

> <OMEGA_NBR>
      4667

$$$$
CACHE3-HO_1714_27
  -OEChem-03092622523D

 52 56  0     1  0  0  0  0  0999 V2000
  -41.2807  -31.6761    0.0478 C   0  0  0  0  0  0  0  0  0  0  0  0
  -42.0036  -30.4888    0.2049 C   0  0  0  0  0  0  0  0  0  0  0  0
  -40.6766  -32.3207    1.1540 C   0  0  0  0  0  0  0  0  0  0  0  0
  -42.0066  -30.1091    1.5385 C   0  0  0  0  0  0  0  0  0  0  0  0
  -42.6156  -29.0001    2.0568 C   0  0  0  0  0  0  0  0  0  0  0  0
  -41.3904  -30.7730    2.6425 C   0  0  0  0  0  0  0  0  0  0  0  0
  -49.9692  -30.3652    4.8579 C   0  0  0  0  0  0  0  0  0  0  0  0
  -48.8443  -29.1946    6.6556 C   0  0  0  0  0  0  0  0  0  0  0  0
  -51.0595  -30.5404    5.6135 C   0  0  0  0  0  0  0  0  0  0  0  0
  -48.8336  -29.6706    5.4037 C   0  0  0  0  0  0  0  0  0  0  0  0
  -50.0584  -29.3847    7.5105 C   0  0  0  0  0  0  0  0  0  0  0  0
  -43.4012  -27.9384    1.4106 C   0  0  0  0  0  0  0  0  0  0  0  0
  -47.6167  -29.4604    4.5983 C   0  0  0  0  0  0  0  0  0  0  0  0
  -46.5308  -28.0480   -0.4663 C   0  0  0  0  0  0  0  0  0  0  0  0
  -47.1689  -30.0013    0.9539 C   0  0  0  0  0  0  0  0  0  0  0  0
  -46.5904  -27.7309    2.0071 C   0  0  0  0  0  0  0  0  0  0  0  0
  -44.8096  -29.5909    0.0586 C   0  0  0  0  0  0  0  0  0  0  0  0
  -46.3135  -29.5478   -0.2473 C   0  0  2  0  0  0  0  0  0  0  0  0
  -45.7633  -27.4890    0.7298 C   0  0  1  0  0  0  0  0  0  0  0  0
  -46.8460  -29.2309    2.2492 C   0  0  1  0  0  0  0  0  0  0  0  0
  -52.3416  -30.2924    7.6856 C   0  0  0  0  0  0  0  0  0  0  0  0
  -40.6901  -31.9291    2.4680 N   0  0  0  0  0  0  0  0  0  0  0  0
  -41.6073  -30.1095    3.7838 N   0  0  0  0  0  0  0  0  0  0  0  0
  -42.3462  -29.0482    3.3973 N   0  0  0  0  0  0  0  0  0  0  0  0
  -51.1249  -30.0692    6.9137 N   0  0  0  0  0  0  0  0  0  0  0  0
  -44.5544  -28.3185    0.7445 N   0  0  0  0  0  0  0  0  0  0  0  0
  -47.8750  -29.4242    3.2413 N   0  0  0  0  0  0  0  0  0  0  0  0
  -50.0489  -28.9404    8.6575 O   0  0  0  0  0  0  0  0  0  0  0  0
  -42.9901  -26.7852    1.5185 O   0  0  0  0  0  0  0  0  0  0  0  0
  -46.5236  -29.3391    5.1393 O   0  0  0  0  0  0  0  0  0  0  0  0
  -41.1795  -32.1149   -0.9417 H   0  0  0  0  0  0  0  0  0  0  0  0
  -42.4802  -29.9682   -0.6130 H   0  0  0  0  0  0  0  0  0  0  0  0
  -40.1251  -33.2436    0.9824 H   0  0  0  0  0  0  0  0  0  0  0  0
  -49.9316  -30.7396    3.8413 H   0  0  0  0  0  0  0  0  0  0  0  0
  -48.0051  -28.6671    7.0960 H   0  0  0  0  0  0  0  0  0  0  0  0
  -51.9333  -31.0590    5.2348 H   0  0  0  0  0  0  0  0  0  0  0  0
  -46.0748  -27.7219   -1.4091 H   0  0  0  0  0  0  0  0  0  0  0  0
  -47.5877  -27.7630   -0.4776 H   0  0  0  0  0  0  0  0  0  0  0  0
  -48.2267  -29.8606    0.6946 H   0  0  0  0  0  0  0  0  0  0  0  0
  -47.0242  -31.0753    1.1235 H   0  0  0  0  0  0  0  0  0  0  0  0
  -46.0743  -27.3013    2.8745 H   0  0  0  0  0  0  0  0  0  0  0  0
  -47.5466  -27.1999    1.9107 H   0  0  0  0  0  0  0  0  0  0  0  0
  -44.5114  -30.4392    0.6821 H   0  0  0  0  0  0  0  0  0  0  0  0
  -44.2154  -29.5959   -0.8621 H   0  0  0  0  0  0  0  0  0  0  0  0
  -46.5664  -30.1326   -1.1369 H   0  0  0  0  0  0  0  0  0  0  0  0
  -45.5139  -26.4292    0.6197 H   0  0  0  0  0  0  0  0  0  0  0  0
  -45.9408  -29.6657    2.6911 H   0  0  0  0  0  0  0  0  0  0  0  0
  -52.2834  -31.2393    8.2301 H   0  0  0  0  0  0  0  0  0  0  0  0
  -52.4864  -29.4819    8.4055 H   0  0  0  0  0  0  0  0  0  0  0  0
  -53.2100  -30.3221    7.0216 H   0  0  0  0  0  0  0  0  0  0  0  0
  -42.6347  -28.3880    4.1085 H   0  0  0  0  0  0  0  0  0  0  0  0
  -48.8276  -29.5483    2.9075 H   0  0  0  0  0  0  0  0  0  0  0  0
  1  2  2  0  0  0  0
  1  3  1  0  0  0  0
  2  4  1  0  0  0  0
  3 22  2  0  0  0  0
  4  5  2  0  0  0  0
  4  6  1  0  0  0  0
  5 12  1  0  0  0  0
  5 24  1  0  0  0  0
  6 22  1  0  0  0  0
  6 23  2  0  0  0  0
  7  9  2  0  0  0  0
  7 10  1  0  0  0  0
  8 10  2  0  0  0  0
  8 11  1  0  0  0  0
  9 25  1  0  0  0  0
 10 13  1  0  0  0  0
 11 25  1  0  0  0  0
 11 28  2  0  0  0  0
 12 26  1  0  0  0  0
 12 29  2  0  0  0  0
 13 27  1  0  0  0  0
 13 30  2  0  0  0  0
 14 18  1  0  0  0  0
 14 19  1  0  0  0  0
 15 18  1  0  0  0  0
 15 20  1  0  0  0  0
 16 19  1  0  0  0  0
 16 20  1  0  0  0  0
 17 18  1  0  0  0  0
 17 26  1  0  0  0  0
 19 26  1  0  0  0  0
 20 27  1  0  0  0  0
 21 25  1  0  0  0  0
 23 24  1  0  0  0  0
  1 31  1  0  0  0  0
  2 32  1  0  0  0  0
  3 33  1  0  0  0  0
  7 34  1  0  0  0  0
  8 35  1  0  0  0  0
  9 36  1  0  0  0  0
 14 37  1  0  0  0  0
 14 38  1  0  0  0  0
 15 39  1  0  0  0  0
 15 40  1  0  0  0  0
 16 41  1  0  0  0  0
 16 42  1  0  0  0  0
 17 43  1  0  0  0  0
 17 44  1  0  0  0  0
 18 45  1  0  0  0  0
 19 46  1  0  0  0  0
 20 47  1  0  0  0  0
 21 48  1  0  0  0  0
 21 49  1  0  0  0  0
 21 50  1  0  0  0  0
 24 51  1  0  0  0  0
 27 52  1  0  0  0  0
M  END
> <POSIT::Probability>
0.18

> <POSIT::Method>
HYBRID

> <ReceptorTitle>
UCSF-P4529-REFINED_LIGAND-BOUND-STATE_A__DU__LA1_A-201(A)

> <OMEGA_C>
ZB8lwrFo/cGA+0M9rAMowhDp88Hw0FE+1LQiwmpIAcL8tpM/ugYownDf8MFq7MQ/ZnYqwh4A6MEm
ogNAyY8lwh4v9sHPHilAfOBHwvbr8sEadJtAjWBDwpaO6cHH+tRA5DxMwsxS9MGFobNAolVDwnJd
7cFa66xA1DtIwvQT68FLVvBA0ZotwseB38Gfj7Q/jXc+ws6u68HhJJNAgx86wkpi4MEQvu6+/Kw8
wpoC8MEWMHQ/k1w6wtrY3cFIdABAAD0zwkG67MFgFXA9BUE5wt5h7MFYPn2+mw03wozp28FA0jo/
TWI7wsjY6cF68w9A2F1RwtBW8sGT8PVAnsIiwtxu/8Fc9B1A520mwjPg8MGIKXJAjGIpwrVi6MEA
bllA5H9MwsSN8MHDPN1ArTcywliM4sFmmD4/AoA/wsBk68EicU9ACjJIwgKG58H7hApB3/UrwipI
1sGuXMI/Lxg6wma26sEzdaRA2LckwqB1AMKiFHG/respwvS+78GW7xy/FoAgwnX5BMKsgHs//LlH
wsrq9cEX2HVANgVAwkJW5cHDEuNAurtPws54+MF5g6dAlkw4wn7G3cEKXrS/z1k+wrka3sHIh/S+
LOhAwm7i7sHf0TE/xhg8wkia+MEQz48/GUw4whFp2sF/+DdAri8+wmiZ2cGgkfQ/rgsywoWD88F1
oC4/idwwwnzE7MEssFy/9kM6woIP8cEmh5G/OQ42whVv08Hyoh4/ZMM3wlJT7cGEOixANSJRwv7p
+cGOrgNBEPJRwgLb68H+fAZBANdUwsGT8sHzsOBA44kqwqQa48HceINAdE9Dwv1i7MEyFTpA

> <OMEGA_E>
AOOxwA==

> <OMEGA_NBR>
      6213

$$$$
CACHE3-HO_1714_4
  -OEChem-03092622523D

 54 58  0     1  0  0  0  0  0999 V2000
  -41.6172  -31.1789   -0.4726 C   0  0  0  0  0  0  0  0  0  0  0  0
  -40.6772  -31.9755    0.2542 C   0  0  0  0  0  0  0  0  0  0  0  0
  -42.5642  -30.3306    0.1328 C   0  0  0  0  0  0  0  0  0  0  0  0
  -48.8637  -28.3861    6.9517 C   0  0  0  0  0  0  0  0  0  0  0  0
  -48.1239  -28.4485    5.7705 C   0  0  0  0  0  0  0  0  0  0  0  0
  -40.5947  -31.9988    1.6647 C   0  0  0  0  0  0  0  0  0  0  0  0
  -49.9532  -29.5830    4.6743 C   0  0  0  0  0  0  0  0  0  0  0  0
  -42.4584  -30.3760    1.5167 C   0  0  0  0  0  0  0  0  0  0  0  0
  -50.1593  -28.9142    6.9994 C   0  0  0  0  0  0  0  0  0  0  0  0
  -48.6667  -29.0455    4.6341 C   0  0  0  0  0  0  0  0  0  0  0  0
  -50.7104  -29.5140    5.8506 C   0  0  0  0  0  0  0  0  0  0  0  0
  -41.5309  -31.1597    2.2969 C   0  0  0  0  0  0  0  0  0  0  0  0
  -43.2285  -29.6726    2.3981 C   0  0  0  0  0  0  0  0  0  0  0  0
  -50.9404  -28.8524    8.2386 C   0  0  0  0  0  0  0  0  0  0  0  0
  -52.2516  -29.1282    8.2271 C   0  0  0  0  0  0  0  0  0  0  0  0
  -47.8709  -29.1182    3.3824 C   0  0  0  0  0  0  0  0  0  0  0  0
  -44.3297  -28.7185    2.1793 C   0  0  0  0  0  0  0  0  0  0  0  0
  -52.0742  -30.1557    5.9168 C   0  0  0  0  0  0  0  0  0  0  0  0
  -52.9833  -29.5289    6.9805 C   0  0  0  0  0  0  0  0  0  0  0  0
  -47.5433  -29.1679    0.3713 C   0  0  0  0  0  0  0  0  0  0  0  0
  -45.9673  -30.5438    1.5060 C   0  0  0  0  0  0  0  0  0  0  0  0
  -47.4675  -30.3925    1.2817 C   0  0  1  0  0  0  0  0  0  0  0  0
  -46.4091  -28.2597    0.8656 C   0  0  2  0  0  0  0  0  0  0  0  0
  -45.8036  -27.4572   -0.2807 C   0  0  0  0  0  0  0  0  0  0  0  0
  -41.7477  -30.9251    3.6036 N   0  0  0  0  0  0  0  0  0  0  0  0
  -42.7620  -30.0383    3.6274 N   0  0  0  0  0  0  0  0  0  0  0  0
  -45.4560  -29.1732    1.5033 N   0  0  0  0  0  0  0  0  0  0  0  0
  -48.1684  -30.1733    2.5244 N   0  0  0  0  0  0  0  0  0  0  0  0
  -46.9980  -28.2792    3.1767 O   0  0  0  0  0  0  0  0  0  0  0  0
  -44.1763  -27.5787    2.6146 O   0  0  0  0  0  0  0  0  0  0  0  0
  -41.5961  -31.2345   -1.5607 H   0  0  0  0  0  0  0  0  0  0  0  0
  -39.9865  -32.5974   -0.3144 H   0  0  0  0  0  0  0  0  0  0  0  0
  -43.2665  -29.7357   -0.4342 H   0  0  0  0  0  0  0  0  0  0  0  0
  -48.4196  -27.9212    7.8288 H   0  0  0  0  0  0  0  0  0  0  0  0
  -47.1199  -28.0316    5.7504 H   0  0  0  0  0  0  0  0  0  0  0  0
  -39.8757  -32.6079    2.1963 H   0  0  0  0  0  0  0  0  0  0  0  0
  -50.3693  -30.0628    3.7911 H   0  0  0  0  0  0  0  0  0  0  0  0
  -50.4467  -28.5464    9.1543 H   0  0  0  0  0  0  0  0  0  0  0  0
  -52.8238  -29.0374    9.1456 H   0  0  0  0  0  0  0  0  0  0  0  0
  -52.5745  -30.0943    4.9430 H   0  0  0  0  0  0  0  0  0  0  0  0
  -51.9311  -31.2202    6.1432 H   0  0  0  0  0  0  0  0  0  0  0  0
  -53.7766  -30.2421    7.2321 H   0  0  0  0  0  0  0  0  0  0  0  0
  -53.4764  -28.6373    6.5732 H   0  0  0  0  0  0  0  0  0  0  0  0
  -47.4505  -29.4343   -0.6913 H   0  0  0  0  0  0  0  0  0  0  0  0
  -48.5068  -28.6497    0.5025 H   0  0  0  0  0  0  0  0  0  0  0  0
  -45.7334  -30.9793    2.4846 H   0  0  0  0  0  0  0  0  0  0  0  0
  -45.4839  -31.1395    0.7257 H   0  0  0  0  0  0  0  0  0  0  0  0
  -47.8821  -31.2622    0.8109 H   0  0  0  0  0  0  0  0  0  0  0  0
  -46.7937  -27.5519    1.6253 H   0  0  0  0  0  0  0  0  0  0  0  0
  -45.4182  -28.1339   -1.0410 H   0  0  0  0  0  0  0  0  0  0  0  0
  -44.9898  -26.8382    0.0924 H   0  0  0  0  0  0  0  0  0  0  0  0
  -46.5644  -26.8168   -0.7250 H   0  0  0  0  0  0  0  0  0  0  0  0
  -43.0903  -29.7210    4.5308 H   0  0  0  0  0  0  0  0  0  0  0  0
  -48.8670  -30.8627    2.8019 H   0  0  0  0  0  0  0  0  0  0  0  0
  1  2  1  0  0  0  0
  1  3  2  0  0  0  0
  2  6  2  0  0  0  0
  3  8  1  0  0  0  0
  4  5  2  0  0  0  0
  4  9  1  0  0  0  0
  5 10  1  0  0  0  0
  6 12  1  0  0  0  0
  7 10  2  0  0  0  0
  7 11  1  0  0  0  0
  8 12  1  0  0  0  0
  8 13  2  0  0  0  0
  9 11  2  0  0  0  0
  9 14  1  0  0  0  0
 10 16  1  0  0  0  0
 11 18  1  0  0  0  0
 12 25  2  0  0  0  0
 13 17  1  0  0  0  0
 13 26  1  0  0  0  0
 14 15  2  0  0  0  0
 15 19  1  0  0  0  0
 16 28  1  0  0  0  0
 16 29  2  0  0  0  0
 17 27  1  0  0  0  0
 17 30  2  0  0  0  0
 18 19  1  0  0  0  0
 20 22  1  0  0  0  0
 20 23  1  0  0  0  0
 21 22  1  0  0  0  0
 21 27  1  0  0  0  0
 22 28  1  0  0  0  0
 23 24  1  0  0  0  0
 23 27  1  0  0  0  0
 25 26  1  0  0  0  0
  1 31  1  0  0  0  0
  2 32  1  0  0  0  0
  3 33  1  0  0  0  0
  4 34  1  0  0  0  0
  5 35  1  0  0  0  0
  6 36  1  0  0  0  0
  7 37  1  0  0  0  0
 14 38  1  0  0  0  0
 15 39  1  0  0  0  0
 18 40  1  0  0  0  0
 18 41  1  0  0  0  0
 19 42  1  0  0  0  0
 19 43  1  0  0  0  0
 20 44  1  0  0  0  0
 20 45  1  0  0  0  0
 21 46  1  0  0  0  0
 21 47  1  0  0  0  0
 22 48  1  0  0  0  0
 23 49  1  0  0  0  0
 24 50  1  0  0  0  0
 24 51  1  0  0  0  0
 24 52  1  0  0  0  0
 26 53  1  0  0  0  0
 28 54  1  0  0  0  0
M  END
> <POSIT::Probability>
0.14

> <POSIT::Method>
HYBRID

> <ReceptorTitle>
UCSF-P4529-REFINED_LIGAND-BOUND-STATE_A__DU__LA1_A-201(A)

> <OMEGA_C>
C3gmwmRu+cGQ+vG+arUiwszN/8EYJoI+skEqwvqk8sGgBAg+b3RDwrcW48G3dN5A135AwnqW48H0
p7hA+GAiwqX9/8E8FtU/HtBHwguq7MG2k5VActUpwgUC88GdI8I/KaNIwl5Q58Hq+t9AqKpCwkVd
6MGwSpRAf9dKwpMc7MHmN7tAmx8mwh1H+cEAABNA9ekswnth7cFAehlA/8JLwsrR5sGA0QNBoQFR
wnwG6cE0ogNB1ns/wizy6METeVhAo1Exwma/5cFKegtAAkxQwsY+8cFpVr1A6u5TwkY77MEWYN9A
USw+wtFX6cEAHL4+g943wrNZ9MHdxcA/uN49wuIj88FAEKQ/7aI5ws8T4sFclV0/5jY3wk6o28E4
uI++pP0mwrJm98HSoGZAPQwrwmdO8MEFJ2hA/tI1wrhi6cHma8A/eKxAwu9i8cHCjyFA8P07wtY7
4sF5TktAf7Qwwiah3MFjVSdAW2ImwlTg+cGsxMe/N/IfwsZjAsKg+6C+2RAtwsri7cEAVd6+oq1B
wo5e38FWhfpAy3o8wsxA4MFgA7hAs4AfwoVuAsIkkAxANHpJwqeA8MHnoHJAYslJwvRe5MEeeBJB
kEtTwqZM6MFcVBJBVUxSwgjB8MHxLJ5Af7lPwhDD+cHPlMRARRtXwtLv8cEIbedAz+dVwjIZ5cHG
V9JAW809wnJ568Hs9zC/7wZCwoYy5cGQpgA/Ae82wo3V98ErBB9Ad+81wsUd+cHIxDk/TYc/wgoZ
+sEIlk8/yiw7wjRq3MFOCNA/R6w1wjIS4cEsQIW/kvUzwrC01sEAP7099UE6wtCI1sG4mDm/a1ws
wq7E7cGe/JBAw3dDwsnm9sGUUTNA

> <OMEGA_E>
CqTjwA==

> <OMEGA_NBR>
      7801

$$$$
CACHE3-HO_1714_6
  -OEChem-03092622523D

 56 61  0     1  0  0  0  0  0999 V2000
  -41.0606  -31.6982   -0.1233 C   0  0  0  0  0  0  0  0  0  0  0  0
  -41.7706  -30.4966   -0.0281 C   0  0  0  0  0  0  0  0  0  0  0  0
  -48.6468  -28.8795    6.3487 C   0  0  0  0  0  0  0  0  0  0  0  0
  -49.7497  -29.0379    7.1920 C   0  0  0  0  0  0  0  0  0  0  0  0
  -52.1326  -30.9386    5.2534 C   0  0  0  0  0  0  0  0  0  0  0  0
  -49.7490  -30.1222    4.5773 C   0  0  0  0  0  0  0  0  0  0  0  0
  -40.4914  -32.3083    1.0203 C   0  0  0  0  0  0  0  0  0  0  0  0
  -52.8337  -30.7753    6.4257 C   0  0  0  0  0  0  0  0  0  0  0  0
  -41.7994  -30.0667    1.2898 C   0  0  0  0  0  0  0  0  0  0  0  0
  -50.8732  -30.2943    5.4095 C   0  0  0  0  0  0  0  0  0  0  0  0
  -48.6444  -29.4125    5.0615 C   0  0  0  0  0  0  0  0  0  0  0  0
  -50.8477  -29.7496    6.6950 C   0  0  0  0  0  0  0  0  0  0  0  0
  -42.4051  -28.9311    1.7515 C   0  0  0  0  0  0  0  0  0  0  0  0
  -41.2184  -30.6963    2.4323 C   0  0  0  0  0  0  0  0  0  0  0  0
  -47.4552  -29.2287    4.1913 C   0  0  0  0  0  0  0  0  0  0  0  0
  -43.1606  -27.8846    1.0475 C   0  0  0  0  0  0  0  0  0  0  0  0
  -46.2469  -28.0248   -0.8980 C   0  0  0  0  0  0  0  0  0  0  0  0
  -46.9448  -29.9146    0.5788 C   0  0  0  0  0  0  0  0  0  0  0  0
  -46.3597  -27.6136    1.5597 C   0  0  0  0  0  0  0  0  0  0  0  0
  -44.5598  -29.5688   -0.2747 C   0  0  0  0  0  0  0  0  0  0  0  0
  -46.0554  -29.5179   -0.6178 C   0  0  2  0  0  0  0  0  0  0  0  0
  -45.4998  -27.4309    0.2942 C   0  0  1  0  0  0  0  0  0  0  0  0
  -46.6415  -29.0999    1.8517 C   0  0  1  0  0  0  0  0  0  0  0  0
  -52.4460  -29.6837    8.6305 C   0  0  0  0  0  0  0  0  0  0  0  0
  -40.5301  -31.8671    2.3181 N   0  0  0  0  0  0  0  0  0  0  0  0
  -41.4527  -29.9873    3.5424 N   0  0  0  0  0  0  0  0  0  0  0  0
  -42.1677  -28.9320    3.0990 N   0  0  0  0  0  0  0  0  0  0  0  0
  -52.0507  -30.0570    7.2895 N   0  0  0  0  0  0  0  0  0  0  0  0
  -44.3031  -28.2748    0.3688 N   0  0  0  0  0  0  0  0  0  0  0  0
  -47.6960  -29.2423    2.8255 N   0  0  0  0  0  0  0  0  0  0  0  0
  -46.3485  -29.0975    4.7073 O   0  0  0  0  0  0  0  0  0  0  0  0
  -42.7363  -26.7336    1.1217 O   0  0  0  0  0  0  0  0  0  0  0  0
  -40.9425  -32.1754   -1.0930 H   0  0  0  0  0  0  0  0  0  0  0  0
  -42.2208  -30.0012   -0.8761 H   0  0  0  0  0  0  0  0  0  0  0  0
  -47.7822  -28.3294    6.7141 H   0  0  0  0  0  0  0  0  0  0  0  0
  -49.7461  -28.6212    8.1936 H   0  0  0  0  0  0  0  0  0  0  0  0
  -52.4886  -31.4647    4.3781 H   0  0  0  0  0  0  0  0  0  0  0  0
  -49.7448  -30.5380    3.5731 H   0  0  0  0  0  0  0  0  0  0  0  0
  -39.9488  -33.2440    0.8967 H   0  0  0  0  0  0  0  0  0  0  0  0
  -53.8210  -31.1108    6.7135 H   0  0  0  0  0  0  0  0  0  0  0  0
  -45.7646  -27.7405   -1.8413 H   0  0  0  0  0  0  0  0  0  0  0  0
  -47.2992  -27.7269   -0.9451 H   0  0  0  0  0  0  0  0  0  0  0  0
  -47.9942  -29.7701    0.2894 H   0  0  0  0  0  0  0  0  0  0  0  0
  -46.8188  -30.9832    0.7920 H   0  0  0  0  0  0  0  0  0  0  0  0
  -45.8581  -27.1582    2.4224 H   0  0  0  0  0  0  0  0  0  0  0  0
  -47.3060  -27.0744    1.4207 H   0  0  0  0  0  0  0  0  0  0  0  0
  -44.2879  -30.3967    0.3871 H   0  0  0  0  0  0  0  0  0  0  0  0
  -43.9444  -29.6163   -1.1802 H   0  0  0  0  0  0  0  0  0  0  0  0
  -46.2955  -30.1326   -1.4906 H   0  0  0  0  0  0  0  0  0  0  0  0
  -45.2334  -26.3793    0.1504 H   0  0  0  0  0  0  0  0  0  0  0  0
  -45.7530  -29.5294    2.3310 H   0  0  0  0  0  0  0  0  0  0  0  0
  -52.1525  -30.4524    9.3532 H   0  0  0  0  0  0  0  0  0  0  0  0
  -53.5313  -29.5503    8.6774 H   0  0  0  0  0  0  0  0  0  0  0  0
  -51.9609  -28.7506    8.9354 H   0  0  0  0  0  0  0  0  0  0  0  0
  -42.4635  -28.2417    3.7778 H   0  0  0  0  0  0  0  0  0  0  0  0
  -48.6318  -29.4189    2.4732 H   0  0  0  0  0  0  0  0  0  0  0  0
  1  2  2  0  0  0  0
  1  7  1  0  0  0  0
  2  9  1  0  0  0  0
  3  4  1  0  0  0  0
  3 11  2  0  0  0  0
  4 12  2  0  0  0  0
  5  8  2  0  0  0  0
  5 10  1  0  0  0  0
  6 10  2  0  0  0  0
  6 11  1  0  0  0  0
  7 25  2  0  0  0  0
  8 28  1  0  0  0  0
  9 13  2  0  0  0  0
  9 14  1  0  0  0  0
 10 12  1  0  0  0  0
 11 15  1  0  0  0  0
 12 28  1  0  0  0  0
 13 16  1  0  0  0  0
 13 27  1  0  0  0  0
 14 25  1  0  0  0  0
 14 26  2  0  0  0  0
 15 30  1  0  0  0  0
 15 31  2  0  0  0  0
 16 29  1  0  0  0  0
 16 32  2  0  0  0  0
 17 21  1  0  0  0  0
 17 22  1  0  0  0  0
 18 21  1  0  0  0  0
 18 23  1  0  0  0  0
 19 22  1  0  0  0  0
 19 23  1  0  0  0  0
 20 21  1  0  0  0  0
 20 29  1  0  0  0  0
 22 29  1  0  0  0  0
 23 30  1  0  0  0  0
 24 28  1  0  0  0  0
 26 27  1  0  0  0  0
  1 33  1  0  0  0  0
  2 34  1  0  0  0  0
  3 35  1  0  0  0  0
  4 36  1  0  0  0  0
  5 37  1  0  0  0  0
  6 38  1  0  0  0  0
  7 39  1  0  0  0  0
  8 40  1  0  0  0  0
 17 41  1  0  0  0  0
 17 42  1  0  0  0  0
 18 43  1  0  0  0  0
 18 44  1  0  0  0  0
 19 45  1  0  0  0  0
 19 46  1  0  0  0  0
 20 47  1  0  0  0  0
 20 48  1  0  0  0  0
 21 49  1  0  0  0  0
 22 50  1  0  0  0  0
 23 51  1  0  0  0  0
 24 52  1  0  0  0  0
 24 53  1  0  0  0  0
 24 54  1  0  0  0  0
 27 55  1  0  0  0  0
 30 56  1  0  0  0  0
M  END
> <POSIT::Probability>
0.18

> <POSIT::Method>
HYBRID

> <ReceptorTitle>
UCSF-P4529-REFINED_LIGAND-BOUND-STATE_A__DU__LA1_A-201(A)

> <OMEGA_C>
FD4kwvKV/cFAf/y9GBUnwgj588GAeea8U5ZCwlAJ58GYKMtArP9Gwq1N6MFCJeZAyIdQwkCC98Gi
G6hA/P5Gwk768MEweZJAO/chwqY7AcLRmoI/uVVTwroz9sE+n81AnDInwqSI8MFCGKU/MH5Lwrha
8sGOGq1A5JNCwrxM68HG96FADGRLwjT/7cHPPdZAx54pwupy58E8MeA/nN8kwvyR9cEoqxtAJ9I9
wlTU6cHRHoZAf6Qswp4T38HgE4Y/x/w4wr0y4MEs4mW/dsc7wgJR78GiLhQ/X3A5wqro3MG9osc/
NT0ywvSM7MHIq4y+wDg4wqIk7MFwJx6/0f81woZy28FoopY+8JA6wqTM6MFiBe0/u8hRwiF47cFt
FgpB2R4iwtfv/sEkWxRAhs8lwgrm78EUt2JAsKsowrZ058FyVUZA7TNQwrZ08MHaQ+lAZjYxwroy
4sGk1rw+qcg+wkvw6cHC1TRA4WQ5wp3H6MFMopZABfIqwmTe1cHmlI8/JMUjwo+zAMIE6Iu/DeIo
wooC8MHUSWC//iA/wqmi4sEv2tZAAvxGwjr45MEQGQNBXvRRwrq3+8GvGYxAufpGws9N9MGcrWRA
n8sfwtz5BMJWjGU/r0hXwvTi+MFB1dZA8A43wons3cEmruu/ZTI9wqDQ3cGk83G/Evo/wj0p7sEU
KpQ+gEY7wp7d98GIw0o/u243wgZE2cHeCBtAVDk9wlKY2MF92LU/2SYxwmks88FILsY+Eccvwivu
7MFBEJe/oC45wo4P8cHazL6/9O40wugI08GABBo+CgM3wiQ87MHWLhVAJJxQwoKe88GhphVBESBW
wg1n7MF41gpB/ddPwjkB5sFf9w5Bldopwgbv4cF+x3FA+YZCwuJZ68F4SR5A

> <OMEGA_E>
wjiYwA==

> <OMEGA_NBR>
      9429

$$$$
CACHE3HI_1689_42
  -OEChem-03092622523D

 38 40  0     0  0  0  0  0  0999 V2000
  -43.7172  -28.9887    1.9881 C   0  0  0  0  0  0  0  0  0  0  0  0
  -49.6059  -29.1236    6.7871 C   0  0  0  0  0  0  0  0  0  0  0  0
  -43.7846  -29.3115    3.3216 C   0  0  0  0  0  0  0  0  0  0  0  0
  -49.3444  -28.8595    5.4629 C   0  0  0  0  0  0  0  0  0  0  0  0
  -42.3467  -28.7742    1.7476 C   0  0  0  0  0  0  0  0  0  0  0  0
  -51.5192  -29.0738    5.8362 C   0  0  0  0  0  0  0  0  0  0  0  0
  -44.9693  -29.6445    4.1528 C   0  0  0  0  0  0  0  0  0  0  0  0
  -52.9702  -29.1473    5.5079 C   0  0  0  0  0  0  0  0  0  0  0  0
  -53.2841  -28.4933    4.1599 C   0  0  0  0  0  0  0  0  0  0  0  0
  -52.2833  -28.9376    3.0907 C   0  0  0  0  0  0  0  0  0  0  0  0
  -50.8597  -28.5428    3.4835 C   0  0  0  0  0  0  0  0  0  0  0  0
  -48.0780  -28.6314    4.7465 C   0  0  0  0  0  0  0  0  0  0  0  0
  -47.4361  -29.9097    4.1742 C   0  0  0  0  0  0  0  0  0  0  0  0
  -50.9546  -29.2566    7.0135 N   0  0  0  0  0  0  0  0  0  0  0  0
  -41.5981  -28.9460    2.8403 N   0  0  0  0  0  0  0  0  0  0  0  0
  -42.5009  -29.2722    3.7808 N   0  0  0  0  0  0  0  0  0  0  0  0
  -50.5716  -28.8336    4.8728 N   0  0  0  0  0  0  0  0  0  0  0  0
  -41.8917  -28.4284    0.5158 N   0  0  0  0  0  0  0  0  0  0  0  0
  -46.1962  -29.6317    3.5006 N   0  0  0  0  0  0  0  0  0  0  0  0
  -44.8153  -29.8888    5.3465 O   0  0  0  0  0  0  0  0  0  0  0  0
  -44.5435  -28.9190    1.2942 H   0  0  0  0  0  0  0  0  0  0  0  0
  -48.8930  -29.2240    7.5928 H   0  0  0  0  0  0  0  0  0  0  0  0
  -53.2667  -30.2027    5.4804 H   0  0  0  0  0  0  0  0  0  0  0  0
  -53.5576  -28.6654    6.2971 H   0  0  0  0  0  0  0  0  0  0  0  0
  -54.3036  -28.7521    3.8531 H   0  0  0  0  0  0  0  0  0  0  0  0
  -53.2454  -27.4011    4.2600 H   0  0  0  0  0  0  0  0  0  0  0  0
  -52.3443  -30.0265    2.9694 H   0  0  0  0  0  0  0  0  0  0  0  0
  -52.5375  -28.4909    2.1233 H   0  0  0  0  0  0  0  0  0  0  0  0
  -50.1340  -29.0755    2.8603 H   0  0  0  0  0  0  0  0  0  0  0  0
  -50.7127  -27.4644    3.3538 H   0  0  0  0  0  0  0  0  0  0  0  0
  -48.2040  -27.9018    3.9190 H   0  0  0  0  0  0  0  0  0  0  0  0
  -47.3362  -28.1558    5.4204 H   0  0  0  0  0  0  0  0  0  0  0  0
  -47.2102  -30.6277    4.9695 H   0  0  0  0  0  0  0  0  0  0  0  0
  -48.1016  -30.3977    3.4549 H   0  0  0  0  0  0  0  0  0  0  0  0
  -42.1685  -29.4569    4.7192 H   0  0  0  0  0  0  0  0  0  0  0  0
  -42.5203  -28.3631   -0.2929 H   0  0  0  0  0  0  0  0  0  0  0  0
  -40.8897  -28.3223    0.3206 H   0  0  0  0  0  0  0  0  0  0  0  0
  -46.2458  -29.3574    2.5218 H   0  0  0  0  0  0  0  0  0  0  0  0
  1  3  2  0  0  0  0
  1  5  1  0  0  0  0
  2  4  2  0  0  0  0
  2 14  1  0  0  0  0
  3  7  1  0  0  0  0
  3 16  1  0  0  0  0
  4 12  1  0  0  0  0
  4 17  1  0  0  0  0
  5 15  2  0  0  0  0
  5 18  1  0  0  0  0
  6  8  1  0  0  0  0
  6 14  2  0  0  0  0
  6 17  1  0  0  0  0
  7 19  1  0  0  0  0
  7 20  2  0  0  0  0
  8  9  1  0  0  0  0
  9 10  1  0  0  0  0
 10 11  1  0  0  0  0
 11 17  1  0  0  0  0
 12 13  1  0  0  0  0
 13 19  1  0  0  0  0
 15 16  1  0  0  0  0
  1 21  1  0  0  0  0
  2 22  1  0  0  0  0
  8 23  1  0  0  0  0
  8 24  1  0  0  0  0
  9 25  1  0  0  0  0
  9 26  1  0  0  0  0
 10 27  1  0  0  0  0
 10 28  1  0  0  0  0
 11 29  1  0  0  0  0
 11 30  1  0  0  0  0
 12 31  1  0  0  0  0
 12 32  1  0  0  0  0
 13 33  1  0  0  0  0
 13 34  1  0  0  0  0
 16 35  1  0  0  0  0
 18 36  1  0  0  0  0
 18 37  1  0  0  0  0
 19 38  1  0  0  0  0
M  END
> <POSIT::Probability>
0.18

> <POSIT::Method>
FRED

> <ReceptorTitle>
UCSF-P4529-REFINED_LIGAND-BOUND-STATE_A__DU__LA1_A-201(A)

> <OMEGA_C>
Yd4uwszo58Ewef4/fmxGwjf96MFQMNlAbyMvwgx+6sHrlFRArmBFwkDg5sFG0K5ADmMpwpIx5sFi
st8/pxNOwj6X6MEmwrpAkeAzwuIn7cHS44RAfuFTwpst6cFxQLBA4CJVwl7y48GgHYVAHSJRwjeA
58F4zUVAWHBLwqJX5ME28V5A7E9Awh0N5cFq45dAir49wiFH78Ewk4VAgtFLwoIN6sHkbuBAgWQm
wnWR58F+xzVA+QAqwmAt6sEn+HFATUlKwh6r5sHX7ZtAH5EnwmZt48FSDAQ/8Mg4wskN7cHsCWBA
4UIzwioc78G7FqtAgiwywjFa58EAqaU/cpJDws3K6cGa+PJAGxFVwiaf8cGgX69AAjtWwr9S5cGg
gclA4jZZwkIE5sHgmHZASvtUwmI128E7UohAnGBRwl428MFZCj5AaCZSwkrt48G24wdAQIlIwraa
6MHdDjdA2NlKwgG328E0pVZA2dBAwvc238H90HpASlg9wg8/4cHPc61APdc8woIF9cEWBp9AAmhA
wo0u88GhHF1Aj6wowsun68FYA5dA0RQqwojn4sHY9JW+CI8jwhWU4sGkJqQ+tfs4wt3b6sHuZCFA

> <OMEGA_E>
92UBwQ==

> <OMEGA_NBR>
     10680

$$$$
CACHE3HI_1689_99
  -OEChem-03092622523D

 45 48  0     0  0  0  0  0  0999 V2000
  -41.9242  -29.0069    1.0156 C   0  0  0  0  0  0  0  0  0  0  0  0
  -43.0722  -28.2153    0.9909 C   0  0  0  0  0  0  0  0  0  0  0  0
  -44.4111  -30.1649    0.5000 C   0  0  0  0  0  0  0  0  0  0  0  0
  -42.0117  -30.3831    0.7730 C   0  0  0  0  0  0  0  0  0  0  0  0
  -43.2657  -30.9699    0.5315 C   0  0  0  0  0  0  0  0  0  0  0  0
  -48.5564  -29.4010    4.0699 C   0  0  0  0  0  0  0  0  0  0  0  0
  -44.3138  -28.7926    0.7309 C   0  0  0  0  0  0  0  0  0  0  0  0
  -49.3351  -29.5388    2.9462 C   0  0  0  0  0  0  0  0  0  0  0  0
  -49.4748  -29.3704    5.1336 C   0  0  0  0  0  0  0  0  0  0  0  0
  -46.7625  -28.7770    0.4027 C   0  0  0  0  0  0  0  0  0  0  0  0
  -40.7803  -31.2474    0.8341 C   0  0  0  0  0  0  0  0  0  0  0  0
  -47.0816  -29.3091    3.9987 C   0  0  0  0  0  0  0  0  0  0  0  0
  -43.3711  -32.4470    0.2505 C   0  0  0  0  0  0  0  0  0  0  0  0
  -48.8665  -29.6315    1.5453 C   0  0  0  0  0  0  0  0  0  0  0  0
  -46.5902  -29.8410    2.6385 C   0  0  0  0  0  0  0  0  0  0  0  0
  -41.0132  -32.5809    0.1352 C   0  0  0  0  0  0  0  0  0  0  0  0
  -45.5435  -27.9400    0.7001 C   0  0  0  0  0  0  0  0  0  0  0  0
  -49.1891  -29.2350    6.5724 C   0  0  0  0  0  0  0  0  0  0  0  0
  -50.7424  -29.4842    4.7175 N   0  0  0  0  0  0  0  0  0  0  0  0
  -50.6242  -29.5862    3.3778 N   0  0  0  0  0  0  0  0  0  0  0  0
  -47.4085  -29.3470    1.5041 N   0  0  0  0  0  0  0  0  0  0  0  0
  -47.1249  -28.9227   -0.7670 O   0  0  0  0  0  0  0  0  0  0  0  0
  -42.2049  -33.1767    0.6472 O   0  0  0  0  0  0  0  0  0  0  0  0
  -48.5058  -28.0059    6.8236 O   0  0  0  0  0  0  0  0  0  0  0  0
  -40.9621  -28.5461    1.2242 H   0  0  0  0  0  0  0  0  0  0  0  0
  -42.9890  -27.1475    1.1759 H   0  0  0  0  0  0  0  0  0  0  0  0
  -45.3810  -30.6124    0.2944 H   0  0  0  0  0  0  0  0  0  0  0  0
  -39.9262  -30.7378    0.3750 H   0  0  0  0  0  0  0  0  0  0  0  0
  -40.5518  -31.4241    1.8924 H   0  0  0  0  0  0  0  0  0  0  0  0
  -46.7507  -28.2732    4.1290 H   0  0  0  0  0  0  0  0  0  0  0  0
  -46.6421  -29.9056    4.8068 H   0  0  0  0  0  0  0  0  0  0  0  0
  -44.2159  -32.8726    0.8020 H   0  0  0  0  0  0  0  0  0  0  0  0
  -43.5415  -32.6102   -0.8200 H   0  0  0  0  0  0  0  0  0  0  0  0
  -49.0811  -30.6221    1.1381 H   0  0  0  0  0  0  0  0  0  0  0  0
  -49.3599  -28.8792    0.9207 H   0  0  0  0  0  0  0  0  0  0  0  0
  -45.5643  -29.5006    2.4485 H   0  0  0  0  0  0  0  0  0  0  0  0
  -46.5682  -30.9352    2.6588 H   0  0  0  0  0  0  0  0  0  0  0  0
  -41.0933  -32.4657   -0.9529 H   0  0  0  0  0  0  0  0  0  0  0  0
  -40.1786  -33.2598    0.3372 H   0  0  0  0  0  0  0  0  0  0  0  0
  -45.4721  -27.1730   -0.0702 H   0  0  0  0  0  0  0  0  0  0  0  0
  -45.7054  -27.4472    1.6583 H   0  0  0  0  0  0  0  0  0  0  0  0
  -50.1103  -29.2417    7.1831 H   0  0  0  0  0  0  0  0  0  0  0  0
  -48.5560  -30.0587    6.9515 H   0  0  0  0  0  0  0  0  0  0  0  0
  -51.4685  -29.6851    2.8269 H   0  0  0  0  0  0  0  0  0  0  0  0
  -48.3461  -27.9729    7.7785 H   0  0  0  0  0  0  0  0  0  0  0  0
  1  2  1  0  0  0  0
  1  4  2  0  0  0  0
  2  7  2  0  0  0  0
  3  5  2  0  0  0  0
  3  7  1  0  0  0  0
  4  5  1  0  0  0  0
  4 11  1  0  0  0  0
  5 13  1  0  0  0  0
  6  8  2  0  0  0  0
  6  9  1  0  0  0  0
  6 12  1  0  0  0  0
  7 17  1  0  0  0  0
  8 14  1  0  0  0  0
  8 20  1  0  0  0  0
  9 18  1  0  0  0  0
  9 19  2  0  0  0  0
 10 17  1  0  0  0  0
 10 21  1  0  0  0  0
 10 22  2  0  0  0  0
 11 16  1  0  0  0  0
 12 15  1  0  0  0  0
 13 23  1  0  0  0  0
 14 21  1  0  0  0  0
 15 21  1  0  0  0  0
 16 23  1  0  0  0  0
 18 24  1  0  0  0  0
 19 20  1  0  0  0  0
  1 25  1  0  0  0  0
  2 26  1  0  0  0  0
  3 27  1  0  0  0  0
 11 28  1  0  0  0  0
 11 29  1  0  0  0  0
 12 30  1  0  0  0  0
 12 31  1  0  0  0  0
 13 32  1  0  0  0  0
 13 33  1  0  0  0  0
 14 34  1  0  0  0  0
 14 35  1  0  0  0  0
 15 36  1  0  0  0  0
 15 37  1  0  0  0  0
 16 38  1  0  0  0  0
 16 39  1  0  0  0  0
 17 40  1  0  0  0  0
 17 41  1  0  0  0  0
 18 42  1  0  0  0  0
 18 43  1  0  0  0  0
 20 44  1  0  0  0  0
 24 45  1  0  0  0  0
M  END
> <POSIT::Probability>
0.23

> <POSIT::Method>
HYBRID

> <ReceptorTitle>
UCSF-P4529-REFINED_LIGAND-BOUND-STATE_A__DU__LA1_A-201(A)

> <OMEGA_C>
VbInwhAO6MFwAII/8Ekswgm54cFwrH0/7qQxwsdR8cHA+f8+AgwowqoQ88HQ4EU/GhAtwkHC98GA
Dgg/xjlCwkA168GcPIJAW0ExwipX5sGQGTs/JldFwnVP7MFEjzxAJ+ZFwqv26sHPRqRAyAw7wlQ3
5sFANM4++h4jwpb6+cGgiVU/j1M8whx56sFM639ABXwtwsDJAcLgPIA+UXdDwkwN7cHYzMU/U1w6
wni67sHY3ChAeQ0kwt5SAsLAZgo+kyw2wgiF38FgPDM/oMFEwkzh6cF2UdJALvhKwqrf68F99ZZA
NH9KwqKw7MGgLVhARqI9wp7G6sF4h8A/4n88wp1h58GwW0S/3NEowvK0BMLQsCU/+AVCwhwM4MEv
W9pANtkjwoJe5ME4tJw/uvQrwigu2cGAg5Y/GoY1wkPm9MGgvpY+ZrQfwuzm9cEgAMA+FTUiwohk
+8FQOfI/uAA7wnwv4sGbIIRAd5E6wrE+78EJ0ZlAH90wwo59A8LgUk0/dCouwuBwAsLg6FG/BlNE
wib69MEYrpE/gXBFwo4I58EAsms/zkE2wkEB7MEQtBxAzEU6wjl798HEKSpAfV8kwubcAcLA8XO/
5LYgwgkKBcLAqaw+beM1wlti2cEAwI+9SNI2wsmT28GYRNQ/7nBIwhLv6cHy2+VATTlCwjl48MHX
ct5Avt9NwgJ77cGy7DRAcGJBwoPI38F26fhA

> <OMEGA_E>
RpfmwA==

> <OMEGA_NBR>
     12078

$$$$
CACHE3HI_1690_55
  -OEChem-03092622523D

 49 51  0     1  0  0  0  0  0999 V2000
  -42.5972  -32.1164   -0.5344 C   0  0  0  0  0  0  0  0  0  0  0  0
  -40.8967  -31.2704    0.9590 C   0  0  0  0  0  0  0  0  0  0  0  0
  -43.4083  -31.0235   -0.2288 C   0  0  0  0  0  0  0  0  0  0  0  0
  -41.7077  -30.1776    1.2646 C   0  0  0  0  0  0  0  0  0  0  0  0
  -41.3413  -32.2397    0.0596 C   0  0  0  0  0  0  0  0  0  0  0  0
  -42.9638  -30.0542    0.6706 C   0  0  0  0  0  0  0  0  0  0  0  0
  -46.8660  -31.3299    2.5017 C   0  0  0  0  0  0  0  0  0  0  0  0
  -48.2337  -31.3837    2.3669 C   0  0  0  0  0  0  0  0  0  0  0  0
  -46.4460  -32.6473    2.2336 C   0  0  0  0  0  0  0  0  0  0  0  0
  -44.8171  -30.1032    2.9284 C   0  0  0  0  0  0  0  0  0  0  0  0
  -43.9723  -26.5383    0.1417 C   0  0  0  0  0  0  0  0  0  0  0  0
  -49.1875  -30.2682    2.5421 C   0  0  0  0  0  0  0  0  0  0  0  0
  -48.5123  -29.2052    3.4189 C   0  0  0  0  0  0  0  0  0  0  0  0
  -47.0616  -28.9149    2.9862 C   0  0  0  0  0  0  0  0  0  0  0  0
  -40.4732  -33.4073   -0.2677 C   0  0  0  0  0  0  0  0  0  0  0  0
  -45.1028  -33.2511    2.1939 C   0  0  0  0  0  0  0  0  0  0  0  0
  -43.0949  -25.4030   -0.3127 C   0  0  0  0  0  0  0  0  0  0  0  0
  -44.1542  -28.8161    2.4970 C   0  0  0  0  0  0  0  0  0  0  0  0
  -43.8453  -28.8680    1.0028 C   0  0  1  0  0  0  0  0  0  0  0  0
  -47.4664  -33.4671    1.9506 N   0  0  0  0  0  0  0  0  0  0  0  0
  -48.5442  -32.6667    2.0379 N   0  0  0  0  0  0  0  0  0  0  0  0
  -46.2153  -30.1316    2.8361 N   0  0  0  0  0  0  0  0  0  0  0  0
  -43.2363  -27.6390    0.5417 N   0  0  0  0  0  0  0  0  0  0  0  0
  -44.1053  -31.0272    3.3279 O   0  0  0  0  0  0  0  0  0  0  0  0
  -45.1982  -26.4581    0.1243 O   0  0  0  0  0  0  0  0  0  0  0  0
  -42.9512  -32.8658   -1.2372 H   0  0  0  0  0  0  0  0  0  0  0  0
  -39.9201  -31.3591    1.4276 H   0  0  0  0  0  0  0  0  0  0  0  0
  -44.3854  -30.9353   -0.6966 H   0  0  0  0  0  0  0  0  0  0  0  0
  -41.3531  -29.4272    1.9661 H   0  0  0  0  0  0  0  0  0  0  0  0
  -49.4361  -29.8415    1.5637 H   0  0  0  0  0  0  0  0  0  0  0  0
  -50.1183  -30.6055    3.0099 H   0  0  0  0  0  0  0  0  0  0  0  0
  -49.0998  -28.2804    3.3964 H   0  0  0  0  0  0  0  0  0  0  0  0
  -48.5021  -29.5486    4.4621 H   0  0  0  0  0  0  0  0  0  0  0  0
  -47.0566  -28.4054    2.0147 H   0  0  0  0  0  0  0  0  0  0  0  0
  -46.6170  -28.2373    3.7208 H   0  0  0  0  0  0  0  0  0  0  0  0
  -39.8242  -33.1937   -1.1271 H   0  0  0  0  0  0  0  0  0  0  0  0
  -41.0732  -34.2877   -0.5336 H   0  0  0  0  0  0  0  0  0  0  0  0
  -39.8399  -33.6648    0.5903 H   0  0  0  0  0  0  0  0  0  0  0  0
  -44.7944  -33.6476    3.1778 H   0  0  0  0  0  0  0  0  0  0  0  0
  -44.3260  -32.5205    1.9053 H   0  0  0  0  0  0  0  0  0  0  0  0
  -45.0598  -34.0844    1.4718 H   0  0  0  0  0  0  0  0  0  0  0  0
  -42.9071  -25.4949   -1.3865 H   0  0  0  0  0  0  0  0  0  0  0  0
  -43.5935  -24.4495   -0.1144 H   0  0  0  0  0  0  0  0  0  0  0  0
  -42.1431  -25.4185    0.2268 H   0  0  0  0  0  0  0  0  0  0  0  0
  -43.2440  -28.7270    3.0905 H   0  0  0  0  0  0  0  0  0  0  0  0
  -44.8341  -28.0049    2.7567 H   0  0  0  0  0  0  0  0  0  0  0  0
  -44.7855  -28.9467    0.4423 H   0  0  0  0  0  0  0  0  0  0  0  0
  -49.4575  -33.0668    1.8611 H   0  0  0  0  0  0  0  0  0  0  0  0
  -42.2235  -27.6083    0.4882 H   0  0  0  0  0  0  0  0  0  0  0  0
  1  3  2  0  0  0  0
  1  5  1  0  0  0  0
  2  4  1  0  0  0  0
  2  5  2  0  0  0  0
  3  6  1  0  0  0  0
  4  6  2  0  0  0  0
  5 15  1  0  0  0  0
  6 19  1  0  0  0  0
  7  8  2  0  0  0  0
  7  9  1  0  0  0  0
  7 22  1  0  0  0  0
  8 12  1  0  0  0  0
  8 21  1  0  0  0  0
  9 16  1  0  0  0  0
  9 20  2  0  0  0  0
 10 18  1  0  0  0  0
 10 22  1  0  0  0  0
 10 24  2  0  0  0  0
 11 17  1  0  0  0  0
 11 23  1  0  0  0  0
 11 25  2  0  0  0  0
 12 13  1  0  0  0  0
 13 14  1  0  0  0  0
 14 22  1  0  0  0  0
 18 19  1  0  0  0  0
 19 23  1  0  0  0  0
 20 21  1  0  0  0  0
  1 26  1  0  0  0  0
  2 27  1  0  0  0  0
  3 28  1  0  0  0  0
  4 29  1  0  0  0  0
 12 30  1  0  0  0  0
 12 31  1  0  0  0  0
 13 32  1  0  0  0  0
 13 33  1  0  0  0  0
 14 34  1  0  0  0  0
 14 35  1  0  0  0  0
 15 36  1  0  0  0  0
 15 37  1  0  0  0  0
 15 38  1  0  0  0  0
 16 39  1  0  0  0  0
 16 40  1  0  0  0  0
 16 41  1  0  0  0  0
 17 42  1  0  0  0  0
 17 43  1  0  0  0  0
 17 44  1  0  0  0  0
 18 45  1  0  0  0  0
 18 46  1  0  0  0  0
 19 47  1  0  0  0  0
 21 48  1  0  0  0  0
 23 49  1  0  0  0  0
M  END
> <POSIT::Probability>
0.24

> <POSIT::Method>
FRED

> <ReceptorTitle>
UCSF-P4529-REFINED_LIGAND-BOUND-STATE_A__DU__LA1_A-201(A)

> <OMEGA_C>
kGMqwil3AMKAzAi/NpYjwuEp+sE8gHU/I6Itwgsw+MHAS2q+udQmwqlr8cE03aE/cV0lwmz1AMJA
8XM95torwhVv8MFEris/zXY7womj+sHpGyBARu9AwuoR+8HRexdAqsg5wtaWAsL58g5ArEQzwk/T
8MFSajtAquMvwnlO1MGAFBE+9r9EwkYl8sFesSJApQxCwlOk6cFHz1pADT88wq5R58FfHT9Ai+Qh
whmhBcJ4DYm+PWk0wicBBcKnaQxANmEswl45y8HgE6C+3Z0wwlWH5sH2zh9AlmEvwr3x5sEKW4A/
i909wlPeBcKQrfk/SC1CwrKqAsImbAJAdtw4woAN8cEygzVAA/IswsAc3cHQrQo/2mswwsU3+MF8
/FRA+8o0whyq08FAm/49Ds4rwqB2A8I8XZ6/L64fwmvf+sFou7Y/pooxwpR798E4VzK/lWklwtpq
68Gmqvs/nr5Fwlq77sEQJsg/KXlIwhbY9MGqokBAKGZEwjo+4sGwXllAMQJCwoRj7MGMyY5AAjo8
wlI+48Ho8ABAxHc6wgnm4cHLIW5AA0wfwlzGBMIsRpC/+EokwpsmCcJwmQi/A1wfwrqoBsLsGhc/
eC0zwiKXBsL6YEtA1E0xwvIUAsKw4PM/SD00wmRWCMJ6ZLw/4qArwpD1y8FQeLG/y18uwnyYw8GA
YOq9lZIowixZy8HANGg+0vkswvvQ5cH1ykVAJFYzwvUJ4MGybTBAWCQzwr6S58Fge+I+c9RFwm9E
BMJMOO4/5uQowrzd3MFw+Pk+

> <OMEGA_E>
8UoVwQ==

> <OMEGA_NBR>
     13553

$$$$
CACHE3HI_1695_18
  -OEChem-03092622523D

 48 50  0     1  0  0  0  0  0999 V2000
  -49.2133  -29.5896    2.9967 C   0  0  0  0  0  0  0  0  0  0  0  0
  -47.9141  -29.6144    2.4764 C   0  0  0  0  0  0  0  0  0  0  0  0
  -48.3212  -29.3654    5.2111 C   0  0  0  0  0  0  0  0  0  0  0  0
  -43.6713  -31.4472    0.0432 C   0  0  0  0  0  0  0  0  0  0  0  0
  -41.7794  -30.7745    0.9385 C   0  0  0  0  0  0  0  0  0  0  0  0
  -49.4186  -29.4532    4.3616 C   0  0  0  0  0  0  0  0  0  0  0  0
  -47.0119  -29.4082    4.6989 C   0  0  0  0  0  0  0  0  0  0  0  0
  -43.0676  -30.3598    0.7027 C   0  0  0  0  0  0  0  0  0  0  0  0
  -46.7857  -29.4954    3.3069 C   0  0  0  0  0  0  0  0  0  0  0  0
  -50.7685  -29.3836    4.8970 C   0  0  0  0  0  0  0  0  0  0  0  0
  -45.1540  -29.2172    1.4236 C   0  0  0  0  0  0  0  0  0  0  0  0
  -45.8684  -29.3225    5.6706 C   0  0  0  0  0  0  0  0  0  0  0  0
  -44.7021  -30.1185    5.1255 C   0  0  0  0  0  0  0  0  0  0  0  0
  -44.3231  -29.5973    3.7507 C   0  0  0  0  0  0  0  0  0  0  0  0
  -51.8260  -29.0247    8.3970 C   0  0  0  0  0  0  0  0  0  0  0  0
  -43.5732  -27.9928   -0.0317 C   0  0  0  0  0  0  0  0  0  0  0  0
  -40.5262  -32.8845    0.4318 C   0  0  0  0  0  0  0  0  0  0  0  0
  -52.0379  -29.1690    6.9050 C   0  0  0  0  0  0  0  0  0  0  0  0
  -43.6922  -29.0363    1.0694 C   0  0  2  0  0  0  0  0  0  0  0  0
  -42.8356  -32.4747   -0.1291 N   0  0  0  0  0  0  0  0  0  0  0  0
  -41.6932  -32.0354    0.4257 N   0  0  0  0  0  0  0  0  0  0  0  0
  -45.4325  -29.4843    2.7844 N   0  0  0  0  0  0  0  0  0  0  0  0
  -51.7976  -29.4378    4.2105 O   0  0  0  0  0  0  0  0  0  0  0  0
  -45.9803  -29.0985    0.5166 O   0  0  0  0  0  0  0  0  0  0  0  0
  -50.7632  -29.2494    6.2586 O   0  0  0  0  0  0  0  0  0  0  0  0
  -50.0573  -29.6652    2.3155 H   0  0  0  0  0  0  0  0  0  0  0  0
  -47.8364  -29.6908    1.3974 H   0  0  0  0  0  0  0  0  0  0  0  0
  -48.4767  -29.2602    6.2828 H   0  0  0  0  0  0  0  0  0  0  0  0
  -44.6854  -31.5358   -0.3208 H   0  0  0  0  0  0  0  0  0  0  0  0
  -40.9373  -30.2908    1.4147 H   0  0  0  0  0  0  0  0  0  0  0  0
  -45.5877  -28.2791    5.7880 H   0  0  0  0  0  0  0  0  0  0  0  0
  -46.1542  -29.7270    6.6372 H   0  0  0  0  0  0  0  0  0  0  0  0
  -43.8481  -30.0420    5.8082 H   0  0  0  0  0  0  0  0  0  0  0  0
  -44.9626  -31.1829    5.0574 H   0  0  0  0  0  0  0  0  0  0  0  0
  -43.8548  -28.5933    3.8239 H   0  0  0  0  0  0  0  0  0  0  0  0
  -43.5368  -30.2649    3.3510 H   0  0  0  0  0  0  0  0  0  0  0  0
  -51.2842  -29.8853    8.7995 H   0  0  0  0  0  0  0  0  0  0  0  0
  -51.2600  -28.1145    8.6200 H   0  0  0  0  0  0  0  0  0  0  0  0
  -52.7860  -28.9375    8.9158 H   0  0  0  0  0  0  0  0  0  0  0  0
  -44.0364  -28.3502   -0.9588 H   0  0  0  0  0  0  0  0  0  0  0  0
  -42.5202  -27.7736   -0.2416 H   0  0  0  0  0  0  0  0  0  0  0  0
  -44.0673  -27.0506    0.2311 H   0  0  0  0  0  0  0  0  0  0  0  0
  -40.4959  -33.5014    1.3362 H   0  0  0  0  0  0  0  0  0  0  0  0
  -39.6188  -32.2740    0.3897 H   0  0  0  0  0  0  0  0  0  0  0  0
  -40.5346  -33.5663   -0.4249 H   0  0  0  0  0  0  0  0  0  0  0  0
  -52.5801  -28.3055    6.5088 H   0  0  0  0  0  0  0  0  0  0  0  0
  -52.6031  -30.0796    6.6833 H   0  0  0  0  0  0  0  0  0  0  0  0
  -43.2197  -28.6423    1.9734 H   0  0  0  0  0  0  0  0  0  0  0  0
  1  2  2  0  0  0  0
  1  6  1  0  0  0  0
  2  9  1  0  0  0  0
  3  6  2  0  0  0  0
  3  7  1  0  0  0  0
  4  8  1  0  0  0  0
  4 20  2  0  0  0  0
  5  8  2  0  0  0  0
  5 21  1  0  0  0  0
  6 10  1  0  0  0  0
  7  9  2  0  0  0  0
  7 12  1  0  0  0  0
  8 19  1  0  0  0  0
  9 22  1  0  0  0  0
 10 23  2  0  0  0  0
 10 25  1  0  0  0  0
 11 19  1  0  0  0  0
 11 22  1  0  0  0  0
 11 24  2  0  0  0  0
 12 13  1  0  0  0  0
 13 14  1  0  0  0  0
 14 22  1  0  0  0  0
 15 18  1  0  0  0  0
 16 19  1  0  0  0  0
 17 21  1  0  0  0  0
 18 25  1  0  0  0  0
 20 21  1  0  0  0  0
  1 26  1  0  0  0  0
  2 27  1  0  0  0  0
  3 28  1  0  0  0  0
  4 29  1  0  0  0  0
  5 30  1  0  0  0  0
 12 31  1  0  0  0  0
 12 32  1  0  0  0  0
 13 33  1  0  0  0  0
 13 34  1  0  0  0  0
 14 35  1  0  0  0  0
 14 36  1  0  0  0  0
 15 37  1  0  0  0  0
 15 38  1  0  0  0  0
 15 39  1  0  0  0  0
 16 40  1  0  0  0  0
 16 41  1  0  0  0  0
 16 42  1  0  0  0  0
 17 43  1  0  0  0  0
 17 44  1  0  0  0  0
 17 45  1  0  0  0  0
 18 46  1  0  0  0  0
 18 47  1  0  0  0  0
 19 48  1  0  0  0  0
M  END
> <POSIT::Probability>
0.19

> <POSIT::Method>
FRED

> <ReceptorTitle>
UCSF-P4529-REFINED_LIGAND-BOUND-STATE_A__DU__LA1_A-201(A)

> <OMEGA_C>
d9pEwoG37MGByT9ADKg/wlzq7MGifB5A4EhBwm7s6sF4waZAb68uwuOT+8GA5jA9ER4nwjoy9sEo
QHA/n6xFwj+g68HTkYtAKgw8wulD68F7XZZANkUswvLg8sFo5zM/iiQ7wpP268FxpFNA+RJLwp8R
68Hts5xAtJ00wtS86cEaObY/M3k3wnuU6sFTdbVA+M4ywq3y8MGzA6RA1koxwj3H7MGCC3BA2U1P
wp0y6MEVWgZB7kouwi7x38GAwwG90RoiwsGJA8KYEN0+xiZQwiRa6cFy9dxAy8QuwlpK6MFw4og/
o1crwhLmAcJAMQS+zcUmwkEkAMKQ99k+67o1ws3f68EoNDJAtDBPwpOA68EivIZA0es3wrzJ6MHY
PAQ/gg1Lwt7+6cF9RshAoDpIwkdS7cHfMBRAgVg/wtiG7cG03bI/I+hBwu0U6sGZDMlA0r0ywj9J
/MGAPqS+1b8jwo5T8sHwFLU/xVk2wq874sEUN7lA6504wszQ7cEOZNRAbWQvwvZV8MHi3LlAu9kz
wqd2+cFt1qFAWmsvwiq/5MEYunRArSUuwnwe8sHzdlZACSNNwg0V78GiygxBRApNwnjq4MGm6wlB
4yRTwhOA58ESpw5BUSUwwibN4sGQdXW/rhQqwm8w3sHAWXe+5UQwwpNn2MHApmw+z/shwmsBBsK0
CKs/pXkewpsYAcIIgsc+YyMiwuxDBsKAktm++lFSwpJx4sFdSNBAk2lSwhaj8MFA3dVA+uAswloj
5cE8mfw/

> <OMEGA_E>
b3/2wA==

> <OMEGA_NBR>
     15005

$$$$
CACHE3HI_1695_69
  -OEChem-03092622523D

 36 39  0     0  0  0  0  0  0999 V2000
  -42.3588  -30.5800   -0.0531 C   0  0  0  0  0  0  0  0  0  0  0  0
  -42.3882  -29.2084    0.1569 C   0  0  0  0  0  0  0  0  0  0  0  0
  -43.5086  -31.3487    0.1432 C   0  0  0  0  0  0  0  0  0  0  0  0
  -43.5642  -28.5763    0.5651 C   0  0  0  0  0  0  0  0  0  0  0  0
  -44.7173  -30.7376    0.5566 C   0  0  0  0  0  0  0  0  0  0  0  0
  -44.7223  -29.3541    0.7607 C   0  0  0  0  0  0  0  0  0  0  0  0
  -46.0086  -31.3061    0.8192 C   0  0  0  0  0  0  0  0  0  0  0  0
  -46.9377  -30.3686    1.2043 C   0  0  0  0  0  0  0  0  0  0  0  0
  -50.1332  -29.0705    6.3542 C   0  0  0  0  0  0  0  0  0  0  0  0
  -48.3522  -30.5455    1.5566 C   0  0  0  0  0  0  0  0  0  0  0  0
  -48.1038  -28.9622    4.9015 C   0  0  0  0  0  0  0  0  0  0  0  0
  -50.3314  -28.5792    3.9319 C   0  0  0  0  0  0  0  0  0  0  0  0
  -47.9132  -30.2125    4.0434 C   0  0  0  0  0  0  0  0  0  0  0  0
  -50.1730  -29.8272    3.0615 C   0  0  0  0  0  0  0  0  0  0  0  0
  -51.4665  -28.8368    6.5180 N   0  0  0  0  0  0  0  0  0  0  0  0
  -49.5397  -29.6140    7.4198 N   0  0  0  0  0  0  0  0  0  0  0  0
  -51.7604  -29.2453    7.7467 N   0  0  0  0  0  0  0  0  0  0  0  0
  -50.5974  -29.6944    8.2396 N   0  0  0  0  0  0  0  0  0  0  0  0
  -49.5286  -28.7395    5.1467 N   0  0  0  0  0  0  0  0  0  0  0  0
  -48.7655  -30.1767    2.8419 N   0  0  0  0  0  0  0  0  0  0  0  0
  -49.0745  -31.0198    0.6817 O   0  0  0  0  0  0  0  0  0  0  0  0
  -46.2771  -28.7980    1.2573 S   0  0  0  0  0  0  0  0  0  0  0  0
  -46.3399  -32.9850    0.6624 Cl  0  0  0  0  0  0  0  0  0  0  0  0
  -41.4376  -31.0604   -0.3712 H   0  0  0  0  0  0  0  0  0  0  0  0
  -41.4886  -28.6191    0.0023 H   0  0  0  0  0  0  0  0  0  0  0  0
  -43.4594  -32.4213   -0.0263 H   0  0  0  0  0  0  0  0  0  0  0  0
  -43.5779  -27.5024    0.7277 H   0  0  0  0  0  0  0  0  0  0  0  0
  -47.5874  -29.0820    5.8551 H   0  0  0  0  0  0  0  0  0  0  0  0
  -47.6652  -28.1077    4.3837 H   0  0  0  0  0  0  0  0  0  0  0  0
  -49.9947  -27.7006    3.3877 H   0  0  0  0  0  0  0  0  0  0  0  0
  -51.3819  -28.4539    4.1818 H   0  0  0  0  0  0  0  0  0  0  0  0
  -46.8820  -30.2849    3.7006 H   0  0  0  0  0  0  0  0  0  0  0  0
  -48.1434  -31.0964    4.6320 H   0  0  0  0  0  0  0  0  0  0  0  0
  -50.6438  -30.6884    3.5432 H   0  0  0  0  0  0  0  0  0  0  0  0
  -50.6709  -29.6765    2.1019 H   0  0  0  0  0  0  0  0  0  0  0  0
  -50.5224  -30.0730    9.1778 H   0  0  0  0  0  0  0  0  0  0  0  0
  1  2  1  0  0  0  0
  1  3  2  0  0  0  0
  2  4  2  0  0  0  0
  3  5  1  0  0  0  0
  4  6  1  0  0  0  0
  5  6  2  0  0  0  0
  5  7  1  0  0  0  0
  6 22  1  0  0  0  0
  7  8  2  0  0  0  0
  7 23  1  0  0  0  0
  8 10  1  0  0  0  0
  8 22  1  0  0  0  0
  9 15  1  0  0  0  0
  9 16  2  0  0  0  0
  9 19  1  0  0  0  0
 10 20  1  0  0  0  0
 10 21  2  0  0  0  0
 11 13  1  0  0  0  0
 11 19  1  0  0  0  0
 12 14  1  0  0  0  0
 12 19  1  0  0  0  0
 13 20  1  0  0  0  0
 14 20  1  0  0  0  0
 15 17  2  0  0  0  0
 16 18  1  0  0  0  0
 17 18  1  0  0  0  0
  1 24  1  0  0  0  0
  2 25  1  0  0  0  0
  3 26  1  0  0  0  0
  4 27  1  0  0  0  0
 11 28  1  0  0  0  0
 11 29  1  0  0  0  0
 12 30  1  0  0  0  0
 12 31  1  0  0  0  0
 13 32  1  0  0  0  0
 13 33  1  0  0  0  0
 14 34  1  0  0  0  0
 14 35  1  0  0  0  0
 18 36  1  0  0  0  0
M  END
> <POSIT::Probability>
0.24

> <POSIT::Method>
FRED

> <ReceptorTitle>
UCSF-P4529-REFINED_LIGAND-BOUND-STATE_A__DU__LA1_A-201(A)

> <OMEGA_C>
aG8pwu6j9MEAqlm9io0pws+q6cEAtyA+0AguwgvK+sFArRI+wkEuwjyc5MEAqBA/id4ywonm9cHA
ew4/nOMywjPV6sGwvEI/xAg4wvVy+sGwuFE/L8A7wvLy8sEIJpo/bYhIwnmQ6MFDVctAqmhBwi5d
9MEAP8c/SmpAwpey58G72JxAT1NJwiei5MHYo3tAJqc/wjKz8cFmY4FAMLFIwiWe7sH470NArt1N
wsOx5sHIk9BAqihGwmPp7MFfb+1AngpPwk726cEJ5fdAvWNKwjKO7cGP1QNBRh1Gwm/q5cEtsqRA
6A9DwtZp8cHA4TVASUxEwpwo+MFQhC4/yxs5wjti5sFg7qA/Glw5wpjwA8JgkSk/FMAlwsd7+MEg
E76+TPQlwuvz5MEAkBU7cdYtwmOvAcIArte8uU8uwuQE3MGASjo/g1k+wgOo6MFUXbtAJKk+wovc
4MHvRoxAlPpHwsSa3cGYz1hABIdNwn2h48G20YVANoc7woRH8sEc12xAz5JAwl/F+MFuOZRAN5NK
wtSB9cHWw2JACa9Kwm1p7cGAhQZA/RZKwnOV8MEw2BJB

> <OMEGA_E>
pgwJwQ==

> <OMEGA_NBR>
     16220

$$$$
CACHE3HI_1696_56
  -OEChem-03092622523D

 37 38  0     1  0  0  0  0  0999 V2000
  -49.5861  -28.9109    4.0686 C   0  0  0  0  0  0  0  0  0  0  0  0
  -47.2985  -30.1888    3.5560 C   0  0  0  0  0  0  0  0  0  0  0  0
  -48.2915  -30.0994    2.6049 C   0  0  0  0  0  0  0  0  0  0  0  0
  -48.5932  -29.0004    5.0196 C   0  0  0  0  0  0  0  0  0  0  0  0
  -43.4325  -31.9229    2.3201 C   0  0  0  0  0  0  0  0  0  0  0  0
  -44.5549  -29.1096    2.5611 C   0  0  0  0  0  0  0  0  0  0  0  0
  -44.0333  -28.3135    1.3679 C   0  0  0  0  0  0  0  0  0  0  0  0
  -43.8472  -30.7520    0.1421 C   0  0  0  0  0  0  0  0  0  0  0  0
  -44.4716  -31.3048    1.4270 C   0  0  2  0  0  0  0  0  0  0  0  0
  -41.4419  -32.5241    0.3755 C   0  0  0  0  0  0  0  0  0  0  0  0
  -46.0052  -30.9030    3.2867 C   0  0  0  0  0  0  0  0  0  0  0  0
  -41.1387  -31.9749    1.7533 C   0  0  0  0  0  0  0  0  0  0  0  0
  -49.4534  -29.4585    2.8443 N   0  0  0  0  0  0  0  0  0  0  0  0
  -47.4314  -29.6414    4.7802 N   0  0  0  0  0  0  0  0  0  0  0  0
  -45.2817  -30.3181    2.1583 N   0  0  1  0  0  0  0  0  0  0  0  0
  -48.0908  -30.6952    1.3395 N   0  0  0  0  0  0  0  0  0  0  0  0
  -43.6298  -32.9038    3.0237 O   0  0  0  0  0  0  0  0  0  0  0  0
  -42.2665  -31.2240    2.2145 O   0  0  0  0  0  0  0  0  0  0  0  0
  -42.8357  -29.2631    0.3965 S   0  0  0  0  0  0  0  0  0  0  0  0
  -48.8498  -28.2073    6.7190 Br  0  0  0  0  0  0  0  0  0  0  0  0
  -50.5251  -28.3993    4.2467 H   0  0  0  0  0  0  0  0  0  0  0  0
  -43.7388  -29.3424    3.2574 H   0  0  0  0  0  0  0  0  0  0  0  0
  -45.2402  -28.4465    3.1053 H   0  0  0  0  0  0  0  0  0  0  0  0
  -44.8569  -28.0057    0.7140 H   0  0  0  0  0  0  0  0  0  0  0  0
  -43.5406  -27.4014    1.7200 H   0  0  0  0  0  0  0  0  0  0  0  0
  -43.2063  -31.5086   -0.3237 H   0  0  0  0  0  0  0  0  0  0  0  0
  -44.6328  -30.5034   -0.5806 H   0  0  0  0  0  0  0  0  0  0  0  0
  -45.1309  -32.1282    1.1216 H   0  0  0  0  0  0  0  0  0  0  0  0
  -42.3137  -33.1839    0.4014 H   0  0  0  0  0  0  0  0  0  0  0  0
  -41.6353  -31.7099   -0.3303 H   0  0  0  0  0  0  0  0  0  0  0  0
  -40.5857  -33.0850   -0.0127 H   0  0  0  0  0  0  0  0  0  0  0  0
  -45.3517  -30.8620    4.1645 H   0  0  0  0  0  0  0  0  0  0  0  0
  -46.1800  -31.9600    3.0605 H   0  0  0  0  0  0  0  0  0  0  0  0
  -40.2660  -31.3161    1.7206 H   0  0  0  0  0  0  0  0  0  0  0  0
  -40.9463  -32.7898    2.4582 H   0  0  0  0  0  0  0  0  0  0  0  0
  -47.2116  -31.1245    1.1399 H   0  0  0  0  0  0  0  0  0  0  0  0
  -48.7894  -30.5837    0.6348 H   0  0  0  0  0  0  0  0  0  0  0  0
  1  4  2  0  0  0  0
  1 13  1  0  0  0  0
  2  3  1  0  0  0  0
  2 11  1  0  0  0  0
  2 14  2  0  0  0  0
  3 13  2  0  0  0  0
  3 16  1  0  0  0  0
  4 14  1  0  0  0  0
  4 20  1  0  0  0  0
  5  9  1  0  0  0  0
  5 17  2  0  0  0  0
  5 18  1  0  0  0  0
  6  7  1  0  0  0  0
  6 15  1  0  0  0  0
  7 19  1  0  0  0  0
  8  9  1  0  0  0  0
  8 19  1  0  0  0  0
  9 15  1  0  0  0  0
 10 12  1  0  0  0  0
 11 15  1  0  0  0  0
 12 18  1  0  0  0  0
  1 21  1  0  0  0  0
  6 22  1  0  0  0  0
  6 23  1  0  0  0  0
  7 24  1  0  0  0  0
  7 25  1  0  0  0  0
  8 26  1  0  0  0  0
  8 27  1  0  0  0  0
  9 28  1  0  0  0  0
 10 29  1  0  0  0  0
 10 30  1  0  0  0  0
 10 31  1  0  0  0  0
 11 32  1  0  0  0  0
 11 33  1  0  0  0  0
 12 34  1  0  0  0  0
 12 35  1  0  0  0  0
 16 36  1  0  0  0  0
 16 37  1  0  0  0  0
M  END
> <POSIT::Probability>
0.23

> <POSIT::Method>
HYBRID

> <ReceptorTitle>
UCSF-P4529-REFINED_LIGAND-BOUND-STATE_A__DU__LA1_A-201(A)

> <OMEGA_C>
NVhGwnpJ58E9MoJAtzE9wqiC8cHClWNAhCpBwqrL8ME8tiZAcF9CwsoA6MF9oKBA5Lotwhli/8G4
exRAODgywoHg6MFk6SNAHSIwwheC4sGgF68/i2MvwgIE9sEAgxE+6uIxwihw+sH8p7Y/f8QlwrEY
AsLARsA+TwU4wmU598G8WVJA/Y0kwqzM/8E4beA/RNBFwhur68HOCTZAwrk9wn8h7cFS95hAeyA1
wnaL8sF0IQpAAl1Aws6P9cEQdas/7oQuwnadA8KUhEFA2hApwrHK+cEguw1Ax1crwsIa6sGA/8o+
LmZDwpWo4cHkAddAuhlKwtcx48Ha5IdAkfQuwiS96sH0eVBAAfY0wmWS48EwvUZAfm0zwqgL4MEY
yzY/jykuwik228GYKdw/PNMswrYR/MHguaW+8ocywvoG9MEwpBS/FYY0wlODAMLYkY8/PkEpwl28
BMJgg80+joomwtqt/cEAIKm+yVciwhFXBMIATE+8J2g1wmbl9sFYQ4VATLg4wiOu/8F83kNAbBAh
wluH+sGEO9w/9sgjwswoA8KAUh1AtNg8wuz++MGc6ZE/WyhDwl2r9MEggSI/

> <OMEGA_E>
0GK/wA==

> <OMEGA_NBR>
     17458

$$$$
CACHE3HI_1700_73
  -OEChem-03092622523D

 46 49  0     1  0  0  0  0  0999 V2000
  -49.0598  -28.8681    5.8174 C   0  0  0  0  0  0  0  0  0  0  0  0
  -48.2588  -29.7319    3.7204 C   0  0  0  0  0  0  0  0  0  0  0  0
  -47.7555  -28.9352    6.2814 C   0  0  0  0  0  0  0  0  0  0  0  0
  -49.3074  -29.2760    4.5114 C   0  0  0  0  0  0  0  0  0  0  0  0
  -46.9906  -29.7603    4.2778 C   0  0  0  0  0  0  0  0  0  0  0  0
  -40.8959  -33.0275   -0.1160 C   0  0  0  0  0  0  0  0  0  0  0  0
  -41.2949  -31.6671   -0.6759 C   0  0  0  0  0  0  0  0  0  0  0  0
  -41.1524  -32.8908    1.3763 C   0  0  0  0  0  0  0  0  0  0  0  0
  -45.6781  -29.5881    1.1274 C   0  0  0  0  0  0  0  0  0  0  0  0
  -44.0216  -28.8447    2.8872 C   0  0  0  0  0  0  0  0  0  0  0  0
  -46.1721  -30.6635    2.0972 C   0  0  0  0  0  0  0  0  0  0  0  0
  -44.5567  -29.9342    3.8238 C   0  0  0  0  0  0  0  0  0  0  0  0
  -40.9123  -30.6651    0.4169 C   0  0  2  0  0  0  0  0  0  0  0  0
  -40.5991  -31.5035    1.6803 C   0  0  1  0  0  0  0  0  0  0  0  0
  -44.2212  -29.1901    1.4049 C   0  0  0  0  0  0  0  0  0  0  0  0
  -41.9621  -29.8697    1.2450 C   0  0  2  0  0  0  0  0  0  0  0  0
  -41.3917  -30.4928    2.5381 C   0  0  1  0  0  0  0  0  0  0  0  0
  -46.7113  -29.3723    5.5423 N   0  0  0  0  0  0  0  0  0  0  0  0
  -45.9517  -30.2219    3.4760 N   0  0  0  0  0  0  0  0  0  0  0  0
  -43.3141  -30.2407    0.9965 N   0  0  0  0  0  0  0  0  0  0  0  0
  -42.3275  -31.0396    3.4842 O   0  0  0  0  0  0  0  0  0  0  0  0
  -51.0618  -29.2085    3.8144 Br  0  0  0  0  0  0  0  0  0  0  0  0
  -49.8507  -28.5066    6.4661 H   0  0  0  0  0  0  0  0  0  0  0  0
  -48.4269  -30.0566    2.6977 H   0  0  0  0  0  0  0  0  0  0  0  0
  -47.5102  -28.6293    7.2932 H   0  0  0  0  0  0  0  0  0  0  0  0
  -41.5216  -33.8205   -0.5434 H   0  0  0  0  0  0  0  0  0  0  0  0
  -39.8519  -33.2758   -0.3375 H   0  0  0  0  0  0  0  0  0  0  0  0
  -40.7078  -31.4630   -1.5790 H   0  0  0  0  0  0  0  0  0  0  0  0
  -42.3503  -31.6200   -0.9543 H   0  0  0  0  0  0  0  0  0  0  0  0
  -42.2023  -32.9932    1.6304 H   0  0  0  0  0  0  0  0  0  0  0  0
  -40.5818  -33.6440    1.9177 H   0  0  0  0  0  0  0  0  0  0  0  0
  -45.7786  -29.9620    0.0994 H   0  0  0  0  0  0  0  0  0  0  0  0
  -46.3281  -28.7075    1.2056 H   0  0  0  0  0  0  0  0  0  0  0  0
  -44.5232  -27.8936    3.1224 H   0  0  0  0  0  0  0  0  0  0  0  0
  -42.9517  -28.6872    3.0992 H   0  0  0  0  0  0  0  0  0  0  0  0
  -47.2361  -30.8496    1.9308 H   0  0  0  0  0  0  0  0  0  0  0  0
  -45.6284  -31.5904    1.9003 H   0  0  0  0  0  0  0  0  0  0  0  0
  -43.9414  -30.8263    3.7096 H   0  0  0  0  0  0  0  0  0  0  0  0
  -44.4911  -29.5959    4.8580 H   0  0  0  0  0  0  0  0  0  0  0  0
  -40.0836  -30.0222    0.0964 H   0  0  0  0  0  0  0  0  0  0  0  0
  -39.5294  -31.5306    1.9384 H   0  0  0  0  0  0  0  0  0  0  0  0
  -43.9859  -28.2909    0.8037 H   0  0  0  0  0  0  0  0  0  0  0  0
  -41.7805  -28.7609    1.2041 H   0  0  0  0  0  0  0  0  0  0  0  0
  -40.7282  -29.7966    3.0530 H   0  0  0  0  0  0  0  0  0  0  0  0
  -43.5287  -31.0913    1.5162 H   0  0  0  0  0  0  0  0  0  0  0  0
  -41.8038  -31.5896    4.0798 H   0  0  0  0  0  0  0  0  0  0  0  0
  1  3  1  0  0  0  0
  1  4  2  0  0  0  0
  2  4  1  0  0  0  0
  2  5  2  0  0  0  0
  3 18  2  0  0  0  0
  4 22  1  0  0  0  0
  5 18  1  0  0  0  0
  5 19  1  0  0  0  0
  6  7  1  0  0  0  0
  6  8  1  0  0  0  0
  7 13  1  0  0  0  0
  8 14  1  0  0  0  0
  9 11  1  0  0  0  0
  9 15  1  0  0  0  0
 10 12  1  0  0  0  0
 10 15  1  0  0  0  0
 11 19  1  0  0  0  0
 12 19  1  0  0  0  0
 13 14  1  0  0  0  0
 13 16  1  0  0  0  0
 14 17  1  0  0  0  0
 15 20  1  0  0  0  0
 16 17  1  0  0  0  0
 16 20  1  0  0  0  0
 17 21  1  0  0  0  0
  1 23  1  0  0  0  0
  2 24  1  0  0  0  0
  3 25  1  0  0  0  0
  6 26  1  0  0  0  0
  6 27  1  0  0  0  0
  7 28  1  0  0  0  0
  7 29  1  0  0  0  0
  8 30  1  0  0  0  0
  8 31  1  0  0  0  0
  9 32  1  0  0  0  0
  9 33  1  0  0  0  0
 10 34  1  0  0  0  0
 10 35  1  0  0  0  0
 11 36  1  0  0  0  0
 11 37  1  0  0  0  0
 12 38  1  0  0  0  0
 12 39  1  0  0  0  0
 13 40  1  0  0  0  0
 14 41  1  0  0  0  0
 15 42  1  0  0  0  0
 16 43  1  0  0  0  0
 17 44  1  0  0  0  0
 20 45  1  0  0  0  0
 21 46  1  0  0  0  0
M  END
> <POSIT::Probability>
0.18

> <POSIT::Method>
HYBRID

> <ReceptorTitle>
UCSF-P4529-REFINED_LIGAND-BOUND-STATE_A__DU__LA1_A-201(A)

> <OMEGA_C>
PD1EwuLx5sEKKLpA+whBwvTa7cGyG25AogU/wjB758FJAclAxTpFwj816sGPXZBAW/Y7wigV7sHO
44hAZpUjwjAcBMKAfe29+y0lwiVW/cGgCC2/D5wkwi2QA8LAKrA/VbY2wli07MGwT5A/KhYwwuvB
5sE4yDhARLA4wuRO9cHuOAZAGzoywih578F0uHRAOaYjwhFS9cGAddU+fWUiwhIH/MFcFdc/juIw
wkeF6cEw1LM/Mtknwin17sHQXJ8/HZElwkLx88FUcCJAWNg6wor66sFDWrFAjs43wobG8cH8dl5A
oEEtwt3s8cFgGn8/Z08pwhpR+MG4/F5AQD9MwgCr6cEsH3RAJGdHwoMN5ME86s5AJLVBwuJz8MFQ
pyxAeAo+ws4I5cEUYulAGRYmwjJIB8LgHQu/Xmgfwl8aBcKA0qy+wNQiwjO0+8FYHMq/wmYpwrX1
/MFASnS/Ks8owgD5A8KIsdA/vFMiwmyTBsJYd/U/Th03wj2y78EAfMs9BlA5wvio5cFoUpo/zBcy
whom38F41UdAlM4rwlt/5cFCWUZAyvE8wvPL9sG8I/c/f4M2wha5/MGwPfM/9MMvwj6c9sG0aW1A
4PYxwmLE7MEKdZtAkVUgwm0t8MEAaMU9Ex4ewps+/MEMHvg/lPEvwsZT4sFgvE0/Rx8nwmwW5sHg
IJo/pekiwnVf7sHuY0NAZx0uwu+6+MFsEsI/DTcnwnS3/MHkjYJA

> <OMEGA_E>
nkYEwQ==

> <OMEGA_NBR>
     18889

$$$$
CACHE3HI_1702_55
  -OEChem-03092622523D

 49 51  0     1  0  0  0  0  0999 V2000
  -47.6740  -28.7091    5.6883 C   0  0  0  0  0  0  0  0  0  0  0  0
  -46.3557  -29.1013    5.4284 C   0  0  0  0  0  0  0  0  0  0  0  0
  -47.0180  -30.1242    3.3246 C   0  0  0  0  0  0  0  0  0  0  0  0
  -48.6600  -29.0159    4.7617 C   0  0  0  0  0  0  0  0  0  0  0  0
  -48.3085  -29.7302    3.6165 C   0  0  0  0  0  0  0  0  0  0  0  0
  -46.0305  -29.8020    4.2536 C   0  0  0  0  0  0  0  0  0  0  0  0
  -50.1254  -28.7140    4.9021 C   0  0  0  0  0  0  0  0  0  0  0  0
  -44.1067  -28.8753    0.1533 C   0  0  0  0  0  0  0  0  0  0  0  0
  -42.9379  -29.7437   -0.3325 C   0  0  0  0  0  0  0  0  0  0  0  0
  -41.6637  -29.8388    1.9121 C   0  0  0  0  0  0  0  0  0  0  0  0
  -44.7969  -29.3589    1.4246 C   0  0  0  0  0  0  0  0  0  0  0  0
  -42.5700  -28.7827    2.5327 C   0  0  0  0  0  0  0  0  0  0  0  0
  -50.7271  -28.8152    3.4942 C   0  0  0  0  0  0  0  0  0  0  0  0
  -42.2420  -30.6185    0.7212 C   0  0  2  0  0  0  0  0  0  0  0  0
  -40.4118  -32.2948    1.1057 C   0  0  0  0  0  0  0  0  0  0  0  0
  -41.7119  -32.3263   -1.0427 C   0  0  0  0  0  0  0  0  0  0  0  0
  -41.1335  -31.4480    0.0623 C   0  0  0  0  0  0  0  0  0  0  0  0
  -43.9749  -29.2321    2.6626 N   0  0  2  0  0  0  0  0  0  0  0  0
  -50.1672  -31.3238    2.8022 O   0  0  0  0  0  0  0  0  0  0  0  0
  -49.3916  -29.4313    1.2802 O   0  0  0  0  0  0  0  0  0  0  0  0
  -44.3628  -31.6421    3.4725 O   0  0  0  0  0  0  0  0  0  0  0  0
  -43.5746  -29.9003    5.1134 O   0  0  0  0  0  0  0  0  0  0  0  0
  -49.6923  -29.9752    2.5865 S   0  0  0  0  0  0  0  0  0  0  0  0
  -44.3566  -30.2772    3.9546 S   0  0  0  0  0  0  0  0  0  0  0  0
  -47.9134  -28.1746    6.6021 H   0  0  0  0  0  0  0  0  0  0  0  0
  -45.5804  -28.8582    6.1512 H   0  0  0  0  0  0  0  0  0  0  0  0
  -46.7846  -30.6607    2.4118 H   0  0  0  0  0  0  0  0  0  0  0  0
  -50.5786  -29.4643    5.5600 H   0  0  0  0  0  0  0  0  0  0  0  0
  -50.3008  -27.7206    5.3264 H   0  0  0  0  0  0  0  0  0  0  0  0
  -43.7290  -27.8615    0.3498 H   0  0  0  0  0  0  0  0  0  0  0  0
  -44.8419  -28.7567   -0.6549 H   0  0  0  0  0  0  0  0  0  0  0  0
  -43.3436  -30.4169   -1.1208 H   0  0  0  0  0  0  0  0  0  0  0  0
  -42.1925  -29.1132   -0.8704 H   0  0  0  0  0  0  0  0  0  0  0  0
  -40.7059  -29.3704    1.6163 H   0  0  0  0  0  0  0  0  0  0  0  0
  -41.4016  -30.5674    2.7011 H   0  0  0  0  0  0  0  0  0  0  0  0
  -45.7080  -28.7643    1.5728 H   0  0  0  0  0  0  0  0  0  0  0  0
  -45.1016  -30.4052    1.2977 H   0  0  0  0  0  0  0  0  0  0  0  0
  -42.1733  -28.4199    3.5094 H   0  0  0  0  0  0  0  0  0  0  0  0
  -42.5382  -27.8809    1.8796 H   0  0  0  0  0  0  0  0  0  0  0  0
  -51.7627  -29.1612    3.4973 H   0  0  0  0  0  0  0  0  0  0  0  0
  -50.6589  -27.8525    2.9765 H   0  0  0  0  0  0  0  0  0  0  0  0
  -42.9851  -31.3322    1.1164 H   0  0  0  0  0  0  0  0  0  0  0  0
  -41.1006  -33.0031    1.5780 H   0  0  0  0  0  0  0  0  0  0  0  0
  -39.9927  -31.6602    1.8934 H   0  0  0  0  0  0  0  0  0  0  0  0
  -39.5914  -32.8668    0.6587 H   0  0  0  0  0  0  0  0  0  0  0  0
  -42.4398  -33.0335   -0.6312 H   0  0  0  0  0  0  0  0  0  0  0  0
  -42.2175  -31.7261   -1.8066 H   0  0  0  0  0  0  0  0  0  0  0  0
  -40.9232  -32.9051   -1.5336 H   0  0  0  0  0  0  0  0  0  0  0  0
  -40.4120  -30.7555   -0.3846 H   0  0  0  0  0  0  0  0  0  0  0  0
  1  2  2  0  0  0  0
  1  4  1  0  0  0  0
  2  6  1  0  0  0  0
  3  5  1  0  0  0  0
  3  6  2  0  0  0  0
  4  5  2  0  0  0  0
  4  7  1  0  0  0  0
  5 23  1  0  0  0  0
  6 24  1  0  0  0  0
  7 13  1  0  0  0  0
  8  9  1  0  0  0  0
  8 11  1  0  0  0  0
  9 14  1  0  0  0  0
 10 12  1  0  0  0  0
 10 14  1  0  0  0  0
 11 18  1  0  0  0  0
 12 18  1  0  0  0  0
 13 23  1  0  0  0  0
 14 17  1  0  0  0  0
 15 17  1  0  0  0  0
 16 17  1  0  0  0  0
 18 24  1  0  0  0  0
 19 23  2  0  0  0  0
 20 23  2  0  0  0  0
 21 24  2  0  0  0  0
 22 24  2  0  0  0  0
  1 25  1  0  0  0  0
  2 26  1  0  0  0  0
  3 27  1  0  0  0  0
  7 28  1  0  0  0  0
  7 29  1  0  0  0  0
  8 30  1  0  0  0  0
  8 31  1  0  0  0  0
  9 32  1  0  0  0  0
  9 33  1  0  0  0  0
 10 34  1  0  0  0  0
 10 35  1  0  0  0  0
 11 36  1  0  0  0  0
 11 37  1  0  0  0  0
 12 38  1  0  0  0  0
 12 39  1  0  0  0  0
 13 40  1  0  0  0  0
 13 41  1  0  0  0  0
 14 42  1  0  0  0  0
 15 43  1  0  0  0  0
 15 44  1  0  0  0  0
 15 45  1  0  0  0  0
 16 46  1  0  0  0  0
 16 47  1  0  0  0  0
 16 48  1  0  0  0  0
 17 49  1  0  0  0  0
M  END
> <POSIT::Probability>
0.33

> <POSIT::Method>
HYBRID

> <ReceptorTitle>
UCSF-P4529-REFINED_LIGAND-BOUND-STATE_A__DU__LA1_A-201(A)

> <OMEGA_C>
ILI+wkKs5cGIBrZAQ2w5wo7P6MFzta1AcxI8wmD+8MHKxlRA1KNCwoMg6MFzX5hA7DtBwnvX7cH1
dGdANh84wnVq7sGfHYhAaoBIwkC25cEj3pxAPW0wwpwA58FG+xw+YsArwg7z7cHlNqq+nacmwtO1
7sGuv/Q/ATAzwvbe6sHaV7Y/s0cqwgxD5sF4FyJAluhKwomF5sHGoV9A1/cowrry9MGunTg/pqUh
wuItAcKxiI0/CNkmwhdOAcIJeIW/t4gkwmeV+8HYBn89ReYvwlzb6cHWaCpANqtIwj6X+sGdVjNA
CpFFwjZz68Eh3qM/g3Mxwvki/cHTPF5AWEwuwrgz78EHoaNA5MRGwkzN78HXiSVAL20xwrY38sGz
GH1ASKc/wq1l4cFjRNNAYFI2wn7d5sFl1sRAciM7wjNJ9cEaWxpAcFBKwsu268GP67FABzRJwtjD
3cEncqpAfuouwlnk3sHrG7M+J14zws4N5sHupSe/zV8twsJV88GNd4+/KsUowt7n6MGW016/2dIi
wq326sGl4s4/Spslwv+J9MFF3yxA8tQ2wkgd5sE4Usk/Cmg0wvE988F7G6Y/abEowgVc48F1mWBA
FScqwgoM38Fml/A/Dg1PwiVK6cFy019AuqJKwujR3sGGfz5AuvArwlmo+sGs5I4//WYkwiMDBMI7
/ck/kfgfwh5I/cFnW/I/kV0ewqd3A8K6oig/ZsIpwkciBML+lCG/tN4owhnP/cERQOe/W7Ejws6e
A8LhTcS/46UhwlQL9sF958S+

> <OMEGA_E>
BMrnwA==

> <OMEGA_NBR>
     20368

$$$$
CACHE3HI_1704_48
  -OEChem-03092622523D

 39 40  0     0  0  0  0  0  0999 V2000
  -44.3559  -29.3114    1.7887 C   0  0  0  0  0  0  0  0  0  0  0  0
  -42.9836  -29.2641    1.8155 C   0  0  0  0  0  0  0  0  0  0  0  0
  -44.7211  -28.3305    0.8391 C   0  0  0  0  0  0  0  0  0  0  0  0
  -42.0592  -30.0288    2.5865 C   0  0  0  0  0  0  0  0  0  0  0  0
  -47.7110  -29.7075    3.2775 C   0  0  0  0  0  0  0  0  0  0  0  0
  -48.2167  -28.7703    6.8505 C   0  0  0  0  0  0  0  0  0  0  0  0
  -45.3225  -30.1582    2.5284 C   0  0  0  0  0  0  0  0  0  0  0  0
  -46.1304  -28.0302    0.4942 C   0  0  0  0  0  0  0  0  0  0  0  0
  -47.0362  -29.1861    0.9489 C   0  0  0  0  0  0  0  0  0  0  0  0
  -49.4488  -28.1100    7.4083 C   0  0  0  0  0  0  0  0  0  0  0  0
  -40.9569  -31.9598    0.3082 C   0  0  0  0  0  0  0  0  0  0  0  0
  -47.2700  -29.6319    4.7182 C   0  0  0  0  0  0  0  0  0  0  0  0
  -40.4341  -31.5489    1.6682 C   0  0  0  0  0  0  0  0  0  0  0  0
  -43.6702  -27.7031    0.3060 N   0  0  0  0  0  0  0  0  0  0  0  0
  -42.6280  -28.2954    0.9191 N   0  0  0  0  0  0  0  0  0  0  0  0
  -46.7008  -29.6533    2.3128 N   0  0  0  0  0  0  0  0  0  0  0  0
  -48.3045  -28.9975    5.4814 N   0  0  0  0  0  0  0  0  0  0  0  0
  -42.2798  -30.5026    3.7262 O   0  0  0  0  0  0  0  0  0  0  0  0
  -48.9125  -29.8077    3.0185 O   0  0  0  0  0  0  0  0  0  0  0  0
  -47.2649  -29.0765    7.5646 O   0  0  0  0  0  0  0  0  0  0  0  0
  -40.8533  -30.2082    1.9434 O   0  0  0  0  0  0  0  0  0  0  0  0
  -45.2311  -31.1981    2.2074 H   0  0  0  0  0  0  0  0  0  0  0  0
  -45.1279  -30.1094    3.6055 H   0  0  0  0  0  0  0  0  0  0  0  0
  -46.4576  -27.0983    0.9685 H   0  0  0  0  0  0  0  0  0  0  0  0
  -46.2167  -27.9011   -0.5914 H   0  0  0  0  0  0  0  0  0  0  0  0
  -48.0829  -28.8584    0.9820 H   0  0  0  0  0  0  0  0  0  0  0  0
  -46.9772  -30.0056    0.2262 H   0  0  0  0  0  0  0  0  0  0  0  0
  -50.1621  -28.8771    7.7237 H   0  0  0  0  0  0  0  0  0  0  0  0
  -49.1783  -27.4932    8.2706 H   0  0  0  0  0  0  0  0  0  0  0  0
  -49.9124  -27.4695    6.6521 H   0  0  0  0  0  0  0  0  0  0  0  0
  -42.0497  -31.9235    0.2826 H   0  0  0  0  0  0  0  0  0  0  0  0
  -40.5627  -31.3005   -0.4719 H   0  0  0  0  0  0  0  0  0  0  0  0
  -40.6313  -32.9753    0.0610 H   0  0  0  0  0  0  0  0  0  0  0  0
  -47.0861  -30.6404    5.0782 H   0  0  0  0  0  0  0  0  0  0  0  0
  -46.3504  -29.0566    4.7767 H   0  0  0  0  0  0  0  0  0  0  0  0
  -39.3411  -31.5874    1.6871 H   0  0  0  0  0  0  0  0  0  0  0  0
  -40.8295  -32.2082    2.4473 H   0  0  0  0  0  0  0  0  0  0  0  0
  -41.6937  -27.9866    0.6768 H   0  0  0  0  0  0  0  0  0  0  0  0
  -49.1616  -28.7238    4.9990 H   0  0  0  0  0  0  0  0  0  0  0  0
  1  2  2  0  0  0  0
  1  3  1  0  0  0  0
  1  7  1  0  0  0  0
  2  4  1  0  0  0  0
  2 15  1  0  0  0  0
  3  8  1  0  0  0  0
  3 14  2  0  0  0  0
  4 18  2  0  0  0  0
  4 21  1  0  0  0  0
  5 12  1  0  0  0  0
  5 16  1  0  0  0  0
  5 19  2  0  0  0  0
  6 10  1  0  0  0  0
  6 17  1  0  0  0  0
  6 20  2  0  0  0  0
  7 16  1  0  0  0  0
  8  9  1  0  0  0  0
  9 16  1  0  0  0  0
 11 13  1  0  0  0  0
 12 17  1  0  0  0  0
 13 21  1  0  0  0  0
 14 15  1  0  0  0  0
  7 22  1  0  0  0  0
  7 23  1  0  0  0  0
  8 24  1  0  0  0  0
  8 25  1  0  0  0  0
  9 26  1  0  0  0  0
  9 27  1  0  0  0  0
 10 28  1  0  0  0  0
 10 29  1  0  0  0  0
 10 30  1  0  0  0  0
 11 31  1  0  0  0  0
 11 32  1  0  0  0  0
 11 33  1  0  0  0  0
 12 34  1  0  0  0  0
 12 35  1  0  0  0  0
 13 36  1  0  0  0  0
 13 37  1  0  0  0  0
 15 38  1  0  0  0  0
 17 39  1  0  0  0  0
M  END
> <POSIT::Probability>
0.18

> <POSIT::Method>
FRED

> <ReceptorTitle>
UCSF-P4529-REFINED_LIGAND-BOUND-STATE_A__DU__LA1_A-201(A)

> <OMEGA_C>
emwxwq596sHv8uQ/Oe8rwu4c6sHRYOg/buIywu6k4sEa0lY/qDwowgk78MG1iSVAEtg+wu6o7cH4
wVFA491AwqQp5sFmN9tAMUo1wu5D8cFc0SFAiYU4wu494MFNCf0+CiU8wi596cE+63I/h8tFwlDh
4MHVEO1A39MjwrKt/8Gdyp0+bxQ9wh4O7cG9+5ZAirwhwjhk/MG9iNU/VK4uwu6f3cEtrZw+B4Mq
wu5c4sH6Rms/o806wu457cFeBBRAxzdBwsr658H8Z69Aix4pwloF9MHweW5AaaZDwhZ27sFxL0FA
PQ89wr2c6MHoEPJAvmkjwlKq8cEtwPg/new0wqCV+cF4RQ1A/YI0wiHg8MH4v2ZAjtQ5wk7J2MHK
7Hc/4d04wmE138FqZxe/6lRAwvDd5sFmYXs/oeg7wnsL8MF6lWc+B6ZIwlME58HMKPdAkrZEwhHy
28FkVARBWaZHwqPB28Gz3dRA3jIowk5j/8FdtZA+N0Aiwn9n+sEToPG+e4YiwrbmA8LotXk9N1g8
woQf9cHMgKJAymY5wvhz6MFd2phAP10dwv6y/MHN8tc/YFEjwj7VAMLcnxxAXsYmwp/k38HaQS0/
gaVEwlHK5cHZ959A

> <OMEGA_E>
5kj9wA==

> <OMEGA_NBR>
     21636

$$$$
CACHE3HI_1706_23
  -OEChem-03092622523D

 38 40  0     0  0  0  0  0  0999 V2000
  -48.9236  -28.5830    4.3735 C   0  0  0  0  0  0  0  0  0  0  0  0
  -49.1768  -28.4873    5.7631 C   0  0  0  0  0  0  0  0  0  0  0  0
  -46.8172  -29.2452    4.9472 C   0  0  0  0  0  0  0  0  0  0  0  0
  -47.6743  -28.9848    3.8888 C   0  0  0  0  0  0  0  0  0  0  0  0
  -45.5178  -29.6587    4.8458 C   0  0  0  0  0  0  0  0  0  0  0  0
  -47.0907  -29.1431    6.3451 C   0  0  0  0  0  0  0  0  0  0  0  0
  -44.6346  -29.9510    3.6883 C   0  0  0  0  0  0  0  0  0  0  0  0
  -41.9478  -29.9821    2.2848 C   0  0  0  0  0  0  0  0  0  0  0  0
  -43.8629  -29.1298    0.7949 C   0  0  0  0  0  0  0  0  0  0  0  0
  -42.6080  -27.5888    1.6123 C   0  0  0  0  0  0  0  0  0  0  0  0
  -43.0173  -28.9995    2.0760 C   0  0  0  0  0  0  0  0  0  0  0  0
  -43.8137  -27.5893    0.6405 C   0  0  0  0  0  0  0  0  0  0  0  0
  -42.8652  -31.4826    0.4595 C   0  0  0  0  0  0  0  0  0  0  0  0
  -40.4700  -31.5154    1.0421 C   0  0  0  0  0  0  0  0  0  0  0  0
  -48.3150  -28.7499    6.7968 N   0  0  0  0  0  0  0  0  0  0  0  0
  -46.0167  -29.4758    7.0702 N   0  0  0  0  0  0  0  0  0  0  0  0
  -45.0886  -29.7813    6.1392 N   0  0  0  0  0  0  0  0  0  0  0  0
  -43.9146  -28.8788    3.2259 N   0  0  0  0  0  0  0  0  0  0  0  0
  -41.7907  -30.9549    1.2966 N   0  0  0  0  0  0  0  0  0  0  0  0
  -44.6163  -31.0858    3.2190 O   0  0  0  0  0  0  0  0  0  0  0  0
  -41.2505  -29.9071    3.3004 O   0  0  0  0  0  0  0  0  0  0  0  0
  -43.5578  -27.1362   -0.6067 F   0  0  0  0  0  0  0  0  0  0  0  0
  -44.9104  -26.9290    1.0781 F   0  0  0  0  0  0  0  0  0  0  0  0
  -47.2774  -29.1252    2.2545 Cl  0  0  0  0  0  0  0  0  0  0  0  0
  -49.7244  -28.3358    3.6800 H   0  0  0  0  0  0  0  0  0  0  0  0
  -50.1645  -28.1696    6.0926 H   0  0  0  0  0  0  0  0  0  0  0  0
  -43.3673  -29.6627   -0.0252 H   0  0  0  0  0  0  0  0  0  0  0  0
  -44.8678  -29.5461    0.9161 H   0  0  0  0  0  0  0  0  0  0  0  0
  -42.6325  -26.8014    2.3720 H   0  0  0  0  0  0  0  0  0  0  0  0
  -41.6398  -27.5413    1.1001 H   0  0  0  0  0  0  0  0  0  0  0  0
  -42.9682  -30.8889   -0.4535 H   0  0  0  0  0  0  0  0  0  0  0  0
  -42.6538  -32.5191    0.1820 H   0  0  0  0  0  0  0  0  0  0  0  0
  -43.8138  -31.4583    1.0029 H   0  0  0  0  0  0  0  0  0  0  0  0
  -40.2988  -32.3960    1.6679 H   0  0  0  0  0  0  0  0  0  0  0  0
  -40.3797  -31.8081   -0.0078 H   0  0  0  0  0  0  0  0  0  0  0  0
  -39.6966  -30.7738    1.2604 H   0  0  0  0  0  0  0  0  0  0  0  0
  -44.1732  -30.0699    6.4613 H   0  0  0  0  0  0  0  0  0  0  0  0
  -44.0134  -27.9561    3.6060 H   0  0  0  0  0  0  0  0  0  0  0  0
  1  2  1  0  0  0  0
  1  4  2  0  0  0  0
  2 15  2  0  0  0  0
  3  4  1  0  0  0  0
  3  5  2  0  0  0  0
  3  6  1  0  0  0  0
  4 24  1  0  0  0  0
  5  7  1  0  0  0  0
  5 17  1  0  0  0  0
  6 15  1  0  0  0  0
  6 16  2  0  0  0  0
  7 18  1  0  0  0  0
  7 20  2  0  0  0  0
  8 11  1  0  0  0  0
  8 19  1  0  0  0  0
  8 21  2  0  0  0  0
  9 11  1  0  0  0  0
  9 12  1  0  0  0  0
 10 11  1  0  0  0  0
 10 12  1  0  0  0  0
 11 18  1  0  0  0  0
 12 22  1  0  0  0  0
 12 23  1  0  0  0  0
 13 19  1  0  0  0  0
 14 19  1  0  0  0  0
 16 17  1  0  0  0  0
  1 25  1  0  0  0  0
  2 26  1  0  0  0  0
  9 27  1  0  0  0  0
  9 28  1  0  0  0  0
 10 29  1  0  0  0  0
 10 30  1  0  0  0  0
 13 31  1  0  0  0  0
 13 32  1  0  0  0  0
 13 33  1  0  0  0  0
 14 34  1  0  0  0  0
 14 35  1  0  0  0  0
 14 36  1  0  0  0  0
 17 37  1  0  0  0  0
 18 38  1  0  0  0  0
M  END
> <POSIT::Probability>
0.14

> <POSIT::Method>
HYBRID

> <ReceptorTitle>
UCSF-P4529-REFINED_LIGAND-BOUND-STATE_A__DU__LA1_A-201(A)

> <OMEGA_C>
urFDwhaq5MEW9ItAB7VEwvrl48HwarhAxkQ7wif26cFYT55AdrI+wsbg58G+4nhAPxI2whFF7cEA
EZtA5Fw8wh4l6cHGCstA2YkywqOb78F7DWxAlMonwmzb78HuOhJAoHMvwusJ6cE+gEs/oG4qwty1
3MFCX84/wBEswvz+58Fl3ARAO0EvwvK23MF+9SM/9HUrwkfc+8FCPes+RuEhwo4f/MEQY4U/lUJB
wtX/5cEYf9lAJBE4wm3O68G4PuJArlo0wiRA7sH7c8RAmKgvwtAH58HRdU5Apiknwrmj98EE+KU/
FXcywqav+MF3A05AiwAlwrpB78EPOlNAJjsuwgAX2cG6UBu/OKQzwpNu18HR/4k/Ghw9wlgA6cH4
SRBA0+VGwsav4sF8hWtAcahIwltb4cHi9sJAGHgtwi9N7cFwD868lngzwnhe7MELh2o/uocqwlNp
1sHgzhdAHY8mwqhU3MGC0Iw/dN8rwoYc98FILOi+dZ0qwokTAsI8Zzo+VkEvwpaq+8EGXoA/8TEh
wn6VAcK4ftU/x4QhwgJ3/sGAq/67U8kewsQw9sFkVqE/W7EwwiCP8MGnws5Avw0wwiim38FjyGZA

> <OMEGA_E>
MrfewA==

> <OMEGA_NBR>
     22892

$$$$
CACHE3HI_1706_39
  -OEChem-03092622523D

 39 41  0     0  0  0  0  0  0999 V2000
  -42.3645  -31.2083    0.5255 C   0  0  0  0  0  0  0  0  0  0  0  0
  -44.2370  -31.8470    1.8457 C   0  0  0  0  0  0  0  0  0  0  0  0
  -42.4355  -33.2674    1.7135 C   0  0  0  0  0  0  0  0  0  0  0  0
  -48.5810  -29.7294    4.9796 C   0  0  0  0  0  0  0  0  0  0  0  0
  -43.6328  -30.9167    1.0148 C   0  0  0  0  0  0  0  0  0  0  0  0
  -41.7475  -32.4037    0.8766 C   0  0  0  0  0  0  0  0  0  0  0  0
  -49.4045  -30.3053    4.0422 C   0  0  0  0  0  0  0  0  0  0  0  0
  -49.4617  -29.2880    5.9843 C   0  0  0  0  0  0  0  0  0  0  0  0
  -45.6071  -29.5457    2.7906 C   0  0  0  0  0  0  0  0  0  0  0  0
  -47.1069  -29.6630    4.8438 C   0  0  0  0  0  0  0  0  0  0  0  0
  -48.9693  -30.9217    2.7715 C   0  0  0  0  0  0  0  0  0  0  0  0
  -47.4570  -31.1980    2.8589 C   0  0  0  0  0  0  0  0  0  0  0  0
  -39.8758  -31.7634   -0.4438 C   0  0  0  0  0  0  0  0  0  0  0  0
  -44.3300  -29.6281    0.6533 C   0  0  0  0  0  0  0  0  0  0  0  0
  -45.7072  -29.4916    1.2856 C   0  0  0  0  0  0  0  0  0  0  0  0
  -43.6686  -33.0188    2.2087 N   0  0  0  0  0  0  0  0  0  0  0  0
  -50.7417  -29.5602    5.7034 N   0  0  0  0  0  0  0  0  0  0  0  0
  -50.6747  -30.1817    4.5090 N   0  0  0  0  0  0  0  0  0  0  0  0
  -46.7103  -30.0712    3.4697 N   0  0  0  0  0  0  0  0  0  0  0  0
  -44.5810  -29.1386    3.3423 O   0  0  0  0  0  0  0  0  0  0  0  0
  -40.5111  -32.7138    0.4142 O   0  0  0  0  0  0  0  0  0  0  0  0
  -48.9217  -28.4156    7.5596 Br  0  0  0  0  0  0  0  0  0  0  0  0
  -41.8555  -30.5052   -0.1291 H   0  0  0  0  0  0  0  0  0  0  0  0
  -45.2263  -31.6742    2.2581 H   0  0  0  0  0  0  0  0  0  0  0  0
  -42.0021  -34.2140    2.0203 H   0  0  0  0  0  0  0  0  0  0  0  0
  -46.7540  -28.6535    5.0643 H   0  0  0  0  0  0  0  0  0  0  0  0
  -46.6248  -30.3610    5.5370 H   0  0  0  0  0  0  0  0  0  0  0  0
  -49.5088  -31.8550    2.5792 H   0  0  0  0  0  0  0  0  0  0  0  0
  -49.1725  -30.2345    1.9423 H   0  0  0  0  0  0  0  0  0  0  0  0
  -47.2690  -32.0723    3.4954 H   0  0  0  0  0  0  0  0  0  0  0  0
  -47.0683  -31.4352    1.8635 H   0  0  0  0  0  0  0  0  0  0  0  0
  -38.8925  -32.1382   -0.7399 H   0  0  0  0  0  0  0  0  0  0  0  0
  -40.4922  -31.6206   -1.3346 H   0  0  0  0  0  0  0  0  0  0  0  0
  -39.7714  -30.8107    0.0804 H   0  0  0  0  0  0  0  0  0  0  0  0
  -43.7039  -28.7905    0.9864 H   0  0  0  0  0  0  0  0  0  0  0  0
  -44.3977  -29.5375   -0.4388 H   0  0  0  0  0  0  0  0  0  0  0  0
  -46.1997  -28.5566    1.0164 H   0  0  0  0  0  0  0  0  0  0  0  0
  -46.3405  -30.3276    0.9861 H   0  0  0  0  0  0  0  0  0  0  0  0
  -51.5370  -30.4912    4.0778 H   0  0  0  0  0  0  0  0  0  0  0  0
  1  5  2  0  0  0  0
  1  6  1  0  0  0  0
  2  5  1  0  0  0  0
  2 16  2  0  0  0  0
  3  6  2  0  0  0  0
  3 16  1  0  0  0  0
  4  7  2  0  0  0  0
  4  8  1  0  0  0  0
  4 10  1  0  0  0  0
  5 14  1  0  0  0  0
  6 21  1  0  0  0  0
  7 11  1  0  0  0  0
  7 18  1  0  0  0  0
  8 17  2  0  0  0  0
  8 22  1  0  0  0  0
  9 15  1  0  0  0  0
  9 19  1  0  0  0  0
  9 20  2  0  0  0  0
 10 19  1  0  0  0  0
 11 12  1  0  0  0  0
 12 19  1  0  0  0  0
 13 21  1  0  0  0  0
 14 15  1  0  0  0  0
 17 18  1  0  0  0  0
  1 23  1  0  0  0  0
  2 24  1  0  0  0  0
  3 25  1  0  0  0  0
 10 26  1  0  0  0  0
 10 27  1  0  0  0  0
 11 28  1  0  0  0  0
 11 29  1  0  0  0  0
 12 30  1  0  0  0  0
 12 31  1  0  0  0  0
 13 32  1  0  0  0  0
 13 33  1  0  0  0  0
 13 34  1  0  0  0  0
 14 35  1  0  0  0  0
 14 36  1  0  0  0  0
 15 37  1  0  0  0  0
 15 38  1  0  0  0  0
 18 39  1  0  0  0  0
M  END
> <POSIT::Probability>
0.18

> <POSIT::Method>
HYBRID

> <ReceptorTitle>
UCSF-P4529-REFINED_LIGAND-BOUND-STATE_A__DU__LA1_A-201(A)

> <OMEGA_C>
NHUpwn+q+cFwhgY/q/IwwrDG/sEAQew/9L0pwtwRBcI4Vds/+FJCwubV7cF+WJ9ABoguwk9V98Hw
5IE/bv0mwmydAcIga2A/Op5FwkNx8sHCWYFAvdhFwuJN6sERf79Asm02wqtd7MHgmTJAbm08wupN
7cFvAJtAmOBDwrVf98EIYTFAA9Q9wo+V+cGI+DZAxoAfwnMb/sHAP+O+4lExwmkG7cFAPCc/L9Q2
wsru68Hwj6Q/m6wuwjwTBMKgWg1AgfdKwll77MHwgbZA37JKwiJ08cG6SZBAUNc6wuSR8MHwD15A
9FIywtcb6cGw6FVAYAsiwubaAsIAFNQ+3q9DwjJT48Hc5/FA/WsnwpkK9MGAOwS+tuc0wsRk/cFE
hRBAJgIowiDbCMIoTQFAHgQ7wlc65cGhDqJAwn86wjrj8sEUL7FADglGwvjW/sFkESVAmbBEwkLg
8cFInPg/fxM9wv1JAMJYtV9A8kU8wkx7+8GIiO4/85EbwoCNAMLAaT2/APghwv/2/MHA1aq/7hUf
wkJ89sEApaQ91NAuwt1S5sEQh3w/Ppcxwt5M7MHAqOC+csw4wgJ05MEoGoI/o1w5wuee8sFQb3w/
6CVOwgPu88FWfYJA

> <OMEGA_E>
fB3UwA==

> <OMEGA_NBR>
     24168

$$$$
CACHE3HI_1706_43
  -OEChem-03092622523D

 41 43  0     1  0  0  0  0  0999 V2000
  -46.8815  -29.1762    5.6826 C   0  0  0  0  0  0  0  0  0  0  0  0
  -48.0813  -28.9460    6.3829 C   0  0  0  0  0  0  0  0  0  0  0  0
  -49.6102  -29.5293    4.4834 C   0  0  0  0  0  0  0  0  0  0  0  0
  -47.1373  -29.5837    4.3799 C   0  0  0  0  0  0  0  0  0  0  0  0
  -48.4274  -29.7675    3.7593 C   0  0  0  0  0  0  0  0  0  0  0  0
  -49.3835  -29.1133    5.8147 C   0  0  0  0  0  0  0  0  0  0  0  0
  -46.1941  -29.8868    3.4402 C   0  0  0  0  0  0  0  0  0  0  0  0
  -44.7229  -29.8793    3.5036 C   0  0  0  0  0  0  0  0  0  0  0  0
  -42.7759  -28.9527    2.1356 C   0  0  0  0  0  0  0  0  0  0  0  0
  -44.4207  -29.6368    0.9318 C   0  0  0  0  0  0  0  0  0  0  0  0
  -42.9642  -29.2148    0.6236 C   0  0  0  0  0  0  0  0  0  0  0  0
  -42.8501  -27.9633   -0.2428 C   0  0  0  0  0  0  0  0  0  0  0  0
  -40.5478  -32.4816    0.6193 C   0  0  0  0  0  0  0  0  0  0  0  0
  -42.0964  -30.3543    0.0886 C   0  0  0  0  0  0  0  0  0  0  0  0
  -51.7608  -29.0222    6.0399 C   0  0  0  0  0  0  0  0  0  0  0  0
  -48.2503  -30.1683    2.4875 N   0  0  0  0  0  0  0  0  0  0  0  0
  -46.9131  -30.2290    2.3319 N   0  0  0  0  0  0  0  0  0  0  0  0
  -44.0555  -29.6100    2.3366 N   0  0  0  0  0  0  0  0  0  0  0  0
  -44.1845  -30.0919    4.5864 O   0  0  0  0  0  0  0  0  0  0  0  0
  -43.1984  -32.6369    0.9420 O   0  0  0  0  0  0  0  0  0  0  0  0
  -50.4708  -28.8551    6.6071 O   0  0  0  0  0  0  0  0  0  0  0  0
  -51.9527  -30.2926    5.6258 F   0  0  0  0  0  0  0  0  0  0  0  0
  -51.9573  -28.1691    5.0119 F   0  0  0  0  0  0  0  0  0  0  0  0
  -52.6844  -28.7500    6.9896 F   0  0  0  0  0  0  0  0  0  0  0  0
  -42.0555  -31.7253    1.2731 S   0  0  1  0  0  0  0  0  0  0  0  0
  -45.9062  -29.0440    6.1296 H   0  0  0  0  0  0  0  0  0  0  0  0
  -48.0103  -28.6204    7.4211 H   0  0  0  0  0  0  0  0  0  0  0  0
  -50.6014  -29.6516    4.0664 H   0  0  0  0  0  0  0  0  0  0  0  0
  -41.9367  -29.4684    2.6138 H   0  0  0  0  0  0  0  0  0  0  0  0
  -42.7956  -27.9047    2.4552 H   0  0  0  0  0  0  0  0  0  0  0  0
  -45.1994  -28.9041    0.6915 H   0  0  0  0  0  0  0  0  0  0  0  0
  -44.7174  -30.6250    0.5656 H   0  0  0  0  0  0  0  0  0  0  0  0
  -42.9930  -28.2229   -1.2911 H   0  0  0  0  0  0  0  0  0  0  0  0
  -41.8652  -27.5145   -0.1193 H   0  0  0  0  0  0  0  0  0  0  0  0
  -43.6095  -27.2379    0.0498 H   0  0  0  0  0  0  0  0  0  0  0  0
  -40.3094  -33.3731    1.2031 H   0  0  0  0  0  0  0  0  0  0  0  0
  -40.7110  -32.7548   -0.4257 H   0  0  0  0  0  0  0  0  0  0  0  0
  -39.7295  -31.7620    0.6900 H   0  0  0  0  0  0  0  0  0  0  0  0
  -42.5070  -30.7243   -0.8487 H   0  0  0  0  0  0  0  0  0  0  0  0
  -41.0783  -30.0046   -0.0741 H   0  0  0  0  0  0  0  0  0  0  0  0
  -46.5557  -30.5157    1.4293 H   0  0  0  0  0  0  0  0  0  0  0  0
  1  2  2  0  0  0  0
  1  4  1  0  0  0  0
  2  6  1  0  0  0  0
  3  5  1  0  0  0  0
  3  6  2  0  0  0  0
  4  5  1  0  0  0  0
  4  7  2  0  0  0  0
  5 16  2  0  0  0  0
  6 21  1  0  0  0  0
  7  8  1  0  0  0  0
  7 17  1  0  0  0  0
  8 18  1  0  0  0  0
  8 19  2  0  0  0  0
  9 11  1  0  0  0  0
  9 18  1  0  0  0  0
 10 11  1  0  0  0  0
 10 18  1  0  0  0  0
 11 12  1  0  0  0  0
 11 14  1  0  0  0  0
 13 25  1  0  0  0  0
 14 25  1  0  0  0  0
 15 21  1  0  0  0  0
 15 22  1  0  0  0  0
 15 23  1  0  0  0  0
 15 24  1  0  0  0  0
 16 17  1  0  0  0  0
 20 25  2  0  0  0  0
  1 26  1  0  0  0  0
  2 27  1  0  0  0  0
  3 28  1  0  0  0  0
  9 29  1  0  0  0  0
  9 30  1  0  0  0  0
 10 31  1  0  0  0  0
 10 32  1  0  0  0  0
 12 33  1  0  0  0  0
 12 34  1  0  0  0  0
 12 35  1  0  0  0  0
 13 36  1  0  0  0  0
 13 37  1  0  0  0  0
 13 38  1  0  0  0  0
 14 39  1  0  0  0  0
 14 40  1  0  0  0  0
 17 41  1  0  0  0  0
M  END
> <POSIT::Probability>
0.33

> <POSIT::Method>
HYBRID

> <ReceptorTitle>
UCSF-P4529-REFINED_LIGAND-BOUND-STATE_A__DU__LA1_A-201(A)

> <OMEGA_C>
qoY7wvBo6cG+17VAOlNAwluR58HBQMxA4nBGwhU87MHwd49AlYw8wmer7MFaKIxApLVBwtYj7sGo
mHBArohFwgDo6MFBErpAwcY4wjwY78HRLFxAROQywrgI78FxO2BAhRorwief58HCrQhAza4xwiMY
7cHgiW4/V9srwvi36cFQoR8/iWYrwuS038FAoHi+9zAiwjDtAcIQjB4/tmIowq/V8sFAgbU9EgtP
wmot6MH9RsFARwBBwsZY8cHIMx9ADqc7wvLU8cGmPRVA3jgwwk7h7ME2ihVA+Lwwwki88MF5w5JA
LMsswi6MAsJAKXE/GeJJwjfX5sENbdNAk89PwkxX8sG+BrRARtRPwlBa4cFPYaBA3LxSwvn/5cFx
qt9A2jgowmjN/cH886I/5p83wiZa6MERJsRAigpAwpr25MHsee1A2GdKwnU27cGsH4JAMr8nwje/
68GmSCdAuS4rwtI838EIIh1AKMw0wqc758EgCDE/od4ywgIA9cGYyxA/2PgrwnTI4cGcQ6W/7nUn
wsAd3MHAXfS9KnAuwjXn2cEA3ks91DwhwhJ+BcLk/pk/G9giwu4EA8JA8tm+AesewnwY/sFwojA/
OAcqwmTL9cGARFm/LFAkwnQJ8MEAqJe9DDk6whEg9MGY8rY/

> <OMEGA_E>
xSe+wA==

> <OMEGA_NBR>
     25487

$$$$
CACHE3HI_1706_47
  -OEChem-03092622523D

 43 46  0     0  0  0  0  0  0999 V2000
  -48.1024  -29.2772    5.5434 C   0  0  0  0  0  0  0  0  0  0  0  0
  -50.4929  -28.8187    5.5014 C   0  0  0  0  0  0  0  0  0  0  0  0
  -48.1652  -29.4110    4.1479 C   0  0  0  0  0  0  0  0  0  0  0  0
  -49.2927  -28.9862    6.2274 C   0  0  0  0  0  0  0  0  0  0  0  0
  -47.2149  -29.6651    3.2004 C   0  0  0  0  0  0  0  0  0  0  0  0
  -49.4053  -29.2282    3.4716 C   0  0  0  0  0  0  0  0  0  0  0  0
  -45.7710  -29.7682    3.2893 C   0  0  0  0  0  0  0  0  0  0  0  0
  -43.3070  -31.5362    0.7625 C   0  0  0  0  0  0  0  0  0  0  0  0
  -41.2473  -30.6251    0.6088 C   0  0  0  0  0  0  0  0  0  0  0  0
  -42.6437  -29.9068    2.5654 C   0  0  0  0  0  0  0  0  0  0  0  0
  -43.1998  -29.0357    0.5509 C   0  0  0  0  0  0  0  0  0  0  0  0
  -41.8374  -32.0701    0.8768 C   0  0  0  0  0  0  0  0  0  0  0  0
  -42.5912  -30.2598    1.1071 C   0  0  0  0  0  0  0  0  0  0  0  0
  -43.7706  -28.9355    2.0255 C   0  0  0  0  0  0  0  0  0  0  0  0
  -40.1451  -33.5045    0.0499 C   0  0  0  0  0  0  0  0  0  0  0  0
  -43.6997  -27.5115    2.5669 C   0  0  0  0  0  0  0  0  0  0  0  0
  -50.5338  -28.9377    4.1530 N   0  0  0  0  0  0  0  0  0  0  0  0
  -49.2292  -29.3699    2.1758 N   0  0  0  0  0  0  0  0  0  0  0  0
  -47.9207  -29.6269    2.0288 N   0  0  0  0  0  0  0  0  0  0  0  0
  -45.1152  -29.4875    2.1104 N   0  0  0  0  0  0  0  0  0  0  0  0
  -45.1914  -29.9092    4.3617 O   0  0  0  0  0  0  0  0  0  0  0  0
  -44.5691  -26.6999    1.7815 O   0  0  0  0  0  0  0  0  0  0  0  0
  -41.4895  -33.0363   -0.1026 O   0  0  0  0  0  0  0  0  0  0  0  0
  -49.2958  -28.8325    8.1255 Br  0  0  0  0  0  0  0  0  0  0  0  0
  -47.1687  -29.3943    6.0734 H   0  0  0  0  0  0  0  0  0  0  0  0
  -51.4027  -28.5896    6.0363 H   0  0  0  0  0  0  0  0  0  0  0  0
  -43.7652  -31.5826   -0.2364 H   0  0  0  0  0  0  0  0  0  0  0  0
  -44.0204  -31.9112    1.5110 H   0  0  0  0  0  0  0  0  0  0  0  0
  -40.3972  -30.3232    1.2382 H   0  0  0  0  0  0  0  0  0  0  0  0
  -41.0337  -30.3746   -0.4408 H   0  0  0  0  0  0  0  0  0  0  0  0
  -42.9772  -30.7048    3.2450 H   0  0  0  0  0  0  0  0  0  0  0  0
  -41.7461  -29.4240    2.9793 H   0  0  0  0  0  0  0  0  0  0  0  0
  -42.4988  -28.2428    0.2510 H   0  0  0  0  0  0  0  0  0  0  0  0
  -43.9445  -29.1867   -0.2445 H   0  0  0  0  0  0  0  0  0  0  0  0
  -41.6168  -32.3954    1.9042 H   0  0  0  0  0  0  0  0  0  0  0  0
  -39.9248  -34.2486   -0.7297 H   0  0  0  0  0  0  0  0  0  0  0  0
  -39.4492  -32.6578   -0.0443 H   0  0  0  0  0  0  0  0  0  0  0  0
  -40.0282  -33.9667    1.0413 H   0  0  0  0  0  0  0  0  0  0  0  0
  -44.0218  -27.4951    3.6185 H   0  0  0  0  0  0  0  0  0  0  0  0
  -42.6689  -27.1347    2.4933 H   0  0  0  0  0  0  0  0  0  0  0  0
  -47.4960  -29.7781    1.1362 H   0  0  0  0  0  0  0  0  0  0  0  0
  -45.5960  -29.6758    1.2541 H   0  0  0  0  0  0  0  0  0  0  0  0
  -44.5421  -25.8054    2.1005 H   0  0  0  0  0  0  0  0  0  0  0  0
  1  3  1  0  0  0  0
  1  4  2  0  0  0  0
  2  4  1  0  0  0  0
  2 17  2  0  0  0  0
  3  5  2  0  0  0  0
  3  6  1  0  0  0  0
  4 24  1  0  0  0  0
  5  7  1  0  0  0  0
  5 19  1  0  0  0  0
  6 17  1  0  0  0  0
  6 18  2  0  0  0  0
  7 20  1  0  0  0  0
  7 21  2  0  0  0  0
  8 12  1  0  0  0  0
  8 13  1  0  0  0  0
  9 12  1  0  0  0  0
  9 13  1  0  0  0  0
 10 13  1  0  0  0  0
 10 14  1  0  0  0  0
 11 13  1  0  0  0  0
 11 14  1  0  0  0  0
 12 23  1  0  0  0  0
 14 16  1  0  0  0  0
 14 20  1  0  0  0  0
 15 23  1  0  0  0  0
 16 22  1  0  0  0  0
 18 19  1  0  0  0  0
  1 25  1  0  0  0  0
  2 26  1  0  0  0  0
  8 27  1  0  0  0  0
  8 28  1  0  0  0  0
  9 29  1  0  0  0  0
  9 30  1  0  0  0  0
 10 31  1  0  0  0  0
 10 32  1  0  0  0  0
 11 33  1  0  0  0  0
 11 34  1  0  0  0  0
 12 35  1  0  0  0  0
 15 36  1  0  0  0  0
 15 37  1  0  0  0  0
 15 38  1  0  0  0  0
 16 39  1  0  0  0  0
 16 40  1  0  0  0  0
 19 41  1  0  0  0  0
 20 42  1  0  0  0  0
 22 43  1  0  0  0  0
M  END
> <POSIT::Probability>
0.5

> <POSIT::Method>
SHAPEFIT

> <ReceptorTitle>
UCSF-P4529-REFINED_LIGAND-BOUND-STATE_A__DU__LA1_A-201(A)

> <OMEGA_C>
0WhAwqs36sEsY7FAufhJwsyM5sGUC7BAMqlAwslJ68GKu4RAuitFwq7j58EOR8dAE9w8wjBS7cFd
00xAB59FwkXT6cHeLl5AdBU3wk4l7sHng1JAUjotwgxK/MGcNEM/OP0kwk4A9cGA2xs/KJMqwgpB
78FKMCRAmswswgxJ6MFkBg0/e1knwsJHAMLwc2A/Zl0qwggU8sHWtY0/HxUvwv9758EmoQFAnpQg
wp0EBsIAgEw9eMwuwnsX3MEDSCRAnCJKwlyA58FY5YRAqupEwoz16sHAPwtAyK4/wtwD7cEl2AFA
8nU0wk7m68FdEQdAC8Q0wvxF78E4k4tAtkYywlKZ1cFECeQ/QPUlwi4lBMKANNK97S5Fwgup5sHi
AQJBwqw8wnIn68GlWcJAY5xNwpe35MGNKcFAkQ8vwh+p/MEeFHK+8BQwwilK/8FTacE/s5Yhwu2V
8sGLfZ4/dyIkwjf/8sFDquG+sOgrwnmj9cHbrk9AAvwmwnRk68FIrT5AvP4pwkPx4cG6h4A+I8cv
wnV+6cHeYXq+oncmwt+UAcJ/u/M/9LIfwpH+CMI1yzq/AswdwqGhAsIKYzW96hwgwtzdB8IiSIU/
XBYwwun128ESlmdA6KwqwscT2cHRkR9A3vs9wos57sFab5E/TWI2wgNo7cGkhaA/ECsywn1xzsFh
bgZA

> <OMEGA_E>
QMJDPw==

> <OMEGA_NBR>
     26872

$$$$
CACHE3HI_1706_49
  -OEChem-03092622523D

 37 40  0     1  0  0  0  0  0999 V2000
  -48.0035  -29.2086    5.5468 C   0  0  0  0  0  0  0  0  0  0  0  0
  -50.4143  -28.9508    5.3501 C   0  0  0  0  0  0  0  0  0  0  0  0
  -47.9536  -29.3328    4.1483 C   0  0  0  0  0  0  0  0  0  0  0  0
  -49.2532  -29.0122    6.1514 C   0  0  0  0  0  0  0  0  0  0  0  0
  -46.9113  -29.5219    3.2751 C   0  0  0  0  0  0  0  0  0  0  0  0
  -49.1603  -29.2570    3.3939 C   0  0  0  0  0  0  0  0  0  0  0  0
  -45.4630  -29.6664    3.5636 C   0  0  0  0  0  0  0  0  0  0  0  0
  -41.3379  -32.3565   -0.3510 C   0  0  0  0  0  0  0  0  0  0  0  0
  -41.1612  -32.8459    1.0981 C   0  0  0  0  0  0  0  0  0  0  0  0
  -43.5374  -28.3861    0.5823 C   0  0  0  0  0  0  0  0  0  0  0  0
  -44.8042  -28.9582    1.2406 C   0  0  0  0  0  0  0  0  0  0  0  0
  -42.5830  -29.5113    0.1366 C   0  0  0  0  0  0  0  0  0  0  0  0
  -42.3395  -31.9460    0.7277 C   0  0  0  0  0  0  0  0  0  0  0  0
  -50.3550  -29.0716    4.0012 N   0  0  0  0  0  0  0  0  0  0  0  0
  -48.8860  -29.3911    2.1155 N   0  0  0  0  0  0  0  0  0  0  0  0
  -47.5513  -29.5542    2.0607 N   0  0  0  0  0  0  0  0  0  0  0  0
  -44.5027  -29.5959    2.5449 N   0  0  0  0  0  0  0  0  0  0  0  0
  -42.3264  -30.5424    1.1862 N   0  0  2  0  0  0  0  0  0  0  0  0
  -45.1114  -29.9333    4.7077 O   0  0  0  0  0  0  0  0  0  0  0  0
  -42.0962  -29.1527    3.3545 O   0  0  0  0  0  0  0  0  0  0  0  0
  -43.0275  -31.5192    3.4771 O   0  0  0  0  0  0  0  0  0  0  0  0
  -42.9119  -30.2299    2.7768 S   0  0  0  0  0  0  0  0  0  0  0  0
  -49.3731  -28.8049    8.0416 Br  0  0  0  0  0  0  0  0  0  0  0  0
  -47.1030  -29.2630    6.1405 H   0  0  0  0  0  0  0  0  0  0  0  0
  -51.3736  -28.8038    5.8238 H   0  0  0  0  0  0  0  0  0  0  0  0
  -40.6437  -31.6128   -0.7696 H   0  0  0  0  0  0  0  0  0  0  0  0
  -41.6360  -33.0640   -1.1387 H   0  0  0  0  0  0  0  0  0  0  0  0
  -41.3330  -33.9035    1.3469 H   0  0  0  0  0  0  0  0  0  0  0  0
  -40.3407  -32.4523    1.7161 H   0  0  0  0  0  0  0  0  0  0  0  0
  -43.8272  -27.7922   -0.2971 H   0  0  0  0  0  0  0  0  0  0  0  0
  -43.0177  -27.7405    1.3056 H   0  0  0  0  0  0  0  0  0  0  0  0
  -45.5231  -28.1411    1.4008 H   0  0  0  0  0  0  0  0  0  0  0  0
  -45.2465  -29.7095    0.5699 H   0  0  0  0  0  0  0  0  0  0  0  0
  -43.0230  -30.0112   -0.7389 H   0  0  0  0  0  0  0  0  0  0  0  0
  -41.6213  -29.0577   -0.1450 H   0  0  0  0  0  0  0  0  0  0  0  0
  -43.3209  -32.4406    0.6803 H   0  0  0  0  0  0  0  0  0  0  0  0
  -47.0618  -29.6889    1.1992 H   0  0  0  0  0  0  0  0  0  0  0  0
  1  3  1  0  0  0  0
  1  4  2  0  0  0  0
  2  4  1  0  0  0  0
  2 14  2  0  0  0  0
  3  5  2  0  0  0  0
  3  6  1  0  0  0  0
  4 23  1  0  0  0  0
  5  7  1  0  0  0  0
  5 16  1  0  0  0  0
  6 14  1  0  0  0  0
  6 15  2  0  0  0  0
  7 17  1  0  0  0  0
  7 19  2  0  0  0  0
  8  9  1  0  0  0  0
  8 13  1  0  0  0  0
  9 13  1  0  0  0  0
 10 11  1  0  0  0  0
 10 12  1  0  0  0  0
 11 17  1  0  0  0  0
 12 18  1  0  0  0  0
 13 18  1  0  0  0  0
 15 16  1  0  0  0  0
 17 22  1  0  0  0  0
 18 22  1  0  0  0  0
 20 22  2  0  0  0  0
 21 22  2  0  0  0  0
  1 24  1  0  0  0  0
  2 25  1  0  0  0  0
  8 26  1  0  0  0  0
  8 27  1  0  0  0  0
  9 28  1  0  0  0  0
  9 29  1  0  0  0  0
 10 30  1  0  0  0  0
 10 31  1  0  0  0  0
 11 32  1  0  0  0  0
 11 33  1  0  0  0  0
 12 34  1  0  0  0  0
 12 35  1  0  0  0  0
 13 36  1  0  0  0  0
 16 37  1  0  0  0  0
M  END
> <POSIT::Probability>
0.89

> <POSIT::Method>
SHAPEFIT

> <ReceptorTitle>
UCSF-P4529-REFINED_LIGAND-BOUND-STATE_A__DU__LA1_A-201(A)

> <OMEGA_C>
nwNAwkKr6cFmf7FAN6hJwiqb58GeM6tAhdA/wqSp6sFIv4RAOgNFwucY6MFs2MRAKaU7wvQs7MGk
m1FAIqREwksO6sFnNllAHdo1wuFU7cENEmRA+lklwgNtAcIesrO+FKUkwihiA8I2jow/UiYuwrEW
48GgExU/iDczwlmq58HUzJ4/CVUqwjIX7MGA3As+nlspwlmR/8FgTDo/kmtJwpmS6MHeCYBAQItD
wgoh68GoZAdAjDQ+wvdu7MEX4wNA0AIywnDE7MH93iJAOE4pwuRW9MH61pc/GnI0wm5378FQpZZA
hmIowqE46cHlr1ZANBwswjkn/MFxiF5AwqUrwuXW8cHFtjFAA35Fwmhw5sGHqgBBfGk8wrQa6sEe
f8RAnn5Nwkhu5sFcXLpALpMiwh3n/MEHAkW/Q4smwodBBMLDwJG/9FQlwiqdB8KUaKw/4FwhwjLP
AcJUqNs/C08vwn9W3sFPHJi+HBIswqHs3cG1Hqc/pxc2wgIh4cEjTLM/dfw0whmt7cFi5hE/gxcs
wgoX8MFsKz2/NnwmwjF26MEYeRS+jUgtwijDAcKeKS4/Qj88wtGC7cEGgJk/

> <OMEGA_E>
kPK7Pg==

> <OMEGA_NBR>
     28139

$$$$
CACHE3HI_1706_52
  -OEChem-03092622523D

 35 37  0     0  0  0  0  0  0999 V2000
  -48.0040  -29.2686    5.5563 C   0  0  0  0  0  0  0  0  0  0  0  0
  -50.4095  -28.9285    5.3600 C   0  0  0  0  0  0  0  0  0  0  0  0
  -47.9485  -29.3602    4.1501 C   0  0  0  0  0  0  0  0  0  0  0  0
  -49.2550  -29.0420    6.1629 C   0  0  0  0  0  0  0  0  0  0  0  0
  -46.9129  -29.5531    3.2550 C   0  0  0  0  0  0  0  0  0  0  0  0
  -49.1574  -29.2316    3.4027 C   0  0  0  0  0  0  0  0  0  0  0  0
  -45.4540  -29.7549    3.4741 C   0  0  0  0  0  0  0  0  0  0  0  0
  -42.0979  -29.4571    3.0618 C   0  0  0  0  0  0  0  0  0  0  0  0
  -42.7806  -31.3371    3.6100 C   0  0  0  0  0  0  0  0  0  0  0  0
  -43.1789  -30.3858    2.3820 C   0  0  0  0  0  0  0  0  0  0  0  0
  -41.6219  -31.9662    0.9232 C   0  0  0  0  0  0  0  0  0  0  0  0
  -44.7780  -28.7674    1.2937 C   0  0  0  0  0  0  0  0  0  0  0  0
  -42.7749  -30.9354    0.9624 C   0  0  0  0  0  0  0  0  0  0  0  0
  -50.3484  -29.0251    4.0115 N   0  0  0  0  0  0  0  0  0  0  0  0
  -48.8931  -29.3404    2.1206 N   0  0  0  0  0  0  0  0  0  0  0  0
  -47.5639  -29.5352    2.0489 N   0  0  0  0  0  0  0  0  0  0  0  0
  -44.5392  -29.7376    2.3862 N   0  0  0  0  0  0  0  0  0  0  0  0
  -45.0639  -29.8770    4.6285 O   0  0  0  0  0  0  0  0  0  0  0  0
  -41.9399  -30.3502    4.1142 O   0  0  0  0  0  0  0  0  0  0  0  0
  -49.4012  -28.8638    8.0569 Br  0  0  0  0  0  0  0  0  0  0  0  0
  -47.1097  -29.3696    6.1533 H   0  0  0  0  0  0  0  0  0  0  0  0
  -51.3656  -28.7602    5.8331 H   0  0  0  0  0  0  0  0  0  0  0  0
  -41.1891  -29.3189    2.4576 H   0  0  0  0  0  0  0  0  0  0  0  0
  -42.4871  -28.4750    3.3685 H   0  0  0  0  0  0  0  0  0  0  0  0
  -43.6221  -31.5893    4.2720 H   0  0  0  0  0  0  0  0  0  0  0  0
  -42.2599  -32.2590    3.3115 H   0  0  0  0  0  0  0  0  0  0  0  0
  -41.4366  -32.2704   -0.1175 H   0  0  0  0  0  0  0  0  0  0  0  0
  -40.7106  -31.5129    1.3404 H   0  0  0  0  0  0  0  0  0  0  0  0
  -41.8985  -32.8484    1.5193 H   0  0  0  0  0  0  0  0  0  0  0  0
  -43.9930  -28.8732    0.5305 H   0  0  0  0  0  0  0  0  0  0  0  0
  -45.7603  -28.9623    0.8386 H   0  0  0  0  0  0  0  0  0  0  0  0
  -44.7586  -27.7454    1.7003 H   0  0  0  0  0  0  0  0  0  0  0  0
  -43.6638  -31.4116    0.5231 H   0  0  0  0  0  0  0  0  0  0  0  0
  -42.4759  -30.0761    0.3442 H   0  0  0  0  0  0  0  0  0  0  0  0
  -47.0858  -29.6580    1.1792 H   0  0  0  0  0  0  0  0  0  0  0  0
  1  3  1  0  0  0  0
  1  4  2  0  0  0  0
  2  4  1  0  0  0  0
  2 14  2  0  0  0  0
  3  5  2  0  0  0  0
  3  6  1  0  0  0  0
  4 20  1  0  0  0  0
  5  7  1  0  0  0  0
  5 16  1  0  0  0  0
  6 14  1  0  0  0  0
  6 15  2  0  0  0  0
  7 17  1  0  0  0  0
  7 18  2  0  0  0  0
  8 10  1  0  0  0  0
  8 19  1  0  0  0  0
  9 10  1  0  0  0  0
  9 19  1  0  0  0  0
 10 13  1  0  0  0  0
 10 17  1  0  0  0  0
 11 13  1  0  0  0  0
 12 17  1  0  0  0  0
 15 16  1  0  0  0  0
  1 21  1  0  0  0  0
  2 22  1  0  0  0  0
  8 23  1  0  0  0  0
  8 24  1  0  0  0  0
  9 25  1  0  0  0  0
  9 26  1  0  0  0  0
 11 27  1  0  0  0  0
 11 28  1  0  0  0  0
 11 29  1  0  0  0  0
 12 30  1  0  0  0  0
 12 31  1  0  0  0  0
 12 32  1  0  0  0  0
 13 33  1  0  0  0  0
 13 34  1  0  0  0  0
 16 35  1  0  0  0  0
M  END
> <POSIT::Probability>
0.5

> <POSIT::Method>
SHAPEFIT

> <ReceptorTitle>
UCSF-P4529-REFINED_LIGAND-BOUND-STATE_A__DU__LA1_A-201(A)

> <OMEGA_C>
GQRAwgEm6sFUzbFASqNJwnht58HThKtAT8s/wpfh6sGgzYRAKAVFwvRV6MFJNsVA2qY7wr5s7MHW
UVBALqFEwjva6cFzxllA3tA1wv8J7sFIV15APGQowg+o68GT9ENAVR8rwm+y+sHJCmdAJrcswjIW
88E2chhAzXwmwsO6/8EoWGw/tBwzwo8j5sGkmKU/dxkrwqN798FQYXY/tmRJwnAz6MGaXoBAkZJD
wiG56sHHtwdAdEE+wiNI7MEiIQNAJSgywo3m7cGstxhAbUE0wg8E78GCHJRAgsInwjzN8sGop4NA
zppFwhbp5sHy6ABBSnA8wvb06sFy58RAZHZNwv0U5sH0qLpAsMEkwhCN6sHBSB1AzvIpwtHM48HR
lVdAD30uwuO2/MFvtIhAIwopwisJAcIM8FNADr8lwvAUAcLZovC9n9ciwlQa/MHdkKs/CJgnwrZk
A8L/d8I/zPgvwkn85sE40Ac/jwo3ws2y58GPr1Y/zwgzwqv23cFRo9k/w6cuwtxK+8GK6gU/Wucp
wsWb8MGMOLA+1lc8wqND7cFv8ZY/

> <OMEGA_E>
1I00Pw==

> <OMEGA_NBR>
     29361

$$$$
CACHE3HI_1706_59
  -OEChem-03092622523D

 33 36  0     0  0  0  0  0  0999 V2000
  -45.3777  -30.2451    0.4695 C   0  0  0  0  0  0  0  0  0  0  0  0
  -45.3315  -27.9691    1.3407 C   0  0  0  0  0  0  0  0  0  0  0  0
  -50.9298  -29.0047    4.6753 C   0  0  0  0  0  0  0  0  0  0  0  0
  -46.0391  -29.1168    0.9724 C   0  0  0  0  0  0  0  0  0  0  0  0
  -49.7461  -29.2650    4.0239 C   0  0  0  0  0  0  0  0  0  0  0  0
  -48.7198  -29.0828    4.9922 C   0  0  0  0  0  0  0  0  0  0  0  0
  -43.9817  -30.1925    0.3455 C   0  0  0  0  0  0  0  0  0  0  0  0
  -43.3060  -29.0392    0.7196 C   0  0  0  0  0  0  0  0  0  0  0  0
  -43.9386  -27.9040    1.2215 C   0  0  0  0  0  0  0  0  0  0  0  0
  -49.3486  -28.7208    6.1594 C   0  0  0  0  0  0  0  0  0  0  0  0
  -47.5028  -29.1429    1.1136 C   0  0  0  0  0  0  0  0  0  0  0  0
  -47.2819  -29.2654    4.6760 C   0  0  0  0  0  0  0  0  0  0  0  0
  -49.4969  -29.6698    2.6155 C   0  0  0  0  0  0  0  0  0  0  0  0
  -47.1281  -30.0739    3.3787 C   0  0  0  0  0  0  0  0  0  0  0  0
  -43.0807  -31.1212   -0.1047 N   0  0  0  0  0  0  0  0  0  0  0  0
  -41.8664  -30.5891   -0.0250 N   0  0  0  0  0  0  0  0  0  0  0  0
  -41.9998  -29.3465    0.4666 N   0  0  0  0  0  0  0  0  0  0  0  0
  -48.0441  -29.5959    2.3229 N   0  0  0  0  0  0  0  0  0  0  0  0
  -48.1506  -28.7505    0.1440 O   0  0  0  0  0  0  0  0  0  0  0  0
  -50.6958  -28.6724    5.9740 O   0  0  0  0  0  0  0  0  0  0  0  0
  -48.9362  -28.4231    7.3794 O   0  0  0  0  0  0  0  0  0  0  0  0
  -42.9919  -26.3552    1.7197 Br  0  0  0  0  0  0  0  0  0  0  0  0
  -45.9257  -31.1375    0.1826 H   0  0  0  0  0  0  0  0  0  0  0  0
  -45.8781  -27.1106    1.7286 H   0  0  0  0  0  0  0  0  0  0  0  0
  -51.9678  -29.0095    4.3757 H   0  0  0  0  0  0  0  0  0  0  0  0
  -46.7842  -28.2958    4.5662 H   0  0  0  0  0  0  0  0  0  0  0  0
  -46.7959  -29.7984    5.5018 H   0  0  0  0  0  0  0  0  0  0  0  0
  -49.8809  -30.6780    2.4386 H   0  0  0  0  0  0  0  0  0  0  0  0
  -49.9990  -28.9804    1.9278 H   0  0  0  0  0  0  0  0  0  0  0  0
  -46.1101  -29.9706    2.9823 H   0  0  0  0  0  0  0  0  0  0  0  0
  -47.2907  -31.1370    3.5840 H   0  0  0  0  0  0  0  0  0  0  0  0
  -41.1725  -28.7777    0.6008 H   0  0  0  0  0  0  0  0  0  0  0  0
  -49.6996  -28.2069    7.9682 H   0  0  0  0  0  0  0  0  0  0  0  0
  1  4  1  0  0  0  0
  1  7  2  0  0  0  0
  2  4  2  0  0  0  0
  2  9  1  0  0  0  0
  3  5  2  0  0  0  0
  3 20  1  0  0  0  0
  4 11  1  0  0  0  0
  5  6  1  0  0  0  0
  5 13  1  0  0  0  0
  6 10  2  0  0  0  0
  6 12  1  0  0  0  0
  7  8  1  0  0  0  0
  7 15  1  0  0  0  0
  8  9  2  0  0  0  0
  8 17  1  0  0  0  0
  9 22  1  0  0  0  0
 10 20  1  0  0  0  0
 10 21  1  0  0  0  0
 11 18  1  0  0  0  0
 11 19  2  0  0  0  0
 12 14  1  0  0  0  0
 13 18  1  0  0  0  0
 14 18  1  0  0  0  0
 15 16  2  0  0  0  0
 16 17  1  0  0  0  0
  1 23  1  0  0  0  0
  2 24  1  0  0  0  0
  3 25  1  0  0  0  0
 12 26  1  0  0  0  0
 12 27  1  0  0  0  0
 13 28  1  0  0  0  0
 13 29  1  0  0  0  0
 14 30  1  0  0  0  0
 14 31  1  0  0  0  0
 17 32  1  0  0  0  0
 21 33  1  0  0  0  0
M  END
> <POSIT::Probability>
0.18

> <POSIT::Method>
HYBRID

> <ReceptorTitle>
UCSF-P4529-REFINED_LIGAND-BOUND-STATE_A__DU__LA1_A-201(A)

> <OMEGA_C>
zII1wt/18cGAYvA+aFM1wqbA38Fwnas/IrhLwqgJ6MG/m5VAEig4wkbv6MHQ7Xg/CPxGwrIe6sGc
w4BAG+FCwpCp6MEGwJ9AO+0vwiiK8cGg5LA+UjktwlhQ6MHwOjg/KMEvwnU738FgW5w/+2RFwjbE
5cH3GcVA3gI+wr4k6cGwio4/siA9wpYf6sHjoZVA3PxFwslb7cHmZCdAM4M8wlmX8MEOPVhAplIs
wjD4+MGAcNa9M3cnwpS29MEA1sy81v8nwovF6sFA4e4+HC1AwnfE7MFIqhRAOZpAwgIB5sEAdxM+
jMhKwhZh5cHoKr9AuL5DwoJi48FAJOxAuvcrwmTX0sFAH9w/4bM3wq4Z+cHAADs+LIM3wpzi2MFY
RN0//N5PwokT6MGRBYxA+SI7wtJd4sEBHpJA/i47wjhj7sGKDrBAA4ZHwops9cE0EhxAAf9HwtLX
58F4wfY/w3A4wtPD78Gu3T5ApCk9wnsY+cEEYWVAprAkwqQ45sEQzBk/cMxGwqin4cF9+/5A

> <OMEGA_E>
E1DBwA==

> <OMEGA_NBR>
     30520

$$$$
CACHE3HI_1707_58
  -OEChem-03092622523D

 32 33  0     1  0  0  0  0  0999 V2000
  -43.7595  -27.9234   -0.0465 C   0  0  0  0  0  0  0  0  0  0  0  0
  -45.6179  -27.9328    1.4381 C   0  0  0  0  0  0  0  0  0  0  0  0
  -44.9163  -25.9328    0.5502 C   0  0  0  0  0  0  0  0  0  0  0  0
  -44.6317  -28.6384    0.7668 C   0  0  0  0  0  0  0  0  0  0  0  0
  -43.8977  -26.5448   -0.1622 C   0  0  0  0  0  0  0  0  0  0  0  0
  -44.5143  -30.0967    0.9098 C   0  0  0  0  0  0  0  0  0  0  0  0
  -42.7540  -29.8192    3.7529 C   0  0  0  0  0  0  0  0  0  0  0  0
  -42.9915  -32.0295    0.2723 C   0  0  0  0  0  0  0  0  0  0  0  0
  -41.7158  -32.0854   -0.5565 C   0  0  0  0  0  0  0  0  0  0  0  0
  -40.8562  -30.1410    0.4408 C   0  0  0  0  0  0  0  0  0  0  0  0
  -42.0810  -29.9634    1.3403 C   0  0  2  0  0  0  0  0  0  0  0  0
  -41.8031  -30.4405    2.7696 C   0  0  0  0  0  0  0  0  0  0  0  0
  -45.7828  -26.5938    1.3501 N   0  0  0  0  0  0  0  0  0  0  0  0
  -43.2449  -30.6754    0.7851 N   0  0  0  0  0  0  0  0  0  0  0  0
  -45.5592  -30.7084    1.1235 O   0  0  0  0  0  0  0  0  0  0  0  0
  -43.9717  -29.9213    3.7548 O   0  0  0  0  0  0  0  0  0  0  0  0
  -40.6215  -31.5208    0.1633 O   0  0  0  0  0  0  0  0  0  0  0  0
  -42.0553  -29.1034    4.6712 O   0  0  0  0  0  0  0  0  0  0  0  0
  -42.7362  -25.5415   -1.2539 Br  0  0  0  0  0  0  0  0  0  0  0  0
  -42.9742  -28.4460   -0.5881 H   0  0  0  0  0  0  0  0  0  0  0  0
  -46.3288  -28.4352    2.0870 H   0  0  0  0  0  0  0  0  0  0  0  0
  -45.0778  -24.8602    0.5031 H   0  0  0  0  0  0  0  0  0  0  0  0
  -43.8333  -32.3987   -0.3192 H   0  0  0  0  0  0  0  0  0  0  0  0
  -42.8945  -32.6770    1.1515 H   0  0  0  0  0  0  0  0  0  0  0  0
  -41.4648  -33.1271   -0.7805 H   0  0  0  0  0  0  0  0  0  0  0  0
  -41.8381  -31.5630   -1.5128 H   0  0  0  0  0  0  0  0  0  0  0  0
  -40.9809  -29.5966   -0.5035 H   0  0  0  0  0  0  0  0  0  0  0  0
  -39.9600  -29.7411    0.9270 H   0  0  0  0  0  0  0  0  0  0  0  0
  -42.3166  -28.8941    1.3947 H   0  0  0  0  0  0  0  0  0  0  0  0
  -41.9132  -31.5249    2.8037 H   0  0  0  0  0  0  0  0  0  0  0  0
  -40.7825  -30.1645    3.0373 H   0  0  0  0  0  0  0  0  0  0  0  0
  -42.6455  -28.6819    5.3312 H   0  0  0  0  0  0  0  0  0  0  0  0
  1  4  1  0  0  0  0
  1  5  2  0  0  0  0
  2  4  2  0  0  0  0
  2 13  1  0  0  0  0
  3  5  1  0  0  0  0
  3 13  2  0  0  0  0
  4  6  1  0  0  0  0
  5 19  1  0  0  0  0
  6 14  1  0  0  0  0
  6 15  2  0  0  0  0
  7 12  1  0  0  0  0
  7 16  2  0  0  0  0
  7 18  1  0  0  0  0
  8  9  1  0  0  0  0
  8 14  1  0  0  0  0
  9 17  1  0  0  0  0
 10 11  1  0  0  0  0
 10 17  1  0  0  0  0
 11 12  1  0  0  0  0
 11 14  1  0  0  0  0
  1 20  1  0  0  0  0
  2 21  1  0  0  0  0
  3 22  1  0  0  0  0
  8 23  1  0  0  0  0
  8 24  1  0  0  0  0
  9 25  1  0  0  0  0
  9 26  1  0  0  0  0
 10 27  1  0  0  0  0
 10 28  1  0  0  0  0
 11 29  1  0  0  0  0
 12 30  1  0  0  0  0
 12 31  1  0  0  0  0
 18 32  1  0  0  0  0
M  END
> <POSIT::Probability>
0.24

> <POSIT::Method>
FRED

> <ReceptorTitle>
UCSF-P4529-REFINED_LIGAND-BOUND-STATE_A__DU__LA1_A-201(A)

> <OMEGA_C>
ugkvwiBj38EAQz69rng2wld238HUErg/UKozwlt2z8Eo2gw/1oYywl8b5cH4S0Q/Npcvwq5b1MGA
Iya+mQ4ywvjF8MGI52g/IQQrwqmN7sFYL3BASfcrwi8eAMJgaos+8dwmwn5XAMLIeQ6/vWwjwsQg
8cEgr+E++1Iowhy178GIjas/YzYnwhqG88FvQTFAjyE3whLA1MGYzqw/u/oswkJn9cFY/Ug/pjw2
wr+q9cEwzo8/++IvwuBe78EeT3BAZXwiwpYq/MHAMyc+oDgowsnT6MF5epVA5vEqwghVzMFAfqC/
neUrwmqR48Fojxa/p1A5wl5748EwkQVAtk80wrDhxsFYygA/RFUvwk6YAcLwbqO+75Mrwj61AsLA
Y5M/6NslwjCCBMLgzke/MFonwviA/MG4pMG/eewjws/F7MFw4wC/Bdcfwtzt7cEQU20/KUQpwiwn
58FkhrI/I6cnwgoz/MFobzNARCEjws9Q8cHOYkJAB5UqwnJ05cFvmapA

> <OMEGA_E>
VsffwA==

> <OMEGA_NBR>
     31650

$$$$
CACHE3HI_1708_19
  -OEChem-03092622523D

 38 41  0     1  0  0  0  0  0999 V2000
  -46.7730  -30.4128    3.2588 C   0  0  0  0  0  0  0  0  0  0  0  0
  -48.1541  -30.2329    3.4042 C   0  0  0  0  0  0  0  0  0  0  0  0
  -46.3455  -29.4010    5.4339 C   0  0  0  0  0  0  0  0  0  0  0  0
  -47.7103  -29.2397    5.5437 C   0  0  0  0  0  0  0  0  0  0  0  0
  -45.8766  -29.9993    4.2637 C   0  0  0  0  0  0  0  0  0  0  0  0
  -48.6137  -29.6245    4.5546 C   0  0  0  0  0  0  0  0  0  0  0  0
  -48.5246  -28.6518    6.6087 C   0  0  0  0  0  0  0  0  0  0  0  0
  -41.9283  -30.9543   -0.0160 C   0  0  0  0  0  0  0  0  0  0  0  0
  -44.4328  -30.2054    4.0782 C   0  0  0  0  0  0  0  0  0  0  0  0
  -40.7591  -31.5608    0.7241 C   0  0  0  0  0  0  0  0  0  0  0  0
  -40.9481  -31.0391    2.1492 C   0  0  0  0  0  0  0  0  0  0  0  0
  -43.5480  -29.0809    0.5323 C   0  0  0  0  0  0  0  0  0  0  0  0
  -44.5067  -29.3110    1.7020 C   0  0  0  0  0  0  0  0  0  0  0  0
  -42.4230  -29.1533    3.0943 C   0  0  0  0  0  0  0  0  0  0  0  0
  -41.5672  -29.6657    1.9364 C   0  0  2  0  0  0  0  0  0  0  0  0
  -49.9249  -29.3962    4.9535 N   0  0  0  0  0  0  0  0  0  0  0  0
  -49.8380  -28.7525    6.1745 N   0  0  0  0  0  0  0  0  0  0  0  0
  -42.3468  -29.8630    0.7351 N   0  0  0  0  0  0  0  0  0  0  0  0
  -43.8189  -29.5940    2.9796 N   0  0  0  0  0  0  0  0  0  0  0  0
  -48.0875  -28.1796    7.6406 O   0  0  0  0  0  0  0  0  0  0  0  0
  -42.3819  -31.3687   -1.0719 O   0  0  0  0  0  0  0  0  0  0  0  0
  -43.8706  -30.9131    4.9137 O   0  0  0  0  0  0  0  0  0  0  0  0
  -46.3962  -30.8852    2.3540 H   0  0  0  0  0  0  0  0  0  0  0  0
  -48.8362  -30.5680    2.6300 H   0  0  0  0  0  0  0  0  0  0  0  0
  -45.6724  -29.0781    6.2200 H   0  0  0  0  0  0  0  0  0  0  0  0
  -40.7906  -32.6488    0.6840 H   0  0  0  0  0  0  0  0  0  0  0  0
  -39.8328  -31.1876    0.2840 H   0  0  0  0  0  0  0  0  0  0  0  0
  -41.6289  -31.7019    2.6940 H   0  0  0  0  0  0  0  0  0  0  0  0
  -40.0031  -30.9936    2.6950 H   0  0  0  0  0  0  0  0  0  0  0  0
  -44.0099  -29.3497   -0.4136 H   0  0  0  0  0  0  0  0  0  0  0  0
  -43.2501  -28.0350    0.4918 H   0  0  0  0  0  0  0  0  0  0  0  0
  -45.1751  -28.4400    1.8138 H   0  0  0  0  0  0  0  0  0  0  0  0
  -45.1597  -30.1779    1.4946 H   0  0  0  0  0  0  0  0  0  0  0  0
  -42.0495  -29.5361    4.0601 H   0  0  0  0  0  0  0  0  0  0  0  0
  -42.3450  -28.0566    3.1507 H   0  0  0  0  0  0  0  0  0  0  0  0
  -40.7857  -28.9316    1.6885 H   0  0  0  0  0  0  0  0  0  0  0  0
  -50.6679  -29.1760    4.3067 H   0  0  0  0  0  0  0  0  0  0  0  0
  -50.6844  -28.4594    6.6454 H   0  0  0  0  0  0  0  0  0  0  0  0
  1  2  1  0  0  0  0
  1  5  2  0  0  0  0
  2  6  2  0  0  0  0
  3  4  2  0  0  0  0
  3  5  1  0  0  0  0
  4  6  1  0  0  0  0
  4  7  1  0  0  0  0
  5  9  1  0  0  0  0
  6 16  1  0  0  0  0
  7 17  1  0  0  0  0
  7 20  2  0  0  0  0
  8 10  1  0  0  0  0
  8 18  1  0  0  0  0
  8 21  2  0  0  0  0
  9 19  1  0  0  0  0
  9 22  2  0  0  0  0
 10 11  1  0  0  0  0
 11 15  1  0  0  0  0
 12 13  1  0  0  0  0
 12 18  1  0  0  0  0
 13 19  1  0  0  0  0
 14 15  1  0  0  0  0
 14 19  1  0  0  0  0
 15 18  1  0  0  0  0
 16 17  1  0  0  0  0
  1 23  1  0  0  0  0
  2 24  1  0  0  0  0
  3 25  1  0  0  0  0
 10 26  1  0  0  0  0
 10 27  1  0  0  0  0
 11 28  1  0  0  0  0
 11 29  1  0  0  0  0
 12 30  1  0  0  0  0
 12 31  1  0  0  0  0
 13 32  1  0  0  0  0
 13 33  1  0  0  0  0
 14 34  1  0  0  0  0
 14 35  1  0  0  0  0
 15 36  1  0  0  0  0
 16 37  1  0  0  0  0
 17 38  1  0  0  0  0
M  END
> <POSIT::Probability>
0.23

> <POSIT::Method>
HYBRID

> <ReceptorTitle>
UCSF-P4529-REFINED_LIGAND-BOUND-STATE_A__DU__LA1_A-201(A)

> <OMEGA_C>
hhc7wmZN88E6kFBA1Z1Awvvc8cHE3VlAxmE5wjI168GS4q1AUtc+wvDq6cHWZbFAqIE3woj+78ES
cIhAdnRCwuL+7MHqvpFAMRlCwso25cGHetNAnbYnwnyi98EAUIO8NLsxwqik8cFYgIJAVwkjwnJ8
/MHYXzk/4MojwiRQ+MGyjAlALzEuwsml6MFARgg/2QYywvd86sHU2tk/JLEpwuw56cE0CEZAw0Qm
wl5T7cEs3fc/E7NHwmwr68HDgp5AEFpHwh4F5sF3lcVALGMpwoLn7sFwLTw/g0YvwpjA7MFcsT5A
mVlAwtBv4cF3f/RACocpwgHz+sGANYm/d3svwvRN98H9PJ1AvpU5wvQU98FQpxZAPFhDwlaL9MHM
UShAhbA2wuGf6MFtCsdAiSkjwmqYAsLAGS8/vlQfwi6A+cFwY5E+94MmwnGd/cHEaSxAOQMgwu7y
98GKeyxAGAowwknM6sGgwdO+HwAtwpVH4MHQzvs+TLM0wiKF48HcK+g/g6M0wmRs8cF8T78/tDIo
wvhJ7MGO7IFASWEpwtVz4MGSpElAiiQjwvBz58E0Itg/+KtKwn5o6cGt0IlA3LxKwtms48H1ptRA

> <OMEGA_E>
fsW6wA==

> <OMEGA_NBR>
     32913

$$$$
CACHE3HI_1709_38
  -OEChem-03092622523D

 44 47  0     1  0  0  0  0  0999 V2000
  -52.1744  -29.0463    5.9341 C   0  0  0  0  0  0  0  0  0  0  0  0
  -47.0958  -30.1217    2.4809 C   0  0  0  0  0  0  0  0  0  0  0  0
  -48.4792  -30.0142    2.3269 C   0  0  0  0  0  0  0  0  0  0  0  0
  -41.0267  -30.5806    3.2416 C   0  0  0  0  0  0  0  0  0  0  0  0
  -47.2972  -29.6989    4.8508 C   0  0  0  0  0  0  0  0  0  0  0  0
  -40.9239  -30.8173    1.8924 C   0  0  0  0  0  0  0  0  0  0  0  0
  -50.9791  -29.2867    5.1944 C   0  0  0  0  0  0  0  0  0  0  0  0
  -48.7032  -29.5843    4.7281 C   0  0  0  0  0  0  0  0  0  0  0  0
  -49.7081  -29.3189    5.7177 C   0  0  0  0  0  0  0  0  0  0  0  0
  -46.5090  -29.9669    3.7291 C   0  0  0  0  0  0  0  0  0  0  0  0
  -49.2712  -29.7454    3.4604 C   0  0  0  0  0  0  0  0  0  0  0  0
  -42.4062  -30.4087    3.4637 C   0  0  0  0  0  0  0  0  0  0  0  0
  -44.3395  -29.9558    5.0381 C   0  0  0  0  0  0  0  0  0  0  0  0
  -44.0248  -31.5640   -0.2058 C   0  0  0  0  0  0  0  0  0  0  0  0
  -43.9710  -32.3661   -1.5014 C   0  0  0  0  0  0  0  0  0  0  0  0
  -41.7741  -31.9237   -0.8810 C   0  0  0  0  0  0  0  0  0  0  0  0
  -42.6184  -30.9751   -0.0318 C   0  0  2  0  0  0  0  0  0  0  0  0
  -49.3952  -29.1035    7.1563 C   0  0  0  0  0  0  0  0  0  0  0  0
  -53.1471  -28.8506    6.5361 N   0  0  0  0  0  0  0  0  0  0  0  0
  -43.1274  -30.5259    2.3457 N   0  0  0  0  0  0  0  0  0  0  0  0
  -42.1979  -30.7743    1.4074 N   0  0  0  0  0  0  0  0  0  0  0  0
  -42.6224  -32.1844   -2.0495 N   0  0  0  0  0  0  0  0  0  0  0  0
  -45.1246  -30.0779    3.8658 N   0  0  0  0  0  0  0  0  0  0  0  0
  -42.9823  -30.1397    4.7280 N   0  0  0  0  0  0  0  0  0  0  0  0
  -44.7864  -29.7239    6.1569 O   0  0  0  0  0  0  0  0  0  0  0  0
  -50.9861  -29.5724    3.5138 S   0  0  0  0  0  0  0  0  0  0  0  0
  -46.4840  -30.3296    1.6059 H   0  0  0  0  0  0  0  0  0  0  0  0
  -48.9301  -30.1374    1.3463 H   0  0  0  0  0  0  0  0  0  0  0  0
  -40.2159  -30.5397    3.9548 H   0  0  0  0  0  0  0  0  0  0  0  0
  -46.8291  -29.5781    5.8257 H   0  0  0  0  0  0  0  0  0  0  0  0
  -40.0722  -31.0074    1.2537 H   0  0  0  0  0  0  0  0  0  0  0  0
  -44.7928  -30.7760   -0.2500 H   0  0  0  0  0  0  0  0  0  0  0  0
  -44.2913  -32.2247    0.6374 H   0  0  0  0  0  0  0  0  0  0  0  0
  -44.1963  -33.4378   -1.3312 H   0  0  0  0  0  0  0  0  0  0  0  0
  -44.7258  -31.9985   -2.2268 H   0  0  0  0  0  0  0  0  0  0  0  0
  -40.8631  -31.4252   -1.2093 H   0  0  0  0  0  0  0  0  0  0  0  0
  -41.5050  -32.8497   -0.3790 H   0  0  0  0  0  0  0  0  0  0  0  0
  -42.5914  -29.9482   -0.4740 H   0  0  0  0  0  0  0  0  0  0  0  0
  -49.4064  -30.0491    7.7166 H   0  0  0  0  0  0  0  0  0  0  0  0
  -50.1348  -28.4454    7.6343 H   0  0  0  0  0  0  0  0  0  0  0  0
  -48.4029  -28.6470    7.2707 H   0  0  0  0  0  0  0  0  0  0  0  0
  -42.3277  -33.0602   -2.4711 H   0  0  0  0  0  0  0  0  0  0  0  0
  -44.5942  -30.2744    3.0104 H   0  0  0  0  0  0  0  0  0  0  0  0
  -42.3280  -30.0729    5.5035 H   0  0  0  0  0  0  0  0  0  0  0  0
  1  7  1  0  0  0  0
  1 19  3  0  0  0  0
  2  3  2  0  0  0  0
  2 10  1  0  0  0  0
  3 11  1  0  0  0  0
  4  6  2  0  0  0  0
  4 12  1  0  0  0  0
  5  8  1  0  0  0  0
  5 10  2  0  0  0  0
  6 21  1  0  0  0  0
  7  9  2  0  0  0  0
  7 26  1  0  0  0  0
  8  9  1  0  0  0  0
  8 11  2  0  0  0  0
  9 18  1  0  0  0  0
 10 23  1  0  0  0  0
 11 26  1  0  0  0  0
 12 20  2  0  0  0  0
 12 24  1  0  0  0  0
 13 23  1  0  0  0  0
 13 24  1  0  0  0  0
 13 25  2  0  0  0  0
 14 15  1  0  0  0  0
 14 17  1  0  0  0  0
 15 22  1  0  0  0  0
 16 17  1  0  0  0  0
 16 22  1  0  0  0  0
 17 21  1  0  0  0  0
 20 21  1  0  0  0  0
  2 27  1  0  0  0  0
  3 28  1  0  0  0  0
  4 29  1  0  0  0  0
  5 30  1  0  0  0  0
  6 31  1  0  0  0  0
 14 32  1  0  0  0  0
 14 33  1  0  0  0  0
 15 34  1  0  0  0  0
 15 35  1  0  0  0  0
 16 36  1  0  0  0  0
 16 37  1  0  0  0  0
 17 38  1  0  0  0  0
 18 39  1  0  0  0  0
 18 40  1  0  0  0  0
 18 41  1  0  0  0  0
 22 42  1  0  0  0  0
 23 43  1  0  0  0  0
 24 44  1  0  0  0  0
M  END
> <POSIT::Probability>
0.18

> <POSIT::Method>
FRED

> <ReceptorTitle>
UCSF-P4529-REFINED_LIGAND-BOUND-STATE_A__DU__LA1_A-201(A)

> <OMEGA_C>
nbJQwuBe6MG+471AG2I8wj358MFYxh5AtupBwvwc8MGg6xRAXRskwhSl9MFgdk9ASTA9wl6X7cEe
OptACrIjwuiJ9sH8OPI/nupLwipL6sF8OKZAG9BCwqus7MGoTJdAFNVGwhSN6sG297ZALgk6wiS8
78E4qW5AuxVFwpX27cEcd11A958pwgJF88HkrV1Anlsxwoql78HUN6FAXRkwwv+C/MHAsFK+SeIv
wuJ2AcJ8L8C/sxgnws1j/8HohmG/SXkqwuvM98EAbgK9o5RFwgDU6MGqAOVAppZUwv7N5sF6J9FA
bIIswhk19MHSHxZAqMoowrwx9sEYJ7Q/TH0qwtW8AMJcKwPAkH80wnef8MEaaXdA6O0rwhQe8cGK
S5dASiUzwnvK7cH8BMVAv/FLwl6U7MEY4mBAmO85wgKj8sGAjs0/bbhDwmMZ8cFwUqw/DN0gwjxR
9MGoGn1ADFE7wgag7MFAbLpA6Ekgwh0P+MG0eKA/3Cszwiw19sEgAIC+SCoxwhHmAMJwLyM/Ackw
wkvABcLgZaq/POcywuT8/8FQgw7A1nMjwtVm+8Fsy5q/GgUmwhhmA8KABsK+oF0qwtGV78FgtPK+
I6BFwo5k8MGa7vZAAopIwj6Q48H9S/RAjZxBwiIt5cH0qehAlU8pwq49BMK2Jh7AgWAywuIx8sFA
qkBA508pwmCV8MFyHLBA

> <OMEGA_E>
rDgCwQ==

> <OMEGA_NBR>
     34288

$$$$
CACHE3HI_1712_56
  -OEChem-03092622523D

 55 58  0     0  0  0  0  0  0999 V2000
  -46.4899  -25.7271   -0.2118 C   0  0  0  0  0  0  0  0  0  0  0  0
  -44.3092  -26.4784    0.6016 C   0  0  0  0  0  0  0  0  0  0  0  0
  -45.7610  -28.0387   -0.5365 C   0  0  0  0  0  0  0  0  0  0  0  0
  -43.3549  -27.4833    0.7606 C   0  0  0  0  0  0  0  0  0  0  0  0
  -44.8067  -29.0435   -0.3776 C   0  0  0  0  0  0  0  0  0  0  0  0
  -41.2038  -31.2666    1.2702 C   0  0  0  0  0  0  0  0  0  0  0  0
  -45.5123  -26.7563   -0.0471 C   0  0  0  0  0  0  0  0  0  0  0  0
  -43.6036  -28.7657    0.2712 C   0  0  0  0  0  0  0  0  0  0  0  0
  -42.1017  -30.2987    1.6497 C   0  0  0  0  0  0  0  0  0  0  0  0
  -42.6175  -29.8035    0.4371 C   0  0  0  0  0  0  0  0  0  0  0  0
  -42.4077  -29.9156    3.0396 C   0  0  0  0  0  0  0  0  0  0  0  0
  -48.0152  -30.5525    3.5986 C   0  0  0  0  0  0  0  0  0  0  0  0
  -47.1662  -28.9186    5.1625 C   0  0  0  0  0  0  0  0  0  0  0  0
  -49.3287  -29.7678    3.4939 C   0  0  0  0  0  0  0  0  0  0  0  0
  -48.4816  -28.1362    5.0559 C   0  0  0  0  0  0  0  0  0  0  0  0
  -44.8648  -30.5337    2.7122 C   0  0  0  0  0  0  0  0  0  0  0  0
  -44.4669  -29.6049    4.5980 C   0  0  0  0  0  0  0  0  0  0  0  0
  -45.6467  -30.4082    4.0279 C   0  0  0  0  0  0  0  0  0  0  0  0
  -52.3981  -29.1046    8.5511 C   0  0  0  0  0  0  0  0  0  0  0  0
  -50.1082  -29.7831    5.7962 C   0  0  0  0  0  0  0  0  0  0  0  0
  -50.8451  -28.9124    6.7973 C   0  0  0  0  0  0  0  0  0  0  0  0
  -47.2839  -24.8913   -0.3457 N   0  0  0  0  0  0  0  0  0  0  0  0
  -42.0910  -30.4064   -0.6321 N   0  0  0  0  0  0  0  0  0  0  0  0
  -41.2350  -31.2910   -0.0931 N   0  0  0  0  0  0  0  0  0  0  0  0
  -43.7057  -30.0653    3.4519 N   0  0  0  0  0  0  0  0  0  0  0  0
  -46.8973  -29.6596    3.9246 N   0  0  0  0  0  0  0  0  0  0  0  0
  -49.6369  -28.9624    4.6831 N   0  0  0  0  0  0  0  0  0  0  0  0
  -41.4895  -29.5078    3.7473 O   0  0  0  0  0  0  0  0  0  0  0  0
  -51.3108  -29.7178    7.8726 O   0  0  0  0  0  0  0  0  0  0  0  0
  -44.1003  -25.4834    0.9878 H   0  0  0  0  0  0  0  0  0  0  0  0
  -46.6938  -28.2700   -1.0453 H   0  0  0  0  0  0  0  0  0  0  0  0
  -42.4214  -27.2507    1.2675 H   0  0  0  0  0  0  0  0  0  0  0  0
  -45.0163  -30.0385   -0.7635 H   0  0  0  0  0  0  0  0  0  0  0  0
  -40.5580  -31.9270    1.8323 H   0  0  0  0  0  0  0  0  0  0  0  0
  -48.1208  -31.3442    4.3531 H   0  0  0  0  0  0  0  0  0  0  0  0
  -47.8278  -31.0437    2.6362 H   0  0  0  0  0  0  0  0  0  0  0  0
  -46.3541  -28.2063    5.3513 H   0  0  0  0  0  0  0  0  0  0  0  0
  -47.2127  -29.5965    6.0259 H   0  0  0  0  0  0  0  0  0  0  0  0
  -49.3011  -29.1262    2.5861 H   0  0  0  0  0  0  0  0  0  0  0  0
  -50.1487  -30.4941    3.3187 H   0  0  0  0  0  0  0  0  0  0  0  0
  -48.6741  -27.6547    6.0365 H   0  0  0  0  0  0  0  0  0  0  0  0
  -48.3524  -27.3002    4.3344 H   0  0  0  0  0  0  0  0  0  0  0  0
  -44.7673  -31.5575    2.3374 H   0  0  0  0  0  0  0  0  0  0  0  0
  -45.1312  -29.8595    1.8901 H   0  0  0  0  0  0  0  0  0  0  0  0
  -44.5544  -28.5127    4.6245 H   0  0  0  0  0  0  0  0  0  0  0  0
  -44.0812  -29.9706    5.5549 H   0  0  0  0  0  0  0  0  0  0  0  0
  -45.7705  -31.4255    4.5524 H   0  0  0  0  0  0  0  0  0  0  0  0
  -52.7292  -29.7498    9.3690 H   0  0  0  0  0  0  0  0  0  0  0  0
  -52.0684  -28.1453    8.9573 H   0  0  0  0  0  0  0  0  0  0  0  0
  -53.2188  -28.9376    7.8497 H   0  0  0  0  0  0  0  0  0  0  0  0
  -50.7720  -30.5557    5.3965 H   0  0  0  0  0  0  0  0  0  0  0  0
  -49.2393  -30.2618    6.2581 H   0  0  0  0  0  0  0  0  0  0  0  0
  -50.1994  -28.1256    7.2007 H   0  0  0  0  0  0  0  0  0  0  0  0
  -51.7149  -28.4494    6.3213 H   0  0  0  0  0  0  0  0  0  0  0  0
  -40.7004  -31.8828   -0.7167 H   0  0  0  0  0  0  0  0  0  0  0  0
  1  7  1  0  0  0  0
  1 22  3  0  0  0  0
  2  4  2  0  0  0  0
  2  7  1  0  0  0  0
  3  5  1  0  0  0  0
  3  7  2  0  0  0  0
  4  8  1  0  0  0  0
  5  8  2  0  0  0  0
  6  9  2  0  0  0  0
  6 24  1  0  0  0  0
  8 10  1  0  0  0  0
  9 10  1  0  0  0  0
  9 11  1  0  0  0  0
 10 23  2  0  0  0  0
 11 25  1  0  0  0  0
 11 28  2  0  0  0  0
 12 14  1  0  0  0  0
 12 26  1  0  0  0  0
 13 15  1  0  0  0  0
 13 26  1  0  0  0  0
 14 27  1  0  0  0  0
 15 27  1  0  0  0  0
 16 18  1  0  0  0  0
 16 25  1  0  0  0  0
 17 18  1  0  0  0  0
 17 25  1  0  0  0  0
 18 26  1  0  0  0  0
 19 29  1  0  0  0  0
 20 21  1  0  0  0  0
 20 27  1  0  0  0  0
 21 29  1  0  0  0  0
 23 24  1  0  0  0  0
  2 30  1  0  0  0  0
  3 31  1  0  0  0  0
  4 32  1  0  0  0  0
  5 33  1  0  0  0  0
  6 34  1  0  0  0  0
 12 35  1  0  0  0  0
 12 36  1  0  0  0  0
 13 37  1  0  0  0  0
 13 38  1  0  0  0  0
 14 39  1  0  0  0  0
 14 40  1  0  0  0  0
 15 41  1  0  0  0  0
 15 42  1  0  0  0  0
 16 43  1  0  0  0  0
 16 44  1  0  0  0  0
 17 45  1  0  0  0  0
 17 46  1  0  0  0  0
 18 47  1  0  0  0  0
 19 48  1  0  0  0  0
 19 49  1  0  0  0  0
 19 50  1  0  0  0  0
 20 51  1  0  0  0  0
 20 52  1  0  0  0  0
 21 53  1  0  0  0  0
 21 54  1  0  0  0  0
 24 55  1  0  0  0  0
M  END
> <POSIT::Probability>
0.14

> <POSIT::Method>
HYBRID

> <ReceptorTitle>
UCSF-P4529-REFINED_LIGAND-BOUND-STATE_A__DU__LA1_A-201(A)

> <OMEGA_C>
ofU5wgDRzcGU4Fi+nzwxwszT08EiBRo/PQs3wkFP4MFYWQm/Z2stwrzd28ETtUI/EzozwipZ6MHm
VcG+s9AkwgAi+sFAlqI/jQw2wtcM1sFA/EC9FmouwiUg5sH41oo+MGgowtdj8sHTKdM/V3gqwnpt
7sFoxd8+hKEpwjNT78FhiEJAkQ9Awp5r9ME0UGZAMqo8wmBZ58FhM6VAnVBFwmYk7sGNnF9AIu1B
wggX4cHVyaFAmHUzwvRE9MH+lC1AId4xwtbW7MECI5NAP5Y2wuxD88Fj5IBApJdRwkbW6MFm0QhB
yG5IwtJD7sFHerlAbWFLwqBM58F5g9lAtCI9wl4hx8EO+bC+Ol0owmBA88Hc0CG/mvAkwghU+sFw
qb69rtIuwraF8MF661xA3ZY7wtxG7cGYLHtAJIxGwhOz58HA25VATPUlwu4P7MFi1G9ARj5NwiC+
7cFf7PtAtGYwwg/ey8Em3nw/e8Y6wvAo4sH+y4W/hq8pwoAB2sGmPqI/sxA0wsxO8MEbdUO/bDsi
wnNq/8E1ieo/t3tAwvzA+sF8TItAoE8/wpJZ+MFEtyhAk2o5wpam4cEOPqtA2Nk8wpzF7MEx1MBA
SDRFwnYC6cHWgiVATJhIwunz88EgZlRASrJCws883cFHK8FA52hBwtRm2sFQs4pAthEzwq51/MH+
lxVAW4Y0wjrg7sEb8PE/vDcywvgZ5MGI+5NAHFMwwuDD78FswbFACBU3wmhn+8FArZFAwOpSwo7/
7cF75xVBBkZQwqQp4cEIUQ9BAeBUwj6A58GdMPtAiBZLwg9y9MH9r6xAAvVEwkIY8sFhQshAOcxI
wigB4cHja+ZAA9xOwkiY48HIR8pALs0iwvEP/8HYeje/

> <OMEGA_E>
HW6xwA==

> <OMEGA_NBR>
     35886

$$$$
CACHE3HI_1712_66
  -OEChem-03092622523D

 34 37  0     1  0  0  0  0  0999 V2000
  -41.0554  -32.5630    0.5879 C   0  0  0  0  0  0  0  0  0  0  0  0
  -47.1360  -29.2372    4.9468 C   0  0  0  0  0  0  0  0  0  0  0  0
  -45.8363  -29.5298    5.2824 C   0  0  0  0  0  0  0  0  0  0  0  0
  -45.9548  -29.8007    3.1655 C   0  0  0  0  0  0  0  0  0  0  0  0
  -42.5996  -30.7798    0.5306 C   0  0  0  0  0  0  0  0  0  0  0  0
  -49.4893  -28.8321    3.4719 C   0  0  0  0  0  0  0  0  0  0  0  0
  -49.4527  -28.6352    4.9153 C   0  0  0  0  0  0  0  0  0  0  0  0
  -48.3701  -29.2160    2.8339 C   0  0  0  0  0  0  0  0  0  0  0  0
  -48.3189  -28.8328    5.6124 C   0  0  0  0  0  0  0  0  0  0  0  0
  -45.5436  -30.1055    1.7885 C   0  0  0  0  0  0  0  0  0  0  0  0
  -43.0053  -27.5371    1.0216 C   0  0  0  0  0  0  0  0  0  0  0  0
  -42.9291  -28.3877   -0.2427 C   0  0  0  0  0  0  0  0  0  0  0  0
  -44.3173  -27.9618    1.6571 C   0  0  0  0  0  0  0  0  0  0  0  0
  -43.6038  -29.7108    0.1459 C   0  0  2  0  0  0  0  0  0  0  0  0
  -41.2266  -32.0277    1.7781 N   0  0  0  0  0  0  0  0  0  0  0  0
  -45.1091  -29.8784    4.1706 N   0  0  0  0  0  0  0  0  0  0  0  0
  -42.1321  -30.9817    1.7436 N   0  0  0  0  0  0  0  0  0  0  0  0
  -47.2061  -29.4149    3.5727 N   0  0  0  0  0  0  0  0  0  0  0  0
  -44.5252  -29.3392    1.2342 N   0  0  0  0  0  0  0  0  0  0  0  0
  -46.1440  -31.0114    1.2138 O   0  0  0  0  0  0  0  0  0  0  0  0
  -48.2933  -28.6499    6.9473 F   0  0  0  0  0  0  0  0  0  0  0  0
  -41.9781  -31.8412   -0.6652 S   0  0  0  0  0  0  0  0  0  0  0  0
  -45.0792  -29.4862    7.0066 Br  0  0  0  0  0  0  0  0  0  0  0  0
  -40.3862  -33.3933    0.4120 H   0  0  0  0  0  0  0  0  0  0  0  0
  -50.4207  -28.6663    2.9442 H   0  0  0  0  0  0  0  0  0  0  0  0
  -50.3662  -28.3251    5.4100 H   0  0  0  0  0  0  0  0  0  0  0  0
  -48.3338  -29.3785    1.7638 H   0  0  0  0  0  0  0  0  0  0  0  0
  -42.1688  -27.7788    1.6879 H   0  0  0  0  0  0  0  0  0  0  0  0
  -42.9721  -26.4659    0.8033 H   0  0  0  0  0  0  0  0  0  0  0  0
  -43.5129  -27.9024   -1.0349 H   0  0  0  0  0  0  0  0  0  0  0  0
  -41.8998  -28.4999   -0.5986 H   0  0  0  0  0  0  0  0  0  0  0  0
  -44.3077  -27.8901    2.7489 H   0  0  0  0  0  0  0  0  0  0  0  0
  -45.1552  -27.3671    1.2763 H   0  0  0  0  0  0  0  0  0  0  0  0
  -44.2036  -30.1005   -0.7284 H   0  0  0  0  0  0  0  0  0  0  0  0
  1 15  2  0  0  0  0
  1 22  1  0  0  0  0
  2  3  2  0  0  0  0
  2  9  1  0  0  0  0
  2 18  1  0  0  0  0
  3 16  1  0  0  0  0
  3 23  1  0  0  0  0
  4 10  1  0  0  0  0
  4 16  2  0  0  0  0
  4 18  1  0  0  0  0
  5 14  1  0  0  0  0
  5 17  2  0  0  0  0
  5 22  1  0  0  0  0
  6  7  1  0  0  0  0
  6  8  2  0  0  0  0
  7  9  2  0  0  0  0
  8 18  1  0  0  0  0
  9 21  1  0  0  0  0
 10 19  1  0  0  0  0
 10 20  2  0  0  0  0
 11 12  1  0  0  0  0
 11 13  1  0  0  0  0
 12 14  1  0  0  0  0
 13 19  1  0  0  0  0
 14 19  1  0  0  0  0
 15 17  1  0  0  0  0
  1 24  1  0  0  0  0
  6 25  1  0  0  0  0
  7 26  1  0  0  0  0
  8 27  1  0  0  0  0
 11 28  1  0  0  0  0
 11 29  1  0  0  0  0
 12 30  1  0  0  0  0
 12 31  1  0  0  0  0
 13 32  1  0  0  0  0
 13 33  1  0  0  0  0
 14 34  1  0  0  0  0
M  END
> <POSIT::Probability>
0.23

> <POSIT::Method>
HYBRID

> <ReceptorTitle>
UCSF-P4529-REFINED_LIGAND-BOUND-STATE_A__DU__LA1_A-201(A)

> <OMEGA_C>
tzgkwnlAAsK6ghY/O4s8wtnl6cHpS55AXVg3wvA87MGkCalAvdE3wt1n7sF1l0pACmYqwvc89sEm
0wc/CPVFwj6o5sF7M15Akc9FwusU5cH0SZ1A+npBwnK66cH5XjVAkEZBwqGp5sHcmLNAqiw2wgLY
8MHF7OQ/YQUswuVL3MFcxII/Y7crwv0Z48Gwkni+3kQxws2x38GsG9Q/RWouwp6v7cEwcBU+DOgk
wlgcAMJameM/xW80wuYG78GWdYVARocowpHa98HkL98/ANM8ws1R68Hfp2RAwxkywry26sEu+p0/
d5M4wm8X+ME7XJs/VSxBwgAz5cGvUN5AmOknwsW6/sEMSSq/EVE0wtfj68GpNeBAeIshwsmSBcI0
8dI+xK5JwoFU5cFCbjxA+3ZJwtGZ4sHYHq1AzVVBwisH68EWxOE/36wowhQ73sFfDdg/cOMrwiu6
08Empk0/Nw0uwgU438EseYS/a5knwrL/48HMPxm/ITsxwgAf38HM7S9A7540wurv2sGJXqM/fdAw
wsHN8MH8ejq/

> <OMEGA_E>
cdbbwA==

> <OMEGA_NBR>
     37066

$$$$
CACHE3HI_1715_44
  -OEChem-03092622523D

 57 62  0     1  0  0  0  0  0999 V2000
  -53.1366  -28.8353    5.4717 C   0  0  0  0  0  0  0  0  0  0  0  0
  -43.9530  -29.4835    4.9745 C   0  0  0  0  0  0  0  0  0  0  0  0
  -44.3347  -29.4286    6.3137 C   0  0  0  0  0  0  0  0  0  0  0  0
  -52.3584  -29.5148    6.4090 C   0  0  0  0  0  0  0  0  0  0  0  0
  -52.5358  -28.2635    4.3503 C   0  0  0  0  0  0  0  0  0  0  0  0
  -44.9213  -29.4644    3.9700 C   0  0  0  0  0  0  0  0  0  0  0  0
  -45.6861  -29.3518    6.6529 C   0  0  0  0  0  0  0  0  0  0  0  0
  -42.9301  -29.0815    0.1428 C   0  0  0  0  0  0  0  0  0  0  0  0
  -50.9798  -29.6226    6.2249 C   0  0  0  0  0  0  0  0  0  0  0  0
  -51.1572  -28.3714    4.1662 C   0  0  0  0  0  0  0  0  0  0  0  0
  -41.8225  -29.9115    0.3180 C   0  0  0  0  0  0  0  0  0  0  0  0
  -44.3977  -30.8979    0.7710 C   0  0  0  0  0  0  0  0  0  0  0  0
  -46.2736  -29.3937    4.3163 C   0  0  0  0  0  0  0  0  0  0  0  0
  -46.6600  -29.3325    5.6478 C   0  0  0  0  0  0  0  0  0  0  0  0
  -44.2164  -29.5757    0.3639 C   0  0  0  0  0  0  0  0  0  0  0  0
  -50.3790  -29.0508    5.1034 C   0  0  0  0  0  0  0  0  0  0  0  0
  -42.0037  -31.2371    0.7121 C   0  0  0  0  0  0  0  0  0  0  0  0
  -43.2896  -31.7238    0.9596 C   0  0  0  0  0  0  0  0  0  0  0  0
  -47.3435  -29.3708    3.3277 C   0  0  0  0  0  0  0  0  0  0  0  0
  -48.0960  -29.2435    5.9881 C   0  0  0  0  0  0  0  0  0  0  0  0
  -47.0396  -29.4822    1.8800 C   0  0  0  0  0  0  0  0  0  0  0  0
  -45.0286  -26.4722    1.0804 C   0  0  0  0  0  0  0  0  0  0  0  0
  -45.0207  -27.2466   -0.2353 C   0  0  0  0  0  0  0  0  0  0  0  0
  -46.1558  -27.1186    1.8694 C   0  0  0  0  0  0  0  0  0  0  0  0
  -41.1925  -33.4017    0.9097 C   0  0  0  0  0  0  0  0  0  0  0  0
  -42.3443  -33.6395    1.8667 C   0  0  0  0  0  0  0  0  0  0  0  0
  -45.4191  -28.6723    0.1664 C   0  0  2  0  0  0  0  0  0  0  0  0
  -48.5975  -29.2549    3.6111 N   0  0  0  0  0  0  0  0  0  0  0  0
  -49.0002  -29.1582    4.9190 N   0  0  0  0  0  0  0  0  0  0  0  0
  -46.2273  -28.4893    1.3743 N   0  0  0  0  0  0  0  0  0  0  0  0
  -48.4300  -29.2282    7.1716 O   0  0  0  0  0  0  0  0  0  0  0  0
  -47.5336  -30.4310    1.2892 O   0  0  0  0  0  0  0  0  0  0  0  0
  -40.8786  -32.0085    0.8468 O   0  0  0  0  0  0  0  0  0  0  0  0
  -43.5303  -33.0056    1.3799 O   0  0  0  0  0  0  0  0  0  0  0  0
  -54.2097  -28.7503    5.6158 H   0  0  0  0  0  0  0  0  0  0  0  0
  -42.9004  -29.5396    4.7124 H   0  0  0  0  0  0  0  0  0  0  0  0
  -43.5795  -29.4430    7.0942 H   0  0  0  0  0  0  0  0  0  0  0  0
  -52.8257  -29.9590    7.2830 H   0  0  0  0  0  0  0  0  0  0  0  0
  -53.1411  -27.7339    3.6206 H   0  0  0  0  0  0  0  0  0  0  0  0
  -44.5966  -29.5030    2.9349 H   0  0  0  0  0  0  0  0  0  0  0  0
  -45.9595  -29.3060    7.7036 H   0  0  0  0  0  0  0  0  0  0  0  0
  -42.7818  -28.0515   -0.1707 H   0  0  0  0  0  0  0  0  0  0  0  0
  -50.3840  -30.1537    6.9631 H   0  0  0  0  0  0  0  0  0  0  0  0
  -50.7002  -27.9211    3.2883 H   0  0  0  0  0  0  0  0  0  0  0  0
  -40.8250  -29.5213    0.1353 H   0  0  0  0  0  0  0  0  0  0  0  0
  -45.3993  -31.2806    0.9517 H   0  0  0  0  0  0  0  0  0  0  0  0
  -44.0750  -26.6114    1.6032 H   0  0  0  0  0  0  0  0  0  0  0  0
  -45.1845  -25.4003    0.9296 H   0  0  0  0  0  0  0  0  0  0  0  0
  -45.7871  -26.8277   -0.8996 H   0  0  0  0  0  0  0  0  0  0  0  0
  -44.0540  -27.1788   -0.7446 H   0  0  0  0  0  0  0  0  0  0  0  0
  -45.9813  -27.1033    2.9492 H   0  0  0  0  0  0  0  0  0  0  0  0
  -47.1162  -26.6357    1.6579 H   0  0  0  0  0  0  0  0  0  0  0  0
  -40.2978  -33.9300    1.2537 H   0  0  0  0  0  0  0  0  0  0  0  0
  -41.4283  -33.7542   -0.1022 H   0  0  0  0  0  0  0  0  0  0  0  0
  -42.5508  -34.7107    1.9543 H   0  0  0  0  0  0  0  0  0  0  0  0
  -42.1250  -33.2508    2.8688 H   0  0  0  0  0  0  0  0  0  0  0  0
  -46.0558  -29.1425   -0.6262 H   0  0  0  0  0  0  0  0  0  0  0  0
  1  4  1  0  0  0  0
  1  5  2  0  0  0  0
  2  3  1  0  0  0  0
  2  6  2  0  0  0  0
  3  7  2  0  0  0  0
  4  9  2  0  0  0  0
  5 10  1  0  0  0  0
  6 13  1  0  0  0  0
  7 14  1  0  0  0  0
  8 11  2  0  0  0  0
  8 15  1  0  0  0  0
  9 16  1  0  0  0  0
 10 16  2  0  0  0  0
 11 17  1  0  0  0  0
 12 15  2  0  0  0  0
 12 18  1  0  0  0  0
 13 14  2  0  0  0  0
 13 19  1  0  0  0  0
 14 20  1  0  0  0  0
 15 27  1  0  0  0  0
 16 29  1  0  0  0  0
 17 18  2  0  0  0  0
 17 33  1  0  0  0  0
 18 34  1  0  0  0  0
 19 21  1  0  0  0  0
 19 28  2  0  0  0  0
 20 29  1  0  0  0  0
 20 31  2  0  0  0  0
 21 30  1  0  0  0  0
 21 32  2  0  0  0  0
 22 23  1  0  0  0  0
 22 24  1  0  0  0  0
 23 27  1  0  0  0  0
 24 30  1  0  0  0  0
 25 26  1  0  0  0  0
 25 33  1  0  0  0  0
 26 34  1  0  0  0  0
 27 30  1  0  0  0  0
 28 29  1  0  0  0  0
  1 35  1  0  0  0  0
  2 36  1  0  0  0  0
  3 37  1  0  0  0  0
  4 38  1  0  0  0  0
  5 39  1  0  0  0  0
  6 40  1  0  0  0  0
  7 41  1  0  0  0  0
  8 42  1  0  0  0  0
  9 43  1  0  0  0  0
 10 44  1  0  0  0  0
 11 45  1  0  0  0  0
 12 46  1  0  0  0  0
 22 47  1  0  0  0  0
 22 48  1  0  0  0  0
 23 49  1  0  0  0  0
 23 50  1  0  0  0  0
 24 51  1  0  0  0  0
 24 52  1  0  0  0  0
 25 53  1  0  0  0  0
 25 54  1  0  0  0  0
 26 55  1  0  0  0  0
 26 56  1  0  0  0  0
 27 57  1  0  0  0  0
M  END
> <POSIT::Probability>
0.14

> <POSIT::Method>
HYBRID

> <ReceptorTitle>
UCSF-P4529-REFINED_LIGAND-BOUND-STATE_A__DU__LA1_A-201(A)

> <OMEGA_C>
3YtUwryu5sH9F69A5M8vwine68GCL59AxlYxwtJt68EoCspAAG9Rwjge7ME9Fs1AnSRSwqcb4sG5
NYtAZq8zwiK368HME35Ahr42wn7Q6sG45NRAcrgrwv2m6MFgOBI+WOtLwiD77MEUMsdA9KBMwpD4
4sGRUYVAQEonwtVK78FgzKI+Qpcxwtwu98GIYEU/Mhg5wjwm68EDH4pA2aM6wuSo6sElu7RAnd0w
wh2b7MEQUbo+GIRJwvln6MFkT6NA0wMowoTl+cEATDY/iCgtwlLK/cEAqHU/yF89wn/36sHg+FRA
Q2JAwqXy6cFBnr9AhCg8wnLb68FUpPA/Ph00wifH08EAS4o/KhU0wvP42cFA+3C+f584wu3y2MHI
SO8/GMUkwmCbBcKA4Gg/kGApwuGOBsLI7u4/Ma01wvJg5cHgWSo+0mNCwhQK6sG+HGdAPQBEwhVE
6cEvaJ1Awug4whTq48Go6q8/R7hBwlrT6cG4feVAZiI+wqVy88HEBaU/rYMjwrIIAMLYylg/EB8u
wr4FBMIsorA/tNZYwp4A5sGVtLNADporwihR7MEMzJZAbVEuwkuL68H8A+NAjE1Twver78G8DulA
f5BUwvPe3cFdt2dA6GIywgwG7MHv1DtAhNY3wpxy6sEihPZAnSArwoBp4MFgxS6+LolJwtg68cGf
0d5ABM1Kwnde38E+c1JA1kwjwqYr7MGgkAo+7Zg1wsA++sHwonM/zEwwwijk1MEGNc0/9bw0wtEz
y8EI920/8iU3wjSf1sGwSWa/TTcwwidu2cEAoD6/5Ow3wqTT2MEtwDxA9XY8wuAV1cGANtQ/8DAh
wla4B8LYd6A/l7YlwkEEB8JATdG9EDQqwsrXCsJ0J/o/BYAows0ABcIYmzdAGzk4wuEj6cEwUSC/

> <OMEGA_E>
Y927wA==

> <OMEGA_NBR>
     38711

$$$$
CACHE3HI_1716_24
  -OEChem-03092622523D

 33 35  0     0  0  0  0  0  0999 V2000
  -47.4392  -29.4370    4.7135 C   0  0  0  0  0  0  0  0  0  0  0  0
  -45.6942  -28.7762    1.0374 C   0  0  0  0  0  0  0  0  0  0  0  0
  -49.9631  -29.4364    5.0672 C   0  0  0  0  0  0  0  0  0  0  0  0
  -45.4980  -31.1928    1.4110 C   0  0  0  0  0  0  0  0  0  0  0  0
  -48.7922  -29.3494    4.2904 C   0  0  0  0  0  0  0  0  0  0  0  0
  -44.3169  -28.9119    0.9523 C   0  0  0  0  0  0  0  0  0  0  0  0
  -46.2826  -30.0214    1.2833 C   0  0  0  0  0  0  0  0  0  0  0  0
  -49.2454  -29.1580    3.0078 C   0  0  0  0  0  0  0  0  0  0  0  0
  -43.4230  -27.9035    0.7206 C   0  0  0  0  0  0  0  0  0  0  0  0
  -43.5415  -30.1039    1.0838 C   0  0  0  0  0  0  0  0  0  0  0  0
  -43.5685  -26.4547    0.4991 C   0  0  0  0  0  0  0  0  0  0  0  0
  -51.5421  -28.9698    2.0041 C   0  0  0  0  0  0  0  0  0  0  0  0
  -48.5128  -28.9871    1.7080 C   0  0  0  0  0  0  0  0  0  0  0  0
  -46.3336  -29.5084    5.0592 N   0  0  0  0  0  0  0  0  0  0  0  0
  -44.1345  -31.3075    1.3231 N   0  0  0  0  0  0  0  0  0  0  0  0
  -51.0757  -29.3105    4.3392 N   0  0  0  0  0  0  0  0  0  0  0  0
  -42.2365  -29.8461    0.9412 N   0  0  0  0  0  0  0  0  0  0  0  0
  -42.1988  -28.5147    0.7234 N   0  0  0  0  0  0  0  0  0  0  0  0
  -50.6067  -29.1425    3.0911 N   0  0  0  0  0  0  0  0  0  0  0  0
  -47.6876  -30.1135    1.4075 N   0  0  0  0  0  0  0  0  0  0  0  0
  -46.2483  -27.8542    0.9323 H   0  0  0  0  0  0  0  0  0  0  0  0
  -50.0560  -29.5866    6.1336 H   0  0  0  0  0  0  0  0  0  0  0  0
  -45.9912  -32.1452    1.6026 H   0  0  0  0  0  0  0  0  0  0  0  0
  -43.5314  -25.8821    1.4432 H   0  0  0  0  0  0  0  0  0  0  0  0
  -44.5354  -26.2000    0.0290 H   0  0  0  0  0  0  0  0  0  0  0  0
  -42.7689  -26.0674   -0.1555 H   0  0  0  0  0  0  0  0  0  0  0  0
  -51.8158  -29.9356    1.5663 H   0  0  0  0  0  0  0  0  0  0  0  0
  -51.0990  -28.3414    1.2252 H   0  0  0  0  0  0  0  0  0  0  0  0
  -52.4667  -28.4998    2.3551 H   0  0  0  0  0  0  0  0  0  0  0  0
  -49.2189  -28.8558    0.8814 H   0  0  0  0  0  0  0  0  0  0  0  0
  -47.8718  -28.0997    1.7323 H   0  0  0  0  0  0  0  0  0  0  0  0
  -41.2937  -28.0834    0.5836 H   0  0  0  0  0  0  0  0  0  0  0  0
  -48.0931  -31.0189    1.2745 H   0  0  0  0  0  0  0  0  0  0  0  0
  1  5  1  0  0  0  0
  1 14  3  0  0  0  0
  2  6  1  0  0  0  0
  2  7  2  0  0  0  0
  3  5  1  0  0  0  0
  3 16  2  0  0  0  0
  4  7  1  0  0  0  0
  4 15  2  0  0  0  0
  5  8  2  0  0  0  0
  6  9  2  0  0  0  0
  6 10  1  0  0  0  0
  7 20  1  0  0  0  0
  8 13  1  0  0  0  0
  8 19  1  0  0  0  0
  9 11  1  0  0  0  0
  9 18  1  0  0  0  0
 10 15  1  0  0  0  0
 10 17  2  0  0  0  0
 12 19  1  0  0  0  0
 13 20  1  0  0  0  0
 16 19  1  0  0  0  0
 17 18  1  0  0  0  0
  2 21  1  0  0  0  0
  3 22  1  0  0  0  0
  4 23  1  0  0  0  0
 11 24  1  0  0  0  0
 11 25  1  0  0  0  0
 11 26  1  0  0  0  0
 12 27  1  0  0  0  0
 12 28  1  0  0  0  0
 12 29  1  0  0  0  0
 13 30  1  0  0  0  0
 13 31  1  0  0  0  0
 18 32  1  0  0  0  0
 20 33  1  0  0  0  0
M  END
> <POSIT::Probability>
0.18

> <POSIT::Method>
FRED

> <ReceptorTitle>
UCSF-P4529-REFINED_LIGAND-BOUND-STATE_A__DU__LA1_A-201(A)

> <OMEGA_C>
tME9wud+68HQ1JZA1sY2wrg15sFgyoQ/NdpHwsp968GIJqJA+f01wsqK+cEAm7Q/OytDwo/L6sEo
S4lAfkQxwotL58FQyXM/WiE5wr0r8MGgQ6Q/UftEwq5D6cFEgEBAHrEtwmg638Fgezg/iCouwsTU
8MHQuIo/JkYuwkyj08EAiv8+ICtOwhXC58GwQgBAGA1Cwo/l58Egodo/nlU5wiER7MEC5aFAsYkw
wsx1+sEAXKk/jk1MwtZ76sHI2opAMPIowt7E7sEQ8nA/nMsowg4e5MEALzk/PG1Kwskj6cFg1UVA
IcA+wmDo8MFoKrQ/S/44wmrV3sHQrG4/UzlIwlqx7ME8RsRA9vY3wrOUAMKQI80/JSAuwqMOz8GA
urg/TSQywoSZ0cEAjO08YBMrwgqK0MHAQx++ZENPwix878GwfMg/ZWVMwjy74sFw0pw/491Rwp3/
48FkuRZALOBEwqvY5sHApWE/s3w/whrM4MFovN0/xiwlwtyq4MFgaRU/V19AwrUm+MHQI6M/

> <OMEGA_E>
tKHqwA==

> <OMEGA_NBR>
     39862

$$$$
CACHE3HI_1716_36
  -OEChem-03092622523D

 44 46  0     1  0  0  0  0  0999 V2000
  -48.6765  -29.2303    6.3572 C   0  0  0  0  0  0  0  0  0  0  0  0
  -49.3556  -29.8268    4.0186 C   0  0  0  0  0  0  0  0  0  0  0  0
  -47.1084  -29.7973    4.5273 C   0  0  0  0  0  0  0  0  0  0  0  0
  -47.3600  -29.4168    5.8967 C   0  0  0  0  0  0  0  0  0  0  0  0
  -49.6584  -29.4500    5.3650 C   0  0  0  0  0  0  0  0  0  0  0  0
  -48.0491  -30.0208    3.5305 C   0  0  0  0  0  0  0  0  0  0  0  0
  -45.7545  -29.9012    4.3829 C   0  0  0  0  0  0  0  0  0  0  0  0
  -41.1638  -31.4286    1.3809 C   0  0  0  0  0  0  0  0  0  0  0  0
  -44.9165  -30.2572    3.2097 C   0  0  0  0  0  0  0  0  0  0  0  0
  -40.8989  -32.8942    1.1318 C   0  0  0  0  0  0  0  0  0  0  0  0
  -41.7041  -33.1960   -0.1267 C   0  0  0  0  0  0  0  0  0  0  0  0
  -41.7478  -31.8733   -0.8654 C   0  0  0  0  0  0  0  0  0  0  0  0
  -51.2439  -28.9192    7.0567 C   0  0  0  0  0  0  0  0  0  0  0  0
  -41.9430  -29.4972   -0.0429 C   0  0  0  0  0  0  0  0  0  0  0  0
  -44.3095  -29.6579    0.8799 C   0  0  0  0  0  0  0  0  0  0  0  0
  -42.9698  -28.9242    0.9331 C   0  0  2  0  0  0  0  0  0  0  0  0
  -46.1861  -29.2993    6.5430 N   0  0  0  0  0  0  0  0  0  0  0  0
  -45.2545  -29.5935    5.6149 N   0  0  0  0  0  0  0  0  0  0  0  0
  -41.6558  -30.8956    0.1926 N   0  0  0  0  0  0  0  0  0  0  0  0
  -45.0585  -29.4232    2.1364 N   0  0  0  0  0  0  0  0  0  0  0  0
  -40.9300  -30.8488    2.4307 O   0  0  0  0  0  0  0  0  0  0  0  0
  -44.1936  -31.2484    3.2674 O   0  0  0  0  0  0  0  0  0  0  0  0
  -43.1599  -27.5449    0.6215 O   0  0  0  0  0  0  0  0  0  0  0  0
  -50.9749  -29.2940    5.7105 O   0  0  0  0  0  0  0  0  0  0  0  0
  -47.7846  -30.3725    2.2713 F   0  0  0  0  0  0  0  0  0  0  0  0
  -48.9200  -28.9457    7.3726 H   0  0  0  0  0  0  0  0  0  0  0  0
  -50.1845  -29.9736    3.3257 H   0  0  0  0  0  0  0  0  0  0  0  0
  -39.8265  -33.0328    0.9623 H   0  0  0  0  0  0  0  0  0  0  0  0
  -41.2261  -33.5016    1.9791 H   0  0  0  0  0  0  0  0  0  0  0  0
  -41.2579  -33.9975   -0.7223 H   0  0  0  0  0  0  0  0  0  0  0  0
  -42.7201  -33.5035    0.1499 H   0  0  0  0  0  0  0  0  0  0  0  0
  -40.8852  -31.7468   -1.5276 H   0  0  0  0  0  0  0  0  0  0  0  0
  -42.6751  -31.7458   -1.4311 H   0  0  0  0  0  0  0  0  0  0  0  0
  -52.3235  -28.8284    7.2021 H   0  0  0  0  0  0  0  0  0  0  0  0
  -50.8519  -29.6893    7.7254 H   0  0  0  0  0  0  0  0  0  0  0  0
  -50.7549  -27.9671    7.2753 H   0  0  0  0  0  0  0  0  0  0  0  0
  -42.3116  -29.4266   -1.0714 H   0  0  0  0  0  0  0  0  0  0  0  0
  -40.9954  -28.9538    0.0283 H   0  0  0  0  0  0  0  0  0  0  0  0
  -44.1622  -30.7371    0.7766 H   0  0  0  0  0  0  0  0  0  0  0  0
  -44.9297  -29.3014    0.0514 H   0  0  0  0  0  0  0  0  0  0  0  0
  -42.5475  -28.9727    1.9443 H   0  0  0  0  0  0  0  0  0  0  0  0
  -44.2826  -29.5643    5.8962 H   0  0  0  0  0  0  0  0  0  0  0  0
  -45.7062  -28.6637    2.1101 H   0  0  0  0  0  0  0  0  0  0  0  0
  -42.2954  -27.1188    0.7238 H   0  0  0  0  0  0  0  0  0  0  0  0
  1  4  1  0  0  0  0
  1  5  2  0  0  0  0
  2  5  1  0  0  0  0
  2  6  2  0  0  0  0
  3  4  1  0  0  0  0
  3  6  1  0  0  0  0
  3  7  2  0  0  0  0
  4 17  2  0  0  0  0
  5 24  1  0  0  0  0
  6 25  1  0  0  0  0
  7  9  1  0  0  0  0
  7 18  1  0  0  0  0
  8 10  1  0  0  0  0
  8 19  1  0  0  0  0
  8 21  2  0  0  0  0
  9 20  1  0  0  0  0
  9 22  2  0  0  0  0
 10 11  1  0  0  0  0
 11 12  1  0  0  0  0
 12 19  1  0  0  0  0
 13 24  1  0  0  0  0
 14 16  1  0  0  0  0
 14 19  1  0  0  0  0
 15 16  1  0  0  0  0
 15 20  1  0  0  0  0
 16 23  1  0  0  0  0
 17 18  1  0  0  0  0
  1 26  1  0  0  0  0
  2 27  1  0  0  0  0
 10 28  1  0  0  0  0
 10 29  1  0  0  0  0
 11 30  1  0  0  0  0
 11 31  1  0  0  0  0
 12 32  1  0  0  0  0
 12 33  1  0  0  0  0
 13 34  1  0  0  0  0
 13 35  1  0  0  0  0
 13 36  1  0  0  0  0
 14 37  1  0  0  0  0
 14 38  1  0  0  0  0
 15 39  1  0  0  0  0
 15 40  1  0  0  0  0
 16 41  1  0  0  0  0
 18 42  1  0  0  0  0
 20 43  1  0  0  0  0
 23 44  1  0  0  0  0
M  END
> <POSIT::Probability>
0.18

> <POSIT::Method>
HYBRID

> <ReceptorTitle>
UCSF-P4529-REFINED_LIGAND-BOUND-STATE_A__DU__LA1_A-201(A)

> <OMEGA_C>
t7RCwqnX6cF4bstAJGxFwlid7sGGmIBA9248ws1g7sGD35BAl3A9wplV68GhsbxAPqJGwpyZ68Fb
rqtAPTJAwqAq8MGA9GFAogQ3wpg178FfQIxAuKckwrVt+8GowbA/g6ozwskO8sEcbE1Agpgjwq2T
A8I44JA/CdEmwrzIBMIAtwG+wv0mwo78/sEAi12/wvlMwpBa58FF0OFAq8Unwj7668EAtS+98jwx
wkdD7cEwQWE/HeErwqlk58Ew3m4/kL44wgNl6sFjYNFAoAQ1wnC/7MEArbNAkp8mwkYq98EAO0U+
8zs0wsxi68HcughAWbgjwlTK9sEYkBtANcYwwqX8+cFQHFFAsqMswu1b3MFgGB8/S+ZLwi9a6sF/
vLZAaSM/wuD68sFkXBFAIa5DwraQ58Fm7OtA47xIwvzJ78Hs11RAY04fwpohBMKgWXY/heckwqkB
BsLIVP0/FgglwnT9B8Kg6Di/ZuEqwosDBsJAfRk+b4ojwmj5/cEYh8O/S7Mqwnr3/cE4Lbe/OktR
woqg5sGdd+ZAWGhLwqqD7cGwNvdA/QRLwrO838Elz+hAEj8pwp1p68GgI4m/Sfsjwl2h58EA9uc8
GKYwwqfl9cHgz0Y/Brgzwl5p6sEAiVI9sDAqwhPI58EY3/g/XSExwsSD7MF4rbxAItM2wjxP5cGQ
CwdAfi4pwkDz2MGwSjk/

> <OMEGA_E>
ugPvwA==

> <OMEGA_NBR>
     41240

$$$$
CACHE3HI_1717_37
  -OEChem-03092622523D

 48 51  0     0  0  0  0  0  0999 V2000
  -41.9002  -32.3677   -0.6774 C   0  0  0  0  0  0  0  0  0  0  0  0
  -40.9297  -32.8917    0.2337 C   0  0  0  0  0  0  0  0  0  0  0  0
  -42.6087  -31.1688   -0.4690 C   0  0  0  0  0  0  0  0  0  0  0  0
  -48.9956  -28.9168    6.0253 C   0  0  0  0  0  0  0  0  0  0  0  0
  -40.5738  -32.2616    1.4476 C   0  0  0  0  0  0  0  0  0  0  0  0
  -48.5119  -28.8150    4.7258 C   0  0  0  0  0  0  0  0  0  0  0  0
  -51.0477  -29.7332    5.1421 C   0  0  0  0  0  0  0  0  0  0  0  0
  -42.2378  -30.5748    0.7302 C   0  0  0  0  0  0  0  0  0  0  0  0
  -50.2865  -29.3837    6.2464 C   0  0  0  0  0  0  0  0  0  0  0  0
  -41.2676  -31.0601    1.6822 C   0  0  0  0  0  0  0  0  0  0  0  0
  -42.7358  -29.4045    1.2271 C   0  0  0  0  0  0  0  0  0  0  0  0
  -49.3520  -29.1899    3.6896 C   0  0  0  0  0  0  0  0  0  0  0  0
  -43.7141  -28.5028    0.7094 C   0  0  0  0  0  0  0  0  0  0  0  0
  -47.5931  -28.6368    1.9743 C   0  0  0  0  0  0  0  0  0  0  0  0
  -51.9211  -28.6547    9.3683 C   0  0  0  0  0  0  0  0  0  0  0  0
  -50.5250  -28.4147    8.7630 C   0  0  0  0  0  0  0  0  0  0  0  0
  -52.3571  -29.1404    7.9728 C   0  0  0  0  0  0  0  0  0  0  0  0
  -50.8669  -29.5160    7.7143 C   0  0  0  0  0  0  0  0  0  0  0  0
  -47.4611  -28.6914    0.4560 C   0  0  0  0  0  0  0  0  0  0  0  0
  -46.1070  -28.2190   -0.0564 C   0  0  0  0  0  0  0  0  0  0  0  0
  -50.6117  -29.6478    3.8652 N   0  0  0  0  0  0  0  0  0  0  0  0
  -41.1949  -30.1993    2.7134 N   0  0  0  0  0  0  0  0  0  0  0  0
  -42.0795  -29.2289    2.4108 N   0  0  0  0  0  0  0  0  0  0  0  0
  -48.8514  -29.0812    2.3706 N   0  0  0  0  0  0  0  0  0  0  0  0
  -45.0161  -28.9989    0.4823 N   0  0  0  0  0  0  0  0  0  0  0  0
  -43.4304  -27.3076    0.4420 O   0  0  0  0  0  0  0  0  0  0  0  0
  -46.6774  -28.2541    2.6956 O   0  0  0  0  0  0  0  0  0  0  0  0
  -42.1003  -32.9334   -1.5870 H   0  0  0  0  0  0  0  0  0  0  0  0
  -40.4384  -33.8288   -0.0258 H   0  0  0  0  0  0  0  0  0  0  0  0
  -43.3385  -30.7889   -1.1703 H   0  0  0  0  0  0  0  0  0  0  0  0
  -48.3613  -28.6318    6.8599 H   0  0  0  0  0  0  0  0  0  0  0  0
  -39.8363  -32.6737    2.1235 H   0  0  0  0  0  0  0  0  0  0  0  0
  -47.5055  -28.4517    4.5445 H   0  0  0  0  0  0  0  0  0  0  0  0
  -52.0614  -30.1052    5.2536 H   0  0  0  0  0  0  0  0  0  0  0  0
  -51.9422  -29.4369   10.1358 H   0  0  0  0  0  0  0  0  0  0  0  0
  -52.4356  -27.7682    9.7468 H   0  0  0  0  0  0  0  0  0  0  0  0
  -50.3917  -27.4092    8.3452 H   0  0  0  0  0  0  0  0  0  0  0  0
  -49.6812  -28.6379    9.4222 H   0  0  0  0  0  0  0  0  0  0  0  0
  -53.0619  -29.9767    7.9642 H   0  0  0  0  0  0  0  0  0  0  0  0
  -52.7469  -28.3420    7.3292 H   0  0  0  0  0  0  0  0  0  0  0  0
  -50.6356  -30.5222    8.1015 H   0  0  0  0  0  0  0  0  0  0  0  0
  -47.6129  -29.7337    0.1520 H   0  0  0  0  0  0  0  0  0  0  0  0
  -48.2644  -28.0904    0.0127 H   0  0  0  0  0  0  0  0  0  0  0  0
  -45.9330  -27.1811    0.2428 H   0  0  0  0  0  0  0  0  0  0  0  0
  -46.0485  -28.2767   -1.1478 H   0  0  0  0  0  0  0  0  0  0  0  0
  -42.1858  -28.4658    3.0674 H   0  0  0  0  0  0  0  0  0  0  0  0
  -49.4966  -29.3655    1.6355 H   0  0  0  0  0  0  0  0  0  0  0  0
  -45.1915  -29.9840    0.6500 H   0  0  0  0  0  0  0  0  0  0  0  0
  1  2  1  0  0  0  0
  1  3  2  0  0  0  0
  2  5  2  0  0  0  0
  3  8  1  0  0  0  0
  4  6  2  0  0  0  0
  4  9  1  0  0  0  0
  5 10  1  0  0  0  0
  6 12  1  0  0  0  0
  7  9  2  0  0  0  0
  7 21  1  0  0  0  0
  8 10  1  0  0  0  0
  8 11  2  0  0  0  0
  9 18  1  0  0  0  0
 10 22  2  0  0  0  0
 11 13  1  0  0  0  0
 11 23  1  0  0  0  0
 12 21  2  0  0  0  0
 12 24  1  0  0  0  0
 13 25  1  0  0  0  0
 13 26  2  0  0  0  0
 14 19  1  0  0  0  0
 14 24  1  0  0  0  0
 14 27  2  0  0  0  0
 15 16  1  0  0  0  0
 15 17  1  0  0  0  0
 16 18  1  0  0  0  0
 17 18  1  0  0  0  0
 19 20  1  0  0  0  0
 20 25  1  0  0  0  0
 22 23  1  0  0  0  0
  1 28  1  0  0  0  0
  2 29  1  0  0  0  0
  3 30  1  0  0  0  0
  4 31  1  0  0  0  0
  5 32  1  0  0  0  0
  6 33  1  0  0  0  0
  7 34  1  0  0  0  0
 15 35  1  0  0  0  0
 15 36  1  0  0  0  0
 16 37  1  0  0  0  0
 16 38  1  0  0  0  0
 17 39  1  0  0  0  0
 17 40  1  0  0  0  0
 18 41  1  0  0  0  0
 19 42  1  0  0  0  0
 19 43  1  0  0  0  0
 20 44  1  0  0  0  0
 20 45  1  0  0  0  0
 23 46  1  0  0  0  0
 24 47  1  0  0  0  0
 25 48  1  0  0  0  0
M  END
> <POSIT::Probability>
0.18

> <POSIT::Method>
HYBRID

> <ReceptorTitle>
UCSF-P4529-REFINED_LIGAND-BOUND-STATE_A__DU__LA1_A-201(A)

> <OMEGA_C>
w5knwoN4AcJabC2/Cbgjwg+RA8JYWm8+UW8qwpxZ+cGwI/C+hftDwrNV58Efz8BAhksiwuwLAcKN
Sbk/MAxCwjeF5sFeOZdA3jBMwoPd7cFTjKRAhvMowjSZ9MFm6zo/ZCVJwsgR68Gp4sdAAhIlwiB7
+MFRU9c/bPEqwnI868F+Ep0/bmhFwtaE6cEBI2xAMdsuwtIF5MHanTU/VF8+wiYY5cGgtvw/Oq9P
wuU85cGL5BVBlBlKwldR48FUNQxBs21Rwn8f6cERIf9ArndLwrYg7MEm2/ZAMNg9wvaH5cHMfOk+
kG04wnbA4cFA+ma9YHJKwrIu7cEMYHdAoMckwjiY8cHSpy1AclEowsLU6cFUShpA1GdDwmam6MF4
uBdAeRA0wsj958Hs9fY+u7gtwvx12sGgU+I+rrU6wlII4sEzhCxAwmYowtm7A8JqIsu/4sAhwr1Q
B8KAXtO8nFotwsJP9sEQzJW/AHJBwvEN5cFShNtAXFgfwuWxAsK25gdArAU+wgud48GWbJFA4T5Q
wl/X8MFZHahAzMRPwrJ+68E0LCJBGL5Rwlol3sHo8htBEJFJwvZF28HRhQVBmLlGwmga5cFkwRZB
Zz9UwlDQ78HS2v5A3vxSwna84sELiepAzopKwm4t9MHMnwFBnnM+wrPe7cEQrBs+xA5Bwju54MGA
RVA8aLs3wuVy2cGIlHg+rTE4wrg24sEu65K/RL4owv6548G0T0RAgPxFwoLs6sGWVtE/IcQ0wjTf
78EKaSY/

> <OMEGA_E>
5SW/wA==

> <OMEGA_NBR>
     42698

$$$$
CACHE3HI_1717_87
  -OEChem-03092622523D

 51 55  0     1  0  0  0  0  0999 V2000
  -53.1551  -31.7026    4.1196 C   0  0  0  0  0  0  0  0  0  0  0  0
  -53.7007  -31.0753    5.2521 C   0  0  0  0  0  0  0  0  0  0  0  0
  -51.8159  -31.5125    3.7675 C   0  0  0  0  0  0  0  0  0  0  0  0
  -52.9193  -30.2436    6.0557 C   0  0  0  0  0  0  0  0  0  0  0  0
  -48.0653  -28.9108    5.6844 C   0  0  0  0  0  0  0  0  0  0  0  0
  -47.0917  -29.2584    4.7459 C   0  0  0  0  0  0  0  0  0  0  0  0
  -48.6817  -30.6517    3.5278 C   0  0  0  0  0  0  0  0  0  0  0  0
  -51.0393  -30.6880    4.5649 C   0  0  0  0  0  0  0  0  0  0  0  0
  -49.6478  -30.3057    4.4585 C   0  0  0  0  0  0  0  0  0  0  0  0
  -51.5945  -30.0595    5.7022 C   0  0  0  0  0  0  0  0  0  0  0  0
  -49.3346  -29.4388    5.5294 C   0  0  0  0  0  0  0  0  0  0  0  0
  -47.3968  -30.1204    3.6783 C   0  0  0  0  0  0  0  0  0  0  0  0
  -41.8362  -31.3131    2.3168 C   0  0  0  0  0  0  0  0  0  0  0  0
  -44.6202  -32.4884    1.2242 C   0  0  0  0  0  0  0  0  0  0  0  0
  -50.5508  -29.2155    6.4041 C   0  0  0  0  0  0  0  0  0  0  0  0
  -41.6716  -31.7817   -0.9281 C   0  0  0  0  0  0  0  0  0  0  0  0
  -41.0637  -32.5480    0.2421 C   0  0  0  0  0  0  0  0  0  0  0  0
  -43.1600  -32.0623   -0.8045 C   0  0  0  0  0  0  0  0  0  0  0  0
  -42.1220  -32.4446    1.3471 C   0  0  2  0  0  0  0  0  0  0  0  0
  -46.3328  -30.4733    2.6920 C   0  0  0  0  0  0  0  0  0  0  0  0
  -45.7810  -31.7839    0.5714 C   0  0  0  0  0  0  0  0  0  0  0  0
  -46.8490  -31.4236    1.5989 C   0  0  0  0  0  0  0  0  0  0  0  0
  -41.1701  -30.1785    1.9588 N   0  0  0  0  0  0  0  0  0  0  0  0
  -42.2159  -31.3419    3.5967 N   0  0  0  0  0  0  0  0  0  0  0  0
  -41.1103  -29.4296    3.0535 N   0  0  0  0  0  0  0  0  0  0  0  0
  -41.7376  -30.1534    3.9916 N   0  0  0  0  0  0  0  0  0  0  0  0
  -43.3869  -32.2969    0.6188 N   0  0  0  0  0  0  0  0  0  0  0  0
  -44.7955  -33.1735    2.2332 O   0  0  0  0  0  0  0  0  0  0  0  0
  -53.7845  -32.3454    3.5093 H   0  0  0  0  0  0  0  0  0  0  0  0
  -54.7450  -31.2399    5.5038 H   0  0  0  0  0  0  0  0  0  0  0  0
  -51.4088  -32.0046    2.8906 H   0  0  0  0  0  0  0  0  0  0  0  0
  -53.3423  -29.7602    6.9292 H   0  0  0  0  0  0  0  0  0  0  0  0
  -47.8282  -28.2465    6.5079 H   0  0  0  0  0  0  0  0  0  0  0  0
  -46.0875  -28.8539    4.8486 H   0  0  0  0  0  0  0  0  0  0  0  0
  -48.9116  -31.3168    2.7011 H   0  0  0  0  0  0  0  0  0  0  0  0
  -50.8403  -28.1607    6.4023 H   0  0  0  0  0  0  0  0  0  0  0  0
  -50.3715  -29.5839    7.4182 H   0  0  0  0  0  0  0  0  0  0  0  0
  -41.4797  -30.7082   -0.8151 H   0  0  0  0  0  0  0  0  0  0  0  0
  -41.2642  -32.1037   -1.8907 H   0  0  0  0  0  0  0  0  0  0  0  0
  -40.9356  -33.5991   -0.0452 H   0  0  0  0  0  0  0  0  0  0  0  0
  -40.0849  -32.1491    0.5269 H   0  0  0  0  0  0  0  0  0  0  0  0
  -43.7762  -31.2353   -1.1679 H   0  0  0  0  0  0  0  0  0  0  0  0
  -43.4373  -32.9752   -1.3429 H   0  0  0  0  0  0  0  0  0  0  0  0
  -42.1474  -33.3975    1.9419 H   0  0  0  0  0  0  0  0  0  0  0  0
  -45.4779  -30.9382    3.2092 H   0  0  0  0  0  0  0  0  0  0  0  0
  -45.9312  -29.5558    2.2331 H   0  0  0  0  0  0  0  0  0  0  0  0
  -46.1881  -32.4248   -0.2170 H   0  0  0  0  0  0  0  0  0  0  0  0
  -45.3927  -30.8699    0.1104 H   0  0  0  0  0  0  0  0  0  0  0  0
  -47.2058  -32.3488    2.0687 H   0  0  0  0  0  0  0  0  0  0  0  0
  -47.7143  -30.9720    1.0962 H   0  0  0  0  0  0  0  0  0  0  0  0
  -41.8444  -29.8201    4.9437 H   0  0  0  0  0  0  0  0  0  0  0  0
  1  2  1  0  0  0  0
  1  3  2  0  0  0  0
  2  4  2  0  0  0  0
  3  8  1  0  0  0  0
  4 10  1  0  0  0  0
  5  6  1  0  0  0  0
  5 11  2  0  0  0  0
  6 12  2  0  0  0  0
  7  9  2  0  0  0  0
  7 12  1  0  0  0  0
  8  9  1  0  0  0  0
  8 10  2  0  0  0  0
  9 11  1  0  0  0  0
 10 15  1  0  0  0  0
 11 15  1  0  0  0  0
 12 20  1  0  0  0  0
 13 19  1  0  0  0  0
 13 23  1  0  0  0  0
 13 24  2  0  0  0  0
 14 21  1  0  0  0  0
 14 27  1  0  0  0  0
 14 28  2  0  0  0  0
 16 17  1  0  0  0  0
 16 18  1  0  0  0  0
 17 19  1  0  0  0  0
 18 27  1  0  0  0  0
 19 27  1  0  0  0  0
 20 22  1  0  0  0  0
 21 22  1  0  0  0  0
 23 25  2  0  0  0  0
 24 26  1  0  0  0  0
 25 26  1  0  0  0  0
  1 29  1  0  0  0  0
  2 30  1  0  0  0  0
  3 31  1  0  0  0  0
  4 32  1  0  0  0  0
  5 33  1  0  0  0  0
  6 34  1  0  0  0  0
  7 35  1  0  0  0  0
 15 36  1  0  0  0  0
 15 37  1  0  0  0  0
 16 38  1  0  0  0  0
 16 39  1  0  0  0  0
 17 40  1  0  0  0  0
 17 41  1  0  0  0  0
 18 42  1  0  0  0  0
 18 43  1  0  0  0  0
 19 44  1  0  0  0  0
 20 45  1  0  0  0  0
 20 46  1  0  0  0  0
 21 47  1  0  0  0  0
 21 48  1  0  0  0  0
 22 49  1  0  0  0  0
 22 50  1  0  0  0  0
 26 51  1  0  0  0  0
M  END
> <POSIT::Probability>
0.24

> <POSIT::Method>
FRED

> <ReceptorTitle>
UCSF-P4529-REFINED_LIGAND-BOUND-STATE_A__DU__LA1_A-201(A)

> <OMEGA_C>
2J5Uwuae/cFi04NAfM1WwiGa+MGaEahAcUNPwqIZ/MGBHnFAXq1Twuby8cEwyMFA1EJAwmJJ58Hv
5rVA7F08wj0R6sF+3pdAHLpCwrg29cEmx2FARihMwh+B9cGWE5JAWJdGwh1y8sE6rI5AymBOwt55
8ME1eLZAp1ZFwryC68G88LBASpY9wpj28MFQaWtAQFgnwj6B+sGlRRRAH3sywin0AcJas5w/BjRK
wlK56cEj7sxAva8mwuRA/sEomW2/OEEkwigxAsKg8nc+zaMswtI/AMJ09k2/+HwowkjHAcLybqw/
1lQ5wlfJ88E/SSxAwh83woRF/sE2RxI/amU7wp1j+8HqqMw/M64kwpZt8cFhuvo/Ct0owi68+sFN
MGZA53AkwuRv68FLbUNAU/MmwhI68cG7dX9ALIwtwgMwAcI0bB4/mS4zwq2xBMI67Q5ASyNXwrZh
AcK/mGBA2/pawkvr+cF5H7BAn6JNwq0EAMLO/zhAkF5VwuoU7sEavN1AGlA/wtv44cHwQNBApVk4
wsnU5sHUJ5tAe6VDwsOI+sFh3ixAeFxLwgVJ4cFC38xAanxJwtSr7MHeYe1APuslwk2q9cGMp1C/
fw4lwjhqAMIAAfK/Br4jwoFlBsIAKjm95FYgwrWYAMII4wY/3Rovwvjh+cFIfZW/0b8twprmA8Lq
4qu/5ZYowhWXBcKxjvg/Vuk1wluB98HFYk1Akbk3wlNy7MGX6g5AocA4wgCzAcIAL16+HJI1wqD1
9sHgC+I9vdI8wjZlAcLcZQRAfts+wpDG98FTUYw/rmAnwoeP7sGqMp5A

> <OMEGA_E>
vtQ3wQ==

> <OMEGA_NBR>
     44218

$$$$
CACHE3-HO_1690_1
  -OEChem-03092622513D

 40 43  0     1  0  0  0  0  0999 V2000
  -46.5680  -34.4975    0.9070 C   0  0  0  0  0  0  0  0  0  0  0  0
  -47.9314  -34.1472    0.9685 C   0  0  0  0  0  0  0  0  0  0  0  0
  -47.3454  -31.8149    0.6032 C   0  0  0  0  0  0  0  0  0  0  0  0
  -43.7676  -29.7450    6.3948 C   0  0  0  0  0  0  0  0  0  0  0  0
  -45.8895  -29.4667    4.7181 C   0  0  0  0  0  0  0  0  0  0  0  0
  -47.2058  -29.2004    4.1173 C   0  0  0  0  0  0  0  0  0  0  0  0
  -45.5854  -33.5001    0.7524 C   0  0  0  0  0  0  0  0  0  0  0  0
  -45.9830  -32.1484    0.5826 C   0  0  0  0  0  0  0  0  0  0  0  0
  -48.3165  -32.7984    0.8508 C   0  0  0  0  0  0  0  0  0  0  0  0
  -48.0643  -28.8915    5.1482 C   0  0  0  0  0  0  0  0  0  0  0  0
  -46.0141  -29.2117    6.0846 C   0  0  0  0  0  0  0  0  0  0  0  0
  -44.6489  -29.9299    4.2316 C   0  0  0  0  0  0  0  0  0  0  0  0
  -43.7350  -31.2823    2.3680 C   0  0  0  0  0  0  0  0  0  0  0  0
  -43.3144  -32.8479    0.3457 C   0  0  0  0  0  0  0  0  0  0  0  0
  -43.7284  -31.4398    0.8359 C   0  0  1  0  0  0  0  0  0  0  0  0
  -47.6093  -29.2973    2.6728 C   0  0  0  0  0  0  0  0  0  0  0  0
  -49.5540  -28.6334    5.0599 C   0  0  0  0  0  0  0  0  0  0  0  0
  -44.9563  -29.3435    6.9089 N   0  0  0  0  0  0  0  0  0  0  0  0
  -43.6057  -30.0587    5.0858 N   0  0  0  0  0  0  0  0  0  0  0  0
  -47.3354  -28.8807    6.3316 N   0  0  0  0  0  0  0  0  0  0  0  0
  -44.4981  -30.2354    2.8852 N   0  0  0  0  0  0  0  0  0  0  0  0
  -43.1958  -32.1155    3.0909 O   0  0  0  0  0  0  0  0  0  0  0  0
  -44.2514  -33.8671    0.7752 O   0  0  0  0  0  0  0  0  0  0  0  0
  -45.0600  -31.1453    0.3649 O   0  0  0  0  0  0  0  0  0  0  0  0
  -50.1530  -32.2987    0.9865 Br  0  0  0  0  0  0  0  0  0  0  0  0
  -46.2752  -35.5346    0.9787 H   0  0  0  0  0  0  0  0  0  0  0  0
  -48.6804  -34.9131    1.1058 H   0  0  0  0  0  0  0  0  0  0  0  0
  -47.6497  -30.7938    0.4271 H   0  0  0  0  0  0  0  0  0  0  0  0
  -42.9157  -29.8180    7.0546 H   0  0  0  0  0  0  0  0  0  0  0  0
  -43.2726  -32.8438   -0.7535 H   0  0  0  0  0  0  0  0  0  0  0  0
  -42.3195  -33.0867    0.7496 H   0  0  0  0  0  0  0  0  0  0  0  0
  -43.0204  -30.7093    0.4175 H   0  0  0  0  0  0  0  0  0  0  0  0
  -47.9438  -30.3219    2.4530 H   0  0  0  0  0  0  0  0  0  0  0  0
  -48.4304  -28.5930    2.4735 H   0  0  0  0  0  0  0  0  0  0  0  0
  -46.7490  -29.0478    2.0344 H   0  0  0  0  0  0  0  0  0  0  0  0
  -50.0985  -29.5825    5.1734 H   0  0  0  0  0  0  0  0  0  0  0  0
  -49.8540  -27.9408    5.8601 H   0  0  0  0  0  0  0  0  0  0  0  0
  -49.7917  -28.1891    4.0821 H   0  0  0  0  0  0  0  0  0  0  0  0
  -47.7117  -28.6647    7.2326 H   0  0  0  0  0  0  0  0  0  0  0  0
  -44.9788  -29.6538    2.2289 H   0  0  0  0  0  0  0  0  0  0  0  0
  1  2  2  0  0  0  0
  1  7  1  0  0  0  0
  2  9  1  0  0  0  0
  3  8  1  0  0  0  0
  3  9  2  0  0  0  0
  4 18  1  0  0  0  0
  4 19  2  0  0  0  0
  5  6  1  0  0  0  0
  5 11  1  0  0  0  0
  5 12  2  0  0  0  0
  6 10  2  0  0  0  0
  6 16  1  0  0  0  0
  7  8  2  0  0  0  0
  7 23  1  0  0  0  0
  8 24  1  0  0  0  0
  9 25  1  0  0  0  0
 10 17  1  0  0  0  0
 10 20  1  0  0  0  0
 11 18  2  0  0  0  0
 11 20  1  0  0  0  0
 12 19  1  0  0  0  0
 12 21  1  0  0  0  0
 13 15  1  0  0  0  0
 13 21  1  0  0  0  0
 13 22  2  0  0  0  0
 14 15  1  0  0  0  0
 14 23  1  0  0  0  0
 15 24  1  0  0  0  0
  1 26  1  0  0  0  0
  2 27  1  0  0  0  0
  3 28  1  0  0  0  0
  4 29  1  0  0  0  0
 14 30  1  0  0  0  0
 14 31  1  0  0  0  0
 15 32  1  0  0  0  0
 16 33  1  0  0  0  0
 16 34  1  0  0  0  0
 16 35  1  0  0  0  0
 17 36  1  0  0  0  0
 17 37  1  0  0  0  0
 17 38  1  0  0  0  0
 20 39  1  0  0  0  0
 21 40  1  0  0  0  0
M  END
> <POSIT::Probability>
0.79

> <POSIT::Method>
SHAPEFIT

> <ReceptorTitle>
UCSF-P4533-REFINED_LIGAND-BOUND-STATE_AALTB__DU__LA1_A-201(A)

> <OMEGA_C>
n0U6wnr9CcI+Mmg/vrk/wsGWCMKe7nc/qGE9wgKF/sFaaBo/BxIvwtf17cFeosxA1I43wry768Fo
+pZAu9I8wmia6cHmwINAb1c2wiMABsLGm0A/k+43wuyXAMIsJhU/HkRBwpgxA8L20Fk/00FAwtkh
58EEvqRAZw44wnmx6cHGtMJAdZgywlZw78GFaYdAmvAuwihC+sGSjBdA8UEtwkBkA8LUBLE+3uku
ws6E+8Ey/VU/7W8+wvdg6sGMDytATTdGwjYR5cHu6qFAStMzwnO/6sFUFd1ANmwuwit48MGDvqJA
eFc9wqQL58E7nMpAEP4xwgXi8cFepjhAisgswkl2AMKs0EVAegExwuR3B8KWdUY/dj00wpsp+cEw
2ro+tJxIwuQxAcKKinw/2Bk5wnUjDsIxjno/wLhCwvimC8LEiY0/V5k+wrBZ9sFkqto+oqkrwjKL
7sEIv+FALhctwgBgA8K24kC/Ikcpws1YBMLE4z8/6RQswpSs9cHdxNU+gMY/wk2T8sEQ/hxAs7hB
wmu+5MGbTh5A/P46ws9h6MFlMwJA02RIwtyo7MGGjKVAiGpHwrOG38HFhbtAuCpHwkuD4cHKoIJA
v9g+wk1R5cEqcedASuozwvM67cHYpQ5A

> <OMEGA_E>
xMwxPw==

> <OMEGA_NBR>
      1335

$$$$
CACHE3-HO_1696_16
  -OEChem-03092622513D

 42 44  0     1  0  0  0  0  0999 V2000
  -48.4603  -34.8312    1.0389 C   0  0  0  0  0  0  0  0  0  0  0  0
  -48.0431  -34.6204   -0.2753 C   0  0  0  0  0  0  0  0  0  0  0  0
  -47.7875  -34.2110    2.0916 C   0  0  0  0  0  0  0  0  0  0  0  0
  -46.9535  -33.7894   -0.5368 C   0  0  0  0  0  0  0  0  0  0  0  0
  -46.6980  -33.3800    1.8301 C   0  0  0  0  0  0  0  0  0  0  0  0
  -47.6489  -29.0329    4.0434 C   0  0  0  0  0  0  0  0  0  0  0  0
  -43.9260  -29.3498    5.5873 C   0  0  0  0  0  0  0  0  0  0  0  0
  -46.2638  -29.1421    4.3286 C   0  0  0  0  0  0  0  0  0  0  0  0
  -46.2807  -33.1692    0.5159 C   0  0  0  0  0  0  0  0  0  0  0  0
  -46.1374  -29.1920    5.7113 C   0  0  0  0  0  0  0  0  0  0  0  0
  -45.0827  -29.2071    3.5904 C   0  0  0  0  0  0  0  0  0  0  0  0
  -48.3204  -29.0191    5.2475 C   0  0  0  0  0  0  0  0  0  0  0  0
  -44.3935  -31.6373    1.1742 C   0  0  0  0  0  0  0  0  0  0  0  0
  -46.2728  -29.6977    1.4688 C   0  0  0  0  0  0  0  0  0  0  0  0
  -43.3032  -30.8433    0.4653 C   0  0  0  0  0  0  0  0  0  0  0  0
  -42.8879  -29.5672    1.1998 C   0  0  0  0  0  0  0  0  0  0  0  0
  -44.0348  -28.5854    1.4284 C   0  0  0  0  0  0  0  0  0  0  0  0
  -44.9936  -29.2963    6.4099 N   0  0  0  0  0  0  0  0  0  0  0  0
  -43.8986  -29.3122    4.2361 N   0  0  0  0  0  0  0  0  0  0  0  0
  -47.3931  -29.1165    6.2531 N   0  0  0  0  0  0  0  0  0  0  0  0
  -45.1762  -32.3270    0.2514 N   0  0  0  0  0  0  0  0  0  0  0  0
  -45.1101  -29.1640    2.1865 N   0  0  3  0  0  0  0  0  0  0  0  0
  -44.5022  -31.6484    2.3963 O   0  0  0  0  0  0  0  0  0  0  0  0
  -49.9608  -28.9106    5.6510 Cl  0  0  0  0  0  0  0  0  0  0  0  0
  -49.3078  -35.4792    1.2425 H   0  0  0  0  0  0  0  0  0  0  0  0
  -48.5658  -35.1043   -1.0952 H   0  0  0  0  0  0  0  0  0  0  0  0
  -48.1116  -34.3753    3.1151 H   0  0  0  0  0  0  0  0  0  0  0  0
  -46.6372  -33.6339   -1.5654 H   0  0  0  0  0  0  0  0  0  0  0  0
  -46.1813  -32.9024    2.6591 H   0  0  0  0  0  0  0  0  0  0  0  0
  -48.1095  -28.9702    3.0666 H   0  0  0  0  0  0  0  0  0  0  0  0
  -42.9604  -29.4346    6.0737 H   0  0  0  0  0  0  0  0  0  0  0  0
  -46.1404  -29.5902    0.3884 H   0  0  0  0  0  0  0  0  0  0  0  0
  -46.4071  -30.7576    1.7022 H   0  0  0  0  0  0  0  0  0  0  0  0
  -47.1787  -29.1622    1.7665 H   0  0  0  0  0  0  0  0  0  0  0  0
  -43.6271  -30.6115   -0.5559 H   0  0  0  0  0  0  0  0  0  0  0  0
  -42.4296  -31.5033    0.3882 H   0  0  0  0  0  0  0  0  0  0  0  0
  -42.1045  -29.0702    0.6146 H   0  0  0  0  0  0  0  0  0  0  0  0
  -42.4446  -29.8255    2.1694 H   0  0  0  0  0  0  0  0  0  0  0  0
  -43.7035  -27.6857    1.9551 H   0  0  0  0  0  0  0  0  0  0  0  0
  -44.4557  -28.2763    0.4664 H   0  0  0  0  0  0  0  0  0  0  0  0
  -47.6038  -29.1304    7.2412 H   0  0  0  0  0  0  0  0  0  0  0  0
  -44.9340  -32.2239   -0.7318 H   0  0  0  0  0  0  0  0  0  0  0  0
  1  2  1  0  0  0  0
  1  3  2  0  0  0  0
  2  4  2  0  0  0  0
  3  5  1  0  0  0  0
  4  9  1  0  0  0  0
  5  9  2  0  0  0  0
  6  8  1  0  0  0  0
  6 12  2  0  0  0  0
  7 18  2  0  0  0  0
  7 19  1  0  0  0  0
  8 10  2  0  0  0  0
  8 11  1  0  0  0  0
  9 21  1  0  0  0  0
 10 18  1  0  0  0  0
 10 20  1  0  0  0  0
 11 19  2  0  0  0  0
 11 22  1  0  0  0  0
 12 20  1  0  0  0  0
 12 24  1  0  0  0  0
 13 15  1  0  0  0  0
 13 21  1  0  0  0  0
 13 23  2  0  0  0  0
 14 22  1  0  0  0  0
 15 16  1  0  0  0  0
 16 17  1  0  0  0  0
 17 22  1  0  0  0  0
  1 25  1  0  0  0  0
  2 26  1  0  0  0  0
  3 27  1  0  0  0  0
  4 28  1  0  0  0  0
  5 29  1  0  0  0  0
  6 30  1  0  0  0  0
  7 31  1  0  0  0  0
 14 32  1  0  0  0  0
 14 33  1  0  0  0  0
 14 34  1  0  0  0  0
 15 35  1  0  0  0  0
 15 36  1  0  0  0  0
 16 37  1  0  0  0  0
 16 38  1  0  0  0  0
 17 39  1  0  0  0  0
 17 40  1  0  0  0  0
 20 41  1  0  0  0  0
 21 42  1  0  0  0  0
M  END
> <POSIT::Probability>
0.42

> <POSIT::Method>
HYBRID

> <ReceptorTitle>
UCSF-P4533-REFINED_LIGAND-BOUND-STATE_AALTB__DU__LA1_A-201(A)

> <OMEGA_C>
XtdBwh1TC8Kw+4Q/FixAwj57CsKg8Yy+ciY/wgnYCMJI3QVAadA7wlUoB8LAbAm/w8o6wh+FBcKY
QOo/hJg+wmhD6MFGY4FAQ7QvwlXM6sEry7JAIg45whoj6cHGg4pAeh85wj2tBMLAFAQ/tow4wjmJ
6cHvwrZAslQ0wjuo6cHcyWVAFUhBwh0n6MEx66dA9pIxwjYZ/cGoTJY/Yxc5wsqU7cF8Arw/czYt
wiK/9sGANu4+PY0rwpaJ7MFQkpk/qiMwwtqu5MFI1rY/avkzwrxe6sHNHc1AIpgvwnx/6sFCjodA
kZI9woHu6ME5GchAc7Q0ws5OAcIAs4A+vXA0wspP6cE08AtAOQIywt4v/cHMXBlA2NdHwt1I58G6
1LRAKDtFwqnqDcIgCp8/aUNCwsFqDMLwL4y/UnJAwkeACcKgXUdAhow6whyJBsKAXci/sLk4wgic
A8JELipAJnBAwgrD58HuQkRAcNcrwil668EPXMJA0o84wqq47MHA2sY+2aA5wp8P9sFo4dk/9bY8
wklM6cFgG+I/MYIuwnTk9MGQTw6/4rcpwtYG/MHgu8Y+A2sowriP6MFAVR0/OscpwqCa7sHC1wpA
XtAuwkx83cEYQfo/ndIxwtc14sEwy+4+U2o+wgcL6cEMuOdAa7wzwlPlAMKwVzu/

> <OMEGA_E>
V44wwQ==

> <OMEGA_NBR>
      2687

$$$$
CACHE3-HO_1696_27
  -OEChem-03092622513D

 40 42  0     0  0  0  0  0  0999 V2000
  -47.6129  -33.3195    1.8338 C   0  0  0  0  0  0  0  0  0  0  0  0
  -48.0700  -34.4387    1.1245 C   0  0  0  0  0  0  0  0  0  0  0  0
  -46.3524  -32.7761    1.5452 C   0  0  0  0  0  0  0  0  0  0  0  0
  -47.2594  -35.0139    0.1288 C   0  0  0  0  0  0  0  0  0  0  0  0
  -43.7518  -29.6937    6.4285 C   0  0  0  0  0  0  0  0  0  0  0  0
  -45.8732  -29.5026    4.7364 C   0  0  0  0  0  0  0  0  0  0  0  0
  -45.5153  -33.3391    0.5464 C   0  0  0  0  0  0  0  0  0  0  0  0
  -47.1992  -29.2969    4.1233 C   0  0  0  0  0  0  0  0  0  0  0  0
  -45.9867  -34.4769   -0.1595 C   0  0  0  0  0  0  0  0  0  0  0  0
  -48.0578  -28.9439    5.1477 C   0  0  0  0  0  0  0  0  0  0  0  0
  -46.0074  -29.2221    6.0998 C   0  0  0  0  0  0  0  0  0  0  0  0
  -44.6103  -29.9114    4.2530 C   0  0  0  0  0  0  0  0  0  0  0  0
  -43.7754  -31.2543    2.3353 C   0  0  0  0  0  0  0  0  0  0  0  0
  -47.5562  -29.4325    2.6540 C   0  0  0  0  0  0  0  0  0  0  0  0
  -49.5448  -28.6614    5.0792 C   0  0  0  0  0  0  0  0  0  0  0  0
  -44.0977  -32.8059    0.2680 C   0  0  0  0  0  0  0  0  0  0  0  0
  -43.7995  -31.3759    0.7946 C   0  0  0  0  0  0  0  0  0  0  0  0
  -44.9515  -29.3106    6.9324 N   0  0  0  0  0  0  0  0  0  0  0  0
  -43.5692  -30.0063    5.1175 N   0  0  0  0  0  0  0  0  0  0  0  0
  -47.3292  -28.8899    6.3318 N   0  0  0  0  0  0  0  0  0  0  0  0
  -44.4247  -30.1480    2.8897 N   0  0  0  0  0  0  0  0  0  0  0  0
  -43.4160  -32.2043    3.0267 O   0  0  0  0  0  0  0  0  0  0  0  0
  -44.9249  -35.3213   -1.5135 Br  0  0  0  0  0  0  0  0  0  0  0  0
  -48.2302  -32.8764    2.6013 H   0  0  0  0  0  0  0  0  0  0  0  0
  -49.0413  -34.8582    1.3416 H   0  0  0  0  0  0  0  0  0  0  0  0
  -46.0114  -31.9110    2.0945 H   0  0  0  0  0  0  0  0  0  0  0  0
  -47.6143  -35.8739   -0.4196 H   0  0  0  0  0  0  0  0  0  0  0  0
  -42.9055  -29.7529    7.0968 H   0  0  0  0  0  0  0  0  0  0  0  0
  -47.8709  -30.4659    2.4464 H   0  0  0  0  0  0  0  0  0  0  0  0
  -48.3785  -28.7433    2.4115 H   0  0  0  0  0  0  0  0  0  0  0  0
  -46.6780  -29.1862    2.0391 H   0  0  0  0  0  0  0  0  0  0  0  0
  -50.1037  -29.5958    5.2354 H   0  0  0  0  0  0  0  0  0  0  0  0
  -49.8166  -27.9367    5.8608 H   0  0  0  0  0  0  0  0  0  0  0  0
  -49.7939  -28.2461    4.0915 H   0  0  0  0  0  0  0  0  0  0  0  0
  -43.3796  -33.4949    0.7365 H   0  0  0  0  0  0  0  0  0  0  0  0
  -43.9458  -32.8031   -0.8215 H   0  0  0  0  0  0  0  0  0  0  0  0
  -44.5751  -30.6984    0.4082 H   0  0  0  0  0  0  0  0  0  0  0  0
  -42.8168  -31.0657    0.4097 H   0  0  0  0  0  0  0  0  0  0  0  0
  -47.7080  -28.6453    7.2244 H   0  0  0  0  0  0  0  0  0  0  0  0
  -44.7881  -29.4664    2.2546 H   0  0  0  0  0  0  0  0  0  0  0  0
  1  2  1  0  0  0  0
  1  3  2  0  0  0  0
  2  4  2  0  0  0  0
  3  7  1  0  0  0  0
  4  9  1  0  0  0  0
  5 18  1  0  0  0  0
  5 19  2  0  0  0  0
  6  8  1  0  0  0  0
  6 11  1  0  0  0  0
  6 12  2  0  0  0  0
  7  9  2  0  0  0  0
  7 16  1  0  0  0  0
  8 10  2  0  0  0  0
  8 14  1  0  0  0  0
  9 23  1  0  0  0  0
 10 15  1  0  0  0  0
 10 20  1  0  0  0  0
 11 18  2  0  0  0  0
 11 20  1  0  0  0  0
 12 19  1  0  0  0  0
 12 21  1  0  0  0  0
 13 17  1  0  0  0  0
 13 21  1  0  0  0  0
 13 22  2  0  0  0  0
 16 17  1  0  0  0  0
  1 24  1  0  0  0  0
  2 25  1  0  0  0  0
  3 26  1  0  0  0  0
  4 27  1  0  0  0  0
  5 28  1  0  0  0  0
 14 29  1  0  0  0  0
 14 30  1  0  0  0  0
 14 31  1  0  0  0  0
 15 32  1  0  0  0  0
 15 33  1  0  0  0  0
 15 34  1  0  0  0  0
 16 35  1  0  0  0  0
 16 36  1  0  0  0  0
 17 37  1  0  0  0  0
 17 38  1  0  0  0  0
 20 39  1  0  0  0  0
 21 40  1  0  0  0  0
M  END
> <POSIT::Probability>
0.89

> <POSIT::Method>
SHAPEFIT

> <ReceptorTitle>
UCSF-P4533-REFINED_LIGAND-BOUND-STATE_AALTB__DU__LA1_A-201(A)

> <OMEGA_C>
qHM+wjhHBcJ7u+o/sEdAwkTBCcIa8I8/0Gg5wrYaA8KbyMU/ngk9wjsODMLc7AM+1QEvwpqM7cEy
ts1ANX43wk8F7MGjkJdApg82wjRbBcIW5As/8ss8whZg6sFD8oNAY/I3wl3oCcJMWiO+KztAwh+N
58E3uqRAkAc4wuPG6cGKMcNA8HAywpRK78FbGIhA9hkvwtMI+sH6dBVAmDk+wsF168F62ilA6S1G
wntK5cHMiKJAAWQwwjI5A8LKN4k+pDIvwvEB+8Ema0s/TM4zwjF86sEt1t1A1UYuwvUM8MF9wqNA
IFE9wmoe58FjnspA6rIxwhAv8cFk8ThA/KktwjnRAMK+tEFAI7MzwgBJDcLkucG/v+tAwmyBA8Kg
eyZAQSpEwsduC8JVuas/sws4wqJJ/8G/CwZABXU+wuh+D8LX19a+Np8rwtsF7sEVGeNAy3s/wie6
88GYkRxAnoNBwjTy5cGZVRpASLY6wml96cGGgAJANmpIwknE7MFriKdAPkRHwlZ+38H6i7tA8CxH
wur34cHT7YJAq4Qtwsv6BcKojTw/gcgvwlQ2A8I9S1K/9EwywmuW9cFaA9E+Z0QrwoyG+MF9xtE+
C9U+wowp5cFRLudACCczwjK768FYSxBA

> <OMEGA_E>
6IflPg==

> <OMEGA_NBR>
      4017

$$$$
CACHE3-HO_1696_30
  -OEChem-03092622513D

 37 39  0     1  0  0  0  0  0999 V2000
  -43.7347  -29.6831    6.3734 C   0  0  0  0  0  0  0  0  0  0  0  0
  -45.8683  -29.4672    4.6956 C   0  0  0  0  0  0  0  0  0  0  0  0
  -47.1924  -29.2537    4.0959 C   0  0  0  0  0  0  0  0  0  0  0  0
  -48.0559  -28.9699    5.1350 C   0  0  0  0  0  0  0  0  0  0  0  0
  -46.0021  -29.2535    6.0701 C   0  0  0  0  0  0  0  0  0  0  0  0
  -44.6077  -29.8534    4.2013 C   0  0  0  0  0  0  0  0  0  0  0  0
  -43.6316  -31.2675    2.4733 C   0  0  0  0  0  0  0  0  0  0  0  0
  -46.3837  -32.7593    1.0468 C   0  0  0  0  0  0  0  0  0  0  0  0
  -44.9766  -32.9295    0.4660 C   0  0  1  0  0  0  0  0  0  0  0  0
  -46.1935  -33.3404   -0.3586 C   0  0  0  0  0  0  0  0  0  0  0  0
  -47.5429  -29.3258    2.6264 C   0  0  0  0  0  0  0  0  0  0  0  0
  -49.5446  -28.7113    5.0721 C   0  0  0  0  0  0  0  0  0  0  0  0
  -43.1011  -31.3413    1.0434 C   0  0  0  0  0  0  0  0  0  0  0  0
  -44.2186  -31.6595    0.0515 C   0  0  0  0  0  0  0  0  0  0  0  0
  -44.9423  -29.3627    6.8955 N   0  0  0  0  0  0  0  0  0  0  0  0
  -43.5574  -29.9401    5.0556 N   0  0  0  0  0  0  0  0  0  0  0  0
  -47.3303  -28.9695    6.3211 N   0  0  0  0  0  0  0  0  0  0  0  0
  -44.4203  -30.1867    2.8623 N   0  0  0  0  0  0  0  0  0  0  0  0
  -43.4018  -32.1952    3.2442 O   0  0  0  0  0  0  0  0  0  0  0  0
  -46.4703  -35.0972   -0.5720 Cl  0  0  0  0  0  0  0  0  0  0  0  0
  -46.6415  -32.3122   -1.7715 Cl  0  0  0  0  0  0  0  0  0  0  0  0
  -42.8809  -29.7356    7.0326 H   0  0  0  0  0  0  0  0  0  0  0  0
  -46.7220  -33.4067    1.8693 H   0  0  0  0  0  0  0  0  0  0  0  0
  -46.8091  -31.7529    1.1737 H   0  0  0  0  0  0  0  0  0  0  0  0
  -44.3694  -33.7452    0.8854 H   0  0  0  0  0  0  0  0  0  0  0  0
  -47.8378  -30.3539    2.3692 H   0  0  0  0  0  0  0  0  0  0  0  0
  -48.3775  -28.6413    2.4146 H   0  0  0  0  0  0  0  0  0  0  0  0
  -46.6683  -29.0344    2.0262 H   0  0  0  0  0  0  0  0  0  0  0  0
  -50.0872  -29.6627    5.1747 H   0  0  0  0  0  0  0  0  0  0  0  0
  -49.8339  -28.0344    5.8895 H   0  0  0  0  0  0  0  0  0  0  0  0
  -49.7958  -28.2484    4.1064 H   0  0  0  0  0  0  0  0  0  0  0  0
  -42.6514  -30.3732    0.7778 H   0  0  0  0  0  0  0  0  0  0  0  0
  -42.3358  -32.1293    0.9855 H   0  0  0  0  0  0  0  0  0  0  0  0
  -43.7815  -31.8109   -0.9466 H   0  0  0  0  0  0  0  0  0  0  0  0
  -44.9224  -30.8147    0.0192 H   0  0  0  0  0  0  0  0  0  0  0  0
  -47.7151  -28.7895    7.2264 H   0  0  0  0  0  0  0  0  0  0  0  0
  -44.8655  -29.6334    2.1583 H   0  0  0  0  0  0  0  0  0  0  0  0
  1 15  1  0  0  0  0
  1 16  2  0  0  0  0
  2  3  1  0  0  0  0
  2  5  1  0  0  0  0
  2  6  2  0  0  0  0
  3  4  2  0  0  0  0
  3 11  1  0  0  0  0
  4 12  1  0  0  0  0
  4 17  1  0  0  0  0
  5 15  2  0  0  0  0
  5 17  1  0  0  0  0
  6 16  1  0  0  0  0
  6 18  1  0  0  0  0
  7 13  1  0  0  0  0
  7 18  1  0  0  0  0
  7 19  2  0  0  0  0
  8  9  1  0  0  0  0
  8 10  1  0  0  0  0
  9 10  1  0  0  0  0
  9 14  1  0  0  0  0
 10 20  1  0  0  0  0
 10 21  1  0  0  0  0
 13 14  1  0  0  0  0
  1 22  1  0  0  0  0
  8 23  1  0  0  0  0
  8 24  1  0  0  0  0
  9 25  1  0  0  0  0
 11 26  1  0  0  0  0
 11 27  1  0  0  0  0
 11 28  1  0  0  0  0
 12 29  1  0  0  0  0
 12 30  1  0  0  0  0
 12 31  1  0  0  0  0
 13 32  1  0  0  0  0
 13 33  1  0  0  0  0
 14 34  1  0  0  0  0
 14 35  1  0  0  0  0
 17 36  1  0  0  0  0
 18 37  1  0  0  0  0
M  END
> <POSIT::Probability>
0.94

> <POSIT::Method>
SHAPEFIT

> <ReceptorTitle>
UCSF-P4533-REFINED_LIGAND-BOUND-STATE_AALTB__DU__LA1_A-201(A)

> <OMEGA_C>
YvAuwgB37cHG8stAKHk3wsS868G6QpZA+MQ8wqQH6sFTEYNANzlAwlTC58G6UaRALwI4wh4H6sHe
PcJAP24ywszT7sEFcYZAu4Yuwsgj+sEeSx5A44g5wo4JA8K+/YU/EegzwtS3A8L4lO4+GMY4wplc
BcI4nLe+7is+wkab6sGCFihAsS1Gwr6w5cHjTqJAhWcswva6+sFyjYU/2d8wwpRG/cH8wFI98cQz
wujm6sEWqNxAwzouwl6F78GKx6FARlI9wqLB58E8RspAaK4xwmh+8cEkMDdAbJstwuvHAMI2oU9A
ouE5woljDMIQbhK/2pA6wqY/AcL8wOK/DoYrwpXi7cFNC+FATeM6wn2gBcIFRO8/fjw7wuUF/sF6
OpY/SHoxwhn7BsKjq2I/5lk/wsDU8sGAoRdAkYJBwlQh5cFziRpAYaw6wmhG6MFFrQFATFlIwh9N
7cFQl6VA6FVHwmVG4MHEdrxA5C5HwrH84cGvZ4NAA5sqwkn88sG7HUc/1lcpwmWEAMLgS3w/TSAv
wqV8/sGxUnK/kLAzwoqE9sF/cJ08Rdw+wuVQ5sFTPudAT3YzwkcR7cFVIQpA

> <OMEGA_E>
0OlRPg==

> <OMEGA_NBR>
      5292

$$$$
CACHE3HI_1689_48
  -OEChem-03092622513D

 37 38  0     0  0  0  0  0  0999 V2000
  -44.3580  -29.8623    0.7760 C   0  0  0  0  0  0  0  0  0  0  0  0
  -45.6213  -30.4364    0.9980 C   0  0  0  0  0  0  0  0  0  0  0  0
  -44.5708  -28.5225    0.9659 C   0  0  0  0  0  0  0  0  0  0  0  0
  -45.5877  -29.4808    3.8923 C   0  0  0  0  0  0  0  0  0  0  0  0
  -44.7983  -29.5329    4.9723 C   0  0  0  0  0  0  0  0  0  0  0  0
  -45.4157  -29.2956    6.3100 C   0  0  0  0  0  0  0  0  0  0  0  0
  -47.5949  -28.9869    5.1562 C   0  0  0  0  0  0  0  0  0  0  0  0
  -42.3025  -30.7296    2.8468 C   0  0  0  0  0  0  0  0  0  0  0  0
  -45.9968  -31.8586    0.9310 C   0  0  0  0  0  0  0  0  0  0  0  0
  -43.7110  -27.3334    0.8994 C   0  0  0  0  0  0  0  0  0  0  0  0
  -43.0660  -30.5540    0.4131 C   0  0  0  0  0  0  0  0  0  0  0  0
  -43.3399  -29.8150    4.9143 C   0  0  0  0  0  0  0  0  0  0  0  0
  -41.9441  -30.3186    1.4269 C   0  0  0  0  0  0  0  0  0  0  0  0
  -46.5471  -29.5229    1.3024 N   0  0  0  0  0  0  0  0  0  0  0  0
  -46.9288  -29.2209    3.9633 N   0  0  0  0  0  0  0  0  0  0  0  0
  -46.7810  -29.0388    6.2893 N   0  0  0  0  0  0  0  0  0  0  0  0
  -42.8778  -29.6825    3.5521 N   0  0  0  0  0  0  0  0  0  0  0  0
  -44.7476  -29.3293    7.3402 O   0  0  0  0  0  0  0  0  0  0  0  0
  -48.8024  -28.7528    5.2143 O   0  0  0  0  0  0  0  0  0  0  0  0
  -42.1233  -31.8621    3.2863 O   0  0  0  0  0  0  0  0  0  0  0  0
  -45.8743  -28.3073    1.2811 O   0  0  0  0  0  0  0  0  0  0  0  0
  -45.2076  -29.6433    2.8904 H   0  0  0  0  0  0  0  0  0  0  0  0
  -45.8809  -32.3678    1.9048 H   0  0  0  0  0  0  0  0  0  0  0  0
  -45.3681  -32.4230    0.2186 H   0  0  0  0  0  0  0  0  0  0  0  0
  -47.0473  -31.9814    0.6156 H   0  0  0  0  0  0  0  0  0  0  0  0
  -43.6866  -26.8868   -0.1124 H   0  0  0  0  0  0  0  0  0  0  0  0
  -42.6578  -27.5610    1.1509 H   0  0  0  0  0  0  0  0  0  0  0  0
  -44.0529  -26.5476    1.5971 H   0  0  0  0  0  0  0  0  0  0  0  0
  -43.2678  -31.6317    0.3438 H   0  0  0  0  0  0  0  0  0  0  0  0
  -42.7415  -30.2455   -0.5883 H   0  0  0  0  0  0  0  0  0  0  0  0
  -42.8027  -29.1145    5.5599 H   0  0  0  0  0  0  0  0  0  0  0  0
  -43.1395  -30.8299    5.2688 H   0  0  0  0  0  0  0  0  0  0  0  0
  -41.0278  -30.8385    1.1227 H   0  0  0  0  0  0  0  0  0  0  0  0
  -41.7162  -29.2458    1.4568 H   0  0  0  0  0  0  0  0  0  0  0  0
  -47.4541  -29.1999    3.0943 H   0  0  0  0  0  0  0  0  0  0  0  0
  -47.2312  -28.8728    7.1850 H   0  0  0  0  0  0  0  0  0  0  0  0
  -42.9786  -28.7832    3.0903 H   0  0  0  0  0  0  0  0  0  0  0  0
  1  2  1  0  0  0  0
  1  3  2  0  0  0  0
  1 11  1  0  0  0  0
  2  9  1  0  0  0  0
  2 14  2  0  0  0  0
  3 10  1  0  0  0  0
  3 21  1  0  0  0  0
  4  5  2  0  0  0  0
  4 15  1  0  0  0  0
  5  6  1  0  0  0  0
  5 12  1  0  0  0  0
  6 16  1  0  0  0  0
  6 18  2  0  0  0  0
  7 15  1  0  0  0  0
  7 16  1  0  0  0  0
  7 19  2  0  0  0  0
  8 13  1  0  0  0  0
  8 17  1  0  0  0  0
  8 20  2  0  0  0  0
 11 13  1  0  0  0  0
 12 17  1  0  0  0  0
 14 21  1  0  0  0  0
  4 22  1  0  0  0  0
  9 23  1  0  0  0  0
  9 24  1  0  0  0  0
  9 25  1  0  0  0  0
 10 26  1  0  0  0  0
 10 27  1  0  0  0  0
 10 28  1  0  0  0  0
 11 29  1  0  0  0  0
 11 30  1  0  0  0  0
 12 31  1  0  0  0  0
 12 32  1  0  0  0  0
 13 33  1  0  0  0  0
 13 34  1  0  0  0  0
 15 35  1  0  0  0  0
 16 36  1  0  0  0  0
 17 37  1  0  0  0  0
M  END
> <POSIT::Probability>
0.18

> <POSIT::Method>
FRED

> <ReceptorTitle>
UCSF-P4533-REFINED_LIGAND-BOUND-STATE_AALTB__DU__LA1_A-201(A)

> <OMEGA_C>
mW4xwg7m7sFQqkY/PXw2wrJ988Gsf38/gkgywgEu5MF8RHc/zFk2wrrY68EPG3lAajEzwlZD7ME1
HZ9AsKk1wmJd6sGI68lAJ2E+whvl58HW/6RAwTUpwjTW9cGkMTZAs/w3wnTe/sGYV24/EtguwuKq
2sFIQWY/i0Mswpdu9MFohNM+BlwtwhCF7sGUQZ1AxcYnwoOM8sHQo7Y/MjA6wtgu7MH+tKY/F7c7
wlvE6cEZp31AuR87wm1P6MFUQslA6YIrwrt17cERVmNAhP0ywnWi6sGh4upApTVDwrgF5sHc26ZA
QX4owoXl/sEUUlJARH83wk114sG0+6M/odQ0wnYl7cGH+zhAFYY3wpR4AcKoz/M/+Xg1wh2xAcIg
4l8+dDA8wuLZ/8FAmh0/Ib8uwjsY18GAPOa9nKEqwv983MGeUZM/IjYwwn9h1MFAbcw/RBItwqIN
/cEgDLA+UfcqwtP28cEonRa/7zUrwovq6MEB67FA0Y4swpaj9sFEmqhAgRwkwlK19sH2tY8/Xd0m
wk336cGEebo//tA9wmiZ6cGKCEZAwew8wmf75sHG6+VAEeorwuZD5sEAyEVA

> <OMEGA_E>
RhMMwQ==

> <OMEGA_NBR>
      6530

$$$$
CACHE3HI_1689_68
  -OEChem-03092622513D

 44 44  0     0  0  0  0  0  0999 V2000
  -46.0754  -29.2467    3.6994 C   0  0  0  0  0  0  0  0  0  0  0  0
  -44.8314  -29.1743    3.0725 C   0  0  0  0  0  0  0  0  0  0  0  0
  -45.5706  -30.7733    1.4188 C   0  0  0  0  0  0  0  0  0  0  0  0
  -46.8145  -30.8457    2.0457 C   0  0  0  0  0  0  0  0  0  0  0  0
  -47.0669  -30.0824    3.1858 C   0  0  0  0  0  0  0  0  0  0  0  0
  -44.5789  -29.9376    1.9324 C   0  0  0  0  0  0  0  0  0  0  0  0
  -51.8299  -29.8418    2.4682 C   0  0  0  0  0  0  0  0  0  0  0  0
  -48.7233  -29.4470    4.9731 C   0  0  0  0  0  0  0  0  0  0  0  0
  -43.4633  -27.5081    0.8037 C   0  0  0  0  0  0  0  0  0  0  0  0
  -43.0793  -25.3609   -0.3745 C   0  0  0  0  0  0  0  0  0  0  0  0
  -47.8579  -31.7506    1.4752 C   0  0  0  0  0  0  0  0  0  0  0  0
  -51.5484  -29.6763    0.9990 C   0  0  0  0  0  0  0  0  0  0  0  0
  -50.1593  -29.8059    5.3400 C   0  0  0  0  0  0  0  0  0  0  0  0
  -42.6581  -28.6321    1.4194 C   0  0  0  0  0  0  0  0  0  0  0  0
  -51.1996  -28.9069    4.6849 C   0  0  0  0  0  0  0  0  0  0  0  0
  -44.4617  -25.2899   -0.4083 N   0  0  0  0  0  0  0  0  0  0  0  0
  -48.3222  -30.1427    3.8360 N   0  0  0  0  0  0  0  0  0  0  0  0
  -42.6359  -26.5237    0.2623 N   0  0  0  0  0  0  0  0  0  0  0  0
  -51.1206  -28.9399    3.2489 N   0  0  0  0  0  0  0  0  0  0  0  0
  -52.5960  -30.7053    2.8888 O   0  0  0  0  0  0  0  0  0  0  0  0
  -48.0657  -28.6409    5.6234 O   0  0  0  0  0  0  0  0  0  0  0  0
  -44.6905  -27.4936    0.7982 O   0  0  0  0  0  0  0  0  0  0  0  0
  -42.3536  -24.4913   -0.8528 O   0  0  0  0  0  0  0  0  0  0  0  0
  -43.3644  -29.8683    1.3221 O   0  0  0  0  0  0  0  0  0  0  0  0
  -46.2596  -28.6465    4.5868 H   0  0  0  0  0  0  0  0  0  0  0  0
  -44.0620  -28.5225    3.4774 H   0  0  0  0  0  0  0  0  0  0  0  0
  -45.3699  -31.3664    0.5299 H   0  0  0  0  0  0  0  0  0  0  0  0
  -47.7934  -32.7545    1.9123 H   0  0  0  0  0  0  0  0  0  0  0  0
  -47.7327  -31.8645    0.3913 H   0  0  0  0  0  0  0  0  0  0  0  0
  -48.8578  -31.3471    1.6714 H   0  0  0  0  0  0  0  0  0  0  0  0
  -50.7031  -30.3106    0.7162 H   0  0  0  0  0  0  0  0  0  0  0  0
  -52.4288  -29.9700    0.4194 H   0  0  0  0  0  0  0  0  0  0  0  0
  -51.3129  -28.6322    0.7721 H   0  0  0  0  0  0  0  0  0  0  0  0
  -50.3299  -30.8402    5.0192 H   0  0  0  0  0  0  0  0  0  0  0  0
  -50.2614  -29.7702    6.4315 H   0  0  0  0  0  0  0  0  0  0  0  0
  -41.7097  -28.7324    0.8844 H   0  0  0  0  0  0  0  0  0  0  0  0
  -42.4537  -28.4157    2.4730 H   0  0  0  0  0  0  0  0  0  0  0  0
  -51.0423  -27.8674    4.9875 H   0  0  0  0  0  0  0  0  0  0  0  0
  -52.2162  -29.1974    4.9678 H   0  0  0  0  0  0  0  0  0  0  0  0
  -45.0091  -26.0376    0.0043 H   0  0  0  0  0  0  0  0  0  0  0  0
  -44.9370  -24.5035   -0.8382 H   0  0  0  0  0  0  0  0  0  0  0  0
  -49.0024  -30.7711    3.4117 H   0  0  0  0  0  0  0  0  0  0  0  0
  -41.6319  -26.6630    0.3367 H   0  0  0  0  0  0  0  0  0  0  0  0
  -50.4897  -28.2850    2.7899 H   0  0  0  0  0  0  0  0  0  0  0  0
  1  2  2  0  0  0  0
  1  5  1  0  0  0  0
  2  6  1  0  0  0  0
  3  4  1  0  0  0  0
  3  6  2  0  0  0  0
  4  5  2  0  0  0  0
  4 11  1  0  0  0  0
  5 17  1  0  0  0  0
  6 24  1  0  0  0  0
  7 12  1  0  0  0  0
  7 19  1  0  0  0  0
  7 20  2  0  0  0  0
  8 13  1  0  0  0  0
  8 17  1  0  0  0  0
  8 21  2  0  0  0  0
  9 14  1  0  0  0  0
  9 18  1  0  0  0  0
  9 22  2  0  0  0  0
 10 16  1  0  0  0  0
 10 18  1  0  0  0  0
 10 23  2  0  0  0  0
 13 15  1  0  0  0  0
 14 24  1  0  0  0  0
 15 19  1  0  0  0  0
  1 25  1  0  0  0  0
  2 26  1  0  0  0  0
  3 27  1  0  0  0  0
 11 28  1  0  0  0  0
 11 29  1  0  0  0  0
 11 30  1  0  0  0  0
 12 31  1  0  0  0  0
 12 32  1  0  0  0  0
 12 33  1  0  0  0  0
 13 34  1  0  0  0  0
 13 35  1  0  0  0  0
 14 36  1  0  0  0  0
 14 37  1  0  0  0  0
 15 38  1  0  0  0  0
 15 39  1  0  0  0  0
 16 40  1  0  0  0  0
 16 41  1  0  0  0  0
 17 42  1  0  0  0  0
 18 43  1  0  0  0  0
 19 44  1  0  0  0  0
M  END
> <POSIT::Probability>
0.05

> <POSIT::Method>
FRED

> <ReceptorTitle>
UCSF-P4533-REFINED_LIGAND-BOUND-STATE_AALTB__DU__LA1_A-201(A)

> <OMEGA_C>
Kk04wlH56cHbwmxAWlMzwgVl6cFNo0RARkg2wrAv9sHamrU/B0I7wvDD9sEE7QJAjUQ8wtKo8MGu
40tA1FAywiOA78FBWfc/yVFPwge87sFv9h1AqORCwoCT68HNI59Ad9otwp4Q3MHNwU0/K1EswhLj
ysFNvL++eW4/wkAB/sHx0rw/kTFOwhRp7cGGvH8/K6NIwmxy7sFj4apA3qEqwpsO5cGwrbU/ZcxM
wl9B58HQ6pVA0tgxwrFRysHdB9G++klBwjck8cFtgHVAKosqwocw1MEoSIY+fHtMwuiE58EH7k9A
VmJSwm+k9cGT4jhAPENAwpEg5cGN8rNACcMywtLy28HYV0w/Hmopwjbuw8G2Tlq/MnUtwlLy7sEC
O6k/1gk5wgEs5cE5x5JAhj8wwi4u5MGsjV5AyHo1wnnu+sHDpwc/eiw/wpwEA8JsxvQ/PO4+wpXq
/sEaXcg+ZG5DwvHG+sFv8NU/8M9KwhF88sFPWzc/FbdRwoDC78ESwdY+a0BNwrgO5cEOqUU/3FFJ
wsq49sHnnKBAuQtJwlcp7sF9zs1AxtYmwgzc5cESamI/nNApwktT48HURB5AUitMwm7w3sHnmZ9A
cN1QwjaU6cH+955ASQk0wvhM0MEAsow7fL8zwhkHxMEyl1a/fAJEwjsr9sGoWVpACocmwuNN1cFY
X6w+efVJwq1H4sFNjTJA

> <OMEGA_E>
0DbawA==

> <OMEGA_NBR>
      7901

$$$$
CACHE3HI_1690_35
  -OEChem-03092622513D

 38 40  0     0  0  0  0  0  0999 V2000
  -47.0373  -33.2587    1.2024 C   0  0  0  0  0  0  0  0  0  0  0  0
  -45.9727  -32.3965    1.5107 C   0  0  0  0  0  0  0  0  0  0  0  0
  -46.8668  -34.2563    0.2278 C   0  0  0  0  0  0  0  0  0  0  0  0
  -44.5669  -33.5215   -0.1284 C   0  0  0  0  0  0  0  0  0  0  0  0
  -43.7305  -29.7187    6.3841 C   0  0  0  0  0  0  0  0  0  0  0  0
  -45.8586  -29.4659    4.7020 C   0  0  0  0  0  0  0  0  0  0  0  0
  -44.7329  -32.5065    0.8314 C   0  0  0  0  0  0  0  0  0  0  0  0
  -47.1827  -29.2395    4.0941 C   0  0  0  0  0  0  0  0  0  0  0  0
  -45.6267  -34.3952   -0.4255 C   0  0  0  0  0  0  0  0  0  0  0  0
  -48.0422  -28.9449    5.1335 C   0  0  0  0  0  0  0  0  0  0  0  0
  -45.9961  -29.2680    6.0771 C   0  0  0  0  0  0  0  0  0  0  0  0
  -44.5887  -29.8165    4.2072 C   0  0  0  0  0  0  0  0  0  0  0  0
  -47.5351  -29.2519    2.6158 C   0  0  0  0  0  0  0  0  0  0  0  0
  -49.5212  -28.6369    5.0664 C   0  0  0  0  0  0  0  0  0  0  0  0
  -43.6119  -31.4908    1.0035 C   0  0  0  0  0  0  0  0  0  0  0  0
  -43.3879  -31.0907    2.4599 C   0  0  0  0  0  0  0  0  0  0  0  0
  -44.9382  -29.3906    6.9047 N   0  0  0  0  0  0  0  0  0  0  0  0
  -43.5445  -29.9397    5.0607 N   0  0  0  0  0  0  0  0  0  0  0  0
  -47.3213  -28.9665    6.3231 N   0  0  0  0  0  0  0  0  0  0  0  0
  -44.4157  -30.1142    2.8707 N   0  0  0  0  0  0  0  0  0  0  0  0
  -45.3909  -35.7407   -1.7496 Br  0  0  0  0  0  0  0  0  0  0  0  0
  -47.9836  -33.1555    1.7126 H   0  0  0  0  0  0  0  0  0  0  0  0
  -46.0995  -31.6418    2.2728 H   0  0  0  0  0  0  0  0  0  0  0  0
  -47.6854  -34.9157   -0.0201 H   0  0  0  0  0  0  0  0  0  0  0  0
  -43.6213  -33.6297   -0.6389 H   0  0  0  0  0  0  0  0  0  0  0  0
  -42.8846  -29.8072    7.0497 H   0  0  0  0  0  0  0  0  0  0  0  0
  -47.8501  -30.2640    2.3218 H   0  0  0  0  0  0  0  0  0  0  0  0
  -48.3558  -28.5437    2.4287 H   0  0  0  0  0  0  0  0  0  0  0  0
  -46.6544  -28.9564    2.0266 H   0  0  0  0  0  0  0  0  0  0  0  0
  -50.0953  -29.5705    5.1603 H   0  0  0  0  0  0  0  0  0  0  0  0
  -49.7915  -27.9562    5.8871 H   0  0  0  0  0  0  0  0  0  0  0  0
  -49.7529  -28.1596    4.1028 H   0  0  0  0  0  0  0  0  0  0  0  0
  -42.6807  -31.9268    0.6126 H   0  0  0  0  0  0  0  0  0  0  0  0
  -43.8646  -30.5886    0.4270 H   0  0  0  0  0  0  0  0  0  0  0  0
  -43.4554  -31.9834    3.0990 H   0  0  0  0  0  0  0  0  0  0  0  0
  -42.3908  -30.6385    2.5658 H   0  0  0  0  0  0  0  0  0  0  0  0
  -47.7078  -28.7889    7.2281 H   0  0  0  0  0  0  0  0  0  0  0  0
  -45.2924  -30.4595    2.5359 H   0  0  0  0  0  0  0  0  0  0  0  0
  1  2  2  0  0  0  0
  1  3  1  0  0  0  0
  2  7  1  0  0  0  0
  3  9  2  0  0  0  0
  4  7  2  0  0  0  0
  4  9  1  0  0  0  0
  5 17  1  0  0  0  0
  5 18  2  0  0  0  0
  6  8  1  0  0  0  0
  6 11  1  0  0  0  0
  6 12  2  0  0  0  0
  7 15  1  0  0  0  0
  8 10  2  0  0  0  0
  8 13  1  0  0  0  0
  9 21  1  0  0  0  0
 10 14  1  0  0  0  0
 10 19  1  0  0  0  0
 11 17  2  0  0  0  0
 11 19  1  0  0  0  0
 12 18  1  0  0  0  0
 12 20  1  0  0  0  0
 15 16  1  0  0  0  0
 16 20  1  0  0  0  0
  1 22  1  0  0  0  0
  2 23  1  0  0  0  0
  3 24  1  0  0  0  0
  4 25  1  0  0  0  0
  5 26  1  0  0  0  0
 13 27  1  0  0  0  0
 13 28  1  0  0  0  0
 13 29  1  0  0  0  0
 14 30  1  0  0  0  0
 14 31  1  0  0  0  0
 14 32  1  0  0  0  0
 15 33  1  0  0  0  0
 15 34  1  0  0  0  0
 16 35  1  0  0  0  0
 16 36  1  0  0  0  0
 19 37  1  0  0  0  0
 20 38  1  0  0  0  0
M  END
> <POSIT::Probability>
0.79

> <POSIT::Method>
SHAPEFIT

> <ReceptorTitle>
UCSF-P4533-REFINED_LIGAND-BOUND-STATE_AALTB__DU__LA1_A-201(A)

> <OMEGA_C>
MSY8wuwIBcJH6Zk/EeQ3wvmVAcIpXcE/l3c7wncGCcIcPWk+gEQywgQWBsJEhwO+EOwuwtK/7cHZ
SsxALm83whK668H/dpZAh+4ywqAGAsLG1VQ/Gbs8wovq6cHUAoNAw4E2wrSUCcIG3tm+OStAwhuP
58FARaRA/vs3wtQk6sGSd8JAyVoywhyI7sGxoYZA8CM+wtAD6sE+aSdAtxVGwmkY5cGpH6JAj3Iu
whHt+8Etc4A/OY0twqe5+MF6bx1ArsAzwgkg68EE89xAlC0uwoeE78Hp8KFA9kg9wl2758H2VspA
takxwsjp8MHuuDdAVJA1wnr2DsJR8d+/MO8/wjafBMIHN9s/6mU4woAi/cHAdRFA470+wqipC8Ll
xaS8PXwuwsmEBsJPkSO/y4krwg917sHAluFAfWY/wp4c8sETmRRAVmxBwpJZ5MHXbxtAJJ46ws+m
58GoswFAlWFIwmeQ7MGCIaVAeCpHwmGm38FAY7xA8QJHwtRG4cEISoNADbkqwg5q/8E30xw/XXUv
woy19MEapdo+YNItwgHe/8FdVkZAIZApwp0b9cF1NiRAwNQ+wqJP5sHmTOdAeCs1whyt88HlSyJA

> <OMEGA_E>
3Pv/Pg==

> <OMEGA_NBR>
      9189

$$$$
CACHE3HI_1690_40
  -OEChem-03092622513D

 39 40  0     0  0  0  0  0  0999 V2000
  -43.7504  -29.5865    6.4616 C   0  0  0  0  0  0  0  0  0  0  0  0
  -45.8584  -29.4656    4.7580 C   0  0  0  0  0  0  0  0  0  0  0  0
  -47.1551  -29.2974    4.1019 C   0  0  0  0  0  0  0  0  0  0  0  0
  -48.0607  -29.0152    5.1016 C   0  0  0  0  0  0  0  0  0  0  0  0
  -46.0259  -29.2040    6.1155 C   0  0  0  0  0  0  0  0  0  0  0  0
  -44.5939  -29.8303    4.2871 C   0  0  0  0  0  0  0  0  0  0  0  0
  -44.1001  -31.8692   -0.6388 C   0  0  0  0  0  0  0  0  0  0  0  0
  -44.4434  -32.6039    0.4730 C   0  0  0  0  0  0  0  0  0  0  0  0
  -47.4158  -29.4252    2.6103 C   0  0  0  0  0  0  0  0  0  0  0  0
  -49.5544  -28.8280    4.9716 C   0  0  0  0  0  0  0  0  0  0  0  0
  -45.8696  -32.6214    0.9848 C   0  0  0  0  0  0  0  0  0  0  0  0
  -43.3798  -33.3446    1.2414 C   0  0  0  0  0  0  0  0  0  0  0  0
  -43.1810  -30.2340    2.2398 C   0  0  0  0  0  0  0  0  0  0  0  0
  -42.3995  -31.5260    2.5548 C   0  0  0  0  0  0  0  0  0  0  0  0
  -44.9748  -29.2702    6.9607 N   0  0  0  0  0  0  0  0  0  0  0  0
  -43.5462  -29.8696    5.1468 N   0  0  0  0  0  0  0  0  0  0  0  0
  -47.3713  -28.9456    6.3137 N   0  0  0  0  0  0  0  0  0  0  0  0
  -44.4666  -30.1724    2.9484 N   0  0  0  0  0  0  0  0  0  0  0  0
  -43.2134  -32.7299    2.5375 O   0  0  0  0  0  0  0  0  0  0  0  0
  -42.9068  -29.6140    7.1353 H   0  0  0  0  0  0  0  0  0  0  0  0
  -43.0697  -31.8242   -0.9592 H   0  0  0  0  0  0  0  0  0  0  0  0
  -44.8610  -31.3376   -1.1909 H   0  0  0  0  0  0  0  0  0  0  0  0
  -47.6672  -30.4687    2.3696 H   0  0  0  0  0  0  0  0  0  0  0  0
  -48.2541  -28.7716    2.3275 H   0  0  0  0  0  0  0  0  0  0  0  0
  -46.5148  -29.1275    2.0539 H   0  0  0  0  0  0  0  0  0  0  0  0
  -50.0577  -29.7992    5.0876 H   0  0  0  0  0  0  0  0  0  0  0  0
  -49.9065  -28.1372    5.7519 H   0  0  0  0  0  0  0  0  0  0  0  0
  -49.7867  -28.4109    3.9806 H   0  0  0  0  0  0  0  0  0  0  0  0
  -45.9322  -33.2638    1.8755 H   0  0  0  0  0  0  0  0  0  0  0  0
  -46.1772  -31.5986    1.2480 H   0  0  0  0  0  0  0  0  0  0  0  0
  -46.5351  -33.0144    0.2020 H   0  0  0  0  0  0  0  0  0  0  0  0
  -43.6820  -34.3946    1.3685 H   0  0  0  0  0  0  0  0  0  0  0  0
  -42.4295  -33.3008    0.6890 H   0  0  0  0  0  0  0  0  0  0  0  0
  -42.5704  -29.3695    2.5393 H   0  0  0  0  0  0  0  0  0  0  0  0
  -43.3715  -30.1911    1.1573 H   0  0  0  0  0  0  0  0  0  0  0  0
  -41.6008  -31.6379    1.8068 H   0  0  0  0  0  0  0  0  0  0  0  0
  -41.9534  -31.4248    3.5552 H   0  0  0  0  0  0  0  0  0  0  0  0
  -47.7895  -28.7387    7.1982 H   0  0  0  0  0  0  0  0  0  0  0  0
  -44.8694  -31.0836    2.8610 H   0  0  0  0  0  0  0  0  0  0  0  0
  1 15  1  0  0  0  0
  1 16  2  0  0  0  0
  2  3  1  0  0  0  0
  2  5  1  0  0  0  0
  2  6  2  0  0  0  0
  3  4  2  0  0  0  0
  3  9  1  0  0  0  0
  4 10  1  0  0  0  0
  4 17  1  0  0  0  0
  5 15  2  0  0  0  0
  5 17  1  0  0  0  0
  6 16  1  0  0  0  0
  6 18  1  0  0  0  0
  7  8  2  0  0  0  0
  8 11  1  0  0  0  0
  8 12  1  0  0  0  0
 12 19  1  0  0  0  0
 13 14  1  0  0  0  0
 13 18  1  0  0  0  0
 14 19  1  0  0  0  0
  1 20  1  0  0  0  0
  7 21  1  0  0  0  0
  7 22  1  0  0  0  0
  9 23  1  0  0  0  0
  9 24  1  0  0  0  0
  9 25  1  0  0  0  0
 10 26  1  0  0  0  0
 10 27  1  0  0  0  0
 10 28  1  0  0  0  0
 11 29  1  0  0  0  0
 11 30  1  0  0  0  0
 11 31  1  0  0  0  0
 12 32  1  0  0  0  0
 12 33  1  0  0  0  0
 13 34  1  0  0  0  0
 13 35  1  0  0  0  0
 14 36  1  0  0  0  0
 14 37  1  0  0  0  0
 17 38  1  0  0  0  0
 18 39  1  0  0  0  0
M  END
> <POSIT::Probability>
0.83

> <POSIT::Method>
SHAPEFIT

> <ReceptorTitle>
UCSF-P4533-REFINED_LIGAND-BOUND-STATE_AALTB__DU__LA1_A-201(A)

> <OMEGA_C>
agAvwhWx7MFsxc5AAG83wpS568GSQZhA1p48wi1h6sEZQ4NAKj5Awi8f6MHvP6NAfRo4wsGh6cEk
ssNAHmAywmmk7sEmMIlAf2YwwiP0/sGUhSO/FsYxwlpqAsI4LvI+0qk9wt5m68HCDydAuTdGwr6f
5sFGF59Adno3wlh8AsLUGHw/34QtwtRgBcJi5Z4/V7kswkvf8cGrWA9AGJkpwi81/MGZgiNAMOYz
wkop6sE0vt5AWS8uwv/07sHUsqRAMXw9woqQ58EoCspA0N0xwilh8cFCsjxAetoswnbrAsI8ZiJA
iqArwn3p7MG9VORAY0cswgqY/sH1jnW/q3Ezwmez+sHObZi/Q6s+wua/88FlpxdAPQRBwjss5sEU
9RRAMw86wjYF6cGQcwNAETtIwsxk7sGkzaJAQqBHwgIZ4cFmD7hAkiVHwnlJ48Ezwn5Ajbo3whsO
BcJAEfA/abU4wgnK/MEawJ8/6iM6wr4OBMK3104+VbouwgmUCcJ1Kq8/zrcpwgQ0BcK+YzA/FEgq
wqn06sEzgyJAYXwtwkeH8cHxIJQ/PWcmwmMa/cElRec/Q9Anwu1l+8GViGNAZyg/wtro5cHvV+ZA
PnozwiOr+MH/GTdA

> <OMEGA_E>
2F/RPg==

> <OMEGA_NBR>
     10493

$$$$
CACHE3HI_1695_82
  -OEChem-03092622513D

 36 37  0     0  0  0  0  0  0999 V2000
  -49.1515  -29.1378    5.2309 C   0  0  0  0  0  0  0  0  0  0  0  0
  -47.7691  -29.2686    5.3629 C   0  0  0  0  0  0  0  0  0  0  0  0
  -48.9870  -29.7619    2.9026 C   0  0  0  0  0  0  0  0  0  0  0  0
  -42.2613  -31.1623    3.4796 C   0  0  0  0  0  0  0  0  0  0  0  0
  -49.7604  -29.3843    4.0005 C   0  0  0  0  0  0  0  0  0  0  0  0
  -46.9957  -29.6461    4.2651 C   0  0  0  0  0  0  0  0  0  0  0  0
  -47.6046  -29.8927    3.0346 C   0  0  0  0  0  0  0  0  0  0  0  0
  -42.2649  -29.5697    2.1302 C   0  0  0  0  0  0  0  0  0  0  0  0
  -44.9064  -29.4109    0.7230 C   0  0  0  0  0  0  0  0  0  0  0  0
  -51.2384  -29.2445    3.8590 C   0  0  0  0  0  0  0  0  0  0  0  0
  -45.5176  -29.7796    4.4314 C   0  0  0  0  0  0  0  0  0  0  0  0
  -46.7937  -30.2998    1.8399 C   0  0  0  0  0  0  0  0  0  0  0  0
  -42.5260  -28.6275    0.9836 C   0  0  0  0  0  0  0  0  0  0  0  0
  -43.9964  -28.2185    0.9094 C   0  0  0  0  0  0  0  0  0  0  0  0
  -42.8490  -30.7289    2.3254 N   0  0  0  0  0  0  0  0  0  0  0  0
  -41.3721  -29.3331    3.1282 N   0  0  0  0  0  0  0  0  0  0  0  0
  -41.3505  -30.3438    4.0101 N   0  0  0  0  0  0  0  0  0  0  0  0
  -44.6130  -30.4357    0.1226 O   0  0  0  0  0  0  0  0  0  0  0  0
  -46.1014  -29.1541    1.3327 O   0  0  0  0  0  0  0  0  0  0  0  0
  -49.7459  -28.8433    6.0917 H   0  0  0  0  0  0  0  0  0  0  0  0
  -47.3038  -29.0742    6.3258 H   0  0  0  0  0  0  0  0  0  0  0  0
  -49.4630  -29.9540    1.9437 H   0  0  0  0  0  0  0  0  0  0  0  0
  -42.5173  -32.1093    3.9362 H   0  0  0  0  0  0  0  0  0  0  0  0
  -51.5164  -28.2236    3.5660 H   0  0  0  0  0  0  0  0  0  0  0  0
  -51.7509  -29.4535    4.8074 H   0  0  0  0  0  0  0  0  0  0  0  0
  -51.6168  -29.9392    3.0991 H   0  0  0  0  0  0  0  0  0  0  0  0
  -45.2422  -30.7985    4.7310 H   0  0  0  0  0  0  0  0  0  0  0  0
  -45.1441  -29.1050    5.2122 H   0  0  0  0  0  0  0  0  0  0  0  0
  -45.0065  -29.5421    3.4911 H   0  0  0  0  0  0  0  0  0  0  0  0
  -46.0630  -31.0699    2.1090 H   0  0  0  0  0  0  0  0  0  0  0  0
  -47.4375  -30.7074    1.0524 H   0  0  0  0  0  0  0  0  0  0  0  0
  -41.8893  -27.7390    1.0875 H   0  0  0  0  0  0  0  0  0  0  0  0
  -42.2146  -29.1005    0.0429 H   0  0  0  0  0  0  0  0  0  0  0  0
  -44.1530  -27.5348    0.0672 H   0  0  0  0  0  0  0  0  0  0  0  0
  -44.2899  -27.7072    1.8337 H   0  0  0  0  0  0  0  0  0  0  0  0
  -40.7472  -30.3534    4.8278 H   0  0  0  0  0  0  0  0  0  0  0  0
  1  2  2  0  0  0  0
  1  5  1  0  0  0  0
  2  6  1  0  0  0  0
  3  5  2  0  0  0  0
  3  7  1  0  0  0  0
  4 15  2  0  0  0  0
  4 17  1  0  0  0  0
  5 10  1  0  0  0  0
  6  7  2  0  0  0  0
  6 11  1  0  0  0  0
  7 12  1  0  0  0  0
  8 13  1  0  0  0  0
  8 15  1  0  0  0  0
  8 16  2  0  0  0  0
  9 14  1  0  0  0  0
  9 18  2  0  0  0  0
  9 19  1  0  0  0  0
 12 19  1  0  0  0  0
 13 14  1  0  0  0  0
 16 17  1  0  0  0  0
  1 20  1  0  0  0  0
  2 21  1  0  0  0  0
  3 22  1  0  0  0  0
  4 23  1  0  0  0  0
 10 24  1  0  0  0  0
 10 25  1  0  0  0  0
 10 26  1  0  0  0  0
 11 27  1  0  0  0  0
 11 28  1  0  0  0  0
 11 29  1  0  0  0  0
 12 30  1  0  0  0  0
 12 31  1  0  0  0  0
 13 32  1  0  0  0  0
 13 33  1  0  0  0  0
 14 34  1  0  0  0  0
 14 35  1  0  0  0  0
 17 36  1  0  0  0  0
M  END
> <POSIT::Probability>
0.05

> <POSIT::Method>
FRED

> <ReceptorTitle>
UCSF-P4533-REFINED_LIGAND-BOUND-STATE_AALTB__DU__LA1_A-201(A)

> <OMEGA_C>
JptEwh8a6cE6Y6dAiBM/wggm6sFEnatAtvJDwlgY7sGywzlAmQspwkpM+cGxsV5ApApHwhwT68G5
A4BAmfs7wkIr7cFle4hAI2s+wkMk78EkN0JANw8pws+O7MFqVAhAHqAzwn5J68E4GTk/JfRMwqb0
6cGl+nZA+xE2wqQ87sE0zo1Ayiw7wvBl8sHqgus/qBoqwjIF5cHEy3s/SPwvwnS/4cH60Gg/ZmUr
ws7U9cGz0xRABX0lwhuq6sEJNUhA5GYlwiDA8sHuUoBAvXMywk9888EAGfs94mc4wpo76cG2lao/
1vtGwha/5sEK78JAFDc9wgKY6MGibMpAGtpFwtOh78GazPg/rREqwuhvAMJK63tAzxBOwtfJ4cH0
OGRA6QBPwtmg68GM1plAp3dOwouD78HkV0ZAC/g0wmBj9sGMZJdAnJM0whrX6MFhyqZAqgY0wj1W
7MHtbV9Aj0A4whiP+MFg+QZAC8A9wq+o9cEptYY/po4nwoTp3cFENIs/wdsowuLN6MFgjC89n5ww
wk9H3MFAn4k91ygxwnCo3cH8teo/K/0iwrLT8sGmfZpA

> <OMEGA_E>
DKgkwQ==

> <OMEGA_NBR>
     11709

$$$$
CACHE3HI_1696_67
  -OEChem-03092622513D

 34 35  0     0  0  0  0  0  0999 V2000
  -43.7704  -29.7606    6.4233 C   0  0  0  0  0  0  0  0  0  0  0  0
  -45.8550  -29.4492    4.7032 C   0  0  0  0  0  0  0  0  0  0  0  0
  -47.1506  -29.1612    4.0677 C   0  0  0  0  0  0  0  0  0  0  0  0
  -48.0346  -28.8793    5.0900 C   0  0  0  0  0  0  0  0  0  0  0  0
  -46.0198  -29.2644    6.0772 C   0  0  0  0  0  0  0  0  0  0  0  0
  -44.5935  -29.8555    4.2288 C   0  0  0  0  0  0  0  0  0  0  0  0
  -46.4858  -32.5025    1.3197 C   0  0  0  0  0  0  0  0  0  0  0  0
  -45.6000  -33.1715    0.5072 C   0  0  0  0  0  0  0  0  0  0  0  0
  -43.7158  -31.2233    2.3834 C   0  0  0  0  0  0  0  0  0  0  0  0
  -47.4449  -29.1195    2.5794 C   0  0  0  0  0  0  0  0  0  0  0  0
  -49.5061  -28.5432    4.9910 C   0  0  0  0  0  0  0  0  0  0  0  0
  -44.1073  -32.8509    0.4175 C   0  0  0  0  0  0  0  0  0  0  0  0
  -43.6844  -31.4284    0.8637 C   0  0  0  0  0  0  0  0  0  0  0  0
  -44.9822  -29.4162    6.9245 N   0  0  0  0  0  0  0  0  0  0  0  0
  -43.5672  -29.9989    5.1033 N   0  0  0  0  0  0  0  0  0  0  0  0
  -47.3461  -28.9446    6.2975 N   0  0  0  0  0  0  0  0  0  0  0  0
  -44.4097  -30.1199    2.8754 N   0  0  0  0  0  0  0  0  0  0  0  0
  -43.2978  -32.1048    3.1289 O   0  0  0  0  0  0  0  0  0  0  0  0
  -46.2749  -34.5957   -0.5610 Br  0  0  0  0  0  0  0  0  0  0  0  0
  -42.9344  -29.8488    7.1013 H   0  0  0  0  0  0  0  0  0  0  0  0
  -47.5265  -32.7910    1.3370 H   0  0  0  0  0  0  0  0  0  0  0  0
  -46.1406  -31.6889    1.9404 H   0  0  0  0  0  0  0  0  0  0  0  0
  -47.7754  -30.1131    2.2425 H   0  0  0  0  0  0  0  0  0  0  0  0
  -48.2382  -28.3833    2.3831 H   0  0  0  0  0  0  0  0  0  0  0  0
  -46.5342  -28.8316    2.0336 H   0  0  0  0  0  0  0  0  0  0  0  0
  -50.0985  -29.4685    5.0443 H   0  0  0  0  0  0  0  0  0  0  0  0
  -49.7872  -27.8796    5.8221 H   0  0  0  0  0  0  0  0  0  0  0  0
  -49.7028  -28.0366    4.0347 H   0  0  0  0  0  0  0  0  0  0  0  0
  -43.5703  -33.5741    1.0489 H   0  0  0  0  0  0  0  0  0  0  0  0
  -43.7990  -32.9793   -0.6306 H   0  0  0  0  0  0  0  0  0  0  0  0
  -44.3685  -30.7017    0.4012 H   0  0  0  0  0  0  0  0  0  0  0  0
  -42.6594  -31.2439    0.5097 H   0  0  0  0  0  0  0  0  0  0  0  0
  -47.7531  -28.7832    7.1965 H   0  0  0  0  0  0  0  0  0  0  0  0
  -44.7996  -29.4783    2.2149 H   0  0  0  0  0  0  0  0  0  0  0  0
  1 14  1  0  0  0  0
  1 15  2  0  0  0  0
  2  3  1  0  0  0  0
  2  5  1  0  0  0  0
  2  6  2  0  0  0  0
  3  4  2  0  0  0  0
  3 10  1  0  0  0  0
  4 11  1  0  0  0  0
  4 16  1  0  0  0  0
  5 14  2  0  0  0  0
  5 16  1  0  0  0  0
  6 15  1  0  0  0  0
  6 17  1  0  0  0  0
  7  8  2  0  0  0  0
  8 12  1  0  0  0  0
  8 19  1  0  0  0  0
  9 13  1  0  0  0  0
  9 17  1  0  0  0  0
  9 18  2  0  0  0  0
 12 13  1  0  0  0  0
  1 20  1  0  0  0  0
  7 21  1  0  0  0  0
  7 22  1  0  0  0  0
 10 23  1  0  0  0  0
 10 24  1  0  0  0  0
 10 25  1  0  0  0  0
 11 26  1  0  0  0  0
 11 27  1  0  0  0  0
 11 28  1  0  0  0  0
 12 29  1  0  0  0  0
 12 30  1  0  0  0  0
 13 31  1  0  0  0  0
 13 32  1  0  0  0  0
 16 33  1  0  0  0  0
 17 34  1  0  0  0  0
M  END
> <POSIT::Probability>
0.99

> <POSIT::Method>
SHAPEFIT

> <ReceptorTitle>
UCSF-P4533-REFINED_LIGAND-BOUND-STATE_AALTB__DU__LA1_A-201(A)

> <OMEGA_C>
8BQvwsoV7sGRi81AiWs3wuuX68HSgJZAPJo8wjhK6cE4KoJAdyNAwsEI58Gw4aJASRQ4wnAd6sEx
eMJAyl8ywhrY7sEVUodAgfE5wpYCAsLw7Kg/bmY2wp2vBMLa1AE/+dwuwkPJ+cGliRhAi8c9wtD0
6MHVFCVAQwZGwmVY5MGhtp9A420wwldnA8I0wdU+zLwuwmNt+8FcHl0/zO0zwkpU68Edld1AyUQu
ws3978FrTqNAc2I9wp2O58HChMlAfqMxwov18MEMBzhA5zAtwlprAMI2QEhAdBk5wgViCsKSoA+/
3bwrwkzK7sH2PeNAGhs+wvUpA8KaIqs/BpA4wtaC/cH7Xvg/+xk/wrXn8MGFhA9A8PNAwvsQ48Hf
hBhADyM6whun5sFPJwJA4WRIwnS/68FLa6FAIiZHwmEJ38GCTrpAtc9GwutK4MHpG4FACEguwuZL
BsJ3QYY/JjIvwsnqA8K3bSG/S3kxwiqd9cGYZM0+NaMqwpDz+cHNegI/LAM/whJE5sH8SeZA0jIz
worT68FJwQ1A

> <OMEGA_E>
YPsVPQ==

> <OMEGA_NBR>
     12914

$$$$
CACHE3HI_1702_90
  -OEChem-03092622513D

 43 45  0     0  0  0  0  0  0999 V2000
  -44.8526  -24.0783   -0.9669 C   0  0  0  0  0  0  0  0  0  0  0  0
  -43.4700  -24.1596   -1.1316 C   0  0  0  0  0  0  0  0  0  0  0  0
  -45.5366  -25.0761   -0.2733 C   0  0  0  0  0  0  0  0  0  0  0  0
  -42.7621  -25.2400   -0.6036 C   0  0  0  0  0  0  0  0  0  0  0  0
  -47.7505  -28.9277    4.7475 C   0  0  0  0  0  0  0  0  0  0  0  0
  -47.6962  -30.7936    3.2135 C   0  0  0  0  0  0  0  0  0  0  0  0
  -49.1327  -29.0695    4.8701 C   0  0  0  0  0  0  0  0  0  0  0  0
  -49.0784  -30.9353    3.3360 C   0  0  0  0  0  0  0  0  0  0  0  0
  -44.8260  -26.1568    0.2545 C   0  0  0  0  0  0  0  0  0  0  0  0
  -43.4367  -26.2460    0.0933 C   0  0  0  0  0  0  0  0  0  0  0  0
  -47.0322  -29.7900    3.9192 C   0  0  0  0  0  0  0  0  0  0  0  0
  -49.7966  -30.0730    4.1643 C   0  0  0  0  0  0  0  0  0  0  0  0
  -45.5198  -27.2439    1.0020 C   0  0  0  0  0  0  0  0  0  0  0  0
  -43.4833  -28.3009    1.3111 C   0  0  0  0  0  0  0  0  0  0  0  0
  -44.7643  -30.4136    3.0200 C   0  0  0  0  0  0  0  0  0  0  0  0
  -51.9928  -29.9101    5.3902 C   0  0  0  0  0  0  0  0  0  0  0  0
  -42.6996  -29.4603    1.8754 C   0  0  0  0  0  0  0  0  0  0  0  0
  -43.3297  -29.9201    3.1774 C   0  0  0  0  0  0  0  0  0  0  0  0
  -44.7702  -28.2929    1.5048 N   0  0  0  0  0  0  0  0  0  0  0  0
  -42.7642  -27.3423    0.6362 N   0  0  0  0  0  0  0  0  0  0  0  0
  -51.3083  -30.0631    6.5878 N   0  0  0  0  0  0  0  0  0  0  0  0
  -45.6310  -29.6471    3.7956 N   0  0  0  0  0  0  0  0  0  0  0  0
  -51.1793  -30.2139    4.2868 N   0  0  0  0  0  0  0  0  0  0  0  0
  -46.7363  -27.1710    1.1463 O   0  0  0  0  0  0  0  0  0  0  0  0
  -45.0549  -31.3579    2.2926 O   0  0  0  0  0  0  0  0  0  0  0  0
  -53.1665  -29.5501    5.3625 O   0  0  0  0  0  0  0  0  0  0  0  0
  -45.3979  -23.2348   -1.3806 H   0  0  0  0  0  0  0  0  0  0  0  0
  -42.9426  -23.3793   -1.6728 H   0  0  0  0  0  0  0  0  0  0  0  0
  -46.6132  -24.9942   -0.1560 H   0  0  0  0  0  0  0  0  0  0  0  0
  -41.6848  -25.2899   -0.7398 H   0  0  0  0  0  0  0  0  0  0  0  0
  -47.2433  -28.1430    5.3032 H   0  0  0  0  0  0  0  0  0  0  0  0
  -47.1470  -31.4703    2.5639 H   0  0  0  0  0  0  0  0  0  0  0  0
  -49.6823  -28.3922    5.5188 H   0  0  0  0  0  0  0  0  0  0  0  0
  -49.5853  -31.7210    2.7815 H   0  0  0  0  0  0  0  0  0  0  0  0
  -42.6585  -30.2438    1.1203 H   0  0  0  0  0  0  0  0  0  0  0  0
  -41.6920  -29.0856    2.0586 H   0  0  0  0  0  0  0  0  0  0  0  0
  -42.7407  -30.7615    3.5636 H   0  0  0  0  0  0  0  0  0  0  0  0
  -43.3153  -29.1240    3.9312 H   0  0  0  0  0  0  0  0  0  0  0  0
  -41.7600  -27.4052    0.5192 H   0  0  0  0  0  0  0  0  0  0  0  0
  -50.3390  -30.3623    6.5737 H   0  0  0  0  0  0  0  0  0  0  0  0
  -51.7613  -29.8806    7.4774 H   0  0  0  0  0  0  0  0  0  0  0  0
  -45.2061  -28.8965    4.3363 H   0  0  0  0  0  0  0  0  0  0  0  0
  -51.6794  -30.5856    3.4730 H   0  0  0  0  0  0  0  0  0  0  0  0
  1  2  1  0  0  0  0
  1  3  2  0  0  0  0
  2  4  2  0  0  0  0
  3  9  1  0  0  0  0
  4 10  1  0  0  0  0
  5  7  2  0  0  0  0
  5 11  1  0  0  0  0
  6  8  1  0  0  0  0
  6 11  2  0  0  0  0
  7 12  1  0  0  0  0
  8 12  2  0  0  0  0
  9 10  2  0  0  0  0
  9 13  1  0  0  0  0
 10 20  1  0  0  0  0
 11 22  1  0  0  0  0
 12 23  1  0  0  0  0
 13 19  1  0  0  0  0
 13 24  2  0  0  0  0
 14 17  1  0  0  0  0
 14 19  2  0  0  0  0
 14 20  1  0  0  0  0
 15 18  1  0  0  0  0
 15 22  1  0  0  0  0
 15 25  2  0  0  0  0
 16 21  1  0  0  0  0
 16 23  1  0  0  0  0
 16 26  2  0  0  0  0
 17 18  1  0  0  0  0
  1 27  1  0  0  0  0
  2 28  1  0  0  0  0
  3 29  1  0  0  0  0
  4 30  1  0  0  0  0
  5 31  1  0  0  0  0
  6 32  1  0  0  0  0
  7 33  1  0  0  0  0
  8 34  1  0  0  0  0
 17 35  1  0  0  0  0
 17 36  1  0  0  0  0
 18 37  1  0  0  0  0
 18 38  1  0  0  0  0
 20 39  1  0  0  0  0
 21 40  1  0  0  0  0
 21 41  1  0  0  0  0
 22 42  1  0  0  0  0
 23 43  1  0  0  0  0
M  END
> <POSIT::Probability>
0.05

> <POSIT::Method>
FRED

> <ReceptorTitle>
UCSF-P4533-REFINED_LIGAND-BOUND-STATE_AALTB__DU__LA1_A-201(A)

> <OMEGA_C>
DGkzwlegwMFIhXe/PuEtwvVGwcGH2ZC/cSU2wsybyMFo64u+YgwrwoXrycG4hBq/dwA/wgJs58G9
65dA5cg+wjFZ9sFgqU1A4YdEwliO6MGd15tAQVBEwpR798G0gFVA4E0zwjVB0cHATII+Ob8twr33
0cGAI789BCE8wu9R7sFe1HpAwi9HwpqV8MEeQoVAQBQ2wo7z2cHGQIA/6e4twjFo4sEU0qc/qA4z
wiFP88F6SEFAnfhPwtpH78GifKxAZMwqwqKu68GwC/A/o1EtwlZc78FeWktAtBQzwtdX4sHQm8A/
hg4rwhK92sHo3yI/qTtNwjqB8MFWz9JAKoY2wk0t7cFk6nJAj7dMwgi28cFILYlA9fE6wk9e2cFm
uZI/Nzg0wv7c+sEyuRJAiKpUwqpm7MGsmatAfZc1wtngucFpt7C/OsUrwuAIu8EAH9a/9HM6whj0
x8EQuh++Ob0mwr5RysHeYj2/GPk8wvUk4cGvs6lAk5Y8wkDD+8E3FyRAq7pGwk4j48E8mrBAXldG
wrXE/cEpBDJAU6IqwmLz8cH6ZI8/osQmwmev6MFewANAd/YqwnYX9sFGEmRA10Itwt796ME8mXtA
RQonws0928HA5wQ/K1tJwu/l8sGpW9JAlQtPwosL78EgR+9AAdM0wh8s58FNw4pAuLdOwmev9ME2
RV5A

> <OMEGA_E>
DivpwA==

> <OMEGA_NBR>
     14273

$$$$
CACHE3HI_1702_92
  -OEChem-03092622513D

 50 52  0     0  0  0  0  0  0999 V2000
  -51.9234  -29.2885    2.9227 C   0  0  0  0  0  0  0  0  0  0  0  0
  -52.9313  -29.9501    3.6927 C   0  0  0  0  0  0  0  0  0  0  0  0
  -50.7033  -28.8276    3.4535 C   0  0  0  0  0  0  0  0  0  0  0  0
  -52.8132  -30.2150    5.0758 C   0  0  0  0  0  0  0  0  0  0  0  0
  -44.8285  -30.4713    1.3067 C   0  0  0  0  0  0  0  0  0  0  0  0
  -46.8747  -31.6824    1.7358 C   0  0  0  0  0  0  0  0  0  0  0  0
  -44.6313  -31.2175    0.1448 C   0  0  0  0  0  0  0  0  0  0  0  0
  -46.6775  -32.4285    0.5739 C   0  0  0  0  0  0  0  0  0  0  0  0
  -50.6177  -29.1017    4.8121 C   0  0  0  0  0  0  0  0  0  0  0  0
  -51.6025  -29.7642    5.6335 C   0  0  0  0  0  0  0  0  0  0  0  0
  -45.9505  -30.7038    2.1021 C   0  0  0  0  0  0  0  0  0  0  0  0
  -45.5556  -32.1961   -0.2216 C   0  0  0  0  0  0  0  0  0  0  0  0
  -49.5658  -28.7867    5.6238 C   0  0  0  0  0  0  0  0  0  0  0  0
  -47.1932  -30.0596    4.1910 C   0  0  0  0  0  0  0  0  0  0  0  0
  -44.2979  -32.8566   -2.3010 C   0  0  0  0  0  0  0  0  0  0  0  0
  -42.5380  -34.8675   -2.4236 C   0  0  0  0  0  0  0  0  0  0  0  0
  -44.6830  -35.9360   -2.2474 C   0  0  0  0  0  0  0  0  0  0  0  0
  -48.2751  -28.1158    5.3955 C   0  0  0  0  0  0  0  0  0  0  0  0
  -47.0579  -29.0650    5.3337 C   0  0  0  0  0  0  0  0  0  0  0  0
  -44.4710  -33.8556   -3.4302 C   0  0  0  0  0  0  0  0  0  0  0  0
  -51.1441  -29.8381    6.8960 N   0  0  0  0  0  0  0  0  0  0  0  0
  -49.9332  -29.2483    6.8544 N   0  0  0  0  0  0  0  0  0  0  0  0
  -46.1511  -29.9471    3.2792 N   0  0  0  0  0  0  0  0  0  0  0  0
  -45.3574  -32.9425   -1.3834 N   0  0  0  0  0  0  0  0  0  0  0  0
  -43.8272  -35.0930   -3.0997 N   0  0  0  0  0  0  0  0  0  0  0  0
  -48.1278  -30.8554    4.1688 O   0  0  0  0  0  0  0  0  0  0  0  0
  -43.3218  -32.1167   -2.2278 O   0  0  0  0  0  0  0  0  0  0  0  0
  -52.1149  -29.1337    1.8610 H   0  0  0  0  0  0  0  0  0  0  0  0
  -53.8400  -30.2667    3.1817 H   0  0  0  0  0  0  0  0  0  0  0  0
  -49.9524  -28.3294    2.8563 H   0  0  0  0  0  0  0  0  0  0  0  0
  -53.5872  -30.7172    5.6409 H   0  0  0  0  0  0  0  0  0  0  0  0
  -44.1025  -29.7104    1.5818 H   0  0  0  0  0  0  0  0  0  0  0  0
  -47.7519  -31.8733    2.3487 H   0  0  0  0  0  0  0  0  0  0  0  0
  -43.7537  -31.0275   -0.4679 H   0  0  0  0  0  0  0  0  0  0  0  0
  -47.4044  -33.1884    0.2980 H   0  0  0  0  0  0  0  0  0  0  0  0
  -41.8849  -34.2426   -3.0395 H   0  0  0  0  0  0  0  0  0  0  0  0
  -42.6971  -34.3690   -1.4633 H   0  0  0  0  0  0  0  0  0  0  0  0
  -42.0373  -35.8217   -2.2374 H   0  0  0  0  0  0  0  0  0  0  0  0
  -45.6476  -36.1170   -2.7304 H   0  0  0  0  0  0  0  0  0  0  0  0
  -44.1985  -36.8983   -2.0598 H   0  0  0  0  0  0  0  0  0  0  0  0
  -44.8584  -35.4456   -1.2859 H   0  0  0  0  0  0  0  0  0  0  0  0
  -48.0812  -27.3755    6.1986 H   0  0  0  0  0  0  0  0  0  0  0  0
  -48.2908  -27.5111    4.4645 H   0  0  0  0  0  0  0  0  0  0  0  0
  -46.1337  -28.4989    5.1618 H   0  0  0  0  0  0  0  0  0  0  0  0
  -46.9281  -29.5923    6.2857 H   0  0  0  0  0  0  0  0  0  0  0  0
  -44.0205  -33.4782   -4.3523 H   0  0  0  0  0  0  0  0  0  0  0  0
  -45.5358  -34.0507   -3.5873 H   0  0  0  0  0  0  0  0  0  0  0  0
  -49.4044  -29.1951    7.7159 H   0  0  0  0  0  0  0  0  0  0  0  0
  -45.4321  -29.2540    3.4748 H   0  0  0  0  0  0  0  0  0  0  0  0
  -46.0724  -33.6474   -1.5991 H   0  0  0  0  0  0  0  0  0  0  0  0
  1  2  1  0  0  0  0
  1  3  2  0  0  0  0
  2  4  2  0  0  0  0
  3  9  1  0  0  0  0
  4 10  1  0  0  0  0
  5  7  2  0  0  0  0
  5 11  1  0  0  0  0
  6  8  1  0  0  0  0
  6 11  2  0  0  0  0
  7 12  1  0  0  0  0
  8 12  2  0  0  0  0
  9 10  1  0  0  0  0
  9 13  2  0  0  0  0
 10 21  2  0  0  0  0
 11 23  1  0  0  0  0
 12 24  1  0  0  0  0
 13 18  1  0  0  0  0
 13 22  1  0  0  0  0
 14 19  1  0  0  0  0
 14 23  1  0  0  0  0
 14 26  2  0  0  0  0
 15 20  1  0  0  0  0
 15 24  1  0  0  0  0
 15 27  2  0  0  0  0
 16 25  1  0  0  0  0
 17 25  1  0  0  0  0
 18 19  1  0  0  0  0
 20 25  1  0  0  0  0
 21 22  1  0  0  0  0
  1 28  1  0  0  0  0
  2 29  1  0  0  0  0
  3 30  1  0  0  0  0
  4 31  1  0  0  0  0
  5 32  1  0  0  0  0
  6 33  1  0  0  0  0
  7 34  1  0  0  0  0
  8 35  1  0  0  0  0
 16 36  1  0  0  0  0
 16 37  1  0  0  0  0
 16 38  1  0  0  0  0
 17 39  1  0  0  0  0
 17 40  1  0  0  0  0
 17 41  1  0  0  0  0
 18 42  1  0  0  0  0
 18 43  1  0  0  0  0
 19 44  1  0  0  0  0
 19 45  1  0  0  0  0
 20 46  1  0  0  0  0
 20 47  1  0  0  0  0
 22 48  1  0  0  0  0
 23 49  1  0  0  0  0
 24 50  1  0  0  0  0
M  END
> <POSIT::Probability>
0.05

> <POSIT::Method>
FRED

> <ReceptorTitle>
UCSF-P4533-REFINED_LIGAND-BOUND-STATE_AALTB__DU__LA1_A-201(A)

> <OMEGA_C>
i7FPwvBO6sHxDDtAo7lTwsiZ78HaVWxAKdBKwuWe5sEyBl1AvUBTwmi48cHrbKJAbVAzwknF88HI
QKc/sX87woV1/cHdLd4/d4YywnO9+cGkOhQ+x7U6wtS2AcLe6xI/j3hKwlbQ6MEL/ZlA92hOwhId
7sG+RbRARs03wmeh9cF7iAZA4zg2wsnIAMJM3mK+akNGwh5L5sEg9rNA1sU8wiR68MHmHIZABTEx
wh9tA8IwQxPA9SYqwlV4C8I8HBvAYrsywnq+D8Lk1Q/AtRlBwhLt4MGcp6xASzs8wiKF6MFKrapA
SeIxwihsB8KsiFvAhZNMwmu07sH2q9xAlrtHwoD86cGcV9tAr5o4wp+T78ES3lFA8W01wifFA8Jz
FLG/A08vwkNfDMIdYUbA6IJAwuXX9sHeZoVAhUktwnZ3AMIIlQ7Ao3VQwuUR6cHsNe4/HFxXwhsi
8sGVoUtAT89Hwq+i4sHezTZATVlWwue89cHmgbRAAGkwwu+u7cHYdso/7QE/wmv8/sGFUBZAyAMv
wmI4+MGAju++EJ49wujABML0mJg+Koonwmb4CMIEh0LA3ckqwt95CcJ3TLu/PSYowmBJD8IsMQ/A
HZc2wsN3EMLsvi7ARcswwuiXE8L90gPA+m4zwkvIDcL1mKS/KFNAwgAB28GpWsZAvylBwrsW3ME8
3Y5A8Ig4wq7948HOLaVAW7Y7wgK97MGFJMlA8RQwwrrpBcKsRYvAsyQ2wvUzCML0lWXAIJ5FwqaP
6cEO6fZAeLo1wikI6sFUY15AJ0o4wumWBsIlrsy/

> <OMEGA_E>
KJDVwA==

> <OMEGA_NBR>
     15772

$$$$
CACHE3HI_1708_46
  -OEChem-03092622513D

 50 52  0     0  0  0  0  0  0999 V2000
  -47.7144  -29.5252    0.9017 C   0  0  0  0  0  0  0  0  0  0  0  0
  -46.3350  -29.3674    1.0359 C   0  0  0  0  0  0  0  0  0  0  0  0
  -46.1684  -33.2428    2.1270 C   0  0  0  0  0  0  0  0  0  0  0  0
  -46.5520  -29.5056    3.4383 C   0  0  0  0  0  0  0  0  0  0  0  0
  -47.1682  -33.5012    1.2154 C   0  0  0  0  0  0  0  0  0  0  0  0
  -45.0353  -32.9576    0.1176 C   0  0  0  0  0  0  0  0  0  0  0  0
  -44.9325  -32.9278    1.4914 C   0  0  0  0  0  0  0  0  0  0  0  0
  -47.9313  -29.6634    3.3040 C   0  0  0  0  0  0  0  0  0  0  0  0
  -48.5125  -29.6734    2.0359 C   0  0  0  0  0  0  0  0  0  0  0  0
  -45.7538  -29.3575    2.3040 C   0  0  0  0  0  0  0  0  0  0  0  0
  -50.5753  -30.8660    1.1798 C   0  0  0  0  0  0  0  0  0  0  0  0
  -43.6632  -32.6009    2.1894 C   0  0  0  0  0  0  0  0  0  0  0  0
  -43.4172  -29.0348    1.4222 C   0  0  0  0  0  0  0  0  0  0  0  0
  -52.0601  -30.6711    1.3776 C   0  0  0  0  0  0  0  0  0  0  0  0
  -52.1794  -29.2186    1.7944 C   0  0  0  0  0  0  0  0  0  0  0  0
  -50.8746  -28.9452    2.5142 C   0  0  0  0  0  0  0  0  0  0  0  0
  -48.7625  -29.8215    4.5361 C   0  0  0  0  0  0  0  0  0  0  0  0
  -42.0154  -28.8971    2.0035 C   0  0  0  0  0  0  0  0  0  0  0  0
  -41.5631  -30.1058    2.8251 C   0  0  0  0  0  0  0  0  0  0  0  0
  -41.4954  -31.4052    2.0260 C   0  0  0  0  0  0  0  0  0  0  0  0
  -49.9210  -29.8342    1.8784 N   0  0  0  0  0  0  0  0  0  0  0  0
  -44.3554  -29.1977    2.4386 N   0  0  0  0  0  0  0  0  0  0  0  0
  -42.7739  -31.7899    1.4939 N   0  0  0  0  0  0  0  0  0  0  0  0
  -50.1147  -31.8136    0.5596 O   0  0  0  0  0  0  0  0  0  0  0  0
  -43.4564  -33.0651    3.3075 O   0  0  0  0  0  0  0  0  0  0  0  0
  -43.6313  -28.9773    0.2154 O   0  0  0  0  0  0  0  0  0  0  0  0
  -46.6163  -33.3640   -0.4001 S   0  0  0  0  0  0  0  0  0  0  0  0
  -48.1553  -29.5324   -0.0921 H   0  0  0  0  0  0  0  0  0  0  0  0
  -45.7225  -29.2538    0.1451 H   0  0  0  0  0  0  0  0  0  0  0  0
  -46.3217  -33.2793    3.1982 H   0  0  0  0  0  0  0  0  0  0  0  0
  -46.1007  -29.4992    4.4282 H   0  0  0  0  0  0  0  0  0  0  0  0
  -48.1964  -33.7640    1.4204 H   0  0  0  0  0  0  0  0  0  0  0  0
  -44.2617  -32.7615   -0.6122 H   0  0  0  0  0  0  0  0  0  0  0  0
  -52.6075  -30.8764    0.4544 H   0  0  0  0  0  0  0  0  0  0  0  0
  -52.3987  -31.3458    2.1703 H   0  0  0  0  0  0  0  0  0  0  0  0
  -52.2575  -28.5802    0.9059 H   0  0  0  0  0  0  0  0  0  0  0  0
  -53.0552  -29.0352    2.4233 H   0  0  0  0  0  0  0  0  0  0  0  0
  -50.5581  -27.9016    2.4177 H   0  0  0  0  0  0  0  0  0  0  0  0
  -50.9377  -29.2146    3.5748 H   0  0  0  0  0  0  0  0  0  0  0  0
  -49.1034  -28.8489    4.9111 H   0  0  0  0  0  0  0  0  0  0  0  0
  -48.1875  -30.2924    5.3429 H   0  0  0  0  0  0  0  0  0  0  0  0
  -49.6404  -30.4420    4.3236 H   0  0  0  0  0  0  0  0  0  0  0  0
  -41.9581  -27.9812    2.6027 H   0  0  0  0  0  0  0  0  0  0  0  0
  -41.3307  -28.7745    1.1544 H   0  0  0  0  0  0  0  0  0  0  0  0
  -42.2612  -30.2372    3.6608 H   0  0  0  0  0  0  0  0  0  0  0  0
  -40.5769  -29.9079    3.2630 H   0  0  0  0  0  0  0  0  0  0  0  0
  -40.7950  -31.3339    1.1887 H   0  0  0  0  0  0  0  0  0  0  0  0
  -41.1629  -32.2222    2.6741 H   0  0  0  0  0  0  0  0  0  0  0  0
  -44.0077  -29.2010    3.3952 H   0  0  0  0  0  0  0  0  0  0  0  0
  -42.9945  -31.4976    0.5439 H   0  0  0  0  0  0  0  0  0  0  0  0
  1  2  2  0  0  0  0
  1  9  1  0  0  0  0
  2 10  1  0  0  0  0
  3  5  2  0  0  0  0
  3  7  1  0  0  0  0
  4  8  1  0  0  0  0
  4 10  2  0  0  0  0
  5 27  1  0  0  0  0
  6  7  2  0  0  0  0
  6 27  1  0  0  0  0
  7 12  1  0  0  0  0
  8  9  2  0  0  0  0
  8 17  1  0  0  0  0
  9 21  1  0  0  0  0
 10 22  1  0  0  0  0
 11 14  1  0  0  0  0
 11 21  1  0  0  0  0
 11 24  2  0  0  0  0
 12 23  1  0  0  0  0
 12 25  2  0  0  0  0
 13 18  1  0  0  0  0
 13 22  1  0  0  0  0
 13 26  2  0  0  0  0
 14 15  1  0  0  0  0
 15 16  1  0  0  0  0
 16 21  1  0  0  0  0
 18 19  1  0  0  0  0
 19 20  1  0  0  0  0
 20 23  1  0  0  0  0
  1 28  1  0  0  0  0
  2 29  1  0  0  0  0
  3 30  1  0  0  0  0
  4 31  1  0  0  0  0
  5 32  1  0  0  0  0
  6 33  1  0  0  0  0
 14 34  1  0  0  0  0
 14 35  1  0  0  0  0
 15 36  1  0  0  0  0
 15 37  1  0  0  0  0
 16 38  1  0  0  0  0
 16 39  1  0  0  0  0
 17 40  1  0  0  0  0
 17 41  1  0  0  0  0
 17 42  1  0  0  0  0
 18 43  1  0  0  0  0
 18 44  1  0  0  0  0
 19 45  1  0  0  0  0
 19 46  1  0  0  0  0
 20 47  1  0  0  0  0
 20 48  1  0  0  0  0
 22 49  1  0  0  0  0
 23 50  1  0  0  0  0
M  END
> <POSIT::Probability>
0.24

> <POSIT::Method>
FRED

> <ReceptorTitle>
UCSF-P4533-REFINED_LIGAND-BOUND-STATE_AALTB__DU__LA1_A-201(A)

> <OMEGA_C>
l9s+wp0z7MHK02Y/EVc5wnHw6sG1mIQ/aKw4wqr4BMLcIAhANzU6woUL7MFbDVxARKw8wjkBBsJt
kZs/MiQ0wpvUA8LAxfA95Lozwh62A8Il5r4/rbk/wqxO7cF4dVNA1QxCwgZj7cG6TAJA7AM3whfc
6sEZdRNAH01Kwqnt9sEtApc/GKcuwllnAsL+HgxAOKstwlJH6MH4CbY/kT1Qwm5e9cFUVbA/tbdQ
wpy/6cFgruU/mn9LwsyP58He5yBAwgxDwnSS7sF+J5FAxg8owlgt58GIOABAk0AmwqnY8MG2zTRA
R/slwts9+8F9qQFAIq9Hwois7sGrbvA/62sxwuWU6cGcEhxAfxgrwrVR/sEzOb8/eHVIwiuC/sG5
Qw8/XNMtwqxCBMK5rVNAdYYuwm3R58HwmVw+EHc6wr50BcKA08y+Cp9AwnNC7MHgrry9zOM2wtMH
6sEwmhQ+aEk5wvYdBcLYr0xAGmc4wmH+68Gos41AJslAwlIOB8Ir0LU//AsxwskLA8J0uRy/C25S
wtgC98E+pOg+TJhRwjjE+sHn5QpAuwdRwjqk5MHu6Wc/ejhUwh5I6MGaFxtAhjtKwmo238GsuxpA
NsBLwni36cEaymRA32lEwoLK5sGhJ51ABMBAwuBW8sHX+KpAzY9Gwj2J88ENW4pAIdUnwmvZ38FU
kyZAqVIlwhoy5sH4wpM/egspws7l8cFKS2pAvE4iwkhD78ES1VBACy4jwr+r+sG3KJg/0aYkwofj
AMLdJCtA7Acwwp6b6cEpS1lAV/orwiT7+8HEOws/

> <OMEGA_E>
DKLQwA==

> <OMEGA_NBR>
     17269

$$$$
CACHE3-HO_1690_13
  -OEChem-03092622543D

 40 42  0     1  0  0  0  0  0999 V2000
  -46.1655  -32.4322   -0.1779 C   0  0  0  0  0  0  0  0  0  0  0  0
  -45.4123  -31.2871    0.1050 C   0  0  0  0  0  0  0  0  0  0  0  0
  -45.5058  -33.5919   -0.6357 C   0  0  0  0  0  0  0  0  0  0  0  0
  -43.4288  -32.5145   -0.5859 C   0  0  0  0  0  0  0  0  0  0  0  0
  -43.8033  -29.5631    6.3663 C   0  0  0  0  0  0  0  0  0  0  0  0
  -45.9761  -29.5236    4.7326 C   0  0  0  0  0  0  0  0  0  0  0  0
  -44.0140  -31.3641   -0.0129 C   0  0  0  0  0  0  0  0  0  0  0  0
  -47.3198  -29.4013    4.1497 C   0  0  0  0  0  0  0  0  0  0  0  0
  -48.1745  -29.0874    5.1903 C   0  0  0  0  0  0  0  0  0  0  0  0
  -46.0959  -29.2651    6.1002 C   0  0  0  0  0  0  0  0  0  0  0  0
  -44.7026  -29.8330    4.2130 C   0  0  0  0  0  0  0  0  0  0  0  0
  -47.6645  -29.5846    2.6846 C   0  0  0  0  0  0  0  0  0  0  0  0
  -49.6682  -28.8484    5.1547 C   0  0  0  0  0  0  0  0  0  0  0  0
  -43.3156  -32.3028    2.6172 C   0  0  0  0  0  0  0  0  0  0  0  0
  -43.1538  -30.4371    0.8071 C   0  0  0  0  0  0  0  0  0  0  0  0
  -43.3009  -30.7738    2.3238 C   0  0  1  0  0  0  0  0  0  0  0  0
  -44.1730  -33.6034   -0.8772 N   0  0  0  0  0  0  0  0  0  0  0  0
  -45.0162  -29.2902    6.9057 N   0  0  0  0  0  0  0  0  0  0  0  0
  -43.6334  -29.8372    5.0476 N   0  0  0  0  0  0  0  0  0  0  0  0
  -47.4292  -29.0169    6.3629 N   0  0  0  0  0  0  0  0  0  0  0  0
  -44.5467  -30.1558    2.8647 N   0  0  0  0  0  0  0  0  0  0  0  0
  -47.2375  -32.4280   -0.0476 H   0  0  0  0  0  0  0  0  0  0  0  0
  -45.8931  -30.3681    0.4063 H   0  0  0  0  0  0  0  0  0  0  0  0
  -46.0779  -34.4935   -0.7977 H   0  0  0  0  0  0  0  0  0  0  0  0
  -42.3692  -32.5238   -0.7945 H   0  0  0  0  0  0  0  0  0  0  0  0
  -42.9371  -29.5626    7.0114 H   0  0  0  0  0  0  0  0  0  0  0  0
  -47.9139  -30.6391    2.4951 H   0  0  0  0  0  0  0  0  0  0  0  0
  -48.5275  -28.9522    2.4292 H   0  0  0  0  0  0  0  0  0  0  0  0
  -46.8020  -29.2951    2.0661 H   0  0  0  0  0  0  0  0  0  0  0  0
  -50.1963  -29.8002    5.3133 H   0  0  0  0  0  0  0  0  0  0  0  0
  -49.9449  -28.1391    5.9487 H   0  0  0  0  0  0  0  0  0  0  0  0
  -49.9495  -28.4317    4.1764 H   0  0  0  0  0  0  0  0  0  0  0  0
  -43.4212  -32.4680    3.6996 H   0  0  0  0  0  0  0  0  0  0  0  0
  -44.1616  -32.7689    2.0909 H   0  0  0  0  0  0  0  0  0  0  0  0
  -42.3742  -32.7521    2.2680 H   0  0  0  0  0  0  0  0  0  0  0  0
  -42.1020  -30.5564    0.5079 H   0  0  0  0  0  0  0  0  0  0  0  0
  -43.4691  -29.3979    0.6324 H   0  0  0  0  0  0  0  0  0  0  0  0
  -42.4375  -30.3392    2.8488 H   0  0  0  0  0  0  0  0  0  0  0  0
  -47.8052  -28.8152    7.2673 H   0  0  0  0  0  0  0  0  0  0  0  0
  -45.2885  -30.7890    2.6439 H   0  0  0  0  0  0  0  0  0  0  0  0
  1  2  2  0  0  0  0
  1  3  1  0  0  0  0
  2  7  1  0  0  0  0
  3 17  2  0  0  0  0
  4  7  2  0  0  0  0
  4 17  1  0  0  0  0
  5 18  1  0  0  0  0
  5 19  2  0  0  0  0
  6  8  1  0  0  0  0
  6 10  1  0  0  0  0
  6 11  2  0  0  0  0
  7 15  1  0  0  0  0
  8  9  2  0  0  0  0
  8 12  1  0  0  0  0
  9 13  1  0  0  0  0
  9 20  1  0  0  0  0
 10 18  2  0  0  0  0
 10 20  1  0  0  0  0
 11 19  1  0  0  0  0
 11 21  1  0  0  0  0
 14 16  1  0  0  0  0
 15 16  1  0  0  0  0
 16 21  1  0  0  0  0
  1 22  1  0  0  0  0
  2 23  1  0  0  0  0
  3 24  1  0  0  0  0
  4 25  1  0  0  0  0
  5 26  1  0  0  0  0
 12 27  1  0  0  0  0
 12 28  1  0  0  0  0
 12 29  1  0  0  0  0
 13 30  1  0  0  0  0
 13 31  1  0  0  0  0
 13 32  1  0  0  0  0
 14 33  1  0  0  0  0
 14 34  1  0  0  0  0
 14 35  1  0  0  0  0
 15 36  1  0  0  0  0
 15 37  1  0  0  0  0
 16 38  1  0  0  0  0
 20 39  1  0  0  0  0
 21 40  1  0  0  0  0
M  END
> <POSIT::Probability>
0.79

> <POSIT::Method>
SHAPEFIT

> <ReceptorTitle>
UCSF-P4536-REFINED_LIGAND-BOUND-STATE_A__DU__LA1_A-201(A)

> <OMEGA_C>
bKk4wpm6AcJgNza+MqY1wupL+sHAI9c9+AU2whxeBsLsuiK/E7ctwtsOAsK8/RW/kDYvwkmB7MHn
uMtAj+c3wjsw7MEQcZdATw4wwqjp+sEA71O8dUc9wuo168GkyoRAs7JAwgSz6MHgFqZAJ2I4wv8e
6sHeNMNAeM8ywvup7sHc0IZAa6g+wkCt7MHGzytAPaxGwnvJ5sGj86RAJUMtwho2AcLHfydAfp0s
wkh/88Egm04/GjQtwqkw9sHvuBRAIbEwwuppBsI8j2C/kBA0wkpS6sEY+9xAlIguwqSy7sEOhqFA
frc9wpEi6MGYnMtAzC8ywhI/8cG7VzdAP/M8wkq2AcKK4EK9k5I3wufx8sEiANA+xU84wln5CcLQ
NEy/CHopwl8YAsKgZ0u/n78rwiaA7MG3XeBA16c/ws0c9cFNsB9ALhxCwhue58F0dxtASzU7wnZc
6sGgOwRA+MhIwuFm7sE1BqpAksdHwtUc4cGPW75AUsxHwgh048HipIVAWK8twkffAcJzxWxAhqUw
wl4TA8Lb0QVAKX8pwioCA8LUJhFAdGgownhz9MEOBAI/ZuAtwuEu68F55SE/9b8pwra28sFRUzZA
fTg/wm+F5sF+jehAaic1wtpP9sEmNSlA

> <OMEGA_E>
6sMKPw==

> <OMEGA_NBR>
      1325

$$$$
CACHE3-HO_1690_15
  -OEChem-03092622543D

 42 44  0     1  0  0  0  0  0999 V2000
  -45.2310  -32.9193   -0.8472 C   0  0  0  0  0  0  0  0  0  0  0  0
  -44.0569  -32.2292   -1.1490 C   0  0  0  0  0  0  0  0  0  0  0  0
  -45.8869  -32.6835    0.3609 C   0  0  0  0  0  0  0  0  0  0  0  0
  -43.5390  -31.3034   -0.2430 C   0  0  0  0  0  0  0  0  0  0  0  0
  -45.3690  -31.7577    1.2669 C   0  0  0  0  0  0  0  0  0  0  0  0
  -43.8850  -29.4333    6.1320 C   0  0  0  0  0  0  0  0  0  0  0  0
  -46.0776  -29.2380    4.6331 C   0  0  0  0  0  0  0  0  0  0  0  0
  -44.1950  -31.0677    0.9651 C   0  0  0  0  0  0  0  0  0  0  0  0
  -47.4242  -29.1205    4.2032 C   0  0  0  0  0  0  0  0  0  0  0  0
  -48.2153  -29.0575    5.3306 C   0  0  0  0  0  0  0  0  0  0  0  0
  -46.0945  -29.2429    6.0223 C   0  0  0  0  0  0  0  0  0  0  0  0
  -44.8282  -29.3431    4.0231 C   0  0  0  0  0  0  0  0  0  0  0  0
  -47.9058  -29.0730    2.8069 C   0  0  0  0  0  0  0  0  0  0  0  0
  -49.6785  -28.9351    5.4814 C   0  0  0  0  0  0  0  0  0  0  0  0
  -41.6648  -29.7052    3.5625 C   0  0  0  0  0  0  0  0  0  0  0  0
  -43.6298  -30.0569    1.9546 C   0  0  2  0  0  0  0  0  0  0  0  0
  -42.6444  -30.7073    2.9537 C   0  0  1  0  0  0  0  0  0  0  0  0
  -45.0302  -29.3383    6.8381 N   0  0  0  0  0  0  0  0  0  0  0  0
  -43.7184  -29.4417    4.7904 N   0  0  0  0  0  0  0  0  0  0  0  0
  -47.3978  -29.1329    6.4291 N   0  0  0  0  0  0  0  0  0  0  0  0
  -44.7060  -29.3494    2.6556 N   0  0  0  0  0  0  0  0  0  0  0  0
  -41.8759  -31.6882    2.2503 O   0  0  0  0  0  0  0  0  0  0  0  0
  -45.6342  -33.6401   -1.5524 H   0  0  0  0  0  0  0  0  0  0  0  0
  -43.5463  -32.4124   -2.0898 H   0  0  0  0  0  0  0  0  0  0  0  0
  -46.8009  -33.2209    0.5962 H   0  0  0  0  0  0  0  0  0  0  0  0
  -42.6237  -30.7706   -0.4869 H   0  0  0  0  0  0  0  0  0  0  0  0
  -45.8878  -31.5801    2.2052 H   0  0  0  0  0  0  0  0  0  0  0  0
  -42.9758  -29.5137    6.7180 H   0  0  0  0  0  0  0  0  0  0  0  0
  -48.1277  -30.0788    2.4126 H   0  0  0  0  0  0  0  0  0  0  0  0
  -47.1552  -28.6360    2.1269 H   0  0  0  0  0  0  0  0  0  0  0  0
  -48.8244  -28.4700    2.7258 H   0  0  0  0  0  0  0  0  0  0  0  0
  -50.1748  -29.9200    5.5207 H   0  0  0  0  0  0  0  0  0  0  0  0
  -50.1379  -28.3957    4.6352 H   0  0  0  0  0  0  0  0  0  0  0  0
  -49.9386  -28.3923    6.4050 H   0  0  0  0  0  0  0  0  0  0  0  0
  -41.1132  -29.1734    2.7794 H   0  0  0  0  0  0  0  0  0  0  0  0
  -42.1716  -28.9721    4.1968 H   0  0  0  0  0  0  0  0  0  0  0  0
  -40.9180  -30.2249    4.1735 H   0  0  0  0  0  0  0  0  0  0  0  0
  -43.0696  -29.3045    1.3834 H   0  0  0  0  0  0  0  0  0  0  0  0
  -43.1789  -31.2211    3.7613 H   0  0  0  0  0  0  0  0  0  0  0  0
  -47.7059  -29.1138    7.3915 H   0  0  0  0  0  0  0  0  0  0  0  0
  -45.3701  -28.8546    2.0889 H   0  0  0  0  0  0  0  0  0  0  0  0
  -41.2979  -32.1011    2.9079 H   0  0  0  0  0  0  0  0  0  0  0  0
  1  2  1  0  0  0  0
  1  3  2  0  0  0  0
  2  4  2  0  0  0  0
  3  5  1  0  0  0  0
  4  8  1  0  0  0  0
  5  8  2  0  0  0  0
  6 18  1  0  0  0  0
  6 19  2  0  0  0  0
  7  9  1  0  0  0  0
  7 11  1  0  0  0  0
  7 12  2  0  0  0  0
  8 16  1  0  0  0  0
  9 10  2  0  0  0  0
  9 13  1  0  0  0  0
 10 14  1  0  0  0  0
 10 20  1  0  0  0  0
 11 18  2  0  0  0  0
 11 20  1  0  0  0  0
 12 19  1  0  0  0  0
 12 21  1  0  0  0  0
 15 17  1  0  0  0  0
 16 17  1  0  0  0  0
 16 21  1  0  0  0  0
 17 22  1  0  0  0  0
  1 23  1  0  0  0  0
  2 24  1  0  0  0  0
  3 25  1  0  0  0  0
  4 26  1  0  0  0  0
  5 27  1  0  0  0  0
  6 28  1  0  0  0  0
 13 29  1  0  0  0  0
 13 30  1  0  0  0  0
 13 31  1  0  0  0  0
 14 32  1  0  0  0  0
 14 33  1  0  0  0  0
 14 34  1  0  0  0  0
 15 35  1  0  0  0  0
 15 36  1  0  0  0  0
 15 37  1  0  0  0  0
 16 38  1  0  0  0  0
 17 39  1  0  0  0  0
 20 40  1  0  0  0  0
 21 41  1  0  0  0  0
 22 42  1  0  0  0  0
M  END
> <POSIT::Probability>
0.62

> <POSIT::Method>
HYBRID

> <ReceptorTitle>
UCSF-P4536-REFINED_LIGAND-BOUND-STATE_A__DU__LA1_A-201(A)

> <OMEGA_C>
hOw0wl6tA8I+4li/SDowwrbqAMKXEZO/M4w3wvO7AsKrzLg++ScuwmVt+sHq4Hi+5Xk1wt8P/sGi
KKI/NYovwm9368G/OcRAbU84wmPn6cEKQpRAtMcwwpWK+MEaE3c/WbI9wtL26MHggIZAddxAwrt1
6MGMlKpAy2A4wm7x6cHVtsBAFFAzwpq+6sHuvIBAl58/wm+V6MHBozNA07ZGwhx758EBaK9Atagm
wiyk7cEbAGRA94Quwot08MHOMfo/3ZMqwnuo9cHXCD1A9h40wu206sGE0dpAqN8uwoyI68HYSplA
WJc9wjMQ6cEBu81A6tIywoDL6sH/9SlA84AnwmuB/cG2BBBAZYk2wnKPBsJRtca/Xy8uwkmmAcLt
vwXAJjQ7wi/iBMJanxg/oX4qwkQq9sH9R/m+GY03whWk/MHRIQ1AO+crwgEc7MEc+tZA0IJAwlCh
8MFPZxpA9Z48wm4W5cHYHwhAL0xDwojC48HUci5AAbNIwitc78HMqbBAOI1Iwmgq48EyU5RALMFH
wnwj48Eo9sxA33MkwjZj6cH94DFArq8owuXG58GMTIZACawjwpXM8cHojIVAREcswqhv6sEPFLE/
KrcswsLE+cG0uHBAy9I+wijp6MGDh+xAB3s1wiDW5sESsQVADjElwpNnAMKUGjpA

> <OMEGA_E>
9tE5wQ==

> <OMEGA_NBR>
      2668

$$$$
CACHE3-HO_1690_2
  -OEChem-03092622543D

 45 47  0     1  0  0  0  0  0999 V2000
  -45.4499  -33.0556   -1.3785 C   0  0  0  0  0  0  0  0  0  0  0  0
  -44.0839  -32.7877   -1.4670 C   0  0  0  0  0  0  0  0  0  0  0  0
  -46.2944  -32.1609   -0.7214 C   0  0  0  0  0  0  0  0  0  0  0  0
  -43.5624  -31.6253   -0.8988 C   0  0  0  0  0  0  0  0  0  0  0  0
  -45.7729  -30.9985   -0.1531 C   0  0  0  0  0  0  0  0  0  0  0  0
  -43.6692  -29.5952    6.0641 C   0  0  0  0  0  0  0  0  0  0  0  0
  -45.8880  -29.4652    4.5969 C   0  0  0  0  0  0  0  0  0  0  0  0
  -44.4069  -30.7306   -0.2416 C   0  0  0  0  0  0  0  0  0  0  0  0
  -47.2359  -29.3156    4.1814 C   0  0  0  0  0  0  0  0  0  0  0  0
  -47.9861  -29.0306    5.3024 C   0  0  0  0  0  0  0  0  0  0  0  0
  -45.8629  -29.2644    5.9715 C   0  0  0  0  0  0  0  0  0  0  0  0
  -44.6678  -29.7486    3.9845 C   0  0  0  0  0  0  0  0  0  0  0  0
  -47.7555  -29.4395    2.8034 C   0  0  0  0  0  0  0  0  0  0  0  0
  -49.4324  -28.7824    5.4626 C   0  0  0  0  0  0  0  0  0  0  0  0
  -43.8430  -29.4725    0.3736 C   0  0  0  0  0  0  0  0  0  0  0  0
  -42.3146  -30.7337    1.9928 C   0  0  0  0  0  0  0  0  0  0  0  0
  -42.8509  -32.1640    2.0087 C   0  0  0  0  0  0  0  0  0  0  0  0
  -43.3959  -29.6407    1.8410 C   0  0  2  0  0  0  0  0  0  0  0  0
  -44.7832  -29.3152    6.7709 N   0  0  0  0  0  0  0  0  0  0  0  0
  -43.5445  -29.8128    4.7356 N   0  0  0  0  0  0  0  0  0  0  0  0
  -47.1426  -29.0023    6.3833 N   0  0  0  0  0  0  0  0  0  0  0  0
  -44.5880  -29.9647    2.6311 N   0  0  0  0  0  0  0  0  0  0  0  0
  -43.7683  -32.3268    3.0793 O   0  0  0  0  0  0  0  0  0  0  0  0
  -45.8559  -33.9605   -1.8208 H   0  0  0  0  0  0  0  0  0  0  0  0
  -43.4263  -33.4840   -1.9790 H   0  0  0  0  0  0  0  0  0  0  0  0
  -47.3580  -32.3694   -0.6522 H   0  0  0  0  0  0  0  0  0  0  0  0
  -42.4967  -31.4251   -0.9727 H   0  0  0  0  0  0  0  0  0  0  0  0
  -46.4390  -30.3070    0.3560 H   0  0  0  0  0  0  0  0  0  0  0  0
  -42.7502  -29.6537    6.6372 H   0  0  0  0  0  0  0  0  0  0  0  0
  -48.0574  -30.4737    2.5678 H   0  0  0  0  0  0  0  0  0  0  0  0
  -46.9979  -29.1624    2.0511 H   0  0  0  0  0  0  0  0  0  0  0  0
  -48.6328  -28.7904    2.6518 H   0  0  0  0  0  0  0  0  0  0  0  0
  -49.9932  -29.7125    5.6580 H   0  0  0  0  0  0  0  0  0  0  0  0
  -49.8794  -28.3417    4.5548 H   0  0  0  0  0  0  0  0  0  0  0  0
  -49.6266  -28.0923    6.3001 H   0  0  0  0  0  0  0  0  0  0  0  0
  -44.6185  -28.6979    0.3048 H   0  0  0  0  0  0  0  0  0  0  0  0
  -43.0056  -29.1044   -0.2352 H   0  0  0  0  0  0  0  0  0  0  0  0
  -41.6190  -30.6537    1.1494 H   0  0  0  0  0  0  0  0  0  0  0  0
  -41.7319  -30.5626    2.9059 H   0  0  0  0  0  0  0  0  0  0  0  0
  -43.3774  -32.3703    1.0711 H   0  0  0  0  0  0  0  0  0  0  0  0
  -42.0461  -32.8976    2.1147 H   0  0  0  0  0  0  0  0  0  0  0  0
  -43.0015  -28.6868    2.2091 H   0  0  0  0  0  0  0  0  0  0  0  0
  -47.4192  -28.8197    7.3382 H   0  0  0  0  0  0  0  0  0  0  0  0
  -45.3672  -30.3606    2.1380 H   0  0  0  0  0  0  0  0  0  0  0  0
  -44.0791  -33.2465    3.0470 H   0  0  0  0  0  0  0  0  0  0  0  0
  1  2  1  0  0  0  0
  1  3  2  0  0  0  0
  2  4  2  0  0  0  0
  3  5  1  0  0  0  0
  4  8  1  0  0  0  0
  5  8  2  0  0  0  0
  6 19  1  0  0  0  0
  6 20  2  0  0  0  0
  7  9  1  0  0  0  0
  7 11  1  0  0  0  0
  7 12  2  0  0  0  0
  8 15  1  0  0  0  0
  9 10  2  0  0  0  0
  9 13  1  0  0  0  0
 10 14  1  0  0  0  0
 10 21  1  0  0  0  0
 11 19  2  0  0  0  0
 11 21  1  0  0  0  0
 12 20  1  0  0  0  0
 12 22  1  0  0  0  0
 15 18  1  0  0  0  0
 16 17  1  0  0  0  0
 16 18  1  0  0  0  0
 17 23  1  0  0  0  0
 18 22  1  0  0  0  0
  1 24  1  0  0  0  0
  2 25  1  0  0  0  0
  3 26  1  0  0  0  0
  4 27  1  0  0  0  0
  5 28  1  0  0  0  0
  6 29  1  0  0  0  0
 13 30  1  0  0  0  0
 13 31  1  0  0  0  0
 13 32  1  0  0  0  0
 14 33  1  0  0  0  0
 14 34  1  0  0  0  0
 14 35  1  0  0  0  0
 15 36  1  0  0  0  0
 15 37  1  0  0  0  0
 16 38  1  0  0  0  0
 16 39  1  0  0  0  0
 17 40  1  0  0  0  0
 17 41  1  0  0  0  0
 18 42  1  0  0  0  0
 21 43  1  0  0  0  0
 22 44  1  0  0  0  0
 23 45  1  0  0  0  0
M  END
> <POSIT::Probability>
0.67

> <POSIT::Method>
HYBRID

> <ReceptorTitle>
UCSF-P4536-REFINED_LIGAND-BOUND-STATE_A__DU__LA1_A-201(A)

> <OMEGA_C>
uMw1wvA4BMJQc7C/4lUwwo8mA8Lgxru/ci05wsmkAMKQqji/6D8uwogA/cEwFWa/eBc3wvn898FA
yBy+Oq0uwgDD7MEYDcJARI03wr+468HWGZNAsqAxwi3Y9cHAXne+ivE8wmeG6sEMzoVA0PE/wro+
6MGqralAnHM3wpEd6sE4Fr9A3qsywgz97cHAAX9AoAU/wgyE68GoazNAvrpFwlJC5sGkza5AO18v
wrzH68FgRb8+JkIpwqDe9cHgFP8/V2crwuynAMJEjwBAcpUtwiMg7cEIpes/DCIzwoqF6sEQq9hA
lC0uwrCA7sHWiZdADpI8wqwE6MEERMxAIloywsi378GcZChAuRIvwppOAcIYE0VAemw3wpjXB8Jg
Eem/fbQtwqPvBcLgUP2/j249wlF6AcJA9Ca/pvwpwotm+8EAAnm/hcE5wqd08sFgR7Y+MgArwtY6
7cH8Y9RAyDpAwjTK88EIVyRAz/07wqdM6cEERgNA/YdCwtZS5sHctylAFvlHwiKz7cF6DrVAh4RH
ws274sHUwJFAnoFGwhO94MFwmslAUXkywlKV5cHAE5w+tAUswubV6MHA0HC+0nkmwsY69cHYHpM/
fu0mwkyA9MFY+jlAaoItwjJ7AcJgGok/My8owiiXA8JwVwdAhQEswpp+5cGIYg1AR609wr+O5sFC
0upA/nc1wpXi8sEI1QhA81Awwmj8BMKIAUNA

> <OMEGA_E>
OtpNwQ==

> <OMEGA_NBR>
      4066

$$$$
CACHE3-HO_1690_20
  -OEChem-03092622543D

 44 46  0     1  0  0  0  0  0999 V2000
  -44.6836  -33.6512   -1.6223 C   0  0  0  0  0  0  0  0  0  0  0  0
  -43.9935  -32.4327   -1.7133 C   0  0  0  0  0  0  0  0  0  0  0  0
  -44.8971  -34.2479   -0.3672 C   0  0  0  0  0  0  0  0  0  0  0  0
  -43.5295  -31.8050   -0.5498 C   0  0  0  0  0  0  0  0  0  0  0  0
  -43.7976  -29.6136    6.3689 C   0  0  0  0  0  0  0  0  0  0  0  0
  -45.9689  -29.5293    4.7430 C   0  0  0  0  0  0  0  0  0  0  0  0
  -44.4149  -33.6343    0.8084 C   0  0  0  0  0  0  0  0  0  0  0  0
  -43.7500  -32.3820    0.7227 C   0  0  0  0  0  0  0  0  0  0  0  0
  -47.2979  -29.3866    4.1419 C   0  0  0  0  0  0  0  0  0  0  0  0
  -48.1554  -29.0714    5.1756 C   0  0  0  0  0  0  0  0  0  0  0  0
  -46.0858  -29.2697    6.1071 C   0  0  0  0  0  0  0  0  0  0  0  0
  -44.7108  -29.8393    4.2160 C   0  0  0  0  0  0  0  0  0  0  0  0
  -44.4858  -34.4041    2.1109 C   0  0  0  0  0  0  0  0  0  0  0  0
  -47.6286  -29.5650    2.6668 C   0  0  0  0  0  0  0  0  0  0  0  0
  -49.6445  -28.8270    5.1172 C   0  0  0  0  0  0  0  0  0  0  0  0
  -42.1655  -29.4702    2.5473 C   0  0  0  0  0  0  0  0  0  0  0  0
  -43.0648  -31.7478    1.9251 C   0  0  0  0  0  0  0  0  0  0  0  0
  -43.3942  -30.2434    2.0377 C   0  0  1  0  0  0  0  0  0  0  0  0
  -45.0033  -29.3085    6.9110 N   0  0  0  0  0  0  0  0  0  0  0  0
  -43.6403  -29.8885    5.0477 N   0  0  0  0  0  0  0  0  0  0  0  0
  -47.4177  -29.0012    6.3566 N   0  0  0  0  0  0  0  0  0  0  0  0
  -44.6224  -30.0460    2.8398 N   0  0  0  0  0  0  0  0  0  0  0  0
  -45.0511  -34.1311   -2.5173 H   0  0  0  0  0  0  0  0  0  0  0  0
  -43.8204  -31.9798   -2.6783 H   0  0  0  0  0  0  0  0  0  0  0  0
  -45.4341  -35.1827   -0.3025 H   0  0  0  0  0  0  0  0  0  0  0  0
  -42.9968  -30.8686   -0.6255 H   0  0  0  0  0  0  0  0  0  0  0  0
  -42.9302  -29.6388    7.0119 H   0  0  0  0  0  0  0  0  0  0  0  0
  -43.5865  -35.0285    2.2178 H   0  0  0  0  0  0  0  0  0  0  0  0
  -44.5434  -33.6973    2.9518 H   0  0  0  0  0  0  0  0  0  0  0  0
  -45.3794  -35.0456    2.1093 H   0  0  0  0  0  0  0  0  0  0  0  0
  -47.8875  -30.6164    2.4731 H   0  0  0  0  0  0  0  0  0  0  0  0
  -48.4815  -28.9227    2.4021 H   0  0  0  0  0  0  0  0  0  0  0  0
  -46.7558  -29.2844    2.0590 H   0  0  0  0  0  0  0  0  0  0  0  0
  -50.1787  -29.7765    5.2693 H   0  0  0  0  0  0  0  0  0  0  0  0
  -49.9304  -28.1152    5.9057 H   0  0  0  0  0  0  0  0  0  0  0  0
  -49.9094  -28.4108    4.1340 H   0  0  0  0  0  0  0  0  0  0  0  0
  -42.4105  -28.4006    2.6239 H   0  0  0  0  0  0  0  0  0  0  0  0
  -41.8771  -29.8520    3.5378 H   0  0  0  0  0  0  0  0  0  0  0  0
  -41.3300  -29.6055    1.8447 H   0  0  0  0  0  0  0  0  0  0  0  0
  -43.4039  -32.2571    2.8393 H   0  0  0  0  0  0  0  0  0  0  0  0
  -41.9764  -31.8682    1.8206 H   0  0  0  0  0  0  0  0  0  0  0  0
  -43.5998  -29.8839    1.0187 H   0  0  0  0  0  0  0  0  0  0  0  0
  -47.7985  -28.7871    7.2562 H   0  0  0  0  0  0  0  0  0  0  0  0
  -45.1744  -30.8620    2.6676 H   0  0  0  0  0  0  0  0  0  0  0  0
  1  2  1  0  0  0  0
  1  3  2  0  0  0  0
  2  4  2  0  0  0  0
  3  7  1  0  0  0  0
  4  8  1  0  0  0  0
  5 19  2  0  0  0  0
  5 20  1  0  0  0  0
  6  9  1  0  0  0  0
  6 11  2  0  0  0  0
  6 12  1  0  0  0  0
  7  8  2  0  0  0  0
  7 13  1  0  0  0  0
  8 17  1  0  0  0  0
  9 10  2  0  0  0  0
  9 14  1  0  0  0  0
 10 15  1  0  0  0  0
 10 21  1  0  0  0  0
 11 19  1  0  0  0  0
 11 21  1  0  0  0  0
 12 20  2  0  0  0  0
 12 22  1  0  0  0  0
 16 18  1  0  0  0  0
 17 18  1  0  0  0  0
 18 22  1  0  0  0  0
  1 23  1  0  0  0  0
  2 24  1  0  0  0  0
  3 25  1  0  0  0  0
  4 26  1  0  0  0  0
  5 27  1  0  0  0  0
 13 28  1  0  0  0  0
 13 29  1  0  0  0  0
 13 30  1  0  0  0  0
 14 31  1  0  0  0  0
 14 32  1  0  0  0  0
 14 33  1  0  0  0  0
 15 34  1  0  0  0  0
 15 35  1  0  0  0  0
 15 36  1  0  0  0  0
 16 37  1  0  0  0  0
 16 38  1  0  0  0  0
 16 39  1  0  0  0  0
 17 40  1  0  0  0  0
 17 41  1  0  0  0  0
 18 42  1  0  0  0  0
 21 43  1  0  0  0  0
 22 44  1  0  0  0  0
M  END
> <POSIT::Probability>
0.79

> <POSIT::Method>
SHAPEFIT

> <ReceptorTitle>
UCSF-P4536-REFINED_LIGAND-BOUND-STATE_A__DU__LA1_A-201(A)

> <OMEGA_C>
/rsywsuaBsIbqM+/WvkvwiC7AcJDTtu/ppYzwtz9CMK4ALy+QR4uwpdw/sGqwgy/xzAvwpPo7MFZ
zstAIuA3who87MHpxpdA5agxwouJBsKq9U4/AQAvwjiHAcJvAzk/BzE9wq4X68EVioRAI59AwjCS
6MFfnqVA0lc4wl8o6sEibcNA49cywvi27sEY6YZAdvExwtGdCcKqGAdAsoM+wgaF7ME4rSpA/ZNG
wqid5sHjv6NAeKkowvzC68F+ByNAVUIswnn7/cH6avY/r5Mtwojy8cGtaQJAZgM0wrt36sGhJt1A
qY8uwr8b78EAh6FAwqs9wo8C6MGAactAYn0ywkJe8MFlvzVAUjQ0wj6GCMKLGyHADUgvwo3W/8G/
aSvAhbw1whq7DML53Jq+u/wrwtPy9sH9IiC/kLgrwkYc7cFjYeBAlFguwisdDMIf8A1AZSwywgTK
BsKR6TxAdoQ1wr4uDMJD/wZA0Yw/wkvu9MGGRx5AD+1Bwqdh58GhvBlA8QU7wnlG6sHZxQNA/bZI
wjQ27sHBnahArrhHwgHs4ME4+7xAMqNHwltJ48GZSYRAZaQpwmU048GE7SdAKYInwtLQ7sHka2JA
6VElwv/X7MF9IOw/o50twjwHAcJZtjVA1OcnwiHy/sGjCuk/MWYuwioS78EoY4I/tDE/wg1M5sFl
MuhAjrI0wkfl9sGouipA

> <OMEGA_E>
XDUIPw==

> <OMEGA_NBR>
      5471

$$$$
CACHE3-HO_1690_24
  -OEChem-03092622543D

 40 42  0     1  0  0  0  0  0999 V2000
  -46.8818  -32.3277    0.0117 C   0  0  0  0  0  0  0  0  0  0  0  0
  -44.7884  -32.6856   -0.8421 C   0  0  0  0  0  0  0  0  0  0  0  0
  -43.8038  -29.5912    6.3594 C   0  0  0  0  0  0  0  0  0  0  0  0
  -45.9739  -29.5008    4.7159 C   0  0  0  0  0  0  0  0  0  0  0  0
  -46.1003  -32.9767   -1.0637 C   0  0  0  0  0  0  0  0  0  0  0  0
  -47.3219  -29.3811    4.1356 C   0  0  0  0  0  0  0  0  0  0  0  0
  -48.1754  -29.0906    5.1820 C   0  0  0  0  0  0  0  0  0  0  0  0
  -46.0936  -29.2633    6.0864 C   0  0  0  0  0  0  0  0  0  0  0  0
  -44.7014  -29.8208    4.2050 C   0  0  0  0  0  0  0  0  0  0  0  0
  -43.7510  -31.1787    2.4082 C   0  0  0  0  0  0  0  0  0  0  0  0
  -46.6176  -33.7830   -2.2208 C   0  0  0  0  0  0  0  0  0  0  0  0
  -47.7002  -29.5647    2.6802 C   0  0  0  0  0  0  0  0  0  0  0  0
  -49.6752  -28.8921    5.1525 C   0  0  0  0  0  0  0  0  0  0  0  0
  -42.3485  -32.2720    0.6182 C   0  0  0  0  0  0  0  0  0  0  0  0
  -43.5688  -31.3565    0.8945 C   0  0  1  0  0  0  0  0  0  0  0  0
  -46.0462  -31.7016    0.8068 N   0  0  0  0  0  0  0  0  0  0  0  0
  -45.0158  -29.3085    6.8951 N   0  0  0  0  0  0  0  0  0  0  0  0
  -43.6345  -29.8553    5.0413 N   0  0  0  0  0  0  0  0  0  0  0  0
  -47.4270  -29.0199    6.3519 N   0  0  0  0  0  0  0  0  0  0  0  0
  -44.8049  -31.9364    0.3064 N   0  0  0  0  0  0  0  0  0  0  0  0
  -44.5290  -30.1156    2.8586 N   0  0  0  0  0  0  0  0  0  0  0  0
  -43.3855  -32.0618    3.1798 O   0  0  0  0  0  0  0  0  0  0  0  0
  -47.9555  -32.3631    0.1233 H   0  0  0  0  0  0  0  0  0  0  0  0
  -43.9332  -32.9772   -1.4338 H   0  0  0  0  0  0  0  0  0  0  0  0
  -42.9401  -29.6066    7.0075 H   0  0  0  0  0  0  0  0  0  0  0  0
  -46.8280  -33.1149   -3.0690 H   0  0  0  0  0  0  0  0  0  0  0  0
  -45.8617  -34.5250   -2.5175 H   0  0  0  0  0  0  0  0  0  0  0  0
  -47.5419  -34.2999   -1.9233 H   0  0  0  0  0  0  0  0  0  0  0  0
  -47.9447  -30.6211    2.4949 H   0  0  0  0  0  0  0  0  0  0  0  0
  -48.5749  -28.9397    2.4472 H   0  0  0  0  0  0  0  0  0  0  0  0
  -46.8558  -29.2664    2.0415 H   0  0  0  0  0  0  0  0  0  0  0  0
  -50.1767  -29.8594    5.3036 H   0  0  0  0  0  0  0  0  0  0  0  0
  -49.9689  -28.1979    5.9536 H   0  0  0  0  0  0  0  0  0  0  0  0
  -49.9705  -28.4743    4.1787 H   0  0  0  0  0  0  0  0  0  0  0  0
  -42.2215  -32.3968   -0.4673 H   0  0  0  0  0  0  0  0  0  0  0  0
  -41.4431  -31.8140    1.0429 H   0  0  0  0  0  0  0  0  0  0  0  0
  -42.5150  -33.2549    1.0831 H   0  0  0  0  0  0  0  0  0  0  0  0
  -43.3770  -30.3718    0.4434 H   0  0  0  0  0  0  0  0  0  0  0  0
  -47.8013  -28.8209    7.2576 H   0  0  0  0  0  0  0  0  0  0  0  0
  -44.9846  -29.5375    2.1816 H   0  0  0  0  0  0  0  0  0  0  0  0
  1  5  1  0  0  0  0
  1 16  2  0  0  0  0
  2  5  2  0  0  0  0
  2 20  1  0  0  0  0
  3 17  2  0  0  0  0
  3 18  1  0  0  0  0
  4  6  1  0  0  0  0
  4  8  2  0  0  0  0
  4  9  1  0  0  0  0
  5 11  1  0  0  0  0
  6  7  2  0  0  0  0
  6 12  1  0  0  0  0
  7 13  1  0  0  0  0
  7 19  1  0  0  0  0
  8 17  1  0  0  0  0
  8 19  1  0  0  0  0
  9 18  2  0  0  0  0
  9 21  1  0  0  0  0
 10 15  1  0  0  0  0
 10 21  1  0  0  0  0
 10 22  2  0  0  0  0
 14 15  1  0  0  0  0
 15 20  1  0  0  0  0
 16 20  1  0  0  0  0
  1 23  1  0  0  0  0
  2 24  1  0  0  0  0
  3 25  1  0  0  0  0
 11 26  1  0  0  0  0
 11 27  1  0  0  0  0
 11 28  1  0  0  0  0
 12 29  1  0  0  0  0
 12 30  1  0  0  0  0
 12 31  1  0  0  0  0
 13 32  1  0  0  0  0
 13 33  1  0  0  0  0
 13 34  1  0  0  0  0
 14 35  1  0  0  0  0
 14 36  1  0  0  0  0
 14 37  1  0  0  0  0
 15 38  1  0  0  0  0
 19 39  1  0  0  0  0
 21 40  1  0  0  0  0
M  END
> <POSIT::Probability>
0.9

> <POSIT::Method>
SHAPEFIT

> <ReceptorTitle>
UCSF-P4536-REFINED_LIGAND-BOUND-STATE_A__DU__LA1_A-201(A)

> <OMEGA_C>
AYc7wpZPAcLQ9j88SCczwgy+AsLblFe/ITcvwtS67MHNf8tAOuU3wroB7MFw6JZAumY4wjDoA8Iu
J4i/pUk9wmoM68EhV4RAqbNAwpe56MHP0qVA5F84wkwb6sF7w8JASM4ywguR7sFFj4ZAEAEvwu5t
+cGZIBpAbHg6wsYhB8ItIg7ADs0+wpSE7MGyiCtAZrNGwgsj58Ee4aRA42QpwoIWAcKUPx4/bUYu
whLa+sFX/mQ/XC84wuec/cFZjE4/LhA0wuN36sFIpNxAsIkuwrnX7sF4UqFAN7U9wr0o6MGMQstA
MTgzwrt9/8ES35w+sx0ywqjs8MGe8zZAvYotwk8/AMKigktAaNI/wsdzAcJ3kfw9m7svwqPoA8LB
hre/qMIrwlba7MGHPeBA3087wp11BMIWakTAbnI3wqYZCsIoHyHA5yo+whAzCcL6L/a/Ycc/wv73
9MHhqx9AvkxCwpuE58GxnhxAWmw7wpgh6sFmqAJA57RIwhjg7sE4t6lAH+BHwkKV4cHsg75A1uFH
wmvL48ECuIVAyOIowkyWAcLfRe++s8UlwiWD/sHMfoU/VQ8qwgIFBcJeo4o/B4Itwl358sEA/+I+
hzQ/wiCR5sHqPehAQPAzwttM7MEGoAtA

> <OMEGA_E>
8CXkPg==

> <OMEGA_NBR>
      6795

$$$$
CACHE3-HO_1690_25
  -OEChem-03092622543D

 38 39  0     1  0  0  0  0  0999 V2000
  -43.1354  -31.7854    0.6255 C   0  0  0  0  0  0  0  0  0  0  0  0
  -43.7982  -29.6394    6.1874 C   0  0  0  0  0  0  0  0  0  0  0  0
  -46.0744  -29.6010    4.6869 C   0  0  0  0  0  0  0  0  0  0  0  0
  -47.4607  -29.4128    4.1965 C   0  0  0  0  0  0  0  0  0  0  0  0
  -48.2260  -29.0651    5.2958 C   0  0  0  0  0  0  0  0  0  0  0  0
  -46.0908  -29.2752    6.0492 C   0  0  0  0  0  0  0  0  0  0  0  0
  -44.8400  -30.0106    4.1127 C   0  0  0  0  0  0  0  0  0  0  0  0
  -47.9615  -29.5300    2.7679 C   0  0  0  0  0  0  0  0  0  0  0  0
  -49.7083  -28.7609    5.3780 C   0  0  0  0  0  0  0  0  0  0  0  0
  -45.4579  -31.6626   -0.2220 C   0  0  0  0  0  0  0  0  0  0  0  0
  -44.5771  -33.7471    0.8193 C   0  0  0  0  0  0  0  0  0  0  0  0
  -44.7337  -29.2097    1.7907 C   0  0  0  0  0  0  0  0  0  0  0  0
  -44.9774  -31.7661    2.3317 C   0  0  0  0  0  0  0  0  0  0  0  0
  -44.5170  -32.2014    0.8908 C   0  0  0  0  0  0  0  0  0  0  0  0
  -42.0432  -31.4351    0.4160 N   0  0  0  0  0  0  0  0  0  0  0  0
  -44.9627  -29.2910    6.7834 N   0  0  0  0  0  0  0  0  0  0  0  0
  -43.7241  -30.0157    4.8837 N   0  0  0  0  0  0  0  0  0  0  0  0
  -47.3937  -28.9893    6.4033 N   0  0  0  0  0  0  0  0  0  0  0  0
  -44.7124  -30.3384    2.7570 N   0  0  2  0  0  0  0  0  0  0  0  0
  -42.8905  -29.6175    6.7722 H   0  0  0  0  0  0  0  0  0  0  0  0
  -48.2899  -30.5624    2.5775 H   0  0  0  0  0  0  0  0  0  0  0  0
  -48.8073  -28.8429    2.6184 H   0  0  0  0  0  0  0  0  0  0  0  0
  -47.1500  -29.2694    2.0725 H   0  0  0  0  0  0  0  0  0  0  0  0
  -50.2614  -29.6862    5.5970 H   0  0  0  0  0  0  0  0  0  0  0  0
  -49.8882  -28.0282    6.1785 H   0  0  0  0  0  0  0  0  0  0  0  0
  -50.0513  -28.3472    4.4183 H   0  0  0  0  0  0  0  0  0  0  0  0
  -46.4907  -31.9793   -0.0148 H   0  0  0  0  0  0  0  0  0  0  0  0
  -45.4087  -30.5639   -0.2434 H   0  0  0  0  0  0  0  0  0  0  0  0
  -45.1403  -32.0628   -1.1961 H   0  0  0  0  0  0  0  0  0  0  0  0
  -45.6057  -34.0840    1.0152 H   0  0  0  0  0  0  0  0  0  0  0  0
  -44.2669  -34.0800   -0.1822 H   0  0  0  0  0  0  0  0  0  0  0  0
  -43.9010  -34.1755    1.5738 H   0  0  0  0  0  0  0  0  0  0  0  0
  -44.6257  -29.5999    0.7679 H   0  0  0  0  0  0  0  0  0  0  0  0
  -45.6884  -28.6702    1.8782 H   0  0  0  0  0  0  0  0  0  0  0  0
  -43.9030  -28.5230    2.0107 H   0  0  0  0  0  0  0  0  0  0  0  0
  -46.0634  -31.9301    2.3924 H   0  0  0  0  0  0  0  0  0  0  0  0
  -44.4666  -32.4227    3.0513 H   0  0  0  0  0  0  0  0  0  0  0  0
  -47.6957  -28.7598    7.3286 H   0  0  0  0  0  0  0  0  0  0  0  0
  1 14  1  0  0  0  0
  1 15  3  0  0  0  0
  2 16  1  0  0  0  0
  2 17  2  0  0  0  0
  3  4  1  0  0  0  0
  3  6  1  0  0  0  0
  3  7  2  0  0  0  0
  4  5  2  0  0  0  0
  4  8  1  0  0  0  0
  5  9  1  0  0  0  0
  5 18  1  0  0  0  0
  6 16  2  0  0  0  0
  6 18  1  0  0  0  0
  7 17  1  0  0  0  0
  7 19  1  0  0  0  0
 10 14  1  0  0  0  0
 11 14  1  0  0  0  0
 12 19  1  0  0  0  0
 13 14  1  0  0  0  0
 13 19  1  0  0  0  0
  2 20  1  0  0  0  0
  8 21  1  0  0  0  0
  8 22  1  0  0  0  0
  8 23  1  0  0  0  0
  9 24  1  0  0  0  0
  9 25  1  0  0  0  0
  9 26  1  0  0  0  0
 10 27  1  0  0  0  0
 10 28  1  0  0  0  0
 10 29  1  0  0  0  0
 11 30  1  0  0  0  0
 11 31  1  0  0  0  0
 11 32  1  0  0  0  0
 12 33  1  0  0  0  0
 12 34  1  0  0  0  0
 12 35  1  0  0  0  0
 13 36  1  0  0  0  0
 13 37  1  0  0  0  0
 18 38  1  0  0  0  0
M  END
> <POSIT::Probability>
0.79

> <POSIT::Method>
SHAPEFIT

> <ReceptorTitle>
UCSF-P4536-REFINED_LIGAND-BOUND-STATE_A__DU__LA1_A-201(A)

> <OMEGA_C>
nYoswmtI/sE/IyA/XjEvwo4d7cHP/sVANUw4wszO7MFV+5VAxdc9wmdN68G5SYZAZOdAwkCF6MFD
d6lA8lw4wqAz6sHOksFAI1wzwr8V8MGcm4NAjNg/wno97MFYJTFAQ9VGwlgW5sHTGKxA5NQ1wutM
/cEAV2O+8U4ywv38BsLIulE/Wu8ywmmt6cFlNOU/z+gzwvEg/sHBORVAbxEywjfOAMJECmQ/PSwo
wi97+8HP/dQ+2tkzwvdT6sFqEdlAfOUuwhYg8MEHR5xAL5M9wifq58Hg58xAf9kywvi08sHQcjBA
548rwpTw7MHKtdhA1yhBwt1/9MFu9SRAszpDwiq+5sGklCdAmpk8wqMn6sEBpARApAtJwlJ97cFC
GrNAj41Hwro54MEitsVAkDRIwgDH4sGKYo1Ag/Y5woTV/8Hqs3G8hKI1wsyC9MG1NHm+pI80wlNA
AMLKGpm/P2w2wgdWCMKC84E/SBExwuVRCMLRlDq+opovwqqzCMJ6c8k/u4AywojM7MHpk0Q/38A2
wohc5cG0afA/rZwvwi0v5MGorgBA40A4wslw/8FfHBlAyN0xwt+wAcL7SENAXsg+wv4T5sG4g+pA

> <OMEGA_E>
SEkMPw==

> <OMEGA_NBR>
      8077

$$$$
CACHE3-HO_1690_26
  -OEChem-03092622543D

 45 47  0     1  0  0  0  0  0999 V2000
  -45.0928  -34.2153    1.1013 C   0  0  0  0  0  0  0  0  0  0  0  0
  -45.3206  -33.9595   -0.2642 C   0  0  0  0  0  0  0  0  0  0  0  0
  -44.5034  -33.2297    1.9152 C   0  0  0  0  0  0  0  0  0  0  0  0
  -44.3556  -31.7300   -0.0063 C   0  0  0  0  0  0  0  0  0  0  0  0
  -43.8164  -29.6018    6.3826 C   0  0  0  0  0  0  0  0  0  0  0  0
  -45.9628  -29.4960    4.7176 C   0  0  0  0  0  0  0  0  0  0  0  0
  -44.9537  -32.7160   -0.8221 C   0  0  0  0  0  0  0  0  0  0  0  0
  -44.0941  -31.9920    1.3582 C   0  0  0  0  0  0  0  0  0  0  0  0
  -47.3023  -29.3519    4.1283 C   0  0  0  0  0  0  0  0  0  0  0  0
  -48.1608  -29.0562    5.1730 C   0  0  0  0  0  0  0  0  0  0  0  0
  -46.0946  -29.2815    6.0939 C   0  0  0  0  0  0  0  0  0  0  0  0
  -44.6867  -29.8020    4.2034 C   0  0  0  0  0  0  0  0  0  0  0  0
  -45.2633  -32.4160   -2.2752 C   0  0  0  0  0  0  0  0  0  0  0  0
  -47.6397  -29.4929    2.6542 C   0  0  0  0  0  0  0  0  0  0  0  0
  -49.6516  -28.7976    5.1405 C   0  0  0  0  0  0  0  0  0  0  0  0
  -42.4062  -31.5463    3.2321 C   0  0  0  0  0  0  0  0  0  0  0  0
  -41.3378  -32.4291    2.5796 C   0  0  0  0  0  0  0  0  0  0  0  0
  -43.4249  -30.9139    2.2146 C   0  0  2  0  0  0  0  0  0  0  0  0
  -45.0306  -29.3475    6.9154 N   0  0  0  0  0  0  0  0  0  0  0  0
  -43.6342  -29.8053    5.0576 N   0  0  0  0  0  0  0  0  0  0  0  0
  -47.4239  -29.0224    6.3517 N   0  0  0  0  0  0  0  0  0  0  0  0
  -44.5287  -30.1009    2.8400 N   0  0  0  0  0  0  0  0  0  0  0  0
  -40.5344  -31.6293    1.7201 O   0  0  0  0  0  0  0  0  0  0  0  0
  -45.3705  -35.1692    1.5249 H   0  0  0  0  0  0  0  0  0  0  0  0
  -45.7768  -34.7158   -0.8857 H   0  0  0  0  0  0  0  0  0  0  0  0
  -44.3623  -33.4173    2.9694 H   0  0  0  0  0  0  0  0  0  0  0  0
  -44.0963  -30.7700   -0.4276 H   0  0  0  0  0  0  0  0  0  0  0  0
  -42.9592  -29.6443    7.0382 H   0  0  0  0  0  0  0  0  0  0  0  0
  -46.2671  -31.9729   -2.3528 H   0  0  0  0  0  0  0  0  0  0  0  0
  -44.5189  -31.7089   -2.6701 H   0  0  0  0  0  0  0  0  0  0  0  0
  -45.2282  -33.3486   -2.8575 H   0  0  0  0  0  0  0  0  0  0  0  0
  -47.8956  -30.5399    2.4346 H   0  0  0  0  0  0  0  0  0  0  0  0
  -48.4965  -28.8473    2.4109 H   0  0  0  0  0  0  0  0  0  0  0  0
  -46.7713  -29.1931    2.0492 H   0  0  0  0  0  0  0  0  0  0  0  0
  -50.1919  -29.7466    5.2728 H   0  0  0  0  0  0  0  0  0  0  0  0
  -49.9214  -28.1060    5.9522 H   0  0  0  0  0  0  0  0  0  0  0  0
  -49.9253  -28.3519    4.1728 H   0  0  0  0  0  0  0  0  0  0  0  0
  -42.9705  -32.1600    3.9497 H   0  0  0  0  0  0  0  0  0  0  0  0
  -41.8998  -30.7292    3.7670 H   0  0  0  0  0  0  0  0  0  0  0  0
  -40.7066  -32.8806    3.3591 H   0  0  0  0  0  0  0  0  0  0  0  0
  -41.8237  -33.2243    1.9951 H   0  0  0  0  0  0  0  0  0  0  0  0
  -42.8531  -30.2564    1.5432 H   0  0  0  0  0  0  0  0  0  0  0  0
  -47.8041  -28.8365    7.2577 H   0  0  0  0  0  0  0  0  0  0  0  0
  -45.3734  -30.5679    2.5785 H   0  0  0  0  0  0  0  0  0  0  0  0
  -39.8695  -32.1716    1.3122 H   0  0  0  0  0  0  0  0  0  0  0  0
  1  2  2  0  0  0  0
  1  3  1  0  0  0  0
  2  7  1  0  0  0  0
  3  8  2  0  0  0  0
  4  7  2  0  0  0  0
  4  8  1  0  0  0  0
  5 19  2  0  0  0  0
  5 20  1  0  0  0  0
  6  9  1  0  0  0  0
  6 11  2  0  0  0  0
  6 12  1  0  0  0  0
  7 13  1  0  0  0  0
  8 18  1  0  0  0  0
  9 10  2  0  0  0  0
  9 14  1  0  0  0  0
 10 15  1  0  0  0  0
 10 21  1  0  0  0  0
 11 19  1  0  0  0  0
 11 21  1  0  0  0  0
 12 20  2  0  0  0  0
 12 22  1  0  0  0  0
 16 17  1  0  0  0  0
 16 18  1  0  0  0  0
 17 23  1  0  0  0  0
 18 22  1  0  0  0  0
  1 24  1  0  0  0  0
  2 25  1  0  0  0  0
  3 26  1  0  0  0  0
  4 27  1  0  0  0  0
  5 28  1  0  0  0  0
 13 29  1  0  0  0  0
 13 30  1  0  0  0  0
 13 31  1  0  0  0  0
 14 32  1  0  0  0  0
 14 33  1  0  0  0  0
 14 34  1  0  0  0  0
 15 35  1  0  0  0  0
 15 36  1  0  0  0  0
 15 37  1  0  0  0  0
 16 38  1  0  0  0  0
 16 39  1  0  0  0  0
 17 40  1  0  0  0  0
 17 41  1  0  0  0  0
 18 42  1  0  0  0  0
 21 43  1  0  0  0  0
 22 44  1  0  0  0  0
 23 45  1  0  0  0  0
M  END
> <POSIT::Probability>
0.79

> <POSIT::Method>
SHAPEFIT

> <ReceptorTitle>
UCSF-P4536-REFINED_LIGAND-BOUND-STATE_A__DU__LA1_A-201(A)

> <OMEGA_C>
/F40woPcCMIN9ow/V0g1wpDWB8JNRoe+cwMywjrrBMIQJvU/GGwxwhHX/cHAOM+7AUQvwmbQ7MFZ
PsxA3dk3wtn368G89pZAotAzwirdAsJad1K/U2AwwpTv/8E+2a0/kzU9wqHQ6sE+G4RApaRAwhpz
6MEIiaVA3mA4wo1A6sHxAMNAMb8ywopq7sEOgoZAlg01wv+pAcIUnBHAC48+wmPx68F03ilAQptG
wnph5sHLfqRA8Z8pwsFe/MHK2k5A51klwma3AcKVFyVAGrMtwsBP98GEuw1ATB80wqLH6sHeSt1A
YYkuwi5x7sGp16FAE7I9wsst6MFzQctAYx0ywpTO8ME2wzVAOSMiwucI/cECLdw/bns1wjutDMIO
L8M/fRs3wgfdCsJovmK/9HIxwl2rBcKbCj5Ao2IwwuIo9sE78tq+OdYrwnkn7cHfOOFAfxE5wpfI
/8EVlRbAZBMyws6r/cEh4irAoek0wu9kBcLp4DbAHpU/wrVR9MGW0BtAZfxBwlTH5sE4TBpA0hU7
wpKL6cFOJQNAfMRIwgn57cHduqhAjK9Hwv3Y4MEZeL5AgrNHwqPQ4sF1h4VAxOErws+jAML/x3xA
cpknwnTV9cG3FXFAj9MiwrqFA8I8/FZAeEsnwqblBMIRX/8/nGkrwi8N8sHLhsU/cjc/whGx5sF7
P+hAVX41whqL9MGfBiVAXHofwrCvAMJy9qc/

> <OMEGA_E>
RjEhPw==

> <OMEGA_NBR>
      9501

$$$$
CACHE3-HO_1690_28
  -OEChem-03092622543D

 45 47  0     1  0  0  0  0  0999 V2000
  -44.6789  -34.1861    1.2246 C   0  0  0  0  0  0  0  0  0  0  0  0
  -44.2904  -33.5167   -1.0642 C   0  0  0  0  0  0  0  0  0  0  0  0
  -44.1088  -32.9933    1.6696 C   0  0  0  0  0  0  0  0  0  0  0  0
  -43.7203  -32.3239   -0.6192 C   0  0  0  0  0  0  0  0  0  0  0  0
  -43.8801  -29.5795    5.6286 C   0  0  0  0  0  0  0  0  0  0  0  0
  -46.2342  -29.6007    4.3835 C   0  0  0  0  0  0  0  0  0  0  0  0
  -44.7698  -34.4476   -0.1424 C   0  0  0  0  0  0  0  0  0  0  0  0
  -43.6295  -32.0624    0.7479 C   0  0  0  0  0  0  0  0  0  0  0  0
  -47.6229  -29.5412    4.1008 C   0  0  0  0  0  0  0  0  0  0  0  0
  -48.2782  -29.3013    5.2899 C   0  0  0  0  0  0  0  0  0  0  0  0
  -46.0894  -29.3932    5.7496 C   0  0  0  0  0  0  0  0  0  0  0  0
  -45.0632  -29.8062    3.6551 C   0  0  0  0  0  0  0  0  0  0  0  0
  -45.3803  -35.7221   -0.6188 C   0  0  0  0  0  0  0  0  0  0  0  0
  -48.2642  -29.7043    2.7794 C   0  0  0  0  0  0  0  0  0  0  0  0
  -49.7153  -29.1474    5.5899 C   0  0  0  0  0  0  0  0  0  0  0  0
  -43.0115  -30.7714    1.2302 C   0  0  0  0  0  0  0  0  0  0  0  0
  -43.3579  -28.3663    1.9033 C   0  0  0  0  0  0  0  0  0  0  0  0
  -44.0364  -29.6364    1.3878 C   0  0  2  0  0  0  0  0  0  0  0  0
  -44.9365  -29.3700    6.4406 N   0  0  0  0  0  0  0  0  0  0  0  0
  -43.8707  -29.7939    4.2938 N   0  0  0  0  0  0  0  0  0  0  0  0
  -47.3377  -29.2135    6.2840 N   0  0  0  0  0  0  0  0  0  0  0  0
  -45.1010  -30.0238    2.2901 N   0  0  0  0  0  0  0  0  0  0  0  0
  -42.4184  -28.7096    2.9161 O   0  0  0  0  0  0  0  0  0  0  0  0
  -45.0510  -34.9049    1.9498 H   0  0  0  0  0  0  0  0  0  0  0  0
  -44.3558  -33.7127   -2.1312 H   0  0  0  0  0  0  0  0  0  0  0  0
  -44.0425  -32.7978    2.7367 H   0  0  0  0  0  0  0  0  0  0  0  0
  -43.3498  -31.6044   -1.3445 H   0  0  0  0  0  0  0  0  0  0  0  0
  -42.9081  -29.5755    6.1099 H   0  0  0  0  0  0  0  0  0  0  0  0
  -46.4622  -35.6139   -0.7711 H   0  0  0  0  0  0  0  0  0  0  0  0
  -45.2416  -36.5285    0.1137 H   0  0  0  0  0  0  0  0  0  0  0  0
  -44.9252  -36.0325   -1.5675 H   0  0  0  0  0  0  0  0  0  0  0  0
  -48.5192  -30.7571    2.5717 H   0  0  0  0  0  0  0  0  0  0  0  0
  -47.6027  -29.3814    1.9579 H   0  0  0  0  0  0  0  0  0  0  0  0
  -49.1927  -29.1146    2.7149 H   0  0  0  0  0  0  0  0  0  0  0  0
  -50.1925  -30.1114    5.8366 H   0  0  0  0  0  0  0  0  0  0  0  0
  -50.2759  -28.7406    4.7307 H   0  0  0  0  0  0  0  0  0  0  0  0
  -49.8722  -28.4681    6.4439 H   0  0  0  0  0  0  0  0  0  0  0  0
  -42.2354  -30.4786    0.5115 H   0  0  0  0  0  0  0  0  0  0  0  0
  -42.4893  -30.9453    2.1807 H   0  0  0  0  0  0  0  0  0  0  0  0
  -44.0931  -27.6869    2.3471 H   0  0  0  0  0  0  0  0  0  0  0  0
  -42.8274  -27.8419    1.1014 H   0  0  0  0  0  0  0  0  0  0  0  0
  -44.5237  -29.4215    0.4292 H   0  0  0  0  0  0  0  0  0  0  0  0
  -47.5319  -29.0455    7.2616 H   0  0  0  0  0  0  0  0  0  0  0  0
  -45.9146  -30.4774    1.8951 H   0  0  0  0  0  0  0  0  0  0  0  0
  -42.0141  -27.8791    3.2128 H   0  0  0  0  0  0  0  0  0  0  0  0
  1  3  2  0  0  0  0
  1  7  1  0  0  0  0
  2  4  1  0  0  0  0
  2  7  2  0  0  0  0
  3  8  1  0  0  0  0
  4  8  2  0  0  0  0
  5 19  2  0  0  0  0
  5 20  1  0  0  0  0
  6  9  1  0  0  0  0
  6 11  2  0  0  0  0
  6 12  1  0  0  0  0
  7 13  1  0  0  0  0
  8 16  1  0  0  0  0
  9 10  2  0  0  0  0
  9 14  1  0  0  0  0
 10 15  1  0  0  0  0
 10 21  1  0  0  0  0
 11 19  1  0  0  0  0
 11 21  1  0  0  0  0
 12 20  2  0  0  0  0
 12 22  1  0  0  0  0
 16 18  1  0  0  0  0
 17 18  1  0  0  0  0
 17 23  1  0  0  0  0
 18 22  1  0  0  0  0
  1 24  1  0  0  0  0
  2 25  1  0  0  0  0
  3 26  1  0  0  0  0
  4 27  1  0  0  0  0
  5 28  1  0  0  0  0
 13 29  1  0  0  0  0
 13 30  1  0  0  0  0
 13 31  1  0  0  0  0
 14 32  1  0  0  0  0
 14 33  1  0  0  0  0
 14 34  1  0  0  0  0
 15 35  1  0  0  0  0
 15 36  1  0  0  0  0
 15 37  1  0  0  0  0
 16 38  1  0  0  0  0
 16 39  1  0  0  0  0
 17 40  1  0  0  0  0
 17 41  1  0  0  0  0
 18 42  1  0  0  0  0
 21 43  1  0  0  0  0
 22 44  1  0  0  0  0
 23 45  1  0  0  0  0
M  END
> <POSIT::Probability>
0.5

> <POSIT::Method>
HYBRID

> <ReceptorTitle>
UCSF-P4536-REFINED_LIGAND-BOUND-STATE_A__DU__LA1_A-201(A)

> <OMEGA_C>
OrcywpK+CMLov5w/YSkxwhQRBsJ6Noi/c28wwi/5A8L5tNU/neEuwrhLAcIOhh6/PoUvwuCi7MF+
HbRA2e84wkTO7MFqRYxAQhQzwljKCcLI2hG+j4Quwuo/AMK0cz8/3X0+wmZU7MHGOYNA4BxBwgtp
6sHBRqlAlls4wjAl68G9/LdAtkA0wihz7sGQ7WlAZoU1wnrjDsJ+Zh6/kw5Bwnmi7cET4TFAa9xG
wugt6cGI4LJAvAsswtAr9sFld50/im4twjbu4sE0nvM/PiUwwnIX7cFIo7E/+b4zwtb16sFSGc5A
jnsvwvdZ7sF0ZolAzlk9wkK16cHRFslAdmc0wrIw8MHJkRJAaawpwjKt5cGCoTpANDQ0wqCeC8LW
k/k/TWwxwsHZBsL+ZAjAjiswwvUwA8KgJS9AKmYtwrfV/MEDF6y/8KErwrea7MEthMNARdk5wq90
DsJEZ0W/Wvc0wiQdEsLQy+g9brMzwkchEMKTosi/rxNCwnIO9sHKliRAL2k+wjAN68Fwm/o/SsVE
wsTq6MFMwS1AKMVIwg/k8MFYxbpAkBpJwrHs5cGeYZdAKn1Hwra+48EaNM5AGPEowhbU88F+8QI/
CfUpwviP98FmkQtAVl8wwq1+3cEWNxZAPU8rwja83sF/+ow/URgywkpf68F4wNs+sCA+wjZd6MEi
X+hAk6g3wrLR88FokfI/eA4owmgI38Eonk1A

> <OMEGA_E>
vEtSwQ==

> <OMEGA_NBR>
     10903

$$$$
CACHE3-HO_1690_3
  -OEChem-03092622543D

 40 43  0     1  0  0  0  0  0999 V2000
  -47.5031  -33.3484    0.0889 C   0  0  0  0  0  0  0  0  0  0  0  0
  -46.6017  -34.4143    0.2850 C   0  0  0  0  0  0  0  0  0  0  0  0
  -47.0264  -32.0315   -0.0360 C   0  0  0  0  0  0  0  0  0  0  0  0
  -45.2206  -34.1648    0.3754 C   0  0  0  0  0  0  0  0  0  0  0  0
  -43.8130  -29.6269    6.3361 C   0  0  0  0  0  0  0  0  0  0  0  0
  -45.9923  -29.4693    4.7059 C   0  0  0  0  0  0  0  0  0  0  0  0
  -47.3501  -29.3132    4.1536 C   0  0  0  0  0  0  0  0  0  0  0  0
  -45.6487  -31.7743    0.0419 C   0  0  0  0  0  0  0  0  0  0  0  0
  -44.7420  -32.8479    0.2732 C   0  0  0  0  0  0  0  0  0  0  0  0
  -48.1834  -29.0338    5.2244 C   0  0  0  0  0  0  0  0  0  0  0  0
  -46.0958  -29.2717    6.0877 C   0  0  0  0  0  0  0  0  0  0  0  0
  -44.7226  -29.8013    4.1756 C   0  0  0  0  0  0  0  0  0  0  0  0
  -43.6465  -31.1464    2.4308 C   0  0  0  0  0  0  0  0  0  0  0  0
  -43.7866  -30.2697    0.0019 C   0  0  0  0  0  0  0  0  0  0  0  0
  -43.1304  -31.2741    0.9707 C   0  0  2  0  0  0  0  0  0  0  0  0
  -47.7300  -29.4400    2.6918 C   0  0  0  0  0  0  0  0  0  0  0  0
  -49.6742  -28.7750    5.2436 C   0  0  0  0  0  0  0  0  0  0  0  0
  -45.0168  -29.3560    6.8875 N   0  0  0  0  0  0  0  0  0  0  0  0
  -43.6535  -29.8505    5.0111 N   0  0  0  0  0  0  0  0  0  0  0  0
  -47.4186  -29.0190    6.3824 N   0  0  0  0  0  0  0  0  0  0  0  0
  -44.5271  -30.1251    2.8277 N   0  0  0  0  0  0  0  0  0  0  0  0
  -43.3645  -32.0487    3.2144 O   0  0  0  0  0  0  0  0  0  0  0  0
  -45.2198  -30.4611   -0.0456 O   0  0  0  0  0  0  0  0  0  0  0  0
  -43.4023  -32.6083    0.4907 O   0  0  0  0  0  0  0  0  0  0  0  0
  -48.5639  -33.5439    0.0343 H   0  0  0  0  0  0  0  0  0  0  0  0
  -46.9727  -35.4253    0.3661 H   0  0  0  0  0  0  0  0  0  0  0  0
  -47.7199  -31.2183   -0.1917 H   0  0  0  0  0  0  0  0  0  0  0  0
  -44.5305  -34.9824    0.5229 H   0  0  0  0  0  0  0  0  0  0  0  0
  -42.9450  -29.6665    6.9776 H   0  0  0  0  0  0  0  0  0  0  0  0
  -43.5708  -29.2464    0.3429 H   0  0  0  0  0  0  0  0  0  0  0  0
  -43.3700  -30.4159   -1.0056 H   0  0  0  0  0  0  0  0  0  0  0  0
  -42.0450  -31.0953    0.9726 H   0  0  0  0  0  0  0  0  0  0  0  0
  -47.9923  -30.4850    2.4700 H   0  0  0  0  0  0  0  0  0  0  0  0
  -48.5935  -28.7924    2.4800 H   0  0  0  0  0  0  0  0  0  0  0  0
  -46.8798  -29.1344    2.0644 H   0  0  0  0  0  0  0  0  0  0  0  0
  -50.2103  -29.7263    5.3767 H   0  0  0  0  0  0  0  0  0  0  0  0
  -49.9180  -28.0974    6.0751 H   0  0  0  0  0  0  0  0  0  0  0  0
  -49.9783  -28.3129    4.2928 H   0  0  0  0  0  0  0  0  0  0  0  0
  -47.7765  -28.8490    7.3006 H   0  0  0  0  0  0  0  0  0  0  0  0
  -45.0277  -29.6157    2.1278 H   0  0  0  0  0  0  0  0  0  0  0  0
  1  2  1  0  0  0  0
  1  3  2  0  0  0  0
  2  4  2  0  0  0  0
  3  8  1  0  0  0  0
  4  9  1  0  0  0  0
  5 18  1  0  0  0  0
  5 19  2  0  0  0  0
  6  7  1  0  0  0  0
  6 11  1  0  0  0  0
  6 12  2  0  0  0  0
  7 10  2  0  0  0  0
  7 16  1  0  0  0  0
  8  9  2  0  0  0  0
  8 23  1  0  0  0  0
  9 24  1  0  0  0  0
 10 17  1  0  0  0  0
 10 20  1  0  0  0  0
 11 18  2  0  0  0  0
 11 20  1  0  0  0  0
 12 19  1  0  0  0  0
 12 21  1  0  0  0  0
 13 15  1  0  0  0  0
 13 21  1  0  0  0  0
 13 22  2  0  0  0  0
 14 15  1  0  0  0  0
 14 23  1  0  0  0  0
 15 24  1  0  0  0  0
  1 25  1  0  0  0  0
  2 26  1  0  0  0  0
  3 27  1  0  0  0  0
  4 28  1  0  0  0  0
  5 29  1  0  0  0  0
 14 30  1  0  0  0  0
 14 31  1  0  0  0  0
 15 32  1  0  0  0  0
 16 33  1  0  0  0  0
 16 34  1  0  0  0  0
 16 35  1  0  0  0  0
 17 36  1  0  0  0  0
 17 37  1  0  0  0  0
 17 38  1  0  0  0  0
 20 39  1  0  0  0  0
 21 40  1  0  0  0  0
M  END
> <POSIT::Probability>
0.72

> <POSIT::Method>
SHAPEFIT

> <ReceptorTitle>
UCSF-P4536-REFINED_LIGAND-BOUND-STATE_A__DU__LA1_A-201(A)

> <OMEGA_C>
OAM+wrhkBcLgCLY9J2g6wjuoCcJC7pE+BRs8wkAgAMKwZhO92OE0wrWoCMKcNsA+eEAvwvcD7cGo
wcpAJ/g3wjnB68HelpZAg2Y9wnCB6sGo6oRASpg2wsIx/sGwgCs9xPcywkhkA8LK24s+17tAwilF
6MFELqdAJmI4wnIs6sFczsJA9OMywvpo7sF3noVACpYuwtcr+cHgkhtAhSUvwlYo8sEAtPY6iYUs
wlAx+sGnf3g/e+s+wjOF68FFRyxAZ7JGwjgz5sFQy6dAKxE0wizZ6sGeZtxAOJ0uwuPN7sGsWqBA
saw9wtom6MF6PMxAthsywiMA8cHq+DRAPnUtwtUxAMJMuU1AC+E0wlqw88GQsjq975stwuZuAsLU
Qfs+a0FCwv4sBsIbngw9EeQ7woazDcKOcLs+IuE+wiG/+cHVU0S+Ph8ywvPtC8Kk2wU/rccrwvFU
7cGISN9AiUguwqb46cFdla8+2XotwtlT88Eft4C/HS4owijD+MGI/Xg/IPg/wkjh88ENFB5AwF9C
wt1W5sF5uB5A3oQ7wkkT6cF7HgRAYNdIwl/P7cHcDaxA/qtHwoHH4MFGZ8JAwelHwriA4sGfXolA
GBs/wtHK5sFdnulAWRw0wtvs7MGWLQhA

> <OMEGA_E>
csUcPw==

> <OMEGA_NBR>
     12227

$$$$
CACHE3-HO_1690_31
  -OEChem-03092622543D

 41 43  0     1  0  0  0  0  0999 V2000
  -46.4052  -32.7895    0.5299 C   0  0  0  0  0  0  0  0  0  0  0  0
  -45.4327  -33.6700    0.1270 C   0  0  0  0  0  0  0  0  0  0  0  0
  -43.7999  -29.5790    6.3716 C   0  0  0  0  0  0  0  0  0  0  0  0
  -45.9648  -29.5339    4.7306 C   0  0  0  0  0  0  0  0  0  0  0  0
  -47.3002  -29.4056    4.1306 C   0  0  0  0  0  0  0  0  0  0  0  0
  -48.1648  -29.0906    5.1597 C   0  0  0  0  0  0  0  0  0  0  0  0
  -46.0944  -29.2755    6.0946 C   0  0  0  0  0  0  0  0  0  0  0  0
  -44.6901  -29.8324    4.2180 C   0  0  0  0  0  0  0  0  0  0  0  0
  -44.5642  -31.5750    0.2937 C   0  0  0  0  0  0  0  0  0  0  0  0
  -47.6398  -29.5925    2.6649 C   0  0  0  0  0  0  0  0  0  0  0  0
  -49.6592  -28.8607    5.0980 C   0  0  0  0  0  0  0  0  0  0  0  0
  -43.0720  -32.1108    2.7214 C   0  0  0  0  0  0  0  0  0  0  0  0
  -43.1709  -33.3150   -0.8703 C   0  0  0  0  0  0  0  0  0  0  0  0
  -43.5092  -30.5718    0.6934 C   0  0  0  0  0  0  0  0  0  0  0  0
  -43.3229  -30.6525    2.2372 C   0  0  1  0  0  0  0  0  0  0  0  0
  -45.8374  -31.5086    0.6147 N   0  0  0  0  0  0  0  0  0  0  0  0
  -45.0169  -29.3018    6.9053 N   0  0  0  0  0  0  0  0  0  0  0  0
  -43.6220  -29.8444    5.0512 N   0  0  0  0  0  0  0  0  0  0  0  0
  -47.4306  -29.0173    6.3411 N   0  0  0  0  0  0  0  0  0  0  0  0
  -44.3610  -32.8660   -0.1190 N   0  0  0  0  0  0  0  0  0  0  0  0
  -44.5533  -30.1096    2.8656 N   0  0  0  0  0  0  0  0  0  0  0  0
  -47.4335  -33.0398    0.7452 H   0  0  0  0  0  0  0  0  0  0  0  0
  -45.5007  -34.7434    0.0285 H   0  0  0  0  0  0  0  0  0  0  0  0
  -42.9384  -29.5889    7.0230 H   0  0  0  0  0  0  0  0  0  0  0  0
  -47.8926  -30.6467    2.4781 H   0  0  0  0  0  0  0  0  0  0  0  0
  -48.4995  -28.9577    2.4040 H   0  0  0  0  0  0  0  0  0  0  0  0
  -46.7739  -29.3085    2.0489 H   0  0  0  0  0  0  0  0  0  0  0  0
  -50.1842  -29.8153    5.2507 H   0  0  0  0  0  0  0  0  0  0  0  0
  -49.9537  -28.1506    5.8848 H   0  0  0  0  0  0  0  0  0  0  0  0
  -49.9264  -28.4489    4.1137 H   0  0  0  0  0  0  0  0  0  0  0  0
  -42.9468  -32.1183    3.8143 H   0  0  0  0  0  0  0  0  0  0  0  0
  -43.9305  -32.7411    2.4465 H   0  0  0  0  0  0  0  0  0  0  0  0
  -42.1614  -32.5035    2.2455 H   0  0  0  0  0  0  0  0  0  0  0  0
  -42.4459  -32.4904   -0.9367 H   0  0  0  0  0  0  0  0  0  0  0  0
  -42.7096  -34.1677   -0.3507 H   0  0  0  0  0  0  0  0  0  0  0  0
  -43.4711  -33.6216   -1.8832 H   0  0  0  0  0  0  0  0  0  0  0  0
  -42.5600  -30.8090    0.1907 H   0  0  0  0  0  0  0  0  0  0  0  0
  -43.8314  -29.5591    0.4095 H   0  0  0  0  0  0  0  0  0  0  0  0
  -42.4590  -30.0334    2.5207 H   0  0  0  0  0  0  0  0  0  0  0  0
  -47.8152  -28.8076    7.2401 H   0  0  0  0  0  0  0  0  0  0  0  0
  -45.2764  -30.7664    2.6517 H   0  0  0  0  0  0  0  0  0  0  0  0
  1  2  2  0  0  0  0
  1 16  1  0  0  0  0
  2 20  1  0  0  0  0
  3 17  1  0  0  0  0
  3 18  2  0  0  0  0
  4  5  1  0  0  0  0
  4  7  1  0  0  0  0
  4  8  2  0  0  0  0
  5  6  2  0  0  0  0
  5 10  1  0  0  0  0
  6 11  1  0  0  0  0
  6 19  1  0  0  0  0
  7 17  2  0  0  0  0
  7 19  1  0  0  0  0
  8 18  1  0  0  0  0
  8 21  1  0  0  0  0
  9 14  1  0  0  0  0
  9 16  2  0  0  0  0
  9 20  1  0  0  0  0
 12 15  1  0  0  0  0
 13 20  1  0  0  0  0
 14 15  1  0  0  0  0
 15 21  1  0  0  0  0
  1 22  1  0  0  0  0
  2 23  1  0  0  0  0
  3 24  1  0  0  0  0
 10 25  1  0  0  0  0
 10 26  1  0  0  0  0
 10 27  1  0  0  0  0
 11 28  1  0  0  0  0
 11 29  1  0  0  0  0
 11 30  1  0  0  0  0
 12 31  1  0  0  0  0
 12 32  1  0  0  0  0
 12 33  1  0  0  0  0
 13 34  1  0  0  0  0
 13 35  1  0  0  0  0
 13 36  1  0  0  0  0
 14 37  1  0  0  0  0
 14 38  1  0  0  0  0
 15 39  1  0  0  0  0
 19 40  1  0  0  0  0
 21 41  1  0  0  0  0
M  END
> <POSIT::Probability>
0.79

> <POSIT::Method>
SHAPEFIT

> <ReceptorTitle>
UCSF-P4536-REFINED_LIGAND-BOUND-STATE_A__DU__LA1_A-201(A)

> <OMEGA_C>
+J45wngoA8L0pAc/D7s1wh2uBsLwCAI+DjMvwsKh7MFq5MtA/ts3wnFF7MHaYJdAWzM9wrE+68FC
LoRAx6hAwnm56MGQHKVAr2A4wjo06sHBBsNAp8Iywsao7sED+oZAxkEywrOZ/MFwX5Y+MY8+wnu9
7MEgjipAEaNGws/i5sElI6NAukkswmlxAMIKLC5AC68swoZCBcKsy16/ZgkuwgqT9MGIhTE/r0ot
wlA49cHKLQ9AjFk3woUR/MGUWh0/WhE0wiBq6sHg99xA4nwuwkPB7sHUo6FA+rg9wlwj6MEk6spA
o3ExwsB2A8LgqPO9mDYywmDg8MGUZjdA7rs9wsgoBMIoxz4/vAA2wjn5CsLOxek88sArwhS27MEe
vOBA/5E/wl4s9cFImR5Acv9BwmCp58Hx2xlAfhg7wsF36sHlIANAk7xIwrmF7sHNBahAkNBHwnY0
4cF0ULxAqLRHwkuX48E2o4NAickrwit5AMLqHHRA1Lgvwuv2AsL8khxAQaUowooDAsKXtQ9Aocgp
wiX2AcIzym+/pdYqwrurCML1irO+ZeItwnp8BsKeC/G/Zz0qwuN49sGOUEM+WFMvwg157MEnptE+
BtYpwnpE8MFOUyFAuEI/wgp25sHFrudA/Bo1wp0h9sHRtSlA

> <OMEGA_E>
tN0QPw==

> <OMEGA_NBR>
     13572

$$$$
CACHE3-HO_1690_34
  -OEChem-03092622543D

 43 45  0     0  0  0  0  0  0999 V2000
  -43.8212  -29.5567    6.4109 C   0  0  0  0  0  0  0  0  0  0  0  0
  -45.9674  -29.5296    4.7429 C   0  0  0  0  0  0  0  0  0  0  0  0
  -47.3043  -29.4223    4.1353 C   0  0  0  0  0  0  0  0  0  0  0  0
  -44.5956  -32.3218    0.1636 C   0  0  0  0  0  0  0  0  0  0  0  0
  -45.6637  -33.1786    0.7709 C   0  0  0  0  0  0  0  0  0  0  0  0
  -48.1783  -29.1144    5.1615 C   0  0  0  0  0  0  0  0  0  0  0  0
  -44.5632  -32.6457   -1.1761 C   0  0  0  0  0  0  0  0  0  0  0  0
  -46.1067  -29.2387    6.1026 C   0  0  0  0  0  0  0  0  0  0  0  0
  -44.6920  -29.8707    4.2501 C   0  0  0  0  0  0  0  0  0  0  0  0
  -43.7818  -31.1754    2.3372 C   0  0  0  0  0  0  0  0  0  0  0  0
  -47.6392  -29.5952    2.6620 C   0  0  0  0  0  0  0  0  0  0  0  0
  -46.0921  -33.2936    2.2178 C   0  0  0  0  0  0  0  0  0  0  0  0
  -49.6801  -28.9251    5.1013 C   0  0  0  0  0  0  0  0  0  0  0  0
  -43.6805  -32.0832   -2.2748 C   0  0  0  0  0  0  0  0  0  0  0  0
  -45.8075  -34.3160   -2.5886 C   0  0  0  0  0  0  0  0  0  0  0  0
  -43.6999  -31.2617    0.8049 C   0  0  0  0  0  0  0  0  0  0  0  0
  -45.0384  -29.2461    6.9247 N   0  0  0  0  0  0  0  0  0  0  0  0
  -43.6345  -29.8817    5.1020 N   0  0  0  0  0  0  0  0  0  0  0  0
  -46.1753  -33.9410   -0.1698 N   0  0  0  0  0  0  0  0  0  0  0  0
  -47.4467  -28.9951    6.3406 N   0  0  0  0  0  0  0  0  0  0  0  0
  -45.5311  -33.6160   -1.3105 N   0  0  0  0  0  0  0  0  0  0  0  0
  -44.5293  -30.1338    2.8872 N   0  0  0  0  0  0  0  0  0  0  0  0
  -43.3200  -32.0791    3.0286 O   0  0  0  0  0  0  0  0  0  0  0  0
  -42.9643  -29.5455    7.0682 H   0  0  0  0  0  0  0  0  0  0  0  0
  -47.8811  -30.6494    2.4616 H   0  0  0  0  0  0  0  0  0  0  0  0
  -48.5044  -28.9657    2.4065 H   0  0  0  0  0  0  0  0  0  0  0  0
  -46.7746  -29.2951    2.0518 H   0  0  0  0  0  0  0  0  0  0  0  0
  -46.8553  -34.0800    2.3133 H   0  0  0  0  0  0  0  0  0  0  0  0
  -45.2212  -33.5508    2.8386 H   0  0  0  0  0  0  0  0  0  0  0  0
  -46.5110  -32.3335    2.5535 H   0  0  0  0  0  0  0  0  0  0  0  0
  -50.1791  -29.8901    5.2738 H   0  0  0  0  0  0  0  0  0  0  0  0
  -49.9906  -28.2084    5.8759 H   0  0  0  0  0  0  0  0  0  0  0  0
  -49.9615  -28.5389    4.1105 H   0  0  0  0  0  0  0  0  0  0  0  0
  -42.7589  -32.6794   -2.3470 H   0  0  0  0  0  0  0  0  0  0  0  0
  -44.2185  -32.1226   -3.2335 H   0  0  0  0  0  0  0  0  0  0  0  0
  -43.4243  -31.0393   -2.0408 H   0  0  0  0  0  0  0  0  0  0  0  0
  -46.5772  -35.0852   -2.4270 H   0  0  0  0  0  0  0  0  0  0  0  0
  -46.1653  -33.5904   -3.3340 H   0  0  0  0  0  0  0  0  0  0  0  0
  -44.8850  -34.7915   -2.9531 H   0  0  0  0  0  0  0  0  0  0  0  0
  -42.6582  -31.4861    0.5319 H   0  0  0  0  0  0  0  0  0  0  0  0
  -43.9839  -30.2820    0.3932 H   0  0  0  0  0  0  0  0  0  0  0  0
  -47.8356  -28.7659    7.2329 H   0  0  0  0  0  0  0  0  0  0  0  0
  -44.9910  -29.5191    2.2477 H   0  0  0  0  0  0  0  0  0  0  0  0
  1 17  1  0  0  0  0
  1 18  2  0  0  0  0
  2  3  1  0  0  0  0
  2  8  1  0  0  0  0
  2  9  2  0  0  0  0
  3  6  2  0  0  0  0
  3 11  1  0  0  0  0
  4  5  1  0  0  0  0
  4  7  2  0  0  0  0
  4 16  1  0  0  0  0
  5 12  1  0  0  0  0
  5 19  2  0  0  0  0
  6 13  1  0  0  0  0
  6 20  1  0  0  0  0
  7 14  1  0  0  0  0
  7 21  1  0  0  0  0
  8 17  2  0  0  0  0
  8 20  1  0  0  0  0
  9 18  1  0  0  0  0
  9 22  1  0  0  0  0
 10 16  1  0  0  0  0
 10 22  1  0  0  0  0
 10 23  2  0  0  0  0
 15 21  1  0  0  0  0
 19 21  1  0  0  0  0
  1 24  1  0  0  0  0
 11 25  1  0  0  0  0
 11 26  1  0  0  0  0
 11 27  1  0  0  0  0
 12 28  1  0  0  0  0
 12 29  1  0  0  0  0
 12 30  1  0  0  0  0
 13 31  1  0  0  0  0
 13 32  1  0  0  0  0
 13 33  1  0  0  0  0
 14 34  1  0  0  0  0
 14 35  1  0  0  0  0
 14 36  1  0  0  0  0
 15 37  1  0  0  0  0
 15 38  1  0  0  0  0
 15 39  1  0  0  0  0
 16 40  1  0  0  0  0
 16 41  1  0  0  0  0
 20 42  1  0  0  0  0
 22 43  1  0  0  0  0
M  END
> <POSIT::Probability>
0.91

> <POSIT::Method>
SHAPEFIT

> <ReceptorTitle>
UCSF-P4536-REFINED_LIGAND-BOUND-STATE_A__DU__LA1_A-201(A)

> <OMEGA_C>
60gvwhZ07MFJJs1AqN43wrQ87MHQxZdAkTc9wvBg68EIVIRA3WEywn1JAcLriCc+lqc2wt22BMJ0
W0U/lLZAwlfq6MHnKqVArUAywjyVAsLEiZa/Q204wsfo6cHhSMNAqMQywjv37sHwAIhAjSAvwkZn
+cFAlBVAl44+wt/C7MG0XSpAR144wrIsBcJ78A1Ad7hGwppm58EVPqNA1LguwilVAMIjlxHA6zo3
wp1DCcIVrCXAqMwuwgMY+sHEDE4/Vic0wgH46cF1l91AvokuwssN78F4Q6NAerM4wp7DB8KZ5S2+
dMk9wg/258E55spA0B82ws92BsLzvKe/DB4ywgES8cFcyDhAoUctwgxRAMJr1EFAfNsrwjpd7MHt
LuJAO4Y/wucx9cHkih1AggRCwrS558EYBBpAJhk7wlhc6sETUQNA0ms7wu1RCMKtDRRAd+I0wgM0
BsKbqzVAQQs6wopVAcKAbCNAY7dIwgQf78HDwqhAU/ZHws+q4cGMB7xAkthHwqRP5MF4iYNAKgkr
wsC3AsLhNBbAyN8wwoN9AMI38U7AebItwo1Q+MG8nALAAU86wjdXDMK1VBvAP6k4wp5cBsLuX1XA
P4ozwn4qC8ItAD3A86Eqwonj+8HXLAg/fe8vwoNB8sEtVsk+olc/wnog5sEPdOdA1fYzwh0n7MGA
2g9A

> <OMEGA_E>
6C34Pg==

> <OMEGA_NBR>
     14953

$$$$
CACHE3-HO_1690_7
  -OEChem-03092622543D

 42 44  0     0  0  0  0  0  0999 V2000
  -44.2552  -32.0104   -0.9143 C   0  0  0  0  0  0  0  0  0  0  0  0
  -44.1878  -32.9691    1.3332 C   0  0  0  0  0  0  0  0  0  0  0  0
  -45.0077  -33.1038   -1.3595 C   0  0  0  0  0  0  0  0  0  0  0  0
  -44.9506  -34.0587    0.8890 C   0  0  0  0  0  0  0  0  0  0  0  0
  -43.8098  -29.5866    6.3589 C   0  0  0  0  0  0  0  0  0  0  0  0
  -45.9874  -29.5240    4.7252 C   0  0  0  0  0  0  0  0  0  0  0  0
  -43.8865  -31.9110    0.4407 C   0  0  0  0  0  0  0  0  0  0  0  0
  -45.3872  -34.1085   -0.4491 C   0  0  0  0  0  0  0  0  0  0  0  0
  -47.3332  -29.3893    4.1511 C   0  0  0  0  0  0  0  0  0  0  0  0
  -48.1779  -29.0731    5.2004 C   0  0  0  0  0  0  0  0  0  0  0  0
  -46.0992  -29.2765    6.0968 C   0  0  0  0  0  0  0  0  0  0  0  0
  -44.7132  -29.8246    4.2025 C   0  0  0  0  0  0  0  0  0  0  0  0
  -47.6857  -29.5638    2.6857 C   0  0  0  0  0  0  0  0  0  0  0  0
  -49.6674  -28.8150    5.1828 C   0  0  0  0  0  0  0  0  0  0  0  0
  -43.0909  -30.6964    0.8610 C   0  0  0  0  0  0  0  0  0  0  0  0
  -46.4613  -35.0785   -0.8378 C   0  0  0  0  0  0  0  0  0  0  0  0
  -43.1398  -30.3892    2.3590 C   0  0  0  0  0  0  0  0  0  0  0  0
  -45.0185  -29.3106    6.9001 N   0  0  0  0  0  0  0  0  0  0  0  0
  -43.6453  -29.8451    5.0398 N   0  0  0  0  0  0  0  0  0  0  0  0
  -47.4262  -29.0163    6.3683 N   0  0  0  0  0  0  0  0  0  0  0  0
  -44.5144  -30.1038    2.8517 N   0  0  0  0  0  0  0  0  0  0  0  0
  -47.7098  -34.4297   -0.5964 O   0  0  0  0  0  0  0  0  0  0  0  0
  -43.9571  -31.2415   -1.6117 H   0  0  0  0  0  0  0  0  0  0  0  0
  -43.8313  -32.9367    2.3521 H   0  0  0  0  0  0  0  0  0  0  0  0
  -45.2960  -33.1764   -2.3978 H   0  0  0  0  0  0  0  0  0  0  0  0
  -45.2025  -34.8573    1.5709 H   0  0  0  0  0  0  0  0  0  0  0  0
  -42.9432  -29.6014    7.0032 H   0  0  0  0  0  0  0  0  0  0  0  0
  -47.9437  -30.6156    2.4929 H   0  0  0  0  0  0  0  0  0  0  0  0
  -48.5451  -28.9239    2.4368 H   0  0  0  0  0  0  0  0  0  0  0  0
  -46.8238  -29.2781    2.0649 H   0  0  0  0  0  0  0  0  0  0  0  0
  -50.2058  -29.7611    5.3409 H   0  0  0  0  0  0  0  0  0  0  0  0
  -49.9263  -28.1076    5.9844 H   0  0  0  0  0  0  0  0  0  0  0  0
  -49.9539  -28.3882    4.2103 H   0  0  0  0  0  0  0  0  0  0  0  0
  -42.0404  -30.8599    0.5786 H   0  0  0  0  0  0  0  0  0  0  0  0
  -43.4848  -29.8240    0.3190 H   0  0  0  0  0  0  0  0  0  0  0  0
  -46.3694  -35.3387   -1.9027 H   0  0  0  0  0  0  0  0  0  0  0  0
  -46.3852  -35.9918   -0.2293 H   0  0  0  0  0  0  0  0  0  0  0  0
  -42.7445  -31.2570    2.9074 H   0  0  0  0  0  0  0  0  0  0  0  0
  -42.5075  -29.5112    2.5571 H   0  0  0  0  0  0  0  0  0  0  0  0
  -47.7950  -28.8155    7.2758 H   0  0  0  0  0  0  0  0  0  0  0  0
  -45.0736  -30.9038    2.6343 H   0  0  0  0  0  0  0  0  0  0  0  0
  -48.4214  -35.0138   -0.8311 H   0  0  0  0  0  0  0  0  0  0  0  0
  1  3  2  0  0  0  0
  1  7  1  0  0  0  0
  2  4  1  0  0  0  0
  2  7  2  0  0  0  0
  3  8  1  0  0  0  0
  4  8  2  0  0  0  0
  5 18  1  0  0  0  0
  5 19  2  0  0  0  0
  6  9  1  0  0  0  0
  6 11  1  0  0  0  0
  6 12  2  0  0  0  0
  7 15  1  0  0  0  0
  8 16  1  0  0  0  0
  9 10  2  0  0  0  0
  9 13  1  0  0  0  0
 10 14  1  0  0  0  0
 10 20  1  0  0  0  0
 11 18  2  0  0  0  0
 11 20  1  0  0  0  0
 12 19  1  0  0  0  0
 12 21  1  0  0  0  0
 15 17  1  0  0  0  0
 16 22  1  0  0  0  0
 17 21  1  0  0  0  0
  1 23  1  0  0  0  0
  2 24  1  0  0  0  0
  3 25  1  0  0  0  0
  4 26  1  0  0  0  0
  5 27  1  0  0  0  0
 13 28  1  0  0  0  0
 13 29  1  0  0  0  0
 13 30  1  0  0  0  0
 14 31  1  0  0  0  0
 14 32  1  0  0  0  0
 14 33  1  0  0  0  0
 15 34  1  0  0  0  0
 15 35  1  0  0  0  0
 16 36  1  0  0  0  0
 16 37  1  0  0  0  0
 17 38  1  0  0  0  0
 17 39  1  0  0  0  0
 20 40  1  0  0  0  0
 21 41  1  0  0  0  0
 22 42  1  0  0  0  0
M  END
> <POSIT::Probability>
0.72

> <POSIT::Method>
SHAPEFIT

> <ReceptorTitle>
UCSF-P4536-REFINED_LIGAND-BOUND-STATE_A__DU__LA1_A-201(A)

> <OMEGA_C>
XAUxwp0KAMIxDWq/SMAwwmTgA8K4pao/3gc0wlFqBMJmBK6/Xc0zwhc8CMKikmM/ND0vwlyx7MH3
e8tAJPM3wjsx7ME+NZdAvYsvwshJ/8EKnuE+iIw1wh9vCMII9eW+J1U9wlkd68Ft1YRAJLZAwq+V
6MEFaqZAlGU4wjg26sEeGcNARNoywrqY7sHQeoZAHr4+wqaC7MEh4ytAZKtGwiyF5sGk2aVADF0s
wjKS9cGvalw/Ztg5wm9QDMIsfFa/II8swiId88Fk+RZA/BI0wg986sE8zdxAyJQuwsTC7sFlRqFA
brQ9wnEh6MHVyMtAxA4ywp7U8MG/gTZA4NY+wga4CcJ/rRi/FNQvwqTu+cHcS86/NVMvwjW/A8I4
iRZAGi81wqK0BMI7dRnAUc80wuttC8IWFMk/zsUrwpHP7MF3GuBAXsY/wqjs9MH4ih9AKS5CwjVk
58Ff9BtAiEs7wnY56sG4JgRAyNJIwsEW7sFe6KpAi7RHwlPc4MHkf79A1tBHwhAb48Edu4ZAXSko
whDh9sErHBQ/Z/AtwouX7sF8UqM+RXo5wtxaDcJQivO/b4o5wo/3D8KQ2Wq+UvoqwkkO+sE9EjpA
sgcqwt0W7MHWpyNADC4/wiyG5sGo0+hAZ0s0whM798HpmChAe69BwiIODMIiwFS/

> <OMEGA_E>
pIspPw==

> <OMEGA_NBR>
     16311

$$$$
CACHE3-HO_1690_9
  -OEChem-03092622543D

 36 38  0     0  0  0  0  0  0999 V2000
  -44.6203  -33.1932   -0.9713 C   0  0  0  0  0  0  0  0  0  0  0  0
  -45.2304  -32.1450    1.0071 C   0  0  0  0  0  0  0  0  0  0  0  0
  -43.7970  -29.6039    6.3622 C   0  0  0  0  0  0  0  0  0  0  0  0
  -45.9686  -29.4927    4.7272 C   0  0  0  0  0  0  0  0  0  0  0  0
  -47.3084  -29.3803    4.1367 C   0  0  0  0  0  0  0  0  0  0  0  0
  -43.2913  -32.7468   -0.7965 C   0  0  0  0  0  0  0  0  0  0  0  0
  -43.8979  -31.6855    1.1694 C   0  0  0  0  0  0  0  0  0  0  0  0
  -48.1658  -29.0876    5.1780 C   0  0  0  0  0  0  0  0  0  0  0  0
  -46.0884  -29.2634    6.0964 C   0  0  0  0  0  0  0  0  0  0  0  0
  -44.7031  -29.7973    4.2106 C   0  0  0  0  0  0  0  0  0  0  0  0
  -47.6581  -29.5548    2.6683 C   0  0  0  0  0  0  0  0  0  0  0  0
  -42.2952  -32.9045   -1.9106 C   0  0  0  0  0  0  0  0  0  0  0  0
  -49.6614  -28.8735    5.1345 C   0  0  0  0  0  0  0  0  0  0  0  0
  -43.4641  -30.9211    2.3832 C   0  0  0  0  0  0  0  0  0  0  0  0
  -45.5717  -32.8877   -0.0652 N   0  0  0  0  0  0  0  0  0  0  0  0
  -45.0080  -29.3179    6.9034 N   0  0  0  0  0  0  0  0  0  0  0  0
  -43.6317  -29.8518    5.0391 N   0  0  0  0  0  0  0  0  0  0  0  0
  -42.9526  -32.0095    0.2747 N   0  0  0  0  0  0  0  0  0  0  0  0
  -47.4231  -29.0183    6.3546 N   0  0  0  0  0  0  0  0  0  0  0  0
  -44.5708  -30.0937    2.8701 N   0  0  0  0  0  0  0  0  0  0  0  0
  -44.8768  -33.7842   -1.8380 H   0  0  0  0  0  0  0  0  0  0  0  0
  -45.9766  -31.8982    1.7477 H   0  0  0  0  0  0  0  0  0  0  0  0
  -42.9327  -29.6352    7.0090 H   0  0  0  0  0  0  0  0  0  0  0  0
  -47.8972  -30.6102    2.4707 H   0  0  0  0  0  0  0  0  0  0  0  0
  -48.5289  -28.9294    2.4220 H   0  0  0  0  0  0  0  0  0  0  0  0
  -46.8014  -29.2509    2.0489 H   0  0  0  0  0  0  0  0  0  0  0  0
  -41.3761  -32.3536   -1.6620 H   0  0  0  0  0  0  0  0  0  0  0  0
  -42.0591  -33.9706   -2.0430 H   0  0  0  0  0  0  0  0  0  0  0  0
  -42.7214  -32.5048   -2.8426 H   0  0  0  0  0  0  0  0  0  0  0  0
  -50.1744  -29.8354    5.2814 H   0  0  0  0  0  0  0  0  0  0  0  0
  -49.9552  -28.1758    5.9325 H   0  0  0  0  0  0  0  0  0  0  0  0
  -49.9433  -28.4532    4.1578 H   0  0  0  0  0  0  0  0  0  0  0  0
  -43.1621  -31.6272    3.1707 H   0  0  0  0  0  0  0  0  0  0  0  0
  -42.6123  -30.2755    2.1231 H   0  0  0  0  0  0  0  0  0  0  0  0
  -47.8025  -28.8195    7.2582 H   0  0  0  0  0  0  0  0  0  0  0  0
  -45.4135  -30.5579    2.5976 H   0  0  0  0  0  0  0  0  0  0  0  0
  1  6  1  0  0  0  0
  1 15  2  0  0  0  0
  2  7  2  0  0  0  0
  2 15  1  0  0  0  0
  3 16  2  0  0  0  0
  3 17  1  0  0  0  0
  4  5  1  0  0  0  0
  4  9  2  0  0  0  0
  4 10  1  0  0  0  0
  5  8  2  0  0  0  0
  5 11  1  0  0  0  0
  6 12  1  0  0  0  0
  6 18  2  0  0  0  0
  7 14  1  0  0  0  0
  7 18  1  0  0  0  0
  8 13  1  0  0  0  0
  8 19  1  0  0  0  0
  9 16  1  0  0  0  0
  9 19  1  0  0  0  0
 10 17  2  0  0  0  0
 10 20  1  0  0  0  0
 14 20  1  0  0  0  0
  1 21  1  0  0  0  0
  2 22  1  0  0  0  0
  3 23  1  0  0  0  0
 11 24  1  0  0  0  0
 11 25  1  0  0  0  0
 11 26  1  0  0  0  0
 12 27  1  0  0  0  0
 12 28  1  0  0  0  0
 12 29  1  0  0  0  0
 13 30  1  0  0  0  0
 13 31  1  0  0  0  0
 13 32  1  0  0  0  0
 14 33  1  0  0  0  0
 14 34  1  0  0  0  0
 19 35  1  0  0  0  0
 20 36  1  0  0  0  0
M  END
> <POSIT::Probability>
0.72

> <POSIT::Method>
SHAPEFIT

> <ReceptorTitle>
UCSF-P4536-REFINED_LIGAND-BOUND-STATE_A__DU__LA1_A-201(A)

> <OMEGA_C>
PXsywtLFBMLVpXi/4us0wn+UAMI554A/IjAvwrvU7MEtl8tA2t83wgTx68EtRZdA1Ts9wt4K68E6
YIRAUyotwrz8AsJ/5Uu/fJcvwtt7/cEzr5U/y6lAwlCz6MFvsqVAglo4wlgb6sFeFcNAAtAywthg
7sFtvYZA6qE+wk5w7ME6xSpASC4pwiqeA8JIjfS/TqVGwvT85sGiTaRARtstwn1e98FJhhhAX0k2
wvmMA8JQh4W9Jgg0wgeL6sF+6NxA5oYuwnbQ7sGGQKFAfM8rwrEJAMKmpIw+O7E9wpIl6MEcWctA
hUgywtC/8MHgrzdA34Ezwg4jB8IJReu/Cug3wm0v/8Eztd8/F7srwvsU7cEbSuBAtpY/wrPh9MGb
Hx5AlR1CwoBv58FnAhtAqzQ7wsgB6sGAIANAHIElwhRqAcJ8vNS/ezwowuvhB8IjwALAreIqwucE
AsK87DXAo7JIwuau7sEjAalAKtJHwvZn4cHy1r1A5sVHwiqg48GhDIVA8aUswnwE/cGF7UpACHMq
wkw08sFK4QdAtjU/wj6O5sGEQ+hAeKc1wqh29MEbPyZA

> <OMEGA_E>
bFcWPw==

> <OMEGA_NBR>
     17549

$$$$
CACHE3-HO_1696_29
  -OEChem-03092622543D

 37 39  0     0  0  0  0  0  0999 V2000
  -46.5741  -32.7187   -0.2635 C   0  0  0  0  0  0  0  0  0  0  0  0
  -46.1237  -33.4690   -1.3623 C   0  0  0  0  0  0  0  0  0  0  0  0
  -45.6548  -31.9863    0.4996 C   0  0  0  0  0  0  0  0  0  0  0  0
  -44.7563  -33.4819   -1.6964 C   0  0  0  0  0  0  0  0  0  0  0  0
  -43.8049  -29.5872    6.3572 C   0  0  0  0  0  0  0  0  0  0  0  0
  -45.9863  -29.5132    4.7231 C   0  0  0  0  0  0  0  0  0  0  0  0
  -44.2725  -32.0158    0.1905 C   0  0  0  0  0  0  0  0  0  0  0  0
  -47.3396  -29.3972    4.1501 C   0  0  0  0  0  0  0  0  0  0  0  0
  -43.8281  -32.7576   -0.9275 C   0  0  0  0  0  0  0  0  0  0  0  0
  -48.1823  -29.0889    5.2012 C   0  0  0  0  0  0  0  0  0  0  0  0
  -46.0954  -29.2584    6.0911 C   0  0  0  0  0  0  0  0  0  0  0  0
  -44.7149  -29.8375    4.2136 C   0  0  0  0  0  0  0  0  0  0  0  0
  -43.6584  -31.1088    2.4338 C   0  0  0  0  0  0  0  0  0  0  0  0
  -47.7315  -29.5982    2.6984 C   0  0  0  0  0  0  0  0  0  0  0  0
  -49.6803  -28.8799    5.1884 C   0  0  0  0  0  0  0  0  0  0  0  0
  -43.2996  -31.1512    0.9648 C   0  0  0  0  0  0  0  0  0  0  0  0
  -45.0128  -29.2939    6.8940 N   0  0  0  0  0  0  0  0  0  0  0  0
  -43.6443  -29.8658    5.0437 N   0  0  0  0  0  0  0  0  0  0  0  0
  -47.4243  -29.0073    6.3636 N   0  0  0  0  0  0  0  0  0  0  0  0
  -44.5254  -30.1156    2.8725 N   0  0  0  0  0  0  0  0  0  0  0  0
  -43.3849  -32.0724    3.1444 O   0  0  0  0  0  0  0  0  0  0  0  0
  -41.9855  -32.7721   -1.4546 Br  0  0  0  0  0  0  0  0  0  0  0  0
  -47.6234  -32.7064   -0.0081 H   0  0  0  0  0  0  0  0  0  0  0  0
  -46.8280  -34.0371   -1.9519 H   0  0  0  0  0  0  0  0  0  0  0  0
  -46.0037  -31.3932    1.3320 H   0  0  0  0  0  0  0  0  0  0  0  0
  -44.4178  -34.0520   -2.5490 H   0  0  0  0  0  0  0  0  0  0  0  0
  -42.9382  -29.5990    7.0015 H   0  0  0  0  0  0  0  0  0  0  0  0
  -47.9815  -30.6558    2.5285 H   0  0  0  0  0  0  0  0  0  0  0  0
  -48.6057  -28.9728    2.4647 H   0  0  0  0  0  0  0  0  0  0  0  0
  -46.8913  -29.3112    2.0488 H   0  0  0  0  0  0  0  0  0  0  0  0
  -50.1866  -29.8417    5.3574 H   0  0  0  0  0  0  0  0  0  0  0  0
  -49.9588  -28.1741    5.9847 H   0  0  0  0  0  0  0  0  0  0  0  0
  -49.9851  -28.4717    4.2135 H   0  0  0  0  0  0  0  0  0  0  0  0
  -42.2859  -31.5637    0.8543 H   0  0  0  0  0  0  0  0  0  0  0  0
  -43.3258  -30.1291    0.5590 H   0  0  0  0  0  0  0  0  0  0  0  0
  -47.7907  -28.7964    7.2699 H   0  0  0  0  0  0  0  0  0  0  0  0
  -45.0307  -29.5827    2.1937 H   0  0  0  0  0  0  0  0  0  0  0  0
  1  2  1  0  0  0  0
  1  3  2  0  0  0  0
  2  4  2  0  0  0  0
  3  7  1  0  0  0  0
  4  9  1  0  0  0  0
  5 17  1  0  0  0  0
  5 18  2  0  0  0  0
  6  8  1  0  0  0  0
  6 11  1  0  0  0  0
  6 12  2  0  0  0  0
  7  9  2  0  0  0  0
  7 16  1  0  0  0  0
  8 10  2  0  0  0  0
  8 14  1  0  0  0  0
  9 22  1  0  0  0  0
 10 15  1  0  0  0  0
 10 19  1  0  0  0  0
 11 17  2  0  0  0  0
 11 19  1  0  0  0  0
 12 18  1  0  0  0  0
 12 20  1  0  0  0  0
 13 16  1  0  0  0  0
 13 20  1  0  0  0  0
 13 21  2  0  0  0  0
  1 23  1  0  0  0  0
  2 24  1  0  0  0  0
  3 25  1  0  0  0  0
  4 26  1  0  0  0  0
  5 27  1  0  0  0  0
 14 28  1  0  0  0  0
 14 29  1  0  0  0  0
 14 30  1  0  0  0  0
 15 31  1  0  0  0  0
 15 32  1  0  0  0  0
 15 33  1  0  0  0  0
 16 34  1  0  0  0  0
 16 35  1  0  0  0  0
 19 36  1  0  0  0  0
 20 37  1  0  0  0  0
M  END
> <POSIT::Probability>
0.91

> <POSIT::Method>
SHAPEFIT

> <ReceptorTitle>
UCSF-P4536-REFINED_LIGAND-BOUND-STATE_A__DU__LA1_A-201(A)

> <OMEGA_C>
1ks6wvzfAsJQ6oa+rX44wj7gBcKwXq6/ip42wu7j/8EYzf8+cAYzwn/tBcI7JNm/PTgvwouy7MFt
bstA9PE3wgUb7MFpI5dAFRcxwi4QAMKADkM+wVs9wnwt68H/zYRA708vwsYHA8JIcG2/pbpAwvy1
6MFNcKZArWE4wjgR6sEv6sJAAtwywjGz7sGJ1YZAPaIuwtre+MG4wxtABu0+wgvJ7MHKsSxAoLhG
wiAK58H3BqZA1DItwpk1+cGA+nY/Dw00wu9Z6sHdm9xAz5Muwint7sEBZqFAfbI9wgoP6MHXostA
ChoywsXs8MFW1jdAJ4otwiVKAMLqPUlAKfEnwq4WA8IZL7q/UX4+wl7TAsImAgW81E87wvclCMLQ
2Pm/1AM4wjwl+8EWf6o/2qsxwjU1CMLzIiPAssArwtLK7MHjC+BAAu0/wiY/9cFD0yFASGxCwlDI
58Favh1AvZA7wmh96sE5IANAHb9Iwt677sEEcKtAz9VHwphk4cEPg79Au/BHwvPF48Gy1IZAxyQp
wm+C/MGHs1o/oU0twmMI8cHtFw8/tSk/wgtf5sGeouhAaB80wlKp7MGQZQxA

> <OMEGA_E>
sLbhPg==

> <OMEGA_NBR>
     18811

$$$$
CACHE3-HO_1696_34
  -OEChem-03092622543D

 39 41  0     0  0  0  0  0  0999 V2000
  -43.8169  -29.5435    6.4131 C   0  0  0  0  0  0  0  0  0  0  0  0
  -45.9604  -29.5288    4.7390 C   0  0  0  0  0  0  0  0  0  0  0  0
  -47.3020  -29.4239    4.1367 C   0  0  0  0  0  0  0  0  0  0  0  0
  -48.1760  -29.1315    5.1630 C   0  0  0  0  0  0  0  0  0  0  0  0
  -46.1041  -29.2444    6.1003 C   0  0  0  0  0  0  0  0  0  0  0  0
  -44.6781  -29.8548    4.2497 C   0  0  0  0  0  0  0  0  0  0  0  0
  -43.9313  -33.3312   -0.5937 C   0  0  0  0  0  0  0  0  0  0  0  0
  -44.9261  -34.2191   -0.9234 C   0  0  0  0  0  0  0  0  0  0  0  0
  -45.8242  -32.6710    0.4513 C   0  0  0  0  0  0  0  0  0  0  0  0
  -43.8013  -31.1607    2.3300 C   0  0  0  0  0  0  0  0  0  0  0  0
  -47.6978  -29.6137    2.6887 C   0  0  0  0  0  0  0  0  0  0  0  0
  -49.6809  -28.9763    5.0880 C   0  0  0  0  0  0  0  0  0  0  0  0
  -47.4033  -34.4456   -0.4313 C   0  0  0  0  0  0  0  0  0  0  0  0
  -43.7483  -31.2327    0.7983 C   0  0  0  0  0  0  0  0  0  0  0  0
  -45.0378  -29.2456    6.9243 N   0  0  0  0  0  0  0  0  0  0  0  0
  -43.6236  -29.8613    5.1041 N   0  0  0  0  0  0  0  0  0  0  0  0
  -47.4460  -29.0108    6.3405 N   0  0  0  0  0  0  0  0  0  0  0  0
  -44.4736  -32.4015    0.2814 N   0  0  0  0  0  0  0  0  0  0  0  0
  -46.0731  -33.8511   -0.2263 N   0  0  0  0  0  0  0  0  0  0  0  0
  -44.4967  -30.0916    2.8877 N   0  0  0  0  0  0  0  0  0  0  0  0
  -46.6362  -32.0219    1.0952 O   0  0  0  0  0  0  0  0  0  0  0  0
  -43.3830  -32.0951    3.0089 O   0  0  0  0  0  0  0  0  0  0  0  0
  -44.7972  -35.2748   -1.7693 O   0  0  0  0  0  0  0  0  0  0  0  0
  -42.9621  -29.5278    7.0730 H   0  0  0  0  0  0  0  0  0  0  0  0
  -42.9123  -33.3530   -0.9508 H   0  0  0  0  0  0  0  0  0  0  0  0
  -47.9414  -30.6714    2.5103 H   0  0  0  0  0  0  0  0  0  0  0  0
  -48.5772  -28.9921    2.4646 H   0  0  0  0  0  0  0  0  0  0  0  0
  -46.8624  -29.3151    2.0382 H   0  0  0  0  0  0  0  0  0  0  0  0
  -50.1594  -29.9531    5.2521 H   0  0  0  0  0  0  0  0  0  0  0  0
  -50.0155  -28.2696    5.8618 H   0  0  0  0  0  0  0  0  0  0  0  0
  -49.9608  -28.5931    4.0957 H   0  0  0  0  0  0  0  0  0  0  0  0
  -48.1262  -33.9712    0.2487 H   0  0  0  0  0  0  0  0  0  0  0  0
  -47.7198  -34.2855   -1.4725 H   0  0  0  0  0  0  0  0  0  0  0  0
  -47.3584  -35.5249   -0.2235 H   0  0  0  0  0  0  0  0  0  0  0  0
  -44.2014  -30.3203    0.3832 H   0  0  0  0  0  0  0  0  0  0  0  0
  -42.6970  -31.2971    0.4811 H   0  0  0  0  0  0  0  0  0  0  0  0
  -47.8358  -28.7870    7.2338 H   0  0  0  0  0  0  0  0  0  0  0  0
  -44.9030  -29.4335    2.2538 H   0  0  0  0  0  0  0  0  0  0  0  0
  -45.6262  -35.7345   -1.8313 H   0  0  0  0  0  0  0  0  0  0  0  0
  1 15  1  0  0  0  0
  1 16  2  0  0  0  0
  2  3  1  0  0  0  0
  2  5  1  0  0  0  0
  2  6  2  0  0  0  0
  3  4  2  0  0  0  0
  3 11  1  0  0  0  0
  4 12  1  0  0  0  0
  4 17  1  0  0  0  0
  5 15  2  0  0  0  0
  5 17  1  0  0  0  0
  6 16  1  0  0  0  0
  6 20  1  0  0  0  0
  7  8  2  0  0  0  0
  7 18  1  0  0  0  0
  8 19  1  0  0  0  0
  8 23  1  0  0  0  0
  9 18  1  0  0  0  0
  9 19  1  0  0  0  0
  9 21  2  0  0  0  0
 10 14  1  0  0  0  0
 10 20  1  0  0  0  0
 10 22  2  0  0  0  0
 13 19  1  0  0  0  0
 14 18  1  0  0  0  0
  1 24  1  0  0  0  0
  7 25  1  0  0  0  0
 11 26  1  0  0  0  0
 11 27  1  0  0  0  0
 11 28  1  0  0  0  0
 12 29  1  0  0  0  0
 12 30  1  0  0  0  0
 12 31  1  0  0  0  0
 13 32  1  0  0  0  0
 13 33  1  0  0  0  0
 13 34  1  0  0  0  0
 14 35  1  0  0  0  0
 14 36  1  0  0  0  0
 17 37  1  0  0  0  0
 20 38  1  0  0  0  0
 23 39  1  0  0  0  0
M  END
> <POSIT::Probability>
0.79

> <POSIT::Method>
SHAPEFIT

> <ReceptorTitle>
UCSF-P4536-REFINED_LIGAND-BOUND-STATE_A__DU__LA1_A-201(A)

> <OMEGA_C>
e0QvwhVZ7MHhN81AgNc3whI77MFGppdANDU9wg5k68EaYIRARrRAwlMN6cG0N6VAoGo4wpb06cHO
NcNAZrYywqDW7sE1/YdAqrkvwjFTBcJp/he/VLQzwmTgCML0ZWy/9Es3whKvAsLDCuc+hzQvwihJ
+cF3HxVAf8o+wsbo7MG1EyxAPLlGwmzP58FH0aJA8pw9wlHICcKZzdy+SP4uwnvc+cFTXkw/viY0
wu726cH+k91Amn4uwu7j7sGPVKNAvcg9wiwW6MFK5cpAAuUxwi+bAcI+EpA+0Eo4wpFnB8Lcwme+
l/wxwpS78MGpzzhAfos6wnkWAMJRL4w/OIgtwmZhAMITkkBATDAzwmwZDcKSd+K/L9krwts47MH9
VeJAMaYrwnNpBcIyanO/98M/wgRf9cHypyBAEU9Cwtbv58EuvB1AHXM7wmWF6sGMcgJAPqNIwtyf
78GCEahA3g9IwiUo4sGek7tA5tdHwpq+5MHdD4NANYFAwoniB8KtrH4+HeE+wl8kCcJIery/9249
wn0ZDsK+22S+NM4wwvyP8sFrLMQ+xckqwmVg+sFLTPY+6Fc/wsFL5sECe+dAuJwzwtN368FiPhBA
PYE2wirwDsKmaeq/

> <OMEGA_E>
MGAlPw==

> <OMEGA_NBR>
     20112

$$$$
CACHE3-HO_1700_33
  -OEChem-03092622543D

 39 42  0     0  0  0  0  0  0999 V2000
  -49.0416  -29.3351    4.8583 C   0  0  0  0  0  0  0  0  0  0  0  0
  -44.0146  -30.1960    0.1491 C   0  0  0  0  0  0  0  0  0  0  0  0
  -45.8632  -32.2750    0.6591 C   0  0  0  0  0  0  0  0  0  0  0  0
  -51.4243  -29.0790    5.8967 C   0  0  0  0  0  0  0  0  0  0  0  0
  -52.8849  -30.5874    4.9286 C   0  0  0  0  0  0  0  0  0  0  0  0
  -50.4208  -29.5875    5.0730 C   0  0  0  0  0  0  0  0  0  0  0  0
  -43.8279  -31.4631   -0.3770 C   0  0  0  0  0  0  0  0  0  0  0  0
  -44.7430  -32.4919   -0.1245 C   0  0  0  0  0  0  0  0  0  0  0  0
  -45.1485  -29.9649    0.9301 C   0  0  0  0  0  0  0  0  0  0  0  0
  -46.0658  -30.9967    1.1834 C   0  0  0  0  0  0  0  0  0  0  0  0
  -48.6089  -30.2032    3.8784 C   0  0  0  0  0  0  0  0  0  0  0  0
  -50.7849  -30.6117    4.2077 C   0  0  0  0  0  0  0  0  0  0  0  0
  -47.2448  -30.3350    3.3024 C   0  0  0  0  0  0  0  0  0  0  0  0
  -42.6835  -31.9589   -1.2036 C   0  0  0  0  0  0  0  0  0  0  0  0
  -44.2954  -33.7704   -0.7587 C   0  0  0  0  0  0  0  0  0  0  0  0
  -43.2736  -33.2530   -1.7825 C   0  0  0  0  0  0  0  0  0  0  0  0
  -45.3595  -28.5967    1.4958 C   0  0  0  0  0  0  0  0  0  0  0  0
  -52.6739  -29.5912    5.8181 N   0  0  0  0  0  0  0  0  0  0  0  0
  -52.0051  -31.1622    4.0833 N   0  0  0  0  0  0  0  0  0  0  0  0
  -49.6752  -30.9735    3.4910 N   0  0  0  0  0  0  0  0  0  0  0  0
  -47.1969  -30.7626    1.9705 N   0  0  0  0  0  0  0  0  0  0  0  0
  -46.2901  -30.0847    4.0305 O   0  0  0  0  0  0  0  0  0  0  0  0
  -46.3805  -27.9382    0.7592 O   0  0  0  0  0  0  0  0  0  0  0  0
  -48.4314  -28.5987    5.3641 H   0  0  0  0  0  0  0  0  0  0  0  0
  -43.2950  -29.4062   -0.0419 H   0  0  0  0  0  0  0  0  0  0  0  0
  -46.5610  -33.0824    0.8585 H   0  0  0  0  0  0  0  0  0  0  0  0
  -51.2692  -28.2818    6.6129 H   0  0  0  0  0  0  0  0  0  0  0  0
  -53.8970  -30.9753    4.8905 H   0  0  0  0  0  0  0  0  0  0  0  0
  -42.4032  -31.2589   -1.9959 H   0  0  0  0  0  0  0  0  0  0  0  0
  -41.8202  -32.1701   -0.5643 H   0  0  0  0  0  0  0  0  0  0  0  0
  -43.8175  -34.4138   -0.0129 H   0  0  0  0  0  0  0  0  0  0  0  0
  -45.1142  -34.3059   -1.2470 H   0  0  0  0  0  0  0  0  0  0  0  0
  -43.7940  -33.0209   -2.7225 H   0  0  0  0  0  0  0  0  0  0  0  0
  -42.5040  -33.9953   -2.0168 H   0  0  0  0  0  0  0  0  0  0  0  0
  -45.6586  -28.6476    2.5498 H   0  0  0  0  0  0  0  0  0  0  0  0
  -44.4399  -28.0005    1.4395 H   0  0  0  0  0  0  0  0  0  0  0  0
  -49.6494  -31.6984    2.7871 H   0  0  0  0  0  0  0  0  0  0  0  0
  -48.1022  -30.9239    1.5168 H   0  0  0  0  0  0  0  0  0  0  0  0
  -46.4880  -27.0578    1.1542 H   0  0  0  0  0  0  0  0  0  0  0  0
  1  6  1  0  0  0  0
  1 11  2  0  0  0  0
  2  7  2  0  0  0  0
  2  9  1  0  0  0  0
  3  8  2  0  0  0  0
  3 10  1  0  0  0  0
  4  6  1  0  0  0  0
  4 18  2  0  0  0  0
  5 18  1  0  0  0  0
  5 19  2  0  0  0  0
  6 12  2  0  0  0  0
  7  8  1  0  0  0  0
  7 14  1  0  0  0  0
  8 15  1  0  0  0  0
  9 10  2  0  0  0  0
  9 17  1  0  0  0  0
 10 21  1  0  0  0  0
 11 13  1  0  0  0  0
 11 20  1  0  0  0  0
 12 19  1  0  0  0  0
 12 20  1  0  0  0  0
 13 21  1  0  0  0  0
 13 22  2  0  0  0  0
 14 16  1  0  0  0  0
 15 16  1  0  0  0  0
 17 23  1  0  0  0  0
  1 24  1  0  0  0  0
  2 25  1  0  0  0  0
  3 26  1  0  0  0  0
  4 27  1  0  0  0  0
  5 28  1  0  0  0  0
 14 29  1  0  0  0  0
 14 30  1  0  0  0  0
 15 31  1  0  0  0  0
 15 32  1  0  0  0  0
 16 33  1  0  0  0  0
 16 34  1  0  0  0  0
 17 35  1  0  0  0  0
 17 36  1  0  0  0  0
 20 37  1  0  0  0  0
 21 38  1  0  0  0  0
 23 39  1  0  0  0  0
M  END
> <POSIT::Probability>
0.05

> <POSIT::Method>
FRED

> <ReceptorTitle>
UCSF-P4536-REFINED_LIGAND-BOUND-STATE_A__DU__LA1_A-201(A)

> <OMEGA_C>
mypEwliu6sEsd5tA7Q4wwl+R8cFAphg+3nM3wqQZAcJouig/fLJNwtKh6MF2sbxAJ4pTwvqy9MF0
t51A365JwjSz7MEKVqJAzk8vwnG0+8GACMG+2fgywrD3AcJAD/+9Dpg0wjG478FoHW4/VUM4wkr5
98EoeJc/em9CwhKg8cE4OHhAvCNLwsvk9MFzpYZApPo8whyu8sF4WlNA5bsqwtyr/8HoD5q/hS4x
wukUB8IAOEK/Lhgtwg0DBcLIKOS/KnA1wvrF5MGcdr8/GrJSwt667MF4LbpAMAVQwhpM+cE2qoJA
YLNGwsDJ98FCbF9Am8k8wtsZ9sFgOvw/ESk5wmut8MHI+YBAqoU5wmGB38HAWUI/zLlBwibK5MGx
pqtADS4twtc/68HAeCu9gj46wmJUBMKIxls/shNNwgpB4sF7nNNAipZXwlbN98HYfpxA4JwpwjoS
+sHoeP+/10cnwiiuAMIQdhC/EkUvwrKnCcIAGlO87HQ0wko5CcJinp+/CC0vwmYVBMI6Pi7AIwQq
wij7B8ICFAHAb6I2wj0u5cEKMCNAbsIxwu8A4MGIQLg/9ZhGwluW/cF8XzJAn2hAwhdk98GoJsI/
rfM5wm522MFYvpM/

> <OMEGA_E>
saS8wA==

> <OMEGA_NBR>
     21387

$$$$
CACHE3HI_1687_67
  -OEChem-03092622543D

 36 38  0     0  0  0  0  0  0999 V2000
  -42.8035  -31.4845   -0.3640 C   0  0  0  0  0  0  0  0  0  0  0  0
  -42.9833  -32.8004   -0.7903 C   0  0  0  0  0  0  0  0  0  0  0  0
  -47.1355  -29.5283    3.3771 C   0  0  0  0  0  0  0  0  0  0  0  0
  -45.1986  -31.2112   -0.2012 C   0  0  0  0  0  0  0  0  0  0  0  0
  -49.3196  -29.3998    4.8225 C   0  0  0  0  0  0  0  0  0  0  0  0
  -45.2640  -29.2080    4.8433 C   0  0  0  0  0  0  0  0  0  0  0  0
  -47.9457  -29.3858    4.5100 C   0  0  0  0  0  0  0  0  0  0  0  0
  -43.9114  -30.6899   -0.0695 C   0  0  0  0  0  0  0  0  0  0  0  0
  -45.7557  -29.4346    3.5627 C   0  0  0  0  0  0  0  0  0  0  0  0
  -44.2705  -33.3217   -0.9220 C   0  0  0  0  0  0  0  0  0  0  0  0
  -45.3784  -32.5271   -0.6276 C   0  0  0  0  0  0  0  0  0  0  0  0
  -47.3245  -29.1633    5.7290 C   0  0  0  0  0  0  0  0  0  0  0  0
  -44.8157  -28.7791    1.3196 C   0  0  0  0  0  0  0  0  0  0  0  0
  -47.7181  -32.1479   -0.4306 C   0  0  0  0  0  0  0  0  0  0  0  0
  -43.7166  -29.2697    0.3906 C   0  0  0  0  0  0  0  0  0  0  0  0
  -46.0049  -29.0639    5.9682 N   0  0  0  0  0  0  0  0  0  0  0  0
  -49.5563  -29.2040    6.1241 N   0  0  0  0  0  0  0  0  0  0  0  0
  -48.3262  -29.0632    6.6488 N   0  0  0  0  0  0  0  0  0  0  0  0
  -44.8858  -29.5664    2.4818 N   0  0  0  0  0  0  0  0  0  0  0  0
  -45.5219  -27.8135    1.0476 O   0  0  0  0  0  0  0  0  0  0  0  0
  -44.4325  -34.6081   -1.3401 O   0  0  0  0  0  0  0  0  0  0  0  0
  -46.6399  -33.0253   -0.7512 O   0  0  0  0  0  0  0  0  0  0  0  0
  -41.7971  -31.0870   -0.2636 H   0  0  0  0  0  0  0  0  0  0  0  0
  -42.1162  -33.4147   -1.0183 H   0  0  0  0  0  0  0  0  0  0  0  0
  -47.5664  -29.7031    2.3965 H   0  0  0  0  0  0  0  0  0  0  0  0
  -46.0635  -30.5936    0.0281 H   0  0  0  0  0  0  0  0  0  0  0  0
  -50.1595  -29.5443    4.1580 H   0  0  0  0  0  0  0  0  0  0  0  0
  -44.1921  -29.1312    5.0137 H   0  0  0  0  0  0  0  0  0  0  0  0
  -48.6683  -32.6696   -0.5717 H   0  0  0  0  0  0  0  0  0  0  0  0
  -47.6264  -31.8383    0.6132 H   0  0  0  0  0  0  0  0  0  0  0  0
  -47.6754  -31.2664   -1.0745 H   0  0  0  0  0  0  0  0  0  0  0  0
  -42.7519  -29.1808    0.9055 H   0  0  0  0  0  0  0  0  0  0  0  0
  -43.6696  -28.6028   -0.4797 H   0  0  0  0  0  0  0  0  0  0  0  0
  -48.2431  -28.9007    7.6446 H   0  0  0  0  0  0  0  0  0  0  0  0
  -44.2059  -30.3343    2.5349 H   0  0  0  0  0  0  0  0  0  0  0  0
  -43.5543  -34.9999   -1.4961 H   0  0  0  0  0  0  0  0  0  0  0  0
  1  2  2  0  0  0  0
  1  8  1  0  0  0  0
  2 10  1  0  0  0  0
  3  7  2  0  0  0  0
  3  9  1  0  0  0  0
  4  8  2  0  0  0  0
  4 11  1  0  0  0  0
  5  7  1  0  0  0  0
  5 17  2  0  0  0  0
  6  9  2  0  0  0  0
  6 16  1  0  0  0  0
  7 12  1  0  0  0  0
  8 15  1  0  0  0  0
  9 19  1  0  0  0  0
 10 11  2  0  0  0  0
 10 21  1  0  0  0  0
 11 22  1  0  0  0  0
 12 16  2  0  0  0  0
 12 18  1  0  0  0  0
 13 15  1  0  0  0  0
 13 19  1  0  0  0  0
 13 20  2  0  0  0  0
 14 22  1  0  0  0  0
 17 18  1  0  0  0  0
  1 23  1  0  0  0  0
  2 24  1  0  0  0  0
  3 25  1  0  0  0  0
  4 26  1  0  0  0  0
  5 27  1  0  0  0  0
  6 28  1  0  0  0  0
 14 29  1  0  0  0  0
 14 30  1  0  0  0  0
 14 31  1  0  0  0  0
 15 32  1  0  0  0  0
 15 33  1  0  0  0  0
 18 34  1  0  0  0  0
 19 35  1  0  0  0  0
 21 36  1  0  0  0  0
M  END
> <POSIT::Probability>
0.14

> <POSIT::Method>
HYBRID

> <ReceptorTitle>
UCSF-P4536-REFINED_LIGAND-BOUND-STATE_A__DU__LA1_A-201(A)

> <OMEGA_C>
0TYrwjTg+8EgWLq+3e4rwpYzA8K4U0q/vYo8wvI57MHMIVhAYMs0wpew+cGgBU6+S0dFwr0y68EE
UppASQ41wg6q6cF6/JpAWsg/whYW68EiUpBASaUvwuiE9cEAYY693wU3whp668GKA2RA9hQxwm1J
BcL4CGy/dIM1wrobAsIAqCC/UEw9woBO6cHFU7dAQkMzwqk75sE86qg/Yd8+wniXAMIAfNy+1d0u
wkYo6sHw+Mc++gQ4wsuC6MG1+75AsjlGwsKh6cG9+MNAEU5Bwn6B6MHbwtRAD4szwgqI7MGI1R5A
chY2wvaB3sEwGYY/4roxwq1uCsJoiKu/SI86wvUZBMJQUUC/QDAnwiKy+MEQ8Ya+AXcowqaoBcLs
V4K/BkQ+wv+f7cEYYBlAEUE4wsC/9MEAjOY8XaNIwsZa7MGtDoVAucQwwqQM6cGOcKBAWaxCwqut
AsLgWBK/doE+wti0/sEo/Bw/l7M+wqsh+sFgiYm//QErwlxy6cGwzGc/t60uwpzS5MFAlvW+7fhA
wpg058E5oPRAy9Iwwras8sHsOyJAmjcuwvD/C8Jggb+/

> <OMEGA_E>
ML8EwQ==

> <OMEGA_NBR>
     22602

$$$$
CACHE3HI_1687_73
  -OEChem-03092622543D

 30 32  0     0  0  0  0  0  0999 V2000
  -47.7061  -31.0442    2.6624 C   0  0  0  0  0  0  0  0  0  0  0  0
  -49.0942  -31.1610    2.6976 C   0  0  0  0  0  0  0  0  0  0  0  0
  -47.7744  -29.5440    4.5659 C   0  0  0  0  0  0  0  0  0  0  0  0
  -43.4568  -28.7338    0.7491 C   0  0  0  0  0  0  0  0  0  0  0  0
  -49.1666  -29.6555    4.6085 C   0  0  0  0  0  0  0  0  0  0  0  0
  -47.0482  -30.2375    3.5940 C   0  0  0  0  0  0  0  0  0  0  0  0
  -49.8059  -30.4637    3.6720 C   0  0  0  0  0  0  0  0  0  0  0  0
  -43.1908  -29.2853    2.7446 C   0  0  0  0  0  0  0  0  0  0  0  0
  -49.9712  -28.9571    5.5968 C   0  0  0  0  0  0  0  0  0  0  0  0
  -51.2996  -29.0930    5.5987 C   0  0  0  0  0  0  0  0  0  0  0  0
  -51.9994  -29.9428    4.6179 C   0  0  0  0  0  0  0  0  0  0  0  0
  -44.7739  -29.8944    4.6211 C   0  0  0  0  0  0  0  0  0  0  0  0
  -43.3338  -29.8413    4.1364 C   0  0  0  0  0  0  0  0  0  0  0  0
  -44.0640  -29.4050    1.7719 N   0  0  0  0  0  0  0  0  0  0  0  0
  -42.1163  -28.5740    2.3103 N   0  0  0  0  0  0  0  0  0  0  0  0
  -42.2631  -28.2067    1.0284 N   0  0  0  0  0  0  0  0  0  0  0  0
  -45.6577  -30.1243    3.5542 N   0  0  0  0  0  0  0  0  0  0  0  0
  -53.2201  -30.0575    4.6334 O   0  0  0  0  0  0  0  0  0  0  0  0
  -45.0741  -29.7526    5.8022 O   0  0  0  0  0  0  0  0  0  0  0  0
  -51.2094  -30.6017    3.6817 O   0  0  0  0  0  0  0  0  0  0  0  0
  -47.1446  -31.5851    1.9047 H   0  0  0  0  0  0  0  0  0  0  0  0
  -49.6071  -31.7878    1.9745 H   0  0  0  0  0  0  0  0  0  0  0  0
  -47.2532  -28.9183    5.2878 H   0  0  0  0  0  0  0  0  0  0  0  0
  -43.9138  -28.6350   -0.2268 H   0  0  0  0  0  0  0  0  0  0  0  0
  -49.4774  -28.3269    6.3280 H   0  0  0  0  0  0  0  0  0  0  0  0
  -51.9067  -28.5751    6.3332 H   0  0  0  0  0  0  0  0  0  0  0  0
  -42.9109  -30.8529    4.1716 H   0  0  0  0  0  0  0  0  0  0  0  0
  -42.7498  -29.2331    4.8387 H   0  0  0  0  0  0  0  0  0  0  0  0
  -41.5657  -27.6676    0.5227 H   0  0  0  0  0  0  0  0  0  0  0  0
  -45.2206  -30.2214    2.6309 H   0  0  0  0  0  0  0  0  0  0  0  0
  1  2  1  0  0  0  0
  1  6  2  0  0  0  0
  2  7  2  0  0  0  0
  3  5  2  0  0  0  0
  3  6  1  0  0  0  0
  4 14  2  0  0  0  0
  4 16  1  0  0  0  0
  5  7  1  0  0  0  0
  5  9  1  0  0  0  0
  6 17  1  0  0  0  0
  7 20  1  0  0  0  0
  8 13  1  0  0  0  0
  8 14  1  0  0  0  0
  8 15  2  0  0  0  0
  9 10  2  0  0  0  0
 10 11  1  0  0  0  0
 11 18  2  0  0  0  0
 11 20  1  0  0  0  0
 12 13  1  0  0  0  0
 12 17  1  0  0  0  0
 12 19  2  0  0  0  0
 15 16  1  0  0  0  0
  1 21  1  0  0  0  0
  2 22  1  0  0  0  0
  3 23  1  0  0  0  0
  4 24  1  0  0  0  0
  9 25  1  0  0  0  0
 10 26  1  0  0  0  0
 13 27  1  0  0  0  0
 13 28  1  0  0  0  0
 16 29  1  0  0  0  0
 17 30  1  0  0  0  0
M  END
> <POSIT::Probability>
0.24

> <POSIT::Method>
FRED

> <ReceptorTitle>
UCSF-P4536-REFINED_LIGAND-BOUND-STATE_A__DU__LA1_A-201(A)

> <OMEGA_C>
B9M+wpVa+MG+ZCpAcmBEws1J+cHSpSxA/xg/whZa7ME9HJJAz9Mtws7e5cEcwj8/nKpEwns+7cGH
eJNAVDE8wljm8cFABGZARTlHwra188GSAmtAY8MswmFI6sFSpy9AjuJHwjGo58G9GLNAzzJNwny+
6MHcKLNAav9PwtSK78GHxZNAhBgzwrMn78EB4JNA1FUtwue67sGGXYRAlUEwwmY968H+y+I/GHco
wniX5MEy3BNAZQ0pwkSn4cHEoYM/e6E2wn3+8MGyeGNAbOFUwrt18MEsRZRA2ks0wlwF7sHxq7lA
cdZMwlPQ9MHMoGtADpQ8wluu/MEUzfM/p21GwlBN/sEQu/w/RgM9wrVY58HSNalAsacvwnEU5cGI
R2i+3ehFwnid4sHufspAeqBPwsOZ5MFnqcpAuaQrwtXS9sEOfoVAwP8qwl3d6cF/1ppAOkMmwlNX
3cEc0QU/3uE0wm3F8cFCYChA

> <OMEGA_E>
JH0IwQ==

> <OMEGA_NBR>
     23692

$$$$
CACHE3HI_1689_10
  -OEChem-03092622543D

 34 35  0     0  0  0  0  0  0999 V2000
  -47.4726  -29.0731    4.6842 C   0  0  0  0  0  0  0  0  0  0  0  0
  -48.1830  -30.4956    2.8649 C   0  0  0  0  0  0  0  0  0  0  0  0
  -48.7823  -29.0316    5.1623 C   0  0  0  0  0  0  0  0  0  0  0  0
  -49.4927  -30.4541    3.3430 C   0  0  0  0  0  0  0  0  0  0  0  0
  -42.9361  -30.8321    3.0931 C   0  0  0  0  0  0  0  0  0  0  0  0
  -47.1730  -29.8053    3.5354 C   0  0  0  0  0  0  0  0  0  0  0  0
  -49.7923  -29.7218    4.4918 C   0  0  0  0  0  0  0  0  0  0  0  0
  -43.2214  -30.0418    2.0082 C   0  0  0  0  0  0  0  0  0  0  0  0
  -45.8076  -29.8494    3.0368 C   0  0  0  0  0  0  0  0  0  0  0  0
  -52.3054  -29.7703    4.2412 C   0  0  0  0  0  0  0  0  0  0  0  0
  -53.3008  -29.5262    6.5253 C   0  0  0  0  0  0  0  0  0  0  0  0
  -44.3484  -30.1572    1.0223 C   0  0  0  0  0  0  0  0  0  0  0  0
  -42.2887  -29.0475    1.9052 N   0  0  0  0  0  0  0  0  0  0  0  0
  -41.4231  -29.1959    2.9021 N   0  0  0  0  0  0  0  0  0  0  0  0
  -41.8128  -30.2662    3.6133 N   0  0  0  0  0  0  0  0  0  0  0  0
  -51.1021  -29.6798    4.9703 N   0  0  0  0  0  0  0  0  0  0  0  0
  -45.6399  -30.0656    1.6644 N   0  0  0  0  0  0  0  0  0  0  0  0
  -53.4116  -29.6854    5.0928 N   0  0  0  0  0  0  0  0  0  0  0  0
  -44.8471  -29.7184    3.8155 O   0  0  0  0  0  0  0  0  0  0  0  0
  -52.4026  -29.9059    3.0239 O   0  0  0  0  0  0  0  0  0  0  0  0
  -46.6944  -28.5316    5.2154 H   0  0  0  0  0  0  0  0  0  0  0  0
  -47.9613  -31.0691    1.9687 H   0  0  0  0  0  0  0  0  0  0  0  0
  -49.0045  -28.4582    6.0588 H   0  0  0  0  0  0  0  0  0  0  0  0
  -50.2715  -30.9954    2.8119 H   0  0  0  0  0  0  0  0  0  0  0  0
  -43.4046  -31.7046    3.5247 H   0  0  0  0  0  0  0  0  0  0  0  0
  -53.3020  -30.5008    7.0218 H   0  0  0  0  0  0  0  0  0  0  0  0
  -52.3727  -29.0052    6.7769 H   0  0  0  0  0  0  0  0  0  0  0  0
  -54.1401  -28.9374    6.9058 H   0  0  0  0  0  0  0  0  0  0  0  0
  -44.2874  -29.3623    0.2717 H   0  0  0  0  0  0  0  0  0  0  0  0
  -44.3071  -31.1125    0.4886 H   0  0  0  0  0  0  0  0  0  0  0  0
  -41.2738  -30.5426    4.4250 H   0  0  0  0  0  0  0  0  0  0  0  0
  -51.2029  -29.5685    5.9852 H   0  0  0  0  0  0  0  0  0  0  0  0
  -46.4564  -30.2289    1.0846 H   0  0  0  0  0  0  0  0  0  0  0  0
  -54.3422  -29.7034    4.6871 H   0  0  0  0  0  0  0  0  0  0  0  0
  1  3  2  0  0  0  0
  1  6  1  0  0  0  0
  2  4  1  0  0  0  0
  2  6  2  0  0  0  0
  3  7  1  0  0  0  0
  4  7  2  0  0  0  0
  5  8  2  0  0  0  0
  5 15  1  0  0  0  0
  6  9  1  0  0  0  0
  7 16  1  0  0  0  0
  8 12  1  0  0  0  0
  8 13  1  0  0  0  0
  9 17  1  0  0  0  0
  9 19  2  0  0  0  0
 10 16  1  0  0  0  0
 10 18  1  0  0  0  0
 10 20  2  0  0  0  0
 11 18  1  0  0  0  0
 12 17  1  0  0  0  0
 13 14  2  0  0  0  0
 14 15  1  0  0  0  0
  1 21  1  0  0  0  0
  2 22  1  0  0  0  0
  3 23  1  0  0  0  0
  4 24  1  0  0  0  0
  5 25  1  0  0  0  0
 11 26  1  0  0  0  0
 11 27  1  0  0  0  0
 11 28  1  0  0  0  0
 12 29  1  0  0  0  0
 12 30  1  0  0  0  0
 15 31  1  0  0  0  0
 16 32  1  0  0  0  0
 17 33  1  0  0  0  0
 18 34  1  0  0  0  0
M  END
> <POSIT::Probability>
0.05

> <POSIT::Method>
FRED

> <ReceptorTitle>
UCSF-P4536-REFINED_LIGAND-BOUND-STATE_A__DU__LA1_A-201(A)

> <OMEGA_C>
9uM9wsiV6MHE5JVAZrtAwuX288EmWzdAHiFDwr9A6MGgMaVAhPhFwuih88Eq9FVAlr4rwjWo9sFE
9UVAM7E8wlJx7sG4RGJAUStHwlHG7cHWvI9AseIswq9V8MGXhQBABDs3wpTL7sFwWkJAxjhRwqkp
7sGJt4dADTRVwpE17MF1z9BAy2QxwgtC8cF324I/nCcpwlVh6MGx3fM/S7ElwimR6cHsuzlASkAn
wjsh8sF6QGdAl2hMwjtw7cGiDJ9ATo82wl6G8MGsCdU/haVVwql77cGI+KJAdWMzwmK/7cFSMXRA
RJxRwkw/78H6h0FABsc6wqVA5MHe5KZAVtg/wm6N+MHR/Ps/mgREwnSq48FZ4cFACBZJwoP298FW
9jNASZ4twhKj/cEClWFANDVVwpwB9MHWsuBAr31RwrMK6MGt3NhAco9Ywsp/58GZ/NxAUyYxwgDm
6sEEGIs+czoxwlbm+MEUKvo+bBglwkFX9MFFmY1Aw89MwjqM7MEkh79AUNM5wrHU8cFU1Yo/bV5Z
wpmg7cHZ/JVA

> <OMEGA_E>
hWoFwQ==

> <OMEGA_NBR>
     24860

$$$$
CACHE3HI_1689_2
  -OEChem-03092622543D

 45 45  0     0  0  0  0  0  0999 V2000
  -43.3951  -31.5266    2.6855 C   0  0  0  0  0  0  0  0  0  0  0  0
  -41.5895  -30.5613    3.6737 C   0  0  0  0  0  0  0  0  0  0  0  0
  -43.4521  -30.5233    1.7399 C   0  0  0  0  0  0  0  0  0  0  0  0
  -42.4898  -29.5409    1.8522 C   0  0  0  0  0  0  0  0  0  0  0  0
  -44.4887  -30.5388    0.6960 C   0  0  0  0  0  0  0  0  0  0  0  0
  -51.6966  -28.8929    3.8188 C   0  0  0  0  0  0  0  0  0  0  0  0
  -48.2827  -28.8495    4.6496 C   0  0  0  0  0  0  0  0  0  0  0  0
  -52.9302  -29.6336    4.2704 C   0  0  0  0  0  0  0  0  0  0  0  0
  -46.7401  -29.8861   -0.0663 C   0  0  0  0  0  0  0  0  0  0  0  0
  -50.3319  -30.9486    4.3989 C   0  0  0  0  0  0  0  0  0  0  0  0
  -46.0072  -29.4831    5.4777 C   0  0  0  0  0  0  0  0  0  0  0  0
  -49.2540  -28.9288    3.4845 C   0  0  0  0  0  0  0  0  0  0  0  0
  -46.0418  -29.2186    2.2068 C   0  0  0  0  0  0  0  0  0  0  0  0
  -46.6990  -30.1537    3.2091 C   0  0  0  0  0  0  0  0  0  0  0  0
  -42.4738  -31.5770    3.6700 N   0  0  0  0  0  0  0  0  0  0  0  0
  -41.5399  -29.5282    2.8106 N   0  0  0  0  0  0  0  0  0  0  0  0
  -42.4955  -28.4826    0.9100 N   0  0  0  0  0  0  0  0  0  0  0  0
  -45.7094  -29.8864    0.9773 N   0  0  0  0  0  0  0  0  0  0  0  0
  -50.4671  -29.5717    3.9005 N   0  0  0  0  0  0  0  0  0  0  0  0
  -47.0440  -29.4710    4.4541 N   0  0  0  0  0  0  0  0  0  0  0  0
  -44.1983  -31.1151   -0.3512 O   0  0  0  0  0  0  0  0  0  0  0  0
  -51.8072  -27.7372    3.4000 O   0  0  0  0  0  0  0  0  0  0  0  0
  -48.5942  -28.2680    5.6924 O   0  0  0  0  0  0  0  0  0  0  0  0
  -44.1054  -32.3476    2.6867 H   0  0  0  0  0  0  0  0  0  0  0  0
  -40.8396  -30.5752    4.4552 H   0  0  0  0  0  0  0  0  0  0  0  0
  -53.0927  -29.4524    5.3379 H   0  0  0  0  0  0  0  0  0  0  0  0
  -53.8081  -29.2741    3.7273 H   0  0  0  0  0  0  0  0  0  0  0  0
  -52.8004  -30.7090    4.1247 H   0  0  0  0  0  0  0  0  0  0  0  0
  -47.3906  -30.7595    0.0354 H   0  0  0  0  0  0  0  0  0  0  0  0
  -47.3518  -28.9825    0.0071 H   0  0  0  0  0  0  0  0  0  0  0  0
  -46.2754  -29.9077   -1.0559 H   0  0  0  0  0  0  0  0  0  0  0  0
  -50.4305  -31.6658    3.5790 H   0  0  0  0  0  0  0  0  0  0  0  0
  -49.3542  -31.0858    4.8694 H   0  0  0  0  0  0  0  0  0  0  0  0
  -51.1047  -31.1582    5.1436 H   0  0  0  0  0  0  0  0  0  0  0  0
  -46.1132  -30.3606    6.1220 H   0  0  0  0  0  0  0  0  0  0  0  0
  -45.0176  -29.5065    5.0128 H   0  0  0  0  0  0  0  0  0  0  0  0
  -46.0761  -28.5835    6.0955 H   0  0  0  0  0  0  0  0  0  0  0  0
  -49.5139  -27.9259    3.1367 H   0  0  0  0  0  0  0  0  0  0  0  0
  -48.8262  -29.5235    2.6738 H   0  0  0  0  0  0  0  0  0  0  0  0
  -46.7194  -28.3988    1.9525 H   0  0  0  0  0  0  0  0  0  0  0  0
  -45.1167  -28.7942    2.6103 H   0  0  0  0  0  0  0  0  0  0  0  0
  -46.0415  -30.9899    3.4660 H   0  0  0  0  0  0  0  0  0  0  0  0
  -47.6282  -30.5561    2.7946 H   0  0  0  0  0  0  0  0  0  0  0  0
  -43.1575  -28.5057    0.1654 H   0  0  0  0  0  0  0  0  0  0  0  0
  -41.7726  -27.7979    0.9516 H   0  0  0  0  0  0  0  0  0  0  0  0
  1  3  1  0  0  0  0
  1 15  2  0  0  0  0
  2 15  1  0  0  0  0
  2 16  2  0  0  0  0
  3  4  2  0  0  0  0
  3  5  1  0  0  0  0
  4 16  1  0  0  0  0
  4 17  1  0  0  0  0
  5 18  1  0  0  0  0
  5 21  2  0  0  0  0
  6  8  1  0  0  0  0
  6 19  1  0  0  0  0
  6 22  2  0  0  0  0
  7 12  1  0  0  0  0
  7 20  1  0  0  0  0
  7 23  2  0  0  0  0
  9 18  1  0  0  0  0
 10 19  1  0  0  0  0
 11 20  1  0  0  0  0
 12 19  1  0  0  0  0
 13 14  1  0  0  0  0
 13 18  1  0  0  0  0
 14 20  1  0  0  0  0
  1 24  1  0  0  0  0
  2 25  1  0  0  0  0
  8 26  1  0  0  0  0
  8 27  1  0  0  0  0
  8 28  1  0  0  0  0
  9 29  1  0  0  0  0
  9 30  1  0  0  0  0
  9 31  1  0  0  0  0
 10 32  1  0  0  0  0
 10 33  1  0  0  0  0
 10 34  1  0  0  0  0
 11 35  1  0  0  0  0
 11 36  1  0  0  0  0
 11 37  1  0  0  0  0
 12 38  1  0  0  0  0
 12 39  1  0  0  0  0
 13 40  1  0  0  0  0
 13 41  1  0  0  0  0
 14 42  1  0  0  0  0
 14 43  1  0  0  0  0
 17 44  1  0  0  0  0
 17 45  1  0  0  0  0
M  END
> <POSIT::Probability>
0.24

> <POSIT::Method>
FRED

> <ReceptorTitle>
UCSF-P4536-REFINED_LIGAND-BOUND-STATE_A__DU__LA1_A-201(A)

> <OMEGA_C>
oJQtwmA2/MEQ3ytAmVsmwoB99MF2HWtA684twrYv9MG+s94/h/UpwtJT7MGOFe0/c/Qxwl9P9MFY
KjI/SclOwqAk58F2ZnRAiCFBwtHL5sFbyZRAg7hTwqQR7cF4p4hA3PU6wqQW78FgvIe91FNJwq2W
98Hdw4xAawc4wlLd68EHSa9ADwRFwjlu58FqAV9Awyo4wpu/6cH0Ow1AxMs6wrE68cH7YU1AOOUp
wqud/MHu4GpA3ygmwsw57MG+4DNAYvspwmbc48HA9Gg/etY2wm4X78E4L3o/UN5JwuiS7MGIoXlA
Dy08wpfE68FSiI5ACsswwqrr+ME40LO+jDpPwsTl3cEymVlAaWBCwtEk4sFoKLZA9GswwvxjAcJa
8itAvVsjwhea9MHukI5A7F5Uwoye68Fa0KpAdztXwmYx6sF2i25AljNTwvar9cGu/YNABZA9wm4T
9sGA6RA9PWg9whbc58EAwOg7CBo5wg9D78EeKIe/3bhJwplT/cFWDmVAs2pFwq+v+MFS0ptAO2tM
wvpD+cElmKRA5HM4wmzi8sG258NABhI0wkMN7MHraKBA9k04wvaq5MGYDsNARw5GwkRo38EUwEhA
CE5DwhMw7MHMHitAteA6wqUw48Fg7Pk/h3c0wpJa5sFHDydAfyo4wj7r98Et011AUIM+wu5y9MEM
2jJAO6EswrgL5MGgWCk+IhcnwhJi3sGQnXM/

> <OMEGA_E>
Si0KwQ==

> <OMEGA_NBR>
     26242

$$$$
CACHE3HI_1689_39
  -OEChem-03092622543D

 40 41  0     0  0  0  0  0  0999 V2000
  -49.4921  -31.2356    3.7777 C   0  0  0  0  0  0  0  0  0  0  0  0
  -47.9724  -29.4667    4.4105 C   0  0  0  0  0  0  0  0  0  0  0  0
  -50.2036  -29.5300    5.3341 C   0  0  0  0  0  0  0  0  0  0  0  0
  -48.2418  -30.6248    3.6810 C   0  0  0  0  0  0  0  0  0  0  0  0
  -50.4730  -30.6881    4.6046 C   0  0  0  0  0  0  0  0  0  0  0  0
  -48.9533  -28.9192    5.2374 C   0  0  0  0  0  0  0  0  0  0  0  0
  -42.9427  -28.9832    2.5137 C   0  0  0  0  0  0  0  0  0  0  0  0
  -43.4161  -29.9353    4.3100 C   0  0  0  0  0  0  0  0  0  0  0  0
  -45.7962  -30.7806    1.0409 C   0  0  0  0  0  0  0  0  0  0  0  0
  -47.7785  -29.2678    1.4920 C   0  0  0  0  0  0  0  0  0  0  0  0
  -48.1484  -31.6369    0.7115 C   0  0  0  0  0  0  0  0  0  0  0  0
  -43.0790  -28.4711    1.1010 C   0  0  0  0  0  0  0  0  0  0  0  0
  -43.9032  -29.3950    0.2086 C   0  0  0  0  0  0  0  0  0  0  0  0
  -47.2519  -30.7020    1.5196 C   0  0  0  0  0  0  0  0  0  0  0  0
  -43.9349  -29.6920    3.1290 N   0  0  0  0  0  0  0  0  0  0  0  0
  -41.8431  -28.7731    3.2401 N   0  0  0  0  0  0  0  0  0  0  0  0
  -42.1716  -29.3922    4.3840 N   0  0  0  0  0  0  0  0  0  0  0  0
  -43.9132  -30.5999    5.3736 N   0  0  0  0  0  0  0  0  0  0  0  0
  -45.2582  -29.5537    0.6846 N   0  0  0  0  0  0  0  0  0  0  0  0
  -45.1859  -31.8480    0.9902 O   0  0  0  0  0  0  0  0  0  0  0  0
  -47.2792  -31.1617    2.8701 O   0  0  0  0  0  0  0  0  0  0  0  0
  -51.6738  -31.2742    4.6979 F   0  0  0  0  0  0  0  0  0  0  0  0
  -48.6950  -27.8072    5.9379 F   0  0  0  0  0  0  0  0  0  0  0  0
  -49.7082  -32.1375    3.2119 H   0  0  0  0  0  0  0  0  0  0  0  0
  -47.0005  -28.9863    4.3391 H   0  0  0  0  0  0  0  0  0  0  0  0
  -50.9674  -29.1041    5.9779 H   0  0  0  0  0  0  0  0  0  0  0  0
  -48.8179  -29.2285    1.8362 H   0  0  0  0  0  0  0  0  0  0  0  0
  -47.1985  -28.6283    2.1675 H   0  0  0  0  0  0  0  0  0  0  0  0
  -47.7303  -28.8271    0.4911 H   0  0  0  0  0  0  0  0  0  0  0  0
  -49.1873  -31.5768    1.0577 H   0  0  0  0  0  0  0  0  0  0  0  0
  -47.8355  -32.6796    0.8388 H   0  0  0  0  0  0  0  0  0  0  0  0
  -48.1293  -31.4087   -0.3590 H   0  0  0  0  0  0  0  0  0  0  0  0
  -43.5187  -27.4654    1.1116 H   0  0  0  0  0  0  0  0  0  0  0  0
  -42.0745  -28.3567    0.6742 H   0  0  0  0  0  0  0  0  0  0  0  0
  -43.9694  -28.9762   -0.8009 H   0  0  0  0  0  0  0  0  0  0  0  0
  -43.4594  -30.3930    0.1340 H   0  0  0  0  0  0  0  0  0  0  0  0
  -41.5111  -29.4013    5.1520 H   0  0  0  0  0  0  0  0  0  0  0  0
  -44.8704  -30.9829    5.3825 H   0  0  0  0  0  0  0  0  0  0  0  0
  -43.4025  -30.6664    6.2667 H   0  0  0  0  0  0  0  0  0  0  0  0
  -45.8436  -28.7281    0.7617 H   0  0  0  0  0  0  0  0  0  0  0  0
  1  4  1  0  0  0  0
  1  5  2  0  0  0  0
  2  4  2  0  0  0  0
  2  6  1  0  0  0  0
  3  5  1  0  0  0  0
  3  6  2  0  0  0  0
  4 21  1  0  0  0  0
  5 22  1  0  0  0  0
  6 23  1  0  0  0  0
  7 12  1  0  0  0  0
  7 15  1  0  0  0  0
  7 16  2  0  0  0  0
  8 15  2  0  0  0  0
  8 17  1  0  0  0  0
  8 18  1  0  0  0  0
  9 14  1  0  0  0  0
  9 19  1  0  0  0  0
  9 20  2  0  0  0  0
 10 14  1  0  0  0  0
 11 14  1  0  0  0  0
 12 13  1  0  0  0  0
 13 19  1  0  0  0  0
 14 21  1  0  0  0  0
 16 17  1  0  0  0  0
  1 24  1  0  0  0  0
  2 25  1  0  0  0  0
  3 26  1  0  0  0  0
 10 27  1  0  0  0  0
 10 28  1  0  0  0  0
 10 29  1  0  0  0  0
 11 30  1  0  0  0  0
 11 31  1  0  0  0  0
 11 32  1  0  0  0  0
 12 33  1  0  0  0  0
 12 34  1  0  0  0  0
 13 35  1  0  0  0  0
 13 36  1  0  0  0  0
 17 37  1  0  0  0  0
 18 38  1  0  0  0  0
 18 39  1  0  0  0  0
 19 40  1  0  0  0  0
M  END
> <POSIT::Probability>
0.24

> <POSIT::Method>
FRED

> <ReceptorTitle>
UCSF-P4536-REFINED_LIGAND-BOUND-STATE_A__DU__LA1_A-201(A)

> <OMEGA_C>
6PdFwnLi+cGExnFAxuM/wsK768H2Io1AfdBIwmw97MEYsapAl/dAwon/9MG8lGtATuRJwjKB9cGA
WJNAOtBDwoJa58FrmKdAVsUrwrDd58Ho3yBACqotwmh778Fg64lAVS83wps+9sEQPIU/Ox0/wnck
6sFY+r4/+JdAwlMY/cFQJjY/3VAswsbE48H47ow/6pwvwvIo68HAmFU+/gE9wqWd9cEYg8I/T70v
wh+J7cGoQUhAV18nwj8v5sEOXU9Aq68owiUj68HnSYxAJacvwpfM9MG+9KtAbQg1wvBt7MGgQC8/
Wr40wrXI/sGwf30/5R09wiZL+cEwsDdA+rFOwoUx+sGOVZZAqsdCwhB13sGIA75AL9VGwtCMAML4
jk1AiQA8wuDj58HS2YpAnN5LwkPV6MEWS79AkUVDwuLT6cF4Ces/Sss8wtIG5cH4twpA1us+wvKd
5sEAePs+yr9Ewjad/MEQYoc/iFc/wvK3AsKQvVY/aIRAwhVF+8Gg07e+LRMuwjS528GoR44/P0wo
wp7a4sEgmyw/pOAvwjbP58HwCk2/etYtwtEk88FAPAk+Ugsmwsw168E53aRAUHszwuTc98E6PaxA
HJwtwrBU9cE3ichA2183wifT5cHA/EI/

> <OMEGA_E>
xngjwQ==

> <OMEGA_NBR>
     27530

$$$$
CACHE3HI_1689_53
  -OEChem-03092622543D

 47 48  0     0  0  0  0  0  0999 V2000
  -48.0257  -29.3570    4.8510 C   0  0  0  0  0  0  0  0  0  0  0  0
  -48.0493  -29.6056    2.4479 C   0  0  0  0  0  0  0  0  0  0  0  0
  -46.6421  -29.5346    4.8552 C   0  0  0  0  0  0  0  0  0  0  0  0
  -46.6658  -29.7831    2.4520 C   0  0  0  0  0  0  0  0  0  0  0  0
  -43.0830  -32.5863    3.1118 C   0  0  0  0  0  0  0  0  0  0  0  0
  -43.9884  -33.6210    1.3012 C   0  0  0  0  0  0  0  0  0  0  0  0
  -48.7292  -29.3924    3.6472 C   0  0  0  0  0  0  0  0  0  0  0  0
  -42.7156  -31.4995    2.3451 C   0  0  0  0  0  0  0  0  0  0  0  0
  -45.9623  -29.7478    3.6559 C   0  0  0  0  0  0  0  0  0  0  0  0
  -43.0448  -31.5734    1.0072 C   0  0  0  0  0  0  0  0  0  0  0  0
  -43.6975  -29.9229    4.7609 C   0  0  0  0  0  0  0  0  0  0  0  0
  -52.7371  -29.9859    2.7065 C   0  0  0  0  0  0  0  0  0  0  0  0
  -52.6062  -29.0951    5.0514 C   0  0  0  0  0  0  0  0  0  0  0  0
  -52.8566  -31.5643    4.6642 C   0  0  0  0  0  0  0  0  0  0  0  0
  -42.0046  -30.3292    2.9618 C   0  0  0  0  0  0  0  0  0  0  0  0
  -50.2175  -29.2041    3.6424 C   0  0  0  0  0  0  0  0  0  0  0  0
  -52.2582  -30.2629    4.1312 C   0  0  0  0  0  0  0  0  0  0  0  0
  -43.7229  -33.6679    2.6207 N   0  0  0  0  0  0  0  0  0  0  0  0
  -43.6832  -32.6232    0.4493 N   0  0  0  0  0  0  0  0  0  0  0  0
  -42.6931  -30.4863    0.1696 N   0  0  0  0  0  0  0  0  0  0  0  0
  -44.5785  -29.9251    3.6602 N   0  0  0  0  0  0  0  0  0  0  0  0
  -42.3793  -30.1360    4.3445 N   0  0  0  0  0  0  0  0  0  0  0  0
  -44.0132  -29.7593    5.9369 O   0  0  0  0  0  0  0  0  0  0  0  0
  -50.8357  -30.3897    4.1158 O   0  0  0  0  0  0  0  0  0  0  0  0
  -48.5470  -29.1919    5.7901 H   0  0  0  0  0  0  0  0  0  0  0  0
  -48.5897  -29.6350    1.5052 H   0  0  0  0  0  0  0  0  0  0  0  0
  -46.1038  -29.5050    5.7993 H   0  0  0  0  0  0  0  0  0  0  0  0
  -46.1467  -29.9487    1.5113 H   0  0  0  0  0  0  0  0  0  0  0  0
  -42.8701  -32.6263    4.1755 H   0  0  0  0  0  0  0  0  0  0  0  0
  -44.5018  -34.4766    0.8801 H   0  0  0  0  0  0  0  0  0  0  0  0
  -52.4899  -30.8208    2.0421 H   0  0  0  0  0  0  0  0  0  0  0  0
  -53.8188  -29.8229    2.6700 H   0  0  0  0  0  0  0  0  0  0  0  0
  -52.2379  -29.1030    2.2931 H   0  0  0  0  0  0  0  0  0  0  0  0
  -52.2644  -29.2895    6.0746 H   0  0  0  0  0  0  0  0  0  0  0  0
  -52.1544  -28.1598    4.7067 H   0  0  0  0  0  0  0  0  0  0  0  0
  -53.6915  -28.9548    5.1097 H   0  0  0  0  0  0  0  0  0  0  0  0
  -52.5210  -31.7743    5.6849 H   0  0  0  0  0  0  0  0  0  0  0  0
  -53.9518  -31.5207    4.6623 H   0  0  0  0  0  0  0  0  0  0  0  0
  -52.5793  -32.4103    4.0256 H   0  0  0  0  0  0  0  0  0  0  0  0
  -40.9197  -30.4727    2.9229 H   0  0  0  0  0  0  0  0  0  0  0  0
  -42.2298  -29.4037    2.4216 H   0  0  0  0  0  0  0  0  0  0  0  0
  -50.5064  -28.3674    4.2872 H   0  0  0  0  0  0  0  0  0  0  0  0
  -50.5800  -28.9900    2.6307 H   0  0  0  0  0  0  0  0  0  0  0  0
  -42.2687  -29.6823    0.5781 H   0  0  0  0  0  0  0  0  0  0  0  0
  -42.9727  -30.5058   -0.7868 H   0  0  0  0  0  0  0  0  0  0  0  0
  -44.1454  -30.0771    2.7425 H   0  0  0  0  0  0  0  0  0  0  0  0
  -41.6399  -30.1233    5.0401 H   0  0  0  0  0  0  0  0  0  0  0  0
  1  3  2  0  0  0  0
  1  7  1  0  0  0  0
  2  4  1  0  0  0  0
  2  7  2  0  0  0  0
  3  9  1  0  0  0  0
  4  9  2  0  0  0  0
  5  8  1  0  0  0  0
  5 18  2  0  0  0  0
  6 18  1  0  0  0  0
  6 19  2  0  0  0  0
  7 16  1  0  0  0  0
  8 10  2  0  0  0  0
  8 15  1  0  0  0  0
  9 21  1  0  0  0  0
 10 19  1  0  0  0  0
 10 20  1  0  0  0  0
 11 21  1  0  0  0  0
 11 22  1  0  0  0  0
 11 23  2  0  0  0  0
 12 17  1  0  0  0  0
 13 17  1  0  0  0  0
 14 17  1  0  0  0  0
 15 22  1  0  0  0  0
 16 24  1  0  0  0  0
 17 24  1  0  0  0  0
  1 25  1  0  0  0  0
  2 26  1  0  0  0  0
  3 27  1  0  0  0  0
  4 28  1  0  0  0  0
  5 29  1  0  0  0  0
  6 30  1  0  0  0  0
 12 31  1  0  0  0  0
 12 32  1  0  0  0  0
 12 33  1  0  0  0  0
 13 34  1  0  0  0  0
 13 35  1  0  0  0  0
 13 36  1  0  0  0  0
 14 37  1  0  0  0  0
 14 38  1  0  0  0  0
 14 39  1  0  0  0  0
 15 40  1  0  0  0  0
 15 41  1  0  0  0  0
 16 42  1  0  0  0  0
 16 43  1  0  0  0  0
 20 44  1  0  0  0  0
 20 45  1  0  0  0  0
 21 46  1  0  0  0  0
 22 47  1  0  0  0  0
M  END
> <POSIT::Probability>
0.18

> <POSIT::Method>
FRED

> <ReceptorTitle>
UCSF-P4536-REFINED_LIGAND-BOUND-STATE_A__DU__LA1_A-201(A)

> <OMEGA_C>
SxpAwjDb6sG+O5tAeTJAwjDY7MH4qRxAjpE6wtpG7MGkXZtAyqk6wtpD7sEx7RxA/VQswlNYAsJL
KEdAJPQvwuJ7BsI0jqY/qupCwqIj68Fha2lAxNwqwvT++8GwFRZAXdk3wmr77cHh+WlA1S0swmCW
/MFU7IA/NMouwihi78EvWZhAzvJSwi7j78GxNi1At2xSwsLC6MEOpaFAIW1TwqiD/MEUQZVArQQo
wjKi8sFQjT1Art5Iwvyh6cFHHWlAXghRwnAa8sGgMoRAS+QuwuKrBsJEuidAorsuwh5+AsIQCOY+
tMUqwujj88HQsS0+ZVAywrRm78HuP2pAdIQpwooW8cHBBYtAew0wwvIS7sEa+71AxldLwjQe88FE
tINAHjBCwvaI6cFUSLlA3VtCwooU7cGkqsA/Umo4wlIK7MGEk7lAMJY4wgSX78GqccE/83orwk6B
AsKNnYVA5AEywg/oCcIQTmE/rfVRwvKQ9sGZsQJAd0ZXwlaV7sFF4SpAk/NQwgLT6MHhwRJAwg5R
wtxQ6sEfY8JAEZ5QwlhH4cGmnZZAIcRWwmqj58FUgqNAehVSwtgx/sHv6rVAqs5Xwmwq/MGwMZVA
PlFSwhukAcK60YBAuq0jwhbI88E4ETtAT+sowto668HI+hpAmQZKwljw4sFwMIlA8FFKwpbr58GE
XShAKhMpwkJ17cHkABQ/F+QrwuIL9ME8bkm/8JQwws6d8MH4hC9API8mwoz88MF6SKFA

> <OMEGA_E>
+i0RwQ==

> <OMEGA_NBR>
     28956

$$$$
CACHE3HI_1689_69
  -OEChem-03092622543D

 48 48  0     0  0  0  0  0  0999 V2000
  -43.3302  -29.6390    5.5931 C   0  0  0  0  0  0  0  0  0  0  0  0
  -43.2436  -29.9665    4.2400 C   0  0  0  0  0  0  0  0  0  0  0  0
  -44.5717  -29.3607    6.1646 C   0  0  0  0  0  0  0  0  0  0  0  0
  -45.6397  -29.7377    4.0302 C   0  0  0  0  0  0  0  0  0  0  0  0
  -44.3981  -30.0160    3.4586 C   0  0  0  0  0  0  0  0  0  0  0  0
  -45.7263  -29.4103    5.3832 C   0  0  0  0  0  0  0  0  0  0  0  0
  -52.8192  -30.0055    5.7277 C   0  0  0  0  0  0  0  0  0  0  0  0
  -45.3500  -30.4445    1.1653 C   0  0  0  0  0  0  0  0  0  0  0  0
  -48.2364  -29.1299    5.3402 C   0  0  0  0  0  0  0  0  0  0  0  0
  -46.3481  -33.3734   -0.2446 C   0  0  0  0  0  0  0  0  0  0  0  0
  -44.2419  -34.7110    0.0356 C   0  0  0  0  0  0  0  0  0  0  0  0
  -51.3484  -30.0500    6.1002 C   0  0  0  0  0  0  0  0  0  0  0  0
  -44.8156  -30.8298   -0.2084 C   0  0  0  0  0  0  0  0  0  0  0  0
  -44.0919  -32.1765   -0.1963 C   0  0  0  0  0  0  0  0  0  0  0  0
  -50.6376  -28.7171    5.9162 C   0  0  0  0  0  0  0  0  0  0  0  0
  -44.9235  -33.3710    0.3140 C   0  0  0  0  0  0  0  0  0  0  0  0
  -53.0137  -29.6523    4.4094 N   0  0  0  0  0  0  0  0  0  0  0  0
  -44.3092  -30.3491    2.0863 N   0  0  0  0  0  0  0  0  0  0  0  0
  -46.9680  -29.1324    5.9557 N   0  0  0  0  0  0  0  0  0  0  0  0
  -49.2360  -28.7986    6.2606 N   0  0  0  0  0  0  0  0  0  0  0  0
  -53.7336  -30.2461    6.5099 O   0  0  0  0  0  0  0  0  0  0  0  0
  -46.5443  -30.2579    1.3714 O   0  0  0  0  0  0  0  0  0  0  0  0
  -48.4656  -29.3803    4.1594 O   0  0  0  0  0  0  0  0  0  0  0  0
  -45.0170  -33.2485    1.7391 O   0  0  0  0  0  0  0  0  0  0  0  0
  -42.4311  -29.6001    6.2014 H   0  0  0  0  0  0  0  0  0  0  0  0
  -42.2707  -30.1815    3.8046 H   0  0  0  0  0  0  0  0  0  0  0  0
  -44.6277  -29.1063    7.2200 H   0  0  0  0  0  0  0  0  0  0  0  0
  -46.5401  -29.7766    3.4210 H   0  0  0  0  0  0  0  0  0  0  0  0
  -46.8647  -32.4258   -0.0613 H   0  0  0  0  0  0  0  0  0  0  0  0
  -46.9397  -34.1836    0.1980 H   0  0  0  0  0  0  0  0  0  0  0  0
  -46.3396  -33.5536   -1.3251 H   0  0  0  0  0  0  0  0  0  0  0  0
  -43.2191  -34.7428    0.4231 H   0  0  0  0  0  0  0  0  0  0  0  0
  -44.8094  -35.5364    0.4800 H   0  0  0  0  0  0  0  0  0  0  0  0
  -44.2025  -34.9094   -1.0421 H   0  0  0  0  0  0  0  0  0  0  0  0
  -50.8717  -30.8010    5.4595 H   0  0  0  0  0  0  0  0  0  0  0  0
  -51.2607  -30.3887    7.1391 H   0  0  0  0  0  0  0  0  0  0  0  0
  -44.1365  -30.0343   -0.5349 H   0  0  0  0  0  0  0  0  0  0  0  0
  -45.6654  -30.8599   -0.8990 H   0  0  0  0  0  0  0  0  0  0  0  0
  -43.7284  -32.4044   -1.2084 H   0  0  0  0  0  0  0  0  0  0  0  0
  -43.1797  -32.0918    0.4111 H   0  0  0  0  0  0  0  0  0  0  0  0
  -51.0853  -27.9312    6.5322 H   0  0  0  0  0  0  0  0  0  0  0  0
  -50.6903  -28.4044    4.8688 H   0  0  0  0  0  0  0  0  0  0  0  0
  -52.2107  -29.4594    3.8192 H   0  0  0  0  0  0  0  0  0  0  0  0
  -53.9483  -29.5825    4.0211 H   0  0  0  0  0  0  0  0  0  0  0  0
  -43.3686  -30.5390    1.7440 H   0  0  0  0  0  0  0  0  0  0  0  0
  -46.9566  -28.8996    6.9548 H   0  0  0  0  0  0  0  0  0  0  0  0
  -48.9742  -28.6375    7.2283 H   0  0  0  0  0  0  0  0  0  0  0  0
  -45.5231  -34.0155    2.0412 H   0  0  0  0  0  0  0  0  0  0  0  0
  1  2  2  0  0  0  0
  1  3  1  0  0  0  0
  2  5  1  0  0  0  0
  3  6  2  0  0  0  0
  4  5  2  0  0  0  0
  4  6  1  0  0  0  0
  5 18  1  0  0  0  0
  6 19  1  0  0  0  0
  7 12  1  0  0  0  0
  7 17  1  0  0  0  0
  7 21  2  0  0  0  0
  8 13  1  0  0  0  0
  8 18  1  0  0  0  0
  8 22  2  0  0  0  0
  9 19  1  0  0  0  0
  9 20  1  0  0  0  0
  9 23  2  0  0  0  0
 10 16  1  0  0  0  0
 11 16  1  0  0  0  0
 12 15  1  0  0  0  0
 13 14  1  0  0  0  0
 14 16  1  0  0  0  0
 15 20  1  0  0  0  0
 16 24  1  0  0  0  0
  1 25  1  0  0  0  0
  2 26  1  0  0  0  0
  3 27  1  0  0  0  0
  4 28  1  0  0  0  0
 10 29  1  0  0  0  0
 10 30  1  0  0  0  0
 10 31  1  0  0  0  0
 11 32  1  0  0  0  0
 11 33  1  0  0  0  0
 11 34  1  0  0  0  0
 12 35  1  0  0  0  0
 12 36  1  0  0  0  0
 13 37  1  0  0  0  0
 13 38  1  0  0  0  0
 14 39  1  0  0  0  0
 14 40  1  0  0  0  0
 15 41  1  0  0  0  0
 15 42  1  0  0  0  0
 17 43  1  0  0  0  0
 17 44  1  0  0  0  0
 18 45  1  0  0  0  0
 19 46  1  0  0  0  0
 20 47  1  0  0  0  0
 24 48  1  0  0  0  0
M  END
> <POSIT::Probability>
0.23

> <POSIT::Method>
HYBRID

> <ReceptorTitle>
UCSF-P4536-REFINED_LIGAND-BOUND-STATE_A__DU__LA1_A-201(A)

> <OMEGA_C>
IFItwqcc7cGi+rJAbvkswla778HOrYdAc0kyws7i6sGHRMVADY82wtzm7cEB94BAsZcxwr4g8MF2
WV1Atuc2wjZI68F3Q6xA0kZTwkoL8MGnSbdAZ2Y1wmCO88ElKZU/D/JAwg8K6cHp4qpAaWQ5wlJ+
BcLsdXq+vPcwwhfYCsKA2hE9tmRNwmJm8MHFNMNANEMzwn6j9sFAZ1W+GF4wwsW0AMLMAUm+3oxK
wqS85cF1Ub1AqbEzwt57BcKkyaA+/Q1UwvA37cHzGY1AlTwxwvLK8sEbhgVAQ987wj0P6cHUlL5A
rfFEwnVj5sEuV8hAMu9WwvL38cH9UNBAVC06wiwQ8sF4iK8/u9xBwu4K68H7GYVAdBE0wmv+BMIX
mt4/dLkpwhTN7MEQcsZAKxUpwq5z8cHWfnNAyYIywr7Z6MHlCedAHCk6wmI27sH+8FpAb3U7whG0
AcJQHnu9NsI7wv+7CMJguko+uVs5wtk2BsJanam/ZuAswp74CsJ0m9g+1zwzwjwlDsIIvPU+aM8w
wjWjC8LZZIW/p3xLwlxo9sEwtK5A/gpNwgMc88FCc+RAwoswwixG8MFe8gi/aak2wivh9sHcIWa/
3+kuwiKeAcLUrJq//bcswgReAMI4ddI+WVdMwghz38HJB9FA4MJKwjY848GAzZtAxNdQwuKs68HQ
bXRAD8tXwgmp7MGtrIBAeHktwtNP9MHPPN8/itM7wnky58GEjd5AjeVDwrIZ5cF5TudApxc2wuAP
CMIEowJA

> <OMEGA_E>
AXa6wA==

> <OMEGA_NBR>
     30403

$$$$
CACHE3HI_1689_8
  -OEChem-03092622543D

 39 40  0     0  0  0  0  0  0999 V2000
  -46.8947  -29.2504    3.5162 C   0  0  0  0  0  0  0  0  0  0  0  0
  -48.0847  -30.8831    2.1911 C   0  0  0  0  0  0  0  0  0  0  0  0
  -48.0191  -29.0889    4.3257 C   0  0  0  0  0  0  0  0  0  0  0  0
  -49.2090  -30.7217    3.0006 C   0  0  0  0  0  0  0  0  0  0  0  0
  -42.2936  -29.7457    2.8566 C   0  0  0  0  0  0  0  0  0  0  0  0
  -46.9276  -30.1477    2.4489 C   0  0  0  0  0  0  0  0  0  0  0  0
  -49.1762  -29.8243    4.0680 C   0  0  0  0  0  0  0  0  0  0  0  0
  -42.9824  -30.4880    1.9306 C   0  0  0  0  0  0  0  0  0  0  0  0
  -45.6395  -31.1581    0.5250 C   0  0  0  0  0  0  0  0  0  0  0  0
  -51.6593  -29.8368    4.4023 C   0  0  0  0  0  0  0  0  0  0  0  0
  -54.0641  -29.8800    5.0424 C   0  0  0  0  0  0  0  0  0  0  0  0
  -50.1178  -29.3642    6.3353 C   0  0  0  0  0  0  0  0  0  0  0  0
  -43.3553  -30.1332    0.5197 C   0  0  0  0  0  0  0  0  0  0  0  0
  -43.3281  -31.6945    2.4730 N   0  0  0  0  0  0  0  0  0  0  0  0
  -42.8714  -31.7264    3.7202 N   0  0  0  0  0  0  0  0  0  0  0  0
  -42.2515  -30.5573    3.9485 N   0  0  0  0  0  0  0  0  0  0  0  0
  -45.8029  -30.3101    1.6395 N   0  0  0  0  0  0  0  0  0  0  0  0
  -52.6643  -29.7211    5.3635 N   0  0  0  0  0  0  0  0  0  0  0  0
  -44.3565  -31.0276   -0.0163 N   0  0  0  0  0  0  0  0  0  0  0  0
  -50.3463  -29.6552    4.9106 N   0  0  0  0  0  0  0  0  0  0  0  0
  -46.4886  -31.9189    0.0672 O   0  0  0  0  0  0  0  0  0  0  0  0
  -51.9229  -30.0824    3.2225 O   0  0  0  0  0  0  0  0  0  0  0  0
  -45.9981  -28.6731    3.7271 H   0  0  0  0  0  0  0  0  0  0  0  0
  -48.1223  -31.5842    1.3613 H   0  0  0  0  0  0  0  0  0  0  0  0
  -47.9821  -28.3872    5.1551 H   0  0  0  0  0  0  0  0  0  0  0  0
  -50.1052  -31.3001    2.7906 H   0  0  0  0  0  0  0  0  0  0  0  0
  -41.8497  -28.7609    2.8429 H   0  0  0  0  0  0  0  0  0  0  0  0
  -54.5061  -28.9191    4.7635 H   0  0  0  0  0  0  0  0  0  0  0  0
  -54.1836  -30.5766    4.2078 H   0  0  0  0  0  0  0  0  0  0  0  0
  -54.6063  -30.2790    5.9041 H   0  0  0  0  0  0  0  0  0  0  0  0
  -50.0604  -28.2849    6.5029 H   0  0  0  0  0  0  0  0  0  0  0  0
  -50.9340  -29.7703    6.9395 H   0  0  0  0  0  0  0  0  0  0  0  0
  -49.1822  -29.8215    6.6687 H   0  0  0  0  0  0  0  0  0  0  0  0
  -43.7520  -29.1138    0.4702 H   0  0  0  0  0  0  0  0  0  0  0  0
  -42.4820  -30.1748   -0.1395 H   0  0  0  0  0  0  0  0  0  0  0  0
  -41.8307  -30.3902    4.8544 H   0  0  0  0  0  0  0  0  0  0  0  0
  -44.9883  -29.7378    1.8878 H   0  0  0  0  0  0  0  0  0  0  0  0
  -52.4028  -29.5182    6.3223 H   0  0  0  0  0  0  0  0  0  0  0  0
  -44.0985  -31.6114   -0.8060 H   0  0  0  0  0  0  0  0  0  0  0  0
  1  3  2  0  0  0  0
  1  6  1  0  0  0  0
  2  4  1  0  0  0  0
  2  6  2  0  0  0  0
  3  7  1  0  0  0  0
  4  7  2  0  0  0  0
  5  8  2  0  0  0  0
  5 16  1  0  0  0  0
  6 17  1  0  0  0  0
  7 20  1  0  0  0  0
  8 13  1  0  0  0  0
  8 14  1  0  0  0  0
  9 17  1  0  0  0  0
  9 19  1  0  0  0  0
  9 21  2  0  0  0  0
 10 18  1  0  0  0  0
 10 20  1  0  0  0  0
 10 22  2  0  0  0  0
 11 18  1  0  0  0  0
 12 20  1  0  0  0  0
 13 19  1  0  0  0  0
 14 15  2  0  0  0  0
 15 16  1  0  0  0  0
  1 23  1  0  0  0  0
  2 24  1  0  0  0  0
  3 25  1  0  0  0  0
  4 26  1  0  0  0  0
  5 27  1  0  0  0  0
 11 28  1  0  0  0  0
 11 29  1  0  0  0  0
 11 30  1  0  0  0  0
 12 31  1  0  0  0  0
 12 32  1  0  0  0  0
 12 33  1  0  0  0  0
 13 34  1  0  0  0  0
 13 35  1  0  0  0  0
 16 36  1  0  0  0  0
 17 37  1  0  0  0  0
 18 38  1  0  0  0  0
 19 39  1  0  0  0  0
M  END
> <POSIT::Probability>
0.24

> <POSIT::Method>
FRED

> <ReceptorTitle>
UCSF-P4536-REFINED_LIGAND-BOUND-STATE_A__DU__LA1_A-201(A)

> <OMEGA_C>
NJQ7wtYA6sHJCGFAtlZAwqYQ98HgOgxAjxNAwhe26MF5bIpACtZEwvTF9cE+CkBAqCwpwin37cEL
0jZA4rU7wpUu8cEEuhxAYbREwiiY7sHoLIJAB+4rwoXn88GyHfc/1442wrVD+cFAaQY/IKNOwqyx
7sHv34xAoEFYwjgK78HwWqFAqnhIwunp6sFkuspA0mstwuMQ8cEADQU/+U8twkyO/cHqRR5AVXwr
wqnP/cFLF25AfQEpwlZ19MHxs3xAIDY3wi578sFI3NE/RahSwtjE7cH6oatAB20xwo44+MEA64W8
pWJJwtg97cFZI51AS/Q5wu1Z/8EAjok9D7FPwsmo8MEKPk5AAv43wppi5cFaiG5AP31AwnSs/MGS
Pq4/ru0/wuwY48GK9qRAsGtIwp9m+sFzmTJAIWYnwlcW5sFy8jVASwZawl5a58G4bphA/LtYwuWc
9MFMpoZA2Gxawks78sFl7rxA5D1IwmNH4sEBGNBAX7xLwo8p7sEvEN5AiLpEwmuS7sHxZdVAEwIv
wgvp6MGwvPA+kO0pwgZm8cGA5A6+oFInwgkf88H2VptAB/Qzwhzn7cFuo/E/bJxRwkQl7MExUMpA
4WQwwjDk/MFQVU6/

> <OMEGA_E>
JasXwQ==

> <OMEGA_NBR>
     31670

$$$$
CACHE3HI_1689_84
  -OEChem-03092622543D

 49 49  0     1  0  0  0  0  0999 V2000
  -45.9019  -29.1427    5.9496 C   0  0  0  0  0  0  0  0  0  0  0  0
  -44.6286  -29.5718    3.9413 C   0  0  0  0  0  0  0  0  0  0  0  0
  -47.0073  -29.9909    3.9758 C   0  0  0  0  0  0  0  0  0  0  0  0
  -44.6846  -29.1460    5.2685 C   0  0  0  0  0  0  0  0  0  0  0  0
  -47.0633  -29.5651    5.3030 C   0  0  0  0  0  0  0  0  0  0  0  0
  -45.7901  -29.9943    3.2947 C   0  0  0  0  0  0  0  0  0  0  0  0
  -53.0297  -32.1212    5.2943 C   0  0  0  0  0  0  0  0  0  0  0  0
  -52.0246  -31.5798    5.9922 C   0  0  0  0  0  0  0  0  0  0  0  0
  -49.5517  -29.9479    5.5092 C   0  0  0  0  0  0  0  0  0  0  0  0
  -44.6275  -30.4988    1.1251 C   0  0  0  0  0  0  0  0  0  0  0  0
  -43.4424  -28.6935    5.9594 C   0  0  0  0  0  0  0  0  0  0  0  0
  -44.7337  -33.2857    0.4917 C   0  0  0  0  0  0  0  0  0  0  0  0
  -42.9009  -31.9529   -0.5919 C   0  0  0  0  0  0  0  0  0  0  0  0
  -44.9546  -32.5545   -1.9072 C   0  0  0  0  0  0  0  0  0  0  0  0
  -52.5416  -29.2337    5.2242 C   0  0  0  0  0  0  0  0  0  0  0  0
  -51.9186  -30.1144    6.3078 C   0  0  2  0  0  0  0  0  0  0  0  0
  -44.4074  -32.1936   -0.5266 C   0  0  0  0  0  0  0  0  0  0  0  0
  -48.2984  -29.5622    5.9931 N   0  0  0  0  0  0  0  0  0  0  0  0
  -45.7337  -30.4211    1.9674 N   0  0  0  0  0  0  0  0  0  0  0  0
  -50.5245  -29.7974    6.5046 N   0  0  0  0  0  0  0  0  0  0  0  0
  -49.8045  -30.3641    4.3812 O   0  0  0  0  0  0  0  0  0  0  0  0
  -43.4704  -30.2012    1.3949 O   0  0  0  0  0  0  0  0  0  0  0  0
  -52.2409  -29.7359    3.9277 O   0  0  0  0  0  0  0  0  0  0  0  0
  -45.0216  -30.9725   -0.0978 O   0  0  0  0  0  0  0  0  0  0  0  0
  -45.9431  -28.8100    6.9843 H   0  0  0  0  0  0  0  0  0  0  0  0
  -43.6779  -29.5734    3.4123 H   0  0  0  0  0  0  0  0  0  0  0  0
  -47.9138  -30.3208    3.4720 H   0  0  0  0  0  0  0  0  0  0  0  0
  -53.0683  -33.1848    5.0882 H   0  0  0  0  0  0  0  0  0  0  0  0
  -53.8335  -31.4990    4.9177 H   0  0  0  0  0  0  0  0  0  0  0  0
  -51.2367  -32.2379    6.3533 H   0  0  0  0  0  0  0  0  0  0  0  0
  -42.9368  -29.5301    6.4590 H   0  0  0  0  0  0  0  0  0  0  0  0
  -43.6667  -27.9488    6.7344 H   0  0  0  0  0  0  0  0  0  0  0  0
  -42.7463  -28.2467    5.2390 H   0  0  0  0  0  0  0  0  0  0  0  0
  -45.8133  -33.4623    0.5425 H   0  0  0  0  0  0  0  0  0  0  0  0
  -44.2397  -34.2298    0.2416 H   0  0  0  0  0  0  0  0  0  0  0  0
  -44.4215  -32.9852    1.4977 H   0  0  0  0  0  0  0  0  0  0  0  0
  -42.6622  -31.1702   -1.3212 H   0  0  0  0  0  0  0  0  0  0  0  0
  -42.4961  -31.6559    0.3805 H   0  0  0  0  0  0  0  0  0  0  0  0
  -42.3760  -32.8556   -0.9246 H   0  0  0  0  0  0  0  0  0  0  0  0
  -44.7273  -31.7795   -2.6464 H   0  0  0  0  0  0  0  0  0  0  0  0
  -44.5327  -33.5028   -2.2594 H   0  0  0  0  0  0  0  0  0  0  0  0
  -46.0408  -32.6933   -1.8711 H   0  0  0  0  0  0  0  0  0  0  0  0
  -53.6309  -29.1943    5.3348 H   0  0  0  0  0  0  0  0  0  0  0  0
  -52.1485  -28.2130    5.2897 H   0  0  0  0  0  0  0  0  0  0  0  0
  -52.4162  -29.8922    7.2594 H   0  0  0  0  0  0  0  0  0  0  0  0
  -48.2710  -29.2407    6.9579 H   0  0  0  0  0  0  0  0  0  0  0  0
  -46.6264  -30.7171    1.5573 H   0  0  0  0  0  0  0  0  0  0  0  0
  -50.2322  -29.4792    7.4247 H   0  0  0  0  0  0  0  0  0  0  0  0
  -52.6623  -29.1361    3.2919 H   0  0  0  0  0  0  0  0  0  0  0  0
  1  4  1  0  0  0  0
  1  5  2  0  0  0  0
  2  4  2  0  0  0  0
  2  6  1  0  0  0  0
  3  5  1  0  0  0  0
  3  6  2  0  0  0  0
  4 11  1  0  0  0  0
  5 18  1  0  0  0  0
  6 19  1  0  0  0  0
  7  8  2  0  0  0  0
  8 16  1  0  0  0  0
  9 18  1  0  0  0  0
  9 20  1  0  0  0  0
  9 21  2  0  0  0  0
 10 19  1  0  0  0  0
 10 22  2  0  0  0  0
 10 24  1  0  0  0  0
 12 17  1  0  0  0  0
 13 17  1  0  0  0  0
 14 17  1  0  0  0  0
 15 16  1  0  0  0  0
 15 23  1  0  0  0  0
 16 20  1  0  0  0  0
 17 24  1  0  0  0  0
  1 25  1  0  0  0  0
  2 26  1  0  0  0  0
  3 27  1  0  0  0  0
  7 28  1  0  0  0  0
  7 29  1  0  0  0  0
  8 30  1  0  0  0  0
 11 31  1  0  0  0  0
 11 32  1  0  0  0  0
 11 33  1  0  0  0  0
 12 34  1  0  0  0  0
 12 35  1  0  0  0  0
 12 36  1  0  0  0  0
 13 37  1  0  0  0  0
 13 38  1  0  0  0  0
 13 39  1  0  0  0  0
 14 40  1  0  0  0  0
 14 41  1  0  0  0  0
 14 42  1  0  0  0  0
 15 43  1  0  0  0  0
 15 44  1  0  0  0  0
 16 45  1  0  0  0  0
 18 46  1  0  0  0  0
 19 47  1  0  0  0  0
 20 48  1  0  0  0  0
 23 49  1  0  0  0  0
M  END
> <POSIT::Probability>
0.14

> <POSIT::Method>
HYBRID

> <ReceptorTitle>
UCSF-P4536-REFINED_LIGAND-BOUND-STATE_A__DU__LA1_A-201(A)

> <OMEGA_C>
kps3wjEk6cFGY75AtoMywhuT7MGCPnxAhQc8wnTt78E/c35ADb0ywvgq6cHal6hA20A8wk+F7ME7
sqlAECk3wj7078FT3FJAcB5UwhF8AMKoaqlAJBlQwmqj/MFIwL9A9DRGwliV78E8S7BAkoIywnn9
88G0A5A/EcUtwkyM5cE8s75ASe8ywoQkBcLwwvs+iporwoCf/8FuhBe/gtEzwsM3AsJ8HvS/oipS
wove6cHkLKdAraxPwjTq8MHY2clALaExwkDGAMJAzAa/nDFBwnx/7MGsx79AV+82wlhe88G20vs/
GxlKwhZh7sEFJtBA1zdHwqLp8sG9MoxAveEtwgGc8cHcirI/tvZQwibj7cHFX3tAIBY0wqHH98EA
U8i9t8U3wuJ65sGAf99AM7YuwkuW7MGsY1pAx6c/wueQ8sFSNV5A+UVUwkS9BMKs0qJAg1VXwuT9
+8HNXZ1AWPJMwp/zAML6TctAPr8rwpA97MFKsM5AvKouwiiX38FQgNdAKvwqwlP54cEWpqdA3kA3
wmfZBcJ84go/cvUwwlHrCMJQZHc+nK8xwuDwA8Jks78/IKYqwnxc+cEuHKm/Bvwpwi8//cFI08I+
EIEpwhxsA8KWtGy/x+gywnE8/sHNXinAfSEywuICBsKmmhDAvik4wurFAsLugO+/BIZWwueN6cFy
tqpAC5hQwi604cHvRKlAJKpRwkMj78GeTOhAjhVBwgjt6cH6pt5AeoE6wrS89cFYVMc/ue1IwnTV
68H2lu1AOqZSwrQW6cE/rlJA

> <OMEGA_E>
Pd+cwA==

> <OMEGA_NBR>
     33140

$$$$
CACHE3HI_1690_34
  -OEChem-03092622543D

 36 37  0     0  0  0  0  0  0999 V2000
  -43.8276  -29.6323    6.3810 C   0  0  0  0  0  0  0  0  0  0  0  0
  -45.9988  -29.5224    4.7448 C   0  0  0  0  0  0  0  0  0  0  0  0
  -47.3384  -29.3726    4.1550 C   0  0  0  0  0  0  0  0  0  0  0  0
  -48.1831  -29.0216    5.1911 C   0  0  0  0  0  0  0  0  0  0  0  0
  -46.1080  -29.2383    6.1054 C   0  0  0  0  0  0  0  0  0  0  0  0
  -44.7429  -29.9013    4.2405 C   0  0  0  0  0  0  0  0  0  0  0  0
  -45.1577  -33.4995    0.0990 C   0  0  0  0  0  0  0  0  0  0  0  0
  -43.7509  -31.1351    2.3572 C   0  0  0  0  0  0  0  0  0  0  0  0
  -47.6986  -29.5881    2.6955 C   0  0  0  0  0  0  0  0  0  0  0  0
  -49.6729  -28.7606    5.1565 C   0  0  0  0  0  0  0  0  0  0  0  0
  -44.4882  -33.6395   -1.2763 C   0  0  0  0  0  0  0  0  0  0  0  0
  -45.9860  -32.2521    0.4157 C   0  0  0  0  0  0  0  0  0  0  0  0
  -43.4706  -31.0767    0.8651 C   0  0  0  0  0  0  0  0  0  0  0  0
  -45.0282  -29.2919    6.9118 N   0  0  0  0  0  0  0  0  0  0  0  0
  -43.6726  -29.9461    5.0710 N   0  0  0  0  0  0  0  0  0  0  0  0
  -47.4327  -28.9416    6.3608 N   0  0  0  0  0  0  0  0  0  0  0  0
  -44.5966  -30.1708    2.8892 N   0  0  0  0  0  0  0  0  0  0  0  0
  -44.8510  -34.2656    1.0050 O   0  0  0  0  0  0  0  0  0  0  0  0
  -43.2250  -32.0014    3.0495 O   0  0  0  0  0  0  0  0  0  0  0  0
  -45.0436  -30.7409   -0.0490 S   0  0  0  0  0  0  0  0  0  0  0  0
  -42.9618  -29.6543    7.0263 H   0  0  0  0  0  0  0  0  0  0  0  0
  -47.9752  -30.6409    2.5372 H   0  0  0  0  0  0  0  0  0  0  0  0
  -48.5476  -28.9418    2.4282 H   0  0  0  0  0  0  0  0  0  0  0  0
  -46.8338  -29.3373    2.0637 H   0  0  0  0  0  0  0  0  0  0  0  0
  -50.2147  -29.7009    5.3362 H   0  0  0  0  0  0  0  0  0  0  0  0
  -49.9354  -28.0313    5.9371 H   0  0  0  0  0  0  0  0  0  0  0  0
  -49.9519  -28.3593    4.1710 H   0  0  0  0  0  0  0  0  0  0  0  0
  -43.7713  -34.4735   -1.2525 H   0  0  0  0  0  0  0  0  0  0  0  0
  -45.2557  -33.8376   -2.0391 H   0  0  0  0  0  0  0  0  0  0  0  0
  -43.9584  -32.7076   -1.5227 H   0  0  0  0  0  0  0  0  0  0  0  0
  -46.9269  -32.2848   -0.1533 H   0  0  0  0  0  0  0  0  0  0  0  0
  -46.2094  -32.2262    1.4924 H   0  0  0  0  0  0  0  0  0  0  0  0
  -42.7488  -30.2725    0.6594 H   0  0  0  0  0  0  0  0  0  0  0  0
  -43.0525  -32.0385    0.5332 H   0  0  0  0  0  0  0  0  0  0  0  0
  -47.8008  -28.7029    7.2594 H   0  0  0  0  0  0  0  0  0  0  0  0
  -45.1414  -29.6298    2.2485 H   0  0  0  0  0  0  0  0  0  0  0  0
  1 14  1  0  0  0  0
  1 15  2  0  0  0  0
  2  3  1  0  0  0  0
  2  5  1  0  0  0  0
  2  6  2  0  0  0  0
  3  4  2  0  0  0  0
  3  9  1  0  0  0  0
  4 10  1  0  0  0  0
  4 16  1  0  0  0  0
  5 14  2  0  0  0  0
  5 16  1  0  0  0  0
  6 15  1  0  0  0  0
  6 17  1  0  0  0  0
  7 11  1  0  0  0  0
  7 12  1  0  0  0  0
  7 18  2  0  0  0  0
  8 13  1  0  0  0  0
  8 17  1  0  0  0  0
  8 19  2  0  0  0  0
 12 20  1  0  0  0  0
 13 20  1  0  0  0  0
  1 21  1  0  0  0  0
  9 22  1  0  0  0  0
  9 23  1  0  0  0  0
  9 24  1  0  0  0  0
 10 25  1  0  0  0  0
 10 26  1  0  0  0  0
 10 27  1  0  0  0  0
 11 28  1  0  0  0  0
 11 29  1  0  0  0  0
 11 30  1  0  0  0  0
 12 31  1  0  0  0  0
 12 32  1  0  0  0  0
 13 33  1  0  0  0  0
 13 34  1  0  0  0  0
 16 35  1  0  0  0  0
 17 36  1  0  0  0  0
M  END
> <POSIT::Probability>
0.91

> <POSIT::Method>
SHAPEFIT

> <ReceptorTitle>
UCSF-P4536-REFINED_LIGAND-BOUND-STATE_A__DU__LA1_A-201(A)

> <OMEGA_C>
ak8vwvYO7cGMMcxAzf43wsot7MEn1ZdAklo9wgL76sGD9YRAcrtAwk4s6MFtHaZAl244wgPo6cHY
X8NAuvgywt4178HGsYdAg6E0wnD/BcJozso94AAvwpoU+cEs3BZAXMs+wmq07MG6gyxAAbFGwqgV
5sEdAqVA8vMxwuWOBsIWXqO/tPE3wjMCAcIi09Q+6eEtwgmd+MF7d10/4Bw0wuFV6sHVLd1AvrAu
wqCR78HNRaJAE7s9wlaI58FTi8tA5WIywstd8cHb6DhAcmczwvEPCcK0o4A/WuYswncBAMKRKkNA
pSw0wmLt9cGQrUi95dgrwvI77cHO1+BAoeY/wpIg9cG4YSJAyzBCwuGI58EgaBtAylU7wuGy6sG6
EwRA09tIwl6b7cE2wqpA271HwiVA4MFd/L1Au85Hwujf4sEteYVA0RUvwtnkCcK2UKC/zAU1wrtZ
B8IvgALAW9UvwpLUAsK85sK/HrU7wqAjAcL8AR2+etY4wpfnAMIQCL8/yv4qwhwu8sHKyyg/vDUs
wmEnAMK8gQg/BjQ/wnKf5cHDTOhAy5A0wtEJ7cHM5w9A

> <OMEGA_E>
SD6jPg==

> <OMEGA_NBR>
     34376

$$$$
CACHE3HI_1690_42
  -OEChem-03092622543D

 41 43  0     1  0  0  0  0  0999 V2000
  -44.9110  -34.4026   -1.0845 C   0  0  0  0  0  0  0  0  0  0  0  0
  -44.8910  -34.7541    0.2805 C   0  0  0  0  0  0  0  0  0  0  0  0
  -44.2978  -33.2113   -1.5219 C   0  0  0  0  0  0  0  0  0  0  0  0
  -44.2790  -33.9034    1.2137 C   0  0  0  0  0  0  0  0  0  0  0  0
  -43.6913  -32.3556   -0.5885 C   0  0  0  0  0  0  0  0  0  0  0  0
  -43.8160  -29.6331    6.3455 C   0  0  0  0  0  0  0  0  0  0  0  0
  -46.0104  -29.4954    4.7472 C   0  0  0  0  0  0  0  0  0  0  0  0
  -43.6953  -32.6983    0.7799 C   0  0  0  0  0  0  0  0  0  0  0  0
  -47.3451  -29.2849    4.1721 C   0  0  0  0  0  0  0  0  0  0  0  0
  -48.1880  -29.0122    5.2319 C   0  0  0  0  0  0  0  0  0  0  0  0
  -46.1102  -29.2893    6.1233 C   0  0  0  0  0  0  0  0  0  0  0  0
  -44.7452  -29.7668    4.1977 C   0  0  0  0  0  0  0  0  0  0  0  0
  -47.6991  -29.3638    2.6968 C   0  0  0  0  0  0  0  0  0  0  0  0
  -49.6775  -28.7517    5.2110 C   0  0  0  0  0  0  0  0  0  0  0  0
  -43.7335  -28.6499    2.2563 C   0  0  0  0  0  0  0  0  0  0  0  0
  -43.4043  -31.6426    1.7875 C   0  0  0  0  0  0  0  0  0  0  0  0
  -44.7576  -30.9458    2.0294 C   0  0  0  0  0  0  0  0  0  0  0  0
  -45.0173  -29.3528    6.9111 N   0  0  0  0  0  0  0  0  0  0  0  0
  -43.6648  -29.8365    5.0112 N   0  0  0  0  0  0  0  0  0  0  0  0
  -47.4342  -29.0083    6.4031 N   0  0  0  0  0  0  0  0  0  0  0  0
  -44.5710  -29.7276    2.8223 N   0  0  1  0  0  0  0  0  0  0  0  0
  -45.3987  -35.0495   -1.7987 H   0  0  0  0  0  0  0  0  0  0  0  0
  -45.3463  -35.6772    0.6077 H   0  0  0  0  0  0  0  0  0  0  0  0
  -44.2945  -32.9576   -2.5716 H   0  0  0  0  0  0  0  0  0  0  0  0
  -44.2559  -34.1719    2.2595 H   0  0  0  0  0  0  0  0  0  0  0  0
  -43.2238  -31.4390   -0.9168 H   0  0  0  0  0  0  0  0  0  0  0  0
  -42.9456  -29.6970    6.9816 H   0  0  0  0  0  0  0  0  0  0  0  0
  -47.9864  -30.3948    2.4428 H   0  0  0  0  0  0  0  0  0  0  0  0
  -48.5394  -28.6864    2.4848 H   0  0  0  0  0  0  0  0  0  0  0  0
  -46.8279  -29.0672    2.0944 H   0  0  0  0  0  0  0  0  0  0  0  0
  -50.2182  -29.7029    5.3245 H   0  0  0  0  0  0  0  0  0  0  0  0
  -49.9435  -28.0779    6.0388 H   0  0  0  0  0  0  0  0  0  0  0  0
  -49.9546  -28.2846    4.2545 H   0  0  0  0  0  0  0  0  0  0  0  0
  -43.6921  -28.7533    1.1620 H   0  0  0  0  0  0  0  0  0  0  0  0
  -44.1680  -27.6733    2.5160 H   0  0  0  0  0  0  0  0  0  0  0  0
  -42.7166  -28.7204    2.6699 H   0  0  0  0  0  0  0  0  0  0  0  0
  -43.0266  -32.0895    2.7190 H   0  0  0  0  0  0  0  0  0  0  0  0
  -42.6647  -30.9279    1.3975 H   0  0  0  0  0  0  0  0  0  0  0  0
  -45.2078  -30.6824    1.0609 H   0  0  0  0  0  0  0  0  0  0  0  0
  -45.4266  -31.6313    2.5703 H   0  0  0  0  0  0  0  0  0  0  0  0
  -47.7990  -28.8280    7.3165 H   0  0  0  0  0  0  0  0  0  0  0  0
  1  2  1  0  0  0  0
  1  3  2  0  0  0  0
  2  4  2  0  0  0  0
  3  5  1  0  0  0  0
  4  8  1  0  0  0  0
  5  8  2  0  0  0  0
  6 18  1  0  0  0  0
  6 19  2  0  0  0  0
  7  9  1  0  0  0  0
  7 11  1  0  0  0  0
  7 12  2  0  0  0  0
  8 16  1  0  0  0  0
  9 10  2  0  0  0  0
  9 13  1  0  0  0  0
 10 14  1  0  0  0  0
 10 20  1  0  0  0  0
 11 18  2  0  0  0  0
 11 20  1  0  0  0  0
 12 19  1  0  0  0  0
 12 21  1  0  0  0  0
 15 21  1  0  0  0  0
 16 17  1  0  0  0  0
 17 21  1  0  0  0  0
  1 22  1  0  0  0  0
  2 23  1  0  0  0  0
  3 24  1  0  0  0  0
  4 25  1  0  0  0  0
  5 26  1  0  0  0  0
  6 27  1  0  0  0  0
 13 28  1  0  0  0  0
 13 29  1  0  0  0  0
 13 30  1  0  0  0  0
 14 31  1  0  0  0  0
 14 32  1  0  0  0  0
 14 33  1  0  0  0  0
 15 34  1  0  0  0  0
 15 35  1  0  0  0  0
 15 36  1  0  0  0  0
 16 37  1  0  0  0  0
 16 38  1  0  0  0  0
 17 39  1  0  0  0  0
 17 40  1  0  0  0  0
 20 41  1  0  0  0  0
M  END
> <POSIT::Probability>
0.72

> <POSIT::Method>
SHAPEFIT

> <ReceptorTitle>
UCSF-P4536-REFINED_LIGAND-BOUND-STATE_A__DU__LA1_A-201(A)

> <OMEGA_C>
4qQzwkicCcKE0Iq/aJAzwjEEC8JAnY8+/jAxwmvYBMIgzMK/rB0xwgmdB8I4Wps/7MMuwiJsAcK8
qha/kkMvwpsQ7cEGDstApAo4wq3268Ei6ZdA/ccuwgvLAsLwqEc/YGE9wm9H6sEIgoVAdsBAwuQY
6MHaa6dA03A4wmNQ6sHU8cNAFvsywnEi7sFgU4ZA68s+wibp6sH4mCxAzLVGwpID5sGOwKZAF+8u
wu0y5cFVZxBAA54twhok/cFVzuQ/0AczwvmQ98EK4gFAvxE0wpbS6sFgJ91AwKguwiix7sGkW6BA
mrw9whMR6MFO5sxAwUgywiTS7cFpoDRAQJg1wqkyDMJLPea/lmI1wmu1DsIalBs/my0xworUA8I3
lSTADwYxwhGwCMK/mxBAL+UswiqD+8Hhs2q/SMgrwl+T7cGmad9AH/I/wp4o88GMVxxAXChCwq99
5cGNBh9AxE87woaJ6MHxCgZAc99IwqKf7cF0YqpAIsZHwpGf4MHAPcFAedFHwsRG4sF+JIhArsQu
wtAG5sFSu5Q/EKwwwtli3cGOBSFA190qwlPD5cF43ypAOxsswrBbAMISBC5AnKgqwmps98Fd4bI/
v9Q0wnx19cFLzIc/1LQ1wtoM/cF8gCRAOjI/wr6f5sEcIepA

> <OMEGA_E>
sjYhPw==

> <OMEGA_NBR>
     35718

$$$$
CACHE3HI_1690_69
  -OEChem-03092622543D

 37 38  0     0  0  0  0  0  0999 V2000
  -43.1873  -34.6096   -1.8593 C   0  0  0  0  0  0  0  0  0  0  0  0
  -43.9972  -33.8056   -1.4486 C   0  0  0  0  0  0  0  0  0  0  0  0
  -43.8050  -29.6209    6.3582 C   0  0  0  0  0  0  0  0  0  0  0  0
  -45.9817  -29.5192    4.7322 C   0  0  0  0  0  0  0  0  0  0  0  0
  -47.3199  -29.3793    4.1493 C   0  0  0  0  0  0  0  0  0  0  0  0
  -48.1696  -29.0658    5.1932 C   0  0  0  0  0  0  0  0  0  0  0  0
  -46.0943  -29.2824    6.1032 C   0  0  0  0  0  0  0  0  0  0  0  0
  -44.7147  -29.8128    4.2017 C   0  0  0  0  0  0  0  0  0  0  0  0
  -44.1284  -32.7219    1.4532 C   0  0  0  0  0  0  0  0  0  0  0  0
  -47.6600  -29.5568    2.6800 C   0  0  0  0  0  0  0  0  0  0  0  0
  -49.6599  -28.8162    5.1571 C   0  0  0  0  0  0  0  0  0  0  0  0
  -44.9462  -32.8443   -0.9131 C   0  0  0  0  0  0  0  0  0  0  0  0
  -43.1473  -32.0330    2.3984 C   0  0  0  0  0  0  0  0  0  0  0  0
  -43.2666  -30.4974    2.2748 C   0  0  0  0  0  0  0  0  0  0  0  0
  -45.0117  -29.3351    6.9051 N   0  0  0  0  0  0  0  0  0  0  0  0
  -43.6433  -29.8589    5.0328 N   0  0  0  0  0  0  0  0  0  0  0  0
  -47.4216  -29.0059    6.3664 N   0  0  0  0  0  0  0  0  0  0  0  0
  -44.5566  -30.0346    2.8363 N   0  0  0  0  0  0  0  0  0  0  0  0
  -44.3037  -32.1626    0.1944 N   0  0  0  0  0  0  0  0  0  0  0  0
  -44.5726  -33.8321    1.7295 O   0  0  0  0  0  0  0  0  0  0  0  0
  -42.4795  -35.3122   -2.2183 H   0  0  0  0  0  0  0  0  0  0  0  0
  -42.9391  -29.6605    7.0024 H   0  0  0  0  0  0  0  0  0  0  0  0
  -47.9172  -30.6088    2.4871 H   0  0  0  0  0  0  0  0  0  0  0  0
  -48.5168  -28.9169    2.4221 H   0  0  0  0  0  0  0  0  0  0  0  0
  -46.7925  -29.2730    2.0660 H   0  0  0  0  0  0  0  0  0  0  0  0
  -50.1950  -29.7650    5.3104 H   0  0  0  0  0  0  0  0  0  0  0  0
  -49.9324  -28.1087    5.9541 H   0  0  0  0  0  0  0  0  0  0  0  0
  -49.9370  -28.3927    4.1804 H   0  0  0  0  0  0  0  0  0  0  0  0
  -45.2229  -32.1174   -1.6910 H   0  0  0  0  0  0  0  0  0  0  0  0
  -45.8486  -33.3650   -0.5602 H   0  0  0  0  0  0  0  0  0  0  0  0
  -43.3709  -32.3316    3.4332 H   0  0  0  0  0  0  0  0  0  0  0  0
  -42.1221  -32.3385    2.1420 H   0  0  0  0  0  0  0  0  0  0  0  0
  -42.4405  -30.0239    2.8255 H   0  0  0  0  0  0  0  0  0  0  0  0
  -43.2102  -30.2134    1.2136 H   0  0  0  0  0  0  0  0  0  0  0  0
  -47.7926  -28.7931    7.2703 H   0  0  0  0  0  0  0  0  0  0  0  0
  -45.2384  -30.7199    2.5804 H   0  0  0  0  0  0  0  0  0  0  0  0
  -43.9666  -31.2335    0.0421 H   0  0  0  0  0  0  0  0  0  0  0  0
  1  2  3  0  0  0  0
  2 12  1  0  0  0  0
  3 15  1  0  0  0  0
  3 16  2  0  0  0  0
  4  5  1  0  0  0  0
  4  7  1  0  0  0  0
  4  8  2  0  0  0  0
  5  6  2  0  0  0  0
  5 10  1  0  0  0  0
  6 11  1  0  0  0  0
  6 17  1  0  0  0  0
  7 15  2  0  0  0  0
  7 17  1  0  0  0  0
  8 16  1  0  0  0  0
  8 18  1  0  0  0  0
  9 13  1  0  0  0  0
  9 19  1  0  0  0  0
  9 20  2  0  0  0  0
 12 19  1  0  0  0  0
 13 14  1  0  0  0  0
 14 18  1  0  0  0  0
  1 21  1  0  0  0  0
  3 22  1  0  0  0  0
 10 23  1  0  0  0  0
 10 24  1  0  0  0  0
 10 25  1  0  0  0  0
 11 26  1  0  0  0  0
 11 27  1  0  0  0  0
 11 28  1  0  0  0  0
 12 29  1  0  0  0  0
 12 30  1  0  0  0  0
 13 31  1  0  0  0  0
 13 32  1  0  0  0  0
 14 33  1  0  0  0  0
 14 34  1  0  0  0  0
 17 35  1  0  0  0  0
 18 36  1  0  0  0  0
 19 37  1  0  0  0  0
M  END
> <POSIT::Probability>
0.85

> <POSIT::Method>
SHAPEFIT

> <ReceptorTitle>
UCSF-P4536-REFINED_LIGAND-BOUND-STATE_A__DU__LA1_A-201(A)

> <OMEGA_C>
xr8swjpwCsII/u2/F/0vwvg4B8IQa7m/XjgvwoP37MFndstARO03wksn7MHibZdAm0c9wtII68Hy
xoRAoa1AwteG6MHJLqZAhGA4wkdC6sFCTcNA59sywqyA7sEGdIZAd4MwwjrjAsKeAro/4qM+wmt0
7MFOhCtAuKNGwoaH5sHYBqVA8cgzwolgA8L8wmm/0JYswtEhAMKufxlAAhEtwrj688FGlhFA+Qs0
wkWu6sGi9txAwJIuwgDf7sHqDKFAsq89whEM6MF2uctA8Dkywu5G8MHmhTVAAjcxwn6mAMJgB0c+
YkoywglUB8L4Xt0/9uopwr4/DcJ/+A3Ar8Erws5I7cH6E+BAKqs/wufe9MFJLB9AMRFCwtlV58EA
BBtAkCs7wjQv6sHQOQRAosdIwqQe7sGe7qlA0bpHwrLe4MESiL5Agr9Hwk0k48H0xYVASuQ0wkJ4
AMIZdNi/+2Q3wrx1BcLeZw+/z3stwpJTAcIJultADX0owqNaAcJYFwlAFMMpwuIw8MFm1TRANtcs
wiK18cG/Vps/kys/wi9Y5sFppuhAHfQ0wm7C9cH+JCVAy90vwkLe+cHxaiw9

> <OMEGA_E>
OIEWPw==

> <OMEGA_NBR>
     36974

$$$$
CACHE3HI_1690_76
  -OEChem-03092622543D

 41 42  0     0  0  0  0  0  0999 V2000
  -43.7950  -29.5833    6.3738 C   0  0  0  0  0  0  0  0  0  0  0  0
  -45.9977  -29.4810    4.7873 C   0  0  0  0  0  0  0  0  0  0  0  0
  -47.3307  -29.2891    4.2131 C   0  0  0  0  0  0  0  0  0  0  0  0
  -48.1695  -28.9905    5.2684 C   0  0  0  0  0  0  0  0  0  0  0  0
  -46.0916  -29.2584    6.1612 C   0  0  0  0  0  0  0  0  0  0  0  0
  -44.7448  -29.7781    4.2341 C   0  0  0  0  0  0  0  0  0  0  0  0
  -44.0041  -32.9856    1.5714 C   0  0  0  0  0  0  0  0  0  0  0  0
  -47.6699  -29.3772    2.7349 C   0  0  0  0  0  0  0  0  0  0  0  0
  -49.6500  -28.6892    5.2360 C   0  0  0  0  0  0  0  0  0  0  0  0
  -45.7851  -32.1382    0.0554 C   0  0  0  0  0  0  0  0  0  0  0  0
  -43.8536  -33.4342   -0.9235 C   0  0  0  0  0  0  0  0  0  0  0  0
  -43.3287  -29.9211    2.1689 C   0  0  0  0  0  0  0  0  0  0  0  0
  -42.4792  -31.1876    2.4023 C   0  0  0  0  0  0  0  0  0  0  0  0
  -44.7931  -33.2944    0.2978 C   0  0  0  0  0  0  0  0  0  0  0  0
  -44.9955  -29.3149    6.9455 N   0  0  0  0  0  0  0  0  0  0  0  0
  -43.6551  -29.8117    5.0426 N   0  0  0  0  0  0  0  0  0  0  0  0
  -47.4171  -28.9864    6.4417 N   0  0  0  0  0  0  0  0  0  0  0  0
  -44.6306  -29.9901    2.8624 N   0  0  0  0  0  0  0  0  0  0  0  0
  -42.8594  -32.2136    1.4426 N   0  0  0  0  0  0  0  0  0  0  0  0
  -44.5366  -33.1533    2.6640 O   0  0  0  0  0  0  0  0  0  0  0  0
  -42.9168  -29.6165    7.0015 H   0  0  0  0  0  0  0  0  0  0  0  0
  -47.9564  -30.4093    2.4848 H   0  0  0  0  0  0  0  0  0  0  0  0
  -48.5069  -28.6997    2.5099 H   0  0  0  0  0  0  0  0  0  0  0  0
  -46.7921  -29.0859    2.1394 H   0  0  0  0  0  0  0  0  0  0  0  0
  -50.2176  -29.6235    5.3574 H   0  0  0  0  0  0  0  0  0  0  0  0
  -49.9015  -27.9985    6.0544 H   0  0  0  0  0  0  0  0  0  0  0  0
  -49.9087  -28.2257    4.2725 H   0  0  0  0  0  0  0  0  0  0  0  0
  -46.3656  -32.3377   -0.8573 H   0  0  0  0  0  0  0  0  0  0  0  0
  -46.4682  -32.0554    0.9136 H   0  0  0  0  0  0  0  0  0  0  0  0
  -45.2288  -31.1966   -0.0625 H   0  0  0  0  0  0  0  0  0  0  0  0
  -44.4492  -33.6556   -1.8215 H   0  0  0  0  0  0  0  0  0  0  0  0
  -43.3028  -32.4937   -1.0718 H   0  0  0  0  0  0  0  0  0  0  0  0
  -43.1406  -34.2527   -0.7457 H   0  0  0  0  0  0  0  0  0  0  0  0
  -42.7737  -29.0478    2.5423 H   0  0  0  0  0  0  0  0  0  0  0  0
  -43.5074  -29.8077    1.0894 H   0  0  0  0  0  0  0  0  0  0  0  0
  -41.4144  -30.9430    2.2742 H   0  0  0  0  0  0  0  0  0  0  0  0
  -42.6497  -31.5599    3.4232 H   0  0  0  0  0  0  0  0  0  0  0  0
  -45.3535  -34.2313    0.4325 H   0  0  0  0  0  0  0  0  0  0  0  0
  -47.7838  -28.8117    7.3554 H   0  0  0  0  0  0  0  0  0  0  0  0
  -44.9926  -30.9061    2.6890 H   0  0  0  0  0  0  0  0  0  0  0  0
  -42.2667  -32.3692    0.6524 H   0  0  0  0  0  0  0  0  0  0  0  0
  1 15  1  0  0  0  0
  1 16  2  0  0  0  0
  2  3  1  0  0  0  0
  2  5  1  0  0  0  0
  2  6  2  0  0  0  0
  3  4  2  0  0  0  0
  3  8  1  0  0  0  0
  4  9  1  0  0  0  0
  4 17  1  0  0  0  0
  5 15  2  0  0  0  0
  5 17  1  0  0  0  0
  6 16  1  0  0  0  0
  6 18  1  0  0  0  0
  7 14  1  0  0  0  0
  7 19  1  0  0  0  0
  7 20  2  0  0  0  0
 10 14  1  0  0  0  0
 11 14  1  0  0  0  0
 12 13  1  0  0  0  0
 12 18  1  0  0  0  0
 13 19  1  0  0  0  0
  1 21  1  0  0  0  0
  8 22  1  0  0  0  0
  8 23  1  0  0  0  0
  8 24  1  0  0  0  0
  9 25  1  0  0  0  0
  9 26  1  0  0  0  0
  9 27  1  0  0  0  0
 10 28  1  0  0  0  0
 10 29  1  0  0  0  0
 10 30  1  0  0  0  0
 11 31  1  0  0  0  0
 11 32  1  0  0  0  0
 11 33  1  0  0  0  0
 12 34  1  0  0  0  0
 12 35  1  0  0  0  0
 13 36  1  0  0  0  0
 13 37  1  0  0  0  0
 14 38  1  0  0  0  0
 17 39  1  0  0  0  0
 18 40  1  0  0  0  0
 19 41  1  0  0  0  0
M  END
> <POSIT::Probability>
0.91

> <POSIT::Method>
SHAPEFIT

> <ReceptorTitle>
UCSF-P4536-REFINED_LIGAND-BOUND-STATE_A__DU__LA1_A-201(A)

> <OMEGA_C>
FS4vwo+q7MGE9stAnP03wirZ68E5MZlAn1I9whxQ6sFq0YZAlq1Awnbs58HolqhAwV04wioR6sE6
KMVAqPoywnw57sEkfodAJgQwwjzxA8IVJMk/A64+wnME68FfCC9AlplGwmeD5cEyjadA6yM3wn6N
AMKA+GI9I2ovwqK8BcKMbGy/n1AtwlZe78G3zgpAteopwiCA+cHPvhlAHCwzwn0tBcKgdZg+bvsz
wgOF6sGIQd5A254uwnB+7sGaXKFAFKs9whnk58ElIs5AxYUywtHr78FyMTdAD3ArwrDaAMKmp7g/
gCUywv6cBMJUfypAxKorwpfu7MGQDOBAYNM/wlFG88E6Bh9ABwdCwgqZ5cFeoiBAKCs7wt6v6MGO
6whA1d5IwgH97MEGcKtAIZtHwvD838FTvcFAgaJHwkLO4cFnuIhAa3Y5ws9ZAcIle1u/et85wrk4
AMLU32k/P+o0wpuS+cGyFYC9Aswxwk+fBsLDJem/BjYtwo/5AcJ4L4m/948swsQCCcKT5T6/URgr
wvxh6MGrtSJAlQcuwjV27sHAcYs/W6glwjyL98E/jRFAU5kqwpV6/MHkFVtA+2k1wuHsCMJKa90+
piI/wkZ+5sGnX+tAdfgzwpw/98HSGCxAIxEpwhx6AcJkAic/

> <OMEGA_E>
aAfpPg==

> <OMEGA_NBR>
     38310

$$$$
CACHE3HI_1690_92
  -OEChem-03092622543D

 39 40  0     0  0  0  0  0  0999 V2000
  -43.8142  -29.6315    6.3222 C   0  0  0  0  0  0  0  0  0  0  0  0
  -46.0113  -29.4995    4.7193 C   0  0  0  0  0  0  0  0  0  0  0  0
  -47.3651  -29.3235    4.1661 C   0  0  0  0  0  0  0  0  0  0  0  0
  -48.1881  -29.0063    5.2309 C   0  0  0  0  0  0  0  0  0  0  0  0
  -46.0969  -29.2487    6.0917 C   0  0  0  0  0  0  0  0  0  0  0  0
  -44.7608  -29.8762    4.1842 C   0  0  0  0  0  0  0  0  0  0  0  0
  -43.7896  -31.2470    2.3781 C   0  0  0  0  0  0  0  0  0  0  0  0
  -47.7654  -29.4588    2.7102 C   0  0  0  0  0  0  0  0  0  0  0  0
  -49.6783  -28.7439    5.2373 C   0  0  0  0  0  0  0  0  0  0  0  0
  -44.5857  -33.8639    0.9431 C   0  0  0  0  0  0  0  0  0  0  0  0
  -46.1127  -31.9185    0.4354 C   0  0  0  0  0  0  0  0  0  0  0  0
  -44.3684  -32.6251   -1.2322 C   0  0  0  0  0  0  0  0  0  0  0  0
  -43.6371  -31.4733    0.8690 C   0  0  0  0  0  0  0  0  0  0  0  0
  -44.6770  -32.4682    0.2737 C   0  0  0  0  0  0  0  0  0  0  0  0
  -45.0073  -29.3191    6.8803 N   0  0  0  0  0  0  0  0  0  0  0  0
  -43.6780  -29.9163    5.0033 N   0  0  0  0  0  0  0  0  0  0  0  0
  -47.4156  -28.9654    6.3852 N   0  0  0  0  0  0  0  0  0  0  0  0
  -44.6344  -30.2317    2.8378 N   0  0  0  0  0  0  0  0  0  0  0  0
  -43.2649  -32.0425    3.1518 O   0  0  0  0  0  0  0  0  0  0  0  0
  -42.9369  -29.6548    6.9516 H   0  0  0  0  0  0  0  0  0  0  0  0
  -48.0563  -30.4995    2.5045 H   0  0  0  0  0  0  0  0  0  0  0  0
  -48.6150  -28.7924    2.5002 H   0  0  0  0  0  0  0  0  0  0  0  0
  -46.9154  -29.1822    2.0692 H   0  0  0  0  0  0  0  0  0  0  0  0
  -50.2170  -29.6895    5.3974 H   0  0  0  0  0  0  0  0  0  0  0  0
  -49.9232  -28.0409    6.0471 H   0  0  0  0  0  0  0  0  0  0  0  0
  -49.9782  -28.3100    4.2720 H   0  0  0  0  0  0  0  0  0  0  0  0
  -43.5653  -34.2591    0.8304 H   0  0  0  0  0  0  0  0  0  0  0  0
  -44.8280  -33.7741    2.0123 H   0  0  0  0  0  0  0  0  0  0  0  0
  -45.2993  -34.5487    0.4616 H   0  0  0  0  0  0  0  0  0  0  0  0
  -46.1822  -30.9281   -0.0382 H   0  0  0  0  0  0  0  0  0  0  0  0
  -46.8246  -32.6055   -0.0454 H   0  0  0  0  0  0  0  0  0  0  0  0
  -46.3533  -31.8309    1.5052 H   0  0  0  0  0  0  0  0  0  0  0  0
  -44.4289  -31.6428   -1.7237 H   0  0  0  0  0  0  0  0  0  0  0  0
  -43.3559  -33.0362   -1.3580 H   0  0  0  0  0  0  0  0  0  0  0  0
  -45.1007  -33.3083   -1.6872 H   0  0  0  0  0  0  0  0  0  0  0  0
  -43.7526  -30.5051    0.3598 H   0  0  0  0  0  0  0  0  0  0  0  0
  -42.6291  -31.8700    0.6780 H   0  0  0  0  0  0  0  0  0  0  0  0
  -47.7655  -28.7598    7.2991 H   0  0  0  0  0  0  0  0  0  0  0  0
  -45.1794  -29.7314    2.1650 H   0  0  0  0  0  0  0  0  0  0  0  0
  1 15  1  0  0  0  0
  1 16  2  0  0  0  0
  2  3  1  0  0  0  0
  2  5  1  0  0  0  0
  2  6  2  0  0  0  0
  3  4  2  0  0  0  0
  3  8  1  0  0  0  0
  4  9  1  0  0  0  0
  4 17  1  0  0  0  0
  5 15  2  0  0  0  0
  5 17  1  0  0  0  0
  6 16  1  0  0  0  0
  6 18  1  0  0  0  0
  7 13  1  0  0  0  0
  7 18  1  0  0  0  0
  7 19  2  0  0  0  0
 10 14  1  0  0  0  0
 11 14  1  0  0  0  0
 12 14  1  0  0  0  0
 13 14  1  0  0  0  0
  1 20  1  0  0  0  0
  8 21  1  0  0  0  0
  8 22  1  0  0  0  0
  8 23  1  0  0  0  0
  9 24  1  0  0  0  0
  9 25  1  0  0  0  0
  9 26  1  0  0  0  0
 10 27  1  0  0  0  0
 10 28  1  0  0  0  0
 10 29  1  0  0  0  0
 11 30  1  0  0  0  0
 11 31  1  0  0  0  0
 11 32  1  0  0  0  0
 12 33  1  0  0  0  0
 12 34  1  0  0  0  0
 12 35  1  0  0  0  0
 13 36  1  0  0  0  0
 13 37  1  0  0  0  0
 17 38  1  0  0  0  0
 18 39  1  0  0  0  0
M  END
> <POSIT::Probability>
0.99

> <POSIT::Method>
SHAPEFIT

> <ReceptorTitle>
UCSF-P4536-REFINED_LIGAND-BOUND-STATE_A__DU__LA1_A-201(A)

> <OMEGA_C>
v0EvwkwN7cEgT8pAkgs4wv7+68FWBJdA53U9wp2W6sFoUIVAmMBAwuoM6MGRY6dARmM4wkb96cFu
78JADwszwmgC78Fd5YVAkCgvwuf5+cE/MxhAxQ8/wpWr68E2dC1Am7ZGwnPz5cHxl6dAv1cywpZ0
B8JCbHE/cnM4wglZ/8EI8t4+R3kxwhGAAsJbuZ2/Y4wuwmLJ+8EBdl4/SrUywnTfAcIoIYw+gAc0
wnKN6sEJK9xARbYuwpdU78FqG6BAmKk9wiG558E7U8xApIkywp7a8cHOnTVAPw8two4rAMJGtklA
Yb8rwhE97cFlc95AnzlAwvf+88EqSiBAx3VCwtdW5sEFBCBAU6k7wjx16cEybQRAN95IwhaE7cEq
t6xAZbFHwsVT4ME2gsFAuulHwvZ64sEStIhA6UIuwkgJCcJEklQ/208zwrIYB8I+yQBAdTI1wtwx
CsIwWOw+mLo4wrVs98GlRRy9a0w7wgBsAsL7JDq90Wk5wq2l/sFJq8A/Lrcxwn0k/cGAody/eGwt
wgglBMIW062/Hmc0wqk7BcLR9te/tAIvwooK9MGNOLg+JoQqwtj1/sHEky0/5A8/whwU5sFUkulA
qbc0wtLZ7cHAjgpA

> <OMEGA_E>
YGQSPQ==

> <OMEGA_NBR>
     39606

$$$$
CACHE3HI_1691_2
  -OEChem-03092622543D

 45 46  0     0  0  0  0  0  0999 V2000
  -48.8349  -29.4506    3.9445 C   0  0  0  0  0  0  0  0  0  0  0  0
  -48.1457  -29.5070    2.7331 C   0  0  0  0  0  0  0  0  0  0  0  0
  -48.1302  -29.4586    5.1481 C   0  0  0  0  0  0  0  0  0  0  0  0
  -46.7522  -29.5711    2.7252 C   0  0  0  0  0  0  0  0  0  0  0  0
  -46.7367  -29.5227    5.1403 C   0  0  0  0  0  0  0  0  0  0  0  0
  -42.9544  -32.3958   -0.7095 C   0  0  0  0  0  0  0  0  0  0  0  0
  -43.5724  -33.3417   -1.5197 C   0  0  0  0  0  0  0  0  0  0  0  0
  -44.9001  -32.3724    0.6584 C   0  0  0  0  0  0  0  0  0  0  0  0
  -46.0475  -29.5792    3.9289 C   0  0  0  0  0  0  0  0  0  0  0  0
  -43.6237  -31.8967    0.4023 C   0  0  0  0  0  0  0  0  0  0  0  0
  -44.8506  -33.7529   -1.1779 C   0  0  0  0  0  0  0  0  0  0  0  0
  -42.7391  -31.0461    2.6058 C   0  0  0  0  0  0  0  0  0  0  0  0
  -43.7710  -29.6618    5.0206 C   0  0  0  0  0  0  0  0  0  0  0  0
  -40.5470  -29.8608    3.0789 C   0  0  0  0  0  0  0  0  0  0  0  0
  -42.5959  -28.5166    2.4894 C   0  0  0  0  0  0  0  0  0  0  0  0
  -46.7785  -35.2219   -1.7690 C   0  0  0  0  0  0  0  0  0  0  0  0
  -42.0732  -29.7773    3.1843 C   0  0  0  0  0  0  0  0  0  0  0  0
  -45.5325  -33.2908   -0.1061 N   0  0  0  0  0  0  0  0  0  0  0  0
  -43.0200  -30.9323    1.2466 N   0  0  0  0  0  0  0  0  0  0  0  0
  -44.6342  -29.6444    3.9214 N   0  0  0  0  0  0  0  0  0  0  0  0
  -45.4669  -34.7175   -2.0133 N   0  0  0  0  0  0  0  0  0  0  0  0
  -42.4470  -29.7316    4.5868 N   0  0  0  0  0  0  0  0  0  0  0  0
  -42.9750  -32.0243    3.3121 O   0  0  0  0  0  0  0  0  0  0  0  0
  -44.0937  -29.6232    6.2055 O   0  0  0  0  0  0  0  0  0  0  0  0
  -49.9198  -29.4019    3.9505 H   0  0  0  0  0  0  0  0  0  0  0  0
  -48.6942  -29.5021    1.7956 H   0  0  0  0  0  0  0  0  0  0  0  0
  -48.6663  -29.4153    6.0916 H   0  0  0  0  0  0  0  0  0  0  0  0
  -46.2266  -29.6158    1.7745 H   0  0  0  0  0  0  0  0  0  0  0  0
  -46.1984  -29.5288    6.0850 H   0  0  0  0  0  0  0  0  0  0  0  0
  -41.9518  -32.0545   -0.9532 H   0  0  0  0  0  0  0  0  0  0  0  0
  -43.0569  -33.7368   -2.3892 H   0  0  0  0  0  0  0  0  0  0  0  0
  -45.4734  -32.0209    1.5110 H   0  0  0  0  0  0  0  0  0  0  0  0
  -40.0744  -28.9612    3.4890 H   0  0  0  0  0  0  0  0  0  0  0  0
  -40.2110  -29.9696    2.0420 H   0  0  0  0  0  0  0  0  0  0  0  0
  -40.1610  -30.7198    3.6399 H   0  0  0  0  0  0  0  0  0  0  0  0
  -42.1232  -27.6168    2.9002 H   0  0  0  0  0  0  0  0  0  0  0  0
  -42.3790  -28.5398    1.4147 H   0  0  0  0  0  0  0  0  0  0  0  0
  -43.6785  -28.3996    2.6065 H   0  0  0  0  0  0  0  0  0  0  0  0
  -47.2070  -34.7616   -0.8740 H   0  0  0  0  0  0  0  0  0  0  0  0
  -47.4305  -35.0073   -2.6204 H   0  0  0  0  0  0  0  0  0  0  0  0
  -46.7456  -36.3054   -1.6250 H   0  0  0  0  0  0  0  0  0  0  0  0
  -42.7693  -30.0612    0.7857 H   0  0  0  0  0  0  0  0  0  0  0  0
  -44.1930  -29.6833    3.0056 H   0  0  0  0  0  0  0  0  0  0  0  0
  -44.9338  -35.0366   -2.7961 H   0  0  0  0  0  0  0  0  0  0  0  0
  -41.7007  -29.7178    5.2706 H   0  0  0  0  0  0  0  0  0  0  0  0
  1  2  1  0  0  0  0
  1  3  2  0  0  0  0
  2  4  2  0  0  0  0
  3  5  1  0  0  0  0
  4  9  1  0  0  0  0
  5  9  2  0  0  0  0
  6  7  2  0  0  0  0
  6 10  1  0  0  0  0
  7 11  1  0  0  0  0
  8 10  2  0  0  0  0
  8 18  1  0  0  0  0
  9 20  1  0  0  0  0
 10 19  1  0  0  0  0
 11 18  2  0  0  0  0
 11 21  1  0  0  0  0
 12 17  1  0  0  0  0
 12 19  1  0  0  0  0
 12 23  2  0  0  0  0
 13 20  1  0  0  0  0
 13 22  1  0  0  0  0
 13 24  2  0  0  0  0
 14 17  1  0  0  0  0
 15 17  1  0  0  0  0
 16 21  1  0  0  0  0
 17 22  1  0  0  0  0
  1 25  1  0  0  0  0
  2 26  1  0  0  0  0
  3 27  1  0  0  0  0
  4 28  1  0  0  0  0
  5 29  1  0  0  0  0
  6 30  1  0  0  0  0
  7 31  1  0  0  0  0
  8 32  1  0  0  0  0
 14 33  1  0  0  0  0
 14 34  1  0  0  0  0
 14 35  1  0  0  0  0
 15 36  1  0  0  0  0
 15 37  1  0  0  0  0
 15 38  1  0  0  0  0
 16 39  1  0  0  0  0
 16 40  1  0  0  0  0
 16 41  1  0  0  0  0
 19 42  1  0  0  0  0
 20 43  1  0  0  0  0
 21 44  1  0  0  0  0
 22 45  1  0  0  0  0
M  END
> <POSIT::Probability>
0.18

> <POSIT::Method>
FRED

> <ReceptorTitle>
UCSF-P4536-REFINED_LIGAND-BOUND-STATE_A__DU__LA1_A-201(A)

> <OMEGA_C>
7lZDwrqa68HBcnxAOZVAwkMO7MGg6i5ATIVAwjGr68GUvaRASgI7wqaR7MGAaS5AXPI6wpIu7MEE
faRATNErwlSVAcIhnzW/HkouwutdBcIOhsK/uZkzwkx9AcLOiyg/pDA4whui7MHlcntAtn4uwlos
/8Hz+s0+CWczwvQCB8IHx5a/0fQqwlte+MHBxSZAiRUvwnNL7cHpqKBAJTAiwvji7sHuC0VALmIq
wggi5MF+Uh9AMh07wjLjDMKfbeK/9Eoowtc37sFczEtASyE2wsopBcKcOtm9dBQswmF198EGkp8/
a4kywrQn7cFs+HpAEN41wq/eCsKy2QDAsMkpwlja7cHpxpJAXeYrwuMYAMJv+VNA7F8wwk387ME3
k8ZA661Hwh4368Fb1XxA48ZCwmIE7MHj1eU/TKpCwoxS68Gy7sJADOg4wjft7MGNIuM/Kss4wuQ6
7ME3uMJArs4nwtk3AMLZB3S/OjoswnnyBsJI6BjAuuQ1wl8VAMIAZ8E/OEwgwoKw58FeTF9AB9gg
wtTB78H9rwJA2KQgwhvC9cEm9GhAIH4owiTv3MHknDlAEIQpwnRR5MHeFbU/vrYuwmIy48GE0SZA
ANQ8wtwLC8ISwF+/17g9woUHDMJutCfAiPs6wrE4EcKa/8+/txMrwm598MGpIEk/rcUwwlp37cFo
W0BAMLwzwnwlDML98jLAjM0mwvq97cEiqahA

> <OMEGA_E>
4TESwQ==

> <OMEGA_NBR>
     40991

$$$$
CACHE3HI_1691_5
  -OEChem-03092622543D

 44 45  0     0  0  0  0  0  0999 V2000
  -46.5999  -36.2662   -0.2222 C   0  0  0  0  0  0  0  0  0  0  0  0
  -45.3131  -35.9843   -0.6810 C   0  0  0  0  0  0  0  0  0  0  0  0
  -47.2560  -35.3614    0.6123 C   0  0  0  0  0  0  0  0  0  0  0  0
  -44.6827  -34.7978   -0.3057 C   0  0  0  0  0  0  0  0  0  0  0  0
  -46.6255  -34.1749    0.9876 C   0  0  0  0  0  0  0  0  0  0  0  0
  -45.3388  -33.8930    0.5288 C   0  0  0  0  0  0  0  0  0  0  0  0
  -48.3676  -29.5601    3.1576 C   0  0  0  0  0  0  0  0  0  0  0  0
  -49.3876  -29.2625    5.3088 C   0  0  0  0  0  0  0  0  0  0  0  0
  -49.5474  -29.4540    3.9922 C   0  0  0  0  0  0  0  0  0  0  0  0
  -47.1214  -29.4743    3.6541 C   0  0  0  0  0  0  0  0  0  0  0  0
  -46.9626  -29.2589    5.1359 C   0  0  0  0  0  0  0  0  0  0  0  0
  -45.7044  -28.7079    1.8359 C   0  0  0  0  0  0  0  0  0  0  0  0
  -45.1255  -31.3800    0.6709 C   0  0  0  0  0  0  0  0  0  0  0  0
  -50.8846  -29.5649    3.3315 C   0  0  0  0  0  0  0  0  0  0  0  0
  -44.4384  -28.6240   -0.3498 C   0  0  0  0  0  0  0  0  0  0  0  0
  -43.1960  -28.3600    1.8285 C   0  0  0  0  0  0  0  0  0  0  0  0
  -44.3760  -29.0346    1.1243 C   0  0  0  0  0  0  0  0  0  0  0  0
  -48.1381  -29.1680    5.8633 N   0  0  0  0  0  0  0  0  0  0  0  0
  -44.6997  -32.6896    0.9099 N   0  0  0  0  0  0  0  0  0  0  0  0
  -45.9992  -29.5724    2.8840 N   0  0  0  0  0  0  0  0  0  0  0  0
  -44.2112  -30.4745    1.2102 N   0  0  0  0  0  0  0  0  0  0  0  0
  -45.8466  -29.1724    5.6450 O   0  0  0  0  0  0  0  0  0  0  0  0
  -46.4204  -27.7658    1.4941 O   0  0  0  0  0  0  0  0  0  0  0  0
  -46.1463  -31.0386    0.0784 O   0  0  0  0  0  0  0  0  0  0  0  0
  -47.0901  -37.1905   -0.5134 H   0  0  0  0  0  0  0  0  0  0  0  0
  -44.8013  -36.6893   -1.3296 H   0  0  0  0  0  0  0  0  0  0  0  0
  -48.2576  -35.5806    0.9703 H   0  0  0  0  0  0  0  0  0  0  0  0
  -43.6792  -34.5901   -0.6689 H   0  0  0  0  0  0  0  0  0  0  0  0
  -47.1469  -33.4775    1.6388 H   0  0  0  0  0  0  0  0  0  0  0  0
  -48.5232  -29.7152    2.0931 H   0  0  0  0  0  0  0  0  0  0  0  0
  -50.2159  -29.1727    6.0009 H   0  0  0  0  0  0  0  0  0  0  0  0
  -51.2007  -30.6071    3.3155 H   0  0  0  0  0  0  0  0  0  0  0  0
  -50.8232  -29.1906    2.3105 H   0  0  0  0  0  0  0  0  0  0  0  0
  -51.6159  -28.9738    3.8813 H   0  0  0  0  0  0  0  0  0  0  0  0
  -43.4960  -28.8540   -0.8612 H   0  0  0  0  0  0  0  0  0  0  0  0
  -44.6139  -27.5472   -0.4536 H   0  0  0  0  0  0  0  0  0  0  0  0
  -45.2390  -29.1429   -0.8881 H   0  0  0  0  0  0  0  0  0  0  0  0
  -42.2518  -28.5926    1.3222 H   0  0  0  0  0  0  0  0  0  0  0  0
  -43.0989  -28.6845    2.8693 H   0  0  0  0  0  0  0  0  0  0  0  0
  -43.3083  -27.2698    1.8291 H   0  0  0  0  0  0  0  0  0  0  0  0
  -48.0806  -29.0227    6.8671 H   0  0  0  0  0  0  0  0  0  0  0  0
  -43.8248  -32.7896    1.4192 H   0  0  0  0  0  0  0  0  0  0  0  0
  -45.3604  -30.3286    3.1119 H   0  0  0  0  0  0  0  0  0  0  0  0
  -43.4074  -30.8253    1.7161 H   0  0  0  0  0  0  0  0  0  0  0  0
  1  2  1  0  0  0  0
  1  3  2  0  0  0  0
  2  4  2  0  0  0  0
  3  5  1  0  0  0  0
  4  6  1  0  0  0  0
  5  6  2  0  0  0  0
  6 19  1  0  0  0  0
  7  9  1  0  0  0  0
  7 10  2  0  0  0  0
  8  9  2  0  0  0  0
  8 18  1  0  0  0  0
  9 14  1  0  0  0  0
 10 11  1  0  0  0  0
 10 20  1  0  0  0  0
 11 18  1  0  0  0  0
 11 22  2  0  0  0  0
 12 17  1  0  0  0  0
 12 20  1  0  0  0  0
 12 23  2  0  0  0  0
 13 19  1  0  0  0  0
 13 21  1  0  0  0  0
 13 24  2  0  0  0  0
 15 17  1  0  0  0  0
 16 17  1  0  0  0  0
 17 21  1  0  0  0  0
  1 25  1  0  0  0  0
  2 26  1  0  0  0  0
  3 27  1  0  0  0  0
  4 28  1  0  0  0  0
  5 29  1  0  0  0  0
  7 30  1  0  0  0  0
  8 31  1  0  0  0  0
 14 32  1  0  0  0  0
 14 33  1  0  0  0  0
 14 34  1  0  0  0  0
 15 35  1  0  0  0  0
 15 36  1  0  0  0  0
 15 37  1  0  0  0  0
 16 38  1  0  0  0  0
 16 39  1  0  0  0  0
 16 40  1  0  0  0  0
 18 41  1  0  0  0  0
 19 42  1  0  0  0  0
 20 43  1  0  0  0  0
 21 44  1  0  0  0  0
M  END
> <POSIT::Probability>
0.24

> <POSIT::Method>
FRED

> <ReceptorTitle>
UCSF-P4536-REFINED_LIGAND-BOUND-STATE_A__DU__LA1_A-201(A)

> <OMEGA_C>
SWY6wo8QEcLAgGO+okA1wuvvD8IgUy6/GwY9wghyDcKIvhw/Crsywv4wC8KAgJy+g4A6whqzCMJo
0Xw/6Vo1wnCSB8K4YAc/bnhBwiN77MGOFkpA4YxFwqAZ6sER4qlAhjBGwrqh68F2gH9ARnw8wkzL
68Fk3GlArdk7wjsS6sFCWaRAVdE2ws2p5cF8/eo/e4A0wikK+8FgvSs/0YlLwvSE7MEEOFVA8MAx
wuz95MHAHbO+vsgswkTh4sEUDOo//4AxwvVG6ME86Y8/YI1AwgBY6cFloLtAfMwywizCAsLQ7Gg/
LP83wjiU7MFakzhAQtgwwrjL88Ew6Zo/9mI3wixh6cGho7RAiK45wk4g3sFgP78/xZU4wiZP+MFA
pKA9RFw8whXDFMKgbAO/lDQzwtjBEsLEMaq/xgdBwpNSDsIoY3g/ercuwj9cCsKQPyu/d5Y8wgLp
BcLgw9E/uxdCwqa47cEQ9gVAE91Iwp5h6cFYB8BAhs1Mwkfb9MFWMVRA8kpLwnCG6cEg3xNArXZO
wm7K58H4Z3hA7fstwhDV5sGQeVy/r3QywsRg3MFQQ+i+xvQ0wq8k6cFoW2O/2AEpwrq95MHsPKk/
T2UswtV55cGOojdAqzstwn4o2sEcIOo/iVJAwoQu6MFGv9tAmEwvwpQoA8LAqLU/E3E1wgih8sFs
KUdAL6EtwlGa9sEEqNs/

> <OMEGA_E>
UzAOwQ==

> <OMEGA_NBR>
     42358

$$$$
CACHE3HI_1695_100
  -OEChem-03092622543D

 41 44  0     0  0  0  0  0  0999 V2000
  -42.7084  -31.7653   -0.9308 C   0  0  0  0  0  0  0  0  0  0  0  0
  -42.9847  -32.5022   -2.0768 C   0  0  0  0  0  0  0  0  0  0  0  0
  -43.7002  -31.5669    0.0345 C   0  0  0  0  0  0  0  0  0  0  0  0
  -44.2526  -33.0427   -2.2615 C   0  0  0  0  0  0  0  0  0  0  0  0
  -51.3842  -31.1165    4.4779 C   0  0  0  0  0  0  0  0  0  0  0  0
  -50.1116  -29.0901    4.8122 C   0  0  0  0  0  0  0  0  0  0  0  0
  -50.4531  -31.5443    3.5313 C   0  0  0  0  0  0  0  0  0  0  0  0
  -49.1806  -29.5178    3.8657 C   0  0  0  0  0  0  0  0  0  0  0  0
  -53.7868  -28.5625    6.9048 C   0  0  0  0  0  0  0  0  0  0  0  0
  -52.1085  -29.7025    7.3956 C   0  0  0  0  0  0  0  0  0  0  0  0
  -44.9905  -32.1001   -0.1244 C   0  0  0  0  0  0  0  0  0  0  0  0
  -45.2459  -32.8424   -1.2922 C   0  0  0  0  0  0  0  0  0  0  0  0
  -51.2132  -29.8893    5.1184 C   0  0  0  0  0  0  0  0  0  0  0  0
  -49.3516  -30.7450    3.2252 C   0  0  0  0  0  0  0  0  0  0  0  0
  -46.0715  -31.9064    0.8872 C   0  0  0  0  0  0  0  0  0  0  0  0
  -46.5880  -33.4292   -1.5103 C   0  0  0  0  0  0  0  0  0  0  0  0
  -47.2700  -32.4682    0.6305 C   0  0  0  0  0  0  0  0  0  0  0  0
  -48.4229  -32.3616    1.5386 C   0  0  0  0  0  0  0  0  0  0  0  0
  -45.7297  -31.0971    2.1123 C   0  0  0  0  0  0  0  0  0  0  0  0
  -53.1488  -29.1401    7.9653 N   0  0  0  0  0  0  0  0  0  0  0  0
  -53.2063  -28.7324    5.7153 N   0  0  0  0  0  0  0  0  0  0  0  0
  -52.1355  -29.4648    6.0569 N   0  0  0  0  0  0  0  0  0  0  0  0
  -47.5129  -33.1929   -0.5135 N   0  0  0  0  0  0  0  0  0  0  0  0
  -48.4063  -31.1797    2.2636 N   0  0  0  0  0  0  0  0  0  0  0  0
  -46.8370  -34.0803   -2.5202 O   0  0  0  0  0  0  0  0  0  0  0  0
  -49.2505  -33.2682    1.5777 O   0  0  0  0  0  0  0  0  0  0  0  0
  -41.7188  -31.3422   -0.7835 H   0  0  0  0  0  0  0  0  0  0  0  0
  -42.2129  -32.6551   -2.8252 H   0  0  0  0  0  0  0  0  0  0  0  0
  -43.4301  -30.9839    0.9111 H   0  0  0  0  0  0  0  0  0  0  0  0
  -44.4502  -33.6157   -3.1634 H   0  0  0  0  0  0  0  0  0  0  0  0
  -52.2384  -31.7492    4.7066 H   0  0  0  0  0  0  0  0  0  0  0  0
  -49.9661  -28.1315    5.3045 H   0  0  0  0  0  0  0  0  0  0  0  0
  -50.5961  -32.5024    3.0378 H   0  0  0  0  0  0  0  0  0  0  0  0
  -48.3260  -28.8867    3.6351 H   0  0  0  0  0  0  0  0  0  0  0  0
  -54.7041  -28.0010    7.0022 H   0  0  0  0  0  0  0  0  0  0  0  0
  -51.3337  -30.2703    7.8928 H   0  0  0  0  0  0  0  0  0  0  0  0
  -45.9468  -30.0515    1.9192 H   0  0  0  0  0  0  0  0  0  0  0  0
  -44.6754  -31.2206    2.3384 H   0  0  0  0  0  0  0  0  0  0  0  0
  -46.3239  -31.4507    2.9488 H   0  0  0  0  0  0  0  0  0  0  0  0
  -48.4425  -33.5848   -0.6363 H   0  0  0  0  0  0  0  0  0  0  0  0
  -47.6249  -30.5520    2.0843 H   0  0  0  0  0  0  0  0  0  0  0  0
  1  2  1  0  0  0  0
  1  3  2  0  0  0  0
  2  4  2  0  0  0  0
  3 11  1  0  0  0  0
  4 12  1  0  0  0  0
  5  7  2  0  0  0  0
  5 13  1  0  0  0  0
  6  8  1  0  0  0  0
  6 13  2  0  0  0  0
  7 14  1  0  0  0  0
  8 14  2  0  0  0  0
  9 20  1  0  0  0  0
  9 21  2  0  0  0  0
 10 20  2  0  0  0  0
 10 22  1  0  0  0  0
 11 12  2  0  0  0  0
 11 15  1  0  0  0  0
 12 16  1  0  0  0  0
 13 22  1  0  0  0  0
 14 24  1  0  0  0  0
 15 17  2  0  0  0  0
 15 19  1  0  0  0  0
 16 23  1  0  0  0  0
 16 25  2  0  0  0  0
 17 18  1  0  0  0  0
 17 23  1  0  0  0  0
 18 24  1  0  0  0  0
 18 26  2  0  0  0  0
 21 22  1  0  0  0  0
  1 27  1  0  0  0  0
  2 28  1  0  0  0  0
  3 29  1  0  0  0  0
  4 30  1  0  0  0  0
  5 31  1  0  0  0  0
  6 32  1  0  0  0  0
  7 33  1  0  0  0  0
  8 34  1  0  0  0  0
  9 35  1  0  0  0  0
 10 36  1  0  0  0  0
 19 37  1  0  0  0  0
 19 38  1  0  0  0  0
 19 39  1  0  0  0  0
 23 40  1  0  0  0  0
 24 41  1  0  0  0  0
M  END
> <POSIT::Probability>
0.02

> <POSIT::Method>
FRED

> <ReceptorTitle>
UCSF-P4536-REFINED_LIGAND-BOUND-STATE_A__DU__LA1_A-201(A)

> <OMEGA_C>
ZNUqwmgf/sFgSG6/UvArwjwCAsIk6gTAB80uwhaJ/MGAcA09nQIxwsQrBMJkvBDAaIlNwpvu+MGk
So9AU3JIwny46MGg/ZlABNBJwqVa/MGOAWJA9LhEwnAk7MEuaHdAtSVXwgSA5MEk9NxAHW9Qwqqe
7cGyqOxAPvYzwnVmAMLAzv691Ps0wpNeA8L8ZaW/VtpMwlwd78HAyaNAA2hFwsb19cFUaU5AMUk4
wkJA/8GwImM/FFo6wnu3BcIAUcG/eBQ9wm7fAcIQZiE/CLFBwkByAcJk8cQ/K+s2wuPG+MHkLwdA
ZJhUwuke6cGu4/5AONNUwgbc5cFX47ZAtIpQwgG468FV0sFAKg0+woLFBMLwcgO/BqBBwvRv+cHM
3hBAH1k7wkBSCMJYSiHAfQBFwpwSBcJA8sk/EuAmwt+8+sGYk0i/DNoowsmeAsJazzTAcbgtwvje
98EgPmk/+cwxwoR2BsKmdErALPRQwlD+/cEUnJZARd1HwloN4cEtvqlAZGJKwncCAsKYakJA3k1B
wuEX58FEpmhA9NBawvcB4MHeEeBAulVNwpYp8sF+kfxAfck3wn5p8MGYqPU/orMywsrD+cHeqBVA
qks5wvSa+8G8uTxAHcVBwtVWBsKw4SK/4X8+wplq9MF6ZAVA

> <OMEGA_E>
t4J/wA==

> <OMEGA_NBR>
     43673

$$$$
CACHE3HI_1695_51
  -OEChem-03092622543D

 42 44  0     0  0  0  0  0  0999 V2000
  -43.7846  -26.1731    0.9086 C   0  0  0  0  0  0  0  0  0  0  0  0
  -42.9700  -27.0220    1.6580 C   0  0  0  0  0  0  0  0  0  0  0  0
  -47.7941  -28.8117    4.7873 C   0  0  0  0  0  0  0  0  0  0  0  0
  -48.6902  -29.9494    2.8534 C   0  0  0  0  0  0  0  0  0  0  0  0
  -49.0422  -28.8821    5.4062 C   0  0  0  0  0  0  0  0  0  0  0  0
  -49.9383  -30.0198    3.4722 C   0  0  0  0  0  0  0  0  0  0  0  0
  -51.6188  -29.6318    6.6923 C   0  0  0  0  0  0  0  0  0  0  0  0
  -47.6182  -29.3456    3.5108 C   0  0  0  0  0  0  0  0  0  0  0  0
  -44.9296  -26.6738    0.2891 C   0  0  0  0  0  0  0  0  0  0  0  0
  -43.3003  -28.3710    1.7880 C   0  0  0  0  0  0  0  0  0  0  0  0
  -45.2599  -28.0229    0.4192 C   0  0  0  0  0  0  0  0  0  0  0  0
  -50.1142  -29.4859    4.7488 C   0  0  0  0  0  0  0  0  0  0  0  0
  -44.4453  -28.8717    1.1685 C   0  0  0  0  0  0  0  0  0  0  0  0
  -46.0179  -30.4231    1.8974 C   0  0  0  0  0  0  0  0  0  0  0  0
  -45.7850  -25.7443   -0.5078 C   0  0  0  0  0  0  0  0  0  0  0  0
  -42.4151  -29.2632    2.5946 C   0  0  0  0  0  0  0  0  0  0  0  0
  -46.4868  -28.5632   -0.2438 C   0  0  0  0  0  0  0  0  0  0  0  0
  -46.2837  -29.2718    2.8492 C   0  0  0  0  0  0  0  0  0  0  0  0
  -52.9211  -29.6789    6.8541 N   0  0  0  0  0  0  0  0  0  0  0  0
  -53.4547  -29.6294    5.5853 N   0  0  0  0  0  0  0  0  0  0  0  0
  -52.4977  -29.5534    4.6685 N   0  0  0  0  0  0  0  0  0  0  0  0
  -51.3513  -29.5551    5.3627 N   0  0  0  0  0  0  0  0  0  0  0  0
  -46.7779  -31.3612    1.6994 O   0  0  0  0  0  0  0  0  0  0  0  0
  -44.7748  -30.2236    1.3001 O   0  0  0  0  0  0  0  0  0  0  0  0
  -43.5186  -25.1239    0.8136 H   0  0  0  0  0  0  0  0  0  0  0  0
  -42.0795  -26.6229    2.1372 H   0  0  0  0  0  0  0  0  0  0  0  0
  -46.9638  -28.3409    5.3069 H   0  0  0  0  0  0  0  0  0  0  0  0
  -48.5617  -30.3666    1.8581 H   0  0  0  0  0  0  0  0  0  0  0  0
  -49.1649  -28.4625    6.4019 H   0  0  0  0  0  0  0  0  0  0  0  0
  -50.7651  -30.4931    2.9481 H   0  0  0  0  0  0  0  0  0  0  0  0
  -50.8664  -29.6490    7.4679 H   0  0  0  0  0  0  0  0  0  0  0  0
  -45.4654  -25.7119   -1.5568 H   0  0  0  0  0  0  0  0  0  0  0  0
  -45.7214  -24.7189   -0.1225 H   0  0  0  0  0  0  0  0  0  0  0  0
  -46.8321  -26.0667   -0.4716 H   0  0  0  0  0  0  0  0  0  0  0  0
  -42.7264  -29.2858    3.6465 H   0  0  0  0  0  0  0  0  0  0  0  0
  -41.3757  -28.9117    2.5766 H   0  0  0  0  0  0  0  0  0  0  0  0
  -42.4447  -30.2855    2.1998 H   0  0  0  0  0  0  0  0  0  0  0  0
  -46.2637  -28.9205   -1.2561 H   0  0  0  0  0  0  0  0  0  0  0  0
  -47.2570  -27.7885   -0.3390 H   0  0  0  0  0  0  0  0  0  0  0  0
  -46.8961  -29.3952    0.3396 H   0  0  0  0  0  0  0  0  0  0  0  0
  -45.4839  -29.2658    3.6067 H   0  0  0  0  0  0  0  0  0  0  0  0
  -46.1939  -28.3330    2.2798 H   0  0  0  0  0  0  0  0  0  0  0  0
  1  2  2  0  0  0  0
  1  9  1  0  0  0  0
  2 10  1  0  0  0  0
  3  5  2  0  0  0  0
  3  8  1  0  0  0  0
  4  6  1  0  0  0  0
  4  8  2  0  0  0  0
  5 12  1  0  0  0  0
  6 12  2  0  0  0  0
  7 19  2  0  0  0  0
  7 22  1  0  0  0  0
  8 18  1  0  0  0  0
  9 11  2  0  0  0  0
  9 15  1  0  0  0  0
 10 13  2  0  0  0  0
 10 16  1  0  0  0  0
 11 13  1  0  0  0  0
 11 17  1  0  0  0  0
 12 22  1  0  0  0  0
 13 24  1  0  0  0  0
 14 18  1  0  0  0  0
 14 23  2  0  0  0  0
 14 24  1  0  0  0  0
 19 20  1  0  0  0  0
 20 21  2  0  0  0  0
 21 22  1  0  0  0  0
  1 25  1  0  0  0  0
  2 26  1  0  0  0  0
  3 27  1  0  0  0  0
  4 28  1  0  0  0  0
  5 29  1  0  0  0  0
  6 30  1  0  0  0  0
  7 31  1  0  0  0  0
 15 32  1  0  0  0  0
 15 33  1  0  0  0  0
 15 34  1  0  0  0  0
 16 35  1  0  0  0  0
 16 36  1  0  0  0  0
 16 37  1  0  0  0  0
 17 38  1  0  0  0  0
 17 39  1  0  0  0  0
 17 40  1  0  0  0  0
 18 41  1  0  0  0  0
 18 42  1  0  0  0  0
M  END
> <POSIT::Probability>
0.02

> <POSIT::Method>
FRED

> <ReceptorTitle>
UCSF-P4536-REFINED_LIGAND-BOUND-STATE_A__DU__LA1_A-201(A)

> <OMEGA_C>
eSMvwpxi0cFImmg/QOErwvks2MEYONQ/LC0/wnB+5sHWMZlAw8JCwmiY78FhnTZAOCtEwooO58HS
/6xAxsBHwooo8MGGOF5ArXlOwuQN7cF2J9ZADXk+wtLD6sFhsWBA67czwgpk1cG4A5Q+djMtwuD3
4sGy3uQ/IAo1wvAu4ME4ntY+73RIwiDj68HR9ZdA9scxwkz55sFjkZU/YRI4wo5i88H+3PI/2SM3
wlH0zcHQAQK/Dqkpwvga6sHdDSZAfvI5woeB5MHAsnm+iCI5wqQs6sHnWDZAO69TwnBu7cFlVNtA
kdFVwhQJ7cHburJAp/1RwlNt7MH8Y5VAuGdNwtpw7MHqmqtAnBw7wr7j+sGyhNk/YRkzwu/J8cGe
aaY/ERMuwtb9yME0SVA/clEowq771MF1yAhA8No7wkC64sEN0qlAIj9Cwrju8sGg1e0/3KhEwjSz
48EQ3MxAaw9Lwujx88GsrTxAMHdLwhQx7cGm+O5Ai9w1wgyyzcGgRse/seI2wk/AxcHA0fq9E1Q7
wqeI0MFIdfG+4OcqwlZJ6sGaX2lAtIAlwhxL58FG5yRAZMcpwr5I8sGeyQxABg45wjRd58E8x6C/
Jwc9wulO3sFIja2+m5U7wnEp68Fw5K0+ju81wnEg6sFQ1GZAksY4wgiq4sFh6BFA

> <OMEGA_E>
iaz7wA==

> <OMEGA_NBR>
     45002

$$$$
CACHE3HI_1696_10
  -OEChem-03092622543D

 38 40  0     1  0  0  0  0  0999 V2000
  -45.4219  -32.3357    0.9681 C   0  0  0  0  0  0  0  0  0  0  0  0
  -43.0955  -32.1255    0.2533 C   0  0  0  0  0  0  0  0  0  0  0  0
  -45.8031  -32.6361   -0.3502 C   0  0  0  0  0  0  0  0  0  0  0  0
  -43.4714  -32.4743   -1.0568 C   0  0  0  0  0  0  0  0  0  0  0  0
  -43.8052  -29.5465    6.3755 C   0  0  0  0  0  0  0  0  0  0  0  0
  -45.9830  -29.5347    4.7347 C   0  0  0  0  0  0  0  0  0  0  0  0
  -44.0740  -32.0389    1.2646 C   0  0  0  0  0  0  0  0  0  0  0  0
  -47.3451  -29.4307    4.1635 C   0  0  0  0  0  0  0  0  0  0  0  0
  -44.8270  -32.7058   -1.3625 C   0  0  0  0  0  0  0  0  0  0  0  0
  -48.1901  -29.1260    5.2149 C   0  0  0  0  0  0  0  0  0  0  0  0
  -46.0964  -29.2453    6.0980 C   0  0  0  0  0  0  0  0  0  0  0  0
  -44.7055  -29.8905    4.2357 C   0  0  0  0  0  0  0  0  0  0  0  0
  -47.7527  -29.6283    2.7140 C   0  0  0  0  0  0  0  0  0  0  0  0
  -49.6900  -28.9163    5.2080 C   0  0  0  0  0  0  0  0  0  0  0  0
  -44.6016  -29.2143    1.8608 C   0  0  0  0  0  0  0  0  0  0  0  0
  -43.7093  -31.4977    2.6276 C   0  0  0  0  0  0  0  0  0  0  0  0
  -45.0162  -29.2483    6.9028 N   0  0  0  0  0  0  0  0  0  0  0  0
  -43.6402  -29.8920    5.0745 N   0  0  0  0  0  0  0  0  0  0  0  0
  -47.4299  -29.0176    6.3719 N   0  0  0  0  0  0  0  0  0  0  0  0
  -44.5170  -30.2705    2.9087 N   0  0  1  0  0  0  0  0  0  0  0  0
  -45.2964  -33.0761   -2.9989 Cl  0  0  0  0  0  0  0  0  0  0  0  0
  -46.1609  -32.3320    1.7557 H   0  0  0  0  0  0  0  0  0  0  0  0
  -42.0597  -31.9244    0.4838 H   0  0  0  0  0  0  0  0  0  0  0  0
  -46.8419  -32.8129   -0.5866 H   0  0  0  0  0  0  0  0  0  0  0  0
  -42.7209  -32.5645   -1.8281 H   0  0  0  0  0  0  0  0  0  0  0  0
  -42.9366  -29.5077    7.0161 H   0  0  0  0  0  0  0  0  0  0  0  0
  -47.9991  -30.6866    2.5428 H   0  0  0  0  0  0  0  0  0  0  0  0
  -48.6328  -29.0066    2.4927 H   0  0  0  0  0  0  0  0  0  0  0  0
  -46.9215  -29.3344    2.0562 H   0  0  0  0  0  0  0  0  0  0  0  0
  -50.1958  -29.8760    5.3903 H   0  0  0  0  0  0  0  0  0  0  0  0
  -49.9638  -28.2017    5.9982 H   0  0  0  0  0  0  0  0  0  0  0  0
  -50.0000  -28.5185    4.2304 H   0  0  0  0  0  0  0  0  0  0  0  0
  -44.4324  -29.6642    0.8714 H   0  0  0  0  0  0  0  0  0  0  0  0
  -45.5990  -28.7510    1.8871 H   0  0  0  0  0  0  0  0  0  0  0  0
  -43.8361  -28.4475    2.0506 H   0  0  0  0  0  0  0  0  0  0  0  0
  -43.9205  -32.2590    3.3930 H   0  0  0  0  0  0  0  0  0  0  0  0
  -42.6389  -31.2449    2.6475 H   0  0  0  0  0  0  0  0  0  0  0  0
  -47.7973  -28.8043    7.2771 H   0  0  0  0  0  0  0  0  0  0  0  0
  1  3  2  0  0  0  0
  1  7  1  0  0  0  0
  2  4  1  0  0  0  0
  2  7  2  0  0  0  0
  3  9  1  0  0  0  0
  4  9  2  0  0  0  0
  5 17  1  0  0  0  0
  5 18  2  0  0  0  0
  6  8  1  0  0  0  0
  6 11  1  0  0  0  0
  6 12  2  0  0  0  0
  7 16  1  0  0  0  0
  8 10  2  0  0  0  0
  8 13  1  0  0  0  0
  9 21  1  0  0  0  0
 10 14  1  0  0  0  0
 10 19  1  0  0  0  0
 11 17  2  0  0  0  0
 11 19  1  0  0  0  0
 12 18  1  0  0  0  0
 12 20  1  0  0  0  0
 15 20  1  0  0  0  0
 16 20  1  0  0  0  0
  1 22  1  0  0  0  0
  2 23  1  0  0  0  0
  3 24  1  0  0  0  0
  4 25  1  0  0  0  0
  5 26  1  0  0  0  0
 13 27  1  0  0  0  0
 13 28  1  0  0  0  0
 13 29  1  0  0  0  0
 14 30  1  0  0  0  0
 14 31  1  0  0  0  0
 14 32  1  0  0  0  0
 15 33  1  0  0  0  0
 15 34  1  0  0  0  0
 15 35  1  0  0  0  0
 16 36  1  0  0  0  0
 16 37  1  0  0  0  0
 19 38  1  0  0  0  0
M  END
> <POSIT::Probability>
0.72

> <POSIT::Method>
SHAPEFIT

> <ReceptorTitle>
UCSF-P4536-REFINED_LIGAND-BOUND-STATE_A__DU__LA1_A-201(A)

> <OMEGA_C>
/K81ws5XAcK61Hc/02EswnaAAMIMtIE+WDY3wlOLAsJEUrO+wuItwqjlAcLBRIe/jTgvwjxf7MHi
A8xAm+43wv5G7MH+gpdAw0swws4nAMK936E/ZWE9wity68GwO4VA3k4zwsLSAsLBZa6/pMJAwiEC
6cEr4KZAvGI4wlz26cEJI8NAbtIywqcf78H8iodAxQI/wsQG7cGksS1AmMJGwp5U58EDqKZAEGgy
wti26cHgL+4/UNYuwl/7+8ERKyhAlhA0wnz86cGU49xAl48uwtki78EoYqJALrg9wgYk6MFJ5stA
YREywu8p8sH+JzpAji81wvVNBMJu7j/At6Q4wvVTAcKWueA/Kj0owkZl/8H4s/c+Jl47wm9AA8LQ
Kha/KOIqwhRCAsIP/um/Gr8rwrwP7MEGhOBAE/8/wid+9cH5vCJA+4dCwpQN6MFJiB9AlK87wvSs
6sFhmANAgshIwgEC78GVfaxA+dpHwi6d4cFa8b9ADQBIwuol5MHFX4dAwboxwlVQ7cGyFl8/W2U2
wh8C5sGFi/E/Jlgvwn6U48H+PANAkK4vwkIJAcJDJ1lAQ44qwoz1+cFdcClAaTA/wilv5sE43uhA

> <OMEGA_E>
NOARPw==

> <OMEGA_NBR>
     46285

$$$$
CACHE3HI_1696_11
  -OEChem-03092622543D

 33 35  0     0  0  0  0  0  0999 V2000
  -45.6087  -33.0479    0.7224 C   0  0  0  0  0  0  0  0  0  0  0  0
  -46.1201  -34.1364   -0.1326 C   0  0  0  0  0  0  0  0  0  0  0  0
  -47.2853  -29.4818    4.1658 C   0  0  0  0  0  0  0  0  0  0  0  0
  -43.8084  -29.5207    6.4187 C   0  0  0  0  0  0  0  0  0  0  0  0
  -45.9522  -29.5473    4.7615 C   0  0  0  0  0  0  0  0  0  0  0  0
  -44.4834  -32.4448    0.1955 C   0  0  0  0  0  0  0  0  0  0  0  0
  -46.1006  -29.2398    6.1068 C   0  0  0  0  0  0  0  0  0  0  0  0
  -44.6805  -29.8720    4.2674 C   0  0  0  0  0  0  0  0  0  0  0  0
  -45.3767  -34.2949   -1.2782 C   0  0  0  0  0  0  0  0  0  0  0  0
  -43.8597  -31.1935    2.3308 C   0  0  0  0  0  0  0  0  0  0  0  0
  -44.3414  -29.9642    0.1314 C   0  0  0  0  0  0  0  0  0  0  0  0
  -42.2271  -31.2978    0.4155 C   0  0  0  0  0  0  0  0  0  0  0  0
  -43.7360  -31.2435    0.7799 C   0  0  0  0  0  0  0  0  0  0  0  0
  -48.1360  -29.1698    5.1197 N   0  0  0  0  0  0  0  0  0  0  0  0
  -45.0324  -29.2198    6.9308 N   0  0  0  0  0  0  0  0  0  0  0  0
  -43.6181  -29.8578    5.1115 N   0  0  0  0  0  0  0  0  0  0  0  0
  -47.4522  -29.0136    6.3038 N   0  0  0  0  0  0  0  0  0  0  0  0
  -44.5381  -30.1211    2.9063 N   0  0  0  0  0  0  0  0  0  0  0  0
  -43.3985  -32.1029    3.0170 O   0  0  0  0  0  0  0  0  0  0  0  0
  -44.0657  -33.1595   -1.3442 S   0  0  0  0  0  0  0  0  0  0  0  0
  -45.6726  -35.4801   -2.5239 Cl  0  0  0  0  0  0  0  0  0  0  0  0
  -46.0640  -32.7552    1.6570 H   0  0  0  0  0  0  0  0  0  0  0  0
  -46.9810  -34.7402    0.1137 H   0  0  0  0  0  0  0  0  0  0  0  0
  -47.5285  -29.6580    3.1284 H   0  0  0  0  0  0  0  0  0  0  0  0
  -42.9515  -29.4914    7.0754 H   0  0  0  0  0  0  0  0  0  0  0  0
  -43.8292  -29.0746    0.5268 H   0  0  0  0  0  0  0  0  0  0  0  0
  -44.2093  -30.0086   -0.9597 H   0  0  0  0  0  0  0  0  0  0  0  0
  -45.4139  -29.9053    0.3688 H   0  0  0  0  0  0  0  0  0  0  0  0
  -41.7137  -30.4255    0.8462 H   0  0  0  0  0  0  0  0  0  0  0  0
  -41.7852  -32.2201    0.8205 H   0  0  0  0  0  0  0  0  0  0  0  0
  -42.1136  -31.2866   -0.6786 H   0  0  0  0  0  0  0  0  0  0  0  0
  -47.8707  -28.7718    7.1792 H   0  0  0  0  0  0  0  0  0  0  0  0
  -44.9636  -29.4674    2.2804 H   0  0  0  0  0  0  0  0  0  0  0  0
  1  2  1  0  0  0  0
  1  6  2  0  0  0  0
  2  9  2  0  0  0  0
  3  5  1  0  0  0  0
  3 14  2  0  0  0  0
  4 15  2  0  0  0  0
  4 16  1  0  0  0  0
  5  7  2  0  0  0  0
  5  8  1  0  0  0  0
  6 13  1  0  0  0  0
  6 20  1  0  0  0  0
  7 15  1  0  0  0  0
  7 17  1  0  0  0  0
  8 16  2  0  0  0  0
  8 18  1  0  0  0  0
  9 20  1  0  0  0  0
  9 21  1  0  0  0  0
 10 13  1  0  0  0  0
 10 18  1  0  0  0  0
 10 19  2  0  0  0  0
 11 13  1  0  0  0  0
 12 13  1  0  0  0  0
 14 17  1  0  0  0  0
  1 22  1  0  0  0  0
  2 23  1  0  0  0  0
  3 24  1  0  0  0  0
  4 25  1  0  0  0  0
 11 26  1  0  0  0  0
 11 27  1  0  0  0  0
 11 28  1  0  0  0  0
 12 29  1  0  0  0  0
 12 30  1  0  0  0  0
 12 31  1  0  0  0  0
 17 32  1  0  0  0  0
 18 33  1  0  0  0  0
M  END
> <POSIT::Probability>
0.79

> <POSIT::Method>
SHAPEFIT

> <ReceptorTitle>
UCSF-P4536-REFINED_LIGAND-BOUND-STATE_A__DU__LA1_A-201(A)

> <OMEGA_C>
VG82whAxBMLK8Tg/8no4wqOLCMJayAe+KyQ9wr/a68EnToVA1Tsvwnkq7MEqZs1AAs83wtJg7MFP
XphAB+8xwnrHAcJDNUg+Bmc4whHr6cEoa8NA4Lgywtf57sFjjohAs4E1wgcuCcLGnKO/XXAvwkyM
+cHrKxVAn10xwpW278F1mAY+kegowvBh+sG6t9Q+qvEuwrny+cGqpUc/TotAws9b6cEz1KNAJCE0
whXC6cEyyd1A63guwtbc7sGUkaNACM89ws0b6MGCuMlABScywvz38MEFADpADpgtwl5pAMLiFUFA
PkMwwkmjBMIND6y/y7A2wpfrDcJhiCHAlEE4wlIFA8J/GNQ/g+w7wvT1CsIIxug9KR0+wpJD7cFB
N0hAWM4rwl/u68GoaeJAG1EvwriY6MFO2QY/TNYwwp8R8MEMrnW/1qc1wiA+78GF07w+2domwn9n
88EToVg/CSQnwmzhAMJ2ClI/XHQowuZK+sFJuS2/ons/wp4s5sHnu+VAvtozwlS968H98RFA

> <OMEGA_E>
cAQWPw==

> <OMEGA_NBR>
     47465

$$$$
CACHE3HI_1697_36
  -OEChem-03092622543D

 49 51  0     0  0  0  0  0  0999 V2000
  -52.2128  -30.4633    2.2303 C   0  0  0  0  0  0  0  0  0  0  0  0
  -53.0104  -30.3148    3.3642 C   0  0  0  0  0  0  0  0  0  0  0  0
  -50.8344  -30.2599    2.3091 C   0  0  0  0  0  0  0  0  0  0  0  0
  -52.4343  -29.9618    4.5853 C   0  0  0  0  0  0  0  0  0  0  0  0
  -44.5283  -30.0357    1.6307 C   0  0  0  0  0  0  0  0  0  0  0  0
  -42.7181  -31.9858    1.8530 C   0  0  0  0  0  0  0  0  0  0  0  0
  -50.2448  -29.9059    3.5273 C   0  0  0  0  0  0  0  0  0  0  0  0
  -51.0540  -29.7582    4.6642 C   0  0  0  0  0  0  0  0  0  0  0  0
  -44.1938  -30.5583    2.8610 C   0  0  0  0  0  0  0  0  0  0  0  0
  -43.0528  -31.4632    0.6229 C   0  0  0  0  0  0  0  0  0  0  0  0
  -48.8012  -29.6901    3.6285 C   0  0  0  0  0  0  0  0  0  0  0  0
  -50.4251  -29.3825    5.9560 C   0  0  0  0  0  0  0  0  0  0  0  0
  -48.2616  -29.3514    4.8095 C   0  0  0  0  0  0  0  0  0  0  0  0
  -44.8220  -30.0601    4.1099 C   0  0  0  0  0  0  0  0  0  0  0  0
  -42.9960  -32.5954   -1.6194 C   0  0  0  0  0  0  0  0  0  0  0  0
  -44.3229  -34.7530   -0.2915 C   0  0  0  0  0  0  0  0  0  0  0  0
  -44.6132  -34.6141   -2.7827 C   0  0  0  0  0  0  0  0  0  0  0  0
  -46.4475  -33.8155   -1.2638 C   0  0  0  0  0  0  0  0  0  0  0  0
  -46.7956  -29.1134    4.9951 C   0  0  0  0  0  0  0  0  0  0  0  0
  -44.9363  -33.9567   -1.4429 C   0  0  0  0  0  0  0  0  0  0  0  0
  -43.2823  -31.5429    2.9941 N   0  0  0  0  0  0  0  0  0  0  0  0
  -43.9643  -30.4786    0.4898 N   0  0  0  0  0  0  0  0  0  0  0  0
  -49.0492  -29.2035    5.9310 N   0  0  0  0  0  0  0  0  0  0  0  0
  -42.4219  -31.9764   -0.5138 N   0  0  0  0  0  0  0  0  0  0  0  0
  -51.1051  -29.2452    6.9681 O   0  0  0  0  0  0  0  0  0  0  0  0
  -44.2552  -30.0611    5.1919 O   0  0  0  0  0  0  0  0  0  0  0  0
  -42.4175  -33.0370   -2.6046 O   0  0  0  0  0  0  0  0  0  0  0  0
  -46.0903  -29.6146    3.8751 O   0  0  0  0  0  0  0  0  0  0  0  0
  -44.3542  -32.6478   -1.4527 O   0  0  0  0  0  0  0  0  0  0  0  0
  -52.6658  -30.7383    1.2820 H   0  0  0  0  0  0  0  0  0  0  0  0
  -54.0828  -30.4743    3.2971 H   0  0  0  0  0  0  0  0  0  0  0  0
  -50.2309  -30.3810    1.4127 H   0  0  0  0  0  0  0  0  0  0  0  0
  -53.0734  -29.8512    5.4566 H   0  0  0  0  0  0  0  0  0  0  0  0
  -45.2597  -29.2445    1.5148 H   0  0  0  0  0  0  0  0  0  0  0  0
  -41.9872  -32.7773    1.9718 H   0  0  0  0  0  0  0  0  0  0  0  0
  -48.1938  -29.8099    2.7380 H   0  0  0  0  0  0  0  0  0  0  0  0
  -44.5518  -34.2855    0.6721 H   0  0  0  0  0  0  0  0  0  0  0  0
  -44.6921  -35.7832   -0.2730 H   0  0  0  0  0  0  0  0  0  0  0  0
  -43.2309  -34.7759   -0.3728 H   0  0  0  0  0  0  0  0  0  0  0  0
  -45.0513  -34.0462   -3.6116 H   0  0  0  0  0  0  0  0  0  0  0  0
  -43.5338  -34.6897   -2.9464 H   0  0  0  0  0  0  0  0  0  0  0  0
  -45.0432  -35.6208   -2.8366 H   0  0  0  0  0  0  0  0  0  0  0  0
  -46.8994  -33.2465   -2.0828 H   0  0  0  0  0  0  0  0  0  0  0  0
  -46.9296  -34.7988   -1.2187 H   0  0  0  0  0  0  0  0  0  0  0  0
  -46.6821  -33.3121   -0.3194 H   0  0  0  0  0  0  0  0  0  0  0  0
  -46.4436  -29.6097    5.8996 H   0  0  0  0  0  0  0  0  0  0  0  0
  -46.6057  -28.0437    5.0834 H   0  0  0  0  0  0  0  0  0  0  0  0
  -48.5902  -28.9453    6.8002 H   0  0  0  0  0  0  0  0  0  0  0  0
  -41.4012  -31.8846   -0.5357 H   0  0  0  0  0  0  0  0  0  0  0  0
  1  2  1  0  0  0  0
  1  3  2  0  0  0  0
  2  4  2  0  0  0  0
  3  7  1  0  0  0  0
  4  8  1  0  0  0  0
  5  9  2  0  0  0  0
  5 22  1  0  0  0  0
  6 10  1  0  0  0  0
  6 21  2  0  0  0  0
  7  8  2  0  0  0  0
  7 11  1  0  0  0  0
  8 12  1  0  0  0  0
  9 14  1  0  0  0  0
  9 21  1  0  0  0  0
 10 22  2  0  0  0  0
 10 24  1  0  0  0  0
 11 13  2  0  0  0  0
 12 23  1  0  0  0  0
 12 25  2  0  0  0  0
 13 19  1  0  0  0  0
 13 23  1  0  0  0  0
 14 26  2  0  0  0  0
 14 28  1  0  0  0  0
 15 24  1  0  0  0  0
 15 27  2  0  0  0  0
 15 29  1  0  0  0  0
 16 20  1  0  0  0  0
 17 20  1  0  0  0  0
 18 20  1  0  0  0  0
 19 28  1  0  0  0  0
 20 29  1  0  0  0  0
  1 30  1  0  0  0  0
  2 31  1  0  0  0  0
  3 32  1  0  0  0  0
  4 33  1  0  0  0  0
  5 34  1  0  0  0  0
  6 35  1  0  0  0  0
 11 36  1  0  0  0  0
 16 37  1  0  0  0  0
 16 38  1  0  0  0  0
 16 39  1  0  0  0  0
 17 40  1  0  0  0  0
 17 41  1  0  0  0  0
 17 42  1  0  0  0  0
 18 43  1  0  0  0  0
 18 44  1  0  0  0  0
 18 45  1  0  0  0  0
 19 46  1  0  0  0  0
 19 47  1  0  0  0  0
 23 48  1  0  0  0  0
 24 49  1  0  0  0  0
M  END
> <POSIT::Probability>
0.24

> <POSIT::Method>
FRED

> <ReceptorTitle>
UCSF-P4536-REFINED_LIGAND-BOUND-STATE_A__DU__LA1_A-201(A)

> <OMEGA_C>
39lQwuW088HQvA5ArApUwruE8sHaTldAbVZLwjwU8sGKyBNAsbxRwrSx78FqupJA8BwywhVJ8MGO
utA/V98qwtzi/8FEMO0/svpIwkk/78EOwGFAQDdMwsYQ7sEvQZVAaMYwwlF39MG8GjdABjYswqC0
+8HAdx8/dDRDwmCF7cH2OWhARrNJwkIP68HKl75A4AtBwr3P6sGk55lAwEkzwhp78MEMhINA7fsr
wrVhAsJASc+/sEoxwg4DC8LAPZW+53MywuN0CsIKFzLAP8o5wgZDB8LGxKG/pi47wkno6MGy159A
xL4zwqvTB8KQr7i/ESEtwuNX/ME5nz9AatsvwkPU88EIxvo+VzJEwrag6cHayr1A/68pwrzP/8EI
iwO/qGtMwjH26cFS+t5AUAUxwip98MHkI6ZAkqspwuIlBMIqsSbAglw4wr7q7MEEAnhAumoxwk+X
AsLY8Lm/xqlSwgro9cFIGaQ/yVRYwlvL88GqA1NAZOxIwlMM88Fi1LQ/NktUwkfP7sFunK5A8gk1
wtH06cGu5cE/6fInwv0bA8KqYvw/bMZAwrV67sHdOi9ACTUywmQkCcLYESw/v8Qywv4hD8L4xYu+
eOwswowaC8I45b6+fjQ0wlUvCMK0I2fAmSIuwkLCCsLVkTzANCw0wqx7DsI4izXA9Jg7wmT8BMKc
TAXA5Lc7wv0xC8Is/pu/b7o6wpU/BcJAhqO+QMY5wrLg7MHGybxAQGw6wnBZ4MEQq6JAY1xCwgKQ
58HimtlA3JolwpgT/8H0JAm/

> <OMEGA_E>
XiXewA==

> <OMEGA_NBR>
     48936

$$$$
CACHE3HI_1702_42
  -OEChem-03092622543D

 42 44  0     0  0  0  0  0  0999 V2000
  -47.4119  -29.9765    1.2944 C   0  0  0  0  0  0  0  0  0  0  0  0
  -48.6988  -30.2097    1.7763 C   0  0  0  0  0  0  0  0  0  0  0  0
  -42.3682  -31.9143   -1.6669 C   0  0  0  0  0  0  0  0  0  0  0  0
  -43.5741  -32.4785   -2.0830 C   0  0  0  0  0  0  0  0  0  0  0  0
  -46.4053  -29.5402    2.1580 C   0  0  0  0  0  0  0  0  0  0  0  0
  -48.9870  -30.0074    3.1253 C   0  0  0  0  0  0  0  0  0  0  0  0
  -42.0751  -31.8213   -0.3064 C   0  0  0  0  0  0  0  0  0  0  0  0
  -44.4866  -32.9499   -1.1391 C   0  0  0  0  0  0  0  0  0  0  0  0
  -46.6926  -29.3371    3.5101 C   0  0  0  0  0  0  0  0  0  0  0  0
  -47.9788  -29.5703    3.9895 C   0  0  0  0  0  0  0  0  0  0  0  0
  -42.9877  -32.2927    0.6376 C   0  0  0  0  0  0  0  0  0  0  0  0
  -44.1935  -32.8569    0.2215 C   0  0  0  0  0  0  0  0  0  0  0  0
  -45.6840  -28.8765    4.4858 C   0  0  0  0  0  0  0  0  0  0  0  0
  -48.2581  -29.3492    5.4177 C   0  0  0  0  0  0  0  0  0  0  0  0
  -42.6473  -32.1804    2.0878 C   0  0  0  0  0  0  0  0  0  0  0  0
  -43.5645  -29.9329    3.8574 C   0  0  0  0  0  0  0  0  0  0  0  0
  -44.2736  -28.6097    4.0150 C   0  0  0  0  0  0  0  0  0  0  0  0
  -41.7630  -31.0310    2.5349 C   0  0  0  0  0  0  0  0  0  0  0  0
  -45.1884  -33.3694    1.2112 C   0  0  0  0  0  0  0  0  0  0  0  0
  -45.9417  -28.6866    5.7420 N   0  0  0  0  0  0  0  0  0  0  0  0
  -47.1989  -28.9188    6.1869 N   0  0  0  0  0  0  0  0  0  0  0  0
  -42.5953  -29.8968    2.8681 N   0  0  0  0  0  0  0  0  0  0  0  0
  -49.3822  -29.5462    5.8701 O   0  0  0  0  0  0  0  0  0  0  0  0
  -43.0921  -33.0187    2.8694 O   0  0  0  0  0  0  0  0  0  0  0  0
  -43.8288  -30.9105    4.5560 O   0  0  0  0  0  0  0  0  0  0  0  0
  -46.3126  -33.8892    0.6381 F   0  0  0  0  0  0  0  0  0  0  0  0
  -45.6253  -32.3982    2.0634 F   0  0  0  0  0  0  0  0  0  0  0  0
  -44.6978  -34.3644    2.0065 F   0  0  0  0  0  0  0  0  0  0  0  0
  -47.1908  -30.1355    0.2427 H   0  0  0  0  0  0  0  0  0  0  0  0
  -49.4777  -30.5499    1.1000 H   0  0  0  0  0  0  0  0  0  0  0  0
  -41.6578  -31.5477   -2.4018 H   0  0  0  0  0  0  0  0  0  0  0  0
  -43.8022  -32.5508   -3.1424 H   0  0  0  0  0  0  0  0  0  0  0  0
  -45.4141  -29.3684    1.7505 H   0  0  0  0  0  0  0  0  0  0  0  0
  -49.9958  -30.1945    3.4822 H   0  0  0  0  0  0  0  0  0  0  0  0
  -41.1321  -31.3799    0.0052 H   0  0  0  0  0  0  0  0  0  0  0  0
  -45.4235  -33.3877   -1.4738 H   0  0  0  0  0  0  0  0  0  0  0  0
  -44.3234  -28.0455    3.0882 H   0  0  0  0  0  0  0  0  0  0  0  0
  -43.7523  -28.0190    4.7649 H   0  0  0  0  0  0  0  0  0  0  0  0
  -41.0800  -30.7529    1.7272 H   0  0  0  0  0  0  0  0  0  0  0  0
  -41.2012  -31.3304    3.4244 H   0  0  0  0  0  0  0  0  0  0  0  0
  -47.3770  -28.7621    7.1739 H   0  0  0  0  0  0  0  0  0  0  0  0
  -42.4548  -29.0443    2.3349 H   0  0  0  0  0  0  0  0  0  0  0  0
  1  2  1  0  0  0  0
  1  5  2  0  0  0  0
  2  6  2  0  0  0  0
  3  4  1  0  0  0  0
  3  7  2  0  0  0  0
  4  8  2  0  0  0  0
  5  9  1  0  0  0  0
  6 10  1  0  0  0  0
  7 11  1  0  0  0  0
  8 12  1  0  0  0  0
  9 10  2  0  0  0  0
  9 13  1  0  0  0  0
 10 14  1  0  0  0  0
 11 12  2  0  0  0  0
 11 15  1  0  0  0  0
 12 19  1  0  0  0  0
 13 17  1  0  0  0  0
 13 20  2  0  0  0  0
 14 21  1  0  0  0  0
 14 23  2  0  0  0  0
 15 18  1  0  0  0  0
 15 24  2  0  0  0  0
 16 17  1  0  0  0  0
 16 22  1  0  0  0  0
 16 25  2  0  0  0  0
 18 22  1  0  0  0  0
 19 26  1  0  0  0  0
 19 27  1  0  0  0  0
 19 28  1  0  0  0  0
 20 21  1  0  0  0  0
  1 29  1  0  0  0  0
  2 30  1  0  0  0  0
  3 31  1  0  0  0  0
  4 32  1  0  0  0  0
  5 33  1  0  0  0  0
  6 34  1  0  0  0  0
  7 35  1  0  0  0  0
  8 36  1  0  0  0  0
 17 37  1  0  0  0  0
 17 38  1  0  0  0  0
 18 39  1  0  0  0  0
 18 40  1  0  0  0  0
 21 41  1  0  0  0  0
 22 42  1  0  0  0  0
M  END
> <POSIT::Probability>
0.23

> <POSIT::Method>
HYBRID

> <ReceptorTitle>
UCSF-P4536-REFINED_LIGAND-BOUND-STATE_A__DU__LA1_A-201(A)

> <OMEGA_C>
zqU9wtXP78FsrqU/lstCwm+t8cG2XOM/BXkpwoNQ/8H+XNW/3EsuwgPqAcKfUAXA/Z45wmNS7MFm
HQpAsvJDwjMP8MGDBUhA8kwowhOS/sFs4py+SPIxwq/MA8J8zJG/L8U6wl6y6sEFpmBASuo/wvuP
7MGhVH9AXvMrwrcrAcJcOCM/LMYwwnNtA8L0y2I+Xrw2whwD58H3i49ATQhBwjTL6sHgXa1AypYq
wsS4AMK1nQVADkIuwpJ278FM33ZALhgxwqfg5MHUeoBATA0nwm0/+MFbOyJA58A0wkV6BcJ2CZs/
VMQ3wh1+5cGIvrdArMs8wrhZ58HE+sVAj2EqwqAs78GljjdAXYdFwppe7MHk17tARF4swhkTBMK9
pDdAt1AvwqxI98GQypFAEkA5woeOB8JyVyM/RIA2wsaXAcKKDwRAlMoywil1CcKRagBAW8M8wpMV
8cFgfHg+LulFwhxm9MHmzIw/oaEmwq1h/MEmtxnAaDUvwvkzAsJfHEnA/ac1wmjy6sHcDuA/v/tH
wnCO8cG9215AQ4ckwg8K+8EA5qg7srE1wgyNBcJMpry/Lksxwhld4MFQpUVAYQIvwvQm4MEOephA
31Ekwv4F9sH+Fd0//80kwrCk+sGQKFtAGII9ws4Y5sEykOVAtNEpwspa6MFwbhVA

> <OMEGA_E>
ISzfwA==

> <OMEGA_NBR>
     50271

$$$$
CACHE3HI_1702_79
  -OEChem-03092622543D

 42 44  0     0  0  0  0  0  0999 V2000
  -52.2135  -29.6187    2.6371 C   0  0  0  0  0  0  0  0  0  0  0  0
  -53.1615  -30.5905    3.0879 C   0  0  0  0  0  0  0  0  0  0  0  0
  -51.2085  -29.0626    3.4518 C   0  0  0  0  0  0  0  0  0  0  0  0
  -53.1941  -31.1017    4.4049 C   0  0  0  0  0  0  0  0  0  0  0  0
  -47.5989  -31.4299    2.6491 C   0  0  0  0  0  0  0  0  0  0  0  0
  -45.9949  -29.7009    3.1737 C   0  0  0  0  0  0  0  0  0  0  0  0
  -46.6557  -32.0570    1.8349 C   0  0  0  0  0  0  0  0  0  0  0  0
  -45.0517  -30.3279    2.3596 C   0  0  0  0  0  0  0  0  0  0  0  0
  -51.2670  -29.5835    4.7377 C   0  0  0  0  0  0  0  0  0  0  0  0
  -52.2000  -30.5625    5.2423 C   0  0  0  0  0  0  0  0  0  0  0  0
  -47.2682  -30.2519    3.3186 C   0  0  0  0  0  0  0  0  0  0  0  0
  -45.3823  -31.5060    1.6900 C   0  0  0  0  0  0  0  0  0  0  0  0
  -50.4350  -29.2544    5.7693 C   0  0  0  0  0  0  0  0  0  0  0  0
  -47.9874  -28.8443    5.2798 C   0  0  0  0  0  0  0  0  0  0  0  0
  -43.3936  -31.5451    0.1452 C   0  0  0  0  0  0  0  0  0  0  0  0
  -49.2948  -28.3314    5.8966 C   0  0  0  0  0  0  0  0  0  0  0  0
  -42.5960  -32.5946   -0.6149 C   0  0  0  0  0  0  0  0  0  0  0  0
  -43.4229  -33.3476   -1.6312 C   0  0  0  0  0  0  0  0  0  0  0  0
  -51.9260  -30.8045    6.5368 N   0  0  0  0  0  0  0  0  0  0  0  0
  -50.8732  -30.0113    6.8169 N   0  0  0  0  0  0  0  0  0  0  0  0
  -48.2246  -29.6161    4.1454 N   0  0  0  0  0  0  0  0  0  0  0  0
  -44.4396  -32.1333    0.8749 N   0  0  0  0  0  0  0  0  0  0  0  0
  -46.8998  -28.5679    5.7756 O   0  0  0  0  0  0  0  0  0  0  0  0
  -43.1165  -30.3518    0.0920 O   0  0  0  0  0  0  0  0  0  0  0  0
  -44.4332  -34.0049   -1.0202 F   0  0  0  0  0  0  0  0  0  0  0  0
  -42.6832  -34.2630   -2.2911 F   0  0  0  0  0  0  0  0  0  0  0  0
  -43.9711  -32.5133   -2.5398 F   0  0  0  0  0  0  0  0  0  0  0  0
  -52.2758  -29.2911    1.5995 H   0  0  0  0  0  0  0  0  0  0  0  0
  -53.8987  -30.9557    2.3735 H   0  0  0  0  0  0  0  0  0  0  0  0
  -50.4999  -28.3288    3.0941 H   0  0  0  0  0  0  0  0  0  0  0  0
  -53.9195  -31.8371    4.7266 H   0  0  0  0  0  0  0  0  0  0  0  0
  -48.5877  -31.8689    2.7557 H   0  0  0  0  0  0  0  0  0  0  0  0
  -45.7265  -28.7825    3.6895 H   0  0  0  0  0  0  0  0  0  0  0  0
  -46.9240  -32.9749    1.3182 H   0  0  0  0  0  0  0  0  0  0  0  0
  -44.0624  -29.8898    2.2542 H   0  0  0  0  0  0  0  0  0  0  0  0
  -49.5191  -27.3529    5.4265 H   0  0  0  0  0  0  0  0  0  0  0  0
  -49.0836  -28.0973    6.9598 H   0  0  0  0  0  0  0  0  0  0  0  0
  -42.1764  -33.3019    0.1099 H   0  0  0  0  0  0  0  0  0  0  0  0
  -41.7622  -32.0956   -1.1210 H   0  0  0  0  0  0  0  0  0  0  0  0
  -50.4993  -30.0381    7.7572 H   0  0  0  0  0  0  0  0  0  0  0  0
  -49.1947  -29.7455    3.8664 H   0  0  0  0  0  0  0  0  0  0  0  0
  -44.5141  -33.1543    0.7959 H   0  0  0  0  0  0  0  0  0  0  0  0
  1  2  1  0  0  0  0
  1  3  2  0  0  0  0
  2  4  2  0  0  0  0
  3  9  1  0  0  0  0
  4 10  1  0  0  0  0
  5  7  2  0  0  0  0
  5 11  1  0  0  0  0
  6  8  1  0  0  0  0
  6 11  2  0  0  0  0
  7 12  1  0  0  0  0
  8 12  2  0  0  0  0
  9 10  1  0  0  0  0
  9 13  2  0  0  0  0
 10 19  2  0  0  0  0
 11 21  1  0  0  0  0
 12 22  1  0  0  0  0
 13 16  1  0  0  0  0
 13 20  1  0  0  0  0
 14 16  1  0  0  0  0
 14 21  1  0  0  0  0
 14 23  2  0  0  0  0
 15 17  1  0  0  0  0
 15 22  1  0  0  0  0
 15 24  2  0  0  0  0
 17 18  1  0  0  0  0
 18 25  1  0  0  0  0
 18 26  1  0  0  0  0
 18 27  1  0  0  0  0
 19 20  1  0  0  0  0
  1 28  1  0  0  0  0
  2 29  1  0  0  0  0
  3 30  1  0  0  0  0
  4 31  1  0  0  0  0
  5 32  1  0  0  0  0
  6 33  1  0  0  0  0
  7 34  1  0  0  0  0
  8 35  1  0  0  0  0
 16 36  1  0  0  0  0
 16 37  1  0  0  0  0
 17 38  1  0  0  0  0
 17 39  1  0  0  0  0
 20 40  1  0  0  0  0
 21 41  1  0  0  0  0
 22 42  1  0  0  0  0
M  END
> <POSIT::Probability>
0.24

> <POSIT::Method>
FRED

> <ReceptorTitle>
UCSF-P4536-REFINED_LIGAND-BOUND-STATE_A__DU__LA1_A-201(A)

> <OMEGA_C>
ldpQwgPz7ME6xihAY6VUwmq59MG3n0VAfdVMwkOA6MGM6lxAu8ZUwjzQ+ME99YxAOmU+woZw+8Fm
iilAu/o3woib7cGpHktAaZ86wls6AMLT3Oo/7DQ0wp6f8sFKAxdAYhFNwhyr7MGDm5dAx8xQwud/
9MHDwKdAqRI9wt0D8sFlZFRAe4c1wmAM/MFcUdg/e71Jwg8J6sHlnbhAI/M/wijB5sEe9KhAF5Mt
wnBc/MEQtRQ+4i1FwsOm4sE5sbxAWmIqwuZgAsL2bB2/CrEtwutjBcI7zNC/NbRPwplv9sGeLdFA
NH5LwjoX8MFLJNpA8+VAwr/t7MFPp4RAKsIxwoOIAMLu+l8/W5k7wvWK5MGp0bhAUXcswofQ8sFg
Wbw9pLsxwgYFCMJplYK/l7sqwlINCcJAoRLAW+IvwpoNAsLWjCLAZRpRwkBU6sH6vMw/OphXwkyl
98El6BdA7P9Jwlqh4sECBkZAia1Xwm+y/sFKQJdAwVlCwnDz/sGTXTBA7Oc2wp9C5sHeIGxAObI7
wljmA8IYuqg/4j8wwlQe78HhRBBAlhNGwrrS2sGIpa1ApVVEwkbH4MFwtt5AorQowho1BcKgGOE9
fQwnwuBhAMJ7fo+/R/9JwgNO8MHCOvhAbMdEwsr27cFic3dAbg4ywgOeBMIivUs/

> <OMEGA_E>
BfnMwA==

> <OMEGA_NBR>
     51602

$$$$
CACHE3HI_1702_91
  -OEChem-03092622543D

 41 43  0     0  0  0  0  0  0999 V2000
  -43.3452  -26.8820    1.1787 C   0  0  0  0  0  0  0  0  0  0  0  0
  -43.3683  -27.4084   -0.1116 C   0  0  0  0  0  0  0  0  0  0  0  0
  -43.3936  -27.7309    2.2862 C   0  0  0  0  0  0  0  0  0  0  0  0
  -43.4406  -28.7877   -0.3023 C   0  0  0  0  0  0  0  0  0  0  0  0
  -49.4999  -29.8179    3.7981 C   0  0  0  0  0  0  0  0  0  0  0  0
  -49.1345  -28.9092    6.0068 C   0  0  0  0  0  0  0  0  0  0  0  0
  -48.1222  -29.8433    3.5813 C   0  0  0  0  0  0  0  0  0  0  0  0
  -47.7568  -28.9346    5.7900 C   0  0  0  0  0  0  0  0  0  0  0  0
  -43.4660  -29.1132    2.0967 C   0  0  0  0  0  0  0  0  0  0  0  0
  -43.4894  -29.6372    0.8069 C   0  0  0  0  0  0  0  0  0  0  0  0
  -50.0059  -29.3509    5.0111 C   0  0  0  0  0  0  0  0  0  0  0  0
  -47.2507  -29.4015    4.5770 C   0  0  0  0  0  0  0  0  0  0  0  0
  -43.5213  -30.0761    3.2153 C   0  0  0  0  0  0  0  0  0  0  0  0
  -43.5663  -31.0966    0.6318 C   0  0  0  0  0  0  0  0  0  0  0  0
  -52.4038  -29.7260    4.3556 C   0  0  0  0  0  0  0  0  0  0  0  0
  -44.8483  -29.5944    5.3034 C   0  0  0  0  0  0  0  0  0  0  0  0
  -53.7688  -29.5406    4.9694 C   0  0  0  0  0  0  0  0  0  0  0  0
  -43.4986  -29.5573    4.6339 C   0  0  0  0  0  0  0  0  0  0  0  0
  -43.5876  -31.3599    3.0484 N   0  0  0  0  0  0  0  0  0  0  0  0
  -43.6097  -31.8480    1.7860 N   0  0  0  0  0  0  0  0  0  0  0  0
  -51.3838  -29.3263    5.2286 N   0  0  0  0  0  0  0  0  0  0  0  0
  -45.8537  -29.4269    4.3562 N   0  0  0  0  0  0  0  0  0  0  0  0
  -43.5885  -31.5885   -0.4928 O   0  0  0  0  0  0  0  0  0  0  0  0
  -52.2809  -30.1849    3.2244 O   0  0  0  0  0  0  0  0  0  0  0  0
  -44.9787  -29.7521    6.5130 O   0  0  0  0  0  0  0  0  0  0  0  0
  -43.2884  -25.8067    1.3236 H   0  0  0  0  0  0  0  0  0  0  0  0
  -43.3295  -26.7433   -0.9694 H   0  0  0  0  0  0  0  0  0  0  0  0
  -43.3735  -27.2884    3.2771 H   0  0  0  0  0  0  0  0  0  0  0  0
  -43.4576  -29.1791   -1.3155 H   0  0  0  0  0  0  0  0  0  0  0  0
  -50.1696  -30.1658    3.0157 H   0  0  0  0  0  0  0  0  0  0  0  0
  -49.5175  -28.5419    6.9554 H   0  0  0  0  0  0  0  0  0  0  0  0
  -47.7389  -30.2097    2.6324 H   0  0  0  0  0  0  0  0  0  0  0  0
  -47.0871  -28.5881    6.5731 H   0  0  0  0  0  0  0  0  0  0  0  0
  -54.1518  -28.5430    4.7374 H   0  0  0  0  0  0  0  0  0  0  0  0
  -54.4601  -30.2851    4.5652 H   0  0  0  0  0  0  0  0  0  0  0  0
  -53.7057  -29.6654    6.0542 H   0  0  0  0  0  0  0  0  0  0  0  0
  -42.7963  -30.1775    5.1887 H   0  0  0  0  0  0  0  0  0  0  0  0
  -43.1365  -28.5314    4.5916 H   0  0  0  0  0  0  0  0  0  0  0  0
  -43.6629  -32.8562    1.6804 H   0  0  0  0  0  0  0  0  0  0  0  0
  -51.6945  -28.9723    6.1404 H   0  0  0  0  0  0  0  0  0  0  0  0
  -45.5646  -29.3079    3.3872 H   0  0  0  0  0  0  0  0  0  0  0  0
  1  2  1  0  0  0  0
  1  3  2  0  0  0  0
  2  4  2  0  0  0  0
  3  9  1  0  0  0  0
  4 10  1  0  0  0  0
  5  7  2  0  0  0  0
  5 11  1  0  0  0  0
  6  8  1  0  0  0  0
  6 11  2  0  0  0  0
  7 12  1  0  0  0  0
  8 12  2  0  0  0  0
  9 10  2  0  0  0  0
  9 13  1  0  0  0  0
 10 14  1  0  0  0  0
 11 21  1  0  0  0  0
 12 22  1  0  0  0  0
 13 18  1  0  0  0  0
 13 19  2  0  0  0  0
 14 20  1  0  0  0  0
 14 23  2  0  0  0  0
 15 17  1  0  0  0  0
 15 21  1  0  0  0  0
 15 24  2  0  0  0  0
 16 18  1  0  0  0  0
 16 22  1  0  0  0  0
 16 25  2  0  0  0  0
 19 20  1  0  0  0  0
  1 26  1  0  0  0  0
  2 27  1  0  0  0  0
  3 28  1  0  0  0  0
  4 29  1  0  0  0  0
  5 30  1  0  0  0  0
  6 31  1  0  0  0  0
  7 32  1  0  0  0  0
  8 33  1  0  0  0  0
 17 34  1  0  0  0  0
 17 35  1  0  0  0  0
 17 36  1  0  0  0  0
 18 37  1  0  0  0  0
 18 38  1  0  0  0  0
 20 39  1  0  0  0  0
 21 40  1  0  0  0  0
 22 41  1  0  0  0  0
M  END
> <POSIT::Probability>
0.18

> <POSIT::Method>
FRED

> <ReceptorTitle>
UCSF-P4536-REFINED_LIGAND-BOUND-STATE_A__DU__LA1_A-201(A)

> <OMEGA_C>
cmEtwkIO18Fs4JY/LnktwmpE28HAn+S9BpMtwubY3cFcURJAM8MtwiZN5sGExpq+6P9FwgqL7sG7
FHNAtIlEwg5G58HwN8BAJX1AwgC/7sFQNGVA/AY/wv1558EOSLlAPN0twuHn6MGtMAZAKfUtwuwY
7cEkk04/FQZIwrHO6sEWW6BAxAA9wl8268EDd5JA2xUuwtOb8MGqx01A4kMuwtzF+MGQvCE/fJ1R
wszO7cH2YItArWQzwlPB7MFKtalANhNXwihT7MEsBZ9AiP4twlB17MGOSJRAslkuwiHh+sEsGUNA
U3AuwrjI/sHQnOQ/CYlNwk6c6sGQUKdALmo3wj1q68FiZotAoFouwjK1/MF8Svy+mB9RwsZ68cHw
W05AJOozwkcE7sGWatBASCctwjR0zsHOa6k/aVEtwjby1cGcLHi/c34twpJO2sGUvFFAoNQtwsRu
6cGCYqi/tq1IwntT8cF9AUFA7xFGwrZV5MHgkt5Am/Q+wm2t8cFueShAJ1k8woS05MHfVtJAdJtY
wvtX5MHsmJdAJNdZwt5H8sE1FpJArtJWwr5S7cHmu8FAby8rwmtr8cFyCaZA0IsswlNA5MGC7pJA
1aYuwr5sA8KOFtc/HsdOwk3H58FAfsRAKkI2wot26sGEx1hA

> <OMEGA_E>
auABwQ==

> <OMEGA_NBR>
     52913

$$$$
CACHE3HI_1704_18
  -OEChem-03092622543D

 42 43  0     0  0  0  0  0  0999 V2000
  -51.6459  -29.5152    5.4751 C   0  0  0  0  0  0  0  0  0  0  0  0
  -50.4930  -29.3418    6.2410 C   0  0  0  0  0  0  0  0  0  0  0  0
  -51.5606  -29.5392    4.0831 C   0  0  0  0  0  0  0  0  0  0  0  0
  -49.2552  -29.1927    5.6152 C   0  0  0  0  0  0  0  0  0  0  0  0
  -50.3227  -29.3901    3.4573 C   0  0  0  0  0  0  0  0  0  0  0  0
  -44.5419  -31.4102    0.7072 C   0  0  0  0  0  0  0  0  0  0  0  0
  -44.1528  -32.4711   -0.1609 C   0  0  0  0  0  0  0  0  0  0  0  0
  -49.1700  -29.2167    4.2232 C   0  0  0  0  0  0  0  0  0  0  0  0
  -44.8882  -33.6151    0.0578 C   0  0  0  0  0  0  0  0  0  0  0  0
  -45.5605  -31.7844    1.5565 C   0  0  0  0  0  0  0  0  0  0  0  0
  -43.9635  -30.0896    0.7266 C   0  0  0  0  0  0  0  0  0  0  0  0
  -44.8066  -34.8816   -0.5971 C   0  0  0  0  0  0  0  0  0  0  0  0
  -45.7520  -30.0369    3.3584 C   0  0  0  0  0  0  0  0  0  0  0  0
  -43.0808  -32.3567   -1.1819 C   0  0  0  0  0  0  0  0  0  0  0  0
  -44.4400  -27.7584    0.4527 C   0  0  0  0  0  0  0  0  0  0  0  0
  -43.3257  -36.4062   -1.7254 C   0  0  0  0  0  0  0  0  0  0  0  0
  -46.8160  -29.5431    4.3206 C   0  0  0  0  0  0  0  0  0  0  0  0
  -46.2463  -31.0683    2.5673 N   0  0  0  0  0  0  0  0  0  0  0  0
  -42.7652  -29.8399    0.9550 O   0  0  0  0  0  0  0  0  0  0  0  0
  -45.7606  -35.6774   -0.7607 O   0  0  0  0  0  0  0  0  0  0  0  0
  -44.6280  -29.5464    3.3366 O   0  0  0  0  0  0  0  0  0  0  0  0
  -47.9620  -29.0720    3.6128 O   0  0  0  0  0  0  0  0  0  0  0  0
  -44.8941  -29.1159    0.4612 O   0  0  0  0  0  0  0  0  0  0  0  0
  -43.5357  -35.1615   -1.0503 O   0  0  0  0  0  0  0  0  0  0  0  0
  -46.0430  -33.4081    1.3055 S   0  0  0  0  0  0  0  0  0  0  0  0
  -52.6094  -29.6318    5.9624 H   0  0  0  0  0  0  0  0  0  0  0  0
  -50.5590  -29.3238    7.3249 H   0  0  0  0  0  0  0  0  0  0  0  0
  -52.4578  -29.6743    3.4862 H   0  0  0  0  0  0  0  0  0  0  0  0
  -48.3610  -29.0584    6.2176 H   0  0  0  0  0  0  0  0  0  0  0  0
  -50.2633  -29.4097    2.3724 H   0  0  0  0  0  0  0  0  0  0  0  0
  -42.0987  -32.6363   -0.7720 H   0  0  0  0  0  0  0  0  0  0  0  0
  -42.9825  -31.3250   -1.5520 H   0  0  0  0  0  0  0  0  0  0  0  0
  -43.2912  -33.0096   -2.0409 H   0  0  0  0  0  0  0  0  0  0  0  0
  -45.2787  -27.0938    0.2297 H   0  0  0  0  0  0  0  0  0  0  0  0
  -44.0351  -27.5126    1.4374 H   0  0  0  0  0  0  0  0  0  0  0  0
  -43.6574  -27.6398   -0.3001 H   0  0  0  0  0  0  0  0  0  0  0  0
  -42.2775  -36.4877   -2.0243 H   0  0  0  0  0  0  0  0  0  0  0  0
  -43.5733  -37.2254   -1.0460 H   0  0  0  0  0  0  0  0  0  0  0  0
  -43.9715  -36.4580   -2.6050 H   0  0  0  0  0  0  0  0  0  0  0  0
  -46.4171  -28.7321    4.9381 H   0  0  0  0  0  0  0  0  0  0  0  0
  -47.1258  -30.3677    4.9705 H   0  0  0  0  0  0  0  0  0  0  0  0
  -47.2116  -31.3507    2.7218 H   0  0  0  0  0  0  0  0  0  0  0  0
  1  2  1  0  0  0  0
  1  3  2  0  0  0  0
  2  4  2  0  0  0  0
  3  5  1  0  0  0  0
  4  8  1  0  0  0  0
  5  8  2  0  0  0  0
  6  7  1  0  0  0  0
  6 10  2  0  0  0  0
  6 11  1  0  0  0  0
  7  9  2  0  0  0  0
  7 14  1  0  0  0  0
  8 22  1  0  0  0  0
  9 12  1  0  0  0  0
  9 25  1  0  0  0  0
 10 18  1  0  0  0  0
 10 25  1  0  0  0  0
 11 19  2  0  0  0  0
 11 23  1  0  0  0  0
 12 20  2  0  0  0  0
 12 24  1  0  0  0  0
 13 17  1  0  0  0  0
 13 18  1  0  0  0  0
 13 21  2  0  0  0  0
 15 23  1  0  0  0  0
 16 24  1  0  0  0  0
 17 22  1  0  0  0  0
  1 26  1  0  0  0  0
  2 27  1  0  0  0  0
  3 28  1  0  0  0  0
  4 29  1  0  0  0  0
  5 30  1  0  0  0  0
 14 31  1  0  0  0  0
 14 32  1  0  0  0  0
 14 33  1  0  0  0  0
 15 34  1  0  0  0  0
 15 35  1  0  0  0  0
 15 36  1  0  0  0  0
 16 37  1  0  0  0  0
 16 38  1  0  0  0  0
 16 39  1  0  0  0  0
 17 40  1  0  0  0  0
 17 41  1  0  0  0  0
 18 42  1  0  0  0  0
M  END
> <POSIT::Probability>
0.24

> <POSIT::Method>
FRED

> <ReceptorTitle>
UCSF-P4536-REFINED_LIGAND-BOUND-STATE_A__DU__LA1_A-201(A)

> <OMEGA_C>
WpVOwjgf7MHQM69A3/hJwg686sFktsdAAz5Owl1Q7MHGqIJAWwVFwrOK6cEOsLNAfkpJwgQf68Hl
RF1A6CoywidI+8HwDDU/bpwwwm7iAcKgvyS+Ca5Ewt276cGMJIdAjo0zwuh1BsIQxmw99T02wmxG
/sHfPMc/ndovwo+38MFS/zk/9DkzwruGC8Iy3hi/EQI3wodL8MFy8FZAslIswkVtAcL9SJe/mcIx
wikR3sHVzec+kU0twvmfEcJ22Ny/mEM7wkJY7MGUQopANvw4wvOL+ME0TyRAjw8rwjS47sF6e3Q/
2wo3wqy1DsIMvEK/GYMywg1f7MFmilVAIdk/wmqT6MGqN2dAi5MzwlLt6MGtJ+w+jyQuwmKlDMK5
cYa/ECw4wuyhBcLnGac/BHBSwtoN7cE4zL5AZjxKwjCX6sFsZepAxNRRwvhk7cHYHV9ArXFBwrN3
6MG09sZAqg1JwhdH68GE1RdAFmUowpKLAsKwnkW/H+4rwpmZ+sHApsa/LiotwtcJBMI+ngLAZx01
wgjA2MGGLWs+9SMwwsIZ3MFu/Lc/KaEuwmke3cFUqpm+KRwpwmXzEcLDjgHAE0suwtrmFML344W/
y+IvwgTVEcIouCbAJKs5wkrb5cGUBJ5A04A8wgXx8sEVDp9AsNg8wirO+sH1MS5A

> <OMEGA_E>
KpnqwA==

> <OMEGA_NBR>
     54239

$$$$
CACHE3HI_1704_35
  -OEChem-03092622543D

 41 43  0     0  0  0  0  0  0999 V2000
  -45.7754  -34.1238   -2.0002 C   0  0  0  0  0  0  0  0  0  0  0  0
  -47.1075  -34.0590   -1.5915 C   0  0  0  0  0  0  0  0  0  0  0  0
  -42.1797  -30.9944    1.1913 C   0  0  0  0  0  0  0  0  0  0  0  0
  -44.8406  -33.2330   -1.4728 C   0  0  0  0  0  0  0  0  0  0  0  0
  -43.1381  -31.8697    0.6804 C   0  0  0  0  0  0  0  0  0  0  0  0
  -47.5047  -33.1041   -0.6554 C   0  0  0  0  0  0  0  0  0  0  0  0
  -42.3272  -29.6188    1.0138 C   0  0  0  0  0  0  0  0  0  0  0  0
  -44.3914  -29.9940   -0.1849 C   0  0  0  0  0  0  0  0  0  0  0  0
  -45.3728  -29.7465    4.4218 C   0  0  0  0  0  0  0  0  0  0  0  0
  -47.2498  -29.1339    6.2418 C   0  0  0  0  0  0  0  0  0  0  0  0
  -44.2439  -31.3696   -0.0075 C   0  0  0  0  0  0  0  0  0  0  0  0
  -45.2379  -32.2780   -0.5367 C   0  0  0  0  0  0  0  0  0  0  0  0
  -46.5699  -32.2133   -0.1280 C   0  0  0  0  0  0  0  0  0  0  0  0
  -43.4330  -29.1187    0.3260 C   0  0  0  0  0  0  0  0  0  0  0  0
  -46.6965  -29.5620    4.0786 C   0  0  0  0  0  0  0  0  0  0  0  0
  -45.0762  -29.5960    5.7609 C   0  0  0  0  0  0  0  0  0  0  0  0
  -46.2657  -30.6936    1.8577 C   0  0  0  0  0  0  0  0  0  0  0  0
  -43.5351  -29.5972    7.5725 C   0  0  0  0  0  0  0  0  0  0  0  0
  -47.1166  -29.7059    2.6400 C   0  0  0  0  0  0  0  0  0  0  0  0
  -47.6649  -29.2538    4.9662 N   0  0  0  0  0  0  0  0  0  0  0  0
  -45.9932  -29.2885    6.7018 N   0  0  0  0  0  0  0  0  0  0  0  0
  -46.9987  -31.2671    0.8086 N   0  0  0  0  0  0  0  0  0  0  0  0
  -45.0947  -30.9215    2.1443 O   0  0  0  0  0  0  0  0  0  0  0  0
  -43.7834  -29.7643    6.1812 O   0  0  0  0  0  0  0  0  0  0  0  0
  -43.6160  -27.4211    0.1109 Cl  0  0  0  0  0  0  0  0  0  0  0  0
  -45.4656  -34.8666   -2.7295 H   0  0  0  0  0  0  0  0  0  0  0  0
  -47.8351  -34.7532   -2.0019 H   0  0  0  0  0  0  0  0  0  0  0  0
  -41.3198  -31.3841    1.7280 H   0  0  0  0  0  0  0  0  0  0  0  0
  -43.8063  -33.2963   -1.8026 H   0  0  0  0  0  0  0  0  0  0  0  0
  -43.0093  -32.9396    0.8262 H   0  0  0  0  0  0  0  0  0  0  0  0
  -48.5460  -33.0645   -0.3455 H   0  0  0  0  0  0  0  0  0  0  0  0
  -41.5730  -28.9485    1.4187 H   0  0  0  0  0  0  0  0  0  0  0  0
  -45.2538  -29.6028   -0.7213 H   0  0  0  0  0  0  0  0  0  0  0  0
  -44.6145  -29.9945    3.6895 H   0  0  0  0  0  0  0  0  0  0  0  0
  -48.0070  -28.8874    6.9762 H   0  0  0  0  0  0  0  0  0  0  0  0
  -42.4731  -29.7570    7.7761 H   0  0  0  0  0  0  0  0  0  0  0  0
  -43.8106  -28.5806    7.8634 H   0  0  0  0  0  0  0  0  0  0  0  0
  -44.1369  -30.3113    8.1392 H   0  0  0  0  0  0  0  0  0  0  0  0
  -48.1644  -30.0281    2.5952 H   0  0  0  0  0  0  0  0  0  0  0  0
  -47.0677  -28.7294    2.1417 H   0  0  0  0  0  0  0  0  0  0  0  0
  -47.9695  -30.9513    0.7184 H   0  0  0  0  0  0  0  0  0  0  0  0
  1  2  1  0  0  0  0
  1  4  2  0  0  0  0
  2  6  2  0  0  0  0
  3  5  2  0  0  0  0
  3  7  1  0  0  0  0
  4 12  1  0  0  0  0
  5 11  1  0  0  0  0
  6 13  1  0  0  0  0
  7 14  2  0  0  0  0
  8 11  2  0  0  0  0
  8 14  1  0  0  0  0
  9 15  2  0  0  0  0
  9 16  1  0  0  0  0
 10 20  2  0  0  0  0
 10 21  1  0  0  0  0
 11 12  1  0  0  0  0
 12 13  2  0  0  0  0
 13 22  1  0  0  0  0
 14 25  1  0  0  0  0
 15 19  1  0  0  0  0
 15 20  1  0  0  0  0
 16 21  2  0  0  0  0
 16 24  1  0  0  0  0
 17 19  1  0  0  0  0
 17 22  1  0  0  0  0
 17 23  2  0  0  0  0
 18 24  1  0  0  0  0
  1 26  1  0  0  0  0
  2 27  1  0  0  0  0
  3 28  1  0  0  0  0
  4 29  1  0  0  0  0
  5 30  1  0  0  0  0
  6 31  1  0  0  0  0
  7 32  1  0  0  0  0
  8 33  1  0  0  0  0
  9 34  1  0  0  0  0
 10 35  1  0  0  0  0
 18 36  1  0  0  0  0
 18 37  1  0  0  0  0
 18 38  1  0  0  0  0
 19 39  1  0  0  0  0
 19 40  1  0  0  0  0
 22 41  1  0  0  0  0
M  END
> <POSIT::Probability>
0.18

> <POSIT::Method>
HYBRID

> <ReceptorTitle>
UCSF-P4536-REFINED_LIGAND-BOUND-STATE_A__DU__LA1_A-201(A)

> <OMEGA_C>
CRo3wrl+CMKOAwDAGW48wnQ8CMJQtsu/BbgowoX098GAe5g/0lwzwpXuBMJ6hLy/cY0swhr1/sHY
LC4/2gQ+wo5qBMJoyie/EE8pwljz7MGgxYE/xpAxwqPz78HgYD2+x301wu347cF+f41Awv88wj8S
6cGIvMdAwPkwwu70+sEAXPa7k/M0wq4cAcLEZgm/lUc6wmTaAMIgEwO+X7stwizz6MFg46Y+OMk6
wgp/7MGsg4JA/E00wqXE7MHlWLhAFBA5wpSM9cFAyO0/5iMuwgDH7MHuUfJAZ3c8wq2l7cG39ShA
0ag+wsIH6sHS6p5AAPk3wslO6sEoddZAt/47wggj+sFoAk8//WA0wihf98GkPAlALCIvwlod7sHK
zMVA03YuwoJe28GADuM90tw1wmx3C8Lkry7AL1c/wkoDC8JcHgDAbUclwrsS+8HoL90/sTkvwmUv
BcLUvOa/gwkswh3CA8LggFM/HC9CwhhCBMJw4rC+y0omwpyW58EQmbU/2gM1wn/S7MFopzi/OHUy
wqX078EEIGxAHgdAwncZ58HVPN9AaOQpwl0O7sHL1fhADD4vwhil5MHCoPtAOowwwoh98sE8OgJB
U6hAwn058MHsFyZAUkU8wuDV5cGWEQlAz+A/wjqc98Eg6Tc/

> <OMEGA_E>
5G/vwA==

> <OMEGA_NBR>
     55553

$$$$
CACHE3HI_1704_6
  -OEChem-03092622543D

 52 54  0     0  0  0  0  0  0999 V2000
  -44.6651  -35.4498   -1.1981 C   0  0  0  0  0  0  0  0  0  0  0  0
  -44.9602  -34.4803   -0.2397 C   0  0  0  0  0  0  0  0  0  0  0  0
  -43.7119  -35.1892   -2.1824 C   0  0  0  0  0  0  0  0  0  0  0  0
  -43.5824  -28.9812    4.8188 C   0  0  0  0  0  0  0  0  0  0  0  0
  -44.8611  -29.0165    5.3750 C   0  0  0  0  0  0  0  0  0  0  0  0
  -43.4009  -29.2841    3.4694 C   0  0  0  0  0  0  0  0  0  0  0  0
  -44.3022  -33.2505   -0.2654 C   0  0  0  0  0  0  0  0  0  0  0  0
  -43.0539  -33.9594   -2.2081 C   0  0  0  0  0  0  0  0  0  0  0  0
  -45.7765  -29.6573    3.2328 C   0  0  0  0  0  0  0  0  0  0  0  0
  -45.9580  -29.3544    4.5822 C   0  0  0  0  0  0  0  0  0  0  0  0
  -44.4978  -29.6220    2.6766 C   0  0  0  0  0  0  0  0  0  0  0  0
  -43.3490  -32.9899   -1.2497 C   0  0  0  0  0  0  0  0  0  0  0  0
  -49.6554  -29.6268    5.3669 C   0  0  0  0  0  0  0  0  0  0  0  0
  -51.6737  -29.7386    5.8875 C   0  0  0  0  0  0  0  0  0  0  0  0
  -48.4924  -29.7008    4.5388 C   0  0  0  0  0  0  0  0  0  0  0  0
  -43.1930  -30.4971    0.7097 C   0  0  0  0  0  0  0  0  0  0  0  0
  -53.5526  -31.3767    5.5266 C   0  0  0  0  0  0  0  0  0  0  0  0
  -53.8512  -28.9602    4.8896 C   0  0  0  0  0  0  0  0  0  0  0  0
  -53.8467  -29.6401    7.2811 C   0  0  0  0  0  0  0  0  0  0  0  0
  -43.4060  -30.6582   -0.7838 C   0  0  0  0  0  0  0  0  0  0  0  0
  -53.1998  -29.9224    5.9061 C   0  0  0  0  0  0  0  0  0  0  0  0
  -50.8872  -29.9135    4.8513 N   0  0  0  0  0  0  0  0  0  0  0  0
  -50.9342  -29.3652    6.9658 N   0  0  0  0  0  0  0  0  0  0  0  0
  -49.6311  -29.2857    6.6569 N   0  0  0  0  0  0  0  0  0  0  0  0
  -47.2563  -29.3891    5.1480 N   0  0  0  0  0  0  0  0  0  0  0  0
  -44.3157  -29.9242    1.3267 N   0  0  0  0  0  0  0  0  0  0  0  0
  -48.6013  -30.0091    3.3282 O   0  0  0  0  0  0  0  0  0  0  0  0
  -42.1479  -30.8430    1.2506 O   0  0  0  0  0  0  0  0  0  0  0  0
  -42.6998  -31.7778   -1.2745 O   0  0  0  0  0  0  0  0  0  0  0  0
  -45.1772  -36.4073   -1.1777 H   0  0  0  0  0  0  0  0  0  0  0  0
  -45.7018  -34.6831    0.5273 H   0  0  0  0  0  0  0  0  0  0  0  0
  -43.4816  -35.9437   -2.9289 H   0  0  0  0  0  0  0  0  0  0  0  0
  -42.7283  -28.7185    5.4363 H   0  0  0  0  0  0  0  0  0  0  0  0
  -44.9913  -28.7787    6.4280 H   0  0  0  0  0  0  0  0  0  0  0  0
  -42.4001  -29.2539    3.0463 H   0  0  0  0  0  0  0  0  0  0  0  0
  -44.5364  -32.4997    0.4843 H   0  0  0  0  0  0  0  0  0  0  0  0
  -42.3123  -33.7628   -2.9778 H   0  0  0  0  0  0  0  0  0  0  0  0
  -46.6319  -29.9205    2.6143 H   0  0  0  0  0  0  0  0  0  0  0  0
  -54.6376  -31.5345    5.5325 H   0  0  0  0  0  0  0  0  0  0  0  0
  -53.1854  -31.6240    4.5232 H   0  0  0  0  0  0  0  0  0  0  0  0
  -53.1108  -32.1043    6.2167 H   0  0  0  0  0  0  0  0  0  0  0  0
  -54.9421  -29.0714    4.8831 H   0  0  0  0  0  0  0  0  0  0  0  0
  -53.6243  -27.9157    5.1335 H   0  0  0  0  0  0  0  0  0  0  0  0
  -53.5057  -29.1418    3.8669 H   0  0  0  0  0  0  0  0  0  0  0  0
  -54.9327  -29.7843    7.2433 H   0  0  0  0  0  0  0  0  0  0  0  0
  -53.6702  -28.6077    7.6053 H   0  0  0  0  0  0  0  0  0  0  0  0
  -53.4596  -30.3127    8.0558 H   0  0  0  0  0  0  0  0  0  0  0  0
  -43.0668  -29.7608   -1.3107 H   0  0  0  0  0  0  0  0  0  0  0  0
  -44.4721  -30.8076   -0.9824 H   0  0  0  0  0  0  0  0  0  0  0  0
  -48.9183  -29.0213    7.3315 H   0  0  0  0  0  0  0  0  0  0  0  0
  -47.3058  -29.1556    6.1370 H   0  0  0  0  0  0  0  0  0  0  0  0
  -45.0984  -29.7028    0.7005 H   0  0  0  0  0  0  0  0  0  0  0  0
  1  2  1  0  0  0  0
  1  3  2  0  0  0  0
  2  7  2  0  0  0  0
  3  8  1  0  0  0  0
  4  5  2  0  0  0  0
  4  6  1  0  0  0  0
  5 10  1  0  0  0  0
  6 11  2  0  0  0  0
  7 12  1  0  0  0  0
  8 12  2  0  0  0  0
  9 10  2  0  0  0  0
  9 11  1  0  0  0  0
 10 25  1  0  0  0  0
 11 26  1  0  0  0  0
 12 29  1  0  0  0  0
 13 15  1  0  0  0  0
 13 22  2  0  0  0  0
 13 24  1  0  0  0  0
 14 21  1  0  0  0  0
 14 22  1  0  0  0  0
 14 23  2  0  0  0  0
 15 25  1  0  0  0  0
 15 27  2  0  0  0  0
 16 20  1  0  0  0  0
 16 26  1  0  0  0  0
 16 28  2  0  0  0  0
 17 21  1  0  0  0  0
 18 21  1  0  0  0  0
 19 21  1  0  0  0  0
 20 29  1  0  0  0  0
 23 24  1  0  0  0  0
  1 30  1  0  0  0  0
  2 31  1  0  0  0  0
  3 32  1  0  0  0  0
  4 33  1  0  0  0  0
  5 34  1  0  0  0  0
  6 35  1  0  0  0  0
  7 36  1  0  0  0  0
  8 37  1  0  0  0  0
  9 38  1  0  0  0  0
 17 39  1  0  0  0  0
 17 40  1  0  0  0  0
 17 41  1  0  0  0  0
 18 42  1  0  0  0  0
 18 43  1  0  0  0  0
 18 44  1  0  0  0  0
 19 45  1  0  0  0  0
 19 46  1  0  0  0  0
 19 47  1  0  0  0  0
 20 48  1  0  0  0  0
 20 49  1  0  0  0  0
 24 50  1  0  0  0  0
 25 51  1  0  0  0  0
 26 52  1  0  0  0  0
M  END
> <POSIT::Probability>
0.24

> <POSIT::Method>
FRED

> <ReceptorTitle>
UCSF-P4536-REFINED_LIGAND-BOUND-STATE_A__DU__LA1_A-201(A)

> <OMEGA_C>
FakywpvMDcKCW5m/SNczwsfrCcJgb3W+/9guwrLBDMIHrQvAaFQuwpLZ58FzM5pAxXEzwuIh6MFc
AKxAh5otwuZF6sEiC15AcTUxwoAABcIg3Ie+KTcswmzWB8KRUQ3AIBs3whhC7cHy5U5ACNU3wr/V
6sFFoZJAyf0xwsP57MH6TCtAVWUtwpz1A8I495+/J59GwsYD7cHjvatA6bFOwpvo7cFuZrxAPPhB
wjub7cHWPZFAosUswiT688E4rTU/3jVWwm4D+8ER2rBApmdXwnau58H3d5xADmNXwt0e7cH8/uhA
y58twvND9cEApki/o8xUwgJh78Hm/rxAeIxLwtJO78GXPZtAkrxLwvrr6sE26N5AN4ZGwgVJ6sEX
BdVAcAY9wuEc68FovKRASUMxwtJk78EM0Kk/wmdCwpYS8MGKAFVAeZcowoG+9sHsEqA/mcwqwgM5
/sHwIaO/crU0wh2hEcIUv5a/r842woe7CsLo/gY/M+0twlbGD8ISczvAvOkqwnO/5cEK9q1ADPcz
wts65sGVss1Ar5kpwvEH6sGQ9kJAOiUywrb/AcIw+fc+1T8pwhINB8JjlD7ACIc6wihd78FQUSdA
6oxawptG/MEMCrFA2b1UwgL+/MHpvZBAdHFUwtNqAMI878ZAtMRbwiGS6MH9QZxAU39WwktT38HV
RaRA2gVWwn8i6cHUendAF7tbwkFG7sFRyedAPa5Wwn7c5MGdXvNAltZVwmWA8sG05ABBZkQswhAW
7sFoxae/buMxwux19sFMe3u/XaxDwpkr6MGym+pAHDk9wrE+6cFVYsRAx2Q0wj+f7cF4VDM/

> <OMEGA_E>
Aaa7wA==

> <OMEGA_NBR>
     57083

$$$$
CACHE3HI_1704_75
  -OEChem-03092622543D

 42 44  0     0  0  0  0  0  0999 V2000
  -43.9510  -33.4620   -3.0591 C   0  0  0  0  0  0  0  0  0  0  0  0
  -44.6719  -33.5863   -1.8714 C   0  0  0  0  0  0  0  0  0  0  0  0
  -42.8036  -32.6700   -3.0981 C   0  0  0  0  0  0  0  0  0  0  0  0
  -41.3332  -31.4246    2.4509 C   0  0  0  0  0  0  0  0  0  0  0  0
  -41.7799  -30.1343    2.7358 C   0  0  0  0  0  0  0  0  0  0  0  0
  -44.2453  -32.9191   -0.7229 C   0  0  0  0  0  0  0  0  0  0  0  0
  -42.3770  -32.0028   -1.9497 C   0  0  0  0  0  0  0  0  0  0  0  0
  -41.7713  -32.0748    1.2973 C   0  0  0  0  0  0  0  0  0  0  0  0
  -42.6641  -29.4941    1.8673 C   0  0  0  0  0  0  0  0  0  0  0  0
  -46.2426  -29.4093    4.4548 C   0  0  0  0  0  0  0  0  0  0  0  0
  -44.0733  -29.9442    5.9442 C   0  0  0  0  0  0  0  0  0  0  0  0
  -43.0978  -32.1271   -0.7620 C   0  0  0  0  0  0  0  0  0  0  0  0
  -42.6555  -31.4346    0.4287 C   0  0  0  0  0  0  0  0  0  0  0  0
  -43.1021  -30.1443    0.7136 C   0  0  0  0  0  0  0  0  0  0  0  0
  -45.0484  -29.8140    3.8945 C   0  0  0  0  0  0  0  0  0  0  0  0
  -46.2499  -29.2970    5.8299 C   0  0  0  0  0  0  0  0  0  0  0  0
  -45.7172  -29.2229    1.5407 C   0  0  0  0  0  0  0  0  0  0  0  0
  -48.5237  -28.6271    5.6346 C   0  0  0  0  0  0  0  0  0  0  0  0
  -45.3610  -29.6736    0.1365 C   0  0  0  0  0  0  0  0  0  0  0  0
  -43.9397  -30.0909    4.6121 N   0  0  0  0  0  0  0  0  0  0  0  0
  -45.1794  -29.5578    6.6089 N   0  0  0  0  0  0  0  0  0  0  0  0
  -44.9942  -29.9430    2.4856 N   0  0  0  0  0  0  0  0  0  0  0  0
  -46.5415  -28.3370    1.7415 O   0  0  0  0  0  0  0  0  0  0  0  0
  -43.9690  -29.4959   -0.1159 O   0  0  0  0  0  0  0  0  0  0  0  0
  -47.3984  -28.9001    6.4620 O   0  0  0  0  0  0  0  0  0  0  0  0
  -44.2833  -33.9809   -3.9533 H   0  0  0  0  0  0  0  0  0  0  0  0
  -45.5650  -34.2036   -1.8407 H   0  0  0  0  0  0  0  0  0  0  0  0
  -42.2424  -32.5729   -4.0228 H   0  0  0  0  0  0  0  0  0  0  0  0
  -40.6437  -31.9219    3.1267 H   0  0  0  0  0  0  0  0  0  0  0  0
  -41.4374  -29.6272    3.6331 H   0  0  0  0  0  0  0  0  0  0  0  0
  -44.8188  -33.0257    0.1949 H   0  0  0  0  0  0  0  0  0  0  0  0
  -41.4802  -31.3897   -1.9960 H   0  0  0  0  0  0  0  0  0  0  0  0
  -41.4132  -33.0803    1.0888 H   0  0  0  0  0  0  0  0  0  0  0  0
  -43.0065  -28.4886    2.0964 H   0  0  0  0  0  0  0  0  0  0  0  0
  -47.1218  -29.1917    3.8601 H   0  0  0  0  0  0  0  0  0  0  0  0
  -43.1983  -30.1600    6.5450 H   0  0  0  0  0  0  0  0  0  0  0  0
  -49.3693  -28.3223    6.2565 H   0  0  0  0  0  0  0  0  0  0  0  0
  -48.2705  -27.8177    4.9457 H   0  0  0  0  0  0  0  0  0  0  0  0
  -48.7820  -29.5214    5.0628 H   0  0  0  0  0  0  0  0  0  0  0  0
  -45.9350  -29.1011   -0.5989 H   0  0  0  0  0  0  0  0  0  0  0  0
  -45.5994  -30.7363    0.0271 H   0  0  0  0  0  0  0  0  0  0  0  0
  -44.3469  -30.6469    2.1377 H   0  0  0  0  0  0  0  0  0  0  0  0
  1  2  1  0  0  0  0
  1  3  2  0  0  0  0
  2  6  2  0  0  0  0
  3  7  1  0  0  0  0
  4  5  1  0  0  0  0
  4  8  2  0  0  0  0
  5  9  2  0  0  0  0
  6 12  1  0  0  0  0
  7 12  2  0  0  0  0
  8 13  1  0  0  0  0
  9 14  1  0  0  0  0
 10 15  2  0  0  0  0
 10 16  1  0  0  0  0
 11 20  2  0  0  0  0
 11 21  1  0  0  0  0
 12 13  1  0  0  0  0
 13 14  2  0  0  0  0
 14 24  1  0  0  0  0
 15 20  1  0  0  0  0
 15 22  1  0  0  0  0
 16 21  2  0  0  0  0
 16 25  1  0  0  0  0
 17 19  1  0  0  0  0
 17 22  1  0  0  0  0
 17 23  2  0  0  0  0
 18 25  1  0  0  0  0
 19 24  1  0  0  0  0
  1 26  1  0  0  0  0
  2 27  1  0  0  0  0
  3 28  1  0  0  0  0
  4 29  1  0  0  0  0
  5 30  1  0  0  0  0
  6 31  1  0  0  0  0
  7 32  1  0  0  0  0
  8 33  1  0  0  0  0
  9 34  1  0  0  0  0
 10 35  1  0  0  0  0
 11 36  1  0  0  0  0
 18 37  1  0  0  0  0
 18 38  1  0  0  0  0
 18 39  1  0  0  0  0
 19 40  1  0  0  0  0
 19 41  1  0  0  0  0
 22 42  1  0  0  0  0
M  END
> <POSIT::Probability>
0.18

> <POSIT::Method>
HYBRID

> <ReceptorTitle>
UCSF-P4536-REFINED_LIGAND-BOUND-STATE_A__DU__LA1_A-201(A)

> <OMEGA_C>
3s0vwg3ZBcLBx0PABbAywmNYBsJIie+/3jYrwguuAsJRR0bAN1Ulwqpl+8F02xxAlB4nwgMT8cHu
Fy9AN/swwi+tA8IAEzm/EIIpwtYCAMLojvm/xBUnwpdMAMK4DKY/Aagqwunz68HoA+8/b/g4wihG
68F6jY5ADUswwriN78GmNr5ALGQswiaCAMIQE0O/L58qwhR6+8Egg9s+jmgswoYn8cH4sDY/hjE0
wiuD7sHIP3lA2/84wkNg6sG2jrpAZt42wmrI6cEINsU/OhhCwkwE5cHcTrRAo3E1woFj7cHg0Qs+
TcIvwia68MEhlpNAqbc0wnB27MFdfNNAD/ozwkSL78FUEx9Adio6wkWy4sEQ6N4/POAvwrP368FA
Vu29/Jc9wncz58GwyM5AECIxwmjsB8KYA33AhEI2woTQCMKgneu/QfgowqBKAsKzuoDAIpMiwhpg
/8EkG0hA3L8lwpEE7cGyhGhAbEYzwlwaBMIglkc+reslwgge+8Goe/+/HKclwjJSBMLYXYs/qgYs
wpXo48FWKwZAsXw8wp6I6cEcC3dAF8sswphH8cFQcNFANnpFwiyU4sGgNchABRVBwp6K3sHPQp5A
xCBDwsIr7MGlAqJAab03wgfP6MGAUBm/wmU2wv3j9cEALN48RmMxwsgs9cG0zwhA

> <OMEGA_E>
uO0AwQ==

> <OMEGA_NBR>
     58416

$$$$
CACHE3HI_1706_11
  -OEChem-03092622543D

 45 47  0     1  0  0  0  0  0999 V2000
  -44.0626  -26.4127    0.2012 C   0  0  0  0  0  0  0  0  0  0  0  0
  -45.4321  -26.4688    0.4602 C   0  0  0  0  0  0  0  0  0  0  0  0
  -43.3241  -27.5914    0.0977 C   0  0  0  0  0  0  0  0  0  0  0  0
  -46.0630  -27.7033    0.6153 C   0  0  0  0  0  0  0  0  0  0  0  0
  -43.9550  -28.8259    0.2529 C   0  0  0  0  0  0  0  0  0  0  0  0
  -46.1359  -29.6153    4.9723 C   0  0  0  0  0  0  0  0  0  0  0  0
  -45.3245  -28.8820    0.5118 C   0  0  0  0  0  0  0  0  0  0  0  0
  -45.0773  -29.5145    5.9034 C   0  0  0  0  0  0  0  0  0  0  0  0
  -47.2707  -29.5800    5.7431 C   0  0  0  0  0  0  0  0  0  0  0  0
  -44.0690  -30.7350    2.1256 C   0  0  0  0  0  0  0  0  0  0  0  0
  -45.9499  -29.7193    3.5050 C   0  0  0  0  0  0  0  0  0  0  0  0
  -43.6504  -29.5224    5.5036 C   0  0  0  0  0  0  0  0  0  0  0  0
  -43.5284  -29.2086    4.0036 C   0  0  0  0  0  0  0  0  0  0  0  0
  -48.7008  -29.6380    5.3986 C   0  0  0  0  0  0  0  0  0  0  0  0
  -44.4152  -32.1705    0.1670 C   0  0  0  0  0  0  0  0  0  0  0  0
  -45.9318  -32.3118    2.1639 C   0  0  0  0  0  0  0  0  0  0  0  0
  -46.0081  -30.2205    0.6800 C   0  0  1  0  0  0  0  0  0  0  0  0
  -45.1322  -31.3645    1.2599 C   0  0  0  0  0  0  0  0  0  0  0  0
  -45.5002  -29.4292    7.1653 N   0  0  0  0  0  0  0  0  0  0  0  0
  -46.8403  -29.4705    7.0354 N   0  0  0  0  0  0  0  0  0  0  0  0
  -44.5177  -29.9546    3.1953 N   0  0  0  0  0  0  0  0  0  0  0  0
  -42.8799  -30.9347    1.8626 O   0  0  0  0  0  0  0  0  0  0  0  0
  -47.1134  -30.1130    1.4845 F   0  0  0  0  0  0  0  0  0  0  0  0
  -43.5713  -25.4517    0.0805 H   0  0  0  0  0  0  0  0  0  0  0  0
  -46.0073  -25.5511    0.5404 H   0  0  0  0  0  0  0  0  0  0  0  0
  -42.2578  -27.5479   -0.1037 H   0  0  0  0  0  0  0  0  0  0  0  0
  -47.1305  -27.7370    0.8169 H   0  0  0  0  0  0  0  0  0  0  0  0
  -43.3714  -29.7389    0.1695 H   0  0  0  0  0  0  0  0  0  0  0  0
  -46.5747  -30.5209    3.1053 H   0  0  0  0  0  0  0  0  0  0  0  0
  -46.2337  -28.7808    3.0160 H   0  0  0  0  0  0  0  0  0  0  0  0
  -43.0806  -28.7859    6.0810 H   0  0  0  0  0  0  0  0  0  0  0  0
  -43.2233  -30.5114    5.7081 H   0  0  0  0  0  0  0  0  0  0  0  0
  -43.7189  -28.1432    3.8220 H   0  0  0  0  0  0  0  0  0  0  0  0
  -42.5076  -29.4153    3.6665 H   0  0  0  0  0  0  0  0  0  0  0  0
  -49.0849  -30.6739    5.3801 H   0  0  0  0  0  0  0  0  0  0  0  0
  -48.9058  -29.2224    4.3952 H   0  0  0  0  0  0  0  0  0  0  0  0
  -49.3112  -29.0713    6.1229 H   0  0  0  0  0  0  0  0  0  0  0  0
  -45.1354  -32.6568   -0.5010 H   0  0  0  0  0  0  0  0  0  0  0  0
  -43.7866  -31.5225   -0.4565 H   0  0  0  0  0  0  0  0  0  0  0  0
  -43.7630  -32.9411    0.5900 H   0  0  0  0  0  0  0  0  0  0  0  0
  -46.7315  -32.8139    1.6067 H   0  0  0  0  0  0  0  0  0  0  0  0
  -46.4110  -31.7637    2.9836 H   0  0  0  0  0  0  0  0  0  0  0  0
  -45.2942  -33.0801    2.6122 H   0  0  0  0  0  0  0  0  0  0  0  0
  -46.3998  -30.5252   -0.2991 H   0  0  0  0  0  0  0  0  0  0  0  0
  -47.4033  -29.4179    7.8753 H   0  0  0  0  0  0  0  0  0  0  0  0
  1  2  1  0  0  0  0
  1  3  2  0  0  0  0
  2  4  2  0  0  0  0
  3  5  1  0  0  0  0
  4  7  1  0  0  0  0
  5  7  2  0  0  0  0
  6  8  1  0  0  0  0
  6  9  2  0  0  0  0
  6 11  1  0  0  0  0
  7 17  1  0  0  0  0
  8 12  1  0  0  0  0
  8 19  2  0  0  0  0
  9 14  1  0  0  0  0
  9 20  1  0  0  0  0
 10 18  1  0  0  0  0
 10 21  1  0  0  0  0
 10 22  2  0  0  0  0
 11 21  1  0  0  0  0
 12 13  1  0  0  0  0
 13 21  1  0  0  0  0
 15 18  1  0  0  0  0
 16 18  1  0  0  0  0
 17 18  1  0  0  0  0
 17 23  1  0  0  0  0
 19 20  1  0  0  0  0
  1 24  1  0  0  0  0
  2 25  1  0  0  0  0
  3 26  1  0  0  0  0
  4 27  1  0  0  0  0
  5 28  1  0  0  0  0
 11 29  1  0  0  0  0
 11 30  1  0  0  0  0
 12 31  1  0  0  0  0
 12 32  1  0  0  0  0
 13 33  1  0  0  0  0
 13 34  1  0  0  0  0
 14 35  1  0  0  0  0
 14 36  1  0  0  0  0
 14 37  1  0  0  0  0
 15 38  1  0  0  0  0
 15 39  1  0  0  0  0
 15 40  1  0  0  0  0
 16 41  1  0  0  0  0
 16 42  1  0  0  0  0
 16 43  1  0  0  0  0
 17 44  1  0  0  0  0
 20 45  1  0  0  0  0
M  END
> <POSIT::Probability>
0.18

> <POSIT::Method>
HYBRID

> <ReceptorTitle>
UCSF-P4536-REFINED_LIGAND-BOUND-STATE_A__DU__LA1_A-201(A)

> <OMEGA_C>
GEAwwj1N08GgDk4+dbo1wjDA08HAmus+4Estwj673MEALcg9iEA4wlWg3cG4hB0/9NEvwmOb5sEQ
eoE+KYs4wibs7MHBHJ9AQ0w1wmUO58FIBgM/ME80wqEd7MEO6bxANhU9wtCj7MF9x7dAp0Ywwi/h
9cFyCghAp8w3wh3B7cHCUWBAC5ouwuIt7MHMHbBADR0uwiir6cFEHYBAo81CwpMa7cEJwaxAKqkx
wqSuAMIACCs+MLo3wjw/AcLGfQpARAg4wpPD8cHIFC4/Woc0wmXq+sE4Q6E/NwA2wupu68ESSuVA
gVw7wobD68E1IuFAJRIywhyj78G2f0xAD4UrwjB698E4ae4/H3Q8wnjn8MEgBL4/DkkuwiWdy8EA
0qQ9gQc4wrNozMEYVgo/9wcpwjJi3MFASdS9mIU8wmfl3cFwI1E/U3wtwivp7cFgkS0+eEw6wtoq
9MFovUZARe84wg4/5sFIBkFAklIswppJ5sHMl8JAqOQswlgX9MG+qLZAHuAuwl0l4cEGnHRAyQcq
wnFS68Hap2pA7VZEwj9k9cGtKaxAgJ9DwnvH6cF5pYxAsz5FwvaR6MHn7sNAq4o0wp2gAsKARAC/
fCUvwiUu/MGAuem+WQ0vwqzDA8KQCxc/De06wmNBA8KQqM0/0qQ5wg8c/sFQ8z5AOy01wghSBMKi
LSdAcJk5wpQz9MGAJ5m+75w9wuRX68G2AvxA

> <OMEGA_E>
0xEVwQ==

> <OMEGA_NBR>
     59815

$$$$
CACHE3HI_1706_54
  -OEChem-03092622543D

 48 50  0     1  0  0  0  0  0999 V2000
  -45.5204  -31.1481    0.6147 C   0  0  0  0  0  0  0  0  0  0  0  0
  -46.1076  -32.2578    0.0069 C   0  0  0  0  0  0  0  0  0  0  0  0
  -43.4064  -31.7044   -0.4143 C   0  0  0  0  0  0  0  0  0  0  0  0
  -46.4066  -29.3726    4.6232 C   0  0  0  0  0  0  0  0  0  0  0  0
  -44.1697  -30.8715    0.4041 C   0  0  0  0  0  0  0  0  0  0  0  0
  -45.3443  -33.0907   -0.8115 C   0  0  0  0  0  0  0  0  0  0  0  0
  -43.9935  -32.8141   -1.0221 C   0  0  0  0  0  0  0  0  0  0  0  0
  -45.1113  -29.8157    4.5187 C   0  0  0  0  0  0  0  0  0  0  0  0
  -46.5837  -29.0677    6.0002 C   0  0  0  0  0  0  0  0  0  0  0  0
  -44.3834  -30.2557    3.3736 C   0  0  0  0  0  0  0  0  0  0  0  0
  -47.4672  -29.2071    3.5988 C   0  0  0  0  0  0  0  0  0  0  0  0
  -48.8435  -29.1748    4.2810 C   0  0  0  0  0  0  0  0  0  0  0  0
  -48.8473  -28.2581    5.5141 C   0  0  0  0  0  0  0  0  0  0  0  0
  -45.9955  -34.2726   -1.4513 C   0  0  0  0  0  0  0  0  0  0  0  0
  -43.1564  -33.6913   -1.8940 C   0  0  0  0  0  0  0  0  0  0  0  0
  -43.5959  -28.3586    0.2257 C   0  0  0  0  0  0  0  0  0  0  0  0
  -42.0373  -29.9321    1.4122 C   0  0  0  0  0  0  0  0  0  0  0  0
  -43.5222  -29.6482    1.0742 C   0  0  2  0  0  0  0  0  0  0  0  0
  -45.4750  -29.3163    6.7066 N   0  0  0  0  0  0  0  0  0  0  0  0
  -44.6045  -29.7612    5.7832 N   0  0  0  0  0  0  0  0  0  0  0  0
  -47.7786  -28.6035    6.4475 N   0  0  0  0  0  0  0  0  0  0  0  0
  -44.2143  -29.3463    2.3065 N   0  0  0  0  0  0  0  0  0  0  0  0
  -43.9185  -31.4219    3.2968 O   0  0  0  0  0  0  0  0  0  0  0  0
  -41.5650  -29.0140    2.3941 O   0  0  0  0  0  0  0  0  0  0  0  0
  -46.1229  -30.5048    1.2506 H   0  0  0  0  0  0  0  0  0  0  0  0
  -47.1609  -32.4651    0.1771 H   0  0  0  0  0  0  0  0  0  0  0  0
  -42.3533  -31.4876   -0.5778 H   0  0  0  0  0  0  0  0  0  0  0  0
  -47.3015  -28.2668    3.0591 H   0  0  0  0  0  0  0  0  0  0  0  0
  -47.4380  -30.0207    2.8660 H   0  0  0  0  0  0  0  0  0  0  0  0
  -49.6041  -28.8435    3.5653 H   0  0  0  0  0  0  0  0  0  0  0  0
  -49.1214  -30.1905    4.5930 H   0  0  0  0  0  0  0  0  0  0  0  0
  -48.7231  -27.2145    5.2016 H   0  0  0  0  0  0  0  0  0  0  0  0
  -49.8119  -28.3333    6.0271 H   0  0  0  0  0  0  0  0  0  0  0  0
  -46.4126  -34.0133   -2.4324 H   0  0  0  0  0  0  0  0  0  0  0  0
  -46.8263  -34.6467   -0.8396 H   0  0  0  0  0  0  0  0  0  0  0  0
  -45.2678  -35.0817   -1.5841 H   0  0  0  0  0  0  0  0  0  0  0  0
  -42.6899  -34.4978   -1.3146 H   0  0  0  0  0  0  0  0  0  0  0  0
  -42.3432  -33.1234   -2.3633 H   0  0  0  0  0  0  0  0  0  0  0  0
  -43.7707  -34.1391   -2.6838 H   0  0  0  0  0  0  0  0  0  0  0  0
  -43.1245  -27.5095    0.7361 H   0  0  0  0  0  0  0  0  0  0  0  0
  -43.1028  -28.4795   -0.7452 H   0  0  0  0  0  0  0  0  0  0  0  0
  -44.6361  -28.0755    0.0210 H   0  0  0  0  0  0  0  0  0  0  0  0
  -41.4078  -29.8151    0.5219 H   0  0  0  0  0  0  0  0  0  0  0  0
  -41.8828  -30.9471    1.7938 H   0  0  0  0  0  0  0  0  0  0  0  0
  -43.6734  -30.0139    6.0901 H   0  0  0  0  0  0  0  0  0  0  0  0
  -47.9307  -28.3778    7.4263 H   0  0  0  0  0  0  0  0  0  0  0  0
  -44.6566  -28.4359    2.3765 H   0  0  0  0  0  0  0  0  0  0  0  0
  -40.6374  -29.2416    2.5617 H   0  0  0  0  0  0  0  0  0  0  0  0
  1  2  2  0  0  0  0
  1  5  1  0  0  0  0
  2  6  1  0  0  0  0
  3  5  2  0  0  0  0
  3  7  1  0  0  0  0
  4  8  2  0  0  0  0
  4  9  1  0  0  0  0
  4 11  1  0  0  0  0
  5 18  1  0  0  0  0
  6  7  2  0  0  0  0
  6 14  1  0  0  0  0
  7 15  1  0  0  0  0
  8 10  1  0  0  0  0
  8 20  1  0  0  0  0
  9 19  2  0  0  0  0
  9 21  1  0  0  0  0
 10 22  1  0  0  0  0
 10 23  2  0  0  0  0
 11 12  1  0  0  0  0
 12 13  1  0  0  0  0
 13 21  1  0  0  0  0
 16 18  1  0  0  0  0
 17 18  1  0  0  0  0
 17 24  1  0  0  0  0
 18 22  1  0  0  0  0
 19 20  1  0  0  0  0
  1 25  1  0  0  0  0
  2 26  1  0  0  0  0
  3 27  1  0  0  0  0
 11 28  1  0  0  0  0
 11 29  1  0  0  0  0
 12 30  1  0  0  0  0
 12 31  1  0  0  0  0
 13 32  1  0  0  0  0
 13 33  1  0  0  0  0
 14 34  1  0  0  0  0
 14 35  1  0  0  0  0
 14 36  1  0  0  0  0
 15 37  1  0  0  0  0
 15 38  1  0  0  0  0
 15 39  1  0  0  0  0
 16 40  1  0  0  0  0
 16 41  1  0  0  0  0
 16 42  1  0  0  0  0
 17 43  1  0  0  0  0
 17 44  1  0  0  0  0
 20 45  1  0  0  0  0
 21 46  1  0  0  0  0
 22 47  1  0  0  0  0
 24 48  1  0  0  0  0
M  END
> <POSIT::Probability>
0.25

> <POSIT::Method>
FRED

> <ReceptorTitle>
UCSF-P4536-REFINED_LIGAND-BOUND-STATE_A__DU__LA1_A-201(A)

> <OMEGA_C>
7hQ2wkkv+cGgXh0/Lm44wgIIAcIATOI7JKAtwpGi/cHQHdS+UaA5wh/76sEu8ZNAu60wwuz49sGA
6c4+mGA1wtVcBMIUv0+/WPkvwp9BA8I01IK//HE0wn6G7sFEmZBAtVU6wpuK6MFvAcBAj4gxwqYL
8sGm6VdAYt49wiOo6cEKUmZAtV9DwhJm6cG9/YhAmmNDwpAQ4sFHc7BAcfs3wicXCcJWw7m/KKAs
wuHDBsJebfK/OGIuwlTe4sEAF2c+OCYowuN078E0wrQ/sxYuwnov7cEMf4k/ceY1wuGH6sF6nNZA
Dmsywv4W7sHzD7lASB0/wvTT5MHwUc5AZ9swwijF6sH2nBNAlqwvwhpg+8Fa/lJAjUImwqkc6MEI
ORlA3n04wuMJ9MFgEqA/tqQ8wj7cAcKAXDU+wGkpwprm+8Ew7RO/ujQ9wmsi4sEHyUNAgsA9wm8q
8MH6azdAnWpGwpC/5sEqLmRAUnxEwj6G8cGl+ZJAaeRCwlq32cGkc6ZAYD9HwpKq4sHn3cBAg6Y5
wqUNCMI9rBvAG047wi6WCsKM8la/ORI1wp5TDMI0wsq/ecIqwsH9CcJURKi/bF8pwlx+BMLFQBfA
MRUvwniOCML/wyvAeH8swnET3MGcbjw/PmkswgXW48HExj6/Zosywqqa4MEA0as8kKElwmqF7sG4
mgU/Aognwq+T98HgmuU/lrEuwl8c8MHa4cJACrk/wskF48H4o+1AXKAywtB848H/FxhAqYwiwsTu
6cHH8iNA

> <OMEGA_E>
PZAqwQ==

> <OMEGA_NBR>
     61269

$$$$
CACHE3HI_1706_78
  -OEChem-03092622543D

 47 49  0     1  0  0  0  0  0999 V2000
  -48.8921  -29.5220    2.8260 C   0  0  0  0  0  0  0  0  0  0  0  0
  -49.5247  -29.3643    4.0572 C   0  0  0  0  0  0  0  0  0  0  0  0
  -47.4966  -29.5807    2.7392 C   0  0  0  0  0  0  0  0  0  0  0  0
  -48.7859  -29.2604    5.2388 C   0  0  0  0  0  0  0  0  0  0  0  0
  -46.7304  -29.4788    3.9176 C   0  0  0  0  0  0  0  0  0  0  0  0
  -45.3351  -29.4978    4.1972 C   0  0  0  0  0  0  0  0  0  0  0  0
  -47.3912  -29.3210    5.1376 C   0  0  0  0  0  0  0  0  0  0  0  0
  -45.1793  -29.3539    5.5565 C   0  0  0  0  0  0  0  0  0  0  0  0
  -43.5669  -30.5472    1.2255 C   0  0  0  0  0  0  0  0  0  0  0  0
  -44.2110  -29.6444    3.2273 C   0  0  0  0  0  0  0  0  0  0  0  0
  -43.6024  -32.8299    0.1891 C   0  0  0  0  0  0  0  0  0  0  0  0
  -43.8231  -31.3427   -0.0177 C   0  0  1  0  0  0  0  0  0  0  0  0
  -45.0050  -33.4227    0.2921 C   0  0  2  0  0  0  0  0  0  0  0  0
  -43.9663  -29.3039    6.3964 C   0  0  0  0  0  0  0  0  0  0  0  0
  -45.2299  -33.5403   -2.2082 C   0  0  0  0  0  0  0  0  0  0  0  0
  -46.7831  -34.8613   -0.7496 C   0  0  0  0  0  0  0  0  0  0  0  0
  -44.3717  -35.5227   -0.9353 C   0  0  0  0  0  0  0  0  0  0  0  0
  -45.3447  -34.3290   -0.8904 C   0  0  0  0  0  0  0  0  0  0  0  0
  -44.5015  -30.3860    2.1015 N   0  0  0  0  0  0  0  0  0  0  0  0
  -46.4250  -29.2478    6.1154 N   0  0  0  0  0  0  0  0  0  0  0  0
  -45.2396  -31.1983   -0.3444 N   0  0  0  0  0  0  0  0  0  0  0  0
  -45.8977  -32.2642    0.3669 N   0  0  0  0  0  0  0  0  0  0  0  0
  -43.1350  -29.1119    3.4854 O   0  0  0  0  0  0  0  0  0  0  0  0
  -49.4881  -29.6014    1.9207 H   0  0  0  0  0  0  0  0  0  0  0  0
  -50.6098  -29.3215    4.1009 H   0  0  0  0  0  0  0  0  0  0  0  0
  -47.0184  -29.7047    1.7720 H   0  0  0  0  0  0  0  0  0  0  0  0
  -49.2792  -29.1370    6.1971 H   0  0  0  0  0  0  0  0  0  0  0  0
  -42.5550  -30.1212    1.3381 H   0  0  0  0  0  0  0  0  0  0  0  0
  -43.0663  -33.2433   -0.6788 H   0  0  0  0  0  0  0  0  0  0  0  0
  -43.0132  -33.0672    1.0862 H   0  0  0  0  0  0  0  0  0  0  0  0
  -43.1975  -30.9502   -0.8153 H   0  0  0  0  0  0  0  0  0  0  0  0
  -45.0964  -34.0163    1.2185 H   0  0  0  0  0  0  0  0  0  0  0  0
  -43.5905  -28.2738    6.5204 H   0  0  0  0  0  0  0  0  0  0  0  0
  -43.1348  -29.8812    5.9565 H   0  0  0  0  0  0  0  0  0  0  0  0
  -44.1623  -29.7120    7.4015 H   0  0  0  0  0  0  0  0  0  0  0  0
  -45.4705  -34.1762   -3.0676 H   0  0  0  0  0  0  0  0  0  0  0  0
  -44.2111  -33.1604   -2.3504 H   0  0  0  0  0  0  0  0  0  0  0  0
  -45.9110  -32.6821   -2.2277 H   0  0  0  0  0  0  0  0  0  0  0  0
  -47.0426  -35.5137   -1.5906 H   0  0  0  0  0  0  0  0  0  0  0  0
  -46.8961  -35.4445    0.1715 H   0  0  0  0  0  0  0  0  0  0  0  0
  -47.5156  -34.0472   -0.7208 H   0  0  0  0  0  0  0  0  0  0  0  0
  -44.6020  -36.1830   -1.7784 H   0  0  0  0  0  0  0  0  0  0  0  0
  -44.4230  -36.1216   -0.0191 H   0  0  0  0  0  0  0  0  0  0  0  0
  -43.3372  -35.1802   -1.0524 H   0  0  0  0  0  0  0  0  0  0  0  0
  -46.6122  -29.1322    7.1021 H   0  0  0  0  0  0  0  0  0  0  0  0
  -45.5998  -30.3148    0.0253 H   0  0  0  0  0  0  0  0  0  0  0  0
  -46.7805  -32.4778   -0.1109 H   0  0  0  0  0  0  0  0  0  0  0  0
  1  2  1  0  0  0  0
  1  3  2  0  0  0  0
  2  4  2  0  0  0  0
  3  5  1  0  0  0  0
  4  7  1  0  0  0  0
  5  6  1  0  0  0  0
  5  7  2  0  0  0  0
  6  8  2  0  0  0  0
  6 10  1  0  0  0  0
  7 20  1  0  0  0  0
  8 14  1  0  0  0  0
  8 20  1  0  0  0  0
  9 12  1  0  0  0  0
  9 19  2  0  0  0  0
 10 19  1  0  0  0  0
 10 23  2  0  0  0  0
 11 12  1  0  0  0  0
 11 13  1  0  0  0  0
 12 21  1  0  0  0  0
 13 18  1  0  0  0  0
 13 22  1  0  0  0  0
 15 18  1  0  0  0  0
 16 18  1  0  0  0  0
 17 18  1  0  0  0  0
 21 22  1  0  0  0  0
  1 24  1  0  0  0  0
  2 25  1  0  0  0  0
  3 26  1  0  0  0  0
  4 27  1  0  0  0  0
  9 28  1  0  0  0  0
 11 29  1  0  0  0  0
 11 30  1  0  0  0  0
 12 31  1  0  0  0  0
 13 32  1  0  0  0  0
 14 33  1  0  0  0  0
 14 34  1  0  0  0  0
 14 35  1  0  0  0  0
 15 36  1  0  0  0  0
 15 37  1  0  0  0  0
 15 38  1  0  0  0  0
 16 39  1  0  0  0  0
 16 40  1  0  0  0  0
 16 41  1  0  0  0  0
 17 42  1  0  0  0  0
 17 43  1  0  0  0  0
 17 44  1  0  0  0  0
 20 45  1  0  0  0  0
 21 46  1  0  0  0  0
 22 47  1  0  0  0  0
M  END
> <POSIT::Probability>
0.23

> <POSIT::Method>
HYBRID

> <ReceptorTitle>
UCSF-P4536-REFINED_LIGAND-BOUND-STATE_A__DU__LA1_A-201(A)

> <OMEGA_C>
eZFDwgct7MEo3TRAQBlGwiTq6sGq1IFAhfw9wl2l7MEYTy9AvSRDwj8V6sHio6dA5+s6wn7U68FY
uXpAGFc1wnj768HST4ZAipA9wmeR6sEkZ6RAo7c0wrPU6sHszrFAf0Quwq9g9MGo3Jw/Gdgwwqwn
7cHMi05A2GguwsZRA8KApUE+1kovwsq9+sEAmJC8FwU0wtawBcJgi5U+f90vwnhu6sFQr8xAaes0
wlEpBsLIUw3A8iE7wvdxC8Kw4j+/lHwxwkkXDsKwbG+//GA1wvBQCcLA8WO/hAEywnYW88GkfgZA
J7M5wm776cG8scNAXfU0wh6W+cGgV7C+P5c3wn8OAcJA2rs+Q4oswh3l6MF8EF9A3PNFwr7P7MHI
2PU/enBKwmCS6sHEOoNAyxI8wjqj7cHg0OI/4B1FwpwY6cH+TsZAXDgqwjP48MEIR6s/3UMswhz5
BMIwwy2/kA0swsNEBMKICYs/ScoswgSa98FQuFC/wmI0wrcQCMKI95s/sFwuwtMw4sHGptBAEYos
wqgM78EEnL5AKqYwwiKy7cFM2exA1uE1wne0CMK4U0TALNgwwkqkBMKEbBbA2qQ3wm+6AsJQkw7A
rCs8wgMODsIYmcu/lpU7wjXHDcJAli8+9A8+wl0wCMIgiDi/cGgywl67EMJ4oeO/NLExwod8EMIA
0Jy8Qlktwoa4DMKAtoa/6nI6wrQO6cFXRONAJWY2wqeE8sEABM88Ph87wkvpAcIAG+O9

> <OMEGA_E>
rcYTwQ==

> <OMEGA_NBR>
     62711

$$$$
CACHE3HI_1708_63
  -OEChem-03092622543D

 35 36  0     0  0  0  0  0  0999 V2000
  -48.6634  -29.6594    2.8832 C   0  0  0  0  0  0  0  0  0  0  0  0
  -48.2012  -30.2952    1.7309 C   0  0  0  0  0  0  0  0  0  0  0  0
  -45.9705  -30.3548    2.6573 C   0  0  0  0  0  0  0  0  0  0  0  0
  -45.7903  -29.3692    6.1626 C   0  0  0  0  0  0  0  0  0  0  0  0
  -47.7790  -29.3714    3.9226 C   0  0  0  0  0  0  0  0  0  0  0  0
  -46.4328  -29.7190    3.8095 C   0  0  0  0  0  0  0  0  0  0  0  0
  -46.8550  -30.6428    1.6178 C   0  0  0  0  0  0  0  0  0  0  0  0
  -44.7917  -32.4434   -0.9169 C   0  0  0  0  0  0  0  0  0  0  0  0
  -48.3068  -28.6920    5.1450 C   0  0  0  0  0  0  0  0  0  0  0  0
  -44.9471  -34.9160   -1.2734 C   0  0  0  0  0  0  0  0  0  0  0  0
  -45.6327  -33.9606    0.8927 C   0  0  0  0  0  0  0  0  0  0  0  0
  -45.0188  -31.3070    0.0649 C   0  0  0  0  0  0  0  0  0  0  0  0
  -44.6701  -29.0813    6.7844 N   0  0  0  0  0  0  0  0  0  0  0  0
  -43.7148  -28.9755    5.7979 N   0  0  0  0  0  0  0  0  0  0  0  0
  -44.2412  -29.1946    4.5992 N   0  0  0  0  0  0  0  0  0  0  0  0
  -45.5384  -29.4403    4.8296 N   0  0  0  0  0  0  0  0  0  0  0  0
  -46.3952  -31.2754    0.4682 N   0  0  0  0  0  0  0  0  0  0  0  0
  -45.1111  -33.7242   -0.4516 N   0  0  0  0  0  0  0  0  0  0  0  0
  -44.3503  -32.2218   -2.0478 O   0  0  0  0  0  0  0  0  0  0  0  0
  -49.7144  -29.3936    2.9624 H   0  0  0  0  0  0  0  0  0  0  0  0
  -48.8988  -30.5140    0.9265 H   0  0  0  0  0  0  0  0  0  0  0  0
  -44.9209  -30.6276    2.5657 H   0  0  0  0  0  0  0  0  0  0  0  0
  -46.7606  -29.5279    6.6113 H   0  0  0  0  0  0  0  0  0  0  0  0
  -48.6445  -29.4232    5.8893 H   0  0  0  0  0  0  0  0  0  0  0  0
  -49.1691  -28.0586    4.9035 H   0  0  0  0  0  0  0  0  0  0  0  0
  -47.5283  -28.0667    5.5964 H   0  0  0  0  0  0  0  0  0  0  0  0
  -43.9484  -35.3413   -1.1391 H   0  0  0  0  0  0  0  0  0  0  0  0
  -45.6896  -35.6701   -0.9977 H   0  0  0  0  0  0  0  0  0  0  0  0
  -45.0840  -34.6681   -2.3296 H   0  0  0  0  0  0  0  0  0  0  0  0
  -46.7254  -33.9122    0.8953 H   0  0  0  0  0  0  0  0  0  0  0  0
  -45.3243  -34.9474    1.2495 H   0  0  0  0  0  0  0  0  0  0  0  0
  -45.2463  -33.2079    1.5854 H   0  0  0  0  0  0  0  0  0  0  0  0
  -44.4145  -31.4539    0.9636 H   0  0  0  0  0  0  0  0  0  0  0  0
  -44.7904  -30.3477   -0.4056 H   0  0  0  0  0  0  0  0  0  0  0  0
  -47.0852  -31.7419   -0.1177 H   0  0  0  0  0  0  0  0  0  0  0  0
  1  2  2  0  0  0  0
  1  5  1  0  0  0  0
  2  7  1  0  0  0  0
  3  6  1  0  0  0  0
  3  7  2  0  0  0  0
  4 13  2  0  0  0  0
  4 16  1  0  0  0  0
  5  6  2  0  0  0  0
  5  9  1  0  0  0  0
  6 16  1  0  0  0  0
  7 17  1  0  0  0  0
  8 12  1  0  0  0  0
  8 18  1  0  0  0  0
  8 19  2  0  0  0  0
 10 18  1  0  0  0  0
 11 18  1  0  0  0  0
 12 17  1  0  0  0  0
 13 14  1  0  0  0  0
 14 15  2  0  0  0  0
 15 16  1  0  0  0  0
  1 20  1  0  0  0  0
  2 21  1  0  0  0  0
  3 22  1  0  0  0  0
  4 23  1  0  0  0  0
  9 24  1  0  0  0  0
  9 25  1  0  0  0  0
  9 26  1  0  0  0  0
 10 27  1  0  0  0  0
 10 28  1  0  0  0  0
 10 29  1  0  0  0  0
 11 30  1  0  0  0  0
 11 31  1  0  0  0  0
 11 32  1  0  0  0  0
 12 33  1  0  0  0  0
 12 34  1  0  0  0  0
 17 35  1  0  0  0  0
M  END
> <POSIT::Probability>
0.19

> <POSIT::Method>
FRED

> <ReceptorTitle>
UCSF-P4536-REFINED_LIGAND-BOUND-STATE_A__DU__LA1_A-201(A)

> <OMEGA_C>
XKdCwm9G7cH0hThAEM5AwpZc8sFAjd0/1uE3wp7W8sGQECpASik3whH06sFqNMVAuR0/wrb46sFs
C3tAJ7s5wn7A7cH8znNAfWs7wmEk9cFYFM8/tSozwgXGAcKgu2q/KjpBwjGJ5cG+o6RA3Mkzwvip
C8Jg/qK/2Yc2wrLXB8Kgh2Q/SxM0wqp0+sGA+IQ9Jq4ywpSm6MG1GdlA9NsuwujN58HCiLlABvcw
wnyO6cFtLJNAXSc2wqWF68FQjJpAu5Q5wvYz+sHgt+8+yHE0wojlBsJgPee+wmYxwhTjAMKcDgPA
f9tGwgIm68Fklz1AVphDwrgc9MGgLW0/A68zwlkF9cGoMyRA0go7wjo57MESkNNA8ZNCwp1i68Fb
dbxAIa1EwvZ34MGk6ZxA+xw+wqCI4MFmFbNAIssvwnhdDcKYzZG/MMI2wjWuDsLAan+/AVY0wiys
CsJkGBXA0OY6whSmB8LwMWU/GEw1wh/KC8Jo7p8/L/w0wufUBMJQ78o/dqgxwoKh+8Hwq3Y/Wykz
wgnI8sGAqs++O1c8wnbv/cGAFfG9

> <OMEGA_E>
YVnzwA==

> <OMEGA_NBR>
     63897

$$$$
CACHE3HI_1717_20
  -OEChem-03092622543D

 40 41  0     1  0  0  0  0  0999 V2000
  -47.2680  -29.2164    4.1578 C   0  0  0  0  0  0  0  0  0  0  0  0
  -43.8242  -29.4991    6.4599 C   0  0  0  0  0  0  0  0  0  0  0  0
  -45.9193  -29.2961    4.7407 C   0  0  0  0  0  0  0  0  0  0  0  0
  -46.1109  -29.2831    6.1224 C   0  0  0  0  0  0  0  0  0  0  0  0
  -44.5957  -29.4000    4.2321 C   0  0  0  0  0  0  0  0  0  0  0  0
  -43.5538  -31.6499    2.1480 C   0  0  0  0  0  0  0  0  0  0  0  0
  -45.3826  -32.6092   -1.7352 C   0  0  0  0  0  0  0  0  0  0  0  0
  -45.5446  -27.4292   -0.2643 C   0  0  0  0  0  0  0  0  0  0  0  0
  -43.1198  -30.2014    2.3699 C   0  0  0  0  0  0  0  0  0  0  0  0
  -45.7800  -33.2686   -0.3976 C   0  0  0  0  0  0  0  0  0  0  0  0
  -44.5416  -28.2015    0.6073 C   0  0  0  0  0  0  0  0  0  0  0  0
  -44.5878  -33.3413    0.5798 C   0  0  0  0  0  0  0  0  0  0  0  0
  -45.2440  -28.7940    1.8506 C   0  0  0  0  0  0  0  0  0  0  0  0
  -48.1380  -29.1320    5.1395 N   0  0  0  0  0  0  0  0  0  0  0  0
  -45.0713  -29.3777    6.9721 N   0  0  0  0  0  0  0  0  0  0  0  0
  -43.5756  -29.5137    5.1246 N   0  0  0  0  0  0  0  0  0  0  0  0
  -47.4720  -29.1651    6.3367 N   0  0  0  0  0  0  0  0  0  0  0  0
  -44.1385  -31.9861    0.9325 N   0  0  0  0  0  0  0  0  0  0  0  0
  -44.2825  -29.3764    2.8509 N   0  0  3  0  0  0  0  0  0  0  0  0
  -43.4673  -32.4573    3.0677 O   0  0  0  0  0  0  0  0  0  0  0  0
  -47.5029  -29.2256    3.1037 H   0  0  0  0  0  0  0  0  0  0  0  0
  -42.9915  -29.5882    7.1419 H   0  0  0  0  0  0  0  0  0  0  0  0
  -46.2565  -32.5763   -2.4023 H   0  0  0  0  0  0  0  0  0  0  0  0
  -45.0259  -31.5857   -1.5475 H   0  0  0  0  0  0  0  0  0  0  0  0
  -44.5816  -33.1956   -2.2091 H   0  0  0  0  0  0  0  0  0  0  0  0
  -45.0264  -27.0162   -1.1422 H   0  0  0  0  0  0  0  0  0  0  0  0
  -46.3421  -28.1103   -0.5962 H   0  0  0  0  0  0  0  0  0  0  0  0
  -45.9837  -26.6085    0.3219 H   0  0  0  0  0  0  0  0  0  0  0  0
  -42.3187  -30.1738    3.1232 H   0  0  0  0  0  0  0  0  0  0  0  0
  -42.7466  -29.7851    1.4225 H   0  0  0  0  0  0  0  0  0  0  0  0
  -46.5849  -32.6788    0.0652 H   0  0  0  0  0  0  0  0  0  0  0  0
  -46.1407  -34.2886   -0.5964 H   0  0  0  0  0  0  0  0  0  0  0  0
  -44.1032  -29.0189    0.0159 H   0  0  0  0  0  0  0  0  0  0  0  0
  -43.7448  -27.5171    0.9341 H   0  0  0  0  0  0  0  0  0  0  0  0
  -44.8979  -33.8706    1.4928 H   0  0  0  0  0  0  0  0  0  0  0  0
  -43.7597  -33.8864    0.1032 H   0  0  0  0  0  0  0  0  0  0  0  0
  -45.8188  -27.9950    2.3418 H   0  0  0  0  0  0  0  0  0  0  0  0
  -45.9292  -29.5885    1.5201 H   0  0  0  0  0  0  0  0  0  0  0  0
  -47.9072  -29.1116    7.2354 H   0  0  0  0  0  0  0  0  0  0  0  0
  -44.2613  -31.2607    0.2552 H   0  0  0  0  0  0  0  0  0  0  0  0
  1  3  1  0  0  0  0
  1 14  2  0  0  0  0
  2 15  2  0  0  0  0
  2 16  1  0  0  0  0
  3  4  2  0  0  0  0
  3  5  1  0  0  0  0
  4 15  1  0  0  0  0
  4 17  1  0  0  0  0
  5 16  2  0  0  0  0
  5 19  1  0  0  0  0
  6  9  1  0  0  0  0
  6 18  1  0  0  0  0
  6 20  2  0  0  0  0
  7 10  1  0  0  0  0
  8 11  1  0  0  0  0
  9 19  1  0  0  0  0
 10 12  1  0  0  0  0
 11 13  1  0  0  0  0
 12 18  1  0  0  0  0
 13 19  1  0  0  0  0
 14 17  1  0  0  0  0
  1 21  1  0  0  0  0
  2 22  1  0  0  0  0
  7 23  1  0  0  0  0
  7 24  1  0  0  0  0
  7 25  1  0  0  0  0
  8 26  1  0  0  0  0
  8 27  1  0  0  0  0
  8 28  1  0  0  0  0
  9 29  1  0  0  0  0
  9 30  1  0  0  0  0
 10 31  1  0  0  0  0
 10 32  1  0  0  0  0
 11 33  1  0  0  0  0
 11 34  1  0  0  0  0
 12 35  1  0  0  0  0
 12 36  1  0  0  0  0
 13 37  1  0  0  0  0
 13 38  1  0  0  0  0
 17 39  1  0  0  0  0
 18 40  1  0  0  0  0
M  END
> <POSIT::Probability>
0.5

> <POSIT::Method>
SHAPEFIT

> <ReceptorTitle>
UCSF-P4536-REFINED_LIGAND-BOUND-STATE_A__DU__LA1_A-201(A)

> <OMEGA_C>
cRI9wiW76cGWDIVA9ksvwjP+68Fkt85AXK03woJe6sHrs5dAmXE4wsRD6sHt6sNA9mEywiQz68Fk
bYdAIDcuwgEz/cH5eAlAvoc1wthvAsITGt6/sy02whhv28EWT4e+oHoswmKc8cHBqxdAvR43wgwT
BcJslsu+kioywp6c4cGqdhs/71kywnNdBcLYahQ/3fk0whZa5sFm4ew/U41Awl0O6cEFd6RADUk0
woYF68EjG99Ack0uwh8c7MGm/KNASeM9whJS6cGBxspA040wwpbj/8H6tW4/TiExwvAC68H0dTZA
fd4twkbUAcLnVERA+wI+wvvN6cG5okZAS/crwom07ME/iuRAtAY5whVOAsJJvxnAeho0wo+v/MGE
Fca/iVMywkHIBMJVYg3AAxs0wh8h2MFONJK/V145wtrh4MHioRi/V+83wkXe1MGU0aQ+XUYpwt5j
8cEd40dAivwqws9H7sHGFLY/+VY6whO3AsK6jYU9CJA4wownCcKVrBi/qmkwwqIm6MHmh4I8qvou
wg0j3MHrHm8/fZczwoV7B8IoE78/8gkvwqOLB8INZdM9c0Y3wtL138Gf4BVAerc3wk217MGcksI/
BaE/wofk6MGpiOdAkgsxwgMW+sGao4I+

> <OMEGA_E>
ZJhKPw==

> <OMEGA_NBR>
     65219

$$$$
CACHE3HI_1718_34
  -OEChem-03092622543D

 34 35  0     0  0  0  0  0  0999 V2000
  -47.1083  -28.9864    4.3886 C   0  0  0  0  0  0  0  0  0  0  0  0
  -48.4694  -30.6669    3.3112 C   0  0  0  0  0  0  0  0  0  0  0  0
  -48.0807  -28.8333    5.3769 C   0  0  0  0  0  0  0  0  0  0  0  0
  -49.4418  -30.5138    4.2994 C   0  0  0  0  0  0  0  0  0  0  0  0
  -47.3028  -29.9034    3.3558 C   0  0  0  0  0  0  0  0  0  0  0  0
  -49.2474  -29.5968    5.3323 C   0  0  0  0  0  0  0  0  0  0  0  0
  -42.9989  -30.9326    2.2310 C   0  0  0  0  0  0  0  0  0  0  0  0
  -46.3507  -30.9120    1.2558 C   0  0  0  0  0  0  0  0  0  0  0  0
  -51.4474  -30.1124    6.4487 C   0  0  0  0  0  0  0  0  0  0  0  0
  -42.2028  -29.1166    0.6499 C   0  0  0  0  0  0  0  0  0  0  0  0
  -45.1037  -30.7937    0.4061 C   0  0  0  0  0  0  0  0  0  0  0  0
  -42.8733  -31.1482    3.5203 N   0  0  0  0  0  0  0  0  0  0  0  0
  -42.1297  -30.0938    4.0020 N   0  0  0  0  0  0  0  0  0  0  0  0
  -41.8080  -29.2525    3.0269 N   0  0  0  0  0  0  0  0  0  0  0  0
  -42.3524  -29.7788    1.9211 N   0  0  0  0  0  0  0  0  0  0  0  0
  -51.8275  -30.2338    7.7780 N   0  0  0  0  0  0  0  0  0  0  0  0
  -46.3299  -30.0574    2.3677 N   0  0  0  0  0  0  0  0  0  0  0  0
  -50.2199  -29.4427    6.3207 N   0  0  0  0  0  0  0  0  0  0  0  0
  -47.2526  -31.6826    0.9360 O   0  0  0  0  0  0  0  0  0  0  0  0
  -52.1418  -30.5571    5.5388 O   0  0  0  0  0  0  0  0  0  0  0  0
  -43.8595  -31.9473    1.0333 S   0  0  0  0  0  0  0  0  0  0  0  0
  -46.2024  -28.3872    4.4340 H   0  0  0  0  0  0  0  0  0  0  0  0
  -48.6324  -31.3835    2.5103 H   0  0  0  0  0  0  0  0  0  0  0  0
  -47.9184  -28.1160    6.1774 H   0  0  0  0  0  0  0  0  0  0  0  0
  -50.3470  -31.1142    4.2548 H   0  0  0  0  0  0  0  0  0  0  0  0
  -43.0210  -28.4090    0.4788 H   0  0  0  0  0  0  0  0  0  0  0  0
  -42.1988  -29.8545   -0.1584 H   0  0  0  0  0  0  0  0  0  0  0  0
  -41.2687  -28.5465    0.6138 H   0  0  0  0  0  0  0  0  0  0  0  0
  -45.3069  -31.0072   -0.6470 H   0  0  0  0  0  0  0  0  0  0  0  0
  -44.7260  -29.7687    0.4761 H   0  0  0  0  0  0  0  0  0  0  0  0
  -51.2293  -29.8548    8.5045 H   0  0  0  0  0  0  0  0  0  0  0  0
  -52.6939  -30.6954    8.0353 H   0  0  0  0  0  0  0  0  0  0  0  0
  -45.4953  -29.4665    2.4586 H   0  0  0  0  0  0  0  0  0  0  0  0
  -50.0263  -28.7551    7.0558 H   0  0  0  0  0  0  0  0  0  0  0  0
  1  3  2  0  0  0  0
  1  5  1  0  0  0  0
  2  4  1  0  0  0  0
  2  5  2  0  0  0  0
  3  6  1  0  0  0  0
  4  6  2  0  0  0  0
  5 17  1  0  0  0  0
  6 18  1  0  0  0  0
  7 12  2  0  0  0  0
  7 15  1  0  0  0  0
  7 21  1  0  0  0  0
  8 11  1  0  0  0  0
  8 17  1  0  0  0  0
  8 19  2  0  0  0  0
  9 16  1  0  0  0  0
  9 18  1  0  0  0  0
  9 20  2  0  0  0  0
 10 15  1  0  0  0  0
 11 21  1  0  0  0  0
 12 13  1  0  0  0  0
 13 14  2  0  0  0  0
 14 15  1  0  0  0  0
  1 22  1  0  0  0  0
  2 23  1  0  0  0  0
  3 24  1  0  0  0  0
  4 25  1  0  0  0  0
 10 26  1  0  0  0  0
 10 27  1  0  0  0  0
 10 28  1  0  0  0  0
 11 29  1  0  0  0  0
 11 30  1  0  0  0  0
 16 31  1  0  0  0  0
 16 32  1  0  0  0  0
 17 33  1  0  0  0  0
 18 34  1  0  0  0  0
M  END
> <POSIT::Probability>
0.24

> <POSIT::Method>
FRED

> <ReceptorTitle>
UCSF-P4536-REFINED_LIGAND-BOUND-STATE_A__DU__LA1_A-201(A)

> <OMEGA_C>
5G48wiLk58FHb4xAsuBBwslV9cFg6lNAoVJAwpmq5sFOD6xAa8RFwk8c9MHOlIlABjY9wjM678EH
xVZATf1Ewi/G7MH6oapA5v4rwg1298ELyQ5AJGc5wtNL98FPvaA/G8pNwkjm8MEoXM5Ars8owuHu
6MFmXyY/JGo0woRZ9sHt8M8+TX4rwmwv+cEGTGFAz4QowhDA8MGyEIBAXTsnwiYF6sGCuEFA1Wgp
wv067sFr5fU/UE9Pwtbe8cHH5fhA0lE5wo518MFKiBdAKuFIwpuK68HjQspAoAI9wv91/cGGmm8/
NpFQwut09MGhPbFALXAvwgqU/8HLQYQ/SM84wugY48GN441AmYdCwnIR+8EDqSBAeaw/wqDt4MEm
rcVATmNJwubp+MExJ4hAdBUswo9F48HNIfU+iMsowhjW7sG2MSK+MhMlwilf5MGWIR0/Rjo1wr8O
+MF+oyW/aucywlcm7sH9v/M+1OpMwq7W7sFuEghBhsZSwjyQ9cHFkABBPPs1wmC768FbWR1A6RpI
wmYK5sHJyOFA

> <OMEGA_E>
Ci0OwQ==

> <OMEGA_NBR>
     66385

$$$$
CACHE3HI_1718_83
  -OEChem-03092622543D

 44 45  0     0  0  0  0  0  0999 V2000
  -49.4195  -30.2549    2.9556 C   0  0  0  0  0  0  0  0  0  0  0  0
  -47.9168  -28.5921    3.8580 C   0  0  0  0  0  0  0  0  0  0  0  0
  -50.1649  -30.2199    4.1341 C   0  0  0  0  0  0  0  0  0  0  0  0
  -48.6621  -28.5571    5.0365 C   0  0  0  0  0  0  0  0  0  0  0  0
  -48.2954  -29.4408    2.8177 C   0  0  0  0  0  0  0  0  0  0  0  0
  -49.7863  -29.3713    5.1745 C   0  0  0  0  0  0  0  0  0  0  0  0
  -43.2525  -30.5991    1.7375 C   0  0  0  0  0  0  0  0  0  0  0  0
  -46.3800  -30.5045    1.5835 C   0  0  0  0  0  0  0  0  0  0  0  0
  -51.9057  -29.5719    6.5236 C   0  0  0  0  0  0  0  0  0  0  0  0
  -44.5085  -25.4052   -0.3781 C   0  0  0  0  0  0  0  0  0  0  0  0
  -47.4885  -29.4801    1.5461 C   0  0  0  0  0  0  0  0  0  0  0  0
  -44.2319  -30.9558    0.6983 C   0  0  0  0  0  0  0  0  0  0  0  0
  -43.3487  -26.3867   -0.4210 C   0  0  0  0  0  0  0  0  0  0  0  0
  -43.4860  -27.4631    0.6551 C   0  0  0  0  0  0  0  0  0  0  0  0
  -42.3379  -28.4714    0.5810 C   0  0  0  0  0  0  0  0  0  0  0  0
  -43.0031  -31.2325    2.8604 N   0  0  0  0  0  0  0  0  0  0  0  0
  -42.0111  -30.5076    3.4828 N   0  0  0  0  0  0  0  0  0  0  0  0
  -41.6623  -29.4540    2.7546 N   0  0  0  0  0  0  0  0  0  0  0  0
  -42.4396  -29.5132    1.6643 N   0  0  0  0  0  0  0  0  0  0  0  0
  -52.1823  -30.1002    7.7769 N   0  0  0  0  0  0  0  0  0  0  0  0
  -50.5320  -29.3362    6.3530 N   0  0  0  0  0  0  0  0  0  0  0  0
  -46.3915  -31.5392    2.2363 O   0  0  0  0  0  0  0  0  0  0  0  0
  -52.7963  -29.3586    5.7055 O   0  0  0  0  0  0  0  0  0  0  0  0
  -45.3631  -30.0860    0.7695 O   0  0  0  0  0  0  0  0  0  0  0  0
  -49.7217  -30.9193    2.1506 H   0  0  0  0  0  0  0  0  0  0  0  0
  -47.0419  -27.9546    3.7591 H   0  0  0  0  0  0  0  0  0  0  0  0
  -51.0393  -30.8587    4.2309 H   0  0  0  0  0  0  0  0  0  0  0  0
  -48.3574  -27.8920    5.8406 H   0  0  0  0  0  0  0  0  0  0  0  0
  -45.4653  -25.9208   -0.5132 H   0  0  0  0  0  0  0  0  0  0  0  0
  -44.4123  -24.6491   -1.1638 H   0  0  0  0  0  0  0  0  0  0  0  0
  -44.5348  -24.8900    0.5868 H   0  0  0  0  0  0  0  0  0  0  0  0
  -47.0463  -28.4927    1.3639 H   0  0  0  0  0  0  0  0  0  0  0  0
  -48.1507  -29.7085    0.7020 H   0  0  0  0  0  0  0  0  0  0  0  0
  -43.8083  -30.8775   -0.3199 H   0  0  0  0  0  0  0  0  0  0  0  0
  -44.5963  -31.9947    0.8061 H   0  0  0  0  0  0  0  0  0  0  0  0
  -42.4090  -25.8390   -0.2829 H   0  0  0  0  0  0  0  0  0  0  0  0
  -43.3099  -26.8539   -1.4117 H   0  0  0  0  0  0  0  0  0  0  0  0
  -43.5047  -26.9919    1.6461 H   0  0  0  0  0  0  0  0  0  0  0  0
  -44.4458  -27.9816    0.5354 H   0  0  0  0  0  0  0  0  0  0  0  0
  -42.3306  -28.9654   -0.3990 H   0  0  0  0  0  0  0  0  0  0  0  0
  -41.3737  -27.9531    0.6639 H   0  0  0  0  0  0  0  0  0  0  0  0
  -51.4219  -30.2639    8.4281 H   0  0  0  0  0  0  0  0  0  0  0  0
  -53.1326  -30.3255    8.0526 H   0  0  0  0  0  0  0  0  0  0  0  0
  -50.0240  -29.1112    7.2144 H   0  0  0  0  0  0  0  0  0  0  0  0
  1  3  2  0  0  0  0
  1  5  1  0  0  0  0
  2  4  1  0  0  0  0
  2  5  2  0  0  0  0
  3  6  1  0  0  0  0
  4  6  2  0  0  0  0
  5 11  1  0  0  0  0
  6 21  1  0  0  0  0
  7 12  1  0  0  0  0
  7 16  2  0  0  0  0
  7 19  1  0  0  0  0
  8 11  1  0  0  0  0
  8 22  2  0  0  0  0
  8 24  1  0  0  0  0
  9 20  1  0  0  0  0
  9 21  1  0  0  0  0
  9 23  2  0  0  0  0
 10 13  1  0  0  0  0
 12 24  1  0  0  0  0
 13 14  1  0  0  0  0
 14 15  1  0  0  0  0
 15 19  1  0  0  0  0
 16 17  1  0  0  0  0
 17 18  2  0  0  0  0
 18 19  1  0  0  0  0
  1 25  1  0  0  0  0
  2 26  1  0  0  0  0
  3 27  1  0  0  0  0
  4 28  1  0  0  0  0
 10 29  1  0  0  0  0
 10 30  1  0  0  0  0
 10 31  1  0  0  0  0
 11 32  1  0  0  0  0
 11 33  1  0  0  0  0
 12 34  1  0  0  0  0
 12 35  1  0  0  0  0
 13 36  1  0  0  0  0
 13 37  1  0  0  0  0
 14 38  1  0  0  0  0
 14 39  1  0  0  0  0
 15 40  1  0  0  0  0
 15 41  1  0  0  0  0
 20 42  1  0  0  0  0
 20 43  1  0  0  0  0
 21 44  1  0  0  0  0
M  END
> <POSIT::Probability>
0.05

> <POSIT::Method>
FRED

> <ReceptorTitle>
UCSF-P4536-REFINED_LIGAND-BOUND-STATE_A__DU__LA1_A-201(A)

> <OMEGA_C>
lq1Fwh8K8sEcKT1Aw6o/wrC85MEa6nZA4qhIwm/C8cHGSoRAAqZCwvR05MEKK6FAhS5BwsGG68Gh
VDRAICVHwl746sGDlaVAnAItwvTK9MFyZd4/JoU5wkQJ9MEqsco/dp9PwlqT7ME5wdBAuwgywuI9
y8GYlMG+N/Q9wkrX68FZ58U/be0wwnyl98FqxjI/CGUtwtwX08EQh9e+s/Etwm2028EWtSc/BVop
wlnF48E2vBQ/KAMswhrc+cHOEDdAWAsowqcP9MEM5l5AMaYmwsih68GRSjBAIMIpwgob7MFiCdU/
prpQwkHN8MEC3PhAvyBKwpqw6sEOTMtA7ZA5wkhQ/ME7Hw9AcS9Twnne6sEsk7ZA3XM1wg+w8MG8
/UQ/DuNGwtRa98GfowlA7yo8wg6j38GclXBARChMwpze9sFQY4dA+G1BwsIi38FA5rpAdtw1wrZd
z8GkYAO/PKYxwmIxxcG295S/myMyws4ex8EgOhY/ci88wh3x48FKk64/TppAwgqr7cHouDM/szsv
wg8F98HwxaO+kGIywjT1/8HoXU4/xKIpwkS2zsGo3ZC+Sj0twrvU1sH6srS/0gQuwnTv18EmtNI/
isgxwlja38HcDAk/fFIpwjW558FAS8y+s34lwvef38Hi9Sk//a9Nwmcc8sF82QZB1YdUwqCa8sFB
1wBBmhhIwqfj6MG43OZA

> <OMEGA_E>
bScVwQ==

> <OMEGA_NBR>
     67751

$$$$
CACHE3-HO_1696_31
  -OEChem-03092622543D

 38 40  0     0  0  0  0  0  0999 V2000
  -45.4616  -33.5963   -2.9201 C   0  0  0  0  0  0  0  0  0  0  0  0
  -44.6672  -35.7402   -2.0544 C   0  0  0  0  0  0  0  0  0  0  0  0
  -45.5388  -34.1406   -4.2086 C   0  0  0  0  0  0  0  0  0  0  0  0
  -44.7539  -36.2857   -3.3470 C   0  0  0  0  0  0  0  0  0  0  0  0
  -47.9115  -29.4112    4.7384 C   0  0  0  0  0  0  0  0  0  0  0  0
  -48.6917  -28.9014    5.7475 C   0  0  0  0  0  0  0  0  0  0  0  0
  -44.3210  -29.6392    6.8065 C   0  0  0  0  0  0  0  0  0  0  0  0
  -46.5585  -29.5380    5.2751 C   0  0  0  0  0  0  0  0  0  0  0  0
  -45.0049  -34.3917   -1.8384 C   0  0  0  0  0  0  0  0  0  0  0  0
  -45.1831  -35.4824   -4.4230 C   0  0  0  0  0  0  0  0  0  0  0  0
  -46.5818  -29.0939    6.5939 C   0  0  0  0  0  0  0  0  0  0  0  0
  -45.3691  -30.0553    4.7551 C   0  0  0  0  0  0  0  0  0  0  0  0
  -44.9968  -31.8634    3.1722 C   0  0  0  0  0  0  0  0  0  0  0  0
  -45.3208  -32.3833    1.7996 C   0  0  0  0  0  0  0  0  0  0  0  0
  -44.1041  -32.1402    0.9040 C   0  0  0  0  0  0  0  0  0  0  0  0
  -44.4653  -32.4944   -0.5209 C   0  0  0  0  0  0  0  0  0  0  0  0
  -45.4633  -29.1398    7.3496 N   0  0  0  0  0  0  0  0  0  0  0  0
  -44.2597  -30.1050    5.5317 N   0  0  0  0  0  0  0  0  0  0  0  0
  -47.8841  -28.7024    6.8688 N   0  0  0  0  0  0  0  0  0  0  0  0
  -45.3930  -30.5726    3.4733 N   0  0  0  0  0  0  0  0  0  0  0  0
  -44.3698  -32.5686    3.9557 O   0  0  0  0  0  0  0  0  0  0  0  0
  -44.8512  -33.8836   -0.5740 O   0  0  0  0  0  0  0  0  0  0  0  0
  -45.2631  -35.9990   -5.6666 F   0  0  0  0  0  0  0  0  0  0  0  0
  -45.7502  -32.5695   -2.7503 H   0  0  0  0  0  0  0  0  0  0  0  0
  -44.3419  -36.3553   -1.2284 H   0  0  0  0  0  0  0  0  0  0  0  0
  -45.8710  -33.5300   -5.0352 H   0  0  0  0  0  0  0  0  0  0  0  0
  -44.4918  -37.3198   -3.5157 H   0  0  0  0  0  0  0  0  0  0  0  0
  -48.2355  -29.6685    3.7408 H   0  0  0  0  0  0  0  0  0  0  0  0
  -49.7490  -28.6905    5.6842 H   0  0  0  0  0  0  0  0  0  0  0  0
  -43.4274  -29.6665    7.4124 H   0  0  0  0  0  0  0  0  0  0  0  0
  -45.5383  -33.4604    1.8499 H   0  0  0  0  0  0  0  0  0  0  0  0
  -46.1945  -31.8513    1.3952 H   0  0  0  0  0  0  0  0  0  0  0  0
  -43.8115  -31.0812    0.9582 H   0  0  0  0  0  0  0  0  0  0  0  0
  -43.2668  -32.7696    1.2399 H   0  0  0  0  0  0  0  0  0  0  0  0
  -45.3029  -31.8655   -0.8566 H   0  0  0  0  0  0  0  0  0  0  0  0
  -43.5964  -32.3274   -1.1744 H   0  0  0  0  0  0  0  0  0  0  0  0
  -48.1985  -28.3318    7.7427 H   0  0  0  0  0  0  0  0  0  0  0  0
  -45.7118  -29.9861    2.7287 H   0  0  0  0  0  0  0  0  0  0  0  0
  1  3  1  0  0  0  0
  1  9  2  0  0  0  0
  2  4  2  0  0  0  0
  2  9  1  0  0  0  0
  3 10  2  0  0  0  0
  4 10  1  0  0  0  0
  5  6  2  0  0  0  0
  5  8  1  0  0  0  0
  6 19  1  0  0  0  0
  7 17  2  0  0  0  0
  7 18  1  0  0  0  0
  8 11  2  0  0  0  0
  8 12  1  0  0  0  0
  9 22  1  0  0  0  0
 10 23  1  0  0  0  0
 11 17  1  0  0  0  0
 11 19  1  0  0  0  0
 12 18  2  0  0  0  0
 12 20  1  0  0  0  0
 13 14  1  0  0  0  0
 13 20  1  0  0  0  0
 13 21  2  0  0  0  0
 14 15  1  0  0  0  0
 15 16  1  0  0  0  0
 16 22  1  0  0  0  0
  1 24  1  0  0  0  0
  2 25  1  0  0  0  0
  3 26  1  0  0  0  0
  4 27  1  0  0  0  0
  5 28  1  0  0  0  0
  6 29  1  0  0  0  0
  7 30  1  0  0  0  0
 14 31  1  0  0  0  0
 14 32  1  0  0  0  0
 15 33  1  0  0  0  0
 15 34  1  0  0  0  0
 16 35  1  0  0  0  0
 16 36  1  0  0  0  0
 19 37  1  0  0  0  0
 20 38  1  0  0  0  0
M  END
> <POSIT::Probability>
0.85

> <POSIT::Method>
SHAPEFIT

> <ReceptorTitle>
UCSF-P4537-REFINED_LIGAND-BOUND-STATE_A__DU__LA1_A-201(A)

> <OMEGA_C>
qtg1wppiBsL04jrAOKsywvb1DsLSegPAvic2wgKQCMIjrYbA+wMzwpckEcIsNVbAVqU/whdK68Gk
oJdAUsRCwvk158FG67dAvkgxwgMd7cEqz9lA7Ts6wulN7MHTzahA/wQ0whaRCcKlT+u/hrs0wvLt
DcLziI3AwlM6wmfA6MFYAdNA+Xk1wkJx8MGuKZhAsPwzwifo/sG2BUtAd0g1woaIAcKTWOY/lGow
wpGPAMKcaWc/btwxwk36AcJaVwW/eNo1wloe6cHUL+tA9wkxwgnX8MEIBLFAT4k/wpme5cEczdtA
c5I1wrKU9MH2Sl5ApXoxwjJGAsK4Kn1AlWczwsKIB8LK8RK/aw01wgb/D8LsVLXAPgA3wjNHAsJb
BDDAHV4xwtRrEcJLPJ2/83s3wsEeBsJDIKHAlvcxwnJHFcKeAWHAMvFAwitZ7cEwaW9ABf9GwhiG
5cFK5bVAq7Utwg9V7cFzMu1ANyc2wnrXBcIayew/MMc4wnDP/sHmlrI/AD8vwlGm+MHfTHU/NBEt
wg0UA8JOtJ4/MTY1woHs/sEGTVu/rmIuwkFPAcLoUpa/PstAwn6n4sFuxPdA2dg2wpfj78FGoy5A

> <OMEGA_E>
NEMkPw==

> <OMEGA_NBR>
      1281

$$$$
CACHE3-HO_1696_32
  -OEChem-03092622543D

 31 33  0     1  0  0  0  0  0999 V2000
  -47.9255  -29.4993    4.7643 C   0  0  0  0  0  0  0  0  0  0  0  0
  -48.7090  -28.9368    5.7449 C   0  0  0  0  0  0  0  0  0  0  0  0
  -44.3291  -29.5447    6.8319 C   0  0  0  0  0  0  0  0  0  0  0  0
  -46.5719  -29.6021    5.3072 C   0  0  0  0  0  0  0  0  0  0  0  0
  -46.6011  -29.0787    6.6018 C   0  0  0  0  0  0  0  0  0  0  0  0
  -45.3698  -30.1277    4.8067 C   0  0  0  0  0  0  0  0  0  0  0  0
  -44.7320  -31.8065    3.0913 C   0  0  0  0  0  0  0  0  0  0  0  0
  -46.1364  -32.8834   -1.2045 C   0  0  0  0  0  0  0  0  0  0  0  0
  -45.1163  -33.6311   -0.3364 C   0  0  2  0  0  0  0  0  0  0  0  0
  -46.1933  -34.4172   -1.1019 C   0  0  0  0  0  0  0  0  0  0  0  0
  -44.6451  -32.0842    1.5831 C   0  0  0  0  0  0  0  0  0  0  0  0
  -45.2015  -33.4676    1.1963 C   0  0  0  0  0  0  0  0  0  0  0  0
  -45.4812  -29.0465    7.3535 N   0  0  0  0  0  0  0  0  0  0  0  0
  -44.2585  -30.0930    5.5863 N   0  0  0  0  0  0  0  0  0  0  0  0
  -47.9053  -28.6791    6.8562 N   0  0  0  0  0  0  0  0  0  0  0  0
  -45.3343  -30.6170    3.4982 N   0  0  0  0  0  0  0  0  0  0  0  0
  -44.3408  -32.6447    3.8988 O   0  0  0  0  0  0  0  0  0  0  0  0
  -47.5738  -35.1444   -0.1979 Cl  0  0  0  0  0  0  0  0  0  0  0  0
  -45.6669  -35.3541   -2.5436 Cl  0  0  0  0  0  0  0  0  0  0  0  0
  -48.2486  -29.8064    3.7806 H   0  0  0  0  0  0  0  0  0  0  0  0
  -49.7662  -28.7300    5.6679 H   0  0  0  0  0  0  0  0  0  0  0  0
  -43.4310  -29.5043    7.4303 H   0  0  0  0  0  0  0  0  0  0  0  0
  -46.9179  -32.2713   -0.7306 H   0  0  0  0  0  0  0  0  0  0  0  0
  -45.8157  -32.4067   -2.1425 H   0  0  0  0  0  0  0  0  0  0  0  0
  -44.0985  -33.6964   -0.7487 H   0  0  0  0  0  0  0  0  0  0  0  0
  -45.2204  -31.3128    1.0502 H   0  0  0  0  0  0  0  0  0  0  0  0
  -43.5900  -32.0318    1.2765 H   0  0  0  0  0  0  0  0  0  0  0  0
  -46.2504  -33.5468    1.5182 H   0  0  0  0  0  0  0  0  0  0  0  0
  -44.6076  -34.2541    1.6850 H   0  0  0  0  0  0  0  0  0  0  0  0
  -48.2226  -28.2669    7.7102 H   0  0  0  0  0  0  0  0  0  0  0  0
  -45.7796  -30.0660    2.7924 H   0  0  0  0  0  0  0  0  0  0  0  0
  1  2  2  0  0  0  0
  1  4  1  0  0  0  0
  2 15  1  0  0  0  0
  3 13  1  0  0  0  0
  3 14  2  0  0  0  0
  4  5  1  0  0  0  0
  4  6  2  0  0  0  0
  5 13  2  0  0  0  0
  5 15  1  0  0  0  0
  6 14  1  0  0  0  0
  6 16  1  0  0  0  0
  7 11  1  0  0  0  0
  7 16  1  0  0  0  0
  7 17  2  0  0  0  0
  8  9  1  0  0  0  0
  8 10  1  0  0  0  0
  9 10  1  0  0  0  0
  9 12  1  0  0  0  0
 10 18  1  0  0  0  0
 10 19  1  0  0  0  0
 11 12  1  0  0  0  0
  1 20  1  0  0  0  0
  2 21  1  0  0  0  0
  3 22  1  0  0  0  0
  8 23  1  0  0  0  0
  8 24  1  0  0  0  0
  9 25  1  0  0  0  0
 11 26  1  0  0  0  0
 11 27  1  0  0  0  0
 12 28  1  0  0  0  0
 12 29  1  0  0  0  0
 15 30  1  0  0  0  0
 16 31  1  0  0  0  0
M  END
> <POSIT::Probability>
0.72

> <POSIT::Method>
SHAPEFIT

> <ReceptorTitle>
UCSF-P4537-REFINED_LIGAND-BOUND-STATE_A__DU__LA1_A-201(A)

> <OMEGA_C>
tbM/wnf+68HydJhADtZCwql+58Ex1rdACVExwodb7MHhntpAq0k6wgrR7MGB1KlAi2c6wjWh6MHM
QdNAsXo1wpwF8cEq0JlAhu0ywp9z/sHS10VAsos4wqSIA8KWLZq/DXc0wjqGBsKIQqy+/MU4wjKr
CcISC42/kJQywjdWAMKIoco/Vs40wt/eBcJdIZk/tew1wjNf6MEDUOtAwQgxwn6+8MHywrJACp8/
wrhu5cGVZdtASlY1wpHv9MHQ4V9A+FwxwjOUAsJshXlAnks+wuiTDMKUokq+5Ko2wp1qDcLIySLA
lP5AwoFz7sEI9XFAoxBHwgPX5cHNX7VAW7ktwr0I7MFfxe1A5as7wswVAcJdBzu/PEM3wmugAcKK
HgnA4mQwwibJBsLUqD+/tuE0wpyA+sEObYY/HFwuwpkgAMJAZaM/YAA5wuwvBsIoVcI/OW4ywjcE
CcLyrdc/9eNAwqEi4sEvuvZARB43whGH8MHBtjJA

> <OMEGA_E>
CpMlPw==

> <OMEGA_NBR>
      2425

$$$$
CACHE3-HO_1696_36
  -OEChem-03092622543D

 46 48  0     1  0  0  0  0  0999 V2000
  -47.8857  -29.4707    4.7154 C   0  0  0  0  0  0  0  0  0  0  0  0
  -48.6900  -28.9614    5.7057 C   0  0  0  0  0  0  0  0  0  0  0  0
  -44.3190  -29.5807    6.8304 C   0  0  0  0  0  0  0  0  0  0  0  0
  -46.5391  -29.5608    5.2716 C   0  0  0  0  0  0  0  0  0  0  0  0
  -46.5952  -29.1236    6.5928 C   0  0  0  0  0  0  0  0  0  0  0  0
  -45.3190  -30.0028    4.7534 C   0  0  0  0  0  0  0  0  0  0  0  0
  -45.4514  -33.9216   -2.0821 C   0  0  0  0  0  0  0  0  0  0  0  0
  -45.8470  -32.8401    1.4964 C   0  0  0  0  0  0  0  0  0  0  0  0
  -43.4578  -32.5324    0.8411 C   0  0  0  0  0  0  0  0  0  0  0  0
  -46.2805  -33.0107    0.0521 C   0  0  0  0  0  0  0  0  0  0  0  0
  -43.8134  -32.7314   -0.6420 C   0  0  0  0  0  0  0  0  0  0  0  0
  -44.6425  -31.8734    1.5682 C   0  0  0  0  0  0  0  0  0  0  0  0
  -44.1289  -36.4107   -2.6945 C   0  0  0  0  0  0  0  0  0  0  0  0
  -44.3051  -32.7498    3.9662 C   0  0  0  0  0  0  0  0  0  0  0  0
  -44.4018  -35.2733   -3.7056 C   0  0  0  0  0  0  0  0  0  0  0  0
  -44.2925  -31.5096    3.0291 C   0  0  2  0  0  0  0  0  0  0  0  0
  -45.4877  -29.1392    7.3655 N   0  0  0  0  0  0  0  0  0  0  0  0
  -44.2153  -29.9936    5.5402 N   0  0  0  0  0  0  0  0  0  0  0  0
  -47.9072  -28.7484    6.8419 N   0  0  0  0  0  0  0  0  0  0  0  0
  -45.1493  -33.3663   -0.8370 N   0  0  0  0  0  0  0  0  0  0  0  0
  -45.2993  -30.5224    3.4698 N   0  0  0  0  0  0  0  0  0  0  0  0
  -46.6002  -34.2817   -2.3282 O   0  0  0  0  0  0  0  0  0  0  0  0
  -44.4630  -34.0070   -3.0168 O   0  0  0  0  0  0  0  0  0  0  0  0
  -48.1908  -29.7506    3.7179 H   0  0  0  0  0  0  0  0  0  0  0  0
  -49.7476  -28.7601    5.6200 H   0  0  0  0  0  0  0  0  0  0  0  0
  -43.4384  -29.6042    7.4552 H   0  0  0  0  0  0  0  0  0  0  0  0
  -46.6818  -32.4283    2.0825 H   0  0  0  0  0  0  0  0  0  0  0  0
  -45.5565  -33.8176    1.9089 H   0  0  0  0  0  0  0  0  0  0  0  0
  -43.2424  -33.5083    1.3007 H   0  0  0  0  0  0  0  0  0  0  0  0
  -42.5719  -31.8854    0.9222 H   0  0  0  0  0  0  0  0  0  0  0  0
  -47.0349  -33.8097    0.0014 H   0  0  0  0  0  0  0  0  0  0  0  0
  -46.7225  -32.0664   -0.2983 H   0  0  0  0  0  0  0  0  0  0  0  0
  -43.8155  -31.7493   -1.1375 H   0  0  0  0  0  0  0  0  0  0  0  0
  -43.0486  -33.3733   -1.1036 H   0  0  0  0  0  0  0  0  0  0  0  0
  -44.9079  -30.9488    1.0347 H   0  0  0  0  0  0  0  0  0  0  0  0
  -44.0837  -37.3723   -3.2268 H   0  0  0  0  0  0  0  0  0  0  0  0
  -43.1706  -36.2275   -2.1866 H   0  0  0  0  0  0  0  0  0  0  0  0
  -44.9383  -36.4415   -1.9502 H   0  0  0  0  0  0  0  0  0  0  0  0
  -44.0507  -32.4389    4.9902 H   0  0  0  0  0  0  0  0  0  0  0  0
  -45.3067  -33.2043    3.9593 H   0  0  0  0  0  0  0  0  0  0  0  0
  -43.5667  -33.4843    3.6121 H   0  0  0  0  0  0  0  0  0  0  0  0
  -43.5921  -35.2449   -4.4496 H   0  0  0  0  0  0  0  0  0  0  0  0
  -45.3598  -35.4589   -4.2132 H   0  0  0  0  0  0  0  0  0  0  0  0
  -43.2903  -31.0568    3.0535 H   0  0  0  0  0  0  0  0  0  0  0  0
  -48.2431  -28.3794    7.7085 H   0  0  0  0  0  0  0  0  0  0  0  0
  -46.1907  -30.9538    3.3309 H   0  0  0  0  0  0  0  0  0  0  0  0
  1  2  2  0  0  0  0
  1  4  1  0  0  0  0
  2 19  1  0  0  0  0
  3 17  2  0  0  0  0
  3 18  1  0  0  0  0
  4  5  2  0  0  0  0
  4  6  1  0  0  0  0
  5 17  1  0  0  0  0
  5 19  1  0  0  0  0
  6 18  2  0  0  0  0
  6 21  1  0  0  0  0
  7 20  1  0  0  0  0
  7 22  2  0  0  0  0
  7 23  1  0  0  0  0
  8 10  1  0  0  0  0
  8 12  1  0  0  0  0
  9 11  1  0  0  0  0
  9 12  1  0  0  0  0
 10 20  1  0  0  0  0
 11 20  1  0  0  0  0
 12 16  1  0  0  0  0
 13 15  1  0  0  0  0
 14 16  1  0  0  0  0
 15 23  1  0  0  0  0
 16 21  1  0  0  0  0
  1 24  1  0  0  0  0
  2 25  1  0  0  0  0
  3 26  1  0  0  0  0
  8 27  1  0  0  0  0
  8 28  1  0  0  0  0
  9 29  1  0  0  0  0
  9 30  1  0  0  0  0
 10 31  1  0  0  0  0
 10 32  1  0  0  0  0
 11 33  1  0  0  0  0
 11 34  1  0  0  0  0
 12 35  1  0  0  0  0
 13 36  1  0  0  0  0
 13 37  1  0  0  0  0
 13 38  1  0  0  0  0
 14 39  1  0  0  0  0
 14 40  1  0  0  0  0
 14 41  1  0  0  0  0
 15 42  1  0  0  0  0
 15 43  1  0  0  0  0
 16 44  1  0  0  0  0
 19 45  1  0  0  0  0
 21 46  1  0  0  0  0
M  END
> <POSIT::Probability>
0.75

> <POSIT::Method>
SHAPEFIT

> <ReceptorTitle>
UCSF-P4537-REFINED_LIGAND-BOUND-STATE_A__DU__LA1_A-201(A)

> <OMEGA_C>
84o/whjE68GU5JZAm8JCwvmw58EMlbZAqEYxwkul7MFwktpABCg6wm187MG4sKhAgGE6whb96MFS
+NJAokY1wrcF8MGlG5hASM41wsWvB8JcQQXAYGM3wkZcA8J7ir8/v9QtwjIhAsJcVFc/SB85wgEL
BMIAilU97kAvwujsAsKIWSS/9JEywrL8/sH2usg/CYQwwpOkEcIWcizAYTgxws//AsIP1n1Acpsx
wucXDcJAKG3Aiisxwp4T/MG73EFAcvM1wg4d6cHHsetAeNwwwvfy78FxSbFA7aA/wsb85cGa8NpA
7Zg0whh3BcJYSFa/dDI1wtct9MFsEF5AlmY6wmogCcIAARXAH9oxwh4HCMLEEkHAVMNAwjAB7sHk
8W1Alv1GwqQU5sHE1rNA5cAtwnPV7MGZkO5ANbo6wpW2AcIaSAVA1zk2wjNFB8JSVvQ/L/gswoUI
BsLSfaY/mkkqwk0V/8FBGGw/vCM8wis9B8LrObU64OM6wvtDAMJlwJi+HEMvwob+/cFxmZG/zDEs
wjx+BcKaQY2/t6Ezwg2X98EkcYQ/ulUwwjJ9FcIHhE7Aq64swvzoEMJ18AvA3sAzwh3EEcJyoPm/
7zMwwmvBAcLer59AGTo1wj7RBMKCZH1ASUQuwuHvBcItLGdASV4uwsv6DML4Yo7AfHA1wuvVDcLa
0obASyktwlR0+MEubUNA7PhAwv8I48Gkq/ZARsM4wk6h98H6LVVA

> <OMEGA_E>
cDUJPw==

> <OMEGA_NBR>
      3868

$$$$
CACHE3-HO_1696_37
  -OEChem-03092622543D

 42 45  0     0  0  0  0  0  0999 V2000
  -47.3544  -32.9200   -1.1884 C   0  0  0  0  0  0  0  0  0  0  0  0
  -47.9317  -33.2465    0.0565 C   0  0  0  0  0  0  0  0  0  0  0  0
  -46.0239  -32.4985   -1.2743 C   0  0  0  0  0  0  0  0  0  0  0  0
  -47.1911  -33.1586    1.2378 C   0  0  0  0  0  0  0  0  0  0  0  0
  -47.9901  -30.2035    4.7874 C   0  0  0  0  0  0  0  0  0  0  0  0
  -48.6457  -30.1179    5.9973 C   0  0  0  0  0  0  0  0  0  0  0  0
  -44.3366  -29.1480    6.1593 C   0  0  0  0  0  0  0  0  0  0  0  0
  -46.6314  -29.8645    5.0135 C   0  0  0  0  0  0  0  0  0  0  0  0
  -45.3120  -32.4192   -0.0946 C   0  0  0  0  0  0  0  0  0  0  0  0
  -45.8806  -32.7408    1.1288 C   0  0  0  0  0  0  0  0  0  0  0  0
  -46.5044  -29.5812    6.3678 C   0  0  0  0  0  0  0  0  0  0  0  0
  -45.4750  -29.7586    4.2418 C   0  0  0  0  0  0  0  0  0  0  0  0
  -43.9253  -32.0184    0.1408 C   0  0  0  0  0  0  0  0  0  0  0  0
  -44.8654  -32.5503    2.1643 C   0  0  0  0  0  0  0  0  0  0  0  0
  -42.6142  -30.7023    3.1951 C   0  0  0  0  0  0  0  0  0  0  0  0
  -43.1411  -29.3938    2.5938 C   0  0  0  0  0  0  0  0  0  0  0  0
  -42.4774  -31.8092    2.1530 C   0  0  0  0  0  0  0  0  0  0  0  0
  -44.5137  -29.5581    1.9484 C   0  0  0  0  0  0  0  0  0  0  0  0
  -45.3812  -29.2154    7.0097 N   0  0  0  0  0  0  0  0  0  0  0  0
  -44.3127  -29.3939    4.8301 N   0  0  0  0  0  0  0  0  0  0  0  0
  -47.7342  -29.7396    6.9495 N   0  0  0  0  0  0  0  0  0  0  0  0
  -43.7346  -32.1207    1.5023 N   0  0  0  0  0  0  0  0  0  0  0  0
  -45.5054  -30.0223    2.8780 N   0  0  0  0  0  0  0  0  0  0  0  0
  -43.1541  -31.6756   -0.7359 O   0  0  0  0  0  0  0  0  0  0  0  0
  -45.0559  -32.7516    3.3493 O   0  0  0  0  0  0  0  0  0  0  0  0
  -47.9537  -32.9981   -2.0918 H   0  0  0  0  0  0  0  0  0  0  0  0
  -48.9683  -33.5711    0.0944 H   0  0  0  0  0  0  0  0  0  0  0  0
  -45.5793  -32.2479   -2.2303 H   0  0  0  0  0  0  0  0  0  0  0  0
  -47.6351  -33.4098    2.1938 H   0  0  0  0  0  0  0  0  0  0  0  0
  -48.4465  -30.4800    3.8470 H   0  0  0  0  0  0  0  0  0  0  0  0
  -49.6783  -30.2927    6.2650 H   0  0  0  0  0  0  0  0  0  0  0  0
  -43.3890  -28.8580    6.5997 H   0  0  0  0  0  0  0  0  0  0  0  0
  -43.3007  -31.0489    3.9767 H   0  0  0  0  0  0  0  0  0  0  0  0
  -41.6437  -30.5216    3.6737 H   0  0  0  0  0  0  0  0  0  0  0  0
  -43.2201  -28.6358    3.3814 H   0  0  0  0  0  0  0  0  0  0  0  0
  -42.4262  -29.0169    1.8525 H   0  0  0  0  0  0  0  0  0  0  0  0
  -41.7803  -31.5008    1.3670 H   0  0  0  0  0  0  0  0  0  0  0  0
  -42.0968  -32.7304    2.6054 H   0  0  0  0  0  0  0  0  0  0  0  0
  -44.4613  -30.2968    1.1421 H   0  0  0  0  0  0  0  0  0  0  0  0
  -44.8686  -28.6142    1.5220 H   0  0  0  0  0  0  0  0  0  0  0  0
  -47.9377  -29.6003    7.9296 H   0  0  0  0  0  0  0  0  0  0  0  0
  -46.2804  -30.5782    2.5234 H   0  0  0  0  0  0  0  0  0  0  0  0
  1  2  1  0  0  0  0
  1  3  2  0  0  0  0
  2  4  2  0  0  0  0
  3  9  1  0  0  0  0
  4 10  1  0  0  0  0
  5  6  2  0  0  0  0
  5  8  1  0  0  0  0
  6 21  1  0  0  0  0
  7 19  2  0  0  0  0
  7 20  1  0  0  0  0
  8 11  2  0  0  0  0
  8 12  1  0  0  0  0
  9 10  2  0  0  0  0
  9 13  1  0  0  0  0
 10 14  1  0  0  0  0
 11 19  1  0  0  0  0
 11 21  1  0  0  0  0
 12 20  2  0  0  0  0
 12 23  1  0  0  0  0
 13 22  1  0  0  0  0
 13 24  2  0  0  0  0
 14 22  1  0  0  0  0
 14 25  2  0  0  0  0
 15 16  1  0  0  0  0
 15 17  1  0  0  0  0
 16 18  1  0  0  0  0
 17 22  1  0  0  0  0
 18 23  1  0  0  0  0
  1 26  1  0  0  0  0
  2 27  1  0  0  0  0
  3 28  1  0  0  0  0
  4 29  1  0  0  0  0
  5 30  1  0  0  0  0
  6 31  1  0  0  0  0
  7 32  1  0  0  0  0
 15 33  1  0  0  0  0
 15 34  1  0  0  0  0
 16 35  1  0  0  0  0
 16 36  1  0  0  0  0
 17 37  1  0  0  0  0
 17 38  1  0  0  0  0
 18 39  1  0  0  0  0
 18 40  1  0  0  0  0
 21 41  1  0  0  0  0
 23 42  1  0  0  0  0
M  END
> <POSIT::Probability>
0.33

> <POSIT::Method>
HYBRID

> <ReceptorTitle>
UCSF-P4537-REFINED_LIGAND-BOUND-STATE_A__DU__LA1_A-201(A)

> <OMEGA_C>
52o9whGuA8KeHpi/Bro/wmv8BMLAQWc9gBg4wnz+AcJwHKO/qsM8wluiBMJxb54/0fU/wtGg8cHE
MplAKZVCwlzx8MHG6b9ApFgxwiQv6cEaGcVAmoY6wm7q7sHibqBAdj81wkutAcIgrsG9toU3wpL2
AsJlfZA/egQ6wjSm7MG2xMtAbuY1wpgR7sENvYdAirMvwuMSAMLILRA+MHYzwn4zAsJihApA7HQq
wj+e9cEbfExAgJAswmwm68H2ACZAz+gpwkp5/sHpyglAEg4ywu927MEAZvk/ZoY1wji56cHFT+BA
K0AxwrQm68EZkJpA1u8+wq3q7cFyYt5AMvAuwpN7AMK8SsA/hgU2wqEt8MHZMDhAyZ0swpZn/cHk
YTy/Ojk0wpsBA8KWW1ZAktA/whb+A8Ji4AXAk99DwttIBsJgPcE9OFE2wtP9AMKlvA7AW4o+wqqj
BcLxZwxALMlBwhjX88FxNXZAoLZGwoRX8sHYeshAUo4twi/d5sFtMNNA4DMtwj9k+MHTgX5AGpMm
wk8s9MFdHWtAV+EswgsW5cFUaVhAc7Qpwpgi6MFNIO0/Eh8nwpcB/MH++a4/J2MowvLrAsIbvyZA
XNgxwslf8sErMZI/bHkzwvDp5MHj0cI/NMA/wnjN7MFSv/1AJh85wg6g9MHqfyFA

> <OMEGA_E>
4NADwQ==

> <OMEGA_NBR>
      5207

$$$$
CACHE3-HO_1700_22
  -OEChem-03092622543D

 31 33  0     0  0  0  0  0  0999 V2000
  -43.8079  -32.3902   -0.1554 C   0  0  0  0  0  0  0  0  0  0  0  0
  -44.1252  -31.8416    1.1040 C   0  0  0  0  0  0  0  0  0  0  0  0
  -46.4240  -32.6357    0.8825 C   0  0  0  0  0  0  0  0  0  0  0  0
  -45.4172  -34.2773   -2.7933 C   0  0  0  0  0  0  0  0  0  0  0  0
  -46.6894  -34.5040   -2.2259 C   0  0  0  0  0  0  0  0  0  0  0  0
  -44.1632  -30.3426    6.0411 C   0  0  0  0  0  0  0  0  0  0  0  0
  -45.8323  -28.9706    6.8425 C   0  0  0  0  0  0  0  0  0  0  0  0
  -45.2066  -30.4315    5.1414 C   0  0  0  0  0  0  0  0  0  0  0  0
  -46.2764  -29.4840    5.6421 C   0  0  0  0  0  0  0  0  0  0  0  0
  -44.7906  -33.0720   -0.8990 C   0  0  0  0  0  0  0  0  0  0  0  0
  -46.0929  -33.2424   -0.3541 C   0  0  0  0  0  0  0  0  0  0  0  0
  -45.4464  -31.9178    1.6104 C   0  0  0  0  0  0  0  0  0  0  0  0
  -45.1121  -31.3869    3.9948 C   0  0  0  0  0  0  0  0  0  0  0  0
  -47.6047  -29.1068    5.1176 C   0  0  0  0  0  0  0  0  0  0  0  0
  -44.4831  -33.5728   -2.1182 N   0  0  0  0  0  0  0  0  0  0  0  0
  -47.0153  -33.9721   -1.0243 N   0  0  0  0  0  0  0  0  0  0  0  0
  -44.5811  -29.4883    7.0253 N   0  0  0  0  0  0  0  0  0  0  0  0
  -45.7951  -31.2218    2.7883 N   0  0  0  0  0  0  0  0  0  0  0  0
  -44.4313  -32.3971    4.1488 O   0  0  0  0  0  0  0  0  0  0  0  0
  -47.9372  -29.4189    3.9828 O   0  0  0  0  0  0  0  0  0  0  0  0
  -48.4398  -28.3900    5.9244 O   0  0  0  0  0  0  0  0  0  0  0  0
  -42.8083  -32.2872   -0.5512 H   0  0  0  0  0  0  0  0  0  0  0  0
  -43.3549  -31.3595    1.6876 H   0  0  0  0  0  0  0  0  0  0  0  0
  -47.4278  -32.7219    1.2715 H   0  0  0  0  0  0  0  0  0  0  0  0
  -45.1890  -34.6696   -3.7733 H   0  0  0  0  0  0  0  0  0  0  0  0
  -47.4108  -35.1083   -2.7560 H   0  0  0  0  0  0  0  0  0  0  0  0
  -43.2095  -30.8458    5.9804 H   0  0  0  0  0  0  0  0  0  0  0  0
  -46.3631  -28.2992    7.5012 H   0  0  0  0  0  0  0  0  0  0  0  0
  -44.0144  -29.2604    7.8171 H   0  0  0  0  0  0  0  0  0  0  0  0
  -46.5641  -30.5834    2.7571 H   0  0  0  0  0  0  0  0  0  0  0  0
  -49.2485  -28.2066    5.4609 H   0  0  0  0  0  0  0  0  0  0  0  0
  1  2  1  0  0  0  0
  1 10  2  0  0  0  0
  2 12  2  0  0  0  0
  3 11  2  0  0  0  0
  3 12  1  0  0  0  0
  4  5  1  0  0  0  0
  4 15  2  0  0  0  0
  5 16  2  0  0  0  0
  6  8  2  0  0  0  0
  6 17  1  0  0  0  0
  7  9  2  0  0  0  0
  7 17  1  0  0  0  0
  8  9  1  0  0  0  0
  8 13  1  0  0  0  0
  9 14  1  0  0  0  0
 10 11  1  0  0  0  0
 10 15  1  0  0  0  0
 11 16  1  0  0  0  0
 12 18  1  0  0  0  0
 13 18  1  0  0  0  0
 13 19  2  0  0  0  0
 14 20  2  0  0  0  0
 14 21  1  0  0  0  0
  1 22  1  0  0  0  0
  2 23  1  0  0  0  0
  3 24  1  0  0  0  0
  4 25  1  0  0  0  0
  5 26  1  0  0  0  0
  6 27  1  0  0  0  0
  7 28  1  0  0  0  0
 17 29  1  0  0  0  0
 18 30  1  0  0  0  0
 21 31  1  0  0  0  0
M  END
> <POSIT::Probability>
0.51

> <POSIT::Method>
SHAPEFIT

> <ReceptorTitle>
UCSF-P4537-REFINED_LIGAND-BOUND-STATE_A__DU__LA1_A-201(A)

> <OMEGA_C>
SDsvwoePAcLwKh++N4AwwrC7/sFcT40/K7I5wgGLAsJ27WE/K6s1wgEcCcKVxTLA/sE6wh4ECsLR
dQ7AFKcwwri98sFQUMFASFQ3wuLD58EG9tpAmdM0wqRz88EOhqRA/Ro5wiTf68F4jLRAmSkzwrpJ
BMIEJGa/JF84wjL4BMJoSbW+KMk1wpZX/8EsIs4/03I0wlYY+8Elqn9AMWs+wsza6MEiw6NAtu4x
wpFKBsKBkAfAtg88wnbjB8LEHYO/BFMywvbn68Fez+BAJy43wlbG+cGKczJArLkxwp2WAcJew4RA
sL8/wtZZ68G/5n5AUMJBwrIe48H0lL1AsjsrwhUmAcJrGQ2/c2stwi/g+sFUAtg/F7Y9wjPjAsLX
wKI/hcE0wrWtCsJOfnHAo6Q9wttuDMJ8YjDAgdYswkPE9sGRX79A03M5wrxk4sF/CfBAtw4wwmYV
6sHSJfpAoUE6wsKq9MGndDBAbf5Ewi6n4cGQv65A

> <OMEGA_E>
VPeBPw==

> <OMEGA_NBR>
      6346

$$$$
CACHE3HI_1687_77
  -OEChem-03092622543D

 27 29  0     0  0  0  0  0  0999 V2000
  -48.6543  -29.9842    2.7116 C   0  0  0  0  0  0  0  0  0  0  0  0
  -49.9834  -30.1180    3.1083 C   0  0  0  0  0  0  0  0  0  0  0  0
  -48.0061  -29.5290    5.0032 C   0  0  0  0  0  0  0  0  0  0  0  0
  -42.3284  -29.3224    2.0833 C   0  0  0  0  0  0  0  0  0  0  0  0
  -49.3365  -29.6615    5.4096 C   0  0  0  0  0  0  0  0  0  0  0  0
  -47.6685  -29.6901    3.6567 C   0  0  0  0  0  0  0  0  0  0  0  0
  -50.3060  -29.9545    4.4542 C   0  0  0  0  0  0  0  0  0  0  0  0
  -44.3414  -28.7701    2.0933 C   0  0  0  0  0  0  0  0  0  0  0  0
  -49.7438  -29.5043    6.7958 C   0  0  0  0  0  0  0  0  0  0  0  0
  -51.0274  -29.6392    7.1379 C   0  0  0  0  0  0  0  0  0  0  0  0
  -52.0722  -29.9492    6.1448 C   0  0  0  0  0  0  0  0  0  0  0  0
  -45.8026  -28.6446    2.3363 C   0  0  0  0  0  0  0  0  0  0  0  0
  -43.5302  -29.6395    2.6493 N   0  0  0  0  0  0  0  0  0  0  0  0
  -43.6444  -27.9761    1.2371 N   0  0  0  0  0  0  0  0  0  0  0  0
  -42.3456  -28.3115    1.2122 N   0  0  0  0  0  0  0  0  0  0  0  0
  -46.3388  -29.5574    3.2539 N   0  0  0  0  0  0  0  0  0  0  0  0
  -53.2467  -30.0704    6.4753 O   0  0  0  0  0  0  0  0  0  0  0  0
  -46.4141  -27.7843    1.7118 O   0  0  0  0  0  0  0  0  0  0  0  0
  -51.6595  -30.0955    4.8245 O   0  0  0  0  0  0  0  0  0  0  0  0
  -48.3955  -30.1101    1.6632 H   0  0  0  0  0  0  0  0  0  0  0  0
  -50.7508  -30.3468    2.3751 H   0  0  0  0  0  0  0  0  0  0  0  0
  -47.2313  -29.3005    5.7324 H   0  0  0  0  0  0  0  0  0  0  0  0
  -41.4189  -29.8569    2.3243 H   0  0  0  0  0  0  0  0  0  0  0  0
  -48.9919  -29.2764    7.5431 H   0  0  0  0  0  0  0  0  0  0  0  0
  -51.3390  -29.5234    8.1702 H   0  0  0  0  0  0  0  0  0  0  0  0
  -41.6608  -27.8347    0.6322 H   0  0  0  0  0  0  0  0  0  0  0  0
  -45.6717  -30.2087    3.6828 H   0  0  0  0  0  0  0  0  0  0  0  0
  1  2  1  0  0  0  0
  1  6  2  0  0  0  0
  2  7  2  0  0  0  0
  3  5  2  0  0  0  0
  3  6  1  0  0  0  0
  4 13  2  0  0  0  0
  4 15  1  0  0  0  0
  5  7  1  0  0  0  0
  5  9  1  0  0  0  0
  6 16  1  0  0  0  0
  7 19  1  0  0  0  0
  8 12  1  0  0  0  0
  8 13  1  0  0  0  0
  8 14  2  0  0  0  0
  9 10  2  0  0  0  0
 10 11  1  0  0  0  0
 11 17  2  0  0  0  0
 11 19  1  0  0  0  0
 12 16  1  0  0  0  0
 12 18  2  0  0  0  0
 14 15  1  0  0  0  0
  1 20  1  0  0  0  0
  2 21  1  0  0  0  0
  3 22  1  0  0  0  0
  4 23  1  0  0  0  0
  9 24  1  0  0  0  0
 10 25  1  0  0  0  0
 15 26  1  0  0  0  0
 16 27  1  0  0  0  0
M  END
> <POSIT::Probability>
0.01

> <POSIT::Method>
FRED

> <ReceptorTitle>
UCSF-P4537-REFINED_LIGAND-BOUND-STATE_A__DU__LA1_A-201(A)

> <OMEGA_C>
/51Cwqrf78HUii1A+u5HwrLx8MH07UZASAZAwlY77MFoGqBAQVApwjSU6sGMVAVAh1hFwrlK7cGx
G61Ahqw+wlaF7cHoB2pAYjlJwsei78GWiI5Ai10xwkAp5sHk9wVAm/lGwtoI7MHKdtlAFBxMwgEd
7cGZaeRA7ElQwv6X78HnocRA0zU3wi8o5cGghRVA4x4uwsYd7cFWjilA0pMuwiDP38HoWZ4/6mEp
wvp94sF8KJs/+lo5woB17MEiQFBAqvxUwkCQ8MGwNc9AEqg5wkJG3sFQG9s/VKNOwpDD8MGAYppA
CpVBwoXh8MFQ49Q/yABLwijG8sEcARhA2+w8wmJn6sGWb7dA86wlwvza7sGKwBRAsPdDwvo16sHU
YPFAG1tNwu8v7MFYuQJBpqQmwoqt3sGI2SE/ya82wnyr8cEMs2tA

> <OMEGA_E>
qYTZwA==

> <OMEGA_NBR>
      7375

$$$$
CACHE3HI_1689_1
  -OEChem-03092622543D

 44 46  0     0  0  0  0  0  0999 V2000
  -48.9645  -28.8139    5.2319 C   0  0  0  0  0  0  0  0  0  0  0  0
  -49.2557  -28.3800    6.5078 C   0  0  0  0  0  0  0  0  0  0  0  0
  -47.6204  -29.2671    5.2317 C   0  0  0  0  0  0  0  0  0  0  0  0
  -46.7379  -29.8105    4.2991 C   0  0  0  0  0  0  0  0  0  0  0  0
  -47.1337  -29.0923    6.5213 C   0  0  0  0  0  0  0  0  0  0  0  0
  -45.1435  -29.9085    5.9705 C   0  0  0  0  0  0  0  0  0  0  0  0
  -45.1062  -32.6555   -0.6349 C   0  0  0  0  0  0  0  0  0  0  0  0
  -47.1050  -30.0584    2.8961 C   0  0  0  0  0  0  0  0  0  0  0  0
  -43.7477  -30.2810    6.3475 C   0  0  0  0  0  0  0  0  0  0  0  0
  -43.6112  -27.2504    0.9126 C   0  0  0  0  0  0  0  0  0  0  0  0
  -46.1119  -27.2888    0.7734 C   0  0  0  0  0  0  0  0  0  0  0  0
  -45.0182  -31.7927    0.5997 C   0  0  0  0  0  0  0  0  0  0  0  0
  -46.1942  -30.8299    0.7394 C   0  0  0  0  0  0  0  0  0  0  0  0
  -44.9225  -29.1271    1.9978 C   0  0  0  0  0  0  0  0  0  0  0  0
  -44.8476  -28.1473    0.8221 C   0  0  0  0  0  0  0  0  0  0  0  0
  -45.4810  -30.1339    4.6809 N   0  0  0  0  0  0  0  0  0  0  0  0
  -45.8995  -29.3932    6.9614 N   0  0  0  0  0  0  0  0  0  0  0  0
  -44.3860  -32.4093   -1.7661 N   0  0  0  0  0  0  0  0  0  0  0  0
  -45.8972  -33.7285   -0.7146 N   0  0  0  0  0  0  0  0  0  0  0  0
  -44.7200  -33.3638   -2.6265 N   0  0  0  0  0  0  0  0  0  0  0  0
  -48.1373  -28.5539    7.2821 N   0  0  0  0  0  0  0  0  0  0  0  0
  -45.6109  -34.1165   -1.9655 N   0  0  0  0  0  0  0  0  0  0  0  0
  -46.0797  -29.9784    1.9281 N   0  0  0  0  0  0  0  0  0  0  0  0
  -48.2856  -30.3293    2.6819 O   0  0  0  0  0  0  0  0  0  0  0  0
  -49.6507  -28.8024    4.3961 H   0  0  0  0  0  0  0  0  0  0  0  0
  -50.1584  -27.9643    6.9328 H   0  0  0  0  0  0  0  0  0  0  0  0
  -43.0584  -29.4399    6.2004 H   0  0  0  0  0  0  0  0  0  0  0  0
  -43.3774  -31.1089    5.7295 H   0  0  0  0  0  0  0  0  0  0  0  0
  -43.7064  -30.5856    7.3999 H   0  0  0  0  0  0  0  0  0  0  0  0
  -43.6285  -26.6590    1.8347 H   0  0  0  0  0  0  0  0  0  0  0  0
  -42.6895  -27.8418    0.9082 H   0  0  0  0  0  0  0  0  0  0  0  0
  -43.5678  -26.5480    0.0732 H   0  0  0  0  0  0  0  0  0  0  0  0
  -46.2175  -26.6991    1.6896 H   0  0  0  0  0  0  0  0  0  0  0  0
  -46.0756  -26.5907   -0.0694 H   0  0  0  0  0  0  0  0  0  0  0  0
  -47.0090  -27.9076    0.6630 H   0  0  0  0  0  0  0  0  0  0  0  0
  -44.9423  -32.4277    1.4918 H   0  0  0  0  0  0  0  0  0  0  0  0
  -44.0836  -31.2191    0.5572 H   0  0  0  0  0  0  0  0  0  0  0  0
  -46.2329  -30.1609   -0.1266 H   0  0  0  0  0  0  0  0  0  0  0  0
  -47.1501  -31.3597    0.8024 H   0  0  0  0  0  0  0  0  0  0  0  0
  -44.0386  -29.7723    2.0380 H   0  0  0  0  0  0  0  0  0  0  0  0
  -44.9895  -28.5862    2.9476 H   0  0  0  0  0  0  0  0  0  0  0  0
  -44.7856  -28.7176   -0.1140 H   0  0  0  0  0  0  0  0  0  0  0  0
  -48.0643  -28.3209    8.2627 H   0  0  0  0  0  0  0  0  0  0  0  0
  -46.0420  -34.9320   -2.3876 H   0  0  0  0  0  0  0  0  0  0  0  0
  1  2  2  0  0  0  0
  1  3  1  0  0  0  0
  2 21  1  0  0  0  0
  3  4  1  0  0  0  0
  3  5  2  0  0  0  0
  4  8  1  0  0  0  0
  4 16  2  0  0  0  0
  5 17  1  0  0  0  0
  5 21  1  0  0  0  0
  6  9  1  0  0  0  0
  6 16  1  0  0  0  0
  6 17  2  0  0  0  0
  7 12  1  0  0  0  0
  7 18  1  0  0  0  0
  7 19  2  0  0  0  0
  8 23  1  0  0  0  0
  8 24  2  0  0  0  0
 10 15  1  0  0  0  0
 11 15  1  0  0  0  0
 12 13  1  0  0  0  0
 13 23  1  0  0  0  0
 14 15  1  0  0  0  0
 14 23  1  0  0  0  0
 18 20  2  0  0  0  0
 19 22  1  0  0  0  0
 20 22  1  0  0  0  0
  1 25  1  0  0  0  0
  2 26  1  0  0  0  0
  9 27  1  0  0  0  0
  9 28  1  0  0  0  0
  9 29  1  0  0  0  0
 10 30  1  0  0  0  0
 10 31  1  0  0  0  0
 10 32  1  0  0  0  0
 11 33  1  0  0  0  0
 11 34  1  0  0  0  0
 11 35  1  0  0  0  0
 12 36  1  0  0  0  0
 12 37  1  0  0  0  0
 13 38  1  0  0  0  0
 13 39  1  0  0  0  0
 14 40  1  0  0  0  0
 14 41  1  0  0  0  0
 15 42  1  0  0  0  0
 21 43  1  0  0  0  0
 22 44  1  0  0  0  0
M  END
> <POSIT::Probability>
0.18

> <POSIT::Method>
HYBRID

> <ReceptorTitle>
UCSF-P4537-REFINED_LIGAND-BOUND-STATE_A__DU__LA1_A-201(A)

> <OMEGA_C>
pttDwtCC5sGga6dAygVFwkUK48GlP9BAU3s+wvoi6sF5aqdAqPM6wvh77sHXkYlA3Ig8wga96MEi
rtBA55I0wqlE78EiDr9Av2w0wkSfAsK4hyK/jGs8wrB38MHoWDlAnf0uwmg/8sFwHstA5XEuws0A
2sFIomk/kXI4wn5P2sFo/0U/qhI0wnxX/sHwhRk/3cY4wpij9sGYSz0/sLAzwlQE6cFYuP8/5WMz
wqst4cFgc1I/luw1wioS8cGOyZVAIJk3wkIl68Gyw95ARYsxwhejAcISEeK/tpY3wvjpBsJ08Ta/
ROEywoJ0BcKUGCjAlYxAwllu5MH0BulAk3E2wkp3CMIalvu/qVE4ws7T78FSzPY/eiRBwnai8sGo
pCtASppGwlZr5sE5rYxAM6JIws2238Ei2d1A1jsswuCE68FOacZAa4ItwhTf+MF4WLdAZ9Muwl+v
9MEMzOxAooMuwq1F1cFY1+o/CMIqwhO83sG4gGg/a0UuwmBi1MEA+5U9vN44wtiX1cHUQ9g/Zk04
wse51MHAI469NQk8wspC38F4vSk/8MQzwgK2AcKs8r4/pVUwwsfA+cEsog4/dO44wpxJ8cFAngG+
u5k8wrbg+sHEbE0/jicwwqQt7sHubQJANvUzwoqw5MHspDxAdCQzwpa95cFAaum93kFAwiSR4sE2
NARB/io4wly6C8JUzhjA

> <OMEGA_E>
G6D7wA==

> <OMEGA_NBR>
      8751

$$$$
CACHE3HI_1689_45
  -OEChem-03092622543D

 44 45  0     0  0  0  0  0  0999 V2000
  -46.4251  -32.2964    2.9053 C   0  0  0  0  0  0  0  0  0  0  0  0
  -44.1484  -32.3918    2.1020 C   0  0  0  0  0  0  0  0  0  0  0  0
  -46.8260  -33.1376    1.8673 C   0  0  0  0  0  0  0  0  0  0  0  0
  -44.5493  -33.2330    1.0640 C   0  0  0  0  0  0  0  0  0  0  0  0
  -47.9666  -29.7271    5.4028 C   0  0  0  0  0  0  0  0  0  0  0  0
  -48.8792  -29.9218    6.4109 C   0  0  0  0  0  0  0  0  0  0  0  0
  -45.0861  -31.9237    3.0226 C   0  0  0  0  0  0  0  0  0  0  0  0
  -45.8883  -33.6057    0.9467 C   0  0  0  0  0  0  0  0  0  0  0  0
  -46.7781  -29.3725    6.0688 C   0  0  0  0  0  0  0  0  0  0  0  0
  -44.6675  -31.0471    4.1049 C   0  0  0  0  0  0  0  0  0  0  0  0
  -45.7356  -34.5735   -1.3816 C   0  0  0  0  0  0  0  0  0  0  0  0
  -43.1842  -34.9036   -3.0431 C   0  0  0  0  0  0  0  0  0  0  0  0
  -44.7461  -33.1213   -3.8839 C   0  0  0  0  0  0  0  0  0  0  0  0
  -45.6529  -29.0626    2.9920 C   0  0  0  0  0  0  0  0  0  0  0  0
  -45.4481  -29.0443    5.4532 C   0  0  0  0  0  0  0  0  0  0  0  0
  -43.8705  -33.5814   -2.7252 C   0  0  0  0  0  0  0  0  0  0  0  0
  -46.9199  -29.3427    7.3965 N   0  0  0  0  0  0  0  0  0  0  0  0
  -48.2083  -29.6813    7.5737 N   0  0  0  0  0  0  0  0  0  0  0  0
  -46.2954  -34.4587   -0.1061 N   0  0  0  0  0  0  0  0  0  0  0  0
  -44.6539  -33.6948   -1.5194 N   0  0  0  0  0  0  0  0  0  0  0  0
  -45.2341  -29.7626    4.1986 N   0  0  0  0  0  0  0  0  0  0  0  0
  -43.8333  -31.4968    4.9008 O   0  0  0  0  0  0  0  0  0  0  0  0
  -46.1089  -35.3236   -2.2802 O   0  0  0  0  0  0  0  0  0  0  0  0
  -47.1649  -31.9384    3.6165 H   0  0  0  0  0  0  0  0  0  0  0  0
  -43.1025  -32.1077    2.1834 H   0  0  0  0  0  0  0  0  0  0  0  0
  -47.8720  -33.4221    1.7857 H   0  0  0  0  0  0  0  0  0  0  0  0
  -43.8098  -33.5911    0.3523 H   0  0  0  0  0  0  0  0  0  0  0  0
  -48.1414  -29.8279    4.3415 H   0  0  0  0  0  0  0  0  0  0  0  0
  -49.9223  -30.2039    6.4049 H   0  0  0  0  0  0  0  0  0  0  0  0
  -43.9234  -35.6864   -3.2450 H   0  0  0  0  0  0  0  0  0  0  0  0
  -42.5618  -35.2341   -2.2045 H   0  0  0  0  0  0  0  0  0  0  0  0
  -42.5459  -34.8181   -3.9291 H   0  0  0  0  0  0  0  0  0  0  0  0
  -45.5250  -33.8583   -4.1103 H   0  0  0  0  0  0  0  0  0  0  0  0
  -44.1490  -32.9654   -4.7877 H   0  0  0  0  0  0  0  0  0  0  0  0
  -45.2474  -32.1775   -3.6412 H   0  0  0  0  0  0  0  0  0  0  0  0
  -46.6952  -29.2947    2.7550 H   0  0  0  0  0  0  0  0  0  0  0  0
  -45.5565  -27.9819    3.1293 H   0  0  0  0  0  0  0  0  0  0  0  0
  -45.0262  -29.3594    2.1465 H   0  0  0  0  0  0  0  0  0  0  0  0
  -45.3733  -27.9718    5.2453 H   0  0  0  0  0  0  0  0  0  0  0  0
  -44.6275  -29.3023    6.1307 H   0  0  0  0  0  0  0  0  0  0  0  0
  -43.1059  -32.8213   -2.5286 H   0  0  0  0  0  0  0  0  0  0  0  0
  -48.5659  -29.7296    8.5195 H   0  0  0  0  0  0  0  0  0  0  0  0
  -47.0916  -35.0612    0.0889 H   0  0  0  0  0  0  0  0  0  0  0  0
  -44.4267  -33.0805   -0.7416 H   0  0  0  0  0  0  0  0  0  0  0  0
  1  3  2  0  0  0  0
  1  7  1  0  0  0  0
  2  4  1  0  0  0  0
  2  7  2  0  0  0  0
  3  8  1  0  0  0  0
  4  8  2  0  0  0  0
  5  6  2  0  0  0  0
  5  9  1  0  0  0  0
  6 18  1  0  0  0  0
  7 10  1  0  0  0  0
  8 19  1  0  0  0  0
  9 15  1  0  0  0  0
  9 17  2  0  0  0  0
 10 21  1  0  0  0  0
 10 22  2  0  0  0  0
 11 19  1  0  0  0  0
 11 20  1  0  0  0  0
 11 23  2  0  0  0  0
 12 16  1  0  0  0  0
 13 16  1  0  0  0  0
 14 21  1  0  0  0  0
 15 21  1  0  0  0  0
 16 20  1  0  0  0  0
 17 18  1  0  0  0  0
  1 24  1  0  0  0  0
  2 25  1  0  0  0  0
  3 26  1  0  0  0  0
  4 27  1  0  0  0  0
  5 28  1  0  0  0  0
  6 29  1  0  0  0  0
 12 30  1  0  0  0  0
 12 31  1  0  0  0  0
 12 32  1  0  0  0  0
 13 33  1  0  0  0  0
 13 34  1  0  0  0  0
 13 35  1  0  0  0  0
 14 36  1  0  0  0  0
 14 37  1  0  0  0  0
 14 38  1  0  0  0  0
 15 39  1  0  0  0  0
 15 40  1  0  0  0  0
 16 41  1  0  0  0  0
 18 42  1  0  0  0  0
 19 43  1  0  0  0  0
 20 44  1  0  0  0  0
M  END
> <POSIT::Probability>
0.18

> <POSIT::Method>
HYBRID

> <ReceptorTitle>
UCSF-P4537-REFINED_LIGAND-BOUND-STATE_A__DU__LA1_A-201(A)

> <OMEGA_C>
S7M5wnovAcKo8DlAA5gwwjuRAcIWhwZAx007wt2MBMK8BO8/cTIywpbuBMJ0Mog/2N0/whzR7cFq
46xAWIRDwu5f78H3Jc1AN1g0wqZj/8F4ckFAko03wkRsBsLwW3I/yhw7wuT66sE2M8JAkasywmRg
+MFHW4NARfE2wjpLCsLM2bC/q7wswkqdC8K1wkLAA/wywj18BMJKknjAmpw2wjqA6MGofD9A48o1
wsVa6MHpgK5AansvwmNTBsLnaS7A9a07wue96sHur+xAQNVAwjpz7cF9W/JAfS45wsHVCcJAOdm9
n50ywnvHBsJoesK/su80wrkZ7sEaW4ZASFUvwoT5+8GX05xAiW84wmhLDcJA7hHA0qg8wuGB/8Fq
dWdA8mgswkNuAMJEvAtA43w/wjOwBcL8kOQ/Oj0vwktdBsIQXbQ+y5BAwnaf7sE/7YpAcbBHwoqh
8cEL9cxAjbEvwta+DsImrk/ATD8qwq/vDMK+FQ3AAy8qwsBFC8L0dXvAkBk2wvFuB8J1h4PAjJgw
wo7cA8KrNJnAYv00wsi1AMInCWnA7Mc6woBb6sFkUTBA3zk2wvra38F4RkhA1xo0wiLg6sHmXwlA
Q341wkPG38Ed2adAiIIywh1r6sHeLsRAa2wswglJA8IA1SHAeUNCwkDW7cG+TwhBxV08wrQ+DMJA
/7U99LQxwm9SBMLw2j2/

> <OMEGA_E>
uwjjwA==

> <OMEGA_NBR>
     10123

$$$$
CACHE3HI_1689_51
  -OEChem-03092622543D

 43 44  0     0  0  0  0  0  0999 V2000
  -42.9471  -30.7788    1.6496 C   0  0  0  0  0  0  0  0  0  0  0  0
  -44.0784  -30.9112    2.4547 C   0  0  0  0  0  0  0  0  0  0  0  0
  -42.8713  -29.7423    0.7194 C   0  0  0  0  0  0  0  0  0  0  0  0
  -45.0577  -28.9707    1.3997 C   0  0  0  0  0  0  0  0  0  0  0  0
  -45.1336  -30.0072    2.3300 C   0  0  0  0  0  0  0  0  0  0  0  0
  -43.9264  -28.8383    0.5946 C   0  0  0  0  0  0  0  0  0  0  0  0
  -52.8882  -28.6932    7.4501 C   0  0  0  0  0  0  0  0  0  0  0  0
  -50.9389  -29.4088    7.2371 C   0  0  0  0  0  0  0  0  0  0  0  0
  -46.4981  -31.1366    4.1309 C   0  0  0  0  0  0  0  0  0  0  0  0
  -46.1836  -27.9954    1.2583 C   0  0  0  0  0  0  0  0  0  0  0  0
  -54.2148  -28.1767    7.0936 C   0  0  0  0  0  0  0  0  0  0  0  0
  -49.5877  -29.8847    6.7664 C   0  0  0  0  0  0  0  0  0  0  0  0
  -49.6505  -31.3104    6.2124 C   0  0  0  0  0  0  0  0  0  0  0  0
  -48.2678  -31.7924    5.7760 C   0  0  0  0  0  0  0  0  0  0  0  0
  -43.8978  -26.4980    0.1704 C   0  0  0  0  0  0  0  0  0  0  0  0
  -51.9456  -28.9885    6.5069 N   0  0  0  0  0  0  0  0  0  0  0  0
  -52.5276  -28.9046    8.7175 N   0  0  0  0  0  0  0  0  0  0  0  0
  -51.2770  -29.3617    8.5534 N   0  0  0  0  0  0  0  0  0  0  0  0
  -46.2710  -30.1596    3.1575 N   0  0  0  0  0  0  0  0  0  0  0  0
  -47.7426  -30.9345    4.7214 N   0  0  0  0  0  0  0  0  0  0  0  0
  -45.7373  -32.0491    4.4438 O   0  0  0  0  0  0  0  0  0  0  0  0
  -43.8329  -27.8318   -0.3192 O   0  0  0  0  0  0  0  0  0  0  0  0
  -43.2583  -25.6744   -0.6956 F   0  0  0  0  0  0  0  0  0  0  0  0
  -45.2033  -26.1245    0.1661 F   0  0  0  0  0  0  0  0  0  0  0  0
  -42.1258  -31.4825    1.7464 H   0  0  0  0  0  0  0  0  0  0  0  0
  -44.1263  -31.7228    3.1766 H   0  0  0  0  0  0  0  0  0  0  0  0
  -41.9868  -29.6452    0.0953 H   0  0  0  0  0  0  0  0  0  0  0  0
  -46.0478  -27.1371    1.9264 H   0  0  0  0  0  0  0  0  0  0  0  0
  -47.1415  -28.4594    1.5210 H   0  0  0  0  0  0  0  0  0  0  0  0
  -46.2403  -27.6321    0.2265 H   0  0  0  0  0  0  0  0  0  0  0  0
  -54.9541  -28.9846    6.9335 H   0  0  0  0  0  0  0  0  0  0  0  0
  -54.2021  -27.5941    6.1524 H   0  0  0  0  0  0  0  0  0  0  0  0
  -54.6182  -27.5155    7.8824 H   0  0  0  0  0  0  0  0  0  0  0  0
  -49.2069  -29.1976    6.0005 H   0  0  0  0  0  0  0  0  0  0  0  0
  -48.8745  -29.8332    7.5984 H   0  0  0  0  0  0  0  0  0  0  0  0
  -50.3426  -31.3465    5.3609 H   0  0  0  0  0  0  0  0  0  0  0  0
  -50.0551  -31.9876    6.9761 H   0  0  0  0  0  0  0  0  0  0  0  0
  -47.5783  -31.7851    6.6269 H   0  0  0  0  0  0  0  0  0  0  0  0
  -48.3276  -32.8201    5.4028 H   0  0  0  0  0  0  0  0  0  0  0  0
  -43.5060  -26.3870    1.1875 H   0  0  0  0  0  0  0  0  0  0  0  0
  -50.7318  -29.6157    9.3689 H   0  0  0  0  0  0  0  0  0  0  0  0
  -47.0129  -29.4757    3.0285 H   0  0  0  0  0  0  0  0  0  0  0  0
  -48.3066  -30.1445    4.4426 H   0  0  0  0  0  0  0  0  0  0  0  0
  1  2  1  0  0  0  0
  1  3  2  0  0  0  0
  2  5  2  0  0  0  0
  3  6  1  0  0  0  0
  4  5  1  0  0  0  0
  4  6  2  0  0  0  0
  4 10  1  0  0  0  0
  5 19  1  0  0  0  0
  6 22  1  0  0  0  0
  7 11  1  0  0  0  0
  7 16  1  0  0  0  0
  7 17  2  0  0  0  0
  8 12  1  0  0  0  0
  8 16  2  0  0  0  0
  8 18  1  0  0  0  0
  9 19  1  0  0  0  0
  9 20  1  0  0  0  0
  9 21  2  0  0  0  0
 12 13  1  0  0  0  0
 13 14  1  0  0  0  0
 14 20  1  0  0  0  0
 15 22  1  0  0  0  0
 15 23  1  0  0  0  0
 15 24  1  0  0  0  0
 17 18  1  0  0  0  0
  1 25  1  0  0  0  0
  2 26  1  0  0  0  0
  3 27  1  0  0  0  0
 10 28  1  0  0  0  0
 10 29  1  0  0  0  0
 10 30  1  0  0  0  0
 11 31  1  0  0  0  0
 11 32  1  0  0  0  0
 11 33  1  0  0  0  0
 12 34  1  0  0  0  0
 12 35  1  0  0  0  0
 13 36  1  0  0  0  0
 13 37  1  0  0  0  0
 14 38  1  0  0  0  0
 14 39  1  0  0  0  0
 15 40  1  0  0  0  0
 18 41  1  0  0  0  0
 19 42  1  0  0  0  0
 20 43  1  0  0  0  0
M  END
> <POSIT::Probability>
0.02

> <POSIT::Method>
FRED

> <ReceptorTitle>
UCSF-P4537-REFINED_LIGAND-BOUND-STATE_A__DU__LA1_A-201(A)

> <OMEGA_C>
2skrwvI69sGMJdM/VFAwwh9K98FlGh1ANnwrwijw7cHYJzg/Gjs0wvLD58G8KLM/xog0ws4O8MHt
HRVAp7QvwtS05sHwNRg/i41TwqmL5cEuZ+5AfMFLwjpF68E4ludAGf45wsIX+cGOMIRA+rs4wpT2
38GDDqE//ttYwshp4cGu/uJA2llGwtgT78GPhthAHppGwsB7+sGUy8ZAMRJBwuVW/sHP1LhAVpcv
ws7708FQhy4+SMhPwmzo58HuONBARxxSwpw858G6egtBsRtNwsrk6sHA2ghBdxU5wupG8cGvFEpA
bPg+wsF598H6FZdAAvM2wk0yAMKuM45A6VQvwm+n3sEQcaO+eAgtwidlzcHmEDK/NtA0wgL/0MHw
Cio+2IAowiHc+8F2it8/SYEwwlvI/cEXTUtAgfInwk4p7cFwKMM98TA4wrUY2cE2k/Y/3JA8wuas
48E4sMI/GvY4wnwO3cFY9Gc+C9Fbwm7g58FI391A7M5YwsDA3MG44MRACnlawq8f3MHePPxA5NNE
wriU6cG3A8BAfX9Dwniq7sF2JvNA315JwpzF+sHWjKtAYjhIwqbm/8HVO99AI1A+wuFH/sGxD9RA
gU9BwstHA8LU46xAIgYuwpUY08GUAJg/aO1KwuLs7MH65hVBMg08wizO68E400FA8DlBwgEo8cHx
KY5A

> <OMEGA_E>
hkX0wA==

> <OMEGA_NBR>
     11471

$$$$
CACHE3HI_1691_75
  -OEChem-03092622543D

 45 46  0     1  0  0  0  0  0999 V2000
  -44.6878  -29.3201    1.1384 C   0  0  0  0  0  0  0  0  0  0  0  0
  -43.3398  -29.4964    1.4510 C   0  0  0  0  0  0  0  0  0  0  0  0
  -43.3674  -31.6515    0.3589 C   0  0  0  0  0  0  0  0  0  0  0  0
  -45.8637  -29.3697    4.3992 C   0  0  0  0  0  0  0  0  0  0  0  0
  -44.6631  -29.3580    6.3298 C   0  0  0  0  0  0  0  0  0  0  0  0
  -45.3754  -30.3096    0.4359 C   0  0  0  0  0  0  0  0  0  0  0  0
  -47.0184  -29.0416    5.0797 C   0  0  0  0  0  0  0  0  0  0  0  0
  -42.6797  -30.6620    1.0615 C   0  0  0  0  0  0  0  0  0  0  0  0
  -44.7153  -31.4752    0.0464 C   0  0  0  0  0  0  0  0  0  0  0  0
  -46.8843  -28.8865    6.4441 C   0  0  0  0  0  0  0  0  0  0  0  0
  -46.8104  -30.1194    0.1045 C   0  0  0  0  0  0  0  0  0  0  0  0
  -48.3016  -28.8756    4.3510 C   0  0  0  0  0  0  0  0  0  0  0  0
  -41.2387  -30.8500    1.3959 C   0  0  0  0  0  0  0  0  0  0  0  0
  -49.6821  -32.0993    2.6105 C   0  0  0  0  0  0  0  0  0  0  0  0
  -49.1024  -31.0327    0.3663 C   0  0  0  0  0  0  0  0  0  0  0  0
  -49.6299  -29.5737    2.3751 C   0  0  0  0  0  0  0  0  0  0  0  0
  -49.9152  -30.9108    1.6701 C   0  0  2  0  0  0  0  0  0  0  0  0
  -44.6645  -29.5362    4.9949 N   0  0  0  0  0  0  0  0  0  0  0  0
  -45.7175  -29.0381    7.1047 N   0  0  0  0  0  0  0  0  0  0  0  0
  -48.0350  -28.5492    7.1992 N   0  0  0  0  0  0  0  0  0  0  0  0
  -47.6666  -31.0676    0.6222 N   0  0  0  0  0  0  0  0  0  0  0  0
  -48.4499  -29.6407    3.2042 N   0  0  0  0  0  0  0  0  0  0  0  0
  -47.1423  -29.1726   -0.6038 O   0  0  0  0  0  0  0  0  0  0  0  0
  -49.1343  -28.0791    4.7758 O   0  0  0  0  0  0  0  0  0  0  0  0
  -45.3669  -32.4322   -0.6294 F   0  0  0  0  0  0  0  0  0  0  0  0
  -45.1919  -28.4078    1.4473 H   0  0  0  0  0  0  0  0  0  0  0  0
  -42.8120  -28.7200    1.9986 H   0  0  0  0  0  0  0  0  0  0  0  0
  -42.8618  -32.5628    0.0510 H   0  0  0  0  0  0  0  0  0  0  0  0
  -45.8595  -29.5141    3.3232 H   0  0  0  0  0  0  0  0  0  0  0  0
  -43.7135  -29.4880    6.8344 H   0  0  0  0  0  0  0  0  0  0  0  0
  -41.1159  -31.3443    2.3686 H   0  0  0  0  0  0  0  0  0  0  0  0
  -40.7157  -29.8866    1.4609 H   0  0  0  0  0  0  0  0  0  0  0  0
  -40.7455  -31.4620    0.6306 H   0  0  0  0  0  0  0  0  0  0  0  0
  -48.6320  -32.1633    2.9127 H   0  0  0  0  0  0  0  0  0  0  0  0
  -50.2781  -31.9939    3.5230 H   0  0  0  0  0  0  0  0  0  0  0  0
  -49.9524  -33.0482    2.1354 H   0  0  0  0  0  0  0  0  0  0  0  0
  -49.3813  -31.9427   -0.1760 H   0  0  0  0  0  0  0  0  0  0  0  0
  -49.3211  -30.1811   -0.2875 H   0  0  0  0  0  0  0  0  0  0  0  0
  -50.4858  -29.2886    2.9967 H   0  0  0  0  0  0  0  0  0  0  0  0
  -49.4965  -28.7799    1.6314 H   0  0  0  0  0  0  0  0  0  0  0  0
  -50.9825  -30.9070    1.4084 H   0  0  0  0  0  0  0  0  0  0  0  0
  -48.8925  -28.3823    6.7197 H   0  0  0  0  0  0  0  0  0  0  0  0
  -47.9368  -28.3834    8.1770 H   0  0  0  0  0  0  0  0  0  0  0  0
  -47.3239  -31.8584    1.1458 H   0  0  0  0  0  0  0  0  0  0  0  0
  -47.6900  -30.2315    2.8814 H   0  0  0  0  0  0  0  0  0  0  0  0
  1  2  2  0  0  0  0
  1  6  1  0  0  0  0
  2  8  1  0  0  0  0
  3  8  2  0  0  0  0
  3  9  1  0  0  0  0
  4  7  1  0  0  0  0
  4 18  2  0  0  0  0
  5 18  1  0  0  0  0
  5 19  2  0  0  0  0
  6  9  2  0  0  0  0
  6 11  1  0  0  0  0
  7 10  2  0  0  0  0
  7 12  1  0  0  0  0
  8 13  1  0  0  0  0
  9 25  1  0  0  0  0
 10 19  1  0  0  0  0
 10 20  1  0  0  0  0
 11 21  1  0  0  0  0
 11 23  2  0  0  0  0
 12 22  1  0  0  0  0
 12 24  2  0  0  0  0
 14 17  1  0  0  0  0
 15 17  1  0  0  0  0
 15 21  1  0  0  0  0
 16 17  1  0  0  0  0
 16 22  1  0  0  0  0
  1 26  1  0  0  0  0
  2 27  1  0  0  0  0
  3 28  1  0  0  0  0
  4 29  1  0  0  0  0
  5 30  1  0  0  0  0
 13 31  1  0  0  0  0
 13 32  1  0  0  0  0
 13 33  1  0  0  0  0
 14 34  1  0  0  0  0
 14 35  1  0  0  0  0
 14 36  1  0  0  0  0
 15 37  1  0  0  0  0
 15 38  1  0  0  0  0
 16 39  1  0  0  0  0
 16 40  1  0  0  0  0
 17 41  1  0  0  0  0
 20 42  1  0  0  0  0
 20 43  1  0  0  0  0
 21 44  1  0  0  0  0
 22 45  1  0  0  0  0
M  END
> <POSIT::Probability>
0.18

> <POSIT::Method>
FRED

> <ReceptorTitle>
UCSF-P4537-REFINED_LIGAND-BOUND-STATE_A__DU__LA1_A-201(A)

> <OMEGA_C>
SMAywpiP6sGKt5E/AFwtwq/468Ekurk/PHgtwkQ2/cFmw7c+d3Q3wiv16sGVxoxA+6Yywjzd6sGq
jcpAaYA1whJ68sGMLt8+2hI8wkZV6MEejaJADrgqwr5L9cGw3Yc/ddwywiHN+8EA5T09jIk7wpYX
58F2Ns5A3j07wm708MEIFdY94jRBwk8B58FlO4tAY/QkwsLM9sHCrbI/gbpGwrRlAMJHEidA0mhE
wvpC+MHYjLs+AIVGwteW7MH8ABhALKlHwmhJ98H0xdU/f6gywjlK7MHW1Z9Ard42wgZO6MGoWeNA
yyNAwsdk5MEZYOZAnao+wouK+MH5SB8/qMxBwkAg7cHeEU1AuZE8wm9h6cHUlRq/hYlEwuWh4MGU
05hAtHc1wpK6AcK4HiG/eMQ0wkVD48HmP7k/gD8rwpzC5cFY0/8/gXIrwlBAAsJADlE9K3A3wucc
7MGkr1RAnNouwoXn68GYs9pAqnYkwjDB+sF9lhdA7dwiwqoX78Fg/ro/b/siwhuy+8EZbSE/MIdC
wjKnAMKiaTpAzxxJwnrz/8EieGFAOs9HwlQxBMImqghAbIZFwq6K/8HwOzS+x0hFwvhy8cH8MpO+
efFJwgpP6sGzyj9AaPxFwis95sFM0tA/IO5LwnVB98FcRrQ/6JFDwvQO48HZB9dASb8/wjAR48EC
1QJBqEs9wv/d/sE5qZI/jsI+wina8cGLaThA

> <OMEGA_E>
l2XswA==

> <OMEGA_NBR>
     12860

$$$$
CACHE3HI_1695_21
  -OEChem-03092622543D

 40 43  0     1  0  0  0  0  0999 V2000
  -44.9930  -34.3298   -2.8659 C   0  0  0  0  0  0  0  0  0  0  0  0
  -43.8703  -33.4881   -3.0047 C   0  0  0  0  0  0  0  0  0  0  0  0
  -45.7272  -34.3379   -1.6622 C   0  0  0  0  0  0  0  0  0  0  0  0
  -43.4804  -32.6475   -1.9421 C   0  0  0  0  0  0  0  0  0  0  0  0
  -46.0552  -33.5220    0.6228 C   0  0  0  0  0  0  0  0  0  0  0  0
  -45.6496  -32.7025    1.6928 C   0  0  0  0  0  0  0  0  0  0  0  0
  -43.8268  -31.8102    0.3325 C   0  0  0  0  0  0  0  0  0  0  0  0
  -46.5536  -28.7975    6.5411 C   0  0  0  0  0  0  0  0  0  0  0  0
  -48.5366  -32.1713    4.2503 C   0  0  0  0  0  0  0  0  0  0  0  0
  -45.3395  -33.5018   -0.5924 C   0  0  0  0  0  0  0  0  0  0  0  0
  -44.2132  -32.6484   -0.7347 C   0  0  0  0  0  0  0  0  0  0  0  0
  -46.4658  -29.6491    5.4685 C   0  0  0  0  0  0  0  0  0  0  0  0
  -44.5504  -31.8206    1.5457 C   0  0  0  0  0  0  0  0  0  0  0  0
  -47.8651  -29.9874    5.0820 C   0  0  0  0  0  0  0  0  0  0  0  0
  -45.2121  -30.0963    4.8379 C   0  0  0  0  0  0  0  0  0  0  0  0
  -43.0401  -31.8302    3.5067 C   0  0  0  0  0  0  0  0  0  0  0  0
  -44.0607  -30.9712    2.7147 C   0  0  2  0  0  0  0  0  0  0  0  0
  -48.9746  -32.5731    3.0813 N   0  0  0  0  0  0  0  0  0  0  0  0
  -48.6886  -29.3639    5.8983 N   0  0  0  0  0  0  0  0  0  0  0  0
  -48.9742  -31.4794    2.2060 N   0  0  0  0  0  0  0  0  0  0  0  0
  -48.5473  -30.4248    2.8129 N   0  0  0  0  0  0  0  0  0  0  0  0
  -47.9024  -28.6627    6.7483 N   0  0  0  0  0  0  0  0  0  0  0  0
  -48.2742  -30.8424    4.0618 N   0  0  0  0  0  0  0  0  0  0  0  0
  -45.2327  -30.5422    3.5169 N   0  0  0  0  0  0  0  0  0  0  0  0
  -44.1837  -30.0866    5.5044 O   0  0  0  0  0  0  0  0  0  0  0  0
  -45.2911  -34.9697   -3.6833 H   0  0  0  0  0  0  0  0  0  0  0  0
  -43.3079  -33.4872   -3.9268 H   0  0  0  0  0  0  0  0  0  0  0  0
  -46.5865  -34.9839   -1.5584 H   0  0  0  0  0  0  0  0  0  0  0  0
  -42.6211  -32.0026   -2.0514 H   0  0  0  0  0  0  0  0  0  0  0  0
  -46.9148  -34.1665    0.7323 H   0  0  0  0  0  0  0  0  0  0  0  0
  -46.1799  -32.7462    2.6326 H   0  0  0  0  0  0  0  0  0  0  0  0
  -42.9736  -31.1575    0.2214 H   0  0  0  0  0  0  0  0  0  0  0  0
  -45.7470  -28.3394    7.0941 H   0  0  0  0  0  0  0  0  0  0  0  0
  -48.4122  -32.7537    5.1513 H   0  0  0  0  0  0  0  0  0  0  0  0
  -42.6602  -31.2530    4.3626 H   0  0  0  0  0  0  0  0  0  0  0  0
  -43.5338  -32.7434    3.8706 H   0  0  0  0  0  0  0  0  0  0  0  0
  -42.2024  -32.1039    2.8484 H   0  0  0  0  0  0  0  0  0  0  0  0
  -43.5421  -30.0852    2.3197 H   0  0  0  0  0  0  0  0  0  0  0  0
  -48.2782  -28.0877    7.4751 H   0  0  0  0  0  0  0  0  0  0  0  0
  -46.1247  -30.5763    3.0662 H   0  0  0  0  0  0  0  0  0  0  0  0
  1  2  1  0  0  0  0
  1  3  2  0  0  0  0
  2  4  2  0  0  0  0
  3 10  1  0  0  0  0
  4 11  1  0  0  0  0
  5  6  2  0  0  0  0
  5 10  1  0  0  0  0
  6 13  1  0  0  0  0
  7 11  1  0  0  0  0
  7 13  2  0  0  0  0
  8 12  2  0  0  0  0
  8 22  1  0  0  0  0
  9 18  2  0  0  0  0
  9 23  1  0  0  0  0
 10 11  2  0  0  0  0
 12 14  1  0  0  0  0
 12 15  1  0  0  0  0
 13 17  1  0  0  0  0
 14 19  2  0  0  0  0
 14 23  1  0  0  0  0
 15 24  1  0  0  0  0
 15 25  2  0  0  0  0
 16 17  1  0  0  0  0
 17 24  1  0  0  0  0
 18 20  1  0  0  0  0
 19 22  1  0  0  0  0
 20 21  2  0  0  0  0
 21 23  1  0  0  0  0
  1 26  1  0  0  0  0
  2 27  1  0  0  0  0
  3 28  1  0  0  0  0
  4 29  1  0  0  0  0
  5 30  1  0  0  0  0
  6 31  1  0  0  0  0
  7 32  1  0  0  0  0
  8 33  1  0  0  0  0
  9 34  1  0  0  0  0
 16 35  1  0  0  0  0
 16 36  1  0  0  0  0
 16 37  1  0  0  0  0
 17 38  1  0  0  0  0
 22 39  1  0  0  0  0
 24 40  1  0  0  0  0
M  END
> <POSIT::Probability>
0.42

> <POSIT::Method>
SHAPEFIT

> <ReceptorTitle>
UCSF-P4537-REFINED_LIGAND-BOUND-STATE_A__DU__LA1_A-201(A)

> <OMEGA_C>
0/gzwsBRCcJoazfALHsvwsbzBcI+TUDAqOg2wgZaCcJ5xNS/++stwgqXAsLnlfi/iTg4woMWBsJ5
ch8/Lpk2wmDPAsJKrtg/r04vwmB7/sF0Q6o+7zY6wkhh5sFTUNFAgiVCwm2vAMK2AohAoVs1wtcB
BsJOqBe/T9owwviXAsKAGDy/8tw5wm0x7cHT/a5AlDMywoCQ/sFv2MU/6HU/whnm78Gln6JAPdk0
wiLF8MHiz5pADCkswlSk/sG4bWBALT4wwgfF98Fkvi1AA+ZDwuVKAsKiNEVAI8FCwlvp6sEHv7xA
iOVDwuHV+8EKLw1AdTBCwull88HvBTRAGJw/wjtN5cH98ddA1BhBwju99sFZ+oFAS+40woFW9MGW
FWFAILwwwlyx8MExJLBAGio1wvbgC8Jdu2vAVzstwuvyBcIjUHvAklg6wnnvC8Iue8e/93sqwqgC
AMLESQPAzag7woaqCMLhejs/Nrg4wiP8AsI2fShA/OQrwpdC+cHBsWI+6fw2wgm34sGMAuNAG6ZB
wskDA8J416RAD6QqwikG+sEZmotAqCIuwjH5AsLot3dAQ88owlxqAMJgSzZAHisuwoGu8MErdhRA
5BxBwq6z4MGtM+9As384wjuc9MFgPERA

> <OMEGA_E>
cOyIPw==

> <OMEGA_NBR>
     14188

$$$$
CACHE3HI_1696_46
  -OEChem-03092622543D

 41 43  0     0  0  0  0  0  0999 V2000
  -47.9315  -29.5177    5.0066 C   0  0  0  0  0  0  0  0  0  0  0  0
  -48.5898  -29.2922    6.1968 C   0  0  0  0  0  0  0  0  0  0  0  0
  -44.1916  -29.5606    6.5412 C   0  0  0  0  0  0  0  0  0  0  0  0
  -46.5432  -29.5759    5.2914 C   0  0  0  0  0  0  0  0  0  0  0  0
  -45.3701  -29.7703    4.5632 C   0  0  0  0  0  0  0  0  0  0  0  0
  -46.4017  -29.3822    6.6599 C   0  0  0  0  0  0  0  0  0  0  0  0
  -45.3552  -29.9906    3.0947 C   0  0  0  0  0  0  0  0  0  0  0  0
  -43.7780  -32.8066    1.7874 C   0  0  0  0  0  0  0  0  0  0  0  0
  -43.3801  -32.1456   -0.6225 C   0  0  0  0  0  0  0  0  0  0  0  0
  -45.1901  -33.2759    1.4277 C   0  0  0  0  0  0  0  0  0  0  0  0
  -44.7911  -32.6143   -0.9867 C   0  0  0  0  0  0  0  0  0  0  0  0
  -43.2464  -31.7174    0.8454 C   0  0  0  0  0  0  0  0  0  0  0  0
  -45.3433  -33.6869   -0.0410 C   0  0  0  0  0  0  0  0  0  0  0  0
  -44.3675  -35.1558   -2.1475 C   0  0  0  0  0  0  0  0  0  0  0  0
  -43.9237  -30.3682    1.1037 C   0  0  0  0  0  0  0  0  0  0  0  0
  -44.1789  -29.7611    5.2043 N   0  0  0  0  0  0  0  0  0  0  0  0
  -45.2501  -29.3628    7.3533 N   0  0  0  0  0  0  0  0  0  0  0  0
  -47.6515  -29.2119    7.1937 N   0  0  0  0  0  0  0  0  0  0  0  0
  -44.1062  -30.1658    2.5319 N   0  0  0  0  0  0  0  0  0  0  0  0
  -46.4162  -29.9857    2.4763 O   0  0  0  0  0  0  0  0  0  0  0  0
  -44.5403  -35.3032   -0.3560 S   0  0  0  0  0  0  0  0  0  0  0  0
  -48.4061  -29.6260    4.0410 H   0  0  0  0  0  0  0  0  0  0  0  0
  -49.6412  -29.1820    6.4224 H   0  0  0  0  0  0  0  0  0  0  0  0
  -43.2204  -29.5599    7.0240 H   0  0  0  0  0  0  0  0  0  0  0  0
  -43.7774  -32.4343    2.8266 H   0  0  0  0  0  0  0  0  0  0  0  0
  -43.0977  -33.6746    1.7759 H   0  0  0  0  0  0  0  0  0  0  0  0
  -42.6648  -32.9559   -0.8410 H   0  0  0  0  0  0  0  0  0  0  0  0
  -43.0992  -31.3070   -1.2829 H   0  0  0  0  0  0  0  0  0  0  0  0
  -45.4580  -34.1211    2.0924 H   0  0  0  0  0  0  0  0  0  0  0  0
  -45.9030  -32.4649    1.6719 H   0  0  0  0  0  0  0  0  0  0  0  0
  -45.4629  -31.7341   -0.9991 H   0  0  0  0  0  0  0  0  0  0  0  0
  -44.7762  -32.9935   -2.0281 H   0  0  0  0  0  0  0  0  0  0  0  0
  -42.1631  -31.5877    1.0600 H   0  0  0  0  0  0  0  0  0  0  0  0
  -46.4234  -33.8209   -0.2574 H   0  0  0  0  0  0  0  0  0  0  0  0
  -43.8909  -36.0533   -2.5499 H   0  0  0  0  0  0  0  0  0  0  0  0
  -45.3518  -35.0373   -2.6067 H   0  0  0  0  0  0  0  0  0  0  0  0
  -43.7523  -34.2858   -2.3910 H   0  0  0  0  0  0  0  0  0  0  0  0
  -43.3021  -29.5689    0.6950 H   0  0  0  0  0  0  0  0  0  0  0  0
  -44.8900  -30.3438    0.5957 H   0  0  0  0  0  0  0  0  0  0  0  0
  -47.8508  -29.0495    8.1710 H   0  0  0  0  0  0  0  0  0  0  0  0
  -43.2668  -30.0957    3.0903 H   0  0  0  0  0  0  0  0  0  0  0  0
  1  2  2  0  0  0  0
  1  4  1  0  0  0  0
  2 18  1  0  0  0  0
  3 16  1  0  0  0  0
  3 17  2  0  0  0  0
  4  5  1  0  0  0  0
  4  6  2  0  0  0  0
  5  7  1  0  0  0  0
  5 16  2  0  0  0  0
  6 17  1  0  0  0  0
  6 18  1  0  0  0  0
  7 19  1  0  0  0  0
  7 20  2  0  0  0  0
  8 10  1  0  0  0  0
  8 12  1  0  0  0  0
  9 11  1  0  0  0  0
  9 12  1  0  0  0  0
 10 13  1  0  0  0  0
 11 13  1  0  0  0  0
 12 15  1  0  0  0  0
 13 21  1  0  0  0  0
 14 21  1  0  0  0  0
 15 19  1  0  0  0  0
  1 22  1  0  0  0  0
  2 23  1  0  0  0  0
  3 24  1  0  0  0  0
  8 25  1  0  0  0  0
  8 26  1  0  0  0  0
  9 27  1  0  0  0  0
  9 28  1  0  0  0  0
 10 29  1  0  0  0  0
 10 30  1  0  0  0  0
 11 31  1  0  0  0  0
 11 32  1  0  0  0  0
 12 33  1  0  0  0  0
 13 34  1  0  0  0  0
 14 35  1  0  0  0  0
 14 36  1  0  0  0  0
 14 37  1  0  0  0  0
 15 38  1  0  0  0  0
 15 39  1  0  0  0  0
 18 40  1  0  0  0  0
 19 41  1  0  0  0  0
M  END
> <POSIT::Probability>
0.5

> <POSIT::Method>
HYBRID

> <ReceptorTitle>
UCSF-P4537-REFINED_LIGAND-BOUND-STATE_A__DU__LA1_A-201(A)

> <OMEGA_C>
4Lk/wjck7MEQNqBA+ltCwlRW6sFyTMZALcQwwhp87MHYUdFAPSw6woKb7MHEUqlACHs1wpYp7sG6
BZJAUZs5wrYO68F+HdVArWs1wq/s78FHD0ZAthwvwvY5A8KkyOQ/L4Utwg2VAMI4Wx+/oMI0wo4a
BcKAv7Y/FyozwhN1AsKsl3y/Rfwswkm9/cHwaFg/jV81wmW/BsIAxSe9S3gxwpSfDMLncAnA37Ev
wgzy8sEeRY0/MLcwwqIW7sFIiaZAJQA1wvbm6sE4TutAJZs+wvCx6cGeMuZAu2wwwpNT8cErCiJA
O6o5wrvi78GQex5ARCkywnM2DcKARLa+1J9BwvgB7cGaT4FAjJBGwsV06cFvhM1ApuEswqp67MFY
xOBABhwvwra8AcII5zRADGQswteyBsI4UOM/vKgqwtnSA8JwTle/n2UswsZ0+sGGNqS/89Q1wgx8
CMJ86gVAp5w3whrcAcKyANY//9k1wmjf/cHQxH+/2Rozwlb5A8KozAHABqcowqmz/ME+roc/g7E5
wpZIB8KYzoO+QJAvwoo2EMLZMSPAQWg1wj4mDMJJ1CbAVwIvwp0kCcKdBRnAWDUtwg+N7MEA7jE/
ZI8zwhnA8sFAghg/MGc/wkxl6MGBvAJBPBEtwvbD8MFEx0VA

> <OMEGA_E>
eBMMwQ==

> <OMEGA_NBR>
     15506

$$$$
CACHE3HI_1697_49
  -OEChem-03092622543D

 53 54  0     0  0  0  0  0  0999 V2000
  -48.7981  -28.7886    6.1590 C   0  0  0  0  0  0  0  0  0  0  0  0
  -45.2781  -30.1178    0.9385 C   0  0  0  0  0  0  0  0  0  0  0  0
  -47.4948  -28.6731    5.6755 C   0  0  0  0  0  0  0  0  0  0  0  0
  -49.5309  -29.9505    5.9165 C   0  0  0  0  0  0  0  0  0  0  0  0
  -46.5076  -29.6954    0.4330 C   0  0  0  0  0  0  0  0  0  0  0  0
  -44.1743  -29.2666    0.8878 C   0  0  0  0  0  0  0  0  0  0  0  0
  -46.9242  -29.7191    4.9501 C   0  0  0  0  0  0  0  0  0  0  0  0
  -48.9603  -30.9965    5.1911 C   0  0  0  0  0  0  0  0  0  0  0  0
  -47.6570  -30.8809    4.7076 C   0  0  0  0  0  0  0  0  0  0  0  0
  -45.5296  -27.5710   -0.1735 C   0  0  0  0  0  0  0  0  0  0  0  0
  -46.6335  -28.4221   -0.1228 C   0  0  0  0  0  0  0  0  0  0  0  0
  -44.3001  -27.9934    0.3320 C   0  0  0  0  0  0  0  0  0  0  0  0
  -42.8786  -29.7161    1.4206 C   0  0  0  0  0  0  0  0  0  0  0  0
  -47.5291  -32.4881    2.7730 C   0  0  0  0  0  0  0  0  0  0  0  0
  -44.3457  -32.6473    1.9606 C   0  0  0  0  0  0  0  0  0  0  0  0
  -45.5265  -29.5647    4.4440 C   0  0  0  0  0  0  0  0  0  0  0  0
  -49.7721  -32.2272    4.9457 C   0  0  0  0  0  0  0  0  0  0  0  0
  -41.2965  -31.5491    1.8820 C   0  0  0  0  0  0  0  0  0  0  0  0
  -46.0206  -25.2683    0.1637 C   0  0  0  0  0  0  0  0  0  0  0  0
  -46.6132  -33.6123    2.3252 C   0  0  0  0  0  0  0  0  0  0  0  0
  -43.4665  -32.1170    0.8483 C   0  0  0  0  0  0  0  0  0  0  0  0
  -47.0784  -31.9424    3.9713 N   0  0  0  0  0  0  0  0  0  0  0  0
  -45.5659  -33.0941    1.4741 N   0  0  0  0  0  0  0  0  0  0  0  0
  -42.5963  -31.1020    1.3636 N   0  0  0  0  0  0  0  0  0  0  0  0
  -42.1388  -28.8394    1.8644 O   0  0  0  0  0  0  0  0  0  0  0  0
  -48.4978  -32.1317    2.1096 O   0  0  0  0  0  0  0  0  0  0  0  0
  -44.0152  -32.6378    3.1437 O   0  0  0  0  0  0  0  0  0  0  0  0
  -45.6529  -26.3293   -0.7170 O   0  0  0  0  0  0  0  0  0  0  0  0
  -47.8173  -28.0227   -0.6072 F   0  0  0  0  0  0  0  0  0  0  0  0
  -43.2417  -27.1709    0.2822 F   0  0  0  0  0  0  0  0  0  0  0  0
  -49.2428  -27.9742    6.7231 H   0  0  0  0  0  0  0  0  0  0  0  0
  -45.1916  -31.1121    1.3687 H   0  0  0  0  0  0  0  0  0  0  0  0
  -46.9322  -27.7640    5.8699 H   0  0  0  0  0  0  0  0  0  0  0  0
  -50.5457  -30.0312    6.2975 H   0  0  0  0  0  0  0  0  0  0  0  0
  -47.3670  -30.3582    0.4722 H   0  0  0  0  0  0  0  0  0  0  0  0
  -44.7973  -29.9297    5.1775 H   0  0  0  0  0  0  0  0  0  0  0  0
  -45.2893  -28.5108    4.2536 H   0  0  0  0  0  0  0  0  0  0  0  0
  -45.3968  -30.1267    3.5122 H   0  0  0  0  0  0  0  0  0  0  0  0
  -50.3429  -32.1452    4.0128 H   0  0  0  0  0  0  0  0  0  0  0  0
  -50.4976  -32.3892    5.7522 H   0  0  0  0  0  0  0  0  0  0  0  0
  -49.1191  -33.1048    4.8806 H   0  0  0  0  0  0  0  0  0  0  0  0
  -41.3689  -31.7883    2.9469 H   0  0  0  0  0  0  0  0  0  0  0  0
  -40.9615  -32.4404    1.3441 H   0  0  0  0  0  0  0  0  0  0  0  0
  -40.5467  -30.7644    1.7487 H   0  0  0  0  0  0  0  0  0  0  0  0
  -46.0839  -24.3325   -0.3978 H   0  0  0  0  0  0  0  0  0  0  0  0
  -46.9950  -25.4930    0.6041 H   0  0  0  0  0  0  0  0  0  0  0  0
  -45.2764  -25.1789    0.9584 H   0  0  0  0  0  0  0  0  0  0  0  0
  -47.1704  -34.3604    1.7547 H   0  0  0  0  0  0  0  0  0  0  0  0
  -46.1497  -34.0782    3.1997 H   0  0  0  0  0  0  0  0  0  0  0  0
  -42.8464  -32.9153    0.4307 H   0  0  0  0  0  0  0  0  0  0  0  0
  -44.0881  -31.6785    0.0632 H   0  0  0  0  0  0  0  0  0  0  0  0
  -46.2337  -32.3421    4.3754 H   0  0  0  0  0  0  0  0  0  0  0  0
  -45.7310  -33.0553    0.4726 H   0  0  0  0  0  0  0  0  0  0  0  0
  1  3  2  0  0  0  0
  1  4  1  0  0  0  0
  2  5  2  0  0  0  0
  2  6  1  0  0  0  0
  3  7  1  0  0  0  0
  4  8  2  0  0  0  0
  5 11  1  0  0  0  0
  6 12  2  0  0  0  0
  6 13  1  0  0  0  0
  7  9  2  0  0  0  0
  7 16  1  0  0  0  0
  8  9  1  0  0  0  0
  8 17  1  0  0  0  0
  9 22  1  0  0  0  0
 10 11  2  0  0  0  0
 10 12  1  0  0  0  0
 10 28  1  0  0  0  0
 11 29  1  0  0  0  0
 12 30  1  0  0  0  0
 13 24  1  0  0  0  0
 13 25  2  0  0  0  0
 14 20  1  0  0  0  0
 14 22  1  0  0  0  0
 14 26  2  0  0  0  0
 15 21  1  0  0  0  0
 15 23  1  0  0  0  0
 15 27  2  0  0  0  0
 18 24  1  0  0  0  0
 19 28  1  0  0  0  0
 20 23  1  0  0  0  0
 21 24  1  0  0  0  0
  1 31  1  0  0  0  0
  2 32  1  0  0  0  0
  3 33  1  0  0  0  0
  4 34  1  0  0  0  0
  5 35  1  0  0  0  0
 16 36  1  0  0  0  0
 16 37  1  0  0  0  0
 16 38  1  0  0  0  0
 17 39  1  0  0  0  0
 17 40  1  0  0  0  0
 17 41  1  0  0  0  0
 18 42  1  0  0  0  0
 18 43  1  0  0  0  0
 18 44  1  0  0  0  0
 19 45  1  0  0  0  0
 19 46  1  0  0  0  0
 19 47  1  0  0  0  0
 20 48  1  0  0  0  0
 20 49  1  0  0  0  0
 21 50  1  0  0  0  0
 21 51  1  0  0  0  0
 22 52  1  0  0  0  0
 23 53  1  0  0  0  0
M  END
> <POSIT::Probability>
0.24

> <POSIT::Method>
FRED

> <ReceptorTitle>
UCSF-P4537-REFINED_LIGAND-BOUND-STATE_A__DU__LA1_A-201(A)

> <OMEGA_C>
TDFDwiZP5sFYFsVAuhw1wk7x8MEsQXA/tPo9wn1i5cHqnbVAmh9Gwoaa78EuVL1AyAc6wj2Q7cFK
s90+cbIwwhki6sElRmM/abI7wrTA7cHxZp5AUNdDwr7498E0HaZAxKA+wiYM98HLpJZATh42wk+R
3MHApDG+qIg6wotg48HAdfu9TzMxwmny38Gk+6k+roMrwpq67cFi1bU/0R0+ws/zAcL5eDFA/mEx
wsqWAsLk9Po/Gxs2woyE7MGMNY5AqhZHwqToAMLPQp5AoC8lwoRk/MHt5vA/ExU4wm0lysGKoCc+
83M6wv1yBsJQzxRAt90twtN3AMLVLFk/RFA8wvSJ/8HQKX5AdEM2wmJgBMJyr7w/o2IqwtrQ+MGa
i64/Ho4owv625sG2pe4/xv1Bwt+GAMJbAwdAlA8wwhKNAsIyM0lAk5w2wn6i0sEGize/7UQ/woAu
4MHAbxu/ePcswgde2cEaeZA+rfhEwinL38EAJNdAP8Q0wpzl+MFcMK8/jro7wpgc3sGg1rtA0y5K
wvE/8MEShclA2Xc9woDd8sG+wvE+eTAzwhVw78FgrqVAPCg1wiMW5MEuHYhAUZY1wm0D8cFJx2BA
LF9JwrSUAMLGaIBAlP1JwoaOAcI5ErhA+HlEwlBrBMKWLZxAuHklwoRO/sFGmjxAjNgjwvDCAcKA
C6w/zC8iwnMd9sG81t8/6lU4wgipwsGapsu+2Po7wsDxy8GQpho//Bo1wl1uycGLWXU/gK48wg9x
CcIYmuA/VJk4whRQCMJFx0xAvGIrwkmpA8IkhNw+Plowwnxt/cEAbYE9WO84wkZeAcJnA4xAjOw2
wqg4BML89fE+

> <OMEGA_E>
a03cwA==

> <OMEGA_NBR>
     17052

$$$$
CACHE3HI_1697_68
  -OEChem-03092622543D

 56 59  0     1  0  0  0  0  0999 V2000
  -42.9139  -29.3492    1.3699 C   0  0  0  0  0  0  0  0  0  0  0  0
  -43.5057  -30.6088    1.4641 C   0  0  0  0  0  0  0  0  0  0  0  0
  -49.4346  -29.2526    6.4286 C   0  0  0  0  0  0  0  0  0  0  0  0
  -42.4732  -36.0613   -3.7825 C   0  0  0  0  0  0  0  0  0  0  0  0
  -43.6548  -28.2644    0.9012 C   0  0  0  0  0  0  0  0  0  0  0  0
  -48.3414  -28.8612    5.6555 C   0  0  0  0  0  0  0  0  0  0  0  0
  -42.2288  -34.8936   -4.5121 C   0  0  0  0  0  0  0  0  0  0  0  0
  -43.6357  -33.5796   -3.0176 C   0  0  0  0  0  0  0  0  0  0  0  0
  -45.5791  -29.6988    0.6213 C   0  0  0  0  0  0  0  0  0  0  0  0
  -44.4850  -36.4038   -0.8925 C   0  0  0  0  0  0  0  0  0  0  0  0
  -43.8937  -34.7415   -2.2689 C   0  0  0  0  0  0  0  0  0  0  0  0
  -44.6552  -35.0569   -1.1123 C   0  0  0  0  0  0  0  0  0  0  0  0
  -48.2397  -31.0693    4.6798 C   0  0  0  0  0  0  0  0  0  0  0  0
  -44.8382  -30.7836    1.0900 C   0  0  0  0  0  0  0  0  0  0  0  0
  -49.9303  -30.5523    6.3271 C   0  0  0  0  0  0  0  0  0  0  0  0
  -43.3081  -35.9367   -2.6734 C   0  0  0  0  0  0  0  0  0  0  0  0
  -44.9873  -28.4392    0.5271 C   0  0  0  0  0  0  0  0  0  0  0  0
  -42.7988  -33.6738   -4.1389 C   0  0  0  0  0  0  0  0  0  0  0  0
  -47.7440  -29.7695    4.7813 C   0  0  0  0  0  0  0  0  0  0  0  0
  -49.3328  -31.4605    5.4529 C   0  0  0  0  0  0  0  0  0  0  0  0
  -45.4569  -34.1904   -0.2989 C   0  0  0  0  0  0  0  0  0  0  0  0
  -47.6025  -32.0357    3.7497 C   0  0  0  0  0  0  0  0  0  0  0  0
  -51.0988  -30.9682    7.1557 C   0  0  0  0  0  0  0  0  0  0  0  0
  -45.0440  -26.1206   -0.0001 C   0  0  0  0  0  0  0  0  0  0  0  0
  -45.4900  -32.6988    2.6300 C   0  0  0  0  0  0  0  0  0  0  0  0
  -45.4823  -32.1554    1.1932 C   0  0  2  0  0  0  0  0  0  0  0  0
  -46.2439  -31.8581    3.5231 N   0  0  0  0  0  0  0  0  0  0  0  0
  -44.8172  -33.1026    0.3277 N   0  0  0  0  0  0  0  0  0  0  0  0
  -46.6818  -34.4019   -0.1325 O   0  0  0  0  0  0  0  0  0  0  0  0
  -48.2909  -32.9074    3.2257 O   0  0  0  0  0  0  0  0  0  0  0  0
  -43.6699  -36.9471   -1.8340 O   0  0  0  0  0  0  0  0  0  0  0  0
  -45.7105  -27.3804    0.0705 O   0  0  0  0  0  0  0  0  0  0  0  0
  -42.5422  -32.5755   -4.8629 F   0  0  0  0  0  0  0  0  0  0  0  0
  -46.6932  -29.3822    4.0445 F   0  0  0  0  0  0  0  0  0  0  0  0
  -49.8109  -32.7104    5.3571 F   0  0  0  0  0  0  0  0  0  0  0  0
  -41.8766  -29.2133    1.6611 H   0  0  0  0  0  0  0  0  0  0  0  0
  -42.9212  -31.4488    1.8303 H   0  0  0  0  0  0  0  0  0  0  0  0
  -49.8924  -28.5380    7.1076 H   0  0  0  0  0  0  0  0  0  0  0  0
  -42.0348  -37.0106   -4.0658 H   0  0  0  0  0  0  0  0  0  0  0  0
  -43.1886  -27.2855    0.8300 H   0  0  0  0  0  0  0  0  0  0  0  0
  -47.9544  -27.8496    5.7345 H   0  0  0  0  0  0  0  0  0  0  0  0
  -41.5832  -34.9363   -5.3857 H   0  0  0  0  0  0  0  0  0  0  0  0
  -44.0705  -32.6237   -2.7411 H   0  0  0  0  0  0  0  0  0  0  0  0
  -46.6180  -29.8315    0.3287 H   0  0  0  0  0  0  0  0  0  0  0  0
  -44.8557  -37.0937   -0.1478 H   0  0  0  0  0  0  0  0  0  0  0  0
  -52.0456  -30.7793    6.6332 H   0  0  0  0  0  0  0  0  0  0  0  0
  -51.1382  -30.4067    8.0985 H   0  0  0  0  0  0  0  0  0  0  0  0
  -51.0388  -32.0380    7.3905 H   0  0  0  0  0  0  0  0  0  0  0  0
  -45.7339  -25.3628   -0.3803 H   0  0  0  0  0  0  0  0  0  0  0  0
  -44.7113  -25.8377    1.0015 H   0  0  0  0  0  0  0  0  0  0  0  0
  -44.1770  -26.2027   -0.6596 H   0  0  0  0  0  0  0  0  0  0  0  0
  -45.9612  -33.6881    2.6669 H   0  0  0  0  0  0  0  0  0  0  0  0
  -44.4810  -32.7960    3.0461 H   0  0  0  0  0  0  0  0  0  0  0  0
  -46.5242  -32.0835    0.8547 H   0  0  0  0  0  0  0  0  0  0  0  0
  -45.7572  -31.0723    3.9474 H   0  0  0  0  0  0  0  0  0  0  0  0
  -43.8135  -33.0028    0.2189 H   0  0  0  0  0  0  0  0  0  0  0  0
  1  2  2  0  0  0  0
  1  5  1  0  0  0  0
  2 14  1  0  0  0  0
  3  6  2  0  0  0  0
  3 15  1  0  0  0  0
  4  7  1  0  0  0  0
  4 16  2  0  0  0  0
  5 17  2  0  0  0  0
  6 19  1  0  0  0  0
  7 18  2  0  0  0  0
  8 11  2  0  0  0  0
  8 18  1  0  0  0  0
  9 14  2  0  0  0  0
  9 17  1  0  0  0  0
 10 12  2  0  0  0  0
 10 31  1  0  0  0  0
 11 12  1  0  0  0  0
 11 16  1  0  0  0  0
 12 21  1  0  0  0  0
 13 19  2  0  0  0  0
 13 20  1  0  0  0  0
 13 22  1  0  0  0  0
 14 26  1  0  0  0  0
 15 20  2  0  0  0  0
 15 23  1  0  0  0  0
 16 31  1  0  0  0  0
 17 32  1  0  0  0  0
 18 33  1  0  0  0  0
 19 34  1  0  0  0  0
 20 35  1  0  0  0  0
 21 28  1  0  0  0  0
 21 29  2  0  0  0  0
 22 27  1  0  0  0  0
 22 30  2  0  0  0  0
 24 32  1  0  0  0  0
 25 26  1  0  0  0  0
 25 27  1  0  0  0  0
 26 28  1  0  0  0  0
  1 36  1  0  0  0  0
  2 37  1  0  0  0  0
  3 38  1  0  0  0  0
  4 39  1  0  0  0  0
  5 40  1  0  0  0  0
  6 41  1  0  0  0  0
  7 42  1  0  0  0  0
  8 43  1  0  0  0  0
  9 44  1  0  0  0  0
 10 45  1  0  0  0  0
 23 46  1  0  0  0  0
 23 47  1  0  0  0  0
 23 48  1  0  0  0  0
 24 49  1  0  0  0  0
 24 50  1  0  0  0  0
 24 51  1  0  0  0  0
 25 52  1  0  0  0  0
 25 53  1  0  0  0  0
 26 54  1  0  0  0  0
 27 55  1  0  0  0  0
 28 56  1  0  0  0  0
M  END
> <POSIT::Probability>
0.05

> <POSIT::Method>
FRED

> <ReceptorTitle>
UCSF-P4537-REFINED_LIGAND-BOUND-STATE_A__DU__LA1_A-201(A)

> <OMEGA_C>
yqcrwjLL6sEKWa8/1AUuwtTe9MHmaLs/Ab1FwjwF6sEkt81AlOQpwsM+EMLiE3LAiJ4uwpcd4sH6
s2Y/pV1BwtTj5sEN+rRAQOoowg+TC8J5Y5DAAosuwoJRBsKGIEHAClE2whKX7cH2DR8/nvAxwoed
EcJifGS/J5Mvwk/3CsItNRHA9p4ywjc6DMLBYI6/gPVAwt+N+MEewZVASlozwsxE9sGShos/n7hH
wihr9MFfd8pAczstwiO/D8LJGCvA/vIzwo6D48FY7wY/8zErwgCyBsL0cYTA2Pk+wton7sHKAJlA
0lRFwi6v+8Ebfq5A09M1wv/CCMKbDZm+72g+wo4kAMKZ+m9AIWVMws++98Gs++RACi00wgz30MEA
MLy4y/U1wonLAsKuUShA2+01whmfAMI/u5g/w/k4wm3d/sF/emFA2EQzwgZpBMJJxac+Jbo6woGb
CcL2uAe+2SlBwjehA8Igck5A8K0uwtPJE8Jzv+q/ldc2wikL28EUUZA9OysqwkxNAsLMnJvA3sU6
wsIO68FBbIFAZz5HwnfXAsJ5batAmIEnwti06cFintQ/Wq8rwhOX+8ERSOo/2ZFHwtVN5MFjceNA
oSMowtAKFMLaGoLALcEswsBI2sGceVQ/T9E/wv3L3sHmgLdAJlUmwsq+C8LNV6zAMkgwwq5+AsKN
bS/A1ng6wtWm7sEFS6g+RmwzwvtfFMJ+Xxe+tC5Qwuk79sFuQ9RAh41MwuVA88FOkwFBsSdMwuUm
AMLufuxAiO82wgDnysF/sMK+Utgywo+zzsFhMIA/NLUwwiKf0cG62ii/TNg3wqPABsIHripAiuwx
whcvA8KY80JAuxg6woxVAMJMzlo/aAc3whKU+MFOonxABUEvwuoCBMJ6ImA+

> <OMEGA_E>
7CH5wA==

> <OMEGA_NBR>
     18667

$$$$
CACHE3HI_1702_21
  -OEChem-03092622543D

 38 40  0     0  0  0  0  0  0999 V2000
  -42.8216  -29.5515    0.7438 C   0  0  0  0  0  0  0  0  0  0  0  0
  -42.2289  -30.7903    0.9885 C   0  0  0  0  0  0  0  0  0  0  0  0
  -50.6384  -29.3316    4.1700 C   0  0  0  0  0  0  0  0  0  0  0  0
  -44.0391  -29.2308    1.3440 C   0  0  0  0  0  0  0  0  0  0  0  0
  -51.8702  -29.1267    4.8008 C   0  0  0  0  0  0  0  0  0  0  0  0
  -42.8534  -31.7080    1.8333 C   0  0  0  0  0  0  0  0  0  0  0  0
  -49.5203  -29.6458    6.3175 C   0  0  0  0  0  0  0  0  0  0  0  0
  -49.4733  -29.5893    4.9221 C   0  0  0  0  0  0  0  0  0  0  0  0
  -50.7484  -29.4402    6.9028 C   0  0  0  0  0  0  0  0  0  0  0  0
  -44.6636  -30.1485    2.1889 C   0  0  0  0  0  0  0  0  0  0  0  0
  -51.8927  -29.1881    6.1771 C   0  0  0  0  0  0  0  0  0  0  0  0
  -44.0709  -31.3873    2.4336 C   0  0  0  0  0  0  0  0  0  0  0  0
  -52.4770  -29.1779    8.2772 C   0  0  0  0  0  0  0  0  0  0  0  0
  -46.6185  -28.6181    2.6550 C   0  0  0  0  0  0  0  0  0  0  0  0
  -48.1756  -29.8038    4.2162 C   0  0  0  0  0  0  0  0  0  0  0  0
  -45.9601  -32.7577    2.8926 C   0  0  0  0  0  0  0  0  0  0  0  0
  -51.1163  -29.4334    8.2218 N   0  0  0  0  0  0  0  0  0  0  0  0
  -45.8971  -29.8074    2.7921 N   0  0  0  0  0  0  0  0  0  0  0  0
  -47.7945  -28.6689    3.4161 N   0  0  0  0  0  0  0  0  0  0  0  0
  -53.1598  -29.0969    9.2906 O   0  0  0  0  0  0  0  0  0  0  0  0
  -46.3027  -27.6446    1.9753 O   0  0  0  0  0  0  0  0  0  0  0  0
  -53.0067  -29.0151    6.9840 O   0  0  0  0  0  0  0  0  0  0  0  0
  -44.6643  -32.2982    3.2559 O   0  0  0  0  0  0  0  0  0  0  0  0
  -46.8529  -32.3602    3.8318 F   0  0  0  0  0  0  0  0  0  0  0  0
  -46.3072  -32.1300    1.7395 F   0  0  0  0  0  0  0  0  0  0  0  0
  -42.3349  -28.8373    0.0863 H   0  0  0  0  0  0  0  0  0  0  0  0
  -41.2808  -31.0396    0.5214 H   0  0  0  0  0  0  0  0  0  0  0  0
  -50.5861  -29.2906    3.0843 H   0  0  0  0  0  0  0  0  0  0  0  0
  -44.4920  -28.2629    1.1452 H   0  0  0  0  0  0  0  0  0  0  0  0
  -52.7664  -28.9284    4.2248 H   0  0  0  0  0  0  0  0  0  0  0  0
  -42.3850  -32.6706    2.0207 H   0  0  0  0  0  0  0  0  0  0  0  0
  -48.6333  -29.8419    6.9088 H   0  0  0  0  0  0  0  0  0  0  0  0
  -47.3636  -29.9924    4.9312 H   0  0  0  0  0  0  0  0  0  0  0  0
  -48.2204  -30.6752    3.5491 H   0  0  0  0  0  0  0  0  0  0  0  0
  -46.0097  -33.8400    2.7298 H   0  0  0  0  0  0  0  0  0  0  0  0
  -50.4970  -29.5886    9.0074 H   0  0  0  0  0  0  0  0  0  0  0  0
  -46.3086  -30.5129    3.3986 H   0  0  0  0  0  0  0  0  0  0  0  0
  -48.3955  -27.8474    3.4296 H   0  0  0  0  0  0  0  0  0  0  0  0
  1  2  1  0  0  0  0
  1  4  2  0  0  0  0
  2  6  2  0  0  0  0
  3  5  2  0  0  0  0
  3  8  1  0  0  0  0
  4 10  1  0  0  0  0
  5 11  1  0  0  0  0
  6 12  1  0  0  0  0
  7  8  2  0  0  0  0
  7  9  1  0  0  0  0
  8 15  1  0  0  0  0
  9 11  2  0  0  0  0
  9 17  1  0  0  0  0
 10 12  2  0  0  0  0
 10 18  1  0  0  0  0
 11 22  1  0  0  0  0
 12 23  1  0  0  0  0
 13 17  1  0  0  0  0
 13 20  2  0  0  0  0
 13 22  1  0  0  0  0
 14 18  1  0  0  0  0
 14 19  1  0  0  0  0
 14 21  2  0  0  0  0
 15 19  1  0  0  0  0
 16 23  1  0  0  0  0
 16 24  1  0  0  0  0
 16 25  1  0  0  0  0
  1 26  1  0  0  0  0
  2 27  1  0  0  0  0
  3 28  1  0  0  0  0
  4 29  1  0  0  0  0
  5 30  1  0  0  0  0
  6 31  1  0  0  0  0
  7 32  1  0  0  0  0
 15 33  1  0  0  0  0
 15 34  1  0  0  0  0
 16 35  1  0  0  0  0
 17 36  1  0  0  0  0
 18 37  1  0  0  0  0
 19 38  1  0  0  0  0
M  END
> <POSIT::Probability>
0.05

> <POSIT::Method>
FRED

> <ReceptorTitle>
UCSF-P4537-REFINED_LIGAND-BOUND-STATE_A__DU__LA1_A-201(A)

> <OMEGA_C>
W0krwnBp7MFIaD4/cOoownNS9sEoC30/rY1Kwiun6sHBcIVAEigwwqnY6cEACaw/D3tPwmoD6cHY
n5lA2mkrwgKq/cGYquo/wRRGwq4q7cH7KMpAs+RFwtS27MHpgZ1AYP5KwpCF68HR49xAfKcywjkw
8cH+FgxAGJJPwjKB6cGaqsVAnUgwwigZ+8HmvxtAZuhRwkZs6cFZbwRBUHk6wvXx5MHO6ylA2bNA
wkZu7sHy6oZAL9c3wugHA8KOHzlAFHdMwqh368GGjANBoJY3wqh17sE0sTJAky0/wtxZ5cEMoVpA
q6NUwl/G6MEophRB+jU5whwo3cE42Pw/6AZUwvwe6MGyfN9AMqgywlMxAcI4YFBAYmk7wtpwAcLm
O3VAiDo5whWFAMKMqd4/8FYpwtCy5sHAzrA9hB8lwiNR+MFweQU/KlhKwg9T6sEwZUVAw/cxwmYa
4sFYlpI/zxBTwnNt58F3MYdANYopwrauAsLQUgFAeohCwj287sEHFd1AUXQ9wmXw78FEzJ1AuuFA
wrdm9cF6JGNA6wk4wihcB8K4tC5A6/xJwmC17MFmHhBBAzw5wlca9MFMg1lA/JRBwmrH3sHIfVtA

> <OMEGA_E>
1nQSwQ==

> <OMEGA_NBR>
     19918

$$$$
CACHE3HI_1702_37
  -OEChem-03092622543D

 35 37  0     0  0  0  0  0  0999 V2000
  -44.9041  -26.4581    0.5536 C   0  0  0  0  0  0  0  0  0  0  0  0
  -43.6278  -26.6303    1.0894 C   0  0  0  0  0  0  0  0  0  0  0  0
  -48.0145  -29.5194    6.6674 C   0  0  0  0  0  0  0  0  0  0  0  0
  -45.7952  -27.5304    0.5176 C   0  0  0  0  0  0  0  0  0  0  0  0
  -47.2895  -29.5040    5.4730 C   0  0  0  0  0  0  0  0  0  0  0  0
  -43.2428  -27.8744    1.5892 C   0  0  0  0  0  0  0  0  0  0  0  0
  -49.3355  -29.2268    4.1651 C   0  0  0  0  0  0  0  0  0  0  0  0
  -49.3801  -29.3880    6.5625 C   0  0  0  0  0  0  0  0  0  0  0  0
  -47.9443  -29.3587    4.2323 C   0  0  0  0  0  0  0  0  0  0  0  0
  -45.4102  -28.7746    1.0174 C   0  0  0  0  0  0  0  0  0  0  0  0
  -50.0296  -29.2457    5.3552 C   0  0  0  0  0  0  0  0  0  0  0  0
  -44.1340  -28.9468    1.5532 C   0  0  0  0  0  0  0  0  0  0  0  0
  -51.5719  -29.2124    6.8954 C   0  0  0  0  0  0  0  0  0  0  0  0
  -47.2664  -30.2257    1.9500 C   0  0  0  0  0  0  0  0  0  0  0  0
  -43.1127  -31.0553    1.1419 C   0  0  0  0  0  0  0  0  0  0  0  0
  -50.3496  -29.3667    7.5293 N   0  0  0  0  0  0  0  0  0  0  0  0
  -47.1924  -29.3451    3.0563 N   0  0  0  0  0  0  0  0  0  0  0  0
  -46.3266  -29.8521    0.9759 N   0  0  0  0  0  0  0  0  0  0  0  0
  -52.6683  -29.1511    7.4375 O   0  0  0  0  0  0  0  0  0  0  0  0
  -48.0407  -31.1734    1.8621 O   0  0  0  0  0  0  0  0  0  0  0  0
  -51.4036  -29.1313    5.5009 O   0  0  0  0  0  0  0  0  0  0  0  0
  -43.7380  -30.1540    2.0470 O   0  0  0  0  0  0  0  0  0  0  0  0
  -42.8837  -32.2327    1.7731 F   0  0  0  0  0  0  0  0  0  0  0  0
  -44.0001  -31.3162    0.1477 F   0  0  0  0  0  0  0  0  0  0  0  0
  -45.2034  -25.4893    0.1650 H   0  0  0  0  0  0  0  0  0  0  0  0
  -42.9342  -25.7951    1.1177 H   0  0  0  0  0  0  0  0  0  0  0  0
  -47.5182  -29.6301    7.6240 H   0  0  0  0  0  0  0  0  0  0  0  0
  -46.7868  -27.3846    0.0968 H   0  0  0  0  0  0  0  0  0  0  0  0
  -46.2070  -29.6055    5.5101 H   0  0  0  0  0  0  0  0  0  0  0  0
  -42.2473  -28.0009    2.0067 H   0  0  0  0  0  0  0  0  0  0  0  0
  -49.8507  -29.1134    3.2177 H   0  0  0  0  0  0  0  0  0  0  0  0
  -42.1943  -30.6585    0.6953 H   0  0  0  0  0  0  0  0  0  0  0  0
  -50.1899  -29.4498    8.5255 H   0  0  0  0  0  0  0  0  0  0  0  0
  -46.4902  -28.6030    2.9707 H   0  0  0  0  0  0  0  0  0  0  0  0
  -46.2964  -30.4221    0.1343 H   0  0  0  0  0  0  0  0  0  0  0  0
  1  2  1  0  0  0  0
  1  4  2  0  0  0  0
  2  6  2  0  0  0  0
  3  5  2  0  0  0  0
  3  8  1  0  0  0  0
  4 10  1  0  0  0  0
  5  9  1  0  0  0  0
  6 12  1  0  0  0  0
  7  9  2  0  0  0  0
  7 11  1  0  0  0  0
  8 11  2  0  0  0  0
  8 16  1  0  0  0  0
  9 17  1  0  0  0  0
 10 12  2  0  0  0  0
 10 18  1  0  0  0  0
 11 21  1  0  0  0  0
 12 22  1  0  0  0  0
 13 16  1  0  0  0  0
 13 19  2  0  0  0  0
 13 21  1  0  0  0  0
 14 17  1  0  0  0  0
 14 18  1  0  0  0  0
 14 20  2  0  0  0  0
 15 22  1  0  0  0  0
 15 23  1  0  0  0  0
 15 24  1  0  0  0  0
  1 25  1  0  0  0  0
  2 26  1  0  0  0  0
  3 27  1  0  0  0  0
  4 28  1  0  0  0  0
  5 29  1  0  0  0  0
  6 30  1  0  0  0  0
  7 31  1  0  0  0  0
 15 32  1  0  0  0  0
 16 33  1  0  0  0  0
 17 34  1  0  0  0  0
 18 35  1  0  0  0  0
M  END
> <POSIT::Probability>
0.02

> <POSIT::Method>
FRED

> <ReceptorTitle>
UCSF-P4537-REFINED_LIGAND-BOUND-STATE_A__DU__LA1_A-201(A)

> <OMEGA_C>
yZ0zwh+q08FUtw0/1oIuwt8K1cH0b4s/2w5Awqcn7MGnW9VAVi43wlU+3MFEfgQ/aig9wjMI7MER
I69AlPgswt7+3sHaa8s/gVdFwnHQ6cGpSIVAQIVFwoga68HD/9FA98Y/wp7e6sEib4dAE6Q1wlUy
5sEGO4I/Vx5Iwkr36cHCXatALokwwiOT58HYzsY/pElOwv6y6cH/ptxA1xA9wlLO8cEgmfk/ZHMs
wlBx+MFCKJI/+2VJwgLv6sFN8PBA+cQ8wt7C6sHLmUNAc045wh/R7sFk0nk/Y6xSwmE16cGd/+1A
pSlAwjJj+cEwWu4/S51NwtIM6cExB7BAqvMuwnE78cFDAQNA7YgrwlHuAMKY9eI/FAAwwqiH+sFR
ORc+RdA0wv7py8Gx8Cg+nbwrwnZczsFSEo8/ohI+woQK7cGC9/NAqiU7wqUT28GiVMY969M4whLY
7MGiUrBARf0owtMB4MFxbQBAFWdHwjHo6MEZ701A/sYowpJE9cGI/zE/eMJIwh2Z68F9aAhB8PU5
wurS5MEvID5Afy85wmNg88HRiQk+

> <OMEGA_E>
bW/rwA==

> <OMEGA_NBR>
     21109

$$$$
CACHE3HI_1702_82
  -OEChem-03092622543D

 42 44  0     0  0  0  0  0  0999 V2000
  -45.8464  -27.4996    0.6901 C   0  0  0  0  0  0  0  0  0  0  0  0
  -44.4567  -27.4345    0.5883 C   0  0  0  0  0  0  0  0  0  0  0  0
  -50.0069  -29.2970    4.0082 C   0  0  0  0  0  0  0  0  0  0  0  0
  -46.4498  -28.6013    1.2964 C   0  0  0  0  0  0  0  0  0  0  0  0
  -51.2956  -28.9956    4.4615 C   0  0  0  0  0  0  0  0  0  0  0  0
  -43.6707  -28.4706    1.0929 C   0  0  0  0  0  0  0  0  0  0  0  0
  -49.2530  -29.7789    6.2798 C   0  0  0  0  0  0  0  0  0  0  0  0
  -48.9942  -29.6856    4.9098 C   0  0  0  0  0  0  0  0  0  0  0  0
  -45.6638  -29.6374    1.8010 C   0  0  0  0  0  0  0  0  0  0  0  0
  -50.5313  -29.4758    6.6887 C   0  0  0  0  0  0  0  0  0  0  0  0
  -51.5279  -29.0955    5.8160 C   0  0  0  0  0  0  0  0  0  0  0  0
  -44.2742  -29.5723    1.6992 C   0  0  0  0  0  0  0  0  0  0  0  0
  -52.4147  -29.0925    7.8073 C   0  0  0  0  0  0  0  0  0  0  0  0
  -47.6644  -29.9922    4.4059 C   0  0  0  0  0  0  0  0  0  0  0  0
  -41.2043  -31.0441    1.6839 C   0  0  0  0  0  0  0  0  0  0  0  0
  -43.0156  -32.7256    1.2186 C   0  0  0  0  0  0  0  0  0  0  0  0
  -46.3312  -30.8157    2.4503 C   0  0  0  0  0  0  0  0  0  0  0  0
  -42.6480  -31.2502    1.2548 C   0  0  0  0  0  0  0  0  0  0  0  0
  -51.0891  -29.4736    7.9393 N   0  0  0  0  0  0  0  0  0  0  0  0
  -47.5760  -30.4493    3.0864 N   0  0  0  0  0  0  0  0  0  0  0  0
  -53.2308  -28.9777    8.7133 O   0  0  0  0  0  0  0  0  0  0  0  0
  -46.6680  -29.8654    5.1385 O   0  0  0  0  0  0  0  0  0  0  0  0
  -52.7297  -28.8422    6.4591 O   0  0  0  0  0  0  0  0  0  0  0  0
  -43.4919  -30.5758    2.1863 O   0  0  0  0  0  0  0  0  0  0  0  0
  -46.4583  -26.6926    0.2975 H   0  0  0  0  0  0  0  0  0  0  0  0
  -43.9869  -26.5773    0.1149 H   0  0  0  0  0  0  0  0  0  0  0  0
  -49.7917  -29.2281    2.9442 H   0  0  0  0  0  0  0  0  0  0  0  0
  -47.5332  -28.6431    1.3713 H   0  0  0  0  0  0  0  0  0  0  0  0
  -52.0748  -28.6970    3.7701 H   0  0  0  0  0  0  0  0  0  0  0  0
  -42.5887  -28.4131    1.0107 H   0  0  0  0  0  0  0  0  0  0  0  0
  -48.4866  -30.0758    6.9869 H   0  0  0  0  0  0  0  0  0  0  0  0
  -41.0143  -31.4830    2.6681 H   0  0  0  0  0  0  0  0  0  0  0  0
  -40.9534  -29.9783    1.7209 H   0  0  0  0  0  0  0  0  0  0  0  0
  -40.5217  -31.5024    0.9595 H   0  0  0  0  0  0  0  0  0  0  0  0
  -42.8618  -33.1830    2.2020 H   0  0  0  0  0  0  0  0  0  0  0  0
  -42.3776  -33.2723    0.5154 H   0  0  0  0  0  0  0  0  0  0  0  0
  -44.0611  -32.8680    0.9294 H   0  0  0  0  0  0  0  0  0  0  0  0
  -46.5465  -31.5934    1.7100 H   0  0  0  0  0  0  0  0  0  0  0  0
  -45.6846  -31.2624    3.2127 H   0  0  0  0  0  0  0  0  0  0  0  0
  -42.8045  -30.8003    0.2684 H   0  0  0  0  0  0  0  0  0  0  0  0
  -50.6093  -29.7099    8.7988 H   0  0  0  0  0  0  0  0  0  0  0  0
  -48.4271  -30.5943    2.5535 H   0  0  0  0  0  0  0  0  0  0  0  0
  1  2  1  0  0  0  0
  1  4  2  0  0  0  0
  2  6  2  0  0  0  0
  3  5  2  0  0  0  0
  3  8  1  0  0  0  0
  4  9  1  0  0  0  0
  5 11  1  0  0  0  0
  6 12  1  0  0  0  0
  7  8  2  0  0  0  0
  7 10  1  0  0  0  0
  8 14  1  0  0  0  0
  9 12  2  0  0  0  0
  9 17  1  0  0  0  0
 10 11  2  0  0  0  0
 10 19  1  0  0  0  0
 11 23  1  0  0  0  0
 12 24  1  0  0  0  0
 13 19  1  0  0  0  0
 13 21  2  0  0  0  0
 13 23  1  0  0  0  0
 14 20  1  0  0  0  0
 14 22  2  0  0  0  0
 15 18  1  0  0  0  0
 16 18  1  0  0  0  0
 17 20  1  0  0  0  0
 18 24  1  0  0  0  0
  1 25  1  0  0  0  0
  2 26  1  0  0  0  0
  3 27  1  0  0  0  0
  4 28  1  0  0  0  0
  5 29  1  0  0  0  0
  6 30  1  0  0  0  0
  7 31  1  0  0  0  0
 15 32  1  0  0  0  0
 15 33  1  0  0  0  0
 15 34  1  0  0  0  0
 16 35  1  0  0  0  0
 16 36  1  0  0  0  0
 16 37  1  0  0  0  0
 17 38  1  0  0  0  0
 17 39  1  0  0  0  0
 18 40  1  0  0  0  0
 19 41  1  0  0  0  0
 20 42  1  0  0  0  0
M  END
> <POSIT::Probability>
0.02

> <POSIT::Method>
FRED

> <ReceptorTitle>
UCSF-P4537-REFINED_LIGAND-BOUND-STATE_A__DU__LA1_A-201(A)

> <OMEGA_C>
r2I3wjT/28GIqTA/sNMxwuJ528HgmRY/CAdIwkpg6sF0Q4BAm8w5wmnP5MH48KU/ty5Nwvr258Hd
xI5Axa4uws7D48Hc44s/CQNFwkA77sEK9MhAFPpDwix87cEWHZ1AsKc2wlcZ7cHgh+Y/CSBKwojO
68EcCtZAkxxOwoDD6MGwHLpAvRgxwhaU7MGogNk/sahRwoi96MHO1flAXag+wvLv78Ep/YxALdEk
wkBa+MGQitc/AxAswvnmAsL8+5s/JFM5wouG9sEW0RxAlpcqwl0A+sEInaA/R1tMwtfJ68HKDv5A
300+whSY88Gkh0VAU+xUwkvS58GcaQtBCqw6wlXs7sGYbqRAQOtSwt+85sFAsc5Avvctwk6b9MH+
7AtAQ9U5wnaK1cEAWJg+lPIvwmWe1MGAWus9qipHwiDT6cECbTxADCI+whsl5cFch68/j0xQwnCT
5cH+SXFAz1oqwg5O48FsXYE/QPJBwjyb8MFKlN9Aqg4kwknd+8F2wipAStAjwoLT78H8Rdw/MBYi
wtgE/MH4nnU/fnIrwmi7BMJq7QxArYIpwskWBcJA7wM/mz4wwtR4A8KQ7G0/lS86wlS//MGE4to/
/7w2wmIZ+sFInU1A0zcrwgZn9sEAaIk+7W9Kwvqt7cHExwxBUrVBwiTB9MGobCNA

> <OMEGA_E>
SQAPwQ==

> <OMEGA_NBR>
     22440

$$$$
CACHE3HI_1704_100
  -OEChem-03092622543D

 42 44  0     0  0  0  0  0  0999 V2000
  -46.0177  -30.7926    0.4292 C   0  0  0  0  0  0  0  0  0  0  0  0
  -44.0600  -32.2064    0.5094 C   0  0  0  0  0  0  0  0  0  0  0  0
  -48.6787  -28.7049    5.8198 C   0  0  0  0  0  0  0  0  0  0  0  0
  -49.9132  -29.5887    3.9404 C   0  0  0  0  0  0  0  0  0  0  0  0
  -47.5223  -28.6652    5.0407 C   0  0  0  0  0  0  0  0  0  0  0  0
  -48.7569  -29.5490    3.1613 C   0  0  0  0  0  0  0  0  0  0  0  0
  -46.7840  -31.8788    0.0063 C   0  0  0  0  0  0  0  0  0  0  0  0
  -44.8263  -33.2925    0.0866 C   0  0  0  0  0  0  0  0  0  0  0  0
  -43.0476  -28.1346    2.2382 C   0  0  0  0  0  0  0  0  0  0  0  0
  -44.6556  -30.9567    0.6809 C   0  0  0  0  0  0  0  0  0  0  0  0
  -44.0522  -29.0706    2.2812 C   0  0  0  0  0  0  0  0  0  0  0  0
  -49.8742  -29.1665    5.2694 C   0  0  0  0  0  0  0  0  0  0  0  0
  -47.5613  -29.0873    3.7117 C   0  0  0  0  0  0  0  0  0  0  0  0
  -46.1884  -33.1285   -0.1651 C   0  0  0  0  0  0  0  0  0  0  0  0
  -43.8663  -29.8389    1.1163 C   0  0  0  0  0  0  0  0  0  0  0  0
  -45.0381  -29.1829    3.3142 C   0  0  0  0  0  0  0  0  0  0  0  0
  -52.3846  -29.0253    5.3034 C   0  0  0  0  0  0  0  0  0  0  0  0
  -53.9095  -27.3727    4.5648 C   0  0  0  0  0  0  0  0  0  0  0  0
  -51.1103  -29.2116    6.1027 C   0  0  0  0  0  0  0  0  0  0  0  0
  -42.8261  -29.4268    0.3869 N   0  0  0  0  0  0  0  0  0  0  0  0
  -42.3487  -28.3891    1.0950 N   0  0  0  0  0  0  0  0  0  0  0  0
  -46.3869  -29.0468    2.9206 N   0  0  0  0  0  0  0  0  0  0  0  0
  -44.6829  -29.3707    4.5007 O   0  0  0  0  0  0  0  0  0  0  0  0
  -53.0090  -29.9263    4.7601 O   0  0  0  0  0  0  0  0  0  0  0  0
  -52.7187  -27.6997    5.2886 O   0  0  0  0  0  0  0  0  0  0  0  0
  -46.9247  -34.1712   -0.5713 F   0  0  0  0  0  0  0  0  0  0  0  0
  -46.4970  -29.8251    0.5579 H   0  0  0  0  0  0  0  0  0  0  0  0
  -42.9994  -32.3504    0.7015 H   0  0  0  0  0  0  0  0  0  0  0  0
  -48.6388  -28.3744    6.8542 H   0  0  0  0  0  0  0  0  0  0  0  0
  -50.8406  -29.9503    3.5035 H   0  0  0  0  0  0  0  0  0  0  0  0
  -46.5959  -28.3034    5.4799 H   0  0  0  0  0  0  0  0  0  0  0  0
  -48.7993  -29.8807    2.1269 H   0  0  0  0  0  0  0  0  0  0  0  0
  -47.8446  -31.7520   -0.1898 H   0  0  0  0  0  0  0  0  0  0  0  0
  -44.3630  -34.2656   -0.0469 H   0  0  0  0  0  0  0  0  0  0  0  0
  -42.7706  -27.3269    2.9014 H   0  0  0  0  0  0  0  0  0  0  0  0
  -54.0840  -26.2948    4.6159 H   0  0  0  0  0  0  0  0  0  0  0  0
  -53.7842  -27.6702    3.5209 H   0  0  0  0  0  0  0  0  0  0  0  0
  -54.7576  -27.9105    4.9949 H   0  0  0  0  0  0  0  0  0  0  0  0
  -51.0768  -28.4260    6.8750 H   0  0  0  0  0  0  0  0  0  0  0  0
  -51.1766  -30.1769    6.6301 H   0  0  0  0  0  0  0  0  0  0  0  0
  -41.5397  -27.8962    0.7380 H   0  0  0  0  0  0  0  0  0  0  0  0
  -46.5372  -28.8981    1.9254 H   0  0  0  0  0  0  0  0  0  0  0  0
  1  7  2  0  0  0  0
  1 10  1  0  0  0  0
  2  8  1  0  0  0  0
  2 10  2  0  0  0  0
  3  5  2  0  0  0  0
  3 12  1  0  0  0  0
  4  6  1  0  0  0  0
  4 12  2  0  0  0  0
  5 13  1  0  0  0  0
  6 13  2  0  0  0  0
  7 14  1  0  0  0  0
  8 14  2  0  0  0  0
  9 11  2  0  0  0  0
  9 21  1  0  0  0  0
 10 15  1  0  0  0  0
 11 15  1  0  0  0  0
 11 16  1  0  0  0  0
 12 19  1  0  0  0  0
 13 22  1  0  0  0  0
 14 26  1  0  0  0  0
 15 20  2  0  0  0  0
 16 22  1  0  0  0  0
 16 23  2  0  0  0  0
 17 19  1  0  0  0  0
 17 24  2  0  0  0  0
 17 25  1  0  0  0  0
 18 25  1  0  0  0  0
 20 21  1  0  0  0  0
  1 27  1  0  0  0  0
  2 28  1  0  0  0  0
  3 29  1  0  0  0  0
  4 30  1  0  0  0  0
  5 31  1  0  0  0  0
  6 32  1  0  0  0  0
  7 33  1  0  0  0  0
  8 34  1  0  0  0  0
  9 35  1  0  0  0  0
 18 36  1  0  0  0  0
 18 37  1  0  0  0  0
 18 38  1  0  0  0  0
 19 39  1  0  0  0  0
 19 40  1  0  0  0  0
 21 41  1  0  0  0  0
 22 42  1  0  0  0  0
M  END
> <POSIT::Probability>
0.05

> <POSIT::Method>
FRED

> <ReceptorTitle>
UCSF-P4537-REFINED_LIGAND-BOUND-STATE_A__DU__LA1_A-201(A)

> <OMEGA_C>
FxI4wlVX9sH1vNs+eD0wwl7TAMIyawI/87ZCwo2j5cG1O7pAJ6dHwpO17MG7LnxA1BY+wklS5cGc
TaFAFwdDwlZk7MGMUkpAxCI7wsIH/8FAEc87Fk4zwpArBcI0YLE9ujAswrAT4cF9Pg9AWZ8ywjyn
98HmTC4/bDUwwoaQ6MFv/xFAMX9HwhJV6cGwnqhAyj4+wsqy6MGSjG1A48A4wqGDBMJmDim+F3cv
wh227sG9444/+yY0wqh26cHYG1RA3olRwr4z6MFStalAWaNXwkH72sGGEpJA+nBMwmux6cEHScNA
+E0rwvxp68EdG8Y+FWUpwvUc48GvJ4w/Low5wsNf6MGe6jpARLsywkn36sFfBZBAOwlUwvdo78Hl
UphA+99SwhSZ3cFoPKlA2bI7wlSvCMIqPxK/8fw5wsOZ7sHq0w4/WP8rwstmAcIGlDM/KI5CwrH+
4sGmVdtAvFxLwjCa78GIOWBAOGI6wl5t4sFqW69AcTJDwqoL78GZHghA02A/whAE/sGGZUK+rHMx
wv8PCcIYDEC9JRUrwmWd2sFUsTlABlZYwstb0sGHtZNACiNXwnpc3cHUVWFAxAdbwqBI38Hk1Z9A
oU5Mwlpo48HA/9tAyrRMwk5q8cGwKdRApygmwnYr38Hu7zw/FCY6wkkv58HScvY/

> <OMEGA_E>
RVMCwQ==

> <OMEGA_NBR>
     23772

$$$$
CACHE3HI_1704_2
  -OEChem-03092622543D

 48 50  0     0  0  0  0  0  0999 V2000
  -43.0994  -29.6037    0.3923 C   0  0  0  0  0  0  0  0  0  0  0  0
  -49.1731  -29.0261    6.7094 C   0  0  0  0  0  0  0  0  0  0  0  0
  -43.4423  -28.5013    1.1751 C   0  0  0  0  0  0  0  0  0  0  0  0
  -43.7949  -30.8041    0.5364 C   0  0  0  0  0  0  0  0  0  0  0  0
  -49.8344  -30.2535    6.6667 C   0  0  0  0  0  0  0  0  0  0  0  0
  -47.9728  -28.8569    6.0196 C   0  0  0  0  0  0  0  0  0  0  0  0
  -44.4805  -28.5991    2.1016 C   0  0  0  0  0  0  0  0  0  0  0  0
  -44.8331  -30.9019    1.4630 C   0  0  0  0  0  0  0  0  0  0  0  0
  -47.0656  -33.5456   -1.3652 C   0  0  0  0  0  0  0  0  0  0  0  0
  -45.2326  -34.0240    0.1343 C   0  0  0  0  0  0  0  0  0  0  0  0
  -49.2957  -31.3114    5.9341 C   0  0  0  0  0  0  0  0  0  0  0  0
  -46.3257  -34.0562   -2.4317 C   0  0  0  0  0  0  0  0  0  0  0  0
  -44.4926  -34.5347   -0.9321 C   0  0  0  0  0  0  0  0  0  0  0  0
  -47.4340  -29.9148    5.2870 C   0  0  0  0  0  0  0  0  0  0  0  0
  -45.1760  -29.7995    2.2458 C   0  0  0  0  0  0  0  0  0  0  0  0
  -46.5190  -33.5297   -0.0821 C   0  0  0  0  0  0  0  0  0  0  0  0
  -45.0393  -34.5506   -2.2153 C   0  0  0  0  0  0  0  0  0  0  0  0
  -48.0953  -31.1422    5.2442 C   0  0  0  0  0  0  0  0  0  0  0  0
  -46.1792  -29.7168    4.5749 C   0  0  0  0  0  0  0  0  0  0  0  0
  -46.8818  -32.9198    2.3332 C   0  0  0  0  0  0  0  0  0  0  0  0
  -44.9370  -35.0340   -4.5418 C   0  0  0  0  0  0  0  0  0  0  0  0
  -47.9859  -32.3026    3.1709 C   0  0  0  0  0  0  0  0  0  0  0  0
  -46.2303  -29.8994    3.1867 N   0  0  0  0  0  0  0  0  0  0  0  0
  -47.2699  -33.0122    1.0009 N   0  0  0  0  0  0  0  0  0  0  0  0
  -45.1598  -29.4275    5.2206 O   0  0  0  0  0  0  0  0  0  0  0  0
  -45.8161  -33.2679    2.8306 O   0  0  0  0  0  0  0  0  0  0  0  0
  -44.3175  -35.0483   -3.2564 O   0  0  0  0  0  0  0  0  0  0  0  0
  -47.5847  -32.1878    4.5348 O   0  0  0  0  0  0  0  0  0  0  0  0
  -42.2902  -29.5278   -0.3282 H   0  0  0  0  0  0  0  0  0  0  0  0
  -49.5940  -28.2022    7.2786 H   0  0  0  0  0  0  0  0  0  0  0  0
  -42.9000  -27.5668    1.0641 H   0  0  0  0  0  0  0  0  0  0  0  0
  -43.5279  -31.6629   -0.0724 H   0  0  0  0  0  0  0  0  0  0  0  0
  -50.7691  -30.3847    7.2040 H   0  0  0  0  0  0  0  0  0  0  0  0
  -47.4674  -27.8951    6.0594 H   0  0  0  0  0  0  0  0  0  0  0  0
  -44.7375  -27.7331    2.7067 H   0  0  0  0  0  0  0  0  0  0  0  0
  -45.3677  -31.8431    1.5666 H   0  0  0  0  0  0  0  0  0  0  0  0
  -48.0674  -33.1638   -1.5452 H   0  0  0  0  0  0  0  0  0  0  0  0
  -44.7967  -34.0155    1.1301 H   0  0  0  0  0  0  0  0  0  0  0  0
  -49.8152  -32.2653    5.9059 H   0  0  0  0  0  0  0  0  0  0  0  0
  -46.7571  -34.0665   -3.4290 H   0  0  0  0  0  0  0  0  0  0  0  0
  -43.4910  -34.9179   -0.7570 H   0  0  0  0  0  0  0  0  0  0  0  0
  -44.2536  -35.4586   -5.2818 H   0  0  0  0  0  0  0  0  0  0  0  0
  -45.8487  -35.6350   -4.5040 H   0  0  0  0  0  0  0  0  0  0  0  0
  -45.1918  -34.0069   -4.8130 H   0  0  0  0  0  0  0  0  0  0  0  0
  -48.8897  -32.9172    3.1132 H   0  0  0  0  0  0  0  0  0  0  0  0
  -48.2102  -31.3008    2.7910 H   0  0  0  0  0  0  0  0  0  0  0  0
  -47.1435  -30.1343    2.8047 H   0  0  0  0  0  0  0  0  0  0  0  0
  -48.1986  -32.6712    0.7628 H   0  0  0  0  0  0  0  0  0  0  0  0
  1  3  1  0  0  0  0
  1  4  2  0  0  0  0
  2  5  1  0  0  0  0
  2  6  2  0  0  0  0
  3  7  2  0  0  0  0
  4  8  1  0  0  0  0
  5 11  2  0  0  0  0
  6 14  1  0  0  0  0
  7 15  1  0  0  0  0
  8 15  2  0  0  0  0
  9 12  2  0  0  0  0
  9 16  1  0  0  0  0
 10 13  1  0  0  0  0
 10 16  2  0  0  0  0
 11 18  1  0  0  0  0
 12 17  1  0  0  0  0
 13 17  2  0  0  0  0
 14 18  2  0  0  0  0
 14 19  1  0  0  0  0
 15 23  1  0  0  0  0
 16 24  1  0  0  0  0
 17 27  1  0  0  0  0
 18 28  1  0  0  0  0
 19 23  1  0  0  0  0
 19 25  2  0  0  0  0
 20 22  1  0  0  0  0
 20 24  1  0  0  0  0
 20 26  2  0  0  0  0
 21 27  1  0  0  0  0
 22 28  1  0  0  0  0
  1 29  1  0  0  0  0
  2 30  1  0  0  0  0
  3 31  1  0  0  0  0
  4 32  1  0  0  0  0
  5 33  1  0  0  0  0
  6 34  1  0  0  0  0
  7 35  1  0  0  0  0
  8 36  1  0  0  0  0
  9 37  1  0  0  0  0
 10 38  1  0  0  0  0
 11 39  1  0  0  0  0
 12 40  1  0  0  0  0
 13 41  1  0  0  0  0
 21 42  1  0  0  0  0
 21 43  1  0  0  0  0
 21 44  1  0  0  0  0
 22 45  1  0  0  0  0
 22 46  1  0  0  0  0
 23 47  1  0  0  0  0
 24 48  1  0  0  0  0
M  END
> <POSIT::Probability>
0.18

> <POSIT::Method>
HYBRID

> <ReceptorTitle>
UCSF-P4537-REFINED_LIGAND-BOUND-STATE_A__DU__LA1_A-201(A)

> <OMEGA_C>
y2Uswm7U7MFA1cg+TLFEwm416MFds9ZA58QtwqwC5MHEaJY/9i0vwthu9sFoVAk/eFZHwjEH8sFH
VdVAGuQ/wuza5sEsoMBACuwxwvLK5ME8gQZAHFUzwh4398HgQ7s/N0M8wqouBsI+v66/Lu40wqAY
CMKwiAk+zy5Fwr19+sEW5L1Afk05wpY5CMLXoBvAdPgxwokjCsLAnm6/cbw9wnhR78H4LqlAO7Q0
wnll7sF6uw9AbBM6wmIeBsKgK6i9Pyg0wtQzCsLyxg3AjmFAwioj+cG/0KdAfLc4wg687cHeZZJA
/IY7wuutA8L1UhVAfr8zwtgiDMK4VpHAhfE/wtM1AcJ48EpA0es4wvcx78F480tAahQ9wn4MBMLg
HoA/raM0wnZr68FqD6dAq0M3wlgSBcLIKDVAFkUxwnoxDMIOaVDAt1Y+wkvAAMK3HJFAMykpwgQ5
7MGABKi+NWBGwiqe4cFN6uhAnJkrwsCI3MFcM4g/lBwuwrJN/cGgOJS9mhNLwsQT88Fph+ZAqd49
wkAp38H+5sFAPfMywmnd3cHcOi1AgHg1wqG+/sHMhsg/+kRAwr+nBMJkyMW/xi8zwuEPCML4pZA/
yEJHwrMPAcI1/bxATwc7wiJECMLidFvAwvYtwvqrC8KQykG/swMxwqjVDcJOBKnAHWU3wkeKDsJ1
IJDAa8Q0whEHCMK2A5rAEY9DwjyrA8J3P0dANddAwgVo+sGsnzJA85I8wvsS8cEYgDNAYctAwlmv
AsKwSUM/

> <OMEGA_E>
FBKawA==

> <OMEGA_NBR>
     25224

$$$$
CACHE3HI_1704_20
  -OEChem-03092622543D

 17 17  0     0  0  0  0  0  0999 V2000
  -43.7755  -28.2061    1.2613 C   0  0  0  0  0  0  0  0  0  0  0  0
  -45.0575  -28.3729    1.7850 C   0  0  0  0  0  0  0  0  0  0  0  0
  -43.0803  -29.3050    0.7569 C   0  0  0  0  0  0  0  0  0  0  0  0
  -45.6443  -29.6384    1.8041 C   0  0  0  0  0  0  0  0  0  0  0  0
  -43.6671  -30.5704    0.7760 C   0  0  0  0  0  0  0  0  0  0  0  0
  -44.9491  -30.7374    1.2996 C   0  0  0  0  0  0  0  0  0  0  0  0
  -47.4409  -28.9219    3.3798 C   0  0  0  0  0  0  0  0  0  0  0  0
  -46.9441  -29.7694    2.3427 N   0  0  0  0  0  0  0  0  0  0  0  0
  -42.9813  -31.6134    0.2858 F   0  0  0  0  0  0  0  0  0  0  0  0
  -45.7084  -32.4784    1.3065 Br  0  0  0  0  0  0  0  0  0  0  0  0
  -43.3186  -27.2210    1.2466 H   0  0  0  0  0  0  0  0  0  0  0  0
  -45.5901  -27.5091    2.1753 H   0  0  0  0  0  0  0  0  0  0  0  0
  -42.0818  -29.1762    0.3493 H   0  0  0  0  0  0  0  0  0  0  0  0
  -46.6838  -28.1889    3.6732 H   0  0  0  0  0  0  0  0  0  0  0  0
  -48.3319  -28.3881    3.0374 H   0  0  0  0  0  0  0  0  0  0  0  0
  -47.7117  -29.5169    4.2564 H   0  0  0  0  0  0  0  0  0  0  0  0
  -47.5186  -30.4958    1.9625 H   0  0  0  0  0  0  0  0  0  0  0  0
  1  2  2  0  0  0  0
  1  3  1  0  0  0  0
  2  4  1  0  0  0  0
  3  5  2  0  0  0  0
  4  6  2  0  0  0  0
  4  8  1  0  0  0  0
  5  6  1  0  0  0  0
  5  9  1  0  0  0  0
  6 10  1  0  0  0  0
  7  8  1  0  0  0  0
  1 11  1  0  0  0  0
  2 12  1  0  0  0  0
  3 13  1  0  0  0  0
  7 14  1  0  0  0  0
  7 15  1  0  0  0  0
  7 16  1  0  0  0  0
  8 17  1  0  0  0  0
M  END
> <POSIT::Probability>
0.02

> <POSIT::Method>
FRED

> <ReceptorTitle>
UCSF-P4537-REFINED_LIGAND-BOUND-STATE_A__DU__LA1_A-201(A)

> <OMEGA_C>
Ehovwgem4cFocaE/3jo0wsv74sHIeeQ/MVIswrxw6sHAw0E/zJM2wlgb7cEw6+Y/HqsuwkiQ9MGw
pkY/38szwhzm9cHgWqY/ccM9wgRg58FoT1hAwcY7wrcn7sFQ7xVA1ewrwjLo/MGAU5I+Z9U2wurp
AcLwOac/NEYtwpHE2cEQkZ8/Rlw2wrsS3MGUOAtAvFMowsZo6cFg2LI+Nbw6wvSC4cFsFmtA1FNB
wu4a48FcZEJAx9g+wpEi7MGoNIhACBM+wn3388GYMvs/

> <OMEGA_E>
NzGWwA==

> <OMEGA_NBR>
     26046

$$$$
CACHE3HI_1704_21
  -OEChem-03092622543D

 16 16  0     0  0  0  0  0  0999 V2000
  -44.5771  -31.4024    1.3776 C   0  0  0  0  0  0  0  0  0  0  0  0
  -43.2545  -31.8339    1.4789 C   0  0  0  0  0  0  0  0  0  0  0  0
  -42.4897  -29.5595    1.1958 C   0  0  0  0  0  0  0  0  0  0  0  0
  -44.8558  -30.0493    1.1855 C   0  0  0  0  0  0  0  0  0  0  0  0
  -42.2109  -30.9127    1.3879 C   0  0  0  0  0  0  0  0  0  0  0  0
  -43.8122  -29.1281    1.0944 C   0  0  0  0  0  0  0  0  0  0  0  0
  -46.8181  -29.3041    2.3040 C   0  0  0  0  0  0  0  0  0  0  0  0
  -46.1587  -29.6596    1.0905 O   0  0  0  0  0  0  0  0  0  0  0  0
  -40.9410  -31.3277    1.4852 F   0  0  0  0  0  0  0  0  0  0  0  0
  -44.1533  -27.2820    0.8334 Br  0  0  0  0  0  0  0  0  0  0  0  0
  -45.3847  -32.1258    1.4494 H   0  0  0  0  0  0  0  0  0  0  0  0
  -43.0367  -32.8872    1.6286 H   0  0  0  0  0  0  0  0  0  0  0  0
  -41.6637  -28.8564    1.1273 H   0  0  0  0  0  0  0  0  0  0  0  0
  -47.8495  -29.0133    2.0880 H   0  0  0  0  0  0  0  0  0  0  0  0
  -46.8180  -30.1666    2.9748 H   0  0  0  0  0  0  0  0  0  0  0  0
  -46.2870  -28.4761    2.7792 H   0  0  0  0  0  0  0  0  0  0  0  0
  1  2  2  0  0  0  0
  1  4  1  0  0  0  0
  2  5  1  0  0  0  0
  3  5  2  0  0  0  0
  3  6  1  0  0  0  0
  4  6  2  0  0  0  0
  4  8  1  0  0  0  0
  5  9  1  0  0  0  0
  6 10  1  0  0  0  0
  7  8  1  0  0  0  0
  1 11  1  0  0  0  0
  2 12  1  0  0  0  0
  3 13  1  0  0  0  0
  7 14  1  0  0  0  0
  7 15  1  0  0  0  0
  7 16  1  0  0  0  0
M  END
> <POSIT::Probability>
0.02

> <POSIT::Method>
FRED

> <ReceptorTitle>
UCSF-P4537-REFINED_LIGAND-BOUND-STATE_A__DU__LA1_A-201(A)

> <OMEGA_C>
8k4ywgg4+8GgVLA/nQQtwsKr/sEwTb0/cvUpwux57MFwDpk/Ymwzwuxk8MEAvZc/+NcowiBN98FA
prE/vD8vwkwG6cEQFow/yEU7wsRu6sGIdBNAh6I4wt9G7cEAl4s/osMjwjaf+sHwGb4/+pwwwoxB
2sHgWVU/9Ik1wtiAAMJAhbk/nCUswoaMA8KQddA/lacmwvLZ5sGAS5A/3WU/wkIb6MFIoQVAmUU7
wixV8cE4Yz5A5iU5whzP48Gw3TFA

> <OMEGA_E>
SCCUwA==

> <OMEGA_NBR>
     26848

$$$$
CACHE3HI_1704_36
  -OEChem-03092622543D

 38 40  0     0  0  0  0  0  0999 V2000
  -48.1489  -30.7860    3.6718 C   0  0  0  0  0  0  0  0  0  0  0  0
  -48.7834  -28.6496    4.6553 C   0  0  0  0  0  0  0  0  0  0  0  0
  -49.3435  -30.8073    2.9361 C   0  0  0  0  0  0  0  0  0  0  0  0
  -49.9954  -28.6870    3.9458 C   0  0  0  0  0  0  0  0  0  0  0  0
  -45.4554  -28.9474    7.2248 C   0  0  0  0  0  0  0  0  0  0  0  0
  -44.2534  -29.4981    6.7380 C   0  0  0  0  0  0  0  0  0  0  0  0
  -43.8418  -32.8238    0.9622 C   0  0  0  0  0  0  0  0  0  0  0  0
  -45.7173  -32.5575   -0.3180 C   0  0  0  0  0  0  0  0  0  0  0  0
  -47.8349  -29.6859    4.5102 C   0  0  0  0  0  0  0  0  0  0  0  0
  -50.2802  -29.7649    3.0666 C   0  0  0  0  0  0  0  0  0  0  0  0
  -46.5619  -29.6185    5.2796 C   0  0  0  0  0  0  0  0  0  0  0  0
  -44.8694  -32.3237    1.7263 C   0  0  0  0  0  0  0  0  0  0  0  0
  -45.3416  -30.1674    4.7857 C   0  0  0  0  0  0  0  0  0  0  0  0
  -44.7687  -31.9190    3.1317 C   0  0  0  0  0  0  0  0  0  0  0  0
  -43.6286  -33.3456   -1.4827 C   0  0  0  0  0  0  0  0  0  0  0  0
  -52.4507  -28.8345    2.5375 C   0  0  0  0  0  0  0  0  0  0  0  0
  -46.5857  -29.0161    6.4935 N   0  0  0  0  0  0  0  0  0  0  0  0
  -44.2127  -30.1004    5.5306 N   0  0  0  0  0  0  0  0  0  0  0  0
  -46.0079  -32.1709    0.9064 N   0  0  0  0  0  0  0  0  0  0  0  0
  -44.3991  -32.9493   -0.2807 N   0  0  0  0  0  0  0  0  0  0  0  0
  -45.2687  -30.6676    3.4829 N   0  0  0  0  0  0  0  0  0  0  0  0
  -44.3411  -32.7119    3.9648 O   0  0  0  0  0  0  0  0  0  0  0  0
  -51.4531  -29.8636    2.3314 O   0  0  0  0  0  0  0  0  0  0  0  0
  -47.4615  -31.6158    3.5989 H   0  0  0  0  0  0  0  0  0  0  0  0
  -48.5753  -27.8217    5.3170 H   0  0  0  0  0  0  0  0  0  0  0  0
  -49.5456  -31.6291    2.2652 H   0  0  0  0  0  0  0  0  0  0  0  0
  -50.7148  -27.8911    4.0699 H   0  0  0  0  0  0  0  0  0  0  0  0
  -45.4713  -28.4664    8.1916 H   0  0  0  0  0  0  0  0  0  0  0  0
  -43.3563  -29.4378    7.3363 H   0  0  0  0  0  0  0  0  0  0  0  0
  -42.8342  -33.0611    1.2699 H   0  0  0  0  0  0  0  0  0  0  0  0
  -46.3765  -32.5655   -1.1734 H   0  0  0  0  0  0  0  0  0  0  0  0
  -44.2984  -33.3752   -2.3549 H   0  0  0  0  0  0  0  0  0  0  0  0
  -42.8264  -32.6145   -1.6613 H   0  0  0  0  0  0  0  0  0  0  0  0
  -43.1887  -34.3413   -1.3244 H   0  0  0  0  0  0  0  0  0  0  0  0
  -53.3222  -29.0344    1.8967 H   0  0  0  0  0  0  0  0  0  0  0  0
  -52.7637  -28.8334    3.5920 H   0  0  0  0  0  0  0  0  0  0  0  0
  -52.0241  -27.8537    2.2805 H   0  0  0  0  0  0  0  0  0  0  0  0
  -45.6017  -30.0808    2.7448 H   0  0  0  0  0  0  0  0  0  0  0  0
  1  3  2  0  0  0  0
  1  9  1  0  0  0  0
  2  4  1  0  0  0  0
  2  9  2  0  0  0  0
  3 10  1  0  0  0  0
  4 10  2  0  0  0  0
  5  6  2  0  0  0  0
  5 17  1  0  0  0  0
  6 18  1  0  0  0  0
  7 12  2  0  0  0  0
  7 20  1  0  0  0  0
  8 19  2  0  0  0  0
  8 20  1  0  0  0  0
  9 11  1  0  0  0  0
 10 23  1  0  0  0  0
 11 13  1  0  0  0  0
 11 17  2  0  0  0  0
 12 14  1  0  0  0  0
 12 19  1  0  0  0  0
 13 18  2  0  0  0  0
 13 21  1  0  0  0  0
 14 21  1  0  0  0  0
 14 22  2  0  0  0  0
 15 20  1  0  0  0  0
 16 23  1  0  0  0  0
  1 24  1  0  0  0  0
  2 25  1  0  0  0  0
  3 26  1  0  0  0  0
  4 27  1  0  0  0  0
  5 28  1  0  0  0  0
  6 29  1  0  0  0  0
  7 30  1  0  0  0  0
  8 31  1  0  0  0  0
 15 32  1  0  0  0  0
 15 33  1  0  0  0  0
 15 34  1  0  0  0  0
 16 35  1  0  0  0  0
 16 36  1  0  0  0  0
 16 37  1  0  0  0  0
 21 38  1  0  0  0  0
M  END
> <POSIT::Probability>
0.51

> <POSIT::Method>
SHAPEFIT

> <ReceptorTitle>
UCSF-P4537-REFINED_LIGAND-BOUND-STATE_A__DU__LA1_A-201(A)

> <OMEGA_C>
fphAwsRJ9sGi/mpAKiJDwkwy5cGJ+JRAul9Fwl519sEk6TtAUPtHwu5+5cGsh3xAUNI1wl6U58Ey
MedAdgMxwhz868GqnddABV4vwopLA8LSUHY/id42wuo6AsJgyqK+5FY/wrx87cFmU5BA4h5Jwmoe
7sGUQkRAYj86wqby7MFu8qhAOHozwntLAcJn+Nw/wV01wsBW8cGTJJlAIxMzwhpa/8FWbUhAuYMu
wt1hBcIJyr2/j81Rwh6t5sEcZiJAtlc6wuwg6MHnys9Az9kwwo7N8MGt+rBACwg4wgivAML8CGg/
s5gxwh7MA8LAso++GRM1wjxX9cGK515ATF0xwv3YAsJ4v31A+c9NwqLo7sGQNRVAltg9wjHt/MES
VWZAHk1Cwu+S3sEfJapAty5GwnsI/cHR+BBAANxKwvQg38FhPIJAouI1wkq748HMEANB22wtwp+A
68FQw+pALlYrwoU+BMJsjaI/gIE5wgxDAsJLM5a/hDExwjeABcLdtRbAOU4rwjh1AsJcptS/RsEs
wnZdCcJTham/90lVwn5G6MGByPI/BA5Twraq5sHB42VAtxhQwm7U3sEB9BFAHWg2woSl8MGJqi9A

> <OMEGA_E>
6OiLPw==

> <OMEGA_NBR>
     28124

$$$$
CACHE3HI_1704_52
  -OEChem-03092622543D

 45 47  0     0  0  0  0  0  0999 V2000
  -51.8039  -29.5301    5.8921 C   0  0  0  0  0  0  0  0  0  0  0  0
  -49.9889  -30.6504    4.6954 C   0  0  0  0  0  0  0  0  0  0  0  0
  -49.4728  -28.8982    6.2769 C   0  0  0  0  0  0  0  0  0  0  0  0
  -43.1810  -29.3865    0.6780 C   0  0  0  0  0  0  0  0  0  0  0  0
  -45.5662  -29.1453    0.9787 C   0  0  0  0  0  0  0  0  0  0  0  0
  -48.6290  -30.8099    4.4293 C   0  0  0  0  0  0  0  0  0  0  0  0
  -48.1129  -29.0576    6.0108 C   0  0  0  0  0  0  0  0  0  0  0  0
  -43.0420  -27.9986    0.6722 C   0  0  0  0  0  0  0  0  0  0  0  0
  -45.4272  -27.7574    0.9729 C   0  0  0  0  0  0  0  0  0  0  0  0
  -44.7563  -33.5516    1.2275 C   0  0  0  0  0  0  0  0  0  0  0  0
  -50.4107  -29.6945    5.6194 C   0  0  0  0  0  0  0  0  0  0  0  0
  -44.4432  -29.9598    0.8314 C   0  0  0  0  0  0  0  0  0  0  0  0
  -44.5516  -32.3111    1.8609 C   0  0  0  0  0  0  0  0  0  0  0  0
  -47.6911  -30.0135    5.0868 C   0  0  0  0  0  0  0  0  0  0  0  0
  -44.1649  -27.1841    0.8195 C   0  0  0  0  0  0  0  0  0  0  0  0
  -44.5874  -31.3944    0.8385 C   0  0  0  0  0  0  0  0  0  0  0  0
  -44.3419  -32.0232    3.3025 C   0  0  0  0  0  0  0  0  0  0  0  0
  -45.2451  -29.9574    5.6837 C   0  0  0  0  0  0  0  0  0  0  0  0
  -45.2181  -25.0568    0.9687 C   0  0  0  0  0  0  0  0  0  0  0  0
  -43.9281  -30.2512    4.9891 C   0  0  0  0  0  0  0  0  0  0  0  0
  -52.9352  -29.3965    6.1135 N   0  0  0  0  0  0  0  0  0  0  0  0
  -44.9109  -33.4367   -0.0942 N   0  0  0  0  0  0  0  0  0  0  0  0
  -44.8032  -32.1132   -0.3003 N   0  0  0  0  0  0  0  0  0  0  0  0
  -46.3310  -30.1733    4.8199 N   0  0  0  0  0  0  0  0  0  0  0  0
  -44.1639  -30.6853    3.6435 N   0  0  0  0  0  0  0  0  0  0  0  0
  -44.3161  -32.9544    4.1029 O   0  0  0  0  0  0  0  0  0  0  0  0
  -45.3002  -29.6126    6.8599 O   0  0  0  0  0  0  0  0  0  0  0  0
  -44.0287  -25.8300    0.8134 O   0  0  0  0  0  0  0  0  0  0  0  0
  -50.7076  -31.2792    4.1752 H   0  0  0  0  0  0  0  0  0  0  0  0
  -49.7871  -28.1491    6.9999 H   0  0  0  0  0  0  0  0  0  0  0  0
  -42.2962  -30.0081    0.5632 H   0  0  0  0  0  0  0  0  0  0  0  0
  -46.5568  -29.5777    1.0981 H   0  0  0  0  0  0  0  0  0  0  0  0
  -48.3110  -31.5584    3.7078 H   0  0  0  0  0  0  0  0  0  0  0  0
  -47.3910  -28.4309    6.5284 H   0  0  0  0  0  0  0  0  0  0  0  0
  -42.0560  -27.5578    0.5533 H   0  0  0  0  0  0  0  0  0  0  0  0
  -46.3058  -27.1285    1.0872 H   0  0  0  0  0  0  0  0  0  0  0  0
  -44.8000  -34.5360    1.6712 H   0  0  0  0  0  0  0  0  0  0  0  0
  -44.9682  -23.9929    0.9459 H   0  0  0  0  0  0  0  0  0  0  0  0
  -45.9012  -25.2860    0.1472 H   0  0  0  0  0  0  0  0  0  0  0  0
  -45.6964  -25.3092    1.9179 H   0  0  0  0  0  0  0  0  0  0  0  0
  -43.3865  -31.0464    5.5087 H   0  0  0  0  0  0  0  0  0  0  0  0
  -43.3192  -29.3429    4.9581 H   0  0  0  0  0  0  0  0  0  0  0  0
  -44.8880  -31.7697   -1.2492 H   0  0  0  0  0  0  0  0  0  0  0  0
  -46.0870  -30.4911    3.8744 H   0  0  0  0  0  0  0  0  0  0  0  0
  -44.1372  -29.9802    2.9070 H   0  0  0  0  0  0  0  0  0  0  0  0
  1 11  1  0  0  0  0
  1 21  3  0  0  0  0
  2  6  2  0  0  0  0
  2 11  1  0  0  0  0
  3  7  1  0  0  0  0
  3 11  2  0  0  0  0
  4  8  2  0  0  0  0
  4 12  1  0  0  0  0
  5  9  1  0  0  0  0
  5 12  2  0  0  0  0
  6 14  1  0  0  0  0
  7 14  2  0  0  0  0
  8 15  1  0  0  0  0
  9 15  2  0  0  0  0
 10 13  1  0  0  0  0
 10 22  2  0  0  0  0
 12 16  1  0  0  0  0
 13 16  2  0  0  0  0
 13 17  1  0  0  0  0
 14 24  1  0  0  0  0
 15 28  1  0  0  0  0
 16 23  1  0  0  0  0
 17 25  1  0  0  0  0
 17 26  2  0  0  0  0
 18 20  1  0  0  0  0
 18 24  1  0  0  0  0
 18 27  2  0  0  0  0
 19 28  1  0  0  0  0
 20 25  1  0  0  0  0
 22 23  1  0  0  0  0
  2 29  1  0  0  0  0
  3 30  1  0  0  0  0
  4 31  1  0  0  0  0
  5 32  1  0  0  0  0
  6 33  1  0  0  0  0
  7 34  1  0  0  0  0
  8 35  1  0  0  0  0
  9 36  1  0  0  0  0
 10 37  1  0  0  0  0
 19 38  1  0  0  0  0
 19 39  1  0  0  0  0
 19 40  1  0  0  0  0
 20 41  1  0  0  0  0
 20 42  1  0  0  0  0
 23 43  1  0  0  0  0
 24 44  1  0  0  0  0
 25 45  1  0  0  0  0
M  END
> <POSIT::Probability>
0.18

> <POSIT::Method>
FRED

> <ReceptorTitle>
UCSF-P4537-REFINED_LIGAND-BOUND-STATE_A__DU__LA1_A-201(A)

> <OMEGA_C>
JzdPwrI97ME+jLxApPRHwvcz9cEEQZZAL+RFwnAv58E43MhAV7kswqQX68EQkS0/vkM2wp0p6cEQ
ino/EIRCwpx69sHuvI1ApXNAwgR26MFoWMBAACsswiv938FgGCw/brU1wjoP3sHAEXk/bgYzwtY0
BsIgHZ0/lqRJwk2O7cF00rNA48UxwrKt78Gw1FQ/zjQywpk+AcLYMO4/qcM+wr8b8MGyxqJA2Kgw
whR52cHAzVE/glkywqIn+8HwpVY/EV4xwsQXAMK4XFNACPs0wtKo78Ge4LVAX980wlR0yMEQ/Hc/
Y7YvwoUC8sEap59Arr1TwgYs68HgocNAwKQzwje/BcIA58C9dDYzwudzAMKgxpm+61I5wu9i8cG+
PJpA4qcwwoZ79cFULmlApkMxwk/RA8LISoNAZzM1wpvm7MGUhNtAbx0wwr+jzsFQOlA/lNRKwrw7
+sEQm4VAASZHwmgx4cFo/99ARi8pwo4Q8MEwLxA/Ijo6wh6f7MHwjYw/fj5BwpJ3/MFcTG1Ab5A9
wo9y48HM6NBAYjkowmB23MGQow0/Hzk5wkIH2cEQKIs/QDMzwuYkCsLg6tU/aN8zwn3xv8GAKHI/
zJo3wr5JysFAvBY+E8k2wj55ysG4ffU/uostwv1e+MHgRrBA6EYtwly+6sF8qJ5AVI0zwmco/sFI
5p+/F1k4wrjt88G49XdAhIwwwnnX78HYDDpA

> <OMEGA_E>
I/HswA==

> <OMEGA_NBR>
     29515

$$$$
CACHE3HI_1704_90
  -OEChem-03092622543D

 56 58  0     0  0  0  0  0  0999 V2000
  -43.6289  -27.6032    1.0160 C   0  0  0  0  0  0  0  0  0  0  0  0
  -42.8904  -28.6514    0.4666 C   0  0  0  0  0  0  0  0  0  0  0  0
  -44.9328  -27.8262    1.4581 C   0  0  0  0  0  0  0  0  0  0  0  0
  -43.4557  -29.9222    0.3595 C   0  0  0  0  0  0  0  0  0  0  0  0
  -49.4474  -29.5919    3.2886 C   0  0  0  0  0  0  0  0  0  0  0  0
  -48.3059  -28.8264    5.2757 C   0  0  0  0  0  0  0  0  0  0  0  0
  -50.6313  -29.7129    4.0161 C   0  0  0  0  0  0  0  0  0  0  0  0
  -49.4898  -28.9474    6.0032 C   0  0  0  0  0  0  0  0  0  0  0  0
  -47.2622  -31.4572    4.8115 C   0  0  0  0  0  0  0  0  0  0  0  0
  -48.3399  -32.0888    4.1905 C   0  0  0  0  0  0  0  0  0  0  0  0
  -45.7511  -32.4832    3.2299 C   0  0  0  0  0  0  0  0  0  0  0  0
  -45.4980  -29.0971    1.3510 C   0  0  0  0  0  0  0  0  0  0  0  0
  -46.8287  -33.1148    2.6090 C   0  0  0  0  0  0  0  0  0  0  0  0
  -48.2846  -29.1485    3.9186 C   0  0  0  0  0  0  0  0  0  0  0  0
  -44.7597  -30.1452    0.8016 C   0  0  0  0  0  0  0  0  0  0  0  0
  -50.6526  -29.3909    5.3733 C   0  0  0  0  0  0  0  0  0  0  0  0
  -45.9677  -31.6547    4.3311 C   0  0  0  0  0  0  0  0  0  0  0  0
  -48.1232  -32.9173    3.0894 C   0  0  0  0  0  0  0  0  0  0  0  0
  -46.5731  -33.9848    1.4473 C   0  0  0  0  0  0  0  0  0  0  0  0
  -45.5780  -33.8043    0.5663 C   0  0  0  0  0  0  0  0  0  0  0  0
  -46.8624  -29.2961    1.8238 C   0  0  0  0  0  0  0  0  0  0  0  0
  -44.6339  -32.6563    0.7275 C   0  0  0  0  0  0  0  0  0  0  0  0
  -52.9597  -29.9691    5.3764 C   0  0  0  0  0  0  0  0  0  0  0  0
  -45.2111  -30.2043    6.0576 C   0  0  0  0  0  0  0  0  0  0  0  0
  -49.5667  -34.8055    2.9989 C   0  0  0  0  0  0  0  0  0  0  0  0
  -47.0821  -29.0246    3.1801 N   0  0  0  0  0  0  0  0  0  0  0  0
  -45.3047  -31.4270    0.6863 N   0  0  0  0  0  0  0  0  0  0  0  0
  -47.7209  -29.7034    1.0268 O   0  0  0  0  0  0  0  0  0  0  0  0
  -43.4313  -32.8364    0.8745 O   0  0  0  0  0  0  0  0  0  0  0  0
  -51.8081  -29.5097    6.0828 O   0  0  0  0  0  0  0  0  0  0  0  0
  -44.9168  -31.0379    4.9373 O   0  0  0  0  0  0  0  0  0  0  0  0
  -49.1946  -33.5221    2.5013 O   0  0  0  0  0  0  0  0  0  0  0  0
  -43.1884  -26.6140    1.0985 H   0  0  0  0  0  0  0  0  0  0  0  0
  -41.8754  -28.4769    0.1220 H   0  0  0  0  0  0  0  0  0  0  0  0
  -45.4984  -27.0015    1.8842 H   0  0  0  0  0  0  0  0  0  0  0  0
  -42.8693  -30.7306   -0.0703 H   0  0  0  0  0  0  0  0  0  0  0  0
  -49.4425  -29.8447    2.2314 H   0  0  0  0  0  0  0  0  0  0  0  0
  -47.4052  -28.4808    5.7767 H   0  0  0  0  0  0  0  0  0  0  0  0
  -51.5342  -30.0584    3.5197 H   0  0  0  0  0  0  0  0  0  0  0  0
  -49.4997  -28.6953    7.0602 H   0  0  0  0  0  0  0  0  0  0  0  0
  -47.4372  -30.8134    5.6691 H   0  0  0  0  0  0  0  0  0  0  0  0
  -49.3460  -31.9317    4.5698 H   0  0  0  0  0  0  0  0  0  0  0  0
  -44.7372  -32.6304    2.8641 H   0  0  0  0  0  0  0  0  0  0  0  0
  -47.2748  -34.8058    1.3227 H   0  0  0  0  0  0  0  0  0  0  0  0
  -45.4230  -34.4789   -0.2688 H   0  0  0  0  0  0  0  0  0  0  0  0
  -53.8119  -30.0182    6.0591 H   0  0  0  0  0  0  0  0  0  0  0  0
  -53.1835  -29.2693    4.5676 H   0  0  0  0  0  0  0  0  0  0  0  0
  -52.7596  -30.9569    4.9550 H   0  0  0  0  0  0  0  0  0  0  0  0
  -44.2846  -29.7741    6.4465 H   0  0  0  0  0  0  0  0  0  0  0  0
  -45.8774  -29.3998    5.7371 H   0  0  0  0  0  0  0  0  0  0  0  0
  -45.7043  -30.7953    6.8328 H   0  0  0  0  0  0  0  0  0  0  0  0
  -50.4335  -35.1751    2.4449 H   0  0  0  0  0  0  0  0  0  0  0  0
  -48.7300  -35.4953    2.8647 H   0  0  0  0  0  0  0  0  0  0  0  0
  -49.8060  -34.7296    4.0621 H   0  0  0  0  0  0  0  0  0  0  0  0
  -46.2734  -28.6959    3.7026 H   0  0  0  0  0  0  0  0  0  0  0  0
  -46.3220  -31.4695    0.5561 H   0  0  0  0  0  0  0  0  0  0  0  0
  1  2  1  0  0  0  0
  1  3  2  0  0  0  0
  2  4  2  0  0  0  0
  3 12  1  0  0  0  0
  4 15  1  0  0  0  0
  5  7  2  0  0  0  0
  5 14  1  0  0  0  0
  6  8  1  0  0  0  0
  6 14  2  0  0  0  0
  7 16  1  0  0  0  0
  8 16  2  0  0  0  0
  9 10  2  0  0  0  0
  9 17  1  0  0  0  0
 10 18  1  0  0  0  0
 11 13  1  0  0  0  0
 11 17  2  0  0  0  0
 12 15  2  0  0  0  0
 12 21  1  0  0  0  0
 13 18  2  0  0  0  0
 13 19  1  0  0  0  0
 14 26  1  0  0  0  0
 15 27  1  0  0  0  0
 16 30  1  0  0  0  0
 17 31  1  0  0  0  0
 18 32  1  0  0  0  0
 19 20  2  0  0  0  0
 20 22  1  0  0  0  0
 21 26  1  0  0  0  0
 21 28  2  0  0  0  0
 22 27  1  0  0  0  0
 22 29  2  0  0  0  0
 23 30  1  0  0  0  0
 24 31  1  0  0  0  0
 25 32  1  0  0  0  0
  1 33  1  0  0  0  0
  2 34  1  0  0  0  0
  3 35  1  0  0  0  0
  4 36  1  0  0  0  0
  5 37  1  0  0  0  0
  6 38  1  0  0  0  0
  7 39  1  0  0  0  0
  8 40  1  0  0  0  0
  9 41  1  0  0  0  0
 10 42  1  0  0  0  0
 11 43  1  0  0  0  0
 19 44  1  0  0  0  0
 20 45  1  0  0  0  0
 23 46  1  0  0  0  0
 23 47  1  0  0  0  0
 23 48  1  0  0  0  0
 24 49  1  0  0  0  0
 24 50  1  0  0  0  0
 24 51  1  0  0  0  0
 25 52  1  0  0  0  0
 25 53  1  0  0  0  0
 25 54  1  0  0  0  0
 26 55  1  0  0  0  0
 27 56  1  0  0  0  0
M  END
> <POSIT::Probability>
0.05

> <POSIT::Method>
FRED

> <ReceptorTitle>
UCSF-P4537-REFINED_LIGAND-BOUND-STATE_A__DU__LA1_A-201(A)

> <OMEGA_C>
8oMuwnTT3MFuC4I/0o8rwg025cHw3+4+MLszwiOc3sHBobo/mdItwsNg78G4DLg+GspFwkm87MHt
eFJAQDlBwn+c5sHc0qhAgIZKwhy07cEchIBAlfVFwkqU58GGGsBAfww9wmyo+8Fq95lAAlxBwuda
AMLkGIZAGgE3wtnuAcJntk5A9v01wtnG6MH57Kw/j1A7woh1BMJd+SZAeiNBwhgw6cFlynpA5Akz
wmop8cGUNE0/R5xKwoQg68HI8atA9N43wtI8/cH8l4pAKX5AwlarA8I4uEVA1Eo6wnbwB8KsP7k/
3082wpo3B8Jg+BA/FnM7wmBe6sHKcuk/KIkywgmgAsLSPTo/wdZTwq7A78EwC6xAKNg0wnWi8cHu
18FATERGwtY4C8Kj7j9AGVQ8wmMy6MFhhktADjg1wn5q+8F0sS8/K+I+wpqg7cGwboM/q7ktwn1Y
A8KO3V8/gDtPws0T7MFmpsJAzKozwpRN+MGG/p1AOcdEwqIWBsL7FSBA9MAswnrp1MEUm4w/YIAn
wsbQ48HAxPk9Uv41wv0C2MHULPE/H3orwjPY9cGA8o+9IcVFwgbC7sEH0A5A9549wqzY48H52rhA
AiNOwpp38MHrQmFAs/9FwhCQ5cFe7eFAub89wuyB9sFIabVAU2JFwhB0/8H+O5JA4fIywpKFAsLo
TTdAcRk9wiU5C8IcTak/HrE1wnHqCcLAmom+bT9XwlUl8MFO5MFA5rtUwoUn6sGWKZJA1wlTwsan
98F0j55AYyMxwkox7sEYSs5Ad4I3wt4y68EslrdAKtE2wq1c9sGqptpA4rtJwlWzDMLkeRxAietC
wjn7DcL6VzdAVDlHwhTrCsIG/YFA+hc5whyR5cET92xAs0k5woDB+8EwWw4/

> <OMEGA_E>
gz3QwA==

> <OMEGA_NBR>
     31124

$$$$
CACHE3HI_1705_58
  -OEChem-03092622543D

 46 49  0     0  0  0  0  0  0999 V2000
  -52.7688  -28.1030    4.6303 C   0  0  0  0  0  0  0  0  0  0  0  0
  -52.0456  -28.0484    3.4389 C   0  0  0  0  0  0  0  0  0  0  0  0
  -52.2738  -28.8193    5.7194 C   0  0  0  0  0  0  0  0  0  0  0  0
  -50.8222  -28.7103    3.3290 C   0  0  0  0  0  0  0  0  0  0  0  0
  -44.8960  -27.5328    0.4150 C   0  0  0  0  0  0  0  0  0  0  0  0
  -43.2315  -29.5660    3.5545 C   0  0  0  0  0  0  0  0  0  0  0  0
  -43.7666  -26.8123    0.0903 C   0  0  0  0  0  0  0  0  0  0  0  0
  -44.5752  -28.3570    1.5256 C   0  0  0  0  0  0  0  0  0  0  0  0
  -51.0488  -29.4813    5.6073 C   0  0  0  0  0  0  0  0  0  0  0  0
  -44.5604  -29.9110    3.3485 C   0  0  0  0  0  0  0  0  0  0  0  0
  -45.2603  -29.2981    2.3115 C   0  0  0  0  0  0  0  0  0  0  0  0
  -50.3161  -29.4314    4.4137 C   0  0  0  0  0  0  0  0  0  0  0  0
  -43.2433  -28.1056    1.8423 C   0  0  0  0  0  0  0  0  0  0  0  0
  -50.4853  -30.2579    6.7480 C   0  0  0  0  0  0  0  0  0  0  0  0
  -48.6509  -30.8001    5.4439 C   0  0  0  0  0  0  0  0  0  0  0  0
  -45.1920  -30.9088    4.2262 C   0  0  0  0  0  0  0  0  0  0  0  0
  -46.6925  -29.6463    2.0590 C   0  0  0  0  0  0  0  0  0  0  0  0
  -45.9194  -29.0230    6.8800 C   0  0  0  0  0  0  0  0  0  0  0  0
  -47.3256  -31.5080    5.3053 C   0  0  0  0  0  0  0  0  0  0  0  0
  -46.5371  -29.1756    5.5007 C   0  0  0  0  0  0  0  0  0  0  0  0
  -42.5226  -28.6685    2.8305 N   0  0  0  0  0  0  0  0  0  0  0  0
  -49.2681  -30.8958    6.5856 N   0  0  0  0  0  0  0  0  0  0  0  0
  -42.7703  -27.1675    0.9624 N   0  0  0  0  0  0  0  0  0  0  0  0
  -49.0962  -30.1067    4.3429 N   0  0  0  0  0  0  0  0  0  0  0  0
  -46.3192  -30.5377    4.9881 N   0  0  0  0  0  0  0  0  0  0  0  0
  -51.1226  -30.3050    7.7957 O   0  0  0  0  0  0  0  0  0  0  0  0
  -44.6903  -32.0319    4.2230 O   0  0  0  0  0  0  0  0  0  0  0  0
  -53.7208  -27.5857    4.7094 H   0  0  0  0  0  0  0  0  0  0  0  0
  -52.4363  -27.4887    2.5939 H   0  0  0  0  0  0  0  0  0  0  0  0
  -52.8522  -28.8495    6.6382 H   0  0  0  0  0  0  0  0  0  0  0  0
  -50.2697  -28.6587    2.3942 H   0  0  0  0  0  0  0  0  0  0  0  0
  -45.8468  -27.4682   -0.0957 H   0  0  0  0  0  0  0  0  0  0  0  0
  -42.6618  -30.0272    4.3582 H   0  0  0  0  0  0  0  0  0  0  0  0
  -43.5839  -26.0797   -0.6831 H   0  0  0  0  0  0  0  0  0  0  0  0
  -46.7775  -30.4833    1.3558 H   0  0  0  0  0  0  0  0  0  0  0  0
  -47.2322  -28.7999    1.6175 H   0  0  0  0  0  0  0  0  0  0  0  0
  -47.1847  -29.9252    2.9973 H   0  0  0  0  0  0  0  0  0  0  0  0
  -44.8438  -29.2209    6.8351 H   0  0  0  0  0  0  0  0  0  0  0  0
  -46.3617  -29.7262    7.5937 H   0  0  0  0  0  0  0  0  0  0  0  0
  -46.0601  -28.0080    7.2668 H   0  0  0  0  0  0  0  0  0  0  0  0
  -47.1000  -32.0081    6.2429 H   0  0  0  0  0  0  0  0  0  0  0  0
  -47.4013  -32.2471    4.5130 H   0  0  0  0  0  0  0  0  0  0  0  0
  -47.6123  -28.9763    5.5537 H   0  0  0  0  0  0  0  0  0  0  0  0
  -46.0946  -28.4480    4.8125 H   0  0  0  0  0  0  0  0  0  0  0  0
  -41.8309  -26.7949    0.9575 H   0  0  0  0  0  0  0  0  0  0  0  0
  -48.5677  -30.0694    3.4797 H   0  0  0  0  0  0  0  0  0  0  0  0
  1  2  1  0  0  0  0
  1  3  2  0  0  0  0
  2  4  2  0  0  0  0
  3  9  1  0  0  0  0
  4 12  1  0  0  0  0
  5  7  2  0  0  0  0
  5  8  1  0  0  0  0
  6 10  1  0  0  0  0
  6 21  2  0  0  0  0
  7 23  1  0  0  0  0
  8 11  1  0  0  0  0
  8 13  2  0  0  0  0
  9 12  2  0  0  0  0
  9 14  1  0  0  0  0
 10 11  2  0  0  0  0
 10 16  1  0  0  0  0
 11 17  1  0  0  0  0
 12 24  1  0  0  0  0
 13 21  1  0  0  0  0
 13 23  1  0  0  0  0
 14 22  1  0  0  0  0
 14 26  2  0  0  0  0
 15 19  1  0  0  0  0
 15 22  2  0  0  0  0
 15 24  1  0  0  0  0
 16 25  1  0  0  0  0
 16 27  2  0  0  0  0
 18 20  1  0  0  0  0
 19 25  1  0  0  0  0
 20 25  1  0  0  0  0
  1 28  1  0  0  0  0
  2 29  1  0  0  0  0
  3 30  1  0  0  0  0
  4 31  1  0  0  0  0
  5 32  1  0  0  0  0
  6 33  1  0  0  0  0
  7 34  1  0  0  0  0
 17 35  1  0  0  0  0
 17 36  1  0  0  0  0
 17 37  1  0  0  0  0
 18 38  1  0  0  0  0
 18 39  1  0  0  0  0
 18 40  1  0  0  0  0
 19 41  1  0  0  0  0
 19 42  1  0  0  0  0
 20 43  1  0  0  0  0
 20 44  1  0  0  0  0
 23 45  1  0  0  0  0
 24 46  1  0  0  0  0
M  END
> <POSIT::Probability>
0.05

> <POSIT::Method>
FRED

> <ReceptorTitle>
UCSF-P4537-REFINED_LIGAND-BOUND-STATE_A__DU__LA1_A-201(A)

> <OMEGA_C>
RBNTwtrS4MFAK5RAvi5QwhBj4MFgFlxAZBhRwvSN5sG0BbdA6ElLwqCu5cGGDVVAiJUzwjhD3MFo
etQ+C+0swjmH7ME8fWNAChEvwox/1sGg+bg9CE0ywi3b4sEkRsM/ATJMwr7Z68EJb7NA0T0ywsxJ
78GUTlZAkwo1wpJi6sE07xNAq0NJwmpz68EcPY1AGfkswlzY4MEM0Os/8vBJwhoQ8sF879dAe5pC
wq1m9sFXNK5AmcQ0wiZF98G6PIdAGMU6wp8r7cG1xgNAda03wigv6MEEKdxAX009wnsQ/MG3xKlA
+yU6wq9n6cF4BbBAJRcqwhhZ5cFGJzVAfxJFwo0q98GavdJA0hQrwiJX2cGAYnY/imJEwm/a8MEk
+YpA6EY5wjZN9MHEnp9Ag31Mwpxw8sFYdvlA5sIywqIgAMIQI4dAGuJWwoyv3MFms5ZAwb5Rwtzo
28GwASZAsGhTwtzL5sGIbNRAKBRJwhhF5cHSOhlAHmM3wtq+28GAFMS9t6Uqwqc38MGhdotA5FUu
wkKj0MFU4C6/Mhw7ws7d88EEjK0/w+08wilm5sEUCs8/KL08wrlm78ER0z9ADmAzwmXE6cH3uNpA
a3I5wkjP7cHE//JAjD04wkoQ4MHMiehAbGY8wkMIAMIsxsdA8Jo9wgz9AMKCapBAAnM+wmzP58Ee
uLFA42A4wpSV48G2/5lA5FInwg5c1sG4IHU/SUVCwhGO8MGmsl5A

> <OMEGA_E>
u3QCwQ==

> <OMEGA_NBR>
     32540

$$$$
CACHE3HI_1707_13
  -OEChem-03092622543D

 46 48  0     1  0  0  0  0  0999 V2000
  -43.6781  -35.3114   -2.4598 C   0  0  0  0  0  0  0  0  0  0  0  0
  -42.9074  -34.2461   -2.9255 C   0  0  0  0  0  0  0  0  0  0  0  0
  -48.8794  -28.8611    5.5973 C   0  0  0  0  0  0  0  0  0  0  0  0
  -44.5782  -35.1148   -1.4126 C   0  0  0  0  0  0  0  0  0  0  0  0
  -43.0368  -32.9846   -2.3444 C   0  0  0  0  0  0  0  0  0  0  0  0
  -49.5855  -28.9659    4.4023 C   0  0  0  0  0  0  0  0  0  0  0  0
  -47.6269  -29.9012    3.3299 C   0  0  0  0  0  0  0  0  0  0  0  0
  -46.8996  -29.8039    4.5230 C   0  0  0  0  0  0  0  0  0  0  0  0
  -47.5457  -29.2783    5.6533 C   0  0  0  0  0  0  0  0  0  0  0  0
  -44.7076  -33.8532   -0.8315 C   0  0  0  0  0  0  0  0  0  0  0  0
  -43.9369  -32.7880   -1.2972 C   0  0  0  0  0  0  0  0  0  0  0  0
  -48.9607  -29.4851    3.2712 C   0  0  0  0  0  0  0  0  0  0  0  0
  -44.8556  -30.1015    5.8281 C   0  0  0  0  0  0  0  0  0  0  0  0
  -45.4954  -30.2223    4.6557 C   0  0  0  0  0  0  0  0  0  0  0  0
  -45.5344  -29.5450    7.0291 C   0  0  0  0  0  0  0  0  0  0  0  0
  -44.6847  -30.7886    3.5691 C   0  0  0  0  0  0  0  0  0  0  0  0
  -42.3526  -30.5030    1.6874 C   0  0  0  0  0  0  0  0  0  0  0  0
  -46.9208  -33.2969   -0.1612 C   0  0  0  0  0  0  0  0  0  0  0  0
  -44.4165  -31.4959    0.6413 C   0  0  0  0  0  0  0  0  0  0  0  0
  -43.8063  -30.2617    1.3022 C   0  0  1  0  0  0  0  0  0  0  0  0
  -46.8480  -29.1646    6.8689 N   0  0  0  0  0  0  0  0  0  0  0  0
  -44.5560  -29.9305    2.4928 N   0  0  0  0  0  0  0  0  0  0  0  0
  -44.9207  -29.4467    8.0896 O   0  0  0  0  0  0  0  0  0  0  0  0
  -44.1999  -31.9130    3.6663 O   0  0  0  0  0  0  0  0  0  0  0  0
  -45.5907  -33.6741    0.1902 O   0  0  0  0  0  0  0  0  0  0  0  0
  -44.0542  -31.5446   -0.7341 O   0  0  0  0  0  0  0  0  0  0  0  0
  -49.6400  -29.5863    2.1210 F   0  0  0  0  0  0  0  0  0  0  0  0
  -43.5773  -36.2936   -2.9122 H   0  0  0  0  0  0  0  0  0  0  0  0
  -42.2061  -34.3993   -3.7406 H   0  0  0  0  0  0  0  0  0  0  0  0
  -49.3740  -28.4549    6.4756 H   0  0  0  0  0  0  0  0  0  0  0  0
  -45.1760  -35.9484   -1.0543 H   0  0  0  0  0  0  0  0  0  0  0  0
  -42.4328  -32.1594   -2.7120 H   0  0  0  0  0  0  0  0  0  0  0  0
  -50.6213  -28.6442    4.3518 H   0  0  0  0  0  0  0  0  0  0  0  0
  -47.1820  -30.2991    2.4229 H   0  0  0  0  0  0  0  0  0  0  0  0
  -43.8201  -30.3994    5.9629 H   0  0  0  0  0  0  0  0  0  0  0  0
  -42.2665  -31.3497    2.3748 H   0  0  0  0  0  0  0  0  0  0  0  0
  -41.9299  -29.6214    2.1820 H   0  0  0  0  0  0  0  0  0  0  0  0
  -41.7353  -30.7143    0.8062 H   0  0  0  0  0  0  0  0  0  0  0  0
  -47.5213  -33.1871    0.7455 H   0  0  0  0  0  0  0  0  0  0  0  0
  -46.8911  -32.3431   -0.6935 H   0  0  0  0  0  0  0  0  0  0  0  0
  -47.3574  -34.0598   -0.8099 H   0  0  0  0  0  0  0  0  0  0  0  0
  -45.5094  -31.4592    0.6886 H   0  0  0  0  0  0  0  0  0  0  0  0
  -44.0855  -32.4248    1.1184 H   0  0  0  0  0  0  0  0  0  0  0  0
  -43.8676  -29.4109    0.6147 H   0  0  0  0  0  0  0  0  0  0  0  0
  -47.3431  -28.7801    7.6686 H   0  0  0  0  0  0  0  0  0  0  0  0
  -45.0119  -29.0230    2.5171 H   0  0  0  0  0  0  0  0  0  0  0  0
  1  2  1  0  0  0  0
  1  4  2  0  0  0  0
  2  5  2  0  0  0  0
  3  6  1  0  0  0  0
  3  9  2  0  0  0  0
  4 10  1  0  0  0  0
  5 11  1  0  0  0  0
  6 12  2  0  0  0  0
  7  8  2  0  0  0  0
  7 12  1  0  0  0  0
  8  9  1  0  0  0  0
  8 14  1  0  0  0  0
  9 21  1  0  0  0  0
 10 11  2  0  0  0  0
 10 25  1  0  0  0  0
 11 26  1  0  0  0  0
 12 27  1  0  0  0  0
 13 14  2  0  0  0  0
 13 15  1  0  0  0  0
 14 16  1  0  0  0  0
 15 21  1  0  0  0  0
 15 23  2  0  0  0  0
 16 22  1  0  0  0  0
 16 24  2  0  0  0  0
 17 20  1  0  0  0  0
 18 25  1  0  0  0  0
 19 20  1  0  0  0  0
 19 26  1  0  0  0  0
 20 22  1  0  0  0  0
  1 28  1  0  0  0  0
  2 29  1  0  0  0  0
  3 30  1  0  0  0  0
  4 31  1  0  0  0  0
  5 32  1  0  0  0  0
  6 33  1  0  0  0  0
  7 34  1  0  0  0  0
 13 35  1  0  0  0  0
 17 36  1  0  0  0  0
 17 37  1  0  0  0  0
 17 38  1  0  0  0  0
 18 39  1  0  0  0  0
 18 40  1  0  0  0  0
 18 41  1  0  0  0  0
 19 42  1  0  0  0  0
 19 43  1  0  0  0  0
 20 44  1  0  0  0  0
 21 45  1  0  0  0  0
 22 46  1  0  0  0  0
M  END
> <POSIT::Probability>
0.23

> <POSIT::Method>
HYBRID

> <ReceptorTitle>
UCSF-P4537-REFINED_LIGAND-BOUND-STATE_A__DU__LA1_A-201(A)

> <OMEGA_C>
YrYuwt8+DcJWbR3AJqErwg78CMLkOzvAfYRDwpbj5sEEHbNAC1Aywox1DMIQz7S/rSUswjHwA8JI
CxbAiFdGwkO658Hd34xA6IE+wqA178HUHFVAJZk7wkxu7sFavJBAwy4+wug56sHO57RAkdQywrFp
B8LI21S/YL8vwuQmA8KcCaa/wddDwnXh68HoWlFAGmwzwtrP8MF5f7pASvs1wkTH8cFy+5RAPiM2
wjhc7MF17uBALL0ywiRP9sE5bGRAD2kpwjoG9MEc/Nc/5K47wvwvBcJgDyW+daoxwqD3+8EALCQ/
mjkvwvQX8sHqrKY/UmQ7wgJR6cHFzdtAXDkywp5x78HCih9A0q4zws6S68ERbwFBpswwwu1N/8HA
pGpA7Vw2wk+yBsJAyUI+gjcwwkRb/MEg8Du/Vo9GwqWw7MEsvgdAHE8uwp8sEcJ6YTrACNMowt2Y
CcLIZW/A9X5Fwrmj48F+OM9AObQ0wizLD8Ko8oa/NLspwjOjAMJ8kS3AOXxKwmwn5cFXQotAXro8
wo5k8sFVEBtAzUcvwuYx88Hhz75A4BApwh7M+sFM/BdAP7gnwof47MHvpQtA6fAmwtm29cHQY04/
1RU+wqS/BMIo3D4/eZA7wlhfAcIgizG/+209wjA9CML4Uk+/mAk2wnys+8HgSDA/iVcwwveyAcK4
KI8/ZngvwqBJ68FAYB0/W189wrY95sHUZPVANAw0wgIv6MGGFyFA

> <OMEGA_E>
eCHRwA==

> <OMEGA_NBR>
     33959

$$$$
CACHE3HI_1708_15
  -OEChem-03092622543D

 44 46  0     1  0  0  0  0  0999 V2000
  -46.2380  -31.7377    1.2184 C   0  0  0  0  0  0  0  0  0  0  0  0
  -45.6041  -32.7429   -0.8855 C   0  0  0  0  0  0  0  0  0  0  0  0
  -47.6085  -31.4024   -0.7428 C   0  0  0  0  0  0  0  0  0  0  0  0
  -45.4229  -29.9075    4.7228 C   0  0  0  0  0  0  0  0  0  0  0  0
  -48.6578  -29.5029    6.3463 C   0  0  0  0  0  0  0  0  0  0  0  0
  -44.2533  -29.6197    6.6964 C   0  0  0  0  0  0  0  0  0  0  0  0
  -46.6022  -29.7373    5.4468 C   0  0  0  0  0  0  0  0  0  0  0  0
  -47.9915  -29.7305    5.1608 C   0  0  0  0  0  0  0  0  0  0  0  0
  -45.3585  -32.5195    0.4695 C   0  0  0  0  0  0  0  0  0  0  0  0
  -47.3630  -31.1790    0.6121 C   0  0  0  0  0  0  0  0  0  0  0  0
  -46.7291  -32.1842   -1.4918 C   0  0  0  0  0  0  0  0  0  0  0  0
  -46.4682  -29.5117    6.8112 C   0  0  0  0  0  0  0  0  0  0  0  0
  -48.6381  -29.9194    3.8939 C   0  0  0  0  0  0  0  0  0  0  0  0
  -44.1556  -33.1174    1.1174 C   0  0  0  0  0  0  0  0  0  0  0  0
  -49.7854  -32.3224    2.0246 C   0  0  0  0  0  0  0  0  0  0  0  0
  -46.0312  -33.2144   -3.5188 C   0  0  0  0  0  0  0  0  0  0  0  0
  -49.7391  -30.9187    1.4332 C   0  0  0  0  0  0  0  0  0  0  0  0
  -48.3187  -30.3287    1.4255 C   0  0  1  0  0  0  0  0  0  0  0  0
  -44.2331  -29.8463    5.3637 N   0  0  0  0  0  0  0  0  0  0  0  0
  -45.3184  -29.4406    7.5042 N   0  0  0  0  0  0  0  0  0  0  0  0
  -47.7234  -29.3719    7.3414 N   0  0  0  0  0  0  0  0  0  0  0  0
  -47.8204  -30.1427    2.7692 N   0  0  0  0  0  0  0  0  0  0  0  0
  -49.8858  -29.8682    3.7866 O   0  0  0  0  0  0  0  0  0  0  0  0
  -46.9700  -32.4036   -2.8133 O   0  0  0  0  0  0  0  0  0  0  0  0
  -46.0469  -31.5638    2.2749 H   0  0  0  0  0  0  0  0  0  0  0  0
  -44.9205  -33.3531   -1.4709 H   0  0  0  0  0  0  0  0  0  0  0  0
  -48.4854  -30.9694   -1.2180 H   0  0  0  0  0  0  0  0  0  0  0  0
  -45.3915  -30.0894    3.6559 H   0  0  0  0  0  0  0  0  0  0  0  0
  -49.7119  -29.4223    6.5737 H   0  0  0  0  0  0  0  0  0  0  0  0
  -43.2833  -29.5770    7.1797 H   0  0  0  0  0  0  0  0  0  0  0  0
  -44.3756  -34.1123    1.5262 H   0  0  0  0  0  0  0  0  0  0  0  0
  -43.8061  -32.4997    1.9553 H   0  0  0  0  0  0  0  0  0  0  0  0
  -43.3386  -33.2129    0.3916 H   0  0  0  0  0  0  0  0  0  0  0  0
  -49.1165  -33.0034    1.4897 H   0  0  0  0  0  0  0  0  0  0  0  0
  -50.8002  -32.7313    1.9851 H   0  0  0  0  0  0  0  0  0  0  0  0
  -49.4713  -32.2994    3.0731 H   0  0  0  0  0  0  0  0  0  0  0  0
  -46.3420  -33.3094   -4.5625 H   0  0  0  0  0  0  0  0  0  0  0  0
  -45.0480  -32.7398   -3.4754 H   0  0  0  0  0  0  0  0  0  0  0  0
  -45.9777  -34.2008   -3.0525 H   0  0  0  0  0  0  0  0  0  0  0  0
  -50.4234  -30.2767    2.0014 H   0  0  0  0  0  0  0  0  0  0  0  0
  -50.1259  -30.9643    0.4072 H   0  0  0  0  0  0  0  0  0  0  0  0
  -48.3623  -29.3231    0.9886 H   0  0  0  0  0  0  0  0  0  0  0  0
  -47.9286  -29.1989    8.3157 H   0  0  0  0  0  0  0  0  0  0  0  0
  -46.8133  -30.1138    2.8883 H   0  0  0  0  0  0  0  0  0  0  0  0
  1  9  2  0  0  0  0
  1 10  1  0  0  0  0
  2  9  1  0  0  0  0
  2 11  2  0  0  0  0
  3 10  2  0  0  0  0
  3 11  1  0  0  0  0
  4  7  2  0  0  0  0
  4 19  1  0  0  0  0
  5  8  2  0  0  0  0
  5 21  1  0  0  0  0
  6 19  2  0  0  0  0
  6 20  1  0  0  0  0
  7  8  1  0  0  0  0
  7 12  1  0  0  0  0
  8 13  1  0  0  0  0
  9 14  1  0  0  0  0
 10 18  1  0  0  0  0
 11 24  1  0  0  0  0
 12 20  2  0  0  0  0
 12 21  1  0  0  0  0
 13 22  1  0  0  0  0
 13 23  2  0  0  0  0
 15 17  1  0  0  0  0
 16 24  1  0  0  0  0
 17 18  1  0  0  0  0
 18 22  1  0  0  0  0
  1 25  1  0  0  0  0
  2 26  1  0  0  0  0
  3 27  1  0  0  0  0
  4 28  1  0  0  0  0
  5 29  1  0  0  0  0
  6 30  1  0  0  0  0
 14 31  1  0  0  0  0
 14 32  1  0  0  0  0
 14 33  1  0  0  0  0
 15 34  1  0  0  0  0
 15 35  1  0  0  0  0
 15 36  1  0  0  0  0
 16 37  1  0  0  0  0
 16 38  1  0  0  0  0
 16 39  1  0  0  0  0
 17 40  1  0  0  0  0
 17 41  1  0  0  0  0
 18 42  1  0  0  0  0
 21 43  1  0  0  0  0
 22 44  1  0  0  0  0
M  END
> <POSIT::Probability>
0.18

> <POSIT::Method>
HYBRID

> <ReceptorTitle>
UCSF-P4537-REFINED_LIGAND-BOUND-STATE_A__DU__LA1_A-201(A)

> <OMEGA_C>
rfM4wrzm/cEU9ps/lmo2wr34AsJQrWK/JW8+who4+8HoKj6/CrE1wqdC78FzIZdAjaFCwgUG7MGX
FMtAawMxwiD17MHdSNZAtGg6wgzm7cGITK5AT/c/wvzX7cGnJaVAH281wvoTAsKAXPA+r3M9wpZu
+cGosBw/peo6wqK8AMKA9L6/b985wvcX7MFY9dlAbY1Cwghb78FgNXlAVZ8wwjF4BMLEBo8/OSRH
widKAcIAkwFA/x84worbBMKwNGHAzfRGwpFZ98HEc7c/YUZBwkGh8sF0dbY/qO4wwj/F7sFfo6tA
F0Y1wk6G68GpIvBAt+Q+wr/56sG37OpAGkg/wkck8cHiOjFAG4tHwgvy7sFyWHJATOE7wkGdAcK8
DDTAETA4wsCC/MGOmBFAlq4zwqBpBcLwRLy/F/FBwlHB98Gg55u/6ZA1whu38MGg+WlA+9hGwuRg
68H/W9JAFCItwpid7MHwv+VAm4Axwv9yCMKoWcM/Zzkvwqn/AcKsRfo/wFotwvrZBMJAfMg+SXdE
wngDBMJArr4/ZTNLwuHsAsKMGP4/leJFwpEyAcIwrkRAKV45wsc8BcJAAJLAJTE0wo/1AsJBbV7A
Lek3wqjNCMJHXEPAkrFJwsI28sHcFgBA4YBIwum298FQd9A+8nJBwrKV6sGQFH0/5bY/wkeX6cHo
DAVB1UA7wiLp8MH62ThA

> <OMEGA_E>
ykD5wA==

> <OMEGA_NBR>
     35338

$$$$
CACHE3HI_1709_19
  -OEChem-03092622543D

 36 39  0     0  0  0  0  0  0999 V2000
  -46.5349  -28.7434    4.9623 C   0  0  0  0  0  0  0  0  0  0  0  0
  -46.8458  -33.8789    0.3814 C   0  0  0  0  0  0  0  0  0  0  0  0
  -47.1351  -28.7038    6.2250 C   0  0  0  0  0  0  0  0  0  0  0  0
  -46.8034  -34.1707   -0.9819 C   0  0  0  0  0  0  0  0  0  0  0  0
  -44.7587  -32.9005   -1.1913 C   0  0  0  0  0  0  0  0  0  0  0  0
  -45.9260  -33.0866    4.3648 C   0  0  0  0  0  0  0  0  0  0  0  0
  -47.2658  -29.1327    3.8183 C   0  0  0  0  0  0  0  0  0  0  0  0
  -45.8444  -33.0980    0.9584 C   0  0  0  0  0  0  0  0  0  0  0  0
  -48.4624  -29.0607    6.2913 C   0  0  0  0  0  0  0  0  0  0  0  0
  -49.1836  -29.4444    5.1644 C   0  0  0  0  0  0  0  0  0  0  0  0
  -45.7601  -33.6815   -1.7682 C   0  0  0  0  0  0  0  0  0  0  0  0
  -44.8011  -32.6088    0.1721 C   0  0  0  0  0  0  0  0  0  0  0  0
  -48.6148  -29.4911    3.9120 C   0  0  0  0  0  0  0  0  0  0  0  0
  -45.9563  -31.5867    2.9135 C   0  0  0  0  0  0  0  0  0  0  0  0
  -50.5979  -29.5424    6.9621 C   0  0  0  0  0  0  0  0  0  0  0  0
  -46.6008  -29.1624    2.5247 C   0  0  0  0  0  0  0  0  0  0  0  0
  -45.9811  -31.7299    4.2181 N   0  0  0  0  0  0  0  0  0  0  0  0
  -45.8687  -33.7912    3.2329 N   0  0  0  0  0  0  0  0  0  0  0  0
  -45.8891  -32.8083    2.3200 N   0  0  0  0  0  0  0  0  0  0  0  0
  -49.3110  -29.1153    7.3964 N   0  0  0  0  0  0  0  0  0  0  0  0
  -50.4886  -29.7414    5.5569 N   0  0  0  0  0  0  0  0  0  0  0  0
  -45.9908  -30.3760    2.1786 N   0  0  0  0  0  0  0  0  0  0  0  0
  -51.5924  -29.7045    7.6545 O   0  0  0  0  0  0  0  0  0  0  0  0
  -46.5910  -28.1351    1.8276 O   0  0  0  0  0  0  0  0  0  0  0  0
  -45.7198  -33.9628   -3.0772 F   0  0  0  0  0  0  0  0  0  0  0  0
  -43.8319  -31.8573    0.7143 F   0  0  0  0  0  0  0  0  0  0  0  0
  -49.3206  -29.8645    2.8381 F   0  0  0  0  0  0  0  0  0  0  0  0
  -45.4866  -28.4671    4.8689 H   0  0  0  0  0  0  0  0  0  0  0  0
  -47.6642  -34.2675    0.9825 H   0  0  0  0  0  0  0  0  0  0  0  0
  -46.5748  -28.4040    7.1023 H   0  0  0  0  0  0  0  0  0  0  0  0
  -47.5817  -34.7796   -1.4325 H   0  0  0  0  0  0  0  0  0  0  0  0
  -43.9459  -32.5205   -1.8031 H   0  0  0  0  0  0  0  0  0  0  0  0
  -45.9275  -33.5767    5.3269 H   0  0  0  0  0  0  0  0  0  0  0  0
  -49.0429  -28.8869    8.3458 H   0  0  0  0  0  0  0  0  0  0  0  0
  -51.2267  -30.0462    4.9343 H   0  0  0  0  0  0  0  0  0  0  0  0
  -45.5098  -30.3892    1.2822 H   0  0  0  0  0  0  0  0  0  0  0  0
  1  3  2  0  0  0  0
  1  7  1  0  0  0  0
  2  4  1  0  0  0  0
  2  8  2  0  0  0  0
  3  9  1  0  0  0  0
  4 11  2  0  0  0  0
  5 11  1  0  0  0  0
  5 12  2  0  0  0  0
  6 17  1  0  0  0  0
  6 18  2  0  0  0  0
  7 13  2  0  0  0  0
  7 16  1  0  0  0  0
  8 12  1  0  0  0  0
  8 19  1  0  0  0  0
  9 10  2  0  0  0  0
  9 20  1  0  0  0  0
 10 13  1  0  0  0  0
 10 21  1  0  0  0  0
 11 25  1  0  0  0  0
 12 26  1  0  0  0  0
 13 27  1  0  0  0  0
 14 17  2  0  0  0  0
 14 19  1  0  0  0  0
 14 22  1  0  0  0  0
 15 20  1  0  0  0  0
 15 21  1  0  0  0  0
 15 23  2  0  0  0  0
 16 22  1  0  0  0  0
 16 24  2  0  0  0  0
 18 19  1  0  0  0  0
  1 28  1  0  0  0  0
  2 29  1  0  0  0  0
  3 30  1  0  0  0  0
  4 31  1  0  0  0  0
  5 32  1  0  0  0  0
  6 33  1  0  0  0  0
 20 34  1  0  0  0  0
 21 35  1  0  0  0  0
 22 36  1  0  0  0  0
M  END
> <POSIT::Probability>
0.18

> <POSIT::Method>
HYBRID

> <ReceptorTitle>
UCSF-P4537-REFINED_LIGAND-BOUND-STATE_A__DU__LA1_A-201(A)

> <OMEGA_C>
uyM6wojy5cF4y55AFGI7wvuDB8JwScM+VYo8wnGh5cHQMsdAqTY7wsiuCMK8YHu/7AgzwimaA8II
e5i/M7Q3wrBYBMJ6rItAOhA9wrkP6cHOX3RAsGA3wk9kBMKoV3U/gNlBwlp86MFeUslA+rtEwhGO
68H2QqVAWQo3wtu5BsL8VeK/XzQzwmRvAsKAMTA+iXVCwtDt68HQXnpAONM3wnux/MFMdjpAM2RK
wrxW7MGdyd5AOmc6wo5M6cG8lCFAouw3wsnW/cFU+oZAjHk3wioqB8KM505AfI43wrs7A8J0ehRA
fT5Fwg3s6MGyr+xAT/RJwk3u7cHM0bFAmvY3whwC88G6bgtAll5Owrmi7cF28fRANl06wqoU4cFw
7ek/GuE2wuvZB8IZ8UTA1lMvws/b/sGs2zY/RkhFwnnq7sEiozVATvI1wqy848FrzptAMKg+wvUR
CcI0h3s/kUw6wnY748G3ReNApFM+wlEeC8IUW7e/pMgvwgQVAsKPy+a/u7U3woZOBsKgdapA9StE
wmgY58E8iAVBGOhMwrRe8MF45Z1AFgo2whMd88EsH6Q/

> <OMEGA_E>
QSqPwA==

> <OMEGA_NBR>
     36558

$$$$
CACHE3HI_1709_44
  -OEChem-03092622543D

 41 44  0     1  0  0  0  0  0999 V2000
  -47.9411  -30.0869    5.2857 C   0  0  0  0  0  0  0  0  0  0  0  0
  -49.8008  -36.2063   -0.0319 C   0  0  0  0  0  0  0  0  0  0  0  0
  -48.6468  -29.8981    6.4550 C   0  0  0  0  0  0  0  0  0  0  0  0
  -44.2842  -29.2850    6.8115 C   0  0  0  0  0  0  0  0  0  0  0  0
  -46.5716  -29.8534    5.5716 C   0  0  0  0  0  0  0  0  0  0  0  0
  -45.3732  -29.8755    4.8593 C   0  0  0  0  0  0  0  0  0  0  0  0
  -49.5014  -36.2752    1.3125 C   0  0  0  0  0  0  0  0  0  0  0  0
  -46.4888  -29.5272    6.9196 C   0  0  0  0  0  0  0  0  0  0  0  0
  -48.2231  -34.6850    0.0331 C   0  0  0  0  0  0  0  0  0  0  0  0
  -45.2979  -30.1970    3.4505 C   0  0  0  0  0  0  0  0  0  0  0  0
  -47.2782  -33.6384   -0.4331 C   0  0  0  0  0  0  0  0  0  0  0  0
  -44.1369  -32.3727   -0.3062 C   0  0  0  0  0  0  0  0  0  0  0  0
  -44.2672  -31.8587    1.1058 C   0  0  2  0  0  0  0  0  0  0  0  0
  -45.4965  -32.0508    0.2457 C   0  0  2  0  0  0  0  0  0  0  0  0
  -43.7911  -30.4597    1.4573 C   0  0  0  0  0  0  0  0  0  0  0  0
  -50.0843  -37.1267    2.3671 C   0  0  0  0  0  0  0  0  0  0  0  0
  -49.0686  -35.2948   -0.7673 N   0  0  0  0  0  0  0  0  0  0  0  0
  -44.2148  -29.5855    5.4952 N   0  0  0  0  0  0  0  0  0  0  0  0
  -45.3721  -29.2307    7.6069 N   0  0  0  0  0  0  0  0  0  0  0  0
  -47.7553  -29.5589    7.4402 N   0  0  0  0  0  0  0  0  0  0  0  0
  -44.0275  -30.1828    2.8559 N   0  0  0  0  0  0  0  0  0  0  0  0
  -46.4356  -33.0758    0.5327 N   0  0  0  0  0  0  0  0  0  0  0  0
  -46.3295  -30.4547    2.7988 O   0  0  0  0  0  0  0  0  0  0  0  0
  -47.2886  -33.3039   -1.6147 O   0  0  0  0  0  0  0  0  0  0  0  0
  -50.6660  -36.4277    3.3960 F   0  0  0  0  0  0  0  0  0  0  0  0
  -49.1792  -37.9526    2.9865 F   0  0  0  0  0  0  0  0  0  0  0  0
  -48.2531  -35.1591    1.6816 S   0  0  0  0  0  0  0  0  0  0  0  0
  -48.3727  -30.3615    4.3330 H   0  0  0  0  0  0  0  0  0  0  0  0
  -50.5513  -36.8029   -0.5335 H   0  0  0  0  0  0  0  0  0  0  0  0
  -49.7027  -29.9750    6.6729 H   0  0  0  0  0  0  0  0  0  0  0  0
  -43.3380  -29.0585    7.2907 H   0  0  0  0  0  0  0  0  0  0  0  0
  -43.7308  -31.7109   -1.0618 H   0  0  0  0  0  0  0  0  0  0  0  0
  -43.8660  -33.4137   -0.4368 H   0  0  0  0  0  0  0  0  0  0  0  0
  -44.0904  -32.5612    1.9118 H   0  0  0  0  0  0  0  0  0  0  0  0
  -45.9774  -31.1591   -0.1423 H   0  0  0  0  0  0  0  0  0  0  0  0
  -42.7205  -30.3703    1.2463 H   0  0  0  0  0  0  0  0  0  0  0  0
  -44.3169  -29.7223    0.8419 H   0  0  0  0  0  0  0  0  0  0  0  0
  -50.8700  -37.7817    1.9530 H   0  0  0  0  0  0  0  0  0  0  0  0
  -47.9955  -29.3603    8.4016 H   0  0  0  0  0  0  0  0  0  0  0  0
  -43.2265  -29.9055    3.4134 H   0  0  0  0  0  0  0  0  0  0  0  0
  -46.5451  -33.3775    1.5077 H   0  0  0  0  0  0  0  0  0  0  0  0
  1  3  2  0  0  0  0
  1  5  1  0  0  0  0
  2  7  2  0  0  0  0
  2 17  1  0  0  0  0
  3 20  1  0  0  0  0
  4 18  2  0  0  0  0
  4 19  1  0  0  0  0
  5  6  2  0  0  0  0
  5  8  1  0  0  0  0
  6 10  1  0  0  0  0
  6 18  1  0  0  0  0
  7 16  1  0  0  0  0
  7 27  1  0  0  0  0
  8 19  2  0  0  0  0
  8 20  1  0  0  0  0
  9 11  1  0  0  0  0
  9 17  2  0  0  0  0
  9 27  1  0  0  0  0
 10 21  1  0  0  0  0
 10 23  2  0  0  0  0
 11 22  1  0  0  0  0
 11 24  2  0  0  0  0
 12 13  1  0  0  0  0
 12 14  1  0  0  0  0
 13 14  1  0  0  0  0
 13 15  1  0  0  0  0
 14 22  1  0  0  0  0
 15 21  1  0  0  0  0
 16 25  1  0  0  0  0
 16 26  1  0  0  0  0
  1 28  1  0  0  0  0
  2 29  1  0  0  0  0
  3 30  1  0  0  0  0
  4 31  1  0  0  0  0
 12 32  1  0  0  0  0
 12 33  1  0  0  0  0
 13 34  1  0  0  0  0
 14 35  1  0  0  0  0
 15 36  1  0  0  0  0
 15 37  1  0  0  0  0
 16 38  1  0  0  0  0
 20 39  1  0  0  0  0
 21 40  1  0  0  0  0
 22 41  1  0  0  0  0
M  END
> <POSIT::Probability>
0.18

> <POSIT::Method>
HYBRID

> <ReceptorTitle>
UCSF-P4537-REFINED_LIGAND-BOUND-STATE_A__DU__LA1_A-201(A)

> <OMEGA_C>
ucM/wuKx8MGXJKlACTRHwj7TEMIA0gK9WZZCwjUv78Fnj85ACyMxwq9H6sEt+NlATUk6wrPT7sFP
SrJAHH41wgYB78F+f5tAbwFGwsgZEcKEAKg/hvQ5wqc37MEUbd1AaeRAwma9CsIAhAc9AzE1wmqT
8cHM1VxA5hw9wr6NBsKAvd2+Lowwwp59AcLww5y+nBExwpLe/sEQjI0/cvw1wgI0AMIgm3s+FSov
wmKt88GMh7o/XVZIwr6BFMJwfhdASEZEwuotDcJga0S/ANwwwhmv7MG12K9AEX01woDY6cH1a/NA
ZAU/wq547MF1Fu5AIBwwwmN28cGUxjZAAr45wpVNBMJYXAg/Z1E5wj6j88EkHzNAkSc9wik3BcLI
r86/8qlKwgK2EcImWFlAf7dEwn7PF8JQIz9AJgNBwuiiDMK8P9c/pX1BwkXk8sGup4pAhTRKwjg2
E8JgkQi/lc9GwtXM78HKiNVAHlotwrd36MHKTelAUuwuwgGw/cEQ6oe/xnYvwqGnBcLAqN++l1ww
wrI+AsIwtfQ/2ug3wr5F+cEAvRG+z+EqwmD28sFchZ8/jEQxwlzH7cGgh1c/5HpLwoAgF8Ko+/k/
Wfs/wv/h6sHWbAZB+Ocswmg+78FWdVpALS46wpuCBcL8+8A/

> <OMEGA_E>
WP6jwA==

> <OMEGA_NBR>
     37882

$$$$
CACHE3HI_1709_57
  -OEChem-03092622543D

 54 57  0     1  0  0  0  0  0999 V2000
  -48.1672  -29.6428    4.8815 C   0  0  0  0  0  0  0  0  0  0  0  0
  -45.9616  -34.4264   -3.1843 C   0  0  0  0  0  0  0  0  0  0  0  0
  -48.9155  -29.5137    6.0322 C   0  0  0  0  0  0  0  0  0  0  0  0
  -46.3405  -34.0136   -4.4385 C   0  0  0  0  0  0  0  0  0  0  0  0
  -44.5406  -29.4382    6.6562 C   0  0  0  0  0  0  0  0  0  0  0  0
  -46.7995  -29.5988    5.2548 C   0  0  0  0  0  0  0  0  0  0  0  0
  -45.5709  -29.6718    4.5997 C   0  0  0  0  0  0  0  0  0  0  0  0
  -44.5645  -34.2541   -3.1651 C   0  0  0  0  0  0  0  0  0  0  0  0
  -46.7609  -29.4432    6.6349 C   0  0  0  0  0  0  0  0  0  0  0  0
  -45.4453  -29.8376    3.1293 C   0  0  0  0  0  0  0  0  0  0  0  0
  -44.3166  -34.3686   -0.7092 C   0  0  0  0  0  0  0  0  0  0  0  0
  -43.0681  -31.3754    0.9661 C   0  0  0  0  0  0  0  0  0  0  0  0
  -43.0867  -32.1906   -0.3172 C   0  0  0  0  0  0  0  0  0  0  0  0
  -44.5490  -31.2605    1.3147 C   0  0  1  0  0  0  0  0  0  0  0  0
  -45.1339  -32.6124    0.8842 C   0  0  1  0  0  0  0  0  0  0  0  0
  -46.4057  -31.4082   -0.9030 C   0  0  0  0  0  0  0  0  0  0  0  0
  -47.4960  -31.8988    1.3007 C   0  0  0  0  0  0  0  0  0  0  0  0
  -47.0119  -33.7657   -0.3016 C   0  0  0  0  0  0  0  0  0  0  0  0
  -43.6253  -34.5492   -2.0375 C   0  0  0  0  0  0  0  0  0  0  0  0
  -46.5062  -32.4219    0.2477 C   0  0  0  0  0  0  0  0  0  0  0  0
  -44.4272  -29.5892    5.3175 N   0  0  0  0  0  0  0  0  0  0  0  0
  -45.6609  -29.3556    7.4027 N   0  0  0  0  0  0  0  0  0  0  0  0
  -44.0886  -33.7702   -4.3154 N   0  0  0  0  0  0  0  0  0  0  0  0
  -48.0517  -29.3935    7.0905 N   0  0  0  0  0  0  0  0  0  0  0  0
  -45.1924  -33.6344   -5.0696 N   0  0  0  0  0  0  0  0  0  0  0  0
  -44.2088  -33.1077   -0.1409 N   0  0  0  0  0  0  0  0  0  0  0  0
  -44.7719  -30.9720    2.7047 N   0  0  0  0  0  0  0  0  0  0  0  0
  -45.9124  -28.9784    2.3864 O   0  0  0  0  0  0  0  0  0  0  0  0
  -44.9248  -35.3109   -0.1983 O   0  0  0  0  0  0  0  0  0  0  0  0
  -48.5694  -29.7545    3.8839 H   0  0  0  0  0  0  0  0  0  0  0  0
  -46.6068  -34.7977   -2.4014 H   0  0  0  0  0  0  0  0  0  0  0  0
  -49.9845  -29.4969    6.1916 H   0  0  0  0  0  0  0  0  0  0  0  0
  -47.3026  -33.9570   -4.9272 H   0  0  0  0  0  0  0  0  0  0  0  0
  -43.6050  -29.3763    7.2015 H   0  0  0  0  0  0  0  0  0  0  0  0
  -42.4707  -31.8404    1.7504 H   0  0  0  0  0  0  0  0  0  0  0  0
  -42.6567  -30.3828    0.7664 H   0  0  0  0  0  0  0  0  0  0  0  0
  -43.2240  -31.5728   -1.2041 H   0  0  0  0  0  0  0  0  0  0  0  0
  -42.1779  -32.7860   -0.4243 H   0  0  0  0  0  0  0  0  0  0  0  0
  -45.0168  -30.4123    0.7491 H   0  0  0  0  0  0  0  0  0  0  0  0
  -45.2137  -33.3244    1.6897 H   0  0  0  0  0  0  0  0  0  0  0  0
  -47.3806  -31.2528   -1.3786 H   0  0  0  0  0  0  0  0  0  0  0  0
  -45.7099  -31.7557   -1.6761 H   0  0  0  0  0  0  0  0  0  0  0  0
  -46.0493  -30.4348   -0.5476 H   0  0  0  0  0  0  0  0  0  0  0  0
  -48.4917  -31.7532    0.8674 H   0  0  0  0  0  0  0  0  0  0  0  0
  -47.5951  -32.6042    2.1335 H   0  0  0  0  0  0  0  0  0  0  0  0
  -47.1687  -30.9385    1.7139 H   0  0  0  0  0  0  0  0  0  0  0  0
  -47.9982  -33.6556   -0.7651 H   0  0  0  0  0  0  0  0  0  0  0  0
  -47.0991  -34.5142    0.4938 H   0  0  0  0  0  0  0  0  0  0  0  0
  -46.3289  -34.1636   -1.0609 H   0  0  0  0  0  0  0  0  0  0  0  0
  -42.7645  -33.8816   -2.0573 H   0  0  0  0  0  0  0  0  0  0  0  0
  -43.2619  -35.5754   -2.0862 H   0  0  0  0  0  0  0  0  0  0  0  0
  -48.3248  -29.2826    8.0571 H   0  0  0  0  0  0  0  0  0  0  0  0
  -45.0895  -33.2750   -6.0104 H   0  0  0  0  0  0  0  0  0  0  0  0
  -44.3583  -31.6061    3.3802 H   0  0  0  0  0  0  0  0  0  0  0  0
  1  3  2  0  0  0  0
  1  6  1  0  0  0  0
  2  4  2  0  0  0  0
  2  8  1  0  0  0  0
  3 24  1  0  0  0  0
  4 25  1  0  0  0  0
  5 21  1  0  0  0  0
  5 22  2  0  0  0  0
  6  7  1  0  0  0  0
  6  9  2  0  0  0  0
  7 10  1  0  0  0  0
  7 21  2  0  0  0  0
  8 19  1  0  0  0  0
  8 23  2  0  0  0  0
  9 22  1  0  0  0  0
  9 24  1  0  0  0  0
 10 27  1  0  0  0  0
 10 28  2  0  0  0  0
 11 19  1  0  0  0  0
 11 26  1  0  0  0  0
 11 29  2  0  0  0  0
 12 13  1  0  0  0  0
 12 14  1  0  0  0  0
 13 26  1  0  0  0  0
 14 15  1  0  0  0  0
 14 27  1  0  0  0  0
 15 20  1  0  0  0  0
 15 26  1  0  0  0  0
 16 20  1  0  0  0  0
 17 20  1  0  0  0  0
 18 20  1  0  0  0  0
 23 25  1  0  0  0  0
  1 30  1  0  0  0  0
  2 31  1  0  0  0  0
  3 32  1  0  0  0  0
  4 33  1  0  0  0  0
  5 34  1  0  0  0  0
 12 35  1  0  0  0  0
 12 36  1  0  0  0  0
 13 37  1  0  0  0  0
 13 38  1  0  0  0  0
 14 39  1  0  0  0  0
 15 40  1  0  0  0  0
 16 41  1  0  0  0  0
 16 42  1  0  0  0  0
 16 43  1  0  0  0  0
 17 44  1  0  0  0  0
 17 45  1  0  0  0  0
 17 46  1  0  0  0  0
 18 47  1  0  0  0  0
 18 48  1  0  0  0  0
 18 49  1  0  0  0  0
 19 50  1  0  0  0  0
 19 51  1  0  0  0  0
 24 52  1  0  0  0  0
 25 53  1  0  0  0  0
 27 54  1  0  0  0  0
M  END
> <POSIT::Probability>
0.42

> <POSIT::Method>
HYBRID

> <ReceptorTitle>
UCSF-P4537-REFINED_LIGAND-BOUND-STATE_A__DU__LA1_A-201(A)

> <OMEGA_C>
NKtAwmYk7cEKNZxAtdg3wpu0CcI6y0vAeKlDwg8c7MEUCMFAs1w5wvoNCMKBCI7AhykywmqB68Hu
/9RArzI7wmfK7MGMJ6hAlkg2wsRf7cFwMJNAGUIywjIECcICkUrAKws7wqGL68EwUdRAAcg1wnCz
7sE8RkhALUQxwnp5CcJQizW/wkUswsQA+8GwUnc/xVgswijDAMKgZqK+ITIywn8V+sF4Sag/KYk0
wiZzAsLQXWI/Z585whhE+8GgKGe/4vs9wqcw/8G4e6Y/MQw8wiAQB8LgbZq+VoAuwlYyCsIsZgLA
YgY6wgCwAcJAqH0+dLUxwqi27MEAKapAuaQ2wjTY6sH84uxArVowwqkUB8JiF4rA5jRAwuIl68FO
5eJAEMU0wqKJBsIyOqLA1NUwwkRuBMLAShC+dxYzwrjG98F4GS1ATKY3wq7T58EMuxhA+LIzwlc+
DcKAGEu+HUdCwkoJ7sF0knhAUm06wt4wC8LkrxnAFfBHwrj568FmIcZA2jU9wv/TB8Kjq53AkGsu
wpYC68FmcuZA9uEpwi65/sFADuA/gKAqwvAP88HgM0Q/Y+UswhOV/MHAHpq/I7YowtwkA8KAPtm+
LBE0wnpM88HAxD8/2to0wipMBcLwRtg/s4U9wrQF+sGodLC/+dY2wqoL/sEgida/fzI4wnZ688Gg
LAy/f/dBwoAG/sGQD14/ZGE+wrZqAsIQjAhAs6w8whqC98EIYts/Mv4/wkmfBsLA3EO/dmU8wpAO
CsKg1vw+zlA5wpOnCMIwyoe/1w4rwrmGB8IEqwPAOwwtwjZNDsIchAXAl0xBwtNC6sEB6gBBp1s0
wpwZBcLfVMDA424xwlHZ/MGQVFhA

> <OMEGA_E>
MGy2wA==

> <OMEGA_NBR>
     39474

$$$$
CACHE3HI_1709_67
  -OEChem-03092622543D

 54 57  0     1  0  0  0  0  0999 V2000
  -45.0451  -30.5602    4.9557 C   0  0  0  0  0  0  0  0  0  0  0  0
  -48.6764  -29.5078    5.2394 C   0  0  0  0  0  0  0  0  0  0  0  0
  -44.7747  -30.1994    6.2688 C   0  0  0  0  0  0  0  0  0  0  0  0
  -49.0643  -29.0027    6.4619 C   0  0  0  0  0  0  0  0  0  0  0  0
  -47.2995  -29.8417    5.3299 C   0  0  0  0  0  0  0  0  0  0  0  0
  -46.3358  -30.3818    4.4625 C   0  0  0  0  0  0  0  0  0  0  0  0
  -44.6791  -32.9461   -0.9651 C   0  0  0  0  0  0  0  0  0  0  0  0
  -45.4291  -33.9984   -1.4286 C   0  0  0  0  0  0  0  0  0  0  0  0
  -46.8921  -29.5238    6.6224 C   0  0  0  0  0  0  0  0  0  0  0  0
  -44.3008  -33.1305   -3.0258 C   0  0  0  0  0  0  0  0  0  0  0  0
  -46.6691  -30.7513    3.0779 C   0  0  0  0  0  0  0  0  0  0  0  0
  -44.6195  -32.4380    0.4290 C   0  0  0  0  0  0  0  0  0  0  0  0
  -41.9100  -28.9773    1.2770 C   0  0  0  0  0  0  0  0  0  0  0  0
  -42.9330  -27.8894    1.5883 C   0  0  0  0  0  0  0  0  0  0  0  0
  -42.1650  -30.2382    2.1005 C   0  0  0  0  0  0  0  0  0  0  0  0
  -44.3654  -28.3883    1.4119 C   0  0  0  0  0  0  0  0  0  0  0  0
  -43.5966  -30.7640    1.9460 C   0  0  1  0  0  0  0  0  0  0  0  0
  -44.6283  -29.6570    2.2329 C   0  0  2  0  0  0  0  0  0  0  0  0
  -46.3719  -34.9474   -0.8260 C   0  0  0  0  0  0  0  0  0  0  0  0
  -43.8483  -33.0220   -4.4209 C   0  0  0  0  0  0  0  0  0  0  0  0
  -46.5441  -29.8962    0.6924 C   0  0  0  0  0  0  0  0  0  0  0  0
  -45.6616  -29.6760    7.1473 N   0  0  0  0  0  0  0  0  0  0  0  0
  -43.9581  -32.3940   -1.9928 N   0  0  0  0  0  0  0  0  0  0  0  0
  -47.9743  -29.0171    7.2931 N   0  0  0  0  0  0  0  0  0  0  0  0
  -43.7805  -31.3574    0.6393 N   0  0  0  0  0  0  0  0  0  0  0  0
  -45.9814  -30.1223    2.0274 N   0  0  0  0  0  0  0  0  0  0  0  0
  -47.5345  -31.6141    2.9380 O   0  0  0  0  0  0  0  0  0  0  0  0
  -45.2808  -32.9967    1.3001 O   0  0  0  0  0  0  0  0  0  0  0  0
  -45.1913  -34.1262   -2.7636 O   0  0  0  0  0  0  0  0  0  0  0  0
  -44.2587  -30.9739    4.3320 H   0  0  0  0  0  0  0  0  0  0  0  0
  -49.3204  -29.6222    4.3780 H   0  0  0  0  0  0  0  0  0  0  0  0
  -43.7733  -30.3327    6.6692 H   0  0  0  0  0  0  0  0  0  0  0  0
  -50.0179  -28.6342    6.8130 H   0  0  0  0  0  0  0  0  0  0  0  0
  -41.9443  -29.2182    0.2078 H   0  0  0  0  0  0  0  0  0  0  0  0
  -40.9015  -28.6021    1.4849 H   0  0  0  0  0  0  0  0  0  0  0  0
  -42.7934  -27.5432    2.6200 H   0  0  0  0  0  0  0  0  0  0  0  0
  -42.7614  -27.0253    0.9365 H   0  0  0  0  0  0  0  0  0  0  0  0
  -41.4399  -31.0140    1.8255 H   0  0  0  0  0  0  0  0  0  0  0  0
  -41.9847  -30.0121    3.1596 H   0  0  0  0  0  0  0  0  0  0  0  0
  -45.0592  -27.5948    1.7150 H   0  0  0  0  0  0  0  0  0  0  0  0
  -44.5486  -28.5828    0.3474 H   0  0  0  0  0  0  0  0  0  0  0  0
  -43.7412  -31.5863    2.6636 H   0  0  0  0  0  0  0  0  0  0  0  0
  -44.5674  -29.3983    3.2971 H   0  0  0  0  0  0  0  0  0  0  0  0
  -47.4163  -34.5818   -0.8537 H   0  0  0  0  0  0  0  0  0  0  0  0
  -46.1526  -35.1403    0.2419 H   0  0  0  0  0  0  0  0  0  0  0  0
  -46.3532  -35.9234   -1.3452 H   0  0  0  0  0  0  0  0  0  0  0  0
  -42.9473  -33.6316   -4.6185 H   0  0  0  0  0  0  0  0  0  0  0  0
  -43.5754  -31.9857   -4.6936 H   0  0  0  0  0  0  0  0  0  0  0  0
  -44.6317  -33.3532   -5.1253 H   0  0  0  0  0  0  0  0  0  0  0  0
  -47.0538  -28.9294    0.6486 H   0  0  0  0  0  0  0  0  0  0  0  0
  -45.7500  -29.9086   -0.0594 H   0  0  0  0  0  0  0  0  0  0  0  0
  -47.2626  -30.6832    0.4472 H   0  0  0  0  0  0  0  0  0  0  0  0
  -47.9694  -28.7025    8.2534 H   0  0  0  0  0  0  0  0  0  0  0  0
  -43.2163  -30.9869   -0.1162 H   0  0  0  0  0  0  0  0  0  0  0  0
  1  3  2  0  0  0  0
  1  6  1  0  0  0  0
  2  4  2  0  0  0  0
  2  5  1  0  0  0  0
  3 22  1  0  0  0  0
  4 24  1  0  0  0  0
  5  6  2  0  0  0  0
  5  9  1  0  0  0  0
  6 11  1  0  0  0  0
  7  8  2  0  0  0  0
  7 12  1  0  0  0  0
  7 23  1  0  0  0  0
  8 19  1  0  0  0  0
  8 29  1  0  0  0  0
  9 22  2  0  0  0  0
  9 24  1  0  0  0  0
 10 20  1  0  0  0  0
 10 23  2  0  0  0  0
 10 29  1  0  0  0  0
 11 26  1  0  0  0  0
 11 27  2  0  0  0  0
 12 25  1  0  0  0  0
 12 28  2  0  0  0  0
 13 14  1  0  0  0  0
 13 15  1  0  0  0  0
 14 16  1  0  0  0  0
 15 17  1  0  0  0  0
 16 18  1  0  0  0  0
 17 18  1  0  0  0  0
 17 25  1  0  0  0  0
 18 26  1  0  0  0  0
 21 26  1  0  0  0  0
  1 30  1  0  0  0  0
  2 31  1  0  0  0  0
  3 32  1  0  0  0  0
  4 33  1  0  0  0  0
 13 34  1  0  0  0  0
 13 35  1  0  0  0  0
 14 36  1  0  0  0  0
 14 37  1  0  0  0  0
 15 38  1  0  0  0  0
 15 39  1  0  0  0  0
 16 40  1  0  0  0  0
 16 41  1  0  0  0  0
 17 42  1  0  0  0  0
 18 43  1  0  0  0  0
 19 44  1  0  0  0  0
 19 45  1  0  0  0  0
 19 46  1  0  0  0  0
 20 47  1  0  0  0  0
 20 48  1  0  0  0  0
 20 49  1  0  0  0  0
 21 50  1  0  0  0  0
 21 51  1  0  0  0  0
 21 52  1  0  0  0  0
 24 53  1  0  0  0  0
 25 54  1  0  0  0  0
M  END
> <POSIT::Probability>
0.23

> <POSIT::Method>
HYBRID

> <ReceptorTitle>
UCSF-P4537-REFINED_LIGAND-BOUND-STATE_A__DU__LA1_A-201(A)

> <OMEGA_C>
My40wjl79MFmlZ5ApLRCwuAP7MH3qKdAUBkzwmOY8cHumchA5EFEwpcF6MHhx85AsDI9wt677sGi
jqpA51c5wtMN88GizI5AZrcywtfIA8JED3e/Zrc1wlL+B8Jc3La/eZE7wtQw7MHc6tNAEjQxwqKF
BMJ+p0HAKK06wpsC9sGX/ERAVnoywofAAcIUqts+4qMnwnrR58EEdqM/WrsrwnAd38GjTcs/7ago
wtPn8cHWbQZAIXYxwjwb48HiuLQ/9mIuwrMc9sH8Fvk/Z4MywodB7cHc5w5AyHw5wi3KC8LEcVO/
n2QvwosWBMIIeI3AKi06wmIr78HeQTE/d6U2woxo7cHWtuRAE9UvwnuTAcJkFf+/qeU/whAj6MF6
YelAPh8vwuXb+sHwqiM/Ae03wnT68MFfwAFAUiM+wsTp/MFzCDxAlB81wpP8A8JDa6Y/8MM0wkCB
CMJy3jDA6ggxwqPK98GWn4pADEhFwi367MFzGIxA3hcvwnSp8sEuatVAShJIwsQS5cHIA9pA/MYn
wsu+6cEw0lQ+LZsjwgXR5MGOEr4/eSwrwoVY3MGHrSdAsQsrwsAz2MGQv28/bsIlwq0c+MGEq+k/
WvAnwtAY8MGBNkpAnTw0wi3C3MGshts/zjEywpSp5MEo3rE+9PYuwrKw/MFxeCpAB0Uywrgv68HQ
A1NAQ6o9wsFTCsL8iFq/QZw4wrGPDMJAtXc+sWk5wpGxD8JMLqy/Bsorwr2GBsLcypPAOk0uwrzi
/8G+MZbA4IYywrRpBcJqAqTAFTc8wlhv58E0CiY//v82wt5E78HAZHO97Aw9wjN39cEQ/OQ+seA/
wqOe5cEODgRBcd0swhfl98EA+e29

> <OMEGA_E>
3YXnwA==

> <OMEGA_NBR>
     41059

$$$$
CACHE3HI_1709_7
  -OEChem-03092622543D

 50 53  0     1  0  0  0  0  0999 V2000
  -48.0655  -29.3085    4.8907 C   0  0  0  0  0  0  0  0  0  0  0  0
  -42.1012  -32.1962   -3.5246 C   0  0  0  0  0  0  0  0  0  0  0  0
  -48.7430  -28.7906    5.9657 C   0  0  0  0  0  0  0  0  0  0  0  0
  -44.3304  -29.6580    6.6617 C   0  0  0  0  0  0  0  0  0  0  0  0
  -46.6774  -29.4983    5.3119 C   0  0  0  0  0  0  0  0  0  0  0  0
  -43.0793  -32.7538   -2.5897 C   0  0  0  0  0  0  0  0  0  0  0  0
  -45.5275  -29.9771    4.6610 C   0  0  0  0  0  0  0  0  0  0  0  0
  -43.7505  -33.7517   -3.2649 C   0  0  0  0  0  0  0  0  0  0  0  0
  -46.5888  -29.0941    6.6442 C   0  0  0  0  0  0  0  0  0  0  0  0
  -43.2239  -32.3333   -1.1903 C   0  0  0  0  0  0  0  0  0  0  0  0
  -45.5976  -30.3275    3.2206 C   0  0  0  0  0  0  0  0  0  0  0  0
  -43.0294  -32.5134    1.9822 C   0  0  0  0  0  0  0  0  0  0  0  0
  -43.7965  -32.1235    3.2272 C   0  0  0  0  0  0  0  0  0  0  0  0
  -44.1555  -33.0044    1.0962 C   0  0  1  0  0  0  0  0  0  0  0  0
  -45.2745  -32.0009    1.3317 C   0  0  1  0  0  0  0  0  0  0  0  0
  -46.6403  -32.7017    1.1607 C   0  0  0  0  0  0  0  0  0  0  0  0
  -44.2923  -35.9610   -2.2245 C   0  0  0  0  0  0  0  0  0  0  0  0
  -45.8078  -34.9717   -3.9783 C   0  0  0  0  0  0  0  0  0  0  0  0
  -44.8797  -34.6544   -2.7928 C   0  0  0  0  0  0  0  0  0  0  0  0
  -42.1767  -32.8716   -4.6418 N   0  0  0  0  0  0  0  0  0  0  0  0
  -44.3690  -30.0562    5.3635 N   0  0  0  0  0  0  0  0  0  0  0  0
  -45.4175  -29.1685    7.3078 N   0  0  0  0  0  0  0  0  0  0  0  0
  -47.8481  -28.6590    7.0264 N   0  0  0  0  0  0  0  0  0  0  0  0
  -45.0367  -31.4985    2.7135 N   0  0  0  0  0  0  0  0  0  0  0  0
  -43.8528  -33.2065   -0.3159 N   0  0  0  0  0  0  0  0  0  0  0  0
  -42.6688  -31.3094   -0.8090 O   0  0  0  0  0  0  0  0  0  0  0  0
  -46.2499  -29.6115    2.4684 O   0  0  0  0  0  0  0  0  0  0  0  0
  -43.1827  -33.8475   -4.4982 O   0  0  0  0  0  0  0  0  0  0  0  0
  -48.4784  -29.5333    3.9184 H   0  0  0  0  0  0  0  0  0  0  0  0
  -41.4334  -31.3709   -3.3265 H   0  0  0  0  0  0  0  0  0  0  0  0
  -49.7908  -28.5296    5.9865 H   0  0  0  0  0  0  0  0  0  0  0  0
  -43.3974  -29.7342    7.2003 H   0  0  0  0  0  0  0  0  0  0  0  0
  -42.5123  -31.6498    1.5384 H   0  0  0  0  0  0  0  0  0  0  0  0
  -42.3003  -33.3106    2.1892 H   0  0  0  0  0  0  0  0  0  0  0  0
  -44.0300  -33.0105    3.8345 H   0  0  0  0  0  0  0  0  0  0  0  0
  -43.2205  -31.4070    3.8312 H   0  0  0  0  0  0  0  0  0  0  0  0
  -44.4944  -33.9665    1.5078 H   0  0  0  0  0  0  0  0  0  0  0  0
  -45.1929  -31.1763    0.6084 H   0  0  0  0  0  0  0  0  0  0  0  0
  -47.4492  -31.9760    1.3310 H   0  0  0  0  0  0  0  0  0  0  0  0
  -46.7195  -33.1062    0.1409 H   0  0  0  0  0  0  0  0  0  0  0  0
  -46.7249  -33.5223    1.8883 H   0  0  0  0  0  0  0  0  0  0  0  0
  -45.1098  -36.6132   -1.8833 H   0  0  0  0  0  0  0  0  0  0  0  0
  -43.7160  -36.4750   -3.0079 H   0  0  0  0  0  0  0  0  0  0  0  0
  -43.6315  -35.7275   -1.3767 H   0  0  0  0  0  0  0  0  0  0  0  0
  -46.6257  -35.6247   -3.6398 H   0  0  0  0  0  0  0  0  0  0  0  0
  -46.2267  -34.0359   -4.3766 H   0  0  0  0  0  0  0  0  0  0  0  0
  -45.2343  -35.4814   -4.7666 H   0  0  0  0  0  0  0  0  0  0  0  0
  -45.4553  -34.1432   -2.0071 H   0  0  0  0  0  0  0  0  0  0  0  0
  -48.0808  -28.3025    7.9312 H   0  0  0  0  0  0  0  0  0  0  0  0
  -44.1341  -34.0850   -0.7020 H   0  0  0  0  0  0  0  0  0  0  0  0
  1  3  2  0  0  0  0
  1  5  1  0  0  0  0
  2  6  1  0  0  0  0
  2 20  2  0  0  0  0
  3 23  1  0  0  0  0
  4 21  1  0  0  0  0
  4 22  2  0  0  0  0
  5  7  1  0  0  0  0
  5  9  2  0  0  0  0
  6  8  2  0  0  0  0
  6 10  1  0  0  0  0
  7 11  1  0  0  0  0
  7 21  2  0  0  0  0
  8 19  1  0  0  0  0
  8 28  1  0  0  0  0
  9 22  1  0  0  0  0
  9 23  1  0  0  0  0
 10 25  1  0  0  0  0
 10 26  2  0  0  0  0
 11 24  1  0  0  0  0
 11 27  2  0  0  0  0
 12 13  1  0  0  0  0
 12 14  1  0  0  0  0
 13 24  1  0  0  0  0
 14 15  1  0  0  0  0
 14 25  1  0  0  0  0
 15 16  1  0  0  0  0
 15 24  1  0  0  0  0
 17 19  1  0  0  0  0
 18 19  1  0  0  0  0
 20 28  1  0  0  0  0
  1 29  1  0  0  0  0
  2 30  1  0  0  0  0
  3 31  1  0  0  0  0
  4 32  1  0  0  0  0
 12 33  1  0  0  0  0
 12 34  1  0  0  0  0
 13 35  1  0  0  0  0
 13 36  1  0  0  0  0
 14 37  1  0  0  0  0
 15 38  1  0  0  0  0
 16 39  1  0  0  0  0
 16 40  1  0  0  0  0
 16 41  1  0  0  0  0
 17 42  1  0  0  0  0
 17 43  1  0  0  0  0
 17 44  1  0  0  0  0
 18 45  1  0  0  0  0
 18 46  1  0  0  0  0
 18 47  1  0  0  0  0
 19 48  1  0  0  0  0
 23 49  1  0  0  0  0
 25 50  1  0  0  0  0
M  END
> <POSIT::Probability>
0.42

> <POSIT::Method>
SHAPEFIT

> <ReceptorTitle>
UCSF-P4537-REFINED_LIGAND-BOUND-STATE_A__DU__LA1_A-201(A)

> <OMEGA_C>
BkNAwuZ36sF9gJxAomcowvXIAMKek2HA4vhCwi1T5sFX575AUlIxwolD7cHGLNVApLU6wpH868F0
+6lAKlEswtkDA8JyvSXALhw2wh/R78GoJpVAeAAvwsYBB8Ju9FDA7lo6wqXA6MHwnNRAPuUswllV
AcK1Wpi/7mM2wsqe8sFSHk5AEB4swrgNAsJJuv0/li8vwoJ+AMK4ik5AQJ8wwnUEBMJ9UYw/Ihk1
wu8AAMKYdqo/qI86woXOAsKCkZQ/VCsxwgzYD8L6XQ7AJjs3wg/jC8LYnH7A0IQzwiSeCsIUvTLA
6rQownh8A8J3iZTA1Hkxwitz8MFvoatAfKs1wglZ6cFH2elAemQ/wpJF5cHv1+BAniU0wtj8+8G0
qS1ARmkvwm3TBMIsu6G+5qwqwrh5+sHiHE+/6v84wmLk7MGg+R1AFLsswtNjB8JL8Y/A5OlBwkdE
7MEYx3pA2bslwpP3+sGy5FTAzClHwoc85MG7kb9A75Ytwq/f7cEYaeZAoAwqwuQy/cGs68Q/eDMp
whk+BcJ7GwxAvh4wwr8KBMIwaHVAxuEswndB+8HLMXVAQvoxwrbdB8KTAME/fMU0wvZo+cGBvhs/
Asw9wtjO/8F/Xqo/xuA6wsdsBMI7PBA+QuY6wtwWBsI6s/E/ZHA0wudzEsKxD/G/KN0uwlvmEcKk
gEDAq4Yuwu/oDsJFNrC/wIA6wqt/DsJ+8mjAKug4wrYkCMK0DIzA4e80wu7sDcLhh5jAPNI1wquS
CML1cwDAulJAwpBr4sG6zP1AVIkwwgJXCMIeuDO/

> <OMEGA_E>
BPZxPw==

> <OMEGA_NBR>
     42590

$$$$
CACHE3HI_1709_75
  -OEChem-03092622543D

 38 40  0     0  0  0  0  0  0999 V2000
  -45.9451  -32.9571    1.2366 C   0  0  0  0  0  0  0  0  0  0  0  0
  -45.9579  -33.3519   -0.1119 C   0  0  0  0  0  0  0  0  0  0  0  0
  -47.9328  -29.4788    4.7502 C   0  0  0  0  0  0  0  0  0  0  0  0
  -48.7046  -28.9318    5.7473 C   0  0  0  0  0  0  0  0  0  0  0  0
  -44.3210  -29.5970    6.7897 C   0  0  0  0  0  0  0  0  0  0  0  0
  -46.5741  -29.5834    5.2762 C   0  0  0  0  0  0  0  0  0  0  0  0
  -44.8191  -32.2969    1.7641 C   0  0  0  0  0  0  0  0  0  0  0  0
  -44.8387  -33.0880   -0.9423 C   0  0  0  0  0  0  0  0  0  0  0  0
  -43.7276  -32.3974   -0.4129 C   0  0  0  0  0  0  0  0  0  0  0  0
  -43.7120  -32.0090    0.9397 C   0  0  0  0  0  0  0  0  0  0  0  0
  -46.5861  -29.0803    6.5765 C   0  0  0  0  0  0  0  0  0  0  0  0
  -45.3850  -30.1171    4.7647 C   0  0  0  0  0  0  0  0  0  0  0  0
  -44.8111  -31.8766    3.1599 C   0  0  0  0  0  0  0  0  0  0  0  0
  -45.3210  -34.8882   -4.1484 C   0  0  0  0  0  0  0  0  0  0  0  0
  -44.5142  -35.8873   -1.9850 C   0  0  0  0  0  0  0  0  0  0  0  0
  -45.3509  -34.7535   -2.6198 C   0  0  0  0  0  0  0  0  0  0  0  0
  -45.4605  -29.0825    7.3218 N   0  0  0  0  0  0  0  0  0  0  0  0
  -44.2689  -30.1198    5.5360 N   0  0  0  0  0  0  0  0  0  0  0  0
  -47.8865  -28.6833    6.8502 N   0  0  0  0  0  0  0  0  0  0  0  0
  -45.3809  -30.6527    3.4817 N   0  0  0  0  0  0  0  0  0  0  0  0
  -44.3852  -32.6434    4.0174 O   0  0  0  0  0  0  0  0  0  0  0  0
  -44.8035  -33.4518   -2.2782 O   0  0  0  0  0  0  0  0  0  0  0  0
  -42.6660  -32.1157   -1.2051 F   0  0  0  0  0  0  0  0  0  0  0  0
  -42.1875  -31.0872    1.6506 Br  0  0  0  0  0  0  0  0  0  0  0  0
  -46.7979  -33.1597    1.8675 H   0  0  0  0  0  0  0  0  0  0  0  0
  -46.8219  -33.8576   -0.5169 H   0  0  0  0  0  0  0  0  0  0  0  0
  -48.2668  -29.7745    3.7666 H   0  0  0  0  0  0  0  0  0  0  0  0
  -49.7636  -28.7288    5.6875 H   0  0  0  0  0  0  0  0  0  0  0  0
  -43.4210  -29.5903    7.3866 H   0  0  0  0  0  0  0  0  0  0  0  0
  -45.9166  -34.0811   -4.5998 H   0  0  0  0  0  0  0  0  0  0  0  0
  -44.2818  -34.8187   -4.5022 H   0  0  0  0  0  0  0  0  0  0  0  0
  -45.7429  -35.8616   -4.4389 H   0  0  0  0  0  0  0  0  0  0  0  0
  -44.5359  -35.7904   -0.8895 H   0  0  0  0  0  0  0  0  0  0  0  0
  -44.9361  -36.8608   -2.2753 H   0  0  0  0  0  0  0  0  0  0  0  0
  -43.4749  -35.8179   -2.3386 H   0  0  0  0  0  0  0  0  0  0  0  0
  -46.3905  -34.8349   -2.2697 H   0  0  0  0  0  0  0  0  0  0  0  0
  -48.1930  -28.2784    7.7117 H   0  0  0  0  0  0  0  0  0  0  0  0
  -45.8128  -30.1263    2.7494 H   0  0  0  0  0  0  0  0  0  0  0  0
  1  2  2  0  0  0  0
  1  7  1  0  0  0  0
  2  8  1  0  0  0  0
  3  4  2  0  0  0  0
  3  6  1  0  0  0  0
  4 19  1  0  0  0  0
  5 17  2  0  0  0  0
  5 18  1  0  0  0  0
  6 11  2  0  0  0  0
  6 12  1  0  0  0  0
  7 10  2  0  0  0  0
  7 13  1  0  0  0  0
  8  9  2  0  0  0  0
  8 22  1  0  0  0  0
  9 10  1  0  0  0  0
  9 23  1  0  0  0  0
 10 24  1  0  0  0  0
 11 17  1  0  0  0  0
 11 19  1  0  0  0  0
 12 18  2  0  0  0  0
 12 20  1  0  0  0  0
 13 20  1  0  0  0  0
 13 21  2  0  0  0  0
 14 16  1  0  0  0  0
 15 16  1  0  0  0  0
 16 22  1  0  0  0  0
  1 25  1  0  0  0  0
  2 26  1  0  0  0  0
  3 27  1  0  0  0  0
  4 28  1  0  0  0  0
  5 29  1  0  0  0  0
 14 30  1  0  0  0  0
 14 31  1  0  0  0  0
 14 32  1  0  0  0  0
 15 33  1  0  0  0  0
 15 34  1  0  0  0  0
 15 35  1  0  0  0  0
 16 36  1  0  0  0  0
 19 37  1  0  0  0  0
 20 38  1  0  0  0  0
M  END
> <POSIT::Probability>
0.99

> <POSIT::Method>
SHAPEFIT

> <ReceptorTitle>
UCSF-P4537-REFINED_LIGAND-BOUND-STATE_A__DU__LA1_A-201(A)

> <OMEGA_C>
ycc3wgfUA8IUSZ4/39Q3wltoBcLDF+W9Nbs/wovU68FDAZhAd9FCwkh058Ez6rdAv0gxwp3G7ME0
RdlA40s6wtGq7MFI1qhAxEYzwg0wAcLvzOE/4FozwhdaBMKXPHG/GukuwveWAcI1ZNO+DNkuwjgJ
AMJEknA/IFg6woek6MENc9JAPIo1wsbv8ME8eJhAjT4zwlYD/8E1PEpAtkg1woCNC8KMv4TAig4y
wpWMD8K0FP6/Wmc1wpkDC8IeqyfAidc1wuCo6MEUTOpAVhMxwkT18ME9J7FAwos/wnx35cEVNdtA
/oU1wr449cFE1F5AfooxwtqSAsJPjoBAzTYzwpzOBcKZzRHA+akqwm52AMIdQJq/C8Aownyy+MFG
RtM/EDE7wo6jBMKlCu8/rEk7wituB8LmVQS/QRFBwhUy7sHJD3FA9A1HwqHU5cEdALZAGK8twvm4
7MHYXuxAo6o3wgZTCMLPMZPAiyAxwlpGC8LpEZDAxfg2wktyD8KFC47AvyQywmcpD8LftWO/hb4z
wnlxE8LrnhHAS+YtwodFD8K0qxXA6Y85wuZWC8JmQhHAmMVAwiw64sEVxvZAVkA3wr0C8cF69S9A

> <OMEGA_E>
AAAAAA==

> <OMEGA_NBR>
     43858

$$$$
CACHE3HI_1716_25
  -OEChem-03092622543D

 37 39  0     1  0  0  0  0  0999 V2000
  -46.6505  -31.2933   -0.0448 C   0  0  0  0  0  0  0  0  0  0  0  0
  -47.3020  -32.6779    1.8696 C   0  0  0  0  0  0  0  0  0  0  0  0
  -47.9915  -31.2425   -0.4568 C   0  0  0  0  0  0  0  0  0  0  0  0
  -48.6432  -32.5984    1.4728 C   0  0  0  0  0  0  0  0  0  0  0  0
  -47.9819  -29.4719    4.8213 C   0  0  0  0  0  0  0  0  0  0  0  0
  -48.7247  -28.8539    5.8026 C   0  0  0  0  0  0  0  0  0  0  0  0
  -44.3468  -29.5739    6.8142 C   0  0  0  0  0  0  0  0  0  0  0  0
  -46.6187  -29.6193    5.3367 C   0  0  0  0  0  0  0  0  0  0  0  0
  -46.3069  -32.0074    1.1216 C   0  0  0  0  0  0  0  0  0  0  0  0
  -48.9873  -31.8812    0.3105 C   0  0  0  0  0  0  0  0  0  0  0  0
  -46.6049  -29.0435    6.6130 C   0  0  0  0  0  0  0  0  0  0  0  0
  -45.4374  -30.2091    4.8266 C   0  0  0  0  0  0  0  0  0  0  0  0
  -44.7279  -31.8460    3.0200 C   0  0  0  0  0  0  0  0  0  0  0  0
  -44.4568  -33.6524    1.0199 C   0  0  0  0  0  0  0  0  0  0  0  0
  -44.8622  -32.1936    1.4814 C   0  0  1  0  0  0  0  0  0  0  0  0
  -44.8682  -34.0287   -0.4757 C   0  0  0  0  0  0  0  0  0  0  0  0
  -45.4690  -29.0150    7.3363 N   0  0  0  0  0  0  0  0  0  0  0  0
  -44.3177  -30.1819    5.5938 N   0  0  0  0  0  0  0  0  0  0  0  0
  -47.8882  -28.5891    6.8853 N   0  0  0  0  0  0  0  0  0  0  0  0
  -45.4136  -30.7070    3.5066 N   0  0  0  0  0  0  0  0  0  0  0  0
  -44.1801  -32.6263    3.7915 O   0  0  0  0  0  0  0  0  0  0  0  0
  -50.2804  -31.8029   -0.0684 F   0  0  0  0  0  0  0  0  0  0  0  0
  -44.3125  -35.2148   -0.8372 F   0  0  0  0  0  0  0  0  0  0  0  0
  -46.2142  -34.1929   -0.6289 F   0  0  0  0  0  0  0  0  0  0  0  0
  -44.4390  -33.0825   -1.3552 F   0  0  0  0  0  0  0  0  0  0  0  0
  -45.8866  -30.7885   -0.6176 H   0  0  0  0  0  0  0  0  0  0  0  0
  -47.0289  -33.2495    2.7442 H   0  0  0  0  0  0  0  0  0  0  0  0
  -48.2601  -30.7151   -1.3602 H   0  0  0  0  0  0  0  0  0  0  0  0
  -49.4106  -33.0855    2.0562 H   0  0  0  0  0  0  0  0  0  0  0  0
  -48.3382  -29.7887    3.8522 H   0  0  0  0  0  0  0  0  0  0  0  0
  -49.7763  -28.6153    5.7433 H   0  0  0  0  0  0  0  0  0  0  0  0
  -43.4353  -29.5351    7.3921 H   0  0  0  0  0  0  0  0  0  0  0  0
  -43.3642  -33.7458    1.1065 H   0  0  0  0  0  0  0  0  0  0  0  0
  -44.9410  -34.3710    1.6976 H   0  0  0  0  0  0  0  0  0  0  0  0
  -44.2536  -31.4741    0.9140 H   0  0  0  0  0  0  0  0  0  0  0  0
  -48.1704  -28.1386    7.7324 H   0  0  0  0  0  0  0  0  0  0  0  0
  -45.9455  -30.1932    2.8334 H   0  0  0  0  0  0  0  0  0  0  0  0
  1  3  1  0  0  0  0
  1  9  2  0  0  0  0
  2  4  2  0  0  0  0
  2  9  1  0  0  0  0
  3 10  2  0  0  0  0
  4 10  1  0  0  0  0
  5  6  2  0  0  0  0
  5  8  1  0  0  0  0
  6 19  1  0  0  0  0
  7 17  2  0  0  0  0
  7 18  1  0  0  0  0
  8 11  2  0  0  0  0
  8 12  1  0  0  0  0
  9 15  1  0  0  0  0
 10 22  1  0  0  0  0
 11 17  1  0  0  0  0
 11 19  1  0  0  0  0
 12 18  2  0  0  0  0
 12 20  1  0  0  0  0
 13 15  1  0  0  0  0
 13 20  1  0  0  0  0
 13 21  2  0  0  0  0
 14 15  1  0  0  0  0
 14 16  1  0  0  0  0
 16 23  1  0  0  0  0
 16 24  1  0  0  0  0
 16 25  1  0  0  0  0
  1 26  1  0  0  0  0
  2 27  1  0  0  0  0
  3 28  1  0  0  0  0
  4 29  1  0  0  0  0
  5 30  1  0  0  0  0
  6 31  1  0  0  0  0
  7 32  1  0  0  0  0
 14 33  1  0  0  0  0
 14 34  1  0  0  0  0
 15 35  1  0  0  0  0
 19 36  1  0  0  0  0
 20 37  1  0  0  0  0
M  END
> <POSIT::Probability>
0.72

> <POSIT::Method>
SHAPEFIT

> <ReceptorTitle>
UCSF-P4537-REFINED_LIGAND-BOUND-STATE_A__DU__LA1_A-201(A)

> <OMEGA_C>
Fpo6wrRY+sGQVze9NTU9wh+2AsJtTe8/RPc/wrvw+cFF4Om+npJCws5kAsIBhrw/hO0/wmTG68Hr
R5pAGOZCwuDU5sFCr7lAIWMxwleX7MHPDdpAlHk6wln07MGNxqpAOTo5wo8HAMJnkI8/9vJDwq8M
/8FR/54+YGs6whpZ6MHVndNA4L81wlWs8cGac5pAWukywozE/sHjRkFAvdMxwgycBsKjjYI/63Iz
wjrGAMLFnb0/EHkzwm0dCMJRjfO+TeA1wqQe6MFLw+pAV0UxwpF08cEoALNAiY0/wmK25MGgVNxA
kKc1wuWn9cG+a2BAZbgwwl2BAsKnqHJAIh9JwnFs/sGEBoy9CUAxwunbDMKqUFa/Tds4worFCMLM
AiG/g8ExwoFUBMIheK2/54s3wu5O9sGZGh6/ix08wor/BMKaoC9ATgpBwo249cGnGa6/c6RFwoZX
BMJWmANASFpBwk1P7sFwinZA9hpHwhrs5MEUybdAur0twttH7MFNjOxA6HQtwqf7BsLEoI0/ksMz
wuB7CcIqStk/uQMxwuLK+8Hu+2k/cq5AwvAb4cHRb/dAKMg3wqiL8cFEVjVA

> <OMEGA_E>
VLNUPw==

> <OMEGA_NBR>
     45120

$$$$
CACHE3HI_1716_33
  -OEChem-03092622543D

 35 37  0     1  0  0  0  0  0999 V2000
  -47.7774  -29.3361    4.6950 C   0  0  0  0  0  0  0  0  0  0  0  0
  -48.6096  -28.8043    5.6536 C   0  0  0  0  0  0  0  0  0  0  0  0
  -44.3498  -29.6452    7.0114 C   0  0  0  0  0  0  0  0  0  0  0  0
  -46.4660  -29.5151    5.3159 C   0  0  0  0  0  0  0  0  0  0  0  0
  -46.5753  -29.0735    6.6399 C   0  0  0  0  0  0  0  0  0  0  0  0
  -45.2403  -30.0485    4.8689 C   0  0  0  0  0  0  0  0  0  0  0  0
  -46.8705  -33.2570    0.0583 C   0  0  0  0  0  0  0  0  0  0  0  0
  -46.3334  -33.6554   -1.1461 C   0  0  0  0  0  0  0  0  0  0  0  0
  -46.0106  -32.6150    1.0744 C   0  0  0  0  0  0  0  0  0  0  0  0
  -44.6714  -32.3790    0.8018 C   0  0  0  0  0  0  0  0  0  0  0  0
  -44.9124  -33.3904   -1.4172 C   0  0  0  0  0  0  0  0  0  0  0  0
  -42.9613  -30.6350    1.4295 C   0  0  0  0  0  0  0  0  0  0  0  0
  -44.2420  -31.7714    3.3266 C   0  0  0  0  0  0  0  0  0  0  0  0
  -43.6791  -31.9226    1.8774 C   0  0  1  0  0  0  0  0  0  0  0  0
  -45.5192  -29.1383    7.4750 N   0  0  0  0  0  0  0  0  0  0  0  0
  -44.1982  -30.1003    5.7389 N   0  0  0  0  0  0  0  0  0  0  0  0
  -47.8797  -28.6429    6.8303 N   0  0  0  0  0  0  0  0  0  0  0  0
  -44.1517  -32.7241   -0.4606 N   0  0  0  0  0  0  0  0  0  0  0  0
  -45.1128  -30.5746    3.5721 N   0  0  0  0  0  0  0  0  0  0  0  0
  -44.4007  -33.7757   -2.4614 O   0  0  0  0  0  0  0  0  0  0  0  0
  -48.0430  -29.5760    3.6760 H   0  0  0  0  0  0  0  0  0  0  0  0
  -49.6514  -28.5543    5.5173 H   0  0  0  0  0  0  0  0  0  0  0  0
  -43.5035  -29.6892    7.6809 H   0  0  0  0  0  0  0  0  0  0  0  0
  -47.9199  -33.4138    0.2599 H   0  0  0  0  0  0  0  0  0  0  0  0
  -46.9472  -34.1552   -1.8809 H   0  0  0  0  0  0  0  0  0  0  0  0
  -46.4252  -32.3294    2.0299 H   0  0  0  0  0  0  0  0  0  0  0  0
  -42.2531  -30.3191    2.2097 H   0  0  0  0  0  0  0  0  0  0  0  0
  -42.4149  -30.8264    0.4942 H   0  0  0  0  0  0  0  0  0  0  0  0
  -43.7035  -29.8401    1.2646 H   0  0  0  0  0  0  0  0  0  0  0  0
  -44.8339  -32.6704    3.5533 H   0  0  0  0  0  0  0  0  0  0  0  0
  -43.3865  -31.7122    4.0155 H   0  0  0  0  0  0  0  0  0  0  0  0
  -42.9048  -32.7019    1.9333 H   0  0  0  0  0  0  0  0  0  0  0  0
  -48.2430  -28.2718    7.6849 H   0  0  0  0  0  0  0  0  0  0  0  0
  -43.2056  -32.4827   -0.6768 H   0  0  0  0  0  0  0  0  0  0  0  0
  -46.0334  -30.8213    3.2695 H   0  0  0  0  0  0  0  0  0  0  0  0
  1  2  2  0  0  0  0
  1  4  1  0  0  0  0
  2 17  1  0  0  0  0
  3 15  2  0  0  0  0
  3 16  1  0  0  0  0
  4  5  2  0  0  0  0
  4  6  1  0  0  0  0
  5 15  1  0  0  0  0
  5 17  1  0  0  0  0
  6 16  2  0  0  0  0
  6 19  1  0  0  0  0
  7  8  2  0  0  0  0
  7  9  1  0  0  0  0
  8 11  1  0  0  0  0
  9 10  2  0  0  0  0
 10 14  1  0  0  0  0
 10 18  1  0  0  0  0
 11 18  1  0  0  0  0
 11 20  2  0  0  0  0
 12 14  1  0  0  0  0
 13 14  1  0  0  0  0
 13 19  1  0  0  0  0
  1 21  1  0  0  0  0
  2 22  1  0  0  0  0
  3 23  1  0  0  0  0
  7 24  1  0  0  0  0
  8 25  1  0  0  0  0
  9 26  1  0  0  0  0
 12 27  1  0  0  0  0
 12 28  1  0  0  0  0
 12 29  1  0  0  0  0
 13 30  1  0  0  0  0
 13 31  1  0  0  0  0
 14 32  1  0  0  0  0
 17 33  1  0  0  0  0
 18 34  1  0  0  0  0
 19 35  1  0  0  0  0
M  END
> <POSIT::Probability>
0.79

> <POSIT::Method>
SHAPEFIT

> <ReceptorTitle>
UCSF-P4537-REFINED_LIGAND-BOUND-STATE_A__DU__LA1_A-201(A)

> <OMEGA_C>
Axw/wlWw6sE4PZZAMnBCwh5v5sEi6rRAMmYxwkgp7cFCXeBAMt05wtQe7MHyG6pAH006wnCW6MEq
etRAFPY0wkJj8MGlzZtAcHs7wioHBcJAsG49b1U5whmfBsKWtJK/zgo4wsB1AsJWhok/j68ywiOE
AcLsQE0/SqYzwsGPBcJKaLW/ZdgrwoEU9cEy+7Y/0PcwwsYr/sHc5lRAX7cuwnZh/8G7TvA/oxM2
wikb6cHYMu9A6sowwnfN8MG2pLdA3YQ/wrok5cHukdpATJswwm/lAsKw0+u+dnM0wrOY9MEQnWRA
RJoxwk0aB8Ijhx3AEyxAwrGb7MELRGtA/ppGwjFv5MFSjbBAkwMuwnuD7cG/yfVA+60/wrynBcJl
FIU+68k7wu6eCMInwfC/b7M5wlRRAcJY6QFANAMpwnON8sGnaw1A4KgpwmKc9sE8Cv0+atAuwn64
7sHQ3KE/4VUzwoWuAsIzaWNAyostwp6y/cE4f4BAgp4rwsbOAsKadfc/yvhAwrIs4sHm6vVAkdIs
wj7uAcJsRS2/NCI4wgeS9sE8QFFA

> <OMEGA_E>
cNslPw==

> <OMEGA_NBR>
     46345

$$$$
CACHE3HI_1716_38
  -OEChem-03092622543D

 34 36  0     1  0  0  0  0  0999 V2000
  -43.8731  -35.1536   -0.4437 C   0  0  0  0  0  0  0  0  0  0  0  0
  -43.7336  -35.4266   -1.8198 C   0  0  0  0  0  0  0  0  0  0  0  0
  -47.8860  -29.4559    4.6938 C   0  0  0  0  0  0  0  0  0  0  0  0
  -45.1539  -33.1863   -1.0501 C   0  0  0  0  0  0  0  0  0  0  0  0
  -48.6998  -28.8841    5.6437 C   0  0  0  0  0  0  0  0  0  0  0  0
  -44.3786  -29.5632    6.9018 C   0  0  0  0  0  0  0  0  0  0  0  0
  -46.5570  -29.5848    5.2891 C   0  0  0  0  0  0  0  0  0  0  0  0
  -44.5705  -33.9962   -0.0374 C   0  0  0  0  0  0  0  0  0  0  0  0
  -46.6267  -29.0444    6.5759 C   0  0  0  0  0  0  0  0  0  0  0  0
  -45.3524  -30.1606    4.8444 C   0  0  0  0  0  0  0  0  0  0  0  0
  -44.3036  -34.5462   -2.7643 C   0  0  0  0  0  0  0  0  0  0  0  0
  -44.6765  -31.8971    3.1646 C   0  0  0  0  0  0  0  0  0  0  0  0
  -43.2910  -31.5887    1.1194 C   0  0  0  0  0  0  0  0  0  0  0  0
  -44.6036  -32.2204    1.6440 C   0  0  1  0  0  0  0  0  0  0  0  0
  -45.0052  -33.4594   -2.3689 N   0  0  0  0  0  0  0  0  0  0  0  0
  -45.5372  -29.0289    7.3698 N   0  0  0  0  0  0  0  0  0  0  0  0
  -44.2740  -30.1411    5.6707 N   0  0  0  0  0  0  0  0  0  0  0  0
  -47.9349  -28.6290    6.7815 N   0  0  0  0  0  0  0  0  0  0  0  0
  -45.2928  -30.6966    3.5470 N   0  0  0  0  0  0  0  0  0  0  0  0
  -44.1618  -32.6446    3.9903 O   0  0  0  0  0  0  0  0  0  0  0  0
  -44.6328  -33.6616    1.3257 O   0  0  0  0  0  0  0  0  0  0  0  0
  -44.1512  -34.7870   -4.0881 F   0  0  0  0  0  0  0  0  0  0  0  0
  -43.4508  -35.8229    0.2913 H   0  0  0  0  0  0  0  0  0  0  0  0
  -43.1947  -36.3028   -2.1487 H   0  0  0  0  0  0  0  0  0  0  0  0
  -48.1743  -29.7534    3.6964 H   0  0  0  0  0  0  0  0  0  0  0  0
  -45.7352  -32.3241   -0.7583 H   0  0  0  0  0  0  0  0  0  0  0  0
  -49.7519  -28.6693    5.5282 H   0  0  0  0  0  0  0  0  0  0  0  0
  -43.5024  -29.5288    7.5322 H   0  0  0  0  0  0  0  0  0  0  0  0
  -43.1914  -31.7900    0.0425 H   0  0  0  0  0  0  0  0  0  0  0  0
  -43.3139  -30.5021    1.2886 H   0  0  0  0  0  0  0  0  0  0  0  0
  -42.4347  -32.0251    1.6545 H   0  0  0  0  0  0  0  0  0  0  0  0
  -45.4490  -31.7227    1.1464 H   0  0  0  0  0  0  0  0  0  0  0  0
  -48.2783  -28.2088    7.6215 H   0  0  0  0  0  0  0  0  0  0  0  0
  -45.7349  -30.1682    2.8223 H   0  0  0  0  0  0  0  0  0  0  0  0
  1  2  2  0  0  0  0
  1  8  1  0  0  0  0
  2 11  1  0  0  0  0
  3  5  2  0  0  0  0
  3  7  1  0  0  0  0
  4  8  2  0  0  0  0
  4 15  1  0  0  0  0
  5 18  1  0  0  0  0
  6 16  2  0  0  0  0
  6 17  1  0  0  0  0
  7  9  2  0  0  0  0
  7 10  1  0  0  0  0
  8 21  1  0  0  0  0
  9 16  1  0  0  0  0
  9 18  1  0  0  0  0
 10 17  2  0  0  0  0
 10 19  1  0  0  0  0
 11 15  2  0  0  0  0
 11 22  1  0  0  0  0
 12 14  1  0  0  0  0
 12 19  1  0  0  0  0
 12 20  2  0  0  0  0
 13 14  1  0  0  0  0
 14 21  1  0  0  0  0
  1 23  1  0  0  0  0
  2 24  1  0  0  0  0
  3 25  1  0  0  0  0
  4 26  1  0  0  0  0
  5 27  1  0  0  0  0
  6 28  1  0  0  0  0
 13 29  1  0  0  0  0
 13 30  1  0  0  0  0
 13 31  1  0  0  0  0
 14 32  1  0  0  0  0
 18 33  1  0  0  0  0
 19 34  1  0  0  0  0
M  END
> <POSIT::Probability>
0.85

> <POSIT::Method>
SHAPEFIT

> <ReceptorTitle>
UCSF-P4537-REFINED_LIGAND-BOUND-STATE_A__DU__LA1_A-201(A)

> <OMEGA_C>
BX4vwlCdDMKwLuO+PO8uwtS0DcJU7ui/Qos/wqCl68F+M5ZAl500wry+BMK8aoa/l8xCwqMS58GS
mbRAroMxwomB7ME529xAZjo6wq+t7MGnQKlALUgywhr8B8IAOhm9tIE6wtla6MGjbdJA32g1wvdI
8cENBZtA6TYxwkYvCsLO6jDAsbQywjst/8FTiEpA8yktwrG1/MEUR48/GWoywqvhAMIIb9I/VAU0
wnjWBcJsnBfAEyY2wjY76MEC1etAlBgxwvEg8cGtdrVAWb0/wiAI5cFsAtlAzys1wpuS9cG1AmNA
taUwwgeUAsJDYH9A9ocywnylBsK4sKk/15owwu8lC8K60YLApM0twqdKD8I3H5U+YccswhI2EcLS
hAnAdrJAwvgG7sHqkWxA4fA2wuxLAcL+HEK/8QFHwr9a5cEr57BAawIuwg077MGoB/FAAcQswuBR
/sEsJy49ckEtwjME9MFo76Q/J70pwrsZAMLVxtM/w8s1whTI/cE1vJI/9RxBwqGr4cGC4/NAkPA2
wm1Y8cEIoDRA

> <OMEGA_E>
5IchPw==

> <OMEGA_NBR>
     47548

$$$$
CACHE3HI_1716_59
  -OEChem-03092622543D

 30 32  0     0  0  0  0  0  0999 V2000
  -48.0408  -29.4562    4.9650 C   0  0  0  0  0  0  0  0  0  0  0  0
  -48.7238  -28.8680    6.0032 C   0  0  0  0  0  0  0  0  0  0  0  0
  -45.5060  -34.5402   -2.2607 C   0  0  0  0  0  0  0  0  0  0  0  0
  -44.2808  -29.5603    6.7111 C   0  0  0  0  0  0  0  0  0  0  0  0
  -44.4654  -32.8923   -1.2240 C   0  0  0  0  0  0  0  0  0  0  0  0
  -46.6504  -29.5895    5.3913 C   0  0  0  0  0  0  0  0  0  0  0  0
  -46.5533  -29.0453    6.6740 C   0  0  0  0  0  0  0  0  0  0  0  0
  -45.5113  -30.1533    4.7956 C   0  0  0  0  0  0  0  0  0  0  0  0
  -44.9037  -31.7755    3.0256 C   0  0  0  0  0  0  0  0  0  0  0  0
  -44.7693  -32.0166    1.5127 C   0  0  0  0  0  0  0  0  0  0  0  0
  -45.7974  -33.0346    0.9497 C   0  0  0  0  0  0  0  0  0  0  0  0
  -44.4734  -33.5865   -2.3352 N   0  0  0  0  0  0  0  0  0  0  0  0
  -45.3699  -29.0250    7.3212 N   0  0  0  0  0  0  0  0  0  0  0  0
  -44.3359  -30.1353    5.4779 N   0  0  0  0  0  0  0  0  0  0  0  0
  -46.1243  -34.4342   -1.1028 N   0  0  0  0  0  0  0  0  0  0  0  0
  -47.8213  -28.6148    7.0362 N   0  0  0  0  0  0  0  0  0  0  0  0
  -45.4716  -33.4421   -0.4606 N   0  0  0  0  0  0  0  0  0  0  0  0
  -45.5923  -30.6550    3.4891 N   0  0  0  0  0  0  0  0  0  0  0  0
  -44.4324  -32.5960    3.8066 O   0  0  0  0  0  0  0  0  0  0  0  0
  -48.4540  -29.7615    4.0150 H   0  0  0  0  0  0  0  0  0  0  0  0
  -49.7795  -28.6406    6.0166 H   0  0  0  0  0  0  0  0  0  0  0  0
  -45.7536  -35.2508   -3.0354 H   0  0  0  0  0  0  0  0  0  0  0  0
  -43.3316  -29.5287    7.2255 H   0  0  0  0  0  0  0  0  0  0  0  0
  -43.8141  -32.0709   -0.9642 H   0  0  0  0  0  0  0  0  0  0  0  0
  -44.9110  -31.0570    0.9941 H   0  0  0  0  0  0  0  0  0  0  0  0
  -43.7572  -32.3970    1.3101 H   0  0  0  0  0  0  0  0  0  0  0  0
  -45.7960  -33.9307    1.5877 H   0  0  0  0  0  0  0  0  0  0  0  0
  -46.7968  -32.5754    0.9648 H   0  0  0  0  0  0  0  0  0  0  0  0
  -48.0540  -28.1863    7.9092 H   0  0  0  0  0  0  0  0  0  0  0  0
  -46.1862  -30.1750    2.8434 H   0  0  0  0  0  0  0  0  0  0  0  0
  1  2  2  0  0  0  0
  1  6  1  0  0  0  0
  2 16  1  0  0  0  0
  3 12  1  0  0  0  0
  3 15  2  0  0  0  0
  4 13  1  0  0  0  0
  4 14  2  0  0  0  0
  5 12  2  0  0  0  0
  5 17  1  0  0  0  0
  6  7  1  0  0  0  0
  6  8  2  0  0  0  0
  7 13  2  0  0  0  0
  7 16  1  0  0  0  0
  8 14  1  0  0  0  0
  8 18  1  0  0  0  0
  9 10  1  0  0  0  0
  9 18  1  0  0  0  0
  9 19  2  0  0  0  0
 10 11  1  0  0  0  0
 11 17  1  0  0  0  0
 15 17  1  0  0  0  0
  1 20  1  0  0  0  0
  2 21  1  0  0  0  0
  3 22  1  0  0  0  0
  4 23  1  0  0  0  0
  5 24  1  0  0  0  0
 10 25  1  0  0  0  0
 10 26  1  0  0  0  0
 11 27  1  0  0  0  0
 11 28  1  0  0  0  0
 16 29  1  0  0  0  0
 18 30  1  0  0  0  0
M  END
> <POSIT::Probability>
0.72

> <POSIT::Method>
SHAPEFIT

> <ReceptorTitle>
UCSF-P4537-REFINED_LIGAND-BOUND-STATE_A__DU__LA1_A-201(A)

> <OMEGA_C>
zSlAwjWm68F+4Z5ALOVCwpXx5sEcGsBAKAY2wiQpCsLMrxDAgB8xwpV77MGewdZAjtwxwriRA8Jr
rJy/+Zk6wj+37MGEhaxAizY6ws1c6MGskdVAjgs2wg868cFedZlAWp0zwk40/sGRo0FAxxMzwgkR
AMIsoME/jzA3wnYjBMKYHHM/xeQxwotYBsJncxXAx3o1wigz6MFyR+pA+VcxwgQV8cHqSq9ARn84
wqu8CcL1KI2/+Ug/wjTr5MHkKOFA6eI1wrrEBcIu0Ou+gV42wlg99cFbTV9AuroxwlJiAsJ7n3NA
2tBBwpQX7sEze4BANh5Hwt0f5cH/h8BArgM3wsYADcKsRELAllMtwt067MEaN+dAokEvwptIAML8
0na/36Qzwqh0+MFVfX4/aQcvwn+WAcJjsac/ES83wgu5B8JZOMs/+S87wi5NAsL6+3Y/UDdAwnJ9
4cGIGP1Asb44wmpm8cGh+jVA

> <OMEGA_E>
NKYaPw==

> <OMEGA_NBR>
     48665

$$$$
CACHE3HI_1717_19
  -OEChem-03092622543D

 45 48  0     1  0  0  0  0  0999 V2000
  -47.9378  -29.4773    4.7794 C   0  0  0  0  0  0  0  0  0  0  0  0
  -45.3545  -33.2597   -3.8238 C   0  0  0  0  0  0  0  0  0  0  0  0
  -48.7045  -28.9489    5.7901 C   0  0  0  0  0  0  0  0  0  0  0  0
  -45.5965  -33.8668   -5.0321 C   0  0  0  0  0  0  0  0  0  0  0  0
  -44.2955  -29.5534    6.7671 C   0  0  0  0  0  0  0  0  0  0  0  0
  -44.0250  -36.5886   -1.7389 C   0  0  0  0  0  0  0  0  0  0  0  0
  -46.5720  -29.5682    5.2895 C   0  0  0  0  0  0  0  0  0  0  0  0
  -44.8552  -34.2949   -2.9248 C   0  0  0  0  0  0  0  0  0  0  0  0
  -46.5747  -29.0815    6.5950 C   0  0  0  0  0  0  0  0  0  0  0  0
  -44.8308  -35.4930   -3.6337 C   0  0  0  0  0  0  0  0  0  0  0  0
  -45.3804  -30.0708    4.7569 C   0  0  0  0  0  0  0  0  0  0  0  0
  -44.4378  -34.2939   -1.5878 C   0  0  0  0  0  0  0  0  0  0  0  0
  -43.4507  -32.0986   -1.0743 C   0  0  0  0  0  0  0  0  0  0  0  0
  -44.8468  -32.5234    2.0408 C   0  0  0  0  0  0  0  0  0  0  0  0
  -45.7036  -31.8637    0.9310 C   0  0  0  0  0  0  0  0  0  0  0  0
  -44.2871  -31.4537    2.9747 C   0  0  0  0  0  0  0  0  0  0  0  0
  -45.8294  -32.7755   -0.2879 C   0  0  0  0  0  0  0  0  0  0  0  0
  -45.4386  -29.0754    7.3250 N   0  0  0  0  0  0  0  0  0  0  0  0
  -44.4153  -36.6306   -3.0393 N   0  0  0  0  0  0  0  0  0  0  0  0
  -44.2514  -30.0528    5.5053 N   0  0  0  0  0  0  0  0  0  0  0  0
  -44.0346  -35.4446   -1.0083 N   0  0  0  0  0  0  0  0  0  0  0  0
  -47.8774  -28.7056    6.8879 N   0  0  0  0  0  0  0  0  0  0  0  0
  -45.2826  -35.2206   -4.9145 N   0  0  0  0  0  0  0  0  0  0  0  0
  -45.4052  -30.6558    3.5059 N   0  0  0  0  0  0  0  0  0  0  0  0
  -44.4947  -33.1383   -0.8382 N   0  0  1  0  0  0  0  0  0  0  0  0
  -48.2792  -29.7692    3.7973 H   0  0  0  0  0  0  0  0  0  0  0  0
  -45.5049  -32.2172   -3.5852 H   0  0  0  0  0  0  0  0  0  0  0  0
  -49.7659  -28.7550    5.7430 H   0  0  0  0  0  0  0  0  0  0  0  0
  -45.9668  -33.3788   -5.9216 H   0  0  0  0  0  0  0  0  0  0  0  0
  -43.3865  -29.5353    7.3501 H   0  0  0  0  0  0  0  0  0  0  0  0
  -43.6936  -37.5019   -1.2673 H   0  0  0  0  0  0  0  0  0  0  0  0
  -43.6277  -31.2424   -0.4068 H   0  0  0  0  0  0  0  0  0  0  0  0
  -42.4571  -32.5238   -0.8695 H   0  0  0  0  0  0  0  0  0  0  0  0
  -43.4974  -31.7633   -2.1209 H   0  0  0  0  0  0  0  0  0  0  0  0
  -45.4726  -33.2197    2.6183 H   0  0  0  0  0  0  0  0  0  0  0  0
  -44.0148  -33.0751    1.5789 H   0  0  0  0  0  0  0  0  0  0  0  0
  -46.7079  -31.6567    1.3290 H   0  0  0  0  0  0  0  0  0  0  0  0
  -45.2287  -30.9198    0.6251 H   0  0  0  0  0  0  0  0  0  0  0  0
  -43.7477  -31.9331    3.8049 H   0  0  0  0  0  0  0  0  0  0  0  0
  -43.5984  -30.8008    2.4184 H   0  0  0  0  0  0  0  0  0  0  0  0
  -46.3565  -33.6949    0.0065 H   0  0  0  0  0  0  0  0  0  0  0  0
  -46.4071  -32.2546   -1.0657 H   0  0  0  0  0  0  0  0  0  0  0  0
  -48.1798  -28.3172    7.7583 H   0  0  0  0  0  0  0  0  0  0  0  0
  -45.3707  -35.8954   -5.6472 H   0  0  0  0  0  0  0  0  0  0  0  0
  -46.2027  -31.2590    3.4990 H   0  0  0  0  0  0  0  0  0  0  0  0
  1  3  2  0  0  0  0
  1  7  1  0  0  0  0
  2  4  2  0  0  0  0
  2  8  1  0  0  0  0
  3 22  1  0  0  0  0
  4 23  1  0  0  0  0
  5 18  2  0  0  0  0
  5 20  1  0  0  0  0
  6 19  2  0  0  0  0
  6 21  1  0  0  0  0
  7  9  2  0  0  0  0
  7 11  1  0  0  0  0
  8 10  2  0  0  0  0
  8 12  1  0  0  0  0
  9 18  1  0  0  0  0
  9 22  1  0  0  0  0
 10 19  1  0  0  0  0
 10 23  1  0  0  0  0
 11 20  2  0  0  0  0
 11 24  1  0  0  0  0
 12 21  2  0  0  0  0
 12 25  1  0  0  0  0
 13 25  1  0  0  0  0
 14 15  1  0  0  0  0
 14 16  1  0  0  0  0
 15 17  1  0  0  0  0
 16 24  1  0  0  0  0
 17 25  1  0  0  0  0
  1 26  1  0  0  0  0
  2 27  1  0  0  0  0
  3 28  1  0  0  0  0
  4 29  1  0  0  0  0
  5 30  1  0  0  0  0
  6 31  1  0  0  0  0
 13 32  1  0  0  0  0
 13 33  1  0  0  0  0
 13 34  1  0  0  0  0
 14 35  1  0  0  0  0
 14 36  1  0  0  0  0
 15 37  1  0  0  0  0
 15 38  1  0  0  0  0
 16 39  1  0  0  0  0
 16 40  1  0  0  0  0
 17 41  1  0  0  0  0
 17 42  1  0  0  0  0
 22 43  1  0  0  0  0
 23 44  1  0  0  0  0
 24 45  1  0  0  0  0
M  END
> <POSIT::Probability>
0.43

> <POSIT::Method>
SHAPEFIT

> <ReceptorTitle>
UCSF-P4537-REFINED_LIGAND-BOUND-STATE_A__DU__LA1_A-201(A)

> <OMEGA_C>
S8A/wpXR68E08ZhACWs1wvoJBcJIuXTAX9FCwm2X58EpSLlA0WI2wpd3B8LUBqHAjS4xwlRt7MEm
jNhAjRkwwrBaEsIRk96/x0k6wpaL7MF+Q6lAs2szwvYtCcIAMDvAiUw6wtKm6MEGCtNAw1Izwtb4
DcI4jmjAg4U1wheR8MGWOJhAU8AxwuwsCcJNPcu/i80twgJlAMLtgom/J2MzwvsXAsJAnAJActA2
wsvo/sGcVW4/8SUxwi+h+8F6YT5AQlE3whEaA8IEZpO+JcE1wn+a6MGMZupATakxwryFEsKkhELA
bwExwits8MFaK7BAdCMwwjzHDcIlEYG/bYI/wiKl5cGgadxAXCE1wuHhDMKBQ53A8541wgk/9cFy
YWBAk/oxwpuNBMJOl1a/7x1BwmAn7sHlBnNABgU2wm3eAMJ+dGXAPhBHwjgK5sFuxrdA9903wu2D
BcKafb3AyIstwkFI7MH2M+tARsYuwv0BFsJTN6K/wIIuwmnw+cHaTNC+FdQpwmUYAsKal16/Xv0t
wkUb/sH+vAfA+eM1wvvgBMKqkidAJQ8wwudMBMKqGMo/7tQ6wt9A/cFRG6o/K+o0wr1b98F4BCA/
m/0uwgV3/8Fcg3NAuGQuwg1o9sG5xxpADm05wp3HBsLfm9U72qA5wr0EAcJmaIi/GrhAwoyJ4sEg
RPhAk3s1wu+UD8KJtbTAnM84wn8S+sEl719A

> <OMEGA_E>
oH1aPw==

> <OMEGA_NBR>
     50096

$$$$
CACHE3HI_1717_4
  -OEChem-03092622543D

 38 40  0     0  0  0  0  0  0999 V2000
  -52.8436  -28.6789    8.5621 C   0  0  0  0  0  0  0  0  0  0  0  0
  -45.3050  -29.3821    0.2384 C   0  0  0  0  0  0  0  0  0  0  0  0
  -44.3176  -28.3972    0.1913 C   0  0  0  0  0  0  0  0  0  0  0  0
  -52.5962  -30.2439    6.6991 C   0  0  0  0  0  0  0  0  0  0  0  0
  -50.6371  -29.1856    7.6370 C   0  0  0  0  0  0  0  0  0  0  0  0
  -45.3447  -30.2892    1.2970 C   0  0  0  0  0  0  0  0  0  0  0  0
  -43.3615  -28.3165    1.2036 C   0  0  0  0  0  0  0  0  0  0  0  0
  -51.7909  -30.9230    5.7848 C   0  0  0  0  0  0  0  0  0  0  0  0
  -49.8318  -29.8646    6.7227 C   0  0  0  0  0  0  0  0  0  0  0  0
  -52.0191  -29.3753    7.6254 C   0  0  0  0  0  0  0  0  0  0  0  0
  -44.3910  -30.2044    2.3134 C   0  0  0  0  0  0  0  0  0  0  0  0
  -43.4017  -29.2261    2.2646 C   0  0  0  0  0  0  0  0  0  0  0  0
  -50.4089  -30.7333    5.7964 C   0  0  0  0  0  0  0  0  0  0  0  0
  -44.3612  -31.1175    3.4598 C   0  0  0  0  0  0  0  0  0  0  0  0
  -42.3998  -29.1734    3.3429 C   0  0  0  0  0  0  0  0  0  0  0  0
  -45.3888  -32.1816    3.6054 C   0  0  0  0  0  0  0  0  0  0  0  0
  -48.2088  -31.3526    4.7412 C   0  0  0  0  0  0  0  0  0  0  0  0
  -47.7278  -32.2518    3.6178 C   0  0  0  0  0  0  0  0  0  0  0  0
  -53.5131  -28.1131    9.3226 N   0  0  0  0  0  0  0  0  0  0  0  0
  -43.4781  -31.0788    4.4044 N   0  0  0  0  0  0  0  0  0  0  0  0
  -42.5191  -30.1237    4.3367 N   0  0  0  0  0  0  0  0  0  0  0  0
  -49.5920  -31.4226    4.8678 N   0  0  0  0  0  0  0  0  0  0  0  0
  -41.5165  -28.3212    3.3298 O   0  0  0  0  0  0  0  0  0  0  0  0
  -45.1666  -33.2348    4.1553 O   0  0  0  0  0  0  0  0  0  0  0  0
  -47.4269  -30.6817    5.4066 O   0  0  0  0  0  0  0  0  0  0  0  0
  -46.5274  -31.7371    3.0314 O   0  0  0  0  0  0  0  0  0  0  0  0
  -46.0455  -29.4429   -0.5543 H   0  0  0  0  0  0  0  0  0  0  0  0
  -44.2923  -27.6943   -0.6363 H   0  0  0  0  0  0  0  0  0  0  0  0
  -53.6717  -30.4029    6.6777 H   0  0  0  0  0  0  0  0  0  0  0  0
  -50.1733  -28.5118    8.3536 H   0  0  0  0  0  0  0  0  0  0  0  0
  -46.1217  -31.0472    1.3033 H   0  0  0  0  0  0  0  0  0  0  0  0
  -42.5981  -27.5457    1.1479 H   0  0  0  0  0  0  0  0  0  0  0  0
  -52.2509  -31.5982    5.0676 H   0  0  0  0  0  0  0  0  0  0  0  0
  -48.7561  -29.7084    6.7404 H   0  0  0  0  0  0  0  0  0  0  0  0
  -48.4987  -32.3327    2.8450 H   0  0  0  0  0  0  0  0  0  0  0  0
  -47.5173  -33.2486    4.0183 H   0  0  0  0  0  0  0  0  0  0  0  0
  -41.8291  -30.1057    5.0810 H   0  0  0  0  0  0  0  0  0  0  0  0
  -50.0869  -32.0372    4.2254 H   0  0  0  0  0  0  0  0  0  0  0  0
  1 10  1  0  0  0  0
  1 19  3  0  0  0  0
  2  3  1  0  0  0  0
  2  6  2  0  0  0  0
  3  7  2  0  0  0  0
  4  8  2  0  0  0  0
  4 10  1  0  0  0  0
  5  9  1  0  0  0  0
  5 10  2  0  0  0  0
  6 11  1  0  0  0  0
  7 12  1  0  0  0  0
  8 13  1  0  0  0  0
  9 13  2  0  0  0  0
 11 12  2  0  0  0  0
 11 14  1  0  0  0  0
 12 15  1  0  0  0  0
 13 22  1  0  0  0  0
 14 16  1  0  0  0  0
 14 20  2  0  0  0  0
 15 21  1  0  0  0  0
 15 23  2  0  0  0  0
 16 24  2  0  0  0  0
 16 26  1  0  0  0  0
 17 18  1  0  0  0  0
 17 22  1  0  0  0  0
 17 25  2  0  0  0  0
 18 26  1  0  0  0  0
 20 21  1  0  0  0  0
  2 27  1  0  0  0  0
  3 28  1  0  0  0  0
  4 29  1  0  0  0  0
  5 30  1  0  0  0  0
  6 31  1  0  0  0  0
  7 32  1  0  0  0  0
  8 33  1  0  0  0  0
  9 34  1  0  0  0  0
 18 35  1  0  0  0  0
 18 36  1  0  0  0  0
 21 37  1  0  0  0  0
 22 38  1  0  0  0  0
M  END
> <POSIT::Probability>
0.02

> <POSIT::Method>
FRED

> <ReceptorTitle>
UCSF-P4537-REFINED_LIGAND-BOUND-STATE_A__DU__LA1_A-201(A)

> <OMEGA_C>
0V9Twk5u5cEt/ghBTjg1wpIO68GAGXQ+REUxwn4t48FA5EM+emJSwo3z8cFlX9ZAYIxKwi986cFJ
YvRA8GA1wlxQ8sFgBaY/IHItwieI4sFgD5o/1ilPwjVi98HJHLlAvFNHwsHq7sESINdAhxNQwqYA
68EpA/RAapAxwpSi8cGADhRAWJstwhrP6cH47xBArqJJwr/d9cHse7lA5XExwo/w+ME4bV1AX5kp
wjFj6cHa8VVAIo41wuy5AMIIv2ZA19VAwiHS+sGLt5dAUOk+wtQBAcKOimdAdw1WwrPn4MGDKRVB
mektwk6h+MF68IxAlBMqwmn98MFXxopAMF5GwmVh+8G3xJtA6hAmwuaR4sEAHFVApqo0wnvwBMIk
+IRALLU9whR09cE8A61AAhw6wq7l/cHGAUJAjS44wgOL68EQ5A2/VSsxwtiN3cGw5yK/2q9WwiU5
88H2r9VAd7FIwisY5ME6qAVBmnw4wpdg+MHo0qY/bmQqwodd3MH47ZI/9QBRwgjJ/MFvKaJAPAZD
wuCq7cECsddAr/5BwrFUAcIcFDZAvhE+wob+BMKSlYBADFEnwnrY8MGXl6JA8VhIwiAmAMJCNodA

> <OMEGA_E>
LlQMwQ==

> <OMEGA_NBR>
     51346

$$$$
CACHE3HI_1717_65
  -OEChem-03092622543D

 38 40  0     1  0  0  0  0  0999 V2000
  -48.5266  -28.9016    4.7900 C   0  0  0  0  0  0  0  0  0  0  0  0
  -49.0900  -28.7700    6.0414 C   0  0  0  0  0  0  0  0  0  0  0  0
  -44.7384  -29.5435    6.0474 C   0  0  0  0  0  0  0  0  0  0  0  0
  -47.1405  -29.1433    4.9694 C   0  0  0  0  0  0  0  0  0  0  0  0
  -46.9044  -29.1511    6.3386 C   0  0  0  0  0  0  0  0  0  0  0  0
  -46.0380  -29.3605    4.1440 C   0  0  0  0  0  0  0  0  0  0  0  0
  -46.4229  -31.6929    1.9437 C   0  0  0  0  0  0  0  0  0  0  0  0
  -43.7072  -29.8917    0.6818 C   0  0  0  0  0  0  0  0  0  0  0  0
  -43.3053  -28.4616    0.4511 C   0  0  0  0  0  0  0  0  0  0  0  0
  -44.0333  -28.8437    1.7099 C   0  0  0  0  0  0  0  0  0  0  0  0
  -46.9584  -34.2685   -0.6011 C   0  0  0  0  0  0  0  0  0  0  0  0
  -47.0552  -30.3296    2.0984 C   0  0  0  0  0  0  0  0  0  0  0  0
  -45.4712  -28.4038    1.9253 C   0  0  0  0  0  0  0  0  0  0  0  0
  -46.3362  -33.6661    0.6406 C   0  0  0  0  0  0  0  0  0  0  0  0
  -45.7224  -29.3462    6.9485 N   0  0  0  0  0  0  0  0  0  0  0  0
  -44.8206  -29.5628    4.6981 N   0  0  0  0  0  0  0  0  0  0  0  0
  -48.0963  -28.9235    6.9739 N   0  0  0  0  0  0  0  0  0  0  0  0
  -46.1792  -29.3700    2.7445 N   0  0  3  0  0  0  0  0  0  0  0  0
  -45.5837  -32.1157    2.7319 O   0  0  0  0  0  0  0  0  0  0  0  0
  -46.8902  -32.3630    0.8549 O   0  0  0  0  0  0  0  0  0  0  0  0
  -49.0611  -28.8295    3.8528 H   0  0  0  0  0  0  0  0  0  0  0  0
  -50.1085  -28.5815    6.3509 H   0  0  0  0  0  0  0  0  0  0  0  0
  -43.7490  -29.7087    6.4593 H   0  0  0  0  0  0  0  0  0  0  0  0
  -44.5108  -30.2927    0.0767 H   0  0  0  0  0  0  0  0  0  0  0  0
  -42.9255  -30.6031    0.9182 H   0  0  0  0  0  0  0  0  0  0  0  0
  -42.2539  -28.2144    0.5324 H   0  0  0  0  0  0  0  0  0  0  0  0
  -43.8397  -27.9050   -0.3088 H   0  0  0  0  0  0  0  0  0  0  0  0
  -43.4684  -28.8536    2.6342 H   0  0  0  0  0  0  0  0  0  0  0  0
  -48.0420  -34.3642   -0.4877 H   0  0  0  0  0  0  0  0  0  0  0  0
  -46.7480  -33.6477   -1.4781 H   0  0  0  0  0  0  0  0  0  0  0  0
  -46.5356  -35.2578   -0.8028 H   0  0  0  0  0  0  0  0  0  0  0  0
  -47.9544  -30.4207    2.7116 H   0  0  0  0  0  0  0  0  0  0  0  0
  -47.3039  -29.9356    1.1095 H   0  0  0  0  0  0  0  0  0  0  0  0
  -45.4883  -27.4275    2.4204 H   0  0  0  0  0  0  0  0  0  0  0  0
  -45.9767  -28.2991    0.9597 H   0  0  0  0  0  0  0  0  0  0  0  0
  -45.2528  -33.5731    0.5207 H   0  0  0  0  0  0  0  0  0  0  0  0
  -46.5479  -34.2871    1.5166 H   0  0  0  0  0  0  0  0  0  0  0  0
  -48.2234  -28.8772    7.9754 H   0  0  0  0  0  0  0  0  0  0  0  0
  1  2  2  0  0  0  0
  1  4  1  0  0  0  0
  2 17  1  0  0  0  0
  3 15  2  0  0  0  0
  3 16  1  0  0  0  0
  4  5  2  0  0  0  0
  4  6  1  0  0  0  0
  5 15  1  0  0  0  0
  5 17  1  0  0  0  0
  6 16  2  0  0  0  0
  6 18  1  0  0  0  0
  7 12  1  0  0  0  0
  7 19  2  0  0  0  0
  7 20  1  0  0  0  0
  8  9  1  0  0  0  0
  8 10  1  0  0  0  0
  9 10  1  0  0  0  0
 10 13  1  0  0  0  0
 11 14  1  0  0  0  0
 12 18  1  0  0  0  0
 13 18  1  0  0  0  0
 14 20  1  0  0  0  0
  1 21  1  0  0  0  0
  2 22  1  0  0  0  0
  3 23  1  0  0  0  0
  8 24  1  0  0  0  0
  8 25  1  0  0  0  0
  9 26  1  0  0  0  0
  9 27  1  0  0  0  0
 10 28  1  0  0  0  0
 11 29  1  0  0  0  0
 11 30  1  0  0  0  0
 11 31  1  0  0  0  0
 12 32  1  0  0  0  0
 12 33  1  0  0  0  0
 13 34  1  0  0  0  0
 13 35  1  0  0  0  0
 14 36  1  0  0  0  0
 14 37  1  0  0  0  0
 17 38  1  0  0  0  0
M  END
> <POSIT::Probability>
0.18

> <POSIT::Method>
HYBRID

> <ReceptorTitle>
UCSF-P4537-REFINED_LIGAND-BOUND-STATE_A__DU__LA1_A-201(A)

> <OMEGA_C>
ShtCwn4258FgR5lAMFxEwuAo5sFUU8FAGvQywgZZ7MFUhMFA6488woEl6cF2BZ9AHZ47wmQ16cFn
1cpA8yY4wj7i6sFpm4RADbE5whGL/cHcyfg/JdQuwjIi78EUjS4/njgtwnSx48GQ+OY+HyIwwtW/
5sG23do/c9U7wukSCcLw4hm/gzg8wgqj8sHiSwZAjOI1whI748FGb/Y/QFg5wheqBsKw/CM/uuM2
whHF6sH8Wd5ARkgzwpCA7MF6VpZAnGJAwjxj58EmKt9AdLc4wsj16sEypS9AtVU2wn12AMLG1y5A
lY87wsBzAcJw2lo/lz5Ewuai5sHtk3ZAJG9IwtKm5MGsOstA8v4uwnar7cHmss5AEwsywnxX8sHA
Ap09q7MrwjzT9MGcDGs/BwQpwgO34cG0SAg/z1svwn4938FYHJ6+o98twifU5sH7lihAAytAwuh0
CcKAtvm+9f06wkiXBsLoML2/eCQ6wgkIDcJQhE2/WNE/wqdd88HPii1APTc9wiR878GiAo4/AfQ1
wpxr28Gh6BpAIug3woNk4sGkrnU/6wI1wuZKBsIATQU/CTE6wgAmCcJ8H8I/xuRAwnAE58G0Nv9A

> <OMEGA_E>
G2ogwQ==

> <OMEGA_NBR>
     52605

$$$$
CACHE3HI_1717_66
  -OEChem-03092622543D

 36 38  0     1  0  0  0  0  0999 V2000
  -45.9706  -32.8183    1.1821 C   0  0  0  0  0  0  0  0  0  0  0  0
  -43.6347  -32.1952    0.8587 C   0  0  0  0  0  0  0  0  0  0  0  0
  -46.0713  -33.1216   -0.1927 C   0  0  0  0  0  0  0  0  0  0  0  0
  -43.7422  -32.4819   -0.5105 C   0  0  0  0  0  0  0  0  0  0  0  0
  -47.9290  -29.5948    4.7855 C   0  0  0  0  0  0  0  0  0  0  0  0
  -48.7065  -29.0188    5.7628 C   0  0  0  0  0  0  0  0  0  0  0  0
  -44.2981  -29.4609    6.7832 C   0  0  0  0  0  0  0  0  0  0  0  0
  -46.5640  -29.6411    5.3021 C   0  0  0  0  0  0  0  0  0  0  0  0
  -44.7473  -32.3604    1.7274 C   0  0  0  0  0  0  0  0  0  0  0  0
  -44.9552  -32.9521   -1.0376 C   0  0  0  0  0  0  0  0  0  0  0  0
  -46.5816  -29.0753    6.5802 C   0  0  0  0  0  0  0  0  0  0  0  0
  -45.3604  -30.1508    4.7962 C   0  0  0  0  0  0  0  0  0  0  0  0
  -42.3117  -30.9232    3.5157 C   0  0  0  0  0  0  0  0  0  0  0  0
  -43.2066  -32.1675    3.7833 C   0  0  0  0  0  0  0  0  0  0  0  0
  -44.6680  -32.0655    3.2359 C   0  0  1  0  0  0  0  0  0  0  0  0
  -45.4524  -28.9880    7.3118 N   0  0  0  0  0  0  0  0  0  0  0  0
  -44.2404  -30.0407    5.5568 N   0  0  0  0  0  0  0  0  0  0  0  0
  -47.8891  -28.7051    6.8488 N   0  0  0  0  0  0  0  0  0  0  0  0
  -42.7515  -29.8465    2.7558 N   0  0  0  0  0  0  0  0  0  0  0  0
  -45.3578  -30.7627    3.5321 N   0  0  0  0  0  0  0  0  0  0  0  0
  -41.1924  -30.8782    4.0074 O   0  0  0  0  0  0  0  0  0  0  0  0
  -45.0624  -33.3335   -2.7375 Cl  0  0  0  0  0  0  0  0  0  0  0  0
  -46.8325  -32.9363    1.8221 H   0  0  0  0  0  0  0  0  0  0  0  0
  -42.6943  -31.8446    1.2576 H   0  0  0  0  0  0  0  0  0  0  0  0
  -47.0044  -33.4841   -0.5980 H   0  0  0  0  0  0  0  0  0  0  0  0
  -42.8908  -32.3405   -1.1597 H   0  0  0  0  0  0  0  0  0  0  0  0
  -48.2639  -29.9456    3.8205 H   0  0  0  0  0  0  0  0  0  0  0  0
  -49.7697  -28.8398    5.7001 H   0  0  0  0  0  0  0  0  0  0  0  0
  -43.3889  -29.3734    7.3594 H   0  0  0  0  0  0  0  0  0  0  0  0
  -42.7271  -33.0391    3.3137 H   0  0  0  0  0  0  0  0  0  0  0  0
  -43.2604  -32.3206    4.8713 H   0  0  0  0  0  0  0  0  0  0  0  0
  -45.2430  -32.8557    3.7409 H   0  0  0  0  0  0  0  0  0  0  0  0
  -48.2012  -28.2761    7.6965 H   0  0  0  0  0  0  0  0  0  0  0  0
  -42.1564  -29.0545    2.6194 H   0  0  0  0  0  0  0  0  0  0  0  0
  -43.6631  -29.8635    2.3451 H   0  0  0  0  0  0  0  0  0  0  0  0
  -46.3192  -30.9040    3.2962 H   0  0  0  0  0  0  0  0  0  0  0  0
  1  3  1  0  0  0  0
  1  9  2  0  0  0  0
  2  4  2  0  0  0  0
  2  9  1  0  0  0  0
  3 10  2  0  0  0  0
  4 10  1  0  0  0  0
  5  6  2  0  0  0  0
  5  8  1  0  0  0  0
  6 18  1  0  0  0  0
  7 16  2  0  0  0  0
  7 17  1  0  0  0  0
  8 11  2  0  0  0  0
  8 12  1  0  0  0  0
  9 15  1  0  0  0  0
 10 22  1  0  0  0  0
 11 16  1  0  0  0  0
 11 18  1  0  0  0  0
 12 17  2  0  0  0  0
 12 20  1  0  0  0  0
 13 14  1  0  0  0  0
 13 19  1  0  0  0  0
 13 21  2  0  0  0  0
 14 15  1  0  0  0  0
 15 20  1  0  0  0  0
  1 23  1  0  0  0  0
  2 24  1  0  0  0  0
  3 25  1  0  0  0  0
  4 26  1  0  0  0  0
  5 27  1  0  0  0  0
  6 28  1  0  0  0  0
  7 29  1  0  0  0  0
 14 30  1  0  0  0  0
 14 31  1  0  0  0  0
 15 32  1  0  0  0  0
 18 33  1  0  0  0  0
 19 34  1  0  0  0  0
 19 35  1  0  0  0  0
 20 36  1  0  0  0  0
M  END
> <POSIT::Probability>
0.79

> <POSIT::Method>
SHAPEFIT

> <ReceptorTitle>
UCSF-P4537-REFINED_LIGAND-BOUND-STATE_A__DU__LA1_A-201(A)

> <OMEGA_C>
6+E3wudFA8I4UJc/5IkuwunHAMJg0Vs/+0g4wo58BMJCUUW+Dfguwm7tAcLqsQK/Urc/whbC7MFt
IplAbNNCwpkm6MGRaLhASjExwvmv68GxD9lAkEE6wvcg7cEaq6lAOf0ywgRxAcLrGt0/LdIzwv7O
A8L4z4S/iFM6wlGa6MG7kNJAFnE1wt808cG+eplAKD8pwrhi98HIAWFAi9MswourAMJoIXJACawy
wg1DAMJ3GE9ANs81woLn58Eq+ulAKfYwwkhT8MHy0LFAeY4/whmk5cHCKdtAfwErwqTF7sGzXjBA
X241wgUa9sFnDmJAAcUkwnQG98HjPIBA3j80wnVVBcKgMi/AgVQ7wr6+A8LGO+k/9MYqwrbB/sFL
+aA/gQQ8wrTvBcLzGBm/KZArwrJcAcKgcZS/Qw5BwqmQ78ETg3RAJBRHwt235sHiZrZAQ44twrr8
6sF9gOtAmugqwgAoBMLvElRArgotwk9IAcJM4ZtAz/g0wjBsA8J+am9ABc5Awok14sEZSvZAIaAo
wplv6MHspCdAAqcuwobo7sGAFhZA4kY5wn0798EZ9VJA

> <OMEGA_E>
tMExPw==

> <OMEGA_NBR>
     53849

$$$$
CACHE3HI_1718_28
  -OEChem-03092622543D

 42 43  0     1  0  0  0  0  0999 V2000
  -45.4688  -28.8611    7.2978 C   0  0  0  0  0  0  0  0  0  0  0  0
  -44.2756  -29.4252    6.8207 C   0  0  0  0  0  0  0  0  0  0  0  0
  -45.9304  -32.8714    1.1659 C   0  0  0  0  0  0  0  0  0  0  0  0
  -43.6134  -32.1141    1.0092 C   0  0  0  0  0  0  0  0  0  0  0  0
  -46.6348  -28.9154    6.5171 C   0  0  0  0  0  0  0  0  0  0  0  0
  -44.2515  -30.0576    5.5642 C   0  0  0  0  0  0  0  0  0  0  0  0
  -45.9123  -33.2024   -0.2020 C   0  0  0  0  0  0  0  0  0  0  0  0
  -43.6007  -32.4285   -0.3641 C   0  0  0  0  0  0  0  0  0  0  0  0
  -44.7764  -32.3385    1.7754 C   0  0  0  0  0  0  0  0  0  0  0  0
  -46.6320  -29.5349    5.2352 C   0  0  0  0  0  0  0  0  0  0  0  0
  -44.7409  -32.9947   -0.9740 C   0  0  0  0  0  0  0  0  0  0  0  0
  -45.4227  -30.1251    4.7710 C   0  0  0  0  0  0  0  0  0  0  0  0
  -44.8029  -31.9413    3.1847 C   0  0  0  0  0  0  0  0  0  0  0  0
  -45.3930  -34.3270   -2.9614 C   0  0  0  0  0  0  0  0  0  0  0  0
  -48.3695  -29.5263    1.9527 C   0  0  0  0  0  0  0  0  0  0  0  0
  -47.9124  -29.6335    4.3641 C   0  0  1  0  0  0  0  0  0  0  0  0
  -49.1854  -29.0193    5.0245 C   0  0  0  0  0  0  0  0  0  0  0  0
  -45.7955  -35.4415   -2.2407 N   0  0  0  0  0  0  0  0  0  0  0  0
  -45.3825  -30.7156    3.5009 N   0  0  0  0  0  0  0  0  0  0  0  0
  -44.7103  -33.2758   -2.3477 N   0  0  0  0  0  0  0  0  0  0  0  0
  -44.4095  -32.7239    4.0439 O   0  0  0  0  0  0  0  0  0  0  0  0
  -45.6140  -34.2838   -4.1654 O   0  0  0  0  0  0  0  0  0  0  0  0
  -47.6579  -28.9736    3.0895 O   0  0  0  0  0  0  0  0  0  0  0  0
  -49.4749  -29.6699    6.1846 F   0  0  0  0  0  0  0  0  0  0  0  0
  -50.2650  -29.1539    4.2147 F   0  0  0  0  0  0  0  0  0  0  0  0
  -49.0066  -27.6889    5.2569 F   0  0  0  0  0  0  0  0  0  0  0  0
  -45.4904  -28.3846    8.2667 H   0  0  0  0  0  0  0  0  0  0  0  0
  -43.3769  -29.3739    7.4174 H   0  0  0  0  0  0  0  0  0  0  0  0
  -46.8271  -33.0256    1.7478 H   0  0  0  0  0  0  0  0  0  0  0  0
  -42.7316  -31.7007    1.4759 H   0  0  0  0  0  0  0  0  0  0  0  0
  -47.5482  -28.4804    6.8951 H   0  0  0  0  0  0  0  0  0  0  0  0
  -43.3328  -30.4948    5.2018 H   0  0  0  0  0  0  0  0  0  0  0  0
  -46.7951  -33.6167   -0.6662 H   0  0  0  0  0  0  0  0  0  0  0  0
  -42.7155  -32.2357   -0.9521 H   0  0  0  0  0  0  0  0  0  0  0  0
  -48.1091  -28.9604    1.0461 H   0  0  0  0  0  0  0  0  0  0  0  0
  -48.0864  -30.5809    1.8204 H   0  0  0  0  0  0  0  0  0  0  0  0
  -49.4530  -29.4569    2.1295 H   0  0  0  0  0  0  0  0  0  0  0  0
  -48.1125  -30.6995    4.1810 H   0  0  0  0  0  0  0  0  0  0  0  0
  -46.2595  -36.1961   -2.7046 H   0  0  0  0  0  0  0  0  0  0  0  0
  -45.6217  -35.4904   -1.2571 H   0  0  0  0  0  0  0  0  0  0  0  0
  -45.8099  -30.2094    2.7518 H   0  0  0  0  0  0  0  0  0  0  0  0
  -44.1587  -32.6789   -2.9304 H   0  0  0  0  0  0  0  0  0  0  0  0
  1  2  1  0  0  0  0
  1  5  2  0  0  0  0
  2  6  2  0  0  0  0
  3  7  2  0  0  0  0
  3  9  1  0  0  0  0
  4  8  1  0  0  0  0
  4  9  2  0  0  0  0
  5 10  1  0  0  0  0
  6 12  1  0  0  0  0
  7 11  1  0  0  0  0
  8 11  2  0  0  0  0
  9 13  1  0  0  0  0
 10 12  2  0  0  0  0
 10 16  1  0  0  0  0
 11 20  1  0  0  0  0
 12 19  1  0  0  0  0
 13 19  1  0  0  0  0
 13 21  2  0  0  0  0
 14 18  1  0  0  0  0
 14 20  1  0  0  0  0
 14 22  2  0  0  0  0
 15 23  1  0  0  0  0
 16 17  1  0  0  0  0
 16 23  1  0  0  0  0
 17 24  1  0  0  0  0
 17 25  1  0  0  0  0
 17 26  1  0  0  0  0
  1 27  1  0  0  0  0
  2 28  1  0  0  0  0
  3 29  1  0  0  0  0
  4 30  1  0  0  0  0
  5 31  1  0  0  0  0
  6 32  1  0  0  0  0
  7 33  1  0  0  0  0
  8 34  1  0  0  0  0
 15 35  1  0  0  0  0
 15 36  1  0  0  0  0
 15 37  1  0  0  0  0
 16 38  1  0  0  0  0
 18 39  1  0  0  0  0
 18 40  1  0  0  0  0
 19 41  1  0  0  0  0
 20 42  1  0  0  0  0
M  END
> <POSIT::Probability>
0.42

> <POSIT::Method>
SHAPEFIT

> <ReceptorTitle>
UCSF-P4537-REFINED_LIGAND-BOUND-STATE_A__DU__LA1_A-201(A)

> <OMEGA_C>
GuA1wo7j5sGUh+lAMBoxwtZm68EiQ9pAvrg3wlh8A8LyPJU/KXQuwtl0AMJqLIE/EIo6wr9S58FG
jNBAhQExwuR18MHUDbJAKaY3wj7PBMLI2U6+EmcuwtC2AcKYaLq+/hozwplaAcLXPuM/I4c6wnNH
7MGyhqdAqfYywpr6A8K4WXm/47A1wjMA8cHLq5hAJzYzwtOH/8Gk0UtAd5I1wtpOCcIWiD3AanpB
wsU17MGf8fk/RKY/wnMR7cH8potA5b1Ewp8n6MHfyKBAny43whbEDcLEZw/AqYc1wn259cFxDmBA
YNcywmIaBcJkQRbAT6MxwknlAsJyZ4FAt3Q2wp8iCcJWS4XAsKE+wgbK58HiukVAU+ZFwutb7cEr
6MVAUQ9Jwhs76cHb3oZAyQZEwseC3cHqOKhAJvY1wqET48GZRARB6oEtwsz96sGiW+1A+U47wisa
BMI1t98/Ke0qwgyb/cE967w/XjE+wsfX48GxpNxA1lQtwlj188EOdaZAJC47wnZ3BsIHiiq/tdwq
wmPxAMITvnO/w29Aws+u58G25YU/elhAwr6l9MFmA+k/5c9FwrCn68HYSQhAL3NAwqqY9cGQyoVA
wgk5wtjIEMJoGC3AqHw2wjD2DcIJ6qC/Tj03wt6s8cFRHTBAiaIwwju3AsI9jDvA

> <OMEGA_E>
5hVzPw==

> <OMEGA_NBR>
     55210

$$$$
CACHE3HI_1718_44
  -OEChem-03092622543D

 38 39  0     1  0  0  0  0  0999 V2000
  -46.0771  -33.1126    1.1473 C   0  0  0  0  0  0  0  0  0  0  0  0
  -45.9413  -33.7334   -0.0945 C   0  0  0  0  0  0  0  0  0  0  0  0
  -43.7589  -32.7308   -0.3583 C   0  0  0  0  0  0  0  0  0  0  0  0
  -45.0535  -32.3009    1.6361 C   0  0  0  0  0  0  0  0  0  0  0  0
  -44.7825  -33.5425   -0.8472 C   0  0  0  0  0  0  0  0  0  0  0  0
  -43.8947  -32.1100    0.8833 C   0  0  0  0  0  0  0  0  0  0  0  0
  -45.8507  -29.9268    5.1902 C   0  0  0  0  0  0  0  0  0  0  0  0
  -45.2397  -31.6713    2.9377 C   0  0  0  0  0  0  0  0  0  0  0  0
  -43.5652  -34.0959   -2.9904 C   0  0  0  0  0  0  0  0  0  0  0  0
  -47.8231  -30.9918    4.0410 C   0  0  0  0  0  0  0  0  0  0  0  0
  -47.7028  -29.0679    6.6810 C   0  0  0  0  0  0  0  0  0  0  0  0
  -45.0367  -35.6171   -4.3279 C   0  0  0  0  0  0  0  0  0  0  0  0
  -46.6550  -30.0224    3.9140 C   0  0  2  0  0  0  0  0  0  0  0  0
  -44.5837  -30.2226    5.3677 N   0  0  0  0  0  0  0  0  0  0  0  0
  -44.3258  -29.9682    6.6964 N   0  0  0  0  0  0  0  0  0  0  0  0
  -45.4129  -29.5261    7.3168 N   0  0  0  0  0  0  0  0  0  0  0  0
  -46.3646  -29.5011    6.3735 N   0  0  0  0  0  0  0  0  0  0  0  0
  -44.6473  -34.1637   -2.0891 N   0  0  0  0  0  0  0  0  0  0  0  0
  -43.8179  -34.8650   -4.1309 N   0  0  0  0  0  0  0  0  0  0  0  0
  -44.9012  -32.1799    4.0123 O   0  0  0  0  0  0  0  0  0  0  0  0
  -42.5283  -33.4579   -2.8256 O   0  0  0  0  0  0  0  0  0  0  0  0
  -45.8366  -30.4474    2.8192 O   0  0  0  0  0  0  0  0  0  0  0  0
  -42.6061  -31.1113    1.4531 Cl  0  0  0  0  0  0  0  0  0  0  0  0
  -46.9858  -33.2696    1.7229 H   0  0  0  0  0  0  0  0  0  0  0  0
  -46.7460  -34.3630   -0.4659 H   0  0  0  0  0  0  0  0  0  0  0  0
  -42.8574  -32.5841   -0.9494 H   0  0  0  0  0  0  0  0  0  0  0  0
  -47.4828  -31.9973    4.3087 H   0  0  0  0  0  0  0  0  0  0  0  0
  -48.5417  -30.6578    4.7985 H   0  0  0  0  0  0  0  0  0  0  0  0
  -48.3734  -31.0494    3.0951 H   0  0  0  0  0  0  0  0  0  0  0  0
  -48.3240  -29.9121    6.9987 H   0  0  0  0  0  0  0  0  0  0  0  0
  -48.1584  -28.6056    5.7998 H   0  0  0  0  0  0  0  0  0  0  0  0
  -47.6999  -28.3417    7.5005 H   0  0  0  0  0  0  0  0  0  0  0  0
  -44.9199  -36.6413   -3.9623 H   0  0  0  0  0  0  0  0  0  0  0  0
  -45.8633  -35.1446   -3.7899 H   0  0  0  0  0  0  0  0  0  0  0  0
  -45.2921  -35.6506   -5.3906 H   0  0  0  0  0  0  0  0  0  0  0  0
  -47.0448  -29.0331    3.6459 H   0  0  0  0  0  0  0  0  0  0  0  0
  -45.4387  -34.7458   -2.3852 H   0  0  0  0  0  0  0  0  0  0  0  0
  -43.1283  -34.8738   -4.8761 H   0  0  0  0  0  0  0  0  0  0  0  0
  1  2  2  0  0  0  0
  1  4  1  0  0  0  0
  2  5  1  0  0  0  0
  3  5  2  0  0  0  0
  3  6  1  0  0  0  0
  4  6  2  0  0  0  0
  4  8  1  0  0  0  0
  5 18  1  0  0  0  0
  6 23  1  0  0  0  0
  7 13  1  0  0  0  0
  7 14  2  0  0  0  0
  7 17  1  0  0  0  0
  8 20  2  0  0  0  0
  8 22  1  0  0  0  0
  9 18  1  0  0  0  0
  9 19  1  0  0  0  0
  9 21  2  0  0  0  0
 10 13  1  0  0  0  0
 11 17  1  0  0  0  0
 12 19  1  0  0  0  0
 13 22  1  0  0  0  0
 14 15  1  0  0  0  0
 15 16  2  0  0  0  0
 16 17  1  0  0  0  0
  1 24  1  0  0  0  0
  2 25  1  0  0  0  0
  3 26  1  0  0  0  0
 10 27  1  0  0  0  0
 10 28  1  0  0  0  0
 10 29  1  0  0  0  0
 11 30  1  0  0  0  0
 11 31  1  0  0  0  0
 11 32  1  0  0  0  0
 12 33  1  0  0  0  0
 12 34  1  0  0  0  0
 12 35  1  0  0  0  0
 13 36  1  0  0  0  0
 18 37  1  0  0  0  0
 19 38  1  0  0  0  0
M  END
> <POSIT::Probability>
0.5

> <POSIT::Method>
HYBRID

> <ReceptorTitle>
UCSF-P4537-REFINED_LIGAND-BOUND-STATE_A__DU__LA1_A-201(A)

> <OMEGA_C>
7E44wk1zBMIo2ZI/6cM3wgfvBsJAc8G9JQkvwlfsAsLodbe+zzY0wis0AcLubNE/SSEzwoErBsIs
5Vi/LpQvwqVwAMIYI2I/IGc3wg9q78EyFqZAdvU0wtBe/cFMAzxAz0Iuwj5iCMJuYj/A20o/wkvv
98EAUIFAtc8+whuL6MGQytVAkCU0wuB3DsL/fYrAu546wuEt8MFvf3pAsFUywuLH8cHuw6tAoU0x
wvG+78EsSdZA1qY1wnQ17ME6I+pAYnU5wlUC7MGe88tA35Yywp2nCMKitAXAlEUvwst1C8K+MITA
1Jozwja4AMKWZIBA/hwqwubUBcLn1TTAulg3wjKU88EdbTRAsGwqwgDk+MF6/rk/avE7wh4UBcKg
iNw/9Ps6wq1zCcLQhu6+8W0rwhVWAsKADnO/be49wnD6/8GY4IlAvCpCwjhD9cGLjZlAX35BwjNl
+MG/FUZAzktBwvpL78H99N9AO6JAwlDY5MGcl7lAssw+wuO74sG5A/BA760zwryQEsK6ln3AD3Q3
whSUDMJSjXLAHys1wj6aDsLnf6zA4C08wsRD6MGmVWlALsE1wqj7CsJ/pxjAXYMswsh+C8KoCJzA

> <OMEGA_E>
m4O6wA==

> <OMEGA_NBR>
     56467

$$$$
CACHE3HI_1718_54
  -OEChem-03092622543D

 47 48  0     0  0  0  0  0  0999 V2000
  -45.3892  -30.0247    2.4930 C   0  0  0  0  0  0  0  0  0  0  0  0
  -46.6888  -32.0592    2.3963 C   0  0  0  0  0  0  0  0  0  0  0  0
  -46.1736  -29.5749    3.5551 C   0  0  0  0  0  0  0  0  0  0  0  0
  -47.4732  -31.6095    3.4584 C   0  0  0  0  0  0  0  0  0  0  0  0
  -45.6469  -31.2671    1.9137 C   0  0  0  0  0  0  0  0  0  0  0  0
  -47.2155  -30.3670    4.0377 C   0  0  0  0  0  0  0  0  0  0  0  0
  -45.7760  -33.9419   -1.9591 C   0  0  0  0  0  0  0  0  0  0  0  0
  -44.8291  -31.7368    0.8067 C   0  0  0  0  0  0  0  0  0  0  0  0
  -47.5955  -29.5817    6.4083 C   0  0  0  0  0  0  0  0  0  0  0  0
  -42.6519  -33.9429   -5.5827 C   0  0  0  0  0  0  0  0  0  0  0  0
  -50.4850  -30.4729    6.1716 C   0  0  0  0  0  0  0  0  0  0  0  0
  -50.9809  -28.5825    7.7539 C   0  0  0  0  0  0  0  0  0  0  0  0
  -44.8404  -33.0792   -1.1648 C   0  0  0  0  0  0  0  0  0  0  0  0
  -43.6714  -34.5593   -4.6386 C   0  0  0  0  0  0  0  0  0  0  0  0
  -44.7396  -33.5440   -4.2303 C   0  0  0  0  0  0  0  0  0  0  0  0
  -50.0389  -29.1072    6.6777 C   0  0  0  0  0  0  0  0  0  0  0  0
  -46.7916  -34.6475   -1.5176 N   0  0  0  0  0  0  0  0  0  0  0  0
  -47.3292  -35.2593   -2.6282 N   0  0  0  0  0  0  0  0  0  0  0  0
  -46.6557  -34.9335   -3.7247 N   0  0  0  0  0  0  0  0  0  0  0  0
  -45.6854  -34.1102   -3.3041 N   0  0  0  0  0  0  0  0  0  0  0  0
  -48.0110  -29.9102    5.1149 N   0  0  0  0  0  0  0  0  0  0  0  0
  -48.6886  -29.1702    7.1809 N   0  0  0  0  0  0  0  0  0  0  0  0
  -43.6390  -31.4389    0.6398 O   0  0  0  0  0  0  0  0  0  0  0  0
  -46.4477  -29.6326    6.8436 O   0  0  0  0  0  0  0  0  0  0  0  0
  -45.5391  -32.5518   -0.0322 O   0  0  0  0  0  0  0  0  0  0  0  0
  -44.5801  -29.3987    2.1261 H   0  0  0  0  0  0  0  0  0  0  0  0
  -46.8990  -33.0289    1.9524 H   0  0  0  0  0  0  0  0  0  0  0  0
  -45.9636  -28.6052    3.9994 H   0  0  0  0  0  0  0  0  0  0  0  0
  -48.2828  -32.2351    3.8256 H   0  0  0  0  0  0  0  0  0  0  0  0
  -42.1655  -33.0759   -5.1240 H   0  0  0  0  0  0  0  0  0  0  0  0
  -41.8783  -34.6686   -5.8531 H   0  0  0  0  0  0  0  0  0  0  0  0
  -43.1415  -33.6092   -6.5036 H   0  0  0  0  0  0  0  0  0  0  0  0
  -50.5095  -31.2013    6.9893 H   0  0  0  0  0  0  0  0  0  0  0  0
  -49.8007  -30.8493    5.4035 H   0  0  0  0  0  0  0  0  0  0  0  0
  -51.4910  -30.4288    5.7407 H   0  0  0  0  0  0  0  0  0  0  0  0
  -51.0210  -29.2624    8.6125 H   0  0  0  0  0  0  0  0  0  0  0  0
  -51.9960  -28.4652    7.3621 H   0  0  0  0  0  0  0  0  0  0  0  0
  -50.6445  -27.6069    8.1228 H   0  0  0  0  0  0  0  0  0  0  0  0
  -43.9781  -33.6575   -0.8164 H   0  0  0  0  0  0  0  0  0  0  0  0
  -44.4648  -32.2486   -1.7730 H   0  0  0  0  0  0  0  0  0  0  0  0
  -44.1384  -35.4226   -5.1281 H   0  0  0  0  0  0  0  0  0  0  0  0
  -43.1534  -34.9412   -3.7499 H   0  0  0  0  0  0  0  0  0  0  0  0
  -45.2725  -33.1787   -5.1174 H   0  0  0  0  0  0  0  0  0  0  0  0
  -44.2694  -32.6621   -3.7774 H   0  0  0  0  0  0  0  0  0  0  0  0
  -50.0250  -28.4032    5.8379 H   0  0  0  0  0  0  0  0  0  0  0  0
  -49.0053  -29.8086    4.9251 H   0  0  0  0  0  0  0  0  0  0  0  0
  -48.5302  -28.9336    8.1571 H   0  0  0  0  0  0  0  0  0  0  0  0
  1  3  2  0  0  0  0
  1  5  1  0  0  0  0
  2  4  1  0  0  0  0
  2  5  2  0  0  0  0
  3  6  1  0  0  0  0
  4  6  2  0  0  0  0
  5  8  1  0  0  0  0
  6 21  1  0  0  0  0
  7 13  1  0  0  0  0
  7 17  2  0  0  0  0
  7 20  1  0  0  0  0
  8 23  2  0  0  0  0
  8 25  1  0  0  0  0
  9 21  1  0  0  0  0
  9 22  1  0  0  0  0
  9 24  2  0  0  0  0
 10 14  1  0  0  0  0
 11 16  1  0  0  0  0
 12 16  1  0  0  0  0
 13 25  1  0  0  0  0
 14 15  1  0  0  0  0
 15 20  1  0  0  0  0
 16 22  1  0  0  0  0
 17 18  1  0  0  0  0
 18 19  2  0  0  0  0
 19 20  1  0  0  0  0
  1 26  1  0  0  0  0
  2 27  1  0  0  0  0
  3 28  1  0  0  0  0
  4 29  1  0  0  0  0
 10 30  1  0  0  0  0
 10 31  1  0  0  0  0
 10 32  1  0  0  0  0
 11 33  1  0  0  0  0
 11 34  1  0  0  0  0
 11 35  1  0  0  0  0
 12 36  1  0  0  0  0
 12 37  1  0  0  0  0
 12 38  1  0  0  0  0
 13 39  1  0  0  0  0
 13 40  1  0  0  0  0
 14 41  1  0  0  0  0
 14 42  1  0  0  0  0
 15 43  1  0  0  0  0
 15 44  1  0  0  0  0
 16 45  1  0  0  0  0
 21 46  1  0  0  0  0
 22 47  1  0  0  0  0
M  END
> <POSIT::Probability>
0.18

> <POSIT::Method>
HYBRID

> <ReceptorTitle>
UCSF-P4537-REFINED_LIGAND-BOUND-STATE_A__DU__LA1_A-201(A)

> <OMEGA_C>
jI41wqoy8MFFjR9AWcE6wqk8AMLIXBlAw7E4wmqZ7MH4hmNAjuQ9wizg/MHZVV1AZZY2wgoj+sHB
9PQ/uNw8wrPv8sGwNIFAlxo3wnfEB8LOxPq/+lAzwgvl/cFUgk4/zmE+wkqn7MHuEM1AlJsqwozF
B8LXpbLArvBJwm3I88HafcVAeuxLwgap5MHeH/hAjlwzwhlRBMIvF5W/jq8uwsY8CsKYb5TAU/Uy
wgstBsI7XofA1idIwoXb6MFgr9VAmSo7wv6WCsIXP8K/F1E9woUJDcLZMyjAa586wu+7C8K0YW7A
3702wttwCMIcdlPARgtAwiFI78HirKNAF8FCwntc6cEryuVAXo4uwsiC+8E4xyM/fMo5wqEP7cEF
/9pAAig2wgE1AsLR8AO9/1EywpYw68F8EQhAjpg7wpMdBMKW6Pk/xto3woPX5MEn9n9AiyFBwsDw
AMKi1nRAcqkowr1NBMLu96PAW4MnwrCsCsJ0TLvA2pAswtJvBsJOHdDAuQlKwimc+cGUqN9A7zNH
wkfL9sE66axAzPZNwitu88Fws7dAjBVMwm4Z6sHDzAlB6vtPwsu448EwlutAAJRKwvva3MHX9gFB
m+kvwk+hBsKA/FC/+Nsxwpz+AMJx8eK/s40wwrGwDcJ+GaTAG50swr/DC8L0/m/AAhc1wgO3BMJi
waPA4xMxwgWmAsK1wXHAjhlIwqo548HPz7pAZQVEwg147sEkmp1A8B5Cwv9358FRgwJB

> <OMEGA_E>
xouHwA==

> <OMEGA_NBR>
     57897

$$$$
CACHE3HI_1718_8
  -OEChem-03092622543D

 50 53  0     1  0  0  0  0  0999 V2000
  -45.3172  -35.0209   -2.7665 C   0  0  0  0  0  0  0  0  0  0  0  0
  -44.8080  -35.1891   -4.0581 C   0  0  0  0  0  0  0  0  0  0  0  0
  -44.7248  -29.7286    4.8056 C   0  0  0  0  0  0  0  0  0  0  0  0
  -48.3720  -28.7590    5.1687 C   0  0  0  0  0  0  0  0  0  0  0  0
  -43.1376  -33.4503   -3.7033 C   0  0  0  0  0  0  0  0  0  0  0  0
  -43.3158  -32.4228   -1.3024 C   0  0  0  0  0  0  0  0  0  0  0  0
  -44.4939  -29.6077    6.1692 C   0  0  0  0  0  0  0  0  0  0  0  0
  -48.7980  -28.4826    6.4502 C   0  0  0  0  0  0  0  0  0  0  0  0
  -46.9951  -29.0981    5.2375 C   0  0  0  0  0  0  0  0  0  0  0  0
  -43.6332  -33.2658   -2.4004 C   0  0  0  0  0  0  0  0  0  0  0  0
  -46.0031  -29.4701    4.3154 C   0  0  0  0  0  0  0  0  0  0  0  0
  -44.7001  -34.0518   -1.9775 C   0  0  0  0  0  0  0  0  0  0  0  0
  -43.7381  -34.4188   -4.5206 C   0  0  0  0  0  0  0  0  0  0  0  0
  -44.1978  -32.7471   -0.2981 C   0  0  0  0  0  0  0  0  0  0  0  0
  -46.6263  -29.0151    6.5771 C   0  0  0  0  0  0  0  0  0  0  0  0
  -44.3579  -32.2125    1.0780 C   0  0  0  0  0  0  0  0  0  0  0  0
  -49.5802  -32.3633    3.0384 C   0  0  0  0  0  0  0  0  0  0  0  0
  -48.1528  -32.8881    2.9384 C   0  0  0  0  0  0  0  0  0  0  0  0
  -45.6663  -32.3536    3.1813 C   0  0  0  0  0  0  0  0  0  0  0  0
  -46.2642  -29.5993    2.8304 C   0  0  2  0  0  0  0  0  0  0  0  0
  -47.1031  -31.8304    3.3204 C   0  0  1  0  0  0  0  0  0  0  0  0
  -45.4093  -29.2538    7.1014 N   0  0  0  0  0  0  0  0  0  0  0  0
  -47.7311  -28.6412    7.2964 N   0  0  0  0  0  0  0  0  0  0  0  0
  -45.3677  -32.7863    1.8205 N   0  0  0  0  0  0  0  0  0  0  0  0
  -47.2479  -30.6447    2.5035 N   0  0  0  0  0  0  0  0  0  0  0  0
  -43.6212  -31.3068    1.4594 O   0  0  0  0  0  0  0  0  0  0  0  0
  -45.0420  -33.7339   -0.6975 O   0  0  0  0  0  0  0  0  0  0  0  0
  -45.0038  -29.8587    2.2057 O   0  0  0  0  0  0  0  0  0  0  0  0
  -43.2770  -34.6084   -5.7649 F   0  0  0  0  0  0  0  0  0  0  0  0
  -46.1471  -35.6141   -2.4009 H   0  0  0  0  0  0  0  0  0  0  0  0
  -45.2541  -35.9323   -4.7143 H   0  0  0  0  0  0  0  0  0  0  0  0
  -43.9179  -30.0202    4.1405 H   0  0  0  0  0  0  0  0  0  0  0  0
  -48.9907  -28.7200    4.2826 H   0  0  0  0  0  0  0  0  0  0  0  0
  -42.3069  -32.8593   -4.0768 H   0  0  0  0  0  0  0  0  0  0  0  0
  -42.5382  -31.6731   -1.2546 H   0  0  0  0  0  0  0  0  0  0  0  0
  -43.5026  -29.8061    6.5681 H   0  0  0  0  0  0  0  0  0  0  0  0
  -49.7646  -28.1887    6.8343 H   0  0  0  0  0  0  0  0  0  0  0  0
  -49.7177  -31.4818    2.4041 H   0  0  0  0  0  0  0  0  0  0  0  0
  -49.8378  -32.0926    4.0669 H   0  0  0  0  0  0  0  0  0  0  0  0
  -50.2864  -33.1315    2.7084 H   0  0  0  0  0  0  0  0  0  0  0  0
  -48.0531  -33.7684    3.5851 H   0  0  0  0  0  0  0  0  0  0  0  0
  -47.9895  -33.2258    1.9086 H   0  0  0  0  0  0  0  0  0  0  0  0
  -44.9555  -31.5670    3.4636 H   0  0  0  0  0  0  0  0  0  0  0  0
  -45.4999  -33.1914    3.8691 H   0  0  0  0  0  0  0  0  0  0  0  0
  -46.6042  -28.6407    2.4199 H   0  0  0  0  0  0  0  0  0  0  0  0
  -47.2732  -31.5089    4.3551 H   0  0  0  0  0  0  0  0  0  0  0  0
  -47.7547  -28.5033    8.2972 H   0  0  0  0  0  0  0  0  0  0  0  0
  -45.9803  -33.4843    1.4277 H   0  0  0  0  0  0  0  0  0  0  0  0
  -47.1227  -30.8989    1.5198 H   0  0  0  0  0  0  0  0  0  0  0  0
  -45.1744  -29.9413    1.2521 H   0  0  0  0  0  0  0  0  0  0  0  0
  1  2  2  0  0  0  0
  1 12  1  0  0  0  0
  2 13  1  0  0  0  0
  3  7  2  0  0  0  0
  3 11  1  0  0  0  0
  4  8  2  0  0  0  0
  4  9  1  0  0  0  0
  5 10  1  0  0  0  0
  5 13  2  0  0  0  0
  6 10  1  0  0  0  0
  6 14  2  0  0  0  0
  7 22  1  0  0  0  0
  8 23  1  0  0  0  0
  9 11  2  0  0  0  0
  9 15  1  0  0  0  0
 10 12  2  0  0  0  0
 11 20  1  0  0  0  0
 12 27  1  0  0  0  0
 13 29  1  0  0  0  0
 14 16  1  0  0  0  0
 14 27  1  0  0  0  0
 15 22  2  0  0  0  0
 15 23  1  0  0  0  0
 16 24  1  0  0  0  0
 16 26  2  0  0  0  0
 17 18  1  0  0  0  0
 18 21  1  0  0  0  0
 19 21  1  0  0  0  0
 19 24  1  0  0  0  0
 20 25  1  0  0  0  0
 20 28  1  0  0  0  0
 21 25  1  0  0  0  0
  1 30  1  0  0  0  0
  2 31  1  0  0  0  0
  3 32  1  0  0  0  0
  4 33  1  0  0  0  0
  5 34  1  0  0  0  0
  6 35  1  0  0  0  0
  7 36  1  0  0  0  0
  8 37  1  0  0  0  0
 17 38  1  0  0  0  0
 17 39  1  0  0  0  0
 17 40  1  0  0  0  0
 18 41  1  0  0  0  0
 18 42  1  0  0  0  0
 19 43  1  0  0  0  0
 19 44  1  0  0  0  0
 20 45  1  0  0  0  0
 21 46  1  0  0  0  0
 23 47  1  0  0  0  0
 24 48  1  0  0  0  0
 25 49  1  0  0  0  0
 28 50  1  0  0  0  0
M  END
> <POSIT::Probability>
0.33

> <POSIT::Method>
HYBRID

> <ReceptorTitle>
UCSF-P4537-REFINED_LIGAND-BOUND-STATE_A__DU__LA1_A-201(A)

> <OMEGA_C>
2UQ1wnIVDMLUDjHAcTszwq7BDMLO24HALeYywjrU7cGKx5lA7XxBwlwS5sHoZaVA7IwswhLNBcL1
Am3AWEMtwv2wAcLEtKa/vvkxwqDc7MFIasVAJzFDwnPc48EPaM5A+vo7wuTI6MFSmadAb4guwiQQ
BcJmoBnAIAM4wrPC68HpF4pA8MwywhA1CMLHH/2/1/Muwt6sCcIKqZDAiMowwhT9AsKQpZi+SoE6
wv8e6MHld9JAem4xwpLZAMIa/Ik/LFJGwvtzAcJ2dEJAepxAwmWNA8L9DjxAQ6o2wh5qAcLhmktA
fg45wmXL7MEKJjVAn2k8wqSk/sGfgFRAJqM1wtAH6sG2PuNApuw+wiIh5cHye+lAing1wiMlA8J6
Bek/3/08wlwo9cH7OSBAIHwuwmB0+sFizbo/Cis0woHvBsLgjTK/7QM0wq3e7sFmKg1AoBstwv9u
CsI4erjAl5Y4wtR0DsLMqBnALAQ1wqC6D8K225bA46svwkwp8MEwf4RAf/ZDwqHC5cFwC4lAQTop
wvVvA8L/dILAKicqwoZi/cGzl6C/oAIuwu9y7sEULtJA+w5HwmyC4cGWstpA995GwqPa+8Fi3RlA
3FlHwtFeAMLkI4JARyVJwpyGBMIiVy1AVzZAwuESB8LscmVANvU/wkXnBMI6TPQ/b9IzwiuJ/MHB
q11A7v81wvLDBMLSn3dAu2o6wjwg5cFe3xpAyBc9wi4S/MG6XItAxwQ/wqsG5MFMwQRB0us3wvjv
BcJ4vrY/m308wugw98Hmh8I/l7I0wsSH78H8RKA/

> <OMEGA_E>
dlIHwQ==

> <OMEGA_NBR>
     59401

$$$$
CACHE3-HO_1696_38
  -OEChem-03092622503D

 43 45  0     1  0  0  0  0  0999 V2000
  -43.9190  -29.4830    6.4240 C   0  0  0  0  0  0  0  0  0  0  0  0
  -46.2305  -29.3870    4.9942 C   0  0  0  0  0  0  0  0  0  0  0  0
  -47.6311  -29.3000    4.5520 C   0  0  0  0  0  0  0  0  0  0  0  0
  -48.4019  -29.1793    5.6949 C   0  0  0  0  0  0  0  0  0  0  0  0
  -46.2369  -29.2971    6.3899 C   0  0  0  0  0  0  0  0  0  0  0  0
  -44.9918  -29.5361    4.3326 C   0  0  0  0  0  0  0  0  0  0  0  0
  -45.2957  -32.7243    2.7599 C   0  0  0  0  0  0  0  0  0  0  0  0
  -46.5361  -32.2754    0.8537 C   0  0  0  0  0  0  0  0  0  0  0  0
  -47.3944  -32.9749    1.8846 C   0  0  0  0  0  0  0  0  0  0  0  0
  -48.1037  -29.3296    3.1118 C   0  0  0  0  0  0  0  0  0  0  0  0
  -49.9071  -29.0626    5.8223 C   0  0  0  0  0  0  0  0  0  0  0  0
  -43.0042  -28.3436    2.0837 C   0  0  0  0  0  0  0  0  0  0  0  0
  -43.8876  -30.3236    0.7683 C   0  0  0  0  0  0  0  0  0  0  0  0
  -43.9911  -31.8721    0.7406 C   0  0  0  0  0  0  0  0  0  0  0  0
  -43.6426  -29.7460    2.1899 C   0  0  2  0  0  0  0  0  0  0  0  0
  -45.0887  -29.3419    7.0931 N   0  0  0  0  0  0  0  0  0  0  0  0
  -43.8544  -29.5869    5.0714 N   0  0  0  0  0  0  0  0  0  0  0  0
  -47.5518  -29.1744    6.7965 N   0  0  0  0  0  0  0  0  0  0  0  0
  -45.1974  -32.4020    1.4017 N   0  0  0  0  0  0  0  0  0  0  0  0
  -44.9310  -29.6416    2.9391 N   0  0  0  0  0  0  0  0  0  0  0  0
  -44.3736  -32.7764    3.5658 O   0  0  0  0  0  0  0  0  0  0  0  0
  -46.6049  -32.9748    3.0872 O   0  0  0  0  0  0  0  0  0  0  0  0
  -42.9996  -29.5142    6.9899 H   0  0  0  0  0  0  0  0  0  0  0  0
  -46.6110  -32.7715   -0.1252 H   0  0  0  0  0  0  0  0  0  0  0  0
  -46.8232  -31.2184    0.7520 H   0  0  0  0  0  0  0  0  0  0  0  0
  -48.3357  -32.4274    2.0399 H   0  0  0  0  0  0  0  0  0  0  0  0
  -47.6170  -34.0046    1.5681 H   0  0  0  0  0  0  0  0  0  0  0  0
  -48.3013  -30.3691    2.8114 H   0  0  0  0  0  0  0  0  0  0  0  0
  -49.0267  -28.7388    3.0167 H   0  0  0  0  0  0  0  0  0  0  0  0
  -47.3260  -28.9018    2.4620 H   0  0  0  0  0  0  0  0  0  0  0  0
  -50.3468  -30.0667    5.9137 H   0  0  0  0  0  0  0  0  0  0  0  0
  -50.1545  -28.4713    6.7163 H   0  0  0  0  0  0  0  0  0  0  0  0
  -50.3130  -28.5646    4.9294 H   0  0  0  0  0  0  0  0  0  0  0  0
  -42.8334  -27.9405    3.0929 H   0  0  0  0  0  0  0  0  0  0  0  0
  -42.0446  -28.4170    1.5511 H   0  0  0  0  0  0  0  0  0  0  0  0
  -43.6800  -27.6742    1.5312 H   0  0  0  0  0  0  0  0  0  0  0  0
  -43.0534  -30.0183    0.1196 H   0  0  0  0  0  0  0  0  0  0  0  0
  -44.8272  -29.9044    0.3790 H   0  0  0  0  0  0  0  0  0  0  0  0
  -43.9992  -32.2000   -0.3093 H   0  0  0  0  0  0  0  0  0  0  0  0
  -43.1076  -32.2874    1.2476 H   0  0  0  0  0  0  0  0  0  0  0  0
  -42.9539  -30.4122    2.7302 H   0  0  0  0  0  0  0  0  0  0  0  0
  -47.8501  -29.0935    7.7475 H   0  0  0  0  0  0  0  0  0  0  0  0
  -45.4560  -30.4587    2.7009 H   0  0  0  0  0  0  0  0  0  0  0  0
  1 16  1  0  0  0  0
  1 17  2  0  0  0  0
  2  3  1  0  0  0  0
  2  5  1  0  0  0  0
  2  6  2  0  0  0  0
  3  4  2  0  0  0  0
  3 10  1  0  0  0  0
  4 11  1  0  0  0  0
  4 18  1  0  0  0  0
  5 16  2  0  0  0  0
  5 18  1  0  0  0  0
  6 17  1  0  0  0  0
  6 20  1  0  0  0  0
  7 19  1  0  0  0  0
  7 21  2  0  0  0  0
  7 22  1  0  0  0  0
  8  9  1  0  0  0  0
  8 19  1  0  0  0  0
  9 22  1  0  0  0  0
 12 15  1  0  0  0  0
 13 14  1  0  0  0  0
 13 15  1  0  0  0  0
 14 19  1  0  0  0  0
 15 20  1  0  0  0  0
  1 23  1  0  0  0  0
  8 24  1  0  0  0  0
  8 25  1  0  0  0  0
  9 26  1  0  0  0  0
  9 27  1  0  0  0  0
 10 28  1  0  0  0  0
 10 29  1  0  0  0  0
 10 30  1  0  0  0  0
 11 31  1  0  0  0  0
 11 32  1  0  0  0  0
 11 33  1  0  0  0  0
 12 34  1  0  0  0  0
 12 35  1  0  0  0  0
 12 36  1  0  0  0  0
 13 37  1  0  0  0  0
 13 38  1  0  0  0  0
 14 39  1  0  0  0  0
 14 40  1  0  0  0  0
 15 41  1  0  0  0  0
 18 42  1  0  0  0  0
 20 43  1  0  0  0  0
M  END
> <POSIT::Probability>
0.95

> <POSIT::Method>
SHAPEFIT

> <ReceptorTitle>
UCSF-P4553-REFINED_LIGAND-BOUND-STATE_A__DU__LA1_A-201(A)

> <OMEGA_C>
C60vwjTd68G/kc1ADew4wokY68GT0J9ARIY+wmJm6sHAqZFAh5tBwjtv6cHBPLZAkPI4wmRg6sH/
ecxAofczwu5J7MGFpIpA2S41wq3lAsIUojBA/iQ6wvsZAcLmjlo/25M9wkDmA8K+OfE/L2pAwu6i
6sEhJ0dA2aBHwiyA6MFRULpAVgQswpq/4sGxWwVA64wvwqiW8sF/sEQ/3/Yvwhz6/sEQmj0/BJIu
wtv37cEhKAxA4Fo0wje86sGS+uJA5WovwgKy7MGpSKJABTU+wihl6cH5fNlALco0wqKbAcIra7M/
S7kzwgsi7cH2GjxAmX4xwgUbA8JONmRAY2s6wjrmA8JglEVApP8rwv4c7MGnrd9AqHE6wvwVA8Lx
LQC+7Uo7wja/+cHdhUA/y1dBwqC1AcLIjQJA1Hc+wqkECMIst8g/gTRBwgT08sEs7jNAXxtEwhvp
5cEzEUFA2E09wtw258HZkB1AImNJwqGI8MFlPb1AOJ5IwjPF48GQ69ZAfEBJwlSE5MGovZ1Ab1Ur
whaG38FU8UVAqS0owhBW48FuisY/R7guwrBk3cFz/cM/qTYswool8MEj3fQ9CU8zwlA878GeDsI+
Mf8vwszMAMJcYZ6+NG4swk0mAcK8sZ8/y9ArwjVM88H1uy5Ag2Y/wpa/6MHS6/dA7tI1wler88HK
2ixA

> <OMEGA_E>
QMouPg==

> <OMEGA_NBR>
      1384

$$$$
CACHE3-HO_1696_42
  -OEChem-03092622503D

 36 38  0     1  0  0  0  0  0999 V2000
  -43.9382  -29.5730    6.4045 C   0  0  0  0  0  0  0  0  0  0  0  0
  -48.3450  -29.0938    5.6070 C   0  0  0  0  0  0  0  0  0  0  0  0
  -46.2516  -29.3642    4.9939 C   0  0  0  0  0  0  0  0  0  0  0  0
  -46.2515  -29.3082    6.3859 C   0  0  0  0  0  0  0  0  0  0  0  0
  -45.0286  -29.5291    4.3257 C   0  0  0  0  0  0  0  0  0  0  0  0
  -45.2257  -32.7560    2.7980 C   0  0  0  0  0  0  0  0  0  0  0  0
  -46.5779  -32.2752    0.9708 C   0  0  0  0  0  0  0  0  0  0  0  0
  -47.4175  -32.5762    2.1897 C   0  0  0  0  0  0  0  0  0  0  0  0
  -43.2332  -28.1535    2.0201 C   0  0  0  0  0  0  0  0  0  0  0  0
  -43.9973  -30.1940    0.7493 C   0  0  0  0  0  0  0  0  0  0  0  0
  -44.0631  -31.7350    0.7719 C   0  0  0  0  0  0  0  0  0  0  0  0
  -43.7459  -29.5968    2.1524 C   0  0  2  0  0  0  0  0  0  0  0  0
  -45.1021  -29.4109    7.0840 N   0  0  0  0  0  0  0  0  0  0  0  0
  -43.8851  -29.6328    5.0482 N   0  0  0  0  0  0  0  0  0  0  0  0
  -47.5643  -29.2292    4.5555 N   0  0  0  0  0  0  0  0  0  0  0  0
  -47.5654  -29.1395    6.7593 N   0  0  0  0  0  0  0  0  0  0  0  0
  -45.2326  -32.2292    1.5061 N   0  0  0  0  0  0  0  0  0  0  0  0
  -45.0077  -29.5844    2.9353 N   0  0  0  0  0  0  0  0  0  0  0  0
  -44.2495  -32.8870    3.5268 O   0  0  0  0  0  0  0  0  0  0  0  0
  -46.4979  -33.1202    3.1518 O   0  0  0  0  0  0  0  0  0  0  0  0
  -43.0182  -29.6577    6.9639 H   0  0  0  0  0  0  0  0  0  0  0  0
  -49.4173  -28.9676    5.5799 H   0  0  0  0  0  0  0  0  0  0  0  0
  -46.6765  -33.0698    0.2166 H   0  0  0  0  0  0  0  0  0  0  0  0
  -46.8595  -31.3097    0.5252 H   0  0  0  0  0  0  0  0  0  0  0  0
  -47.8816  -31.6567    2.5758 H   0  0  0  0  0  0  0  0  0  0  0  0
  -48.2015  -33.3088    1.9475 H   0  0  0  0  0  0  0  0  0  0  0  0
  -43.0561  -27.7336    3.0213 H   0  0  0  0  0  0  0  0  0  0  0  0
  -42.2930  -28.1494    1.4493 H   0  0  0  0  0  0  0  0  0  0  0  0
  -43.9838  -27.5446    1.4949 H   0  0  0  0  0  0  0  0  0  0  0  0
  -43.1797  -29.8846    0.0815 H   0  0  0  0  0  0  0  0  0  0  0  0
  -44.9517  -29.8048    0.3651 H   0  0  0  0  0  0  0  0  0  0  0  0
  -44.1137  -32.1025   -0.2636 H   0  0  0  0  0  0  0  0  0  0  0  0
  -43.1530  -32.1213    1.2541 H   0  0  0  0  0  0  0  0  0  0  0  0
  -42.9891  -30.2034    2.6713 H   0  0  0  0  0  0  0  0  0  0  0  0
  -47.9023  -29.0629    7.6977 H   0  0  0  0  0  0  0  0  0  0  0  0
  -45.4979  -30.4190    2.6839 H   0  0  0  0  0  0  0  0  0  0  0  0
  1 13  2  0  0  0  0
  1 14  1  0  0  0  0
  2 15  2  0  0  0  0
  2 16  1  0  0  0  0
  3  4  2  0  0  0  0
  3  5  1  0  0  0  0
  3 15  1  0  0  0  0
  4 13  1  0  0  0  0
  4 16  1  0  0  0  0
  5 14  2  0  0  0  0
  5 18  1  0  0  0  0
  6 17  1  0  0  0  0
  6 19  2  0  0  0  0
  6 20  1  0  0  0  0
  7  8  1  0  0  0  0
  7 17  1  0  0  0  0
  8 20  1  0  0  0  0
  9 12  1  0  0  0  0
 10 11  1  0  0  0  0
 10 12  1  0  0  0  0
 11 17  1  0  0  0  0
 12 18  1  0  0  0  0
  1 21  1  0  0  0  0
  2 22  1  0  0  0  0
  7 23  1  0  0  0  0
  7 24  1  0  0  0  0
  8 25  1  0  0  0  0
  8 26  1  0  0  0  0
  9 27  1  0  0  0  0
  9 28  1  0  0  0  0
  9 29  1  0  0  0  0
 10 30  1  0  0  0  0
 10 31  1  0  0  0  0
 11 32  1  0  0  0  0
 11 33  1  0  0  0  0
 12 34  1  0  0  0  0
 16 35  1  0  0  0  0
 18 36  1  0  0  0  0
M  END
> <POSIT::Probability>
0.89

> <POSIT::Method>
SHAPEFIT

> <ReceptorTitle>
UCSF-P4553-REFINED_LIGAND-BOUND-STATE_A__DU__LA1_A-201(A)

> <OMEGA_C>
rcAvwmyV7MGk8cxASWFBwhrA6MHfbLNAnwE5wunp6sE2zp9AfwE5wjV36sE3WcxATh00wqs77MEu
bIpAGec0wioGA8IWEjNAx086wtAZAcIhiXg/jas9wghOAsIWJAxA2O4swmo64cHZSQFAO/0vwjyN
8cFF0T8/pEAwwjPh/cHFmkU/yvsuwknG7MGfwAlAjWg0wpJJ68ElsOJAW4ovwuEP7cHyiqFA3UE+
wmfV6cH7xpFA9kI+wrsd6cHaS9hAOO40wrfqAMJqxsA/6wc0wsus7MEb3DtAg/8wwlKMA8JatmFA
3/05wgt7BML8tklArxIswuZC7cGj2N5ASKtFwrC958HpjrJAwrQ6woFHBMLB0F0+HHA7wlN6+sHa
dQY/yYY/wuFA/cFY2iRAWM5Awjg8BcIuR/k/aTkswm7e3cGDXEFABSwpwu8x4cFJgbk/bO8vwm9b
3MFDV78/CrgswrIT78H1/6Y9i84zwiZw7sFM6bo+cHQwwvpoAMLQ/Ia+tZwswjR8AMLXhKA/2fQr
wpug8cFB9ypA85s/wteA6MFfU/ZA1P01wgxa88EvxStA

> <OMEGA_E>
2PGdPg==

> <OMEGA_NBR>
      2628

$$$$
CACHE3-HO_1696_43
  -OEChem-03092622503D

 39 41  0     1  0  0  0  0  0999 V2000
  -43.8757  -29.5042    6.4229 C   0  0  0  0  0  0  0  0  0  0  0  0
  -46.2501  -29.3813    5.0893 C   0  0  0  0  0  0  0  0  0  0  0  0
  -47.5752  -29.2943    4.7172 C   0  0  0  0  0  0  0  0  0  0  0  0
  -46.1943  -29.2681    6.5050 C   0  0  0  0  0  0  0  0  0  0  0  0
  -45.0378  -29.5548    4.3824 C   0  0  0  0  0  0  0  0  0  0  0  0
  -45.2383  -32.7824    2.6943 C   0  0  0  0  0  0  0  0  0  0  0  0
  -46.5941  -32.1390    0.9459 C   0  0  0  0  0  0  0  0  0  0  0  0
  -47.3790  -32.9720    1.9257 C   0  0  0  0  0  0  0  0  0  0  0  0
  -48.2504  -29.3539    3.3636 C   0  0  0  0  0  0  0  0  0  0  0  0
  -43.2885  -28.2065    2.0545 C   0  0  0  0  0  0  0  0  0  0  0  0
  -44.0609  -30.2168    0.7554 C   0  0  0  0  0  0  0  0  0  0  0  0
  -44.0677  -31.7630    0.6867 C   0  0  0  0  0  0  0  0  0  0  0  0
  -43.7862  -29.6590    2.1746 C   0  0  2  0  0  0  0  0  0  0  0  0
  -45.0090  -29.3299    7.1443 N   0  0  0  0  0  0  0  0  0  0  0  0
  -43.8719  -29.6142    5.0712 N   0  0  0  0  0  0  0  0  0  0  0  0
  -47.4073  -29.1122    6.9897 N   0  0  0  0  0  0  0  0  0  0  0  0
  -48.2199  -29.1305    5.9145 N   0  0  0  0  0  0  0  0  0  0  0  0
  -45.2231  -32.3755    1.3576 N   0  0  0  0  0  0  0  0  0  0  0  0
  -45.0311  -29.6707    2.9900 N   0  0  0  0  0  0  0  0  0  0  0  0
  -44.2717  -32.8641    3.4428 O   0  0  0  0  0  0  0  0  0  0  0  0
  -46.5232  -33.0762    3.0749 O   0  0  0  0  0  0  0  0  0  0  0  0
  -42.9333  -29.5580    6.9476 H   0  0  0  0  0  0  0  0  0  0  0  0
  -46.7625  -32.4770   -0.0873 H   0  0  0  0  0  0  0  0  0  0  0  0
  -46.8561  -31.0740    1.0305 H   0  0  0  0  0  0  0  0  0  0  0  0
  -48.3245  -32.4751    2.1887 H   0  0  0  0  0  0  0  0  0  0  0  0
  -47.5916  -33.9670    1.5076 H   0  0  0  0  0  0  0  0  0  0  0  0
  -48.5068  -30.3970    3.1267 H   0  0  0  0  0  0  0  0  0  0  0  0
  -49.1674  -28.7467    3.3844 H   0  0  0  0  0  0  0  0  0  0  0  0
  -47.5677  -28.9608    2.5958 H   0  0  0  0  0  0  0  0  0  0  0  0
  -43.0907  -27.8020    3.0581 H   0  0  0  0  0  0  0  0  0  0  0  0
  -42.3624  -28.1843    1.4613 H   0  0  0  0  0  0  0  0  0  0  0  0
  -44.0567  -27.5956    1.5579 H   0  0  0  0  0  0  0  0  0  0  0  0
  -43.2797  -29.8422    0.0775 H   0  0  0  0  0  0  0  0  0  0  0  0
  -45.0427  -29.8497    0.4217 H   0  0  0  0  0  0  0  0  0  0  0  0
  -44.0795  -32.0643   -0.3711 H   0  0  0  0  0  0  0  0  0  0  0  0
  -43.1498  -32.1366    1.1641 H   0  0  0  0  0  0  0  0  0  0  0  0
  -43.0116  -30.2705    2.6603 H   0  0  0  0  0  0  0  0  0  0  0  0
  -49.2126  -29.0324    5.9851 H   0  0  0  0  0  0  0  0  0  0  0  0
  -45.4848  -30.5379    2.7849 H   0  0  0  0  0  0  0  0  0  0  0  0
  1 14  2  0  0  0  0
  1 15  1  0  0  0  0
  2  3  2  0  0  0  0
  2  4  1  0  0  0  0
  2  5  1  0  0  0  0
  3  9  1  0  0  0  0
  3 17  1  0  0  0  0
  4 14  1  0  0  0  0
  4 16  2  0  0  0  0
  5 15  2  0  0  0  0
  5 19  1  0  0  0  0
  6 18  1  0  0  0  0
  6 20  2  0  0  0  0
  6 21  1  0  0  0  0
  7  8  1  0  0  0  0
  7 18  1  0  0  0  0
  8 21  1  0  0  0  0
 10 13  1  0  0  0  0
 11 12  1  0  0  0  0
 11 13  1  0  0  0  0
 12 18  1  0  0  0  0
 13 19  1  0  0  0  0
 16 17  1  0  0  0  0
  1 22  1  0  0  0  0
  7 23  1  0  0  0  0
  7 24  1  0  0  0  0
  8 25  1  0  0  0  0
  8 26  1  0  0  0  0
  9 27  1  0  0  0  0
  9 28  1  0  0  0  0
  9 29  1  0  0  0  0
 10 30  1  0  0  0  0
 10 31  1  0  0  0  0
 10 32  1  0  0  0  0
 11 33  1  0  0  0  0
 11 34  1  0  0  0  0
 12 35  1  0  0  0  0
 12 36  1  0  0  0  0
 13 37  1  0  0  0  0
 17 38  1  0  0  0  0
 19 39  1  0  0  0  0
M  END
> <POSIT::Probability>
0.89

> <POSIT::Method>
SHAPEFIT

> <ReceptorTitle>
UCSF-P4553-REFINED_LIGAND-BOUND-STATE_A__DU__LA1_A-201(A)

> <OMEGA_C>
voAvwqgI7MF2iM1AHwA5wtEM68Hv26JAAU0+wsla6sFa85ZA88Y4whAl6sEsKdBAsCY0wktw7MFw
PIxAEvQ0wiwhA8IsbyxAV2A6wk2OAMKRJHI/IIQ9wk7jA8KqfvY/bABBwsHU6sEORVdAYCctwuqm
4cF3fANAVz4wwvK78cGZYEE/U0Uwwpga/sGxzS8/ESUvwppF7cEaLAtAOAk0wq+j6sFynuRA4Hwv
wtvp7MEyR6JAD6E9wuPl6MG6q99AM+FAwkML6cFBQ71AdOQ0woSAAcJYxa0/zB80woRd7cGxWz9A
QhYxwuF0A8IYV1xAyxc6wgROBMIey0RAqbsrwtF27MF6Ut5A0ww7wnnoAcJHsbK9rWw7woqX+MHx
54M/UkxBwojmAcIuFAxAzF0+wiveB8K6+cA/8gZCwiEt88EaHEhAc6tEwkr55cGxmVhAXEU+wr6v
58EwIiZA4FwswmZq3sGet0NAEHMpwl154cF2C7s/Fzowwt7D3MGraMc/aB4twuO87sFGzZ49tys0
wkHM7sHh6tc+cVEwwtZBAMLUBL6+Z5kswtWLAMKNApU/3AsswhEq8sHkQipAsdlEwmVC6MEZhr9A
ePA1woxN9MFAPDJA

> <OMEGA_E>
rDO1Pg==

> <OMEGA_NBR>
      3932

$$$$
CACHE3HI_1687_59
  -OEChem-03092622503D

 22 24  0     0  0  0  0  0  0999 V2000
  -43.3807  -30.3604    3.4770 C   0  0  0  0  0  0  0  0  0  0  0  0
  -42.1134  -29.7533    3.7092 C   0  0  0  0  0  0  0  0  0  0  0  0
  -48.7112  -28.8743    6.2193 C   0  0  0  0  0  0  0  0  0  0  0  0
  -47.3829  -29.3646    4.5584 C   0  0  0  0  0  0  0  0  0  0  0  0
  -43.9260  -29.8827    2.3048 C   0  0  0  0  0  0  0  0  0  0  0  0
  -48.5811  -29.3860    3.8702 C   0  0  0  0  0  0  0  0  0  0  0  0
  -47.6513  -29.8957    1.9225 C   0  0  0  0  0  0  0  0  0  0  0  0
  -46.1488  -29.6429    3.8524 C   0  0  0  0  0  0  0  0  0  0  0  0
  -45.2295  -30.2102    1.6347 C   0  0  0  0  0  0  0  0  0  0  0  0
  -41.6850  -28.8735    2.8076 N   0  0  0  0  0  0  0  0  0  0  0  0
  -47.4501  -29.0725    5.9017 N   0  0  0  0  0  0  0  0  0  0  0  0
  -48.7622  -29.6468    2.5502 N   0  0  0  0  0  0  0  0  0  0  0  0
  -46.3694  -29.9100    2.4862 N   0  0  0  0  0  0  0  0  0  0  0  0
  -45.0617  -29.6346    4.4196 O   0  0  0  0  0  0  0  0  0  0  0  0
  -49.8579  -29.0258    4.9472 S   0  0  0  0  0  0  0  0  0  0  0  0
  -42.8389  -28.7513    1.6179 S   0  0  0  0  0  0  0  0  0  0  0  0
  -43.8529  -31.0902    4.1211 H   0  0  0  0  0  0  0  0  0  0  0  0
  -41.4693  -29.9465    4.5563 H   0  0  0  0  0  0  0  0  0  0  0  0
  -49.0191  -28.6310    7.2269 H   0  0  0  0  0  0  0  0  0  0  0  0
  -47.6640  -30.1242    0.8445 H   0  0  0  0  0  0  0  0  0  0  0  0
  -45.3410  -29.6385    0.7074 H   0  0  0  0  0  0  0  0  0  0  0  0
  -45.2795  -31.2716    1.3705 H   0  0  0  0  0  0  0  0  0  0  0  0
  1  2  1  0  0  0  0
  1  5  2  0  0  0  0
  2 10  2  0  0  0  0
  3 11  2  0  0  0  0
  3 15  1  0  0  0  0
  4  6  2  0  0  0  0
  4  8  1  0  0  0  0
  4 11  1  0  0  0  0
  5  9  1  0  0  0  0
  5 16  1  0  0  0  0
  6 12  1  0  0  0  0
  6 15  1  0  0  0  0
  7 12  2  0  0  0  0
  7 13  1  0  0  0  0
  8 13  1  0  0  0  0
  8 14  2  0  0  0  0
  9 13  1  0  0  0  0
 10 16  1  0  0  0  0
  1 17  1  0  0  0  0
  2 18  1  0  0  0  0
  3 19  1  0  0  0  0
  7 20  1  0  0  0  0
  9 21  1  0  0  0  0
  9 22  1  0  0  0  0
M  END
> <POSIT::Probability>
0.24

> <POSIT::Method>
FRED

> <ReceptorTitle>
UCSF-P4553-REFINED_LIGAND-BOUND-STATE_A__DU__LA1_A-201(A)

> <OMEGA_C>
0YUtwhbi8sFshl5AFnQowrgG7sHkY21AT9hCwpT+5sE8BMdAG4g9wsfq6sF03pFAM7QvwrMP78FE
gRNABVNCwpsW68HQsHdA7Jo+wmgq78EgFPY/Vpg4wpAk7cHsjXZABes0wm6u8cFoPtE/cb0mwtb8
5sHgrzNA3sw9wmGU6MFs2rxAigxDwrIs7cEkNiNATXo5wr9H78G0HR9AND80wqcT7cEQbY1AfG5H
wt006MFqT55ACFsrwpwC5sG4Fs8/WWkvws+4+MHO34NAh+AlwleS78H8zJFAhBNEwkgM5cEMQ+dA
7ac+wk7+8MEQNFg/OF01wr4b7cEQFzU/Lx41wlIs+sH4bK8/

> <OMEGA_E>
jivcwA==

> <OMEGA_NBR>
      4859

$$$$
CACHE3HI_1694_28
  -OEChem-03092622503D

 40 42  0     0  0  0  0  0  0999 V2000
  -43.0860  -27.9802    0.0148 C   0  0  0  0  0  0  0  0  0  0  0  0
  -43.1674  -27.3376    1.2604 C   0  0  0  0  0  0  0  0  0  0  0  0
  -43.3577  -29.3547   -0.0912 C   0  0  0  0  0  0  0  0  0  0  0  0
  -43.5374  -28.0635    2.4000 C   0  0  0  0  0  0  0  0  0  0  0  0
  -48.3226  -29.0913    5.7871 C   0  0  0  0  0  0  0  0  0  0  0  0
  -43.6795  -30.1115    1.0524 C   0  0  0  0  0  0  0  0  0  0  0  0
  -43.7768  -29.4552    2.3122 C   0  0  0  0  0  0  0  0  0  0  0  0
  -45.6993  -29.3650    5.1015 C   0  0  0  0  0  0  0  0  0  0  0  0
  -46.0916  -29.1600    6.4437 C   0  0  0  0  0  0  0  0  0  0  0  0
  -47.9318  -29.2367    4.4378 C   0  0  0  0  0  0  0  0  0  0  0  0
  -45.1646  -32.8295    2.6320 C   0  0  0  0  0  0  0  0  0  0  0  0
  -47.2664  -32.6235    1.7343 C   0  0  0  0  0  0  0  0  0  0  0  0
  -46.3175  -31.8162    0.8824 C   0  0  0  0  0  0  0  0  0  0  0  0
  -43.7505  -31.6344    0.9000 C   0  0  0  0  0  0  0  0  0  0  0  0
  -44.2381  -29.6536    4.8088 C   0  0  0  0  0  0  0  0  0  0  0  0
  -47.3962  -29.0435    6.7686 N   0  0  0  0  0  0  0  0  0  0  0  0
  -46.6281  -29.3722    4.1133 N   0  0  0  0  0  0  0  0  0  0  0  0
  -46.5142  -32.8140    2.9621 N   0  0  0  0  0  0  0  0  0  0  0  0
  -45.0078  -32.2202    1.3803 N   0  0  0  0  0  0  0  0  0  0  0  0
  -45.1311  -29.0968    7.4468 N   0  0  0  0  0  0  0  0  0  0  0  0
  -44.0339  -30.1985    3.4555 N   0  0  0  0  0  0  0  0  0  0  0  0
  -44.2660  -33.2100    3.3740 O   0  0  0  0  0  0  0  0  0  0  0  0
  -49.2518  -29.2611    3.0629 Br  0  0  0  0  0  0  0  0  0  0  0  0
  -42.8137  -27.4160   -0.8649 H   0  0  0  0  0  0  0  0  0  0  0  0
  -42.9447  -26.2838    1.3401 H   0  0  0  0  0  0  0  0  0  0  0  0
  -43.3195  -29.8350   -1.0577 H   0  0  0  0  0  0  0  0  0  0  0  0
  -43.6404  -27.5588    3.3492 H   0  0  0  0  0  0  0  0  0  0  0  0
  -49.3709  -29.0177    6.0361 H   0  0  0  0  0  0  0  0  0  0  0  0
  -48.1983  -32.0702    1.9224 H   0  0  0  0  0  0  0  0  0  0  0  0
  -47.5018  -33.5878    1.2602 H   0  0  0  0  0  0  0  0  0  0  0  0
  -46.4307  -32.0673   -0.1826 H   0  0  0  0  0  0  0  0  0  0  0  0
  -46.4790  -30.7374    1.0239 H   0  0  0  0  0  0  0  0  0  0  0  0
  -43.6376  -31.8818   -0.1658 H   0  0  0  0  0  0  0  0  0  0  0  0
  -42.9210  -32.0789    1.4695 H   0  0  0  0  0  0  0  0  0  0  0  0
  -43.6674  -28.7180    4.9028 H   0  0  0  0  0  0  0  0  0  0  0  0
  -43.8683  -30.3841    5.5434 H   0  0  0  0  0  0  0  0  0  0  0  0
  -46.8985  -32.9157    3.8797 H   0  0  0  0  0  0  0  0  0  0  0  0
  -45.5797  -28.9641    8.3306 H   0  0  0  0  0  0  0  0  0  0  0  0
  -44.6092  -29.9496    7.4626 H   0  0  0  0  0  0  0  0  0  0  0  0
  -44.8652  -30.7156    3.2518 H   0  0  0  0  0  0  0  0  0  0  0  0
  1  2  1  0  0  0  0
  1  3  2  0  0  0  0
  2  4  2  0  0  0  0
  3  6  1  0  0  0  0
  4  7  1  0  0  0  0
  5 10  2  0  0  0  0
  5 16  1  0  0  0  0
  6  7  2  0  0  0  0
  6 14  1  0  0  0  0
  7 21  1  0  0  0  0
  8  9  1  0  0  0  0
  8 15  1  0  0  0  0
  8 17  2  0  0  0  0
  9 16  2  0  0  0  0
  9 20  1  0  0  0  0
 10 17  1  0  0  0  0
 10 23  1  0  0  0  0
 11 18  1  0  0  0  0
 11 19  1  0  0  0  0
 11 22  2  0  0  0  0
 12 13  1  0  0  0  0
 12 18  1  0  0  0  0
 13 19  1  0  0  0  0
 14 19  1  0  0  0  0
 15 21  1  0  0  0  0
  1 24  1  0  0  0  0
  2 25  1  0  0  0  0
  3 26  1  0  0  0  0
  4 27  1  0  0  0  0
  5 28  1  0  0  0  0
 12 29  1  0  0  0  0
 12 30  1  0  0  0  0
 13 31  1  0  0  0  0
 13 32  1  0  0  0  0
 14 33  1  0  0  0  0
 14 34  1  0  0  0  0
 15 35  1  0  0  0  0
 15 36  1  0  0  0  0
 18 37  1  0  0  0  0
 20 38  1  0  0  0  0
 20 39  1  0  0  0  0
 21 40  1  0  0  0  0
M  END
> <POSIT::Probability>
0.72

> <POSIT::Method>
SHAPEFIT

> <ReceptorTitle>
UCSF-P4553-REFINED_LIGAND-BOUND-STATE_A__DU__LA1_A-201(A)

> <OMEGA_C>
FFgswlzX38GAGHM8Yasswmyz2sHqVaE/SG4twmnW6sEQvrq9VCYuwgGC4MEnmRlAVUpBwgG76MEz
MLlAz7cuwlHk8ME0toY/ahsvwjmk68GD+hNAHcw2wm3r6sEkP6NAzF04wp9H6cGlMs5AL7o/wsPk
6cGOAo5Akag0wmZRA8JQcyhAyBA9wnF+AsKM/d0/IUU5wpOH/sEZ5GE/jQAvwjkT/cFpZmY/2/Mw
wp067cHt4ZlAwZU9widZ6MFJmNhALYM6wjf66sFvoINAkQ46woNBA8IKkz1A/Ac0wofhAMK4rbA/
RoY0winG6MHJS+5AvCIwwpGW8cEuJ11AYRAxwhTXBMJT8FdA1gFFwtUW6sHyBURANEErwgFU28GX
a12/VccrwkZF0sEeiKs/H0ctwh+u7sHfY4e/0I8uwnB43MHVWVZA0XtFwlAk6MECKMFAF8tAwudH
AMKNEfY/zAE+wuBZBsIeT6E//rg5wvNEAMIh8zq+guo5whvm9cEaDoM/7Iwuwu4N/8FQ1Cm+I68r
wtBQAMIXGLw/bqsuwmq+5cEk5JxAIHkvwqsS88F5Y7FAB5g7wqKpA8JJTXhAplE2wpS258EWSgVB
3W8ywtaY78GTze5ABHYzwpa59cFyHVBA

> <OMEGA_E>
TnNjPw==

> <OMEGA_NBR>
      6176

$$$$
CACHE3HI_1694_73
  -OEChem-03092622503D

 40 42  0     0  0  0  0  0  0999 V2000
  -46.2050  -33.7835    1.0070 C   0  0  0  0  0  0  0  0  0  0  0  0
  -45.1854  -33.3526    0.1583 C   0  0  0  0  0  0  0  0  0  0  0  0
  -48.8283  -29.5858    3.8671 C   0  0  0  0  0  0  0  0  0  0  0  0
  -46.7504  -32.9049    1.9431 C   0  0  0  0  0  0  0  0  0  0  0  0
  -48.2320  -30.4372    2.9369 C   0  0  0  0  0  0  0  0  0  0  0  0
  -48.0575  -29.0040    4.8735 C   0  0  0  0  0  0  0  0  0  0  0  0
  -44.7114  -32.0435    0.2453 C   0  0  0  0  0  0  0  0  0  0  0  0
  -46.8654  -30.7065    3.0128 C   0  0  0  0  0  0  0  0  0  0  0  0
  -46.2764  -31.5958    2.0301 C   0  0  0  0  0  0  0  0  0  0  0  0
  -46.0946  -30.1247    4.0193 C   0  0  0  0  0  0  0  0  0  0  0  0
  -46.6909  -29.2733    4.9494 C   0  0  0  0  0  0  0  0  0  0  0  0
  -45.2568  -31.1649    1.1814 C   0  0  0  0  0  0  0  0  0  0  0  0
  -45.4378  -28.6838    1.6212 C   0  0  0  0  0  0  0  0  0  0  0  0
  -44.6619  -30.3959    4.1113 C   0  0  0  0  0  0  0  0  0  0  0  0
  -43.4209  -29.4911    0.8253 C   0  0  0  0  0  0  0  0  0  0  0  0
  -43.2614  -28.0648    1.2835 C   0  0  0  0  0  0  0  0  0  0  0  0
  -45.8933  -28.6328    6.0390 C   0  0  0  0  0  0  0  0  0  0  0  0
  -42.5087  -29.3836    4.0730 C   0  0  0  0  0  0  0  0  0  0  0  0
  -44.7510  -29.8342    1.2457 N   0  0  0  0  0  0  0  0  0  0  0  0
  -46.6067  -28.5516    1.9566 O   0  0  0  0  0  0  0  0  0  0  0  0
  -44.1780  -31.5199    4.2718 O   0  0  0  0  0  0  0  0  0  0  0  0
  -44.5903  -27.6030    1.5459 O   0  0  0  0  0  0  0  0  0  0  0  0
  -43.9316  -29.2474    3.9976 O   0  0  0  0  0  0  0  0  0  0  0  0
  -46.5741  -34.8028    0.9402 H   0  0  0  0  0  0  0  0  0  0  0  0
  -44.7613  -34.0367   -0.5710 H   0  0  0  0  0  0  0  0  0  0  0  0
  -49.8923  -29.3761    3.8077 H   0  0  0  0  0  0  0  0  0  0  0  0
  -47.5441  -33.2569    2.5978 H   0  0  0  0  0  0  0  0  0  0  0  0
  -48.8471  -30.8820    2.1581 H   0  0  0  0  0  0  0  0  0  0  0  0
  -48.5314  -28.3415    5.5933 H   0  0  0  0  0  0  0  0  0  0  0  0
  -43.9164  -31.7206   -0.4222 H   0  0  0  0  0  0  0  0  0  0  0  0
  -43.3733  -29.5662   -0.2673 H   0  0  0  0  0  0  0  0  0  0  0  0
  -42.6753  -30.1614    1.2651 H   0  0  0  0  0  0  0  0  0  0  0  0
  -42.6815  -27.9902    2.2088 H   0  0  0  0  0  0  0  0  0  0  0  0
  -42.8024  -27.4333    0.5176 H   0  0  0  0  0  0  0  0  0  0  0  0
  -45.8733  -29.2619    6.9372 H   0  0  0  0  0  0  0  0  0  0  0  0
  -46.3274  -27.6691    6.3324 H   0  0  0  0  0  0  0  0  0  0  0  0
  -44.8627  -28.4655    5.7058 H   0  0  0  0  0  0  0  0  0  0  0  0
  -42.0414  -28.4009    3.9693 H   0  0  0  0  0  0  0  0  0  0  0  0
  -42.2431  -29.8103    5.0432 H   0  0  0  0  0  0  0  0  0  0  0  0
  -42.1629  -30.0488    3.2784 H   0  0  0  0  0  0  0  0  0  0  0  0
  1  2  1  0  0  0  0
  1  4  2  0  0  0  0
  2  7  2  0  0  0  0
  3  5  1  0  0  0  0
  3  6  2  0  0  0  0
  4  9  1  0  0  0  0
  5  8  2  0  0  0  0
  6 11  1  0  0  0  0
  7 12  1  0  0  0  0
  8  9  1  0  0  0  0
  8 10  1  0  0  0  0
  9 12  2  0  0  0  0
 10 11  2  0  0  0  0
 10 14  1  0  0  0  0
 11 17  1  0  0  0  0
 12 19  1  0  0  0  0
 13 19  1  0  0  0  0
 13 20  2  0  0  0  0
 13 22  1  0  0  0  0
 14 21  2  0  0  0  0
 14 23  1  0  0  0  0
 15 16  1  0  0  0  0
 15 19  1  0  0  0  0
 16 22  1  0  0  0  0
 18 23  1  0  0  0  0
  1 24  1  0  0  0  0
  2 25  1  0  0  0  0
  3 26  1  0  0  0  0
  4 27  1  0  0  0  0
  5 28  1  0  0  0  0
  6 29  1  0  0  0  0
  7 30  1  0  0  0  0
 15 31  1  0  0  0  0
 15 32  1  0  0  0  0
 16 33  1  0  0  0  0
 16 34  1  0  0  0  0
 17 35  1  0  0  0  0
 17 36  1  0  0  0  0
 17 37  1  0  0  0  0
 18 38  1  0  0  0  0
 18 39  1  0  0  0  0
 18 40  1  0  0  0  0
M  END
> <POSIT::Probability>
0.18

> <POSIT::Method>
FRED

> <ReceptorTitle>
UCSF-P4553-REFINED_LIGAND-BOUND-STATE_A__DU__LA1_A-201(A)

> <OMEGA_C>
9dE4wkIiB8Ko5oA/1L00whFpBcIgFyI+JFBDwquv7MH8fndAaAA7wpyeA8Jotvg/nO1Awlx/88EP
9jtA4DpAwhwI6MHu85tAcNgywo0sAMLgLns+LHY7wvWm9cHQ0UBAAxs5wjDE/MGs7AFA52A4wlL/
8MHAnYBAcMM6wrYv6sHPYZ5A7AY1wsVR+cEUN5c/W8A1wnh45cE4gs8/xKUywroq88Hqj4NA/K4t
wrzt68FYSFM/pgstws6E4MFUSaQ/s5I3wvAP5cF/P8FA4QgqwpIR68FEVoJADAEzwlis7sFoc58/
OG06wrhp5MHscPo/TbYwwtco/MFXsohAdlwywvzS3ME04cU//bkvwrT66cEQ2X9A3Us6wgk2C8IQ
tHA/kAszwpwlCMJYKxK/spFHwkIC68EPsnNAMC0+wggHBcKTQiZAa2NDwlgO98HyHgpAGyBCwmi7
4sGr/LJAW6ovwsrD/cFALdi+Rn4twpyH7MGA4Ii+frMqwpRK8cFQ76E/3Lkqwvbr38EUXQ1AsjUr
wmB328EwgAQ/OH43wk0Y6sGL/d1ARE85wkFa3cGnospAaXMzwm6548FClrZAYCoowvw048GqCH5A
8Pgownh77sE1YqFA0qYowt5j8MHL0VFA

> <OMEGA_E>
2OTnwA==

> <OMEGA_NBR>
      7465

$$$$
CACHE3HI_1694_83
  -OEChem-03092622503D

 39 42  0     0  0  0  0  0  0999 V2000
  -44.6288  -33.0781    0.5045 C   0  0  0  0  0  0  0  0  0  0  0  0
  -43.6967  -32.3967   -0.2781 C   0  0  0  0  0  0  0  0  0  0  0  0
  -48.2521  -29.1708    2.8799 C   0  0  0  0  0  0  0  0  0  0  0  0
  -45.4302  -32.3752    1.4041 C   0  0  0  0  0  0  0  0  0  0  0  0
  -47.3807  -29.8203    2.0058 C   0  0  0  0  0  0  0  0  0  0  0  0
  -43.5662  -31.0127   -0.1615 C   0  0  0  0  0  0  0  0  0  0  0  0
  -47.8934  -28.9833    4.2145 C   0  0  0  0  0  0  0  0  0  0  0  0
  -46.1491  -30.2892    2.4643 C   0  0  0  0  0  0  0  0  0  0  0  0
  -45.2997  -30.9912    1.5206 C   0  0  0  0  0  0  0  0  0  0  0  0
  -45.7739  -30.0939    3.7981 C   0  0  0  0  0  0  0  0  0  0  0  0
  -44.3676  -30.3098    0.7380 C   0  0  0  0  0  0  0  0  0  0  0  0
  -46.6520  -29.4357    4.6685 C   0  0  0  0  0  0  0  0  0  0  0  0
  -45.0447  -29.5235    6.5290 C   0  0  0  0  0  0  0  0  0  0  0  0
  -43.3552  -28.1945    1.6776 C   0  0  0  0  0  0  0  0  0  0  0  0
  -44.4977  -30.6719    4.3385 C   0  0  0  0  0  0  0  0  0  0  0  0
  -43.9759  -29.8410    5.5009 C   0  0  0  0  0  0  0  0  0  0  0  0
  -45.0232  -27.9757    0.0892 C   0  0  0  0  0  0  0  0  0  0  0  0
  -44.3587  -26.6447    0.3266 C   0  0  0  0  0  0  0  0  0  0  0  0
  -46.2999  -29.2513    6.0176 N   0  0  0  0  0  0  0  0  0  0  0  0
  -44.2104  -28.8967    0.8340 N   0  0  0  0  0  0  0  0  0  0  0  0
  -44.7733  -29.4258    7.7244 O   0  0  0  0  0  0  0  0  0  0  0  0
  -42.5756  -28.6170    2.5201 O   0  0  0  0  0  0  0  0  0  0  0  0
  -43.5099  -26.8449    1.4614 O   0  0  0  0  0  0  0  0  0  0  0  0
  -44.7305  -34.1557    0.4147 H   0  0  0  0  0  0  0  0  0  0  0  0
  -43.0732  -32.9442   -0.9790 H   0  0  0  0  0  0  0  0  0  0  0  0
  -49.2139  -28.8146    2.5221 H   0  0  0  0  0  0  0  0  0  0  0  0
  -46.1514  -32.9216    2.0074 H   0  0  0  0  0  0  0  0  0  0  0  0
  -47.6840  -29.9627    0.9710 H   0  0  0  0  0  0  0  0  0  0  0  0
  -42.8359  -30.4939   -0.7775 H   0  0  0  0  0  0  0  0  0  0  0  0
  -48.5835  -28.4803    4.8867 H   0  0  0  0  0  0  0  0  0  0  0  0
  -44.6981  -31.6971    4.6736 H   0  0  0  0  0  0  0  0  0  0  0  0
  -43.7136  -30.7141    3.5751 H   0  0  0  0  0  0  0  0  0  0  0  0
  -43.5837  -28.8828    5.1378 H   0  0  0  0  0  0  0  0  0  0  0  0
  -43.1555  -30.3728    5.9954 H   0  0  0  0  0  0  0  0  0  0  0  0
  -46.0372  -27.9946    0.5054 H   0  0  0  0  0  0  0  0  0  0  0  0
  -45.0643  -28.2434   -0.9716 H   0  0  0  0  0  0  0  0  0  0  0  0
  -43.7362  -26.3366   -0.5193 H   0  0  0  0  0  0  0  0  0  0  0  0
  -45.0820  -25.8552    0.5494 H   0  0  0  0  0  0  0  0  0  0  0  0
  -47.0092  -28.8975    6.6532 H   0  0  0  0  0  0  0  0  0  0  0  0
  1  2  1  0  0  0  0
  1  4  2  0  0  0  0
  2  6  2  0  0  0  0
  3  5  2  0  0  0  0
  3  7  1  0  0  0  0
  4  9  1  0  0  0  0
  5  8  1  0  0  0  0
  6 11  1  0  0  0  0
  7 12  2  0  0  0  0
  8  9  1  0  0  0  0
  8 10  2  0  0  0  0
  9 11  2  0  0  0  0
 10 12  1  0  0  0  0
 10 15  1  0  0  0  0
 11 20  1  0  0  0  0
 12 19  1  0  0  0  0
 13 16  1  0  0  0  0
 13 19  1  0  0  0  0
 13 21  2  0  0  0  0
 14 20  1  0  0  0  0
 14 22  2  0  0  0  0
 14 23  1  0  0  0  0
 15 16  1  0  0  0  0
 17 18  1  0  0  0  0
 17 20  1  0  0  0  0
 18 23  1  0  0  0  0
  1 24  1  0  0  0  0
  2 25  1  0  0  0  0
  3 26  1  0  0  0  0
  4 27  1  0  0  0  0
  5 28  1  0  0  0  0
  6 29  1  0  0  0  0
  7 30  1  0  0  0  0
 15 31  1  0  0  0  0
 15 32  1  0  0  0  0
 16 33  1  0  0  0  0
 16 34  1  0  0  0  0
 17 35  1  0  0  0  0
 17 36  1  0  0  0  0
 18 37  1  0  0  0  0
 18 38  1  0  0  0  0
 19 39  1  0  0  0  0
M  END
> <POSIT::Probability>
0.18

> <POSIT::Method>
FRED

> <ReceptorTitle>
UCSF-P4553-REFINED_LIGAND-BOUND-STATE_A__DU__LA1_A-201(A)

> <OMEGA_C>
7oMywvxPBMIgKgE/dMkuwjKWAcLQYY6+LgJBwsFd6cFwUDhAkrg1wjaAAcJIuLM/3oU9wuWP7sG8
XwBAyUMuwgUa+MFgYiW+1JI/wuHd58FK3YZAppg4wltQ8sFWth1A5zI1wg/u98F8pMI/eBg3wk3A
8MHqE3NAd3gxwnZ68sHQ8Dw/o5s6wjp868GIZJVAzy00whQw7MGP7dBAwGstwm2O4cFQvNY/qv0x
wvVf9cE/1YpAVecvwnK67sGTB7BAvxc0wifO38FApLY9RG8xwkko1cHQOqc+IzM5wqMC6sFVkMBA
b9cwwmAs58EIglU/1xczwg5o68EVLvdAYE0qwrfv5MHKSCFAGQouwmzC1sHgDbs/CewywnefCMIQ
V9Q+/koswtDGA8IAnXq/BdtEwl6E5sH8aSFAAZs4wsSvA8KgeABAZLw+wpSz78Ewkng/9VcrwpPz
88EQCEe/d1VCwrnX48EuYJxA4coywsKT/cEVjpVAudouwoG29cEszmRArVUuwvwP58HdaKRAR58s
wnn78sF22r9AHiY4wtn038GgXgE/2kE0wpXy4cFQu3i/3PEuwkSx0sFw8gS/71M0wmjXzsEYpgw/
dgk8wisu58Fg59RA

> <OMEGA_E>
HCQAwQ==

> <OMEGA_NBR>
      8737

$$$$
CACHE3HI_1696_16
  -OEChem-03092622503D

 36 39  0     1  0  0  0  0  0999 V2000
  -48.6917  -28.8355    5.7498 C   0  0  0  0  0  0  0  0  0  0  0  0
  -44.3486  -29.6372    5.9232 C   0  0  0  0  0  0  0  0  0  0  0  0
  -46.7155  -29.2787    4.7562 C   0  0  0  0  0  0  0  0  0  0  0  0
  -48.0938  -29.0375    4.5240 C   0  0  0  0  0  0  0  0  0  0  0  0
  -46.5187  -29.2151    6.1301 C   0  0  0  0  0  0  0  0  0  0  0  0
  -45.5916  -29.5471    3.9758 C   0  0  0  0  0  0  0  0  0  0  0  0
  -44.1272  -32.5446   -0.0890 C   0  0  0  0  0  0  0  0  0  0  0  0
  -45.5259  -32.7977    0.4843 C   0  0  0  0  0  0  0  0  0  0  0  0
  -43.1755  -31.9541    0.9441 C   0  0  0  0  0  0  0  0  0  0  0  0
  -45.8369  -31.9634    1.7317 C   0  0  0  0  0  0  0  0  0  0  0  0
  -43.6708  -30.6104    1.4902 C   0  0  0  0  0  0  0  0  0  0  0  0
  -45.9083  -29.6986    0.5319 C   0  0  0  0  0  0  0  0  0  0  0  0
  -46.0857  -28.6516    1.6257 C   0  0  0  0  0  0  0  0  0  0  0  0
  -45.2022  -30.5811    1.5967 C   0  0  0  0  0  0  0  0  0  0  0  0
  -45.3563  -29.3855    6.7836 N   0  0  0  0  0  0  0  0  0  0  0  0
  -44.3923  -29.7279    4.5750 N   0  0  0  0  0  0  0  0  0  0  0  0
  -47.7263  -28.9459    6.7176 N   0  0  0  0  0  0  0  0  0  0  0  0
  -45.6702  -29.6347    2.5729 N   0  0  3  0  0  0  0  0  0  0  0  0
  -48.9651  -28.9959    2.8655 Br  0  0  0  0  0  0  0  0  0  0  0  0
  -49.7157  -28.6232    6.0240 H   0  0  0  0  0  0  0  0  0  0  0  0
  -43.3727  -29.7884    6.3720 H   0  0  0  0  0  0  0  0  0  0  0  0
  -43.7156  -33.4904   -0.4715 H   0  0  0  0  0  0  0  0  0  0  0  0
  -44.2049  -31.8661   -0.9502 H   0  0  0  0  0  0  0  0  0  0  0  0
  -46.2770  -32.5906   -0.2989 H   0  0  0  0  0  0  0  0  0  0  0  0
  -45.6323  -33.8697    0.7263 H   0  0  0  0  0  0  0  0  0  0  0  0
  -43.0491  -32.6605    1.7774 H   0  0  0  0  0  0  0  0  0  0  0  0
  -42.1811  -31.8258    0.4903 H   0  0  0  0  0  0  0  0  0  0  0  0
  -46.9239  -31.8980    1.8616 H   0  0  0  0  0  0  0  0  0  0  0  0
  -45.4385  -32.4825    2.6125 H   0  0  0  0  0  0  0  0  0  0  0  0
  -43.2233  -30.4382    2.4843 H   0  0  0  0  0  0  0  0  0  0  0  0
  -43.3016  -29.7951    0.8451 H   0  0  0  0  0  0  0  0  0  0  0  0
  -46.8471  -30.0891    0.1319 H   0  0  0  0  0  0  0  0  0  0  0  0
  -45.2831  -29.3654   -0.3005 H   0  0  0  0  0  0  0  0  0  0  0  0
  -45.4051  -27.8006    1.5794 H   0  0  0  0  0  0  0  0  0  0  0  0
  -47.1140  -28.3209    1.7826 H   0  0  0  0  0  0  0  0  0  0  0  0
  -47.8815  -28.8438    7.7110 H   0  0  0  0  0  0  0  0  0  0  0  0
  1  4  2  0  0  0  0
  1 17  1  0  0  0  0
  2 15  1  0  0  0  0
  2 16  2  0  0  0  0
  3  4  1  0  0  0  0
  3  5  1  0  0  0  0
  3  6  2  0  0  0  0
  4 19  1  0  0  0  0
  5 15  2  0  0  0  0
  5 17  1  0  0  0  0
  6 16  1  0  0  0  0
  6 18  1  0  0  0  0
  7  8  1  0  0  0  0
  7  9  1  0  0  0  0
  8 10  1  0  0  0  0
  9 11  1  0  0  0  0
 10 14  1  0  0  0  0
 11 14  1  0  0  0  0
 12 13  1  0  0  0  0
 12 14  1  0  0  0  0
 13 18  1  0  0  0  0
 14 18  1  0  0  0  0
  1 20  1  0  0  0  0
  2 21  1  0  0  0  0
  7 22  1  0  0  0  0
  7 23  1  0  0  0  0
  8 24  1  0  0  0  0
  8 25  1  0  0  0  0
  9 26  1  0  0  0  0
  9 27  1  0  0  0  0
 10 28  1  0  0  0  0
 10 29  1  0  0  0  0
 11 30  1  0  0  0  0
 11 31  1  0  0  0  0
 12 32  1  0  0  0  0
 12 33  1  0  0  0  0
 13 34  1  0  0  0  0
 13 35  1  0  0  0  0
 17 36  1  0  0  0  0
M  END
> <POSIT::Probability>
0.5

> <POSIT::Method>
HYBRID

> <ReceptorTitle>
UCSF-P4553-REFINED_LIGAND-BOUND-STATE_A__DU__LA1_A-201(A)

> <OMEGA_C>
QcRCwiav5sGa/rdA8GQxwgYZ7cHmir1ApNw6wuA66sHaMphADGBAwtlM6MGuxJBAJhM6wpK46cHI
KcRA1F02wnNg7MGwc35ASoIwwp8tAsIAQba9gBo2wuQwA8KA8vc+tbMswveh/8Fws3E/+Fg3wvq0
/8F4p90/5q4uwhvi9MGQvr4/D6I3wseW7cEAKQg/y1c4wnM25cFYFtA/Gs80wium9MFwX8w/2Ww1
wpAV68E4E9lArZExwqjS7cEkZpJAx+c+wh+R58GI9tZAUK42wusT7cH0qSRAONxDwov358EkZTdA
7NxGwlz85MHWxMBAp30twrxO7sFI58tAvtwuwjj2BcIgZPG+ytEwwsbt/sGwQHO/sBs5wr1cAsIA
CZm+hoc2wpN6B8Jg7jk/RTIswlKkAsLQgOM/b7kowiab/sEgDfs+DLI7wgYv/8GwSe4/DsE1wiHu
AcJ4MidAnuQswnaB88Gc/h5A3TQtwkZc7sGgV1g/cGM7wpK28MGAEwc+5iE1wkzs6sHA3pm+2p41
wp1n3sFoK8o/uHQ8wh6R4sEQLeQ/p4Y/wgLA5sEqwPZA

> <OMEGA_E>
07AywQ==

> <OMEGA_NBR>
      9963

$$$$
CACHE3HI_1696_24
  -OEChem-03092622503D

 35 36  0     1  0  0  0  0  0999 V2000
  -48.4273  -29.1429    5.7518 C   0  0  0  0  0  0  0  0  0  0  0  0
  -43.9328  -29.4433    6.3970 C   0  0  0  0  0  0  0  0  0  0  0  0
  -46.2731  -29.3395    5.0187 C   0  0  0  0  0  0  0  0  0  0  0  0
  -47.6736  -29.2146    4.6039 C   0  0  0  0  0  0  0  0  0  0  0  0
  -46.2534  -29.2606    6.4147 C   0  0  0  0  0  0  0  0  0  0  0  0
  -45.0571  -29.5386    4.3365 C   0  0  0  0  0  0  0  0  0  0  0  0
  -43.5930  -27.5521    1.7397 C   0  0  0  0  0  0  0  0  0  0  0  0
  -42.8497  -28.8389    2.1474 C   0  0  0  0  0  0  0  0  0  0  0  0
  -44.0741  -30.5959    0.7844 C   0  0  0  0  0  0  0  0  0  0  0  0
  -46.1709  -31.8295    0.9004 C   0  0  0  0  0  0  0  0  0  0  0  0
  -43.7793  -30.0788    2.2154 C   0  0  2  0  0  0  0  0  0  0  0  0
  -46.6748  -32.6965    2.0680 C   0  0  0  0  0  0  0  0  0  0  0  0
  -45.0883  -29.3068    7.0914 N   0  0  0  0  0  0  0  0  0  0  0  0
  -43.9040  -29.5850    5.0486 N   0  0  0  0  0  0  0  0  0  0  0  0
  -47.5672  -29.1766    6.8466 N   0  0  0  0  0  0  0  0  0  0  0  0
  -45.0367  -29.7508    2.9568 N   0  0  0  0  0  0  0  0  0  0  0  0
  -44.7282  -31.8858    0.8055 O   0  0  0  0  0  0  0  0  0  0  0  0
  -46.8918  -33.9619    1.6304 F   0  0  0  0  0  0  0  0  0  0  0  0
  -47.8440  -32.1873    2.5273 F   0  0  0  0  0  0  0  0  0  0  0  0
  -45.7701  -32.7228    3.0857 F   0  0  0  0  0  0  0  0  0  0  0  0
  -48.3579  -29.1036    2.8251 Br  0  0  0  0  0  0  0  0  0  0  0  0
  -49.5041  -29.0725    5.7968 H   0  0  0  0  0  0  0  0  0  0  0  0
  -42.9984  -29.4392    6.9385 H   0  0  0  0  0  0  0  0  0  0  0  0
  -42.8835  -26.7121    1.7093 H   0  0  0  0  0  0  0  0  0  0  0  0
  -44.0428  -27.6881    0.7451 H   0  0  0  0  0  0  0  0  0  0  0  0
  -44.3839  -27.3375    2.4735 H   0  0  0  0  0  0  0  0  0  0  0  0
  -42.0572  -29.0347    1.4101 H   0  0  0  0  0  0  0  0  0  0  0  0
  -42.3983  -28.6841    3.1385 H   0  0  0  0  0  0  0  0  0  0  0  0
  -44.7266  -29.8737    0.2719 H   0  0  0  0  0  0  0  0  0  0  0  0
  -43.1251  -30.6864    0.2356 H   0  0  0  0  0  0  0  0  0  0  0  0
  -46.6090  -32.1988   -0.0385 H   0  0  0  0  0  0  0  0  0  0  0  0
  -46.4813  -30.7871    1.0649 H   0  0  0  0  0  0  0  0  0  0  0  0
  -43.2468  -30.8724    2.7601 H   0  0  0  0  0  0  0  0  0  0  0  0
  -47.8554  -29.1448    7.8036 H   0  0  0  0  0  0  0  0  0  0  0  0
  -45.6679  -30.5064    2.7821 H   0  0  0  0  0  0  0  0  0  0  0  0
  1  4  2  0  0  0  0
  1 15  1  0  0  0  0
  2 13  2  0  0  0  0
  2 14  1  0  0  0  0
  3  4  1  0  0  0  0
  3  5  2  0  0  0  0
  3  6  1  0  0  0  0
  4 21  1  0  0  0  0
  5 13  1  0  0  0  0
  5 15  1  0  0  0  0
  6 14  2  0  0  0  0
  6 16  1  0  0  0  0
  7  8  1  0  0  0  0
  8 11  1  0  0  0  0
  9 11  1  0  0  0  0
  9 17  1  0  0  0  0
 10 12  1  0  0  0  0
 10 17  1  0  0  0  0
 11 16  1  0  0  0  0
 12 18  1  0  0  0  0
 12 19  1  0  0  0  0
 12 20  1  0  0  0  0
  1 22  1  0  0  0  0
  2 23  1  0  0  0  0
  7 24  1  0  0  0  0
  7 25  1  0  0  0  0
  7 26  1  0  0  0  0
  8 27  1  0  0  0  0
  8 28  1  0  0  0  0
  9 29  1  0  0  0  0
  9 30  1  0  0  0  0
 10 31  1  0  0  0  0
 10 32  1  0  0  0  0
 11 33  1  0  0  0  0
 15 34  1  0  0  0  0
 16 35  1  0  0  0  0
M  END
> <POSIT::Probability>
0.9

> <POSIT::Method>
SHAPEFIT

> <ReceptorTitle>
UCSF-P4553-REFINED_LIGAND-BOUND-STATE_A__DU__LA1_A-201(A)

> <OMEGA_C>
krVBwrwk6cHaDrhANrsvwvCL68E5tMxAnxc5wji36sHOmKBAuLE+wny36cEYU5NAfgM5wswV6sF5
Rc1AdDo0wvpO7MFfxIpARV8uwrZq3MEFrt4/DmYrwhC25sE+bwlA5EswwlrE9MEuz0g/A684wt6i
/sHWg2Y/+h0vwnCh8MHWyQ1AArM6wi/JAsJRWQRAblo0wlh06sG37OJAuJ0vwv6t7MEqjqFAxUQ+
wqhp6cFjF9tAjiU0wpoB7sG4PD1AtukywggW/8EGM04/KZE7wgHZB8L5sNA/RWA/wtG/AMLUviFA
mRQ3whzkAsJVe0VAgW5BwkDU6MG8zTRALQRGwnSU6METf7lAVf4rwneD68HmB95AsYgrwl2y1cGv
y9o/zyswwkWB3cH3vT4/IYkxwkWz2sGvTR5AiDoowhtH6MEFf7Q/2pcpwht55cG03UhADugywkv9
7sHoNYs+HoAswsl99cEGPnE+om86wprLAMLnzx295uw5wgdM9sEoTYg/uPwswsH69sF1pTBA52s/
wnwo6cFvt/lA9as2wisN9MGfDjJA

> <OMEGA_E>
ODbzPg==

> <OMEGA_NBR>
     11182

$$$$
CACHE3HI_1696_26
  -OEChem-03092622503D

 39 41  0     1  0  0  0  0  0999 V2000
  -45.7499  -31.7170    0.3127 C   0  0  0  0  0  0  0  0  0  0  0  0
  -43.5072  -30.8910    0.6671 C   0  0  0  0  0  0  0  0  0  0  0  0
  -45.2412  -32.7699   -0.4478 C   0  0  0  0  0  0  0  0  0  0  0  0
  -42.9985  -31.9438   -0.0933 C   0  0  0  0  0  0  0  0  0  0  0  0
  -44.5616  -29.9063    5.9214 C   0  0  0  0  0  0  0  0  0  0  0  0
  -44.8827  -30.7776    0.8702 C   0  0  0  0  0  0  0  0  0  0  0  0
  -46.8979  -29.1521    4.8747 C   0  0  0  0  0  0  0  0  0  0  0  0
  -43.8657  -32.8833   -0.6509 C   0  0  0  0  0  0  0  0  0  0  0  0
  -46.5838  -28.8539    6.1972 C   0  0  0  0  0  0  0  0  0  0  0  0
  -45.9471  -29.8234    4.1300 C   0  0  0  0  0  0  0  0  0  0  0  0
  -48.6126  -27.5318    6.2979 C   0  0  0  0  0  0  0  0  0  0  0  0
  -49.1057  -28.4765    5.2108 C   0  0  0  0  0  0  0  0  0  0  0  0
  -44.3305  -28.7121    2.2075 C   0  0  0  0  0  0  0  0  0  0  0  0
  -44.4446  -35.5294   -1.3159 C   0  0  0  0  0  0  0  0  0  0  0  0
  -45.4338  -29.6359    1.6958 C   0  0  2  0  0  0  0  0  0  0  0  0
  -45.4069  -29.2446    6.7380 N   0  0  0  0  0  0  0  0  0  0  0  0
  -44.7617  -30.2193    4.6294 N   0  0  0  0  0  0  0  0  0  0  0  0
  -47.4896  -28.1409    6.9709 N   0  0  0  0  0  0  0  0  0  0  0  0
  -46.2323  -30.1196    2.7749 N   0  0  0  0  0  0  0  0  0  0  0  0
  -48.0702  -28.7945    4.2713 O   0  0  0  0  0  0  0  0  0  0  0  0
  -43.2165  -34.2285   -1.6231 S   0  0  0  0  0  0  0  0  0  0  0  0
  -46.8228  -31.6375    0.4667 H   0  0  0  0  0  0  0  0  0  0  0  0
  -42.8241  -30.1643    1.0986 H   0  0  0  0  0  0  0  0  0  0  0  0
  -45.9322  -33.4938   -0.8733 H   0  0  0  0  0  0  0  0  0  0  0  0
  -41.9236  -32.0144   -0.2412 H   0  0  0  0  0  0  0  0  0  0  0  0
  -43.6184  -30.2166    6.3545 H   0  0  0  0  0  0  0  0  0  0  0  0
  -48.2903  -26.5825    5.8541 H   0  0  0  0  0  0  0  0  0  0  0  0
  -49.4106  -27.3188    7.0160 H   0  0  0  0  0  0  0  0  0  0  0  0
  -49.5056  -29.4073    5.6333 H   0  0  0  0  0  0  0  0  0  0  0  0
  -49.9177  -28.0006    4.6509 H   0  0  0  0  0  0  0  0  0  0  0  0
  -43.6078  -29.2458    2.8344 H   0  0  0  0  0  0  0  0  0  0  0  0
  -43.7820  -28.2549    1.3761 H   0  0  0  0  0  0  0  0  0  0  0  0
  -44.7549  -27.9066    2.8177 H   0  0  0  0  0  0  0  0  0  0  0  0
  -44.1702  -36.4358   -1.8614 H   0  0  0  0  0  0  0  0  0  0  0  0
  -44.4875  -35.7544   -0.2475 H   0  0  0  0  0  0  0  0  0  0  0  0
  -45.4303  -35.1963   -1.6510 H   0  0  0  0  0  0  0  0  0  0  0  0
  -46.1147  -29.0361    1.0803 H   0  0  0  0  0  0  0  0  0  0  0  0
  -47.2501  -27.8944    7.9223 H   0  0  0  0  0  0  0  0  0  0  0  0
  -47.0327  -30.6928    2.6008 H   0  0  0  0  0  0  0  0  0  0  0  0
  1  3  2  0  0  0  0
  1  6  1  0  0  0  0
  2  4  1  0  0  0  0
  2  6  2  0  0  0  0
  3  8  1  0  0  0  0
  4  8  2  0  0  0  0
  5 16  2  0  0  0  0
  5 17  1  0  0  0  0
  6 15  1  0  0  0  0
  7  9  2  0  0  0  0
  7 10  1  0  0  0  0
  7 20  1  0  0  0  0
  8 21  1  0  0  0  0
  9 16  1  0  0  0  0
  9 18  1  0  0  0  0
 10 17  2  0  0  0  0
 10 19  1  0  0  0  0
 11 12  1  0  0  0  0
 11 18  1  0  0  0  0
 12 20  1  0  0  0  0
 13 15  1  0  0  0  0
 14 21  1  0  0  0  0
 15 19  1  0  0  0  0
  1 22  1  0  0  0  0
  2 23  1  0  0  0  0
  3 24  1  0  0  0  0
  4 25  1  0  0  0  0
  5 26  1  0  0  0  0
 11 27  1  0  0  0  0
 11 28  1  0  0  0  0
 12 29  1  0  0  0  0
 12 30  1  0  0  0  0
 13 31  1  0  0  0  0
 13 32  1  0  0  0  0
 13 33  1  0  0  0  0
 14 34  1  0  0  0  0
 14 35  1  0  0  0  0
 14 36  1  0  0  0  0
 15 37  1  0  0  0  0
 18 38  1  0  0  0  0
 19 39  1  0  0  0  0
M  END
> <POSIT::Probability>
0.18

> <POSIT::Method>
FRED

> <ReceptorTitle>
UCSF-P4553-REFINED_LIGAND-BOUND-STATE_A__DU__LA1_A-201(A)

> <OMEGA_C>
5f82wl28/cHaE6A+ZAcuwrAg98H1ySo///Y0wmAUA8LsRuW+fP4rwvmM/8EACr+9Cj8ywg5A78E+
fL1A3oczwnY49sHNx14/dpc7wo836cG+/ZtAh3Yvwn2IA8JMoSa/xlU6wsXU5sFpT8ZAzsk3wkSW
7sFeKYRAWnNCwhVB3MFbiMlAQWxEwsnP48EAv6ZAdFIxwk+y5cHoRw1ARccxwiYeDsK4bqi/Lrw1
wmsW7cFsEdk/n6A1wvH06cEbntdABAwzwhHB8cHWI5RAUfU9wnYg4cH2Ed9A2O04wvP08ME3lzFA
20dAwhlb5sF5rohAut0swvzpCMIOws+/jUo7woIZ/cE+8u4+7Esrwm5Q8cECoIw/i7o3wqH5BcLY
j1+/y7EnwscOAMJ48Xa+PXkuwpC78cHSV8tAPClBwgap1MGEVLtAaKRFws6M2sEig+BAyAVGwg9C
68FERLRAw6tHwiYB4MEB1JRAbW4uwl/36cGTZzVAuyAvwh8K4sEwJLA/AQUzwrlA38FgVTRAP64w
wky+EcL+Qe6/KfMxwnYED8LYdn2+lrg1wgXJDMKmUtO/aHU4wvNJ6MEeSIo/IwA9wtEn38FEg/1A
cSE8wvCK9cHFciZA

> <OMEGA_E>
8XEXwQ==

> <OMEGA_NBR>
     12454

$$$$
CACHE3HI_1696_64
  -OEChem-03092622503D

 33 35  0     1  0  0  0  0  0999 V2000
  -48.4013  -28.9972    5.7284 C   0  0  0  0  0  0  0  0  0  0  0  0
  -43.9360  -29.5444    6.4545 C   0  0  0  0  0  0  0  0  0  0  0  0
  -46.2668  -29.4524    5.0549 C   0  0  0  0  0  0  0  0  0  0  0  0
  -47.6622  -29.3167    4.6146 C   0  0  0  0  0  0  0  0  0  0  0  0
  -45.0506  -29.7426    4.4065 C   0  0  0  0  0  0  0  0  0  0  0  0
  -46.2450  -29.2126    6.4298 C   0  0  0  0  0  0  0  0  0  0  0  0
  -45.0115  -30.0155    2.9724 C   0  0  0  0  0  0  0  0  0  0  0  0
  -45.7681  -32.4030    3.3359 C   0  0  0  0  0  0  0  0  0  0  0  0
  -47.0331  -33.1864    2.9480 C   0  0  0  0  0  0  0  0  0  0  0  0
  -46.6375  -32.2568    0.4240 C   0  0  0  0  0  0  0  0  0  0  0  0
  -45.4366  -31.4484    0.9661 C   0  0  2  0  0  0  0  0  0  0  0  0
  -44.0948  -32.1094    0.5940 C   0  0  0  0  0  0  0  0  0  0  0  0
  -43.9003  -29.7721    5.1173 N   0  0  0  0  0  0  0  0  0  0  0  0
  -45.0862  -29.2652    7.1191 N   0  0  0  0  0  0  0  0  0  0  0  0
  -47.5442  -28.9355    6.8246 N   0  0  0  0  0  0  0  0  0  0  0  0
  -45.5124  -31.2264    2.4389 N   0  0  0  0  0  0  0  0  0  0  0  0
  -44.5024  -29.1573    2.2579 O   0  0  0  0  0  0  0  0  0  0  0  0
  -43.0359  -31.1733    0.7810 O   0  0  0  0  0  0  0  0  0  0  0  0
  -46.8321  -33.8585    1.2725 S   0  0  0  0  0  0  0  0  0  0  0  0
  -48.3765  -29.5157    2.8519 Br  0  0  0  0  0  0  0  0  0  0  0  0
  -49.4669  -28.8232    5.7500 H   0  0  0  0  0  0  0  0  0  0  0  0
  -43.0122  -29.5871    7.0124 H   0  0  0  0  0  0  0  0  0  0  0  0
  -45.8828  -32.0395    4.3678 H   0  0  0  0  0  0  0  0  0  0  0  0
  -44.9040  -33.0814    3.2801 H   0  0  0  0  0  0  0  0  0  0  0  0
  -47.1869  -34.0115    3.6590 H   0  0  0  0  0  0  0  0  0  0  0  0
  -47.9036  -32.5143    2.9724 H   0  0  0  0  0  0  0  0  0  0  0  0
  -47.5548  -31.6668    0.5672 H   0  0  0  0  0  0  0  0  0  0  0  0
  -46.4841  -32.4415   -0.6495 H   0  0  0  0  0  0  0  0  0  0  0  0
  -45.4610  -30.4638    0.4762 H   0  0  0  0  0  0  0  0  0  0  0  0
  -43.9271  -32.9860    1.2371 H   0  0  0  0  0  0  0  0  0  0  0  0
  -44.1219  -32.4268   -0.4588 H   0  0  0  0  0  0  0  0  0  0  0  0
  -47.8254  -28.7223    7.7602 H   0  0  0  0  0  0  0  0  0  0  0  0
  -43.3579  -30.4230    1.2665 H   0  0  0  0  0  0  0  0  0  0  0  0
  1  4  2  0  0  0  0
  1 15  1  0  0  0  0
  2 13  1  0  0  0  0
  2 14  2  0  0  0  0
  3  4  1  0  0  0  0
  3  5  1  0  0  0  0
  3  6  2  0  0  0  0
  4 20  1  0  0  0  0
  5  7  1  0  0  0  0
  5 13  2  0  0  0  0
  6 14  1  0  0  0  0
  6 15  1  0  0  0  0
  7 16  1  0  0  0  0
  7 17  2  0  0  0  0
  8  9  1  0  0  0  0
  8 16  1  0  0  0  0
  9 19  1  0  0  0  0
 10 11  1  0  0  0  0
 10 19  1  0  0  0  0
 11 12  1  0  0  0  0
 11 16  1  0  0  0  0
 12 18  1  0  0  0  0
  1 21  1  0  0  0  0
  2 22  1  0  0  0  0
  8 23  1  0  0  0  0
  8 24  1  0  0  0  0
  9 25  1  0  0  0  0
  9 26  1  0  0  0  0
 10 27  1  0  0  0  0
 10 28  1  0  0  0  0
 11 29  1  0  0  0  0
 12 30  1  0  0  0  0
 12 31  1  0  0  0  0
 15 32  1  0  0  0  0
 18 33  1  0  0  0  0
M  END
> <POSIT::Probability>
0.79

> <POSIT::Method>
SHAPEFIT

> <ReceptorTitle>
UCSF-P4553-REFINED_LIGAND-BOUND-STATE_A__DU__LA1_A-201(A)

> <OMEGA_C>
4ppBwi7658G0TrdAdr4vwu1a7MFci85ANBE5wmye68F8waFAHqY+wpqI6sEGq5NAyjM0wsXw7cE+
Ao1A5/o4wmGz6cGcwM1Axws0wqsf8MFMPD5AhxI3wqCcAcJ4f1VA7yE8wtu+BMIErDxA0Iw6wvsG
AcIAGdk+Hb81wjuW+8FIVHc/EGEwwgdwAMJQExg/8pkvwjwt7sGGwKNASVg0wg8f6sFcz+NAPi0+
wup758HMYtpArQw2wqDP+cG0FxxAewIywhBC6cE4ghBAuCQswvhi+cHY70c/HlQ7whlvB8KM4qI/
hoFBwh0g7MHwhTZAIt5Fwt+V5sG//7dAiwwswkmy7MHPZeBA/Ic3wmgoAMKoxItAuJ0zwlZTBMKa
7FFAaL88wsgLCMIQLWpASZ0/wqMOAsIbPD5AHDg+wqFV/cHZMBE/se85wgzEAcJOQya/BNg1wtW1
88Fz0PM+W7UvwqDxA8J1WZ4/23wwwhi1AcJP6Oq+ME0/wljH5cHXU/hAhm4twkRi88E7HqI/

> <OMEGA_E>
DAofPw==

> <OMEGA_NBR>
     13637

$$$$
CACHE3HI_1696_65
  -OEChem-03092622503D

 31 32  0     1  0  0  0  0  0999 V2000
  -48.4117  -29.0445    5.7308 C   0  0  0  0  0  0  0  0  0  0  0  0
  -43.9413  -29.5665    6.4201 C   0  0  0  0  0  0  0  0  0  0  0  0
  -46.2605  -29.3507    5.0090 C   0  0  0  0  0  0  0  0  0  0  0  0
  -47.6632  -29.2064    4.5890 C   0  0  0  0  0  0  0  0  0  0  0  0
  -45.0235  -29.5081    4.3423 C   0  0  0  0  0  0  0  0  0  0  0  0
  -46.2535  -29.2838    6.4069 C   0  0  0  0  0  0  0  0  0  0  0  0
  -44.9063  -29.5053    2.8784 C   0  0  0  0  0  0  0  0  0  0  0  0
  -44.2396  -30.6704    0.7730 C   0  0  0  0  0  0  0  0  0  0  0  0
  -44.9164  -32.0387    2.8398 C   0  0  0  0  0  0  0  0  0  0  0  0
  -45.8100  -33.0889    2.1137 C   0  0  1  0  0  0  0  0  0  0  0  0
  -47.2980  -32.6849    1.9930 C   0  0  0  0  0  0  0  0  0  0  0  0
  -43.8865  -29.6246    5.0667 N   0  0  0  0  0  0  0  0  0  0  0  0
  -45.1008  -29.3868    7.0981 N   0  0  0  0  0  0  0  0  0  0  0  0
  -47.5582  -29.0865    6.8276 N   0  0  0  0  0  0  0  0  0  0  0  0
  -44.7597  -30.7107    2.1619 N   0  0  0  0  0  0  0  0  0  0  0  0
  -44.6236  -28.4342    2.3513 O   0  0  0  0  0  0  0  0  0  0  0  0
  -45.2957  -33.3852    0.8180 O   0  0  0  0  0  0  0  0  0  0  0  0
  -47.8099  -32.3699    3.2124 F   0  0  0  0  0  0  0  0  0  0  0  0
  -47.4444  -31.6400    1.1369 F   0  0  0  0  0  0  0  0  0  0  0  0
  -47.9965  -33.7414    1.5011 F   0  0  0  0  0  0  0  0  0  0  0  0
  -48.3900  -29.2120    2.8274 Br  0  0  0  0  0  0  0  0  0  0  0  0
  -49.4823  -28.9078    5.7692 H   0  0  0  0  0  0  0  0  0  0  0  0
  -43.0237  -29.6675    6.9806 H   0  0  0  0  0  0  0  0  0  0  0  0
  -44.1911  -31.6925    0.3693 H   0  0  0  0  0  0  0  0  0  0  0  0
  -44.9094  -30.0611    0.1484 H   0  0  0  0  0  0  0  0  0  0  0  0
  -43.2328  -30.2275    0.7713 H   0  0  0  0  0  0  0  0  0  0  0  0
  -45.3534  -31.8575    3.8329 H   0  0  0  0  0  0  0  0  0  0  0  0
  -43.9135  -32.4757    2.9548 H   0  0  0  0  0  0  0  0  0  0  0  0
  -45.7760  -34.0069    2.7188 H   0  0  0  0  0  0  0  0  0  0  0  0
  -47.8446  -28.9885    7.7807 H   0  0  0  0  0  0  0  0  0  0  0  0
  -45.8544  -34.0260    0.3940 H   0  0  0  0  0  0  0  0  0  0  0  0
  1  4  2  0  0  0  0
  1 14  1  0  0  0  0
  2 12  1  0  0  0  0
  2 13  2  0  0  0  0
  3  4  1  0  0  0  0
  3  5  1  0  0  0  0
  3  6  2  0  0  0  0
  4 21  1  0  0  0  0
  5  7  1  0  0  0  0
  5 12  2  0  0  0  0
  6 13  1  0  0  0  0
  6 14  1  0  0  0  0
  7 15  1  0  0  0  0
  7 16  2  0  0  0  0
  8 15  1  0  0  0  0
  9 10  1  0  0  0  0
  9 15  1  0  0  0  0
 10 11  1  0  0  0  0
 10 17  1  0  0  0  0
 11 18  1  0  0  0  0
 11 19  1  0  0  0  0
 11 20  1  0  0  0  0
  1 22  1  0  0  0  0
  2 23  1  0  0  0  0
  8 24  1  0  0  0  0
  8 25  1  0  0  0  0
  8 26  1  0  0  0  0
  9 27  1  0  0  0  0
  9 28  1  0  0  0  0
 10 29  1  0  0  0  0
 14 30  1  0  0  0  0
 17 31  1  0  0  0  0
M  END
> <POSIT::Probability>
0.72

> <POSIT::Method>
SHAPEFIT

> <ReceptorTitle>
UCSF-P4553-REFINED_LIGAND-BOUND-STATE_A__DU__LA1_A-201(A)

> <OMEGA_C>
l6VBwjVb6MF1YrdA4sMvwiiI7MFlcc1AuAo5wkzO6sG9SaBAIqc+ws6m6cF92ZJAEhg0wqgQ7MHZ
84pAjAM5wipF6sElBc1AB6AzwsoK7MEqODhAZvUwwgpd9cEg4kU/YaozwqYnAMJ2vzVAZz03wgBb
BMJ2RwdAJDE9wmG9AsLMG/8/04svwj//7MEhIqJAPWc0whMY68FJI+NApTs+whax6MGte9pA7wkz
wouv9cHeXApAhX4ywjN548EqexZA2C41wnCKBcIgaVE/Tz0/wsF6AcKamE1ABcc9wrUe/cEchpE/
Y/w/wjH3BsJAI8A/VY9BwiKy6cGO8zRA5+1FwitD58GanbhAPBgswgJX7cEGYd9Ar8MwwkmK/cE1
E70+MaMzwg198MHL7Bc+Xu4swtjR8cGPc0U/5Wk1wjbc/sHPTXVAYacvwhTnAcK4Gj1AmRo3whMH
CMIRAC5A02A/wnno58Gd+/hA7mo3wqAaCMJZwMk+

> <OMEGA_E>
ntkrPw==

> <OMEGA_NBR>
     14776

$$$$
CACHE3HI_1696_66
  -OEChem-03092622503D

 32 34  0     0  0  0  0  0  0999 V2000
  -48.4444  -29.0466    5.8009 C   0  0  0  0  0  0  0  0  0  0  0  0
  -43.9483  -29.4375    6.3902 C   0  0  0  0  0  0  0  0  0  0  0  0
  -46.3188  -29.4297    5.0428 C   0  0  0  0  0  0  0  0  0  0  0  0
  -47.7267  -29.2424    4.6459 C   0  0  0  0  0  0  0  0  0  0  0  0
  -45.1085  -29.6935    4.3617 C   0  0  0  0  0  0  0  0  0  0  0  0
  -46.2655  -29.2235    6.4269 C   0  0  0  0  0  0  0  0  0  0  0  0
  -45.0227  -29.8334    2.8992 C   0  0  0  0  0  0  0  0  0  0  0  0
  -46.5165  -31.9255    2.7914 C   0  0  0  0  0  0  0  0  0  0  0  0
  -45.0473  -31.2645    0.8661 C   0  0  0  0  0  0  0  0  0  0  0  0
  -45.7906  -33.0040    3.6157 C   0  0  0  0  0  0  0  0  0  0  0  0
  -44.2391  -33.5013    1.7894 C   0  0  0  0  0  0  0  0  0  0  0  0
  -43.8358  -32.2066    1.0463 C   0  0  0  0  0  0  0  0  0  0  0  0
  -43.9426  -29.6822    5.0571 N   0  0  0  0  0  0  0  0  0  0  0  0
  -45.0894  -29.2233    7.0857 N   0  0  0  0  0  0  0  0  0  0  0  0
  -47.5608  -29.0305    6.8740 N   0  0  0  0  0  0  0  0  0  0  0  0
  -45.6166  -30.9007    2.1805 N   0  0  0  0  0  0  0  0  0  0  0  0
  -44.2094  -29.1036    2.3378 O   0  0  0  0  0  0  0  0  0  0  0  0
  -44.4293  -33.2373    3.1991 O   0  0  0  0  0  0  0  0  0  0  0  0
  -43.3702  -32.5367   -0.1820 F   0  0  0  0  0  0  0  0  0  0  0  0
  -42.8347  -31.5853    1.7328 F   0  0  0  0  0  0  0  0  0  0  0  0
  -48.4989  -29.1942    2.8914 Br  0  0  0  0  0  0  0  0  0  0  0  0
  -49.5157  -28.9254    5.8645 H   0  0  0  0  0  0  0  0  0  0  0  0
  -43.0062  -29.4123    6.9176 H   0  0  0  0  0  0  0  0  0  0  0  0
  -47.0674  -32.4254    1.9811 H   0  0  0  0  0  0  0  0  0  0  0  0
  -47.2269  -31.4080    3.4528 H   0  0  0  0  0  0  0  0  0  0  0  0
  -44.7221  -30.3512    0.3465 H   0  0  0  0  0  0  0  0  0  0  0  0
  -45.8162  -31.7735    0.2664 H   0  0  0  0  0  0  0  0  0  0  0  0
  -45.7816  -32.6877    4.6692 H   0  0  0  0  0  0  0  0  0  0  0  0
  -46.3488  -33.9471    3.5208 H   0  0  0  0  0  0  0  0  0  0  0  0
  -45.1773  -33.8862    1.3633 H   0  0  0  0  0  0  0  0  0  0  0  0
  -43.4448  -34.2522    1.6656 H   0  0  0  0  0  0  0  0  0  0  0  0
  -47.8231  -28.8987    7.8300 H   0  0  0  0  0  0  0  0  0  0  0  0
  1  4  2  0  0  0  0
  1 15  1  0  0  0  0
  2 13  1  0  0  0  0
  2 14  2  0  0  0  0
  3  4  1  0  0  0  0
  3  5  1  0  0  0  0
  3  6  2  0  0  0  0
  4 21  1  0  0  0  0
  5  7  1  0  0  0  0
  5 13  2  0  0  0  0
  6 14  1  0  0  0  0
  6 15  1  0  0  0  0
  7 16  1  0  0  0  0
  7 17  2  0  0  0  0
  8 10  1  0  0  0  0
  8 16  1  0  0  0  0
  9 12  1  0  0  0  0
  9 16  1  0  0  0  0
 10 18  1  0  0  0  0
 11 12  1  0  0  0  0
 11 18  1  0  0  0  0
 12 19  1  0  0  0  0
 12 20  1  0  0  0  0
  1 22  1  0  0  0  0
  2 23  1  0  0  0  0
  8 24  1  0  0  0  0
  8 25  1  0  0  0  0
  9 26  1  0  0  0  0
  9 27  1  0  0  0  0
 10 28  1  0  0  0  0
 10 29  1  0  0  0  0
 11 30  1  0  0  0  0
 11 31  1  0  0  0  0
 15 32  1  0  0  0  0
M  END
> <POSIT::Probability>
0.79

> <POSIT::Method>
SHAPEFIT

> <ReceptorTitle>
UCSF-P4553-REFINED_LIGAND-BOUND-STATE_A__DU__LA1_A-201(A)

> <OMEGA_C>
DcdBwnFf6MHGoLlAFcsvwvB/68FafMxAb0Y5wgBw68GoXqFAMOg+woXw6cEWq5RAJG80wkOM7cHi
kotA4w85wr/J6cFyqc1ASxc0wsmq7sFEjDlA5RA6wl1n/8H0pTJAcjA0wsUd+sEIuF0/oCk3wiAE
BMKAZ2dAz/QwwlIBBsKoDOU/5FcvwoTTAMJQ7oU/QsUvwjp17cG806FAl1s0wmPJ6cEKvuJAPz4+
wo8+6MEO+NtAYHc2wpE098G+jAtAY9YwwjnU6MHYnRVAo7cxwvLyBMKcvUxAFHstwpIlAsLgZzq+
t1YrwrOu/MEMy90/2/5BwqSN6cEIDDlADRBGwjtn58EIqrtAWQYswntM68H3XN1A/0Q8wqezAcKB
lP0/Xeg8wpRD+8FA+1xAeOMywizP8sHBZLE+1EM3wjkw/sGFYog+VCA3wj7AAsITapVAKWU5wuHJ
B8LmVGFAhLU0wnqLB8JVf64/hcctwkMCCcLvM9U/00o/wpow58Epj/pA

> <OMEGA_E>
mB0PPw==

> <OMEGA_NBR>
     15936

$$$$
CACHE3HI_1696_74
  -OEChem-03092622503D

 33 35  0     0  0  0  0  0  0999 V2000
  -48.4311  -29.0251    5.7963 C   0  0  0  0  0  0  0  0  0  0  0  0
  -43.9390  -29.5425    6.3336 C   0  0  0  0  0  0  0  0  0  0  0  0
  -46.3113  -29.3705    5.0352 C   0  0  0  0  0  0  0  0  0  0  0  0
  -47.7081  -29.1885    4.6396 C   0  0  0  0  0  0  0  0  0  0  0  0
  -46.2475  -29.2244    6.4208 C   0  0  0  0  0  0  0  0  0  0  0  0
  -45.1442  -29.6810    4.3223 C   0  0  0  0  0  0  0  0  0  0  0  0
  -45.5581  -31.5966    1.0991 C   0  0  0  0  0  0  0  0  0  0  0  0
  -44.7886  -32.4299    2.8465 C   0  0  0  0  0  0  0  0  0  0  0  0
  -44.6239  -31.0269    2.2003 C   0  0  0  0  0  0  0  0  0  0  0  0
  -46.1572  -32.5586    2.1483 C   0  0  0  0  0  0  0  0  0  0  0  0
  -42.6236  -28.3849    2.0735 C   0  0  0  0  0  0  0  0  0  0  0  0
  -43.1876  -30.7297    1.7155 C   0  0  0  0  0  0  0  0  0  0  0  0
  -45.0623  -29.2984    7.0609 N   0  0  0  0  0  0  0  0  0  0  0  0
  -43.9655  -29.7719    4.9890 N   0  0  0  0  0  0  0  0  0  0  0  0
  -47.5469  -29.0490    6.8749 N   0  0  0  0  0  0  0  0  0  0  0  0
  -45.2582  -29.8977    2.9480 N   0  0  0  0  0  0  0  0  0  0  0  0
  -43.0704  -29.4045    1.1455 O   0  0  0  0  0  0  0  0  0  0  0  0
  -47.1970  -32.0492    2.8629 F   0  0  0  0  0  0  0  0  0  0  0  0
  -46.4193  -33.7996    1.6638 F   0  0  0  0  0  0  0  0  0  0  0  0
  -48.4111  -29.1373    2.8602 Br  0  0  0  0  0  0  0  0  0  0  0  0
  -49.5019  -28.8995    5.8597 H   0  0  0  0  0  0  0  0  0  0  0  0
  -42.9862  -29.5553    6.8419 H   0  0  0  0  0  0  0  0  0  0  0  0
  -46.2741  -30.8683    0.6905 H   0  0  0  0  0  0  0  0  0  0  0  0
  -45.0324  -32.0972    0.2727 H   0  0  0  0  0  0  0  0  0  0  0  0
  -44.0422  -33.1694    2.5208 H   0  0  0  0  0  0  0  0  0  0  0  0
  -44.8394  -32.4197    3.9453 H   0  0  0  0  0  0  0  0  0  0  0  0
  -42.5646  -27.4167    1.5548 H   0  0  0  0  0  0  0  0  0  0  0  0
  -43.3366  -28.3109    2.9079 H   0  0  0  0  0  0  0  0  0  0  0  0
  -41.6303  -28.6534    2.4626 H   0  0  0  0  0  0  0  0  0  0  0  0
  -42.5005  -30.8104    2.5707 H   0  0  0  0  0  0  0  0  0  0  0  0
  -42.9104  -31.4707    0.9513 H   0  0  0  0  0  0  0  0  0  0  0  0
  -47.8108  -28.9536    7.8348 H   0  0  0  0  0  0  0  0  0  0  0  0
  -46.2391  -29.9794    2.7718 H   0  0  0  0  0  0  0  0  0  0  0  0
  1  4  2  0  0  0  0
  1 15  1  0  0  0  0
  2 13  2  0  0  0  0
  2 14  1  0  0  0  0
  3  4  1  0  0  0  0
  3  5  2  0  0  0  0
  3  6  1  0  0  0  0
  4 20  1  0  0  0  0
  5 13  1  0  0  0  0
  5 15  1  0  0  0  0
  6 14  2  0  0  0  0
  6 16  1  0  0  0  0
  7  9  1  0  0  0  0
  7 10  1  0  0  0  0
  8  9  1  0  0  0  0
  8 10  1  0  0  0  0
  9 12  1  0  0  0  0
  9 16  1  0  0  0  0
 10 18  1  0  0  0  0
 10 19  1  0  0  0  0
 11 17  1  0  0  0  0
 12 17  1  0  0  0  0
  1 21  1  0  0  0  0
  2 22  1  0  0  0  0
  7 23  1  0  0  0  0
  7 24  1  0  0  0  0
  8 25  1  0  0  0  0
  8 26  1  0  0  0  0
 11 27  1  0  0  0  0
 11 28  1  0  0  0  0
 11 29  1  0  0  0  0
 12 30  1  0  0  0  0
 12 31  1  0  0  0  0
 15 32  1  0  0  0  0
 16 33  1  0  0  0  0
M  END
> <POSIT::Probability>
0.83

> <POSIT::Method>
SHAPEFIT

> <ReceptorTitle>
UCSF-P4553-REFINED_LIGAND-BOUND-STATE_A__DU__LA1_A-201(A)

> <OMEGA_C>
dLlBwm4z6ME5e7lAjsEvwg1X7MGOrMpAxz45wsP26sESIKFAENU+wheC6cHad5RAe/04wqnL6cE/
d81Ao5M0wr9y7cGdUIpAijs2wsfF/MGir4w/gSczwi24AcJQLTZA634ywic3+MGA0QxA+aA4wgA8
AsK9fQlAj34qwlMU48EutARAH8AswnfW9cFGlts/wD80witj6sGM8uFAttwvws0s7sHNpZ9ACzA+
wkhk6MFr/9tAWwg1wnku78FxqzxAHUgswns868G4npI/tMk8wlcyAMJUOjdAXq05wtEyB8Kw+NQ/
+KRBwkIZ6cEPDjdA9AFGwkUy58GDgrtA3PErwi1x7MF38NpAuRg5wk7y9sH5wjA/JyE0woZjAMLX
n4s+OSswwm6tBMJvVSFAk1szwr2tAcKsf3xAMUIqwmZV28EaA8c/oVgtwsR84sHkGjpAeoUmwhM6
5cFqmx1AfwAqwpl79sGNhiRAQKQrwgzE+8F5h3M/Qj4/wvGg58FStvpA3PQ4wuXV78E1ZTFA

> <OMEGA_E>
4Ij6Pg==

> <OMEGA_NBR>
     17116

$$$$
CACHE3HI_1696_78
  -OEChem-03092622503D

 37 39  0     1  0  0  0  0  0999 V2000
  -48.4075  -29.0727    5.7272 C   0  0  0  0  0  0  0  0  0  0  0  0
  -43.9318  -29.5749    6.3914 C   0  0  0  0  0  0  0  0  0  0  0  0
  -46.2605  -29.3674    5.0071 C   0  0  0  0  0  0  0  0  0  0  0  0
  -47.6558  -29.2175    4.5851 C   0  0  0  0  0  0  0  0  0  0  0  0
  -46.2458  -29.3062    6.4030 C   0  0  0  0  0  0  0  0  0  0  0  0
  -45.0436  -29.5455    4.3234 C   0  0  0  0  0  0  0  0  0  0  0  0
  -45.2213  -32.7283    2.7943 C   0  0  0  0  0  0  0  0  0  0  0  0
  -46.5932  -32.1134    1.0438 C   0  0  0  0  0  0  0  0  0  0  0  0
  -47.3908  -32.8281    2.1038 C   0  0  0  0  0  0  0  0  0  0  0  0
  -43.2275  -28.2445    2.0063 C   0  0  0  0  0  0  0  0  0  0  0  0
  -44.0144  -30.2774    0.7417 C   0  0  0  0  0  0  0  0  0  0  0  0
  -44.0628  -31.8260    0.7272 C   0  0  0  0  0  0  0  0  0  0  0  0
  -43.7633  -29.6799    2.1475 C   0  0  2  0  0  0  0  0  0  0  0  0
  -45.0867  -29.4120    7.0837 N   0  0  0  0  0  0  0  0  0  0  0  0
  -43.8938  -29.6438    5.0361 N   0  0  0  0  0  0  0  0  0  0  0  0
  -47.5532  -29.1256    6.8263 N   0  0  0  0  0  0  0  0  0  0  0  0
  -45.2226  -32.3829    1.4394 N   0  0  0  0  0  0  0  0  0  0  0  0
  -45.0258  -29.6343    2.9322 N   0  0  0  0  0  0  0  0  0  0  0  0
  -44.2367  -32.8479    3.5137 O   0  0  0  0  0  0  0  0  0  0  0  0
  -46.5102  -32.8848    3.2361 O   0  0  0  0  0  0  0  0  0  0  0  0
  -48.3367  -29.2029    2.8020 Br  0  0  0  0  0  0  0  0  0  0  0  0
  -49.4786  -28.9404    5.7657 H   0  0  0  0  0  0  0  0  0  0  0  0
  -43.0050  -29.6531    6.9404 H   0  0  0  0  0  0  0  0  0  0  0  0
  -46.8054  -32.5221    0.0448 H   0  0  0  0  0  0  0  0  0  0  0  0
  -46.8029  -31.0336    1.0502 H   0  0  0  0  0  0  0  0  0  0  0  0
  -48.3041  -32.2660    2.3488 H   0  0  0  0  0  0  0  0  0  0  0  0
  -47.6618  -33.8407    1.7704 H   0  0  0  0  0  0  0  0  0  0  0  0
  -43.0489  -27.8194    3.0050 H   0  0  0  0  0  0  0  0  0  0  0  0
  -42.2845  -28.2592    1.4402 H   0  0  0  0  0  0  0  0  0  0  0  0
  -43.9661  -27.6284    1.4725 H   0  0  0  0  0  0  0  0  0  0  0  0
  -43.2046  -29.9482    0.0739 H   0  0  0  0  0  0  0  0  0  0  0  0
  -44.9759  -29.8955    0.3679 H   0  0  0  0  0  0  0  0  0  0  0  0
  -44.1017  -32.1634   -0.3191 H   0  0  0  0  0  0  0  0  0  0  0  0
  -43.1467  -32.2075    1.2017 H   0  0  0  0  0  0  0  0  0  0  0  0
  -43.0176  -30.2950    2.6724 H   0  0  0  0  0  0  0  0  0  0  0  0
  -47.8410  -29.0452    7.7806 H   0  0  0  0  0  0  0  0  0  0  0  0
  -45.5258  -30.4690    2.7014 H   0  0  0  0  0  0  0  0  0  0  0  0
  1  4  2  0  0  0  0
  1 16  1  0  0  0  0
  2 14  2  0  0  0  0
  2 15  1  0  0  0  0
  3  4  1  0  0  0  0
  3  5  2  0  0  0  0
  3  6  1  0  0  0  0
  4 21  1  0  0  0  0
  5 14  1  0  0  0  0
  5 16  1  0  0  0  0
  6 15  2  0  0  0  0
  6 18  1  0  0  0  0
  7 17  1  0  0  0  0
  7 19  2  0  0  0  0
  7 20  1  0  0  0  0
  8  9  1  0  0  0  0
  8 17  1  0  0  0  0
  9 20  1  0  0  0  0
 10 13  1  0  0  0  0
 11 12  1  0  0  0  0
 11 13  1  0  0  0  0
 12 17  1  0  0  0  0
 13 18  1  0  0  0  0
  1 22  1  0  0  0  0
  2 23  1  0  0  0  0
  8 24  1  0  0  0  0
  8 25  1  0  0  0  0
  9 26  1  0  0  0  0
  9 27  1  0  0  0  0
 10 28  1  0  0  0  0
 10 29  1  0  0  0  0
 10 30  1  0  0  0  0
 11 31  1  0  0  0  0
 11 32  1  0  0  0  0
 12 33  1  0  0  0  0
 12 34  1  0  0  0  0
 13 35  1  0  0  0  0
 16 36  1  0  0  0  0
 18 37  1  0  0  0  0
M  END
> <POSIT::Probability>
0.99

> <POSIT::Method>
SHAPEFIT

> <ReceptorTitle>
UCSF-P4553-REFINED_LIGAND-BOUND-STATE_A__DU__LA1_A-201(A)

> <OMEGA_C>
PqFBwu+U6MFQRbdAIrovwn2Z7ME7hsxAuQo5wlrw6sHBOaBAgJ8+wnq96cHmuJJAt/s4wglz6sFr
5cxAqyw0wipd7MFzWYpAm+I0wrvpAsK21TJAfF86wh50AMK0mYU/LpA9wu5PA8JDpAZA/+gswqr0
4cG4ZwBAtA4wwgU48sHJ3T0/T0AwwpWb/sE1KTo/lQ0vwmBw7cHcbwlAxlg0wrRL68EDruJAQZMv
wpYm7cFaJ6FAeDY+wlEB6cEYcdpA9+M0wguIAcIAPbg/cRo0wv8S7cFyqTtAXPIwwj1kA8Ko4GBA
eQo6whCKA8LMG09AxFhBwn2f6cFVVDNAH+pFwuuF58GygLhAJQUswnc57cHxF95AtDg7wqwWAsIG
dTc9MzY7wshE+MEibYY/XTdBwmAQAcKfUhZAtKU+wtlcB8Klm+I/FjIswgyO3sE6UkBAVyMpwtQS
4sHiWLg/Sd0vwvwG3cEgerw/f9Eswu+V78ECUJc9S+czwhYq78HMWrw+G2gwwlSnAMLAWqO+NpYs
wnnUAMLz0Zk//xEswjpc8sHpBytAKl0/wo5c6MHL+vhAdBo2wnXA88H34yxA

> <OMEGA_E>
QESmPA==

> <OMEGA_NBR>
     18379

$$$$
CACHE3HI_1696_9
  -OEChem-03092622503D

 34 36  0     0  0  0  0  0  0999 V2000
  -46.0521  -32.0182    0.8869 C   0  0  0  0  0  0  0  0  0  0  0  0
  -48.3972  -29.0639    5.7151 C   0  0  0  0  0  0  0  0  0  0  0  0
  -47.2467  -32.6341    1.1527 C   0  0  0  0  0  0  0  0  0  0  0  0
  -45.9565  -32.9286    2.9633 C   0  0  0  0  0  0  0  0  0  0  0  0
  -43.9286  -29.5035    6.4858 C   0  0  0  0  0  0  0  0  0  0  0  0
  -46.2325  -29.3569    5.0436 C   0  0  0  0  0  0  0  0  0  0  0  0
  -45.2213  -32.1848    2.0792 C   0  0  0  0  0  0  0  0  0  0  0  0
  -47.6282  -29.2511    4.5918 C   0  0  0  0  0  0  0  0  0  0  0  0
  -44.9915  -29.5260    4.3955 C   0  0  0  0  0  0  0  0  0  0  0  0
  -46.2450  -29.2466    6.4366 C   0  0  0  0  0  0  0  0  0  0  0  0
  -44.8624  -29.4049    2.9405 C   0  0  0  0  0  0  0  0  0  0  0  0
  -43.6851  -29.6023   -0.1232 C   0  0  0  0  0  0  0  0  0  0  0  0
  -43.8442  -31.6109    2.3601 C   0  0  0  0  0  0  0  0  0  0  0  0
  -43.0425  -29.4700    1.2595 C   0  0  0  0  0  0  0  0  0  0  0  0
  -43.8599  -29.6119    5.1358 N   0  0  0  0  0  0  0  0  0  0  0  0
  -45.0982  -29.3108    7.1445 N   0  0  0  0  0  0  0  0  0  0  0  0
  -47.5608  -29.0597    6.8283 N   0  0  0  0  0  0  0  0  0  0  0  0
  -43.8677  -30.1324    2.2770 N   0  0  0  0  0  0  0  0  0  0  0  0
  -45.3507  -28.4137    2.4085 O   0  0  0  0  0  0  0  0  0  0  0  0
  -47.1784  -33.1777    2.4053 O   0  0  0  0  0  0  0  0  0  0  0  0
  -48.3230  -29.3993    2.8146 Br  0  0  0  0  0  0  0  0  0  0  0  0
  -45.7774  -31.5090   -0.0251 H   0  0  0  0  0  0  0  0  0  0  0  0
  -49.4701  -28.9406    5.7317 H   0  0  0  0  0  0  0  0  0  0  0  0
  -48.0961  -32.6820    0.4873 H   0  0  0  0  0  0  0  0  0  0  0  0
  -45.6265  -33.2617    3.9362 H   0  0  0  0  0  0  0  0  0  0  0  0
  -43.0159  -29.5734    7.0590 H   0  0  0  0  0  0  0  0  0  0  0  0
  -43.0534  -29.1008   -0.8712 H   0  0  0  0  0  0  0  0  0  0  0  0
  -43.7836  -30.6670   -0.3813 H   0  0  0  0  0  0  0  0  0  0  0  0
  -44.6805  -29.1343   -0.1110 H   0  0  0  0  0  0  0  0  0  0  0  0
  -43.5267  -31.9110    3.3696 H   0  0  0  0  0  0  0  0  0  0  0  0
  -43.1314  -32.0030    1.6197 H   0  0  0  0  0  0  0  0  0  0  0  0
  -42.0465  -29.9367    1.2416 H   0  0  0  0  0  0  0  0  0  0  0  0
  -42.9434  -28.4040    1.5119 H   0  0  0  0  0  0  0  0  0  0  0  0
  -47.8654  -28.9392    7.7731 H   0  0  0  0  0  0  0  0  0  0  0  0
  1  3  2  0  0  0  0
  1  7  1  0  0  0  0
  2  8  2  0  0  0  0
  2 17  1  0  0  0  0
  3 20  1  0  0  0  0
  4  7  2  0  0  0  0
  4 20  1  0  0  0  0
  5 15  1  0  0  0  0
  5 16  2  0  0  0  0
  6  8  1  0  0  0  0
  6  9  1  0  0  0  0
  6 10  2  0  0  0  0
  7 13  1  0  0  0  0
  8 21  1  0  0  0  0
  9 11  1  0  0  0  0
  9 15  2  0  0  0  0
 10 16  1  0  0  0  0
 10 17  1  0  0  0  0
 11 18  1  0  0  0  0
 11 19  2  0  0  0  0
 12 14  1  0  0  0  0
 13 18  1  0  0  0  0
 14 18  1  0  0  0  0
  1 22  1  0  0  0  0
  2 23  1  0  0  0  0
  3 24  1  0  0  0  0
  4 25  1  0  0  0  0
  5 26  1  0  0  0  0
 12 27  1  0  0  0  0
 12 28  1  0  0  0  0
 12 29  1  0  0  0  0
 13 30  1  0  0  0  0
 13 31  1  0  0  0  0
 14 32  1  0  0  0  0
 14 33  1  0  0  0  0
 17 34  1  0  0  0  0
M  END
> <POSIT::Probability>
0.72

> <POSIT::Method>
SHAPEFIT

> <ReceptorTitle>
UCSF-P4553-REFINED_LIGAND-BOUND-STATE_A__DU__LA1_A-201(A)

> <OMEGA_C>
TzU4wqASAMJuC2M/xZZBwsSC6MG/4bZApfw8wlGJAsJPi5M/fNM3wuG2A8KIpj1A3rYvwigH7MHi
i89AEO44wgbb6sEHZaFAleI0wjG9AMLAEQVASoM+wk4C6sGw75JAQfczwj417MHRp4xA1/o4wiD5
6cHY+M1AJnMzwkY968G4MTxAjL0uwoDR7MHESvy9fmAvwgjj/MGqCxdAfCsswqjC68GhN6E/iXAv
wiLl7MG0WKRAiGQ0wnh86sGDn+RANz4+wip66MEcgdpAkHgvwiwP8cHguhFAGWc1wixP48ECJRpA
pLY8wuq1BMLm8BlAtkpBwsIx68EmIzRAAhw3wnwS/MEEbs28VuFFwmyG58EWardAZGJAwle6AsIN
hPk+joE2wvMLBcKw6ntAQxAswliW7MEP4+FAujYswlzO6MGyBF+/bCIvwhpW9cF7NsO+3bgywiMT
6cGwWOO9WxsuwstJ/8E4p1dAmoYswh8DAMJ8U88/oC8owlR+78EI7p4/EcYrwl0748EbhsE/NHY/
wnGD58H2vPhA

> <OMEGA_E>
xhwDPw==

> <OMEGA_NBR>
     19576

$$$$
CACHE3HI_1700_40
  -OEChem-03092622503D

 47 50  0     1  0  0  0  0  0999 V2000
  -45.1684  -29.2492    4.0561 C   0  0  0  0  0  0  0  0  0  0  0  0
  -43.8360  -29.6577    6.0031 C   0  0  0  0  0  0  0  0  0  0  0  0
  -48.1202  -28.4274    6.0449 C   0  0  0  0  0  0  0  0  0  0  0  0
  -46.2304  -28.9557    4.9271 C   0  0  0  0  0  0  0  0  0  0  0  0
  -43.9459  -29.6078    4.6201 C   0  0  0  0  0  0  0  0  0  0  0  0
  -47.5871  -28.5639    4.7811 C   0  0  0  0  0  0  0  0  0  0  0  0
  -45.9819  -29.0452    6.2938 C   0  0  0  0  0  0  0  0  0  0  0  0
  -44.5154  -30.7851    1.3834 C   0  0  0  0  0  0  0  0  0  0  0  0
  -44.4951  -32.9943    2.5696 C   0  0  0  0  0  0  0  0  0  0  0  0
  -45.9051  -31.1341    0.8440 C   0  0  0  0  0  0  0  0  0  0  0  0
  -45.8858  -33.2708    1.9918 C   0  0  0  0  0  0  0  0  0  0  0  0
  -48.4931  -32.0354    0.7130 C   0  0  0  0  0  0  0  0  0  0  0  0
  -49.3709  -34.1457    0.2571 C   0  0  0  0  0  0  0  0  0  0  0  0
  -47.3840  -32.9012    0.1422 C   0  0  2  0  0  0  0  0  0  0  0  0
  -44.2520  -31.4923    2.7124 C   0  0  0  0  0  0  0  0  0  0  0  0
  -47.8796  -34.2910    0.4889 C   0  0  2  0  0  0  0  0  0  0  0  0
  -42.7694  -29.9329    3.7451 C   0  0  0  0  0  0  0  0  0  0  0  0
  -44.8230  -29.3860    6.8886 N   0  0  0  0  0  0  0  0  0  0  0  0
  -47.1379  -28.7218    6.9548 N   0  0  0  0  0  0  0  0  0  0  0  0
  -46.0708  -32.5876    0.7042 N   0  0  0  0  0  0  0  0  0  0  0  0
  -42.8915  -31.2479    3.1355 N   0  0  0  0  0  0  0  0  0  0  0  0
  -49.7094  -32.7888    0.5754 O   0  0  0  0  0  0  0  0  0  0  0  0
  -47.3151  -35.2761   -0.3524 O   0  0  0  0  0  0  0  0  0  0  0  0
  -48.4746  -28.2911    3.1553 Br  0  0  0  0  0  0  0  0  0  0  0  0
  -45.2919  -29.1995    2.9786 H   0  0  0  0  0  0  0  0  0  0  0  0
  -42.8918  -29.9335    6.4671 H   0  0  0  0  0  0  0  0  0  0  0  0
  -49.1096  -28.1488    6.3810 H   0  0  0  0  0  0  0  0  0  0  0  0
  -43.7588  -31.0733    0.6409 H   0  0  0  0  0  0  0  0  0  0  0  0
  -44.4375  -29.6981    1.5102 H   0  0  0  0  0  0  0  0  0  0  0  0
  -44.4024  -33.4885    3.5446 H   0  0  0  0  0  0  0  0  0  0  0  0
  -43.7369  -33.4426    1.9130 H   0  0  0  0  0  0  0  0  0  0  0  0
  -46.6734  -30.7147    1.5068 H   0  0  0  0  0  0  0  0  0  0  0  0
  -46.0216  -30.6521   -0.1343 H   0  0  0  0  0  0  0  0  0  0  0  0
  -45.9886  -34.3543    1.8552 H   0  0  0  0  0  0  0  0  0  0  0  0
  -46.6526  -32.9596    2.7135 H   0  0  0  0  0  0  0  0  0  0  0  0
  -48.3528  -31.7531    1.7571 H   0  0  0  0  0  0  0  0  0  0  0  0
  -48.6107  -31.1223    0.1252 H   0  0  0  0  0  0  0  0  0  0  0  0
  -49.6720  -34.3513   -0.7751 H   0  0  0  0  0  0  0  0  0  0  0  0
  -49.9444  -34.7910    0.9323 H   0  0  0  0  0  0  0  0  0  0  0  0
  -47.3356  -32.7477   -0.9757 H   0  0  0  0  0  0  0  0  0  0  0  0
  -44.9272  -31.0906    3.4684 H   0  0  0  0  0  0  0  0  0  0  0  0
  -47.6630  -34.5874    1.5428 H   0  0  0  0  0  0  0  0  0  0  0  0
  -42.6710  -29.1959    2.9412 H   0  0  0  0  0  0  0  0  0  0  0  0
  -41.8367  -29.9152    4.3186 H   0  0  0  0  0  0  0  0  0  0  0  0
  -47.2481  -28.7031    7.9591 H   0  0  0  0  0  0  0  0  0  0  0  0
  -42.6219  -31.9609    3.8108 H   0  0  0  0  0  0  0  0  0  0  0  0
  -47.7652  -36.1083   -0.1416 H   0  0  0  0  0  0  0  0  0  0  0  0
  1  4  2  0  0  0  0
  1  5  1  0  0  0  0
  2  5  2  0  0  0  0
  2 18  1  0  0  0  0
  3  6  2  0  0  0  0
  3 19  1  0  0  0  0
  4  6  1  0  0  0  0
  4  7  1  0  0  0  0
  5 17  1  0  0  0  0
  6 24  1  0  0  0  0
  7 18  2  0  0  0  0
  7 19  1  0  0  0  0
  8 10  1  0  0  0  0
  8 15  1  0  0  0  0
  9 11  1  0  0  0  0
  9 15  1  0  0  0  0
 10 20  1  0  0  0  0
 11 20  1  0  0  0  0
 12 14  1  0  0  0  0
 12 22  1  0  0  0  0
 13 16  1  0  0  0  0
 13 22  1  0  0  0  0
 14 16  1  0  0  0  0
 14 20  1  0  0  0  0
 15 21  1  0  0  0  0
 16 23  1  0  0  0  0
 17 21  1  0  0  0  0
  1 25  1  0  0  0  0
  2 26  1  0  0  0  0
  3 27  1  0  0  0  0
  8 28  1  0  0  0  0
  8 29  1  0  0  0  0
  9 30  1  0  0  0  0
  9 31  1  0  0  0  0
 10 32  1  0  0  0  0
 10 33  1  0  0  0  0
 11 34  1  0  0  0  0
 11 35  1  0  0  0  0
 12 36  1  0  0  0  0
 12 37  1  0  0  0  0
 13 38  1  0  0  0  0
 13 39  1  0  0  0  0
 14 40  1  0  0  0  0
 15 41  1  0  0  0  0
 16 42  1  0  0  0  0
 17 43  1  0  0  0  0
 17 44  1  0  0  0  0
 19 45  1  0  0  0  0
 21 46  1  0  0  0  0
 23 47  1  0  0  0  0
M  END
> <POSIT::Probability>
0.33

> <POSIT::Method>
HYBRID

> <ReceptorTitle>
UCSF-P4553-REFINED_LIGAND-BOUND-STATE_A__DU__LA1_A-201(A)

> <OMEGA_C>
aKw0wl7+6cGcy4FABFgvwhFD7cGSGcBAFHtAwlhr48ExcMFA6us4wkyl58ECq51AlsgvwrTc7MG7
15NAOVk+wtyC5MG1/phAa+03wphc6MH2ZslAuA8ywupH9sFqFLE/8/oxwiX6A8IVdSRAzJ43wpgS
+cEAD1g/BYs3wlMVBcJ89P4/4/hBwkokAMIYhjY/w3tFwiuVCMIQqYM+LIk9ws2aA8KAoBE+AgIx
wizw+8HDmC1ArIQ/wgYqCcLQVvo+2BMrwql278FlsG9Ay0ozwooW68Fqb9xALI08wj7G5cGJjd5A
dkg4wrVZAsKgSDQ/4JArwr37+cHuq0hAd9ZGwr0nA8IYSxM/qUI9wr8aDcKAaLS++OVBwiVU4sHg
8ElA4io1wqKY6cGvoT5AK5ErwsF378Hk8s5AMXBEwqow4cEVMcxACwkvwi+W+MGQDyQ//r8xwr2V
7cGsTME/Apwxwi70BcL92mJAm/IuwkXFBcKQ3vQ/l7E6wsa39cH638A/HxY4wmg39cFAjwm+V/Q3
wtJqCcJSdu0/Q5w6wpXWA8I3qi1ARmlBwkEG/sFI6uA/ZXFCwnH6+MFAMwA+KLBGwsZnCcJIbka/
B8dHwv0pC8IAqW4/pVc9wq79AsKoyXm/fbUzwp+5+MGS+l1A9qY+wohZCsJ0e8U/Ea8qwkmR6cH7
PDxAzFgnwm5S78HmMYpAGf48wgyg5cFSsf5A0Hwqwuqv/8Gf43NAiA8/wuluEMIA9RC+

> <OMEGA_E>
tGIKwQ==

> <OMEGA_NBR>
     21021

$$$$
CACHE3HI_1700_68
  -OEChem-03092622503D

 38 41  0     1  0  0  0  0  0999 V2000
  -44.0215  -29.5937    6.4820 C   0  0  0  0  0  0  0  0  0  0  0  0
  -48.1106  -28.5752    5.4934 C   0  0  0  0  0  0  0  0  0  0  0  0
  -46.0760  -29.1866    4.9068 C   0  0  0  0  0  0  0  0  0  0  0  0
  -46.1867  -29.0234    6.2811 C   0  0  0  0  0  0  0  0  0  0  0  0
  -44.8787  -29.5686    4.3340 C   0  0  0  0  0  0  0  0  0  0  0  0
  -46.1900  -33.6930   -1.7261 C   0  0  0  0  0  0  0  0  0  0  0  0
  -44.8589  -33.4710   -1.0729 C   0  0  0  0  0  0  0  0  0  0  0  0
  -46.8055  -33.6377    2.0515 C   0  0  0  0  0  0  0  0  0  0  0  0
  -45.9301  -31.7440    0.8486 C   0  0  0  0  0  0  0  0  0  0  0  0
  -47.4845  -32.6744    3.0192 C   0  0  0  0  0  0  0  0  0  0  0  0
  -46.0311  -33.9274   -0.2489 C   0  0  0  0  0  0  0  0  0  0  0  0
  -46.6362  -30.8168    1.8441 C   0  0  2  0  0  0  0  0  0  0  0  0
  -45.8550  -29.5244    2.0387 C   0  0  0  0  0  0  0  0  0  0  0  0
  -45.1488  -29.2245    7.1286 N   0  0  0  0  0  0  0  0  0  0  0  0
  -43.8247  -29.7760    5.1548 N   0  0  0  0  0  0  0  0  0  0  0  0
  -47.4571  -28.6431    6.6329 N   0  0  0  0  0  0  0  0  0  0  0  0
  -47.3193  -28.8946    4.4226 N   0  0  0  0  0  0  0  0  0  0  0  0
  -46.6686  -33.0105    0.7296 N   0  0  1  0  0  0  0  0  0  0  0  0
  -44.7566  -29.7338    2.9707 N   0  0  0  0  0  0  0  0  0  0  0  0
  -46.7389  -31.4610    3.1189 O   0  0  0  0  0  0  0  0  0  0  0  0
  -43.1560  -29.7696    7.1118 H   0  0  0  0  0  0  0  0  0  0  0  0
  -49.1499  -28.3043    5.3736 H   0  0  0  0  0  0  0  0  0  0  0  0
  -46.7387  -32.8203   -2.0592 H   0  0  0  0  0  0  0  0  0  0  0  0
  -46.3004  -34.5608   -2.3654 H   0  0  0  0  0  0  0  0  0  0  0  0
  -44.0732  -34.1898   -1.2721 H   0  0  0  0  0  0  0  0  0  0  0  0
  -44.5146  -32.4493   -0.9683 H   0  0  0  0  0  0  0  0  0  0  0  0
  -45.8172  -33.9145    2.4411 H   0  0  0  0  0  0  0  0  0  0  0  0
  -47.4058  -34.5516    1.9765 H   0  0  0  0  0  0  0  0  0  0  0  0
  -45.8755  -31.2511   -0.1295 H   0  0  0  0  0  0  0  0  0  0  0  0
  -44.9024  -31.9423    1.1815 H   0  0  0  0  0  0  0  0  0  0  0  0
  -48.5127  -32.4486    2.7112 H   0  0  0  0  0  0  0  0  0  0  0  0
  -47.5293  -33.1202    4.0182 H   0  0  0  0  0  0  0  0  0  0  0  0
  -46.0183  -34.9631    0.0757 H   0  0  0  0  0  0  0  0  0  0  0  0
  -47.6452  -30.5667    1.4904 H   0  0  0  0  0  0  0  0  0  0  0  0
  -45.4580  -29.1892    1.0764 H   0  0  0  0  0  0  0  0  0  0  0  0
  -46.5212  -28.7452    2.4197 H   0  0  0  0  0  0  0  0  0  0  0  0
  -47.6061  -28.9120    3.4529 H   0  0  0  0  0  0  0  0  0  0  0  0
  -43.8671  -30.0140    2.5871 H   0  0  0  0  0  0  0  0  0  0  0  0
  1 14  1  0  0  0  0
  1 15  2  0  0  0  0
  2 16  2  0  0  0  0
  2 17  1  0  0  0  0
  3  4  1  0  0  0  0
  3  5  2  0  0  0  0
  3 17  1  0  0  0  0
  4 14  2  0  0  0  0
  4 16  1  0  0  0  0
  5 15  1  0  0  0  0
  5 19  1  0  0  0  0
  6  7  1  0  0  0  0
  6 11  1  0  0  0  0
  7 11  1  0  0  0  0
  8 10  1  0  0  0  0
  8 18  1  0  0  0  0
  9 12  1  0  0  0  0
  9 18  1  0  0  0  0
 10 20  1  0  0  0  0
 11 18  1  0  0  0  0
 12 13  1  0  0  0  0
 12 20  1  0  0  0  0
 13 19  1  0  0  0  0
  1 21  1  0  0  0  0
  2 22  1  0  0  0  0
  6 23  1  0  0  0  0
  6 24  1  0  0  0  0
  7 25  1  0  0  0  0
  7 26  1  0  0  0  0
  8 27  1  0  0  0  0
  8 28  1  0  0  0  0
  9 29  1  0  0  0  0
  9 30  1  0  0  0  0
 10 31  1  0  0  0  0
 10 32  1  0  0  0  0
 11 33  1  0  0  0  0
 12 34  1  0  0  0  0
 13 35  1  0  0  0  0
 13 36  1  0  0  0  0
 17 37  1  0  0  0  0
 19 38  1  0  0  0  0
M  END
> <POSIT::Probability>
0.42

> <POSIT::Method>
HYBRID

> <ReceptorTitle>
UCSF-P4553-REFINED_LIGAND-BOUND-STATE_A__DU__LA1_A-201(A)

> <OMEGA_C>
DhYwwtG/7MHGbM9APHFAwhWa5MHFya9AyU04wjF+6cFYBJ1AL784wvkv6MGG/shAvYMzwnOM7ME3
sIpAj8I4wqjFBsJ08Ny/hG8zwkziBcKYVIm/zDg7wgKNBsJuTANAZbg3wqvz/cGAPVk/JvA9wqOy
AsJcO0FA5R84wqm1B8Kg2X6+hYs6wtKI9sG8DOw/kGs3wvYx7MFCeQJAVZg0wsnL6cE1HeRAfkwv
wlQ17sGB9KRAHNQ9whIl5cH2QNRA7EY9wiUo58ENho1AoKw6wroKBMIoyTo/ygYzwsTe7cEqID5A
qPQ6wh6w+8FWm0dAvp8swhgo7sGnk+NAhJlEwjVv4sF89KtAafQ6wgRIA8JIygPAljM5wkE+CsIk
YhfA6kowwmPCCMLo06K/7Q4ywhLMAcIA5He/3UQ3wnuoB8KIOxxAkZ89wtw0CsIs//w/ioA3wkkC
+sHApQS+A5wzwtKJ/8HQPJc/BQ1CwlzLAcLAgy1A+h0+wgl7BMISlYBAuRI4wjHaC8KABps9q5Q+
wqCI9MHwxr4/9dQ1wmKD6cEMyIk/wBU6wj/25cGu2xpAmmw+wsBL58GA+1xA9Hcvwrsc8MFkkyVA

> <OMEGA_E>
mBDnwA==

> <OMEGA_NBR>
     22290

$$$$
CACHE3HI_1707_15
  -OEChem-03092622503D

 52 55  0     1  0  0  0  0  0999 V2000
  -46.9341  -29.3623    2.0329 C   0  0  0  0  0  0  0  0  0  0  0  0
  -45.8276  -29.6477    4.5682 C   0  0  0  0  0  0  0  0  0  0  0  0
  -47.7695  -29.3186    3.1623 C   0  0  0  0  0  0  0  0  0  0  0  0
  -45.5449  -29.5313    2.1507 C   0  0  0  0  0  0  0  0  0  0  0  0
  -47.2126  -29.4858    4.4411 C   0  0  0  0  0  0  0  0  0  0  0  0
  -45.0066  -29.6529    3.4372 C   0  0  0  0  0  0  0  0  0  0  0  0
  -47.0284  -34.0803   -0.2098 C   0  0  0  0  0  0  0  0  0  0  0  0
  -49.2574  -29.1638    2.9647 C   0  0  0  0  0  0  0  0  0  0  0  0
  -48.0625  -29.4355    5.6856 C   0  0  0  0  0  0  0  0  0  0  0  0
  -47.4908  -32.7326    0.3098 C   0  0  0  0  0  0  0  0  0  0  0  0
  -49.9971  -28.7649    4.2404 C   0  0  0  0  0  0  0  0  0  0  0  0
  -49.5520  -29.6356    5.4076 C   0  0  0  0  0  0  0  0  0  0  0  0
  -46.4153  -31.9199    1.0047 C   0  0  0  0  0  0  0  0  0  0  0  0
  -42.4368  -28.7450    1.8576 C   0  0  0  0  0  0  0  0  0  0  0  0
  -43.5729  -28.5741    0.8453 C   0  0  0  0  0  0  0  0  0  0  0  0
  -44.6612  -33.2168   -0.1690 C   0  0  0  0  0  0  0  0  0  0  0  0
  -42.9111  -28.6873    3.3030 C   0  0  0  0  0  0  0  0  0  0  0  0
  -44.6985  -29.6230    0.8962 C   0  0  1  0  0  0  0  0  0  0  0  0
  -45.2025  -31.8190    0.0946 C   0  0  2  0  0  0  0  0  0  0  0  0
  -45.1887  -35.4338   -1.1332 C   0  0  0  0  0  0  0  0  0  0  0  0
  -45.6836  -34.1900   -0.5584 N   0  0  0  0  0  0  0  0  0  0  0  0
  -44.1845  -30.9789    0.6764 N   0  0  0  0  0  0  0  0  0  0  0  0
  -47.8612  -34.9762   -0.3737 O   0  0  0  0  0  0  0  0  0  0  0  0
  -43.6676  -29.8515    3.6444 O   0  0  0  0  0  0  0  0  0  0  0  0
  -47.3814  -29.2696    1.0446 H   0  0  0  0  0  0  0  0  0  0  0  0
  -45.3840  -29.7623    5.5549 H   0  0  0  0  0  0  0  0  0  0  0  0
  -49.4193  -28.3964    2.1974 H   0  0  0  0  0  0  0  0  0  0  0  0
  -49.6845  -30.1017    2.5903 H   0  0  0  0  0  0  0  0  0  0  0  0
  -47.7132  -30.2205    6.3679 H   0  0  0  0  0  0  0  0  0  0  0  0
  -47.9269  -28.4724    6.1919 H   0  0  0  0  0  0  0  0  0  0  0  0
  -47.8861  -32.1750   -0.5476 H   0  0  0  0  0  0  0  0  0  0  0  0
  -48.3206  -32.9001    1.0061 H   0  0  0  0  0  0  0  0  0  0  0  0
  -49.8054  -27.7090    4.4612 H   0  0  0  0  0  0  0  0  0  0  0  0
  -51.0793  -28.8713    4.0937 H   0  0  0  0  0  0  0  0  0  0  0  0
  -49.7460  -30.6917    5.1880 H   0  0  0  0  0  0  0  0  0  0  0  0
  -50.1365  -29.3807    6.3010 H   0  0  0  0  0  0  0  0  0  0  0  0
  -46.8090  -30.9248    1.2441 H   0  0  0  0  0  0  0  0  0  0  0  0
  -46.1449  -32.3983    1.9554 H   0  0  0  0  0  0  0  0  0  0  0  0
  -41.9183  -29.6927    1.6743 H   0  0  0  0  0  0  0  0  0  0  0  0
  -41.7071  -27.9433    1.6943 H   0  0  0  0  0  0  0  0  0  0  0  0
  -44.0084  -27.5734    0.9716 H   0  0  0  0  0  0  0  0  0  0  0  0
  -43.1285  -28.5858   -0.1592 H   0  0  0  0  0  0  0  0  0  0  0  0
  -43.9040  -33.1773   -0.9618 H   0  0  0  0  0  0  0  0  0  0  0  0
  -44.1780  -33.6236    0.7291 H   0  0  0  0  0  0  0  0  0  0  0  0
  -42.0337  -28.6857    3.9600 H   0  0  0  0  0  0  0  0  0  0  0  0
  -43.4603  -27.7595    3.5154 H   0  0  0  0  0  0  0  0  0  0  0  0
  -45.3431  -29.4035    0.0375 H   0  0  0  0  0  0  0  0  0  0  0  0
  -45.5122  -31.3690   -0.8695 H   0  0  0  0  0  0  0  0  0  0  0  0
  -45.2729  -35.4139   -2.2236 H   0  0  0  0  0  0  0  0  0  0  0  0
  -44.1389  -35.5825   -0.8651 H   0  0  0  0  0  0  0  0  0  0  0  0
  -45.7648  -36.2815   -0.7521 H   0  0  0  0  0  0  0  0  0  0  0  0
  -43.3849  -30.9269    0.0504 H   0  0  0  0  0  0  0  0  0  0  0  0
  1  3  1  0  0  0  0
  1  4  2  0  0  0  0
  2  5  1  0  0  0  0
  2  6  2  0  0  0  0
  3  5  2  0  0  0  0
  3  8  1  0  0  0  0
  4  6  1  0  0  0  0
  4 18  1  0  0  0  0
  5  9  1  0  0  0  0
  6 24  1  0  0  0  0
  7 10  1  0  0  0  0
  7 21  1  0  0  0  0
  7 23  2  0  0  0  0
  8 11  1  0  0  0  0
  9 12  1  0  0  0  0
 10 13  1  0  0  0  0
 11 12  1  0  0  0  0
 13 19  1  0  0  0  0
 14 15  1  0  0  0  0
 14 17  1  0  0  0  0
 15 18  1  0  0  0  0
 16 19  1  0  0  0  0
 16 21  1  0  0  0  0
 17 24  1  0  0  0  0
 18 22  1  0  0  0  0
 19 22  1  0  0  0  0
 20 21  1  0  0  0  0
  1 25  1  0  0  0  0
  2 26  1  0  0  0  0
  8 27  1  0  0  0  0
  8 28  1  0  0  0  0
  9 29  1  0  0  0  0
  9 30  1  0  0  0  0
 10 31  1  0  0  0  0
 10 32  1  0  0  0  0
 11 33  1  0  0  0  0
 11 34  1  0  0  0  0
 12 35  1  0  0  0  0
 12 36  1  0  0  0  0
 13 37  1  0  0  0  0
 13 38  1  0  0  0  0
 14 39  1  0  0  0  0
 14 40  1  0  0  0  0
 15 41  1  0  0  0  0
 15 42  1  0  0  0  0
 16 43  1  0  0  0  0
 16 44  1  0  0  0  0
 17 45  1  0  0  0  0
 17 46  1  0  0  0  0
 18 47  1  0  0  0  0
 19 48  1  0  0  0  0
 20 49  1  0  0  0  0
 20 50  1  0  0  0  0
 20 51  1  0  0  0  0
 22 52  1  0  0  0  0
M  END
> <POSIT::Probability>
0.24

> <POSIT::Method>
FRED

> <ReceptorTitle>
UCSF-P4553-REFINED_LIGAND-BOUND-STATE_A__DU__LA1_A-201(A)

> <OMEGA_C>
fLw7wvTl6sFcGwJAa083wmYu7cHTLpJA7BM/wm6M6sFgYkpABC42wiZA7MHQpAlAs9k8wufi68HM
HY5AzQY0wiI57cGw+1tADR08wjFSCMIAzla+hwdFwl1P6cEQvj1A+T9Awu5768F18LVAjPY9wjHu
AsKgpJ4+/PxHwmse5sELsYdASTVGwsUV7cG+Cq1APak5wgJc/8Ewm4A/RL8pwsD15cE4xO0/rUou
wrmX5MFgaFg/BqUywgbeBMLACy2+8qQrwoF/5cG0ZFNARcsywtj77MGAbGU/VM80wkWN/sGAy8E9
LsE0wjO8DcKIDZG/CLw2wpnCCMKw9Q6/67wwwr/U98HwJS0/3HE/wqLnC8JgUb++oqsuwu/P7sFs
PWlAi4Y9wgso6sGItoU/OIk1wiYZ7sEVwrFAVK1FwtUr48H8oQxA9rxGwlHQ8MGExyVAR9o+wqHD
8cGIxctAG7U/wn3H48EUJMZAXYs/wj+zAMKQMQy/QkhBwrWZA8LgyIA/wThHwvWr3cFWwo5AQFFM
wmP45sEy/4JA3vtGwpKI9cELBKZA0ItIwsUL68FwoclAbjw7wuRl98H4P58/YpQ4wt6XAcIgS/o/
TawnwpWK7cGoT9Y/GdQmwu+L38F43dg/pQgwwlyW3MEguXg/iYMswq2v5MEADyO+qJ0vwoO1BMKg
N3a/UrYwwph+BsKwpTo/diIowkR85cHsb31AWtctwn0T3sHc/GBAUl81wmk668EAuBk9hAw2wqvz
+sHAml6/ehc1wtCnDcKITw7AOY4wwoVUDsKwdF2/Gw83wj0gEcKAhkC/LIotwk5q98EAYk49

> <OMEGA_E>
B1rowA==

> <OMEGA_NBR>
     23829

$$$$
CACHE3HI_1707_5
  -OEChem-03092622503D

 37 39  0     1  0  0  0  0  0999 V2000
  -45.6847  -33.3438    0.8907 C   0  0  0  0  0  0  0  0  0  0  0  0
  -44.3552  -32.8566    0.9417 C   0  0  0  0  0  0  0  0  0  0  0  0
  -46.5033  -32.3593    1.3992 C   0  0  0  0  0  0  0  0  0  0  0  0
  -44.4019  -31.5892    1.4794 C   0  0  0  0  0  0  0  0  0  0  0  0
  -45.5164  -29.0422    6.3888 C   0  0  0  0  0  0  0  0  0  0  0  0
  -43.9193  -29.9608    5.3783 C   0  0  0  0  0  0  0  0  0  0  0  0
  -43.0244  -28.4337    2.8231 C   0  0  0  0  0  0  0  0  0  0  0  0
  -43.6410  -27.7411    1.6061 C   0  0  0  0  0  0  0  0  0  0  0  0
  -42.9772  -29.7442    0.5140 C   0  0  0  0  0  0  0  0  0  0  0  0
  -43.2732  -30.6056    1.7620 C   0  0  1  0  0  0  0  0  0  0  0  0
  -46.7872  -28.3185    6.5176 C   0  0  0  0  0  0  0  0  0  0  0  0
  -46.2041  -30.0647    2.3284 C   0  0  0  0  0  0  0  0  0  0  0  0
  -43.1277  -30.4215    4.1881 C   0  0  0  0  0  0  0  0  0  0  0  0
  -44.7131  -29.4958    7.3227 N   0  0  0  0  0  0  0  0  0  0  0  0
  -43.6627  -30.0998    6.6576 N   0  0  0  0  0  0  0  0  0  0  0  0
  -45.7124  -31.2976    1.7537 N   0  0  0  0  0  0  0  0  0  0  0  0
  -43.5749  -29.7812    2.9527 N   0  0  1  0  0  0  0  0  0  0  0  0
  -45.0809  -29.2984    5.1252 O   0  0  0  0  0  0  0  0  0  0  0  0
  -43.8202  -28.5973    0.4764 O   0  0  0  0  0  0  0  0  0  0  0  0
  -46.0109  -34.3068    0.5239 H   0  0  0  0  0  0  0  0  0  0  0  0
  -43.4625  -33.3755    0.6206 H   0  0  0  0  0  0  0  0  0  0  0  0
  -47.5759  -32.3281    1.5367 H   0  0  0  0  0  0  0  0  0  0  0  0
  -41.9386  -28.4733    2.6958 H   0  0  0  0  0  0  0  0  0  0  0  0
  -43.2496  -27.8387    3.7108 H   0  0  0  0  0  0  0  0  0  0  0  0
  -44.6156  -27.2657    1.8634 H   0  0  0  0  0  0  0  0  0  0  0  0
  -42.9840  -26.9054    1.2841 H   0  0  0  0  0  0  0  0  0  0  0  0
  -41.9398  -29.3897    0.5390 H   0  0  0  0  0  0  0  0  0  0  0  0
  -43.0973  -30.3156   -0.4168 H   0  0  0  0  0  0  0  0  0  0  0  0
  -42.3626  -31.2172    1.9846 H   0  0  0  0  0  0  0  0  0  0  0  0
  -46.6469  -27.2214    6.5513 H   0  0  0  0  0  0  0  0  0  0  0  0
  -47.3281  -28.5785    7.4475 H   0  0  0  0  0  0  0  0  0  0  0  0
  -47.4651  -28.5364    5.6722 H   0  0  0  0  0  0  0  0  0  0  0  0
  -46.2285  -30.1252    3.4217 H   0  0  0  0  0  0  0  0  0  0  0  0
  -47.2149  -29.8583    1.9631 H   0  0  0  0  0  0  0  0  0  0  0  0
  -45.5536  -29.2242    2.0652 H   0  0  0  0  0  0  0  0  0  0  0  0
  -42.0646  -30.1943    4.3204 H   0  0  0  0  0  0  0  0  0  0  0  0
  -43.2146  -31.5047    4.0541 H   0  0  0  0  0  0  0  0  0  0  0  0
  1  2  1  0  0  0  0
  1  3  2  0  0  0  0
  2  4  2  0  0  0  0
  3 16  1  0  0  0  0
  4 10  1  0  0  0  0
  4 16  1  0  0  0  0
  5 11  1  0  0  0  0
  5 14  2  0  0  0  0
  5 18  1  0  0  0  0
  6 13  1  0  0  0  0
  6 15  2  0  0  0  0
  6 18  1  0  0  0  0
  7  8  1  0  0  0  0
  7 17  1  0  0  0  0
  8 19  1  0  0  0  0
  9 10  1  0  0  0  0
  9 19  1  0  0  0  0
 10 17  1  0  0  0  0
 12 16  1  0  0  0  0
 13 17  1  0  0  0  0
 14 15  1  0  0  0  0
  1 20  1  0  0  0  0
  2 21  1  0  0  0  0
  3 22  1  0  0  0  0
  7 23  1  0  0  0  0
  7 24  1  0  0  0  0
  8 25  1  0  0  0  0
  8 26  1  0  0  0  0
  9 27  1  0  0  0  0
  9 28  1  0  0  0  0
 10 29  1  0  0  0  0
 11 30  1  0  0  0  0
 11 31  1  0  0  0  0
 11 32  1  0  0  0  0
 12 33  1  0  0  0  0
 12 34  1  0  0  0  0
 12 35  1  0  0  0  0
 13 36  1  0  0  0  0
 13 37  1  0  0  0  0
M  END
> <POSIT::Probability>
0.18

> <POSIT::Method>
HYBRID

> <ReceptorTitle>
UCSF-P4553-REFINED_LIGAND-BOUND-STATE_A__DU__LA1_A-201(A)

> <OMEGA_C>
Gb02wgxgBcLABWQ/tGsxwiJtA8KgFXE/bQM6wvVvAcJYGbM/jZsxwsO2/MFYXb0/zBA2wmZW6MGo
cMxAYK0vwqqv78EAG6xAABkswjt448EsrTRAYpAuwszt3cFgk80/qOgrwi707cHglAM/vRctwjfY
9MFIiOE/HiY7wkaM4sFQkNBA89A4wpKE8MEgBRVAuoIswiRf88EeBYZAOtoywnL368HyU+pAkaYu
wnbM8MFiC9VAftk2wmth+sGAeOA/vkwuwuY/7sGg+TxA3lI0wgtj6sFYAaRA2EcvwlbH5MHg7/M+
KQs4wi46CcJwHgY/o9ktwnqABcKg4h4/sU0+wgZQAcIIscQ/HcEnwj7J48HohyxAn/8swrW13sGI
fW1AVnYywkAg2sFghO4/pO8rwj4+18H4XaQ/ZMInwgUe68Gw+Qk/nmMswk6G8sFAYtW+TXMpwuq8
+cH4Bf4/Z5Y6wl3F2cGapNFA9E89wt6g5MH8Ue5ARtw9wnpK5MHAgrVA/+k4wmoA8cHc/FpABtw8
wtjd7sEIRvs/7zY2whTL6cFILARALUIowvaN8cF0QIpAvNsswrIJ/MHiuoFA

> <OMEGA_E>
iynNwA==

> <OMEGA_NBR>
     25069

$$$$
CACHE3HI_1707_62
  -OEChem-03092622503D

 32 33  0     0  0  0  0  0  0999 V2000
  -43.6918  -31.5681    2.8792 C   0  0  0  0  0  0  0  0  0  0  0  0
  -46.5218  -28.9922    6.3365 C   0  0  0  0  0  0  0  0  0  0  0  0
  -45.5741  -29.3801    3.9738 C   0  0  0  0  0  0  0  0  0  0  0  0
  -48.5767  -28.0282    5.6849 C   0  0  0  0  0  0  0  0  0  0  0  0
  -47.7858  -28.3691    4.4382 C   0  0  0  0  0  0  0  0  0  0  0  0
  -43.1044  -30.9079   -0.1572 C   0  0  0  0  0  0  0  0  0  0  0  0
  -45.3978  -30.1882    0.6035 C   0  0  0  0  0  0  0  0  0  0  0  0
  -44.1448  -29.3009    4.4393 C   0  0  0  0  0  0  0  0  0  0  0  0
  -44.4288  -31.3642    0.4611 C   0  0  0  0  0  0  0  0  0  0  0  0
  -43.7008  -32.5387    3.7636 N   0  0  0  0  0  0  0  0  0  0  0  0
  -44.2530  -33.6232    3.1188 N   0  0  0  0  0  0  0  0  0  0  0  0
  -44.5745  -33.3205    1.8669 N   0  0  0  0  0  0  0  0  0  0  0  0
  -44.2228  -32.0357    1.7195 N   0  0  0  0  0  0  0  0  0  0  0  0
  -47.7363  -28.4409    6.7729 N   0  0  0  0  0  0  0  0  0  0  0  0
  -46.5362  -28.9552    4.9019 N   0  0  0  0  0  0  0  0  0  0  0  0
  -45.6396  -29.4152    7.0727 O   0  0  0  0  0  0  0  0  0  0  0  0
  -45.8427  -29.7952    2.8450 O   0  0  0  0  0  0  0  0  0  0  0  0
  -43.0972  -29.8921    3.1017 S   0  0  0  0  0  0  0  0  0  0  0  0
  -48.7672  -26.9555    5.7782 H   0  0  0  0  0  0  0  0  0  0  0  0
  -49.5202  -28.5776    5.7440 H   0  0  0  0  0  0  0  0  0  0  0  0
  -48.3042  -29.0966    3.8044 H   0  0  0  0  0  0  0  0  0  0  0  0
  -47.5600  -27.4832    3.8349 H   0  0  0  0  0  0  0  0  0  0  0  0
  -42.5928  -30.1940    0.4970 H   0  0  0  0  0  0  0  0  0  0  0  0
  -42.4362  -31.7628   -0.3091 H   0  0  0  0  0  0  0  0  0  0  0  0
  -43.2509  -30.4247   -1.1294 H   0  0  0  0  0  0  0  0  0  0  0  0
  -45.0195  -29.4264    1.2937 H   0  0  0  0  0  0  0  0  0  0  0  0
  -45.5629  -29.7055   -0.3654 H   0  0  0  0  0  0  0  0  0  0  0  0
  -46.3709  -30.5255    0.9799 H   0  0  0  0  0  0  0  0  0  0  0  0
  -44.0342  -29.9276    5.3194 H   0  0  0  0  0  0  0  0  0  0  0  0
  -43.9180  -28.2645    4.6719 H   0  0  0  0  0  0  0  0  0  0  0  0
  -44.8846  -32.0732   -0.2429 H   0  0  0  0  0  0  0  0  0  0  0  0
  -47.9924  -28.3446    7.7504 H   0  0  0  0  0  0  0  0  0  0  0  0
  1 10  2  0  0  0  0
  1 13  1  0  0  0  0
  1 18  1  0  0  0  0
  2 14  1  0  0  0  0
  2 15  1  0  0  0  0
  2 16  2  0  0  0  0
  3  8  1  0  0  0  0
  3 15  1  0  0  0  0
  3 17  2  0  0  0  0
  4  5  1  0  0  0  0
  4 14  1  0  0  0  0
  5 15  1  0  0  0  0
  6  9  1  0  0  0  0
  7  9  1  0  0  0  0
  8 18  1  0  0  0  0
  9 13  1  0  0  0  0
 10 11  1  0  0  0  0
 11 12  2  0  0  0  0
 12 13  1  0  0  0  0
  4 19  1  0  0  0  0
  4 20  1  0  0  0  0
  5 21  1  0  0  0  0
  5 22  1  0  0  0  0
  6 23  1  0  0  0  0
  6 24  1  0  0  0  0
  6 25  1  0  0  0  0
  7 26  1  0  0  0  0
  7 27  1  0  0  0  0
  7 28  1  0  0  0  0
  8 29  1  0  0  0  0
  8 30  1  0  0  0  0
  9 31  1  0  0  0  0
 14 32  1  0  0  0  0
M  END
> <POSIT::Probability>
0.33

> <POSIT::Method>
HYBRID

> <ReceptorTitle>
UCSF-P4553-REFINED_LIGAND-BOUND-STATE_A__DU__LA1_A-201(A)

> <OMEGA_C>
bsQuwniL/MF1RDhAUxY6whPw58H8xMpA5Es2woQK68EfUn5Af05Cwqw54MHJ6rVArCQ/wtzz4sGX
BY5A42oswm5D98GABSG+UZc1wlqB8cHcgRo/P5QwwjJo6sGaDo5AELcxwuHp+sFAGew+ns0uwqcn
AsKs3nBABwMxwit+BsK4mUdASEwywitIBcLk9u4/JOQwwoIkAMK+F9w/AfI+wviG48GOu9hAGyU6
wiqk58Gj3JxA/442wm5S68E2U+JA9l43wn1c7sGPFDZAg2MswhIj78HSgkZAnBFDwu+k18HK5rhA
phRGwvme5MGLzrdAdTdBwuDF6ME5e3NAfD0+wrDd28HDb3VA/F4qwlGN8cGIcf4+qL4pwkAa/sFA
PJ6+7wAtwtdl88H5jpC/9BM0wi5p68FqmKU/YEA2wvGk7cGoFbu+1Hs5wjw09MHc13o/DSMwwr5r
78E/OKpABawvwq0d4sE2gJVA1okzwvNKAMLQs3i+NPg/wsLB4sGUA/hA

> <OMEGA_E>
jQPxwA==

> <OMEGA_NBR>
     26199

$$$$
CACHE3HI_1707_71
  -OEChem-03092622503D

 56 57  0     0  0  0  0  0  0999 V2000
  -45.7914  -29.3520    4.3338 C   0  0  0  0  0  0  0  0  0  0  0  0
  -46.7471  -29.3556    2.0076 C   0  0  0  0  0  0  0  0  0  0  0  0
  -45.2989  -30.7794    4.1128 C   0  0  0  0  0  0  0  0  0  0  0  0
  -46.2398  -30.7826    1.8211 C   0  0  0  0  0  0  0  0  0  0  0  0
  -41.6191  -31.3024    2.3888 C   0  0  0  0  0  0  0  0  0  0  0  0
  -43.0523  -30.6329    0.5044 C   0  0  0  0  0  0  0  0  0  0  0  0
  -41.8607  -29.9285    2.9955 C   0  0  0  0  0  0  0  0  0  0  0  0
  -43.2355  -29.2859    1.1874 C   0  0  0  0  0  0  0  0  0  0  0  0
  -47.0188  -29.0069    3.4779 C   0  0  0  0  0  0  0  0  0  0  0  0
  -52.8988  -30.2531    6.3050 C   0  0  0  0  0  0  0  0  0  0  0  0
  -52.8099  -28.3004    3.4241 C   0  0  0  0  0  0  0  0  0  0  0  0
  -48.2868  -29.6868    4.0001 C   0  0  0  0  0  0  0  0  0  0  0  0
  -48.8523  -28.9473    5.2106 C   0  0  0  0  0  0  0  0  0  0  0  0
  -52.1931  -30.6081    5.0076 C   0  0  0  0  0  0  0  0  0  0  0  0
  -51.7836  -28.2863    4.5439 C   0  0  0  0  0  0  0  0  0  0  0  0
  -50.1389  -29.5847    5.7192 C   0  0  0  0  0  0  0  0  0  0  0  0
  -45.0272  -30.9978    2.6628 N   0  0  0  0  0  0  0  0  0  0  0  0
  -42.7733  -31.6813    1.5261 N   0  0  0  0  0  0  0  0  0  0  0  0
  -51.1700  -29.6082    4.6918 N   0  0  0  0  0  0  0  0  0  0  0  0
  -44.8482  -33.1769    1.3068 O   0  0  0  0  0  0  0  0  0  0  0  0
  -43.6701  -33.0045    3.5322 O   0  0  0  0  0  0  0  0  0  0  0  0
  -42.0797  -28.9624    1.9645 O   0  0  0  0  0  0  0  0  0  0  0  0
  -44.1175  -32.4020    2.2917 S   0  0  0  0  0  0  0  0  0  0  0  0
  -46.0367  -29.2153    5.4014 H   0  0  0  0  0  0  0  0  0  0  0  0
  -44.9725  -28.6474    4.1143 H   0  0  0  0  0  0  0  0  0  0  0  0
  -46.0112  -28.6509    1.5855 H   0  0  0  0  0  0  0  0  0  0  0  0
  -47.6723  -29.2211    1.4198 H   0  0  0  0  0  0  0  0  0  0  0  0
  -44.3880  -30.9693    4.6930 H   0  0  0  0  0  0  0  0  0  0  0  0
  -46.0734  -31.4782    4.4484 H   0  0  0  0  0  0  0  0  0  0  0  0
  -47.0253  -31.4819    2.1280 H   0  0  0  0  0  0  0  0  0  0  0  0
  -45.9986  -30.9738    0.7690 H   0  0  0  0  0  0  0  0  0  0  0  0
  -40.6975  -31.2836    1.7905 H   0  0  0  0  0  0  0  0  0  0  0  0
  -41.5058  -32.0561    3.1828 H   0  0  0  0  0  0  0  0  0  0  0  0
  -43.9631  -30.9081   -0.0487 H   0  0  0  0  0  0  0  0  0  0  0  0
  -42.2162  -30.5741   -0.2067 H   0  0  0  0  0  0  0  0  0  0  0  0
  -42.7536  -29.9498    3.6283 H   0  0  0  0  0  0  0  0  0  0  0  0
  -41.0168  -29.6085    3.6183 H   0  0  0  0  0  0  0  0  0  0  0  0
  -43.4183  -28.4860    0.4595 H   0  0  0  0  0  0  0  0  0  0  0  0
  -44.0939  -29.3232    1.8654 H   0  0  0  0  0  0  0  0  0  0  0  0
  -47.1786  -27.9100    3.5419 H   0  0  0  0  0  0  0  0  0  0  0  0
  -53.3731  -29.2704    6.2192 H   0  0  0  0  0  0  0  0  0  0  0  0
  -52.1948  -30.2154    7.1431 H   0  0  0  0  0  0  0  0  0  0  0  0
  -53.6783  -30.9844    6.5448 H   0  0  0  0  0  0  0  0  0  0  0  0
  -53.5915  -29.0360    3.6388 H   0  0  0  0  0  0  0  0  0  0  0  0
  -52.3500  -28.5673    2.4667 H   0  0  0  0  0  0  0  0  0  0  0  0
  -53.2887  -27.3215    3.3135 H   0  0  0  0  0  0  0  0  0  0  0  0
  -49.0287  -29.7149    3.1964 H   0  0  0  0  0  0  0  0  0  0  0  0
  -48.0464  -30.7214    4.2625 H   0  0  0  0  0  0  0  0  0  0  0  0
  -48.1075  -28.9347    6.0153 H   0  0  0  0  0  0  0  0  0  0  0  0
  -49.0572  -27.9049    4.9397 H   0  0  0  0  0  0  0  0  0  0  0  0
  -51.7215  -31.5917    5.1012 H   0  0  0  0  0  0  0  0  0  0  0  0
  -52.9205  -30.6613    4.1910 H   0  0  0  0  0  0  0  0  0  0  0  0
  -51.0056  -27.5486    4.3222 H   0  0  0  0  0  0  0  0  0  0  0  0
  -52.2632  -27.9956    5.4843 H   0  0  0  0  0  0  0  0  0  0  0  0
  -50.5322  -29.0441    6.5865 H   0  0  0  0  0  0  0  0  0  0  0  0
  -49.9495  -30.6189    6.0220 H   0  0  0  0  0  0  0  0  0  0  0  0
  1  3  1  0  0  0  0
  1  9  1  0  0  0  0
  2  4  1  0  0  0  0
  2  9  1  0  0  0  0
  3 17  1  0  0  0  0
  4 17  1  0  0  0  0
  5  7  1  0  0  0  0
  5 18  1  0  0  0  0
  6  8  1  0  0  0  0
  6 18  1  0  0  0  0
  7 22  1  0  0  0  0
  8 22  1  0  0  0  0
  9 12  1  0  0  0  0
 10 14  1  0  0  0  0
 11 15  1  0  0  0  0
 12 13  1  0  0  0  0
 13 16  1  0  0  0  0
 14 19  1  0  0  0  0
 15 19  1  0  0  0  0
 16 19  1  0  0  0  0
 17 23  1  0  0  0  0
 18 23  1  0  0  0  0
 20 23  2  0  0  0  0
 21 23  2  0  0  0  0
  1 24  1  0  0  0  0
  1 25  1  0  0  0  0
  2 26  1  0  0  0  0
  2 27  1  0  0  0  0
  3 28  1  0  0  0  0
  3 29  1  0  0  0  0
  4 30  1  0  0  0  0
  4 31  1  0  0  0  0
  5 32  1  0  0  0  0
  5 33  1  0  0  0  0
  6 34  1  0  0  0  0
  6 35  1  0  0  0  0
  7 36  1  0  0  0  0
  7 37  1  0  0  0  0
  8 38  1  0  0  0  0
  8 39  1  0  0  0  0
  9 40  1  0  0  0  0
 10 41  1  0  0  0  0
 10 42  1  0  0  0  0
 10 43  1  0  0  0  0
 11 44  1  0  0  0  0
 11 45  1  0  0  0  0
 11 46  1  0  0  0  0
 12 47  1  0  0  0  0
 12 48  1  0  0  0  0
 13 49  1  0  0  0  0
 13 50  1  0  0  0  0
 14 51  1  0  0  0  0
 14 52  1  0  0  0  0
 15 53  1  0  0  0  0
 15 54  1  0  0  0  0
 16 55  1  0  0  0  0
 16 56  1  0  0  0  0
M  END
> <POSIT::Probability>
0.24

> <POSIT::Method>
FRED

> <ReceptorTitle>
UCSF-P4553-REFINED_LIGAND-BOUND-STATE_A__DU__LA1_A-201(A)

> <OMEGA_C>
Yyo3wtXQ6sHFropA/fw6wj3Y6sH+fABABjI1wio89sE8nINAhfU4ws5C9sHMGOk/+3kmwlBr+sFa
4hhAgzUswjYQ9cEIIQE/Y3Enwqtt78HEtj9ANPEswn1J6sFo/Jc/PRM8wjcO6MGWlV5AY5hTwmkG
8sGwwslAWD1Twkpn4sEaJVtAsyVBwoJ+7cGSAIBAt2hDwvuT58FBvaZAtMVQwnTd9MEtPqBAZyJP
wl5K4sHIZ5FAOY5Iwmet7MFfA7dAzhs0woz798GGaypA3Rcrwjtz/cEcVsM/Cq5Mwqjd7MFPI5ZA
l2QzwiC1BML8Q6c/Oa4uwqEEBMLYDmJAmlEowuWy58HIc/s/SHgwwqCbAcJQqxJAjyU4wu246cER
2KxAzeMzwust5cFlqINAaws4wvU05cGo8co/ZbA+wt7E6cHku7U/XI0xwhTB98EoLZZAMks4wkfT
+8EQWY5A3Bk8wtna+8GKMAhAmv43wlvK98FA30Q/McoiwtBE+sGILuU/5QUmwn85AMKOsktAPNov
wrZD98EASUe9Zd0owryX9MGAnlO+pQMrwjSZ78FkNWhAKREkwi7e7MHYkmdAWKwtwl7j48GwQ+s+
LmAwwtSV6sHoxu4/4bY8wsBH38GIrmJABn5VwsUp6sGgA8dAcsdQwg658cF3lORAi7ZWwhrg98Gf
btFAuF1WwrxJ6MGa4WhAX2ZRws6J5MGi3R1ApCdVwnOS2sGcD1RAbR1EwiG47cFokUxAhi9Awn7F
9cHDZohAF25Awi5658G8fcBAmjpEwiY938ErEp5AzOJOwua7/MHzPKNAma5Twj5K9cHEHIZAuQVM
wpRj3MEdT4pAfQ1RwhL338FYf69A9iBKwkBa6MHmxNJAP8xHwoPz9MEwtMBA

> <OMEGA_E>
7qG5wA==

> <OMEGA_NBR>
     27805

$$$$
CACHE3HI_1707_90
  -OEChem-03092622503D

 45 46  0     0  0  0  0  0  0999 V2000
  -47.6237  -29.6605    3.3866 C   0  0  0  0  0  0  0  0  0  0  0  0
  -47.9969  -31.9621    2.7535 C   0  0  0  0  0  0  0  0  0  0  0  0
  -46.2492  -29.8950    3.4264 C   0  0  0  0  0  0  0  0  0  0  0  0
  -46.6225  -32.1966    2.7933 C   0  0  0  0  0  0  0  0  0  0  0  0
  -48.4975  -30.6942    3.0499 C   0  0  0  0  0  0  0  0  0  0  0  0
  -45.7487  -31.1629    3.1300 C   0  0  0  0  0  0  0  0  0  0  0  0
  -49.9259  -29.5119    5.5630 C   0  0  0  0  0  0  0  0  0  0  0  0
  -51.6229  -28.3714    4.1946 C   0  0  0  0  0  0  0  0  0  0  0  0
  -51.0606  -30.1933    6.3127 C   0  0  0  0  0  0  0  0  0  0  0  0
  -52.6890  -29.0988    5.0001 C   0  0  0  0  0  0  0  0  0  0  0  0
  -44.3167  -32.4248    0.4479 C   0  0  0  0  0  0  0  0  0  0  0  0
  -42.3048  -28.7747    3.0758 C   0  0  0  0  0  0  0  0  0  0  0  0
  -43.9433  -30.9527    0.4764 C   0  0  0  0  0  0  0  0  0  0  0  0
  -43.2839  -29.1032    1.9620 C   0  0  0  0  0  0  0  0  0  0  0  0
  -50.3676  -29.1743    4.1806 N   0  0  0  0  0  0  0  0  0  0  0  0
  -43.4299  -30.5740    1.8172 N   0  0  0  0  0  0  0  0  0  0  0  0
  -50.9044  -31.5899    3.4765 O   0  0  0  0  0  0  0  0  0  0  0  0
  -50.5534  -29.8363    1.7017 O   0  0  0  0  0  0  0  0  0  0  0  0
  -43.8011  -32.8795    2.9548 O   0  0  0  0  0  0  0  0  0  0  0  0
  -43.4983  -30.8532    4.3990 O   0  0  0  0  0  0  0  0  0  0  0  0
  -52.2196  -29.3560    6.3260 O   0  0  0  0  0  0  0  0  0  0  0  0
  -50.2371  -30.3979    2.9981 S   0  0  0  0  0  0  0  0  0  0  0  0
  -44.0283  -31.4558    3.1801 S   0  0  0  0  0  0  0  0  0  0  0  0
  -48.0033  -28.6689    3.6182 H   0  0  0  0  0  0  0  0  0  0  0  0
  -48.6693  -32.7748    2.4915 H   0  0  0  0  0  0  0  0  0  0  0  0
  -45.5769  -29.0826    3.6894 H   0  0  0  0  0  0  0  0  0  0  0  0
  -46.2428  -33.1879    2.5604 H   0  0  0  0  0  0  0  0  0  0  0  0
  -49.6318  -28.5957    6.0940 H   0  0  0  0  0  0  0  0  0  0  0  0
  -49.0520  -30.1785    5.5045 H   0  0  0  0  0  0  0  0  0  0  0  0
  -51.9620  -28.2226    3.1583 H   0  0  0  0  0  0  0  0  0  0  0  0
  -51.4302  -27.3869    4.6439 H   0  0  0  0  0  0  0  0  0  0  0  0
  -51.3306  -31.1294    5.8139 H   0  0  0  0  0  0  0  0  0  0  0  0
  -50.7757  -30.4337    7.3440 H   0  0  0  0  0  0  0  0  0  0  0  0
  -53.6202  -28.5214    5.0510 H   0  0  0  0  0  0  0  0  0  0  0  0
  -52.9183  -30.0623    4.5343 H   0  0  0  0  0  0  0  0  0  0  0  0
  -45.0864  -32.6328    1.1978 H   0  0  0  0  0  0  0  0  0  0  0  0
  -43.4514  -33.0588    0.6686 H   0  0  0  0  0  0  0  0  0  0  0  0
  -44.7127  -32.7140   -0.5316 H   0  0  0  0  0  0  0  0  0  0  0  0
  -41.3254  -29.2119    2.8576 H   0  0  0  0  0  0  0  0  0  0  0  0
  -42.6461  -29.1754    4.0363 H   0  0  0  0  0  0  0  0  0  0  0  0
  -42.1751  -27.6923    3.1826 H   0  0  0  0  0  0  0  0  0  0  0  0
  -43.1735  -30.7526   -0.2759 H   0  0  0  0  0  0  0  0  0  0  0  0
  -44.8185  -30.3422    0.2313 H   0  0  0  0  0  0  0  0  0  0  0  0
  -44.2606  -28.6627    2.1873 H   0  0  0  0  0  0  0  0  0  0  0  0
  -42.9318  -28.6734    1.0185 H   0  0  0  0  0  0  0  0  0  0  0  0
  1  3  2  0  0  0  0
  1  5  1  0  0  0  0
  2  4  1  0  0  0  0
  2  5  2  0  0  0  0
  3  6  1  0  0  0  0
  4  6  2  0  0  0  0
  5 22  1  0  0  0  0
  6 23  1  0  0  0  0
  7  9  1  0  0  0  0
  7 15  1  0  0  0  0
  8 10  1  0  0  0  0
  8 15  1  0  0  0  0
  9 21  1  0  0  0  0
 10 21  1  0  0  0  0
 11 13  1  0  0  0  0
 12 14  1  0  0  0  0
 13 16  1  0  0  0  0
 14 16  1  0  0  0  0
 15 22  1  0  0  0  0
 16 23  1  0  0  0  0
 17 22  2  0  0  0  0
 18 22  2  0  0  0  0
 19 23  2  0  0  0  0
 20 23  2  0  0  0  0
  1 24  1  0  0  0  0
  2 25  1  0  0  0  0
  3 26  1  0  0  0  0
  4 27  1  0  0  0  0
  7 28  1  0  0  0  0
  7 29  1  0  0  0  0
  8 30  1  0  0  0  0
  8 31  1  0  0  0  0
  9 32  1  0  0  0  0
  9 33  1  0  0  0  0
 10 34  1  0  0  0  0
 10 35  1  0  0  0  0
 11 36  1  0  0  0  0
 11 37  1  0  0  0  0
 11 38  1  0  0  0  0
 12 39  1  0  0  0  0
 12 40  1  0  0  0  0
 12 41  1  0  0  0  0
 13 42  1  0  0  0  0
 13 43  1  0  0  0  0
 14 44  1  0  0  0  0
 14 45  1  0  0  0  0
M  END
> <POSIT::Probability>
0.24

> <POSIT::Method>
FRED

> <ReceptorTitle>
UCSF-P4553-REFINED_LIGAND-BOUND-STATE_A__DU__LA1_A-201(A)

> <OMEGA_C>
pX4+wqRI7cFcvVhA3vw/wlyy/8EIOTBANf84wu8o78HwSVtAfH06wljJAMJwxTJAbv1BwrKN9cHc
MUNApP42wphN+cEgUUhAE7RHwmMY7MHwA7JA0n1Owoz44sGGOoZADT5MwtmL8cFSAcpAjcFSwkvK
6MHMAKBAU0QxwvmyAcLAU+U+EzgpwoIy5sFA2kRA8MUvwgef98GA5/M+vyItwl/T6MFYIfs/a3hJ
wvtk6cGwx4VAQLgtwpCX9ME4meg/Ep5Lwha4/MHgfl5AuDZKwraw7sHY0tk/SjQvwpWEA8KYGz1A
R/4twk/T9sFUxIxA6+BQwibZ6sG0bspAy/JIwtIu88F44T9A+xwwwmyl+8FshktAWQNAwuNZ5cFk
kGdAUK1CwmEZA8IAdR9AvU42wjKp6MGMH2xAp/g4wmDABML43CNA64ZGwhjE5MEkAsNAQTVEwoxt
8cEoJbBAHdlPwtLH4cHoIEpAjLhNwmgY28G8mpRAlFJNwgAJ+cHgC7pAURpLwiR488EUAutAE3tW
wuYr5MHYoaFAXKxTwqh/8MEyGZFAfFg0wvCHAsIwUpk/MM4twjM8BMJwKSs/ztkywiPbAsJAFAi/
K00lwv+x6cE04jZAmpUqwjpn6cEAKYFAS7MowsKJ3cHIr0tAobEswk4F9sFASY2+KkYzwr688sFA
0Gw+2Aoxwk5N5cE0/QtAL7orwjhj5cEYXoI/

> <OMEGA_E>
iIW9wA==

> <OMEGA_NBR>
     29191

$$$$
CACHE3HI_1708_47
  -OEChem-03092622503D

 40 41  0     1  0  0  0  0  0999 V2000
  -43.5548  -29.3520    6.0942 C   0  0  0  0  0  0  0  0  0  0  0  0
  -45.1139  -29.2360    4.5485 C   0  0  0  0  0  0  0  0  0  0  0  0
  -43.7535  -29.3506    4.7005 C   0  0  0  0  0  0  0  0  0  0  0  0
  -45.6875  -32.4049    2.3467 C   0  0  0  0  0  0  0  0  0  0  0  0
  -44.0702  -31.1214    2.4707 C   0  0  0  0  0  0  0  0  0  0  0  0
  -49.3975  -29.1403    5.3318 C   0  0  0  0  0  0  0  0  0  0  0  0
  -47.6230  -33.8419    3.0819 C   0  0  0  0  0  0  0  0  0  0  0  0
  -47.0031  -33.7150    0.6412 C   0  0  0  0  0  0  0  0  0  0  0  0
  -41.7283  -30.4931    1.7775 C   0  0  0  0  0  0  0  0  0  0  0  0
  -47.9328  -29.3113    4.9630 C   0  0  0  0  0  0  0  0  0  0  0  0
  -47.0212  -29.0569    6.1642 C   0  0  0  0  0  0  0  0  0  0  0  0
  -47.0497  -32.9583    1.9717 C   0  0  0  0  0  0  0  0  0  0  0  0
  -43.0673  -30.0496    2.4060 C   0  0  2  0  0  0  0  0  0  0  0  0
  -44.6970  -29.2466    6.7783 N   0  0  0  0  0  0  0  0  0  0  0  0
  -45.2578  -31.1810    1.9230 N   0  0  0  0  0  0  0  0  0  0  0  0
  -44.8333  -33.0867    3.1154 N   0  0  0  0  0  0  0  0  0  0  0  0
  -45.6271  -29.1779    5.8108 N   0  0  0  0  0  0  0  0  0  0  0  0
  -42.8043  -29.4428    3.7088 N   0  0  0  0  0  0  0  0  0  0  0  0
  -43.7375  -32.2186    3.2000 O   0  0  0  0  0  0  0  0  0  0  0  0
  -42.6266  -29.4251    6.6432 H   0  0  0  0  0  0  0  0  0  0  0  0
  -45.7461  -29.1918    3.6718 H   0  0  0  0  0  0  0  0  0  0  0  0
  -49.5899  -28.1352    5.7213 H   0  0  0  0  0  0  0  0  0  0  0  0
  -50.0427  -29.3019    4.4624 H   0  0  0  0  0  0  0  0  0  0  0  0
  -49.6807  -29.8630    6.1041 H   0  0  0  0  0  0  0  0  0  0  0  0
  -46.9760  -34.7063    3.2683 H   0  0  0  0  0  0  0  0  0  0  0  0
  -47.7067  -33.2786    4.0177 H   0  0  0  0  0  0  0  0  0  0  0  0
  -48.6206  -34.2202    2.8320 H   0  0  0  0  0  0  0  0  0  0  0  0
  -46.3228  -34.5713    0.7096 H   0  0  0  0  0  0  0  0  0  0  0  0
  -47.9953  -34.0952    0.3729 H   0  0  0  0  0  0  0  0  0  0  0  0
  -46.6554  -33.0791   -0.1805 H   0  0  0  0  0  0  0  0  0  0  0  0
  -41.2957  -31.3405    2.3205 H   0  0  0  0  0  0  0  0  0  0  0  0
  -41.8816  -30.8026    0.7374 H   0  0  0  0  0  0  0  0  0  0  0  0
  -40.9832  -29.6894    1.7861 H   0  0  0  0  0  0  0  0  0  0  0  0
  -47.7755  -30.3259    4.5776 H   0  0  0  0  0  0  0  0  0  0  0  0
  -47.6847  -28.6207    4.1472 H   0  0  0  0  0  0  0  0  0  0  0  0
  -47.2548  -29.7622    6.9718 H   0  0  0  0  0  0  0  0  0  0  0  0
  -47.2075  -28.0568    6.5750 H   0  0  0  0  0  0  0  0  0  0  0  0
  -47.7439  -32.1175    1.8387 H   0  0  0  0  0  0  0  0  0  0  0  0
  -43.4229  -29.1942    1.7913 H   0  0  0  0  0  0  0  0  0  0  0  0
  -41.8796  -29.0813    3.8703 H   0  0  0  0  0  0  0  0  0  0  0  0
  1  3  1  0  0  0  0
  1 14  2  0  0  0  0
  2  3  2  0  0  0  0
  2 17  1  0  0  0  0
  3 18  1  0  0  0  0
  4 12  1  0  0  0  0
  4 15  1  0  0  0  0
  4 16  2  0  0  0  0
  5 13  1  0  0  0  0
  5 15  2  0  0  0  0
  5 19  1  0  0  0  0
  6 10  1  0  0  0  0
  7 12  1  0  0  0  0
  8 12  1  0  0  0  0
  9 13  1  0  0  0  0
 10 11  1  0  0  0  0
 11 17  1  0  0  0  0
 13 18  1  0  0  0  0
 14 17  1  0  0  0  0
 16 19  1  0  0  0  0
  1 20  1  0  0  0  0
  2 21  1  0  0  0  0
  6 22  1  0  0  0  0
  6 23  1  0  0  0  0
  6 24  1  0  0  0  0
  7 25  1  0  0  0  0
  7 26  1  0  0  0  0
  7 27  1  0  0  0  0
  8 28  1  0  0  0  0
  8 29  1  0  0  0  0
  8 30  1  0  0  0  0
  9 31  1  0  0  0  0
  9 32  1  0  0  0  0
  9 33  1  0  0  0  0
 10 34  1  0  0  0  0
 10 35  1  0  0  0  0
 11 36  1  0  0  0  0
 11 37  1  0  0  0  0
 12 38  1  0  0  0  0
 13 39  1  0  0  0  0
 18 40  1  0  0  0  0
M  END
> <POSIT::Probability>
0.33

> <POSIT::Method>
HYBRID

> <ReceptorTitle>
UCSF-P4553-REFINED_LIGAND-BOUND-STATE_A__DU__LA1_A-201(A)

> <OMEGA_C>
Ezguwv7Q6sFgA8NAqHQ0wmHj6cE8jZFAjAMvwgXO6sEuapZA/r82wpSeAcIqMBZA3EcwwqP4+MGO
Hx5AEpdFwkQf6cF+nqpA/n0+wiJeB8JyPkVAJQM8wjbcBsKoJyQ/0ukmwszx88EIheM/L7s/wnJ9
6sGY0J5AtxU8wnp06MEIQcVA4zI8wkPVA8KmX/w/4EQswoZl8MH7+xlAuckywvD46cGS59hA8gc1
wrJy+cHkJPY/QlUzwtRYBMKzYkdAMYI2wkhs6cH88blAozcrwvCK68FzXG1ANvMuws/fAMISzExA
pIEqwpBm68F2ldRA9vs2wriI6cFA/2pAE1xGwvIU4cGOFLdAtitIwjpq6sHuy45AAblGwnzn7sHQ
VMNAZec7wkLTCsIhK1FApdM+wkcdBcJUkYBAi3tCwnvhCMI5PzVAjUo5wv9ICsK0pzU/MPs/wndh
CMJw674+Jp86wgZRBMIQ1ji+xy4lwk25+sF8gxRAvIYnwsdr9sHkxTw/1u4jwtCD7cHUnuQ/IRo/
wnmb8sH3e5JAH70+wjb35MHWtYRA3gQ9whAZ7sEcGd9AedQ8wjt04MHOZtJAwvk+wlR4AMJ4W+s/
CLEtwryN6cHuSuU/rYQnwnmm6MHYsndA

> <OMEGA_E>
mli8wA==

> <OMEGA_NBR>
     30484

$$$$
CACHE3HI_1708_56
  -OEChem-03092622503D

 32 34  0     1  0  0  0  0  0999 V2000
  -44.3115  -32.4845   -0.6242 C   0  0  0  0  0  0  0  0  0  0  0  0
  -44.3623  -33.7980   -1.1052 C   0  0  0  0  0  0  0  0  0  0  0  0
  -46.2498  -34.3286    0.3398 C   0  0  0  0  0  0  0  0  0  0  0  0
  -47.4655  -29.2233    5.6028 C   0  0  0  0  0  0  0  0  0  0  0  0
  -45.2434  -32.0916    0.3512 C   0  0  0  0  0  0  0  0  0  0  0  0
  -46.1807  -33.0153    0.8050 C   0  0  0  0  0  0  0  0  0  0  0  0
  -45.3144  -34.7033   -0.6306 C   0  0  0  0  0  0  0  0  0  0  0  0
  -46.3524  -29.1605    4.8028 C   0  0  0  0  0  0  0  0  0  0  0  0
  -46.4201  -31.0537    1.8000 C   0  0  0  0  0  0  0  0  0  0  0  0
  -44.8195  -29.0088    2.8047 C   0  0  0  0  0  0  0  0  0  0  0  0
  -48.0303  -32.8587    2.4887 C   0  0  0  0  0  0  0  0  0  0  0  0
  -46.2647  -29.0631    3.2957 C   0  0  1  0  0  0  0  0  0  0  0  0
  -45.4071  -30.8783    0.9805 N   0  0  0  0  0  0  0  0  0  0  0  0
  -45.2264  -29.2000    5.5772 N   0  0  0  0  0  0  0  0  0  0  0  0
  -45.6078  -29.2864    6.8469 N   0  0  0  0  0  0  0  0  0  0  0  0
  -46.9505  -29.3002    6.8604 N   0  0  0  0  0  0  0  0  0  0  0  0
  -46.9199  -32.3237    1.7307 N   0  0  0  0  0  0  0  0  0  0  0  0
  -46.9808  -30.1609    2.6498 N   0  0  0  0  0  0  0  0  0  0  0  0
  -45.3400  -36.3116   -1.2507 Cl  0  0  0  0  0  0  0  0  0  0  0  0
  -43.5668  -31.7901   -0.9997 H   0  0  0  0  0  0  0  0  0  0  0  0
  -43.6412  -34.1035   -1.8602 H   0  0  0  0  0  0  0  0  0  0  0  0
  -46.9940  -35.0226    0.7167 H   0  0  0  0  0  0  0  0  0  0  0  0
  -48.5276  -29.2211    5.4054 H   0  0  0  0  0  0  0  0  0  0  0  0
  -44.2514  -29.8957    3.1061 H   0  0  0  0  0  0  0  0  0  0  0  0
  -44.7768  -28.9369    1.7120 H   0  0  0  0  0  0  0  0  0  0  0  0
  -44.3033  -28.1370    3.2226 H   0  0  0  0  0  0  0  0  0  0  0  0
  -47.6851  -33.2993    3.4301 H   0  0  0  0  0  0  0  0  0  0  0  0
  -48.5451  -33.6287    1.9057 H   0  0  0  0  0  0  0  0  0  0  0  0
  -48.7456  -32.0699    2.7436 H   0  0  0  0  0  0  0  0  0  0  0  0
  -46.7689  -28.1493    2.9593 H   0  0  0  0  0  0  0  0  0  0  0  0
  -47.4348  -29.3607    7.7478 H   0  0  0  0  0  0  0  0  0  0  0  0
  -47.9815  -30.2338    2.8784 H   0  0  0  0  0  0  0  0  0  0  0  0
  1  2  2  0  0  0  0
  1  5  1  0  0  0  0
  2  7  1  0  0  0  0
  3  6  1  0  0  0  0
  3  7  2  0  0  0  0
  4  8  2  0  0  0  0
  4 16  1  0  0  0  0
  5  6  2  0  0  0  0
  5 13  1  0  0  0  0
  6 17  1  0  0  0  0
  7 19  1  0  0  0  0
  8 12  1  0  0  0  0
  8 14  1  0  0  0  0
  9 13  2  0  0  0  0
  9 17  1  0  0  0  0
  9 18  1  0  0  0  0
 10 12  1  0  0  0  0
 11 17  1  0  0  0  0
 12 18  1  0  0  0  0
 14 15  2  0  0  0  0
 15 16  1  0  0  0  0
  1 20  1  0  0  0  0
  2 21  1  0  0  0  0
  3 22  1  0  0  0  0
  4 23  1  0  0  0  0
 10 24  1  0  0  0  0
 10 25  1  0  0  0  0
 10 26  1  0  0  0  0
 11 27  1  0  0  0  0
 11 28  1  0  0  0  0
 11 29  1  0  0  0  0
 12 30  1  0  0  0  0
 16 31  1  0  0  0  0
 18 32  1  0  0  0  0
M  END
> <POSIT::Probability>
0.18

> <POSIT::Method>
HYBRID

> <ReceptorTitle>
UCSF-P4553-REFINED_LIGAND-BOUND-STATE_A__DU__LA1_A-201(A)

> <OMEGA_C>
+z4xwiDwAcLYyB+/AnMxwisxB8JMd42/zP84wnlQCcIg/q0+stw9wk/J6cEuSrNAOvk0wshdAMJQ
zrM+Fbk4wqAPBMLoE04/6kE1wirQCsJocCG/1Wg5ws5I6cGjsJlAK645wvpt+ME2ZeY/NEczwgoS
6MGugDNA/h5Awk9vA8LzRh9AEA85wiSB6MGD7FJA66A1wr4G98EYAns/yuc0wqeZ6cGVeLJAXm42
wnhK6sGfGdtAUs07wrxm6sGeiNtA/q07woJLAcJCh90/Xuw7wpdJ8cHolilAHVw1whY/EcIQF6C/
ckQuwgpS/sEw7X+/k5AuwvRpCMLIG+6/0vk7wigXDMLgeDc/RRxCwtTE6cHi+KxAcAExwmgq78H9
yUZAeBszwt1+58GgIds/lTYxwoYY4cHTPk5AkL0+woIyBcI6hltALi5Cws6DBsLo7vM/c/tCwolH
AMIcly9AWhM7ws4x4cFlZT1ANL09wsTi6sHy7fdAFO0/wuTe8cEkNzhA

> <OMEGA_E>
9E3UwA==

> <OMEGA_NBR>
     31624

$$$$
CACHE3HI_1879_14
  -OEChem-03092622503D

 49 51  0     1  0  0  0  0  0999 V2000
  -45.7579  -31.4939    0.6024 C   0  0  0  0  0  0  0  0  0  0  0  0
  -43.4537  -30.8722    0.2259 C   0  0  0  0  0  0  0  0  0  0  0  0
  -45.5374  -32.7053   -0.0530 C   0  0  0  0  0  0  0  0  0  0  0  0
  -43.2332  -32.0835   -0.4295 C   0  0  0  0  0  0  0  0  0  0  0  0
  -46.6012  -29.2074    5.2867 C   0  0  0  0  0  0  0  0  0  0  0  0
  -47.1214  -30.7948    3.7765 C   0  0  0  0  0  0  0  0  0  0  0  0
  -44.7158  -30.5774    0.7419 C   0  0  0  0  0  0  0  0  0  0  0  0
  -44.2754  -33.0001   -0.5691 C   0  0  0  0  0  0  0  0  0  0  0  0
  -46.0652  -30.1063    4.3317 C   0  0  0  0  0  0  0  0  0  0  0  0
  -47.9686  -29.3736    5.2858 C   0  0  0  0  0  0  0  0  0  0  0  0
  -43.0910  -34.3774   -2.2814 C   0  0  0  0  0  0  0  0  0  0  0  0
  -48.9319  -28.6818    6.0867 C   0  0  0  0  0  0  0  0  0  0  0  0
  -44.2446  -36.7108   -1.1351 C   0  0  0  0  0  0  0  0  0  0  0  0
  -44.9205  -35.3798   -0.8945 C   0  0  0  0  0  0  0  0  0  0  0  0
  -43.7794  -36.7387   -2.5659 C   0  0  0  0  0  0  0  0  0  0  0  0
  -44.6940  -28.0638    0.5405 C   0  0  0  0  0  0  0  0  0  0  0  0
  -49.6006  -30.8208    4.0478 C   0  0  0  0  0  0  0  0  0  0  0  0
  -44.9516  -29.2809    1.4403 C   0  0  2  0  0  0  0  0  0  0  0  0
  -48.2734  -30.3408    4.3643 N   0  0  0  0  0  0  0  0  0  0  0  0
  -44.0469  -34.2560   -1.2483 N   0  0  0  0  0  0  0  0  0  0  0  0
  -44.1692  -29.1710    2.6592 N   0  0  0  0  0  0  0  0  0  0  0  0
  -42.4072  -33.4557   -2.7266 O   0  0  0  0  0  0  0  0  0  0  0  0
  -50.1695  -28.8518    6.0665 O   0  0  0  0  0  0  0  0  0  0  0  0
  -44.1803  -31.6446    3.3883 O   0  0  0  0  0  0  0  0  0  0  0  0
  -43.5935  -29.8819    5.0821 O   0  0  0  0  0  0  0  0  0  0  0  0
  -42.9246  -35.6188   -2.8495 O   0  0  0  0  0  0  0  0  0  0  0  0
  -48.3743  -27.7604    6.9337 O   0  0  0  0  0  0  0  0  0  0  0  0
  -44.3566  -30.3090    3.9256 S   0  0  0  0  0  0  0  0  0  0  0  0
  -46.7443  -31.2727    1.0009 H   0  0  0  0  0  0  0  0  0  0  0  0
  -42.6361  -30.1635    0.3298 H   0  0  0  0  0  0  0  0  0  0  0  0
  -46.3568  -33.4124   -0.1560 H   0  0  0  0  0  0  0  0  0  0  0  0
  -42.2456  -32.3023   -0.8278 H   0  0  0  0  0  0  0  0  0  0  0  0
  -46.0496  -28.5141    5.9076 H   0  0  0  0  0  0  0  0  0  0  0  0
  -47.1500  -31.5649    3.0171 H   0  0  0  0  0  0  0  0  0  0  0  0
  -43.4011  -36.8452   -0.4506 H   0  0  0  0  0  0  0  0  0  0  0  0
  -44.9598  -37.5216   -0.9521 H   0  0  0  0  0  0  0  0  0  0  0  0
  -45.8406  -35.3163   -1.4876 H   0  0  0  0  0  0  0  0  0  0  0  0
  -45.1872  -35.2657    0.1636 H   0  0  0  0  0  0  0  0  0  0  0  0
  -43.2272  -37.6555   -2.8002 H   0  0  0  0  0  0  0  0  0  0  0  0
  -44.6356  -36.6819   -3.2453 H   0  0  0  0  0  0  0  0  0  0  0  0
  -43.6681  -28.0561    0.1562 H   0  0  0  0  0  0  0  0  0  0  0  0
  -45.3751  -28.0663   -0.3182 H   0  0  0  0  0  0  0  0  0  0  0  0
  -44.8411  -27.1256    1.0876 H   0  0  0  0  0  0  0  0  0  0  0  0
  -49.8728  -31.6680    4.6862 H   0  0  0  0  0  0  0  0  0  0  0  0
  -49.6442  -31.1384    3.0013 H   0  0  0  0  0  0  0  0  0  0  0  0
  -50.3486  -30.0383    4.2120 H   0  0  0  0  0  0  0  0  0  0  0  0
  -45.9991  -29.2108    1.7812 H   0  0  0  0  0  0  0  0  0  0  0  0
  -43.8221  -28.2287    2.9096 H   0  0  0  0  0  0  0  0  0  0  0  0
  -49.0266  -27.2804    7.4880 H   0  0  0  0  0  0  0  0  0  0  0  0
  1  3  2  0  0  0  0
  1  7  1  0  0  0  0
  2  4  1  0  0  0  0
  2  7  2  0  0  0  0
  3  8  1  0  0  0  0
  4  8  2  0  0  0  0
  5  9  1  0  0  0  0
  5 10  2  0  0  0  0
  6  9  2  0  0  0  0
  6 19  1  0  0  0  0
  7 18  1  0  0  0  0
  8 20  1  0  0  0  0
  9 28  1  0  0  0  0
 10 12  1  0  0  0  0
 10 19  1  0  0  0  0
 11 20  1  0  0  0  0
 11 22  2  0  0  0  0
 11 26  1  0  0  0  0
 12 23  2  0  0  0  0
 12 27  1  0  0  0  0
 13 14  1  0  0  0  0
 13 15  1  0  0  0  0
 14 20  1  0  0  0  0
 15 26  1  0  0  0  0
 16 18  1  0  0  0  0
 17 19  1  0  0  0  0
 18 21  1  0  0  0  0
 21 28  1  0  0  0  0
 24 28  2  0  0  0  0
 25 28  2  0  0  0  0
  1 29  1  0  0  0  0
  2 30  1  0  0  0  0
  3 31  1  0  0  0  0
  4 32  1  0  0  0  0
  5 33  1  0  0  0  0
  6 34  1  0  0  0  0
 13 35  1  0  0  0  0
 13 36  1  0  0  0  0
 14 37  1  0  0  0  0
 14 38  1  0  0  0  0
 15 39  1  0  0  0  0
 15 40  1  0  0  0  0
 16 41  1  0  0  0  0
 16 42  1  0  0  0  0
 16 43  1  0  0  0  0
 17 44  1  0  0  0  0
 17 45  1  0  0  0  0
 17 46  1  0  0  0  0
 18 47  1  0  0  0  0
 21 48  1  0  0  0  0
 27 49  1  0  0  0  0
M  END
> <POSIT::Probability>
0.24

> <POSIT::Method>
FRED

> <ReceptorTitle>
UCSF-P4553-REFINED_LIGAND-BOUND-STATE_A__DU__LA1_A-201(A)

> <OMEGA_C>
FAg3wpXz+8EXNho/m9AtwjX69sF0U2c+VSY2wkfSAsLwQVm91e4swolVAMIk6Nu+rGc6wr+o6cHy
LKlAXHw8wqZb9sEesnFA+twywoye9MGK7j0/9hkxwhwABMLIrRG/t0I4wqnZ8MEUnYpA4t8/wib9
6sGpJalAJ10swniCCcIcAhLATbpDwm105cHexcJAevowwunXEsIGS5G/l64zwvSEDcJQ+2S/HB4v
wmT0EsIINyTAocYywpiC4MH2Wwo/B2dGwv+Q9sFih4FAd84zwkA/6sEVXbg//RdBwv658sEqqItA
DTAwwiwGCcJMyJ+/R60wwjxe6cHYMCpA/aApwqnSBcJhgS7AlK1Iwn7Q5sHOIMJAprgwwhUo/cE0
2VhAuV8uwigO78HJoKJAzrIrwq55DsL5XjbAUn9BwlEV3sHR4N1AJ20xwtp48sG1PXtAM/o6wm8u
+sHtHIA/WosqwtZO8cGK3ag+Xm05wlSmBcJwxx++hPsowow1AcJc6FO/vzI4wucc5MG8Cr1AlJk8
wu2E/MFhF0FAtpotwolhE8KQtea+zNYzwiQWFsJ8u3O/yVw3wuRDDcKiab6/tL80whYQDcKkjic+
oOgswkafFsIENjPA3Yoywje6EsKMsk/AIqwuwtpy4MHo6B8+FYA1wreH4MHA5KK+UV0zwjkB2cEd
N4s/w31HwglY/cGY9ZVAoJNGwm8b+cGmFUBABGVJwlpO8MFoyIZAFf83wtKv6cHg/+M/10kvwmTU
4cFeNzpARRtEwlc+2sF3ne9A

> <OMEGA_E>
xGLqwA==

> <OMEGA_NBR>
     33096

$$$$
CACHE3HI_1695_39
  -OEChem-03092622503D

 40 42  0     1  0  0  0  0  0999 V2000
  -45.0614  -30.5848    2.3761 C   0  0  0  0  0  0  0  0  0  0  0  0
  -44.0549  -30.2766    1.4608 C   0  0  0  0  0  0  0  0  0  0  0  0
  -46.4576  -28.8603    1.4200 C   0  0  0  0  0  0  0  0  0  0  0  0
  -48.1961  -27.7354    6.0254 C   0  0  0  0  0  0  0  0  0  0  0  0
  -46.2627  -29.8764    2.3557 C   0  0  0  0  0  0  0  0  0  0  0  0
  -45.4512  -28.5520    0.5047 C   0  0  0  0  0  0  0  0  0  0  0  0
  -44.2498  -29.2604    0.5251 C   0  0  0  0  0  0  0  0  0  0  0  0
  -49.4984  -28.7378    4.7383 C   0  0  0  0  0  0  0  0  0  0  0  0
  -47.3349  -30.2029    3.3299 C   0  0  0  0  0  0  0  0  0  0  0  0
  -50.9930  -30.8111    2.0046 C   0  0  0  0  0  0  0  0  0  0  0  0
  -50.0990  -29.7924    1.3260 C   0  0  0  0  0  0  0  0  0  0  0  0
  -50.3408  -29.1907    3.5705 C   0  0  2  0  0  0  0  0  0  0  0  0
  -50.5862  -30.7018    3.4631 C   0  0  2  0  0  0  0  0  0  0  0  0
  -46.2199  -27.9347   -1.6598 C   0  0  0  0  0  0  0  0  0  0  0  0
  -49.3600  -31.5732    3.7505 C   0  0  0  0  0  0  0  0  0  0  0  0
  -48.7090  -27.6893    4.7604 N   0  0  0  0  0  0  0  0  0  0  0  0
  -49.4502  -29.3725    5.9400 N   0  0  0  0  0  0  0  0  0  0  0  0
  -48.6189  -28.7466    6.7867 N   0  0  0  0  0  0  0  0  0  0  0  0
  -48.2379  -31.1612    2.9180 N   0  0  0  0  0  0  0  0  0  0  0  0
  -47.3708  -29.6088    4.4042 O   0  0  0  0  0  0  0  0  0  0  0  0
  -49.8026  -28.7796    2.2982 O   0  0  0  0  0  0  0  0  0  0  0  0
  -45.6433  -27.5615   -0.4089 O   0  0  0  0  0  0  0  0  0  0  0  0
  -43.2788  -28.9697   -0.3517 F   0  0  0  0  0  0  0  0  0  0  0  0
  -44.8985  -31.3782    3.1011 H   0  0  0  0  0  0  0  0  0  0  0  0
  -43.1191  -30.8275    1.4765 H   0  0  0  0  0  0  0  0  0  0  0  0
  -47.3929  -28.3057    1.3998 H   0  0  0  0  0  0  0  0  0  0  0  0
  -47.4913  -26.9991    6.3886 H   0  0  0  0  0  0  0  0  0  0  0  0
  -52.0602  -30.6152    1.8324 H   0  0  0  0  0  0  0  0  0  0  0  0
  -50.7727  -31.8177    1.6172 H   0  0  0  0  0  0  0  0  0  0  0  0
  -49.1686  -30.2327    0.9556 H   0  0  0  0  0  0  0  0  0  0  0  0
  -50.6142  -29.3108    0.4872 H   0  0  0  0  0  0  0  0  0  0  0  0
  -51.3354  -28.6759    3.6817 H   0  0  0  0  0  0  0  0  0  0  0  0
  -51.3852  -30.9860    4.0767 H   0  0  0  0  0  0  0  0  0  0  0  0
  -46.3181  -27.0508   -2.2953 H   0  0  0  0  0  0  0  0  0  0  0  0
  -45.5676  -28.6620   -2.1492 H   0  0  0  0  0  0  0  0  0  0  0  0
  -47.2005  -28.3851   -1.4899 H   0  0  0  0  0  0  0  0  0  0  0  0
  -49.0821  -31.4814    4.8052 H   0  0  0  0  0  0  0  0  0  0  0  0
  -49.5975  -32.6239    3.5558 H   0  0  0  0  0  0  0  0  0  0  0  0
  -48.4477  -29.0687    7.7352 H   0  0  0  0  0  0  0  0  0  0  0  0
  -48.1890  -31.5672    1.9952 H   0  0  0  0  0  0  0  0  0  0  0  0
  1  2  2  0  0  0  0
  1  5  1  0  0  0  0
  2  7  1  0  0  0  0
  3  5  2  0  0  0  0
  3  6  1  0  0  0  0
  4 16  2  0  0  0  0
  4 18  1  0  0  0  0
  5  9  1  0  0  0  0
  6  7  2  0  0  0  0
  6 22  1  0  0  0  0
  7 23  1  0  0  0  0
  8 12  1  0  0  0  0
  8 16  1  0  0  0  0
  8 17  2  0  0  0  0
  9 19  1  0  0  0  0
  9 20  2  0  0  0  0
 10 11  1  0  0  0  0
 10 13  1  0  0  0  0
 11 21  1  0  0  0  0
 12 13  1  0  0  0  0
 12 21  1  0  0  0  0
 13 15  1  0  0  0  0
 14 22  1  0  0  0  0
 15 19  1  0  0  0  0
 17 18  1  0  0  0  0
  1 24  1  0  0  0  0
  2 25  1  0  0  0  0
  3 26  1  0  0  0  0
  4 27  1  0  0  0  0
 10 28  1  0  0  0  0
 10 29  1  0  0  0  0
 11 30  1  0  0  0  0
 11 31  1  0  0  0  0
 12 32  1  0  0  0  0
 13 33  1  0  0  0  0
 14 34  1  0  0  0  0
 14 35  1  0  0  0  0
 14 36  1  0  0  0  0
 15 37  1  0  0  0  0
 15 38  1  0  0  0  0
 18 39  1  0  0  0  0
 19 40  1  0  0  0  0
M  END
> <POSIT::Probability>
0.18

> <POSIT::Method>
HYBRID

> <ReceptorTitle>
UCSF-P4557-REFINED_LIGAND-BOUND-STATE_A__DU__LA1_A-201(A)

> <OMEGA_C>
2j40wsCt9MHOERhAQzgwwnA28sE4+7o/jtQ5wtbh5sFEw7U/1chAwhfi3cHWz8BAAw05wvIC78FI
wxZABs41wn1q5MEQNwE/zf8wwlUV6sHAbwY/UP5Fwhbn5cF5oJdA+lY9wnSf8cGEHFVA3/hLwjh9
9sEoTABAVmVIwulW7sEEu6k/+VxJwnSG6cFQgmRARFhKwkud9cE8o11AI+E4wlZ638Hsc9S/qHBF
wu2V/MHMCHBABdZCwpmD3cFMVZhA/8xFwuv66sHCFL5AtHlCwg755cENLdlAj/NAwjpK+cEewTpA
s3s9wtLe7MEH74xA0zVHwq485sFYFhNAvpI2wv193MHgYNG+hR0twvvB58HQDbS+FZgzwoQG+8F0
eEZA6nkswsee9sFc/rw/VJI9wity4sEYK7M/DPc9wiz+18F3b8xAmz1Qwtnr9MFkjeo/MxdLwrCK
/sGMAM8/m6xEwpzc8cGwpHQ//XRKwp186sGAcfk+bVdNwkto5cFwoWtAb4pNwl/j98FldIJAwUU5
wg5o2MEa5hLANkU2wsRL5cEEjQnAWs08wrAU48Ectr6/ElREwvnZ+8GWxJlA3GNGwtd+AsJqkmNA
bMpBwpyM6MEUh/dAk8FAwpCJ/MEgY/8/

> <OMEGA_E>
beS4wA==

> <OMEGA_NBR>
      1301

$$$$
CACHE3HI_1696_62
  -OEChem-03092622503D

 35 37  0     1  0  0  0  0  0999 V2000
  -48.6076  -29.2914    3.1510 C   0  0  0  0  0  0  0  0  0  0  0  0
  -50.0190  -29.2411    3.2080 C   0  0  0  0  0  0  0  0  0  0  0  0
  -49.9177  -28.9907    5.6303 C   0  0  0  0  0  0  0  0  0  0  0  0
  -44.8551  -29.8131    0.9912 C   0  0  0  0  0  0  0  0  0  0  0  0
  -47.8403  -29.2001    4.3415 C   0  0  0  0  0  0  0  0  0  0  0  0
  -48.5117  -29.0622    5.5825 C   0  0  0  0  0  0  0  0  0  0  0  0
  -50.6724  -29.0701    4.4461 C   0  0  0  0  0  0  0  0  0  0  0  0
  -45.0062  -31.1489    0.7146 C   0  0  0  0  0  0  0  0  0  0  0  0
  -45.2178  -29.0665   -0.2361 C   0  0  0  0  0  0  0  0  0  0  0  0
  -44.7855  -29.2493    2.3277 C   0  0  0  0  0  0  0  0  0  0  0  0
  -45.6695  -29.5119    5.6214 C   0  0  0  0  0  0  0  0  0  0  0  0
  -46.3233  -28.7668    6.7905 C   0  0  0  0  0  0  0  0  0  0  0  0
  -46.3104  -29.0422    4.3089 C   0  0  1  0  0  0  0  0  0  0  0  0
  -44.7966  -32.3506    1.6113 C   0  0  0  0  0  0  0  0  0  0  0  0
  -45.6860  -29.9262   -1.1121 N   0  0  0  0  0  0  0  0  0  0  0  0
  -45.5453  -31.1469   -0.5419 N   0  0  0  0  0  0  0  0  0  0  0  0
  -47.7907  -28.9876    6.7749 N   0  0  0  0  0  0  0  0  0  0  0  0
  -45.6968  -29.7934    3.2217 N   0  0  0  0  0  0  0  0  0  0  0  0
  -44.2938  -28.1404    2.5077 O   0  0  0  0  0  0  0  0  0  0  0  0
  -52.0217  -28.9759    4.5021 F   0  0  0  0  0  0  0  0  0  0  0  0
  -45.1185  -27.1714   -0.4975 Br  0  0  0  0  0  0  0  0  0  0  0  0
  -48.1112  -29.3997    2.1980 H   0  0  0  0  0  0  0  0  0  0  0  0
  -50.5984  -29.3339    2.3013 H   0  0  0  0  0  0  0  0  0  0  0  0
  -50.4183  -28.8744    6.5802 H   0  0  0  0  0  0  0  0  0  0  0  0
  -44.5911  -29.2959    5.6033 H   0  0  0  0  0  0  0  0  0  0  0  0
  -45.8247  -30.5943    5.7410 H   0  0  0  0  0  0  0  0  0  0  0  0
  -45.9086  -29.1404    7.7384 H   0  0  0  0  0  0  0  0  0  0  0  0
  -46.1158  -27.6905    6.6984 H   0  0  0  0  0  0  0  0  0  0  0  0
  -46.0815  -27.9739    4.1810 H   0  0  0  0  0  0  0  0  0  0  0  0
  -45.7150  -32.5456    2.1845 H   0  0  0  0  0  0  0  0  0  0  0  0
  -44.5552  -33.2296    0.9956 H   0  0  0  0  0  0  0  0  0  0  0  0
  -43.9671  -32.1499    2.3052 H   0  0  0  0  0  0  0  0  0  0  0  0
  -45.8172  -31.9889   -1.0080 H   0  0  0  0  0  0  0  0  0  0  0  0
  -48.1930  -28.2372    7.2994 H   0  0  0  0  0  0  0  0  0  0  0  0
  -45.9464  -30.7557    3.1136 H   0  0  0  0  0  0  0  0  0  0  0  0
  1  2  1  0  0  0  0
  1  5  2  0  0  0  0
  2  7  2  0  0  0  0
  3  6  2  0  0  0  0
  3  7  1  0  0  0  0
  4  8  2  0  0  0  0
  4  9  1  0  0  0  0
  4 10  1  0  0  0  0
  5  6  1  0  0  0  0
  5 13  1  0  0  0  0
  6 17  1  0  0  0  0
  7 20  1  0  0  0  0
  8 14  1  0  0  0  0
  8 16  1  0  0  0  0
  9 15  2  0  0  0  0
  9 21  1  0  0  0  0
 10 18  1  0  0  0  0
 10 19  2  0  0  0  0
 11 12  1  0  0  0  0
 11 13  1  0  0  0  0
 12 17  1  0  0  0  0
 13 18  1  0  0  0  0
 15 16  1  0  0  0  0
  1 22  1  0  0  0  0
  2 23  1  0  0  0  0
  3 24  1  0  0  0  0
 11 25  1  0  0  0  0
 11 26  1  0  0  0  0
 12 27  1  0  0  0  0
 12 28  1  0  0  0  0
 13 29  1  0  0  0  0
 14 30  1  0  0  0  0
 14 31  1  0  0  0  0
 14 32  1  0  0  0  0
 16 33  1  0  0  0  0
 17 34  1  0  0  0  0
 18 35  1  0  0  0  0
M  END
> <POSIT::Probability>
0.51

> <POSIT::Method>
SHAPEFIT

> <ReceptorTitle>
UCSF-P4557-REFINED_LIGAND-BOUND-STATE_A__DU__LA1_A-201(A)

> <OMEGA_C>
K25CwstU6sGRqUlAaxNIwtnt6cGgT01AxKtHwufs58ESK7RAq2szwlOB7sGEvn0/eFw/ws+Z6cG0
7YpA+AtCwnV/6MFwo7JAkLBKwoeP6MGqRo5AUwY0wt0w+cEw7TY//N40wiaI6MHQw3G+XiQzwqb+
6cFo+RRAna02wm8Y7MGA4rNAGks5wlwi5sGsS9lA2T05woVW6MGs4olAvi8zwv9mAcLFPc4/dL42
wuRo78HiWY6/ay42wugs+cHUugq/tyk/wqbm58HMy9hAe8k2wuZY7sFdME5A0CwxwqMf4cGifiBA
PBZQwqPO58HSEJBAWHk0wvBe2cGgsv6+1HFAwo8y68FjqwxAwWRKwuOr6sHCSBNAUqxJwqz+5sG7
kNJATV0ywhBe6sHqTbNAh0w3wjjB9MHvtbdAcKI3wnkf6cGSoPdAj3Y4whaG3cEPWdZAe1M4wqbK
38HjyoVAJtw2wrEuAsJzzgtAgTgywiLrBMIQ4n4/R94vwn6ZAMKDiBNAyUQ3wjrp/8FoBYG/l8VA
wtXl4cGqlOlAKsk3wqIL9sEzRUdA

> <OMEGA_E>
VudzPw==

> <OMEGA_NBR>
      2524

$$$$
CACHE3HI_1697_57
  -OEChem-03092622503D

 56 59  0     1  0  0  0  0  0999 V2000
  -52.1326  -29.9476    6.6399 C   0  0  0  0  0  0  0  0  0  0  0  0
  -52.4011  -29.4986    5.3468 C   0  0  0  0  0  0  0  0  0  0  0  0
  -50.8193  -30.2150    7.0260 C   0  0  0  0  0  0  0  0  0  0  0  0
  -51.3566  -29.3169    4.4402 C   0  0  0  0  0  0  0  0  0  0  0  0
  -49.7748  -30.0333    6.1194 C   0  0  0  0  0  0  0  0  0  0  0  0
  -46.9443  -26.5684   -2.7540 C   0  0  0  0  0  0  0  0  0  0  0  0
  -46.4137  -25.3250   -3.0978 C   0  0  0  0  0  0  0  0  0  0  0  0
  -44.3988  -25.8440   -1.8696 C   0  0  0  0  0  0  0  0  0  0  0  0
  -47.1579  -29.1100    2.8601 C   0  0  0  0  0  0  0  0  0  0  0  0
  -50.0433  -29.5844    4.8264 C   0  0  0  0  0  0  0  0  0  0  0  0
  -46.2018  -27.4496   -1.9680 C   0  0  0  0  0  0  0  0  0  0  0  0
  -45.1412  -24.9628   -2.6556 C   0  0  0  0  0  0  0  0  0  0  0  0
  -44.9294  -27.0873   -1.5258 C   0  0  0  0  0  0  0  0  0  0  0  0
  -48.1578  -29.1901    1.9230 C   0  0  0  0  0  0  0  0  0  0  0  0
  -48.9677  -29.3974    3.8924 C   0  0  0  0  0  0  0  0  0  0  0  0
  -42.3027  -29.0942    2.0612 C   0  0  0  0  0  0  0  0  0  0  0  0
  -42.6456  -29.1432    0.7656 C   0  0  0  0  0  0  0  0  0  0  0  0
  -48.1671  -29.1135    0.4400 C   0  0  0  0  0  0  0  0  0  0  0  0
  -44.2716  -30.6148   -0.3681 C   0  0  0  0  0  0  0  0  0  0  0  0
  -42.0929  -30.3147    2.9050 C   0  0  0  0  0  0  0  0  0  0  0  0
  -42.6138  -31.5980    2.2551 C   0  0  0  0  0  0  0  0  0  0  0  0
  -42.2744  -31.6461    0.7647 C   0  0  0  0  0  0  0  0  0  0  0  0
  -42.8295  -30.4277    0.0013 C   0  0  2  0  0  0  0  0  0  0  0  0
  -45.9311  -29.9752   -2.1066 C   0  0  0  0  0  0  0  0  0  0  0  0
  -46.7818  -28.8030   -1.5947 C   0  0  1  0  0  0  0  0  0  0  0  0
  -47.6827  -29.2432    4.1202 N   0  0  0  0  0  0  0  0  0  0  0  0
  -46.9363  -28.9238   -0.1407 N   0  0  0  0  0  0  0  0  0  0  0  0
  -44.5991  -29.9659   -1.5462 N   0  0  0  0  0  0  0  0  0  0  0  0
  -49.2359  -29.2008   -0.1587 O   0  0  0  0  0  0  0  0  0  0  0  0
  -45.0427  -31.2633    0.3351 O   0  0  0  0  0  0  0  0  0  0  0  0
  -49.3352  -29.3767    2.5818 O   0  0  0  0  0  0  0  0  0  0  0  0
  -44.6326  -23.7687   -2.9866 F   0  0  0  0  0  0  0  0  0  0  0  0
  -44.2089  -27.9277   -0.7700 F   0  0  0  0  0  0  0  0  0  0  0  0
  -52.9457  -30.0899    7.3457 H   0  0  0  0  0  0  0  0  0  0  0  0
  -53.4235  -29.2894    5.0461 H   0  0  0  0  0  0  0  0  0  0  0  0
  -50.6107  -30.5651    8.0327 H   0  0  0  0  0  0  0  0  0  0  0  0
  -51.5824  -28.9670    3.4356 H   0  0  0  0  0  0  0  0  0  0  0  0
  -48.7565  -30.2460    6.4365 H   0  0  0  0  0  0  0  0  0  0  0  0
  -47.9362  -26.8419   -3.1037 H   0  0  0  0  0  0  0  0  0  0  0  0
  -46.9911  -24.6389   -3.7105 H   0  0  0  0  0  0  0  0  0  0  0  0
  -43.4082  -25.5622   -1.5256 H   0  0  0  0  0  0  0  0  0  0  0  0
  -46.0995  -28.9642    2.7003 H   0  0  0  0  0  0  0  0  0  0  0  0
  -42.1580  -28.1263    2.5341 H   0  0  0  0  0  0  0  0  0  0  0  0
  -42.7905  -28.2048    0.2315 H   0  0  0  0  0  0  0  0  0  0  0  0
  -41.0224  -30.4319    3.1166 H   0  0  0  0  0  0  0  0  0  0  0  0
  -42.5930  -30.1584    3.8700 H   0  0  0  0  0  0  0  0  0  0  0  0
  -42.1709  -32.4701    2.7547 H   0  0  0  0  0  0  0  0  0  0  0  0
  -43.6988  -31.6700    2.3962 H   0  0  0  0  0  0  0  0  0  0  0  0
  -41.1827  -31.6897    0.6348 H   0  0  0  0  0  0  0  0  0  0  0  0
  -42.6633  -32.5846    0.3380 H   0  0  0  0  0  0  0  0  0  0  0  0
  -42.2542  -30.3260   -0.9640 H   0  0  0  0  0  0  0  0  0  0  0  0
  -46.3797  -30.9334   -1.8188 H   0  0  0  0  0  0  0  0  0  0  0  0
  -45.8270  -29.9717   -3.1974 H   0  0  0  0  0  0  0  0  0  0  0  0
  -47.7828  -28.8931   -2.0364 H   0  0  0  0  0  0  0  0  0  0  0  0
  -46.1007  -28.7960    0.4024 H   0  0  0  0  0  0  0  0  0  0  0  0
  -43.8863  -29.4317   -2.0340 H   0  0  0  0  0  0  0  0  0  0  0  0
  1  2  1  0  0  0  0
  1  3  2  0  0  0  0
  2  4  2  0  0  0  0
  3  5  1  0  0  0  0
  4 10  1  0  0  0  0
  5 10  2  0  0  0  0
  6  7  2  0  0  0  0
  6 11  1  0  0  0  0
  7 12  1  0  0  0  0
  8 12  2  0  0  0  0
  8 13  1  0  0  0  0
  9 14  2  0  0  0  0
  9 26  1  0  0  0  0
 10 15  1  0  0  0  0
 11 13  2  0  0  0  0
 11 25  1  0  0  0  0
 12 32  1  0  0  0  0
 13 33  1  0  0  0  0
 14 18  1  0  0  0  0
 14 31  1  0  0  0  0
 15 26  2  0  0  0  0
 15 31  1  0  0  0  0
 16 17  2  0  0  0  0
 16 20  1  0  0  0  0
 17 23  1  0  0  0  0
 18 27  1  0  0  0  0
 18 29  2  0  0  0  0
 19 23  1  0  0  0  0
 19 28  1  0  0  0  0
 19 30  2  0  0  0  0
 20 21  1  0  0  0  0
 21 22  1  0  0  0  0
 22 23  1  0  0  0  0
 24 25  1  0  0  0  0
 24 28  1  0  0  0  0
 25 27  1  0  0  0  0
  1 34  1  0  0  0  0
  2 35  1  0  0  0  0
  3 36  1  0  0  0  0
  4 37  1  0  0  0  0
  5 38  1  0  0  0  0
  6 39  1  0  0  0  0
  7 40  1  0  0  0  0
  8 41  1  0  0  0  0
  9 42  1  0  0  0  0
 16 43  1  0  0  0  0
 17 44  1  0  0  0  0
 20 45  1  0  0  0  0
 20 46  1  0  0  0  0
 21 47  1  0  0  0  0
 21 48  1  0  0  0  0
 22 49  1  0  0  0  0
 22 50  1  0  0  0  0
 23 51  1  0  0  0  0
 24 52  1  0  0  0  0
 24 53  1  0  0  0  0
 25 54  1  0  0  0  0
 27 55  1  0  0  0  0
 28 56  1  0  0  0  0
M  END
> <POSIT::Probability>
0.05

> <POSIT::Method>
FRED

> <ReceptorTitle>
UCSF-P4557-REFINED_LIGAND-BOUND-STATE_A__DU__LA1_A-201(A)

> <OMEGA_C>
0IdQwqaU78H6edRAvZpRwjD968EIGatA+kZLwme48cFU1eBAK21Nwv+I6sHeFY5AaRlHwjdE8MEo
0sNA68Y7wimM1MFoQTDApac5wrKZysG7QkbAZJgxwnbAzsG4Te+/paE8wjfh6MGiDDdASixIwsus
7MGKcZpAr844wsqY28Em5/u/o5A0wrezx8Eq9SnArLczws+y2MEITMO/mKFAwmuF6cGuJfY/+d5D
wuAt68HYHHlA7DUpwtvA6MGe6gNAE5UqwkAl6cG2AEQ/HqtAwnPo6MGoSeE+KBYxwhjr9MGAd7y+
JF8owoKE8sGp6zlAfXQqwqDI/MHEUxBAARkpwh8r/cEsxkM/XFErwt5r88EAuK46dLk3wi/N78Ed
0gbAhiA7woZs5sEMIMy/GLs+wiTy6cHI2INAwb47wuRj58EwChC+hWUywjW678Hc6cW/ifFEwkOb
6cGAgCK+vCs0wkYb+sHwi6s+RldFwoAD68FlOyVAw4cywkQmvsE6JT/A79UwwgFs38GIHkW/XMhT
whi48MHhD+tArbFVwqhQ6sGmeaFAWnFKwmCF9MEGhgBBalROwoS858HQ4FtAogZDwrr38cG6981A
oL4/wju81sFYokbA5vY7wo0cxcGyeG3AB6Itwmx/zMEKRsO/5GU4wqS258FE0SxAx6EowrMC4cGB
LyJAeCkrwlmj4cHgGG0+9hYkwnx088HEdkdANV8qwk5E8cHqrXdAAq8owmnhAcIrTTBAjMsuwjRc
/cGuWhlAELskwnOE/cEshCI/NqcqwpVWAsJ8EK0+QgQpwqyb8sH4xna/2oQ5wo9398H+zui/z043
wiPG78FIokzAjiE/wh4l58HhVALAI2c4wkte5sEQB84+jYsvwjl068E9LALA

> <OMEGA_E>
q77awA==

> <OMEGA_NBR>
      4143

$$$$
CACHE3HI_1704_19
  -OEChem-03092622503D

 50 53  0     1  0  0  0  0  0999 V2000
  -46.1517  -31.7355   -0.9427 C   0  0  0  0  0  0  0  0  0  0  0  0
  -45.2691  -25.8363   -1.3914 C   0  0  0  0  0  0  0  0  0  0  0  0
  -45.0470  -32.3073   -0.2893 C   0  0  0  0  0  0  0  0  0  0  0  0
  -44.0314  -25.5215   -0.8053 C   0  0  0  0  0  0  0  0  0  0  0  0
  -46.2118  -30.3599   -1.1814 C   0  0  0  0  0  0  0  0  0  0  0  0
  -45.7324  -27.1542   -1.4252 C   0  0  0  0  0  0  0  0  0  0  0  0
  -43.9813  -31.5131    0.1394 C   0  0  0  0  0  0  0  0  0  0  0  0
  -43.2338  -26.5178   -0.2408 C   0  0  0  0  0  0  0  0  0  0  0  0
  -48.3309  -29.3506    3.5841 C   0  0  0  0  0  0  0  0  0  0  0  0
  -48.5890  -29.7964    5.9447 C   0  0  0  0  0  0  0  0  0  0  0  0
  -49.7031  -29.1239    3.4775 C   0  0  0  0  0  0  0  0  0  0  0  0
  -49.9611  -29.5696    5.8381 C   0  0  0  0  0  0  0  0  0  0  0  0
  -45.1550  -29.5711   -0.7562 C   0  0  0  0  0  0  0  0  0  0  0  0
  -44.9415  -28.1443   -0.8651 C   0  0  0  0  0  0  0  0  0  0  0  0
  -44.0478  -30.1485   -0.0951 C   0  0  0  0  0  0  0  0  0  0  0  0
  -43.6994  -27.8226   -0.2718 C   0  0  0  0  0  0  0  0  0  0  0  0
  -47.7739  -29.6868    4.8179 C   0  0  0  0  0  0  0  0  0  0  0  0
  -50.5181  -29.2335    4.6043 C   0  0  0  0  0  0  0  0  0  0  0  0
  -44.2020  -29.3893    6.3118 C   0  0  0  0  0  0  0  0  0  0  0  0
  -44.3872  -29.6166    3.3478 C   0  0  0  0  0  0  0  0  0  0  0  0
  -43.0238  -29.0795    0.2582 C   0  0  0  0  0  0  0  0  0  0  0  0
  -45.7060  -29.5769    6.3186 C   0  0  0  0  0  0  0  0  0  0  0  0
  -42.7410  -29.0082    1.7536 C   0  0  0  0  0  0  0  0  0  0  0  0
  -46.2797  -29.9353    4.9341 C   0  0  2  0  0  0  0  0  0  0  0  0
  -45.5639  -29.1879    3.9260 N   0  0  0  0  0  0  0  0  0  0  0  0
  -43.6166  -28.3367    6.0989 O   0  0  0  0  0  0  0  0  0  0  0  0
  -43.8024  -30.6641    3.6048 O   0  0  0  0  0  0  0  0  0  0  0  0
  -43.5538  -30.5605    6.5464 O   0  0  0  0  0  0  0  0  0  0  0  0
  -43.9474  -28.6966    2.4283 O   0  0  0  0  0  0  0  0  0  0  0  0
  -51.8357  -29.0162    4.5009 F   0  0  0  0  0  0  0  0  0  0  0  0
  -46.9692  -32.3737   -1.2682 H   0  0  0  0  0  0  0  0  0  0  0  0
  -45.8725  -25.0428   -1.8249 H   0  0  0  0  0  0  0  0  0  0  0  0
  -45.0223  -33.3801   -0.1179 H   0  0  0  0  0  0  0  0  0  0  0  0
  -43.6920  -24.4891   -0.7936 H   0  0  0  0  0  0  0  0  0  0  0  0
  -47.0707  -29.9340   -1.6893 H   0  0  0  0  0  0  0  0  0  0  0  0
  -46.6894  -27.3819   -1.8828 H   0  0  0  0  0  0  0  0  0  0  0  0
  -43.1281  -31.9586    0.6389 H   0  0  0  0  0  0  0  0  0  0  0  0
  -42.2771  -26.2709    0.2062 H   0  0  0  0  0  0  0  0  0  0  0  0
  -47.7032  -29.2625    2.7014 H   0  0  0  0  0  0  0  0  0  0  0  0
  -48.1633  -30.0577    6.9100 H   0  0  0  0  0  0  0  0  0  0  0  0
  -50.1376  -28.8620    2.5175 H   0  0  0  0  0  0  0  0  0  0  0  0
  -50.5961  -29.6551    6.7152 H   0  0  0  0  0  0  0  0  0  0  0  0
  -42.1045  -29.2604   -0.3113 H   0  0  0  0  0  0  0  0  0  0  0  0
  -45.9143  -30.3889    7.0265 H   0  0  0  0  0  0  0  0  0  0  0  0
  -46.1690  -28.6615    6.7055 H   0  0  0  0  0  0  0  0  0  0  0  0
  -42.0041  -28.2309    1.9586 H   0  0  0  0  0  0  0  0  0  0  0  0
  -42.3685  -29.9695    2.1108 H   0  0  0  0  0  0  0  0  0  0  0  0
  -46.0817  -30.9995    4.7491 H   0  0  0  0  0  0  0  0  0  0  0  0
  -45.9423  -28.2924    3.6347 H   0  0  0  0  0  0  0  0  0  0  0  0
  -42.5740  -30.5035    6.5333 H   0  0  0  0  0  0  0  0  0  0  0  0
  1  3  1  0  0  0  0
  1  5  2  0  0  0  0
  2  4  1  0  0  0  0
  2  6  2  0  0  0  0
  3  7  2  0  0  0  0
  4  8  2  0  0  0  0
  5 13  1  0  0  0  0
  6 14  1  0  0  0  0
  7 15  1  0  0  0  0
  8 16  1  0  0  0  0
  9 11  2  0  0  0  0
  9 17  1  0  0  0  0
 10 12  1  0  0  0  0
 10 17  2  0  0  0  0
 11 18  1  0  0  0  0
 12 18  2  0  0  0  0
 13 14  1  0  0  0  0
 13 15  2  0  0  0  0
 14 16  2  0  0  0  0
 15 21  1  0  0  0  0
 16 21  1  0  0  0  0
 17 24  1  0  0  0  0
 18 30  1  0  0  0  0
 19 22  1  0  0  0  0
 19 26  2  0  0  0  0
 19 28  1  0  0  0  0
 20 25  1  0  0  0  0
 20 27  2  0  0  0  0
 20 29  1  0  0  0  0
 21 23  1  0  0  0  0
 22 24  1  0  0  0  0
 23 29  1  0  0  0  0
 24 25  1  0  0  0  0
  1 31  1  0  0  0  0
  2 32  1  0  0  0  0
  3 33  1  0  0  0  0
  4 34  1  0  0  0  0
  5 35  1  0  0  0  0
  6 36  1  0  0  0  0
  7 37  1  0  0  0  0
  8 38  1  0  0  0  0
  9 39  1  0  0  0  0
 10 40  1  0  0  0  0
 11 41  1  0  0  0  0
 12 42  1  0  0  0  0
 21 43  1  0  0  0  0
 22 44  1  0  0  0  0
 22 45  1  0  0  0  0
 23 46  1  0  0  0  0
 23 47  1  0  0  0  0
 24 48  1  0  0  0  0
 25 49  1  0  0  0  0
 28 50  1  0  0  0  0
M  END
> <POSIT::Probability>
0.23

> <POSIT::Method>
HYBRID

> <ReceptorTitle>
UCSF-P4557-REFINED_LIGAND-BOUND-STATE_A__DU__LA1_A-201(A)

> <OMEGA_C>
XZs4wl3i/cEMV3G/lRM1wqywzsGwGLK/JDA0wqU6AcI4IJS+HiAwwhkszMHiJk6/6dg4whDh8sFg
OJe/9+02wr072cHUa7a/1Owvwswa/MHwvA4+YO8swoMk1MEAk3a+zVJBwhHO6sEkYmVAGFtCwgRf
7sG+Or5A7s9Gwqj96MEjkF5ALdhHwqOO7MEK0rpAwZ40wq6R7MHwmEG/DsQzwpYn4cFcdV2/9zAw
wi8w8cEg0cK9OswuwsiU3sGIJIu+cxg/woV+7cEuLJpAlBJKwife6cGgVpNA1M4wwjYd68Hs+clA
fYwxwtLu7ME+QlZAXhgswtSi6MFAOIQ+5dI2wnid7ME9MspA1PYqwsIQ6MFcd+A/Yx45wm5778GC
5J1AZUE2wsKA6cEeQ3tAcncuwpyx4sFYKsNAqjUvwg5Q9cGUtWZAITcuwt179MEofNFAHMovwp2S
5cGUaRtAvVdPwjgh6MGqB5BAbOA7wp9+AcK+UqK/bH03wrtXyMG2lOm/4hY0wkKFBcLghvG9p8Qu
wr3pw8E8K0u/ZEg8wsp478EpPNi/6sE6wg4O28HB//C/MIMswkSr/8FsjCM/xBspwucq0sHgIlM+
G9A+wokZ6sFI5CxAQadAwih28MHwHt1A4YxIwkzl5sERHiFAZGJKwqc97cGE4tZADWsowlgV6sEA
aJ++SKg3wnwc88E72eBABK04wrBK5cHbk9ZAKgQowubY4cH8sfo/TnkpwobB78GlFwdApVM4wuf+
98Gw+JdA98Q3wt5W4sHsnmhA0ksqwkAH9MG8ENFA

> <OMEGA_E>
3IqzwA==

> <OMEGA_NBR>
      5642

$$$$
CACHE3HI_1704_30
  -OEChem-03092622503D

 41 43  0     0  0  0  0  0  0999 V2000
  -47.4148  -32.0750   -1.0165 C   0  0  0  0  0  0  0  0  0  0  0  0
  -46.5923  -31.2215   -1.7519 C   0  0  0  0  0  0  0  0  0  0  0  0
  -46.9625  -32.6109    0.1892 C   0  0  0  0  0  0  0  0  0  0  0  0
  -41.1754  -31.0681    0.1994 C   0  0  0  0  0  0  0  0  0  0  0  0
  -45.3180  -30.9036   -1.2816 C   0  0  0  0  0  0  0  0  0  0  0  0
  -45.6882  -32.2930    0.6595 C   0  0  0  0  0  0  0  0  0  0  0  0
  -48.3058  -28.7925    4.9908 C   0  0  0  0  0  0  0  0  0  0  0  0
  -49.6834  -28.9072    4.8049 C   0  0  0  0  0  0  0  0  0  0  0  0
  -42.4135  -31.4151   -0.3298 C   0  0  0  0  0  0  0  0  0  0  0  0
  -41.1061  -30.4362    1.4359 C   0  0  0  0  0  0  0  0  0  0  0  0
  -49.3142  -29.7139    2.5576 C   0  0  0  0  0  0  0  0  0  0  0  0
  -44.8658  -31.4395   -0.0759 C   0  0  0  0  0  0  0  0  0  0  0  0
  -47.4324  -29.1387    3.9599 C   0  0  0  0  0  0  0  0  0  0  0  0
  -50.1877  -29.3677    3.5885 C   0  0  0  0  0  0  0  0  0  0  0  0
  -47.9366  -29.5992    2.7435 C   0  0  0  0  0  0  0  0  0  0  0  0
  -43.5440  -31.1104    0.4119 C   0  0  0  0  0  0  0  0  0  0  0  0
  -42.2946  -30.1752    2.0986 C   0  0  0  0  0  0  0  0  0  0  0  0
  -42.2817  -29.5188    3.3944 C   0  0  0  0  0  0  0  0  0  0  0  0
  -45.3284  -29.1527    5.3421 C   0  0  0  0  0  0  0  0  0  0  0  0
  -43.8427  -28.9532    5.1086 C   0  0  0  0  0  0  0  0  0  0  0  0
  -43.5158  -30.4973    1.6165 N   0  0  0  0  0  0  0  0  0  0  0  0
  -46.0343  -29.0221    4.1510 N   0  0  0  0  0  0  0  0  0  0  0  0
  -41.4209  -28.7065    3.7609 O   0  0  0  0  0  0  0  0  0  0  0  0
  -45.7768  -29.3934    6.4581 O   0  0  0  0  0  0  0  0  0  0  0  0
  -43.3418  -29.9086    4.1676 O   0  0  0  0  0  0  0  0  0  0  0  0
  -51.5107  -29.4781    3.4112 F   0  0  0  0  0  0  0  0  0  0  0  0
  -47.1062  -29.9358    1.7462 F   0  0  0  0  0  0  0  0  0  0  0  0
  -48.4066  -32.3230   -1.3828 H   0  0  0  0  0  0  0  0  0  0  0  0
  -46.9448  -30.8036   -2.6904 H   0  0  0  0  0  0  0  0  0  0  0  0
  -47.6026  -33.2756    0.7616 H   0  0  0  0  0  0  0  0  0  0  0  0
  -40.2660  -31.2888   -0.3514 H   0  0  0  0  0  0  0  0  0  0  0  0
  -44.6888  -30.2373   -1.8670 H   0  0  0  0  0  0  0  0  0  0  0  0
  -45.3503  -32.7182    1.6015 H   0  0  0  0  0  0  0  0  0  0  0  0
  -47.9245  -28.4333    5.9434 H   0  0  0  0  0  0  0  0  0  0  0  0
  -50.3642  -28.6389    5.6075 H   0  0  0  0  0  0  0  0  0  0  0  0
  -42.4765  -31.9069   -1.2951 H   0  0  0  0  0  0  0  0  0  0  0  0
  -40.1456  -30.1609    1.8584 H   0  0  0  0  0  0  0  0  0  0  0  0
  -49.7066  -30.0731    1.6109 H   0  0  0  0  0  0  0  0  0  0  0  0
  -43.2967  -29.0580    6.0515 H   0  0  0  0  0  0  0  0  0  0  0  0
  -43.6720  -27.9496    4.7065 H   0  0  0  0  0  0  0  0  0  0  0  0
  -45.4958  -28.8201    3.3115 H   0  0  0  0  0  0  0  0  0  0  0  0
  1  2  1  0  0  0  0
  1  3  2  0  0  0  0
  2  5  2  0  0  0  0
  3  6  1  0  0  0  0
  4  9  2  0  0  0  0
  4 10  1  0  0  0  0
  5 12  1  0  0  0  0
  6 12  2  0  0  0  0
  7  8  2  0  0  0  0
  7 13  1  0  0  0  0
  8 14  1  0  0  0  0
  9 16  1  0  0  0  0
 10 17  2  0  0  0  0
 11 14  2  0  0  0  0
 11 15  1  0  0  0  0
 12 16  1  0  0  0  0
 13 15  2  0  0  0  0
 13 22  1  0  0  0  0
 14 26  1  0  0  0  0
 15 27  1  0  0  0  0
 16 21  2  0  0  0  0
 17 18  1  0  0  0  0
 17 21  1  0  0  0  0
 18 23  2  0  0  0  0
 18 25  1  0  0  0  0
 19 20  1  0  0  0  0
 19 22  1  0  0  0  0
 19 24  2  0  0  0  0
 20 25  1  0  0  0  0
  1 28  1  0  0  0  0
  2 29  1  0  0  0  0
  3 30  1  0  0  0  0
  4 31  1  0  0  0  0
  5 32  1  0  0  0  0
  6 33  1  0  0  0  0
  7 34  1  0  0  0  0
  8 35  1  0  0  0  0
  9 36  1  0  0  0  0
 10 37  1  0  0  0  0
 11 38  1  0  0  0  0
 20 39  1  0  0  0  0
 20 40  1  0  0  0  0
 22 41  1  0  0  0  0
M  END
> <POSIT::Probability>
0.24

> <POSIT::Method>
FRED

> <ReceptorTitle>
UCSF-P4557-REFINED_LIGAND-BOUND-STATE_A__DU__LA1_A-201(A)

> <OMEGA_C>
uag9wtVMAMI4HoK/il46wpzF+cF1PuC/ktk7wohxAsLAtEE+nrMkwmyL+MHIKUw+rUU1wpY698EC
DKS/tsA2wgYsAcIO0ig/GDlBwhJX5sFhtJ9A2LtGwuhB58EBwplAaqcpwgtS+8E41ai+rGwkwlt9
88G7zLc/vkFFwhu27cGIryNAiHYzwg6E+8HwWJu9uro9wicc6cG4bn1AKsBIwgDx6sH4qWVADL8/
wj/L7MGwlC9AGy0uwhzi+MGQ5NI+ti0pwt9m8cHsTgZAeiApwoYm7MHLPVlASVA1wsY46cFJ8qpA
414vwjmg58GweaNAOBAuwm7688GS6s4/GCM4wlIt6MG81IRAA68lwt2m5cE+snBAchs3wpol68Fw
qM5A/F0tws5E78ErXYVA9wpOwjjT68HUUVpAy2w8wnt878FYgt8/XKBBwslKAcJ+/rC/dMc7ws5t
9sEgLyzAEmk+wjgaBcIY+kI/ZhAhwotP+sEQ7bO+UcEywvbl8cEF++6/rWY1wmvfAsKE/cw/s7I/
wmh348H6L75A7HRJwoAc5cFocLNA9ecpwmpB/8EAxaW/F5UgwnVJ8cEX4e0/k9NGwqqV8MEeMs4/
zi8twr526MG8pcFAFrAuwrOY38Fjm5ZAtvs1wp2P5sFJ8FNA

> <OMEGA_E>
bSoAwQ==

> <OMEGA_NBR>
      6951

$$$$
CACHE3HI_1706_25
  -OEChem-03092622503D

 41 43  0     0  0  0  0  0  0999 V2000
  -47.7219  -28.9722    6.1718 C   0  0  0  0  0  0  0  0  0  0  0  0
  -48.8562  -28.9944    5.3560 C   0  0  0  0  0  0  0  0  0  0  0  0
  -43.9337  -29.6071    4.5856 C   0  0  0  0  0  0  0  0  0  0  0  0
  -47.4637  -29.4459    3.4490 C   0  0  0  0  0  0  0  0  0  0  0  0
  -44.1543  -29.3641    5.9265 C   0  0  0  0  0  0  0  0  0  0  0  0
  -46.3235  -29.4228    4.2702 C   0  0  0  0  0  0  0  0  0  0  0  0
  -45.0399  -29.6353    3.7488 C   0  0  0  0  0  0  0  0  0  0  0  0
  -46.4471  -29.1828    5.6545 C   0  0  0  0  0  0  0  0  0  0  0  0
  -48.7273  -29.2318    3.9932 C   0  0  0  0  0  0  0  0  0  0  0  0
  -44.7959  -29.8943    2.3213 C   0  0  0  0  0  0  0  0  0  0  0  0
  -44.2252  -28.0506   -0.5232 C   0  0  0  0  0  0  0  0  0  0  0  0
  -43.3653  -31.6391    0.1166 C   0  0  0  0  0  0  0  0  0  0  0  0
  -41.9933  -30.9704    0.1979 C   0  0  0  0  0  0  0  0  0  0  0  0
  -44.3462  -30.5447   -0.2903 C   0  0  0  0  0  0  0  0  0  0  0  0
  -42.2210  -29.4842   -0.0705 C   0  0  0  0  0  0  0  0  0  0  0  0
  -43.7044  -29.2525    0.2013 C   0  0  0  0  0  0  0  0  0  0  0  0
  -43.3557  -27.8102    2.1811 C   0  0  0  0  0  0  0  0  0  0  0  0
  -45.3743  -29.1547    6.4702 N   0  0  0  0  0  0  0  0  0  0  0  0
  -43.2998  -27.0372   -0.6174 N   0  0  0  0  0  0  0  0  0  0  0  0
  -43.9743  -29.0089    1.5953 N   0  0  0  0  0  0  0  0  0  0  0  0
  -45.3264  -30.9000    1.8520 O   0  0  0  0  0  0  0  0  0  0  0  0
  -45.3698  -27.9873   -0.9630 O   0  0  0  0  0  0  0  0  0  0  0  0
  -49.8116  -29.2545    3.2076 F   0  0  0  0  0  0  0  0  0  0  0  0
  -47.8492  -28.7844    7.2364 H   0  0  0  0  0  0  0  0  0  0  0  0
  -49.8381  -28.8266    5.7884 H   0  0  0  0  0  0  0  0  0  0  0  0
  -42.9278  -29.7683    4.2132 H   0  0  0  0  0  0  0  0  0  0  0  0
  -47.3923  -29.6291    2.3797 H   0  0  0  0  0  0  0  0  0  0  0  0
  -43.3271  -29.3299    6.6280 H   0  0  0  0  0  0  0  0  0  0  0  0
  -43.3455  -32.4355   -0.6354 H   0  0  0  0  0  0  0  0  0  0  0  0
  -43.6511  -32.0953    1.0691 H   0  0  0  0  0  0  0  0  0  0  0  0
  -41.5204  -31.1301    1.1726 H   0  0  0  0  0  0  0  0  0  0  0  0
  -41.3271  -31.3975   -0.5611 H   0  0  0  0  0  0  0  0  0  0  0  0
  -44.5340  -30.5593   -1.3702 H   0  0  0  0  0  0  0  0  0  0  0  0
  -45.3045  -30.7167    0.2187 H   0  0  0  0  0  0  0  0  0  0  0  0
  -41.6050  -28.8972    0.6277 H   0  0  0  0  0  0  0  0  0  0  0  0
  -41.9133  -29.2130   -1.0896 H   0  0  0  0  0  0  0  0  0  0  0  0
  -42.3708  -28.0481    2.5934 H   0  0  0  0  0  0  0  0  0  0  0  0
  -43.2391  -27.0344    1.4192 H   0  0  0  0  0  0  0  0  0  0  0  0
  -43.9852  -27.4137    2.9825 H   0  0  0  0  0  0  0  0  0  0  0  0
  -42.3813  -27.1744   -0.2094 H   0  0  0  0  0  0  0  0  0  0  0  0
  -43.5030  -26.1570   -1.0805 H   0  0  0  0  0  0  0  0  0  0  0  0
  1  2  2  0  0  0  0
  1  8  1  0  0  0  0
  2  9  1  0  0  0  0
  3  5  2  0  0  0  0
  3  7  1  0  0  0  0
  4  6  1  0  0  0  0
  4  9  2  0  0  0  0
  5 18  1  0  0  0  0
  6  7  2  0  0  0  0
  6  8  1  0  0  0  0
  7 10  1  0  0  0  0
  8 18  2  0  0  0  0
  9 23  1  0  0  0  0
 10 20  1  0  0  0  0
 10 21  2  0  0  0  0
 11 16  1  0  0  0  0
 11 19  1  0  0  0  0
 11 22  2  0  0  0  0
 12 13  1  0  0  0  0
 12 14  1  0  0  0  0
 13 15  1  0  0  0  0
 14 16  1  0  0  0  0
 15 16  1  0  0  0  0
 16 20  1  0  0  0  0
 17 20  1  0  0  0  0
  1 24  1  0  0  0  0
  2 25  1  0  0  0  0
  3 26  1  0  0  0  0
  4 27  1  0  0  0  0
  5 28  1  0  0  0  0
 12 29  1  0  0  0  0
 12 30  1  0  0  0  0
 13 31  1  0  0  0  0
 13 32  1  0  0  0  0
 14 33  1  0  0  0  0
 14 34  1  0  0  0  0
 15 35  1  0  0  0  0
 15 36  1  0  0  0  0
 17 37  1  0  0  0  0
 17 38  1  0  0  0  0
 17 39  1  0  0  0  0
 19 40  1  0  0  0  0
 19 41  1  0  0  0  0
M  END
> <POSIT::Probability>
0.19

> <POSIT::Method>
FRED

> <ReceptorTitle>
UCSF-P4557-REFINED_LIGAND-BOUND-STATE_A__DU__LA1_A-201(A)

> <OMEGA_C>
NeM+wvjG58Fif8VAxmxDwpL058FqZKtAGLwvwkrb7MEyvZJA3to9wiWR68EOvFxACJ4wwqTp6sG2
pb1ASUs5wtxh68FupYhA1Cg0whkV7cEH7W9Az8k5wm926cFj8bRAtehCwq7a6cFvkH9A9y4zwpwn
78GejxRAoeYwwqZn4ME07gW/EnYtwtwc/cEA2O49GPknwnLD98FQr0o+gWIxwo1b9MGsoJS+T+Io
wpbf68FAV5C9RtEuwgwF6sFgJ04+MWwtwlF73sGelwtARn81wt886cFGDM9ACDMtwjhM2MEICx6/
peUvwjUS6MHuM8w/RU41wi0z98FeDu0/tno1whHm38GQiXa/Fz9HwkMJ6sGSSE1AlGU/wmNG5sFm
kOdAOFpHwsuc5sE5OrlACrYrwoMl7sHU0oZAxJE9wn8I7cF/TRhA8E4twpSj6sFIGNRA1GEtwvW9
AcIaqiK/wZouwpFhAMLq2Ig/2BQmwnUK+cHWFpY/9U4lwg4u+8F0og+/ySIywnp59MEuY6+/zDc1
wtC79cHA8l8+g2smwoUt58HGsiA/QqcnwkO06cHId4u/t3spwoBi4MFz+SVAz/QswoJG2MEKp7U/
1vAvwlNP28Hu4T5AbIYpwipl2cFAY1a+HwMuwoxB0cGSTIq/

> <OMEGA_E>
7KQewQ==

> <OMEGA_NBR>
      8260

$$$$
CACHE3HI_1706_33
  -OEChem-03092622503D

 46 48  0     0  0  0  0  0  0999 V2000
  -45.2332  -31.4202    0.2908 C   0  0  0  0  0  0  0  0  0  0  0  0
  -46.4820  -31.0913   -0.2673 C   0  0  0  0  0  0  0  0  0  0  0  0
  -44.7016  -29.0469    0.4680 C   0  0  0  0  0  0  0  0  0  0  0  0
  -44.3301  -30.3984    0.6615 C   0  0  0  0  0  0  0  0  0  0  0  0
  -46.8633  -29.7409   -0.4276 C   0  0  0  0  0  0  0  0  0  0  0  0
  -45.9845  -28.7031   -0.0283 C   0  0  0  0  0  0  0  0  0  0  0  0
  -46.7739  -28.9283    3.9622 C   0  0  0  0  0  0  0  0  0  0  0  0
  -48.1981  -29.0068    4.3248 C   0  0  0  0  0  0  0  0  0  0  0  0
  -45.8053  -29.0254    4.9522 C   0  0  0  0  0  0  0  0  0  0  0  0
  -48.5685  -29.1614    5.6537 C   0  0  0  0  0  0  0  0  0  0  0  0
  -46.2417  -29.1740    6.3615 C   0  0  0  0  0  0  0  0  0  0  0  0
  -42.9963  -30.1882    2.8165 C   0  0  0  0  0  0  0  0  0  0  0  0
  -49.4370  -28.9021    3.4613 C   0  0  0  0  0  0  0  0  0  0  0  0
  -50.0768  -29.1622    5.7579 C   0  0  0  0  0  0  0  0  0  0  0  0
  -50.5804  -29.3871    4.3400 C   0  0  0  0  0  0  0  0  0  0  0  0
  -48.2318  -29.4120   -1.0002 C   0  0  0  0  0  0  0  0  0  0  0  0
  -45.5667  -26.3499    0.4232 C   0  0  0  0  0  0  0  0  0  0  0  0
  -44.3159  -28.9925    4.6222 C   0  0  0  0  0  0  0  0  0  0  0  0
  -42.9969  -30.7219    1.3602 C   0  0  0  0  0  0  0  0  0  0  0  0
  -47.5996  -29.2347    6.6577 N   0  0  0  0  0  0  0  0  0  0  0  0
  -44.1153  -29.5067    3.2772 N   0  0  0  0  0  0  0  0  0  0  0  0
  -45.4212  -29.2558    7.2680 O   0  0  0  0  0  0  0  0  0  0  0  0
  -42.0260  -30.3748    3.5438 O   0  0  0  0  0  0  0  0  0  0  0  0
  -46.4208  -27.3832   -0.1327 O   0  0  0  0  0  0  0  0  0  0  0  0
  -41.9767  -30.1453    0.6688 F   0  0  0  0  0  0  0  0  0  0  0  0
  -42.7715  -32.0649    1.3933 F   0  0  0  0  0  0  0  0  0  0  0  0
  -44.9641  -32.4560    0.4361 H   0  0  0  0  0  0  0  0  0  0  0  0
  -47.1548  -31.8779   -0.5756 H   0  0  0  0  0  0  0  0  0  0  0  0
  -43.9958  -28.2637    0.7023 H   0  0  0  0  0  0  0  0  0  0  0  0
  -46.4834  -28.7956    2.9305 H   0  0  0  0  0  0  0  0  0  0  0  0
  -49.6041  -27.8598    3.1519 H   0  0  0  0  0  0  0  0  0  0  0  0
  -49.3399  -29.5383    2.5692 H   0  0  0  0  0  0  0  0  0  0  0  0
  -50.4163  -29.9726    6.4198 H   0  0  0  0  0  0  0  0  0  0  0  0
  -50.4362  -28.1975    6.1454 H   0  0  0  0  0  0  0  0  0  0  0  0
  -51.4930  -28.8024    4.1519 H   0  0  0  0  0  0  0  0  0  0  0  0
  -50.7848  -30.4532    4.1622 H   0  0  0  0  0  0  0  0  0  0  0  0
  -48.9651  -29.3441   -0.1830 H   0  0  0  0  0  0  0  0  0  0  0  0
  -48.1852  -28.4501   -1.5317 H   0  0  0  0  0  0  0  0  0  0  0  0
  -48.5359  -30.2037   -1.7007 H   0  0  0  0  0  0  0  0  0  0  0  0
  -46.0336  -25.3658    0.2699 H   0  0  0  0  0  0  0  0  0  0  0  0
  -45.4305  -26.5272    1.5003 H   0  0  0  0  0  0  0  0  0  0  0  0
  -44.5883  -26.3737   -0.0789 H   0  0  0  0  0  0  0  0  0  0  0  0
  -43.9487  -27.9572    4.6794 H   0  0  0  0  0  0  0  0  0  0  0  0
  -43.7654  -29.6170    5.3412 H   0  0  0  0  0  0  0  0  0  0  0  0
  -47.8885  -29.3329    7.6100 H   0  0  0  0  0  0  0  0  0  0  0  0
  -44.8542  -29.3550    2.6206 H   0  0  0  0  0  0  0  0  0  0  0  0
  1  2  2  0  0  0  0
  1  4  1  0  0  0  0
  2  5  1  0  0  0  0
  3  4  2  0  0  0  0
  3  6  1  0  0  0  0
  4 19  1  0  0  0  0
  5  6  2  0  0  0  0
  5 16  1  0  0  0  0
  6 24  1  0  0  0  0
  7  8  1  0  0  0  0
  7  9  2  0  0  0  0
  8 10  2  0  0  0  0
  8 13  1  0  0  0  0
  9 11  1  0  0  0  0
  9 18  1  0  0  0  0
 10 14  1  0  0  0  0
 10 20  1  0  0  0  0
 11 20  1  0  0  0  0
 11 22  2  0  0  0  0
 12 19  1  0  0  0  0
 12 21  1  0  0  0  0
 12 23  2  0  0  0  0
 13 15  1  0  0  0  0
 14 15  1  0  0  0  0
 17 24  1  0  0  0  0
 18 21  1  0  0  0  0
 19 25  1  0  0  0  0
 19 26  1  0  0  0  0
  1 27  1  0  0  0  0
  2 28  1  0  0  0  0
  3 29  1  0  0  0  0
  7 30  1  0  0  0  0
 13 31  1  0  0  0  0
 13 32  1  0  0  0  0
 14 33  1  0  0  0  0
 14 34  1  0  0  0  0
 15 35  1  0  0  0  0
 15 36  1  0  0  0  0
 16 37  1  0  0  0  0
 16 38  1  0  0  0  0
 16 39  1  0  0  0  0
 17 40  1  0  0  0  0
 17 41  1  0  0  0  0
 17 42  1  0  0  0  0
 18 43  1  0  0  0  0
 18 44  1  0  0  0  0
 20 45  1  0  0  0  0
 21 46  1  0  0  0  0
M  END
> <POSIT::Probability>
0.42

> <POSIT::Method>
SHAPEFIT

> <ReceptorTitle>
UCSF-P4557-REFINED_LIGAND-BOUND-STATE_A__DU__LA1_A-201(A)

> <OMEGA_C>
y+40wqhc+8Hv3pQ+mu05wuK6+MEZ14i+dM4ywgdg6MEvnu8++VExwgQw88F0WSk/+HM7wmTt7cHj
6tq+LPA3wtmf5cEQfOe8cRg7wh5t58E0lH1A38pAwvoN6MG/ZIpAozg3wh406MFveJ5AJUZCwqBK
6cGF67RAhvc4wmxk6cFekctAQ/wrwmSB8cEHQTRAfb9Fwm0358HZhV1AqE5IwkRM6cHZQLhAUFJK
wr0Y68Hr4IpAYO1AwtdL68FVBYC/T0Q2wrDM0sF4sdg+cUMxwq/w58Fo6ZNA4PwrworG9cHXG64/
8WU+wqfg6cEfDNVAF3YwwqwN7MGGvVFASK81wvgL6sFgk+hAphoowqz/8sHizGJA6q45wssQ28GS
1ge+Hegnwocp8cFINys/+xUrwnZCAMINVrI/N9szwvjSAcLiTd8+e548wtwF/8EaWxO/vvsvwhMc
4sGdzDM/Bu85wndd5sGCjDtAmmpGwtPg3sHpuElADVxFwl5O7MHnbSRATapJwuLH78HKbs1ArL5J
wnyU4cHdpsRAzvhNwlhr5sG+3IRAqiNLwieg88HfMIVAO9xDwsjA6sHQaTu+rb1AwtSZ48H3DsS/
zSRCwjOh8cGGsNm/YCI4wiztysHFL4o+y7g1wrE31MHmCMA/bVoywmj90sEtqKG9cssvwlSo38HI
vZVAvQ8vwq7v7MFe66pAyo0/wrmp6sFuhfNArGozwhfX6sEQuCdA

> <OMEGA_E>
VBJuPw==

> <OMEGA_NBR>
      9702

$$$$
CACHE3HI_1709_33
  -OEChem-03092622503D

 41 44  0     1  0  0  0  0  0999 V2000
  -50.5839  -29.3093    3.5019 C   0  0  0  0  0  0  0  0  0  0  0  0
  -50.9826  -29.2729    4.8380 C   0  0  0  0  0  0  0  0  0  0  0  0
  -49.2285  -29.3600    3.1814 C   0  0  0  0  0  0  0  0  0  0  0  0
  -44.2343  -27.7853    0.5407 C   0  0  0  0  0  0  0  0  0  0  0  0
  -50.0269  -29.2869    5.8592 C   0  0  0  0  0  0  0  0  0  0  0  0
  -45.3302  -27.6543   -0.3122 C   0  0  0  0  0  0  0  0  0  0  0  0
  -45.3785  -30.0503   -0.6198 C   0  0  0  0  0  0  0  0  0  0  0  0
  -48.2877  -29.3732    4.2114 C   0  0  0  0  0  0  0  0  0  0  0  0
  -43.7106  -29.0489    0.8134 C   0  0  0  0  0  0  0  0  0  0  0  0
  -48.6617  -29.3377    5.5531 C   0  0  0  0  0  0  0  0  0  0  0  0
  -45.9022  -28.7866   -0.8925 C   0  0  0  0  0  0  0  0  0  0  0  0
  -44.2826  -30.1812    0.2331 C   0  0  0  0  0  0  0  0  0  0  0  0
  -46.8517  -29.4256    3.9417 C   0  0  0  0  0  0  0  0  0  0  0  0
  -45.9262  -29.4360    5.1264 C   0  0  0  0  0  0  0  0  0  0  0  0
  -44.4428  -29.4880    4.9948 C   0  0  0  0  0  0  0  0  0  0  0  0
  -41.5450  -30.4596    1.6919 C   0  0  0  0  0  0  0  0  0  0  0  0
  -42.2804  -31.0300    2.9216 C   0  0  0  0  0  0  0  0  0  0  0  0
  -42.4531  -29.1969    1.7953 C   0  0  2  0  0  0  0  0  0  0  0  0
  -42.6407  -29.5790    3.2928 C   0  0  1  0  0  0  0  0  0  0  0  0
  -46.3676  -29.3999    6.3450 N   0  0  0  0  0  0  0  0  0  0  0  0
  -47.6991  -29.3521    6.5671 N   0  0  0  0  0  0  0  0  0  0  0  0
  -44.0431  -29.5243    3.6801 N   0  0  0  0  0  0  0  0  0  0  0  0
  -46.3784  -29.4606    2.8191 O   0  0  0  0  0  0  0  0  0  0  0  0
  -43.7437  -29.4948    5.9918 O   0  0  0  0  0  0  0  0  0  0  0  0
  -46.9533  -28.6600   -1.7131 F   0  0  0  0  0  0  0  0  0  0  0  0
  -43.7856  -31.3989    0.4907 F   0  0  0  0  0  0  0  0  0  0  0  0
  -51.3293  -29.2982    2.7122 H   0  0  0  0  0  0  0  0  0  0  0  0
  -52.0393  -29.2336    5.0871 H   0  0  0  0  0  0  0  0  0  0  0  0
  -48.9258  -29.3878    2.1389 H   0  0  0  0  0  0  0  0  0  0  0  0
  -43.7937  -26.8985    0.9881 H   0  0  0  0  0  0  0  0  0  0  0  0
  -50.3581  -29.2582    6.8946 H   0  0  0  0  0  0  0  0  0  0  0  0
  -45.7387  -26.6707   -0.5245 H   0  0  0  0  0  0  0  0  0  0  0  0
  -45.8242  -30.9315   -1.0715 H   0  0  0  0  0  0  0  0  0  0  0  0
  -40.4737  -30.2836    1.8259 H   0  0  0  0  0  0  0  0  0  0  0  0
  -41.6939  -31.0507    0.7801 H   0  0  0  0  0  0  0  0  0  0  0  0
  -43.1097  -31.7021    2.7020 H   0  0  0  0  0  0  0  0  0  0  0  0
  -41.6141  -31.5093    3.6431 H   0  0  0  0  0  0  0  0  0  0  0  0
  -41.8421  -28.2799    1.7110 H   0  0  0  0  0  0  0  0  0  0  0  0
  -42.0168  -29.1017    3.9906 H   0  0  0  0  0  0  0  0  0  0  0  0
  -48.0186  -29.3255    7.5285 H   0  0  0  0  0  0  0  0  0  0  0  0
  -44.7315  -29.5246    2.9330 H   0  0  0  0  0  0  0  0  0  0  0  0
  1  2  1  0  0  0  0
  1  3  2  0  0  0  0
  2  5  2  0  0  0  0
  3  8  1  0  0  0  0
  4  6  2  0  0  0  0
  4  9  1  0  0  0  0
  5 10  1  0  0  0  0
  6 11  1  0  0  0  0
  7 11  2  0  0  0  0
  7 12  1  0  0  0  0
  8 10  2  0  0  0  0
  8 13  1  0  0  0  0
  9 12  2  0  0  0  0
  9 18  1  0  0  0  0
 10 21  1  0  0  0  0
 11 25  1  0  0  0  0
 12 26  1  0  0  0  0
 13 14  1  0  0  0  0
 13 23  2  0  0  0  0
 14 15  1  0  0  0  0
 14 20  2  0  0  0  0
 15 22  1  0  0  0  0
 15 24  2  0  0  0  0
 16 17  1  0  0  0  0
 16 18  1  0  0  0  0
 17 19  1  0  0  0  0
 18 19  1  0  0  0  0
 19 22  1  0  0  0  0
 20 21  1  0  0  0  0
  1 27  1  0  0  0  0
  2 28  1  0  0  0  0
  3 29  1  0  0  0  0
  4 30  1  0  0  0  0
  5 31  1  0  0  0  0
  6 32  1  0  0  0  0
  7 33  1  0  0  0  0
 16 34  1  0  0  0  0
 16 35  1  0  0  0  0
 17 36  1  0  0  0  0
 17 37  1  0  0  0  0
 18 38  1  0  0  0  0
 19 39  1  0  0  0  0
 21 40  1  0  0  0  0
 22 41  1  0  0  0  0
M  END
> <POSIT::Probability>
0.25

> <POSIT::Method>
FRED

> <ReceptorTitle>
UCSF-P4557-REFINED_LIGAND-BOUND-STATE_A__DU__LA1_A-201(A)

> <OMEGA_C>
4FVKwoZ56sGwH2BANe5Lwvou6sHc0JpA+OlEwknh6sEenEtA5u8wwjtI3sHIbAo/kBtIwpZL6sHy
frtAJFI1wv473cEg2J++mIM1wvxm8MGoqR6/kiZBwmr86sEMxIZArdcuwjhk6MFoPFA/kKVCwpGz
6sESs7FA3Js3wulK5sEQe2S/ZCExwiRz8cGgtW4+K2g7wohn68FYRHxAc7Q3wuJ868FiC6RAcMUx
wnHn68EW1Z9ADy4mwlKt88FYkNg/KR8pwng9+MHC+jpA8s8pwlWT6cF0y+U/DpAqwr6h7MFgvVJA
cng5wvky68HYCctA2Ms+whDR6sGcJdJAKiwwwrkx7MEGh2tAf4M5wl6v68GMbDRAgfkuwmv168Hi
vL9AMtA7wq1H5cF4R9u/eSQvwgYx+8GQQvs+QFFNwqJi6sEWlC1AQChQwmXe6cHcyaJADLRDwlAa
68GO4whAyiwvwhgw18Go9Xw/vW5JwrgQ6sG+oNxAdfQ2wptd1cEQRwa/90s3wqRz98EgJom/EuUh
wrhE8sFEtuk/gsYmwtBn+MFAskc/THAswu+d/cG07SxA0nQmwvoS/MFWKWlARF4nwlQ94sEwAts/
MhEowkjQ6MGkZX9AExNAwpWa6sGa6fBAF+0ywlAy7MHYtjtA

> <OMEGA_E>
HPgswQ==

> <OMEGA_NBR>
     11023

$$$$
CACHE3HI_1709_60
  -OEChem-03092622503D

 43 46  0     1  0  0  0  0  0999 V2000
  -44.5822  -28.9081    0.8184 C   0  0  0  0  0  0  0  0  0  0  0  0
  -45.7627  -30.9683    1.2652 C   0  0  0  0  0  0  0  0  0  0  0  0
  -44.6396  -29.1726   -0.5499 C   0  0  0  0  0  0  0  0  0  0  0  0
  -45.8201  -31.2328   -0.1031 C   0  0  0  0  0  0  0  0  0  0  0  0
  -43.8576  -29.3996    3.7515 C   0  0  0  0  0  0  0  0  0  0  0  0
  -47.7797  -28.9889    6.1521 C   0  0  0  0  0  0  0  0  0  0  0  0
  -46.1729  -29.3711    4.0551 C   0  0  0  0  0  0  0  0  0  0  0  0
  -45.1440  -29.8060    1.7259 C   0  0  0  0  0  0  0  0  0  0  0  0
  -45.0851  -29.5331    3.1400 C   0  0  0  0  0  0  0  0  0  0  0  0
  -45.2583  -30.3349   -1.0107 C   0  0  0  0  0  0  0  0  0  0  0  0
  -47.5623  -29.4191    3.9007 C   0  0  0  0  0  0  0  0  0  0  0  0
  -45.7066  -29.1181    5.3382 C   0  0  0  0  0  0  0  0  0  0  0  0
  -49.5828  -30.8403    1.0737 C   0  0  0  0  0  0  0  0  0  0  0  0
  -51.6373  -29.8927    1.6807 C   0  0  0  0  0  0  0  0  0  0  0  0
  -49.4085  -30.3249    2.4887 C   0  0  2  0  0  0  0  0  0  0  0  0
  -50.5730  -29.3590    2.6384 C   0  0  2  0  0  0  0  0  0  0  0  0
  -52.8162  -28.6601    4.1234 C   0  0  0  0  0  0  0  0  0  0  0  0
  -48.3705  -29.2252    4.9648 N   0  0  0  0  0  0  0  0  0  0  0  0
  -46.4660  -28.9174    6.4322 N   0  0  0  0  0  0  0  0  0  0  0  0
  -51.0347  -31.0368    0.9753 N   0  0  0  0  0  0  0  0  0  0  0  0
  -48.1395  -29.6646    2.6642 N   0  0  0  0  0  0  0  0  0  0  0  0
  -50.3876  -28.2211    4.9843 O   0  0  0  0  0  0  0  0  0  0  0  0
  -51.2203  -30.6004    4.8454 O   0  0  0  0  0  0  0  0  0  0  0  0
  -45.3131  -30.5885   -2.3248 F   0  0  0  0  0  0  0  0  0  0  0  0
  -44.0049  -29.0793    5.4255 S   0  0  0  0  0  0  0  0  0  0  0  0
  -51.1491  -29.2541    4.3001 S   0  0  0  0  0  0  0  0  0  0  0  0
  -44.0963  -27.9977    1.1614 H   0  0  0  0  0  0  0  0  0  0  0  0
  -46.2052  -31.6781    1.9600 H   0  0  0  0  0  0  0  0  0  0  0  0
  -44.2025  -28.4740   -1.2573 H   0  0  0  0  0  0  0  0  0  0  0  0
  -46.3017  -32.1375   -0.4622 H   0  0  0  0  0  0  0  0  0  0  0  0
  -42.8749  -29.4729    3.3047 H   0  0  0  0  0  0  0  0  0  0  0  0
  -48.4506  -28.8365    6.9903 H   0  0  0  0  0  0  0  0  0  0  0  0
  -49.2564  -30.1061    0.3264 H   0  0  0  0  0  0  0  0  0  0  0  0
  -49.0454  -31.7778    0.9032 H   0  0  0  0  0  0  0  0  0  0  0  0
  -52.5570  -30.2105    2.1817 H   0  0  0  0  0  0  0  0  0  0  0  0
  -51.9038  -29.1150    0.9554 H   0  0  0  0  0  0  0  0  0  0  0  0
  -49.4837  -31.1527    3.2050 H   0  0  0  0  0  0  0  0  0  0  0  0
  -50.2932  -28.3411    2.3418 H   0  0  0  0  0  0  0  0  0  0  0  0
  -53.2550  -28.5644    5.1177 H   0  0  0  0  0  0  0  0  0  0  0  0
  -53.3766  -29.3802    3.5259 H   0  0  0  0  0  0  0  0  0  0  0  0
  -52.7853  -27.6907    3.6240 H   0  0  0  0  0  0  0  0  0  0  0  0
  -51.3335  -31.0606    0.0021 H   0  0  0  0  0  0  0  0  0  0  0  0
  -47.6375  -29.3614    1.8357 H   0  0  0  0  0  0  0  0  0  0  0  0
  1  3  2  0  0  0  0
  1  8  1  0  0  0  0
  2  4  1  0  0  0  0
  2  8  2  0  0  0  0
  3 10  1  0  0  0  0
  4 10  2  0  0  0  0
  5  9  2  0  0  0  0
  5 25  1  0  0  0  0
  6 18  1  0  0  0  0
  6 19  2  0  0  0  0
  7  9  1  0  0  0  0
  7 11  1  0  0  0  0
  7 12  2  0  0  0  0
  8  9  1  0  0  0  0
 10 24  1  0  0  0  0
 11 18  2  0  0  0  0
 11 21  1  0  0  0  0
 12 19  1  0  0  0  0
 12 25  1  0  0  0  0
 13 15  1  0  0  0  0
 13 20  1  0  0  0  0
 14 16  1  0  0  0  0
 14 20  1  0  0  0  0
 15 16  1  0  0  0  0
 15 21  1  0  0  0  0
 16 26  1  0  0  0  0
 17 26  1  0  0  0  0
 22 26  2  0  0  0  0
 23 26  2  0  0  0  0
  1 27  1  0  0  0  0
  2 28  1  0  0  0  0
  3 29  1  0  0  0  0
  4 30  1  0  0  0  0
  5 31  1  0  0  0  0
  6 32  1  0  0  0  0
 13 33  1  0  0  0  0
 13 34  1  0  0  0  0
 14 35  1  0  0  0  0
 14 36  1  0  0  0  0
 15 37  1  0  0  0  0
 16 38  1  0  0  0  0
 17 39  1  0  0  0  0
 17 40  1  0  0  0  0
 17 41  1  0  0  0  0
 20 42  1  0  0  0  0
 21 43  1  0  0  0  0
M  END
> <POSIT::Probability>
0.23

> <POSIT::Method>
HYBRID

> <ReceptorTitle>
UCSF-P4557-REFINED_LIGAND-BOUND-STATE_A__DU__LA1_A-201(A)

> <OMEGA_C>
KVQywrND58Gog1E/+ww3wvq+98EM8aE/8Y4ywoth6cFIyQy/yUc3wtzc+cHAOdO9K24vwmwy68GA
GHBAdB4/wjXp58Ev3sRABbE4whf46sEYw4FAaJM0wqZy7sF069w/G1c0wrND7MFE9UhAhQg1wt+t
8sEMX4G/0j8+wlla68HapHlAjtM2wtbx6MGS0qpAv1RGwuO49sHQbYk/loxOwlMk78GIItc/UaJF
wnyZ8sFIRh9AvkpKwjTf6sE42yhAyENTwuBH5cET84NAYntBwj/N6cFT355AN905wsdW58HR1M1A
hiNMwkVL+MHwrXk/345Awh9R7cF0gSpA8YxJwsPE4cH+fp9AmOFMwqjN9MHaDZtAmUA1wlS19ME9
yhTABgUwwlai6MGzna1AtJhMwnII6sGAmolAl2Iwwjr738HMp5Q/JdI4wtZs/cFA4vo/Vs8wwsTK
48Ec7qC/+zQ5wtGMAMIgp+y+6n8rwpjI68FogFNAbs1Bwi2x5sHVsN9AhAZFwjTZ8MHAIKc+ey5E
wgA5/sFoN2c/XDpSwiOv8cG+oAtAgZ1PwnHr6MHwk3Q/R+9FwrY4+cHsHU1AMSxJwny64sGQ4BVA
EwVVwu+D5ME1xKNAoIFVwqUK68GiqGFAJSRTwpKG3cGM72dAfVVNwip8+MEAiAc70Iw+wiPk6sHM
9+o/

> <OMEGA_E>
1Xu5wA==

> <OMEGA_NBR>
     12385

$$$$
CACHE3HI_1709_61
  -OEChem-03092622503D

 40 43  0     1  0  0  0  0  0999 V2000
  -49.9672  -32.1175    2.3517 C   0  0  0  0  0  0  0  0  0  0  0  0
  -50.3379  -31.3672    3.4611 C   0  0  0  0  0  0  0  0  0  0  0  0
  -42.3704  -31.2510    0.7855 C   0  0  0  0  0  0  0  0  0  0  0  0
  -43.6443  -28.1950    2.1539 C   0  0  0  0  0  0  0  0  0  0  0  0
  -47.8707  -30.9223    2.2613 C   0  0  0  0  0  0  0  0  0  0  0  0
  -42.4184  -32.0966    1.8830 C   0  0  0  0  0  0  0  0  0  0  0  0
  -43.3850  -27.8674    0.8427 C   0  0  0  0  0  0  0  0  0  0  0  0
  -43.2826  -29.5584    2.3048 C   0  0  0  0  0  0  0  0  0  0  0  0
  -48.2029  -30.1663    3.4039 C   0  0  0  0  0  0  0  0  0  0  0  0
  -42.8231  -29.9692    1.0588 C   0  0  0  0  0  0  0  0  0  0  0  0
  -48.7364  -31.8911    1.7467 C   0  0  0  0  0  0  0  0  0  0  0  0
  -49.4642  -30.3986    3.9700 C   0  0  0  0  0  0  0  0  0  0  0  0
  -43.2891  -30.4911    3.3426 C   0  0  0  0  0  0  0  0  0  0  0  0
  -45.0136  -29.6447    4.9831 C   0  0  0  0  0  0  0  0  0  0  0  0
  -47.4955  -28.5987    5.3248 C   0  0  0  0  0  0  0  0  0  0  0  0
  -48.9180  -28.1045    5.4745 C   0  0  0  0  0  0  0  0  0  0  0  0
  -47.2298  -29.1083    3.9000 C   0  0  1  0  0  0  0  0  0  0  0  0
  -42.8550  -31.7577    3.1221 N   0  0  0  0  0  0  0  0  0  0  0  0
  -43.7476  -30.1191    4.6284 N   0  0  0  0  0  0  0  0  0  0  0  0
  -45.8337  -29.5719    3.8543 N   0  0  0  0  0  0  0  0  0  0  0  0
  -45.3874  -29.3278    6.1097 O   0  0  0  0  0  0  0  0  0  0  0  0
  -51.3380  -28.8991    4.9475 O   0  0  0  0  0  0  0  0  0  0  0  0
  -49.9122  -30.2924    6.5085 O   0  0  0  0  0  0  0  0  0  0  0  0
  -42.8863  -28.9383    0.1694 O   0  0  0  0  0  0  0  0  0  0  0  0
  -48.3767  -32.6041    0.6706 F   0  0  0  0  0  0  0  0  0  0  0  0
  -50.0552  -29.4541    5.3346 S   0  0  0  0  0  0  0  0  0  0  0  0
  -50.6356  -32.8779    1.9586 H   0  0  0  0  0  0  0  0  0  0  0  0
  -51.3085  -31.5402    3.9187 H   0  0  0  0  0  0  0  0  0  0  0  0
  -42.0151  -31.5594   -0.1874 H   0  0  0  0  0  0  0  0  0  0  0  0
  -44.0452  -27.5300    2.9058 H   0  0  0  0  0  0  0  0  0  0  0  0
  -46.9172  -30.7569    1.7595 H   0  0  0  0  0  0  0  0  0  0  0  0
  -42.0880  -33.1272    1.7897 H   0  0  0  0  0  0  0  0  0  0  0  0
  -43.4970  -26.9632    0.2624 H   0  0  0  0  0  0  0  0  0  0  0  0
  -46.7983  -27.7896    5.5523 H   0  0  0  0  0  0  0  0  0  0  0  0
  -47.3068  -29.3979    6.0430 H   0  0  0  0  0  0  0  0  0  0  0  0
  -49.0776  -27.6296    6.4443 H   0  0  0  0  0  0  0  0  0  0  0  0
  -49.1703  -27.3876    4.6909 H   0  0  0  0  0  0  0  0  0  0  0  0
  -47.2617  -28.2366    3.2396 H   0  0  0  0  0  0  0  0  0  0  0  0
  -43.0746  -30.2077    5.3862 H   0  0  0  0  0  0  0  0  0  0  0  0
  -45.4467  -29.8179    2.9498 H   0  0  0  0  0  0  0  0  0  0  0  0
  1  2  1  0  0  0  0
  1 11  2  0  0  0  0
  2 12  2  0  0  0  0
  3  6  2  0  0  0  0
  3 10  1  0  0  0  0
  4  7  2  0  0  0  0
  4  8  1  0  0  0  0
  5  9  2  0  0  0  0
  5 11  1  0  0  0  0
  6 18  1  0  0  0  0
  7 24  1  0  0  0  0
  8 10  2  0  0  0  0
  8 13  1  0  0  0  0
  9 12  1  0  0  0  0
  9 17  1  0  0  0  0
 10 24  1  0  0  0  0
 11 25  1  0  0  0  0
 12 26  1  0  0  0  0
 13 18  2  0  0  0  0
 13 19  1  0  0  0  0
 14 19  1  0  0  0  0
 14 20  1  0  0  0  0
 14 21  2  0  0  0  0
 15 16  1  0  0  0  0
 15 17  1  0  0  0  0
 16 26  1  0  0  0  0
 17 20  1  0  0  0  0
 22 26  2  0  0  0  0
 23 26  2  0  0  0  0
  1 27  1  0  0  0  0
  2 28  1  0  0  0  0
  3 29  1  0  0  0  0
  4 30  1  0  0  0  0
  5 31  1  0  0  0  0
  6 32  1  0  0  0  0
  7 33  1  0  0  0  0
 15 34  1  0  0  0  0
 15 35  1  0  0  0  0
 16 36  1  0  0  0  0
 16 37  1  0  0  0  0
 17 38  1  0  0  0  0
 19 39  1  0  0  0  0
 20 40  1  0  0  0  0
M  END
> <POSIT::Probability>
0.24

> <POSIT::Method>
FRED

> <ReceptorTitle>
UCSF-P4557-REFINED_LIGAND-BOUND-STATE_A__DU__LA1_A-201(A)

> <OMEGA_C>
YN5Hwkt4AMI2ghZA+VlJwhfw+sH0gV1APnspwgYC+sFoF0k/xZMuwnWP4cEa2QlAkHs/wtNg98Gx
uRBAZ6wpwuViAMK4BvE/R4otwoDw3sF8uVc/VyEtwoN37MEmgRNAw89Awn5U8cH72VlA0EorwtjA
78GEhoc/D/JCwvUg/8Hckt8/U9tFwkgw88G6FH5AFCgtwrvt88F77VVA4g00wk0o7cE9dZ9AXvs9
wg7K5MEcZapAFaxDwu3V4MFlL69ATOs8wuTd6MHImHlAfGsrwrIP/sEG0UdAgf0uwvnz8MHoG5RA
uVU3wkOT7MEhrHZAvow1wmaf6sGTgsNAJFpNwkkx58HkUZ5AEqZHwuhW8sHaRdBAkIsrwqyB58HA
bi0+xYFBwplqAsJAris/fThIwgmi68GwtKpAz4pKwvOCA8J0svo/5jtNwlBS/MFRzHpAcw8owrh5
/MGg7j++VS4wwoo93MHc+DlAPKs7wjcO9sFcOOE/I1oowkqCBMJQFOU/7/wtwoi018GgWIY+fTE7
wh9R3sFJrLFAMDo9wtYu68ESYMFAck9EwoMJ3cEEOM5AYa5EwuMZ28HDG5ZACAw9wprk4cH6VE9A
aEwswlSp8cFjW6xAYsk1wviK7sFHyTxA

> <OMEGA_E>
WGgOwQ==

> <OMEGA_NBR>
     13681

$$$$
CACHE3HI_1715_85
  -OEChem-03092622503D

 45 48  0     1  0  0  0  0  0999 V2000
  -48.7524  -29.0415    3.2562 C   0  0  0  0  0  0  0  0  0  0  0  0
  -50.1608  -29.0148    3.3612 C   0  0  0  0  0  0  0  0  0  0  0  0
  -50.0079  -29.0479    5.8144 C   0  0  0  0  0  0  0  0  0  0  0  0
  -44.0575  -29.3016    5.6307 C   0  0  0  0  0  0  0  0  0  0  0  0
  -48.0064  -29.0835    4.4502 C   0  0  0  0  0  0  0  0  0  0  0  0
  -46.5667  -29.1552    4.6656 C   0  0  0  0  0  0  0  0  0  0  0  0
  -48.6082  -29.0850    5.7125 C   0  0  0  0  0  0  0  0  0  0  0  0
  -50.7848  -29.0219    4.6348 C   0  0  0  0  0  0  0  0  0  0  0  0
  -46.3485  -29.1894    6.0417 C   0  0  0  0  0  0  0  0  0  0  0  0
  -45.4908  -29.2089    3.7636 C   0  0  0  0  0  0  0  0  0  0  0  0
  -45.6247  -27.4760    0.0176 C   0  0  0  0  0  0  0  0  0  0  0  0
  -46.0153  -31.3516   -0.1738 C   0  0  0  0  0  0  0  0  0  0  0  0
  -44.5497  -31.6623    0.1541 C   0  0  0  0  0  0  0  0  0  0  0  0
  -46.1938  -29.8803   -0.6023 C   0  0  0  0  0  0  0  0  0  0  0  0
  -44.0812  -30.8448    1.3791 C   0  0  0  0  0  0  0  0  0  0  0  0
  -45.1079  -28.9304   -0.0111 C   0  0  2  0  0  0  0  0  0  0  0  0
  -44.6081  -29.3757    1.3929 C   0  0  1  0  0  0  0  0  0  0  0  0
  -45.2877  -25.0846   -0.6441 C   0  0  0  0  0  0  0  0  0  0  0  0
  -45.0898  -29.2644    6.5157 N   0  0  0  0  0  0  0  0  0  0  0  0
  -44.2359  -29.2746    4.2793 N   0  0  0  0  0  0  0  0  0  0  0  0
  -47.5938  -29.1438    6.6698 N   0  0  0  0  0  0  0  0  0  0  0  0
  -45.7035  -29.2296    2.3874 N   0  0  0  0  0  0  0  0  0  0  0  0
  -44.8423  -26.4775   -0.5434 N   0  0  0  0  0  0  0  0  0  0  0  0
  -46.7118  -27.2058    0.5212 O   0  0  0  0  0  0  0  0  0  0  0  0
  -52.1332  -29.0108    4.7266 F   0  0  0  0  0  0  0  0  0  0  0  0
  -48.2641  -29.0300    2.2929 H   0  0  0  0  0  0  0  0  0  0  0  0
  -50.7656  -28.9889    2.4668 H   0  0  0  0  0  0  0  0  0  0  0  0
  -50.4851  -29.0395    6.7832 H   0  0  0  0  0  0  0  0  0  0  0  0
  -43.0501  -29.3550    6.0163 H   0  0  0  0  0  0  0  0  0  0  0  0
  -46.3457  -32.0063   -0.9936 H   0  0  0  0  0  0  0  0  0  0  0  0
  -46.6302  -31.5422    0.7182 H   0  0  0  0  0  0  0  0  0  0  0  0
  -44.4483  -32.7351    0.3751 H   0  0  0  0  0  0  0  0  0  0  0  0
  -43.9232  -31.4057   -0.7129 H   0  0  0  0  0  0  0  0  0  0  0  0
  -46.1437  -29.8277   -1.6999 H   0  0  0  0  0  0  0  0  0  0  0  0
  -47.1818  -29.5352   -0.2634 H   0  0  0  0  0  0  0  0  0  0  0  0
  -44.4363  -31.3495    2.2896 H   0  0  0  0  0  0  0  0  0  0  0  0
  -42.9815  -30.8192    1.3792 H   0  0  0  0  0  0  0  0  0  0  0  0
  -44.2435  -28.9597   -0.6907 H   0  0  0  0  0  0  0  0  0  0  0  0
  -43.7744  -28.7188    1.6819 H   0  0  0  0  0  0  0  0  0  0  0  0
  -44.5017  -24.4814   -1.1220 H   0  0  0  0  0  0  0  0  0  0  0  0
  -46.2055  -25.0361   -1.2485 H   0  0  0  0  0  0  0  0  0  0  0  0
  -45.4905  -24.6910    0.3629 H   0  0  0  0  0  0  0  0  0  0  0  0
  -47.7383  -29.1519    7.6593 H   0  0  0  0  0  0  0  0  0  0  0  0
  -46.3300  -29.9905    2.2185 H   0  0  0  0  0  0  0  0  0  0  0  0
  -43.9370  -26.7178   -0.8936 H   0  0  0  0  0  0  0  0  0  0  0  0
  1  2  2  0  0  0  0
  1  5  1  0  0  0  0
  2  8  1  0  0  0  0
  3  7  1  0  0  0  0
  3  8  2  0  0  0  0
  4 19  2  0  0  0  0
  4 20  1  0  0  0  0
  5  6  1  0  0  0  0
  5  7  2  0  0  0  0
  6  9  2  0  0  0  0
  6 10  1  0  0  0  0
  7 21  1  0  0  0  0
  8 25  1  0  0  0  0
  9 19  1  0  0  0  0
  9 21  1  0  0  0  0
 10 20  2  0  0  0  0
 10 22  1  0  0  0  0
 11 16  1  0  0  0  0
 11 23  1  0  0  0  0
 11 24  2  0  0  0  0
 12 13  1  0  0  0  0
 12 14  1  0  0  0  0
 13 15  1  0  0  0  0
 14 16  1  0  0  0  0
 15 17  1  0  0  0  0
 16 17  1  0  0  0  0
 17 22  1  0  0  0  0
 18 23  1  0  0  0  0
  1 26  1  0  0  0  0
  2 27  1  0  0  0  0
  3 28  1  0  0  0  0
  4 29  1  0  0  0  0
 12 30  1  0  0  0  0
 12 31  1  0  0  0  0
 13 32  1  0  0  0  0
 13 33  1  0  0  0  0
 14 34  1  0  0  0  0
 14 35  1  0  0  0  0
 15 36  1  0  0  0  0
 15 37  1  0  0  0  0
 16 38  1  0  0  0  0
 17 39  1  0  0  0  0
 18 40  1  0  0  0  0
 18 41  1  0  0  0  0
 18 42  1  0  0  0  0
 21 43  1  0  0  0  0
 22 44  1  0  0  0  0
 23 45  1  0  0  0  0
M  END
> <POSIT::Probability>
0.99

> <POSIT::Method>
SHAPEFIT

> <ReceptorTitle>
UCSF-P4557-REFINED_LIGAND-BOUND-STATE_A__DU__LA1_A-201(A)

> <OMEGA_C>
fwJDwuZU6MHWZFBAnKRIwlAe6ME2HVdAGAhIwjNi6MG0D7pA4Dowwrxp6sG0LrRAmAZAwvWq6MET
aI5AWUQ6wsM96cE5TJVAxG5Cwgeu6MGIzLZAmSNLwsAs6MEVUJRA2GQ5wu2D6cGLVcFAkPY1wuur
6cFk33BAun82ws/O28FAZ5A8rw84whnQ+sEY7jG+7TIywl1M/cGYxB0+esY4wucK78F+MRq/HlMw
wijC9sEihbA/hG40wmhx58HAFTW8p24ywncB68GsSrI/lCY1wlWtyMFG4SS/7Vs0wo0d6sFYgNBA
mPEwwnQy6sHE74hAGmA+wmkm6cEAb9VAW9A2wkzW6cFNyxhAgV4zwu7R08E2HAu/6Ng6wn+l2cHV
bQU/cYhQwh4W6MFxQJdAdw5BwnI96ME3vxJAAxBLwkzp58Fa4B1AyPBJwu9Q6MEiENlATDMswg3X
6sGWhcBAAmI5wnUGAMKVX36/XYU6wnFW/MEm2jc/FcsxwrTwAsKXEMA+ULEvwu0++8F6fja/LpM4
wiaf7sHZltm/Iro8wiNI7MES3Ia+x74xwtLL+sFYiRJABu0rwqeN9sGCirA/VPkwwpCt58GQzzC/
AhkvwhbA5cFeR9c/wQEywv7Zw8GZnY+/ZtI4wtpJyMFyzZ+/P/Y1wiGHxcHbybk+//M+wig36cHV
GPVA6FE5wprs78Ek/A1AeL8vwhK+1cEtxmS/

> <OMEGA_E>
YIMtPQ==

> <OMEGA_NBR>
     15110

$$$$
CACHE3HI_1716_50
  -OEChem-03092622503D

 45 47  0     1  0  0  0  0  0999 V2000
  -51.7405  -29.3892    2.6484 C   0  0  0  0  0  0  0  0  0  0  0  0
  -52.7869  -29.7768    3.5435 C   0  0  0  0  0  0  0  0  0  0  0  0
  -50.4222  -29.1058    3.0543 C   0  0  0  0  0  0  0  0  0  0  0  0
  -52.6125  -29.9186    4.9387 C   0  0  0  0  0  0  0  0  0  0  0  0
  -50.2832  -29.2531    4.4281 C   0  0  0  0  0  0  0  0  0  0  0  0
  -51.3033  -29.6406    5.3730 C   0  0  0  0  0  0  0  0  0  0  0  0
  -49.1343  -29.0538    5.1386 C   0  0  0  0  0  0  0  0  0  0  0  0
  -45.7179  -29.1970    3.3151 C   0  0  0  0  0  0  0  0  0  0  0  0
  -45.7965  -31.5197    0.4260 C   0  0  0  0  0  0  0  0  0  0  0  0
  -46.8658  -31.5443    1.4766 C   0  0  0  0  0  0  0  0  0  0  0  0
  -46.2200  -30.2409    1.0951 C   0  0  0  0  0  0  0  0  0  0  0  0
  -44.7543  -26.0765   -0.7201 C   0  0  0  0  0  0  0  0  0  0  0  0
  -47.7349  -28.6443    4.7549 C   0  0  0  0  0  0  0  0  0  0  0  0
  -47.1283  -29.6007    3.7264 C   0  0  0  0  0  0  0  0  0  0  0  0
  -44.7268  -26.9631    0.5176 C   0  0  0  0  0  0  0  0  0  0  0  0
  -44.0120  -29.2169    1.4783 C   0  0  0  0  0  0  0  0  0  0  0  0
  -44.0695  -28.3193    0.2417 C   0  0  2  0  0  0  0  0  0  0  0  0
  -50.7706  -29.6691    6.6079 N   0  0  0  0  0  0  0  0  0  0  0  0
  -49.4822  -29.3154    6.4320 N   0  0  0  0  0  0  0  0  0  0  0  0
  -45.3326  -29.5385    2.0141 N   0  0  0  0  0  0  0  0  0  0  0  0
  -44.9816  -28.6031    4.1070 O   0  0  0  0  0  0  0  0  0  0  0  0
  -42.7485  -28.1121   -0.2541 O   0  0  0  0  0  0  0  0  0  0  0  0
  -51.9818  -29.3097    1.5886 H   0  0  0  0  0  0  0  0  0  0  0  0
  -53.7728  -29.9733    3.1234 H   0  0  0  0  0  0  0  0  0  0  0  0
  -49.6436  -28.8142    2.3636 H   0  0  0  0  0  0  0  0  0  0  0  0
  -53.4171  -30.2131    5.5993 H   0  0  0  0  0  0  0  0  0  0  0  0
  -44.8315  -31.9407    0.6802 H   0  0  0  0  0  0  0  0  0  0  0  0
  -46.0965  -31.6725   -0.6035 H   0  0  0  0  0  0  0  0  0  0  0  0
  -47.8860  -31.7140    1.1551 H   0  0  0  0  0  0  0  0  0  0  0  0
  -46.6186  -31.9816    2.4362 H   0  0  0  0  0  0  0  0  0  0  0  0
  -46.8184  -29.5567    0.5033 H   0  0  0  0  0  0  0  0  0  0  0  0
  -43.7421  -25.9020   -1.1001 H   0  0  0  0  0  0  0  0  0  0  0  0
  -45.3492  -26.5278   -1.5209 H   0  0  0  0  0  0  0  0  0  0  0  0
  -45.1975  -25.1056   -0.4798 H   0  0  0  0  0  0  0  0  0  0  0  0
  -47.1077  -28.6038    5.6550 H   0  0  0  0  0  0  0  0  0  0  0  0
  -47.7508  -27.6208    4.3607 H   0  0  0  0  0  0  0  0  0  0  0  0
  -47.0894  -30.6121    4.1474 H   0  0  0  0  0  0  0  0  0  0  0  0
  -47.7589  -29.6185    2.8293 H   0  0  0  0  0  0  0  0  0  0  0  0
  -45.7611  -27.1033    0.8526 H   0  0  0  0  0  0  0  0  0  0  0  0
  -44.1855  -26.4421    1.3159 H   0  0  0  0  0  0  0  0  0  0  0  0
  -43.5362  -30.1729    1.2369 H   0  0  0  0  0  0  0  0  0  0  0  0
  -43.4420  -28.7356    2.2793 H   0  0  0  0  0  0  0  0  0  0  0  0
  -44.6329  -28.8396   -0.5417 H   0  0  0  0  0  0  0  0  0  0  0  0
  -48.8887  -29.2726    7.2509 H   0  0  0  0  0  0  0  0  0  0  0  0
  -42.8387  -27.5974   -1.0705 H   0  0  0  0  0  0  0  0  0  0  0  0
  1  2  1  0  0  0  0
  1  3  2  0  0  0  0
  2  4  2  0  0  0  0
  3  5  1  0  0  0  0
  4  6  1  0  0  0  0
  5  6  1  0  0  0  0
  5  7  2  0  0  0  0
  6 18  2  0  0  0  0
  7 13  1  0  0  0  0
  7 19  1  0  0  0  0
  8 14  1  0  0  0  0
  8 20  1  0  0  0  0
  8 21  2  0  0  0  0
  9 10  1  0  0  0  0
  9 11  1  0  0  0  0
 10 11  1  0  0  0  0
 11 20  1  0  0  0  0
 12 15  1  0  0  0  0
 13 14  1  0  0  0  0
 15 17  1  0  0  0  0
 16 17  1  0  0  0  0
 16 20  1  0  0  0  0
 17 22  1  0  0  0  0
 18 19  1  0  0  0  0
  1 23  1  0  0  0  0
  2 24  1  0  0  0  0
  3 25  1  0  0  0  0
  4 26  1  0  0  0  0
  9 27  1  0  0  0  0
  9 28  1  0  0  0  0
 10 29  1  0  0  0  0
 10 30  1  0  0  0  0
 11 31  1  0  0  0  0
 12 32  1  0  0  0  0
 12 33  1  0  0  0  0
 12 34  1  0  0  0  0
 13 35  1  0  0  0  0
 13 36  1  0  0  0  0
 14 37  1  0  0  0  0
 14 38  1  0  0  0  0
 15 39  1  0  0  0  0
 15 40  1  0  0  0  0
 16 41  1  0  0  0  0
 16 42  1  0  0  0  0
 17 43  1  0  0  0  0
 19 44  1  0  0  0  0
 22 45  1  0  0  0  0
M  END
> <POSIT::Probability>
0.14

> <POSIT::Method>
HYBRID

> <ReceptorTitle>
UCSF-P4557-REFINED_LIGAND-BOUND-STATE_A__DU__LA1_A-201(A)

> <OMEGA_C>
QPZOwiod68HUfilA0SVTwtw27sHoyGJAYLBJwqDY6MFkekNAP3NSwjhZ78GbCZ5ACCJJwlsG6sFk
s41AiDZNwvEf7cF+76tAholEwh9u6MFlb6RAIt82wn+T6cEOK1RApC83wlIo/MFwF9o+inY7wsda
/MH4Ab0/SOE4wmHt8cFYK4w/YAQzwqSc0MHAWTi/ffA+wn8n5cEbKJhAY4M8wifO7MEEfW5AP+gy
wlq018HYfwQ/RAwwwka86cGIOL0/K0cwwgOO4sHAeHc+DRVLwmta7cGOc9NA0e1FwvOF6sFY081A
oVQ1wt5O7MFG5gBAMu0zwgzT5MGSbINAfP4qwqzl4MGQG4K+Y+1Pwjh66sGAVss/URdXwmrJ78H6
5UdAAJNGwoGD5sHQRBdAHKtVwna08cG9LbNAbFMzwpGG/8FwJC4/1WI4wjBh/cFYfRq/OYs/wk62
/cGs25M/cHk6wmra/8EY6htA/0U7wjR07MEg2AA/6vcuwkc3z8EU0Yy/i2U1wuE41MH6q8K/Mco0
wjrYyMHwrPW+UG48wq3U5MGJ9bRAygA/wk/33MExi4tAhFs8woTl9MF/t4RAHgk/wr/y7MGYEjVA
Ugs3wqjT2MEwR1o//r0wwn2J08Fgbqg/FiUuwgdi8cEMU54/mcQtwpji5cFa4BFAFYgywme35sGI
qwq/C45Dwlcu6sFRB+hA1ForwmfH3MGkB4m/

> <OMEGA_E>
ATfkwA==

> <OMEGA_NBR>
     16508

$$$$
CACHE3HI_1716_52
  -OEChem-03092622503D

 39 42  0     1  0  0  0  0  0999 V2000
  -42.1262  -29.2511    0.3778 C   0  0  0  0  0  0  0  0  0  0  0  0
  -43.3442  -29.1634   -0.3335 C   0  0  0  0  0  0  0  0  0  0  0  0
  -44.8303  -29.5066    1.6552 C   0  0  0  0  0  0  0  0  0  0  0  0
  -49.1198  -29.8262    2.3050 C   0  0  0  0  0  0  0  0  0  0  0  0
  -47.4366  -28.5591    2.6404 C   0  0  0  0  0  0  0  0  0  0  0  0
  -43.6169  -29.5886    2.3255 C   0  0  0  0  0  0  0  0  0  0  0  0
  -42.2952  -29.4725    1.7572 C   0  0  0  0  0  0  0  0  0  0  0  0
  -44.6313  -29.2856    0.2788 C   0  0  0  0  0  0  0  0  0  0  0  0
  -49.1695  -29.5004    3.6425 C   0  0  0  0  0  0  0  0  0  0  0  0
  -43.4595  -29.7967    3.6658 C   0  0  0  0  0  0  0  0  0  0  0  0
  -46.4289  -28.7685    5.6098 C   0  0  0  0  0  0  0  0  0  0  0  0
  -50.1271  -29.8224    4.7304 C   0  0  0  0  0  0  0  0  0  0  0  0
  -49.5169  -29.5737    6.1115 C   0  0  0  0  0  0  0  0  0  0  0  0
  -48.7981  -28.2205    6.1653 C   0  0  0  0  0  0  0  0  0  0  0  0
  -47.6842  -28.1184    5.1111 C   0  0  2  0  0  0  0  0  0  0  0  0
  -44.4224  -29.9954    4.8010 C   0  0  0  0  0  0  0  0  0  0  0  0
  -48.0408  -29.2390    1.6892 N   0  0  0  0  0  0  0  0  0  0  0  0
  -41.3824  -29.6085    2.7358 N   0  0  0  0  0  0  0  0  0  0  0  0
  -42.1080  -29.7998    3.8551 N   0  0  0  0  0  0  0  0  0  0  0  0
  -48.0761  -28.6972    3.8372 N   0  0  0  0  0  0  0  0  0  0  0  0
  -45.6689  -29.2980    4.5811 N   0  0  0  0  0  0  0  0  0  0  0  0
  -46.1554  -28.8186    6.8066 O   0  0  0  0  0  0  0  0  0  0  0  0
  -46.0296  -29.1535   -0.7340 Cl  0  0  0  0  0  0  0  0  0  0  0  0
  -41.1619  -29.1563   -0.1035 H   0  0  0  0  0  0  0  0  0  0  0  0
  -43.2858  -28.9927   -1.4089 H   0  0  0  0  0  0  0  0  0  0  0  0
  -45.8052  -29.5947    2.1152 H   0  0  0  0  0  0  0  0  0  0  0  0
  -49.8109  -30.4453    1.7513 H   0  0  0  0  0  0  0  0  0  0  0  0
  -46.5417  -27.9641    2.5196 H   0  0  0  0  0  0  0  0  0  0  0  0
  -51.0195  -29.1963    4.6090 H   0  0  0  0  0  0  0  0  0  0  0  0
  -50.4514  -30.8661    4.6555 H   0  0  0  0  0  0  0  0  0  0  0  0
  -50.3045  -29.6094    6.8727 H   0  0  0  0  0  0  0  0  0  0  0  0
  -48.8070  -30.3749    6.3519 H   0  0  0  0  0  0  0  0  0  0  0  0
  -49.5354  -27.4273    5.9841 H   0  0  0  0  0  0  0  0  0  0  0  0
  -48.3958  -28.0567    7.1722 H   0  0  0  0  0  0  0  0  0  0  0  0
  -47.4555  -27.0595    4.9243 H   0  0  0  0  0  0  0  0  0  0  0  0
  -44.6491  -31.0585    4.9331 H   0  0  0  0  0  0  0  0  0  0  0  0
  -43.9984  -29.6336    5.7436 H   0  0  0  0  0  0  0  0  0  0  0  0
  -41.6074  -29.9276    4.7256 H   0  0  0  0  0  0  0  0  0  0  0  0
  -46.0057  -29.2246    3.6258 H   0  0  0  0  0  0  0  0  0  0  0  0
  1  2  2  0  0  0  0
  1  7  1  0  0  0  0
  2  8  1  0  0  0  0
  3  6  1  0  0  0  0
  3  8  2  0  0  0  0
  4  9  2  0  0  0  0
  4 17  1  0  0  0  0
  5 17  2  0  0  0  0
  5 20  1  0  0  0  0
  6  7  1  0  0  0  0
  6 10  2  0  0  0  0
  7 18  2  0  0  0  0
  8 23  1  0  0  0  0
  9 12  1  0  0  0  0
  9 20  1  0  0  0  0
 10 16  1  0  0  0  0
 10 19  1  0  0  0  0
 11 15  1  0  0  0  0
 11 21  1  0  0  0  0
 11 22  2  0  0  0  0
 12 13  1  0  0  0  0
 13 14  1  0  0  0  0
 14 15  1  0  0  0  0
 15 20  1  0  0  0  0
 16 21  1  0  0  0  0
 18 19  1  0  0  0  0
  1 24  1  0  0  0  0
  2 25  1  0  0  0  0
  3 26  1  0  0  0  0
  4 27  1  0  0  0  0
  5 28  1  0  0  0  0
 12 29  1  0  0  0  0
 12 30  1  0  0  0  0
 13 31  1  0  0  0  0
 13 32  1  0  0  0  0
 14 33  1  0  0  0  0
 14 34  1  0  0  0  0
 15 35  1  0  0  0  0
 16 36  1  0  0  0  0
 16 37  1  0  0  0  0
 19 38  1  0  0  0  0
 21 39  1  0  0  0  0
M  END
> <POSIT::Probability>
0.18

> <POSIT::Method>
FRED

> <ReceptorTitle>
UCSF-P4557-REFINED_LIGAND-BOUND-STATE_A__DU__LA1_A-201(A)

> <OMEGA_C>
RoEowkIC6sHAccE+aWAtwp1O6cFgwaq+MlIzwogN7MFc3dM/o3pEwiic7sHmhBNAE789wgt55MGu
+yhAqXcuwma17MGI1BRAQC4pwsHH68GA6uA/bYYywuRI6sFQvo4+na1EwuAA7MEIHmlAjdYtwpxf
7sFYnGpANLc5wvYl5sF0g7NAJIJIwkKU7sFBX5dATRFGwgiX7MGAkcNAPTFDwpXD4cEaSsVAq7w+
wmPy4MFEjqNAkbAxwof278H+oZlAvylAwovp6cEIONg/jYclwkje7MHQFy9Aj24owudl7sHguXZA
6k1AwtqT5cH8lHVA66w2wmFi6sGWmJJAF584wm6M5sFJz9lAQx44wlw66cEw5zu/1KUkwgxA6cEA
59O9riQtwiDx58FAWLS/iDg3wu3B7MHcXwdAXz5Hwu6P88EMK+A/sio6wny238GYQCFA9RNMwh+S
6cGmfJNAQM5Jwt/t9sGb+ZRA2DdJwhLg7MFr7dtAWzpDwtD/8sF+QstAOCRGwgZr28H0fb9AVJVB
wjN04MHjguVAatI9wsd52MF+k51At5gywt13+MFB3J1AWP4vwrYR7cEry7dABW4mws5r78HoN5dA
0wU4wufL6cHUDWhA

> <OMEGA_E>
SZAQwQ==

> <OMEGA_NBR>
     17786

$$$$
CACHE3HI_1717_38
  -OEChem-03092622503D

 37 39  0     1  0  0  0  0  0999 V2000
  -48.2454  -29.1727    4.6992 C   0  0  0  0  0  0  0  0  0  0  0  0
  -44.3484  -29.6690    5.5100 C   0  0  0  0  0  0  0  0  0  0  0  0
  -46.8492  -29.3505    4.6745 C   0  0  0  0  0  0  0  0  0  0  0  0
  -46.4886  -29.3971    6.0095 C   0  0  0  0  0  0  0  0  0  0  0  0
  -45.8285  -29.4795    3.7390 C   0  0  0  0  0  0  0  0  0  0  0  0
  -43.9940  -28.4692    1.5256 C   0  0  0  0  0  0  0  0  0  0  0  0
  -46.7281  -32.5909    0.2823 C   0  0  0  0  0  0  0  0  0  0  0  0
  -45.5830  -31.6874   -0.0812 C   0  0  0  0  0  0  0  0  0  0  0  0
  -46.1655  -31.6416    1.3041 C   0  0  0  0  0  0  0  0  0  0  0  0
  -41.6997  -31.1596    0.5801 C   0  0  0  0  0  0  0  0  0  0  0  0
  -45.5041  -28.4276    1.5149 C   0  0  0  0  0  0  0  0  0  0  0  0
  -46.9723  -30.4362    1.7551 C   0  0  0  0  0  0  0  0  0  0  0  0
  -42.0757  -29.7803    1.0782 C   0  0  0  0  0  0  0  0  0  0  0  0
  -48.7360  -29.1116    5.9425 N   0  0  0  0  0  0  0  0  0  0  0  0
  -45.2518  -29.5546    6.5074 N   0  0  0  0  0  0  0  0  0  0  0  0
  -44.5551  -29.6422    4.1712 N   0  0  0  0  0  0  0  0  0  0  0  0
  -47.6445  -29.2511    6.7169 N   0  0  0  0  0  0  0  0  0  0  0  0
  -46.1039  -29.4432    2.3608 N   0  0  3  0  0  0  0  0  0  0  0  0
  -43.3179  -27.5118    1.8871 O   0  0  0  0  0  0  0  0  0  0  0  0
  -43.5030  -29.6641    1.0968 O   0  0  0  0  0  0  0  0  0  0  0  0
  -48.9296  -29.0853    3.8672 H   0  0  0  0  0  0  0  0  0  0  0  0
  -43.3177  -29.7996    5.8217 H   0  0  0  0  0  0  0  0  0  0  0  0
  -47.6973  -32.3739   -0.1494 H   0  0  0  0  0  0  0  0  0  0  0  0
  -46.5180  -33.6462    0.4056 H   0  0  0  0  0  0  0  0  0  0  0  0
  -44.6051  -32.1371   -0.2021 H   0  0  0  0  0  0  0  0  0  0  0  0
  -45.7853  -30.8653   -0.7567 H   0  0  0  0  0  0  0  0  0  0  0  0
  -45.5777  -32.0624    2.1109 H   0  0  0  0  0  0  0  0  0  0  0  0
  -42.1046  -31.9355    1.2360 H   0  0  0  0  0  0  0  0  0  0  0  0
  -42.0793  -31.3202   -0.4342 H   0  0  0  0  0  0  0  0  0  0  0  0
  -40.6115  -31.2690    0.5335 H   0  0  0  0  0  0  0  0  0  0  0  0
  -45.8586  -28.5955    0.4955 H   0  0  0  0  0  0  0  0  0  0  0  0
  -45.8384  -27.4534    1.8813 H   0  0  0  0  0  0  0  0  0  0  0  0
  -47.4851  -29.9927    0.8955 H   0  0  0  0  0  0  0  0  0  0  0  0
  -47.7347  -30.7477    2.4765 H   0  0  0  0  0  0  0  0  0  0  0  0
  -41.6679  -29.0093    0.4181 H   0  0  0  0  0  0  0  0  0  0  0  0
  -41.6963  -29.6213    2.0924 H   0  0  0  0  0  0  0  0  0  0  0  0
  -47.7625  -29.2366    7.7222 H   0  0  0  0  0  0  0  0  0  0  0  0
  1  3  1  0  0  0  0
  1 14  2  0  0  0  0
  2 15  2  0  0  0  0
  2 16  1  0  0  0  0
  3  4  2  0  0  0  0
  3  5  1  0  0  0  0
  4 15  1  0  0  0  0
  4 17  1  0  0  0  0
  5 16  2  0  0  0  0
  5 18  1  0  0  0  0
  6 11  1  0  0  0  0
  6 19  2  0  0  0  0
  6 20  1  0  0  0  0
  7  8  1  0  0  0  0
  7  9  1  0  0  0  0
  8  9  1  0  0  0  0
  9 12  1  0  0  0  0
 10 13  1  0  0  0  0
 11 18  1  0  0  0  0
 12 18  1  0  0  0  0
 13 20  1  0  0  0  0
 14 17  1  0  0  0  0
  1 21  1  0  0  0  0
  2 22  1  0  0  0  0
  7 23  1  0  0  0  0
  7 24  1  0  0  0  0
  8 25  1  0  0  0  0
  8 26  1  0  0  0  0
  9 27  1  0  0  0  0
 10 28  1  0  0  0  0
 10 29  1  0  0  0  0
 10 30  1  0  0  0  0
 11 31  1  0  0  0  0
 11 32  1  0  0  0  0
 12 33  1  0  0  0  0
 12 34  1  0  0  0  0
 13 35  1  0  0  0  0
 13 36  1  0  0  0  0
 17 37  1  0  0  0  0
M  END
> <POSIT::Probability>
0.33

> <POSIT::Method>
HYBRID

> <ReceptorTitle>
UCSF-P4557-REFINED_LIGAND-BOUND-STATE_A__DU__LA1_A-201(A)

> <OMEGA_C>
QftAwrZh6cGZX5ZAw2Qxwhha7cHlUbBAmWU7wrvN6sG6lZVAUvQ5wkAt68HHTcBAZlA3wgDW68EY
S29A2fkvwt3A48HwRsM/j+k6whhdAsKCiZA++1Q2wrx//cE4ZKa9fKk4wgki/cFc66Y/ecwmwthG
+cFhgBQ/NgQ2wr5r48FA58E/mOM7wkF988Fop+A/jE0owig+7sEyA4o/s/FCwoLk6MEXKb5A2AE1
wslv7ME/PNBAZTgywiMj7cHYeoVA8pM+wkAC6sEh8dZAamo4wrGL68EgFxdAh0UtwiEY3MFqjPE/
CgMuwh1Q7cHSY4w/47dDwqqu6MHsgHdASkUtwptl7sEXS7pAD8o+wtd+AcI8/Bi+ZhI6wsGVBsIC
rM8+nWsywleMAMJc8E6+MCQ3wjbs9sGXtEG/iU82wvE/AMK8GAdAHWsowtB7/8FkNJ4/NlEowtOP
+sE2St6+JXIiwtMm+sHRkgg/Lm83wqrD5MESsf0+i1o3wpug28G4zvA/xvA9whbx78GtPWU/W/A+
wlb79cGffh5A5asmwgcT6ME6FNY+C8kmwmX47MFe6gVAzgw/wpjk6cFsHPdA

> <OMEGA_E>
zOsjwQ==

> <OMEGA_NBR>
     19025

$$$$
CACHE3-HO_1700_1
  -OEChem-03092622533D

 39 41  0     1  0  0  0  0  0999 V2000
  -44.7067  -27.5467    0.8142 C   0  0  0  0  0  0  0  0  0  0  0  0
  -43.4057  -27.6760    1.2844 C   0  0  0  0  0  0  0  0  0  0  0  0
  -45.5722  -28.6414    0.8467 C   0  0  0  0  0  0  0  0  0  0  0  0
  -48.7817  -29.8670    5.9331 C   0  0  0  0  0  0  0  0  0  0  0  0
  -50.8207  -30.5151    6.4637 C   0  0  0  0  0  0  0  0  0  0  0  0
  -42.9648  -28.9041    1.7722 C   0  0  0  0  0  0  0  0  0  0  0  0
  -45.1575  -29.8819    1.3640 C   0  0  0  0  0  0  0  0  0  0  0  0
  -43.8220  -30.0164    1.7970 C   0  0  0  0  0  0  0  0  0  0  0  0
  -49.5403  -30.1106    4.8119 C   0  0  0  0  0  0  0  0  0  0  0  0
  -41.5839  -28.9847    2.2365 C   0  0  0  0  0  0  0  0  0  0  0  0
  -47.6612  -30.2463    3.1297 C   0  0  0  0  0  0  0  0  0  0  0  0
  -43.2869  -31.3235    2.3269 C   0  0  0  0  0  0  0  0  0  0  0  0
  -44.1157  -32.5212    1.8779 C   0  0  0  0  0  0  0  0  0  0  0  0
  -45.5872  -32.2677    2.1682 C   0  0  0  0  0  0  0  0  0  0  0  0
  -46.1099  -31.0671    1.3654 C   0  0  1  0  0  0  0  0  0  0  0  0
  -49.1362  -29.9845    3.3662 C   0  0  0  0  0  0  0  0  0  0  0  0
  -50.8079  -30.5134    5.1487 N   0  0  0  0  0  0  0  0  0  0  0  0
  -49.6156  -30.1307    6.9832 N   0  0  0  0  0  0  0  0  0  0  0  0
  -47.4331  -30.7275    1.8505 N   0  0  0  0  0  0  0  0  0  0  0  0
  -41.2349  -29.2830    3.3808 O   0  0  0  0  0  0  0  0  0  0  0  0
  -46.7949  -30.0561    3.9794 O   0  0  0  0  0  0  0  0  0  0  0  0
  -40.6905  -28.6907    1.2551 O   0  0  0  0  0  0  0  0  0  0  0  0
  -45.0523  -26.5951    0.4211 H   0  0  0  0  0  0  0  0  0  0  0  0
  -42.7426  -26.8145    1.2618 H   0  0  0  0  0  0  0  0  0  0  0  0
  -46.5852  -28.5217    0.4638 H   0  0  0  0  0  0  0  0  0  0  0  0
  -47.7616  -29.5421    6.0782 H   0  0  0  0  0  0  0  0  0  0  0  0
  -51.6587  -30.7809    7.0921 H   0  0  0  0  0  0  0  0  0  0  0  0
  -42.2611  -31.4426    1.9669 H   0  0  0  0  0  0  0  0  0  0  0  0
  -43.2697  -31.3174    3.4190 H   0  0  0  0  0  0  0  0  0  0  0  0
  -43.9646  -32.6913    0.8082 H   0  0  0  0  0  0  0  0  0  0  0  0
  -43.7808  -33.4243    2.3984 H   0  0  0  0  0  0  0  0  0  0  0  0
  -46.1673  -33.1624    1.9040 H   0  0  0  0  0  0  0  0  0  0  0  0
  -45.7418  -32.1069    3.2423 H   0  0  0  0  0  0  0  0  0  0  0  0
  -46.2582  -31.4161    0.3250 H   0  0  0  0  0  0  0  0  0  0  0  0
  -49.7169  -30.6866    2.7551 H   0  0  0  0  0  0  0  0  0  0  0  0
  -49.3818  -28.9782    3.0041 H   0  0  0  0  0  0  0  0  0  0  0  0
  -49.3843  -30.0556    7.9648 H   0  0  0  0  0  0  0  0  0  0  0  0
  -48.2167  -30.8858    1.2260 H   0  0  0  0  0  0  0  0  0  0  0  0
  -39.7584  -28.7427    1.5577 H   0  0  0  0  0  0  0  0  0  0  0  0
  1  2  2  0  0  0  0
  1  3  1  0  0  0  0
  2  6  1  0  0  0  0
  3  7  2  0  0  0  0
  4  9  2  0  0  0  0
  4 18  1  0  0  0  0
  5 17  2  0  0  0  0
  5 18  1  0  0  0  0
  6  8  2  0  0  0  0
  6 10  1  0  0  0  0
  7  8  1  0  0  0  0
  7 15  1  0  0  0  0
  8 12  1  0  0  0  0
  9 16  1  0  0  0  0
  9 17  1  0  0  0  0
 10 20  2  0  0  0  0
 10 22  1  0  0  0  0
 11 16  1  0  0  0  0
 11 19  1  0  0  0  0
 11 21  2  0  0  0  0
 12 13  1  0  0  0  0
 13 14  1  0  0  0  0
 14 15  1  0  0  0  0
 15 19  1  0  0  0  0
  1 23  1  0  0  0  0
  2 24  1  0  0  0  0
  3 25  1  0  0  0  0
  4 26  1  0  0  0  0
  5 27  1  0  0  0  0
 12 28  1  0  0  0  0
 12 29  1  0  0  0  0
 13 30  1  0  0  0  0
 13 31  1  0  0  0  0
 14 32  1  0  0  0  0
 14 33  1  0  0  0  0
 15 34  1  0  0  0  0
 16 35  1  0  0  0  0
 16 36  1  0  0  0  0
 18 37  1  0  0  0  0
 19 38  1  0  0  0  0
 22 39  1  0  0  0  0
M  END
> <POSIT::Probability>
0.02

> <POSIT::Method>
FRED

> <ReceptorTitle>
UCSF-P4578-REFINED_LIGAND-BOUND-STATE_A__DU__LA1_A-201(A)

> <OMEGA_C>
qtMywqpf3MFmbVA/Zp8twmpo3cEKaKQ/6Ek2wowh5cGyvlg/diBDwqfv7sHe271AXkhLwgUf9MFa
1s5A9Nsrwog758EW1uI/SKE0wjkO78EAma4/skkvwqYh8MGWBOY/OilGwoPi8MGu+plA6FUmwp3g
58HeIg9ADqU+wmX48cE4TUhAwiUtwoWW+sGG6xRAbnYwwrAVAsJeX/A/Rlk2wiUSAcJ0wwpAjnA4
woWJ+MHcxa4/fItEwkng78Fdb1dAPjtLwlsb9MGEwqRAVHZGwr0L8cFodt9Afrs9wuLR9cEG3Ow/
gPAkwo1D6sFGX1hA9C07wtBy8MFwrn5ADMMiwoCG5cF0p6A/mDU0ws7C1MHwmdc+YPgqwgeE1sGO
gqE/NFc6wmIs5MEoce0+1As/wkxW7MHAgMJAiqJOwjE/9sGQ8uJAZgspwneK+8HYw/s/LhQtwvqJ
+sGF0VpAutsvwtzDAsL45E4/kh8vwn2yBcKgfhlAVqs4wlSmBMLctvM/lPc2wnxtAMJugk9AaAg5
whlU+8FIaaY+It5Gwj9+9cG7UzBA6oZFwlzT58EvQ0BAjIlFwvVx8MGW3/5A3N1Awi4W98GE7Zw/
jggfwgDx5cFwYcc/

> <OMEGA_E>
JpUfwQ==

> <OMEGA_NBR>
      1275

$$$$
CACHE3-HO_1700_18
  -OEChem-03092622533D

 43 46  0     1  0  0  0  0  0999 V2000
  -42.3449  -31.9596    1.8236 C   0  0  0  0  0  0  0  0  0  0  0  0
  -43.5727  -31.6008    1.2615 C   0  0  0  0  0  0  0  0  0  0  0  0
  -41.4210  -30.9756    2.2097 C   0  0  0  0  0  0  0  0  0  0  0  0
  -47.1052  -28.9872    5.0248 C   0  0  0  0  0  0  0  0  0  0  0  0
  -48.2449  -29.0466    5.8272 C   0  0  0  0  0  0  0  0  0  0  0  0
  -47.1301  -29.6153    3.7815 C   0  0  0  0  0  0  0  0  0  0  0  0
  -43.8481  -30.2534    1.0868 C   0  0  0  0  0  0  0  0  0  0  0  0
  -48.2926  -30.2563    3.4039 C   0  0  0  0  0  0  0  0  0  0  0  0
  -42.9208  -29.2735    1.4660 C   0  0  0  0  0  0  0  0  0  0  0  0
  -41.7072  -29.6201    2.0352 C   0  0  0  0  0  0  0  0  0  0  0  0
  -49.3756  -30.2623    4.2767 C   0  0  0  0  0  0  0  0  0  0  0  0
  -45.9331  -29.5877    2.9031 C   0  0  0  0  0  0  0  0  0  0  0  0
  -45.6278  -27.1481    0.1687 C   0  0  0  0  0  0  0  0  0  0  0  0
  -48.5894  -31.0283    2.1627 C   0  0  0  0  0  0  0  0  0  0  0  0
  -43.4534  -27.8997    1.2025 C   0  0  0  0  0  0  0  0  0  0  0  0
  -50.5148  -31.0542    3.7031 C   0  0  0  0  0  0  0  0  0  0  0  0
  -50.1249  -31.0939    2.2176 C   0  0  0  0  0  0  0  0  0  0  0  0
  -45.1048  -29.6281    0.5418 C   0  0  2  0  0  0  0  0  0  0  0  0
  -44.5729  -28.2132    0.1928 C   0  0  1  0  0  0  0  0  0  0  0  0
  -49.3935  -29.6795    5.4864 N   0  0  0  0  0  0  0  0  0  0  0  0
  -46.1764  -29.6249    1.5345 N   0  0  0  0  0  0  0  0  0  0  0  0
  -44.8159  -29.5543    3.4121 O   0  0  0  0  0  0  0  0  0  0  0  0
  -46.3231  -26.8274    1.1211 O   0  0  0  0  0  0  0  0  0  0  0  0
  -40.8092  -28.6757    2.4149 O   0  0  0  0  0  0  0  0  0  0  0  0
  -45.7115  -26.5855   -1.0613 O   0  0  0  0  0  0  0  0  0  0  0  0
  -42.0984  -33.0087    1.9559 H   0  0  0  0  0  0  0  0  0  0  0  0
  -44.2817  -32.3656    0.9675 H   0  0  0  0  0  0  0  0  0  0  0  0
  -40.4704  -31.2805    2.6420 H   0  0  0  0  0  0  0  0  0  0  0  0
  -46.2213  -28.4623    5.3733 H   0  0  0  0  0  0  0  0  0  0  0  0
  -48.2556  -28.5697    6.8024 H   0  0  0  0  0  0  0  0  0  0  0  0
  -48.2487  -30.5221    1.2554 H   0  0  0  0  0  0  0  0  0  0  0  0
  -48.1501  -32.0291    2.2235 H   0  0  0  0  0  0  0  0  0  0  0  0
  -43.8262  -27.4242    2.1118 H   0  0  0  0  0  0  0  0  0  0  0  0
  -42.6745  -27.2854    0.7443 H   0  0  0  0  0  0  0  0  0  0  0  0
  -50.5251  -32.0588    4.1377 H   0  0  0  0  0  0  0  0  0  0  0  0
  -51.4801  -30.5659    3.8596 H   0  0  0  0  0  0  0  0  0  0  0  0
  -50.5393  -30.2095    1.7135 H   0  0  0  0  0  0  0  0  0  0  0  0
  -50.5238  -31.9742    1.7040 H   0  0  0  0  0  0  0  0  0  0  0  0
  -45.4357  -30.1594   -0.3208 H   0  0  0  0  0  0  0  0  0  0  0  0
  -44.1469  -28.2281   -0.8516 H   0  0  0  0  0  0  0  0  0  0  0  0
  -47.1326  -29.7154    1.1952 H   0  0  0  0  0  0  0  0  0  0  0  0
  -40.0230  -29.1168    2.7884 H   0  0  0  0  0  0  0  0  0  0  0  0
  -46.3993  -25.8865   -1.0993 H   0  0  0  0  0  0  0  0  0  0  0  0
  1  2  1  0  0  0  0
  1  3  2  0  0  0  0
  2  7  2  0  0  0  0
  3 10  1  0  0  0  0
  4  5  2  0  0  0  0
  4  6  1  0  0  0  0
  5 20  1  0  0  0  0
  6  8  2  0  0  0  0
  6 12  1  0  0  0  0
  7  9  1  0  0  0  0
  7 18  1  0  0  0  0
  8 11  1  0  0  0  0
  8 14  1  0  0  0  0
  9 10  2  0  0  0  0
  9 15  1  0  0  0  0
 10 24  1  0  0  0  0
 11 16  1  0  0  0  0
 11 20  2  0  0  0  0
 12 21  1  0  0  0  0
 12 22  2  0  0  0  0
 13 19  1  0  0  0  0
 13 23  2  0  0  0  0
 13 25  1  0  0  0  0
 14 17  1  0  0  0  0
 15 19  1  0  0  0  0
 16 17  1  0  0  0  0
 18 19  1  0  0  0  0
 18 21  1  0  0  0  0
  1 26  1  0  0  0  0
  2 27  1  0  0  0  0
  3 28  1  0  0  0  0
  4 29  1  0  0  0  0
  5 30  1  0  0  0  0
 14 31  1  0  0  0  0
 14 32  1  0  0  0  0
 15 33  1  0  0  0  0
 15 34  1  0  0  0  0
 16 35  1  0  0  0  0
 16 36  1  0  0  0  0
 17 37  1  0  0  0  0
 17 38  1  0  0  0  0
 18 39  1  0  0  0  0
 19 40  1  0  0  0  0
 21 41  1  0  0  0  0
 24 42  1  0  0  0  0
 25 43  1  0  0  0  0
M  END
> <POSIT::Probability>
0.02

> <POSIT::Method>
FRED

> <ReceptorTitle>
UCSF-P4578-REFINED_LIGAND-BOUND-STATE_A__DU__LA1_A-201(A)

> <OMEGA_C>
IWEpwi6t/8FEbOk/bUouwnjO/MHYd6E/I68lwhbO98GEbA1AvWs8wt3l58HtyqBAz/pAwnpf6MGj
eLpAQYU8wiTs7MHFBHJAamQvwugG8sFoHIs/pCtBwvwM8sES2llA2q4rwiUw6sEUp7s/MdQmwgT2
7MHaQAJAk4BFwjcZ8sEA24hAf7s3wq6z7MGSzDlA1II2wlwv2cGAxSw+jFtCwt85+MFWagpASNAt
wqwy38H87Jk/Jg9Kwhpv+MF6/2xA5H9IwkfA+MFs7Q1AV2s0wlEG7cFIsQo/nkoywqq04cFgZkU+
8pJFwoZv7cG0kK9ApbQ4wuT/7MEQasQ/ekMzwiZv7MHuX1pA5Uo5wo2e1sHIf48/nTwjwstn5cFS
jhpAldg2wjOv1MEw2oe/t2QowvQIBMJsWfo/fCAxwmx2AcKor3c/uuEhwoA++sEIFylAluI4wrmy
48Ej8qtAsQVBwtSO5MGDrdlAuP5Awj4t9MFAsqA/u5lAws8dAMJiTQ5AB04vwrVk28GkJwdAurIq
wmlI2sEAiz4/uhlKwjQ8AMJhaIRAmOtNwuqG9MFtBHdANShKwgKt8cFAVNs/XBhKwhLL/8E8HNo/
Kb41wn1G8cFAQaS+d5YwwhHT4cFAAFq/yIc8wjm57cGQ+5g/jRcgwh/v6MFadDJA7pg5woMXz8Go
toy/

> <OMEGA_E>
/qwAwQ==

> <OMEGA_NBR>
      2635

$$$$
CACHE3-HO_1700_19
  -OEChem-03092622533D

 35 37  0     1  0  0  0  0  0999 V2000
  -55.3014  -29.5794    9.8267 C   0  0  0  0  0  0  0  0  0  0  0  0
  -53.9906  -30.1010    9.8795 C   0  0  0  0  0  0  0  0  0  0  0  0
  -55.9256  -29.3475    8.5815 C   0  0  0  0  0  0  0  0  0  0  0  0
  -47.6442  -29.4994    5.9770 C   0  0  0  0  0  0  0  0  0  0  0  0
  -46.6469  -29.1670    3.9253 C   0  0  0  0  0  0  0  0  0  0  0  0
  -46.3678  -29.2906    5.2689 C   0  0  0  0  0  0  0  0  0  0  0  0
  -53.2917  -30.3422    8.6835 C   0  0  0  0  0  0  0  0  0  0  0  0
  -53.9021  -30.0476    7.4479 C   0  0  0  0  0  0  0  0  0  0  0  0
  -55.2166  -29.5847    7.3891 C   0  0  0  0  0  0  0  0  0  0  0  0
  -48.6439  -29.5144    5.0378 C   0  0  0  0  0  0  0  0  0  0  0  0
  -45.0497  -29.2621    5.9101 C   0  0  0  0  0  0  0  0  0  0  0  0
  -50.0507  -29.7898    5.2851 C   0  0  0  0  0  0  0  0  0  0  0  0
  -51.8805  -30.8138    8.4361 C   0  0  0  0  0  0  0  0  0  0  0  0
  -52.8747  -30.0453    6.3759 C   0  0  0  0  0  0  0  0  0  0  0  0
  -51.6849  -30.8137    6.9180 C   0  0  1  0  0  0  0  0  0  0  0  0
  -48.0132  -29.2917    3.8357 N   0  0  0  0  0  0  0  0  0  0  0  0
  -50.4195  -30.1635    6.5747 N   0  0  0  0  0  0  0  0  0  0  0  0
  -44.9801  -29.2938    7.1327 O   0  0  0  0  0  0  0  0  0  0  0  0
  -50.8364  -29.7941    4.3437 O   0  0  0  0  0  0  0  0  0  0  0  0
  -55.7396  -29.2541    6.1819 O   0  0  0  0  0  0  0  0  0  0  0  0
  -43.9369  -29.2271    5.1341 O   0  0  0  0  0  0  0  0  0  0  0  0
  -55.8289  -29.3569   10.7424 H   0  0  0  0  0  0  0  0  0  0  0  0
  -53.5279  -30.3133   10.8320 H   0  0  0  0  0  0  0  0  0  0  0  0
  -56.9438  -28.9893    8.5443 H   0  0  0  0  0  0  0  0  0  0  0  0
  -47.7695  -29.6189    7.0430 H   0  0  0  0  0  0  0  0  0  0  0  0
  -45.9461  -29.0071    3.1193 H   0  0  0  0  0  0  0  0  0  0  0  0
  -51.1620  -30.1306    8.9123 H   0  0  0  0  0  0  0  0  0  0  0  0
  -51.7427  -31.8287    8.8373 H   0  0  0  0  0  0  0  0  0  0  0  0
  -53.2659  -30.5379    5.4735 H   0  0  0  0  0  0  0  0  0  0  0  0
  -52.5817  -29.0134    6.1326 H   0  0  0  0  0  0  0  0  0  0  0  0
  -51.7042  -31.8471    6.5418 H   0  0  0  0  0  0  0  0  0  0  0  0
  -48.5073  -29.2260    2.9688 H   0  0  0  0  0  0  0  0  0  0  0  0
  -49.7762  -29.9748    7.3166 H   0  0  0  0  0  0  0  0  0  0  0  0
  -55.1247  -29.4857    5.4958 H   0  0  0  0  0  0  0  0  0  0  0  0
  -43.1644  -29.2319    5.6871 H   0  0  0  0  0  0  0  0  0  0  0  0
  1  2  1  0  0  0  0
  1  3  2  0  0  0  0
  2  7  2  0  0  0  0
  3  9  1  0  0  0  0
  4  6  1  0  0  0  0
  4 10  2  0  0  0  0
  5  6  2  0  0  0  0
  5 16  1  0  0  0  0
  6 11  1  0  0  0  0
  7  8  1  0  0  0  0
  7 13  1  0  0  0  0
  8  9  2  0  0  0  0
  8 14  1  0  0  0  0
  9 20  1  0  0  0  0
 10 12  1  0  0  0  0
 10 16  1  0  0  0  0
 11 18  2  0  0  0  0
 11 21  1  0  0  0  0
 12 17  1  0  0  0  0
 12 19  2  0  0  0  0
 13 15  1  0  0  0  0
 14 15  1  0  0  0  0
 15 17  1  0  0  0  0
  1 22  1  0  0  0  0
  2 23  1  0  0  0  0
  3 24  1  0  0  0  0
  4 25  1  0  0  0  0
  5 26  1  0  0  0  0
 13 27  1  0  0  0  0
 13 28  1  0  0  0  0
 14 29  1  0  0  0  0
 14 30  1  0  0  0  0
 15 31  1  0  0  0  0
 16 32  1  0  0  0  0
 17 33  1  0  0  0  0
 20 34  1  0  0  0  0
 21 35  1  0  0  0  0
M  END
> <POSIT::Probability>
0.25

> <POSIT::Method>
SHAPEFIT

> <ReceptorTitle>
UCSF-P4578-REFINED_LIGAND-BOUND-STATE_A__DU__LA1_A-201(A)

> <OMEGA_C>
lzRdwqui7MH/OR1BXPZXwuXO8MGfEh5BzLNfwq7H6sHrTQlBqpM+wrb+68FJQ79AaJY6wgJW6cFe
OHtAlXg5wjpT6sGEmqhAripVwuq88sHC7wpBwJtXwnZh8ME1Ve5Az91cwm+t7MHic+xAUZNCwo8d
7MFnNaFA4TI0wsUY6sExH71A5TNIwolR7sG5H6lAp4VPwsOC9sES+gZBq39Tws1c8MGCB8xAY71O
wmaC9sGiYN1AgQ1AwnpV6sGSfHVAnq1Jws5O8cG1Y9JAqeszwp9Z6sHtPuRAfFhLwmpa7sGn/4pA
UPVewmII6sFy0sVAWb8vwirR6cF3SqRAyVBfwtja6sHZ4CtBhhxWwqOB8sH7Ty1BacZjwgTq58GC
tQhB8hM/wnDz7ME7YOFAysg3wqAO6MHroUdA4KVMwl4L8cHNmA5Bf/hOwkKh/sGPZQ1BUxBVwolN
9MEeJ69ApVNSwlkb6MEJPsRAItFOwvbG/sGGVtFAhgdCwuzO6cGGAT5AyxpHwlbM78GGIepAsH9c
wtDi68Gq3a9AWKgswv/a6cFp/LVA

> <OMEGA_E>
2DaOPw==

> <OMEGA_NBR>
      3859

$$$$
CACHE3-HO_1700_2
  -OEChem-03092622533D

 41 44  0     1  0  0  0  0  0999 V2000
  -50.9572  -30.5526    1.0161 C   0  0  0  0  0  0  0  0  0  0  0  0
  -49.8313  -31.0153    1.7020 C   0  0  0  0  0  0  0  0  0  0  0  0
  -51.6950  -29.4635    1.5063 C   0  0  0  0  0  0  0  0  0  0  0  0
  -42.0183  -29.3500    2.2687 C   0  0  0  0  0  0  0  0  0  0  0  0
  -43.2559  -27.5551    1.1425 C   0  0  0  0  0  0  0  0  0  0  0  0
  -42.0666  -30.4369    3.1291 C   0  0  0  0  0  0  0  0  0  0  0  0
  -44.4799  -26.9369    0.9328 C   0  0  0  0  0  0  0  0  0  0  0  0
  -44.3286  -30.2072    3.4555 C   0  0  0  0  0  0  0  0  0  0  0  0
  -43.2071  -28.6629    1.9972 C   0  0  0  0  0  0  0  0  0  0  0  0
  -44.3961  -29.1008    2.6054 C   0  0  0  0  0  0  0  0  0  0  0  0
  -49.4704  -30.3791    2.8796 C   0  0  0  0  0  0  0  0  0  0  0  0
  -50.2133  -29.2971    3.3707 C   0  0  0  0  0  0  0  0  0  0  0  0
  -51.3228  -28.8245    2.6907 C   0  0  0  0  0  0  0  0  0  0  0  0
  -45.5727  -28.4031    2.3234 C   0  0  0  0  0  0  0  0  0  0  0  0
  -46.8803  -28.7852    2.9146 C   0  0  0  0  0  0  0  0  0  0  0  0
  -47.6181  -29.5430    5.9655 C   0  0  0  0  0  0  0  0  0  0  0  0
  -49.6155  -28.7656    4.6359 C   0  0  0  0  0  0  0  0  0  0  0  0
  -48.2882  -30.6713    3.7653 C   0  0  2  0  0  0  0  0  0  0  0  0
  -48.7432  -29.9594    5.0664 C   0  0  1  0  0  0  0  0  0  0  0  0
  -43.1914  -30.8837    3.7300 N   0  0  0  0  0  0  0  0  0  0  0  0
  -45.6398  -27.3322    1.5009 N   0  0  0  0  0  0  0  0  0  0  0  0
  -47.0513  -30.1347    3.2033 N   0  0  0  0  0  0  0  0  0  0  0  0
  -47.7321  -27.9195    3.0974 O   0  0  0  0  0  0  0  0  0  0  0  0
  -46.7270  -28.7644    5.6601 O   0  0  0  0  0  0  0  0  0  0  0  0
  -52.0402  -27.7698    3.1550 O   0  0  0  0  0  0  0  0  0  0  0  0
  -47.7187  -30.1528    7.1715 O   0  0  0  0  0  0  0  0  0  0  0  0
  -51.2703  -31.0443    0.0999 H   0  0  0  0  0  0  0  0  0  0  0  0
  -49.2655  -31.8553    1.3167 H   0  0  0  0  0  0  0  0  0  0  0  0
  -52.5698  -29.1242    0.9558 H   0  0  0  0  0  0  0  0  0  0  0  0
  -41.0746  -29.0502    1.8234 H   0  0  0  0  0  0  0  0  0  0  0  0
  -42.3650  -27.1789    0.6493 H   0  0  0  0  0  0  0  0  0  0  0  0
  -41.1664  -30.9956    3.3647 H   0  0  0  0  0  0  0  0  0  0  0  0
  -44.5587  -26.0757    0.2772 H   0  0  0  0  0  0  0  0  0  0  0  0
  -45.2055  -30.6013    3.9597 H   0  0  0  0  0  0  0  0  0  0  0  0
  -49.0335  -27.8581    4.4637 H   0  0  0  0  0  0  0  0  0  0  0  0
  -50.4070  -28.5768    5.3652 H   0  0  0  0  0  0  0  0  0  0  0  0
  -48.1788  -31.7232    3.8974 H   0  0  0  0  0  0  0  0  0  0  0  0
  -49.3601  -30.6763    5.6811 H   0  0  0  0  0  0  0  0  0  0  0  0
  -46.3169  -30.7982    2.9626 H   0  0  0  0  0  0  0  0  0  0  0  0
  -52.7782  -27.5929    2.5417 H   0  0  0  0  0  0  0  0  0  0  0  0
  -46.9888  -29.8955    7.7751 H   0  0  0  0  0  0  0  0  0  0  0  0
  1  2  1  0  0  0  0
  1  3  2  0  0  0  0
  2 11  2  0  0  0  0
  3 13  1  0  0  0  0
  4  6  2  0  0  0  0
  4  9  1  0  0  0  0
  5  7  2  0  0  0  0
  5  9  1  0  0  0  0
  6 20  1  0  0  0  0
  7 21  1  0  0  0  0
  8 10  1  0  0  0  0
  8 20  2  0  0  0  0
  9 10  2  0  0  0  0
 10 14  1  0  0  0  0
 11 12  1  0  0  0  0
 11 18  1  0  0  0  0
 12 13  2  0  0  0  0
 12 17  1  0  0  0  0
 13 25  1  0  0  0  0
 14 15  1  0  0  0  0
 14 21  2  0  0  0  0
 15 22  1  0  0  0  0
 15 23  2  0  0  0  0
 16 19  1  0  0  0  0
 16 24  2  0  0  0  0
 16 26  1  0  0  0  0
 17 19  1  0  0  0  0
 18 19  1  0  0  0  0
 18 22  1  0  0  0  0
  1 27  1  0  0  0  0
  2 28  1  0  0  0  0
  3 29  1  0  0  0  0
  4 30  1  0  0  0  0
  5 31  1  0  0  0  0
  6 32  1  0  0  0  0
  7 33  1  0  0  0  0
  8 34  1  0  0  0  0
 17 35  1  0  0  0  0
 17 36  1  0  0  0  0
 18 37  1  0  0  0  0
 19 38  1  0  0  0  0
 22 39  1  0  0  0  0
 25 40  1  0  0  0  0
 26 41  1  0  0  0  0
M  END
> <POSIT::Probability>
0.02

> <POSIT::Method>
FRED

> <ReceptorTitle>
UCSF-P4578-REFINED_LIGAND-BOUND-STATE_A__DU__LA1_A-201(A)

> <OMEGA_C>
NtRLwsVr9MFmDoI/RlNHwm4f+MHg2dk/q8dOwlC168HxzMA/tBIowuLM6sHWMRFAFwYtwuVw3MEM
PJI/KUQowtJ+88G2QkhAZOsxwtd+18H/yG4/hVAxwnKo8cFKJl1AGtQswpFN5cHKpP8/kJUxwm/O
6MFUvyZAtOFFwmoI88HASzhAYdpIwl5g6sH8uVdAgEpNwo2Y5sHRMyxAcEo2woA548EgshRAY4U7
wgJI5sEIiTpA6Hg+wv5X7MEb5b5AOnZGwg0g5sElWZRAISdBwtpe9cFM+3BAFvlCwtms78HhH6JA
BsQswskR98E4uG5AJo82wkao2sGwHsA/jTQ8wsUT8cGQAk1AqO0+wjJb38F8O0ZAe+g6wnMd5sFF
H7VAIilQwqMo3sEM7ElA798+wgQ58cHlfOVAzxRNwqRa+ME4pcw95g9FwrHX/sGbiKg/cUdSwk7+
6ME3rHQ/cUwkwrlm6MHsZOk/t3UpwmFu2cH6OSY/ZqokwvH298HqVldAHzwywg+b0MGo6o0+ddI0
wojP9MGSa31ATiJEwnvd3sGn1o5Au6BJwk6d5MHlr6tAErdAwhDJ/cHQb3lAxHBFwg9p9cEuy7VA
ikQ5ws9i9sHOmj1A2hxTwk2+3MGeqyJAk/Q7wvUp78HHzfhA

> <OMEGA_E>
HRn5wA==

> <OMEGA_NBR>
      5178

$$$$
CACHE3-HO_1700_27
  -OEChem-03092622533D

 45 48  0     1  0  0  0  0  0999 V2000
  -42.7108  -27.2615    1.3303 C   0  0  0  0  0  0  0  0  0  0  0  0
  -48.6357  -28.6125    5.7547 C   0  0  0  0  0  0  0  0  0  0  0  0
  -43.8582  -27.9218    0.8853 C   0  0  0  0  0  0  0  0  0  0  0  0
  -41.7444  -27.9386    2.0901 C   0  0  0  0  0  0  0  0  0  0  0  0
  -49.8222  -28.9445    5.1103 C   0  0  0  0  0  0  0  0  0  0  0  0
  -47.4240  -28.7626    5.0896 C   0  0  0  0  0  0  0  0  0  0  0  0
  -51.9244  -28.8398    2.8411 C   0  0  0  0  0  0  0  0  0  0  0  0
  -51.0911  -31.0842    2.6095 C   0  0  0  0  0  0  0  0  0  0  0  0
  -53.0462  -29.2411    2.1327 C   0  0  0  0  0  0  0  0  0  0  0  0
  -52.2497  -31.3852    1.9118 C   0  0  0  0  0  0  0  0  0  0  0  0
  -50.9332  -29.7852    3.0796 C   0  0  0  0  0  0  0  0  0  0  0  0
  -44.0123  -29.2612    1.2059 C   0  0  0  0  0  0  0  0  0  0  0  0
  -43.0431  -29.9377    1.9592 C   0  0  0  0  0  0  0  0  0  0  0  0
  -41.9087  -29.2867    2.4143 C   0  0  0  0  0  0  0  0  0  0  0  0
  -49.7434  -29.4189    3.8104 C   0  0  0  0  0  0  0  0  0  0  0  0
  -47.4521  -29.2450    3.7911 C   0  0  0  0  0  0  0  0  0  0  0  0
  -46.1887  -29.4241    3.0315 C   0  0  0  0  0  0  0  0  0  0  0  0
  -45.4742  -32.6401    1.4317 C   0  0  0  0  0  0  0  0  0  0  0  0
  -43.4435  -31.3602    2.1961 C   0  0  0  0  0  0  0  0  0  0  0  0
  -45.1684  -30.1660    0.8712 C   0  0  1  0  0  0  0  0  0  0  0  0
  -44.5034  -31.5501    1.0959 C   0  0  2  0  0  0  0  0  0  0  0  0
  -53.2345  -30.4939    1.6606 N   0  0  0  0  0  0  0  0  0  0  0  0
  -48.5846  -29.5781    3.1323 N   0  0  0  0  0  0  0  0  0  0  0  0
  -46.3167  -29.9134    1.7362 N   0  0  0  0  0  0  0  0  0  0  0  0
  -45.1195  -29.1582    3.5740 O   0  0  0  0  0  0  0  0  0  0  0  0
  -45.4559  -33.3050    2.4569 O   0  0  0  0  0  0  0  0  0  0  0  0
  -40.9723  -29.9330    3.1548 O   0  0  0  0  0  0  0  0  0  0  0  0
  -46.3816  -32.7955    0.4372 O   0  0  0  0  0  0  0  0  0  0  0  0
  -42.5594  -26.2149    1.0792 H   0  0  0  0  0  0  0  0  0  0  0  0
  -48.6552  -28.2382    6.7738 H   0  0  0  0  0  0  0  0  0  0  0  0
  -44.6002  -27.3916    0.3001 H   0  0  0  0  0  0  0  0  0  0  0  0
  -40.8575  -27.4029    2.4199 H   0  0  0  0  0  0  0  0  0  0  0  0
  -50.7722  -28.8319    5.6228 H   0  0  0  0  0  0  0  0  0  0  0  0
  -46.4921  -28.5068    5.5826 H   0  0  0  0  0  0  0  0  0  0  0  0
  -51.8362  -27.8167    3.1918 H   0  0  0  0  0  0  0  0  0  0  0  0
  -50.3384  -31.8484    2.7751 H   0  0  0  0  0  0  0  0  0  0  0  0
  -53.8485  -28.5428    1.9199 H   0  0  0  0  0  0  0  0  0  0  0  0
  -52.4209  -32.3841    1.5244 H   0  0  0  0  0  0  0  0  0  0  0  0
  -42.5848  -32.0164    2.0299 H   0  0  0  0  0  0  0  0  0  0  0  0
  -43.8457  -31.5102    3.2006 H   0  0  0  0  0  0  0  0  0  0  0  0
  -45.4642  -30.0214   -0.1443 H   0  0  0  0  0  0  0  0  0  0  0  0
  -44.0077  -31.8798    0.1416 H   0  0  0  0  0  0  0  0  0  0  0  0
  -47.2372  -30.1687    1.3827 H   0  0  0  0  0  0  0  0  0  0  0  0
  -40.2546  -29.3096    3.3748 H   0  0  0  0  0  0  0  0  0  0  0  0
  -47.0264  -33.5080    0.6366 H   0  0  0  0  0  0  0  0  0  0  0  0
  1  3  1  0  0  0  0
  1  4  2  0  0  0  0
  2  5  1  0  0  0  0
  2  6  2  0  0  0  0
  3 12  2  0  0  0  0
  4 14  1  0  0  0  0
  5 15  2  0  0  0  0
  6 16  1  0  0  0  0
  7  9  2  0  0  0  0
  7 11  1  0  0  0  0
  8 10  1  0  0  0  0
  8 11  2  0  0  0  0
  9 22  1  0  0  0  0
 10 22  2  0  0  0  0
 11 15  1  0  0  0  0
 12 13  1  0  0  0  0
 12 20  1  0  0  0  0
 13 14  2  0  0  0  0
 13 19  1  0  0  0  0
 14 27  1  0  0  0  0
 15 23  1  0  0  0  0
 16 17  1  0  0  0  0
 16 23  2  0  0  0  0
 17 24  1  0  0  0  0
 17 25  2  0  0  0  0
 18 21  1  0  0  0  0
 18 26  2  0  0  0  0
 18 28  1  0  0  0  0
 19 21  1  0  0  0  0
 20 21  1  0  0  0  0
 20 24  1  0  0  0  0
  1 29  1  0  0  0  0
  2 30  1  0  0  0  0
  3 31  1  0  0  0  0
  4 32  1  0  0  0  0
  5 33  1  0  0  0  0
  6 34  1  0  0  0  0
  7 35  1  0  0  0  0
  8 36  1  0  0  0  0
  9 37  1  0  0  0  0
 10 38  1  0  0  0  0
 19 39  1  0  0  0  0
 19 40  1  0  0  0  0
 20 41  1  0  0  0  0
 21 42  1  0  0  0  0
 24 43  1  0  0  0  0
 27 44  1  0  0  0  0
 28 45  1  0  0  0  0
M  END
> <POSIT::Probability>
0.02

> <POSIT::Method>
FRED

> <ReceptorTitle>
UCSF-P4578-REFINED_LIGAND-BOUND-STATE_A__DU__LA1_A-201(A)

> <OMEGA_C>
1NcqwowX2sEdRqo/94pCwljm5MFLJrhAyW4vws1f38G+o2I/UPomwkuC38F8xAVA8UlHwk2O58Gd
h6NAKLI9wtQZ5sEm3qJAnbJPwv635sH40zVARV1Mwlqs+MHUAidARS9Uwrvt6cGyfghAq/9Qwt8U
+8EZt/Q/jLtLwhxI7sGmF0VAkAwwwggX6sGJWpo/KywswmuA78ECxvo/g6InwjtL6sFXhBpANvlG
wtZZ68F+3XNA+M49wtb16cHgoHJAOsE4wqZk68HiA0JAieU1wnuPAsLLQbc/GsYtwpnh+sEyjQxA
d6w0wuhT8cFFBV8/dAMywrFm/MGkR4w/GvBUwnDz88ExjtQ/pFZCwuKf7MHOd0hASkQ5wqpO78F7
O94/V3o0wuZD6cHivGRAy9I1wlI4BcKCPR1AoOMjwrx278HW6ElAxYY5wpYuA8Ky3N8+0zwqwiO4
0cEvIoo/6J5CwuPn4cEqw9hAnGYywgwi28Hvp5k+DW4jwjA528Ga3xpAsRZLwsan5sE47rNA4Pc5
wtsN5MF0pLJASVhPwoCI3sGoRkxAkFpJwpTJ/sEUmzFA2GRXwpJX5MHcvvU/Ca9RwlyJAcIiH8M/
1lYqwsIQAMJv6gFACWIvwt8U/ME610xAW9s1wsQr8MEAwRO+6AcwwsUJ/8Hw+RA+7/I8wnBZ8cGj
/bA/vAQhwgt66sFI/FdAERs8wjwIBsJm9yI/

> <OMEGA_E>
CRHvwA==

> <OMEGA_NBR>
      6578

$$$$
CACHE3-HO_1700_4
  -OEChem-03092622533D

 45 48  0     1  0  0  0  0  0999 V2000
  -49.6607  -29.5586    4.4747 C   0  0  0  0  0  0  0  0  0  0  0  0
  -48.5149  -29.0859    5.1146 C   0  0  0  0  0  0  0  0  0  0  0  0
  -42.3753  -27.4488    1.4281 C   0  0  0  0  0  0  0  0  0  0  0  0
  -49.5846  -30.0210    3.1610 C   0  0  0  0  0  0  0  0  0  0  0  0
  -47.2933  -29.0757    4.4411 C   0  0  0  0  0  0  0  0  0  0  0  0
  -43.3880  -28.2348    0.8738 C   0  0  0  0  0  0  0  0  0  0  0  0
  -41.4237  -28.0123    2.2922 C   0  0  0  0  0  0  0  0  0  0  0  0
  -48.6677  -31.7897    0.7907 C   0  0  0  0  0  0  0  0  0  0  0  0
  -47.9126  -29.6995    0.0714 C   0  0  0  0  0  0  0  0  0  0  0  0
  -48.2251  -31.4000   -1.4050 C   0  0  0  0  0  0  0  0  0  0  0  0
  -48.3630  -30.0108    2.4875 C   0  0  0  0  0  0  0  0  0  0  0  0
  -48.3146  -30.4978    1.1225 C   0  0  0  0  0  0  0  0  0  0  0  0
  -47.2172  -29.5381    3.1273 C   0  0  0  0  0  0  0  0  0  0  0  0
  -43.4228  -29.5831    1.1921 C   0  0  0  0  0  0  0  0  0  0  0  0
  -42.4679  -30.1456    2.0500 C   0  0  0  0  0  0  0  0  0  0  0  0
  -41.4680  -29.3704    2.6132 C   0  0  0  0  0  0  0  0  0  0  0  0
  -45.8969  -29.5106    2.4481 C   0  0  0  0  0  0  0  0  0  0  0  0
  -44.5100  -33.1060    1.3037 C   0  0  0  0  0  0  0  0  0  0  0  0
  -42.7279  -31.6043    2.2605 C   0  0  0  0  0  0  0  0  0  0  0  0
  -44.4281  -30.6130    0.7494 C   0  0  1  0  0  0  0  0  0  0  0  0
  -43.6385  -31.9129    1.0582 C   0  0  2  0  0  0  0  0  0  0  0  0
  -48.6348  -32.2759   -0.4676 N   0  0  0  0  0  0  0  0  0  0  0  0
  -47.8553  -30.1195   -1.2096 N   0  0  0  0  0  0  0  0  0  0  0  0
  -45.6818  -30.4924    1.4872 N   0  0  0  0  0  0  0  0  0  0  0  0
  -45.0733  -28.6589    2.7715 O   0  0  0  0  0  0  0  0  0  0  0  0
  -44.5244  -33.7648    2.3329 O   0  0  0  0  0  0  0  0  0  0  0  0
  -40.5475  -29.9065    3.4546 O   0  0  0  0  0  0  0  0  0  0  0  0
  -45.2850  -33.3629    0.2221 O   0  0  0  0  0  0  0  0  0  0  0  0
  -50.6116  -29.5667    4.9994 H   0  0  0  0  0  0  0  0  0  0  0  0
  -48.5744  -28.7266    6.1378 H   0  0  0  0  0  0  0  0  0  0  0  0
  -42.3174  -26.3917    1.1820 H   0  0  0  0  0  0  0  0  0  0  0  0
  -50.4875  -30.3857    2.6769 H   0  0  0  0  0  0  0  0  0  0  0  0
  -46.4079  -28.7058    4.9521 H   0  0  0  0  0  0  0  0  0  0  0  0
  -44.1196  -27.7920    0.2084 H   0  0  0  0  0  0  0  0  0  0  0  0
  -40.6423  -27.3796    2.7063 H   0  0  0  0  0  0  0  0  0  0  0  0
  -48.9989  -32.5009    1.5417 H   0  0  0  0  0  0  0  0  0  0  0  0
  -47.6130  -28.6665    0.2224 H   0  0  0  0  0  0  0  0  0  0  0  0
  -48.1867  -31.7648   -2.4240 H   0  0  0  0  0  0  0  0  0  0  0  0
  -41.7881  -32.1589    2.1922 H   0  0  0  0  0  0  0  0  0  0  0  0
  -43.2137  -31.7992    3.2194 H   0  0  0  0  0  0  0  0  0  0  0  0
  -44.6303  -30.5026   -0.2930 H   0  0  0  0  0  0  0  0  0  0  0  0
  -43.0116  -32.1840    0.1646 H   0  0  0  0  0  0  0  0  0  0  0  0
  -46.3946  -31.2012    1.3227 H   0  0  0  0  0  0  0  0  0  0  0  0
  -39.9317  -29.2059    3.7408 H   0  0  0  0  0  0  0  0  0  0  0  0
  -45.8627  -34.1440    0.3615 H   0  0  0  0  0  0  0  0  0  0  0  0
  1  2  1  0  0  0  0
  1  4  2  0  0  0  0
  2  5  2  0  0  0  0
  3  6  2  0  0  0  0
  3  7  1  0  0  0  0
  4 11  1  0  0  0  0
  5 13  1  0  0  0  0
  6 14  1  0  0  0  0
  7 16  2  0  0  0  0
  8 12  1  0  0  0  0
  8 22  2  0  0  0  0
  9 12  2  0  0  0  0
  9 23  1  0  0  0  0
 10 22  1  0  0  0  0
 10 23  2  0  0  0  0
 11 12  1  0  0  0  0
 11 13  2  0  0  0  0
 13 17  1  0  0  0  0
 14 15  2  0  0  0  0
 14 20  1  0  0  0  0
 15 16  1  0  0  0  0
 15 19  1  0  0  0  0
 16 27  1  0  0  0  0
 17 24  1  0  0  0  0
 17 25  2  0  0  0  0
 18 21  1  0  0  0  0
 18 26  2  0  0  0  0
 18 28  1  0  0  0  0
 19 21  1  0  0  0  0
 20 21  1  0  0  0  0
 20 24  1  0  0  0  0
  1 29  1  0  0  0  0
  2 30  1  0  0  0  0
  3 31  1  0  0  0  0
  4 32  1  0  0  0  0
  5 33  1  0  0  0  0
  6 34  1  0  0  0  0
  7 35  1  0  0  0  0
  8 36  1  0  0  0  0
  9 37  1  0  0  0  0
 10 38  1  0  0  0  0
 19 39  1  0  0  0  0
 19 40  1  0  0  0  0
 20 41  1  0  0  0  0
 21 42  1  0  0  0  0
 24 43  1  0  0  0  0
 27 44  1  0  0  0  0
 28 45  1  0  0  0  0
M  END
> <POSIT::Probability>
0.02

> <POSIT::Method>
FRED

> <ReceptorTitle>
UCSF-P4578-REFINED_LIGAND-BOUND-STATE_A__DU__LA1_A-201(A)

> <OMEGA_C>
jqRGwhx47MHMMI9ATQ9Cwtyv6MGqqqNASYApwimX28FAy7Y/nFZGwgIr8MF8TUpAYyw9wvya6MFq
HY5ATY0twsvg4cHAsF8/57ElwhcZ4MGksxJAxqtCwlxR/sHQaEo/gKY/woGY7cEASpI9heZAwjYz
+8F017O/sHNBwiMW8MEEMx9AHUJBwnr788Horo8/dt48wu9N7MHoJUhA8rAtwkiq7MFwl5g/Fd8p
wjQq8cFIMwNAPt8lwor26sGgPidAeZY3wsUV7MGsrRxAPwoywodsBMIQ4aY/VukqwqnV/MEArBBA
Z7YxwmXn9MGA2D8/0o0uwqxN/8EwdIc//olCwoUaAcLgYu++2Ws/wsf08MGU1Zq/Kro2wnjw88H4
W74/FUs0wn1F5cFIYDFA8BgywiIPB8J8ThVAmDAiwo9A78GMGF1AziM1wqlzBcIAamM+R3JKwqSI
7MHA+p9AN0xCwvzP5cHAaMRABUUpwksi08GoSpc/O/NJwvMV88H8UStAsaE5wn2l5cFud55AgXow
wvNV3sHAZ1U+rJEiwlsJ28HwMy1A3f5DwuMAAsLoV8U/tnM+whZV5cFAuGM+Ir9Awlwe/sGuIhvA
9yYnwsOiAMKkTQxAy9oswtlk/sHiCU5AdYUywkcF9MEQ/pW+5Qsswm28AMIAgSg+E5Q5whCc+cFw
T6k/BbofwqOl6cGgaW9AW3M3wn+TCMKAFbk+

> <OMEGA_E>
Z0IBwQ==

> <OMEGA_NBR>
      7977

$$$$
CACHE3-HO_1700_6
  -OEChem-03092622533D

 51 54  0     1  0  0  0  0  0999 V2000
  -48.5375  -28.1290    4.8170 C   0  0  0  0  0  0  0  0  0  0  0  0
  -49.5382  -29.0218    4.4335 C   0  0  0  0  0  0  0  0  0  0  0  0
  -42.2421  -32.0724    2.1050 C   0  0  0  0  0  0  0  0  0  0  0  0
  -47.2659  -28.2226    4.2515 C   0  0  0  0  0  0  0  0  0  0  0  0
  -43.2413  -31.4537    1.3492 C   0  0  0  0  0  0  0  0  0  0  0  0
  -49.2676  -30.0079    3.4846 C   0  0  0  0  0  0  0  0  0  0  0  0
  -41.3128  -31.3053    2.8252 C   0  0  0  0  0  0  0  0  0  0  0  0
  -46.9953  -29.2087    3.3026 C   0  0  0  0  0  0  0  0  0  0  0  0
  -43.2833  -30.0683    1.3219 C   0  0  0  0  0  0  0  0  0  0  0  0
  -42.3496  -29.3050    2.0356 C   0  0  0  0  0  0  0  0  0  0  0  0
  -47.9960  -30.1015    2.9191 C   0  0  0  0  0  0  0  0  0  0  0  0
  -41.3642  -29.9102    2.7969 C   0  0  0  0  0  0  0  0  0  0  0  0
  -45.6313  -29.2791    2.7197 C   0  0  0  0  0  0  0  0  0  0  0  0
  -48.6363  -32.0594    1.4780 C   0  0  0  0  0  0  0  0  0  0  0  0
  -44.3591  -26.6273    0.5127 C   0  0  0  0  0  0  0  0  0  0  0  0
  -42.6144  -27.8412    1.8706 C   0  0  0  0  0  0  0  0  0  0  0  0
  -48.1881  -34.6162   -0.9055 C   0  0  0  0  0  0  0  0  0  0  0  0
  -48.1103  -34.5008    0.6285 C   0  0  0  0  0  0  0  0  0  0  0  0
  -48.6886  -33.1599   -0.9180 C   0  0  0  0  0  0  0  0  0  0  0  0
  -44.2785  -29.1857    0.6162 C   0  0  2  0  0  0  0  0  0  0  0  0
  -47.9688  -32.9675    0.4422 C   0  0  0  0  0  0  0  0  0  0  0  0
  -43.4934  -27.8478    0.6064 C   0  0  1  0  0  0  0  0  0  0  0  0
  -47.7481  -31.0959    1.9688 N   0  0  0  0  0  0  0  0  0  0  0  0
  -45.5449  -29.1190    1.3411 N   0  0  0  0  0  0  0  0  0  0  0  0
  -44.6730  -29.4892    3.4587 O   0  0  0  0  0  0  0  0  0  0  0  0
  -49.8144  -32.2151    1.7835 O   0  0  0  0  0  0  0  0  0  0  0  0
  -45.4932  -26.5354    0.9584 O   0  0  0  0  0  0  0  0  0  0  0  0
  -40.4634  -29.1769    3.4994 O   0  0  0  0  0  0  0  0  0  0  0  0
  -43.7129  -25.6316   -0.1412 O   0  0  0  0  0  0  0  0  0  0  0  0
  -48.7487  -27.3619    5.5563 H   0  0  0  0  0  0  0  0  0  0  0  0
  -50.5279  -28.9487    4.8747 H   0  0  0  0  0  0  0  0  0  0  0  0
  -42.1776  -33.1560    2.1296 H   0  0  0  0  0  0  0  0  0  0  0  0
  -46.4942  -27.5213    4.5586 H   0  0  0  0  0  0  0  0  0  0  0  0
  -43.9564  -32.0522    0.7973 H   0  0  0  0  0  0  0  0  0  0  0  0
  -50.0565  -30.6972    3.1942 H   0  0  0  0  0  0  0  0  0  0  0  0
  -40.5422  -31.8106    3.4034 H   0  0  0  0  0  0  0  0  0  0  0  0
  -43.1252  -27.4176    2.7376 H   0  0  0  0  0  0  0  0  0  0  0  0
  -41.6735  -27.3157    1.6897 H   0  0  0  0  0  0  0  0  0  0  0  0
  -47.2131  -34.7515   -1.3874 H   0  0  0  0  0  0  0  0  0  0  0  0
  -48.8854  -35.3632   -1.2924 H   0  0  0  0  0  0  0  0  0  0  0  0
  -49.0311  -34.8031    1.1398 H   0  0  0  0  0  0  0  0  0  0  0  0
  -47.2618  -35.0091    1.0927 H   0  0  0  0  0  0  0  0  0  0  0  0
  -48.3235  -32.5476   -1.7460 H   0  0  0  0  0  0  0  0  0  0  0  0
  -49.7791  -33.0690   -0.8605 H   0  0  0  0  0  0  0  0  0  0  0  0
  -44.4633  -29.5530   -0.3671 H   0  0  0  0  0  0  0  0  0  0  0  0
  -46.9148  -32.6787    0.2984 H   0  0  0  0  0  0  0  0  0  0  0  0
  -42.8374  -27.8134   -0.3106 H   0  0  0  0  0  0  0  0  0  0  0  0
  -46.7994  -31.1256    1.5815 H   0  0  0  0  0  0  0  0  0  0  0  0
  -46.3963  -29.0108    0.7923 H   0  0  0  0  0  0  0  0  0  0  0  0
  -39.8553  -29.7816    3.9648 H   0  0  0  0  0  0  0  0  0  0  0  0
  -44.2643  -24.8231   -0.2159 H   0  0  0  0  0  0  0  0  0  0  0  0
  1  2  1  0  0  0  0
  1  4  2  0  0  0  0
  2  6  2  0  0  0  0
  3  5  2  0  0  0  0
  3  7  1  0  0  0  0
  4  8  1  0  0  0  0
  5  9  1  0  0  0  0
  6 11  1  0  0  0  0
  7 12  2  0  0  0  0
  8 11  2  0  0  0  0
  8 13  1  0  0  0  0
  9 10  2  0  0  0  0
  9 20  1  0  0  0  0
 10 12  1  0  0  0  0
 10 16  1  0  0  0  0
 11 23  1  0  0  0  0
 12 28  1  0  0  0  0
 13 24  1  0  0  0  0
 13 25  2  0  0  0  0
 14 21  1  0  0  0  0
 14 23  1  0  0  0  0
 14 26  2  0  0  0  0
 15 22  1  0  0  0  0
 15 27  2  0  0  0  0
 15 29  1  0  0  0  0
 16 22  1  0  0  0  0
 17 18  1  0  0  0  0
 17 19  1  0  0  0  0
 18 21  1  0  0  0  0
 19 21  1  0  0  0  0
 20 22  1  0  0  0  0
 20 24  1  0  0  0  0
  1 30  1  0  0  0  0
  2 31  1  0  0  0  0
  3 32  1  0  0  0  0
  4 33  1  0  0  0  0
  5 34  1  0  0  0  0
  6 35  1  0  0  0  0
  7 36  1  0  0  0  0
 16 37  1  0  0  0  0
 16 38  1  0  0  0  0
 17 39  1  0  0  0  0
 17 40  1  0  0  0  0
 18 41  1  0  0  0  0
 18 42  1  0  0  0  0
 19 43  1  0  0  0  0
 19 44  1  0  0  0  0
 20 45  1  0  0  0  0
 21 46  1  0  0  0  0
 22 47  1  0  0  0  0
 23 48  1  0  0  0  0
 24 49  1  0  0  0  0
 28 50  1  0  0  0  0
 29 51  1  0  0  0  0
M  END
> <POSIT::Probability>
0.01

> <POSIT::Method>
FRED

> <ReceptorTitle>
UCSF-P4578-REFINED_LIGAND-BOUND-STATE_A__DU__LA1_A-201(A)

> <OMEGA_C>
XiZCwh4I4cH9JJpAHCdGwqws6MFG341A6PcowhpKAML6twZASBA9wujH4cFtDIhAFPcswj6h+8FO
s6w/ARJFwh0Q8MFIA19ATEAlwldx+sEe0DRALvs7wlar6cGVXVNAHiItwuCL8MHkNKk/9GUpwr5w
6sECSAJA3fs/wtzP8MEJ0jpA5HQlwipI78EbADNAaIY2wq876sEzEC5Ai4tCwtg8AMLwL70/vG8x
wrME1cFIPgM/KHUqwq263sEyce8/o8BAwgB3CsLgzWe/9HBAwtcACsK05SA/JcFCwsCjBMLMBGu/
OR0xwmJ86cFovB0/BOA/wrPeA8LoZuI+RPktwj/I3sG8Ohs/GP4+wn/E+MGSAfw/By42wqjz6MGI
qas/NLEywufp68FDW11A6EFHwjrcAMJwSeQ/Fvk1wnRI1MF4W3U/kdohwktq6cGV9l9ACtouwnUN
zcHwlxC+oP5CwkTl2sHQzLFAnRxKwvqW58FK/ZtA47Uowr+fBML3SghAD/o5wpEr3MEw4JFAYdMv
wms1AMLoHUw/3DlIwuKT9cH3bExAKysiwgN8/sHd0VlALoAswitX28FoNC9AtrEmwoGG2sHuSNg/
O9o8wpEBC8LslrG/pIpDwupzDcLibqW/0x9EwmQ2C8J05JE/IQw9wkYJDMJE3os/REtBwsUwAsJJ
fN+/wh1HwrJGBML4S1y/Z9oxwnRs7MGw+Lu+yag7wgO3AsLYxpg+hVkrws+B3sEQAp++mTI7wkIB
+cGobco/yZU5whYW6MHU1ko/02sfwsBA7sEmv31ApQ4xwqaVxsGgGl2+

> <OMEGA_E>
WoXWwA==

> <OMEGA_NBR>
      9496

$$$$
CACHE3-HO_1700_7
  -OEChem-03092622533D

 45 48  0     1  0  0  0  0  0999 V2000
  -49.5320  -31.0497    0.8128 C   0  0  0  0  0  0  0  0  0  0  0  0
  -48.9632  -31.9959    1.6653 C   0  0  0  0  0  0  0  0  0  0  0  0
  -49.5579  -29.7050    1.1823 C   0  0  0  0  0  0  0  0  0  0  0  0
  -52.9501  -27.5513   10.1406 C   0  0  0  0  0  0  0  0  0  0  0  0
  -48.4202  -31.5976    2.8870 C   0  0  0  0  0  0  0  0  0  0  0  0
  -49.0148  -29.3067    2.4040 C   0  0  0  0  0  0  0  0  0  0  0  0
  -52.6283  -28.1045    8.8998 C   0  0  0  0  0  0  0  0  0  0  0  0
  -52.8972  -28.3305   11.3067 C   0  0  0  0  0  0  0  0  0  0  0  0
  -46.5615  -29.4360    4.8069 C   0  0  0  0  0  0  0  0  0  0  0  0
  -46.5108  -29.1391    6.1513 C   0  0  0  0  0  0  0  0  0  0  0  0
  -48.4460  -30.2528    3.2565 C   0  0  0  0  0  0  0  0  0  0  0  0
  -47.8866  -29.8425    4.5132 C   0  0  0  0  0  0  0  0  0  0  0  0
  -52.2632  -29.4417    8.8488 C   0  0  0  0  0  0  0  0  0  0  0  0
  -52.2174  -30.2194   10.0123 C   0  0  0  0  0  0  0  0  0  0  0  0
  -52.5243  -29.6753   11.2481 C   0  0  0  0  0  0  0  0  0  0  0  0
  -48.6051  -29.7821    5.6868 C   0  0  0  0  0  0  0  0  0  0  0  0
  -50.0344  -30.1030    5.9306 C   0  0  0  0  0  0  0  0  0  0  0  0
  -53.3246  -32.2622    7.8739 C   0  0  0  0  0  0  0  0  0  0  0  0
  -51.7723  -31.6185    9.7120 C   0  0  0  0  0  0  0  0  0  0  0  0
  -51.8528  -30.2408    7.6408 C   0  0  2  0  0  0  0  0  0  0  0  0
  -51.9687  -31.6863    8.1841 C   0  0  2  0  0  0  0  0  0  0  0  0
  -47.7589  -29.3533    6.6756 N   0  0  0  0  0  0  0  0  0  0  0  0
  -50.4809  -29.9438    7.2361 N   0  0  0  0  0  0  0  0  0  0  0  0
  -50.7277  -30.5007    4.9981 O   0  0  0  0  0  0  0  0  0  0  0  0
  -54.3493  -31.6105    7.7372 O   0  0  0  0  0  0  0  0  0  0  0  0
  -52.4668  -30.4209   12.3813 O   0  0  0  0  0  0  0  0  0  0  0  0
  -53.2586  -33.6117    7.7691 O   0  0  0  0  0  0  0  0  0  0  0  0
  -49.9551  -31.3598   -0.1383 H   0  0  0  0  0  0  0  0  0  0  0  0
  -48.9444  -33.0433    1.3790 H   0  0  0  0  0  0  0  0  0  0  0  0
  -50.0006  -28.9680    0.5186 H   0  0  0  0  0  0  0  0  0  0  0  0
  -53.2398  -26.5060   10.2062 H   0  0  0  0  0  0  0  0  0  0  0  0
  -47.9808  -32.3477    3.5406 H   0  0  0  0  0  0  0  0  0  0  0  0
  -49.0424  -28.2543    2.6773 H   0  0  0  0  0  0  0  0  0  0  0  0
  -52.6618  -27.4978    8.0012 H   0  0  0  0  0  0  0  0  0  0  0  0
  -53.1472  -27.8753   12.2618 H   0  0  0  0  0  0  0  0  0  0  0  0
  -45.7297  -29.3654    4.1193 H   0  0  0  0  0  0  0  0  0  0  0  0
  -45.7006  -28.7969    6.7795 H   0  0  0  0  0  0  0  0  0  0  0  0
  -50.7153  -31.7315    9.9753 H   0  0  0  0  0  0  0  0  0  0  0  0
  -52.3731  -32.3606   10.2468 H   0  0  0  0  0  0  0  0  0  0  0  0
  -52.5065  -30.0606    6.7864 H   0  0  0  0  0  0  0  0  0  0  0  0
  -51.2440  -32.3672    7.7215 H   0  0  0  0  0  0  0  0  0  0  0  0
  -48.0135  -29.2160    7.6442 H   0  0  0  0  0  0  0  0  0  0  0  0
  -49.8273  -29.6695    7.9656 H   0  0  0  0  0  0  0  0  0  0  0  0
  -52.7157  -29.8630   13.1421 H   0  0  0  0  0  0  0  0  0  0  0  0
  -54.1341  -34.0078    7.5695 H   0  0  0  0  0  0  0  0  0  0  0  0
  1  2  1  0  0  0  0
  1  3  2  0  0  0  0
  2  5  2  0  0  0  0
  3  6  1  0  0  0  0
  4  7  2  0  0  0  0
  4  8  1  0  0  0  0
  5 11  1  0  0  0  0
  6 11  2  0  0  0  0
  7 13  1  0  0  0  0
  8 15  2  0  0  0  0
  9 10  2  0  0  0  0
  9 12  1  0  0  0  0
 10 22  1  0  0  0  0
 11 12  1  0  0  0  0
 12 16  2  0  0  0  0
 13 14  2  0  0  0  0
 13 20  1  0  0  0  0
 14 15  1  0  0  0  0
 14 19  1  0  0  0  0
 15 26  1  0  0  0  0
 16 17  1  0  0  0  0
 16 22  1  0  0  0  0
 17 23  1  0  0  0  0
 17 24  2  0  0  0  0
 18 21  1  0  0  0  0
 18 25  2  0  0  0  0
 18 27  1  0  0  0  0
 19 21  1  0  0  0  0
 20 21  1  0  0  0  0
 20 23  1  0  0  0  0
  1 28  1  0  0  0  0
  2 29  1  0  0  0  0
  3 30  1  0  0  0  0
  4 31  1  0  0  0  0
  5 32  1  0  0  0  0
  6 33  1  0  0  0  0
  7 34  1  0  0  0  0
  8 35  1  0  0  0  0
  9 36  1  0  0  0  0
 10 37  1  0  0  0  0
 19 38  1  0  0  0  0
 19 39  1  0  0  0  0
 20 40  1  0  0  0  0
 21 41  1  0  0  0  0
 22 42  1  0  0  0  0
 23 43  1  0  0  0  0
 26 44  1  0  0  0  0
 27 45  1  0  0  0  0
M  END
> <POSIT::Probability>
0.24

> <POSIT::Method>
FRED

> <ReceptorTitle>
UCSF-P4578-REFINED_LIGAND-BOUND-STATE_A__DU__LA1_A-201(A)

> <OMEGA_C>
wyBGwr9l+MGOEVA/UdpDwpX3/8G/KdU/QDtGwtGj7cFXVpc/48xTwgJp3MHIPyJBP65BwszH/MF8
xDhALw9Ewgl06sHP2hlAV4NSwgXW4MG7ZQ5Br5ZTwuik4sEc6DRB9j46wu5868Fj0plAAws6wusc
6cE+18RAwchBwr8F8sEqa1BA5os/wne97sHwa5BAfg1Rwo6I68GClA1Bnt5Qwl/B8cFQMiBB7BhS
wutm7cFW+DNBqWtCwq5B7sGZ+rVAQSNIwt7S8MGux71AbExVwnMMAcLB9vtA0BZPwqLy/MEwZBtB
RmlPwhjt8cEtgfRA8t9PwoR9/cEb8gJBFQk/wpHT6sGentVAa+xJwveM78FejudAHulKwn8B9MGi
8J9AvGVZwkni/MHulvdAAt5Rwuhd88GyGUZByAhVwl9yBsJknPhA+tFHwsng+sGqoA2+GcdDwlEs
BMLDgrA/ogBIwnK+58EmxAQ/j/VUwkkM1MGhTCNBWuw/wghkAcLYmWJAcytEws4I4sH8WCtAr6VS
wov728HvBABBwZZUwoYA38EsMERBQ+s2wmHs6sEM0YNAY802wgRg5sHB8dhAcdxKwjPa/cH0mh9B
B35RwjdxAcL28iNBrQZSwhJ88MEdKtlA5vlMwvt3AcLDFvdA1A1AwlC66cGmnfRAJk9Hwg1b7cGT
5v5A7NxSwlfn7sEGRlJBU4lYwvUHCMJ2OfJA

> <OMEGA_E>
EfEwwQ==

> <OMEGA_NBR>
     10896

$$$$
CACHE3-HO_1700_8
  -OEChem-03092622533D

 45 48  0     1  0  0  0  0  0999 V2000
  -51.4410  -31.6015   10.6777 C   0  0  0  0  0  0  0  0  0  0  0  0
  -46.1537  -28.8084    5.6935 C   0  0  0  0  0  0  0  0  0  0  0  0
  -51.3353  -31.1683    9.3562 C   0  0  0  0  0  0  0  0  0  0  0  0
  -47.4397  -28.6617    6.2178 C   0  0  0  0  0  0  0  0  0  0  0  0
  -52.0323  -30.7808   11.6377 C   0  0  0  0  0  0  0  0  0  0  0  0
  -45.9604  -29.3535    4.4154 C   0  0  0  0  0  0  0  0  0  0  0  0
  -51.8162  -29.9105    8.9906 C   0  0  0  0  0  0  0  0  0  0  0  0
  -48.5194  -29.0809    5.4546 C   0  0  0  0  0  0  0  0  0  0  0  0
  -52.4235  -29.0851    9.9434 C   0  0  0  0  0  0  0  0  0  0  0  0
  -48.3225  -29.6189    4.1771 C   0  0  0  0  0  0  0  0  0  0  0  0
  -52.5312  -29.5295   11.2674 C   0  0  0  0  0  0  0  0  0  0  0  0
  -47.0505  -29.7573    3.6437 C   0  0  0  0  0  0  0  0  0  0  0  0
  -53.7737  -27.5203   11.9542 C   0  0  0  0  0  0  0  0  0  0  0  0
  -51.6371  -29.4846    7.5792 C   0  0  0  0  0  0  0  0  0  0  0  0
  -51.9585  -29.5237    4.3173 C   0  0  0  0  0  0  0  0  0  0  0  0
  -52.8623  -27.6915    9.5971 C   0  0  0  0  0  0  0  0  0  0  0  0
  -49.6254  -29.9460    3.5191 C   0  0  0  0  0  0  0  0  0  0  0  0
  -54.0187  -27.2516   10.4818 C   0  0  0  0  0  0  0  0  0  0  0  0
  -49.9848  -28.9886    5.7733 C   0  0  1  0  0  0  0  0  0  0  0  0
  -50.5843  -29.9552    4.7237 C   0  0  1  0  0  0  0  0  0  0  0  0
  -53.1184  -28.7030   12.2421 N   0  0  0  0  0  0  0  0  0  0  0  0
  -50.3263  -29.4127    7.1258 N   0  0  0  0  0  0  0  0  0  0  0  0
  -54.2185  -26.7727   12.8234 O   0  0  0  0  0  0  0  0  0  0  0  0
  -52.6260  -29.2058    6.9065 O   0  0  0  0  0  0  0  0  0  0  0  0
  -52.3621  -28.3702    4.3223 O   0  0  0  0  0  0  0  0  0  0  0  0
  -46.8596  -30.2733    2.4021 O   0  0  0  0  0  0  0  0  0  0  0  0
  -52.7042  -30.5917    3.9432 O   0  0  0  0  0  0  0  0  0  0  0  0
  -51.0578  -32.5777   10.9607 H   0  0  0  0  0  0  0  0  0  0  0  0
  -45.2935  -28.5020    6.2827 H   0  0  0  0  0  0  0  0  0  0  0  0
  -50.8643  -31.8170    8.6216 H   0  0  0  0  0  0  0  0  0  0  0  0
  -47.5852  -28.2307    7.2036 H   0  0  0  0  0  0  0  0  0  0  0  0
  -52.1044  -31.1278   12.6651 H   0  0  0  0  0  0  0  0  0  0  0  0
  -44.9493  -29.4619    4.0309 H   0  0  0  0  0  0  0  0  0  0  0  0
  -52.0084  -27.0173    9.7352 H   0  0  0  0  0  0  0  0  0  0  0  0
  -53.1831  -27.6175    8.5524 H   0  0  0  0  0  0  0  0  0  0  0  0
  -49.9012  -29.2005    2.7671 H   0  0  0  0  0  0  0  0  0  0  0  0
  -49.5659  -30.9380    3.0593 H   0  0  0  0  0  0  0  0  0  0  0  0
  -54.9352  -27.7875   10.2045 H   0  0  0  0  0  0  0  0  0  0  0  0
  -54.2021  -26.1806   10.3432 H   0  0  0  0  0  0  0  0  0  0  0  0
  -50.3674  -27.9601    5.6396 H   0  0  0  0  0  0  0  0  0  0  0  0
  -50.6972  -30.9772    5.1260 H   0  0  0  0  0  0  0  0  0  0  0  0
  -53.0575  -28.9920   13.2144 H   0  0  0  0  0  0  0  0  0  0  0  0
  -49.5576  -29.6001    7.7651 H   0  0  0  0  0  0  0  0  0  0  0  0
  -45.9034  -30.2900    2.2086 H   0  0  0  0  0  0  0  0  0  0  0  0
  -53.6114  -30.3303    3.6751 H   0  0  0  0  0  0  0  0  0  0  0  0
  1  3  2  0  0  0  0
  1  5  1  0  0  0  0
  2  4  1  0  0  0  0
  2  6  2  0  0  0  0
  3  7  1  0  0  0  0
  4  8  2  0  0  0  0
  5 11  2  0  0  0  0
  6 12  1  0  0  0  0
  7  9  2  0  0  0  0
  7 14  1  0  0  0  0
  8 10  1  0  0  0  0
  8 19  1  0  0  0  0
  9 11  1  0  0  0  0
  9 16  1  0  0  0  0
 10 12  2  0  0  0  0
 10 17  1  0  0  0  0
 11 21  1  0  0  0  0
 12 26  1  0  0  0  0
 13 18  1  0  0  0  0
 13 21  1  0  0  0  0
 13 23  2  0  0  0  0
 14 22  1  0  0  0  0
 14 24  2  0  0  0  0
 15 20  1  0  0  0  0
 15 25  2  0  0  0  0
 15 27  1  0  0  0  0
 16 18  1  0  0  0  0
 17 20  1  0  0  0  0
 19 20  1  0  0  0  0
 19 22  1  0  0  0  0
  1 28  1  0  0  0  0
  2 29  1  0  0  0  0
  3 30  1  0  0  0  0
  4 31  1  0  0  0  0
  5 32  1  0  0  0  0
  6 33  1  0  0  0  0
 16 34  1  0  0  0  0
 16 35  1  0  0  0  0
 17 36  1  0  0  0  0
 17 37  1  0  0  0  0
 18 38  1  0  0  0  0
 18 39  1  0  0  0  0
 19 40  1  0  0  0  0
 20 41  1  0  0  0  0
 21 42  1  0  0  0  0
 22 43  1  0  0  0  0
 26 44  1  0  0  0  0
 27 45  1  0  0  0  0
M  END
> <POSIT::Probability>
0.24

> <POSIT::Method>
FRED

> <ReceptorTitle>
UCSF-P4578-REFINED_LIGAND-BOUND-STATE_A__DU__LA1_A-201(A)

> <OMEGA_C>
lMNNwvTP/MGq1ypBY504wo135sFsMbZAWVdNwsdY+cHashVBQ8I9widL5cGW+MZADCFQwgU/9sEX
NDpBftc3wvvT6sHqSo1AwENPwrFI78Fr2Q9B2hNCwsSl6MFqjK5AtrFRwliu6ME3GB9BSUpBwnDz
7MGOqoVA8R9SwmM87MFCRzRBwDM8wgMP7sHsMWlAPRhXwowp3MF+RD9BYYxOwpDg68EsifJAiNVP
woMw7MFGJ4pA+3JTwiOI3cGPjRlBXIBGwmiR78FDOGFAMBNYwk0D2sGZtSdBd/BHwsDo58GcvrhA
U1ZKwlmk78GWKJdAQ3lUws6f5cHS30NBIE5Jwi5N68HgBuRAy99Ywowu1sF0LE1BDIFSwmil6cEa
At1AzXJRwjP24sEWUIpAQ3A7wrEv8sFbvBlAINFSwsC79MEIXnxALTtMwpZPAsL4Xi9BjSw1wicE
5MH8C8lABHVLwjaJ/sE68glBNFc+wnnY4cFAhOZA82pQwqwF+cEapEpBEMwzwvOx68Fi/YBAmAhQ
wogj2MFzwxtBg7tUwrzw3MGG1ghB4JpHwqua6cFdFzFAhkNGwhmB98HBy0NAq71bwr1M3sGwRSNB
+85Ywslx0cGyfSVBNnhJwluu38FCd7RA6slKwlTR98EeCKRA7DpUwqnv58EpblNB+zpGwvDM7MGU
e/hAE503wvZR8sElWQ1AHXJWwmCk8sFfNWtA

> <OMEGA_E>
XJD6wA==

> <OMEGA_NBR>
     12296

$$$$
CACHE3-HO_1700_9
  -OEChem-03092622533D

 44 47  0     1  0  0  0  0  0999 V2000
  -42.3319  -32.0808    2.1739 C   0  0  0  0  0  0  0  0  0  0  0  0
  -43.2754  -31.4876    1.3311 C   0  0  0  0  0  0  0  0  0  0  0  0
  -41.5131  -31.2918    2.9972 C   0  0  0  0  0  0  0  0  0  0  0  0
  -47.5610  -28.9936    4.2149 C   0  0  0  0  0  0  0  0  0  0  0  0
  -48.1260  -30.3163    0.8004 C   0  0  0  0  0  0  0  0  0  0  0  0
  -48.8767  -28.9922    4.6229 C   0  0  0  0  0  0  0  0  0  0  0  0
  -50.4461  -30.6605    0.5796 C   0  0  0  0  0  0  0  0  0  0  0  0
  -48.3516  -29.8603    2.1067 C   0  0  0  0  0  0  0  0  0  0  0  0
  -47.2986  -29.4375    2.9309 C   0  0  0  0  0  0  0  0  0  0  0  0
  -43.3731  -30.1048    1.3226 C   0  0  0  0  0  0  0  0  0  0  0  0
  -42.5491  -29.3193    2.1398 C   0  0  0  0  0  0  0  0  0  0  0  0
  -49.1911  -30.7263    0.0161 C   0  0  0  0  0  0  0  0  0  0  0  0
  -41.6205  -29.8997    2.9869 C   0  0  0  0  0  0  0  0  0  0  0  0
  -49.6665  -29.8263    2.6030 C   0  0  0  0  0  0  0  0  0  0  0  0
  -45.8811  -29.4405    2.4881 C   0  0  0  0  0  0  0  0  0  0  0  0
  -44.5070  -26.6942    0.4654 C   0  0  0  0  0  0  0  0  0  0  0  0
  -42.8578  -27.8642    1.9730 C   0  0  0  0  0  0  0  0  0  0  0  0
  -44.3289  -29.2488    0.5343 C   0  0  2  0  0  0  0  0  0  0  0  0
  -43.6042  -27.8803    0.6262 C   0  0  1  0  0  0  0  0  0  0  0  0
  -48.9882  -31.2152   -1.3726 C   0  0  0  0  0  0  0  0  0  0  0  0
  -49.9113  -29.3953    3.8474 N   0  0  0  0  0  0  0  0  0  0  0  0
  -50.6913  -30.2242    1.8381 N   0  0  0  0  0  0  0  0  0  0  0  0
  -45.6634  -29.2485    1.1282 N   0  0  0  0  0  0  0  0  0  0  0  0
  -44.9940  -29.6269    3.3168 O   0  0  0  0  0  0  0  0  0  0  0  0
  -45.6831  -26.6575    0.7954 O   0  0  0  0  0  0  0  0  0  0  0  0
  -40.8269  -29.1452    3.7891 O   0  0  0  0  0  0  0  0  0  0  0  0
  -43.8412  -25.6598   -0.1031 O   0  0  0  0  0  0  0  0  0  0  0  0
  -42.2243  -33.1612    2.1871 H   0  0  0  0  0  0  0  0  0  0  0  0
  -43.9054  -32.1030    0.6998 H   0  0  0  0  0  0  0  0  0  0  0  0
  -40.7838  -31.7773    3.6421 H   0  0  0  0  0  0  0  0  0  0  0  0
  -46.7744  -28.6594    4.8823 H   0  0  0  0  0  0  0  0  0  0  0  0
  -47.1228  -30.3556    0.3822 H   0  0  0  0  0  0  0  0  0  0  0  0
  -49.1522  -28.6575    5.6176 H   0  0  0  0  0  0  0  0  0  0  0  0
  -51.3298  -30.9647    0.0269 H   0  0  0  0  0  0  0  0  0  0  0  0
  -43.4707  -27.4797    2.7906 H   0  0  0  0  0  0  0  0  0  0  0  0
  -41.9267  -27.2974    1.8970 H   0  0  0  0  0  0  0  0  0  0  0  0
  -44.3981  -29.6028   -0.4686 H   0  0  0  0  0  0  0  0  0  0  0  0
  -42.8614  -27.8003   -0.2188 H   0  0  0  0  0  0  0  0  0  0  0  0
  -48.8246  -32.3024   -1.3986 H   0  0  0  0  0  0  0  0  0  0  0  0
  -48.1044  -30.7540   -1.8377 H   0  0  0  0  0  0  0  0  0  0  0  0
  -49.8634  -30.9849   -1.9959 H   0  0  0  0  0  0  0  0  0  0  0  0
  -46.4591  -29.1635    0.4978 H   0  0  0  0  0  0  0  0  0  0  0  0
  -40.2435  -29.7342    4.3036 H   0  0  0  0  0  0  0  0  0  0  0  0
  -44.4160  -24.8729   -0.2199 H   0  0  0  0  0  0  0  0  0  0  0  0
  1  2  2  0  0  0  0
  1  3  1  0  0  0  0
  2 10  1  0  0  0  0
  3 13  2  0  0  0  0
  4  6  1  0  0  0  0
  4  9  2  0  0  0  0
  5  8  2  0  0  0  0
  5 12  1  0  0  0  0
  6 21  2  0  0  0  0
  7 12  2  0  0  0  0
  7 22  1  0  0  0  0
  8  9  1  0  0  0  0
  8 14  1  0  0  0  0
  9 15  1  0  0  0  0
 10 11  2  0  0  0  0
 10 18  1  0  0  0  0
 11 13  1  0  0  0  0
 11 17  1  0  0  0  0
 12 20  1  0  0  0  0
 13 26  1  0  0  0  0
 14 21  1  0  0  0  0
 14 22  2  0  0  0  0
 15 23  1  0  0  0  0
 15 24  2  0  0  0  0
 16 19  1  0  0  0  0
 16 25  2  0  0  0  0
 16 27  1  0  0  0  0
 17 19  1  0  0  0  0
 18 19  1  0  0  0  0
 18 23  1  0  0  0  0
  1 28  1  0  0  0  0
  2 29  1  0  0  0  0
  3 30  1  0  0  0  0
  4 31  1  0  0  0  0
  5 32  1  0  0  0  0
  6 33  1  0  0  0  0
  7 34  1  0  0  0  0
 17 35  1  0  0  0  0
 17 36  1  0  0  0  0
 18 37  1  0  0  0  0
 19 38  1  0  0  0  0
 20 39  1  0  0  0  0
 20 40  1  0  0  0  0
 20 41  1  0  0  0  0
 23 42  1  0  0  0  0
 26 43  1  0  0  0  0
 27 44  1  0  0  0  0
M  END
> <POSIT::Probability>
0.02

> <POSIT::Method>
FRED

> <ReceptorTitle>
UCSF-P4578-REFINED_LIGAND-BOUND-STATE_A__DU__LA1_A-201(A)

> <OMEGA_C>
4FMpwr5SAMLhIQtA+RktwrLm+8HkYqo/aQ0mwrBV+sEP0j9AeD4+wt/y58Gy4IZAA4FAwsGH8sGi
5Uw/vIFDwvDv58HM7pNAzMhJws5I9cGUYxQ/DmhBwsvh7sHv0wZAuzE9wud/68EQkztAGX4twpfW
8ME+S6k/RjIqwt+N6sEi8ghAsMNEwo7P9cFA0IM8WHsmwogy78GjKD9AeKpGwjCc7sEcmCZAOIY3
wjGG68G1PR9ANAcywqiN1cHYTO4+bW4rwuHp3sGqivw/wlAxwp796cFixwg/sGouwsMK38HWTiA/
5PNDwqa4+cGEsa+/KaVHwqMp68GDPHZA3MNKwiTL8cEBRus/Xqc2wtz86cGAaJA/2vkzwsoD7cHQ
RlRAhLs2wp5C1cECoUs/uE4jwkYp6cEKgHJAXF0vwi5HzcGgFNO9vOUowhalBMKk+AtAFZ8vwnhp
AMJ+JzM/mSIjwtw3/sGAGGlAARk7wnJG5cEEPJxAyH08wlbY8sFQq8M+3JtEwn9C5cGKw7NAslFN
wrm398EAotw8/eEtwm7W28GwmDJA67QnwhZh2sEs0vI/nJcxworS7MEw6u++BnIrwhFn3sGQFmC+
YExDwrI1AcKsBbO/8mpAwi0I9sFmOeu/GnRHwirh98EkeP+/G9Y5wuJO6cGQ5P4+XPkgwrrf7cE2
t4lAAKoxwqz7xsHAMGG+

> <OMEGA_E>
wh30wA==

> <OMEGA_NBR>
     13675

$$$$
CACHE3-HO_1705_20
  -OEChem-03092622533D

 37 39  0     1  0  0  0  0  0999 V2000
  -47.1356  -29.4567    1.3974 C   0  0  0  0  0  0  0  0  0  0  0  0
  -46.1386  -29.2088    2.3331 C   0  0  0  0  0  0  0  0  0  0  0  0
  -46.4608  -29.4194    3.6775 C   0  0  0  0  0  0  0  0  0  0  0  0
  -48.3723  -29.8907    1.8421 C   0  0  0  0  0  0  0  0  0  0  0  0
  -47.7367  -29.8597    4.0404 C   0  0  0  0  0  0  0  0  0  0  0  0
  -46.8399  -29.7288    6.0446 C   0  0  0  0  0  0  0  0  0  0  0  0
  -44.8114  -28.7455    1.9053 C   0  0  0  0  0  0  0  0  0  0  0  0
  -41.5634  -31.4113    2.1312 C   0  0  0  0  0  0  0  0  0  0  0  0
  -44.0304  -31.1579    1.6952 C   0  0  0  0  0  0  0  0  0  0  0  0
  -42.5162  -29.2792    1.1507 C   0  0  0  0  0  0  0  0  0  0  0  0
  -42.9716  -31.7962    2.5908 C   0  0  1  0  0  0  0  0  0  0  0  0
  -41.4027  -29.8961    1.9978 C   0  0  1  0  0  0  0  0  0  0  0  0
  -49.4402  -30.1563    0.8303 C   0  0  0  0  0  0  0  0  0  0  0  0
  -48.7161  -30.1033    3.1285 N   0  0  0  0  0  0  0  0  0  0  0  0
  -47.9415  -30.0331    5.3979 N   0  0  0  0  0  0  0  0  0  0  0  0
  -43.8379  -29.7059    1.6202 N   0  0  0  0  0  0  0  0  0  0  0  0
  -46.7055  -29.7921    7.3961 N   0  0  0  0  0  0  0  0  0  0  0  0
  -44.6564  -27.5271    1.8444 O   0  0  0  0  0  0  0  0  0  0  0  0
  -43.0922  -33.2138    2.5385 O   0  0  0  0  0  0  0  0  0  0  0  0
  -41.4259  -29.2877    3.2875 O   0  0  0  0  0  0  0  0  0  0  0  0
  -45.5077  -29.2240    5.0945 S   0  0  0  0  0  0  0  0  0  0  0  0
  -46.9469  -29.3136    0.3370 H   0  0  0  0  0  0  0  0  0  0  0  0
  -40.8345  -31.8131    2.8460 H   0  0  0  0  0  0  0  0  0  0  0  0
  -41.3486  -31.8931    1.1685 H   0  0  0  0  0  0  0  0  0  0  0  0
  -43.9646  -31.5555    0.6744 H   0  0  0  0  0  0  0  0  0  0  0  0
  -45.0283  -31.4221    2.0566 H   0  0  0  0  0  0  0  0  0  0  0  0
  -42.4483  -28.1866    1.1715 H   0  0  0  0  0  0  0  0  0  0  0  0
  -42.4254  -29.6034    0.1075 H   0  0  0  0  0  0  0  0  0  0  0  0
  -43.1217  -31.4866    3.6320 H   0  0  0  0  0  0  0  0  0  0  0  0
  -40.4305  -29.6680    1.5479 H   0  0  0  0  0  0  0  0  0  0  0  0
  -49.4094  -31.1973    0.4867 H   0  0  0  0  0  0  0  0  0  0  0  0
  -49.3115  -29.5223   -0.0554 H   0  0  0  0  0  0  0  0  0  0  0  0
  -50.4279  -29.9590    1.2618 H   0  0  0  0  0  0  0  0  0  0  0  0
  -47.4937  -30.0380    8.0042 H   0  0  0  0  0  0  0  0  0  0  0  0
  -45.8436  -29.4947    7.8657 H   0  0  0  0  0  0  0  0  0  0  0  0
  -42.4163  -33.5720    3.1351 H   0  0  0  0  0  0  0  0  0  0  0  0
  -40.6858  -29.6683    3.7846 H   0  0  0  0  0  0  0  0  0  0  0  0
  1  2  2  0  0  0  0
  1  4  1  0  0  0  0
  2  3  1  0  0  0  0
  2  7  1  0  0  0  0
  3  5  2  0  0  0  0
  3 21  1  0  0  0  0
  4 13  1  0  0  0  0
  4 14  2  0  0  0  0
  5 14  1  0  0  0  0
  5 15  1  0  0  0  0
  6 15  2  0  0  0  0
  6 17  1  0  0  0  0
  6 21  1  0  0  0  0
  7 16  1  0  0  0  0
  7 18  2  0  0  0  0
  8 11  1  0  0  0  0
  8 12  1  0  0  0  0
  9 11  1  0  0  0  0
  9 16  1  0  0  0  0
 10 12  1  0  0  0  0
 10 16  1  0  0  0  0
 11 19  1  0  0  0  0
 12 20  1  0  0  0  0
  1 22  1  0  0  0  0
  8 23  1  0  0  0  0
  8 24  1  0  0  0  0
  9 25  1  0  0  0  0
  9 26  1  0  0  0  0
 10 27  1  0  0  0  0
 10 28  1  0  0  0  0
 11 29  1  0  0  0  0
 12 30  1  0  0  0  0
 13 31  1  0  0  0  0
 13 32  1  0  0  0  0
 13 33  1  0  0  0  0
 17 34  1  0  0  0  0
 17 35  1  0  0  0  0
 19 36  1  0  0  0  0
 20 37  1  0  0  0  0
M  END
> <POSIT::Probability>
0.05

> <POSIT::Method>
FRED

> <ReceptorTitle>
UCSF-P4578-REFINED_LIGAND-BOUND-STATE_A__DU__LA1_A-201(A)

> <OMEGA_C>
0Yo8wkWn68EM3bI/6Y04wpmr6cFEUhVA5dc5wtZa68EqXGtARX1Bwigg78GOyes/afI+wpTg7sFJ
S4FAFlw7wpXU7cGvbcFA6T4zwtL25cFc4fM/90Amwl1K+8FGZghAGx8wwlND+cHy/Ng/jhAqwtw7
6sEyS5M/7+IrwqBe/sEVzyVAYJwlwkIr78FOt/8/wcJFwjJA8cEVjlQ/VN1CwoXT8MGMOEhAFsQ/
wthD8MGLu6xA+1kvwq+l7cFEY88/Y9I6widW7sFzrOxAKKAywpg33MHgE+w/al4swuraBMIkdyJA
IrQlwh9N6sGiZVJA3Qc2wsfK6cEMBqNAl8k7wkmC6sFKjaw+gVYjwiqB/sGXJDZAAGUlwhcl/8HU
kpU/tNsvwqZx/MEtpyw/8hw0wmNg+8H9ngNACcspwjB+4cH49JU/prMpwtvT7MFoJdw9qnwswnjk
+8HkcmhAzLghwgpY7cEKIcY/NKNFwhyU+cGaMPk+8D5FwrUt7MHw4mK9LrZJwhes78Ggg6E/jvk9
wt5N8MEpEQBB4183wj3168HLs/tAUKopwq9JBsKcpUhATL4iwpdY7cFhNnJA

> <OMEGA_E>
xAzdwA==

> <OMEGA_NBR>
     14913

$$$$
CACHE3-HO_1705_30
  -OEChem-03092622533D

 36 38  0     1  0  0  0  0  0999 V2000
  -51.9024  -30.4775    8.8998 C   0  0  0  0  0  0  0  0  0  0  0  0
  -52.0892  -29.2339    8.3083 C   0  0  0  0  0  0  0  0  0  0  0  0
  -52.7910  -28.2765    9.0474 C   0  0  0  0  0  0  0  0  0  0  0  0
  -52.4143  -30.6949   10.1673 C   0  0  0  0  0  0  0  0  0  0  0  0
  -53.2746  -28.5799   10.3232 C   0  0  0  0  0  0  0  0  0  0  0  0
  -53.9805  -26.5017   10.1780 C   0  0  0  0  0  0  0  0  0  0  0  0
  -51.5582  -28.9572    6.9494 C   0  0  0  0  0  0  0  0  0  0  0  0
  -50.6984  -30.5797    3.9988 C   0  0  0  0  0  0  0  0  0  0  0  0
  -49.5138  -30.0592    3.2336 C   0  0  0  0  0  0  0  0  0  0  0  0
  -49.4751  -30.1085    4.7358 C   0  0  0  0  0  0  0  0  0  0  0  0
  -52.2093  -32.0345   10.7982 C   0  0  0  0  0  0  0  0  0  0  0  0
  -48.1095  -28.2909    5.8176 C   0  0  0  0  0  0  0  0  0  0  0  0
  -49.5163  -28.8199    5.5467 C   0  0  2  0  0  0  0  0  0  0  0  0
  -53.0948  -29.7956   10.9063 N   0  0  0  0  0  0  0  0  0  0  0  0
  -53.9535  -27.5562   10.9601 N   0  0  0  0  0  0  0  0  0  0  0  0
  -54.5729  -25.3227   10.5056 N   0  0  0  0  0  0  0  0  0  0  0  0
  -50.1877  -29.0797    6.8046 N   0  0  0  0  0  0  0  0  0  0  0  0
  -52.3348  -28.6254    6.0577 O   0  0  0  0  0  0  0  0  0  0  0  0
  -47.3684  -29.2378    6.5788 O   0  0  0  0  0  0  0  0  0  0  0  0
  -53.2110  -26.6564    8.6560 S   0  0  0  0  0  0  0  0  0  0  0  0
  -51.3637  -31.2632    8.3774 H   0  0  0  0  0  0  0  0  0  0  0  0
  -51.5896  -29.9651    4.0264 H   0  0  0  0  0  0  0  0  0  0  0  0
  -50.8891  -31.6455    3.9689 H   0  0  0  0  0  0  0  0  0  0  0  0
  -48.9105  -30.7760    2.6901 H   0  0  0  0  0  0  0  0  0  0  0  0
  -49.6119  -29.0960    2.7483 H   0  0  0  0  0  0  0  0  0  0  0  0
  -48.8465  -30.8599    5.1982 H   0  0  0  0  0  0  0  0  0  0  0  0
  -51.2774  -32.0612   11.3758 H   0  0  0  0  0  0  0  0  0  0  0  0
  -52.1383  -32.8222   10.0382 H   0  0  0  0  0  0  0  0  0  0  0  0
  -53.0437  -32.2688   11.4686 H   0  0  0  0  0  0  0  0  0  0  0  0
  -48.1501  -27.3654    6.4005 H   0  0  0  0  0  0  0  0  0  0  0  0
  -47.5606  -28.0870    4.8917 H   0  0  0  0  0  0  0  0  0  0  0  0
  -50.0931  -28.0629    5.0041 H   0  0  0  0  0  0  0  0  0  0  0  0
  -55.0895  -25.2060   11.3838 H   0  0  0  0  0  0  0  0  0  0  0  0
  -54.6172  -24.5404    9.8440 H   0  0  0  0  0  0  0  0  0  0  0  0
  -49.6003  -29.2965    7.6005 H   0  0  0  0  0  0  0  0  0  0  0  0
  -46.4890  -28.8533    6.7209 H   0  0  0  0  0  0  0  0  0  0  0  0
  1  2  2  0  0  0  0
  1  4  1  0  0  0  0
  2  3  1  0  0  0  0
  2  7  1  0  0  0  0
  3  5  2  0  0  0  0
  3 20  1  0  0  0  0
  4 11  1  0  0  0  0
  4 14  2  0  0  0  0
  5 14  1  0  0  0  0
  5 15  1  0  0  0  0
  6 15  2  0  0  0  0
  6 16  1  0  0  0  0
  6 20  1  0  0  0  0
  7 17  1  0  0  0  0
  7 18  2  0  0  0  0
  8  9  1  0  0  0  0
  8 10  1  0  0  0  0
  9 10  1  0  0  0  0
 10 13  1  0  0  0  0
 12 13  1  0  0  0  0
 12 19  1  0  0  0  0
 13 17  1  0  0  0  0
  1 21  1  0  0  0  0
  8 22  1  0  0  0  0
  8 23  1  0  0  0  0
  9 24  1  0  0  0  0
  9 25  1  0  0  0  0
 10 26  1  0  0  0  0
 11 27  1  0  0  0  0
 11 28  1  0  0  0  0
 11 29  1  0  0  0  0
 12 30  1  0  0  0  0
 12 31  1  0  0  0  0
 13 32  1  0  0  0  0
 16 33  1  0  0  0  0
 16 34  1  0  0  0  0
 17 35  1  0  0  0  0
 19 36  1  0  0  0  0
M  END
> <POSIT::Probability>
0.24

> <POSIT::Method>
FRED

> <ReceptorTitle>
UCSF-P4578-REFINED_LIGAND-BOUND-STATE_A__DU__LA1_A-201(A)

> <OMEGA_C>
FpxPwtvR88GNZQ5BT1tQwhLf6cH77gRB7ylTwjg24sFTwhBBPKhRwjKP9cEUrSJBJhlVwqCj5MHZ
KyVBA+xXwowD1MEF2SJBkTtOwmCo58FoYd5AIctKwlGj9MH47H9AJg5GwjN58MHf8k5Ad+ZFwiTe
8MFTi5dARtZQwlcjAMJexSxBFnBAwslT4sGwKbpAsBBGwhKP5sFCfrFAGGFUwmpd7sFegC5BZNBX
wgVz3MG/XC9Br0pawvGUysEJFyhBNsBIwjWj6MFWv9lA3lZRwuYA5cHk2MFANXk9whvn6cHahdJA
GNhUwjVA1cHafgpBeXRNwvga+sG6CQZBxltOwny478Hi14BAaI5Lwvgp/cEwAn5AV6RDwiw19sFN
KyxAk3JGwoLE6MHw5C9AxmJDwhbh9sFeV6ZAFRxNwrQ+AMIhAzZBko1QwuxJA8KZnCBBzCxUwjYT
AcKFfzdBq5lAwlDs2sHQ0MxAFj4+wimy4MEeiZxASl9IwsWA4MGYIaBAm1tcwtGlycEhJDZBBXha
wtVSxMHygB1BvmZGwkRf6sEJN/NAyfQ5wn3T5sH3EddA

> <OMEGA_E>
0DMCwQ==

> <OMEGA_NBR>
     16126

$$$$
CACHE3-HO_1705_40
  -OEChem-03092622533D

 39 41  0     1  0  0  0  0  0999 V2000
  -46.4981  -30.8090    1.5215 C   0  0  0  0  0  0  0  0  0  0  0  0
  -46.2532  -30.0791    2.6784 C   0  0  0  0  0  0  0  0  0  0  0  0
  -47.2792  -30.0268    3.6271 C   0  0  0  0  0  0  0  0  0  0  0  0
  -47.7250  -31.4328    1.3756 C   0  0  0  0  0  0  0  0  0  0  0  0
  -48.4899  -30.6873    3.3997 C   0  0  0  0  0  0  0  0  0  0  0  0
  -48.9380  -29.8273    5.3740 C   0  0  0  0  0  0  0  0  0  0  0  0
  -44.9514  -29.3925    2.8762 C   0  0  0  0  0  0  0  0  0  0  0  0
  -41.2822  -31.6008    1.1129 C   0  0  0  0  0  0  0  0  0  0  0  0
  -42.2059  -30.4612    0.6811 C   0  0  0  0  0  0  0  0  0  0  0  0
  -40.8032  -31.2568    2.5225 C   0  0  0  0  0  0  0  0  0  0  0  0
  -41.9046  -29.3239    1.6536 C   0  0  2  0  0  0  0  0  0  0  0  0
  -41.6533  -30.0704    2.9610 C   0  0  2  0  0  0  0  0  0  0  0  0
  -47.9817  -32.2171    0.1292 C   0  0  0  0  0  0  0  0  0  0  0  0
  -43.0281  -28.3035    1.7489 C   0  0  0  0  0  0  0  0  0  0  0  0
  -48.7346  -31.4026    2.2689 N   0  0  0  0  0  0  0  0  0  0  0  0
  -49.4312  -30.5658    4.4066 N   0  0  0  0  0  0  0  0  0  0  0  0
  -49.6095  -29.5141    6.5139 N   0  0  0  0  0  0  0  0  0  0  0  0
  -44.3221  -28.9711    1.7228 N   0  0  0  0  0  0  0  0  0  0  0  0
  -44.5104  -29.2587    4.0146 O   0  0  0  0  0  0  0  0  0  0  0  0
  -40.9677  -29.2557    3.8922 O   0  0  0  0  0  0  0  0  0  0  0  0
  -47.3455  -29.2379    5.1528 S   0  0  0  0  0  0  0  0  0  0  0  0
  -45.7401  -30.8892    0.7473 H   0  0  0  0  0  0  0  0  0  0  0  0
  -41.8148  -32.5576    1.0935 H   0  0  0  0  0  0  0  0  0  0  0  0
  -40.4264  -31.6888    0.4345 H   0  0  0  0  0  0  0  0  0  0  0  0
  -42.0353  -30.1700   -0.3601 H   0  0  0  0  0  0  0  0  0  0  0  0
  -43.2505  -30.7846    0.7683 H   0  0  0  0  0  0  0  0  0  0  0  0
  -40.9094  -32.1032    3.2090 H   0  0  0  0  0  0  0  0  0  0  0  0
  -39.7382  -30.9938    2.5097 H   0  0  0  0  0  0  0  0  0  0  0  0
  -40.9892  -28.7993    1.3459 H   0  0  0  0  0  0  0  0  0  0  0  0
  -42.5922  -30.4163    3.4120 H   0  0  0  0  0  0  0  0  0  0  0  0
  -47.6767  -33.2635    0.2504 H   0  0  0  0  0  0  0  0  0  0  0  0
  -47.4117  -31.8127   -0.7162 H   0  0  0  0  0  0  0  0  0  0  0  0
  -49.0479  -32.1898   -0.1222 H   0  0  0  0  0  0  0  0  0  0  0  0
  -42.9305  -27.7360    2.6792 H   0  0  0  0  0  0  0  0  0  0  0  0
  -42.9591  -27.5984    0.9150 H   0  0  0  0  0  0  0  0  0  0  0  0
  -50.5825  -29.8024    6.6616 H   0  0  0  0  0  0  0  0  0  0  0  0
  -49.2071  -28.8903    7.2215 H   0  0  0  0  0  0  0  0  0  0  0  0
  -44.7092  -29.1682    0.8115 H   0  0  0  0  0  0  0  0  0  0  0  0
  -40.7612  -29.8127    4.6624 H   0  0  0  0  0  0  0  0  0  0  0  0
  1  2  2  0  0  0  0
  1  4  1  0  0  0  0
  2  3  1  0  0  0  0
  2  7  1  0  0  0  0
  3  5  2  0  0  0  0
  3 21  1  0  0  0  0
  4 13  1  0  0  0  0
  4 15  2  0  0  0  0
  5 15  1  0  0  0  0
  5 16  1  0  0  0  0
  6 16  2  0  0  0  0
  6 17  1  0  0  0  0
  6 21  1  0  0  0  0
  7 18  1  0  0  0  0
  7 19  2  0  0  0  0
  8  9  1  0  0  0  0
  8 10  1  0  0  0  0
  9 11  1  0  0  0  0
 10 12  1  0  0  0  0
 11 12  1  0  0  0  0
 11 14  1  0  0  0  0
 12 20  1  0  0  0  0
 14 18  1  0  0  0  0
  1 22  1  0  0  0  0
  8 23  1  0  0  0  0
  8 24  1  0  0  0  0
  9 25  1  0  0  0  0
  9 26  1  0  0  0  0
 10 27  1  0  0  0  0
 10 28  1  0  0  0  0
 11 29  1  0  0  0  0
 12 30  1  0  0  0  0
 13 31  1  0  0  0  0
 13 32  1  0  0  0  0
 13 33  1  0  0  0  0
 14 34  1  0  0  0  0
 14 35  1  0  0  0  0
 17 36  1  0  0  0  0
 17 37  1  0  0  0  0
 18 38  1  0  0  0  0
 20 39  1  0  0  0  0
M  END
> <POSIT::Probability>
0.02

> <POSIT::Method>
FRED

> <ReceptorTitle>
UCSF-P4578-REFINED_LIGAND-BOUND-STATE_A__DU__LA1_A-201(A)

> <OMEGA_C>
BP45wtx49sH+wMI/TgM5whOi8ME+aytA8R09wvE28MHGImhAYeY+wmx2+8GYFLA/nfVBwop/9cGK
lFlAg8BDwl6e7sG196tAQc4zwt8j68HFEzhA+iAlwmvO/MG8co4/y9IowpGw88EgXy4/czYjwt4N
+sHobyFAS54nwkCX6sHop9M/Ap0mwjuQ8MGOgT1AQO0/wkjeAMJARAQ+0Rwswqpt4sFU2t8/PPBC
wnc4+8ESNRFAgLlFwryG9MEAA41AFXBGwvAc7MESctBA3EkxwtjE58F6g9w/qwoywtYR6sGld4BA
4d4jwr4L6sF0GnlAxmE9wijn6cGy46RA1fU2whMd98GUTT8/VEInwvQ6AsLU94s/obQhwpCC/cHQ
eN4+ISQowjJc8cEQYri+igAtwtFG9sGkrEQ/NaMjwqdpAML0YE1A8PMewjnz98FZnyBA+vQjwuZk
5sGaR6w/Xl4qwqtU88GHXVpA97Q+wsoNBcKQMIA+jqU9wniA/sHIVje/DDFEwmjCAMIATfq93Lgr
wkfj3cFTdytAGNYrwoXJ3MEIP2o/dVRKwkhr7sHkK9VADtREwlAf58FBFudAO9Yywo9Y6cHQu08/
hAsjwnaA7sEfMpVA

> <OMEGA_E>
ZiT4wA==

> <OMEGA_NBR>
     17402

$$$$
CACHE3-HO_1714_12
  -OEChem-03092622533D

 49 53  0     1  0  0  0  0  0999 V2000
  -44.7933  -29.6442    3.1762 C   0  0  0  0  0  0  0  0  0  0  0  0
  -55.9842  -26.5194   13.0654 C   0  0  0  0  0  0  0  0  0  0  0  0
  -46.1659  -29.5309    3.4212 C   0  0  0  0  0  0  0  0  0  0  0  0
  -55.6201  -27.5969   12.2675 C   0  0  0  0  0  0  0  0  0  0  0  0
  -53.1858  -26.0354   10.0587 C   0  0  0  0  0  0  0  0  0  0  0  0
  -52.8226  -27.1133    9.2608 C   0  0  0  0  0  0  0  0  0  0  0  0
  -55.3793  -25.3079   12.8102 C   0  0  0  0  0  0  0  0  0  0  0  0
  -43.8581  -29.6875    4.2381 C   0  0  0  0  0  0  0  0  0  0  0  0
  -46.4001  -29.4747    4.7867 C   0  0  0  0  0  0  0  0  0  0  0  0
  -54.1243  -26.1769   11.0744 C   0  0  0  0  0  0  0  0  0  0  0  0
  -54.6817  -27.4553   11.2518 C   0  0  0  0  0  0  0  0  0  0  0  0
  -53.4268  -28.3243    9.5160 C   0  0  0  0  0  0  0  0  0  0  0  0
  -47.6228  -29.3629    5.3883 C   0  0  0  0  0  0  0  0  0  0  0  0
  -45.4424  -29.5196    5.8451 C   0  0  0  0  0  0  0  0  0  0  0  0
  -53.0911  -29.5215    8.7040 C   0  0  0  0  0  0  0  0  0  0  0  0
  -48.9738  -29.2733    4.8192 C   0  0  0  0  0  0  0  0  0  0  0  0
  -52.1178  -30.7635    6.0517 C   0  0  0  0  0  0  0  0  0  0  0  0
  -49.8995  -30.4282    6.8874 C   0  0  0  0  0  0  0  0  0  0  0  0
  -51.3309  -30.6563    7.3600 C   0  0  1  0  0  0  0  0  0  0  0  0
  -51.3937  -29.8228    5.0833 C   0  0  1  0  0  0  0  0  0  0  0  0
  -52.0189  -28.4304    5.0470 C   0  0  0  0  0  0  0  0  0  0  0  0
  -54.4634  -25.1187   11.8372 N   0  0  0  0  0  0  0  0  0  0  0  0
  -44.1091  -29.6301    5.5849 N   0  0  0  0  0  0  0  0  0  0  0  0
  -54.3431  -28.5126   10.4888 N   0  0  0  0  0  0  0  0  0  0  0  0
  -46.0415  -29.4401    7.0386 N   0  0  0  0  0  0  0  0  0  0  0  0
  -47.3519  -29.3462    6.7293 N   0  0  0  0  0  0  0  0  0  0  0  0
  -50.0162  -29.7908    5.5759 N   0  0  0  0  0  0  0  0  0  0  0  0
  -51.7998  -29.5720    8.1860 N   0  0  0  0  0  0  0  0  0  0  0  0
  -53.9500  -30.3788    8.5154 O   0  0  0  0  0  0  0  0  0  0  0  0
  -49.0827  -28.7393    3.7174 O   0  0  0  0  0  0  0  0  0  0  0  0
  -44.4349  -29.7009    2.1513 H   0  0  0  0  0  0  0  0  0  0  0  0
  -56.7160  -26.6294   13.8568 H   0  0  0  0  0  0  0  0  0  0  0  0
  -46.9104  -29.4964    2.6391 H   0  0  0  0  0  0  0  0  0  0  0  0
  -56.0842  -28.5645   12.4474 H   0  0  0  0  0  0  0  0  0  0  0  0
  -52.7213  -25.0683    9.8776 H   0  0  0  0  0  0  0  0  0  0  0  0
  -52.0895  -26.9924    8.4709 H   0  0  0  0  0  0  0  0  0  0  0  0
  -55.6193  -24.4287   13.3979 H   0  0  0  0  0  0  0  0  0  0  0  0
  -42.8001  -29.7777    3.9978 H   0  0  0  0  0  0  0  0  0  0  0  0
  -52.1433  -31.7980    5.6768 H   0  0  0  0  0  0  0  0  0  0  0  0
  -53.1617  -30.4422    6.2067 H   0  0  0  0  0  0  0  0  0  0  0  0
  -49.3517  -29.7268    7.5393 H   0  0  0  0  0  0  0  0  0  0  0  0
  -49.3268  -31.3676    6.8329 H   0  0  0  0  0  0  0  0  0  0  0  0
  -51.4078  -31.5700    7.9344 H   0  0  0  0  0  0  0  0  0  0  0  0
  -51.3636  -30.2429    4.0737 H   0  0  0  0  0  0  0  0  0  0  0  0
  -52.0496  -28.0107    6.0518 H   0  0  0  0  0  0  0  0  0  0  0  0
  -53.0338  -28.4891    4.6557 H   0  0  0  0  0  0  0  0  0  0  0  0
  -51.4291  -27.7745    4.4064 H   0  0  0  0  0  0  0  0  0  0  0  0
  -48.0140  -29.2714    7.4914 H   0  0  0  0  0  0  0  0  0  0  0  0
  -51.1681  -28.7858    8.3392 H   0  0  0  0  0  0  0  0  0  0  0  0
  1  3  2  0  0  0  0
  1  8  1  0  0  0  0
  2  4  1  0  0  0  0
  2  7  2  0  0  0  0
  3  9  1  0  0  0  0
  4 11  2  0  0  0  0
  5  6  2  0  0  0  0
  5 10  1  0  0  0  0
  6 12  1  0  0  0  0
  7 22  1  0  0  0  0
  8 23  2  0  0  0  0
  9 13  2  0  0  0  0
  9 14  1  0  0  0  0
 10 11  1  0  0  0  0
 10 22  2  0  0  0  0
 11 24  1  0  0  0  0
 12 15  1  0  0  0  0
 12 24  2  0  0  0  0
 13 16  1  0  0  0  0
 13 26  1  0  0  0  0
 14 23  1  0  0  0  0
 14 25  2  0  0  0  0
 15 28  1  0  0  0  0
 15 29  2  0  0  0  0
 16 27  1  0  0  0  0
 16 30  2  0  0  0  0
 17 19  1  0  0  0  0
 17 20  1  0  0  0  0
 18 19  1  0  0  0  0
 18 27  1  0  0  0  0
 19 28  1  0  0  0  0
 20 21  1  0  0  0  0
 20 27  1  0  0  0  0
 25 26  1  0  0  0  0
  1 31  1  0  0  0  0
  2 32  1  0  0  0  0
  3 33  1  0  0  0  0
  4 34  1  0  0  0  0
  5 35  1  0  0  0  0
  6 36  1  0  0  0  0
  7 37  1  0  0  0  0
  8 38  1  0  0  0  0
 17 39  1  0  0  0  0
 17 40  1  0  0  0  0
 18 41  1  0  0  0  0
 18 42  1  0  0  0  0
 19 43  1  0  0  0  0
 20 44  1  0  0  0  0
 21 45  1  0  0  0  0
 21 46  1  0  0  0  0
 21 47  1  0  0  0  0
 26 48  1  0  0  0  0
 28 49  1  0  0  0  0
M  END
> <POSIT::Probability>
0.23

> <POSIT::Method>
HYBRID

> <ReceptorTitle>
UCSF-P4578-REFINED_LIGAND-BOUND-STATE_A__DU__LA1_A-201(A)

> <OMEGA_C>
USwzwmcn7cE+RktA0O9fwtUn1MHhC1FB5Kk4wjk/7MEU9VpABntewoLG3MGmR0RBPr5UwnNI0MGG
8CBBX0pTwvHn2ME/LBRBY4Rdwp92ysGZ9kxBt24vwgqA7cE5nodAsJk5wi7M68G0LJlASX9Ywk5q
0cHhMDFBDbpawm6k28FlBzRB/rRVwjGY4sF+QRhBzH0+wknn6sETbaxAAcU1wiwo7MHDCrtAP11U
wgYs7MGLQwtBKuVDwqcv6sEZN5pAlXhQwrgb9sHQp8FAEJlHwvls88GuZdxA4lJNwgFA9cHQhOtA
HZNNwjKV7sG8qqJAVBNQwnhx48FLgaFAjtpZwjPzyMFRZT1BuG8wwoYK7cE8t7JASV9ZwtwZ5MES
0idBhCo4wlOF68FXPOFAXmg9wvrE6sGxVtdAjBBIwqVT7sF1bbJA8jJPwl6T7MG1+QJB0MxXws4H
88E0PwhBrFREwhLq5cHw6W1AXL0xwmmb7cHgrglAKN1iwhgJ1cGWtV1BO6Q7wrj468Ek5yhAMFZg
wjGE5MGuKEdBpuJSwsiLyMGUCh5Bn1tQwmLw18HQiAdBK3pewuVtw8HfXVZBQzMrwrc47sFC3H9A
tpJQwk5i/sFOqLVAkqVUwpWJ88GqncZAI2hFwobQ7cEEQvFAo05FwsTw+sECp9pAmKFNwkyP/MGv
5v1AT3RNwn7x8cHQW4JAvzJQwuUV4MGNqMFAqCJUwqPp48FB+5RAaLdNwjgy3sHiAI1AWg5Awswr
6sH1ue9AG6xMwlpJ5sGMbQVB

> <OMEGA_E>
6sPzwA==

> <OMEGA_NBR>
     18892

$$$$
CACHE3-HO_1714_19
  -OEChem-03092622533D

 51 54  0     1  0  0  0  0  0999 V2000
  -44.7694  -29.4047    3.8373 C   0  0  0  0  0  0  0  0  0  0  0  0
  -44.7536  -29.2890    5.2325 C   0  0  0  0  0  0  0  0  0  0  0  0
  -45.9864  -29.5095    3.1322 C   0  0  0  0  0  0  0  0  0  0  0  0
  -46.0381  -29.2913    5.8054 C   0  0  0  0  0  0  0  0  0  0  0  0
  -47.2256  -29.4035    4.9967 C   0  0  0  0  0  0  0  0  0  0  0  0
  -48.2983  -29.3747    5.8406 C   0  0  0  0  0  0  0  0  0  0  0  0
  -54.0636  -27.6369    8.6083 C   0  0  0  0  0  0  0  0  0  0  0  0
  -54.7944  -26.7571    9.4775 C   0  0  0  0  0  0  0  0  0  0  0  0
  -53.2072  -28.5373    9.1035 C   0  0  0  0  0  0  0  0  0  0  0  0
  -54.6382  -26.8134   10.8100 C   0  0  0  0  0  0  0  0  0  0  0  0
  -53.0039  -28.6339   10.5826 C   0  0  0  0  0  0  0  0  0  0  0  0
  -49.7429  -29.4542    5.5613 C   0  0  0  0  0  0  0  0  0  0  0  0
  -52.4999  -29.3991    8.1388 C   0  0  0  0  0  0  0  0  0  0  0  0
  -52.2313  -32.0063    6.6063 C   0  0  0  0  0  0  0  0  0  0  0  0
  -50.1478  -31.1690    7.3950 C   0  0  0  0  0  0  0  0  0  0  0  0
  -51.4959  -31.6680    7.9021 C   0  0  1  0  0  0  0  0  0  0  0  0
  -51.7588  -30.9353    5.6138 C   0  0  2  0  0  0  0  0  0  0  0  0
  -55.4103  -25.8847   11.7053 C   0  0  0  0  0  0  0  0  0  0  0  0
  -51.6959  -31.4864    4.1936 C   0  0  0  0  0  0  0  0  0  0  0  0
  -53.5896  -27.7941   12.8247 C   0  0  0  0  0  0  0  0  0  0  0  0
  -47.2520  -29.5151    3.6492 N   0  0  0  0  0  0  0  0  0  0  0  0
  -46.4024  -29.1988    7.0981 N   0  0  0  0  0  0  0  0  0  0  0  0
  -47.7483  -29.2513    7.0810 N   0  0  0  0  0  0  0  0  0  0  0  0
  -53.7522  -27.7409   11.3726 N   0  0  0  0  0  0  0  0  0  0  0  0
  -50.4555  -30.5042    6.1288 N   0  0  0  0  0  0  0  0  0  0  0  0
  -52.1883  -30.6487    8.6539 N   0  0  0  0  0  0  0  0  0  0  0  0
  -52.2125  -29.4678   11.0231 O   0  0  0  0  0  0  0  0  0  0  0  0
  -50.2219  -28.5791    4.8424 O   0  0  0  0  0  0  0  0  0  0  0  0
  -52.2422  -28.9930    7.0114 O   0  0  0  0  0  0  0  0  0  0  0  0
  -43.8315  -29.4133    3.2881 H   0  0  0  0  0  0  0  0  0  0  0  0
  -43.8391  -29.2060    5.8042 H   0  0  0  0  0  0  0  0  0  0  0  0
  -45.9585  -29.5979    2.0479 H   0  0  0  0  0  0  0  0  0  0  0  0
  -54.2414  -27.5330    7.5424 H   0  0  0  0  0  0  0  0  0  0  0  0
  -55.4728  -26.0499    9.0117 H   0  0  0  0  0  0  0  0  0  0  0  0
  -52.0235  -33.0310    6.2665 H   0  0  0  0  0  0  0  0  0  0  0  0
  -53.3204  -31.9158    6.7469 H   0  0  0  0  0  0  0  0  0  0  0  0
  -49.7034  -30.4189    8.0598 H   0  0  0  0  0  0  0  0  0  0  0  0
  -49.4297  -31.9806    7.2424 H   0  0  0  0  0  0  0  0  0  0  0  0
  -51.3828  -32.5301    8.5299 H   0  0  0  0  0  0  0  0  0  0  0  0
  -52.4542  -30.0737    5.6259 H   0  0  0  0  0  0  0  0  0  0  0  0
  -56.3530  -26.3507   11.9790 H   0  0  0  0  0  0  0  0  0  0  0  0
  -55.6005  -24.9527   11.1800 H   0  0  0  0  0  0  0  0  0  0  0  0
  -54.8278  -25.6809   12.5997 H   0  0  0  0  0  0  0  0  0  0  0  0
  -51.0166  -32.3360    4.1578 H   0  0  0  0  0  0  0  0  0  0  0  0
  -51.3390  -30.7146    3.5144 H   0  0  0  0  0  0  0  0  0  0  0  0
  -52.6876  -31.8084    3.8786 H   0  0  0  0  0  0  0  0  0  0  0  0
  -54.3039  -28.4950   13.2663 H   0  0  0  0  0  0  0  0  0  0  0  0
  -52.5767  -28.1179   13.0799 H   0  0  0  0  0  0  0  0  0  0  0  0
  -53.7545  -26.8044   13.2596 H   0  0  0  0  0  0  0  0  0  0  0  0
  -48.2331  -29.1954    7.9679 H   0  0  0  0  0  0  0  0  0  0  0  0
  -52.4498  -30.8627    9.6179 H   0  0  0  0  0  0  0  0  0  0  0  0
  1  2  2  0  0  0  0
  1  3  1  0  0  0  0
  2  4  1  0  0  0  0
  3 21  2  0  0  0  0
  4  5  1  0  0  0  0
  4 22  2  0  0  0  0
  5  6  2  0  0  0  0
  5 21  1  0  0  0  0
  6 12  1  0  0  0  0
  6 23  1  0  0  0  0
  7  8  1  0  0  0  0
  7  9  2  0  0  0  0
  8 10  2  0  0  0  0
  9 11  1  0  0  0  0
  9 13  1  0  0  0  0
 10 18  1  0  0  0  0
 10 24  1  0  0  0  0
 11 24  1  0  0  0  0
 11 27  2  0  0  0  0
 12 25  1  0  0  0  0
 12 28  2  0  0  0  0
 13 26  1  0  0  0  0
 13 29  2  0  0  0  0
 14 16  1  0  0  0  0
 14 17  1  0  0  0  0
 15 16  1  0  0  0  0
 15 25  1  0  0  0  0
 16 26  1  0  0  0  0
 17 19  1  0  0  0  0
 17 25  1  0  0  0  0
 20 24  1  0  0  0  0
 22 23  1  0  0  0  0
  1 30  1  0  0  0  0
  2 31  1  0  0  0  0
  3 32  1  0  0  0  0
  7 33  1  0  0  0  0
  8 34  1  0  0  0  0
 14 35  1  0  0  0  0
 14 36  1  0  0  0  0
 15 37  1  0  0  0  0
 15 38  1  0  0  0  0
 16 39  1  0  0  0  0
 17 40  1  0  0  0  0
 18 41  1  0  0  0  0
 18 42  1  0  0  0  0
 18 43  1  0  0  0  0
 19 44  1  0  0  0  0
 19 45  1  0  0  0  0
 19 46  1  0  0  0  0
 20 47  1  0  0  0  0
 20 48  1  0  0  0  0
 20 49  1  0  0  0  0
 23 50  1  0  0  0  0
 26 51  1  0  0  0  0
M  END
> <POSIT::Probability>
0.14

> <POSIT::Method>
HYBRID

> <ReceptorTitle>
UCSF-P4578-REFINED_LIGAND-BOUND-STATE_A__DU__LA1_A-201(A)

> <OMEGA_C>
6RMzwtk868Egl3VAuAMzwuhP6sGrcKdACvI3wm8T7MFzdkhACCc4wpZU6sEzxrlAAuc8wlM668HF
5J9AfTFBwnH/6sFh5rpAK0FYwlQY3cF4uwlBbS1bwnwO1sHJoxdBK9RUwlhM5MEDqBFBgo1awuuB
1sHY9SxB9QNUwiMS5cEwUilBsPhGwiii68GG9rFA4P9RwmMx68FiOAJB4+xQwngGAMIOZ9NAT5dI
wgpa+cEdpOxA1PtNwiZY/cFZ3vxA9whPwoZ798FQpLNAJ6RdwvATz8HQSDtBnMhOwivk+8FOMoZA
xltWwkJa3sEYMk1BCwI9wtke7MHWjGlABpw5wg6X6cHtI+NASv4+wq4C6sFzl+JARQJXwmXt3cEN
9jVBadJJwqoI9MEaH8RA1cBQwqIw9cF7dgpBmtlQwiG+68GNXjBBQuNIwhSi5MEG9ZpA/vdQwpzx
58EiXeBAdlMvwmdO68HQcFJANFsvwsql6cHyu7lAetU3wmvI7MFEEQNAKvdYwoJD3MGsW/FALORd
wihm0MEYMBBBFBhQwsMfBMJQh8hAIEhVwoxT/8Gc5tdAS9BGwvZZ88Eg9QBBDLhFwkbY/8HMwedA
AIhNwtweAsJMeghBF9FRwgmX8MFgB7RAbmlhwj7O0sHpqT9B9WZewjSfx8Ey4TJBr09bwoRyzcFm
mElBAxFMwg9YAcKMDIVAGFtNwnG39cEw62BADsBSwql3/sGIO3hAKDdZws7148GsQlRBhE5SwmTx
4MFsR1FBlgRXwmRv1sFeJ1RBpu5Awj6Q6cG1+P5Al8xRwuDm9sG84hlB

> <OMEGA_E>
5kMHwQ==

> <OMEGA_NBR>
     20418

$$$$
CACHE3-HO_1714_22
  -OEChem-03092622533D

 49 53  0     1  0  0  0  0  0999 V2000
  -44.7946  -29.9077    2.9722 C   0  0  0  0  0  0  0  0  0  0  0  0
  -46.1688  -29.9350    3.2325 C   0  0  0  0  0  0  0  0  0  0  0  0
  -53.5190  -26.4794    9.5003 C   0  0  0  0  0  0  0  0  0  0  0  0
  -53.0343  -27.6061    8.8510 C   0  0  0  0  0  0  0  0  0  0  0  0
  -54.9451  -25.5063   11.2387 C   0  0  0  0  0  0  0  0  0  0  0  0
  -43.8544  -29.6908    4.0080 C   0  0  0  0  0  0  0  0  0  0  0  0
  -55.8405  -25.7314   12.2687 C   0  0  0  0  0  0  0  0  0  0  0  0
  -55.7284  -28.0049   11.9703 C   0  0  0  0  0  0  0  0  0  0  0  0
  -54.4308  -26.6151   10.5560 C   0  0  0  0  0  0  0  0  0  0  0  0
  -46.3991  -29.7257    4.5837 C   0  0  0  0  0  0  0  0  0  0  0  0
  -54.8266  -27.9133   10.9228 C   0  0  0  0  0  0  0  0  0  0  0  0
  -53.4829  -28.8385    9.2843 C   0  0  0  0  0  0  0  0  0  0  0  0
  -47.6220  -29.6880    5.1940 C   0  0  0  0  0  0  0  0  0  0  0  0
  -45.4363  -29.5080    5.6157 C   0  0  0  0  0  0  0  0  0  0  0  0
  -53.0033  -30.0824    8.6301 C   0  0  0  0  0  0  0  0  0  0  0  0
  -48.9772  -29.8452    4.6502 C   0  0  0  0  0  0  0  0  0  0  0  0
  -51.8979  -31.5378    6.1432 C   0  0  0  0  0  0  0  0  0  0  0  0
  -49.7347  -30.8186    6.8744 C   0  0  0  0  0  0  0  0  0  0  0  0
  -51.1223  -31.1583    7.4068 C   0  0  1  0  0  0  0  0  0  0  0  0
  -51.3058  -30.6525    5.0420 C   0  0  1  0  0  0  0  0  0  0  0  0
  -52.1031  -29.3668    4.8366 C   0  0  0  0  0  0  0  0  0  0  0  0
  -56.2464  -26.9576   12.6524 N   0  0  0  0  0  0  0  0  0  0  0  0
  -44.1016  -29.4849    5.3409 N   0  0  0  0  0  0  0  0  0  0  0  0
  -54.3613  -29.0130   10.2980 N   0  0  0  0  0  0  0  0  0  0  0  0
  -46.0326  -29.3445    6.8021 N   0  0  0  0  0  0  0  0  0  0  0  0
  -47.3464  -29.4576    6.5143 N   0  0  0  0  0  0  0  0  0  0  0  0
  -49.9402  -30.3827    5.4932 N   0  0  0  0  0  0  0  0  0  0  0  0
  -51.7196  -30.0401    8.0929 N   0  0  0  0  0  0  0  0  0  0  0  0
  -53.7476  -31.0579    8.5770 O   0  0  0  0  0  0  0  0  0  0  0  0
  -49.1605  -29.4818    3.4903 O   0  0  0  0  0  0  0  0  0  0  0  0
  -44.4389  -30.0562    1.9556 H   0  0  0  0  0  0  0  0  0  0  0  0
  -46.9169  -30.0992    2.4706 H   0  0  0  0  0  0  0  0  0  0  0  0
  -53.1831  -25.4969    9.1775 H   0  0  0  0  0  0  0  0  0  0  0  0
  -52.3287  -27.5099    8.0329 H   0  0  0  0  0  0  0  0  0  0  0  0
  -54.6570  -24.4928   10.9772 H   0  0  0  0  0  0  0  0  0  0  0  0
  -42.7951  -29.6794    3.7568 H   0  0  0  0  0  0  0  0  0  0  0  0
  -56.2668  -24.9049   12.8273 H   0  0  0  0  0  0  0  0  0  0  0  0
  -56.0805  -28.9750   12.3115 H   0  0  0  0  0  0  0  0  0  0  0  0
  -51.7943  -32.6082    5.9092 H   0  0  0  0  0  0  0  0  0  0  0  0
  -52.9732  -31.3316    6.2790 H   0  0  0  0  0  0  0  0  0  0  0  0
  -49.2761  -29.9731    7.4146 H   0  0  0  0  0  0  0  0  0  0  0  0
  -49.0476  -31.6777    6.9311 H   0  0  0  0  0  0  0  0  0  0  0  0
  -51.0786  -31.9890    8.0987 H   0  0  0  0  0  0  0  0  0  0  0  0
  -51.2294  -31.1972    4.0964 H   0  0  0  0  0  0  0  0  0  0  0  0
  -52.1801  -28.8231    5.7774 H   0  0  0  0  0  0  0  0  0  0  0  0
  -53.1050  -29.6039    4.4806 H   0  0  0  0  0  0  0  0  0  0  0  0
  -51.6058  -28.7343    4.1010 H   0  0  0  0  0  0  0  0  0  0  0  0
  -48.0075  -29.3645    7.2752 H   0  0  0  0  0  0  0  0  0  0  0  0
  -51.1919  -29.1677    8.1258 H   0  0  0  0  0  0  0  0  0  0  0  0
  1  2  2  0  0  0  0
  1  6  1  0  0  0  0
  2 10  1  0  0  0  0
  3  4  2  0  0  0  0
  3  9  1  0  0  0  0
  4 12  1  0  0  0  0
  5  7  2  0  0  0  0
  5  9  1  0  0  0  0
  6 23  2  0  0  0  0
  7 22  1  0  0  0  0
  8 11  1  0  0  0  0
  8 22  2  0  0  0  0
  9 11  2  0  0  0  0
 10 13  2  0  0  0  0
 10 14  1  0  0  0  0
 11 24  1  0  0  0  0
 12 15  1  0  0  0  0
 12 24  2  0  0  0  0
 13 16  1  0  0  0  0
 13 26  1  0  0  0  0
 14 23  1  0  0  0  0
 14 25  2  0  0  0  0
 15 28  1  0  0  0  0
 15 29  2  0  0  0  0
 16 27  1  0  0  0  0
 16 30  2  0  0  0  0
 17 19  1  0  0  0  0
 17 20  1  0  0  0  0
 18 19  1  0  0  0  0
 18 27  1  0  0  0  0
 19 28  1  0  0  0  0
 20 21  1  0  0  0  0
 20 27  1  0  0  0  0
 25 26  1  0  0  0  0
  1 31  1  0  0  0  0
  2 32  1  0  0  0  0
  3 33  1  0  0  0  0
  4 34  1  0  0  0  0
  5 35  1  0  0  0  0
  6 36  1  0  0  0  0
  7 37  1  0  0  0  0
  8 38  1  0  0  0  0
 17 39  1  0  0  0  0
 17 40  1  0  0  0  0
 18 41  1  0  0  0  0
 18 42  1  0  0  0  0
 19 43  1  0  0  0  0
 20 44  1  0  0  0  0
 21 45  1  0  0  0  0
 21 46  1  0  0  0  0
 21 47  1  0  0  0  0
 26 48  1  0  0  0  0
 28 49  1  0  0  0  0
M  END
> <POSIT::Probability>
0.23

> <POSIT::Method>
HYBRID

> <ReceptorTitle>
UCSF-P4578-REFINED_LIGAND-BOUND-STATE_A__DU__LA1_A-201(A)

> <OMEGA_C>
ri0zwvtC78EiOD5A5Kw4wt1678Fi4U5AdRNWwuHV08FZARhBKiNUwljZ3MHcnQ1BwcdbwuUMzMHc
0TNB6movwqyG7cGzQYBAsFxfwtfZzcG4TERB4ulewgEK4MEvhj9BKrlZwsLr1MF45ShBopg5wkbO
7cHerZJAZU5bwnZO38HGwy5Bg+5Vwj615sFfjBRB83w+wvWA7cGVNaZAx741wnMQ7MEYtLNAXwNU
wsSo8MHuFApBq+hDwt/C7sHUzpRAe5dPwlRN/MFYlcRATPBGwmiM9sEx+9tARX1MwiJE+cEeBO1A
ITlNwlo49cEQWKFAl2lQwhvv6sEzxZpARPxgwjap18ExcEpBAWgwwhjh68EN6apA7XFZwo4a6MF7
xCRBaiE4wpzB6sH8qtlAtWI9wiOp68HEdNBAy8JHwr4P88E5yK9A1eBOwh9S8MFufAFBh/1Wwot2
+MGWOwlBWqREwq/a68HUYV9AaMExwhBz8MHoUfo/6Ko7wj/L8MEAHh5Af7tUwp75y8Ex1xJBo1BR
wj0U3MGehgBB0KBawk/xw8HBoi9BMS4rwlJv7cHgb3BALxFhwko9x8GpPE1BelJgwsjM58HB+0RB
Xi1PwspuAsIHGL1AhuRTwg6n+sHb7chAtxpFwtPI78F3RO1AxjBEwuRr/cG9y91AeVBMwmfp/8FU
lAFB4epMwvKT+cG8FYNAb7hQwrSV5sG94LhAiGtUwsHU7MHKYI9AWGxOwszf5cEIO4NAqAdAwonq
6sG7zuhAfsRMwodX6cEzAwJB

> <OMEGA_E>
Vpb9wA==

> <OMEGA_NBR>
     21908

$$$$
CACHE3-HO_1714_8
  -OEChem-03092622533D

 49 53  0     1  0  0  0  0  0999 V2000
  -43.8523  -29.0436    4.9622 C   0  0  0  0  0  0  0  0  0  0  0  0
  -54.6026  -25.2551   11.7261 C   0  0  0  0  0  0  0  0  0  0  0  0
  -44.7629  -29.4257    3.9929 C   0  0  0  0  0  0  0  0  0  0  0  0
  -54.4622  -26.1495   10.6596 C   0  0  0  0  0  0  0  0  0  0  0  0
  -47.0548  -30.0386    3.3868 C   0  0  0  0  0  0  0  0  0  0  0  0
  -48.3690  -30.2524    3.7674 C   0  0  0  0  0  0  0  0  0  0  0  0
  -44.3253  -28.9024    6.2482 C   0  0  0  0  0  0  0  0  0  0  0  0
  -55.3000  -25.6184   12.9033 C   0  0  0  0  0  0  0  0  0  0  0  0
  -46.1029  -29.6508    4.3401 C   0  0  0  0  0  0  0  0  0  0  0  0
  -55.0867  -27.3497   10.9629 C   0  0  0  0  0  0  0  0  0  0  0  0
  -48.6744  -30.0664    5.0974 C   0  0  0  0  0  0  0  0  0  0  0  0
  -55.1495  -28.4498   10.1534 C   0  0  0  0  0  0  0  0  0  0  0  0
  -46.5015  -29.4838    5.6779 C   0  0  0  0  0  0  0  0  0  0  0  0
  -55.7868  -27.6987   12.1577 C   0  0  0  0  0  0  0  0  0  0  0  0
  -50.0614  -30.2766    5.5848 C   0  0  0  0  0  0  0  0  0  0  0  0
  -54.6132  -28.6894    8.8017 C   0  0  0  0  0  0  0  0  0  0  0  0
  -51.4536  -30.6317    9.0406 C   0  0  0  0  0  0  0  0  0  0  0  0
  -52.3876  -28.9773    7.6045 C   0  0  0  0  0  0  0  0  0  0  0  0
  -51.5514  -30.2492    7.5674 C   0  0  1  0  0  0  0  0  0  0  0  0
  -52.8395  -30.2692    9.5924 C   0  0  1  0  0  0  0  0  0  0  0  0
  -52.7576  -29.8344   11.0503 C   0  0  0  0  0  0  0  0  0  0  0  0
  -45.6132  -29.1140    6.6097 N   0  0  0  0  0  0  0  0  0  0  0  0
  -55.9125  -26.8123   13.1853 N   0  0  0  0  0  0  0  0  0  0  0  0
  -47.7746  -29.6921    6.0378 N   0  0  0  0  0  0  0  0  0  0  0  0
  -56.2576  -28.9492   12.0906 N   0  0  0  0  0  0  0  0  0  0  0  0
  -55.8582  -29.3728   10.8730 N   0  0  0  0  0  0  0  0  0  0  0  0
  -53.3306  -29.2151    8.6978 N   0  0  0  0  0  0  0  0  0  0  0  0
  -50.2751  -30.0649    6.9442 N   0  0  0  0  0  0  0  0  0  0  0  0
  -50.9278  -30.6366    4.7924 O   0  0  0  0  0  0  0  0  0  0  0  0
  -55.3423  -28.4050    7.8526 O   0  0  0  0  0  0  0  0  0  0  0  0
  -42.8121  -28.8641    4.7193 H   0  0  0  0  0  0  0  0  0  0  0  0
  -54.1683  -24.2611   11.6524 H   0  0  0  0  0  0  0  0  0  0  0  0
  -44.4257  -29.5479    2.9661 H   0  0  0  0  0  0  0  0  0  0  0  0
  -53.9365  -25.9108    9.7465 H   0  0  0  0  0  0  0  0  0  0  0  0
  -46.7751  -30.1751    2.3450 H   0  0  0  0  0  0  0  0  0  0  0  0
  -49.1154  -30.5534    3.0411 H   0  0  0  0  0  0  0  0  0  0  0  0
  -43.6644  -28.6055    7.0560 H   0  0  0  0  0  0  0  0  0  0  0  0
  -55.3819  -24.8887   13.7071 H   0  0  0  0  0  0  0  0  0  0  0  0
  -51.2268  -31.6945    9.1737 H   0  0  0  0  0  0  0  0  0  0  0  0
  -50.6690  -30.0477    9.5387 H   0  0  0  0  0  0  0  0  0  0  0  0
  -51.7947  -28.0960    7.8754 H   0  0  0  0  0  0  0  0  0  0  0  0
  -52.9018  -28.7904    6.6573 H   0  0  0  0  0  0  0  0  0  0  0  0
  -52.0818  -31.0307    7.0096 H   0  0  0  0  0  0  0  0  0  0  0  0
  -53.5269  -31.1195    9.4970 H   0  0  0  0  0  0  0  0  0  0  0  0
  -52.0760  -28.9903   11.1484 H   0  0  0  0  0  0  0  0  0  0  0  0
  -52.3935  -30.6578   11.6636 H   0  0  0  0  0  0  0  0  0  0  0  0
  -53.7443  -29.5368   11.4057 H   0  0  0  0  0  0  0  0  0  0  0  0
  -56.1078  -30.3133   10.5936 H   0  0  0  0  0  0  0  0  0  0  0  0
  -49.4849  -29.8274    7.5439 H   0  0  0  0  0  0  0  0  0  0  0  0
  1  3  2  0  0  0  0
  1  7  1  0  0  0  0
  2  4  2  0  0  0  0
  2  8  1  0  0  0  0
  3  9  1  0  0  0  0
  4 10  1  0  0  0  0
  5  6  2  0  0  0  0
  5  9  1  0  0  0  0
  6 11  1  0  0  0  0
  7 22  2  0  0  0  0
  8 23  2  0  0  0  0
  9 13  2  0  0  0  0
 10 12  2  0  0  0  0
 10 14  1  0  0  0  0
 11 15  1  0  0  0  0
 11 24  2  0  0  0  0
 12 16  1  0  0  0  0
 12 26  1  0  0  0  0
 13 22  1  0  0  0  0
 13 24  1  0  0  0  0
 14 23  1  0  0  0  0
 14 25  2  0  0  0  0
 15 28  1  0  0  0  0
 15 29  2  0  0  0  0
 16 27  1  0  0  0  0
 16 30  2  0  0  0  0
 17 19  1  0  0  0  0
 17 20  1  0  0  0  0
 18 19  1  0  0  0  0
 18 27  1  0  0  0  0
 19 28  1  0  0  0  0
 20 21  1  0  0  0  0
 20 27  1  0  0  0  0
 25 26  1  0  0  0  0
  1 31  1  0  0  0  0
  2 32  1  0  0  0  0
  3 33  1  0  0  0  0
  4 34  1  0  0  0  0
  5 35  1  0  0  0  0
  6 36  1  0  0  0  0
  7 37  1  0  0  0  0
  8 38  1  0  0  0  0
 17 39  1  0  0  0  0
 17 40  1  0  0  0  0
 18 41  1  0  0  0  0
 18 42  1  0  0  0  0
 19 43  1  0  0  0  0
 20 44  1  0  0  0  0
 21 45  1  0  0  0  0
 21 46  1  0  0  0  0
 21 47  1  0  0  0  0
 26 48  1  0  0  0  0
 28 49  1  0  0  0  0
M  END
> <POSIT::Probability>
0.42

> <POSIT::Method>
HYBRID

> <ReceptorTitle>
UCSF-P4578-REFINED_LIGAND-BOUND-STATE_A__DU__LA1_A-201(A)

> <OMEGA_C>
t2gvwktZ6ME5yp5ADGlawmQKysEqnjtBKg0zwr1n68H7in9AU9lZwh4y0cHijSpBFzg8whhP8MEM
wlhA3nlBwgEF8sGcHHFAEU0xwiw458E58cdAKjNdwn/yzMHEc05BVWk4wtw07cFv4opAylhcwkLM
2sElaC9BobJCwueH8MH8HaNAIplcwkOZ48EmdCJBkAE6wsfe68EysbVAsSVfwu+W3cHKhUJB1j5I
wm028sHFtrJA5HNawv2D5cH00wxBe9BNwtAN9cFAphBB64xRwpvR58H0V/NAqzROwkj+8cFpKPJA
sVtTwmYn8sGsehlByAdTwtGs7sEYzjBB7nM2wmvp6MHhgtNAWqZfwqV/1sEw91JBMhk/wnuJ7cHz
NcFA1QdhwuGX58H+ckFB125fwpL76sGg9y1BilJVwom46cEiKgtBuBlJwuqE8MGyNt5AFbZLwrcX
9cH2WplAgl5dwmk948GfSPtAkT8rwqLp5sE2BJdATqxYws8WwsFscDpB4rMxwiJi7MHg0z1AAr9X
wlRJz8HE8RtBqRk7woRm8cH8FBZANXZEwmRt9MGioEJAWKguwhvY5MEGy+FABIddwhccx8FYUFtB
M+hMwkOO/cGoxxJBCK1Kwp9h8MGUnhhBuy1PworE4MF2A/xAaZtTwrhS5sHGCNVAv1NQwtA++MHD
TuBAfxtWwsX0+MGM8xdBxk1Qwi7s58HqXzJB/pJRwkJD9cE2njpBMvpWwlRL7MGUfTZBbG5gwpyB
8sFSfylBivBFwoue7sHDZ/FA

> <OMEGA_E>
MOwDwQ==

> <OMEGA_NBR>
     23401

$$$$
CACHE3HI_1687_15
  -OEChem-03092622533D

 40 42  0     0  0  0  0  0  0999 V2000
  -44.3041  -29.2073    4.4302 C   0  0  0  0  0  0  0  0  0  0  0  0
  -46.5942  -29.2864    3.5319 C   0  0  0  0  0  0  0  0  0  0  0  0
  -47.9796  -29.4282    3.7342 C   0  0  0  0  0  0  0  0  0  0  0  0
  -52.7878  -29.5528    6.3656 C   0  0  0  0  0  0  0  0  0  0  0  0
  -51.9176  -30.8840    8.2192 C   0  0  0  0  0  0  0  0  0  0  0  0
  -54.0649  -29.5821    6.9449 C   0  0  0  0  0  0  0  0  0  0  0  0
  -53.1984  -30.9113    8.7989 C   0  0  0  0  0  0  0  0  0  0  0  0
  -56.5617  -27.3570   11.4921 C   0  0  0  0  0  0  0  0  0  0  0  0
  -47.6168  -29.4807    6.1499 C   0  0  0  0  0  0  0  0  0  0  0  0
  -57.3127  -28.5209   11.2945 C   0  0  0  0  0  0  0  0  0  0  0  0
  -45.7181  -29.2623    4.6359 C   0  0  0  0  0  0  0  0  0  0  0  0
  -48.5009  -29.5514    5.0449 C   0  0  0  0  0  0  0  0  0  0  0  0
  -51.7005  -30.1960    7.0075 C   0  0  0  0  0  0  0  0  0  0  0  0
  -54.2630  -30.2271    8.1778 C   0  0  0  0  0  0  0  0  0  0  0  0
  -46.2328  -29.3399    5.9470 C   0  0  0  0  0  0  0  0  0  0  0  0
  -55.4288  -27.1361   10.6806 C   0  0  0  0  0  0  0  0  0  0  0  0
  -55.8285  -29.2114    9.6211 C   0  0  0  0  0  0  0  0  0  0  0  0
  -49.9482  -29.7793    5.2627 C   0  0  0  0  0  0  0  0  0  0  0  0
  -54.5941  -25.8704   10.8630 C   0  0  0  0  0  0  0  0  0  0  0  0
  -43.1465  -29.1792    4.2983 N   0  0  0  0  0  0  0  0  0  0  0  0
  -56.9458  -29.4156   10.3585 N   0  0  0  0  0  0  0  0  0  0  0  0
  -55.0711  -28.0760    9.7599 N   0  0  0  0  0  0  0  0  0  0  0  0
  -50.3851  -30.0978    6.5498 N   0  0  0  0  0  0  0  0  0  0  0  0
  -50.7092  -29.8143    4.3010 O   0  0  0  0  0  0  0  0  0  0  0  0
  -45.3971  -29.3079    7.0226 O   0  0  0  0  0  0  0  0  0  0  0  0
  -55.5143  -30.2398    8.7404 O   0  0  0  0  0  0  0  0  0  0  0  0
  -55.1954  -24.9904   11.7134 F   0  0  0  0  0  0  0  0  0  0  0  0
  -54.4251  -25.2574    9.6634 F   0  0  0  0  0  0  0  0  0  0  0  0
  -53.3782  -26.1963   11.3709 F   0  0  0  0  0  0  0  0  0  0  0  0
  -46.2018  -29.1959    2.5298 H   0  0  0  0  0  0  0  0  0  0  0  0
  -48.6480  -29.4430    2.8861 H   0  0  0  0  0  0  0  0  0  0  0  0
  -52.6328  -29.0388    5.4284 H   0  0  0  0  0  0  0  0  0  0  0  0
  -51.0969  -31.3919    8.7039 H   0  0  0  0  0  0  0  0  0  0  0  0
  -54.8962  -29.1090    6.4434 H   0  0  0  0  0  0  0  0  0  0  0  0
  -53.3660  -31.4547    9.7170 H   0  0  0  0  0  0  0  0  0  0  0  0
  -56.8437  -26.6418   12.2507 H   0  0  0  0  0  0  0  0  0  0  0  0
  -48.0088  -29.5353    7.1548 H   0  0  0  0  0  0  0  0  0  0  0  0
  -58.1912  -28.7022   11.8961 H   0  0  0  0  0  0  0  0  0  0  0  0
  -49.6699  -30.2772    7.2253 H   0  0  0  0  0  0  0  0  0  0  0  0
  -44.5004  -29.2093    6.7247 H   0  0  0  0  0  0  0  0  0  0  0  0
  1 11  1  0  0  0  0
  1 20  3  0  0  0  0
  2  3  2  0  0  0  0
  2 11  1  0  0  0  0
  3 12  1  0  0  0  0
  4  6  1  0  0  0  0
  4 13  2  0  0  0  0
  5  7  2  0  0  0  0
  5 13  1  0  0  0  0
  6 14  2  0  0  0  0
  7 14  1  0  0  0  0
  8 10  1  0  0  0  0
  8 16  2  0  0  0  0
  9 12  2  0  0  0  0
  9 15  1  0  0  0  0
 10 21  2  0  0  0  0
 11 15  2  0  0  0  0
 12 18  1  0  0  0  0
 13 23  1  0  0  0  0
 14 26  1  0  0  0  0
 15 25  1  0  0  0  0
 16 19  1  0  0  0  0
 16 22  1  0  0  0  0
 17 21  1  0  0  0  0
 17 22  2  0  0  0  0
 17 26  1  0  0  0  0
 18 23  1  0  0  0  0
 18 24  2  0  0  0  0
 19 27  1  0  0  0  0
 19 28  1  0  0  0  0
 19 29  1  0  0  0  0
  2 30  1  0  0  0  0
  3 31  1  0  0  0  0
  4 32  1  0  0  0  0
  5 33  1  0  0  0  0
  6 34  1  0  0  0  0
  7 35  1  0  0  0  0
  8 36  1  0  0  0  0
  9 37  1  0  0  0  0
 10 38  1  0  0  0  0
 23 39  1  0  0  0  0
 25 40  1  0  0  0  0
M  END
> <POSIT::Probability>
0.5

> <POSIT::Method>
SHAPEFIT

> <ReceptorTitle>
UCSF-P4578-REFINED_LIGAND-BOUND-STATE_A__DU__LA1_A-201(A)

> <OMEGA_C>
czcxwnao6cEjxI1AdWA6wolK6sFSC2JAEus/wtxs68Ho/W5ArCZTwgxs7MHdsstAl6tPwnUS98H/
gQNBakJYwjuo7MGOPN5AI8tUwlhK98EhyAxBNT9iwifb2sGf3zdBmnc+wmDY68HXy8RAPkBlwtsq
5MFvtjRBW982wkEZ6sGYWZRA9ABCwjpp7MEDcKFAVc1OwmyR8cESPeBARw1ZwhjR8cEd2AJBYu44
whG46sHjTb5AE7ddwr4W2cHq4ypBaFBfwu6w6cHe7xlB7spHwvA77sH3Z6hAU2Bawqr2zsHxzi1B
DJYswgRv6cG1i4lAc8hjwj5T68FgvCVB0UhcwqWb4MFqKBxBWopJwkTI8MHml9FAQ9ZKwsWD7sHj
oYlAn5Y1wn526sEWueBArA5ewhzr8cHS2AtBDMhcwmPsx8H2aTtBRLNZwiUPysEVnRpBRINVwh2S
0cEf7zVBqs44wkuR6cF46CFAlJdCwlGL68ENtjhA/YdSwoRP6MGuta1AMWNMwpki+8E2QwtBrJVb
wknf6MFYMM5Ax3ZVwkyj+8HWeBtB6F9jwoIi1cHRAkRB9whAwjVI7MHV8+RAwsNowiye5cFxVj5B
8q1Gwq038sFGNedAbgAywp+s6cFxMNdA

> <OMEGA_E>
elphPw==

> <OMEGA_NBR>
     24720

$$$$
CACHE3HI_1689_12
  -OEChem-03092622533D

 39 41  0     0  0  0  0  0  0999 V2000
  -52.6936  -29.6280    6.3678 C   0  0  0  0  0  0  0  0  0  0  0  0
  -51.7785  -31.0444    8.1357 C   0  0  0  0  0  0  0  0  0  0  0  0
  -53.9581  -29.6976    6.9739 C   0  0  0  0  0  0  0  0  0  0  0  0
  -53.0499  -31.1364    8.7247 C   0  0  0  0  0  0  0  0  0  0  0  0
  -51.5865  -30.2780    6.9685 C   0  0  0  0  0  0  0  0  0  0  0  0
  -54.1254  -30.4193    8.1723 C   0  0  0  0  0  0  0  0  0  0  0  0
  -47.5189  -29.5148    6.1343 C   0  0  0  0  0  0  0  0  0  0  0  0
  -46.3894  -29.2316    3.5471 C   0  0  0  0  0  0  0  0  0  0  0  0
  -48.3677  -29.5483    5.0350 C   0  0  0  0  0  0  0  0  0  0  0  0
  -47.7578  -29.3668    3.6734 C   0  0  0  0  0  0  0  0  0  0  0  0
  -46.0673  -29.3398    5.9455 C   0  0  0  0  0  0  0  0  0  0  0  0
  -49.8303  -29.7823    5.2470 C   0  0  0  0  0  0  0  0  0  0  0  0
  -55.8788  -29.2592    9.4120 C   0  0  0  0  0  0  0  0  0  0  0  0
  -56.4582  -26.9726   11.5858 C   0  0  0  0  0  0  0  0  0  0  0  0
  -55.0600  -26.3416   11.5879 C   0  0  0  0  0  0  0  0  0  0  0  0
  -55.6384  -26.9054   10.2832 C   0  0  0  0  0  0  0  0  0  0  0  0
  -45.5530  -29.2354    4.6639 N   0  0  0  0  0  0  0  0  0  0  0  0
  -50.2714  -30.1087    6.5293 N   0  0  0  0  0  0  0  0  0  0  0  0
  -55.3490  -30.4022    8.8230 N   0  0  0  0  0  0  0  0  0  0  0  0
  -55.0804  -28.1534    9.7249 N   0  0  0  0  0  0  0  0  0  0  0  0
  -45.3140  -29.3033    6.9103 O   0  0  0  0  0  0  0  0  0  0  0  0
  -50.6089  -29.8205    4.3021 O   0  0  0  0  0  0  0  0  0  0  0  0
  -57.0749  -29.2535    9.6729 O   0  0  0  0  0  0  0  0  0  0  0  0
  -48.7911  -29.2876    2.0585 Br  0  0  0  0  0  0  0  0  0  0  0  0
  -52.5647  -29.0804    5.4458 H   0  0  0  0  0  0  0  0  0  0  0  0
  -50.9425  -31.5641    8.5800 H   0  0  0  0  0  0  0  0  0  0  0  0
  -54.8021  -29.1980    6.5218 H   0  0  0  0  0  0  0  0  0  0  0  0
  -53.2005  -31.7548    9.5973 H   0  0  0  0  0  0  0  0  0  0  0  0
  -47.9238  -29.6173    7.1303 H   0  0  0  0  0  0  0  0  0  0  0  0
  -45.9575  -29.1205    2.5634 H   0  0  0  0  0  0  0  0  0  0  0  0
  -56.6260  -27.9403   12.0812 H   0  0  0  0  0  0  0  0  0  0  0  0
  -57.3485  -26.3383   11.7091 H   0  0  0  0  0  0  0  0  0  0  0  0
  -54.9481  -25.2546   11.7145 H   0  0  0  0  0  0  0  0  0  0  0  0
  -54.2257  -26.8566   12.0866 H   0  0  0  0  0  0  0  0  0  0  0  0
  -55.9768  -26.1533    9.5554 H   0  0  0  0  0  0  0  0  0  0  0  0
  -44.5639  -29.1614    4.5366 H   0  0  0  0  0  0  0  0  0  0  0  0
  -49.5587  -30.2373    7.2189 H   0  0  0  0  0  0  0  0  0  0  0  0
  -55.8753  -31.2512    8.8711 H   0  0  0  0  0  0  0  0  0  0  0  0
  -54.0950  -28.2105    9.5643 H   0  0  0  0  0  0  0  0  0  0  0  0
  1  3  1  0  0  0  0
  1  5  2  0  0  0  0
  2  4  2  0  0  0  0
  2  5  1  0  0  0  0
  3  6  2  0  0  0  0
  4  6  1  0  0  0  0
  5 18  1  0  0  0  0
  6 19  1  0  0  0  0
  7  9  2  0  0  0  0
  7 11  1  0  0  0  0
  8 10  2  0  0  0  0
  8 17  1  0  0  0  0
  9 10  1  0  0  0  0
  9 12  1  0  0  0  0
 10 24  1  0  0  0  0
 11 17  1  0  0  0  0
 11 21  2  0  0  0  0
 12 18  1  0  0  0  0
 12 22  2  0  0  0  0
 13 19  1  0  0  0  0
 13 20  1  0  0  0  0
 13 23  2  0  0  0  0
 14 15  1  0  0  0  0
 14 16  1  0  0  0  0
 15 16  1  0  0  0  0
 16 20  1  0  0  0  0
  1 25  1  0  0  0  0
  2 26  1  0  0  0  0
  3 27  1  0  0  0  0
  4 28  1  0  0  0  0
  7 29  1  0  0  0  0
  8 30  1  0  0  0  0
 14 31  1  0  0  0  0
 14 32  1  0  0  0  0
 15 33  1  0  0  0  0
 15 34  1  0  0  0  0
 16 35  1  0  0  0  0
 17 36  1  0  0  0  0
 18 37  1  0  0  0  0
 19 38  1  0  0  0  0
 20 39  1  0  0  0  0
M  END
> <POSIT::Probability>
0.5

> <POSIT::Method>
SHAPEFIT

> <ReceptorTitle>
UCSF-P4578-REFINED_LIGAND-BOUND-STATE_A__DU__LA1_A-201(A)

> <OMEGA_C>
OMZSwicG7cHIxMtANx1PwtZa+MH4KwJBENVXwpiU7cGLKt9ADjNUwm8X+cGQmAtBk1hOwms58sHa
/d5AdIBYwrRa88HtwQJBZhM+wlMe7MEeTMRAtY45wkDa6cFKA2NAj3hBwtxi7MFzHqFA/wc/wi/v
6sFNGWtA4UQ4wvS36sHxQb5AM1JHwhZC7sEZ56dA54NfwuwS6sGBlxZBP9VhwubH18GIXzlBZj1c
woS70sHsZzlBso1ewlU+18HohyRBPTY2wiDi6cHIPpVA6xVJwpze8MER8NBAYmVdwss388HRKg1B
T1JcwjY64cEJmRtBh0E1wjht6sEdId1AiW9KwlOQ7sF9qolAsExkwiMH6sEtxBpBDypDwuhM6sF1
vgNAR0JSwruk6MFJRK5AGcVLwi2D/MGBRwlBXjVbwouV6cF4stBAXM1UwsgJ/sGOjhlB97E/wjrw
7MFAK+RAhNQ3wtr26MHqDiRAEYFiwr+F38GfTEFB1WRlwua00sGSWDtB28pbwnMJysGabjtBF+dY
wkva1sGnYkFBNehfwt850cHD4hhBaEEywpFK6cFyK5FAFzxGwuzl8cH2AOdAVIBfwmUC+sH87w1B
R2FYwguv4cGEBxlB

> <OMEGA_E>
XGRcPw==

> <OMEGA_NBR>
     26022

$$$$
CACHE3HI_1689_56
  -OEChem-03092622533D

 38 40  0     0  0  0  0  0  0999 V2000
  -53.5962  -29.2380    7.2722 C   0  0  0  0  0  0  0  0  0  0  0  0
  -51.7153  -30.4683    8.1587 C   0  0  0  0  0  0  0  0  0  0  0  0
  -54.2343  -29.3232    8.5097 C   0  0  0  0  0  0  0  0  0  0  0  0
  -52.3533  -30.5535    9.3962 C   0  0  0  0  0  0  0  0  0  0  0  0
  -52.3365  -29.8106    7.0969 C   0  0  0  0  0  0  0  0  0  0  0  0
  -53.6131  -29.9809    9.5715 C   0  0  0  0  0  0  0  0  0  0  0  0
  -48.0904  -29.6164    5.0654 C   0  0  0  0  0  0  0  0  0  0  0  0
  -46.3137  -29.4512    6.3011 C   0  0  0  0  0  0  0  0  0  0  0  0
  -51.6705  -29.7217    5.8071 C   0  0  0  0  0  0  0  0  0  0  0  0
  -54.6726  -29.0176   11.6525 C   0  0  0  0  0  0  0  0  0  0  0  0
  -53.7605  -25.3306   11.6133 C   0  0  0  0  0  0  0  0  0  0  0  0
  -55.0936  -25.3131   10.9276 C   0  0  0  0  0  0  0  0  0  0  0  0
  -54.6798  -26.5153   11.7308 C   0  0  0  0  0  0  0  0  0  0  0  0
  -49.5396  -29.6218    4.7405 C   0  0  0  0  0  0  0  0  0  0  0  0
  -47.1307  -29.8138    4.2104 N   0  0  0  0  0  0  0  0  0  0  0  0
  -47.6889  -29.3932    6.3336 N   0  0  0  0  0  0  0  0  0  0  0  0
  -45.9950  -29.7150    4.9625 N   0  0  0  0  0  0  0  0  0  0  0  0
  -54.2518  -30.0660   10.8089 N   0  0  0  0  0  0  0  0  0  0  0  0
  -54.3670  -27.7734   11.0913 N   0  0  0  0  0  0  0  0  0  0  0  0
  -45.5358  -29.3057    7.2316 O   0  0  0  0  0  0  0  0  0  0  0  0
  -52.2576  -29.6669    4.7185 O   0  0  0  0  0  0  0  0  0  0  0  0
  -55.2334  -29.1464   12.7380 O   0  0  0  0  0  0  0  0  0  0  0  0
  -50.3093  -29.7067    5.9444 O   0  0  0  0  0  0  0  0  0  0  0  0
  -54.0902  -28.7227    6.4527 H   0  0  0  0  0  0  0  0  0  0  0  0
  -50.7339  -30.9185    8.0336 H   0  0  0  0  0  0  0  0  0  0  0  0
  -55.2158  -28.8729    8.6353 H   0  0  0  0  0  0  0  0  0  0  0  0
  -51.8598  -31.0690   10.2161 H   0  0  0  0  0  0  0  0  0  0  0  0
  -52.8770  -25.4219   10.9934 H   0  0  0  0  0  0  0  0  0  0  0  0
  -53.6338  -24.7032   12.4870 H   0  0  0  0  0  0  0  0  0  0  0  0
  -55.8649  -24.6737   11.3390 H   0  0  0  0  0  0  0  0  0  0  0  0
  -55.1052  -25.3928    9.8475 H   0  0  0  0  0  0  0  0  0  0  0  0
  -55.1739  -26.6553   12.6861 H   0  0  0  0  0  0  0  0  0  0  0  0
  -49.7912  -30.4694    4.0958 H   0  0  0  0  0  0  0  0  0  0  0  0
  -49.8140  -28.7003    4.2184 H   0  0  0  0  0  0  0  0  0  0  0  0
  -48.2759  -29.2193    7.1405 H   0  0  0  0  0  0  0  0  0  0  0  0
  -45.0546  -29.8180    4.6032 H   0  0  0  0  0  0  0  0  0  0  0  0
  -54.4399  -31.0154   11.1495 H   0  0  0  0  0  0  0  0  0  0  0  0
  -53.8716  -27.7462   10.2055 H   0  0  0  0  0  0  0  0  0  0  0  0
  1  3  1  0  0  0  0
  1  5  2  0  0  0  0
  2  4  2  0  0  0  0
  2  5  1  0  0  0  0
  3  6  2  0  0  0  0
  4  6  1  0  0  0  0
  5  9  1  0  0  0  0
  6 18  1  0  0  0  0
  7 14  1  0  0  0  0
  7 15  2  0  0  0  0
  7 16  1  0  0  0  0
  8 16  1  0  0  0  0
  8 17  1  0  0  0  0
  8 20  2  0  0  0  0
  9 21  2  0  0  0  0
  9 23  1  0  0  0  0
 10 18  1  0  0  0  0
 10 19  1  0  0  0  0
 10 22  2  0  0  0  0
 11 12  1  0  0  0  0
 11 13  1  0  0  0  0
 12 13  1  0  0  0  0
 13 19  1  0  0  0  0
 14 23  1  0  0  0  0
 15 17  1  0  0  0  0
  1 24  1  0  0  0  0
  2 25  1  0  0  0  0
  3 26  1  0  0  0  0
  4 27  1  0  0  0  0
 11 28  1  0  0  0  0
 11 29  1  0  0  0  0
 12 30  1  0  0  0  0
 12 31  1  0  0  0  0
 13 32  1  0  0  0  0
 14 33  1  0  0  0  0
 14 34  1  0  0  0  0
 16 35  1  0  0  0  0
 17 36  1  0  0  0  0
 18 37  1  0  0  0  0
 19 38  1  0  0  0  0
M  END
> <POSIT::Probability>
0.18

> <POSIT::Method>
HYBRID

> <ReceptorTitle>
UCSF-P4578-REFINED_LIGAND-BOUND-STATE_A__DU__LA1_A-201(A)

> <OMEGA_C>
iWJWwn/n6cEUtuhAb9xOwi2/88EqigJB8e9YwteV6sGmJwhBy2lRwoxt9MGkVhZBl1hRwiB87sH/
GeNAynNWwuLY78HSJBlBmVxAwmDu7MHwF6JAPUE5whqc68EEo8lAoK5OwhnG7cEU1LlAvrBawgok
6MGPcDpBugpXwiGlysEC0DlB219cwlGBysFI1y5BHbhawkMf1ME0sTtBiihGwl/57ME2spdA4IU8
wr+C7sFDu4ZAcsE+wjEl68EgrcpA1fo3wme47cEUzZ5A2AFZwh2H8ME/8SxBzHdZwvQv3sEpdjFB
qCQ2wg9y6sFKaedA0AdRwrZV7cHA/ZZA/O5cwsUr6cHwzktBxDxJwkSn7cFWOL5AX1xYwh3I5cFp
fM5AiO9KwjBZ98FyiQBB89xcwsD75sE2KgpBaXBPwk6N+ME2dSNBAoJTwhRgy8HD5C9B+4hWwiWg
xcGrykdBonVfwtRjxcGCbDVBrWtcwoQky8FAjx1BD7JcwgY+1cET+kpBJCpHwkjB88EnEYNAhUFH
wkua5cFY/YZAjBpBwh/B6cFQf+RA6Dc0wkSL7sFoTZNAasJZwnIf+MEzZDJBgXxXwkP43cGzSSNB

> <OMEGA_E>
IsS7wA==

> <OMEGA_NBR>
     27279

$$$$
CACHE3HI_1689_58
  -OEChem-03092622533D

 45 47  0     0  0  0  0  0  0999 V2000
  -55.1833  -27.6228   10.4879 C   0  0  0  0  0  0  0  0  0  0  0  0
  -56.0275  -28.3643    9.6615 C   0  0  0  0  0  0  0  0  0  0  0  0
  -53.8010  -27.7866   10.3989 C   0  0  0  0  0  0  0  0  0  0  0  0
  -55.4897  -29.2692    8.7460 C   0  0  0  0  0  0  0  0  0  0  0  0
  -53.2632  -28.6914    9.4834 C   0  0  0  0  0  0  0  0  0  0  0  0
  -54.1074  -29.4329    8.6570 C   0  0  0  0  0  0  0  0  0  0  0  0
  -47.2869  -29.7385    3.3172 C   0  0  0  0  0  0  0  0  0  0  0  0
  -45.3993  -29.5632    4.3916 C   0  0  0  0  0  0  0  0  0  0  0  0
  -48.6862  -29.8490    3.2186 C   0  0  0  0  0  0  0  0  0  0  0  0
  -49.4161  -29.8755    4.3391 C   0  0  0  0  0  0  0  0  0  0  0  0
  -48.7114  -29.7856    5.6660 C   0  0  0  0  0  0  0  0  0  0  0  0
  -56.4106  -30.0538    7.8706 C   0  0  0  0  0  0  0  0  0  0  0  0
  -51.7808  -28.8520    9.4033 C   0  0  0  0  0  0  0  0  0  0  0  0
  -44.4374  -29.4572    5.5039 C   0  0  0  0  0  0  0  0  0  0  0  0
  -51.8540  -29.2752    6.4638 C   0  0  0  0  0  0  0  0  0  0  0  0
  -50.8192  -30.3307    6.8301 C   0  0  0  0  0  0  0  0  0  0  0  0
  -53.2785  -29.8174    6.4611 C   0  0  0  0  0  0  0  0  0  0  0  0
  -46.3203  -29.6879    2.4248 N   0  0  0  0  0  0  0  0  0  0  0  0
  -45.1250  -29.5774    3.1065 N   0  0  0  0  0  0  0  0  0  0  0  0
  -47.4052  -29.6821    5.7644 N   0  0  0  0  0  0  0  0  0  0  0  0
  -46.7477  -29.6629    4.5791 N   0  0  0  0  0  0  0  0  0  0  0  0
  -49.4822  -29.8151    6.8058 N   0  0  0  0  0  0  0  0  0  0  0  0
  -43.1912  -30.0458    5.1305 O   0  0  0  0  0  0  0  0  0  0  0  0
  -53.5784  -30.3205    7.7564 O   0  0  0  0  0  0  0  0  0  0  0  0
  -55.6019  -26.9196   11.2015 H   0  0  0  0  0  0  0  0  0  0  0  0
  -57.1033  -28.2308    9.7389 H   0  0  0  0  0  0  0  0  0  0  0  0
  -53.1511  -27.2052   11.0474 H   0  0  0  0  0  0  0  0  0  0  0  0
  -49.1568  -29.9104    2.2441 H   0  0  0  0  0  0  0  0  0  0  0  0
  -50.4959  -29.9602    4.3217 H   0  0  0  0  0  0  0  0  0  0  0  0
  -56.6140  -29.5235    6.9318 H   0  0  0  0  0  0  0  0  0  0  0  0
  -57.3786  -30.2187    8.3605 H   0  0  0  0  0  0  0  0  0  0  0  0
  -55.9694  -31.0287    7.6322 H   0  0  0  0  0  0  0  0  0  0  0  0
  -51.4284  -29.6338   10.0878 H   0  0  0  0  0  0  0  0  0  0  0  0
  -51.2657  -27.9249    9.6851 H   0  0  0  0  0  0  0  0  0  0  0  0
  -51.4822  -29.1210    8.3832 H   0  0  0  0  0  0  0  0  0  0  0  0
  -44.2460  -28.4074    5.7891 H   0  0  0  0  0  0  0  0  0  0  0  0
  -44.7969  -29.9702    6.4145 H   0  0  0  0  0  0  0  0  0  0  0  0
  -51.6252  -28.8745    5.4683 H   0  0  0  0  0  0  0  0  0  0  0  0
  -51.7914  -28.4225    7.1522 H   0  0  0  0  0  0  0  0  0  0  0  0
  -51.0037  -30.7378    7.8296 H   0  0  0  0  0  0  0  0  0  0  0  0
  -50.8568  -31.1566    6.1136 H   0  0  0  0  0  0  0  0  0  0  0  0
  -53.3914  -30.6332    5.7404 H   0  0  0  0  0  0  0  0  0  0  0  0
  -53.9959  -29.0269    6.2206 H   0  0  0  0  0  0  0  0  0  0  0  0
  -49.0718  -29.4581    7.6454 H   0  0  0  0  0  0  0  0  0  0  0  0
  -42.6030  -29.9476    5.8941 H   0  0  0  0  0  0  0  0  0  0  0  0
  1  2  2  0  0  0  0
  1  3  1  0  0  0  0
  2  4  1  0  0  0  0
  3  5  2  0  0  0  0
  4  6  2  0  0  0  0
  4 12  1  0  0  0  0
  5  6  1  0  0  0  0
  5 13  1  0  0  0  0
  6 24  1  0  0  0  0
  7  9  1  0  0  0  0
  7 18  2  0  0  0  0
  7 21  1  0  0  0  0
  8 14  1  0  0  0  0
  8 19  2  0  0  0  0
  8 21  1  0  0  0  0
  9 10  2  0  0  0  0
 10 11  1  0  0  0  0
 11 20  2  0  0  0  0
 11 22  1  0  0  0  0
 14 23  1  0  0  0  0
 15 16  1  0  0  0  0
 15 17  1  0  0  0  0
 16 22  1  0  0  0  0
 17 24  1  0  0  0  0
 18 19  1  0  0  0  0
 20 21  1  0  0  0  0
  1 25  1  0  0  0  0
  2 26  1  0  0  0  0
  3 27  1  0  0  0  0
  9 28  1  0  0  0  0
 10 29  1  0  0  0  0
 12 30  1  0  0  0  0
 12 31  1  0  0  0  0
 12 32  1  0  0  0  0
 13 33  1  0  0  0  0
 13 34  1  0  0  0  0
 13 35  1  0  0  0  0
 14 36  1  0  0  0  0
 14 37  1  0  0  0  0
 15 38  1  0  0  0  0
 15 39  1  0  0  0  0
 16 40  1  0  0  0  0
 16 41  1  0  0  0  0
 17 42  1  0  0  0  0
 17 43  1  0  0  0  0
 22 44  1  0  0  0  0
 23 45  1  0  0  0  0
M  END
> <POSIT::Probability>
0.18

> <POSIT::Method>
HYBRID

> <ReceptorTitle>
UCSF-P4578-REFINED_LIGAND-BOUND-STATE_A__DU__LA1_A-201(A)

> <OMEGA_C>
p7tcwor73MGXzidBLxxgwijq4sFVlRpBMjRXwu9K3sHtYSZBffVdwkEn6sGb7wtBgA1VwgiI5cE1
vBdB+W1YwqF268EDgwpBwSU9woro7cEYTVRA5pg1woOB7MGmh4xAoL5CwrLK7sHw/U1AGapFwvgA
78Hy2YpAethCwt1I7sG1T7VAd6Rhwjtu8MHr2/tAhh9Pwv/Q5sHkcxZB7r8xwm6o68GUH7BAeGpP
wpEz6sEy185A3UZLwkml8sFpkNpAKh1VwhSK7sHvwM5ACUg5wtKA7cEvLxtA+380wpee7MEj0EZA
+J49wvR07cEAdrhAm/06wrZN7cH8h5JAy+1FwkiF7sHqyNlAvcMswr5d8MFILaRAQVBWwnWQ8sGA
NPhAUmhewldb18EmOTNBzmlkwqPY4cGI0htBxJpUwjKk2cE8wjBBhKBEwntI78Gqng9A0/tJwmuu
78EAS4pAtnRiwiow7MGb0d1Ar4Nlwvy/8cGgxAVBteBfwtk6+MHyOvRAsrZNwhQS7cG4ZyFBFxBN
wjZm38ER9hpB0u1Nwrn36MGvIQZB8vswwlZC48HoP7lADzAzwvDC78GMQ81AOYBOwuj+5sGQ/K5A
WypPwlph48EK3+RA0ANMwgDn9cHei/pAXm1Lwp5A+cGkosNA1ZBVwssQ9cGysbdA1ftXwhU36MHo
DsdAkElEwj2q68EYp/RAbWkqwqaU78GenLxA

> <OMEGA_E>
SrHAwA==

> <OMEGA_NBR>
     28672

$$$$
CACHE3HI_1689_73
  -OEChem-03092622533D

 46 47  0     0  0  0  0  0  0999 V2000
  -48.4626  -29.2215    3.3791 C   0  0  0  0  0  0  0  0  0  0  0  0
  -49.1917  -29.1734    4.5673 C   0  0  0  0  0  0  0  0  0  0  0  0
  -47.1443  -29.3815    5.8332 C   0  0  0  0  0  0  0  0  0  0  0  0
  -47.0742  -29.3495    3.4181 C   0  0  0  0  0  0  0  0  0  0  0  0
  -48.5327  -29.2535    5.7942 C   0  0  0  0  0  0  0  0  0  0  0  0
  -46.4153  -29.4296    4.6451 C   0  0  0  0  0  0  0  0  0  0  0  0
  -46.3318  -29.3967    2.1663 C   0  0  0  0  0  0  0  0  0  0  0  0
  -50.6565  -29.0768    7.1504 C   0  0  0  0  0  0  0  0  0  0  0  0
  -43.0118  -27.8556    1.2573 C   0  0  0  0  0  0  0  0  0  0  0  0
  -43.1467  -29.9991    1.0848 C   0  0  0  0  0  0  0  0  0  0  0  0
  -44.1633  -28.8459    1.0050 C   0  0  0  0  0  0  0  0  0  0  0  0
  -42.1301  -29.0326    1.7330 C   0  0  0  0  0  0  0  0  0  0  0  0
  -52.3562  -29.0260   10.5155 C   0  0  0  0  0  0  0  0  0  0  0  0
  -52.9346  -27.6012    8.5348 C   0  0  0  0  0  0  0  0  0  0  0  0
  -53.1977  -30.0891    8.4060 C   0  0  0  0  0  0  0  0  0  0  0  0
  -52.3548  -28.9470    8.9853 C   0  0  0  0  0  0  0  0  0  0  0  0
  -49.2728  -29.2031    6.9990 N   0  0  0  0  0  0  0  0  0  0  0  0
  -45.0283  -28.8902    2.1844 N   0  0  0  0  0  0  0  0  0  0  0  0
  -50.9903  -29.0666    8.5053 N   0  0  0  0  0  0  0  0  0  0  0  0
  -46.8605  -29.8522    1.1383 O   0  0  0  0  0  0  0  0  0  0  0  0
  -51.4863  -28.9860    6.2489 O   0  0  0  0  0  0  0  0  0  0  0  0
  -45.0593  -29.5547    4.7036 O   0  0  0  0  0  0  0  0  0  0  0  0
  -41.9654  -29.1629    3.1580 O   0  0  0  0  0  0  0  0  0  0  0  0
  -48.9871  -29.1582    2.4291 H   0  0  0  0  0  0  0  0  0  0  0  0
  -50.2733  -29.0728    4.5252 H   0  0  0  0  0  0  0  0  0  0  0  0
  -46.6263  -29.4439    6.7876 H   0  0  0  0  0  0  0  0  0  0  0  0
  -42.6463  -27.3259    0.3626 H   0  0  0  0  0  0  0  0  0  0  0  0
  -43.2082  -27.0992    2.0382 H   0  0  0  0  0  0  0  0  0  0  0  0
  -43.4433  -30.8403    1.7370 H   0  0  0  0  0  0  0  0  0  0  0  0
  -42.8406  -30.4208    0.1136 H   0  0  0  0  0  0  0  0  0  0  0  0
  -44.6889  -28.7414    0.1104 H   0  0  0  0  0  0  0  0  0  0  0  0
  -41.1442  -29.0538    1.2378 H   0  0  0  0  0  0  0  0  0  0  0  0
  -51.9455  -29.9809   10.8617 H   0  0  0  0  0  0  0  0  0  0  0  0
  -51.7407  -28.2310   10.9532 H   0  0  0  0  0  0  0  0  0  0  0  0
  -53.3699  -28.9287   10.9188 H   0  0  0  0  0  0  0  0  0  0  0  0
  -52.9438  -27.5214    7.4404 H   0  0  0  0  0  0  0  0  0  0  0  0
  -52.3364  -26.7648    8.9152 H   0  0  0  0  0  0  0  0  0  0  0  0
  -53.9621  -27.4697    8.8914 H   0  0  0  0  0  0  0  0  0  0  0  0
  -53.2115  -30.0533    7.3108 H   0  0  0  0  0  0  0  0  0  0  0  0
  -52.7918  -31.0661    8.6931 H   0  0  0  0  0  0  0  0  0  0  0  0
  -54.2336  -30.0388    8.7584 H   0  0  0  0  0  0  0  0  0  0  0  0
  -48.7327  -29.2666    7.8587 H   0  0  0  0  0  0  0  0  0  0  0  0
  -44.6691  -28.4726    3.0363 H   0  0  0  0  0  0  0  0  0  0  0  0
  -50.2580  -29.1797    9.1954 H   0  0  0  0  0  0  0  0  0  0  0  0
  -44.7889  -29.5942    5.6385 H   0  0  0  0  0  0  0  0  0  0  0  0
  -41.3972  -29.9335    3.2887 H   0  0  0  0  0  0  0  0  0  0  0  0
  1  2  2  0  0  0  0
  1  4  1  0  0  0  0
  2  5  1  0  0  0  0
  3  5  2  0  0  0  0
  3  6  1  0  0  0  0
  4  6  2  0  0  0  0
  4  7  1  0  0  0  0
  5 17  1  0  0  0  0
  6 22  1  0  0  0  0
  7 18  1  0  0  0  0
  7 20  2  0  0  0  0
  8 17  1  0  0  0  0
  8 19  1  0  0  0  0
  8 21  2  0  0  0  0
  9 11  1  0  0  0  0
  9 12  1  0  0  0  0
 10 11  1  0  0  0  0
 10 12  1  0  0  0  0
 11 18  1  0  0  0  0
 12 23  1  0  0  0  0
 13 16  1  0  0  0  0
 14 16  1  0  0  0  0
 15 16  1  0  0  0  0
 16 19  1  0  0  0  0
  1 24  1  0  0  0  0
  2 25  1  0  0  0  0
  3 26  1  0  0  0  0
  9 27  1  0  0  0  0
  9 28  1  0  0  0  0
 10 29  1  0  0  0  0
 10 30  1  0  0  0  0
 11 31  1  0  0  0  0
 12 32  1  0  0  0  0
 13 33  1  0  0  0  0
 13 34  1  0  0  0  0
 13 35  1  0  0  0  0
 14 36  1  0  0  0  0
 14 37  1  0  0  0  0
 14 38  1  0  0  0  0
 15 39  1  0  0  0  0
 15 40  1  0  0  0  0
 15 41  1  0  0  0  0
 17 42  1  0  0  0  0
 18 43  1  0  0  0  0
 19 44  1  0  0  0  0
 22 45  1  0  0  0  0
 23 46  1  0  0  0  0
M  END
> <POSIT::Probability>
0.24

> <POSIT::Method>
FRED

> <ReceptorTitle>
UCSF-P4578-REFINED_LIGAND-BOUND-STATE_A__DU__LA1_A-201(A)

> <OMEGA_C>
tdlBwpbF6cFcQ1hAR8REwgZj6cF6J5JAvZM8wjYN68HfqbpACEw8wrTL6sHSwlpAeSFCwhcH6sFX
arlAOak5wsRv68FGpJRAt1M5wl4s68HwowpATqBKwkSd6MG9z+RADgwswi/Y3sGg7qA/PJYswhn+
78GW24o/M6cwwoDE5sG8pIA/RYUowt5C6MG80d0/vWxRwj416MFlPyhB/LxTwj/P3MGujghBaspU
woi28MEEfwZBT2tRwoqT58HEww9BWhdFwgWg6cHA999A+Bw0whUf58F6zAtAEfZLwkyI6MGqFQhB
JnE7wj3R7sEytZE/A/JNwmjj58G99sdAuTw0whBw7MGWg5ZAmdwnwq9N6cHnG0pAyfJDwhNE6cEQ
dhtAzxdJwi+V6MFizpBASYE6whCN68ECNNlA2ZUqwnmb2sFAqLk+NdUswjLL2MHYcQJA+MUtwtW4
9sECVt4/01wrwtJd88GAqug9bsEywlbu5cGACOI9tpMkwj1u6MFacZ4/JchPwuzY78FmyS1BgfZO
whLZ4cFYQC9BxnpVwupt58F/sy5Bc8ZTwsAr3MFlF+5AblhRwlMe1sGKpA5BOdlXwgrC28E7Qw5B
oNhUwiVt8MEW8ulAwypTwlCH+MHjFgtBKu9YwmpP8ME7IgxBTu5CwuUh6sHMevtAKq0ywtDH48EI
U0JAKwhJwgBw6cGAIBNB1iczwuDA7MFNbrRAr5YlwrV378GdelJA

> <OMEGA_E>
JngRwQ==

> <OMEGA_NBR>
     30078

$$$$
CACHE3HI_1689_80
  -OEChem-03092622533D

 40 42  0     0  0  0  0  0  0999 V2000
  -54.8938  -28.8568    9.3609 C   0  0  0  0  0  0  0  0  0  0  0  0
  -53.8080  -28.5252   10.1713 C   0  0  0  0  0  0  0  0  0  0  0  0
  -54.6839  -29.2347    8.0348 C   0  0  0  0  0  0  0  0  0  0  0  0
  -52.5126  -28.5717    9.6559 C   0  0  0  0  0  0  0  0  0  0  0  0
  -53.3885  -29.2812    7.5194 C   0  0  0  0  0  0  0  0  0  0  0  0
  -47.5531  -30.0875    3.1855 C   0  0  0  0  0  0  0  0  0  0  0  0
  -48.7037  -29.9361    4.0125 C   0  0  0  0  0  0  0  0  0  0  0  0
  -52.3026  -28.9497    8.3297 C   0  0  0  0  0  0  0  0  0  0  0  0
  -46.3887  -29.7917    3.8595 C   0  0  0  0  0  0  0  0  0  0  0  0
  -48.3742  -29.5303    5.2875 C   0  0  0  0  0  0  0  0  0  0  0  0
  -44.9902  -29.8250    3.3612 C   0  0  0  0  0  0  0  0  0  0  0  0
  -50.5876  -29.3500    6.5080 C   0  0  0  0  0  0  0  0  0  0  0  0
  -42.7055  -29.0462    1.7403 C   0  0  0  0  0  0  0  0  0  0  0  0
  -42.5784  -31.0903    2.3431 C   0  0  0  0  0  0  0  0  0  0  0  0
  -43.5282  -30.3084    1.4138 C   0  0  0  0  0  0  0  0  0  0  0  0
  -41.5208  -29.9930    2.0617 C   0  0  0  0  0  0  0  0  0  0  0  0
  -50.9887  -28.9969    7.8063 N   0  0  0  0  0  0  0  0  0  0  0  0
  -49.1618  -29.2718    6.3749 N   0  0  0  0  0  0  0  0  0  0  0  0
  -44.8376  -30.2043    2.0422 N   0  0  0  0  0  0  0  0  0  0  0  0
  -44.0732  -29.5423    4.1277 O   0  0  0  0  0  0  0  0  0  0  0  0
  -51.3411  -29.6823    5.5986 O   0  0  0  0  0  0  0  0  0  0  0  0
  -40.6938  -29.6176    3.1766 O   0  0  0  0  0  0  0  0  0  0  0  0
  -46.6844  -29.3338    5.4830 S   0  0  0  0  0  0  0  0  0  0  0  0
  -55.9024  -28.8192    9.7619 H   0  0  0  0  0  0  0  0  0  0  0  0
  -53.9712  -28.2295   11.2036 H   0  0  0  0  0  0  0  0  0  0  0  0
  -55.5290  -29.4924    7.4032 H   0  0  0  0  0  0  0  0  0  0  0  0
  -51.6746  -28.3099   10.2972 H   0  0  0  0  0  0  0  0  0  0  0  0
  -53.2375  -29.5770    6.4840 H   0  0  0  0  0  0  0  0  0  0  0  0
  -47.5840  -30.3980    2.1487 H   0  0  0  0  0  0  0  0  0  0  0  0
  -49.7196  -30.1168    3.6846 H   0  0  0  0  0  0  0  0  0  0  0  0
  -42.5443  -28.3647    0.9004 H   0  0  0  0  0  0  0  0  0  0  0  0
  -43.0601  -28.4692    2.6026 H   0  0  0  0  0  0  0  0  0  0  0  0
  -42.8935  -31.1456    3.3919 H   0  0  0  0  0  0  0  0  0  0  0  0
  -42.3123  -32.0940    2.0001 H   0  0  0  0  0  0  0  0  0  0  0  0
  -43.5554  -30.6039    0.4168 H   0  0  0  0  0  0  0  0  0  0  0  0
  -40.9035  -30.2132    1.1807 H   0  0  0  0  0  0  0  0  0  0  0  0
  -50.2488  -28.7420    8.4557 H   0  0  0  0  0  0  0  0  0  0  0  0
  -48.6960  -28.9727    7.2534 H   0  0  0  0  0  0  0  0  0  0  0  0
  -45.6313  -30.4850    1.4836 H   0  0  0  0  0  0  0  0  0  0  0  0
  -40.0131  -30.3003    3.2421 H   0  0  0  0  0  0  0  0  0  0  0  0
  1  2  1  0  0  0  0
  1  3  2  0  0  0  0
  2  4  2  0  0  0  0
  3  5  1  0  0  0  0
  4  8  1  0  0  0  0
  5  8  2  0  0  0  0
  6  7  1  0  0  0  0
  6  9  2  0  0  0  0
  7 10  2  0  0  0  0
  8 17  1  0  0  0  0
  9 11  1  0  0  0  0
  9 23  1  0  0  0  0
 10 18  1  0  0  0  0
 10 23  1  0  0  0  0
 11 19  1  0  0  0  0
 11 20  2  0  0  0  0
 12 17  1  0  0  0  0
 12 18  1  0  0  0  0
 12 21  2  0  0  0  0
 13 15  1  0  0  0  0
 13 16  1  0  0  0  0
 14 15  1  0  0  0  0
 14 16  1  0  0  0  0
 15 19  1  0  0  0  0
 16 22  1  0  0  0  0
  1 24  1  0  0  0  0
  2 25  1  0  0  0  0
  3 26  1  0  0  0  0
  4 27  1  0  0  0  0
  5 28  1  0  0  0  0
  6 29  1  0  0  0  0
  7 30  1  0  0  0  0
 13 31  1  0  0  0  0
 13 32  1  0  0  0  0
 14 33  1  0  0  0  0
 14 34  1  0  0  0  0
 15 35  1  0  0  0  0
 16 36  1  0  0  0  0
 17 37  1  0  0  0  0
 18 38  1  0  0  0  0
 19 39  1  0  0  0  0
 22 40  1  0  0  0  0
M  END
> <POSIT::Probability>
0.24

> <POSIT::Method>
FRED

> <ReceptorTitle>
UCSF-P4578-REFINED_LIGAND-BOUND-STATE_A__DU__LA1_A-201(A)

> <OMEGA_C>
SZNbwqja5sE9xhVBYztXwooz5MGJvSJBTrxawqPg6cGIjgBB2wxSwuKS5MFifhpBx41Vwvw/6sHC
nvBAaTY+wiWz8ME630tAldBCwit978EIZoBA5jVRwueY58F0RgVBDY45wnJV7sFgAXdAOH9BwhI+
7MHyMqlA9PUzwoyZ7sGkHVdAsVlKwrvM6sFpQdBAbtIqwoxe6MHYwd4/T1Aqwvm4+MF49RVA2Rwu
wqF38sFI97Q/SBUmwp3x78Gs8gNAdfRLwpb558GdzflAqqVEwr8s6sE6/8tAtlkzwlKi8cHkswJA
8UowwqJW7MENFoRATV1NwkF17cFmJ7NAdsYiwtzw7MG8TUtA1rw6wpWr6sHedK9AF5xfwsiN5sHX
MBxBgOJXwvLV4cHnQTNBuh1ewl3w68Fs5+xAwbJOwp164sFPwSRBKfNUwqed7MHbfM9ABlY+wiUv
88HqgwlA6OBGwjvv8MHU0GtAVy0qwuXq4sHgfmY/iT0swtvA48GckSZA9pIrwjQq+cGOFVlAxD8p
wjpgAMIIAQBAsjguwtjU9MGgatU+K50jwqC08cFAIZc/xf5IwrLv5cFqSgdBrMhCwv7H58HVG+hA
cIY2wkvh88EY5b0/ZA0gwv5m8sEGf09A

> <OMEGA_E>
dAMVwQ==

> <OMEGA_NBR>
     31367

$$$$
CACHE3HI_1689_91
  -OEChem-03092622533D

 41 42  0     1  0  0  0  0  0999 V2000
  -48.2636  -29.9477    3.0046 C   0  0  0  0  0  0  0  0  0  0  0  0
  -46.4126  -29.1407    4.3312 C   0  0  0  0  0  0  0  0  0  0  0  0
  -49.0442  -30.0485    4.1562 C   0  0  0  0  0  0  0  0  0  0  0  0
  -47.1931  -29.2414    5.4828 C   0  0  0  0  0  0  0  0  0  0  0  0
  -46.9478  -29.4936    3.0922 C   0  0  0  0  0  0  0  0  0  0  0  0
  -48.5091  -29.6955    5.3952 C   0  0  0  0  0  0  0  0  0  0  0  0
  -46.1161  -29.3856    1.8659 C   0  0  0  0  0  0  0  0  0  0  0  0
  -50.6269  -30.2290    6.6645 C   0  0  0  0  0  0  0  0  0  0  0  0
  -52.9755  -30.0298    9.6922 C   0  0  0  0  0  0  0  0  0  0  0  0
  -53.5264  -29.6036    8.3645 C   0  0  0  0  0  0  0  0  0  0  0  0
  -52.3758  -30.5702    8.4231 C   0  0  0  0  0  0  0  0  0  0  0  0
  -43.1464  -30.6731    0.8251 C   0  0  0  0  0  0  0  0  0  0  0  0
  -43.0146  -28.2844    1.0740 C   0  0  0  0  0  0  0  0  0  0  0  0
  -43.7543  -27.0155    0.6916 C   0  0  0  0  0  0  0  0  0  0  0  0
  -49.2901  -29.7967    6.5467 N   0  0  0  0  0  0  0  0  0  0  0  0
  -44.7500  -29.5032    2.0582 N   0  0  0  0  0  0  0  0  0  0  0  0
  -51.0494  -30.1845    7.9971 N   0  0  0  0  0  0  0  0  0  0  0  0
  -43.9096  -29.4328    0.9489 N   0  0  2  0  0  0  0  0  0  0  0  0
  -46.6664  -29.2210    0.7800 O   0  0  0  0  0  0  0  0  0  0  0  0
  -51.3486  -30.6005    5.7422 O   0  0  0  0  0  0  0  0  0  0  0  0
  -42.8822  -25.9005    0.8255 O   0  0  0  0  0  0  0  0  0  0  0  0
  -48.6919  -30.2253    2.0450 H   0  0  0  0  0  0  0  0  0  0  0  0
  -45.3883  -28.7859    4.4115 H   0  0  0  0  0  0  0  0  0  0  0  0
  -50.0687  -30.4031    4.0763 H   0  0  0  0  0  0  0  0  0  0  0  0
  -46.7652  -28.9641    6.4428 H   0  0  0  0  0  0  0  0  0  0  0  0
  -52.4113  -29.3003   10.2604 H   0  0  0  0  0  0  0  0  0  0  0  0
  -53.5727  -30.7041   10.2938 H   0  0  0  0  0  0  0  0  0  0  0  0
  -54.4946  -29.9905    8.0717 H   0  0  0  0  0  0  0  0  0  0  0  0
  -53.3319  -28.5884    8.0413 H   0  0  0  0  0  0  0  0  0  0  0  0
  -52.5967  -31.6043    8.1820 H   0  0  0  0  0  0  0  0  0  0  0  0
  -43.8188  -31.5307    0.7317 H   0  0  0  0  0  0  0  0  0  0  0  0
  -42.5027  -30.6340   -0.0581 H   0  0  0  0  0  0  0  0  0  0  0  0
  -42.5143  -30.8169    1.7057 H   0  0  0  0  0  0  0  0  0  0  0  0
  -42.6682  -28.2300    2.1105 H   0  0  0  0  0  0  0  0  0  0  0  0
  -42.1548  -28.4497    0.4175 H   0  0  0  0  0  0  0  0  0  0  0  0
  -44.1186  -27.0556   -0.3401 H   0  0  0  0  0  0  0  0  0  0  0  0
  -44.6045  -26.8615    1.3631 H   0  0  0  0  0  0  0  0  0  0  0  0
  -48.8319  -29.5204    7.4222 H   0  0  0  0  0  0  0  0  0  0  0  0
  -44.3679  -29.6381    2.9896 H   0  0  0  0  0  0  0  0  0  0  0  0
  -50.3855  -29.8984    8.7100 H   0  0  0  0  0  0  0  0  0  0  0  0
  -43.3926  -25.1147    0.5726 H   0  0  0  0  0  0  0  0  0  0  0  0
  1  3  2  0  0  0  0
  1  5  1  0  0  0  0
  2  4  1  0  0  0  0
  2  5  2  0  0  0  0
  3  6  1  0  0  0  0
  4  6  2  0  0  0  0
  5  7  1  0  0  0  0
  6 15  1  0  0  0  0
  7 16  1  0  0  0  0
  7 19  2  0  0  0  0
  8 15  1  0  0  0  0
  8 17  1  0  0  0  0
  8 20  2  0  0  0  0
  9 10  1  0  0  0  0
  9 11  1  0  0  0  0
 10 11  1  0  0  0  0
 11 17  1  0  0  0  0
 12 18  1  0  0  0  0
 13 14  1  0  0  0  0
 13 18  1  0  0  0  0
 14 21  1  0  0  0  0
 16 18  1  0  0  0  0
  1 22  1  0  0  0  0
  2 23  1  0  0  0  0
  3 24  1  0  0  0  0
  4 25  1  0  0  0  0
  9 26  1  0  0  0  0
  9 27  1  0  0  0  0
 10 28  1  0  0  0  0
 10 29  1  0  0  0  0
 11 30  1  0  0  0  0
 12 31  1  0  0  0  0
 12 32  1  0  0  0  0
 12 33  1  0  0  0  0
 13 34  1  0  0  0  0
 13 35  1  0  0  0  0
 14 36  1  0  0  0  0
 14 37  1  0  0  0  0
 15 38  1  0  0  0  0
 16 39  1  0  0  0  0
 17 40  1  0  0  0  0
 21 41  1  0  0  0  0
M  END
> <POSIT::Probability>
0.24

> <POSIT::Method>
FRED

> <ReceptorTitle>
UCSF-P4578-REFINED_LIGAND-BOUND-STATE_A__DU__LA1_A-201(A)

> <OMEGA_C>
+g1BwuOU78ECS0BAf6Y5whYg6cHumIpATC1Ewjxj8MGe/4RAw8U8wmbu6cHccq9Agco7wury68Gy
5kVASQlCwmmQ7cE1paxA3HY4wrIV68FI1+4/94FKwgfV8cFZQ9VA8OZTwvo88MFUExtB/hpWwkbU
7MEY1QVB0IBRwsaP9MErxQZB7ZUswnBi9cEQOlM/8Q4swmZG4sF+eIk/cAQvwr8f2MFADDE/FylF
wp1f7sHQftFA+/8ywowG7MFWugNAlDJMwtJ58cHr5/9AdqMvwnR268FY63I/Y6o6wpvE6cHosEc/
8GRNwufN9MHAv7dAXYcrwjY0z8GsVlM/gsRCwmfN8cGA4QJAqI01wopJ5sHcKo1AXkZIwpU588He
cIJAkg87wnu258FqK85AMaVRwhVn6sGmKiRBZkpWwuWh9cE6syRBg/pZwors78HYJQFB2lNVwv60
5ME2qQBBEWNSwpvV/MGb6QJBekYvwug+/MGETjs/twIqwngS9cFACm69ow4qwg6J9sE2Vdo/Oqwq
wgvX4cFJEgdAfJ4owueY48HgxNU+enkwwvhx2MFIJq6+C2sywlzk1sESea4/5lNDwtEp7MF5gu1A
tXgxwtEa7cFmVT9AvYpJwuMv78EoXAtBC5ItwunqyME8lBI/

> <OMEGA_E>
++QVwQ==

> <OMEGA_NBR>
     32676

$$$$
CACHE3HI_1689_97
  -OEChem-03092622533D

 46 48  0     0  0  0  0  0  0999 V2000
  -54.0875  -31.3240    8.1933 C   0  0  0  0  0  0  0  0  0  0  0  0
  -54.8365  -30.5615    9.0895 C   0  0  0  0  0  0  0  0  0  0  0  0
  -53.1559  -30.7046    7.3603 C   0  0  0  0  0  0  0  0  0  0  0  0
  -46.7129  -29.7730    5.9845 C   0  0  0  0  0  0  0  0  0  0  0  0
  -44.4836  -29.3734    6.3034 C   0  0  0  0  0  0  0  0  0  0  0  0
  -54.6539  -29.1800    9.1531 C   0  0  0  0  0  0  0  0  0  0  0  0
  -53.7222  -28.5606    8.3201 C   0  0  0  0  0  0  0  0  0  0  0  0
  -52.9733  -29.3230    7.4238 C   0  0  0  0  0  0  0  0  0  0  0  0
  -46.5347  -29.6798    4.6215 C   0  0  0  0  0  0  0  0  0  0  0  0
  -44.3055  -29.2804    4.9402 C   0  0  0  0  0  0  0  0  0  0  0  0
  -47.6561  -29.8480    3.6898 C   0  0  0  0  0  0  0  0  0  0  0  0
  -51.0102  -28.8241    4.4385 C   0  0  0  0  0  0  0  0  0  0  0  0
  -50.0662  -30.0926    6.4030 C   0  0  0  0  0  0  0  0  0  0  0  0
  -50.1119  -29.6373    3.5118 C   0  0  0  0  0  0  0  0  0  0  0  0
  -49.1915  -30.8861    5.4391 C   0  0  0  0  0  0  0  0  0  0  0  0
  -51.3380  -29.5923    5.7177 C   0  0  0  0  0  0  0  0  0  0  0  0
  -55.4685  -28.3868   10.1216 C   0  0  0  0  0  0  0  0  0  0  0  0
  -53.5223  -27.0800    8.3837 C   0  0  0  0  0  0  0  0  0  0  0  0
  -45.6909  -29.6216    6.8500 N   0  0  0  0  0  0  0  0  0  0  0  0
  -45.3274  -29.4316    4.0749 N   0  0  0  0  0  0  0  0  0  0  0  0
  -48.9220  -30.1075    4.2222 N   0  0  0  0  0  0  0  0  0  0  0  0
  -43.0065  -29.0183    4.4507 N   0  0  0  0  0  0  0  0  0  0  0  0
  -47.3915  -29.7350    2.4938 O   0  0  0  0  0  0  0  0  0  0  0  0
  -52.0533  -28.7329    6.5975 O   0  0  0  0  0  0  0  0  0  0  0  0
  -54.2298  -32.3996    8.1439 H   0  0  0  0  0  0  0  0  0  0  0  0
  -55.5600  -31.0535    9.7344 H   0  0  0  0  0  0  0  0  0  0  0  0
  -52.5757  -31.3042    6.6642 H   0  0  0  0  0  0  0  0  0  0  0  0
  -47.6799  -29.9717    6.4318 H   0  0  0  0  0  0  0  0  0  0  0  0
  -43.6687  -29.2543    7.0082 H   0  0  0  0  0  0  0  0  0  0  0  0
  -50.5227  -27.8729    4.6898 H   0  0  0  0  0  0  0  0  0  0  0  0
  -51.9386  -28.5538    3.9211 H   0  0  0  0  0  0  0  0  0  0  0  0
  -50.3320  -30.7126    7.2675 H   0  0  0  0  0  0  0  0  0  0  0  0
  -49.5022  -29.2423    6.8083 H   0  0  0  0  0  0  0  0  0  0  0  0
  -50.6432  -30.5221    3.1418 H   0  0  0  0  0  0  0  0  0  0  0  0
  -49.8312  -29.0347    2.6420 H   0  0  0  0  0  0  0  0  0  0  0  0
  -48.2679  -31.1817    5.9427 H   0  0  0  0  0  0  0  0  0  0  0  0
  -49.7019  -31.8055    5.1285 H   0  0  0  0  0  0  0  0  0  0  0  0
  -51.9885  -30.4409    5.4753 H   0  0  0  0  0  0  0  0  0  0  0  0
  -54.9626  -28.3044   11.0916 H   0  0  0  0  0  0  0  0  0  0  0  0
  -56.4391  -28.8639   10.3068 H   0  0  0  0  0  0  0  0  0  0  0  0
  -55.6442  -27.3772    9.7324 H   0  0  0  0  0  0  0  0  0  0  0  0
  -52.7470  -26.8171    9.1131 H   0  0  0  0  0  0  0  0  0  0  0  0
  -54.4422  -26.5708    8.6952 H   0  0  0  0  0  0  0  0  0  0  0  0
  -53.2243  -26.6963    7.4017 H   0  0  0  0  0  0  0  0  0  0  0  0
  -42.2668  -28.8555    5.1016 H   0  0  0  0  0  0  0  0  0  0  0  0
  -42.8737  -28.8960    3.4685 H   0  0  0  0  0  0  0  0  0  0  0  0
  1  2  2  0  0  0  0
  1  3  1  0  0  0  0
  2  6  1  0  0  0  0
  3  8  2  0  0  0  0
  4  9  1  0  0  0  0
  4 19  2  0  0  0  0
  5 10  2  0  0  0  0
  5 19  1  0  0  0  0
  6  7  2  0  0  0  0
  6 17  1  0  0  0  0
  7  8  1  0  0  0  0
  7 18  1  0  0  0  0
  8 24  1  0  0  0  0
  9 11  1  0  0  0  0
  9 20  2  0  0  0  0
 10 20  1  0  0  0  0
 10 22  1  0  0  0  0
 11 21  1  0  0  0  0
 11 23  2  0  0  0  0
 12 14  1  0  0  0  0
 12 16  1  0  0  0  0
 13 15  1  0  0  0  0
 13 16  1  0  0  0  0
 14 21  1  0  0  0  0
 15 21  1  0  0  0  0
 16 24  1  0  0  0  0
  1 25  1  0  0  0  0
  2 26  1  0  0  0  0
  3 27  1  0  0  0  0
  4 28  1  0  0  0  0
  5 29  1  0  0  0  0
 12 30  1  0  0  0  0
 12 31  1  0  0  0  0
 13 32  1  0  0  0  0
 13 33  1  0  0  0  0
 14 34  1  0  0  0  0
 14 35  1  0  0  0  0
 15 36  1  0  0  0  0
 15 37  1  0  0  0  0
 16 38  1  0  0  0  0
 17 39  1  0  0  0  0
 17 40  1  0  0  0  0
 17 41  1  0  0  0  0
 18 42  1  0  0  0  0
 18 43  1  0  0  0  0
 18 44  1  0  0  0  0
 22 45  1  0  0  0  0
 22 46  1  0  0  0  0
M  END
> <POSIT::Probability>
0.18

> <POSIT::Method>
HYBRID

> <ReceptorTitle>
UCSF-P4578-REFINED_LIGAND-BOUND-STATE_A__DU__LA1_A-201(A)

> <OMEGA_C>
o1lYwpyX+sGWFwNBoFhbwgt+9MG8bhFBsZ9UwvCi9cGAh+tACNo6wgQv7sHqgL9ALe8xws786sE+
tclAkZ1awrJw6cEEcxJBkuNWwgR85MH/HgVBouRTwpaV6sERkO1AhyM6wlRw7cEO45NA0DgxwlU+
6sH7FZ5A4p8+wsnI7sE+JWxAfgpMwsKX5sExCI5AwENIwpe98MEH5cxAoHJIwhsZ7cG4wGBAH8RE
wrAW98EjDa5AEFpNwhW97MGJ97ZAxN9dwikY48Ec8iFByRZWwtej2MGjIwZBgcM2wvH47MHQMttA
Q081wvpz68FaZYJAJrBDwh/c8MH1G4dApAYswmol6MFTbI5A5pA9wlTh7cHcmh9AkjZQwurc5cEc
H9NARetYwjSZAcJ4TQJBdz1ewppt+MH1vxtBe01Swupu+sH6QNVALbg+wvnF78GY0c1AuKwuwsgI
6sFaQ+BASBdKws373sEtE5ZAJcFPwjhu5MHO8npA61NJwmGz9cGKj+hANQJGwkjw6cFc3dlAqZJK
wi4t9MF4EklAKlNHwhxH6MHQFSlAWxJBwjB0+cG4Kr5AwM5GwrBx/sFmHKRAQvRPwuqG88EENq9A
qdlbwlxv4sEPdzFBpMFhwlDp5sHI6CRBrJNewmwE28EWuBtB6vxSwmCJ1sFkzxFB0sRZwg2R1MGW
HwtBueVUwhCS1cFg2uxAMxEpwgrY5sGYQKNAqn4rwvcq58Ei/F1A

> <OMEGA_E>
1oitwA==

> <OMEGA_NBR>
     34089

$$$$
CACHE3HI_1690_84
  -OEChem-03092622533D

 47 50  0     0  0  0  0  0  0999 V2000
  -53.7054  -28.8276    9.3017 C   0  0  0  0  0  0  0  0  0  0  0  0
  -52.8837  -28.8041    8.1788 C   0  0  0  0  0  0  0  0  0  0  0  0
  -49.0504  -30.1773    3.1615 C   0  0  0  0  0  0  0  0  0  0  0  0
  -48.7214  -28.5564    4.9227 C   0  0  0  0  0  0  0  0  0  0  0  0
  -47.6778  -30.4245    3.1335 C   0  0  0  0  0  0  0  0  0  0  0  0
  -47.3489  -28.8035    4.8948 C   0  0  0  0  0  0  0  0  0  0  0  0
  -55.0204  -28.4204    9.1621 C   0  0  0  0  0  0  0  0  0  0  0  0
  -53.4243  -28.3680    6.9514 C   0  0  0  0  0  0  0  0  0  0  0  0
  -49.5721  -29.2432    4.0564 C   0  0  0  0  0  0  0  0  0  0  0  0
  -46.8272  -29.7376    3.9999 C   0  0  0  0  0  0  0  0  0  0  0  0
  -52.8605  -28.2282    5.6428 C   0  0  0  0  0  0  0  0  0  0  0  0
  -53.7702  -27.7575    4.7212 C   0  0  0  0  0  0  0  0  0  0  0  0
  -54.7621  -27.9873    6.9557 C   0  0  0  0  0  0  0  0  0  0  0  0
  -51.0348  -28.9798    4.0870 C   0  0  0  0  0  0  0  0  0  0  0  0
  -53.5957  -27.4882    3.3289 C   0  0  0  0  0  0  0  0  0  0  0  0
  -44.5253  -29.8965    5.0280 C   0  0  0  0  0  0  0  0  0  0  0  0
  -42.6804  -29.5656    2.1686 C   0  0  0  0  0  0  0  0  0  0  0  0
  -41.5561  -30.4291    2.6566 C   0  0  0  0  0  0  0  0  0  0  0  0
  -42.9367  -30.6034    3.2268 C   0  0  0  0  0  0  0  0  0  0  0  0
  -54.3548  -28.0594    1.1187 C   0  0  0  0  0  0  0  0  0  0  0  0
  -55.5954  -27.9934    8.0166 N   0  0  0  0  0  0  0  0  0  0  0  0
  -51.5500  -28.5277    5.3179 N   0  0  0  0  0  0  0  0  0  0  0  0
  -45.4544  -29.9850    3.9713 N   0  0  0  0  0  0  0  0  0  0  0  0
  -43.2388  -30.2263    4.5892 N   0  0  0  0  0  0  0  0  0  0  0  0
  -51.6755  -29.1919    3.0630 O   0  0  0  0  0  0  0  0  0  0  0  0
  -52.7822  -26.6676    2.8450 O   0  0  0  0  0  0  0  0  0  0  0  0
  -44.7792  -29.5766    6.1867 O   0  0  0  0  0  0  0  0  0  0  0  0
  -54.4350  -28.2403    2.5364 O   0  0  0  0  0  0  0  0  0  0  0  0
  -55.3062  -27.4801    5.4207 S   0  0  0  0  0  0  0  0  0  0  0  0
  -53.3228  -29.1562   10.2618 H   0  0  0  0  0  0  0  0  0  0  0  0
  -51.8463  -29.1164    8.2558 H   0  0  0  0  0  0  0  0  0  0  0  0
  -49.7029  -30.7190    2.4819 H   0  0  0  0  0  0  0  0  0  0  0  0
  -49.1168  -27.8261    5.6240 H   0  0  0  0  0  0  0  0  0  0  0  0
  -47.2820  -31.1549    2.4324 H   0  0  0  0  0  0  0  0  0  0  0  0
  -46.6958  -28.2618    5.5742 H   0  0  0  0  0  0  0  0  0  0  0  0
  -55.6843  -28.4282   10.0222 H   0  0  0  0  0  0  0  0  0  0  0  0
  -42.6758  -28.5221    2.4590 H   0  0  0  0  0  0  0  0  0  0  0  0
  -43.0671  -29.7540    1.1746 H   0  0  0  0  0  0  0  0  0  0  0  0
  -41.1852  -31.1990    1.9913 H   0  0  0  0  0  0  0  0  0  0  0  0
  -40.7969  -29.9655    3.2745 H   0  0  0  0  0  0  0  0  0  0  0  0
  -43.4819  -31.4888    2.9184 H   0  0  0  0  0  0  0  0  0  0  0  0
  -55.0742  -28.7177    0.6248 H   0  0  0  0  0  0  0  0  0  0  0  0
  -54.5911  -27.0199    0.8788 H   0  0  0  0  0  0  0  0  0  0  0  0
  -53.3423  -28.2881    0.7781 H   0  0  0  0  0  0  0  0  0  0  0  0
  -50.8601  -28.4040    6.0752 H   0  0  0  0  0  0  0  0  0  0  0  0
  -45.0711  -30.2683    3.0628 H   0  0  0  0  0  0  0  0  0  0  0  0
  -42.4688  -30.1687    5.2484 H   0  0  0  0  0  0  0  0  0  0  0  0
  1  2  2  0  0  0  0
  1  7  1  0  0  0  0
  2  8  1  0  0  0  0
  3  5  2  0  0  0  0
  3  9  1  0  0  0  0
  4  6  1  0  0  0  0
  4  9  2  0  0  0  0
  5 10  1  0  0  0  0
  6 10  2  0  0  0  0
  7 21  2  0  0  0  0
  8 11  1  0  0  0  0
  8 13  2  0  0  0  0
  9 14  1  0  0  0  0
 10 23  1  0  0  0  0
 11 12  2  0  0  0  0
 11 22  1  0  0  0  0
 12 15  1  0  0  0  0
 12 29  1  0  0  0  0
 13 21  1  0  0  0  0
 13 29  1  0  0  0  0
 14 22  1  0  0  0  0
 14 25  2  0  0  0  0
 15 26  2  0  0  0  0
 15 28  1  0  0  0  0
 16 23  1  0  0  0  0
 16 24  1  0  0  0  0
 16 27  2  0  0  0  0
 17 18  1  0  0  0  0
 17 19  1  0  0  0  0
 18 19  1  0  0  0  0
 19 24  1  0  0  0  0
 20 28  1  0  0  0  0
  1 30  1  0  0  0  0
  2 31  1  0  0  0  0
  3 32  1  0  0  0  0
  4 33  1  0  0  0  0
  5 34  1  0  0  0  0
  6 35  1  0  0  0  0
  7 36  1  0  0  0  0
 17 37  1  0  0  0  0
 17 38  1  0  0  0  0
 18 39  1  0  0  0  0
 18 40  1  0  0  0  0
 19 41  1  0  0  0  0
 20 42  1  0  0  0  0
 20 43  1  0  0  0  0
 20 44  1  0  0  0  0
 22 45  1  0  0  0  0
 23 46  1  0  0  0  0
 24 47  1  0  0  0  0
M  END
> <POSIT::Probability>
0.05

> <POSIT::Method>
FRED

> <ReceptorTitle>
UCSF-P4578-REFINED_LIGAND-BOUND-STATE_A__DU__LA1_A-201(A)

> <OMEGA_C>
XdJWwvCe5sHu0xRB64hTwrxu5sGQ3AJBkDNEwiFr8cFIVkpAwOJCwnFz5MEah51AF7Y+wktl88GI
i0hAU2U9wo1t5sH0oZxA2hRcwvJc48HxlxJBdLJVwrzx4sH6cd5A0ElGwiny6cHDzYFAB087wpTm
7cE0/n9AJ3FTwmnT4cGZkbRAuBRXwkwP3sETFJdAbQxbwvfl38HclN5AqiNMwp7W58HyyIJACGJW
wszn28EXDVVA4Bkywvor78GD5aBAr7gqwlSG7MEQywpAcDkmwuRu88FEBSpAKb8rwrjT9MFEg05A
TGtZwpV54MEEMI8/vGFewnby38EYRABBLjNOwsE45MHzK6pAW9E1wjrh78FWKn5AlfQswofP8cGH
2pJAs7NOwhGJ6cGHB0RA+iBTwlhX1cEcFTZA8h0zwtSc7MG6+cVAbL1Zwirs4cGTUyJAhTldwk3X
28Fedq1AmEpVwuE/6cFGMCRBnGJPwknu6MG1FwRB0s9GwoDA9cH+1h5AmXdEwsOb3sGs97NAziA9
wjU9+cFMrBtAdcg6wi0Y4sGnX7JAvbxewuVs48HHWiBBALQqwjIt5MHBXx1ArUQswjEI7sHEWpY/
mb0kwp+X+cG44f4/EjAjwnC578FNkVFAd+0twgjp+8HyxjpAAExcwtC95cFo8x8/PV1awq8o2ME4
+mA/hF5VwvJN4sHYL0c/t3BLwmA748GoZ8JAyUg0wnMl8sHlBERADOApwopZ8cH88qdA

> <OMEGA_E>
CAEewQ==

> <OMEGA_NBR>
     35521

$$$$
CACHE3HI_1691_10
  -OEChem-03092622533D

 45 47  0     1  0  0  0  0  0999 V2000
  -54.2634  -28.0729   12.7318 C   0  0  0  0  0  0  0  0  0  0  0  0
  -54.9197  -26.8493   12.8651 C   0  0  0  0  0  0  0  0  0  0  0  0
  -46.4584  -29.4225    4.4549 C   0  0  0  0  0  0  0  0  0  0  0  0
  -53.6449  -27.4933   10.4692 C   0  0  0  0  0  0  0  0  0  0  0  0
  -45.1118  -29.3923    4.7574 C   0  0  0  0  0  0  0  0  0  0  0  0
  -46.8444  -29.6284    6.7824 C   0  0  0  0  0  0  0  0  0  0  0  0
  -47.3542  -29.5449    5.5023 C   0  0  0  0  0  0  0  0  0  0  0  0
  -53.6261  -28.3949   11.5336 C   0  0  0  0  0  0  0  0  0  0  0  0
  -54.9385  -25.9478   11.8008 C   0  0  0  0  0  0  0  0  0  0  0  0
  -54.3012  -26.2698   10.6026 C   0  0  0  0  0  0  0  0  0  0  0  0
  -48.8183  -29.5848    5.2571 C   0  0  0  0  0  0  0  0  0  0  0  0
  -52.9123  -30.2433    9.9675 C   0  0  0  0  0  0  0  0  0  0  0  0
  -51.8990  -28.4950    7.2965 C   0  0  0  0  0  0  0  0  0  0  0  0
  -51.9221  -29.9863    7.1138 C   0  0  1  0  0  0  0  0  0  0  0  0
  -51.0601  -29.1309    6.2183 C   0  0  2  0  0  0  0  0  0  0  0  0
  -55.6451  -24.6427   11.9625 C   0  0  0  0  0  0  0  0  0  0  0  0
  -52.9167  -29.7159   11.3894 C   0  0  0  0  0  0  0  0  0  0  0  0
  -51.3308  -30.8750    8.1543 C   0  0  0  0  0  0  0  0  0  0  0  0
  -44.6409  -29.4762    6.0199 N   0  0  0  0  0  0  0  0  0  0  0  0
  -45.5213  -29.5961    7.0491 N   0  0  0  0  0  0  0  0  0  0  0  0
  -49.6430  -29.1330    6.2942 N   0  0  0  0  0  0  0  0  0  0  0  0
  -51.6242  -30.3876    9.5066 N   0  0  0  0  0  0  0  0  0  0  0  0
  -49.2359  -30.0205    4.1875 O   0  0  0  0  0  0  0  0  0  0  0  0
  -53.9349  -30.4929    9.3345 O   0  0  0  0  0  0  0  0  0  0  0  0
  -54.3099  -25.4007    9.5535 O   0  0  0  0  0  0  0  0  0  0  0  0
  -54.2538  -28.7689   13.5663 H   0  0  0  0  0  0  0  0  0  0  0  0
  -55.4142  -26.6072   13.8021 H   0  0  0  0  0  0  0  0  0  0  0  0
  -46.7932  -29.3521    3.4255 H   0  0  0  0  0  0  0  0  0  0  0  0
  -53.1489  -27.7423    9.5341 H   0  0  0  0  0  0  0  0  0  0  0  0
  -44.3601  -29.2984    3.9824 H   0  0  0  0  0  0  0  0  0  0  0  0
  -47.4866  -29.7256    7.6510 H   0  0  0  0  0  0  0  0  0  0  0  0
  -52.7749  -27.9364    6.9887 H   0  0  0  0  0  0  0  0  0  0  0  0
  -51.3965  -28.0878    8.1657 H   0  0  0  0  0  0  0  0  0  0  0  0
  -52.8102  -30.4245    6.6729 H   0  0  0  0  0  0  0  0  0  0  0  0
  -51.4071  -29.0013    5.1982 H   0  0  0  0  0  0  0  0  0  0  0  0
  -54.9691  -23.8701   12.3503 H   0  0  0  0  0  0  0  0  0  0  0  0
  -56.4758  -24.7267   12.6748 H   0  0  0  0  0  0  0  0  0  0  0  0
  -56.0447  -24.3046   10.9991 H   0  0  0  0  0  0  0  0  0  0  0  0
  -51.8777  -29.6190   11.7282 H   0  0  0  0  0  0  0  0  0  0  0  0
  -53.3905  -30.4589   12.0433 H   0  0  0  0  0  0  0  0  0  0  0  0
  -51.7243  -31.9037    8.0685 H   0  0  0  0  0  0  0  0  0  0  0  0
  -50.2343  -30.9493    8.0412 H   0  0  0  0  0  0  0  0  0  0  0  0
  -49.2013  -28.8459    7.1754 H   0  0  0  0  0  0  0  0  0  0  0  0
  -50.8344  -30.1293   10.0735 H   0  0  0  0  0  0  0  0  0  0  0  0
  -53.8177  -25.7985    8.8128 H   0  0  0  0  0  0  0  0  0  0  0  0
  1  2  2  0  0  0  0
  1  8  1  0  0  0  0
  2  9  1  0  0  0  0
  3  5  2  0  0  0  0
  3  7  1  0  0  0  0
  4  8  2  0  0  0  0
  4 10  1  0  0  0  0
  5 19  1  0  0  0  0
  6  7  2  0  0  0  0
  6 20  1  0  0  0  0
  7 11  1  0  0  0  0
  8 17  1  0  0  0  0
  9 10  2  0  0  0  0
  9 16  1  0  0  0  0
 10 25  1  0  0  0  0
 11 21  1  0  0  0  0
 11 23  2  0  0  0  0
 12 17  1  0  0  0  0
 12 22  1  0  0  0  0
 12 24  2  0  0  0  0
 13 14  1  0  0  0  0
 13 15  1  0  0  0  0
 14 15  1  0  0  0  0
 14 18  1  0  0  0  0
 15 21  1  0  0  0  0
 18 22  1  0  0  0  0
 19 20  2  0  0  0  0
  1 26  1  0  0  0  0
  2 27  1  0  0  0  0
  3 28  1  0  0  0  0
  4 29  1  0  0  0  0
  5 30  1  0  0  0  0
  6 31  1  0  0  0  0
 13 32  1  0  0  0  0
 13 33  1  0  0  0  0
 14 34  1  0  0  0  0
 15 35  1  0  0  0  0
 16 36  1  0  0  0  0
 16 37  1  0  0  0  0
 16 38  1  0  0  0  0
 17 39  1  0  0  0  0
 17 40  1  0  0  0  0
 18 41  1  0  0  0  0
 18 42  1  0  0  0  0
 21 43  1  0  0  0  0
 22 44  1  0  0  0  0
 25 45  1  0  0  0  0
M  END
> <POSIT::Probability>
0.18

> <POSIT::Method>
HYBRID

> <ReceptorTitle>
UCSF-P4578-REFINED_LIGAND-BOUND-STATE_A__DU__LA1_A-201(A)

> <OMEGA_C>
uA1ZwmGV4MFHtUtBxK1bwnLL1sGZ101BYNU5wldh68Fljo5AYJRWwlny28HtgSdBgXI0wocj68GZ
PJhAtWA7wgAH7cFWCdlAqmo9wgNc7MEVE7BAH4FWwrwo48GEiThBA8FbwhCVz8EB0DxBZDRZwn0o
0sEYpClB5kVDwqKt7MF5OqhAKqZTwlXy8cHSeh9Bi5hPws3148GVfOlAL7BPwt7j78EMpONAij1M
wgsM6cGc/MZAjpRewi8kxcFOZj9BrapTwiq67cEmOzZBxlJNwhMA98HPdwJBT5AywkLP68GjosBA
zRU2wubE7MFFkuFAcpJGwnoQ6cEJaslAKH9Owr8Z88H3GhhBmPFEwu0p8MFAAIZAVb1Xwlzx88FG
WhVBYj1Zwos0y8EC2xhB3QNZwrsm5sF+D1lBHahdwn7b1MFn1VxBPiw7whHR6sE0O1tAhJhUwjbw
3cGuixhBw3Axwgpj6sE2335ARPI9wvzN7cEU1fRAghlTwtF938Ero99ADJZNws6z4MHmpgJBqT1T
wmxl88GdiNVA2qBNwqYC6MG6V6ZAZ+Bbwu31vsHymkVBMOdhwmDQxcEMzEpBzC1gwrhvwsEc/C9B
xoJPwrjz7MHUpjtB149Vwsqr88FksUBBuuVOwtE6/8GMGAFB6u9IwiiY98GpqABBFc5Ewm/E5sF4
nOVAdFZLwtQI8cEoLSFBXkVXwk1jzsFQAQ1B

> <OMEGA_E>
XGjdwA==

> <OMEGA_NBR>
     36921

$$$$
CACHE3HI_1691_11
  -OEChem-03092622533D

 46 48  0     1  0  0  0  0  0999 V2000
  -46.9385  -31.5186    2.3378 C   0  0  0  0  0  0  0  0  0  0  0  0
  -46.0516  -30.5730    2.7918 C   0  0  0  0  0  0  0  0  0  0  0  0
  -45.1081  -31.9139    1.2850 C   0  0  0  0  0  0  0  0  0  0  0  0
  -42.6458  -30.5960    1.4388 C   0  0  0  0  0  0  0  0  0  0  0  0
  -43.6651  -30.1742    2.1956 C   0  0  0  0  0  0  0  0  0  0  0  0
  -42.9640  -31.7631    0.5735 C   0  0  0  0  0  0  0  0  0  0  0  0
  -52.0077  -29.2810    8.9288 C   0  0  0  0  0  0  0  0  0  0  0  0
  -52.0243  -30.4361    9.6064 C   0  0  0  0  0  0  0  0  0  0  0  0
  -46.2770  -29.4983    3.7915 C   0  0  0  0  0  0  0  0  0  0  0  0
  -51.5824  -29.1011    7.5479 C   0  0  0  0  0  0  0  0  0  0  0  0
  -52.4972  -28.1308    9.7440 C   0  0  0  0  0  0  0  0  0  0  0  0
  -52.5348  -30.2218   11.0020 C   0  0  0  0  0  0  0  0  0  0  0  0
  -52.4844  -28.7027   11.1596 C   0  0  0  0  0  0  0  0  0  0  0  0
  -51.6481  -31.8079    9.1672 C   0  0  0  0  0  0  0  0  0  0  0  0
  -47.9412  -27.9406    4.7710 C   0  0  0  0  0  0  0  0  0  0  0  0
  -49.6110  -29.3832    6.0398 C   0  0  0  0  0  0  0  0  0  0  0  0
  -48.4035  -28.4512    6.1352 C   0  0  1  0  0  0  0  0  0  0  0  0
  -46.3517  -32.3406    1.4105 N   0  0  0  0  0  0  0  0  0  0  0  0
  -44.1012  -32.3864    0.4899 N   0  0  0  0  0  0  0  0  0  0  0  0
  -44.8849  -30.8249    2.1212 N   0  0  0  0  0  0  0  0  0  0  0  0
  -47.5706  -28.9993    3.8683 N   0  0  0  0  0  0  0  0  0  0  0  0
  -50.2631  -29.4705    7.3269 N   0  0  0  0  0  0  0  0  0  0  0  0
  -45.3325  -29.1007    4.4684 O   0  0  0  0  0  0  0  0  0  0  0  0
  -52.3539  -28.6592    6.6906 O   0  0  0  0  0  0  0  0  0  0  0  0
  -47.3120  -29.1352    6.7487 O   0  0  0  0  0  0  0  0  0  0  0  0
  -47.9706  -31.6533    2.6286 H   0  0  0  0  0  0  0  0  0  0  0  0
  -41.6612  -30.1525    1.4296 H   0  0  0  0  0  0  0  0  0  0  0  0
  -43.5712  -29.3327    2.8715 H   0  0  0  0  0  0  0  0  0  0  0  0
  -42.1268  -32.1130   -0.0525 H   0  0  0  0  0  0  0  0  0  0  0  0
  -51.8464  -27.2543    9.6689 H   0  0  0  0  0  0  0  0  0  0  0  0
  -53.5108  -27.8496    9.4386 H   0  0  0  0  0  0  0  0  0  0  0  0
  -53.5589  -30.5991   11.0946 H   0  0  0  0  0  0  0  0  0  0  0  0
  -51.9060  -30.7100   11.7530 H   0  0  0  0  0  0  0  0  0  0  0  0
  -51.5539  -28.4147   11.6663 H   0  0  0  0  0  0  0  0  0  0  0  0
  -53.3129  -28.3230   11.7663 H   0  0  0  0  0  0  0  0  0  0  0  0
  -50.5894  -31.9863    9.3638 H   0  0  0  0  0  0  0  0  0  0  0  0
  -51.8357  -31.9243    8.0982 H   0  0  0  0  0  0  0  0  0  0  0  0
  -52.2403  -32.5491    9.7072 H   0  0  0  0  0  0  0  0  0  0  0  0
  -48.7443  -27.3823    4.2791 H   0  0  0  0  0  0  0  0  0  0  0  0
  -47.0717  -27.2841    4.8774 H   0  0  0  0  0  0  0  0  0  0  0  0
  -49.3053  -30.3937    5.7522 H   0  0  0  0  0  0  0  0  0  0  0  0
  -50.3469  -29.0142    5.3184 H   0  0  0  0  0  0  0  0  0  0  0  0
  -48.6383  -27.5845    6.7652 H   0  0  0  0  0  0  0  0  0  0  0  0
  -48.2843  -29.3387    3.2283 H   0  0  0  0  0  0  0  0  0  0  0  0
  -49.7087  -29.8135    8.1060 H   0  0  0  0  0  0  0  0  0  0  0  0
  -46.5961  -28.4876    6.8352 H   0  0  0  0  0  0  0  0  0  0  0  0
  1  2  2  0  0  0  0
  1 18  1  0  0  0  0
  2  9  1  0  0  0  0
  2 20  1  0  0  0  0
  3 18  2  0  0  0  0
  3 19  1  0  0  0  0
  3 20  1  0  0  0  0
  4  5  2  0  0  0  0
  4  6  1  0  0  0  0
  5 20  1  0  0  0  0
  6 19  2  0  0  0  0
  7  8  2  0  0  0  0
  7 10  1  0  0  0  0
  7 11  1  0  0  0  0
  8 12  1  0  0  0  0
  8 14  1  0  0  0  0
  9 21  1  0  0  0  0
  9 23  2  0  0  0  0
 10 22  1  0  0  0  0
 10 24  2  0  0  0  0
 11 13  1  0  0  0  0
 12 13  1  0  0  0  0
 15 17  1  0  0  0  0
 15 21  1  0  0  0  0
 16 17  1  0  0  0  0
 16 22  1  0  0  0  0
 17 25  1  0  0  0  0
  1 26  1  0  0  0  0
  4 27  1  0  0  0  0
  5 28  1  0  0  0  0
  6 29  1  0  0  0  0
 11 30  1  0  0  0  0
 11 31  1  0  0  0  0
 12 32  1  0  0  0  0
 12 33  1  0  0  0  0
 13 34  1  0  0  0  0
 13 35  1  0  0  0  0
 14 36  1  0  0  0  0
 14 37  1  0  0  0  0
 14 38  1  0  0  0  0
 15 39  1  0  0  0  0
 15 40  1  0  0  0  0
 16 41  1  0  0  0  0
 16 42  1  0  0  0  0
 17 43  1  0  0  0  0
 21 44  1  0  0  0  0
 22 45  1  0  0  0  0
 25 46  1  0  0  0  0
M  END
> <POSIT::Probability>
0.05

> <POSIT::Method>
FRED

> <ReceptorTitle>
UCSF-P4578-REFINED_LIGAND-BOUND-STATE_A__DU__LA1_A-201(A)

> <OMEGA_C>
B8E7whYm/MEsnxVA0TQ4woKV9MEKrDJAq240wrdP/8H0e6Q/RZUqwpDE9MEWLLg/A6kuwtlk8cEk
hAxALtsrwtQa/sFizhI/6AdQwn4/6sFo3A5B7hhQwhV988HJsxlBohs5wpf868F0qHJAWFROwiTP
6MGHiPFAK/1RwtAL4cF65xtBqCNSwlXG8cE0CDBBD/BRwhCf5cGujTJBrJdOwqB2/sG+rBJB1MM/
wlKG38FbrJhAt3FGwtEQ68HMRcFANp1Bwgmc48EuU8RAJGg5wshcAcLMibQ/nGcwwq6LAcLg1Po+
L4ozwlCZ9sHgwQdAR0g+wor+58HfkndAcA1JwoLD68E6dupAclQ1wi7O6MHE/I5AaGpRwgNG5cGP
GdZAhj89wtgU6cEF9ddA6OE/wuY5/cF7OyhADqUmwmA48cFc/bY/5Uguwnip6sGExjdA1IEowq5z
AMLA8Va9uGJPwtsI2sHJsxpBEwtWwgTM3sGZBBdBVTxWwv7K9MGSgzFBxJ9PwhOu9cFcDDxBKzdO
wjZR48EeqTpBaUBVwoCV4sGeQjxBj1tKwuTj/8Eg0hVBvFdPwgBl/8EakgFBCfZQwkAyAsKqUBtB
MPpCwvcO28FD7ohAaEk8wt9F2sFDE5xAnzhFwkAm88H3EbhAPGNJwgYd6MFFMKpAlI1Cwg2t3MHr
fNhAJyNBwpy16sGfnE5AuNVGwv6B7sFPsgFBc2I6wqTm48ERutpA

> <OMEGA_E>
+sESwQ==

> <OMEGA_NBR>
     38334

$$$$
CACHE3HI_1691_12
  -OEChem-03092622533D

 45 47  0     1  0  0  0  0  0999 V2000
  -51.5544  -30.1000    9.2247 C   0  0  0  0  0  0  0  0  0  0  0  0
  -51.7630  -29.4916    8.0110 C   0  0  0  0  0  0  0  0  0  0  0  0
  -53.2031  -28.7601    9.5438 C   0  0  0  0  0  0  0  0  0  0  0  0
  -54.4609  -27.0255    7.7458 C   0  0  0  0  0  0  0  0  0  0  0  0
  -53.4381  -27.7786    7.3259 C   0  0  0  0  0  0  0  0  0  0  0  0
  -54.8157  -27.2136    9.1780 C   0  0  0  0  0  0  0  0  0  0  0  0
  -51.0274  -29.6937    6.7369 C   0  0  0  0  0  0  0  0  0  0  0  0
  -46.8816  -30.0209    3.3619 C   0  0  0  0  0  0  0  0  0  0  0  0
  -42.7636  -28.4685    1.8685 C   0  0  0  0  0  0  0  0  0  0  0  0
  -45.1330  -29.4726    1.5750 C   0  0  0  0  0  0  0  0  0  0  0  0
  -44.3986  -29.4449    3.5845 C   0  0  0  0  0  0  0  0  0  0  0  0
  -45.4994  -30.2383    2.8587 C   0  0  0  0  0  0  0  0  0  0  0  0
  -42.9049  -27.5616    0.6755 C   0  0  0  0  0  0  0  0  0  0  0  0
  -49.0052  -28.0832    4.4064 C   0  0  0  0  0  0  0  0  0  0  0  0
  -48.8399  -30.2610    5.7128 C   0  0  0  0  0  0  0  0  0  0  0  0
  -48.1203  -28.9899    5.2561 C   0  0  1  0  0  0  0  0  0  0  0  0
  -52.4438  -29.6452   10.1640 N   0  0  0  0  0  0  0  0  0  0  0  0
  -54.2424  -28.0141   10.0260 N   0  0  0  0  0  0  0  0  0  0  0  0
  -52.8138  -28.6379    8.2139 N   0  0  0  0  0  0  0  0  0  0  0  0
  -43.9285  -29.0607    2.2680 N   0  0  0  0  0  0  0  0  0  0  0  0
  -49.6902  -30.0526    6.8539 N   0  0  0  0  0  0  0  0  0  0  0  0
  -46.9008  -29.3131    4.5514 N   0  0  0  0  0  0  0  0  0  0  0  0
  -51.6134  -29.5198    5.6716 O   0  0  0  0  0  0  0  0  0  0  0  0
  -47.8647  -30.4544    2.7661 O   0  0  0  0  0  0  0  0  0  0  0  0
  -41.6743  -28.6459    2.4134 O   0  0  0  0  0  0  0  0  0  0  0  0
  -50.8104  -30.8428    9.4749 H   0  0  0  0  0  0  0  0  0  0  0  0
  -55.0072  -26.3290    7.1274 H   0  0  0  0  0  0  0  0  0  0  0  0
  -53.0753  -27.7403    6.3057 H   0  0  0  0  0  0  0  0  0  0  0  0
  -55.6575  -26.5939    9.5281 H   0  0  0  0  0  0  0  0  0  0  0  0
  -44.9560  -30.1011    0.6989 H   0  0  0  0  0  0  0  0  0  0  0  0
  -45.7792  -28.6287    1.3160 H   0  0  0  0  0  0  0  0  0  0  0  0
  -44.7340  -28.5897    4.1781 H   0  0  0  0  0  0  0  0  0  0  0  0
  -43.6862  -30.0485    4.1524 H   0  0  0  0  0  0  0  0  0  0  0  0
  -45.2632  -31.2881    2.7875 H   0  0  0  0  0  0  0  0  0  0  0  0
  -43.1268  -26.5546    1.0163 H   0  0  0  0  0  0  0  0  0  0  0  0
  -43.7110  -27.9227    0.0438 H   0  0  0  0  0  0  0  0  0  0  0  0
  -41.9762  -27.5641    0.1125 H   0  0  0  0  0  0  0  0  0  0  0  0
  -49.3334  -28.6055    3.5015 H   0  0  0  0  0  0  0  0  0  0  0  0
  -48.4708  -27.1831    4.0837 H   0  0  0  0  0  0  0  0  0  0  0  0
  -49.8969  -27.7747    4.9611 H   0  0  0  0  0  0  0  0  0  0  0  0
  -49.4668  -30.6606    4.9084 H   0  0  0  0  0  0  0  0  0  0  0  0
  -48.1155  -31.0338    5.9931 H   0  0  0  0  0  0  0  0  0  0  0  0
  -47.8136  -28.4332    6.1489 H   0  0  0  0  0  0  0  0  0  0  0  0
  -49.2621  -30.1156    7.7751 H   0  0  0  0  0  0  0  0  0  0  0  0
  -46.0226  -29.0266    4.9733 H   0  0  0  0  0  0  0  0  0  0  0  0
  1  2  2  0  0  0  0
  1 17  1  0  0  0  0
  2  7  1  0  0  0  0
  2 19  1  0  0  0  0
  3 17  2  0  0  0  0
  3 18  1  0  0  0  0
  3 19  1  0  0  0  0
  4  5  2  0  0  0  0
  4  6  1  0  0  0  0
  5 19  1  0  0  0  0
  6 18  2  0  0  0  0
  7 21  1  0  0  0  0
  7 23  2  0  0  0  0
  8 12  1  0  0  0  0
  8 22  1  0  0  0  0
  8 24  2  0  0  0  0
  9 13  1  0  0  0  0
  9 20  1  0  0  0  0
  9 25  2  0  0  0  0
 10 12  1  0  0  0  0
 10 20  1  0  0  0  0
 11 12  1  0  0  0  0
 11 20  1  0  0  0  0
 14 16  1  0  0  0  0
 15 16  1  0  0  0  0
 15 21  1  0  0  0  0
 16 22  1  0  0  0  0
  1 26  1  0  0  0  0
  4 27  1  0  0  0  0
  5 28  1  0  0  0  0
  6 29  1  0  0  0  0
 10 30  1  0  0  0  0
 10 31  1  0  0  0  0
 11 32  1  0  0  0  0
 11 33  1  0  0  0  0
 12 34  1  0  0  0  0
 13 35  1  0  0  0  0
 13 36  1  0  0  0  0
 13 37  1  0  0  0  0
 14 38  1  0  0  0  0
 14 39  1  0  0  0  0
 14 40  1  0  0  0  0
 15 41  1  0  0  0  0
 15 42  1  0  0  0  0
 16 43  1  0  0  0  0
 21 44  1  0  0  0  0
 22 45  1  0  0  0  0
M  END
> <POSIT::Probability>
0.24

> <POSIT::Method>
FRED

> <ReceptorTitle>
UCSF-P4578-REFINED_LIGAND-BOUND-STATE_A__DU__LA1_A-201(A)

> <OMEGA_C>
rzdOwrfM8MF+mBNBSw1Pwsru68H4LABB8M9UwrwU5sFqsxhB8NdZwks02MHX3fdAo8BVwns63sGo
bepAO0Nbwnq12cEa2RJBFBxMwqSM7cFOlNdAt4Y7wtIq8MG4KVdA6g0rwnu/48HgKu8/Mog0wujH
68Fkmsk/KZgxwjeP68FLaGVAW/81whno8cE19TZAoJ4rwhl+3MHw7Sw/SAVEwmiq4MHkAI1AEVxD
wocW8sEiz7ZANntAwmTr58GzMahAb8ZRwkUp7cGinyJBM/hYwtYc4MGtaiBBSEFTwnIa5cFLbANB
yrYvwlR86MEkJxFAuMJGwsxr8MHDUttAa5o7wk2B6sE1pZFAFnROwpMo7MG3fbVAe3U/wp+i88Fg
BzFAdrImwtMq5cFFdRpA0z1LwhK+9sEmmRdBYAdcwsih0sFWE+RAHU1Uwjbs3cGbyMlAPqFewmPA
1MEwcxhB/NIzwgfP8MGw7DI/2h03wqgH5cFEdKg/mu8ywre35MGWsoVAsL4uwk5j8MGQ4IRAeg01
wiBO+sE9ZjJA5IEswupv1MF0FoI/Hdguwsph38EAQTM9pOcnwlmD3MHgTOY9X1VFwijY5MENGGBA
FeJBwhF32cHmrYJAcZZHwpUy3sE1wZ5A9d1FwuNI9cHSEZ1AS3ZAwiZF+MHgx79AHkE/wiF348Fq
w8RAawxFwsTs8MFHzfhAGhc4woA26MGEJZ9A

> <OMEGA_E>
jK8HwQ==

> <OMEGA_NBR>
     39727

$$$$
CACHE3HI_1691_19
  -OEChem-03092622533D

 44 46  0     1  0  0  0  0  0999 V2000
  -54.0602  -26.7476   11.6990 C   0  0  0  0  0  0  0  0  0  0  0  0
  -53.4935  -27.6865   10.8371 C   0  0  0  0  0  0  0  0  0  0  0  0
  -55.4420  -26.7194   11.8874 C   0  0  0  0  0  0  0  0  0  0  0  0
  -55.6899  -28.5689   10.3524 C   0  0  0  0  0  0  0  0  0  0  0  0
  -46.4658  -29.4669    3.9878 C   0  0  0  0  0  0  0  0  0  0  0  0
  -44.8502  -29.2499    5.5725 C   0  0  0  0  0  0  0  0  0  0  0  0
  -54.3081  -28.5972   10.1639 C   0  0  0  0  0  0  0  0  0  0  0  0
  -47.4517  -29.1839    4.9107 C   0  0  0  0  0  0  0  0  0  0  0  0
  -56.2566  -27.6300   11.2143 C   0  0  0  0  0  0  0  0  0  0  0  0
  -47.0142  -28.9368    6.1957 C   0  0  0  0  0  0  0  0  0  0  0  0
  -53.7042  -29.5976    9.2476 C   0  0  0  0  0  0  0  0  0  0  0  0
  -48.8798  -29.1571    4.5042 C   0  0  0  0  0  0  0  0  0  0  0  0
  -51.9731  -30.8548    5.2630 C   0  0  0  0  0  0  0  0  0  0  0  0
  -52.2219  -29.8255    6.3294 C   0  0  2  0  0  0  0  0  0  0  0  0
  -51.2168  -29.5515    5.2380 C   0  0  1  0  0  0  0  0  0  0  0  0
  -58.1187  -26.6170   12.2928 C   0  0  0  0  0  0  0  0  0  0  0  0
  -51.8005  -30.0896    7.7344 C   0  0  0  0  0  0  0  0  0  0  0  0
  -45.1504  -29.5085    4.2854 N   0  0  0  0  0  0  0  0  0  0  0  0
  -45.7161  -28.9618    6.5634 N   0  0  0  0  0  0  0  0  0  0  0  0
  -47.9795  -28.6397    7.1896 N   0  0  0  0  0  0  0  0  0  0  0  0
  -49.8192  -29.5081    5.4808 N   0  0  0  0  0  0  0  0  0  0  0  0
  -52.5105  -29.2214    8.6804 N   0  0  0  0  0  0  0  0  0  0  0  0
  -54.2934  -30.6553    9.0415 O   0  0  0  0  0  0  0  0  0  0  0  0
  -49.1695  -28.8544    3.3497 O   0  0  0  0  0  0  0  0  0  0  0  0
  -57.6049  -27.6027   11.3979 O   0  0  0  0  0  0  0  0  0  0  0  0
  -53.4257  -26.0391   12.2232 H   0  0  0  0  0  0  0  0  0  0  0  0
  -52.4154  -27.7003   10.6979 H   0  0  0  0  0  0  0  0  0  0  0  0
  -55.8783  -25.9859   12.5599 H   0  0  0  0  0  0  0  0  0  0  0  0
  -56.3295  -29.2767    9.8302 H   0  0  0  0  0  0  0  0  0  0  0  0
  -46.7025  -29.6757    2.9490 H   0  0  0  0  0  0  0  0  0  0  0  0
  -43.8010  -29.2789    5.8401 H   0  0  0  0  0  0  0  0  0  0  0  0
  -51.4349  -31.7565    5.5296 H   0  0  0  0  0  0  0  0  0  0  0  0
  -52.7446  -31.0031    4.5168 H   0  0  0  0  0  0  0  0  0  0  0  0
  -53.1562  -29.2772    6.2898 H   0  0  0  0  0  0  0  0  0  0  0  0
  -51.5148  -28.8357    4.4787 H   0  0  0  0  0  0  0  0  0  0  0  0
  -59.2069  -26.7050   12.3479 H   0  0  0  0  0  0  0  0  0  0  0  0
  -57.6915  -26.7801   13.2851 H   0  0  0  0  0  0  0  0  0  0  0  0
  -57.8407  -25.6217   11.9384 H   0  0  0  0  0  0  0  0  0  0  0  0
  -51.9984  -31.1388    8.0183 H   0  0  0  0  0  0  0  0  0  0  0  0
  -50.7147  -29.9304    7.8635 H   0  0  0  0  0  0  0  0  0  0  0  0
  -48.9368  -28.5656    6.9229 H   0  0  0  0  0  0  0  0  0  0  0  0
  -47.6686  -28.4080    8.1077 H   0  0  0  0  0  0  0  0  0  0  0  0
  -49.4745  -29.8069    6.4005 H   0  0  0  0  0  0  0  0  0  0  0  0
  -52.1042  -28.3159    8.8363 H   0  0  0  0  0  0  0  0  0  0  0  0
  1  2  1  0  0  0  0
  1  3  2  0  0  0  0
  2  7  2  0  0  0  0
  3  9  1  0  0  0  0
  4  7  1  0  0  0  0
  4  9  2  0  0  0  0
  5  8  1  0  0  0  0
  5 18  2  0  0  0  0
  6 18  1  0  0  0  0
  6 19  2  0  0  0  0
  7 11  1  0  0  0  0
  8 10  2  0  0  0  0
  8 12  1  0  0  0  0
  9 25  1  0  0  0  0
 10 19  1  0  0  0  0
 10 20  1  0  0  0  0
 11 22  1  0  0  0  0
 11 23  2  0  0  0  0
 12 21  1  0  0  0  0
 12 24  2  0  0  0  0
 13 14  1  0  0  0  0
 13 15  1  0  0  0  0
 14 15  1  0  0  0  0
 14 17  1  0  0  0  0
 15 21  1  0  0  0  0
 16 25  1  0  0  0  0
 17 22  1  0  0  0  0
  1 26  1  0  0  0  0
  2 27  1  0  0  0  0
  3 28  1  0  0  0  0
  4 29  1  0  0  0  0
  5 30  1  0  0  0  0
  6 31  1  0  0  0  0
 13 32  1  0  0  0  0
 13 33  1  0  0  0  0
 14 34  1  0  0  0  0
 15 35  1  0  0  0  0
 16 36  1  0  0  0  0
 16 37  1  0  0  0  0
 16 38  1  0  0  0  0
 17 39  1  0  0  0  0
 17 40  1  0  0  0  0
 20 41  1  0  0  0  0
 20 42  1  0  0  0  0
 21 43  1  0  0  0  0
 22 44  1  0  0  0  0
M  END
> <POSIT::Probability>
0.23

> <POSIT::Method>
HYBRID

> <ReceptorTitle>
UCSF-P4578-REFINED_LIGAND-BOUND-STATE_A__DU__LA1_A-201(A)

> <OMEGA_C>
rj1YwiL71cEtLztBUvlVwgp+3cGxZC1Bj8RdwlHB1cHrMj5BcMJewiWN5MFSoyVB/9w5wke868H1
N39AmWYzwsb/6cFEUrJAgjtZwgPH5MF8nyJBlc49wo146cGUJJ1AvwZhwksK3cG2bTNBjg48wnt+
58E8Q8ZAFNFWwurH7ME09hNB44RDws1B6cEgIpBAgeRPwpPW9sHcaqhANuNQwoia7sGcispABN5M
wnZp7MGOnadAl3lowobv1ME2r0RBuDNPwnq38MFSgPdABpo0wlER7MGoIYlATt02wtSx58E7B9JA
+Oo/wgse5cGIEeZA20ZHwpEQ7MEcY69AwApSwnTF6cH04gpBbixZwhI+9cEuqhBBiK1EwujV5sFp
YVZAa2tmwlrS3MHnXTZB8LNVwgxQ0MEJkkNBaqlRwlGa3cFoKitBZ4Nfwh3jz8FM9UhBcFFhwsc2
6sGxSB1BYs86wtVn7cF/vDxANTQvwj476sEc4rpAVr1Nwl8N/sEd8rBAffpSwnAG+MHeiZBA/Z9U
wp836sECRslAKg9Owmqv5sFqUY9A2dNswsmj1cEAkUVBDMRmwq091sHKj1RB5Fxnwkb5zMGTAz9B
Yf5PwjYc+cEjSwBB5NtKwoJx78EmovtAS79DwmqG5MEliN1Aq6w+wqhD48FDuQFB5uVFwot07sEu
0cxAqmpQwuKG4sFRYQ1B

> <OMEGA_E>
BZS+wA==

> <OMEGA_NBR>
     41107

$$$$
CACHE3HI_1691_22
  -OEChem-03092622533D

 40 42  0     1  0  0  0  0  0999 V2000
  -54.1120  -28.0569   12.9074 C   0  0  0  0  0  0  0  0  0  0  0  0
  -53.6606  -29.1264   12.1341 C   0  0  0  0  0  0  0  0  0  0  0  0
  -54.5239  -26.8757   12.2904 C   0  0  0  0  0  0  0  0  0  0  0  0
  -46.9060  -29.6073    6.8369 C   0  0  0  0  0  0  0  0  0  0  0  0
  -44.8542  -28.9497    6.1115 C   0  0  0  0  0  0  0  0  0  0  0  0
  -53.6213  -29.0150   10.7441 C   0  0  0  0  0  0  0  0  0  0  0  0
  -47.3727  -29.6856    5.5408 C   0  0  0  0  0  0  0  0  0  0  0  0
  -54.4846  -26.7643   10.9004 C   0  0  0  0  0  0  0  0  0  0  0  0
  -54.0332  -27.8338   10.1271 C   0  0  0  0  0  0  0  0  0  0  0  0
  -46.4613  -29.3615    4.5569 C   0  0  0  0  0  0  0  0  0  0  0  0
  -53.1396  -30.1561    9.9250 C   0  0  0  0  0  0  0  0  0  0  0  0
  -48.7732  -30.0970    5.2673 C   0  0  0  0  0  0  0  0  0  0  0  0
  -52.0527  -29.9566    6.7686 C   0  0  0  0  0  0  0  0  0  0  0  0
  -51.7307  -31.2407    7.4793 C   0  0  1  0  0  0  0  0  0  0  0  0
  -50.9203  -30.8210    6.2778 C   0  0  2  0  0  0  0  0  0  0  0  0
  -51.1630  -31.2092    8.8573 C   0  0  0  0  0  0  0  0  0  0  0  0
  -45.6480  -29.2415    7.1596 N   0  0  0  0  0  0  0  0  0  0  0  0
  -45.1892  -28.9875    4.8073 N   0  0  0  0  0  0  0  0  0  0  0  0
  -46.8807  -29.4228    3.2048 N   0  0  0  0  0  0  0  0  0  0  0  0
  -49.5711  -30.3931    6.3788 N   0  0  0  0  0  0  0  0  0  0  0  0
  -51.7889  -30.1619    9.6721 N   0  0  0  0  0  0  0  0  0  0  0  0
  -53.9479  -30.9869    9.5191 O   0  0  0  0  0  0  0  0  0  0  0  0
  -49.1587  -30.1775    4.1040 O   0  0  0  0  0  0  0  0  0  0  0  0
  -54.8804  -25.6298   10.3085 F   0  0  0  0  0  0  0  0  0  0  0  0
  -53.9997  -27.7155    8.7922 F   0  0  0  0  0  0  0  0  0  0  0  0
  -54.1430  -28.1438   13.9896 H   0  0  0  0  0  0  0  0  0  0  0  0
  -53.3424  -30.0423   12.6255 H   0  0  0  0  0  0  0  0  0  0  0  0
  -54.8750  -26.0424   12.8918 H   0  0  0  0  0  0  0  0  0  0  0  0
  -47.5417  -29.8418    7.6852 H   0  0  0  0  0  0  0  0  0  0  0  0
  -43.8389  -28.6505    6.3418 H   0  0  0  0  0  0  0  0  0  0  0  0
  -52.9564  -29.9244    6.1717 H   0  0  0  0  0  0  0  0  0  0  0  0
  -51.8103  -29.0201    7.2567 H   0  0  0  0  0  0  0  0  0  0  0  0
  -52.4142  -32.0720    7.3487 H   0  0  0  0  0  0  0  0  0  0  0  0
  -51.0984  -31.3740    5.3611 H   0  0  0  0  0  0  0  0  0  0  0  0
  -51.3111  -32.1762    9.3703 H   0  0  0  0  0  0  0  0  0  0  0  0
  -50.0730  -31.0297    8.8371 H   0  0  0  0  0  0  0  0  0  0  0  0
  -47.8006  -29.7477    3.0012 H   0  0  0  0  0  0  0  0  0  0  0  0
  -46.2144  -29.2418    2.4861 H   0  0  0  0  0  0  0  0  0  0  0  0
  -49.1393  -30.3566    7.3095 H   0  0  0  0  0  0  0  0  0  0  0  0
  -51.1828  -29.4210    9.9772 H   0  0  0  0  0  0  0  0  0  0  0  0
  1  2  1  0  0  0  0
  1  3  2  0  0  0  0
  2  6  2  0  0  0  0
  3  8  1  0  0  0  0
  4  7  1  0  0  0  0
  4 17  2  0  0  0  0
  5 17  1  0  0  0  0
  5 18  2  0  0  0  0
  6  9  1  0  0  0  0
  6 11  1  0  0  0  0
  7 10  2  0  0  0  0
  7 12  1  0  0  0  0
  8  9  2  0  0  0  0
  8 24  1  0  0  0  0
  9 25  1  0  0  0  0
 10 18  1  0  0  0  0
 10 19  1  0  0  0  0
 11 21  1  0  0  0  0
 11 22  2  0  0  0  0
 12 20  1  0  0  0  0
 12 23  2  0  0  0  0
 13 14  1  0  0  0  0
 13 15  1  0  0  0  0
 14 15  1  0  0  0  0
 14 16  1  0  0  0  0
 15 20  1  0  0  0  0
 16 21  1  0  0  0  0
  1 26  1  0  0  0  0
  2 27  1  0  0  0  0
  3 28  1  0  0  0  0
  4 29  1  0  0  0  0
  5 30  1  0  0  0  0
 13 31  1  0  0  0  0
 13 32  1  0  0  0  0
 14 33  1  0  0  0  0
 15 34  1  0  0  0  0
 16 35  1  0  0  0  0
 16 36  1  0  0  0  0
 19 37  1  0  0  0  0
 19 38  1  0  0  0  0
 20 39  1  0  0  0  0
 21 40  1  0  0  0  0
M  END
> <POSIT::Probability>
0.18

> <POSIT::Method>
HYBRID

> <ReceptorTitle>
UCSF-P4578-REFINED_LIGAND-BOUND-STATE_A__DU__LA1_A-201(A)

> <OMEGA_C>
unJYwnJ04MHkhE5BgaRWwtoC6cFUJUJBcxhawnYB18GFpURBxZ87wrrb7MEmyNpAqmozwv6Y58Fr
kcNAPnxWwrUe6MH55ytBqX09wix87cEHTrFAMPBZwlAd1sEoaC5B+yFYwpur3sGWCCJBbNg5wkzk
6sEX0pFA845Uwrg/8cGdzB5BuxdDwqHG8MGujahA7DVQwgmn78GQmNhARexOwubs+cHOVu9Abq5L
wn6R9sH648hA6aZMwl6s+cF2tw1BiJc2wqju6cF3G+VAv8E0wn7m58GV1ZlA0IU7wu9h68HOGk1A
wkhGwiAl88EuH8xA3ydPwpdL8cHywBpBqcpXwjbl98EuThhBe6JEwodr8cEAVINAgIVbwucJzcFu
7yRBvP9XwkW53cEArQxBaZJYwocm4cFM1V9BkV5VwpJW8MHqAUpB/n9bwuRW0MHgRE5BvSo+wvy7
7sEy7fVAElsvwic05cHV78pAUNNTwhRl78GKfsVAvT1Pwhkp6MGGNuhAHqhRwrVJAMJFKOtAuGRM
wtr9+sHhjatAnD5Nwna0AMLy7BVBwkpIws48+MG8ZA1BxDM/wk777cFlE0BAk9s4wkPv6cGxGx9A
mY5EwlHa8sGt5+lAN7tMwhxe68HFoh9B

> <OMEGA_E>
hOTQwA==

> <OMEGA_NBR>
     42407

$$$$
CACHE3HI_1691_32
  -OEChem-03092622533D

 45 47  0     1  0  0  0  0  0999 V2000
  -55.4168  -27.6060   12.9247 C   0  0  0  0  0  0  0  0  0  0  0  0
  -55.9918  -27.2381   11.7083 C   0  0  0  0  0  0  0  0  0  0  0  0
  -54.1018  -28.0696   12.9620 C   0  0  0  0  0  0  0  0  0  0  0  0
  -55.2520  -27.3335   10.5294 C   0  0  0  0  0  0  0  0  0  0  0  0
  -53.3621  -28.1651   11.7832 C   0  0  0  0  0  0  0  0  0  0  0  0
  -53.9370  -27.7972   10.5668 C   0  0  0  0  0  0  0  0  0  0  0  0
  -47.2288  -29.5502    6.3702 C   0  0  0  0  0  0  0  0  0  0  0  0
  -45.0568  -29.1541    5.9079 C   0  0  0  0  0  0  0  0  0  0  0  0
  -47.5461  -29.8822    5.1114 C   0  0  0  0  0  0  0  0  0  0  0  0
  -46.4757  -29.8544    4.0788 C   0  0  0  0  0  0  0  0  0  0  0  0
  -53.1498  -27.8983    9.3116 C   0  0  0  0  0  0  0  0  0  0  0  0
  -48.9420  -30.2582    4.8219 C   0  0  0  0  0  0  0  0  0  0  0  0
  -52.9920  -29.5356    6.2945 C   0  0  0  0  0  0  0  0  0  0  0  0
  -51.9326  -29.4271    5.1750 C   0  0  0  0  0  0  0  0  0  0  0  0
  -51.8720  -30.0909    7.2198 C   0  0  1  0  0  0  0  0  0  0  0  0
  -51.1518  -30.5343    5.9122 C   0  0  2  0  0  0  0  0  0  0  0  0
  -44.0929  -29.3976    3.6673 C   0  0  0  0  0  0  0  0  0  0  0  0
  -51.2772  -29.0549    8.1664 C   0  0  0  0  0  0  0  0  0  0  0  0
  -45.9848  -29.1781    6.8087 N   0  0  0  0  0  0  0  0  0  0  0  0
  -45.2295  -29.4692    4.5720 N   0  0  0  0  0  0  0  0  0  0  0  0
  -52.1520  -28.8503    9.3145 N   0  0  0  0  0  0  0  0  0  0  0  0
  -49.7327  -30.2058    5.9418 N   0  0  0  0  0  0  0  0  0  0  0  0
  -46.7259  -30.1538    2.9143 O   0  0  0  0  0  0  0  0  0  0  0  0
  -53.4077  -27.1421    8.3789 O   0  0  0  0  0  0  0  0  0  0  0  0
  -49.2814  -30.5705    3.6862 O   0  0  0  0  0  0  0  0  0  0  0  0
  -55.9929  -27.5317   13.8423 H   0  0  0  0  0  0  0  0  0  0  0  0
  -57.0157  -26.8772   11.6784 H   0  0  0  0  0  0  0  0  0  0  0  0
  -53.6538  -28.3575   13.9087 H   0  0  0  0  0  0  0  0  0  0  0  0
  -55.7108  -27.0437    9.5876 H   0  0  0  0  0  0  0  0  0  0  0  0
  -52.3381  -28.5279   11.8244 H   0  0  0  0  0  0  0  0  0  0  0  0
  -47.9855  -29.5602    7.1495 H   0  0  0  0  0  0  0  0  0  0  0  0
  -44.0276  -28.8661    6.1750 H   0  0  0  0  0  0  0  0  0  0  0  0
  -53.3963  -28.5662    6.6057 H   0  0  0  0  0  0  0  0  0  0  0  0
  -53.8206  -30.2190    6.0953 H   0  0  0  0  0  0  0  0  0  0  0  0
  -52.3029  -29.7371    4.1962 H   0  0  0  0  0  0  0  0  0  0  0  0
  -51.4453  -28.4584    5.0844 H   0  0  0  0  0  0  0  0  0  0  0  0
  -52.2321  -30.9506    7.7911 H   0  0  0  0  0  0  0  0  0  0  0  0
  -51.3289  -31.5252    5.5930 H   0  0  0  0  0  0  0  0  0  0  0  0
  -43.5698  -30.3576    3.6302 H   0  0  0  0  0  0  0  0  0  0  0  0
  -44.4286  -29.1417    2.6584 H   0  0  0  0  0  0  0  0  0  0  0  0
  -43.3916  -28.6284    4.0022 H   0  0  0  0  0  0  0  0  0  0  0  0
  -50.2955  -29.3924    8.5166 H   0  0  0  0  0  0  0  0  0  0  0  0
  -51.1351  -28.1048    7.6396 H   0  0  0  0  0  0  0  0  0  0  0  0
  -51.9493  -29.3983   10.1369 H   0  0  0  0  0  0  0  0  0  0  0  0
  -49.3514  -29.9451    6.8385 H   0  0  0  0  0  0  0  0  0  0  0  0
  1  2  1  0  0  0  0
  1  3  2  0  0  0  0
  2  4  2  0  0  0  0
  3  5  1  0  0  0  0
  4  6  1  0  0  0  0
  5  6  2  0  0  0  0
  6 11  1  0  0  0  0
  7  9  2  0  0  0  0
  7 19  1  0  0  0  0
  8 19  2  0  0  0  0
  8 20  1  0  0  0  0
  9 10  1  0  0  0  0
  9 12  1  0  0  0  0
 10 20  1  0  0  0  0
 10 23  2  0  0  0  0
 11 21  1  0  0  0  0
 11 24  2  0  0  0  0
 12 22  1  0  0  0  0
 12 25  2  0  0  0  0
 13 14  1  0  0  0  0
 13 15  1  0  0  0  0
 14 16  1  0  0  0  0
 15 16  1  0  0  0  0
 15 18  1  0  0  0  0
 16 22  1  0  0  0  0
 17 20  1  0  0  0  0
 18 21  1  0  0  0  0
  1 26  1  0  0  0  0
  2 27  1  0  0  0  0
  3 28  1  0  0  0  0
  4 29  1  0  0  0  0
  5 30  1  0  0  0  0
  7 31  1  0  0  0  0
  8 32  1  0  0  0  0
 13 33  1  0  0  0  0
 13 34  1  0  0  0  0
 14 35  1  0  0  0  0
 14 36  1  0  0  0  0
 15 37  1  0  0  0  0
 16 38  1  0  0  0  0
 17 39  1  0  0  0  0
 17 40  1  0  0  0  0
 17 41  1  0  0  0  0
 18 42  1  0  0  0  0
 18 43  1  0  0  0  0
 21 44  1  0  0  0  0
 22 45  1  0  0  0  0
M  END
> <POSIT::Probability>
0.14

> <POSIT::Method>
HYBRID

> <ReceptorTitle>
UCSF-P4578-REFINED_LIGAND-BOUND-STATE_A__DU__LA1_A-201(A)

> <OMEGA_C>
zKpdwhLZ3MGay05BkfdfwpHn2cEIVTtBS2hYwqCO4MFXZE9BBwJdwveq2sGUeChBwXJVwgZS4cHj
hzxBeb9XwpFg3sFsESlBS+o8wtNm7MF42MtANTo0wqc76cF+Db1AMi8+wtEO78FokKNAEec5wtbV
7sHohYJAZ5lUwssv38Fc/BRBocRDwtQQ8sG0TJpAz/dTwtdI7MHSbMlA77pPwr1q68FsmaVA9XxP
wjW68MG7COdAe5tMwidG9MHEML1AJF8wwmEu68F4tGpA3xtNwoRw6MGsqQJBdPA3wtJs6cE34dlA
/eo0wgLB68HKTZJAmptQwlDN5sH+BxVBPO5GwoGl8cENI75ATOc6whA78cGMgzpAhaFVwhEj2cH3
DwZBHSBFwmiQ9MHw6mtAs/hfwtRA3MERel1BGxBkwo4E18GK2jpBcp1Wwh/c4sHhiV5B3tdewoBZ
2MG5ZhlBP1pRwio55MG6MD1BMvE/wjx77MF4yORASxwwwq7t5sGjmcVAypVVwpWH5MGBYdNAP0hX
wprA8cHQDMNAMzZRwoLl7cFsR4ZAAMhNwtaq48GIs6JAs+1Qwuma98FcUPlA11BNwqUz/MEG+rJA
gkcuwknc8sHAVGhA3bYxwjoi6cHQIipA9ZAtwgMH5cH6EYBAnS5JwrEj68ESRAhBV4pMwrTW4MHD
d/RAEMxPwp4v68HSMCJB02dFwnuP78HV1NpA

> <OMEGA_E>
jgzywA==

> <OMEGA_NBR>
     43807

$$$$
CACHE3HI_1691_33
  -OEChem-03092622533D

 42 44  0     1  0  0  0  0  0999 V2000
  -53.2539  -28.3488   11.2281 C   0  0  0  0  0  0  0  0  0  0  0  0
  -53.6012  -27.4635   10.2077 C   0  0  0  0  0  0  0  0  0  0  0  0
  -52.2090  -29.8049    9.6078 C   0  0  0  0  0  0  0  0  0  0  0  0
  -46.0130  -29.2798    5.7314 C   0  0  0  0  0  0  0  0  0  0  0  0
  -44.7397  -29.7724    3.8359 C   0  0  0  0  0  0  0  0  0  0  0  0
  -43.7474  -29.4260    5.8520 C   0  0  0  0  0  0  0  0  0  0  0  0
  -52.5563  -28.9196    8.5873 C   0  0  0  0  0  0  0  0  0  0  0  0
  -45.9898  -29.5637    4.3812 C   0  0  0  0  0  0  0  0  0  0  0  0
  -52.5579  -29.5197   10.9280 C   0  0  0  0  0  0  0  0  0  0  0  0
  -53.2523  -27.7487    8.8875 C   0  0  0  0  0  0  0  0  0  0  0  0
  -47.2188  -29.6392    3.5753 C   0  0  0  0  0  0  0  0  0  0  0  0
  -52.1752  -29.2426    7.1888 C   0  0  0  0  0  0  0  0  0  0  0  0
  -50.6030  -28.5885    4.6064 C   0  0  0  0  0  0  0  0  0  0  0  0
  -49.5693  -28.8492    3.5204 C   0  0  0  0  0  0  0  0  0  0  0  0
  -48.7653  -29.7411    5.6049 C   0  0  0  0  0  0  0  0  0  0  0  0
  -50.2875  -29.6712    5.6361 C   0  0  1  0  0  0  0  0  0  0  0  0
  -52.1866  -30.4663   12.0189 C   0  0  0  0  0  0  0  0  0  0  0  0
  -44.9067  -29.2029    6.5000 N   0  0  0  0  0  0  0  0  0  0  0  0
  -43.5930  -29.7108    4.5444 N   0  0  0  0  0  0  0  0  0  0  0  0
  -48.4243  -29.4131    4.2211 N   0  0  0  0  0  0  0  0  0  0  0  0
  -50.8128  -29.3832    6.9385 N   0  0  0  0  0  0  0  0  0  0  0  0
  -47.0952  -29.9090    2.3824 O   0  0  0  0  0  0  0  0  0  0  0  0
  -53.0533  -29.3484    6.3368 O   0  0  0  0  0  0  0  0  0  0  0  0
  -53.6009  -26.8706    7.9052 O   0  0  0  0  0  0  0  0  0  0  0  0
  -53.5298  -28.1182   12.2536 H   0  0  0  0  0  0  0  0  0  0  0  0
  -54.1435  -26.5530   10.4482 H   0  0  0  0  0  0  0  0  0  0  0  0
  -51.6661  -30.7188    9.3769 H   0  0  0  0  0  0  0  0  0  0  0  0
  -46.9460  -29.0995    6.2563 H   0  0  0  0  0  0  0  0  0  0  0  0
  -44.6126  -30.0023    2.7825 H   0  0  0  0  0  0  0  0  0  0  0  0
  -42.8428  -29.3703    6.4451 H   0  0  0  0  0  0  0  0  0  0  0  0
  -50.4513  -27.5881    5.0302 H   0  0  0  0  0  0  0  0  0  0  0  0
  -51.6275  -28.6560    4.2286 H   0  0  0  0  0  0  0  0  0  0  0  0
  -49.9214  -29.5983    2.8026 H   0  0  0  0  0  0  0  0  0  0  0  0
  -49.2829  -27.9461    2.9730 H   0  0  0  0  0  0  0  0  0  0  0  0
  -48.2971  -28.9833    6.2441 H   0  0  0  0  0  0  0  0  0  0  0  0
  -48.3814  -30.7282    5.8794 H   0  0  0  0  0  0  0  0  0  0  0  0
  -50.7120  -30.6295    5.3140 H   0  0  0  0  0  0  0  0  0  0  0  0
  -52.9737  -31.2139   12.1835 H   0  0  0  0  0  0  0  0  0  0  0  0
  -52.0441  -29.9397   12.9719 H   0  0  0  0  0  0  0  0  0  0  0  0
  -51.2561  -30.9908   11.7692 H   0  0  0  0  0  0  0  0  0  0  0  0
  -50.1459  -29.2167    7.6922 H   0  0  0  0  0  0  0  0  0  0  0  0
  -54.0762  -26.1223    8.3087 H   0  0  0  0  0  0  0  0  0  0  0  0
  1  2  2  0  0  0  0
  1  9  1  0  0  0  0
  2 10  1  0  0  0  0
  3  7  1  0  0  0  0
  3  9  2  0  0  0  0
  4  8  1  0  0  0  0
  4 18  2  0  0  0  0
  5  8  2  0  0  0  0
  5 19  1  0  0  0  0
  6 18  1  0  0  0  0
  6 19  2  0  0  0  0
  7 10  2  0  0  0  0
  7 12  1  0  0  0  0
  8 11  1  0  0  0  0
  9 17  1  0  0  0  0
 10 24  1  0  0  0  0
 11 20  1  0  0  0  0
 11 22  2  0  0  0  0
 12 21  1  0  0  0  0
 12 23  2  0  0  0  0
 13 14  1  0  0  0  0
 13 16  1  0  0  0  0
 14 20  1  0  0  0  0
 15 16  1  0  0  0  0
 15 20  1  0  0  0  0
 16 21  1  0  0  0  0
  1 25  1  0  0  0  0
  2 26  1  0  0  0  0
  3 27  1  0  0  0  0
  4 28  1  0  0  0  0
  5 29  1  0  0  0  0
  6 30  1  0  0  0  0
 13 31  1  0  0  0  0
 13 32  1  0  0  0  0
 14 33  1  0  0  0  0
 14 34  1  0  0  0  0
 15 35  1  0  0  0  0
 15 36  1  0  0  0  0
 16 37  1  0  0  0  0
 17 38  1  0  0  0  0
 17 39  1  0  0  0  0
 17 40  1  0  0  0  0
 21 41  1  0  0  0  0
 24 42  1  0  0  0  0
M  END
> <POSIT::Probability>
0.24

> <POSIT::Method>
FRED

> <ReceptorTitle>
UCSF-P4578-REFINED_LIGAND-BOUND-STATE_A__DU__LA1_A-201(A)

> <OMEGA_C>
/ANVwlzK4sFgpjNBmmdWwji128GjUiNBBtZQwmxw7sFguRlBQw04wgA96sFMZ7dAefUywvEt7sHM
fnVATv0uwnVo68E1Q7tAnTlSwmVb58GwZQlBjPU3wnOC7MEbM4xAPztSwkEo7MHt2C5BXwJVwmL9
3cEVMw5BEOA8whMd7cHY0WRAZ7NQwsrw6cHyCuZAgGlKwki15MFfZ5NA/0ZGwh/L5sEDTmFAtg9D
wsHt7cE7W7NAbiZJwqxe7cG6WrRAHL9QwgK788F4TUBBdaAzwnaf6cEuANBANF8uwqSv7cHka5FA
g7JBwvhN68GLE4dAU0BLwtAQ68EtCN5Ad2E8wqdF78FCeRhAoDZUwoTJ6sHrxspATmdWwgX31sES
9/xAix5Wwg3y4MHsDkRB8ZJYwpxs1MGqKydBGKpOwiDA9cHnBxZBqMg7wtbL6MFBM8hARnMywrsE
8MEFFTJAFF8rwnb26sE+Ps5AF85Jwnm03MG596BAj4JOwnY/5cHKUIdAiq9Hwl3J7MFqXjNAvCFF
wpiR38F6RT5AOTBBwtPd58HEz8dAiIZBwkvT9cGtI7xAGtlKwioJ9cGtDKpADOVTwg+2+cGz70JB
MS1QwpaE78HtjE9BNQZNwjTt98HLTjxBZpVIwtS76cHIJvZAE05Ywob60MF68ARB

> <OMEGA_E>
OOQKwQ==

> <OMEGA_NBR>
     45140

$$$$
CACHE3HI_1691_4
  -OEChem-03092622533D

 46 48  0     1  0  0  0  0  0999 V2000
  -49.9167  -30.0274    3.0263 C   0  0  0  0  0  0  0  0  0  0  0  0
  -50.3340  -29.8392    4.3431 C   0  0  0  0  0  0  0  0  0  0  0  0
  -48.0555  -29.3806    5.0080 C   0  0  0  0  0  0  0  0  0  0  0  0
  -47.6365  -29.5643    3.6864 C   0  0  0  0  0  0  0  0  0  0  0  0
  -48.5669  -29.8800    2.6887 C   0  0  0  0  0  0  0  0  0  0  0  0
  -49.4062  -29.5140    5.3321 C   0  0  0  0  0  0  0  0  0  0  0  0
  -46.1949  -29.4651    3.3560 C   0  0  0  0  0  0  0  0  0  0  0  0
  -51.1328  -29.4274    7.1740 C   0  0  0  0  0  0  0  0  0  0  0  0
  -48.0901  -30.0980    1.2856 C   0  0  0  0  0  0  0  0  0  0  0  0
  -53.0219  -27.8108    9.3471 C   0  0  0  0  0  0  0  0  0  0  0  0
  -51.9622  -29.6999   10.7677 C   0  0  0  0  0  0  0  0  0  0  0  0
  -54.4643  -27.8422    9.8476 C   0  0  0  0  0  0  0  0  0  0  0  0
  -53.0870  -29.7449   11.8028 C   0  0  0  0  0  0  0  0  0  0  0  0
  -46.9116  -29.1758    1.0493 C   0  0  0  0  0  0  0  0  0  0  0  0
  -52.3584  -29.1982    9.3740 C   0  0  0  0  0  0  0  0  0  0  0  0
  -54.6627  -27.7633   11.3630 C   0  0  2  0  0  0  0  0  0  0  0  0
  -53.5423  -28.3488   12.2263 C   0  0  1  0  0  0  0  0  0  0  0  0
  -49.8338  -29.3273    6.6678 N   0  0  0  0  0  0  0  0  0  0  0  0
  -51.1407  -29.1699    8.5510 N   0  0  0  0  0  0  0  0  0  0  0  0
  -45.3367  -29.4580    4.2303 O   0  0  0  0  0  0  0  0  0  0  0  0
  -52.1476  -29.6997    6.5373 O   0  0  0  0  0  0  0  0  0  0  0  0
  -45.8830  -29.4074    2.0323 O   0  0  0  0  0  0  0  0  0  0  0  0
  -55.8906  -28.4306   11.6755 O   0  0  0  0  0  0  0  0  0  0  0  0
  -53.9908  -28.4159   13.5832 O   0  0  0  0  0  0  0  0  0  0  0  0
  -50.6493  -30.2861    2.2664 H   0  0  0  0  0  0  0  0  0  0  0  0
  -51.3871  -29.9509    4.5885 H   0  0  0  0  0  0  0  0  0  0  0  0
  -47.3385  -29.1362    5.7885 H   0  0  0  0  0  0  0  0  0  0  0  0
  -47.7885  -31.1466    1.1801 H   0  0  0  0  0  0  0  0  0  0  0  0
  -48.8803  -29.8843    0.5584 H   0  0  0  0  0  0  0  0  0  0  0  0
  -52.9955  -27.4225    8.3440 H   0  0  0  0  0  0  0  0  0  0  0  0
  -52.4588  -27.1461    9.9814 H   0  0  0  0  0  0  0  0  0  0  0  0
  -51.1774  -29.0581   11.1599 H   0  0  0  0  0  0  0  0  0  0  0  0
  -51.5299  -30.6915   10.6746 H   0  0  0  0  0  0  0  0  0  0  0  0
  -55.0426  -27.0482    9.3603 H   0  0  0  0  0  0  0  0  0  0  0  0
  -54.8969  -28.7904    9.5018 H   0  0  0  0  0  0  0  0  0  0  0  0
  -53.9055  -30.3012   11.3976 H   0  0  0  0  0  0  0  0  0  0  0  0
  -52.7401  -30.2588   12.6762 H   0  0  0  0  0  0  0  0  0  0  0  0
  -46.4744  -29.3666    0.0642 H   0  0  0  0  0  0  0  0  0  0  0  0
  -47.1950  -28.1173    1.0907 H   0  0  0  0  0  0  0  0  0  0  0  0
  -52.9957  -29.9046    8.9124 H   0  0  0  0  0  0  0  0  0  0  0  0
  -54.8259  -26.7186   11.6271 H   0  0  0  0  0  0  0  0  0  0  0  0
  -52.6867  -27.6666   12.2136 H   0  0  0  0  0  0  0  0  0  0  0  0
  -49.1083  -29.0919    7.3410 H   0  0  0  0  0  0  0  0  0  0  0  0
  -50.2538  -28.9850    9.0135 H   0  0  0  0  0  0  0  0  0  0  0  0
  -56.5916  -27.9607   11.1970 H   0  0  0  0  0  0  0  0  0  0  0  0
  -53.2313  -28.7168   14.1005 H   0  0  0  0  0  0  0  0  0  0  0  0
  1  2  1  0  0  0  0
  1  5  2  0  0  0  0
  2  6  2  0  0  0  0
  3  4  2  0  0  0  0
  3  6  1  0  0  0  0
  4  5  1  0  0  0  0
  4  7  1  0  0  0  0
  5  9  1  0  0  0  0
  6 18  1  0  0  0  0
  7 20  2  0  0  0  0
  7 22  1  0  0  0  0
  8 18  1  0  0  0  0
  8 19  1  0  0  0  0
  8 21  2  0  0  0  0
  9 14  1  0  0  0  0
 10 12  1  0  0  0  0
 10 15  1  0  0  0  0
 11 13  1  0  0  0  0
 11 15  1  0  0  0  0
 12 16  1  0  0  0  0
 13 17  1  0  0  0  0
 14 22  1  0  0  0  0
 15 19  1  0  0  0  0
 16 17  1  0  0  0  0
 16 23  1  0  0  0  0
 17 24  1  0  0  0  0
  1 25  1  0  0  0  0
  2 26  1  0  0  0  0
  3 27  1  0  0  0  0
  9 28  1  0  0  0  0
  9 29  1  0  0  0  0
 10 30  1  0  0  0  0
 10 31  1  0  0  0  0
 11 32  1  0  0  0  0
 11 33  1  0  0  0  0
 12 34  1  0  0  0  0
 12 35  1  0  0  0  0
 13 36  1  0  0  0  0
 13 37  1  0  0  0  0
 14 38  1  0  0  0  0
 14 39  1  0  0  0  0
 15 40  1  0  0  0  0
 16 41  1  0  0  0  0
 17 42  1  0  0  0  0
 18 43  1  0  0  0  0
 19 44  1  0  0  0  0
 23 45  1  0  0  0  0
 24 46  1  0  0  0  0
M  END
> <POSIT::Probability>
0.24

> <POSIT::Method>
FRED

> <ReceptorTitle>
UCSF-P4578-REFINED_LIGAND-BOUND-STATE_A__DU__LA1_A-201(A)

> <OMEGA_C>
wKpHwjc48MFqrkFADVZJwqy27sGG+opA2zhAwocL68G/QaBAw4s+wsSD7MFB7WtAe0RCwi8K78FZ
EyxA+p9FwrEc7MHXoKpAl8c4woi468EIyVZA9odMwjdr68GvkeVARlxAwszI8MG+jaQ/YxZUwoB8
3sGqjRVBRdlPwk6Z7cGQSCxBbdtZwuG83sHsjx1BF1lUwoD17cEu2DxBfaU7wgto6cFkT4Y/+m5R
wtuV6cHY+xVBkaZawiMb3sGtzjVBRitWwkHK4sEAn0NBzFVHwlOe6sHhXtVAC5BMwt1b6cHG0AhB
yFg1wg6q68HEXodAK5dQwveY7cHfMdFAPIg3wklC68HiEAJABpBfwttx48G6zjpBnvZXwrBT48G4
VFlB5ZhKwuBJ8sGRDBFAYIxNwoSb78FW1ZJAo1o9wvIW6cFYO7lAdic/wics+cFYDpc/c4VDwhsT
78Gg8w4/ZPtTwj9h28EQgQVBy9VRwj8r2cH1sx9BrbVMwgd36MEkjzJBmB5Owj6I9cFHyypBnCtc
wp1i2MHYwxVBY5ZbwshS5sFLBxhBM59XwvBo8sG+XDZB2vVSwg4S8sGn0UpBy+U5wsDu6sGAioM9
ucc8wkDw4MFwm4s/oPtTwrk878ELmQ5BrE1bwq6/1cF9CDpBOr9SwhlV3cHEakNB5m5EwiK86MEy
6epA2wNJwk/h58EaNxBB0V1iwoOv38HQJjNB3exUwgi85cHUm2FB

> <OMEGA_E>
ngsXwQ==

> <OMEGA_NBR>
     46555

$$$$
CACHE3HI_1691_42
  -OEChem-03092622533D

 47 48  0     1  0  0  0  0  0999 V2000
  -42.6975  -28.0654    0.8128 C   0  0  0  0  0  0  0  0  0  0  0  0
  -41.9369  -29.1052    1.4438 C   0  0  0  0  0  0  0  0  0  0  0  0
  -45.8370  -30.3859    3.7896 C   0  0  0  0  0  0  0  0  0  0  0  0
  -43.9923  -27.9147    1.1051 C   0  0  0  0  0  0  0  0  0  0  0  0
  -46.6121  -29.4431    3.2444 C   0  0  0  0  0  0  0  0  0  0  0  0
  -42.4942  -29.9408    2.3317 C   0  0  0  0  0  0  0  0  0  0  0  0
  -43.9545  -29.7760    2.6653 C   0  0  0  0  0  0  0  0  0  0  0  0
  -46.0075  -28.5099    2.2609 C   0  0  0  0  0  0  0  0  0  0  0  0
  -48.0180  -29.3874    3.6511 C   0  0  0  0  0  0  0  0  0  0  0  0
  -52.5567  -29.0308    8.3715 C   0  0  0  0  0  0  0  0  0  0  0  0
  -41.7291  -31.0346    3.0100 C   0  0  0  0  0  0  0  0  0  0  0  0
  -53.6303  -27.5424   10.0985 C   0  0  0  0  0  0  0  0  0  0  0  0
  -51.7328  -31.9113    7.1373 C   0  0  0  0  0  0  0  0  0  0  0  0
  -49.9479  -30.4559    6.1166 C   0  0  0  0  0  0  0  0  0  0  0  0
  -49.4721  -29.0792    5.6504 C   0  0  0  0  0  0  0  0  0  0  0  0
  -52.3424  -28.2044    9.6319 C   0  0  1  0  0  0  0  0  0  0  0  0
  -51.3479  -30.4802    6.7594 C   0  0  2  0  0  0  0  0  0  0  0  0
  -44.5110  -30.5796    3.5243 N   0  0  0  0  0  0  0  0  0  0  0  0
  -44.6463  -28.7388    2.0133 N   0  0  0  0  0  0  0  0  0  0  0  0
  -48.1800  -29.1721    5.0089 N   0  0  0  0  0  0  0  0  0  0  0  0
  -51.3973  -29.6474    7.9612 N   0  0  0  0  0  0  0  0  0  0  0  0
  -46.6994  -27.6338    1.7456 O   0  0  0  0  0  0  0  0  0  0  0  0
  -48.9219  -29.5252    2.8273 O   0  0  0  0  0  0  0  0  0  0  0  0
  -53.6451  -29.1002    7.8045 O   0  0  0  0  0  0  0  0  0  0  0  0
  -51.8485  -29.0473   10.6601 O   0  0  0  0  0  0  0  0  0  0  0  0
  -42.2014  -27.4146    0.1024 H   0  0  0  0  0  0  0  0  0  0  0  0
  -40.8892  -29.1870    1.1735 H   0  0  0  0  0  0  0  0  0  0  0  0
  -46.2475  -31.0852    4.5125 H   0  0  0  0  0  0  0  0  0  0  0  0
  -44.5726  -27.1308    0.6312 H   0  0  0  0  0  0  0  0  0  0  0  0
  -41.2963  -30.6583    3.9352 H   0  0  0  0  0  0  0  0  0  0  0  0
  -40.9338  -31.3865    2.3550 H   0  0  0  0  0  0  0  0  0  0  0  0
  -42.3978  -31.8642    3.2334 H   0  0  0  0  0  0  0  0  0  0  0  0
  -54.4033  -28.2926   10.3011 H   0  0  0  0  0  0  0  0  0  0  0  0
  -53.4791  -26.9591   11.0122 H   0  0  0  0  0  0  0  0  0  0  0  0
  -54.0248  -26.8797    9.3206 H   0  0  0  0  0  0  0  0  0  0  0  0
  -51.0166  -32.3266    7.8542 H   0  0  0  0  0  0  0  0  0  0  0  0
  -52.7238  -31.9424    7.6048 H   0  0  0  0  0  0  0  0  0  0  0  0
  -51.7507  -32.5681    6.2606 H   0  0  0  0  0  0  0  0  0  0  0  0
  -49.2211  -30.8514    6.8393 H   0  0  0  0  0  0  0  0  0  0  0  0
  -49.9294  -31.1373    5.2556 H   0  0  0  0  0  0  0  0  0  0  0  0
  -49.4229  -28.3690    6.4814 H   0  0  0  0  0  0  0  0  0  0  0  0
  -50.1918  -28.6760    4.9290 H   0  0  0  0  0  0  0  0  0  0  0  0
  -51.5785  -27.4454    9.4328 H   0  0  0  0  0  0  0  0  0  0  0  0
  -52.0885  -30.1061    6.0435 H   0  0  0  0  0  0  0  0  0  0  0  0
  -47.3598  -29.0830    5.6017 H   0  0  0  0  0  0  0  0  0  0  0  0
  -50.5308  -29.5093    8.4546 H   0  0  0  0  0  0  0  0  0  0  0  0
  -51.7235  -28.4907   11.4465 H   0  0  0  0  0  0  0  0  0  0  0  0
  1  2  1  0  0  0  0
  1  4  2  0  0  0  0
  2  6  2  0  0  0  0
  3  5  2  0  0  0  0
  3 18  1  0  0  0  0
  4 19  1  0  0  0  0
  5  8  1  0  0  0  0
  5  9  1  0  0  0  0
  6  7  1  0  0  0  0
  6 11  1  0  0  0  0
  7 18  2  0  0  0  0
  7 19  1  0  0  0  0
  8 19  1  0  0  0  0
  8 22  2  0  0  0  0
  9 20  1  0  0  0  0
  9 23  2  0  0  0  0
 10 16  1  0  0  0  0
 10 21  1  0  0  0  0
 10 24  2  0  0  0  0
 12 16  1  0  0  0  0
 13 17  1  0  0  0  0
 14 15  1  0  0  0  0
 14 17  1  0  0  0  0
 15 20  1  0  0  0  0
 16 25  1  0  0  0  0
 17 21  1  0  0  0  0
  1 26  1  0  0  0  0
  2 27  1  0  0  0  0
  3 28  1  0  0  0  0
  4 29  1  0  0  0  0
 11 30  1  0  0  0  0
 11 31  1  0  0  0  0
 11 32  1  0  0  0  0
 12 33  1  0  0  0  0
 12 34  1  0  0  0  0
 12 35  1  0  0  0  0
 13 36  1  0  0  0  0
 13 37  1  0  0  0  0
 13 38  1  0  0  0  0
 14 39  1  0  0  0  0
 14 40  1  0  0  0  0
 15 41  1  0  0  0  0
 15 42  1  0  0  0  0
 16 43  1  0  0  0  0
 17 44  1  0  0  0  0
 20 45  1  0  0  0  0
 21 46  1  0  0  0  0
 25 47  1  0  0  0  0
M  END
> <POSIT::Probability>
0.05

> <POSIT::Method>
FRED

> <ReceptorTitle>
UCSF-P4578-REFINED_LIGAND-BOUND-STATE_A__DU__LA1_A-201(A)

> <OMEGA_C>
NMoqwgGG4MFdFVA/bb8nwlnX6MGqzbg/Elk3wk4W88GWiXJAHfgvwmVR38HidI0/wnI6wnOL68H4
o09AGPopwtKG78EHOxVAZ9EvwjI17sEElCpAogc4wj8U5MGOshBAZhJAwlMZ68Grq2lACjpSwv8+
6MGi8QVBkOomwvFG+MFao0BAdIVWwuZW3MFckyFBXO5OwkFK/8GnZORArcpHwqWl88Eju8NAceNF
wh+i6MHFz7RAp15Rwqai4cEqHBpBNGRNwmnX88GgTNhASwsywv2i9MFkjmFA05Uywhnp5cGQ2QBA
U7hAwnxg6cFFSaBAyZZNwuIt7cFowv5AKsw6wgwS3cGYb98/B7BDwoMz7MEQ8zRAm5RWwjXN6MG3
vvlA6WRPwu1g6MGjjypBMc4owg1R28FIvdE9jI4jwvt+6cHGM5Y/cP04wnGu+MFgZpBAYEoywtIL
2cGNkyE/cC8lwjJE9cEc23tAQLwjwnYX+8EKuBZAV5cpwtXp/sHG705A+pxZwlZX4sE+0SRBmOpV
wiSs18HLMTBBXBlYwooJ18EyIRVB9hBMwmhOAcICVvtANOVSwhiK/8GvWvNAwABPwq9FAsK+VshA
ZeJEwrjP9sGT29pAwLdHwkgZ+cHzLahAF7FFwrPz4sGrZ89AZsRIwmVo5cF3up1AWFBOwheQ28HO
7BZBmVpQwl3Z8MGcZMFAeHA9wuip6MFjQbNAgh9KwhET7MHsRQdB2eROwuzs48EGJTdB

> <OMEGA_E>
onUEwQ==

> <OMEGA_NBR>
     47988

$$$$
CACHE3HI_1691_47
  -OEChem-03092622533D

 43 45  0     1  0  0  0  0  0999 V2000
  -54.7194  -27.6715   12.6114 C   0  0  0  0  0  0  0  0  0  0  0  0
  -54.8826  -26.3304   12.2644 C   0  0  0  0  0  0  0  0  0  0  0  0
  -54.2519  -28.5841   11.6659 C   0  0  0  0  0  0  0  0  0  0  0  0
  -54.5783  -25.9019   10.9722 C   0  0  0  0  0  0  0  0  0  0  0  0
  -46.1052  -29.5441    4.2933 C   0  0  0  0  0  0  0  0  0  0  0  0
  -44.5225  -29.6708    5.9205 C   0  0  0  0  0  0  0  0  0  0  0  0
  -53.9476  -28.1556   10.3737 C   0  0  0  0  0  0  0  0  0  0  0  0
  -47.0730  -29.2098    5.2183 C   0  0  0  0  0  0  0  0  0  0  0  0
  -54.1109  -26.8145   10.0266 C   0  0  0  0  0  0  0  0  0  0  0  0
  -46.6452  -29.1276    6.5274 C   0  0  0  0  0  0  0  0  0  0  0  0
  -53.4515  -29.1490    9.3876 C   0  0  0  0  0  0  0  0  0  0  0  0
  -48.4729  -28.9627    4.7889 C   0  0  0  0  0  0  0  0  0  0  0  0
  -51.7810  -30.2949    5.3441 C   0  0  0  0  0  0  0  0  0  0  0  0
  -51.9258  -29.3319    6.4887 C   0  0  2  0  0  0  0  0  0  0  0  0
  -50.8619  -29.1047    5.4432 C   0  0  1  0  0  0  0  0  0  0  0  0
  -53.7925  -26.3290    8.6500 C   0  0  0  0  0  0  0  0  0  0  0  0
  -51.5838  -29.7624    7.8740 C   0  0  0  0  0  0  0  0  0  0  0  0
  -44.8156  -29.7823    4.6107 N   0  0  0  0  0  0  0  0  0  0  0  0
  -45.3727  -29.3529    6.9158 N   0  0  0  0  0  0  0  0  0  0  0  0
  -47.5928  -28.7879    7.5248 N   0  0  0  0  0  0  0  0  0  0  0  0
  -49.4782  -29.2653    5.7148 N   0  0  0  0  0  0  0  0  0  0  0  0
  -52.2030  -28.8881    8.8765 N   0  0  0  0  0  0  0  0  0  0  0  0
  -54.1664  -30.0998    9.0821 O   0  0  0  0  0  0  0  0  0  0  0  0
  -48.6868  -28.5318    3.6589 O   0  0  0  0  0  0  0  0  0  0  0  0
  -54.9560  -28.0049   13.6174 H   0  0  0  0  0  0  0  0  0  0  0  0
  -55.2467  -25.6200   13.0007 H   0  0  0  0  0  0  0  0  0  0  0  0
  -54.1287  -29.6263   11.9486 H   0  0  0  0  0  0  0  0  0  0  0  0
  -54.7091  -24.8546   10.7119 H   0  0  0  0  0  0  0  0  0  0  0  0
  -46.3362  -29.6349    3.2363 H   0  0  0  0  0  0  0  0  0  0  0  0
  -43.4942  -29.8592    6.2041 H   0  0  0  0  0  0  0  0  0  0  0  0
  -51.3722  -31.2782    5.5435 H   0  0  0  0  0  0  0  0  0  0  0  0
  -52.5429  -30.2795    4.5738 H   0  0  0  0  0  0  0  0  0  0  0  0
  -52.7797  -28.6641    6.4781 H   0  0  0  0  0  0  0  0  0  0  0  0
  -51.0422  -28.2966    4.7416 H   0  0  0  0  0  0  0  0  0  0  0  0
  -52.7461  -26.0082    8.5750 H   0  0  0  0  0  0  0  0  0  0  0  0
  -54.4123  -25.4643    8.3822 H   0  0  0  0  0  0  0  0  0  0  0  0
  -53.9674  -27.1250    7.9171 H   0  0  0  0  0  0  0  0  0  0  0  0
  -51.9241  -30.7960    8.0646 H   0  0  0  0  0  0  0  0  0  0  0  0
  -50.4908  -29.7584    8.0363 H   0  0  0  0  0  0  0  0  0  0  0  0
  -48.5242  -28.5673    7.2474 H   0  0  0  0  0  0  0  0  0  0  0  0
  -47.2818  -28.6745    8.4648 H   0  0  0  0  0  0  0  0  0  0  0  0
  -49.2024  -29.6805    6.6123 H   0  0  0  0  0  0  0  0  0  0  0  0
  -51.6876  -28.0595    9.1157 H   0  0  0  0  0  0  0  0  0  0  0  0
  1  2  1  0  0  0  0
  1  3  2  0  0  0  0
  2  4  2  0  0  0  0
  3  7  1  0  0  0  0
  4  9  1  0  0  0  0
  5  8  1  0  0  0  0
  5 18  2  0  0  0  0
  6 18  1  0  0  0  0
  6 19  2  0  0  0  0
  7  9  2  0  0  0  0
  7 11  1  0  0  0  0
  8 10  2  0  0  0  0
  8 12  1  0  0  0  0
  9 16  1  0  0  0  0
 10 19  1  0  0  0  0
 10 20  1  0  0  0  0
 11 22  1  0  0  0  0
 11 23  2  0  0  0  0
 12 21  1  0  0  0  0
 12 24  2  0  0  0  0
 13 14  1  0  0  0  0
 13 15  1  0  0  0  0
 14 15  1  0  0  0  0
 14 17  1  0  0  0  0
 15 21  1  0  0  0  0
 17 22  1  0  0  0  0
  1 25  1  0  0  0  0
  2 26  1  0  0  0  0
  3 27  1  0  0  0  0
  4 28  1  0  0  0  0
  5 29  1  0  0  0  0
  6 30  1  0  0  0  0
 13 31  1  0  0  0  0
 13 32  1  0  0  0  0
 14 33  1  0  0  0  0
 15 34  1  0  0  0  0
 16 35  1  0  0  0  0
 16 36  1  0  0  0  0
 16 37  1  0  0  0  0
 17 38  1  0  0  0  0
 17 39  1  0  0  0  0
 20 40  1  0  0  0  0
 20 41  1  0  0  0  0
 21 42  1  0  0  0  0
 22 43  1  0  0  0  0
M  END
> <POSIT::Probability>
0.18

> <POSIT::Method>
HYBRID

> <ReceptorTitle>
UCSF-P4578-REFINED_LIGAND-BOUND-STATE_A__DU__LA1_A-201(A)

> <OMEGA_C>
ouBawlJf3cFyyElB0Idbwrmk0sHKOkRB/AFZwk6s5MFXpzpBL1Bawhk3z8H+jS9BuGs4wmZa7MFf
YolADRcywt9d7cGZdL1AWspXwq4+4cGK+iVBt0o8wr6t6cH++6ZAg3FYwjGE1sHObCBBs5Q6wlUF
6cHW4NBAWc5Vwh0x6cGIMxZBQORBwouz58GmPplAyR9Pwvpb8sGQAqtA/rNPwrSn6sFRo89AonJL
wmDW6MFzLq5AeStXwsWh0sGGZgpBxFVOwlkZ7sGh9/tAKUMzwhFC7sHkipNApX01wrrS6sFATt1A
AF8+wrBN5sHWyvBAuOlFwj0f6sHE37ZA189Qwuwa58ESBg5BWKpYwlTM8MEcUBFBSL9CwgdB5MFe
K2pA+tJbwhwK4MHK4FlBnvxcwtD1zMG6AlBBz4NYwq4C7cGaLT9BJ9ZawlLWxsHFYytBQ1g5wkIU
7cEaIE9AHPotwp3f7sE4iMZAFX1Nwtg5+sFSZLFA6CtSwlQ88sEyXJJAah5TwiBQ5cF4TM9AQStM
wmRf4sEGu5dACvxSwsIQ0MEbMwlBLqZZwsy2y8F2HQZBo95Xwvr/2MHvWP1AS7JPwjle9sGqCAFB
lfZJwhsR7sGVlABBxxhCwsCJ5MHE6udAiSA9wnBl5cGebwdBRs9Ewq5x7cGil9NAGsBOwvR54MEQ
2hFB

> <OMEGA_E>
9HHUwA==

> <OMEGA_NBR>
     49348

$$$$
CACHE3HI_1691_50
  -OEChem-03092622533D

 50 52  0     1  0  0  0  0  0999 V2000
  -43.7835  -30.6611    3.1029 C   0  0  0  0  0  0  0  0  0  0  0  0
  -41.6568  -30.3698    3.8521 C   0  0  0  0  0  0  0  0  0  0  0  0
  -43.5977  -29.7151    2.1157 C   0  0  0  0  0  0  0  0  0  0  0  0
  -42.3499  -29.1274    2.0785 C   0  0  0  0  0  0  0  0  0  0  0  0
  -44.6970  -29.3814    1.1748 C   0  0  0  0  0  0  0  0  0  0  0  0
  -48.7176  -29.5586    2.5625 C   0  0  0  0  0  0  0  0  0  0  0  0
  -50.7197  -30.7239    3.8107 C   0  0  0  0  0  0  0  0  0  0  0  0
  -49.9753  -28.9792    4.8110 C   0  0  0  0  0  0  0  0  0  0  0  0
  -49.9448  -29.9434    0.3743 C   0  0  0  0  0  0  0  0  0  0  0  0
  -47.6184  -29.0820    0.4054 C   0  0  0  0  0  0  0  0  0  0  0  0
  -49.7709  -31.3601   -0.1586 C   0  0  0  0  0  0  0  0  0  0  0  0
  -47.4019  -31.6007   -0.1961 C   0  0  0  0  0  0  0  0  0  0  0  0
  -50.0376  -29.4198    3.3270 C   0  0  0  0  0  0  0  0  0  0  0  0
  -46.7076  -30.2439   -0.0288 C   0  0  2  0  0  0  0  0  0  0  0  0
  -51.1107  -29.9934    5.1257 C   0  0  0  0  0  0  0  0  0  0  0  0
  -50.8740  -30.8183    6.3869 C   0  0  0  0  0  0  0  0  0  0  0  0
  -52.5143  -29.3855    5.1097 C   0  0  0  0  0  0  0  0  0  0  0  0
  -42.8312  -31.0142    3.9912 N   0  0  0  0  0  0  0  0  0  0  0  0
  -41.3522  -29.4316    2.9347 N   0  0  0  0  0  0  0  0  0  0  0  0
  -48.7930  -29.5026    1.1694 N   0  0  0  0  0  0  0  0  0  0  0  0
  -42.0970  -28.1475    1.0867 N   0  0  0  0  0  0  0  0  0  0  0  0
  -45.5842  -30.4077    0.8979 N   0  0  0  0  0  0  0  0  0  0  0  0
  -44.7506  -28.2542    0.6900 O   0  0  0  0  0  0  0  0  0  0  0  0
  -47.6658  -29.7071    3.1908 O   0  0  0  0  0  0  0  0  0  0  0  0
  -48.6006  -31.4956   -0.9636 O   0  0  0  0  0  0  0  0  0  0  0  0
  -44.7280  -31.1836    3.2190 H   0  0  0  0  0  0  0  0  0  0  0  0
  -40.8747  -30.6321    4.5540 H   0  0  0  0  0  0  0  0  0  0  0  0
  -51.5516  -31.0681    3.1878 H   0  0  0  0  0  0  0  0  0  0  0  0
  -50.0252  -31.5627    3.9451 H   0  0  0  0  0  0  0  0  0  0  0  0
  -49.0180  -29.2019    5.2990 H   0  0  0  0  0  0  0  0  0  0  0  0
  -50.2108  -27.9251    4.9899 H   0  0  0  0  0  0  0  0  0  0  0  0
  -50.1088  -29.2155   -0.4330 H   0  0  0  0  0  0  0  0  0  0  0  0
  -50.8423  -29.9175    1.0079 H   0  0  0  0  0  0  0  0  0  0  0  0
  -47.0464  -28.3883    1.0119 H   0  0  0  0  0  0  0  0  0  0  0  0
  -47.9832  -28.5577   -0.4728 H   0  0  0  0  0  0  0  0  0  0  0  0
  -49.7737  -32.1097    0.6398 H   0  0  0  0  0  0  0  0  0  0  0  0
  -50.6168  -31.5908   -0.8133 H   0  0  0  0  0  0  0  0  0  0  0  0
  -46.7520  -32.2767   -0.7688 H   0  0  0  0  0  0  0  0  0  0  0  0
  -47.6004  -32.0944    0.7665 H   0  0  0  0  0  0  0  0  0  0  0  0
  -50.7213  -28.7948    2.7407 H   0  0  0  0  0  0  0  0  0  0  0  0
  -46.2146  -29.9797   -0.9974 H   0  0  0  0  0  0  0  0  0  0  0  0
  -51.1690  -30.2461    7.2657 H   0  0  0  0  0  0  0  0  0  0  0  0
  -49.8189  -31.0766    6.4691 H   0  0  0  0  0  0  0  0  0  0  0  0
  -51.4617  -31.7356    6.3469 H   0  0  0  0  0  0  0  0  0  0  0  0
  -52.7129  -28.8944    6.0601 H   0  0  0  0  0  0  0  0  0  0  0  0
  -53.2522  -30.1690    4.9504 H   0  0  0  0  0  0  0  0  0  0  0  0
  -52.5895  -28.6544    4.3063 H   0  0  0  0  0  0  0  0  0  0  0  0
  -42.8058  -27.9500    0.4146 H   0  0  0  0  0  0  0  0  0  0  0  0
  -41.1828  -27.7566    1.0191 H   0  0  0  0  0  0  0  0  0  0  0  0
  -45.4408  -31.3324    1.2872 H   0  0  0  0  0  0  0  0  0  0  0  0
  1  3  1  0  0  0  0
  1 18  2  0  0  0  0
  2 18  1  0  0  0  0
  2 19  2  0  0  0  0
  3  4  2  0  0  0  0
  3  5  1  0  0  0  0
  4 19  1  0  0  0  0
  4 21  1  0  0  0  0
  5 22  1  0  0  0  0
  5 23  2  0  0  0  0
  6 13  1  0  0  0  0
  6 20  1  0  0  0  0
  6 24  2  0  0  0  0
  7 13  1  0  0  0  0
  7 15  1  0  0  0  0
  8 13  1  0  0  0  0
  8 15  1  0  0  0  0
  9 11  1  0  0  0  0
  9 20  1  0  0  0  0
 10 14  1  0  0  0  0
 10 20  1  0  0  0  0
 11 25  1  0  0  0  0
 12 14  1  0  0  0  0
 12 25  1  0  0  0  0
 14 22  1  0  0  0  0
 15 16  1  0  0  0  0
 15 17  1  0  0  0  0
  1 26  1  0  0  0  0
  2 27  1  0  0  0  0
  7 28  1  0  0  0  0
  7 29  1  0  0  0  0
  8 30  1  0  0  0  0
  8 31  1  0  0  0  0
  9 32  1  0  0  0  0
  9 33  1  0  0  0  0
 10 34  1  0  0  0  0
 10 35  1  0  0  0  0
 11 36  1  0  0  0  0
 11 37  1  0  0  0  0
 12 38  1  0  0  0  0
 12 39  1  0  0  0  0
 13 40  1  0  0  0  0
 14 41  1  0  0  0  0
 16 42  1  0  0  0  0
 16 43  1  0  0  0  0
 16 44  1  0  0  0  0
 17 45  1  0  0  0  0
 17 46  1  0  0  0  0
 17 47  1  0  0  0  0
 21 48  1  0  0  0  0
 21 49  1  0  0  0  0
 22 50  1  0  0  0  0
M  END
> <POSIT::Probability>
0.02

> <POSIT::Method>
FRED

> <ReceptorTitle>
UCSF-P4578-REFINED_LIGAND-BOUND-STATE_A__DU__LA1_A-201(A)

> <OMEGA_C>
QyIvwvJJ9cHblUZAk6Amwlr18sFviHZAAmQuwna47cFqaAdASGYpwugE6cGiBgVAuMkywhwN68EV
X5Y/1t5Cwhx47MGUACRA/+BKwoDK9cGP4nNAvOZHwlzV58EM9JlAc8dHwi6M78G+nr8+Nnk+wvin
6MHdk88+ZRVHwpLh+sHwWiK+gJs9wjLO/MEgw0i+iCZIwrtb68FA7lRAm9Q6wmjz8cHwseu8XHFM
wn/y78HQBaRAAX9LwtGL9sGMYcxAmA5SwogV68HfgqNAKVMrwhQd+MH2b39Aq2glwvxz68GX0TtA
CSxDwlIF7MHTrpU/WGMowh4u4cFkGIs/OFY2wuZC88H02WU/kwAzwrQI4sGIpDA/zKk+wjuo7cHm
NUxAAWdCwgL3+8FBrXa/gekywv13+cG+BE5ApX8jwoYO9cFhupFA1zROwouL+MFeBUxAxxlIwnWA
/MH2e3xAcRJEwm6d6cHNkalA2tdIwqFm38FyrZ9Ac29Iwm+56cGAr92+gV5Lwh1X78GYA4E/iy88
wjAb48GDh4E/0e4/wjt25MHuEvK+PhhHwklwAMLKxiM/o3dKwu65/MHHM1C/EAI7wlcbAcKJzkS/
zGY+wq9gAML1N0Q/mOJKwrJb5sE6aC9AwNs4wnjW78HHU3+/Eq1MwvD38cFDgOhAmEZHws2c+MHX
As9AzthNwmzi/cE1GstA9tlSwrIn58H+68FASQJVwhda8cGJaZ5AmVtSwkc85cGdzYlALjkrwp6Z
38FoQ9Q+MrskwoQN3sG0cII/YsM1wq2o+sEGw6Q/

> <OMEGA_E>
VK0JwQ==

> <OMEGA_NBR>
     50840

$$$$
CACHE3HI_1691_54
  -OEChem-03092622533D

 46 49  0     1  0  0  0  0  0999 V2000
  -46.5976  -29.1031    4.3406 C   0  0  0  0  0  0  0  0  0  0  0  0
  -54.8129  -25.7486   11.4568 C   0  0  0  0  0  0  0  0  0  0  0  0
  -54.9372  -26.7690   10.5448 C   0  0  0  0  0  0  0  0  0  0  0  0
  -56.4460  -27.0410   12.2423 C   0  0  0  0  0  0  0  0  0  0  0  0
  -47.8986  -29.2861    4.9823 C   0  0  0  0  0  0  0  0  0  0  0  0
  -45.6441  -29.1997    5.3152 C   0  0  0  0  0  0  0  0  0  0  0  0
  -54.9148  -29.3871    8.4105 C   0  0  0  0  0  0  0  0  0  0  0  0
  -50.4150  -29.8745    4.7434 C   0  0  0  0  0  0  0  0  0  0  0  0
  -52.8475  -31.9702    8.6285 C   0  0  0  0  0  0  0  0  0  0  0  0
  -53.1502  -29.6712    6.6098 C   0  0  0  0  0  0  0  0  0  0  0  0
  -51.7082  -31.1307    8.0051 C   0  0  2  0  0  0  0  0  0  0  0  0
  -52.7400  -30.4666    8.8782 C   0  0  1  0  0  0  0  0  0  0  0  0
  -51.9360  -30.6471    6.5727 C   0  0  2  0  0  0  0  0  0  0  0  0
  -44.1563  -29.0426    5.1228 C   0  0  0  0  0  0  0  0  0  0  0  0
  -49.2043  -29.0694    4.2418 C   0  0  0  0  0  0  0  0  0  0  0  0
  -55.3626  -29.6937    9.8727 C   0  0  0  0  0  0  0  0  0  0  0  0
  -56.4829  -28.7706   10.4110 C   0  0  0  0  0  0  0  0  0  0  0  0
  -55.7616  -25.9423   12.4815 N   0  0  0  0  0  0  0  0  0  0  0  0
  -47.6898  -29.4753    6.2648 N   0  0  0  0  0  0  0  0  0  0  0  0
  -55.9398  -27.5462   11.0656 N   0  0  0  0  0  0  0  0  0  0  0  0
  -53.6105  -29.6989    8.0087 N   0  0  0  0  0  0  0  0  0  0  0  0
  -50.7069  -29.9902    6.0964 N   0  0  0  0  0  0  0  0  0  0  0  0
  -55.7610  -29.1071    7.5680 O   0  0  0  0  0  0  0  0  0  0  0  0
  -51.2658  -30.1907    3.9200 O   0  0  0  0  0  0  0  0  0  0  0  0
  -46.2892  -29.4494    6.4886 O   0  0  0  0  0  0  0  0  0  0  0  0
  -46.4222  -28.9244    3.2900 H   0  0  0  0  0  0  0  0  0  0  0  0
  -54.1062  -24.9340   11.3983 H   0  0  0  0  0  0  0  0  0  0  0  0
  -54.3779  -26.9224    9.6338 H   0  0  0  0  0  0  0  0  0  0  0  0
  -57.2396  -27.4591   12.8438 H   0  0  0  0  0  0  0  0  0  0  0  0
  -53.6520  -32.3699    7.9936 H   0  0  0  0  0  0  0  0  0  0  0  0
  -52.6310  -32.6828    9.4380 H   0  0  0  0  0  0  0  0  0  0  0  0
  -52.8401  -28.6554    6.3237 H   0  0  0  0  0  0  0  0  0  0  0  0
  -53.9457  -30.0161    5.9329 H   0  0  0  0  0  0  0  0  0  0  0  0
  -50.6807  -31.2654    8.3739 H   0  0  0  0  0  0  0  0  0  0  0  0
  -52.4627  -30.1006    9.8778 H   0  0  0  0  0  0  0  0  0  0  0  0
  -52.1830  -31.5053    5.9303 H   0  0  0  0  0  0  0  0  0  0  0  0
  -43.6464  -29.1609    6.0903 H   0  0  0  0  0  0  0  0  0  0  0  0
  -43.7944  -29.8090    4.4216 H   0  0  0  0  0  0  0  0  0  0  0  0
  -43.9429  -28.0432    4.7158 H   0  0  0  0  0  0  0  0  0  0  0  0
  -49.4582  -28.0016    4.3158 H   0  0  0  0  0  0  0  0  0  0  0  0
  -49.0393  -29.3348    3.1871 H   0  0  0  0  0  0  0  0  0  0  0  0
  -55.7257  -30.7314    9.9098 H   0  0  0  0  0  0  0  0  0  0  0  0
  -54.4862  -29.5882   10.5291 H   0  0  0  0  0  0  0  0  0  0  0  0
  -57.1259  -28.4676    9.5715 H   0  0  0  0  0  0  0  0  0  0  0  0
  -57.0797  -29.3301   11.1465 H   0  0  0  0  0  0  0  0  0  0  0  0
  -50.0646  -29.6170    6.7659 H   0  0  0  0  0  0  0  0  0  0  0  0
  1  5  1  0  0  0  0
  1  6  2  0  0  0  0
  2  3  2  0  0  0  0
  2 18  1  0  0  0  0
  3 20  1  0  0  0  0
  4 18  2  0  0  0  0
  4 20  1  0  0  0  0
  5 15  1  0  0  0  0
  5 19  2  0  0  0  0
  6 14  1  0  0  0  0
  6 25  1  0  0  0  0
  7 16  1  0  0  0  0
  7 21  1  0  0  0  0
  7 23  2  0  0  0  0
  8 15  1  0  0  0  0
  8 22  1  0  0  0  0
  8 24  2  0  0  0  0
  9 11  1  0  0  0  0
  9 12  1  0  0  0  0
 10 13  1  0  0  0  0
 10 21  1  0  0  0  0
 11 12  1  0  0  0  0
 11 13  1  0  0  0  0
 12 21  1  0  0  0  0
 13 22  1  0  0  0  0
 16 17  1  0  0  0  0
 17 20  1  0  0  0  0
 19 25  1  0  0  0  0
  1 26  1  0  0  0  0
  2 27  1  0  0  0  0
  3 28  1  0  0  0  0
  4 29  1  0  0  0  0
  9 30  1  0  0  0  0
  9 31  1  0  0  0  0
 10 32  1  0  0  0  0
 10 33  1  0  0  0  0
 11 34  1  0  0  0  0
 12 35  1  0  0  0  0
 13 36  1  0  0  0  0
 14 37  1  0  0  0  0
 14 38  1  0  0  0  0
 14 39  1  0  0  0  0
 15 40  1  0  0  0  0
 15 41  1  0  0  0  0
 16 42  1  0  0  0  0
 16 43  1  0  0  0  0
 17 44  1  0  0  0  0
 17 45  1  0  0  0  0
 22 46  1  0  0  0  0
M  END
> <POSIT::Probability>
0.5

> <POSIT::Method>
SHAPEFIT

> <ReceptorTitle>
UCSF-P4578-REFINED_LIGAND-BOUND-STATE_A__DU__LA1_A-201(A)

> <OMEGA_C>
7WM6whTT6MF65opAcUBbwi79zcH1TjdBvr9bwtsm1sGEtyhBvMhhwuxT2MFf4ENBNZg/wudJ6sHJ
bp9AkZM2wgSZ6cFWFqpAv6hbwtwY68GbkQZB96hJwuT+7sGjyZdA3mNTwvLC/8FKDgpBy5lUwqVe
7cFng9NAPtVOwqIL+cG3FABBz/VSwpS788FPDQ5BgL5PwlIt9cFQU9JAC6Awwj5X6MEM7qNAPdFE
wh6O6MGFvIdARXNdwr2M7cGf9h1Biu5hwj0q5sGXkyZB2wtfwt6Jz8EWtEdBUcI+woTN68H7eMhA
U8Jfwp5e3MG7DDFBMHFWwl2X7cF6IwBB29NKwtvr78HWFcNATAtfwkLb6MH0LPJALhBNwoOG8cGc
4XpAGyg5wlSY68Faos9AYLA5wi9l58EdkFJAyWxYwuV4x8FgXzZB/oJZwhlh18HcIxpBVfVkwlGs
28EogE1Bn5tWwsJ6AcJqy/9AI4ZSwi67AsIMAhdBOVxTwi8+5cFpW8pAachXwuMg8MEN2r1AEblK
woof+sGa+wVB09lRwh3O8MGcCx5Ba7tQwsIK/MEixb1A65UuwoBJ6cGr48JAfi0vwud47sEffo1A
fcUvwoBY4MGg55ZALNVFwl4D4MHdGopAPihEwqet6sFV+UtAE+dewurZ9cGojh5B4PFZwqG07ME4
dyhB4IBkwqm948HFJBlBm1FkwgSk6sEHWDJBG0JIwprv7MHhgdhA

> <OMEGA_E>
eH9dPw==

> <OMEGA_NBR>
     52292

$$$$
CACHE3HI_1691_6
  -OEChem-03092622533D

 38 40  0     1  0  0  0  0  0999 V2000
  -43.1017  -29.6949    2.1347 C   0  0  0  0  0  0  0  0  0  0  0  0
  -44.0321  -29.8392    1.0880 C   0  0  0  0  0  0  0  0  0  0  0  0
  -43.5264  -29.5007    3.4529 C   0  0  0  0  0  0  0  0  0  0  0  0
  -45.4040  -29.7934    1.3409 C   0  0  0  0  0  0  0  0  0  0  0  0
  -44.8882  -29.4557    3.6968 C   0  0  0  0  0  0  0  0  0  0  0  0
  -45.7971  -29.6005    2.6491 C   0  0  0  0  0  0  0  0  0  0  0  0
  -45.5199  -29.2609    5.0165 C   0  0  0  0  0  0  0  0  0  0  0  0
  -49.1617  -29.8842    5.6355 C   0  0  0  0  0  0  0  0  0  0  0  0
  -51.6552  -31.2669    8.1978 C   0  0  0  0  0  0  0  0  0  0  0  0
  -52.2628  -30.3545    6.3458 C   0  0  0  0  0  0  0  0  0  0  0  0
  -52.6590  -30.1506    7.8268 C   0  0  2  0  0  0  0  0  0  0  0  0
  -51.0018  -31.1122    6.8090 C   0  0  1  0  0  0  0  0  0  0  0  0
  -47.8936  -29.1126    5.9322 C   0  0  0  0  0  0  0  0  0  0  0  0
  -52.3775  -28.7754    8.4117 C   0  0  0  0  0  0  0  0  0  0  0  0
  -46.9426  -29.2787    4.8239 N   0  0  0  0  0  0  0  0  0  0  0  0
  -49.7819  -30.3093    6.8016 N   0  0  0  0  0  0  0  0  0  0  0  0
  -44.9266  -29.1131    6.0694 O   0  0  0  0  0  0  0  0  0  0  0  0
  -49.5532  -30.1252    4.4963 O   0  0  0  0  0  0  0  0  0  0  0  0
  -48.0516  -30.8148    3.0393 O   0  0  0  0  0  0  0  0  0  0  0  0
  -48.0328  -28.2926    2.6757 O   0  0  0  0  0  0  0  0  0  0  0  0
  -53.3787  -27.8714    7.9688 O   0  0  0  0  0  0  0  0  0  0  0  0
  -47.4482  -29.5094    3.1961 S   0  0  0  0  0  0  0  0  0  0  0  0
  -42.0384  -29.7349    1.9129 H   0  0  0  0  0  0  0  0  0  0  0  0
  -43.6755  -29.9889    0.0724 H   0  0  0  0  0  0  0  0  0  0  0  0
  -42.8005  -29.3906    4.2513 H   0  0  0  0  0  0  0  0  0  0  0  0
  -46.1218  -29.9049    0.5367 H   0  0  0  0  0  0  0  0  0  0  0  0
  -50.9920  -31.0192    9.0461 H   0  0  0  0  0  0  0  0  0  0  0  0
  -52.1029  -32.2526    8.4022 H   0  0  0  0  0  0  0  0  0  0  0  0
  -52.9749  -30.9437    5.7461 H   0  0  0  0  0  0  0  0  0  0  0  0
  -52.0591  -29.4178    5.7965 H   0  0  0  0  0  0  0  0  0  0  0  0
  -53.7008  -30.4434    8.0240 H   0  0  0  0  0  0  0  0  0  0  0  0
  -50.8447  -32.0659    6.2867 H   0  0  0  0  0  0  0  0  0  0  0  0
  -48.1059  -28.0451    6.0398 H   0  0  0  0  0  0  0  0  0  0  0  0
  -47.4338  -29.4953    6.8472 H   0  0  0  0  0  0  0  0  0  0  0  0
  -51.4011  -28.4106    8.0806 H   0  0  0  0  0  0  0  0  0  0  0  0
  -52.3950  -28.8127    9.5052 H   0  0  0  0  0  0  0  0  0  0  0  0
  -49.3679  -30.0499    7.6921 H   0  0  0  0  0  0  0  0  0  0  0  0
  -53.1697  -27.0069    8.3589 H   0  0  0  0  0  0  0  0  0  0  0  0
  1  2  2  0  0  0  0
  1  3  1  0  0  0  0
  2  4  1  0  0  0  0
  3  5  2  0  0  0  0
  4  6  2  0  0  0  0
  5  6  1  0  0  0  0
  5  7  1  0  0  0  0
  6 22  1  0  0  0  0
  7 15  1  0  0  0  0
  7 17  2  0  0  0  0
  8 13  1  0  0  0  0
  8 16  1  0  0  0  0
  8 18  2  0  0  0  0
  9 11  1  0  0  0  0
  9 12  1  0  0  0  0
 10 11  1  0  0  0  0
 10 12  1  0  0  0  0
 11 14  1  0  0  0  0
 12 16  1  0  0  0  0
 13 15  1  0  0  0  0
 14 21  1  0  0  0  0
 15 22  1  0  0  0  0
 19 22  2  0  0  0  0
 20 22  2  0  0  0  0
  1 23  1  0  0  0  0
  2 24  1  0  0  0  0
  3 25  1  0  0  0  0
  4 26  1  0  0  0  0
  9 27  1  0  0  0  0
  9 28  1  0  0  0  0
 10 29  1  0  0  0  0
 10 30  1  0  0  0  0
 11 31  1  0  0  0  0
 12 32  1  0  0  0  0
 13 33  1  0  0  0  0
 13 34  1  0  0  0  0
 14 35  1  0  0  0  0
 14 36  1  0  0  0  0
 16 37  1  0  0  0  0
 21 38  1  0  0  0  0
M  END
> <POSIT::Probability>
0.24

> <POSIT::Method>
FRED

> <ReceptorTitle>
UCSF-P4578-REFINED_LIGAND-BOUND-STATE_A__DU__LA1_A-201(A)

> <OMEGA_C>
GmgswiyP7cH3nghA6iAwwqK27sGoRIs/Bhsuwn0B7MGy+1xAp501wuRY7sFMoas/kY0zwlql68Ee
mWxAOTA3wsTN7MFliylAahQ2wlsW6sFOh6BAjKVEwswS78ELVrRA5p5Owpgi+sFTKgNBJQ1RwvzV
8sG4EMtA06JSwm808cHpdPpA3gFMwrXl+MGm49lAEpM/wrLm6MF91L1AnIJRwhE05sFclgZBPsU7
wtQ66sE9XZpAsCBHwoh58sF0ptlA0rQzwpbn6MF0OMJAeDZGwlYA8cGq4Y9A0jRAwruE9sFPhEJA
jSFAwlRX4sFPPytAwYNVwoj43sFvAP9AAcs9wkIT7MFXjUxATicowibh7cEG2fQ/u7Muwi/p78EA
X5Q9wTMrwuof68HhCohAw3w4wj8978FkYgk/0vdLwmMn+MHevBBBXWlQwrUCAcJebwZBQOZTwreM
98Gs37dAkDxQwphX68EifblAo81Wwg6M88FKYgBB/2BLwn5DAMLvLMlAamxAwmlc4ME/RsFAMLw9
wnT268FgHNtAwZpNwvJI48FQSgFBeJRRwlCA5sElFRhBwHhFwkNm8MEUJvZAuq1UwgsO2MEDvgVB

> <OMEGA_E>
beP4wA==

> <OMEGA_NBR>
     53547

$$$$
CACHE3HI_1691_81
  -OEChem-03092622533D

 44 46  0     1  0  0  0  0  0999 V2000
  -55.4497  -28.0287   11.8789 C   0  0  0  0  0  0  0  0  0  0  0  0
  -55.0090  -25.8242   10.9937 C   0  0  0  0  0  0  0  0  0  0  0  0
  -55.7825  -27.4666   13.1114 C   0  0  0  0  0  0  0  0  0  0  0  0
  -55.3418  -25.2621   12.2262 C   0  0  0  0  0  0  0  0  0  0  0  0
  -47.7719  -29.8843    6.6971 C   0  0  0  0  0  0  0  0  0  0  0  0
  -46.3148  -28.9160    5.2451 C   0  0  0  0  0  0  0  0  0  0  0  0
  -55.0631  -27.2072   10.8200 C   0  0  0  0  0  0  0  0  0  0  0  0
  -48.7128  -30.0357    5.6993 C   0  0  0  0  0  0  0  0  0  0  0  0
  -55.7284  -26.0835   13.2851 C   0  0  0  0  0  0  0  0  0  0  0  0
  -48.3417  -29.5746    4.4530 C   0  0  0  0  0  0  0  0  0  0  0  0
  -54.7096  -27.8050    9.5074 C   0  0  0  0  0  0  0  0  0  0  0  0
  -50.0280  -30.6603    5.9918 C   0  0  0  0  0  0  0  0  0  0  0  0
  -52.1837  -30.9710    9.1688 C   0  0  0  0  0  0  0  0  0  0  0  0
  -52.9391  -30.1968    8.1255 C   0  0  2  0  0  0  0  0  0  0  0  0
  -51.7607  -31.0494    7.7244 C   0  0  1  0  0  0  0  0  0  0  0  0
  -55.9758  -24.1148   14.5966 C   0  0  0  0  0  0  0  0  0  0  0  0
  -52.8718  -28.7080    8.1064 C   0  0  0  0  0  0  0  0  0  0  0  0
  -46.5583  -29.3268    6.5044 N   0  0  0  0  0  0  0  0  0  0  0  0
  -47.1463  -29.0069    4.1891 N   0  0  0  0  0  0  0  0  0  0  0  0
  -49.2654  -29.7019    3.3860 N   0  0  0  0  0  0  0  0  0  0  0  0
  -50.5300  -30.4936    7.2878 N   0  0  0  0  0  0  0  0  0  0  0  0
  -53.3835  -28.1311    9.3546 N   0  0  0  0  0  0  0  0  0  0  0  0
  -55.5853  -27.9498    8.6586 O   0  0  0  0  0  0  0  0  0  0  0  0
  -50.5981  -31.2989    5.1111 O   0  0  0  0  0  0  0  0  0  0  0  0
  -56.0527  -25.5356   14.4881 O   0  0  0  0  0  0  0  0  0  0  0  0
  -55.4962  -29.1075   11.7540 H   0  0  0  0  0  0  0  0  0  0  0  0
  -54.7079  -25.1753   10.1752 H   0  0  0  0  0  0  0  0  0  0  0  0
  -56.0836  -28.1115   13.9323 H   0  0  0  0  0  0  0  0  0  0  0  0
  -55.2969  -24.1842   12.3552 H   0  0  0  0  0  0  0  0  0  0  0  0
  -47.9631  -30.2140    7.7137 H   0  0  0  0  0  0  0  0  0  0  0  0
  -45.3485  -28.4621    5.0623 H   0  0  0  0  0  0  0  0  0  0  0  0
  -51.5519  -30.4268    9.8607 H   0  0  0  0  0  0  0  0  0  0  0  0
  -52.6671  -31.8398    9.5993 H   0  0  0  0  0  0  0  0  0  0  0  0
  -53.9246  -30.5548    7.8502 H   0  0  0  0  0  0  0  0  0  0  0  0
  -51.9909  -31.9735    7.2041 H   0  0  0  0  0  0  0  0  0  0  0  0
  -56.2601  -23.8093   15.6069 H   0  0  0  0  0  0  0  0  0  0  0  0
  -54.9492  -23.7979   14.3979 H   0  0  0  0  0  0  0  0  0  0  0  0
  -56.6441  -23.6560   13.8643 H   0  0  0  0  0  0  0  0  0  0  0  0
  -51.8327  -28.3587    7.9690 H   0  0  0  0  0  0  0  0  0  0  0  0
  -53.4552  -28.2914    7.2656 H   0  0  0  0  0  0  0  0  0  0  0  0
  -50.1313  -30.1663    3.5528 H   0  0  0  0  0  0  0  0  0  0  0  0
  -48.9859  -29.4202    2.4719 H   0  0  0  0  0  0  0  0  0  0  0  0
  -49.9497  -29.9954    7.9726 H   0  0  0  0  0  0  0  0  0  0  0  0
  -52.6972  -27.9322   10.0609 H   0  0  0  0  0  0  0  0  0  0  0  0
  1  3  2  0  0  0  0
  1  7  1  0  0  0  0
  2  4  1  0  0  0  0
  2  7  2  0  0  0  0
  3  9  1  0  0  0  0
  4  9  2  0  0  0  0
  5  8  1  0  0  0  0
  5 18  2  0  0  0  0
  6 18  1  0  0  0  0
  6 19  2  0  0  0  0
  7 11  1  0  0  0  0
  8 10  2  0  0  0  0
  8 12  1  0  0  0  0
  9 25  1  0  0  0  0
 10 19  1  0  0  0  0
 10 20  1  0  0  0  0
 11 22  1  0  0  0  0
 11 23  2  0  0  0  0
 12 21  1  0  0  0  0
 12 24  2  0  0  0  0
 13 14  1  0  0  0  0
 13 15  1  0  0  0  0
 14 15  1  0  0  0  0
 14 17  1  0  0  0  0
 15 21  1  0  0  0  0
 16 25  1  0  0  0  0
 17 22  1  0  0  0  0
  1 26  1  0  0  0  0
  2 27  1  0  0  0  0
  3 28  1  0  0  0  0
  4 29  1  0  0  0  0
  5 30  1  0  0  0  0
  6 31  1  0  0  0  0
 13 32  1  0  0  0  0
 13 33  1  0  0  0  0
 14 34  1  0  0  0  0
 15 35  1  0  0  0  0
 16 36  1  0  0  0  0
 16 37  1  0  0  0  0
 16 38  1  0  0  0  0
 17 39  1  0  0  0  0
 17 40  1  0  0  0  0
 20 41  1  0  0  0  0
 20 42  1  0  0  0  0
 21 43  1  0  0  0  0
 22 44  1  0  0  0  0
M  END
> <POSIT::Probability>
0.18

> <POSIT::Method>
HYBRID

> <ReceptorTitle>
UCSF-P4578-REFINED_LIGAND-BOUND-STATE_A__DU__LA1_A-201(A)

> <OMEGA_C>
iMxdwrA64MHyDz5BRAlcwuCXzsFD5i9BRCFfwoW728E9yFFB/V1dwrAYysFQnkNBYhY/wvwS78Ge
TtZAYkI5wghU58Gx16dApkBcwmqo2cG8Hi1B9dlCwhJJ8MG4YLZA4ulewvyq0MHCj1RB5l1BwteY
7MGwfo5An9ZawpZw3sE1HhhBphxIwlxI9cGAvL9AFLxQwoXE98E7sxJBq8FTwv6S8cHqAQJB9gpP
wh9l+MFULvdAOedfwgbrwMGQi2lBr3xTwv6p5cHkswFBvzs6wj+d6sHKI9BAy5U8wjkO6MGEDYZA
xA9Fwoqd7cEQtFhAsx5KwtTy88HWNelAvYhVwn4M4cGArBVBXFdewi6Z38F6iQpBc2RKwjBk+sFm
jqNA9jVgwuFIzME4z2dBE/xdwhzc6MGCEDxB5tRawvhmycGKzSJBnFVgwmjk4MHK6l5BCDBdwip5
wcHarkVBN9o/wkC28cFN1vZA02Q1wnmy48Gv/qFAKzVOwixq88FKxR1BJ6tSwvi3/sGUlhlB0bJX
wk1w9MFvNPtAsfZPwsvJ/8EbiOZAXgphwoR5vsHLtXlB7stbwhZivsGhXWZBm5NiwmQ/vcEs1F1B
qlRPwp7e4sE0Av9AJNJVwtRU4sEEgOhAaoZIwolU8cEwYWNAiPFDwodc68HMMh5AdcxHwo7278HP
H/9A+slSwjV138GO+SBB

> <OMEGA_E>
yiq+wA==

> <OMEGA_NBR>
     54927

$$$$
CACHE3HI_1691_82
  -OEChem-03092622533D

 52 54  0     1  0  0  0  0  0999 V2000
  -45.7349  -29.5377    3.8540 C   0  0  0  0  0  0  0  0  0  0  0  0
  -44.3536  -29.6586    5.6557 C   0  0  0  0  0  0  0  0  0  0  0  0
  -46.8037  -29.1983    4.6581 C   0  0  0  0  0  0  0  0  0  0  0  0
  -46.5319  -29.1107    6.0079 C   0  0  0  0  0  0  0  0  0  0  0  0
  -48.1435  -28.9518    4.0669 C   0  0  0  0  0  0  0  0  0  0  0  0
  -52.7350  -30.1850    8.1453 C   0  0  0  0  0  0  0  0  0  0  0  0
  -52.6082  -27.9709    9.2902 C   0  0  0  0  0  0  0  0  0  0  0  0
  -53.4875  -30.0146   10.5195 C   0  0  0  0  0  0  0  0  0  0  0  0
  -54.0449  -27.4815    9.0943 C   0  0  0  0  0  0  0  0  0  0  0  0
  -54.9175  -29.5122   10.3151 C   0  0  0  0  0  0  0  0  0  0  0  0
  -51.2811  -30.1498    3.6184 C   0  0  0  0  0  0  0  0  0  0  0  0
  -52.5167  -29.4889    9.4599 C   0  0  0  0  0  0  0  0  0  0  0  0
  -55.0080  -27.9866   10.1768 C   0  0  0  0  0  0  0  0  0  0  0  0
  -51.7348  -29.8805    5.0256 C   0  0  2  0  0  0  0  0  0  0  0  0
  -50.5929  -29.0887    4.4379 C   0  0  1  0  0  0  0  0  0  0  0  0
  -54.9225  -25.7780   11.3821 C   0  0  0  0  0  0  0  0  0  0  0  0
  -54.7757  -27.2811   11.5165 C   0  0  0  0  0  0  0  0  0  0  0  0
  -51.5108  -30.9210    6.1094 C   0  0  0  0  0  0  0  0  0  0  0  0
  -44.4916  -29.7755    4.3211 N   0  0  0  0  0  0  0  0  0  0  0  0
  -45.3138  -29.3354    6.5434 N   0  0  0  0  0  0  0  0  0  0  0  0
  -47.5891  -28.7657    6.8861 N   0  0  0  0  0  0  0  0  0  0  0  0
  -49.2506  -29.2493    4.8702 N   0  0  0  0  0  0  0  0  0  0  0  0
  -51.5644  -30.3074    7.4166 N   0  0  0  0  0  0  0  0  0  0  0  0
  -48.2232  -28.5257    2.9178 O   0  0  0  0  0  0  0  0  0  0  0  0
  -53.8472  -30.5683    7.7908 O   0  0  0  0  0  0  0  0  0  0  0  0
  -45.8409  -29.6329    2.7778 H   0  0  0  0  0  0  0  0  0  0  0  0
  -43.3658  -29.8466    6.0585 H   0  0  0  0  0  0  0  0  0  0  0  0
  -51.9966  -27.6506    8.4296 H   0  0  0  0  0  0  0  0  0  0  0  0
  -52.1684  -27.4692   10.1675 H   0  0  0  0  0  0  0  0  0  0  0  0
  -53.1380  -29.7233   11.5234 H   0  0  0  0  0  0  0  0  0  0  0  0
  -53.4891  -31.1179   10.5161 H   0  0  0  0  0  0  0  0  0  0  0  0
  -54.0477  -26.3778    9.0774 H   0  0  0  0  0  0  0  0  0  0  0  0
  -54.3994  -27.8004    8.0999 H   0  0  0  0  0  0  0  0  0  0  0  0
  -55.3427  -29.9943    9.4186 H   0  0  0  0  0  0  0  0  0  0  0  0
  -55.5399  -29.8481   11.1631 H   0  0  0  0  0  0  0  0  0  0  0  0
  -50.7459  -31.0695    3.4143 H   0  0  0  0  0  0  0  0  0  0  0  0
  -51.9249  -29.8229    2.8106 H   0  0  0  0  0  0  0  0  0  0  0  0
  -51.4766  -29.7444    9.7791 H   0  0  0  0  0  0  0  0  0  0  0  0
  -56.0407  -27.7398    9.8481 H   0  0  0  0  0  0  0  0  0  0  0  0
  -52.6781  -29.3630    5.1586 H   0  0  0  0  0  0  0  0  0  0  0  0
  -50.8085  -28.0588    4.1721 H   0  0  0  0  0  0  0  0  0  0  0  0
  -55.9207  -25.5097   11.0207 H   0  0  0  0  0  0  0  0  0  0  0  0
  -54.1874  -25.3928   10.6690 H   0  0  0  0  0  0  0  0  0  0  0  0
  -54.7592  -25.2786   12.3424 H   0  0  0  0  0  0  0  0  0  0  0  0
  -53.7739  -27.5247   11.8778 H   0  0  0  0  0  0  0  0  0  0  0  0
  -55.4943  -27.6601   12.2478 H   0  0  0  0  0  0  0  0  0  0  0  0
  -52.2808  -31.6963    6.0414 H   0  0  0  0  0  0  0  0  0  0  0  0
  -50.5373  -31.4018    5.9678 H   0  0  0  0  0  0  0  0  0  0  0  0
  -48.4814  -28.5454    6.5008 H   0  0  0  0  0  0  0  0  0  0  0  0
  -47.3900  -28.6484    7.8555 H   0  0  0  0  0  0  0  0  0  0  0  0
  -49.0823  -29.6608    5.7955 H   0  0  0  0  0  0  0  0  0  0  0  0
  -50.7018  -29.9273    7.7946 H   0  0  0  0  0  0  0  0  0  0  0  0
  1  3  1  0  0  0  0
  1 19  2  0  0  0  0
  2 19  1  0  0  0  0
  2 20  2  0  0  0  0
  3  4  2  0  0  0  0
  3  5  1  0  0  0  0
  4 20  1  0  0  0  0
  4 21  1  0  0  0  0
  5 22  1  0  0  0  0
  5 24  2  0  0  0  0
  6 12  1  0  0  0  0
  6 23  1  0  0  0  0
  6 25  2  0  0  0  0
  7  9  1  0  0  0  0
  7 12  1  0  0  0  0
  8 10  1  0  0  0  0
  8 12  1  0  0  0  0
  9 13  1  0  0  0  0
 10 13  1  0  0  0  0
 11 14  1  0  0  0  0
 11 15  1  0  0  0  0
 13 17  1  0  0  0  0
 14 15  1  0  0  0  0
 14 18  1  0  0  0  0
 15 22  1  0  0  0  0
 16 17  1  0  0  0  0
 18 23  1  0  0  0  0
  1 26  1  0  0  0  0
  2 27  1  0  0  0  0
  7 28  1  0  0  0  0
  7 29  1  0  0  0  0
  8 30  1  0  0  0  0
  8 31  1  0  0  0  0
  9 32  1  0  0  0  0
  9 33  1  0  0  0  0
 10 34  1  0  0  0  0
 10 35  1  0  0  0  0
 11 36  1  0  0  0  0
 11 37  1  0  0  0  0
 12 38  1  0  0  0  0
 13 39  1  0  0  0  0
 14 40  1  0  0  0  0
 15 41  1  0  0  0  0
 16 42  1  0  0  0  0
 16 43  1  0  0  0  0
 16 44  1  0  0  0  0
 17 45  1  0  0  0  0
 17 46  1  0  0  0  0
 18 47  1  0  0  0  0
 18 48  1  0  0  0  0
 21 49  1  0  0  0  0
 21 50  1  0  0  0  0
 22 51  1  0  0  0  0
 23 52  1  0  0  0  0
M  END
> <POSIT::Probability>
0.23

> <POSIT::Method>
HYBRID

> <ReceptorTitle>
UCSF-P4578-REFINED_LIGAND-BOUND-STATE_A__DU__LA1_A-201(A)

> <OMEGA_C>
jfA2whxN7MGqqHZAC2oxwr9E7cGg+7RABTc7wjWW6cH7DpVAqSA6wrHi6MECQcBA8pJAwkad58Hy
I4JAnPBSwuJ68cEHUwJBz25SwnLE38GppBRBNvNVwvId8MH6TyhB9y1YwiDa28EqghFBiqtbwvAY
7MHYCiVB3h9Nwtwy8cGvlGdAHxFSwlLp68HqWxdBLAhcwqHk38Ee1CJBfPBOwjsL78HN0aBAGF9K
wqa16MFAA45ApLBbwks5zsFIHTZBWhpbwr8/2sG4QzhBFQtOwkRe98HWf8NAbPcxwlE07sHKRopA
YEE1wvKu6sGNY9FAOFs+wjAg5sEiW9xAqgBFwqX+6cGF2JtA8UFOwpp18sGsVO1AiORAwqk05MHx
vDpAf2NXwuqL9METTvlADV03wiYQ7cHJxjFAkHYtwtrF7sH53sFAkfxPwlg03cGc3wZBfKxQwtTA
28EsriJBSI1UwmrJ7cHdXzhB0fRVwnTx+MEaQihB2TBYwsIF08HuPBFB/JhZwi9n3sEwmQFB915d
wlz078GgshZB4ShewvTI7sE+nDJByvtKwkyO+MFIg1pAJbNPwkKV7sEO4TNAE+hNwp/07cE8dxxB
pClgwhrr3cH+kR1BYrZSwnLn6sFlE6VA8ztLwoF44MH9gYVAxq5fwtITzMHsVDBB3L9YwnEky8Er
tCpBbQlbwqs6ysF4ekVBexhXwn0y3MGmCz5BKvpdwsxH3cHZ9kNBkh9Rwh6S/cHWUsFAPyZKwtE2
+8FU+L5A6uxBwgRd5MGZBtBAVo89wvcv5cGTYPtAPFREwmtJ7cHFdLlAqM5KwiFr78EKbflA

> <OMEGA_E>
rvQFwQ==

> <OMEGA_NBR>
     56467

$$$$
CACHE3HI_1694_49
  -OEChem-03092622533D

 43 44  0     1  0  0  0  0  0999 V2000
  -52.6600  -28.2786    8.7537 C   0  0  0  0  0  0  0  0  0  0  0  0
  -52.8331  -29.2379   10.9233 C   0  0  0  0  0  0  0  0  0  0  0  0
  -51.9814  -29.4184    8.3371 C   0  0  0  0  0  0  0  0  0  0  0  0
  -53.0974  -28.1784   10.0697 C   0  0  0  0  0  0  0  0  0  0  0  0
  -51.7669  -30.4222    9.2677 C   0  0  0  0  0  0  0  0  0  0  0  0
  -51.5166  -29.5148    6.9300 C   0  0  0  0  0  0  0  0  0  0  0  0
  -46.2705  -29.4153    3.8039 C   0  0  0  0  0  0  0  0  0  0  0  0
  -49.7640  -28.4746    4.6276 C   0  0  0  0  0  0  0  0  0  0  0  0
  -48.6442  -28.5331    3.5958 C   0  0  0  0  0  0  0  0  0  0  0  0
  -48.0223  -29.8414    5.5180 C   0  0  0  0  0  0  0  0  0  0  0  0
  -49.5392  -29.7457    5.4405 C   0  0  1  0  0  0  0  0  0  0  0  0
  -44.7572  -28.8075    1.9225 C   0  0  0  0  0  0  0  0  0  0  0  0
  -46.2514  -30.8229    1.7598 C   0  0  0  0  0  0  0  0  0  0  0  0
  -46.1033  -29.4089    2.3057 C   0  0  0  0  0  0  0  0  0  0  0  0
  -53.8224  -26.9704   10.5466 C   0  0  0  0  0  0  0  0  0  0  0  0
  -52.1768  -30.3609   10.5544 N   0  0  0  0  0  0  0  0  0  0  0  0
  -47.5679  -29.2640    4.2593 N   0  0  0  0  0  0  0  0  0  0  0  0
  -51.0768  -31.5881    8.8505 N   0  0  0  0  0  0  0  0  0  0  0  0
  -50.1447  -29.6618    6.7432 N   0  0  0  0  0  0  0  0  0  0  0  0
  -52.3385  -29.4427    6.0202 O   0  0  0  0  0  0  0  0  0  0  0  0
  -45.2909  -29.5450    4.5408 O   0  0  0  0  0  0  0  0  0  0  0  0
  -53.9998  -26.0152    9.5844 F   0  0  0  0  0  0  0  0  0  0  0  0
  -53.1777  -26.3368   11.5713 F   0  0  0  0  0  0  0  0  0  0  0  0
  -55.0789  -27.2353   11.0170 F   0  0  0  0  0  0  0  0  0  0  0  0
  -52.8485  -27.4655    8.0565 H   0  0  0  0  0  0  0  0  0  0  0  0
  -53.1484  -29.2162   11.9619 H   0  0  0  0  0  0  0  0  0  0  0  0
  -49.6444  -27.5817    5.2538 H   0  0  0  0  0  0  0  0  0  0  0  0
  -50.7537  -28.4436    4.1624 H   0  0  0  0  0  0  0  0  0  0  0  0
  -48.9445  -29.1074    2.7127 H   0  0  0  0  0  0  0  0  0  0  0  0
  -48.3102  -27.5409    3.2803 H   0  0  0  0  0  0  0  0  0  0  0  0
  -47.6027  -29.2295    6.3252 H   0  0  0  0  0  0  0  0  0  0  0  0
  -47.6585  -30.8677    5.6270 H   0  0  0  0  0  0  0  0  0  0  0  0
  -49.9552  -30.6056    4.9339 H   0  0  0  0  0  0  0  0  0  0  0  0
  -43.9287  -29.4052    2.3198 H   0  0  0  0  0  0  0  0  0  0  0  0
  -44.6625  -27.7953    2.3296 H   0  0  0  0  0  0  0  0  0  0  0  0
  -44.6347  -28.7445    0.8346 H   0  0  0  0  0  0  0  0  0  0  0  0
  -45.4725  -31.4842    2.1548 H   0  0  0  0  0  0  0  0  0  0  0  0
  -47.2213  -31.2420    2.0475 H   0  0  0  0  0  0  0  0  0  0  0  0
  -46.1868  -30.8435    0.6660 H   0  0  0  0  0  0  0  0  0  0  0  0
  -46.8964  -28.7818    1.8894 H   0  0  0  0  0  0  0  0  0  0  0  0
  -50.8148  -31.6740    7.8932 H   0  0  0  0  0  0  0  0  0  0  0  0
  -50.9645  -32.3371    9.4978 H   0  0  0  0  0  0  0  0  0  0  0  0
  -49.5253  -29.6497    7.5537 H   0  0  0  0  0  0  0  0  0  0  0  0
  1  3  1  0  0  0  0
  1  4  2  0  0  0  0
  2  4  1  0  0  0  0
  2 16  2  0  0  0  0
  3  5  2  0  0  0  0
  3  6  1  0  0  0  0
  4 15  1  0  0  0  0
  5 16  1  0  0  0  0
  5 18  1  0  0  0  0
  6 19  1  0  0  0  0
  6 20  2  0  0  0  0
  7 14  1  0  0  0  0
  7 17  1  0  0  0  0
  7 21  2  0  0  0  0
  8  9  1  0  0  0  0
  8 11  1  0  0  0  0
  9 17  1  0  0  0  0
 10 11  1  0  0  0  0
 10 17  1  0  0  0  0
 11 19  1  0  0  0  0
 12 14  1  0  0  0  0
 13 14  1  0  0  0  0
 15 22  1  0  0  0  0
 15 23  1  0  0  0  0
 15 24  1  0  0  0  0
  1 25  1  0  0  0  0
  2 26  1  0  0  0  0
  8 27  1  0  0  0  0
  8 28  1  0  0  0  0
  9 29  1  0  0  0  0
  9 30  1  0  0  0  0
 10 31  1  0  0  0  0
 10 32  1  0  0  0  0
 11 33  1  0  0  0  0
 12 34  1  0  0  0  0
 12 35  1  0  0  0  0
 12 36  1  0  0  0  0
 13 37  1  0  0  0  0
 13 38  1  0  0  0  0
 13 39  1  0  0  0  0
 14 40  1  0  0  0  0
 18 41  1  0  0  0  0
 18 42  1  0  0  0  0
 19 43  1  0  0  0  0
M  END
> <POSIT::Probability>
0.24

> <POSIT::Method>
FRED

> <ReceptorTitle>
UCSF-P4578-REFINED_LIGAND-BOUND-STATE_A__DU__LA1_A-201(A)

> <OMEGA_C>
zqNSwpg64sFGDwxBJFVTwkLn6cHwxS5B7uxPwtRY68HAZAVByGNUwm1t4cGKHSFBRRFPwqVg88Gp
SBRB+BBOwk4e7MGFwt1AARU5woZS68EUc3NAUQ5HwvnL48ENFZRAopNCwrBD5MEoIWZA3xZAwha7
7sHKk7BAMShGwin37cE7GK5Aawczwst15sFMFPY/cQE5wj6V9sG8QuE/vGk4wn5F68E5kRNAKEpX
wm3D18G+vihBC7VQwgjj8sH+3ihBhEU+wpoc6sE2TIhAp05Mwny0/MHEmw1BLJRIwlVL7cFFyNdA
l1pRwpaK68HhpcBA2Ck1whFc7MEtTpFAxP9Xwgsf0MGdWRlB+bVUwqqx0sEgJDlB1lBcwufh2cHR
RTBB4WRTwmi528FQ5wBB/ZdUwsK66cHjYz9B0ZNGwk2n3MFCH6hA1QNLwmiM48GkMoVAMcdDwgTc
6MErnS1ApD1BwshT3MFF8FFAI2k+wuzV6cETaMpAVqI+whHx9sFrELRALdJHwivY9MF84p1A+LYv
ws4968HsdxRAYaYywsdc3sFiFxVA84kywsj05cGuqVU/0OM1wrbf+8Gj5wlApeI8wpfv+cHHCgNA
Q784wnK/9sG+fio/8ZU7wjpB5sHS2PE/WUJLwlRk/cHWlPxAmdtLwixZAcIj9xdB9RlGwp4y7cG5
t/FA

> <OMEGA_E>
DO3twA==

> <OMEGA_NBR>
     57817

$$$$
CACHE3HI_1694_69
  -OEChem-03092622533D

 39 41  0     0  0  0  0  0  0999 V2000
  -43.5271  -29.1001    4.5907 C   0  0  0  0  0  0  0  0  0  0  0  0
  -43.9949  -29.3378    3.3067 C   0  0  0  0  0  0  0  0  0  0  0  0
  -54.4368  -30.0506    6.3657 C   0  0  0  0  0  0  0  0  0  0  0  0
  -44.4329  -28.9813    5.6422 C   0  0  0  0  0  0  0  0  0  0  0  0
  -45.3666  -29.4537    3.0868 C   0  0  0  0  0  0  0  0  0  0  0  0
  -55.3752  -29.9102    7.3881 C   0  0  0  0  0  0  0  0  0  0  0  0
  -52.9639  -28.5132    7.5078 C   0  0  0  0  0  0  0  0  0  0  0  0
  -47.9738  -29.0966    6.2052 C   0  0  0  0  0  0  0  0  0  0  0  0
  -53.2311  -29.3519    6.4256 C   0  0  0  0  0  0  0  0  0  0  0  0
  -53.9022  -28.3727    8.5303 C   0  0  0  0  0  0  0  0  0  0  0  0
  -45.8052  -29.0959    5.4329 C   0  0  0  0  0  0  0  0  0  0  0  0
  -46.2808  -29.3368    4.1309 C   0  0  0  0  0  0  0  0  0  0  0  0
  -55.1080  -29.0715    8.4703 C   0  0  0  0  0  0  0  0  0  0  0  0
  -48.4379  -29.3309    4.9378 C   0  0  0  0  0  0  0  0  0  0  0  0
  -52.2160  -29.5035    5.3197 C   0  0  0  0  0  0  0  0  0  0  0  0
  -53.5995  -27.4707    9.6809 C   0  0  0  0  0  0  0  0  0  0  0  0
  -50.7785  -29.3267    5.8013 C   0  0  0  0  0  0  0  0  0  0  0  0
  -46.6598  -28.9773    6.4639 N   0  0  0  0  0  0  0  0  0  0  0  0
  -47.5989  -29.4534    3.8929 N   0  0  0  0  0  0  0  0  0  0  0  0
  -49.8307  -29.4451    4.7381 N   0  0  0  0  0  0  0  0  0  0  0  0
  -56.0359  -28.9463    9.4602 O   0  0  0  0  0  0  0  0  0  0  0  0
  -54.3520  -26.2718    9.5494 O   0  0  0  0  0  0  0  0  0  0  0  0
  -42.4615  -29.0063    4.7764 H   0  0  0  0  0  0  0  0  0  0  0  0
  -43.2991  -29.4316    2.4786 H   0  0  0  0  0  0  0  0  0  0  0  0
  -54.6536  -30.7063    5.5266 H   0  0  0  0  0  0  0  0  0  0  0  0
  -44.0513  -28.7951    6.6442 H   0  0  0  0  0  0  0  0  0  0  0  0
  -45.7206  -29.6391    2.0745 H   0  0  0  0  0  0  0  0  0  0  0  0
  -56.3126  -30.4572    7.3355 H   0  0  0  0  0  0  0  0  0  0  0  0
  -52.0234  -27.9689    7.5537 H   0  0  0  0  0  0  0  0  0  0  0  0
  -48.6305  -28.9941    7.0612 H   0  0  0  0  0  0  0  0  0  0  0  0
  -52.3350  -30.4828    4.8383 H   0  0  0  0  0  0  0  0  0  0  0  0
  -52.4325  -28.7578    4.5443 H   0  0  0  0  0  0  0  0  0  0  0  0
  -53.8566  -27.9463   10.6362 H   0  0  0  0  0  0  0  0  0  0  0  0
  -52.5316  -27.2160    9.7152 H   0  0  0  0  0  0  0  0  0  0  0  0
  -50.6497  -28.3277    6.2305 H   0  0  0  0  0  0  0  0  0  0  0  0
  -50.5112  -30.0624    6.5667 H   0  0  0  0  0  0  0  0  0  0  0  0
  -50.1406  -29.6170    3.8010 H   0  0  0  0  0  0  0  0  0  0  0  0
  -56.8032  -29.5056    9.2427 H   0  0  0  0  0  0  0  0  0  0  0  0
  -54.1278  -25.7158   10.3128 H   0  0  0  0  0  0  0  0  0  0  0  0
  1  2  1  0  0  0  0
  1  4  2  0  0  0  0
  2  5  2  0  0  0  0
  3  6  2  0  0  0  0
  3  9  1  0  0  0  0
  4 11  1  0  0  0  0
  5 12  1  0  0  0  0
  6 13  1  0  0  0  0
  7  9  2  0  0  0  0
  7 10  1  0  0  0  0
  8 14  2  0  0  0  0
  8 18  1  0  0  0  0
  9 15  1  0  0  0  0
 10 13  2  0  0  0  0
 10 16  1  0  0  0  0
 11 12  1  0  0  0  0
 11 18  2  0  0  0  0
 12 19  2  0  0  0  0
 13 21  1  0  0  0  0
 14 19  1  0  0  0  0
 14 20  1  0  0  0  0
 15 17  1  0  0  0  0
 16 22  1  0  0  0  0
 17 20  1  0  0  0  0
  1 23  1  0  0  0  0
  2 24  1  0  0  0  0
  3 25  1  0  0  0  0
  4 26  1  0  0  0  0
  5 27  1  0  0  0  0
  6 28  1  0  0  0  0
  7 29  1  0  0  0  0
  8 30  1  0  0  0  0
 15 31  1  0  0  0  0
 15 32  1  0  0  0  0
 16 33  1  0  0  0  0
 16 34  1  0  0  0  0
 17 35  1  0  0  0  0
 17 36  1  0  0  0  0
 20 37  1  0  0  0  0
 21 38  1  0  0  0  0
 22 39  1  0  0  0  0
M  END
> <POSIT::Probability>
0.18

> <POSIT::Method>
HYBRID

> <ReceptorTitle>
UCSF-P4578-REFINED_LIGAND-BOUND-STATE_A__DU__LA1_A-201(A)

> <OMEGA_C>
yhsuwvDM6MFi55JAyPovwsaz6sFmoFNAQr9Zwphn8MGYs8tAUrsxwqDZ58HajLRAX3c1wkah68Fs
jUVAMIBdwgJI78Fwa+xABNtTwgIb5ME4QPBAN+U/wtXF6MHFkMZAquxUwpvQ6sGXns1A45tXwmP7
4sHyewhBfzg3wnXE6MFo2q1AiB85wtax6sF9MIRAjG5cwmmS6MGIhgdBdMBBwsWl6sHEAp5ANt1Q
wkMH7ME6O6pA5mVWwgTE28H95BpBPB1Lwi6d6sEVpLlAn6M6wmzR58FC2M5AP2U+wpOg68FgJXlA
mFJHwpKP68E0npdAvSRgwgaS58HrXBdBfGhZwqgs0sFJyhhBktgpwuAM6MEd2JhAPTItwthz68F0
oR5AUJ1awnam9cHB2bBAlDQwwlhc5sE4ndRA7eE2wtkc7cFDxQRAJEBhwmKo88GOvOpAAxhQwlLA
38Hct/FAm4VCwt/z58FA9eFAFldRwrzc88F005pA5LpRwugP5sFPa5FAHm1XwhSS38H4LSpBaCBS
wly62cGccRtBS5lKwhef4sESYMdAegtKwtZ/8MEYItJA9Y9Iwozv7MGaQ3NAhzZjwngL7MED4hNB
3IJYwvW5zcEWASVB

> <OMEGA_E>
DkC6wA==

> <OMEGA_NBR>
     59090

$$$$
CACHE3HI_1694_9
  -OEChem-03092622533D

 41 42  0     1  0  0  0  0  0999 V2000
  -47.2934  -29.7837    4.2020 C   0  0  0  0  0  0  0  0  0  0  0  0
  -45.3561  -29.2170    5.4602 C   0  0  0  0  0  0  0  0  0  0  0  0
  -48.0648  -29.5202    5.3282 C   0  0  0  0  0  0  0  0  0  0  0  0
  -45.9125  -29.6318    4.2605 C   0  0  0  0  0  0  0  0  0  0  0  0
  -47.4126  -29.1106    6.4800 C   0  0  0  0  0  0  0  0  0  0  0  0
  -49.5386  -29.6873    5.2560 C   0  0  0  0  0  0  0  0  0  0  0  0
  -54.6366  -28.7071    7.8600 C   0  0  0  0  0  0  0  0  0  0  0  0
  -51.9500  -31.2562    7.6337 C   0  0  0  0  0  0  0  0  0  0  0  0
  -53.4118  -30.9325    7.9171 C   0  0  0  0  0  0  0  0  0  0  0  0
  -52.3495  -29.0114    6.9299 C   0  0  0  0  0  0  0  0  0  0  0  0
  -51.5956  -30.2700    6.5252 C   0  0  1  0  0  0  0  0  0  0  0  0
  -53.3533  -27.0891    9.2351 C   0  0  0  0  0  0  0  0  0  0  0  0
  -54.3250  -27.2498    8.0878 C   0  0  1  0  0  0  0  0  0  0  0  0
  -45.0598  -29.9098    3.0739 C   0  0  0  0  0  0  0  0  0  0  0  0
  -46.0735  -28.9518    6.5750 N   0  0  0  0  0  0  0  0  0  0  0  0
  -53.5461  -29.5149    7.5925 N   0  0  0  0  0  0  0  0  0  0  0  0
  -48.1922  -28.8387    7.6324 N   0  0  0  0  0  0  0  0  0  0  0  0
  -50.1764  -30.0483    6.4398 N   0  0  0  0  0  0  0  0  0  0  0  0
  -50.1091  -29.5234    4.1808 O   0  0  0  0  0  0  0  0  0  0  0  0
  -55.7996  -29.1124    7.9130 O   0  0  0  0  0  0  0  0  0  0  0  0
  -53.7374  -26.7579    6.9015 O   0  0  0  0  0  0  0  0  0  0  0  0
  -45.7602  -30.3132    1.9710 F   0  0  0  0  0  0  0  0  0  0  0  0
  -44.1426  -30.8969    3.3013 F   0  0  0  0  0  0  0  0  0  0  0  0
  -44.3337  -28.8291    2.6554 F   0  0  0  0  0  0  0  0  0  0  0  0
  -47.7641  -30.1092    3.2772 H   0  0  0  0  0  0  0  0  0  0  0  0
  -44.2842  -29.0826    5.5669 H   0  0  0  0  0  0  0  0  0  0  0  0
  -51.3484  -31.0699    8.5322 H   0  0  0  0  0  0  0  0  0  0  0  0
  -51.8084  -32.2976    7.3298 H   0  0  0  0  0  0  0  0  0  0  0  0
  -54.0805  -31.4928    7.2547 H   0  0  0  0  0  0  0  0  0  0  0  0
  -53.6923  -31.1268    8.9559 H   0  0  0  0  0  0  0  0  0  0  0  0
  -51.8012  -28.4102    7.6647 H   0  0  0  0  0  0  0  0  0  0  0  0
  -52.6159  -28.3747    6.0806 H   0  0  0  0  0  0  0  0  0  0  0  0
  -51.9353  -30.6318    5.5646 H   0  0  0  0  0  0  0  0  0  0  0  0
  -52.4150  -27.6195    9.0383 H   0  0  0  0  0  0  0  0  0  0  0  0
  -53.1172  -26.0363    9.4175 H   0  0  0  0  0  0  0  0  0  0  0  0
  -53.7757  -27.5189   10.1496 H   0  0  0  0  0  0  0  0  0  0  0  0
  -55.2583  -26.7224    8.2832 H   0  0  0  0  0  0  0  0  0  0  0  0
  -49.1844  -28.8983    7.5655 H   0  0  0  0  0  0  0  0  0  0  0  0
  -47.7378  -28.4930    8.4488 H   0  0  0  0  0  0  0  0  0  0  0  0
  -49.6180  -30.2255    7.2749 H   0  0  0  0  0  0  0  0  0  0  0  0
  -53.5358  -25.8169    7.0476 H   0  0  0  0  0  0  0  0  0  0  0  0
  1  3  1  0  0  0  0
  1  4  2  0  0  0  0
  2  4  1  0  0  0  0
  2 15  2  0  0  0  0
  3  5  2  0  0  0  0
  3  6  1  0  0  0  0
  4 14  1  0  0  0  0
  5 15  1  0  0  0  0
  5 17  1  0  0  0  0
  6 18  1  0  0  0  0
  6 19  2  0  0  0  0
  7 13  1  0  0  0  0
  7 16  1  0  0  0  0
  7 20  2  0  0  0  0
  8  9  1  0  0  0  0
  8 11  1  0  0  0  0
  9 16  1  0  0  0  0
 10 11  1  0  0  0  0
 10 16  1  0  0  0  0
 11 18  1  0  0  0  0
 12 13  1  0  0  0  0
 13 21  1  0  0  0  0
 14 22  1  0  0  0  0
 14 23  1  0  0  0  0
 14 24  1  0  0  0  0
  1 25  1  0  0  0  0
  2 26  1  0  0  0  0
  8 27  1  0  0  0  0
  8 28  1  0  0  0  0
  9 29  1  0  0  0  0
  9 30  1  0  0  0  0
 10 31  1  0  0  0  0
 10 32  1  0  0  0  0
 11 33  1  0  0  0  0
 12 34  1  0  0  0  0
 12 35  1  0  0  0  0
 12 36  1  0  0  0  0
 13 37  1  0  0  0  0
 17 38  1  0  0  0  0
 17 39  1  0  0  0  0
 18 40  1  0  0  0  0
 21 41  1  0  0  0  0
M  END
> <POSIT::Probability>
0.18

> <POSIT::Method>
HYBRID

> <ReceptorTitle>
UCSF-P4578-REFINED_LIGAND-BOUND-STATE_A__DU__LA1_A-201(A)

> <OMEGA_C>
ZSw9whpF7sFpdoZAoWw1woC86cEcuq5AYkJAwmUp7MHqgKpAaqY3wvwN7cHqVYhAeaY9woni6MEZ
XM9AkSdGwq5/7cHLMKhA6ItawhCo5cFYhftAw8xPwsQM+sGhR/RApKVVwql198EzWf1A4WVRwlcX
6MEBwt1A7mFOwv8o8sHOztBAzWlVwpO22MEqwxNB0UxZwqj/2cGLZwFBSD00wlhH78EMu0RAQEs4
wjOd58GoZtJAMS9WwoQe7MGg9fJAxMRAwqa15sFXPPRAnrRIwtZi8MEIE85Aw29Iwvcv7MH+yIVA
yDJfwh7m6MEIN/1AHvNWwjwQ1sFu2dxAdAo3womB8sEcSPw//pEwwsIs98EoSFNAwVUxwgai5sGF
8SlAeA4/wqrf8MHovFFA+SIxwhap6MHBI7JAyGRNwiiP+MHXgwhB0ztPwskwAcLDjepAZlJYwinx
+8GvJuhA58RWwq8D+cE8Sw9BYzRPwhdI48GDRfVAunZSwm3/4sGolMJAtr1PwvEN9cFnEbJA/ahR
wsT03MEEnRBB+ndUwkRK0MEnrhZBShpXwqQm3MHnZCJBiwhdwo7H1cEdiARB0rxEwrEv58H2GPJA
iPM+wq3x48F8LgdBz3hGwunN8cEYzOhArCRWwgaJzsEfhuFA

> <OMEGA_E>
rhrRwA==

> <OMEGA_NBR>
     60407

$$$$
CACHE3HI_1695_68
  -OEChem-03092622533D

 45 48  0     1  0  0  0  0  0999 V2000
  -46.6151  -25.3092   -0.2516 C   0  0  0  0  0  0  0  0  0  0  0  0
  -44.3117  -25.8148    0.3992 C   0  0  0  0  0  0  0  0  0  0  0  0
  -43.3308  -26.7151    0.8110 C   0  0  0  0  0  0  0  0  0  0  0  0
  -45.9744  -27.5918    0.3502 C   0  0  0  0  0  0  0  0  0  0  0  0
  -47.2828  -29.0564    5.3330 C   0  0  0  0  0  0  0  0  0  0  0  0
  -48.5936  -29.3156    5.6591 C   0  0  0  0  0  0  0  0  0  0  0  0
  -45.6241  -26.2498    0.1702 C   0  0  0  0  0  0  0  0  0  0  0  0
  -43.6865  -28.0441    0.9867 C   0  0  0  0  0  0  0  0  0  0  0  0
  -44.9927  -28.4818    0.7598 C   0  0  0  0  0  0  0  0  0  0  0  0
  -48.1264  -29.9771    3.6090 C   0  0  0  0  0  0  0  0  0  0  0  0
  -46.2344  -30.6389    0.8862 C   0  0  0  0  0  0  0  0  0  0  0  0
  -42.7954  -29.1629    1.4193 C   0  0  0  0  0  0  0  0  0  0  0  0
  -48.4302  -29.9715   -0.0526 C   0  0  0  0  0  0  0  0  0  0  0  0
  -43.7562  -30.3566    1.4230 C   0  0  0  0  0  0  0  0  0  0  0  0
  -49.7947  -29.8108    0.5743 C   0  0  0  0  0  0  0  0  0  0  0  0
  -48.3486  -30.5787    2.2403 C   0  0  2  0  0  0  0  0  0  0  0  0
  -47.5132  -29.9081    1.1486 C   0  0  1  0  0  0  0  0  0  0  0  0
  -51.3292  -29.4137    3.5780 C   0  0  0  0  0  0  0  0  0  0  0  0
  -50.4815  -30.3674    4.4020 C   0  0  0  0  0  0  0  0  0  0  0  0
  -47.4193  -24.5457   -0.5940 N   0  0  0  0  0  0  0  0  0  0  0  0
  -46.9984  -29.4702    4.0561 N   0  0  0  0  0  0  0  0  0  0  0  0
  -49.1208  -29.9056    4.5449 N   0  0  0  0  0  0  0  0  0  0  0  0
  -45.0874  -29.8670    1.0089 N   0  0  0  0  0  0  0  0  0  0  0  0
  -46.2730  -31.8338    0.5893 O   0  0  0  0  0  0  0  0  0  0  0  0
  -49.7314  -30.4629    1.8478 O   0  0  0  0  0  0  0  0  0  0  0  0
  -44.0422  -24.7702    0.2583 H   0  0  0  0  0  0  0  0  0  0  0  0
  -42.3147  -26.3790    0.9881 H   0  0  0  0  0  0  0  0  0  0  0  0
  -46.9950  -27.9084    0.1677 H   0  0  0  0  0  0  0  0  0  0  0  0
  -46.5298  -28.5927    5.9531 H   0  0  0  0  0  0  0  0  0  0  0  0
  -49.1742  -29.1393    6.5539 H   0  0  0  0  0  0  0  0  0  0  0  0
  -41.9805  -29.3121    0.7044 H   0  0  0  0  0  0  0  0  0  0  0  0
  -42.3928  -28.9763    2.4194 H   0  0  0  0  0  0  0  0  0  0  0  0
  -48.3516  -30.8833   -0.6478 H   0  0  0  0  0  0  0  0  0  0  0  0
  -48.2241  -29.1145   -0.7020 H   0  0  0  0  0  0  0  0  0  0  0  0
  -43.4281  -31.1350    0.7253 H   0  0  0  0  0  0  0  0  0  0  0  0
  -43.8334  -30.8036    2.4203 H   0  0  0  0  0  0  0  0  0  0  0  0
  -50.0746  -28.7632    0.7107 H   0  0  0  0  0  0  0  0  0  0  0  0
  -50.5689  -30.3044   -0.0219 H   0  0  0  0  0  0  0  0  0  0  0  0
  -48.1144  -31.6786    2.3121 H   0  0  0  0  0  0  0  0  0  0  0  0
  -47.2351  -28.8678    1.3920 H   0  0  0  0  0  0  0  0  0  0  0  0
  -51.3619  -28.4185    4.0335 H   0  0  0  0  0  0  0  0  0  0  0  0
  -52.3551  -29.7873    3.5013 H   0  0  0  0  0  0  0  0  0  0  0  0
  -50.9294  -29.3043    2.5646 H   0  0  0  0  0  0  0  0  0  0  0  0
  -50.4549  -31.3596    3.9388 H   0  0  0  0  0  0  0  0  0  0  0  0
  -50.9041  -30.4896    5.4060 H   0  0  0  0  0  0  0  0  0  0  0  0
  1  7  1  0  0  0  0
  1 20  3  0  0  0  0
  2  3  1  0  0  0  0
  2  7  2  0  0  0  0
  3  8  2  0  0  0  0
  4  7  1  0  0  0  0
  4  9  2  0  0  0  0
  5  6  2  0  0  0  0
  5 21  1  0  0  0  0
  6 22  1  0  0  0  0
  8  9  1  0  0  0  0
  8 12  1  0  0  0  0
  9 23  1  0  0  0  0
 10 16  1  0  0  0  0
 10 21  2  0  0  0  0
 10 22  1  0  0  0  0
 11 17  1  0  0  0  0
 11 23  1  0  0  0  0
 11 24  2  0  0  0  0
 12 14  1  0  0  0  0
 13 15  1  0  0  0  0
 13 17  1  0  0  0  0
 14 23  1  0  0  0  0
 15 25  1  0  0  0  0
 16 17  1  0  0  0  0
 16 25  1  0  0  0  0
 18 19  1  0  0  0  0
 19 22  1  0  0  0  0
  2 26  1  0  0  0  0
  3 27  1  0  0  0  0
  4 28  1  0  0  0  0
  5 29  1  0  0  0  0
  6 30  1  0  0  0  0
 12 31  1  0  0  0  0
 12 32  1  0  0  0  0
 13 33  1  0  0  0  0
 13 34  1  0  0  0  0
 14 35  1  0  0  0  0
 14 36  1  0  0  0  0
 15 37  1  0  0  0  0
 15 38  1  0  0  0  0
 16 39  1  0  0  0  0
 17 40  1  0  0  0  0
 18 41  1  0  0  0  0
 18 42  1  0  0  0  0
 18 43  1  0  0  0  0
 19 44  1  0  0  0  0
 19 45  1  0  0  0  0
M  END
> <POSIT::Probability>
0.02

> <POSIT::Method>
FRED

> <ReceptorTitle>
UCSF-P4578-REFINED_LIGAND-BOUND-STATE_A__DU__LA1_A-201(A)

> <OMEGA_C>
3HU6wkh5ysEe2IC+Jz8xwqmEzsGyXsw+x1Itwm241cFnnE8/w+U3wg283MHKSLM+iyE9wnxz6MEE
qKpA3V9CwmeG6sG+F7VAFH82wpP/0cGkUC4++r4uwk1a4MELl3w/i/gzwtLa48G/gkI/ZYFAwizR
78ES+mZA/O84wnkc9cFT32I/ey4rwqFN6cFAqrU/erhBwrbF78Ewfle9WQYvwmna8sEaJbY/0C1H
wn587sFhBRM/9mRBwiCh9MHkYQ9Afg0+wsRD78GwBZM/IFFNwk1P68Fk/mRADO1JwnHw8sE23YxA
Ya09wqddxMFnDhi/X/47wvLC68HSy4FAvXtEwrs+78Hjb5FAjFk0wrLv7sHMIoE/ghc5wqSr/sFD
2xY/++xGwuyz88GIhOw/QCswwmcpxsEaPYQ+NEIpwj8I08Fp8nw/6Po7woBE38Hktys+gB46wsG9
5MEFgL5AV7JEwkcd6cGYudFADuwnwid/6sHBVTQ/MJIpwnTP58Fp1xpA/mdBwg0R98ED2CW/fuVA
wo/q6MEfuDO/WrYtwo0U+cFtrzk/blUvwtVt9sGB5hpAXkxIwvMa5sGL8zU/j0ZKwltv8sFgjrO8
J3VAwtpt/cFl+RNAwPA8wlLx5sGMK7I/knJNwhJZ48FXEoFAlmtRwltM7sEMFWBAsrdLwiZv6sEb
IyRAxdFJwofg+sHSFHxA1p1Lwrzq88HS/axA

> <OMEGA_E>
nn75wA==

> <OMEGA_NBR>
     61806

$$$$
CACHE3HI_1695_70
  -OEChem-03092622533D

 31 33  0     0  0  0  0  0  0999 V2000
  -49.9082  -29.5210    4.7550 C   0  0  0  0  0  0  0  0  0  0  0  0
  -48.9739  -29.5707    5.7820 C   0  0  0  0  0  0  0  0  0  0  0  0
  -49.4766  -29.3792    3.4389 C   0  0  0  0  0  0  0  0  0  0  0  0
  -47.6428  -29.1438    1.8318 C   0  0  0  0  0  0  0  0  0  0  0  0
  -47.6102  -29.4792    5.4911 C   0  0  0  0  0  0  0  0  0  0  0  0
  -46.2821  -29.0559    1.5762 C   0  0  0  0  0  0  0  0  0  0  0  0
  -48.1049  -29.2867    3.1474 C   0  0  0  0  0  0  0  0  0  0  0  0
  -47.1510  -29.3369    4.1849 C   0  0  0  0  0  0  0  0  0  0  0  0
  -45.4251  -29.1140    2.6568 C   0  0  0  0  0  0  0  0  0  0  0  0
  -43.0578  -29.6563    3.2159 C   0  0  0  0  0  0  0  0  0  0  0  0
  -40.7082  -30.6863    3.1936 C   0  0  0  0  0  0  0  0  0  0  0  0
  -41.1684  -30.6117    1.7688 C   0  0  0  0  0  0  0  0  0  0  0  0
  -41.6192  -29.6004    2.7562 C   0  0  0  0  0  0  0  0  0  0  0  0
  -43.6121  -28.3149    1.1581 C   0  0  0  0  0  0  0  0  0  0  0  0
  -45.8281  -29.2517    3.9399 N   0  0  0  0  0  0  0  0  0  0  0  0
  -44.0523  -29.0241    2.3969 N   0  0  0  0  0  0  0  0  0  0  0  0
  -43.3066  -30.2685    4.2582 O   0  0  0  0  0  0  0  0  0  0  0  0
  -50.9687  -29.5918    4.9767 H   0  0  0  0  0  0  0  0  0  0  0  0
  -49.3021  -29.6807    6.8115 H   0  0  0  0  0  0  0  0  0  0  0  0
  -50.2167  -29.3390    2.6427 H   0  0  0  0  0  0  0  0  0  0  0  0
  -48.3420  -29.1009    1.0001 H   0  0  0  0  0  0  0  0  0  0  0  0
  -46.8983  -29.5214    6.3134 H   0  0  0  0  0  0  0  0  0  0  0  0
  -45.9210  -28.9440    0.5593 H   0  0  0  0  0  0  0  0  0  0  0  0
  -41.0841  -31.4998    3.8021 H   0  0  0  0  0  0  0  0  0  0  0  0
  -39.6855  -30.4018    3.4092 H   0  0  0  0  0  0  0  0  0  0  0  0
  -40.4554  -30.2773    1.0251 H   0  0  0  0  0  0  0  0  0  0  0  0
  -41.8530  -31.3757    1.4208 H   0  0  0  0  0  0  0  0  0  0  0  0
  -41.2523  -28.6005    2.6897 H   0  0  0  0  0  0  0  0  0  0  0  0
  -43.4582  -27.2506    1.3583 H   0  0  0  0  0  0  0  0  0  0  0  0
  -42.6746  -28.7420    0.7910 H   0  0  0  0  0  0  0  0  0  0  0  0
  -44.3678  -28.4190    0.3746 H   0  0  0  0  0  0  0  0  0  0  0  0
  1  2  1  0  0  0  0
  1  3  2  0  0  0  0
  2  5  2  0  0  0  0
  3  7  1  0  0  0  0
  4  6  2  0  0  0  0
  4  7  1  0  0  0  0
  5  8  1  0  0  0  0
  6  9  1  0  0  0  0
  7  8  2  0  0  0  0
  8 15  1  0  0  0  0
  9 15  2  0  0  0  0
  9 16  1  0  0  0  0
 10 13  1  0  0  0  0
 10 16  1  0  0  0  0
 10 17  2  0  0  0  0
 11 12  1  0  0  0  0
 11 13  1  0  0  0  0
 12 13  1  0  0  0  0
 14 16  1  0  0  0  0
  1 18  1  0  0  0  0
  2 19  1  0  0  0  0
  3 20  1  0  0  0  0
  4 21  1  0  0  0  0
  5 22  1  0  0  0  0
  6 23  1  0  0  0  0
 11 24  1  0  0  0  0
 11 25  1  0  0  0  0
 12 26  1  0  0  0  0
 12 27  1  0  0  0  0
 13 28  1  0  0  0  0
 14 29  1  0  0  0  0
 14 30  1  0  0  0  0
 14 31  1  0  0  0  0
M  END
> <POSIT::Probability>
0.05

> <POSIT::Method>
FRED

> <ReceptorTitle>
UCSF-P4578-REFINED_LIGAND-BOUND-STATE_A__DU__LA1_A-201(A)

> <OMEGA_C>
DKJHwvYq7MHlKJhATeVDwtKQ7MFwBrlADehFwp4I68EsF1xARJI+wmom6cF4eeo/3nA+wlLV68Hu
tq9A5yA5wmdy6MGQv8k/dWtAwjhL6sEIb0lAmJo8wvKx6sEH64VASrM1wn7p6MEQCSpAMjsswglA
7cGA0E1AKtUiwpJ99cHYY0xAd6wkwtfk9MEYZ+I/EnomwrLN7MGgZTBAyHIuwtuE4sFwO5Q/BVA3
wo8D6sHQJ3xAmzUwwlsx6MEEZxlAADotwsol8sEqQ4hA9t9LwgS87MEpQZ9AVDVFwhdy7cEi+NlA
6t1Iwki26sG0ISlALV5Bwr3O6MF4AoA/25c7wtYr7MGmB8pAJa83wjaN58HwMA8/E1YkwpP/+8Hs
VXNA7L0ewso288HqL1pAUtIhwgA48sHYNIM/dGknwoEB+8GQ27U/VAIlwtfN5MGwJCxANdUtwkIB
2sGY3K0/zrIqwqzv5cFggUo/pXgxwgxa48GAy78+

> <OMEGA_E>
BLTwwA==

> <OMEGA_NBR>
     62914

$$$$
CACHE3HI_1696_3
  -OEChem-03092622533D

 33 36  0     0  0  0  0  0  0999 V2000
  -43.0297  -30.6907    2.4301 C   0  0  0  0  0  0  0  0  0  0  0  0
  -52.1672  -29.8433    6.8232 C   0  0  0  0  0  0  0  0  0  0  0  0
  -50.5909  -29.0985    3.7198 C   0  0  0  0  0  0  0  0  0  0  0  0
  -41.8089  -30.1704    2.8081 C   0  0  0  0  0  0  0  0  0  0  0  0
  -53.1752  -29.1862    6.1619 C   0  0  0  0  0  0  0  0  0  0  0  0
  -42.3519  -28.1379    1.9463 C   0  0  0  0  0  0  0  0  0  0  0  0
  -51.5255  -29.2010    4.7683 C   0  0  0  0  0  0  0  0  0  0  0  0
  -51.1022  -29.8376    5.8885 C   0  0  0  0  0  0  0  0  0  0  0  0
  -49.4167  -29.7041    4.1183 C   0  0  0  0  0  0  0  0  0  0  0  0
  -43.8796  -29.8143    1.7872 C   0  0  0  0  0  0  0  0  0  0  0  0
  -48.1553  -29.8411    3.3467 C   0  0  0  0  0  0  0  0  0  0  0  0
  -45.8731  -31.3315    2.0205 C   0  0  0  0  0  0  0  0  0  0  0  0
  -46.2542  -29.5310    1.0056 C   0  0  0  0  0  0  0  0  0  0  0  0
  -47.1079  -30.7725    1.2994 C   0  0  0  0  0  0  0  0  0  0  0  0
  -41.4358  -28.8938    2.5812 N   0  0  0  0  0  0  0  0  0  0  0  0
  -43.5722  -28.5261    1.5282 N   0  0  0  0  0  0  0  0  0  0  0  0
  -45.1203  -30.3011    1.3895 N   0  0  0  0  0  0  0  0  0  0  0  0
  -48.2589  -30.5335    2.1568 N   0  0  0  0  0  0  0  0  0  0  0  0
  -47.1187  -29.3649    3.8017 O   0  0  0  0  0  0  0  0  0  0  0  0
  -52.8155  -28.7845    4.9130 O   0  0  0  0  0  0  0  0  0  0  0  0
  -49.4640  -30.3699    5.7142 S   0  0  0  0  0  0  0  0  0  0  0  0
  -43.2897  -31.7222    2.6311 H   0  0  0  0  0  0  0  0  0  0  0  0
  -52.1957  -30.2595    7.8190 H   0  0  0  0  0  0  0  0  0  0  0  0
  -50.7548  -28.6269    2.7602 H   0  0  0  0  0  0  0  0  0  0  0  0
  -41.0747  -30.7843    3.3191 H   0  0  0  0  0  0  0  0  0  0  0  0
  -54.1873  -28.9308    6.4420 H   0  0  0  0  0  0  0  0  0  0  0  0
  -42.0788  -27.1080    1.7515 H   0  0  0  0  0  0  0  0  0  0  0  0
  -45.8760  -31.2443    3.1122 H   0  0  0  0  0  0  0  0  0  0  0  0
  -45.5623  -32.3351    1.7195 H   0  0  0  0  0  0  0  0  0  0  0  0
  -46.2230  -29.2137   -0.0398 H   0  0  0  0  0  0  0  0  0  0  0  0
  -46.4210  -28.6693    1.6608 H   0  0  0  0  0  0  0  0  0  0  0  0
  -47.3841  -31.3373    0.4012 H   0  0  0  0  0  0  0  0  0  0  0  0
  -49.1311  -30.9548    1.8703 H   0  0  0  0  0  0  0  0  0  0  0  0
  1  4  1  0  0  0  0
  1 10  2  0  0  0  0
  2  5  2  0  0  0  0
  2  8  1  0  0  0  0
  3  7  1  0  0  0  0
  3  9  2  0  0  0  0
  4 15  2  0  0  0  0
  5 20  1  0  0  0  0
  6 15  1  0  0  0  0
  6 16  2  0  0  0  0
  7  8  2  0  0  0  0
  7 20  1  0  0  0  0
  8 21  1  0  0  0  0
  9 11  1  0  0  0  0
  9 21  1  0  0  0  0
 10 16  1  0  0  0  0
 10 17  1  0  0  0  0
 11 18  1  0  0  0  0
 11 19  2  0  0  0  0
 12 14  1  0  0  0  0
 12 17  1  0  0  0  0
 13 14  1  0  0  0  0
 13 17  1  0  0  0  0
 14 18  1  0  0  0  0
  1 22  1  0  0  0  0
  2 23  1  0  0  0  0
  3 24  1  0  0  0  0
  4 25  1  0  0  0  0
  5 26  1  0  0  0  0
  6 27  1  0  0  0  0
 12 28  1  0  0  0  0
 12 29  1  0  0  0  0
 13 30  1  0  0  0  0
 13 31  1  0  0  0  0
 14 32  1  0  0  0  0
 18 33  1  0  0  0  0
M  END
> <POSIT::Probability>
0.02

> <POSIT::Method>
FRED

> <ReceptorTitle>
UCSF-P4578-REFINED_LIGAND-BOUND-STATE_A__DU__LA1_A-201(A)

> <OMEGA_C>
bR4swo2G9cGKhhtAPatQwi6/7sFCV9pAE11KwsTJ6MF0EW5AUzwnwvhc8cECuDNAXbNUwkh96cGu
LsVAXGgpwloa4cFbH/k/IhpOwpWb6cE+lphArWhMwnKz7sHWbrxArqpFwhKi7cEZyYNAsYQvwqCD
7sErw+Q/Ap9Awqe67sEVMFZADn43wvam+sFcTwFASwQ5wnM/7MEYt4A/eW48wiAu9sHGU6Y/N74l
wmcm58FEMiVA60kuwoI15MHwnMM/JHs0wpho8sEu2rE/FglBwrBE9MHOCQpAlHk8wkHr6sGWT3NA
G0NTwpdG5sHqNp1AHNtFwpj18sGn2rZAsSgtwhzH/cE2YyhAZchQwm4T8sFXNfpA9QRLwu4D5cFq
pzBAeEwkwjRG9sHrbFRAv79Ywlly58EyJc5AsVAowkfd2MGiMOA//4A3wl30+cHaLkdAxD82wilX
AcIcGtw/WeQ4wrm16cEA3yK9Dq85wsla5cGWldQ/Wok9wrGy+sHQZs0+NYZEwn+j98FNZu8/

> <OMEGA_E>
sEP0wA==

> <OMEGA_NBR>
     64065

$$$$
CACHE3HI_1697_11
  -OEChem-03092622533D

 55 59  0     1  0  0  0  0  0999 V2000
  -44.2956  -29.2517    4.5515 C   0  0  0  0  0  0  0  0  0  0  0  0
  -44.7942  -29.4035    3.2576 C   0  0  0  0  0  0  0  0  0  0  0  0
  -45.1735  -29.1885    5.6335 C   0  0  0  0  0  0  0  0  0  0  0  0
  -51.8365  -32.7803    9.4718 C   0  0  0  0  0  0  0  0  0  0  0  0
  -46.1701  -29.4923    3.0458 C   0  0  0  0  0  0  0  0  0  0  0  0
  -46.5495  -29.2774    5.4217 C   0  0  0  0  0  0  0  0  0  0  0  0
  -51.5622  -31.4942    9.0065 C   0  0  0  0  0  0  0  0  0  0  0  0
  -53.1221  -33.3068    9.3479 C   0  0  0  0  0  0  0  0  0  0  0  0
  -56.0857  -28.5884   10.2707 C   0  0  0  0  0  0  0  0  0  0  0  0
  -53.8589  -31.2615    8.2932 C   0  0  0  0  0  0  0  0  0  0  0  0
  -57.2679  -28.8989   10.9589 C   0  0  0  0  0  0  0  0  0  0  0  0
  -50.4361  -29.6870    3.1946 C   0  0  0  0  0  0  0  0  0  0  0  0
  -47.0480  -29.4291    4.1279 C   0  0  0  0  0  0  0  0  0  0  0  0
  -52.5732  -30.7349    8.4171 C   0  0  0  0  0  0  0  0  0  0  0  0
  -54.1331  -32.5475    8.7585 C   0  0  0  0  0  0  0  0  0  0  0  0
  -55.7048  -27.3639   10.7675 C   0  0  0  0  0  0  0  0  0  0  0  0
  -50.5031  -29.5555    4.5594 C   0  0  0  0  0  0  0  0  0  0  0  0
  -48.4650  -29.5203    3.9094 C   0  0  0  0  0  0  0  0  0  0  0  0
  -55.5659  -24.9540   12.2064 C   0  0  0  0  0  0  0  0  0  0  0  0
  -54.5562  -25.3046   11.2222 C   0  0  0  0  0  0  0  0  0  0  0  0
  -56.5842  -25.7974   12.4309 C   0  0  0  0  0  0  0  0  0  0  0  0
  -54.6275  -26.4613   10.5352 C   0  0  0  0  0  0  0  0  0  0  0  0
  -51.6343  -29.5152    5.5205 C   0  0  0  0  0  0  0  0  0  0  0  0
  -53.5725  -26.7431    9.5588 C   0  0  0  0  0  0  0  0  0  0  0  0
  -51.7851  -28.3932    9.0221 C   0  0  0  0  0  0  0  0  0  0  0  0
  -52.2740  -29.3344    7.9109 C   0  0  1  0  0  0  0  0  0  0  0  0
  -49.1278  -29.6636    2.7837 N   0  0  0  0  0  0  0  0  0  0  0  0
  -57.6274  -27.9569   11.8308 N   0  0  0  0  0  0  0  0  0  0  0  0
  -56.6653  -27.0008   11.7210 N   0  0  0  0  0  0  0  0  0  0  0  0
  -51.2736  -29.3676    6.8382 N   0  0  0  0  0  0  0  0  0  0  0  0
  -52.8730  -27.9043    9.8388 N   0  0  0  0  0  0  0  0  0  0  0  0
  -52.7827  -29.6315    5.1009 O   0  0  0  0  0  0  0  0  0  0  0  0
  -53.3726  -25.9893    8.6069 O   0  0  0  0  0  0  0  0  0  0  0  0
  -49.2306  -29.4469    5.0327 O   0  0  0  0  0  0  0  0  0  0  0  0
  -55.7189  -33.1984    8.6051 Cl  0  0  0  0  0  0  0  0  0  0  0  0
  -43.2245  -29.1818    4.7167 H   0  0  0  0  0  0  0  0  0  0  0  0
  -44.1108  -29.4537    2.4150 H   0  0  0  0  0  0  0  0  0  0  0  0
  -44.7850  -29.0698    6.6408 H   0  0  0  0  0  0  0  0  0  0  0  0
  -51.0488  -33.3708    9.9304 H   0  0  0  0  0  0  0  0  0  0  0  0
  -46.5430  -29.6096    2.0310 H   0  0  0  0  0  0  0  0  0  0  0  0
  -47.2203  -29.2268    6.2762 H   0  0  0  0  0  0  0  0  0  0  0  0
  -50.5576  -31.0924    9.1072 H   0  0  0  0  0  0  0  0  0  0  0  0
  -53.3215  -34.3102    9.7149 H   0  0  0  0  0  0  0  0  0  0  0  0
  -55.5810  -29.1747    9.5166 H   0  0  0  0  0  0  0  0  0  0  0  0
  -54.6444  -30.6652    7.8341 H   0  0  0  0  0  0  0  0  0  0  0  0
  -57.8876  -29.7787   10.8611 H   0  0  0  0  0  0  0  0  0  0  0  0
  -51.2485  -29.7953    2.4909 H   0  0  0  0  0  0  0  0  0  0  0  0
  -55.4740  -24.0154   12.7395 H   0  0  0  0  0  0  0  0  0  0  0  0
  -53.7514  -24.5917   11.0727 H   0  0  0  0  0  0  0  0  0  0  0  0
  -57.3678  -25.5910   13.1497 H   0  0  0  0  0  0  0  0  0  0  0  0
  -51.1020  -28.9177    9.7007 H   0  0  0  0  0  0  0  0  0  0  0  0
  -51.2545  -27.5195    8.6271 H   0  0  0  0  0  0  0  0  0  0  0  0
  -53.1920  -28.9080    7.4859 H   0  0  0  0  0  0  0  0  0  0  0  0
  -50.3131  -29.3402    7.1317 H   0  0  0  0  0  0  0  0  0  0  0  0
  -53.1163  -28.4478   10.6619 H   0  0  0  0  0  0  0  0  0  0  0  0
  1  2  1  0  0  0  0
  1  3  2  0  0  0  0
  2  5  2  0  0  0  0
  3  6  1  0  0  0  0
  4  7  2  0  0  0  0
  4  8  1  0  0  0  0
  5 13  1  0  0  0  0
  6 13  2  0  0  0  0
  7 14  1  0  0  0  0
  8 15  2  0  0  0  0
  9 11  1  0  0  0  0
  9 16  2  0  0  0  0
 10 14  2  0  0  0  0
 10 15  1  0  0  0  0
 11 28  2  0  0  0  0
 12 17  2  0  0  0  0
 12 27  1  0  0  0  0
 13 18  1  0  0  0  0
 14 26  1  0  0  0  0
 15 35  1  0  0  0  0
 16 22  1  0  0  0  0
 16 29  1  0  0  0  0
 17 23  1  0  0  0  0
 17 34  1  0  0  0  0
 18 27  2  0  0  0  0
 18 34  1  0  0  0  0
 19 20  1  0  0  0  0
 19 21  2  0  0  0  0
 20 22  2  0  0  0  0
 21 29  1  0  0  0  0
 22 24  1  0  0  0  0
 23 30  1  0  0  0  0
 23 32  2  0  0  0  0
 24 31  1  0  0  0  0
 24 33  2  0  0  0  0
 25 26  1  0  0  0  0
 25 31  1  0  0  0  0
 26 30  1  0  0  0  0
 28 29  1  0  0  0  0
  1 36  1  0  0  0  0
  2 37  1  0  0  0  0
  3 38  1  0  0  0  0
  4 39  1  0  0  0  0
  5 40  1  0  0  0  0
  6 41  1  0  0  0  0
  7 42  1  0  0  0  0
  8 43  1  0  0  0  0
  9 44  1  0  0  0  0
 10 45  1  0  0  0  0
 11 46  1  0  0  0  0
 12 47  1  0  0  0  0
 19 48  1  0  0  0  0
 20 49  1  0  0  0  0
 21 50  1  0  0  0  0
 25 51  1  0  0  0  0
 25 52  1  0  0  0  0
 26 53  1  0  0  0  0
 30 54  1  0  0  0  0
 31 55  1  0  0  0  0
M  END
> <POSIT::Probability>
0.18

> <POSIT::Method>
HYBRID

> <ReceptorTitle>
UCSF-P4578-REFINED_LIGAND-BOUND-STATE_A__DU__LA1_A-201(A)

> <OMEGA_C>
vi4xwpQD6sHwpZFAOS0zwls668G8fFBAq7E0wiaC6cECRrRAi1hPwgofA8KnjBdBMa44wjrw68Hl
7UJApDI6wgc46sGXfq1Auz9OwjH0+8G3GhBBC31Uwiw6BcLgkBVBtVdgwva05MHOVCRBhG9XwoIX
+sHgsARBVhJlwv0w58GmVy9Bhb5Jwvl+7cHFc0xAIzE8wspu68GAF4RA+kpSwibh9cGgrAZBTIhY
wqYwAsLIIgxBttFewlrp2sG+RyxBIANKwpRx7MGA5pFAKdxBwpUp7MEANHpAhUNewr6hx8FzTUNB
jDlawuhvysEmjjNBM1ZiwhFhzsHo5EZBjoJawr2w08FCkChBkolOwhYf7MFXqLBAPEpWwu7x1cHX
8BhB6iNPwjAl48FyWhBBlRhRwtis6sFVJv1A0oJEwhBP7cFYKDJAdYJmwtWn38HkSj1BQaliwpwB
2MEiiTtBIRhNwuvw6sFn0tpA+31TwhQ838Goax1BfiFTwmUN7cHqOqNAkH1VwiXqz8G6tQlBGexE
wkaT68HxC6FAKeBewh3LBMKOrglB7uUswlV06cHO7pZAgXEwwiCh68GejhpA4iMzwgGP6MEkgdRA
9TFMwq57BcL14h5BCyw6wpDg7MEh/AFAlOE8wnnQ6cHB1shAADtKwja9+MEYtxFBQ0lVwrA9CcIg
cBtB9FJewtNl6cHKQxhB3ZNawlhS9cFbsfpA24xnwro67sE9xy1Bdv5MwrJc7sEOax9AV+Vdwp4f
wMEV1UtBewFXwsa7xMGYKTFBp3hlwmy6zMEZZVJBdWhMwnpX58H6NRtBpARNwuMn3MG/CApBqMRU
wptD58GyjO9AnkBJwsm46sH0NuRADHdUwgiV48E0lypB

> <OMEGA_E>
DSiiwA==

> <OMEGA_NBR>
     65669

$$$$
CACHE3HI_1697_12
  -OEChem-03092622533D

 55 59  0     1  0  0  0  0  0999 V2000
  -43.9237  -29.1472    5.6695 C   0  0  0  0  0  0  0  0  0  0  0  0
  -44.2659  -29.2286    4.3197 C   0  0  0  0  0  0  0  0  0  0  0  0
  -44.9215  -29.1678    6.6439 C   0  0  0  0  0  0  0  0  0  0  0  0
  -51.8845  -33.1179    9.4622 C   0  0  0  0  0  0  0  0  0  0  0  0
  -45.6055  -29.3308    3.9443 C   0  0  0  0  0  0  0  0  0  0  0  0
  -46.2611  -29.2701    6.2685 C   0  0  0  0  0  0  0  0  0  0  0  0
  -51.5926  -31.8005    9.1086 C   0  0  0  0  0  0  0  0  0  0  0  0
  -53.1330  -33.6606    9.1586 C   0  0  0  0  0  0  0  0  0  0  0  0
  -53.7973  -31.5688    8.1478 C   0  0  0  0  0  0  0  0  0  0  0  0
  -57.4732  -29.4506   10.4793 C   0  0  0  0  0  0  0  0  0  0  0  0
  -49.8537  -29.6171    3.5839 C   0  0  0  0  0  0  0  0  0  0  0  0
  -56.2582  -29.0082   10.0119 C   0  0  0  0  0  0  0  0  0  0  0  0
  -46.6034  -29.3515    4.9188 C   0  0  0  0  0  0  0  0  0  0  0  0
  -52.5488  -31.0261    8.4513 C   0  0  0  0  0  0  0  0  0  0  0  0
  -54.0892  -32.8861    8.5014 C   0  0  0  0  0  0  0  0  0  0  0  0
  -50.0806  -29.5712    4.9370 C   0  0  0  0  0  0  0  0  0  0  0  0
  -47.9830  -29.4565    4.5319 C   0  0  0  0  0  0  0  0  0  0  0  0
  -57.1268  -27.5993   11.4861 C   0  0  0  0  0  0  0  0  0  0  0  0
  -57.1271  -26.4108   12.2716 C   0  0  0  0  0  0  0  0  0  0  0  0
  -56.0911  -25.5563   12.1889 C   0  0  0  0  0  0  0  0  0  0  0  0
  -54.9598  -25.8125   11.3129 C   0  0  0  0  0  0  0  0  0  0  0  0
  -54.9451  -26.9317   10.5642 C   0  0  0  0  0  0  0  0  0  0  0  0
  -51.3156  -29.6122    5.7607 C   0  0  0  0  0  0  0  0  0  0  0  0
  -53.7767  -27.1325    9.7014 C   0  0  0  0  0  0  0  0  0  0  0  0
  -51.8975  -28.7112    9.2809 C   0  0  0  0  0  0  0  0  0  0  0  0
  -52.2304  -29.5914    8.0668 C   0  0  1  0  0  0  0  0  0  0  0  0
  -48.5079  -29.5430    3.3302 N   0  0  0  0  0  0  0  0  0  0  0  0
  -58.0044  -28.5758   11.3887 N   0  0  0  0  0  0  0  0  0  0  0  0
  -56.0261  -27.8161   10.6550 N   0  0  0  0  0  0  0  0  0  0  0  0
  -51.1127  -29.5391    7.1177 N   0  0  0  0  0  0  0  0  0  0  0  0
  -53.0847  -28.2948    9.9928 N   0  0  0  0  0  0  0  0  0  0  0  0
  -52.4046  -29.7247    5.2042 O   0  0  0  0  0  0  0  0  0  0  0  0
  -53.4897  -26.3176    8.8262 O   0  0  0  0  0  0  0  0  0  0  0  0
  -48.8743  -29.4673    5.5608 O   0  0  0  0  0  0  0  0  0  0  0  0
  -55.6291  -33.5569    8.1264 Cl  0  0  0  0  0  0  0  0  0  0  0  0
  -42.8809  -29.0668    5.9621 H   0  0  0  0  0  0  0  0  0  0  0  0
  -43.4891  -29.2135    3.5609 H   0  0  0  0  0  0  0  0  0  0  0  0
  -44.6547  -29.1039    7.6947 H   0  0  0  0  0  0  0  0  0  0  0  0
  -51.1394  -33.7201    9.9737 H   0  0  0  0  0  0  0  0  0  0  0  0
  -45.8560  -29.3927    2.8879 H   0  0  0  0  0  0  0  0  0  0  0  0
  -47.0269  -29.2853    7.0406 H   0  0  0  0  0  0  0  0  0  0  0  0
  -50.6172  -31.3862    9.3490 H   0  0  0  0  0  0  0  0  0  0  0  0
  -53.3467  -34.6884    9.4401 H   0  0  0  0  0  0  0  0  0  0  0  0
  -54.5403  -30.9607    7.6364 H   0  0  0  0  0  0  0  0  0  0  0  0
  -57.9915  -30.3578   10.2041 H   0  0  0  0  0  0  0  0  0  0  0  0
  -50.5767  -29.6975    2.7853 H   0  0  0  0  0  0  0  0  0  0  0  0
  -55.5650  -29.4318    9.2989 H   0  0  0  0  0  0  0  0  0  0  0  0
  -57.9650  -26.2070   12.9290 H   0  0  0  0  0  0  0  0  0  0  0  0
  -56.0750  -24.6466   12.7794 H   0  0  0  0  0  0  0  0  0  0  0  0
  -54.1603  -25.0798   11.2984 H   0  0  0  0  0  0  0  0  0  0  0  0
  -51.2835  -29.2632   10.0023 H   0  0  0  0  0  0  0  0  0  0  0  0
  -51.3484  -27.8047    9.0026 H   0  0  0  0  0  0  0  0  0  0  0  0
  -53.1045  -29.1576    7.5638 H   0  0  0  0  0  0  0  0  0  0  0  0
  -50.1935  -29.5112    7.5222 H   0  0  0  0  0  0  0  0  0  0  0  0
  -53.4066  -28.8925   10.7486 H   0  0  0  0  0  0  0  0  0  0  0  0
  1  2  1  0  0  0  0
  1  3  2  0  0  0  0
  2  5  2  0  0  0  0
  3  6  1  0  0  0  0
  4  7  2  0  0  0  0
  4  8  1  0  0  0  0
  5 13  1  0  0  0  0
  6 13  2  0  0  0  0
  7 14  1  0  0  0  0
  8 15  2  0  0  0  0
  9 14  2  0  0  0  0
  9 15  1  0  0  0  0
 10 12  2  0  0  0  0
 10 28  1  0  0  0  0
 11 16  2  0  0  0  0
 11 27  1  0  0  0  0
 12 29  1  0  0  0  0
 13 17  1  0  0  0  0
 14 26  1  0  0  0  0
 15 35  1  0  0  0  0
 16 23  1  0  0  0  0
 16 34  1  0  0  0  0
 17 27  2  0  0  0  0
 17 34  1  0  0  0  0
 18 19  1  0  0  0  0
 18 28  2  0  0  0  0
 18 29  1  0  0  0  0
 19 20  2  0  0  0  0
 20 21  1  0  0  0  0
 21 22  2  0  0  0  0
 22 24  1  0  0  0  0
 22 29  1  0  0  0  0
 23 30  1  0  0  0  0
 23 32  2  0  0  0  0
 24 31  1  0  0  0  0
 24 33  2  0  0  0  0
 25 26  1  0  0  0  0
 25 31  1  0  0  0  0
 26 30  1  0  0  0  0
  1 36  1  0  0  0  0
  2 37  1  0  0  0  0
  3 38  1  0  0  0  0
  4 39  1  0  0  0  0
  5 40  1  0  0  0  0
  6 41  1  0  0  0  0
  7 42  1  0  0  0  0
  8 43  1  0  0  0  0
  9 44  1  0  0  0  0
 10 45  1  0  0  0  0
 11 46  1  0  0  0  0
 12 47  1  0  0  0  0
 19 48  1  0  0  0  0
 20 49  1  0  0  0  0
 21 50  1  0  0  0  0
 25 51  1  0  0  0  0
 25 52  1  0  0  0  0
 26 53  1  0  0  0  0
 30 54  1  0  0  0  0
 31 55  1  0  0  0  0
M  END
> <POSIT::Probability>
0.23

> <POSIT::Method>
HYBRID

> <ReceptorTitle>
UCSF-P4578-REFINED_LIGAND-BOUND-STATE_A__DU__LA1_A-201(A)

> <OMEGA_C>
17Evwngt6cHrbLVAShAxwh/U6cFfO4pAna8zwrtX6cHPmtRAtIlPwrB4BMIUZRdBE2w2wpCl6sEd
cHxAZgs5wiop6sF9l8hA0l5OwmFn/sG7vBFBK4hUwmmkBsKiiRJBejBXwuiM/ME+XQJBmeRlwtia
68EJqydBJGpHwrrv7MHBXmVAZwhhwrYQ6MHwMCBB3mk6wtDP6sFnZp1A+DFSwlw1+MGwOAdBUFtY
wmeLA8KYBQhBi1JIwsiR7MEV/J1Aku4/wvKm68EoBZFA0oFkwnjL3MHvxjdBM4JkwmhJ08F0WERB
QF1gwlZzzMGyBUNB39Zbwvp/zsG6ATVB0MdbwiN018HqBilBKkNNwrLl7MF/V7hASxtXwmQP2cEh
ORtBFpdPwnGw5cGMfhRB+OtQwkq77MHLEQFBDQhCwhdY7MEmIlVAgQRowiWb5MFIODZBvBpgwmmH
3sHyeipBdHNMwhtQ7MGKxONAxFZUwrZb4sGT4h9BUZ5Rwi/M7cFmiKZAffVVwl2K0sEMOA1BSX9D
wh6968EB8rFALYRewk06BsKeBQJBBoYrws6I6ME1yb5A4PQtwjK16cEY5WNAbp4ywsLU6MEfO/ZA
x45MwlrhBsI8lB9Blmw3wiYk68EC1DhAhhs8wlBI6sGqTOFAAHhKwuYW+8GHlRVBDGNVwuXACsKq
ChdBRSlawpSv98FPXfRARPdnwrTc8sHUQyNBfk5KwniU7cHPQjJAlUJewmR068F6yBRBLNxnwvin
0cH83E5BwkxgwjAsxcFceExBH6RYwm2jyMFkxjRBQSJNwv4a6sFDCSBBu2RNwvlv3sGOChBB9WpU
wrZC6cFfCvJAHMZIwvgW7MF8tfBAVaBVwuAj58Ed+itB

> <OMEGA_E>
7o2MwA==

> <OMEGA_NBR>
     67273

$$$$
CACHE3HI_1697_17
  -OEChem-03092622533D

 57 61  0     1  0  0  0  0  0999 V2000
  -44.4056  -29.2909    5.4030 C   0  0  0  0  0  0  0  0  0  0  0  0
  -44.8543  -29.4616    4.0933 C   0  0  0  0  0  0  0  0  0  0  0  0
  -45.3245  -29.2053    6.4488 C   0  0  0  0  0  0  0  0  0  0  0  0
  -54.4321  -32.2463    9.8606 C   0  0  0  0  0  0  0  0  0  0  0  0
  -46.2214  -29.5471    3.8295 C   0  0  0  0  0  0  0  0  0  0  0  0
  -46.6917  -29.2908    6.1850 C   0  0  0  0  0  0  0  0  0  0  0  0
  -53.4363  -33.2214    9.9166 C   0  0  0  0  0  0  0  0  0  0  0  0
  -54.1315  -30.9697    9.3858 C   0  0  0  0  0  0  0  0  0  0  0  0
  -57.9414  -27.9087   12.0370 C   0  0  0  0  0  0  0  0  0  0  0  0
  -51.8396  -31.6436    9.0228 C   0  0  0  0  0  0  0  0  0  0  0  0
  -57.4146  -28.8275   11.1207 C   0  0  0  0  0  0  0  0  0  0  0  0
  -50.4909  -29.7182    3.8150 C   0  0  0  0  0  0  0  0  0  0  0  0
  -47.1403  -29.4616    4.8753 C   0  0  0  0  0  0  0  0  0  0  0  0
  -52.1402  -32.9203    9.4976 C   0  0  0  0  0  0  0  0  0  0  0  0
  -52.8354  -30.6686    8.9668 C   0  0  0  0  0  0  0  0  0  0  0  0
  -50.6102  -29.5636    5.1739 C   0  0  0  0  0  0  0  0  0  0  0  0
  -57.0421  -26.8683   12.0519 C   0  0  0  0  0  0  0  0  0  0  0  0
  -48.5483  -29.5494    4.6034 C   0  0  0  0  0  0  0  0  0  0  0  0
  -54.8724  -25.1843   11.5883 C   0  0  0  0  0  0  0  0  0  0  0  0
  -56.0005  -24.9216   12.5187 C   0  0  0  0  0  0  0  0  0  0  0  0
  -54.9466  -26.3502   10.9328 C   0  0  0  0  0  0  0  0  0  0  0  0
  -51.7778  -29.5018    6.0894 C   0  0  0  0  0  0  0  0  0  0  0  0
  -53.8552  -26.6537   10.0023 C   0  0  0  0  0  0  0  0  0  0  0  0
  -51.0763  -33.9636    9.5577 C   0  0  0  0  0  0  0  0  0  0  0  0
  -52.0583  -28.3210    9.5635 C   0  0  0  0  0  0  0  0  0  0  0  0
  -52.5089  -29.2781    8.4497 C   0  0  1  0  0  0  0  0  0  0  0  0
  -49.1675  -29.7081    3.4552 N   0  0  0  0  0  0  0  0  0  0  0  0
  -56.2665  -28.4204   10.5813 N   0  0  0  0  0  0  0  0  0  0  0  0
  -57.0175  -25.6956   12.7456 N   0  0  0  0  0  0  0  0  0  0  0  0
  -56.0279  -27.2085   11.1523 N   0  0  0  0  0  0  0  0  0  0  0  0
  -51.4677  -29.3342    7.4175 N   0  0  0  0  0  0  0  0  0  0  0  0
  -53.1745  -27.8133   10.3290 N   0  0  0  0  0  0  0  0  0  0  0  0
  -52.9096  -29.6194    5.6273 O   0  0  0  0  0  0  0  0  0  0  0  0
  -53.6150  -25.9166    9.0473 O   0  0  0  0  0  0  0  0  0  0  0  0
  -49.3565  -29.4535    5.6946 O   0  0  0  0  0  0  0  0  0  0  0  0
  -43.3414  -29.2235    5.6086 H   0  0  0  0  0  0  0  0  0  0  0  0
  -44.1390  -29.5292    3.2789 H   0  0  0  0  0  0  0  0  0  0  0  0
  -44.9749  -29.0718    7.4683 H   0  0  0  0  0  0  0  0  0  0  0  0
  -55.4411  -32.4809   10.1868 H   0  0  0  0  0  0  0  0  0  0  0  0
  -46.5552  -29.6795    2.8030 H   0  0  0  0  0  0  0  0  0  0  0  0
  -47.3949  -29.2228    7.0117 H   0  0  0  0  0  0  0  0  0  0  0  0
  -53.6795  -34.2134   10.2881 H   0  0  0  0  0  0  0  0  0  0  0  0
  -54.9135  -30.2161    9.3457 H   0  0  0  0  0  0  0  0  0  0  0  0
  -58.8519  -27.9849   12.6135 H   0  0  0  0  0  0  0  0  0  0  0  0
  -50.8293  -31.4087    8.6962 H   0  0  0  0  0  0  0  0  0  0  0  0
  -57.8199  -29.7828   10.8199 H   0  0  0  0  0  0  0  0  0  0  0  0
  -51.2760  -29.8341    3.0821 H   0  0  0  0  0  0  0  0  0  0  0  0
  -54.0810  -24.4543   11.4895 H   0  0  0  0  0  0  0  0  0  0  0  0
  -55.9400  -23.9617   13.0578 H   0  0  0  0  0  0  0  0  0  0  0  0
  -51.0294  -34.5400    8.6244 H   0  0  0  0  0  0  0  0  0  0  0  0
  -51.2681  -34.6820   10.3657 H   0  0  0  0  0  0  0  0  0  0  0  0
  -50.0967  -33.5007    9.7296 H   0  0  0  0  0  0  0  0  0  0  0  0
  -51.4051  -28.8376   10.2767 H   0  0  0  0  0  0  0  0  0  0  0  0
  -51.5079  -27.4566    9.1752 H   0  0  0  0  0  0  0  0  0  0  0  0
  -53.4073  -28.8543    7.9823 H   0  0  0  0  0  0  0  0  0  0  0  0
  -50.5193  -29.3066    7.7477 H   0  0  0  0  0  0  0  0  0  0  0  0
  -53.4526  -28.3417   11.1509 H   0  0  0  0  0  0  0  0  0  0  0  0
  1  2  1  0  0  0  0
  1  3  2  0  0  0  0
  2  5  2  0  0  0  0
  3  6  1  0  0  0  0
  4  7  2  0  0  0  0
  4  8  1  0  0  0  0
  5 13  1  0  0  0  0
  6 13  2  0  0  0  0
  7 14  1  0  0  0  0
  8 15  2  0  0  0  0
  9 11  1  0  0  0  0
  9 17  2  0  0  0  0
 10 14  2  0  0  0  0
 10 15  1  0  0  0  0
 11 28  2  0  0  0  0
 12 16  2  0  0  0  0
 12 27  1  0  0  0  0
 13 18  1  0  0  0  0
 14 24  1  0  0  0  0
 15 26  1  0  0  0  0
 16 22  1  0  0  0  0
 16 35  1  0  0  0  0
 17 29  1  0  0  0  0
 17 30  1  0  0  0  0
 18 27  2  0  0  0  0
 18 35  1  0  0  0  0
 19 20  1  0  0  0  0
 19 21  2  0  0  0  0
 20 29  2  0  0  0  0
 21 23  1  0  0  0  0
 21 30  1  0  0  0  0
 22 31  1  0  0  0  0
 22 33  2  0  0  0  0
 23 32  1  0  0  0  0
 23 34  2  0  0  0  0
 25 26  1  0  0  0  0
 25 32  1  0  0  0  0
 26 31  1  0  0  0  0
 28 30  1  0  0  0  0
  1 36  1  0  0  0  0
  2 37  1  0  0  0  0
  3 38  1  0  0  0  0
  4 39  1  0  0  0  0
  5 40  1  0  0  0  0
  6 41  1  0  0  0  0
  7 42  1  0  0  0  0
  8 43  1  0  0  0  0
  9 44  1  0  0  0  0
 10 45  1  0  0  0  0
 11 46  1  0  0  0  0
 12 47  1  0  0  0  0
 19 48  1  0  0  0  0
 20 49  1  0  0  0  0
 24 50  1  0  0  0  0
 24 51  1  0  0  0  0
 24 52  1  0  0  0  0
 25 53  1  0  0  0  0
 25 54  1  0  0  0  0
 26 55  1  0  0  0  0
 31 56  1  0  0  0  0
 32 57  1  0  0  0  0
M  END
> <POSIT::Probability>
0.23

> <POSIT::Method>
HYBRID

> <ReceptorTitle>
UCSF-P4578-REFINED_LIGAND-BOUND-STATE_A__DU__LA1_A-201(A)

> <OMEGA_C>
VZ8xwq1T6sFM5axAwmozwmSx68Fr/IJATUw1woek6cGWXM5Af7pZwjj8AMIixR1BtuI4wn9g7MEl
FnVAQsQ6wqJT6sE868VAwr5VwsLiBMJNqh5BpYZYwgnC98FGLBZB/8NnwgxF38Fil0BBxltPwi4m
/cE0XRBBiKhlwrme5sFd7jFBtPZJwtW+7cFvKXRAso88wlWx68HXApxAnI9QwlmuA8Ie9hdBf1dT
wjlZ9cEXeA9B3XBKwleC7ME8kKVAICtkwjzy1sGK1EBBbDFCwidl7MGoTpNAXH1bwmJ5ycHKaTlB
egBgwl9fx8GkTEhBUMlbwjDN0sGa7C5BdxxPwqoD7MFS3MJAsWtXwrg61cE5CSBBHU5MwrLaB8I/
7BhBujtQwmSR4sEYBBlBJAlSwp456sEaMgdBiqtEwjCq7cFmIV1A2hBhwvRc48EGTSlB4RFkwqCQ
zcEX7ktBkxxgwv6q2cHcbzJB895Nwlqs6sEcXO1AqrJUwpmB3sG4QyVBbqNTwpH07MHjErRAz3VW
wh5Vz8HGwRBBE21Fwt2g68H/ObZAi10twrPJ6cGfebNATo4wwsQ77MEF2VFAROYzwhOT6MFv/O5A
vMNdwnvsAcIU/SJBhDg6wo5v7cGkZDNAaZQ9wjTI6cEZYOBAxbdWwoXaCML/myRBYqdbwoW68cH5
hxVBVGhrwgnh38ES0UlBOFFLwghF+8GSIwtBnUdnwjpD7sFzHi1BmRpNwjqs7sE4QUVA9lJYwlCi
w8EL1TdBhsJfwpixv8Hk7FBBIx5MwuwoCsKP/QlBfBJNwma6CsK62SVBB2NIwq8ABsJ5rBtB2p5N
wlez5sF5bSRBJAhOwi+n28HRzRJBHqFVwqnV5sEpb/9AuRNKwvlz6sGN7fdAcc9VwuW74sHwaTJB

> <OMEGA_E>
GSSVwA==

> <OMEGA_NBR>
     68916

$$$$
CACHE3HI_1697_31
  -OEChem-03092622533D

 58 62  0     1  0  0  0  0  0999 V2000
  -44.7407  -29.5067    4.9493 C   0  0  0  0  0  0  0  0  0  0  0  0
  -45.5372  -29.1219    6.0278 C   0  0  0  0  0  0  0  0  0  0  0  0
  -45.3340  -29.9756    3.7772 C   0  0  0  0  0  0  0  0  0  0  0  0
  -46.9266  -29.2057    5.9343 C   0  0  0  0  0  0  0  0  0  0  0  0
  -46.7233  -30.0594    3.6838 C   0  0  0  0  0  0  0  0  0  0  0  0
  -50.9781  -29.8900    4.1217 C   0  0  0  0  0  0  0  0  0  0  0  0
  -57.5815  -26.4143   13.0238 C   0  0  0  0  0  0  0  0  0  0  0  0
  -47.5198  -29.6747    4.7622 C   0  0  0  0  0  0  0  0  0  0  0  0
  -50.9213  -29.8628    5.4930 C   0  0  0  0  0  0  0  0  0  0  0  0
  -56.4321  -25.7749   12.6079 C   0  0  0  0  0  0  0  0  0  0  0  0
  -48.9506  -29.7611    4.6663 C   0  0  0  0  0  0  0  0  0  0  0  0
  -56.6249  -27.4580   11.3333 C   0  0  0  0  0  0  0  0  0  0  0  0
  -58.4342  -29.4526   11.1472 C   0  0  0  0  0  0  0  0  0  0  0  0
  -58.6206  -28.5179   12.0996 C   0  0  0  0  0  0  0  0  0  0  0  0
  -56.5075  -28.4973   10.3496 C   0  0  0  0  0  0  0  0  0  0  0  0
  -51.9608  -29.9052    6.5527 C   0  0  0  0  0  0  0  0  0  0  0  0
  -55.3608  -28.4681    9.4131 C   0  0  0  0  0  0  0  0  0  0  0  0
  -51.2106  -32.0104    9.8309 C   0  0  0  0  0  0  0  0  0  0  0  0
  -51.0691  -32.6189   11.2105 C   0  0  0  0  0  0  0  0  0  0  0  0
  -52.6418  -30.9033   11.3247 C   0  0  0  0  0  0  0  0  0  0  0  0
  -51.7103  -30.6201   10.1588 C   0  0  2  0  0  0  0  0  0  0  0  0
  -55.8301  -24.5482   13.1535 C   0  0  0  0  0  0  0  0  0  0  0  0
  -52.8831  -28.5130    9.3677 C   0  0  0  0  0  0  0  0  0  0  0  0
  -52.3815  -29.9107    8.9978 C   0  0  1  0  0  0  0  0  0  0  0  0
  -49.7125  -29.8244    3.5974 N   0  0  0  0  0  0  0  0  0  0  0  0
  -55.8404  -26.4308   11.5526 N   0  0  0  0  0  0  0  0  0  0  0  0
  -57.3742  -29.4668   10.2485 N   0  0  0  0  0  0  0  0  0  0  0  0
  -57.6934  -27.4950   12.1958 N   0  0  0  0  0  0  0  0  0  0  0  0
  -51.4969  -29.8553    7.8585 N   0  0  0  0  0  0  0  0  0  0  0  0
  -54.1487  -28.5277   10.0660 N   0  0  0  0  0  0  0  0  0  0  0  0
  -53.1423  -29.9992    6.2308 O   0  0  0  0  0  0  0  0  0  0  0  0
  -55.5498  -28.3973    8.2074 O   0  0  0  0  0  0  0  0  0  0  0  0
  -49.6113  -29.7796    5.8564 O   0  0  0  0  0  0  0  0  0  0  0  0
  -52.0767  -32.0154   12.0358 O   0  0  0  0  0  0  0  0  0  0  0  0
  -43.6591  -29.4423    5.0220 H   0  0  0  0  0  0  0  0  0  0  0  0
  -45.0756  -28.7559    6.9402 H   0  0  0  0  0  0  0  0  0  0  0  0
  -44.7135  -30.2757    2.9379 H   0  0  0  0  0  0  0  0  0  0  0  0
  -47.5336  -28.9026    6.7842 H   0  0  0  0  0  0  0  0  0  0  0  0
  -47.1700  -30.4268    2.7627 H   0  0  0  0  0  0  0  0  0  0  0  0
  -51.8508  -29.9515    3.4881 H   0  0  0  0  0  0  0  0  0  0  0  0
  -58.2977  -26.2010   13.8055 H   0  0  0  0  0  0  0  0  0  0  0  0
  -59.1414  -30.2685   11.0439 H   0  0  0  0  0  0  0  0  0  0  0  0
  -59.4543  -28.5255   12.7898 H   0  0  0  0  0  0  0  0  0  0  0  0
  -50.2733  -32.0191    9.2676 H   0  0  0  0  0  0  0  0  0  0  0  0
  -51.9611  -32.5653    9.2547 H   0  0  0  0  0  0  0  0  0  0  0  0
  -51.1977  -33.7048   11.2060 H   0  0  0  0  0  0  0  0  0  0  0  0
  -50.0937  -32.3841   11.6496 H   0  0  0  0  0  0  0  0  0  0  0  0
  -52.7361  -30.0491   12.0016 H   0  0  0  0  0  0  0  0  0  0  0  0
  -53.6439  -31.1962   10.9925 H   0  0  0  0  0  0  0  0  0  0  0  0
  -50.8641  -30.0174   10.5163 H   0  0  0  0  0  0  0  0  0  0  0  0
  -55.1093  -24.7599   13.9643 H   0  0  0  0  0  0  0  0  0  0  0  0
  -56.5856  -23.8705   13.5918 H   0  0  0  0  0  0  0  0  0  0  0  0
  -55.2922  -23.9827   12.3724 H   0  0  0  0  0  0  0  0  0  0  0  0
  -52.1611  -28.0014   10.0131 H   0  0  0  0  0  0  0  0  0  0  0  0
  -53.0237  -27.9039    8.4678 H   0  0  0  0  0  0  0  0  0  0  0  0
  -53.2435  -30.5087    8.6809 H   0  0  0  0  0  0  0  0  0  0  0  0
  -50.4993  -29.8411    8.0466 H   0  0  0  0  0  0  0  0  0  0  0  0
  -54.1188  -28.5737   11.0804 H   0  0  0  0  0  0  0  0  0  0  0  0
  1  2  1  0  0  0  0
  1  3  2  0  0  0  0
  2  4  2  0  0  0  0
  3  5  1  0  0  0  0
  4  8  1  0  0  0  0
  5  8  2  0  0  0  0
  6  9  2  0  0  0  0
  6 25  1  0  0  0  0
  7 10  2  0  0  0  0
  7 28  1  0  0  0  0
  8 11  1  0  0  0  0
  9 16  1  0  0  0  0
  9 33  1  0  0  0  0
 10 22  1  0  0  0  0
 10 26  1  0  0  0  0
 11 25  2  0  0  0  0
 11 33  1  0  0  0  0
 12 15  1  0  0  0  0
 12 26  2  0  0  0  0
 12 28  1  0  0  0  0
 13 14  2  0  0  0  0
 13 27  1  0  0  0  0
 14 28  1  0  0  0  0
 15 17  1  0  0  0  0
 15 27  2  0  0  0  0
 16 29  1  0  0  0  0
 16 31  2  0  0  0  0
 17 30  1  0  0  0  0
 17 32  2  0  0  0  0
 18 19  1  0  0  0  0
 18 21  1  0  0  0  0
 19 34  1  0  0  0  0
 20 21  1  0  0  0  0
 20 34  1  0  0  0  0
 21 24  1  0  0  0  0
 23 24  1  0  0  0  0
 23 30  1  0  0  0  0
 24 29  1  0  0  0  0
  1 35  1  0  0  0  0
  2 36  1  0  0  0  0
  3 37  1  0  0  0  0
  4 38  1  0  0  0  0
  5 39  1  0  0  0  0
  6 40  1  0  0  0  0
  7 41  1  0  0  0  0
 13 42  1  0  0  0  0
 14 43  1  0  0  0  0
 18 44  1  0  0  0  0
 18 45  1  0  0  0  0
 19 46  1  0  0  0  0
 19 47  1  0  0  0  0
 20 48  1  0  0  0  0
 20 49  1  0  0  0  0
 21 50  1  0  0  0  0
 22 51  1  0  0  0  0
 22 52  1  0  0  0  0
 22 53  1  0  0  0  0
 23 54  1  0  0  0  0
 23 55  1  0  0  0  0
 24 56  1  0  0  0  0
 29 57  1  0  0  0  0
 30 58  1  0  0  0  0
M  END
> <POSIT::Probability>
0.18

> <POSIT::Method>
HYBRID

> <ReceptorTitle>
UCSF-P4578-REFINED_LIGAND-BOUND-STATE_A__DU__LA1_A-201(A)

> <OMEGA_C>
hvYywssN7MFaYJ5AICY2wr756MHK48BAAFY1whzO78FIvnFAy7Q7wlyl6cEI5r1AreQ6wrl58MHA
wmtAlelLwrEe78EN5YNAfVNmwoZQ08FdYVBBRRQ+wrll7cFXZJhAaK9LwhPn7sELx69Af7phwuYy
zsEmuklBc81DwtAW7sF0UpVA239iwvWp28FXVTVBmbxpwvae68EOWzJBhHtqwrck5MHkl0FBugdi
wnL648HTlyVB59dPwsE978GVr9FAdHFdwqO+48HxmxZBs9dMwp0KAMIrSx1Bw0ZMwrh5AsI2XjNB
K5FSwgs698EtMjVBWtdOwgT29MF3iiJBAlJfwqJixMGmdFJBSYhTwpUa5MHz4RVBooZRwhtJ78Eq
9w9BldlGwk6Y7sHWO2ZAhVxfwk9y08Fj1zhBNn9lwu+768Gr+SNBDcZmwrL128HjIUNByvxNwr/X
7sGEePtAQ5hYwqg45ME8DiFBvpFUwmH+78HpYsdACjNewqYt48GUUQNB+3FGwqg87sH4Z7tAj05Q
wsUPAMJvkkBB56IuwuiJ68F4tKBAd000whgM5sE2Ft5Ap9oywpg08sGABjxAXSI+wp4458H8F9lA
IK48wgJq88HE0DBAQmdPwsCc78G4PF9A4DBpwpqb0cEx41xBzZBswvAl8sGuszBBK9Ftwk405MHi
okxB4xdJwpITAMIVSBRBM9hPwtdCAsI7ExRBfspMwsTRBsLKSzNB8l9IwkyJAcLpZDpBzvFSwohk
8MFxBkBBXZNWwuSR+cE+4S9BynRLwp0j8MHFQihB829cwjIUxsHnbV9Bo1diwsX2vsEHeFlBOitd
woTcv8F+9UVB/KRQwtcC4MHINSBBThhUwkM738EFfAdBVflUwtIR9MHr5ApBP/9Jwqq67sHyvgBB
q3lYwuuW5ME9STFB

> <OMEGA_E>
knmJwA==

> <OMEGA_NBR>
     70582

$$$$
CACHE3HI_1697_33
  -OEChem-03092622533D

 58 62  0     1  0  0  0  0  0999 V2000
  -46.1056  -29.5269    3.3339 C   0  0  0  0  0  0  0  0  0  0  0  0
  -45.3906  -29.3955    4.5376 C   0  0  0  0  0  0  0  0  0  0  0  0
  -55.1608  -25.6272   12.2562 C   0  0  0  0  0  0  0  0  0  0  0  0
  -47.4746  -29.5266    5.7867 C   0  0  0  0  0  0  0  0  0  0  0  0
  -50.2648  -29.8643    3.2925 C   0  0  0  0  0  0  0  0  0  0  0  0
  -56.0822  -25.6249   13.4187 C   0  0  0  0  0  0  0  0  0  0  0  0
  -48.2139  -29.6190    4.5759 C   0  0  0  0  0  0  0  0  0  0  0  0
  -49.6321  -29.7199    4.5435 C   0  0  0  0  0  0  0  0  0  0  0  0
  -47.5091  -29.6392    3.3405 C   0  0  0  0  0  0  0  0  0  0  0  0
  -46.0745  -29.3944    5.7789 C   0  0  0  0  0  0  0  0  0  0  0  0
  -49.4973  -29.9020    2.1158 C   0  0  0  0  0  0  0  0  0  0  0  0
  -55.6074  -26.6093   11.4164 C   0  0  0  0  0  0  0  0  0  0  0  0
  -57.0590  -28.6508   10.2518 C   0  0  0  0  0  0  0  0  0  0  0  0
  -57.4529  -28.1693   11.4810 C   0  0  0  0  0  0  0  0  0  0  0  0
  -55.8560  -28.0629    9.6107 C   0  0  0  0  0  0  0  0  0  0  0  0
  -50.4799  -29.6839    5.7508 C   0  0  0  0  0  0  0  0  0  0  0  0
  -55.3477  -28.6184    8.3626 C   0  0  0  0  0  0  0  0  0  0  0  0
  -51.9351  -31.1135    8.1261 C   0  0  0  0  0  0  0  0  0  0  0  0
  -53.2443  -29.1160    7.1045 C   0  0  0  0  0  0  0  0  0  0  0  0
  -53.3908  -29.6478    9.5629 C   0  0  0  0  0  0  0  0  0  0  0  0
  -52.6086  -30.5071    6.8586 C   0  0  1  0  0  0  0  0  0  0  0  0
  -52.8889  -31.0872    9.3328 C   0  0  1  0  0  0  0  0  0  0  0  0
  -50.1962  -30.0171    0.7790 C   0  0  0  0  0  0  0  0  0  0  0  0
  -43.9973  -29.1381    7.0023 C   0  0  0  0  0  0  0  0  0  0  0  0
  -56.9996  -26.5578   13.2457 N   0  0  0  0  0  0  0  0  0  0  0  0
  -48.1514  -29.7742    2.1551 N   0  0  0  0  0  0  0  0  0  0  0  0
  -55.1695  -27.0934   10.1892 N   0  0  0  0  0  0  0  0  0  0  0  0
  -56.7096  -27.1328   12.0552 N   0  0  0  0  0  0  0  0  0  0  0  0
  -54.0492  -29.1407    8.3306 N   0  0  0  0  0  0  0  0  0  0  0  0
  -51.6514  -30.4423    5.7517 N   0  0  0  0  0  0  0  0  0  0  0  0
  -50.2001  -28.9400    6.6855 O   0  0  0  0  0  0  0  0  0  0  0  0
  -56.0305  -28.5090    7.3497 O   0  0  0  0  0  0  0  0  0  0  0  0
  -53.9957  -31.9612    9.0946 O   0  0  0  0  0  0  0  0  0  0  0  0
  -45.4388  -29.2740    7.0101 O   0  0  0  0  0  0  0  0  0  0  0  0
  -45.5727  -29.5419    2.3946 H   0  0  0  0  0  0  0  0  0  0  0  0
  -44.3155  -29.2950    4.5161 H   0  0  0  0  0  0  0  0  0  0  0  0
  -54.3081  -24.9822   12.1038 H   0  0  0  0  0  0  0  0  0  0  0  0
  -47.9983  -29.5585    6.7307 H   0  0  0  0  0  0  0  0  0  0  0  0
  -51.3403  -29.9461    3.2381 H   0  0  0  0  0  0  0  0  0  0  0  0
  -56.0132  -24.9649   14.2709 H   0  0  0  0  0  0  0  0  0  0  0  0
  -57.6137  -29.4392    9.7648 H   0  0  0  0  0  0  0  0  0  0  0  0
  -58.3129  -28.5814   11.9880 H   0  0  0  0  0  0  0  0  0  0  0  0
  -51.6506  -32.1553    7.9169 H   0  0  0  0  0  0  0  0  0  0  0  0
  -51.0351  -30.5291    8.3679 H   0  0  0  0  0  0  0  0  0  0  0  0
  -52.4475  -28.3646    7.2071 H   0  0  0  0  0  0  0  0  0  0  0  0
  -53.8879  -28.8539    6.2518 H   0  0  0  0  0  0  0  0  0  0  0  0
  -54.1135  -29.6414   10.3921 H   0  0  0  0  0  0  0  0  0  0  0  0
  -52.5383  -28.9997    9.8145 H   0  0  0  0  0  0  0  0  0  0  0  0
  -53.4221  -31.1884    6.5688 H   0  0  0  0  0  0  0  0  0  0  0  0
  -52.3352  -31.4127   10.2258 H   0  0  0  0  0  0  0  0  0  0  0  0
  -49.4512  -29.9770   -0.0294 H   0  0  0  0  0  0  0  0  0  0  0  0
  -50.7390  -30.9725    0.7302 H   0  0  0  0  0  0  0  0  0  0  0  0
  -50.9068  -29.1853    0.6641 H   0  0  0  0  0  0  0  0  0  0  0  0
  -43.6310  -29.0528    8.0360 H   0  0  0  0  0  0  0  0  0  0  0  0
  -43.5484  -30.0222    6.5261 H   0  0  0  0  0  0  0  0  0  0  0  0
  -43.7173  -28.2360    6.4386 H   0  0  0  0  0  0  0  0  0  0  0  0
  -51.8527  -30.9825    4.9346 H   0  0  0  0  0  0  0  0  0  0  0  0
  -54.5817  -31.9417    9.8420 H   0  0  0  0  0  0  0  0  0  0  0  0
  1  2  2  0  0  0  0
  1  9  1  0  0  0  0
  2 10  1  0  0  0  0
  3  6  1  0  0  0  0
  3 12  2  0  0  0  0
  4  7  1  0  0  0  0
  4 10  2  0  0  0  0
  5  8  2  0  0  0  0
  5 11  1  0  0  0  0
  6 25  2  0  0  0  0
  7  8  1  0  0  0  0
  7  9  2  0  0  0  0
  8 16  1  0  0  0  0
  9 26  1  0  0  0  0
 10 34  1  0  0  0  0
 11 23  1  0  0  0  0
 11 26  2  0  0  0  0
 12 27  1  0  0  0  0
 12 28  1  0  0  0  0
 13 14  2  0  0  0  0
 13 15  1  0  0  0  0
 14 28  1  0  0  0  0
 15 17  1  0  0  0  0
 15 27  2  0  0  0  0
 16 30  1  0  0  0  0
 16 31  2  0  0  0  0
 17 29  1  0  0  0  0
 17 32  2  0  0  0  0
 18 21  1  0  0  0  0
 18 22  1  0  0  0  0
 19 21  1  0  0  0  0
 19 29  1  0  0  0  0
 20 22  1  0  0  0  0
 20 29  1  0  0  0  0
 21 30  1  0  0  0  0
 22 33  1  0  0  0  0
 24 34  1  0  0  0  0
 25 28  1  0  0  0  0
  1 35  1  0  0  0  0
  2 36  1  0  0  0  0
  3 37  1  0  0  0  0
  4 38  1  0  0  0  0
  5 39  1  0  0  0  0
  6 40  1  0  0  0  0
 13 41  1  0  0  0  0
 14 42  1  0  0  0  0
 18 43  1  0  0  0  0
 18 44  1  0  0  0  0
 19 45  1  0  0  0  0
 19 46  1  0  0  0  0
 20 47  1  0  0  0  0
 20 48  1  0  0  0  0
 21 49  1  0  0  0  0
 22 50  1  0  0  0  0
 23 51  1  0  0  0  0
 23 52  1  0  0  0  0
 23 53  1  0  0  0  0
 24 54  1  0  0  0  0
 24 55  1  0  0  0  0
 24 56  1  0  0  0  0
 30 57  1  0  0  0  0
 33 58  1  0  0  0  0
M  END
> <POSIT::Probability>
0.25

> <POSIT::Method>
SHAPEFIT

> <ReceptorTitle>
UCSF-P4578-REFINED_LIGAND-BOUND-STATE_A__DU__LA1_A-201(A)

> <OMEGA_C>
IGw4wjE37MEfXlVABJA1wgwq68H+M5FAs6RcwnMEzcGEGURBAeY9wnQ27MGBLLlAJA9Jwh7q7sF/
uFJAJVRgwrL/zMEVs1ZBCdtAwsrz7MHbbZJAQ4dGwmPC7cF8ZJFASQk+wh4d7cF5y1VATkw4wsEn
68H17LhAQ/1FwlY378H1aQdA7m1ewuPf1MGFqTZBZzxkwsg05cEzByRBxs9lws5a4cFbsjdBgWxf
wtaA4MGOxRlBbetJwql47cF/BrhAEGRdwnPy5MExzQVBjb1Pwnno+MFXBAJBLPpUwpLt6MHsV+NA
JJBVwrcu7cGGARlBPG9SwnwO9MF0edtAMo5Twn6y+MH5UhVB3MhIwvci8MGYa0c/R/0vwsYa6cHn
EuBAm/9jwkx21MGF7lNB/ppAwpEx7sEF7QlAm61cwje/2MEaByNBotZiwgEQ2cH94UBBVjJYwjcg
6cEbSgVBE5tOwsuJ88HwDbhA78xIwiiF58H079VAQR9gwnwS5MFqMOtAmPtXwnOw/8FXgxFBUME1
whUx6sGBUuBAbUo2wtpV7MGBQRlAHkMxwihc6sGEg5BAfDtZwpLbx8EFqUFBRP4/wsN37MG6YddA
elxNwoqR78FFPE9AkA1gwjK4x8GBVWRBZnRmwmqD68GAPBxBa0Bpwqqm5MHkzj9BO5pOwgefAMJJ
V/1A8CNMwqk79MHZ4gVBRMpRwrLq4sF+oOZAK41Xws/U5sFaDshAQXRYwoEh7cHoRSZBOCdSwnP/
58ENCB1BOrBVwvKB+cFQM9JAQVdRwjxN+8HGnCNBDs5FwvfQ78ErzvC8vPRKwsjH98GI7To/jqBL
wpB76cGKASo/I4YuwhVs6MFxkwBBjTEuwnQt8MHV1dBAeN4uwlTj4cGkCM5AMmlPwizc98FS6J1A
slNawoKI/8HkeB1B

> <OMEGA_E>
FFSNPw==

> <OMEGA_NBR>
     72272

$$$$
CACHE3HI_1697_4
  -OEChem-03092622533D

 63 67  0     1  0  0  0  0  0999 V2000
  -52.9464  -27.2633    3.2434 C   0  0  0  0  0  0  0  0  0  0  0  0
  -43.9372  -29.0056    5.9612 C   0  0  0  0  0  0  0  0  0  0  0  0
  -52.5599  -27.4445    4.5833 C   0  0  0  0  0  0  0  0  0  0  0  0
  -53.7888  -28.2011    2.6162 C   0  0  0  0  0  0  0  0  0  0  0  0
  -45.1732  -28.8809    6.7679 C   0  0  0  0  0  0  0  0  0  0  0  0
  -53.8712  -29.5042    4.6767 C   0  0  0  0  0  0  0  0  0  0  0  0
  -56.0280  -28.9749    9.4744 C   0  0  0  0  0  0  0  0  0  0  0  0
  -44.2961  -29.3799    4.6830 C   0  0  0  0  0  0  0  0  0  0  0  0
  -54.9521  -27.9552    9.5499 C   0  0  0  0  0  0  0  0  0  0  0  0
  -53.0101  -28.5730    5.3022 C   0  0  0  0  0  0  0  0  0  0  0  0
  -54.2620  -29.3337    3.3328 C   0  0  0  0  0  0  0  0  0  0  0  0
  -46.2234  -29.1840    5.9397 C   0  0  0  0  0  0  0  0  0  0  0  0
  -55.2752  -27.1347   10.5976 C   0  0  0  0  0  0  0  0  0  0  0  0
  -47.6641  -29.2617    6.1375 C   0  0  0  0  0  0  0  0  0  0  0  0
  -54.6556  -25.9483   11.1954 C   0  0  0  0  0  0  0  0  0  0  0  0
  -55.2831  -25.3599   12.2646 C   0  0  0  0  0  0  0  0  0  0  0  0
  -56.5485  -25.9235   12.7983 C   0  0  0  0  0  0  0  0  0  0  0  0
  -48.4536  -29.6056    5.0555 C   0  0  0  0  0  0  0  0  0  0  0  0
  -57.1153  -27.0534   12.1932 C   0  0  0  0  0  0  0  0  0  0  0  0
  -46.4844  -29.8200    3.6213 C   0  0  0  0  0  0  0  0  0  0  0  0
  -53.7833  -27.8592    8.6660 C   0  0  0  0  0  0  0  0  0  0  0  0
  -49.8937  -29.7804    5.2309 C   0  0  0  0  0  0  0  0  0  0  0  0
  -57.1493  -25.2227   14.0105 C   0  0  0  0  0  0  0  0  0  0  0  0
  -58.4439  -27.6618   12.6496 C   0  0  0  0  0  0  0  0  0  0  0  0
  -55.5124  -30.1080    1.4057 C   0  0  0  0  0  0  0  0  0  0  0  0
  -51.7828  -30.1625    6.8697 C   0  0  0  0  0  0  0  0  0  0  0  0
  -52.5146  -28.8106    6.7190 C   0  0  2  0  0  0  0  0  0  0  0  0
  -56.9059  -28.7429   10.4287 N   0  0  0  0  0  0  0  0  0  0  0  0
  -45.6725  -29.4721    4.7099 N   0  0  0  0  0  0  0  0  0  0  0  0
  -56.4524  -27.6452   11.0943 N   0  0  0  0  0  0  0  0  0  0  0  0
  -47.8666  -29.8588    3.8022 N   0  0  0  0  0  0  0  0  0  0  0  0
  -53.6540  -28.7802    7.6359 N   0  0  0  0  0  0  0  0  0  0  0  0
  -50.3756  -30.0141    6.5162 N   0  0  0  0  0  0  0  0  0  0  0  0
  -46.0074  -30.0886    2.5239 O   0  0  0  0  0  0  0  0  0  0  0  0
  -52.9381  -26.9885    8.8504 O   0  0  0  0  0  0  0  0  0  0  0  0
  -50.6196  -29.8151    4.2439 O   0  0  0  0  0  0  0  0  0  0  0  0
  -55.0947  -30.2999    2.7796 O   0  0  0  0  0  0  0  0  0  0  0  0
  -52.5961  -26.4022    2.6938 H   0  0  0  0  0  0  0  0  0  0  0  0
  -42.9305  -28.8335    6.3124 H   0  0  0  0  0  0  0  0  0  0  0  0
  -51.9182  -26.7199    5.0626 H   0  0  0  0  0  0  0  0  0  0  0  0
  -54.0768  -28.0591    1.5851 H   0  0  0  0  0  0  0  0  0  0  0  0
  -45.2354  -28.6041    7.8100 H   0  0  0  0  0  0  0  0  0  0  0  0
  -54.2334  -30.3552    5.2344 H   0  0  0  0  0  0  0  0  0  0  0  0
  -56.0823  -29.7774    8.7537 H   0  0  0  0  0  0  0  0  0  0  0  0
  -43.6417  -29.5615    3.8432 H   0  0  0  0  0  0  0  0  0  0  0  0
  -48.1038  -29.0564    7.1024 H   0  0  0  0  0  0  0  0  0  0  0  0
  -53.7312  -25.5485   10.8054 H   0  0  0  0  0  0  0  0  0  0  0  0
  -54.8532  -24.4806   12.7211 H   0  0  0  0  0  0  0  0  0  0  0  0
  -57.8404  -24.4356   13.6744 H   0  0  0  0  0  0  0  0  0  0  0  0
  -57.6970  -25.9543   14.6227 H   0  0  0  0  0  0  0  0  0  0  0  0
  -56.3444  -24.7724   14.6098 H   0  0  0  0  0  0  0  0  0  0  0  0
  -59.2722  -27.1864   12.1037 H   0  0  0  0  0  0  0  0  0  0  0  0
  -58.4420  -28.7424   12.4441 H   0  0  0  0  0  0  0  0  0  0  0  0
  -58.5722  -27.4940   13.7291 H   0  0  0  0  0  0  0  0  0  0  0  0
  -56.1628  -30.9408    1.0999 H   0  0  0  0  0  0  0  0  0  0  0  0
  -56.0648  -29.1607    1.3194 H   0  0  0  0  0  0  0  0  0  0  0  0
  -54.6266  -30.0766    0.7543 H   0  0  0  0  0  0  0  0  0  0  0  0
  -51.8618  -30.5045    7.9122 H   0  0  0  0  0  0  0  0  0  0  0  0
  -52.2486  -30.9042    6.2042 H   0  0  0  0  0  0  0  0  0  0  0  0
  -51.8121  -28.0067    6.9841 H   0  0  0  0  0  0  0  0  0  0  0  0
  -48.4548  -30.0717    3.0221 H   0  0  0  0  0  0  0  0  0  0  0  0
  -54.3782  -29.4590    7.5139 H   0  0  0  0  0  0  0  0  0  0  0  0
  -49.7047  -30.0858    7.2543 H   0  0  0  0  0  0  0  0  0  0  0  0
  1  3  2  0  0  0  0
  1  4  1  0  0  0  0
  2  5  1  0  0  0  0
  2  8  2  0  0  0  0
  3 10  1  0  0  0  0
  4 11  2  0  0  0  0
  5 12  2  0  0  0  0
  6 10  2  0  0  0  0
  6 11  1  0  0  0  0
  7  9  1  0  0  0  0
  7 28  2  0  0  0  0
  8 29  1  0  0  0  0
  9 13  2  0  0  0  0
  9 21  1  0  0  0  0
 10 27  1  0  0  0  0
 11 37  1  0  0  0  0
 12 14  1  0  0  0  0
 12 29  1  0  0  0  0
 13 15  1  0  0  0  0
 13 30  1  0  0  0  0
 14 18  2  0  0  0  0
 15 16  2  0  0  0  0
 16 17  1  0  0  0  0
 17 19  2  0  0  0  0
 17 23  1  0  0  0  0
 18 22  1  0  0  0  0
 18 31  1  0  0  0  0
 19 24  1  0  0  0  0
 19 30  1  0  0  0  0
 20 29  1  0  0  0  0
 20 31  1  0  0  0  0
 20 34  2  0  0  0  0
 21 32  1  0  0  0  0
 21 35  2  0  0  0  0
 22 33  1  0  0  0  0
 22 36  2  0  0  0  0
 25 37  1  0  0  0  0
 26 27  1  0  0  0  0
 26 33  1  0  0  0  0
 27 32  1  0  0  0  0
 28 30  1  0  0  0  0
  1 38  1  0  0  0  0
  2 39  1  0  0  0  0
  3 40  1  0  0  0  0
  4 41  1  0  0  0  0
  5 42  1  0  0  0  0
  6 43  1  0  0  0  0
  7 44  1  0  0  0  0
  8 45  1  0  0  0  0
 14 46  1  0  0  0  0
 15 47  1  0  0  0  0
 16 48  1  0  0  0  0
 23 49  1  0  0  0  0
 23 50  1  0  0  0  0
 23 51  1  0  0  0  0
 24 52  1  0  0  0  0
 24 53  1  0  0  0  0
 24 54  1  0  0  0  0
 25 55  1  0  0  0  0
 25 56  1  0  0  0  0
 25 57  1  0  0  0  0
 26 58  1  0  0  0  0
 26 59  1  0  0  0  0
 27 60  1  0  0  0  0
 31 61  1  0  0  0  0
 32 62  1  0  0  0  0
 33 63  1  0  0  0  0
M  END
> <POSIT::Probability>
0.25

> <POSIT::Method>
SHAPEFIT

> <ReceptorTitle>
UCSF-P4578-REFINED_LIGAND-BOUND-STATE_A__DU__LA1_A-201(A)

> <OMEGA_C>
JMlTwlUb2sGMlE9Asb8vwokL6MHSwb5ATD1Swk6O28FIqpJArydXwtWb4cHMbydAT7E0wioM58H6
kthAJHxXwpwI7MEsp5VArRxgwqzM58FDlxdBPC8xwhcK68H42pVA785bwimk38F9zBhBYQpUwpeV
5MFzq6lARgxZwl6r6sHRTFVAtuQ4wud46cFmEr5AyBldwvMT2cGYjylBE6g+wv0X6sFvZsRAUp9a
whOWz8GPIDNB2CFdwiPhysHZO0RBrDFiwlBjz8HsxUxBcNBBwkjY7MHGxqFAE3Zkwmpt2MElF0NB
APA5wleP7sH4w2dAISJXwpPf3sEPqApBHJNHwkc+7sFeY6dA7ZhkwhjIycHtKmBBjcZpwl1L3cGg
ZEpBqwxewkLd8MFf7bM/oCFPwspM8cEu1NtA7w5SwiN85sG+AddArJ9jwnbx5cHw2yZBqLA2wunG
68FNt5ZAOc9hwkUp3cFagjFBWnc/wsXe7sEvV3NAuZ1WwtE95sH2WPRAo4BJwusc8MHJhNBAiAc4
wmK18MHghyFAnMBTwoXo18Etmw1Bf3pKwlqF7sEMzodA8mBcwjBm8sFa5TFAZGJSwrI308GZZyxA
3bgrwgSr5sF0/8lAQqxPwnPC1cHUAKJArU5Ywvp44MFU48o/DvE0whnV5MFp6/lACu9YwmDX8sEy
gKdAQFRgwiI47sEHDwxBFpEuwtx97MG993VASWpAwpdz6MGaRuNAyuxWwkpjzMHm4ixBrGlbwjvY
w8GTiUtBh1xnwg98w8F8ylpBtMlmwnCiz8Gs9mlBpWBhwtItxsHuwWlBuRZtwsZ92cHeqEFBlcRp
wofw5cE2G0dB9Ulqwrjz28FeqltBuaZgwrSG98Eky4w/UUJgwiRJ6cEG4qg/mIFawuKc8MGMF0E/
enJPwiYJ9MFlMP1Amf5Qwt8798GViMZAoT9PwsEN4MECft9Av9FBwuCS8MGwaUFAPYNZwvur68ER
cvBAqdFGwriv8MFHI+hA

> <OMEGA_E>
9ASWPw==

> <OMEGA_NBR>
     74057

$$$$
CACHE3HI_1697_52
  -OEChem-03092622533D

 55 58  0     1  0  0  0  0  0999 V2000
  -52.2412  -30.0267    9.5783 C   0  0  0  0  0  0  0  0  0  0  0  0
  -51.9846  -28.8708    8.8408 C   0  0  0  0  0  0  0  0  0  0  0  0
  -52.0013  -31.2801    9.0153 C   0  0  0  0  0  0  0  0  0  0  0  0
  -41.7812  -29.9941    2.0914 C   0  0  0  0  0  0  0  0  0  0  0  0
  -42.9072  -30.7829    1.8254 C   0  0  0  0  0  0  0  0  0  0  0  0
  -51.4879  -28.9683    7.5409 C   0  0  0  0  0  0  0  0  0  0  0  0
  -51.5046  -31.3775    7.7154 C   0  0  0  0  0  0  0  0  0  0  0  0
  -41.7935  -28.6108    1.8836 C   0  0  0  0  0  0  0  0  0  0  0  0
  -49.6400  -29.8770    5.1117 C   0  0  0  0  0  0  0  0  0  0  0  0
  -44.0945  -30.2153    1.3390 C   0  0  0  0  0  0  0  0  0  0  0  0
  -44.1224  -28.8298    1.1247 C   0  0  0  0  0  0  0  0  0  0  0  0
  -51.2479  -30.2217    6.9779 C   0  0  0  0  0  0  0  0  0  0  0  0
  -42.9854  -28.0852    1.4011 C   0  0  0  0  0  0  0  0  0  0  0  0
  -50.6003  -30.8459    3.5318 C   0  0  0  0  0  0  0  0  0  0  0  0
  -44.5533  -26.8131    0.6809 C   0  0  0  0  0  0  0  0  0  0  0  0
  -45.2728  -31.0519    1.0625 C   0  0  0  0  0  0  0  0  0  0  0  0
  -50.9919  -31.4249    2.2372 C   0  0  0  0  0  0  0  0  0  0  0  0
  -48.5873  -29.8686   -0.1543 C   0  0  0  0  0  0  0  0  0  0  0  0
  -46.4249  -29.6684    2.7460 C   0  0  0  0  0  0  0  0  0  0  0  0
  -50.4858  -31.8422   -0.1388 C   0  0  0  0  0  0  0  0  0  0  0  0
  -47.7124  -31.4564    1.6300 C   0  0  0  0  0  0  0  0  0  0  0  0
  -48.8573  -30.5424    1.1874 C   0  0  2  0  0  0  0  0  0  0  0  0
  -49.5000  -30.1771    3.7867 N   0  0  0  0  0  0  0  0  0  0  0  0
  -45.1168  -28.0010    0.6647 N   0  0  0  0  0  0  0  0  0  0  0  0
  -51.3540  -30.9345    4.6603 N   0  0  0  0  0  0  0  0  0  0  0  0
  -50.7578  -30.3182    5.6920 N   0  0  0  0  0  0  0  0  0  0  0  0
  -45.0819  -25.6194    0.3260 N   0  0  0  0  0  0  0  0  0  0  0  0
  -46.4589  -30.7662    1.7740 N   0  0  0  0  0  0  0  0  0  0  0  0
  -50.1118  -31.2556    1.1497 N   0  0  0  0  0  0  0  0  0  0  0  0
  -45.1283  -31.9330    0.2165 O   0  0  0  0  0  0  0  0  0  0  0  0
  -52.0638  -32.0277    2.2124 O   0  0  0  0  0  0  0  0  0  0  0  0
  -43.2621  -26.7795    1.1142 O   0  0  0  0  0  0  0  0  0  0  0  0
  -52.6270  -29.9506   10.5907 H   0  0  0  0  0  0  0  0  0  0  0  0
  -52.1690  -27.8942    9.2788 H   0  0  0  0  0  0  0  0  0  0  0  0
  -52.1997  -32.1808    9.5887 H   0  0  0  0  0  0  0  0  0  0  0  0
  -40.8772  -30.4667    2.4684 H   0  0  0  0  0  0  0  0  0  0  0  0
  -42.8511  -31.8549    2.0026 H   0  0  0  0  0  0  0  0  0  0  0  0
  -51.2909  -28.0589    6.9783 H   0  0  0  0  0  0  0  0  0  0  0  0
  -51.3223  -32.3611    7.2893 H   0  0  0  0  0  0  0  0  0  0  0  0
  -40.9278  -27.9923    2.0860 H   0  0  0  0  0  0  0  0  0  0  0  0
  -48.8865  -29.3158    5.6511 H   0  0  0  0  0  0  0  0  0  0  0  0
  -48.4585  -30.6188   -0.9417 H   0  0  0  0  0  0  0  0  0  0  0  0
  -47.6720  -29.2675   -0.1284 H   0  0  0  0  0  0  0  0  0  0  0  0
  -49.4195  -29.2177   -0.4402 H   0  0  0  0  0  0  0  0  0  0  0  0
  -46.6973  -28.7230    2.2680 H   0  0  0  0  0  0  0  0  0  0  0  0
  -47.1265  -29.8641    3.5618 H   0  0  0  0  0  0  0  0  0  0  0  0
  -45.4219  -29.5709    3.1706 H   0  0  0  0  0  0  0  0  0  0  0  0
  -51.0657  -31.1293   -0.7321 H   0  0  0  0  0  0  0  0  0  0  0  0
  -49.5902  -32.1204   -0.7015 H   0  0  0  0  0  0  0  0  0  0  0  0
  -51.0881  -32.7415    0.0164 H   0  0  0  0  0  0  0  0  0  0  0  0
  -47.9403  -31.9220    2.5948 H   0  0  0  0  0  0  0  0  0  0  0  0
  -47.5528  -32.2556    0.8977 H   0  0  0  0  0  0  0  0  0  0  0  0
  -48.9799  -29.7614    1.9464 H   0  0  0  0  0  0  0  0  0  0  0  0
  -46.0304  -25.5383   -0.0646 H   0  0  0  0  0  0  0  0  0  0  0  0
  -44.5251  -24.7540    0.3304 H   0  0  0  0  0  0  0  0  0  0  0  0
  1  2  1  0  0  0  0
  1  3  2  0  0  0  0
  2  6  2  0  0  0  0
  3  7  1  0  0  0  0
  4  5  2  0  0  0  0
  4  8  1  0  0  0  0
  5 10  1  0  0  0  0
  6 12  1  0  0  0  0
  7 12  2  0  0  0  0
  8 13  2  0  0  0  0
  9 23  2  0  0  0  0
  9 26  1  0  0  0  0
 10 11  2  0  0  0  0
 10 16  1  0  0  0  0
 11 13  1  0  0  0  0
 11 24  1  0  0  0  0
 12 26  1  0  0  0  0
 13 32  1  0  0  0  0
 14 17  1  0  0  0  0
 14 23  1  0  0  0  0
 14 25  2  0  0  0  0
 15 24  2  0  0  0  0
 15 27  1  0  0  0  0
 15 32  1  0  0  0  0
 16 28  1  0  0  0  0
 16 30  2  0  0  0  0
 17 29  1  0  0  0  0
 17 31  2  0  0  0  0
 18 22  1  0  0  0  0
 19 28  1  0  0  0  0
 20 29  1  0  0  0  0
 21 22  1  0  0  0  0
 21 28  1  0  0  0  0
 22 29  1  0  0  0  0
 25 26  1  0  0  0  0
  1 33  1  0  0  0  0
  2 34  1  0  0  0  0
  3 35  1  0  0  0  0
  4 36  1  0  0  0  0
  5 37  1  0  0  0  0
  6 38  1  0  0  0  0
  7 39  1  0  0  0  0
  8 40  1  0  0  0  0
  9 41  1  0  0  0  0
 18 42  1  0  0  0  0
 18 43  1  0  0  0  0
 18 44  1  0  0  0  0
 19 45  1  0  0  0  0
 19 46  1  0  0  0  0
 19 47  1  0  0  0  0
 20 48  1  0  0  0  0
 20 49  1  0  0  0  0
 20 50  1  0  0  0  0
 21 51  1  0  0  0  0
 21 52  1  0  0  0  0
 22 53  1  0  0  0  0
 27 54  1  0  0  0  0
 27 55  1  0  0  0  0
M  END
> <POSIT::Probability>
0.02

> <POSIT::Method>
FRED

> <ReceptorTitle>
UCSF-P4578-REFINED_LIGAND-BOUND-STATE_A__DU__LA1_A-201(A)

> <OMEGA_C>
/vZQwp828MGUQBlBLvBPwnL35sHocw1BTgFQwpA9+sHOPhBB+R8nwtPz78EY2QVA+aArwl5D9sF8
p+k/kvNNwvy+58HTTvFAswROwhkF+8Gc5PZAgiwnwu/i5MHwGPE/WI9GwgAE78Fmk6NAz2Awwt24
8cE4Zas/Yn0wwoCj5sEU948/5f1Mwg3G8cFHS99ABvErwneu4MEEV7M/tmZKwmPE9sG4CWJAkjYy
wkSB1sHQUS4/UBc1wkBq+MFo/4c/t/dLwhtm+8GMLg9AWllCwvTy7sHgAR6+GrM5wt9Y7cGSvi9A
cvFJwry8/sHAHw6+e9k+wram+8Hco9A/2m1Dwu9W9MF4/Jc/9P9FwqBq8cEKWnJAmXc0whEC4MGA
Jyo/fGpNwux598HOIJVAAQhLwqeL8sHsJLZA1FM0wm/0zMHw56Y+4NU5wkYh9sFcE+M/e3JIwm8L
+sEoKpM/ZoM0wtZ2/8HAp10+XUFQwlgcAMKUlw1AcAwtwnE81sH4no4/BIJSwuqa78GJcylBBq1Q
wmMn38HodRRBgsxQwiK5AMKEaxlBR4IjwsC788EI+x1AjWcrwuTW/sG+KgBA6ClNwqN44MHbTd9A
B0pNwshxAcKcQelADbYjwjjw38HggAVAy4tDwsWG6sEt1rRAg9VBwmfz9MHoEnG/ILA+wsMj6sFg
dQO+mK1Fws296cGAXeG+Cco6wrbI5cE6JxFAkIE8wrLp7sH082NACbA1wiSR7MHE6kpAO0NMwrsI
+cEYaDu/Z1xGwkl7AMIAlDO/OFpMwlj3AsIACIY85MI/wkhg/8FUESZAEDY+wr8FAcI4zmU/ZetD
wlwX7sF8I/k/HB84wlxOzMHAVYS9rxkywjAIxsFgLak+

> <OMEGA_E>
YRDowA==

> <OMEGA_NBR>
     75652

$$$$
CACHE3HI_1697_65
  -OEChem-03092622533D

 52 56  0     1  0  0  0  0  0999 V2000
  -40.8396  -31.3043    1.3223 C   0  0  0  0  0  0  0  0  0  0  0  0
  -41.3005  -30.9833    2.5991 C   0  0  0  0  0  0  0  0  0  0  0  0
  -41.7490  -31.6079    0.3092 C   0  0  0  0  0  0  0  0  0  0  0  0
  -53.1303  -30.0466    3.6060 C   0  0  0  0  0  0  0  0  0  0  0  0
  -42.6702  -30.9658    2.8628 C   0  0  0  0  0  0  0  0  0  0  0  0
  -43.1187  -31.5904    0.5728 C   0  0  0  0  0  0  0  0  0  0  0  0
  -51.8868  -30.3310    4.1704 C   0  0  0  0  0  0  0  0  0  0  0  0
  -53.5797  -28.7279    3.5385 C   0  0  0  0  0  0  0  0  0  0  0  0
  -51.5423  -27.9783    4.5994 C   0  0  0  0  0  0  0  0  0  0  0  0
  -52.8733  -30.8344   11.6503 C   0  0  0  0  0  0  0  0  0  0  0  0
  -47.0822  -31.4592    2.1841 C   0  0  0  0  0  0  0  0  0  0  0  0
  -52.4131  -30.9260   10.3471 C   0  0  0  0  0  0  0  0  0  0  0  0
  -43.5795  -31.2694    1.8496 C   0  0  0  0  0  0  0  0  0  0  0  0
  -51.0928  -29.2970    4.6669 C   0  0  0  0  0  0  0  0  0  0  0  0
  -52.7857  -27.6940    4.0351 C   0  0  0  0  0  0  0  0  0  0  0  0
  -46.7141  -30.6781    3.2513 C   0  0  0  0  0  0  0  0  0  0  0  0
  -44.9901  -31.2515    2.1215 C   0  0  0  0  0  0  0  0  0  0  0  0
  -53.3823  -29.0039   10.7546 C   0  0  0  0  0  0  0  0  0  0  0  0
  -53.1747  -27.8778    8.5812 C   0  0  0  0  0  0  0  0  0  0  0  0
  -52.6330  -29.1094    8.5651 C   0  0  0  0  0  0  0  0  0  0  0  0
  -47.4812  -30.0188    4.3386 C   0  0  0  0  0  0  0  0  0  0  0  0
  -52.0108  -29.6574    7.3679 C   0  0  0  0  0  0  0  0  0  0  0  0
  -49.8392  -30.5362    6.5010 C   0  0  0  0  0  0  0  0  0  0  0  0
  -49.7389  -29.6075    5.2816 C   0  0  1  0  0  0  0  0  0  0  0  0
  -45.9735  -31.8235    1.4636 N   0  0  0  0  0  0  0  0  0  0  0  0
  -53.4839  -29.6201   11.8996 N   0  0  0  0  0  0  0  0  0  0  0  0
  -52.7544  -29.7313    9.7886 N   0  0  0  0  0  0  0  0  0  0  0  0
  -48.8407  -30.2132    4.2922 N   0  0  0  0  0  0  0  0  0  0  0  0
  -50.6722  -29.9786    7.5426 N   0  0  0  0  0  0  0  0  0  0  0  0
  -46.8817  -29.3469    5.1737 O   0  0  0  0  0  0  0  0  0  0  0  0
  -52.6503  -29.8036    6.3215 O   0  0  0  0  0  0  0  0  0  0  0  0
  -45.3597  -30.5376    3.2201 O   0  0  0  0  0  0  0  0  0  0  0  0
  -53.8672  -27.4472   10.1562 S   0  0  0  0  0  0  0  0  0  0  0  0
  -53.3408  -26.0671    3.9506 Cl  0  0  0  0  0  0  0  0  0  0  0  0
  -39.7733  -31.3188    1.1170 H   0  0  0  0  0  0  0  0  0  0  0  0
  -40.5928  -30.7459    3.3880 H   0  0  0  0  0  0  0  0  0  0  0  0
  -41.3898  -31.8583   -0.6847 H   0  0  0  0  0  0  0  0  0  0  0  0
  -53.7477  -30.8521    3.2196 H   0  0  0  0  0  0  0  0  0  0  0  0
  -43.0135  -30.7143    3.8636 H   0  0  0  0  0  0  0  0  0  0  0  0
  -43.8144  -31.8291   -0.2283 H   0  0  0  0  0  0  0  0  0  0  0  0
  -51.5447  -31.3613    4.2185 H   0  0  0  0  0  0  0  0  0  0  0  0
  -54.5507  -28.5209    3.0962 H   0  0  0  0  0  0  0  0  0  0  0  0
  -50.9203  -27.1755    4.9891 H   0  0  0  0  0  0  0  0  0  0  0  0
  -52.7951  -31.5854   12.4233 H   0  0  0  0  0  0  0  0  0  0  0  0
  -48.0739  -31.7760    1.8959 H   0  0  0  0  0  0  0  0  0  0  0  0
  -51.8980  -31.7077    9.8068 H   0  0  0  0  0  0  0  0  0  0  0  0
  -53.2086  -27.1879    7.7490 H   0  0  0  0  0  0  0  0  0  0  0  0
  -50.2948  -31.4936    6.2217 H   0  0  0  0  0  0  0  0  0  0  0  0
  -48.8607  -30.7513    6.9450 H   0  0  0  0  0  0  0  0  0  0  0  0
  -49.2751  -28.6679    5.6092 H   0  0  0  0  0  0  0  0  0  0  0  0
  -49.2849  -30.7218    3.5483 H   0  0  0  0  0  0  0  0  0  0  0  0
  -50.2365  -29.8082    8.4443 H   0  0  0  0  0  0  0  0  0  0  0  0
  1  2  1  0  0  0  0
  1  3  2  0  0  0  0
  2  5  2  0  0  0  0
  3  6  1  0  0  0  0
  4  7  2  0  0  0  0
  4  8  1  0  0  0  0
  5 13  1  0  0  0  0
  6 13  2  0  0  0  0
  7 14  1  0  0  0  0
  8 15  2  0  0  0  0
  9 14  2  0  0  0  0
  9 15  1  0  0  0  0
 10 12  2  0  0  0  0
 10 26  1  0  0  0  0
 11 16  2  0  0  0  0
 11 25  1  0  0  0  0
 12 27  1  0  0  0  0
 13 17  1  0  0  0  0
 14 24  1  0  0  0  0
 15 34  1  0  0  0  0
 16 21  1  0  0  0  0
 16 32  1  0  0  0  0
 17 25  2  0  0  0  0
 17 32  1  0  0  0  0
 18 26  2  0  0  0  0
 18 27  1  0  0  0  0
 18 33  1  0  0  0  0
 19 20  2  0  0  0  0
 19 33  1  0  0  0  0
 20 22  1  0  0  0  0
 20 27  1  0  0  0  0
 21 28  1  0  0  0  0
 21 30  2  0  0  0  0
 22 29  1  0  0  0  0
 22 31  2  0  0  0  0
 23 24  1  0  0  0  0
 23 29  1  0  0  0  0
 24 28  1  0  0  0  0
  1 35  1  0  0  0  0
  2 36  1  0  0  0  0
  3 37  1  0  0  0  0
  4 38  1  0  0  0  0
  5 39  1  0  0  0  0
  6 40  1  0  0  0  0
  7 41  1  0  0  0  0
  8 42  1  0  0  0  0
  9 43  1  0  0  0  0
 10 44  1  0  0  0  0
 11 45  1  0  0  0  0
 12 46  1  0  0  0  0
 19 47  1  0  0  0  0
 23 48  1  0  0  0  0
 23 49  1  0  0  0  0
 24 50  1  0  0  0  0
 28 51  1  0  0  0  0
 29 52  1  0  0  0  0
M  END
> <POSIT::Probability>
0.05

> <POSIT::Method>
FRED

> <ReceptorTitle>
UCSF-P4578-REFINED_LIGAND-BOUND-STATE_A__DU__LA1_A-201(A)

> <OMEGA_C>
zVsjwipv+sFEQak/szMlwuTd98F2WCZA7f4mwgzd/MEATp4+ZIVUwm1f8MG0yGZAT64qwua598E7
ODdAi3kswg65/MEEphI/CoxPwt6l8sGqc4VApFFWws7S5cGGd2JASCtOwqTT38GVLpNATX5Twt6s
9sGjZzpBMFQ8wl6s+8HwxwtAB6dRwmFo98G6jSVBc1Euws4n+sHcwOw//l5Mwltg6sFGV5VAmSRT
wkqN3cFiH4FAONs6wtls9cG3FVBA5PUzwikD+sFGxgdAc4dVwgsI6MEFEyxB47JUwscF38FmTAlB
JYhSwgvg6MGJCglBu+w9wpAm8MGy1YpABwtQwmZC7cGFxetAXVtHwjlK9MGWCNBAm/RGwhHc7MFD
A6lA5uQ3wnKW/sGkVrs/eu9Vwg/27MGYZD5BgARTwqLZ7cHonRxB1VxDwpe08cFuWYlAWLBKwhrU
78GSXPFA14Y7wmvG6sH3jqVA4plSwrVt7sFYScpAV3A1wgpN9MHyFU5AEHhXwsyT28GgfyJB8VxV
wneJ0MH/1XxA4hcfwuSM+sFk+I4//F4iwrD39cHp1FhAI48lwtjd/sF0Ry+/n/1WwiHR9sFWDU5A
1Q0swvS29cFxRHdA8kEvwgSi/sEgu2m+0i1OwgDk+sG9/YZA8zNawuYq5MFxKEZAZK5LwnFn2cH6
pp9ALS5TwuKu/MGsxUZBrUtAwlc1/sFmq/I/h5dPwm6p/cGj6BxBktVUwtSA2cG29/dA6y1JwvDy
+8EEGMdAZHFDwrgC9sEnPd5AsxlFwsVX5cHGfrNAwCNFwijG9cG5FmNALfJIwjx37sHhGwdB

> <OMEGA_E>
QtTmwA==

> <OMEGA_NBR>
     77192

$$$$
CACHE3HI_1697_70
  -OEChem-03092622533D

 58 61  0     1  0  0  0  0  0999 V2000
  -41.8873  -29.8849    1.6284 C   0  0  0  0  0  0  0  0  0  0  0  0
  -51.3765  -32.6276   10.5669 C   0  0  0  0  0  0  0  0  0  0  0  0
  -52.2792  -31.8211   11.3033 C   0  0  0  0  0  0  0  0  0  0  0  0
  -42.9614  -30.7528    1.4317 C   0  0  0  0  0  0  0  0  0  0  0  0
  -42.0411  -28.5198    1.3868 C   0  0  0  0  0  0  0  0  0  0  0  0
  -52.6408  -28.5931    5.9506 C   0  0  0  0  0  0  0  0  0  0  0  0
  -51.5931  -30.4973    6.9807 C   0  0  0  0  0  0  0  0  0  0  0  0
  -44.3429  -28.8906    0.7521 C   0  0  0  0  0  0  0  0  0  0  0  0
  -53.2869  -28.3649    7.1554 C   0  0  0  0  0  0  0  0  0  0  0  0
  -51.2871  -32.0936    9.3001 C   0  0  0  0  0  0  0  0  0  0  0  0
  -52.7136  -30.8187   10.4643 C   0  0  0  0  0  0  0  0  0  0  0  0
  -51.7796  -29.6817    5.8703 C   0  0  0  0  0  0  0  0  0  0  0  0
  -44.1891  -30.2558    0.9938 C   0  0  0  0  0  0  0  0  0  0  0  0
  -43.2687  -28.0228    0.9489 C   0  0  0  0  0  0  0  0  0  0  0  0
  -52.2856  -30.1843    8.1392 C   0  0  0  0  0  0  0  0  0  0  0  0
  -51.0710  -29.9689    4.6169 C   0  0  0  0  0  0  0  0  0  0  0  0
  -46.2061  -31.3777    2.0193 C   0  0  0  0  0  0  0  0  0  0  0  0
  -46.9459  -29.1525    4.6647 C   0  0  0  0  0  0  0  0  0  0  0  0
  -48.9787  -29.5502    3.2231 C   0  0  0  0  0  0  0  0  0  0  0  0
  -49.2676  -28.4896    5.4409 C   0  0  0  0  0  0  0  0  0  0  0  0
  -47.5918  -30.0640    3.6133 C   0  0  1  0  0  0  0  0  0  0  0  0
  -47.8688  -28.9345    5.8677 C   0  0  1  0  0  0  0  0  0  0  0  0
  -44.7010  -26.2502    0.2678 C   0  0  0  0  0  0  0  0  0  0  0  0
  -45.3489  -31.1934    0.7818 C   0  0  0  0  0  0  0  0  0  0  0  0
  -53.1305  -29.1355    8.2553 N   0  0  0  0  0  0  0  0  0  0  0  0
  -52.1042  -30.9943    9.2496 N   0  0  0  0  0  0  0  0  0  0  0  0
  -49.8168  -29.3848    4.4190 N   0  0  0  0  0  0  0  0  0  0  0  0
  -46.7434  -30.1724    2.4513 N   0  0  0  0  0  0  0  0  0  0  0  0
  -51.6536  -30.7041    3.8211 O   0  0  0  0  0  0  0  0  0  0  0  0
  -46.3863  -32.4645    2.5626 O   0  0  0  0  0  0  0  0  0  0  0  0
  -47.9882  -30.1427    6.6166 O   0  0  0  0  0  0  0  0  0  0  0  0
  -43.4190  -26.6906    0.7139 O   0  0  0  0  0  0  0  0  0  0  0  0
  -40.9316  -30.2719    1.9693 H   0  0  0  0  0  0  0  0  0  0  0  0
  -50.8493  -33.5025   10.9200 H   0  0  0  0  0  0  0  0  0  0  0  0
  -52.5805  -31.9562   12.3325 H   0  0  0  0  0  0  0  0  0  0  0  0
  -42.8331  -31.8150    1.6223 H   0  0  0  0  0  0  0  0  0  0  0  0
  -41.2009  -27.8484    1.5418 H   0  0  0  0  0  0  0  0  0  0  0  0
  -52.8091  -27.9370    5.1031 H   0  0  0  0  0  0  0  0  0  0  0  0
  -50.9243  -31.3521    6.9350 H   0  0  0  0  0  0  0  0  0  0  0  0
  -45.2984  -28.4998    0.4105 H   0  0  0  0  0  0  0  0  0  0  0  0
  -53.9690  -27.5290    7.2705 H   0  0  0  0  0  0  0  0  0  0  0  0
  -50.7105  -32.4076    8.4396 H   0  0  0  0  0  0  0  0  0  0  0  0
  -53.4031  -30.0022   10.6370 H   0  0  0  0  0  0  0  0  0  0  0  0
  -46.0021  -29.5998    5.0002 H   0  0  0  0  0  0  0  0  0  0  0  0
  -46.7129  -28.1783    4.2158 H   0  0  0  0  0  0  0  0  0  0  0  0
  -48.9125  -28.5661    2.7421 H   0  0  0  0  0  0  0  0  0  0  0  0
  -49.4413  -30.2329    2.5051 H   0  0  0  0  0  0  0  0  0  0  0  0
  -49.9366  -28.4570    6.3070 H   0  0  0  0  0  0  0  0  0  0  0  0
  -49.2321  -27.4847    5.0041 H   0  0  0  0  0  0  0  0  0  0  0  0
  -47.6852  -31.0800    4.0161 H   0  0  0  0  0  0  0  0  0  0  0  0
  -47.4320  -28.1822    6.5330 H   0  0  0  0  0  0  0  0  0  0  0  0
  -44.6840  -25.1676    0.1184 H   0  0  0  0  0  0  0  0  0  0  0  0
  -44.9368  -26.7428   -0.6786 H   0  0  0  0  0  0  0  0  0  0  0  0
  -45.4567  -26.5142    1.0111 H   0  0  0  0  0  0  0  0  0  0  0  0
  -45.9852  -30.8203   -0.0303 H   0  0  0  0  0  0  0  0  0  0  0  0
  -44.9734  -32.1728    0.4597 H   0  0  0  0  0  0  0  0  0  0  0  0
  -46.5085  -29.3172    1.9538 H   0  0  0  0  0  0  0  0  0  0  0  0
  -47.0935  -30.3746    6.9086 H   0  0  0  0  0  0  0  0  0  0  0  0
  1  4  1  0  0  0  0
  1  5  2  0  0  0  0
  2  3  1  0  0  0  0
  2 10  2  0  0  0  0
  3 11  2  0  0  0  0
  4 13  2  0  0  0  0
  5 14  1  0  0  0  0
  6  9  2  0  0  0  0
  6 12  1  0  0  0  0
  7 12  2  0  0  0  0
  7 15  1  0  0  0  0
  8 13  1  0  0  0  0
  8 14  2  0  0  0  0
  9 25  1  0  0  0  0
 10 26  1  0  0  0  0
 11 26  1  0  0  0  0
 12 16  1  0  0  0  0
 13 24  1  0  0  0  0
 14 32  1  0  0  0  0
 15 25  2  0  0  0  0
 15 26  1  0  0  0  0
 16 27  1  0  0  0  0
 16 29  2  0  0  0  0
 17 24  1  0  0  0  0
 17 28  1  0  0  0  0
 17 30  2  0  0  0  0
 18 21  1  0  0  0  0
 18 22  1  0  0  0  0
 19 21  1  0  0  0  0
 19 27  1  0  0  0  0
 20 22  1  0  0  0  0
 20 27  1  0  0  0  0
 21 28  1  0  0  0  0
 22 31  1  0  0  0  0
 23 32  1  0  0  0  0
  1 33  1  0  0  0  0
  2 34  1  0  0  0  0
  3 35  1  0  0  0  0
  4 36  1  0  0  0  0
  5 37  1  0  0  0  0
  6 38  1  0  0  0  0
  7 39  1  0  0  0  0
  8 40  1  0  0  0  0
  9 41  1  0  0  0  0
 10 42  1  0  0  0  0
 11 43  1  0  0  0  0
 18 44  1  0  0  0  0
 18 45  1  0  0  0  0
 19 46  1  0  0  0  0
 19 47  1  0  0  0  0
 20 48  1  0  0  0  0
 20 49  1  0  0  0  0
 21 50  1  0  0  0  0
 22 51  1  0  0  0  0
 23 52  1  0  0  0  0
 23 53  1  0  0  0  0
 23 54  1  0  0  0  0
 24 55  1  0  0  0  0
 24 56  1  0  0  0  0
 28 57  1  0  0  0  0
 31 58  1  0  0  0  0
M  END
> <POSIT::Probability>
0.24

> <POSIT::Method>
FRED

> <ReceptorTitle>
UCSF-P4578-REFINED_LIGAND-BOUND-STATE_A__DU__LA1_A-201(A)

> <OMEGA_C>
lIwnwjgU78GccNA/iIFNwq6CAsL6ESlB5x1Rwq6R/sEm2jRBgtgrwqQF9sF4Qrc/DioowpAo5MEM
g7E/LZBSwpG+5MGfa75ATF9OwoH688HpYd9AGl8xwgAg58EYjEA/wSVVwljr4sFv+eRAAiZNwtFf
AMIszRRBvtpSwr2M9sHEbSdBSR5Pwgp07cFM2btApsEwwsgL8sGAZ34/MhMtwrMu4MGo6HI/cyRR
wmR58cE9OgJBqEhMwjnA78FQvZNAFNM4wpkF+8EuPAFAnsg7wmE46cEYRZVAKOpDwtBm7MGiRk5A
CRJFwpzq48F9G65A+F0+wv+C8MHcQGdAsnk/wvR558FExLtAyM0ywoMA0sFgGYk+QmU1wgqM+cGY
Jkg/qoVUwmkV6cG5FQRBuWpQwlj098Fc/hNBZ0RHwvoT68EoaI1AOvk6wgBh8cGq4hxAQZ1OwuWh
9cHkjHRAh4s5wpzbAcJGAiRA7fM/wlgk8cHKutNABq0twk2G1cGAwDY//rkjwtss8sHQEfw/q2VL
wowCBsJtuC5BeFJSwjum/8HVUUVBHFUrwjCF/sEsps8/v80kwoHJ3sFGW8U/kTxTwuN+38FyTKNA
c7JLwgzR+sEh691AkDE1wqD/48GgMtI+TuBXwnQ73MGip+hAmNdKwmihAcKICAdBu5xVwnwE8ME/
MSpBHwI4wmPM7MEMAqBACdo6wjRt4cHK54ZAaqZDwmiH5MH4fi9A4cNFwvXc8cF7UyBAGb9Hwven
48ES08lApe1Ewr7g28GiIaBAor0+wsaj+MGFg4BAZLo9wg514cENDtFAcbwywiVXycFgZvI9PL8z
wkrx1cEsuy2/sNM1wiMd1MHYa4E/0/A3wuuP9sEA/ve8v+QzwvKwAMIwW+s+sgg6woqJ6sHoFPo/
w188wjn/8sGME91A

> <OMEGA_E>
MjELwQ==

> <OMEGA_NBR>
     78852

$$$$
CACHE3HI_1697_78
  -OEChem-03092622533D

 55 59  0     1  0  0  0  0  0999 V2000
  -40.8494  -30.6065    2.9777 C   0  0  0  0  0  0  0  0  0  0  0  0
  -40.8803  -31.2724    1.7541 C   0  0  0  0  0  0  0  0  0  0  0  0
  -51.8436  -29.2609    2.3957 C   0  0  0  0  0  0  0  0  0  0  0  0
  -42.0260  -30.0924    3.5241 C   0  0  0  0  0  0  0  0  0  0  0  0
  -50.7831  -29.0827    3.2841 C   0  0  0  0  0  0  0  0  0  0  0  0
  -42.0879  -31.4239    1.0733 C   0  0  0  0  0  0  0  0  0  0  0  0
  -52.0832  -30.5174    1.8397 C   0  0  0  0  0  0  0  0  0  0  0  0
  -50.2021  -31.4173    3.0605 C   0  0  0  0  0  0  0  0  0  0  0  0
  -52.0382  -31.4602   10.6376 C   0  0  0  0  0  0  0  0  0  0  0  0
  -51.6000  -31.3491    9.3391 C   0  0  0  0  0  0  0  0  0  0  0  0
  -43.2411  -30.2377    2.8447 C   0  0  0  0  0  0  0  0  0  0  0  0
  -49.9625  -30.1607    3.6166 C   0  0  0  0  0  0  0  0  0  0  0  0
  -43.2657  -30.9025    1.6145 C   0  0  0  0  0  0  0  0  0  0  0  0
  -51.2626  -31.5955    2.1722 C   0  0  0  0  0  0  0  0  0  0  0  0
  -52.8015  -29.5889    9.9474 C   0  0  0  0  0  0  0  0  0  0  0  0
  -44.4777  -29.7227    3.4156 C   0  0  0  0  0  0  0  0  0  0  0  0
  -53.4137  -28.3215    9.7273 C   0  0  0  0  0  0  0  0  0  0  0  0
  -53.2857  -27.7175    8.5317 C   0  0  0  0  0  0  0  0  0  0  0  0
  -52.5335  -28.3260    7.4470 C   0  0  0  0  0  0  0  0  0  0  0  0
  -45.5813  -29.8122    2.6684 C   0  0  0  0  0  0  0  0  0  0  0  0
  -51.9491  -29.5238    7.6399 C   0  0  0  0  0  0  0  0  0  0  0  0
  -46.8306  -29.2903    3.2263 C   0  0  0  0  0  0  0  0  0  0  0  0
  -51.2009  -30.0875    6.5014 C   0  0  0  0  0  0  0  0  0  0  0  0
  -45.5974  -30.4132    1.2988 C   0  0  0  0  0  0  0  0  0  0  0  0
  -48.9297  -30.8431    5.8389 C   0  0  0  0  0  0  0  0  0  0  0  0
  -48.8076  -29.9659    4.5838 C   0  0  1  0  0  0  0  0  0  0  0  0
  -52.7801  -30.3702   11.0067 N   0  0  0  0  0  0  0  0  0  0  0  0
  -52.0864  -30.1465    8.8859 N   0  0  0  0  0  0  0  0  0  0  0  0
  -47.5429  -30.2394    3.9394 N   0  0  0  0  0  0  0  0  0  0  0  0
  -49.8645  -30.3008    6.7900 N   0  0  0  0  0  0  0  0  0  0  0  0
  -47.1643  -28.1191    3.0474 O   0  0  0  0  0  0  0  0  0  0  0  0
  -51.7643  -30.3188    5.4377 O   0  0  0  0  0  0  0  0  0  0  0  0
  -44.4088  -31.1100    0.8923 O   0  0  0  0  0  0  0  0  0  0  0  0
  -51.5597  -33.1457    1.4864 Cl  0  0  0  0  0  0  0  0  0  0  0  0
  -39.9090  -30.4903    3.5086 H   0  0  0  0  0  0  0  0  0  0  0  0
  -39.9646  -31.6756    1.3318 H   0  0  0  0  0  0  0  0  0  0  0  0
  -52.4820  -28.4212    2.1375 H   0  0  0  0  0  0  0  0  0  0  0  0
  -41.9823  -29.5812    4.4830 H   0  0  0  0  0  0  0  0  0  0  0  0
  -50.6041  -28.1002    3.7124 H   0  0  0  0  0  0  0  0  0  0  0  0
  -42.1036  -31.9486    0.1217 H   0  0  0  0  0  0  0  0  0  0  0  0
  -52.9131  -30.6418    1.1489 H   0  0  0  0  0  0  0  0  0  0  0  0
  -49.5588  -32.2546    3.3217 H   0  0  0  0  0  0  0  0  0  0  0  0
  -51.8551  -32.2735   11.3248 H   0  0  0  0  0  0  0  0  0  0  0  0
  -51.0017  -32.0064    8.7239 H   0  0  0  0  0  0  0  0  0  0  0  0
  -44.4650  -29.2823    4.4061 H   0  0  0  0  0  0  0  0  0  0  0  0
  -53.9783  -27.8563   10.5276 H   0  0  0  0  0  0  0  0  0  0  0  0
  -53.7454  -26.7526    8.3465 H   0  0  0  0  0  0  0  0  0  0  0  0
  -52.4721  -27.7811    6.5113 H   0  0  0  0  0  0  0  0  0  0  0  0
  -46.4181  -31.1358    1.2262 H   0  0  0  0  0  0  0  0  0  0  0  0
  -45.7864  -29.6296    0.5558 H   0  0  0  0  0  0  0  0  0  0  0  0
  -49.2996  -31.8418    5.5784 H   0  0  0  0  0  0  0  0  0  0  0  0
  -47.9721  -30.9684    6.3567 H   0  0  0  0  0  0  0  0  0  0  0  0
  -48.7882  -28.9163    4.9051 H   0  0  0  0  0  0  0  0  0  0  0  0
  -47.1779  -31.1845    4.0151 H   0  0  0  0  0  0  0  0  0  0  0  0
  -49.5086  -30.0573    7.7128 H   0  0  0  0  0  0  0  0  0  0  0  0
  1  2  1  0  0  0  0
  1  4  2  0  0  0  0
  2  6  2  0  0  0  0
  3  5  2  0  0  0  0
  3  7  1  0  0  0  0
  4 11  1  0  0  0  0
  5 12  1  0  0  0  0
  6 13  1  0  0  0  0
  7 14  2  0  0  0  0
  8 12  2  0  0  0  0
  8 14  1  0  0  0  0
  9 10  2  0  0  0  0
  9 27  1  0  0  0  0
 10 28  1  0  0  0  0
 11 13  2  0  0  0  0
 11 16  1  0  0  0  0
 12 26  1  0  0  0  0
 13 33  1  0  0  0  0
 14 34  1  0  0  0  0
 15 17  1  0  0  0  0
 15 27  2  0  0  0  0
 15 28  1  0  0  0  0
 16 20  2  0  0  0  0
 17 18  2  0  0  0  0
 18 19  1  0  0  0  0
 19 21  2  0  0  0  0
 20 22  1  0  0  0  0
 20 24  1  0  0  0  0
 21 23  1  0  0  0  0
 21 28  1  0  0  0  0
 22 29  1  0  0  0  0
 22 31  2  0  0  0  0
 23 30  1  0  0  0  0
 23 32  2  0  0  0  0
 24 33  1  0  0  0  0
 25 26  1  0  0  0  0
 25 30  1  0  0  0  0
 26 29  1  0  0  0  0
  1 35  1  0  0  0  0
  2 36  1  0  0  0  0
  3 37  1  0  0  0  0
  4 38  1  0  0  0  0
  5 39  1  0  0  0  0
  6 40  1  0  0  0  0
  7 41  1  0  0  0  0
  8 42  1  0  0  0  0
  9 43  1  0  0  0  0
 10 44  1  0  0  0  0
 16 45  1  0  0  0  0
 17 46  1  0  0  0  0
 18 47  1  0  0  0  0
 19 48  1  0  0  0  0
 24 49  1  0  0  0  0
 24 50  1  0  0  0  0
 25 51  1  0  0  0  0
 25 52  1  0  0  0  0
 26 53  1  0  0  0  0
 29 54  1  0  0  0  0
 30 55  1  0  0  0  0
M  END
> <POSIT::Probability>
0.05

> <POSIT::Method>
FRED

> <ReceptorTitle>
UCSF-P4578-REFINED_LIGAND-BOUND-STATE_A__DU__LA1_A-201(A)

> <OMEGA_C>
vmUjwhra9MGbkj5AdIUjwuAt+sHih+A/2F9PwlgW6sEmUxlAnxoowkK98MGIi2FA2SFLwlip6MEl
LlJA9lkowjFk+8EuYok/NFVQwrsj9MH0eus//s5IwpRW+8Hz30NAIydQwn6u+8GIMypBYWZOwgTL
+sH2bBVB5vYswszm8cEWDzZAmdlHwh1J8cE3dmdAHxAtwkU498FQps4/8wxNwn7D/MGMBQtAwDRT
wgS27MF7KB9BK+kxwv3H7cHNmVpApqdVwlWS4sHUohtBhCRVwmm93cHXgQhBSSJSwq+b4sHqTe5A
RFM2wlp/7sGHxypA48tPws4w7MFEevRAklI7wo5S6sFde05Av81Mwkiz8MFlC9BAuGM2wihO88Hm
PqY/+7dDwpS+9sFa2LpA9TpDwh2678GArpJAxh5Twir28sFnGzBBglhQwgos8cGBLA5B4ys+wlPq
8cH4HnxAS3VHwgho8sHwR9lASag8wv/z4MH0CENAqg5PwtiM8sFmAa5ApqIxwkbh+MGTbWQ/FT1O
wjiVBMKSQb4/xKIfwjrs88FsjWBAyNsfwpJn/cEbd6o/ju1Rwote48GzzAhA3O0nwl+m7MGadI9A
l2pKwiTN4MGqmG1AI2oowrCW/8EoJPk9/KZTwm8i9cHwDpM/PDxGwsEEAcLhllRArGtPwhAYAcJh
MjVByQFMwpEGAMIklQtBIdwxwiBC6sGG/oxAvulXwsXZ3sE7cShBT/tWwm0F1sFUiwVBeeNRwpk/
3sFuXNBAH6w5wiMW+cF49Jw/PCU3wm0J7cGtSw4/yDJFwgS8/sEogrJAZ+M/wlG/98HQactAHydD
wo9U58GW9pxAM7Y8wsh5+cH2e4BAzwhGwkt18MFJz/ZA

> <OMEGA_E>
NncKwQ==

> <OMEGA_NBR>
     80452

$$$$
CACHE3HI_1697_79
  -OEChem-03092622533D

 53 57  0     1  0  0  0  0  0999 V2000
  -50.9836  -31.6490    8.7498 C   0  0  0  0  0  0  0  0  0  0  0  0
  -51.2685  -32.8604    9.4115 C   0  0  0  0  0  0  0  0  0  0  0  0
  -44.2609  -29.6753    4.4114 C   0  0  0  0  0  0  0  0  0  0  0  0
  -48.0489  -30.1131    3.8304 C   0  0  0  0  0  0  0  0  0  0  0  0
  -47.5541  -29.2354    6.0535 C   0  0  0  0  0  0  0  0  0  0  0  0
  -53.5456  -32.8043    8.5387 C   0  0  0  0  0  0  0  0  0  0  0  0
  -55.2805  -26.2409   10.8898 C   0  0  0  0  0  0  0  0  0  0  0  0
  -43.6685  -29.1899    5.5537 C   0  0  0  0  0  0  0  0  0  0  0  0
  -56.8685  -26.7330   12.3829 C   0  0  0  0  0  0  0  0  0  0  0  0
  -45.7299  -29.7236    4.5083 C   0  0  0  0  0  0  0  0  0  0  0  0
  -48.4990  -29.6577    5.0888 C   0  0  0  0  0  0  0  0  0  0  0  0
  -51.9731  -31.0173    7.9546 C   0  0  0  0  0  0  0  0  0  0  0  0
  -46.6709  -30.1535    3.5439 C   0  0  0  0  0  0  0  0  0  0  0  0
  -52.5505  -33.4360    9.3101 C   0  0  0  0  0  0  0  0  0  0  0  0
  -53.2588  -31.6049    7.8565 C   0  0  0  0  0  0  0  0  0  0  0  0
  -46.1795  -29.2621    5.7632 C   0  0  0  0  0  0  0  0  0  0  0  0
  -55.7231  -27.5013   10.5688 C   0  0  0  0  0  0  0  0  0  0  0  0
  -57.1227  -29.9376   10.5507 C   0  0  0  0  0  0  0  0  0  0  0  0
  -56.0937  -29.6786    9.5159 C   0  0  0  0  0  0  0  0  0  0  0  0
  -57.3898  -28.9819   11.5145 C   0  0  0  0  0  0  0  0  0  0  0  0
  -55.3969  -28.4855    9.5288 C   0  0  0  0  0  0  0  0  0  0  0  0
  -49.9391  -29.6422    5.4121 C   0  0  0  0  0  0  0  0  0  0  0  0
  -54.3046  -28.2317    8.5917 C   0  0  0  0  0  0  0  0  0  0  0  0
  -51.8204  -28.4666    8.1905 C   0  0  0  0  0  0  0  0  0  0  0  0
  -51.6837  -29.6851    7.2505 C   0  0  1  0  0  0  0  0  0  0  0  0
  -56.0127  -25.7976   12.0134 N   0  0  0  0  0  0  0  0  0  0  0  0
  -56.6855  -27.7689   11.4996 N   0  0  0  0  0  0  0  0  0  0  0  0
  -50.3076  -29.6810    6.7486 N   0  0  0  0  0  0  0  0  0  0  0  0
  -53.0213  -28.5319    9.0254 N   0  0  0  0  0  0  0  0  0  0  0  0
  -50.7806  -29.6138    4.5193 O   0  0  0  0  0  0  0  0  0  0  0  0
  -54.5380  -27.8231    7.4586 O   0  0  0  0  0  0  0  0  0  0  0  0
  -46.2549  -30.6113    2.3320 O   0  0  0  0  0  0  0  0  0  0  0  0
  -52.8274  -34.5938    9.9538 F   0  0  0  0  0  0  0  0  0  0  0  0
  -54.2216  -31.0304    7.0981 F   0  0  0  0  0  0  0  0  0  0  0  0
  -44.8455  -28.7798    6.7804 S   0  0  0  0  0  0  0  0  0  0  0  0
  -50.0065  -31.1996    8.8488 H   0  0  0  0  0  0  0  0  0  0  0  0
  -50.5031  -33.3480    9.9970 H   0  0  0  0  0  0  0  0  0  0  0  0
  -43.7085  -29.9875    3.5375 H   0  0  0  0  0  0  0  0  0  0  0  0
  -48.7634  -30.4312    3.0856 H   0  0  0  0  0  0  0  0  0  0  0  0
  -47.8916  -28.8902    7.0196 H   0  0  0  0  0  0  0  0  0  0  0  0
  -54.5312  -33.2404    8.4699 H   0  0  0  0  0  0  0  0  0  0  0  0
  -54.5095  -25.6874   10.3745 H   0  0  0  0  0  0  0  0  0  0  0  0
  -42.6019  -29.0755    5.6784 H   0  0  0  0  0  0  0  0  0  0  0  0
  -57.5659  -26.6921   13.2065 H   0  0  0  0  0  0  0  0  0  0  0  0
  -57.6639  -30.8722   10.5522 H   0  0  0  0  0  0  0  0  0  0  0  0
  -55.8896  -30.4184    8.7560 H   0  0  0  0  0  0  0  0  0  0  0  0
  -58.1354  -29.1684   12.2733 H   0  0  0  0  0  0  0  0  0  0  0  0
  -50.9376  -28.4261    8.8455 H   0  0  0  0  0  0  0  0  0  0  0  0
  -51.8655  -27.5533    7.5791 H   0  0  0  0  0  0  0  0  0  0  0  0
  -52.3863  -29.5655    6.4127 H   0  0  0  0  0  0  0  0  0  0  0  0
  -49.5725  -29.7084    7.4260 H   0  0  0  0  0  0  0  0  0  0  0  0
  -52.9083  -28.8135    9.9783 H   0  0  0  0  0  0  0  0  0  0  0  0
  -45.3064  -30.5781    2.2890 H   0  0  0  0  0  0  0  0  0  0  0  0
  1  2  2  0  0  0  0
  1 12  1  0  0  0  0
  2 14  1  0  0  0  0
  3  8  2  0  0  0  0
  3 10  1  0  0  0  0
  4 11  1  0  0  0  0
  4 13  2  0  0  0  0
  5 11  2  0  0  0  0
  5 16  1  0  0  0  0
  6 14  2  0  0  0  0
  6 15  1  0  0  0  0
  7 17  2  0  0  0  0
  7 26  1  0  0  0  0
  8 35  1  0  0  0  0
  9 26  2  0  0  0  0
  9 27  1  0  0  0  0
 10 13  1  0  0  0  0
 10 16  2  0  0  0  0
 11 22  1  0  0  0  0
 12 15  2  0  0  0  0
 12 25  1  0  0  0  0
 13 32  1  0  0  0  0
 14 33  1  0  0  0  0
 15 34  1  0  0  0  0
 16 35  1  0  0  0  0
 17 21  1  0  0  0  0
 17 27  1  0  0  0  0
 18 19  1  0  0  0  0
 18 20  2  0  0  0  0
 19 21  2  0  0  0  0
 20 27  1  0  0  0  0
 21 23  1  0  0  0  0
 22 28  1  0  0  0  0
 22 30  2  0  0  0  0
 23 29  1  0  0  0  0
 23 31  2  0  0  0  0
 24 25  1  0  0  0  0
 24 29  1  0  0  0  0
 25 28  1  0  0  0  0
  1 36  1  0  0  0  0
  2 37  1  0  0  0  0
  3 38  1  0  0  0  0
  4 39  1  0  0  0  0
  5 40  1  0  0  0  0
  6 41  1  0  0  0  0
  7 42  1  0  0  0  0
  8 43  1  0  0  0  0
  9 44  1  0  0  0  0
 18 45  1  0  0  0  0
 19 46  1  0  0  0  0
 20 47  1  0  0  0  0
 24 48  1  0  0  0  0
 24 49  1  0  0  0  0
 25 50  1  0  0  0  0
 28 51  1  0  0  0  0
 29 52  1  0  0  0  0
 32 53  1  0  0  0  0
M  END
> <POSIT::Probability>
0.25

> <POSIT::Method>
SHAPEFIT

> <ReceptorTitle>
UCSF-P4578-REFINED_LIGAND-BOUND-STATE_A__DU__LA1_A-201(A)

> <OMEGA_C>
Lu9LwiUx/cEO/wtB6hJNwglxA8JxlRZBJwsxwhVn7cFgKo1ADDJAwovn8MEHJXVAaDc+whji6cE5
tsFAqy5Wwp03A8KgnghBOB9dwmvt0cHSPC5Bl6wuwveE6cGat7FAW3ljwkPd1cFCIEZBYus2wvbJ
7cHrQ5BABP9BwgFD7cGk16JAf+RPwlQj+MF0jP5AAK86wl068cH3z2JAwzNSwoK+BcL59RRB9whV
wujW/MGraPtAxrc4wrEY6sF3bLhAfuRewrIC3MH1GSlBrH1kwjiA78GXzyhB7F9gwstt7cEtQRhB
HY9lwtra58GHOzhBZpZdwjzi48HWdRhBp8FHwlMj7cEXMK1A7TdZwoDa4cFzdwlBCkhPwqK748FU
DANBF7xOwhV77cF0BOhA/gxgwo1hzsHwNkBB7b1iwqcm3sGK/jdB9TpJwqBy7cFA9NdAwxVUwlNB
5ME9aBBBWB9Lwvjo7ME+npBA4SZawqeV3sHjrO5A+AQ5wvbj9MEsPxVARk9TwgRgCsK4Qh9B9+JY
wlA++MGqI+NAwGEzwgw95sHA+NhArAZIwtCY+cHhlA1BMwNKwmBkBcLO8x9BftUuwnLm78HzZWJA
sA1DwgBz88FXekVADJE/whIf58FAoOBA+x9awiL2BMLGhAdBuwlawrN/zcEi/iVBWWgqwoia6MHJ
tbVAdkNmwoSJ1cHxTVNB4admwkn69sHg1ShB7I5fwuZY88GkGAxBn4powtJY6cFLX0RBEcBLwrho
48FKhw1BQnZPwh9t3MFCiPJAmItRwjSG7MHCNM1AQ0pGwrWq7cH2oe1AF6JTwhOC5sEhpx9Bwzk1
wvef9MHCfhJA

> <OMEGA_E>
21KRPw==

> <OMEGA_NBR>
     82038

$$$$
CACHE3HI_1697_81
  -OEChem-03092622533D

 55 59  0     1  0  0  0  0  0999 V2000
  -53.0185  -29.0070   12.6051 C   0  0  0  0  0  0  0  0  0  0  0  0
  -52.2650  -30.1809   12.6049 C   0  0  0  0  0  0  0  0  0  0  0  0
  -53.7016  -28.6172   11.4533 C   0  0  0  0  0  0  0  0  0  0  0  0
  -52.1949  -30.9650   11.4533 C   0  0  0  0  0  0  0  0  0  0  0  0
  -47.3676  -29.5789    6.7882 C   0  0  0  0  0  0  0  0  0  0  0  0
  -55.8535  -28.0565    7.8534 C   0  0  0  0  0  0  0  0  0  0  0  0
  -53.6316  -29.4014   10.3016 C   0  0  0  0  0  0  0  0  0  0  0  0
  -52.8781  -30.5752   10.3014 C   0  0  0  0  0  0  0  0  0  0  0  0
  -47.7922  -29.7864    5.4670 C   0  0  0  0  0  0  0  0  0  0  0  0
  -46.6664  -29.5742    4.7106 C   0  0  0  0  0  0  0  0  0  0  0  0
  -54.3509  -28.9726    9.1234 C   0  0  0  0  0  0  0  0  0  0  0  0
  -44.0581  -29.0139    3.8309 C   0  0  0  0  0  0  0  0  0  0  0  0
  -44.3356  -28.9772    5.1445 C   0  0  0  0  0  0  0  0  0  0  0  0
  -46.3642  -29.6110    3.3242 C   0  0  0  0  0  0  0  0  0  0  0  0
  -45.1186  -29.3446    2.8918 C   0  0  0  0  0  0  0  0  0  0  0  0
  -52.7776  -31.4397    9.0981 C   0  0  0  0  0  0  0  0  0  0  0  0
  -49.0938  -30.1393    4.9851 C   0  0  0  0  0  0  0  0  0  0  0  0
  -52.1456  -28.7477    3.9688 C   0  0  0  0  0  0  0  0  0  0  0  0
  -53.4025  -29.5206    4.2561 C   0  0  0  0  0  0  0  0  0  0  0  0
  -52.3108  -29.4513    5.2876 C   0  0  0  0  0  0  0  0  0  0  0  0
  -56.2292  -27.7800   10.3110 C   0  0  0  0  0  0  0  0  0  0  0  0
  -52.0970  -31.5461    6.7146 C   0  0  0  0  0  0  0  0  0  0  0  0
  -51.4779  -30.6884    5.6087 C   0  0  2  0  0  0  0  0  0  0  0  0
  -46.0766  -29.2601    6.8812 N   0  0  0  0  0  0  0  0  0  0  0  0
  -54.9658  -28.6240    7.0678 N   0  0  0  0  0  0  0  0  0  0  0  0
  -54.0095  -29.2068    7.8761 N   0  0  0  0  0  0  0  0  0  0  0  0
  -55.5058  -28.2512    9.1555 N   0  0  0  0  0  0  0  0  0  0  0  0
  -45.6313  -29.2544    5.5954 N   0  0  0  0  0  0  0  0  0  0  0  0
  -52.2383  -30.8465    7.9632 N   0  0  0  0  0  0  0  0  0  0  0  0
  -50.1211  -30.3123    5.9347 N   0  0  0  0  0  0  0  0  0  0  0  0
  -53.1822  -32.5978    9.1558 O   0  0  0  0  0  0  0  0  0  0  0  0
  -49.3131  -30.3094    3.7613 O   0  0  0  0  0  0  0  0  0  0  0  0
  -47.3549  -29.9187    2.4610 F   0  0  0  0  0  0  0  0  0  0  0  0
  -44.7278  -29.3831    1.2127 Cl  0  0  0  0  0  0  0  0  0  0  0  0
  -53.0741  -28.3975   13.5023 H   0  0  0  0  0  0  0  0  0  0  0  0
  -51.7341  -30.4851   13.5024 H   0  0  0  0  0  0  0  0  0  0  0  0
  -54.2856  -27.6998   11.4713 H   0  0  0  0  0  0  0  0  0  0  0  0
  -51.6052  -31.8782   11.4680 H   0  0  0  0  0  0  0  0  0  0  0  0
  -47.9481  -29.6468    7.6976 H   0  0  0  0  0  0  0  0  0  0  0  0
  -56.7341  -27.5123    7.5428 H   0  0  0  0  0  0  0  0  0  0  0  0
  -43.0597  -28.8017    3.4655 H   0  0  0  0  0  0  0  0  0  0  0  0
  -43.5902  -28.7380    5.8934 H   0  0  0  0  0  0  0  0  0  0  0  0
  -51.4555  -29.1605    3.2434 H   0  0  0  0  0  0  0  0  0  0  0  0
  -52.2088  -27.6665    3.9633 H   0  0  0  0  0  0  0  0  0  0  0  0
  -54.3087  -28.9575    4.4428 H   0  0  0  0  0  0  0  0  0  0  0  0
  -53.5543  -30.4509    3.7228 H   0  0  0  0  0  0  0  0  0  0  0  0
  -52.4859  -28.8401    6.1647 H   0  0  0  0  0  0  0  0  0  0  0  0
  -56.9669  -28.5199   10.6393 H   0  0  0  0  0  0  0  0  0  0  0  0
  -56.7473  -26.8457   10.0731 H   0  0  0  0  0  0  0  0  0  0  0  0
  -55.5505  -27.6043   11.1521 H   0  0  0  0  0  0  0  0  0  0  0  0
  -53.0935  -31.8940    6.4219 H   0  0  0  0  0  0  0  0  0  0  0  0
  -51.4756  -32.4266    6.9122 H   0  0  0  0  0  0  0  0  0  0  0  0
  -51.4090  -31.3016    4.7030 H   0  0  0  0  0  0  0  0  0  0  0  0
  -51.9840  -29.8612    7.9798 H   0  0  0  0  0  0  0  0  0  0  0  0
  -49.8891  -30.2278    6.9187 H   0  0  0  0  0  0  0  0  0  0  0  0
  1  2  1  0  0  0  0
  1  3  2  0  0  0  0
  2  4  2  0  0  0  0
  3  7  1  0  0  0  0
  4  8  1  0  0  0  0
  5  9  1  0  0  0  0
  5 24  2  0  0  0  0
  6 25  2  0  0  0  0
  6 27  1  0  0  0  0
  7  8  2  0  0  0  0
  7 11  1  0  0  0  0
  8 16  1  0  0  0  0
  9 10  2  0  0  0  0
  9 17  1  0  0  0  0
 10 14  1  0  0  0  0
 10 28  1  0  0  0  0
 11 26  2  0  0  0  0
 11 27  1  0  0  0  0
 12 13  2  0  0  0  0
 12 15  1  0  0  0  0
 13 28  1  0  0  0  0
 14 15  2  0  0  0  0
 14 33  1  0  0  0  0
 15 34  1  0  0  0  0
 16 29  1  0  0  0  0
 16 31  2  0  0  0  0
 17 30  1  0  0  0  0
 17 32  2  0  0  0  0
 18 19  1  0  0  0  0
 18 20  1  0  0  0  0
 19 20  1  0  0  0  0
 20 23  1  0  0  0  0
 21 27  1  0  0  0  0
 22 23  1  0  0  0  0
 22 29  1  0  0  0  0
 23 30  1  0  0  0  0
 24 28  1  0  0  0  0
 25 26  1  0  0  0  0
  1 35  1  0  0  0  0
  2 36  1  0  0  0  0
  3 37  1  0  0  0  0
  4 38  1  0  0  0  0
  5 39  1  0  0  0  0
  6 40  1  0  0  0  0
 12 41  1  0  0  0  0
 13 42  1  0  0  0  0
 18 43  1  0  0  0  0
 18 44  1  0  0  0  0
 19 45  1  0  0  0  0
 19 46  1  0  0  0  0
 20 47  1  0  0  0  0
 21 48  1  0  0  0  0
 21 49  1  0  0  0  0
 21 50  1  0  0  0  0
 22 51  1  0  0  0  0
 22 52  1  0  0  0  0
 23 53  1  0  0  0  0
 29 54  1  0  0  0  0
 30 55  1  0  0  0  0
M  END
> <POSIT::Probability>
0.14

> <POSIT::Method>
HYBRID

> <ReceptorTitle>
UCSF-P4578-REFINED_LIGAND-BOUND-STATE_A__DU__LA1_A-201(A)

> <OMEGA_C>
6xJUwkMO6MGlrklBYQ9RwmRy8cHYrUlBe85Wwhzw5MGIQDdBncdQwku498HTQDdBeHg9wpWh7MHR
ONlACWpfwqtz4MH/TvtAuIZWwgY268GE0yRBOINTwhKa9MGU0iRBOis/wohK7sFz8a5AX6o6whCY
7MEWvZZASWdZwsvH58Fp+RFBgDswwn4c6MF4LXVAqVcxwmPR58Fin6RA63Q5wj3j7ME3wFRAank0
wtbB6sFyEjlARBxTwn+E+8H2kRFBGGBEwlQd8cGwhZ9AEJVQwlr75cGuAH5AK5xVwjkq7MEJMohA
Tj5Rwlqc68H6M6lAr+pgwlo93sEO+iRBXGNQwnpe/MH53dZAZOlNwsOB9cHAerNAbU44wrMU6sHU
MtxABd1bwuj95MF3K+JAxQlYwnSn6cE+CfxA7wVewmIC4sHMfBJBfoY2whMJ6sE8DbNA+PNQwrrF
9sGH0v5AA3xIwpt/8sEG6b1AlrpUwjFkAsIafhJBlUBFwrt58sFFuXBAZms9wohZ78FOgR1APuky
wp4Q68FFOps/7UtUwiYu48F2CVhBsu9OwpHh88HYCVhBeCRZwiKZ3cFjijdBvmtOwqMG/8G7fDdB
1Mo/wrUs7cFsUvZAsO9iwjoZ3MGkXvFALz0swuBp5sFNyl1AWFwuwmjn5cGmlrxAZNJNwrxI6cEq
k09A1NVQwgBV3cHspX1AFTxZwvSo58GcK45AljdWwnyb88EsQ25AiPFRwoG45sFoRcVADt5jwsQo
5MGrOipBPv1iwhjE1sE5KyFBrTNewrHV3MEJbzJBu19UwuYm/8EngM1A/eZNwtu0AcK2MN1AxqJN
wrFp+sEof5ZApu9PwsLj7sE6Wv9AfI5Hwp/S8cE0Zt1A

> <OMEGA_E>
69eTwA==

> <OMEGA_NBR>
     83641

$$$$
CACHE3HI_1700_18
  -OEChem-03092622533D

 54 57  0     1  0  0  0  0  0999 V2000
  -43.4773  -29.6998    3.4552 C   0  0  0  0  0  0  0  0  0  0  0  0
  -44.7636  -29.4495    3.9283 C   0  0  0  0  0  0  0  0  0  0  0  0
  -43.2763  -29.8020    2.0853 C   0  0  0  0  0  0  0  0  0  0  0  0
  -47.6552  -29.0464    1.7328 C   0  0  0  0  0  0  0  0  0  0  0  0
  -45.7940  -29.3137    2.9835 C   0  0  0  0  0  0  0  0  0  0  0  0
  -47.1909  -29.0649    3.0305 C   0  0  0  0  0  0  0  0  0  0  0  0
  -45.4523  -29.4396    1.6400 C   0  0  0  0  0  0  0  0  0  0  0  0
  -50.5773  -29.9477    6.1238 C   0  0  0  0  0  0  0  0  0  0  0  0
  -52.8230  -30.1597    9.0713 C   0  0  0  0  0  0  0  0  0  0  0  0
  -53.0399  -28.2347    7.4672 C   0  0  0  0  0  0  0  0  0  0  0  0
  -54.3041  -29.9761    9.4213 C   0  0  0  0  0  0  0  0  0  0  0  0
  -54.5131  -28.1182    7.8749 C   0  0  0  0  0  0  0  0  0  0  0  0
  -54.8303  -28.1453   11.6264 C   0  0  0  0  0  0  0  0  0  0  0  0
  -56.2984  -26.5018   10.8387 C   0  0  0  0  0  0  0  0  0  0  0  0
  -54.3234  -27.6944   10.2627 C   0  0  2  0  0  0  0  0  0  0  0  0
  -52.5340  -29.6651    7.6537 C   0  0  0  0  0  0  0  0  0  0  0  0
  -54.9737  -26.3323   10.1199 C   0  0  2  0  0  0  0  0  0  0  0  0
  -48.0252  -28.8570    4.2704 C   0  0  0  0  0  0  0  0  0  0  0  0
  -48.3624  -30.1612    4.9879 C   0  0  0  0  0  0  0  0  0  0  0  0
  -44.2290  -29.6803    1.1315 N   0  0  0  0  0  0  0  0  0  0  0  0
  -46.5922  -29.2746    0.8976 N   0  0  0  0  0  0  0  0  0  0  0  0
  -54.8026  -28.6084    9.2292 N   0  0  0  0  0  0  0  0  0  0  0  0
  -51.1133  -29.7190    7.3900 N   0  0  0  0  0  0  0  0  0  0  0  0
  -49.1856  -29.9484    6.1573 N   0  0  0  0  0  0  0  0  0  0  0  0
  -51.2488  -30.1249    5.1084 O   0  0  0  0  0  0  0  0  0  0  0  0
  -56.0898  -27.4951   11.8570 O   0  0  0  0  0  0  0  0  0  0  0  0
  -54.1841  -25.3455   10.7812 O   0  0  0  0  0  0  0  0  0  0  0  0
  -42.6486  -29.8125    4.1458 H   0  0  0  0  0  0  0  0  0  0  0  0
  -44.9540  -29.3636    4.9933 H   0  0  0  0  0  0  0  0  0  0  0  0
  -42.2788  -29.9974    1.6996 H   0  0  0  0  0  0  0  0  0  0  0  0
  -48.6454  -28.8917    1.3273 H   0  0  0  0  0  0  0  0  0  0  0  0
  -52.2104  -29.6086    9.7961 H   0  0  0  0  0  0  0  0  0  0  0  0
  -52.5592  -31.2194    9.1634 H   0  0  0  0  0  0  0  0  0  0  0  0
  -52.9308  -27.9289    6.4202 H   0  0  0  0  0  0  0  0  0  0  0  0
  -52.4422  -27.5399    8.0716 H   0  0  0  0  0  0  0  0  0  0  0  0
  -54.9101  -30.6975    8.8315 H   0  0  0  0  0  0  0  0  0  0  0  0
  -54.4404  -30.2729   10.4816 H   0  0  0  0  0  0  0  0  0  0  0  0
  -54.8018  -27.0498    7.7997 H   0  0  0  0  0  0  0  0  0  0  0  0
  -55.1412  -28.6487    7.1273 H   0  0  0  0  0  0  0  0  0  0  0  0
  -54.9536  -29.2291   11.7230 H   0  0  0  0  0  0  0  0  0  0  0  0
  -54.1467  -27.8170   12.4176 H   0  0  0  0  0  0  0  0  0  0  0  0
  -56.6569  -25.5835   11.3122 H   0  0  0  0  0  0  0  0  0  0  0  0
  -57.0720  -26.8856   10.1655 H   0  0  0  0  0  0  0  0  0  0  0  0
  -53.2281  -27.6629   10.2427 H   0  0  0  0  0  0  0  0  0  0  0  0
  -53.0055  -30.3216    6.9282 H   0  0  0  0  0  0  0  0  0  0  0  0
  -55.1066  -25.9988    9.0753 H   0  0  0  0  0  0  0  0  0  0  0  0
  -47.5084  -28.1722    4.9550 H   0  0  0  0  0  0  0  0  0  0  0  0
  -48.9555  -28.3510    3.9826 H   0  0  0  0  0  0  0  0  0  0  0  0
  -48.9267  -30.8193    4.3190 H   0  0  0  0  0  0  0  0  0  0  0  0
  -47.4620  -30.6946    5.3094 H   0  0  0  0  0  0  0  0  0  0  0  0
  -46.6409  -29.3159   -0.1109 H   0  0  0  0  0  0  0  0  0  0  0  0
  -50.4752  -29.6182    8.1752 H   0  0  0  0  0  0  0  0  0  0  0  0
  -48.7251  -29.7915    7.0486 H   0  0  0  0  0  0  0  0  0  0  0  0
  -53.3550  -25.2782   10.2837 H   0  0  0  0  0  0  0  0  0  0  0  0
  1  2  1  0  0  0  0
  1  3  2  0  0  0  0
  2  5  2  0  0  0  0
  3 20  1  0  0  0  0
  4  6  2  0  0  0  0
  4 21  1  0  0  0  0
  5  6  1  0  0  0  0
  5  7  1  0  0  0  0
  6 18  1  0  0  0  0
  7 20  2  0  0  0  0
  7 21  1  0  0  0  0
  8 23  1  0  0  0  0
  8 24  1  0  0  0  0
  8 25  2  0  0  0  0
  9 11  1  0  0  0  0
  9 16  1  0  0  0  0
 10 12  1  0  0  0  0
 10 16  1  0  0  0  0
 11 22  1  0  0  0  0
 12 22  1  0  0  0  0
 13 15  1  0  0  0  0
 13 26  1  0  0  0  0
 14 17  1  0  0  0  0
 14 26  1  0  0  0  0
 15 17  1  0  0  0  0
 15 22  1  0  0  0  0
 16 23  1  0  0  0  0
 17 27  1  0  0  0  0
 18 19  1  0  0  0  0
 19 24  1  0  0  0  0
  1 28  1  0  0  0  0
  2 29  1  0  0  0  0
  3 30  1  0  0  0  0
  4 31  1  0  0  0  0
  9 32  1  0  0  0  0
  9 33  1  0  0  0  0
 10 34  1  0  0  0  0
 10 35  1  0  0  0  0
 11 36  1  0  0  0  0
 11 37  1  0  0  0  0
 12 38  1  0  0  0  0
 12 39  1  0  0  0  0
 13 40  1  0  0  0  0
 13 41  1  0  0  0  0
 14 42  1  0  0  0  0
 14 43  1  0  0  0  0
 15 44  1  0  0  0  0
 16 45  1  0  0  0  0
 17 46  1  0  0  0  0
 18 47  1  0  0  0  0
 18 48  1  0  0  0  0
 19 49  1  0  0  0  0
 19 50  1  0  0  0  0
 21 51  1  0  0  0  0
 23 52  1  0  0  0  0
 24 53  1  0  0  0  0
 27 54  1  0  0  0  0
M  END
> <POSIT::Probability>
0.14

> <POSIT::Method>
HYBRID

> <ReceptorTitle>
UCSF-P4578-REFINED_LIGAND-BOUND-STATE_A__DU__LA1_A-201(A)

> <OMEGA_C>
xOgtwheZ7cGEIV1A9g0zwpiY68FsaXtA6BotwoRq7sHcdQVA654+wgJf6MHgyt0/BC03wm6C6sGg
8T5AgsM8wvSE6MEs9EFAHc81wjyE68EI69E/I09Kwt2U78Fu9sNAykpTwhlH8cE3JBFB0ChUwrPg
4cGw8+5AYzdZwibP78GTvRZBXQ1awijy4MGX//tAQlJbwqgp4cGtBTpBjjFhwr4D1ME9ay1BJ0tZ
whSO3cE1NCRB1SJSwh9S7cFC6/RAHOVbwqWo0sFP6yFByhlAwh/b5sG6pohAE3NBwhJK8cE0nZ9A
h+owwjtx7cE41pA/cl46wnsy6sHwymU/3TVbwhbe5MGsqhNBEXRMwpPA7cGleuxAD75EwlmW78GW
CMVAw/5Mwtb/8MHod6NAAVxgwgj228Fytj1BibxYwpDDysH7fyxBIpgqwgiA7sGAqoRA6dAzwq3o
6sHCyJ9Ahh0pwpj678GgjNk/7JRCwjki58F45qk/bNdQwmbe7MHhvBxBoDxSwl3B+cEvnRJBJblT
wl1u38EAcs1AxcRRwshR3MEXJQFB+6NbwmWU9cHMTQ1B9MJZwugu8sGTtCdBBDVbwuZl2MHrlvlA
opBcwpww5cHCEuRAg9Bbwh7V6cFnkTtBMpZYwiqJ3sGfrkZBt6Biwv2qzMHN/jRBu0lkwrsV18EE
piJBj+lUwpdN3cEb4iNBoQVUwraS8sHHs91AMW1cwpr9z8GGNBFBkgg+wqlg4cGnj55AZNJDwsbO
4sGY435A6bRDwtON9sFuNYpAI9k9wpCO9cGj5qlARZA6wviG6sEADuO9puZJwiDy7MF/zQJBdeZC
wu9U7sFnjuFAh2tVwsQ5ysHliSRB

> <OMEGA_E>
dloAwQ==

> <OMEGA_NBR>
     85225

$$$$
CACHE3HI_1700_26
  -OEChem-03092622533D

 48 51  0     1  0  0  0  0  0999 V2000
  -56.1768  -26.8969   12.0530 C   0  0  0  0  0  0  0  0  0  0  0  0
  -55.0294  -26.1094   12.2373 C   0  0  0  0  0  0  0  0  0  0  0  0
  -56.2457  -27.8182   11.0045 C   0  0  0  0  0  0  0  0  0  0  0  0
  -53.9353  -26.2306   11.3780 C   0  0  0  0  0  0  0  0  0  0  0  0
  -53.8945  -29.5274    6.4080 C   0  0  0  0  0  0  0  0  0  0  0  0
  -53.2674  -30.1204    5.3314 C   0  0  0  0  0  0  0  0  0  0  0  0
  -55.1557  -27.9305   10.1582 C   0  0  0  0  0  0  0  0  0  0  0  0
  -54.0143  -27.1459   10.3430 C   0  0  0  0  0  0  0  0  0  0  0  0
  -53.0618  -29.0863    7.4159 C   0  0  0  0  0  0  0  0  0  0  0  0
  -51.2266  -29.8054    6.2825 C   0  0  0  0  0  0  0  0  0  0  0  0
  -44.5061  -28.7009    5.3201 C   0  0  0  0  0  0  0  0  0  0  0  0
  -54.9907  -28.8323    8.9771 C   0  0  0  0  0  0  0  0  0  0  0  0
  -52.9874  -27.4560    9.3018 C   0  0  0  0  0  0  0  0  0  0  0  0
  -49.4768  -29.8994    3.8072 C   0  0  0  0  0  0  0  0  0  0  0  0
  -47.5597  -29.7074    5.4146 C   0  0  0  0  0  0  0  0  0  0  0  0
  -48.5240  -29.4198    2.7188 C   0  0  0  0  0  0  0  0  0  0  0  0
  -49.0344  -29.3695    5.1743 C   0  0  2  0  0  0  0  0  0  0  0  0
  -46.7061  -29.2278    4.2362 C   0  0  1  0  0  0  0  0  0  0  0  0
  -45.2511  -29.6410    4.4098 C   0  0  0  0  0  0  0  0  0  0  0  0
  -51.9306  -30.2764    5.2354 N   0  0  0  0  0  0  0  0  0  0  0  0
  -51.7184  -29.2098    7.3861 N   0  0  0  0  0  0  0  0  0  0  0  0
  -53.6668  -28.4713    8.5392 N   0  0  0  0  0  0  0  0  0  0  0  0
  -49.8519  -29.9486    6.2179 N   0  0  0  0  0  0  0  0  0  0  0  0
  -44.9684  -27.7201    5.8833 O   0  0  0  0  0  0  0  0  0  0  0  0
  -47.1815  -29.8046    3.0149 O   0  0  0  0  0  0  0  0  0  0  0  0
  -43.2128  -29.0981    5.4363 O   0  0  0  0  0  0  0  0  0  0  0  0
  -57.0181  -26.7884   12.7319 H   0  0  0  0  0  0  0  0  0  0  0  0
  -54.9937  -25.3982   13.0583 H   0  0  0  0  0  0  0  0  0  0  0  0
  -57.1323  -28.4264   10.8622 H   0  0  0  0  0  0  0  0  0  0  0  0
  -53.0501  -25.6210   11.5231 H   0  0  0  0  0  0  0  0  0  0  0  0
  -54.9715  -29.4217    6.4458 H   0  0  0  0  0  0  0  0  0  0  0  0
  -53.8397  -30.4981    4.4908 H   0  0  0  0  0  0  0  0  0  0  0  0
  -55.0424  -29.8833    9.2792 H   0  0  0  0  0  0  0  0  0  0  0  0
  -55.7416  -28.6127    8.2113 H   0  0  0  0  0  0  0  0  0  0  0  0
  -52.7711  -26.5723    8.6926 H   0  0  0  0  0  0  0  0  0  0  0  0
  -52.0717  -27.8424    9.7610 H   0  0  0  0  0  0  0  0  0  0  0  0
  -50.4983  -29.5758    3.5782 H   0  0  0  0  0  0  0  0  0  0  0  0
  -49.4682  -30.9971    3.8228 H   0  0  0  0  0  0  0  0  0  0  0  0
  -47.2094  -29.2480    6.3466 H   0  0  0  0  0  0  0  0  0  0  0  0
  -47.4529  -30.7957    5.5186 H   0  0  0  0  0  0  0  0  0  0  0  0
  -48.7962  -29.8726    1.7601 H   0  0  0  0  0  0  0  0  0  0  0  0
  -48.5729  -28.3314    2.5962 H   0  0  0  0  0  0  0  0  0  0  0  0
  -49.1629  -28.2807    5.1979 H   0  0  0  0  0  0  0  0  0  0  0  0
  -46.7528  -28.1345    4.1522 H   0  0  0  0  0  0  0  0  0  0  0  0
  -45.2124  -30.6467    4.8377 H   0  0  0  0  0  0  0  0  0  0  0  0
  -44.7606  -29.6442    3.4323 H   0  0  0  0  0  0  0  0  0  0  0  0
  -49.3894  -30.4884    6.9391 H   0  0  0  0  0  0  0  0  0  0  0  0
  -42.7000  -28.5039    6.0243 H   0  0  0  0  0  0  0  0  0  0  0  0
  1  2  1  0  0  0  0
  1  3  2  0  0  0  0
  2  4  2  0  0  0  0
  3  7  1  0  0  0  0
  4  8  1  0  0  0  0
  5  6  2  0  0  0  0
  5  9  1  0  0  0  0
  6 20  1  0  0  0  0
  7  8  2  0  0  0  0
  7 12  1  0  0  0  0
  8 13  1  0  0  0  0
  9 21  2  0  0  0  0
  9 22  1  0  0  0  0
 10 20  2  0  0  0  0
 10 21  1  0  0  0  0
 10 23  1  0  0  0  0
 11 19  1  0  0  0  0
 11 24  2  0  0  0  0
 11 26  1  0  0  0  0
 12 22  1  0  0  0  0
 13 22  1  0  0  0  0
 14 16  1  0  0  0  0
 14 17  1  0  0  0  0
 15 17  1  0  0  0  0
 15 18  1  0  0  0  0
 16 25  1  0  0  0  0
 17 23  1  0  0  0  0
 18 19  1  0  0  0  0
 18 25  1  0  0  0  0
  1 27  1  0  0  0  0
  2 28  1  0  0  0  0
  3 29  1  0  0  0  0
  4 30  1  0  0  0  0
  5 31  1  0  0  0  0
  6 32  1  0  0  0  0
 12 33  1  0  0  0  0
 12 34  1  0  0  0  0
 13 35  1  0  0  0  0
 13 36  1  0  0  0  0
 14 37  1  0  0  0  0
 14 38  1  0  0  0  0
 15 39  1  0  0  0  0
 15 40  1  0  0  0  0
 16 41  1  0  0  0  0
 16 42  1  0  0  0  0
 17 43  1  0  0  0  0
 18 44  1  0  0  0  0
 19 45  1  0  0  0  0
 19 46  1  0  0  0  0
 23 47  1  0  0  0  0
 26 48  1  0  0  0  0
M  END
> <POSIT::Probability>
0.18

> <POSIT::Method>
HYBRID

> <ReceptorTitle>
UCSF-P4578-REFINED_LIGAND-BOUND-STATE_A__DU__LA1_A-201(A)

> <OMEGA_C>
ALVgwtIs18H82EBBIB5cwhLg0MHqy0NBl/tgwrKL3sFwEjBBx71XwlzY0cFlDDZB8JNXwiM47MGM
Ds1A3BFVwqj28MHUmqpAdZ9cwppx38HqhyJBrQ5YwuYq2cG+fCVBQz9Uwsaw6MHRTu1ADuhMwlxx
7sEYCslAMgYywn6b5cFBPqpAfPZbwoqo5sFHog9BHfNTwtWl28Fb1BRBQ+hFwg4y78F+qHNAGz0+
wreo7cE+RK1AiBhCwqtb68HkAC5AMiNEwq706sH0k6VAEdM6wm/S6cEEj4dAIAE1wsUg7cEfHY1A
+7hPwvw18sGUiKdAnd9OwqSt6cE7W+xAwqpWwirF48G5oAhBVGhHwrCW78Hg+MZAqd8zwrnC3cFK
RLxA1bk8wsRv7sFa80BA4tkswvrI6MHZ9a1AjBJkwqNO1sEPtktBjvlbwpwvy8Gh7lBBfodkwlJp
48Fryy1BWjNUwrb3zMGUXjhBzOJbwppf68HYQ85A2FtXwgz888E6tI9AZCtcwvkQ78G3dxRBX/de
wszm5MFcYQNBlxVTwiqU1MECFQtBcklQwla93sEwLRxBS/5Jwi+b7MGYAGVAZN9FwhT698FqqXRA
atY8wvz76cEeF8tAyc89wopd9sFOmLBAWi9Dwgb77sFoTOE/skpCwsqm4sGsJyZA1aZEwvg+4sHs
VKZA4wI7wncT4cHa3oRAetk0wl0s9cEJzppA1Aozwlwn7cEkq1tAso5Fwjbo88HSDN5A0Mwqwg4I
5MGoxsBA

> <OMEGA_E>
R/mAwA==

> <OMEGA_NBR>
     86688

$$$$
CACHE3HI_1700_31
  -OEChem-03092622533D

 42 44  0     1  0  0  0  0  0999 V2000
  -44.1694  -29.1808    6.0814 C   0  0  0  0  0  0  0  0  0  0  0  0
  -44.5413  -29.3030    4.7599 C   0  0  0  0  0  0  0  0  0  0  0  0
  -46.3822  -29.3454    6.1129 C   0  0  0  0  0  0  0  0  0  0  0  0
  -48.1129  -29.6017    3.9710 C   0  0  0  0  0  0  0  0  0  0  0  0
  -46.7585  -29.5217    3.7274 C   0  0  0  0  0  0  0  0  0  0  0  0
  -48.5954  -29.5674    5.3774 C   0  0  0  0  0  0  0  0  0  0  0  0
  -56.4940  -28.8589   10.0475 C   0  0  0  0  0  0  0  0  0  0  0  0
  -56.3132  -28.9286    8.5176 C   0  0  0  0  0  0  0  0  0  0  0  0
  -55.2602  -28.2282   10.7244 C   0  0  0  0  0  0  0  0  0  0  0  0
  -55.0240  -29.6847    8.1376 C   0  0  0  0  0  0  0  0  0  0  0  0
  -53.9779  -29.0008   10.3575 C   0  0  0  0  0  0  0  0  0  0  0  0
  -53.7803  -29.0497    8.8215 C   0  0  0  0  0  0  0  0  0  0  0  0
  -52.4770  -29.8291    8.5024 C   0  0  0  0  0  0  0  0  0  0  0  0
  -50.4901  -29.9933    6.9782 C   0  0  0  0  0  0  0  0  0  0  0  0
  -51.9532  -29.5426    7.0727 C   0  0  1  0  0  0  0  0  0  0  0  0
  -45.3284  -29.2115    6.8876 N   0  0  0  0  0  0  0  0  0  0  0  0
  -47.7462  -29.4433    6.3849 N   0  0  0  0  0  0  0  0  0  0  0  0
  -45.9024  -29.3959    4.8241 N   0  0  0  0  0  0  0  0  0  0  0  0
  -49.9565  -29.7059    5.6242 N   0  0  0  0  0  0  0  0  0  0  0  0
  -52.7210  -30.2351    6.0865 O   0  0  0  0  0  0  0  0  0  0  0  0
  -43.1565  -29.0784    6.4417 H   0  0  0  0  0  0  0  0  0  0  0  0
  -43.9089  -29.3209    3.8846 H   0  0  0  0  0  0  0  0  0  0  0  0
  -48.8130  -29.6880    3.1532 H   0  0  0  0  0  0  0  0  0  0  0  0
  -46.3712  -29.5553    2.7198 H   0  0  0  0  0  0  0  0  0  0  0  0
  -57.3805  -28.2495   10.2770 H   0  0  0  0  0  0  0  0  0  0  0  0
  -56.6374  -29.8769   10.4390 H   0  0  0  0  0  0  0  0  0  0  0  0
  -57.1765  -29.4499    8.0785 H   0  0  0  0  0  0  0  0  0  0  0  0
  -56.2596  -27.9057    8.1165 H   0  0  0  0  0  0  0  0  0  0  0  0
  -55.1602  -27.1848   10.3909 H   0  0  0  0  0  0  0  0  0  0  0  0
  -55.3960  -28.2529   11.8158 H   0  0  0  0  0  0  0  0  0  0  0  0
  -55.1145  -30.7330    8.4586 H   0  0  0  0  0  0  0  0  0  0  0  0
  -54.8930  -29.6455    7.0462 H   0  0  0  0  0  0  0  0  0  0  0  0
  -53.1125  -28.4999   10.8159 H   0  0  0  0  0  0  0  0  0  0  0  0
  -54.0539  -30.0281   10.7435 H   0  0  0  0  0  0  0  0  0  0  0  0
  -53.6689  -28.0197    8.4517 H   0  0  0  0  0  0  0  0  0  0  0  0
  -51.7035  -29.5361    9.2275 H   0  0  0  0  0  0  0  0  0  0  0  0
  -52.6778  -30.9066    8.5958 H   0  0  0  0  0  0  0  0  0  0  0  0
  -49.8933  -29.4522    7.7273 H   0  0  0  0  0  0  0  0  0  0  0  0
  -50.4289  -31.0743    7.1720 H   0  0  0  0  0  0  0  0  0  0  0  0
  -51.9998  -28.4580    6.8952 H   0  0  0  0  0  0  0  0  0  0  0  0
  -50.3813  -28.8487    5.3332 H   0  0  0  0  0  0  0  0  0  0  0  0
  -52.3771  -30.0403    5.2226 H   0  0  0  0  0  0  0  0  0  0  0  0
  1  2  2  0  0  0  0
  1 16  1  0  0  0  0
  2 18  1  0  0  0  0
  3 16  2  0  0  0  0
  3 17  1  0  0  0  0
  3 18  1  0  0  0  0
  4  5  2  0  0  0  0
  4  6  1  0  0  0  0
  5 18  1  0  0  0  0
  6 17  2  0  0  0  0
  6 19  1  0  0  0  0
  7  8  1  0  0  0  0
  7  9  1  0  0  0  0
  8 10  1  0  0  0  0
  9 11  1  0  0  0  0
 10 12  1  0  0  0  0
 11 12  1  0  0  0  0
 12 13  1  0  0  0  0
 13 15  1  0  0  0  0
 14 15  1  0  0  0  0
 14 19  1  0  0  0  0
 15 20  1  0  0  0  0
  1 21  1  0  0  0  0
  2 22  1  0  0  0  0
  4 23  1  0  0  0  0
  5 24  1  0  0  0  0
  7 25  1  0  0  0  0
  7 26  1  0  0  0  0
  8 27  1  0  0  0  0
  8 28  1  0  0  0  0
  9 29  1  0  0  0  0
  9 30  1  0  0  0  0
 10 31  1  0  0  0  0
 10 32  1  0  0  0  0
 11 33  1  0  0  0  0
 11 34  1  0  0  0  0
 12 35  1  0  0  0  0
 13 36  1  0  0  0  0
 13 37  1  0  0  0  0
 14 38  1  0  0  0  0
 14 39  1  0  0  0  0
 15 40  1  0  0  0  0
 19 41  1  0  0  0  0
 20 42  1  0  0  0  0
M  END
> <POSIT::Probability>
0.42

> <POSIT::Method>
SHAPEFIT

> <ReceptorTitle>
UCSF-P4578-REFINED_LIGAND-BOUND-STATE_A__DU__LA1_A-201(A)

> <OMEGA_C>
fa0wwlpy6cEjm8JAUioywnJs6sFKUZhAaIc5wk3D6sHYnMNApnNAwlfQ7MEuJX5Auwg7woIs7MHq
jG5AsmFCwgOK7MGQE6xA2flhwhrf5sGOwiBBsEBhwtFt58ELSAhBfgpdwl3T4cFVlytBmhhcwld6
7cGuMwJBZOlXwpgB6MFyuCVB/B5Xwsdl6MHqJA1Bd+hRwhmi7sHjCQhB5/VJwjXy78HLTd9AFNBP
wjVX7MHDU+JAPVA1wjSx6cGKZ9xAFvw+wumL68G/UMxAGZw3wr0q68HQXppAcdNHwsml7cGK+bNA
VOJSwmXh8cGqxMJAOKAswneg6MG1Is5AtaIvwhuR6sEVnnhAgkBDwhCB7cGQzUlAH3w5wk5x7MFj
EC5ApIVlwv/+4cHIbiRBtoxiws0D78EgBidByLRkwnWZ68FuQQFB3glhwvk+38E43QFBD6RcwnB6
2cEJQSZBgZVdwtwF4sFZDT1BOnVcwhbd9cGgVgdBc5JbwhAq7cEQeuFAK3NUwtj/48EUDi1BKjdY
wnM58ME25StB8qxWwmco4MEoOgdBXNBOwvpJ7MHkoxNBGLZSwsRA98F9iAlBxJJHwgKe68GjRfdA
LbdJwkCY+MGzgOVAyv9Pwvyp48GGpdxAeIZJwjLK5sGDqapAM4JRwplS8MGOH6dA

> <OMEGA_E>
Y5+EPw==

> <OMEGA_NBR>
     88052

$$$$
CACHE3HI_1700_34
  -OEChem-03092622533D

 47 50  0     1  0  0  0  0  0999 V2000
  -51.3068  -30.5425    4.4103 C   0  0  0  0  0  0  0  0  0  0  0  0
  -50.7131  -29.4305    3.8131 C   0  0  0  0  0  0  0  0  0  0  0  0
  -50.8201  -31.0238    5.6256 C   0  0  0  0  0  0  0  0  0  0  0  0
  -49.6332  -28.7997    4.4312 C   0  0  0  0  0  0  0  0  0  0  0  0
  -49.7402  -30.3930    6.2437 C   0  0  0  0  0  0  0  0  0  0  0  0
  -44.2634  -29.5886    4.6769 C   0  0  0  0  0  0  0  0  0  0  0  0
  -44.4222  -29.3105    6.0191 C   0  0  0  0  0  0  0  0  0  0  0  0
  -49.1465  -29.2810    5.6465 C   0  0  0  0  0  0  0  0  0  0  0  0
  -45.4096  -29.5174    3.9122 C   0  0  0  0  0  0  0  0  0  0  0  0
  -46.6487  -28.9506    5.7323 C   0  0  0  0  0  0  0  0  0  0  0  0
  -46.1303  -30.7687    0.6222 C   0  0  0  0  0  0  0  0  0  0  0  0
  -45.6113  -29.3910    0.2340 C   0  0  0  0  0  0  0  0  0  0  0  0
  -42.9547  -30.9750    1.0229 C   0  0  0  0  0  0  0  0  0  0  0  0
  -42.5693  -29.6481    1.6877 C   0  0  0  0  0  0  0  0  0  0  0  0
  -45.4308  -31.1064    1.9403 C   0  0  1  0  0  0  0  0  0  0  0  0
  -45.0312  -28.7803    1.5296 C   0  0  2  0  0  0  0  0  0  0  0  0
  -44.0627  -31.7840    1.7234 C   0  0  2  0  0  0  0  0  0  0  0  0
  -43.5256  -28.4653    1.4493 C   0  0  2  0  0  0  0  0  0  0  0  0
  -47.9730  -28.5958    6.3184 C   0  0  0  0  0  0  0  0  0  0  0  0
  -45.6048  -28.9868    6.5825 N   0  0  0  0  0  0  0  0  0  0  0  0
  -46.6236  -29.2006    4.4088 N   0  0  0  0  0  0  0  0  0  0  0  0
  -45.2910  -29.7884    2.5628 N   0  0  0  0  0  0  0  0  0  0  0  0
  -43.5714  -32.2807    2.9700 O   0  0  0  0  0  0  0  0  0  0  0  0
  -43.2371  -27.8578    0.1892 O   0  0  0  0  0  0  0  0  0  0  0  0
  -52.1474  -31.0337    3.9292 H   0  0  0  0  0  0  0  0  0  0  0  0
  -51.0922  -29.0554    2.8670 H   0  0  0  0  0  0  0  0  0  0  0  0
  -51.2821  -31.8897    6.0907 H   0  0  0  0  0  0  0  0  0  0  0  0
  -49.1770  -27.9340    3.9582 H   0  0  0  0  0  0  0  0  0  0  0  0
  -49.3687  -30.7747    7.1910 H   0  0  0  0  0  0  0  0  0  0  0  0
  -43.2952  -29.8436    4.2644 H   0  0  0  0  0  0  0  0  0  0  0  0
  -43.5781  -29.3427    6.6999 H   0  0  0  0  0  0  0  0  0  0  0  0
  -47.2145  -30.7270    0.7569 H   0  0  0  0  0  0  0  0  0  0  0  0
  -45.9318  -31.4928   -0.1701 H   0  0  0  0  0  0  0  0  0  0  0  0
  -44.8877  -29.4395   -0.5840 H   0  0  0  0  0  0  0  0  0  0  0  0
  -46.4509  -28.7738   -0.1074 H   0  0  0  0  0  0  0  0  0  0  0  0
  -43.3068  -30.7592    0.0056 H   0  0  0  0  0  0  0  0  0  0  0  0
  -42.0607  -31.5926    0.8742 H   0  0  0  0  0  0  0  0  0  0  0  0
  -42.5293  -29.8187    2.7802 H   0  0  0  0  0  0  0  0  0  0  0  0
  -41.5295  -29.3715    1.4367 H   0  0  0  0  0  0  0  0  0  0  0  0
  -46.0929  -31.7344    2.5531 H   0  0  0  0  0  0  0  0  0  0  0  0
  -45.5777  -27.8454    1.7414 H   0  0  0  0  0  0  0  0  0  0  0  0
  -44.2361  -32.7129    1.1011 H   0  0  0  0  0  0  0  0  0  0  0  0
  -43.3018  -27.6928    2.2180 H   0  0  0  0  0  0  0  0  0  0  0  0
  -48.1306  -27.5033    6.2848 H   0  0  0  0  0  0  0  0  0  0  0  0
  -47.9936  -28.8293    7.3978 H   0  0  0  0  0  0  0  0  0  0  0  0
  -42.8123  -32.8410    2.7555 H   0  0  0  0  0  0  0  0  0  0  0  0
  -42.3186  -27.5555    0.2382 H   0  0  0  0  0  0  0  0  0  0  0  0
  1  2  1  0  0  0  0
  1  3  2  0  0  0  0
  2  4  2  0  0  0  0
  3  5  1  0  0  0  0
  4  8  1  0  0  0  0
  5  8  2  0  0  0  0
  6  7  1  0  0  0  0
  6  9  2  0  0  0  0
  7 20  2  0  0  0  0
  8 19  1  0  0  0  0
  9 21  1  0  0  0  0
  9 22  1  0  0  0  0
 10 19  1  0  0  0  0
 10 20  1  0  0  0  0
 10 21  2  0  0  0  0
 11 12  1  0  0  0  0
 11 15  1  0  0  0  0
 12 16  1  0  0  0  0
 13 14  1  0  0  0  0
 13 17  1  0  0  0  0
 14 18  1  0  0  0  0
 15 17  1  0  0  0  0
 15 22  1  0  0  0  0
 16 18  1  0  0  0  0
 16 22  1  0  0  0  0
 17 23  1  0  0  0  0
 18 24  1  0  0  0  0
  1 25  1  0  0  0  0
  2 26  1  0  0  0  0
  3 27  1  0  0  0  0
  4 28  1  0  0  0  0
  5 29  1  0  0  0  0
  6 30  1  0  0  0  0
  7 31  1  0  0  0  0
 11 32  1  0  0  0  0
 11 33  1  0  0  0  0
 12 34  1  0  0  0  0
 12 35  1  0  0  0  0
 13 36  1  0  0  0  0
 13 37  1  0  0  0  0
 14 38  1  0  0  0  0
 14 39  1  0  0  0  0
 15 40  1  0  0  0  0
 16 41  1  0  0  0  0
 17 42  1  0  0  0  0
 18 43  1  0  0  0  0
 19 44  1  0  0  0  0
 19 45  1  0  0  0  0
 23 46  1  0  0  0  0
 24 47  1  0  0  0  0
M  END
> <POSIT::Probability>
0.24

> <POSIT::Method>
FRED

> <ReceptorTitle>
UCSF-P4578-REFINED_LIGAND-BOUND-STATE_A__DU__LA1_A-201(A)

> <OMEGA_C>
HzpNwhpX9MFKIY1ALdpKwqpx68FhCnRAx0dLwrYw+MEkBbRAZYhGwsNl5sEWzI1A/vVGwtEk88EM
zMdAsw0xwly17MFYqZVAYrAxwud76sFgnMBAC5ZEwnY/6sFWsLRAaqM1wp8j7MEPYXpAQJg6wtia
58HSbrdAeYU4wmAm9sGYRh8/9HE2wscg68FYpG8+qNErwtfM98HM7YI/9EYqwmIv7cFyBtg/ILk1
wvPZ+MFiXPg//x80whs+5sEuy8M/MkAwwptF/sFCmNw/QxouwgC548HXgrk/YeQ/wkPE5MGVMMpA
TGs2wu7k58Fxo9JAjn46wr+a6cFMFY1AByo1wrFO7sENBSRAE0kuwmUfAcLvFD5A0vIswsjc3sGo
xEE+9ZZQwv5E+MEleHtAXl5Mwnpx6MEsfTdA1SBNwiAe/8Gp5sJATLVEwsF438GqU31Al3lFwoMy
9sGCHOZAQC4twqq/7sH2dYhABFAuwtC96sHcZdZAm9s8wtjQ9cHqxEE/Mro3wkLx+8GgOS6+Ao0z
wiSE68EIfxW/rc05wr4w5sFADdy9MTotwtES9sEAGrc7KT4owqG9/MHcyF8/DR4qwsaM7sHd7jFA
Nx4mwtf46sFd5Lc/IF84wvPf/cHmZSNAnU82wljD3sH+5t4/z/EwwgnaAsKq8Yw//zQtwuyK3cHb
8w1AwIVAwrMG3MENHclAb/k/wlKi5sFguuxAzT8rwi9dA8K1WjBASkYpwsFx3MF48nM+

> <OMEGA_E>
evcJwQ==

> <OMEGA_NBR>
     89490

$$$$
CACHE3HI_1700_6
  -OEChem-03092622533D

 40 43  0     1  0  0  0  0  0999 V2000
  -46.7852  -28.9717    3.7933 C   0  0  0  0  0  0  0  0  0  0  0  0
  -47.1306  -30.3201    3.7024 C   0  0  0  0  0  0  0  0  0  0  0  0
  -47.5739  -28.0993    4.5432 C   0  0  0  0  0  0  0  0  0  0  0  0
  -48.2643  -30.7961    4.3614 C   0  0  0  0  0  0  0  0  0  0  0  0
  -48.7076  -28.5753    5.2022 C   0  0  0  0  0  0  0  0  0  0  0  0
  -52.7995  -30.5015    7.0778 C   0  0  0  0  0  0  0  0  0  0  0  0
  -54.0155  -30.5000    7.7297 C   0  0  0  0  0  0  0  0  0  0  0  0
  -49.0530  -29.9237    5.1113 C   0  0  0  0  0  0  0  0  0  0  0  0
  -51.8154  -29.7196    7.6468 C   0  0  0  0  0  0  0  0  0  0  0  0
  -53.2235  -29.0693    9.3092 C   0  0  0  0  0  0  0  0  0  0  0  0
  -53.8288  -28.9852   11.7070 C   0  0  0  0  0  0  0  0  0  0  0  0
  -55.5396  -27.1996   10.2675 C   0  0  0  0  0  0  0  0  0  0  0  0
  -54.0316  -26.9964   10.4206 C   0  0  1  0  0  0  0  0  0  0  0  0
  -54.7024  -27.8721   12.3171 C   0  0  1  0  0  0  0  0  0  0  0  0
  -53.9459  -26.6224   11.8983 C   0  0  2  0  0  0  0  0  0  0  0  0
  -50.2736  -30.4357    5.8209 C   0  0  0  0  0  0  0  0  0  0  0  0
  -54.2633  -29.7929    8.8519 N   0  0  0  0  0  0  0  0  0  0  0  0
  -51.9935  -28.9874    8.7663 N   0  0  0  0  0  0  0  0  0  0  0  0
  -53.4385  -28.3429   10.4410 N   0  0  2  0  0  0  0  0  0  0  0  0
  -50.5517  -29.6941    7.0075 N   0  0  0  0  0  0  0  0  0  0  0  0
  -55.9221  -27.8165   11.5260 O   0  0  0  0  0  0  0  0  0  0  0  0
  -54.6314  -25.4299   12.2150 O   0  0  0  0  0  0  0  0  0  0  0  0
  -45.9027  -28.6010    3.2803 H   0  0  0  0  0  0  0  0  0  0  0  0
  -46.5164  -30.9995    3.1189 H   0  0  0  0  0  0  0  0  0  0  0  0
  -47.3053  -27.0494    4.6139 H   0  0  0  0  0  0  0  0  0  0  0  0
  -48.5255  -31.8483    4.2847 H   0  0  0  0  0  0  0  0  0  0  0  0
  -49.3153  -27.8882    5.7849 H   0  0  0  0  0  0  0  0  0  0  0  0
  -52.6420  -31.0838    6.1785 H   0  0  0  0  0  0  0  0  0  0  0  0
  -54.8496  -31.0847    7.3567 H   0  0  0  0  0  0  0  0  0  0  0  0
  -52.9424  -29.1944   12.3138 H   0  0  0  0  0  0  0  0  0  0  0  0
  -54.4071  -29.8999   11.5370 H   0  0  0  0  0  0  0  0  0  0  0  0
  -56.0799  -26.2517   10.1775 H   0  0  0  0  0  0  0  0  0  0  0  0
  -55.8272  -27.8497    9.4358 H   0  0  0  0  0  0  0  0  0  0  0  0
  -53.5803  -26.2990    9.7113 H   0  0  0  0  0  0  0  0  0  0  0  0
  -54.9374  -27.9777   13.3776 H   0  0  0  0  0  0  0  0  0  0  0  0
  -52.9200  -26.5702   12.2797 H   0  0  0  0  0  0  0  0  0  0  0  0
  -51.1524  -30.3739    5.1705 H   0  0  0  0  0  0  0  0  0  0  0  0
  -50.1515  -31.4864    6.1038 H   0  0  0  0  0  0  0  0  0  0  0  0
  -49.8477  -29.1241    7.4304 H   0  0  0  0  0  0  0  0  0  0  0  0
  -54.5200  -25.2766   13.1700 H   0  0  0  0  0  0  0  0  0  0  0  0
  1  2  1  0  0  0  0
  1  3  2  0  0  0  0
  2  4  2  0  0  0  0
  3  5  1  0  0  0  0
  4  8  1  0  0  0  0
  5  8  2  0  0  0  0
  6  7  2  0  0  0  0
  6  9  1  0  0  0  0
  7 17  1  0  0  0  0
  8 16  1  0  0  0  0
  9 18  2  0  0  0  0
  9 20  1  0  0  0  0
 10 17  2  0  0  0  0
 10 18  1  0  0  0  0
 10 19  1  0  0  0  0
 11 14  1  0  0  0  0
 11 19  1  0  0  0  0
 12 13  1  0  0  0  0
 12 21  1  0  0  0  0
 13 15  1  0  0  0  0
 13 19  1  0  0  0  0
 14 15  1  0  0  0  0
 14 21  1  0  0  0  0
 15 22  1  0  0  0  0
 16 20  1  0  0  0  0
  1 23  1  0  0  0  0
  2 24  1  0  0  0  0
  3 25  1  0  0  0  0
  4 26  1  0  0  0  0
  5 27  1  0  0  0  0
  6 28  1  0  0  0  0
  7 29  1  0  0  0  0
 11 30  1  0  0  0  0
 11 31  1  0  0  0  0
 12 32  1  0  0  0  0
 12 33  1  0  0  0  0
 13 34  1  0  0  0  0
 14 35  1  0  0  0  0
 15 36  1  0  0  0  0
 16 37  1  0  0  0  0
 16 38  1  0  0  0  0
 20 39  1  0  0  0  0
 22 40  1  0  0  0  0
M  END
> <POSIT::Probability>
0.14

> <POSIT::Method>
HYBRID

> <ReceptorTitle>
UCSF-P4578-REFINED_LIGAND-BOUND-STATE_A__DU__LA1_A-201(A)

> <OMEGA_C>
ESQ7wgbG58GqxXJAxoU8woGP8sFk9GxAuUs+wmvL4MHgYZFAoA5Bwl5e9sGpkItAk9RCwkia5MFV
eKZApTJTwgsD9MHufOJA7A9Ywub/88EGWvdATDZEwqdj78Hhj6NA7kJPwqjB7cGwsvRA4+RUwgCO
6MGm8hRBpFBXwsnh58HiTztBkShewt6Y2cG6RyRBZCBYwpb418HauiZBTc9awv/53sHiEkVBk8hX
wrb61MFQXz5BKRhJwk5888GHRLpAnA1ZwuhX7sF4oQ1BUPlPwkrm58GYQgxBEMFVwlO+4sElDidB
6TRKwomN7cHJPeBARLBfwhyI3sFmajhBj4ZawmVwy8F9cENBYJw3wvDO5MEV8FFAvxA6whL/98Gq
m0dAojg9wjNl2MFcpZNAHRpCwj7J/sHwG4lA50JFwvEa38HiHblAbpFSwqKr+MEttsVA/2Vbwo6t
+MFTautADcVTwhqO6cF9BUVB3qBZwgcz78GqlzhB2FFgwmID0sEK1yJBGE9fwi7M3sHg+BZBQVJW
wkxk0sGsYRtB7r9bwl/S38F/ClZBDq5Tws+P1MGkeURBDpxMws798sFpdKVALZtIwjzk+8FJUsNA
AGRHwjf+6MESxu1AgxRawn82ysEmuFJB

> <OMEGA_E>
yG1uwA==

> <OMEGA_NBR>
     90799

$$$$
CACHE3HI_1700_65
  -OEChem-03092622533D

 56 59  0     1  0  0  0  0  0999 V2000
  -44.0311  -29.4676    4.6526 C   0  0  0  0  0  0  0  0  0  0  0  0
  -44.5067  -29.1534    5.9352 C   0  0  0  0  0  0  0  0  0  0  0  0
  -44.9041  -29.5251    3.5651 C   0  0  0  0  0  0  0  0  0  0  0  0
  -45.8630  -28.8938    6.1490 C   0  0  0  0  0  0  0  0  0  0  0  0
  -46.2491  -29.2802    3.7890 C   0  0  0  0  0  0  0  0  0  0  0  0
  -46.7295  -28.9713    5.0693 C   0  0  0  0  0  0  0  0  0  0  0  0
  -50.2958  -29.5577    6.1090 C   0  0  0  0  0  0  0  0  0  0  0  0
  -47.3551  -29.2519    2.7780 C   0  0  0  0  0  0  0  0  0  0  0  0
  -52.3066  -30.7622    9.0663 C   0  0  0  0  0  0  0  0  0  0  0  0
  -53.1390  -29.3488    7.1646 C   0  0  0  0  0  0  0  0  0  0  0  0
  -52.3767  -29.5209    9.9608 C   0  0  0  0  0  0  0  0  0  0  0  0
  -53.1930  -28.1593    8.1280 C   0  0  0  0  0  0  0  0  0  0  0  0
  -53.8757  -27.8425   11.8311 C   0  0  0  0  0  0  0  0  0  0  0  0
  -54.8451  -25.7719   11.3792 C   0  0  0  0  0  0  0  0  0  0  0  0
  -48.2061  -28.6884    5.0168 C   0  0  1  0  0  0  0  0  0  0  0  0
  -48.6050  -29.3827    3.6814 C   0  0  2  0  0  0  0  0  0  0  0  0
  -53.5268  -27.4524   10.4058 C   0  0  2  0  0  0  0  0  0  0  0  0
  -52.1225  -30.4112    7.5895 C   0  0  0  0  0  0  0  0  0  0  0  0
  -54.6629  -26.5082   10.0664 C   0  0  2  0  0  0  0  0  0  0  0  0
  -48.9981  -30.8626    3.8306 C   0  0  0  0  0  0  0  0  0  0  0  0
  -53.4300  -28.6031    9.5082 N   0  0  0  0  0  0  0  0  0  0  0  0
  -48.9638  -29.1389    6.1728 N   0  0  0  0  0  0  0  0  0  0  0  0
  -50.7729  -29.9347    7.3612 N   0  0  0  0  0  0  0  0  0  0  0  0
  -50.9594  -29.5885    5.0735 O   0  0  0  0  0  0  0  0  0  0  0  0
  -54.5105  -26.6969   12.4231 O   0  0  0  0  0  0  0  0  0  0  0  0
  -54.3186  -25.6260    9.0177 O   0  0  0  0  0  0  0  0  0  0  0  0
  -49.7201  -31.2447    2.6778 O   0  0  0  0  0  0  0  0  0  0  0  0
  -42.9719  -29.6598    4.5049 H   0  0  0  0  0  0  0  0  0  0  0  0
  -43.8107  -29.1032    6.7683 H   0  0  0  0  0  0  0  0  0  0  0  0
  -44.5331  -29.7558    2.5723 H   0  0  0  0  0  0  0  0  0  0  0  0
  -46.2172  -28.6329    7.1404 H   0  0  0  0  0  0  0  0  0  0  0  0
  -47.3491  -28.2879    2.2577 H   0  0  0  0  0  0  0  0  0  0  0  0
  -47.2733  -30.0642    2.0499 H   0  0  0  0  0  0  0  0  0  0  0  0
  -51.4747  -31.4050    9.4071 H   0  0  0  0  0  0  0  0  0  0  0  0
  -53.2273  -31.3557    9.2007 H   0  0  0  0  0  0  0  0  0  0  0  0
  -54.1451  -29.7993    7.0924 H   0  0  0  0  0  0  0  0  0  0  0  0
  -52.8966  -28.9806    6.1500 H   0  0  0  0  0  0  0  0  0  0  0  0
  -52.5440  -29.8268   11.0015 H   0  0  0  0  0  0  0  0  0  0  0  0
  -51.4036  -29.0172    9.9208 H   0  0  0  0  0  0  0  0  0  0  0  0
  -52.2344  -27.6288    8.0684 H   0  0  0  0  0  0  0  0  0  0  0  0
  -53.9736  -27.4583    7.8029 H   0  0  0  0  0  0  0  0  0  0  0  0
  -54.5327  -28.7093   11.9136 H   0  0  0  0  0  0  0  0  0  0  0  0
  -52.9705  -28.0441   12.4083 H   0  0  0  0  0  0  0  0  0  0  0  0
  -54.2065  -24.8878   11.4736 H   0  0  0  0  0  0  0  0  0  0  0  0
  -55.8897  -25.4761   11.5292 H   0  0  0  0  0  0  0  0  0  0  0  0
  -48.3559  -27.6030    4.9353 H   0  0  0  0  0  0  0  0  0  0  0  0
  -49.4543  -28.8661    3.2224 H   0  0  0  0  0  0  0  0  0  0  0  0
  -52.5319  -26.9178   10.4035 H   0  0  0  0  0  0  0  0  0  0  0  0
  -52.2420  -31.3024    6.9808 H   0  0  0  0  0  0  0  0  0  0  0  0
  -55.6003  -27.0343    9.7665 H   0  0  0  0  0  0  0  0  0  0  0  0
  -49.6218  -30.9839    4.7116 H   0  0  0  0  0  0  0  0  0  0  0  0
  -48.1002  -31.4685    3.9187 H   0  0  0  0  0  0  0  0  0  0  0  0
  -48.5139  -29.1185    7.0882 H   0  0  0  0  0  0  0  0  0  0  0  0
  -50.1431  -29.8728    8.1554 H   0  0  0  0  0  0  0  0  0  0  0  0
  -55.0470  -24.9910    8.9424 H   0  0  0  0  0  0  0  0  0  0  0  0
  -49.9617  -32.1812    2.7861 H   0  0  0  0  0  0  0  0  0  0  0  0
  1  2  1  0  0  0  0
  1  3  2  0  0  0  0
  2  4  2  0  0  0  0
  3  5  1  0  0  0  0
  4  6  1  0  0  0  0
  5  6  2  0  0  0  0
  5  8  1  0  0  0  0
  6 15  1  0  0  0  0
  7 22  1  0  0  0  0
  7 23  1  0  0  0  0
  7 24  2  0  0  0  0
  8 16  1  0  0  0  0
  9 11  1  0  0  0  0
  9 18  1  0  0  0  0
 10 12  1  0  0  0  0
 10 18  1  0  0  0  0
 11 21  1  0  0  0  0
 12 21  1  0  0  0  0
 13 17  1  0  0  0  0
 13 25  1  0  0  0  0
 14 19  1  0  0  0  0
 14 25  1  0  0  0  0
 15 16  1  0  0  0  0
 15 22  1  0  0  0  0
 16 20  1  0  0  0  0
 17 19  1  0  0  0  0
 17 21  1  0  0  0  0
 18 23  1  0  0  0  0
 19 26  1  0  0  0  0
 20 27  1  0  0  0  0
  1 28  1  0  0  0  0
  2 29  1  0  0  0  0
  3 30  1  0  0  0  0
  4 31  1  0  0  0  0
  8 32  1  0  0  0  0
  8 33  1  0  0  0  0
  9 34  1  0  0  0  0
  9 35  1  0  0  0  0
 10 36  1  0  0  0  0
 10 37  1  0  0  0  0
 11 38  1  0  0  0  0
 11 39  1  0  0  0  0
 12 40  1  0  0  0  0
 12 41  1  0  0  0  0
 13 42  1  0  0  0  0
 13 43  1  0  0  0  0
 14 44  1  0  0  0  0
 14 45  1  0  0  0  0
 15 46  1  0  0  0  0
 16 47  1  0  0  0  0
 17 48  1  0  0  0  0
 18 49  1  0  0  0  0
 19 50  1  0  0  0  0
 20 51  1  0  0  0  0
 20 52  1  0  0  0  0
 22 53  1  0  0  0  0
 23 54  1  0  0  0  0
 26 55  1  0  0  0  0
 27 56  1  0  0  0  0
M  END
> <POSIT::Probability>
0.18

> <POSIT::Method>
FRED

> <ReceptorTitle>
UCSF-P4578-REFINED_LIGAND-BOUND-STATE_A__DU__LA1_A-201(A)

> <OMEGA_C>
0B8wwpG968Hx4ZRA6AYywiA66cHx7L1A050zwnMz7ME5KmRAvHM3wpgm58HpxMRAD/84wt496sFH
fnJA/uo6wk/F58FXN6JA5C5Jwil27MGufMNAoms9wtAD6sH7yjFA8zlRwvAY9sF0DxFBWI5UwljK
6sGcROVAuYFRwt8q7ME8Xx9BnMVUwjpG4cEnDAJBrYBXwoe93sEXTD1BbWFbwvMszsFjETZBCNNA
wsaB5cFoiaBAfWtCwrkP68Fim2tAcRtWwp6e28EGfiZBdn1QwjhK88Hb3PJA26ZawtQQ1MEFECFB
EP5Dwo7m9sF6KHVATrhVwhjT5MF9IRhB7dpDwn0c6cGZh8VAcBdLwlx678H4jutAbtZLwkK17MFa
WqJAywpawjCT1cHaxEZBM0ZZwvoBzcFsSBBBaOFGwg/1+cGBYStANOMrwi5H7cFIKJBAHz4vwmnT
6MHCldhA3SEywvgL7sEOoCRAcd44wkYQ5cGIfuRAb2U9wo9N4sEofhBA3Bc9wmOD8MGaMQNAFOZN
wms9+8FlgxZBzOhUwmDY+sE+NhNBjpRYwgxl7sHw9OJAIJZTwjDY58EHzcRADi1SwlSd7sEwBjBB
Vp1Nwkkj6MG8ux5BEvBQwtoH3cH/FwFB7+RXwrGq28FWsflAciFawpqs5cEFnj5BwuFTwlRa4MFv
iEZBadNYwiwax8HtkzdBFY9fwhzPy8GGdzhBcWxBwt3S3ME57p1AMNFFwr7t5sGvO05AoSBSwrlX
18HGdCZBxPdQwkdr+sFZYt9AwGZewjxG2MGgQxxBtnxGwiDf98GmxZZAomZAwpe/+8GwzHpANA5C
wqvy6ME60uJAhpJIwnL77sFyfAJBITBcwnrtx8HgEw9Bw9hHwoS5AMI1UDJA

> <OMEGA_E>
lrUowQ==

> <OMEGA_NBR>
     92424

$$$$
CACHE3HI_1700_75
  -OEChem-03092622533D

 37 39  0     1  0  0  0  0  0999 V2000
  -47.7768  -29.6208    3.9948 C   0  0  0  0  0  0  0  0  0  0  0  0
  -48.8625  -29.6458    4.8548 C   0  0  0  0  0  0  0  0  0  0  0  0
  -44.2038  -29.4386    4.1708 C   0  0  0  0  0  0  0  0  0  0  0  0
  -44.0223  -29.3848    5.5246 C   0  0  0  0  0  0  0  0  0  0  0  0
  -46.4783  -29.5404    4.4854 C   0  0  0  0  0  0  0  0  0  0  0  0
  -46.3021  -29.4858    5.8749 C   0  0  0  0  0  0  0  0  0  0  0  0
  -48.5942  -29.5883    6.2022 C   0  0  0  0  0  0  0  0  0  0  0  0
  -54.7474  -26.4080    9.3730 C   0  0  0  0  0  0  0  0  0  0  0  0
  -54.3731  -27.3012   10.5227 C   0  0  0  0  0  0  0  0  0  0  0  0
  -53.4342  -27.1409    9.3594 C   0  0  0  0  0  0  0  0  0  0  0  0
  -53.2092  -28.2934    8.3919 C   0  0  0  0  0  0  0  0  0  0  0  0
  -52.0520  -29.1872    8.8503 C   0  0  0  0  0  0  0  0  0  0  0  0
  -50.9816  -30.0966    6.7180 C   0  0  0  0  0  0  0  0  0  0  0  0
  -51.8127  -30.4131    7.9598 C   0  0  1  0  0  0  0  0  0  0  0  0
  -45.4328  -29.5171    3.6383 N   0  0  0  0  0  0  0  0  0  0  0  0
  -45.0639  -29.4082    6.3759 N   0  0  0  0  0  0  0  0  0  0  0  0
  -47.3469  -29.5096    6.7140 N   0  0  0  0  0  0  0  0  0  0  0  0
  -49.6744  -29.6120    7.0736 N   0  0  0  0  0  0  0  0  0  0  0  0
  -51.1513  -31.4151    8.7309 O   0  0  0  0  0  0  0  0  0  0  0  0
  -47.9516  -29.6662    2.9219 H   0  0  0  0  0  0  0  0  0  0  0  0
  -49.8729  -29.7098    4.4666 H   0  0  0  0  0  0  0  0  0  0  0  0
  -43.3762  -29.4200    3.4735 H   0  0  0  0  0  0  0  0  0  0  0  0
  -43.0397  -29.3204    5.9745 H   0  0  0  0  0  0  0  0  0  0  0  0
  -55.5357  -26.7436    8.7106 H   0  0  0  0  0  0  0  0  0  0  0  0
  -54.7254  -25.3378    9.5382 H   0  0  0  0  0  0  0  0  0  0  0  0
  -54.1006  -26.8299   11.4590 H   0  0  0  0  0  0  0  0  0  0  0  0
  -54.9111  -28.2350   10.6304 H   0  0  0  0  0  0  0  0  0  0  0  0
  -52.5332  -26.5603    9.5168 H   0  0  0  0  0  0  0  0  0  0  0  0
  -54.1326  -28.8778    8.3142 H   0  0  0  0  0  0  0  0  0  0  0  0
  -52.9988  -27.8808    7.3990 H   0  0  0  0  0  0  0  0  0  0  0  0
  -51.1307  -28.5942    8.9062 H   0  0  0  0  0  0  0  0  0  0  0  0
  -52.2719  -29.5371    9.8674 H   0  0  0  0  0  0  0  0  0  0  0  0
  -50.8251  -30.9863    6.1000 H   0  0  0  0  0  0  0  0  0  0  0  0
  -51.4547  -29.3172    6.1133 H   0  0  0  0  0  0  0  0  0  0  0  0
  -52.7883  -30.8197    7.6670 H   0  0  0  0  0  0  0  0  0  0  0  0
  -49.5284  -29.2651    8.0177 H   0  0  0  0  0  0  0  0  0  0  0  0
  -51.7411  -31.6261    9.4704 H   0  0  0  0  0  0  0  0  0  0  0  0
  1  2  1  0  0  0  0
  1  5  2  0  0  0  0
  2  7  2  0  0  0  0
  3  4  1  0  0  0  0
  3 15  2  0  0  0  0
  4 16  2  0  0  0  0
  5  6  1  0  0  0  0
  5 15  1  0  0  0  0
  6 16  1  0  0  0  0
  6 17  2  0  0  0  0
  7 17  1  0  0  0  0
  7 18  1  0  0  0  0
  8  9  1  0  0  0  0
  8 10  1  0  0  0  0
  9 10  1  0  0  0  0
 10 11  1  0  0  0  0
 11 12  1  0  0  0  0
 12 14  1  0  0  0  0
 13 14  1  0  0  0  0
 13 18  1  0  0  0  0
 14 19  1  0  0  0  0
  1 20  1  0  0  0  0
  2 21  1  0  0  0  0
  3 22  1  0  0  0  0
  4 23  1  0  0  0  0
  8 24  1  0  0  0  0
  8 25  1  0  0  0  0
  9 26  1  0  0  0  0
  9 27  1  0  0  0  0
 10 28  1  0  0  0  0
 11 29  1  0  0  0  0
 11 30  1  0  0  0  0
 12 31  1  0  0  0  0
 12 32  1  0  0  0  0
 13 33  1  0  0  0  0
 13 34  1  0  0  0  0
 14 35  1  0  0  0  0
 18 36  1  0  0  0  0
 19 37  1  0  0  0  0
M  END
> <POSIT::Probability>
0.18

> <POSIT::Method>
HYBRID

> <ReceptorTitle>
UCSF-P4578-REFINED_LIGAND-BOUND-STATE_A__DU__LA1_A-201(A)

> <OMEGA_C>
bxs/wlT37MEnqn9ALnNDwqAq7cF7WptAutAwwjiC68HRdoVA0BYwwioU68HpybBAyuk5wrxS7MFn
iI9AUzU5wuzi68Ej/7tAf2BCwsC07MGFeMZAUP1awpdD08Go9xVBFn5ZwvFo2sHoXChBpbxVwngg
2cEewBVBPNZUwvpY4sFJRQZBRzVQwm9/6cHwmg1BLO1Lwr/F8MHd+dZAQEBPwhZO88H6tv5ALbs1
whYj7MGP2WhAZkE0wvdD68H7BsxALWM9wpAT7MG52NZAjbJGwmjl7MFKW+JA5ZpMwgdS+8HZsQtB
cM4/wl1U7cHJ/zpA4H1Hwpat7cF77o5ARYEtwhVc68FdTV5ApigswkCQ6sE7L79AmiRewufy1cGO
XgtBxeZawtezysFNnBhB+GZYwo+j1sHiVzdB9aRbwjrh4cErFipBACJSwol71MG1RBhByYdYwscF
58ESBwVBz/5TwvcL38E7xOxA2IVMwuLA5MHjfw5BbBZRwhBM7MH04B1B8kxLwvXj98GOM8NAn9FN
wpWJ6sE0oMNAOidTwruO9sEzWPVAHh1GwuEe6sGLSABB6/ZOwiwC/cGkhhdB

> <OMEGA_E>
/FvswA==

> <OMEGA_NBR>
     93661

$$$$
CACHE3HI_1702_10
  -OEChem-03092622533D

 49 51  0     1  0  0  0  0  0999 V2000
  -54.4630  -25.7160   11.2491 C   0  0  0  0  0  0  0  0  0  0  0  0
  -54.5451  -26.7949   10.3543 C   0  0  0  0  0  0  0  0  0  0  0  0
  -55.3954  -25.5979   12.2923 C   0  0  0  0  0  0  0  0  0  0  0  0
  -46.4589  -29.3793    6.6540 C   0  0  0  0  0  0  0  0  0  0  0  0
  -46.1297  -29.2354    4.3105 C   0  0  0  0  0  0  0  0  0  0  0  0
  -55.5626  -27.7674   10.4892 C   0  0  0  0  0  0  0  0  0  0  0  0
  -47.0790  -29.2000    5.3078 C   0  0  0  0  0  0  0  0  0  0  0  0
  -56.4985  -27.6648   11.5612 C   0  0  0  0  0  0  0  0  0  0  0  0
  -56.4115  -26.5599   12.4493 C   0  0  0  0  0  0  0  0  0  0  0  0
  -55.5824  -28.8881    9.5256 C   0  0  0  0  0  0  0  0  0  0  0  0
  -49.6710  -29.6896    5.3528 C   0  0  0  0  0  0  0  0  0  0  0  0
  -54.0377  -29.8843    6.7606 C   0  0  0  0  0  0  0  0  0  0  0  0
  -53.0924  -31.4768    8.5419 C   0  0  0  0  0  0  0  0  0  0  0  0
  -52.6336  -29.2613    6.6154 C   0  0  0  0  0  0  0  0  0  0  0  0
  -51.6997  -30.8289    8.3519 C   0  0  0  0  0  0  0  0  0  0  0  0
  -54.2493  -30.5252    8.1524 C   0  0  1  0  0  0  0  0  0  0  0  0
  -51.5510  -30.3273    6.9035 C   0  0  2  0  0  0  0  0  0  0  0  0
  -57.5851  -28.7224   11.7651 C   0  0  0  0  0  0  0  0  0  0  0  0
  -48.5061  -28.7198    5.0419 C   0  0  0  0  0  0  0  0  0  0  0  0
  -45.1407  -29.4374    6.6263 N   0  0  0  0  0  0  0  0  0  0  0  0
  -54.3731  -29.4755    9.1696 N   0  0  0  0  0  0  0  0  0  0  0  0
  -50.1929  -29.7873    6.6492 N   0  0  0  0  0  0  0  0  0  0  0  0
  -56.6328  -29.2439    9.0001 O   0  0  0  0  0  0  0  0  0  0  0  0
  -50.3242  -30.1159    4.4057 O   0  0  0  0  0  0  0  0  0  0  0  0
  -57.2918  -26.4122   13.4760 O   0  0  0  0  0  0  0  0  0  0  0  0
  -44.5775  -29.3702    5.0451 S   0  0  0  0  0  0  0  0  0  0  0  0
  -53.6832  -24.9775   11.1350 H   0  0  0  0  0  0  0  0  0  0  0  0
  -53.8240  -26.8828    9.5551 H   0  0  0  0  0  0  0  0  0  0  0  0
  -55.3328  -24.7653   12.9774 H   0  0  0  0  0  0  0  0  0  0  0  0
  -47.0348  -29.4543    7.5646 H   0  0  0  0  0  0  0  0  0  0  0  0
  -46.3251  -29.1870    3.2494 H   0  0  0  0  0  0  0  0  0  0  0  0
  -54.7919  -29.0970    6.6144 H   0  0  0  0  0  0  0  0  0  0  0  0
  -54.1630  -30.6596    5.9904 H   0  0  0  0  0  0  0  0  0  0  0  0
  -53.1505  -32.3778    7.9135 H   0  0  0  0  0  0  0  0  0  0  0  0
  -53.2086  -31.7587    9.5987 H   0  0  0  0  0  0  0  0  0  0  0  0
  -52.5076  -28.8814    5.5908 H   0  0  0  0  0  0  0  0  0  0  0  0
  -52.5274  -28.4316    7.3298 H   0  0  0  0  0  0  0  0  0  0  0  0
  -51.5938  -29.9811    9.0447 H   0  0  0  0  0  0  0  0  0  0  0  0
  -50.9185  -31.5742    8.5623 H   0  0  0  0  0  0  0  0  0  0  0  0
  -55.1797  -31.1112    8.1223 H   0  0  0  0  0  0  0  0  0  0  0  0
  -51.7251  -31.1784    6.2288 H   0  0  0  0  0  0  0  0  0  0  0  0
  -57.2053  -29.5167   12.4245 H   0  0  0  0  0  0  0  0  0  0  0  0
  -58.4690  -28.2559   12.2247 H   0  0  0  0  0  0  0  0  0  0  0  0
  -57.8628  -29.1548   10.7926 H   0  0  0  0  0  0  0  0  0  0  0  0
  -48.6642  -27.8147    5.6468 H   0  0  0  0  0  0  0  0  0  0  0  0
  -48.5708  -28.4631    3.9742 H   0  0  0  0  0  0  0  0  0  0  0  0
  -53.5427  -29.1654    9.6324 H   0  0  0  0  0  0  0  0  0  0  0  0
  -49.6357  -29.4855    7.4228 H   0  0  0  0  0  0  0  0  0  0  0  0
  -57.9178  -27.1266   13.4622 H   0  0  0  0  0  0  0  0  0  0  0  0
  1  2  2  0  0  0  0
  1  3  1  0  0  0  0
  2  6  1  0  0  0  0
  3  9  2  0  0  0  0
  4  7  1  0  0  0  0
  4 20  2  0  0  0  0
  5  7  2  0  0  0  0
  5 26  1  0  0  0  0
  6  8  2  0  0  0  0
  6 10  1  0  0  0  0
  7 19  1  0  0  0  0
  8  9  1  0  0  0  0
  8 18  1  0  0  0  0
  9 25  1  0  0  0  0
 10 21  1  0  0  0  0
 10 23  2  0  0  0  0
 11 19  1  0  0  0  0
 11 22  1  0  0  0  0
 11 24  2  0  0  0  0
 12 14  1  0  0  0  0
 12 16  1  0  0  0  0
 13 15  1  0  0  0  0
 13 16  1  0  0  0  0
 14 17  1  0  0  0  0
 15 17  1  0  0  0  0
 16 21  1  0  0  0  0
 17 22  1  0  0  0  0
 20 26  1  0  0  0  0
  1 27  1  0  0  0  0
  2 28  1  0  0  0  0
  3 29  1  0  0  0  0
  4 30  1  0  0  0  0
  5 31  1  0  0  0  0
 12 32  1  0  0  0  0
 12 33  1  0  0  0  0
 13 34  1  0  0  0  0
 13 35  1  0  0  0  0
 14 36  1  0  0  0  0
 14 37  1  0  0  0  0
 15 38  1  0  0  0  0
 15 39  1  0  0  0  0
 16 40  1  0  0  0  0
 17 41  1  0  0  0  0
 18 42  1  0  0  0  0
 18 43  1  0  0  0  0
 18 44  1  0  0  0  0
 19 45  1  0  0  0  0
 19 46  1  0  0  0  0
 21 47  1  0  0  0  0
 22 48  1  0  0  0  0
 25 49  1  0  0  0  0
M  END
> <POSIT::Probability>
0.9

> <POSIT::Method>
SHAPEFIT

> <ReceptorTitle>
UCSF-P4578-REFINED_LIGAND-BOUND-STATE_A__DU__LA1_A-201(A)

> <OMEGA_C>
HdpZwli6zcFI/DNBMi5awvZb1sEaqyVB2pRdwmfIzME5rURB8NU5wsAI68HN7dRAyoQ4wivi6cFE
74lAIkBewrMj3sHM0ydB61A8wqmZ6cE/2alAc/5hwoVR3cHQ+jhBWqVhwp161MFGMEdBZlRewuga
58HwaBhBGa9GwkSE7cHcSatAniZYwgcT78HqVthAk15UwnnQ+8F2qwhB24hSwh8X6sGnsdNAgsxO
wqyh9sFqoQVBPv9Ywqwz9MFEcAJBMzROwkGe8sGq6dxAL1dmwm/H5cHpPTxBNAZCwhbC5cE3V6FA
HpA0wr1/68H/CtRAG35ZwuDN68HethJBe8VIwnlM7sEJxtRA/Ydiwm/z6cF+ABBBCExJwlLt8MFO
+4xA0yplwitM08GYnVdBaE8ywjT26sE3caFApLtWwurRx8EmKTJBy0tXwgcQ18Gp4RhB1lRdwlsf
xsFno09BliM8wmyi68FuEfJA3Ew5wu1+6cHl9U9A3ipbwpPG6MF+qdNA8KZYwtdG9cFysb9AHppU
wtmCAcJiO/1AotVUwtsR/sFzlBlBywdSwiMN58Ed6LJAEhxSwttz48GEjepACGBOwlvZ78ExtxBB
iKxLwvyX/MEg/whB/rdcwtPj+MHm9AFBfeZOwlxt+cE5UsdAQtJkwkMi7MGiykZBO+BpwhgM4sF2
mENBgHNnwiE96cFLrixBHqhCwpeE3sGvsrRAdEhCwm6048GZWX5AtitWwrNS6cFLHhpB9opGwkbi
68Fyh+1A3KtnwlUD2cERZVdB

> <OMEGA_E>
wOjNPg==

> <OMEGA_NBR>
     95164

$$$$
CACHE3HI_1702_11
  -OEChem-03092622533D

 52 55  0     1  0  0  0  0  0999 V2000
  -54.4225  -25.6748   10.9700 C   0  0  0  0  0  0  0  0  0  0  0  0
  -54.5088  -26.8002   10.1338 C   0  0  0  0  0  0  0  0  0  0  0  0
  -55.2991  -25.5440   12.0611 C   0  0  0  0  0  0  0  0  0  0  0  0
  -44.1690  -29.2065    6.1689 C   0  0  0  0  0  0  0  0  0  0  0  0
  -44.4596  -29.1533    4.8244 C   0  0  0  0  0  0  0  0  0  0  0  0
  -55.4873  -27.7914   10.3712 C   0  0  0  0  0  0  0  0  0  0  0  0
  -56.3631  -27.6763   11.4856 C   0  0  0  0  0  0  0  0  0  0  0  0
  -56.2618  -26.5387   12.3245 C   0  0  0  0  0  0  0  0  0  0  0  0
  -46.3824  -29.3175    6.0482 C   0  0  0  0  0  0  0  0  0  0  0  0
  -47.9592  -29.3268    3.7787 C   0  0  0  0  0  0  0  0  0  0  0  0
  -46.5967  -29.2028    3.6421 C   0  0  0  0  0  0  0  0  0  0  0  0
  -48.5367  -29.4608    5.1440 C   0  0  0  0  0  0  0  0  0  0  0  0
  -55.5380  -28.9535    9.4768 C   0  0  0  0  0  0  0  0  0  0  0  0
  -49.9703  -29.6926    5.3171 C   0  0  0  0  0  0  0  0  0  0  0  0
  -54.2140  -30.1807    6.8408 C   0  0  0  0  0  0  0  0  0  0  0  0
  -53.0859  -31.6391    8.6336 C   0  0  0  0  0  0  0  0  0  0  0  0
  -52.8793  -29.4669    6.6050 C   0  0  0  0  0  0  0  0  0  0  0  0
  -51.7563  -30.9285    8.3409 C   0  0  0  0  0  0  0  0  0  0  0  0
  -54.2972  -30.7519    8.2754 C   0  0  1  0  0  0  0  0  0  0  0  0
  -51.7394  -30.4636    6.8780 C   0  0  2  0  0  0  0  0  0  0  0  0
  -57.4025  -28.7594   11.7819 C   0  0  0  0  0  0  0  0  0  0  0  0
  -45.3769  -29.3104    6.8944 N   0  0  0  0  0  0  0  0  0  0  0  0
  -47.7596  -29.4450    6.2155 N   0  0  0  0  0  0  0  0  0  0  0  0
  -45.8204  -29.2150    4.7980 N   0  0  0  0  0  0  0  0  0  0  0  0
  -54.3666  -29.6460    9.2279 N   0  0  0  0  0  0  0  0  0  0  0  0
  -50.4513  -29.8664    6.6034 N   0  0  0  0  0  0  0  0  0  0  0  0
  -56.5913  -29.2793    8.9382 O   0  0  0  0  0  0  0  0  0  0  0  0
  -50.6980  -29.8426    4.3402 O   0  0  0  0  0  0  0  0  0  0  0  0
  -57.0746  -26.3934   13.4052 O   0  0  0  0  0  0  0  0  0  0  0  0
  -53.6839  -24.9114   10.7749 H   0  0  0  0  0  0  0  0  0  0  0  0
  -53.8241  -26.9083    9.3056 H   0  0  0  0  0  0  0  0  0  0  0  0
  -55.2343  -24.6764   12.7010 H   0  0  0  0  0  0  0  0  0  0  0  0
  -43.1789  -29.1742    6.5991 H   0  0  0  0  0  0  0  0  0  0  0  0
  -43.7750  -29.0803    3.9923 H   0  0  0  0  0  0  0  0  0  0  0  0
  -48.6001  -29.3269    2.9094 H   0  0  0  0  0  0  0  0  0  0  0  0
  -46.1423  -29.0991    2.6678 H   0  0  0  0  0  0  0  0  0  0  0  0
  -55.0353  -29.4641    6.6918 H   0  0  0  0  0  0  0  0  0  0  0  0
  -54.3120  -31.0057    6.1199 H   0  0  0  0  0  0  0  0  0  0  0  0
  -53.1338  -32.5644    8.0408 H   0  0  0  0  0  0  0  0  0  0  0  0
  -53.1296  -31.8869    9.7044 H   0  0  0  0  0  0  0  0  0  0  0  0
  -52.8246  -29.1163    5.5638 H   0  0  0  0  0  0  0  0  0  0  0  0
  -52.7923  -28.6077    7.2862 H   0  0  0  0  0  0  0  0  0  0  0  0
  -51.6516  -30.0573    9.0043 H   0  0  0  0  0  0  0  0  0  0  0  0
  -50.9221  -31.6241    8.5148 H   0  0  0  0  0  0  0  0  0  0  0  0
  -55.2095  -31.3615    8.3536 H   0  0  0  0  0  0  0  0  0  0  0  0
  -51.8844  -31.3422    6.2321 H   0  0  0  0  0  0  0  0  0  0  0  0
  -56.9631  -29.5182   12.4460 H   0  0  0  0  0  0  0  0  0  0  0  0
  -58.2760  -28.3048   12.2721 H   0  0  0  0  0  0  0  0  0  0  0  0
  -57.7161  -29.2338   10.8403 H   0  0  0  0  0  0  0  0  0  0  0  0
  -53.5366  -29.3798    9.7180 H   0  0  0  0  0  0  0  0  0  0  0  0
  -49.8863  -29.5675    7.3724 H   0  0  0  0  0  0  0  0  0  0  0  0
  -57.6682  -27.1333   13.4574 H   0  0  0  0  0  0  0  0  0  0  0  0
  1  2  2  0  0  0  0
  1  3  1  0  0  0  0
  2  6  1  0  0  0  0
  3  8  2  0  0  0  0
  4  5  2  0  0  0  0
  4 22  1  0  0  0  0
  5 24  1  0  0  0  0
  6  7  2  0  0  0  0
  6 13  1  0  0  0  0
  7  8  1  0  0  0  0
  7 21  1  0  0  0  0
  8 29  1  0  0  0  0
  9 22  2  0  0  0  0
  9 23  1  0  0  0  0
  9 24  1  0  0  0  0
 10 11  2  0  0  0  0
 10 12  1  0  0  0  0
 11 24  1  0  0  0  0
 12 14  1  0  0  0  0
 12 23  2  0  0  0  0
 13 25  1  0  0  0  0
 13 27  2  0  0  0  0
 14 26  1  0  0  0  0
 14 28  2  0  0  0  0
 15 17  1  0  0  0  0
 15 19  1  0  0  0  0
 16 18  1  0  0  0  0
 16 19  1  0  0  0  0
 17 20  1  0  0  0  0
 18 20  1  0  0  0  0
 19 25  1  0  0  0  0
 20 26  1  0  0  0  0
  1 30  1  0  0  0  0
  2 31  1  0  0  0  0
  3 32  1  0  0  0  0
  4 33  1  0  0  0  0
  5 34  1  0  0  0  0
 10 35  1  0  0  0  0
 11 36  1  0  0  0  0
 15 37  1  0  0  0  0
 15 38  1  0  0  0  0
 16 39  1  0  0  0  0
 16 40  1  0  0  0  0
 17 41  1  0  0  0  0
 17 42  1  0  0  0  0
 18 43  1  0  0  0  0
 18 44  1  0  0  0  0
 19 45  1  0  0  0  0
 20 46  1  0  0  0  0
 21 47  1  0  0  0  0
 21 48  1  0  0  0  0
 21 49  1  0  0  0  0
 25 50  1  0  0  0  0
 26 51  1  0  0  0  0
 29 52  1  0  0  0  0
M  END
> <POSIT::Probability>
0.99

> <POSIT::Method>
SHAPEFIT

> <ReceptorTitle>
UCSF-P4578-REFINED_LIGAND-BOUND-STATE_A__DU__LA1_A-201(A)

> <OMEGA_C>
n7BZwhBmzcH2hC9BAglawtFm1sH/IyJBRDJdwiBazMFG+kBBEa0wwvym6cHHZ8VAoNYxwuM56cFq
YZpA/PJdwr5U3sFs8CVBxnNhwgFp3cH/xDdBGAxhwkVP1MEoMUVBmoc5wjeK6sHdisFAONY/wjed
6sEB13FAAWM6wkqf6cGMGGlAoCVCwtKv68ELnKRA7CZewteg58HUoBdBouFHwmGK7cFuJapALNtY
wvpx8cHX59pA8FdUwscc/cFUIwpBb4RTwjq868H8W9NAaQZPwptt98FpdAVBTDBZwukD9sH+ZwRB
K/VOwoy188ExGNxALpxlwisT5sGEgjxB9YE1wqd76sGWntxAzgk/wkqP68FI5cZAHEg3wke46cFq
iZlAb3dZwvQq7cFXpRNBLs5Jwmfu7sEfT9NAel1iwug76sHTAg9Bt8pKwrm97sHv4opAYUxkwrIl
08HXe1ZBULxWwoZKx8EDZixB2ktXwjZE18HQ4xRB+O9cwkVpxcFMN0tBObcswspk6cEtLNNAkRkv
wmGk6MEKgn9AdmZCwmyd6sFHNDpAwZE4wufK6MH9vSpAGyRcwo6268FgI9ZAcT9ZwqcL+MES1sNA
BIlUwvRBAsI0pwBBu4RUwmMY/8FnRRtBa0xTwkDu6MFyCrJAVStTwnnc5MHWKOlAPptOwmx18MGp
ERBBNLBLwjz+/MHKPAhBgNZcwlDk+sFeqAVBnolPwsK8+sH8bMdANdpjwiwl7MEEI0dBqBppwihw
4sF3WkRBTN1mws3e6cHMcS1BeSVWwtcJ68HAfBtBmotHwi6K7MHt6utAOaxmwvkQ2cFWUVdB

> <OMEGA_E>
AFAAPQ==

> <OMEGA_NBR>
     96731

$$$$
CACHE3HI_1702_12
  -OEChem-03092622533D

 46 48  0     0  0  0  0  0  0999 V2000
  -54.3870  -25.7647   11.1181 C   0  0  0  0  0  0  0  0  0  0  0  0
  -54.4970  -26.8761   10.2652 C   0  0  0  0  0  0  0  0  0  0  0  0
  -53.4598  -29.7739    6.8173 C   0  0  0  0  0  0  0  0  0  0  0  0
  -51.9018  -31.0136    8.2397 C   0  0  0  0  0  0  0  0  0  0  0  0
  -52.3901  -29.3210    6.0438 C   0  0  0  0  0  0  0  0  0  0  0  0
  -50.8274  -30.5757    7.4495 C   0  0  0  0  0  0  0  0  0  0  0  0
  -55.3089  -25.5908   12.1653 C   0  0  0  0  0  0  0  0  0  0  0  0
  -45.1389  -29.1539    4.6156 C   0  0  0  0  0  0  0  0  0  0  0  0
  -44.4802  -29.3332    6.7160 C   0  0  0  0  0  0  0  0  0  0  0  0
  -55.5419  -27.8090   10.4422 C   0  0  0  0  0  0  0  0  0  0  0  0
  -53.2183  -30.6461    7.8930 C   0  0  0  0  0  0  0  0  0  0  0  0
  -51.0796  -29.7372    6.3400 C   0  0  0  0  0  0  0  0  0  0  0  0
  -56.4630  -27.6535   11.5116 C   0  0  0  0  0  0  0  0  0  0  0  0
  -56.3396  -26.5301   12.3692 C   0  0  0  0  0  0  0  0  0  0  0  0
  -46.2403  -29.2480    5.4234 C   0  0  0  0  0  0  0  0  0  0  0  0
  -55.5850  -28.9860    9.5683 C   0  0  0  0  0  0  0  0  0  0  0  0
  -47.6204  -29.2626    4.9451 C   0  0  0  0  0  0  0  0  0  0  0  0
  -57.5675  -28.6869   11.7352 C   0  0  0  0  0  0  0  0  0  0  0  0
  -54.3523  -31.0286    8.7792 C   0  0  0  0  0  0  0  0  0  0  0  0
  -50.0350  -29.4537    5.3092 C   0  0  0  0  0  0  0  0  0  0  0  0
  -45.7929  -29.3529    6.7337 N   0  0  0  0  0  0  0  0  0  0  0  0
  -54.5414  -29.8890    9.6672 N   0  0  0  0  0  0  0  0  0  0  0  0
  -48.6758  -29.3943    5.8315 N   0  0  0  0  0  0  0  0  0  0  0  0
  -56.5482  -29.1880    8.8359 O   0  0  0  0  0  0  0  0  0  0  0  0
  -47.8337  -29.1920    3.7383 O   0  0  0  0  0  0  0  0  0  0  0  0
  -44.0597  -29.2109    5.4245 O   0  0  0  0  0  0  0  0  0  0  0  0
  -57.1947  -26.3447   13.4105 O   0  0  0  0  0  0  0  0  0  0  0  0
  -53.5955  -25.0451   10.9694 H   0  0  0  0  0  0  0  0  0  0  0  0
  -53.7790  -27.0173    9.4708 H   0  0  0  0  0  0  0  0  0  0  0  0
  -54.4668  -29.4562    6.5909 H   0  0  0  0  0  0  0  0  0  0  0  0
  -51.7210  -31.6288    9.1087 H   0  0  0  0  0  0  0  0  0  0  0  0
  -52.5688  -28.6499    5.2167 H   0  0  0  0  0  0  0  0  0  0  0  0
  -49.8177  -30.8766    7.6871 H   0  0  0  0  0  0  0  0  0  0  0  0
  -55.2269  -24.7332   12.8166 H   0  0  0  0  0  0  0  0  0  0  0  0
  -45.1343  -29.0535    3.5403 H   0  0  0  0  0  0  0  0  0  0  0  0
  -43.8387  -29.4026    7.5821 H   0  0  0  0  0  0  0  0  0  0  0  0
  -57.2015  -29.4756   12.4090 H   0  0  0  0  0  0  0  0  0  0  0  0
  -58.4426  -28.1963   12.1864 H   0  0  0  0  0  0  0  0  0  0  0  0
  -57.8535  -29.1322   10.7709 H   0  0  0  0  0  0  0  0  0  0  0  0
  -55.2609  -31.2113    8.1866 H   0  0  0  0  0  0  0  0  0  0  0  0
  -54.1036  -31.9312    9.3568 H   0  0  0  0  0  0  0  0  0  0  0  0
  -50.0772  -30.2475    4.5489 H   0  0  0  0  0  0  0  0  0  0  0  0
  -50.2667  -28.4854    4.8416 H   0  0  0  0  0  0  0  0  0  0  0  0
  -53.8720  -29.7503   10.3970 H   0  0  0  0  0  0  0  0  0  0  0  0
  -48.5079  -29.4479    6.8159 H   0  0  0  0  0  0  0  0  0  0  0  0
  -57.8326  -27.0484   13.4262 H   0  0  0  0  0  0  0  0  0  0  0  0
  1  2  1  0  0  0  0
  1  7  2  0  0  0  0
  2 10  2  0  0  0  0
  3  5  2  0  0  0  0
  3 11  1  0  0  0  0
  4  6  1  0  0  0  0
  4 11  2  0  0  0  0
  5 12  1  0  0  0  0
  6 12  2  0  0  0  0
  7 14  1  0  0  0  0
  8 15  2  0  0  0  0
  8 26  1  0  0  0  0
  9 21  2  0  0  0  0
  9 26  1  0  0  0  0
 10 13  1  0  0  0  0
 10 16  1  0  0  0  0
 11 19  1  0  0  0  0
 12 20  1  0  0  0  0
 13 14  2  0  0  0  0
 13 18  1  0  0  0  0
 14 27  1  0  0  0  0
 15 17  1  0  0  0  0
 15 21  1  0  0  0  0
 16 22  1  0  0  0  0
 16 24  2  0  0  0  0
 17 23  1  0  0  0  0
 17 25  2  0  0  0  0
 19 22  1  0  0  0  0
 20 23  1  0  0  0  0
  1 28  1  0  0  0  0
  2 29  1  0  0  0  0
  3 30  1  0  0  0  0
  4 31  1  0  0  0  0
  5 32  1  0  0  0  0
  6 33  1  0  0  0  0
  7 34  1  0  0  0  0
  8 35  1  0  0  0  0
  9 36  1  0  0  0  0
 18 37  1  0  0  0  0
 18 38  1  0  0  0  0
 18 39  1  0  0  0  0
 19 40  1  0  0  0  0
 19 41  1  0  0  0  0
 20 42  1  0  0  0  0
 20 43  1  0  0  0  0
 22 44  1  0  0  0  0
 23 45  1  0  0  0  0
 27 46  1  0  0  0  0
M  END
> <POSIT::Probability>
0.72

> <POSIT::Method>
SHAPEFIT

> <ReceptorTitle>
UCSF-P4578-REFINED_LIGAND-BOUND-STATE_A__DU__LA1_A-201(A)

> <OMEGA_C>
VYxZwgMezsHQ4zFB6PxZwloC18EQPiRBydZVwuEw7sFEJ9pAb5tPwsMb+MHG1QNBb49RwlWR6sEl
Z8FAO09Lwvea9MF/Yu5AXDxdwvK5zMH8pEJBMY40whY76cH2spNAu+sxwn2q6sFV6dZA2ypewsp4
3sEXEydBfd9Uwjcr9cFzk/xAglFMwsfl7cFl4cpAFNphwnM63cFmLzhBvlthwpI91MFk6EVBCfY4
wvf76cEzjK1AEldewknj58GsFxlBSXs+wuQZ6sGiPp5AIUVmwtF+5cFVwztByGhZwqo6+MF6dwxB
1SNIwiah68EK5alA6is3wqbS6sFDetdAaCpawsUc78G2rBpBDLRCwpQn68Hjm7pAUTFiwveA6cHa
Xw1BvFU/wlCJ6cH2QG9AHD0wwt+v6cGYla1AV8dkwuvB0sGSkVZB0WFWwlNcyMHGgi9Bux1Xwocj
2MFWiBdBDd5ZwmKm68FG6NJAV+JOwrYH/cFlvRFBaUZSwggz5cEs76ZAV0VHwjcD98HK/PVAU+hc
wpjdxcG7EE1BjIk0wnpt6MH6k2JA31ovwps468FVoPJAVs5kwhrO68EZi0ZBLMVpwg+S4cGX+0JB
AGpnws0O6cGAVSxBHgtdwtKw+cEe/AJBImpYwgpz/8FCtRVBGE9IwuH68cGQkJFAExFJwgfi48E1
7ppA+nxXwpkA7sE4WiZBFAhCwlmV68GZG9pAm1RnwjZj2MGP0VZB

> <OMEGA_E>
IKIkPw==

> <OMEGA_NBR>
     98167

$$$$
CACHE3HI_1702_15
  -OEChem-03092622533D

 46 48  0     1  0  0  0  0  0999 V2000
  -42.5040  -28.2752    1.6486 C   0  0  0  0  0  0  0  0  0  0  0  0
  -43.5898  -27.6421    1.0435 C   0  0  0  0  0  0  0  0  0  0  0  0
  -43.9192  -30.1456    2.2285 C   0  0  0  0  0  0  0  0  0  0  0  0
  -49.6008  -30.1842    6.2284 C   0  0  0  0  0  0  0  0  0  0  0  0
  -50.5584  -31.0314    3.8844 C   0  0  0  0  0  0  0  0  0  0  0  0
  -45.0049  -29.5126    1.6235 C   0  0  0  0  0  0  0  0  0  0  0  0
  -42.6689  -29.5270    2.2412 C   0  0  0  0  0  0  0  0  0  0  0  0
  -44.8400  -28.2607    1.0308 C   0  0  0  0  0  0  0  0  0  0  0  0
  -50.8674  -30.7176    6.1288 C   0  0  0  0  0  0  0  0  0  0  0  0
  -49.2920  -30.4979    3.9842 C   0  0  0  0  0  0  0  0  0  0  0  0
  -51.7284  -30.8430    7.2894 C   0  0  0  0  0  0  0  0  0  0  0  0
  -47.1574  -29.8499    2.8834 C   0  0  0  0  0  0  0  0  0  0  0  0
  -48.4025  -29.6122    0.5159 C   0  0  0  0  0  0  0  0  0  0  0  0
  -46.3532  -30.2043    1.6224 C   0  0  1  0  0  0  0  0  0  0  0  0
  -49.1219  -30.5548    1.4885 C   0  0  1  0  0  0  0  0  0  0  0  0
  -41.5082  -30.2040    2.8882 C   0  0  0  0  0  0  0  0  0  0  0  0
  -45.9871  -27.5631    0.3768 C   0  0  0  0  0  0  0  0  0  0  0  0
  -49.0553  -32.0087    1.0121 C   0  0  0  0  0  0  0  0  0  0  0  0
  -51.3688  -31.1509    4.9546 N   0  0  0  0  0  0  0  0  0  0  0  0
  -48.7905  -30.0645    5.1583 N   0  0  0  0  0  0  0  0  0  0  0  0
  -48.5144  -30.4122    2.8236 N   0  0  3  0  0  0  0  0  0  0  0  0
  -51.2347  -30.4054    8.5168 N   0  0  0  0  0  0  0  0  0  0  0  0
  -52.8800  -31.3090    7.1998 O   0  0  0  0  0  0  0  0  0  0  0  0
  -47.0147  -29.8980    0.3924 O   0  0  0  0  0  0  0  0  0  0  0  0
  -41.5337  -27.7857    1.6535 H   0  0  0  0  0  0  0  0  0  0  0  0
  -43.4513  -26.6668    0.5844 H   0  0  0  0  0  0  0  0  0  0  0  0
  -44.0465  -31.1218    2.6908 H   0  0  0  0  0  0  0  0  0  0  0  0
  -49.1901  -29.8328    7.1679 H   0  0  0  0  0  0  0  0  0  0  0  0
  -50.9709  -31.3836    2.9457 H   0  0  0  0  0  0  0  0  0  0  0  0
  -46.6352  -30.2189    3.7756 H   0  0  0  0  0  0  0  0  0  0  0  0
  -47.2371  -28.7582    2.9824 H   0  0  0  0  0  0  0  0  0  0  0  0
  -48.8435  -29.6942   -0.4835 H   0  0  0  0  0  0  0  0  0  0  0  0
  -48.5211  -28.5663    0.8252 H   0  0  0  0  0  0  0  0  0  0  0  0
  -46.1445  -31.2920    1.6170 H   0  0  0  0  0  0  0  0  0  0  0  0
  -50.1740  -30.2554    1.5135 H   0  0  0  0  0  0  0  0  0  0  0  0
  -41.4296  -29.9341    3.9495 H   0  0  0  0  0  0  0  0  0  0  0  0
  -40.5617  -29.9111    2.4148 H   0  0  0  0  0  0  0  0  0  0  0  0
  -41.6114  -31.2936    2.8136 H   0  0  0  0  0  0  0  0  0  0  0  0
  -46.0599  -27.8286   -0.6853 H   0  0  0  0  0  0  0  0  0  0  0  0
  -45.8685  -26.4733    0.4264 H   0  0  0  0  0  0  0  0  0  0  0  0
  -46.9279  -27.8346    0.8698 H   0  0  0  0  0  0  0  0  0  0  0  0
  -48.0184  -32.3385    0.9761 H   0  0  0  0  0  0  0  0  0  0  0  0
  -49.4907  -32.0919    0.0178 H   0  0  0  0  0  0  0  0  0  0  0  0
  -49.6091  -32.6485    1.6983 H   0  0  0  0  0  0  0  0  0  0  0  0
  -50.3137  -29.9931    8.6181 H   0  0  0  0  0  0  0  0  0  0  0  0
  -51.7946  -30.4510    9.3616 H   0  0  0  0  0  0  0  0  0  0  0  0
  1  2  2  0  0  0  0
  1  7  1  0  0  0  0
  2  8  1  0  0  0  0
  3  6  1  0  0  0  0
  3  7  2  0  0  0  0
  4  9  2  0  0  0  0
  4 20  1  0  0  0  0
  5 10  1  0  0  0  0
  5 19  2  0  0  0  0
  6  8  2  0  0  0  0
  6 14  1  0  0  0  0
  7 16  1  0  0  0  0
  8 17  1  0  0  0  0
  9 11  1  0  0  0  0
  9 19  1  0  0  0  0
 10 20  2  0  0  0  0
 10 21  1  0  0  0  0
 11 22  1  0  0  0  0
 11 23  2  0  0  0  0
 12 14  1  0  0  0  0
 12 21  1  0  0  0  0
 13 15  1  0  0  0  0
 13 24  1  0  0  0  0
 14 24  1  0  0  0  0
 15 18  1  0  0  0  0
 15 21  1  0  0  0  0
  1 25  1  0  0  0  0
  2 26  1  0  0  0  0
  3 27  1  0  0  0  0
  4 28  1  0  0  0  0
  5 29  1  0  0  0  0
 12 30  1  0  0  0  0
 12 31  1  0  0  0  0
 13 32  1  0  0  0  0
 13 33  1  0  0  0  0
 14 34  1  0  0  0  0
 15 35  1  0  0  0  0
 16 36  1  0  0  0  0
 16 37  1  0  0  0  0
 16 38  1  0  0  0  0
 17 39  1  0  0  0  0
 17 40  1  0  0  0  0
 17 41  1  0  0  0  0
 18 42  1  0  0  0  0
 18 43  1  0  0  0  0
 18 44  1  0  0  0  0
 22 45  1  0  0  0  0
 22 46  1  0  0  0  0
M  END
> <POSIT::Probability>
0.02

> <POSIT::Method>
FRED

> <ReceptorTitle>
UCSF-P4578-REFINED_LIGAND-BOUND-STATE_A__DU__LA1_A-201(A)

> <OMEGA_C>
GgQqwqIz4sEyBNM/6Fsuwhgj3cEqkoU/P60vwkMq8cHHnw5AMmdGwk558cFYT8dAwTtKwkBA+MGe
mnhACQU0wtQZ7MGEzs8/+qwqwlg37MHDbw9ALVwzwgMW4sE28oM/MHhLwqy99cGJH8RA9ypFwsr7
88Gn/H5A5ulOwmG+9sGPQulAMKE8wpbM7sFJijhAJpxBwt3l7MHoEwQ/t2k5wlGi8cGUqc8/1XxE
wk5w9MGAiL4/aAgmwseh8cHZ1zhA0/I3wiqB3MEI7MA+mThEwuQIAML0jYE/qnlNwhk1+cFMjJ5A
gSlDwiaE8MEPEaVAwA5CwiJM88FPtjRATvBMwlg+88G2RAhBIIVTwtZ4+sGiZOZADw88whgv78Eg
5Mg+iyImwjBJ3sFapdM/Lc4twopV1cH0nBU/lC8wwm75+MEqNixAncJEwpup7sEvX+VAP+JLwrQR
+8ElhzxAcoo6wlHA8cEfpHFAvvI8wt4Q5sGZ3z5Aul9DwreN7cHAjfe+nhVCwt+H5MHwQVM/ApQ4
wg5W+sEW+s4/JbJIwhcL8sF2usE/9Lclwv5478F1xHxAKT8iwthJ78GEjBpADHImwkJZ+sGNETRA
Uz04wvGg3sG8bC+/VHk3wlTJ08GgSto+K7Y7wlyt3sGgqV4/0BJAwp5aAcLk3nk/hvZFwiZeAMIA
zJE8wW9GwhuYAsI0Ytk/QkFJwtLx78Hp4wlBoy1Pwr6b88EzyRVB

> <OMEGA_E>
HHHwwA==

> <OMEGA_NBR>
     99587

$$$$
CACHE3HI_1702_34
  -OEChem-03092622533D

 40 42  0     0  0  0  0  0  0999 V2000
  -49.9202  -31.6609    1.5796 C   0  0  0  0  0  0  0  0  0  0  0  0
  -44.3314  -25.8868    0.3061 C   0  0  0  0  0  0  0  0  0  0  0  0
  -50.5965  -31.5101    2.7902 C   0  0  0  0  0  0  0  0  0  0  0  0
  -45.4974  -26.6521    0.2863 C   0  0  0  0  0  0  0  0  0  0  0  0
  -48.7907  -30.8877    1.3114 C   0  0  0  0  0  0  0  0  0  0  0  0
  -43.1507  -26.4289    0.8137 C   0  0  0  0  0  0  0  0  0  0  0  0
  -49.0139  -29.8134    3.4642 C   0  0  0  0  0  0  0  0  0  0  0  0
  -50.1434  -30.5867    3.7325 C   0  0  0  0  0  0  0  0  0  0  0  0
  -45.4829  -27.9591    0.7736 C   0  0  0  0  0  0  0  0  0  0  0  0
  -44.3022  -28.5011    1.2813 C   0  0  0  0  0  0  0  0  0  0  0  0
  -48.3376  -29.9642    2.2537 C   0  0  0  0  0  0  0  0  0  0  0  0
  -43.1362  -27.7359    1.3011 C   0  0  0  0  0  0  0  0  0  0  0  0
  -52.2771  -30.6563    5.1547 C   0  0  0  0  0  0  0  0  0  0  0  0
  -52.8909  -30.5021    6.3356 C   0  0  0  0  0  0  0  0  0  0  0  0
  -50.1448  -30.0620    6.0800 C   0  0  0  0  0  0  0  0  0  0  0  0
  -50.8485  -30.4315    4.9951 C   0  0  0  0  0  0  0  0  0  0  0  0
  -52.0984  -30.0904    7.5275 C   0  0  0  0  0  0  0  0  0  0  0  0
  -46.7414  -28.7496    0.7387 C   0  0  0  0  0  0  0  0  0  0  0  0
  -44.2771  -29.9019    1.8055 C   0  0  0  0  0  0  0  0  0  0  0  0
  -50.7468  -29.8957    7.3035 N   0  0  0  0  0  0  0  0  0  0  0  0
  -47.2078  -29.1910    1.9841 N   0  0  0  0  0  0  0  0  0  0  0  0
  -52.6456  -29.9452    8.6175 O   0  0  0  0  0  0  0  0  0  0  0  0
  -47.2500  -28.9666   -0.3560 O   0  0  0  0  0  0  0  0  0  0  0  0
  -41.9723  -28.2482    1.7911 O   0  0  0  0  0  0  0  0  0  0  0  0
  -50.2732  -32.3802    0.8462 H   0  0  0  0  0  0  0  0  0  0  0  0
  -44.3428  -24.8692   -0.0734 H   0  0  0  0  0  0  0  0  0  0  0  0
  -51.4755  -32.1203    2.9850 H   0  0  0  0  0  0  0  0  0  0  0  0
  -46.4114  -26.2189   -0.1124 H   0  0  0  0  0  0  0  0  0  0  0  0
  -48.2716  -31.0131    0.3645 H   0  0  0  0  0  0  0  0  0  0  0  0
  -42.2458  -25.8275    0.8257 H   0  0  0  0  0  0  0  0  0  0  0  0
  -48.6571  -29.0922    4.1967 H   0  0  0  0  0  0  0  0  0  0  0  0
  -52.8479  -30.9563    4.2814 H   0  0  0  0  0  0  0  0  0  0  0  0
  -53.9546  -30.6690    6.4551 H   0  0  0  0  0  0  0  0  0  0  0  0
  -49.0775  -29.8718    6.0640 H   0  0  0  0  0  0  0  0  0  0  0  0
  -44.0279  -30.6158    1.0117 H   0  0  0  0  0  0  0  0  0  0  0  0
  -45.2573  -30.1915    2.2023 H   0  0  0  0  0  0  0  0  0  0  0  0
  -43.5338  -29.9924    2.6051 H   0  0  0  0  0  0  0  0  0  0  0  0
  -50.1574  -29.6139    8.0813 H   0  0  0  0  0  0  0  0  0  0  0  0
  -46.6495  -28.9110    2.7986 H   0  0  0  0  0  0  0  0  0  0  0  0
  -41.2771  -27.5698    1.7196 H   0  0  0  0  0  0  0  0  0  0  0  0
  1  3  1  0  0  0  0
  1  5  2  0  0  0  0
  2  4  1  0  0  0  0
  2  6  2  0  0  0  0
  3  8  2  0  0  0  0
  4  9  2  0  0  0  0
  5 11  1  0  0  0  0
  6 12  1  0  0  0  0
  7  8  1  0  0  0  0
  7 11  2  0  0  0  0
  8 16  1  0  0  0  0
  9 10  1  0  0  0  0
  9 18  1  0  0  0  0
 10 12  2  0  0  0  0
 10 19  1  0  0  0  0
 11 21  1  0  0  0  0
 12 24  1  0  0  0  0
 13 14  2  0  0  0  0
 13 16  1  0  0  0  0
 14 17  1  0  0  0  0
 15 16  2  0  0  0  0
 15 20  1  0  0  0  0
 17 20  1  0  0  0  0
 17 22  2  0  0  0  0
 18 21  1  0  0  0  0
 18 23  2  0  0  0  0
  1 25  1  0  0  0  0
  2 26  1  0  0  0  0
  3 27  1  0  0  0  0
  4 28  1  0  0  0  0
  5 29  1  0  0  0  0
  6 30  1  0  0  0  0
  7 31  1  0  0  0  0
 13 32  1  0  0  0  0
 14 33  1  0  0  0  0
 15 34  1  0  0  0  0
 19 35  1  0  0  0  0
 19 36  1  0  0  0  0
 19 37  1  0  0  0  0
 20 38  1  0  0  0  0
 21 39  1  0  0  0  0
 24 40  1  0  0  0  0
M  END
> <POSIT::Probability>
0.02

> <POSIT::Method>
FRED

> <ReceptorTitle>
UCSF-P4578-REFINED_LIGAND-BOUND-STATE_A__DU__LA1_A-201(A)

> <OMEGA_C>
Rq5Hwm5J/cHnLso/TlMxwj8Yz8F4t5w+1mJKwrEU/MH6kTJAX/01wmo31cFwkJI+sylDwvIZ98HS
2qc/UposwmZu08EgT1A/Ow5Ewu6B7sEFtl1A2ZJIwnax9MGi4G5Afe41wiis38G0DEY/cTUxwk4C
5MGUAKQ/uFlBwri278ETPBBAbYsswiTj3cHQiaY/vRtRwgJA9cED86RAU5BTwkgE9MHmvMpAUJRI
wuR+8MGQj8JA5GRLwsdz88GW159AwGRQwhy58MGk4fBAL/c6wij/5cHoHT0/uhsxwiY378F8Guc/
wvxKwm4q78EUtulAz9Q8wjSH6cFi9v0/DJVSwrqP78FE4QlB/v88wp6758EIQra+qOMnwmb84cH8
Q+U/uBdJwkeFAcLwoVg/C18xwhr0xsEgV5a98uZNwjJ7AMK/Cj9ATqU5wj7A0cFALua9IBZBwuMa
+MGgnbo+v/sowqiezsHgYFM/2aBCwuG86MGgS4ZARGRTwnim98F5AYlAf9FXwg5a9cFKkM5AWE9E
wmr57sFYDMJAiBwwwivt9MHNf4E/eAc1wkeI8cEg8wxAoiIuwmbw78HXuSZAKKFIwkjp7MEMTQFB
DZk6wslJ58GTHDNAuBslwt2O3MFuG9w/

> <OMEGA_E>
H+MYwQ==

> <OMEGA_NBR>
    100878

$$$$
CACHE3HI_1702_36
  -OEChem-03092622533D

 42 44  0     0  0  0  0  0  0999 V2000
  -57.2002  -27.0283   12.1717 C   0  0  0  0  0  0  0  0  0  0  0  0
  -51.4214  -31.2633    6.1176 C   0  0  0  0  0  0  0  0  0  0  0  0
  -50.8540  -29.5331    7.7058 C   0  0  0  0  0  0  0  0  0  0  0  0
  -57.0135  -28.0309   11.2200 C   0  0  0  0  0  0  0  0  0  0  0  0
  -52.6333  -31.4699    6.7766 C   0  0  0  0  0  0  0  0  0  0  0  0
  -52.0659  -29.7397    8.3648 C   0  0  0  0  0  0  0  0  0  0  0  0
  -56.2624  -26.0035   12.2974 C   0  0  0  0  0  0  0  0  0  0  0  0
  -50.5318  -30.2946    6.5823 C   0  0  0  0  0  0  0  0  0  0  0  0
  -55.8895  -28.0087   10.3941 C   0  0  0  0  0  0  0  0  0  0  0  0
  -52.9555  -30.7083    7.9001 C   0  0  0  0  0  0  0  0  0  0  0  0
  -54.9516  -26.9839   10.5199 C   0  0  0  0  0  0  0  0  0  0  0  0
  -55.1383  -25.9813   11.4715 C   0  0  0  0  0  0  0  0  0  0  0  0
  -49.2779  -30.0815    5.9020 C   0  0  0  0  0  0  0  0  0  0  0  0
  -47.8395  -29.9741    4.3931 C   0  0  0  0  0  0  0  0  0  0  0  0
  -55.7187  -29.0898    9.3904 C   0  0  0  0  0  0  0  0  0  0  0  0
  -53.7436  -26.9516    9.6382 C   0  0  0  0  0  0  0  0  0  0  0  0
  -47.1061  -30.0160    3.1310 C   0  0  0  0  0  0  0  0  0  0  0  0
  -54.2515  -30.9296    8.6043 C   0  0  0  0  0  0  0  0  0  0  0  0
  -49.1025  -30.2889    4.5635 N   0  0  0  0  0  0  0  0  0  0  0  0
  -47.2971  -29.5976    5.5819 N   0  0  0  0  0  0  0  0  0  0  0  0
  -48.2028  -29.6584    6.5698 N   0  0  0  0  0  0  0  0  0  0  0  0
  -54.5701  -29.8595    9.5146 N   0  0  0  0  0  0  0  0  0  0  0  0
  -56.5664  -29.2337    8.5135 O   0  0  0  0  0  0  0  0  0  0  0  0
  -54.2345  -24.9706   11.6083 O   0  0  0  0  0  0  0  0  0  0  0  0
  -58.0754  -27.0457   12.8147 H   0  0  0  0  0  0  0  0  0  0  0  0
  -51.1850  -31.8649    5.2432 H   0  0  0  0  0  0  0  0  0  0  0  0
  -50.1706  -28.7743    8.0801 H   0  0  0  0  0  0  0  0  0  0  0  0
  -57.7516  -28.8241   11.1310 H   0  0  0  0  0  0  0  0  0  0  0  0
  -53.3207  -32.2266    6.4075 H   0  0  0  0  0  0  0  0  0  0  0  0
  -52.3088  -29.1417    9.2392 H   0  0  0  0  0  0  0  0  0  0  0  0
  -56.4142  -25.2254   13.0404 H   0  0  0  0  0  0  0  0  0  0  0  0
  -53.9407  -26.3870    8.7194 H   0  0  0  0  0  0  0  0  0  0  0  0
  -53.4490  -27.9638    9.3367 H   0  0  0  0  0  0  0  0  0  0  0  0
  -52.9046  -26.4838   10.1646 H   0  0  0  0  0  0  0  0  0  0  0  0
  -47.1571  -29.0589    2.5720 H   0  0  0  0  0  0  0  0  0  0  0  0
  -47.4986  -30.7831    2.4316 H   0  0  0  0  0  0  0  0  0  0  0  0
  -46.0321  -30.2412    3.2848 H   0  0  0  0  0  0  0  0  0  0  0  0
  -55.0817  -31.0129    7.8895 H   0  0  0  0  0  0  0  0  0  0  0  0
  -54.2400  -31.8614    9.1864 H   0  0  0  0  0  0  0  0  0  0  0  0
  -47.9867  -29.4174    7.5334 H   0  0  0  0  0  0  0  0  0  0  0  0
  -53.8842  -29.6370   10.2312 H   0  0  0  0  0  0  0  0  0  0  0  0
  -54.5369  -24.3741   12.3165 H   0  0  0  0  0  0  0  0  0  0  0  0
  1  4  1  0  0  0  0
  1  7  2  0  0  0  0
  2  5  2  0  0  0  0
  2  8  1  0  0  0  0
  3  6  1  0  0  0  0
  3  8  2  0  0  0  0
  4  9  2  0  0  0  0
  5 10  1  0  0  0  0
  6 10  2  0  0  0  0
  7 12  1  0  0  0  0
  8 13  1  0  0  0  0
  9 11  1  0  0  0  0
  9 15  1  0  0  0  0
 10 18  1  0  0  0  0
 11 12  2  0  0  0  0
 11 16  1  0  0  0  0
 12 24  1  0  0  0  0
 13 19  2  0  0  0  0
 13 21  1  0  0  0  0
 14 17  1  0  0  0  0
 14 19  1  0  0  0  0
 14 20  2  0  0  0  0
 15 22  1  0  0  0  0
 15 23  2  0  0  0  0
 18 22  1  0  0  0  0
 20 21  1  0  0  0  0
  1 25  1  0  0  0  0
  2 26  1  0  0  0  0
  3 27  1  0  0  0  0
  4 28  1  0  0  0  0
  5 29  1  0  0  0  0
  6 30  1  0  0  0  0
  7 31  1  0  0  0  0
 16 32  1  0  0  0  0
 16 33  1  0  0  0  0
 16 34  1  0  0  0  0
 17 35  1  0  0  0  0
 17 36  1  0  0  0  0
 17 37  1  0  0  0  0
 18 38  1  0  0  0  0
 18 39  1  0  0  0  0
 21 40  1  0  0  0  0
 22 41  1  0  0  0  0
 24 42  1  0  0  0  0
M  END
> <POSIT::Probability>
0.33

> <POSIT::Method>
HYBRID

> <ReceptorTitle>
UCSF-P4578-REFINED_LIGAND-BOUND-STATE_A__DU__LA1_A-201(A)

> <OMEGA_C>
+sxkwvA52MEgv0JBgq9NwiQb+sGow8NAgmpLwspD7MGvlfZAzg1kwk8/4ME9hTNBgohSwkXC+8FE
2thAckNQwtnq7cEj1gVBqAxhwjgH0MELwkRBliBKwnBb8sEBotJA0o5fws0R4MFZTiZBbtJTwqGq
9cHxzfxAec5bwvre18FgUShBq41cwrTZz8EoizdBmRxFwvOm8MHz3LxAr1s/wvnK78GBlIxA/N9e
wtG36MEpPxZBePlWwvWc18EFNhpBrmw8wtkg8MGAYUhAggFZws1v98FqqwlB6WhEwp5P8sEzCJJA
QzA9wvfH7MFPn7JArc9AwlhE7cHdO9JAx0dawlPg7sGnOxhBA0RiwrTe6cEsNwhBIfBYwtTDx8Gg
uzlBMk1owqJd2MHlCE1Bcb1Mwljr/sHjx6dAr65IwrIx5sEASAFBpwFnws+X5sGUGDJBX0hVwgLo
AMIZCs1AKTxRwici6cG50xNBK6hhwprNycF2pVBBU8NXwpUY08G7ggtBzctVwt+138HxYhVBR55T
wuTe08EzoiJB2aA8wql46MHQmyRAkf49wsBD9sH4nxtA0yA4wgju8cH2OVJAp1NcwnEa+MGpdvxA
ufVYwjTk/sGQ+xJBbvI/wsRW68F1EfFAY4lXwqcY7cEosyNBvyVawjD+wsGMEEVB

> <OMEGA_E>
P2sKwQ==

> <OMEGA_NBR>
    102213

$$$$
CACHE3HI_1702_5
  -OEChem-03092622533D

 42 43  0     0  0  0  0  0  0999 V2000
  -45.8778  -30.8059    2.9637 C   0  0  0  0  0  0  0  0  0  0  0  0
  -46.1363  -29.0396    1.5910 C   0  0  0  0  0  0  0  0  0  0  0  0
  -46.8279  -30.0267    2.2583 C   0  0  0  0  0  0  0  0  0  0  0  0
  -44.6347  -30.2716    2.7058 C   0  0  0  0  0  0  0  0  0  0  0  0
  -48.2845  -30.1993    2.2155 C   0  0  0  0  0  0  0  0  0  0  0  0
  -51.9424  -29.7264    7.5136 C   0  0  0  0  0  0  0  0  0  0  0  0
  -50.9535  -30.0019    4.6743 C   0  0  0  0  0  0  0  0  0  0  0  0
  -48.7879  -29.0583    5.5745 C   0  0  0  0  0  0  0  0  0  0  0  0
  -50.5205  -29.5814    3.2709 C   0  0  0  0  0  0  0  0  0  0  0  0
  -48.3980  -28.6662    4.1499 C   0  0  0  0  0  0  0  0  0  0  0  0
  -50.3102  -29.1064    5.7377 C   0  0  0  0  0  0  0  0  0  0  0  0
  -52.0049  -30.2360    8.9283 C   0  0  0  0  0  0  0  0  0  0  0  0
  -43.7545  -28.3497    1.3507 C   0  0  0  0  0  0  0  0  0  0  0  0
  -44.8040  -29.1986    1.8705 N   0  0  0  0  0  0  0  0  0  0  0  0
  -49.0553  -29.5347    3.1730 N   0  0  0  0  0  0  0  0  0  0  0  0
  -42.9180  -29.8419    4.6998 N   0  0  0  0  0  0  0  0  0  0  0  0
  -50.6404  -29.5967    7.0585 N   0  0  0  0  0  0  0  0  0  0  0  0
  -48.7199  -30.9184    1.3177 O   0  0  0  0  0  0  0  0  0  0  0  0
  -52.9570  -29.4514    6.8775 O   0  0  0  0  0  0  0  0  0  0  0  0
  -42.0616  -30.2899    2.3105 O   0  0  0  0  0  0  0  0  0  0  0  0
  -43.1071  -32.1730    3.6176 O   0  0  0  0  0  0  0  0  0  0  0  0
  -43.0311  -30.7680    3.2740 S   0  0  0  0  0  0  0  0  0  0  0  0
  -46.0757  -31.6638    3.5919 H   0  0  0  0  0  0  0  0  0  0  0  0
  -46.4775  -28.2418    0.9442 H   0  0  0  0  0  0  0  0  0  0  0  0
  -52.0462  -29.9458    4.7463 H   0  0  0  0  0  0  0  0  0  0  0  0
  -50.6709  -31.0496    4.8394 H   0  0  0  0  0  0  0  0  0  0  0  0
  -48.3518  -30.0382    5.8085 H   0  0  0  0  0  0  0  0  0  0  0  0
  -48.3563  -28.3364    6.2779 H   0  0  0  0  0  0  0  0  0  0  0  0
  -50.9567  -30.2624    2.5361 H   0  0  0  0  0  0  0  0  0  0  0  0
  -50.8923  -28.5755    3.0421 H   0  0  0  0  0  0  0  0  0  0  0  0
  -48.7117  -27.6373    3.9367 H   0  0  0  0  0  0  0  0  0  0  0  0
  -47.3098  -28.7066    4.0396 H   0  0  0  0  0  0  0  0  0  0  0  0
  -50.7179  -28.1047    5.6712 H   0  0  0  0  0  0  0  0  0  0  0  0
  -51.9941  -29.3895    9.6213 H   0  0  0  0  0  0  0  0  0  0  0  0
  -52.9257  -30.8088    9.0737 H   0  0  0  0  0  0  0  0  0  0  0  0
  -51.1511  -30.8881    9.1357 H   0  0  0  0  0  0  0  0  0  0  0  0
  -43.5673  -27.5041    2.0211 H   0  0  0  0  0  0  0  0  0  0  0  0
  -44.0377  -27.9645    0.3663 H   0  0  0  0  0  0  0  0  0  0  0  0
  -42.8144  -28.9032    1.2576 H   0  0  0  0  0  0  0  0  0  0  0  0
  -42.9763  -30.3380    5.5969 H   0  0  0  0  0  0  0  0  0  0  0  0
  -42.2621  -29.0517    4.7044 H   0  0  0  0  0  0  0  0  0  0  0  0
  -49.8725  -29.8273    7.6833 H   0  0  0  0  0  0  0  0  0  0  0  0
  1  3  1  0  0  0  0
  1  4  2  0  0  0  0
  2  3  2  0  0  0  0
  2 14  1  0  0  0  0
  3  5  1  0  0  0  0
  4 14  1  0  0  0  0
  4 22  1  0  0  0  0
  5 15  1  0  0  0  0
  5 18  2  0  0  0  0
  6 12  1  0  0  0  0
  6 17  1  0  0  0  0
  6 19  2  0  0  0  0
  7  9  1  0  0  0  0
  7 11  1  0  0  0  0
  8 10  1  0  0  0  0
  8 11  1  0  0  0  0
  9 15  1  0  0  0  0
 10 15  1  0  0  0  0
 11 17  1  0  0  0  0
 13 14  1  0  0  0  0
 16 22  1  0  0  0  0
 20 22  2  0  0  0  0
 21 22  2  0  0  0  0
  1 23  1  0  0  0  0
  2 24  1  0  0  0  0
  7 25  1  0  0  0  0
  7 26  1  0  0  0  0
  8 27  1  0  0  0  0
  8 28  1  0  0  0  0
  9 29  1  0  0  0  0
  9 30  1  0  0  0  0
 10 31  1  0  0  0  0
 10 32  1  0  0  0  0
 11 33  1  0  0  0  0
 12 34  1  0  0  0  0
 12 35  1  0  0  0  0
 12 36  1  0  0  0  0
 13 37  1  0  0  0  0
 13 38  1  0  0  0  0
 13 39  1  0  0  0  0
 16 40  1  0  0  0  0
 16 41  1  0  0  0  0
 17 42  1  0  0  0  0
M  END
> <POSIT::Probability>
0.05

> <POSIT::Method>
FRED

> <ReceptorTitle>
UCSF-P4578-REFINED_LIGAND-BOUND-STATE_A__DU__LA1_A-201(A)

> <OMEGA_C>
2YI3woly9sGwrT1An4s4wiRR6MEApcs/yE87wsg28MF0hxBA5okywiYs8sGgKy1AVCNBwiyY8cGM
yw1A/MRPwqfP7cEhb/BAbdBLwuoD8MExlJVA3CZDwlB36MEIYrJA/hRKwsKm7ME4V1FAgpdBwklU
5cHcy4RAqD1JwtzZ6MF2m7dA+ARQwkTj8cF22g5BnwQvwjjM4sFg5aw/RzczwqeW6cHIbO8/ojhE
wgVH7MHoEktAAKwrwii87sGwZJZAyo9KwiTG7MFn3+FAKeFCwuJY98FIqag/7dNTwomc68GQFNxA
ET8owp5R8sHI3xNAsW0swjKxAMLUhmdA4h8swuUk9sEIiVFAhk04wn5P/cEQ4mVA9ug5wiDv4cH4
tnE/Vy9QwvKQ78HX4ZdADK9Kwppl+MFr3JpAR2hBwi5O8MFG37lA5WxBwu+w4sHt5MhArtNLwm4Z
8sHuTyJAxJFLwo6a5MEEsUJAythCwkgZ3cFq8ntAPz09wiyn5cEGRIFAId9KwlzW4MFzerVA7PlP
wqwd68HQ8BlB5bNTwmp49sG6LRFBvppMwsEa98EGLBJB7kQuwmwI3MF4WQFApyYwwkG338GAh7s+
8EErwsw558H896A/x+crwj608sEjGrNAXgwpwulp6MFgipZAfX1Hwjme7sGc3fVA

> <OMEGA_E>
VVsEwQ==

> <OMEGA_NBR>
    103538

$$$$
CACHE3HI_1702_62
  -OEChem-03092622533D

 41 43  0     0  0  0  0  0  0999 V2000
  -52.8502  -27.7618    9.5155 C   0  0  0  0  0  0  0  0  0  0  0  0
  -52.1186  -28.0471    8.3626 C   0  0  0  0  0  0  0  0  0  0  0  0
  -49.2376  -29.2227    4.4052 C   0  0  0  0  0  0  0  0  0  0  0  0
  -47.4413  -28.8796    5.9841 C   0  0  0  0  0  0  0  0  0  0  0  0
  -48.3116  -29.2709    3.3631 C   0  0  0  0  0  0  0  0  0  0  0  0
  -46.5153  -28.9277    4.9421 C   0  0  0  0  0  0  0  0  0  0  0  0
  -53.2077  -28.7910   10.3864 C   0  0  0  0  0  0  0  0  0  0  0  0
  -51.7444  -29.3611    8.0807 C   0  0  0  0  0  0  0  0  0  0  0  0
  -52.1020  -30.3903    8.9516 C   0  0  0  0  0  0  0  0  0  0  0  0
  -48.8023  -29.0272    5.7158 C   0  0  0  0  0  0  0  0  0  0  0  0
  -46.9506  -29.1232    3.6315 C   0  0  0  0  0  0  0  0  0  0  0  0
  -52.8335  -30.1050   10.1045 C   0  0  0  0  0  0  0  0  0  0  0  0
  -50.9805  -29.6279    6.8693 C   0  0  0  0  0  0  0  0  0  0  0  0
  -44.6957  -29.6103    2.6325 C   0  0  0  0  0  0  0  0  0  0  0  0
  -44.0194  -28.1764    0.6153 C   0  0  0  0  0  0  0  0  0  0  0  0
  -42.7571  -28.7363    1.1990 C   0  0  0  0  0  0  0  0  0  0  0  0
  -44.0269  -29.5016    1.2852 C   0  0  0  0  0  0  0  0  0  0  0  0
  -51.7046  -31.8021    8.6578 C   0  0  0  0  0  0  0  0  0  0  0  0
  -49.7424  -28.9793    6.7743 N   0  0  0  0  0  0  0  0  0  0  0  0
  -46.0250  -29.1708    2.5887 N   0  0  0  0  0  0  0  0  0  0  0  0
  -51.4645  -30.3751    6.0054 O   0  0  0  0  0  0  0  0  0  0  0  0
  -44.0859  -30.0484    3.6029 O   0  0  0  0  0  0  0  0  0  0  0  0
  -53.1906  -31.0963   10.9687 O   0  0  0  0  0  0  0  0  0  0  0  0
  -53.1415  -26.7387    9.7348 H   0  0  0  0  0  0  0  0  0  0  0  0
  -51.8453  -27.2364    7.6917 H   0  0  0  0  0  0  0  0  0  0  0  0
  -50.2956  -29.3403    4.1846 H   0  0  0  0  0  0  0  0  0  0  0  0
  -47.0907  -28.7253    7.0014 H   0  0  0  0  0  0  0  0  0  0  0  0
  -48.6620  -29.4242    2.3456 H   0  0  0  0  0  0  0  0  0  0  0  0
  -45.4572  -28.8117    5.1629 H   0  0  0  0  0  0  0  0  0  0  0  0
  -53.7771  -28.5617   11.2829 H   0  0  0  0  0  0  0  0  0  0  0  0
  -44.4634  -27.3185    1.1055 H   0  0  0  0  0  0  0  0  0  0  0  0
  -44.1207  -28.1777   -0.4631 H   0  0  0  0  0  0  0  0  0  0  0  0
  -42.0084  -29.1142    0.5134 H   0  0  0  0  0  0  0  0  0  0  0  0
  -42.3535  -28.2537    2.0808 H   0  0  0  0  0  0  0  0  0  0  0  0
  -44.1461  -30.3850    0.6962 H   0  0  0  0  0  0  0  0  0  0  0  0
  -50.7292  -32.0375    9.0995 H   0  0  0  0  0  0  0  0  0  0  0  0
  -51.6175  -31.9701    7.5778 H   0  0  0  0  0  0  0  0  0  0  0  0
  -52.4497  -32.4959    9.0620 H   0  0  0  0  0  0  0  0  0  0  0  0
  -49.4851  -28.3983    7.5689 H   0  0  0  0  0  0  0  0  0  0  0  0
  -46.3538  -28.8443    1.6730 H   0  0  0  0  0  0  0  0  0  0  0  0
  -53.6906  -30.7033   11.7065 H   0  0  0  0  0  0  0  0  0  0  0  0
  1  2  1  0  0  0  0
  1  7  2  0  0  0  0
  2  8  2  0  0  0  0
  3  5  2  0  0  0  0
  3 10  1  0  0  0  0
  4  6  1  0  0  0  0
  4 10  2  0  0  0  0
  5 11  1  0  0  0  0
  6 11  2  0  0  0  0
  7 12  1  0  0  0  0
  8  9  1  0  0  0  0
  8 13  1  0  0  0  0
  9 12  2  0  0  0  0
  9 18  1  0  0  0  0
 10 19  1  0  0  0  0
 11 20  1  0  0  0  0
 12 23  1  0  0  0  0
 13 19  1  0  0  0  0
 13 21  2  0  0  0  0
 14 17  1  0  0  0  0
 14 20  1  0  0  0  0
 14 22  2  0  0  0  0
 15 16  1  0  0  0  0
 15 17  1  0  0  0  0
 16 17  1  0  0  0  0
  1 24  1  0  0  0  0
  2 25  1  0  0  0  0
  3 26  1  0  0  0  0
  4 27  1  0  0  0  0
  5 28  1  0  0  0  0
  6 29  1  0  0  0  0
  7 30  1  0  0  0  0
 15 31  1  0  0  0  0
 15 32  1  0  0  0  0
 16 33  1  0  0  0  0
 16 34  1  0  0  0  0
 17 35  1  0  0  0  0
 18 36  1  0  0  0  0
 18 37  1  0  0  0  0
 18 38  1  0  0  0  0
 19 39  1  0  0  0  0
 20 40  1  0  0  0  0
 23 41  1  0  0  0  0
M  END
> <POSIT::Probability>
0.24

> <POSIT::Method>
FRED

> <ReceptorTitle>
UCSF-P4578-REFINED_LIGAND-BOUND-STATE_A__DU__LA1_A-201(A)

> <OMEGA_C>
lWZTwkEY3sFrPxhBe3lQwmxg4MEgzQVBT/NEwi7I6cEE94xA68M9wnIJ58EGfr9ADz9Bwroq6sES
PVdArA86wvtr58EOJp5Aq9RUwgNU5sGGLiZBSvpOwm/j6sGVSgFBZ2hQwj0f88HkOQ9BhzVDwsY3
6MGL57ZAcs07wmb86MEOamhAe1VTwgXX8MH8qyFBBuxLwtwF7cF30dtAYMgywvrh7MFIeihA1hMw
wlJp4cGQhh0/RAcrwv/j5cHQeZk/hRswwlED7MF4gaQ/fNFOwshq/sEohgpBQ/hGwo3V58Ftx9hA
lhk4wr1d6cE6rSVAqNtNwkwA88HpK8BA91cwwg5j8MHYlWZAKMNUwlPF+MG7fy9B5JBUwuXo1cHa
wRtBl2FPwjvk2cE5IvZAqS5JwvK46sFF6IVA2Fw8wmnN5cEXC+BA56VCwspk68FCHhZAMNQ1wmR+
5sHTNqVAxxtXwnJ+5MHKhjRBf9oxwmGM2sEIgI0/kHswwvNr4cGAIO2+nAgowtnp6MHwbwM/+2kp
wpwH4sGSLAVAkJUwwooU88FYOTI/vOpKwnImAMJflxFBSHhOwrTC/8HyfPJAh8xRwsX7AcIY/hBB
tvBFwq0v48FUNPJASGo5whXB5sFYJNY/JcNWwlWg9cHGTTtB

> <OMEGA_E>
svsLwQ==

> <OMEGA_NBR>
    104847

$$$$
CACHE3HI_1702_64
  -OEChem-03092622533D

 46 47  0     0  0  0  0  0  0999 V2000
  -52.8788  -27.3203   10.0435 C   0  0  0  0  0  0  0  0  0  0  0  0
  -52.2387  -27.6857    8.8593 C   0  0  0  0  0  0  0  0  0  0  0  0
  -49.6759  -29.1446    4.7792 C   0  0  0  0  0  0  0  0  0  0  0  0
  -47.7632  -28.7539    6.2029 C   0  0  0  0  0  0  0  0  0  0  0  0
  -48.8293  -29.2715    3.6779 C   0  0  0  0  0  0  0  0  0  0  0  0
  -46.9167  -28.8808    5.1015 C   0  0  0  0  0  0  0  0  0  0  0  0
  -53.1905  -28.2909   10.9954 C   0  0  0  0  0  0  0  0  0  0  0  0
  -51.9099  -29.0214    8.6272 C   0  0  0  0  0  0  0  0  0  0  0  0
  -52.2216  -29.9921    9.5791 C   0  0  0  0  0  0  0  0  0  0  0  0
  -49.1426  -28.8859    6.0418 C   0  0  0  0  0  0  0  0  0  0  0  0
  -47.4500  -29.1395    3.8389 C   0  0  0  0  0  0  0  0  0  0  0  0
  -52.8618  -29.6266   10.7633 C   0  0  0  0  0  0  0  0  0  0  0  0
  -51.2414  -29.3725    7.3814 C   0  0  0  0  0  0  0  0  0  0  0  0
  -45.2742  -29.7332    2.7011 C   0  0  0  0  0  0  0  0  0  0  0  0
  -51.8724  -31.4267    9.3390 C   0  0  0  0  0  0  0  0  0  0  0  0
  -40.7515  -30.8935    2.1560 C   0  0  0  0  0  0  0  0  0  0  0  0
  -43.4322  -30.1272    1.0520 C   0  0  0  0  0  0  0  0  0  0  0  0
  -42.4205  -29.2774    1.7988 C   0  0  0  0  0  0  0  0  0  0  0  0
  -50.0020  -28.7579    7.1607 N   0  0  0  0  0  0  0  0  0  0  0  0
  -46.6039  -29.2658    2.7368 N   0  0  0  0  0  0  0  0  0  0  0  0
  -44.7713  -29.7054    1.3963 N   0  0  0  0  0  0  0  0  0  0  0  0
  -51.8006  -30.1559    6.5987 O   0  0  0  0  0  0  0  0  0  0  0  0
  -44.6194  -30.1194    3.6662 O   0  0  0  0  0  0  0  0  0  0  0  0
  -53.1728  -30.5599   11.7063 O   0  0  0  0  0  0  0  0  0  0  0  0
  -41.1057  -29.7038    1.4648 O   0  0  0  0  0  0  0  0  0  0  0  0
  -53.1347  -26.2802   10.2242 H   0  0  0  0  0  0  0  0  0  0  0  0
  -52.0003  -26.9201    8.1252 H   0  0  0  0  0  0  0  0  0  0  0  0
  -50.7490  -29.2508    4.6423 H   0  0  0  0  0  0  0  0  0  0  0  0
  -47.3365  -28.5508    7.1817 H   0  0  0  0  0  0  0  0  0  0  0  0
  -49.2558  -29.4737    2.6986 H   0  0  0  0  0  0  0  0  0  0  0  0
  -45.8434  -28.7762    5.2388 H   0  0  0  0  0  0  0  0  0  0  0  0
  -53.6887  -27.9993   11.9159 H   0  0  0  0  0  0  0  0  0  0  0  0
  -50.8719  -31.6587    9.7223 H   0  0  0  0  0  0  0  0  0  0  0  0
  -51.8674  -31.6566    8.2669 H   0  0  0  0  0  0  0  0  0  0  0  0
  -52.5986  -32.0800    9.8348 H   0  0  0  0  0  0  0  0  0  0  0  0
  -39.7377  -31.1910    1.8758 H   0  0  0  0  0  0  0  0  0  0  0  0
  -40.7893  -30.7047    3.2315 H   0  0  0  0  0  0  0  0  0  0  0  0
  -41.4585  -31.6870    1.9029 H   0  0  0  0  0  0  0  0  0  0  0  0
  -43.3237  -31.1817    1.3234 H   0  0  0  0  0  0  0  0  0  0  0  0
  -43.3096  -30.0218   -0.0303 H   0  0  0  0  0  0  0  0  0  0  0  0
  -42.5208  -28.2163    1.5483 H   0  0  0  0  0  0  0  0  0  0  0  0
  -42.5516  -29.4019    2.8781 H   0  0  0  0  0  0  0  0  0  0  0  0
  -49.6768  -28.1393    7.9000 H   0  0  0  0  0  0  0  0  0  0  0  0
  -47.0012  -28.9815    1.8346 H   0  0  0  0  0  0  0  0  0  0  0  0
  -45.3833  -29.4052    0.6438 H   0  0  0  0  0  0  0  0  0  0  0  0
  -53.6104  -30.1152   12.4544 H   0  0  0  0  0  0  0  0  0  0  0  0
  1  2  1  0  0  0  0
  1  7  2  0  0  0  0
  2  8  2  0  0  0  0
  3  5  2  0  0  0  0
  3 10  1  0  0  0  0
  4  6  1  0  0  0  0
  4 10  2  0  0  0  0
  5 11  1  0  0  0  0
  6 11  2  0  0  0  0
  7 12  1  0  0  0  0
  8  9  1  0  0  0  0
  8 13  1  0  0  0  0
  9 12  2  0  0  0  0
  9 15  1  0  0  0  0
 10 19  1  0  0  0  0
 11 20  1  0  0  0  0
 12 24  1  0  0  0  0
 13 19  1  0  0  0  0
 13 22  2  0  0  0  0
 14 20  1  0  0  0  0
 14 21  1  0  0  0  0
 14 23  2  0  0  0  0
 16 25  1  0  0  0  0
 17 18  1  0  0  0  0
 17 21  1  0  0  0  0
 18 25  1  0  0  0  0
  1 26  1  0  0  0  0
  2 27  1  0  0  0  0
  3 28  1  0  0  0  0
  4 29  1  0  0  0  0
  5 30  1  0  0  0  0
  6 31  1  0  0  0  0
  7 32  1  0  0  0  0
 15 33  1  0  0  0  0
 15 34  1  0  0  0  0
 15 35  1  0  0  0  0
 16 36  1  0  0  0  0
 16 37  1  0  0  0  0
 16 38  1  0  0  0  0
 17 39  1  0  0  0  0
 17 40  1  0  0  0  0
 18 41  1  0  0  0  0
 18 42  1  0  0  0  0
 19 43  1  0  0  0  0
 20 44  1  0  0  0  0
 21 45  1  0  0  0  0
 24 46  1  0  0  0  0
M  END
> <POSIT::Probability>
0.05

> <POSIT::Method>
FRED

> <ReceptorTitle>
UCSF-P4578-REFINED_LIGAND-BOUND-STATE_A__DU__LA1_A-201(A)

> <OMEGA_C>
7YNTwuaP2sFYsiBBYvRQwl183cHlvw1BFLRGwjco6cF075hAiw0/wucH5sHAfcZAQVFDwh4s6sHu
YWtAu6o7wsgL58HCP6NADMNUwtVT4sFY7S9BxKNPwtUr6MHsCApB6uJQws7v78EiRBlBA5JEwlcW
58GOVsFAy8w9wq4d6cFRsHVAcXJTwkwD7cFfNixBLvdMwsv66sEkNOxA0xg1wqXd7cEk3ixAXH1P
wuBp+8FebBVBkwEjwt4l98Gk+wlAjLotwo0E8cG+p4Y/i64pwjA46sHUP+Y/CgJIwjoQ5sFIJOVA
aGo6wm8g6sFqJy9AxxUzwp+k7cGauLI/2jNPwks/8cF4KNNAR3oywof08MFXo2pA9bBUwrJ69MEi
TTtBQmwkwlKh7cGKf7s/+olUwvA90sFAliNBVABQwnRc18GjAAJBBv9KwowB6sH6jZRAn1g9wvpn
5MG80OVA8wVFwh7K68EdtixApl83wpo15sHpo6dARMFWwoH+38Gupz5B0XxLwgdF/cFcjhtBNnhP
wsxA/cFARQRB8WRSwuVRAMJ9Wx1BcfMewj+H+cEAGfA/Rygjwi2j9cGf0U5AeNUlwu9+/cGkk/M/
cEstwhN0+cEEZKk/Dz0twqQs8MGAf/i8VBUqwgq74cHmLsY/2TQqwgg368EQMjhAELVGwkkd4cEu
zfxAMwE8wira58G80uo/hog1wtk968F40CQ/D3FWwuXr8MEWRUdB

> <OMEGA_E>
nx4AwQ==

> <OMEGA_NBR>
    106253

$$$$
CACHE3HI_1702_65
  -OEChem-03092622533D

 45 46  0     0  0  0  0  0  0999 V2000
  -53.2756  -27.6953   10.4717 C   0  0  0  0  0  0  0  0  0  0  0  0
  -52.7245  -27.8989    9.2066 C   0  0  0  0  0  0  0  0  0  0  0  0
  -49.6807  -29.9619    5.2660 C   0  0  0  0  0  0  0  0  0  0  0  0
  -48.3623  -28.1179    6.1022 C   0  0  0  0  0  0  0  0  0  0  0  0
  -48.8862  -30.0097    4.1205 C   0  0  0  0  0  0  0  0  0  0  0  0
  -47.5678  -28.1657    4.9567 C   0  0  0  0  0  0  0  0  0  0  0  0
  -53.2461  -28.7198   11.4177 C   0  0  0  0  0  0  0  0  0  0  0  0
  -52.1439  -29.1265    8.8875 C   0  0  0  0  0  0  0  0  0  0  0  0
  -52.1145  -30.1511    9.8336 C   0  0  0  0  0  0  0  0  0  0  0  0
  -49.4185  -29.0159    6.2569 C   0  0  0  0  0  0  0  0  0  0  0  0
  -47.8299  -29.1116    3.9657 C   0  0  0  0  0  0  0  0  0  0  0  0
  -52.6655  -29.9474   11.0987 C   0  0  0  0  0  0  0  0  0  0  0  0
  -51.5647  -29.3130    7.5312 C   0  0  0  0  0  0  0  0  0  0  0  0
  -45.8580  -29.9021    2.5990 C   0  0  0  0  0  0  0  0  0  0  0  0
  -51.4935  -31.4706    9.5005 C   0  0  0  0  0  0  0  0  0  0  0  0
  -42.9509  -29.8976    1.6359 C   0  0  0  0  0  0  0  0  0  0  0  0
  -44.3274  -31.8155    0.7700 C   0  0  0  0  0  0  0  0  0  0  0  0
  -44.1604  -30.3015    0.8028 C   0  0  0  0  0  0  0  0  0  0  0  0
  -50.2125  -28.9685    7.4031 N   0  0  0  0  0  0  0  0  0  0  0  0
  -47.0248  -29.1602    2.8033 N   0  0  0  0  0  0  0  0  0  0  0  0
  -45.3568  -29.6763    1.3111 N   0  0  0  0  0  0  0  0  0  0  0  0
  -52.3057  -29.7247    6.6448 O   0  0  0  0  0  0  0  0  0  0  0  0
  -45.3183  -30.6547    3.4064 O   0  0  0  0  0  0  0  0  0  0  0  0
  -52.6447  -30.9353   12.0372 O   0  0  0  0  0  0  0  0  0  0  0  0
  -53.7276  -26.7393   10.7200 H   0  0  0  0  0  0  0  0  0  0  0  0
  -52.7529  -27.0926    8.4778 H   0  0  0  0  0  0  0  0  0  0  0  0
  -50.5003  -30.6674    5.3766 H   0  0  0  0  0  0  0  0  0  0  0  0
  -48.1495  -27.3756    6.8671 H   0  0  0  0  0  0  0  0  0  0  0  0
  -49.0992  -30.7513    3.3548 H   0  0  0  0  0  0  0  0  0  0  0  0
  -46.7472  -27.4611    4.8468 H   0  0  0  0  0  0  0  0  0  0  0  0
  -53.6767  -28.5543   12.4015 H   0  0  0  0  0  0  0  0  0  0  0  0
  -50.4265  -31.4792    9.7521 H   0  0  0  0  0  0  0  0  0  0  0  0
  -51.5727  -31.6836    8.4279 H   0  0  0  0  0  0  0  0  0  0  0  0
  -51.9916  -32.2729   10.0556 H   0  0  0  0  0  0  0  0  0  0  0  0
  -43.0532  -30.2527    2.6671 H   0  0  0  0  0  0  0  0  0  0  0  0
  -42.8393  -28.8081    1.6627 H   0  0  0  0  0  0  0  0  0  0  0  0
  -42.0275  -30.3255    1.2311 H   0  0  0  0  0  0  0  0  0  0  0  0
  -44.4631  -32.2221    1.7787 H   0  0  0  0  0  0  0  0  0  0  0  0
  -43.4522  -32.2960    0.3218 H   0  0  0  0  0  0  0  0  0  0  0  0
  -45.2079  -32.0966    0.1813 H   0  0  0  0  0  0  0  0  0  0  0  0
  -44.0276  -29.9323   -0.2205 H   0  0  0  0  0  0  0  0  0  0  0  0
  -49.7488  -28.6408    8.2583 H   0  0  0  0  0  0  0  0  0  0  0  0
  -47.3323  -28.5859    2.0220 H   0  0  0  0  0  0  0  0  0  0  0  0
  -45.8790  -29.0653    0.6883 H   0  0  0  0  0  0  0  0  0  0  0  0
  -53.0716  -30.6055   12.8483 H   0  0  0  0  0  0  0  0  0  0  0  0
  1  2  1  0  0  0  0
  1  7  2  0  0  0  0
  2  8  2  0  0  0  0
  3  5  2  0  0  0  0
  3 10  1  0  0  0  0
  4  6  1  0  0  0  0
  4 10  2  0  0  0  0
  5 11  1  0  0  0  0
  6 11  2  0  0  0  0
  7 12  1  0  0  0  0
  8  9  1  0  0  0  0
  8 13  1  0  0  0  0
  9 12  2  0  0  0  0
  9 15  1  0  0  0  0
 10 19  1  0  0  0  0
 11 20  1  0  0  0  0
 12 24  1  0  0  0  0
 13 19  1  0  0  0  0
 13 22  2  0  0  0  0
 14 20  1  0  0  0  0
 14 21  1  0  0  0  0
 14 23  2  0  0  0  0
 16 18  1  0  0  0  0
 17 18  1  0  0  0  0
 18 21  1  0  0  0  0
  1 25  1  0  0  0  0
  2 26  1  0  0  0  0
  3 27  1  0  0  0  0
  4 28  1  0  0  0  0
  5 29  1  0  0  0  0
  6 30  1  0  0  0  0
  7 31  1  0  0  0  0
 15 32  1  0  0  0  0
 15 33  1  0  0  0  0
 15 34  1  0  0  0  0
 16 35  1  0  0  0  0
 16 36  1  0  0  0  0
 16 37  1  0  0  0  0
 17 38  1  0  0  0  0
 17 39  1  0  0  0  0
 17 40  1  0  0  0  0
 18 41  1  0  0  0  0
 19 42  1  0  0  0  0
 20 43  1  0  0  0  0
 21 44  1  0  0  0  0
 24 45  1  0  0  0  0
M  END
> <POSIT::Probability>
0.05

> <POSIT::Method>
FRED

> <ReceptorTitle>
UCSF-P4578-REFINED_LIGAND-BOUND-STATE_A__DU__LA1_A-201(A)

> <OMEGA_C>
MRpVwuaP3cE6jCdB8OVSwuMw38EoThNBB7lGwuGx78G1gqhA+nJBwn3x4MHjRMNAbItDwsUT8MHf
2oNAY0U+wlNT4cF9nZ5AA/xUwh3C5cEWrzZBZZNQwhwD6cFmMw5BOnVQwmA18cF4Vh1Bj6xFwp8g
6MFZOMhA11E/wqTk6MHQzn1AeKlSwlaU78FSlDFBRUJOwvCA6sGI//BAn243woI378HUViZAWPlN
wsLD+8EvAhhBts0rwjQu78E+ZtE/OE8xwiCG/sHoIUU/QaQwwpJp8sGchk0/ktlIwoa/58FI5uxA
bhk8whBI6cGaaTNAaG01wiBp7cEg0ac//ThRwhfM7cE/otRA70U1wtc89cHCAVpAMZRSwnx798GR
mEBBGOlWwi/q1cEohStBBANTwrK92MEUpQdBSwBKwspW9cEhDaxAIplAwiEB28Fdv9tAnWVEwrAC
9sHOtVZAIv06wm6w28FVGZtA8bRWwh5v5MGobEZBwLRJwmDV+8GgCBxBdkpOwvB3/cGm2AZBYfdP
wn4XAcK64yBBcDYswosF8sEJsSpAZlsrwhJ35sH809Q/Khwowpqa8sGIlJ0/KtoxwmfjAMKkq+M/
F88twiIvAcKAyKQ+39Q0wvRiAMKgnDk+QhwwwnN178Egw2G+u/5Gwmog5cEMIgRBP1Q9wtSv5MH1
ZwFAEYQ3wriF6MEcMjA/V0lUwvrX9MGgkk1B

> <OMEGA_E>
EjAIwQ==

> <OMEGA_NBR>
    107639

$$$$
CACHE3HI_1702_66
  -OEChem-03092622533D

 46 48  0     0  0  0  0  0  0999 V2000
  -51.6803  -31.6813    8.6760 C   0  0  0  0  0  0  0  0  0  0  0  0
  -54.5647  -25.7833   11.0386 C   0  0  0  0  0  0  0  0  0  0  0  0
  -50.8159  -31.1024    7.7392 C   0  0  0  0  0  0  0  0  0  0  0  0
  -54.7513  -26.8988   10.2083 C   0  0  0  0  0  0  0  0  0  0  0  0
  -53.0605  -31.5217    8.5360 C   0  0  0  0  0  0  0  0  0  0  0  0
  -55.4005  -25.5905   12.1482 C   0  0  0  0  0  0  0  0  0  0  0  0
  -47.7611  -29.4909    3.9415 C   0  0  0  0  0  0  0  0  0  0  0  0
  -46.6647  -29.5509    6.0970 C   0  0  0  0  0  0  0  0  0  0  0  0
  -52.7137  -30.1575    6.5289 C   0  0  0  0  0  0  0  0  0  0  0  0
  -46.4851  -29.3868    3.3486 C   0  0  0  0  0  0  0  0  0  0  0  0
  -45.4244  -29.4469    5.4398 C   0  0  0  0  0  0  0  0  0  0  0  0
  -51.3210  -30.3697    6.6358 C   0  0  0  0  0  0  0  0  0  0  0  0
  -55.7832  -27.8360   10.4700 C   0  0  0  0  0  0  0  0  0  0  0  0
  -53.5761  -30.7309    7.4903 C   0  0  0  0  0  0  0  0  0  0  0  0
  -56.5909  -27.6765   11.6354 C   0  0  0  0  0  0  0  0  0  0  0  0
  -47.8567  -29.5683    5.3474 C   0  0  0  0  0  0  0  0  0  0  0  0
  -56.4047  -26.5290   12.4514 C   0  0  0  0  0  0  0  0  0  0  0  0
  -50.3676  -29.8489    5.6342 C   0  0  0  0  0  0  0  0  0  0  0  0
  -55.9942  -28.9329    9.4918 C   0  0  0  0  0  0  0  0  0  0  0  0
  -57.6646  -28.7015   12.0047 C   0  0  0  0  0  0  0  0  0  0  0  0
  -54.9878  -30.2674    7.6120 C   0  0  0  0  0  0  0  0  0  0  0  0
  -45.3508  -29.3657    4.0912 N   0  0  0  0  0  0  0  0  0  0  0  0
  -49.0466  -29.7028    6.0658 N   0  0  0  0  0  0  0  0  0  0  0  0
  -54.9154  -29.3502    8.7453 N   0  0  0  0  0  0  0  0  0  0  0  0
  -50.7301  -29.6379    4.4816 O   0  0  0  0  0  0  0  0  0  0  0  0
  -57.1176  -29.3326    9.2084 O   0  0  0  0  0  0  0  0  0  0  0  0
  -57.1876  -26.3089   13.5414 O   0  0  0  0  0  0  0  0  0  0  0  0
  -51.2813  -32.2490    9.5037 H   0  0  0  0  0  0  0  0  0  0  0  0
  -53.7789  -25.0744   10.8236 H   0  0  0  0  0  0  0  0  0  0  0  0
  -49.7486  -31.2158    7.8588 H   0  0  0  0  0  0  0  0  0  0  0  0
  -54.1007  -27.0458    9.3589 H   0  0  0  0  0  0  0  0  0  0  0  0
  -53.7329  -32.0046    9.2295 H   0  0  0  0  0  0  0  0  0  0  0  0
  -55.2731  -24.7185   12.7724 H   0  0  0  0  0  0  0  0  0  0  0  0
  -48.6506  -29.5109    3.3292 H   0  0  0  0  0  0  0  0  0  0  0  0
  -46.7022  -29.6172    7.1743 H   0  0  0  0  0  0  0  0  0  0  0  0
  -53.1148  -29.5634    5.7211 H   0  0  0  0  0  0  0  0  0  0  0  0
  -46.4097  -29.3222    2.2732 H   0  0  0  0  0  0  0  0  0  0  0  0
  -44.5151  -29.4315    6.0225 H   0  0  0  0  0  0  0  0  0  0  0  0
  -57.2279  -29.4718   12.6574 H   0  0  0  0  0  0  0  0  0  0  0  0
  -58.4869  -28.1968   12.5330 H   0  0  0  0  0  0  0  0  0  0  0  0
  -58.0515  -29.1731   11.0894 H   0  0  0  0  0  0  0  0  0  0  0  0
  -55.3172  -29.7486    6.6997 H   0  0  0  0  0  0  0  0  0  0  0  0
  -55.6666  -31.1073    7.8215 H   0  0  0  0  0  0  0  0  0  0  0  0
  -48.9341  -29.6929    7.0594 H   0  0  0  0  0  0  0  0  0  0  0  0
  -54.0142  -28.9986    8.9986 H   0  0  0  0  0  0  0  0  0  0  0  0
  -57.8178  -27.0146   13.6270 H   0  0  0  0  0  0  0  0  0  0  0  0
  1  3  1  0  0  0  0
  1  5  2  0  0  0  0
  2  4  1  0  0  0  0
  2  6  2  0  0  0  0
  3 12  2  0  0  0  0
  4 13  2  0  0  0  0
  5 14  1  0  0  0  0
  6 17  1  0  0  0  0
  7 10  2  0  0  0  0
  7 16  1  0  0  0  0
  8 11  1  0  0  0  0
  8 16  2  0  0  0  0
  9 12  1  0  0  0  0
  9 14  2  0  0  0  0
 10 22  1  0  0  0  0
 11 22  2  0  0  0  0
 12 18  1  0  0  0  0
 13 15  1  0  0  0  0
 13 19  1  0  0  0  0
 14 21  1  0  0  0  0
 15 17  2  0  0  0  0
 15 20  1  0  0  0  0
 16 23  1  0  0  0  0
 17 27  1  0  0  0  0
 18 23  1  0  0  0  0
 18 25  2  0  0  0  0
 19 24  1  0  0  0  0
 19 26  2  0  0  0  0
 21 24  1  0  0  0  0
  1 28  1  0  0  0  0
  2 29  1  0  0  0  0
  3 30  1  0  0  0  0
  4 31  1  0  0  0  0
  5 32  1  0  0  0  0
  6 33  1  0  0  0  0
  7 34  1  0  0  0  0
  8 35  1  0  0  0  0
  9 36  1  0  0  0  0
 10 37  1  0  0  0  0
 11 38  1  0  0  0  0
 20 39  1  0  0  0  0
 20 40  1  0  0  0  0
 20 41  1  0  0  0  0
 21 42  1  0  0  0  0
 21 43  1  0  0  0  0
 23 44  1  0  0  0  0
 24 45  1  0  0  0  0
 27 46  1  0  0  0  0
M  END
> <POSIT::Probability>
0.5

> <POSIT::Method>
SHAPEFIT

> <ReceptorTitle>
UCSF-P4578-REFINED_LIGAND-BOUND-STATE_A__DU__LA1_A-201(A)

> <OMEGA_C>
lrhOwk9z/cEM0QpBSUJawj5EzsHwnTBBg0NLwsDR+MEnp/dATgFbwrsw18EkVSNB7j1UwmUs/MFG
kwhBIppdwmi5zMHUXkJBZws/wkbt68GGQXxAsKg6wjlo7MGvGsNAzdpSwodC8cGB7NBAwvA5wjkY
68HtT1ZAkLI1wiyT68EjE65Av0hNwjD18sGqWNRACSJfwhGw3sEvhSdB+U1WwurY9cFfsO9AFl1i
woVp3cF8KjpBSW0/wuKL7MGAHatAc55hwmA71MEIOUdBbXhJwpjK7sFRS7RAGvpfwoN258F73hdB
jahmwryc5cFlE0BBh/Nbwp4j8sGklfNANWc1wgHt6sGF64JAwy9EwmGf7cE+G8JAaqlbwk/N6sHy
7AtBoetKwoMa7cEfaY9AeHhkwhyp6sGeVRNBH8Bkwot40sHBqVhBBiBNwvD+AMIGDxhBlB1XwkiY
yMFsLS1Bi/5Gwty5+cFAe/tAFGdYwrVd2MHvvRVBdO5Wwr8EAMIsrBNBpRddwni/xcHSW0xBMJpC
wlMW7MHJEVVAFc86wh3w7MH9k+VAkXVUwtiB7MHyErdAiKM5wtqT6sExfBFAgQ8ywsZz68EIuMBA
VOlkwkbG68GQhEpBnPJpwgqT4cEGh0hByTRowm5i6cH7bTFBy0RdwhT97cHRY9ZAkapewrTb+MHo
SfpAhbxDwgqL7cHL5uFAkQ5YwiL958Fi+g9BbkVnwt4d2ME0CFpB

> <OMEGA_E>
9HQ7Pw==

> <OMEGA_NBR>
    109078

$$$$
CACHE3HI_1702_7
  -OEChem-03092622533D

 48 50  0     0  0  0  0  0  0999 V2000
  -54.4298  -25.7622   11.1141 C   0  0  0  0  0  0  0  0  0  0  0  0
  -44.5563  -29.3700    6.5617 C   0  0  0  0  0  0  0  0  0  0  0  0
  -54.5445  -26.8781   10.2677 C   0  0  0  0  0  0  0  0  0  0  0  0
  -53.5997  -29.8026    6.8582 C   0  0  0  0  0  0  0  0  0  0  0  0
  -51.9761  -31.0361    8.2114 C   0  0  0  0  0  0  0  0  0  0  0  0
  -52.5700  -29.3549    6.0300 C   0  0  0  0  0  0  0  0  0  0  0  0
  -50.9428  -30.6033    7.3675 C   0  0  0  0  0  0  0  0  0  0  0  0
  -55.3439  -25.5847   12.1677 C   0  0  0  0  0  0  0  0  0  0  0  0
  -46.0355  -29.4072    6.5990 C   0  0  0  0  0  0  0  0  0  0  0  0
  -44.1714  -29.2492    5.2465 C   0  0  0  0  0  0  0  0  0  0  0  0
  -55.5857  -27.8118   10.4590 C   0  0  0  0  0  0  0  0  0  0  0  0
  -53.3067  -30.6708    7.9252 C   0  0  0  0  0  0  0  0  0  0  0  0
  -51.2495  -29.7752    6.2626 C   0  0  0  0  0  0  0  0  0  0  0  0
  -56.5017  -27.6506   11.5315 C   0  0  0  0  0  0  0  0  0  0  0  0
  -56.3731  -26.5232   12.3830 C   0  0  0  0  0  0  0  0  0  0  0  0
  -46.4799  -29.3046    5.3011 C   0  0  0  0  0  0  0  0  0  0  0  0
  -55.6254  -29.0004    9.6033 C   0  0  0  0  0  0  0  0  0  0  0  0
  -47.8435  -29.3093    4.7997 C   0  0  0  0  0  0  0  0  0  0  0  0
  -57.6017  -28.6864   11.7681 C   0  0  0  0  0  0  0  0  0  0  0  0
  -54.3987  -31.0607    8.8595 C   0  0  0  0  0  0  0  0  0  0  0  0
  -50.2543  -29.5080    5.1821 C   0  0  0  0  0  0  0  0  0  0  0  0
  -45.3446  -29.2103    4.5365 N   0  0  0  0  0  0  0  0  0  0  0  0
  -54.5902  -29.9102    9.7321 N   0  0  0  0  0  0  0  0  0  0  0  0
  -48.8973  -29.4137    5.6833 N   0  0  0  0  0  0  0  0  0  0  0  0
  -56.5791  -29.2051    8.8594 O   0  0  0  0  0  0  0  0  0  0  0  0
  -48.0404  -29.2463    3.5902 O   0  0  0  0  0  0  0  0  0  0  0  0
  -57.2209  -26.3336   13.4295 O   0  0  0  0  0  0  0  0  0  0  0  0
  -53.6407  -25.0420   10.9556 H   0  0  0  0  0  0  0  0  0  0  0  0
  -43.8967  -29.4274    7.4150 H   0  0  0  0  0  0  0  0  0  0  0  0
  -53.8333  -27.0218    9.4678 H   0  0  0  0  0  0  0  0  0  0  0  0
  -54.6164  -29.4842    6.6808 H   0  0  0  0  0  0  0  0  0  0  0  0
  -51.7534  -31.6455    9.0748 H   0  0  0  0  0  0  0  0  0  0  0  0
  -52.7877  -28.6858    5.2107 H   0  0  0  0  0  0  0  0  0  0  0  0
  -49.9222  -30.8996    7.5597 H   0  0  0  0  0  0  0  0  0  0  0  0
  -55.2569  -24.7247   12.8152 H   0  0  0  0  0  0  0  0  0  0  0  0
  -46.6516  -29.4980    7.4814 H   0  0  0  0  0  0  0  0  0  0  0  0
  -43.1652  -29.1964    4.8577 H   0  0  0  0  0  0  0  0  0  0  0  0
  -57.2289  -29.4701   12.4439 H   0  0  0  0  0  0  0  0  0  0  0  0
  -58.4754  -28.1960   12.2221 H   0  0  0  0  0  0  0  0  0  0  0  0
  -57.8925  -29.1380   10.8082 H   0  0  0  0  0  0  0  0  0  0  0  0
  -55.3218  -31.2794    8.3028 H   0  0  0  0  0  0  0  0  0  0  0  0
  -54.1063  -31.9441    9.4461 H   0  0  0  0  0  0  0  0  0  0  0  0
  -50.3026  -30.3265    4.4488 H   0  0  0  0  0  0  0  0  0  0  0  0
  -50.5147  -28.5592    4.6903 H   0  0  0  0  0  0  0  0  0  0  0  0
  -45.3703  -29.1203    3.5408 H   0  0  0  0  0  0  0  0  0  0  0  0
  -53.9319  -29.7686   10.4714 H   0  0  0  0  0  0  0  0  0  0  0  0
  -48.7255  -29.4242    6.6684 H   0  0  0  0  0  0  0  0  0  0  0  0
  -57.8586  -27.0374   13.4526 H   0  0  0  0  0  0  0  0  0  0  0  0
  1  3  1  0  0  0  0
  1  8  2  0  0  0  0
  2  9  1  0  0  0  0
  2 10  2  0  0  0  0
  3 11  2  0  0  0  0
  4  6  2  0  0  0  0
  4 12  1  0  0  0  0
  5  7  1  0  0  0  0
  5 12  2  0  0  0  0
  6 13  1  0  0  0  0
  7 13  2  0  0  0  0
  8 15  1  0  0  0  0
  9 16  2  0  0  0  0
 10 22  1  0  0  0  0
 11 14  1  0  0  0  0
 11 17  1  0  0  0  0
 12 20  1  0  0  0  0
 13 21  1  0  0  0  0
 14 15  2  0  0  0  0
 14 19  1  0  0  0  0
 15 27  1  0  0  0  0
 16 18  1  0  0  0  0
 16 22  1  0  0  0  0
 17 23  1  0  0  0  0
 17 25  2  0  0  0  0
 18 24  1  0  0  0  0
 18 26  2  0  0  0  0
 20 23  1  0  0  0  0
 21 24  1  0  0  0  0
  1 28  1  0  0  0  0
  2 29  1  0  0  0  0
  3 30  1  0  0  0  0
  4 31  1  0  0  0  0
  5 32  1  0  0  0  0
  6 33  1  0  0  0  0
  7 34  1  0  0  0  0
  8 35  1  0  0  0  0
  9 36  1  0  0  0  0
 10 37  1  0  0  0  0
 19 38  1  0  0  0  0
 19 39  1  0  0  0  0
 19 40  1  0  0  0  0
 20 41  1  0  0  0  0
 20 42  1  0  0  0  0
 21 43  1  0  0  0  0
 21 44  1  0  0  0  0
 22 45  1  0  0  0  0
 23 46  1  0  0  0  0
 24 47  1  0  0  0  0
 27 48  1  0  0  0  0
M  END
> <POSIT::Probability>
0.5

> <POSIT::Method>
SHAPEFIT

> <ReceptorTitle>
UCSF-P4578-REFINED_LIGAND-BOUND-STATE_A__DU__LA1_A-201(A)

> <OMEGA_C>
FrhZwu4YzsFc0zFBpjkywrT16sHW+dFAlC1awkIG18GgSCRBHmZWwrNr7sFGdttAgudPwgNK+MG4
YQNBtEdSwtLW6sH89cBAdsVLwn3T9MHpwutAJmBdwmetzMG0rkJBWiQ4wuNB68EyK9NAkK8wwkX+
6cEZ46dAwldewqB+3sFEWCdBEDpVwrVd9cFxm/1Aiv9MwoUz7sGUZ8hAxAFiwnQ03cEqgThBEH5h
wo4v1MHiIEZBaus5wt9v6sG9oqlAYoBewuYA6MH4phlBxl8/wnx56sEYl5lALmhmwrl95cEYSjxB
SJhZwlN8+MGkwA1BXgRJwnIQ7MEE1KVA3mA1wpuu6cGiKpFAaFxawglI78GuthtB2JZDwilP68Fb
3bVADFFiwvOj6cE8wA1BVClAwlr46cEvxmVAMuJkwi+r0sFC31ZBEZBWwgxWyMEtSi9BNZYvwmFr
68GKR+1AUlVXwqos2MH2exdBKndawqHf68F6ydVAhgNPwgEq/cFLMhFBpCZTwnN85cEvvqZAVbBH
wk0y98HZ6PFAGAddwjPMxcEDC01BPps6wtf768GOZ+9AMakswkyS6cFdcptAa+pkws7C68FiGkdB
2eZpwmaR4cHljUNB5ZFnwrYa6cEx7ixBkUldwjY8+sER2ARB0WxYwpiN/8EVIxdB2zVJwqec8sF/
XI5AEA9Kwjp55MEZF5ZAKXs1wlj26MEjnWJAPLpXwgUm7sGoiidB8uZCwrtk68EhY9VAMW9nwotM
2MHAPVdB

> <OMEGA_E>
9hw1Pw==

> <OMEGA_NBR>
    110557

$$$$
CACHE3HI_1702_71
  -OEChem-03092622533D

 39 40  0     0  0  0  0  0  0999 V2000
  -42.9559  -29.1918    0.4593 C   0  0  0  0  0  0  0  0  0  0  0  0
  -44.2435  -29.4400    0.9349 C   0  0  0  0  0  0  0  0  0  0  0  0
  -48.8680  -28.7176    6.3675 C   0  0  0  0  0  0  0  0  0  0  0  0
  -49.8917  -29.6463    4.3858 C   0  0  0  0  0  0  0  0  0  0  0  0
  -47.6326  -28.6997    5.7201 C   0  0  0  0  0  0  0  0  0  0  0  0
  -48.6563  -29.6284    3.7384 C   0  0  0  0  0  0  0  0  0  0  0  0
  -41.8686  -29.2461    1.3311 C   0  0  0  0  0  0  0  0  0  0  0  0
  -44.4438  -29.7426    2.2818 C   0  0  0  0  0  0  0  0  0  0  0  0
  -49.9976  -29.1908    5.7001 C   0  0  0  0  0  0  0  0  0  0  0  0
  -43.3563  -29.7969    3.1537 C   0  0  0  0  0  0  0  0  0  0  0  0
  -47.5266  -29.1551    4.4058 C   0  0  0  0  0  0  0  0  0  0  0  0
  -42.0688  -29.5488    2.6781 C   0  0  0  0  0  0  0  0  0  0  0  0
  -45.7999  -29.9974    2.7490 C   0  0  0  0  0  0  0  0  0  0  0  0
  -52.2723  -29.4614    8.6828 C   0  0  0  0  0  0  0  0  0  0  0  0
  -43.5615  -30.1212    4.5995 C   0  0  0  0  0  0  0  0  0  0  0  0
  -51.3184  -29.2126    6.3926 C   0  0  0  0  0  0  0  0  0  0  0  0
  -51.8787  -29.6534    9.9953 N   0  0  0  0  0  0  0  0  0  0  0  0
  -46.2719  -29.1367    3.7485 N   0  0  0  0  0  0  0  0  0  0  0  0
  -51.1884  -29.4044    7.8143 N   0  0  0  0  0  0  0  0  0  0  0  0
  -46.4341  -30.9477    2.2654 O   0  0  0  0  0  0  0  0  0  0  0  0
  -53.4514  -29.3569    8.3490 O   0  0  0  0  0  0  0  0  0  0  0  0
  -40.9934  -29.5990    3.5137 O   0  0  0  0  0  0  0  0  0  0  0  0
  -42.8002  -28.9562   -0.5895 H   0  0  0  0  0  0  0  0  0  0  0  0
  -45.0831  -29.3954    0.2456 H   0  0  0  0  0  0  0  0  0  0  0  0
  -48.9410  -28.3612    7.3914 H   0  0  0  0  0  0  0  0  0  0  0  0
  -50.7668  -30.0171    3.8583 H   0  0  0  0  0  0  0  0  0  0  0  0
  -46.7587  -28.3287    6.2498 H   0  0  0  0  0  0  0  0  0  0  0  0
  -48.5858  -29.9860    2.7142 H   0  0  0  0  0  0  0  0  0  0  0  0
  -40.8682  -29.0523    0.9539 H   0  0  0  0  0  0  0  0  0  0  0  0
  -43.4996  -31.2017    4.7741 H   0  0  0  0  0  0  0  0  0  0  0  0
  -44.5523  -29.7968    4.9391 H   0  0  0  0  0  0  0  0  0  0  0  0
  -42.8005  -29.6227    5.2098 H   0  0  0  0  0  0  0  0  0  0  0  0
  -51.8639  -28.2720    6.2351 H   0  0  0  0  0  0  0  0  0  0  0  0
  -51.9602  -30.0187    6.0112 H   0  0  0  0  0  0  0  0  0  0  0  0
  -50.9008  -29.7375   10.2510 H   0  0  0  0  0  0  0  0  0  0  0  0
  -52.5602  -29.7154   10.7438 H   0  0  0  0  0  0  0  0  0  0  0  0
  -45.6302  -28.4031    4.0402 H   0  0  0  0  0  0  0  0  0  0  0  0
  -50.2527  -29.4736    8.2084 H   0  0  0  0  0  0  0  0  0  0  0  0
  -40.1893  -29.4004    3.0011 H   0  0  0  0  0  0  0  0  0  0  0  0
  1  2  1  0  0  0  0
  1  7  2  0  0  0  0
  2  8  2  0  0  0  0
  3  5  2  0  0  0  0
  3  9  1  0  0  0  0
  4  6  1  0  0  0  0
  4  9  2  0  0  0  0
  5 11  1  0  0  0  0
  6 11  2  0  0  0  0
  7 12  1  0  0  0  0
  8 10  1  0  0  0  0
  8 13  1  0  0  0  0
  9 16  1  0  0  0  0
 10 12  2  0  0  0  0
 10 15  1  0  0  0  0
 11 18  1  0  0  0  0
 12 22  1  0  0  0  0
 13 18  1  0  0  0  0
 13 20  2  0  0  0  0
 14 17  1  0  0  0  0
 14 19  1  0  0  0  0
 14 21  2  0  0  0  0
 16 19  1  0  0  0  0
  1 23  1  0  0  0  0
  2 24  1  0  0  0  0
  3 25  1  0  0  0  0
  4 26  1  0  0  0  0
  5 27  1  0  0  0  0
  6 28  1  0  0  0  0
  7 29  1  0  0  0  0
 15 30  1  0  0  0  0
 15 31  1  0  0  0  0
 15 32  1  0  0  0  0
 16 33  1  0  0  0  0
 16 34  1  0  0  0  0
 17 35  1  0  0  0  0
 17 36  1  0  0  0  0
 18 37  1  0  0  0  0
 19 38  1  0  0  0  0
 22 39  1  0  0  0  0
M  END
> <POSIT::Probability>
0.05

> <POSIT::Method>
FRED

> <ReceptorTitle>
UCSF-P4578-REFINED_LIGAND-BOUND-STATE_A__DU__LA1_A-201(A)

> <OMEGA_C>
3tIrwuWI6cFOJus+YvkwwhmF68H7Um8/2HhDwqa95cFowstAG5FHwoYr7cEoWIxAv4c+wgGZ5cFi
C7dAEaBCwugG7cEsQm9AZnknwhb46cFNYqo/bMYxwuPw7cF1CRJAlP1HwsyG6cHTZrZA5WwtwhJg
7sEU1klARhs+wrs96cG3/IxAcEYowuBj7MHeZStAGjM3wpr678Gi7y9A1BZRwvGw68G+7ApB+D4u
wi748MFgL5NA/0VNwmyz6cExkMxAyINPwis67cHY7B9BbxY5wgQY6cE1529A5sBMwk4868EWD/pA
hrw5ws6U98Fu/BBAOM5Vwu3a6sGulQVBQvkjwrvK7ME04GBAXTMrwk6m58HB6ha/IVU0wrMp68F7
hXs+ocNDwrvj4sGbhuxAORFLwvoi8MGS7nZA3Ag7wiCh4sFw/sdA1FdCwkrj78GwtS1AAnkjwhFr
6MGrM3Q/jP8twgyd+cHVxZhAhzUywuNf7sGBDZ5AuDMrwk/77MFstqZAq3RPwgQt4sHahcdARddP
wl4m8MEeXMBAa5pLwnTm7cHyAyRBnD1SwiO57cF55itBS4U2wpI548ERSYFAyQJJwgXK68GZVQNB
zsEgwvkz68FLEkBA

> <OMEGA_E>
gFUOwQ==

> <OMEGA_NBR>
    111823

$$$$
CACHE3HI_1704_33
  -OEChem-03092622533D

 39 40  0     0  0  0  0  0  0999 V2000
  -49.7804  -28.9909    5.4017 C   0  0  0  0  0  0  0  0  0  0  0  0
  -47.9870  -29.1552    3.8074 C   0  0  0  0  0  0  0  0  0  0  0  0
  -50.6496  -29.3335    4.3780 C   0  0  0  0  0  0  0  0  0  0  0  0
  -48.4255  -28.9023    5.1024 C   0  0  0  0  0  0  0  0  0  0  0  0
  -48.9359  -29.4905    2.8551 C   0  0  0  0  0  0  0  0  0  0  0  0
  -41.6479  -30.4403    2.9768 C   0  0  0  0  0  0  0  0  0  0  0  0
  -46.1813  -28.9168    1.1640 C   0  0  0  0  0  0  0  0  0  0  0  0
  -42.8766  -30.8483    0.8688 C   0  0  0  0  0  0  0  0  0  0  0  0
  -42.5988  -28.4767    1.7867 C   0  0  0  0  0  0  0  0  0  0  0  0
  -44.3546  -30.6776    1.2141 C   0  0  0  0  0  0  0  0  0  0  0  0
  -43.8067  -28.2626    0.8813 C   0  0  0  0  0  0  0  0  0  0  0  0
  -41.9779  -29.8692    1.6281 C   0  0  0  0  0  0  0  0  0  0  0  0
  -47.4467  -28.5369    6.1663 C   0  0  0  0  0  0  0  0  0  0  0  0
  -48.4985  -29.7701    1.4459 C   0  0  0  0  0  0  0  0  0  0  0  0
  -50.2604  -29.5864    3.1082 N   0  0  0  0  0  0  0  0  0  0  0  0
  -44.8252  -29.2915    1.0984 N   0  0  0  0  0  0  0  0  0  0  0  0
  -47.0699  -29.9717    1.3528 N   0  0  0  0  0  0  0  0  0  0  0  0
  -42.0759  -31.4978    3.4150 O   0  0  0  0  0  0  0  0  0  0  0  0
  -46.5625  -27.7469    1.0650 O   0  0  0  0  0  0  0  0  0  0  0  0
  -40.8078  -29.6186    3.6517 O   0  0  0  0  0  0  0  0  0  0  0  0
  -50.1539  -28.7996    6.4018 H   0  0  0  0  0  0  0  0  0  0  0  0
  -46.9340  -29.0915    3.5517 H   0  0  0  0  0  0  0  0  0  0  0  0
  -51.7162  -29.4160    4.5592 H   0  0  0  0  0  0  0  0  0  0  0  0
  -42.5754  -31.8823    1.0720 H   0  0  0  0  0  0  0  0  0  0  0  0
  -42.7487  -30.6845   -0.2082 H   0  0  0  0  0  0  0  0  0  0  0  0
  -41.8390  -27.7230    1.5437 H   0  0  0  0  0  0  0  0  0  0  0  0
  -42.8926  -28.3069    2.8293 H   0  0  0  0  0  0  0  0  0  0  0  0
  -44.9601  -31.3805    0.6161 H   0  0  0  0  0  0  0  0  0  0  0  0
  -44.5352  -30.9851    2.2642 H   0  0  0  0  0  0  0  0  0  0  0  0
  -44.2768  -27.2866    1.0724 H   0  0  0  0  0  0  0  0  0  0  0  0
  -43.4784  -28.2513   -0.1674 H   0  0  0  0  0  0  0  0  0  0  0  0
  -41.0245  -29.7795    1.1051 H   0  0  0  0  0  0  0  0  0  0  0  0
  -47.0685  -29.4283    6.6841 H   0  0  0  0  0  0  0  0  0  0  0  0
  -47.9088  -27.8978    6.9305 H   0  0  0  0  0  0  0  0  0  0  0  0
  -46.5943  -27.9992    5.7331 H   0  0  0  0  0  0  0  0  0  0  0  0
  -48.9921  -30.6681    1.0596 H   0  0  0  0  0  0  0  0  0  0  0  0
  -48.7636  -28.9416    0.7807 H   0  0  0  0  0  0  0  0  0  0  0  0
  -46.7020  -30.9113    1.4273 H   0  0  0  0  0  0  0  0  0  0  0  0
  -40.5814  -29.9728    4.5385 H   0  0  0  0  0  0  0  0  0  0  0  0
  1  3  2  0  0  0  0
  1  4  1  0  0  0  0
  2  4  2  0  0  0  0
  2  5  1  0  0  0  0
  3 15  1  0  0  0  0
  4 13  1  0  0  0  0
  5 14  1  0  0  0  0
  5 15  2  0  0  0  0
  6 12  1  0  0  0  0
  6 18  2  0  0  0  0
  6 20  1  0  0  0  0
  7 16  1  0  0  0  0
  7 17  1  0  0  0  0
  7 19  2  0  0  0  0
  8 10  1  0  0  0  0
  8 12  1  0  0  0  0
  9 11  1  0  0  0  0
  9 12  1  0  0  0  0
 10 16  1  0  0  0  0
 11 16  1  0  0  0  0
 14 17  1  0  0  0  0
  1 21  1  0  0  0  0
  2 22  1  0  0  0  0
  3 23  1  0  0  0  0
  8 24  1  0  0  0  0
  8 25  1  0  0  0  0
  9 26  1  0  0  0  0
  9 27  1  0  0  0  0
 10 28  1  0  0  0  0
 10 29  1  0  0  0  0
 11 30  1  0  0  0  0
 11 31  1  0  0  0  0
 12 32  1  0  0  0  0
 13 33  1  0  0  0  0
 13 34  1  0  0  0  0
 13 35  1  0  0  0  0
 14 36  1  0  0  0  0
 14 37  1  0  0  0  0
 17 38  1  0  0  0  0
 20 39  1  0  0  0  0
M  END
> <POSIT::Probability>
0.02

> <POSIT::Method>
FRED

> <ReceptorTitle>
UCSF-P4578-REFINED_LIGAND-BOUND-STATE_A__DU__LA1_A-201(A)

> <OMEGA_C>
GB9Hwm7t58EO26xAsvI/wuc96cGMrHNALZlKwhOr6sFeGIxArbNBwvA358GWRqNAZL5Dwnzs68HA
uTZAcpcmwtKF88Eogz5Amrk4woxV58HA/ZQ/rIErwk7J9sFwbF4/KmUqwlXQ48G4suQ/Emsxwr5r
9cEgaZs/DTovwtoZ4sEQnGE/YeknwiP07sGAZNA/dck9wqJL5MGSUsVAev5BwiIp7sEQErk/ogpJ
wuSw7MHw60ZA+kwzwvxU6sFIl4w/jkc8whLG78H4KK0/vE0ownj7+8G8jlpADEA6wpH53cGIUog/
Mzsjws3y7MHwtGlApZ1Iwq5l5sG028xAcbw7wlq76MHYT2NAV91Owv5T68G45JFALU0qwukO/8H4
N4k/tP4qwud59cHANlW+Flsnwq7I3cFwmMU//ZErwp504sEYEzVAHdczwkQL+8EAuR0/DSQywmvh
98FE6BBAdRsxwuFK2sFIRIk/5OktwpoC4sGAayu+Fxkkwl487sFwdY0/KEY8whZt68EM5NVAo6I/
wsMu38H4xt1AhmA6wlT+38FudbdA3fdDwjNY9cFgoYc/4w1Dwn2I58GA20c/3s46wk9K98F4srY/
XFMiwlzI78F4O5FA

> <OMEGA_E>
Lp3+wA==

> <OMEGA_NBR>
    113089

$$$$
CACHE3HI_1704_64
  -OEChem-03092622533D

 52 55  0     0  0  0  0  0  0999 V2000
  -41.7406  -29.1414    2.9956 C   0  0  0  0  0  0  0  0  0  0  0  0
  -42.1479  -28.9726    1.6702 C   0  0  0  0  0  0  0  0  0  0  0  0
  -52.1408  -31.0003    8.7831 C   0  0  0  0  0  0  0  0  0  0  0  0
  -52.0723  -28.6064    9.1027 C   0  0  0  0  0  0  0  0  0  0  0  0
  -42.6768  -29.2699    4.0283 C   0  0  0  0  0  0  0  0  0  0  0  0
  -43.5040  -28.9249    1.3295 C   0  0  0  0  0  0  0  0  0  0  0  0
  -52.5203  -31.1667   10.1150 C   0  0  0  0  0  0  0  0  0  0  0  0
  -52.4517  -28.7727   10.4346 C   0  0  0  0  0  0  0  0  0  0  0  0
  -49.6680  -34.1544    0.8125 C   0  0  0  0  0  0  0  0  0  0  0  0
  -48.9017  -33.3954    1.6660 C   0  0  0  0  0  0  0  0  0  0  0  0
  -49.6852  -32.1884   -0.0038 C   0  0  0  0  0  0  0  0  0  0  0  0
  -51.9170  -29.7200    8.2770 C   0  0  0  0  0  0  0  0  0  0  0  0
  -44.0430  -29.2248    3.7037 C   0  0  0  0  0  0  0  0  0  0  0  0
  -44.4192  -29.0551    2.3742 C   0  0  0  0  0  0  0  0  0  0  0  0
  -52.6756  -30.0531   10.9408 C   0  0  0  0  0  0  0  0  0  0  0  0
  -46.1786  -29.2191    3.7056 C   0  0  0  0  0  0  0  0  0  0  0  0
  -51.5123  -29.5418    6.8593 C   0  0  0  0  0  0  0  0  0  0  0  0
  -48.0814  -29.4209    5.3429 C   0  0  0  0  0  0  0  0  0  0  0  0
  -49.5971  -29.3638    5.2921 C   0  0  0  0  0  0  0  0  0  0  0  0
  -47.2702  -30.2079    0.7197 C   0  0  0  0  0  0  0  0  0  0  0  0
  -48.2303  -30.9188    1.6862 C   0  0  0  0  0  0  0  0  0  0  0  0
  -46.6610  -28.9049    1.2603 C   0  0  0  0  0  0  0  0  0  0  0  0
  -50.1524  -33.3977   -0.2244 N   0  0  0  0  0  0  0  0  0  0  0  0
  -45.1494  -29.3249    4.5166 N   0  0  0  0  0  0  0  0  0  0  0  0
  -48.9222  -32.1385    1.1299 N   0  0  0  0  0  0  0  0  0  0  0  0
  -45.7905  -29.0552    2.4055 N   0  0  0  0  0  0  0  0  0  0  0  0
  -47.5053  -29.2594    4.0573 N   0  0  0  0  0  0  0  0  0  0  0  0
  -50.1438  -29.5472    6.6046 N   0  0  0  0  0  0  0  0  0  0  0  0
  -52.3786  -29.3824    6.0035 O   0  0  0  0  0  0  0  0  0  0  0  0
  -47.4681  -29.5569    6.3969 O   0  0  0  0  0  0  0  0  0  0  0  0
  -53.1441  -30.2591   12.5838 Cl  0  0  0  0  0  0  0  0  0  0  0  0
  -40.6797  -29.1754    3.2297 H   0  0  0  0  0  0  0  0  0  0  0  0
  -41.3983  -28.8762    0.8886 H   0  0  0  0  0  0  0  0  0  0  0  0
  -52.0219  -31.8745    8.1484 H   0  0  0  0  0  0  0  0  0  0  0  0
  -51.8994  -27.6045    8.7181 H   0  0  0  0  0  0  0  0  0  0  0  0
  -42.3493  -29.4028    5.0545 H   0  0  0  0  0  0  0  0  0  0  0  0
  -43.8204  -28.7935    0.3008 H   0  0  0  0  0  0  0  0  0  0  0  0
  -52.6914  -32.1706   10.4958 H   0  0  0  0  0  0  0  0  0  0  0  0
  -52.5687  -27.8960   11.0665 H   0  0  0  0  0  0  0  0  0  0  0  0
  -49.8954  -35.2074    0.8927 H   0  0  0  0  0  0  0  0  0  0  0  0
  -48.3649  -33.6324    2.5740 H   0  0  0  0  0  0  0  0  0  0  0  0
  -49.8634  -31.3197   -0.6228 H   0  0  0  0  0  0  0  0  0  0  0  0
  -49.9922  -30.1557    4.6499 H   0  0  0  0  0  0  0  0  0  0  0  0
  -49.9151  -28.3861    4.9184 H   0  0  0  0  0  0  0  0  0  0  0  0
  -46.4869  -30.8912    0.3739 H   0  0  0  0  0  0  0  0  0  0  0  0
  -47.8539  -29.9414   -0.1716 H   0  0  0  0  0  0  0  0  0  0  0  0
  -47.6903  -31.1758    2.6061 H   0  0  0  0  0  0  0  0  0  0  0  0
  -49.0128  -30.2102    1.9890 H   0  0  0  0  0  0  0  0  0  0  0  0
  -47.4691  -28.1977    1.4874 H   0  0  0  0  0  0  0  0  0  0  0  0
  -46.0716  -28.4352    0.4619 H   0  0  0  0  0  0  0  0  0  0  0  0
  -48.2037  -29.1578    3.2976 H   0  0  0  0  0  0  0  0  0  0  0  0
  -49.4897  -29.6229    7.3835 H   0  0  0  0  0  0  0  0  0  0  0  0
  1  2  1  0  0  0  0
  1  5  2  0  0  0  0
  2  6  2  0  0  0  0
  3  7  2  0  0  0  0
  3 12  1  0  0  0  0
  4  8  1  0  0  0  0
  4 12  2  0  0  0  0
  5 13  1  0  0  0  0
  6 14  1  0  0  0  0
  7 15  1  0  0  0  0
  8 15  2  0  0  0  0
  9 10  2  0  0  0  0
  9 23  1  0  0  0  0
 10 25  1  0  0  0  0
 11 23  2  0  0  0  0
 11 25  1  0  0  0  0
 12 17  1  0  0  0  0
 13 14  2  0  0  0  0
 13 24  1  0  0  0  0
 14 26  1  0  0  0  0
 15 31  1  0  0  0  0
 16 24  2  0  0  0  0
 16 26  1  0  0  0  0
 16 27  1  0  0  0  0
 17 28  1  0  0  0  0
 17 29  2  0  0  0  0
 18 19  1  0  0  0  0
 18 27  1  0  0  0  0
 18 30  2  0  0  0  0
 19 28  1  0  0  0  0
 20 21  1  0  0  0  0
 20 22  1  0  0  0  0
 21 25  1  0  0  0  0
 22 26  1  0  0  0  0
  1 32  1  0  0  0  0
  2 33  1  0  0  0  0
  3 34  1  0  0  0  0
  4 35  1  0  0  0  0
  5 36  1  0  0  0  0
  6 37  1  0  0  0  0
  7 38  1  0  0  0  0
  8 39  1  0  0  0  0
  9 40  1  0  0  0  0
 10 41  1  0  0  0  0
 11 42  1  0  0  0  0
 19 43  1  0  0  0  0
 19 44  1  0  0  0  0
 20 45  1  0  0  0  0
 20 46  1  0  0  0  0
 21 47  1  0  0  0  0
 21 48  1  0  0  0  0
 22 49  1  0  0  0  0
 22 50  1  0  0  0  0
 27 51  1  0  0  0  0
 28 52  1  0  0  0  0
M  END
> <POSIT::Probability>
0.24

> <POSIT::Method>
FRED

> <ReceptorTitle>
UCSF-P4578-REFINED_LIGAND-BOUND-STATE_A__DU__LA1_A-201(A)

> <OMEGA_C>
afYmwqUh6cF8uD9AfZcowt3H58GYydU/OZBQwqwA+MGRhwxBAUpQwv/Z5MHTpBFBA7Uqwtoo6sEY
6IBAFAQuwh9m58HILao/whRSwllV+cEz1yFBh85RwpYu5sFE9CZBD6xGwhieCMLA/08/TZtDwuCU
BcJAQNU/m71GwvjAAMIAoHq7/qpPwpjC7cGXbgRBDCwwwk3M6cFgCW1APq0xwuZw6MFA8xdAxbNS
wr9s8MFtDS9B5rY4wsLA6cEwKG1AngxOwoJV7MG9f9tAWlNAwvJd68G8+KpAdmNGwh7p6sEsWalA
sxQ9wr+p8cGwQDg/1etAws5Z98Hs1tc/06Q6wkA958FwUqE/GJxIwjKXBcKgz2W+9Zg0wlSZ6sFW
iJBAXrBDwtCNAMIkopA/eSk3wgBx6MEw9BlAZwU+wkET6sGg1YFAPJNIwqdg7MGoWNNAuINRwjYP
68GsHMBAYt89woB07MFHs8xAhJNUwr0S8sFOV0lBB7giwiFn6cE8s05A05clwogC58HAemM/cRZQ
wgr//sHoXwJB+JhPwvzV3MGAfQtBvGUpwvE468HIvqFAIEgvwi9Z5sGwAZo+BcRSwq6uAMLU7idB
VkZSwhgr38FaEDFB7pRHwljUDMIwhmQ/pnVBwp+HBsL0uyRAGXRHws6O+sGwcB+///dHwt4+8cFU
zJRABqlHwtAW48EsY51Ao/I5wiYh98Gwa78+bmo/whaI78HAvi++28I+wh1o+cG8ySZAEA1EwoOu
8cEwmf4/T+A9wuCU4cEQZL4/TEk4wkN748HAeOw+i9BAwjhD6cGoDFNAgPVFwsP77MFyRexA

> <OMEGA_E>
cMcAwQ==

> <OMEGA_NBR>
    114622

$$$$
CACHE3HI_1704_66
  -OEChem-03092622533D

 49 51  0     0  0  0  0  0  0999 V2000
  -54.6854  -26.2228    3.7125 C   0  0  0  0  0  0  0  0  0  0  0  0
  -55.3467  -26.0357    4.9263 C   0  0  0  0  0  0  0  0  0  0  0  0
  -53.7274  -27.2290    3.5887 C   0  0  0  0  0  0  0  0  0  0  0  0
  -55.0503  -26.8546    6.0161 C   0  0  0  0  0  0  0  0  0  0  0  0
  -53.5414  -28.6493   12.0902 C   0  0  0  0  0  0  0  0  0  0  0  0
  -52.6951  -29.5633   11.5066 C   0  0  0  0  0  0  0  0  0  0  0  0
  -53.4311  -28.0479    4.6784 C   0  0  0  0  0  0  0  0  0  0  0  0
  -53.8980  -27.7363   11.0695 C   0  0  0  0  0  0  0  0  0  0  0  0
  -54.0923  -27.8609    5.8923 C   0  0  0  0  0  0  0  0  0  0  0  0
  -53.2446  -28.1572    9.9348 C   0  0  0  0  0  0  0  0  0  0  0  0
  -52.4028  -29.1025    4.4889 C   0  0  0  0  0  0  0  0  0  0  0  0
  -54.7597  -26.5947   11.1569 C   0  0  0  0  0  0  0  0  0  0  0  0
  -48.7340  -28.8639    4.2883 C   0  0  0  0  0  0  0  0  0  0  0  0
  -50.0577  -29.9682    2.4091 C   0  0  0  0  0  0  0  0  0  0  0  0
  -47.5090  -29.7427    4.0915 C   0  0  0  0  0  0  0  0  0  0  0  0
  -48.9463  -30.9421    2.0502 C   0  0  0  0  0  0  0  0  0  0  0  0
  -50.0281  -29.5720    3.8861 C   0  0  0  0  0  0  0  0  0  0  0  0
  -56.9937  -25.8732   11.6668 C   0  0  0  0  0  0  0  0  0  0  0  0
  -53.1900  -27.6440    8.5225 C   0  0  0  0  0  0  0  0  0  0  0  0
  -51.1426  -28.6553    4.1324 N   0  0  0  0  0  0  0  0  0  0  0  0
  -52.7178  -30.2807    4.6341 O   0  0  0  0  0  0  0  0  0  0  0  0
  -54.4210  -25.4153   10.9173 O   0  0  0  0  0  0  0  0  0  0  0  0
  -46.3802  -31.3516    2.3630 O   0  0  0  0  0  0  0  0  0  0  0  0
  -47.1523  -29.0849    1.5749 O   0  0  0  0  0  0  0  0  0  0  0  0
  -52.5095  -29.2705   10.1927 O   0  0  0  0  0  0  0  0  0  0  0  0
  -56.0372  -26.9308   11.5427 O   0  0  0  0  0  0  0  0  0  0  0  0
  -53.7513  -28.8819    7.3215 S   0  0  0  0  0  0  0  0  0  0  0  0
  -47.3377  -30.2639    2.3983 S   0  0  0  0  0  0  0  0  0  0  0  0
  -54.9164  -25.5851    2.8643 H   0  0  0  0  0  0  0  0  0  0  0  0
  -56.0926  -25.2521    5.0228 H   0  0  0  0  0  0  0  0  0  0  0  0
  -53.2193  -27.3641    2.6372 H   0  0  0  0  0  0  0  0  0  0  0  0
  -55.5782  -26.6907    6.9525 H   0  0  0  0  0  0  0  0  0  0  0  0
  -53.8586  -28.6460   13.1232 H   0  0  0  0  0  0  0  0  0  0  0  0
  -52.1693  -30.4340   11.8703 H   0  0  0  0  0  0  0  0  0  0  0  0
  -48.8066  -28.5827    5.3394 H   0  0  0  0  0  0  0  0  0  0  0  0
  -48.6167  -27.9432    3.7181 H   0  0  0  0  0  0  0  0  0  0  0  0
  -49.9822  -29.0821    1.7806 H   0  0  0  0  0  0  0  0  0  0  0  0
  -51.0209  -30.4319    2.1957 H   0  0  0  0  0  0  0  0  0  0  0  0
  -46.5906  -29.2153    4.3657 H   0  0  0  0  0  0  0  0  0  0  0  0
  -47.5795  -30.6483    4.7008 H   0  0  0  0  0  0  0  0  0  0  0  0
  -49.0379  -31.8647    2.6306 H   0  0  0  0  0  0  0  0  0  0  0  0
  -48.9694  -31.2003    0.9874 H   0  0  0  0  0  0  0  0  0  0  0  0
  -50.1929  -30.4181    4.4993 H   0  0  0  0  0  0  0  0  0  0  0  0
  -57.9569  -26.2859   11.9777 H   0  0  0  0  0  0  0  0  0  0  0  0
  -56.6436  -25.1635   12.4202 H   0  0  0  0  0  0  0  0  0  0  0  0
  -57.0977  -25.3606   10.7077 H   0  0  0  0  0  0  0  0  0  0  0  0
  -53.8140  -26.7493    8.4226 H   0  0  0  0  0  0  0  0  0  0  0  0
  -52.1682  -27.3420    8.2682 H   0  0  0  0  0  0  0  0  0  0  0  0
  -50.9708  -27.6705    3.9688 H   0  0  0  0  0  0  0  0  0  0  0  0
  1  2  1  0  0  0  0
  1  3  2  0  0  0  0
  2  4  2  0  0  0  0
  3  7  1  0  0  0  0
  4  9  1  0  0  0  0
  5  6  2  0  0  0  0
  5  8  1  0  0  0  0
  6 25  1  0  0  0  0
  7  9  2  0  0  0  0
  7 11  1  0  0  0  0
  8 10  2  0  0  0  0
  8 12  1  0  0  0  0
  9 27  1  0  0  0  0
 10 19  1  0  0  0  0
 10 25  1  0  0  0  0
 11 20  1  0  0  0  0
 11 21  2  0  0  0  0
 12 22  2  0  0  0  0
 12 26  1  0  0  0  0
 13 15  1  0  0  0  0
 13 17  1  0  0  0  0
 14 16  1  0  0  0  0
 14 17  1  0  0  0  0
 15 28  1  0  0  0  0
 16 28  1  0  0  0  0
 17 20  1  0  0  0  0
 18 26  1  0  0  0  0
 19 27  1  0  0  0  0
 23 28  2  0  0  0  0
 24 28  2  0  0  0  0
  1 29  1  0  0  0  0
  2 30  1  0  0  0  0
  3 31  1  0  0  0  0
  4 32  1  0  0  0  0
  5 33  1  0  0  0  0
  6 34  1  0  0  0  0
 13 35  1  0  0  0  0
 13 36  1  0  0  0  0
 14 37  1  0  0  0  0
 14 38  1  0  0  0  0
 15 39  1  0  0  0  0
 15 40  1  0  0  0  0
 16 41  1  0  0  0  0
 16 42  1  0  0  0  0
 17 43  1  0  0  0  0
 18 44  1  0  0  0  0
 18 45  1  0  0  0  0
 18 46  1  0  0  0  0
 19 47  1  0  0  0  0
 19 48  1  0  0  0  0
 20 49  1  0  0  0  0
M  END
> <POSIT::Probability>
0.05

> <POSIT::Method>
FRED

> <ReceptorTitle>
UCSF-P4578-REFINED_LIGAND-BOUND-STATE_A__DU__LA1_A-201(A)

> <OMEGA_C>
2L1awkDI0cG3mW1A/mJdwglJ0MGbpJ1A4OhWwuvU2cHerWVAijNcwkrW1sGCg8BAXSpWwrsx5cFN
cUFBxcdSwqmB7MHqGjhBarlVwixi4MHWtZVAlpdXwvTj3cHDHDFBiF5Ywgbj3sFXjbxAffpUwu1B
4cEH9R5BhJxRwu7R6MFXpY9A8glbwt7B1MGegjJBn+9Cwkfp5sH5OYlAFztIwvG+78H/LhpAMgk+
whrx7cE37YJAAclDwmmJ98EuNwNA0xxIwmqT7MFgtnhAjfljwjr8zsEOqzpBhMJUwuIm3cEZXAhB
DpJMwgM+5cGPPIRA/95SwtE+8sHnSpRAEa9ZwnBSy8FerS5BX4U5wgXQ+sEhPBdA9ps8wumt6MEa
lck/xwlSwvIp6sFWFSNBECZgwmFy18HwrjhBWgFXwgsO58F+SepAzlk9woMc8sFofRlAbKpbwj+u
zME4UDdA1F5gwlsEysGJuqBAj+BUwsTp2sEGyChAG1BewpmG1cHCet5AO29XwvAq5cG6+FFBVq1Q
ws1488Gc7D1B+DlDwnWp5MGI3KpAfHdCwr+L38Hi9W1Ayu1HwhKo6MHk6uM/ZBVMwoJ088HMhQxA
zVw6wvq46cF+s4tAalE+ws4v9cGhbJZAyyZEwtzq/sGKXChAs+BDwiGa+cGoxHw/kcVIwjRY88E1
+o9A39Nnwp1J0sHBpD9BBJNiwtdOycE2uUZBCGRkwmziysGpUitBi0FXwpb+1cHwwgZBSKxQwnq8
2sGkSgRBDuJLwitd3cEYAH5A

> <OMEGA_E>
caDRwA==

> <OMEGA_NBR>
    116091

$$$$
CACHE3HI_1704_86
  -OEChem-03092622533D

 31 32  0     0  0  0  0  0  0999 V2000
  -52.4104  -30.6767    9.3393 C   0  0  0  0  0  0  0  0  0  0  0  0
  -51.3823  -30.9360    8.3872 C   0  0  0  0  0  0  0  0  0  0  0  0
  -53.1791  -29.5890    8.9878 C   0  0  0  0  0  0  0  0  0  0  0  0
  -46.8317  -29.5042    3.8646 C   0  0  0  0  0  0  0  0  0  0  0  0
  -51.4048  -30.0360    7.3440 C   0  0  0  0  0  0  0  0  0  0  0  0
  -46.0455  -29.3861    4.9838 C   0  0  0  0  0  0  0  0  0  0  0  0
  -48.0946  -29.6482    5.5404 C   0  0  0  0  0  0  0  0  0  0  0  0
  -46.3999  -29.4659    2.5018 C   0  0  0  0  0  0  0  0  0  0  0  0
  -50.5468  -29.9637    6.2061 C   0  0  0  0  0  0  0  0  0  0  0  0
  -44.6122  -29.1947    5.2303 C   0  0  0  0  0  0  0  0  0  0  0  0
  -43.5366  -27.6619    1.0340 C   0  0  0  0  0  0  0  0  0  0  0  0
  -44.7526  -28.5630    1.0006 C   0  0  0  0  0  0  0  0  0  0  0  0
  -48.1437  -29.6721    4.2274 N   0  0  0  0  0  0  0  0  0  0  0  0
  -49.1674  -29.7779    6.4564 N   0  0  0  0  0  0  0  0  0  0  0  0
  -46.9501  -30.0659    1.5507 O   0  0  0  0  0  0  0  0  0  0  0  0
  -51.0256  -30.0425    5.0483 O   0  0  0  0  0  0  0  0  0  0  0  0
  -46.8546  -29.4778    6.0756 O   0  0  0  0  0  0  0  0  0  0  0  0
  -45.2825  -28.6805    2.3252 O   0  0  0  0  0  0  0  0  0  0  0  0
  -52.6612  -28.8850    7.5149 S   0  0  0  0  0  0  0  0  0  0  0  0
  -52.5776  -31.2586   10.2363 H   0  0  0  0  0  0  0  0  0  0  0  0
  -50.6652  -31.7432    8.4682 H   0  0  0  0  0  0  0  0  0  0  0  0
  -54.0201  -29.1741    9.5252 H   0  0  0  0  0  0  0  0  0  0  0  0
  -44.3315  -28.1254    5.2880 H   0  0  0  0  0  0  0  0  0  0  0  0
  -43.9838  -29.6239    4.4261 H   0  0  0  0  0  0  0  0  0  0  0  0
  -44.2964  -29.6670    6.1790 H   0  0  0  0  0  0  0  0  0  0  0  0
  -43.8001  -26.6635    1.3944 H   0  0  0  0  0  0  0  0  0  0  0  0
  -42.7637  -28.0809    1.6865 H   0  0  0  0  0  0  0  0  0  0  0  0
  -43.0959  -27.5723    0.0360 H   0  0  0  0  0  0  0  0  0  0  0  0
  -44.4823  -29.5595    0.6394 H   0  0  0  0  0  0  0  0  0  0  0  0
  -45.5247  -28.1426    0.3486 H   0  0  0  0  0  0  0  0  0  0  0  0
  -48.9073  -29.7304    7.4388 H   0  0  0  0  0  0  0  0  0  0  0  0
  1  2  1  0  0  0  0
  1  3  2  0  0  0  0
  2  5  2  0  0  0  0
  3 19  1  0  0  0  0
  4  6  2  0  0  0  0
  4  8  1  0  0  0  0
  4 13  1  0  0  0  0
  5  9  1  0  0  0  0
  5 19  1  0  0  0  0
  6 10  1  0  0  0  0
  6 17  1  0  0  0  0
  7 13  2  0  0  0  0
  7 14  1  0  0  0  0
  7 17  1  0  0  0  0
  8 15  2  0  0  0  0
  8 18  1  0  0  0  0
  9 14  1  0  0  0  0
  9 16  2  0  0  0  0
 11 12  1  0  0  0  0
 12 18  1  0  0  0  0
  1 20  1  0  0  0  0
  2 21  1  0  0  0  0
  3 22  1  0  0  0  0
 10 23  1  0  0  0  0
 10 24  1  0  0  0  0
 10 25  1  0  0  0  0
 11 26  1  0  0  0  0
 11 27  1  0  0  0  0
 11 28  1  0  0  0  0
 12 29  1  0  0  0  0
 12 30  1  0  0  0  0
 14 31  1  0  0  0  0
M  END
> <POSIT::Probability>
0.18

> <POSIT::Method>
FRED

> <ReceptorTitle>
UCSF-P4578-REFINED_LIGAND-BOUND-STATE_A__DU__LA1_A-201(A)

> <OMEGA_C>
PaRRwu9p9cGmbRVBg4dNwup898H6MQZBX7dUwku27MH3zQ9BqVM7wrII7MFaVndAi55NwqVJ8MHa
AetAnC44ws4W68E9e59A52BAwm4v7cHsSrFAhpk5wje668HGHSBA4S9KwsK178FImMZA6XIywtiO
6cHZXqdAcCUuwpVL3cEIW4Q/sgIzwvaA5ME4FIA/HJNAwoNg7cGvRodAeKtEwi457sGxms5A8sw7
wuKG8MF8fMY/NhpMwhVX8MEAjKFAEms7wqDS68Fwa8JAPSE1wq5x5cEI0BRAFaVSwoYU58FYevBA
dU9Swo4R+sEDyCNBKKlKwgry/cGxfQdBlBRYwoRk6cE1ZxhBblMxwusA4cELN6lAde8vwrr97ME4
oo1Agi8xwhdW7cEKusVAVzMvwutO1cEgfbI/Eg4rwsel4MFI4Nc/PWIswviT3MGARxM94+0xwtt5
7MGosCM/TRk2whwk4cFwgLI+FKFDwufX7cG6Cu5A

> <OMEGA_E>
4anqwA==

> <OMEGA_NBR>
    117196

$$$$
CACHE3HI_1705_68
  -OEChem-03092622533D

 44 46  0     1  0  0  0  0  0999 V2000
  -54.6872  -27.3630   10.3776 C   0  0  0  0  0  0  0  0  0  0  0  0
  -47.0340  -28.8234    3.7352 C   0  0  0  0  0  0  0  0  0  0  0  0
  -48.3780  -29.1245    4.0091 C   0  0  0  0  0  0  0  0  0  0  0  0
  -55.2744  -26.6024   11.3914 C   0  0  0  0  0  0  0  0  0  0  0  0
  -56.2832  -29.1331   10.8750 C   0  0  0  0  0  0  0  0  0  0  0  0
  -46.5454  -29.2098    6.0809 C   0  0  0  0  0  0  0  0  0  0  0  0
  -55.1719  -28.6651   10.1343 C   0  0  0  0  0  0  0  0  0  0  0  0
  -46.0940  -28.8678    4.7804 C   0  0  0  0  0  0  0  0  0  0  0  0
  -48.7564  -29.4658    5.3309 C   0  0  0  0  0  0  0  0  0  0  0  0
  -56.3433  -27.1480   12.1271 C   0  0  0  0  0  0  0  0  0  0  0  0
  -54.4926  -29.5175    9.1479 C   0  0  0  0  0  0  0  0  0  0  0  0
  -50.1552  -29.7901    5.6707 C   0  0  0  0  0  0  0  0  0  0  0  0
  -53.5549  -30.7216    6.3967 C   0  0  0  0  0  0  0  0  0  0  0  0
  -52.4756  -31.6213    7.0265 C   0  0  0  0  0  0  0  0  0  0  0  0
  -52.9429  -29.5038    7.1116 C   0  0  2  0  0  0  0  0  0  0  0  0
  -51.7693  -30.3770    7.5879 C   0  0  2  0  0  0  0  0  0  0  0  0
  -43.8180  -28.6922    5.5736 C   0  0  0  0  0  0  0  0  0  0  0  0
  -47.8390  -29.4971    6.3285 N   0  0  0  0  0  0  0  0  0  0  0  0
  -56.8461  -28.3768   11.8476 N   0  0  0  0  0  0  0  0  0  0  0  0
  -56.8686  -26.4193   13.1808 N   0  0  0  0  0  0  0  0  0  0  0  0
  -53.7451  -28.8787    8.1621 N   0  0  0  0  0  0  0  0  0  0  0  0
  -50.4508  -30.0619    7.0124 N   0  0  0  0  0  0  0  0  0  0  0  0
  -54.5433  -30.7393    9.2485 O   0  0  0  0  0  0  0  0  0  0  0  0
  -51.0149  -29.8059    4.7956 O   0  0  0  0  0  0  0  0  0  0  0  0
  -44.7691  -28.5788    4.4867 O   0  0  0  0  0  0  0  0  0  0  0  0
  -53.8756  -26.9607    9.7896 H   0  0  0  0  0  0  0  0  0  0  0  0
  -46.7259  -28.5609    2.7340 H   0  0  0  0  0  0  0  0  0  0  0  0
  -49.1153  -29.0961    3.2205 H   0  0  0  0  0  0  0  0  0  0  0  0
  -54.9128  -25.6081   11.6082 H   0  0  0  0  0  0  0  0  0  0  0  0
  -56.6898  -30.1106   10.6610 H   0  0  0  0  0  0  0  0  0  0  0  0
  -45.8345  -29.2409    6.8934 H   0  0  0  0  0  0  0  0  0  0  0  0
  -53.5122  -30.6680    5.2989 H   0  0  0  0  0  0  0  0  0  0  0  0
  -54.5811  -30.9607    6.7125 H   0  0  0  0  0  0  0  0  0  0  0  0
  -52.8563  -32.3079    7.7970 H   0  0  0  0  0  0  0  0  0  0  0  0
  -51.8782  -32.1857    6.2954 H   0  0  0  0  0  0  0  0  0  0  0  0
  -52.5952  -28.7634    6.3761 H   0  0  0  0  0  0  0  0  0  0  0  0
  -51.7337  -30.4133    8.6867 H   0  0  0  0  0  0  0  0  0  0  0  0
  -42.8119  -28.4377    5.2091 H   0  0  0  0  0  0  0  0  0  0  0  0
  -44.1008  -28.0013    6.3816 H   0  0  0  0  0  0  0  0  0  0  0  0
  -43.8195  -29.7236    5.9558 H   0  0  0  0  0  0  0  0  0  0  0  0
  -57.5991  -26.9439   13.6180 H   0  0  0  0  0  0  0  0  0  0  0  0
  -56.1478  -26.2317   13.8481 H   0  0  0  0  0  0  0  0  0  0  0  0
  -53.7585  -27.8788    8.1738 H   0  0  0  0  0  0  0  0  0  0  0  0
  -49.6811  -30.0396    7.6505 H   0  0  0  0  0  0  0  0  0  0  0  0
  1  4  2  0  0  0  0
  1  7  1  0  0  0  0
  2  3  2  0  0  0  0
  2  8  1  0  0  0  0
  3  9  1  0  0  0  0
  4 10  1  0  0  0  0
  5  7  2  0  0  0  0
  5 19  1  0  0  0  0
  6  8  2  0  0  0  0
  6 18  1  0  0  0  0
  7 11  1  0  0  0  0
  8 25  1  0  0  0  0
  9 12  1  0  0  0  0
  9 18  2  0  0  0  0
 10 19  2  0  0  0  0
 10 20  1  0  0  0  0
 11 21  1  0  0  0  0
 11 23  2  0  0  0  0
 12 22  1  0  0  0  0
 12 24  2  0  0  0  0
 13 14  1  0  0  0  0
 13 15  1  0  0  0  0
 14 16  1  0  0  0  0
 15 16  1  0  0  0  0
 15 21  1  0  0  0  0
 16 22  1  0  0  0  0
 17 25  1  0  0  0  0
  1 26  1  0  0  0  0
  2 27  1  0  0  0  0
  3 28  1  0  0  0  0
  4 29  1  0  0  0  0
  5 30  1  0  0  0  0
  6 31  1  0  0  0  0
 13 32  1  0  0  0  0
 13 33  1  0  0  0  0
 14 34  1  0  0  0  0
 14 35  1  0  0  0  0
 15 36  1  0  0  0  0
 16 37  1  0  0  0  0
 17 38  1  0  0  0  0
 17 39  1  0  0  0  0
 17 40  1  0  0  0  0
 20 41  1  0  0  0  0
 20 42  1  0  0  0  0
 21 43  1  0  0  0  0
 22 44  1  0  0  0  0
M  END
> <POSIT::Probability>
0.72

> <POSIT::Method>
SHAPEFIT

> <ReceptorTitle>
UCSF-P4578-REFINED_LIGAND-BOUND-STATE_A__DU__LA1_A-201(A)

> <OMEGA_C>
vL9awnXn2sF0CiZB1iI8wleW5sE7Dm9AFINBwuz+6MGgSoBA/xhdwrjR1MEwQzZBCCJhwq8Q6cHk
/y1BdS46wrSt6cF+lsJAAbBcwjlS5cFIJiJBRmA4wk7x5sE5+ZhAjQZDwgO668H6lqpAkl9hwgIv
2cFuCEJBbPhZwsYj7MHmXRJB955Iwg1S7sFOdrVAKzhWwu7F9cHgscxA/+ZRwm74/MFA2eBAiMVT
wrAH7MHpkeNAzRNPwjIE88G8z/JArEUvwo6J5cHWWrJAHls/wv/568F6g8pAY2Jjwq8D48G2jz1B
ZnljwtFa08GY5FJBBftWwoQH58HilwJBks1JwtN+8MGkZeBAWCxawg7q9cH5+RNBQw9MwpVy7sG2
dZlAnBMzwmeh5MGxko9AkYBXwouv18EaohxBUuc6wrR85MFk+S5AFHZEwsvE6MHrG05AqqZbwmbd
zMH/ujlBVcJiwmni8MFKkypBkFY3wlLt6cFyltxAdwxWwgtY9cEykKlABlNawm6v98HyzNZA5WxT
wkg7AcLngPlAP4NPwhy+AMKFc8lAcWFSwl4b5sEMCcxAWu9OwnxO88Go/ApBWD8rwnKA48HjsKZA
LGcwwsAC4MHVNcxAHkcvwvzJ7cHxlb5AeWVmwiCN18FY41lBXZdgwoLa0cH1kV1BsAhXwtcH38EW
yAJBcblGwhtR8MGs0PRA

> <OMEGA_E>
VDxiPw==

> <OMEGA_NBR>
    118598

$$$$
CACHE3HI_1706_24
  -OEChem-03092622533D

 44 46  0     0  0  0  0  0  0999 V2000
  -54.6895  -28.7349    7.0714 C   0  0  0  0  0  0  0  0  0  0  0  0
  -55.0993  -28.4786    8.3750 C   0  0  0  0  0  0  0  0  0  0  0  0
  -48.8880  -29.7405    4.6396 C   0  0  0  0  0  0  0  0  0  0  0  0
  -53.3989  -29.1933    6.8313 C   0  0  0  0  0  0  0  0  0  0  0  0
  -47.5063  -29.8382    4.8911 C   0  0  0  0  0  0  0  0  0  0  0  0
  -54.1871  -28.6950    9.3959 C   0  0  0  0  0  0  0  0  0  0  0  0
  -52.5629  -29.3777    7.9207 C   0  0  0  0  0  0  0  0  0  0  0  0
  -49.4684  -29.8121    5.8827 C   0  0  0  0  0  0  0  0  0  0  0  0
  -46.7357  -29.0288    2.6127 C   0  0  0  0  0  0  0  0  0  0  0  0
  -45.0653  -29.2764    4.4808 C   0  0  0  0  0  0  0  0  0  0  0  0
  -45.5482  -28.9817    1.6575 C   0  0  0  0  0  0  0  0  0  0  0  0
  -43.9769  -29.2151    3.4151 C   0  0  0  0  0  0  0  0  0  0  0  0
  -46.3737  -29.8174    3.8815 C   0  0  0  0  0  0  0  0  0  0  0  0
  -49.5631  -29.5948    3.3383 C   0  0  0  0  0  0  0  0  0  0  0  0
  -54.5927  -28.4308   10.8074 C   0  0  0  0  0  0  0  0  0  0  0  0
  -51.1593  -29.8710    7.7161 C   0  0  0  0  0  0  0  0  0  0  0  0
  -47.2260  -29.9620    6.1911 N   0  0  0  0  0  0  0  0  0  0  0  0
  -52.9253  -29.1395    9.2011 N   0  0  0  0  0  0  0  0  0  0  0  0
  -48.4394  -29.9429    6.7683 N   0  0  0  0  0  0  0  0  0  0  0  0
  -50.7440  -29.7770    6.3140 N   0  0  0  0  0  0  0  0  0  0  0  0
  -44.4010  -28.4291    2.3019 O   0  0  0  0  0  0  0  0  0  0  0  0
  -52.9892  -29.4465    5.5621 O   0  0  0  0  0  0  0  0  0  0  0  0
  -55.3795  -28.5754    6.2479 H   0  0  0  0  0  0  0  0  0  0  0  0
  -56.1031  -28.1207    8.5755 H   0  0  0  0  0  0  0  0  0  0  0  0
  -47.0119  -28.0025    2.8896 H   0  0  0  0  0  0  0  0  0  0  0  0
  -47.6039  -29.4745    2.1134 H   0  0  0  0  0  0  0  0  0  0  0  0
  -44.7364  -29.8998    5.3204 H   0  0  0  0  0  0  0  0  0  0  0  0
  -45.2369  -28.2657    4.8745 H   0  0  0  0  0  0  0  0  0  0  0  0
  -45.3061  -29.9793    1.2726 H   0  0  0  0  0  0  0  0  0  0  0  0
  -45.7871  -28.3454    0.7992 H   0  0  0  0  0  0  0  0  0  0  0  0
  -43.0778  -28.7483    3.8293 H   0  0  0  0  0  0  0  0  0  0  0  0
  -43.6997  -30.2181    3.0698 H   0  0  0  0  0  0  0  0  0  0  0  0
  -46.2022  -30.8741    3.5881 H   0  0  0  0  0  0  0  0  0  0  0  0
  -49.8108  -30.5712    2.8851 H   0  0  0  0  0  0  0  0  0  0  0  0
  -48.9327  -29.0692    2.5987 H   0  0  0  0  0  0  0  0  0  0  0  0
  -50.5036  -29.0262    3.4369 H   0  0  0  0  0  0  0  0  0  0  0  0
  -55.0273  -29.3258   11.2710 H   0  0  0  0  0  0  0  0  0  0  0  0
  -55.3546  -27.6423   10.8612 H   0  0  0  0  0  0  0  0  0  0  0  0
  -53.7252  -28.1178   11.4009 H   0  0  0  0  0  0  0  0  0  0  0  0
  -50.4538  -29.2876    8.3170 H   0  0  0  0  0  0  0  0  0  0  0  0
  -51.0618  -30.9171    8.0245 H   0  0  0  0  0  0  0  0  0  0  0  0
  -48.4931  -30.0230    7.7759 H   0  0  0  0  0  0  0  0  0  0  0  0
  -51.5164  -29.6777    5.6358 H   0  0  0  0  0  0  0  0  0  0  0  0
  -53.7218  -29.2542    4.9469 H   0  0  0  0  0  0  0  0  0  0  0  0
  1  2  2  0  0  0  0
  1  4  1  0  0  0  0
  2  6  1  0  0  0  0
  3  5  1  0  0  0  0
  3  8  2  0  0  0  0
  3 14  1  0  0  0  0
  4  7  2  0  0  0  0
  4 22  1  0  0  0  0
  5 13  1  0  0  0  0
  5 17  2  0  0  0  0
  6 15  1  0  0  0  0
  6 18  2  0  0  0  0
  7 16  1  0  0  0  0
  7 18  1  0  0  0  0
  8 19  1  0  0  0  0
  8 20  1  0  0  0  0
  9 11  1  0  0  0  0
  9 13  1  0  0  0  0
 10 12  1  0  0  0  0
 10 13  1  0  0  0  0
 11 21  1  0  0  0  0
 12 21  1  0  0  0  0
 16 20  1  0  0  0  0
 17 19  1  0  0  0  0
  1 23  1  0  0  0  0
  2 24  1  0  0  0  0
  9 25  1  0  0  0  0
  9 26  1  0  0  0  0
 10 27  1  0  0  0  0
 10 28  1  0  0  0  0
 11 29  1  0  0  0  0
 11 30  1  0  0  0  0
 12 31  1  0  0  0  0
 12 32  1  0  0  0  0
 13 33  1  0  0  0  0
 14 34  1  0  0  0  0
 14 35  1  0  0  0  0
 14 36  1  0  0  0  0
 15 37  1  0  0  0  0
 15 38  1  0  0  0  0
 15 39  1  0  0  0  0
 16 40  1  0  0  0  0
 16 41  1  0  0  0  0
 19 42  1  0  0  0  0
 20 43  1  0  0  0  0
 22 44  1  0  0  0  0
M  END
> <POSIT::Probability>
0.14

> <POSIT::Method>
HYBRID

> <ReceptorTitle>
UCSF-P4578-REFINED_LIGAND-BOUND-STATE_A__DU__LA1_A-201(A)

> <OMEGA_C>
A8Jawijh5cGlSOJApWVcwhPU48EqAAZBVo1Dwp/s7cHEd5RAhphVwtaL6cEFmtpAewY+wqy07sHe
g5xAm79YwmSP5cGcVRZBakBSwpEF68FBdv1Aod9FwiB/7sGyPrxAVvE6wuQ66ME1NydA5EI0wgY2
6sGOYo9AXzE2woTa58GyJ9Q/VugvwpG46cGpkVpAon45whSK7sF7anhAkkBGwhjC7MHJplVA415a
wlty48Ep6yxBE6NMwtb37sEk6vZAcOc8wjay78FEHcZAdbNTwr4d6cGSNxNB+MFBwv+K78GhldhA
0flKwkA37sHiC8pAppoxwuZu48GMUhNA+vRTwoWS68HI/LFApYRdwmya5MF37sdAlmlgwiL34MEk
NQlBKAw8whgF4MEo7zhAZWo+wtTL68GUQQdADvIywroy78HVQKpAlPI0wiQg4sEq/JtAcTk1woTV
78F25KI/8yU3wmzD4sEklkw/ok8swnP85cF1EnVAeswuwrC+8cHhd0RAD884wjH+9sHzomVANj5H
wuiR9MGupThAG7tDwsCN6MHLUCZAtANKwr416MHh9ltA7xtcwjib6sEQVjRBE2tdwoQj3cFixy1B
muZWwjTx4MFBajZBqNBJwgpN6sFaEgVBPT9MwkxW98FuZABB7/hBwhYv8MGH1PhAxBBOwgRs7cG9
WLRAIeNWwqsI6sHgTJ5A

> <OMEGA_E>
+pPAwA==

> <OMEGA_NBR>
    119973

$$$$
CACHE3HI_1706_66
  -OEChem-03092622533D

 42 45  0     1  0  0  0  0  0999 V2000
  -52.6805  -30.3976    4.8338 C   0  0  0  0  0  0  0  0  0  0  0  0
  -51.7997  -31.3799    5.2865 C   0  0  0  0  0  0  0  0  0  0  0  0
  -52.1870  -29.1727    4.3846 C   0  0  0  0  0  0  0  0  0  0  0  0
  -42.2922  -31.6511    3.0196 C   0  0  0  0  0  0  0  0  0  0  0  0
  -43.4250  -31.2348    2.3347 C   0  0  0  0  0  0  0  0  0  0  0  0
  -50.4259  -31.1377    5.2899 C   0  0  0  0  0  0  0  0  0  0  0  0
  -50.8132  -28.9305    4.3879 C   0  0  0  0  0  0  0  0  0  0  0  0
  -41.2334  -30.7707    3.0993 C   0  0  0  0  0  0  0  0  0  0  0  0
  -43.4781  -29.9565    1.7618 C   0  0  0  0  0  0  0  0  0  0  0  0
  -49.9325  -29.9128    4.8406 C   0  0  0  0  0  0  0  0  0  0  0  0
  -42.3391  -29.1390    1.8644 C   0  0  0  0  0  0  0  0  0  0  0  0
  -46.3107  -29.5549    2.8808 C   0  0  0  0  0  0  0  0  0  0  0  0
  -48.6247  -30.3883    2.1752 C   0  0  0  0  0  0  0  0  0  0  0  0
  -47.9172  -31.5457    2.8126 C   0  0  0  0  0  0  0  0  0  0  0  0
  -44.7080  -27.9661    0.8254 C   0  0  0  0  0  0  0  0  0  0  0  0
  -43.3491  -27.4740    0.3466 C   0  0  0  0  0  0  0  0  0  0  0  0
  -44.6968  -29.4905    0.9914 C   0  0  2  0  0  0  0  0  0  0  0  0
  -47.6362  -30.1487    3.2751 C   0  0  0  0  0  0  0  0  0  0  0  0
  -41.2318  -29.5396    2.5428 N   0  0  0  0  0  0  0  0  0  0  0  0
  -42.3180  -27.8816    1.2761 N   0  0  0  0  0  0  0  0  0  0  0  0
  -45.9380  -29.9143    1.5978 N   0  0  0  0  0  0  0  0  0  0  0  0
  -45.6600  -28.8519    3.6502 O   0  0  0  0  0  0  0  0  0  0  0  0
  -48.1544  -29.6004    4.8429 S   0  0  0  0  0  0  0  0  0  0  0  0
  -53.7499  -30.5864    4.8309 H   0  0  0  0  0  0  0  0  0  0  0  0
  -52.1837  -32.3339    5.6354 H   0  0  0  0  0  0  0  0  0  0  0  0
  -52.8725  -28.4079    4.0316 H   0  0  0  0  0  0  0  0  0  0  0  0
  -42.2431  -32.6335    3.4752 H   0  0  0  0  0  0  0  0  0  0  0  0
  -44.2731  -31.9112    2.2462 H   0  0  0  0  0  0  0  0  0  0  0  0
  -49.7554  -31.9163    5.6456 H   0  0  0  0  0  0  0  0  0  0  0  0
  -50.4477  -27.9696    4.0337 H   0  0  0  0  0  0  0  0  0  0  0  0
  -40.3260  -31.0378    3.6299 H   0  0  0  0  0  0  0  0  0  0  0  0
  -48.3597  -30.1399    1.1536 H   0  0  0  0  0  0  0  0  0  0  0  0
  -49.6798  -30.2658    2.3917 H   0  0  0  0  0  0  0  0  0  0  0  0
  -48.4991  -32.1962    3.4556 H   0  0  0  0  0  0  0  0  0  0  0  0
  -47.1790  -32.0713    2.2173 H   0  0  0  0  0  0  0  0  0  0  0  0
  -44.9817  -27.4762    1.7643 H   0  0  0  0  0  0  0  0  0  0  0  0
  -45.4713  -27.6843    0.0912 H   0  0  0  0  0  0  0  0  0  0  0  0
  -43.1288  -27.8861   -0.6425 H   0  0  0  0  0  0  0  0  0  0  0  0
  -43.3456  -26.3830    0.2542 H   0  0  0  0  0  0  0  0  0  0  0  0
  -44.6889  -29.9338   -0.0212 H   0  0  0  0  0  0  0  0  0  0  0  0
  -41.6506  -27.2058    1.6160 H   0  0  0  0  0  0  0  0  0  0  0  0
  -46.5405  -30.5262    1.0568 H   0  0  0  0  0  0  0  0  0  0  0  0
  1  2  1  0  0  0  0
  1  3  2  0  0  0  0
  2  6  2  0  0  0  0
  3  7  1  0  0  0  0
  4  5  1  0  0  0  0
  4  8  2  0  0  0  0
  5  9  2  0  0  0  0
  6 10  1  0  0  0  0
  7 10  2  0  0  0  0
  8 19  1  0  0  0  0
  9 11  1  0  0  0  0
  9 17  1  0  0  0  0
 10 23  1  0  0  0  0
 11 19  2  0  0  0  0
 11 20  1  0  0  0  0
 12 18  1  0  0  0  0
 12 21  1  0  0  0  0
 12 22  2  0  0  0  0
 13 14  1  0  0  0  0
 13 18  1  0  0  0  0
 14 18  1  0  0  0  0
 15 16  1  0  0  0  0
 15 17  1  0  0  0  0
 16 20  1  0  0  0  0
 17 21  1  0  0  0  0
 18 23  1  0  0  0  0
  1 24  1  0  0  0  0
  2 25  1  0  0  0  0
  3 26  1  0  0  0  0
  4 27  1  0  0  0  0
  5 28  1  0  0  0  0
  6 29  1  0  0  0  0
  7 30  1  0  0  0  0
  8 31  1  0  0  0  0
 13 32  1  0  0  0  0
 13 33  1  0  0  0  0
 14 34  1  0  0  0  0
 14 35  1  0  0  0  0
 15 36  1  0  0  0  0
 15 37  1  0  0  0  0
 16 38  1  0  0  0  0
 16 39  1  0  0  0  0
 17 40  1  0  0  0  0
 20 41  1  0  0  0  0
 21 42  1  0  0  0  0
M  END
> <POSIT::Probability>
0.02

> <POSIT::Method>
FRED

> <ReceptorTitle>
UCSF-P4578-REFINED_LIGAND-BOUND-STATE_A__DU__LA1_A-201(A)

> <OMEGA_C>
zLhSwjMu88E8rppA7TJPwg4K+8FZK6lAhr9QwsVh6cFYToxALCspwoU1/cG+QEFAN7Mtwung+cGK
axVAKLRJwvwZ+cGpRqlAwkBLwrVx58GpaYxA+O4kwngq9sE0W0ZAl+ktwvmm78EEg+E/47pHwnFN
78GY5ppAMVspwsQc6cEMpu4/JT45wmZw7MEEXzhAtX9Cwj0b88G4NgtAOas/wq1d/MEAAjRA+dQy
wn2638FgTFM/cWUtwqfK28HAc7E+i8kywnjs68GgyX0/hIs+wngw8cE0m1FAZO0kwg5R7MGOvSJA
qkUpwpEN38GIV6M/iMA3wpRQ78FQhsw/1aM2wrDQ5sHFnGlAIp5AwonN7MEh+ZpA8f9Wwumw9MEC
l5pAJbxQwuBVAcJEVbRAbX1TwnND48E2A4FA4/gowrGIAsIGaV5AmxcxwiFK/8HwwA9AigVHwoBU
/8GdqLRAdcpJwtHB38EtFIFAyE0hwn9N+MESUGhATHBBwoQe8cGIqZM/GLhGwkkg8sHmEBlAB/9B
wujIAMJYKF1AQLc8wgRJAMLA6A1AOe0zwkfP28G41OE/o+I1wmR53cFAsbo97IMswqsW38HQeSS/
62EtwmwQ08EQJII+b8Eywlp478EACK68NZomwnCl2cF82c4/fSk6wqU19MEIRoc/

> <OMEGA_E>
tcsOwQ==

> <OMEGA_NBR>
    121308

$$$$
CACHE3HI_1706_7
  -OEChem-03092622533D

 39 41  0     1  0  0  0  0  0999 V2000
  -52.9495  -31.8521    6.7496 C   0  0  0  0  0  0  0  0  0  0  0  0
  -53.2548  -31.1720    7.9286 C   0  0  0  0  0  0  0  0  0  0  0  0
  -51.8030  -31.5176    6.0291 C   0  0  0  0  0  0  0  0  0  0  0  0
  -52.4138  -30.1579    8.3871 C   0  0  0  0  0  0  0  0  0  0  0  0
  -49.5222  -30.2518    4.3825 C   0  0  0  0  0  0  0  0  0  0  0  0
  -50.9620  -30.5035    6.4877 C   0  0  0  0  0  0  0  0  0  0  0  0
  -51.2672  -29.8234    7.6666 C   0  0  0  0  0  0  0  0  0  0  0  0
  -49.7826  -30.1745    5.7291 C   0  0  0  0  0  0  0  0  0  0  0  0
  -48.1983  -29.7906    4.2539 C   0  0  0  0  0  0  0  0  0  0  0  0
  -47.4117  -29.6642    3.0184 C   0  0  0  0  0  0  0  0  0  0  0  0
  -45.1488  -31.0462    1.2966 C   0  0  0  0  0  0  0  0  0  0  0  0
  -43.7958  -29.2185    2.3517 C   0  0  0  0  0  0  0  0  0  0  0  0
  -45.3013  -30.0930    4.3510 C   0  0  0  0  0  0  0  0  0  0  0  0
  -45.1810  -29.6874    1.9369 C   0  0  2  0  0  0  0  0  0  0  0  0
  -43.5575  -32.8084    0.5565 C   0  0  0  0  0  0  0  0  0  0  0  0
  -47.6560  -29.4459    5.4248 N   0  0  0  0  0  0  0  0  0  0  0  0
  -48.6437  -29.6906    6.3026 N   0  0  0  0  0  0  0  0  0  0  0  0
  -46.0285  -29.8150    3.1168 N   0  0  0  0  0  0  0  0  0  0  0  0
  -43.8593  -31.5312    1.1614 N   0  0  0  0  0  0  0  0  0  0  0  0
  -48.0333  -29.4301    1.9845 O   0  0  0  0  0  0  0  0  0  0  0  0
  -46.1744  -31.6167    0.9331 O   0  0  0  0  0  0  0  0  0  0  0  0
  -50.4626  -28.8285    8.1384 O   0  0  0  0  0  0  0  0  0  0  0  0
  -43.5397  -29.8683    4.0227 S   0  0  0  0  0  0  0  0  0  0  0  0
  -53.6042  -32.6421    6.3934 H   0  0  0  0  0  0  0  0  0  0  0  0
  -54.1476  -31.4323    8.4896 H   0  0  0  0  0  0  0  0  0  0  0  0
  -51.5798  -32.0572    5.1118 H   0  0  0  0  0  0  0  0  0  0  0  0
  -52.6580  -29.6325    9.3064 H   0  0  0  0  0  0  0  0  0  0  0  0
  -50.1928  -30.5925    3.6062 H   0  0  0  0  0  0  0  0  0  0  0  0
  -43.0045  -29.5724    1.6847 H   0  0  0  0  0  0  0  0  0  0  0  0
  -43.7566  -28.1259    2.4011 H   0  0  0  0  0  0  0  0  0  0  0  0
  -45.6322  -29.4108    5.1396 H   0  0  0  0  0  0  0  0  0  0  0  0
  -45.5034  -31.1238    4.6575 H   0  0  0  0  0  0  0  0  0  0  0  0
  -45.6355  -29.0024    1.2123 H   0  0  0  0  0  0  0  0  0  0  0  0
  -43.5176  -33.5940    1.3165 H   0  0  0  0  0  0  0  0  0  0  0  0
  -44.3246  -33.0693   -0.1780 H   0  0  0  0  0  0  0  0  0  0  0  0
  -42.5919  -32.7653    0.0451 H   0  0  0  0  0  0  0  0  0  0  0  0
  -48.4689  -29.5028    7.2822 H   0  0  0  0  0  0  0  0  0  0  0  0
  -43.0787  -30.9605    1.4718 H   0  0  0  0  0  0  0  0  0  0  0  0
  -50.8447  -28.4838    8.9651 H   0  0  0  0  0  0  0  0  0  0  0  0
  1  2  1  0  0  0  0
  1  3  2  0  0  0  0
  2  4  2  0  0  0  0
  3  6  1  0  0  0  0
  4  7  1  0  0  0  0
  5  8  2  0  0  0  0
  5  9  1  0  0  0  0
  6  7  2  0  0  0  0
  6  8  1  0  0  0  0
  7 22  1  0  0  0  0
  8 17  1  0  0  0  0
  9 10  1  0  0  0  0
  9 16  2  0  0  0  0
 10 18  1  0  0  0  0
 10 20  2  0  0  0  0
 11 14  1  0  0  0  0
 11 19  1  0  0  0  0
 11 21  2  0  0  0  0
 12 14  1  0  0  0  0
 12 23  1  0  0  0  0
 13 18  1  0  0  0  0
 13 23  1  0  0  0  0
 14 18  1  0  0  0  0
 15 19  1  0  0  0  0
 16 17  1  0  0  0  0
  1 24  1  0  0  0  0
  2 25  1  0  0  0  0
  3 26  1  0  0  0  0
  4 27  1  0  0  0  0
  5 28  1  0  0  0  0
 12 29  1  0  0  0  0
 12 30  1  0  0  0  0
 13 31  1  0  0  0  0
 13 32  1  0  0  0  0
 14 33  1  0  0  0  0
 15 34  1  0  0  0  0
 15 35  1  0  0  0  0
 15 36  1  0  0  0  0
 17 37  1  0  0  0  0
 19 38  1  0  0  0  0
 22 39  1  0  0  0  0
M  END
> <POSIT::Probability>
0.24

> <POSIT::Method>
FRED

> <ReceptorTitle>
UCSF-P4578-REFINED_LIGAND-BOUND-STATE_A__DU__LA1_A-201(A)

> <OMEGA_C>
PsxTwh3R/sHw/NdA5QRVwkVg+cH8tv1APjZPwhEk/MGW7sBAsqdRwlpD8cGnMQZBsxZGwp0D8sGO
PYxAC9lLwiYH9MHoms9ApxFNwlCW7sGSVPVAZSFHwl5l8cGwVLdAB8tAwjFT7sFSIIhAlaU9wjBQ
7cGVLUFAVJg0wpNe+MHO9qU/8C4vwn6/6cH2ghZAhDQ1wmW+8MGrO4tAV7k0wuV/7cGa7Pc/5Dou
wsk7A8K0dA4/w58+wjSR68EwmK1AK5NCwkiG7cHYrslAOB04whmF7sH3eUdA7G8vwtg//MFEp5Q/
JSJAws1w68HOAv4/lrI4wgLv/MG0324/vdlJwtKg5sG6NgJBpSguwi/y7sEcuoBAsWpWwoWRAsIO
l8xAIZdYwlJ1+8F51QdBt1FOwpA6AMKak6NAwKFSwnIP7cEZ5xRBdcVIwmm99MFjy2ZAmgQswlSU
7MEupNc/xwYvwsAB4cENrBlAXoc2wltJ68Gkd6RAgAM2woL9+MFRCpVAwoo2wvgE6MHWLZs/BhIu
wkVgBsJggqg/bUwxwvtGBMJgSja+E14qwqEPA8JA6jg9HeBBwr4F7MEYCOlAmVAswgiv98EiZLw/
A2FLwuve48HocA9B

> <OMEGA_E>
R4kQwQ==

> <OMEGA_NBR>
    122581

$$$$
CACHE3HI_1706_8
  -OEChem-03092622533D

 41 43  0     0  0  0  0  0  0999 V2000
  -42.8007  -32.3862    2.3685 C   0  0  0  0  0  0  0  0  0  0  0  0
  -50.7873  -30.2731    3.1699 C   0  0  0  0  0  0  0  0  0  0  0  0
  -51.7761  -30.5416    4.1164 C   0  0  0  0  0  0  0  0  0  0  0  0
  -49.4828  -30.0022    3.5826 C   0  0  0  0  0  0  0  0  0  0  0  0
  -51.4605  -30.5395    5.4752 C   0  0  0  0  0  0  0  0  0  0  0  0
  -46.6904  -29.4317    4.6097 C   0  0  0  0  0  0  0  0  0  0  0  0
  -49.1672  -30.0001    4.9414 C   0  0  0  0  0  0  0  0  0  0  0  0
  -50.1560  -30.2686    5.8879 C   0  0  0  0  0  0  0  0  0  0  0  0
  -47.8138  -29.7189    5.3461 C   0  0  0  0  0  0  0  0  0  0  0  0
  -45.6767  -29.2542    5.5704 C   0  0  0  0  0  0  0  0  0  0  0  0
  -44.2612  -28.9269    5.3288 C   0  0  0  0  0  0  0  0  0  0  0  0
  -44.2248  -30.1159    3.0146 C   0  0  0  0  0  0  0  0  0  0  0  0
  -42.3197  -29.4878    3.7648 C   0  0  0  0  0  0  0  0  0  0  0  0
  -42.8331  -29.9253    2.3812 C   0  0  0  0  0  0  0  0  0  0  0  0
  -42.3984  -31.1888    0.2573 C   0  0  0  0  0  0  0  0  0  0  0  0
  -40.6784  -31.1751    2.0823 C   0  0  0  0  0  0  0  0  0  0  0  0
  -42.1906  -31.1629    1.7846 C   0  0  0  0  0  0  0  0  0  0  0  0
  -43.2860  -33.3331    2.8323 N   0  0  0  0  0  0  0  0  0  0  0  0
  -46.1173  -29.4150    6.8209 N   0  0  0  0  0  0  0  0  0  0  0  0
  -47.4203  -29.6967    6.6518 N   0  0  0  0  0  0  0  0  0  0  0  0
  -43.7149  -29.3738    4.1535 N   0  0  0  0  0  0  0  0  0  0  0  0
  -43.6516  -28.2985    6.1912 O   0  0  0  0  0  0  0  0  0  0  0  0
  -49.8754  -30.2739    7.2225 O   0  0  0  0  0  0  0  0  0  0  0  0
  -51.0334  -30.2755    2.1120 H   0  0  0  0  0  0  0  0  0  0  0  0
  -52.7920  -30.7524    3.7951 H   0  0  0  0  0  0  0  0  0  0  0  0
  -48.7240  -29.7943    2.8319 H   0  0  0  0  0  0  0  0  0  0  0  0
  -52.2360  -30.7497    6.2068 H   0  0  0  0  0  0  0  0  0  0  0  0
  -46.6153  -29.3610    3.5336 H   0  0  0  0  0  0  0  0  0  0  0  0
  -45.0461  -29.6199    2.4901 H   0  0  0  0  0  0  0  0  0  0  0  0
  -44.5043  -31.1415    3.2763 H   0  0  0  0  0  0  0  0  0  0  0  0
  -41.7849  -30.2455    4.3470 H   0  0  0  0  0  0  0  0  0  0  0  0
  -41.7687  -28.5430    3.7725 H   0  0  0  0  0  0  0  0  0  0  0  0
  -42.8214  -29.0981    1.6559 H   0  0  0  0  0  0  0  0  0  0  0  0
  -41.9607  -30.2999   -0.2117 H   0  0  0  0  0  0  0  0  0  0  0  0
  -41.9397  -32.0710   -0.2052 H   0  0  0  0  0  0  0  0  0  0  0  0
  -43.4660  -31.2075    0.0064 H   0  0  0  0  0  0  0  0  0  0  0  0
  -40.1907  -30.2861    1.6664 H   0  0  0  0  0  0  0  0  0  0  0  0
  -40.4904  -31.1849    3.1629 H   0  0  0  0  0  0  0  0  0  0  0  0
  -40.1833  -32.0571    1.6583 H   0  0  0  0  0  0  0  0  0  0  0  0
  -47.9834  -29.8635    7.4768 H   0  0  0  0  0  0  0  0  0  0  0  0
  -50.6912  -30.4815    7.7120 H   0  0  0  0  0  0  0  0  0  0  0  0
  1 17  1  0  0  0  0
  1 18  3  0  0  0  0
  2  3  1  0  0  0  0
  2  4  2  0  0  0  0
  3  5  2  0  0  0  0
  4  7  1  0  0  0  0
  5  8  1  0  0  0  0
  6  9  2  0  0  0  0
  6 10  1  0  0  0  0
  7  8  2  0  0  0  0
  7  9  1  0  0  0  0
  8 23  1  0  0  0  0
  9 20  1  0  0  0  0
 10 11  1  0  0  0  0
 10 19  2  0  0  0  0
 11 21  1  0  0  0  0
 11 22  2  0  0  0  0
 12 14  1  0  0  0  0
 12 21  1  0  0  0  0
 13 14  1  0  0  0  0
 13 21  1  0  0  0  0
 14 17  1  0  0  0  0
 15 17  1  0  0  0  0
 16 17  1  0  0  0  0
 19 20  1  0  0  0  0
  2 24  1  0  0  0  0
  3 25  1  0  0  0  0
  4 26  1  0  0  0  0
  5 27  1  0  0  0  0
  6 28  1  0  0  0  0
 12 29  1  0  0  0  0
 12 30  1  0  0  0  0
 13 31  1  0  0  0  0
 13 32  1  0  0  0  0
 14 33  1  0  0  0  0
 15 34  1  0  0  0  0
 15 35  1  0  0  0  0
 15 36  1  0  0  0  0
 16 37  1  0  0  0  0
 16 38  1  0  0  0  0
 16 39  1  0  0  0  0
 20 40  1  0  0  0  0
 23 41  1  0  0  0  0
M  END
> <POSIT::Probability>
0.24

> <POSIT::Method>
FRED

> <ReceptorTitle>
UCSF-P4578-REFINED_LIGAND-BOUND-STATE_A__DU__LA1_A-201(A)

> <OMEGA_C>
6DMrwoOLAcK6lRdAOSZLwj4v8sGE30pAwRpPwihV9MGMuYNAaO5FwnoE8MFUSWVAltdNwudQ9MEC
Na9A7sI6wh1068GigpNAPKtEwjsA8MEhIJ5AtZ9Iwhwm8sHaabxAXUE/wmfA7cGeE6tA87Q2wqsI
6sGGQLJAcAsxwmJq58FDhapAL+Ywwlbt8MGP70BAZ0cpwvzm68G58nBAGVUrwg5n78G2ZRhA85cp
wpKC+cFEvIM+o7YiwrFm+cEORAVAI8MowqZN+cG0bOQ/2iQtwhdVBcISRDVAEng4wtZR68ExRdpA
YK49wtqS7cHA29RAFNwuwoj96sEs6YRARZsuwlFj4sF8HsZAbIBHwgAx8sFnHudAMyJMwks08sFT
KwdAACtTwtYE9sGl43JAaeVCwsNa7sERPjVAqPFQwlT/9cEmnsZAHHY6wljj6sGZJmJAQC80wnf1
7MFiXh9AXgQywsYh+cEJr1FAtyMnws728cGCGotAIRMnwiFY5MHrcHFAG0krwtzI6MEa9dM/ytcn
wiNm8sGw01i+QsInwrhIAMLAHVK+NN0twuuo+cEAItI7PcMgwgRK8sHgTdU/MPYhwrN6+cEAbUpA
rLsgwn46AMK4RNQ/B+8/wmLo7sEPQu9Az8NKwhLa88GCyPZA

> <OMEGA_E>
R9wtwQ==

> <OMEGA_NBR>
    123891

$$$$
CACHE3HI_1706_87
  -OEChem-03092622533D

 50 52  0     1  0  0  0  0  0999 V2000
  -55.9172  -25.6217   12.0437 C   0  0  0  0  0  0  0  0  0  0  0  0
  -54.6540  -25.7613   12.6185 C   0  0  0  0  0  0  0  0  0  0  0  0
  -56.4145  -26.6179   11.2037 C   0  0  0  0  0  0  0  0  0  0  0  0
  -53.8883  -26.8969   12.3536 C   0  0  0  0  0  0  0  0  0  0  0  0
  -55.6489  -27.7535   10.9388 C   0  0  0  0  0  0  0  0  0  0  0  0
  -54.3857  -27.8931   11.5136 C   0  0  0  0  0  0  0  0  0  0  0  0
  -46.8445  -29.4892    4.8411 C   0  0  0  0  0  0  0  0  0  0  0  0
  -48.7047  -30.0117    5.6307 C   0  0  0  0  0  0  0  0  0  0  0  0
  -52.6953  -28.8957   10.0163 C   0  0  0  0  0  0  0  0  0  0  0  0
  -51.0581  -30.6493    4.9702 C   0  0  0  0  0  0  0  0  0  0  0  0
  -53.8017  -31.3992    7.5122 C   0  0  0  0  0  0  0  0  0  0  0  0
  -53.8215  -30.9103    8.9558 C   0  0  0  0  0  0  0  0  0  0  0  0
  -52.1311  -29.7089    7.7357 C   0  0  0  0  0  0  0  0  0  0  0  0
  -52.3883  -31.0463    7.0543 C   0  0  2  0  0  0  0  0  0  0  0  0
  -46.0059  -29.9106    2.5020 C   0  0  0  0  0  0  0  0  0  0  0  0
  -44.3675  -29.4870    4.3712 C   0  0  0  0  0  0  0  0  0  0  0  0
  -53.5643  -29.1119   11.2290 C   0  0  0  0  0  0  0  0  0  0  0  0
  -45.7988  -29.1872    3.8564 C   0  0  0  0  0  0  0  0  0  0  0  0
  -48.1138  -29.8329    4.4723 N   0  0  0  0  0  0  0  0  0  0  0  0
  -46.6135  -29.4444    6.1547 N   0  0  0  0  0  0  0  0  0  0  0  0
  -47.8189  -29.7828    6.6367 N   0  0  0  0  0  0  0  0  0  0  0  0
  -52.8827  -29.7922    8.9807 N   0  0  0  0  0  0  0  0  0  0  0  0
  -50.0440  -30.3839    5.8947 N   0  0  0  0  0  0  0  0  0  0  0  0
  -52.2531  -30.9879    5.6283 N   0  0  0  0  0  0  0  0  0  0  0  0
  -51.8868  -27.9663    9.9865 O   0  0  0  0  0  0  0  0  0  0  0  0
  -50.9627  -30.6051    3.7461 O   0  0  0  0  0  0  0  0  0  0  0  0
  -56.5133  -24.7376   12.2499 H   0  0  0  0  0  0  0  0  0  0  0  0
  -54.2668  -24.9858   13.2730 H   0  0  0  0  0  0  0  0  0  0  0  0
  -57.3980  -26.5093   10.7559 H   0  0  0  0  0  0  0  0  0  0  0  0
  -52.9051  -26.9968   12.8060 H   0  0  0  0  0  0  0  0  0  0  0  0
  -56.0453  -28.5248   10.2838 H   0  0  0  0  0  0  0  0  0  0  0  0
  -54.0119  -32.4700    7.4346 H   0  0  0  0  0  0  0  0  0  0  0  0
  -54.5512  -30.8526    6.9263 H   0  0  0  0  0  0  0  0  0  0  0  0
  -54.8171  -30.5958    9.2796 H   0  0  0  0  0  0  0  0  0  0  0  0
  -53.4470  -31.6776    9.6419 H   0  0  0  0  0  0  0  0  0  0  0  0
  -51.0711  -29.5230    7.9349 H   0  0  0  0  0  0  0  0  0  0  0  0
  -52.5373  -28.8631    7.1685 H   0  0  0  0  0  0  0  0  0  0  0  0
  -51.6774  -31.7954    7.4220 H   0  0  0  0  0  0  0  0  0  0  0  0
  -46.0272  -30.9952    2.6561 H   0  0  0  0  0  0  0  0  0  0  0  0
  -46.9451  -29.6230    2.0169 H   0  0  0  0  0  0  0  0  0  0  0  0
  -45.1905  -29.6892    1.8041 H   0  0  0  0  0  0  0  0  0  0  0  0
  -44.2412  -30.5370    4.6575 H   0  0  0  0  0  0  0  0  0  0  0  0
  -43.6343  -29.2619    3.5884 H   0  0  0  0  0  0  0  0  0  0  0  0
  -44.1229  -28.8725    5.2447 H   0  0  0  0  0  0  0  0  0  0  0  0
  -54.1980  -29.9766   11.0340 H   0  0  0  0  0  0  0  0  0  0  0  0
  -52.9110  -29.3507   12.0680 H   0  0  0  0  0  0  0  0  0  0  0  0
  -45.7905  -28.1011    3.6034 H   0  0  0  0  0  0  0  0  0  0  0  0
  -47.9568  -29.8343    7.6390 H   0  0  0  0  0  0  0  0  0  0  0  0
  -50.2996  -30.4685    6.8757 H   0  0  0  0  0  0  0  0  0  0  0  0
  -53.0764  -31.1704    5.0522 H   0  0  0  0  0  0  0  0  0  0  0  0
  1  2  1  0  0  0  0
  1  3  2  0  0  0  0
  2  4  2  0  0  0  0
  3  5  1  0  0  0  0
  4  6  1  0  0  0  0
  5  6  2  0  0  0  0
  6 17  1  0  0  0  0
  7 18  1  0  0  0  0
  7 19  1  0  0  0  0
  7 20  2  0  0  0  0
  8 19  2  0  0  0  0
  8 21  1  0  0  0  0
  8 23  1  0  0  0  0
  9 17  1  0  0  0  0
  9 22  1  0  0  0  0
  9 25  2  0  0  0  0
 10 23  1  0  0  0  0
 10 24  1  0  0  0  0
 10 26  2  0  0  0  0
 11 12  1  0  0  0  0
 11 14  1  0  0  0  0
 12 22  1  0  0  0  0
 13 14  1  0  0  0  0
 13 22  1  0  0  0  0
 14 24  1  0  0  0  0
 15 18  1  0  0  0  0
 16 18  1  0  0  0  0
 20 21  1  0  0  0  0
  1 27  1  0  0  0  0
  2 28  1  0  0  0  0
  3 29  1  0  0  0  0
  4 30  1  0  0  0  0
  5 31  1  0  0  0  0
 11 32  1  0  0  0  0
 11 33  1  0  0  0  0
 12 34  1  0  0  0  0
 12 35  1  0  0  0  0
 13 36  1  0  0  0  0
 13 37  1  0  0  0  0
 14 38  1  0  0  0  0
 15 39  1  0  0  0  0
 15 40  1  0  0  0  0
 15 41  1  0  0  0  0
 16 42  1  0  0  0  0
 16 43  1  0  0  0  0
 16 44  1  0  0  0  0
 17 45  1  0  0  0  0
 17 46  1  0  0  0  0
 18 47  1  0  0  0  0
 21 48  1  0  0  0  0
 23 49  1  0  0  0  0
 24 50  1  0  0  0  0
M  END
> <POSIT::Probability>
0.23

> <POSIT::Method>
HYBRID

> <ReceptorTitle>
UCSF-P4578-REFINED_LIGAND-BOUND-STATE_A__DU__LA1_A-201(A)

> <OMEGA_C>
P6tfwiv5zMEfs0BBqp1awhMXzsF75UlBf6hhwnHx1MFgQjNBoI1Xwsos18GAqEVBdZhewigH3sFo
BS9B6YpZwh8l38GZNzhBuGA7wvHp68EK6ppAo9FCwgAY8MGqLrRA88dSwnQq58H2QiBBfTtMwrYx
9cH2C59A8jRXwqQx+8FGZPBAMUlXwkVI98HFSg9BMoZQwryr7cHBivdAlI1RwtRe+MHRvOFABgY4
wutI78FoICBAWngxwlHl68Ga4ItA1UFWwi/l6MH/qTNB+zE3wmZ/6cFoz3ZAhnRAwq6p7sEaHY9A
P3Q6whGO68E988RAi0Y/wjRD7sEfYNRA3YdTwlxW7sHVsA9BAy1IwjUS88GDobxAIwNRwkPn98Fo
G7RACYxPwvG638HSyB9BzdlLwk7X9MFMwG9AqA1iwprmxcF5/0NBKRFZwvHix8ELXlRBjZdlwg0T
1ME1GCxB2J5Twlz518FA5UxBai5gwswy5MGKiiRBNgxYwkjhAcIL6O1AdzRawjXS9sGmpN1AvkRb
wi3E9ME0eRRBsclVwrdr/cEpRRpBwkhMwhgv7MET6/1AMiZSwpLn5sF4ZOVAorVOwg5d/sE1ge1A
1hs4wir298E8/ilAv8c7wur77MH8FAFAHsM0wmqD7cHo7eY/8vYwwtpL9MEaCpVAkIkuwk8Y6sG0
p2VA4X0wwuz65sHl1KdAuspYwhnQ78EZizBB3aRTwkvO6sG4FkFBfyk3whDP4MEwnmZAw9M/wr+s
7sEAc/RAyDJJwpa/88HgBdxAOE5UwvJc+cEIrKFA

> <OMEGA_E>
gFHnwA==

> <OMEGA_NBR>
    125389

$$$$
CACHE3HI_1707_10
  -OEChem-03092622533D

 36 38  0     0  0  0  0  0  0999 V2000
  -54.7299  -28.0361    7.3781 C   0  0  0  0  0  0  0  0  0  0  0  0
  -54.3331  -27.9604    6.0430 C   0  0  0  0  0  0  0  0  0  0  0  0
  -53.9461  -28.7302    8.2997 C   0  0  0  0  0  0  0  0  0  0  0  0
  -53.1528  -28.5784    5.6295 C   0  0  0  0  0  0  0  0  0  0  0  0
  -48.9592  -29.6370    4.4151 C   0  0  0  0  0  0  0  0  0  0  0  0
  -52.7657  -29.3482    7.8863 C   0  0  0  0  0  0  0  0  0  0  0  0
  -52.3690  -29.2726    6.5512 C   0  0  0  0  0  0  0  0  0  0  0  0
  -48.8930  -29.4987    5.7806 C   0  0  0  0  0  0  0  0  0  0  0  0
  -46.8577  -29.5118    5.1213 C   0  0  0  0  0  0  0  0  0  0  0  0
  -45.8234  -29.7429    2.5202 C   0  0  0  0  0  0  0  0  0  0  0  0
  -44.9547  -29.6057    3.6772 C   0  0  0  0  0  0  0  0  0  0  0  0
  -47.1525  -29.7605    2.6995 C   0  0  0  0  0  0  0  0  0  0  0  0
  -45.4289  -29.4929    4.9413 C   0  0  0  0  0  0  0  0  0  0  0  0
  -51.9629  -30.0686    8.8647 C   0  0  0  0  0  0  0  0  0  0  0  0
  -44.4661  -29.3542    6.0916 C   0  0  0  0  0  0  0  0  0  0  0  0
  -50.0036  -29.4321    6.7422 C   0  0  0  0  0  0  0  0  0  0  0  0
  -47.5941  -29.4219    6.2118 N   0  0  0  0  0  0  0  0  0  0  0  0
  -47.6564  -29.6455    3.9889 N   0  0  0  0  0  0  0  0  0  0  0  0
  -50.9808  -29.3558    9.5441 N   0  0  0  0  0  0  0  0  0  0  0  0
  -52.1573  -31.2731    9.0996 O   0  0  0  0  0  0  0  0  0  0  0  0
  -51.2159  -29.8721    6.1264 O   0  0  0  0  0  0  0  0  0  0  0  0
  -55.6482  -27.5533    7.6998 H   0  0  0  0  0  0  0  0  0  0  0  0
  -54.9438  -27.4198    5.3258 H   0  0  0  0  0  0  0  0  0  0  0  0
  -54.2652  -28.7810    9.3377 H   0  0  0  0  0  0  0  0  0  0  0  0
  -52.8500  -28.5167    4.5878 H   0  0  0  0  0  0  0  0  0  0  0  0
  -49.7913  -29.7275    3.7301 H   0  0  0  0  0  0  0  0  0  0  0  0
  -45.3782  -29.8292    1.5366 H   0  0  0  0  0  0  0  0  0  0  0  0
  -43.8875  -29.5979    3.4750 H   0  0  0  0  0  0  0  0  0  0  0  0
  -47.8565  -29.8607    1.8824 H   0  0  0  0  0  0  0  0  0  0  0  0
  -44.2122  -30.3416    6.4645 H   0  0  0  0  0  0  0  0  0  0  0  0
  -44.9319  -28.7704    6.8794 H   0  0  0  0  0  0  0  0  0  0  0  0
  -43.5700  -28.8473    5.7470 H   0  0  0  0  0  0  0  0  0  0  0  0
  -49.8271  -30.0661    7.6311 H   0  0  0  0  0  0  0  0  0  0  0  0
  -50.1701  -28.4053    7.1201 H   0  0  0  0  0  0  0  0  0  0  0  0
  -50.8204  -28.3655    9.3956 H   0  0  0  0  0  0  0  0  0  0  0  0
  -50.4002  -29.7972   10.2494 H   0  0  0  0  0  0  0  0  0  0  0  0
  1  2  1  0  0  0  0
  1  3  2  0  0  0  0
  2  4  2  0  0  0  0
  3  6  1  0  0  0  0
  4  7  1  0  0  0  0
  5  8  2  0  0  0  0
  5 18  1  0  0  0  0
  6  7  2  0  0  0  0
  6 14  1  0  0  0  0
  7 21  1  0  0  0  0
  8 16  1  0  0  0  0
  8 17  1  0  0  0  0
  9 13  1  0  0  0  0
  9 17  2  0  0  0  0
  9 18  1  0  0  0  0
 10 11  1  0  0  0  0
 10 12  2  0  0  0  0
 11 13  2  0  0  0  0
 12 18  1  0  0  0  0
 13 15  1  0  0  0  0
 14 19  1  0  0  0  0
 14 20  2  0  0  0  0
 16 21  1  0  0  0  0
  1 22  1  0  0  0  0
  2 23  1  0  0  0  0
  3 24  1  0  0  0  0
  4 25  1  0  0  0  0
  5 26  1  0  0  0  0
 10 27  1  0  0  0  0
 11 28  1  0  0  0  0
 12 29  1  0  0  0  0
 15 30  1  0  0  0  0
 15 31  1  0  0  0  0
 15 32  1  0  0  0  0
 16 33  1  0  0  0  0
 16 34  1  0  0  0  0
 19 35  1  0  0  0  0
 19 36  1  0  0  0  0
M  END
> <POSIT::Probability>
0.14

> <POSIT::Method>
HYBRID

> <ReceptorTitle>
UCSF-P4578-REFINED_LIGAND-BOUND-STATE_A__DU__LA1_A-201(A)

> <OMEGA_C>
YOtawv5J4MFSGexAGVVZwgCv38H3X8FAxshXwobX5cGCywRBcZxUwqKg5MEkJbRAMtZDwo8Y7cFp
SI1AHxBTwifJ6sEzXPxA1HlRwjQu6sFLo9FAdpJDwnD968FY+rhATW47wj4Y7MFf4aNAKUs3wo3x
7cGTSyFAmNEzwoLY7MGmVmtANZw8wmkV7sFYxSxAPrc1wmXx68E7H55ABdpPwmSM8MHu1Q1BPd0x
wm7V6sFq7sJAqgNIwvd068E/wNdAT2A+wh5g68F4x8ZAHKA+wv4p7cHqSn9ATuxLwpnY6sGEtBhB
HaFQwkYv+sHNlxFBH91MwiD67sF1C8RAtZdewjlt3MFtZPZAfcZbwsJb28HgbKpAjQ9Zwoo/5sFA
ZxVBZ2ZTwk0i5MFEz5JAUSpHwv7R7cFbum5AS4M1wiqi7sEcsMQ/wIwvwmbI7MEkZ15ACG0/wrPi
7sHY8vA/QNkwwoe78sFZ3c5ARLozwq8p5sHmI9xArkcuwk7H5sFt57dA8E5HwnWH8MExMvRAIq5I
wic+48ET2ONAIUhLwnXs4sE8VBZB0ZlJwqBg7sFc/SNB

> <OMEGA_E>
aAeKwA==

> <OMEGA_NBR>
    126602

$$$$
CACHE3HI_1707_11
  -OEChem-03092622533D

 51 53  0     0  0  0  0  0  0999 V2000
  -47.6672  -29.5205    2.4018 C   0  0  0  0  0  0  0  0  0  0  0  0
  -48.8888  -30.1841    2.2875 C   0  0  0  0  0  0  0  0  0  0  0  0
  -47.3261  -28.8898    3.5982 C   0  0  0  0  0  0  0  0  0  0  0  0
  -49.7689  -30.2173    3.3693 C   0  0  0  0  0  0  0  0  0  0  0  0
  -54.0338  -26.4443   10.3606 C   0  0  0  0  0  0  0  0  0  0  0  0
  -54.9825  -25.9731   11.2878 C   0  0  0  0  0  0  0  0  0  0  0  0
  -48.2062  -28.9231    4.6800 C   0  0  0  0  0  0  0  0  0  0  0  0
  -49.4277  -29.5867    4.5657 C   0  0  0  0  0  0  0  0  0  0  0  0
  -54.4208  -27.7366   10.1013 C   0  0  0  0  0  0  0  0  0  0  0  0
  -51.7268  -29.7046    5.5897 C   0  0  0  0  0  0  0  0  0  0  0  0
  -54.4494  -28.7697    7.7876 C   0  0  0  0  0  0  0  0  0  0  0  0
  -52.2949  -28.6666    9.0892 C   0  0  0  0  0  0  0  0  0  0  0  0
  -53.8306  -29.8423    6.8973 C   0  0  0  0  0  0  0  0  0  0  0  0
  -51.6967  -29.7230    8.1575 C   0  0  0  0  0  0  0  0  0  0  0  0
  -53.8227  -28.7927    9.1904 C   0  0  0  0  0  0  0  0  0  0  0  0
  -56.3116  -29.1676   10.9316 C   0  0  0  0  0  0  0  0  0  0  0  0
  -44.8115  -28.0648    6.0021 C   0  0  0  0  0  0  0  0  0  0  0  0
  -47.8141  -28.2395    5.9497 C   0  0  0  0  0  0  0  0  0  0  0  0
  -46.8046  -29.0443    6.7718 C   0  0  0  0  0  0  0  0  0  0  0  0
  -55.9026  -26.8908   11.5962 N   0  0  0  0  0  0  0  0  0  0  0  0
  -55.5342  -27.9523   10.8590 N   0  0  0  0  0  0  0  0  0  0  0  0
  -52.3692  -29.7352    6.8484 N   0  0  0  0  0  0  0  0  0  0  0  0
  -50.3354  -29.6315    5.6537 N   0  0  0  0  0  0  0  0  0  0  0  0
  -52.3620  -29.7656    4.5335 O   0  0  0  0  0  0  0  0  0  0  0  0
  -45.6168  -29.2352    6.0137 O   0  0  0  0  0  0  0  0  0  0  0  0
  -46.9823  -29.4937    1.5593 H   0  0  0  0  0  0  0  0  0  0  0  0
  -49.1555  -30.6747    1.3558 H   0  0  0  0  0  0  0  0  0  0  0  0
  -46.3719  -28.3759    3.6778 H   0  0  0  0  0  0  0  0  0  0  0  0
  -50.7174  -30.7382    3.2668 H   0  0  0  0  0  0  0  0  0  0  0  0
  -53.1886  -25.9184    9.9407 H   0  0  0  0  0  0  0  0  0  0  0  0
  -55.0419  -24.9988   11.7511 H   0  0  0  0  0  0  0  0  0  0  0  0
  -54.3112  -27.7847    7.3219 H   0  0  0  0  0  0  0  0  0  0  0  0
  -55.5321  -28.9336    7.8567 H   0  0  0  0  0  0  0  0  0  0  0  0
  -51.8437  -28.7645   10.0847 H   0  0  0  0  0  0  0  0  0  0  0  0
  -52.0214  -27.6683    8.7212 H   0  0  0  0  0  0  0  0  0  0  0  0
  -54.0648  -30.8402    7.2874 H   0  0  0  0  0  0  0  0  0  0  0  0
  -54.2646  -29.7805    5.8946 H   0  0  0  0  0  0  0  0  0  0  0  0
  -50.6277  -29.5274    8.0725 H   0  0  0  0  0  0  0  0  0  0  0  0
  -51.8174  -30.7237    8.5884 H   0  0  0  0  0  0  0  0  0  0  0  0
  -54.0558  -29.7786    9.6565 H   0  0  0  0  0  0  0  0  0  0  0  0
  -55.9346  -29.8267   11.7208 H   0  0  0  0  0  0  0  0  0  0  0  0
  -56.2662  -29.6987    9.9757 H   0  0  0  0  0  0  0  0  0  0  0  0
  -57.3586  -28.9484   11.1657 H   0  0  0  0  0  0  0  0  0  0  0  0
  -43.9096  -28.2474    5.4120 H   0  0  0  0  0  0  0  0  0  0  0  0
  -45.3792  -27.2468    5.5522 H   0  0  0  0  0  0  0  0  0  0  0  0
  -44.5414  -27.7973    7.0263 H   0  0  0  0  0  0  0  0  0  0  0  0
  -47.3952  -27.2441    5.7288 H   0  0  0  0  0  0  0  0  0  0  0  0
  -48.7127  -28.0602    6.5617 H   0  0  0  0  0  0  0  0  0  0  0  0
  -47.2045  -30.0235    7.0551 H   0  0  0  0  0  0  0  0  0  0  0  0
  -46.5364  -28.4981    7.6822 H   0  0  0  0  0  0  0  0  0  0  0  0
  -49.9069  -29.6067    6.6183 H   0  0  0  0  0  0  0  0  0  0  0  0
  1  2  1  0  0  0  0
  1  3  2  0  0  0  0
  2  4  2  0  0  0  0
  3  7  1  0  0  0  0
  4  8  1  0  0  0  0
  5  6  1  0  0  0  0
  5  9  2  0  0  0  0
  6 20  2  0  0  0  0
  7  8  2  0  0  0  0
  7 18  1  0  0  0  0
  8 23  1  0  0  0  0
  9 15  1  0  0  0  0
  9 21  1  0  0  0  0
 10 22  1  0  0  0  0
 10 23  1  0  0  0  0
 10 24  2  0  0  0  0
 11 13  1  0  0  0  0
 11 15  1  0  0  0  0
 12 14  1  0  0  0  0
 12 15  1  0  0  0  0
 13 22  1  0  0  0  0
 14 22  1  0  0  0  0
 16 21  1  0  0  0  0
 17 25  1  0  0  0  0
 18 19  1  0  0  0  0
 19 25  1  0  0  0  0
 20 21  1  0  0  0  0
  1 26  1  0  0  0  0
  2 27  1  0  0  0  0
  3 28  1  0  0  0  0
  4 29  1  0  0  0  0
  5 30  1  0  0  0  0
  6 31  1  0  0  0  0
 11 32  1  0  0  0  0
 11 33  1  0  0  0  0
 12 34  1  0  0  0  0
 12 35  1  0  0  0  0
 13 36  1  0  0  0  0
 13 37  1  0  0  0  0
 14 38  1  0  0  0  0
 14 39  1  0  0  0  0
 15 40  1  0  0  0  0
 16 41  1  0  0  0  0
 16 42  1  0  0  0  0
 16 43  1  0  0  0  0
 17 44  1  0  0  0  0
 17 45  1  0  0  0  0
 17 46  1  0  0  0  0
 18 47  1  0  0  0  0
 18 48  1  0  0  0  0
 19 49  1  0  0  0  0
 19 50  1  0  0  0  0
 23 51  1  0  0  0  0
M  END
> <POSIT::Probability>
0.18

> <POSIT::Method>
HYBRID

> <ReceptorTitle>
UCSF-P4578-REFINED_LIGAND-BOUND-STATE_A__DU__LA1_A-201(A)

> <OMEGA_C>
Oas+wugp7MEgtxlAHY5DwgZ58cFcZhJA5U09wlMe58GySGZAVxNHwhy98cG6oldAoCJYwgOO08ER
xSVBIO5bwuHIz8HnmjRBINNAwmpi58GKwpVA+rVFwnax7MF1GpJA5q5Zwqjk3cHsniFBP+hOwg6j
7cEY37JAKMxZwlwo5sH/M/lA/C1RwkVV5cF6bRFBhVJXwgu97sGxttxAcMlOwp7I7cH+hAJBd0pX
wohX5sENDBNBHT9hwkBX6cHG5y5B8j4zwsmE4MGaEcBAoEE/wnjq4cEvZL5A7Tc7wtNa6MGvsthA
OpxfwnUg18EwijlB+yJewkee38Fyvi1BHHpRwp7h7cHAJdtAfVdJwl4N7cFF67RAtXJRwvof7sFE
EpFAlXc2wsDh6cGKcMBA5u07wjLz68ERmMc/PZ9Ewr5l9cF7ia0/yHw5wuAB48GaYWtAoN5Kwsfn
9cEoE1FAIsFUwvxYz8H3DB9B2ypcwob9x8FSBDxBpj5ZwvlG3sHzTOpA0iBewup358FqavtA6l9P
wq0d5sHOWiFB9BVQwrxY3cH9iQtBXkJYwtC49sF5MulA9w5Zwm8+7sE7oLxAuoJKwh847MH6KAFB
DUVPwg7K9cEHaglBFzlYwpg67sEfgRpB/rxfwg6d7sFoiDtBlxBhwv2W7cGOnB9BKG9lwj6W58Ga
pjJBeqMvwrn64cF7L61AWYQ1wov52cHKq7FAaioywtJg3sF61+BAt5Q9wtzz2cErUrdA2dlCwlh7
4MFG+dFAb9E8wjAw8MGgw+FASCU6wgT848E71PVAsKBHwnPa7MG4yNNA

> <OMEGA_E>
nxiiwA==

> <OMEGA_NBR>
    128115

$$$$
CACHE3HI_1707_21
  -OEChem-03092622533D

 45 47  0     0  0  0  0  0  0999 V2000
  -55.3282  -25.4319   12.0704 C   0  0  0  0  0  0  0  0  0  0  0  0
  -54.3438  -25.8033   11.1748 C   0  0  0  0  0  0  0  0  0  0  0  0
  -56.5713  -26.2414   12.1903 C   0  0  0  0  0  0  0  0  0  0  0  0
  -56.7728  -27.3301   11.3635 C   0  0  0  0  0  0  0  0  0  0  0  0
  -54.5547  -27.0206   10.3768 C   0  0  0  0  0  0  0  0  0  0  0  0
  -55.8071  -28.6508    9.4976 C   0  0  0  0  0  0  0  0  0  0  0  0
  -49.8183  -29.7559    5.9416 C   0  0  0  0  0  0  0  0  0  0  0  0
  -44.0362  -29.2394    6.4247 C   0  0  0  0  0  0  0  0  0  0  0  0
  -44.1191  -28.7022    4.9977 C   0  0  0  0  0  0  0  0  0  0  0  0
  -45.4930  -29.4211    6.8266 C   0  0  0  0  0  0  0  0  0  0  0  0
  -45.2930  -29.4561    4.3622 C   0  0  0  0  0  0  0  0  0  0  0  0
  -46.2158  -29.8554    5.5280 C   0  0  0  0  0  0  0  0  0  0  0  0
  -48.4081  -29.5698    6.4553 C   0  0  0  0  0  0  0  0  0  0  0  0
  -52.6386  -29.9779    8.0488 C   0  0  0  0  0  0  0  0  0  0  0  0
  -54.1028  -29.5615    7.9398 C   0  0  0  0  0  0  0  0  0  0  0  0
  -52.1310  -30.3542    6.6666 C   0  0  0  0  0  0  0  0  0  0  0  0
  -53.7820  -27.7017    9.5676 N   0  0  0  0  0  0  0  0  0  0  0  0
  -55.7795  -27.6614   10.4423 N   0  0  0  0  0  0  0  0  0  0  0  0
  -54.4895  -28.7993    9.1196 N   0  0  0  0  0  0  0  0  0  0  0  0
  -50.6888  -30.4188    6.7798 N   0  0  0  0  0  0  0  0  0  0  0  0
  -56.7803  -29.2690    9.0818 O   0  0  0  0  0  0  0  0  0  0  0  0
  -50.1759  -29.2842    4.8665 O   0  0  0  0  0  0  0  0  0  0  0  0
  -47.4988  -29.2149    5.4019 O   0  0  0  0  0  0  0  0  0  0  0  0
  -55.1954  -24.5532   12.6841 H   0  0  0  0  0  0  0  0  0  0  0  0
  -53.4443  -25.2160   11.0638 H   0  0  0  0  0  0  0  0  0  0  0  0
  -57.3175  -25.9773   12.9250 H   0  0  0  0  0  0  0  0  0  0  0  0
  -57.6802  -27.9121   11.4293 H   0  0  0  0  0  0  0  0  0  0  0  0
  -43.4991  -30.1989    6.4520 H   0  0  0  0  0  0  0  0  0  0  0  0
  -43.5336  -28.5188    7.0866 H   0  0  0  0  0  0  0  0  0  0  0  0
  -44.3112  -27.6191    5.0021 H   0  0  0  0  0  0  0  0  0  0  0  0
  -43.1862  -28.9069    4.4520 H   0  0  0  0  0  0  0  0  0  0  0  0
  -45.5867  -30.1981    7.5996 H   0  0  0  0  0  0  0  0  0  0  0  0
  -45.9107  -28.4761    7.2040 H   0  0  0  0  0  0  0  0  0  0  0  0
  -45.8286  -28.8053    3.6554 H   0  0  0  0  0  0  0  0  0  0  0  0
  -44.9326  -30.3518    3.8350 H   0  0  0  0  0  0  0  0  0  0  0  0
  -46.3326  -30.9492    5.5341 H   0  0  0  0  0  0  0  0  0  0  0  0
  -48.4071  -28.7703    7.2108 H   0  0  0  0  0  0  0  0  0  0  0  0
  -48.0700  -30.5098    6.9158 H   0  0  0  0  0  0  0  0  0  0  0  0
  -52.0450  -29.1409    8.4452 H   0  0  0  0  0  0  0  0  0  0  0  0
  -52.5495  -30.8423    8.7232 H   0  0  0  0  0  0  0  0  0  0  0  0
  -54.2396  -28.9399    7.0427 H   0  0  0  0  0  0  0  0  0  0  0  0
  -54.7329  -30.4599    7.8629 H   0  0  0  0  0  0  0  0  0  0  0  0
  -52.5355  -31.3310    6.3629 H   0  0  0  0  0  0  0  0  0  0  0  0
  -52.4236  -29.5912    5.9303 H   0  0  0  0  0  0  0  0  0  0  0  0
  -50.3004  -30.9791    7.5114 H   0  0  0  0  0  0  0  0  0  0  0  0
  1  2  2  0  0  0  0
  1  3  1  0  0  0  0
  2  5  1  0  0  0  0
  3  4  2  0  0  0  0
  4 18  1  0  0  0  0
  5 17  2  0  0  0  0
  5 18  1  0  0  0  0
  6 18  1  0  0  0  0
  6 19  1  0  0  0  0
  6 21  2  0  0  0  0
  7 13  1  0  0  0  0
  7 20  1  0  0  0  0
  7 22  2  0  0  0  0
  8  9  1  0  0  0  0
  8 10  1  0  0  0  0
  9 11  1  0  0  0  0
 10 12  1  0  0  0  0
 11 12  1  0  0  0  0
 12 23  1  0  0  0  0
 13 23  1  0  0  0  0
 14 15  1  0  0  0  0
 14 16  1  0  0  0  0
 15 19  1  0  0  0  0
 16 20  1  0  0  0  0
 17 19  1  0  0  0  0
  1 24  1  0  0  0  0
  2 25  1  0  0  0  0
  3 26  1  0  0  0  0
  4 27  1  0  0  0  0
  8 28  1  0  0  0  0
  8 29  1  0  0  0  0
  9 30  1  0  0  0  0
  9 31  1  0  0  0  0
 10 32  1  0  0  0  0
 10 33  1  0  0  0  0
 11 34  1  0  0  0  0
 11 35  1  0  0  0  0
 12 36  1  0  0  0  0
 13 37  1  0  0  0  0
 13 38  1  0  0  0  0
 14 39  1  0  0  0  0
 14 40  1  0  0  0  0
 15 41  1  0  0  0  0
 15 42  1  0  0  0  0
 16 43  1  0  0  0  0
 16 44  1  0  0  0  0
 20 45  1  0  0  0  0
M  END
> <POSIT::Probability>
0.42

> <POSIT::Method>
SHAPEFIT

> <ReceptorTitle>
UCSF-P4578-REFINED_LIGAND-BOUND-STATE_A__DU__LA1_A-201(A)

> <OMEGA_C>
FFBdwnd0y8FyIEFBDWBZwjNtzsHvyzJBAEliwlLu0cFYC0NBYBdjwgek2sEA0TVBCDhawjoq2MFe
ByZBdTpfwsU05cEq9hdB5kVHwgMM7sHNIb5AFiUwwj3q6cHNls1A8nkwwgae5cGA7Z9A0Pg1wmhe
68F2c9pADSw1wi6m68Esl4tABt04wt3X7sFf5bBA5qFBwuaO7MEtks5A8I1SwqzS78H6xwBBO2lY
wgR+7MG+Ev5AKIZQwmjV8sG6VNVAwSBXwvyc3cEUFRlBOR5fwplK3cGOEydBSfVZwgZl5sEL6hFB
UsFKwq5Z88EE9NhAAx9jwtEm6sE+TxFBIrRIwiBG6sGruptAyP49wjS46cGm3KxAG8hcwuRsxMFD
8kpB9sZVwlC6ycE/BTFBHUVlwobRz8HdzE5BjrhmwuVL38Gd3jZBDf8twmOX8cHqds5AYyIuwn0m
5MEjxeJAqz4xwt3z3MGDEaBAs74swkdB58F/do5Az1g2wp+V8cH1L/NAiaQ3wv7O48Fih+ZAdlA3
wkJx5sHm8WlA87ozwm7Q8sH6cHVAj1Q5wuiX98EzF7FA2KBBwoAp5sE9v+ZAuEdAwhkU9MFkTt1A
Fy5QwpEg6cGVHwdBtDJSwhm99sEnkgtBUvVYwtOE58GgXeFAeO5awtqt88EinftAVyRSwuml+sGt
nMtAybFRwr+67MGyxL1AkzNJwh7V98ExXfBA

> <OMEGA_E>
EPZ0Pw==

> <OMEGA_NBR>
    129535

$$$$
CACHE3HI_1707_27
  -OEChem-03092622533D

 39 40  0     0  0  0  0  0  0999 V2000
  -43.0637  -29.6887    3.6625 C   0  0  0  0  0  0  0  0  0  0  0  0
  -53.7365  -28.4386    5.9233 C   0  0  0  0  0  0  0  0  0  0  0  0
  -53.9863  -27.7767    7.1255 C   0  0  0  0  0  0  0  0  0  0  0  0
  -52.6836  -29.3491    5.8349 C   0  0  0  0  0  0  0  0  0  0  0  0
  -52.1308  -28.9360    8.1506 C   0  0  0  0  0  0  0  0  0  0  0  0
  -53.1837  -28.0254    8.2390 C   0  0  0  0  0  0  0  0  0  0  0  0
  -51.8810  -29.5979    6.9485 C   0  0  0  0  0  0  0  0  0  0  0  0
  -46.5583  -29.5077    2.3088 C   0  0  0  0  0  0  0  0  0  0  0  0
  -47.2642  -29.2777    3.4192 C   0  0  0  0  0  0  0  0  0  0  0  0
  -44.4783  -29.5543    3.5516 C   0  0  0  0  0  0  0  0  0  0  0  0
  -45.1171  -29.6519    2.3679 C   0  0  0  0  0  0  0  0  0  0  0  0
  -45.2709  -29.2946    4.8105 C   0  0  0  0  0  0  0  0  0  0  0  0
  -48.8702  -29.5469    5.5809 C   0  0  0  0  0  0  0  0  0  0  0  0
  -53.4517  -27.3173    9.5239 C   0  0  0  0  0  0  0  0  0  0  0  0
  -44.4583  -29.9070    1.0388 C   0  0  0  0  0  0  0  0  0  0  0  0
  -50.7477  -30.5785    6.8525 C   0  0  0  0  0  0  0  0  0  0  0  0
  -47.5121  -28.9180    5.8073 C   0  0  0  0  0  0  0  0  0  0  0  0
  -41.9125  -29.7977    3.7540 N   0  0  0  0  0  0  0  0  0  0  0  0
  -46.6557  -29.1699    4.6533 N   0  0  0  0  0  0  0  0  0  0  0  0
  -49.4645  -29.9168    6.7789 N   0  0  0  0  0  0  0  0  0  0  0  0
  -44.6830  -29.2061    5.8890 O   0  0  0  0  0  0  0  0  0  0  0  0
  -49.3499  -29.7320    4.4652 O   0  0  0  0  0  0  0  0  0  0  0  0
  -54.3614  -28.2449    5.0565 H   0  0  0  0  0  0  0  0  0  0  0  0
  -54.8087  -27.0687    7.1853 H   0  0  0  0  0  0  0  0  0  0  0  0
  -52.4961  -29.8603    4.8944 H   0  0  0  0  0  0  0  0  0  0  0  0
  -51.5050  -29.1299    9.0186 H   0  0  0  0  0  0  0  0  0  0  0  0
  -47.0592  -29.5887    1.3499 H   0  0  0  0  0  0  0  0  0  0  0  0
  -48.3426  -29.1675    3.3909 H   0  0  0  0  0  0  0  0  0  0  0  0
  -54.1524  -27.8825   10.1524 H   0  0  0  0  0  0  0  0  0  0  0  0
  -53.9050  -26.3325    9.3490 H   0  0  0  0  0  0  0  0  0  0  0  0
  -52.5190  -27.1760   10.0839 H   0  0  0  0  0  0  0  0  0  0  0  0
  -44.1950  -28.9575    0.5822 H   0  0  0  0  0  0  0  0  0  0  0  0
  -45.1464  -30.4470    0.3951 H   0  0  0  0  0  0  0  0  0  0  0  0
  -43.5636  -30.5033    1.1918 H   0  0  0  0  0  0  0  0  0  0  0  0
  -50.7361  -31.2415    7.7240 H   0  0  0  0  0  0  0  0  0  0  0  0
  -50.8495  -31.2107    5.9643 H   0  0  0  0  0  0  0  0  0  0  0  0
  -47.6026  -27.8352    5.9325 H   0  0  0  0  0  0  0  0  0  0  0  0
  -47.0441  -29.3577    6.6921 H   0  0  0  0  0  0  0  0  0  0  0  0
  -48.9749  -29.7129    7.6452 H   0  0  0  0  0  0  0  0  0  0  0  0
  1 10  1  0  0  0  0
  1 18  3  0  0  0  0
  2  3  2  0  0  0  0
  2  4  1  0  0  0  0
  3  6  1  0  0  0  0
  4  7  2  0  0  0  0
  5  6  2  0  0  0  0
  5  7  1  0  0  0  0
  6 14  1  0  0  0  0
  7 16  1  0  0  0  0
  8  9  2  0  0  0  0
  8 11  1  0  0  0  0
  9 19  1  0  0  0  0
 10 11  2  0  0  0  0
 10 12  1  0  0  0  0
 11 15  1  0  0  0  0
 12 19  1  0  0  0  0
 12 21  2  0  0  0  0
 13 17  1  0  0  0  0
 13 20  1  0  0  0  0
 13 22  2  0  0  0  0
 16 20  1  0  0  0  0
 17 19  1  0  0  0  0
  2 23  1  0  0  0  0
  3 24  1  0  0  0  0
  4 25  1  0  0  0  0
  5 26  1  0  0  0  0
  8 27  1  0  0  0  0
  9 28  1  0  0  0  0
 14 29  1  0  0  0  0
 14 30  1  0  0  0  0
 14 31  1  0  0  0  0
 15 32  1  0  0  0  0
 15 33  1  0  0  0  0
 15 34  1  0  0  0  0
 16 35  1  0  0  0  0
 16 36  1  0  0  0  0
 17 37  1  0  0  0  0
 17 38  1  0  0  0  0
 20 39  1  0  0  0  0
M  END
> <POSIT::Probability>
0.24

> <POSIT::Method>
FRED

> <ReceptorTitle>
UCSF-P4578-REFINED_LIGAND-BOUND-STATE_A__DU__LA1_A-201(A)

> <OMEGA_C>
MEEswm+C7cEwZ2pAJPJWwj6C48H0i71A9vFXwqQ23sH4A+RAAbxSwg3L6sHQt7pA8oVQwuh858Hl
aAJBHbxUwgU04MEW0wNBKYZPwm7I7MEGWt5AqDs6wrwP7MFowxNAiA49wsA46sGY1FpA0+kxwjdv
7MGoTGNA4Xc0wgA37cFwixdAcxU1wlZb6sE875lAHXtDwgBg7MEIl7JAjc5VwtOJ2sHmYRhBTtUx
wn1B78Fg9oQ/mP1Kwteg9MGiR9tAaAw+wgRY58FU1blAYKYnwsVh7sGoQXBAd586wvdb6cHY55RA
sNtFwoZV78H07NhAcLsywiCm6cFocrxARGZFwibb7cEQ445AHnJZwpz14cGezqFAHTxbwsOM2MGo
7eVA+PtRwv3h7sH4npxAJQVOwgsK6cEUTBBBqjw8wra17MEQyKw/zF5BwgBX6cHUBFlAApxYwmUP
38FecCJBtp5Xwgqp0sGYlRVBgRNSwmRo2cGSVyFBt8cwwumo58FAChU/35U0woyT88FgRso+I0Eu
wtoG9MF4i5g/yPFKwoDu+cEaK/dA6WVLwpiv+cE6275ADWk+woau3sEu171AMC08wo7c6sFmJdZA
QeZDwgS07cGwpfRA

> <OMEGA_E>
LNsUwQ==

> <OMEGA_NBR>
    130801

$$$$
CACHE3HI_1707_39
  -OEChem-03092622533D

 41 43  0     0  0  0  0  0  0999 V2000
  -56.0910  -30.2060   10.8339 C   0  0  0  0  0  0  0  0  0  0  0  0
  -56.0818  -28.9189   11.3715 C   0  0  0  0  0  0  0  0  0  0  0  0
  -55.0454  -30.6251   10.0114 C   0  0  0  0  0  0  0  0  0  0  0  0
  -53.9815  -28.4704   10.2644 C   0  0  0  0  0  0  0  0  0  0  0  0
  -51.3318  -31.3372    8.2651 C   0  0  0  0  0  0  0  0  0  0  0  0
  -44.9283  -29.4309    5.4296 C   0  0  0  0  0  0  0  0  0  0  0  0
  -51.5113  -30.3475    7.2801 C   0  0  0  0  0  0  0  0  0  0  0  0
  -55.0272  -28.0512   11.0869 C   0  0  0  0  0  0  0  0  0  0  0  0
  -53.9908  -29.7575    9.7269 C   0  0  0  0  0  0  0  0  0  0  0  0
  -52.5758  -29.6051    7.7304 C   0  0  0  0  0  0  0  0  0  0  0  0
  -47.0979  -29.4179    5.4818 C   0  0  0  0  0  0  0  0  0  0  0  0
  -50.7770  -30.1314    6.0707 C   0  0  0  0  0  0  0  0  0  0  0  0
  -53.2528  -28.4298    7.1440 C   0  0  0  0  0  0  0  0  0  0  0  0
  -46.0518  -30.3261    3.3788 C   0  0  0  0  0  0  0  0  0  0  0  0
  -48.5244  -29.6117    5.0541 C   0  0  0  0  0  0  0  0  0  0  0  0
  -55.0185  -26.6752   11.6620 C   0  0  0  0  0  0  0  0  0  0  0  0
  -52.2112  -31.2354    9.2651 N   0  0  0  0  0  0  0  0  0  0  0  0
  -45.2920  -28.9299    6.5889 N   0  0  0  0  0  0  0  0  0  0  0  0
  -46.6727  -28.9215    6.6219 N   0  0  0  0  0  0  0  0  0  0  0  0
  -46.0329  -29.7517    4.7010 N   0  0  0  0  0  0  0  0  0  0  0  0
  -52.9542  -30.1730    8.9114 N   0  0  0  0  0  0  0  0  0  0  0  0
  -49.3954  -29.8708    6.1778 N   0  0  0  0  0  0  0  0  0  0  0  0
  -51.3422  -30.1524    4.9501 O   0  0  0  0  0  0  0  0  0  0  0  0
  -56.1023  -26.4004   12.4464 F   0  0  0  0  0  0  0  0  0  0  0  0
  -55.0067  -25.7051   10.7019 F   0  0  0  0  0  0  0  0  0  0  0  0
  -53.9331  -26.4224   12.4518 F   0  0  0  0  0  0  0  0  0  0  0  0
  -56.9119  -30.8817   11.0554 H   0  0  0  0  0  0  0  0  0  0  0  0
  -56.9009  -28.6010   12.0110 H   0  0  0  0  0  0  0  0  0  0  0  0
  -55.0647  -31.6309    9.5985 H   0  0  0  0  0  0  0  0  0  0  0  0
  -53.1609  -27.7903   10.0449 H   0  0  0  0  0  0  0  0  0  0  0  0
  -50.5980  -32.1302    8.2983 H   0  0  0  0  0  0  0  0  0  0  0  0
  -43.9164  -29.5784    5.0803 H   0  0  0  0  0  0  0  0  0  0  0  0
  -54.0848  -28.7209    6.4811 H   0  0  0  0  0  0  0  0  0  0  0  0
  -52.5671  -27.8247    6.5272 H   0  0  0  0  0  0  0  0  0  0  0  0
  -53.6627  -27.7761    7.9305 H   0  0  0  0  0  0  0  0  0  0  0  0
  -46.0533  -31.4202    3.4276 H   0  0  0  0  0  0  0  0  0  0  0  0
  -45.1724  -29.9985    2.8158 H   0  0  0  0  0  0  0  0  0  0  0  0
  -46.9532  -30.0251    2.8349 H   0  0  0  0  0  0  0  0  0  0  0  0
  -48.8965  -28.7211    4.5368 H   0  0  0  0  0  0  0  0  0  0  0  0
  -48.6152  -30.4531    4.3593 H   0  0  0  0  0  0  0  0  0  0  0  0
  -48.9877  -29.7995    7.1041 H   0  0  0  0  0  0  0  0  0  0  0  0
  1  2  1  0  0  0  0
  1  3  2  0  0  0  0
  2  8  2  0  0  0  0
  3  9  1  0  0  0  0
  4  8  1  0  0  0  0
  4  9  2  0  0  0  0
  5  7  1  0  0  0  0
  5 17  2  0  0  0  0
  6 18  2  0  0  0  0
  6 20  1  0  0  0  0
  7 10  2  0  0  0  0
  7 12  1  0  0  0  0
  8 16  1  0  0  0  0
  9 21  1  0  0  0  0
 10 13  1  0  0  0  0
 10 21  1  0  0  0  0
 11 15  1  0  0  0  0
 11 19  2  0  0  0  0
 11 20  1  0  0  0  0
 12 22  1  0  0  0  0
 12 23  2  0  0  0  0
 14 20  1  0  0  0  0
 15 22  1  0  0  0  0
 16 24  1  0  0  0  0
 16 25  1  0  0  0  0
 16 26  1  0  0  0  0
 17 21  1  0  0  0  0
 18 19  1  0  0  0  0
  1 27  1  0  0  0  0
  2 28  1  0  0  0  0
  3 29  1  0  0  0  0
  4 30  1  0  0  0  0
  5 31  1  0  0  0  0
  6 32  1  0  0  0  0
 13 33  1  0  0  0  0
 13 34  1  0  0  0  0
 13 35  1  0  0  0  0
 14 36  1  0  0  0  0
 14 37  1  0  0  0  0
 14 38  1  0  0  0  0
 15 39  1  0  0  0  0
 15 40  1  0  0  0  0
 22 41  1  0  0  0  0
M  END
> <POSIT::Probability>
0.33

> <POSIT::Method>
HYBRID

> <ReceptorTitle>
UCSF-P4578-REFINED_LIGAND-BOUND-STATE_A__DU__LA1_A-201(A)

> <OMEGA_C>
KV1gwuil8cGWVy1BvlNgwuxZ58F+8TVBdC5cwk0A9cG2LiBBGu1XwmXD48H5OiRBxVNNwqqy+sGu
PQRBirYzwnty68GWv61AjAtOwqPH8sHz9uhA1Rtcwuxo4MH+YzFBjPZXwk0P7sE2oRtBo01SwlXX
7MGwX/dAPGQ8wvJX68Exa69AnhtLwjEN8cHwQsJA1gJVwjZw48FCm+RAFjU4wtib8sHwPlhA+xhC
wsDk7MEwu6FA/BJcwtRm1cGPlzpBUNhQwh7i+cHKPRRB/Co1wmZw58Fl2NJA1rA6wlFf58He5tNA
uyE4wowD7sE2bpZAF9FTwjhi8cHwlA5B7JRFwmv37sHIsMVAaF5Nwh048cH+Zp5Au2hgwvMz08Gi
JEdB2AZcwgKkzcEBOytBertXwvxg08GqOkdBwKVjwskN98G34jBBkJpjwuzO5MH4LEBBR0JcwgYM
/cGLkxlBxKRUwnJS3sHXtyBBYmRKwluFAMIKxgRBWKovwnqg7MEEkqJA31ZYwn3E5cEeZc9ArURS
wuOY3sFx3tBAp6ZWwoE13sGZxv1AljY4wpBc+8H0XVtAhrA0wuP878FkNTRADNA7wm0z8MGIbjVA
BpZDwtvE5cHYLZFA/nVCwgeg88F0f4tAcPNDwlVl7sGnVONA

> <OMEGA_E>
VLGYwA==

> <OMEGA_NBR>
    132114

$$$$
CACHE3HI_1707_4
  -OEChem-03092622533D

 48 50  0     0  0  0  0  0  0999 V2000
  -48.9987  -31.0347    2.9252 C   0  0  0  0  0  0  0  0  0  0  0  0
  -47.8050  -30.3505    2.6958 C   0  0  0  0  0  0  0  0  0  0  0  0
  -49.7335  -30.7847    4.0841 C   0  0  0  0  0  0  0  0  0  0  0  0
  -48.0811  -29.1665    4.7838 C   0  0  0  0  0  0  0  0  0  0  0  0
  -52.1804  -29.3934   10.1478 C   0  0  0  0  0  0  0  0  0  0  0  0
  -47.3463  -29.4164    3.6248 C   0  0  0  0  0  0  0  0  0  0  0  0
  -49.2748  -29.8507    5.0131 C   0  0  0  0  0  0  0  0  0  0  0  0
  -51.8114  -31.1420    8.8772 C   0  0  0  0  0  0  0  0  0  0  0  0
  -51.6099  -30.1549    7.9354 C   0  0  0  0  0  0  0  0  0  0  0  0
  -43.4677  -31.3290    2.6692 C   0  0  0  0  0  0  0  0  0  0  0  0
  -43.1865  -29.4336    1.0516 C   0  0  0  0  0  0  0  0  0  0  0  0
  -44.4263  -30.4462    3.4726 C   0  0  0  0  0  0  0  0  0  0  0  0
  -44.1540  -28.6126    1.9078 C   0  0  0  0  0  0  0  0  0  0  0  0
  -42.4539  -30.5141    1.8563 C   0  0  0  0  0  0  0  0  0  0  0  0
  -51.7068  -32.5974    8.6470 C   0  0  0  0  0  0  0  0  0  0  0  0
  -46.0608  -28.6805    3.3771 C   0  0  0  0  0  0  0  0  0  0  0  0
  -51.2486  -30.2642    6.4818 C   0  0  0  0  0  0  0  0  0  0  0  0
  -41.3620  -29.9156    2.7470 C   0  0  0  0  0  0  0  0  0  0  0  0
  -52.1387  -30.7071   10.1466 N   0  0  0  0  0  0  0  0  0  0  0  0
  -45.1124  -29.4809    2.6044 N   0  0  0  0  0  0  0  0  0  0  0  0
  -50.0184  -29.5985    6.1848 N   0  0  0  0  0  0  0  0  0  0  0  0
  -40.6882  -30.9729    3.4051 O   0  0  0  0  0  0  0  0  0  0  0  0
  -51.8383  -28.6163    8.6570 S   0  0  0  0  0  0  0  0  0  0  0  0
  -49.3556  -31.7621    2.2019 H   0  0  0  0  0  0  0  0  0  0  0  0
  -47.2388  -30.5517    1.7901 H   0  0  0  0  0  0  0  0  0  0  0  0
  -50.6627  -31.3230    4.2529 H   0  0  0  0  0  0  0  0  0  0  0  0
  -47.7220  -28.4379    5.5071 H   0  0  0  0  0  0  0  0  0  0  0  0
  -52.4201  -28.8270   11.0370 H   0  0  0  0  0  0  0  0  0  0  0  0
  -42.9359  -32.0076    3.3584 H   0  0  0  0  0  0  0  0  0  0  0  0
  -44.0512  -31.9768    1.9947 H   0  0  0  0  0  0  0  0  0  0  0  0
  -43.7435  -29.9002    0.2223 H   0  0  0  0  0  0  0  0  0  0  0  0
  -42.4533  -28.7552    0.5814 H   0  0  0  0  0  0  0  0  0  0  0  0
  -45.1498  -31.0784    4.0047 H   0  0  0  0  0  0  0  0  0  0  0  0
  -43.8414  -29.9125    4.2320 H   0  0  0  0  0  0  0  0  0  0  0  0
  -43.5647  -28.0476    2.6402 H   0  0  0  0  0  0  0  0  0  0  0  0
  -44.6752  -27.8816    1.2756 H   0  0  0  0  0  0  0  0  0  0  0  0
  -41.9630  -31.1990    1.1391 H   0  0  0  0  0  0  0  0  0  0  0  0
  -50.6853  -32.9721    8.8288 H   0  0  0  0  0  0  0  0  0  0  0  0
  -51.9515  -32.8689    7.6060 H   0  0  0  0  0  0  0  0  0  0  0  0
  -52.3909  -33.1532    9.3085 H   0  0  0  0  0  0  0  0  0  0  0  0
  -46.2472  -27.7528    2.8260 H   0  0  0  0  0  0  0  0  0  0  0  0
  -45.5769  -28.4067    4.3205 H   0  0  0  0  0  0  0  0  0  0  0  0
  -51.1440  -31.3139    6.1880 H   0  0  0  0  0  0  0  0  0  0  0  0
  -52.0276  -29.8255    5.8495 H   0  0  0  0  0  0  0  0  0  0  0  0
  -41.8089  -29.2551    3.4894 H   0  0  0  0  0  0  0  0  0  0  0  0
  -40.6499  -29.3578    2.1385 H   0  0  0  0  0  0  0  0  0  0  0  0
  -49.6466  -28.9183    6.8202 H   0  0  0  0  0  0  0  0  0  0  0  0
  -40.0015  -30.5699    3.9632 H   0  0  0  0  0  0  0  0  0  0  0  0
  1  2  1  0  0  0  0
  1  3  2  0  0  0  0
  2  6  2  0  0  0  0
  3  7  1  0  0  0  0
  4  6  1  0  0  0  0
  4  7  2  0  0  0  0
  5 19  2  0  0  0  0
  5 23  1  0  0  0  0
  6 16  1  0  0  0  0
  7 21  1  0  0  0  0
  8  9  2  0  0  0  0
  8 15  1  0  0  0  0
  8 19  1  0  0  0  0
  9 17  1  0  0  0  0
  9 23  1  0  0  0  0
 10 12  1  0  0  0  0
 10 14  1  0  0  0  0
 11 13  1  0  0  0  0
 11 14  1  0  0  0  0
 12 20  1  0  0  0  0
 13 20  1  0  0  0  0
 14 18  1  0  0  0  0
 16 20  1  0  0  0  0
 17 21  1  0  0  0  0
 18 22  1  0  0  0  0
  1 24  1  0  0  0  0
  2 25  1  0  0  0  0
  3 26  1  0  0  0  0
  4 27  1  0  0  0  0
  5 28  1  0  0  0  0
 10 29  1  0  0  0  0
 10 30  1  0  0  0  0
 11 31  1  0  0  0  0
 11 32  1  0  0  0  0
 12 33  1  0  0  0  0
 12 34  1  0  0  0  0
 13 35  1  0  0  0  0
 13 36  1  0  0  0  0
 14 37  1  0  0  0  0
 15 38  1  0  0  0  0
 15 39  1  0  0  0  0
 15 40  1  0  0  0  0
 16 41  1  0  0  0  0
 16 42  1  0  0  0  0
 17 43  1  0  0  0  0
 17 44  1  0  0  0  0
 18 45  1  0  0  0  0
 18 46  1  0  0  0  0
 21 47  1  0  0  0  0
 22 48  1  0  0  0  0
M  END
> <POSIT::Probability>
0.05

> <POSIT::Method>
FRED

> <ReceptorTitle>
UCSF-P4578-REFINED_LIGAND-BOUND-STATE_A__DU__LA1_A-201(A)

> <OMEGA_C>
qP5DwgFH+MGQNjtATzg/wr7N8sG9hyxAFu9GwidH9sEAsYJAFFNAwulU6cF9FJlAwbhQwpwl68E7
XSJBmmI9wr5U68Hm/GdAYhlFwifO7sGXa6BA7D5PwsIi+cEyCQ5BiXBOwkA98cH67v1A9N4tws2h
+sHt0ypABL8swvx368HSmYY/gLQxwsWR88H/Pl5Avp0wwobm5MEiMvQ/w9ApwuEc9MFEmu0/ydNO
wsdjAsIKWgpBPj44wplx5cENI1hAlP5Mwvwc8sEMa89AtXIlwiNT78FYzi9AFI5Qwguo9cF0WCJB
FnM0wuvY68HVriZA0hJIwsjJ7MG66cVAr8AiwnXI98F57FlAclpPwhru5MHqggpBGGxFwrcY/sHq
6wxAjfQ8wu5p9MEkIuU/lKZKwpCV+sGzF4hAWuM+wtaA48F2OrBAMa5Rwrmd5sF6lzBBXL4rwskH
AMKn71ZAczQwwn/Q/8GsUf8/W/kuwqwz78Egn2M+M9ApwqkK5sGg0xQ/bJk0wpeg+MGiJoBAkl0v
wrtM78FQbIdAN0Iuwoph4MF8+ShAbrMywoEN38FaR6M/FdonwouX+cGIzZE/zL1KwmzjA8L0Qg1B
VM5Pws55A8J4ZPNAO5BRwuOcBMKO7xRBK/04wqoF3sFT3TRAx042wvdA48G1QYpAcJNMwsqC+sFm
BMZAOhxQwqSa7sEWL7tARjwnwlsK6sGXUl9Agpkiwsrc6sFl3QhAI5ZGwppY58FLP9pAlAEgwhGP
9MFWpH1A

> <OMEGA_E>
EaUBwQ==

> <OMEGA_NBR>
    133562

$$$$
CACHE3HI_1707_48
  -OEChem-03092622533D

 54 56  0     1  0  0  0  0  0999 V2000
  -48.6155  -28.4991    5.1713 C   0  0  0  0  0  0  0  0  0  0  0  0
  -49.8142  -29.1981    5.3134 C   0  0  0  0  0  0  0  0  0  0  0  0
  -47.7525  -28.8026    4.1184 C   0  0  0  0  0  0  0  0  0  0  0  0
  -50.1500  -30.2002    4.4028 C   0  0  0  0  0  0  0  0  0  0  0  0
  -43.8765  -33.3712   -1.3549 C   0  0  0  0  0  0  0  0  0  0  0  0
  -44.0615  -34.0348   -0.1644 C   0  0  0  0  0  0  0  0  0  0  0  0
  -48.0883  -29.8047    3.2078 C   0  0  0  0  0  0  0  0  0  0  0  0
  -49.2870  -30.5037    3.3499 C   0  0  0  0  0  0  0  0  0  0  0  0
  -43.4471  -31.9436    0.1647 C   0  0  0  0  0  0  0  0  0  0  0  0
  -41.4408  -29.7117    2.5610 C   0  0  0  0  0  0  0  0  0  0  0  0
  -42.5079  -28.6558    2.7432 C   0  0  0  0  0  0  0  0  0  0  0  0
  -43.8417  -29.3364    2.9842 C   0  0  0  0  0  0  0  0  0  0  0  0
  -43.0733  -30.6784    0.9287 C   0  0  1  0  0  0  0  0  0  0  0  0
  -44.2799  -30.1567    1.7661 C   0  0  2  0  0  0  0  0  0  0  0  0
  -47.1489  -28.0083    0.6979 C   0  0  0  0  0  0  0  0  0  0  0  0
  -43.8422  -33.3318    2.2249 C   0  0  0  0  0  0  0  0  0  0  0  0
  -40.8271  -31.7957    1.4054 C   0  0  0  0  0  0  0  0  0  0  0  0
  -50.3803  -31.0937    1.3217 C   0  0  0  0  0  0  0  0  0  0  0  0
  -47.1407  -30.1197    2.0736 C   0  0  0  0  0  0  0  0  0  0  0  0
  -46.3235  -28.9019    1.6183 C   0  0  1  0  0  0  0  0  0  0  0  0
  -43.4942  -32.0706   -1.1433 N   0  0  0  0  0  0  0  0  0  0  0  0
  -43.7828  -33.1072    0.7997 N   0  0  0  0  0  0  0  0  0  0  0  0
  -41.8198  -30.7714    1.7221 N   0  0  0  0  0  0  0  0  0  0  0  0
  -45.1355  -29.3336    0.9013 N   0  0  0  0  0  0  0  0  0  0  0  0
  -40.3441  -29.5914    3.1063 O   0  0  0  0  0  0  0  0  0  0  0  0
  -49.6298  -31.4855    2.4697 O   0  0  0  0  0  0  0  0  0  0  0  0
  -48.3544  -27.7187    5.8801 H   0  0  0  0  0  0  0  0  0  0  0  0
  -50.4856  -28.9628    6.1341 H   0  0  0  0  0  0  0  0  0  0  0  0
  -46.8208  -28.2526    4.0156 H   0  0  0  0  0  0  0  0  0  0  0  0
  -51.0857  -30.7403    4.5193 H   0  0  0  0  0  0  0  0  0  0  0  0
  -43.9992  -33.7644   -2.3533 H   0  0  0  0  0  0  0  0  0  0  0  0
  -44.3573  -35.0476    0.0711 H   0  0  0  0  0  0  0  0  0  0  0  0
  -42.2293  -28.0315    3.5782 H   0  0  0  0  0  0  0  0  0  0  0  0
  -42.5643  -28.0660    1.8406 H   0  0  0  0  0  0  0  0  0  0  0  0
  -43.7599  -29.9893    3.8765 H   0  0  0  0  0  0  0  0  0  0  0  0
  -44.6141  -28.5796    3.2353 H   0  0  0  0  0  0  0  0  0  0  0  0
  -42.8475  -29.8809    0.1594 H   0  0  0  0  0  0  0  0  0  0  0  0
  -44.8910  -31.0085    2.1094 H   0  0  0  0  0  0  0  0  0  0  0  0
  -47.4833  -28.5605   -0.1859 H   0  0  0  0  0  0  0  0  0  0  0  0
  -48.0367  -27.6304    1.2165 H   0  0  0  0  0  0  0  0  0  0  0  0
  -46.5708  -27.1404    0.3598 H   0  0  0  0  0  0  0  0  0  0  0  0
  -42.8773  -33.6824    2.6062 H   0  0  0  0  0  0  0  0  0  0  0  0
  -44.6063  -34.0811    2.4542 H   0  0  0  0  0  0  0  0  0  0  0  0
  -44.0833  -32.4056    2.7567 H   0  0  0  0  0  0  0  0  0  0  0  0
  -40.8631  -32.6060    2.1393 H   0  0  0  0  0  0  0  0  0  0  0  0
  -41.0180  -32.2127    0.4126 H   0  0  0  0  0  0  0  0  0  0  0  0
  -39.8231  -31.3626    1.4096 H   0  0  0  0  0  0  0  0  0  0  0  0
  -50.5871  -31.9710    0.7033 H   0  0  0  0  0  0  0  0  0  0  0  0
  -51.3239  -30.6499    1.6480 H   0  0  0  0  0  0  0  0  0  0  0  0
  -49.8129  -30.3566    0.7487 H   0  0  0  0  0  0  0  0  0  0  0  0
  -46.4732  -30.9404    2.3698 H   0  0  0  0  0  0  0  0  0  0  0  0
  -47.7332  -30.5078    1.2343 H   0  0  0  0  0  0  0  0  0  0  0  0
  -46.0097  -28.3124    2.4875 H   0  0  0  0  0  0  0  0  0  0  0  0
  -44.6062  -28.5203    0.5966 H   0  0  0  0  0  0  0  0  0  0  0  0
  1  2  1  0  0  0  0
  1  3  2  0  0  0  0
  2  4  2  0  0  0  0
  3  7  1  0  0  0  0
  4  8  1  0  0  0  0
  5  6  2  0  0  0  0
  5 21  1  0  0  0  0
  6 22  1  0  0  0  0
  7  8  2  0  0  0  0
  7 19  1  0  0  0  0
  8 26  1  0  0  0  0
  9 13  1  0  0  0  0
  9 21  2  0  0  0  0
  9 22  1  0  0  0  0
 10 11  1  0  0  0  0
 10 23  1  0  0  0  0
 10 25  2  0  0  0  0
 11 12  1  0  0  0  0
 12 14  1  0  0  0  0
 13 14  1  0  0  0  0
 13 23  1  0  0  0  0
 14 24  1  0  0  0  0
 15 20  1  0  0  0  0
 16 22  1  0  0  0  0
 17 23  1  0  0  0  0
 18 26  1  0  0  0  0
 19 20  1  0  0  0  0
 20 24  1  0  0  0  0
  1 27  1  0  0  0  0
  2 28  1  0  0  0  0
  3 29  1  0  0  0  0
  4 30  1  0  0  0  0
  5 31  1  0  0  0  0
  6 32  1  0  0  0  0
 11 33  1  0  0  0  0
 11 34  1  0  0  0  0
 12 35  1  0  0  0  0
 12 36  1  0  0  0  0
 13 37  1  0  0  0  0
 14 38  1  0  0  0  0
 15 39  1  0  0  0  0
 15 40  1  0  0  0  0
 15 41  1  0  0  0  0
 16 42  1  0  0  0  0
 16 43  1  0  0  0  0
 16 44  1  0  0  0  0
 17 45  1  0  0  0  0
 17 46  1  0  0  0  0
 17 47  1  0  0  0  0
 18 48  1  0  0  0  0
 18 49  1  0  0  0  0
 18 50  1  0  0  0  0
 19 51  1  0  0  0  0
 19 52  1  0  0  0  0
 20 53  1  0  0  0  0
 24 54  1  0  0  0  0
M  END
> <POSIT::Probability>
0.02

> <POSIT::Method>
FRED

> <ReceptorTitle>
UCSF-P4578-REFINED_LIGAND-BOUND-STATE_A__DU__LA1_A-201(A)

> <OMEGA_C>
R3ZCwj/+48HyeqVAw0FHwsaV6cGEB6pAlQI/wtJr5sGmyYNApplIwuuZ8cH244xAiYEvwh98BcKQ
ba2/8T4wwqMjCMKgUyi+eFpAwvZv7sE0TE1A5yVFwnwH9MHJZFZAysktwnSM/8Egmig+WsMlwqCx
7cH85yNAEAgqwgw/5cHRkC9A8V0vwuKw6sHO/D5AE0sswlpt9cHAvW0/oR4xwvVA8cHEEOI/eJg8
wvYQ4MHYpzI/cl4vwsVTBcIPZA5AAE8jwpdd/sG45LM/YYVJwtm/+MEkLKk/EJA8wjP18MGstQRA
OUs5whs358EQJs8/Bfotwk5IAMLUWJK/nCEvwsBtBMKguUw/d0cnwuQr9sHSbdw/tIo0wier6sGo
vmY/WGAhwhq77MFbzkZA8oRGwkDi+8H7Dx5A3WpBwti/3cGXKbxAOPFJwsKz58FISsRAiUg7wkAF
4sGmf4BAwldMwirs9cHWnZBAM/8vwssOB8IanRbA120xwsIwDMJAjJE91uoowo1A4MEMAWVA3EEq
wiiH4MGGl+s/Lwovwi/q78FoGHhA0XQywhqj5MHiDk9AzGMrwhIM78FgRiM+XZAzwnwR+MHhAAdA
6u49wuh75MFAZz6+myVAwhAL3cFMtZs/i0g6wngf2cHgPbg+WYIrwsa6BsLXyyZA5mwywv9SCMKv
ER1ATVUwwlSfAcJXbjBAxnMjwohsAsIq6ghAdxIkwtbZAMKQQNM+2EofwoLm+sE4brQ/NFlKwo7E
/8FYCTQ/s0tNwg0z9cEU8dI/b0BHwlba8sEgqz8/keQ5wt+F98FaqhdA1e4+wgoQ9MFo/Z0/5Qk4
wsR/4sHZMx9AwWwywoEp5MEAuBg/

> <OMEGA_E>
r1PSwA==

> <OMEGA_NBR>
    135142

$$$$
CACHE3HI_1707_51
  -OEChem-03092622533D

 48 50  0     0  0  0  0  0  0999 V2000
  -44.2759  -31.6564    0.7743 C   0  0  0  0  0  0  0  0  0  0  0  0
  -47.1358  -28.1852    5.4407 C   0  0  0  0  0  0  0  0  0  0  0  0
  -48.4713  -28.4720    5.1580 C   0  0  0  0  0  0  0  0  0  0  0  0
  -46.1280  -28.6651    4.6044 C   0  0  0  0  0  0  0  0  0  0  0  0
  -48.7990  -29.2383    4.0393 C   0  0  0  0  0  0  0  0  0  0  0  0
  -47.7910  -29.7182    3.2030 C   0  0  0  0  0  0  0  0  0  0  0  0
  -46.4556  -29.4314    3.4857 C   0  0  0  0  0  0  0  0  0  0  0  0
  -50.2182  -29.5230    3.7676 C   0  0  0  0  0  0  0  0  0  0  0  0
  -44.3652  -30.7425    3.0047 C   0  0  0  0  0  0  0  0  0  0  0  0
  -41.3911  -29.7497    1.7892 C   0  0  0  0  0  0  0  0  0  0  0  0
  -41.0429  -31.2235    1.7075 C   0  0  0  0  0  0  0  0  0  0  0  0
  -42.8392  -29.7068    1.3148 C   0  0  0  0  0  0  0  0  0  0  0  0
  -42.2906  -31.9101    2.2529 C   0  0  0  0  0  0  0  0  0  0  0  0
  -52.4979  -29.2222    4.6541 C   0  0  0  0  0  0  0  0  0  0  0  0
  -50.7124  -30.1127    6.1813 C   0  0  0  0  0  0  0  0  0  0  0  0
  -53.0873  -28.4887    5.8485 C   0  0  0  0  0  0  0  0  0  0  0  0
  -51.8640  -30.7236    6.9677 C   0  0  0  0  0  0  0  0  0  0  0  0
  -43.4721  -31.0162    1.8269 C   0  0  0  0  0  0  0  0  0  0  0  0
  -48.1434  -30.5405    2.0024 C   0  0  0  0  0  0  0  0  0  0  0  0
  -44.9108  -32.1613   -0.0560 N   0  0  0  0  0  0  0  0  0  0  0  0
  -51.0996  -29.6087    4.8550 N   0  0  0  0  0  0  0  0  0  0  0  0
  -45.4171  -29.9073    2.6513 N   0  0  0  0  0  0  0  0  0  0  0  0
  -50.5308  -29.6618    2.5849 O   0  0  0  0  0  0  0  0  0  0  0  0
  -44.1282  -31.2390    4.1014 O   0  0  0  0  0  0  0  0  0  0  0  0
  -53.1692  -29.5171    7.3455 S   0  0  0  0  0  0  0  0  0  0  0  0
  -46.8809  -27.5889    6.3118 H   0  0  0  0  0  0  0  0  0  0  0  0
  -49.2481  -28.0925    5.8174 H   0  0  0  0  0  0  0  0  0  0  0  0
  -45.0907  -28.4352    4.8352 H   0  0  0  0  0  0  0  0  0  0  0  0
  -41.3211  -29.3977    2.8252 H   0  0  0  0  0  0  0  0  0  0  0  0
  -40.7342  -29.1307    1.1714 H   0  0  0  0  0  0  0  0  0  0  0  0
  -40.8741  -31.5182    0.6650 H   0  0  0  0  0  0  0  0  0  0  0  0
  -40.1472  -31.4737    2.2833 H   0  0  0  0  0  0  0  0  0  0  0  0
  -43.3390  -28.8033    1.6810 H   0  0  0  0  0  0  0  0  0  0  0  0
  -42.8522  -29.6603    0.2178 H   0  0  0  0  0  0  0  0  0  0  0  0
  -42.3619  -32.9383    1.8799 H   0  0  0  0  0  0  0  0  0  0  0  0
  -42.2103  -31.9697    3.3461 H   0  0  0  0  0  0  0  0  0  0  0  0
  -53.0704  -30.1375    4.4258 H   0  0  0  0  0  0  0  0  0  0  0  0
  -52.5821  -28.5806    3.7621 H   0  0  0  0  0  0  0  0  0  0  0  0
  -50.2579  -29.3073    6.7841 H   0  0  0  0  0  0  0  0  0  0  0  0
  -49.9020  -30.8518    6.0296 H   0  0  0  0  0  0  0  0  0  0  0  0
  -52.5061  -27.5802    6.0729 H   0  0  0  0  0  0  0  0  0  0  0  0
  -54.1086  -28.1555    5.6099 H   0  0  0  0  0  0  0  0  0  0  0  0
  -52.3146  -31.5409    6.3875 H   0  0  0  0  0  0  0  0  0  0  0  0
  -51.5021  -31.1638    7.9083 H   0  0  0  0  0  0  0  0  0  0  0  0
  -48.2990  -29.9057    1.1229 H   0  0  0  0  0  0  0  0  0  0  0  0
  -49.0730  -31.0972    2.1671 H   0  0  0  0  0  0  0  0  0  0  0  0
  -47.3402  -31.2524    1.7854 H   0  0  0  0  0  0  0  0  0  0  0  0
  -45.4576  -29.5943    1.6837 H   0  0  0  0  0  0  0  0  0  0  0  0
  1 18  1  0  0  0  0
  1 20  3  0  0  0  0
  2  3  1  0  0  0  0
  2  4  2  0  0  0  0
  3  5  2  0  0  0  0
  4  7  1  0  0  0  0
  5  6  1  0  0  0  0
  5  8  1  0  0  0  0
  6  7  2  0  0  0  0
  6 19  1  0  0  0  0
  7 22  1  0  0  0  0
  8 21  1  0  0  0  0
  8 23  2  0  0  0  0
  9 18  1  0  0  0  0
  9 22  1  0  0  0  0
  9 24  2  0  0  0  0
 10 11  1  0  0  0  0
 10 12  1  0  0  0  0
 11 13  1  0  0  0  0
 12 18  1  0  0  0  0
 13 18  1  0  0  0  0
 14 16  1  0  0  0  0
 14 21  1  0  0  0  0
 15 17  1  0  0  0  0
 15 21  1  0  0  0  0
 16 25  1  0  0  0  0
 17 25  1  0  0  0  0
  2 26  1  0  0  0  0
  3 27  1  0  0  0  0
  4 28  1  0  0  0  0
 10 29  1  0  0  0  0
 10 30  1  0  0  0  0
 11 31  1  0  0  0  0
 11 32  1  0  0  0  0
 12 33  1  0  0  0  0
 12 34  1  0  0  0  0
 13 35  1  0  0  0  0
 13 36  1  0  0  0  0
 14 37  1  0  0  0  0
 14 38  1  0  0  0  0
 15 39  1  0  0  0  0
 15 40  1  0  0  0  0
 16 41  1  0  0  0  0
 16 42  1  0  0  0  0
 17 43  1  0  0  0  0
 17 44  1  0  0  0  0
 19 45  1  0  0  0  0
 19 46  1  0  0  0  0
 19 47  1  0  0  0  0
 22 48  1  0  0  0  0
M  END
> <POSIT::Probability>
0.05

> <POSIT::Method>
FRED

> <ReceptorTitle>
UCSF-P4578-REFINED_LIGAND-BOUND-STATE_A__DU__LA1_A-201(A)

> <OMEGA_C>
hhoxwk5A/cHgNUY/GYs8wl574cHPGa5ApuJBwrnG48FQDqVACoM4wjdS5cEqV5NAJDJDwvvn6cG/
QYFAByo/wtm+7cHw/UxAidI5wndz68E0FV9AZ99IwhIv7MGEIHFA/HUxwqrw9cFkTUBAdJAlwmP/
7cHgBOU/5yskwq3J+cHAkNo/YlsrwoWn7cG4S6g/mikpwvlH/8EEMBBA0v1Rwh7H6cE87pRAddlK
wtDm8MFmzcVAbVlUwt/o48GhJrtAxnRPwuzJ9cEU995AdOMtwhch+MEA2Ok/0JJAwghT9MEYKABA
o6QzwjClAMIAOmW992VMwoje7MHXW5tAE6s1wixC78HErilAjh9Kwl5L7cF4byVAU4Mwwojp+cHa
PoNAO61Uwv0i7MG7DutAAYY7wvm13MFU+slAEv5Ewl+94MGHKLpA1Fw0wjh748G6uZpA2kglwmsu
68Gc0DRA2u8iwr8L6cFw8ZU/HX8jwkIl/MFAPio/vpYgwhDK+8EUIRJAF1stwhJt5sEQK9c/smgr
wjtI7cGA+l4+o3IpwsjAA8LQoPA/Y9cowvTB/8H8JVZAHEhUwp0Z8cHgn41AF1RSwhul5MH8xnBA
CwhJwl516sH6FtlApZtHwovQ9sGo8sBARAZSwkKk3MH9VMJAPm9Ywo4+4cFWhLNALUJRwsVT/MFk
ZsxAIQJOwmFP+cHbEP1AIzJBwuM+78GIvI8/tEpEwiHH+MEIsgpAXVw9wucE+sGghuQ/kNQ1wiHB
7MEog9c/

> <OMEGA_E>
kZLkwA==

> <OMEGA_NBR>
    136591

$$$$
CACHE3HI_1707_95
  -OEChem-03092622533D

 40 42  0     1  0  0  0  0  0999 V2000
  -51.5371  -30.9872    6.3588 C   0  0  0  0  0  0  0  0  0  0  0  0
  -50.5816  -29.9551    6.2031 C   0  0  0  0  0  0  0  0  0  0  0  0
  -46.1576  -28.9844    5.8209 C   0  0  0  0  0  0  0  0  0  0  0  0
  -46.8763  -29.5110    3.7526 C   0  0  0  0  0  0  0  0  0  0  0  0
  -51.7295  -31.5219    5.1061 C   0  0  0  0  0  0  0  0  0  0  0  0
  -45.7482  -29.4287    4.5392 C   0  0  0  0  0  0  0  0  0  0  0  0
  -50.2581  -29.9322    4.8665 C   0  0  0  0  0  0  0  0  0  0  0  0
  -47.5231  -28.8084    5.7783 C   0  0  0  0  0  0  0  0  0  0  0  0
  -42.4712  -30.8603    0.6441 C   0  0  0  0  0  0  0  0  0  0  0  0
  -43.4214  -32.0353    0.4073 C   0  0  0  0  0  0  0  0  0  0  0  0
  -43.3396  -29.7119    1.1472 C   0  0  0  0  0  0  0  0  0  0  0  0
  -44.8063  -31.5565    0.8367 C   0  0  0  0  0  0  0  0  0  0  0  0
  -44.5475  -30.3891    1.7819 C   0  0  0  0  0  0  0  0  0  0  0  0
  -49.3165  -29.0849    4.0474 C   0  0  0  0  0  0  0  0  0  0  0  0
  -44.3334  -29.7533    4.1117 C   0  0  2  0  0  0  0  0  0  0  0  0
  -47.9491  -29.1314    4.5166 N   0  0  0  0  0  0  0  0  0  0  0  0
  -44.2603  -30.8376    3.1220 N   0  0  0  0  0  0  0  0  0  0  0  0
  -50.9538  -30.8840    4.1909 O   0  0  0  0  0  0  0  0  0  0  0  0
  -48.3760  -28.4081    6.7124 O   0  0  0  0  0  0  0  0  0  0  0  0
  -43.6054  -30.0886    5.2964 O   0  0  0  0  0  0  0  0  0  0  0  0
  -52.0242  -31.3028    7.2701 H   0  0  0  0  0  0  0  0  0  0  0  0
  -50.1802  -29.3101    6.9718 H   0  0  0  0  0  0  0  0  0  0  0  0
  -45.5281  -28.8107    6.6830 H   0  0  0  0  0  0  0  0  0  0  0  0
  -47.0047  -29.8052    2.7193 H   0  0  0  0  0  0  0  0  0  0  0  0
  -52.3502  -32.3171    4.7197 H   0  0  0  0  0  0  0  0  0  0  0  0
  -41.6849  -31.1103    1.3628 H   0  0  0  0  0  0  0  0  0  0  0  0
  -41.9823  -30.5847   -0.2969 H   0  0  0  0  0  0  0  0  0  0  0  0
  -43.4235  -32.3017   -0.6563 H   0  0  0  0  0  0  0  0  0  0  0  0
  -43.1167  -32.9254    0.9675 H   0  0  0  0  0  0  0  0  0  0  0  0
  -42.7762  -29.1295    1.8930 H   0  0  0  0  0  0  0  0  0  0  0  0
  -43.6196  -29.0213    0.3399 H   0  0  0  0  0  0  0  0  0  0  0  0
  -45.4290  -31.2709   -0.0238 H   0  0  0  0  0  0  0  0  0  0  0  0
  -45.3297  -32.3757    1.3564 H   0  0  0  0  0  0  0  0  0  0  0  0
  -45.3924  -29.7172    1.7912 H   0  0  0  0  0  0  0  0  0  0  0  0
  -49.3573  -29.3980    2.9955 H   0  0  0  0  0  0  0  0  0  0  0  0
  -49.6688  -28.0447    4.0375 H   0  0  0  0  0  0  0  0  0  0  0  0
  -43.8436  -28.8583    3.7089 H   0  0  0  0  0  0  0  0  0  0  0  0
  -44.9413  -31.5542    3.3804 H   0  0  0  0  0  0  0  0  0  0  0  0
  -47.9043  -28.2180    7.5574 H   0  0  0  0  0  0  0  0  0  0  0  0
  -42.6971  -30.2966    5.0190 H   0  0  0  0  0  0  0  0  0  0  0  0
  1  2  1  0  0  0  0
  1  5  2  0  0  0  0
  2  7  2  0  0  0  0
  3  6  1  0  0  0  0
  3  8  2  0  0  0  0
  4  6  2  0  0  0  0
  4 16  1  0  0  0  0
  5 18  1  0  0  0  0
  6 15  1  0  0  0  0
  7 14  1  0  0  0  0
  7 18  1  0  0  0  0
  8 16  1  0  0  0  0
  8 19  1  0  0  0  0
  9 10  1  0  0  0  0
  9 11  1  0  0  0  0
 10 12  1  0  0  0  0
 11 13  1  0  0  0  0
 12 13  1  0  0  0  0
 13 17  1  0  0  0  0
 14 16  1  0  0  0  0
 15 17  1  0  0  0  0
 15 20  1  0  0  0  0
  1 21  1  0  0  0  0
  2 22  1  0  0  0  0
  3 23  1  0  0  0  0
  4 24  1  0  0  0  0
  5 25  1  0  0  0  0
  9 26  1  0  0  0  0
  9 27  1  0  0  0  0
 10 28  1  0  0  0  0
 10 29  1  0  0  0  0
 11 30  1  0  0  0  0
 11 31  1  0  0  0  0
 12 32  1  0  0  0  0
 12 33  1  0  0  0  0
 13 34  1  0  0  0  0
 14 35  1  0  0  0  0
 14 36  1  0  0  0  0
 15 37  1  0  0  0  0
 17 38  1  0  0  0  0
 19 39  1  0  0  0  0
 20 40  1  0  0  0  0
M  END
> <POSIT::Probability>
0.24

> <POSIT::Method>
FRED

> <ReceptorTitle>
UCSF-P4578-REFINED_LIGAND-BOUND-STATE_A__DU__LA1_A-201(A)

> <OMEGA_C>
8yVOwuDl98GOe8tAjVNKwhik78EBgMZAbaE4wiPg58F4RLpAS4E7wngW7MFpK3BAA+tOwu8s/MFY
ZaNAL/42wv5t68F+QZFASwhJwj9178GquptAsxc+wpF35sEv6LhAiuIpwt3h9sGN5CQ/ia8twiUk
AMLKjtA+uVstwhKy7cFg1pI/mjkzwq9z/MG9L1Y/sDAywtAc88HIFeQ/DURFwtet6MFlhIFAXFUx
wroG7sHDkoNA1Ms/wh4N6cEtiJBAjQoxwmez9sGAz0dAr9BLwlcS98G9G4ZACYFBwtJD48HUy9ZA
92suwnK18MFrfKlAxRhQwiRs+sFCpOhAjrhIwhJ76sEbGd9AyRw2wmV85sFc29VA0gQ8whRx7sFF
CS5Am2ZRwrVEAcIhCJdATr0mwujh+MFMca4/2O0nwmmt9MEOCJi+orEtwvI0AcLPAii/fXcswqSz
A8IZsHc/3horwjgJ6cEwTPI/fXouwqkr6MFqBa4+Qbc1wtwq+sHglsK8kVE1wr2AAcImn60/0ZE1
wu287cG8RuU/1m1Fwigv68EPtj9A06xGwpFb4ME2M4FA5F8vwrrd5sEqX21A5MMzwu5u/MGyWFhA
BJ4/wnG+4cFr1vFA3MkqwnZf8sFom6BA

> <OMEGA_E>
Nt38wA==

> <OMEGA_NBR>
    137883

$$$$
CACHE3HI_1708_27
  -OEChem-03092622533D

 46 48  0     1  0  0  0  0  0999 V2000
  -52.8847  -29.4599    8.3443 C   0  0  0  0  0  0  0  0  0  0  0  0
  -51.5823  -29.8517    8.6542 C   0  0  0  0  0  0  0  0  0  0  0  0
  -53.2283  -29.1645    7.0252 C   0  0  0  0  0  0  0  0  0  0  0  0
  -50.6238  -29.9483    7.6453 C   0  0  0  0  0  0  0  0  0  0  0  0
  -52.2698  -29.2611    6.0162 C   0  0  0  0  0  0  0  0  0  0  0  0
  -50.3571  -30.0792    3.9839 C   0  0  0  0  0  0  0  0  0  0  0  0
  -48.6325  -29.5228    5.5653 C   0  0  0  0  0  0  0  0  0  0  0  0
  -49.3680  -30.1630    3.0166 C   0  0  0  0  0  0  0  0  0  0  0  0
  -50.9674  -29.6529    6.3261 C   0  0  0  0  0  0  0  0  0  0  0  0
  -49.9737  -29.7525    5.2798 C   0  0  0  0  0  0  0  0  0  0  0  0
  -47.7206  -29.6315    4.5279 C   0  0  0  0  0  0  0  0  0  0  0  0
  -46.2751  -29.3963    4.7740 C   0  0  0  0  0  0  0  0  0  0  0  0
  -43.6228  -32.3464    1.6235 C   0  0  0  0  0  0  0  0  0  0  0  0
  -43.5579  -28.1753    2.8794 C   0  0  0  0  0  0  0  0  0  0  0  0
  -43.2947  -30.6542    3.3927 C   0  0  0  0  0  0  0  0  0  0  0  0
  -43.4606  -29.9030    1.0058 C   0  0  0  0  0  0  0  0  0  0  0  0
  -44.0091  -29.3545    3.7554 C   0  0  2  0  0  0  0  0  0  0  0  0
  -42.8987  -28.5977    1.5643 C   0  0  2  0  0  0  0  0  0  0  0  0
  -43.7869  -32.6296    0.1499 C   0  0  0  0  0  0  0  0  0  0  0  0
  -48.0552  -29.9467    3.2566 N   0  0  0  0  0  0  0  0  0  0  0  0
  -43.4647  -31.0046    1.9802 N   0  0  0  0  0  0  0  0  0  0  0  0
  -45.4439  -29.5290    3.6720 N   0  0  0  0  0  0  0  0  0  0  0  0
  -45.8963  -29.1238    5.9100 O   0  0  0  0  0  0  0  0  0  0  0  0
  -43.6304  -33.2818    2.4271 O   0  0  0  0  0  0  0  0  0  0  0  0
  -41.4929  -28.7391    1.7754 O   0  0  0  0  0  0  0  0  0  0  0  0
  -53.6309  -29.3841    9.1297 H   0  0  0  0  0  0  0  0  0  0  0  0
  -51.3150  -30.0825    9.6812 H   0  0  0  0  0  0  0  0  0  0  0  0
  -54.2421  -28.8592    6.7838 H   0  0  0  0  0  0  0  0  0  0  0  0
  -49.6127  -30.2545    7.9033 H   0  0  0  0  0  0  0  0  0  0  0  0
  -52.5533  -29.0281    4.9926 H   0  0  0  0  0  0  0  0  0  0  0  0
  -51.3936  -30.2654    3.7223 H   0  0  0  0  0  0  0  0  0  0  0  0
  -48.3068  -29.2659    6.5691 H   0  0  0  0  0  0  0  0  0  0  0  0
  -49.6136  -30.4147    1.9901 H   0  0  0  0  0  0  0  0  0  0  0  0
  -44.4322  -27.5403    2.6460 H   0  0  0  0  0  0  0  0  0  0  0  0
  -42.8570  -27.5463    3.4574 H   0  0  0  0  0  0  0  0  0  0  0  0
  -42.2239  -30.5785    3.6406 H   0  0  0  0  0  0  0  0  0  0  0  0
  -43.6930  -31.4989    3.9805 H   0  0  0  0  0  0  0  0  0  0  0  0
  -44.5116  -29.7585    0.6914 H   0  0  0  0  0  0  0  0  0  0  0  0
  -42.9050  -30.1838    0.0961 H   0  0  0  0  0  0  0  0  0  0  0  0
  -43.8073  -29.1172    4.8135 H   0  0  0  0  0  0  0  0  0  0  0  0
  -43.0281  -27.7926    0.8237 H   0  0  0  0  0  0  0  0  0  0  0  0
  -42.8088  -32.7906   -0.2913 H   0  0  0  0  0  0  0  0  0  0  0  0
  -44.2720  -31.7823   -0.3236 H   0  0  0  0  0  0  0  0  0  0  0  0
  -44.4006  -33.5158    0.0252 H   0  0  0  0  0  0  0  0  0  0  0  0
  -45.8241  -29.8187    2.7764 H   0  0  0  0  0  0  0  0  0  0  0  0
  -41.1707  -27.8727    2.0668 H   0  0  0  0  0  0  0  0  0  0  0  0
  1  2  1  0  0  0  0
  1  3  2  0  0  0  0
  2  4  2  0  0  0  0
  3  5  1  0  0  0  0
  4  9  1  0  0  0  0
  5  9  2  0  0  0  0
  6  8  2  0  0  0  0
  6 10  1  0  0  0  0
  7 10  2  0  0  0  0
  7 11  1  0  0  0  0
  8 20  1  0  0  0  0
  9 10  1  0  0  0  0
 11 12  1  0  0  0  0
 11 20  2  0  0  0  0
 12 22  1  0  0  0  0
 12 23  2  0  0  0  0
 13 19  1  0  0  0  0
 13 21  1  0  0  0  0
 13 24  2  0  0  0  0
 14 17  1  0  0  0  0
 14 18  1  0  0  0  0
 15 17  1  0  0  0  0
 15 21  1  0  0  0  0
 16 18  1  0  0  0  0
 16 21  1  0  0  0  0
 17 22  1  0  0  0  0
 18 25  1  0  0  0  0
  1 26  1  0  0  0  0
  2 27  1  0  0  0  0
  3 28  1  0  0  0  0
  4 29  1  0  0  0  0
  5 30  1  0  0  0  0
  6 31  1  0  0  0  0
  7 32  1  0  0  0  0
  8 33  1  0  0  0  0
 14 34  1  0  0  0  0
 14 35  1  0  0  0  0
 15 36  1  0  0  0  0
 15 37  1  0  0  0  0
 16 38  1  0  0  0  0
 16 39  1  0  0  0  0
 17 40  1  0  0  0  0
 18 41  1  0  0  0  0
 19 42  1  0  0  0  0
 19 43  1  0  0  0  0
 19 44  1  0  0  0  0
 22 45  1  0  0  0  0
 25 46  1  0  0  0  0
M  END
> <POSIT::Probability>
0.24

> <POSIT::Method>
FRED

> <ReceptorTitle>
UCSF-P4578-REFINED_LIGAND-BOUND-STATE_A__DU__LA1_A-201(A)

> <OMEGA_C>
64lTwtOt68E0ggVBTFROwkLQ7sGOdwpBvOlUws5Q6cEIzuBAzH5KwjiW78HwpfRAPBRRwsMW6sHe
hMBAuG1Jwkyi8MG2935ArYdCwsYu7MEkF7JA0XhFwtpN8cFaEEFAp95Lwik57cEwb8pAFOVHwjQF
7sE49KhA2eE+wkMN7cFL5JBArRk5wqIr68FIxJhAxX0uwrFiAcJKzc8/TDsuwvhm4cG+SDhA0S0t
wts79cFuIllAr9ctwkU578EEv4A/UgkwwvfV6sECWHBAOpgrwijI5MF8PMg/ySUvwreEAsIwfRk+
gDhAwt+S78F9bFBA5dstwloJ+MFCd/0/jMY1wmk77MHdAmtA2JU3wnn96MHSHr1AfIUuwpQgBcJa
VRtAs/glwqXp5cH0QOM/AYZWwo0S68EpExJBhEJNwuqo8MFU5hpB7fdYwo7f5sH6FNlAa3NGwiQJ
8sEu6PxAjDZSwp456MGQw59AApNNwpkf8sFVOm5AMjpBwqcg6sFMNtJAUXRGwllR88Egu/4/jLox
wp1S3MGVVylAhm0rwtVe3MF0RV1APuUowryg9MHK/2hAmMUuwtj9+8EEwX5A2QsywmoR7sEI/zA/
vZ4rwoJ48cFg2cQ9qTovwgvw6MEmCJpAyBwswkRX3sH84FI/NDwrwp8pA8LwKJW+khYxwjdC/sHA
rKW+Q5oxwiQQBsKAWM485Us3wpqM7sHorzFAxK4kwlH73sH+RQRA

> <OMEGA_E>
FXUHwQ==

> <OMEGA_NBR>
    139298

$$$$
CACHE3HI_1708_40
  -OEChem-03092622533D

 36 38  0     1  0  0  0  0  0999 V2000
  -50.0271  -29.3943    3.2369 C   0  0  0  0  0  0  0  0  0  0  0  0
  -47.0826  -29.2480    6.2297 C   0  0  0  0  0  0  0  0  0  0  0  0
  -44.8151  -29.3341    6.5163 C   0  0  0  0  0  0  0  0  0  0  0  0
  -49.2153  -28.9714    4.2635 C   0  0  0  0  0  0  0  0  0  0  0  0
  -46.9257  -29.5536    4.8955 C   0  0  0  0  0  0  0  0  0  0  0  0
  -44.6583  -29.6398    5.1819 C   0  0  0  0  0  0  0  0  0  0  0  0
  -48.1968  -30.4522    2.9872 C   0  0  0  0  0  0  0  0  0  0  0  0
  -42.9457  -28.1269    1.4662 C   0  0  0  0  0  0  0  0  0  0  0  0
  -43.8144  -28.5571    2.6389 C   0  0  0  0  0  0  0  0  0  0  0  0
  -41.7926  -29.1303    1.4345 C   0  0  0  0  0  0  0  0  0  0  0  0
  -42.7878  -29.0410    3.6512 C   0  0  2  0  0  0  0  0  0  0  0  0
  -41.8005  -29.8328    2.7956 C   0  0  2  0  0  0  0  0  0  0  0  0
  -47.1242  -31.3426    2.4936 C   0  0  0  0  0  0  0  0  0  0  0  0
  -46.0305  -29.1328    7.0642 N   0  0  0  0  0  0  0  0  0  0  0  0
  -49.3877  -30.3156    2.4465 N   0  0  0  0  0  0  0  0  0  0  0  0
  -45.7103  -29.7548    4.3476 N   0  0  0  0  0  0  0  0  0  0  0  0
  -48.0463  -29.6578    4.0900 N   0  0  0  0  0  0  0  0  0  0  0  0
  -43.3735  -29.8317    4.6980 N   0  0  0  0  0  0  0  0  0  0  0  0
  -40.5022  -29.8202    3.3651 O   0  0  0  0  0  0  0  0  0  0  0  0
  -51.0396  -29.0818    3.0270 H   0  0  0  0  0  0  0  0  0  0  0  0
  -48.0543  -29.0839    6.6821 H   0  0  0  0  0  0  0  0  0  0  0  0
  -43.9760  -29.2391    7.1960 H   0  0  0  0  0  0  0  0  0  0  0  0
  -49.3686  -28.2659    5.0691 H   0  0  0  0  0  0  0  0  0  0  0  0
  -43.5015  -28.1037    0.5241 H   0  0  0  0  0  0  0  0  0  0  0  0
  -42.5504  -27.1198    1.6456 H   0  0  0  0  0  0  0  0  0  0  0  0
  -44.4273  -27.7351    3.0208 H   0  0  0  0  0  0  0  0  0  0  0  0
  -44.4818  -29.3704    2.3269 H   0  0  0  0  0  0  0  0  0  0  0  0
  -41.9636  -29.8669    0.6407 H   0  0  0  0  0  0  0  0  0  0  0  0
  -40.8416  -28.6329    1.2161 H   0  0  0  0  0  0  0  0  0  0  0  0
  -42.2733  -28.1719    4.1154 H   0  0  0  0  0  0  0  0  0  0  0  0
  -42.1131  -30.8763    2.6648 H   0  0  0  0  0  0  0  0  0  0  0  0
  -46.4706  -30.8349    1.7651 H   0  0  0  0  0  0  0  0  0  0  0  0
  -47.5304  -32.2281    1.9771 H   0  0  0  0  0  0  0  0  0  0  0  0
  -46.4924  -31.6967    3.3234 H   0  0  0  0  0  0  0  0  0  0  0  0
  -42.8158  -30.5741    5.1074 H   0  0  0  0  0  0  0  0  0  0  0  0
  -39.9167  -30.2893    2.7473 H   0  0  0  0  0  0  0  0  0  0  0  0
  1  4  2  0  0  0  0
  1 15  1  0  0  0  0
  2  5  1  0  0  0  0
  2 14  2  0  0  0  0
  3  6  2  0  0  0  0
  3 14  1  0  0  0  0
  4 17  1  0  0  0  0
  5 16  2  0  0  0  0
  5 17  1  0  0  0  0
  6 16  1  0  0  0  0
  6 18  1  0  0  0  0
  7 13  1  0  0  0  0
  7 15  2  0  0  0  0
  7 17  1  0  0  0  0
  8  9  1  0  0  0  0
  8 10  1  0  0  0  0
  9 11  1  0  0  0  0
 10 12  1  0  0  0  0
 11 12  1  0  0  0  0
 11 18  1  0  0  0  0
 12 19  1  0  0  0  0
  1 20  1  0  0  0  0
  2 21  1  0  0  0  0
  3 22  1  0  0  0  0
  4 23  1  0  0  0  0
  8 24  1  0  0  0  0
  8 25  1  0  0  0  0
  9 26  1  0  0  0  0
  9 27  1  0  0  0  0
 10 28  1  0  0  0  0
 10 29  1  0  0  0  0
 11 30  1  0  0  0  0
 12 31  1  0  0  0  0
 13 32  1  0  0  0  0
 13 33  1  0  0  0  0
 13 34  1  0  0  0  0
 18 35  1  0  0  0  0
 19 36  1  0  0  0  0
M  END
> <POSIT::Probability>
0.24

> <POSIT::Method>
FRED

> <ReceptorTitle>
UCSF-P4578-REFINED_LIGAND-BOUND-STATE_A__DU__LA1_A-201(A)

> <OMEGA_C>
xhtIwogn68FaKU9AoFQ8wub76cHjWcdAp0IzwkGs6sF7hdBAbNxEwofF58HYbohA5bM7wrZt7MGp
p5xAF6Iywkse7cEU0qVAiclAwiue88E+Lj9Ab8grws4D4cEXrLs//EEvwgd15MH74yhApisnwugK
6cHSnLc/tyYrwvxT6MG7rGlAtTMnwo+p7sHf6zJAI388wo69+sFRlx9ASB84wvgP6cGIDeJA+4xF
wnKG8sFYkxxATdc2wsYJ7sE+H4tAby9AwjVD7cGS4YJAdn4twkin7sHsVZZASAIiwreP7sGHXldA
hChMwpGn6MGPuUFAmDdAwrqr6MHV09VAbecvwp7p6cHIReZAaHlFwoAg4sGpNaJAiQEuwmvU4MEs
KwY/mjMqwk/12MGPo9I/irUxwmbh3cFUVEFAZ+0xwoD26sHK6xRAutonwoPv7sE2AiQ/xV0jwioQ
5cFuqJs/3RcpwgVg4cFJsYNAznMowpcC98FqiypA4eE5wuGt9sE+7+E/Fh8+wpTpAMLFEv0/PPg5
wt6S/cFUs1RAaUMrwtSX9MGnb6NAuKofwnlQ8sGL1C9A

> <OMEGA_E>
cgoXwQ==

> <OMEGA_NBR>
    140513

$$$$
CACHE3HI_1708_74
  -OEChem-03092622533D

 58 61  0     1  0  0  0  0  0999 V2000
  -54.7599  -25.7747   10.8646 C   0  0  0  0  0  0  0  0  0  0  0  0
  -54.9046  -24.9023   11.9535 C   0  0  0  0  0  0  0  0  0  0  0  0
  -55.6737  -26.7759   11.0966 C   0  0  0  0  0  0  0  0  0  0  0  0
  -57.6867  -28.3973   12.1996 C   0  0  0  0  0  0  0  0  0  0  0  0
  -57.0344  -28.7491   10.9498 C   0  0  0  0  0  0  0  0  0  0  0  0
  -57.3192  -27.2771   12.8389 C   0  0  0  0  0  0  0  0  0  0  0  0
  -56.0700  -27.9682   10.4254 C   0  0  0  0  0  0  0  0  0  0  0  0
  -45.5753  -29.7282    5.8154 C   0  0  0  0  0  0  0  0  0  0  0  0
  -55.4549  -28.3934    9.1547 C   0  0  0  0  0  0  0  0  0  0  0  0
  -49.0921  -29.5144    4.8156 C   0  0  0  0  0  0  0  0  0  0  0  0
  -47.0142  -29.5828    6.2080 C   0  0  0  0  0  0  0  0  0  0  0  0
  -51.7677  -28.6946    8.3072 C   0  0  0  0  0  0  0  0  0  0  0  0
  -47.6604  -29.0920    4.9274 C   0  0  1  0  0  0  0  0  0  0  0  0
  -51.4436  -30.0819    7.6951 C   0  0  1  0  0  0  0  0  0  0  0  0
  -53.2690  -29.0212    8.1570 C   0  0  1  0  0  0  0  0  0  0  0  0
  -52.8883  -30.5394    8.1265 C   0  0  0  0  0  0  0  0  0  0  0  0
  -46.7560  -29.6675    3.8370 C   0  0  0  0  0  0  0  0  0  0  0  0
  -53.6948  -31.3374    7.1018 C   0  0  0  0  0  0  0  0  0  0  0  0
  -52.8763  -31.2719    9.4755 C   0  0  0  0  0  0  0  0  0  0  0  0
  -47.0888  -31.1015    3.4063 C   0  0  0  0  0  0  0  0  0  0  0  0
  -46.6868  -28.7545    2.6145 C   0  0  0  0  0  0  0  0  0  0  0  0
  -51.0755  -30.0490    6.2176 C   0  0  0  0  0  0  0  0  0  0  0  0
  -55.8341  -25.3006   12.8218 N   0  0  0  0  0  0  0  0  0  0  0  0
  -56.3179  -26.4608   12.3005 N   0  0  0  0  0  0  0  0  0  0  0  0
  -54.1007  -28.5978    9.2745 N   0  0  0  0  0  0  0  0  0  0  0  0
  -49.6910  -29.6315    6.0518 N   0  0  0  0  0  0  0  0  0  0  0  0
  -44.6427  -29.8689    6.5907 O   0  0  0  0  0  0  0  0  0  0  0  0
  -56.1373  -28.5278    8.1454 O   0  0  0  0  0  0  0  0  0  0  0  0
  -49.6202  -29.7363    3.7287 O   0  0  0  0  0  0  0  0  0  0  0  0
  -45.4537  -29.6976    4.4551 O   0  0  0  0  0  0  0  0  0  0  0  0
  -54.0832  -25.6871   10.0270 H   0  0  0  0  0  0  0  0  0  0  0  0
  -54.3678  -23.9859   12.1525 H   0  0  0  0  0  0  0  0  0  0  0  0
  -58.4585  -29.0499   12.5893 H   0  0  0  0  0  0  0  0  0  0  0  0
  -57.3629  -29.6648   10.4682 H   0  0  0  0  0  0  0  0  0  0  0  0
  -57.7665  -26.9631   13.7741 H   0  0  0  0  0  0  0  0  0  0  0  0
  -47.4119  -30.5402    6.5535 H   0  0  0  0  0  0  0  0  0  0  0  0
  -47.0838  -28.8330    7.0007 H   0  0  0  0  0  0  0  0  0  0  0  0
  -51.4238  -28.5859    9.3431 H   0  0  0  0  0  0  0  0  0  0  0  0
  -51.4209  -27.8250    7.7407 H   0  0  0  0  0  0  0  0  0  0  0  0
  -47.6728  -27.9805    4.8847 H   0  0  0  0  0  0  0  0  0  0  0  0
  -50.6431  -30.6026    8.2384 H   0  0  0  0  0  0  0  0  0  0  0  0
  -53.6813  -28.6490    7.2104 H   0  0  0  0  0  0  0  0  0  0  0  0
  -54.6677  -31.5920    7.5172 H   0  0  0  0  0  0  0  0  0  0  0  0
  -53.1636  -32.2524    6.8477 H   0  0  0  0  0  0  0  0  0  0  0  0
  -53.8352  -30.7432    6.2002 H   0  0  0  0  0  0  0  0  0  0  0  0
  -53.8883  -31.5687    9.7342 H   0  0  0  0  0  0  0  0  0  0  0  0
  -52.4847  -30.6102   10.2423 H   0  0  0  0  0  0  0  0  0  0  0  0
  -52.2467  -32.1546    9.4021 H   0  0  0  0  0  0  0  0  0  0  0  0
  -46.3960  -31.4233    2.6312 H   0  0  0  0  0  0  0  0  0  0  0  0
  -48.1045  -31.1428    3.0177 H   0  0  0  0  0  0  0  0  0  0  0  0
  -47.0056  -31.7717    4.2607 H   0  0  0  0  0  0  0  0  0  0  0  0
  -46.0364  -29.1999    1.8678 H   0  0  0  0  0  0  0  0  0  0  0  0
  -46.2925  -27.7866    2.9089 H   0  0  0  0  0  0  0  0  0  0  0  0
  -47.6834  -28.6296    2.2000 H   0  0  0  0  0  0  0  0  0  0  0  0
  -51.2109  -31.0443    5.7856 H   0  0  0  0  0  0  0  0  0  0  0  0
  -51.7375  -29.3575    5.6890 H   0  0  0  0  0  0  0  0  0  0  0  0
  -53.6317  -28.4466   10.1575 H   0  0  0  0  0  0  0  0  0  0  0  0
  -49.1595  -29.4533    6.8929 H   0  0  0  0  0  0  0  0  0  0  0  0
  1  2  1  0  0  0  0
  1  3  2  0  0  0  0
  2 23  2  0  0  0  0
  3  7  1  0  0  0  0
  3 24  1  0  0  0  0
  4  5  1  0  0  0  0
  4  6  2  0  0  0  0
  5  7  2  0  0  0  0
  6 24  1  0  0  0  0
  7  9  1  0  0  0  0
  8 11  1  0  0  0  0
  8 27  2  0  0  0  0
  8 30  1  0  0  0  0
  9 25  1  0  0  0  0
  9 28  2  0  0  0  0
 10 13  1  0  0  0  0
 10 26  1  0  0  0  0
 10 29  2  0  0  0  0
 11 13  1  0  0  0  0
 12 14  1  0  0  0  0
 12 15  1  0  0  0  0
 13 17  1  0  0  0  0
 14 16  1  0  0  0  0
 14 22  1  0  0  0  0
 15 16  1  0  0  0  0
 15 25  1  0  0  0  0
 16 18  1  0  0  0  0
 16 19  1  0  0  0  0
 17 20  1  0  0  0  0
 17 21  1  0  0  0  0
 17 30  1  0  0  0  0
 22 26  1  0  0  0  0
 23 24  1  0  0  0  0
  1 31  1  0  0  0  0
  2 32  1  0  0  0  0
  4 33  1  0  0  0  0
  5 34  1  0  0  0  0
  6 35  1  0  0  0  0
 11 36  1  0  0  0  0
 11 37  1  0  0  0  0
 12 38  1  0  0  0  0
 12 39  1  0  0  0  0
 13 40  1  0  0  0  0
 14 41  1  0  0  0  0
 15 42  1  0  0  0  0
 18 43  1  0  0  0  0
 18 44  1  0  0  0  0
 18 45  1  0  0  0  0
 19 46  1  0  0  0  0
 19 47  1  0  0  0  0
 19 48  1  0  0  0  0
 20 49  1  0  0  0  0
 20 50  1  0  0  0  0
 20 51  1  0  0  0  0
 21 52  1  0  0  0  0
 21 53  1  0  0  0  0
 21 54  1  0  0  0  0
 22 55  1  0  0  0  0
 22 56  1  0  0  0  0
 25 57  1  0  0  0  0
 26 58  1  0  0  0  0
M  END
> <POSIT::Probability>
0.42

> <POSIT::Method>
HYBRID

> <ReceptorTitle>
UCSF-P4578-REFINED_LIGAND-BOUND-STATE_A__DU__LA1_A-201(A)

> <OMEGA_C>
KApbwqoyzsF01S1BVJ5bwtY3x8FwQT9B2bFewgM11sHMizFBJb9mwqMt48GiMUNBRiNkwhv+5cFa
Mi9B1UZlwnE32sHua01BuUdgwty+38FIziZBFk02wknT7cETGLpA1dFdwsYl48GieRJBSl5EwnMd
7MHBGZpAgw48wqWp7MFQqMZAGBJPwnyO5cEs6gRBNqQ+wna86MEFrZ1APMZNwqWn8MHkPfZAbBNV
wmsr6MEigwJBko1TwqJQ9MEQBgJBKAY7wgZX7cERkXVAecdWwv2y+sFYQuNAVYFTwvMs+sHOmxdB
8Vo8wubP+MHlAFpARb86wiQJ5sFUUydAVk1Mwkdk8MFi9sZAKVZfwpdnysE8Jk1BgUVhwsSv08HL
zkRBEmdYwk/I5MF8ZBRBl8NGwmAN7cFVqMFAHZIywn7z7sFV59JAj4xgwu045MF2UwJBHXtGwtzj
7cFjo25AkNA1wqKU7cH/j45ANVVYwjF/zcGIbiBBn3hZwiDjv8GbcEJBhtVpwiNm6MHzbUlBnHNl
wnpR7cHrfSdB3BBnwlS018GyYlxBzqU9wltS9MHjtdFA21U8wvup5sEIBuBA/rFNwuyv5MF4fRVB
965NwoSZ3sEYtPdA7LA+wgHY38HKT5xAlJJKwh3S9MFb0ANBp7lWwjUx5cHyu+ZAxqtawmW8/MFP
jfBAiKdUwn4CAcJDINtANFdXwify9cG9Z8ZAmo1XwsmM/MFsvxtBXfBRwqbh9MFr4CNBp/xQwlWe
AMLQbhZBh5U5wthi+8GeZShAAGtAwoQk+cGLIkFAwwU8wlks/sHCV4hAQSU4wnSZ6cGcFe8/gCs5
wvNK3sG7KzpA0bs+wmYJ5cFTzAxA+ddMwqta+MFAI7lAKPNOwhXc6sE0DLZA5YZWwpKS48EMhSJB
VqNEwnSg68FpktxA

> <OMEGA_E>
jjLJwA==

> <OMEGA_NBR>
    142185

$$$$
CACHE3HI_1708_78
  -OEChem-03092622533D

 34 36  0     0  0  0  0  0  0999 V2000
  -48.1752  -29.0176    3.2782 C   0  0  0  0  0  0  0  0  0  0  0  0
  -46.8450  -29.0700    3.6948 C   0  0  0  0  0  0  0  0  0  0  0  0
  -49.2029  -29.1921    4.2049 C   0  0  0  0  0  0  0  0  0  0  0  0
  -47.5704  -29.4710    5.9643 C   0  0  0  0  0  0  0  0  0  0  0  0
  -46.5426  -29.2965    5.0377 C   0  0  0  0  0  0  0  0  0  0  0  0
  -48.9006  -29.4187    5.5477 C   0  0  0  0  0  0  0  0  0  0  0  0
  -53.4640  -29.0283    6.7750 C   0  0  0  0  0  0  0  0  0  0  0  0
  -54.4419  -27.8410   10.1571 C   0  0  0  0  0  0  0  0  0  0  0  0
  -53.6855  -27.8314   11.2605 C   0  0  0  0  0  0  0  0  0  0  0  0
  -52.2132  -29.3793    7.1282 C   0  0  0  0  0  0  0  0  0  0  0  0
  -54.3867  -28.4512    7.7900 C   0  0  0  0  0  0  0  0  0  0  0  0
  -52.4985  -28.7433    9.2725 C   0  0  0  0  0  0  0  0  0  0  0  0
  -45.1556  -29.3512    5.4715 C   0  0  0  0  0  0  0  0  0  0  0  0
  -44.0707  -29.8401    4.5176 C   0  0  0  0  0  0  0  0  0  0  0  0
  -51.2670  -29.9634    6.1196 C   0  0  0  0  0  0  0  0  0  0  0  0
  -51.6914  -29.2446    8.3995 N   0  0  0  0  0  0  0  0  0  0  0  0
  -53.8064  -28.3420    9.0422 N   0  0  0  0  0  0  0  0  0  0  0  0
  -49.9252  -29.5916    6.4704 N   0  0  0  0  0  0  0  0  0  0  0  0
  -55.5288  -28.1281    7.4796 O   0  0  0  0  0  0  0  0  0  0  0  0
  -44.8182  -29.0031    6.6206 O   0  0  0  0  0  0  0  0  0  0  0  0
  -52.0923  -28.4645   10.9597 S   0  0  0  0  0  0  0  0  0  0  0  0
  -48.4112  -28.8407    2.2330 H   0  0  0  0  0  0  0  0  0  0  0  0
  -46.0523  -28.9327    2.9637 H   0  0  0  0  0  0  0  0  0  0  0  0
  -50.2361  -29.1491    3.8701 H   0  0  0  0  0  0  0  0  0  0  0  0
  -47.3353  -29.6478    7.0118 H   0  0  0  0  0  0  0  0  0  0  0  0
  -53.8404  -29.1483    5.7656 H   0  0  0  0  0  0  0  0  0  0  0  0
  -55.4647  -27.4989   10.0911 H   0  0  0  0  0  0  0  0  0  0  0  0
  -54.0020  -27.4785   12.2315 H   0  0  0  0  0  0  0  0  0  0  0  0
  -43.6658  -28.9953    3.9542 H   0  0  0  0  0  0  0  0  0  0  0  0
  -44.4885  -30.5538    3.8010 H   0  0  0  0  0  0  0  0  0  0  0  0
  -43.2853  -30.3484    5.0823 H   0  0  0  0  0  0  0  0  0  0  0  0
  -51.3759  -31.0468    6.1178 H   0  0  0  0  0  0  0  0  0  0  0  0
  -51.5136  -29.5816    5.1304 H   0  0  0  0  0  0  0  0  0  0  0  0
  -49.7033  -29.4435    7.4525 H   0  0  0  0  0  0  0  0  0  0  0  0
  1  2  2  0  0  0  0
  1  3  1  0  0  0  0
  2  5  1  0  0  0  0
  3  6  2  0  0  0  0
  4  5  2  0  0  0  0
  4  6  1  0  0  0  0
  5 13  1  0  0  0  0
  6 18  1  0  0  0  0
  7 10  2  0  0  0  0
  7 11  1  0  0  0  0
  8  9  2  0  0  0  0
  8 17  1  0  0  0  0
  9 21  1  0  0  0  0
 10 15  1  0  0  0  0
 10 16  1  0  0  0  0
 11 17  1  0  0  0  0
 11 19  2  0  0  0  0
 12 16  2  0  0  0  0
 12 17  1  0  0  0  0
 12 21  1  0  0  0  0
 13 14  1  0  0  0  0
 13 20  2  0  0  0  0
 15 18  1  0  0  0  0
  1 22  1  0  0  0  0
  2 23  1  0  0  0  0
  3 24  1  0  0  0  0
  4 25  1  0  0  0  0
  7 26  1  0  0  0  0
  8 27  1  0  0  0  0
  9 28  1  0  0  0  0
 14 29  1  0  0  0  0
 14 30  1  0  0  0  0
 14 31  1  0  0  0  0
 15 32  1  0  0  0  0
 15 33  1  0  0  0  0
 18 34  1  0  0  0  0
M  END
> <POSIT::Probability>
0.14

> <POSIT::Method>
HYBRID

> <ReceptorTitle>
UCSF-P4578-REFINED_LIGAND-BOUND-STATE_A__DU__LA1_A-201(A)

> <OMEGA_C>
W7NAwhwk6MGszlFAPWE7wlaP6ME0eGxA0c9Ewn6J6cEzjoZAHUg+wqTE68HB275AmCs6wj9f6sHA
NKFALJpDwmZZ68HbhrFAHdtVwt456MEzzdhAgMRZwm663sF2gyJB8b1WwsKm3sEcKzRBW9pQwrUI
68FsGuRA9otZwvib48EOSPlAev5Rwkry5cEBXBRBTp80wlbP6sGRFq9AWkgwwom47sGRkJBAbhFN
wha178HF08NA9cNOwvD06cE9ZAZBzjlXwla84sHYrBBBY7NHwqe77MGNDc9AiB1ewmAG4cHZWO9A
1kUzwl0G6MGq29NAhV5Qwji348HmWi9BB6VBws655sHO6Q5AhDU4wiJ258H0rT1AxPFIwkwx6cHk
r3dATFc9wrou7cHCYOBAk1xXwqov6cHNf7hA2dtdwrj928FUdSFBEQJYwvrT28EMtENByqkuwlH2
58EqEn1AMvQxwiNu9MEkRHNAMCQtwnzJ8sHyoaJA4IBNwsBf+ME3xcNA6w1OwiKn7MFeLKRAI9BG
wkeM68H6eu5A

> <OMEGA_E>
m/q7wA==

> <OMEGA_NBR>
    143358

$$$$
CACHE3HI_1708_81
  -OEChem-03092622533D

 38 40  0     1  0  0  0  0  0999 V2000
  -45.1702  -29.2011    2.0974 C   0  0  0  0  0  0  0  0  0  0  0  0
  -44.3693  -29.1965    3.2340 C   0  0  0  0  0  0  0  0  0  0  0  0
  -46.5616  -29.2657    2.2006 C   0  0  0  0  0  0  0  0  0  0  0  0
  -44.9435  -29.2566    4.5069 C   0  0  0  0  0  0  0  0  0  0  0  0
  -46.3475  -29.3226    4.6402 C   0  0  0  0  0  0  0  0  0  0  0  0
  -47.1315  -29.3260    3.4826 C   0  0  0  0  0  0  0  0  0  0  0  0
  -48.3410  -29.4366    5.5777 C   0  0  0  0  0  0  0  0  0  0  0  0
  -53.3819  -31.4050    8.7028 C   0  0  0  0  0  0  0  0  0  0  0  0
  -52.9662  -29.8395    5.4411 C   0  0  0  0  0  0  0  0  0  0  0  0
  -51.5537  -29.2567    5.5598 C   0  0  0  0  0  0  0  0  0  0  0  0
  -53.1749  -31.1152    6.2519 C   0  0  0  0  0  0  0  0  0  0  0  0
  -51.2286  -30.5248    7.7046 C   0  0  0  0  0  0  0  0  0  0  0  0
  -50.6115  -30.1653    6.3500 C   0  0  2  0  0  0  0  0  0  0  0  0
  -44.0348  -29.2476    5.6956 C   0  0  0  0  0  0  0  0  0  0  0  0
  -47.0549  -29.3865    5.8324 N   0  0  0  0  0  0  0  0  0  0  0  0
  -52.6143  -31.0057    7.5982 N   0  0  0  0  0  0  0  0  0  0  0  0
  -54.7483  -31.2644    8.5579 N   0  0  0  0  0  0  0  0  0  0  0  0
  -49.3233  -29.5047    6.5487 N   0  0  0  0  0  0  0  0  0  0  0  0
  -52.9050  -31.8557    9.7480 O   0  0  0  0  0  0  0  0  0  0  0  0
  -48.7958  -29.4120    3.9288 S   0  0  0  0  0  0  0  0  0  0  0  0
  -44.7082  -29.1538    1.1147 H   0  0  0  0  0  0  0  0  0  0  0  0
  -43.2891  -29.1426    3.1221 H   0  0  0  0  0  0  0  0  0  0  0  0
  -47.1800  -29.2690    1.3084 H   0  0  0  0  0  0  0  0  0  0  0  0
  -53.7013  -29.0767    5.7587 H   0  0  0  0  0  0  0  0  0  0  0  0
  -53.1889  -30.0418    4.3755 H   0  0  0  0  0  0  0  0  0  0  0  0
  -51.1530  -29.0790    4.5469 H   0  0  0  0  0  0  0  0  0  0  0  0
  -51.6200  -28.2652    6.0432 H   0  0  0  0  0  0  0  0  0  0  0  0
  -54.2484  -31.3212    6.3646 H   0  0  0  0  0  0  0  0  0  0  0  0
  -52.7432  -31.9667    5.7117 H   0  0  0  0  0  0  0  0  0  0  0  0
  -50.5790  -31.2580    8.2053 H   0  0  0  0  0  0  0  0  0  0  0  0
  -51.2575  -29.6397    8.3678 H   0  0  0  0  0  0  0  0  0  0  0  0
  -50.4366  -31.0867    5.7821 H   0  0  0  0  0  0  0  0  0  0  0  0
  -43.8415  -28.2238    6.0362 H   0  0  0  0  0  0  0  0  0  0  0  0
  -43.0638  -29.6944    5.4520 H   0  0  0  0  0  0  0  0  0  0  0  0
  -44.4851  -29.8126    6.5188 H   0  0  0  0  0  0  0  0  0  0  0  0
  -55.0905  -30.8893    7.6789 H   0  0  0  0  0  0  0  0  0  0  0  0
  -55.4336  -31.5066    9.2607 H   0  0  0  0  0  0  0  0  0  0  0  0
  -49.1453  -29.0746    7.4472 H   0  0  0  0  0  0  0  0  0  0  0  0
  1  2  2  0  0  0  0
  1  3  1  0  0  0  0
  2  4  1  0  0  0  0
  3  6  2  0  0  0  0
  4  5  2  0  0  0  0
  4 14  1  0  0  0  0
  5  6  1  0  0  0  0
  5 15  1  0  0  0  0
  6 20  1  0  0  0  0
  7 15  2  0  0  0  0
  7 18  1  0  0  0  0
  7 20  1  0  0  0  0
  8 16  1  0  0  0  0
  8 17  1  0  0  0  0
  8 19  2  0  0  0  0
  9 10  1  0  0  0  0
  9 11  1  0  0  0  0
 10 13  1  0  0  0  0
 11 16  1  0  0  0  0
 12 13  1  0  0  0  0
 12 16  1  0  0  0  0
 13 18  1  0  0  0  0
  1 21  1  0  0  0  0
  2 22  1  0  0  0  0
  3 23  1  0  0  0  0
  9 24  1  0  0  0  0
  9 25  1  0  0  0  0
 10 26  1  0  0  0  0
 10 27  1  0  0  0  0
 11 28  1  0  0  0  0
 11 29  1  0  0  0  0
 12 30  1  0  0  0  0
 12 31  1  0  0  0  0
 13 32  1  0  0  0  0
 14 33  1  0  0  0  0
 14 34  1  0  0  0  0
 14 35  1  0  0  0  0
 17 36  1  0  0  0  0
 17 37  1  0  0  0  0
 18 38  1  0  0  0  0
M  END
> <POSIT::Probability>
0.14

> <POSIT::Method>
HYBRID

> <ReceptorTitle>
UCSF-P4578-REFINED_LIGAND-BOUND-STATE_A__DU__LA1_A-201(A)

> <OMEGA_C>
Rq40wuib6cGqOwZAKXoxwmKS6cEa+U5ACD86wjkg6sFq1wxAI8YzwpYN6sHaOJBA1GM5wreU6sGW
fJRAsIY8wpCb6sHM4l5AKl1Bwjp+68FIfLJAE4dVwls9+8GMPgtBXN1TwmG37sEqHa5AADdOwqcN
6sFC6rFAIbNUwuLr+MHFD8hAG+pMwroy9MGvi/ZANHJKwn1S8cHgMstAmiMwwgH76cFqQrZAPTg8
wokX68Eeo7pADXVSwqcL+MHRJPNATv5awnId+sER7QhBCktFwokJ7MGUjtFAtJ5Twn/Y/sGm9xtB
3y5DwrVL68FccXtAP9Uywu466cG0r44//ictwhwk6cE00UdAS7g8wukm6sHYeac/Hs5Wwgmd6MGs
R7hAZsFUwopV8MEKBIxApJxMwtah6MHlf5FA1npOwikf4sHYYcFAZv5YwumR+sEFq8tAEvlSwsu7
/8HqxbZA5FBKwlMQ+sG+SANBsQdNwhAe7cGP4gVBCL9Jwpqx+MEsB7lAtl0vwj7K4cFuKMFASUEs
wimO7cFsdq5AuvAxwkOA7sHRmdBAt1xcwl8d98GDufVADLxdwoIN/MG8KxRBxZREwteY6MG2T+5A

> <OMEGA_E>
UPm0wA==

> <OMEGA_NBR>
    144614

$$$$
CACHE3HI_1708_99
  -OEChem-03092622533D

 48 50  0     1  0  0  0  0  0999 V2000
  -44.8159  -28.3730    1.6084 C   0  0  0  0  0  0  0  0  0  0  0  0
  -44.3035  -30.4469    2.7377 C   0  0  0  0  0  0  0  0  0  0  0  0
  -42.5198  -29.0896    1.8367 C   0  0  0  0  0  0  0  0  0  0  0  0
  -53.2760  -29.6650    6.9249 C   0  0  0  0  0  0  0  0  0  0  0  0
  -51.1915  -29.4632    7.8446 C   0  0  0  0  0  0  0  0  0  0  0  0
  -45.2395  -29.5168    2.2853 C   0  0  0  0  0  0  0  0  0  0  0  0
  -43.4559  -28.1595    1.3843 C   0  0  0  0  0  0  0  0  0  0  0  0
  -42.9434  -30.2333    2.5136 C   0  0  0  0  0  0  0  0  0  0  0  0
  -52.7097  -30.0064    5.7162 C   0  0  0  0  0  0  0  0  0  0  0  0
  -50.6254  -29.8047    6.6357 C   0  0  0  0  0  0  0  0  0  0  0  0
  -47.0029  -28.9755    6.0804 C   0  0  0  0  0  0  0  0  0  0  0  0
  -46.2650  -28.8896    4.7563 C   0  0  0  0  0  0  0  0  0  0  0  0
  -48.4340  -29.6286    4.2350 C   0  0  0  0  0  0  0  0  0  0  0  0
  -48.4620  -29.0476    5.6505 C   0  0  1  0  0  0  0  0  0  0  0  0
  -53.5683  -30.3068    4.5375 C   0  0  0  0  0  0  0  0  0  0  0  0
  -44.0517  -26.1352    0.2869 C   0  0  0  0  0  0  0  0  0  0  0  0
  -40.6559  -30.8601    2.6913 C   0  0  0  0  0  0  0  0  0  0  0  0
  -46.7038  -29.7473    2.5265 C   0  0  0  0  0  0  0  0  0  0  0  0
  -52.5274  -29.3873    8.0107 N   0  0  0  0  0  0  0  0  0  0  0  0
  -51.3738  -30.0822    5.5499 N   0  0  0  0  0  0  0  0  0  0  0  0
  -47.0125  -29.8483    3.9440 N   0  0  1  0  0  0  0  0  0  0  0  0
  -49.2425  -29.8601    6.5494 N   0  0  0  0  0  0  0  0  0  0  0  0
  -43.0418  -27.0441    0.7231 O   0  0  0  0  0  0  0  0  0  0  0  0
  -42.0300  -31.1411    2.9544 O   0  0  0  0  0  0  0  0  0  0  0  0
  -45.5435  -27.6462    1.2552 H   0  0  0  0  0  0  0  0  0  0  0  0
  -44.6309  -31.3394    3.2651 H   0  0  0  0  0  0  0  0  0  0  0  0
  -41.4599  -28.9223    1.6622 H   0  0  0  0  0  0  0  0  0  0  0  0
  -54.3486  -29.6020    7.0658 H   0  0  0  0  0  0  0  0  0  0  0  0
  -50.5990  -29.2380    8.7239 H   0  0  0  0  0  0  0  0  0  0  0  0
  -46.6950  -29.8806    6.6201 H   0  0  0  0  0  0  0  0  0  0  0  0
  -46.8033  -28.1130    6.7239 H   0  0  0  0  0  0  0  0  0  0  0  0
  -46.3252  -27.8719    4.3503 H   0  0  0  0  0  0  0  0  0  0  0  0
  -45.2127  -29.1702    4.8617 H   0  0  0  0  0  0  0  0  0  0  0  0
  -48.9882  -30.5694    4.1471 H   0  0  0  0  0  0  0  0  0  0  0  0
  -48.8899  -28.9065    3.5452 H   0  0  0  0  0  0  0  0  0  0  0  0
  -48.8845  -28.0360    5.6226 H   0  0  0  0  0  0  0  0  0  0  0  0
  -53.7770  -29.4010    3.9515 H   0  0  0  0  0  0  0  0  0  0  0  0
  -54.5412  -30.7157    4.8440 H   0  0  0  0  0  0  0  0  0  0  0  0
  -53.0779  -31.0374    3.8809 H   0  0  0  0  0  0  0  0  0  0  0  0
  -43.5859  -25.2898   -0.2260 H   0  0  0  0  0  0  0  0  0  0  0  0
  -44.7220  -26.6529   -0.4036 H   0  0  0  0  0  0  0  0  0  0  0  0
  -44.6225  -25.7824    1.1489 H   0  0  0  0  0  0  0  0  0  0  0  0
  -40.0346  -31.6634    3.0957 H   0  0  0  0  0  0  0  0  0  0  0  0
  -40.5066  -30.7957    1.6108 H   0  0  0  0  0  0  0  0  0  0  0  0
  -40.3833  -29.9076    3.1516 H   0  0  0  0  0  0  0  0  0  0  0  0
  -47.2974  -28.9272    2.1093 H   0  0  0  0  0  0  0  0  0  0  0  0
  -47.0406  -30.6708    2.0440 H   0  0  0  0  0  0  0  0  0  0  0  0
  -48.7536  -30.5117    7.1552 H   0  0  0  0  0  0  0  0  0  0  0  0
  1  6  1  0  0  0  0
  1  7  2  0  0  0  0
  2  6  2  0  0  0  0
  2  8  1  0  0  0  0
  3  7  1  0  0  0  0
  3  8  2  0  0  0  0
  4  9  1  0  0  0  0
  4 19  2  0  0  0  0
  5 10  2  0  0  0  0
  5 19  1  0  0  0  0
  6 18  1  0  0  0  0
  7 23  1  0  0  0  0
  8 24  1  0  0  0  0
  9 15  1  0  0  0  0
  9 20  2  0  0  0  0
 10 20  1  0  0  0  0
 10 22  1  0  0  0  0
 11 12  1  0  0  0  0
 11 14  1  0  0  0  0
 12 21  1  0  0  0  0
 13 14  1  0  0  0  0
 13 21  1  0  0  0  0
 14 22  1  0  0  0  0
 16 23  1  0  0  0  0
 17 24  1  0  0  0  0
 18 21  1  0  0  0  0
  1 25  1  0  0  0  0
  2 26  1  0  0  0  0
  3 27  1  0  0  0  0
  4 28  1  0  0  0  0
  5 29  1  0  0  0  0
 11 30  1  0  0  0  0
 11 31  1  0  0  0  0
 12 32  1  0  0  0  0
 12 33  1  0  0  0  0
 13 34  1  0  0  0  0
 13 35  1  0  0  0  0
 14 36  1  0  0  0  0
 15 37  1  0  0  0  0
 15 38  1  0  0  0  0
 15 39  1  0  0  0  0
 16 40  1  0  0  0  0
 16 41  1  0  0  0  0
 16 42  1  0  0  0  0
 17 43  1  0  0  0  0
 17 44  1  0  0  0  0
 17 45  1  0  0  0  0
 18 46  1  0  0  0  0
 18 47  1  0  0  0  0
 22 48  1  0  0  0  0
M  END
> <POSIT::Probability>
0.24

> <POSIT::Method>
FRED

> <ReceptorTitle>
UCSF-P4578-REFINED_LIGAND-BOUND-STATE_A__DU__LA1_A-201(A)

> <OMEGA_C>
fEMzwvH74sEI4c0/vDYxwjKT88GGNi9ATxQqwoa36MGSGus/mhpVwupR7cHnmN1AJMRMwpi068GR
BvtAQPU0wk4i7MEmQhJA1NItwqNG4cHWMbE/CcYrwtTd8cGc3iBAutZSwh8N8MEF67ZAX4BKwhZw
7sE/V9RA+gI8wrrN58GOksJAYg85ws4d58HtM5hAZ7xBwmcH7cERhYdADdlBwpRh6MHt0LRA5kVW
wkx08sHSMpFA9zQwwvgU0cFw3pI+op8iwnjh9sHaPSxAqtA6wpL67cGqsSFAGhxSwjwZ68EILABB
zH5Nwkmo8MEImbFAyAw8wlTJ7sHNanxAU/hEwmfh7sHdlNFAzCoswmNa2MFMHTk/wx4owuMg+cGu
FD1AgSw2wmcr3cHQqKA/BoYywiO3+sFC91BA79Ylwupg58GcwdQ//GRZwvTQ7MEWG+JAXWVKwlnn
6cEvlQtBusc6woUL78EO2NNAmDY7wmjn4MEeKtdADk05wq353sF2NYtA2Nk0wohc6cF0k5tA9/ND
wiSO9MEitYRAPo9DwoRA58Eq5WJAx4lDwrhJ4ME/7LNAqhtXwjQ168Gy5XxAJipawtm59cE2AptA
v09Uwo5M+MGfYHhA6lcuwmtRysEQYWe+TeMywi851cHgn86+bn0ywmZCzsGED5M/ZiMgwqJO/cEl
H0ZAtwYiwotd9sEwLs4/h4ghwsBC78EQs0lAkDA9wuZq58EQ/gZAkCk8wuRd9cG00QJAqQNDwtwX
9MEL9+RA

> <OMEGA_E>
CoPnwA==

> <OMEGA_NBR>
    146071

$$$$
CACHE3HI_1709_13
  -OEChem-03092622533D

 45 48  0     0  0  0  0  0  0999 V2000
  -45.9547  -28.6196    4.1906 C   0  0  0  0  0  0  0  0  0  0  0  0
  -46.7898  -28.0084    5.1259 C   0  0  0  0  0  0  0  0  0  0  0  0
  -54.2644  -25.8485   12.3967 C   0  0  0  0  0  0  0  0  0  0  0  0
  -48.5111  -29.6371    4.6548 C   0  0  0  0  0  0  0  0  0  0  0  0
  -46.3979  -29.7397    3.4875 C   0  0  0  0  0  0  0  0  0  0  0  0
  -48.0679  -28.5170    5.3579 C   0  0  0  0  0  0  0  0  0  0  0  0
  -47.6760  -30.2482    3.7196 C   0  0  0  0  0  0  0  0  0  0  0  0
  -55.2749  -27.1103   10.9255 C   0  0  0  0  0  0  0  0  0  0  0  0
  -55.3571  -27.8696    9.7236 C   0  0  0  0  0  0  0  0  0  0  0  0
  -53.0165  -27.2955    9.2633 C   0  0  0  0  0  0  0  0  0  0  0  0
  -52.9432  -26.5794   10.3987 C   0  0  0  0  0  0  0  0  0  0  0  0
  -54.2710  -27.9570    8.9279 C   0  0  0  0  0  0  0  0  0  0  0  0
  -49.8722  -30.1772    4.9018 C   0  0  0  0  0  0  0  0  0  0  0  0
  -54.3886  -28.7522    7.6917 C   0  0  0  0  0  0  0  0  0  0  0  0
  -52.0466  -29.8570    7.9337 C   0  0  0  0  0  0  0  0  0  0  0  0
  -52.7574  -29.6220    5.9232 C   0  0  0  0  0  0  0  0  0  0  0  0
  -51.6730  -30.4826    6.5834 C   0  0  0  0  0  0  0  0  0  0  0  0
  -44.4234  -31.2459    3.1452 C   0  0  0  0  0  0  0  0  0  0  0  0
  -45.5031  -30.3905    2.4873 C   0  0  0  0  0  0  0  0  0  0  0  0
  -55.4959  -26.0458   12.8146 N   0  0  0  0  0  0  0  0  0  0  0  0
  -56.1348  -26.8426   11.8853 N   0  0  0  0  0  0  0  0  0  0  0  0
  -54.0658  -26.4957   11.2110 N   0  0  0  0  0  0  0  0  0  0  0  0
  -53.2334  -29.3445    7.2693 N   0  0  0  0  0  0  0  0  0  0  0  0
  -50.3623  -29.9891    6.1780 N   0  0  0  0  0  0  0  0  0  0  0  0
  -50.4605  -30.7596    3.9945 O   0  0  0  0  0  0  0  0  0  0  0  0
  -55.4726  -28.8418    7.1213 O   0  0  0  0  0  0  0  0  0  0  0  0
  -48.8618  -27.9203    6.2583 F   0  0  0  0  0  0  0  0  0  0  0  0
  -48.1006  -31.3255    3.0419 F   0  0  0  0  0  0  0  0  0  0  0  0
  -44.9611  -28.2152    4.0161 H   0  0  0  0  0  0  0  0  0  0  0  0
  -46.4457  -27.1358    5.6733 H   0  0  0  0  0  0  0  0  0  0  0  0
  -53.5020  -25.2672   12.8959 H   0  0  0  0  0  0  0  0  0  0  0  0
  -56.2944  -28.3593    9.4812 H   0  0  0  0  0  0  0  0  0  0  0  0
  -52.1654  -27.3889    8.5991 H   0  0  0  0  0  0  0  0  0  0  0  0
  -52.0454  -26.0613   10.7126 H   0  0  0  0  0  0  0  0  0  0  0  0
  -52.2534  -30.5780    8.7286 H   0  0  0  0  0  0  0  0  0  0  0  0
  -51.3941  -29.0589    8.3000 H   0  0  0  0  0  0  0  0  0  0  0  0
  -52.4199  -28.7187    5.4065 H   0  0  0  0  0  0  0  0  0  0  0  0
  -53.4742  -30.1696    5.3062 H   0  0  0  0  0  0  0  0  0  0  0  0
  -51.7788  -31.5122    6.5005 H   0  0  0  0  0  0  0  0  0  0  0  0
  -44.8673  -32.0144    3.7872 H   0  0  0  0  0  0  0  0  0  0  0  0
  -43.7601  -30.6330    3.7647 H   0  0  0  0  0  0  0  0  0  0  0  0
  -43.8127  -31.7475    2.3882 H   0  0  0  0  0  0  0  0  0  0  0  0
  -45.0222  -29.6307    1.8512 H   0  0  0  0  0  0  0  0  0  0  0  0
  -46.0908  -31.0183    1.7983 H   0  0  0  0  0  0  0  0  0  0  0  0
  -49.8013  -29.5564    6.8972 H   0  0  0  0  0  0  0  0  0  0  0  0
  1  2  2  0  0  0  0
  1  5  1  0  0  0  0
  2  6  1  0  0  0  0
  3 20  2  0  0  0  0
  3 22  1  0  0  0  0
  4  6  2  0  0  0  0
  4  7  1  0  0  0  0
  4 13  1  0  0  0  0
  5  7  2  0  0  0  0
  5 19  1  0  0  0  0
  6 27  1  0  0  0  0
  7 28  1  0  0  0  0
  8  9  1  0  0  0  0
  8 21  2  0  0  0  0
  8 22  1  0  0  0  0
  9 12  2  0  0  0  0
 10 11  2  0  0  0  0
 10 12  1  0  0  0  0
 11 22  1  0  0  0  0
 12 14  1  0  0  0  0
 13 24  1  0  0  0  0
 13 25  2  0  0  0  0
 14 23  1  0  0  0  0
 14 26  2  0  0  0  0
 15 17  1  0  0  0  0
 15 23  1  0  0  0  0
 16 17  1  0  0  0  0
 16 23  1  0  0  0  0
 17 24  1  0  0  0  0
 18 19  1  0  0  0  0
 20 21  1  0  0  0  0
  1 29  1  0  0  0  0
  2 30  1  0  0  0  0
  3 31  1  0  0  0  0
  9 32  1  0  0  0  0
 10 33  1  0  0  0  0
 11 34  1  0  0  0  0
 15 35  1  0  0  0  0
 15 36  1  0  0  0  0
 16 37  1  0  0  0  0
 16 38  1  0  0  0  0
 17 39  1  0  0  0  0
 18 40  1  0  0  0  0
 18 41  1  0  0  0  0
 18 42  1  0  0  0  0
 19 43  1  0  0  0  0
 19 44  1  0  0  0  0
 24 45  1  0  0  0  0
M  END
> <POSIT::Probability>
0.18

> <POSIT::Method>
HYBRID

> <ReceptorTitle>
UCSF-P4578-REFINED_LIGAND-BOUND-STATE_A__DU__LA1_A-201(A)

> <OMEGA_C>
mNE3wt/05MFqGYZAuig7wjIR4MFyB6RAwg5ZwrDJzsHrWEZBZAtCwtIY7cFG9JRAfpc5wtzq7cG8
M19AgEVAwrwi5MEmdKtAQ7Q+wmj88cEoDW5Adxldwsvh2MEAzy5BtW1dwgb13sGwkxtB8hBUwh9d
2sFaNhRB3sVTwpai1MHmYCZBhhVZwgCo38Gs2A5BJ31HwvNq8cFc25xA5I1ZwnYE5sFEIvZAtC9Q
wh7b7sE44f1AjgdTwuj57MEoi71ALrFOwlLc88GOq9JAjrExwof3+cFoS0lAIAM2wtQf88EMMB9A
w/tdwtVd0MGiCE1BB4pgwqK91sFgKj5BXUNYwiD308E8YDNBCO9UwpjB6sHmnehA9nJJwrzp78Ha
scVAiNdJwpET9sGwpX9A9+NdwhS85sFg4eNAhnJDwtJc38EPRMhAA2dAwpCa+sHErUJAJtgzwqS4
4cH3g4BAYMg5whYW2cFoi7VABQJWwjcjysGmVU5Bfi1hwtnf4sHkshdBYqlQwmAc28EFlglBgy5Q
wp590MG4ZitBegNRwtKf9MEmqAtBgpNNwqx46MHGzARBAa5Rwvi/5cGsAa1AkuVVwkpb8cFgzKlA
hx1PwgkZ/MFCBNBAJ3gzwssOAMKAYXJAXgovwlIQ9cEo8HBAL0AvwtD6/cGk1xhAvBY0wrkL7cGA
8uw/BF04wmgl+MEwLeY/hjRHwnBz7MG+tdxA

> <OMEGA_E>
gh6zwA==

> <OMEGA_NBR>
    147467

$$$$
CACHE3HI_1709_14
  -OEChem-03092622533D

 54 56  0     1  0  0  0  0  0999 V2000
  -50.1391  -28.9917    4.8523 C   0  0  0  0  0  0  0  0  0  0  0  0
  -47.8513  -28.4918    5.5388 C   0  0  0  0  0  0  0  0  0  0  0  0
  -46.4796  -28.6464    5.3719 C   0  0  0  0  0  0  0  0  0  0  0  0
  -48.7288  -29.1495    4.6841 C   0  0  0  0  0  0  0  0  0  0  0  0
  -46.0915  -32.6545    0.1075 C   0  0  0  0  0  0  0  0  0  0  0  0
  -46.0397  -29.4640    4.3428 C   0  0  0  0  0  0  0  0  0  0  0  0
  -44.7953  -33.0480    0.4814 C   0  0  0  0  0  0  0  0  0  0  0  0
  -48.1887  -29.9443    3.6859 C   0  0  0  0  0  0  0  0  0  0  0  0
  -46.3680  -33.4367   -0.9825 C   0  0  0  0  0  0  0  0  0  0  0  0
  -44.6017  -29.6634    4.1185 C   0  0  0  0  0  0  0  0  0  0  0  0
  -43.9730  -32.5387    1.6082 C   0  0  0  0  0  0  0  0  0  0  0  0
  -43.8659  -28.6481    0.6163 C   0  0  0  0  0  0  0  0  0  0  0  0
  -42.5073  -28.5462    1.3019 C   0  0  0  0  0  0  0  0  0  0  0  0
  -44.8433  -28.6864    1.7804 C   0  0  0  0  0  0  0  0  0  0  0  0
  -42.6721  -29.4063    2.5570 C   0  0  2  0  0  0  0  0  0  0  0  0
  -46.9574  -31.6430    0.7353 C   0  0  0  0  0  0  0  0  0  0  0  0
  -49.0742  -30.6793    2.7315 C   0  0  0  0  0  0  0  0  0  0  0  0
  -48.8204  -33.9334   -1.1361 C   0  0  0  0  0  0  0  0  0  0  0  0
  -40.8312  -30.9702    1.8553 C   0  0  0  0  0  0  0  0  0  0  0  0
  -47.5260  -33.5681   -1.8765 C   0  0  0  0  0  0  0  0  0  0  0  0
  -42.2814  -30.8621    2.3037 C   0  0  2  0  0  0  0  0  0  0  0  0
  -51.2844  -28.8637    4.9888 N   0  0  0  0  0  0  0  0  0  0  0  0
  -46.8622  -30.1189    3.4928 N   0  0  0  0  0  0  0  0  0  0  0  0
  -44.3050  -34.0013   -0.3154 N   0  0  0  0  0  0  0  0  0  0  0  0
  -44.0930  -29.2826    2.8849 N   0  0  0  0  0  0  0  0  0  0  0  0
  -43.1549  -31.4543    1.3226 N   0  0  0  0  0  0  0  0  0  0  0  0
  -43.9556  -30.1634    5.0359 O   0  0  0  0  0  0  0  0  0  0  0  0
  -44.0397  -33.0970    2.7001 O   0  0  0  0  0  0  0  0  0  0  0  0
  -45.3088  -34.2456   -1.2446 O   0  0  0  0  0  0  0  0  0  0  0  0
  -48.2200  -27.8548    6.3392 H   0  0  0  0  0  0  0  0  0  0  0  0
  -45.7849  -28.1374    6.0316 H   0  0  0  0  0  0  0  0  0  0  0  0
  -44.0541  -27.8075   -0.0576 H   0  0  0  0  0  0  0  0  0  0  0  0
  -43.9291  -29.5757    0.0359 H   0  0  0  0  0  0  0  0  0  0  0  0
  -41.6911  -28.8739    0.6513 H   0  0  0  0  0  0  0  0  0  0  0  0
  -42.3188  -27.5041    1.5880 H   0  0  0  0  0  0  0  0  0  0  0  0
  -45.1421  -27.6770    2.0839 H   0  0  0  0  0  0  0  0  0  0  0  0
  -45.7402  -29.2723    1.5588 H   0  0  0  0  0  0  0  0  0  0  0  0
  -42.0719  -29.0155    3.3853 H   0  0  0  0  0  0  0  0  0  0  0  0
  -46.8089  -30.6376    0.3013 H   0  0  0  0  0  0  0  0  0  0  0  0
  -46.7587  -31.5367    1.8173 H   0  0  0  0  0  0  0  0  0  0  0  0
  -48.0245  -31.8999    0.6181 H   0  0  0  0  0  0  0  0  0  0  0  0
  -49.2940  -30.0697    1.8468 H   0  0  0  0  0  0  0  0  0  0  0  0
  -50.0357  -30.9279    3.1968 H   0  0  0  0  0  0  0  0  0  0  0  0
  -48.5916  -31.6077    2.4063 H   0  0  0  0  0  0  0  0  0  0  0  0
  -49.0358  -33.2012   -0.3503 H   0  0  0  0  0  0  0  0  0  0  0  0
  -48.7296  -34.9169   -0.6630 H   0  0  0  0  0  0  0  0  0  0  0  0
  -49.6769  -33.9624   -1.8168 H   0  0  0  0  0  0  0  0  0  0  0  0
  -40.6581  -30.4124    0.9280 H   0  0  0  0  0  0  0  0  0  0  0  0
  -40.5495  -32.0139    1.6849 H   0  0  0  0  0  0  0  0  0  0  0  0
  -40.1601  -30.5574    2.6171 H   0  0  0  0  0  0  0  0  0  0  0  0
  -47.3503  -34.3348   -2.6591 H   0  0  0  0  0  0  0  0  0  0  0  0
  -47.7075  -32.6327   -2.4461 H   0  0  0  0  0  0  0  0  0  0  0  0
  -42.4179  -31.4293    3.2299 H   0  0  0  0  0  0  0  0  0  0  0  0
  -43.1091  -31.0871    0.3758 H   0  0  0  0  0  0  0  0  0  0  0  0
  1  4  1  0  0  0  0
  1 22  3  0  0  0  0
  2  3  2  0  0  0  0
  2  4  1  0  0  0  0
  3  6  1  0  0  0  0
  4  8  2  0  0  0  0
  5  7  1  0  0  0  0
  5  9  2  0  0  0  0
  5 16  1  0  0  0  0
  6 10  1  0  0  0  0
  6 23  2  0  0  0  0
  7 11  1  0  0  0  0
  7 24  2  0  0  0  0
  8 17  1  0  0  0  0
  8 23  1  0  0  0  0
  9 20  1  0  0  0  0
  9 29  1  0  0  0  0
 10 25  1  0  0  0  0
 10 27  2  0  0  0  0
 11 26  1  0  0  0  0
 11 28  2  0  0  0  0
 12 13  1  0  0  0  0
 12 14  1  0  0  0  0
 13 15  1  0  0  0  0
 14 25  1  0  0  0  0
 15 21  1  0  0  0  0
 15 25  1  0  0  0  0
 18 20  1  0  0  0  0
 19 21  1  0  0  0  0
 21 26  1  0  0  0  0
 24 29  1  0  0  0  0
  2 30  1  0  0  0  0
  3 31  1  0  0  0  0
 12 32  1  0  0  0  0
 12 33  1  0  0  0  0
 13 34  1  0  0  0  0
 13 35  1  0  0  0  0
 14 36  1  0  0  0  0
 14 37  1  0  0  0  0
 15 38  1  0  0  0  0
 16 39  1  0  0  0  0
 16 40  1  0  0  0  0
 16 41  1  0  0  0  0
 17 42  1  0  0  0  0
 17 43  1  0  0  0  0
 17 44  1  0  0  0  0
 18 45  1  0  0  0  0
 18 46  1  0  0  0  0
 18 47  1  0  0  0  0
 19 48  1  0  0  0  0
 19 49  1  0  0  0  0
 19 50  1  0  0  0  0
 20 51  1  0  0  0  0
 20 52  1  0  0  0  0
 21 53  1  0  0  0  0
 26 54  1  0  0  0  0
M  END
> <POSIT::Probability>
0.05

> <POSIT::Method>
FRED

> <ReceptorTitle>
UCSF-P4578-REFINED_LIGAND-BOUND-STATE_A__DU__LA1_A-201(A)

> <OMEGA_C>
a45Iwgrv58EMRptAtmc/wiPv48HTPbFAH+s5wuUr5cH+5qtASepCwjky6cFr5JVAp104wiqeAsJA
Jtw9pSg4wjK268E++IpAVy4zwhoxBMJQePY+PMFAwuiN78Fk5mtAz3g5wjm/BcIIh3u/LWgywqlO
7cETy4NAUeQvwpgnAsIw2s0/qHYvwlkv5cEYxx0/cAcqwqle5MEQpqY/hV8zwtN95cE85OM/OrAq
whtA68GVpSNAZdQ7ws0k/cFAPTw/90tEwh5v9cEX0S5AE0hDwta7B8Koa5G/GlMjwu7C98G8eu0/
pxo+wrxFBsLcMPC/MSApwqnl9sFpcBNAQiNNwuPo5sF3pJ9A4nI7wnzz8MG4il9AVDgxwlsBCMJQ
e6G+Ml8wwq9C6sH8oThAkZ4swmmi+8FUSqk/gNIvwqBO8cH3JaFAqSgwwk5jBMI6zixAPzw1wn77
CMJ0T5+/U+FAwq/W3sGd2spAtSM3wmcZ4cGQAsFAZDcwwtd13sEADWy9aLcvwiGb7MEANBM9qsMm
wrb95sH4uCY/fkYpwnsI3MGYQss/gZE0wntq3cEiXgVA6/U2wr0t6sHshcc/pkkowrQf6MG+qFhA
STw7wuQZ9cHAQZo+7Qg7whxL/ME8neg/HBlAwhUz/8EoPR4/Fy1FwtmO8MEgZew/iCRIwnFs98Ew
mUxA2V1Cwo3c/MG6ABpAoCREwg/OBMIwX7O+GOtCwuGqC8KItym/HLVGwofZB8JMjOi/7aEiwohM
88F4j20/sDIiwjQOAMJYq9c/56Mgwp519MFkfidAqmY9wtpWCcJ+LirAdtQ+wu2HAsIGjRzA6qsp
wiNv+8H8tU5Asm8swluy+MHwbcA+

> <OMEGA_E>
ShflwA==

> <OMEGA_NBR>
    149042

$$$$
CACHE3HI_1709_16
  -OEChem-03092622533D

 58 60  0     1  0  0  0  0  0999 V2000
  -54.5875  -25.3395   12.1330 C   0  0  0  0  0  0  0  0  0  0  0  0
  -54.8342  -27.3752   10.6224 C   0  0  0  0  0  0  0  0  0  0  0  0
  -54.6474  -25.3537    9.6479 C   0  0  0  0  0  0  0  0  0  0  0  0
  -47.8004  -29.3831    6.0367 C   0  0  0  0  0  0  0  0  0  0  0  0
  -47.2853  -29.0525    3.8825 C   0  0  0  0  0  0  0  0  0  0  0  0
  -54.6839  -25.9883   10.8701 C   0  0  0  0  0  0  0  0  0  0  0  0
  -48.9808  -29.3856    5.3263 C   0  0  0  0  0  0  0  0  0  0  0  0
  -48.6548  -29.1768    3.9634 C   0  0  0  0  0  0  0  0  0  0  0  0
  -54.8854  -27.5459    9.2565 C   0  0  0  0  0  0  0  0  0  0  0  0
  -50.3222  -29.5766    5.9341 C   0  0  0  0  0  0  0  0  0  0  0  0
  -55.0339  -28.8080    8.5148 C   0  0  0  0  0  0  0  0  0  0  0  0
  -52.3403  -31.2056    7.5587 C   0  0  0  0  0  0  0  0  0  0  0  0
  -52.5782  -28.8589    7.8753 C   0  0  0  0  0  0  0  0  0  0  0  0
  -51.5673  -29.9824    8.0413 C   0  0  2  0  0  0  0  0  0  0  0  0
  -53.7726  -30.9632    8.0938 C   0  0  0  0  0  0  0  0  0  0  0  0
  -49.5985  -29.1058    2.8301 C   0  0  0  0  0  0  0  0  0  0  0  0
  -53.9308  -31.5850    9.4904 C   0  0  0  0  0  0  0  0  0  0  0  0
  -54.7932  -31.5751    7.1260 C   0  0  0  0  0  0  0  0  0  0  0  0
  -44.4856  -29.5500    4.3272 C   0  0  0  0  0  0  0  0  0  0  0  0
  -45.0648  -29.9221    6.7526 C   0  0  0  0  0  0  0  0  0  0  0  0
  -54.7769  -26.0401    7.2536 C   0  0  0  0  0  0  0  0  0  0  0  0
  -45.3751  -29.1097    5.4932 C   0  0  0  0  0  0  0  0  0  0  0  0
  -54.5089  -24.8105   13.1629 N   0  0  0  0  0  0  0  0  0  0  0  0
  -46.7766  -29.1797    5.1485 N   0  0  0  0  0  0  0  0  0  0  0  0
  -54.7708  -26.3106    8.6744 N   0  0  0  0  0  0  0  0  0  0  0  0
  -53.8712  -29.4869    8.1600 N   0  0  0  0  0  0  0  0  0  0  0  0
  -50.3521  -29.7624    7.3133 N   0  0  0  0  0  0  0  0  0  0  0  0
  -51.3140  -29.5815    5.2097 O   0  0  0  0  0  0  0  0  0  0  0  0
  -56.1829  -29.1677    8.2681 O   0  0  0  0  0  0  0  0  0  0  0  0
  -54.8992  -28.1657   11.3588 H   0  0  0  0  0  0  0  0  0  0  0  0
  -54.5447  -24.3079    9.3881 H   0  0  0  0  0  0  0  0  0  0  0  0
  -47.6025  -29.5068    7.0935 H   0  0  0  0  0  0  0  0  0  0  0  0
  -46.6334  -28.8874    3.0348 H   0  0  0  0  0  0  0  0  0  0  0  0
  -52.3383  -31.2414    6.4611 H   0  0  0  0  0  0  0  0  0  0  0  0
  -51.8981  -32.1373    7.9276 H   0  0  0  0  0  0  0  0  0  0  0  0
  -52.3834  -28.0224    8.5532 H   0  0  0  0  0  0  0  0  0  0  0  0
  -52.6211  -28.4846    6.8456 H   0  0  0  0  0  0  0  0  0  0  0  0
  -51.2978  -30.0950    9.0983 H   0  0  0  0  0  0  0  0  0  0  0  0
  -49.7792  -30.0966    2.3793 H   0  0  0  0  0  0  0  0  0  0  0  0
  -49.2191  -28.4646    2.0160 H   0  0  0  0  0  0  0  0  0  0  0  0
  -50.5724  -28.7005    3.1495 H   0  0  0  0  0  0  0  0  0  0  0  0
  -54.9388  -31.4070    9.8516 H   0  0  0  0  0  0  0  0  0  0  0  0
  -53.2154  -31.1316   10.1694 H   0  0  0  0  0  0  0  0  0  0  0  0
  -53.7489  -32.6544    9.4315 H   0  0  0  0  0  0  0  0  0  0  0  0
  -55.7974  -31.4041    7.5030 H   0  0  0  0  0  0  0  0  0  0  0  0
  -54.6154  -32.6432    7.0401 H   0  0  0  0  0  0  0  0  0  0  0  0
  -54.6893  -31.1110    6.1485 H   0  0  0  0  0  0  0  0  0  0  0  0
  -44.6876  -30.5908    4.0526 H   0  0  0  0  0  0  0  0  0  0  0  0
  -44.6722  -28.9277    3.4450 H   0  0  0  0  0  0  0  0  0  0  0  0
  -43.4207  -29.4693    4.5709 H   0  0  0  0  0  0  0  0  0  0  0  0
  -45.2904  -30.9858    6.6204 H   0  0  0  0  0  0  0  0  0  0  0  0
  -44.0049  -29.8376    7.0141 H   0  0  0  0  0  0  0  0  0  0  0  0
  -45.6503  -29.5606    7.6064 H   0  0  0  0  0  0  0  0  0  0  0  0
  -53.7614  -26.0732    6.8447 H   0  0  0  0  0  0  0  0  0  0  0  0
  -55.2028  -25.0501    7.0628 H   0  0  0  0  0  0  0  0  0  0  0  0
  -55.3670  -26.7893    6.7156 H   0  0  0  0  0  0  0  0  0  0  0  0
  -45.1212  -28.0643    5.7140 H   0  0  0  0  0  0  0  0  0  0  0  0
  -49.4751  -29.8070    7.8318 H   0  0  0  0  0  0  0  0  0  0  0  0
  1  6  1  0  0  0  0
  1 23  3  0  0  0  0
  2  6  1  0  0  0  0
  2  9  2  0  0  0  0
  3  6  2  0  0  0  0
  3 25  1  0  0  0  0
  4  7  2  0  0  0  0
  4 24  1  0  0  0  0
  5  8  2  0  0  0  0
  5 24  1  0  0  0  0
  7  8  1  0  0  0  0
  7 10  1  0  0  0  0
  8 16  1  0  0  0  0
  9 11  1  0  0  0  0
  9 25  1  0  0  0  0
 10 27  1  0  0  0  0
 10 28  2  0  0  0  0
 11 26  1  0  0  0  0
 11 29  2  0  0  0  0
 12 14  1  0  0  0  0
 12 15  1  0  0  0  0
 13 14  1  0  0  0  0
 13 26  1  0  0  0  0
 14 27  1  0  0  0  0
 15 17  1  0  0  0  0
 15 18  1  0  0  0  0
 15 26  1  0  0  0  0
 19 22  1  0  0  0  0
 20 22  1  0  0  0  0
 21 25  1  0  0  0  0
 22 24  1  0  0  0  0
  2 30  1  0  0  0  0
  3 31  1  0  0  0  0
  4 32  1  0  0  0  0
  5 33  1  0  0  0  0
 12 34  1  0  0  0  0
 12 35  1  0  0  0  0
 13 36  1  0  0  0  0
 13 37  1  0  0  0  0
 14 38  1  0  0  0  0
 16 39  1  0  0  0  0
 16 40  1  0  0  0  0
 16 41  1  0  0  0  0
 17 42  1  0  0  0  0
 17 43  1  0  0  0  0
 17 44  1  0  0  0  0
 18 45  1  0  0  0  0
 18 46  1  0  0  0  0
 18 47  1  0  0  0  0
 19 48  1  0  0  0  0
 19 49  1  0  0  0  0
 19 50  1  0  0  0  0
 20 51  1  0  0  0  0
 20 52  1  0  0  0  0
 20 53  1  0  0  0  0
 21 54  1  0  0  0  0
 21 55  1  0  0  0  0
 21 56  1  0  0  0  0
 22 57  1  0  0  0  0
 27 58  1  0  0  0  0
M  END
> <POSIT::Probability>
0.23

> <POSIT::Method>
HYBRID

> <ReceptorTitle>
UCSF-P4578-REFINED_LIGAND-BOUND-STATE_A__DU__LA1_A-201(A)

> <OMEGA_C>
o1lawly3ysGkIEJBO1ZbwmwA28E69SlB8JZawlLUysGvXRpBoDM/wooQ68H4LMFAJCQ9wo9r6MFE
enhATLxawgHoz8EI7C1BV+xDws4V68FwcapAd55CwgFq6cGSqH1Ap4pbwutd3MGHGhRB+UlJwvWc
7MH3471AsCJcwtR25sFsPAhBcVxRwvik+cEb4fFAE1BSwvfe5sGqAvxA70ROwuzb78EwqQBBLhdX
wqO098FCgAFB1GRGwq7Y6MH6HzVAHblXwhGu/MGV2BdBNyxbwtCZ/MEwCORAR/Exwl1m7ME9eIpA
X0I0wntg78EMFdhAiBtbwiBS0ME8HehAH4A1wr3g6MEmyK9AEAlawgB8xsFtm1JBPxs7wu5v6cEy
wKRAWRVbwi180sF8ygpBHHxXwjLl68GOjwJBjmhJwmQZ7sE4BupAkEFNwuam7MERtqZARrtgwnRX
6cH9SQRB1JhbwmBT4cHCvTVByC1awoV2wsHZNRZB/Wg+wuEN7MHt/eJAoYg6wmgZ58GEOUJAZVpR
wnPu+cE2wc5ArpdPwpGMAMIxr/1AjYhRwuEt4MEM2ghB+HtSwmjg48FLD9tA6TBNwprC8MGtkhFB
4h1HwsnF8MGSRhhAUuBEwoC348HkBQFAL0pKwpia5cEmkklAWcFbwpRB+8FaoB1BmNxUwncN+cHb
tSJB3f5WwhGeAsKI5xZBhjBfwp07+8GoGPBAIHZawqmSAsIvSOFA3sFawlrj+MHowMRAD8Aywue5
9MGQroFAS7AywtZr58FcelxAza4twhXB68GhRJJAVCk1wuri98Ec2tNA+QQwwm6z7sEmc+BA5Jk2
wgR87ME/Z/NArwtXwtiV0MH6B9tAn89cwqJmyMFkAuJAyHddwntQ1sFo5tZAHHw0wseD4MEe2bZA
huZFwqR07sFlnvpA

> <OMEGA_E>
DUa1wA==

> <OMEGA_NBR>
    150698

$$$$
CACHE3HI_1709_30
  -OEChem-03092622533D

 51 53  0     1  0  0  0  0  0999 V2000
  -44.2725  -29.2900    4.7060 C   0  0  0  0  0  0  0  0  0  0  0  0
  -46.3428  -28.8869    5.9569 C   0  0  0  0  0  0  0  0  0  0  0  0
  -47.7308  -28.9304    6.0256 C   0  0  0  0  0  0  0  0  0  0  0  0
  -55.3251  -25.9361   11.1207 C   0  0  0  0  0  0  0  0  0  0  0  0
  -46.4751  -29.7891    3.7601 C   0  0  0  0  0  0  0  0  0  0  0  0
  -45.6950  -29.3224    4.8063 C   0  0  0  0  0  0  0  0  0  0  0  0
  -48.4199  -29.4143    4.9253 C   0  0  0  0  0  0  0  0  0  0  0  0
  -56.1987  -26.3682   12.1331 C   0  0  0  0  0  0  0  0  0  0  0  0
  -55.0062  -27.0882   10.4516 C   0  0  0  0  0  0  0  0  0  0  0  0
  -49.9033  -29.4833    4.9423 C   0  0  0  0  0  0  0  0  0  0  0  0
  -54.6606  -28.5945    8.5244 C   0  0  0  0  0  0  0  0  0  0  0  0
  -53.7576  -30.7687    7.5683 C   0  0  0  0  0  0  0  0  0  0  0  0
  -52.4945  -28.7363    7.3130 C   0  0  0  0  0  0  0  0  0  0  0  0
  -52.3629  -31.1104    7.0347 C   0  0  2  0  0  0  0  0  0  0  0  0
  -51.9346  -29.7943    6.3646 C   0  0  2  0  0  0  0  0  0  0  0  0
  -52.3783  -32.2814    6.0989 C   0  0  0  0  0  0  0  0  0  0  0  0
  -57.8293  -24.4968   12.5698 C   0  0  0  0  0  0  0  0  0  0  0  0
  -55.8675  -24.8453   14.1148 C   0  0  0  0  0  0  0  0  0  0  0  0
  -54.1367  -27.3954    9.2725 C   0  0  0  0  0  0  0  0  0  0  0  0
  -56.8630  -25.5513   13.1613 C   0  0  0  0  0  0  0  0  0  0  0  0
  -43.1152  -29.2637    4.6244 N   0  0  0  0  0  0  0  0  0  0  0  0
  -47.8256  -29.8462    3.7906 N   0  0  0  0  0  0  0  0  0  0  0  0
  -56.4061  -27.6872   12.0952 N   0  0  0  0  0  0  0  0  0  0  0  0
  -53.7095  -29.3359    7.8458 N   0  0  0  0  0  0  0  0  0  0  0  0
  -50.4954  -29.6814    6.1861 N   0  0  0  0  0  0  0  0  0  0  0  0
  -50.5207  -29.3850    3.8852 O   0  0  0  0  0  0  0  0  0  0  0  0
  -55.8628  -28.8610    8.5349 O   0  0  0  0  0  0  0  0  0  0  0  0
  -55.6460  -28.1407   11.0240 O   0  0  0  0  0  0  0  0  0  0  0  0
  -45.7792  -28.5108    6.8070 H   0  0  0  0  0  0  0  0  0  0  0  0
  -48.2473  -28.5930    6.9180 H   0  0  0  0  0  0  0  0  0  0  0  0
  -54.9783  -24.9359   10.9061 H   0  0  0  0  0  0  0  0  0  0  0  0
  -46.0307  -30.1443    2.8347 H   0  0  0  0  0  0  0  0  0  0  0  0
  -54.5413  -30.9362    6.8208 H   0  0  0  0  0  0  0  0  0  0  0  0
  -54.0050  -31.3305    8.4738 H   0  0  0  0  0  0  0  0  0  0  0  0
  -51.8283  -28.5431    8.1621 H   0  0  0  0  0  0  0  0  0  0  0  0
  -52.7168  -27.7872    6.8155 H   0  0  0  0  0  0  0  0  0  0  0  0
  -51.7074  -31.3242    7.8871 H   0  0  0  0  0  0  0  0  0  0  0  0
  -52.3891  -29.6947    5.3761 H   0  0  0  0  0  0  0  0  0  0  0  0
  -53.0293  -32.0752    5.2477 H   0  0  0  0  0  0  0  0  0  0  0  0
  -52.7457  -33.1707    6.6139 H   0  0  0  0  0  0  0  0  0  0  0  0
  -51.3707  -32.4821    5.7289 H   0  0  0  0  0  0  0  0  0  0  0  0
  -57.2850  -23.8222   11.8995 H   0  0  0  0  0  0  0  0  0  0  0  0
  -58.6407  -24.9567   11.9951 H   0  0  0  0  0  0  0  0  0  0  0  0
  -58.2852  -23.8871   13.3580 H   0  0  0  0  0  0  0  0  0  0  0  0
  -55.1805  -24.1827   13.5767 H   0  0  0  0  0  0  0  0  0  0  0  0
  -56.4144  -24.2395   14.8462 H   0  0  0  0  0  0  0  0  0  0  0  0
  -55.2628  -25.5722   14.6684 H   0  0  0  0  0  0  0  0  0  0  0  0
  -53.1163  -27.6176    9.5833 H   0  0  0  0  0  0  0  0  0  0  0  0
  -54.1061  -26.5570    8.5770 H   0  0  0  0  0  0  0  0  0  0  0  0
  -57.4959  -26.1861   13.8223 H   0  0  0  0  0  0  0  0  0  0  0  0
  -49.9053  -29.8156    7.0067 H   0  0  0  0  0  0  0  0  0  0  0  0
  1  6  1  0  0  0  0
  1 21  3  0  0  0  0
  2  3  2  0  0  0  0
  2  6  1  0  0  0  0
  3  7  1  0  0  0  0
  4  8  1  0  0  0  0
  4  9  2  0  0  0  0
  5  6  2  0  0  0  0
  5 22  1  0  0  0  0
  7 10  1  0  0  0  0
  7 22  2  0  0  0  0
  8 20  1  0  0  0  0
  8 23  2  0  0  0  0
  9 19  1  0  0  0  0
  9 28  1  0  0  0  0
 10 25  1  0  0  0  0
 10 26  2  0  0  0  0
 11 19  1  0  0  0  0
 11 24  1  0  0  0  0
 11 27  2  0  0  0  0
 12 14  1  0  0  0  0
 12 24  1  0  0  0  0
 13 15  1  0  0  0  0
 13 24  1  0  0  0  0
 14 15  1  0  0  0  0
 14 16  1  0  0  0  0
 15 25  1  0  0  0  0
 17 20  1  0  0  0  0
 18 20  1  0  0  0  0
 23 28  1  0  0  0  0
  2 29  1  0  0  0  0
  3 30  1  0  0  0  0
  4 31  1  0  0  0  0
  5 32  1  0  0  0  0
 12 33  1  0  0  0  0
 12 34  1  0  0  0  0
 13 35  1  0  0  0  0
 13 36  1  0  0  0  0
 14 37  1  0  0  0  0
 15 38  1  0  0  0  0
 16 39  1  0  0  0  0
 16 40  1  0  0  0  0
 16 41  1  0  0  0  0
 17 42  1  0  0  0  0
 17 43  1  0  0  0  0
 17 44  1  0  0  0  0
 18 45  1  0  0  0  0
 18 46  1  0  0  0  0
 18 47  1  0  0  0  0
 19 48  1  0  0  0  0
 19 49  1  0  0  0  0
 20 50  1  0  0  0  0
 25 51  1  0  0  0  0
M  END
> <POSIT::Probability>
0.42

> <POSIT::Method>
HYBRID

> <ReceptorTitle>
UCSF-P4578-REFINED_LIGAND-BOUND-STATE_A__DU__LA1_A-201(A)

> <OMEGA_C>
FxcxwthR6sGUl5ZADl85wlAY58GEnr5AXOw+wn5x58GY0cBA50xdwjB9z8GH7jFBjeY5whZQ7sHY
pHBAqsc2wliU6sEMzZlABq5BwpZQ68Hrm51Abctgwivy0sFSIUJBZQZcwoy02MHLOSdB8pxHwt7d
68EkJ55AdKRawpbB5MHmYwhB0QdXwlom9sHcL/JAWvpRwv7j5cG4A+pApHNRwhTi+MGQHOFADL1P
wsta7sGHqstAbINRwiggAcJ/KsNAPlFnwmz5w8HAHUlBSnhfwjjDxsEw1mFB84tYwtgp28FEXBRB
rnNjwgppzMHGlFJB73UswhIc6sFc+5NAZU0/wh7F7sF+mHJA059hwmR/3cHEhUFBfdZWwvGv6sF3
EPtATvtJwnpz7cGQ9MVANxVKwmwU68Emp3hAe3NfwlTj5sHijghBiJVewhwg4cEpYjBB3R03wi8W
5MES09lAOv1Awmq+5MFrYN1Avelbwrh8x8GOfy5Bbx84wnon8cHWazVATypawlR998G2Q9pAKQVY
wu+k+sHglAdBJVBPwjRY5MHYlwJB/N1SwhZM3sFmGNpAV9ROwgSY+sFcY/xAdY5RwraO7cEUCaxA
CB5UwgBNAMJq7adAlPtSwr+uBMImpdNAkHtNwrbtAcJNU7dA1CNlwuqTvsF5ZD5BDpBqwk6nx8G+
6z9BBCRpwr0Yv8E4ulVB07hcwhd2wcE+OllBW6hhwpXqwcHqiW1BHA1dwvWTzMGysWpBFHdUwuvw
3MFZVRlBo2xYws101ME6OwlB0ftlwhZ90cFIKF1B+p5HwlaG7sGwNuBA

> <OMEGA_E>
zPG5wA==

> <OMEGA_NBR>
    152221

$$$$
CACHE3HI_1709_32
  -OEChem-03092622533D

 52 55  0     1  0  0  0  0  0999 V2000
  -55.0264  -25.2659   12.8648 C   0  0  0  0  0  0  0  0  0  0  0  0
  -54.0692  -26.1633   10.8015 C   0  0  0  0  0  0  0  0  0  0  0  0
  -54.1524  -27.0037    9.6913 C   0  0  0  0  0  0  0  0  0  0  0  0
  -56.2367  -26.9306   11.5434 C   0  0  0  0  0  0  0  0  0  0  0  0
  -55.1115  -26.1268   11.7275 C   0  0  0  0  0  0  0  0  0  0  0  0
  -55.2775  -27.8075    9.5072 C   0  0  0  0  0  0  0  0  0  0  0  0
  -56.3200  -27.7710   10.4333 C   0  0  0  0  0  0  0  0  0  0  0  0
  -47.5250  -29.2555    5.7966 C   0  0  0  0  0  0  0  0  0  0  0  0
  -45.4660  -29.4447    5.7438 C   0  0  0  0  0  0  0  0  0  0  0  0
  -55.3385  -28.6872    8.3234 C   0  0  0  0  0  0  0  0  0  0  0  0
  -51.0427  -30.7553    5.3055 C   0  0  0  0  0  0  0  0  0  0  0  0
  -52.8510  -29.4586    8.4142 C   0  0  0  0  0  0  0  0  0  0  0  0
  -53.8100  -29.6645    6.5171 C   0  0  0  0  0  0  0  0  0  0  0  0
  -49.0105  -29.1765    5.3938 C   0  0  2  0  0  0  0  0  0  0  0  0
  -49.6801  -30.4302    4.8619 C   0  0  2  0  0  0  0  0  0  0  0  0
  -52.6252  -30.3697    7.1965 C   0  0  0  0  0  0  0  0  0  0  0  0
  -49.4224  -29.2659    3.9276 C   0  0  0  0  0  0  0  0  0  0  0  0
  -57.5361  -28.6213   10.2601 C   0  0  0  0  0  0  0  0  0  0  0  0
  -44.1068  -29.6360    5.2260 C   0  0  0  0  0  0  0  0  0  0  0  0
  -48.3758  -29.4601    2.8575 C   0  0  0  0  0  0  0  0  0  0  0  0
  -50.5708  -28.3913    3.4868 C   0  0  0  0  0  0  0  0  0  0  0  0
  -54.9571  -24.5666   13.7884 N   0  0  0  0  0  0  0  0  0  0  0  0
  -46.5630  -29.4591    4.9324 N   0  0  0  0  0  0  0  0  0  0  0  0
  -45.7065  -29.2450    7.0430 N   0  0  0  0  0  0  0  0  0  0  0  0
  -54.1474  -29.1562    7.8353 N   0  0  0  0  0  0  0  0  0  0  0  0
  -51.3460  -30.1830    6.5289 N   0  0  0  0  0  0  0  0  0  0  0  0
  -56.4402  -28.9638    7.8574 O   0  0  0  0  0  0  0  0  0  0  0  0
  -51.7872  -31.4730    4.6420 O   0  0  0  0  0  0  0  0  0  0  0  0
  -47.1007  -29.1166    7.0800 O   0  0  0  0  0  0  0  0  0  0  0  0
  -53.1856  -25.5428   10.9312 H   0  0  0  0  0  0  0  0  0  0  0  0
  -53.3338  -27.0236    8.9762 H   0  0  0  0  0  0  0  0  0  0  0  0
  -57.0525  -26.9057   12.2632 H   0  0  0  0  0  0  0  0  0  0  0  0
  -52.8967  -29.9796    9.3738 H   0  0  0  0  0  0  0  0  0  0  0  0
  -52.2093  -28.5754    8.4893 H   0  0  0  0  0  0  0  0  0  0  0  0
  -53.5660  -28.8647    5.8115 H   0  0  0  0  0  0  0  0  0  0  0  0
  -54.5652  -30.3304    6.0921 H   0  0  0  0  0  0  0  0  0  0  0  0
  -49.5977  -28.5316    6.0393 H   0  0  0  0  0  0  0  0  0  0  0  0
  -49.0522  -31.3080    4.7373 H   0  0  0  0  0  0  0  0  0  0  0  0
  -52.8104  -31.4294    7.4046 H   0  0  0  0  0  0  0  0  0  0  0  0
  -58.3065  -28.0979    9.6807 H   0  0  0  0  0  0  0  0  0  0  0  0
  -57.9824  -28.8758   11.2295 H   0  0  0  0  0  0  0  0  0  0  0  0
  -57.2780  -29.5506    9.7392 H   0  0  0  0  0  0  0  0  0  0  0  0
  -43.6253  -28.6817    4.9379 H   0  0  0  0  0  0  0  0  0  0  0  0
  -44.0860  -30.2659    4.3157 H   0  0  0  0  0  0  0  0  0  0  0  0
  -43.4515  -30.1200    5.9736 H   0  0  0  0  0  0  0  0  0  0  0  0
  -48.8388  -29.5029    1.8664 H   0  0  0  0  0  0  0  0  0  0  0  0
  -47.8257  -30.3929    3.0190 H   0  0  0  0  0  0  0  0  0  0  0  0
  -47.6568  -28.6335    2.8641 H   0  0  0  0  0  0  0  0  0  0  0  0
  -50.7804  -28.5351    2.4219 H   0  0  0  0  0  0  0  0  0  0  0  0
  -50.3373  -27.3342    3.6501 H   0  0  0  0  0  0  0  0  0  0  0  0
  -51.4794  -28.6318    4.0498 H   0  0  0  0  0  0  0  0  0  0  0  0
  -50.6418  -29.6283    7.0062 H   0  0  0  0  0  0  0  0  0  0  0  0
  1  5  1  0  0  0  0
  1 22  3  0  0  0  0
  2  3  2  0  0  0  0
  2  5  1  0  0  0  0
  3  6  1  0  0  0  0
  4  5  2  0  0  0  0
  4  7  1  0  0  0  0
  6  7  2  0  0  0  0
  6 10  1  0  0  0  0
  7 18  1  0  0  0  0
  8 14  1  0  0  0  0
  8 23  2  0  0  0  0
  8 29  1  0  0  0  0
  9 19  1  0  0  0  0
  9 23  1  0  0  0  0
  9 24  2  0  0  0  0
 10 25  1  0  0  0  0
 10 27  2  0  0  0  0
 11 15  1  0  0  0  0
 11 26  1  0  0  0  0
 11 28  2  0  0  0  0
 12 16  1  0  0  0  0
 12 25  1  0  0  0  0
 13 16  1  0  0  0  0
 13 25  1  0  0  0  0
 14 15  1  0  0  0  0
 14 17  1  0  0  0  0
 15 17  1  0  0  0  0
 16 26  1  0  0  0  0
 17 20  1  0  0  0  0
 17 21  1  0  0  0  0
 24 29  1  0  0  0  0
  2 30  1  0  0  0  0
  3 31  1  0  0  0  0
  4 32  1  0  0  0  0
 12 33  1  0  0  0  0
 12 34  1  0  0  0  0
 13 35  1  0  0  0  0
 13 36  1  0  0  0  0
 14 37  1  0  0  0  0
 15 38  1  0  0  0  0
 16 39  1  0  0  0  0
 18 40  1  0  0  0  0
 18 41  1  0  0  0  0
 18 42  1  0  0  0  0
 19 43  1  0  0  0  0
 19 44  1  0  0  0  0
 19 45  1  0  0  0  0
 20 46  1  0  0  0  0
 20 47  1  0  0  0  0
 20 48  1  0  0  0  0
 21 49  1  0  0  0  0
 21 50  1  0  0  0  0
 21 51  1  0  0  0  0
 26 52  1  0  0  0  0
M  END
> <POSIT::Probability>
0.33

> <POSIT::Method>
HYBRID

> <ReceptorTitle>
UCSF-P4578-REFINED_LIGAND-BOUND-STATE_A__DU__LA1_A-201(A)

> <OMEGA_C>
/hpcwocgysEU1k1B0EZYwnpO0cHO0ixBC5xYwpMH2MFvDxtBYvJgwuhx18HlsThBOnJcwqMD0cHD
oztBMxxdwth13sGQHRhBpkdhwvcq3sG67iZBohk+wkYL6sEPfrlAJ901wsCO68FgzbdArFpdwk5/
5cGSLAVBvitMwvIK9sHaxqlAaWdTwjOr68GSoAZBdz1XwvNQ7cFejNBAugpEwnZp6cEOmqxAZLhG
wg1x88H0lJtAMIBSwjb18sGwSeZAjbBFwnsg6sFgXXtA7CRmwn345MEyKSRBVm0wwm4W7cH9OqdA
0IBBwl2u68EW4jZAh0hKwnQh48GiJ19AE9RbwlKIxMEcnVxBfkA6wkys68F41p1AetM2wtj16cFE
YOFA9pZYwsw/6cGguvpAUGJNwth28cHY7NBAxsJhwuC158F2b/tAGSZPwsPI+8F3i5RAGmc8wuTu
6MEMj+JAFb5UwrBXzMEL5i5Bx1VVwlQw2MGxng9BwDVkwtI+18E0NkRBPZZTwjbW78FB+xVBVNZQ
wnKa5MEw1AdBi0NWwu7q5sHt97lAuUJawpOk8sEu8sJAEGRGwspA5MH+QcFAfDVEwr92+sHgl5dA
2D1Twn5v+8HW8uxA5DlpwoPI4MHy4xpB7u1nwrAB58HlqzNBuRxlwqtn7MHW0xtBTIAuwhh05cFQ
A55AEFgwwo8g8sGAGopAYM4twsv18MF/J79A8VpDwt4F7MFU5u4/gk0/wpAk88EaN0FAkqA+wlwR
5cHWTDdAGh9LwuRH5MEbABtAX1lJwoOs2sE2m2lA7+pNwuYN5cFZmIFANZFKwrwG7cFxMuBA

> <OMEGA_E>
OqemwA==

> <OMEGA_NBR>
    153763

$$$$
CACHE3HI_1709_47
  -OEChem-03092622533D

 49 51  0     1  0  0  0  0  0999 V2000
  -45.6476  -29.1992    5.5025 C   0  0  0  0  0  0  0  0  0  0  0  0
  -54.8353  -25.0098   11.1376 C   0  0  0  0  0  0  0  0  0  0  0  0
  -55.8103  -24.6287   12.0595 C   0  0  0  0  0  0  0  0  0  0  0  0
  -54.5740  -26.3623   10.9187 C   0  0  0  0  0  0  0  0  0  0  0  0
  -47.9987  -29.7558    6.1979 C   0  0  0  0  0  0  0  0  0  0  0  0
  -47.0120  -29.5124    5.2677 C   0  0  0  0  0  0  0  0  0  0  0  0
  -49.1946  -30.0220    5.4864 C   0  0  0  0  0  0  0  0  0  0  0  0
  -56.5240  -25.5998   12.7621 C   0  0  0  0  0  0  0  0  0  0  0  0
  -55.2877  -27.3334   11.6213 C   0  0  0  0  0  0  0  0  0  0  0  0
  -56.2627  -26.9523   12.5432 C   0  0  0  0  0  0  0  0  0  0  0  0
  -48.9026  -29.9328    4.1432 C   0  0  0  0  0  0  0  0  0  0  0  0
  -50.5318  -30.3408    6.0481 C   0  0  0  0  0  0  0  0  0  0  0  0
  -55.0440  -29.1783    9.0817 C   0  0  0  0  0  0  0  0  0  0  0  0
  -51.6726  -30.6223    9.6436 C   0  0  0  0  0  0  0  0  0  0  0  0
  -53.1034  -30.4366   10.1337 C   0  0  0  0  0  0  0  0  0  0  0  0
  -52.9407  -29.6838    7.8533 C   0  0  0  0  0  0  0  0  0  0  0  0
  -51.8428  -30.7009    8.1298 C   0  0  1  0  0  0  0  0  0  0  0  0
  -57.5657  -25.1885   13.7470 C   0  0  0  0  0  0  0  0  0  0  0  0
  -49.7519  -30.1114    2.9491 C   0  0  0  0  0  0  0  0  0  0  0  0
  -55.7743  -29.3116   10.3938 C   0  0  0  0  0  0  0  0  0  0  0  0
  -44.5321  -28.9433    5.6947 N   0  0  0  0  0  0  0  0  0  0  0  0
  -47.5733  -29.6227    4.0222 N   0  0  0  0  0  0  0  0  0  0  0  0
  -53.7798  -29.7385    9.0437 N   0  0  0  0  0  0  0  0  0  0  0  0
  -50.6223  -30.3833    7.4368 N   0  0  0  0  0  0  0  0  0  0  0  0
  -51.4660  -30.5654    5.2832 O   0  0  0  0  0  0  0  0  0  0  0  0
  -55.5708  -28.5978    8.1304 O   0  0  0  0  0  0  0  0  0  0  0  0
  -55.0289  -28.6664   11.4041 O   0  0  0  0  0  0  0  0  0  0  0  0
  -56.9470  -27.8881   13.2172 F   0  0  0  0  0  0  0  0  0  0  0  0
  -54.2800  -24.2540   10.5899 H   0  0  0  0  0  0  0  0  0  0  0  0
  -56.0066  -23.5727   12.2241 H   0  0  0  0  0  0  0  0  0  0  0  0
  -53.8133  -26.6532   10.1995 H   0  0  0  0  0  0  0  0  0  0  0  0
  -47.8729  -29.7433    7.2726 H   0  0  0  0  0  0  0  0  0  0  0  0
  -51.0684  -29.7511    9.9261 H   0  0  0  0  0  0  0  0  0  0  0  0
  -51.2058  -31.5196   10.0605 H   0  0  0  0  0  0  0  0  0  0  0  0
  -53.6047  -31.4001   10.2766 H   0  0  0  0  0  0  0  0  0  0  0  0
  -53.1591  -29.8634   11.0630 H   0  0  0  0  0  0  0  0  0  0  0  0
  -52.5561  -28.6601    7.7749 H   0  0  0  0  0  0  0  0  0  0  0  0
  -53.5253  -29.9112    6.9566 H   0  0  0  0  0  0  0  0  0  0  0  0
  -52.1498  -31.6926    7.8276 H   0  0  0  0  0  0  0  0  0  0  0  0
  -58.5504  -25.0949   13.2706 H   0  0  0  0  0  0  0  0  0  0  0  0
  -57.3321  -24.2108   14.1889 H   0  0  0  0  0  0  0  0  0  0  0  0
  -57.6396  -25.9264   14.5553 H   0  0  0  0  0  0  0  0  0  0  0  0
  -50.2218  -29.1654    2.6298 H   0  0  0  0  0  0  0  0  0  0  0  0
  -50.5806  -30.8169    3.1327 H   0  0  0  0  0  0  0  0  0  0  0  0
  -49.1658  -30.4975    2.0990 H   0  0  0  0  0  0  0  0  0  0  0  0
  -55.9007  -30.3626   10.6382 H   0  0  0  0  0  0  0  0  0  0  0  0
  -56.7496  -28.8410   10.3078 H   0  0  0  0  0  0  0  0  0  0  0  0
  -47.0823  -29.4954    3.1474 H   0  0  0  0  0  0  0  0  0  0  0  0
  -49.7813  -30.2454    7.9974 H   0  0  0  0  0  0  0  0  0  0  0  0
  1  6  1  0  0  0  0
  1 21  3  0  0  0  0
  2  3  2  0  0  0  0
  2  4  1  0  0  0  0
  3  8  1  0  0  0  0
  4  9  2  0  0  0  0
  5  6  2  0  0  0  0
  5  7  1  0  0  0  0
  6 22  1  0  0  0  0
  7 11  2  0  0  0  0
  7 12  1  0  0  0  0
  8 10  2  0  0  0  0
  8 18  1  0  0  0  0
  9 10  1  0  0  0  0
  9 27  1  0  0  0  0
 10 28  1  0  0  0  0
 11 19  1  0  0  0  0
 11 22  1  0  0  0  0
 12 24  1  0  0  0  0
 12 25  2  0  0  0  0
 13 20  1  0  0  0  0
 13 23  1  0  0  0  0
 13 26  2  0  0  0  0
 14 15  1  0  0  0  0
 14 17  1  0  0  0  0
 15 23  1  0  0  0  0
 16 17  1  0  0  0  0
 16 23  1  0  0  0  0
 17 24  1  0  0  0  0
 20 27  1  0  0  0  0
  2 29  1  0  0  0  0
  3 30  1  0  0  0  0
  4 31  1  0  0  0  0
  5 32  1  0  0  0  0
 14 33  1  0  0  0  0
 14 34  1  0  0  0  0
 15 35  1  0  0  0  0
 15 36  1  0  0  0  0
 16 37  1  0  0  0  0
 16 38  1  0  0  0  0
 17 39  1  0  0  0  0
 18 40  1  0  0  0  0
 18 41  1  0  0  0  0
 18 42  1  0  0  0  0
 19 43  1  0  0  0  0
 19 44  1  0  0  0  0
 19 45  1  0  0  0  0
 20 46  1  0  0  0  0
 20 47  1  0  0  0  0
 22 48  1  0  0  0  0
 24 49  1  0  0  0  0
M  END
> <POSIT::Probability>
0.23

> <POSIT::Method>
HYBRID

> <ReceptorTitle>
UCSF-P4578-REFINED_LIGAND-BOUND-STATE_A__DU__LA1_A-201(A)

> <OMEGA_C>
Kpc2wgiY6cHCFLBAXVdbwiAUyMGUMzJBvz1fwqAHxcGc80BBy0tawgrm0sH4si5Bof4/wsoL7sFh
VcZAVgw8wlQZ7MHzkKhASMdEwhIt8MEwkK9AlxhiwlfMzMGEMUxBoyZdwsKq2sHh8DlB/Axhwlue
18HQsEhBQJxDwnR278G6lIRAkyBKwui58sEGisFAGy1cwjBt6cGpThFBtbBOwmT69MFaTBpB7WlU
wjp+88F3IyJBQsNTwmJ47cEFTvtAD19PwmKb9cGSEwJBRUNmwg2CycGj81tB7gFHwibk8MGgvTxA
2Rhfwj9+6sHkTCZB2yAywtKL58HpOrZAHEs+wlv77MGItYBAjB5XwmLo7cETsxBBPH1KwgwR88Fb
+u1ANN1Nwv6F9MGqD6lAh0hewknI5MH+FQJBjh1cwuBU5cEGdzZBwMljwuwa38GceVNBsB5ZwhoI
wsEdcClBzwZgwt6UvMEUlkNByEBXwq451cEVMSNBz30/wkjy7cFEuehABEZMwj8C7sFu0R5BuNJM
wjoo/MHE9yBBLmtWwmgz+8HBbCRB9qJUwjfo7sEeAjFBczlSws9H5cEQzPhA9BlWwidK78EsnN5A
aplQwmWK/cGae/pAnjNqwlbCyMFbVFRBHVRlwq6vwcGiBWNB545mwlRpz8GE4mhBJuNIwrBS6cHY
TShAglJKwuyI9sGEfkhAwKlEwvD688HUVQZATJpfwo7m8sElNipBpP9iwmy65sGu7CRBSVQ8woH2
68FKb0lAASBHwo728cGN6v9A

> <OMEGA_E>
7iXNwA==

> <OMEGA_NBR>
    155242

$$$$
CACHE3HI_1709_50
  -OEChem-03092622533D

 45 48  0     0  0  0  0  0  0999 V2000
  -56.6631  -25.1740   13.5673 C   0  0  0  0  0  0  0  0  0  0  0  0
  -47.7125  -29.6975    3.5202 C   0  0  0  0  0  0  0  0  0  0  0  0
  -46.3590  -29.6518    3.1526 C   0  0  0  0  0  0  0  0  0  0  0  0
  -55.3333  -25.7383   11.6122 C   0  0  0  0  0  0  0  0  0  0  0  0
  -47.0788  -29.6475    5.8811 C   0  0  0  0  0  0  0  0  0  0  0  0
  -57.1251  -27.2361   12.2884 C   0  0  0  0  0  0  0  0  0  0  0  0
  -50.0568  -30.1219    6.4368 C   0  0  0  0  0  0  0  0  0  0  0  0
  -56.3762  -26.0574   12.4889 C   0  0  0  0  0  0  0  0  0  0  0  0
  -48.0794  -29.7033    4.8835 C   0  0  0  0  0  0  0  0  0  0  0  0
  -55.0503  -26.6096   10.5542 C   0  0  0  0  0  0  0  0  0  0  0  0
  -45.3623  -29.5982    4.1439 C   0  0  0  0  0  0  0  0  0  0  0  0
  -45.7200  -29.5837    5.5078 C   0  0  0  0  0  0  0  0  0  0  0  0
  -49.5015  -29.7946    5.2290 C   0  0  0  0  0  0  0  0  0  0  0  0
  -55.8241  -27.7972   10.4206 C   0  0  0  0  0  0  0  0  0  0  0  0
  -55.4627  -28.8159    9.4424 C   0  0  0  0  0  0  0  0  0  0  0  0
  -53.6517  -29.8690    7.1443 C   0  0  0  0  0  0  0  0  0  0  0  0
  -52.1935  -30.4453    8.5205 C   0  0  0  0  0  0  0  0  0  0  0  0
  -52.3963  -30.7324    7.0275 C   0  0  0  0  0  0  0  0  0  0  0  0
  -53.7193  -30.3583    8.5963 C   0  0  0  0  0  0  0  0  0  0  0  0
  -53.8905  -26.2821    9.6278 C   0  0  0  0  0  0  0  0  0  0  0  0
  -56.8708  -24.4268   14.4368 N   0  0  0  0  0  0  0  0  0  0  0  0
  -56.8447  -28.0756   11.2675 N   0  0  0  0  0  0  0  0  0  0  0  0
  -50.5495  -29.6154    4.3054 N   0  0  0  0  0  0  0  0  0  0  0  0
  -51.6807  -29.8437    4.8661 N   0  0  0  0  0  0  0  0  0  0  0  0
  -51.3857  -30.1774    6.1346 N   0  0  0  0  0  0  0  0  0  0  0  0
  -54.1992  -29.3649    9.5274 N   0  0  0  0  0  0  0  0  0  0  0  0
  -56.3083  -29.2718    8.6795 O   0  0  0  0  0  0  0  0  0  0  0  0
  -44.0601  -29.5643    3.7821 F   0  0  0  0  0  0  0  0  0  0  0  0
  -44.7581  -29.5098    6.4568 F   0  0  0  0  0  0  0  0  0  0  0  0
  -48.4764  -29.7284    2.7574 H   0  0  0  0  0  0  0  0  0  0  0  0
  -46.0826  -29.6579    2.1086 H   0  0  0  0  0  0  0  0  0  0  0  0
  -54.7569  -24.8354   11.7496 H   0  0  0  0  0  0  0  0  0  0  0  0
  -47.3540  -29.6536    6.9254 H   0  0  0  0  0  0  0  0  0  0  0  0
  -57.9358  -27.4712   12.9620 H   0  0  0  0  0  0  0  0  0  0  0  0
  -49.5683  -30.2924    7.3849 H   0  0  0  0  0  0  0  0  0  0  0  0
  -53.4854  -28.7882    7.0252 H   0  0  0  0  0  0  0  0  0  0  0  0
  -54.4926  -30.1829    6.5084 H   0  0  0  0  0  0  0  0  0  0  0  0
  -51.7453  -31.2688    9.0958 H   0  0  0  0  0  0  0  0  0  0  0  0
  -51.6623  -29.5088    8.7461 H   0  0  0  0  0  0  0  0  0  0  0  0
  -52.6280  -31.7895    6.8304 H   0  0  0  0  0  0  0  0  0  0  0  0
  -54.2005  -31.3426    8.6940 H   0  0  0  0  0  0  0  0  0  0  0  0
  -52.9649  -26.7205   10.0292 H   0  0  0  0  0  0  0  0  0  0  0  0
  -54.0901  -26.6981    8.6293 H   0  0  0  0  0  0  0  0  0  0  0  0
  -53.7771  -25.1904    9.5543 H   0  0  0  0  0  0  0  0  0  0  0  0
  -53.5925  -29.0627   10.2626 H   0  0  0  0  0  0  0  0  0  0  0  0
  1  8  1  0  0  0  0
  1 21  3  0  0  0  0
  2  3  2  0  0  0  0
  2  9  1  0  0  0  0
  3 11  1  0  0  0  0
  4  8  2  0  0  0  0
  4 10  1  0  0  0  0
  5  9  2  0  0  0  0
  5 12  1  0  0  0  0
  6  8  1  0  0  0  0
  6 22  2  0  0  0  0
  7 13  2  0  0  0  0
  7 25  1  0  0  0  0
  9 13  1  0  0  0  0
 10 14  2  0  0  0  0
 10 20  1  0  0  0  0
 11 12  2  0  0  0  0
 11 28  1  0  0  0  0
 12 29  1  0  0  0  0
 13 23  1  0  0  0  0
 14 15  1  0  0  0  0
 14 22  1  0  0  0  0
 15 26  1  0  0  0  0
 15 27  2  0  0  0  0
 16 18  1  0  0  0  0
 16 19  1  0  0  0  0
 17 18  1  0  0  0  0
 17 19  1  0  0  0  0
 18 25  1  0  0  0  0
 19 26  1  0  0  0  0
 23 24  2  0  0  0  0
 24 25  1  0  0  0  0
  2 30  1  0  0  0  0
  3 31  1  0  0  0  0
  4 32  1  0  0  0  0
  5 33  1  0  0  0  0
  6 34  1  0  0  0  0
  7 35  1  0  0  0  0
 16 36  1  0  0  0  0
 16 37  1  0  0  0  0
 17 38  1  0  0  0  0
 17 39  1  0  0  0  0
 18 40  1  0  0  0  0
 19 41  1  0  0  0  0
 20 42  1  0  0  0  0
 20 43  1  0  0  0  0
 20 44  1  0  0  0  0
 26 45  1  0  0  0  0
M  END
> <POSIT::Probability>
0.5

> <POSIT::Method>
SHAPEFIT

> <ReceptorTitle>
UCSF-P4578-REFINED_LIGAND-BOUND-STATE_A__DU__LA1_A-201(A)

> <OMEGA_C>
DqdiwlZkycGKE1lBodk+wpGU7cFmS2FAqm85wvg27cFiw0lAV1VdwiDozcF+yzlBp1A8wgUu7cHr
MbxAD4Bkwnjj2cEanURBIjpIwr358MGH+s1ANYFhwnh10MGS0kdBTVFAwmCg7cFXRZxAezNcwobg
1MHs3ShB+nI1whHJ7MHDmoRAVOE2woSr7MHjP7BAfgFGwlFb7sFfVKdA5Utfwp9g3sGguiZBxdld
wumG5sEyFBdBY5tWwsDz7sFtnuRAGMZQwv6P88HoUwhB15VRwu7b9cGf4eBAiuBWws/d8sFWiglB
1o9XwrNB0sGUCxpBv3tjwglqw8H4/GZB9GBjwuCa4MF6RzRBvTJKwlrs7MG/xYlA/7hOwt+/7sFf
t5tA9IpNwj1r8cHpTsRABsxYwk/r6sEIcBhBszthwpws6sFY3wpBhD0wwp6D7MGWDnJASwgzwisU
7MFrns5A4udBws/T7cGQeTBAjlQ4wk5D7cGR8gZAEAdbwviuxsEz/jtBemo9wpE67cELnd1AS75n
whDF28EyZE9B+EVGwuBW8sHNUOxAEfFVwkFO5sG7zuBAc/hZwoR28cHXRNBANPtOwoAm+sGTiBFB
OqZOwhYS7MEy8AtBF4NSwtxQ/sF+ktpAQ81Ywr29+sF1GgtBBNxTwoHD1cF8dyBBSlxYwrOV1cGX
EQpByRtXwvWFycFN3hhBw15WwnyA6MGtMyRB

> <OMEGA_E>
9HNfPw==

> <OMEGA_NBR>
    156664

$$$$
CACHE3HI_1709_59
  -OEChem-03092622533D

 52 55  0     1  0  0  0  0  0999 V2000
  -41.3092  -30.5142    1.6795 C   0  0  0  0  0  0  0  0  0  0  0  0
  -53.6485  -28.3625    8.0327 C   0  0  0  0  0  0  0  0  0  0  0  0
  -52.7454  -29.1997    7.3774 C   0  0  0  0  0  0  0  0  0  0  0  0
  -54.3664  -27.4100    7.3096 C   0  0  0  0  0  0  0  0  0  0  0  0
  -43.7510  -30.0022    1.3693 C   0  0  0  0  0  0  0  0  0  0  0  0
  -42.4139  -29.6709    1.3907 C   0  0  0  0  0  0  0  0  0  0  0  0
  -44.4718  -28.8303    1.0305 C   0  0  0  0  0  0  0  0  0  0  0  0
  -52.5606  -29.0847    5.9995 C   0  0  0  0  0  0  0  0  0  0  0  0
  -53.2786  -28.1322    5.2765 C   0  0  0  0  0  0  0  0  0  0  0  0
  -54.1816  -27.2951    5.9317 C   0  0  0  0  0  0  0  0  0  0  0  0
  -43.5534  -27.8187    0.8556 C   0  0  0  0  0  0  0  0  0  0  0  0
  -45.9286  -28.6826    0.8841 C   0  0  0  0  0  0  0  0  0  0  0  0
  -50.1923  -29.4548    5.2507 C   0  0  0  0  0  0  0  0  0  0  0  0
  -52.0582  -30.8231    4.1715 C   0  0  0  0  0  0  0  0  0  0  0  0
  -51.7443  -31.4685    5.4849 C   0  0  0  0  0  0  0  0  0  0  0  0
  -47.3155  -29.7602    4.1299 C   0  0  0  0  0  0  0  0  0  0  0  0
  -46.1298  -29.3741    3.2576 C   0  0  0  0  0  0  0  0  0  0  0  0
  -48.1689  -28.8355    2.1004 C   0  0  0  0  0  0  0  0  0  0  0  0
  -48.4280  -28.8570    3.6021 C   0  0  1  0  0  0  0  0  0  0  0  0
  -51.5998  -29.9822    5.3277 C   0  0  0  0  0  0  0  0  0  0  0  0
  -53.0954  -27.9911    3.8006 C   0  0  0  0  0  0  0  0  0  0  0  0
  -43.7283  -26.3973    0.4976 C   0  0  0  0  0  0  0  0  0  0  0  0
  -40.4060  -31.2036    1.9157 N   0  0  0  0  0  0  0  0  0  0  0  0
  -42.3061  -28.3411    1.0770 N   0  0  0  0  0  0  0  0  0  0  0  0
  -46.7161  -28.9622    1.9901 N   0  0  0  0  0  0  0  0  0  0  0  0
  -49.7414  -29.3203    3.9418 N   0  0  0  0  0  0  0  0  0  0  0  0
  -46.3521  -28.3307   -0.2150 O   0  0  0  0  0  0  0  0  0  0  0  0
  -49.5387  -29.2001    6.2594 O   0  0  0  0  0  0  0  0  0  0  0  0
  -54.8764  -26.3754    5.2474 F   0  0  0  0  0  0  0  0  0  0  0  0
  -53.7922  -28.4530    9.1054 H   0  0  0  0  0  0  0  0  0  0  0  0
  -52.1905  -29.9383    7.9498 H   0  0  0  0  0  0  0  0  0  0  0  0
  -55.0698  -26.7580    7.8191 H   0  0  0  0  0  0  0  0  0  0  0  0
  -44.1644  -30.9808    1.5751 H   0  0  0  0  0  0  0  0  0  0  0  0
  -51.3819  -31.0111    3.3453 H   0  0  0  0  0  0  0  0  0  0  0  0
  -53.0999  -30.7618    3.8780 H   0  0  0  0  0  0  0  0  0  0  0  0
  -52.5751  -31.8409    6.0735 H   0  0  0  0  0  0  0  0  0  0  0  0
  -50.8570  -32.0891    5.5403 H   0  0  0  0  0  0  0  0  0  0  0  0
  -47.5619  -30.8178    3.9740 H   0  0  0  0  0  0  0  0  0  0  0  0
  -47.1167  -29.6014    5.1939 H   0  0  0  0  0  0  0  0  0  0  0  0
  -45.5914  -28.5134    3.6697 H   0  0  0  0  0  0  0  0  0  0  0  0
  -45.4206  -30.1939    3.1095 H   0  0  0  0  0  0  0  0  0  0  0  0
  -48.6113  -29.6968    1.5862 H   0  0  0  0  0  0  0  0  0  0  0  0
  -48.5199  -27.9147    1.6247 H   0  0  0  0  0  0  0  0  0  0  0  0
  -48.3181  -27.8473    4.0143 H   0  0  0  0  0  0  0  0  0  0  0  0
  -53.7926  -28.6356    3.2511 H   0  0  0  0  0  0  0  0  0  0  0  0
  -52.0824  -28.2841    3.4977 H   0  0  0  0  0  0  0  0  0  0  0  0
  -53.2650  -26.9522    3.4949 H   0  0  0  0  0  0  0  0  0  0  0  0
  -43.8533  -25.7581    1.3884 H   0  0  0  0  0  0  0  0  0  0  0  0
  -44.6263  -26.2346   -0.1231 H   0  0  0  0  0  0  0  0  0  0  0  0
  -42.8591  -26.0199   -0.0658 H   0  0  0  0  0  0  0  0  0  0  0  0
  -41.4392  -27.8240    1.0174 H   0  0  0  0  0  0  0  0  0  0  0  0
  -50.3692  -29.5924    3.1836 H   0  0  0  0  0  0  0  0  0  0  0  0
  1  6  1  0  0  0  0
  1 23  3  0  0  0  0
  2  3  1  0  0  0  0
  2  4  2  0  0  0  0
  3  8  2  0  0  0  0
  4 10  1  0  0  0  0
  5  6  2  0  0  0  0
  5  7  1  0  0  0  0
  6 24  1  0  0  0  0
  7 11  2  0  0  0  0
  7 12  1  0  0  0  0
  8  9  1  0  0  0  0
  8 20  1  0  0  0  0
  9 10  2  0  0  0  0
  9 21  1  0  0  0  0
 10 29  1  0  0  0  0
 11 22  1  0  0  0  0
 11 24  1  0  0  0  0
 12 25  1  0  0  0  0
 12 27  2  0  0  0  0
 13 20  1  0  0  0  0
 13 26  1  0  0  0  0
 13 28  2  0  0  0  0
 14 15  1  0  0  0  0
 14 20  1  0  0  0  0
 15 20  1  0  0  0  0
 16 17  1  0  0  0  0
 16 19  1  0  0  0  0
 17 25  1  0  0  0  0
 18 19  1  0  0  0  0
 18 25  1  0  0  0  0
 19 26  1  0  0  0  0
  2 30  1  0  0  0  0
  3 31  1  0  0  0  0
  4 32  1  0  0  0  0
  5 33  1  0  0  0  0
 14 34  1  0  0  0  0
 14 35  1  0  0  0  0
 15 36  1  0  0  0  0
 15 37  1  0  0  0  0
 16 38  1  0  0  0  0
 16 39  1  0  0  0  0
 17 40  1  0  0  0  0
 17 41  1  0  0  0  0
 18 42  1  0  0  0  0
 18 43  1  0  0  0  0
 19 44  1  0  0  0  0
 21 45  1  0  0  0  0
 21 46  1  0  0  0  0
 21 47  1  0  0  0  0
 22 48  1  0  0  0  0
 22 49  1  0  0  0  0
 22 50  1  0  0  0  0
 24 51  1  0  0  0  0
 26 52  1  0  0  0  0
M  END
> <POSIT::Probability>
0.02

> <POSIT::Method>
FRED

> <ReceptorTitle>
UCSF-P4578-REFINED_LIGAND-BOUND-STATE_A__DU__LA1_A-201(A)

> <OMEGA_C>
njwlwg0d9MHO+NY/CJhWwlDm4sHIhQBBUvtSwuyY6cEFFOxAPHdZwrJH28Fe6OlAAwEvwnME8MEY
Rq8/2KcpwgZe7cGiA7I/GeMxwoik5sEI6IM/CD5Swn6t6ME+/L9ARx1VwskO4cH82KhA8rlYwkVc
2sGX0L1AsTYuwrGM3sE4CVs/7bY3wgJ25cGEU2I/9MRIwmyj68GIBahAkDtQwsCV9sGYfIVAIPpO
wpW/+8EihK9ACEM9wvIU7sFIKIRA7YQ4wjT+6sEWfFBA7axAwhqv5sE8bAZAPrZBwhvb5sEgiWZA
PWZOwojb78HffKpAs2FUwszt38GoPHNAvekuwsAt08EAw/4+s58hwuGg+cF4NPU/bjkpwnm64sFw
2ok/U906wpqy58EKuv4/PvdGwuaP6sHHRXxAiGg5wjil4sGAIly+pCdGwriZ6cGrTMhAc4FbwtIA
08Hm6qdAPStXwqWf48GmrxFBH8NQwouB78H4ZP5AdUdcwk4Q1sFxNvpAX6gwwp3Y98Fcnsk/F4dN
wr0W+MHyGVZAU2ZUwjoY9sE0MXhA7ExSwhu6/sG6WcJAlW1LwkJbAMLsSbFAbj8+wu6K9sG6Vn5A
eXc8wqPP7MFINKZAl102wnEb5MEv3GpAsa41wjGN8cGsAUdA8nFCwgaT7cGkB8s/YhRCwkNR38FU
9s8/v0VBwlPH3sGOdYBAnytXwsIV5cEdElBAZFRQwtJF4sHH2V9AUQ9VwjCe18Gwq19Axmkvwp4Q
zsHQtrE/VYEywovg0cHAA/y9w28rwrso0MHAzIa9ssElwnWX3sGGOYI/E3pJwjC97MGNv0tA

> <OMEGA_E>
KTwdwQ==

> <OMEGA_NBR>
    158202

$$$$
CACHE3HI_1709_77
  -OEChem-03092622533D

 55 58  0     1  0  0  0  0  0999 V2000
  -56.2770  -25.5053   11.8870 C   0  0  0  0  0  0  0  0  0  0  0  0
  -54.4255  -25.8041   10.2255 C   0  0  0  0  0  0  0  0  0  0  0  0
  -54.0649  -26.8317    9.3191 C   0  0  0  0  0  0  0  0  0  0  0  0
  -46.2892  -29.7895    3.7404 C   0  0  0  0  0  0  0  0  0  0  0  0
  -55.5617  -26.2180   10.8857 C   0  0  0  0  0  0  0  0  0  0  0  0
  -48.4665  -29.5167    4.1415 C   0  0  0  0  0  0  0  0  0  0  0  0
  -47.1732  -29.2972    4.6722 C   0  0  0  0  0  0  0  0  0  0  0  0
  -54.9913  -27.8422    9.4532 C   0  0  0  0  0  0  0  0  0  0  0  0
  -48.2811  -30.1275    2.9232 C   0  0  0  0  0  0  0  0  0  0  0  0
  -49.7840  -29.1767    4.7363 C   0  0  0  0  0  0  0  0  0  0  0  0
  -55.0366  -29.1172    8.7231 C   0  0  0  0  0  0  0  0  0  0  0  0
  -52.5286  -29.5052    8.9698 C   0  0  0  0  0  0  0  0  0  0  0  0
  -53.7409  -30.4322    7.0686 C   0  0  0  0  0  0  0  0  0  0  0  0
  -51.5419  -30.1201    8.0315 C   0  0  1  0  0  0  0  0  0  0  0  0
  -52.2836  -30.6881    6.8722 C   0  0  2  0  0  0  0  0  0  0  0  0
  -51.3148  -29.5530    6.6524 C   0  0  0  0  0  0  0  0  0  0  0  0
  -46.8291  -28.6692    5.9612 C   0  0  0  0  0  0  0  0  0  0  0  0
  -50.7011  -30.3701    2.2689 C   0  0  0  0  0  0  0  0  0  0  0  0
  -49.0412  -32.1509    1.6305 C   0  0  0  0  0  0  0  0  0  0  0  0
  -49.0451  -29.9567    0.4614 C   0  0  0  0  0  0  0  0  0  0  0  0
  -57.0310  -28.2468   10.8421 C   0  0  0  0  0  0  0  0  0  0  0  0
  -49.2014  -30.6124    1.8833 C   0  0  0  0  0  0  0  0  0  0  0  0
  -56.8609  -24.9236   12.7040 N   0  0  0  0  0  0  0  0  0  0  0  0
  -55.8962  -27.4583   10.4080 N   0  0  0  0  0  0  0  0  0  0  0  0
  -53.8278  -29.6555    8.3040 N   0  0  0  0  0  0  0  0  0  0  0  0
  -50.0877  -29.7631    5.9705 N   0  0  0  0  0  0  0  0  0  0  0  0
  -50.5428  -28.4283    4.1260 O   0  0  0  0  0  0  0  0  0  0  0  0
  -56.1430  -29.6131    8.5241 O   0  0  0  0  0  0  0  0  0  0  0  0
  -46.9567  -30.2978    2.6715 O   0  0  0  0  0  0  0  0  0  0  0  0
  -53.9076  -24.8662   10.3750 H   0  0  0  0  0  0  0  0  0  0  0  0
  -53.2201  -26.8302    8.6439 H   0  0  0  0  0  0  0  0  0  0  0  0
  -45.2117  -29.8515    3.6889 H   0  0  0  0  0  0  0  0  0  0  0  0
  -52.5639  -30.0398    9.9245 H   0  0  0  0  0  0  0  0  0  0  0  0
  -52.3236  -28.4457    9.1513 H   0  0  0  0  0  0  0  0  0  0  0  0
  -54.1851  -29.8640    6.2453 H   0  0  0  0  0  0  0  0  0  0  0  0
  -54.3022  -31.3619    7.2071 H   0  0  0  0  0  0  0  0  0  0  0  0
  -50.7667  -30.7012    8.5080 H   0  0  0  0  0  0  0  0  0  0  0  0
  -52.0418  -31.6776    6.5143 H   0  0  0  0  0  0  0  0  0  0  0  0
  -51.7322  -28.5750    6.4388 H   0  0  0  0  0  0  0  0  0  0  0  0
  -46.7010  -27.5763    5.8703 H   0  0  0  0  0  0  0  0  0  0  0  0
  -45.8776  -29.0535    6.3693 H   0  0  0  0  0  0  0  0  0  0  0  0
  -47.6130  -28.8514    6.7154 H   0  0  0  0  0  0  0  0  0  0  0  0
  -51.3563  -30.7430    1.4727 H   0  0  0  0  0  0  0  0  0  0  0  0
  -50.9968  -30.8643    3.2024 H   0  0  0  0  0  0  0  0  0  0  0  0
  -50.9101  -29.3016    2.3932 H   0  0  0  0  0  0  0  0  0  0  0  0
  -49.7168  -32.5383    0.8586 H   0  0  0  0  0  0  0  0  0  0  0  0
  -48.0145  -32.3722    1.3160 H   0  0  0  0  0  0  0  0  0  0  0  0
  -49.2367  -32.7239    2.5426 H   0  0  0  0  0  0  0  0  0  0  0  0
  -49.7522  -30.3506   -0.2779 H   0  0  0  0  0  0  0  0  0  0  0  0
  -48.0369  -30.1310    0.0674 H   0  0  0  0  0  0  0  0  0  0  0  0
  -49.2079  -28.8737    0.5172 H   0  0  0  0  0  0  0  0  0  0  0  0
  -57.9160  -28.0252   10.2363 H   0  0  0  0  0  0  0  0  0  0  0  0
  -57.2574  -28.0310   11.8910 H   0  0  0  0  0  0  0  0  0  0  0  0
  -56.8263  -29.3172   10.7368 H   0  0  0  0  0  0  0  0  0  0  0  0
  -49.4138  -30.4251    6.3724 H   0  0  0  0  0  0  0  0  0  0  0  0
  1  5  1  0  0  0  0
  1 23  3  0  0  0  0
  2  3  1  0  0  0  0
  2  5  2  0  0  0  0
  3  8  2  0  0  0  0
  4  7  2  0  0  0  0
  4 29  1  0  0  0  0
  5 24  1  0  0  0  0
  6  7  1  0  0  0  0
  6  9  2  0  0  0  0
  6 10  1  0  0  0  0
  7 17  1  0  0  0  0
  8 11  1  0  0  0  0
  8 24  1  0  0  0  0
  9 22  1  0  0  0  0
  9 29  1  0  0  0  0
 10 26  1  0  0  0  0
 10 27  2  0  0  0  0
 11 25  1  0  0  0  0
 11 28  2  0  0  0  0
 12 14  1  0  0  0  0
 12 25  1  0  0  0  0
 13 15  1  0  0  0  0
 13 25  1  0  0  0  0
 14 15  1  0  0  0  0
 14 16  1  0  0  0  0
 15 16  1  0  0  0  0
 16 26  1  0  0  0  0
 18 22  1  0  0  0  0
 19 22  1  0  0  0  0
 20 22  1  0  0  0  0
 21 24  1  0  0  0  0
  2 30  1  0  0  0  0
  3 31  1  0  0  0  0
  4 32  1  0  0  0  0
 12 33  1  0  0  0  0
 12 34  1  0  0  0  0
 13 35  1  0  0  0  0
 13 36  1  0  0  0  0
 14 37  1  0  0  0  0
 15 38  1  0  0  0  0
 16 39  1  0  0  0  0
 17 40  1  0  0  0  0
 17 41  1  0  0  0  0
 17 42  1  0  0  0  0
 18 43  1  0  0  0  0
 18 44  1  0  0  0  0
 18 45  1  0  0  0  0
 19 46  1  0  0  0  0
 19 47  1  0  0  0  0
 19 48  1  0  0  0  0
 20 49  1  0  0  0  0
 20 50  1  0  0  0  0
 20 51  1  0  0  0  0
 21 52  1  0  0  0  0
 21 53  1  0  0  0  0
 21 54  1  0  0  0  0
 26 55  1  0  0  0  0
M  END
> <POSIT::Probability>
0.23

> <POSIT::Method>
HYBRID

> <ReceptorTitle>
UCSF-P4578-REFINED_LIGAND-BOUND-STATE_A__DU__LA1_A-201(A)

> <OMEGA_C>
qhthwssKzMEjMT5BvbNZwtJuzsHYmyNBd0JYwj+n1sEaGxVBHig5wvlQ7sHsYW9AJj9ewnm+0cHt
Ky5Brt1BwjMi7MEDh4RAXLE8wr1g6sHEgpVAE/dbwua83sFoQBdB0B9BwjMF8cE1FjtAziJHwtZp
6cETkJdAbyVcwu3v6MHCkQtBTx1Swr4K7MEjhA9BpPZWwhd188FYMuJA8SpOwuL18MEogQBBWyJR
wi6B9cHA6NtAUUJNwnJs7MGj4NRA9lA7wp1a5cH1wb5A+M1KwgL28sFGNhFAKipEwoiaAMKos9A/
OC5Ewk6n78FgOOw+sh9kwmX54cFxeS1BNM5EwjHm9MGODvE/lHFjwm9jx8GyQ0tBqpVfwrOq28H+
hiZBsE9XwmA+7cFG3QRBxFlIwtca7sGzDr9A2CtKwj5t48EnCIRAZJJgwrDn7MHIYghBsNM7wuFh
8sG0+SpAZ6FXwvntxsHu/yVBZOFUwjKk1sFeTQpBxdg0wvTP7sFGF2xAeEFSwpNR8MHQyh5BWUtR
wteQ48GGaxJBfr1Ywnjp7sHQ2cdAZzVZwirl+sFtoOZADRFLwgqc9cHSIAhB0ipQwr1r/cFYddBA
v+1OwouZ5MFPCs5A3806wlCc3MEr2btAqoI3wodt6MFR0ctAt3M+wpTP5sFf5NZA0mxNwq/x9cGM
grw/s/xLwhDq9sHL80xA9aNLwqhp6sGwKhlAA95GwkUnAsL8y1s/0Q5Awhd9AcJUc6g/YPJEwj/l
AsKpuSJANAJHwgPO8sEASo6+ySVAwlEM8cFACIo979REwlL95sFcZAQ/AKpnwpMz4MEUyCNBiAdl
wo8/4MFuQT5BIk5jwriJ6sHwyStBuKdFwpZm88FW6stA

> <OMEGA_E>
fkakwA==

> <OMEGA_NBR>
    159808

$$$$
CACHE3HI_1712_14
  -OEChem-03092622533D

 53 56  0     1  0  0  0  0  0999 V2000
  -55.7661  -25.2960   12.5665 C   0  0  0  0  0  0  0  0  0  0  0  0
  -56.7684  -26.2237   12.9101 C   0  0  0  0  0  0  0  0  0  0  0  0
  -54.9770  -25.4991   11.4198 C   0  0  0  0  0  0  0  0  0  0  0  0
  -56.9932  -27.3500   12.0999 C   0  0  0  0  0  0  0  0  0  0  0  0
  -50.9094  -29.5705    4.8117 C   0  0  0  0  0  0  0  0  0  0  0  0
  -49.9524  -30.0905    7.0017 C   0  0  0  0  0  0  0  0  0  0  0  0
  -52.1798  -29.8573    5.3154 C   0  0  0  0  0  0  0  0  0  0  0  0
  -51.2195  -30.3919    7.4956 C   0  0  0  0  0  0  0  0  0  0  0  0
  -46.8018  -29.2930    3.8350 C   0  0  0  0  0  0  0  0  0  0  0  0
  -48.1678  -29.3794    3.8232 C   0  0  0  0  0  0  0  0  0  0  0  0
  -55.1833  -26.6330   10.6111 C   0  0  0  0  0  0  0  0  0  0  0  0
  -56.2234  -27.5459   10.9373 C   0  0  0  0  0  0  0  0  0  0  0  0
  -49.7815  -29.7127    5.6467 C   0  0  0  0  0  0  0  0  0  0  0  0
  -52.3303  -30.3202    6.6320 C   0  0  0  0  0  0  0  0  0  0  0  0
  -46.3825  -29.3607    5.2558 C   0  0  0  0  0  0  0  0  0  0  0  0
  -45.0269  -29.3334    5.7949 C   0  0  0  0  0  0  0  0  0  0  0  0
  -54.0615  -31.2098    8.1894 C   0  0  0  0  0  0  0  0  0  0  0  0
  -54.3536  -26.7818    9.3460 C   0  0  0  0  0  0  0  0  0  0  0  0
  -56.4563  -28.7944   10.1244 C   0  0  0  0  0  0  0  0  0  0  0  0
  -54.4584  -28.1871    8.7390 C   0  0  0  0  0  0  0  0  0  0  0  0
  -55.9456  -28.6188    8.6834 C   0  0  1  0  0  0  0  0  0  0  0  0
  -55.5667  -31.2180    8.3757 C   0  0  0  0  0  0  0  0  0  0  0  0
  -56.2240  -29.9020    7.8495 C   0  0  0  0  0  0  0  0  0  0  0  0
  -47.4467  -29.4745    6.0016 N   0  0  0  0  0  0  0  0  0  0  0  0
  -48.4965  -29.5024    5.1590 N   0  0  0  0  0  0  0  0  0  0  0  0
  -43.9500  -29.3161    4.9365 N   0  0  0  0  0  0  0  0  0  0  0  0
  -53.6102  -30.6655    7.0010 N   0  0  0  0  0  0  0  0  0  0  0  0
  -44.8450  -29.3596    7.0069 O   0  0  0  0  0  0  0  0  0  0  0  0
  -53.3418  -31.8013    8.9867 O   0  0  0  0  0  0  0  0  0  0  0  0
  -55.6028  -24.4260   13.1853 H   0  0  0  0  0  0  0  0  0  0  0  0
  -57.3649  -26.0696   13.7971 H   0  0  0  0  0  0  0  0  0  0  0  0
  -54.2112  -24.7836   11.1592 H   0  0  0  0  0  0  0  0  0  0  0  0
  -57.7563  -28.0653   12.3692 H   0  0  0  0  0  0  0  0  0  0  0  0
  -50.7912  -29.2420    3.7896 H   0  0  0  0  0  0  0  0  0  0  0  0
  -49.0947  -30.1451    7.6557 H   0  0  0  0  0  0  0  0  0  0  0  0
  -53.0497  -29.7225    4.6897 H   0  0  0  0  0  0  0  0  0  0  0  0
  -51.3489  -30.6775    8.5291 H   0  0  0  0  0  0  0  0  0  0  0  0
  -46.1547  -29.1946    2.9760 H   0  0  0  0  0  0  0  0  0  0  0  0
  -48.8313  -29.3569    2.9713 H   0  0  0  0  0  0  0  0  0  0  0  0
  -54.7059  -26.0497    8.6045 H   0  0  0  0  0  0  0  0  0  0  0  0
  -53.3000  -26.5797    9.5889 H   0  0  0  0  0  0  0  0  0  0  0  0
  -55.9238  -29.6342   10.5948 H   0  0  0  0  0  0  0  0  0  0  0  0
  -57.5344  -29.0116   10.0999 H   0  0  0  0  0  0  0  0  0  0  0  0
  -54.0412  -28.1785    7.7213 H   0  0  0  0  0  0  0  0  0  0  0  0
  -53.8938  -28.8976    9.3607 H   0  0  0  0  0  0  0  0  0  0  0  0
  -56.5137  -27.7961    8.2248 H   0  0  0  0  0  0  0  0  0  0  0  0
  -55.9889  -32.0715    7.8251 H   0  0  0  0  0  0  0  0  0  0  0  0
  -55.7922  -31.3249    9.4470 H   0  0  0  0  0  0  0  0  0  0  0  0
  -57.3127  -30.0567    7.8238 H   0  0  0  0  0  0  0  0  0  0  0  0
  -55.8544  -29.7263    6.8285 H   0  0  0  0  0  0  0  0  0  0  0  0
  -43.0191  -29.3249    5.3019 H   0  0  0  0  0  0  0  0  0  0  0  0
  -44.0988  -29.2947    3.9479 H   0  0  0  0  0  0  0  0  0  0  0  0
  -54.3147  -30.4991    6.3111 H   0  0  0  0  0  0  0  0  0  0  0  0
  1  2  1  0  0  0  0
  1  3  2  0  0  0  0
  2  4  2  0  0  0  0
  3 11  1  0  0  0  0
  4 12  1  0  0  0  0
  5  7  2  0  0  0  0
  5 13  1  0  0  0  0
  6  8  1  0  0  0  0
  6 13  2  0  0  0  0
  7 14  1  0  0  0  0
  8 14  2  0  0  0  0
  9 10  2  0  0  0  0
  9 15  1  0  0  0  0
 10 25  1  0  0  0  0
 11 12  2  0  0  0  0
 11 18  1  0  0  0  0
 12 19  1  0  0  0  0
 13 25  1  0  0  0  0
 14 27  1  0  0  0  0
 15 16  1  0  0  0  0
 15 24  2  0  0  0  0
 16 26  1  0  0  0  0
 16 28  2  0  0  0  0
 17 22  1  0  0  0  0
 17 27  1  0  0  0  0
 17 29  2  0  0  0  0
 18 20  1  0  0  0  0
 19 21  1  0  0  0  0
 20 21  1  0  0  0  0
 21 23  1  0  0  0  0
 22 23  1  0  0  0  0
 24 25  1  0  0  0  0
  1 30  1  0  0  0  0
  2 31  1  0  0  0  0
  3 32  1  0  0  0  0
  4 33  1  0  0  0  0
  5 34  1  0  0  0  0
  6 35  1  0  0  0  0
  7 36  1  0  0  0  0
  8 37  1  0  0  0  0
  9 38  1  0  0  0  0
 10 39  1  0  0  0  0
 18 40  1  0  0  0  0
 18 41  1  0  0  0  0
 19 42  1  0  0  0  0
 19 43  1  0  0  0  0
 20 44  1  0  0  0  0
 20 45  1  0  0  0  0
 21 46  1  0  0  0  0
 22 47  1  0  0  0  0
 22 48  1  0  0  0  0
 23 49  1  0  0  0  0
 23 50  1  0  0  0  0
 26 51  1  0  0  0  0
 26 52  1  0  0  0  0
 27 53  1  0  0  0  0
M  END
> <POSIT::Probability>
0.42

> <POSIT::Method>
SHAPEFIT

> <ReceptorTitle>
UCSF-P4578-REFINED_LIGAND-BOUND-STATE_A__DU__LA1_A-201(A)

> <OMEGA_C>
gxBfwjdeysGVEElB0xJjwizK0cHFj05Bdehbwhr+y8GdtzZBBPljwtnM2sFZmUFBOqNLwl+Q7MEg
+ZlARM9Hwk658MG9DeBAIrhQwrXb7sF9F6pAw+BMwrQi88Ht2+9AEjU7whRY6sHQcHVA2qtAwh0J
68F+rnRAu7tcwlsQ1cEExylBwuRgwuhd3MEV/y5BQyBHwoyz7cFqsbRAMlJRwrqP8sFiOdRAoYc5
wrni6sEjL6hAlBs0wtaq6sEHcLlA8T5YwqWt+cHFBwNBFGpZwiRB1sFLiRVBQtNhwgNb5sG2/SFB
W9VZwj5/4cEd0wtBSMhfwmXz5MEo7wpBTURewmG++cHHAgZBWOVgwjc378GDL/tAbck9wtnL68Em
DcBAb/xBwvAE7ME/FqVAwMwvwluH6sHE951A0XBWwvJS9cHtB+BAPmEzwovg6sHiOOBABl5VwgZp
/sFcyQ9BTGlewn5ow8EJ91JBtHVlwnKO0MHewFxBO9hYwrtExsEcjDJBdgZnwqSF4MET6EVBOCpL
wrLv6cFAiXJA9mBEwhAp8cF4+/RA8DJUwpbH7cETEpZAUGVNwo5r9cEfdwhBc544wnSO6cH7dT5A
OVNDwtra6sELKT5A0NJawsBl0MHqqwlBKTNVwjaj1MFHbBlB9rFfwtYS7cFKhClBNiNmwqkX6MEH
mSFBKSpYwpVt4cGMFPdAPJNXwkku58GGxRVBAQ5iwlVe3sHHmANBpPRfwkJJAMIzZ/pAQStfwmSZ
+sHYJhdBOkBlwjN08MHrXPpA4mpfwnvP7cENg9pAlxMswmiZ6sHnqKlAOGUwwoxb6sH1qXxAOUJZ
whH+88Ep9MlA

> <OMEGA_E>
DH5+Pw==

> <OMEGA_NBR>
    161395

$$$$
CACHE3HI_1712_30
  -OEChem-03092622533D

 39 41  0     1  0  0  0  0  0999 V2000
  -48.3966  -29.4197    4.5519 C   0  0  0  0  0  0  0  0  0  0  0  0
  -47.6169  -29.1232    3.4342 C   0  0  0  0  0  0  0  0  0  0  0  0
  -49.7020  -29.8778    4.3884 C   0  0  0  0  0  0  0  0  0  0  0  0
  -49.9659  -29.9001    0.6758 C   0  0  0  0  0  0  0  0  0  0  0  0
  -49.1416  -29.5888   -0.3956 C   0  0  0  0  0  0  0  0  0  0  0  0
  -48.1410  -29.2835    2.1410 C   0  0  0  0  0  0  0  0  0  0  0  0
  -49.4620  -29.7468    1.9724 C   0  0  0  0  0  0  0  0  0  0  0  0
  -50.2333  -30.0409    3.1086 C   0  0  0  0  0  0  0  0  0  0  0  0
  -47.4051  -29.0015    0.9885 C   0  0  0  0  0  0  0  0  0  0  0  0
  -46.0191  -28.5129    1.0420 C   0  0  0  0  0  0  0  0  0  0  0  0
  -45.1132  -30.7873    1.6995 C   0  0  0  0  0  0  0  0  0  0  0  0
  -43.7348  -31.4153    1.8850 C   0  0  0  0  0  0  0  0  0  0  0  0
  -43.3864  -29.5773    3.4837 C   0  0  0  0  0  0  0  0  0  0  0  0
  -43.9318  -28.6773    2.3624 C   0  0  1  0  0  0  0  0  0  0  0  0
  -41.6339  -31.2167    3.0613 C   0  0  0  0  0  0  0  0  0  0  0  0
  -42.8434  -28.2389    1.3775 C   0  0  0  0  0  0  0  0  0  0  0  0
  -47.8733  -29.1430   -0.2723 N   0  0  0  0  0  0  0  0  0  0  0  0
  -45.0570  -29.3197    1.6639 N   0  0  0  0  0  0  0  0  0  0  0  0
  -43.0678  -30.9558    3.1036 N   0  0  2  0  0  0  0  0  0  0  0  0
  -45.8055  -27.4138    0.5323 O   0  0  0  0  0  0  0  0  0  0  0  0
  -43.2876  -27.1649    0.6946 F   0  0  0  0  0  0  0  0  0  0  0  0
  -42.6390  -29.2329    0.4895 F   0  0  0  0  0  0  0  0  0  0  0  0
  -51.8670  -30.6161    3.0168 Cl  0  0  0  0  0  0  0  0  0  0  0  0
  -47.9859  -29.2937    5.5494 H   0  0  0  0  0  0  0  0  0  0  0  0
  -46.6021  -28.7681    3.5959 H   0  0  0  0  0  0  0  0  0  0  0  0
  -50.2929  -30.1035    5.2729 H   0  0  0  0  0  0  0  0  0  0  0  0
  -50.9710  -30.2511    0.4687 H   0  0  0  0  0  0  0  0  0  0  0  0
  -49.4959  -29.6945   -1.4158 H   0  0  0  0  0  0  0  0  0  0  0  0
  -45.5420  -31.0971    0.7342 H   0  0  0  0  0  0  0  0  0  0  0  0
  -45.7979  -31.1520    2.4746 H   0  0  0  0  0  0  0  0  0  0  0  0
  -43.8400  -32.5016    1.9468 H   0  0  0  0  0  0  0  0  0  0  0  0
  -43.1411  -31.1907    0.9938 H   0  0  0  0  0  0  0  0  0  0  0  0
  -42.4870  -29.1020    3.9736 H   0  0  0  0  0  0  0  0  0  0  0  0
  -44.1495  -29.5849    4.3110 H   0  0  0  0  0  0  0  0  0  0  0  0
  -44.3531  -27.7626    2.8250 H   0  0  0  0  0  0  0  0  0  0  0  0
  -41.1522  -30.8672    3.9791 H   0  0  0  0  0  0  0  0  0  0  0  0
  -41.4479  -32.2890    2.9538 H   0  0  0  0  0  0  0  0  0  0  0  0
  -41.1814  -30.7017    2.2094 H   0  0  0  0  0  0  0  0  0  0  0  0
  -41.9176  -27.9990    1.8898 H   0  0  0  0  0  0  0  0  0  0  0  0
  1  2  2  0  0  0  0
  1  3  1  0  0  0  0
  2  6  1  0  0  0  0
  3  8  2  0  0  0  0
  4  5  2  0  0  0  0
  4  7  1  0  0  0  0
  5 17  1  0  0  0  0
  6  7  2  0  0  0  0
  6  9  1  0  0  0  0
  7  8  1  0  0  0  0
  8 23  1  0  0  0  0
  9 10  1  0  0  0  0
  9 17  2  0  0  0  0
 10 18  1  0  0  0  0
 10 20  2  0  0  0  0
 11 12  1  0  0  0  0
 11 18  1  0  0  0  0
 12 19  1  0  0  0  0
 13 14  1  0  0  0  0
 13 19  1  0  0  0  0
 14 16  1  0  0  0  0
 14 18  1  0  0  0  0
 15 19  1  0  0  0  0
 16 21  1  0  0  0  0
 16 22  1  0  0  0  0
  1 24  1  0  0  0  0
  2 25  1  0  0  0  0
  3 26  1  0  0  0  0
  4 27  1  0  0  0  0
  5 28  1  0  0  0  0
 11 29  1  0  0  0  0
 11 30  1  0  0  0  0
 12 31  1  0  0  0  0
 12 32  1  0  0  0  0
 13 33  1  0  0  0  0
 13 34  1  0  0  0  0
 14 35  1  0  0  0  0
 15 36  1  0  0  0  0
 15 37  1  0  0  0  0
 15 38  1  0  0  0  0
 16 39  1  0  0  0  0
M  END
> <POSIT::Probability>
0.01

> <POSIT::Method>
FRED

> <ReceptorTitle>
UCSF-P4578-REFINED_LIGAND-BOUND-STATE_A__DU__LA1_A-201(A)

> <OMEGA_C>
G5ZBwoVb68EgqZFAuXc+wmj86MFWyVtA485GwskF78FgbYxAEd1Hwn0z78F4BC0/C5FEwue17MEw
iMq+YJBAwrJE6sGCBQlAGNlFwn357cGMePw/4u5IwtFT8MEc9EZA2J49wigD6ME4Dn0/hBM4woUa
5MEwYYU/6HM0wnRM9sHAidk/ZPAuwoxS+8FcRvE/sostwkme7MEw9V5AJrovwgxr5cHeMBdAGIkm
wri7+cGY7ENApF8rwkHp4cFkUbA/RH4/wvQk6cGAaou+WTo0wrOO6sH0+dQ/Z0Uswo+l98H8oUZA
1zg3wmZP28HgRQg/dCYtwsZR2cHw0DE/Xo4qwuLc6cHwpfo+0HdPwr/t9MHGEkFAhvE/wo9Z6sHB
lLFAmGg6wgkl5sFSI2ZA9itJwvHT8MGCu6hAVOJLwkIC8sFA+e8+0ftFwmWO7cFMOrW/ACs2wsbG
+MHo9Ts/FzE3wlM3+cF4Xx5AH1wvwqQBAsLAL/k/iJAswoSG+cHoaH4/rvIpws/Q6ME6T35AFJkw
wtit7MG+84lAoGkxwtsZ3sHOzDRA05skwgLw9sHyqH5AosolwuonAcLECj1Aw7kkwged9cEgZg1A
mqsnwub938F45PE/

> <OMEGA_E>
0aECwQ==

> <OMEGA_NBR>
    162672

$$$$
CACHE3HI_1712_44
  -OEChem-03092622533D

 53 56  0     1  0  0  0  0  0999 V2000
  -54.7187  -25.4409   11.3626 C   0  0  0  0  0  0  0  0  0  0  0  0
  -55.2482  -25.0648   12.5920 C   0  0  0  0  0  0  0  0  0  0  0  0
  -54.0806  -26.6693   11.2329 C   0  0  0  0  0  0  0  0  0  0  0  0
  -55.1144  -25.9467   13.6528 C   0  0  0  0  0  0  0  0  0  0  0  0
  -51.5702  -30.9666    9.7642 C   0  0  0  0  0  0  0  0  0  0  0  0
  -51.9678  -29.7982    9.1489 C   0  0  0  0  0  0  0  0  0  0  0  0
  -53.9988  -27.4794   12.3541 C   0  0  0  0  0  0  0  0  0  0  0  0
  -52.7318  -29.3871   11.1626 C   0  0  0  0  0  0  0  0  0  0  0  0
  -51.7173  -29.4925    7.7174 C   0  0  0  0  0  0  0  0  0  0  0  0
  -47.4146  -29.8872    3.8593 C   0  0  0  0  0  0  0  0  0  0  0  0
  -45.5358  -29.0138    5.2634 C   0  0  0  0  0  0  0  0  0  0  0  0
  -44.2563  -29.7918    4.9852 C   0  0  0  0  0  0  0  0  0  0  0  0
  -45.2064  -29.2910    2.8475 C   0  0  0  0  0  0  0  0  0  0  0  0
  -48.5215  -28.6937    5.8362 C   0  0  0  0  0  0  0  0  0  0  0  0
  -49.6276  -30.3804    5.1232 C   0  0  0  0  0  0  0  0  0  0  0  0
  -46.2543  -28.9383    3.9119 C   0  0  1  0  0  0  0  0  0  0  0  0
  -43.8683  -29.3196    3.5892 C   0  0  2  0  0  0  0  0  0  0  0  0
  -49.9806  -29.1522    5.9778 C   0  0  0  0  0  0  0  0  0  0  0  0
  -43.3171  -31.6438    2.8042 C   0  0  0  0  0  0  0  0  0  0  0  0
  -42.8320  -30.2087    2.9235 C   0  0  0  0  0  0  0  0  0  0  0  0
  -54.5010  -27.1483   13.5647 N   0  0  0  0  0  0  0  0  0  0  0  0
  -52.6341  -28.8911    9.9494 N   0  0  0  0  0  0  0  0  0  0  0  0
  -48.3990  -29.6891    4.7882 N   0  0  0  0  0  0  0  0  0  0  0  0
  -53.3341  -28.7520   12.2029 N   0  0  0  0  0  0  0  0  0  0  0  0
  -50.3899  -29.4612    7.3410 N   0  0  0  0  0  0  0  0  0  0  0  0
  -52.6705  -29.2720    6.9751 O   0  0  0  0  0  0  0  0  0  0  0  0
  -47.4238  -30.7753    3.0131 O   0  0  0  0  0  0  0  0  0  0  0  0
  -52.0432  -30.9385   11.4121 S   0  0  0  0  0  0  0  0  0  0  0  0
  -54.8038  -24.7781   10.5064 H   0  0  0  0  0  0  0  0  0  0  0  0
  -55.7500  -24.1119   12.7157 H   0  0  0  0  0  0  0  0  0  0  0  0
  -53.6653  -26.9705   10.2770 H   0  0  0  0  0  0  0  0  0  0  0  0
  -55.5102  -25.7012   14.6328 H   0  0  0  0  0  0  0  0  0  0  0  0
  -51.0416  -31.8107    9.3435 H   0  0  0  0  0  0  0  0  0  0  0  0
  -46.1298  -29.4824    6.0545 H   0  0  0  0  0  0  0  0  0  0  0  0
  -45.2789  -28.0001    5.5952 H   0  0  0  0  0  0  0  0  0  0  0  0
  -43.4798  -29.5820    5.7271 H   0  0  0  0  0  0  0  0  0  0  0  0
  -44.4589  -30.8697    4.9965 H   0  0  0  0  0  0  0  0  0  0  0  0
  -45.4196  -30.2596    2.3783 H   0  0  0  0  0  0  0  0  0  0  0  0
  -45.1892  -28.5427    2.0472 H   0  0  0  0  0  0  0  0  0  0  0  0
  -48.3894  -27.6662    5.4880 H   0  0  0  0  0  0  0  0  0  0  0  0
  -47.8601  -28.8961    6.6839 H   0  0  0  0  0  0  0  0  0  0  0  0
  -49.4490  -31.3155    5.6624 H   0  0  0  0  0  0  0  0  0  0  0  0
  -50.2909  -30.5532    4.2721 H   0  0  0  0  0  0  0  0  0  0  0  0
  -46.6561  -27.9244    3.7487 H   0  0  0  0  0  0  0  0  0  0  0  0
  -43.4723  -28.2971    3.6520 H   0  0  0  0  0  0  0  0  0  0  0  0
  -50.6955  -28.4777    5.4915 H   0  0  0  0  0  0  0  0  0  0  0  0
  -44.2457  -31.6968    2.2264 H   0  0  0  0  0  0  0  0  0  0  0  0
  -43.5091  -32.0632    3.7964 H   0  0  0  0  0  0  0  0  0  0  0  0
  -42.5683  -32.2701    2.3091 H   0  0  0  0  0  0  0  0  0  0  0  0
  -41.9039  -30.1850    3.5048 H   0  0  0  0  0  0  0  0  0  0  0  0
  -42.6020  -29.8173    1.9261 H   0  0  0  0  0  0  0  0  0  0  0  0
  -53.3399  -29.2588   13.1078 H   0  0  0  0  0  0  0  0  0  0  0  0
  -49.6500  -29.5900    8.0158 H   0  0  0  0  0  0  0  0  0  0  0  0
  1  2  1  0  0  0  0
  1  3  2  0  0  0  0
  2  4  2  0  0  0  0
  3  7  1  0  0  0  0
  4 21  1  0  0  0  0
  5  6  2  0  0  0  0
  5 28  1  0  0  0  0
  6  9  1  0  0  0  0
  6 22  1  0  0  0  0
  7 21  2  0  0  0  0
  7 24  1  0  0  0  0
  8 22  2  0  0  0  0
  8 24  1  0  0  0  0
  8 28  1  0  0  0  0
  9 25  1  0  0  0  0
  9 26  2  0  0  0  0
 10 16  1  0  0  0  0
 10 23  1  0  0  0  0
 10 27  2  0  0  0  0
 11 12  1  0  0  0  0
 11 16  1  0  0  0  0
 12 17  1  0  0  0  0
 13 16  1  0  0  0  0
 13 17  1  0  0  0  0
 14 18  1  0  0  0  0
 14 23  1  0  0  0  0
 15 18  1  0  0  0  0
 15 23  1  0  0  0  0
 17 20  1  0  0  0  0
 18 25  1  0  0  0  0
 19 20  1  0  0  0  0
  1 29  1  0  0  0  0
  2 30  1  0  0  0  0
  3 31  1  0  0  0  0
  4 32  1  0  0  0  0
  5 33  1  0  0  0  0
 11 34  1  0  0  0  0
 11 35  1  0  0  0  0
 12 36  1  0  0  0  0
 12 37  1  0  0  0  0
 13 38  1  0  0  0  0
 13 39  1  0  0  0  0
 14 40  1  0  0  0  0
 14 41  1  0  0  0  0
 15 42  1  0  0  0  0
 15 43  1  0  0  0  0
 16 44  1  0  0  0  0
 17 45  1  0  0  0  0
 18 46  1  0  0  0  0
 19 47  1  0  0  0  0
 19 48  1  0  0  0  0
 19 49  1  0  0  0  0
 20 50  1  0  0  0  0
 20 51  1  0  0  0  0
 24 52  1  0  0  0  0
 25 53  1  0  0  0  0
M  END
> <POSIT::Probability>
0.24

> <POSIT::Method>
FRED

> <ReceptorTitle>
UCSF-P4578-REFINED_LIGAND-BOUND-STATE_A__DU__LA1_A-201(A)

> <OMEGA_C>
8N9awuOGy8FPzTVBMv5cwquEyMHUeElBjFJYwtRa1cEnujNBHHVcwtKSz8HwcVpB7UdOwq+798EW
OhxBCd9PwrRi7sG7YRJBw/5XwsfV28E+qkVBXe1SwsEY68EomjJBe95OwqHw68EB9fZAhag9wuoY
78EO/3ZAoSQ2wkkc6MF+bahAagYxwq5V7sHohp9AZtM0wgJU6sG2PTZAABZCwqKM5cF1wrpAoIJG
wvwK88Em8aNAYQQ5wqiB58EgXHpAJXkvwpWO6sEgtmVAFuxHwsw36cEWSr9AqkQtwngm/cFkdzNA
+1Mrwner8cFvGjtAEwFawsYv2cHZCFlBUIlSwgoh58GkMB9BlphBwjSD7cG+OJlAHlZVwgwE5sE+
P0NBRY9Jwniw68FL6epAoq5Swgwt6sEoNN9A/7E9wsIz9sFG10BAQyxQwiSC98EVmDZBCzdbwnQ5
xsFXGihB+v9ewiflwMFwc0tBSKlWwo3D18GMbiRBaApewgSczcH0H2pBlypMwlZ8/sEifxVB8YQ4
wvrb68G6vsFAoR01wjoA4MEADLNARestwgao7MFYRLdA5dUxwin19sE5459Aqa01wrAT8sEENhhA
wsE0wolX5MFWBQNAx45BwmBU3cEKnq9AxnA/wjAr58Hb4tVAw8tFwimG+sG4MrVA3ilJwvFs9MEy
tYhAzp86wjBl38HW6m9AquMtwn1g4sGuuWlAKshKwlTS48FOuq9AkvswwhaT/cFWfQ5AVQkuwq1A
AMLy+HJA5UUqwpIUAcKuxxNAkZ0nwvB68cHaTWBAfGgqwr+J7sFhifY/FlxVwgsS6sG+uVFBm5lG
wlK47MHgQABB

> <OMEGA_E>
OWcKwQ==

> <OMEGA_NBR>
    164231

$$$$
CACHE3HI_1712_50
  -OEChem-03092622533D

 47 50  0     0  0  0  0  0  0999 V2000
  -52.9606  -28.9411    8.6258 C   0  0  0  0  0  0  0  0  0  0  0  0
  -54.1040  -28.2013    8.3583 C   0  0  0  0  0  0  0  0  0  0  0  0
  -43.1456  -28.3803    1.9493 C   0  0  0  0  0  0  0  0  0  0  0  0
  -52.1064  -29.3199    7.5873 C   0  0  0  0  0  0  0  0  0  0  0  0
  -54.4173  -27.8233    7.0514 C   0  0  0  0  0  0  0  0  0  0  0  0
  -42.0875  -29.2659    1.7779 C   0  0  0  0  0  0  0  0  0  0  0  0
  -44.1223  -28.6483    2.9017 C   0  0  0  0  0  0  0  0  0  0  0  0
  -52.2960  -28.6816    3.9265 C   0  0  0  0  0  0  0  0  0  0  0  0
  -52.3958  -28.9519    6.2509 C   0  0  0  0  0  0  0  0  0  0  0  0
  -53.5530  -28.2056    6.0067 C   0  0  0  0  0  0  0  0  0  0  0  0
  -51.6827  -29.2176    5.0342 C   0  0  0  0  0  0  0  0  0  0  0  0
  -42.0524  -30.3969    2.5783 C   0  0  0  0  0  0  0  0  0  0  0  0
  -43.9965  -29.8066    3.6517 C   0  0  0  0  0  0  0  0  0  0  0  0
  -47.0922  -29.8638    3.4619 C   0  0  0  0  0  0  0  0  0  0  0  0
  -46.9772  -29.2308    5.7959 C   0  0  0  0  0  0  0  0  0  0  0  0
  -48.3378  -29.0009    3.2682 C   0  0  0  0  0  0  0  0  0  0  0  0
  -48.2208  -28.3577    5.6419 C   0  0  0  0  0  0  0  0  0  0  0  0
  -40.9325  -31.3706    2.4208 C   0  0  0  0  0  0  0  0  0  0  0  0
  -45.0343  -30.1295    4.6881 C   0  0  0  0  0  0  0  0  0  0  0  0
  -42.9832  -30.6906    3.5138 N   0  0  0  0  0  0  0  0  0  0  0  0
  -46.2389  -29.3176    4.5273 N   0  0  0  0  0  0  0  0  0  0  0  0
  -49.0870  -28.8760    4.5482 N   0  0  0  0  0  0  0  0  0  0  0  0
  -50.2748  -31.0399    3.8198 O   0  0  0  0  0  0  0  0  0  0  0  0
  -49.8703  -30.6199    6.2710 O   0  0  0  0  0  0  0  0  0  0  0  0
  -53.7320  -27.8552    4.3278 S   0  0  0  0  0  0  0  0  0  0  0  0
  -50.1753  -30.1320    4.9425 S   0  0  0  0  0  0  0  0  0  0  0  0
  -52.7276  -29.2292    9.6470 H   0  0  0  0  0  0  0  0  0  0  0  0
  -54.7629  -27.9124    9.1727 H   0  0  0  0  0  0  0  0  0  0  0  0
  -43.2088  -27.4827    1.3415 H   0  0  0  0  0  0  0  0  0  0  0  0
  -51.2162  -29.8994    7.8193 H   0  0  0  0  0  0  0  0  0  0  0  0
  -55.3138  -27.2434    6.8515 H   0  0  0  0  0  0  0  0  0  0  0  0
  -41.3192  -29.0688    1.0380 H   0  0  0  0  0  0  0  0  0  0  0  0
  -44.9530  -27.9654    3.0443 H   0  0  0  0  0  0  0  0  0  0  0  0
  -51.9700  -28.7350    2.8969 H   0  0  0  0  0  0  0  0  0  0  0  0
  -47.4137  -30.8784    3.7254 H   0  0  0  0  0  0  0  0  0  0  0  0
  -46.5371  -29.9287    2.5167 H   0  0  0  0  0  0  0  0  0  0  0  0
  -46.3359  -28.8242    6.5894 H   0  0  0  0  0  0  0  0  0  0  0  0
  -47.2955  -30.2318    6.1107 H   0  0  0  0  0  0  0  0  0  0  0  0
  -48.0296  -28.0015    2.9287 H   0  0  0  0  0  0  0  0  0  0  0  0
  -48.9932  -29.4324    2.4963 H   0  0  0  0  0  0  0  0  0  0  0  0
  -48.7920  -28.3253    6.5823 H   0  0  0  0  0  0  0  0  0  0  0  0
  -47.9082  -27.3313    5.4018 H   0  0  0  0  0  0  0  0  0  0  0  0
  -40.0905  -31.1185    3.0781 H   0  0  0  0  0  0  0  0  0  0  0  0
  -40.5462  -31.3691    1.3933 H   0  0  0  0  0  0  0  0  0  0  0  0
  -41.2724  -32.3846    2.6635 H   0  0  0  0  0  0  0  0  0  0  0  0
  -45.3266  -31.1830    4.6264 H   0  0  0  0  0  0  0  0  0  0  0  0
  -44.6475  -29.9578    5.6980 H   0  0  0  0  0  0  0  0  0  0  0  0
  1  2  2  0  0  0  0
  1  4  1  0  0  0  0
  2  5  1  0  0  0  0
  3  6  2  0  0  0  0
  3  7  1  0  0  0  0
  4  9  2  0  0  0  0
  5 10  2  0  0  0  0
  6 12  1  0  0  0  0
  7 13  2  0  0  0  0
  8 11  2  0  0  0  0
  8 25  1  0  0  0  0
  9 10  1  0  0  0  0
  9 11  1  0  0  0  0
 10 25  1  0  0  0  0
 11 26  1  0  0  0  0
 12 18  1  0  0  0  0
 12 20  2  0  0  0  0
 13 19  1  0  0  0  0
 13 20  1  0  0  0  0
 14 16  1  0  0  0  0
 14 21  1  0  0  0  0
 15 17  1  0  0  0  0
 15 21  1  0  0  0  0
 16 22  1  0  0  0  0
 17 22  1  0  0  0  0
 19 21  1  0  0  0  0
 22 26  1  0  0  0  0
 23 26  2  0  0  0  0
 24 26  2  0  0  0  0
  1 27  1  0  0  0  0
  2 28  1  0  0  0  0
  3 29  1  0  0  0  0
  4 30  1  0  0  0  0
  5 31  1  0  0  0  0
  6 32  1  0  0  0  0
  7 33  1  0  0  0  0
  8 34  1  0  0  0  0
 14 35  1  0  0  0  0
 14 36  1  0  0  0  0
 15 37  1  0  0  0  0
 15 38  1  0  0  0  0
 16 39  1  0  0  0  0
 16 40  1  0  0  0  0
 17 41  1  0  0  0  0
 17 42  1  0  0  0  0
 18 43  1  0  0  0  0
 18 44  1  0  0  0  0
 18 45  1  0  0  0  0
 19 46  1  0  0  0  0
 19 47  1  0  0  0  0
M  END
> <POSIT::Probability>
0.24

> <POSIT::Method>
FRED

> <ReceptorTitle>
UCSF-P4578-REFINED_LIGAND-BOUND-STATE_A__DU__LA1_A-201(A)

> <OMEGA_C>
nNdTwnWH58EeAwpBg2pYwj6c4cG4uwVBEpUswtEK48Eigfk//GxQwiSP6sEoy/JAUqtZwjKW3sH3
pOFAlVkowowg6sGCkeM/Qn0wwtAv5cEotjlAHC9RwtRz5cHjS3tAV5VRwoOd58EEB8hAUjZWwhyl
4cFAN8BACrtOwqO96cHuF6FAqTUowtgs88E7AiVAdfwvwuFz7sFTtWlAcV48wg3p7sGFj11AoOg7
wrvY6cFseLlA51lBwtIB6MGyKVFAFeJAwpnc4sEoirRA67ojwuj2+sH/7RpAKCM0wiYJ8cEJBZZA
w+4rwlWG9cF34mBAnvQ4wmuK6sGH35BAEFlEwhAC58HdipFAcBlJwrJR+MFTeHRAOntHwnn19MGo
q8hAnu1WwoTX3sG2fYpAhLNIwj4O8cE9KZ5ADulSwn/V6cEYWhpBPw1bwo5M38E9wxJB2tUswnvc
28Eitqs/ZN1MwgEy78GxN/pAWkFdwnDy2cF/P9tA00YlwvOM6MGe24Q/1M8zwji538GD1kJASeFP
wjvh5cHRZjlAlqc9wt8G98G+bW5A+iU6wvht78ExESFA+Vc5wu6X5sG03NJAnC49wtHa8cEPi8NA
Wx5AwiwD4MExcDtAD/lDwnt168GTwh9A+CpDwiCa4sEcotJA/KE/wnGm2sHr26xAplwgwsry+MHc
/0RAQi8iwt/z+sECV7I/4xYlwtaJAcKLdypAa041wsZ2+cGkC5RABZcywqKp78EmVrZA

> <OMEGA_E>
LzQAwQ==

> <OMEGA_NBR>
    165663

$$$$
CACHE3HI_1712_51
  -OEChem-03092622533D

 37 39  0     1  0  0  0  0  0999 V2000
  -49.5662  -29.3160    1.7823 C   0  0  0  0  0  0  0  0  0  0  0  0
  -43.7804  -27.8452    0.9214 C   0  0  0  0  0  0  0  0  0  0  0  0
  -49.9574  -30.4101    1.0105 C   0  0  0  0  0  0  0  0  0  0  0  0
  -48.3653  -29.3566    2.4906 C   0  0  0  0  0  0  0  0  0  0  0  0
  -44.2374  -29.1782    1.0843 C   0  0  0  0  0  0  0  0  0  0  0  0
  -42.4948  -27.7803    1.4184 C   0  0  0  0  0  0  0  0  0  0  0  0
  -47.9470  -31.5850    1.6552 C   0  0  0  0  0  0  0  0  0  0  0  0
  -49.1479  -31.5444    0.9469 C   0  0  0  0  0  0  0  0  0  0  0  0
  -47.5558  -30.4909    2.4270 C   0  0  0  0  0  0  0  0  0  0  0  0
  -43.2148  -29.8834    1.6759 C   0  0  0  0  0  0  0  0  0  0  0  0
  -40.9348  -30.6614    2.7902 C   0  0  0  0  0  0  0  0  0  0  0  0
  -43.0385  -31.2315    2.0963 C   0  0  0  0  0  0  0  0  0  0  0  0
  -44.1264  -32.2190    1.9190 C   0  0  0  0  0  0  0  0  0  0  0  0
  -45.5383  -34.1560    0.1035 C   0  0  0  0  0  0  0  0  0  0  0  0
  -47.0704  -32.8141    1.5877 C   0  0  0  0  0  0  0  0  0  0  0  0
  -46.0457  -32.7585    0.4452 C   0  0  1  0  0  0  0  0  0  0  0  0
  -40.9823  -29.4026    2.4446 N   0  0  0  0  0  0  0  0  0  0  0  0
  -41.9283  -31.6169    2.6408 N   0  0  0  0  0  0  0  0  0  0  0  0
  -42.1609  -29.0286    1.8759 N   0  0  0  0  0  0  0  0  0  0  0  0
  -44.9173  -31.9389    0.8254 N   0  0  0  0  0  0  0  0  0  0  0  0
  -44.2465  -33.1535    2.6987 O   0  0  0  0  0  0  0  0  0  0  0  0
  -49.6707  -32.8750   -0.0217 Cl  0  0  0  0  0  0  0  0  0  0  0  0
  -46.0772  -30.4979    3.3190 Cl  0  0  0  0  0  0  0  0  0  0  0  0
  -50.1961  -28.4327    1.8325 H   0  0  0  0  0  0  0  0  0  0  0  0
  -44.3279  -27.0203    0.4874 H   0  0  0  0  0  0  0  0  0  0  0  0
  -50.8968  -30.3622    0.4656 H   0  0  0  0  0  0  0  0  0  0  0  0
  -48.0758  -28.4951    3.0870 H   0  0  0  0  0  0  0  0  0  0  0  0
  -45.2050  -29.5656    0.7985 H   0  0  0  0  0  0  0  0  0  0  0  0
  -41.7966  -26.9568    1.4834 H   0  0  0  0  0  0  0  0  0  0  0  0
  -40.0028  -31.0201    3.2572 H   0  0  0  0  0  0  0  0  0  0  0  0
  -45.0717  -34.6262    0.9747 H   0  0  0  0  0  0  0  0  0  0  0  0
  -46.3615  -34.7985   -0.2272 H   0  0  0  0  0  0  0  0  0  0  0  0
  -44.7989  -34.1259   -0.7053 H   0  0  0  0  0  0  0  0  0  0  0  0
  -46.5628  -32.9567    2.5514 H   0  0  0  0  0  0  0  0  0  0  0  0
  -47.7222  -33.6893    1.4636 H   0  0  0  0  0  0  0  0  0  0  0  0
  -46.5039  -32.3248   -0.4511 H   0  0  0  0  0  0  0  0  0  0  0  0
  -44.7239  -31.1213    0.2542 H   0  0  0  0  0  0  0  0  0  0  0  0
  1  3  1  0  0  0  0
  1  4  2  0  0  0  0
  2  5  1  0  0  0  0
  2  6  2  0  0  0  0
  3  8  2  0  0  0  0
  4  9  1  0  0  0  0
  5 10  2  0  0  0  0
  6 19  1  0  0  0  0
  7  8  1  0  0  0  0
  7  9  2  0  0  0  0
  7 15  1  0  0  0  0
  8 22  1  0  0  0  0
  9 23  1  0  0  0  0
 10 12  1  0  0  0  0
 10 19  1  0  0  0  0
 11 17  2  0  0  0  0
 11 18  1  0  0  0  0
 12 13  1  0  0  0  0
 12 18  2  0  0  0  0
 13 20  1  0  0  0  0
 13 21  2  0  0  0  0
 14 16  1  0  0  0  0
 15 16  1  0  0  0  0
 16 20  1  0  0  0  0
 17 19  1  0  0  0  0
  1 24  1  0  0  0  0
  2 25  1  0  0  0  0
  3 26  1  0  0  0  0
  4 27  1  0  0  0  0
  5 28  1  0  0  0  0
  6 29  1  0  0  0  0
 11 30  1  0  0  0  0
 14 31  1  0  0  0  0
 14 32  1  0  0  0  0
 14 33  1  0  0  0  0
 15 34  1  0  0  0  0
 15 35  1  0  0  0  0
 16 36  1  0  0  0  0
 20 37  1  0  0  0  0
M  END
> <POSIT::Probability>
0.01

> <POSIT::Method>
FRED

> <ReceptorTitle>
UCSF-P4578-REFINED_LIGAND-BOUND-STATE_A__DU__LA1_A-201(A)

> <OMEGA_C>
yUNGwiaH6sHSIOQ/IR8vwvTC3sFL3ms/XNRHwuRH88FEWIE/HnZBwk3a6sEGZh9AEfMwwgxt6cFS
yYo/uPopwvU93sHXjbU/usk/whKu/MH93tM/cJdEwvZa/MEcZXI/MDk+wmDt88EoUxtA/9sswjsR
78HZg9Y/Q70jwoJK9cHtkTJAbycswjba+cHgKQZAe4EwwkjgAMIlovU/Myc2wrifCMJQ6NM9E0g8
wqNBA8IrOcs/0y44wrkIA8LM9eM+2+0jwoY468HLdBxAkrYnwnLv/MGaAilAxKQowoo66ME3HfA/
U6szwuCC/8HaSlM/dfwwwiidBMJQtyxA0q5GwgyAA8KAHLK8BU84wqP788Ena1RAzMhIwhp248H6
kOo/wU8xwqAp2MH8j/k+U5ZLwt7l8sFyaO4+mE1Awvz148HakEVA6NE0wmSG7MH2Z0w/vy8nwoCn
18Fd4b0/4AIgwjgp+MHSdVBAb0k0wjiBCsIGiXk/N3I5wqwxC8L+r2i+FzIzwu6ACMK/jjS/R0A6
wqzTA8KWSSNAiOM+ws3BBsKIWLs//gM6wpRMAcIy+ea+SeUywnb4+MGdK4I+

> <OMEGA_E>
ALL3wA==

> <OMEGA_NBR>
    166898

$$$$
CACHE3HI_1712_52
  -OEChem-03092622533D

 43 45  0     0  0  0  0  0  0999 V2000
  -51.4602  -31.3240    8.1777 C   0  0  0  0  0  0  0  0  0  0  0  0
  -52.5755  -30.7739    8.8094 C   0  0  0  0  0  0  0  0  0  0  0  0
  -51.2262  -31.0655    6.8272 C   0  0  0  0  0  0  0  0  0  0  0  0
  -53.7400  -27.1634    8.6316 C   0  0  0  0  0  0  0  0  0  0  0  0
  -53.2225  -29.7068    6.7405 C   0  0  0  0  0  0  0  0  0  0  0  0
  -54.9127  -27.9585   10.5752 C   0  0  0  0  0  0  0  0  0  0  0  0
  -53.6208  -25.9395    9.2709 C   0  0  0  0  0  0  0  0  0  0  0  0
  -47.6583  -30.1169    3.9755 C   0  0  0  0  0  0  0  0  0  0  0  0
  -49.0078  -30.1784    3.5790 C   0  0  0  0  0  0  0  0  0  0  0  0
  -53.4565  -29.9653    8.0911 C   0  0  0  0  0  0  0  0  0  0  0  0
  -52.1072  -30.2569    6.1088 C   0  0  0  0  0  0  0  0  0  0  0  0
  -54.3997  -28.1866    9.3033 C   0  0  0  0  0  0  0  0  0  0  0  0
  -54.7411  -26.6995   11.1277 C   0  0  0  0  0  0  0  0  0  0  0  0
  -49.6450  -29.2718    4.3910 C   0  0  0  0  0  0  0  0  0  0  0  0
  -55.2579  -26.4039   12.4530 C   0  0  0  0  0  0  0  0  0  0  0  0
  -49.5984  -31.0271    2.5310 C   0  0  0  0  0  0  0  0  0  0  0  0
  -48.8502  -27.7439    6.2213 C   0  0  0  0  0  0  0  0  0  0  0  0
  -51.0853  -28.8611    4.4764 C   0  0  0  0  0  0  0  0  0  0  0  0
  -54.1062  -25.6808   10.5060 N   0  0  0  0  0  0  0  0  0  0  0  0
  -47.4498  -29.2408    4.9618 N   0  0  0  0  0  0  0  0  0  0  0  0
  -48.6765  -28.7431    5.1926 N   0  0  0  0  0  0  0  0  0  0  0  0
  -55.0559  -25.1219   12.9571 N   0  0  0  0  0  0  0  0  0  0  0  0
  -55.8766  -27.2572   13.1144 O   0  0  0  0  0  0  0  0  0  0  0  0
  -54.5444  -29.4285    8.7081 O   0  0  0  0  0  0  0  0  0  0  0  0
  -51.8781  -30.0052    4.7909 O   0  0  0  0  0  0  0  0  0  0  0  0
  -50.7747  -31.9533    8.7377 H   0  0  0  0  0  0  0  0  0  0  0  0
  -52.7528  -30.9788    9.8617 H   0  0  0  0  0  0  0  0  0  0  0  0
  -50.3557  -31.4965    6.3402 H   0  0  0  0  0  0  0  0  0  0  0  0
  -53.3282  -27.3131    7.6397 H   0  0  0  0  0  0  0  0  0  0  0  0
  -53.9087  -29.0767    6.1802 H   0  0  0  0  0  0  0  0  0  0  0  0
  -55.4305  -28.7459   11.1140 H   0  0  0  0  0  0  0  0  0  0  0  0
  -53.1138  -25.1091    8.7907 H   0  0  0  0  0  0  0  0  0  0  0  0
  -46.8169  -30.6743    3.5891 H   0  0  0  0  0  0  0  0  0  0  0  0
  -49.9356  -32.0032    2.9241 H   0  0  0  0  0  0  0  0  0  0  0  0
  -48.8775  -31.2588    1.7260 H   0  0  0  0  0  0  0  0  0  0  0  0
  -50.4711  -30.5387    2.0639 H   0  0  0  0  0  0  0  0  0  0  0  0
  -49.0644  -28.2112    7.1883 H   0  0  0  0  0  0  0  0  0  0  0  0
  -49.6779  -27.0773    5.9597 H   0  0  0  0  0  0  0  0  0  0  0  0
  -47.9403  -27.1475    6.3444 H   0  0  0  0  0  0  0  0  0  0  0  0
  -51.2286  -28.1017    5.2524 H   0  0  0  0  0  0  0  0  0  0  0  0
  -51.4272  -28.4385    3.5249 H   0  0  0  0  0  0  0  0  0  0  0  0
  -54.5830  -24.3958   12.4301 H   0  0  0  0  0  0  0  0  0  0  0  0
  -55.4073  -24.8493   13.8690 H   0  0  0  0  0  0  0  0  0  0  0  0
  1  2  1  0  0  0  0
  1  3  2  0  0  0  0
  2 10  2  0  0  0  0
  3 11  1  0  0  0  0
  4  7  2  0  0  0  0
  4 12  1  0  0  0  0
  5 10  1  0  0  0  0
  5 11  2  0  0  0  0
  6 12  2  0  0  0  0
  6 13  1  0  0  0  0
  7 19  1  0  0  0  0
  8  9  1  0  0  0  0
  8 20  2  0  0  0  0
  9 14  2  0  0  0  0
  9 16  1  0  0  0  0
 10 24  1  0  0  0  0
 11 25  1  0  0  0  0
 12 24  1  0  0  0  0
 13 15  1  0  0  0  0
 13 19  2  0  0  0  0
 14 18  1  0  0  0  0
 14 21  1  0  0  0  0
 15 22  1  0  0  0  0
 15 23  2  0  0  0  0
 17 21  1  0  0  0  0
 18 25  1  0  0  0  0
 20 21  1  0  0  0  0
  1 26  1  0  0  0  0
  2 27  1  0  0  0  0
  3 28  1  0  0  0  0
  4 29  1  0  0  0  0
  5 30  1  0  0  0  0
  6 31  1  0  0  0  0
  7 32  1  0  0  0  0
  8 33  1  0  0  0  0
 16 34  1  0  0  0  0
 16 35  1  0  0  0  0
 16 36  1  0  0  0  0
 17 37  1  0  0  0  0
 17 38  1  0  0  0  0
 17 39  1  0  0  0  0
 18 40  1  0  0  0  0
 18 41  1  0  0  0  0
 22 42  1  0  0  0  0
 22 43  1  0  0  0  0
M  END
> <POSIT::Probability>
0.14

> <POSIT::Method>
HYBRID

> <ReceptorTitle>
UCSF-P4578-REFINED_LIGAND-BOUND-STATE_A__DU__LA1_A-201(A)

> <OMEGA_C>
OtdNwo+X+sG41wJBU01SwvQw9sF38wxBnedMwiyG+MEXeNpAw/VWwrFO2cEWGwpBzONUwpqn7cEc
stdAn6Zbwu6q38EpNClBqXtWwgmEz8HJVRRBJaI+wmDv8MHgbX5A9gdEwkZt8cHsDmVAb9NVwvq4
78HydAFBum1QwjEO8sEQe8NAS5lZwip+4cEw2hRB7PZawn+Y1cEdCzJBepRGwrcs6sHCgoxAIAhd
wkQ708GdP0dBv2RGwog3+MH4+yFAoGZDwpXz3cGUFMdAWldMwobj5sHgPo9Au2xYwkJyzcF6GChB
kMw9wjLt6cH0xp5AwLRCwu7x5cEWKqZARzlcwpD5yMFEUE9BnYFfwtAO2sG11FFBfC1awo9t68FR
VAtBLINPwqcK8MHOTplASxlLwm6g/8GgzQtB4gJTwpbU98G4yR1BQWxJwtb4+8ES48pAElBVwjCB
2sERePRAd6JXwi2d6MFwxMVA27hdwoT35cHO0jFBf3RUwmrfyMHKpgxBi0Q7wvxk9cGIs2VABb5H
wkoDAMIcJTtAl4JDwhIS+sGw7dw/aOJJwj5P9ME0FwRA8UFEwoCw4cHwBuZAKLZGwl2e2MGPtb5A
1MI/wiEu2cH6BMtADupMwjrQ4MF+E6hAerVNwhSC48GQmGFAB1VawqQqw8HQ4UZBHqFdwk7LxsFW
511B

> <OMEGA_E>
iZ00wA==

> <OMEGA_NBR>
    168251

$$$$
CACHE3HI_1712_73
  -OEChem-03092622533D

 49 51  0     1  0  0  0  0  0999 V2000
  -55.5967  -27.9729   13.3963 C   0  0  0  0  0  0  0  0  0  0  0  0
  -54.3206  -25.7948   10.6601 C   0  0  0  0  0  0  0  0  0  0  0  0
  -54.7659  -26.2146   11.9135 C   0  0  0  0  0  0  0  0  0  0  0  0
  -54.2511  -26.7041    9.6047 C   0  0  0  0  0  0  0  0  0  0  0  0
  -55.0726  -28.4526   11.0561 C   0  0  0  0  0  0  0  0  0  0  0  0
  -55.1420  -27.5433   12.1115 C   0  0  0  0  0  0  0  0  0  0  0  0
  -54.6272  -28.0327    9.8027 C   0  0  0  0  0  0  0  0  0  0  0  0
  -51.1549  -29.6048    6.1230 C   0  0  0  0  0  0  0  0  0  0  0  0
  -48.9308  -30.4846    4.2738 C   0  0  0  0  0  0  0  0  0  0  0  0
  -52.4469  -29.9190    9.5602 C   0  0  0  0  0  0  0  0  0  0  0  0
  -47.4027  -29.2686    5.8530 C   0  0  0  0  0  0  0  0  0  0  0  0
  -47.8521  -30.3518    3.2000 C   0  0  0  0  0  0  0  0  0  0  0  0
  -51.5176  -29.2496    8.5590 C   0  0  0  0  0  0  0  0  0  0  0  0
  -53.2226  -30.4588    7.3635 C   0  0  0  0  0  0  0  0  0  0  0  0
  -48.8265  -29.3537    5.2972 C   0  0  2  0  0  0  0  0  0  0  0  0
  -53.7376  -30.1452    8.7684 C   0  0  2  0  0  0  0  0  0  0  0  0
  -46.3745  -29.1692    4.7160 C   0  0  1  0  0  0  0  0  0  0  0  0
  -44.9532  -29.1561    5.2761 C   0  0  0  0  0  0  0  0  0  0  0  0
  -55.9658  -28.3218   14.4398 N   0  0  0  0  0  0  0  0  0  0  0  0
  -46.5138  -30.2982    3.7879 N   0  0  0  0  0  0  0  0  0  0  0  0
  -51.9334  -29.7730    7.2658 N   0  0  0  0  0  0  0  0  0  0  0  0
  -54.5592  -28.9366    8.7517 N   0  0  0  0  0  0  0  0  0  0  0  0
  -49.7867  -29.5304    6.3609 N   0  0  0  0  0  0  0  0  0  0  0  0
  -51.6411  -29.5255    4.9909 O   0  0  0  0  0  0  0  0  0  0  0  0
  -44.7934  -28.1091    6.0993 F   0  0  0  0  0  0  0  0  0  0  0  0
  -44.0659  -29.0615    4.2747 F   0  0  0  0  0  0  0  0  0  0  0  0
  -44.7187  -30.2861    5.9598 F   0  0  0  0  0  0  0  0  0  0  0  0
  -54.0271  -24.7603   10.5062 H   0  0  0  0  0  0  0  0  0  0  0  0
  -54.8141  -25.4941   12.7267 H   0  0  0  0  0  0  0  0  0  0  0  0
  -53.9041  -26.3663    8.6315 H   0  0  0  0  0  0  0  0  0  0  0  0
  -55.3644  -29.4901   11.2065 H   0  0  0  0  0  0  0  0  0  0  0  0
  -49.9186  -30.4729    3.7977 H   0  0  0  0  0  0  0  0  0  0  0  0
  -48.8260  -31.4564    4.7745 H   0  0  0  0  0  0  0  0  0  0  0  0
  -52.0299  -30.8564    9.9529 H   0  0  0  0  0  0  0  0  0  0  0  0
  -52.6220  -29.2432   10.4118 H   0  0  0  0  0  0  0  0  0  0  0  0
  -47.3121  -28.3924    6.5075 H   0  0  0  0  0  0  0  0  0  0  0  0
  -47.1909  -30.1526    6.4704 H   0  0  0  0  0  0  0  0  0  0  0  0
  -47.9067  -31.2089    2.5200 H   0  0  0  0  0  0  0  0  0  0  0  0
  -48.0276  -29.4568    2.5910 H   0  0  0  0  0  0  0  0  0  0  0  0
  -51.5940  -28.1581    8.5847 H   0  0  0  0  0  0  0  0  0  0  0  0
  -50.4739  -29.5414    8.7223 H   0  0  0  0  0  0  0  0  0  0  0  0
  -53.1029  -31.5342    7.1796 H   0  0  0  0  0  0  0  0  0  0  0  0
  -53.8677  -30.0422    6.5767 H   0  0  0  0  0  0  0  0  0  0  0  0
  -49.0811  -28.4035    4.8123 H   0  0  0  0  0  0  0  0  0  0  0  0
  -54.3033  -30.9715    9.1700 H   0  0  0  0  0  0  0  0  0  0  0  0
  -46.5280  -28.2320    4.1657 H   0  0  0  0  0  0  0  0  0  0  0  0
  -46.3346  -31.1690    4.2885 H   0  0  0  0  0  0  0  0  0  0  0  0
  -55.1148  -28.7422    7.9233 H   0  0  0  0  0  0  0  0  0  0  0  0
  -49.4522  -29.6027    7.3152 H   0  0  0  0  0  0  0  0  0  0  0  0
  1  6  1  0  0  0  0
  1 19  3  0  0  0  0
  2  3  1  0  0  0  0
  2  4  2  0  0  0  0
  3  6  2  0  0  0  0
  4  7  1  0  0  0  0
  5  6  1  0  0  0  0
  5  7  2  0  0  0  0
  7 22  1  0  0  0  0
  8 21  1  0  0  0  0
  8 23  1  0  0  0  0
  8 24  2  0  0  0  0
  9 12  1  0  0  0  0
  9 15  1  0  0  0  0
 10 13  1  0  0  0  0
 10 16  1  0  0  0  0
 11 15  1  0  0  0  0
 11 17  1  0  0  0  0
 12 20  1  0  0  0  0
 13 21  1  0  0  0  0
 14 16  1  0  0  0  0
 14 21  1  0  0  0  0
 15 23  1  0  0  0  0
 16 22  1  0  0  0  0
 17 18  1  0  0  0  0
 17 20  1  0  0  0  0
 18 25  1  0  0  0  0
 18 26  1  0  0  0  0
 18 27  1  0  0  0  0
  2 28  1  0  0  0  0
  3 29  1  0  0  0  0
  4 30  1  0  0  0  0
  5 31  1  0  0  0  0
  9 32  1  0  0  0  0
  9 33  1  0  0  0  0
 10 34  1  0  0  0  0
 10 35  1  0  0  0  0
 11 36  1  0  0  0  0
 11 37  1  0  0  0  0
 12 38  1  0  0  0  0
 12 39  1  0  0  0  0
 13 40  1  0  0  0  0
 13 41  1  0  0  0  0
 14 42  1  0  0  0  0
 14 43  1  0  0  0  0
 15 44  1  0  0  0  0
 16 45  1  0  0  0  0
 17 46  1  0  0  0  0
 20 47  1  0  0  0  0
 22 48  1  0  0  0  0
 23 49  1  0  0  0  0
M  END
> <POSIT::Probability>
0.23

> <POSIT::Method>
HYBRID

> <ReceptorTitle>
UCSF-P4578-REFINED_LIGAND-BOUND-STATE_A__DU__LA1_A-201(A)

> <OMEGA_C>
/WJewmvI38FaV1ZBQUhZwrVbzsGXjypBTxBbwoi30cGpnT5BKAFZwu+h1cHNrBlBVEpcwuSe48Gv
5TBBcJFcwqBY3MG2yEFBSYJawglD4MHc1xxBl55MwrbW7MFL78NAJblDwmLg88G+wohAmclRwjZa
78Fu9hhBVZw9wgom6sEoTLtAiGg/wnbQ8sH8zExABRJOwj//6cGA8QhB8ONUwoer88F+oetAVE5D
wnjU6sFsgqlAVfNWwnAp8cEzSwxBf385woFa6cFY6ZZADdAzwrU/6cHM1ahA7txfwvqS4sGTCWdB
Iw46wr5i8sGAbHJAz7tPwgwv7sGjgehAoDxawhl+58HaBgxBjiVHwjI+7MHmjMtAcZBOwic07MEg
tZ9AcCwzwonf4MElLcNAb0Mwwuh96MEKyohA/t8ywuZJ8sHJtr5AvRtYwv4UxsFLGShBq0Fbwunz
y8GNoEtB1Z1XwiHu0sG2GgpBGXVdwsnr68GzTTNBn6xHwnHI88EkDXNAzU1Dwrqm+8FryJhAqR5Q
wtLZ9sE/Px9B5nxSwgLy6cHXliZBjT89wpoj48FIPdBAgMM8woI48cHVDc9Ag6A/wsir+cHGRyFA
UBxAwp+n68Eg0iVAS2BOwrdD4cHFWglBReVJwthU7MGSjgtBYmlUwvhF/MFov+VAiHhXwlVW8MEn
dNJAE1NEwm0648E5/plAijZZwpzF98FDuBJBoBw6whbb4cF8TYVAmFY5wiZa+cGrO4lAjnVcwgzw
5cG2i/1AFM9FwlLS7MHdFepA

> <OMEGA_E>
/wuxwA==

> <OMEGA_NBR>
    169734

$$$$
CACHE3HI_1712_74
  -OEChem-03092622533D

 46 48  0     0  0  0  0  0  0999 V2000
  -51.8500  -31.9046   11.1850 C   0  0  0  0  0  0  0  0  0  0  0  0
  -45.8843  -30.0669    2.9919 C   0  0  0  0  0  0  0  0  0  0  0  0
  -44.5485  -29.7063    2.8149 C   0  0  0  0  0  0  0  0  0  0  0  0
  -51.5170  -30.9002    8.8683 C   0  0  0  0  0  0  0  0  0  0  0  0
  -45.1905  -28.1933    1.0440 C   0  0  0  0  0  0  0  0  0  0  0  0
  -52.4978  -29.6225   10.4420 C   0  0  0  0  0  0  0  0  0  0  0  0
  -51.9486  -30.8659   10.2174 C   0  0  0  0  0  0  0  0  0  0  0  0
  -46.8732  -29.4904    2.1949 C   0  0  0  0  0  0  0  0  0  0  0  0
  -44.2016  -28.7698    1.8410 C   0  0  0  0  0  0  0  0  0  0  0  0
  -46.5263  -28.5539    1.2210 C   0  0  0  0  0  0  0  0  0  0  0  0
  -51.8159  -29.6772    8.3096 C   0  0  0  0  0  0  0  0  0  0  0  0
  -48.2856  -29.8752    2.3844 C   0  0  0  0  0  0  0  0  0  0  0  0
  -51.5559  -29.2296    6.9177 C   0  0  0  0  0  0  0  0  0  0  0  0
  -48.3422  -29.0958    4.8705 C   0  0  0  0  0  0  0  0  0  0  0  0
  -50.2107  -29.7473    4.0672 C   0  0  0  0  0  0  0  0  0  0  0  0
  -49.8122  -28.7967    5.2074 C   0  0  0  0  0  0  0  0  0  0  0  0
  -52.8825  -27.5516    9.1064 C   0  0  0  0  0  0  0  0  0  0  0  0
  -41.9386  -29.0444    2.5197 C   0  0  0  0  0  0  0  0  0  0  0  0
  -41.9924  -30.5390    2.2958 C   0  0  0  0  0  0  0  0  0  0  0  0
  -51.7697  -32.7517   11.9742 N   0  0  0  0  0  0  0  0  0  0  0  0
  -52.4116  -28.9088    9.2751 N   0  0  0  0  0  0  0  0  0  0  0  0
  -48.8333  -29.6420    3.6184 N   0  0  0  0  0  0  0  0  0  0  0  0
  -50.2308  -29.2306    6.5316 N   0  0  0  0  0  0  0  0  0  0  0  0
  -48.8919  -30.3591    1.4328 O   0  0  0  0  0  0  0  0  0  0  0  0
  -52.4991  -28.8758    6.2151 O   0  0  0  0  0  0  0  0  0  0  0  0
  -42.8981  -28.4174    1.6696 O   0  0  0  0  0  0  0  0  0  0  0  0
  -47.4685  -27.9950    0.4482 F   0  0  0  0  0  0  0  0  0  0  0  0
  -41.0544  -31.1308    3.0858 F   0  0  0  0  0  0  0  0  0  0  0  0
  -46.1427  -30.7982    3.7535 H   0  0  0  0  0  0  0  0  0  0  0  0
  -43.7820  -30.1587    3.4384 H   0  0  0  0  0  0  0  0  0  0  0  0
  -51.0404  -31.7267    8.3572 H   0  0  0  0  0  0  0  0  0  0  0  0
  -44.9269  -27.4631    0.2840 H   0  0  0  0  0  0  0  0  0  0  0  0
  -52.9408  -29.1861   11.3281 H   0  0  0  0  0  0  0  0  0  0  0  0
  -47.7089  -28.2121    4.7589 H   0  0  0  0  0  0  0  0  0  0  0  0
  -47.8426  -29.8481    5.4885 H   0  0  0  0  0  0  0  0  0  0  0  0
  -50.4797  -30.7690    4.3516 H   0  0  0  0  0  0  0  0  0  0  0  0
  -50.9396  -29.3443    3.3598 H   0  0  0  0  0  0  0  0  0  0  0  0
  -50.0963  -27.7537    5.0212 H   0  0  0  0  0  0  0  0  0  0  0  0
  -52.0929  -26.8311    9.3448 H   0  0  0  0  0  0  0  0  0  0  0  0
  -53.7386  -27.3681    9.7631 H   0  0  0  0  0  0  0  0  0  0  0  0
  -53.1853  -27.3690    8.0701 H   0  0  0  0  0  0  0  0  0  0  0  0
  -42.1871  -28.8014    3.5568 H   0  0  0  0  0  0  0  0  0  0  0  0
  -40.9482  -28.6501    2.2738 H   0  0  0  0  0  0  0  0  0  0  0  0
  -41.7665  -30.8055    1.2591 H   0  0  0  0  0  0  0  0  0  0  0  0
  -42.9667  -30.9460    2.5780 H   0  0  0  0  0  0  0  0  0  0  0  0
  -49.4960  -29.4742    7.1799 H   0  0  0  0  0  0  0  0  0  0  0  0
  1  7  1  0  0  0  0
  1 20  3  0  0  0  0
  2  3  2  0  0  0  0
  2  8  1  0  0  0  0
  3  9  1  0  0  0  0
  4  7  1  0  0  0  0
  4 11  2  0  0  0  0
  5  9  2  0  0  0  0
  5 10  1  0  0  0  0
  6  7  2  0  0  0  0
  6 21  1  0  0  0  0
  8 10  2  0  0  0  0
  8 12  1  0  0  0  0
  9 26  1  0  0  0  0
 10 27  1  0  0  0  0
 11 13  1  0  0  0  0
 11 21  1  0  0  0  0
 12 22  1  0  0  0  0
 12 24  2  0  0  0  0
 13 23  1  0  0  0  0
 13 25  2  0  0  0  0
 14 16  1  0  0  0  0
 14 22  1  0  0  0  0
 15 16  1  0  0  0  0
 15 22  1  0  0  0  0
 16 23  1  0  0  0  0
 17 21  1  0  0  0  0
 18 19  1  0  0  0  0
 18 26  1  0  0  0  0
 19 28  1  0  0  0  0
  2 29  1  0  0  0  0
  3 30  1  0  0  0  0
  4 31  1  0  0  0  0
  5 32  1  0  0  0  0
  6 33  1  0  0  0  0
 14 34  1  0  0  0  0
 14 35  1  0  0  0  0
 15 36  1  0  0  0  0
 15 37  1  0  0  0  0
 16 38  1  0  0  0  0
 17 39  1  0  0  0  0
 17 40  1  0  0  0  0
 17 41  1  0  0  0  0
 18 42  1  0  0  0  0
 18 43  1  0  0  0  0
 19 44  1  0  0  0  0
 19 45  1  0  0  0  0
 23 46  1  0  0  0  0
M  END
> <POSIT::Probability>
0.05

> <POSIT::Method>
FRED

> <ReceptorTitle>
UCSF-P4578-REFINED_LIGAND-BOUND-STATE_A__DU__LA1_A-201(A)

> <OMEGA_C>
ZGZPwpo8/8Hn9TJBjIk3wgqJ8MHEez9AsDEywpGm7cH2JzRAaRFOwrAz98Gu5A1BF8M0wtKL4cHm
oYU/yv1Rwvb67MGeEidBaMtPwlDt9sGJeiNBJ347wmjs68FYeQxAbc4wwngo5sFap+s/4xo6wlBu
5MEeSpw/dUNPwt5q7cH88wRBfSRBwmAA78E6mhhASTlOwi/W6cGQXd1Abl5BwkTE6MFW25tAx9dI
wob67cG5JoJAuT9Hwotf5sFso6ZAs4dTwrRp3MHYsxFBIMEnwtda6MGoQiFAMPgnwthP9MGg7RJA
KxRPwsUBA8JJlj9BfKVRwiRF58HyZhRBUlVDwsAi7cE5k2dAX+xIwknY6cGJAtFAW5FDwoHf8sGc
Zrc/Ef9RwpIB58H+4cZAsJcrws1W48HQtdU/vt89wsX138EIgOU+vjckwtYL+cEBfUVAK5I4wsBi
9sEjOXBAzSAvwghF8cHPDlxAVilMwlPQ/cEbtwVBLLUzwm6028HYYpE+W8NTwjl96cHaPzVB79U+
wnay4cHCSJhA3F4/wvvI7sGXoa9AP+tJwgIn9sGlQItAM8JLwhrB6sHMBldAnmJIwqwH3sGiraBA
K19Qwgem1sEchBVBW/RWwsrx2sGYNRxBwb1Uwsnz2sFBHwFBlb8owkJp5sFio2NA8cojwnwz5cEY
hhFA7RAnwpxx9sEmK6E/7t0rwmSR98GS/SRA3ftFwkDL68H0weVA

> <OMEGA_E>
vsAIwQ==

> <OMEGA_NBR>
    171143

$$$$
CACHE3HI_1714_13
  -OEChem-03092622533D

 52 57  0     1  0  0  0  0  0999 V2000
  -54.9391  -26.8182   11.2933 C   0  0  0  0  0  0  0  0  0  0  0  0
  -54.0707  -27.2357   12.3018 C   0  0  0  0  0  0  0  0  0  0  0  0
  -43.0673  -29.5863    3.4286 C   0  0  0  0  0  0  0  0  0  0  0  0
  -42.6178  -28.6867    2.4429 C   0  0  0  0  0  0  0  0  0  0  0  0
  -54.6710  -27.1441    9.9651 C   0  0  0  0  0  0  0  0  0  0  0  0
  -44.3826  -30.1482    3.4582 C   0  0  0  0  0  0  0  0  0  0  0  0
  -52.9301  -27.9810   11.9857 C   0  0  0  0  0  0  0  0  0  0  0  0
  -43.5071  -27.5968    0.4362 C   0  0  0  0  0  0  0  0  0  0  0  0
  -43.6180  -28.4256    1.5157 C   0  0  0  0  0  0  0  0  0  0  0  0
  -53.5293  -27.8880    9.6662 C   0  0  0  0  0  0  0  0  0  0  0  0
  -45.3793  -29.8612    2.4985 C   0  0  0  0  0  0  0  0  0  0  0  0
  -44.9571  -28.9641    1.4999 C   0  0  0  0  0  0  0  0  0  0  0  0
  -52.6473  -28.3162   10.6561 C   0  0  0  0  0  0  0  0  0  0  0  0
  -53.1918  -28.2621    8.2937 C   0  0  0  0  0  0  0  0  0  0  0  0
  -51.9381  -29.0650    8.0849 C   0  0  0  0  0  0  0  0  0  0  0  0
  -46.7277  -30.4488    2.5453 C   0  0  0  0  0  0  0  0  0  0  0  0
  -51.4825  -29.5079    6.7545 C   0  0  0  0  0  0  0  0  0  0  0  0
  -48.5345  -28.0127    4.5376 C   0  0  0  0  0  0  0  0  0  0  0  0
  -47.8842  -30.0075    5.6499 C   0  0  0  0  0  0  0  0  0  0  0  0
  -49.1382  -29.7071    3.0007 C   0  0  0  0  0  0  0  0  0  0  0  0
  -49.6440  -29.0449    4.2972 C   0  0  1  0  0  0  0  0  0  0  0  0
  -47.4302  -29.0689    4.5169 C   0  0  1  0  0  0  0  0  0  0  0  0
  -49.4220  -30.0325    5.4696 C   0  0  2  0  0  0  0  0  0  0  0  0
  -45.6185  -28.4665    0.4396 N   0  0  0  0  0  0  0  0  0  0  0  0
  -51.1753  -29.4192    9.0717 N   0  0  0  0  0  0  0  0  0  0  0  0
  -44.7283  -27.6591   -0.1698 N   0  0  0  0  0  0  0  0  0  0  0  0
  -51.5096  -29.0610   10.3304 N   0  0  0  0  0  0  0  0  0  0  0  0
  -47.6951  -29.7583    3.2498 N   0  0  0  0  0  0  0  0  0  0  0  0
  -50.1058  -29.6181    6.6675 N   0  0  0  0  0  0  0  0  0  0  0  0
  -53.8691  -27.9580    7.3271 O   0  0  0  0  0  0  0  0  0  0  0  0
  -46.9080  -31.5056    1.9444 O   0  0  0  0  0  0  0  0  0  0  0  0
  -52.2912  -29.7370    5.8624 O   0  0  0  0  0  0  0  0  0  0  0  0
  -55.8236  -26.2395   11.5434 H   0  0  0  0  0  0  0  0  0  0  0  0
  -54.2804  -26.9813   13.3370 H   0  0  0  0  0  0  0  0  0  0  0  0
  -42.3737  -29.8741    4.2184 H   0  0  0  0  0  0  0  0  0  0  0  0
  -41.6206  -28.2698    2.4334 H   0  0  0  0  0  0  0  0  0  0  0  0
  -55.3517  -26.8153    9.1855 H   0  0  0  0  0  0  0  0  0  0  0  0
  -44.6183  -30.8349    4.2716 H   0  0  0  0  0  0  0  0  0  0  0  0
  -52.2656  -28.2972   12.7863 H   0  0  0  0  0  0  0  0  0  0  0  0
  -42.7068  -26.9842    0.0452 H   0  0  0  0  0  0  0  0  0  0  0  0
  -48.4433  -27.2812    3.7273 H   0  0  0  0  0  0  0  0  0  0  0  0
  -48.6197  -27.4882    5.4946 H   0  0  0  0  0  0  0  0  0  0  0  0
  -47.4468  -31.0082    5.5653 H   0  0  0  0  0  0  0  0  0  0  0  0
  -47.5973  -29.5950    6.6246 H   0  0  0  0  0  0  0  0  0  0  0  0
  -49.5386  -30.7110    2.8322 H   0  0  0  0  0  0  0  0  0  0  0  0
  -49.3165  -29.0822    2.1192 H   0  0  0  0  0  0  0  0  0  0  0  0
  -50.6573  -28.6458    4.2169 H   0  0  0  0  0  0  0  0  0  0  0  0
  -46.4021  -28.7128    4.6051 H   0  0  0  0  0  0  0  0  0  0  0  0
  -49.7822  -31.0361    5.2284 H   0  0  0  0  0  0  0  0  0  0  0  0
  -45.0248  -27.1738   -1.0069 H   0  0  0  0  0  0  0  0  0  0  0  0
  -50.8974  -29.3509   11.0842 H   0  0  0  0  0  0  0  0  0  0  0  0
  -49.5350  -29.3881    7.4793 H   0  0  0  0  0  0  0  0  0  0  0  0
  1  2  1  0  0  0  0
  1  5  2  0  0  0  0
  2  7  2  0  0  0  0
  3  4  2  0  0  0  0
  3  6  1  0  0  0  0
  4  9  1  0  0  0  0
  5 10  1  0  0  0  0
  6 11  2  0  0  0  0
  7 13  1  0  0  0  0
  8  9  2  0  0  0  0
  8 26  1  0  0  0  0
  9 12  1  0  0  0  0
 10 13  2  0  0  0  0
 10 14  1  0  0  0  0
 11 12  1  0  0  0  0
 11 16  1  0  0  0  0
 12 24  2  0  0  0  0
 13 27  1  0  0  0  0
 14 15  1  0  0  0  0
 14 30  2  0  0  0  0
 15 17  1  0  0  0  0
 15 25  2  0  0  0  0
 16 28  1  0  0  0  0
 16 31  2  0  0  0  0
 17 29  1  0  0  0  0
 17 32  2  0  0  0  0
 18 21  1  0  0  0  0
 18 22  1  0  0  0  0
 19 22  1  0  0  0  0
 19 23  1  0  0  0  0
 20 21  1  0  0  0  0
 20 28  1  0  0  0  0
 21 23  1  0  0  0  0
 22 28  1  0  0  0  0
 23 29  1  0  0  0  0
 24 26  1  0  0  0  0
 25 27  1  0  0  0  0
  1 33  1  0  0  0  0
  2 34  1  0  0  0  0
  3 35  1  0  0  0  0
  4 36  1  0  0  0  0
  5 37  1  0  0  0  0
  6 38  1  0  0  0  0
  7 39  1  0  0  0  0
  8 40  1  0  0  0  0
 18 41  1  0  0  0  0
 18 42  1  0  0  0  0
 19 43  1  0  0  0  0
 19 44  1  0  0  0  0
 20 45  1  0  0  0  0
 20 46  1  0  0  0  0
 21 47  1  0  0  0  0
 22 48  1  0  0  0  0
 23 49  1  0  0  0  0
 26 50  1  0  0  0  0
 27 51  1  0  0  0  0
 29 52  1  0  0  0  0
M  END
> <POSIT::Probability>
0.24

> <POSIT::Method>
FRED

> <ReceptorTitle>
UCSF-P4578-REFINED_LIGAND-BOUND-STATE_A__DU__LA1_A-201(A)

> <OMEGA_C>
rcFbwqaL1sGPsTRBbkhYwp3i2cE+1ERB60Qswrqw7MHwbVtApHgqwkN+5cH3WBxAG69awjUn2cEa
cR9Bw4cxwmsv8cG1U11AbLhTwhDZ38FKxT9BQAcuwjDG3MGAVd8+3nguwoln48GcAsI/9h1WwqMa
38GYqBpBcIQ1wsTj7sEN5x9AB9Qzwou258FJ/r8/z5ZSwq2H4sFafypBccRUwrIY4sH8sgRBlsBP
wiGF6MHZWwFBIOk6wjeX88GI5iJADu5NwkQQ7MHSJNhAUyNCwvwZ4ME8NJFAbYk/wnUP8MHyy7RA
iY1EwhSo7cEGC0BAepNGwglc6MGagolAkrg9whSN6MG/ipBAKbBFwoFC8MECB69AYnk2wnu748Fw
E+E+fbNMwopa68GtJRFBzOkywtxF3cHQ3y2+1glOwuJ86ME2SSVByMc+wvYQ7sGy/E9ASmxIwuvx
7MH1W9VA9XlXwvmp38Hyd+pA06E7wnsL/ME14fg/MCpRwmDl7cGUmLtAVEtfwnvq0cGQsThBJx9Z
wsjZ18FEZFVBpH4pwjr+7sH1/IZAcnsmwqIo4sENvRtAHGhdwruF1sHm9xJBJXkywt+t9sG6sIhA
BhBRwpRg4sHZlExBvtMqwq7f18EAWDk95cVBwus/2sGei25Ah3pCwtvn28Eg1K9Aj8k9wtQQ+ME+
F7JAl2M+wpPC7MFY/NNAkydGwjqw9cFOQjVAEURFwmKo6ME2oAdAB6FKwosq5cHm8IZAxJs5wrez
5cHyXJNAAyFHwvlJ+MHkTqdAbBk0wu5j2cEo44C/8ZZLwrHO6sEDWTFB1iNGwtoa68GEVu9A

> <OMEGA_E>
6W0XwQ==

> <OMEGA_NBR>
    172688

$$$$
CACHE3HI_1714_17
  -OEChem-03092622533D

 49 53  0     1  0  0  0  0  0999 V2000
  -55.7231  -25.2170   13.3740 C   0  0  0  0  0  0  0  0  0  0  0  0
  -43.9950  -29.3473    3.1812 C   0  0  0  0  0  0  0  0  0  0  0  0
  -55.9474  -26.3843   14.1013 C   0  0  0  0  0  0  0  0  0  0  0  0
  -43.4631  -29.1864    4.4605 C   0  0  0  0  0  0  0  0  0  0  0  0
  -55.3048  -25.2888   12.0446 C   0  0  0  0  0  0  0  0  0  0  0  0
  -45.3672  -29.5259    3.0154 C   0  0  0  0  0  0  0  0  0  0  0  0
  -55.7496  -27.6297   13.5044 C   0  0  0  0  0  0  0  0  0  0  0  0
  -44.3020  -29.2036    5.5796 C   0  0  0  0  0  0  0  0  0  0  0  0
  -55.1014  -26.5363   11.4465 C   0  0  0  0  0  0  0  0  0  0  0  0
  -46.1905  -29.5407    4.1416 C   0  0  0  0  0  0  0  0  0  0  0  0
  -55.3150  -27.7121   12.1774 C   0  0  0  0  0  0  0  0  0  0  0  0
  -45.6825  -29.3819    5.4292 C   0  0  0  0  0  0  0  0  0  0  0  0
  -47.6370  -29.7239    4.0352 C   0  0  0  0  0  0  0  0  0  0  0  0
  -54.6983  -26.6061   10.0208 C   0  0  0  0  0  0  0  0  0  0  0  0
  -48.4293  -29.7231    5.3129 C   0  0  0  0  0  0  0  0  0  0  0  0
  -49.8929  -29.8971    5.3483 C   0  0  0  0  0  0  0  0  0  0  0  0
  -53.8487  -30.0912    9.6537 C   0  0  0  0  0  0  0  0  0  0  0  0
  -55.1163  -29.0372   11.5076 C   0  0  0  0  0  0  0  0  0  0  0  0
  -52.1302  -31.0461    8.0128 C   0  0  0  0  0  0  0  0  0  0  0  0
  -52.3861  -28.9282    7.8519 C   0  0  0  0  0  0  0  0  0  0  0  0
  -53.9899  -28.8751   10.5065 C   0  0  2  0  0  0  0  0  0  0  0  0
  -51.8092  -30.0104    6.9249 C   0  0  0  0  0  0  0  0  0  0  0  0
  -47.8674  -29.5680    6.4710 N   0  0  0  0  0  0  0  0  0  0  0  0
  -46.5290  -29.4004    6.5419 N   0  0  0  0  0  0  0  0  0  0  0  0
  -52.9345  -30.0141    8.6390 N   0  0  0  0  0  0  0  0  0  0  0  0
  -50.3909  -29.8606    6.6293 N   0  0  0  0  0  0  0  0  0  0  0  0
  -48.2205  -29.8745    2.9758 O   0  0  0  0  0  0  0  0  0  0  0  0
  -54.7581  -25.6261    9.2907 O   0  0  0  0  0  0  0  0  0  0  0  0
  -50.5280  -30.0527    4.3115 O   0  0  0  0  0  0  0  0  0  0  0  0
  -54.5435  -31.0736    9.8921 O   0  0  0  0  0  0  0  0  0  0  0  0
  -54.2867  -27.8231    9.5711 O   0  0  0  0  0  0  0  0  0  0  0  0
  -55.8797  -24.2488   13.8410 H   0  0  0  0  0  0  0  0  0  0  0  0
  -43.3399  -29.3335    2.3150 H   0  0  0  0  0  0  0  0  0  0  0  0
  -56.2797  -26.3247   15.1338 H   0  0  0  0  0  0  0  0  0  0  0  0
  -42.3934  -29.0472    4.5890 H   0  0  0  0  0  0  0  0  0  0  0  0
  -55.1447  -24.3661   11.4937 H   0  0  0  0  0  0  0  0  0  0  0  0
  -45.7737  -29.6507    2.0162 H   0  0  0  0  0  0  0  0  0  0  0  0
  -55.9335  -28.5325   14.0808 H   0  0  0  0  0  0  0  0  0  0  0  0
  -43.8680  -29.0762    6.5685 H   0  0  0  0  0  0  0  0  0  0  0  0
  -54.8654  -29.8183   12.2344 H   0  0  0  0  0  0  0  0  0  0  0  0
  -56.0546  -29.3206   11.0146 H   0  0  0  0  0  0  0  0  0  0  0  0
  -52.7058  -31.9114    7.6747 H   0  0  0  0  0  0  0  0  0  0  0  0
  -51.2966  -31.3670    8.6446 H   0  0  0  0  0  0  0  0  0  0  0  0
  -51.6623  -28.3283    8.4118 H   0  0  0  0  0  0  0  0  0  0  0  0
  -53.1390  -28.2836    7.3918 H   0  0  0  0  0  0  0  0  0  0  0  0
  -53.0234  -28.6640   10.9794 H   0  0  0  0  0  0  0  0  0  0  0  0
  -52.3936  -30.1508    6.0076 H   0  0  0  0  0  0  0  0  0  0  0  0
  -46.1142  -29.2803    7.4588 H   0  0  0  0  0  0  0  0  0  0  0  0
  -49.7730  -29.7369    7.4201 H   0  0  0  0  0  0  0  0  0  0  0  0
  1  3  1  0  0  0  0
  1  5  2  0  0  0  0
  2  4  1  0  0  0  0
  2  6  2  0  0  0  0
  3  7  2  0  0  0  0
  4  8  2  0  0  0  0
  5  9  1  0  0  0  0
  6 10  1  0  0  0  0
  7 11  1  0  0  0  0
  8 12  1  0  0  0  0
  9 11  2  0  0  0  0
  9 14  1  0  0  0  0
 10 12  2  0  0  0  0
 10 13  1  0  0  0  0
 11 18  1  0  0  0  0
 12 24  1  0  0  0  0
 13 15  1  0  0  0  0
 13 27  2  0  0  0  0
 14 28  2  0  0  0  0
 14 31  1  0  0  0  0
 15 16  1  0  0  0  0
 15 23  2  0  0  0  0
 16 26  1  0  0  0  0
 16 29  2  0  0  0  0
 17 21  1  0  0  0  0
 17 25  1  0  0  0  0
 17 30  2  0  0  0  0
 18 21  1  0  0  0  0
 19 22  1  0  0  0  0
 19 25  1  0  0  0  0
 20 22  1  0  0  0  0
 20 25  1  0  0  0  0
 21 31  1  0  0  0  0
 22 26  1  0  0  0  0
 23 24  1  0  0  0  0
  1 32  1  0  0  0  0
  2 33  1  0  0  0  0
  3 34  1  0  0  0  0
  4 35  1  0  0  0  0
  5 36  1  0  0  0  0
  6 37  1  0  0  0  0
  7 38  1  0  0  0  0
  8 39  1  0  0  0  0
 18 40  1  0  0  0  0
 18 41  1  0  0  0  0
 19 42  1  0  0  0  0
 19 43  1  0  0  0  0
 20 44  1  0  0  0  0
 20 45  1  0  0  0  0
 21 46  1  0  0  0  0
 22 47  1  0  0  0  0
 24 48  1  0  0  0  0
 26 49  1  0  0  0  0
M  END
> <POSIT::Probability>
0.33

> <POSIT::Method>
HYBRID

> <ReceptorTitle>
UCSF-P4578-REFINED_LIGAND-BOUND-STATE_A__DU__LA1_A-201(A)

> <OMEGA_C>
c+RewnC8ycHE+1VB2PovwlzH6sEGmEtAGcpfwgwT08EWn2FBQ9otws596cE5vI5AIDhdwnRPysG2
tkBBAng1wvI07MFA/EBAmf9ewrcJ3cHdEVhBSDUxwvCg6cFAjLJAymdcwlBK1MHaJDdBCcM4wkdT
7MHSh4RAjkJdwlKy3cGs1kJB57o2wiMO68FBvK1AUIw+wnPK7cErIIFABMtawl7Z1MFMVSBBjrdB
wuTI7cFVA6pAV5JHwkUt78EnJatAEGVXwri68MGEdRpBDndcwjhM6MEuHzhBSoVQwnJe+MFQNABB
W4tRwgZt58EPQ/tArPVXwk4A58HDGihBoTxPwkMV8MHQmN1AM3g/wkCL7MG+Es9Asx06wvwz68GV
V9FA9bxTwuwc8MGGOQpBVZBJwnvi7sFEI9RAwuFAwgH/7sGgcz5ARQhbwi0CzcGBphRBpBxKwuVr
8MEA+IlAjSxawsyW+MEsRh5BmiVZwrCV3sEsIxlB3YRfwnz9wcGIdF1BBlwtwhCr6sGIKBRAah5h
whCZ0sH6I3JB3JIpwqVg6MGx2JJALpRcwr3twsEk5jdBTRg3wrg07cHZCQFA9LtfwolC5MEkS2FB
0ngvwhec6MFWMdJAKHZbwvqL7sEiwENB5TdgwoaQ6sH8OzBBxtJSwnxK/8HklvVAuC9NwqLv+sEq
UApBNKZOwmig4sGqlgZBU45UwrZE4sHciexA9hdUwtdP5cGyqy9BApNRwsI08cFHPsBA7XQ4wg8+
6sGtru5AhhdHwiDl7cFKce1A

> <OMEGA_E>
Kpn1wA==

> <OMEGA_NBR>
    174172

$$$$
CACHE3HI_1714_4
  -OEChem-03092622533D

 54 59  0     1  0  0  0  0  0999 V2000
  -54.6483  -26.9728   10.7855 C   0  0  0  0  0  0  0  0  0  0  0  0
  -54.0559  -27.6038   11.8793 C   0  0  0  0  0  0  0  0  0  0  0  0
  -44.3000  -27.2975    1.4236 C   0  0  0  0  0  0  0  0  0  0  0  0
  -42.3114  -31.4785    3.3639 C   0  0  0  0  0  0  0  0  0  0  0  0
  -43.6032  -31.1096    3.0176 C   0  0  0  0  0  0  0  0  0  0  0  0
  -54.2376  -27.2910    9.4922 C   0  0  0  0  0  0  0  0  0  0  0  0
  -45.3713  -28.1655    1.5944 C   0  0  0  0  0  0  0  0  0  0  0  0
  -43.0107  -27.6998    1.7822 C   0  0  0  0  0  0  0  0  0  0  0  0
  -53.0498  -28.5558   11.6838 C   0  0  0  0  0  0  0  0  0  0  0  0
  -41.3075  -30.5532    3.1600 C   0  0  0  0  0  0  0  0  0  0  0  0
  -43.8536  -29.8382    2.4830 C   0  0  0  0  0  0  0  0  0  0  0  0
  -53.2331  -28.2425    9.3140 C   0  0  0  0  0  0  0  0  0  0  0  0
  -45.1507  -29.4344    2.1231 C   0  0  0  0  0  0  0  0  0  0  0  0
  -42.7615  -28.9622    2.3128 C   0  0  0  0  0  0  0  0  0  0  0  0
  -52.6267  -28.8860   10.3907 C   0  0  0  0  0  0  0  0  0  0  0  0
  -52.7578  -28.6202    7.9840 C   0  0  0  0  0  0  0  0  0  0  0  0
  -51.6714  -29.6565    7.9071 C   0  0  0  0  0  0  0  0  0  0  0  0
  -46.3215  -30.3060    2.2810 C   0  0  0  0  0  0  0  0  0  0  0  0
  -51.1024  -30.1278    6.6312 C   0  0  0  0  0  0  0  0  0  0  0  0
  -48.5903  -28.2229    4.1817 C   0  0  0  0  0  0  0  0  0  0  0  0
  -47.4833  -29.8328    5.5279 C   0  0  0  0  0  0  0  0  0  0  0  0
  -48.7380  -30.1967    2.8880 C   0  0  0  0  0  0  0  0  0  0  0  0
  -49.4077  -29.5191    4.0977 C   0  0  1  0  0  0  0  0  0  0  0  0
  -47.2561  -28.9666    4.2745 C   0  0  1  0  0  0  0  0  0  0  0  0
  -48.9618  -30.2638    5.3792 C   0  0  2  0  0  0  0  0  0  0  0  0
  -41.5052  -29.3176    2.6482 N   0  0  0  0  0  0  0  0  0  0  0  0
  -51.1650  -30.2028    8.9683 N   0  0  0  0  0  0  0  0  0  0  0  0
  -51.6218  -29.8364   10.1855 N   0  0  0  0  0  0  0  0  0  0  0  0
  -47.3354  -29.8545    3.1018 N   0  0  0  0  0  0  0  0  0  0  0  0
  -49.7421  -29.8942    6.5309 N   0  0  0  0  0  0  0  0  0  0  0  0
  -53.1948  -28.1415    6.9519 O   0  0  0  0  0  0  0  0  0  0  0  0
  -46.3253  -31.3685    1.6641 O   0  0  0  0  0  0  0  0  0  0  0  0
  -51.8156  -30.6618    5.7895 O   0  0  0  0  0  0  0  0  0  0  0  0
  -55.4289  -26.2341   10.9419 H   0  0  0  0  0  0  0  0  0  0  0  0
  -54.3765  -27.3554   12.8871 H   0  0  0  0  0  0  0  0  0  0  0  0
  -44.4631  -26.3057    1.0119 H   0  0  0  0  0  0  0  0  0  0  0  0
  -42.0992  -32.4567    3.7790 H   0  0  0  0  0  0  0  0  0  0  0  0
  -44.4015  -31.8308    3.1737 H   0  0  0  0  0  0  0  0  0  0  0  0
  -54.7034  -26.7953    8.6457 H   0  0  0  0  0  0  0  0  0  0  0  0
  -46.3701  -27.8430    1.3124 H   0  0  0  0  0  0  0  0  0  0  0  0
  -42.1882  -27.0016    1.6387 H   0  0  0  0  0  0  0  0  0  0  0  0
  -52.6006  -29.0366   12.5496 H   0  0  0  0  0  0  0  0  0  0  0  0
  -40.2780  -30.7863    3.4114 H   0  0  0  0  0  0  0  0  0  0  0  0
  -48.6723  -27.6021    3.2828 H   0  0  0  0  0  0  0  0  0  0  0  0
  -48.8138  -27.6165    5.0653 H   0  0  0  0  0  0  0  0  0  0  0  0
  -46.8078  -30.6950    5.5684 H   0  0  0  0  0  0  0  0  0  0  0  0
  -47.3233  -29.2377    6.4357 H   0  0  0  0  0  0  0  0  0  0  0  0
  -48.8746  -31.2837    2.8597 H   0  0  0  0  0  0  0  0  0  0  0  0
  -49.0634  -29.7600    1.9359 H   0  0  0  0  0  0  0  0  0  0  0  0
  -50.4867  -29.3963    3.9876 H   0  0  0  0  0  0  0  0  0  0  0  0
  -46.3522  -28.3605    4.2928 H   0  0  0  0  0  0  0  0  0  0  0  0
  -49.0530  -31.3498    5.2695 H   0  0  0  0  0  0  0  0  0  0  0  0
  -51.2103  -30.2787   10.9992 H   0  0  0  0  0  0  0  0  0  0  0  0
  -49.2583  -29.4295    7.2976 H   0  0  0  0  0  0  0  0  0  0  0  0
  1  2  1  0  0  0  0
  1  6  2  0  0  0  0
  2  9  2  0  0  0  0
  3  7  2  0  0  0  0
  3  8  1  0  0  0  0
  4  5  2  0  0  0  0
  4 10  1  0  0  0  0
  5 11  1  0  0  0  0
  6 12  1  0  0  0  0
  7 13  1  0  0  0  0
  8 14  2  0  0  0  0
  9 15  1  0  0  0  0
 10 26  2  0  0  0  0
 11 13  2  0  0  0  0
 11 14  1  0  0  0  0
 12 15  2  0  0  0  0
 12 16  1  0  0  0  0
 13 18  1  0  0  0  0
 14 26  1  0  0  0  0
 15 28  1  0  0  0  0
 16 17  1  0  0  0  0
 16 31  2  0  0  0  0
 17 19  1  0  0  0  0
 17 27  2  0  0  0  0
 18 29  1  0  0  0  0
 18 32  2  0  0  0  0
 19 30  1  0  0  0  0
 19 33  2  0  0  0  0
 20 23  1  0  0  0  0
 20 24  1  0  0  0  0
 21 24  1  0  0  0  0
 21 25  1  0  0  0  0
 22 23  1  0  0  0  0
 22 29  1  0  0  0  0
 23 25  1  0  0  0  0
 24 29  1  0  0  0  0
 25 30  1  0  0  0  0
 27 28  1  0  0  0  0
  1 34  1  0  0  0  0
  2 35  1  0  0  0  0
  3 36  1  0  0  0  0
  4 37  1  0  0  0  0
  5 38  1  0  0  0  0
  6 39  1  0  0  0  0
  7 40  1  0  0  0  0
  8 41  1  0  0  0  0
  9 42  1  0  0  0  0
 10 43  1  0  0  0  0
 20 44  1  0  0  0  0
 20 45  1  0  0  0  0
 21 46  1  0  0  0  0
 21 47  1  0  0  0  0
 22 48  1  0  0  0  0
 22 49  1  0  0  0  0
 23 50  1  0  0  0  0
 24 51  1  0  0  0  0
 25 52  1  0  0  0  0
 28 53  1  0  0  0  0
 30 54  1  0  0  0  0
M  END
> <POSIT::Probability>
0.24

> <POSIT::Method>
FRED

> <ReceptorTitle>
UCSF-P4578-REFINED_LIGAND-BOUND-STATE_A__DU__LA1_A-201(A)

> <OMEGA_C>
z5dawmLI18FKkSxBMjlYwpTU3MFqET5BMTMxwkFh2sF8OLY/6z4pwg3U+8H0SVdAomkuwmHg+MHd
H0FAV/NYwvJT2sEU4BdBMHw1wudS4cFkFcw/9AoswiiZ3cEYIOQ/CTNUwjpy5MHk8DpB3zolwgBt
9MF2PUpAFWovwra07sED6h5AqO5Uwp3w4cEiBhVBTpo0wrp568Fi4QdA0wsrwoay58EwBBRAsYFS
wo4W58GAQCZBAghTwhf25MHLfP9Aeq9OwnZA7cE9B/1AMEk5wr1y8sF1/BFA4GhMwrgF8cHxMtRA
a1xCwojI4cHk0IVA2u49wn+p7sEn5LBAuPNCwumS8cFx1DhAiaFFwhUn7MEGIINAPQY9wpi758G0
yIhA4dhDwj8c8sGJIqxAXgUmwmqK6sE9fClA7KhMwkCf8cFRfg9BwXxOwuiw7sGw9yJBcVc9wvnV
7sFvg0ZA6fdGwl8n78GA/dBAesdUwssh4cGRdd5AE005wrTy+sG8/9Q/NENPwmRL9cFgQ7lAPLdd
wobf0cHhES9BiYFZwuvX2sFyMU5BLdoxwhZy0sHmhYE/iGUowq7TAcIn23FAGJsxwnOl/sGXHUtA
TNBawsZc1sHYVApBAHs5wni+3sGI/ac/wcAowj4D2MEmwtE/DmdSwvVK6MEgy0hBrBwhwlZK9sF2
VFpAeLBCwhvR3MGOGVJAXEFDwqTu3MEdF6JANzs7wl6P9cGXMLJADEs9wrvm6cFr8c1AnX9DwgFF
+sEhBTdA40BEwmIU7sF0yvc/bPJJwocr68GANX9AnWg5wk/i4sF/XolASTZEwnfM+sHsn6hAXtdM
wt468sGs/C9BfwhFwrVv68HvhelA

> <OMEGA_E>
+kYPwQ==

> <OMEGA_NBR>
    175754

$$$$
CACHE3HI_1714_56
  -OEChem-03092622533D

 51 54  0     1  0  0  0  0  0999 V2000
  -47.6263  -29.5885    6.1575 C   0  0  0  0  0  0  0  0  0  0  0  0
  -48.2830  -29.4802    3.8034 C   0  0  0  0  0  0  0  0  0  0  0  0
  -46.2827  -29.4668    5.7940 C   0  0  0  0  0  0  0  0  0  0  0  0
  -48.6365  -29.6068    5.1634 C   0  0  0  0  0  0  0  0  0  0  0  0
  -45.9321  -29.3662    4.4291 C   0  0  0  0  0  0  0  0  0  0  0  0
  -46.9326  -29.3617    3.4387 C   0  0  0  0  0  0  0  0  0  0  0  0
  -45.2337  -29.4518    6.8311 C   0  0  0  0  0  0  0  0  0  0  0  0
  -43.9143  -29.3744    6.4502 C   0  0  0  0  0  0  0  0  0  0  0  0
  -54.5070  -26.0279   10.8605 C   0  0  0  0  0  0  0  0  0  0  0  0
  -55.3274  -25.7863   11.9313 C   0  0  0  0  0  0  0  0  0  0  0  0
  -54.7066  -27.2477   10.0223 C   0  0  0  0  0  0  0  0  0  0  0  0
  -43.5794  -29.3100    5.0135 C   0  0  0  0  0  0  0  0  0  0  0  0
  -56.3862  -26.7528   12.2175 C   0  0  0  0  0  0  0  0  0  0  0  0
  -50.0413  -29.7429    5.5641 C   0  0  0  0  0  0  0  0  0  0  0  0
  -53.7765  -27.4643    8.8680 C   0  0  0  0  0  0  0  0  0  0  0  0
  -52.2770  -31.2797    7.3775 C   0  0  0  0  0  0  0  0  0  0  0  0
  -53.8059  -31.1398    7.6253 C   0  0  0  0  0  0  0  0  0  0  0  0
  -52.5116  -28.7760    7.1392 C   0  0  0  0  0  0  0  0  0  0  0  0
  -51.5779  -29.9158    7.5564 C   0  0  2  0  0  0  0  0  0  0  0  0
  -54.1408  -30.0129    8.6524 C   0  0  1  0  0  0  0  0  0  0  0  0
  -53.6069  -30.4483   10.0515 C   0  0  0  0  0  0  0  0  0  0  0  0
  -55.6967  -28.0847   10.2991 N   0  0  0  0  0  0  0  0  0  0  0  0
  -44.5908  -29.2874    4.0630 N   0  0  0  0  0  0  0  0  0  0  0  0
  -56.5267  -27.8604   11.3862 N   0  0  0  0  0  0  0  0  0  0  0  0
  -53.5542  -28.7013    8.2008 N   0  0  0  0  0  0  0  0  0  0  0  0
  -50.2901  -29.8636    6.9169 N   0  0  0  0  0  0  0  0  0  0  0  0
  -42.4114  -29.2784    4.6529 O   0  0  0  0  0  0  0  0  0  0  0  0
  -57.1394  -26.5797   13.1666 O   0  0  0  0  0  0  0  0  0  0  0  0
  -50.9463  -29.7188    4.7358 O   0  0  0  0  0  0  0  0  0  0  0  0
  -53.1135  -26.4908    8.5234 O   0  0  0  0  0  0  0  0  0  0  0  0
  -46.6001  -29.2542    2.1328 F   0  0  0  0  0  0  0  0  0  0  0  0
  -47.8962  -29.6690    7.2002 H   0  0  0  0  0  0  0  0  0  0  0  0
  -49.0506  -29.4746    3.0437 H   0  0  0  0  0  0  0  0  0  0  0  0
  -45.4986  -29.5011    7.8770 H   0  0  0  0  0  0  0  0  0  0  0  0
  -43.1315  -29.3609    7.1941 H   0  0  0  0  0  0  0  0  0  0  0  0
  -53.7140  -25.3344   10.6222 H   0  0  0  0  0  0  0  0  0  0  0  0
  -55.1957  -24.9079   12.5456 H   0  0  0  0  0  0  0  0  0  0  0  0
  -51.8574  -31.9994    8.0958 H   0  0  0  0  0  0  0  0  0  0  0  0
  -52.1073  -31.6428    6.3531 H   0  0  0  0  0  0  0  0  0  0  0  0
  -54.2987  -30.9054    6.6702 H   0  0  0  0  0  0  0  0  0  0  0  0
  -54.1902  -32.0955    8.0114 H   0  0  0  0  0  0  0  0  0  0  0  0
  -51.9568  -27.8280    7.0789 H   0  0  0  0  0  0  0  0  0  0  0  0
  -52.9718  -28.9942    6.1642 H   0  0  0  0  0  0  0  0  0  0  0  0
  -51.4117  -29.7974    8.6373 H   0  0  0  0  0  0  0  0  0  0  0  0
  -55.2347  -29.9145    8.7140 H   0  0  0  0  0  0  0  0  0  0  0  0
  -53.8336  -29.6659   10.7908 H   0  0  0  0  0  0  0  0  0  0  0  0
  -54.0920  -31.3886   10.3525 H   0  0  0  0  0  0  0  0  0  0  0  0
  -52.5185  -30.5980    9.9981 H   0  0  0  0  0  0  0  0  0  0  0  0
  -44.3512  -29.2128    3.0950 H   0  0  0  0  0  0  0  0  0  0  0  0
  -57.2537  -28.5189   11.5806 H   0  0  0  0  0  0  0  0  0  0  0  0
  -49.4909  -29.9207    7.5152 H   0  0  0  0  0  0  0  0  0  0  0  0
  1  3  2  0  0  0  0
  1  4  1  0  0  0  0
  2  4  2  0  0  0  0
  2  6  1  0  0  0  0
  3  5  1  0  0  0  0
  3  7  1  0  0  0  0
  4 14  1  0  0  0  0
  5  6  2  0  0  0  0
  5 23  1  0  0  0  0
  6 31  1  0  0  0  0
  7  8  2  0  0  0  0
  8 12  1  0  0  0  0
  9 10  2  0  0  0  0
  9 11  1  0  0  0  0
 10 13  1  0  0  0  0
 11 15  1  0  0  0  0
 11 22  2  0  0  0  0
 12 23  1  0  0  0  0
 12 27  2  0  0  0  0
 13 24  1  0  0  0  0
 13 28  2  0  0  0  0
 14 26  1  0  0  0  0
 14 29  2  0  0  0  0
 15 25  1  0  0  0  0
 15 30  2  0  0  0  0
 16 17  1  0  0  0  0
 16 19  1  0  0  0  0
 17 20  1  0  0  0  0
 18 19  1  0  0  0  0
 18 25  1  0  0  0  0
 19 26  1  0  0  0  0
 20 21  1  0  0  0  0
 20 25  1  0  0  0  0
 22 24  1  0  0  0  0
  1 32  1  0  0  0  0
  2 33  1  0  0  0  0
  7 34  1  0  0  0  0
  8 35  1  0  0  0  0
  9 36  1  0  0  0  0
 10 37  1  0  0  0  0
 16 38  1  0  0  0  0
 16 39  1  0  0  0  0
 17 40  1  0  0  0  0
 17 41  1  0  0  0  0
 18 42  1  0  0  0  0
 18 43  1  0  0  0  0
 19 44  1  0  0  0  0
 20 45  1  0  0  0  0
 21 46  1  0  0  0  0
 21 47  1  0  0  0  0
 21 48  1  0  0  0  0
 23 49  1  0  0  0  0
 24 50  1  0  0  0  0
 26 51  1  0  0  0  0
M  END
> <POSIT::Probability>
0.51

> <POSIT::Method>
SHAPEFIT

> <ReceptorTitle>
UCSF-P4578-REFINED_LIGAND-BOUND-STATE_A__DU__LA1_A-201(A)

> <OMEGA_C>
SIE+wj+17MGDCsVAxyFBwo3X68G4a3NAiCE5wgK868GtaLlAvotCwqXa7MFbOqVAg7o3whTu6sH1
uo1AArs7wq3k6sEXFFxAV+80wl+d68FUmNpAP6gvwtf+6sE7aM5AHwdawh450MFwxC1BTE9dwmNK
zsGX5j5BkNNawjH72cFhWyBBUFEuwvF66sGvbqBAgIthwq8F1sHxekNBRipIwmfx7cHBDLJAIxtX
wvO228FR4w1BpxtRwtk8+sGeFOxAPDlXwmEe+cGUAvRA6wtSwi815sFzdORAwE9OwqJT78EHzvFA
NJBYwlga8MEjcApBgm1WwiSW88Hs0iBBZMlewnOt4MEjySRB/FwywoRM6sF+BIJAXBtiwhTi3sHr
LTZBhzdWwjqc5cGhNgNBAylJwpfo7sEAV91ARaUpwhI66sE75JRAyo5kwkWj1MGYqlJBBclLwi7A
7cGni5dAMHRUwibt08GtXwhBiWY6wocI6sFqfwhAr5U/whNa7cGvZ+ZAyDNEwhTM68FTzEJAiv41
wjgC7MEOEPxApYYswiDj6sFyNuZALttWwuWsysFW9ClBXshcwk1Dx8G0ukhBA25Pwsn+/8GWiAFB
1m1Qwmck/cHUTMtA4zFZwlY+98GNctVAycJYwsFhAMKzLgBBz9NPwtWf3sE2huJAFuNTwij058Ei
QcVAmKVNwgxh7sFnMgpBUfBcwvRQ78G9bAtBj1VXws9T7cH0pixBOV5Ywssb+8HpoyVB6xJSwqHI
9MFi+B9BnmcxwtWz6cFDFUZA0QNlwsEm5MErSjlBqPZFwo1d78HnfPBA

> <OMEGA_E>
KKpoPw==

> <OMEGA_NBR>
    177304

$$$$
CACHE3HI_1715_15
  -OEChem-03092622533D

 52 56  0     1  0  0  0  0  0999 V2000
  -47.4786  -28.9912    3.2133 C   0  0  0  0  0  0  0  0  0  0  0  0
  -46.9075  -29.6104    4.3258 C   0  0  0  0  0  0  0  0  0  0  0  0
  -48.8283  -28.6438    3.2191 C   0  0  0  0  0  0  0  0  0  0  0  0
  -47.6828  -29.8870    5.4540 C   0  0  0  0  0  0  0  0  0  0  0  0
  -49.6021  -28.9205    4.3473 C   0  0  0  0  0  0  0  0  0  0  0  0
  -49.0375  -29.5462    5.4802 C   0  0  0  0  0  0  0  0  0  0  0  0
  -51.0069  -28.5944    4.4377 C   0  0  0  0  0  0  0  0  0  0  0  0
  -53.0116  -28.0189    4.3061 C   0  0  0  0  0  0  0  0  0  0  0  0
  -51.0742  -29.5317    6.6959 C   0  0  0  0  0  0  0  0  0  0  0  0
  -53.4759  -28.1316    8.5082 C   0  0  0  0  0  0  0  0  0  0  0  0
  -52.8097  -30.6186   10.3614 C   0  0  0  0  0  0  0  0  0  0  0  0
  -52.4295  -31.6267    9.2844 C   0  0  0  0  0  0  0  0  0  0  0  0
  -52.0269  -29.3189   10.1904 C   0  0  0  0  0  0  0  0  0  0  0  0
  -52.6025  -31.0391    7.8887 C   0  0  0  0  0  0  0  0  0  0  0  0
  -55.6263  -27.6426    9.6242 C   0  0  0  0  0  0  0  0  0  0  0  0
  -53.5474  -26.9559   10.7582 C   0  0  0  0  0  0  0  0  0  0  0  0
  -56.1550  -28.0916   10.9782 C   0  0  0  0  0  0  0  0  0  0  0  0
  -54.1715  -27.4288   12.0652 C   0  0  0  0  0  0  0  0  0  0  0  0
  -52.1260  -28.7472    8.7750 C   0  0  1  0  0  0  0  0  0  0  0  0
  -54.2528  -27.4636    3.7538 C   0  0  0  0  0  0  0  0  0  0  0  0
  -51.8408  -28.0232    3.5981 N   0  0  0  0  0  0  0  0  0  0  0  0
  -52.9590  -28.5505    5.5315 N   0  0  0  0  0  0  0  0  0  0  0  0
  -49.8030  -29.8388    6.6418 N   0  0  0  0  0  0  0  0  0  0  0  0
  -51.6663  -28.9123    5.5941 N   0  0  0  0  0  0  0  0  0  0  0  0
  -51.8680  -29.7785    7.7665 N   0  0  3  0  0  0  0  0  0  0  0  0
  -54.1636  -27.6369    9.6152 N   0  0  0  0  0  0  0  0  0  0  0  0
  -53.9073  -28.0950    7.3535 O   0  0  0  0  0  0  0  0  0  0  0  0
  -55.5923  -27.2957   12.0218 O   0  0  0  0  0  0  0  0  0  0  0  0
  -46.8682  -28.7788    2.3400 H   0  0  0  0  0  0  0  0  0  0  0  0
  -45.8547  -29.8782    4.3145 H   0  0  0  0  0  0  0  0  0  0  0  0
  -49.2605  -28.1618    2.3464 H   0  0  0  0  0  0  0  0  0  0  0  0
  -47.2214  -30.3695    6.3118 H   0  0  0  0  0  0  0  0  0  0  0  0
  -53.8859  -30.4136   10.3102 H   0  0  0  0  0  0  0  0  0  0  0  0
  -52.6127  -31.0418   11.3528 H   0  0  0  0  0  0  0  0  0  0  0  0
  -51.3880  -31.9422    9.4243 H   0  0  0  0  0  0  0  0  0  0  0  0
  -53.0500  -32.5243    9.3854 H   0  0  0  0  0  0  0  0  0  0  0  0
  -52.3832  -28.5872   10.9255 H   0  0  0  0  0  0  0  0  0  0  0  0
  -50.9708  -29.5092   10.4220 H   0  0  0  0  0  0  0  0  0  0  0  0
  -52.2576  -31.7726    7.1494 H   0  0  0  0  0  0  0  0  0  0  0  0
  -53.6640  -30.8566    7.6802 H   0  0  0  0  0  0  0  0  0  0  0  0
  -56.0245  -28.2784    8.8277 H   0  0  0  0  0  0  0  0  0  0  0  0
  -55.9389  -26.6113    9.4217 H   0  0  0  0  0  0  0  0  0  0  0  0
  -53.7416  -25.8861   10.6162 H   0  0  0  0  0  0  0  0  0  0  0  0
  -52.4660  -27.0990   10.7907 H   0  0  0  0  0  0  0  0  0  0  0  0
  -57.2417  -27.9660   11.0137 H   0  0  0  0  0  0  0  0  0  0  0  0
  -55.9370  -29.1501   11.1636 H   0  0  0  0  0  0  0  0  0  0  0  0
  -53.9060  -28.4705   12.2810 H   0  0  0  0  0  0  0  0  0  0  0  0
  -53.8058  -26.8154   12.8947 H   0  0  0  0  0  0  0  0  0  0  0  0
  -51.3982  -27.9279    8.6872 H   0  0  0  0  0  0  0  0  0  0  0  0
  -54.8479  -28.2200    3.2073 H   0  0  0  0  0  0  0  0  0  0  0  0
  -54.0645  -26.6507    3.0265 H   0  0  0  0  0  0  0  0  0  0  0  0
  -54.9004  -27.0490    4.5480 H   0  0  0  0  0  0  0  0  0  0  0  0
  1  2  1  0  0  0  0
  1  3  2  0  0  0  0
  2  4  2  0  0  0  0
  3  5  1  0  0  0  0
  4  6  1  0  0  0  0
  5  6  2  0  0  0  0
  5  7  1  0  0  0  0
  6 23  1  0  0  0  0
  7 21  2  0  0  0  0
  7 24  1  0  0  0  0
  8 20  1  0  0  0  0
  8 21  1  0  0  0  0
  8 22  2  0  0  0  0
  9 23  2  0  0  0  0
  9 24  1  0  0  0  0
  9 25  1  0  0  0  0
 10 19  1  0  0  0  0
 10 26  1  0  0  0  0
 10 27  2  0  0  0  0
 11 12  1  0  0  0  0
 11 13  1  0  0  0  0
 12 14  1  0  0  0  0
 13 19  1  0  0  0  0
 14 25  1  0  0  0  0
 15 17  1  0  0  0  0
 15 26  1  0  0  0  0
 16 18  1  0  0  0  0
 16 26  1  0  0  0  0
 17 28  1  0  0  0  0
 18 28  1  0  0  0  0
 19 25  1  0  0  0  0
 22 24  1  0  0  0  0
  1 29  1  0  0  0  0
  2 30  1  0  0  0  0
  3 31  1  0  0  0  0
  4 32  1  0  0  0  0
 11 33  1  0  0  0  0
 11 34  1  0  0  0  0
 12 35  1  0  0  0  0
 12 36  1  0  0  0  0
 13 37  1  0  0  0  0
 13 38  1  0  0  0  0
 14 39  1  0  0  0  0
 14 40  1  0  0  0  0
 15 41  1  0  0  0  0
 15 42  1  0  0  0  0
 16 43  1  0  0  0  0
 16 44  1  0  0  0  0
 17 45  1  0  0  0  0
 17 46  1  0  0  0  0
 18 47  1  0  0  0  0
 18 48  1  0  0  0  0
 19 49  1  0  0  0  0
 20 50  1  0  0  0  0
 20 51  1  0  0  0  0
 20 52  1  0  0  0  0
M  END
> <POSIT::Probability>
0.18

> <POSIT::Method>
HYBRID

> <ReceptorTitle>
UCSF-P4578-REFINED_LIGAND-BOUND-STATE_A__DU__LA1_A-201(A)

> <OMEGA_C>
Feo9wuft58Eapk1AU6E7wh7i7MGbbIpAJ1BDwnMm5cEoBU5AN7s+woMY78GGh65AimhGwh1d58H6
HItAXiZEwpJe7MGhXa9AGgdMwmjB5MGEAY5A7QtUws8m4MG3y4lA/0tMwvZA7MHoRNZATOdVwoUN
4cG/IQhBIj1TwvDy9MFyyCVBybdRwmoD/cHyjBRBgRtQwgSN6sG2CyNB6mhSwgFQ+MFgcPxAU4Fe
wiEk3cGQ/BlBgzBWwpal18GxISxBsp5gwqa74MHYpi9Bp69YwjBu28HsCkFB/4BQwkn65cE6ZgxB
2gJZwoq128GXPnBAA11PwoQv4MEmR2ZADNZTwmVn5MFnArFAUjZHwuW17sFCidRARKpOwlFM58GX
ArNA4XhPwk867sHGhvhAhadYwnIY3cH+1xlBEKFXwqTC4MEmUOtAel5ewotd2sF+WUBBB3k7wuo6
5sExwxVALWs3woMG78HFEIpAtApFwkxL4cE3LBZAvuI8wq308sFb+slAJItXwgxP88Gm9iRBaHNS
wpFV+MEypTVBS41NwoeJ/8EUyhZBPDNUwtgYAsKbKhZBaIhRwo2y5MG2zi5BIuJLwtMS7MGnwCZB
xQdRwjcu/sEmyORA8KdWwlLa9sEBxPVAHRlgwiQ64sEkPg1BY8FfwvLj1MFxvxZBcvdWwsMWz8Ek
3ClBM91RwtHK2MGKpixBjfdkwka638EsODBBir9fwmQz6cHynTJBwp9Xwq/D48H4fkRBGDlXwueF
1sGQUE5BvJdNwmps38Gm/gpBS2RbwobC4cGFRE1AGUJYwps01cGNskFA/5lbwkNk2MF6iZFA

> <OMEGA_E>
I6ZswA==

> <OMEGA_NBR>
    178850

$$$$
CACHE3HI_1715_26
  -OEChem-03092622533D

 52 56  0     0  0  0  0  0  0999 V2000
  -51.7473  -34.3541    9.2688 C   0  0  0  0  0  0  0  0  0  0  0  0
  -57.7821  -28.5019   12.3361 C   0  0  0  0  0  0  0  0  0  0  0  0
  -52.5189  -33.6870    8.3174 C   0  0  0  0  0  0  0  0  0  0  0  0
  -51.2021  -33.6498   10.3422 C   0  0  0  0  0  0  0  0  0  0  0  0
  -57.4591  -27.2298   11.8639 C   0  0  0  0  0  0  0  0  0  0  0  0
  -56.7781  -29.4522   12.5213 C   0  0  0  0  0  0  0  0  0  0  0  0
  -52.7456  -32.3159    8.4395 C   0  0  0  0  0  0  0  0  0  0  0  0
  -51.4288  -32.2788   10.4643 C   0  0  0  0  0  0  0  0  0  0  0  0
  -56.1324  -26.9078   11.5771 C   0  0  0  0  0  0  0  0  0  0  0  0
  -55.4514  -29.1303   12.2346 C   0  0  0  0  0  0  0  0  0  0  0  0
  -43.7578  -29.2799    5.5035 C   0  0  0  0  0  0  0  0  0  0  0  0
  -43.9411  -29.5372    4.1648 C   0  0  0  0  0  0  0  0  0  0  0  0
  -52.5189  -28.0297    9.3001 C   0  0  0  0  0  0  0  0  0  0  0  0
  -52.2004  -31.6116    9.5129 C   0  0  0  0  0  0  0  0  0  0  0  0
  -55.1283  -27.8582   11.7623 C   0  0  0  0  0  0  0  0  0  0  0  0
  -52.0795  -29.1948    8.7200 C   0  0  0  0  0  0  0  0  0  0  0  0
  -52.4343  -30.2003    9.6393 C   0  0  0  0  0  0  0  0  0  0  0  0
  -45.8552  -29.5488    5.2580 C   0  0  0  0  0  0  0  0  0  0  0  0
  -47.2443  -29.6525    5.5149 C   0  0  0  0  0  0  0  0  0  0  0  0
  -49.1070  -29.6854    6.4868 C   0  0  0  0  0  0  0  0  0  0  0  0
  -45.9689  -30.0002    2.7819 C   0  0  0  0  0  0  0  0  0  0  0  0
  -53.6935  -27.5105   11.4523 C   0  0  0  0  0  0  0  0  0  0  0  0
  -51.3926  -29.3373    7.4244 C   0  0  0  0  0  0  0  0  0  0  0  0
  -44.9525  -29.2887    6.1781 N   0  0  0  0  0  0  0  0  0  0  0  0
  -53.0510  -29.7164   10.7206 N   0  0  0  0  0  0  0  0  0  0  0  0
  -48.1316  -29.9130    4.5832 N   0  0  0  0  0  0  0  0  0  0  0  0
  -49.3567  -29.9345    5.2229 N   0  0  0  0  0  0  0  0  0  0  0  0
  -45.2897  -29.7070    4.0230 N   0  0  0  0  0  0  0  0  0  0  0  0
  -53.0877  -28.3939   10.4851 N   0  0  0  0  0  0  0  0  0  0  0  0
  -49.9732  -29.5863    7.5607 N   0  0  0  0  0  0  0  0  0  0  0  0
  -47.7861  -29.4943    6.7532 O   0  0  0  0  0  0  0  0  0  0  0  0
  -51.5705  -35.4216    9.1737 H   0  0  0  0  0  0  0  0  0  0  0  0
  -58.8150  -28.7526   12.5593 H   0  0  0  0  0  0  0  0  0  0  0  0
  -52.9421  -34.2344    7.4804 H   0  0  0  0  0  0  0  0  0  0  0  0
  -50.6014  -34.1691   11.0833 H   0  0  0  0  0  0  0  0  0  0  0  0
  -58.2407  -26.4896   11.7200 H   0  0  0  0  0  0  0  0  0  0  0  0
  -57.0294  -30.4428   12.8888 H   0  0  0  0  0  0  0  0  0  0  0  0
  -53.3490  -31.8104    7.6889 H   0  0  0  0  0  0  0  0  0  0  0  0
  -50.9971  -31.7441   11.3073 H   0  0  0  0  0  0  0  0  0  0  0  0
  -55.8904  -25.9141   11.2095 H   0  0  0  0  0  0  0  0  0  0  0  0
  -54.6759  -29.8770   12.3830 H   0  0  0  0  0  0  0  0  0  0  0  0
  -42.8258  -29.0891    6.0152 H   0  0  0  0  0  0  0  0  0  0  0  0
  -43.2539  -29.6108    3.3335 H   0  0  0  0  0  0  0  0  0  0  0  0
  -52.4761  -26.9980    8.9784 H   0  0  0  0  0  0  0  0  0  0  0  0
  -46.0454  -31.0812    2.6237 H   0  0  0  0  0  0  0  0  0  0  0  0
  -45.4230  -29.5578    1.9429 H   0  0  0  0  0  0  0  0  0  0  0  0
  -46.9886  -29.6014    2.7909 H   0  0  0  0  0  0  0  0  0  0  0  0
  -53.6332  -26.4737   11.0949 H   0  0  0  0  0  0  0  0  0  0  0  0
  -53.1034  -27.5158   12.3785 H   0  0  0  0  0  0  0  0  0  0  0  0
  -51.8041  -30.1711    6.8267 H   0  0  0  0  0  0  0  0  0  0  0  0
  -51.4932  -28.4354    6.7930 H   0  0  0  0  0  0  0  0  0  0  0  0
  -49.5980  -29.6925    8.4948 H   0  0  0  0  0  0  0  0  0  0  0  0
  1  3  1  0  0  0  0
  1  4  2  0  0  0  0
  2  5  1  0  0  0  0
  2  6  2  0  0  0  0
  3  7  2  0  0  0  0
  4  8  1  0  0  0  0
  5  9  2  0  0  0  0
  6 10  1  0  0  0  0
  7 14  1  0  0  0  0
  8 14  2  0  0  0  0
  9 15  1  0  0  0  0
 10 15  2  0  0  0  0
 11 12  2  0  0  0  0
 11 24  1  0  0  0  0
 12 28  1  0  0  0  0
 13 16  2  0  0  0  0
 13 29  1  0  0  0  0
 14 17  1  0  0  0  0
 15 22  1  0  0  0  0
 16 17  1  0  0  0  0
 16 23  1  0  0  0  0
 17 25  2  0  0  0  0
 18 19  1  0  0  0  0
 18 24  2  0  0  0  0
 18 28  1  0  0  0  0
 19 26  2  0  0  0  0
 19 31  1  0  0  0  0
 20 27  2  0  0  0  0
 20 30  1  0  0  0  0
 20 31  1  0  0  0  0
 21 28  1  0  0  0  0
 22 29  1  0  0  0  0
 23 30  1  0  0  0  0
 25 29  1  0  0  0  0
 26 27  1  0  0  0  0
  1 32  1  0  0  0  0
  2 33  1  0  0  0  0
  3 34  1  0  0  0  0
  4 35  1  0  0  0  0
  5 36  1  0  0  0  0
  6 37  1  0  0  0  0
  7 38  1  0  0  0  0
  8 39  1  0  0  0  0
  9 40  1  0  0  0  0
 10 41  1  0  0  0  0
 11 42  1  0  0  0  0
 12 43  1  0  0  0  0
 13 44  1  0  0  0  0
 21 45  1  0  0  0  0
 21 46  1  0  0  0  0
 21 47  1  0  0  0  0
 22 48  1  0  0  0  0
 22 49  1  0  0  0  0
 23 50  1  0  0  0  0
 23 51  1  0  0  0  0
 30 52  1  0  0  0  0
M  END
> <POSIT::Probability>
0.14

> <POSIT::Method>
HYBRID

> <ReceptorTitle>
UCSF-P4578-REFINED_LIGAND-BOUND-STATE_A__DU__LA1_A-201(A)

> <OMEGA_C>
Ov1OwqRqCcIgTRRB5iBnwuUD5MHHYEVBWhNSwnS/BsIeFAVBAM9Mwm+ZBsLSeSVBG9Zlwo/W2cFr
0j1BwBxjwhGe68FTV0hBeftSwoVDAcIACAdBH7dNwoEdAcK2bSdBkYdgwj9D18HyOzlBNM5dwsIK
6cHbwENBAggvwk096sGGHLBAucMvwjNM7MHhRYVAZBNSwuc84MFSzRRBNs1Qwp3k/MHoNBhBZoNc
wond3sGOMjxBYlFQwv6O6cE5hQtBsrxRwjma8cF0OhpBvGs3wghk7MGgQahAHvo8wkw47cFLerBA
km1Ewsp77cEhlM9ALOA3wmkA8MEzCzJAKMZWwnEV3MG3PDdB+ZFNwrOy6sGslO1AXc8zwktP6sFX
s8VANTRUwju77cG+hytBvoZAwuBN78FOqZJARW1Fwsd578HeIadAqSg1wgmo7cGsvIBAwllUwrUm
48HlwidBi+RHwqSw7MFB8fFA/CQ/wlP068EVGthAN0hOwrCvDcKuxxJBhEJrwlUF5sEI80hBrMRT
whLwCMKCX+9Ay2dKwiutCMIOVTFBh/Zowq3q08EdhTtBGR5kws6K88GQOE5BY2VVwqx7/sHMC/ZA
EP1LwvLz/cGs6jRBv49fwhdQz8EiWjNBHLRawi8E78HsIEZBqU0rwnS26MGxfMBA9wMtwgTj7MFQ
WFVAg+dRws7718Fdpw9Bcy44wkmm+MFF6idAI7E1wlV27MF4r/g/WvQ7wsPP7MF/nTJAWYhWwiTK
08HEhDFB1WlUwlAg3MGADkZBWjdPwn9e8cGadNpABflNwrt748HiX9lAYWRGwjOK7cHT6gdB

> <OMEGA_E>
PqqswA==

> <OMEGA_NBR>
    180389

$$$$
CACHE3HI_1715_28
  -OEChem-03092622533D

 52 55  0     0  0  0  0  0  0999 V2000
  -53.0894  -29.8773    2.9567 C   0  0  0  0  0  0  0  0  0  0  0  0
  -52.7668  -28.5708    3.3238 C   0  0  0  0  0  0  0  0  0  0  0  0
  -53.5051  -30.7907    3.9253 C   0  0  0  0  0  0  0  0  0  0  0  0
  -54.3552  -27.2196    8.6681 C   0  0  0  0  0  0  0  0  0  0  0  0
  -53.6061  -27.8438    9.6655 C   0  0  0  0  0  0  0  0  0  0  0  0
  -52.8603  -28.1777    4.6590 C   0  0  0  0  0  0  0  0  0  0  0  0
  -53.5986  -30.3976    5.2605 C   0  0  0  0  0  0  0  0  0  0  0  0
  -54.2383  -27.6392    7.3431 C   0  0  0  0  0  0  0  0  0  0  0  0
  -52.7405  -28.8876    9.3381 C   0  0  0  0  0  0  0  0  0  0  0  0
  -46.3035  -28.7887    0.6699 C   0  0  0  0  0  0  0  0  0  0  0  0
  -46.2045  -30.1572    0.7667 C   0  0  0  0  0  0  0  0  0  0  0  0
  -53.2760  -29.0912    5.6276 C   0  0  0  0  0  0  0  0  0  0  0  0
  -53.3727  -28.6831    7.0157 C   0  0  0  0  0  0  0  0  0  0  0  0
  -52.6236  -29.3073    8.0130 C   0  0  0  0  0  0  0  0  0  0  0  0
  -47.3579  -29.3113    2.4439 C   0  0  0  0  0  0  0  0  0  0  0  0
  -48.4229  -28.6264    5.9667 C   0  0  0  0  0  0  0  0  0  0  0  0
  -49.7059  -30.5707    5.0502 C   0  0  0  0  0  0  0  0  0  0  0  0
  -48.0513  -28.2031    4.5457 C   0  0  0  0  0  0  0  0  0  0  0  0
  -49.3369  -30.1408    3.6314 C   0  0  0  0  0  0  0  0  0  0  0  0
  -49.7521  -29.3769    6.0026 C   0  0  0  0  0  0  0  0  0  0  0  0
  -47.0558  -31.8144    2.4283 C   0  0  0  0  0  0  0  0  0  0  0  0
  -47.0222  -28.2685    1.7165 N   0  0  0  0  0  0  0  0  0  0  0  0
  -46.8849  -30.4770    1.9079 N   0  0  0  0  0  0  0  0  0  0  0  0
  -48.1010  -29.3481    3.6318 N   0  0  0  0  0  0  0  0  0  0  0  0
  -50.0637  -29.8039    7.3444 N   0  0  0  0  0  0  0  0  0  0  0  0
  -51.9672  -31.2813    6.4378 O   0  0  0  0  0  0  0  0  0  0  0  0
  -51.3602  -31.4012    8.8745 O   0  0  0  0  0  0  0  0  0  0  0  0
  -51.5123  -30.6343    7.6535 S   0  0  0  0  0  0  0  0  0  0  0  0
  -53.0162  -30.1836    1.9174 H   0  0  0  0  0  0  0  0  0  0  0  0
  -52.4439  -27.8592    2.5695 H   0  0  0  0  0  0  0  0  0  0  0  0
  -53.7560  -31.8080    3.6397 H   0  0  0  0  0  0  0  0  0  0  0  0
  -55.0277  -26.4058    8.9234 H   0  0  0  0  0  0  0  0  0  0  0  0
  -53.6966  -27.5171   10.6974 H   0  0  0  0  0  0  0  0  0  0  0  0
  -52.6045  -27.1558    4.9290 H   0  0  0  0  0  0  0  0  0  0  0  0
  -53.9249  -31.1212    6.0038 H   0  0  0  0  0  0  0  0  0  0  0  0
  -54.8287  -27.1408    6.5778 H   0  0  0  0  0  0  0  0  0  0  0  0
  -52.1633  -29.3655   10.1256 H   0  0  0  0  0  0  0  0  0  0  0  0
  -45.8937  -28.1522   -0.1006 H   0  0  0  0  0  0  0  0  0  0  0  0
  -45.7268  -30.9015    0.1450 H   0  0  0  0  0  0  0  0  0  0  0  0
  -47.6210  -29.2542    6.3779 H   0  0  0  0  0  0  0  0  0  0  0  0
  -48.4769  -27.7390    6.6094 H   0  0  0  0  0  0  0  0  0  0  0  0
  -50.6790  -31.0767    5.0372 H   0  0  0  0  0  0  0  0  0  0  0  0
  -48.9781  -31.3123    5.4058 H   0  0  0  0  0  0  0  0  0  0  0  0
  -48.7428  -27.4265    4.1951 H   0  0  0  0  0  0  0  0  0  0  0  0
  -47.0458  -27.7640    4.5599 H   0  0  0  0  0  0  0  0  0  0  0  0
  -49.2187  -31.0374    3.0101 H   0  0  0  0  0  0  0  0  0  0  0  0
  -50.1505  -29.5461    3.1970 H   0  0  0  0  0  0  0  0  0  0  0  0
  -50.5583  -28.6835    5.6627 H   0  0  0  0  0  0  0  0  0  0  0  0
  -46.2404  -32.0756    3.1112 H   0  0  0  0  0  0  0  0  0  0  0  0
  -47.0734  -32.5366    1.6061 H   0  0  0  0  0  0  0  0  0  0  0  0
  -47.9901  -31.8975    2.9930 H   0  0  0  0  0  0  0  0  0  0  0  0
  -49.6210  -29.2641    8.0908 H   0  0  0  0  0  0  0  0  0  0  0  0
  1  2  1  0  0  0  0
  1  3  2  0  0  0  0
  2  6  2  0  0  0  0
  3  7  1  0  0  0  0
  4  5  1  0  0  0  0
  4  8  2  0  0  0  0
  5  9  2  0  0  0  0
  6 12  1  0  0  0  0
  7 12  2  0  0  0  0
  8 13  1  0  0  0  0
  9 14  1  0  0  0  0
 10 11  2  0  0  0  0
 10 22  1  0  0  0  0
 11 23  1  0  0  0  0
 12 13  1  0  0  0  0
 13 14  2  0  0  0  0
 14 28  1  0  0  0  0
 15 22  2  0  0  0  0
 15 23  1  0  0  0  0
 15 24  1  0  0  0  0
 16 18  1  0  0  0  0
 16 20  1  0  0  0  0
 17 19  1  0  0  0  0
 17 20  1  0  0  0  0
 18 24  1  0  0  0  0
 19 24  1  0  0  0  0
 20 25  1  0  0  0  0
 21 23  1  0  0  0  0
 25 28  1  0  0  0  0
 26 28  2  0  0  0  0
 27 28  2  0  0  0  0
  1 29  1  0  0  0  0
  2 30  1  0  0  0  0
  3 31  1  0  0  0  0
  4 32  1  0  0  0  0
  5 33  1  0  0  0  0
  6 34  1  0  0  0  0
  7 35  1  0  0  0  0
  8 36  1  0  0  0  0
  9 37  1  0  0  0  0
 10 38  1  0  0  0  0
 11 39  1  0  0  0  0
 16 40  1  0  0  0  0
 16 41  1  0  0  0  0
 17 42  1  0  0  0  0
 17 43  1  0  0  0  0
 18 44  1  0  0  0  0
 18 45  1  0  0  0  0
 19 46  1  0  0  0  0
 19 47  1  0  0  0  0
 20 48  1  0  0  0  0
 21 49  1  0  0  0  0
 21 50  1  0  0  0  0
 21 51  1  0  0  0  0
 25 52  1  0  0  0  0
M  END
> <POSIT::Probability>
0.05

> <POSIT::Method>
FRED

> <ReceptorTitle>
UCSF-P4578-REFINED_LIGAND-BOUND-STATE_A__DU__LA1_A-201(A)

> <OMEGA_C>
iltUwqIE78HPOj1AQBFTwu2Q5MGeuFRAQwVWwmVT9sFeOHtAv2tZwqrB2cGEsApBpGxWwijA3sHZ
pRpB6HBTwuVr4cFHFpVA62RWwmEu88EpVqhAC/RYwiMd3cGI+upARfZSwugZ58HSaBVB1DY5wltP
5sFUgSs/XtE4wgBC8cFERkQ/pRpVwse66ME6FbRArH1VwuR25cF7gOBAk35SwmN16sFWNQBBgW49
wop96sF2aBxAA7FBwsYC5cGO775A1NJGwsyQ9MF6m6FAlTRAwvyf4cEcdpFACFlFwkog8cEmaGhA
MgJHwvwD68EAFcBAHTk8wtKD/sHYaBtAxRY8wt4l4sHatts/I4o7wv/Q88GuNfQ/bWdAwtXI6sH/
bmhANkFIwmJu7sEeBetAX95PwhhA+sEqAs5A3HBNwqY1+8EL/g1BjwxOwvcS9cFr6fRAnhBUwgF4
8cF2bfU/g8ZRwrrf3sECciRALgZXwsJ2/sGy8GhAXxxcwgs/08FExg5BR8lWwvgi3MGrKCtBBmtS
wvw+2cFMup1ADbNXwiz4+MHxHsBAlVBbwk4g2cEKfdJANadQwoTs6sGQAiJBHJM3ws034cF8BM69
Oeg2wlY298FShRQ+3ns+wrAI6sHMF8xAYOhBwnjp3cHtf9NARLdKwhyd+MEeMaFAhulDwoh/+sFv
/KxAoPhCwnRp28GEPoZA6i48wr4c3sG86pFA9t9Ewp5M+MG0pEBAJ5pIwmVe7MFbnExAvjtKwr93
5cHSNLVAJfY4wmFNAMJTHUdAL0s8wnIlAsIslc0/6PU/whgu/8FyjT9A23tGwuYc6sHscwFB

> <OMEGA_E>
wYIEwQ==

> <OMEGA_NBR>
    181921

$$$$
CACHE3HI_1715_59
  -OEChem-03092622533D

 54 58  0     0  0  0  0  0  0999 V2000
  -51.8045  -29.7041    7.6677 C   0  0  0  0  0  0  0  0  0  0  0  0
  -53.3375  -27.8870    7.2372 C   0  0  0  0  0  0  0  0  0  0  0  0
  -51.9053  -29.4637    9.0380 C   0  0  0  0  0  0  0  0  0  0  0  0
  -53.4383  -27.6465    8.6074 C   0  0  0  0  0  0  0  0  0  0  0  0
  -42.4518  -30.4738    3.6532 C   0  0  0  0  0  0  0  0  0  0  0  0
  -52.5208  -28.9157    6.7673 C   0  0  0  0  0  0  0  0  0  0  0  0
  -52.7219  -28.4349    9.5078 C   0  0  0  0  0  0  0  0  0  0  0  0
  -52.4154  -29.1619    5.3584 C   0  0  0  0  0  0  0  0  0  0  0  0
  -51.5258  -29.9193    3.6118 C   0  0  0  0  0  0  0  0  0  0  0  0
  -43.9338  -31.8250    3.0387 C   0  0  0  0  0  0  0  0  0  0  0  0
  -45.9256  -31.4550    1.0978 C   0  0  0  0  0  0  0  0  0  0  0  0
  -45.0645  -30.4464    1.3565 C   0  0  0  0  0  0  0  0  0  0  0  0
  -45.7106  -32.7009    1.9327 C   0  0  0  0  0  0  0  0  0  0  0  0
  -48.4320  -29.8861    1.5167 C   0  0  0  0  0  0  0  0  0  0  0  0
  -48.8334  -29.4962    5.1528 C   0  0  0  0  0  0  0  0  0  0  0  0
  -47.6112  -29.0216    4.4256 C   0  0  0  0  0  0  0  0  0  0  0  0
  -48.9532  -28.9694    3.7491 C   0  0  0  0  0  0  0  0  0  0  0  0
  -45.0841  -29.1011    0.6799 C   0  0  0  0  0  0  0  0  0  0  0  0
  -46.6495  -33.8702    1.7208 C   0  0  0  0  0  0  0  0  0  0  0  0
  -50.4911  -30.6436    2.7992 C   0  0  0  0  0  0  0  0  0  0  0  0
  -47.0273  -31.4621    0.0826 C   0  0  0  0  0  0  0  0  0  0  0  0
  -48.3690  -31.2104    0.7615 C   0  0  0  0  0  0  0  0  0  0  0  0
  -42.9188  -31.7276    3.8725 N   0  0  0  0  0  0  0  0  0  0  0  0
  -43.1032  -29.7675    2.7343 N   0  0  0  0  0  0  0  0  0  0  0  0
  -53.2116  -28.8205    4.3720 N   0  0  0  0  0  0  0  0  0  0  0  0
  -52.6262  -29.3191    3.2234 N   0  0  0  0  0  0  0  0  0  0  0  0
  -44.7808  -32.8644    2.8267 N   0  0  0  0  0  0  0  0  0  0  0  0
  -44.0676  -30.6345    2.3266 N   0  0  0  0  0  0  0  0  0  0  0  0
  -49.2737  -29.8530    2.6344 N   0  0  0  0  0  0  0  0  0  0  0  0
  -47.7716  -28.9156    1.1383 O   0  0  0  0  0  0  0  0  0  0  0  0
  -51.3208  -29.8633    4.9560 O   0  0  0  0  0  0  0  0  0  0  0  0
  -52.8465  -28.1389   11.1985 Cl  0  0  0  0  0  0  0  0  0  0  0  0
  -51.1637  -30.5098    7.3169 H   0  0  0  0  0  0  0  0  0  0  0  0
  -53.9015  -27.2630    6.5480 H   0  0  0  0  0  0  0  0  0  0  0  0
  -51.3415  -30.0860    9.7282 H   0  0  0  0  0  0  0  0  0  0  0  0
  -54.0785  -26.8416    8.9595 H   0  0  0  0  0  0  0  0  0  0  0  0
  -41.6071  -30.0560    4.1799 H   0  0  0  0  0  0  0  0  0  0  0  0
  -48.9400  -30.5617    5.3155 H   0  0  0  0  0  0  0  0  0  0  0  0
  -49.2145  -28.8783    5.9566 H   0  0  0  0  0  0  0  0  0  0  0  0
  -47.1687  -28.0843    4.7397 H   0  0  0  0  0  0  0  0  0  0  0  0
  -46.8975  -29.7684    4.1000 H   0  0  0  0  0  0  0  0  0  0  0  0
  -49.4017  -27.9886    3.6337 H   0  0  0  0  0  0  0  0  0  0  0  0
  -45.7221  -28.4275    1.2438 H   0  0  0  0  0  0  0  0  0  0  0  0
  -45.4675  -29.2136   -0.3297 H   0  0  0  0  0  0  0  0  0  0  0  0
  -44.0733  -28.7065    0.6409 H   0  0  0  0  0  0  0  0  0  0  0  0
  -46.2375  -34.5128    0.9526 H   0  0  0  0  0  0  0  0  0  0  0  0
  -47.6165  -33.4909    1.4142 H   0  0  0  0  0  0  0  0  0  0  0  0
  -46.7459  -34.4129    2.6531 H   0  0  0  0  0  0  0  0  0  0  0  0
  -50.2172  -31.5895    3.2780 H   0  0  0  0  0  0  0  0  0  0  0  0
  -50.8725  -30.8828    1.8010 H   0  0  0  0  0  0  0  0  0  0  0  0
  -47.0023  -32.4117   -0.4581 H   0  0  0  0  0  0  0  0  0  0  0  0
  -46.8138  -30.6520   -0.6190 H   0  0  0  0  0  0  0  0  0  0  0  0
  -48.5283  -32.0109    1.4935 H   0  0  0  0  0  0  0  0  0  0  0  0
  -49.1786  -31.2353    0.0235 H   0  0  0  0  0  0  0  0  0  0  0  0
  1  3  2  0  0  0  0
  1  6  1  0  0  0  0
  2  4  1  0  0  0  0
  2  6  2  0  0  0  0
  3  7  1  0  0  0  0
  4  7  2  0  0  0  0
  5 23  1  0  0  0  0
  5 24  2  0  0  0  0
  6  8  1  0  0  0  0
  7 32  1  0  0  0  0
  8 25  2  0  0  0  0
  8 31  1  0  0  0  0
  9 20  1  0  0  0  0
  9 26  2  0  0  0  0
  9 31  1  0  0  0  0
 10 23  2  0  0  0  0
 10 27  1  0  0  0  0
 10 28  1  0  0  0  0
 11 12  2  0  0  0  0
 11 13  1  0  0  0  0
 11 21  1  0  0  0  0
 12 18  1  0  0  0  0
 12 28  1  0  0  0  0
 13 19  1  0  0  0  0
 13 27  2  0  0  0  0
 14 22  1  0  0  0  0
 14 29  1  0  0  0  0
 14 30  2  0  0  0  0
 15 16  1  0  0  0  0
 15 17  1  0  0  0  0
 16 17  1  0  0  0  0
 17 29  1  0  0  0  0
 20 29  1  0  0  0  0
 21 22  1  0  0  0  0
 24 28  1  0  0  0  0
 25 26  1  0  0  0  0
  1 33  1  0  0  0  0
  2 34  1  0  0  0  0
  3 35  1  0  0  0  0
  4 36  1  0  0  0  0
  5 37  1  0  0  0  0
 15 38  1  0  0  0  0
 15 39  1  0  0  0  0
 16 40  1  0  0  0  0
 16 41  1  0  0  0  0
 17 42  1  0  0  0  0
 18 43  1  0  0  0  0
 18 44  1  0  0  0  0
 18 45  1  0  0  0  0
 19 46  1  0  0  0  0
 19 47  1  0  0  0  0
 19 48  1  0  0  0  0
 20 49  1  0  0  0  0
 20 50  1  0  0  0  0
 21 51  1  0  0  0  0
 21 52  1  0  0  0  0
 22 53  1  0  0  0  0
 22 54  1  0  0  0  0
M  END
> <POSIT::Probability>
0.02

> <POSIT::Method>
FRED

> <ReceptorTitle>
UCSF-P4578-REFINED_LIGAND-BOUND-STATE_A__DU__LA1_A-201(A)

> <OMEGA_C>
yTdPwgqi7cGKXfVAmVlVwoEY38G+ludA/55Pwpq168GImxBB1cBVwggs3cHqtwlBp84pwlDK88ET
zmlAVBVSwllT58GyjdhAQ+NSwsJ648EOIBhBVKlRwpBL6cG8d6tAcxpOwr1a78E/J2dAL7wvwq2Z
/sHSeUJAyLM3wtSj+8EmhYw/CkI0wiGS88E8oK0/p9c2wsLNAsJMY/c/VbpBwr4W78F4IsI/Y1VD
wiv468Gq46RA33E+wjUs6MGWno1AHNBDwkbB58HA8G9AKVY0wvrO6MFgDC4/Fpk6wgl7B8IoQ9w/
7vZJwhcm9cEgJjNA8xs8wnGy+8HAPKk91HlBwvmu+cGY80I/56wrwhHS/cFM1ndAsmkswuQj7sF8
/i5AsNhUwm6Q5sGi54tANoFSwmyN6sEKTE5Akx8zwit1A8J06TRAP0Uwwl8T9cHF5xRAUBhFwgfT
7sGrmihAIhY/wjJT58E6s5E/gEhNwhPo7sHkl55A22JTwmgc4cH8LDNBqqdMwgYU9MG3I+pAFptX
wqka2sH5iNFAul1Nwjmw8MGKphtBYlBYwqK71sHvWQ9Bpm0mwq9y8MECwoVAlsJDwm9+9MFnGKpA
p9tEwskG58FBnL5Ayaw8wpis4ME5q5dACpc7wpol7sEzM4NAYZtFwrvo38HYjmhAc+M2wndr48HE
NZ8/ud41wnm16cEIz6i+EUswwu6m5cHIECQ/OPM4whUNCsIM3nM/Q3c+wqb2BcIQBLU/wvs6wtKm
CcIGzClAY95Iwl+3/MFey1FAaX1LwvMP98Fah+Y/ZAI8wpKlAcKwj+q+WUE7wl039cHocx6/+BxC
wi4LAMJUKr8/4bZEwvfh+cGAJMA8

> <OMEGA_E>
9F3ewA==

> <OMEGA_NBR>
    183497

$$$$
CACHE3HI_1716_10
  -OEChem-03092622533D

 50 53  0     1  0  0  0  0  0999 V2000
  -47.0921  -29.9875    2.6531 C   0  0  0  0  0  0  0  0  0  0  0  0
  -48.3891  -29.9242    3.1672 C   0  0  0  0  0  0  0  0  0  0  0  0
  -45.9762  -29.8376    3.4831 C   0  0  0  0  0  0  0  0  0  0  0  0
  -55.7683  -28.3478   10.0900 C   0  0  0  0  0  0  0  0  0  0  0  0
  -54.3768  -26.3807   10.2714 C   0  0  0  0  0  0  0  0  0  0  0  0
  -56.1344  -26.7694   11.8823 C   0  0  0  0  0  0  0  0  0  0  0  0
  -47.2893  -29.3317    6.7571 C   0  0  0  0  0  0  0  0  0  0  0  0
  -47.5009  -29.5560    5.3795 C   0  0  0  0  0  0  0  0  0  0  0  0
  -48.6124  -29.7085    4.5337 C   0  0  0  0  0  0  0  0  0  0  0  0
  -54.7185  -27.5624    9.6136 C   0  0  0  0  0  0  0  0  0  0  0  0
  -56.4761  -27.9512   11.2245 C   0  0  0  0  0  0  0  0  0  0  0  0
  -46.2205  -29.6233    4.8411 C   0  0  0  0  0  0  0  0  0  0  0  0
  -55.0847  -25.9841   11.4060 C   0  0  0  0  0  0  0  0  0  0  0  0
  -53.9735  -27.9797    8.4166 C   0  0  0  0  0  0  0  0  0  0  0  0
  -49.9972  -29.6438    5.0660 C   0  0  0  0  0  0  0  0  0  0  0  0
  -51.5414  -31.2366    8.0427 C   0  0  0  0  0  0  0  0  0  0  0  0
  -51.7416  -28.7168    7.6471 C   0  0  0  0  0  0  0  0  0  0  0  0
  -52.6883  -29.7392    9.7082 C   0  0  0  0  0  0  0  0  0  0  0  0
  -51.4524  -30.0873    7.0275 C   0  0  1  0  0  0  0  0  0  0  0  0
  -51.5512  -30.7378    9.4864 C   0  0  1  0  0  0  0  0  0  0  0  0
  -57.5986  -28.7906   11.7345 C   0  0  0  0  0  0  0  0  0  0  0  0
  -45.9958  -29.2609    7.0788 N   0  0  0  0  0  0  0  0  0  0  0  0
  -45.3743  -29.4405    5.9007 N   0  0  0  0  0  0  0  0  0  0  0  0
  -52.8499  -28.7926    8.5972 N   0  0  0  0  0  0  0  0  0  0  0  0
  -50.1635  -30.0681    6.3759 N   0  0  0  0  0  0  0  0  0  0  0  0
  -54.4051  -27.5805    7.3365 O   0  0  0  0  0  0  0  0  0  0  0  0
  -50.9027  -29.2487    4.3363 O   0  0  0  0  0  0  0  0  0  0  0  0
  -51.7309  -31.8361   10.3739 O   0  0  0  0  0  0  0  0  0  0  0  0
  -54.7563  -24.8497   12.0381 F   0  0  0  0  0  0  0  0  0  0  0  0
  -46.9460  -30.1560    1.5891 H   0  0  0  0  0  0  0  0  0  0  0  0
  -49.2315  -30.0454    2.4897 H   0  0  0  0  0  0  0  0  0  0  0  0
  -44.9686  -29.8864    3.0854 H   0  0  0  0  0  0  0  0  0  0  0  0
  -56.0367  -29.2693    9.5782 H   0  0  0  0  0  0  0  0  0  0  0  0
  -53.5611  -25.7609    9.9086 H   0  0  0  0  0  0  0  0  0  0  0  0
  -56.6802  -26.4527   12.7669 H   0  0  0  0  0  0  0  0  0  0  0  0
  -48.0251  -29.2169    7.5406 H   0  0  0  0  0  0  0  0  0  0  0  0
  -52.4534  -31.8200    7.8456 H   0  0  0  0  0  0  0  0  0  0  0  0
  -50.6845  -31.9143    7.9056 H   0  0  0  0  0  0  0  0  0  0  0  0
  -50.8661  -28.3470    8.2028 H   0  0  0  0  0  0  0  0  0  0  0  0
  -51.9439  -27.9869    6.8528 H   0  0  0  0  0  0  0  0  0  0  0  0
  -53.6372  -30.2767    9.8769 H   0  0  0  0  0  0  0  0  0  0  0  0
  -52.4976  -29.1382   10.6148 H   0  0  0  0  0  0  0  0  0  0  0  0
  -52.1833  -30.2634    6.2112 H   0  0  0  0  0  0  0  0  0  0  0  0
  -50.5978  -30.2698    9.7225 H   0  0  0  0  0  0  0  0  0  0  0  0
  -57.2433  -29.5332   12.4609 H   0  0  0  0  0  0  0  0  0  0  0  0
  -58.0810  -29.3476   10.9204 H   0  0  0  0  0  0  0  0  0  0  0  0
  -58.3546  -28.1623   12.2213 H   0  0  0  0  0  0  0  0  0  0  0  0
  -44.3621  -29.4274    5.8882 H   0  0  0  0  0  0  0  0  0  0  0  0
  -49.3751  -30.4411    6.8961 H   0  0  0  0  0  0  0  0  0  0  0  0
  -50.9855  -32.4369   10.2221 H   0  0  0  0  0  0  0  0  0  0  0  0
  1  2  2  0  0  0  0
  1  3  1  0  0  0  0
  2  9  1  0  0  0  0
  3 12  2  0  0  0  0
  4 10  2  0  0  0  0
  4 11  1  0  0  0  0
  5 10  1  0  0  0  0
  5 13  2  0  0  0  0
  6 11  2  0  0  0  0
  6 13  1  0  0  0  0
  7  8  1  0  0  0  0
  7 22  2  0  0  0  0
  8  9  2  0  0  0  0
  8 12  1  0  0  0  0
  9 15  1  0  0  0  0
 10 14  1  0  0  0  0
 11 21  1  0  0  0  0
 12 23  1  0  0  0  0
 13 29  1  0  0  0  0
 14 24  1  0  0  0  0
 14 26  2  0  0  0  0
 15 25  1  0  0  0  0
 15 27  2  0  0  0  0
 16 19  1  0  0  0  0
 16 20  1  0  0  0  0
 17 19  1  0  0  0  0
 17 24  1  0  0  0  0
 18 20  1  0  0  0  0
 18 24  1  0  0  0  0
 19 25  1  0  0  0  0
 20 28  1  0  0  0  0
 22 23  1  0  0  0  0
  1 30  1  0  0  0  0
  2 31  1  0  0  0  0
  3 32  1  0  0  0  0
  4 33  1  0  0  0  0
  5 34  1  0  0  0  0
  6 35  1  0  0  0  0
  7 36  1  0  0  0  0
 16 37  1  0  0  0  0
 16 38  1  0  0  0  0
 17 39  1  0  0  0  0
 17 40  1  0  0  0  0
 18 41  1  0  0  0  0
 18 42  1  0  0  0  0
 19 43  1  0  0  0  0
 20 44  1  0  0  0  0
 21 45  1  0  0  0  0
 21 46  1  0  0  0  0
 21 47  1  0  0  0  0
 23 48  1  0  0  0  0
 25 49  1  0  0  0  0
 28 50  1  0  0  0  0
M  END
> <POSIT::Probability>
0.33

> <POSIT::Method>
HYBRID

> <ReceptorTitle>
UCSF-P4578-REFINED_LIGAND-BOUND-STATE_A__DU__LA1_A-201(A)

> <OMEGA_C>
SF48wk/m78G1zClAdI5BwrZk78EotEpApec3wmyz7sHY615AvBJfwk7I4sGhcCFB24FZwpwL08GL
VyRBl4lgws4n1sHUHT5BPyg9wlGn6sESOthA+AA+wp5y7MGeJKxAEnNCwu+q7cFXFJFAyd9awuF/
3MFm0RlBhedhwhKc38GulzNB1eE4woz87MGY6ppAsFZcwmTfz8HGfjZB2eRXwnPW38FfqgZBKv1H
wogm7cFYHKJAWCpOwoTk+cHkrgBBafdOwhK85cFZtfRA0sBSwvfp7cHSVBtBRM9Nwruy8MFR4eBA
cDROwvjm9cE2yBdB9GRmwh5T5sFgwDtBqfs3wkoW6sEwheJAVH81wiyG68G40rxAUWZTwjtX5sEa
jglBZKdIwnyL8MFJB8xA055ZwuKk3MFtxOpAWZxLwlf96cEew4pAaOxOwjuw/sFg+yVBgAZbwjnM
xsEnnEBBwMg7wmo/8cFwZss/C+1Ewv9c8MFlVx9A5N8zwkMX78H3d0VAniVgwnYn6sGCQBlBnD5W
wjwWzsG2iR5BgbhiwjSf08ESRUxBsxlAwka86cGCTPFAPdBRwmyP/sFlD/tA87xKwnVQ/8HS+vxA
3nZLwp/G4sG4PgNBi8ZPwkHl38HgSdtAfoxWwr028sHKBx5BkP1Rwhcb6cEY1ilBrrtQwoUb8sEQ
wsZAG2RKwp8o8sFvjxtBLflkwutD7MHAX0dB6lJowvLH6sEGui5BE2tpwlJM4cF0ikNB1nIxwkZr
68E1bLxAGoBFwmCH88HhrNxAJ/FLwla/AcLKjSNB

> <OMEGA_E>
Uuq+wA==

> <OMEGA_NBR>
    185003

$$$$
CACHE3HI_1716_17
  -OEChem-03092622533D

 58 61  0     1  0  0  0  0  0999 V2000
  -46.1934  -28.7547    6.0827 C   0  0  0  0  0  0  0  0  0  0  0  0
  -47.5854  -28.8677    6.1018 C   0  0  0  0  0  0  0  0  0  0  0  0
  -45.4465  -29.1943    4.9848 C   0  0  0  0  0  0  0  0  0  0  0  0
  -47.8306  -30.4704    2.6639 C   0  0  0  0  0  0  0  0  0  0  0  0
  -47.5402  -29.8722    3.9092 C   0  0  0  0  0  0  0  0  0  0  0  0
  -48.2775  -29.4261    5.0189 C   0  0  0  0  0  0  0  0  0  0  0  0
  -46.1552  -29.7476    3.9165 C   0  0  0  0  0  0  0  0  0  0  0  0
  -49.7578  -29.5395    5.0535 C   0  0  0  0  0  0  0  0  0  0  0  0
  -54.4308  -28.3524    8.3654 C   0  0  0  0  0  0  0  0  0  0  0  0
  -53.3719  -27.3574   10.5670 C   0  0  0  0  0  0  0  0  0  0  0  0
  -54.7428  -26.0428    9.6003 C   0  0  0  0  0  0  0  0  0  0  0  0
  -52.1531  -31.3243    6.4192 C   0  0  0  0  0  0  0  0  0  0  0  0
  -52.1673  -29.2376    7.8420 C   0  0  0  0  0  0  0  0  0  0  0  0
  -54.0431  -30.8454    8.0390 C   0  0  0  0  0  0  0  0  0  0  0  0
  -53.7974  -27.1611    9.0882 C   0  0  0  0  0  0  0  0  0  0  0  0
  -53.8051  -25.8935   10.8228 C   0  0  0  0  0  0  0  0  0  0  0  0
  -51.7454  -29.8482    6.5050 C   0  0  1  0  0  0  0  0  0  0  0  0
  -53.6403  -31.5155    6.7243 C   0  0  1  0  0  0  0  0  0  0  0  0
  -56.3937  -26.1599   13.4773 C   0  0  0  0  0  0  0  0  0  0  0  0
  -56.6613  -24.9803   11.4012 C   0  0  0  0  0  0  0  0  0  0  0  0
  -54.4668  -25.6047   12.1537 C   0  0  0  0  0  0  0  0  0  0  0  0
  -46.7379  -30.7097    1.9356 N   0  0  0  0  0  0  0  0  0  0  0  0
  -45.7411  -30.2626    2.7184 N   0  0  0  0  0  0  0  0  0  0  0  0
  -53.5978  -29.4464    8.0811 N   0  0  0  0  0  0  0  0  0  0  0  0
  -50.3234  -29.7003    6.3092 N   0  0  0  0  0  0  0  0  0  0  0  0
  -55.8747  -25.9842   12.1197 N   0  0  0  0  0  0  0  0  0  0  0  0
  -50.3870  -29.5062    3.9993 O   0  0  0  0  0  0  0  0  0  0  0  0
  -55.6313  -28.3302    8.0541 O   0  0  0  0  0  0  0  0  0  0  0  0
  -54.4085  -30.9691    5.6541 O   0  0  0  0  0  0  0  0  0  0  0  0
  -45.6804  -28.3176    6.9357 H   0  0  0  0  0  0  0  0  0  0  0  0
  -48.1312  -28.5144    6.9739 H   0  0  0  0  0  0  0  0  0  0  0  0
  -44.3658  -29.1073    4.9685 H   0  0  0  0  0  0  0  0  0  0  0  0
  -48.7944  -30.7419    2.2568 H   0  0  0  0  0  0  0  0  0  0  0  0
  -53.9609  -28.1088   11.1071 H   0  0  0  0  0  0  0  0  0  0  0  0
  -52.3096  -27.5647   10.7248 H   0  0  0  0  0  0  0  0  0  0  0  0
  -54.8161  -25.1610    8.9571 H   0  0  0  0  0  0  0  0  0  0  0  0
  -55.7558  -26.3875    9.8413 H   0  0  0  0  0  0  0  0  0  0  0  0
  -51.9319  -31.7031    5.4135 H   0  0  0  0  0  0  0  0  0  0  0  0
  -51.5646  -31.9127    7.1349 H   0  0  0  0  0  0  0  0  0  0  0  0
  -51.6321  -29.7104    8.6751 H   0  0  0  0  0  0  0  0  0  0  0  0
  -51.9262  -28.1694    7.8619 H   0  0  0  0  0  0  0  0  0  0  0  0
  -55.1233  -30.9194    8.1747 H   0  0  0  0  0  0  0  0  0  0  0  0
  -53.5665  -31.3552    8.8846 H   0  0  0  0  0  0  0  0  0  0  0  0
  -52.9767  -26.7502    8.4827 H   0  0  0  0  0  0  0  0  0  0  0  0
  -52.9882  -25.1836   10.6298 H   0  0  0  0  0  0  0  0  0  0  0  0
  -52.2201  -29.2897    5.6892 H   0  0  0  0  0  0  0  0  0  0  0  0
  -53.8637  -32.5873    6.7702 H   0  0  0  0  0  0  0  0  0  0  0  0
  -55.8091  -26.9094   14.0186 H   0  0  0  0  0  0  0  0  0  0  0  0
  -56.3459  -25.2147   14.0254 H   0  0  0  0  0  0  0  0  0  0  0  0
  -57.4370  -26.4858   13.4435 H   0  0  0  0  0  0  0  0  0  0  0  0
  -56.2773  -24.8453   10.3859 H   0  0  0  0  0  0  0  0  0  0  0  0
  -57.7079  -25.2917   11.3420 H   0  0  0  0  0  0  0  0  0  0  0  0
  -56.6166  -24.0207   11.9238 H   0  0  0  0  0  0  0  0  0  0  0  0
  -53.9631  -26.1645   12.9505 H   0  0  0  0  0  0  0  0  0  0  0  0
  -54.3818  -24.5380   12.3927 H   0  0  0  0  0  0  0  0  0  0  0  0
  -44.7925  -30.3385    2.3731 H   0  0  0  0  0  0  0  0  0  0  0  0
  -49.7319  -29.7815    7.1302 H   0  0  0  0  0  0  0  0  0  0  0  0
  -54.1503  -31.4534    4.8551 H   0  0  0  0  0  0  0  0  0  0  0  0
  1  2  2  0  0  0  0
  1  3  1  0  0  0  0
  2  6  1  0  0  0  0
  3  7  2  0  0  0  0
  4  5  1  0  0  0  0
  4 22  2  0  0  0  0
  5  6  2  0  0  0  0
  5  7  1  0  0  0  0
  6  8  1  0  0  0  0
  7 23  1  0  0  0  0
  8 25  1  0  0  0  0
  8 27  2  0  0  0  0
  9 15  1  0  0  0  0
  9 24  1  0  0  0  0
  9 28  2  0  0  0  0
 10 15  1  0  0  0  0
 10 16  1  0  0  0  0
 11 15  1  0  0  0  0
 11 16  1  0  0  0  0
 12 17  1  0  0  0  0
 12 18  1  0  0  0  0
 13 17  1  0  0  0  0
 13 24  1  0  0  0  0
 14 18  1  0  0  0  0
 14 24  1  0  0  0  0
 16 21  1  0  0  0  0
 17 25  1  0  0  0  0
 18 29  1  0  0  0  0
 19 26  1  0  0  0  0
 20 26  1  0  0  0  0
 21 26  1  0  0  0  0
 22 23  1  0  0  0  0
  1 30  1  0  0  0  0
  2 31  1  0  0  0  0
  3 32  1  0  0  0  0
  4 33  1  0  0  0  0
 10 34  1  0  0  0  0
 10 35  1  0  0  0  0
 11 36  1  0  0  0  0
 11 37  1  0  0  0  0
 12 38  1  0  0  0  0
 12 39  1  0  0  0  0
 13 40  1  0  0  0  0
 13 41  1  0  0  0  0
 14 42  1  0  0  0  0
 14 43  1  0  0  0  0
 15 44  1  0  0  0  0
 16 45  1  0  0  0  0
 17 46  1  0  0  0  0
 18 47  1  0  0  0  0
 19 48  1  0  0  0  0
 19 49  1  0  0  0  0
 19 50  1  0  0  0  0
 20 51  1  0  0  0  0
 20 52  1  0  0  0  0
 20 53  1  0  0  0  0
 21 54  1  0  0  0  0
 21 55  1  0  0  0  0
 23 56  1  0  0  0  0
 25 57  1  0  0  0  0
 29 58  1  0  0  0  0
M  END
> <POSIT::Probability>
0.23

> <POSIT::Method>
HYBRID

> <ReceptorTitle>
UCSF-P4578-REFINED_LIGAND-BOUND-STATE_A__DU__LA1_A-201(A)

> <OMEGA_C>
E8Y4wp4J5sEUpcJAbVc+wiLx5sE0QsNALck1wvSN6cFXg59AkVI/wk/D88EhfipANSk+wjn67sEb
MXpALRxBwqZo68F4mqBA+J44wi777cENqHpA+wdHwvNQ7MEMtqFAHblZws7R4sHK2AVB23xVwuDb
2sGIEilBl/hawqFX0MHMmhlBxZxQwh2Y+sHiac1ARqtQwoLm6cGg8fpAJyxYwnnD9sGXnwBBiTBX
wu9J2cEmaRFBYDhXwtAlz8EuKi1BU/tOwiTJ7sHiKNBAs49WwtAf/MGCLddAJpNhwnhH0cEko1dB
IaViwpjXx8E7azZB9t1ZwnHWzMFcdUJBofM6wmGt9cH8wvc/4/Y2wtoZ8sE1+i1AH2RWwjOS68Ee
TAFBJUtJwjSa7cHJ5MlArn9fwrTfz8Fn6kFBSYxJwskM7MEn9H9AaYZewlOk4sGG3QBBSaJZwr7A
98F27rRAwrg2wmCK4sEw8d1AYIZAwpId5MGAKt9AjHYxwtPb6MHY/Z5AgC1Dwnzv9cEVbxBA7tdX
wt3e4MGStjFBAj1RwoeE3MHNmCtBt0NbwtFJycF8UA9B+wVfwocZ08EGdh1BSbpPwgyg/cFiO61A
IEJOwitN/8HIUORAO4dOwtWu7cE2zQpBebRPwghb4cG0lPtATX5cwupa98G2ywJBJURWwm3X+sE+
Jw5BMOhTwmcA1sEouQdB5fNTwvB3ycGfEypBWOFQwjxR6sEIDrZAY3RXwmRZAsKCpdhAfjxfwmZG
18ELTGBBNWJhwre3ycH2Z2BBcr9lwvXi08GSGFdB7xthwjrDxsGtLCZB7dRmwmxVysHJeDVBc3di
wnsqwMG4xz5BO9pXwuJQ0cFcNU9B/IZZwtpNxMGCSEZBgCszwkq18sHE4BdAa+1GwoFA7sHYKuRA
6ZlYwoCg+8GsXJtA

> <OMEGA_E>
yrfbwA==

> <OMEGA_NBR>
    186669

$$$$
CACHE3HI_1716_19
  -OEChem-03092622533D

 46 49  0     1  0  0  0  0  0999 V2000
  -51.2422  -29.7831    2.8787 C   0  0  0  0  0  0  0  0  0  0  0  0
  -52.1964  -30.6687    3.4718 C   0  0  0  0  0  0  0  0  0  0  0  0
  -50.1452  -29.2318    3.5684 C   0  0  0  0  0  0  0  0  0  0  0  0
  -52.1432  -31.0896    4.8197 C   0  0  0  0  0  0  0  0  0  0  0  0
  -42.7535  -28.4035    1.7169 C   0  0  0  0  0  0  0  0  0  0  0  0
  -50.1209  -29.6631    4.8882 C   0  0  0  0  0  0  0  0  0  0  0  0
  -43.8502  -29.2705    1.8823 C   0  0  0  0  0  0  0  0  0  0  0  0
  -51.0560  -30.5530    5.5340 C   0  0  0  0  0  0  0  0  0  0  0  0
  -49.1893  -29.3139    5.8234 C   0  0  0  0  0  0  0  0  0  0  0  0
  -43.3087  -30.5295    1.7895 C   0  0  0  0  0  0  0  0  0  0  0  0
  -46.7796  -29.0723    5.1063 C   0  0  0  0  0  0  0  0  0  0  0  0
  -46.7897  -30.7177    1.7684 C   0  0  0  0  0  0  0  0  0  0  0  0
  -47.0753  -29.6242    0.7627 C   0  0  0  0  0  0  0  0  0  0  0  0
  -45.3018  -28.8938    2.1091 C   0  0  2  0  0  0  0  0  0  0  0  0
  -46.0740  -29.9737    2.8785 C   0  0  1  0  0  0  0  0  0  0  0  0
  -43.9294  -31.8650    1.8777 C   0  0  0  0  0  0  0  0  0  0  0  0
  -40.9715  -31.3749    1.4166 C   0  0  0  0  0  0  0  0  0  0  0  0
  -47.9699  -28.4299    5.7923 C   0  0  0  0  0  0  0  0  0  0  0  0
  -41.6029  -29.0563    1.5333 N   0  0  0  0  0  0  0  0  0  0  0  0
  -50.6860  -30.7244    6.8159 N   0  0  0  0  0  0  0  0  0  0  0  0
  -49.5748  -29.9747    6.9536 N   0  0  0  0  0  0  0  0  0  0  0  0
  -41.9730  -30.3472    1.5825 N   0  0  0  0  0  0  0  0  0  0  0  0
  -47.0490  -29.3455    3.7731 N   0  0  0  0  0  0  0  0  0  0  0  0
  -45.7204  -29.3184    5.6774 O   0  0  0  0  0  0  0  0  0  0  0  0
  -45.9832  -28.6992    0.8513 O   0  0  0  0  0  0  0  0  0  0  0  0
  -51.3755  -29.5215    1.8292 H   0  0  0  0  0  0  0  0  0  0  0  0
  -53.0087  -31.0382    2.8468 H   0  0  0  0  0  0  0  0  0  0  0  0
  -49.4334  -28.5639    3.1040 H   0  0  0  0  0  0  0  0  0  0  0  0
  -52.8748  -31.7606    5.2498 H   0  0  0  0  0  0  0  0  0  0  0  0
  -42.7429  -27.3228    1.7205 H   0  0  0  0  0  0  0  0  0  0  0  0
  -47.6890  -31.2538    2.0863 H   0  0  0  0  0  0  0  0  0  0  0  0
  -46.1051  -31.4521    1.3263 H   0  0  0  0  0  0  0  0  0  0  0  0
  -47.1543  -30.0018   -0.2604 H   0  0  0  0  0  0  0  0  0  0  0  0
  -47.9962  -29.0849    1.0086 H   0  0  0  0  0  0  0  0  0  0  0  0
  -45.2977  -27.9327    2.6474 H   0  0  0  0  0  0  0  0  0  0  0  0
  -45.4565  -30.6117    3.4992 H   0  0  0  0  0  0  0  0  0  0  0  0
  -44.2618  -32.2341    0.8919 H   0  0  0  0  0  0  0  0  0  0  0  0
  -44.8270  -31.8631    2.5204 H   0  0  0  0  0  0  0  0  0  0  0  0
  -43.2242  -32.6052    2.2910 H   0  0  0  0  0  0  0  0  0  0  0  0
  -40.8581  -31.6440    0.3611 H   0  0  0  0  0  0  0  0  0  0  0  0
  -41.2553  -32.2687    1.9808 H   0  0  0  0  0  0  0  0  0  0  0  0
  -39.9943  -31.0288    1.7692 H   0  0  0  0  0  0  0  0  0  0  0  0
  -48.2045  -27.4908    5.2760 H   0  0  0  0  0  0  0  0  0  0  0  0
  -47.6872  -28.1605    6.8178 H   0  0  0  0  0  0  0  0  0  0  0  0
  -49.1245  -29.9605    7.8600 H   0  0  0  0  0  0  0  0  0  0  0  0
  -47.9691  -29.1365    3.3967 H   0  0  0  0  0  0  0  0  0  0  0  0
  1  2  1  0  0  0  0
  1  3  2  0  0  0  0
  2  4  2  0  0  0  0
  3  6  1  0  0  0  0
  4  8  1  0  0  0  0
  5  7  1  0  0  0  0
  5 19  2  0  0  0  0
  6  8  1  0  0  0  0
  6  9  2  0  0  0  0
  7 10  2  0  0  0  0
  7 14  1  0  0  0  0
  8 20  2  0  0  0  0
  9 18  1  0  0  0  0
  9 21  1  0  0  0  0
 10 16  1  0  0  0  0
 10 22  1  0  0  0  0
 11 18  1  0  0  0  0
 11 23  1  0  0  0  0
 11 24  2  0  0  0  0
 12 13  1  0  0  0  0
 12 15  1  0  0  0  0
 13 25  1  0  0  0  0
 14 15  1  0  0  0  0
 14 25  1  0  0  0  0
 15 23  1  0  0  0  0
 17 22  1  0  0  0  0
 19 22  1  0  0  0  0
 20 21  1  0  0  0  0
  1 26  1  0  0  0  0
  2 27  1  0  0  0  0
  3 28  1  0  0  0  0
  4 29  1  0  0  0  0
  5 30  1  0  0  0  0
 12 31  1  0  0  0  0
 12 32  1  0  0  0  0
 13 33  1  0  0  0  0
 13 34  1  0  0  0  0
 14 35  1  0  0  0  0
 15 36  1  0  0  0  0
 16 37  1  0  0  0  0
 16 38  1  0  0  0  0
 16 39  1  0  0  0  0
 17 40  1  0  0  0  0
 17 41  1  0  0  0  0
 17 42  1  0  0  0  0
 18 43  1  0  0  0  0
 18 44  1  0  0  0  0
 21 45  1  0  0  0  0
 23 46  1  0  0  0  0
M  END
> <POSIT::Probability>
0.05

> <POSIT::Method>
FRED

> <ReceptorTitle>
UCSF-P4578-REFINED_LIGAND-BOUND-STATE_A__DU__LA1_A-201(A)

> <OMEGA_C>
APhMwsxD7sGsPDhAIclQwoFZ9cEsMV5AuJRIwsva6cH8YGRAmpJQwni3+MEaO5pAmgMrwl4648G8
wts/1HtIwu5N7cEkbJxApGYvwgcq6sEQ8PA/UjlMwnhs9MFuFrFAy8FEwueC6sFeWbpAEzwtwoQ8
9MEID+U/Vx47wgSU6MHCZqNAsig7wuq99cGoW+I/FU08wkf+7MGAQkM/CDU1wmgm58GY+wZAvUs4
wijK78HsODhAtbcvwnLr/sFEWPA/yuIjws3/+sF4VLU/OuE/wnRw48HqWrlAWGkmwk1z6MF4QsQ/
gb5KwoTL9cGyG9pAn0xGwh7M78Gwg95AUuQnwiDH8sGQj8o/NDI8wqzD6sEKenFAt+E2wiaM6sEK
rbVA1e43wuCX5cGQ8Vk/doBNwgIs7MEgIuo/9QhUwkRO+MHEMTZA2btFws2C5MGop0ZA2H9TwqoV
/sFQ/qdAwvgqwieV2sF4Odw/jcE+wsEH+sFQhgVAqms4wvSd+8Egxak/Bp48wrQD8MEgT4W+Hfw/
wt6t6MFQGoE/1DA1whx238G2bylAbtM1wtjk9MGg8l9AIgwxwr3vAMJAVmQ/3k4zwrLn/sEKTyFA
meUswrBrAsL+nhJAvW4jwt0m/cFg4Lg+bAUlwjITAcIYjP0/MPofwgg7+MHgdOI/btFAwhLt28FE
1ahArL8+wqZI4cEsK9pAh39Ewgav78FShftAYuA/woAX6cG4Y1lA

> <OMEGA_E>
qzsVwQ==

> <OMEGA_NBR>
    188090

$$$$
CACHE3HI_1716_46
  -OEChem-03092622533D

 39 42  0     1  0  0  0  0  0999 V2000
  -48.8685  -29.2308    2.1613 C   0  0  0  0  0  0  0  0  0  0  0  0
  -47.7020  -28.4445    2.4212 C   0  0  0  0  0  0  0  0  0  0  0  0
  -49.5894  -29.9214    3.1544 C   0  0  0  0  0  0  0  0  0  0  0  0
  -47.1427  -28.2733    3.7076 C   0  0  0  0  0  0  0  0  0  0  0  0
  -54.4233  -26.3778    9.3600 C   0  0  0  0  0  0  0  0  0  0  0  0
  -54.9285  -26.3746   10.6753 C   0  0  0  0  0  0  0  0  0  0  0  0
  -49.0156  -29.7344    4.4051 C   0  0  0  0  0  0  0  0  0  0  0  0
  -47.8434  -28.9537    4.7207 C   0  0  0  0  0  0  0  0  0  0  0  0
  -53.5511  -27.4429    9.3256 C   0  0  0  0  0  0  0  0  0  0  0  0
  -49.4700  -30.2664    5.5777 C   0  0  0  0  0  0  0  0  0  0  0  0
  -51.5787  -30.5392    6.9408 C   0  0  0  0  0  0  0  0  0  0  0  0
  -52.7020  -28.0170    8.2443 C   0  0  0  0  0  0  0  0  0  0  0  0
  -52.1552  -29.8746    9.8701 C   0  0  0  0  0  0  0  0  0  0  0  0
  -52.7855  -29.1026   11.0325 C   0  0  0  0  0  0  0  0  0  0  0  0
  -51.5899  -28.9099    8.8185 C   0  0  1  0  0  0  0  0  0  0  0  0
  -50.6320  -31.1578    5.9302 C   0  0  0  0  0  0  0  0  0  0  0  0
  -54.4225  -27.3570   11.4273 N   0  0  0  0  0  0  0  0  0  0  0  0
  -47.6121  -29.0232    6.0440 N   0  0  0  0  0  0  0  0  0  0  0  0
  -48.5960  -29.8103    6.5215 N   0  0  0  0  0  0  0  0  0  0  0  0
  -53.5970  -27.9927   10.5781 N   0  0  0  0  0  0  0  0  0  0  0  0
  -50.9237  -29.6341    7.7656 N   0  0  0  0  0  0  0  0  0  0  0  0
  -52.7722  -30.8205    7.0112 O   0  0  0  0  0  0  0  0  0  0  0  0
  -49.2175  -29.2971    1.1310 H   0  0  0  0  0  0  0  0  0  0  0  0
  -47.2197  -27.9507    1.5782 H   0  0  0  0  0  0  0  0  0  0  0  0
  -50.4695  -30.5113    2.9398 H   0  0  0  0  0  0  0  0  0  0  0  0
  -46.2594  -27.6739    3.8837 H   0  0  0  0  0  0  0  0  0  0  0  0
  -54.6607  -25.7042    8.5495 H   0  0  0  0  0  0  0  0  0  0  0  0
  -55.6439  -25.6959   11.1174 H   0  0  0  0  0  0  0  0  0  0  0  0
  -53.3477  -28.6007    7.5757 H   0  0  0  0  0  0  0  0  0  0  0  0
  -52.2603  -27.2086    7.6494 H   0  0  0  0  0  0  0  0  0  0  0  0
  -51.3695  -30.5321   10.2602 H   0  0  0  0  0  0  0  0  0  0  0  0
  -52.9156  -30.5180    9.4079 H   0  0  0  0  0  0  0  0  0  0  0  0
  -53.4180  -29.7635   11.6342 H   0  0  0  0  0  0  0  0  0  0  0  0
  -52.0077  -28.6760   11.6761 H   0  0  0  0  0  0  0  0  0  0  0  0
  -50.8231  -28.2812    9.2886 H   0  0  0  0  0  0  0  0  0  0  0  0
  -51.2007  -31.4030    5.0247 H   0  0  0  0  0  0  0  0  0  0  0  0
  -50.2560  -32.1081    6.3299 H   0  0  0  0  0  0  0  0  0  0  0  0
  -48.6102  -29.9969    7.5163 H   0  0  0  0  0  0  0  0  0  0  0  0
  -49.9229  -29.4930    7.6519 H   0  0  0  0  0  0  0  0  0  0  0  0
  1  2  1  0  0  0  0
  1  3  2  0  0  0  0
  2  4  2  0  0  0  0
  3  7  1  0  0  0  0
  4  8  1  0  0  0  0
  5  6  1  0  0  0  0
  5  9  2  0  0  0  0
  6 17  2  0  0  0  0
  7  8  1  0  0  0  0
  7 10  2  0  0  0  0
  8 18  2  0  0  0  0
  9 12  1  0  0  0  0
  9 20  1  0  0  0  0
 10 16  1  0  0  0  0
 10 19  1  0  0  0  0
 11 16  1  0  0  0  0
 11 21  1  0  0  0  0
 11 22  2  0  0  0  0
 12 15  1  0  0  0  0
 13 14  1  0  0  0  0
 13 15  1  0  0  0  0
 14 20  1  0  0  0  0
 15 21  1  0  0  0  0
 17 20  1  0  0  0  0
 18 19  1  0  0  0  0
  1 23  1  0  0  0  0
  2 24  1  0  0  0  0
  3 25  1  0  0  0  0
  4 26  1  0  0  0  0
  5 27  1  0  0  0  0
  6 28  1  0  0  0  0
 12 29  1  0  0  0  0
 12 30  1  0  0  0  0
 13 31  1  0  0  0  0
 13 32  1  0  0  0  0
 14 33  1  0  0  0  0
 14 34  1  0  0  0  0
 15 35  1  0  0  0  0
 16 36  1  0  0  0  0
 16 37  1  0  0  0  0
 19 38  1  0  0  0  0
 21 39  1  0  0  0  0
M  END
> <POSIT::Probability>
0.18

> <POSIT::Method>
HYBRID

> <ReceptorTitle>
UCSF-P4578-REFINED_LIGAND-BOUND-STATE_A__DU__LA1_A-201(A)

> <OMEGA_C>
TXlDwsTY6cEUUwpA0M4+wmGO48HE9BpAjFtGwhZf78Ek4klAF5I8wsIv4sFUSW1AerFZwsAF08GP
whVB0bZbwjP/0sE6zipBBhBEwvTf7cGU9oxAmV8/wiGh58GrD5dASDRWwviK28GtNRVBQuFFwo4h
8sGzfLJAlFBOwkFQ9MGlGt5A0M5SwtQi4MGx6ANB9p5Qwib/7sHE6x1BUCRTwhPS6MFBhTBBC1xO
wpJH58GVGA1BH4dKwj9D+cGWxL1AnbBZwiLb2sFU1jZByHI+wm4v6MFPaMFAWGJCwod77sFRsNBA
XmNWwhDx38HhPylB07FLwrgS7cGMf/hAxRZTwlmQ9sGeW+BAtN5EwmVg6sEoxZA/++A8whyb38HI
Aso/w+BJwhEX9MEgJjxAlgk5wiZk3cF8jnhAiqRawkuizcGnyghBVJNewkuRzcHR4DFBD2RVwj7O
5MHma/JAgQpRwiir2cHjx/RAYHpNwqxB9MGzKSRBkqlTwuEk9MHDhhZBFKxVwqAb7sHKJTpB2AdQ
wnRo5cFI0TpB1kpLwuE/4sElnhRBiM1Mwmk5+8FsyqBAIAZJwrBuAMJojspA0nBCwqb578GbhfBA
E7FHwrnx68Eh3PRA

> <OMEGA_E>
Bcv/wA==

> <OMEGA_NBR>
    189372

$$$$
CACHE3HI_1717_41
  -OEChem-03092622533D

 46 49  0     0  0  0  0  0  0999 V2000
  -55.8670  -25.5909   12.4257 C   0  0  0  0  0  0  0  0  0  0  0  0
  -56.8190  -26.6214   12.5616 C   0  0  0  0  0  0  0  0  0  0  0  0
  -54.9792  -25.5916   11.3305 C   0  0  0  0  0  0  0  0  0  0  0  0
  -56.9064  -27.6344   11.5849 C   0  0  0  0  0  0  0  0  0  0  0  0
  -55.0663  -26.6027   10.3510 C   0  0  0  0  0  0  0  0  0  0  0  0
  -54.7675  -30.4457   10.0218 C   0  0  0  0  0  0  0  0  0  0  0  0
  -53.7145  -31.3431    9.7890 C   0  0  0  0  0  0  0  0  0  0  0  0
  -48.2253  -29.4809    3.7344 C   0  0  0  0  0  0  0  0  0  0  0  0
  -54.4048  -29.4291    7.8298 C   0  0  0  0  0  0  0  0  0  0  0  0
  -48.7190  -29.5448    6.0904 C   0  0  0  0  0  0  0  0  0  0  0  0
  -49.6068  -29.5878    3.4787 C   0  0  0  0  0  0  0  0  0  0  0  0
  -44.2328  -29.3098    5.1526 C   0  0  0  0  0  0  0  0  0  0  0  0
  -45.3930  -29.3583    4.4226 C   0  0  0  0  0  0  0  0  0  0  0  0
  -45.8660  -29.3297    6.6566 C   0  0  0  0  0  0  0  0  0  0  0  0
  -56.0514  -27.6113   10.4579 C   0  0  0  0  0  0  0  0  0  0  0  0
  -55.1249  -29.4971    9.0432 C   0  0  0  0  0  0  0  0  0  0  0  0
  -47.7581  -29.4645    5.0682 C   0  0  0  0  0  0  0  0  0  0  0  0
  -53.2923  -30.2690    7.6358 C   0  0  0  0  0  0  0  0  0  0  0  0
  -52.9739  -31.2589    8.6019 C   0  0  0  0  0  0  0  0  0  0  0  0
  -50.0918  -29.6335    5.7696 C   0  0  0  0  0  0  0  0  0  0  0  0
  -51.0721  -29.7075    6.8584 C   0  0  0  0  0  0  0  0  0  0  0  0
  -56.2947  -28.5721    9.3000 C   0  0  0  0  0  0  0  0  0  0  0  0
  -44.5598  -29.2906    6.5185 N   0  0  0  0  0  0  0  0  0  0  0  0
  -50.5094  -29.6662    4.4818 N   0  0  0  0  0  0  0  0  0  0  0  0
  -46.3846  -29.3806    5.3729 N   0  0  0  0  0  0  0  0  0  0  0  0
  -52.4105  -30.0020    6.5916 N   0  0  0  0  0  0  0  0  0  0  0  0
  -50.7042  -29.4871    8.0107 O   0  0  0  0  0  0  0  0  0  0  0  0
  -51.9112  -32.0933    8.4319 O   0  0  0  0  0  0  0  0  0  0  0  0
  -55.8177  -24.8008   13.1604 H   0  0  0  0  0  0  0  0  0  0  0  0
  -57.4817  -26.6350   13.4143 H   0  0  0  0  0  0  0  0  0  0  0  0
  -54.2317  -24.8172   11.2415 H   0  0  0  0  0  0  0  0  0  0  0  0
  -57.6279  -28.4302   11.6974 H   0  0  0  0  0  0  0  0  0  0  0  0
  -54.3792  -26.6065    9.5177 H   0  0  0  0  0  0  0  0  0  0  0  0
  -55.3073  -30.4822   10.9566 H   0  0  0  0  0  0  0  0  0  0  0  0
  -53.4748  -32.0979   10.5234 H   0  0  0  0  0  0  0  0  0  0  0  0
  -47.5260  -29.4118    2.9142 H   0  0  0  0  0  0  0  0  0  0  0  0
  -54.7057  -28.7377    7.0567 H   0  0  0  0  0  0  0  0  0  0  0  0
  -48.4070  -29.5386    7.1243 H   0  0  0  0  0  0  0  0  0  0  0  0
  -49.9531  -29.6075    2.4559 H   0  0  0  0  0  0  0  0  0  0  0  0
  -43.2330  -29.2897    4.7446 H   0  0  0  0  0  0  0  0  0  0  0  0
  -45.5018  -29.3751    3.3482 H   0  0  0  0  0  0  0  0  0  0  0  0
  -46.4221  -29.3234    7.5823 H   0  0  0  0  0  0  0  0  0  0  0  0
  -57.1801  -29.1826    9.5313 H   0  0  0  0  0  0  0  0  0  0  0  0
  -56.4827  -27.9837    8.3898 H   0  0  0  0  0  0  0  0  0  0  0  0
  -52.7374  -30.0212    5.6467 H   0  0  0  0  0  0  0  0  0  0  0  0
  -51.1348  -31.5821    8.2358 H   0  0  0  0  0  0  0  0  0  0  0  0
  1  2  1  0  0  0  0
  1  3  2  0  0  0  0
  2  4  2  0  0  0  0
  3  5  1  0  0  0  0
  4 15  1  0  0  0  0
  5 15  2  0  0  0  0
  6  7  2  0  0  0  0
  6 16  1  0  0  0  0
  7 19  1  0  0  0  0
  8 11  2  0  0  0  0
  8 17  1  0  0  0  0
  9 16  2  0  0  0  0
  9 18  1  0  0  0  0
 10 17  2  0  0  0  0
 10 20  1  0  0  0  0
 11 24  1  0  0  0  0
 12 13  2  0  0  0  0
 12 23  1  0  0  0  0
 13 25  1  0  0  0  0
 14 23  2  0  0  0  0
 14 25  1  0  0  0  0
 15 22  1  0  0  0  0
 16 22  1  0  0  0  0
 17 25  1  0  0  0  0
 18 19  2  0  0  0  0
 18 26  1  0  0  0  0
 19 28  1  0  0  0  0
 20 21  1  0  0  0  0
 20 24  2  0  0  0  0
 21 26  1  0  0  0  0
 21 27  2  0  0  0  0
  1 29  1  0  0  0  0
  2 30  1  0  0  0  0
  3 31  1  0  0  0  0
  4 32  1  0  0  0  0
  5 33  1  0  0  0  0
  6 34  1  0  0  0  0
  7 35  1  0  0  0  0
  8 36  1  0  0  0  0
  9 37  1  0  0  0  0
 10 38  1  0  0  0  0
 11 39  1  0  0  0  0
 12 40  1  0  0  0  0
 13 41  1  0  0  0  0
 14 42  1  0  0  0  0
 22 43  1  0  0  0  0
 22 44  1  0  0  0  0
 26 45  1  0  0  0  0
 28 46  1  0  0  0  0
M  END
> <POSIT::Probability>
0.51

> <POSIT::Method>
SHAPEFIT

> <ReceptorTitle>
UCSF-P4578-REFINED_LIGAND-BOUND-STATE_A__DU__LA1_A-201(A)

> <OMEGA_C>
0ndfwhi6zMGyz0ZBnUZjwp341MFW/EhBtepbwpG7zMG7STVBKaBjwlAT3cHlWzlB30NcwlXS1MGJ
nSVB7hFbwsuQ88FlWSBBmdtWwsG++sGLnxxBruZAwu3Y68Hk/25Agp5Zwstu68HIjfpAPeBCwrJb
7MGm5MJAWG1Gwr+z7MEYo15AYe4wwnh66sEV4qRAZJI1wsbd6sGchY1AvHY3wjCj6sGAAtVApTRg
wuvj3MGNUydB339cwhT668HGsBBBQQg/wky368HULqJASStVwvAm8sGeWPRAP+VTwkES+sF1oQlB
B15IwlYR7cHSoLhA10lMwgep7cGyd9tA0S1hwq6T5MHRzBRBQT0ywkBT6sG2l9BAqQlKwmtU7cG2
ao9Ayok5wl8L68Gr7qtAZqRRwhIE8ME67tJAENFKwo7l68HrKwBBCqVPwpBfAMIg6QZBU0Vfwhdo
xsEVkVJBPe1lwoUU1cHOoFZBRe1Ywo+JxsEX3TNB+4Jmwvhw48GAKDtBT4RZwira1MGFSBhBpDpd
wofb88ETTi9BNOZVwjVkAMK8XyhBoRo+wm9L68GCgjpAsNJawrrm5cFB0OFAv6BBwiJP7MGe+uNA
8c9Hwhjc7MG5LR1AnO4swj5R6sHo05dAzwE2wi8A68GvSFZAM7A5wkyW6sGYovJAZrhkwvd16cEX
gBhBSO5hwore38HGPAZBE/NSwnMr8MG2sbRADYpMwjuo/MHHxQNB

> <OMEGA_E>
UuNsPw==

> <OMEGA_NBR>
    190811

$$$$
CACHE3HI_1718_35
  -OEChem-03092622533D

 46 49  0     0  0  0  0  0  0999 V2000
  -53.8067  -29.9825    6.6052 C   0  0  0  0  0  0  0  0  0  0  0  0
  -51.9539  -30.7882    7.9303 C   0  0  0  0  0  0  0  0  0  0  0  0
  -54.6302  -30.0280    7.7302 C   0  0  0  0  0  0  0  0  0  0  0  0
  -52.7774  -30.8337    9.0552 C   0  0  0  0  0  0  0  0  0  0  0  0
  -52.4684  -30.3625    6.7055 C   0  0  0  0  0  0  0  0  0  0  0  0
  -54.1157  -30.4537    8.9549 C   0  0  0  0  0  0  0  0  0  0  0  0
  -47.9998  -29.7200    5.3678 C   0  0  0  0  0  0  0  0  0  0  0  0
  -51.6092  -30.3147    5.5331 C   0  0  0  0  0  0  0  0  0  0  0  0
  -55.1808  -29.4878   11.0319 C   0  0  0  0  0  0  0  0  0  0  0  0
  -45.9050  -31.4028    2.5527 C   0  0  0  0  0  0  0  0  0  0  0  0
  -46.1477  -30.6638    1.2663 C   0  0  0  0  0  0  0  0  0  0  0  0
  -54.1876  -25.7830   10.9288 C   0  0  0  0  0  0  0  0  0  0  0  0
  -55.5943  -26.1075   11.3333 C   0  0  0  0  0  0  0  0  0  0  0  0
  -45.8150  -29.9020    2.5191 C   0  0  0  0  0  0  0  0  0  0  0  0
  -54.5058  -27.1276   11.5231 C   0  0  0  0  0  0  0  0  0  0  0  0
  -49.3613  -29.9967    4.8019 C   0  0  0  0  0  0  0  0  0  0  0  0
  -46.8745  -29.0560    3.2038 C   0  0  0  0  0  0  0  0  0  0  0  0
  -47.6116  -29.8214    6.6182 N   0  0  0  0  0  0  0  0  0  0  0  0
  -46.2825  -29.4606    6.6245 N   0  0  0  0  0  0  0  0  0  0  0  0
  -45.8682  -29.1459    5.4032 N   0  0  0  0  0  0  0  0  0  0  0  0
  -46.9432  -29.3087    4.6196 N   0  0  0  0  0  0  0  0  0  0  0  0
  -54.9398  -30.4993   10.0797 N   0  0  0  0  0  0  0  0  0  0  0  0
  -54.4575  -28.3310   10.7238 N   0  0  0  0  0  0  0  0  0  0  0  0
  -52.0019  -30.4778    4.3703 O   0  0  0  0  0  0  0  0  0  0  0  0
  -55.9193  -29.5789   12.0096 O   0  0  0  0  0  0  0  0  0  0  0  0
  -50.3075  -30.0669    5.8738 O   0  0  0  0  0  0  0  0  0  0  0  0
  -54.2190  -29.6487    5.6566 H   0  0  0  0  0  0  0  0  0  0  0  0
  -50.9127  -31.0870    8.0201 H   0  0  0  0  0  0  0  0  0  0  0  0
  -55.6715  -29.7292    7.6408 H   0  0  0  0  0  0  0  0  0  0  0  0
  -52.3656  -31.1677   10.0042 H   0  0  0  0  0  0  0  0  0  0  0  0
  -46.7576  -31.8607    3.0388 H   0  0  0  0  0  0  0  0  0  0  0  0
  -44.9816  -31.9608    2.6470 H   0  0  0  0  0  0  0  0  0  0  0  0
  -45.3870  -30.7268    0.4979 H   0  0  0  0  0  0  0  0  0  0  0  0
  -47.1628  -30.6270    0.8908 H   0  0  0  0  0  0  0  0  0  0  0  0
  -53.9693  -25.7250    9.8695 H   0  0  0  0  0  0  0  0  0  0  0  0
  -53.6357  -25.0800   11.5407 H   0  0  0  0  0  0  0  0  0  0  0  0
  -55.9903  -25.6231   12.2173 H   0  0  0  0  0  0  0  0  0  0  0  0
  -56.3203  -26.2677   10.5456 H   0  0  0  0  0  0  0  0  0  0  0  0
  -44.8302  -29.4560    2.5898 H   0  0  0  0  0  0  0  0  0  0  0  0
  -54.1740  -27.3008   12.5411 H   0  0  0  0  0  0  0  0  0  0  0  0
  -49.6635  -29.2046    4.1086 H   0  0  0  0  0  0  0  0  0  0  0  0
  -49.3700  -30.9453    4.2533 H   0  0  0  0  0  0  0  0  0  0  0  0
  -47.8633  -29.2545    2.7765 H   0  0  0  0  0  0  0  0  0  0  0  0
  -46.6677  -27.9890    3.0606 H   0  0  0  0  0  0  0  0  0  0  0  0
  -55.4352  -31.3844   10.2342 H   0  0  0  0  0  0  0  0  0  0  0  0
  -53.8407  -28.3416    9.9173 H   0  0  0  0  0  0  0  0  0  0  0  0
  1  3  1  0  0  0  0
  1  5  2  0  0  0  0
  2  4  2  0  0  0  0
  2  5  1  0  0  0  0
  3  6  2  0  0  0  0
  4  6  1  0  0  0  0
  5  8  1  0  0  0  0
  6 22  1  0  0  0  0
  7 16  1  0  0  0  0
  7 18  2  0  0  0  0
  7 21  1  0  0  0  0
  8 24  2  0  0  0  0
  8 26  1  0  0  0  0
  9 22  1  0  0  0  0
  9 23  1  0  0  0  0
  9 25  2  0  0  0  0
 10 11  1  0  0  0  0
 10 14  1  0  0  0  0
 11 14  1  0  0  0  0
 12 13  1  0  0  0  0
 12 15  1  0  0  0  0
 13 15  1  0  0  0  0
 14 17  1  0  0  0  0
 15 23  1  0  0  0  0
 16 26  1  0  0  0  0
 17 21  1  0  0  0  0
 18 19  1  0  0  0  0
 19 20  2  0  0  0  0
 20 21  1  0  0  0  0
  1 27  1  0  0  0  0
  2 28  1  0  0  0  0
  3 29  1  0  0  0  0
  4 30  1  0  0  0  0
 10 31  1  0  0  0  0
 10 32  1  0  0  0  0
 11 33  1  0  0  0  0
 11 34  1  0  0  0  0
 12 35  1  0  0  0  0
 12 36  1  0  0  0  0
 13 37  1  0  0  0  0
 13 38  1  0  0  0  0
 14 39  1  0  0  0  0
 15 40  1  0  0  0  0
 16 41  1  0  0  0  0
 16 42  1  0  0  0  0
 17 43  1  0  0  0  0
 17 44  1  0  0  0  0
 22 45  1  0  0  0  0
 23 46  1  0  0  0  0
M  END
> <POSIT::Probability>
0.23

> <POSIT::Method>
HYBRID

> <ReceptorTitle>
UCSF-P4578-REFINED_LIGAND-BOUND-STATE_A__DU__LA1_A-201(A)

> <OMEGA_C>
CDpXwiLc78H+XdNAzdBPwiNO9sG/xP1ATYVawmo58MFoXfdABRxTwnCr9sEA4hBBod9Rwlvm8sFA
k9ZAenZYwjKh88F1Rw9B2P8/wqPC7cEixatA1G9OwomE8sETD7FAKrlcwgnn68GLgjBBup43wtc4
+8GDXyNAMpc4wm9P9cEiFqI/HsBYwolDzsFu3C5BmGBewkLc0MEDVTVBjEI3wjQ378F7OCFA5QVa
wjsF2cG+XjhBBHJFwkX578H/qJlAd387wpty6MEaC01AVHI+wiyS7sETyNNASCE5wlWv68GY+9NA
E3k3wuQq6cHa5qxA48U7wkh46sGE05NAYsJbwpT+88GPRiFBetRZwval4sGZlCtB9QFQwpDS88GR
2YtAUa1fwp6h7MEvJ0BB4TpJwvyI8MHP9btANuBYwp8w7cH7ArVApKZLwhey+MFEUgBBqK9ewlPV
7cESgfRAVHZRwlxX+cEHESBBygc7wqHi/sHWe0JAIe0zws+v/8FGaClARIw1wm/Q9cGU5v4+saY8
wiwE9cGACGQ/k+BXwubMzcFP6R1B+4pWwuWjyMGNpjhBCvZfwgz8zMHneUNB/Edhwiok0sHEuihB
LFIzwtSl68EEwCVAIrJYwv1n2sE+qEhBZqdGwh6j6cFOeYNA6XpFwgCQ98FYG4hAD3Q/wjQJ6sG2
sjFAxKs6wpHp38Ed4UNAnL1dwlcT+8EqvyNB5VxXwrK74sFcrR5B

> <OMEGA_E>
Uq6FwA==

> <OMEGA_NBR>
    192227

$$$$
CACHE3HI_1718_36
  -OEChem-03092622533D

 52 54  0     0  0  0  0  0  0999 V2000
  -49.2792  -28.9599    3.6621 C   0  0  0  0  0  0  0  0  0  0  0  0
  -49.8914  -28.9769    4.9153 C   0  0  0  0  0  0  0  0  0  0  0  0
  -47.7455  -29.3537    5.9596 C   0  0  0  0  0  0  0  0  0  0  0  0
  -47.9000  -29.1397    3.5578 C   0  0  0  0  0  0  0  0  0  0  0  0
  -49.1247  -29.1739    6.0639 C   0  0  0  0  0  0  0  0  0  0  0  0
  -47.1333  -29.3367    4.7064 C   0  0  0  0  0  0  0  0  0  0  0  0
  -43.8158  -28.7873    1.3326 C   0  0  0  0  0  0  0  0  0  0  0  0
  -47.2803  -29.1174    2.2401 C   0  0  0  0  0  0  0  0  0  0  0  0
  -51.1032  -29.0261    7.6276 C   0  0  0  0  0  0  0  0  0  0  0  0
  -44.6259  -33.4677    1.2326 C   0  0  0  0  0  0  0  0  0  0  0  0
  -43.7144  -33.0009    2.3330 C   0  0  0  0  0  0  0  0  0  0  0  0
  -44.4263  -31.9963    1.4704 C   0  0  0  0  0  0  0  0  0  0  0  0
  -52.4775  -29.1724   11.1355 C   0  0  0  0  0  0  0  0  0  0  0  0
  -53.1770  -27.5807    9.3286 C   0  0  0  0  0  0  0  0  0  0  0  0
  -53.5568  -30.0406    9.0451 C   0  0  0  0  0  0  0  0  0  0  0  0
  -45.2776  -28.5854    1.0624 C   0  0  0  0  0  0  0  0  0  0  0  0
  -43.6478  -31.1580    0.4712 C   0  0  0  0  0  0  0  0  0  0  0  0
  -52.6156  -28.9768    9.6221 C   0  0  0  0  0  0  0  0  0  0  0  0
  -42.9686  -27.9329    1.8586 N   0  0  0  0  0  0  0  0  0  0  0  0
  -41.7573  -28.5873    1.8970 N   0  0  0  0  0  0  0  0  0  0  0  0
  -41.8634  -29.8156    1.4049 N   0  0  0  0  0  0  0  0  0  0  0  0
  -43.1507  -29.9383    1.0528 N   0  0  0  0  0  0  0  0  0  0  0  0
  -49.7463  -29.1895    7.3348 N   0  0  0  0  0  0  0  0  0  0  0  0
  -51.3082  -29.1076    9.0055 N   0  0  0  0  0  0  0  0  0  0  0  0
  -47.8435  -29.4730    1.1978 O   0  0  0  0  0  0  0  0  0  0  0  0
  -52.0089  -28.8373    6.8192 O   0  0  0  0  0  0  0  0  0  0  0  0
  -45.7844  -29.5140    4.6248 O   0  0  0  0  0  0  0  0  0  0  0  0
  -45.9952  -28.6539    2.2991 O   0  0  0  0  0  0  0  0  0  0  0  0
  -49.8869  -28.8057    2.7741 H   0  0  0  0  0  0  0  0  0  0  0  0
  -50.9669  -28.8351    4.9849 H   0  0  0  0  0  0  0  0  0  0  0  0
  -47.1437  -29.5072    6.8526 H   0  0  0  0  0  0  0  0  0  0  0  0
  -44.1709  -33.9186    0.3592 H   0  0  0  0  0  0  0  0  0  0  0  0
  -45.5781  -33.8993    1.5157 H   0  0  0  0  0  0  0  0  0  0  0  0
  -44.0553  -33.1199    3.3542 H   0  0  0  0  0  0  0  0  0  0  0  0
  -42.6489  -33.1394    2.1968 H   0  0  0  0  0  0  0  0  0  0  0  0
  -45.2456  -31.4434    1.9140 H   0  0  0  0  0  0  0  0  0  0  0  0
  -52.0773  -30.1649   11.3701 H   0  0  0  0  0  0  0  0  0  0  0  0
  -51.7905  -28.4355   11.5685 H   0  0  0  0  0  0  0  0  0  0  0  0
  -53.4440  -29.0702   11.6406 H   0  0  0  0  0  0  0  0  0  0  0  0
  -53.2850  -27.4172    8.2488 H   0  0  0  0  0  0  0  0  0  0  0  0
  -52.5109  -26.7976    9.7094 H   0  0  0  0  0  0  0  0  0  0  0  0
  -54.1603  -27.4405    9.7911 H   0  0  0  0  0  0  0  0  0  0  0  0
  -53.6713  -29.9207    7.9619 H   0  0  0  0  0  0  0  0  0  0  0  0
  -53.1678  -31.0504    9.2200 H   0  0  0  0  0  0  0  0  0  0  0  0
  -54.5522  -29.9806    9.4983 H   0  0  0  0  0  0  0  0  0  0  0  0
  -45.4569  -27.6102    0.5976 H   0  0  0  0  0  0  0  0  0  0  0  0
  -45.6586  -29.3567    0.3836 H   0  0  0  0  0  0  0  0  0  0  0  0
  -44.2780  -30.8922   -0.3844 H   0  0  0  0  0  0  0  0  0  0  0  0
  -42.7914  -31.7199    0.0810 H   0  0  0  0  0  0  0  0  0  0  0  0
  -49.1315  -29.3376    8.1317 H   0  0  0  0  0  0  0  0  0  0  0  0
  -50.5202  -29.2991    9.6118 H   0  0  0  0  0  0  0  0  0  0  0  0
  -45.4298  -29.6344    5.5240 H   0  0  0  0  0  0  0  0  0  0  0  0
  1  2  2  0  0  0  0
  1  4  1  0  0  0  0
  2  5  1  0  0  0  0
  3  5  2  0  0  0  0
  3  6  1  0  0  0  0
  4  6  2  0  0  0  0
  4  8  1  0  0  0  0
  5 23  1  0  0  0  0
  6 27  1  0  0  0  0
  7 16  1  0  0  0  0
  7 19  2  0  0  0  0
  7 22  1  0  0  0  0
  8 25  2  0  0  0  0
  8 28  1  0  0  0  0
  9 23  1  0  0  0  0
  9 24  1  0  0  0  0
  9 26  2  0  0  0  0
 10 11  1  0  0  0  0
 10 12  1  0  0  0  0
 11 12  1  0  0  0  0
 12 17  1  0  0  0  0
 13 18  1  0  0  0  0
 14 18  1  0  0  0  0
 15 18  1  0  0  0  0
 16 28  1  0  0  0  0
 17 22  1  0  0  0  0
 18 24  1  0  0  0  0
 19 20  1  0  0  0  0
 20 21  2  0  0  0  0
 21 22  1  0  0  0  0
  1 29  1  0  0  0  0
  2 30  1  0  0  0  0
  3 31  1  0  0  0  0
 10 32  1  0  0  0  0
 10 33  1  0  0  0  0
 11 34  1  0  0  0  0
 11 35  1  0  0  0  0
 12 36  1  0  0  0  0
 13 37  1  0  0  0  0
 13 38  1  0  0  0  0
 13 39  1  0  0  0  0
 14 40  1  0  0  0  0
 14 41  1  0  0  0  0
 14 42  1  0  0  0  0
 15 43  1  0  0  0  0
 15 44  1  0  0  0  0
 15 45  1  0  0  0  0
 16 46  1  0  0  0  0
 16 47  1  0  0  0  0
 17 48  1  0  0  0  0
 17 49  1  0  0  0  0
 23 50  1  0  0  0  0
 24 51  1  0  0  0  0
 27 52  1  0  0  0  0
M  END
> <POSIT::Probability>
0.05

> <POSIT::Method>
FRED

> <ReceptorTitle>
UCSF-P4578-REFINED_LIGAND-BOUND-STATE_A__DU__LA1_A-201(A)

> <OMEGA_C>
5R1FwuGt58EQX2pAzpBHwqrQ58ESSp1AXPs+wlbU6sFstb5Ak5k/whoe6cGwsmNAu39Ewhxk6cHZ
C8JAgIg8woyx6sEim5ZAYkMvwlpM5sGzk6o/Cx89wnDw6MHkXQ9AsWlMwnQ16MHqFPRA54Aywvje
BcJPxJ0/hdsuwvYABMI+UBVAlbQxwlb4/8HZNLw/7uhRwgNh6cHWKjJBSrVUwk6l3MHtQRVBJTpW
wixT8MHkuBBBORw1wvqu5MHK/Ic/ZZcuwoVD+cF4Q/E+Y3ZSwnbQ58H68xlB1N8rwp1238H15u0/
hgcnwtey5MEi0fI/IHQnwmqG7sH107M/UposwpKB78EXwYY/NPxGwjGE6cEGt+pAoTtNwmfc6MFm
FhBBx18/wq3I68GjUJk/JglQwtOy5sGYNtpAMiM3wqkc7MGe/pNAEPs3wiA75cE0JBNAOoxHwv5x
5sF0ijFAId5Lwliu5sGqhJ9AK5M8wskO7MGMSNtAC68wwqOsB8Iw77c+9k82wteYB8IEA8I/qDgw
wsJ6BMJoqlZAhpgqwseOBMIqmAxAdvs0wguM+8Fd/vQ/HU9QwspR8cEI7DVBfSlPwuZ748GxGDlB
rMZVwtaP6MG7PzpB4iNVwmRW28Ei+wNBHgtSwn9h1sGLWRtBJKRYwi2G28FOqBxBcq9Wwpdd78Gw
x/5A2qtUwkln+METhRNBaDVawkXY78Ev+RdB2NM1wqPh3MEC/Bg/ZaI2wp/a6sEcbcQ+nxwxwkMj
98G41cS+bCorwnDC/cFA3aU9oYZEwnSz6sFeGwJBpBRKwoxk6sEByhlBGrg1wi4T7cGJxLBA

> <OMEGA_E>
kB8WwQ==

> <OMEGA_NBR>
    193756

$$$$
CACHE3HI_1718_41
  -OEChem-03092622533D

 49 51  0     1  0  0  0  0  0999 V2000
  -48.5965  -30.2987    3.1158 C   0  0  0  0  0  0  0  0  0  0  0  0
  -49.2880  -30.0984    4.3106 C   0  0  0  0  0  0  0  0  0  0  0  0
  -47.2202  -29.5015    5.4086 C   0  0  0  0  0  0  0  0  0  0  0  0
  -47.2167  -30.1003    3.0676 C   0  0  0  0  0  0  0  0  0  0  0  0
  -48.6000  -29.7000    5.4568 C   0  0  0  0  0  0  0  0  0  0  0  0
  -46.5287  -29.7019    4.2139 C   0  0  0  0  0  0  0  0  0  0  0  0
  -42.9721  -30.6898    1.1267 C   0  0  0  0  0  0  0  0  0  0  0  0
  -46.5139  -30.3137    1.8101 C   0  0  0  0  0  0  0  0  0  0  0  0
  -50.6727  -29.6438    6.8996 C   0  0  0  0  0  0  0  0  0  0  0  0
  -44.2098  -27.7276    0.7856 C   0  0  0  0  0  0  0  0  0  0  0  0
  -42.9684  -26.9880    1.1750 C   0  0  0  0  0  0  0  0  0  0  0  0
  -43.2896  -28.3094    1.8331 C   0  0  0  0  0  0  0  0  0  0  0  0
  -44.6644  -32.4089    0.4032 C   0  0  0  0  0  0  0  0  0  0  0  0
  -53.2237  -28.4185    8.0702 C   0  0  0  0  0  0  0  0  0  0  0  0
  -52.8547  -30.8289    8.6839 C   0  0  0  0  0  0  0  0  0  0  0  0
  -44.4319  -30.9729    0.8553 C   0  0  1  0  0  0  0  0  0  0  0  0
  -52.3097  -29.4095    8.7793 C   0  0  0  0  0  0  0  0  0  0  0  0
  -41.9584  -31.5142    0.9958 N   0  0  0  0  0  0  0  0  0  0  0  0
  -40.8439  -30.7930    1.3624 N   0  0  0  0  0  0  0  0  0  0  0  0
  -41.1707  -29.5541    1.7095 N   0  0  0  0  0  0  0  0  0  0  0  0
  -42.5013  -29.4920    1.5614 N   0  0  0  0  0  0  0  0  0  0  0  0
  -49.3023  -29.4956    6.6679 N   0  0  0  0  0  0  0  0  0  0  0  0
  -50.9756  -29.3472    8.2343 N   0  0  0  0  0  0  0  0  0  0  0  0
  -47.0154  -30.1428    0.6924 O   0  0  0  0  0  0  0  0  0  0  0  0
  -51.5215  -29.9833    6.0787 O   0  0  0  0  0  0  0  0  0  0  0  0
  -45.1806  -29.5027    4.1864 O   0  0  0  0  0  0  0  0  0  0  0  0
  -45.2277  -30.7281    2.0197 O   0  0  0  0  0  0  0  0  0  0  0  0
  -49.1433  -30.6092    2.2292 H   0  0  0  0  0  0  0  0  0  0  0  0
  -50.3633  -30.2554    4.3367 H   0  0  0  0  0  0  0  0  0  0  0  0
  -46.6797  -29.1905    6.2998 H   0  0  0  0  0  0  0  0  0  0  0  0
  -45.1601  -27.3271    1.1173 H   0  0  0  0  0  0  0  0  0  0  0  0
  -44.2349  -28.1866   -0.1951 H   0  0  0  0  0  0  0  0  0  0  0  0
  -42.1562  -26.9526    0.4591 H   0  0  0  0  0  0  0  0  0  0  0  0
  -43.0816  -26.0889    1.7685 H   0  0  0  0  0  0  0  0  0  0  0  0
  -43.6327  -28.2722    2.8611 H   0  0  0  0  0  0  0  0  0  0  0  0
  -44.3085  -33.1269    1.1490 H   0  0  0  0  0  0  0  0  0  0  0  0
  -45.7267  -32.6040    0.2159 H   0  0  0  0  0  0  0  0  0  0  0  0
  -44.1426  -32.5988   -0.5415 H   0  0  0  0  0  0  0  0  0  0  0  0
  -53.3267  -28.6747    7.0103 H   0  0  0  0  0  0  0  0  0  0  0  0
  -52.8240  -27.4006    8.1351 H   0  0  0  0  0  0  0  0  0  0  0  0
  -54.2278  -28.4195    8.5076 H   0  0  0  0  0  0  0  0  0  0  0  0
  -52.9509  -31.1481    7.6399 H   0  0  0  0  0  0  0  0  0  0  0  0
  -53.8388  -30.9028    9.1569 H   0  0  0  0  0  0  0  0  0  0  0  0
  -52.1839  -31.5371    9.1835 H   0  0  0  0  0  0  0  0  0  0  0  0
  -44.8034  -30.2944    0.0780 H   0  0  0  0  0  0  0  0  0  0  0  0
  -52.2276  -29.1262    9.8348 H   0  0  0  0  0  0  0  0  0  0  0  0
  -48.7424  -29.2059    7.4663 H   0  0  0  0  0  0  0  0  0  0  0  0
  -50.2130  -29.1063    8.8621 H   0  0  0  0  0  0  0  0  0  0  0  0
  -44.8866  -29.2303    5.0741 H   0  0  0  0  0  0  0  0  0  0  0  0
  1  2  2  0  0  0  0
  1  4  1  0  0  0  0
  2  5  1  0  0  0  0
  3  5  2  0  0  0  0
  3  6  1  0  0  0  0
  4  6  2  0  0  0  0
  4  8  1  0  0  0  0
  5 22  1  0  0  0  0
  6 26  1  0  0  0  0
  7 16  1  0  0  0  0
  7 18  2  0  0  0  0
  7 21  1  0  0  0  0
  8 24  2  0  0  0  0
  8 27  1  0  0  0  0
  9 22  1  0  0  0  0
  9 23  1  0  0  0  0
  9 25  2  0  0  0  0
 10 11  1  0  0  0  0
 10 12  1  0  0  0  0
 11 12  1  0  0  0  0
 12 21  1  0  0  0  0
 13 16  1  0  0  0  0
 14 17  1  0  0  0  0
 15 17  1  0  0  0  0
 16 27  1  0  0  0  0
 17 23  1  0  0  0  0
 18 19  1  0  0  0  0
 19 20  2  0  0  0  0
 20 21  1  0  0  0  0
  1 28  1  0  0  0  0
  2 29  1  0  0  0  0
  3 30  1  0  0  0  0
 10 31  1  0  0  0  0
 10 32  1  0  0  0  0
 11 33  1  0  0  0  0
 11 34  1  0  0  0  0
 12 35  1  0  0  0  0
 13 36  1  0  0  0  0
 13 37  1  0  0  0  0
 13 38  1  0  0  0  0
 14 39  1  0  0  0  0
 14 40  1  0  0  0  0
 14 41  1  0  0  0  0
 15 42  1  0  0  0  0
 15 43  1  0  0  0  0
 15 44  1  0  0  0  0
 16 45  1  0  0  0  0
 17 46  1  0  0  0  0
 22 47  1  0  0  0  0
 23 48  1  0  0  0  0
 26 49  1  0  0  0  0
M  END
> <POSIT::Probability>
0.05

> <POSIT::Method>
FRED

> <ReceptorTitle>
UCSF-P4578-REFINED_LIGAND-BOUND-STATE_A__DU__LA1_A-201(A)

> <OMEGA_C>
yGJCwsJj8sHUaUdA4yZFwnzJ8MEo8IlAcOE8wiID7MHoEq1A6d08wlPN8MFmU0RAXWZCwpKZ7cFY
nq5AYh06wmqd7cHk14ZAeOMrwsOE9cGgNpA/OA46woKC8sFUsuc/3rBKwoIm7cGDydxA0tYwwgbS
3cFoHEk/nt8rwnDn18HUZJY/hygtwrZ54sGMpOo/TKgywrWiAcKgds4+BeVUwgxZ48G+HwFBMmtT
wpih9sFc8QpBQLoxwonI98HQ8Vo/GT1RwpRG68EbeAxBc9Unwi4d/MFg7H4/H2AjwidY9sFsYq4/
za4kwuJu7MGcz9o/TgEqwrDv68Fo3cc/lzVFwgv368FeX9VACOdLwhDH6sGOvwNBzg88woAk8cFw
QDE//BVOwtjd78H4hMJA9Lg0wpgF7MEm94VAJ+k0wjjT9cEEQgFAwJJEwrDf9MGIqg5ACXRJwvkK
8sHcxYpAALg6wjqG6cGZl8lA6KM0wuCd2sFGAo8/lfAwwkB+4cFwwUe++58owu+e18FgEus+hlMs
wvu10MG+XeI/4Ycuwm4t4sFzGzdA8TsxwvOBBMJAE5M/L+g2woBqAsIAH10++pEwwjZlAsKIoQq/
gE5VwsRl5cEqVOBAxktTwm0028FdKQJBTOlYwhJb48EsHwhBwM1TwlAv+cFqevRA9VpXwt8498GA
ghJBTrxQwulL/MGs7xJBpzYzwuha8sFAp589BOlQwmAC6cF5Wx1BP/hCwrOl6cHu6+5AE9pIwrzZ
6MFFyw1B24szwrvX6cFeX6JA

> <OMEGA_E>
flcZwQ==

> <OMEGA_NBR>
    195229

$$$$
CACHE3HI_1718_68
  -OEChem-03092622533D

 39 41  0     0  0  0  0  0  0999 V2000
  -51.7335  -29.3843    8.7442 C   0  0  0  0  0  0  0  0  0  0  0  0
  -53.1688  -28.6518    6.9439 C   0  0  0  0  0  0  0  0  0  0  0  0
  -52.6270  -28.8506    9.6729 C   0  0  0  0  0  0  0  0  0  0  0  0
  -54.0623  -28.1181    7.8725 C   0  0  0  0  0  0  0  0  0  0  0  0
  -52.0046  -29.2850    7.3796 C   0  0  0  0  0  0  0  0  0  0  0  0
  -53.7912  -28.2174    9.2372 C   0  0  0  0  0  0  0  0  0  0  0  0
  -48.2707  -29.2051    5.1132 C   0  0  0  0  0  0  0  0  0  0  0  0
  -51.0736  -29.8417    6.4109 C   0  0  0  0  0  0  0  0  0  0  0  0
  -56.0394  -28.0150   10.3709 C   0  0  0  0  0  0  0  0  0  0  0  0
  -56.2424  -25.8550   13.5357 C   0  0  0  0  0  0  0  0  0  0  0  0
  -54.9857  -26.6436   13.3200 C   0  0  0  0  0  0  0  0  0  0  0  0
  -55.8400  -26.2586   12.1438 C   0  0  0  0  0  0  0  0  0  0  0  0
  -47.0369  -29.3981    2.9153 C   0  0  0  0  0  0  0  0  0  0  0  0
  -49.6631  -29.3055    4.5639 C   0  0  0  0  0  0  0  0  0  0  0  0
  -47.9080  -29.0623    6.3672 N   0  0  0  0  0  0  0  0  0  0  0  0
  -46.5314  -29.0213    6.3529 N   0  0  0  0  0  0  0  0  0  0  0  0
  -46.0639  -29.1369    5.1159 N   0  0  0  0  0  0  0  0  0  0  0  0
  -47.1527  -29.2516    4.3429 N   0  0  0  0  0  0  0  0  0  0  0  0
  -54.6844  -27.6835   10.1664 N   0  0  0  0  0  0  0  0  0  0  0  0
  -56.5891  -27.2493   11.4043 N   0  0  0  0  0  0  0  0  0  0  0  0
  -50.7531  -31.0363    6.3546 O   0  0  0  0  0  0  0  0  0  0  0  0
  -56.6785  -28.8566    9.7442 O   0  0  0  0  0  0  0  0  0  0  0  0
  -50.5925  -28.8794    5.5658 O   0  0  0  0  0  0  0  0  0  0  0  0
  -50.8301  -29.8755    9.0959 H   0  0  0  0  0  0  0  0  0  0  0  0
  -53.3901  -28.5683    5.8830 H   0  0  0  0  0  0  0  0  0  0  0  0
  -52.4060  -28.9340   10.7340 H   0  0  0  0  0  0  0  0  0  0  0  0
  -54.9659  -27.6264    7.5213 H   0  0  0  0  0  0  0  0  0  0  0  0
  -57.0809  -26.3612   13.9983 H   0  0  0  0  0  0  0  0  0  0  0  0
  -56.1432  -24.8108   13.8056 H   0  0  0  0  0  0  0  0  0  0  0  0
  -54.0400  -26.1309   13.4448 H   0  0  0  0  0  0  0  0  0  0  0  0
  -54.9805  -27.6791   13.6374 H   0  0  0  0  0  0  0  0  0  0  0  0
  -55.4569  -25.4736   11.5009 H   0  0  0  0  0  0  0  0  0  0  0  0
  -47.0369  -28.4211    2.4204 H   0  0  0  0  0  0  0  0  0  0  0  0
  -47.8738  -29.9892    2.5305 H   0  0  0  0  0  0  0  0  0  0  0  0
  -46.0991  -29.8962    2.6483 H   0  0  0  0  0  0  0  0  0  0  0  0
  -49.7784  -28.6742    3.6765 H   0  0  0  0  0  0  0  0  0  0  0  0
  -49.8948  -30.3369    4.2754 H   0  0  0  0  0  0  0  0  0  0  0  0
  -54.3058  -26.9545   10.7812 H   0  0  0  0  0  0  0  0  0  0  0  0
  -57.5720  -27.3679   11.6295 H   0  0  0  0  0  0  0  0  0  0  0  0
  1  3  2  0  0  0  0
  1  5  1  0  0  0  0
  2  4  1  0  0  0  0
  2  5  2  0  0  0  0
  3  6  1  0  0  0  0
  4  6  2  0  0  0  0
  5  8  1  0  0  0  0
  6 19  1  0  0  0  0
  7 14  1  0  0  0  0
  7 15  2  0  0  0  0
  7 18  1  0  0  0  0
  8 21  2  0  0  0  0
  8 23  1  0  0  0  0
  9 19  1  0  0  0  0
  9 20  1  0  0  0  0
  9 22  2  0  0  0  0
 10 11  1  0  0  0  0
 10 12  1  0  0  0  0
 11 12  1  0  0  0  0
 12 20  1  0  0  0  0
 13 18  1  0  0  0  0
 14 23  1  0  0  0  0
 15 16  1  0  0  0  0
 16 17  2  0  0  0  0
 17 18  1  0  0  0  0
  1 24  1  0  0  0  0
  2 25  1  0  0  0  0
  3 26  1  0  0  0  0
  4 27  1  0  0  0  0
 10 28  1  0  0  0  0
 10 29  1  0  0  0  0
 11 30  1  0  0  0  0
 11 31  1  0  0  0  0
 12 32  1  0  0  0  0
 13 33  1  0  0  0  0
 13 34  1  0  0  0  0
 13 35  1  0  0  0  0
 14 36  1  0  0  0  0
 14 37  1  0  0  0  0
 19 38  1  0  0  0  0
 20 39  1  0  0  0  0
M  END
> <POSIT::Probability>
0.18

> <POSIT::Method>
HYBRID

> <ReceptorTitle>
UCSF-P4578-REFINED_LIGAND-BOUND-STATE_A__DU__LA1_A-201(A)

> <OMEGA_C>
GO9Owg0T68Ep6AtB0KxUwvA25cFlNN5ADoJSwvDN5sEIxBpBwj9YwtXx4MGm6/tAswRQwqBH6sGw
JexAKCpXwj694cFjyxNBMxVBwgak6cFEn6NAZ0tMwte77sFMJs1AYihgwrEe4ME97yVBPfhgwhHX
zsFsklhBXvFbwiYm1cGnHlVBK1xfwpgR0sEFTUJB0CU8wlgv68GIkzpA/6ZGwqVx6sGXC5JAzKE/
wqB/6MHEv8tAMiA6wqEr6MErS8tAcUE4wnYY6cGRtaNAYJw8wjkD6sHu+IpA1rxawth33cGKqSJB
R1tiwqD+2cHudzZBOQNLwk1K+MGPWMtAx7Ziwkba5sEk6BtBr15KwvYI58HEGrJA+VFLwh4B78HP
iBFBg49VwsqL5MHpQbxAvJ9RwuR458FMvitBGd1bwvcC3cEYrvBA21Jkwsjj0sHn+F9BqpJgwn18
xsG441xB6ihYwgoM0cHhHVdBD+xbwtxu3cHoMlpB2tNdwgLKy8GGAzhBviU8wmRe48FI6BpAzn4/
wu3p78H08yFAdmU4wnMr78FUfilADh1HwrBk5cEATGtATpRHwgay8sH6z4hALDlZwuai18GpfyxB
xklmwmLx2sGREjpB

> <OMEGA_E>
dKV3wA==

> <OMEGA_NBR>
    196502

$$$$
CACHE3HI_1718_69
  -OEChem-03092622533D

 46 48  0     0  0  0  0  0  0999 V2000
  -48.5545  -29.9330    3.0245 C   0  0  0  0  0  0  0  0  0  0  0  0
  -49.2956  -29.9289    4.2062 C   0  0  0  0  0  0  0  0  0  0  0  0
  -47.2620  -29.6561    5.4820 C   0  0  0  0  0  0  0  0  0  0  0  0
  -47.1670  -29.7985    3.0717 C   0  0  0  0  0  0  0  0  0  0  0  0
  -48.6495  -29.7906    5.4348 C   0  0  0  0  0  0  0  0  0  0  0  0
  -46.5209  -29.6602    4.3003 C   0  0  0  0  0  0  0  0  0  0  0  0
  -42.8834  -30.2318    1.2770 C   0  0  0  0  0  0  0  0  0  0  0  0
  -46.4120  -29.8041    1.8265 C   0  0  0  0  0  0  0  0  0  0  0  0
  -50.7874  -29.9056    6.7755 C   0  0  0  0  0  0  0  0  0  0  0  0
  -43.0969  -26.8932    0.4982 C   0  0  0  0  0  0  0  0  0  0  0  0
  -42.1970  -26.4834    1.6215 C   0  0  0  0  0  0  0  0  0  0  0  0
  -42.9815  -27.7706    1.7228 C   0  0  0  0  0  0  0  0  0  0  0  0
  -52.8906  -31.4077    8.8181 C   0  0  0  0  0  0  0  0  0  0  0  0
  -52.6871  -29.1321    9.8685 C   0  0  0  0  0  0  0  0  0  0  0  0
  -44.3142  -30.3735    0.8487 C   0  0  0  0  0  0  0  0  0  0  0  0
  -52.5046  -29.9509    8.5967 C   0  0  0  0  0  0  0  0  0  0  0  0
  -41.9725  -31.1747    1.3517 N   0  0  0  0  0  0  0  0  0  0  0  0
  -40.8274  -30.5502    1.7938 N   0  0  0  0  0  0  0  0  0  0  0  0
  -41.0352  -29.2531    1.9846 N   0  0  0  0  0  0  0  0  0  0  0  0
  -42.3209  -29.0565    1.6611 N   0  0  0  0  0  0  0  0  0  0  0  0
  -49.4022  -29.7851    6.6328 N   0  0  0  0  0  0  0  0  0  0  0  0
  -51.1437  -29.8532    8.1288 N   0  0  0  0  0  0  0  0  0  0  0  0
  -46.8498  -29.3989    0.7428 O   0  0  0  0  0  0  0  0  0  0  0  0
  -51.6076  -30.0399    5.8707 O   0  0  0  0  0  0  0  0  0  0  0  0
  -45.1660  -29.5274    4.3668 O   0  0  0  0  0  0  0  0  0  0  0  0
  -45.1560  -30.3148    2.0049 O   0  0  0  0  0  0  0  0  0  0  0  0
  -49.0689  -30.0415    2.0731 H   0  0  0  0  0  0  0  0  0  0  0  0
  -50.3765  -30.0337    4.1577 H   0  0  0  0  0  0  0  0  0  0  0  0
  -46.7541  -29.5476    6.4377 H   0  0  0  0  0  0  0  0  0  0  0  0
  -44.0174  -26.3386    0.3617 H   0  0  0  0  0  0  0  0  0  0  0  0
  -42.6329  -27.2246   -0.4226 H   0  0  0  0  0  0  0  0  0  0  0  0
  -41.1277  -26.5428    1.4592 H   0  0  0  0  0  0  0  0  0  0  0  0
  -42.5102  -25.6524    2.2419 H   0  0  0  0  0  0  0  0  0  0  0  0
  -43.8261  -27.7753    2.4028 H   0  0  0  0  0  0  0  0  0  0  0  0
  -52.2758  -31.8572    9.6053 H   0  0  0  0  0  0  0  0  0  0  0  0
  -52.7507  -31.9938    7.9033 H   0  0  0  0  0  0  0  0  0  0  0  0
  -53.9377  -31.5000    9.1259 H   0  0  0  0  0  0  0  0  0  0  0  0
  -52.0692  -29.5232   10.6847 H   0  0  0  0  0  0  0  0  0  0  0  0
  -53.7318  -29.1428   10.1942 H   0  0  0  0  0  0  0  0  0  0  0  0
  -52.3932  -28.0891    9.7046 H   0  0  0  0  0  0  0  0  0  0  0  0
  -44.5958  -29.5705    0.1592 H   0  0  0  0  0  0  0  0  0  0  0  0
  -44.4749  -31.3287    0.3363 H   0  0  0  0  0  0  0  0  0  0  0  0
  -53.1361  -29.5312    7.8054 H   0  0  0  0  0  0  0  0  0  0  0  0
  -48.8711  -29.6808    7.4942 H   0  0  0  0  0  0  0  0  0  0  0  0
  -50.4039  -29.7746    8.8219 H   0  0  0  0  0  0  0  0  0  0  0  0
  -44.9054  -29.4438    5.3016 H   0  0  0  0  0  0  0  0  0  0  0  0
  1  2  2  0  0  0  0
  1  4  1  0  0  0  0
  2  5  1  0  0  0  0
  3  5  2  0  0  0  0
  3  6  1  0  0  0  0
  4  6  2  0  0  0  0
  4  8  1  0  0  0  0
  5 21  1  0  0  0  0
  6 25  1  0  0  0  0
  7 15  1  0  0  0  0
  7 17  2  0  0  0  0
  7 20  1  0  0  0  0
  8 23  2  0  0  0  0
  8 26  1  0  0  0  0
  9 21  1  0  0  0  0
  9 22  1  0  0  0  0
  9 24  2  0  0  0  0
 10 11  1  0  0  0  0
 10 12  1  0  0  0  0
 11 12  1  0  0  0  0
 12 20  1  0  0  0  0
 13 16  1  0  0  0  0
 14 16  1  0  0  0  0
 15 26  1  0  0  0  0
 16 22  1  0  0  0  0
 17 18  1  0  0  0  0
 18 19  2  0  0  0  0
 19 20  1  0  0  0  0
  1 27  1  0  0  0  0
  2 28  1  0  0  0  0
  3 29  1  0  0  0  0
 10 30  1  0  0  0  0
 10 31  1  0  0  0  0
 11 32  1  0  0  0  0
 11 33  1  0  0  0  0
 12 34  1  0  0  0  0
 13 35  1  0  0  0  0
 13 36  1  0  0  0  0
 13 37  1  0  0  0  0
 14 38  1  0  0  0  0
 14 39  1  0  0  0  0
 14 40  1  0  0  0  0
 15 41  1  0  0  0  0
 15 42  1  0  0  0  0
 16 43  1  0  0  0  0
 21 44  1  0  0  0  0
 22 45  1  0  0  0  0
 25 46  1  0  0  0  0
M  END
> <POSIT::Probability>
0.24

> <POSIT::Method>
FRED

> <ReceptorTitle>
UCSF-P4578-REFINED_LIGAND-BOUND-STATE_A__DU__LA1_A-201(A)

> <OMEGA_C>
xTdCwrB278GSkUFAuS5Fwklu78EcmYZASQw9wqQ/7cFmbK9A/ao8wjtj7sE8l0RAIJlCwhxT7sHF
6a1AZBU6wg1I7cFInIlAo4grwtHa8cGsc6M/16U5wsRu7sEgyuk/QSZLwrY+78EP0dhAQ2Mswkcl
18FQFP8+uckowgPe08E4jc8/D+0rwigq3sFUhNw/849TwutC+8HRFg1Bkb9SwpYO6cFD5R1BtkEx
wtz88sHoQVk/ugRSwmib78E+jAlB4eMnwtll+cHYBK0/Rk8jwtRm9MGYnOU/GCQkwkoG6sGYCP4/
lUgpwrVz6MG8ndQ/1JtFwttH7sH6P9RAH5NMwmTT7sGGDwJBMWY7wggx68FoKz4/Km5OwshR8MH2
3LtAA6o0whg47MG1vItAy580wq6E8sHuTwBAmkZEwu1U8MGmrQRAjYFJwh5F8MGCC4VAMAQ7woxh
7MFMAc5AxhEwwmy10sGgLrk+GYgqwv/L2cEwZNi+xYIkwrtX1MEgyLo/cQoqwg84zcHAeg9A5U0v
wt8z3sEixxlAbBpRwpLb/sFsrxlBuwBTwlzz/8GS5/xAKsBXwun/+8GxAxJB1UZQwocv7MG09CpB
W+1Wwo4k6cGFGyNBppJRwou24MERRhtBJWIywnmQ7MFgDSM+TuYxwh6h+sGwKaw+YotUwgBA7MHU
xflADHxDwlxy7cGT0O9AjZ1Jwmwy7sFjJg1BLZ8zws+M68FvpqlA

> <OMEGA_E>
ApAOwQ==

> <OMEGA_NBR>
    197911

$$$$
CACHE3HI_1879_13
  -OEChem-03092622533D

 62 65  0     1  0  0  0  0  0999 V2000
  -51.4678  -32.4159   11.5586 C   0  0  0  0  0  0  0  0  0  0  0  0
  -51.0563  -32.6225   10.2333 C   0  0  0  0  0  0  0  0  0  0  0  0
  -52.0923  -31.2228   11.9309 C   0  0  0  0  0  0  0  0  0  0  0  0
  -51.2709  -31.6458    9.2586 C   0  0  0  0  0  0  0  0  0  0  0  0
  -52.3111  -30.2639   10.9560 C   0  0  0  0  0  0  0  0  0  0  0  0
  -51.9258  -30.4848    9.6347 C   0  0  0  0  0  0  0  0  0  0  0  0
  -43.2975  -29.1266    1.3263 C   0  0  0  0  0  0  0  0  0  0  0  0
  -49.4577  -30.4080    3.2182 C   0  0  0  0  0  0  0  0  0  0  0  0
  -52.8887  -28.8958   11.1275 C   0  0  0  0  0  0  0  0  0  0  0  0
  -40.9032  -32.0320    2.0069 C   0  0  0  0  0  0  0  0  0  0  0  0
  -40.3223  -30.7899    1.4005 C   0  0  0  0  0  0  0  0  0  0  0  0
  -53.0857  -28.4359    9.6719 C   0  0  0  0  0  0  0  0  0  0  0  0
  -47.7389  -31.0470    1.5631 C   0  0  0  0  0  0  0  0  0  0  0  0
  -47.0220  -29.6846    3.5047 C   0  0  0  0  0  0  0  0  0  0  0  0
  -46.7641  -30.2627    0.6886 C   0  0  0  0  0  0  0  0  0  0  0  0
  -46.0421  -28.9611    2.5785 C   0  0  0  0  0  0  0  0  0  0  0  0
  -41.5857  -30.7075    2.2120 C   0  0  0  0  0  0  0  0  0  0  0  0
  -45.1004  -27.6931    0.3353 C   0  0  0  0  0  0  0  0  0  0  0  0
  -51.0689  -29.6942    4.9659 C   0  0  0  0  0  0  0  0  0  0  0  0
  -51.0190  -29.5075    6.4701 C   0  0  0  0  0  0  0  0  0  0  0  0
  -44.6471  -29.1166    0.6207 C   0  0  2  0  0  0  0  0  0  0  0  0
  -52.2006  -29.3227    8.8412 N   0  0  2  0  0  0  0  0  0  0  0  0
  -48.1272  -30.3111    2.7674 N   0  0  0  0  0  0  0  0  0  0  0  0
  -45.6068  -29.8203    1.4724 N   0  0  0  0  0  0  0  0  0  0  0  0
  -42.8581  -30.4158    1.5916 N   0  0  0  0  0  0  0  0  0  0  0  0
  -49.7510  -29.6903    4.3718 N   0  0  0  0  0  0  0  0  0  0  0  0
  -42.6693  -28.1017    1.5824 O   0  0  0  0  0  0  0  0  0  0  0  0
  -50.3131  -31.0879    2.6410 O   0  0  0  0  0  0  0  0  0  0  0  0
  -53.3703  -28.4017    6.7435 O   0  0  0  0  0  0  0  0  0  0  0  0
  -53.1524  -30.9007    7.0465 O   0  0  0  0  0  0  0  0  0  0  0  0
  -52.6234  -29.5576    7.2064 S   0  0  0  0  0  0  0  0  0  0  0  0
  -51.2847  -33.1849   12.3042 H   0  0  0  0  0  0  0  0  0  0  0  0
  -50.5561  -33.5494    9.9657 H   0  0  0  0  0  0  0  0  0  0  0  0
  -52.3861  -31.0533   12.9612 H   0  0  0  0  0  0  0  0  0  0  0  0
  -50.9282  -31.8092    8.2432 H   0  0  0  0  0  0  0  0  0  0  0  0
  -53.8359  -28.9044   11.6740 H   0  0  0  0  0  0  0  0  0  0  0  0
  -52.1704  -28.2500   11.6437 H   0  0  0  0  0  0  0  0  0  0  0  0
  -41.3613  -32.7512    1.3389 H   0  0  0  0  0  0  0  0  0  0  0  0
  -40.3880  -32.4692    2.8533 H   0  0  0  0  0  0  0  0  0  0  0  0
  -39.4157  -30.3906    1.8382 H   0  0  0  0  0  0  0  0  0  0  0  0
  -40.3906  -30.6751    0.3257 H   0  0  0  0  0  0  0  0  0  0  0  0
  -54.1322  -28.5759    9.3750 H   0  0  0  0  0  0  0  0  0  0  0  0
  -52.8147  -27.3843    9.5406 H   0  0  0  0  0  0  0  0  0  0  0  0
  -48.6207  -31.3216    0.9749 H   0  0  0  0  0  0  0  0  0  0  0  0
  -47.2759  -31.9824    1.9020 H   0  0  0  0  0  0  0  0  0  0  0  0
  -46.5126  -30.4852    4.0542 H   0  0  0  0  0  0  0  0  0  0  0  0
  -47.3917  -28.9599    4.2334 H   0  0  0  0  0  0  0  0  0  0  0  0
  -46.4329  -30.9182   -0.1260 H   0  0  0  0  0  0  0  0  0  0  0  0
  -47.2823  -29.4099    0.2303 H   0  0  0  0  0  0  0  0  0  0  0  0
  -46.5121  -28.0440    2.1983 H   0  0  0  0  0  0  0  0  0  0  0  0
  -45.1734  -28.6555    3.1745 H   0  0  0  0  0  0  0  0  0  0  0  0
  -41.5020  -30.2642    3.1983 H   0  0  0  0  0  0  0  0  0  0  0  0
  -45.1763  -27.1095    1.2580 H   0  0  0  0  0  0  0  0  0  0  0  0
  -44.3963  -27.1866   -0.3338 H   0  0  0  0  0  0  0  0  0  0  0  0
  -46.0851  -27.6798   -0.1467 H   0  0  0  0  0  0  0  0  0  0  0  0
  -51.6510  -28.9038    4.4828 H   0  0  0  0  0  0  0  0  0  0  0  0
  -51.5253  -30.6581    4.7217 H   0  0  0  0  0  0  0  0  0  0  0  0
  -50.4433  -30.3142    6.9347 H   0  0  0  0  0  0  0  0  0  0  0  0
  -50.5696  -28.5490    6.7462 H   0  0  0  0  0  0  0  0  0  0  0  0
  -44.5770  -29.6850   -0.3133 H   0  0  0  0  0  0  0  0  0  0  0  0
  -43.4607  -31.1932    1.3372 H   0  0  0  0  0  0  0  0  0  0  0  0
  -49.0181  -29.1471    4.8103 H   0  0  0  0  0  0  0  0  0  0  0  0
  1  2  2  0  0  0  0
  1  3  1  0  0  0  0
  2  4  1  0  0  0  0
  3  5  2  0  0  0  0
  4  6  2  0  0  0  0
  5  6  1  0  0  0  0
  5  9  1  0  0  0  0
  6 22  1  0  0  0  0
  7 21  1  0  0  0  0
  7 25  1  0  0  0  0
  7 27  2  0  0  0  0
  8 23  1  0  0  0  0
  8 26  1  0  0  0  0
  8 28  2  0  0  0  0
  9 12  1  0  0  0  0
 10 11  1  0  0  0  0
 10 17  1  0  0  0  0
 11 17  1  0  0  0  0
 12 22  1  0  0  0  0
 13 15  1  0  0  0  0
 13 23  1  0  0  0  0
 14 16  1  0  0  0  0
 14 23  1  0  0  0  0
 15 24  1  0  0  0  0
 16 24  1  0  0  0  0
 17 25  1  0  0  0  0
 18 21  1  0  0  0  0
 19 20  1  0  0  0  0
 19 26  1  0  0  0  0
 20 31  1  0  0  0  0
 21 24  1  0  0  0  0
 22 31  1  0  0  0  0
 29 31  2  0  0  0  0
 30 31  2  0  0  0  0
  1 32  1  0  0  0  0
  2 33  1  0  0  0  0
  3 34  1  0  0  0  0
  4 35  1  0  0  0  0
  9 36  1  0  0  0  0
  9 37  1  0  0  0  0
 10 38  1  0  0  0  0
 10 39  1  0  0  0  0
 11 40  1  0  0  0  0
 11 41  1  0  0  0  0
 12 42  1  0  0  0  0
 12 43  1  0  0  0  0
 13 44  1  0  0  0  0
 13 45  1  0  0  0  0
 14 46  1  0  0  0  0
 14 47  1  0  0  0  0
 15 48  1  0  0  0  0
 15 49  1  0  0  0  0
 16 50  1  0  0  0  0
 16 51  1  0  0  0  0
 17 52  1  0  0  0  0
 18 53  1  0  0  0  0
 18 54  1  0  0  0  0
 18 55  1  0  0  0  0
 19 56  1  0  0  0  0
 19 57  1  0  0  0  0
 20 58  1  0  0  0  0
 20 59  1  0  0  0  0
 21 60  1  0  0  0  0
 25 61  1  0  0  0  0
 26 62  1  0  0  0  0
M  END
> <POSIT::Probability>
0.02

> <POSIT::Method>
FRED

> <ReceptorTitle>
UCSF-P4578-REFINED_LIGAND-BOUND-STATE_A__DU__LA1_A-201(A)

> <OMEGA_C>
+t5Nwt6pAcIs8DhBszlMwmV9AsKauyNBjF5QwmLI+cH+5D5BWxVNwo4q/cEoIxRBjD5Rwmcc8sHm
Sy9B+rNPwtHg88GsJxpBsDAtwlkD6cHXxKk/uNRFwp5D88Gb9k1A/I1Twqsq58EUCjJB2JwjwsEg
AMKmcABAFEohwrlR9sG4RLM/u1dUws1848H8vxpBq/Q+wipg+MGZFMg/fhY8wiJ67cHhTGBAeA47
wvgZ8sFxSTA/Eis4wliw58FyBSVAyFcmwuKo9cH/kQ1AzWY0wl+L3cGSqas+lEZMwrqN7cG86J5A
chNMwmkP7MHUCs9Ap5Yywr7u6ME95h4/YM1QwtaU6sGQdQ1BPoJAwht98sH8HDFAXW02wvyP7sEw
eLw/u24rwnlT88Hwuss/EwFHwraF7cHW5YtAaq0qwlrQ4MEwi8o/oEBJwhi0+MHMBSlAL3tVwsM2
48EKy9dAFZxUwog098G4fOFAXn5SwuZ17MGMmuZAkCNNwly9BMLa3URBfDlKwpYyBsJocx9BXItR
whJt+MH4YE9BdLZLwlZ5/sEU5ANB8VdXwjA858HQyDpBcq5QwgoA4sHMTDpB73ElwjABA8JpYas/
R40hwnrgAcLCnDZAtakdwtof88FnSes/+Y8hwqFm9cF8xKY+aodYwoib5MHa/xVBQkJTwhwT28E6
phhBjXtCwpyS+sHUk3k/iBo9wgnc/8F8dfM/4Qw6wr/h88EuvIFAFpE9wvqt58EFeIdAULs5wm9Y
98G4DgG+EyE9wm5H68G43Gs+bQw6wh9a4MGVsAxAkbE0wng+5cESK0tADQImwhEd8sGvsUxAf7Q0
wjfg2MGTBKE/2pUxwit+2cFY56q+G1c4wkhw3cHYLRa+rJpOwgw758HCco9A8RlOwrND9cEkGJdA
9sVJwoWD8sFx6d1AQEdKwltk5MH74NdAzk4ywsh67cEIbaC+x9ctwqmL+cEMKas/fBJEwkgt6cFK
7plA

> <OMEGA_E>
JzTHwA==

> <OMEGA_NBR>
    199649

$$$$
CACHE3HI_1879_25
  -OEChem-03092622533D

 54 57  0     1  0  0  0  0  0999 V2000
  -48.6739  -29.2906    2.9028 C   0  0  0  0  0  0  0  0  0  0  0  0
  -47.2846  -29.3257    3.0224 C   0  0  0  0  0  0  0  0  0  0  0  0
  -53.7437  -26.9985    9.4793 C   0  0  0  0  0  0  0  0  0  0  0  0
  -49.4754  -29.4938    4.0261 C   0  0  0  0  0  0  0  0  0  0  0  0
  -54.4917  -25.9239    9.9585 C   0  0  0  0  0  0  0  0  0  0  0  0
  -47.4984  -29.7668    5.3882 C   0  0  0  0  0  0  0  0  0  0  0  0
  -54.1793  -28.2215   11.5187 C   0  0  0  0  0  0  0  0  0  0  0  0
  -46.6969  -29.5636    4.2649 C   0  0  0  0  0  0  0  0  0  0  0  0
  -53.5872  -28.1453   10.2587 C   0  0  0  0  0  0  0  0  0  0  0  0
  -54.9180  -27.1386   12.0010 C   0  0  0  0  0  0  0  0  0  0  0  0
  -48.8876  -29.7317    5.2686 C   0  0  0  0  0  0  0  0  0  0  0  0
  -55.0714  -25.9908   11.2258 C   0  0  0  0  0  0  0  0  0  0  0  0
  -56.2105  -26.1526   13.7951 C   0  0  0  0  0  0  0  0  0  0  0  0
  -45.2483  -29.6003    4.3885 C   0  0  0  0  0  0  0  0  0  0  0  0
  -51.0923  -29.9403    6.4677 C   0  0  0  0  0  0  0  0  0  0  0  0
  -56.0412  -24.8566   13.0213 C   0  0  0  0  0  0  0  0  0  0  0  0
  -42.4002  -31.3981    3.0104 C   0  0  0  0  0  0  0  0  0  0  0  0
  -42.3465  -30.3518    1.9380 C   0  0  0  0  0  0  0  0  0  0  0  0
  -43.0823  -30.0740    3.2197 C   0  0  0  0  0  0  0  0  0  0  0  0
  -51.5918  -29.6415   10.6318 C   0  0  0  0  0  0  0  0  0  0  0  0
  -51.5611  -30.2008    7.8874 C   0  0  0  0  0  0  0  0  0  0  0  0
  -52.7912  -29.2946    9.7384 C   0  0  2  0  0  0  0  0  0  0  0  0
  -55.5431  -27.2243   13.2496 N   0  0  0  0  0  0  0  0  0  0  0  0
  -49.7019  -29.9380    6.4079 N   0  0  0  0  0  0  0  0  0  0  0  0
  -44.5234  -29.9696    3.2499 N   0  0  0  0  0  0  0  0  0  0  0  0
  -52.3457  -29.0722    8.3739 N   0  0  0  0  0  0  0  0  0  0  0  0
  -56.8306  -26.2001   14.8553 O   0  0  0  0  0  0  0  0  0  0  0  0
  -44.7006  -29.3312    5.4719 O   0  0  0  0  0  0  0  0  0  0  0  0
  -51.8785  -29.7947    5.5370 O   0  0  0  0  0  0  0  0  0  0  0  0
  -55.8322  -24.9276   11.6236 O   0  0  0  0  0  0  0  0  0  0  0  0
  -49.1318  -29.1051    1.9356 H   0  0  0  0  0  0  0  0  0  0  0  0
  -46.6696  -29.1661    2.1403 H   0  0  0  0  0  0  0  0  0  0  0  0
  -53.2903  -26.9366    8.4934 H   0  0  0  0  0  0  0  0  0  0  0  0
  -50.5570  -29.4644    3.9216 H   0  0  0  0  0  0  0  0  0  0  0  0
  -54.6182  -25.0395    9.3401 H   0  0  0  0  0  0  0  0  0  0  0  0
  -47.0400  -29.9526    6.3574 H   0  0  0  0  0  0  0  0  0  0  0  0
  -54.0650  -29.1205   12.1197 H   0  0  0  0  0  0  0  0  0  0  0  0
  -56.9471  -24.2602   13.1788 H   0  0  0  0  0  0  0  0  0  0  0  0
  -55.2053  -24.3057   13.4702 H   0  0  0  0  0  0  0  0  0  0  0  0
  -43.0138  -32.2724    2.8301 H   0  0  0  0  0  0  0  0  0  0  0  0
  -41.4949  -31.5924    3.5722 H   0  0  0  0  0  0  0  0  0  0  0  0
  -41.4049  -29.8414    1.7771 H   0  0  0  0  0  0  0  0  0  0  0  0
  -42.9239  -30.5235    1.0379 H   0  0  0  0  0  0  0  0  0  0  0  0
  -42.6092  -29.3869    3.9128 H   0  0  0  0  0  0  0  0  0  0  0  0
  -50.9139  -28.7886   10.7464 H   0  0  0  0  0  0  0  0  0  0  0  0
  -51.9275  -29.9414   11.6311 H   0  0  0  0  0  0  0  0  0  0  0  0
  -51.0057  -30.4656   10.2092 H   0  0  0  0  0  0  0  0  0  0  0  0
  -50.7076  -30.3308    8.5583 H   0  0  0  0  0  0  0  0  0  0  0  0
  -52.1915  -31.0946    7.9073 H   0  0  0  0  0  0  0  0  0  0  0  0
  -53.4175  -30.2013    9.6767 H   0  0  0  0  0  0  0  0  0  0  0  0
  -55.5147  -28.1054   13.7540 H   0  0  0  0  0  0  0  0  0  0  0  0
  -49.1990  -30.1053    7.2772 H   0  0  0  0  0  0  0  0  0  0  0  0
  -45.0236  -30.2400    2.4096 H   0  0  0  0  0  0  0  0  0  0  0  0
  -53.1578  -28.9450    7.7679 H   0  0  0  0  0  0  0  0  0  0  0  0
  1  2  1  0  0  0  0
  1  4  2  0  0  0  0
  2  8  2  0  0  0  0
  3  5  2  0  0  0  0
  3  9  1  0  0  0  0
  4 11  1  0  0  0  0
  5 12  1  0  0  0  0
  6  8  1  0  0  0  0
  6 11  2  0  0  0  0
  7  9  2  0  0  0  0
  7 10  1  0  0  0  0
  8 14  1  0  0  0  0
  9 22  1  0  0  0  0
 10 12  2  0  0  0  0
 10 23  1  0  0  0  0
 11 24  1  0  0  0  0
 12 30  1  0  0  0  0
 13 16  1  0  0  0  0
 13 23  1  0  0  0  0
 13 27  2  0  0  0  0
 14 25  1  0  0  0  0
 14 28  2  0  0  0  0
 15 21  1  0  0  0  0
 15 24  1  0  0  0  0
 15 29  2  0  0  0  0
 16 30  1  0  0  0  0
 17 18  1  0  0  0  0
 17 19  1  0  0  0  0
 18 19  1  0  0  0  0
 19 25  1  0  0  0  0
 20 22  1  0  0  0  0
 21 26  1  0  0  0  0
 22 26  1  0  0  0  0
  1 31  1  0  0  0  0
  2 32  1  0  0  0  0
  3 33  1  0  0  0  0
  4 34  1  0  0  0  0
  5 35  1  0  0  0  0
  6 36  1  0  0  0  0
  7 37  1  0  0  0  0
 16 38  1  0  0  0  0
 16 39  1  0  0  0  0
 17 40  1  0  0  0  0
 17 41  1  0  0  0  0
 18 42  1  0  0  0  0
 18 43  1  0  0  0  0
 19 44  1  0  0  0  0
 20 45  1  0  0  0  0
 20 46  1  0  0  0  0
 20 47  1  0  0  0  0
 21 48  1  0  0  0  0
 21 49  1  0  0  0  0
 22 50  1  0  0  0  0
 23 51  1  0  0  0  0
 24 52  1  0  0  0  0
 25 53  1  0  0  0  0
 26 54  1  0  0  0  0
M  END
> <POSIT::Probability>
0.18

> <POSIT::Method>
FRED

> <ReceptorTitle>
UCSF-P4578-REFINED_LIGAND-BOUND-STATE_A__DU__LA1_A-201(A)

> <OMEGA_C>
F7JCwh5T6sHfxjlAcSM9wvua6sFfbkFAi/lWwuf818FkqxdByeZFwkvz68GD1YBAhvdZwhtkz8H+
VR9BV/49wn8i7sF8bKxAkLdYwozF4cG8TDhBl8k6wk6C7MEqeohAUFlWwqkp4cGvIyRBA6xbwuIb
2cE3BEBB74xDwp7a7cF+mKhAKklcwhDtz8H0nDNBmddgwnw40cGnuFxBSf40wlDN7MF7boxAil5M
wraF78GU985AKSpgwjzaxsEZV1BB2Jkpwmkv+8GMqkBAxGIpwojQ8sEeEPg/QlQswpaX8MEKEE5A
A15OwuIh7cHjGypBnD5Owkub8cHmZfxANipTwltb6sFQ0BtBLSxewmLL2cFX/lNBvM5GwhqB78Gn
Dc1A9hcywrrB78GM/U9A/GFRwsyT6MGg+wVBklJjwtaZ0cF3r21Bbs0ywkem6sHvGa9Ak4NPwoxb
7sHtLrFAKFRfwr9rx8FS+jlB/YZEwi3X6MGawfc/tq06wj1U6cF7+ghARClVwi1+18Em5QdBUjpK
wi6368EV/HpADHlawtBQyMEycRVB9Cg8wuie78HKb8tAg0JYws726MEw6kFBzcljwvkUwsEp3FJB
NtJcwiZywsEXhldBFw4swvAWAcKWHzVAvvolwj29/MFln2RAl54lwke77sHeduM/CLIrwg4w9ME9
2YQ/3m8qwkoY68Fma3pA1adLwhdP5sE/8StBvLVPwuqH78HsGDpB4QVMwqS588H7WCNBlNRKwnWl
8sH47ghBIMRQwsrB+MG/CP1AgqtVwkyc8cG+0xpBDQ9ewu7X4MFwEFxBz8tEwq7X8MHa3uhAIxg0
wpbr8cGNNxpAkKFUwmuP58HOkvhA

> <OMEGA_E>
cQLrwA==

> <OMEGA_NBR>
    201224

$$$$
CACHE3HI_1687_38
  -OEChem-03092622523D

 32 34  0     0  0  0  0  0  0999 V2000
  -47.9139  -29.7259    4.8470 C   0  0  0  0  0  0  0  0  0  0  0  0
  -46.0340  -29.3091    1.3699 C   0  0  0  0  0  0  0  0  0  0  0  0
  -43.9884  -28.8191    1.7161 C   0  0  0  0  0  0  0  0  0  0  0  0
  -49.3022  -29.5114    4.8115 C   0  0  0  0  0  0  0  0  0  0  0  0
  -47.6705  -30.4722    3.7244 C   0  0  0  0  0  0  0  0  0  0  0  0
  -44.3074  -29.7977    2.6436 C   0  0  0  0  0  0  0  0  0  0  0  0
  -42.6867  -28.3281    1.7415 C   0  0  0  0  0  0  0  0  0  0  0  0
  -42.2677  -29.7780    3.4996 C   0  0  0  0  0  0  0  0  0  0  0  0
  -50.6642  -29.6410    6.9122 C   0  0  0  0  0  0  0  0  0  0  0  0
  -50.1248  -28.7631    5.7755 C   0  0  0  0  0  0  0  0  0  0  0  0
  -46.4251  -31.0658    3.1142 C   0  0  0  0  0  0  0  0  0  0  0  0
  -45.0727  -28.5240    0.9289 N   0  0  0  0  0  0  0  0  0  0  0  0
  -49.8763  -30.0808    3.7483 N   0  0  0  0  0  0  0  0  0  0  0  0
  -43.4984  -30.3307    3.5714 N   0  0  0  0  0  0  0  0  0  0  0  0
  -41.8150  -28.8217    2.6538 N   0  0  0  0  0  0  0  0  0  0  0  0
  -45.6187  -30.0998    2.4081 N   0  0  0  0  0  0  0  0  0  0  0  0
  -42.2756  -27.3347    0.8365 N   0  0  0  0  0  0  0  0  0  0  0  0
  -41.3237  -30.2628    4.4337 N   0  0  0  0  0  0  0  0  0  0  0  0
  -48.8347  -30.6904    3.0598 O   0  0  0  0  0  0  0  0  0  0  0  0
  -47.1944  -29.3879    5.5784 H   0  0  0  0  0  0  0  0  0  0  0  0
  -47.0421  -29.3493    0.9805 H   0  0  0  0  0  0  0  0  0  0  0  0
  -49.8439  -30.1450    7.4348 H   0  0  0  0  0  0  0  0  0  0  0  0
  -51.3362  -30.4115    6.5198 H   0  0  0  0  0  0  0  0  0  0  0  0
  -51.2198  -29.0478    7.6451 H   0  0  0  0  0  0  0  0  0  0  0  0
  -50.9866  -28.2752    5.2774 H   0  0  0  0  0  0  0  0  0  0  0  0
  -49.5556  -27.9244    6.2258 H   0  0  0  0  0  0  0  0  0  0  0  0
  -45.8238  -31.5483    3.8964 H   0  0  0  0  0  0  0  0  0  0  0  0
  -46.6999  -31.8846    2.4357 H   0  0  0  0  0  0  0  0  0  0  0  0
  -42.9136  -27.0159    0.1324 H   0  0  0  0  0  0  0  0  0  0  0  0
  -41.3198  -27.0331    0.8370 H   0  0  0  0  0  0  0  0  0  0  0  0
  -41.6168  -30.9300    5.1159 H   0  0  0  0  0  0  0  0  0  0  0  0
  -40.4143  -29.8522    4.4605 H   0  0  0  0  0  0  0  0  0  0  0  0
  1  4  1  0  0  0  0
  1  5  2  0  0  0  0
  2 12  2  0  0  0  0
  2 16  1  0  0  0  0
  3  6  1  0  0  0  0
  3  7  2  0  0  0  0
  3 12  1  0  0  0  0
  4 10  1  0  0  0  0
  4 13  2  0  0  0  0
  5 11  1  0  0  0  0
  5 19  1  0  0  0  0
  6 14  2  0  0  0  0
  6 16  1  0  0  0  0
  7 15  1  0  0  0  0
  7 17  1  0  0  0  0
  8 14  1  0  0  0  0
  8 15  2  0  0  0  0
  8 18  1  0  0  0  0
  9 10  1  0  0  0  0
 11 16  1  0  0  0  0
 13 19  1  0  0  0  0
  1 20  1  0  0  0  0
  2 21  1  0  0  0  0
  9 22  1  0  0  0  0
  9 23  1  0  0  0  0
  9 24  1  0  0  0  0
 10 25  1  0  0  0  0
 10 26  1  0  0  0  0
 11 27  1  0  0  0  0
 11 28  1  0  0  0  0
 17 29  1  0  0  0  0
 17 30  1  0  0  0  0
 18 31  1  0  0  0  0
 18 32  1  0  0  0  0
M  END
> <POSIT::Probability>
0.02

> <POSIT::Method>
FRED

> <ReceptorTitle>
UCSF-P4599-REFINED_LIGAND-BOUND-STATE_A__DU__LA1_A-201(A)

> <OMEGA_C>
1Kc/wprO7cHYGptA0SI4wv546sGAWq8/J/QvwoGN5sH4qNs/fzVFwkoX7MGy95lAka4+whjH88F7
XG5AxToxwq9h7sFOMSlAMb8qwvaf4sEQ694/FxIpwmo57sE2+l9AJKhKwrEg7cGAMN1AyX9Iws0a
5sEl0bhATLM5wsuG+MHATkdAbko0wikx5MG8yW0/YYFHwn2l8MHn5G9AUf4twlCl8sGzkWRAmEIn
wsuS5sE02ClAiXk2wn7M8MF0HhpALBopwl+t2sHgIVY/f0slwk4a8sF84I1At1ZDwtmF9cEB00NA
B8c8wmYa68HdgbJAKCs8wkvL6sHcAXs/MmBHwuIo8cGC6e1AP1hNwtFK88F5otBACuFMwuxh6MEF
pfRAQPJLwoMz4sFf4KhA9zhGwkVl38GWOcdAkks3wuVi/MFRX3lAtsw6wqUT/8FM4xtAgKcrwosg
2MFQhwc+dUclwt5D2MHkRlY/kHcmwpVw98FmtaNAQ6ghwkDR7sF2vI5A

> <OMEGA_E>
4VIFwQ==

> <OMEGA_NBR>
      1129

$$$$
CACHE3HI_1687_56
  -OEChem-03092622523D

 30 32  0     0  0  0  0  0  0999 V2000
  -51.1781  -29.6065    7.9508 C   0  0  0  0  0  0  0  0  0  0  0  0
  -48.2851  -29.9531    7.3917 C   0  0  0  0  0  0  0  0  0  0  0  0
  -46.5936  -29.6270    6.1359 C   0  0  0  0  0  0  0  0  0  0  0  0
  -52.4628  -29.0668    8.1323 C   0  0  0  0  0  0  0  0  0  0  0  0
  -51.1231  -29.8729    6.6082 C   0  0  0  0  0  0  0  0  0  0  0  0
  -47.6484  -29.9172    5.2856 C   0  0  0  0  0  0  0  0  0  0  0  0
  -45.3602  -29.3720    5.5445 C   0  0  0  0  0  0  0  0  0  0  0  0
  -46.3730  -29.7170    3.4893 C   0  0  0  0  0  0  0  0  0  0  0  0
  -52.0479  -28.0477   10.3849 C   0  0  0  0  0  0  0  0  0  0  0  0
  -53.0746  -28.5947    9.3848 C   0  0  0  0  0  0  0  0  0  0  0  0
  -50.0671  -30.4530    5.7005 C   0  0  0  0  0  0  0  0  0  0  0  0
  -47.0037  -29.6525    7.4450 N   0  0  0  0  0  0  0  0  0  0  0  0
  -53.1522  -29.0030    6.9901 N   0  0  0  0  0  0  0  0  0  0  0  0
  -47.6166  -29.9812    3.9461 N   0  0  0  0  0  0  0  0  0  0  0  0
  -45.2553  -29.4199    4.1945 N   0  0  0  0  0  0  0  0  0  0  0  0
  -48.7221  -30.1227    6.1049 N   0  0  0  0  0  0  0  0  0  0  0  0
  -44.2360  -29.0652    6.3304 N   0  0  0  0  0  0  0  0  0  0  0  0
  -52.2961  -29.5164    6.0235 O   0  0  0  0  0  0  0  0  0  0  0  0
  -46.2242  -29.7536    2.1530 F   0  0  0  0  0  0  0  0  0  0  0  0
  -50.4043  -29.7763    8.6851 H   0  0  0  0  0  0  0  0  0  0  0  0
  -48.9427  -30.0606    8.2433 H   0  0  0  0  0  0  0  0  0  0  0  0
  -51.4573  -27.2436    9.9327 H   0  0  0  0  0  0  0  0  0  0  0  0
  -51.3562  -28.8365   10.6991 H   0  0  0  0  0  0  0  0  0  0  0  0
  -52.5358  -27.6485   11.2795 H   0  0  0  0  0  0  0  0  0  0  0  0
  -53.6465  -29.4026    9.8841 H   0  0  0  0  0  0  0  0  0  0  0  0
  -53.8269  -27.8027    9.1926 H   0  0  0  0  0  0  0  0  0  0  0  0
  -50.1808  -31.5443    5.6511 H   0  0  0  0  0  0  0  0  0  0  0  0
  -50.2375  -30.1129    4.6703 H   0  0  0  0  0  0  0  0  0  0  0  0
  -44.3388  -28.9785    7.3235 H   0  0  0  0  0  0  0  0  0  0  0  0
  -43.3704  -28.8331    5.8820 H   0  0  0  0  0  0  0  0  0  0  0  0
  1  4  1  0  0  0  0
  1  5  2  0  0  0  0
  2 12  2  0  0  0  0
  2 16  1  0  0  0  0
  3  6  1  0  0  0  0
  3  7  2  0  0  0  0
  3 12  1  0  0  0  0
  4 10  1  0  0  0  0
  4 13  2  0  0  0  0
  5 11  1  0  0  0  0
  5 18  1  0  0  0  0
  6 14  2  0  0  0  0
  6 16  1  0  0  0  0
  7 15  1  0  0  0  0
  7 17  1  0  0  0  0
  8 14  1  0  0  0  0
  8 15  2  0  0  0  0
  8 19  1  0  0  0  0
  9 10  1  0  0  0  0
 11 16  1  0  0  0  0
 13 18  1  0  0  0  0
  1 20  1  0  0  0  0
  2 21  1  0  0  0  0
  9 22  1  0  0  0  0
  9 23  1  0  0  0  0
  9 24  1  0  0  0  0
 10 25  1  0  0  0  0
 10 26  1  0  0  0  0
 11 27  1  0  0  0  0
 11 28  1  0  0  0  0
 17 29  1  0  0  0  0
 17 30  1  0  0  0  0
M  END
> <POSIT::Probability>
0.18

> <POSIT::Method>
HYBRID

> <ReceptorTitle>
UCSF-P4599-REFINED_LIGAND-BOUND-STATE_A__DU__LA1_A-201(A)

> <OMEGA_C>
WbZMwg7a7MHnbP5A5yNBwu+f78HoiOxA3l86whME7cGpWcRA6tlRwriI6MEXHgJBEn5MwrL77sFW
dtNA7Jc+woZW78H8I6lA03A1wt756sGcbLFA7n05wnq87cEvUF9ABjFQwsBh4MGOKCZBcExUwuHB
5MEzKBZBqURIwtWf88HOarZAzwM8wko47cFOPe5A3JtUwj8G6MGqrt9AcHc+wpjZ78F4jXxAbAU1
wvdb68G+OYZAaONCwjP78MF3W8NAqfEwwoCF6MEBk8pALS9RwrAh7MGkwMBAiuU4wkYH7sGcyglA
+51JwtY17sEv9gpBW8VDwhd88MGm5ANBSNRNws7y2cFm7B5BumxNwhyx5sFRLytBnSRSwiYw3cHf
eDRB+JVWwnI468EXJR5Bw05XwgVs3sEQFRNBF7lIwsZa/MHc1bRAMPNIwiXn8MEAc5VA91oxwuPT
58ExWupARHstwjKq5sEpObxA

> <OMEGA_E>
Bi7CwA==

> <OMEGA_NBR>
      2221

$$$$
CACHE3HI_1687_60
  -OEChem-03092622523D

 28 30  0     0  0  0  0  0  0999 V2000
  -51.9185  -29.9801    6.6293 C   0  0  0  0  0  0  0  0  0  0  0  0
  -50.8780  -28.2166    8.3665 C   0  0  0  0  0  0  0  0  0  0  0  0
  -43.9103  -29.0734    5.0340 C   0  0  0  0  0  0  0  0  0  0  0  0
  -46.0534  -29.4683    5.1545 C   0  0  0  0  0  0  0  0  0  0  0  0
  -50.5986  -29.5820    6.5703 C   0  0  0  0  0  0  0  0  0  0  0  0
  -52.6690  -29.4132    7.6387 C   0  0  0  0  0  0  0  0  0  0  0  0
  -45.7768  -29.4473    6.5083 C   0  0  0  0  0  0  0  0  0  0  0  0
  -47.8718  -29.8439    7.1178 C   0  0  0  0  0  0  0  0  0  0  0  0
  -47.4104  -29.7070    4.7065 C   0  0  0  0  0  0  0  0  0  0  0  0
  -54.7148  -29.1420    8.8212 C   0  0  0  0  0  0  0  0  0  0  0  0
  -49.7030  -30.1454    5.5045 C   0  0  0  0  0  0  0  0  0  0  0  0
  -50.0433  -28.6989    7.4260 N   0  0  0  0  0  0  0  0  0  0  0  0
  -52.1792  -28.5249    8.5286 N   0  0  0  0  0  0  0  0  0  0  0  0
  -44.9910  -29.2550    4.3060 N   0  0  0  0  0  0  0  0  0  0  0  0
  -46.6562  -29.6301    7.5263 N   0  0  0  0  0  0  0  0  0  0  0  0
  -48.2985  -29.8935    5.7849 N   0  0  0  0  0  0  0  0  0  0  0  0
  -47.7047  -29.7338    3.5165 O   0  0  0  0  0  0  0  0  0  0  0  0
  -53.9891  -29.7571    7.7628 O   0  0  0  0  0  0  0  0  0  0  0  0
  -44.1104  -29.1483    6.7400 S   0  0  0  0  0  0  0  0  0  0  0  0
  -52.3402  -30.6906    5.9292 H   0  0  0  0  0  0  0  0  0  0  0  0
  -50.4585  -27.5047    9.0670 H   0  0  0  0  0  0  0  0  0  0  0  0
  -42.9419  -28.8889    4.5896 H   0  0  0  0  0  0  0  0  0  0  0  0
  -48.6801  -30.0090    7.8484 H   0  0  0  0  0  0  0  0  0  0  0  0
  -55.7482  -29.4982    8.8113 H   0  0  0  0  0  0  0  0  0  0  0  0
  -54.2492  -29.4080    9.7733 H   0  0  0  0  0  0  0  0  0  0  0  0
  -54.6912  -28.0568    8.6977 H   0  0  0  0  0  0  0  0  0  0  0  0
  -49.8408  -31.2282    5.4173 H   0  0  0  0  0  0  0  0  0  0  0  0
  -49.9327  -29.7084    4.5271 H   0  0  0  0  0  0  0  0  0  0  0  0
  1  5  2  0  0  0  0
  1  6  1  0  0  0  0
  2 12  2  0  0  0  0
  2 13  1  0  0  0  0
  3 14  2  0  0  0  0
  3 19  1  0  0  0  0
  4  7  2  0  0  0  0
  4  9  1  0  0  0  0
  4 14  1  0  0  0  0
  5 11  1  0  0  0  0
  5 12  1  0  0  0  0
  6 13  2  0  0  0  0
  6 18  1  0  0  0  0
  7 15  1  0  0  0  0
  7 19  1  0  0  0  0
  8 15  2  0  0  0  0
  8 16  1  0  0  0  0
  9 16  1  0  0  0  0
  9 17  2  0  0  0  0
 10 18  1  0  0  0  0
 11 16  1  0  0  0  0
  1 20  1  0  0  0  0
  2 21  1  0  0  0  0
  3 22  1  0  0  0  0
  8 23  1  0  0  0  0
 10 24  1  0  0  0  0
 10 25  1  0  0  0  0
 10 26  1  0  0  0  0
 11 27  1  0  0  0  0
 11 28  1  0  0  0  0
M  END
> <POSIT::Probability>
0.18

> <POSIT::Method>
HYBRID

> <ReceptorTitle>
UCSF-P4599-REFINED_LIGAND-BOUND-STATE_A__DU__LA1_A-201(A)

> <OMEGA_C>
gqxPwk3X78FnI9RACoNLwqK74cFA3QVBLaQvwmKW6MHFFqFAuTY4wgK/68Gt8aRA+2RKwgCo7MHi
P9JAGa1SwjhO68GKcPRAfBs3wviT68ECRNBAunw/wlLA7sEWxeNAOaQ9wuCn7cGQm5ZA+ttawtIi
6cHPIw1B1M9Gwr8p8cEWJbBAVCxIwlKX5cHOoe1AhbdQwv0y5MEydQhBwPYzwiQK6sEny4lAAKA6
woAK7cG31/BAsjFBws0l78EsHrlAkdE+wuLe7cFoDmFA4vRXwo8O7sEhafhAEHEwwqov6cEHrtdA
ZlxRwmSG9cGyu71Ai9VJwpEJ3MFXEhFBi8QrwmUc58Ef3pJAbLhCwl8S8MHgJftAKP5ewlH868H+
+gxBNP9YwoRD68FkXxxB1cNawmZ04MG8KQtBBl1HwmDT+cE+Wq1ADbtHwtuq7cEs3pBA

> <OMEGA_E>
s0uewA==

> <OMEGA_NBR>
      3272

$$$$
CACHE3HI_1687_63
  -OEChem-03092622523D

 33 35  0     0  0  0  0  0  0999 V2000
  -51.3091  -28.9035    8.2522 C   0  0  0  0  0  0  0  0  0  0  0  0
  -47.0816  -29.7423    3.6244 C   0  0  0  0  0  0  0  0  0  0  0  0
  -48.4953  -29.8229    7.7397 C   0  0  0  0  0  0  0  0  0  0  0  0
  -46.9837  -29.5090    6.2697 C   0  0  0  0  0  0  0  0  0  0  0  0
  -52.5866  -28.8687    8.8367 C   0  0  0  0  0  0  0  0  0  0  0  0
  -51.4076  -29.8951    7.3121 C   0  0  0  0  0  0  0  0  0  0  0  0
  -48.1204  -29.8848    5.5723 C   0  0  0  0  0  0  0  0  0  0  0  0
  -45.8429  -29.2444    5.5182 C   0  0  0  0  0  0  0  0  0  0  0  0
  -53.0627  -27.9855    9.9133 C   0  0  0  0  0  0  0  0  0  0  0  0
  -44.0011  -29.7271    7.1098 C   0  0  0  0  0  0  0  0  0  0  0  0
  -44.0167  -27.5900    5.8135 C   0  0  0  0  0  0  0  0  0  0  0  0
  -50.4456  -30.4850    6.3111 C   0  0  0  0  0  0  0  0  0  0  0  0
  -48.2484  -30.0242    4.2443 N   0  0  0  0  0  0  0  0  0  0  0  0
  -45.9003  -29.3656    4.1700 N   0  0  0  0  0  0  0  0  0  0  0  0
  -47.2308  -29.4742    7.6188 N   0  0  0  0  0  0  0  0  0  0  0  0
  -53.4144  -29.7694    8.3004 N   0  0  0  0  0  0  0  0  0  0  0  0
  -49.0773  -30.0812    6.5273 N   0  0  0  0  0  0  0  0  0  0  0  0
  -44.6451  -28.8565    6.1429 N   0  0  0  0  0  0  0  0  0  0  0  0
  -52.6603  -30.4195    7.3311 O   0  0  0  0  0  0  0  0  0  0  0  0
  -50.4437  -28.2977    8.4779 H   0  0  0  0  0  0  0  0  0  0  0  0
  -47.0909  -29.8292    2.5431 H   0  0  0  0  0  0  0  0  0  0  0  0
  -49.0389  -29.9048    8.6710 H   0  0  0  0  0  0  0  0  0  0  0  0
  -53.4978  -27.0473    9.5236 H   0  0  0  0  0  0  0  0  0  0  0  0
  -52.2474  -27.6793   10.5941 H   0  0  0  0  0  0  0  0  0  0  0  0
  -53.8369  -28.4800   10.5256 H   0  0  0  0  0  0  0  0  0  0  0  0
  -43.0853  -29.2667    7.4917 H   0  0  0  0  0  0  0  0  0  0  0  0
  -44.6734  -29.9208    7.9504 H   0  0  0  0  0  0  0  0  0  0  0  0
  -43.7460  -30.6837    6.6455 H   0  0  0  0  0  0  0  0  0  0  0  0
  -43.0985  -27.4543    6.3923 H   0  0  0  0  0  0  0  0  0  0  0  0
  -43.7686  -27.5569    4.7489 H   0  0  0  0  0  0  0  0  0  0  0  0
  -44.6965  -26.7625    6.0344 H   0  0  0  0  0  0  0  0  0  0  0  0
  -50.5155  -31.5809    6.3324 H   0  0  0  0  0  0  0  0  0  0  0  0
  -50.7558  -30.2104    5.2939 H   0  0  0  0  0  0  0  0  0  0  0  0
  1  5  1  0  0  0  0
  1  6  2  0  0  0  0
  2 13  1  0  0  0  0
  2 14  2  0  0  0  0
  3 15  2  0  0  0  0
  3 17  1  0  0  0  0
  4  7  1  0  0  0  0
  4  8  2  0  0  0  0
  4 15  1  0  0  0  0
  5  9  1  0  0  0  0
  5 16  2  0  0  0  0
  6 12  1  0  0  0  0
  6 19  1  0  0  0  0
  7 13  2  0  0  0  0
  7 17  1  0  0  0  0
  8 14  1  0  0  0  0
  8 18  1  0  0  0  0
 10 18  1  0  0  0  0
 11 18  1  0  0  0  0
 12 17  1  0  0  0  0
 16 19  1  0  0  0  0
  1 20  1  0  0  0  0
  2 21  1  0  0  0  0
  3 22  1  0  0  0  0
  9 23  1  0  0  0  0
  9 24  1  0  0  0  0
  9 25  1  0  0  0  0
 10 26  1  0  0  0  0
 10 27  1  0  0  0  0
 10 28  1  0  0  0  0
 11 29  1  0  0  0  0
 11 30  1  0  0  0  0
 11 31  1  0  0  0  0
 12 32  1  0  0  0  0
 12 33  1  0  0  0  0
M  END
> <POSIT::Probability>
0.23

> <POSIT::Method>
HYBRID

> <ReceptorTitle>
UCSF-P4599-REFINED_LIGAND-BOUND-STATE_A__DU__LA1_A-201(A)

> <OMEGA_C>
iDxNwmM658HoCARBjVM8wjzw7cEz9mdAI/tBwj+V7sHgq/dAUe87wlwS7MF2ochArFhSwgzz5sHy
Yg1BZKFNwhwp78EB/elAR3tAwicU78EdULJAIl83wnT06cEulbBALEBUwkDi38H2nB5BLQEwwgXR
7cGVg+NAFxEwwmy43MFNCLpAP8hJwkbh88FS9MlAZ/5AwoQx8MEv0YdA85k3wsvs6sGacIVAV+w8
whjL68GFzfNAU6hVwssn7sGWzgRBJ09EwmSm8MF139BAopQywi7a5sHIksRALaRSwjFb88GnmOpA
ZsZJwrZh4sF3pQdBGl08wkmi7sGuwSJA3ydEwvw878GHvApByP1Vwstg2MGsYBhBU/1Qwk9v3cFc
gSlB+lhXwgXX48G+aChBZFcswkki6sHhu+9AibEywuZd78G1af5A3/suwiB49cH6p9RA5GQswnCi
28GQjcxAABMvwqJ03MEc95dAK8kywooZ1sH6GcFA0w9Kwpyl/MHxospA6QVLwuSu8cEEaKlA

> <OMEGA_E>
4Nq1wA==

> <OMEGA_NBR>
      4425

$$$$
CACHE3HI_1689_30
  -OEChem-03092622523D

 44 46  0     0  0  0  0  0  0999 V2000
  -52.8260  -28.3058    9.1191 C   0  0  0  0  0  0  0  0  0  0  0  0
  -53.8753  -27.9901    8.2560 C   0  0  0  0  0  0  0  0  0  0  0  0
  -51.8608  -29.2353    8.7319 C   0  0  0  0  0  0  0  0  0  0  0  0
  -46.5948  -29.7581    3.8962 C   0  0  0  0  0  0  0  0  0  0  0  0
  -47.5942  -29.3766    6.4156 C   0  0  0  0  0  0  0  0  0  0  0  0
  -45.7240  -29.6306    4.9750 C   0  0  0  0  0  0  0  0  0  0  0  0
  -53.9593  -28.6035    7.0059 C   0  0  0  0  0  0  0  0  0  0  0  0
  -51.9448  -29.8487    7.4818 C   0  0  0  0  0  0  0  0  0  0  0  0
  -46.2149  -29.4350    6.2703 C   0  0  0  0  0  0  0  0  0  0  0  0
  -52.9940  -29.5330    6.6187 C   0  0  0  0  0  0  0  0  0  0  0  0
  -47.9522  -29.6831    4.1629 C   0  0  0  0  0  0  0  0  0  0  0  0
  -44.1054  -29.3655    7.1776 C   0  0  0  0  0  0  0  0  0  0  0  0
  -44.2588  -29.6982    4.7785 C   0  0  0  0  0  0  0  0  0  0  0  0
  -55.0906  -28.2522    6.0967 C   0  0  0  0  0  0  0  0  0  0  0  0
  -50.9015  -30.8409    7.0859 C   0  0  0  0  0  0  0  0  0  0  0  0
  -50.9778  -29.9831    4.2427 C   0  0  0  0  0  0  0  0  0  0  0  0
  -50.1867  -29.3553    3.1029 C   0  0  0  0  0  0  0  0  0  0  0  0
  -52.4159  -29.4826    4.3121 C   0  0  0  0  0  0  0  0  0  0  0  0
  -48.4746  -29.4958    5.3952 N   0  0  0  0  0  0  0  0  0  0  0  0
  -45.3774  -29.3007    7.3920 N   0  0  0  0  0  0  0  0  0  0  0  0
  -43.5234  -29.5551    5.9438 N   0  0  0  0  0  0  0  0  0  0  0  0
  -48.8365  -29.8132    3.0630 N   0  0  0  0  0  0  0  0  0  0  0  0
  -43.7687  -29.8669    3.6683 O   0  0  0  0  0  0  0  0  0  0  0  0
  -53.0751  -30.1346    5.3898 O   0  0  0  0  0  0  0  0  0  0  0  0
  -52.7614  -27.8295   10.0927 H   0  0  0  0  0  0  0  0  0  0  0  0
  -54.6233  -27.2655    8.5669 H   0  0  0  0  0  0  0  0  0  0  0  0
  -51.0475  -29.4756    9.4114 H   0  0  0  0  0  0  0  0  0  0  0  0
  -46.2298  -29.9103    2.8857 H   0  0  0  0  0  0  0  0  0  0  0  0
  -48.0490  -29.2273    7.3903 H   0  0  0  0  0  0  0  0  0  0  0  0
  -43.3747  -29.2711    7.9950 H   0  0  0  0  0  0  0  0  0  0  0  0
  -54.8308  -27.4062    5.4480 H   0  0  0  0  0  0  0  0  0  0  0  0
  -55.9802  -27.9560    6.6669 H   0  0  0  0  0  0  0  0  0  0  0  0
  -55.3505  -29.1095    5.4648 H   0  0  0  0  0  0  0  0  0  0  0  0
  -51.1850  -31.8570    7.3873 H   0  0  0  0  0  0  0  0  0  0  0  0
  -49.9411  -30.6206    7.5691 H   0  0  0  0  0  0  0  0  0  0  0  0
  -50.7567  -30.8269    5.9992 H   0  0  0  0  0  0  0  0  0  0  0  0
  -50.4789  -29.7614    5.1944 H   0  0  0  0  0  0  0  0  0  0  0  0
  -50.9781  -31.0769    4.1515 H   0  0  0  0  0  0  0  0  0  0  0  0
  -50.6445  -29.5755    2.1331 H   0  0  0  0  0  0  0  0  0  0  0  0
  -50.1526  -28.2686    3.2247 H   0  0  0  0  0  0  0  0  0  0  0  0
  -52.9596  -29.7076    3.3895 H   0  0  0  0  0  0  0  0  0  0  0  0
  -52.4447  -28.4031    4.4891 H   0  0  0  0  0  0  0  0  0  0  0  0
  -42.5101  -29.5903    5.8812 H   0  0  0  0  0  0  0  0  0  0  0  0
  -48.4677  -30.2480    2.2424 H   0  0  0  0  0  0  0  0  0  0  0  0
  1  2  2  0  0  0  0
  1  3  1  0  0  0  0
  2  7  1  0  0  0  0
  3  8  2  0  0  0  0
  4  6  2  0  0  0  0
  4 11  1  0  0  0  0
  5  9  2  0  0  0  0
  5 19  1  0  0  0  0
  6  9  1  0  0  0  0
  6 13  1  0  0  0  0
  7 10  2  0  0  0  0
  7 14  1  0  0  0  0
  8 10  1  0  0  0  0
  8 15  1  0  0  0  0
  9 20  1  0  0  0  0
 10 24  1  0  0  0  0
 11 19  2  0  0  0  0
 11 22  1  0  0  0  0
 12 20  2  0  0  0  0
 12 21  1  0  0  0  0
 13 21  1  0  0  0  0
 13 23  2  0  0  0  0
 16 17  1  0  0  0  0
 16 18  1  0  0  0  0
 17 22  1  0  0  0  0
 18 24  1  0  0  0  0
  1 25  1  0  0  0  0
  2 26  1  0  0  0  0
  3 27  1  0  0  0  0
  4 28  1  0  0  0  0
  5 29  1  0  0  0  0
 12 30  1  0  0  0  0
 14 31  1  0  0  0  0
 14 32  1  0  0  0  0
 14 33  1  0  0  0  0
 15 34  1  0  0  0  0
 15 35  1  0  0  0  0
 15 36  1  0  0  0  0
 16 37  1  0  0  0  0
 16 38  1  0  0  0  0
 17 39  1  0  0  0  0
 17 40  1  0  0  0  0
 18 41  1  0  0  0  0
 18 42  1  0  0  0  0
 21 43  1  0  0  0  0
 22 44  1  0  0  0  0
M  END
> <POSIT::Probability>
0.33

> <POSIT::Method>
HYBRID

> <ReceptorTitle>
UCSF-P4599-REFINED_LIGAND-BOUND-STATE_A__DU__LA1_A-201(A)

> <OMEGA_C>
0E1Twldy4sHj5xFBR4BXwsDr38FjGARBeHFPwvLh6cH6tQtBHmE6wpwQ7sHyW3lAbmA+wl0D68Go
TM1AVOU2wm8L7cELM59AR9ZXwuLT5MHzL+BAecdPwhTK7sEja+9ACdw4wtJ668FDpshA4/lTwo9D
7ME3zNNAAc8/wgR37cE5NoVA52swwqLs6sEyr+VACAkxwgKW7cF+6ZhAzFxcwnME4sHPF8NAHZtL
whK69sFKv+JARulLwk/d78EexIdAI79Iwq3X6sESlkZA1qlRwl/c68HP/IlA/+VBwlX368GzpaxA
b4I1wuFn6sE7i+xA9hcuwulw7MGKM75AmFhDwl2B7sHqB0RAMhMvwnDv7sFuxWpA4ExUwq8T8cHt
eKxArAtTwtKi3sGOeyFBOn5awtYf2sH8EQlBmDBMwv/N68HmlBZBROs4wj5I78HKrzhAIjJAwnzR
6cEnfexAr38twkwr6sEi1/9AvVJbwvk/28EmVq5AsetfwvCl38GVV9VA9WZdwk7g6MFF365Ac71M
wjzb/sH4ZOxAu8NHwvb29MEQNvJA1AZLwnqd9sFt+b9Aa+pJwmsX7sG1OKZAiulLwpWd+MFC2YRA
+ZNKwqua7MGWhAhARJxIwiwm4sFaYU5AmNZTwjup7cEG7VhAX8dRwos548Hspo9AZAoqwty47MEk
M7xA595Bwur78cHogg9A

> <OMEGA_E>
iz0GwQ==

> <OMEGA_NBR>
      5800

$$$$
CACHE3HI_1689_60
  -OEChem-03092622523D

 39 40  0     0  0  0  0  0  0999 V2000
  -48.4364  -29.5827    7.2972 C   0  0  0  0  0  0  0  0  0  0  0  0
  -47.9592  -29.0141    6.1163 C   0  0  0  0  0  0  0  0  0  0  0  0
  -49.6514  -30.2678    7.2995 C   0  0  0  0  0  0  0  0  0  0  0  0
  -49.9114  -29.8159    4.9401 C   0  0  0  0  0  0  0  0  0  0  0  0
  -48.6965  -29.1308    4.9378 C   0  0  0  0  0  0  0  0  0  0  0  0
  -50.3887  -30.3845    6.1210 C   0  0  0  0  0  0  0  0  0  0  0  0
  -43.9505  -29.9877    2.8236 C   0  0  0  0  0  0  0  0  0  0  0  0
  -42.6294  -28.4725    1.8271 C   0  0  0  0  0  0  0  0  0  0  0  0
  -41.8249  -29.7358    3.4979 C   0  0  0  0  0  0  0  0  0  0  0  0
  -47.3119  -29.4590    2.8645 C   0  0  0  0  0  0  0  0  0  0  0  0
  -51.4581  -32.3881    8.0881 C   0  0  0  0  0  0  0  0  0  0  0  0
  -48.1853  -28.5227    3.6757 C   0  0  0  0  0  0  0  0  0  0  0  0
  -51.6876  -31.1173    6.1242 C   0  0  0  0  0  0  0  0  0  0  0  0
  -45.2804  -30.6707    2.9472 C   0  0  0  0  0  0  0  0  0  0  0  0
  -43.8459  -29.0380    1.8801 N   0  0  0  0  0  0  0  0  0  0  0  0
  -42.9857  -30.3893    3.6671 N   0  0  0  0  0  0  0  0  0  0  0  0
  -41.5731  -28.7685    2.6014 N   0  0  0  0  0  0  0  0  0  0  0  0
  -42.4424  -27.4622    0.8585 N   0  0  0  0  0  0  0  0  0  0  0  0
  -40.7608  -30.1026    4.3503 N   0  0  0  0  0  0  0  0  0  0  0  0
  -47.5687  -29.8548    1.7358 O   0  0  0  0  0  0  0  0  0  0  0  0
  -46.2019  -29.7857    3.5926 O   0  0  0  0  0  0  0  0  0  0  0  0
  -52.1241  -31.2985    7.4655 O   0  0  0  0  0  0  0  0  0  0  0  0
  -47.8623  -29.4919    8.2147 H   0  0  0  0  0  0  0  0  0  0  0  0
  -47.0116  -28.4820    6.1238 H   0  0  0  0  0  0  0  0  0  0  0  0
  -50.0157  -30.7077    8.2241 H   0  0  0  0  0  0  0  0  0  0  0  0
  -50.4863  -29.9069    4.0215 H   0  0  0  0  0  0  0  0  0  0  0  0
  -51.8172  -32.4977    9.1147 H   0  0  0  0  0  0  0  0  0  0  0  0
  -51.6730  -33.3023    7.5296 H   0  0  0  0  0  0  0  0  0  0  0  0
  -50.3807  -32.2073    8.0853 H   0  0  0  0  0  0  0  0  0  0  0  0
  -47.5954  -27.6191    3.9009 H   0  0  0  0  0  0  0  0  0  0  0  0
  -49.0275  -28.2053    3.0398 H   0  0  0  0  0  0  0  0  0  0  0  0
  -52.4596  -30.5623    5.5745 H   0  0  0  0  0  0  0  0  0  0  0  0
  -51.5900  -32.1034    5.6490 H   0  0  0  0  0  0  0  0  0  0  0  0
  -45.6732  -30.9401    1.9611 H   0  0  0  0  0  0  0  0  0  0  0  0
  -45.1931  -31.5900    3.5373 H   0  0  0  0  0  0  0  0  0  0  0  0
  -43.1880  -27.2495    0.2286 H   0  0  0  0  0  0  0  0  0  0  0  0
  -41.5371  -27.0537    0.7512 H   0  0  0  0  0  0  0  0  0  0  0  0
  -40.9234  -30.7803    5.0661 H   0  0  0  0  0  0  0  0  0  0  0  0
  -39.8973  -29.6036    4.2919 H   0  0  0  0  0  0  0  0  0  0  0  0
  1  2  1  0  0  0  0
  1  3  2  0  0  0  0
  2  5  2  0  0  0  0
  3  6  1  0  0  0  0
  4  5  1  0  0  0  0
  4  6  2  0  0  0  0
  5 12  1  0  0  0  0
  6 13  1  0  0  0  0
  7 14  1  0  0  0  0
  7 15  2  0  0  0  0
  7 16  1  0  0  0  0
  8 15  1  0  0  0  0
  8 17  2  0  0  0  0
  8 18  1  0  0  0  0
  9 16  2  0  0  0  0
  9 17  1  0  0  0  0
  9 19  1  0  0  0  0
 10 12  1  0  0  0  0
 10 20  2  0  0  0  0
 10 21  1  0  0  0  0
 11 22  1  0  0  0  0
 13 22  1  0  0  0  0
 14 21  1  0  0  0  0
  1 23  1  0  0  0  0
  2 24  1  0  0  0  0
  3 25  1  0  0  0  0
  4 26  1  0  0  0  0
 11 27  1  0  0  0  0
 11 28  1  0  0  0  0
 11 29  1  0  0  0  0
 12 30  1  0  0  0  0
 12 31  1  0  0  0  0
 13 32  1  0  0  0  0
 13 33  1  0  0  0  0
 14 34  1  0  0  0  0
 14 35  1  0  0  0  0
 18 36  1  0  0  0  0
 18 37  1  0  0  0  0
 19 38  1  0  0  0  0
 19 39  1  0  0  0  0
M  END
> <POSIT::Probability>
0.05

> <POSIT::Method>
FRED

> <ReceptorTitle>
UCSF-P4599-REFINED_LIGAND-BOUND-STATE_A__DU__LA1_A-201(A)

> <OMEGA_C>
675Bwmqp7MHygulANNY/wvMc6MGeuMNABJtGwn4k8sEnlelAUaVHwgmH7sHqFJ5AK8lCwuUL6cGA
Ap5A+41JwnET88EI38NARc0vwtjm78FLtjRAfIQqwqjH48Hk3ek/v0wnwuPi7cEv3l9AWT89wgis
68EuVDdAENVNwmeNAcLVaAFBtb1Awmgu5MFlPmtAEcBOwkLw+MFX+cNAIx81wpVd9cGonzxAOWIv
wuBN6MEGp/A/W/Erwlkd88FwsmpA5Eomwtsl5sFgfSZA/MQpwpKy28H0yFs/BwsjwijS8MHrNYtA
ZUY+wrrW7sFgLd4/ys44witJ7sG57WVACX9Qwlpj+sGv5e5AAXM/wmPv68FCbwNB5As8whzb48FN
9sNAHBBIwlWp9cG2lQNB+/FJwk1B78HOr4BA1ERPwqv9AcKn1RFBIrFOwpU1BcKt8vBA2IVJwj7U
AMIxXQFBumE+wgL03MHbp3lAJxxEwnOk4cF3jEJAndZRwoF/9MElYrJAKFxOwu1pAMLhxLRAaLE2
wmeF98FGBvs/xcU0wka4/MFwYmJAgMAswvD+2cEPG2o+8SUmwvFt2MEMUUA/l7Ejwgw+9sF/HaJA
1ZYfwiTU7MHjVolA

> <OMEGA_E>
NgMfwQ==

> <OMEGA_NBR>
      7066

$$$$
CACHE3HI_1689_93
  -OEChem-03092622523D

 42 45  0     0  0  0  0  0  0999 V2000
  -53.2904  -26.9253    8.9377 C   0  0  0  0  0  0  0  0  0  0  0  0
  -53.9538  -26.5658   10.1263 C   0  0  0  0  0  0  0  0  0  0  0  0
  -48.1396  -29.6278    7.9159 C   0  0  0  0  0  0  0  0  0  0  0  0
  -47.2025  -29.5716    5.4321 C   0  0  0  0  0  0  0  0  0  0  0  0
  -53.9880  -28.0129    8.4715 C   0  0  0  0  0  0  0  0  0  0  0  0
  -48.9827  -29.7824    6.8372 C   0  0  0  0  0  0  0  0  0  0  0  0
  -46.3352  -29.4138    6.5054 C   0  0  0  0  0  0  0  0  0  0  0  0
  -44.5761  -29.2108    4.9225 C   0  0  0  0  0  0  0  0  0  0  0  0
  -46.6702  -29.5386    4.0465 C   0  0  0  0  0  0  0  0  0  0  0  0
  -51.2684  -30.1373    5.9539 C   0  0  0  0  0  0  0  0  0  0  0  0
  -50.9139  -29.3911    8.3097 C   0  0  0  0  0  0  0  0  0  0  0  0
  -52.5761  -30.7924    6.4074 C   0  0  0  0  0  0  0  0  0  0  0  0
  -52.2366  -30.0709    8.6748 C   0  0  0  0  0  0  0  0  0  0  0  0
  -55.9918  -29.2673    9.3222 C   0  0  0  0  0  0  0  0  0  0  0  0
  -53.7903  -28.8616    7.2484 C   0  0  0  0  0  0  0  0  0  0  0  0
  -46.8098  -29.4420    7.7688 N   0  0  0  0  0  0  0  0  0  0  0  0
  -54.9925  -27.3602   10.3979 N   0  0  0  0  0  0  0  0  0  0  0  0
  -48.5305  -29.7574    5.5695 N   0  0  0  0  0  0  0  0  0  0  0  0
  -45.3090  -29.3485    3.8630 N   0  0  0  0  0  0  0  0  0  0  0  0
  -54.9876  -28.2302    9.3737 N   0  0  0  0  0  0  0  0  0  0  0  0
  -44.9761  -29.2282    6.2291 N   0  0  0  0  0  0  0  0  0  0  0  0
  -50.3490  -29.9702    7.0838 N   0  0  0  0  0  0  0  0  0  0  0  0
  -53.1982  -30.1570    7.5719 N   0  0  0  0  0  0  0  0  0  0  0  0
  -47.4618  -29.6818    3.1198 O   0  0  0  0  0  0  0  0  0  0  0  0
  -52.4275  -26.4591    8.4846 H   0  0  0  0  0  0  0  0  0  0  0  0
  -53.7235  -25.7577   10.8054 H   0  0  0  0  0  0  0  0  0  0  0  0
  -48.4942  -29.6463    8.9401 H   0  0  0  0  0  0  0  0  0  0  0  0
  -43.4902  -29.0583    4.8180 H   0  0  0  0  0  0  0  0  0  0  0  0
  -50.8077  -30.7647    5.1805 H   0  0  0  0  0  0  0  0  0  0  0  0
  -51.4814  -29.1585    5.5031 H   0  0  0  0  0  0  0  0  0  0  0  0
  -51.0777  -28.3143    8.1671 H   0  0  0  0  0  0  0  0  0  0  0  0
  -50.2108  -29.5119    9.1435 H   0  0  0  0  0  0  0  0  0  0  0  0
  -53.2813  -30.7648    5.5507 H   0  0  0  0  0  0  0  0  0  0  0  0
  -52.3941  -31.8725    6.6014 H   0  0  0  0  0  0  0  0  0  0  0  0
  -52.0243  -31.0816    9.0885 H   0  0  0  0  0  0  0  0  0  0  0  0
  -52.6874  -29.5018    9.5148 H   0  0  0  0  0  0  0  0  0  0  0  0
  -55.6491  -30.1697    9.8397 H   0  0  0  0  0  0  0  0  0  0  0  0
  -56.2158  -29.5203    8.2812 H   0  0  0  0  0  0  0  0  0  0  0  0
  -56.9145  -28.9427    9.8143 H   0  0  0  0  0  0  0  0  0  0  0  0
  -54.7463  -29.0434    6.7462 H   0  0  0  0  0  0  0  0  0  0  0  0
  -53.1335  -28.3642    6.5272 H   0  0  0  0  0  0  0  0  0  0  0  0
  -44.3353  -29.1132    7.0039 H   0  0  0  0  0  0  0  0  0  0  0  0
  1  2  1  0  0  0  0
  1  5  2  0  0  0  0
  2 17  2  0  0  0  0
  3  6  1  0  0  0  0
  3 16  2  0  0  0  0
  4  7  2  0  0  0  0
  4  9  1  0  0  0  0
  4 18  1  0  0  0  0
  5 15  1  0  0  0  0
  5 20  1  0  0  0  0
  6 18  2  0  0  0  0
  6 22  1  0  0  0  0
  7 16  1  0  0  0  0
  7 21  1  0  0  0  0
  8 19  2  0  0  0  0
  8 21  1  0  0  0  0
  9 19  1  0  0  0  0
  9 24  2  0  0  0  0
 10 12  1  0  0  0  0
 10 22  1  0  0  0  0
 11 13  1  0  0  0  0
 11 22  1  0  0  0  0
 12 23  1  0  0  0  0
 13 23  1  0  0  0  0
 14 20  1  0  0  0  0
 15 23  1  0  0  0  0
 17 20  1  0  0  0  0
  1 25  1  0  0  0  0
  2 26  1  0  0  0  0
  3 27  1  0  0  0  0
  8 28  1  0  0  0  0
 10 29  1  0  0  0  0
 10 30  1  0  0  0  0
 11 31  1  0  0  0  0
 11 32  1  0  0  0  0
 12 33  1  0  0  0  0
 12 34  1  0  0  0  0
 13 35  1  0  0  0  0
 13 36  1  0  0  0  0
 14 37  1  0  0  0  0
 14 38  1  0  0  0  0
 14 39  1  0  0  0  0
 15 40  1  0  0  0  0
 15 41  1  0  0  0  0
 21 42  1  0  0  0  0
M  END
> <POSIT::Probability>
0.23

> <POSIT::Method>
HYBRID

> <ReceptorTitle>
UCSF-P4599-REFINED_LIGAND-BOUND-STATE_A__DU__LA1_A-201(A)

> <OMEGA_C>
aylVwuxm18H2AA9Bp9BXwteG1MFlBSJB845Aws4F7cEWT/1AYM88wpOS7MH3061Aw/NXwoUa4MF3
iwdBPO5DwkVC7sE4ytpANlc5wnxP68H5K9BA8k0ywrOv6cEjhZ1AQK46wgtP7MGKfIFA0hJNwhoZ
8cE/hr5AzKdLwhMh68Gq9ARB9U1SwsVW9sGyCc1ARvJQwi6R8MEDzApBoPdfwoQj6sHkJxVBUSlX
wqTk5sH68udAQD07wkSJ68EqmvhAV/hbwsXh2sHSXSZBNR9CwjEP7sFuObJAbDw1wqXJ6sH2OndA
VvNbwmvX4cGN+hVBfuczwkjT6cG3VMdAaGVJwvrC78HRruJA9spUwpJB8cFETfJA1dg9wkt07cGM
q0dAu7VRwkis08EdwQdB4eRWwrYPzsER4yxBD/pBwpAr7cHICg9B/fUtwnl36MFdLZpADTtLwhYe
9sGAxqVAAO1NwqFE6cF+GbBAkk9MwsOD4sGDrAJB2NdIwmIY7MG3SxJBGCBVwlIe9sH+nrFAj5NR
wuf6/sG8PtNA4BhQwiqn+MFoahFB7b9SwqMD7MGwPBhBs5hewoJb8cF2bx1B8txgwo4p7MHsfwRB
cahjwpqK58GABx1BP/xawu5Y6MEX4ddAtohUwt/p4sH33tBAWlcxwuDn6MGSH+BA

> <OMEGA_E>
5HK3wA==

> <OMEGA_NBR>
      8404

$$$$
CACHE3HI_1690_96
  -OEChem-03092622523D

 41 42  0     1  0  0  0  0  0999 V2000
  -46.9204  -29.7142    6.2928 C   0  0  0  0  0  0  0  0  0  0  0  0
  -49.0893  -29.9422    6.3505 C   0  0  0  0  0  0  0  0  0  0  0  0
  -50.3848  -30.1023    5.7915 C   0  0  0  0  0  0  0  0  0  0  0  0
  -50.5197  -30.1724    4.4558 C   0  0  0  0  0  0  0  0  0  0  0  0
  -49.3703  -30.0877    3.5695 C   0  0  0  0  0  0  0  0  0  0  0  0
  -48.1273  -29.9353    4.0760 C   0  0  0  0  0  0  0  0  0  0  0  0
  -42.6231  -31.3884    0.5902 C   0  0  0  0  0  0  0  0  0  0  0  0
  -43.2648  -27.7481    0.5988 C   0  0  0  0  0  0  0  0  0  0  0  0
  -43.0618  -30.0853    4.2686 C   0  0  0  0  0  0  0  0  0  0  0  0
  -43.9569  -30.6992    0.3311 C   0  0  0  0  0  0  0  0  0  0  0  0
  -43.5241  -28.6656    1.7849 C   0  0  0  0  0  0  0  0  0  0  0  0
  -45.6762  -30.1053    3.8347 C   0  0  0  0  0  0  0  0  0  0  0  0
  -44.4695  -29.8668    1.5322 C   0  0  0  0  0  0  0  0  0  0  0  0
  -44.7588  -30.7426    2.7810 C   0  0  1  0  0  0  0  0  0  0  0  0
  -47.2916  -29.7023    7.5532 N   0  0  0  0  0  0  0  0  0  0  0  0
  -48.6601  -29.8458    7.5909 N   0  0  0  0  0  0  0  0  0  0  0  0
  -48.0112  -29.8641    5.4756 N   0  0  0  0  0  0  0  0  0  0  0  0
  -47.0139  -29.8485    3.3184 N   0  0  0  0  0  0  0  0  0  0  0  0
  -43.5327  -31.1127    3.4109 O   0  0  0  0  0  0  0  0  0  0  0  0
  -45.9061  -29.6213    5.9316 H   0  0  0  0  0  0  0  0  0  0  0  0
  -51.2472  -30.1661    6.4452 H   0  0  0  0  0  0  0  0  0  0  0  0
  -51.4975  -30.2948    4.0026 H   0  0  0  0  0  0  0  0  0  0  0  0
  -49.5503  -30.1511    2.5016 H   0  0  0  0  0  0  0  0  0  0  0  0
  -41.8587  -30.6436    0.8302 H   0  0  0  0  0  0  0  0  0  0  0  0
  -42.6865  -32.0795    1.4355 H   0  0  0  0  0  0  0  0  0  0  0  0
  -42.2896  -31.9444   -0.2911 H   0  0  0  0  0  0  0  0  0  0  0  0
  -42.8439  -28.2935   -0.2508 H   0  0  0  0  0  0  0  0  0  0  0  0
  -44.1748  -27.2377    0.2730 H   0  0  0  0  0  0  0  0  0  0  0  0
  -42.5388  -26.9784    0.8797 H   0  0  0  0  0  0  0  0  0  0  0  0
  -42.1240  -30.3990    4.7342 H   0  0  0  0  0  0  0  0  0  0  0  0
  -42.8891  -29.1814    3.6794 H   0  0  0  0  0  0  0  0  0  0  0  0
  -43.8109  -29.8789    5.0365 H   0  0  0  0  0  0  0  0  0  0  0  0
  -44.6949  -31.4752    0.0948 H   0  0  0  0  0  0  0  0  0  0  0  0
  -43.8616  -30.0748   -0.5640 H   0  0  0  0  0  0  0  0  0  0  0  0
  -43.9432  -28.0599    2.5976 H   0  0  0  0  0  0  0  0  0  0  0  0
  -42.5605  -29.0286    2.1631 H   0  0  0  0  0  0  0  0  0  0  0  0
  -45.2396  -29.1771    4.2186 H   0  0  0  0  0  0  0  0  0  0  0  0
  -45.7484  -30.7740    4.6998 H   0  0  0  0  0  0  0  0  0  0  0  0
  -45.4277  -29.4258    1.2222 H   0  0  0  0  0  0  0  0  0  0  0  0
  -45.2289  -31.6758    2.4469 H   0  0  0  0  0  0  0  0  0  0  0  0
  -47.0966  -29.5983    2.3499 H   0  0  0  0  0  0  0  0  0  0  0  0
  1 15  2  0  0  0  0
  1 17  1  0  0  0  0
  2  3  1  0  0  0  0
  2 16  2  0  0  0  0
  2 17  1  0  0  0  0
  3  4  2  0  0  0  0
  4  5  1  0  0  0  0
  5  6  2  0  0  0  0
  6 17  1  0  0  0  0
  6 18  1  0  0  0  0
  7 10  1  0  0  0  0
  8 11  1  0  0  0  0
  9 19  1  0  0  0  0
 10 13  1  0  0  0  0
 11 13  1  0  0  0  0
 12 14  1  0  0  0  0
 12 18  1  0  0  0  0
 13 14  1  0  0  0  0
 14 19  1  0  0  0  0
 15 16  1  0  0  0  0
  1 20  1  0  0  0  0
  3 21  1  0  0  0  0
  4 22  1  0  0  0  0
  5 23  1  0  0  0  0
  7 24  1  0  0  0  0
  7 25  1  0  0  0  0
  7 26  1  0  0  0  0
  8 27  1  0  0  0  0
  8 28  1  0  0  0  0
  8 29  1  0  0  0  0
  9 30  1  0  0  0  0
  9 31  1  0  0  0  0
  9 32  1  0  0  0  0
 10 33  1  0  0  0  0
 10 34  1  0  0  0  0
 11 35  1  0  0  0  0
 11 36  1  0  0  0  0
 12 37  1  0  0  0  0
 12 38  1  0  0  0  0
 13 39  1  0  0  0  0
 14 40  1  0  0  0  0
 18 41  1  0  0  0  0
M  END
> <POSIT::Probability>
0.05

> <POSIT::Method>
FRED

> <ReceptorTitle>
UCSF-P4599-REFINED_LIGAND-BOUND-STATE_A__DU__LA1_A-201(A)

> <OMEGA_C>
fq47wsC27cHlXslAd1tEwpuJ78GPN8tADIpJwpTR8MHoU7lAJhRKwvpg8cHSlY5AMHtFwo6z8MFO
c2RAVoJAwnV778HHboJAEH4qwmQb+8H4FRc/LQ8twgj83cEkSRk/VD8swp+u8ME0mIhA2tMvwgSY
9cH4hqk+pRguwjVT5cFKduQ/YbQ2wsDX8ME/a3VAzuAxwiLv7sEYH8Q/+Agzwubw9cFh/DFAoyo9
wjee7cGos/FA86NCwkPE7sGy6PJAhQtAwpXp7sHLN69ANA48ws3J7sFIYVRAfCEuwt/m+MFsS1pA
zJ83wlT47MHPz71AIP1Mwj1U8cGvPs5Ad/1Nwstb8sFUFYBAfTNGwm418cEWGiBAVm8nwv4l9cHo
hVQ/Bb8qwnNRAMJYvbc/jSgpwi6O/8EYDJW+JmArwhFZ4sG4YoC+9LIwwtLm2cEwxYs+tycqwtbT
18E0MWE/9X4owhYx88HyfpdAcY4rwoVz6cF8e2tAXj4vwuQH78ERK6FAmMcywh3N+8HAN8I9PnIv
wkaZ8MEcYxC/08Uvwqp64MFbPyZA+T0qwnw66MGbbwpATfU0wsJq6cGC/oZAUP42whYx9sHBZJZA
7rU1wvRn68E4cpw/Zeo0wvZn/cGsmRxA82I8wjvJ7MFCZRZA

> <OMEGA_E>
L/r3wA==

> <OMEGA_NBR>
      9714

$$$$
CACHE3HI_1694_46
  -OEChem-03092622523D

 38 39  0     1  0  0  0  0  0999 V2000
  -49.6660  -29.4639    5.0716 C   0  0  0  0  0  0  0  0  0  0  0  0
  -48.5348  -29.1903    5.8405 C   0  0  0  0  0  0  0  0  0  0  0  0
  -49.5330  -29.7451    3.7119 C   0  0  0  0  0  0  0  0  0  0  0  0
  -47.2709  -29.1983    5.2501 C   0  0  0  0  0  0  0  0  0  0  0  0
  -48.2692  -29.7531    3.1215 C   0  0  0  0  0  0  0  0  0  0  0  0
  -44.4354  -34.0205    1.1296 C   0  0  0  0  0  0  0  0  0  0  0  0
  -43.9600  -32.2323    2.4742 C   0  0  0  0  0  0  0  0  0  0  0  0
  -47.1380  -29.4796    3.8904 C   0  0  0  0  0  0  0  0  0  0  0  0
  -44.3091  -33.2176    0.0171 C   0  0  0  0  0  0  0  0  0  0  0  0
  -43.8336  -31.4295    1.3615 C   0  0  0  0  0  0  0  0  0  0  0  0
  -44.5065  -33.7802   -1.3472 C   0  0  0  0  0  0  0  0  0  0  0  0
  -45.7715  -29.4883    3.2515 C   0  0  0  0  0  0  0  0  0  0  0  0
  -45.7746  -29.0880    1.7685 C   0  0  0  0  0  0  0  0  0  0  0  0
  -43.6934  -27.6802    1.4185 C   0  0  0  0  0  0  0  0  0  0  0  0
  -44.3854  -29.0107    1.0991 C   0  0  1  0  0  0  0  0  0  0  0  0
  -44.2632  -33.5426    2.3780 N   0  0  0  0  0  0  0  0  0  0  0  0
  -44.0060  -31.9073    0.1133 N   0  0  0  0  0  0  0  0  0  0  0  0
  -43.5222  -30.1031    1.5464 N   0  0  0  0  0  0  0  0  0  0  0  0
  -42.6675  -27.4297    0.4653 O   0  0  0  0  0  0  0  0  0  0  0  0
  -50.6500  -29.4576    5.5311 H   0  0  0  0  0  0  0  0  0  0  0  0
  -48.6381  -28.9717    6.8993 H   0  0  0  0  0  0  0  0  0  0  0  0
  -50.4137  -29.9579    3.1130 H   0  0  0  0  0  0  0  0  0  0  0  0
  -46.3954  -28.9839    5.8572 H   0  0  0  0  0  0  0  0  0  0  0  0
  -48.1756  -29.9744    2.0616 H   0  0  0  0  0  0  0  0  0  0  0  0
  -44.6788  -35.0742    1.0600 H   0  0  0  0  0  0  0  0  0  0  0  0
  -43.8237  -31.8584    3.4825 H   0  0  0  0  0  0  0  0  0  0  0  0
  -45.5558  -33.7051   -1.6645 H   0  0  0  0  0  0  0  0  0  0  0  0
  -44.2411  -34.8461   -1.3834 H   0  0  0  0  0  0  0  0  0  0  0  0
  -43.8857  -33.2447   -2.0773 H   0  0  0  0  0  0  0  0  0  0  0  0
  -45.1346  -28.7847    3.8057 H   0  0  0  0  0  0  0  0  0  0  0  0
  -45.2966  -30.4677    3.3825 H   0  0  0  0  0  0  0  0  0  0  0  0
  -46.4042  -29.7936    1.2130 H   0  0  0  0  0  0  0  0  0  0  0  0
  -46.2694  -28.1107    1.6829 H   0  0  0  0  0  0  0  0  0  0  0  0
  -44.4029  -26.8452    1.3945 H   0  0  0  0  0  0  0  0  0  0  0  0
  -43.2257  -27.7112    2.4088 H   0  0  0  0  0  0  0  0  0  0  0  0
  -44.5126  -29.0766    0.0124 H   0  0  0  0  0  0  0  0  0  0  0  0
  -42.6652  -29.8516    2.0081 H   0  0  0  0  0  0  0  0  0  0  0  0
  -42.2620  -26.5824    0.7085 H   0  0  0  0  0  0  0  0  0  0  0  0
  1  2  1  0  0  0  0
  1  3  2  0  0  0  0
  2  4  2  0  0  0  0
  3  5  1  0  0  0  0
  4  8  1  0  0  0  0
  5  8  2  0  0  0  0
  6  9  1  0  0  0  0
  6 16  2  0  0  0  0
  7 10  2  0  0  0  0
  7 16  1  0  0  0  0
  8 12  1  0  0  0  0
  9 11  1  0  0  0  0
  9 17  2  0  0  0  0
 10 17  1  0  0  0  0
 10 18  1  0  0  0  0
 12 13  1  0  0  0  0
 13 15  1  0  0  0  0
 14 15  1  0  0  0  0
 14 19  1  0  0  0  0
 15 18  1  0  0  0  0
  1 20  1  0  0  0  0
  2 21  1  0  0  0  0
  3 22  1  0  0  0  0
  4 23  1  0  0  0  0
  5 24  1  0  0  0  0
  6 25  1  0  0  0  0
  7 26  1  0  0  0  0
 11 27  1  0  0  0  0
 11 28  1  0  0  0  0
 11 29  1  0  0  0  0
 12 30  1  0  0  0  0
 12 31  1  0  0  0  0
 13 32  1  0  0  0  0
 13 33  1  0  0  0  0
 14 34  1  0  0  0  0
 14 35  1  0  0  0  0
 15 36  1  0  0  0  0
 18 37  1  0  0  0  0
 19 38  1  0  0  0  0
M  END
> <POSIT::Probability>
0.02

> <POSIT::Method>
FRED

> <ReceptorTitle>
UCSF-P4599-REFINED_LIGAND-BOUND-STATE_A__DU__LA1_A-201(A)

> <OMEGA_C>
/qlGwga268ExSqJApCNCwtOF6cFJ5bpA1iFGwg327cHaj21AchU9wiyW6cGhAKhAoxNBwmUG7sGG
xkdA3b0xwvwUCMIomJA/FtcvwuvtAMJzWR5AT408wjnW68HQ+3hAejwxwtfeBMIAW4w8olUvwrFv
+8HMRK4/nQYywvUeB8KQb6y/BRY3wvjn68HtGFBAKBk3wii06MGWXOI//sUuwvhw3cEIkLU/qYox
wvQV6MGkr4w/gw0xwqcrBsJfMRhALAYwwjRC/8GACOg9tRYuwg/T8MFo8MU/g6sqwhpw28GwO+4+
kJlKwkCp68H2/rBAdo1CwhDG58EGx9xAmadJwtyp78FMO0dA35Q5wgff58F2brtAyLNAwo3L78Em
8QNAJLcywvdLDMK8rIc/dksvwufd/sGF4V5AHDk2wg3SBsL0DdW/6PYwwmViC8I8FLG/8IovwpT6
BMLy8gTA34k0whJH5sE0kXNAwi81wt2988E+e1hA5Z05wmFZ7sHcRJs/0RM5wq/i4MEKatc/iJwx
wg3D1sHEf7I/HucswqKw3cG1KRpA4Awywuec6MEAuko8NKkqwg3Q7sHPhABAQAwpwq6o1MGYYTU/

> <OMEGA_E>
wAIOwQ==

> <OMEGA_NBR>
     10964

$$$$
CACHE3HI_1695_93
  -OEChem-03092622523D

 47 49  0     1  0  0  0  0  0999 V2000
  -46.0759  -35.6797   -0.4358 C   0  0  0  0  0  0  0  0  0  0  0  0
  -49.6235  -29.0928    2.5576 C   0  0  0  0  0  0  0  0  0  0  0  0
  -44.7401  -34.4368    1.1924 C   0  0  0  0  0  0  0  0  0  0  0  0
  -45.1791  -33.4701   -0.9779 C   0  0  0  0  0  0  0  0  0  0  0  0
  -49.4571  -30.1882    1.7102 C   0  0  0  0  0  0  0  0  0  0  0  0
  -48.7417  -28.8932    3.6198 C   0  0  0  0  0  0  0  0  0  0  0  0
  -44.0080  -33.3041    1.5482 C   0  0  0  0  0  0  0  0  0  0  0  0
  -44.4470  -32.3373   -0.6222 C   0  0  0  0  0  0  0  0  0  0  0  0
  -47.5273  -30.8840    2.9867 C   0  0  0  0  0  0  0  0  0  0  0  0
  -45.3257  -34.5197   -0.0708 C   0  0  0  0  0  0  0  0  0  0  0  0
  -48.4091  -31.0836    1.9246 C   0  0  0  0  0  0  0  0  0  0  0  0
  -47.6937  -29.7887    3.8342 C   0  0  0  0  0  0  0  0  0  0  0  0
  -43.8613  -32.2545    0.6410 C   0  0  0  0  0  0  0  0  0  0  0  0
  -47.1395  -29.5432    6.2174 C   0  0  0  0  0  0  0  0  0  0  0  0
  -45.4637  -29.4017    4.8456 C   0  0  0  0  0  0  0  0  0  0  0  0
  -48.2323  -32.2546    1.0180 C   0  0  0  0  0  0  0  0  0  0  0  0
  -48.5157  -29.7027    6.7258 C   0  0  0  0  0  0  0  0  0  0  0  0
  -42.0779  -31.3317    1.9157 C   0  0  0  0  0  0  0  0  0  0  0  0
  -42.9053  -30.0083    3.9151 C   0  0  0  0  0  0  0  0  0  0  0  0
  -41.8885  -30.0798    2.7739 C   0  0  1  0  0  0  0  0  0  0  0  0
  -46.6851  -36.6220   -0.7320 N   0  0  0  0  0  0  0  0  0  0  0  0
  -46.0578  -29.3398    6.9357 N   0  0  0  0  0  0  0  0  0  0  0  0
  -44.9915  -29.2500    6.0625 N   0  0  0  0  0  0  0  0  0  0  0  0
  -46.8119  -29.5892    4.8965 N   0  0  0  0  0  0  0  0  0  0  0  0
  -40.5730  -30.1030    3.3287 O   0  0  0  0  0  0  0  0  0  0  0  0
  -43.1420  -31.1419    0.9910 O   0  0  0  0  0  0  0  0  0  0  0  0
  -44.5102  -29.3718    3.3338 S   0  0  0  0  0  0  0  0  0  0  0  0
  -50.4392  -28.3955    2.3909 H   0  0  0  0  0  0  0  0  0  0  0  0
  -44.8453  -35.2466    1.9104 H   0  0  0  0  0  0  0  0  0  0  0  0
  -45.6298  -33.5203   -1.9663 H   0  0  0  0  0  0  0  0  0  0  0  0
  -50.1492  -30.3357    0.8854 H   0  0  0  0  0  0  0  0  0  0  0  0
  -48.8826  -28.0356    4.2732 H   0  0  0  0  0  0  0  0  0  0  0  0
  -43.5540  -33.2449    2.5337 H   0  0  0  0  0  0  0  0  0  0  0  0
  -44.3365  -31.5230   -1.3331 H   0  0  0  0  0  0  0  0  0  0  0  0
  -46.7112  -31.5851    3.1505 H   0  0  0  0  0  0  0  0  0  0  0  0
  -47.5818  -32.0071    0.1688 H   0  0  0  0  0  0  0  0  0  0  0  0
  -49.1927  -32.5817    0.5980 H   0  0  0  0  0  0  0  0  0  0  0  0
  -47.7869  -33.0958    1.5632 H   0  0  0  0  0  0  0  0  0  0  0  0
  -49.0455  -28.7372    6.7982 H   0  0  0  0  0  0  0  0  0  0  0  0
  -48.5345  -30.1373    7.7404 H   0  0  0  0  0  0  0  0  0  0  0  0
  -49.1083  -30.3609    6.0692 H   0  0  0  0  0  0  0  0  0  0  0  0
  -41.1663  -31.5524    1.3514 H   0  0  0  0  0  0  0  0  0  0  0  0
  -42.3290  -32.1939    2.5421 H   0  0  0  0  0  0  0  0  0  0  0  0
  -42.5607  -29.3360    4.7073 H   0  0  0  0  0  0  0  0  0  0  0  0
  -43.0767  -31.0002    4.3452 H   0  0  0  0  0  0  0  0  0  0  0  0
  -41.9662  -29.1979    2.1269 H   0  0  0  0  0  0  0  0  0  0  0  0
  -39.9601  -30.1132    2.5784 H   0  0  0  0  0  0  0  0  0  0  0  0
  1 10  1  0  0  0  0
  1 21  3  0  0  0  0
  2  5  2  0  0  0  0
  2  6  1  0  0  0  0
  3  7  2  0  0  0  0
  3 10  1  0  0  0  0
  4  8  1  0  0  0  0
  4 10  2  0  0  0  0
  5 11  1  0  0  0  0
  6 12  2  0  0  0  0
  7 13  1  0  0  0  0
  8 13  2  0  0  0  0
  9 11  2  0  0  0  0
  9 12  1  0  0  0  0
 11 16  1  0  0  0  0
 12 24  1  0  0  0  0
 13 26  1  0  0  0  0
 14 17  1  0  0  0  0
 14 22  2  0  0  0  0
 14 24  1  0  0  0  0
 15 23  2  0  0  0  0
 15 24  1  0  0  0  0
 15 27  1  0  0  0  0
 18 20  1  0  0  0  0
 18 26  1  0  0  0  0
 19 20  1  0  0  0  0
 19 27  1  0  0  0  0
 20 25  1  0  0  0  0
 22 23  1  0  0  0  0
  2 28  1  0  0  0  0
  3 29  1  0  0  0  0
  4 30  1  0  0  0  0
  5 31  1  0  0  0  0
  6 32  1  0  0  0  0
  7 33  1  0  0  0  0
  8 34  1  0  0  0  0
  9 35  1  0  0  0  0
 16 36  1  0  0  0  0
 16 37  1  0  0  0  0
 16 38  1  0  0  0  0
 17 39  1  0  0  0  0
 17 40  1  0  0  0  0
 17 41  1  0  0  0  0
 18 42  1  0  0  0  0
 18 43  1  0  0  0  0
 19 44  1  0  0  0  0
 19 45  1  0  0  0  0
 20 46  1  0  0  0  0
 25 47  1  0  0  0  0
M  END
> <POSIT::Probability>
0.24

> <POSIT::Method>
FRED

> <ReceptorTitle>
UCSF-P4599-REFINED_LIGAND-BOUND-STATE_A__DU__LA1_A-201(A)

> <OMEGA_C>
rk04wgy4DsLQGt++a35GwhS+6MFYsCNA0fUywlG/CcKpn5g/Yrc0wmHhBcLIWXq/B9RFwmKB8cH0
5to/g/dCwmAl58F5qmdALQgwwlo3BcJaKsY/x8kxwnFZAcJARx+/+Rs+wnQS98HXJj9Aik01wiIU
CsLA+JC95qJBwjir+MHOV/Y/YsY+wjVP7sHmYnVABXIvwpkEAcIUGiQ/3o48woJY7MEo9cZA39o1
wsg268EaD5tA4u1AwqoEAcKRTYI/ChBCwiaf7cHnOddAvk8owmmn+sEqNvU//54rwu4Q8MGkkXpA
xo0nwm6j8MEkiDFAjr06wvJ8EsJcZju/Ojs4wvu36sHc8N1ARvczwvz/6cFUAMJAZz87wpi27MFE
sJxAwEoiwgbT8MHECFVAc5EswrIi+cE8tH0/dAoywmz56sEFXVVAwcFJwv8p48EPBBlAnWEzwov8
DMKsiPQ/6oQ2wsUUBsLMr/u/xphIwoiv8sFIqmI/1IdDwvBI4MHgvYhAUDcuwsj6BMJ+JyJAjVgx
wjQv/MFkoqq/UNg6wjau/MH7oElAzVM+wk8HAMIg5Cw+UMVEwqNTAsIsFBk/ziU/wiNiBMImF8g/
oC5Ewtbl5cGmitlASSNCwigZ8cEKsfdA725Ewgnj8sGMNsJAQKokwmZr/MFr+6w/8lApwpPGAMIf
sSJAKj4qwiGw6sECopZAfk4swmkA+MGsC4tAbd0nwkuV6cHaHwhAG9cfwtrn8MHnAyVA

> <OMEGA_E>
e7b/wA==

> <OMEGA_NBR>
     12397

$$$$
CACHE3HI_1704_57
  -OEChem-03092622523D

 56 58  0     1  0  0  0  0  0999 V2000
  -52.9460  -30.5941    8.0978 C   0  0  0  0  0  0  0  0  0  0  0  0
  -56.1004  -26.2133    3.8941 C   0  0  0  0  0  0  0  0  0  0  0  0
  -51.5743  -30.3607    8.1961 C   0  0  0  0  0  0  0  0  0  0  0  0
  -53.5184  -30.8720    6.8567 C   0  0  0  0  0  0  0  0  0  0  0  0
  -43.5012  -32.2455    0.4295 C   0  0  0  0  0  0  0  0  0  0  0  0
  -55.3609  -26.0613    5.0670 C   0  0  0  0  0  0  0  0  0  0  0  0
  -55.5970  -26.9867    2.8482 C   0  0  0  0  0  0  0  0  0  0  0  0
  -44.8836  -32.4209    0.3668 C   0  0  0  0  0  0  0  0  0  0  0  0
  -50.7751  -30.4054    7.0535 C   0  0  0  0  0  0  0  0  0  0  0  0
  -52.7193  -30.9167    5.7141 C   0  0  0  0  0  0  0  0  0  0  0  0
  -42.9719  -31.0313    0.8666 C   0  0  0  0  0  0  0  0  0  0  0  0
  -54.1184  -26.6826    5.1941 C   0  0  0  0  0  0  0  0  0  0  0  0
  -54.3544  -27.6080    2.9753 C   0  0  0  0  0  0  0  0  0  0  0  0
  -45.7365  -31.3826    0.7414 C   0  0  0  0  0  0  0  0  0  0  0  0
  -51.3476  -30.6833    5.8123 C   0  0  0  0  0  0  0  0  0  0  0  0
  -43.8249  -29.9930    1.2412 C   0  0  0  0  0  0  0  0  0  0  0  0
  -53.6149  -27.4560    4.1482 C   0  0  0  0  0  0  0  0  0  0  0  0
  -45.2072  -30.1683    1.1785 C   0  0  0  0  0  0  0  0  0  0  0  0
  -48.1152  -29.2428    2.7976 C   0  0  0  0  0  0  0  0  0  0  0  0
  -51.7046  -28.8871    3.3417 C   0  0  0  0  0  0  0  0  0  0  0  0
  -43.7023  -27.5185    0.8588 C   0  0  0  0  0  0  0  0  0  0  0  0
  -50.4839  -30.7318    4.5767 C   0  0  0  0  0  0  0  0  0  0  0  0
  -43.2403  -28.7003    1.7063 C   0  0  0  0  0  0  0  0  0  0  0  0
  -47.4467  -29.4146    1.4501 C   0  0  0  0  0  0  0  0  0  0  0  0
  -50.3549  -29.3756    3.8714 C   0  0  1  0  0  0  0  0  0  0  0  0
  -52.3540  -28.0865    4.2766 N   0  0  0  0  0  0  0  0  0  0  0  0
  -49.4815  -29.4746    2.7282 N   0  0  0  0  0  0  0  0  0  0  0  0
  -47.4957  -28.9331    3.8119 O   0  0  0  0  0  0  0  0  0  0  0  0
  -52.1279  -29.2342    2.2425 O   0  0  0  0  0  0  0  0  0  0  0  0
  -46.0621  -29.1549    1.5435 O   0  0  0  0  0  0  0  0  0  0  0  0
  -53.5682  -30.5592    8.9873 H   0  0  0  0  0  0  0  0  0  0  0  0
  -57.0671  -25.7285    3.7948 H   0  0  0  0  0  0  0  0  0  0  0  0
  -51.1283  -30.1447    9.1625 H   0  0  0  0  0  0  0  0  0  0  0  0
  -54.5864  -31.0536    6.7799 H   0  0  0  0  0  0  0  0  0  0  0  0
  -42.8372  -33.0542    0.1383 H   0  0  0  0  0  0  0  0  0  0  0  0
  -55.7519  -25.4580    5.8812 H   0  0  0  0  0  0  0  0  0  0  0  0
  -56.1721  -27.1048    1.9346 H   0  0  0  0  0  0  0  0  0  0  0  0
  -45.2957  -33.3659    0.0251 H   0  0  0  0  0  0  0  0  0  0  0  0
  -49.7073  -30.2221    7.1399 H   0  0  0  0  0  0  0  0  0  0  0  0
  -53.1743  -31.1351    4.7516 H   0  0  0  0  0  0  0  0  0  0  0  0
  -41.8935  -30.9040    0.9123 H   0  0  0  0  0  0  0  0  0  0  0  0
  -53.5510  -26.5556    6.1129 H   0  0  0  0  0  0  0  0  0  0  0  0
  -53.9723  -28.2080    2.1530 H   0  0  0  0  0  0  0  0  0  0  0  0
  -46.8124  -31.5262    0.6905 H   0  0  0  0  0  0  0  0  0  0  0  0
  -44.7949  -27.4396    0.8553 H   0  0  0  0  0  0  0  0  0  0  0  0
  -43.3700  -27.6253   -0.1792 H   0  0  0  0  0  0  0  0  0  0  0  0
  -43.2958  -26.5807    1.2501 H   0  0  0  0  0  0  0  0  0  0  0  0
  -50.8779  -31.4844    3.8800 H   0  0  0  0  0  0  0  0  0  0  0  0
  -49.4899  -31.0976    4.8664 H   0  0  0  0  0  0  0  0  0  0  0  0
  -42.1405  -28.7496    1.6877 H   0  0  0  0  0  0  0  0  0  0  0  0
  -43.5073  -28.5172    2.7590 H   0  0  0  0  0  0  0  0  0  0  0  0
  -47.5980  -30.4345    1.0829 H   0  0  0  0  0  0  0  0  0  0  0  0
  -47.8846  -28.7090    0.7374 H   0  0  0  0  0  0  0  0  0  0  0  0
  -49.9096  -28.6232    4.5322 H   0  0  0  0  0  0  0  0  0  0  0  0
  -51.8649  -27.9367    5.1560 H   0  0  0  0  0  0  0  0  0  0  0  0
  -49.9005  -29.6945    1.8274 H   0  0  0  0  0  0  0  0  0  0  0  0
  1  3  1  0  0  0  0
  1  4  2  0  0  0  0
  2  6  1  0  0  0  0
  2  7  2  0  0  0  0
  3  9  2  0  0  0  0
  4 10  1  0  0  0  0
  5  8  1  0  0  0  0
  5 11  2  0  0  0  0
  6 12  2  0  0  0  0
  7 13  1  0  0  0  0
  8 14  2  0  0  0  0
  9 15  1  0  0  0  0
 10 15  2  0  0  0  0
 11 16  1  0  0  0  0
 12 17  1  0  0  0  0
 13 17  2  0  0  0  0
 14 18  1  0  0  0  0
 15 22  1  0  0  0  0
 16 18  2  0  0  0  0
 16 23  1  0  0  0  0
 17 26  1  0  0  0  0
 18 30  1  0  0  0  0
 19 24  1  0  0  0  0
 19 27  1  0  0  0  0
 19 28  2  0  0  0  0
 20 25  1  0  0  0  0
 20 26  1  0  0  0  0
 20 29  2  0  0  0  0
 21 23  1  0  0  0  0
 22 25  1  0  0  0  0
 24 30  1  0  0  0  0
 25 27  1  0  0  0  0
  1 31  1  0  0  0  0
  2 32  1  0  0  0  0
  3 33  1  0  0  0  0
  4 34  1  0  0  0  0
  5 35  1  0  0  0  0
  6 36  1  0  0  0  0
  7 37  1  0  0  0  0
  8 38  1  0  0  0  0
  9 39  1  0  0  0  0
 10 40  1  0  0  0  0
 11 41  1  0  0  0  0
 12 42  1  0  0  0  0
 13 43  1  0  0  0  0
 14 44  1  0  0  0  0
 21 45  1  0  0  0  0
 21 46  1  0  0  0  0
 21 47  1  0  0  0  0
 22 48  1  0  0  0  0
 22 49  1  0  0  0  0
 23 50  1  0  0  0  0
 23 51  1  0  0  0  0
 24 52  1  0  0  0  0
 24 53  1  0  0  0  0
 25 54  1  0  0  0  0
 26 55  1  0  0  0  0
 27 56  1  0  0  0  0
M  END
> <POSIT::Probability>
0.02

> <POSIT::Method>
FRED

> <ReceptorTitle>
UCSF-P4599-REFINED_LIGAND-BOUND-STATE_A__DU__LA1_A-201(A)

> <OMEGA_C>
qshTwrDA9MHFkAFB0GZgwuu00cFqOXlACUxOwqri8sEYIwNB2RJWwtr59sHWadtANgEuwmz7AMJw
6Ns+h3Fdwo590MEIJaJASGNewq3k18H6SDZAyogzwgOvAcJgzrs+uBlLwk0+88GQtuFAh+BSwn1V
98E42rZAP+MrwjFA+MGY210/MnlYwvx11cFXNqZA82pZwhjd3MGcaz5ANPI2wngP+8GYyj0/82NN
wnx39cGM/rlAqkwvwqXx78F8354/qnVWwsql28GsvYRAMdQ0wr1Y8cFk2ZY/73VAwlPx6cEQCzNA
d9FOwsoY58G23lVAKM8uwsol3MHA11s/ie9JwqLa9cGIdJJAB/YswjCa5cFwZto/ack9wiVR68HQ
nbk/dGtJwjYB68GoxHdAdmpRwiyx4MH52YhADu1Fwg7M68EQmy5Amvs9wvd258HO9nNA+IJQwrzf
6cH8hA9AlD84wlI96cHEkMU/ykVWwkx59MHUyw9BwkRkwgPUzcH23XJAYoNMwkIo8cGlmRJBfFha
wq5t+MFF9dhARlkrwow3BMJgkw0+/gFfwg+qy8GkMrxANrBgwrTW2MFwn/c/0S41wqZ2BcIAxM08
T9RGwubG8cFBeuRAcrJUwqIU+cFjDZhA/ZInwnI798FAjWk/NjRWwtJx1MGSnMNAreNXwuyp4cEk
yglA7D87wsA1/MHgxzA/9C0zwmWE28GQ81o/5notwqAA3cEAiDe+4y4twlSl1MHYAqA/74JLwvjf
+8GkUXhApfVFwu7H+MEsuZtA648owjH/5cH4BNg/hQcuwiMj5MEklDBATmQ+wtZ588GEnYo/14k/
wgKs5cGAxzw/d6NHwkL85MEoCJFArXVPwnR+38G8/aRAJZpHwkqO7cEs6ek/

> <OMEGA_E>
9TLTwA==

> <OMEGA_NBR>
     14010

$$$$
CACHE3HI_1706_53
  -OEChem-03092622523D

 42 44  0     1  0  0  0  0  0999 V2000
  -54.0611  -27.3385    8.4713 C   0  0  0  0  0  0  0  0  0  0  0  0
  -52.0728  -31.0047    8.0152 C   0  0  0  0  0  0  0  0  0  0  0  0
  -50.9628  -30.9758    7.1709 C   0  0  0  0  0  0  0  0  0  0  0  0
  -52.3998  -29.8816    8.7750 C   0  0  0  0  0  0  0  0  0  0  0  0
  -50.5072  -28.7011    7.8459 C   0  0  0  0  0  0  0  0  0  0  0  0
  -44.2814  -29.0785    6.4114 C   0  0  0  0  0  0  0  0  0  0  0  0
  -50.1802  -29.8242    7.0861 C   0  0  0  0  0  0  0  0  0  0  0  0
  -44.1360  -29.2356    5.0443 C   0  0  0  0  0  0  0  0  0  0  0  0
  -51.6171  -28.7300    8.6902 C   0  0  0  0  0  0  0  0  0  0  0  0
  -45.2968  -29.4681    4.3261 C   0  0  0  0  0  0  0  0  0  0  0  0
  -46.5211  -29.4151    6.2553 C   0  0  0  0  0  0  0  0  0  0  0  0
  -42.5724  -29.3975    3.1368 C   0  0  0  0  0  0  0  0  0  0  0  0
  -43.5921  -30.1879    2.3541 C   0  0  0  0  0  0  0  0  0  0  0  0
  -54.8881  -25.8876   11.0146 C   0  0  0  0  0  0  0  0  0  0  0  0
  -48.9855  -29.7936    6.1766 C   0  0  0  0  0  0  0  0  0  0  0  0
  -53.4562  -26.1665   10.5816 C   0  0  0  0  0  0  0  0  0  0  0  0
  -53.3169  -27.4344    9.7339 C   0  0  2  0  0  0  0  0  0  0  0  0
  -54.6502  -27.2640    7.4734 N   0  0  0  0  0  0  0  0  0  0  0  0
  -45.4642  -29.1699    7.0509 N   0  0  0  0  0  0  0  0  0  0  0  0
  -46.5095  -29.5642    4.9162 N   0  0  0  0  0  0  0  0  0  0  0  0
  -42.8723  -29.1029    4.4504 N   0  0  0  0  0  0  0  0  0  0  0  0
  -47.7757  -29.5342    6.8917 N   0  0  0  0  0  0  0  0  0  0  0  0
  -41.4728  -29.1353    2.6439 O   0  0  0  0  0  0  0  0  0  0  0  0
  -51.9367  -27.6338    9.4310 O   0  0  0  0  0  0  0  0  0  0  0  0
  -45.2638  -29.5526    2.5514 S   0  0  0  0  0  0  0  0  0  0  0  0
  -52.6819  -31.9012    8.0812 H   0  0  0  0  0  0  0  0  0  0  0  0
  -50.7150  -31.8553    6.5824 H   0  0  0  0  0  0  0  0  0  0  0  0
  -53.2656  -29.9097    9.4309 H   0  0  0  0  0  0  0  0  0  0  0  0
  -49.8992  -27.8018    7.7824 H   0  0  0  0  0  0  0  0  0  0  0  0
  -43.4326  -28.8624    7.0525 H   0  0  0  0  0  0  0  0  0  0  0  0
  -43.3091  -30.1731    1.2963 H   0  0  0  0  0  0  0  0  0  0  0  0
  -43.5745  -31.2269    2.6976 H   0  0  0  0  0  0  0  0  0  0  0  0
  -55.2899  -26.7474   11.5614 H   0  0  0  0  0  0  0  0  0  0  0  0
  -55.5317  -25.7079   10.1478 H   0  0  0  0  0  0  0  0  0  0  0  0
  -54.9463  -25.0167   11.6745 H   0  0  0  0  0  0  0  0  0  0  0  0
  -48.8717  -30.7505    5.6566 H   0  0  0  0  0  0  0  0  0  0  0  0
  -49.0944  -29.0183    5.4111 H   0  0  0  0  0  0  0  0  0  0  0  0
  -53.0624  -25.2999   10.0349 H   0  0  0  0  0  0  0  0  0  0  0  0
  -52.8289  -26.2613   11.4777 H   0  0  0  0  0  0  0  0  0  0  0  0
  -53.6587  -28.3082   10.2993 H   0  0  0  0  0  0  0  0  0  0  0  0
  -42.1151  -28.7616    5.0363 H   0  0  0  0  0  0  0  0  0  0  0  0
  -47.7891  -29.4275    7.8875 H   0  0  0  0  0  0  0  0  0  0  0  0
  1 17  1  0  0  0  0
  1 18  3  0  0  0  0
  2  3  1  0  0  0  0
  2  4  2  0  0  0  0
  3  7  2  0  0  0  0
  4  9  1  0  0  0  0
  5  7  1  0  0  0  0
  5  9  2  0  0  0  0
  6  8  1  0  0  0  0
  6 19  2  0  0  0  0
  7 15  1  0  0  0  0
  8 10  2  0  0  0  0
  8 21  1  0  0  0  0
  9 24  1  0  0  0  0
 10 20  1  0  0  0  0
 10 25  1  0  0  0  0
 11 19  1  0  0  0  0
 11 20  2  0  0  0  0
 11 22  1  0  0  0  0
 12 13  1  0  0  0  0
 12 21  1  0  0  0  0
 12 23  2  0  0  0  0
 13 25  1  0  0  0  0
 14 16  1  0  0  0  0
 15 22  1  0  0  0  0
 16 17  1  0  0  0  0
 17 24  1  0  0  0  0
  2 26  1  0  0  0  0
  3 27  1  0  0  0  0
  4 28  1  0  0  0  0
  5 29  1  0  0  0  0
  6 30  1  0  0  0  0
 13 31  1  0  0  0  0
 13 32  1  0  0  0  0
 14 33  1  0  0  0  0
 14 34  1  0  0  0  0
 14 35  1  0  0  0  0
 15 36  1  0  0  0  0
 15 37  1  0  0  0  0
 16 38  1  0  0  0  0
 16 39  1  0  0  0  0
 17 40  1  0  0  0  0
 21 41  1  0  0  0  0
 22 42  1  0  0  0  0
M  END
> <POSIT::Probability>
0.23

> <POSIT::Method>
HYBRID

> <ReceptorTitle>
UCSF-P4599-REFINED_LIGAND-BOUND-STATE_A__DU__LA1_A-201(A)

> <OMEGA_C>
iT5Ywkm12sFmigdBjEpQwowJ+MFZPgBB9NlLwoTO98ETeOVAWplRwnoN78FPZgxBWAdKwtib5cGq
EftAHCAxwrqg6MESKs1AgrhIwvqX7sFoweJASIswwpri6cHQaqFA6HdOwvLW5cH5CgtB9i81wrC+
68EFb4pAnRU6wglS68EtK8hAHkoqwhYu68ESwUhASV4uwryA8cFkqRZAbo1bwr8Zz8GyOzBBHfFD
wj1Z7sEIp8VALdNVwg5V0cFrTilBfURVwqR528EDvhtB2Jlawroc2sHkJe9AZNs1wv9b6cFdoeFA
xAk6wnmD7MFBUZ1ANn0rwtDS6MGeaY5ASho/wiFG7MGViNxAI+QlwjIV6cEcNSlAK79Pwu8R3cFl
5RZBJw41wtFr7MHsSiNAULpSwr01/8GUTAFBL9xKwqTX/sH1otJA9A9VwgdH78H/5BZBxJhHwgVq
3sEsCflA97otwiXm5sEtruFAjjwtwn5i8cHA7KU/U0wuwp/Q+cHspCxA4ihdwsH61cGU+zhBeSBe
wsCpzcFlXSJBD8lbwjEiyMHcyjpBqXxDwhYB9sHdArVAt2BEwnYl6MGWJ61A7z9UwkBmysHZjiBB
01BTwiwX0sF9pDdBiaJWwkB34sH6ySRB4XUowrgX5sEhKaFAAyg/woZr68E5ZvxA

> <OMEGA_E>
q7YZwQ==

> <OMEGA_NBR>
     15346

$$$$
CACHE3HI_1717_26
  -OEChem-03092622523D

 33 35  0     0  0  0  0  0  0999 V2000
  -53.6354  -28.4673    7.0368 C   0  0  0  0  0  0  0  0  0  0  0  0
  -53.8525  -27.7532    8.2294 C   0  0  0  0  0  0  0  0  0  0  0  0
  -52.4342  -29.1749    6.8437 C   0  0  0  0  0  0  0  0  0  0  0  0
  -51.6609  -28.4608    9.0465 C   0  0  0  0  0  0  0  0  0  0  0  0
  -48.0858  -29.1102    3.7435 C   0  0  0  0  0  0  0  0  0  0  0  0
  -44.3690  -29.5919    6.2387 C   0  0  0  0  0  0  0  0  0  0  0  0
  -52.8566  -27.7249    9.2356 C   0  0  0  0  0  0  0  0  0  0  0  0
  -51.4410  -29.1785    7.8463 C   0  0  0  0  0  0  0  0  0  0  0  0
  -46.5390  -29.3292    5.9649 C   0  0  0  0  0  0  0  0  0  0  0  0
  -45.9780  -29.3941    4.6883 C   0  0  0  0  0  0  0  0  0  0  0  0
  -47.9315  -29.1444    6.0893 C   0  0  0  0  0  0  0  0  0  0  0  0
  -53.9229  -25.7087   10.4079 C   0  0  0  0  0  0  0  0  0  0  0  0
  -53.0897  -26.9994   10.5591 C   0  0  0  0  0  0  0  0  0  0  0  0
  -50.1652  -29.9861    7.6415 C   0  0  0  0  0  0  0  0  0  0  0  0
  -46.7473  -29.2802    3.5878 N   0  0  0  0  0  0  0  0  0  0  0  0
  -48.6840  -29.0404    4.9656 N   0  0  0  0  0  0  0  0  0  0  0  0
  -45.5057  -29.4487    6.8894 N   0  0  0  0  0  0  0  0  0  0  0  0
  -44.6234  -29.5644    4.8713 N   0  0  0  0  0  0  0  0  0  0  0  0
  -48.6621  -28.9055    7.6871 S   0  0  0  0  0  0  0  0  0  0  0  0
  -54.3928  -28.4724    6.2670 H   0  0  0  0  0  0  0  0  0  0  0  0
  -54.7825  -27.2245    8.3781 H   0  0  0  0  0  0  0  0  0  0  0  0
  -52.2718  -29.7177    5.9242 H   0  0  0  0  0  0  0  0  0  0  0  0
  -50.9114  -28.4744    9.8239 H   0  0  0  0  0  0  0  0  0  0  0  0
  -48.7024  -29.0269    2.8607 H   0  0  0  0  0  0  0  0  0  0  0  0
  -43.3967  -29.7113    6.6935 H   0  0  0  0  0  0  0  0  0  0  0  0
  -54.0529  -25.2381   11.3936 H   0  0  0  0  0  0  0  0  0  0  0  0
  -53.4011  -25.0123    9.7352 H   0  0  0  0  0  0  0  0  0  0  0  0
  -54.9086  -25.9560    9.9869 H   0  0  0  0  0  0  0  0  0  0  0  0
  -53.6201  -27.6797   11.2417 H   0  0  0  0  0  0  0  0  0  0  0  0
  -52.1125  -26.7360   10.9899 H   0  0  0  0  0  0  0  0  0  0  0  0
  -50.0876  -30.7400    8.4388 H   0  0  0  0  0  0  0  0  0  0  0  0
  -50.2139  -30.4893    6.6645 H   0  0  0  0  0  0  0  0  0  0  0  0
  -43.9406  -29.6531    4.1462 H   0  0  0  0  0  0  0  0  0  0  0  0
  1  2  2  0  0  0  0
  1  3  1  0  0  0  0
  2  7  1  0  0  0  0
  3  8  2  0  0  0  0
  4  7  2  0  0  0  0
  4  8  1  0  0  0  0
  5 15  2  0  0  0  0
  5 16  1  0  0  0  0
  6 17  2  0  0  0  0
  6 18  1  0  0  0  0
  7 13  1  0  0  0  0
  8 14  1  0  0  0  0
  9 10  2  0  0  0  0
  9 11  1  0  0  0  0
  9 17  1  0  0  0  0
 10 15  1  0  0  0  0
 10 18  1  0  0  0  0
 11 16  2  0  0  0  0
 11 19  1  0  0  0  0
 12 13  1  0  0  0  0
 14 19  1  0  0  0  0
  1 20  1  0  0  0  0
  2 21  1  0  0  0  0
  3 22  1  0  0  0  0
  4 23  1  0  0  0  0
  5 24  1  0  0  0  0
  6 25  1  0  0  0  0
 12 26  1  0  0  0  0
 12 27  1  0  0  0  0
 12 28  1  0  0  0  0
 13 29  1  0  0  0  0
 13 30  1  0  0  0  0
 14 31  1  0  0  0  0
 14 32  1  0  0  0  0
 18 33  1  0  0  0  0
M  END
> <POSIT::Probability>
0.99

> <POSIT::Method>
SHAPEFIT

> <ReceptorTitle>
UCSF-P4599-REFINED_LIGAND-BOUND-STATE_A__DU__LA1_A-201(A)

> <OMEGA_C>
nIpWwv2848E8LeFA9GhXwoUG3sHDqwNBm7xRwkdm6cHT/9pAxKROwsOv48FnvhBB5VdAwrrh6MGy
lG9A03kxwjS87MGwo8dAKm1TwoDM3cEnxRNBm8NNwn1t6cE5FftA7Sc6wiei6sE84L5Aeek3wiEn
68FUBpZA5rk/wrIn6cEx28JAD7FXwn6rzcHvhiZB41tUwsL+18Hq8ShBKqlIwobj78HWhvRAR/06
wsE96sE3nmVAdLxCwqtS6MFo5p5A0QU2wvSW68HWddxAZ34ywu+D7MHs4ZtAAqZCwnI+58Ea/fVA
QJJZwoXH48HbishAPCFbwtjL2cGmDAZBTxZRws697cFdk71ARaVLwqLL48HmLh1BRM9CwhI36MFI
FTdAN5YtwsOw7cEwMdZAMTZYwp7nycFWTDZBs5pVwhsZyMFPwxtBbaJbwtSlz8F6yh9B8npWwvVv
3cHx3TNBOHNQwj3j1cHG1i9Bv1lIwmvr9cEpBQdBCdtIwh7q88HMQ9VAJsMvwnM57cGArYRA

> <OMEGA_E>
gP1oPQ==

> <OMEGA_NBR>
     16525

$$$$
CACHE3HI_1717_32
  -OEChem-03092622523D

 41 43  0     1  0  0  0  0  0999 V2000
  -55.0763  -27.0705    5.2605 C   0  0  0  0  0  0  0  0  0  0  0  0
  -54.1664  -27.4697    6.2396 C   0  0  0  0  0  0  0  0  0  0  0  0
  -54.7518  -27.2062    3.9108 C   0  0  0  0  0  0  0  0  0  0  0  0
  -52.9325  -28.0047    5.8691 C   0  0  0  0  0  0  0  0  0  0  0  0
  -53.5179  -27.7412    3.5403 C   0  0  0  0  0  0  0  0  0  0  0  0
  -50.1108  -28.6629    4.7618 C   0  0  0  0  0  0  0  0  0  0  0  0
  -52.6080  -28.1404    4.5193 C   0  0  0  0  0  0  0  0  0  0  0  0
  -51.3339  -28.6925    4.1370 C   0  0  0  0  0  0  0  0  0  0  0  0
  -49.2575  -29.3742    3.8970 C   0  0  0  0  0  0  0  0  0  0  0  0
  -42.6900  -30.4252    2.7093 C   0  0  0  0  0  0  0  0  0  0  0  0
  -44.5559  -28.8852    1.1352 C   0  0  0  0  0  0  0  0  0  0  0  0
  -47.7878  -29.6549    4.0838 C   0  0  0  0  0  0  0  0  0  0  0  0
  -43.7024  -31.0358    1.7832 C   0  0  0  0  0  0  0  0  0  0  0  0
  -47.0569  -29.7641    2.7430 C   0  0  0  0  0  0  0  0  0  0  0  0
  -45.5775  -30.0872    2.9476 C   0  0  0  0  0  0  0  0  0  0  0  0
  -49.8852  -29.8228    2.8067 N   0  0  0  0  0  0  0  0  0  0  0  0
  -41.9079  -29.3645    2.3597 N   0  0  0  0  0  0  0  0  0  0  0  0
  -42.4775  -30.8744    3.9488 N   0  0  0  0  0  0  0  0  0  0  0  0
  -41.1482  -29.1067    3.4176 N   0  0  0  0  0  0  0  0  0  0  0  0
  -51.1462  -29.3924    2.9816 N   0  0  0  0  0  0  0  0  0  0  0  0
  -41.5172  -30.0192    4.3278 N   0  0  0  0  0  0  0  0  0  0  0  0
  -44.9034  -30.2070    1.6611 N   0  0  1  0  0  0  0  0  0  0  0  0
  -56.0367  -26.6532    5.5487 H   0  0  0  0  0  0  0  0  0  0  0  0
  -54.4192  -27.3650    7.2906 H   0  0  0  0  0  0  0  0  0  0  0  0
  -55.4602  -26.8947    3.1488 H   0  0  0  0  0  0  0  0  0  0  0  0
  -52.2339  -28.3104    6.6443 H   0  0  0  0  0  0  0  0  0  0  0  0
  -53.2806  -27.8406    2.4837 H   0  0  0  0  0  0  0  0  0  0  0  0
  -49.8692  -28.1947    5.7057 H   0  0  0  0  0  0  0  0  0  0  0  0
  -45.4495  -28.2613    1.0418 H   0  0  0  0  0  0  0  0  0  0  0  0
  -43.8482  -28.3866    1.8036 H   0  0  0  0  0  0  0  0  0  0  0  0
  -44.0903  -28.9810    0.1504 H   0  0  0  0  0  0  0  0  0  0  0  0
  -47.3408  -28.8607    4.6947 H   0  0  0  0  0  0  0  0  0  0  0  0
  -47.6651  -30.5816    4.6580 H   0  0  0  0  0  0  0  0  0  0  0  0
  -43.2795  -31.1669    0.7817 H   0  0  0  0  0  0  0  0  0  0  0  0
  -44.0126  -32.0244    2.1373 H   0  0  0  0  0  0  0  0  0  0  0  0
  -47.1585  -28.8221    2.1884 H   0  0  0  0  0  0  0  0  0  0  0  0
  -47.5249  -30.5439    2.1279 H   0  0  0  0  0  0  0  0  0  0  0  0
  -45.0961  -29.3000    3.5377 H   0  0  0  0  0  0  0  0  0  0  0  0
  -45.4701  -31.0291    3.4956 H   0  0  0  0  0  0  0  0  0  0  0  0
  -51.8290  -29.6132    2.2671 H   0  0  0  0  0  0  0  0  0  0  0  0
  -41.0948  -30.0588    5.2492 H   0  0  0  0  0  0  0  0  0  0  0  0
  1  2  1  0  0  0  0
  1  3  2  0  0  0  0
  2  4  2  0  0  0  0
  3  5  1  0  0  0  0
  4  7  1  0  0  0  0
  5  7  2  0  0  0  0
  6  8  2  0  0  0  0
  6  9  1  0  0  0  0
  7  8  1  0  0  0  0
  8 20  1  0  0  0  0
  9 12  1  0  0  0  0
  9 16  2  0  0  0  0
 10 13  1  0  0  0  0
 10 17  1  0  0  0  0
 10 18  2  0  0  0  0
 11 22  1  0  0  0  0
 12 14  1  0  0  0  0
 13 22  1  0  0  0  0
 14 15  1  0  0  0  0
 15 22  1  0  0  0  0
 16 20  1  0  0  0  0
 17 19  2  0  0  0  0
 18 21  1  0  0  0  0
 19 21  1  0  0  0  0
  1 23  1  0  0  0  0
  2 24  1  0  0  0  0
  3 25  1  0  0  0  0
  4 26  1  0  0  0  0
  5 27  1  0  0  0  0
  6 28  1  0  0  0  0
 11 29  1  0  0  0  0
 11 30  1  0  0  0  0
 11 31  1  0  0  0  0
 12 32  1  0  0  0  0
 12 33  1  0  0  0  0
 13 34  1  0  0  0  0
 13 35  1  0  0  0  0
 14 36  1  0  0  0  0
 14 37  1  0  0  0  0
 15 38  1  0  0  0  0
 15 39  1  0  0  0  0
 20 40  1  0  0  0  0
 21 41  1  0  0  0  0
M  END
> <POSIT::Probability>
0.02

> <POSIT::Method>
FRED

> <ReceptorTitle>
UCSF-P4599-REFINED_LIGAND-BOUND-STATE_A__DU__LA1_A-201(A)

> <OMEGA_C>
Hk5cwlKQ2MFoVqhAbapYwtzB28G0qsdA0wFbwj2m2cEeS3pA6rpTwooJ4MGxz7tATxJWwuvt3cEX
lWJAc3FIwq1N5cGaYJhAoW5SwnEf4cFcnpBA3VVNwkaK5cGwYoRArgdFwlf+6sE0aHlAl8Iqwrpm
88HhZS1APTkyws0U58FkTpE/sCY/wkQ97cEVroJAPM8uwkBJ+MHIP+Q/PDo8wscc7sHRjS9AY082
woKy8MEapjxAa4pHwgWV7sGYoTNArqEnwm7q6sErBRdA/+gpwsX+9sFFuXxAuZckwo3a6MFhulpA
rpVMwp8j68EZ0j5AqREmwjwn8MGAfYpADJ0zwuen8cFqn9Q/iCVgwso51cHMjrFAPK1ZwoPr2sHV
TOlAPNddwmso18FuhklAe+9Qwsx74sERntRASh9Vwpu53sGS9B5AFHpHwrCO4cFilbZAUcw1wj4X
4sHUWYU/lmQvwtQX48Fy2+Y/a1wwwi7Z58GADho+91w9wsTi5sH8OpZAGqk+wjKn9MFSDpVALR4t
wtZV+cGEGkg/6wwwwvsYAMJGyQhARaI8wqmT5sESDgxAeRk+wtFZ9MGcLwhAcGI0wmpm6sFDamJA
XeE1woQ7+MGlt19A5lBPwuXn7MEAGBFAB2EkwoJ48MFz+adA

> <OMEGA_E>
sGIhwQ==

> <OMEGA_NBR>
     17842

$$$$
CACHE3HI_1717_68
  -OEChem-03092622523D

 30 32  0     0  0  0  0  0  0999 V2000
  -53.6086  -28.4730    7.0832 C   0  0  0  0  0  0  0  0  0  0  0  0
  -53.8451  -27.7491    8.2665 C   0  0  0  0  0  0  0  0  0  0  0  0
  -52.3969  -29.1703    6.9095 C   0  0  0  0  0  0  0  0  0  0  0  0
  -51.6576  -28.4392    9.1193 C   0  0  0  0  0  0  0  0  0  0  0  0
  -48.0710  -29.0788    3.7487 C   0  0  0  0  0  0  0  0  0  0  0  0
  -44.3355  -29.6255    6.2008 C   0  0  0  0  0  0  0  0  0  0  0  0
  -52.8665  -27.7140    9.2820 C   0  0  0  0  0  0  0  0  0  0  0  0
  -51.4121  -29.1599    7.9218 C   0  0  0  0  0  0  0  0  0  0  0  0
  -46.5103  -29.3597    5.9530 C   0  0  0  0  0  0  0  0  0  0  0  0
  -45.9587  -29.3976    4.6700 C   0  0  0  0  0  0  0  0  0  0  0  0
  -47.9022  -29.1609    6.0941 C   0  0  0  0  0  0  0  0  0  0  0  0
  -53.1509  -26.9562   10.5652 C   0  0  0  0  0  0  0  0  0  0  0  0
  -50.1231  -29.9600    7.7211 C   0  0  0  0  0  0  0  0  0  0  0  0
  -46.7350  -29.2525    3.5787 N   0  0  0  0  0  0  0  0  0  0  0  0
  -48.6605  -29.0295    4.9768 N   0  0  0  0  0  0  0  0  0  0  0  0
  -45.4672  -29.5003    6.8646 N   0  0  0  0  0  0  0  0  0  0  0  0
  -44.6016  -29.5658    4.8370 N   0  0  0  0  0  0  0  0  0  0  0  0
  -48.6137  -28.8780    7.7017 S   0  0  0  0  0  0  0  0  0  0  0  0
  -54.3582  -28.4942    6.3060 H   0  0  0  0  0  0  0  0  0  0  0  0
  -54.7772  -27.2195    8.3975 H   0  0  0  0  0  0  0  0  0  0  0  0
  -52.2196  -29.7171    5.9951 H   0  0  0  0  0  0  0  0  0  0  0  0
  -50.9217  -28.4426    9.9098 H   0  0  0  0  0  0  0  0  0  0  0  0
  -48.6939  -28.9751    2.8725 H   0  0  0  0  0  0  0  0  0  0  0  0
  -43.3591  -29.7537    6.6444 H   0  0  0  0  0  0  0  0  0  0  0  0
  -53.6470  -27.6247   11.2842 H   0  0  0  0  0  0  0  0  0  0  0  0
  -52.2051  -26.5936   10.9942 H   0  0  0  0  0  0  0  0  0  0  0  0
  -53.8068  -26.1003   10.3477 H   0  0  0  0  0  0  0  0  0  0  0  0
  -50.0266  -30.6861    8.5418 H   0  0  0  0  0  0  0  0  0  0  0  0
  -50.1858  -30.4961    6.7626 H   0  0  0  0  0  0  0  0  0  0  0  0
  -43.9247  -29.6334    4.1041 H   0  0  0  0  0  0  0  0  0  0  0  0
  1  2  2  0  0  0  0
  1  3  1  0  0  0  0
  2  7  1  0  0  0  0
  3  8  2  0  0  0  0
  4  7  2  0  0  0  0
  4  8  1  0  0  0  0
  5 14  2  0  0  0  0
  5 15  1  0  0  0  0
  6 16  2  0  0  0  0
  6 17  1  0  0  0  0
  7 12  1  0  0  0  0
  8 13  1  0  0  0  0
  9 10  2  0  0  0  0
  9 11  1  0  0  0  0
  9 16  1  0  0  0  0
 10 14  1  0  0  0  0
 10 17  1  0  0  0  0
 11 15  2  0  0  0  0
 11 18  1  0  0  0  0
 13 18  1  0  0  0  0
  1 19  1  0  0  0  0
  2 20  1  0  0  0  0
  3 21  1  0  0  0  0
  4 22  1  0  0  0  0
  5 23  1  0  0  0  0
  6 24  1  0  0  0  0
 12 25  1  0  0  0  0
 12 26  1  0  0  0  0
 12 27  1  0  0  0  0
 13 28  1  0  0  0  0
 13 29  1  0  0  0  0
 17 30  1  0  0  0  0
M  END
> <POSIT::Probability>
0.95

> <POSIT::Method>
SHAPEFIT

> <ReceptorTitle>
UCSF-P4599-REFINED_LIGAND-BOUND-STATE_A__DU__LA1_A-201(A)

> <OMEGA_C>
PG9WwsvI48FoqeJAYmFXwg/+3cGtQwRBapZRwt1c6cFbGt1AZaFOwmqD48G36BFBwUhAwlqh6MEO
629Ai1cxwv0A7cFRbcZAQndTwlC23cESgxRBAKZNwmJH6cGqf/1Algo6wqvg6sE0f75AwNU3wlou
68HAcJVA15s/wnNJ6cGCAsNAjppUwjmm18EpCylBCn5IwiKu78FBE/dApfA6wh8F6sHECGVAWKRC
wmo86MEWQp9Ab941wqsA7MGVqttAEWgywtqG7MHqyJpAcHRCwhMG58H4c/ZA025ZwhH048F/yslA
1htbwnHB2cEBXAZB5uBQwq687cEj2L9A169LwmSK48F+jh5BjcZCwhPN58GB1zdAwW8twnoH7sGE
ntRAkpZWwl//3MEjjDRBCNJQwsO/1MEZ6C9BJzpXwlzN0MFKkCVBRhtIwjF99cEGqwhBNr5Iwhr4
88GHZ9hA3rIvwjoR7cHYVINA

> <OMEGA_E>
yIosPg==

> <OMEGA_NBR>
     18960

$$$$
CACHE3HI_1717_81
  -OEChem-03092622523D

 34 36  0     1  0  0  0  0  0999 V2000
  -53.6663  -28.0771    7.4313 C   0  0  0  0  0  0  0  0  0  0  0  0
  -52.5490  -28.7287    6.8665 C   0  0  0  0  0  0  0  0  0  0  0  0
  -53.6988  -27.7985    8.8142 C   0  0  0  0  0  0  0  0  0  0  0  0
  -51.5333  -28.8852    9.0822 C   0  0  0  0  0  0  0  0  0  0  0  0
  -46.0362  -29.3687    7.0922 C   0  0  0  0  0  0  0  0  0  0  0  0
  -47.9280  -29.1308    3.4080 C   0  0  0  0  0  0  0  0  0  0  0  0
  -46.9103  -29.2357    5.9218 C   0  0  0  0  0  0  0  0  0  0  0  0
  -51.4780  -29.1369    7.6929 C   0  0  0  0  0  0  0  0  0  0  0  0
  -52.6240  -28.1922    9.6370 C   0  0  0  0  0  0  0  0  0  0  0  0
  -46.0881  -29.3865    4.8091 C   0  0  0  0  0  0  0  0  0  0  0  0
  -48.2937  -29.0096    5.7265 C   0  0  0  0  0  0  0  0  0  0  0  0
  -48.2322  -26.4306    7.1603 C   0  0  0  0  0  0  0  0  0  0  0  0
  -50.2295  -29.7669    7.0948 C   0  0  0  0  0  0  0  0  0  0  0  0
  -48.7979  -27.7044    7.8169 C   0  0  0  0  0  0  0  0  0  0  0  0
  -44.8080  -29.5655    6.6635 N   0  0  0  0  0  0  0  0  0  0  0  0
  -46.5936  -29.3275    3.5613 N   0  0  0  0  0  0  0  0  0  0  0  0
  -48.7775  -28.9786    4.4602 N   0  0  0  0  0  0  0  0  0  0  0  0
  -44.8047  -29.5778    5.2902 N   0  0  0  0  0  0  0  0  0  0  0  0
  -49.1666  -28.7491    6.7944 N   0  0  1  0  0  0  0  0  0  0  0  0
  -52.6247  -27.8029   11.3402 Cl  0  0  0  0  0  0  0  0  0  0  0  0
  -54.4977  -27.7912    6.8041 H   0  0  0  0  0  0  0  0  0  0  0  0
  -52.5126  -28.9152    5.8033 H   0  0  0  0  0  0  0  0  0  0  0  0
  -54.5466  -27.2841    9.2420 H   0  0  0  0  0  0  0  0  0  0  0  0
  -50.7331  -29.2272    9.7219 H   0  0  0  0  0  0  0  0  0  0  0  0
  -46.3465  -29.3144    8.1253 H   0  0  0  0  0  0  0  0  0  0  0  0
  -48.3331  -29.0935    2.4076 H   0  0  0  0  0  0  0  0  0  0  0  0
  -47.9774  -25.6977    7.9399 H   0  0  0  0  0  0  0  0  0  0  0  0
  -47.3287  -26.6843    6.5864 H   0  0  0  0  0  0  0  0  0  0  0  0
  -48.9865  -26.0002    6.4852 H   0  0  0  0  0  0  0  0  0  0  0  0
  -49.8260  -30.4997    7.8090 H   0  0  0  0  0  0  0  0  0  0  0  0
  -50.5041  -30.2783    6.1604 H   0  0  0  0  0  0  0  0  0  0  0  0
  -48.0386  -28.1223    8.4942 H   0  0  0  0  0  0  0  0  0  0  0  0
  -49.6964  -27.4382    8.3930 H   0  0  0  0  0  0  0  0  0  0  0  0
  -43.9929  -29.7063    4.7207 H   0  0  0  0  0  0  0  0  0  0  0  0
  1  2  2  0  0  0  0
  1  3  1  0  0  0  0
  2  8  1  0  0  0  0
  3  9  2  0  0  0  0
  4  8  2  0  0  0  0
  4  9  1  0  0  0  0
  5  7  1  0  0  0  0
  5 15  2  0  0  0  0
  6 16  2  0  0  0  0
  6 17  1  0  0  0  0
  7 10  2  0  0  0  0
  7 11  1  0  0  0  0
  8 13  1  0  0  0  0
  9 20  1  0  0  0  0
 10 16  1  0  0  0  0
 10 18  1  0  0  0  0
 11 17  2  0  0  0  0
 11 19  1  0  0  0  0
 12 14  1  0  0  0  0
 13 19  1  0  0  0  0
 14 19  1  0  0  0  0
 15 18  1  0  0  0  0
  1 21  1  0  0  0  0
  2 22  1  0  0  0  0
  3 23  1  0  0  0  0
  4 24  1  0  0  0  0
  5 25  1  0  0  0  0
  6 26  1  0  0  0  0
 12 27  1  0  0  0  0
 12 28  1  0  0  0  0
 12 29  1  0  0  0  0
 13 30  1  0  0  0  0
 13 31  1  0  0  0  0
 14 32  1  0  0  0  0
 14 33  1  0  0  0  0
 18 34  1  0  0  0  0
M  END
> <POSIT::Probability>
0.75

> <POSIT::Method>
SHAPEFIT

> <ReceptorTitle>
UCSF-P4599-REFINED_LIGAND-BOUND-STATE_A__DU__LA1_A-201(A)

> <OMEGA_C>
S6pWws6d4MFaze1AKjJSwlrU5cEHuttAkMtWwmVj3sHbBg1BHSJOwvQU58HYUBFBDiU4wgfz6sGM
8+JASbY/wu4L6cE3HVpAIKQ7wsbi6cGWf71AfulNwlIY6cGELPZA7X5SwpuJ4cFNMRpBMlo4woYX
68GC5JlAvSxBwrIT6MGPP7dAxO1AwtBx08HSIOVADutIwo0i7sHPCONAETFDwoqi3cExJPpAbTsz
wi+G7MFTO9VA3V86wrae6sHp7GNAJhxDwkbU58Feuo5ABjgzwl2f7MG4SalAkKpEwhP+5cFUa9lA
vH9Swlps3sFycTVBqf1ZwkpU3sEVu9lA6gxSwlJS58GwtLlAsS9aws5F2sEd3xNBvu5KwlDR6cH3
jBtB02I5wvaD6sEVAQJBD1VBwoC/6MGFFRpA1eg/wtSUzcEPFP5AmVA9woF51cG4w9JAOfJDwncA
0MFshs9A3k1HwnT/88Gd4/lAMARKwu058sFNIsVAhidAwo764MFK6AdBJslGwoSB28GkSQZBs/gv
wpmm7cHsD5dA

> <OMEGA_E>
liwePw==

> <OMEGA_NBR>
     20162

$$$$
CACHE3HI_1717_93
  -OEChem-03092622523D

 32 34  0     0  0  0  0  0  0999 V2000
  -52.9882  -26.9747   10.6587 C   0  0  0  0  0  0  0  0  0  0  0  0
  -53.8992  -27.6959    8.5527 C   0  0  0  0  0  0  0  0  0  0  0  0
  -53.7919  -28.3418    7.3203 C   0  0  0  0  0  0  0  0  0  0  0  0
  -51.6431  -28.4459    9.1420 C   0  0  0  0  0  0  0  0  0  0  0  0
  -48.0033  -29.1065    3.6588 C   0  0  0  0  0  0  0  0  0  0  0  0
  -44.3593  -29.6032    6.2536 C   0  0  0  0  0  0  0  0  0  0  0  0
  -52.8337  -27.7366    9.4616 C   0  0  0  0  0  0  0  0  0  0  0  0
  -51.5203  -29.0992    7.8833 C   0  0  0  0  0  0  0  0  0  0  0  0
  -46.5260  -29.3664    5.9215 C   0  0  0  0  0  0  0  0  0  0  0  0
  -52.6168  -29.0513    6.9814 C   0  0  0  0  0  0  0  0  0  0  0  0
  -45.9248  -29.3996    4.6606 C   0  0  0  0  0  0  0  0  0  0  0  0
  -47.9251  -29.1889    6.0105 C   0  0  0  0  0  0  0  0  0  0  0  0
  -53.6807  -30.5519    5.4767 C   0  0  0  0  0  0  0  0  0  0  0  0
  -50.2589  -29.9186    7.5276 C   0  0  0  0  0  0  0  0  0  0  0  0
  -53.1927  -26.3037   11.5896 N   0  0  0  0  0  0  0  0  0  0  0  0
  -46.6600  -29.2659    3.5401 N   0  0  0  0  0  0  0  0  0  0  0  0
  -48.6405  -29.0644    4.8636 N   0  0  0  0  0  0  0  0  0  0  0  0
  -45.5170  -29.4891    6.8726 N   0  0  0  0  0  0  0  0  0  0  0  0
  -44.5733  -29.5520    4.8802 N   0  0  0  0  0  0  0  0  0  0  0  0
  -52.5410  -29.7160    5.7775 O   0  0  0  0  0  0  0  0  0  0  0  0
  -48.6968  -28.9144    7.5970 S   0  0  0  0  0  0  0  0  0  0  0  0
  -54.8045  -27.1641    8.8060 H   0  0  0  0  0  0  0  0  0  0  0  0
  -54.6129  -28.2994    6.6200 H   0  0  0  0  0  0  0  0  0  0  0  0
  -50.8324  -28.4889    9.8542 H   0  0  0  0  0  0  0  0  0  0  0  0
  -48.5930  -29.0088    2.7593 H   0  0  0  0  0  0  0  0  0  0  0  0
  -43.3993  -29.7180    6.7349 H   0  0  0  0  0  0  0  0  0  0  0  0
  -53.5314  -31.0394    4.5020 H   0  0  0  0  0  0  0  0  0  0  0  0
  -53.7887  -31.3192    6.2575 H   0  0  0  0  0  0  0  0  0  0  0  0
  -54.5897  -29.9336    5.4419 H   0  0  0  0  0  0  0  0  0  0  0  0
  -50.1710  -30.7532    8.2387 H   0  0  0  0  0  0  0  0  0  0  0  0
  -50.3751  -30.3160    6.5084 H   0  0  0  0  0  0  0  0  0  0  0  0
  -43.8679  -29.6149    4.1742 H   0  0  0  0  0  0  0  0  0  0  0  0
  1  7  1  0  0  0  0
  1 15  3  0  0  0  0
  2  3  2  0  0  0  0
  2  7  1  0  0  0  0
  3 10  1  0  0  0  0
  4  7  2  0  0  0  0
  4  8  1  0  0  0  0
  5 16  2  0  0  0  0
  5 17  1  0  0  0  0
  6 18  2  0  0  0  0
  6 19  1  0  0  0  0
  8 10  2  0  0  0  0
  8 14  1  0  0  0  0
  9 11  2  0  0  0  0
  9 12  1  0  0  0  0
  9 18  1  0  0  0  0
 10 20  1  0  0  0  0
 11 16  1  0  0  0  0
 11 19  1  0  0  0  0
 12 17  2  0  0  0  0
 12 21  1  0  0  0  0
 13 20  1  0  0  0  0
 14 21  1  0  0  0  0
  2 22  1  0  0  0  0
  3 23  1  0  0  0  0
  4 24  1  0  0  0  0
  5 25  1  0  0  0  0
  6 26  1  0  0  0  0
 13 27  1  0  0  0  0
 13 28  1  0  0  0  0
 13 29  1  0  0  0  0
 14 30  1  0  0  0  0
 14 31  1  0  0  0  0
 19 32  1  0  0  0  0
M  END
> <POSIT::Probability>
0.9

> <POSIT::Method>
SHAPEFIT

> <ReceptorTitle>
UCSF-P4599-REFINED_LIGAND-BOUND-STATE_A__DU__LA1_A-201(A)

> <OMEGA_C>
9PNTwjPM18EDiipB0JhXwiGR3cGo1whB5ipXwvu74sEvQOpAipJOwkmR48HLRRJBYgNAwiPa6MEr
KWpA428xwmfT7MFsHchArlVTwojk3cHTYhdBzBROwiTL6MFaRPxAmRo6wmzu6sGZfL1AondSwgFp
6MHAZ99A87I3wmwy68H1I5VARrM/wu2C6cHXVcBA/7hWwmJq9MEMQa9AKglJwlRZ78G54fBAXMVU
wu1t0sHsbjlBz6M6woQg6sE+kGJA4Y9CwtWD6MEEo5tAcRE2wqnp68G27NtACEsywnhq7MECK5xA
8ilSwnK67cEU4bhAk8lCwrZQ58HDGvNAwjdbwgpQ2cFb5QxBnnNawi5l4sGl1tNAVFRLwl3p48H2
qh1BQF9CwhkS6MHGlzBA4Jgtwnq+7cGAhNdAMyBWwrNQ+MH6D5BApidXwrmN+sFSPchA51tawgJ4
78FUJK5AIa9Iwn0G9sHn0QNBGoBJwjmH8sE3RdBAxHgvwknr7MHWkoVA

> <OMEGA_E>
EAHJPg==

> <OMEGA_NBR>
     21320

$$$$
CACHE3HI_1717_94
  -OEChem-03092622523D

 34 36  0     1  0  0  0  0  0999 V2000
  -52.7297  -27.8194    9.3690 C   0  0  0  0  0  0  0  0  0  0  0  0
  -51.5851  -28.5936    9.0726 C   0  0  0  0  0  0  0  0  0  0  0  0
  -53.7239  -27.6309    8.3911 C   0  0  0  0  0  0  0  0  0  0  0  0
  -52.4076  -28.9563    6.8080 C   0  0  0  0  0  0  0  0  0  0  0  0
  -45.6333  -29.6490    6.9737 C   0  0  0  0  0  0  0  0  0  0  0  0
  -48.0770  -29.0685    3.6743 C   0  0  0  0  0  0  0  0  0  0  0  0
  -46.6941  -29.4342    5.9772 C   0  0  0  0  0  0  0  0  0  0  0  0
  -51.3956  -29.1468    7.7763 C   0  0  0  0  0  0  0  0  0  0  0  0
  -53.5708  -28.2169    7.1186 C   0  0  0  0  0  0  0  0  0  0  0  0
  -46.0345  -29.3392    4.7511 C   0  0  0  0  0  0  0  0  0  0  0  0
  -48.1174  -29.3331    6.0169 C   0  0  0  0  0  0  0  0  0  0  0  0
  -48.8133  -26.8833    7.8886 C   0  0  0  0  0  0  0  0  0  0  0  0
  -50.1603  -30.0172    7.4380 C   0  0  0  0  0  0  0  0  0  0  0  0
  -48.4028  -28.3137    8.2837 C   0  0  0  0  0  0  0  0  0  0  0  0
  -44.4733  -29.6576    6.3516 N   0  0  0  0  0  0  0  0  0  0  0  0
  -46.7237  -29.1474    3.6119 N   0  0  0  0  0  0  0  0  0  0  0  0
  -48.7762  -29.1702    4.8405 N   0  0  0  0  0  0  0  0  0  0  0  0
  -44.6794  -29.4720    5.0088 N   0  0  0  0  0  0  0  0  0  0  0  0
  -48.8425  -29.2810    7.2395 N   0  0  3  0  0  0  0  0  0  0  0  0
  -54.9521  -28.0344    5.8180 Br  0  0  0  0  0  0  0  0  0  0  0  0
  -52.8413  -27.3726   10.3458 H   0  0  0  0  0  0  0  0  0  0  0  0
  -50.8452  -28.7673    9.8399 H   0  0  0  0  0  0  0  0  0  0  0  0
  -54.6000  -27.0402    8.6148 H   0  0  0  0  0  0  0  0  0  0  0  0
  -52.2906  -29.3800    5.8215 H   0  0  0  0  0  0  0  0  0  0  0  0
  -45.7813  -29.7778    8.0358 H   0  0  0  0  0  0  0  0  0  0  0  0
  -48.6264  -28.9181    2.7566 H   0  0  0  0  0  0  0  0  0  0  0  0
  -48.4836  -26.1787    8.6663 H   0  0  0  0  0  0  0  0  0  0  0  0
  -48.3424  -26.6183    6.9304 H   0  0  0  0  0  0  0  0  0  0  0  0
  -49.9072  -26.8309    7.7863 H   0  0  0  0  0  0  0  0  0  0  0  0
  -50.0216  -30.7341    8.2607 H   0  0  0  0  0  0  0  0  0  0  0  0
  -50.3810  -30.5634    6.5090 H   0  0  0  0  0  0  0  0  0  0  0  0
  -47.3087  -28.3625    8.3869 H   0  0  0  0  0  0  0  0  0  0  0  0
  -48.8736  -28.5752    9.2428 H   0  0  0  0  0  0  0  0  0  0  0  0
  -43.9580  -29.4374    4.3172 H   0  0  0  0  0  0  0  0  0  0  0  0
  1  2  2  0  0  0  0
  1  3  1  0  0  0  0
  2  8  1  0  0  0  0
  3  9  2  0  0  0  0
  4  8  2  0  0  0  0
  4  9  1  0  0  0  0
  5  7  1  0  0  0  0
  5 15  2  0  0  0  0
  6 16  2  0  0  0  0
  6 17  1  0  0  0  0
  7 10  2  0  0  0  0
  7 11  1  0  0  0  0
  8 13  1  0  0  0  0
  9 20  1  0  0  0  0
 10 16  1  0  0  0  0
 10 18  1  0  0  0  0
 11 17  2  0  0  0  0
 11 19  1  0  0  0  0
 12 14  1  0  0  0  0
 13 19  1  0  0  0  0
 14 19  1  0  0  0  0
 15 18  1  0  0  0  0
  1 21  1  0  0  0  0
  2 22  1  0  0  0  0
  3 23  1  0  0  0  0
  4 24  1  0  0  0  0
  5 25  1  0  0  0  0
  6 26  1  0  0  0  0
 12 27  1  0  0  0  0
 12 28  1  0  0  0  0
 12 29  1  0  0  0  0
 13 30  1  0  0  0  0
 13 31  1  0  0  0  0
 14 32  1  0  0  0  0
 14 33  1  0  0  0  0
 18 34  1  0  0  0  0
M  END
> <POSIT::Probability>
0.75

> <POSIT::Method>
SHAPEFIT

> <ReceptorTitle>
UCSF-P4599-REFINED_LIGAND-BOUND-STATE_A__DU__LA1_A-201(A)

> <OMEGA_C>
MetSwjiO3sFE5xVBGVdOwsG/5ME0KRFBUeVWwikM3cEZQgZBZKFRwo2m58F/29lAiIg2wjEx7cHx
KN9A5U5AwlmM6MESJ2tAwcY6wjR568F2Rb9AHZVNwpMs6cGz1/hAgkhWwiK84cGUy+NAWCM4wri2
6sH2CJhAO3hAwkqq6sEjisBAxkBDwvwQ18Edb/xAK6RIwkQj8MFwBO5AdpxBwnGC4sHWiQRBoeQx
wttC7cGMQMtAFOU6wsct6cGsKWdAzBpDwqlc6cF25ZpAs7cywpDG68ExSKBAsl5DwmU/6sGoqedA
6c5bwndG4MEwLbpAel1Twv362sFwiCVBemFLwlsj5sFXcB1BYGZawllS2MEK1glBkilRwlAK68Eb
SrpAESA3wgA57sGMkgBBaIFCwkhY58HvbDBAPu9BwuNt0cESqQpBk15Bwjjy1MEYxt1ABKFHwral
1sG2KflAIRZIwoLf9cHkKwRBHoZJwsSB9MERStBAJjw9wn/m4sGkMAZBl35Dwv2Z5MFz4hNB89Qv
wsp/68F2JopA

> <OMEGA_E>
lB0ePw==

> <OMEGA_NBR>
     22523

$$$$
CACHE3-HO_1718_8
  -OEChem-03092622523D

 44 48  0     1  0  0  0  0  0999 V2000
  -45.9610  -33.7496   -0.5493 C   0  0  0  0  0  0  0  0  0  0  0  0
  -46.7148  -33.8259    0.6285 C   0  0  0  0  0  0  0  0  0  0  0  0
  -47.3183  -29.1616    2.7198 C   0  0  0  0  0  0  0  0  0  0  0  0
  -44.6729  -33.1965   -0.5201 C   0  0  0  0  0  0  0  0  0  0  0  0
  -46.1415  -33.4389    1.8505 C   0  0  0  0  0  0  0  0  0  0  0  0
  -48.6109  -28.8401    2.2489 C   0  0  0  0  0  0  0  0  0  0  0  0
  -49.4180  -28.5839    4.5567 C   0  0  0  0  0  0  0  0  0  0  0  0
  -44.0399  -29.8404    6.7910 C   0  0  0  0  0  0  0  0  0  0  0  0
  -47.1145  -29.1830    4.1139 C   0  0  0  0  0  0  0  0  0  0  0  0
  -45.9108  -29.4397    4.8936 C   0  0  0  0  0  0  0  0  0  0  0  0
  -48.1374  -28.9132    5.0272 C   0  0  0  0  0  0  0  0  0  0  0  0
  -44.1159  -32.6909    0.6848 C   0  0  0  0  0  0  0  0  0  0  0  0
  -44.8370  -32.9047    1.9081 C   0  0  0  0  0  0  0  0  0  0  0  0
  -49.6532  -28.5448    3.1642 C   0  0  0  0  0  0  0  0  0  0  0  0
  -46.2565  -29.3757    6.2412 C   0  0  0  0  0  0  0  0  0  0  0  0
  -44.5887  -29.7012    4.5072 C   0  0  0  0  0  0  0  0  0  0  0  0
  -42.9291  -30.6561    1.2675 C   0  0  0  0  0  0  0  0  0  0  0  0
  -43.0601  -32.0641    3.3404 C   0  0  0  0  0  0  0  0  0  0  0  0
  -43.0302  -30.6232    2.7839 C   0  0  2  0  0  0  0  0  0  0  0  0
  -42.0342  -32.0514   -0.5462 C   0  0  0  0  0  0  0  0  0  0  0  0
  -45.3176  -29.5933    7.1835 N   0  0  0  0  0  0  0  0  0  0  0  0
  -43.6630  -29.8753    5.4846 N   0  0  0  0  0  0  0  0  0  0  0  0
  -47.6101  -29.0476    6.3133 N   0  0  0  0  0  0  0  0  0  0  0  0
  -42.9596  -31.8792    0.5893 N   0  0  0  0  0  0  0  0  0  0  0  0
  -44.2425  -29.8631    3.1724 N   0  0  0  0  0  0  0  0  0  0  0  0
  -42.5837  -29.6304    0.6905 O   0  0  0  0  0  0  0  0  0  0  0  0
  -44.3691  -32.6406    3.1889 O   0  0  0  0  0  0  0  0  0  0  0  0
  -50.8851  -28.2280    2.7070 F   0  0  0  0  0  0  0  0  0  0  0  0
  -46.3713  -34.1162   -1.4787 H   0  0  0  0  0  0  0  0  0  0  0  0
  -47.7341  -34.1814    0.5970 H   0  0  0  0  0  0  0  0  0  0  0  0
  -46.5136  -29.3835    2.0345 H   0  0  0  0  0  0  0  0  0  0  0  0
  -44.0935  -33.1541   -1.4305 H   0  0  0  0  0  0  0  0  0  0  0  0
  -46.7092  -33.5522    2.7623 H   0  0  0  0  0  0  0  0  0  0  0  0
  -48.8062  -28.8190    1.1869 H   0  0  0  0  0  0  0  0  0  0  0  0
  -50.2148  -28.3628    5.2514 H   0  0  0  0  0  0  0  0  0  0  0  0
  -43.2915  -30.0165    7.5495 H   0  0  0  0  0  0  0  0  0  0  0  0
  -42.3297  -32.6778    2.7928 H   0  0  0  0  0  0  0  0  0  0  0  0
  -42.7955  -32.0444    4.4079 H   0  0  0  0  0  0  0  0  0  0  0  0
  -42.1411  -30.1149    3.1854 H   0  0  0  0  0  0  0  0  0  0  0  0
  -41.2008  -31.3398   -0.4519 H   0  0  0  0  0  0  0  0  0  0  0  0
  -41.6409  -33.0787   -0.5459 H   0  0  0  0  0  0  0  0  0  0  0  0
  -42.5709  -31.8646   -1.4880 H   0  0  0  0  0  0  0  0  0  0  0  0
  -48.1269  -28.9264    7.1609 H   0  0  0  0  0  0  0  0  0  0  0  0
  -45.0164  -30.3177    2.7312 H   0  0  0  0  0  0  0  0  0  0  0  0
  1  2  1  0  0  0  0
  1  4  2  0  0  0  0
  2  5  2  0  0  0  0
  3  6  2  0  0  0  0
  3  9  1  0  0  0  0
  4 12  1  0  0  0  0
  5 13  1  0  0  0  0
  6 14  1  0  0  0  0
  7 11  1  0  0  0  0
  7 14  2  0  0  0  0
  8 21  2  0  0  0  0
  8 22  1  0  0  0  0
  9 10  1  0  0  0  0
  9 11  2  0  0  0  0
 10 15  2  0  0  0  0
 10 16  1  0  0  0  0
 11 23  1  0  0  0  0
 12 13  2  0  0  0  0
 12 24  1  0  0  0  0
 13 27  1  0  0  0  0
 14 28  1  0  0  0  0
 15 21  1  0  0  0  0
 15 23  1  0  0  0  0
 16 22  2  0  0  0  0
 16 25  1  0  0  0  0
 17 19  1  0  0  0  0
 17 24  1  0  0  0  0
 17 26  2  0  0  0  0
 18 19  1  0  0  0  0
 18 27  1  0  0  0  0
 19 25  1  0  0  0  0
 20 24  1  0  0  0  0
  1 29  1  0  0  0  0
  2 30  1  0  0  0  0
  3 31  1  0  0  0  0
  4 32  1  0  0  0  0
  5 33  1  0  0  0  0
  6 34  1  0  0  0  0
  7 35  1  0  0  0  0
  8 36  1  0  0  0  0
 18 37  1  0  0  0  0
 18 38  1  0  0  0  0
 19 39  1  0  0  0  0
 20 40  1  0  0  0  0
 20 41  1  0  0  0  0
 20 42  1  0  0  0  0
 23 43  1  0  0  0  0
 25 44  1  0  0  0  0
M  END
> <POSIT::Probability>
0.9

> <POSIT::Method>
SHAPEFIT

> <ReceptorTitle>
UCSF-P4606-REFINED_LIGAND-BOUND-STATE_AALTB__DU__LA1_A-201(A)

> <OMEGA_C>
Hdg3wpL/BsIuoAy/6ts6wq9NB8Iv5CA/5kU9wvJK6cFrES5ABrEywjDJBMLUIwW/7pA4wmnBBcI8
3uw/iHFCwm+45sF47Q9ADqxFwsSr5MEu0JFA3Cgwwg257sE9UNlARnU8ws126cG7pINAoaQ3wn6E
68FPmJxAqIxAwixO58G63qBAtXYwwoLDAsLhTS8/GFkzwl+eA8IQO/Q/45xGwsNb5MG2gkpAswY5
wmgB68EWuMdAz1oywiSc7cGXOpBAXrcrwq4/9cGMPqI/jD0swpxBAMKiyFVA7B4swkr89MFSKzJA
CyMowqo0AMJg0wu/OUU1wii/7MH33uVA9aYuwqgA78Ebgq9AyXA+wmRh6MHHBspAntYrwpAI/8Gf
3xY/X/gwwrjn7sHwB0tAsVUqwh0L7cGtxjA/9HkxwvqPAsJCF0xAW4pLwgLT4cE+QC1ANHw5wvZ2
CMJXRb2/tu8+wrS5CMJN1Bg/5A06wlQR68FxNQJAuF8wwsadBMIzG7e/MNY6wmg1BsLfyTBAhjlD
wkqN5sHO65c/+dtIwgTn4sFmC6hAdyotws4h8MFUlfFAmlEpwhi2AsLEvTJAoS4rwnotAMKCDY1A
gpAowkrr8MH23EtAk80kwuC3+sFgXOe+Q5AmwpZQBMJBwQu/pkgqwqPq/sH/dr6/6YFAwkNp58HO
JeVAxhA0wp6K8sHEzC5A

> <OMEGA_E>
pPfVPg==

> <OMEGA_NBR>
      1415

$$$$
CACHE3HI_1695_26
  -OEChem-03092622523D

 40 42  0     0  0  0  0  0  0999 V2000
  -41.2028  -31.3840    1.4464 C   0  0  0  0  0  0  0  0  0  0  0  0
  -44.0537  -32.1307    0.3054 C   0  0  0  0  0  0  0  0  0  0  0  0
  -49.9895  -30.2264    5.3176 C   0  0  0  0  0  0  0  0  0  0  0  0
  -48.2490  -31.1345    6.7260 C   0  0  0  0  0  0  0  0  0  0  0  0
  -50.9250  -31.0505    5.9434 C   0  0  0  0  0  0  0  0  0  0  0  0
  -49.1844  -31.9585    7.3518 C   0  0  0  0  0  0  0  0  0  0  0  0
  -43.4793  -28.7521    1.3494 C   0  0  0  0  0  0  0  0  0  0  0  0
  -42.3394  -30.5485    1.2772 C   0  0  0  0  0  0  0  0  0  0  0  0
  -43.5784  -30.8792    0.7798 C   0  0  0  0  0  0  0  0  0  0  0  0
  -48.6515  -30.2684    5.7092 C   0  0  0  0  0  0  0  0  0  0  0  0
  -50.5225  -31.9165    6.9602 C   0  0  0  0  0  0  0  0  0  0  0  0
  -46.4057  -28.4533    1.2287 C   0  0  0  0  0  0  0  0  0  0  0  0
  -48.0765  -28.1410    4.5312 C   0  0  0  0  0  0  0  0  0  0  0  0
  -46.4669  -30.0016    4.5648 C   0  0  0  0  0  0  0  0  0  0  0  0
  -48.2011  -28.2399    3.0125 C   0  0  0  0  0  0  0  0  0  0  0  0
  -46.5680  -30.1209    3.0428 C   0  0  0  0  0  0  0  0  0  0  0  0
  -45.7201  -29.5165    0.4074 C   0  0  0  0  0  0  0  0  0  0  0  0
  -40.2744  -32.0665    1.5846 N   0  0  0  0  0  0  0  0  0  0  0  0
  -44.4422  -33.1533   -0.0822 N   0  0  0  0  0  0  0  0  0  0  0  0
  -42.2843  -29.2237    1.6299 N   0  0  0  0  0  0  0  0  0  0  0  0
  -44.2973  -29.7182    0.8322 N   0  0  0  0  0  0  0  0  0  0  0  0
  -47.7183  -29.4462    5.0857 N   0  0  0  0  0  0  0  0  0  0  0  0
  -47.0139  -28.8722    2.4142 N   0  0  0  0  0  0  0  0  0  0  0  0
  -46.4031  -27.2866    0.8257 O   0  0  0  0  0  0  0  0  0  0  0  0
  -51.4213  -32.7078    7.5606 F   0  0  0  0  0  0  0  0  0  0  0  0
  -50.3142  -29.5549    4.5269 H   0  0  0  0  0  0  0  0  0  0  0  0
  -47.2089  -31.1748    7.0394 H   0  0  0  0  0  0  0  0  0  0  0  0
  -51.9668  -31.0182    5.6391 H   0  0  0  0  0  0  0  0  0  0  0  0
  -48.8714  -32.6330    8.1437 H   0  0  0  0  0  0  0  0  0  0  0  0
  -43.8061  -27.7318    1.4975 H   0  0  0  0  0  0  0  0  0  0  0  0
  -47.3109  -27.4044    4.7776 H   0  0  0  0  0  0  0  0  0  0  0  0
  -49.0230  -27.8073    4.9594 H   0  0  0  0  0  0  0  0  0  0  0  0
  -46.2746  -30.9874    4.9805 H   0  0  0  0  0  0  0  0  0  0  0  0
  -45.6445  -29.3455    4.8357 H   0  0  0  0  0  0  0  0  0  0  0  0
  -49.0861  -28.8100    2.7536 H   0  0  0  0  0  0  0  0  0  0  0  0
  -48.2848  -27.2475    2.5767 H   0  0  0  0  0  0  0  0  0  0  0  0
  -45.6008  -30.4210    2.6297 H   0  0  0  0  0  0  0  0  0  0  0  0
  -47.2922  -30.8951    2.7672 H   0  0  0  0  0  0  0  0  0  0  0  0
  -45.7725  -29.2273   -0.6426 H   0  0  0  0  0  0  0  0  0  0  0  0
  -46.2863  -30.4434    0.5025 H   0  0  0  0  0  0  0  0  0  0  0  0
  1  8  1  0  0  0  0
  1 18  3  0  0  0  0
  2  9  1  0  0  0  0
  2 19  3  0  0  0  0
  3  5  1  0  0  0  0
  3 10  2  0  0  0  0
  4  6  2  0  0  0  0
  4 10  1  0  0  0  0
  5 11  2  0  0  0  0
  6 11  1  0  0  0  0
  7 20  2  0  0  0  0
  7 21  1  0  0  0  0
  8  9  2  0  0  0  0
  8 20  1  0  0  0  0
  9 21  1  0  0  0  0
 10 22  1  0  0  0  0
 11 25  1  0  0  0  0
 12 17  1  0  0  0  0
 12 23  1  0  0  0  0
 12 24  2  0  0  0  0
 13 15  1  0  0  0  0
 13 22  1  0  0  0  0
 14 16  1  0  0  0  0
 14 22  1  0  0  0  0
 15 23  1  0  0  0  0
 16 23  1  0  0  0  0
 17 21  1  0  0  0  0
  3 26  1  0  0  0  0
  4 27  1  0  0  0  0
  5 28  1  0  0  0  0
  6 29  1  0  0  0  0
  7 30  1  0  0  0  0
 13 31  1  0  0  0  0
 13 32  1  0  0  0  0
 14 33  1  0  0  0  0
 14 34  1  0  0  0  0
 15 35  1  0  0  0  0
 15 36  1  0  0  0  0
 16 37  1  0  0  0  0
 16 38  1  0  0  0  0
 17 39  1  0  0  0  0
 17 40  1  0  0  0  0
M  END
> <POSIT::Probability>
0.05

> <POSIT::Method>
FRED

> <ReceptorTitle>
UCSF-P4606-REFINED_LIGAND-BOUND-STATE_AALTB__DU__LA1_A-201(A)

> <OMEGA_C>
pM8kwmUS+8HAIrk//jYwws6FAMLAX5w+RfVHwrTP8cG9KapAA/9AwmwT+cGqO9dAKbNLwmBn+MHw
L75A2rxEwg+r/8HaQetAzeotwkIE5sGIuKw/lFspwlJj9MGAe6M/UVAuwqMI98EooUc/HptCwsEl
8sGTsbZADxdKwgpV/8EGut5Aep85wnKg48FwR50/YU5AwrQg4cHA/5BAG945wj4D8METE5JA9s1A
wj/r4cE4zEBAm0U6wrD38MEuvUJAZeE2wt0h7MHAmdA+/BghwiBEAMK41co/08QxwvScBMLAQKi9
GiMpwibK6cHIoNA/eDAxws2+7cEYClU/hN8+wt2R68ENvqJAQQ48wkP65sFUghpAy5w5wgFL2sH4
YVM/Zq9NwsDUAsJF8PFAwEFJwodw7MEO3JBA7dU8whZm+cGYQuFA9N1Pwkwl+MGOc7RATnxDwiaI
AsKSTAJBbDkvws7a3cFkrr8/aD49wh0828F/4phAlhdEwml13sGls55ALxk5whvm98GAYJ9A95M2
wpbD6sH6vZpANFhEwsl65sGDOjBApyNBwtj62cFt6CRALGc2wjhe88HvTChAPys9wjop98FLGTFA
DRc3wnHR6cH4giS/LiU5wgyM88HgoAA/

> <OMEGA_E>
LkbmwA==

> <OMEGA_NBR>
      2712

$$$$
CACHE3HI_1704_15
  -OEChem-03092622523D

 52 55  0     1  0  0  0  0  0999 V2000
  -49.6936  -29.1383    2.8896 C   0  0  0  0  0  0  0  0  0  0  0  0
  -50.3385  -29.2549    4.1190 C   0  0  0  0  0  0  0  0  0  0  0  0
  -48.2982  -29.0629    2.8163 C   0  0  0  0  0  0  0  0  0  0  0  0
  -49.6125  -29.2997    5.3121 C   0  0  0  0  0  0  0  0  0  0  0  0
  -46.0115  -29.1434    5.6664 C   0  0  0  0  0  0  0  0  0  0  0  0
  -47.5446  -29.1067    4.0064 C   0  0  0  0  0  0  0  0  0  0  0  0
  -46.1531  -29.0572    4.3007 C   0  0  0  0  0  0  0  0  0  0  0  0
  -48.2176  -29.2236    5.2243 C   0  0  0  0  0  0  0  0  0  0  0  0
  -43.4450  -30.5753    4.3061 C   0  0  0  0  0  0  0  0  0  0  0  0
  -44.1104  -30.7272    0.6005 C   0  0  0  0  0  0  0  0  0  0  0  0
  -45.5183  -32.5287    1.6053 C   0  0  0  0  0  0  0  0  0  0  0  0
  -45.9180  -31.7404   -0.7701 C   0  0  0  0  0  0  0  0  0  0  0  0
  -44.8903  -33.7987    1.0193 C   0  0  0  0  0  0  0  0  0  0  0  0
  -45.2599  -33.0397   -1.2486 C   0  0  0  0  0  0  0  0  0  0  0  0
  -41.4078  -30.3936    2.8656 C   0  0  0  0  0  0  0  0  0  0  0  0
  -42.2590  -29.6758    1.8433 C   0  0  0  0  0  0  0  0  0  0  0  0
  -44.3231  -30.2707    3.0911 C   0  0  1  0  0  0  0  0  0  0  0  0
  -45.4787  -31.3442    0.6398 C   0  0  0  0  0  0  0  0  0  0  0  0
  -46.7476  -34.6962   -0.2685 C   0  0  0  0  0  0  0  0  0  0  0  0
  -45.0323  -28.9327    3.3077 C   0  0  0  0  0  0  0  0  0  0  0  0
  -47.2622  -29.2433    6.2152 N   0  0  0  0  0  0  0  0  0  0  0  0
  -42.0812  -30.5183    4.1393 N   0  0  0  0  0  0  0  0  0  0  0  0
  -43.5906  -30.2714    1.8161 N   0  0  0  0  0  0  0  0  0  0  0  0
  -45.3900  -34.1610   -0.3116 N   0  0  0  0  0  0  0  0  0  0  0  0
  -43.9548  -30.7787    5.4116 O   0  0  0  0  0  0  0  0  0  0  0  0
  -43.5118  -30.6614   -0.4765 O   0  0  0  0  0  0  0  0  0  0  0  0
  -50.2799  -29.1057    1.9754 H   0  0  0  0  0  0  0  0  0  0  0  0
  -51.4236  -29.3120    4.1521 H   0  0  0  0  0  0  0  0  0  0  0  0
  -47.8100  -28.9732    1.8501 H   0  0  0  0  0  0  0  0  0  0  0  0
  -50.1153  -29.3909    6.2689 H   0  0  0  0  0  0  0  0  0  0  0  0
  -45.1344  -29.1427    6.2987 H   0  0  0  0  0  0  0  0  0  0  0  0
  -46.5670  -32.7369    1.8564 H   0  0  0  0  0  0  0  0  0  0  0  0
  -45.0127  -32.2783    2.5462 H   0  0  0  0  0  0  0  0  0  0  0  0
  -45.6967  -30.9400   -1.4824 H   0  0  0  0  0  0  0  0  0  0  0  0
  -47.0049  -31.8773   -0.7675 H   0  0  0  0  0  0  0  0  0  0  0  0
  -43.7832  -33.6918    1.0052 H   0  0  0  0  0  0  0  0  0  0  0  0
  -45.0920  -34.6294    1.7279 H   0  0  0  0  0  0  0  0  0  0  0  0
  -45.7259  -33.3130   -2.2174 H   0  0  0  0  0  0  0  0  0  0  0  0
  -44.1909  -32.8500   -1.4830 H   0  0  0  0  0  0  0  0  0  0  0  0
  -41.1664  -31.4075    2.5282 H   0  0  0  0  0  0  0  0  0  0  0  0
  -40.4677  -29.8598    3.0355 H   0  0  0  0  0  0  0  0  0  0  0  0
  -42.3670  -28.6152    2.0974 H   0  0  0  0  0  0  0  0  0  0  0  0
  -41.7812  -29.7254    0.8599 H   0  0  0  0  0  0  0  0  0  0  0  0
  -45.0778  -31.0626    3.0672 H   0  0  0  0  0  0  0  0  0  0  0  0
  -46.1440  -30.5536    1.0104 H   0  0  0  0  0  0  0  0  0  0  0  0
  -47.0906  -34.9562   -1.2740 H   0  0  0  0  0  0  0  0  0  0  0  0
  -46.7805  -35.5932    0.3564 H   0  0  0  0  0  0  0  0  0  0  0  0
  -47.4320  -33.9561    0.1554 H   0  0  0  0  0  0  0  0  0  0  0  0
  -44.3064  -28.1905    3.6519 H   0  0  0  0  0  0  0  0  0  0  0  0
  -45.4177  -28.5677    2.3508 H   0  0  0  0  0  0  0  0  0  0  0  0
  -47.4562  -29.3199    7.2041 H   0  0  0  0  0  0  0  0  0  0  0  0
  -41.5037  -30.5673    4.9731 H   0  0  0  0  0  0  0  0  0  0  0  0
  1  2  2  0  0  0  0
  1  3  1  0  0  0  0
  2  4  1  0  0  0  0
  3  6  2  0  0  0  0
  4  8  2  0  0  0  0
  5  7  2  0  0  0  0
  5 21  1  0  0  0  0
  6  7  1  0  0  0  0
  6  8  1  0  0  0  0
  7 20  1  0  0  0  0
  8 21  1  0  0  0  0
  9 17  1  0  0  0  0
  9 22  1  0  0  0  0
  9 25  2  0  0  0  0
 10 18  1  0  0  0  0
 10 23  1  0  0  0  0
 10 26  2  0  0  0  0
 11 13  1  0  0  0  0
 11 18  1  0  0  0  0
 12 14  1  0  0  0  0
 12 18  1  0  0  0  0
 13 24  1  0  0  0  0
 14 24  1  0  0  0  0
 15 16  1  0  0  0  0
 15 22  1  0  0  0  0
 16 23  1  0  0  0  0
 17 20  1  0  0  0  0
 17 23  1  0  0  0  0
 19 24  1  0  0  0  0
  1 27  1  0  0  0  0
  2 28  1  0  0  0  0
  3 29  1  0  0  0  0
  4 30  1  0  0  0  0
  5 31  1  0  0  0  0
 11 32  1  0  0  0  0
 11 33  1  0  0  0  0
 12 34  1  0  0  0  0
 12 35  1  0  0  0  0
 13 36  1  0  0  0  0
 13 37  1  0  0  0  0
 14 38  1  0  0  0  0
 14 39  1  0  0  0  0
 15 40  1  0  0  0  0
 15 41  1  0  0  0  0
 16 42  1  0  0  0  0
 16 43  1  0  0  0  0
 17 44  1  0  0  0  0
 18 45  1  0  0  0  0
 19 46  1  0  0  0  0
 19 47  1  0  0  0  0
 19 48  1  0  0  0  0
 20 49  1  0  0  0  0
 20 50  1  0  0  0  0
 21 51  1  0  0  0  0
 22 52  1  0  0  0  0
M  END
> <POSIT::Probability>
0.33

> <POSIT::Method>
HYBRID

> <ReceptorTitle>
UCSF-P4606-REFINED_LIGAND-BOUND-STATE_AALTB__DU__LA1_A-201(A)

> <OMEGA_C>
RMZGwkQb6cEE8DhAqFpJwv4J6sEyz4NAVzFBws+A6MF0PjRAL3NGwrhl6sEe/alAyws4wrMl6cFF
U7VAry0+wpfa6ME3NIBAvpw4wih16MGTn4lA1d5Awu7J6cGuLadAucctwjqa9MEzy4lAGXEwwlDR
9cEQuxk/vBI2wmcdAsIwec0//qs3wlLs/cGQJ0W/o48zwt0xB8LgeII/Hgo1wqUoBMLA05+/lqEl
wiAm88GqZjdAPwkpwvdn7cEY8es/1koxwn0q8sFo1EVALeo1wvnA+sGQzCM/kv06wvDICsIAdIm+
HCE0wit258GUsFNAcgw9wkny6cHj4sZAKFMowmEl9MFrdYRAzVwuwror8sFgdeg/Yo81wuakCMLg
hJ++v9EvwsQ69sH4K61AGgwuwnNK9cEA9/O+mh5JwofY6MG42fw/z7FNwhN/6sHM3YRAdz0/wh/J
58G4zuw/FHZIwpEg68Ehm8hAoYk0wksk6cEDj8lAmkQ6wp3yAsKQn+0/+gw0wgcdAcLQ9CJAY8k2
whWF98FYwL2/CgU8wqQE/8FQekS/CiIvwnTEBsLQqYA/L140wo6ECsIILN0/S+c2wotABcI46Q3A
hsMwwm9mA8KA0r2/XKokwqJC+8GyziFA7d4hwtHg7sGORUJAx3cpwubr5MFgPAZA/x8nwo7N7cHg
IVw/sk80wiiA+MGcTERAbJM4wtxt9MFIU4E/y1w8wizTC8LAE6O/Rh87wmtfDsIgd7Y+Wbo9whHT
B8JAJx8+xDkxwjiG4cFUuGlAtas1wqCK5MEQcxZAMdM9whGP6sHhh+ZAywMmwt+J9MFoI59A

> <OMEGA_E>
0B4NwQ==

> <OMEGA_NBR>
      4262

$$$$
CACHE3HI_1706_36
  -OEChem-03092622523D

 39 42  0     0  0  0  0  0  0999 V2000
  -43.5877  -32.6839    1.7033 C   0  0  0  0  0  0  0  0  0  0  0  0
  -44.8634  -33.0699    2.0224 C   0  0  0  0  0  0  0  0  0  0  0  0
  -44.1467  -31.7579    3.7056 C   0  0  0  0  0  0  0  0  0  0  0  0
  -47.3845  -29.3211    3.8365 C   0  0  0  0  0  0  0  0  0  0  0  0
  -48.0451  -28.9878    5.0166 C   0  0  0  0  0  0  0  0  0  0  0  0
  -45.4136  -29.8908    5.0145 C   0  0  0  0  0  0  0  0  0  0  0  0
  -46.0405  -29.4312    6.2654 C   0  0  0  0  0  0  0  0  0  0  0  0
  -43.1431  -32.1552    0.3651 C   0  0  0  0  0  0  0  0  0  0  0  0
  -48.1152  -29.3881    2.5015 C   0  0  0  0  0  0  0  0  0  0  0  0
  -49.5241  -28.6480    5.0515 C   0  0  0  0  0  0  0  0  0  0  0  0
  -42.9434  -30.6680    0.6535 C   0  0  0  0  0  0  0  0  0  0  0  0
  -49.5005  -28.7136    2.5314 C   0  0  0  0  0  0  0  0  0  0  0  0
  -50.2714  -29.1240    3.7926 C   0  0  0  0  0  0  0  0  0  0  0  0
  -42.5256  -30.6579    2.1208 C   0  0  0  0  0  0  0  0  0  0  0  0
  -45.8356  -33.7444    1.0754 C   0  0  0  0  0  0  0  0  0  0  0  0
  -45.1265  -32.5801    3.3402 N   0  0  0  0  0  0  0  0  0  0  0  0
  -46.0513  -29.7636    3.8634 N   0  0  0  0  0  0  0  0  0  0  0  0
  -43.2672  -31.8039    2.6789 N   0  0  0  0  0  0  0  0  0  0  0  0
  -47.3431  -28.9809    6.2205 N   0  0  0  0  0  0  0  0  0  0  0  0
  -45.4299  -29.4535    7.3275 O   0  0  0  0  0  0  0  0  0  0  0  0
  -43.8696  -30.7335    5.1197 S   0  0  0  0  0  0  0  0  0  0  0  0
  -42.2040  -32.6280    0.0418 H   0  0  0  0  0  0  0  0  0  0  0  0
  -43.9157  -32.3121   -0.4020 H   0  0  0  0  0  0  0  0  0  0  0  0
  -47.4990  -28.8870    1.7405 H   0  0  0  0  0  0  0  0  0  0  0  0
  -48.2473  -30.4454    2.2283 H   0  0  0  0  0  0  0  0  0  0  0  0
  -49.9752  -29.1291    5.9319 H   0  0  0  0  0  0  0  0  0  0  0  0
  -49.6329  -27.5565    5.1341 H   0  0  0  0  0  0  0  0  0  0  0  0
  -42.1549  -30.2435    0.0146 H   0  0  0  0  0  0  0  0  0  0  0  0
  -43.8778  -30.1070    0.5043 H   0  0  0  0  0  0  0  0  0  0  0  0
  -49.3712  -27.6212    2.5257 H   0  0  0  0  0  0  0  0  0  0  0  0
  -50.0714  -29.0199    1.6425 H   0  0  0  0  0  0  0  0  0  0  0  0
  -50.3673  -30.2195    3.8195 H   0  0  0  0  0  0  0  0  0  0  0  0
  -51.2726  -28.6688    3.7707 H   0  0  0  0  0  0  0  0  0  0  0  0
  -41.4398  -30.7999    2.2246 H   0  0  0  0  0  0  0  0  0  0  0  0
  -42.8210  -29.7182    2.6105 H   0  0  0  0  0  0  0  0  0  0  0  0
  -46.8241  -33.8150    1.5529 H   0  0  0  0  0  0  0  0  0  0  0  0
  -45.9164  -33.1537    0.1510 H   0  0  0  0  0  0  0  0  0  0  0  0
  -45.4718  -34.7542    0.8347 H   0  0  0  0  0  0  0  0  0  0  0  0
  -47.7850  -28.6486    7.0537 H   0  0  0  0  0  0  0  0  0  0  0  0
  1  2  2  0  0  0  0
  1  8  1  0  0  0  0
  1 18  1  0  0  0  0
  2 15  1  0  0  0  0
  2 16  1  0  0  0  0
  3 16  2  0  0  0  0
  3 18  1  0  0  0  0
  3 21  1  0  0  0  0
  4  5  2  0  0  0  0
  4  9  1  0  0  0  0
  4 17  1  0  0  0  0
  5 10  1  0  0  0  0
  5 19  1  0  0  0  0
  6  7  1  0  0  0  0
  6 17  2  0  0  0  0
  6 21  1  0  0  0  0
  7 19  1  0  0  0  0
  7 20  2  0  0  0  0
  8 11  1  0  0  0  0
  9 12  1  0  0  0  0
 10 13  1  0  0  0  0
 11 14  1  0  0  0  0
 12 13  1  0  0  0  0
 14 18  1  0  0  0  0
  8 22  1  0  0  0  0
  8 23  1  0  0  0  0
  9 24  1  0  0  0  0
  9 25  1  0  0  0  0
 10 26  1  0  0  0  0
 10 27  1  0  0  0  0
 11 28  1  0  0  0  0
 11 29  1  0  0  0  0
 12 30  1  0  0  0  0
 12 31  1  0  0  0  0
 13 32  1  0  0  0  0
 13 33  1  0  0  0  0
 14 34  1  0  0  0  0
 14 35  1  0  0  0  0
 15 36  1  0  0  0  0
 15 37  1  0  0  0  0
 15 38  1  0  0  0  0
 19 39  1  0  0  0  0
M  END
> <POSIT::Probability>
0.5

> <POSIT::Method>
SHAPEFIT

> <ReceptorTitle>
UCSF-P4606-REFINED_LIGAND-BOUND-STATE_AALTB__DU__LA1_A-201(A)

> <OMEGA_C>
1VkuwlW8AsKuBto/GXQzwo1HBMKlbwFAM5Ywwh4Q/sGIKG1Atok9wreR6sGmiXVAMC5Awu7m58Hq
h6BAkqc1wlkg78EMd6BAfik4witz68FcfshAjpIswuKeAMLw67o+9XVAwuUa68GNGCBArRhGwi8v
5cESpqFADcYrwvpX9cE4SSc/ewBGwlq15cHfAiJA9BVJwuL96MGUunJAQBoqwlBD9cGAugdApFc3
wkP6BsLUp4k/goE0wgRSAsJUxlVAkjQ4wsEb7sHrQXdAmREtwlxu/sHJcitAUl89wuDY58FmDsdA
Qrg1wt2g68HBeupAeHovwkTe9cGQ1KNA69AowhODAsLdNSs9rqkvwpI/AcJt2c2+9v49wpcY58G5
x94/SP1Awj6Q88Hkmw5Ap+ZHwnUI6cHp0b1AD4hGwtBz3MGOSqRApJ4owpjy8cFT+2884IIvwjTb
8MHqFgE/JnxFwi/43MEipSFAJ0lIwrso6MEYPtI/FHhJwnLB8cHmcXRAIRdNwp1Z5cFdUnFAW8Il
wi9m9sGpYA5AvkgrwvO+7cEmEidA1Us7wpZCB8J1xMY/Y6o3wlydBMKRqBo+KeM1wk4EC8Luq1U/
2iM/wlow5cFLuOFA

> <OMEGA_E>
mF5EPw==

> <OMEGA_NBR>
      5574

$$$$
CACHE3HI_1706_93
  -OEChem-03092622523D

 48 50  0     1  0  0  0  0  0999 V2000
  -49.8880  -31.6960   -0.1729 C   0  0  0  0  0  0  0  0  0  0  0  0
  -48.0841  -32.4205    1.3113 C   0  0  0  0  0  0  0  0  0  0  0  0
  -47.5601  -31.1277   -0.6614 C   0  0  0  0  0  0  0  0  0  0  0  0
  -46.7288  -32.4714    1.6372 C   0  0  0  0  0  0  0  0  0  0  0  0
  -46.2048  -31.1786   -0.3356 C   0  0  0  0  0  0  0  0  0  0  0  0
  -48.7651  -29.4884    5.5277 C   0  0  0  0  0  0  0  0  0  0  0  0
  -49.4391  -28.2609    3.6051 C   0  0  0  0  0  0  0  0  0  0  0  0
  -47.3769  -27.8373    4.5260 C   0  0  0  0  0  0  0  0  0  0  0  0
  -48.4997  -31.7483    0.1620 C   0  0  0  0  0  0  0  0  0  0  0  0
  -45.7892  -31.8507    0.8138 C   0  0  0  0  0  0  0  0  0  0  0  0
  -49.7249  -29.2280    4.5559 C   0  0  0  0  0  0  0  0  0  0  0  0
  -47.5663  -28.7843    5.5195 C   0  0  0  0  0  0  0  0  0  0  0  0
  -43.9899  -31.3533    3.6021 C   0  0  0  0  0  0  0  0  0  0  0  0
  -45.2570  -29.4587    6.2899 C   0  0  0  0  0  0  0  0  0  0  0  0
  -43.1818  -29.1166    3.3328 C   0  0  0  0  0  0  0  0  0  0  0  0
  -43.7857  -29.6007    2.0267 C   0  0  0  0  0  0  0  0  0  0  0  0
  -43.7097  -30.0920    4.3803 C   0  0  1  0  0  0  0  0  0  0  0  0
  -52.0924  -29.2592    5.3643 C   0  0  0  0  0  0  0  0  0  0  0  0
  -44.3301  -31.9066    1.1648 C   0  0  0  0  0  0  0  0  0  0  0  0
  -51.0169  -29.9642    4.5376 C   0  0  0  0  0  0  0  0  0  0  0  0
  -51.0154  -31.6534   -0.4447 N   0  0  0  0  0  0  0  0  0  0  0  0
  -48.2857  -27.5567    3.5654 N   0  0  0  0  0  0  0  0  0  0  0  0
  -44.0001  -31.0105    2.2522 N   0  0  0  0  0  0  0  0  0  0  0  0
  -46.5705  -29.0270    6.4949 N   0  0  0  0  0  0  0  0  0  0  0  0
  -45.0050  -29.6410    4.9204 N   0  0  0  0  0  0  0  0  0  0  0  0
  -44.2115  -32.4467    4.1025 O   0  0  0  0  0  0  0  0  0  0  0  0
  -44.4100  -29.6628    7.1561 O   0  0  0  0  0  0  0  0  0  0  0  0
  -50.9168  -31.2442    5.0248 F   0  0  0  0  0  0  0  0  0  0  0  0
  -51.5295  -30.1254    3.2735 F   0  0  0  0  0  0  0  0  0  0  0  0
  -48.8045  -32.9099    1.9628 H   0  0  0  0  0  0  0  0  0  0  0  0
  -47.8694  -30.6013   -1.5612 H   0  0  0  0  0  0  0  0  0  0  0  0
  -46.4134  -32.9980    2.5340 H   0  0  0  0  0  0  0  0  0  0  0  0
  -45.4793  -30.6928   -0.9828 H   0  0  0  0  0  0  0  0  0  0  0  0
  -48.9536  -30.2405    6.2901 H   0  0  0  0  0  0  0  0  0  0  0  0
  -50.1494  -28.0144    2.8220 H   0  0  0  0  0  0  0  0  0  0  0  0
  -46.4619  -27.2556    4.4676 H   0  0  0  0  0  0  0  0  0  0  0  0
  -42.0885  -29.1966    3.2825 H   0  0  0  0  0  0  0  0  0  0  0  0
  -43.4259  -28.0721    3.5506 H   0  0  0  0  0  0  0  0  0  0  0  0
  -44.7548  -29.1316    1.8281 H   0  0  0  0  0  0  0  0  0  0  0  0
  -43.1151  -29.4434    1.1771 H   0  0  0  0  0  0  0  0  0  0  0  0
  -43.0303  -30.2463    5.1967 H   0  0  0  0  0  0  0  0  0  0  0  0
  -53.0320  -29.8210    5.3340 H   0  0  0  0  0  0  0  0  0  0  0  0
  -52.2946  -28.2560    4.9750 H   0  0  0  0  0  0  0  0  0  0  0  0
  -51.7908  -29.1760    6.4140 H   0  0  0  0  0  0  0  0  0  0  0  0
  -44.0437  -32.9203    1.4639 H   0  0  0  0  0  0  0  0  0  0  0  0
  -43.7087  -31.6332    0.3056 H   0  0  0  0  0  0  0  0  0  0  0  0
  -46.8434  -28.8682    7.4619 H   0  0  0  0  0  0  0  0  0  0  0  0
  -45.7741  -29.4820    4.2691 H   0  0  0  0  0  0  0  0  0  0  0  0
  1  9  1  0  0  0  0
  1 21  3  0  0  0  0
  2  4  2  0  0  0  0
  2  9  1  0  0  0  0
  3  5  1  0  0  0  0
  3  9  2  0  0  0  0
  4 10  1  0  0  0  0
  5 10  2  0  0  0  0
  6 11  1  0  0  0  0
  6 12  2  0  0  0  0
  7 11  2  0  0  0  0
  7 22  1  0  0  0  0
  8 12  1  0  0  0  0
  8 22  2  0  0  0  0
 10 19  1  0  0  0  0
 11 20  1  0  0  0  0
 12 24  1  0  0  0  0
 13 17  1  0  0  0  0
 13 23  1  0  0  0  0
 13 26  2  0  0  0  0
 14 24  1  0  0  0  0
 14 25  1  0  0  0  0
 14 27  2  0  0  0  0
 15 16  1  0  0  0  0
 15 17  1  0  0  0  0
 16 23  1  0  0  0  0
 17 25  1  0  0  0  0
 18 20  1  0  0  0  0
 19 23  1  0  0  0  0
 20 28  1  0  0  0  0
 20 29  1  0  0  0  0
  2 30  1  0  0  0  0
  3 31  1  0  0  0  0
  4 32  1  0  0  0  0
  5 33  1  0  0  0  0
  6 34  1  0  0  0  0
  7 35  1  0  0  0  0
  8 36  1  0  0  0  0
 15 37  1  0  0  0  0
 15 38  1  0  0  0  0
 16 39  1  0  0  0  0
 16 40  1  0  0  0  0
 17 41  1  0  0  0  0
 18 42  1  0  0  0  0
 18 43  1  0  0  0  0
 18 44  1  0  0  0  0
 19 45  1  0  0  0  0
 19 46  1  0  0  0  0
 24 47  1  0  0  0  0
 25 48  1  0  0  0  0
M  END
> <POSIT::Probability>
0.18

> <POSIT::Method>
FRED

> <ReceptorTitle>
UCSF-P4606-REFINED_LIGAND-BOUND-STATE_AALTB__DU__LA1_A-201(A)

> <OMEGA_C>
So1HwnSR/cFgBjG+KVZAwouuAcKc2ac/lz0+wnMF+cHIUSm/Seo6wr7iAcJUjtE/xNE4ws1t+cEA
1qu+fg9DwkHo68GL4rBArsFFwlYW4sFIuWZA7oE9wsay3sG+1JBAtv9Bwp78/cEg3SU+Kyg3wlHO
/sGIU1A/QuZGwgLT6cG9yZFA30M+wixG5sHan7BAr/UvwoXT+sEwiGZAMgc1wnWr68EpR8lAH7os
wsru6MFYTVVAiiQvwjzO7MEitQFAsNYuwny88MFzK4xAl15Qws4S6sEKqKtAAVIxwqdA/8GsF5U/
UBFMwpi278EaNJFA0Q9MwkM6/cHQrOO+kyRBwiN03MFmL2RAEwAwwoYV+MGAIxBAN0g6wlA36MHc
1c9AFAU0wtQg7cGRc51Ai9gwwl/JAcK3R4NAyqMxwl5N7cH6/uRA1KpLwhT0+cEDy6BANR5OwukA
8cGvgFFAzDdDwrujA8JwPvs/PHo/wnPP9MHM1se/Wqc5wvn9A8LKLCJA0uo1wuuK9cFomHu/ddBD
wn7s8cHJSMlA9JhIwood4MExnDRA+Ng5woML2sG29o5AnFoowqWS6cECFFJAGLQtwqiT4MEAPWNA
8AQzwoYN6cGI/uk/6XUswiKM68GsqpY/Eh8swoX48cEDS6ZAuSBUwmmR7sGEsKpAqi1RwjYM4sHq
Mp9AwClPwnto6cFNP81AtywwwmCuA8IsYrs/vtUuwsoQ/cEAd5w+r187wgny5sHcx+5Aphg3whfb
68EwnIhA

> <OMEGA_E>
VvbSwA==

> <OMEGA_NBR>
      7035

$$$$
CACHE3HI_1707_47
  -OEChem-03092622523D

 45 47  0     1  0  0  0  0  0999 V2000
  -47.2539  -28.1098    6.3948 C   0  0  0  0  0  0  0  0  0  0  0  0
  -47.7022  -28.4814    5.1487 C   0  0  0  0  0  0  0  0  0  0  0  0
  -47.8533  -33.1946    2.3047 C   0  0  0  0  0  0  0  0  0  0  0  0
  -45.7767  -29.4394    5.6321 C   0  0  0  0  0  0  0  0  0  0  0  0
  -45.9894  -33.0840    1.4149 C   0  0  0  0  0  0  0  0  0  0  0  0
  -43.7078  -31.9928    3.0577 C   0  0  0  0  0  0  0  0  0  0  0  0
  -41.5987  -29.5855    2.1085 C   0  0  0  0  0  0  0  0  0  0  0  0
  -42.2436  -30.1439    0.8495 C   0  0  0  0  0  0  0  0  0  0  0  0
  -41.5593  -30.5743    3.2669 C   0  0  0  0  0  0  0  0  0  0  0  0
  -43.7172  -30.4728    1.0253 C   0  0  0  0  0  0  0  0  0  0  0  0
  -42.9028  -30.9874    3.8696 C   0  0  1  0  0  0  0  0  0  0  0  0
  -49.0117  -32.8513    3.1372 C   0  0  0  0  0  0  0  0  0  0  0  0
  -46.7721  -29.9953    3.3898 C   0  0  0  0  0  0  0  0  0  0  0  0
  -44.5609  -30.3023    5.4513 C   0  0  0  0  0  0  0  0  0  0  0  0
  -44.6091  -32.7744    0.9105 C   0  0  0  0  0  0  0  0  0  0  0  0
  -46.0554  -28.7092    6.6896 N   0  0  0  0  0  0  0  0  0  0  0  0
  -46.7368  -32.4119    2.2536 N   0  0  0  0  0  0  0  0  0  0  0  0
  -47.8258  -34.2965    1.5493 N   0  0  0  0  0  0  0  0  0  0  0  0
  -46.7454  -29.3333    4.6728 N   0  0  0  0  0  0  0  0  0  0  0  0
  -43.9539  -31.7452    1.7101 N   0  0  0  0  0  0  0  0  0  0  0  0
  -43.7767  -29.9011    4.2966 N   0  0  0  0  0  0  0  0  0  0  0  0
  -44.1089  -33.0128    3.6336 O   0  0  0  0  0  0  0  0  0  0  0  0
  -46.5639  -34.2226    0.9461 O   0  0  0  0  0  0  0  0  0  0  0  0
  -47.7336  -27.4410    7.0942 H   0  0  0  0  0  0  0  0  0  0  0  0
  -48.5860  -28.2241    4.5817 H   0  0  0  0  0  0  0  0  0  0  0  0
  -40.5834  -29.2525    1.8812 H   0  0  0  0  0  0  0  0  0  0  0  0
  -42.1594  -28.7021    2.4226 H   0  0  0  0  0  0  0  0  0  0  0  0
  -42.1016  -29.4542    0.0084 H   0  0  0  0  0  0  0  0  0  0  0  0
  -41.7137  -31.0666    0.5813 H   0  0  0  0  0  0  0  0  0  0  0  0
  -41.0289  -31.4780    2.8898 H   0  0  0  0  0  0  0  0  0  0  0  0
  -40.8898  -30.1735    4.0628 H   0  0  0  0  0  0  0  0  0  0  0  0
  -44.2000  -29.6743    1.6131 H   0  0  0  0  0  0  0  0  0  0  0  0
  -44.2388  -30.4891    0.0550 H   0  0  0  0  0  0  0  0  0  0  0  0
  -42.6739  -31.5477    4.8899 H   0  0  0  0  0  0  0  0  0  0  0  0
  -49.7499  -32.2269    2.5983 H   0  0  0  0  0  0  0  0  0  0  0  0
  -48.7289  -32.2691    4.0353 H   0  0  0  0  0  0  0  0  0  0  0  0
  -49.5423  -33.7559    3.4875 H   0  0  0  0  0  0  0  0  0  0  0  0
  -46.2832  -29.3839    2.6239 H   0  0  0  0  0  0  0  0  0  0  0  0
  -47.8069  -30.1817    3.0861 H   0  0  0  0  0  0  0  0  0  0  0  0
  -46.2377  -30.9501    3.4316 H   0  0  0  0  0  0  0  0  0  0  0  0
  -43.9146  -30.2481    6.3336 H   0  0  0  0  0  0  0  0  0  0  0  0
  -44.8409  -31.3523    5.3172 H   0  0  0  0  0  0  0  0  0  0  0  0
  -43.9801  -33.6705    0.9326 H   0  0  0  0  0  0  0  0  0  0  0  0
  -44.6394  -32.4237   -0.1264 H   0  0  0  0  0  0  0  0  0  0  0  0
  -43.2024  -29.0970    4.5344 H   0  0  0  0  0  0  0  0  0  0  0  0
  1  2  2  0  0  0  0
  1 16  1  0  0  0  0
  2 19  1  0  0  0  0
  3 12  1  0  0  0  0
  3 17  1  0  0  0  0
  3 18  2  0  0  0  0
  4 14  1  0  0  0  0
  4 16  2  0  0  0  0
  4 19  1  0  0  0  0
  5 15  1  0  0  0  0
  5 17  2  0  0  0  0
  5 23  1  0  0  0  0
  6 11  1  0  0  0  0
  6 20  1  0  0  0  0
  6 22  2  0  0  0  0
  7  8  1  0  0  0  0
  7  9  1  0  0  0  0
  8 10  1  0  0  0  0
  9 11  1  0  0  0  0
 10 20  1  0  0  0  0
 11 21  1  0  0  0  0
 13 19  1  0  0  0  0
 14 21  1  0  0  0  0
 15 20  1  0  0  0  0
 18 23  1  0  0  0  0
  1 24  1  0  0  0  0
  2 25  1  0  0  0  0
  7 26  1  0  0  0  0
  7 27  1  0  0  0  0
  8 28  1  0  0  0  0
  8 29  1  0  0  0  0
  9 30  1  0  0  0  0
  9 31  1  0  0  0  0
 10 32  1  0  0  0  0
 10 33  1  0  0  0  0
 11 34  1  0  0  0  0
 12 35  1  0  0  0  0
 12 36  1  0  0  0  0
 12 37  1  0  0  0  0
 13 38  1  0  0  0  0
 13 39  1  0  0  0  0
 13 40  1  0  0  0  0
 14 41  1  0  0  0  0
 14 42  1  0  0  0  0
 15 43  1  0  0  0  0
 15 44  1  0  0  0  0
 21 45  1  0  0  0  0
M  END
> <POSIT::Probability>
0.18

> <POSIT::Method>
FRED

> <ReceptorTitle>
UCSF-P4606-REFINED_LIGAND-BOUND-STATE_AALTB__DU__LA1_A-201(A)

> <OMEGA_C>
8wM9wuDg4ME4osxAAc8+wtbZ48HCwaRAyGk/wkrHBMKEgBNAWhs3wvyD68FEOrRAGvU3wg9WBMLs
GrU/wdQuwkXx/8HYsENAHWUmwgyv7MFo8QZAe/kowsYm8cFAdlk/ujwmwheY9MGiFFFAbN4uwjrI
88EAPoM/cJwrwjTm98Gsp3dABgxEwsNnA8JAyEhAnhY7wnX278Fo8lhAVj4ywg5r8sHwcK5Aum8y
wvAYA8LQE2k/tTg4wmWs5cESEdZAcfI6wr6lAcK4OhBAlk0/wqAvCcIYT8Y/Ufs6wqCq6sFoh5VA
0NAvwhT2/cFI5No/VxsvwnQ178GIfYlAj28wwh0NBMJkjWhAdUE6wvbjCMIoMnI/Ke8+wiuH28Gy
A+NAClhCwgvL4cGCnZJAX1UiwhgF6sFgyvA/M6MowvWd5cGyCxtAEmgowhyi68EA7gg8zNomwniI
+MHQzxQ/kB0kwv3S+8H08jhAKY8jwkZj8cFSAoJAw8wwwgJl7cEges4/kvQwwr7p88GAMWE9CLIq
wqxh/MEYepxA4P9GwkzoAMI2SyZAXepCwo4TAcIjIYFAVCtGwgIGB8JgM19ACiI5wlIS68FS7SdA
TDo/wgZ08cHsgkVAcPM4wtqZ98GUnltAh6gvwiP88cH1rMpAGF0zwpDR+sFMJqpAn+svwoyuBsJA
vW4/w44ywuexAcIAegG+TM8swr/G6MGcGZFA

> <OMEGA_E>
uAXGwA==

> <OMEGA_NBR>
      8436

$$$$
CACHE3HI_1708_30
  -OEChem-03092622523D

 48 51  0     1  0  0  0  0  0999 V2000
  -49.9459  -29.0425    2.8005 C   0  0  0  0  0  0  0  0  0  0  0  0
  -47.4491  -33.6793   -1.2074 C   0  0  0  0  0  0  0  0  0  0  0  0
  -48.8901  -29.9699    2.8724 C   0  0  0  0  0  0  0  0  0  0  0  0
  -50.1019  -28.0772    3.8136 C   0  0  0  0  0  0  0  0  0  0  0  0
  -47.1277  -34.2921    0.0185 C   0  0  0  0  0  0  0  0  0  0  0  0
  -46.6984  -32.5771   -1.6592 C   0  0  0  0  0  0  0  0  0  0  0  0
  -47.9869  -29.9265    3.9519 C   0  0  0  0  0  0  0  0  0  0  0  0
  -49.1854  -28.0159    4.8825 C   0  0  0  0  0  0  0  0  0  0  0  0
  -46.0587  -33.8031    0.7950 C   0  0  0  0  0  0  0  0  0  0  0  0
  -45.6271  -32.0858   -0.8855 C   0  0  0  0  0  0  0  0  0  0  0  0
  -43.9415  -30.5784    5.7794 C   0  0  0  0  0  0  0  0  0  0  0  0
  -45.0115  -30.2162    6.5544 C   0  0  0  0  0  0  0  0  0  0  0  0
  -48.0903  -28.9151    4.9468 C   0  0  0  0  0  0  0  0  0  0  0  0
  -45.2988  -32.6881    0.3568 C   0  0  0  0  0  0  0  0  0  0  0  0
  -44.0973  -29.8792    4.4822 C   0  0  0  0  0  0  0  0  0  0  0  0
  -44.1161  -32.2142    2.5259 C   0  0  0  0  0  0  0  0  0  0  0  0
  -42.0699  -31.3038    1.6336 C   0  0  0  0  0  0  0  0  0  0  0  0
  -43.1521  -31.3297    0.5659 C   0  0  0  0  0  0  0  0  0  0  0  0
  -42.8749  -31.3869    2.9196 C   0  0  1  0  0  0  0  0  0  0  0  0
  -46.8835  -27.4249    6.6814 C   0  0  0  0  0  0  0  0  0  0  0  0
  -47.0874  -28.8558    6.1247 C   0  0  2  0  0  0  0  0  0  0  0  0
  -45.1708  -29.1262    4.5333 N   0  0  0  0  0  0  0  0  0  0  0  0
  -45.7456  -29.3871    5.7363 N   0  0  0  0  0  0  0  0  0  0  0  0
  -44.2090  -32.2065    1.1160 N   0  0  0  0  0  0  0  0  0  0  0  0
  -43.3247  -30.0354    3.3389 N   0  0  0  0  0  0  0  0  0  0  0  0
  -44.9474  -32.6221    3.3310 O   0  0  0  0  0  0  0  0  0  0  0  0
  -50.6354  -29.0710    1.9698 H   0  0  0  0  0  0  0  0  0  0  0  0
  -48.2702  -34.0540   -1.8004 H   0  0  0  0  0  0  0  0  0  0  0  0
  -48.7725  -30.7150    2.0996 H   0  0  0  0  0  0  0  0  0  0  0  0
  -50.9268  -27.3814    3.7714 H   0  0  0  0  0  0  0  0  0  0  0  0
  -47.7018  -35.1389    0.3645 H   0  0  0  0  0  0  0  0  0  0  0  0
  -46.9437  -32.1072   -2.6001 H   0  0  0  0  0  0  0  0  0  0  0  0
  -47.2067  -30.6696    4.0252 H   0  0  0  0  0  0  0  0  0  0  0  0
  -49.3181  -27.2778    5.6596 H   0  0  0  0  0  0  0  0  0  0  0  0
  -45.8155  -34.2814    1.7323 H   0  0  0  0  0  0  0  0  0  0  0  0
  -45.0515  -31.2441   -1.2413 H   0  0  0  0  0  0  0  0  0  0  0  0
  -43.1392  -31.2448    6.0597 H   0  0  0  0  0  0  0  0  0  0  0  0
  -45.2285  -30.5121    7.5702 H   0  0  0  0  0  0  0  0  0  0  0  0
  -41.3915  -32.1639    1.5330 H   0  0  0  0  0  0  0  0  0  0  0  0
  -41.4887  -30.3710    1.5880 H   0  0  0  0  0  0  0  0  0  0  0  0
  -43.5435  -30.3173    0.3870 H   0  0  0  0  0  0  0  0  0  0  0  0
  -42.7580  -31.7420   -0.3746 H   0  0  0  0  0  0  0  0  0  0  0  0
  -42.3045  -31.8905    3.7139 H   0  0  0  0  0  0  0  0  0  0  0  0
  -46.1629  -27.4532    7.5119 H   0  0  0  0  0  0  0  0  0  0  0  0
  -46.4981  -26.7728    5.8837 H   0  0  0  0  0  0  0  0  0  0  0  0
  -47.8451  -27.0321    7.0436 H   0  0  0  0  0  0  0  0  0  0  0  0
  -47.4868  -29.4793    6.9382 H   0  0  0  0  0  0  0  0  0  0  0  0
  -43.8559  -29.6604    2.5792 H   0  0  0  0  0  0  0  0  0  0  0  0
  1  3  1  0  0  0  0
  1  4  2  0  0  0  0
  2  5  1  0  0  0  0
  2  6  2  0  0  0  0
  3  7  2  0  0  0  0
  4  8  1  0  0  0  0
  5  9  2  0  0  0  0
  6 10  1  0  0  0  0
  7 13  1  0  0  0  0
  8 13  2  0  0  0  0
  9 14  1  0  0  0  0
 10 14  2  0  0  0  0
 11 12  2  0  0  0  0
 11 15  1  0  0  0  0
 12 23  1  0  0  0  0
 13 21  1  0  0  0  0
 14 24  1  0  0  0  0
 15 22  2  0  0  0  0
 15 25  1  0  0  0  0
 16 19  1  0  0  0  0
 16 24  1  0  0  0  0
 16 26  2  0  0  0  0
 17 18  1  0  0  0  0
 17 19  1  0  0  0  0
 18 24  1  0  0  0  0
 19 25  1  0  0  0  0
 20 21  1  0  0  0  0
 21 23  1  0  0  0  0
 22 23  1  0  0  0  0
  1 27  1  0  0  0  0
  2 28  1  0  0  0  0
  3 29  1  0  0  0  0
  4 30  1  0  0  0  0
  5 31  1  0  0  0  0
  6 32  1  0  0  0  0
  7 33  1  0  0  0  0
  8 34  1  0  0  0  0
  9 35  1  0  0  0  0
 10 36  1  0  0  0  0
 11 37  1  0  0  0  0
 12 38  1  0  0  0  0
 17 39  1  0  0  0  0
 17 40  1  0  0  0  0
 18 41  1  0  0  0  0
 18 42  1  0  0  0  0
 19 43  1  0  0  0  0
 20 44  1  0  0  0  0
 20 45  1  0  0  0  0
 20 46  1  0  0  0  0
 21 47  1  0  0  0  0
 25 48  1  0  0  0  0
M  END
> <POSIT::Probability>
0.72

> <POSIT::Method>
SHAPEFIT

> <ReceptorTitle>
UCSF-P4606-REFINED_LIGAND-BOUND-STATE_AALTB__DU__LA1_A-201(A)

> <OMEGA_C>
oMhHwv5W6MEgPDNA3cs9wp23BsKnipq/f49DwkbC78HV1TdAW2hIwjSe4MFDEXRAt4I8whMrCcKQ
ypc8Jcs6wvtOAsIuX9S/lPI/wnFp78FT63xA4L1EwqUg4ME2PZxAIDw4wmk2B8IGh0s/LII2wuBX
AMICs2K/D8Qvwoqg9MG88LhAvgs0wt+68cHivdFAcFxAwjpS58HMS55A/zE1wpnAAsJ7sbY+rWMw
wpgI78FObo9A2nYwwlnbAMKbqCFAnEcowjtu+sGwGdE/yJsswjWj+sEb4RA/7n8rwmcY+8FT2jpA
wYg7wjhm28GizdVAdVk8wr/Y5sG0/cNA3a40wmcC6cEKEZFAfvs2ws0Y68H4j7dA/9UwwmvTAMLx
144/eUwtwmhI8MG/sFVAGMozwhB9AsLgLlVAqIpKwoGR6MFGIfw/uBRBwlM3CMKGc+a/ChdDwmm4
9cHRXwZAALVLwgwN28ENXnFAns4+wjKODMKAoro+WMY7wsptAMJBaCbAo9M8wm1b9cF6zoBAw0VF
wtY42sEhG7VAGEM3wi4gCcJMvN0/vjQ0wunz+cGM456/g44swm71+cH96MFAAeo0wsgY9MHzPvJA
8pAlwsynAMIEOMQ/a/QlwuX38sE+Q8s/hSwuwu2J8sGlJ8Y+LwgrwpDv/cGz0L++xTcpwsIf/8Gj
sG1Az6Y4wiug28HAYfBAF/45wqwu1sGNR7xAWWE/wsZB2MHUZOFAe/I9wo3V68HXBd5AeWwvwmhI
7cHNESVA

> <OMEGA_E>
vB5iPw==

> <OMEGA_NBR>
      9930

$$$$
CACHE3HI_1708_49
  -OEChem-03092622523D

 38 40  0     1  0  0  0  0  0999 V2000
  -48.5040  -28.8666    5.3956 C   0  0  0  0  0  0  0  0  0  0  0  0
  -47.5649  -29.0275    6.4310 C   0  0  0  0  0  0  0  0  0  0  0  0
  -46.7606  -29.3062    3.7387 C   0  0  0  0  0  0  0  0  0  0  0  0
  -44.0507  -29.8134    6.8371 C   0  0  0  0  0  0  0  0  0  0  0  0
  -45.8111  -29.4675    4.7788 C   0  0  0  0  0  0  0  0  0  0  0  0
  -48.1097  -29.0233    4.0502 C   0  0  0  0  0  0  0  0  0  0  0  0
  -46.2235  -29.3337    6.1276 C   0  0  0  0  0  0  0  0  0  0  0  0
  -44.4542  -29.7891    4.5276 C   0  0  0  0  0  0  0  0  0  0  0  0
  -44.0180  -32.2915    2.5228 C   0  0  0  0  0  0  0  0  0  0  0  0
  -42.3739  -30.8022    1.5333 C   0  0  0  0  0  0  0  0  0  0  0  0
  -43.2173  -31.4940    0.4762 C   0  0  0  0  0  0  0  0  0  0  0  0
  -43.1258  -31.0754    2.8300 C   0  0  1  0  0  0  0  0  0  0  0  0
  -49.1192  -28.8122    2.9420 C   0  0  0  0  0  0  0  0  0  0  0  0
  -46.0839  -33.0330    0.1155 C   0  0  0  0  0  0  0  0  0  0  0  0
  -44.6985  -33.6043    0.4664 C   0  0  0  0  0  0  0  0  0  0  0  0
  -45.3351  -29.4999    7.1300 N   0  0  0  0  0  0  0  0  0  0  0  0
  -43.6045  -29.9695    5.5668 N   0  0  0  0  0  0  0  0  0  0  0  0
  -43.8598  -32.6180    1.1698 N   0  0  0  0  0  0  0  0  0  0  0  0
  -43.9827  -29.9279    3.2197 N   0  0  0  0  0  0  0  0  0  0  0  0
  -44.7507  -32.8557    3.3277 O   0  0  0  0  0  0  0  0  0  0  0  0
  -49.5293  -28.6225    5.6315 H   0  0  0  0  0  0  0  0  0  0  0  0
  -47.8729  -28.9161    7.4601 H   0  0  0  0  0  0  0  0  0  0  0  0
  -46.4529  -29.3996    2.7077 H   0  0  0  0  0  0  0  0  0  0  0  0
  -43.3522  -29.9445    7.6502 H   0  0  0  0  0  0  0  0  0  0  0  0
  -41.3613  -31.2302    1.5693 H   0  0  0  0  0  0  0  0  0  0  0  0
  -42.3086  -29.7217    1.3379 H   0  0  0  0  0  0  0  0  0  0  0  0
  -43.9748  -30.8045    0.0753 H   0  0  0  0  0  0  0  0  0  0  0  0
  -42.5829  -31.8595   -0.3448 H   0  0  0  0  0  0  0  0  0  0  0  0
  -42.4174  -31.3232    3.6342 H   0  0  0  0  0  0  0  0  0  0  0  0
  -49.1294  -27.7512    2.6518 H   0  0  0  0  0  0  0  0  0  0  0  0
  -48.8432  -29.4272    2.0728 H   0  0  0  0  0  0  0  0  0  0  0  0
  -50.1187  -29.1050    3.2960 H   0  0  0  0  0  0  0  0  0  0  0  0
  -46.6756  -33.7994   -0.4068 H   0  0  0  0  0  0  0  0  0  0  0  0
  -46.6025  -32.7358    1.0389 H   0  0  0  0  0  0  0  0  0  0  0  0
  -45.9641  -32.1552   -0.5365 H   0  0  0  0  0  0  0  0  0  0  0  0
  -44.8301  -34.4846    1.1127 H   0  0  0  0  0  0  0  0  0  0  0  0
  -44.1916  -33.9040   -0.4627 H   0  0  0  0  0  0  0  0  0  0  0  0
  -44.7893  -29.9630    2.6297 H   0  0  0  0  0  0  0  0  0  0  0  0
  1  2  2  0  0  0  0
  1  6  1  0  0  0  0
  2  7  1  0  0  0  0
  3  5  1  0  0  0  0
  3  6  2  0  0  0  0
  4 16  2  0  0  0  0
  4 17  1  0  0  0  0
  5  7  2  0  0  0  0
  5  8  1  0  0  0  0
  6 13  1  0  0  0  0
  7 16  1  0  0  0  0
  8 17  2  0  0  0  0
  8 19  1  0  0  0  0
  9 12  1  0  0  0  0
  9 18  1  0  0  0  0
  9 20  2  0  0  0  0
 10 11  1  0  0  0  0
 10 12  1  0  0  0  0
 11 18  1  0  0  0  0
 12 19  1  0  0  0  0
 14 15  1  0  0  0  0
 15 18  1  0  0  0  0
  1 21  1  0  0  0  0
  2 22  1  0  0  0  0
  3 23  1  0  0  0  0
  4 24  1  0  0  0  0
 10 25  1  0  0  0  0
 10 26  1  0  0  0  0
 11 27  1  0  0  0  0
 11 28  1  0  0  0  0
 12 29  1  0  0  0  0
 13 30  1  0  0  0  0
 13 31  1  0  0  0  0
 13 32  1  0  0  0  0
 14 33  1  0  0  0  0
 14 34  1  0  0  0  0
 14 35  1  0  0  0  0
 15 36  1  0  0  0  0
 15 37  1  0  0  0  0
 19 38  1  0  0  0  0
M  END
> <POSIT::Probability>
0.91

> <POSIT::Method>
SHAPEFIT

> <ReceptorTitle>
UCSF-P4606-REFINED_LIGAND-BOUND-STATE_AALTB__DU__LA1_A-201(A)

> <OMEGA_C>
HQRCwrru5sHcqKxAgUI+wkc46MHMys1A2wo7wh5z6sHfRm9A7TMwwr+B7sEfydpAiD43woK968Hq
65hAYHBAwqUv6METm4FA3uQ4wm6r6sGVFcRAFtExwhRQ7sEX4pBAchIwwn8qAcKAdSFA6n4pwv5q
9sE+RMQ/gN4swszz+8E/0/M+y4AswoOa+MFrHjVAB3pEwkl/5sEBSjxA9lU4wtEhBMJkd+w9QMsy
wsZqBsLJy+4+L1c1wtj/68GyKORADmsuwnXB78FRI7JAcXAvwtV4AsISvJU/RO4vwkNs78HtD05A
wAAzwj5sA8I6+FRA/R1GwtD65MEqNbRA4X0/whlU58GHue5Auc85wlUy68HaSi1AnGgtwliO78GA
zvRA73Elwo3X+cFk38g/ATwpwhbG7cFRP6s/NeYvwrVv9sE7MJo96FQqwirg/sGSh7C+YqspwteV
+sH4lmhAeIREwmIC3sHCtylAfF9Dwv1q68HOqARAgXlIwvjW6MEq8VJAx7M6wo0yB8IdQtC++2g6
woDxAsIl+4Q/Mts3wuqeAMIRVwm//VEzwj/wCcJXbI4/NcQwwqmdB8Ja6ey+PCgzwiK078G0TChA

> <OMEGA_E>
UBq0Pg==

> <OMEGA_NBR>
     11219

$$$$
CACHE3HI_1709_1
  -OEChem-03092622523D

 46 49  0     1  0  0  0  0  0999 V2000
  -47.4238  -29.5942    2.7622 C   0  0  0  0  0  0  0  0  0  0  0  0
  -48.7278  -29.3169    2.2866 C   0  0  0  0  0  0  0  0  0  0  0  0
  -49.4471  -28.6713    4.5455 C   0  0  0  0  0  0  0  0  0  0  0  0
  -44.0370  -29.7483    6.8137 C   0  0  0  0  0  0  0  0  0  0  0  0
  -47.1691  -29.3963    4.1355 C   0  0  0  0  0  0  0  0  0  0  0  0
  -45.9494  -29.5825    4.9205 C   0  0  0  0  0  0  0  0  0  0  0  0
  -48.1531  -28.9443    5.0207 C   0  0  0  0  0  0  0  0  0  0  0  0
  -49.7343  -28.8584    3.1749 C   0  0  0  0  0  0  0  0  0  0  0  0
  -46.2399  -29.2440    6.2404 C   0  0  0  0  0  0  0  0  0  0  0  0
  -44.6605  -30.0051    4.5593 C   0  0  0  0  0  0  0  0  0  0  0  0
  -43.5368  -30.2538    1.0322 C   0  0  0  0  0  0  0  0  0  0  0  0
  -43.5560  -29.4879    2.3488 C   0  0  0  0  0  0  0  0  0  0  0  0
  -44.2516  -31.7526    2.7969 C   0  0  0  0  0  0  0  0  0  0  0  0
  -43.4332  -31.7101    1.4958 C   0  0  1  0  0  0  0  0  0  0  0  0
  -47.8807  -31.7829   -0.5001 C   0  0  0  0  0  0  0  0  0  0  0  0
  -47.1065  -34.1691   -0.4049 C   0  0  0  0  0  0  0  0  0  0  0  0
  -46.8051  -32.7282    0.0712 C   0  0  0  0  0  0  0  0  0  0  0  0
  -45.2787  -29.3292    7.1821 N   0  0  0  0  0  0  0  0  0  0  0  0
  -43.7146  -30.0829    5.5300 N   0  0  0  0  0  0  0  0  0  0  0  0
  -47.5791  -28.8569    6.2912 N   0  0  0  0  0  0  0  0  0  0  0  0
  -44.3626  -30.3440    3.2505 N   0  0  1  0  0  0  0  0  0  0  0  0
  -45.4836  -32.2586   -0.4223 N   0  0  0  0  0  0  0  0  0  0  0  0
  -43.0278  -32.8996   -0.8248 O   0  0  0  0  0  0  0  0  0  0  0  0
  -44.3197  -34.1454    0.9739 O   0  0  0  0  0  0  0  0  0  0  0  0
  -50.9783  -28.5954    2.7122 F   0  0  0  0  0  0  0  0  0  0  0  0
  -44.0218  -32.8980    0.2563 S   0  0  0  0  0  0  0  0  0  0  0  0
  -46.6497  -29.9456    2.0960 H   0  0  0  0  0  0  0  0  0  0  0  0
  -48.9581  -29.4553    1.2405 H   0  0  0  0  0  0  0  0  0  0  0  0
  -50.2141  -28.3223    5.2210 H   0  0  0  0  0  0  0  0  0  0  0  0
  -43.2714  -29.8194    7.5722 H   0  0  0  0  0  0  0  0  0  0  0  0
  -44.4608  -30.0838    0.4601 H   0  0  0  0  0  0  0  0  0  0  0  0
  -42.6686  -29.9692    0.4196 H   0  0  0  0  0  0  0  0  0  0  0  0
  -42.5364  -29.3589    2.7409 H   0  0  0  0  0  0  0  0  0  0  0  0
  -44.0271  -28.5022    2.2208 H   0  0  0  0  0  0  0  0  0  0  0  0
  -45.2499  -32.1740    2.6079 H   0  0  0  0  0  0  0  0  0  0  0  0
  -43.7348  -32.3596    3.5548 H   0  0  0  0  0  0  0  0  0  0  0  0
  -42.3836  -31.9641    1.7053 H   0  0  0  0  0  0  0  0  0  0  0  0
  -47.6783  -30.7536   -0.1690 H   0  0  0  0  0  0  0  0  0  0  0  0
  -47.8595  -31.8252   -1.5991 H   0  0  0  0  0  0  0  0  0  0  0  0
  -48.8721  -32.0955   -0.1402 H   0  0  0  0  0  0  0  0  0  0  0  0
  -46.3457  -34.8550   -0.0039 H   0  0  0  0  0  0  0  0  0  0  0  0
  -48.1005  -34.4736   -0.0453 H   0  0  0  0  0  0  0  0  0  0  0  0
  -47.0880  -34.2034   -1.5042 H   0  0  0  0  0  0  0  0  0  0  0  0
  -46.8340  -32.6937    1.1703 H   0  0  0  0  0  0  0  0  0  0  0  0
  -48.0585  -28.5601    7.1171 H   0  0  0  0  0  0  0  0  0  0  0  0
  -45.4560  -32.4552   -1.4024 H   0  0  0  0  0  0  0  0  0  0  0  0
  1  2  2  0  0  0  0
  1  5  1  0  0  0  0
  2  8  1  0  0  0  0
  3  7  1  0  0  0  0
  3  8  2  0  0  0  0
  4 18  2  0  0  0  0
  4 19  1  0  0  0  0
  5  6  1  0  0  0  0
  5  7  2  0  0  0  0
  6  9  2  0  0  0  0
  6 10  1  0  0  0  0
  7 20  1  0  0  0  0
  8 25  1  0  0  0  0
  9 18  1  0  0  0  0
  9 20  1  0  0  0  0
 10 19  2  0  0  0  0
 10 21  1  0  0  0  0
 11 12  1  0  0  0  0
 11 14  1  0  0  0  0
 12 21  1  0  0  0  0
 13 14  1  0  0  0  0
 13 21  1  0  0  0  0
 14 26  1  0  0  0  0
 15 17  1  0  0  0  0
 16 17  1  0  0  0  0
 17 22  1  0  0  0  0
 22 26  1  0  0  0  0
 23 26  2  0  0  0  0
 24 26  2  0  0  0  0
  1 27  1  0  0  0  0
  2 28  1  0  0  0  0
  3 29  1  0  0  0  0
  4 30  1  0  0  0  0
 11 31  1  0  0  0  0
 11 32  1  0  0  0  0
 12 33  1  0  0  0  0
 12 34  1  0  0  0  0
 13 35  1  0  0  0  0
 13 36  1  0  0  0  0
 14 37  1  0  0  0  0
 15 38  1  0  0  0  0
 15 39  1  0  0  0  0
 15 40  1  0  0  0  0
 16 41  1  0  0  0  0
 16 42  1  0  0  0  0
 16 43  1  0  0  0  0
 17 44  1  0  0  0  0
 20 45  1  0  0  0  0
 22 46  1  0  0  0  0
M  END
> <POSIT::Probability>
0.5

> <POSIT::Method>
SHAPEFIT

> <ReceptorTitle>
UCSF-P4606-REFINED_LIGAND-BOUND-STATE_AALTB__DU__LA1_A-201(A)

> <OMEGA_C>
7rE9wvrA7ME2xzBATOlCwvuI6sEjVxJA2slFwuhe5cHUdJFA1yUwwon87cHeCdpALK08wpEr68Hv
VYRAKMw3wv+o7MEMdZ1Az5xAwuKN58EyqaBA4+9Gwuzd5sHdMEtApvU4wr7z6cGNscdAVaQywoEK
8MH45ZFAsCUuwtsH8sHyHoQ/Vjkuwjjn68H/UhZAogExwlAF/sG1/zJAobstwkCu/cHId78/3IU/
wlFD/sGjCQC/Fm08wjOtCMIESc++dzg7wq/pAsJu6pE9aB01wiui6sFb0+VAt9suwtWp8MFq9bBA
9VA+wv/a5sGsUclAVHMxwobA8sGLCFBAOe81wssIAcJcOdi+axwswieZA8IqJlO/U0cxwuuUCMKs
U3k/yOlLwmTD5MELlS1AVRYwwoyXA8KAP4M+T5k6wpKQ78F+JAZADdVDwnGk68EKyZ4/PNtIwgGU
4sGEEqdA5xUtwiGO7sEnT/JA4dcxwpWr8METlOs+sawqwvXA78EZ1NY+PyUqwvve6sHjai9Atxsw
wmkE5MFBIQ5A7v80wjSyAMJa5yZAevAuwjhwAcJTgmNA2ogpwmO2/8GtRto/nrY+wmAH9sF0Ei2+
I3A/wgaa/sE0sMy//XxDwr9hAMJpmQ++C2I5woprC8IuYn677GZAwvvkCcL9bTm9EVo8wj/QCMJ3
iMC//lU7wlLGAsJLzZU/3DtAwgV75MElv+NA7NI1whzSAcIUgrO/

> <OMEGA_E>
MGM7Pw==

> <OMEGA_NBR>
     12677

$$$$
CACHE3HI_1709_10
  -OEChem-03092622523D

 43 45  0     0  0  0  0  0  0999 V2000
  -46.7386  -32.0092    0.5940 C   0  0  0  0  0  0  0  0  0  0  0  0
  -46.4700  -28.9191    2.1731 C   0  0  0  0  0  0  0  0  0  0  0  0
  -47.8644  -28.9209    2.2124 C   0  0  0  0  0  0  0  0  0  0  0  0
  -44.3465  -31.8137    1.0356 C   0  0  0  0  0  0  0  0  0  0  0  0
  -47.7973  -29.1090    4.6202 C   0  0  0  0  0  0  0  0  0  0  0  0
  -43.3925  -33.0408    2.8361 C   0  0  0  0  0  0  0  0  0  0  0  0
  -45.5837  -32.3595    1.3591 C   0  0  0  0  0  0  0  0  0  0  0  0
  -45.7394  -29.0121    3.3576 C   0  0  0  0  0  0  0  0  0  0  0  0
  -48.5280  -29.0159    3.4357 C   0  0  0  0  0  0  0  0  0  0  0  0
  -43.2249  -32.1554    1.7829 C   0  0  0  0  0  0  0  0  0  0  0  0
  -46.4031  -29.1072    4.5809 C   0  0  0  0  0  0  0  0  0  0  0  0
  -45.6460  -33.2355    2.4308 C   0  0  0  0  0  0  0  0  0  0  0  0
  -43.7314  -28.8273    1.8237 C   0  0  0  0  0  0  0  0  0  0  0  0
  -43.6038  -30.2632    3.9055 C   0  0  0  0  0  0  0  0  0  0  0  0
  -42.2071  -28.8378    1.7578 C   0  0  0  0  0  0  0  0  0  0  0  0
  -42.0823  -30.2420    3.7930 C   0  0  0  0  0  0  0  0  0  0  0  0
  -44.2249  -29.0045    3.2719 C   0  0  0  0  0  0  0  0  0  0  0  0
  -46.9442  -33.8575    2.8345 C   0  0  0  0  0  0  0  0  0  0  0  0
  -47.6766  -31.7246   -0.0273 N   0  0  0  0  0  0  0  0  0  0  0  0
  -44.5785  -33.5912    3.1800 N   0  0  0  0  0  0  0  0  0  0  0  0
  -41.6664  -30.0810    2.3724 N   0  0  0  0  0  0  0  0  0  0  0  0
  -41.6432  -31.0934    0.0088 O   0  0  0  0  0  0  0  0  0  0  0  0
  -40.6353  -32.3921    1.9181 O   0  0  0  0  0  0  0  0  0  0  0  0
  -49.8670  -29.0174    3.4721 F   0  0  0  0  0  0  0  0  0  0  0  0
  -41.6373  -31.4851    1.4014 S   0  0  0  0  0  0  0  0  0  0  0  0
  -45.5321  -29.2227    6.0667 Cl  0  0  0  0  0  0  0  0  0  0  0  0
  -45.9640  -28.8440    1.2141 H   0  0  0  0  0  0  0  0  0  0  0  0
  -48.4331  -28.8485    1.2900 H   0  0  0  0  0  0  0  0  0  0  0  0
  -44.2505  -31.1213    0.2021 H   0  0  0  0  0  0  0  0  0  0  0  0
  -48.3294  -29.1808    5.5654 H   0  0  0  0  0  0  0  0  0  0  0  0
  -42.5548  -33.3455    3.4556 H   0  0  0  0  0  0  0  0  0  0  0  0
  -44.1112  -27.8864    1.4073 H   0  0  0  0  0  0  0  0  0  0  0  0
  -44.1282  -29.6346    1.1933 H   0  0  0  0  0  0  0  0  0  0  0  0
  -43.9943  -31.1623    3.4091 H   0  0  0  0  0  0  0  0  0  0  0  0
  -43.8931  -30.3360    4.9612 H   0  0  0  0  0  0  0  0  0  0  0  0
  -41.8979  -28.7873    0.7038 H   0  0  0  0  0  0  0  0  0  0  0  0
  -41.7925  -27.9581    2.2725 H   0  0  0  0  0  0  0  0  0  0  0  0
  -41.6610  -29.4246    4.3972 H   0  0  0  0  0  0  0  0  0  0  0  0
  -41.6851  -31.1892    4.1855 H   0  0  0  0  0  0  0  0  0  0  0  0
  -43.8863  -28.1153    3.8638 H   0  0  0  0  0  0  0  0  0  0  0  0
  -47.1078  -34.8066    2.3103 H   0  0  0  0  0  0  0  0  0  0  0  0
  -47.7891  -33.2039    2.5860 H   0  0  0  0  0  0  0  0  0  0  0  0
  -46.9534  -34.0471    3.9136 H   0  0  0  0  0  0  0  0  0  0  0  0
  1  7  1  0  0  0  0
  1 19  3  0  0  0  0
  2  3  2  0  0  0  0
  2  8  1  0  0  0  0
  3  9  1  0  0  0  0
  4  7  2  0  0  0  0
  4 10  1  0  0  0  0
  5  9  2  0  0  0  0
  5 11  1  0  0  0  0
  6 10  2  0  0  0  0
  6 20  1  0  0  0  0
  7 12  1  0  0  0  0
  8 11  2  0  0  0  0
  8 17  1  0  0  0  0
  9 24  1  0  0  0  0
 10 25  1  0  0  0  0
 11 26  1  0  0  0  0
 12 18  1  0  0  0  0
 12 20  2  0  0  0  0
 13 15  1  0  0  0  0
 13 17  1  0  0  0  0
 14 16  1  0  0  0  0
 14 17  1  0  0  0  0
 15 21  1  0  0  0  0
 16 21  1  0  0  0  0
 21 25  1  0  0  0  0
 22 25  2  0  0  0  0
 23 25  2  0  0  0  0
  2 27  1  0  0  0  0
  3 28  1  0  0  0  0
  4 29  1  0  0  0  0
  5 30  1  0  0  0  0
  6 31  1  0  0  0  0
 13 32  1  0  0  0  0
 13 33  1  0  0  0  0
 14 34  1  0  0  0  0
 14 35  1  0  0  0  0
 15 36  1  0  0  0  0
 15 37  1  0  0  0  0
 16 38  1  0  0  0  0
 16 39  1  0  0  0  0
 17 40  1  0  0  0  0
 18 41  1  0  0  0  0
 18 42  1  0  0  0  0
 18 43  1  0  0  0  0
M  END
> <POSIT::Probability>
0.18

> <POSIT::Method>
FRED

> <ReceptorTitle>
UCSF-P4606-REFINED_LIGAND-BOUND-STATE_AALTB__DU__LA1_A-201(A)

> <OMEGA_C>
V/Q6wm8JAMJ4ERg/T+E5wkJa58EdFAtAGnU/wvJd58F0lw1AzmIxwnSC/sEqjoQ/ezA/wiTf6MEF
2ZNA75Etwr4pBMLZgTVAqlU2wiBwAcKE9q0/MPU2wsIY6MHp4lZAqBxCwqUg6MGz4ltAS+Yswiqf
AMI2NuQ/vZw5wnbb6MEUl5JAg5U2wirxBMJtkRtA+ewuwmGe5sFib+k/SGouwg0b8sFM83lAFNQo
wuez5sEo/uA/SlQowp/v8cFnwHJATOYwwikJ6MGKZlFA2sY7wgluB8JGaDVA4LQ+wvTL/cGATd+8
Y1AywmldBsKNhEtAaqomwvyl8MEf1hdAlpImwjm/+MEAWhA8g4oiwoiRAcJyhPU/xndHwqQj6MEm
Nl5AoIwmwmvh+8E2YbM/6CA2wiDI6cFyIsJAKts3wnTA5sHIaJs/fLtBwqLJ5sE8H6U/hgAxwlX4
+MGw7E4+TVFBwldy6cGmF7JAGjgqwsZhBcIAKF1A2XEwwkMX38FAIrQ/OoMwwrYT7cE+vpg/Kvov
wk9M+cFZLlpAkpIvwjqw8sEgwp5AeJcnwl1M5sE0LjQ/jCsnwkKq38HtcBFA5KQmwpdl68EGtoxA
gr0mwmiD+cGw74VAkosvwizs4MHUR3dAZG48wv45C8Ki2xNAEyg/wsHQBMKWgCVAO9A7wjEwCMI4
eXpA

> <OMEGA_E>
Ko3hwA==

> <OMEGA_NBR>
     14035

$$$$
CACHE3HI_1712_20
  -OEChem-03092622523D

 46 48  0     1  0  0  0  0  0999 V2000
  -45.5412  -29.6457    1.6421 C   0  0  0  0  0  0  0  0  0  0  0  0
  -45.1774  -28.3515    1.2883 C   0  0  0  0  0  0  0  0  0  0  0  0
  -42.9581  -29.1414    0.7487 C   0  0  0  0  0  0  0  0  0  0  0  0
  -44.6111  -30.6922    1.5458 C   0  0  0  0  0  0  0  0  0  0  0  0
  -43.2874  -30.4638    1.1030 C   0  0  0  0  0  0  0  0  0  0  0  0
  -43.8869  -28.0995    0.8415 C   0  0  0  0  0  0  0  0  0  0  0  0
  -47.8891  -31.3464    3.2512 C   0  0  0  0  0  0  0  0  0  0  0  0
  -46.7180  -31.0475    3.8125 C   0  0  0  0  0  0  0  0  0  0  0  0
  -46.5598  -29.8000    4.5893 C   0  0  0  0  0  0  0  0  0  0  0  0
  -48.9651  -29.3126    4.0517 C   0  0  0  0  0  0  0  0  0  0  0  0
  -42.7246  -32.8125    1.5735 C   0  0  0  0  0  0  0  0  0  0  0  0
  -44.1985  -33.1172    1.3640 C   0  0  0  0  0  0  0  0  0  0  0  0
  -40.9858  -31.2798    0.6385 C   0  0  0  0  0  0  0  0  0  0  0  0
  -50.2175  -30.9735    2.6908 C   0  0  0  0  0  0  0  0  0  0  0  0
  -47.6384  -27.7420    5.3816 C   0  0  0  0  0  0  0  0  0  0  0  0
  -44.5284  -25.8234    0.5759 C   0  0  0  0  0  0  0  0  0  0  0  0
  -42.3752  -31.5135    1.0030 N   0  0  3  0  0  0  0  0  0  0  0  0
  -45.0204  -32.0243    1.9466 N   0  0  1  0  0  0  0  0  0  0  0  0
  -48.9931  -30.5296    3.3502 N   0  0  0  0  0  0  0  0  0  0  0  0
  -47.7111  -28.9987    4.6440 N   0  0  0  0  0  0  0  0  0  0  0  0
  -45.4841  -29.5410    5.1249 O   0  0  0  0  0  0  0  0  0  0  0  0
  -49.9480  -28.5714    4.1515 O   0  0  0  0  0  0  0  0  0  0  0  0
  -45.9880  -33.4789    3.8519 O   0  0  0  0  0  0  0  0  0  0  0  0
  -44.3242  -31.6487    4.4092 O   0  0  0  0  0  0  0  0  0  0  0  0
  -43.5289  -26.8370    0.4754 O   0  0  0  0  0  0  0  0  0  0  0  0
  -45.4060  -32.1788    3.6126 S   0  0  0  0  0  0  0  0  0  0  0  0
  -46.5515  -29.8021    1.9923 H   0  0  0  0  0  0  0  0  0  0  0  0
  -45.9020  -27.5466    1.3587 H   0  0  0  0  0  0  0  0  0  0  0  0
  -41.9687  -28.8927    0.3734 H   0  0  0  0  0  0  0  0  0  0  0  0
  -48.0321  -32.2601    2.6824 H   0  0  0  0  0  0  0  0  0  0  0  0
  -42.5114  -32.8312    2.6506 H   0  0  0  0  0  0  0  0  0  0  0  0
  -42.1009  -33.5898    1.1091 H   0  0  0  0  0  0  0  0  0  0  0  0
  -44.3957  -33.1863    0.2870 H   0  0  0  0  0  0  0  0  0  0  0  0
  -44.4685  -34.0776    1.8228 H   0  0  0  0  0  0  0  0  0  0  0  0
  -40.4312  -32.2222    0.6128 H   0  0  0  0  0  0  0  0  0  0  0  0
  -40.9276  -30.8114   -0.3481 H   0  0  0  0  0  0  0  0  0  0  0  0
  -40.5120  -30.6133    1.3644 H   0  0  0  0  0  0  0  0  0  0  0  0
  -50.8238  -31.5775    3.3719 H   0  0  0  0  0  0  0  0  0  0  0  0
  -50.8068  -30.1108    2.3677 H   0  0  0  0  0  0  0  0  0  0  0  0
  -49.9753  -31.5743    1.8098 H   0  0  0  0  0  0  0  0  0  0  0  0
  -47.3234  -26.9273    4.7233 H   0  0  0  0  0  0  0  0  0  0  0  0
  -48.6166  -27.4942    5.8032 H   0  0  0  0  0  0  0  0  0  0  0  0
  -46.9213  -27.8271    6.2028 H   0  0  0  0  0  0  0  0  0  0  0  0
  -44.1116  -24.8657    0.2536 H   0  0  0  0  0  0  0  0  0  0  0  0
  -45.3694  -26.0879   -0.0696 H   0  0  0  0  0  0  0  0  0  0  0  0
  -44.8742  -25.7527    1.6098 H   0  0  0  0  0  0  0  0  0  0  0  0
  1  2  1  0  0  0  0
  1  4  2  0  0  0  0
  2  6  2  0  0  0  0
  3  5  2  0  0  0  0
  3  6  1  0  0  0  0
  4  5  1  0  0  0  0
  4 18  1  0  0  0  0
  5 17  1  0  0  0  0
  6 25  1  0  0  0  0
  7  8  2  0  0  0  0
  7 19  1  0  0  0  0
  8  9  1  0  0  0  0
  8 26  1  0  0  0  0
  9 20  1  0  0  0  0
  9 21  2  0  0  0  0
 10 19  1  0  0  0  0
 10 20  1  0  0  0  0
 10 22  2  0  0  0  0
 11 12  1  0  0  0  0
 11 17  1  0  0  0  0
 12 18  1  0  0  0  0
 13 17  1  0  0  0  0
 14 19  1  0  0  0  0
 15 20  1  0  0  0  0
 16 25  1  0  0  0  0
 18 26  1  0  0  0  0
 23 26  2  0  0  0  0
 24 26  2  0  0  0  0
  1 27  1  0  0  0  0
  2 28  1  0  0  0  0
  3 29  1  0  0  0  0
  7 30  1  0  0  0  0
 11 31  1  0  0  0  0
 11 32  1  0  0  0  0
 12 33  1  0  0  0  0
 12 34  1  0  0  0  0
 13 35  1  0  0  0  0
 13 36  1  0  0  0  0
 13 37  1  0  0  0  0
 14 38  1  0  0  0  0
 14 39  1  0  0  0  0
 14 40  1  0  0  0  0
 15 41  1  0  0  0  0
 15 42  1  0  0  0  0
 15 43  1  0  0  0  0
 16 44  1  0  0  0  0
 16 45  1  0  0  0  0
 16 46  1  0  0  0  0
M  END
> <POSIT::Probability>
0.24

> <POSIT::Method>
FRED

> <ReceptorTitle>
UCSF-P4606-REFINED_LIGAND-BOUND-STATE_AALTB__DU__LA1_A-201(A)

> <OMEGA_C>
OSo2wlUq7cFEMNI/tbU0wt3P4sGA56Q/F9Urwpgh6cGAqT8/yXEywq2J9cFk3sU/TCYtwsu188FE
MI0/JYwvwsHL4MG4b1c/eI4/wmbF+sFoFFBAPN86wl9h+MEiAHRANz06wlFm7sGR25JATNxDwh+A
6sFjp4FAAeYqwvQ/A8JgaMk/QMswwvl3BMIclq4/efEjwgE9+sGYciM/rt5IwrnJ98GeNSxAwY0+
wp7v3cFWNqxAGh0ywj+WzsEgbxM/OIApwo0b/MF0YYA/4xQ0wtUYAMLcKfk/8vhDwow89MHwaFZA
Mdg+wkn958Hjm5RArO81wgpU7MHS/qNAuMpHwiKS5MHn2IRAvfM3wmvqBcLEhXZA+Esxwp4w/cHI
F41AkR0uwjiy1sFgafM+sp81whO3AMIgNGdAsTQ6wptq7sHMA/8/oJs3woJf3MGk6q0/898nwi4k
58EALr8+2yBAwlYKAcK0rCtAswsqwiVTA8IooylAVWcowu9bBsIY+I0/LpUxwrq+BMLg8pI+wN8x
wnZPCMKAUuk/kbkhwpDjAMJo4xw/4rUjwtd99sFwObK+QAwiwv7n9MEYpa4/kUtLwsCe/MFIzVdA
KTpLwtHi8MFQiBdAu+ZHwkSY/MFkp+c/H0s9wiNr18EGJZdAcndCwgn028G+s7lAZq87wtid3sHx
fMZAPXIwwtzsxsFw24E+TXo1wvuz0MFAeI69I38zwpEFzsFoDc4/

> <OMEGA_E>
95qtwA==

> <OMEGA_NBR>
     15460

$$$$
CACHE3HI_1715_35
  -OEChem-03092622523D

 50 54  0     1  0  0  0  0  0999 V2000
  -41.6404  -30.7341    0.7057 C   0  0  0  0  0  0  0  0  0  0  0  0
  -40.6958  -30.9619    1.7032 C   0  0  0  0  0  0  0  0  0  0  0  0
  -42.9061  -30.2404    1.0326 C   0  0  0  0  0  0  0  0  0  0  0  0
  -49.1921  -28.9290    4.4617 C   0  0  0  0  0  0  0  0  0  0  0  0
  -41.0143  -30.6941    3.0317 C   0  0  0  0  0  0  0  0  0  0  0  0
  -48.3506  -28.9609    3.3445 C   0  0  0  0  0  0  0  0  0  0  0  0
  -47.5767  -31.1944    3.9066 C   0  0  0  0  0  0  0  0  0  0  0  0
  -43.2466  -29.9642    2.3651 C   0  0  0  0  0  0  0  0  0  0  0  0
  -48.4172  -31.1797    5.0335 C   0  0  0  0  0  0  0  0  0  0  0  0
  -49.2030  -30.0579    5.2897 C   0  0  0  0  0  0  0  0  0  0  0  0
  -42.2816  -30.1993    3.3566 C   0  0  0  0  0  0  0  0  0  0  0  0
  -47.5554  -30.0735    3.0703 C   0  0  0  0  0  0  0  0  0  0  0  0
  -49.5016  -31.6445    6.8243 C   0  0  0  0  0  0  0  0  0  0  0  0
  -44.8123  -29.2020    4.0689 C   0  0  0  0  0  0  0  0  0  0  0  0
  -44.5678  -29.4399    2.7704 C   0  0  0  0  0  0  0  0  0  0  0  0
  -43.7984  -29.4473    5.1269 C   0  0  0  0  0  0  0  0  0  0  0  0
  -50.0500  -32.3321    8.0266 C   0  0  0  0  0  0  0  0  0  0  0  0
  -51.5589  -32.5442    7.9409 C   0  0  0  0  0  0  0  0  0  0  0  0
  -52.3812  -31.2857    8.2282 C   0  0  0  0  0  0  0  0  0  0  0  0
  -52.2379  -30.1697    7.1925 C   0  0  0  0  0  0  0  0  0  0  0  0
  -50.8430  -29.5510    7.1430 C   0  0  0  0  0  0  0  0  0  0  0  0
  -45.6100  -29.1827    1.7371 C   0  0  2  0  0  0  0  0  0  0  0  0
  -48.6138  -32.1455    5.9892 N   0  0  0  0  0  0  0  0  0  0  0  0
  -49.8820  -30.3798    6.4407 N   0  0  0  0  0  0  0  0  0  0  0  0
  -42.5830  -29.9355    4.7035 N   0  0  0  0  0  0  0  0  0  0  0  0
  -46.7171  -30.0700    1.9330 N   0  0  0  0  0  0  0  0  0  0  0  0
  -44.0685  -29.2143    6.3032 O   0  0  0  0  0  0  0  0  0  0  0  0
  -45.0329  -29.4423    0.4596 O   0  0  0  0  0  0  0  0  0  0  0  0
  -41.3931  -30.9422   -0.3315 H   0  0  0  0  0  0  0  0  0  0  0  0
  -39.7138  -31.3469    1.4453 H   0  0  0  0  0  0  0  0  0  0  0  0
  -43.6127  -30.0778    0.2230 H   0  0  0  0  0  0  0  0  0  0  0  0
  -49.8058  -28.0595    4.6664 H   0  0  0  0  0  0  0  0  0  0  0  0
  -40.2719  -30.8741    3.8050 H   0  0  0  0  0  0  0  0  0  0  0  0
  -48.3256  -28.0958    2.6845 H   0  0  0  0  0  0  0  0  0  0  0  0
  -46.9578  -32.0615    3.6960 H   0  0  0  0  0  0  0  0  0  0  0  0
  -45.7710  -28.8172    4.4027 H   0  0  0  0  0  0  0  0  0  0  0  0
  -49.5297  -33.2836    8.1877 H   0  0  0  0  0  0  0  0  0  0  0  0
  -49.8359  -31.7082    8.9037 H   0  0  0  0  0  0  0  0  0  0  0  0
  -51.7985  -32.8677    6.9198 H   0  0  0  0  0  0  0  0  0  0  0  0
  -51.8754  -33.3556    8.6087 H   0  0  0  0  0  0  0  0  0  0  0  0
  -53.4390  -31.5543    8.3364 H   0  0  0  0  0  0  0  0  0  0  0  0
  -52.0635  -30.8885    9.2003 H   0  0  0  0  0  0  0  0  0  0  0  0
  -52.4518  -30.6032    6.2077 H   0  0  0  0  0  0  0  0  0  0  0  0
  -52.9957  -29.3967    7.3698 H   0  0  0  0  0  0  0  0  0  0  0  0
  -50.8500  -28.5694    6.6560 H   0  0  0  0  0  0  0  0  0  0  0  0
  -50.4809  -29.4018    8.1646 H   0  0  0  0  0  0  0  0  0  0  0  0
  -45.9045  -28.1288    1.7363 H   0  0  0  0  0  0  0  0  0  0  0  0
  -41.8664  -30.1144    5.4013 H   0  0  0  0  0  0  0  0  0  0  0  0
  -46.8902  -30.7905    1.2579 H   0  0  0  0  0  0  0  0  0  0  0  0
  -45.7269  -29.2692   -0.1990 H   0  0  0  0  0  0  0  0  0  0  0  0
  1  2  1  0  0  0  0
  1  3  2  0  0  0  0
  2  5  2  0  0  0  0
  3  8  1  0  0  0  0
  4  6  2  0  0  0  0
  4 10  1  0  0  0  0
  5 11  1  0  0  0  0
  6 12  1  0  0  0  0
  7  9  1  0  0  0  0
  7 12  2  0  0  0  0
  8 11  2  0  0  0  0
  8 15  1  0  0  0  0
  9 10  2  0  0  0  0
  9 23  1  0  0  0  0
 10 24  1  0  0  0  0
 11 25  1  0  0  0  0
 12 26  1  0  0  0  0
 13 17  1  0  0  0  0
 13 23  2  0  0  0  0
 13 24  1  0  0  0  0
 14 15  2  0  0  0  0
 14 16  1  0  0  0  0
 15 22  1  0  0  0  0
 16 25  1  0  0  0  0
 16 27  2  0  0  0  0
 17 18  1  0  0  0  0
 18 19  1  0  0  0  0
 19 20  1  0  0  0  0
 20 21  1  0  0  0  0
 21 24  1  0  0  0  0
 22 26  1  0  0  0  0
 22 28  1  0  0  0  0
  1 29  1  0  0  0  0
  2 30  1  0  0  0  0
  3 31  1  0  0  0  0
  4 32  1  0  0  0  0
  5 33  1  0  0  0  0
  6 34  1  0  0  0  0
  7 35  1  0  0  0  0
 14 36  1  0  0  0  0
 17 37  1  0  0  0  0
 17 38  1  0  0  0  0
 18 39  1  0  0  0  0
 18 40  1  0  0  0  0
 19 41  1  0  0  0  0
 19 42  1  0  0  0  0
 20 43  1  0  0  0  0
 20 44  1  0  0  0  0
 21 45  1  0  0  0  0
 21 46  1  0  0  0  0
 22 47  1  0  0  0  0
 25 48  1  0  0  0  0
 26 49  1  0  0  0  0
 28 50  1  0  0  0  0
M  END
> <POSIT::Probability>
0.24

> <POSIT::Method>
FRED

> <ReceptorTitle>
UCSF-P4606-REFINED_LIGAND-BOUND-STATE_AALTB__DU__LA1_A-201(A)

> <OMEGA_C>
y48mwojf9cEIqzQ/fcgiwgqy98FIAdo/3J8rwmrs8cFkK4Q/sMREwoNu58EBxo5Aog4kwmyN9cHa
B0JAA2dBwvSv58F6C1ZAfk4+whmO+cE8BXpAe/wswsO278EoXhdAQqtBwh9w+cGVEqFA489Ewpp2
8MHVRKlAVyApwhqY8cFm0lZAuTg+wp+W8MHqf0RArQFGwgIo/cFKYNpA0T8zwp6d6cGJNIJAZ0Uy
wumE68GwTTFAjDEvwhCU68E8D6RALTNIwgxUAcLobABBRDxOwjctAsLsG/5ATYZRwgNJ+sHKpgNB
o/NQwoxb8cEaKeZAQV9Lwoho7MFdk+RArHA2wjh26cHkWN4/lHRCwveUAMJGp79AJYdHwtsJ88Fk
Gs5A/FQqws5778FTg5ZASt46wnOP8MFsbfc/GEYwws626cF0s8lAtiE0wr6J68G4Sus+kJIlwqeJ
98Hwv6m+8NoewnbG+sEKAbk/ZXMuwkOf8MGgVmQ+LTlHwtB54MHKUpVAdBYhwj/+9sG2hHNAZU1B
wi7E4MFGzitAztQ7wgY/AMLIimxAiBU3wqKJ5sEj44xAbh5GwmMiBcLtAANB7VdHwmqq/cGwdQ5B
tjFPwpB4A8K7bt1AbIBPwi9sBcJWvQlBlMFVwkdv/MEIYgVBEUFQwqkb98GGNBNBsc5Rwl3T9MG/
pcZAmftTwlgs68Fd1etAbGZLwjSO5MHW/dRAbOxJwtM268ECogJBLp43wuIH4cHMPt4/L3cnwjjq
8MHb16xAkI87wvZS9sGMAqE/TOg2wkEn6sGAu0u+

> <OMEGA_E>
ybsHwQ==

> <OMEGA_NBR>
     16968

$$$$
CACHE3HI_1715_84
  -OEChem-03092622523D

 42 45  0     1  0  0  0  0  0999 V2000
  -47.3241  -29.1345    2.7602 C   0  0  0  0  0  0  0  0  0  0  0  0
  -48.6299  -28.8688    2.2848 C   0  0  0  0  0  0  0  0  0  0  0  0
  -49.4654  -28.6806    4.5880 C   0  0  0  0  0  0  0  0  0  0  0  0
  -44.0642  -29.7125    6.8671 C   0  0  0  0  0  0  0  0  0  0  0  0
  -47.1278  -29.1619    4.1533 C   0  0  0  0  0  0  0  0  0  0  0  0
  -45.9173  -29.3886    4.9366 C   0  0  0  0  0  0  0  0  0  0  0  0
  -48.1681  -28.9309    5.0613 C   0  0  0  0  0  0  0  0  0  0  0  0
  -49.6957  -28.6473    3.1959 C   0  0  0  0  0  0  0  0  0  0  0  0
  -46.2691  -29.2602    6.2833 C   0  0  0  0  0  0  0  0  0  0  0  0
  -44.5989  -29.7312    4.5657 C   0  0  0  0  0  0  0  0  0  0  0  0
  -44.5683  -32.9441    1.9068 C   0  0  0  0  0  0  0  0  0  0  0  0
  -45.4585  -33.8024    0.9952 C   0  0  0  0  0  0  0  0  0  0  0  0
  -45.3599  -33.1352   -0.3641 C   0  0  0  0  0  0  0  0  0  0  0  0
  -44.0034  -32.4811   -0.2915 C   0  0  0  0  0  0  0  0  0  0  0  0
  -41.7997  -29.4453    2.9620 C   0  0  0  0  0  0  0  0  0  0  0  0
  -42.7944  -31.1549    1.4780 C   0  0  0  0  0  0  0  0  0  0  0  0
  -42.8724  -30.5415    2.8933 C   0  0  2  0  0  0  0  0  0  0  0  0
  -45.3360  -29.4198    7.2392 N   0  0  0  0  0  0  0  0  0  0  0  0
  -43.6922  -29.8857    5.5681 N   0  0  0  0  0  0  0  0  0  0  0  0
  -47.6361  -28.9946    6.3473 N   0  0  0  0  0  0  0  0  0  0  0  0
  -43.9239  -32.0000    1.0883 N   0  0  0  0  0  0  0  0  0  0  0  0
  -44.2183  -29.9704    3.2351 N   0  0  0  0  0  0  0  0  0  0  0  0
  -44.5019  -33.0691    3.1241 O   0  0  0  0  0  0  0  0  0  0  0  0
  -50.9420  -28.3951    2.7359 F   0  0  0  0  0  0  0  0  0  0  0  0
  -46.5060  -29.3101    2.0773 H   0  0  0  0  0  0  0  0  0  0  0  0
  -48.8170  -28.8344    1.2217 H   0  0  0  0  0  0  0  0  0  0  0  0
  -50.2776  -28.5155    5.2805 H   0  0  0  0  0  0  0  0  0  0  0  0
  -43.3125  -29.8128    7.6360 H   0  0  0  0  0  0  0  0  0  0  0  0
  -45.0863  -34.8365    0.9493 H   0  0  0  0  0  0  0  0  0  0  0  0
  -46.4982  -33.8025    1.3544 H   0  0  0  0  0  0  0  0  0  0  0  0
  -45.4044  -33.8748   -1.1770 H   0  0  0  0  0  0  0  0  0  0  0  0
  -46.1567  -32.3896   -0.5026 H   0  0  0  0  0  0  0  0  0  0  0  0
  -43.2053  -33.2089   -0.4998 H   0  0  0  0  0  0  0  0  0  0  0  0
  -43.9323  -31.6453   -1.0031 H   0  0  0  0  0  0  0  0  0  0  0  0
  -41.8168  -28.9767    3.9571 H   0  0  0  0  0  0  0  0  0  0  0  0
  -40.8095  -29.8897    2.7831 H   0  0  0  0  0  0  0  0  0  0  0  0
  -42.0040  -28.6840    2.1948 H   0  0  0  0  0  0  0  0  0  0  0  0
  -42.7257  -30.3286    0.7552 H   0  0  0  0  0  0  0  0  0  0  0  0
  -41.8812  -31.7657    1.4245 H   0  0  0  0  0  0  0  0  0  0  0  0
  -42.6201  -31.3233    3.6248 H   0  0  0  0  0  0  0  0  0  0  0  0
  -48.1575  -28.8684    7.1913 H   0  0  0  0  0  0  0  0  0  0  0  0
  -44.8962  -30.6008    2.8570 H   0  0  0  0  0  0  0  0  0  0  0  0
  1  2  2  0  0  0  0
  1  5  1  0  0  0  0
  2  8  1  0  0  0  0
  3  7  1  0  0  0  0
  3  8  2  0  0  0  0
  4 18  2  0  0  0  0
  4 19  1  0  0  0  0
  5  6  1  0  0  0  0
  5  7  2  0  0  0  0
  6  9  2  0  0  0  0
  6 10  1  0  0  0  0
  7 20  1  0  0  0  0
  8 24  1  0  0  0  0
  9 18  1  0  0  0  0
  9 20  1  0  0  0  0
 10 19  2  0  0  0  0
 10 22  1  0  0  0  0
 11 12  1  0  0  0  0
 11 21  1  0  0  0  0
 11 23  2  0  0  0  0
 12 13  1  0  0  0  0
 13 14  1  0  0  0  0
 14 21  1  0  0  0  0
 15 17  1  0  0  0  0
 16 17  1  0  0  0  0
 16 21  1  0  0  0  0
 17 22  1  0  0  0  0
  1 25  1  0  0  0  0
  2 26  1  0  0  0  0
  3 27  1  0  0  0  0
  4 28  1  0  0  0  0
 12 29  1  0  0  0  0
 12 30  1  0  0  0  0
 13 31  1  0  0  0  0
 13 32  1  0  0  0  0
 14 33  1  0  0  0  0
 14 34  1  0  0  0  0
 15 35  1  0  0  0  0
 15 36  1  0  0  0  0
 15 37  1  0  0  0  0
 16 38  1  0  0  0  0
 16 39  1  0  0  0  0
 17 40  1  0  0  0  0
 20 41  1  0  0  0  0
 22 42  1  0  0  0  0
M  END
> <POSIT::Probability>
0.89

> <POSIT::Method>
SHAPEFIT

> <ReceptorTitle>
UCSF-P4606-REFINED_LIGAND-BOUND-STATE_AALTB__DU__LA1_A-201(A)

> <OMEGA_C>
3ks9wmAT6cEJpzBA+4RCwl/z5sFEOhJAl9xFwsxx5cEq0ZJAwUEwwjmz7cHmvttA44I8wp5L6cHO
54RATKs3wucb68Hm+J1ALaxAwmJy58H39aFAZ8hGwpMt5cEHiUxAmBM5wvgU6sGcEMlARmUywoXZ
7cGUGpJA+0UywrvGA8JuE/Q/ftU1wqs1B8J4yH4/fnA1wmuKBMLgZbq+eQMwwq7sAcJIPZW+5zIn
wgqQ68GtkT1AhC0rwic9+cFuML0/U30rwgVV9MEuKzlAE1g1wqZb68HQp+dA2MQuwu0V78EwLrJA
VIs+wuL058F8HctAErIvwgwAAMKCTYs/ft8wwnDD78EbC09A+wEywspGBMJ78UdAmMRLwjUp48GE
GS9ALgY6wiF76sGn8gRAnURDwuCs5sGxYJw/OBxJwrEf5MFC+qhAAUAtwpSA7sEgWvRAYVg0wpdY
C8KIBnM/KP45wss1B8KJXa0/KJ41wtF/B8ItqZa/bqA4wu+OAcJKqAC/PNIswu/VBMJE4/++rLov
wp0p/cG5ZIC/bEQnwl/Q58GkQH1A7zwjwi0e78GvHjJADQQowtF45cFUdwxAJOcqwuyg8sFHU0E/
Y4YnwkAg/sFyV7Y/8noqwi2W+sEq/GdAQKFAwony5sH7HuZAt5UzwojO9MFb2DZA

> <OMEGA_E>
4POsPg==

> <OMEGA_NBR>
     18341

$$$$
CACHE3HI_1715_95
  -OEChem-03092622523D

 39 42  0     1  0  0  0  0  0999 V2000
  -47.3291  -29.2668    2.7230 C   0  0  0  0  0  0  0  0  0  0  0  0
  -48.6534  -29.0658    2.2622 C   0  0  0  0  0  0  0  0  0  0  0  0
  -49.4461  -28.7688    4.5677 C   0  0  0  0  0  0  0  0  0  0  0  0
  -44.0316  -29.7877    6.8229 C   0  0  0  0  0  0  0  0  0  0  0  0
  -47.1032  -29.2139    4.1125 C   0  0  0  0  0  0  0  0  0  0  0  0
  -45.8809  -29.4145    4.8936 C   0  0  0  0  0  0  0  0  0  0  0  0
  -48.1355  -28.9706    5.0266 C   0  0  0  0  0  0  0  0  0  0  0  0
  -49.7069  -28.8217    3.1824 C   0  0  0  0  0  0  0  0  0  0  0  0
  -46.2295  -29.2916    6.2402 C   0  0  0  0  0  0  0  0  0  0  0  0
  -44.5615  -29.7551    4.5261 C   0  0  0  0  0  0  0  0  0  0  0  0
  -44.0214  -32.2960    2.5027 C   0  0  0  0  0  0  0  0  0  0  0  0
  -42.4281  -30.7097    1.5726 C   0  0  0  0  0  0  0  0  0  0  0  0
  -43.1402  -31.4889    0.4840 C   0  0  0  0  0  0  0  0  0  0  0  0
  -43.2236  -31.0265    2.8309 C   0  0  1  0  0  0  0  0  0  0  0  0
  -44.5437  -33.6527    0.4252 C   0  0  0  0  0  0  0  0  0  0  0  0
  -46.0092  -33.2456    0.1631 C   0  0  0  0  0  0  0  0  0  0  0  0
  -45.2992  -29.4750    7.1952 N   0  0  0  0  0  0  0  0  0  0  0  0
  -43.6562  -29.9368    5.5226 N   0  0  0  0  0  0  0  0  0  0  0  0
  -47.5910  -29.0040    6.3077 N   0  0  0  0  0  0  0  0  0  0  0  0
  -43.7898  -32.6214    1.1611 N   0  0  0  0  0  0  0  0  0  0  0  0
  -44.1755  -29.9407    3.1984 N   0  0  0  0  0  0  0  0  0  0  0  0
  -44.7639  -32.8852    3.2805 O   0  0  0  0  0  0  0  0  0  0  0  0
  -50.9731  -28.6466    2.7403 F   0  0  0  0  0  0  0  0  0  0  0  0
  -46.0885  -32.0295   -0.4383 F   0  0  0  0  0  0  0  0  0  0  0  0
  -46.5201  -29.4542    2.0326 H   0  0  0  0  0  0  0  0  0  0  0  0
  -48.8634  -29.0986    1.2033 H   0  0  0  0  0  0  0  0  0  0  0  0
  -50.2459  -28.5752    5.2671 H   0  0  0  0  0  0  0  0  0  0  0  0
  -43.2870  -29.9243    7.5932 H   0  0  0  0  0  0  0  0  0  0  0  0
  -41.3851  -31.0440    1.6747 H   0  0  0  0  0  0  0  0  0  0  0  0
  -42.4480  -29.6309    1.3585 H   0  0  0  0  0  0  0  0  0  0  0  0
  -43.8918  -30.8561   -0.0108 H   0  0  0  0  0  0  0  0  0  0  0  0
  -42.4180  -31.8519   -0.2621 H   0  0  0  0  0  0  0  0  0  0  0  0
  -42.5358  -31.2280    3.6654 H   0  0  0  0  0  0  0  0  0  0  0  0
  -44.5365  -34.5816    1.0144 H   0  0  0  0  0  0  0  0  0  0  0  0
  -44.0488  -33.8279   -0.5415 H   0  0  0  0  0  0  0  0  0  0  0  0
  -46.4780  -33.9978   -0.4883 H   0  0  0  0  0  0  0  0  0  0  0  0
  -46.5460  -33.2056    1.1224 H   0  0  0  0  0  0  0  0  0  0  0  0
  -48.1022  -28.8448    7.1524 H   0  0  0  0  0  0  0  0  0  0  0  0
  -45.0129  -30.1057    2.6773 H   0  0  0  0  0  0  0  0  0  0  0  0
  1  2  1  0  0  0  0
  1  5  2  0  0  0  0
  2  8  2  0  0  0  0
  3  7  2  0  0  0  0
  3  8  1  0  0  0  0
  4 17  1  0  0  0  0
  4 18  2  0  0  0  0
  5  6  1  0  0  0  0
  5  7  1  0  0  0  0
  6  9  1  0  0  0  0
  6 10  2  0  0  0  0
  7 19  1  0  0  0  0
  8 23  1  0  0  0  0
  9 17  2  0  0  0  0
  9 19  1  0  0  0  0
 10 18  1  0  0  0  0
 10 21  1  0  0  0  0
 11 14  1  0  0  0  0
 11 20  1  0  0  0  0
 11 22  2  0  0  0  0
 12 13  1  0  0  0  0
 12 14  1  0  0  0  0
 13 20  1  0  0  0  0
 14 21  1  0  0  0  0
 15 16  1  0  0  0  0
 15 20  1  0  0  0  0
 16 24  1  0  0  0  0
  1 25  1  0  0  0  0
  2 26  1  0  0  0  0
  3 27  1  0  0  0  0
  4 28  1  0  0  0  0
 12 29  1  0  0  0  0
 12 30  1  0  0  0  0
 13 31  1  0  0  0  0
 13 32  1  0  0  0  0
 14 33  1  0  0  0  0
 15 34  1  0  0  0  0
 15 35  1  0  0  0  0
 16 36  1  0  0  0  0
 16 37  1  0  0  0  0
 19 38  1  0  0  0  0
 21 39  1  0  0  0  0
M  END
> <POSIT::Probability>
0.99

> <POSIT::Method>
SHAPEFIT

> <ReceptorTitle>
UCSF-P4606-REFINED_LIGAND-BOUND-STATE_AALTB__DU__LA1_A-201(A)

> <OMEGA_C>
BVE9wl0i6sHfRS5AHJ1CwtCG6MEkxxBAxshFwngm5sG8KpJAWCAwwh9N7sEzVdpArGk8whu26cGE
mYNADIY3wt5Q68EtmJxAy4pAws/D58Hz2aBA19NGwseS5sEErUtA/+o4wjVV6sHSr8dA9z4ywlwK
7sHR1ZBA8xUwwiYvAcK4KyBAVrYpwmGt9cFwTMk/io8swjXp+8E4zvc+7+QswjE2+MH5LDVAxywy
wmecBsLwstk+Ywk4wn37BMKADCc+YTI1wtDM68FhP+ZA8J8uwp5+78FEubBALF0+wh0I6MEU2clA
ySgvwkZ8AsLMn5Q/s7MwwpiG78GlskxAQQ4zwmqKA8JQ81FAeuRLwjIs5cHdYC9Aq1o4wjMeAMIa
b+C+kBQ6wh+i68FTFQJAGXRDwtbJ6MGIBJo/1vtIwvGZ5MELjKhA6yUtwutk78GN+/JAVYolwita
+MFLW9Y/vMopwhMM7cEE4q0/KJEvwmDZ9sEeRzC8AKwpwpvQ/sERMoa+siQqwurS+cGnlWpAXSUy
woxTCsJL2IE/BDIwwrhPB8JKnQq/g+k5wrv9B8KzAvq+FC86wn7SBMKDq48/oGhAwifC5sEX4ORA
Lg00woLY8MGsWCtA

> <OMEGA_E>
gCaGPQ==

> <OMEGA_NBR>
     19655

$$$$
CACHE3HI_1716_56
  -OEChem-03092622523D

 33 35  0     1  0  0  0  0  0999 V2000
  -50.4235  -28.8035    4.0049 C   0  0  0  0  0  0  0  0  0  0  0  0
  -50.0167  -29.0356    2.6716 C   0  0  0  0  0  0  0  0  0  0  0  0
  -47.5679  -29.2117    3.1755 C   0  0  0  0  0  0  0  0  0  0  0  0
  -47.9993  -28.9814    4.4752 C   0  0  0  0  0  0  0  0  0  0  0  0
  -49.3568  -28.7797    4.9224 C   0  0  0  0  0  0  0  0  0  0  0  0
  -48.6545  -29.2298    2.2800 C   0  0  0  0  0  0  0  0  0  0  0  0
  -47.1987  -28.9046    5.5786 C   0  0  0  0  0  0  0  0  0  0  0  0
  -43.4394  -28.2080    1.2609 C   0  0  0  0  0  0  0  0  0  0  0  0
  -45.7280  -29.0318    5.7316 C   0  0  0  0  0  0  0  0  0  0  0  0
  -42.6631  -30.6295    2.5391 C   0  0  0  0  0  0  0  0  0  0  0  0
  -41.5918  -29.6113    2.2189 C   0  0  0  0  0  0  0  0  0  0  0  0
  -43.9420  -29.9237    2.9650 C   0  0  1  0  0  0  0  0  0  0  0  0
  -43.8443  -29.2386    4.3233 C   0  0  0  0  0  0  0  0  0  0  0  0
  -49.3572  -28.5891    6.2540 N   0  0  0  0  0  0  0  0  0  0  0  0
  -48.0602  -28.6692    6.6106 N   0  0  0  0  0  0  0  0  0  0  0  0
  -42.1070  -28.5595    1.3715 N   0  0  0  0  0  0  0  0  0  0  0  0
  -43.8176  -27.2896    0.5347 O   0  0  0  0  0  0  0  0  0  0  0  0
  -45.1939  -29.4595    6.7435 O   0  0  0  0  0  0  0  0  0  0  0  0
  -44.3447  -28.9442    1.9787 O   0  0  0  0  0  0  0  0  0  0  0  0
  -45.0833  -28.6110    4.6060 O   0  0  0  0  0  0  0  0  0  0  0  0
  -48.3995  -29.4426    0.9791 F   0  0  0  0  0  0  0  0  0  0  0  0
  -51.4596  -28.6595    4.2811 H   0  0  0  0  0  0  0  0  0  0  0  0
  -50.7815  -29.0692    1.8965 H   0  0  0  0  0  0  0  0  0  0  0  0
  -46.5451  -29.3608    2.8591 H   0  0  0  0  0  0  0  0  0  0  0  0
  -42.8453  -31.2794    1.6656 H   0  0  0  0  0  0  0  0  0  0  0  0
  -42.3031  -31.2868    3.3517 H   0  0  0  0  0  0  0  0  0  0  0  0
  -41.1994  -29.1500    3.1314 H   0  0  0  0  0  0  0  0  0  0  0  0
  -40.7539  -30.0747    1.6853 H   0  0  0  0  0  0  0  0  0  0  0  0
  -44.7792  -30.6663    3.0156 H   0  0  0  0  0  0  0  0  0  0  0  0
  -43.0563  -28.4840    4.3079 H   0  0  0  0  0  0  0  0  0  0  0  0
  -43.6303  -29.9739    5.1012 H   0  0  0  0  0  0  0  0  0  0  0  0
  -47.8318  -28.5506    7.5896 H   0  0  0  0  0  0  0  0  0  0  0  0
  -41.4430  -28.0720    0.7740 H   0  0  0  0  0  0  0  0  0  0  0  0
  1  2  2  0  0  0  0
  1  5  1  0  0  0  0
  2  6  1  0  0  0  0
  3  4  1  0  0  0  0
  3  6  2  0  0  0  0
  4  5  1  0  0  0  0
  4  7  2  0  0  0  0
  5 14  2  0  0  0  0
  6 21  1  0  0  0  0
  7  9  1  0  0  0  0
  7 15  1  0  0  0  0
  8 16  1  0  0  0  0
  8 17  2  0  0  0  0
  8 19  1  0  0  0  0
  9 18  2  0  0  0  0
  9 20  1  0  0  0  0
 10 11  1  0  0  0  0
 10 12  1  0  0  0  0
 11 16  1  0  0  0  0
 12 13  1  0  0  0  0
 12 19  1  0  0  0  0
 13 20  1  0  0  0  0
 14 15  1  0  0  0  0
  1 22  1  0  0  0  0
  2 23  1  0  0  0  0
  3 24  1  0  0  0  0
 10 25  1  0  0  0  0
 10 26  1  0  0  0  0
 11 27  1  0  0  0  0
 11 28  1  0  0  0  0
 12 29  1  0  0  0  0
 13 30  1  0  0  0  0
 13 31  1  0  0  0  0
 15 32  1  0  0  0  0
 16 33  1  0  0  0  0
M  END
> <POSIT::Probability>
0.18

> <POSIT::Method>
FRED

> <ReceptorTitle>
UCSF-P4606-REFINED_LIGAND-BOUND-STATE_AALTB__DU__LA1_A-201(A)

> <OMEGA_C>
orFJwppt5sEmKIBADhFIwuFI6MHo+ypAi0U+wqax6cG6O0tAVf8/wtHZ58HJNI9AXG1FwtQ85sEt
hJ1ANp5CwrHW6cHq6xFAdss8wp0858ErhLJA8cEtwgeq4cHAY6E/eOk2whNB6MGDabdADKcqwjwJ
9cH0fyJA+10mwuDj7MFLAg5AlcQvwrlj78FFwj1AjWAvwpvo6cEnWIpAwm1FwmC25MGTIMhAoz1A
wpda5cEMitNAmG0owvB55MFUja8/MUUvwhhR2sHI5Ag/lsY0wgyt68G3ytdABmExwp+N58GcR/0/
WFU0wm7j5MGZZJNAGplBwmWK68FQpXo/n9ZNwr1G5cGk/ohASyBLwsWN6MGQv/I/Ky46wtji6sF1
+zZAn2Erwig8+sHcMNU/VjYpwmxL+sHYglZAJcwkwk0z6cHuaEhA9gMjwvCY8MH8ttc/3B0zwpVU
9cHk/0BAozkswkjf48GI2olAbIUuwqTK78EYPaNAyVM/wrBn5MHQ3fJAn8Ulwm2T4MFoI0Y/

> <OMEGA_E>
u88JwQ==

> <OMEGA_NBR>
     20818

$$$$
CACHE3-HO_1690_5
  -OEChem-03092622523D

 41 44  0     1  0  0  0  0  0999 V2000
  -43.9306  -33.3050   -1.8763 C   0  0  0  0  0  0  0  0  0  0  0  0
  -44.3896  -33.9395   -0.7220 C   0  0  0  0  0  0  0  0  0  0  0  0
  -43.4125  -32.0120   -1.8039 C   0  0  0  0  0  0  0  0  0  0  0  0
  -44.3419  -33.2797    0.5061 C   0  0  0  0  0  0  0  0  0  0  0  0
  -44.2275  -29.0105    5.7025 C   0  0  0  0  0  0  0  0  0  0  0  0
  -46.7054  -29.2372    4.7534 C   0  0  0  0  0  0  0  0  0  0  0  0
  -48.1178  -29.3095    4.6443 C   0  0  0  0  0  0  0  0  0  0  0  0
  -43.3503  -31.3577   -0.5728 C   0  0  0  0  0  0  0  0  0  0  0  0
  -43.8328  -31.9823    0.5784 C   0  0  0  0  0  0  0  0  0  0  0  0
  -48.6397  -29.1627    5.9119 C   0  0  0  0  0  0  0  0  0  0  0  0
  -46.4121  -29.0471    6.0981 C   0  0  0  0  0  0  0  0  0  0  0  0
  -45.6201  -29.3089    3.8812 C   0  0  0  0  0  0  0  0  0  0  0  0
  -42.4277  -29.7038    0.7533 C   0  0  0  0  0  0  0  0  0  0  0  0
  -43.5286  -29.9824    1.7696 C   0  0  1  0  0  0  0  0  0  0  0  0
  -48.9002  -29.5056    3.4059 C   0  0  0  0  0  0  0  0  0  0  0  0
  -50.0363  -29.1591    6.3899 C   0  0  0  0  0  0  0  0  0  0  0  0
  -44.7989  -29.1693    1.5296 C   0  0  0  0  0  0  0  0  0  0  0  0
  -45.1896  -28.9253    6.6439 N   0  0  0  0  0  0  0  0  0  0  0  0
  -44.3639  -29.1927    4.3698 N   0  0  0  0  0  0  0  0  0  0  0  0
  -47.5954  -29.0044    6.7865 N   0  0  0  0  0  0  0  0  0  0  0  0
  -45.8061  -29.4977    2.5284 N   0  0  0  0  0  0  0  0  0  0  0  0
  -42.8242  -30.0929   -0.5626 O   0  0  0  0  0  0  0  0  0  0  0  0
  -43.8445  -31.3800    1.8082 O   0  0  0  0  0  0  0  0  0  0  0  0
  -43.9807  -33.8166   -2.8329 H   0  0  0  0  0  0  0  0  0  0  0  0
  -44.7809  -34.9517   -0.7789 H   0  0  0  0  0  0  0  0  0  0  0  0
  -43.0708  -31.5186   -2.7092 H   0  0  0  0  0  0  0  0  0  0  0  0
  -44.6921  -33.7860    1.4018 H   0  0  0  0  0  0  0  0  0  0  0  0
  -43.2080  -28.9208    6.0617 H   0  0  0  0  0  0  0  0  0  0  0  0
  -42.1529  -28.6360    0.7311 H   0  0  0  0  0  0  0  0  0  0  0  0
  -41.5186  -30.2705    1.0031 H   0  0  0  0  0  0  0  0  0  0  0  0
  -43.1456  -29.7191    2.8024 H   0  0  0  0  0  0  0  0  0  0  0  0
  -49.0771  -30.5735    3.1945 H   0  0  0  0  0  0  0  0  0  0  0  0
  -48.3802  -29.1002    2.5217 H   0  0  0  0  0  0  0  0  0  0  0  0
  -49.8816  -29.0097    3.4755 H   0  0  0  0  0  0  0  0  0  0  0  0
  -50.3846  -30.1710    6.6593 H   0  0  0  0  0  0  0  0  0  0  0  0
  -50.7360  -28.7906    5.6200 H   0  0  0  0  0  0  0  0  0  0  0  0
  -50.1499  -28.5182    7.2796 H   0  0  0  0  0  0  0  0  0  0  0  0
  -44.5665  -28.1018    1.5844 H   0  0  0  0  0  0  0  0  0  0  0  0
  -45.1880  -29.3790    0.5288 H   0  0  0  0  0  0  0  0  0  0  0  0
  -47.6815  -28.8786    7.7857 H   0  0  0  0  0  0  0  0  0  0  0  0
  -46.6791  -29.8813    2.2007 H   0  0  0  0  0  0  0  0  0  0  0  0
  1  2  1  0  0  0  0
  1  3  2  0  0  0  0
  2  4  2  0  0  0  0
  3  8  1  0  0  0  0
  4  9  1  0  0  0  0
  5 18  1  0  0  0  0
  5 19  2  0  0  0  0
  6  7  1  0  0  0  0
  6 11  1  0  0  0  0
  6 12  2  0  0  0  0
  7 10  2  0  0  0  0
  7 15  1  0  0  0  0
  8  9  2  0  0  0  0
  8 22  1  0  0  0  0
  9 23  1  0  0  0  0
 10 16  1  0  0  0  0
 10 20  1  0  0  0  0
 11 18  2  0  0  0  0
 11 20  1  0  0  0  0
 12 19  1  0  0  0  0
 12 21  1  0  0  0  0
 13 14  1  0  0  0  0
 13 22  1  0  0  0  0
 14 17  1  0  0  0  0
 14 23  1  0  0  0  0
 17 21  1  0  0  0  0
  1 24  1  0  0  0  0
  2 25  1  0  0  0  0
  3 26  1  0  0  0  0
  4 27  1  0  0  0  0
  5 28  1  0  0  0  0
 13 29  1  0  0  0  0
 13 30  1  0  0  0  0
 14 31  1  0  0  0  0
 15 32  1  0  0  0  0
 15 33  1  0  0  0  0
 15 34  1  0  0  0  0
 16 35  1  0  0  0  0
 16 36  1  0  0  0  0
 16 37  1  0  0  0  0
 17 38  1  0  0  0  0
 17 39  1  0  0  0  0
 20 40  1  0  0  0  0
 21 41  1  0  0  0  0
M  END
> <POSIT::Probability>
0.5

> <POSIT::Method>
HYBRID

> <ReceptorTitle>
UCSF-P4608-REFINED_LIGAND-BOUND-STATE_A__DU__LA1_A-201(A)

> <OMEGA_C>
5Lgvwls4BcK9KfC/6o4xwgDCB8I02Di/bqYtwlIMAMJ85+a/D14xwm0eBcKgkQE/6egwwmwV6MHs
erZAYNI6wsbl6cEgHJhAoXhAwtt56sHNnZRAr2YtwpLc+sG0ohK/v1QvwsTb/8EsFRQ/FY9CwjhN
6cFaLr1A96U5wpBg6MHAI8NA8Ho2wrZ46sFCZXhA/rUpwl6h7cE42UA/UB0uwuzb78EAgeI/0ZlD
wpAL7MHM+llAIyVIwsxF6cEMesxACjIzwtRa6cGFyMM/HcI0wu5m58HLmtRAqnQxwqiK6cGi1YtA
uWE+wg4J6ME6K9lAejk3wmT768H40SFA9Usrwly+8MFhCBC/vGAvwk8K+8Gkcec/N+wvwjtEB8J9
TTXAoR8zworOC8LgZ0e/gkgswiYm/MENZC3AusQywtQkB8KObbM/8dQswuZd58EK+cFAlpwownQW
5cFjKDs/FRMmwvYp8sFeZIA/EZUswrvA7cHjWTNA+U5EwpaW9ME+c0xAVoVBwkDN6MHaYiFAwoZH
wvIT6ME+b15A04lJwiJe8cFFGdVAr/FKwjpT5sHO1rNAgplIwjEl5MG88uhAD0QywmjQ4MFkzMo/
g8A0wkAI68H8Xwc/2bk+wm8H58GKJPlAW7c6wtQM78GH1wxA

> <OMEGA_E>
D44xwQ==

> <OMEGA_NBR>
      1325

$$$$
CACHE3-HO_1690_6
  -OEChem-03092622523D

 48 50  0     1  0  0  0  0  0999 V2000
  -44.2072  -31.0191   -0.2010 C   0  0  0  0  0  0  0  0  0  0  0  0
  -44.7611  -32.1809   -0.7605 C   0  0  0  0  0  0  0  0  0  0  0  0
  -43.5672  -32.3492    1.7272 C   0  0  0  0  0  0  0  0  0  0  0  0
  -43.8484  -29.0619    6.1902 C   0  0  0  0  0  0  0  0  0  0  0  0
  -46.2739  -29.1954    4.9691 C   0  0  0  0  0  0  0  0  0  0  0  0
  -43.5983  -31.0936    1.0664 C   0  0  0  0  0  0  0  0  0  0  0  0
  -47.7089  -29.2320    4.6544 C   0  0  0  0  0  0  0  0  0  0  0  0
  -48.3764  -29.2551    5.8667 C   0  0  0  0  0  0  0  0  0  0  0  0
  -46.1577  -29.2119    6.3632 C   0  0  0  0  0  0  0  0  0  0  0  0
  -44.6746  -33.4034   -0.0517 C   0  0  0  0  0  0  0  0  0  0  0  0
  -45.0978  -29.1090    4.1982 C   0  0  0  0  0  0  0  0  0  0  0  0
  -48.3061  -29.2131    3.2586 C   0  0  0  0  0  0  0  0  0  0  0  0
  -49.8659  -29.2720    6.1355 C   0  0  0  0  0  0  0  0  0  0  0  0
  -42.0593  -30.1540    2.8910 C   0  0  0  0  0  0  0  0  0  0  0  0
  -46.5397  -34.5397   -1.2585 C   0  0  0  0  0  0  0  0  0  0  0  0
  -44.3119  -35.7259   -0.8528 C   0  0  0  0  0  0  0  0  0  0  0  0
  -44.0021  -28.7198    1.9385 C   0  0  0  0  0  0  0  0  0  0  0  0
  -42.9516  -29.8397    1.6602 C   0  0  2  0  0  0  0  0  0  0  0  0
  -44.0813  -33.4634    1.1642 N   0  0  0  0  0  0  0  0  0  0  0  0
  -44.9527  -29.1654    6.9625 N   0  0  0  0  0  0  0  0  0  0  0  0
  -43.9103  -28.9946    4.8386 N   0  0  0  0  0  0  0  0  0  0  0  0
  -47.4324  -29.2554    6.8884 N   0  0  0  0  0  0  0  0  0  0  0  0
  -45.1476  -29.1287    2.8008 N   0  0  0  0  0  0  0  0  0  0  0  0
  -45.2178  -34.5774   -0.5823 N   0  0  0  0  0  0  0  0  0  0  0  0
  -44.2474  -30.0813   -0.7350 H   0  0  0  0  0  0  0  0  0  0  0  0
  -45.2491  -32.1427   -1.7232 H   0  0  0  0  0  0  0  0  0  0  0  0
  -43.1199  -32.4152    2.7080 H   0  0  0  0  0  0  0  0  0  0  0  0
  -42.8805  -29.0318    6.6684 H   0  0  0  0  0  0  0  0  0  0  0  0
  -48.4308  -30.2450    2.8985 H   0  0  0  0  0  0  0  0  0  0  0  0
  -49.2858  -28.7135    3.2859 H   0  0  0  0  0  0  0  0  0  0  0  0
  -47.6346  -28.6667    2.5800 H   0  0  0  0  0  0  0  0  0  0  0  0
  -50.2177  -30.3129    6.1889 H   0  0  0  0  0  0  0  0  0  0  0  0
  -50.0718  -28.7661    7.0903 H   0  0  0  0  0  0  0  0  0  0  0  0
  -50.3910  -28.7489    5.3227 H   0  0  0  0  0  0  0  0  0  0  0  0
  -41.6220  -29.2208    3.2753 H   0  0  0  0  0  0  0  0  0  0  0  0
  -42.6702  -30.6232    3.6763 H   0  0  0  0  0  0  0  0  0  0  0  0
  -41.2535  -30.8412    2.5936 H   0  0  0  0  0  0  0  0  0  0  0  0
  -46.8020  -35.5490   -1.6086 H   0  0  0  0  0  0  0  0  0  0  0  0
  -47.3039  -34.1875   -0.5499 H   0  0  0  0  0  0  0  0  0  0  0  0
  -46.4926  -33.8544   -2.1176 H   0  0  0  0  0  0  0  0  0  0  0  0
  -44.8938  -36.5634   -1.2650 H   0  0  0  0  0  0  0  0  0  0  0  0
  -43.5420  -35.4227   -1.5777 H   0  0  0  0  0  0  0  0  0  0  0  0
  -43.8295  -36.0409    0.0842 H   0  0  0  0  0  0  0  0  0  0  0  0
  -43.4858  -27.8830    2.4317 H   0  0  0  0  0  0  0  0  0  0  0  0
  -44.4058  -28.3833    0.9723 H   0  0  0  0  0  0  0  0  0  0  0  0
  -42.2783  -29.4411    0.8870 H   0  0  0  0  0  0  0  0  0  0  0  0
  -47.6474  -29.2831    7.8646 H   0  0  0  0  0  0  0  0  0  0  0  0
  -45.3599  -30.0722    2.5466 H   0  0  0  0  0  0  0  0  0  0  0  0
  1  2  2  0  0  0  0
  1  6  1  0  0  0  0
  2 10  1  0  0  0  0
  3  6  2  0  0  0  0
  3 19  1  0  0  0  0
  4 20  1  0  0  0  0
  4 21  2  0  0  0  0
  5  7  1  0  0  0  0
  5  9  1  0  0  0  0
  5 11  2  0  0  0  0
  6 18  1  0  0  0  0
  7  8  2  0  0  0  0
  7 12  1  0  0  0  0
  8 13  1  0  0  0  0
  8 22  1  0  0  0  0
  9 20  2  0  0  0  0
  9 22  1  0  0  0  0
 10 19  2  0  0  0  0
 10 24  1  0  0  0  0
 11 21  1  0  0  0  0
 11 23  1  0  0  0  0
 14 18  1  0  0  0  0
 15 24  1  0  0  0  0
 16 24  1  0  0  0  0
 17 18  1  0  0  0  0
 17 23  1  0  0  0  0
  1 25  1  0  0  0  0
  2 26  1  0  0  0  0
  3 27  1  0  0  0  0
  4 28  1  0  0  0  0
 12 29  1  0  0  0  0
 12 30  1  0  0  0  0
 12 31  1  0  0  0  0
 13 32  1  0  0  0  0
 13 33  1  0  0  0  0
 13 34  1  0  0  0  0
 14 35  1  0  0  0  0
 14 36  1  0  0  0  0
 14 37  1  0  0  0  0
 15 38  1  0  0  0  0
 15 39  1  0  0  0  0
 15 40  1  0  0  0  0
 16 41  1  0  0  0  0
 16 42  1  0  0  0  0
 16 43  1  0  0  0  0
 17 44  1  0  0  0  0
 17 45  1  0  0  0  0
 18 46  1  0  0  0  0
 22 47  1  0  0  0  0
 23 48  1  0  0  0  0
M  END
> <POSIT::Probability>
0.5

> <POSIT::Method>
SHAPEFIT

> <ReceptorTitle>
UCSF-P4608-REFINED_LIGAND-BOUND-STATE_A__DU__LA1_A-201(A)

> <OMEGA_C>
JdQwwjcn+MHcz02+XQszwkW5AMLNrkK/2kQuwpplAcJSFt0/tmQvwsV+6MEOFsZAchg5wkWQ6cHS
Ap9AqGQuwsC/+MEIf4g/49U+wjHb6cEI8ZRAeoFBwocK6sG4u7tAf6E4wuGx6cG0n8tAv7Iywhed
BcIg21O9GWQ0wk/f6MFAV4ZAdzlBwmi06cEtjVBAunZHwgst6sHGVcRAwzwownA78cFnBTlAtCg6
wqcoCsL6FKG/Xz8xwlTnDsKTU1q/IgIwwjPC5cFUIvg/Zc4rws637sHsgNQ/NFMwwoXaBcLyApU/
m88zwrVS6cGIzN5AGaQvwub058HO1ZpA0ro9wvwK6sHYbdxAHpc0wosH6cHnQDNACd80wjVPCsIu
ExW/Tf0wwm2m8MEkKDy/DP80wiiSAMK7kdy/x3oswjWpAcJGUC1AnoUrwglB6MHoY9VAGLlBwrj1
8cF3gTlAnyRFwlS15cGDS1JA3Yk+wk9V5cG8HiVA5d5IwsWA8sE0C8ZAkElIwvEg5sGV4+JAapBJ
wsH95cE4U6pA6nwmwhzE6cHvnlFAR64qwln89MHqR2tAmAMlwsu69sGl/SVANTU7wiYyDsIu582/
ODc9wv+/CMILyQy/d/g5wuJqB8KRhgfASpMzwvVAEsKq66G/CysuwtywDcKX8cm/YlEvwtUpEMKd
fqw9dPEtwmQQ38GPoBtAk58xwvYQ48GM5Xg/8BwpwniH68GHE2M/6pY+wtJD6sEnq/tAj3A1wu2T
8MGo+yJA

> <OMEGA_E>
6nVLPw==

> <OMEGA_NBR>
      2809

$$$$
CACHE3-HO_1690_8
  -OEChem-03092622523D

 46 48  0     0  0  0  0  0  0999 V2000
  -43.1333  -32.9375    2.0599 C   0  0  0  0  0  0  0  0  0  0  0  0
  -42.9362  -31.5925    2.4183 C   0  0  0  0  0  0  0  0  0  0  0  0
  -43.6079  -33.2646    0.7774 C   0  0  0  0  0  0  0  0  0  0  0  0
  -43.8536  -29.1339    6.1216 C   0  0  0  0  0  0  0  0  0  0  0  0
  -46.3328  -29.0897    5.0040 C   0  0  0  0  0  0  0  0  0  0  0  0
  -43.2172  -30.5611    1.4943 C   0  0  0  0  0  0  0  0  0  0  0  0
  -47.7819  -29.0830    4.7482 C   0  0  0  0  0  0  0  0  0  0  0  0
  -43.9040  -32.2422   -0.1647 C   0  0  0  0  0  0  0  0  0  0  0  0
  -43.7225  -30.8837    0.2090 C   0  0  0  0  0  0  0  0  0  0  0  0
  -48.4007  -29.2099    5.9799 C   0  0  0  0  0  0  0  0  0  0  0  0
  -46.1611  -29.2197    6.3859 C   0  0  0  0  0  0  0  0  0  0  0  0
  -45.1849  -28.9750    4.1909 C   0  0  0  0  0  0  0  0  0  0  0  0
  -48.4367  -28.9522    3.3844 C   0  0  0  0  0  0  0  0  0  0  0  0
  -49.8793  -29.2578    6.3052 C   0  0  0  0  0  0  0  0  0  0  0  0
  -44.5558  -33.8992   -1.8193 C   0  0  0  0  0  0  0  0  0  0  0  0
  -45.3704  -29.6943   -1.0591 C   0  0  0  0  0  0  0  0  0  0  0  0
  -42.9339  -29.1098    1.8747 C   0  0  0  0  0  0  0  0  0  0  0  0
  -44.2149  -28.2313    1.9727 C   0  0  0  0  0  0  0  0  0  0  0  0
  -44.9308  -29.2451    6.9338 N   0  0  0  0  0  0  0  0  0  0  0  0
  -43.9629  -28.9917    4.7773 N   0  0  0  0  0  0  0  0  0  0  0  0
  -47.4153  -29.2931    6.9588 N   0  0  0  0  0  0  0  0  0  0  0  0
  -45.3015  -28.8173    2.8077 N   0  0  0  0  0  0  0  0  0  0  0  0
  -44.3342  -32.5151   -1.4610 O   0  0  0  0  0  0  0  0  0  0  0  0
  -43.9759  -29.8621   -0.6924 O   0  0  0  0  0  0  0  0  0  0  0  0
  -42.9197  -33.7214    2.7714 H   0  0  0  0  0  0  0  0  0  0  0  0
  -42.5685  -31.3466    3.4036 H   0  0  0  0  0  0  0  0  0  0  0  0
  -43.7485  -34.3005    0.5061 H   0  0  0  0  0  0  0  0  0  0  0  0
  -42.8677  -29.1595    6.5618 H   0  0  0  0  0  0  0  0  0  0  0  0
  -48.5842  -29.9522    2.9505 H   0  0  0  0  0  0  0  0  0  0  0  0
  -49.4105  -28.4520    3.4918 H   0  0  0  0  0  0  0  0  0  0  0  0
  -47.7899  -28.3574    2.7227 H   0  0  0  0  0  0  0  0  0  0  0  0
  -50.2263  -30.3014    6.2841 H   0  0  0  0  0  0  0  0  0  0  0  0
  -50.0481  -28.8356    7.3068 H   0  0  0  0  0  0  0  0  0  0  0  0
  -50.4375  -28.6708    5.5610 H   0  0  0  0  0  0  0  0  0  0  0  0
  -44.8904  -33.9586   -2.8655 H   0  0  0  0  0  0  0  0  0  0  0  0
  -43.6186  -34.4628   -1.7017 H   0  0  0  0  0  0  0  0  0  0  0  0
  -45.3269  -34.3288   -1.1629 H   0  0  0  0  0  0  0  0  0  0  0  0
  -45.4647  -28.8635   -1.7739 H   0  0  0  0  0  0  0  0  0  0  0  0
  -45.7416  -30.6203   -1.5223 H   0  0  0  0  0  0  0  0  0  0  0  0
  -45.9620  -29.4720   -0.1587 H   0  0  0  0  0  0  0  0  0  0  0  0
  -42.4285  -29.0984    2.8516 H   0  0  0  0  0  0  0  0  0  0  0  0
  -42.2703  -28.6738    1.1134 H   0  0  0  0  0  0  0  0  0  0  0  0
  -43.9336  -27.2603    2.4062 H   0  0  0  0  0  0  0  0  0  0  0  0
  -44.6064  -28.0794    0.9560 H   0  0  0  0  0  0  0  0  0  0  0  0
  -47.5906  -29.3919    7.9384 H   0  0  0  0  0  0  0  0  0  0  0  0
  -45.4738  -29.7303    2.4379 H   0  0  0  0  0  0  0  0  0  0  0  0
  1  2  2  0  0  0  0
  1  3  1  0  0  0  0
  2  6  1  0  0  0  0
  3  8  2  0  0  0  0
  4 19  1  0  0  0  0
  4 20  2  0  0  0  0
  5  7  1  0  0  0  0
  5 11  1  0  0  0  0
  5 12  2  0  0  0  0
  6  9  2  0  0  0  0
  6 17  1  0  0  0  0
  7 10  2  0  0  0  0
  7 13  1  0  0  0  0
  8  9  1  0  0  0  0
  8 23  1  0  0  0  0
  9 24  1  0  0  0  0
 10 14  1  0  0  0  0
 10 21  1  0  0  0  0
 11 19  2  0  0  0  0
 11 21  1  0  0  0  0
 12 20  1  0  0  0  0
 12 22  1  0  0  0  0
 15 23  1  0  0  0  0
 16 24  1  0  0  0  0
 17 18  1  0  0  0  0
 18 22  1  0  0  0  0
  1 25  1  0  0  0  0
  2 26  1  0  0  0  0
  3 27  1  0  0  0  0
  4 28  1  0  0  0  0
 13 29  1  0  0  0  0
 13 30  1  0  0  0  0
 13 31  1  0  0  0  0
 14 32  1  0  0  0  0
 14 33  1  0  0  0  0
 14 34  1  0  0  0  0
 15 35  1  0  0  0  0
 15 36  1  0  0  0  0
 15 37  1  0  0  0  0
 16 38  1  0  0  0  0
 16 39  1  0  0  0  0
 16 40  1  0  0  0  0
 17 41  1  0  0  0  0
 17 42  1  0  0  0  0
 18 43  1  0  0  0  0
 18 44  1  0  0  0  0
 21 45  1  0  0  0  0
 22 46  1  0  0  0  0
M  END
> <POSIT::Probability>
0.72

> <POSIT::Method>
SHAPEFIT

> <ReceptorTitle>
UCSF-P4608-REFINED_LIGAND-BOUND-STATE_A__DU__LA1_A-201(A)

> <OMEGA_C>
h4gswgLAA8Ia1QNApL4rwmO9/MHcxBpAfG4uwvIOBcIiBEc/HGovwjgS6cFc5MNAvVQ5wse36MF2
IKBAXt4swg199MHURr8/qSA/wu2p6ME08ZdAs50vwg74AMIJqyi+z+MuwtQR98Gs+1U+XJpBwvKt
6cG0W79A+KQ4wvbB6cEUWcxAYr00wuLM58HCG4ZAK79BwjGe58HhmVhAXoRHwv0P6sE0xMlAJjky
wsOYB8Ij3+i/TXs1wtSN7cGTj4e/Vbwrwuzg6MHe9O8/C9wwwsTZ4cFAgfw/MLkzwu716cEQ4t1A
+dkvwuju58G235hASak9witY6sHQrt5AtTQ1wtmJ5sFasTNAOVYxwnUPAsLGALu/WOcvwobl7sEe
QTG/0q0rwsLiBsJEXjFALkYqwujF+sHt01lAd/4uwqszCcKdjgE/iXgrwqBG6cH7+dFAOFZCwjGe
78Fg1TxAT6RFwrGd48EOeV9A0Sg/wvPb4sF5QS5AsedIwlRp8sGpF8lAPjFIwjav5sFN0elA+r9J
wuVd5cF887FAxY8zwpPVB8JoZDfAZnkuwvTZCcKS0Nm/v041wrNQCcK+2pS/29s1wofo5sEREOO/
a/c2wnf29MHT2cK/C9k3wpDG68EigyK+zbYpwoTJ6MHZgDZA0BQpwttj5cGAhI4/C7wvwg8V2sHW
/xlA62wywpKi4MHTvHQ/wVw+wpUi68FGB/5AIOU1wrDX7cHuBhxA

> <OMEGA_E>
WK8vPw==

> <OMEGA_NBR>
      4247

$$$$
CACHE3HI_1690_45
  -OEChem-03092622523D

 42 44  0     1  0  0  0  0  0999 V2000
  -43.8195  -29.1409    6.0947 C   0  0  0  0  0  0  0  0  0  0  0  0
  -46.2869  -29.2442    4.9510 C   0  0  0  0  0  0  0  0  0  0  0  0
  -47.7360  -29.2414    4.6812 C   0  0  0  0  0  0  0  0  0  0  0  0
  -48.3671  -29.2224    5.9132 C   0  0  0  0  0  0  0  0  0  0  0  0
  -46.1321  -29.2152    6.3397 C   0  0  0  0  0  0  0  0  0  0  0  0
  -45.1259  -29.2226    4.1455 C   0  0  0  0  0  0  0  0  0  0  0  0
  -43.5000  -31.9947    2.2798 C   0  0  0  0  0  0  0  0  0  0  0  0
  -44.6245  -31.9679    1.2380 C   0  0  0  0  0  0  0  0  0  0  0  0
  -43.3447  -29.9294    1.1506 C   0  0  1  0  0  0  0  0  0  0  0  0
  -44.2181  -30.8541    0.2684 C   0  0  0  0  0  0  0  0  0  0  0  0
  -48.3812  -29.2357    3.3074 C   0  0  0  0  0  0  0  0  0  0  0  0
  -49.8466  -29.1972    6.2332 C   0  0  0  0  0  0  0  0  0  0  0  0
  -43.3403  -31.4482   -0.8659 C   0  0  0  0  0  0  0  0  0  0  0  0
  -45.4527  -30.1654   -0.3704 C   0  0  0  0  0  0  0  0  0  0  0  0
  -44.1027  -28.7759    1.8666 C   0  0  0  0  0  0  0  0  0  0  0  0
  -44.9083  -29.1676    6.8997 N   0  0  0  0  0  0  0  0  0  0  0  0
  -43.9093  -29.1681    4.7416 N   0  0  0  0  0  0  0  0  0  0  0  0
  -47.3924  -29.2193    6.9039 N   0  0  0  0  0  0  0  0  0  0  0  0
  -42.7306  -30.8391    2.1323 N   0  0  0  0  0  0  0  0  0  0  0  0
  -45.2207  -29.2119    2.7550 N   0  0  0  0  0  0  0  0  0  0  0  0
  -43.3188  -32.8720    3.1135 O   0  0  0  0  0  0  0  0  0  0  0  0
  -42.8404  -29.0963    6.5484 H   0  0  0  0  0  0  0  0  0  0  0  0
  -44.6941  -32.9331    0.7151 H   0  0  0  0  0  0  0  0  0  0  0  0
  -45.5897  -31.7377    1.7128 H   0  0  0  0  0  0  0  0  0  0  0  0
  -42.5589  -29.4880    0.5200 H   0  0  0  0  0  0  0  0  0  0  0  0
  -48.5479  -30.2712    2.9758 H   0  0  0  0  0  0  0  0  0  0  0  0
  -49.3446  -28.7071    3.3571 H   0  0  0  0  0  0  0  0  0  0  0  0
  -47.7188  -28.7243    2.5935 H   0  0  0  0  0  0  0  0  0  0  0  0
  -50.2203  -30.2278    6.3239 H   0  0  0  0  0  0  0  0  0  0  0  0
  -50.0074  -28.6643    7.1819 H   0  0  0  0  0  0  0  0  0  0  0  0
  -50.3874  -28.6809    5.4264 H   0  0  0  0  0  0  0  0  0  0  0  0
  -43.0487  -30.6480   -1.5620 H   0  0  0  0  0  0  0  0  0  0  0  0
  -42.4379  -31.9027   -0.4311 H   0  0  0  0  0  0  0  0  0  0  0  0
  -43.9123  -32.2154   -1.4083 H   0  0  0  0  0  0  0  0  0  0  0  0
  -45.1175  -29.3746   -1.0576 H   0  0  0  0  0  0  0  0  0  0  0  0
  -46.0405  -30.9101   -0.9273 H   0  0  0  0  0  0  0  0  0  0  0  0
  -46.0761  -29.7234    0.4208 H   0  0  0  0  0  0  0  0  0  0  0  0
  -43.3777  -28.2192    2.4786 H   0  0  0  0  0  0  0  0  0  0  0  0
  -44.5189  -28.1107    1.0957 H   0  0  0  0  0  0  0  0  0  0  0  0
  -47.5775  -29.2199    7.8866 H   0  0  0  0  0  0  0  0  0  0  0  0
  -41.8803  -30.6547    2.6252 H   0  0  0  0  0  0  0  0  0  0  0  0
  -45.4358  -30.1508    2.4863 H   0  0  0  0  0  0  0  0  0  0  0  0
  1 16  1  0  0  0  0
  1 17  2  0  0  0  0
  2  3  1  0  0  0  0
  2  5  1  0  0  0  0
  2  6  2  0  0  0  0
  3  4  2  0  0  0  0
  3 11  1  0  0  0  0
  4 12  1  0  0  0  0
  4 18  1  0  0  0  0
  5 16  2  0  0  0  0
  5 18  1  0  0  0  0
  6 17  1  0  0  0  0
  6 20  1  0  0  0  0
  7  8  1  0  0  0  0
  7 19  1  0  0  0  0
  7 21  2  0  0  0  0
  8 10  1  0  0  0  0
  9 10  1  0  0  0  0
  9 15  1  0  0  0  0
  9 19  1  0  0  0  0
 10 13  1  0  0  0  0
 10 14  1  0  0  0  0
 15 20  1  0  0  0  0
  1 22  1  0  0  0  0
  8 23  1  0  0  0  0
  8 24  1  0  0  0  0
  9 25  1  0  0  0  0
 11 26  1  0  0  0  0
 11 27  1  0  0  0  0
 11 28  1  0  0  0  0
 12 29  1  0  0  0  0
 12 30  1  0  0  0  0
 12 31  1  0  0  0  0
 13 32  1  0  0  0  0
 13 33  1  0  0  0  0
 13 34  1  0  0  0  0
 14 35  1  0  0  0  0
 14 36  1  0  0  0  0
 14 37  1  0  0  0  0
 15 38  1  0  0  0  0
 15 39  1  0  0  0  0
 18 40  1  0  0  0  0
 19 41  1  0  0  0  0
 20 42  1  0  0  0  0
M  END
> <POSIT::Probability>
0.99

> <POSIT::Method>
SHAPEFIT

> <ReceptorTitle>
UCSF-P4608-REFINED_LIGAND-BOUND-STATE_A__DU__LA1_A-201(A)

> <OMEGA_C>
IEcvwp8g6cGsB8NAwCU5whn06cGabp5AoPE+wnvu6cFdzJVA6ndBwoLH6cHaOL1AUIc4wqW46cF0
3spA8YA0wt/H6cE4qIRA/P8twjr1/8GI5xFAh38ywiq+/8FKdp4/9GAtwlpv78F9RpM/Ut8wwiHV
9sECZ4k+TYZBwsTi6cEHrVNA6GJHwueT6cFmdsdAd1wtwv6V+8EcrF2/lc81wtNS8cFcpb2+LGkw
wvQ05sFW7e4/G6IzwjRX6cGUytxAHKMvwjJY6cEau5dAxZE9wgfB6cGo7NxAK+wqwoC29sEQeAhA
BOI0wvCx6cFNUTBAeEYtwuh8A8JhQ0dAjlwrwi3F6ME0jNFAtsYywoW7A8I5EDc/4ls2wtPm/cHC
PNs/RzwqwnPn68EeHAU/BzFCwmcr8sHMcj5A0mBFwj6o5cGH21ZAAOA+wmjL5cEi/CVAjeFIwpXS
8cELXcpAigdIwmVQ5cFz0uVArIxJwnly5cHspK1A1DEswg0v9cEa78e/YMApwtQ4/8Gzu9y+L6Yv
wprcAMLKRLS/Sng0wkb/6sGoX4e/cCk4wslH98HrYW2/7U04wp7J7cHkddc+xoItwgDB4cHGoR5A
WhMywrzi4MHFPow/aU8+wkPC6cHyXvxAa4Unwsg89cH1AihAO741wt408cEiIB9A

> <OMEGA_E>
gD2uPA==

> <OMEGA_NBR>
      5610

$$$$
CACHE3HI_1690_90
  -OEChem-03092622523D

 42 45  0     1  0  0  0  0  0999 V2000
  -43.9300  -29.3958    6.0812 C   0  0  0  0  0  0  0  0  0  0  0  0
  -46.3164  -29.2433    4.9088 C   0  0  0  0  0  0  0  0  0  0  0  0
  -47.7124  -29.1521    4.6746 C   0  0  0  0  0  0  0  0  0  0  0  0
  -48.3367  -29.1046    5.9029 C   0  0  0  0  0  0  0  0  0  0  0  0
  -46.1361  -29.2486    6.2864 C   0  0  0  0  0  0  0  0  0  0  0  0
  -45.1644  -29.3239    4.1275 C   0  0  0  0  0  0  0  0  0  0  0  0
  -46.1246  -32.0663   -1.7988 C   0  0  0  0  0  0  0  0  0  0  0  0
  -44.6428  -32.3625   -2.0966 C   0  0  0  0  0  0  0  0  0  0  0  0
  -46.3615  -30.8443   -0.9085 C   0  0  0  0  0  0  0  0  0  0  0  0
  -43.6594  -31.3813   -1.4527 C   0  0  0  0  0  0  0  0  0  0  0  0
  -45.4532  -30.8849    0.2835 C   0  0  1  0  0  0  0  0  0  0  0  0
  -44.0021  -31.1727   -0.0089 C   0  0  2  0  0  0  0  0  0  0  0  0
  -44.4125  -29.8174    0.5084 C   0  0  0  0  0  0  0  0  0  0  0  0
  -48.3880  -29.1139    3.3608 C   0  0  0  0  0  0  0  0  0  0  0  0
  -49.7658  -29.0109    6.2601 C   0  0  0  0  0  0  0  0  0  0  0  0
  -44.0518  -29.4110    1.8963 C   0  0  0  0  0  0  0  0  0  0  0  0
  -44.9652  -29.3233    6.9428 N   0  0  0  0  0  0  0  0  0  0  0  0
  -43.9553  -29.4008    4.7295 N   0  0  0  0  0  0  0  0  0  0  0  0
  -47.3704  -29.1641    6.8742 N   0  0  0  0  0  0  0  0  0  0  0  0
  -45.2372  -29.3277    2.7572 N   0  0  0  0  0  0  0  0  0  0  0  0
  -42.9456  -29.4584    6.5322 H   0  0  0  0  0  0  0  0  0  0  0  0
  -46.6691  -31.9301   -2.7549 H   0  0  0  0  0  0  0  0  0  0  0  0
  -46.5804  -32.9618   -1.3274 H   0  0  0  0  0  0  0  0  0  0  0  0
  -44.4009  -33.3909   -1.7593 H   0  0  0  0  0  0  0  0  0  0  0  0
  -44.4931  -32.3780   -3.1963 H   0  0  0  0  0  0  0  0  0  0  0  0
  -46.1873  -29.9338   -1.4765 H   0  0  0  0  0  0  0  0  0  0  0  0
  -47.3979  -30.8378   -0.5814 H   0  0  0  0  0  0  0  0  0  0  0  0
  -42.6618  -31.7978   -1.5113 H   0  0  0  0  0  0  0  0  0  0  0  0
  -43.6753  -30.4388   -1.9802 H   0  0  0  0  0  0  0  0  0  0  0  0
  -45.9014  -31.3739    1.1282 H   0  0  0  0  0  0  0  0  0  0  0  0
  -43.4712  -31.8305    0.6331 H   0  0  0  0  0  0  0  0  0  0  0  0
  -44.3735  -28.9751   -0.1718 H   0  0  0  0  0  0  0  0  0  0  0  0
  -48.6441  -30.1239    2.9991 H   0  0  0  0  0  0  0  0  0  0  0  0
  -47.7500  -28.6623    2.5825 H   0  0  0  0  0  0  0  0  0  0  0  0
  -49.3203  -28.5290    3.4124 H   0  0  0  0  0  0  0  0  0  0  0  0
  -50.2324  -30.0053    6.3665 H   0  0  0  0  0  0  0  0  0  0  0  0
  -50.3509  -28.4805    5.4890 H   0  0  0  0  0  0  0  0  0  0  0  0
  -49.9028  -28.4733    7.2127 H   0  0  0  0  0  0  0  0  0  0  0  0
  -43.3486  -30.1313    2.3519 H   0  0  0  0  0  0  0  0  0  0  0  0
  -43.5443  -28.4295    1.9075 H   0  0  0  0  0  0  0  0  0  0  0  0
  -47.5391  -29.1511    7.8706 H   0  0  0  0  0  0  0  0  0  0  0  0
  -46.1279  -29.2715    2.2994 H   0  0  0  0  0  0  0  0  0  0  0  0
  1 17  1  0  0  0  0
  1 18  2  0  0  0  0
  2  3  1  0  0  0  0
  2  5  1  0  0  0  0
  2  6  2  0  0  0  0
  3  4  2  0  0  0  0
  3 14  1  0  0  0  0
  4 15  1  0  0  0  0
  4 19  1  0  0  0  0
  5 17  2  0  0  0  0
  5 19  1  0  0  0  0
  6 18  1  0  0  0  0
  6 20  1  0  0  0  0
  7  8  1  0  0  0  0
  7  9  1  0  0  0  0
  8 10  1  0  0  0  0
  9 11  1  0  0  0  0
 10 12  1  0  0  0  0
 11 12  1  0  0  0  0
 11 13  1  0  0  0  0
 12 13  1  0  0  0  0
 13 16  1  0  0  0  0
 16 20  1  0  0  0  0
  1 21  1  0  0  0  0
  7 22  1  0  0  0  0
  7 23  1  0  0  0  0
  8 24  1  0  0  0  0
  8 25  1  0  0  0  0
  9 26  1  0  0  0  0
  9 27  1  0  0  0  0
 10 28  1  0  0  0  0
 10 29  1  0  0  0  0
 11 30  1  0  0  0  0
 12 31  1  0  0  0  0
 13 32  1  0  0  0  0
 14 33  1  0  0  0  0
 14 34  1  0  0  0  0
 14 35  1  0  0  0  0
 15 36  1  0  0  0  0
 15 37  1  0  0  0  0
 15 38  1  0  0  0  0
 16 39  1  0  0  0  0
 16 40  1  0  0  0  0
 19 41  1  0  0  0  0
 20 42  1  0  0  0  0
M  END
> <POSIT::Probability>
0.55

> <POSIT::Method>
HYBRID

> <ReceptorTitle>
UCSF-P4608-REFINED_LIGAND-BOUND-STATE_A__DU__LA1_A-201(A)

> <OMEGA_C>
V7gvwpUq68FgmcJA/kM5wjzy6cEGFZ1AeNk+wpQ36cFDlpVAw1hBwkzW6MHy5LxAVos4whn96cFh
KslAUqg0wlWX6sHYFIRAon84wttDAMJ8QOa/OZIywj1zAcJnLwbAMXI5wgnB9sHokWi/NaMuwtAM
+8HE8rm/DdA1wjIU98HgJpE+HQIwwsBh+cEANhG8WqYxwhWK7sF8IwI/WI1Bwlvp6MHsFldAORBH
wlEW6MFWUshAEDUwws5J68HkuPI/YNwzwgiW6sEiK95AN9IvwuI068HsV5dAQns9wh5Q6cEu+dtA
2/I0wjKf6sFjdTBARMgrwsiq68FgB9FALq06wu1w/8HeUDDAXFI6wuvYA8Jc6Km/iZoxwj6QBcJW
MOG/6vgxwhKDAcJrkEzA1r84wm9478H6/by/b5c9wsWz9sHY2BS/qKUqwudh/sGsccG/jrMuwpmC
88H8df2/FZs3wqj9+sG5aZA/iOItwuKk/sHAEiI/dH4xwgrN58HQ4C++kpNCwq/98MG88D9ABQA/
wmZM5cEYSCVA+kdFwnM75MEcZVpA9u1Iwt0K8MGIustAW2dJwiHY48Gcpa9AdZxHwmnJ48GrzuZA
62QtwtoM8cHAhBZAVi0uwo5v48GEKPQ/ESg+woQ16cFD3PtABYM4wiIs6sHqKRNA

> <OMEGA_E>
N9ozwQ==

> <OMEGA_NBR>
      6958

$$$$
CACHE3HI_1695_3
  -OEChem-03092622523D

 34 35  0     0  0  0  0  0  0999 V2000
  -47.3094  -29.7267    3.5289 C   0  0  0  0  0  0  0  0  0  0  0  0
  -46.1694  -29.5793    4.2179 C   0  0  0  0  0  0  0  0  0  0  0  0
  -48.6137  -29.7023    4.1761 C   0  0  0  0  0  0  0  0  0  0  0  0
  -48.6750  -29.5347    5.5136 C   0  0  0  0  0  0  0  0  0  0  0  0
  -46.2326  -29.3859    5.6933 C   0  0  0  0  0  0  0  0  0  0  0  0
  -44.9096  -29.6181    3.4713 C   0  0  0  0  0  0  0  0  0  0  0  0
  -44.1834  -29.2059   -0.4352 C   0  0  0  0  0  0  0  0  0  0  0  0
  -42.4811  -29.4554    0.8394 C   0  0  0  0  0  0  0  0  0  0  0  0
  -43.5141  -28.3227    0.6421 C   0  0  0  0  0  0  0  0  0  0  0  0
  -43.4909  -30.4338    0.1979 C   0  0  0  0  0  0  0  0  0  0  0  0
  -49.7810  -29.8595    3.2444 C   0  0  0  0  0  0  0  0  0  0  0  0
  -49.9224  -29.5052    6.3479 C   0  0  0  0  0  0  0  0  0  0  0  0
  -44.3723  -27.9902    1.8537 C   0  0  0  0  0  0  0  0  0  0  0  0
  -47.5048  -29.3811    6.2366 N   0  0  0  0  0  0  0  0  0  0  0  0
  -45.2101  -29.2446    6.3594 O   0  0  0  0  0  0  0  0  0  0  0  0
  -43.8569  -30.0174    3.9425 O   0  0  0  0  0  0  0  0  0  0  0  0
  -45.1327  -29.1473    2.2183 O   0  0  0  0  0  0  0  0  0  0  0  0
  -44.2472  -31.1393    1.0701 F   0  0  0  0  0  0  0  0  0  0  0  0
  -42.9686  -31.3246   -0.6737 F   0  0  0  0  0  0  0  0  0  0  0  0
  -47.2945  -29.8712    2.4515 H   0  0  0  0  0  0  0  0  0  0  0  0
  -45.2808  -29.2491   -0.3845 H   0  0  0  0  0  0  0  0  0  0  0  0
  -43.8919  -28.9833   -1.4688 H   0  0  0  0  0  0  0  0  0  0  0  0
  -41.5386  -29.3282    0.2933 H   0  0  0  0  0  0  0  0  0  0  0  0
  -42.2477  -29.6939    1.8868 H   0  0  0  0  0  0  0  0  0  0  0  0
  -43.0674  -27.4186    0.2221 H   0  0  0  0  0  0  0  0  0  0  0  0
  -50.0207  -30.9148    3.1411 H   0  0  0  0  0  0  0  0  0  0  0  0
  -49.5267  -29.4453    2.2720 H   0  0  0  0  0  0  0  0  0  0  0  0
  -50.6388  -29.3269    3.6475 H   0  0  0  0  0  0  0  0  0  0  0  0
  -50.1600  -30.5133    6.6790 H   0  0  0  0  0  0  0  0  0  0  0  0
  -50.7455  -29.1117    5.7563 H   0  0  0  0  0  0  0  0  0  0  0  0
  -49.7645  -28.8642    7.2120 H   0  0  0  0  0  0  0  0  0  0  0  0
  -45.0623  -27.1733    1.6229 H   0  0  0  0  0  0  0  0  0  0  0  0
  -43.7442  -27.7001    2.7017 H   0  0  0  0  0  0  0  0  0  0  0  0
  -47.5900  -29.2542    7.2415 H   0  0  0  0  0  0  0  0  0  0  0  0
  1  2  2  0  0  0  0
  1  3  1  0  0  0  0
  2  5  1  0  0  0  0
  2  6  1  0  0  0  0
  3  4  2  0  0  0  0
  3 11  1  0  0  0  0
  4 12  1  0  0  0  0
  4 14  1  0  0  0  0
  5 14  1  0  0  0  0
  5 15  2  0  0  0  0
  6 16  2  0  0  0  0
  6 17  1  0  0  0  0
  7  9  1  0  0  0  0
  7 10  1  0  0  0  0
  8  9  1  0  0  0  0
  8 10  1  0  0  0  0
  9 13  1  0  0  0  0
 10 18  1  0  0  0  0
 10 19  1  0  0  0  0
 13 17  1  0  0  0  0
  1 20  1  0  0  0  0
  7 21  1  0  0  0  0
  7 22  1  0  0  0  0
  8 23  1  0  0  0  0
  8 24  1  0  0  0  0
  9 25  1  0  0  0  0
 11 26  1  0  0  0  0
 11 27  1  0  0  0  0
 11 28  1  0  0  0  0
 12 29  1  0  0  0  0
 12 30  1  0  0  0  0
 12 31  1  0  0  0  0
 13 32  1  0  0  0  0
 13 33  1  0  0  0  0
 14 34  1  0  0  0  0
M  END
> <POSIT::Probability>
0.19

> <POSIT::Method>
FRED

> <ReceptorTitle>
UCSF-P4608-REFINED_LIGAND-BOUND-STATE_A__DU__LA1_A-201(A)

> <OMEGA_C>
zjw9wknQ7cHZ2GFAga04wlui7MHw+IZAZHRCwl2e7cF4ooVAJ7NCwidH7MFAb7BAIu44wmcW68GL
L7ZAbqMzwubx7MEWKl5A17swwr2l6cFj0t6+newpwpmk68F+4lY/eA4uwuyU4sGiYyQ/qvYtwlh4
88Ear0o+xB9HwkHg7sHQpE9AgbBHwqEK7MHCIctAP30xwv7r38EbRe0/5AQ+wmYM68FgksdAH9c0
wgj16cGSgMtAbG0vwosj8ME7UnxA7oc0wqEt6cGv+A1AKv0wwj8d+cGs94g/2t8rws+Y+sGidyy/
jy09wjb47sHU5RxAkR81wjH+6cFb3sS+VpEvwsDd58HnAby/jCcmwimg6sENMZY+o/0owguN7cEd
gvE/AkUswjFZ28E6aGM+NxVIwn5R98ESCElAUBtGwvuP68FgaBFAI45Kwm6d6sErcWlA0qNIwjcb
9ME6utVAbvtKwrHk6ME7M7hA3Q5Hwuzp5sEayeZAxj80wvxi2cFtvM8/DfouwueZ3cHv6CxAH1w+
wq8I6sGFuudA

> <OMEGA_E>
TOsdwQ==

> <OMEGA_NBR>
      8125

$$$$
CACHE3HI_1700_22
  -OEChem-03092622523D

 40 43  0     1  0  0  0  0  0999 V2000
  -43.8106  -29.4947    6.3468 C   0  0  0  0  0  0  0  0  0  0  0  0
  -45.7262  -29.1084    4.5727 C   0  0  0  0  0  0  0  0  0  0  0  0
  -44.4719  -29.5849    4.1870 C   0  0  0  0  0  0  0  0  0  0  0  0
  -45.9721  -28.8331    5.9094 C   0  0  0  0  0  0  0  0  0  0  0  0
  -45.4420  -29.5440    2.2150 C   0  0  0  0  0  0  0  0  0  0  0  0
  -51.2372  -29.3595    5.7703 C   0  0  0  0  0  0  0  0  0  0  0  0
  -51.2062  -28.8477    4.3615 C   0  0  0  0  0  0  0  0  0  0  0  0
  -49.8732  -29.3565    3.8652 C   0  0  0  0  0  0  0  0  0  0  0  0
  -45.4923  -30.9864    0.1967 C   0  0  0  0  0  0  0  0  0  0  0  0
  -45.5630  -28.5454   -0.0764 C   0  0  0  0  0  0  0  0  0  0  0  0
  -44.1890  -30.9838   -0.6025 C   0  0  0  0  0  0  0  0  0  0  0  0
  -44.2528  -28.6282   -0.8518 C   0  0  0  0  0  0  0  0  0  0  0  0
  -49.0342  -29.4185    5.1233 C   0  0  1  0  0  0  0  0  0  0  0  0
  -48.3148  -28.1152    5.4404 C   0  0  0  0  0  0  0  0  0  0  0  0
  -43.4690  -29.7922    5.0802 N   0  0  0  0  0  0  0  0  0  0  0  0
  -44.9891  -29.0327    6.8113 N   0  0  0  0  0  0  0  0  0  0  0  0
  -44.3198  -29.8309    2.8350 N   0  0  0  0  0  0  0  0  0  0  0  0
  -45.6351  -29.6796    0.8456 N   0  0  0  0  0  0  0  0  0  0  0  0
  -47.2231  -28.3520    6.3363 N   0  0  0  0  0  0  0  0  0  0  0  0
  -52.2305  -29.4290    6.4770 O   0  0  0  0  0  0  0  0  0  0  0  0
  -49.9749  -29.7069    6.1683 O   0  0  0  0  0  0  0  0  0  0  0  0
  -44.1556  -29.8886   -1.5223 O   0  0  0  0  0  0  0  0  0  0  0  0
  -46.7311  -28.9714    3.1885 S   0  0  0  0  0  0  0  0  0  0  0  0
  -43.0385  -29.6494    7.0924 H   0  0  0  0  0  0  0  0  0  0  0  0
  -52.0415  -29.2831    3.8036 H   0  0  0  0  0  0  0  0  0  0  0  0
  -51.2534  -27.7556    4.3361 H   0  0  0  0  0  0  0  0  0  0  0  0
  -49.9451  -30.3235    3.3503 H   0  0  0  0  0  0  0  0  0  0  0  0
  -49.4526  -28.6331    3.1493 H   0  0  0  0  0  0  0  0  0  0  0  0
  -46.3344  -31.1407   -0.4775 H   0  0  0  0  0  0  0  0  0  0  0  0
  -45.4684  -31.7912    0.9294 H   0  0  0  0  0  0  0  0  0  0  0  0
  -45.6113  -27.5954    0.4593 H   0  0  0  0  0  0  0  0  0  0  0  0
  -46.4046  -28.6005   -0.7712 H   0  0  0  0  0  0  0  0  0  0  0  0
  -43.3152  -30.9374    0.0586 H   0  0  0  0  0  0  0  0  0  0  0  0
  -44.1110  -31.9080   -1.1840 H   0  0  0  0  0  0  0  0  0  0  0  0
  -44.2231  -27.8458   -1.6129 H   0  0  0  0  0  0  0  0  0  0  0  0
  -43.3880  -28.4915   -0.1963 H   0  0  0  0  0  0  0  0  0  0  0  0
  -48.3124  -30.2416    5.0847 H   0  0  0  0  0  0  0  0  0  0  0  0
  -47.9344  -27.6692    4.5157 H   0  0  0  0  0  0  0  0  0  0  0  0
  -49.0146  -27.4046    5.8923 H   0  0  0  0  0  0  0  0  0  0  0  0
  -47.3333  -28.1728    7.3181 H   0  0  0  0  0  0  0  0  0  0  0  0
  1 15  1  0  0  0  0
  1 16  2  0  0  0  0
  2  3  1  0  0  0  0
  2  4  2  0  0  0  0
  2 23  1  0  0  0  0
  3 15  2  0  0  0  0
  3 17  1  0  0  0  0
  4 16  1  0  0  0  0
  4 19  1  0  0  0  0
  5 17  2  0  0  0  0
  5 18  1  0  0  0  0
  5 23  1  0  0  0  0
  6  7  1  0  0  0  0
  6 20  2  0  0  0  0
  6 21  1  0  0  0  0
  7  8  1  0  0  0  0
  8 13  1  0  0  0  0
  9 11  1  0  0  0  0
  9 18  1  0  0  0  0
 10 12  1  0  0  0  0
 10 18  1  0  0  0  0
 11 22  1  0  0  0  0
 12 22  1  0  0  0  0
 13 14  1  0  0  0  0
 13 21  1  0  0  0  0
 14 19  1  0  0  0  0
  1 24  1  0  0  0  0
  7 25  1  0  0  0  0
  7 26  1  0  0  0  0
  8 27  1  0  0  0  0
  8 28  1  0  0  0  0
  9 29  1  0  0  0  0
  9 30  1  0  0  0  0
 10 31  1  0  0  0  0
 10 32  1  0  0  0  0
 11 33  1  0  0  0  0
 11 34  1  0  0  0  0
 12 35  1  0  0  0  0
 12 36  1  0  0  0  0
 13 37  1  0  0  0  0
 14 38  1  0  0  0  0
 14 39  1  0  0  0  0
 19 40  1  0  0  0  0
M  END
> <POSIT::Probability>
0.18

> <POSIT::Method>
HYBRID

> <ReceptorTitle>
UCSF-P4608-REFINED_LIGAND-BOUND-STATE_A__DU__LA1_A-201(A)

> <OMEGA_C>
ED4vwjH168HIGMtAn+c2whbe6MGdU5JAQOMxwvet7MEN/IVAaOM3wjGq5sEBGr1AmMQ1wgVa7MFY
wg1A4vJMwjTg6sFsprhAL9NMwibI5sENkYtAMX5Hwhza6sHbXndAHPg1wjzk98HCaUk+gkA2wvBc
5MGwjpy9isEwwtze98GxOhq/3AIxwpUG5cGrDFq//iJEwgRZ68Hc8aNAaEJBwuTr4MHIF65AQOAt
wnBW7sEOkaJA1vQzwuxC6MEl9tlAe0cxwqil7sHwbzVAWIo2wudv7cGye1g/deQ8wufQ4sHEwspA
/utQwqBu68G/Q89AQ+ZHwqSn7cHpYsVAYZ8wwuMb78GG28K/ouw6wlXF58GuD0xAdycswgsy7cHG
9OJAfypQwrBD6sGcbnNAdQNNwnML3sEFwYpAv8dHwpiW8sHza1ZAgc9FwpoQ5cFujklAeFY5wjsg
+cHyf/S+qt81wl5U/sFO7W0/AnI2wm7D3MGMJ+s+R545wtXN5MFDbEW/zkItwrJ/98EQNHA9tXEw
wpRD/8F8jJe/aeQwwj/E3sGUcs6/VI0twqDu48FQB0m+2T9Bws/u8cHbtaJA0bw/woZa3cHwgJBA
9A5Ewq8828EbjrxAUFU9wuth4cGKLepA

> <OMEGA_E>
qkcKwQ==

> <OMEGA_NBR>
      9425

$$$$
CACHE3HI_1712_69
  -OEChem-03092622523D

 55 57  0     1  0  0  0  0  0999 V2000
  -48.6541  -29.4974    5.5502 C   0  0  0  0  0  0  0  0  0  0  0  0
  -50.0255  -29.4116    5.7902 C   0  0  0  0  0  0  0  0  0  0  0  0
  -44.4485  -27.2630    1.0737 C   0  0  0  0  0  0  0  0  0  0  0  0
  -49.0717  -29.4992    3.1705 C   0  0  0  0  0  0  0  0  0  0  0  0
  -44.5223  -28.6719    1.1843 C   0  0  0  0  0  0  0  0  0  0  0  0
  -48.1773  -29.5414    4.2402 C   0  0  0  0  0  0  0  0  0  0  0  0
  -50.9199  -29.3694    4.7205 C   0  0  0  0  0  0  0  0  0  0  0  0
  -50.4430  -29.4134    3.4104 C   0  0  0  0  0  0  0  0  0  0  0  0
  -43.8953  -29.1619    0.0599 C   0  0  0  0  0  0  0  0  0  0  0  0
  -43.8002  -27.0056   -0.1158 C   0  0  0  0  0  0  0  0  0  0  0  0
  -43.6874  -30.5747   -0.3321 C   0  0  0  0  0  0  0  0  0  0  0  0
  -45.1894  -31.0240    1.7092 C   0  0  0  0  0  0  0  0  0  0  0  0
  -45.0675  -29.5717    2.2357 C   0  0  2  0  0  0  0  0  0  0  0  0
  -43.9467  -31.5122    0.8906 C   0  0  0  0  0  0  0  0  0  0  0  0
  -43.4199  -25.7620   -0.8007 C   0  0  0  0  0  0  0  0  0  0  0  0
  -44.2208  -32.9368    0.3733 C   0  0  0  0  0  0  0  0  0  0  0  0
  -42.6981  -31.5641    1.7942 C   0  0  0  0  0  0  0  0  0  0  0  0
  -45.8715  -28.9718    5.0878 C   0  0  0  0  0  0  0  0  0  0  0  0
  -52.6490  -29.2458    6.3489 C   0  0  0  0  0  0  0  0  0  0  0  0
  -46.6897  -29.6342    3.9813 C   0  0  2  0  0  0  0  0  0  0  0  0
  -50.4482  -29.4397    0.7445 N   0  0  0  0  0  0  0  0  0  0  0  0
  -46.3476  -29.0789    2.6812 N   0  0  0  0  0  0  0  0  0  0  0  0
  -52.1950  -28.0585    2.0420 O   0  0  0  0  0  0  0  0  0  0  0  0
  -52.3479  -30.5733    2.0663 O   0  0  0  0  0  0  0  0  0  0  0  0
  -43.4589  -28.1648   -0.7441 O   0  0  0  0  0  0  0  0  0  0  0  0
  -52.2553  -29.2854    4.9786 O   0  0  0  0  0  0  0  0  0  0  0  0
  -51.5441  -29.3600    2.0523 S   0  0  0  0  0  0  0  0  0  0  0  0
  -47.9653  -29.5286    6.3902 H   0  0  0  0  0  0  0  0  0  0  0  0
  -50.3906  -29.3771    6.8132 H   0  0  0  0  0  0  0  0  0  0  0  0
  -44.8171  -26.5240    1.7712 H   0  0  0  0  0  0  0  0  0  0  0  0
  -48.6967  -29.5340    2.1504 H   0  0  0  0  0  0  0  0  0  0  0  0
  -44.3917  -30.8081   -1.1404 H   0  0  0  0  0  0  0  0  0  0  0  0
  -42.6765  -30.7222   -0.7289 H   0  0  0  0  0  0  0  0  0  0  0  0
  -45.3741  -31.7011    2.5542 H   0  0  0  0  0  0  0  0  0  0  0  0
  -46.0732  -31.1003    1.0580 H   0  0  0  0  0  0  0  0  0  0  0  0
  -44.3673  -29.5623    3.0891 H   0  0  0  0  0  0  0  0  0  0  0  0
  -42.4124  -25.4119   -0.5082 H   0  0  0  0  0  0  0  0  0  0  0  0
  -44.1067  -24.9271   -0.5671 H   0  0  0  0  0  0  0  0  0  0  0  0
  -43.4182  -25.8900   -1.8979 H   0  0  0  0  0  0  0  0  0  0  0  0
  -44.4018  -33.5935    1.2169 H   0  0  0  0  0  0  0  0  0  0  0  0
  -43.3587  -33.2853   -0.1845 H   0  0  0  0  0  0  0  0  0  0  0  0
  -45.0928  -32.9204   -0.2723 H   0  0  0  0  0  0  0  0  0  0  0  0
  -42.8966  -32.2179    2.6352 H   0  0  0  0  0  0  0  0  0  0  0  0
  -42.4758  -30.5646    2.1489 H   0  0  0  0  0  0  0  0  0  0  0  0
  -41.8609  -31.9459    1.2205 H   0  0  0  0  0  0  0  0  0  0  0  0
  -46.1155  -27.9094    5.1970 H   0  0  0  0  0  0  0  0  0  0  0  0
  -46.0477  -29.4587    6.0537 H   0  0  0  0  0  0  0  0  0  0  0  0
  -44.8002  -29.0361    4.8657 H   0  0  0  0  0  0  0  0  0  0  0  0
  -53.7381  -29.1789    6.4146 H   0  0  0  0  0  0  0  0  0  0  0  0
  -52.3119  -30.1605    6.8425 H   0  0  0  0  0  0  0  0  0  0  0  0
  -52.1904  -28.3820    6.8358 H   0  0  0  0  0  0  0  0  0  0  0  0
  -46.3933  -30.6887    3.9309 H   0  0  0  0  0  0  0  0  0  0  0  0
  -50.4120  -30.3093    0.1995 H   0  0  0  0  0  0  0  0  0  0  0  0
  -50.3076  -28.5917    0.1827 H   0  0  0  0  0  0  0  0  0  0  0  0
  -46.3066  -28.0635    2.7465 H   0  0  0  0  0  0  0  0  0  0  0  0
  1  2  2  0  0  0  0
  1  6  1  0  0  0  0
  2  7  1  0  0  0  0
  3  5  1  0  0  0  0
  3 10  2  0  0  0  0
  4  6  2  0  0  0  0
  4  8  1  0  0  0  0
  5  9  2  0  0  0  0
  5 13  1  0  0  0  0
  6 20  1  0  0  0  0
  7  8  2  0  0  0  0
  7 26  1  0  0  0  0
  8 27  1  0  0  0  0
  9 11  1  0  0  0  0
  9 25  1  0  0  0  0
 10 15  1  0  0  0  0
 10 25  1  0  0  0  0
 11 14  1  0  0  0  0
 12 13  1  0  0  0  0
 12 14  1  0  0  0  0
 13 22  1  0  0  0  0
 14 16  1  0  0  0  0
 14 17  1  0  0  0  0
 18 20  1  0  0  0  0
 19 26  1  0  0  0  0
 20 22  1  0  0  0  0
 21 27  1  0  0  0  0
 23 27  2  0  0  0  0
 24 27  2  0  0  0  0
  1 28  1  0  0  0  0
  2 29  1  0  0  0  0
  3 30  1  0  0  0  0
  4 31  1  0  0  0  0
 11 32  1  0  0  0  0
 11 33  1  0  0  0  0
 12 34  1  0  0  0  0
 12 35  1  0  0  0  0
 13 36  1  0  0  0  0
 15 37  1  0  0  0  0
 15 38  1  0  0  0  0
 15 39  1  0  0  0  0
 16 40  1  0  0  0  0
 16 41  1  0  0  0  0
 16 42  1  0  0  0  0
 17 43  1  0  0  0  0
 17 44  1  0  0  0  0
 17 45  1  0  0  0  0
 18 46  1  0  0  0  0
 18 47  1  0  0  0  0
 18 48  1  0  0  0  0
 19 49  1  0  0  0  0
 19 50  1  0  0  0  0
 19 51  1  0  0  0  0
 20 52  1  0  0  0  0
 21 53  1  0  0  0  0
 21 54  1  0  0  0  0
 22 55  1  0  0  0  0
M  END
> <POSIT::Probability>
0.24

> <POSIT::Method>
FRED

> <ReceptorTitle>
UCSF-P4608-REFINED_LIGAND-BOUND-STATE_A__DU__LA1_A-201(A)

> <OMEGA_C>
xZ1CwrT668Fcm7FAFhpIwudK68EnSblAS8sxwpMa2sFcb4k/aElEwl3+68Ee6UpAyhYywhhg5cEM
l5c/ibVAwrZU7MGUr4dA9K1Lwo306sEkDpdArsVJwpJO68EARFpA0pQvwqBL6cGAYXU9bzMvwowL
2MEAEu298b8uwuOY9MGQC6q++8E0wjIx+MFIx9o/IEU0wteS7MGWFQ9Ad8kvwuYY/MG4+2M/9a0t
wpYYzsFo+ky/EOIwwki/A8LwG78+5MoqwlyD/MEkqOU/bHw3wjLG58E/z6JAk5hSwlL36cGXKstA
OMI6wusS7cEuzn5A6MpJwoKE68HQlz4/62M5wqKh6ME8mStAq8dQwuN34MGcsAJAP2RRwh2W9MF6
PgRA9dUtwnJR4cGQej6/ZgVRwmpI6sEQUZ9AIC1Owi7h6sGQWQNAgdw/wno67MHgfMxAAZBJwlME
68HWBdpAt0Qzwj8x1MG8teI/YMlCwqVF7MFYnwlAGpExwvx29sFU95G/vLQqwg7H9cFYmTq/GX81
wu+b/cG0eCNA80o4wljN+MHcbIc/KngxwpV/7MFUtEVAWKYpwqdLy8EgFgK/RG0wwqZqx8HYLxG/
QKwtwrMez8Fw7/K/ZZsxwsRfBsLUwZs/S28twhwkBcKA+Ty+Al80wnOuA8IgbYu+HZYrwi7fAMJE
pyhARecpwmWE9MGShwlAg3EnwhqR/8FcOJw/UXY4wmZG38H5TaZAzjA4wlSr68E6uMFAYTMzwulJ
6MH/s5tAx/NWwldu6cGCRM1AZT9Rwq1I8cF69dpAAMNQwlEO48HWvtpAxZI5wnqC9cEOk3tA5aVJ
wl558sGgUkw+7zpJwra75MFgFzs+/Dk5whyC4MGQxi9A

> <OMEGA_E>
JVPkwA==

> <OMEGA_NBR>
     11020

$$$$
CACHE3-HO_1708_21
  -OEChem-03092622513D

 38 40  0     0  0  0  0  0  0999 V2000
  -44.8840  -33.4642   -1.0941 C   0  0  0  0  0  0  0  0  0  0  0  0
  -43.6198  -32.8824   -0.8809 C   0  0  0  0  0  0  0  0  0  0  0  0
  -45.6515  -32.5728    1.0445 C   0  0  0  0  0  0  0  0  0  0  0  0
  -48.6532  -28.4683    5.1471 C   0  0  0  0  0  0  0  0  0  0  0  0
  -44.4868  -29.7188    6.4807 C   0  0  0  0  0  0  0  0  0  0  0  0
  -46.5999  -29.4082    4.7975 C   0  0  0  0  0  0  0  0  0  0  0  0
  -45.9105  -33.3148   -0.1302 C   0  0  0  0  0  0  0  0  0  0  0  0
  -44.3921  -31.9569    1.2469 C   0  0  0  0  0  0  0  0  0  0  0  0
  -47.8994  -29.1029    4.1814 C   0  0  0  0  0  0  0  0  0  0  0  0
  -43.3688  -32.1355    0.2861 C   0  0  0  0  0  0  0  0  0  0  0  0
  -46.6522  -28.9462    6.1170 C   0  0  0  0  0  0  0  0  0  0  0  0
  -45.4221  -30.0417    4.3495 C   0  0  0  0  0  0  0  0  0  0  0  0
  -49.8199  -29.1542    2.5097 C   0  0  0  0  0  0  0  0  0  0  0  0
  -48.3262  -29.4455    2.7614 C   0  0  0  0  0  0  0  0  0  0  0  0
  -44.1028  -31.1814    2.5241 C   0  0  0  0  0  0  0  0  0  0  0  0
  -47.2923  -33.9355   -0.3382 C   0  0  0  0  0  0  0  0  0  0  0  0
  -45.6010  -29.1020    6.9463 N   0  0  0  0  0  0  0  0  0  0  0  0
  -44.3824  -30.1862    5.2093 N   0  0  0  0  0  0  0  0  0  0  0  0
  -47.8974  -28.3736    6.3114 N   0  0  0  0  0  0  0  0  0  0  0  0
  -45.3242  -30.5128    3.0409 N   0  0  0  0  0  0  0  0  0  0  0  0
  -42.1411  -31.5943    0.4755 F   0  0  0  0  0  0  0  0  0  0  0  0
  -47.3701  -34.6161   -1.5141 F   0  0  0  0  0  0  0  0  0  0  0  0
  -48.2350  -32.9546   -0.3472 F   0  0  0  0  0  0  0  0  0  0  0  0
  -47.5658  -34.7996    0.6760 F   0  0  0  0  0  0  0  0  0  0  0  0
  -45.0717  -34.0268   -1.9967 H   0  0  0  0  0  0  0  0  0  0  0  0
  -42.8388  -33.0096   -1.6160 H   0  0  0  0  0  0  0  0  0  0  0  0
  -46.4216  -32.4743    1.7953 H   0  0  0  0  0  0  0  0  0  0  0  0
  -49.6624  -28.1054    5.0204 H   0  0  0  0  0  0  0  0  0  0  0  0
  -43.6472  -29.8438    7.1484 H   0  0  0  0  0  0  0  0  0  0  0  0
  -50.0758  -29.4182    1.4729 H   0  0  0  0  0  0  0  0  0  0  0  0
  -50.4316  -29.7517    3.2017 H   0  0  0  0  0  0  0  0  0  0  0  0
  -50.0178  -28.0849    2.6751 H   0  0  0  0  0  0  0  0  0  0  0  0
  -47.7266  -28.8485    2.0586 H   0  0  0  0  0  0  0  0  0  0  0  0
  -48.1404  -30.5153    2.5852 H   0  0  0  0  0  0  0  0  0  0  0  0
  -43.7256  -31.8775    3.2878 H   0  0  0  0  0  0  0  0  0  0  0  0
  -43.3388  -30.4184    2.3142 H   0  0  0  0  0  0  0  0  0  0  0  0
  -48.2082  -27.9534    7.1639 H   0  0  0  0  0  0  0  0  0  0  0  0
  -46.0702  -31.1686    2.9250 H   0  0  0  0  0  0  0  0  0  0  0  0
  1  2  2  0  0  0  0
  1  7  1  0  0  0  0
  2 10  1  0  0  0  0
  3  7  2  0  0  0  0
  3  8  1  0  0  0  0
  4  9  2  0  0  0  0
  4 19  1  0  0  0  0
  5 17  1  0  0  0  0
  5 18  2  0  0  0  0
  6  9  1  0  0  0  0
  6 11  1  0  0  0  0
  6 12  2  0  0  0  0
  7 16  1  0  0  0  0
  8 10  2  0  0  0  0
  8 15  1  0  0  0  0
  9 14  1  0  0  0  0
 10 21  1  0  0  0  0
 11 17  2  0  0  0  0
 11 19  1  0  0  0  0
 12 18  1  0  0  0  0
 12 20  1  0  0  0  0
 13 14  1  0  0  0  0
 15 20  1  0  0  0  0
 16 22  1  0  0  0  0
 16 23  1  0  0  0  0
 16 24  1  0  0  0  0
  1 25  1  0  0  0  0
  2 26  1  0  0  0  0
  3 27  1  0  0  0  0
  4 28  1  0  0  0  0
  5 29  1  0  0  0  0
 13 30  1  0  0  0  0
 13 31  1  0  0  0  0
 13 32  1  0  0  0  0
 14 33  1  0  0  0  0
 14 34  1  0  0  0  0
 15 35  1  0  0  0  0
 15 36  1  0  0  0  0
 19 37  1  0  0  0  0
 20 38  1  0  0  0  0
M  END
> <POSIT::Probability>
0.79

> <POSIT::Method>
SHAPEFIT

> <ReceptorTitle>
UCSF-P4609-REFINED_LIGAND-BOUND-STATE_AALTB__DU__LA1_A-201(A)

> <OMEGA_C>
PokzwkzbBcK5C4y/tHouwpmHA8KJhGG/LJs2woNKAsKEsYU/35xCwii/48E9taRAevIxwizA7cHG
Yc9AQ2Y6wgdE68HahJlAZ6Q3wltCBcJgWgW+fZExwsKn/8HXmJ8/8pg/wr/S6MHmzYVArnktwsWK
AMLmepI+45s6wtKR58EzvsNASLA1wmNV8MEgL4tAmkdHwtc76cFHniBAEE5BwmSQ68F5uzBASGkw
wodz+cENiyFAVys9wue9B8JLLK2+bWc2wvLQ6MFxSN5Akocxwlp98cFnsqZA7pY/wi394sHK9slA
BUw1wk4a9MGrnUJAdZAowhPB/MHpb/M+83o9wuF2CsK0zsG/r/BAwojRA8ICyrG+Y0M+wswyC8K1
Dy0/bEk0wmgbCMJ4k/+/+ForwtkJBMLh186/sq85wrblAcK1zOU/WaZGwtXX4MHPpqBAwZYuwhnA
7sEOwORAqE1IwnpY68HLiLw/9rlJwm8D7sFi6ExAOxJIwtut4MFHNStACOg+wq7J5sERwANAw49A
wkIf9MEscyVADucuwjAF/8GYalJA9lotwshY88G+GxRANtVAwoeg38GiPuVA6Uc4wmVZ+cFYMztA

> <OMEGA_E>
NLkrPw==

> <OMEGA_NBR>
      1289

$$$$
CACHE3HI_1687_30
  -OEChem-03092622513D

 30 32  0     0  0  0  0  0  0999 V2000
  -45.5861  -33.7061    0.3428 C   0  0  0  0  0  0  0  0  0  0  0  0
  -45.2780  -32.9138    1.4655 C   0  0  0  0  0  0  0  0  0  0  0  0
  -44.8592  -33.5453   -0.8532 C   0  0  0  0  0  0  0  0  0  0  0  0
  -47.7369  -28.9900    4.0189 C   0  0  0  0  0  0  0  0  0  0  0  0
  -43.5214  -31.7898    0.1908 C   0  0  0  0  0  0  0  0  0  0  0  0
  -48.5947  -28.4378    4.9419 C   0  0  0  0  0  0  0  0  0  0  0  0
  -44.5615  -29.7928    6.5738 C   0  0  0  0  0  0  0  0  0  0  0  0
  -46.5143  -29.3535    4.7371 C   0  0  0  0  0  0  0  0  0  0  0  0
  -44.2497  -31.9473    1.3888 C   0  0  0  0  0  0  0  0  0  0  0  0
  -43.8231  -32.5926   -0.9270 C   0  0  0  0  0  0  0  0  0  0  0  0
  -46.6922  -28.9870    6.0728 C   0  0  0  0  0  0  0  0  0  0  0  0
  -45.3099  -29.9699    4.3563 C   0  0  0  0  0  0  0  0  0  0  0  0
  -43.9118  -31.1014    2.5923 C   0  0  0  0  0  0  0  0  0  0  0  0
  -45.7176  -29.2079    6.9801 N   0  0  0  0  0  0  0  0  0  0  0  0
  -44.3471  -30.1766    5.2888 N   0  0  0  0  0  0  0  0  0  0  0  0
  -47.9608  -28.4365    6.1852 N   0  0  0  0  0  0  0  0  0  0  0  0
  -45.1271  -30.3817    3.0404 N   0  0  0  0  0  0  0  0  0  0  0  0
  -43.1089  -32.4560   -2.0744 O   0  0  0  0  0  0  0  0  0  0  0  0
  -46.3794  -34.4367    0.3986 H   0  0  0  0  0  0  0  0  0  0  0  0
  -45.8279  -33.0448    2.3857 H   0  0  0  0  0  0  0  0  0  0  0  0
  -45.0960  -34.1527   -1.7143 H   0  0  0  0  0  0  0  0  0  0  0  0
  -47.9290  -29.1288    2.9652 H   0  0  0  0  0  0  0  0  0  0  0  0
  -42.7330  -31.0541    0.1306 H   0  0  0  0  0  0  0  0  0  0  0  0
  -49.5890  -28.0683    4.7389 H   0  0  0  0  0  0  0  0  0  0  0  0
  -43.7812  -29.9594    7.3017 H   0  0  0  0  0  0  0  0  0  0  0  0
  -43.5464  -31.7470    3.4046 H   0  0  0  0  0  0  0  0  0  0  0  0
  -43.1319  -30.3739    2.3231 H   0  0  0  0  0  0  0  0  0  0  0  0
  -48.3622  -28.0897    7.0329 H   0  0  0  0  0  0  0  0  0  0  0  0
  -45.8989  -30.9807    2.8272 H   0  0  0  0  0  0  0  0  0  0  0  0
  -42.4536  -31.7776   -1.9612 H   0  0  0  0  0  0  0  0  0  0  0  0
  1  2  1  0  0  0  0
  1  3  2  0  0  0  0
  2  9  2  0  0  0  0
  3 10  1  0  0  0  0
  4  6  2  0  0  0  0
  4  8  1  0  0  0  0
  5  9  1  0  0  0  0
  5 10  2  0  0  0  0
  6 16  1  0  0  0  0
  7 14  2  0  0  0  0
  7 15  1  0  0  0  0
  8 11  2  0  0  0  0
  8 12  1  0  0  0  0
  9 13  1  0  0  0  0
 10 18  1  0  0  0  0
 11 14  1  0  0  0  0
 11 16  1  0  0  0  0
 12 15  2  0  0  0  0
 12 17  1  0  0  0  0
 13 17  1  0  0  0  0
  1 19  1  0  0  0  0
  2 20  1  0  0  0  0
  3 21  1  0  0  0  0
  4 22  1  0  0  0  0
  5 23  1  0  0  0  0
  6 24  1  0  0  0  0
  7 25  1  0  0  0  0
 13 26  1  0  0  0  0
 13 27  1  0  0  0  0
 16 28  1  0  0  0  0
 17 29  1  0  0  0  0
 18 30  1  0  0  0  0
M  END
> <POSIT::Probability>
0.9

> <POSIT::Method>
SHAPEFIT

> <ReceptorTitle>
UCSF-P4609-REFINED_LIGAND-BOUND-STATE_AALTB__DU__LA1_A-201(A)

> <OMEGA_C>
Ilg2wv/SBsIcfq8+ohw1wrKnA8LhlLs/0W8zwnAuBsJ0bVq/oPI+wnjr58EIm4BA8xUuwnJR/sG4
XUM++2BCwqWA48HKI55A+D4ywpdX7sHGXNJAng46wuHT6sF4lpdApv8wwgmU/8FOxbE/3Eovwsle
AsIaUG2/zcQ6wkjl58FiVMJAYj01wkvC78GnZotAqqUvwqnP+MHR6CVAzt42wtap6cElXd9Ab2Mx
wqVp8cE+PqlA4tc/wgt+48EK7cVAIoI0wqsN88FLlUJAjm8swv3SAcJdwgTAioQ5wi+/CcLUFsw+
u083wuEtBMKkrxhAUmI0wlucCMJxbtu/S7c/wtgH6cGjxj1ApO4qwslu+MEQsQU+LVtGwveL4MEX
pZdA7R8vwtus78Exp+lAfC8uwsL5/cGP5FlADYcswq/98sE7rhRA4XJBwsW34MGODeFAeJg3woTY
98Fa8DRAiNApwok4/sEeCPu/

> <OMEGA_E>
2KK0Pg==

> <OMEGA_NBR>
      2414

$$$$
CACHE3HI_1687_31
  -OEChem-03092622513D

 30 32  0     0  0  0  0  0  0999 V2000
  -44.8926  -33.5277   -0.8749 C   0  0  0  0  0  0  0  0  0  0  0  0
  -45.6325  -33.7016    0.3095 C   0  0  0  0  0  0  0  0  0  0  0  0
  -47.7144  -28.9793    3.9947 C   0  0  0  0  0  0  0  0  0  0  0  0
  -43.5375  -31.8191    0.2186 C   0  0  0  0  0  0  0  0  0  0  0  0
  -48.5861  -28.4464    4.9160 C   0  0  0  0  0  0  0  0  0  0  0  0
  -44.5655  -29.8057    6.5761 C   0  0  0  0  0  0  0  0  0  0  0  0
  -46.4964  -29.3426    4.7211 C   0  0  0  0  0  0  0  0  0  0  0  0
  -44.2749  -31.9902    1.4097 C   0  0  0  0  0  0  0  0  0  0  0  0
  -43.8403  -32.5934   -0.9178 C   0  0  0  0  0  0  0  0  0  0  0  0
  -45.3223  -32.9460    1.4568 C   0  0  0  0  0  0  0  0  0  0  0  0
  -46.6907  -28.9948    6.0593 C   0  0  0  0  0  0  0  0  0  0  0  0
  -45.2865  -29.9518    4.3479 C   0  0  0  0  0  0  0  0  0  0  0  0
  -43.9168  -31.1636    2.6234 C   0  0  0  0  0  0  0  0  0  0  0  0
  -45.7262  -29.2255    6.9752 N   0  0  0  0  0  0  0  0  0  0  0  0
  -44.3364  -30.1739    5.2897 N   0  0  0  0  0  0  0  0  0  0  0  0
  -47.9630  -28.4520    6.1648 N   0  0  0  0  0  0  0  0  0  0  0  0
  -45.0853  -30.3499    3.0317 N   0  0  0  0  0  0  0  0  0  0  0  0
  -43.1156  -32.4431   -2.0566 O   0  0  0  0  0  0  0  0  0  0  0  0
  -46.2344  -33.2289    2.9269 Cl  0  0  0  0  0  0  0  0  0  0  0  0
  -45.1321  -34.1114   -1.7514 H   0  0  0  0  0  0  0  0  0  0  0  0
  -46.4410  -34.4171    0.3387 H   0  0  0  0  0  0  0  0  0  0  0  0
  -47.8943  -29.1056    2.9373 H   0  0  0  0  0  0  0  0  0  0  0  0
  -42.7392  -31.0928    0.1787 H   0  0  0  0  0  0  0  0  0  0  0  0
  -49.5825  -28.0853    4.7083 H   0  0  0  0  0  0  0  0  0  0  0  0
  -43.7939  -29.9812    7.3110 H   0  0  0  0  0  0  0  0  0  0  0  0
  -43.6287  -31.8309    3.4491 H   0  0  0  0  0  0  0  0  0  0  0  0
  -43.0753  -30.4989    2.3785 H   0  0  0  0  0  0  0  0  0  0  0  0
  -48.3737  -28.1143    7.0117 H   0  0  0  0  0  0  0  0  0  0  0  0
  -45.8956  -30.8752    2.7720 H   0  0  0  0  0  0  0  0  0  0  0  0
  -42.4490  -31.7796   -1.9230 H   0  0  0  0  0  0  0  0  0  0  0  0
  1  2  1  0  0  0  0
  1  9  2  0  0  0  0
  2 10  2  0  0  0  0
  3  5  2  0  0  0  0
  3  7  1  0  0  0  0
  4  8  2  0  0  0  0
  4  9  1  0  0  0  0
  5 16  1  0  0  0  0
  6 14  2  0  0  0  0
  6 15  1  0  0  0  0
  7 11  2  0  0  0  0
  7 12  1  0  0  0  0
  8 10  1  0  0  0  0
  8 13  1  0  0  0  0
  9 18  1  0  0  0  0
 10 19  1  0  0  0  0
 11 14  1  0  0  0  0
 11 16  1  0  0  0  0
 12 15  2  0  0  0  0
 12 17  1  0  0  0  0
 13 17  1  0  0  0  0
  1 20  1  0  0  0  0
  2 21  1  0  0  0  0
  3 22  1  0  0  0  0
  4 23  1  0  0  0  0
  5 24  1  0  0  0  0
  6 25  1  0  0  0  0
 13 26  1  0  0  0  0
 13 27  1  0  0  0  0
 16 28  1  0  0  0  0
 17 29  1  0  0  0  0
 18 30  1  0  0  0  0
M  END
> <POSIT::Probability>
0.91

> <POSIT::Method>
SHAPEFIT

> <ReceptorTitle>
UCSF-P4609-REFINED_LIGAND-BOUND-STATE_AALTB__DU__LA1_A-201(A)

> <OMEGA_C>
+pEzwmccBsLc91+/pIc2wn3OBsKEdZ4+h9s+wpbV58HMqX9AXyYuwouN/sHI3V8+JVhCwj2S48Gw
T51AGkMywgZy7sEcb9JAUfw5wou96sF+E5dAfxkxwu/r/8FbcbQ/gVwvwpxfAsLQ92q/Cko1wrjI
A8KzeLo/S8M6wmP158Hg5cFAbCU1wlGd78EnIotA0aovwvZO+cFG5idAqOc2wtjN6cESNd9Aflgx
whBk8cFYRalAJdo/wsyd48HuRcVAUlc0wqrM8sGUB0JAX3YswsbFAcKyngPAA/A4wm3qBMLxUjtA
PIc0whtyCMKgLuC/kMM5whirCcKQa60+vpM/wi/Y6MFe/TtA6vQqwhC++MEO/zY+fVRGwrmu4MEd
qpZA9ywvwo7Z78EF9OlA0YMuwqyl/sFlvVxAEk0swqj988H5ORhAoX5BwgPq4MH1X+BAFZU3wn0A
98GcaDFAvMspwq88/sGAI/a/

> <OMEGA_E>
3IyvPg==

> <OMEGA_NBR>
      3541

$$$$
CACHE3HI_1687_68
  -OEChem-03092622513D

 35 38  0     0  0  0  0  0  0999 V2000
  -43.7233  -27.1046    0.3241 C   0  0  0  0  0  0  0  0  0  0  0  0
  -45.1185  -27.1080    0.4017 C   0  0  0  0  0  0  0  0  0  0  0  0
  -46.8849  -30.5989    4.0120 C   0  0  0  0  0  0  0  0  0  0  0  0
  -45.1248  -29.3877    1.2384 C   0  0  0  0  0  0  0  0  0  0  0  0
  -49.2888  -30.3505    5.0298 C   0  0  0  0  0  0  0  0  0  0  0  0
  -45.3026  -29.9728    5.7030 C   0  0  0  0  0  0  0  0  0  0  0  0
  -41.4960  -29.8225    1.2008 C   0  0  0  0  0  0  0  0  0  0  0  0
  -47.8819  -30.3217    4.9551 C   0  0  0  0  0  0  0  0  0  0  0  0
  -43.7173  -29.4076    1.1693 C   0  0  0  0  0  0  0  0  0  0  0  0
  -42.7238  -30.3804    1.4725 C   0  0  0  0  0  0  0  0  0  0  0  0
  -43.0504  -28.2681    0.7145 C   0  0  0  0  0  0  0  0  0  0  0  0
  -45.5603  -30.4150    4.4103 C   0  0  0  0  0  0  0  0  0  0  0  0
  -45.8102  -28.2307    0.8513 C   0  0  0  0  0  0  0  0  0  0  0  0
  -47.4861  -29.8871    6.2103 C   0  0  0  0  0  0  0  0  0  0  0  0
  -44.1896  -31.8800    2.8872 C   0  0  0  0  0  0  0  0  0  0  0  0
  -42.9571  -31.7448    1.9872 C   0  0  0  0  0  0  0  0  0  0  0  0
  -46.2301  -29.6920    6.6496 N   0  0  0  0  0  0  0  0  0  0  0  0
  -49.7514  -29.9687    6.2251 N   0  0  0  0  0  0  0  0  0  0  0  0
  -41.7029  -28.5483    0.7439 N   0  0  0  0  0  0  0  0  0  0  0  0
  -48.6339  -29.6932    6.9204 N   0  0  0  0  0  0  0  0  0  0  0  0
  -44.4976  -30.6748    3.5127 N   0  0  0  0  0  0  0  0  0  0  0  0
  -44.7863  -32.9465    2.9958 O   0  0  0  0  0  0  0  0  0  0  0  0
  -47.5312  -28.1960    0.9304 Cl  0  0  0  0  0  0  0  0  0  0  0  0
  -43.1848  -26.2306   -0.0264 H   0  0  0  0  0  0  0  0  0  0  0  0
  -45.6581  -26.2120    0.1025 H   0  0  0  0  0  0  0  0  0  0  0  0
  -47.1357  -30.9413    3.0132 H   0  0  0  0  0  0  0  0  0  0  0  0
  -45.6650  -30.2632    1.5890 H   0  0  0  0  0  0  0  0  0  0  0  0
  -49.9977  -30.6333    4.2648 H   0  0  0  0  0  0  0  0  0  0  0  0
  -44.2782  -29.8218    6.0372 H   0  0  0  0  0  0  0  0  0  0  0  0
  -40.4928  -30.2158    1.2911 H   0  0  0  0  0  0  0  0  0  0  0  0
  -43.0719  -32.4662    1.1554 H   0  0  0  0  0  0  0  0  0  0  0  0
  -42.0853  -32.1060    2.5667 H   0  0  0  0  0  0  0  0  0  0  0  0
  -40.9730  -27.9053    0.4696 H   0  0  0  0  0  0  0  0  0  0  0  0
  -48.7279  -29.3765    7.8774 H   0  0  0  0  0  0  0  0  0  0  0  0
  -43.8968  -29.8790    3.3087 H   0  0  0  0  0  0  0  0  0  0  0  0
  1  2  1  0  0  0  0
  1 11  2  0  0  0  0
  2 13  2  0  0  0  0
  3  8  2  0  0  0  0
  3 12  1  0  0  0  0
  4  9  2  0  0  0  0
  4 13  1  0  0  0  0
  5  8  1  0  0  0  0
  5 18  2  0  0  0  0
  6 12  2  0  0  0  0
  6 17  1  0  0  0  0
  7 10  2  0  0  0  0
  7 19  1  0  0  0  0
  8 14  1  0  0  0  0
  9 10  1  0  0  0  0
  9 11  1  0  0  0  0
 10 16  1  0  0  0  0
 11 19  1  0  0  0  0
 12 21  1  0  0  0  0
 13 23  1  0  0  0  0
 14 17  2  0  0  0  0
 14 20  1  0  0  0  0
 15 16  1  0  0  0  0
 15 21  1  0  0  0  0
 15 22  2  0  0  0  0
 18 20  1  0  0  0  0
  1 24  1  0  0  0  0
  2 25  1  0  0  0  0
  3 26  1  0  0  0  0
  4 27  1  0  0  0  0
  5 28  1  0  0  0  0
  6 29  1  0  0  0  0
  7 30  1  0  0  0  0
 16 31  1  0  0  0  0
 16 32  1  0  0  0  0
 19 33  1  0  0  0  0
 20 34  1  0  0  0  0
 21 35  1  0  0  0  0
M  END
> <POSIT::Probability>
0.24

> <POSIT::Method>
FRED

> <ReceptorTitle>
UCSF-P4609_LA2_MERGED(A)

> <OMEGA_C>
suQuwiXW2MGo7KU+ZHk0wjXd2MFAqs0+GYo7wonK9MF4YoBAx380wv4Z68HGgp4/sidFwsTN8sH6
86BA0zU1wjXI78H4frZA6vslwoSU7sHMs5k/FYc/wvCS8sEIkJ5AkN4uwrZC68F1rJU/LOUqwhsL
88GCfLw/njMswiMl4sE46jY/uT02wtxR88HeII1ApT03wmbY4cEq8Vk/u/E9wt4Y78G2usZAMsIw
wjYK/8FMxzhAEtQrwmX1/cHKXf4/k+s4wk6J7cHEydRAegFHwu2/78HWM8dAx88mwuZi5MG8bj4/
JIlCwsaL7cFGdN1Ajf0xwupl9cGuz2BANiUzwjfJA8Jquj9A6R8+wlqR4cGQL24/Mb0swjXY0cGA
Ldi86KE2wjmy0cFA/tE9+Io8wseH98Fb2EBA+qg2wvIa8sEtZMs/rf1HwuwQ9cH4eIhA4Bwxwh6T
7sHIMMFArPghwv258cGIQaU/pkkswmLdAcJU5JM/XFcowpFsAMKlRCRAX+Qjwgc+38FwbfA+aulC
wiAD68GUE/xASJYvwjQI78GWwVNA

> <OMEGA_E>
QlwUwQ==

> <OMEGA_NBR>
      4672

$$$$
CACHE3HI_1687_70
  -OEChem-03092622513D

 35 38  0     0  0  0  0  0  0999 V2000
  -47.2636  -33.2266    1.7717 C   0  0  0  0  0  0  0  0  0  0  0  0
  -47.3618  -34.1497    0.7329 C   0  0  0  0  0  0  0  0  0  0  0  0
  -46.1777  -32.3473    1.8492 C   0  0  0  0  0  0  0  0  0  0  0  0
  -46.3811  -34.2244   -0.2597 C   0  0  0  0  0  0  0  0  0  0  0  0
  -47.4411  -29.0378    3.5789 C   0  0  0  0  0  0  0  0  0  0  0  0
  -49.5840  -28.3595    4.9297 C   0  0  0  0  0  0  0  0  0  0  0  0
  -45.6119  -29.1781    5.1247 C   0  0  0  0  0  0  0  0  0  0  0  0
  -43.3962  -32.1895   -0.5165 C   0  0  0  0  0  0  0  0  0  0  0  0
  -45.1765  -32.4036    0.8591 C   0  0  0  0  0  0  0  0  0  0  0  0
  -48.2375  -28.6890    4.6764 C   0  0  0  0  0  0  0  0  0  0  0  0
  -43.9699  -31.6852    0.6277 C   0  0  0  0  0  0  0  0  0  0  0  0
  -45.3008  -33.3390   -0.1702 C   0  0  0  0  0  0  0  0  0  0  0  0
  -46.0902  -29.2871    3.8237 C   0  0  0  0  0  0  0  0  0  0  0  0
  -47.6324  -28.6166    5.9213 C   0  0  0  0  0  0  0  0  0  0  0  0
  -44.0879  -30.4496    2.8318 C   0  0  0  0  0  0  0  0  0  0  0  0
  -43.4226  -30.5942    1.4593 C   0  0  0  0  0  0  0  0  0  0  0  0
  -46.3405  -28.8449    6.2170 N   0  0  0  0  0  0  0  0  0  0  0  0
  -49.8192  -28.0997    6.2203 N   0  0  0  0  0  0  0  0  0  0  0  0
  -44.2059  -33.1868   -0.9907 N   0  0  0  0  0  0  0  0  0  0  0  0
  -48.6157  -28.2633    6.7975 N   0  0  0  0  0  0  0  0  0  0  0  0
  -45.2225  -29.6452    2.7649 N   0  0  0  0  0  0  0  0  0  0  0  0
  -43.6276  -31.0029    3.8253 O   0  0  0  0  0  0  0  0  0  0  0  0
  -48.0390  -33.1873    2.5319 H   0  0  0  0  0  0  0  0  0  0  0  0
  -48.2144  -34.8230    0.6927 H   0  0  0  0  0  0  0  0  0  0  0  0
  -46.1159  -31.6325    2.6649 H   0  0  0  0  0  0  0  0  0  0  0  0
  -46.4586  -34.9431   -1.0684 H   0  0  0  0  0  0  0  0  0  0  0  0
  -47.8604  -29.1091    2.5805 H   0  0  0  0  0  0  0  0  0  0  0  0
  -50.4048  -28.2974    4.2295 H   0  0  0  0  0  0  0  0  0  0  0  0
  -44.5625  -29.3676    5.3410 H   0  0  0  0  0  0  0  0  0  0  0  0
  -42.4848  -31.9298   -1.0371 H   0  0  0  0  0  0  0  0  0  0  0  0
  -42.3375  -30.7334    1.6286 H   0  0  0  0  0  0  0  0  0  0  0  0
  -43.5135  -29.6179    0.9448 H   0  0  0  0  0  0  0  0  0  0  0  0
  -44.0261  -33.7326   -1.8221 H   0  0  0  0  0  0  0  0  0  0  0  0
  -48.5368  -28.1177    7.7962 H   0  0  0  0  0  0  0  0  0  0  0  0
  -45.4685  -29.2643    1.8537 H   0  0  0  0  0  0  0  0  0  0  0  0
  1  2  1  0  0  0  0
  1  3  2  0  0  0  0
  2  4  2  0  0  0  0
  3  9  1  0  0  0  0
  4 12  1  0  0  0  0
  5 10  2  0  0  0  0
  5 13  1  0  0  0  0
  6 10  1  0  0  0  0
  6 18  2  0  0  0  0
  7 13  2  0  0  0  0
  7 17  1  0  0  0  0
  8 11  2  0  0  0  0
  8 19  1  0  0  0  0
  9 11  1  0  0  0  0
  9 12  2  0  0  0  0
 10 14  1  0  0  0  0
 11 16  1  0  0  0  0
 12 19  1  0  0  0  0
 13 21  1  0  0  0  0
 14 17  2  0  0  0  0
 14 20  1  0  0  0  0
 15 16  1  0  0  0  0
 15 21  1  0  0  0  0
 15 22  2  0  0  0  0
 18 20  1  0  0  0  0
  1 23  1  0  0  0  0
  2 24  1  0  0  0  0
  3 25  1  0  0  0  0
  4 26  1  0  0  0  0
  5 27  1  0  0  0  0
  6 28  1  0  0  0  0
  7 29  1  0  0  0  0
  8 30  1  0  0  0  0
 16 31  1  0  0  0  0
 16 32  1  0  0  0  0
 19 33  1  0  0  0  0
 20 34  1  0  0  0  0
 21 35  1  0  0  0  0
M  END
> <POSIT::Probability>
0.33

> <POSIT::Method>
HYBRID

> <ReceptorTitle>
UCSF-P4609-REFINED_LIGAND-BOUND-STATE_AALTB__DU__LA1_A-201(A)

> <OMEGA_C>
6g09wgPoBMJ4yOI/h3I9wkeZCMIwoTs//7U4wphjAcKYs+w/SoY5ws/lCMJg9YS+ssM9wlRN6MFa
DWVA91VGwj/g4sHYv51AinI2wrJs6cE//aNArpUtwgzCAMJQNgS/t7Q0wkOdAcKY7Vs/N/NAwhiD
5cEEpZVAJuEvwkl7/cG4sSA//TM1wiJbBcLAUi6+Z1w4wv5L6sEnuHRAjIc+wrzu5MHuer1AAFow
wrWY88F4OzVAwLAtwvnA9MFuyro/pVw5wnLC5sH78cZA3EZHwiLM4MGTDMdA3NIwwka/BMKIoX2/
gnZCwlYb4sHUhNlAyuM0wmcp7cFP9DBAtoIuwgUG+MGG0nRA8ydAwtO/BMJoCiJAj9tAwrpKC8Io
VTE/snY4wmAP/cGTjSpAldU5wr7FC8Lkwoi/BHE/wl7f6MGFJiVAh55Jwghh4sFkWIdACEAyws/w
6sGW6apAb/ApwjZw/8EswIS/oVkpwgDe9cGoddA/3w0uwnvx7MGg4HE/wBowwjDuBsJwO+m/qyVC
wvjw4MFYevlAvN81wlId6sE0R+0/

> <OMEGA_E>
KpYBwQ==

> <OMEGA_NBR>
      5880

$$$$
CACHE3HI_1689_23
  -OEChem-03092622513D

 35 36  0     0  0  0  0  0  0999 V2000
  -44.3774  -31.6607    0.7181 C   0  0  0  0  0  0  0  0  0  0  0  0
  -45.0372  -32.4424   -0.2302 C   0  0  0  0  0  0  0  0  0  0  0  0
  -42.4011  -31.6448   -0.6718 C   0  0  0  0  0  0  0  0  0  0  0  0
  -43.0591  -31.2621    0.4972 C   0  0  0  0  0  0  0  0  0  0  0  0
  -44.3792  -32.8251   -1.3992 C   0  0  0  0  0  0  0  0  0  0  0  0
  -43.0609  -32.4264   -1.6201 C   0  0  0  0  0  0  0  0  0  0  0  0
  -46.8125  -29.6169    5.2292 C   0  0  0  0  0  0  0  0  0  0  0  0
  -44.4042  -30.2421    3.0301 C   0  0  0  0  0  0  0  0  0  0  0  0
  -44.9311  -35.0048   -2.1747 C   0  0  0  0  0  0  0  0  0  0  0  0
  -42.3455  -30.4161    1.5242 C   0  0  0  0  0  0  0  0  0  0  0  0
  -46.7610  -29.9273    3.7608 C   0  0  0  0  0  0  0  0  0  0  0  0
  -43.2825  -29.5025    2.3173 C   0  0  0  0  0  0  0  0  0  0  0  0
  -45.6987  -29.5411    6.0120 N   0  0  0  0  0  0  0  0  0  0  0  0
  -47.9548  -29.3906    5.8828 N   0  0  0  0  0  0  0  0  0  0  0  0
  -46.1302  -29.2522    7.2340 N   0  0  0  0  0  0  0  0  0  0  0  0
  -47.4628  -29.1732    7.1107 N   0  0  0  0  0  0  0  0  0  0  0  0
  -45.5400  -29.4544    3.1509 N   0  0  0  0  0  0  0  0  0  0  0  0
  -44.3065  -31.4033    3.4174 O   0  0  0  0  0  0  0  0  0  0  0  0
  -42.4084  -32.7928   -2.7581 O   0  0  0  0  0  0  0  0  0  0  0  0
  -45.0344  -33.5892   -2.3171 O   0  0  0  0  0  0  0  0  0  0  0  0
  -44.8980  -31.3667    1.6255 H   0  0  0  0  0  0  0  0  0  0  0  0
  -46.0643  -32.7500   -0.0526 H   0  0  0  0  0  0  0  0  0  0  0  0
  -41.3736  -31.3348   -0.8460 H   0  0  0  0  0  0  0  0  0  0  0  0
  -45.4990  -35.4946   -2.9699 H   0  0  0  0  0  0  0  0  0  0  0  0
  -43.8801  -35.2940   -2.2493 H   0  0  0  0  0  0  0  0  0  0  0  0
  -45.3199  -35.3028   -1.1983 H   0  0  0  0  0  0  0  0  0  0  0  0
  -41.8295  -31.0926    2.2192 H   0  0  0  0  0  0  0  0  0  0  0  0
  -41.5576  -29.8237    1.0430 H   0  0  0  0  0  0  0  0  0  0  0  0
  -46.8263  -31.0073    3.5921 H   0  0  0  0  0  0  0  0  0  0  0  0
  -47.6004  -29.4641    3.2318 H   0  0  0  0  0  0  0  0  0  0  0  0
  -42.7217  -28.9089    3.0490 H   0  0  0  0  0  0  0  0  0  0  0  0
  -43.7594  -28.7993    1.6230 H   0  0  0  0  0  0  0  0  0  0  0  0
  -48.0627  -28.9605    7.9006 H   0  0  0  0  0  0  0  0  0  0  0  0
  -45.5115  -28.5033    2.7948 H   0  0  0  0  0  0  0  0  0  0  0  0
  -41.5070  -32.4238   -2.7356 H   0  0  0  0  0  0  0  0  0  0  0  0
  1  2  2  0  0  0  0
  1  4  1  0  0  0  0
  2  5  1  0  0  0  0
  3  4  2  0  0  0  0
  3  6  1  0  0  0  0
  4 10  1  0  0  0  0
  5  6  2  0  0  0  0
  5 20  1  0  0  0  0
  6 19  1  0  0  0  0
  7 11  1  0  0  0  0
  7 13  1  0  0  0  0
  7 14  2  0  0  0  0
  8 12  1  0  0  0  0
  8 17  1  0  0  0  0
  8 18  2  0  0  0  0
  9 20  1  0  0  0  0
 10 12  1  0  0  0  0
 11 17  1  0  0  0  0
 13 15  2  0  0  0  0
 14 16  1  0  0  0  0
 15 16  1  0  0  0  0
  1 21  1  0  0  0  0
  2 22  1  0  0  0  0
  3 23  1  0  0  0  0
  9 24  1  0  0  0  0
  9 25  1  0  0  0  0
  9 26  1  0  0  0  0
 10 27  1  0  0  0  0
 10 28  1  0  0  0  0
 11 29  1  0  0  0  0
 11 30  1  0  0  0  0
 12 31  1  0  0  0  0
 12 32  1  0  0  0  0
 16 33  1  0  0  0  0
 17 34  1  0  0  0  0
 19 35  1  0  0  0  0
M  END
> <POSIT::Probability>
0.18

> <POSIT::Method>
HYBRID

> <ReceptorTitle>
UCSF-P4609-REFINED_LIGAND-BOUND-STATE_AALTB__DU__LA1_A-201(A)

> <OMEGA_C>
aYIxwjdJ/cF11Tc/FyY0wgXFAcK0wWu+uZopwnUo/cEK+Cu/jDwswr4Y+sHWlv4+RYQxwuFMA8L3
GbO/Wz4swpy0AcJ9Xs+//D87wl/v7MEEVqdA8p0xwuTv8cH57UFAc7kzwuMEDMJGLgvA12Epwi9U
88GiGMM/Ows7wghr78FusHBATyEtwhoF7MGPThRAbss2wh5U7MF5YsBAwdE/wukf68GCP7xAXIU4
wnAE6sGNfOdA79k9wp1i6cHziuNA6ig2wpWi68HXqElA2Tkxwuo5+8FbtlpAPqIpwt4rA8KghDDA
RiM0wlJbBsIhTBTAmJczwhfv+sHAENA/3UE4wgEAA8JQiVe9nH4lwpet+sGVk1i/9v41woP6DcJJ
Ez7ALoUvwggtDcIu9A/AlEc1whw2DcIzYZm/ZFEnwo29+MHgBg5ABDsmwuGW7sEQgYU/Ik47wuYO
+ME15WVA0mY+wnC268Gb1U5ABuMqwlRF58F+I0NApgkvwgZl5sEav88/QUBAwhOv58GB0fxAzAs2
wroG5MGg3jJAKwcmwvGxAcIPFC/A

> <OMEGA_E>
am/NwA==

> <OMEGA_NBR>
      7080

$$$$
CACHE3HI_1689_43
  -OEChem-03092622513D

 33 35  0     0  0  0  0  0  0999 V2000
  -43.6197  -32.2121    0.6454 C   0  0  0  0  0  0  0  0  0  0  0  0
  -43.2420  -32.2639   -0.7083 C   0  0  0  0  0  0  0  0  0  0  0  0
  -44.2637  -30.0161    5.5224 C   0  0  0  0  0  0  0  0  0  0  0  0
  -45.0386  -33.8578   -1.1430 C   0  0  0  0  0  0  0  0  0  0  0  0
  -44.5286  -29.6941    6.8686 C   0  0  0  0  0  0  0  0  0  0  0  0
  -45.2453  -29.7601    4.5465 C   0  0  0  0  0  0  0  0  0  0  0  0
  -44.7098  -32.9833    1.1127 C   0  0  0  0  0  0  0  0  0  0  0  0
  -46.4791  -29.2296    4.9641 C   0  0  0  0  0  0  0  0  0  0  0  0
  -43.9388  -33.1025   -1.5985 C   0  0  0  0  0  0  0  0  0  0  0  0
  -45.4368  -33.7843    0.2064 C   0  0  0  0  0  0  0  0  0  0  0  0
  -46.6661  -28.9068    6.3184 C   0  0  0  0  0  0  0  0  0  0  0  0
  -48.5449  -28.3544    5.1922 C   0  0  0  0  0  0  0  0  0  0  0  0
  -44.9347  -29.9112    3.1224 C   0  0  0  0  0  0  0  0  0  0  0  0
  -45.1500  -32.8896    2.5667 C   0  0  0  0  0  0  0  0  0  0  0  0
  -45.7051  -29.1345    7.2446 N   0  0  0  0  0  0  0  0  0  0  0  0
  -47.6357  -28.8667    4.2841 N   0  0  0  0  0  0  0  0  0  0  0  0
  -47.9297  -28.3476    6.4322 N   0  0  0  0  0  0  0  0  0  0  0  0
  -45.7713  -30.6242    2.2924 N   0  0  0  0  0  0  0  0  0  0  0  0
  -49.6879  -27.9894    4.9487 O   0  0  0  0  0  0  0  0  0  0  0  0
  -43.8255  -29.5981    2.7099 O   0  0  0  0  0  0  0  0  0  0  0  0
  -46.1976  -31.9023    2.7051 O   0  0  0  0  0  0  0  0  0  0  0  0
  -43.5461  -33.1877   -2.8891 F   0  0  0  0  0  0  0  0  0  0  0  0
  -46.5067  -34.4973    0.6307 F   0  0  0  0  0  0  0  0  0  0  0  0
  -43.0750  -31.5805    1.3316 H   0  0  0  0  0  0  0  0  0  0  0  0
  -42.4192  -31.6615   -1.0640 H   0  0  0  0  0  0  0  0  0  0  0  0
  -43.3173  -30.4547    5.2424 H   0  0  0  0  0  0  0  0  0  0  0  0
  -45.5769  -34.4940   -1.8299 H   0  0  0  0  0  0  0  0  0  0  0  0
  -43.7777  -29.8977    7.6177 H   0  0  0  0  0  0  0  0  0  0  0  0
  -45.5269  -33.8690    2.8967 H   0  0  0  0  0  0  0  0  0  0  0  0
  -44.2910  -32.5986    3.1890 H   0  0  0  0  0  0  0  0  0  0  0  0
  -47.7859  -28.9605    3.2999 H   0  0  0  0  0  0  0  0  0  0  0  0
  -48.3328  -27.9951    7.2767 H   0  0  0  0  0  0  0  0  0  0  0  0
  -46.0693  -30.2435    1.4170 H   0  0  0  0  0  0  0  0  0  0  0  0
  1  2  1  0  0  0  0
  1  7  2  0  0  0  0
  2  9  2  0  0  0  0
  3  5  2  0  0  0  0
  3  6  1  0  0  0  0
  4  9  1  0  0  0  0
  4 10  2  0  0  0  0
  5 15  1  0  0  0  0
  6  8  2  0  0  0  0
  6 13  1  0  0  0  0
  7 10  1  0  0  0  0
  7 14  1  0  0  0  0
  8 11  1  0  0  0  0
  8 16  1  0  0  0  0
  9 22  1  0  0  0  0
 10 23  1  0  0  0  0
 11 15  2  0  0  0  0
 11 17  1  0  0  0  0
 12 16  1  0  0  0  0
 12 17  1  0  0  0  0
 12 19  2  0  0  0  0
 13 18  1  0  0  0  0
 13 20  2  0  0  0  0
 14 21  1  0  0  0  0
 18 21  1  0  0  0  0
  1 24  1  0  0  0  0
  2 25  1  0  0  0  0
  3 26  1  0  0  0  0
  4 27  1  0  0  0  0
  5 28  1  0  0  0  0
 14 29  1  0  0  0  0
 14 30  1  0  0  0  0
 16 31  1  0  0  0  0
 17 32  1  0  0  0  0
 18 33  1  0  0  0  0
M  END
> <POSIT::Probability>
0.51

> <POSIT::Method>
SHAPEFIT

> <ReceptorTitle>
UCSF-P4609-REFINED_LIGAND-BOUND-STATE_AALTB__DU__LA1_A-201(A)

> <OMEGA_C>
lXouwiXZAMLEOiU/2vcswjcOAcLoUTW/CQ4xwu4g8MFGt7BAhCc0wlpuB8IqT5K/Rh0ywoCN7cHG
y9tAJPs0wsAU7sHOfJFA2tYywu3uA8IWbI4/pOo5wkbW6cFM2p5AS8EvwvJoBMI/nMy/U781whsj
B8JgWlM+H6o6wipB58H4L8pA/y1CwrbV4sHoJqZAF70zwhxK78FH1UdAm5k0wgCPA8IVRCRA+9E2
wlwT6cHC0+dA6Io+wgDv5sFyF4lA+Lc/wurH4sGe1M1AxBU3wkb+9MGLthJAXcBGwkLq38HyW55A
UE0vwurI7MExbi1AVco4wuw3/8G9Hy1ALy8uwkHABMKV5jjA5QY6wjz9CcKYdCE/x0wswtOk/MGf
cKo/R60pwtRK/cFWMYi/9EQtwjej88FxwadAyU42wtX5CcIQO+q/URwvwmsu78Hhw/NAhBs2ws95
B8KrYzlA8ykxwvxkAsISGUxAuyQ/wiGv58HmMVNA1VRBwvL138Gz2uhA7kY4wqzy8cHFYLU/

> <OMEGA_E>
yIdnPw==

> <OMEGA_NBR>
      8268

$$$$
CACHE3HI_1689_52
  -OEChem-03092622513D

 41 42  0     0  0  0  0  0  0999 V2000
  -50.3918  -29.7818    3.8085 C   0  0  0  0  0  0  0  0  0  0  0  0
  -49.4978  -32.0224    3.6742 C   0  0  0  0  0  0  0  0  0  0  0  0
  -49.3174  -29.3086    3.0552 C   0  0  0  0  0  0  0  0  0  0  0  0
  -48.4234  -31.5492    2.9210 C   0  0  0  0  0  0  0  0  0  0  0  0
  -44.1639  -30.7813    2.3979 C   0  0  0  0  0  0  0  0  0  0  0  0
  -42.2148  -30.2676    3.4496 C   0  0  0  0  0  0  0  0  0  0  0  0
  -50.4820  -31.1388    4.1178 C   0  0  0  0  0  0  0  0  0  0  0  0
  -43.9827  -29.7539    1.4948 C   0  0  0  0  0  0  0  0  0  0  0  0
  -48.3332  -30.1921    2.6116 C   0  0  0  0  0  0  0  0  0  0  0  0
  -42.8341  -29.0077    1.6611 C   0  0  0  0  0  0  0  0  0  0  0  0
  -46.9917  -28.3973    1.4454 C   0  0  0  0  0  0  0  0  0  0  0  0
  -49.8246  -30.2256    6.5277 C   0  0  0  0  0  0  0  0  0  0  0  0
  -44.9919  -29.4945    0.4133 C   0  0  0  0  0  0  0  0  0  0  0  0
  -51.6292  -31.6449    4.9254 C   0  0  0  0  0  0  0  0  0  0  0  0
  -51.2407  -30.5382    6.9622 C   0  0  0  0  0  0  0  0  0  0  0  0
  -43.2969  -31.0674    3.3914 N   0  0  0  0  0  0  0  0  0  0  0  0
  -41.9250  -29.2373    2.6316 N   0  0  0  0  0  0  0  0  0  0  0  0
  -42.5936  -27.9388    0.7630 N   0  0  0  0  0  0  0  0  0  0  0  0
  -47.2588  -29.7188    1.8581 N   0  0  0  0  0  0  0  0  0  0  0  0
  -45.8085  -28.3371    0.7019 N   0  0  0  0  0  0  0  0  0  0  0  0
  -47.6837  -27.4119    1.6894 O   0  0  0  0  0  0  0  0  0  0  0  0
  -52.0699  -30.6234    5.8112 O   0  0  0  0  0  0  0  0  0  0  0  0
  -51.1536  -29.0862    4.1500 H   0  0  0  0  0  0  0  0  0  0  0  0
  -49.5600  -33.0814    3.9110 H   0  0  0  0  0  0  0  0  0  0  0  0
  -49.2572  -28.2489    2.8198 H   0  0  0  0  0  0  0  0  0  0  0  0
  -47.6623  -32.2470    2.5809 H   0  0  0  0  0  0  0  0  0  0  0  0
  -45.0352  -31.4271    2.3529 H   0  0  0  0  0  0  0  0  0  0  0  0
  -41.5017  -30.4748    4.2380 H   0  0  0  0  0  0  0  0  0  0  0  0
  -49.4345  -31.0106    5.8737 H   0  0  0  0  0  0  0  0  0  0  0  0
  -49.7866  -29.2700    5.9947 H   0  0  0  0  0  0  0  0  0  0  0  0
  -49.1666  -30.1311    7.3975 H   0  0  0  0  0  0  0  0  0  0  0  0
  -44.4937  -29.3251   -0.5470 H   0  0  0  0  0  0  0  0  0  0  0  0
  -45.6604  -30.3523    0.2861 H   0  0  0  0  0  0  0  0  0  0  0  0
  -52.4693  -31.9403    4.2826 H   0  0  0  0  0  0  0  0  0  0  0  0
  -51.3423  -32.5252    5.5173 H   0  0  0  0  0  0  0  0  0  0  0  0
  -51.6247  -29.7495    7.6157 H   0  0  0  0  0  0  0  0  0  0  0  0
  -51.2774  -31.4940    7.4941 H   0  0  0  0  0  0  0  0  0  0  0  0
  -43.2295  -27.7912    0.0099 H   0  0  0  0  0  0  0  0  0  0  0  0
  -41.7418  -27.4272    0.8412 H   0  0  0  0  0  0  0  0  0  0  0  0
  -46.5735  -30.4244    1.5662 H   0  0  0  0  0  0  0  0  0  0  0  0
  -45.5202  -27.4436    0.3154 H   0  0  0  0  0  0  0  0  0  0  0  0
  1  3  2  0  0  0  0
  1  7  1  0  0  0  0
  2  4  1  0  0  0  0
  2  7  2  0  0  0  0
  3  9  1  0  0  0  0
  4  9  2  0  0  0  0
  5  8  1  0  0  0  0
  5 16  2  0  0  0  0
  6 16  1  0  0  0  0
  6 17  2  0  0  0  0
  7 14  1  0  0  0  0
  8 10  2  0  0  0  0
  8 13  1  0  0  0  0
  9 19  1  0  0  0  0
 10 17  1  0  0  0  0
 10 18  1  0  0  0  0
 11 19  1  0  0  0  0
 11 20  1  0  0  0  0
 11 21  2  0  0  0  0
 12 15  1  0  0  0  0
 13 20  1  0  0  0  0
 14 22  1  0  0  0  0
 15 22  1  0  0  0  0
  1 23  1  0  0  0  0
  2 24  1  0  0  0  0
  3 25  1  0  0  0  0
  4 26  1  0  0  0  0
  5 27  1  0  0  0  0
  6 28  1  0  0  0  0
 12 29  1  0  0  0  0
 12 30  1  0  0  0  0
 12 31  1  0  0  0  0
 13 32  1  0  0  0  0
 13 33  1  0  0  0  0
 14 34  1  0  0  0  0
 14 35  1  0  0  0  0
 15 36  1  0  0  0  0
 15 37  1  0  0  0  0
 18 38  1  0  0  0  0
 18 39  1  0  0  0  0
 19 40  1  0  0  0  0
 20 41  1  0  0  0  0
M  END
> <POSIT::Probability>
0.02

> <POSIT::Method>
FRED

> <ReceptorTitle>
UCSF-P4609_LA2_MERGED(A)

> <OMEGA_C>
P5FJwhZB7sHwvXNAxf1FwugWAMIWJmtABEVFwgV46sGmiENAkrFBwtxk/MEy8TpA1acwwgxA9sF8
dhlA+tsowiQk8sGOxVxAke1Jwlsc+cH4xINAQO4vwu4H7sGMVL8/OVVBwnyJ8cHKJCdAG1YrwsMP
6MFUoNQ/gfc7wrwt48G0Ark/V0xHwvfN8cGx4tBAwPczwqv068EgodM+VIROwsYo/cGXnJ1AbvZM
wiRO9MEWyt5ACTAtwvCJ+MEEDFlAPbMnwhPm6cEGbChA0F8qwpqC38GQU0M//wg9wgvA7cFU1u0/
7js3wlSy4sFcsjM/Frw+wopL28FAPdg/lEdQwqf89MGw9blAVp1MwpWw6ME1zYRAeD1Gwl9TBMKg
TnpAVAdFws/94cFYeDRAL6Y+wvT8AMJiLSVAFSQ0wqBq+8FOlhZAuwEmwnXM88FvnYdA6rxFwsIV
+MGD9btAdiVHwuYo6sH81L9ApKpEwn8M8cEruOxAg/kxws+Z6sFwBQy/TKQ2wpHR8sHQeJI+meBR
wsiF/8HdColAe15Nws8ZAsL5jbBAtH9Owun+7cG+s/NADxxNwqHz+8Gtz+9ACesswnJU3sEAmSE8
kvcmwtBq28HkVlc/RUs6wh1l88HQd8g/uRQ2wmeM28Goe6E+

> <OMEGA_E>
zFIEwQ==

> <OMEGA_NBR>
      9508

$$$$
CACHE3HI_1689_64
  -OEChem-03092622513D

 33 35  0     0  0  0  0  0  0999 V2000
  -42.7073  -31.7066   -0.8682 C   0  0  0  0  0  0  0  0  0  0  0  0
  -42.4010  -30.6667    0.0566 C   0  0  0  0  0  0  0  0  0  0  0  0
  -43.8373  -34.0900   -2.4382 C   0  0  0  0  0  0  0  0  0  0  0  0
  -44.6489  -35.1567   -2.7390 C   0  0  0  0  0  0  0  0  0  0  0  0
  -44.3197  -33.6193   -1.2022 C   0  0  0  0  0  0  0  0  0  0  0  0
  -43.7732  -32.4730   -0.4511 C   0  0  0  0  0  0  0  0  0  0  0  0
  -43.2452  -30.6782    1.1457 C   0  0  0  0  0  0  0  0  0  0  0  0
  -46.2404  -29.1211    6.1397 C   0  0  0  0  0  0  0  0  0  0  0  0
  -45.8323  -29.2288    4.8691 C   0  0  0  0  0  0  0  0  0  0  0  0
  -46.8686  -29.3661    3.8042 C   0  0  0  0  0  0  0  0  0  0  0  0
  -48.5957  -29.2548    5.5874 C   0  0  0  0  0  0  0  0  0  0  0  0
  -43.2610  -29.7698    2.3204 C   0  0  0  0  0  0  0  0  0  0  0  0
  -44.3960  -29.2182    4.4566 C   0  0  0  0  0  0  0  0  0  0  0  0
  -45.3571  -34.3284   -0.7495 N   0  0  0  0  0  0  0  0  0  0  0  0
  -45.5335  -35.2560   -1.7057 N   0  0  0  0  0  0  0  0  0  0  0  0
  -47.5599  -29.1315    6.5003 N   0  0  0  0  0  0  0  0  0  0  0  0
  -48.1814  -29.3678    4.2590 N   0  0  0  0  0  0  0  0  0  0  0  0
  -44.2380  -30.0234    3.2755 N   0  0  0  0  0  0  0  0  0  0  0  0
  -46.5614  -29.4689    2.6193 O   0  0  0  0  0  0  0  0  0  0  0  0
  -49.7819  -29.2642    5.9177 O   0  0  0  0  0  0  0  0  0  0  0  0
  -42.4466  -28.8525    2.3807 O   0  0  0  0  0  0  0  0  0  0  0  0
  -44.4006  -31.9384    1.0501 S   0  0  0  0  0  0  0  0  0  0  0  0
  -42.1668  -31.8747   -1.7918 H   0  0  0  0  0  0  0  0  0  0  0  0
  -41.6013  -29.9488   -0.0758 H   0  0  0  0  0  0  0  0  0  0  0  0
  -43.0160  -33.7153   -3.0323 H   0  0  0  0  0  0  0  0  0  0  0  0
  -44.6742  -35.8399   -3.5756 H   0  0  0  0  0  0  0  0  0  0  0  0
  -45.5438  -29.0181    6.9636 H   0  0  0  0  0  0  0  0  0  0  0  0
  -44.0848  -28.1914    4.2587 H   0  0  0  0  0  0  0  0  0  0  0  0
  -43.7794  -29.6200    5.2619 H   0  0  0  0  0  0  0  0  0  0  0  0
  -46.2797  -35.9299   -1.5881 H   0  0  0  0  0  0  0  0  0  0  0  0
  -47.7820  -29.0445    7.4876 H   0  0  0  0  0  0  0  0  0  0  0  0
  -48.9109  -29.4600    3.5577 H   0  0  0  0  0  0  0  0  0  0  0  0
  -44.9162  -30.7662    3.1203 H   0  0  0  0  0  0  0  0  0  0  0  0
  1  2  1  0  0  0  0
  1  6  2  0  0  0  0
  2  7  2  0  0  0  0
  3  4  2  0  0  0  0
  3  5  1  0  0  0  0
  4 15  1  0  0  0  0
  5  6  1  0  0  0  0
  5 14  2  0  0  0  0
  6 22  1  0  0  0  0
  7 12  1  0  0  0  0
  7 22  1  0  0  0  0
  8  9  2  0  0  0  0
  8 16  1  0  0  0  0
  9 10  1  0  0  0  0
  9 13  1  0  0  0  0
 10 17  1  0  0  0  0
 10 19  2  0  0  0  0
 11 16  1  0  0  0  0
 11 17  1  0  0  0  0
 11 20  2  0  0  0  0
 12 18  1  0  0  0  0
 12 21  2  0  0  0  0
 13 18  1  0  0  0  0
 14 15  1  0  0  0  0
  1 23  1  0  0  0  0
  2 24  1  0  0  0  0
  3 25  1  0  0  0  0
  4 26  1  0  0  0  0
  8 27  1  0  0  0  0
 13 28  1  0  0  0  0
 13 29  1  0  0  0  0
 15 30  1  0  0  0  0
 16 31  1  0  0  0  0
 17 32  1  0  0  0  0
 18 33  1  0  0  0  0
M  END
> <POSIT::Probability>
0.18

> <POSIT::Method>
HYBRID

> <ReceptorTitle>
UCSF-P4609_LA2_MERGED(A)

> <OMEGA_C>
PNQqwjSn/cHYRF6/n5opwnBV9cHAx2c9YFkvwilcCMJiCxzAd5gywnagDMIWTC/AbEcxwjB6BsIu
45m/xhcvwlXkAcI49ua+EPsswuZs9cFNpZI/KvY4wgf46MEkeMRAS1Q3wozU6cHWz5tAfnk7wsvt
6sFwd3NAAmJCwuYJ6sFczLJATgstwqAo7sE0gRRAfJUxwvC+6cFunI5Aom01wk9QCcJs3T+/TyI2
wicGDcL0U9q/UD0+wl0N6cFaAtBAy7lAwkvx6sH/SYhAr/Mwwtwv8MFfoVFA3T46wkvA68FBoydA
sSBHwv4c6sHmXb1AVskpwgXS5sFMXRhAQpoxwtSB/8ERaoY/2aoowmH//sH6WeW/v2cmwh6X78GQ
TJu9XhAswnjcBsJwEULAZrIywhpcD8KI1mTA2Sw2wiAl6MGf1d5AzlYwwgmI4cHyRohAIR4vwtj1
7ME8YahAbh45wkS4D8I8SMu/viA/wh5b6MEomu9AyqRDwi2u68F6sWNAL6ozwiIh9sFts0dA

> <OMEGA_E>
/ObDwA==

> <OMEGA_NBR>
     10601

$$$$
CACHE3HI_1689_65
  -OEChem-03092622513D

 44 46  0     1  0  0  0  0  0999 V2000
  -45.8725  -29.1893    5.2929 C   0  0  0  0  0  0  0  0  0  0  0  0
  -44.8682  -29.6114    4.4214 C   0  0  0  0  0  0  0  0  0  0  0  0
  -43.6220  -33.2277   -1.2964 C   0  0  0  0  0  0  0  0  0  0  0  0
  -43.3166  -31.9052   -0.8624 C   0  0  0  0  0  0  0  0  0  0  0  0
  -46.4603  -29.6518    2.6056 C   0  0  0  0  0  0  0  0  0  0  0  0
  -47.1776  -28.9878    4.8245 C   0  0  0  0  0  0  0  0  0  0  0  0
  -47.4787  -29.2388    3.4748 C   0  0  0  0  0  0  0  0  0  0  0  0
  -45.1624  -29.8396    3.0789 C   0  0  0  0  0  0  0  0  0  0  0  0
  -44.7414  -33.7320   -0.6718 C   0  0  0  0  0  0  0  0  0  0  0  0
  -44.2149  -31.4493    0.0778 C   0  0  0  0  0  0  0  0  0  0  0  0
  -45.3591  -35.0080   -0.8361 C   0  0  0  0  0  0  0  0  0  0  0  0
  -51.8265  -29.8021    2.7692 C   0  0  0  0  0  0  0  0  0  0  0  0
  -48.2644  -28.5652    5.7785 C   0  0  0  0  0  0  0  0  0  0  0  0
  -48.8727  -29.0000    2.9424 C   0  0  0  0  0  0  0  0  0  0  0  0
  -49.5126  -28.0411    5.0624 C   0  0  0  0  0  0  0  0  0  0  0  0
  -44.2414  -30.1206    0.7774 C   0  0  0  0  0  0  0  0  0  0  0  0
  -51.1996  -28.5963    3.4293 C   0  0  0  0  0  0  0  0  0  0  0  0
  -49.9034  -28.9707    3.9954 N   0  0  1  0  0  0  0  0  0  0  0  0
  -46.5069  -35.3037   -0.0827 N   0  0  0  0  0  0  0  0  0  0  0  0
  -52.0130  -30.8442    3.6519 N   0  0  0  0  0  0  0  0  0  0  0  0
  -44.1453  -30.2615    2.1970 N   0  0  0  0  0  0  0  0  0  0  0  0
  -44.9242  -35.8703   -1.6421 O   0  0  0  0  0  0  0  0  0  0  0  0
  -52.0981  -29.8659    1.5735 O   0  0  0  0  0  0  0  0  0  0  0  0
  -45.4198  -32.6130    0.4331 S   0  0  0  0  0  0  0  0  0  0  0  0
  -45.6327  -29.0178    6.3391 H   0  0  0  0  0  0  0  0  0  0  0  0
  -43.8603  -29.7588    4.8005 H   0  0  0  0  0  0  0  0  0  0  0  0
  -43.0459  -33.7768   -2.0308 H   0  0  0  0  0  0  0  0  0  0  0  0
  -42.4801  -31.3212   -1.2243 H   0  0  0  0  0  0  0  0  0  0  0  0
  -46.6851  -29.8261    1.5555 H   0  0  0  0  0  0  0  0  0  0  0  0
  -48.5326  -29.4332    6.3944 H   0  0  0  0  0  0  0  0  0  0  0  0
  -47.8877  -27.7834    6.4487 H   0  0  0  0  0  0  0  0  0  0  0  0
  -48.8607  -28.0543    2.3835 H   0  0  0  0  0  0  0  0  0  0  0  0
  -49.1189  -29.8059    2.2399 H   0  0  0  0  0  0  0  0  0  0  0  0
  -50.3153  -27.9458    5.8041 H   0  0  0  0  0  0  0  0  0  0  0  0
  -49.3248  -27.0374    4.6569 H   0  0  0  0  0  0  0  0  0  0  0  0
  -43.4093  -29.4920    0.4435 H   0  0  0  0  0  0  0  0  0  0  0  0
  -45.1671  -29.5790    0.5569 H   0  0  0  0  0  0  0  0  0  0  0  0
  -51.8446  -28.2407    4.2372 H   0  0  0  0  0  0  0  0  0  0  0  0
  -51.0357  -27.7950    2.7036 H   0  0  0  0  0  0  0  0  0  0  0  0
  -46.9120  -34.6294    0.5575 H   0  0  0  0  0  0  0  0  0  0  0  0
  -47.0008  -36.1859   -0.1671 H   0  0  0  0  0  0  0  0  0  0  0  0
  -51.7297  -30.7227    4.6187 H   0  0  0  0  0  0  0  0  0  0  0  0
  -52.4234  -31.7288    3.3700 H   0  0  0  0  0  0  0  0  0  0  0  0
  -43.3308  -30.6751    2.6093 H   0  0  0  0  0  0  0  0  0  0  0  0
  1  2  1  0  0  0  0
  1  6  2  0  0  0  0
  2  8  2  0  0  0  0
  3  4  1  0  0  0  0
  3  9  2  0  0  0  0
  4 10  2  0  0  0  0
  5  7  2  0  0  0  0
  5  8  1  0  0  0  0
  6  7  1  0  0  0  0
  6 13  1  0  0  0  0
  7 14  1  0  0  0  0
  8 21  1  0  0  0  0
  9 11  1  0  0  0  0
  9 24  1  0  0  0  0
 10 16  1  0  0  0  0
 10 24  1  0  0  0  0
 11 19  1  0  0  0  0
 11 22  2  0  0  0  0
 12 17  1  0  0  0  0
 12 20  1  0  0  0  0
 12 23  2  0  0  0  0
 13 15  1  0  0  0  0
 14 18  1  0  0  0  0
 15 18  1  0  0  0  0
 16 21  1  0  0  0  0
 17 18  1  0  0  0  0
  1 25  1  0  0  0  0
  2 26  1  0  0  0  0
  3 27  1  0  0  0  0
  4 28  1  0  0  0  0
  5 29  1  0  0  0  0
 13 30  1  0  0  0  0
 13 31  1  0  0  0  0
 14 32  1  0  0  0  0
 14 33  1  0  0  0  0
 15 34  1  0  0  0  0
 15 35  1  0  0  0  0
 16 36  1  0  0  0  0
 16 37  1  0  0  0  0
 17 38  1  0  0  0  0
 17 39  1  0  0  0  0
 19 40  1  0  0  0  0
 19 41  1  0  0  0  0
 20 42  1  0  0  0  0
 20 43  1  0  0  0  0
 21 44  1  0  0  0  0
M  END
> <POSIT::Probability>
0.18

> <POSIT::Method>
HYBRID

> <ReceptorTitle>
UCSF-P4609-REFINED_LIGAND-BOUND-STATE_AALTB__DU__LA1_A-201(A)

> <OMEGA_C>
ZX03wquD6cF1X6lADnkzwg7k7MEvfI1A5HwuwibpBMIo8aW/MEQtwuM9/8HQxVy/YNc5wuY27cF0
wSZA2LU8wuzm58EMYppAPOo9wv/o6cFWYl5ASqY0wmu37sGmDEVALPcywoftBsLg+iu/E9wwwhSY
+8GAXZ89uG81wi8IDMJoC1a/Uk5PwrRq7sEdOzFAwg5BwpmF5MEh6bhAmX1DwvX/58FTUDxA5QxG
whhU4MGF/6FALvcwwgz38MEYBkc/V8xMwijF5MFUeVtAFp1HwvjD58GgtH9AGwc6wvc2DcKAU6m9
Tw1QwvvA9sEyuGlAvZQwwpIX8sHVmgxAVrIzwjB7D8IcMNK/a2RQwmPt7sFUZ8k/3q01wsJzAsLQ
wt0+6oc2woEk6MHr2cpA6HAvwgYS7sGrnZlABi8swnYbB8Jo+AHAouspwriR+sGctZy/lL06wsWb
7sFwGcc/bCFCwkB368HansxA/ow/wlFE3sFYW85AT3FDwkBv4MEGjBhAyXlEwoxy7sEvWg9A30JJ
wuaQ38HpurlAk0xFwrJM2MGkBZVAFaMtwp/v68EwDOM+Jas0wsyh7MHAjQ4/0mBPwvvs4cHUlodA
gyRMwi5c3sF3By1A4qU7woaECsIwtQ4/2QA8wlW+EMKAFiu+MutOwjDI9cFNzJNAlrFRwobU/cGW
rVdAylItwqJm9cEU/yZA

> <OMEGA_E>
iiigwA==

> <OMEGA_NBR>
     11986

$$$$
CACHE3HI_1689_87
  -OEChem-03092622513D

 38 39  0     0  0  0  0  0  0999 V2000
  -47.0710  -31.4522    2.5536 C   0  0  0  0  0  0  0  0  0  0  0  0
  -46.6475  -29.3352    3.6382 C   0  0  0  0  0  0  0  0  0  0  0  0
  -45.7856  -31.4314    2.0123 C   0  0  0  0  0  0  0  0  0  0  0  0
  -45.3621  -29.3144    3.0970 C   0  0  0  0  0  0  0  0  0  0  0  0
  -43.8101  -26.2648   -0.4022 C   0  0  0  0  0  0  0  0  0  0  0  0
  -47.5018  -30.4041    3.3667 C   0  0  0  0  0  0  0  0  0  0  0  0
  -44.9312  -30.3626    2.2839 C   0  0  0  0  0  0  0  0  0  0  0  0
  -44.9945  -26.9562   -0.2973 C   0  0  0  0  0  0  0  0  0  0  0  0
  -43.5674  -28.1052    0.7866 C   0  0  0  0  0  0  0  0  0  0  0  0
  -48.8698  -30.4261    3.9440 C   0  0  0  0  0  0  0  0  0  0  0  0
  -42.8613  -29.1438    1.6101 C   0  0  0  0  0  0  0  0  0  0  0  0
  -50.7962  -31.0635    6.2342 C   0  0  0  0  0  0  0  0  0  0  0  0
  -50.2997  -29.6818    5.8301 C   0  0  0  0  0  0  0  0  0  0  0  0
  -52.1176  -31.0201    6.9927 C   0  0  0  0  0  0  0  0  0  0  0  0
  -44.8368  -28.1002    0.4436 N   0  0  0  0  0  0  0  0  0  0  0  0
  -42.9054  -27.0133    0.2970 N   0  0  0  0  0  0  0  0  0  0  0  0
  -43.6320  -30.3418    1.7356 N   0  0  0  0  0  0  0  0  0  0  0  0
  -49.0418  -29.7339    5.1373 N   0  0  0  0  0  0  0  0  0  0  0  0
  -49.7546  -31.0529    3.3672 O   0  0  0  0  0  0  0  0  0  0  0  0
  -51.9364  -30.2651    8.1835 O   0  0  0  0  0  0  0  0  0  0  0  0
  -46.6367  -26.4371   -1.0543 Br  0  0  0  0  0  0  0  0  0  0  0  0
  -47.7285  -32.2901    2.3368 H   0  0  0  0  0  0  0  0  0  0  0  0
  -46.9741  -28.5128    4.2694 H   0  0  0  0  0  0  0  0  0  0  0  0
  -45.4600  -32.2539    1.3803 H   0  0  0  0  0  0  0  0  0  0  0  0
  -44.7049  -28.4762    3.3150 H   0  0  0  0  0  0  0  0  0  0  0  0
  -43.5323  -25.3420   -0.8913 H   0  0  0  0  0  0  0  0  0  0  0  0
  -41.8996  -29.4070    1.1573 H   0  0  0  0  0  0  0  0  0  0  0  0
  -42.6549  -28.7715    2.6189 H   0  0  0  0  0  0  0  0  0  0  0  0
  -50.0411  -31.5491    6.8650 H   0  0  0  0  0  0  0  0  0  0  0  0
  -50.9060  -31.7046    5.3500 H   0  0  0  0  0  0  0  0  0  0  0  0
  -51.0202  -29.1753    5.1798 H   0  0  0  0  0  0  0  0  0  0  0  0
  -50.1497  -29.0628    6.7196 H   0  0  0  0  0  0  0  0  0  0  0  0
  -52.4495  -32.0254    7.2698 H   0  0  0  0  0  0  0  0  0  0  0  0
  -52.8962  -30.5401    6.3920 H   0  0  0  0  0  0  0  0  0  0  0  0
  -41.9259  -26.7971    0.4273 H   0  0  0  0  0  0  0  0  0  0  0  0
  -43.2556  -31.2183    1.4275 H   0  0  0  0  0  0  0  0  0  0  0  0
  -48.2407  -29.2915    5.5838 H   0  0  0  0  0  0  0  0  0  0  0  0
  -52.7919  -30.2562    8.6419 H   0  0  0  0  0  0  0  0  0  0  0  0
  1  3  1  0  0  0  0
  1  6  2  0  0  0  0
  2  4  2  0  0  0  0
  2  6  1  0  0  0  0
  3  7  2  0  0  0  0
  4  7  1  0  0  0  0
  5  8  2  0  0  0  0
  5 16  1  0  0  0  0
  6 10  1  0  0  0  0
  7 17  1  0  0  0  0
  8 15  1  0  0  0  0
  8 21  1  0  0  0  0
  9 11  1  0  0  0  0
  9 15  2  0  0  0  0
  9 16  1  0  0  0  0
 10 18  1  0  0  0  0
 10 19  2  0  0  0  0
 11 17  1  0  0  0  0
 12 13  1  0  0  0  0
 12 14  1  0  0  0  0
 13 18  1  0  0  0  0
 14 20  1  0  0  0  0
  1 22  1  0  0  0  0
  2 23  1  0  0  0  0
  3 24  1  0  0  0  0
  4 25  1  0  0  0  0
  5 26  1  0  0  0  0
 11 27  1  0  0  0  0
 11 28  1  0  0  0  0
 12 29  1  0  0  0  0
 12 30  1  0  0  0  0
 13 31  1  0  0  0  0
 13 32  1  0  0  0  0
 14 33  1  0  0  0  0
 14 34  1  0  0  0  0
 16 35  1  0  0  0  0
 17 36  1  0  0  0  0
 18 37  1  0  0  0  0
 20 38  1  0  0  0  0
M  END
> <POSIT::Probability>
0.02

> <POSIT::Method>
FRED

> <ReceptorTitle>
UCSF-P4609_LA2_MERGED(A)

> <OMEGA_C>
uUg8wjSe+8HabSNA/pY6wpau6sGh2GhAciQ3wodz+8EYygBAwXI1wtqD6sF0NUZAgj0vwlse0sHQ
6c2+2QE+woI788EBeFdAlrkzwpnm8sG4KhJAXPozwmam18FgPJi+/0QuwmDX4MGoX0k/uHpDwp5o
88FqanxA/HErwpEm6cHEFs4/SS9LwhKC+MHrfsdA2jJJwj907cEgkLpAZ3hQwjIp+MFGxN9A61gz
wjbN4MGgIuM+IZ8rwk4b2MHAFpg+Hocuwgi88sEIJ94/1ypEwg7f7cHKZKRAqQRHwmps+MEygFdA
075PwuAe8sHI7wJB9Ys6wkh/08Gw8oa/8ek+whMpAcKwjhVAcuU7wkIa5ME/n4hAE9c1wv4DAcKk
rrA/zdEywjjP48HFKVRADiEuwlq8ysEAK2S/LJknwnJB68HsIpQ/l54qwhIs5sFonCdAFCpIwoZk
/MEYrttAtJ9LwgSj/cFhM6tAtBRMwu5m6cGwwKVARplIwoeA6MHLBtdAUcxRwvsZAMKZouhArpVT
wipS9MH0isxAK7Qnwnlg1sGAydo+xQUtwiC/+cGAubY/cvZAwghV6sG1rrJA8CpTwsAM8sEkRQpB

> <OMEGA_E>
FgP1wA==

> <OMEGA_NBR>
     13169

$$$$
CACHE3HI_1689_9
  -OEChem-03092622513D

 36 37  0     0  0  0  0  0  0999 V2000
  -48.4961  -29.6218    2.7124 C   0  0  0  0  0  0  0  0  0  0  0  0
  -47.1251  -29.8771    2.7428 C   0  0  0  0  0  0  0  0  0  0  0  0
  -47.0605  -29.2584    5.0775 C   0  0  0  0  0  0  0  0  0  0  0  0
  -42.8197  -29.6370    0.9372 C   0  0  0  0  0  0  0  0  0  0  0  0
  -49.1492  -29.1849    3.8648 C   0  0  0  0  0  0  0  0  0  0  0  0
  -46.4073  -29.6953    3.9251 C   0  0  0  0  0  0  0  0  0  0  0  0
  -48.4315  -29.0031    5.0471 C   0  0  0  0  0  0  0  0  0  0  0  0
  -42.7609  -29.5351    2.3044 C   0  0  0  0  0  0  0  0  0  0  0  0
  -51.4082  -29.7493    4.8145 C   0  0  0  0  0  0  0  0  0  0  0  0
  -44.1446  -29.8273    5.0402 C   0  0  0  0  0  0  0  0  0  0  0  0
  -51.5958  -30.2539    7.1193 C   0  0  0  0  0  0  0  0  0  0  0  0
  -50.6155  -28.9136    3.8293 C   0  0  0  0  0  0  0  0  0  0  0  0
  -42.4968  -30.6060    3.3236 C   0  0  0  0  0  0  0  0  0  0  0  0
  -42.9895  -28.2404    2.6795 N   0  0  0  0  0  0  0  0  0  0  0  0
  -43.1909  -27.5263    1.5775 N   0  0  0  0  0  0  0  0  0  0  0  0
  -43.0887  -28.3651    0.5339 N   0  0  0  0  0  0  0  0  0  0  0  0
  -45.0359  -29.9497    3.9547 N   0  0  0  0  0  0  0  0  0  0  0  0
  -42.8452  -30.1786    4.6599 N   0  0  0  0  0  0  0  0  0  0  0  0
  -52.3250  -30.5024    4.5161 O   0  0  0  0  0  0  0  0  0  0  0  0
  -44.4379  -29.4646    6.1768 O   0  0  0  0  0  0  0  0  0  0  0  0
  -50.9363  -29.5261    6.0780 O   0  0  0  0  0  0  0  0  0  0  0  0
  -49.0509  -28.5842    6.1595 F   0  0  0  0  0  0  0  0  0  0  0  0
  -49.0468  -29.7662    1.7867 H   0  0  0  0  0  0  0  0  0  0  0  0
  -46.6259  -30.2168    1.8388 H   0  0  0  0  0  0  0  0  0  0  0  0
  -46.5117  -29.1128    6.0044 H   0  0  0  0  0  0  0  0  0  0  0  0
  -42.7014  -30.4572    0.2442 H   0  0  0  0  0  0  0  0  0  0  0  0
  -51.1441  -30.0038    8.0827 H   0  0  0  0  0  0  0  0  0  0  0  0
  -52.6528  -29.9773    7.1322 H   0  0  0  0  0  0  0  0  0  0  0  0
  -51.5047  -31.3259    6.9296 H   0  0  0  0  0  0  0  0  0  0  0  0
  -51.0138  -29.1103    2.8206 H   0  0  0  0  0  0  0  0  0  0  0  0
  -50.8095  -27.8514    4.0492 H   0  0  0  0  0  0  0  0  0  0  0  0
  -43.0759  -31.5070    3.0956 H   0  0  0  0  0  0  0  0  0  0  0  0
  -41.4397  -30.8914    3.3285 H   0  0  0  0  0  0  0  0  0  0  0  0
  -43.2106  -28.0034   -0.4042 H   0  0  0  0  0  0  0  0  0  0  0  0
  -44.6220  -30.2674    3.0713 H   0  0  0  0  0  0  0  0  0  0  0  0
  -42.0989  -30.1007    5.3438 H   0  0  0  0  0  0  0  0  0  0  0  0
  1  2  2  0  0  0  0
  1  5  1  0  0  0  0
  2  6  1  0  0  0  0
  3  6  2  0  0  0  0
  3  7  1  0  0  0  0
  4  8  2  0  0  0  0
  4 16  1  0  0  0  0
  5  7  2  0  0  0  0
  5 12  1  0  0  0  0
  6 17  1  0  0  0  0
  7 22  1  0  0  0  0
  8 13  1  0  0  0  0
  8 14  1  0  0  0  0
  9 12  1  0  0  0  0
  9 19  2  0  0  0  0
  9 21  1  0  0  0  0
 10 17  1  0  0  0  0
 10 18  1  0  0  0  0
 10 20  2  0  0  0  0
 11 21  1  0  0  0  0
 13 18  1  0  0  0  0
 14 15  2  0  0  0  0
 15 16  1  0  0  0  0
  1 23  1  0  0  0  0
  2 24  1  0  0  0  0
  3 25  1  0  0  0  0
  4 26  1  0  0  0  0
 11 27  1  0  0  0  0
 11 28  1  0  0  0  0
 11 29  1  0  0  0  0
 12 30  1  0  0  0  0
 12 31  1  0  0  0  0
 13 32  1  0  0  0  0
 13 33  1  0  0  0  0
 16 34  1  0  0  0  0
 17 35  1  0  0  0  0
 18 36  1  0  0  0  0
M  END
> <POSIT::Probability>
0.24

> <POSIT::Method>
FRED

> <ReceptorTitle>
UCSF-P4609-REFINED_LIGAND-BOUND-STATE_AALTB__DU__LA1_A-201(A)

> <OMEGA_C>
+/tBwlz57MGYmC1AF4A8wjoE78E4ii9A/j08wh4R6sHYeqJAYEcrwqsY7cEE7W8/z5hEwph66cED
WXdAHqE5wu6P7cG/NHtA1blBwkoG6MHGgaFAKwsrwudH7MErexNA96FNwn3+7cGGEJpABZQwwlae
7sEjSaFAHGJOwggI8sEz0eNAUHZKwhlP58EeE3VAwfwpwhrZ9MGOtlRAQPUrwmjs4cGufStAcsMs
wuc13MEs7Mk/0FoswtHr4sE0qwg/wSQ0whOZ78H9GX1AhWErwtJt8cH0HZVAzUxRwtgE9MFFhJBA
XMAxwoi368FGqMVAyL5Lwns17MH6fsJAIjREwn6s5MFVGsVA6y9Ewish7sFeseQ/7oA6wu278cEA
Xes/+gs6wu/m6MHaI8BARM4qwmCo88FABHo+ipNMwtQH8MHkUgFBdpxSwnrR78GeOuRA2AROwnOb
+sGcv91AIw5MwtPh6MHQhDRA7TxLwsDP3sHUkoFAw00swlIO/MGQHkZAPsIlwpch98HyBlVAp9cs
wgAH4MFY7s6+6nwywq4j8sE+kERAPGUowkLO8MHDAKtA

> <OMEGA_E>
+CIAwQ==

> <OMEGA_NBR>
     14384

$$$$
CACHE3HI_1691_3
  -OEChem-03092622513D

 43 45  0     0  0  0  0  0  0999 V2000
  -45.7370  -32.9770    1.1025 C   0  0  0  0  0  0  0  0  0  0  0  0
  -45.8224  -33.4638   -0.2167 C   0  0  0  0  0  0  0  0  0  0  0  0
  -43.5267  -32.0536    0.6163 C   0  0  0  0  0  0  0  0  0  0  0  0
  -50.4813  -28.1437    4.6707 C   0  0  0  0  0  0  0  0  0  0  0  0
  -51.7062  -28.2819    2.6859 C   0  0  0  0  0  0  0  0  0  0  0  0
  -44.5867  -32.2754    1.5199 C   0  0  0  0  0  0  0  0  0  0  0  0
  -49.3111  -28.4997    3.9712 C   0  0  0  0  0  0  0  0  0  0  0  0
  -43.6121  -32.5326   -0.7090 C   0  0  0  0  0  0  0  0  0  0  0  0
  -44.7624  -33.2463   -1.1221 C   0  0  0  0  0  0  0  0  0  0  0  0
  -49.4109  -28.7333    2.5789 C   0  0  0  0  0  0  0  0  0  0  0  0
  -44.5046  -31.7408    2.8810 C   0  0  0  0  0  0  0  0  0  0  0  0
  -48.0373  -28.6530    4.6986 C   0  0  0  0  0  0  0  0  0  0  0  0
  -43.5607  -29.5666    5.0921 C   0  0  0  0  0  0  0  0  0  0  0  0
  -44.3551  -28.3828    4.5082 C   0  0  0  0  0  0  0  0  0  0  0  0
  -44.9250  -29.8038    4.4324 C   0  0  0  0  0  0  0  0  0  0  0  0
  -42.4613  -32.3044   -1.6729 C   0  0  0  0  0  0  0  0  0  0  0  0
  -46.1156  -30.1650    5.3380 C   0  0  0  0  0  0  0  0  0  0  0  0
  -51.6610  -28.0460    4.0209 N   0  0  0  0  0  0  0  0  0  0  0  0
  -50.6081  -28.6148    1.9609 N   0  0  0  0  0  0  0  0  0  0  0  0
  -48.2872  -29.0574    1.8217 N   0  0  0  0  0  0  0  0  0  0  0  0
  -44.9497  -30.4442    3.1118 N   0  0  0  0  0  0  0  0  0  0  0  0
  -47.3879  -29.8843    4.6582 N   0  0  0  0  0  0  0  0  0  0  0  0
  -44.0336  -32.4312    3.7792 O   0  0  0  0  0  0  0  0  0  0  0  0
  -47.6211  -27.7330    5.3956 O   0  0  0  0  0  0  0  0  0  0  0  0
  -44.8568  -33.7224   -2.3865 F   0  0  0  0  0  0  0  0  0  0  0  0
  -46.5510  -33.1408    1.7931 H   0  0  0  0  0  0  0  0  0  0  0  0
  -46.7011  -34.0047   -0.5356 H   0  0  0  0  0  0  0  0  0  0  0  0
  -42.6475  -31.5160    0.9391 H   0  0  0  0  0  0  0  0  0  0  0  0
  -50.4345  -27.9479    5.7317 H   0  0  0  0  0  0  0  0  0  0  0  0
  -52.6561  -28.2014    2.1784 H   0  0  0  0  0  0  0  0  0  0  0  0
  -42.6417  -29.9113    4.5954 H   0  0  0  0  0  0  0  0  0  0  0  0
  -43.4502  -29.6717    6.1815 H   0  0  0  0  0  0  0  0  0  0  0  0
  -44.8120  -27.6417    5.1804 H   0  0  0  0  0  0  0  0  0  0  0  0
  -44.0035  -27.8814    3.5944 H   0  0  0  0  0  0  0  0  0  0  0  0
  -41.7510  -33.1412   -1.6013 H   0  0  0  0  0  0  0  0  0  0  0  0
  -42.8505  -32.2408   -2.6998 H   0  0  0  0  0  0  0  0  0  0  0  0
  -41.9489  -31.3655   -1.4162 H   0  0  0  0  0  0  0  0  0  0  0  0
  -46.0679  -31.2352    5.5878 H   0  0  0  0  0  0  0  0  0  0  0  0
  -46.0606  -29.5700    6.2615 H   0  0  0  0  0  0  0  0  0  0  0  0
  -48.5500  -29.1624    0.8626 H   0  0  0  0  0  0  0  0  0  0  0  0
  -47.6086  -28.3274    1.9033 H   0  0  0  0  0  0  0  0  0  0  0  0
  -45.3053  -29.9205    2.3377 H   0  0  0  0  0  0  0  0  0  0  0  0
  -47.8133  -30.6226    4.1346 H   0  0  0  0  0  0  0  0  0  0  0  0
  1  2  2  0  0  0  0
  1  6  1  0  0  0  0
  2  9  1  0  0  0  0
  3  6  2  0  0  0  0
  3  8  1  0  0  0  0
  4  7  1  0  0  0  0
  4 18  2  0  0  0  0
  5 18  1  0  0  0  0
  5 19  2  0  0  0  0
  6 11  1  0  0  0  0
  7 10  2  0  0  0  0
  7 12  1  0  0  0  0
  8  9  2  0  0  0  0
  8 16  1  0  0  0  0
  9 25  1  0  0  0  0
 10 19  1  0  0  0  0
 10 20  1  0  0  0  0
 11 21  1  0  0  0  0
 11 23  2  0  0  0  0
 12 22  1  0  0  0  0
 12 24  2  0  0  0  0
 13 14  1  0  0  0  0
 13 15  1  0  0  0  0
 14 15  1  0  0  0  0
 15 17  1  0  0  0  0
 15 21  1  0  0  0  0
 17 22  1  0  0  0  0
  1 26  1  0  0  0  0
  2 27  1  0  0  0  0
  3 28  1  0  0  0  0
  4 29  1  0  0  0  0
  5 30  1  0  0  0  0
 13 31  1  0  0  0  0
 13 32  1  0  0  0  0
 14 33  1  0  0  0  0
 14 34  1  0  0  0  0
 16 35  1  0  0  0  0
 16 36  1  0  0  0  0
 16 37  1  0  0  0  0
 17 38  1  0  0  0  0
 17 39  1  0  0  0  0
 20 40  1  0  0  0  0
 20 41  1  0  0  0  0
 21 42  1  0  0  0  0
 22 43  1  0  0  0  0
M  END
> <POSIT::Probability>
0.25

> <POSIT::Method>
SHAPEFIT

> <ReceptorTitle>
UCSF-P4609-REFINED_LIGAND-BOUND-STATE_AALTB__DU__LA1_A-201(A)

> <OMEGA_C>
qfI2wnfoA8ImHY0/Kko3wvjaBcLs5F2+Yxsuwuo2AMJ3xR0/1exJwjwm4cH+dZVAHdNOwj5B4sEn
5itAxFgywvoZAcKAjcI/iT5Fwmr/48F2J35Av3IuwlshAsIlfjW/uwwzwjP8BMKEoI+/xKRFwrzd
5cH6DCVAvQQywiDt/cHQYjhALyZAwkQ55cGVWpZAJD4uwn6I7MEx8qJAl2sxwgQQ48EeQ5BAJ7Mz
wiZu7sFd1o1Aa9gpwq43AcKkIda/YnY4wtpR8cGP0KpA6KROwiZe4MHsqoBAuG5Kwg7r5MGu/fo/
HSZBwnR16MGKLuk/gcwzwsiN88FjJ0dAOY09wiQT78GSD5VAaiIwwpC5AcIb3nFA+Hs+wkTd3cEW
qaxAXm0zwrHjBsIhvRjALTQ6wiKQBMIIheU/9806wtEECMLfHwm//5YqwrQg/MH2ZXA/4rxJwl+V
38FhardA1J9SwmSc4cHoagtAGpEqwnBK78G8DZNACs0two5f7cF8zsVAij8zwjki3cE1xqVAmgMw
whsN38HrCmZA+gAnwo6QBMK7+My/8mYrwov2AMJCySzAoMsnwpPs+sEcRrW/f0U4wpfh+cFQz7JA
Cj44wmGP7MGFXshAJzNCwqdM6cGQ01w/Nm8+woOe4sHLnvM/qDg1whtd78HRnBVA3EA/wv369MH5
ToRA

> <OMEGA_E>
Do+VPw==

> <OMEGA_NBR>
     15766

$$$$
CACHE3HI_1691_37
  -OEChem-03092622513D

 43 44  0     0  0  0  0  0  0999 V2000
  -43.3155  -26.7211    2.1314 C   0  0  0  0  0  0  0  0  0  0  0  0
  -43.0637  -27.7875    2.9946 C   0  0  0  0  0  0  0  0  0  0  0  0
  -48.6187  -29.1411    3.0808 C   0  0  0  0  0  0  0  0  0  0  0  0
  -48.4659  -28.7051    5.4523 C   0  0  0  0  0  0  0  0  0  0  0  0
  -47.2498  -29.4063    3.0420 C   0  0  0  0  0  0  0  0  0  0  0  0
  -47.0970  -28.9703    5.4135 C   0  0  0  0  0  0  0  0  0  0  0  0
  -43.1763  -28.2195    0.2413 C   0  0  0  0  0  0  0  0  0  0  0  0
  -43.3716  -26.9372    0.7547 C   0  0  0  0  0  0  0  0  0  0  0  0
  -42.8683  -29.0698    2.4812 C   0  0  0  0  0  0  0  0  0  0  0  0
  -49.2267  -28.7906    4.2862 C   0  0  0  0  0  0  0  0  0  0  0  0
  -46.4890  -29.3208    4.2081 C   0  0  0  0  0  0  0  0  0  0  0  0
  -42.9245  -29.2859    1.1044 C   0  0  0  0  0  0  0  0  0  0  0  0
  -51.5137  -28.5617    3.2677 C   0  0  0  0  0  0  0  0  0  0  0  0
  -44.1893  -29.5528    5.2273 C   0  0  0  0  0  0  0  0  0  0  0  0
  -52.9071  -28.2108    3.7253 C   0  0  0  0  0  0  0  0  0  0  0  0
  -43.6407  -25.7975   -0.1687 C   0  0  0  0  0  0  0  0  0  0  0  0
  -42.5994  -30.2074    3.4074 C   0  0  0  0  0  0  0  0  0  0  0  0
  -42.4541  -25.3578   -0.8569 N   0  0  0  0  0  0  0  0  0  0  0  0
  -50.5960  -28.5263    4.3254 N   0  0  0  0  0  0  0  0  0  0  0  0
  -45.1004  -29.5892    4.1680 N   0  0  0  0  0  0  0  0  0  0  0  0
  -42.9035  -29.8822    4.7774 N   0  0  0  0  0  0  0  0  0  0  0  0
  -51.2897  -28.8411    2.0942 O   0  0  0  0  0  0  0  0  0  0  0  0
  -44.4387  -29.2771    6.3983 O   0  0  0  0  0  0  0  0  0  0  0  0
  -42.7380  -30.5144    0.6017 F   0  0  0  0  0  0  0  0  0  0  0  0
  -43.4666  -25.7256    2.5404 H   0  0  0  0  0  0  0  0  0  0  0  0
  -43.0216  -27.6098    4.0660 H   0  0  0  0  0  0  0  0  0  0  0  0
  -49.2020  -29.2120    2.1662 H   0  0  0  0  0  0  0  0  0  0  0  0
  -48.9286  -28.4315    6.3970 H   0  0  0  0  0  0  0  0  0  0  0  0
  -46.7865  -29.6790    2.0972 H   0  0  0  0  0  0  0  0  0  0  0  0
  -46.5140  -28.9009    6.3285 H   0  0  0  0  0  0  0  0  0  0  0  0
  -43.2184  -28.3973   -0.8300 H   0  0  0  0  0  0  0  0  0  0  0  0
  -53.0677  -27.1321    3.6446 H   0  0  0  0  0  0  0  0  0  0  0  0
  -53.6421  -28.7232    3.0987 H   0  0  0  0  0  0  0  0  0  0  0  0
  -53.0445  -28.5246    4.7641 H   0  0  0  0  0  0  0  0  0  0  0  0
  -44.3820  -26.0722   -0.9319 H   0  0  0  0  0  0  0  0  0  0  0  0
  -44.0469  -24.9299    0.3694 H   0  0  0  0  0  0  0  0  0  0  0  0
  -43.1975  -31.0885    3.1369 H   0  0  0  0  0  0  0  0  0  0  0  0
  -41.5457  -30.5165    3.3710 H   0  0  0  0  0  0  0  0  0  0  0  0
  -42.6773  -24.5715   -1.4719 H   0  0  0  0  0  0  0  0  0  0  0  0
  -42.1111  -26.0994   -1.4727 H   0  0  0  0  0  0  0  0  0  0  0  0
  -50.9848  -28.2740    5.2411 H   0  0  0  0  0  0  0  0  0  0  0  0
  -44.7192  -29.8388    3.2584 H   0  0  0  0  0  0  0  0  0  0  0  0
  -42.1376  -29.8593    5.4472 H   0  0  0  0  0  0  0  0  0  0  0  0
  1  2  2  0  0  0  0
  1  8  1  0  0  0  0
  2  9  1  0  0  0  0
  3  5  2  0  0  0  0
  3 10  1  0  0  0  0
  4  6  1  0  0  0  0
  4 10  2  0  0  0  0
  5 11  1  0  0  0  0
  6 11  2  0  0  0  0
  7  8  2  0  0  0  0
  7 12  1  0  0  0  0
  8 16  1  0  0  0  0
  9 12  2  0  0  0  0
  9 17  1  0  0  0  0
 10 19  1  0  0  0  0
 11 20  1  0  0  0  0
 12 24  1  0  0  0  0
 13 15  1  0  0  0  0
 13 19  1  0  0  0  0
 13 22  2  0  0  0  0
 14 20  1  0  0  0  0
 14 21  1  0  0  0  0
 14 23  2  0  0  0  0
 16 18  1  0  0  0  0
 17 21  1  0  0  0  0
  1 25  1  0  0  0  0
  2 26  1  0  0  0  0
  3 27  1  0  0  0  0
  4 28  1  0  0  0  0
  5 29  1  0  0  0  0
  6 30  1  0  0  0  0
  7 31  1  0  0  0  0
 15 32  1  0  0  0  0
 15 33  1  0  0  0  0
 15 34  1  0  0  0  0
 16 35  1  0  0  0  0
 16 36  1  0  0  0  0
 17 37  1  0  0  0  0
 17 38  1  0  0  0  0
 18 39  1  0  0  0  0
 18 40  1  0  0  0  0
 19 41  1  0  0  0  0
 20 42  1  0  0  0  0
 21 43  1  0  0  0  0
M  END
> <POSIT::Probability>
0.24

> <POSIT::Method>
FRED

> <ReceptorTitle>
UCSF-P4609-REFINED_LIGAND-BOUND-STATE_AALTB__DU__LA1_A-201(A)

> <OMEGA_C>
EUMtwrjE1cGIaQhAMkEswrlM3sG4pz9Ag3lCwvEg6cGZK0VAD91BwiSk5cFkea5AxP88wg5A68HM
r0JAW2M8wjnD58HIO61AhbQswpzB4cEQEXc+kXwtwnd/18HQMEE/Jnkrwt2O6MGazB5AG+hEwjhT
5sFWKIlAt/Q5wvqQ6sHyqIZAp7IrwpNJ6sGgXI0/Aw5OwnB+5MFwIlFA1sEwwjhs7MHIRadA4qBT
wqOv4cHOa25AHpAuwldhzsFAxiy+zWUqwq+o8cGgE1pA89ApwtPcysHoX1u/SGJKwsU15MHzaYpA
1mY0wrO27MHoX4VAMp0rwqoO78Gu4JhAnihNwpe65sEeBwZAPcExwos36sGWvsxAtvMqwoAd9MFg
CBo/w90twgLOzcGGliJAJRYswvXg3MGPHIJA2c5Ewjyy6cFYowpA77ZDwsxz48GItMxAXiU7wpJu
7cFIOAZAWw46wgI158GygspAmN8swqwt48HEeFS/U0VUwoUO2cERQWlAjJFWwjDJ5cHQUEZAni1U
wksy5MFVc5hAKIcxwt+T0MFwkm6/EzAwwlxwx8HQHL0+O8oswj61+MGCw0hAwi4mwsAh9MHkvVdA
jLUqwoSSxMHoZ7y/uXEowpvL0MHAgry/ZfBLwhMx4sERt6dAduAywsq17sHaiVBA4owowsXf7sEs
T65A

> <OMEGA_E>
DJUawQ==

> <OMEGA_NBR>
     17120

$$$$
CACHE3HI_1691_57
  -OEChem-03092622513D

 46 47  0     0  0  0  0  0  0999 V2000
  -42.3667  -31.6085    1.0389 C   0  0  0  0  0  0  0  0  0  0  0  0
  -42.3327  -30.6018    2.0039 C   0  0  0  0  0  0  0  0  0  0  0  0
  -48.9425  -29.8364    6.2766 C   0  0  0  0  0  0  0  0  0  0  0  0
  -49.4699  -28.9534    4.0904 C   0  0  0  0  0  0  0  0  0  0  0  0
  -47.5816  -29.7435    5.9851 C   0  0  0  0  0  0  0  0  0  0  0  0
  -48.1091  -28.8605    3.7989 C   0  0  0  0  0  0  0  0  0  0  0  0
  -44.6572  -31.0368    0.5249 C   0  0  0  0  0  0  0  0  0  0  0  0
  -49.8866  -29.4412    5.3291 C   0  0  0  0  0  0  0  0  0  0  0  0
  -43.5292  -31.8260    0.2995 C   0  0  0  0  0  0  0  0  0  0  0  0
  -43.4607  -29.8126    2.2293 C   0  0  0  0  0  0  0  0  0  0  0  0
  -47.1648  -29.2558    4.7464 C   0  0  0  0  0  0  0  0  0  0  0  0
  -44.6232  -30.0302    1.4898 C   0  0  0  0  0  0  0  0  0  0  0  0
  -51.9623  -30.8780    5.2514 C   0  0  0  0  0  0  0  0  0  0  0  0
  -44.7067  -29.5075    5.2709 C   0  0  0  0  0  0  0  0  0  0  0  0
  -52.3689  -32.3232    3.2680 C   0  0  0  0  0  0  0  0  0  0  0  0
  -51.3419  -29.5427    5.6393 C   0  0  0  0  0  0  0  0  0  0  0  0
  -43.5663  -32.9021   -0.7322 C   0  0  0  0  0  0  0  0  0  0  0  0
  -43.4200  -28.7297    3.2690 C   0  0  0  0  0  0  0  0  0  0  0  0
  -42.8541  -32.5375   -1.9302 N   0  0  0  0  0  0  0  0  0  0  0  0
  -45.8037  -29.1627    4.4551 N   0  0  0  0  0  0  0  0  0  0  0  0
  -51.8530  -31.1261    3.8903 N   0  0  0  0  0  0  0  0  0  0  0  0
  -43.4983  -29.2642    4.6099 N   0  0  0  0  0  0  0  0  0  0  0  0
  -52.4965  -31.6277    6.0645 O   0  0  0  0  0  0  0  0  0  0  0  0
  -44.7703  -29.9620    6.4105 O   0  0  0  0  0  0  0  0  0  0  0  0
  -45.7121  -29.2771    1.6993 F   0  0  0  0  0  0  0  0  0  0  0  0
  -41.4831  -32.2182    0.8701 H   0  0  0  0  0  0  0  0  0  0  0  0
  -41.4226  -30.4394    2.5754 H   0  0  0  0  0  0  0  0  0  0  0  0
  -49.2579  -30.2179    7.2440 H   0  0  0  0  0  0  0  0  0  0  0  0
  -50.1989  -28.6435    3.3460 H   0  0  0  0  0  0  0  0  0  0  0  0
  -46.8543  -30.0544    6.7310 H   0  0  0  0  0  0  0  0  0  0  0  0
  -47.7961  -28.4790    2.8302 H   0  0  0  0  0  0  0  0  0  0  0  0
  -45.5673  -31.1991   -0.0465 H   0  0  0  0  0  0  0  0  0  0  0  0
  -51.5972  -33.0972    3.2243 H   0  0  0  0  0  0  0  0  0  0  0  0
  -53.2200  -32.7080    3.8368 H   0  0  0  0  0  0  0  0  0  0  0  0
  -52.7052  -32.1050    2.2506 H   0  0  0  0  0  0  0  0  0  0  0  0
  -51.5197  -29.3884    6.7161 H   0  0  0  0  0  0  0  0  0  0  0  0
  -51.8977  -28.7416    5.1249 H   0  0  0  0  0  0  0  0  0  0  0  0
  -43.1190  -33.8310   -0.3523 H   0  0  0  0  0  0  0  0  0  0  0  0
  -44.5972  -33.1440   -1.0257 H   0  0  0  0  0  0  0  0  0  0  0  0
  -42.4927  -28.1528    3.1892 H   0  0  0  0  0  0  0  0  0  0  0  0
  -44.2513  -28.0290    3.1390 H   0  0  0  0  0  0  0  0  0  0  0  0
  -42.9101  -33.2954   -2.6149 H   0  0  0  0  0  0  0  0  0  0  0  0
  -41.8580  -32.4256   -1.7253 H   0  0  0  0  0  0  0  0  0  0  0  0
  -45.5705  -28.7954    3.5258 H   0  0  0  0  0  0  0  0  0  0  0  0
  -51.4229  -30.4283    3.2896 H   0  0  0  0  0  0  0  0  0  0  0  0
  -42.6284  -29.4393    5.1034 H   0  0  0  0  0  0  0  0  0  0  0  0
  1  2  2  0  0  0  0
  1  9  1  0  0  0  0
  2 10  1  0  0  0  0
  3  5  2  0  0  0  0
  3  8  1  0  0  0  0
  4  6  1  0  0  0  0
  4  8  2  0  0  0  0
  5 11  1  0  0  0  0
  6 11  2  0  0  0  0
  7  9  2  0  0  0  0
  7 12  1  0  0  0  0
  8 16  1  0  0  0  0
  9 17  1  0  0  0  0
 10 12  2  0  0  0  0
 10 18  1  0  0  0  0
 11 20  1  0  0  0  0
 12 25  1  0  0  0  0
 13 16  1  0  0  0  0
 13 21  1  0  0  0  0
 13 23  2  0  0  0  0
 14 20  1  0  0  0  0
 14 22  1  0  0  0  0
 14 24  2  0  0  0  0
 15 21  1  0  0  0  0
 17 19  1  0  0  0  0
 18 22  1  0  0  0  0
  1 26  1  0  0  0  0
  2 27  1  0  0  0  0
  3 28  1  0  0  0  0
  4 29  1  0  0  0  0
  5 30  1  0  0  0  0
  6 31  1  0  0  0  0
  7 32  1  0  0  0  0
 15 33  1  0  0  0  0
 15 34  1  0  0  0  0
 15 35  1  0  0  0  0
 16 36  1  0  0  0  0
 16 37  1  0  0  0  0
 17 38  1  0  0  0  0
 17 39  1  0  0  0  0
 18 40  1  0  0  0  0
 18 41  1  0  0  0  0
 19 42  1  0  0  0  0
 19 43  1  0  0  0  0
 20 44  1  0  0  0  0
 21 45  1  0  0  0  0
 22 46  1  0  0  0  0
M  END
> <POSIT::Probability>
0.24

> <POSIT::Method>
FRED

> <ReceptorTitle>
UCSF-P4609-REFINED_LIGAND-BOUND-STATE_AALTB__DU__LA1_A-201(A)

> <OMEGA_C>
gXcpwiLe/MHo+oQ/p1QpwnzQ9MGkPwBAGsVDwgmx7sHy2chAMuFFwn+g58F35IJAhlM+wsXy7cEA
hr9ArG9Awjfi5sG0IHNABaEywlxL+MGAYAY/6otHwnqH68EGiKpA7h0uwo6b/sHAWpk+v9ctwkuA
7sFsrA5Azag8wswL6sFx4pdAM34ywsc98MFQs74/Y9lPwiMG98EiC6hAodMywmAP7MEFq6hAwnlR
wvlKAcJ8JlFAJF5NwnlX7MHjdLRA5EMuwsGbA8Jwczu/D64twobW5cHoN1FAoGorwnImAsJwEPe/
+jY3wkBN6cHrj45AcGlPwkAC+cGa+nhARP4twvsc6sFUhJNAc/xRwpcF/cEAEMJAwBQzwjyy78Ej
I81AOtk2woc36sHggdk/re4lwm7fAMKgwF4/xLAlwtaD88HU0iRAGQhFwka+8cG2zudAs8tIwuMl
5cFcJVZAzWo7wlNv8MGxZNdALC8/wgjV48F8ITVA3kQ2wqyX+cEAXz69iGNOwn5jBMI4W05AUeFU
wgXVAsKwjXVAFtJSwoprAMKACRBAIBROwmYb68En6tZAQJdPwuHu5cEM/6NA0HkswvxSB8KgZbS+
h2Mywn+TBMJgSYO/f/gpwu044cHcG0xATwExwmA74MF05UhA9KMrwoAuBcIMWifAlG4nwsSzAcJA
1dy/M0g2whRd5sF0p2FADLFNwiNt88G4iFJAg4MqwriD68EHT6NA

> <OMEGA_E>
StTnwA==

> <OMEGA_NBR>
     18534

$$$$
CACHE3HI_1691_69
  -OEChem-03092622513D

 46 47  0     1  0  0  0  0  0999 V2000
  -44.6407  -33.2171   -1.5937 C   0  0  0  0  0  0  0  0  0  0  0  0
  -44.0548  -32.0539   -1.0944 C   0  0  0  0  0  0  0  0  0  0  0  0
  -45.4168  -33.7772    0.6248 C   0  0  0  0  0  0  0  0  0  0  0  0
  -45.3216  -34.0788   -0.7339 C   0  0  0  0  0  0  0  0  0  0  0  0
  -44.1499  -31.7522    0.2643 C   0  0  0  0  0  0  0  0  0  0  0  0
  -44.8309  -32.6140    1.1241 C   0  0  0  0  0  0  0  0  0  0  0  0
  -45.5828  -29.6178    1.8939 C   0  0  0  0  0  0  0  0  0  0  0  0
  -48.3152  -30.9479    4.1110 C   0  0  0  0  0  0  0  0  0  0  0  0
  -47.4636  -29.3140    5.8466 C   0  0  0  0  0  0  0  0  0  0  0  0
  -48.3755  -29.8189    3.0807 C   0  0  0  0  0  0  0  0  0  0  0  0
  -47.5256  -28.1883    4.8128 C   0  0  0  0  0  0  0  0  0  0  0  0
  -48.4546  -30.4518    5.5576 C   0  0  1  0  0  0  0  0  0  0  0  0
  -47.3728  -28.6994    3.3770 C   0  0  1  0  0  0  0  0  0  0  0  0
  -45.9482  -35.3226   -1.2671 C   0  0  0  0  0  0  0  0  0  0  0  0
  -43.5178  -30.4988    0.7979 C   0  0  0  0  0  0  0  0  0  0  0  0
  -49.8951  -30.0392    5.8759 C   0  0  0  0  0  0  0  0  0  0  0  0
  -47.3699  -35.3616   -1.0383 N   0  0  0  0  0  0  0  0  0  0  0  0
  -46.0178  -29.1410    3.1286 N   0  0  0  0  0  0  0  0  0  0  0  0
  -44.2373  -29.9724    1.9362 N   0  0  0  0  0  0  0  0  0  0  0  0
  -46.2960  -29.7118    0.8960 O   0  0  0  0  0  0  0  0  0  0  0  0
  -50.1127  -28.7375    5.3642 O   0  0  0  0  0  0  0  0  0  0  0  0
  -44.9276  -32.3327    2.4310 F   0  0  0  0  0  0  0  0  0  0  0  0
  -44.5616  -33.4438   -2.6536 H   0  0  0  0  0  0  0  0  0  0  0  0
  -43.5261  -31.3882   -1.7716 H   0  0  0  0  0  0  0  0  0  0  0  0
  -45.9454  -34.4426    1.3020 H   0  0  0  0  0  0  0  0  0  0  0  0
  -49.1113  -31.6792    3.8895 H   0  0  0  0  0  0  0  0  0  0  0  0
  -47.3629  -31.4909    3.9938 H   0  0  0  0  0  0  0  0  0  0  0  0
  -46.4371  -29.7143    5.8815 H   0  0  0  0  0  0  0  0  0  0  0  0
  -47.6607  -28.8939    6.8475 H   0  0  0  0  0  0  0  0  0  0  0  0
  -48.1835  -30.2383    2.0797 H   0  0  0  0  0  0  0  0  0  0  0  0
  -49.3981  -29.4112    3.0568 H   0  0  0  0  0  0  0  0  0  0  0  0
  -48.4830  -27.6553    4.9223 H   0  0  0  0  0  0  0  0  0  0  0  0
  -46.7335  -27.4549    5.0356 H   0  0  0  0  0  0  0  0  0  0  0  0
  -48.1982  -31.2988    6.2294 H   0  0  0  0  0  0  0  0  0  0  0  0
  -47.5504  -27.8676    2.6813 H   0  0  0  0  0  0  0  0  0  0  0  0
  -45.7856  -35.4157   -2.3498 H   0  0  0  0  0  0  0  0  0  0  0  0
  -45.5179  -36.2214   -0.8039 H   0  0  0  0  0  0  0  0  0  0  0  0
  -42.4857  -30.6898    1.1099 H   0  0  0  0  0  0  0  0  0  0  0  0
  -43.4867  -29.7176    0.0313 H   0  0  0  0  0  0  0  0  0  0  0  0
  -50.0491  -30.0344    6.9541 H   0  0  0  0  0  0  0  0  0  0  0  0
  -50.5917  -30.7332    5.4063 H   0  0  0  0  0  0  0  0  0  0  0  0
  -47.7603  -36.2313   -1.4091 H   0  0  0  0  0  0  0  0  0  0  0  0
  -47.8293  -34.6103   -1.5593 H   0  0  0  0  0  0  0  0  0  0  0  0
  -45.3618  -29.1332    3.9047 H   0  0  0  0  0  0  0  0  0  0  0  0
  -43.7355  -29.8554    2.8112 H   0  0  0  0  0  0  0  0  0  0  0  0
  -51.0305  -28.4967    5.5770 H   0  0  0  0  0  0  0  0  0  0  0  0
  1  2  2  0  0  0  0
  1  4  1  0  0  0  0
  2  5  1  0  0  0  0
  3  4  2  0  0  0  0
  3  6  1  0  0  0  0
  4 14  1  0  0  0  0
  5  6  2  0  0  0  0
  5 15  1  0  0  0  0
  6 22  1  0  0  0  0
  7 18  1  0  0  0  0
  7 19  1  0  0  0  0
  7 20  2  0  0  0  0
  8 10  1  0  0  0  0
  8 12  1  0  0  0  0
  9 11  1  0  0  0  0
  9 12  1  0  0  0  0
 10 13  1  0  0  0  0
 11 13  1  0  0  0  0
 12 16  1  0  0  0  0
 13 18  1  0  0  0  0
 14 17  1  0  0  0  0
 15 19  1  0  0  0  0
 16 21  1  0  0  0  0
  1 23  1  0  0  0  0
  2 24  1  0  0  0  0
  3 25  1  0  0  0  0
  8 26  1  0  0  0  0
  8 27  1  0  0  0  0
  9 28  1  0  0  0  0
  9 29  1  0  0  0  0
 10 30  1  0  0  0  0
 10 31  1  0  0  0  0
 11 32  1  0  0  0  0
 11 33  1  0  0  0  0
 12 34  1  0  0  0  0
 13 35  1  0  0  0  0
 14 36  1  0  0  0  0
 14 37  1  0  0  0  0
 15 38  1  0  0  0  0
 15 39  1  0  0  0  0
 16 40  1  0  0  0  0
 16 41  1  0  0  0  0
 17 42  1  0  0  0  0
 17 43  1  0  0  0  0
 18 44  1  0  0  0  0
 19 45  1  0  0  0  0
 21 46  1  0  0  0  0
M  END
> <POSIT::Probability>
0.14

> <POSIT::Method>
HYBRID

> <ReceptorTitle>
UCSF-P4609_LA2_MERGED(A)

> <OMEGA_C>
EpAywlTeBMKY/su/FDgwwjA3AMJgFYy/yKo1ws8bB8JA8B8/VUk1wrJQCMKw4Du/h5kwwpgE/sGA
TIc+01Izwrh0AsLg4Y8/x1Q2wirx7MFobPI/uEJBwkuV98E8jYNAv9o9wiyD6sEGF7tAf4BBwh6N
7sHYKUVAPho+wqSB4cFWAppAdtFBwjyd88HS17FAun09wmKY5cFQIVhA8co3wmFKDcJgL6K/PxIu
wpL988EQREw/j5RHwmBQ8MHCB7xAz3o9wjxyDcIo6IS/OhI4wrYg6cFEO0hAA/MwwobH78FI1Pc/
Gy85wtyx7cHgXWU/ZHNIwl7m5cFqp6tA3LUzwrBUAcJElhtACD8ywoDGBcKk1CnAuBouwhwb+8EE
w+K/G8g3wj/FCcJYp6Y/7XFEwghv/cGg7XhAnXM9wlTt+8G4mX9ApL85wsy27cHcNLxAjqQ+wqIm
58GmHttA3LtAwhDo8cGkGQVArZdFwjxK68F4okNAne5BwgA+3cFkg51AEO86wrKj28H0I6FA6MpA
wv9j+sEMV8dAozM+wtLw3sHImStAeCQ3wqepDcLwYhbAUxI2wrHiEMLQzU2/UfEpwraE9cHoD44/
VvItwpy97cEAIQA9SDJIwnBG8MFUiN5A8l1Kword9cEuAK1AjAo/wtvsEMKAXLS/O1E/wu5wCsLg
lce/eXI1wtgQ6cE853lAJfEuwvHX7sHk6jNANB9MwjD548F2drJA

> <OMEGA_E>
B5GQwA==

> <OMEGA_NBR>
     19886

$$$$
CACHE3HI_1691_70
  -OEChem-03092622513D

 45 46  0     1  0  0  0  0  0999 V2000
  -46.2244  -33.3283   -0.1142 C   0  0  0  0  0  0  0  0  0  0  0  0
  -45.2750  -33.4115   -1.1493 C   0  0  0  0  0  0  0  0  0  0  0  0
  -44.5751  -32.2195    1.3020 C   0  0  0  0  0  0  0  0  0  0  0  0
  -44.8479  -29.9205    4.4662 C   0  0  0  0  0  0  0  0  0  0  0  0
  -44.5565  -29.5881    6.7557 C   0  0  0  0  0  0  0  0  0  0  0  0
  -45.8798  -32.7367    1.1229 C   0  0  0  0  0  0  0  0  0  0  0  0
  -46.1999  -29.5255    4.5699 C   0  0  0  0  0  0  0  0  0  0  0  0
  -43.6368  -32.2562    0.2495 C   0  0  0  0  0  0  0  0  0  0  0  0
  -43.9835  -32.8774   -0.9718 C   0  0  0  0  0  0  0  0  0  0  0  0
  -46.6664  -29.1273    5.8517 C   0  0  0  0  0  0  0  0  0  0  0  0
  -46.8808  -32.6571    2.2102 C   0  0  0  0  0  0  0  0  0  0  0  0
  -47.0768  -29.5481    3.3670 C   0  0  0  0  0  0  0  0  0  0  0  0
  -42.2491  -31.6727    0.4507 C   0  0  0  0  0  0  0  0  0  0  0  0
  -50.3599  -28.7261    2.4680 C   0  0  0  0  0  0  0  0  0  0  0  0
  -50.2094  -31.2613    2.5484 C   0  0  0  0  0  0  0  0  0  0  0  0
  -49.3324  -32.5022    2.8565 C   0  0  0  0  0  0  0  0  0  0  0  0
  -49.4056  -29.9368    2.4197 C   0  0  2  0  0  0  0  0  0  0  0  0
  -44.0531  -29.9592    5.5552 N   0  0  0  0  0  0  0  0  0  0  0  0
  -45.8336  -29.1641    6.9152 N   0  0  0  0  0  0  0  0  0  0  0  0
  -47.9568  -28.6430    6.0528 N   0  0  0  0  0  0  0  0  0  0  0  0
  -48.2386  -32.6537    1.8818 N   0  0  0  0  0  0  0  0  0  0  0  0
  -48.4393  -29.8097    3.5200 N   0  0  0  0  0  0  0  0  0  0  0  0
  -46.5111  -32.5697    3.3776 O   0  0  0  0  0  0  0  0  0  0  0  0
  -46.5793  -29.4565    2.2481 O   0  0  0  0  0  0  0  0  0  0  0  0
  -43.0819  -32.9666   -1.9777 F   0  0  0  0  0  0  0  0  0  0  0  0
  -47.2203  -33.7178   -0.2652 H   0  0  0  0  0  0  0  0  0  0  0  0
  -45.5372  -33.8866   -2.0831 H   0  0  0  0  0  0  0  0  0  0  0  0
  -44.2950  -31.7926    2.2537 H   0  0  0  0  0  0  0  0  0  0  0  0
  -44.4452  -30.1952    3.5024 H   0  0  0  0  0  0  0  0  0  0  0  0
  -43.9136  -29.6317    7.6224 H   0  0  0  0  0  0  0  0  0  0  0  0
  -41.5794  -32.4480    0.8513 H   0  0  0  0  0  0  0  0  0  0  0  0
  -41.8591  -31.3137   -0.5131 H   0  0  0  0  0  0  0  0  0  0  0  0
  -42.3036  -30.8334    1.1597 H   0  0  0  0  0  0  0  0  0  0  0  0
  -49.7789  -27.7966    2.3760 H   0  0  0  0  0  0  0  0  0  0  0  0
  -51.0787  -28.7927    1.6379 H   0  0  0  0  0  0  0  0  0  0  0  0
  -50.9033  -28.7256    3.4244 H   0  0  0  0  0  0  0  0  0  0  0  0
  -50.7389  -31.4383    1.6006 H   0  0  0  0  0  0  0  0  0  0  0  0
  -50.9415  -31.1444    3.3611 H   0  0  0  0  0  0  0  0  0  0  0  0
  -48.9006  -32.3924    3.8623 H   0  0  0  0  0  0  0  0  0  0  0  0
  -49.9646  -33.4018    2.8252 H   0  0  0  0  0  0  0  0  0  0  0  0
  -48.8768  -29.9360    1.4552 H   0  0  0  0  0  0  0  0  0  0  0  0
  -48.0700  -28.3829    7.0118 H   0  0  0  0  0  0  0  0  0  0  0  0
  -48.1072  -27.8438    5.4709 H   0  0  0  0  0  0  0  0  0  0  0  0
  -48.4849  -32.7617    0.9187 H   0  0  0  0  0  0  0  0  0  0  0  0
  -48.7853  -29.9193    4.4518 H   0  0  0  0  0  0  0  0  0  0  0  0
  1  2  2  0  0  0  0
  1  6  1  0  0  0  0
  2  9  1  0  0  0  0
  3  6  2  0  0  0  0
  3  8  1  0  0  0  0
  4  7  1  0  0  0  0
  4 18  2  0  0  0  0
  5 18  1  0  0  0  0
  5 19  2  0  0  0  0
  6 11  1  0  0  0  0
  7 10  2  0  0  0  0
  7 12  1  0  0  0  0
  8  9  2  0  0  0  0
  8 13  1  0  0  0  0
  9 25  1  0  0  0  0
 10 19  1  0  0  0  0
 10 20  1  0  0  0  0
 11 21  1  0  0  0  0
 11 23  2  0  0  0  0
 12 22  1  0  0  0  0
 12 24  2  0  0  0  0
 14 17  1  0  0  0  0
 15 16  1  0  0  0  0
 15 17  1  0  0  0  0
 16 21  1  0  0  0  0
 17 22  1  0  0  0  0
  1 26  1  0  0  0  0
  2 27  1  0  0  0  0
  3 28  1  0  0  0  0
  4 29  1  0  0  0  0
  5 30  1  0  0  0  0
 13 31  1  0  0  0  0
 13 32  1  0  0  0  0
 13 33  1  0  0  0  0
 14 34  1  0  0  0  0
 14 35  1  0  0  0  0
 14 36  1  0  0  0  0
 15 37  1  0  0  0  0
 15 38  1  0  0  0  0
 16 39  1  0  0  0  0
 16 40  1  0  0  0  0
 17 41  1  0  0  0  0
 20 42  1  0  0  0  0
 20 43  1  0  0  0  0
 21 44  1  0  0  0  0
 22 45  1  0  0  0  0
M  END
> <POSIT::Probability>
0.51

> <POSIT::Method>
SHAPEFIT

> <ReceptorTitle>
UCSF-P4609-REFINED_LIGAND-BOUND-STATE_AALTB__DU__LA1_A-201(A)

> <OMEGA_C>
w+U4witQBcLq0um9kxk1wm2lBcLIG5O/70wywsjgAMIuqaY/PmQzwkJd78Ea645A2Dkywmu07MGx
LthA6oQ3wmTyAsLBu48/qsw4wio07MGQPJJAGYwuwk8GAcIUdH8+HO8vwnKCA8Kiyni/Z6o6wsQE
6cHuQLtA5oU7wtOgAsKpdA1AmU48wn9i7ME0fFdAFf8owq5h/cHpx+Y+j3BJwhjP5cEk8x1ActZI
wiMX+sH0GCNAYlRFwkQCAsJx0TZATp9FwoB+78G/3BpAajYwwmis78FvxLFAkFU3wipQ6cHzSN1A
wNM/wtgk5cHHsMFAVvRAwm6dAsJz3/A/0cFBwkJ67sETSGFAWQs6wl5HAsJnK1hAK1E6wvOm68Em
4Q9A3lMswtjdA8LcJv2/luE8wgvfBsK9yIe+GiY2wuCLB8IZUQXAEC4xwkBX/sGsPBBA78cxwtiP
8cEZKGBAfacvwscN7cGT6vNAR1EmwrXKAcKG7Vk/uG8nwmmC+sHEWgO/8DYpwuSq9sF3cpQ/kx1H
woRf3sF2EBhAllBMwnJX5sFBqNE/9pxLwgrO5cFJKVtAoPRKwryB+8Gj4Mw/EsRLwq8n+cGlG1dA
OJpDwsWRAcIyL3dAwdtHwn6bBcIO0DRA0YFDwuJ878HPQro/s0dAwkYQ48FeYOBAzW1AwiPA3sFJ
Ea9AjvBBwvQLA8ITLWs/LiRDwsNa78E8dY5A

> <OMEGA_E>
DDWJPw==

> <OMEGA_NBR>
     21310

$$$$
CACHE3HI_1691_74
  -OEChem-03092622513D

 46 47  0     1  0  0  0  0  0999 V2000
  -50.5929  -30.0832    3.3821 C   0  0  0  0  0  0  0  0  0  0  0  0
  -52.0656  -28.2176    2.9487 C   0  0  0  0  0  0  0  0  0  0  0  0
  -51.0663  -30.1518    4.6924 C   0  0  0  0  0  0  0  0  0  0  0  0
  -52.5391  -28.2860    4.2590 C   0  0  0  0  0  0  0  0  0  0  0  0
  -44.6263  -27.7437    0.9051 C   0  0  0  0  0  0  0  0  0  0  0  0
  -45.2462  -30.0630    1.1770 C   0  0  0  0  0  0  0  0  0  0  0  0
  -43.2783  -28.1014    0.9331 C   0  0  0  0  0  0  0  0  0  0  0  0
  -43.8983  -30.4207    1.2050 C   0  0  0  0  0  0  0  0  0  0  0  0
  -51.0928  -29.1161    2.5103 C   0  0  0  0  0  0  0  0  0  0  0  0
  -52.0391  -29.2532    5.1309 C   0  0  0  0  0  0  0  0  0  0  0  0
  -45.6102  -28.7247    1.0269 C   0  0  0  0  0  0  0  0  0  0  0  0
  -42.9143  -29.4396    1.0832 C   0  0  0  0  0  0  0  0  0  0  0  0
  -41.6586  -30.7581    3.3226 C   0  0  0  0  0  0  0  0  0  0  0  0
  -48.0894  -29.2029    1.1045 C   0  0  0  0  0  0  0  0  0  0  0  0
  -53.1692  -30.6828    6.8691 C   0  0  0  0  0  0  0  0  0  0  0  0
  -50.5879  -29.0432    1.1089 C   0  0  0  0  0  0  0  0  0  0  0  0
  -41.2477  -30.9383    1.8792 C   0  0  0  0  0  0  0  0  0  0  0  0
  -52.5444  -29.3263    6.5321 C   0  0  1  0  0  0  0  0  0  0  0  0
  -41.0372  -29.6811    3.9150 N   0  0  0  0  0  0  0  0  0  0  0  0
  -46.9776  -28.3626    0.9977 N   0  0  0  0  0  0  0  0  0  0  0  0
  -49.2740  -28.4578    1.0296 N   0  0  0  0  0  0  0  0  0  0  0  0
  -42.4573  -31.4926    3.8965 O   0  0  0  0  0  0  0  0  0  0  0  0
  -48.0738  -30.4233    1.2450 O   0  0  0  0  0  0  0  0  0  0  0  0
  -51.5037  -29.0759    7.4868 O   0  0  0  0  0  0  0  0  0  0  0  0
  -41.5988  -29.7881    1.1110 O   0  0  0  0  0  0  0  0  0  0  0  0
  -49.8359  -30.7882    3.0489 H   0  0  0  0  0  0  0  0  0  0  0  0
  -52.4598  -27.4598    2.2767 H   0  0  0  0  0  0  0  0  0  0  0  0
  -50.6713  -30.9089    5.3648 H   0  0  0  0  0  0  0  0  0  0  0  0
  -53.2972  -27.5822    4.5918 H   0  0  0  0  0  0  0  0  0  0  0  0
  -44.8984  -26.6980    0.7868 H   0  0  0  0  0  0  0  0  0  0  0  0
  -46.0050  -30.8354    1.2737 H   0  0  0  0  0  0  0  0  0  0  0  0
  -42.5162  -27.3327    0.8372 H   0  0  0  0  0  0  0  0  0  0  0  0
  -43.6214  -31.4649    1.3226 H   0  0  0  0  0  0  0  0  0  0  0  0
  -52.4560  -31.4971    6.7063 H   0  0  0  0  0  0  0  0  0  0  0  0
  -53.5003  -30.7178    7.9136 H   0  0  0  0  0  0  0  0  0  0  0  0
  -54.0579  -30.8686    6.2554 H   0  0  0  0  0  0  0  0  0  0  0  0
  -50.5318  -30.0424    0.6553 H   0  0  0  0  0  0  0  0  0  0  0  0
  -51.2521  -28.4430    0.4717 H   0  0  0  0  0  0  0  0  0  0  0  0
  -40.1676  -31.1011    1.8133 H   0  0  0  0  0  0  0  0  0  0  0  0
  -41.7662  -31.8071    1.4621 H   0  0  0  0  0  0  0  0  0  0  0  0
  -53.3061  -28.5488    6.7147 H   0  0  0  0  0  0  0  0  0  0  0  0
  -40.3807  -29.0902    3.4154 H   0  0  0  0  0  0  0  0  0  0  0  0
  -41.2196  -29.4414    4.8838 H   0  0  0  0  0  0  0  0  0  0  0  0
  -47.1754  -27.3710    0.8855 H   0  0  0  0  0  0  0  0  0  0  0  0
  -49.2031  -27.4460    0.9471 H   0  0  0  0  0  0  0  0  0  0  0  0
  -51.9186  -29.1432    8.3578 H   0  0  0  0  0  0  0  0  0  0  0  0
  1  3  2  0  0  0  0
  1  9  1  0  0  0  0
  2  4  1  0  0  0  0
  2  9  2  0  0  0  0
  3 10  1  0  0  0  0
  4 10  2  0  0  0  0
  5  7  2  0  0  0  0
  5 11  1  0  0  0  0
  6  8  1  0  0  0  0
  6 11  2  0  0  0  0
  7 12  1  0  0  0  0
  8 12  2  0  0  0  0
  9 16  1  0  0  0  0
 10 18  1  0  0  0  0
 11 20  1  0  0  0  0
 12 25  1  0  0  0  0
 13 17  1  0  0  0  0
 13 19  1  0  0  0  0
 13 22  2  0  0  0  0
 14 20  1  0  0  0  0
 14 21  1  0  0  0  0
 14 23  2  0  0  0  0
 15 18  1  0  0  0  0
 16 21  1  0  0  0  0
 17 25  1  0  0  0  0
 18 24  1  0  0  0  0
  1 26  1  0  0  0  0
  2 27  1  0  0  0  0
  3 28  1  0  0  0  0
  4 29  1  0  0  0  0
  5 30  1  0  0  0  0
  6 31  1  0  0  0  0
  7 32  1  0  0  0  0
  8 33  1  0  0  0  0
 15 34  1  0  0  0  0
 15 35  1  0  0  0  0
 15 36  1  0  0  0  0
 16 37  1  0  0  0  0
 16 38  1  0  0  0  0
 17 39  1  0  0  0  0
 17 40  1  0  0  0  0
 18 41  1  0  0  0  0
 19 42  1  0  0  0  0
 19 43  1  0  0  0  0
 20 44  1  0  0  0  0
 21 45  1  0  0  0  0
 24 46  1  0  0  0  0
M  END
> <POSIT::Probability>
0.02

> <POSIT::Method>
FRED

> <ReceptorTitle>
UCSF-P4609_LA2_MERGED(A)

> <OMEGA_C>
I19Kwn6q8MEgdVhAN0NQwpO94cEwuDxA6kNMwsk28cGMKJZA/ydSws9J4sGmSYhASYEywgfz3cHQ
tGc/J/w0wv6A8MGQp5Y/+xwtwpbP4MEw4W4/6Jcvwpld88HIPZo/CV9MwsLt6MFsqCBAFihQwpkG
6sFuMKRA23A2wjDM5cEQcoM/R6grwmSE68EQpoo/daImwqQQ9sGApVRAjltAwnqf6cEYYY0/Sa1U
wlh29cHkz9tA+1lKwmdY6MGo8Y0/sP0kwqaB98FgiPA/by1Swk6c6sFWB9FAJCYkwuVy7cHsj3pA
Euk7wojm4sFQa38/lRhFwpyp48HIyoM/U9QpwtDw+8GYX3lAmEtAwvJi88E4XZ8/1ANOwm6b6MG8
k+9AM2UmwvdN7sHINY4/AVhHwj5O9sHEIENA4tZRwrKt28FAthFAda9KwmRF98FirKtAXzBVwkio
3MFa8JJAAZgzwnOV1cEwaUk/FwU4wuau9sF4CaM/mhAqwkmp2sGgT1Y/SXwuwhO4+8HISqk/+tJR
wiT6+8E+mtZARABWwha+9cGQPP1ATjtYwvzy9sF0LMhAhCBKws9W8MFgxCc/IgJNwlaL48Fgh/E+
o6sgwgXP+MHQGeg/kRAnwt50/sFQJrs/bTlVwglk5MGq3tZAz4Uhwsu46MFollpA5uAkwgOI68HK
R5xAqLM8wt732sHwrmI/9c9EwlGR28EQdnI/qqxPwkQl6cF2uQVB

> <OMEGA_E>
3aNzwA==

> <OMEGA_NBR>
     22654

$$$$
CACHE3HI_1694_3
  -OEChem-03092622513D

 40 42  0     0  0  0  0  0  0999 V2000
  -49.1416  -27.8993    5.6708 C   0  0  0  0  0  0  0  0  0  0  0  0
  -49.0819  -28.2291    4.3248 C   0  0  0  0  0  0  0  0  0  0  0  0
  -45.5844  -31.3675    0.1456 C   0  0  0  0  0  0  0  0  0  0  0  0
  -46.1785  -32.8123    1.9887 C   0  0  0  0  0  0  0  0  0  0  0  0
  -44.5692  -30.8019    0.9170 C   0  0  0  0  0  0  0  0  0  0  0  0
  -45.1633  -32.2467    2.7601 C   0  0  0  0  0  0  0  0  0  0  0  0
  -48.0606  -28.1906    6.4994 C   0  0  0  0  0  0  0  0  0  0  0  0
  -47.9396  -28.8488    3.8204 C   0  0  0  0  0  0  0  0  0  0  0  0
  -46.3890  -32.3728    0.6816 C   0  0  0  0  0  0  0  0  0  0  0  0
  -44.3587  -31.2413    2.2241 C   0  0  0  0  0  0  0  0  0  0  0  0
  -46.9147  -28.8092    6.0051 C   0  0  0  0  0  0  0  0  0  0  0  0
  -46.8531  -29.1444    4.6401 C   0  0  0  0  0  0  0  0  0  0  0  0
  -44.8029  -29.6785    6.2948 C   0  0  0  0  0  0  0  0  0  0  0  0
  -44.7420  -30.0055    4.9659 C   0  0  0  0  0  0  0  0  0  0  0  0
  -47.7706  -34.4284    0.2027 C   0  0  0  0  0  0  0  0  0  0  0  0
  -47.4738  -32.9787   -0.1431 C   0  0  0  0  0  0  0  0  0  0  0  0
  -43.2660  -30.6315    3.0545 C   0  0  0  0  0  0  0  0  0  0  0  0
  -45.8843  -29.0804    6.8248 N   0  0  0  0  0  0  0  0  0  0  0  0
  -45.7624  -29.7419    4.1292 N   0  0  0  0  0  0  0  0  0  0  0  0
  -43.7108  -29.9705    7.1421 N   0  0  0  0  0  0  0  0  0  0  0  0
  -46.6971  -35.2623   -0.0292 N   0  0  0  0  0  0  0  0  0  0  0  0
  -43.5881  -30.6333    4.4465 N   0  0  0  0  0  0  0  0  0  0  0  0
  -48.8512  -34.8172    0.6375 O   0  0  0  0  0  0  0  0  0  0  0  0
  -50.0249  -27.4159    6.0765 H   0  0  0  0  0  0  0  0  0  0  0  0
  -49.9181  -28.0083    3.6684 H   0  0  0  0  0  0  0  0  0  0  0  0
  -45.7403  -31.0198   -0.8722 H   0  0  0  0  0  0  0  0  0  0  0  0
  -46.8014  -33.5942    2.4150 H   0  0  0  0  0  0  0  0  0  0  0  0
  -43.9469  -30.0192    0.4910 H   0  0  0  0  0  0  0  0  0  0  0  0
  -45.0063  -32.5955    3.7773 H   0  0  0  0  0  0  0  0  0  0  0  0
  -48.1220  -27.9260    7.5533 H   0  0  0  0  0  0  0  0  0  0  0  0
  -47.9059  -29.1037    2.7631 H   0  0  0  0  0  0  0  0  0  0  0  0
  -47.2147  -32.9257   -1.2136 H   0  0  0  0  0  0  0  0  0  0  0  0
  -48.4092  -32.4056   -0.0318 H   0  0  0  0  0  0  0  0  0  0  0  0
  -42.3289  -31.1828    2.9242 H   0  0  0  0  0  0  0  0  0  0  0  0
  -43.0778  -29.5949    2.7560 H   0  0  0  0  0  0  0  0  0  0  0  0
  -42.9256  -30.4620    6.7690 H   0  0  0  0  0  0  0  0  0  0  0  0
  -43.7886  -29.7754    8.1184 H   0  0  0  0  0  0  0  0  0  0  0  0
  -45.8325  -34.8750   -0.3935 H   0  0  0  0  0  0  0  0  0  0  0  0
  -46.7590  -36.2580    0.1592 H   0  0  0  0  0  0  0  0  0  0  0  0
  -42.9888  -31.0918    5.1048 H   0  0  0  0  0  0  0  0  0  0  0  0
  1  2  1  0  0  0  0
  1  7  2  0  0  0  0
  2  8  2  0  0  0  0
  3  5  2  0  0  0  0
  3  9  1  0  0  0  0
  4  6  1  0  0  0  0
  4  9  2  0  0  0  0
  5 10  1  0  0  0  0
  6 10  2  0  0  0  0
  7 11  1  0  0  0  0
  8 12  1  0  0  0  0
  9 16  1  0  0  0  0
 10 17  1  0  0  0  0
 11 12  1  0  0  0  0
 11 18  2  0  0  0  0
 12 19  2  0  0  0  0
 13 14  2  0  0  0  0
 13 18  1  0  0  0  0
 13 20  1  0  0  0  0
 14 19  1  0  0  0  0
 14 22  1  0  0  0  0
 15 16  1  0  0  0  0
 15 21  1  0  0  0  0
 15 23  2  0  0  0  0
 17 22  1  0  0  0  0
  1 24  1  0  0  0  0
  2 25  1  0  0  0  0
  3 26  1  0  0  0  0
  4 27  1  0  0  0  0
  5 28  1  0  0  0  0
  6 29  1  0  0  0  0
  7 30  1  0  0  0  0
  8 31  1  0  0  0  0
 16 32  1  0  0  0  0
 16 33  1  0  0  0  0
 17 34  1  0  0  0  0
 17 35  1  0  0  0  0
 20 36  1  0  0  0  0
 20 37  1  0  0  0  0
 21 38  1  0  0  0  0
 21 39  1  0  0  0  0
 22 40  1  0  0  0  0
M  END
> <POSIT::Probability>
0.23

> <POSIT::Method>
HYBRID

> <ReceptorTitle>
UCSF-P4609-REFINED_LIGAND-BOUND-STATE_AALTB__DU__LA1_A-201(A)

> <OMEGA_C>
BpFEwqox38FKd7VA31NEwjHV4cGYZIpAdlY2worw+sEgEBU+xLY4wsk/A8Jcjf4/1kYywjtq9sEg
v2o/L6c0wqz8AMJspTBADj5Awk2G4cFZ+89AK8I/wmvK5sFWgXRAVY45wsx9AcL4ei4/RW8xwjbu
+cG0Vw5AtKg7wjR55sG9KcBAlWk7wrAn6cGFe5RALjYzwpVt7cHsbslAzvcywi0L8MEG6Z5AIxU/
wq22CcJAi08+M+U9wi/qA8IgkxK+YhAtwkQN9cF5fUNAeok3wqak6MGmZNpAuww3wmDv7cFkIoRA
4NcuwqfD78H0i+RA2ck6wqEMDcIAEO+8PlouwvgQ9cHoSY5AqWdDwtFEC8LYMiM/iRlIwslT28Fj
csJAKaxHwhYR4MG8x2pAEvY2wpIo+MFgSV+/qjQ7wnBgBsKjjxpAlckvwlkn8MEwYvs+bAY0wtBh
AsLtv3FA9XxAwlxo38HAtPFAqJ8/wmDU6MG71jBA09s8wvCzA8LUVpu/DaNBwlifAcIAZAK9wVAp
wlN2+cGyJTtAr08swmTC7MGKYTBA07Mrwhay88FHm9hAjScvwhI07sHc5AFBeFQ3wgaAC8LgdMm+
MQk7wjIIEcKA/SI+gvQrwge8+MF6WqNA

> <OMEGA_E>
aAgUwQ==

> <OMEGA_NBR>
     23954

$$$$
CACHE3HI_1694_31
  -OEChem-03092622513D

 37 38  0     0  0  0  0  0  0999 V2000
  -44.8670  -32.4737    1.6079 C   0  0  0  0  0  0  0  0  0  0  0  0
  -44.7703  -31.9733    2.9260 C   0  0  0  0  0  0  0  0  0  0  0  0
  -46.4201  -29.3000    3.8858 C   0  0  0  0  0  0  0  0  0  0  0  0
  -47.6934  -28.7825    3.6641 C   0  0  0  0  0  0  0  0  0  0  0  0
  -43.0631  -30.4042    2.1920 C   0  0  0  0  0  0  0  0  0  0  0  0
  -46.8686  -29.1950    6.2655 C   0  0  0  0  0  0  0  0  0  0  0  0
  -44.0377  -31.9634    0.5732 C   0  0  0  0  0  0  0  0  0  0  0  0
  -43.8576  -30.9336    3.2230 C   0  0  0  0  0  0  0  0  0  0  0  0
  -46.0170  -29.5780    5.2064 C   0  0  0  0  0  0  0  0  0  0  0  0
  -43.1503  -30.8957    0.8806 C   0  0  0  0  0  0  0  0  0  0  0  0
  -48.5354  -28.5117    4.7623 C   0  0  0  0  0  0  0  0  0  0  0  0
  -44.1080  -32.5649   -0.7927 C   0  0  0  0  0  0  0  0  0  0  0  0
  -45.1784  -33.9844   -2.3892 C   0  0  0  0  0  0  0  0  0  0  0  0
  -50.5869  -28.7957    2.8573 C   0  0  0  0  0  0  0  0  0  0  0  0
  -43.6455  -30.3869    4.6364 C   0  0  0  0  0  0  0  0  0  0  0  0
  -48.0955  -28.6699    6.0345 N   0  0  0  0  0  0  0  0  0  0  0  0
  -44.8436  -30.2711    5.5127 N   0  0  0  0  0  0  0  0  0  0  0  0
  -43.2321  -32.3177   -1.6195 O   0  0  0  0  0  0  0  0  0  0  0  0
  -42.3740  -30.3024   -0.0656 O   0  0  0  0  0  0  0  0  0  0  0  0
  -45.1479  -33.4170   -1.0587 O   0  0  0  0  0  0  0  0  0  0  0  0
  -50.2069  -28.0418    4.4967 S   0  0  0  0  0  0  0  0  0  0  0  0
  -45.5799  -33.2535    1.3844 H   0  0  0  0  0  0  0  0  0  0  0  0
  -45.3931  -32.3845    3.7067 H   0  0  0  0  0  0  0  0  0  0  0  0
  -45.7517  -29.4854    3.0580 H   0  0  0  0  0  0  0  0  0  0  0  0
  -48.0341  -28.5896    2.6575 H   0  0  0  0  0  0  0  0  0  0  0  0
  -42.3723  -29.6039    2.4131 H   0  0  0  0  0  0  0  0  0  0  0  0
  -46.5337  -29.3237    7.2842 H   0  0  0  0  0  0  0  0  0  0  0  0
  -46.0509  -34.6473   -2.4857 H   0  0  0  0  0  0  0  0  0  0  0  0
  -45.2489  -33.1754   -3.1311 H   0  0  0  0  0  0  0  0  0  0  0  0
  -44.2584  -34.5618   -2.5626 H   0  0  0  0  0  0  0  0  0  0  0  0
  -51.6259  -28.5652    2.5792 H   0  0  0  0  0  0  0  0  0  0  0  0
  -49.9046  -28.3854    2.0982 H   0  0  0  0  0  0  0  0  0  0  0  0
  -50.4566  -29.8863    2.9163 H   0  0  0  0  0  0  0  0  0  0  0  0
  -42.9291  -31.0505    5.1428 H   0  0  0  0  0  0  0  0  0  0  0  0
  -43.2091  -29.3819    4.5395 H   0  0  0  0  0  0  0  0  0  0  0  0
  -44.5098  -29.8608    6.3613 H   0  0  0  0  0  0  0  0  0  0  0  0
  -42.4257  -30.7979   -0.8745 H   0  0  0  0  0  0  0  0  0  0  0  0
  1  2  2  0  0  0  0
  1  7  1  0  0  0  0
  2  8  1  0  0  0  0
  3  4  2  0  0  0  0
  3  9  1  0  0  0  0
  4 11  1  0  0  0  0
  5  8  2  0  0  0  0
  5 10  1  0  0  0  0
  6  9  2  0  0  0  0
  6 16  1  0  0  0  0
  7 10  2  0  0  0  0
  7 12  1  0  0  0  0
  8 15  1  0  0  0  0
  9 17  1  0  0  0  0
 10 19  1  0  0  0  0
 11 16  2  0  0  0  0
 11 21  1  0  0  0  0
 12 18  2  0  0  0  0
 12 20  1  0  0  0  0
 13 20  1  0  0  0  0
 14 21  1  0  0  0  0
 15 17  1  0  0  0  0
  1 22  1  0  0  0  0
  2 23  1  0  0  0  0
  3 24  1  0  0  0  0
  4 25  1  0  0  0  0
  5 26  1  0  0  0  0
  6 27  1  0  0  0  0
 13 28  1  0  0  0  0
 13 29  1  0  0  0  0
 13 30  1  0  0  0  0
 14 31  1  0  0  0  0
 14 32  1  0  0  0  0
 14 33  1  0  0  0  0
 15 34  1  0  0  0  0
 15 35  1  0  0  0  0
 17 36  1  0  0  0  0
 19 37  1  0  0  0  0
M  END
> <POSIT::Probability>
0.2

> <POSIT::Method>
SHAPEFIT

> <ReceptorTitle>
UCSF-P4609-REFINED_LIGAND-BOUND-STATE_AALTB__DU__LA1_A-201(A)

> <OMEGA_C>
zXczwhLlAcL80M0/yxQzwlfJ/8FAQztAKK45wmZm6sFysXhADsY+woFC5sHGgGpAl0AswrM788FY
SgxAfHk7wkuP6cEtf8hAnyYwwgO1/8FgvxI/L24vwgN498EiRk5AZhE4wsOf7MHKmqZA75kswl0q
98GccWE/MyRCwgsY5MEpZZhAlW4wwnhCAsIo7Eq/ubY0wgrwB8Iy6BjA/VhKwodd5sHS3TZA95Qu
wnIY88E9XZRAymFAwg5c5cF7GsFA2V8zwkYr8sHlZ7BAte0swlJFAcIFS8+/9H4pwllr8sFAXoa9
fZc0wgCrBcLggoe/0tNIwrBV4MEq5Y9A2lE2wqADBcIFNLE/iJI1wraJAcL8OW1AxgE3wh7i68Hi
tUNA5CJAwpa35MFDFSpAQn0pws/U7MF2cBpAgCI6wgOX6sHiF+lAIjQ4wuGWCsIQFh/A5f40wpyz
BMK3ZEjAlQgxwlM/CsI1ASTA7IBOwn+F5MHjECVAWZ5HwlEV48ERSQZAi9NJwjIX78GZpDpAW7cr
wlpn+MH+kaRAF9YswhEO68FBQ5FAFgoywtji7sEOkMtA6bMpwhNi9sF04F+/

> <OMEGA_E>
LtecPw==

> <OMEGA_NBR>
     25214

$$$$
CACHE3HI_1694_35
  -OEChem-03092622513D

 40 42  0     0  0  0  0  0  0999 V2000
  -49.2673  -28.6655    5.4566 C   0  0  0  0  0  0  0  0  0  0  0  0
  -49.0513  -28.9065    4.1077 C   0  0  0  0  0  0  0  0  0  0  0  0
  -44.2385  -33.3132   -0.5992 C   0  0  0  0  0  0  0  0  0  0  0  0
  -43.3041  -32.3191   -0.3087 C   0  0  0  0  0  0  0  0  0  0  0  0
  -48.1939  -28.7055    6.3434 C   0  0  0  0  0  0  0  0  0  0  0  0
  -47.7616  -29.1865    3.6588 C   0  0  0  0  0  0  0  0  0  0  0  0
  -45.5451  -33.2017   -0.1240 C   0  0  0  0  0  0  0  0  0  0  0  0
  -44.9828  -31.1023    0.9319 C   0  0  0  0  0  0  0  0  0  0  0  0
  -43.6762  -31.2138    0.4567 C   0  0  0  0  0  0  0  0  0  0  0  0
  -46.9016  -28.9839    5.9047 C   0  0  0  0  0  0  0  0  0  0  0  0
  -46.6814  -29.2288    4.5369 C   0  0  0  0  0  0  0  0  0  0  0  0
  -45.9172  -32.0964    0.6414 C   0  0  0  0  0  0  0  0  0  0  0  0
  -44.6550  -29.2908    6.3023 C   0  0  0  0  0  0  0  0  0  0  0  0
  -44.4395  -29.5296    4.9707 C   0  0  0  0  0  0  0  0  0  0  0  0
  -42.6657  -30.1393    0.7702 C   0  0  0  0  0  0  0  0  0  0  0  0
  -42.9561  -29.4626    2.1123 C   0  0  0  0  0  0  0  0  0  0  0  0
  -42.8818  -30.4663    3.2620 C   0  0  0  0  0  0  0  0  0  0  0  0
  -45.8817  -29.0172    6.7800 N   0  0  0  0  0  0  0  0  0  0  0  0
  -45.4468  -29.5003    4.0789 N   0  0  0  0  0  0  0  0  0  0  0  0
  -43.5718  -29.3296    7.2084 N   0  0  0  0  0  0  0  0  0  0  0  0
  -43.1357  -29.8136    4.5073 N   0  0  0  0  0  0  0  0  0  0  0  0
  -47.1924  -31.9873    1.1044 O   0  0  0  0  0  0  0  0  0  0  0  0
  -50.2665  -28.4458    5.8194 H   0  0  0  0  0  0  0  0  0  0  0  0
  -49.8796  -28.8793    3.4062 H   0  0  0  0  0  0  0  0  0  0  0  0
  -43.9487  -34.1737   -1.1949 H   0  0  0  0  0  0  0  0  0  0  0  0
  -42.2881  -32.4137   -0.6828 H   0  0  0  0  0  0  0  0  0  0  0  0
  -48.3788  -28.5145    7.3987 H   0  0  0  0  0  0  0  0  0  0  0  0
  -47.6058  -29.3751    2.5985 H   0  0  0  0  0  0  0  0  0  0  0  0
  -46.2688  -33.9791   -0.3535 H   0  0  0  0  0  0  0  0  0  0  0  0
  -45.2762  -30.2421    1.5289 H   0  0  0  0  0  0  0  0  0  0  0  0
  -41.6598  -30.5772    0.7771 H   0  0  0  0  0  0  0  0  0  0  0  0
  -42.6647  -29.3953   -0.0362 H   0  0  0  0  0  0  0  0  0  0  0  0
  -43.9515  -29.0003    2.0861 H   0  0  0  0  0  0  0  0  0  0  0  0
  -42.2363  -28.6510    2.2819 H   0  0  0  0  0  0  0  0  0  0  0  0
  -43.6160  -31.2656    3.1148 H   0  0  0  0  0  0  0  0  0  0  0  0
  -41.8888  -30.9265    3.2965 H   0  0  0  0  0  0  0  0  0  0  0  0
  -42.6668  -29.5839    6.8715 H   0  0  0  0  0  0  0  0  0  0  0  0
  -43.7502  -29.2062    8.1832 H   0  0  0  0  0  0  0  0  0  0  0  0
  -42.3763  -29.5348    5.0975 H   0  0  0  0  0  0  0  0  0  0  0  0
  -47.7021  -32.7634    0.8082 H   0  0  0  0  0  0  0  0  0  0  0  0
  1  2  1  0  0  0  0
  1  5  2  0  0  0  0
  2  6  2  0  0  0  0
  3  4  2  0  0  0  0
  3  7  1  0  0  0  0
  4  9  1  0  0  0  0
  5 10  1  0  0  0  0
  6 11  1  0  0  0  0
  7 12  2  0  0  0  0
  8  9  2  0  0  0  0
  8 12  1  0  0  0  0
  9 15  1  0  0  0  0
 10 11  1  0  0  0  0
 10 18  2  0  0  0  0
 11 19  2  0  0  0  0
 12 22  1  0  0  0  0
 13 14  2  0  0  0  0
 13 18  1  0  0  0  0
 13 20  1  0  0  0  0
 14 19  1  0  0  0  0
 14 21  1  0  0  0  0
 15 16  1  0  0  0  0
 16 17  1  0  0  0  0
 17 21  1  0  0  0  0
  1 23  1  0  0  0  0
  2 24  1  0  0  0  0
  3 25  1  0  0  0  0
  4 26  1  0  0  0  0
  5 27  1  0  0  0  0
  6 28  1  0  0  0  0
  7 29  1  0  0  0  0
  8 30  1  0  0  0  0
 15 31  1  0  0  0  0
 15 32  1  0  0  0  0
 16 33  1  0  0  0  0
 16 34  1  0  0  0  0
 17 35  1  0  0  0  0
 17 36  1  0  0  0  0
 20 37  1  0  0  0  0
 20 38  1  0  0  0  0
 21 39  1  0  0  0  0
 22 40  1  0  0  0  0
M  END
> <POSIT::Probability>
0.42

> <POSIT::Method>
HYBRID

> <ReceptorTitle>
UCSF-P4609_LA2_MERGED(A)

> <OMEGA_C>
sxFFwudS5cETnK5AiTREwpBA58E7coNAO/QwwrVABcLQZRm/ZDctwslGAcIwCJ6+lcZAwvWk5cHG
/MpA2gs/wtx96cFWKWpAKy42wpDOBMLA5P29Y+4zwojR+MEokm4/YbQuwsa1+cHA0Ok+P5s7whTf
58F687xAtbk6woDU6cEpLpFAKqs3wqpiAMLgLyQ/t54ywqJT6sFirMlAGMIxwow87MFQEJ9AuKkq
wjAd8cFQKUU/DtMrwlqz68GoMAdA+YYrwhS788EuxFBA44Y3wkMj6MG+9dhAi8k1wocA7MEMhoJA
hUkuwvqi6sFLq+ZA/YoswkuC7sHyO5BACMU8wuTl/8HYXI0/6hBJwu+Q48GCOLpArIRHwr0I58Hy
/1lAfcsvwtKxCMKI85i//iYpwqunAcIYyy6/7YNBwp8d5ME0wuxATGw+wj8A68GgTiZAQRM5wo3q
B8KA/LS+1ho1wsrv8cEgs8M/mqMmwgSe9MGw8UY/pqgqwpUp68GAHhS9Ys4vwqkA6MGCggVAAPIo
wjs15cGMChJAzHYuwgQg+sHWWEdAJ44nwnRp98F++lJAx6oqwtqr7ME149tANQAvwmGm6cFk7gJB
TIEpwlhH7MF3HqNAAM8+wq8NA8J46U4/

> <OMEGA_E>
ZOkZwQ==

> <OMEGA_NBR>
     26445

$$$$
CACHE3HI_1694_36
  -OEChem-03092622513D

 38 40  0     0  0  0  0  0  0999 V2000
  -46.3430  -29.8554    1.0068 C   0  0  0  0  0  0  0  0  0  0  0  0
  -46.6468  -29.1805    2.1891 C   0  0  0  0  0  0  0  0  0  0  0  0
  -42.9812  -32.5482   -0.7579 C   0  0  0  0  0  0  0  0  0  0  0  0
  -46.5395  -31.2336    0.9209 C   0  0  0  0  0  0  0  0  0  0  0  0
  -43.8096  -33.3383   -1.5548 C   0  0  0  0  0  0  0  0  0  0  0  0
  -47.3438  -31.2618    3.1992 C   0  0  0  0  0  0  0  0  0  0  0  0
  -44.5638  -32.7235    1.0592 C   0  0  0  0  0  0  0  0  0  0  0  0
  -47.8909  -27.8673    4.7340 C   0  0  0  0  0  0  0  0  0  0  0  0
  -47.3767  -29.7458    5.7540 C   0  0  0  0  0  0  0  0  0  0  0  0
  -47.1473  -29.8836    3.2852 C   0  0  0  0  0  0  0  0  0  0  0  0
  -47.4599  -29.1872    4.5017 C   0  0  0  0  0  0  0  0  0  0  0  0
  -43.3585  -32.2407    0.5492 C   0  0  0  0  0  0  0  0  0  0  0  0
  -47.0399  -31.9366    2.0169 C   0  0  0  0  0  0  0  0  0  0  0  0
  -45.3923  -33.5136    0.2624 C   0  0  0  0  0  0  0  0  0  0  0  0
  -45.0149  -33.8211   -1.0448 C   0  0  0  0  0  0  0  0  0  0  0  0
  -42.4953  -31.4162    1.3800 C   0  0  0  0  0  0  0  0  0  0  0  0
  -47.2510  -33.4101    1.9233 C   0  0  0  0  0  0  0  0  0  0  0  0
  -48.0692  -27.6034    6.0311 N   0  0  0  0  0  0  0  0  0  0  0  0
  -47.7486  -28.7650    6.6258 N   0  0  0  0  0  0  0  0  0  0  0  0
  -46.5881  -33.9871    0.7819 N   0  0  0  0  0  0  0  0  0  0  0  0
  -41.4108  -30.9371    1.0317 O   0  0  0  0  0  0  0  0  0  0  0  0
  -45.8090  -34.5920   -1.8403 O   0  0  0  0  0  0  0  0  0  0  0  0
  -43.0099  -31.2118    2.6234 O   0  0  0  0  0  0  0  0  0  0  0  0
  -45.9530  -29.3082    0.1537 H   0  0  0  0  0  0  0  0  0  0  0  0
  -46.4877  -28.1063    2.2405 H   0  0  0  0  0  0  0  0  0  0  0  0
  -42.0443  -32.1762   -1.1651 H   0  0  0  0  0  0  0  0  0  0  0  0
  -46.3000  -31.7515   -0.0041 H   0  0  0  0  0  0  0  0  0  0  0  0
  -43.5097  -33.5744   -2.5722 H   0  0  0  0  0  0  0  0  0  0  0  0
  -47.7343  -31.8161    4.0503 H   0  0  0  0  0  0  0  0  0  0  0  0
  -44.8570  -32.4823    2.0789 H   0  0  0  0  0  0  0  0  0  0  0  0
  -48.0830  -27.0833    4.0146 H   0  0  0  0  0  0  0  0  0  0  0  0
  -47.0908  -30.7288    6.1018 H   0  0  0  0  0  0  0  0  0  0  0  0
  -46.8723  -33.9223    2.8185 H   0  0  0  0  0  0  0  0  0  0  0  0
  -48.3178  -33.6602    1.8427 H   0  0  0  0  0  0  0  0  0  0  0  0
  -47.8053  -28.8183    7.6352 H   0  0  0  0  0  0  0  0  0  0  0  0
  -47.0187  -34.7877    0.3293 H   0  0  0  0  0  0  0  0  0  0  0  0
  -45.3780  -34.6936   -2.7079 H   0  0  0  0  0  0  0  0  0  0  0  0
  -42.4350  -30.6560    3.1922 H   0  0  0  0  0  0  0  0  0  0  0  0
  1  2  2  0  0  0  0
  1  4  1  0  0  0  0
  2 10  1  0  0  0  0
  3  5  2  0  0  0  0
  3 12  1  0  0  0  0
  4 13  2  0  0  0  0
  5 15  1  0  0  0  0
  6 10  2  0  0  0  0
  6 13  1  0  0  0  0
  7 12  2  0  0  0  0
  7 14  1  0  0  0  0
  8 11  1  0  0  0  0
  8 18  2  0  0  0  0
  9 11  2  0  0  0  0
  9 19  1  0  0  0  0
 10 11  1  0  0  0  0
 12 16  1  0  0  0  0
 13 17  1  0  0  0  0
 14 15  2  0  0  0  0
 14 20  1  0  0  0  0
 15 22  1  0  0  0  0
 16 21  2  0  0  0  0
 16 23  1  0  0  0  0
 17 20  1  0  0  0  0
 18 19  1  0  0  0  0
  1 24  1  0  0  0  0
  2 25  1  0  0  0  0
  3 26  1  0  0  0  0
  4 27  1  0  0  0  0
  5 28  1  0  0  0  0
  6 29  1  0  0  0  0
  7 30  1  0  0  0  0
  8 31  1  0  0  0  0
  9 32  1  0  0  0  0
 17 33  1  0  0  0  0
 17 34  1  0  0  0  0
 19 35  1  0  0  0  0
 20 36  1  0  0  0  0
 22 37  1  0  0  0  0
 23 38  1  0  0  0  0
M  END
> <POSIT::Probability>
0.18

> <POSIT::Method>
HYBRID

> <ReceptorTitle>
UCSF-P4609-REFINED_LIGAND-BOUND-STATE_AALTB__DU__LA1_A-201(A)

> <OMEGA_C>
NV85wuLX7sH43oA/WZY6wsJx6cEIGwxAvuwrwlAxAsLAB0K/aSg6wnLe+cFAvms/Dz0vwmlaBcJE
Bce/A2A9wjkY+sE4wExAXUEywtPkAsLIlIc/VJA/wjTw3sG6fJdAyYE9wlP37cHQILhA0JY8wowR
78GUQFJA+dY9wmZ/6cFPDpBAIm8twnX2AMKQlgw/3yg8wjx+/8EcFQFArpE1wuYNBsKgVIY+Sw80
wshIB8K8u4W/J/spwnRU+8HYo7A/+gA9wvejBcJQLfY/6EZAwtzT3MF4/sBAkf4+wtIe5sHiBtRA
Llo6wsLyB8JQKUg/sKQlwkd/98EoDoQ/bjw3wjdeCsJgj+u/Hgoswr6x+cEE5SdA0883wip36sHg
WR0+XvM5wp/Z4MFcZA9AUi0owni0AMKgIZW/OzM5wg4D/sEAwIS78QkuwjZMBsIgnyTA4O8+wl+H
/sFInIFAj20zwuftAcLoDAVAClVAwpuq2MGXd4BA/Vw8wqPU9cHwQcNAOn07wnSwB8K0YjRAdUVB
wgikBsJ43es/mjg/wuuL5sE1U/RALxM8wpUmC8JAmKg+H4M1wkDGCsK8TS3AZr0pwnQ/9cGuTUxA

> <OMEGA_E>
ZIfywA==

> <OMEGA_NBR>
     27708

$$$$
CACHE3HI_1694_39
  -OEChem-03092622513D

 33 34  0     0  0  0  0  0  0999 V2000
  -47.1235  -31.8360    0.4912 C   0  0  0  0  0  0  0  0  0  0  0  0
  -48.2033  -31.3780    1.2461 C   0  0  0  0  0  0  0  0  0  0  0  0
  -46.8216  -29.2291    4.1059 C   0  0  0  0  0  0  0  0  0  0  0  0
  -45.5890  -28.6869    4.4523 C   0  0  0  0  0  0  0  0  0  0  0  0
  -46.8810  -31.5745    3.2587 C   0  0  0  0  0  0  0  0  0  0  0  0
  -47.1344  -29.8403    6.3832 C   0  0  0  0  0  0  0  0  0  0  0  0
  -45.9223  -32.1632    1.1203 C   0  0  0  0  0  0  0  0  0  0  0  0
  -48.0822  -31.2474    2.6297 C   0  0  0  0  0  0  0  0  0  0  0  0
  -47.6153  -29.8186    5.0835 C   0  0  0  0  0  0  0  0  0  0  0  0
  -45.8013  -32.0326    2.5039 C   0  0  0  0  0  0  0  0  0  0  0  0
  -45.1986  -28.7590    5.7798 C   0  0  0  0  0  0  0  0  0  0  0  0
  -44.8069  -32.6385    0.3138 C   0  0  0  0  0  0  0  0  0  0  0  0
  -42.5529  -32.1840   -0.3142 C   0  0  0  0  0  0  0  0  0  0  0  0
  -49.2369  -30.7564    3.4357 C   0  0  0  0  0  0  0  0  0  0  0  0
  -45.9423  -29.3237    6.7572 N   0  0  0  0  0  0  0  0  0  0  0  0
  -48.8495  -30.3672    4.7675 N   0  0  0  0  0  0  0  0  0  0  0  0
  -44.8381  -33.6544   -0.3912 O   0  0  0  0  0  0  0  0  0  0  0  0
  -44.6359  -32.3478    3.1365 O   0  0  0  0  0  0  0  0  0  0  0  0
  -43.7179  -31.8201    0.4337 O   0  0  0  0  0  0  0  0  0  0  0  0
  -44.0116  -28.2386    6.1278 F   0  0  0  0  0  0  0  0  0  0  0  0
  -47.2299  -31.9343   -0.5861 H   0  0  0  0  0  0  0  0  0  0  0  0
  -49.1353  -31.1250    0.7476 H   0  0  0  0  0  0  0  0  0  0  0  0
  -47.1539  -29.1864    3.0721 H   0  0  0  0  0  0  0  0  0  0  0  0
  -44.9532  -28.2231    3.7070 H   0  0  0  0  0  0  0  0  0  0  0  0
  -46.7841  -31.4731    4.3370 H   0  0  0  0  0  0  0  0  0  0  0  0
  -47.7083  -30.2863    7.1899 H   0  0  0  0  0  0  0  0  0  0  0  0
  -41.7593  -31.4545   -0.1327 H   0  0  0  0  0  0  0  0  0  0  0  0
  -42.2172  -33.1723    0.0090 H   0  0  0  0  0  0  0  0  0  0  0  0
  -42.7972  -32.2151   -1.3785 H   0  0  0  0  0  0  0  0  0  0  0  0
  -49.7093  -29.8850    2.9616 H   0  0  0  0  0  0  0  0  0  0  0  0
  -50.0162  -31.5249    3.5335 H   0  0  0  0  0  0  0  0  0  0  0  0
  -49.5171  -30.5006    5.5210 H   0  0  0  0  0  0  0  0  0  0  0  0
  -43.9904  -32.6480    2.4718 H   0  0  0  0  0  0  0  0  0  0  0  0
  1  2  2  0  0  0  0
  1  7  1  0  0  0  0
  2  8  1  0  0  0  0
  3  4  2  0  0  0  0
  3  9  1  0  0  0  0
  4 11  1  0  0  0  0
  5  8  2  0  0  0  0
  5 10  1  0  0  0  0
  6  9  2  0  0  0  0
  6 15  1  0  0  0  0
  7 10  2  0  0  0  0
  7 12  1  0  0  0  0
  8 14  1  0  0  0  0
  9 16  1  0  0  0  0
 10 18  1  0  0  0  0
 11 15  2  0  0  0  0
 11 20  1  0  0  0  0
 12 17  2  0  0  0  0
 12 19  1  0  0  0  0
 13 19  1  0  0  0  0
 14 16  1  0  0  0  0
  1 21  1  0  0  0  0
  2 22  1  0  0  0  0
  3 23  1  0  0  0  0
  4 24  1  0  0  0  0
  5 25  1  0  0  0  0
  6 26  1  0  0  0  0
 13 27  1  0  0  0  0
 13 28  1  0  0  0  0
 13 29  1  0  0  0  0
 14 30  1  0  0  0  0
 14 31  1  0  0  0  0
 16 32  1  0  0  0  0
 18 33  1  0  0  0  0
M  END
> <POSIT::Probability>
0.14

> <POSIT::Method>
HYBRID

> <ReceptorTitle>
UCSF-P4609_LA2_MERGED(A)

> <OMEGA_C>
cH48wjqw/sEwgvs+MNBAwiYG+8GsgJ8/UUk7wiTV6cFyY4NAKFs2wt5+5cEjeY5ALoY7wqWY/MFC
j1BAook8wtq47sHwQsxAfLA3whynAMJsZY8/MlRAwp76+cHMTChAHnY+wnqM7sG5q6JAfDQ3wlgh
AMIsPyBAaMs0wm4S5sG987hAOjozwsqNAsLQqKA+LjYqwnC8AMLg2KC+lvJEwjIN9sFA41tA7cQ3
wu+W6sFSO9hA52VDwgHw8sFnj5hAPVozwiaeBsLgSMi+K4sywixkAcIEvUhAKd8uwnqP/sGAD94+
7Qswwpjo4cENF8RAYOs8woh5/8HACRa/j4pEwgkA+cG4Yj8/op08wsp96cGUnERACtAzwv7I4cEP
P21A5CI7wvDI+8GhyIpATtU+wlxK8sHwE+ZAjwknwtui+8GA4Ae+Yd4ownawBMIA0hM8VjArwkPc
AMKYcbC/UNZGwnoU78Fwiz1AjxBIwgkz/MGKJGJAhBFGwjAB9MEmrLBAMfYvwpqXAsJYMR5A

> <OMEGA_E>
6VywwA==

> <OMEGA_NBR>
     28792

$$$$
CACHE3HI_1694_40
  -OEChem-03092622513D

 43 44  0     1  0  0  0  0  0999 V2000
  -45.0945  -32.7478    0.5092 C   0  0  0  0  0  0  0  0  0  0  0  0
  -44.7061  -33.1906   -0.7552 C   0  0  0  0  0  0  0  0  0  0  0  0
  -47.1095  -34.0718    0.3527 C   0  0  0  0  0  0  0  0  0  0  0  0
  -44.5589  -29.3597    5.8992 C   0  0  0  0  0  0  0  0  0  0  0  0
  -46.2964  -33.1884    1.0631 C   0  0  0  0  0  0  0  0  0  0  0  0
  -45.5192  -34.0740   -1.4655 C   0  0  0  0  0  0  0  0  0  0  0  0
  -46.7211  -34.5146   -0.9116 C   0  0  0  0  0  0  0  0  0  0  0  0
  -46.7775  -29.1322    4.4037 C   0  0  0  0  0  0  0  0  0  0  0  0
  -46.7563  -28.7981    5.7423 C   0  0  0  0  0  0  0  0  0  0  0  0
  -45.5848  -29.5910    3.8834 C   0  0  0  0  0  0  0  0  0  0  0  0
  -47.9980  -28.2921    6.3965 C   0  0  0  0  0  0  0  0  0  0  0  0
  -43.8866  -34.0006   -3.1936 C   0  0  0  0  0  0  0  0  0  0  0  0
  -46.7162  -32.7086    2.4317 C   0  0  0  0  0  0  0  0  0  0  0  0
  -46.7661  -30.2467    1.7861 C   0  0  0  0  0  0  0  0  0  0  0  0
  -48.8878  -31.5986    1.6425 C   0  0  0  0  0  0  0  0  0  0  0  0
  -47.5646  -31.4137    2.4083 C   0  0  1  0  0  0  0  0  0  0  0  0
  -45.6604  -28.8998    6.5229 N   0  0  0  0  0  0  0  0  0  0  0  0
  -44.4516  -29.7175    4.6050 N   0  0  0  0  0  0  0  0  0  0  0  0
  -45.5622  -29.9357    2.5511 N   0  0  0  0  0  0  0  0  0  0  0  0
  -47.5227  -35.3779   -1.5951 O   0  0  0  0  0  0  0  0  0  0  0  0
  -49.6747  -32.6250    2.2304 O   0  0  0  0  0  0  0  0  0  0  0  0
  -45.1289  -34.4984   -2.6998 O   0  0  0  0  0  0  0  0  0  0  0  0
  -47.8852  -29.0175    3.6618 F   0  0  0  0  0  0  0  0  0  0  0  0
  -44.4545  -32.0602    1.0556 H   0  0  0  0  0  0  0  0  0  0  0  0
  -43.7685  -32.8439   -1.1816 H   0  0  0  0  0  0  0  0  0  0  0  0
  -48.0466  -34.4167    0.7828 H   0  0  0  0  0  0  0  0  0  0  0  0
  -43.6640  -29.4515    6.5024 H   0  0  0  0  0  0  0  0  0  0  0  0
  -48.5920  -29.1152    6.8146 H   0  0  0  0  0  0  0  0  0  0  0  0
  -48.6415  -27.7686    5.6774 H   0  0  0  0  0  0  0  0  0  0  0  0
  -47.7461  -27.5980    7.2076 H   0  0  0  0  0  0  0  0  0  0  0  0
  -43.6946  -34.4167   -4.1860 H   0  0  0  0  0  0  0  0  0  0  0  0
  -43.9417  -32.9115   -3.2620 H   0  0  0  0  0  0  0  0  0  0  0  0
  -43.0830  -34.2799   -2.5083 H   0  0  0  0  0  0  0  0  0  0  0  0
  -45.8308  -32.5678    3.0651 H   0  0  0  0  0  0  0  0  0  0  0  0
  -47.2808  -33.5251    2.8999 H   0  0  0  0  0  0  0  0  0  0  0  0
  -46.4765  -30.4878    0.7569 H   0  0  0  0  0  0  0  0  0  0  0  0
  -47.3930  -29.3486    1.7471 H   0  0  0  0  0  0  0  0  0  0  0  0
  -49.4723  -30.6733    1.6374 H   0  0  0  0  0  0  0  0  0  0  0  0
  -48.6896  -31.8722    0.6001 H   0  0  0  0  0  0  0  0  0  0  0  0
  -47.8255  -31.1366    3.4392 H   0  0  0  0  0  0  0  0  0  0  0  0
  -44.6819  -29.9810    2.0652 H   0  0  0  0  0  0  0  0  0  0  0  0
  -48.3094  -35.5710   -1.0537 H   0  0  0  0  0  0  0  0  0  0  0  0
  -50.4884  -32.6906    1.7047 H   0  0  0  0  0  0  0  0  0  0  0  0
  1  2  2  0  0  0  0
  1  5  1  0  0  0  0
  2  6  1  0  0  0  0
  3  5  2  0  0  0  0
  3  7  1  0  0  0  0
  4 17  1  0  0  0  0
  4 18  2  0  0  0  0
  5 13  1  0  0  0  0
  6  7  2  0  0  0  0
  6 22  1  0  0  0  0
  7 20  1  0  0  0  0
  8  9  1  0  0  0  0
  8 10  2  0  0  0  0
  8 23  1  0  0  0  0
  9 11  1  0  0  0  0
  9 17  2  0  0  0  0
 10 18  1  0  0  0  0
 10 19  1  0  0  0  0
 12 22  1  0  0  0  0
 13 16  1  0  0  0  0
 14 16  1  0  0  0  0
 14 19  1  0  0  0  0
 15 16  1  0  0  0  0
 15 21  1  0  0  0  0
  1 24  1  0  0  0  0
  2 25  1  0  0  0  0
  3 26  1  0  0  0  0
  4 27  1  0  0  0  0
 11 28  1  0  0  0  0
 11 29  1  0  0  0  0
 11 30  1  0  0  0  0
 12 31  1  0  0  0  0
 12 32  1  0  0  0  0
 12 33  1  0  0  0  0
 13 34  1  0  0  0  0
 13 35  1  0  0  0  0
 14 36  1  0  0  0  0
 14 37  1  0  0  0  0
 15 38  1  0  0  0  0
 15 39  1  0  0  0  0
 16 40  1  0  0  0  0
 19 41  1  0  0  0  0
 20 42  1  0  0  0  0
 21 43  1  0  0  0  0
M  END
> <POSIT::Probability>
0.18

> <POSIT::Method>
HYBRID

> <ReceptorTitle>
UCSF-P4609-REFINED_LIGAND-BOUND-STATE_AALTB__DU__LA1_A-201(A)

> <OMEGA_C>
wmA0wsH9AsIwXAI/CdMywjPDBMLwVEG/GHA8woNJCMLAmrQ+TDwywqXg6sFFxrxAgS85wu7ABMJg
Eog/oBM2wsdLCMIolru/a+I6wvUOCsIAYWm/Jxw7wtYO6cFA64xAfQY7woZi5sEhwbdA01Y2wlO6
7MHWiXhA8P0/wklW4sENsMxA3osvwqoACMKMZEzAWN06wqDVAsJ0oBtAdxA7wkr58cFwoOQ/KI1D
wuXJ/MEAPNI/MUI+wjVP+8FUIhpATKQ2wuIy58E2u9BAaM4xwn697cEEXJNAtD82wmZ878GWRCNA
Rhc+wgSDDcK4LMy/5rJGwvp/AsJavw5A+YM0wlH+CcJYySzAcoo/wvEj6MEYW2pAXNExwrA9AMK8
Hoc/8RIvwhtgA8KIPpe/tC9AwrmqCcKQZkg/7acuwpKc68FJE9BAK15CwuTr6MEKEdpA65BCwgAm
3sEerbVACfw+wsjI3MFPpOZAS8cuwruqCcIW9IXAR8QvwmalA8KwxFDA/1Qswp8eCcIsiCDAylI3
wnRFAsKQKkRAfR89wrUZBsI8mDlA7+c5wvvm88H4wEE/epI9wuDJ6sGIoN8/meNFwtxi9cGIl9E/
JsJCwlT6/sGwoRk/RE0/wsQX+cF4G1xAQroywhDZ78FYLARA3DxBwrxIDsK434a/FfRJwi7DAsIc
Ndo/

> <OMEGA_E>
us/KwA==

> <OMEGA_NBR>
     30154

$$$$
CACHE3HI_1694_42
  -OEChem-03092622513D

 40 41  0     0  0  0  0  0  0999 V2000
  -45.2428  -32.7732    2.2488 C   0  0  0  0  0  0  0  0  0  0  0  0
  -44.1999  -31.9911    2.7452 C   0  0  0  0  0  0  0  0  0  0  0  0
  -45.5726  -29.1019    4.0463 C   0  0  0  0  0  0  0  0  0  0  0  0
  -46.8174  -28.9577    4.6487 C   0  0  0  0  0  0  0  0  0  0  0  0
  -45.0148  -30.1002    1.4810 C   0  0  0  0  0  0  0  0  0  0  0  0
  -44.6065  -29.3032    6.2104 C   0  0  0  0  0  0  0  0  0  0  0  0
  -46.1717  -32.2186    1.3685 C   0  0  0  0  0  0  0  0  0  0  0  0
  -44.0858  -30.6548    2.3613 C   0  0  0  0  0  0  0  0  0  0  0  0
  -46.0576  -30.8824    0.9845 C   0  0  0  0  0  0  0  0  0  0  0  0
  -44.4409  -29.2784    4.8346 C   0  0  0  0  0  0  0  0  0  0  0  0
  -46.8769  -28.9969    6.0324 C   0  0  0  0  0  0  0  0  0  0  0  0
  -47.2511  -33.0573    0.8651 C   0  0  0  0  0  0  0  0  0  0  0  0
  -47.0390  -30.2639    0.0430 C   0  0  0  0  0  0  0  0  0  0  0  0
  -49.3561  -29.2731    5.9944 C   0  0  0  0  0  0  0  0  0  0  0  0
  -47.8488  -35.2945    0.3020 C   0  0  0  0  0  0  0  0  0  0  0  0
  -42.9704  -29.8197    2.8933 C   0  0  0  0  0  0  0  0  0  0  0  0
  -45.7997  -29.1664    6.8313 N   0  0  0  0  0  0  0  0  0  0  0  0
  -43.1862  -29.4247    4.2617 N   0  0  0  0  0  0  0  0  0  0  0  0
  -48.1525  -28.8485    6.6314 N   0  0  0  0  0  0  0  0  0  0  0  0
  -48.3714  -32.6383    0.5504 O   0  0  0  0  0  0  0  0  0  0  0  0
  -46.8701  -34.3680    0.7845 O   0  0  0  0  0  0  0  0  0  0  0  0
  -45.3207  -33.8130    2.5560 H   0  0  0  0  0  0  0  0  0  0  0  0
  -43.4810  -32.4319    3.4310 H   0  0  0  0  0  0  0  0  0  0  0  0
  -45.4953  -29.0754    2.9626 H   0  0  0  0  0  0  0  0  0  0  0  0
  -47.7057  -28.8197    4.0409 H   0  0  0  0  0  0  0  0  0  0  0  0
  -44.9257  -29.0582    1.1828 H   0  0  0  0  0  0  0  0  0  0  0  0
  -43.7608  -29.4376    6.8782 H   0  0  0  0  0  0  0  0  0  0  0  0
  -46.7144  -30.3771   -0.9987 H   0  0  0  0  0  0  0  0  0  0  0  0
  -47.1433  -29.1880    0.2306 H   0  0  0  0  0  0  0  0  0  0  0  0
  -48.0220  -30.7354    0.1561 H   0  0  0  0  0  0  0  0  0  0  0  0
  -49.1395  -29.7109    5.0157 H   0  0  0  0  0  0  0  0  0  0  0  0
  -49.8650  -30.0213    6.6086 H   0  0  0  0  0  0  0  0  0  0  0  0
  -50.0308  -28.4235    5.8574 H   0  0  0  0  0  0  0  0  0  0  0  0
  -47.4226  -36.3009    0.2856 H   0  0  0  0  0  0  0  0  0  0  0  0
  -48.7136  -35.2782    0.9696 H   0  0  0  0  0  0  0  0  0  0  0  0
  -48.1624  -35.0039   -0.7033 H   0  0  0  0  0  0  0  0  0  0  0  0
  -42.0155  -30.3617    2.8529 H   0  0  0  0  0  0  0  0  0  0  0  0
  -42.8385  -28.9013    2.3048 H   0  0  0  0  0  0  0  0  0  0  0  0
  -42.3741  -29.2426    4.8436 H   0  0  0  0  0  0  0  0  0  0  0  0
  -48.1747  -28.4253    7.5365 H   0  0  0  0  0  0  0  0  0  0  0  0
  1  2  2  0  0  0  0
  1  7  1  0  0  0  0
  2  8  1  0  0  0  0
  3  4  2  0  0  0  0
  3 10  1  0  0  0  0
  4 11  1  0  0  0  0
  5  8  2  0  0  0  0
  5  9  1  0  0  0  0
  6 10  2  0  0  0  0
  6 17  1  0  0  0  0
  7  9  2  0  0  0  0
  7 12  1  0  0  0  0
  8 16  1  0  0  0  0
  9 13  1  0  0  0  0
 10 18  1  0  0  0  0
 11 17  2  0  0  0  0
 11 19  1  0  0  0  0
 12 20  2  0  0  0  0
 12 21  1  0  0  0  0
 14 19  1  0  0  0  0
 15 21  1  0  0  0  0
 16 18  1  0  0  0  0
  1 22  1  0  0  0  0
  2 23  1  0  0  0  0
  3 24  1  0  0  0  0
  4 25  1  0  0  0  0
  5 26  1  0  0  0  0
  6 27  1  0  0  0  0
 13 28  1  0  0  0  0
 13 29  1  0  0  0  0
 13 30  1  0  0  0  0
 14 31  1  0  0  0  0
 14 32  1  0  0  0  0
 14 33  1  0  0  0  0
 15 34  1  0  0  0  0
 15 35  1  0  0  0  0
 15 36  1  0  0  0  0
 16 37  1  0  0  0  0
 16 38  1  0  0  0  0
 18 39  1  0  0  0  0
 19 40  1  0  0  0  0
M  END
> <POSIT::Probability>
0.18

> <POSIT::Method>
HYBRID

> <ReceptorTitle>
UCSF-P4609_LA2_MERGED(A)

> <OMEGA_C>
lfg0wsIXA8JI7A9At8wwwrTt/8Eosi9AYEo2wsjQ6MFYe4FAB0U7wmmp58ECwpRAJA80wkTN8ME4
kL0/B20ywuRs6sHku8ZAzq84wtzfAMIoKq8/3lcwwg499cHcHxdA9jo4whEP98EgC3w/hcMxwig6
6sHOtJpA9oE7wpj558FyCcFAJgE9wqc6BMJwdV0/+yc8wm4c8sEADDA9nmxFwl4v6sFq0r9AL2U/
wo0tDcLgmpo+ueErwr6O7sGcKzlA3jI3wuJU6cHSmdpAqL4swuBl68GeX4hAI5xAwtTJ5sFINNRA
RnxBwpWNAsLQ6Aw/CHs7wsl4CcLw0Ug/YEg1woVAB8IMlSNAmOwtwke6AcI0lltAJPs1wlaa6MGo
mz1AmtI+wqmO5sEgT4FA9rMzwjJ36MH4ZZc/GwsvwjmA68FVGtxAjts6wl0E88FgqH+/vpI8wgKB
6cFAIWw+gBZAwjLi9cFA2B8+1Y5Ewtqv7cG2gKBAvXVHwrMr8MHkedNAfx9Iwmhj48E4cLtAxrA9
wig0EcKgPJI+xNpCwtwcDcKwNng/QaZAwvkDDMJwDjS/6Q8owsjk8sFUljZAk1orwsg158EOghNA
E38pwtDw6cGe/ppA6LJAwu1m48GoKvFA

> <OMEGA_E>
cuPpwA==

> <OMEGA_NBR>
     31378

$$$$
CACHE3HI_1694_64
  -OEChem-03092622513D

 43 45  0     0  0  0  0  0  0999 V2000
  -43.2246  -31.7023   -0.0235 C   0  0  0  0  0  0  0  0  0  0  0  0
  -42.9002  -30.6800    0.8684 C   0  0  0  0  0  0  0  0  0  0  0  0
  -49.5259  -29.1406    4.9980 C   0  0  0  0  0  0  0  0  0  0  0  0
  -48.3685  -29.2035    2.8905 C   0  0  0  0  0  0  0  0  0  0  0  0
  -45.1179  -30.8044    1.8192 C   0  0  0  0  0  0  0  0  0  0  0  0
  -50.7100  -29.0494    4.2834 C   0  0  0  0  0  0  0  0  0  0  0  0
  -49.6039  -29.1096    2.2701 C   0  0  0  0  0  0  0  0  0  0  0  0
  -47.0007  -29.3288    6.3501 C   0  0  0  0  0  0  0  0  0  0  0  0
  -44.7228  -29.4883    6.2198 C   0  0  0  0  0  0  0  0  0  0  0  0
  -48.3375  -29.2187    4.2804 C   0  0  0  0  0  0  0  0  0  0  0  0
  -44.4958  -32.2757    0.0062 C   0  0  0  0  0  0  0  0  0  0  0  0
  -43.8467  -30.2310    1.7895 C   0  0  0  0  0  0  0  0  0  0  0  0
  -45.4423  -31.8267    0.9274 C   0  0  0  0  0  0  0  0  0  0  0  0
  -47.0784  -29.3127    4.9747 C   0  0  0  0  0  0  0  0  0  0  0  0
  -44.8007  -29.4723    4.8441 C   0  0  0  0  0  0  0  0  0  0  0  0
  -44.8085  -33.3418   -0.9359 C   0  0  0  0  0  0  0  0  0  0  0  0
  -46.8109  -32.4237    0.9802 C   0  0  0  0  0  0  0  0  0  0  0  0
  -45.6720  -33.7985   -3.1097 C   0  0  0  0  0  0  0  0  0  0  0  0
  -43.4983  -29.1381    2.7427 C   0  0  0  0  0  0  0  0  0  0  0  0
  -50.7793  -29.0319    2.9333 N   0  0  0  0  0  0  0  0  0  0  0  0
  -45.8219  -29.4169    6.9975 N   0  0  0  0  0  0  0  0  0  0  0  0
  -45.9793  -29.3840    4.1969 N   0  0  0  0  0  0  0  0  0  0  0  0
  -43.6217  -29.5502    4.1175 N   0  0  0  0  0  0  0  0  0  0  0  0
  -44.6300  -34.5450   -0.7123 O   0  0  0  0  0  0  0  0  0  0  0  0
  -45.3243  -32.8447   -2.1005 O   0  0  0  0  0  0  0  0  0  0  0  0
  -42.4780  -32.0434   -0.7362 H   0  0  0  0  0  0  0  0  0  0  0  0
  -41.9070  -30.2396    0.8379 H   0  0  0  0  0  0  0  0  0  0  0  0
  -49.5413  -29.1493    6.0830 H   0  0  0  0  0  0  0  0  0  0  0  0
  -47.4617  -29.2613    2.2969 H   0  0  0  0  0  0  0  0  0  0  0  0
  -45.8550  -30.4545    2.5382 H   0  0  0  0  0  0  0  0  0  0  0  0
  -51.6645  -28.9862    4.7949 H   0  0  0  0  0  0  0  0  0  0  0  0
  -49.6822  -29.0941    1.1880 H   0  0  0  0  0  0  0  0  0  0  0  0
  -47.8774  -29.2719    6.9851 H   0  0  0  0  0  0  0  0  0  0  0  0
  -43.7801  -29.5586    6.7504 H   0  0  0  0  0  0  0  0  0  0  0  0
  -47.5026  -31.8882    0.3184 H   0  0  0  0  0  0  0  0  0  0  0  0
  -47.2284  -32.3670    1.9931 H   0  0  0  0  0  0  0  0  0  0  0  0
  -46.7778  -33.4756    0.6739 H   0  0  0  0  0  0  0  0  0  0  0  0
  -46.0699  -33.2770   -3.9840 H   0  0  0  0  0  0  0  0  0  0  0  0
  -44.7766  -34.3553   -3.3964 H   0  0  0  0  0  0  0  0  0  0  0  0
  -46.4183  -34.4919   -2.7151 H   0  0  0  0  0  0  0  0  0  0  0  0
  -42.4651  -28.7957    2.5924 H   0  0  0  0  0  0  0  0  0  0  0  0
  -44.1458  -28.2613    2.6048 H   0  0  0  0  0  0  0  0  0  0  0  0
  -42.7994  -29.9201    4.5845 H   0  0  0  0  0  0  0  0  0  0  0  0
  1  2  2  0  0  0  0
  1 11  1  0  0  0  0
  2 12  1  0  0  0  0
  3  6  2  0  0  0  0
  3 10  1  0  0  0  0
  4  7  1  0  0  0  0
  4 10  2  0  0  0  0
  5 12  2  0  0  0  0
  5 13  1  0  0  0  0
  6 20  1  0  0  0  0
  7 20  2  0  0  0  0
  8 14  2  0  0  0  0
  8 21  1  0  0  0  0
  9 15  1  0  0  0  0
  9 21  2  0  0  0  0
 10 14  1  0  0  0  0
 11 13  2  0  0  0  0
 11 16  1  0  0  0  0
 12 19  1  0  0  0  0
 13 17  1  0  0  0  0
 14 22  1  0  0  0  0
 15 22  2  0  0  0  0
 15 23  1  0  0  0  0
 16 24  2  0  0  0  0
 16 25  1  0  0  0  0
 18 25  1  0  0  0  0
 19 23  1  0  0  0  0
  1 26  1  0  0  0  0
  2 27  1  0  0  0  0
  3 28  1  0  0  0  0
  4 29  1  0  0  0  0
  5 30  1  0  0  0  0
  6 31  1  0  0  0  0
  7 32  1  0  0  0  0
  8 33  1  0  0  0  0
  9 34  1  0  0  0  0
 17 35  1  0  0  0  0
 17 36  1  0  0  0  0
 17 37  1  0  0  0  0
 18 38  1  0  0  0  0
 18 39  1  0  0  0  0
 18 40  1  0  0  0  0
 19 41  1  0  0  0  0
 19 42  1  0  0  0  0
 23 43  1  0  0  0  0
M  END
> <POSIT::Probability>
0.23

> <POSIT::Method>
HYBRID

> <ReceptorTitle>
UCSF-P4609-REFINED_LIGAND-BOUND-STATE_AALTB__DU__LA1_A-201(A)

> <OMEGA_C>
AuYswmGe/cEAfsC81Jkrwrpw9cFgTF4/ihpGwgYg6cFM759AYXlBwtig6cGA/ThAvHg0wn5v9sH8
2+g/E9dKwjxl6MG0EYlAZGpGwojg6MEAShFAwwA8wlKh6sFdNMtALuQywvzn68FPCMdAo1lBwv6/
6cEo+YhAqfsxwlQaAcIAJMw7CmMvwiLZ8cF0DuU/38Q1whKd/sHIaG0/SFA8wm6A6sFgMJ9A5TMz
wj7H68E1A5tA4Dszwv5dBcLAmG+/VT47wuSxAcLA7Ho/IrA2wqYxB8K+BEfAN/4twuIa6cGdiC9A
/x1Lwl1B6MF8uztAqUk3wsJV68Ga699A1uo3wmoS68H+TIZApXwuwrhm7MF1woNAIYUywhAuCsI0
Wja/FUw1wvBgA8IDbwbAeukpwmosAMK4dDy/xaAnwqfq8cHsgFY/SCpGwrIx6cFVqMJAz9g9wg4X
6sEkABNAf2s3wtqi88G2cSJAfqhOwrjj58Fwb5lAkrpGwqPA6ME8EZg/boI/wtcs6sETht9A1R4v
whV47MGpA9hAswI+whEb/8EwB6M+5Ok8wtR3AcJsHv8/dBw7wgTnBcJAhyw/mEc4wqIbBcKe+n7A
Shszws5rCcJFX1nAUaw5wq73CcLewy3ARtwpwpZd5sGM6SVAUJUwwhQX4sFctCZAjTIrwnRc78GQ
tJJA

> <OMEGA_E>
l8AXwQ==

> <OMEGA_NBR>
     32739

$$$$
CACHE3HI_1694_71
  -OEChem-03092622513D

 44 46  0     0  0  0  0  0  0999 V2000
  -45.0641  -28.9798    6.6767 C   0  0  0  0  0  0  0  0  0  0  0  0
  -44.0319  -28.9866    5.7181 C   0  0  0  0  0  0  0  0  0  0  0  0
  -42.6138  -31.5488   -0.1383 C   0  0  0  0  0  0  0  0  0  0  0  0
  -43.3614  -32.7104   -0.3746 C   0  0  0  0  0  0  0  0  0  0  0  0
  -46.3921  -29.1882    6.2748 C   0  0  0  0  0  0  0  0  0  0  0  0
  -43.2063  -30.4508    0.4957 C   0  0  0  0  0  0  0  0  0  0  0  0
  -44.3322  -29.1264    4.3478 C   0  0  0  0  0  0  0  0  0  0  0  0
  -44.7161  -32.8021    0.0306 C   0  0  0  0  0  0  0  0  0  0  0  0
  -46.6777  -29.4389    4.9203 C   0  0  0  0  0  0  0  0  0  0  0  0
  -44.5504  -30.5041    0.9058 C   0  0  0  0  0  0  0  0  0  0  0  0
  -45.6691  -29.3277    3.9394 C   0  0  0  0  0  0  0  0  0  0  0  0
  -45.3177  -31.6822    0.6821 C   0  0  0  0  0  0  0  0  0  0  0  0
  -49.4990  -28.7097    2.9567 C   0  0  0  0  0  0  0  0  0  0  0  0
  -45.4539  -34.0697   -0.2541 C   0  0  0  0  0  0  0  0  0  0  0  0
  -51.0228  -27.7914    4.3943 C   0  0  0  0  0  0  0  0  0  0  0  0
  -49.9445  -28.4364    5.2245 C   0  0  0  0  0  0  0  0  0  0  0  0
  -48.0434  -29.9407    4.5518 C   0  0  0  0  0  0  0  0  0  0  0  0
  -45.1699  -29.2257    1.4349 C   0  0  0  0  0  0  0  0  0  0  0  0
  -50.8445  -28.4037    3.0908 N   0  0  0  0  0  0  0  0  0  0  0  0
  -48.9529  -28.8524    4.2374 N   0  0  0  0  0  0  0  0  0  0  0  0
  -46.7996  -34.2210    0.0260 N   0  0  0  0  0  0  0  0  0  0  0  0
  -46.0353  -29.4600    2.6001 N   0  0  0  0  0  0  0  0  0  0  0  0
  -48.9428  -28.9443    1.8902 O   0  0  0  0  0  0  0  0  0  0  0  0
  -44.8714  -35.0210   -0.7627 O   0  0  0  0  0  0  0  0  0  0  0  0
  -46.6150  -31.7188    1.0816 F   0  0  0  0  0  0  0  0  0  0  0  0
  -44.8337  -28.8145    7.7188 H   0  0  0  0  0  0  0  0  0  0  0  0
  -43.0045  -28.8842    6.0348 H   0  0  0  0  0  0  0  0  0  0  0  0
  -41.5796  -31.5008   -0.4458 H   0  0  0  0  0  0  0  0  0  0  0  0
  -42.8977  -33.5488   -0.8732 H   0  0  0  0  0  0  0  0  0  0  0  0
  -47.1906  -29.1563    7.0013 H   0  0  0  0  0  0  0  0  0  0  0  0
  -42.6272  -29.5563    0.6712 H   0  0  0  0  0  0  0  0  0  0  0  0
  -43.5424  -29.0797    3.6126 H   0  0  0  0  0  0  0  0  0  0  0  0
  -52.0204  -28.0128    4.8015 H   0  0  0  0  0  0  0  0  0  0  0  0
  -50.8820  -26.7018    4.3414 H   0  0  0  0  0  0  0  0  0  0  0  0
  -49.5128  -27.7164    5.9353 H   0  0  0  0  0  0  0  0  0  0  0  0
  -50.3385  -29.3036    5.7748 H   0  0  0  0  0  0  0  0  0  0  0  0
  -47.9563  -30.5966    3.6731 H   0  0  0  0  0  0  0  0  0  0  0  0
  -48.4523  -30.5130    5.3975 H   0  0  0  0  0  0  0  0  0  0  0  0
  -44.3632  -28.5374    1.7272 H   0  0  0  0  0  0  0  0  0  0  0  0
  -45.7710  -28.7677    0.6354 H   0  0  0  0  0  0  0  0  0  0  0  0
  -51.5605  -28.5736    2.4137 H   0  0  0  0  0  0  0  0  0  0  0  0
  -47.2607  -35.0825   -0.1866 H   0  0  0  0  0  0  0  0  0  0  0  0
  -47.3116  -33.4689    0.4410 H   0  0  0  0  0  0  0  0  0  0  0  0
  -46.3478  -30.4053    2.5072 H   0  0  0  0  0  0  0  0  0  0  0  0
  1  2  1  0  0  0  0
  1  5  2  0  0  0  0
  2  7  2  0  0  0  0
  3  4  1  0  0  0  0
  3  6  2  0  0  0  0
  4  8  2  0  0  0  0
  5  9  1  0  0  0  0
  6 10  1  0  0  0  0
  7 11  1  0  0  0  0
  8 12  1  0  0  0  0
  8 14  1  0  0  0  0
  9 11  2  0  0  0  0
  9 17  1  0  0  0  0
 10 12  2  0  0  0  0
 10 18  1  0  0  0  0
 11 22  1  0  0  0  0
 12 25  1  0  0  0  0
 13 19  1  0  0  0  0
 13 20  1  0  0  0  0
 13 23  2  0  0  0  0
 14 21  1  0  0  0  0
 14 24  2  0  0  0  0
 15 16  1  0  0  0  0
 15 19  1  0  0  0  0
 16 20  1  0  0  0  0
 17 20  1  0  0  0  0
 18 22  1  0  0  0  0
  1 26  1  0  0  0  0
  2 27  1  0  0  0  0
  3 28  1  0  0  0  0
  4 29  1  0  0  0  0
  5 30  1  0  0  0  0
  6 31  1  0  0  0  0
  7 32  1  0  0  0  0
 15 33  1  0  0  0  0
 15 34  1  0  0  0  0
 16 35  1  0  0  0  0
 16 36  1  0  0  0  0
 17 37  1  0  0  0  0
 17 38  1  0  0  0  0
 18 39  1  0  0  0  0
 18 40  1  0  0  0  0
 19 41  1  0  0  0  0
 21 42  1  0  0  0  0
 21 43  1  0  0  0  0
 22 44  1  0  0  0  0
M  END
> <POSIT::Probability>
0.5

> <POSIT::Method>
SHAPEFIT

> <ReceptorTitle>
UCSF-P4609_LA2_MERGED(A)

> <OMEGA_C>
rEE0wqDW58FVp9VApSAwwqjk58Gx+rZAk3Qqwthj/MF4mg2+C3Itwn7XAsIIx7++g5E5wlqB6cFp
y8hAO9MswlCb88GUy/0+LlQxwucC6cHnIItASt0ywmU1A8JAx/o86rU6wtqC68H9cp1AqTMywloI
9MES5Wc/HK02whOf6sEKH3xAVUU1wjp1/cG6ni4/9v5Fwm+t5cFsOj1A1tA1wlVHCMJUFIK+YRdM
wtZU3sHMnYxAMcdHwrx948FtL6dAdixAwnyG78EbqJFABa40wizO6cE7qbc/yWBLwrA648Hkz0VA
zs9DwsnR5sGJmIdAxDI7wkniCMIAutQ8JCQ4wgmu68FcaCZAa8VDwgCO58Hx8PE/Unwzwn0VDMIv
Q0O/yXU6whfA/cGdcoo/wVUzwhKE5sFNAPdAjwQswukS58EhHcFAjlEmwq4B/MEYOuS+PZcrwu4x
BsKSiV+/OcM8wgFA6cFeCuBANoIqwkxz7MHJ1is/bysuwkij6MEINWdA5hRQwk4a4MGcpZlAIIdL
wjad1cGt7IpAHA1Gwi273cEz7r1AqFpJwq1t6sE0y7hAQtM/wufF9MGKE2tALs9Bwpoa9ME/uKxA
9XMxwn9M5MHfE90/eBU3wlYk5sHCqyI//z1OwryW5MG+ehpA/Ao9wnRUDMJ7DD++DT89wi3gBcJS
zeE+LGQ5wh4+88ECdiBA

> <OMEGA_E>
orpOPw==

> <OMEGA_NBR>
     34072

$$$$
CACHE3HI_1694_72
  -OEChem-03092622513D

 37 38  0     0  0  0  0  0  0999 V2000
  -43.9825  -32.4416    0.3171 C   0  0  0  0  0  0  0  0  0  0  0  0
  -42.9568  -31.5376    0.5937 C   0  0  0  0  0  0  0  0  0  0  0  0
  -44.5843  -29.7729    0.8672 C   0  0  0  0  0  0  0  0  0  0  0  0
  -45.2596  -29.6574    5.8889 C   0  0  0  0  0  0  0  0  0  0  0  0
  -45.6099  -30.6769    0.5906 C   0  0  0  0  0  0  0  0  0  0  0  0
  -45.3092  -32.0110    0.3157 C   0  0  0  0  0  0  0  0  0  0  0  0
  -43.2575  -30.2035    0.8686 C   0  0  0  0  0  0  0  0  0  0  0  0
  -47.0609  -28.7107    6.3541 C   0  0  0  0  0  0  0  0  0  0  0  0
  -47.3490  -33.5726    2.6015 C   0  0  0  0  0  0  0  0  0  0  0  0
  -47.0838  -32.2623    2.6421 C   0  0  0  0  0  0  0  0  0  0  0  0
  -47.4487  -28.7482    2.5346 C   0  0  0  0  0  0  0  0  0  0  0  0
  -47.0377  -30.2111    0.5895 C   0  0  0  0  0  0  0  0  0  0  0  0
  -48.1288  -31.1973    2.5654 C   0  0  0  0  0  0  0  0  0  0  0  0
  -48.0044  -28.6272    3.9463 C   0  0  0  0  0  0  0  0  0  0  0  0
  -45.9703  -29.1490    6.9386 N   0  0  0  0  0  0  0  0  0  0  0  0
  -45.8424  -29.5610    4.6922 N   0  0  0  0  0  0  0  0  0  0  0  0
  -46.9925  -28.9517    5.0175 N   0  0  0  0  0  0  0  0  0  0  0  0
  -48.1449  -28.1020    6.8850 N   0  0  0  0  0  0  0  0  0  0  0  0
  -47.5473  -30.0119    1.9402 N   0  0  0  0  0  0  0  0  0  0  0  0
  -46.9452  -27.7733    1.9702 O   0  0  0  0  0  0  0  0  0  0  0  0
  -46.2881  -32.8865    0.0482 F   0  0  0  0  0  0  0  0  0  0  0  0
  -41.8666  -28.9799    1.2440 Br  0  0  0  0  0  0  0  0  0  0  0  0
  -43.7486  -33.4802    0.1025 H   0  0  0  0  0  0  0  0  0  0  0  0
  -41.9285  -31.8894    0.5914 H   0  0  0  0  0  0  0  0  0  0  0  0
  -44.8262  -28.7342    1.0809 H   0  0  0  0  0  0  0  0  0  0  0  0
  -44.2867  -30.1124    6.0000 H   0  0  0  0  0  0  0  0  0  0  0  0
  -46.5452  -34.2985    2.6694 H   0  0  0  0  0  0  0  0  0  0  0  0
  -48.3627  -33.9439    2.5002 H   0  0  0  0  0  0  0  0  0  0  0  0
  -46.0503  -31.9451    2.7522 H   0  0  0  0  0  0  0  0  0  0  0  0
  -47.1341  -29.2636    0.0491 H   0  0  0  0  0  0  0  0  0  0  0  0
  -47.6874  -30.9377    0.0905 H   0  0  0  0  0  0  0  0  0  0  0  0
  -48.9956  -31.5140    1.9764 H   0  0  0  0  0  0  0  0  0  0  0  0
  -48.4745  -30.9366    3.5701 H   0  0  0  0  0  0  0  0  0  0  0  0
  -48.3672  -27.6038    4.0994 H   0  0  0  0  0  0  0  0  0  0  0  0
  -48.8609  -29.3035    4.0529 H   0  0  0  0  0  0  0  0  0  0  0  0
  -48.2463  -27.9550    7.8989 H   0  0  0  0  0  0  0  0  0  0  0  0
  -48.9651  -27.8527    6.3146 H   0  0  0  0  0  0  0  0  0  0  0  0
  1  2  2  0  0  0  0
  1  6  1  0  0  0  0
  2  7  1  0  0  0  0
  3  5  1  0  0  0  0
  3  7  2  0  0  0  0
  4 15  1  0  0  0  0
  4 16  2  0  0  0  0
  5  6  2  0  0  0  0
  5 12  1  0  0  0  0
  6 21  1  0  0  0  0
  7 22  1  0  0  0  0
  8 15  2  0  0  0  0
  8 17  1  0  0  0  0
  8 18  1  0  0  0  0
  9 10  2  0  0  0  0
 10 13  1  0  0  0  0
 11 14  1  0  0  0  0
 11 19  1  0  0  0  0
 11 20  2  0  0  0  0
 12 19  1  0  0  0  0
 13 19  1  0  0  0  0
 14 17  1  0  0  0  0
 16 17  1  0  0  0  0
  1 23  1  0  0  0  0
  2 24  1  0  0  0  0
  3 25  1  0  0  0  0
  4 26  1  0  0  0  0
  9 27  1  0  0  0  0
  9 28  1  0  0  0  0
 10 29  1  0  0  0  0
 12 30  1  0  0  0  0
 12 31  1  0  0  0  0
 13 32  1  0  0  0  0
 13 33  1  0  0  0  0
 14 34  1  0  0  0  0
 14 35  1  0  0  0  0
 18 36  1  0  0  0  0
 18 37  1  0  0  0  0
M  END
> <POSIT::Probability>
0.23

> <POSIT::Method>
HYBRID

> <ReceptorTitle>
UCSF-P4609_LA2_MERGED(A)

> <OMEGA_C>
D+4vwivEAcLAWqI+uNMrwhZN/MGY+xc/RlYywvsu7sF4AV4/4Ak1wmZC7cEhcrxAjnA2wjdq9cGQ
Mxc/lTw1wkgLAMJgqaE+sgctwrig8cF4Wl4/Wj48woyv5cHfVMtAXmU9wmBKBsLUfiZA1FU8wqUM
AcI8GClAfMs9wlX85cFuNyJAmiY8wm2w8cHo6RY/54NAwiSU+cHcLyRAewRAwoAE5cE2kHxAnOE3
wjgx6cHkCN5AlV43wuN87MHKJpZAU/g7wiud58Gaj6BAa5RAwtrQ4MGQUdxAczA+wlsY8MGAWPg/
48c7wq4v3sEULvw/DCc5wseLA8IATUU9WncnwujW58EEO58/hv4uwsDrBcLA/tE9vrYnwnAd/8FA
Zxc/EU4zwovf5cFAW4o/nSUxwiXm8MFIAMBAPy46wrYxCcL+1ipAanNBwoLGB8IuAyBAdTM4woKP
/8GWIzBATYk8wt8b6sGALEk94b8+wnaA98GAXrk9ePtDwpcc/MFY+/w/3uVBwhZ+98HQe2RACHhB
wpnU3MFeLoNAkXFDwopt6sFesYFAQPxAwr6j38Hrw/xAPtxDwmnS3sFWEcpA

> <OMEGA_E>
0kXrwA==

> <OMEGA_NBR>
     35237

$$$$
CACHE3HI_1694_76
  -OEChem-03092622513D

 38 40  0     0  0  0  0  0  0999 V2000
  -49.1308  -28.4362    5.4649 C   0  0  0  0  0  0  0  0  0  0  0  0
  -48.8661  -28.4335    4.1033 C   0  0  0  0  0  0  0  0  0  0  0  0
  -44.0027  -32.3351    0.3500 C   0  0  0  0  0  0  0  0  0  0  0  0
  -43.2043  -31.4628    1.0899 C   0  0  0  0  0  0  0  0  0  0  0  0
  -48.1208  -28.7764    6.3617 C   0  0  0  0  0  0  0  0  0  0  0  0
  -47.5916  -28.7725    3.6516 C   0  0  0  0  0  0  0  0  0  0  0  0
  -44.7908  -31.5528    2.9099 C   0  0  0  0  0  0  0  0  0  0  0  0
  -44.6715  -29.7609    6.3248 C   0  0  0  0  0  0  0  0  0  0  0  0
  -45.1952  -32.8162    0.8903 C   0  0  0  0  0  0  0  0  0  0  0  0
  -43.5983  -31.0716    2.3696 C   0  0  0  0  0  0  0  0  0  0  0  0
  -46.8442  -29.1162    5.9205 C   0  0  0  0  0  0  0  0  0  0  0  0
  -46.5746  -29.1140    4.5396 C   0  0  0  0  0  0  0  0  0  0  0  0
  -45.5892  -32.4250    2.1701 C   0  0  0  0  0  0  0  0  0  0  0  0
  -44.4081  -29.7593    4.9805 C   0  0  0  0  0  0  0  0  0  0  0  0
  -46.0136  -33.7268    0.1018 C   0  0  0  0  0  0  0  0  0  0  0  0
  -47.9266  -32.1115    2.4788 C   0  0  0  0  0  0  0  0  0  0  0  0
  -42.7374  -30.1334    3.1659 C   0  0  0  0  0  0  0  0  0  0  0  0
  -45.8858  -29.4412    6.8056 N   0  0  0  0  0  0  0  0  0  0  0  0
  -45.3534  -29.4365    4.0788 N   0  0  0  0  0  0  0  0  0  0  0  0
  -43.1107  -30.1056    4.5453 N   0  0  0  0  0  0  0  0  0  0  0  0
  -47.1784  -33.5178   -0.2501 O   0  0  0  0  0  0  0  0  0  0  0  0
  -45.3517  -34.8700   -0.2233 O   0  0  0  0  0  0  0  0  0  0  0  0
  -46.7512  -32.8840    2.7147 O   0  0  0  0  0  0  0  0  0  0  0  0
  -50.1193  -28.1754    5.8308 H   0  0  0  0  0  0  0  0  0  0  0  0
  -49.6451  -28.1710    3.3941 H   0  0  0  0  0  0  0  0  0  0  0  0
  -43.6857  -32.6324   -0.6463 H   0  0  0  0  0  0  0  0  0  0  0  0
  -42.2766  -31.0932    0.6612 H   0  0  0  0  0  0  0  0  0  0  0  0
  -48.3431  -28.7738    7.4270 H   0  0  0  0  0  0  0  0  0  0  0  0
  -47.3973  -28.7677    2.5808 H   0  0  0  0  0  0  0  0  0  0  0  0
  -45.0998  -31.2496    3.9074 H   0  0  0  0  0  0  0  0  0  0  0  0
  -43.9265  -30.0177    7.0687 H   0  0  0  0  0  0  0  0  0  0  0  0
  -48.7810  -32.5873    2.9672 H   0  0  0  0  0  0  0  0  0  0  0  0
  -47.7836  -31.1107    2.8933 H   0  0  0  0  0  0  0  0  0  0  0  0
  -48.1040  -32.0358    1.4035 H   0  0  0  0  0  0  0  0  0  0  0  0
  -41.6852  -30.4310    3.1068 H   0  0  0  0  0  0  0  0  0  0  0  0
  -42.8086  -29.1114    2.7793 H   0  0  0  0  0  0  0  0  0  0  0  0
  -42.4426  -30.3379    5.2548 H   0  0  0  0  0  0  0  0  0  0  0  0
  -45.8946  -35.4907   -0.7553 H   0  0  0  0  0  0  0  0  0  0  0  0
  1  2  1  0  0  0  0
  1  5  2  0  0  0  0
  2  6  2  0  0  0  0
  3  4  2  0  0  0  0
  3  9  1  0  0  0  0
  4 10  1  0  0  0  0
  5 11  1  0  0  0  0
  6 12  1  0  0  0  0
  7 10  2  0  0  0  0
  7 13  1  0  0  0  0
  8 14  1  0  0  0  0
  8 18  2  0  0  0  0
  9 13  2  0  0  0  0
  9 15  1  0  0  0  0
 10 17  1  0  0  0  0
 11 12  2  0  0  0  0
 11 18  1  0  0  0  0
 12 19  1  0  0  0  0
 13 23  1  0  0  0  0
 14 19  2  0  0  0  0
 14 20  1  0  0  0  0
 15 21  2  0  0  0  0
 15 22  1  0  0  0  0
 16 23  1  0  0  0  0
 17 20  1  0  0  0  0
  1 24  1  0  0  0  0
  2 25  1  0  0  0  0
  3 26  1  0  0  0  0
  4 27  1  0  0  0  0
  5 28  1  0  0  0  0
  6 29  1  0  0  0  0
  7 30  1  0  0  0  0
  8 31  1  0  0  0  0
 16 32  1  0  0  0  0
 16 33  1  0  0  0  0
 16 34  1  0  0  0  0
 17 35  1  0  0  0  0
 17 36  1  0  0  0  0
 20 37  1  0  0  0  0
 22 38  1  0  0  0  0
M  END
> <POSIT::Probability>
0.33

> <POSIT::Method>
HYBRID

> <ReceptorTitle>
UCSF-P4609-REFINED_LIGAND-BOUND-STATE_AALTB__DU__LA1_A-201(A)

> <OMEGA_C>
+IVEwkp948G84K5A6nZDwt5348EYToNAzwIwwh1XAcJgM7M+PNEswt2z+8EIgYs/u3tAwgM25sFu
k8tA2F0+wiou5sEYs2lA0ykzwhZs/MFIPDpApa8ywk0W7sF4ZMpA5Mc0wtRDA8LA7GM/sWQuwpuS
+MGEpxdAc2A7wvbt6MGqdL1AYEw6wpHp6MHARJFAWls2wjOzAcIs4gpA4KExwg4T7sFQYJ9A8A04
wj7oBsKAj9A93LQ/wjRyAMKwpB5AHvMqwicR8cF0nUpAGYs3wn+H68Eex9lA5Wk1wup968GohYJA
UHEswjLY8MEQc5FAp7Y8wjISBsIAB4C+Kmg1wtp6C8LAm2S+RQE7wkSJA8JYvi1AI3pIwktn4cHc
lbpAm5RGwiNe4cF8OVlAML4uwpaHAsLwdSW/PBspws+++MHgQSk/UF9BwsQw5sFkqu1A1pY9wk4k
5sEELCVAPWY0wjz/+cGgEnpAt7QvwiYk8MGmMuJAtR9DwmlZAsJU5z1AbSI/wrji+MHwKzlAiWpA
wqQkAMIQp7M/sr0mwrJy88EE1UZA+DsrwhLk6MG43zFAMMUpwvCz8sEiJ6hACZQ3wnn2DcJwXUG/

> <OMEGA_E>
Q0X0wA==

> <OMEGA_NBR>
     36498

$$$$
CACHE3HI_1694_8
  -OEChem-03092622513D

 38 39  0     0  0  0  0  0  0999 V2000
  -45.6514  -33.7588    0.4395 C   0  0  0  0  0  0  0  0  0  0  0  0
  -45.2959  -32.9510    1.5293 C   0  0  0  0  0  0  0  0  0  0  0  0
  -45.9394  -29.2610    6.8053 C   0  0  0  0  0  0  0  0  0  0  0  0
  -43.6329  -31.8063    0.1461 C   0  0  0  0  0  0  0  0  0  0  0  0
  -46.6876  -29.4964    4.5181 C   0  0  0  0  0  0  0  0  0  0  0  0
  -44.6806  -29.7583    6.4142 C   0  0  0  0  0  0  0  0  0  0  0  0
  -44.9844  -33.5988   -0.7911 C   0  0  0  0  0  0  0  0  0  0  0  0
  -44.2878  -31.9738    1.3756 C   0  0  0  0  0  0  0  0  0  0  0  0
  -46.9645  -29.1463    5.8475 C   0  0  0  0  0  0  0  0  0  0  0  0
  -43.9761  -32.6177   -0.9438 C   0  0  0  0  0  0  0  0  0  0  0  0
  -45.4111  -29.9911    4.1967 C   0  0  0  0  0  0  0  0  0  0  0  0
  -45.3795  -34.4111   -1.9309 C   0  0  0  0  0  0  0  0  0  0  0  0
  -48.3167  -28.5896    6.2241 C   0  0  0  0  0  0  0  0  0  0  0  0
  -43.2602  -32.4273   -2.2692 C   0  0  0  0  0  0  0  0  0  0  0  0
  -46.7173  -34.6410   -3.8874 C   0  0  0  0  0  0  0  0  0  0  0  0
  -43.9324  -31.0785    2.5130 C   0  0  0  0  0  0  0  0  0  0  0  0
  -44.4383  -30.1164    5.1354 N   0  0  0  0  0  0  0  0  0  0  0  0
  -45.1603  -30.3659    2.8934 N   0  0  0  0  0  0  0  0  0  0  0  0
  -44.6662  -35.3642   -2.2296 O   0  0  0  0  0  0  0  0  0  0  0  0
  -46.4918  -34.0017   -2.6125 O   0  0  0  0  0  0  0  0  0  0  0  0
  -46.4314  -34.4986    0.5428 H   0  0  0  0  0  0  0  0  0  0  0  0
  -45.7904  -33.0756    2.4814 H   0  0  0  0  0  0  0  0  0  0  0  0
  -46.1162  -28.9705    7.8304 H   0  0  0  0  0  0  0  0  0  0  0  0
  -42.8658  -31.0535    0.0398 H   0  0  0  0  0  0  0  0  0  0  0  0
  -47.4426  -29.3878    3.7534 H   0  0  0  0  0  0  0  0  0  0  0  0
  -43.8960  -29.8548    7.1501 H   0  0  0  0  0  0  0  0  0  0  0  0
  -48.3089  -27.4958    6.1072 H   0  0  0  0  0  0  0  0  0  0  0  0
  -49.0868  -29.0228    5.5690 H   0  0  0  0  0  0  0  0  0  0  0  0
  -48.5396  -28.8448    7.2706 H   0  0  0  0  0  0  0  0  0  0  0  0
  -42.3699  -33.0725   -2.3017 H   0  0  0  0  0  0  0  0  0  0  0  0
  -43.9374  -32.6954   -3.0935 H   0  0  0  0  0  0  0  0  0  0  0  0
  -42.9547  -31.3756   -2.3730 H   0  0  0  0  0  0  0  0  0  0  0  0
  -47.6331  -34.2373   -4.3438 H   0  0  0  0  0  0  0  0  0  0  0  0
  -45.8613  -34.4479   -4.5508 H   0  0  0  0  0  0  0  0  0  0  0  0
  -46.8289  -35.7252   -3.7391 H   0  0  0  0  0  0  0  0  0  0  0  0
  -43.5615  -31.6729    3.3610 H   0  0  0  0  0  0  0  0  0  0  0  0
  -43.1589  -30.3607    2.2023 H   0  0  0  0  0  0  0  0  0  0  0  0
  -45.9218  -30.9532    2.6191 H   0  0  0  0  0  0  0  0  0  0  0  0
  1  2  2  0  0  0  0
  1  7  1  0  0  0  0
  2  8  1  0  0  0  0
  3  6  2  0  0  0  0
  3  9  1  0  0  0  0
  4  8  2  0  0  0  0
  4 10  1  0  0  0  0
  5  9  2  0  0  0  0
  5 11  1  0  0  0  0
  6 17  1  0  0  0  0
  7 10  2  0  0  0  0
  7 12  1  0  0  0  0
  8 16  1  0  0  0  0
  9 13  1  0  0  0  0
 10 14  1  0  0  0  0
 11 17  2  0  0  0  0
 11 18  1  0  0  0  0
 12 19  2  0  0  0  0
 12 20  1  0  0  0  0
 15 20  1  0  0  0  0
 16 18  1  0  0  0  0
  1 21  1  0  0  0  0
  2 22  1  0  0  0  0
  3 23  1  0  0  0  0
  4 24  1  0  0  0  0
  5 25  1  0  0  0  0
  6 26  1  0  0  0  0
 13 27  1  0  0  0  0
 13 28  1  0  0  0  0
 13 29  1  0  0  0  0
 14 30  1  0  0  0  0
 14 31  1  0  0  0  0
 14 32  1  0  0  0  0
 15 33  1  0  0  0  0
 15 34  1  0  0  0  0
 15 35  1  0  0  0  0
 16 36  1  0  0  0  0
 16 37  1  0  0  0  0
 18 38  1  0  0  0  0
M  END
> <POSIT::Probability>
0.42

> <POSIT::Method>
SHAPEFIT

> <ReceptorTitle>
UCSF-P4609-REFINED_LIGAND-BOUND-STATE_AALTB__DU__LA1_A-201(A)

> <OMEGA_C>
C5s2wvwIB8KoAuE++S41wtfNA8KmwcM/88E3woMW6sE+xdlAFoguwkNz/sGwnxU+IsA6wp/468Hs
k5BA6LgywhER7sFeQc1A++8zwihlBsJchkq/sSYxwj/K/8H+FLA/nts7wrcr6cGKHrtAjucvwo94
AsI8nnG/86Q1wrnt78EYS4ZAnoQ1wvSkCcLWJve/R0RBwne35MHkK8dAaAotwoa1AcLKOhHAft46
wmiQCsJgy3jAu7ovwtGg+MGH1CBAzMAxwl3u8MEIVaRAK6Q0wlvt8sE3LTlAKaoywuV0DcIKsg7A
kvc5wroBCMJtMyfAwrk5wo/+CcIM9Qo/Wyk3wmVNBMKuzh5AA3c4wn3D58FukvpAknYrwppt+MEx
HSM9M8U9wkoa68EFOHBAhZUvwpPW7sH1zeRAWzxBwnn328F8bsNA7FhEwqIu6MELNbJAkShCwi/C
5sHLqOhAvnopwj1KBMJ4ThPA578vwhjIAsLj+0XAldErwlQB+8Hp3hfASog+wvbyCMInAIvAAXI3
wqzKCcIRoJHA1FA7wqbmDsIvTW/A+j4uwiti/cGTGldAvqIswrLi8sEq8gxA5a83wjKg98H4nidA

> <OMEGA_E>
lMV6Pw==

> <OMEGA_NBR>
     37781

$$$$
CACHE3HI_1696_19
  -OEChem-03092622513D

 29 31  0     0  0  0  0  0  0999 V2000
  -44.2493  -32.8445    0.1052 C   0  0  0  0  0  0  0  0  0  0  0  0
  -43.4254  -31.7096    0.2250 C   0  0  0  0  0  0  0  0  0  0  0  0
  -45.5297  -32.8434    0.6904 C   0  0  0  0  0  0  0  0  0  0  0  0
  -49.0593  -28.7820    5.5783 C   0  0  0  0  0  0  0  0  0  0  0  0
  -44.5671  -29.4727    5.7279 C   0  0  0  0  0  0  0  0  0  0  0  0
  -47.0185  -29.1333    4.5695 C   0  0  0  0  0  0  0  0  0  0  0  0
  -48.4736  -28.8846    4.3338 C   0  0  0  0  0  0  0  0  0  0  0  0
  -43.8896  -30.5644    0.9075 C   0  0  0  0  0  0  0  0  0  0  0  0
  -45.1852  -30.5439    1.4773 C   0  0  0  0  0  0  0  0  0  0  0  0
  -45.9997  -31.7010    1.3760 C   0  0  0  0  0  0  0  0  0  0  0  0
  -46.8539  -29.1344    5.9666 C   0  0  0  0  0  0  0  0  0  0  0  0
  -45.8530  -29.3134    3.7642 C   0  0  0  0  0  0  0  0  0  0  0  0
  -49.2887  -28.7632    3.0979 C   0  0  0  0  0  0  0  0  0  0  0  0
  -45.6420  -29.2933    6.5285 N   0  0  0  0  0  0  0  0  0  0  0  0
  -44.6528  -29.4846    4.3725 N   0  0  0  0  0  0  0  0  0  0  0  0
  -48.0876  -28.9254    6.5518 N   0  0  0  0  0  0  0  0  0  0  0  0
  -50.6612  -28.6066    3.1939 N   0  0  0  0  0  0  0  0  0  0  0  0
  -48.7925  -28.7871    1.9819 O   0  0  0  0  0  0  0  0  0  0  0  0
  -43.1023  -29.4656    0.9712 F   0  0  0  0  0  0  0  0  0  0  0  0
  -45.8578  -28.9850    2.0231 S   0  0  0  0  0  0  0  0  0  0  0  0
  -47.6139  -31.7251    2.0408 Cl  0  0  0  0  0  0  0  0  0  0  0  0
  -43.9005  -33.7130   -0.4337 H   0  0  0  0  0  0  0  0  0  0  0  0
  -42.4354  -31.7149   -0.2064 H   0  0  0  0  0  0  0  0  0  0  0  0
  -46.1558  -33.7201    0.6148 H   0  0  0  0  0  0  0  0  0  0  0  0
  -50.1103  -28.6158    5.7632 H   0  0  0  0  0  0  0  0  0  0  0  0
  -43.5991  -29.6126    6.1858 H   0  0  0  0  0  0  0  0  0  0  0  0
  -48.2540  -28.8838    7.5370 H   0  0  0  0  0  0  0  0  0  0  0  0
  -51.2134  -28.5173    2.3650 H   0  0  0  0  0  0  0  0  0  0  0  0
  -51.1001  -28.5829    4.0921 H   0  0  0  0  0  0  0  0  0  0  0  0
  1  2  1  0  0  0  0
  1  3  2  0  0  0  0
  2  8  2  0  0  0  0
  3 10  1  0  0  0  0
  4  7  2  0  0  0  0
  4 16  1  0  0  0  0
  5 14  2  0  0  0  0
  5 15  1  0  0  0  0
  6  7  1  0  0  0  0
  6 11  2  0  0  0  0
  6 12  1  0  0  0  0
  7 13  1  0  0  0  0
  8  9  1  0  0  0  0
  8 19  1  0  0  0  0
  9 10  2  0  0  0  0
  9 20  1  0  0  0  0
 10 21  1  0  0  0  0
 11 14  1  0  0  0  0
 11 16  1  0  0  0  0
 12 15  2  0  0  0  0
 12 20  1  0  0  0  0
 13 17  1  0  0  0  0
 13 18  2  0  0  0  0
  1 22  1  0  0  0  0
  2 23  1  0  0  0  0
  3 24  1  0  0  0  0
  4 25  1  0  0  0  0
  5 26  1  0  0  0  0
 16 27  1  0  0  0  0
 17 28  1  0  0  0  0
 17 29  1  0  0  0  0
M  END
> <POSIT::Probability>
0.83

> <POSIT::Method>
SHAPEFIT

> <ReceptorTitle>
UCSF-P4609_LA2_MERGED(A)

> <OMEGA_C>
Tf8wwsNgA8JYgNc9obMtwkmt/cEUaWY+cB42wqBfA8IBvjA/tzxEwnBB5sFagbJAt0QywiHI68Hh
SrdA/BI8wvYQ6cHwOJJA7eRBwsAT58FKropA/o4vwv2D9MF1VGg/mr00wuRZ9MGUFr0/qv83wrWb
/cGMIbA/bGo7wkAT6cET7r5AgWk3wtWB6sG26HBAnSdFwiEb5sGmQ0ZAdJE2wrJY6sHA6dBAhJwy
wmvg68Fe64tAvFlAwjdn58GJqNFABqVKwl7a5MEQaUxAgCtDwuFL5sH8rv0/xmgswoS568G3oXg/
aG43wjfh58HEeQFAq3Q+wv/M/cGynAJAGJovwh/aBsLBCN6+zr0pwja4/cEwZVO+kZ84wmrhBsK6
ZB0/8nBIwjft5MELbLhAbmUuwoHm7MFy8sVAIwRBwhkS58EiL/FAitpMwl4j5MHdXBdAdWZMwrmp
5MHE8oJA

> <OMEGA_E>
GIL9Pg==

> <OMEGA_NBR>
     38813

$$$$
CACHE3HI_1702_20
  -OEChem-03092622513D

 40 42  0     1  0  0  0  0  0999 V2000
  -47.0365  -29.1074    6.0508 C   0  0  0  0  0  0  0  0  0  0  0  0
  -43.6029  -31.5065   -0.3128 C   0  0  0  0  0  0  0  0  0  0  0  0
  -45.8338  -31.4506    0.6817 C   0  0  0  0  0  0  0  0  0  0  0  0
  -48.4144  -29.0834    6.3699 C   0  0  0  0  0  0  0  0  0  0  0  0
  -43.7810  -32.8647   -0.6346 C   0  0  0  0  0  0  0  0  0  0  0  0
  -46.0092  -32.8102    0.3612 C   0  0  0  0  0  0  0  0  0  0  0  0
  -47.6078  -29.0553    3.6706 C   0  0  0  0  0  0  0  0  0  0  0  0
  -46.6347  -29.1113    4.6917 C   0  0  0  0  0  0  0  0  0  0  0  0
  -44.6353  -30.7866    0.3280 C   0  0  0  0  0  0  0  0  0  0  0  0
  -49.3640  -29.0624    5.3246 C   0  0  0  0  0  0  0  0  0  0  0  0
  -48.9484  -29.0437    3.9976 C   0  0  0  0  0  0  0  0  0  0  0  0
  -44.9890  -33.5131   -0.3097 C   0  0  0  0  0  0  0  0  0  0  0  0
  -51.1225  -29.0661    4.0290 C   0  0  0  0  0  0  0  0  0  0  0  0
  -45.2321  -29.1808    4.2809 C   0  0  0  0  0  0  0  0  0  0  0  0
  -44.4392  -29.3086    0.6523 C   0  0  0  0  0  0  0  0  0  0  0  0
  -42.6517  -29.8302    2.4284 C   0  0  0  0  0  0  0  0  0  0  0  0
  -43.9522  -29.0771    2.1095 C   0  0  2  0  0  0  0  0  0  0  0  0
  -50.7453  -29.0743    5.2935 N   0  0  0  0  0  0  0  0  0  0  0  0
  -52.4181  -29.0837    3.5504 N   0  0  0  0  0  0  0  0  0  0  0  0
  -45.0168  -29.5469    2.9657 N   0  0  0  0  0  0  0  0  0  0  0  0
  -44.3173  -28.8898    5.0427 O   0  0  0  0  0  0  0  0  0  0  0  0
  -50.0428  -29.0332    3.2081 O   0  0  0  0  0  0  0  0  0  0  0  0
  -41.6551  -29.5026    1.4682 O   0  0  0  0  0  0  0  0  0  0  0  0
  -45.1729  -34.8089   -0.6478 F   0  0  0  0  0  0  0  0  0  0  0  0
  -46.2962  -29.1226    6.8370 H   0  0  0  0  0  0  0  0  0  0  0  0
  -42.6737  -31.0129   -0.5565 H   0  0  0  0  0  0  0  0  0  0  0  0
  -46.6153  -30.9134    1.1984 H   0  0  0  0  0  0  0  0  0  0  0  0
  -48.7365  -29.0812    7.4008 H   0  0  0  0  0  0  0  0  0  0  0  0
  -42.9918  -33.4101   -1.1307 H   0  0  0  0  0  0  0  0  0  0  0  0
  -46.9258  -33.3144    0.6296 H   0  0  0  0  0  0  0  0  0  0  0  0
  -47.3036  -29.0216    2.6349 H   0  0  0  0  0  0  0  0  0  0  0  0
  -43.6921  -28.8921   -0.0394 H   0  0  0  0  0  0  0  0  0  0  0  0
  -45.3978  -28.7872    0.5140 H   0  0  0  0  0  0  0  0  0  0  0  0
  -42.3006  -29.5436    3.4308 H   0  0  0  0  0  0  0  0  0  0  0  0
  -42.8415  -30.9134    2.4022 H   0  0  0  0  0  0  0  0  0  0  0  0
  -43.7887  -28.0000    2.2612 H   0  0  0  0  0  0  0  0  0  0  0  0
  -53.0576  -29.1043    4.3189 H   0  0  0  0  0  0  0  0  0  0  0  0
  -52.5821  -28.2635    3.0023 H   0  0  0  0  0  0  0  0  0  0  0  0
  -45.6607  -30.2007    2.5681 H   0  0  0  0  0  0  0  0  0  0  0  0
  -40.8537  -29.9710    1.6705 H   0  0  0  0  0  0  0  0  0  0  0  0
  1  4  2  0  0  0  0
  1  8  1  0  0  0  0
  2  5  1  0  0  0  0
  2  9  2  0  0  0  0
  3  6  2  0  0  0  0
  3  9  1  0  0  0  0
  4 10  1  0  0  0  0
  5 12  2  0  0  0  0
  6 12  1  0  0  0  0
  7  8  2  0  0  0  0
  7 11  1  0  0  0  0
  8 14  1  0  0  0  0
  9 15  1  0  0  0  0
 10 11  2  0  0  0  0
 10 18  1  0  0  0  0
 11 22  1  0  0  0  0
 12 24  1  0  0  0  0
 13 18  2  0  0  0  0
 13 19  1  0  0  0  0
 13 22  1  0  0  0  0
 14 20  1  0  0  0  0
 14 21  2  0  0  0  0
 15 17  1  0  0  0  0
 16 17  1  0  0  0  0
 16 23  1  0  0  0  0
 17 20  1  0  0  0  0
  1 25  1  0  0  0  0
  2 26  1  0  0  0  0
  3 27  1  0  0  0  0
  4 28  1  0  0  0  0
  5 29  1  0  0  0  0
  6 30  1  0  0  0  0
  7 31  1  0  0  0  0
 15 32  1  0  0  0  0
 15 33  1  0  0  0  0
 16 34  1  0  0  0  0
 16 35  1  0  0  0  0
 17 36  1  0  0  0  0
 19 37  1  0  0  0  0
 19 38  1  0  0  0  0
 20 39  1  0  0  0  0
 23 40  1  0  0  0  0
M  END
> <POSIT::Probability>
0.25

> <POSIT::Method>
SHAPEFIT

> <ReceptorTitle>
UCSF-P4609_LA2_MERGED(A)

> <OMEGA_C>
ZyU8wvXb6MFqoMFAZmkuwjsN/MGmIaC+ylU3wsWa+8GsgC4/VKhBwtGq6MFj1stAxR8vwnx1A8Ks
dyK/dwk4wq49A8Il7rg+cG4+wklx6MGo6mpA8ok6wvfj6MF3IpZAlooywgVL9sHn7Kc+sHRFwtt/
6MHnYqpAM8tDwn1Z6MGg2H9AvPQzwmkNBsL/i56+cn1MwmOH6MHJ7YBApu00wi9y6cF5/YhAs8Ex
wg946sGK/CY/Tpsqwjek7sGmaxtAEs8vwvmd6MGHAQdAKftKwiGY6MF5ZKlAKKxRwner6MF4OWNA
QBE0wiFg7MFszj1A50Qxwk8e58GmXaFA1ytIwhNE6MHQUE1Ayp4mwmcF7MHr7Ls/ErE0wkQ8C8I6
2CW/VS85wiT76MEDydpA6rEqwmUa+MHgdQ6/F3Y6wo1O98HQY5k/L/JCwjSm6MEI0+xApfcrwv2j
BcLyu5C/ErQ7wvRBBcJCLSE/3DY9wkUs6MGzoShAqcQuwh0j58HaMyG9UZc1whhM5sEMkwM/2jMp
wkpZ7MGwkVtAsl0rwpFO98EpvhlArCcvwvv/38FRuBBABjtUwpvV6MFNNIpACFRSwqcb4sErJkBA
haQ2wgCb8cGGWyRAKWojwpDE78Hj0dU/

> <OMEGA_E>
xfqTPw==

> <OMEGA_NBR>
     40066

$$$$
CACHE3HI_1702_23
  -OEChem-03092622513D

 41 44  0     0  0  0  0  0  0999 V2000
  -43.5005  -32.0771   -0.8427 C   0  0  0  0  0  0  0  0  0  0  0  0
  -50.7654  -29.0299    1.6255 C   0  0  0  0  0  0  0  0  0  0  0  0
  -51.7208  -28.6375    2.5587 C   0  0  0  0  0  0  0  0  0  0  0  0
  -43.5301  -32.7680   -2.0950 C   0  0  0  0  0  0  0  0  0  0  0  0
  -44.3277  -32.3955    0.2515 C   0  0  0  0  0  0  0  0  0  0  0  0
  -49.4651  -29.3374    2.0344 C   0  0  0  0  0  0  0  0  0  0  0  0
  -51.3809  -28.5507    3.9067 C   0  0  0  0  0  0  0  0  0  0  0  0
  -44.3956  -33.8499   -2.3732 C   0  0  0  0  0  0  0  0  0  0  0  0
  -45.1656  -33.4602   -0.0527 C   0  0  0  0  0  0  0  0  0  0  0  0
  -49.0987  -29.2577    3.3866 C   0  0  0  0  0  0  0  0  0  0  0  0
  -50.0782  -28.8591    4.3173 C   0  0  0  0  0  0  0  0  0  0  0  0
  -45.2352  -34.1897   -1.2962 C   0  0  0  0  0  0  0  0  0  0  0  0
  -46.0876  -34.0141    0.7885 C   0  0  0  0  0  0  0  0  0  0  0  0
  -47.4786  -29.4698    5.1724 C   0  0  0  0  0  0  0  0  0  0  0  0
  -47.7325  -29.5757    3.8592 C   0  0  0  0  0  0  0  0  0  0  0  0
  -49.7302  -28.7628    5.7592 C   0  0  0  0  0  0  0  0  0  0  0  0
  -45.9935  -32.3896    2.7201 C   0  0  0  0  0  0  0  0  0  0  0  0
  -46.5060  -33.7211    2.2056 C   0  0  0  0  0  0  0  0  0  0  0  0
  -46.6715  -30.0023    2.8897 C   0  0  0  0  0  0  0  0  0  0  0  0
  -46.1730  -35.1484   -1.1916 N   0  0  0  0  0  0  0  0  0  0  0  0
  -46.6589  -35.0155    0.0582 N   0  0  0  0  0  0  0  0  0  0  0  0
  -48.4238  -29.0834    6.0837 N   0  0  0  0  0  0  0  0  0  0  0  0
  -46.9112  -31.3653    2.5043 N   0  0  0  0  0  0  0  0  0  0  0  0
  -50.5664  -28.4181    6.5886 O   0  0  0  0  0  0  0  0  0  0  0  0
  -44.8966  -32.2467    3.2540 O   0  0  0  0  0  0  0  0  0  0  0  0
  -42.7934  -31.2552   -0.7324 H   0  0  0  0  0  0  0  0  0  0  0  0
  -51.0312  -29.0973    0.5742 H   0  0  0  0  0  0  0  0  0  0  0  0
  -52.7301  -28.3994    2.2361 H   0  0  0  0  0  0  0  0  0  0  0  0
  -42.8456  -32.4397   -2.8766 H   0  0  0  0  0  0  0  0  0  0  0  0
  -44.2917  -31.8623    1.1912 H   0  0  0  0  0  0  0  0  0  0  0  0
  -48.7517  -29.6392    1.2720 H   0  0  0  0  0  0  0  0  0  0  0  0
  -52.1408  -28.2427    4.6196 H   0  0  0  0  0  0  0  0  0  0  0  0
  -44.4026  -34.3599   -3.3273 H   0  0  0  0  0  0  0  0  0  0  0  0
  -46.5036  -29.6852    5.5943 H   0  0  0  0  0  0  0  0  0  0  0  0
  -47.6007  -33.7246    2.2785 H   0  0  0  0  0  0  0  0  0  0  0  0
  -46.1464  -34.5202    2.8660 H   0  0  0  0  0  0  0  0  0  0  0  0
  -46.7015  -29.3488    2.0185 H   0  0  0  0  0  0  0  0  0  0  0  0
  -45.6934  -29.9157    3.3612 H   0  0  0  0  0  0  0  0  0  0  0  0
  -47.3900  -35.6517    0.3503 H   0  0  0  0  0  0  0  0  0  0  0  0
  -48.1395  -29.0317    7.0577 H   0  0  0  0  0  0  0  0  0  0  0  0
  -47.7824  -31.5822    2.0203 H   0  0  0  0  0  0  0  0  0  0  0  0
  1  4  1  0  0  0  0
  1  5  2  0  0  0  0
  2  3  1  0  0  0  0
  2  6  2  0  0  0  0
  3  7  2  0  0  0  0
  4  8  2  0  0  0  0
  5  9  1  0  0  0  0
  6 10  1  0  0  0  0
  7 11  1  0  0  0  0
  8 12  1  0  0  0  0
  9 12  1  0  0  0  0
  9 13  2  0  0  0  0
 10 11  2  0  0  0  0
 10 15  1  0  0  0  0
 11 16  1  0  0  0  0
 12 20  2  0  0  0  0
 13 18  1  0  0  0  0
 13 21  1  0  0  0  0
 14 15  2  0  0  0  0
 14 22  1  0  0  0  0
 15 19  1  0  0  0  0
 16 22  1  0  0  0  0
 16 24  2  0  0  0  0
 17 18  1  0  0  0  0
 17 23  1  0  0  0  0
 17 25  2  0  0  0  0
 19 23  1  0  0  0  0
 20 21  1  0  0  0  0
  1 26  1  0  0  0  0
  2 27  1  0  0  0  0
  3 28  1  0  0  0  0
  4 29  1  0  0  0  0
  5 30  1  0  0  0  0
  6 31  1  0  0  0  0
  7 32  1  0  0  0  0
  8 33  1  0  0  0  0
 14 34  1  0  0  0  0
 18 35  1  0  0  0  0
 18 36  1  0  0  0  0
 19 37  1  0  0  0  0
 19 38  1  0  0  0  0
 21 39  1  0  0  0  0
 22 40  1  0  0  0  0
 23 41  1  0  0  0  0
M  END
> <POSIT::Probability>
0.14

> <POSIT::Method>
HYBRID

> <ReceptorTitle>
UCSF-P4609-REFINED_LIGAND-BOUND-STATE_AALTB__DU__LA1_A-201(A)

> <OMEGA_C>
eQAuwv1OAMKYule/vw9LwiU96MHwDtA/EuJOwqEZ5cEdwiNAxh4uwmwSA8I+FQbAl08xwvKUAcKA
woA+QtxFwgCz6sFfNAJAD4ZNwr5n5MH7BnpAEZUxwklmB8LM4RfAlak0wknXBcIA+1e9CWVEwtQP
6sEDvlhAHFBIwlbf5sHsJopAzPA0wkjCCMI+66W/r1k4wnoOCMIg3Ek/Feo9wg3C68FAhKVAG+4+
wgeb7MFT/XZAwetGwjsa5sEAS7hAXvk3wvOOAcLHFS5AJwY6wmLiBsLFKA1AoK86wqEE8MF+8DhA
J7E4wu6XDMJch5i/uaI6wuAPDMIAV2497rFBwuWq6MHqrcJAD6U7wgns+sGmRSBA9kNKwjxY48Hg
1dJAJ5Yzwpf8AMJfQVBAcCwrwpsK+sH8ezu/5h9MwjrH6MH4ABM/mutSwuMx48E3HA9A62ErwkzC
AcIxGjjAuCoxwhPm/sGIeJg/uwFDwh8d7cED0qI/NJBQwvPw4cF005NAQpwxwoFwCcLK8lTAswM6
wlh77cF6BLNAFmc+wgnmBsJy0hFA4JU4wrMUCsIibDdAX846wkbK6sEELwFACMY2wkxT78HsHVdA
WY89wmGbDsIgXrM+3o5AwuNA6MHf2OFAMSE/wlyo/MHUTAFA

> <OMEGA_E>
EzDQwA==

> <OMEGA_NBR>
     41394

$$$$
CACHE3HI_1702_33
  -OEChem-03092622513D

 32 34  0     0  0  0  0  0  0999 V2000
  -48.4109  -28.9767    3.2146 C   0  0  0  0  0  0  0  0  0  0  0  0
  -49.1797  -29.5235    5.4389 C   0  0  0  0  0  0  0  0  0  0  0  0
  -49.7317  -28.9415    2.7674 C   0  0  0  0  0  0  0  0  0  0  0  0
  -50.5005  -29.4883    4.9917 C   0  0  0  0  0  0  0  0  0  0  0  0
  -45.7283  -29.6656    4.1640 C   0  0  0  0  0  0  0  0  0  0  0  0
  -41.4876  -30.7952    3.0001 C   0  0  0  0  0  0  0  0  0  0  0  0
  -46.4460  -28.9755    6.3241 C   0  0  0  0  0  0  0  0  0  0  0  0
  -44.2069  -29.3461    5.9641 C   0  0  0  0  0  0  0  0  0  0  0  0
  -42.1736  -30.2963    1.9174 C   0  0  0  0  0  0  0  0  0  0  0  0
  -48.1351  -29.2676    4.5505 C   0  0  0  0  0  0  0  0  0  0  0  0
  -46.7656  -29.3025    5.0157 C   0  0  0  0  0  0  0  0  0  0  0  0
  -44.4219  -29.6904    4.6393 C   0  0  0  0  0  0  0  0  0  0  0  0
  -50.7764  -29.1974    3.6558 C   0  0  0  0  0  0  0  0  0  0  0  0
  -43.3272  -30.0620    3.7811 C   0  0  0  0  0  0  0  0  0  0  0  0
  -52.1530  -29.1600    3.1891 C   0  0  0  0  0  0  0  0  0  0  0  0
  -45.1889  -28.9881    6.8214 N   0  0  0  0  0  0  0  0  0  0  0  0
  -42.2108  -30.6466    4.1566 N   0  0  0  0  0  0  0  0  0  0  0  0
  -43.3499  -29.8300    2.4336 N   0  0  0  0  0  0  0  0  0  0  0  0
  -52.3741  -28.8642    1.8473 N   0  0  0  0  0  0  0  0  0  0  0  0
  -53.1039  -29.4004    3.9539 O   0  0  0  0  0  0  0  0  0  0  0  0
  -47.6076  -28.7751    2.5101 H   0  0  0  0  0  0  0  0  0  0  0  0
  -48.9807  -29.7511    6.4838 H   0  0  0  0  0  0  0  0  0  0  0  0
  -49.9361  -28.7139    1.7241 H   0  0  0  0  0  0  0  0  0  0  0  0
  -51.3067  -29.6888    5.6927 H   0  0  0  0  0  0  0  0  0  0  0  0
  -45.9386  -29.9297    3.1291 H   0  0  0  0  0  0  0  0  0  0  0  0
  -40.5096  -31.2540    3.0048 H   0  0  0  0  0  0  0  0  0  0  0  0
  -47.2096  -28.6837    7.0396 H   0  0  0  0  0  0  0  0  0  0  0  0
  -43.2104  -29.3454    6.3966 H   0  0  0  0  0  0  0  0  0  0  0  0
  -41.9416  -30.2320    0.8642 H   0  0  0  0  0  0  0  0  0  0  0  0
  -44.0979  -29.3937    1.9106 H   0  0  0  0  0  0  0  0  0  0  0  0
  -51.6183  -28.6942    1.1928 H   0  0  0  0  0  0  0  0  0  0  0  0
  -53.3106  -28.8395    1.4578 H   0  0  0  0  0  0  0  0  0  0  0  0
  1  3  1  0  0  0  0
  1 10  2  0  0  0  0
  2  4  2  0  0  0  0
  2 10  1  0  0  0  0
  3 13  2  0  0  0  0
  4 13  1  0  0  0  0
  5 11  1  0  0  0  0
  5 12  2  0  0  0  0
  6  9  2  0  0  0  0
  6 17  1  0  0  0  0
  7 11  2  0  0  0  0
  7 16  1  0  0  0  0
  8 12  1  0  0  0  0
  8 16  2  0  0  0  0
  9 18  1  0  0  0  0
 10 11  1  0  0  0  0
 12 14  1  0  0  0  0
 13 15  1  0  0  0  0
 14 17  2  0  0  0  0
 14 18  1  0  0  0  0
 15 19  1  0  0  0  0
 15 20  2  0  0  0  0
  1 21  1  0  0  0  0
  2 22  1  0  0  0  0
  3 23  1  0  0  0  0
  4 24  1  0  0  0  0
  5 25  1  0  0  0  0
  6 26  1  0  0  0  0
  7 27  1  0  0  0  0
  8 28  1  0  0  0  0
  9 29  1  0  0  0  0
 18 30  1  0  0  0  0
 19 31  1  0  0  0  0
 19 32  1  0  0  0  0
M  END
> <POSIT::Probability>
0.24

> <POSIT::Method>
FRED

> <ReceptorTitle>
UCSF-P4609_LA2_MERGED(A)

> <OMEGA_C>
yKRBwljQ58Gcu01AC7hEwhow7MFSC65AR+1GwjqI58H0HDFAgABKwv7n68FivJ9AzOk2witT7cHY
P4VATfMlwqxc9sH0AUBAt8g5wrvN58FcX8pA6NMwwsTE6sGn2b5AxrEowsle8sGobPU/T4pAwhUk
6sHNnZFA/w87woBr6sHugKBAELAxwuyF7cE/dZRABBtLwjyU6cH+92lADU8twhJ/8MEC/XFAtJxQ
wrBH6cH4GkxAZ8E0wprn58ExSdpA1NcowlEs9cHaAoVATmYtwtOj7sFcwBtAHn9RwtXp5sG4cuw/
YWpUwgw068GUDH1ANm4+wm4z5sHApCBAOOxDwjkC7sHnes9Ahb5Hwh625cHAsNw/DzpNwpeC7cGv
KrZAKME3wg1w78HMQkhA1wkiwh8I+sFQT0BAm9Y8wiZ45cG/ROFAetcswlbD6sGisMxANMQnwhnb
8cFwPl0/Q2QwwmQm68FwjfQ/IXlOwsCN5cGArpg/Gj5Vwl+35sFAmbo/

> <OMEGA_E>
WQEAwQ==

> <OMEGA_NBR>
     42459

$$$$
CACHE3HI_1704_1
  -OEChem-03092622513D

 44 46  0     0  0  0  0  0  0999 V2000
  -49.8084  -32.5324    1.2492 C   0  0  0  0  0  0  0  0  0  0  0  0
  -50.6644  -31.6412    0.6021 C   0  0  0  0  0  0  0  0  0  0  0  0
  -48.9557  -32.0748    2.2536 C   0  0  0  0  0  0  0  0  0  0  0  0
  -43.3593  -27.3320    0.7207 C   0  0  0  0  0  0  0  0  0  0  0  0
  -45.7110  -27.5477    0.2103 C   0  0  0  0  0  0  0  0  0  0  0  0
  -43.4244  -28.4838    1.5048 C   0  0  0  0  0  0  0  0  0  0  0  0
  -45.7762  -28.6995    0.9944 C   0  0  0  0  0  0  0  0  0  0  0  0
  -50.6679  -30.2928    0.9594 C   0  0  0  0  0  0  0  0  0  0  0  0
  -48.9592  -30.7263    2.6110 C   0  0  0  0  0  0  0  0  0  0  0  0
  -44.5027  -26.8641    0.0734 C   0  0  0  0  0  0  0  0  0  0  0  0
  -44.6327  -29.1675    1.6417 C   0  0  0  0  0  0  0  0  0  0  0  0
  -49.8152  -29.8351    1.9639 C   0  0  0  0  0  0  0  0  0  0  0  0
  -46.7529  -30.3501    3.6033 C   0  0  0  0  0  0  0  0  0  0  0  0
  -48.4443  -29.6755    4.7840 C   0  0  0  0  0  0  0  0  0  0  0  0
  -51.9593  -30.7006    6.6911 C   0  0  0  0  0  0  0  0  0  0  0  0
  -43.1728  -25.0906   -0.7887 C   0  0  0  0  0  0  0  0  0  0  0  0
  -45.9682  -30.9383    2.5006 C   0  0  0  0  0  0  0  0  0  0  0  0
  -50.5437  -30.8542    6.1921 C   0  0  0  0  0  0  0  0  0  0  0  0
  -46.2770  -29.8257    4.7104 N   0  0  0  0  0  0  0  0  0  0  0  0
  -47.3535  -29.3963    5.4616 N   0  0  0  0  0  0  0  0  0  0  0  0
  -48.1126  -30.2766    3.6076 N   0  0  0  0  0  0  0  0  0  0  0  0
  -52.0732  -30.7758    8.0610 N   0  0  0  0  0  0  0  0  0  0  0  0
  -52.9149  -30.5348    5.9352 O   0  0  0  0  0  0  0  0  0  0  0  0
  -44.4397  -25.7402   -0.6921 O   0  0  0  0  0  0  0  0  0  0  0  0
  -44.6961  -30.2970    2.4110 O   0  0  0  0  0  0  0  0  0  0  0  0
  -49.8287  -28.5365    2.2976 F   0  0  0  0  0  0  0  0  0  0  0  0
  -50.0643  -29.3444    5.2813 S   0  0  0  0  0  0  0  0  0  0  0  0
  -49.8063  -33.5821    0.9709 H   0  0  0  0  0  0  0  0  0  0  0  0
  -51.3283  -31.9978   -0.1799 H   0  0  0  0  0  0  0  0  0  0  0  0
  -48.2931  -32.7800    2.7495 H   0  0  0  0  0  0  0  0  0  0  0  0
  -42.4151  -26.8041    0.6183 H   0  0  0  0  0  0  0  0  0  0  0  0
  -46.6055  -27.1882   -0.2913 H   0  0  0  0  0  0  0  0  0  0  0  0
  -42.5303  -28.8428    2.0075 H   0  0  0  0  0  0  0  0  0  0  0  0
  -46.7200  -29.2279    1.0961 H   0  0  0  0  0  0  0  0  0  0  0  0
  -51.3345  -29.5992    0.4556 H   0  0  0  0  0  0  0  0  0  0  0  0
  -43.2621  -24.2087   -1.4283 H   0  0  0  0  0  0  0  0  0  0  0  0
  -42.8538  -24.7829    0.2100 H   0  0  0  0  0  0  0  0  0  0  0  0
  -42.4382  -25.7833   -1.2058 H   0  0  0  0  0  0  0  0  0  0  0  0
  -45.7959  -32.0192    2.6455 H   0  0  0  0  0  0  0  0  0  0  0  0
  -46.4759  -30.8273    1.5257 H   0  0  0  0  0  0  0  0  0  0  0  0
  -49.8817  -30.9980    7.0510 H   0  0  0  0  0  0  0  0  0  0  0  0
  -50.4412  -31.7210    5.5333 H   0  0  0  0  0  0  0  0  0  0  0  0
  -51.2426  -30.9224    8.6254 H   0  0  0  0  0  0  0  0  0  0  0  0
  -52.9768  -30.6866    8.5134 H   0  0  0  0  0  0  0  0  0  0  0  0
  1  2  1  0  0  0  0
  1  3  2  0  0  0  0
  2  8  2  0  0  0  0
  3  9  1  0  0  0  0
  4  6  2  0  0  0  0
  4 10  1  0  0  0  0
  5  7  1  0  0  0  0
  5 10  2  0  0  0  0
  6 11  1  0  0  0  0
  7 11  2  0  0  0  0
  8 12  1  0  0  0  0
  9 12  2  0  0  0  0
  9 21  1  0  0  0  0
 10 24  1  0  0  0  0
 11 25  1  0  0  0  0
 12 26  1  0  0  0  0
 13 17  1  0  0  0  0
 13 19  2  0  0  0  0
 13 21  1  0  0  0  0
 14 20  2  0  0  0  0
 14 21  1  0  0  0  0
 14 27  1  0  0  0  0
 15 18  1  0  0  0  0
 15 22  1  0  0  0  0
 15 23  2  0  0  0  0
 16 24  1  0  0  0  0
 17 25  1  0  0  0  0
 18 27  1  0  0  0  0
 19 20  1  0  0  0  0
  1 28  1  0  0  0  0
  2 29  1  0  0  0  0
  3 30  1  0  0  0  0
  4 31  1  0  0  0  0
  5 32  1  0  0  0  0
  6 33  1  0  0  0  0
  7 34  1  0  0  0  0
  8 35  1  0  0  0  0
 16 36  1  0  0  0  0
 16 37  1  0  0  0  0
 16 38  1  0  0  0  0
 17 39  1  0  0  0  0
 17 40  1  0  0  0  0
 18 41  1  0  0  0  0
 18 42  1  0  0  0  0
 22 43  1  0  0  0  0
 22 44  1  0  0  0  0
M  END
> <POSIT::Probability>
0.05

> <POSIT::Method>
FRED

> <ReceptorTitle>
UCSF-P4609_LA2_MERGED(A)

> <OMEGA_C>
yjtHwjAhAsJI5J8/U6hKwi0h/cFiIBo/odJDwoxMAMLbOhBA5W8twu6n2sHcgTg/Ctg2wr5h3MFg
ZFc+m7ItwuTe48HUnMA/yRo3wp6Y5cGCjn4/9atKwpZX8sE4nXU/QtZDwoHP9cESGidAyQIywqzp
1sFwT5Y93ocywvZW6cFmJNI/v0JHwlGu7sFyYfs/+wI7whnN8sHom2ZA/8ZBwoRn7cGvFplAX9ZP
wtSa9cGRHdZA/rAswpC5yMEq6km/ad83wq2B98GBCSBAxyxKwnfV9sFxJcZAsRs5wiCb7sHGu5ZA
/2k9wrYr68HUxa5AUnNAwow28sH+4mZA60pQwt809sHA+QBB56hTwj1H9MFs7b1APsIxwuHrzcEy
KzG/w8gywitg8sExThpAm1BHwrVK5MF7DBNA1UFIwlnB6sGfAKlAsTlHwgVUBsKsiXg/MVBNwoH7
/8FsRDi+GixBwrUeA8IS+C9AB6kpws5u1sF+Rh4/B2w6wnuB2cHOI5W+DB8qwia+5sGNegBAQ+E6
wszS6cGPTow/j1ZNwjzL7MFsQOk+XQwtwmSrwcHd07a/QmorwmRDxsFwBVc+wMApwilEzsGRV5q/
+y43wqsTAMLcTylASuc5wlWe9sHiScM/3IZHwuz798FjoeFA18NJwovE/cHUELFAYfhMwhph98HA
AQpBN+hTwhd+9cHKNghB

> <OMEGA_E>
nNvNwA==

> <OMEGA_NBR>
     43761

$$$$
CACHE3HI_1704_98
  -OEChem-03092622513D

 37 38  0     0  0  0  0  0  0999 V2000
  -49.1705  -28.6998    2.0294 C   0  0  0  0  0  0  0  0  0  0  0  0
  -50.3298  -29.3467    2.4575 C   0  0  0  0  0  0  0  0  0  0  0  0
  -46.0671  -30.7320    4.0820 C   0  0  0  0  0  0  0  0  0  0  0  0
  -48.1860  -28.3500    2.9535 C   0  0  0  0  0  0  0  0  0  0  0  0
  -46.3488  -31.2242    2.8075 C   0  0  0  0  0  0  0  0  0  0  0  0
  -50.5045  -29.6441    3.8091 C   0  0  0  0  0  0  0  0  0  0  0  0
  -44.0907  -29.6401    3.2223 C   0  0  0  0  0  0  0  0  0  0  0  0
  -44.9379  -29.9401    4.2893 C   0  0  0  0  0  0  0  0  0  0  0  0
  -48.3608  -28.6474    4.3052 C   0  0  0  0  0  0  0  0  0  0  0  0
  -45.5016  -30.9242    1.7406 C   0  0  0  0  0  0  0  0  0  0  0  0
  -44.3723  -30.1321    1.9479 C   0  0  0  0  0  0  0  0  0  0  0  0
  -49.5200  -29.2943    4.7333 C   0  0  0  0  0  0  0  0  0  0  0  0
  -44.6443  -29.4280    5.6185 C   0  0  0  0  0  0  0  0  0  0  0  0
  -45.2414  -32.6812    0.1587 C   0  0  0  0  0  0  0  0  0  0  0  0
  -42.4565  -30.7297    0.6713 C   0  0  0  0  0  0  0  0  0  0  0  0
  -47.2998  -28.2690    5.2960 C   0  0  0  0  0  0  0  0  0  0  0  0
  -45.5711  -29.1594    6.4934 N   0  0  0  0  0  0  0  0  0  0  0  0
  -45.7892  -31.4091    0.5005 O   0  0  0  0  0  0  0  0  0  0  0  0
  -43.5381  -29.8316    0.9140 O   0  0  0  0  0  0  0  0  0  0  0  0
  -46.8273  -29.4422    5.9395 O   0  0  0  0  0  0  0  0  0  0  0  0
  -49.6965  -29.5832    6.0300 F   0  0  0  0  0  0  0  0  0  0  0  0
  -49.0345  -28.4683    0.9768 H   0  0  0  0  0  0  0  0  0  0  0  0
  -51.0966  -29.6186    1.7379 H   0  0  0  0  0  0  0  0  0  0  0  0
  -46.7343  -30.9718    4.9061 H   0  0  0  0  0  0  0  0  0  0  0  0
  -47.2856  -27.8465    2.6117 H   0  0  0  0  0  0  0  0  0  0  0  0
  -47.2305  -31.8399    2.6517 H   0  0  0  0  0  0  0  0  0  0  0  0
  -51.4074  -30.1476    4.1418 H   0  0  0  0  0  0  0  0  0  0  0  0
  -43.2094  -29.0229    3.3808 H   0  0  0  0  0  0  0  0  0  0  0  0
  -43.5755  -29.2633    5.8854 H   0  0  0  0  0  0  0  0  0  0  0  0
  -45.5470  -32.9502   -0.8557 H   0  0  0  0  0  0  0  0  0  0  0  0
  -44.1513  -32.6231    0.2052 H   0  0  0  0  0  0  0  0  0  0  0  0
  -45.5942  -33.4332    0.8683 H   0  0  0  0  0  0  0  0  0  0  0  0
  -41.8696  -30.3736   -0.1793 H   0  0  0  0  0  0  0  0  0  0  0  0
  -41.8207  -30.7688    1.5590 H   0  0  0  0  0  0  0  0  0  0  0  0
  -42.8499  -31.7275    0.4639 H   0  0  0  0  0  0  0  0  0  0  0  0
  -46.4612  -27.7711    4.7978 H   0  0  0  0  0  0  0  0  0  0  0  0
  -47.6986  -27.5819    6.0508 H   0  0  0  0  0  0  0  0  0  0  0  0
  1  2  1  0  0  0  0
  1  4  2  0  0  0  0
  2  6  2  0  0  0  0
  3  5  2  0  0  0  0
  3  8  1  0  0  0  0
  4  9  1  0  0  0  0
  5 10  1  0  0  0  0
  6 12  1  0  0  0  0
  7  8  2  0  0  0  0
  7 11  1  0  0  0  0
  8 13  1  0  0  0  0
  9 12  2  0  0  0  0
  9 16  1  0  0  0  0
 10 11  2  0  0  0  0
 10 18  1  0  0  0  0
 11 19  1  0  0  0  0
 12 21  1  0  0  0  0
 13 17  2  0  0  0  0
 14 18  1  0  0  0  0
 15 19  1  0  0  0  0
 16 20  1  0  0  0  0
 17 20  1  0  0  0  0
  1 22  1  0  0  0  0
  2 23  1  0  0  0  0
  3 24  1  0  0  0  0
  4 25  1  0  0  0  0
  5 26  1  0  0  0  0
  6 27  1  0  0  0  0
  7 28  1  0  0  0  0
 13 29  1  0  0  0  0
 14 30  1  0  0  0  0
 14 31  1  0  0  0  0
 14 32  1  0  0  0  0
 15 33  1  0  0  0  0
 15 34  1  0  0  0  0
 15 35  1  0  0  0  0
 16 36  1  0  0  0  0
 16 37  1  0  0  0  0
M  END
> <POSIT::Probability>
0.18

> <POSIT::Method>
HYBRID

> <ReceptorTitle>
UCSF-P4609-REFINED_LIGAND-BOUND-STATE_AALTB__DU__LA1_A-201(A)

> <OMEGA_C>
k65Ewj+Z5cEk4gFAs1FJwiDG6sEERx1AuUQ4wj3b9cGFn4JAgb5AwubM4sGeBj1AJmU5whHL+cGW
rjNApwRKwhUn7cEEyXNA5Fwwwtse7cGgOk5AXsAzwjyF78GtQYlAdHFBwtot5cFOxIlArAE2wrNk
98Gwy94/R30xwqEO8cF0Vfk/hxRGwrJa6sHmdpdAzJMywnJs68HGyrNAOvc0woa5AsJAiSI+ftMp
wlrW9cGg2ys/BDM9wtQm4sG3eKlAw0g2wn5G6cESys9AJig3wvBF+8EAIAA/BCcuwi+n7sGA/Gk/
IU87wqGJ68GAEL5AQMlGwmaq7MGV9cBAXSNEwg6/48GAEXo/8GJMwu/y7MHQc94/+e86wkzG98H+
/pxAfyQ9wojF3sGAJidAAew8wg+4/sFYtSlAMqFNwmAu8cFQiYRAdtYswvQu6MFIX1hASE0uwjIb
6sHTVLxAJzA2wv7MA8IgEFu/75owwhB+AsKAHVI+dWA2wpi7BcIQRl4/fXonwjz98sEApje+XUgn
wn4m9sHQjsc/WWYrwtXR/cGAge0+SNg5wiQr3sGfh5lAZ8s+wsan3MEmoMFA

> <OMEGA_E>
BVvIwA==

> <OMEGA_NBR>
     44999

$$$$
CACHE3HI_1706_90
  -OEChem-03092622513D

 46 48  0     1  0  0  0  0  0999 V2000
  -51.0283  -29.0849    4.2790 C   0  0  0  0  0  0  0  0  0  0  0  0
  -50.6966  -30.0841    3.3639 C   0  0  0  0  0  0  0  0  0  0  0  0
  -50.0593  -28.1726    4.6962 C   0  0  0  0  0  0  0  0  0  0  0  0
  -49.3964  -30.1709    2.8661 C   0  0  0  0  0  0  0  0  0  0  0  0
  -48.7591  -28.2594    4.1984 C   0  0  0  0  0  0  0  0  0  0  0  0
  -44.7331  -34.2662   -2.0324 C   0  0  0  0  0  0  0  0  0  0  0  0
  -45.8613  -34.5854   -1.2823 C   0  0  0  0  0  0  0  0  0  0  0  0
  -44.0142  -32.7201   -0.3052 C   0  0  0  0  0  0  0  0  0  0  0  0
  -45.1617  -33.0274    0.4460 C   0  0  0  0  0  0  0  0  0  0  0  0
  -48.4274  -29.2585    3.2834 C   0  0  0  0  0  0  0  0  0  0  0  0
  -43.8153  -33.3341   -1.5488 C   0  0  0  0  0  0  0  0  0  0  0  0
  -46.0745  -33.9697   -0.0487 C   0  0  0  0  0  0  0  0  0  0  0  0
  -44.7376  -30.2931    3.0401 C   0  0  0  0  0  0  0  0  0  0  0  0
  -46.9664  -29.6379    5.8760 C   0  0  0  0  0  0  0  0  0  0  0  0
  -43.0262  -31.7006    0.1940 C   0  0  0  0  0  0  0  0  0  0  0  0
  -45.4296  -32.3783    1.7815 C   0  0  0  0  0  0  0  0  0  0  0  0
  -43.0832  -31.5555    1.7099 C   0  0  0  0  0  0  0  0  0  0  0  0
  -47.0204  -29.3521    2.7450 C   0  0  0  0  0  0  0  0  0  0  0  0
  -46.1366  -30.2457    3.6047 C   0  0  2  0  0  0  0  0  0  0  0  0
  -44.4571  -31.3442    2.1630 N   0  0  0  0  0  0  0  0  0  0  0  0
  -46.5198  -29.1256    7.0812 N   0  0  0  0  0  0  0  0  0  0  0  0
  -45.9444  -29.7442    4.9347 N   0  0  0  0  0  0  0  0  0  0  0  0
  -43.9251  -29.4228    3.3634 O   0  0  0  0  0  0  0  0  0  0  0  0
  -48.1379  -29.9571    5.6806 O   0  0  0  0  0  0  0  0  0  0  0  0
  -42.7226  -33.0400   -2.3112 O   0  0  0  0  0  0  0  0  0  0  0  0
  -47.1637  -34.2918    0.6643 F   0  0  0  0  0  0  0  0  0  0  0  0
  -52.0405  -29.0173    4.6666 H   0  0  0  0  0  0  0  0  0  0  0  0
  -51.4512  -30.7943    3.0386 H   0  0  0  0  0  0  0  0  0  0  0  0
  -50.3173  -27.3947    5.4088 H   0  0  0  0  0  0  0  0  0  0  0  0
  -49.1474  -30.9529    2.1536 H   0  0  0  0  0  0  0  0  0  0  0  0
  -48.0112  -27.5434    4.5287 H   0  0  0  0  0  0  0  0  0  0  0  0
  -44.5724  -34.7487   -2.9933 H   0  0  0  0  0  0  0  0  0  0  0  0
  -46.5734  -35.3149   -1.6546 H   0  0  0  0  0  0  0  0  0  0  0  0
  -42.0188  -32.0051   -0.1152 H   0  0  0  0  0  0  0  0  0  0  0  0
  -43.2312  -30.7191   -0.2497 H   0  0  0  0  0  0  0  0  0  0  0  0
  -46.4106  -31.8883    1.7535 H   0  0  0  0  0  0  0  0  0  0  0  0
  -45.4561  -33.1573    2.5493 H   0  0  0  0  0  0  0  0  0  0  0  0
  -42.6425  -32.4387    2.1838 H   0  0  0  0  0  0  0  0  0  0  0  0
  -42.5002  -30.6858    2.0391 H   0  0  0  0  0  0  0  0  0  0  0  0
  -47.0656  -29.7366    1.7165 H   0  0  0  0  0  0  0  0  0  0  0  0
  -46.5907  -28.3447    2.6584 H   0  0  0  0  0  0  0  0  0  0  0  0
  -46.5065  -31.2686    3.6728 H   0  0  0  0  0  0  0  0  0  0  0  0
  -45.5491  -28.8682    7.2233 H   0  0  0  0  0  0  0  0  0  0  0  0
  -47.1535  -28.9916    7.8615 H   0  0  0  0  0  0  0  0  0  0  0  0
  -45.0157  -29.4185    5.2048 H   0  0  0  0  0  0  0  0  0  0  0  0
  -42.7625  -33.5664   -3.1293 H   0  0  0  0  0  0  0  0  0  0  0  0
  1  2  1  0  0  0  0
  1  3  2  0  0  0  0
  2  4  2  0  0  0  0
  3  5  1  0  0  0  0
  4 10  1  0  0  0  0
  5 10  2  0  0  0  0
  6  7  1  0  0  0  0
  6 11  2  0  0  0  0
  7 12  2  0  0  0  0
  8  9  2  0  0  0  0
  8 11  1  0  0  0  0
  8 15  1  0  0  0  0
  9 12  1  0  0  0  0
  9 16  1  0  0  0  0
 10 18  1  0  0  0  0
 11 25  1  0  0  0  0
 12 26  1  0  0  0  0
 13 19  1  0  0  0  0
 13 20  1  0  0  0  0
 13 23  2  0  0  0  0
 14 21  1  0  0  0  0
 14 22  1  0  0  0  0
 14 24  2  0  0  0  0
 15 17  1  0  0  0  0
 16 20  1  0  0  0  0
 17 20  1  0  0  0  0
 18 19  1  0  0  0  0
 19 22  1  0  0  0  0
  1 27  1  0  0  0  0
  2 28  1  0  0  0  0
  3 29  1  0  0  0  0
  4 30  1  0  0  0  0
  5 31  1  0  0  0  0
  6 32  1  0  0  0  0
  7 33  1  0  0  0  0
 15 34  1  0  0  0  0
 15 35  1  0  0  0  0
 16 36  1  0  0  0  0
 16 37  1  0  0  0  0
 17 38  1  0  0  0  0
 17 39  1  0  0  0  0
 18 40  1  0  0  0  0
 18 41  1  0  0  0  0
 19 42  1  0  0  0  0
 21 43  1  0  0  0  0
 21 44  1  0  0  0  0
 22 45  1  0  0  0  0
 25 46  1  0  0  0  0
M  END
> <POSIT::Probability>
0.23

> <POSIT::Method>
HYBRID

> <ReceptorTitle>
UCSF-P4609-REFINED_LIGAND-BOUND-STATE_AALTB__DU__LA1_A-201(A)

> <OMEGA_C>
AR1MwuWt6MFQ7YhAXslKwkqs8MHsSldAuDxIwnth4cGaR5ZA75VFwgNe8cH6bTdASAlDwjQT4sEf
WYZAtu4ywosQCcJFEwLA9HE3wm5XCsIiI6S/lA4wwmXhAsJgP5y+kKU0whkcBMJwW+Q+oLVBwoER
6sEUI1JA10IvwiBWBcK2P8a/VEw4wu3gB8KAiEe9QfMywktY8sHEkUJAlN07wmwa7cHyB7xA3Ros
wrqa/cEgoEY+6Lc1wmSDAcJICOQ/KlUswqxx/MFA39o/3BQ8winR6sEOri9A1Is4wjj38cHQsmZA
H9QxwtjA+sHubQpAPhQ6wlAB6cFfmeJAEMc3wgj07cHm6J1ARLMvwuhh68GyQldAOY1Awjao78GF
x7VA8OMqwv0oBMIS6hPApKc8wsIqCcIgDSo/gSlQwnoj6MEBVZVABM5Nwspa9sEKeUJA4kRJwkgo
28H9FK1A6JZEwpCf98FQ1AlAcgtAwstY3MHW6pBAGkoywqn+CsJAkj/AMUs6woFCDcIiy9O/SRMo
wjEFAMIA9+u9vuwswrbA9cHgqX++dKQ5wj8b/8FYceA/CtM1whyhBMJYJyNA4JEqwi/BAcImwwtA
PgAqwo589cGkgAJAMEM8woTk7cG8tNs/51w6wvnB4sH6IypAnwY6whEm+sGYDmtAPjI2whny5sHq
JOdAOJ08wrPu58EikftADxA0wi9Z68FcjaZA2Qwrwv5DBsI8RkjA

> <OMEGA_E>
yLDjwA==

> <OMEGA_NBR>
     46423

$$$$
CACHE3HI_1707_83
  -OEChem-03092622513D

 39 40  0     0  0  0  0  0  0999 V2000
  -42.9780  -27.5787    2.1575 C   0  0  0  0  0  0  0  0  0  0  0  0
  -42.7654  -28.9492    2.4388 C   0  0  0  0  0  0  0  0  0  0  0  0
  -43.2828  -27.5065    0.8180 C   0  0  0  0  0  0  0  0  0  0  0  0
  -42.9552  -29.6170    1.2515 C   0  0  0  0  0  0  0  0  0  0  0  0
  -43.5901  -26.3985   -0.0204 C   0  0  0  0  0  0  0  0  0  0  0  0
  -48.4763  -31.6676    2.4068 C   0  0  0  0  0  0  0  0  0  0  0  0
  -46.8316  -31.8561    0.4966 C   0  0  0  0  0  0  0  0  0  0  0  0
  -46.1960  -32.5723    2.7786 C   0  0  0  0  0  0  0  0  0  0  0  0
  -45.4944  -31.1385    0.3519 C   0  0  0  0  0  0  0  0  0  0  0  0
  -44.8611  -31.8519    2.6339 C   0  0  0  0  0  0  0  0  0  0  0  0
  -49.4879  -31.0192    4.4606 C   0  0  0  0  0  0  0  0  0  0  0  0
  -48.7528  -29.7881    4.9229 C   0  0  0  0  0  0  0  0  0  0  0  0
  -47.2107  -31.9842    1.9062 N   0  0  0  0  0  0  0  0  0  0  0  0
  -44.4650  -31.8144    1.1953 N   0  0  0  0  0  0  0  0  0  0  0  0
  -42.5407  -25.7390   -0.6853 N   0  0  0  0  0  0  0  0  0  0  0  0
  -44.7687  -25.9928   -0.2059 O   0  0  0  0  0  0  0  0  0  0  0  0
  -49.4079  -31.2479    1.7211 O   0  0  0  0  0  0  0  0  0  0  0  0
  -41.9847  -31.9479    1.8856 O   0  0  0  0  0  0  0  0  0  0  0  0
  -42.5699  -31.4853   -0.5210 O   0  0  0  0  0  0  0  0  0  0  0  0
  -43.2705  -28.7447    0.2586 O   0  0  0  0  0  0  0  0  0  0  0  0
  -48.5770  -31.8726    3.7577 O   0  0  0  0  0  0  0  0  0  0  0  0
  -47.7308  -30.1234    5.7384 F   0  0  0  0  0  0  0  0  0  0  0  0
  -49.5690  -28.9582    5.6065 F   0  0  0  0  0  0  0  0  0  0  0  0
  -48.2386  -29.1040    3.8793 F   0  0  0  0  0  0  0  0  0  0  0  0
  -42.8450  -31.3417    0.8927 S   0  0  0  0  0  0  0  0  0  0  0  0
  -42.9160  -26.7498    2.8482 H   0  0  0  0  0  0  0  0  0  0  0  0
  -42.5060  -29.3921    3.3897 H   0  0  0  0  0  0  0  0  0  0  0  0
  -47.5968  -31.3287   -0.0793 H   0  0  0  0  0  0  0  0  0  0  0  0
  -46.7620  -32.8746    0.0957 H   0  0  0  0  0  0  0  0  0  0  0  0
  -46.0955  -33.6240    2.4843 H   0  0  0  0  0  0  0  0  0  0  0  0
  -46.5214  -32.5519    3.8234 H   0  0  0  0  0  0  0  0  0  0  0  0
  -45.1831  -31.1741   -0.6978 H   0  0  0  0  0  0  0  0  0  0  0  0
  -45.5860  -30.0879    0.6511 H   0  0  0  0  0  0  0  0  0  0  0  0
  -44.9283  -30.8305    3.0261 H   0  0  0  0  0  0  0  0  0  0  0  0
  -44.1000  -32.3936    3.2059 H   0  0  0  0  0  0  0  0  0  0  0  0
  -49.8949  -31.5671    5.3151 H   0  0  0  0  0  0  0  0  0  0  0  0
  -50.3066  -30.7479    3.7875 H   0  0  0  0  0  0  0  0  0  0  0  0
  -41.5786  -26.0458   -0.5926 H   0  0  0  0  0  0  0  0  0  0  0  0
  -42.6969  -24.9545   -1.3093 H   0  0  0  0  0  0  0  0  0  0  0  0
  1  2  1  0  0  0  0
  1  3  2  0  0  0  0
  2  4  2  0  0  0  0
  3  5  1  0  0  0  0
  3 20  1  0  0  0  0
  4 20  1  0  0  0  0
  4 25  1  0  0  0  0
  5 15  1  0  0  0  0
  5 16  2  0  0  0  0
  6 13  1  0  0  0  0
  6 17  2  0  0  0  0
  6 21  1  0  0  0  0
  7  9  1  0  0  0  0
  7 13  1  0  0  0  0
  8 10  1  0  0  0  0
  8 13  1  0  0  0  0
  9 14  1  0  0  0  0
 10 14  1  0  0  0  0
 11 12  1  0  0  0  0
 11 21  1  0  0  0  0
 12 22  1  0  0  0  0
 12 23  1  0  0  0  0
 12 24  1  0  0  0  0
 14 25  1  0  0  0  0
 18 25  2  0  0  0  0
 19 25  2  0  0  0  0
  1 26  1  0  0  0  0
  2 27  1  0  0  0  0
  7 28  1  0  0  0  0
  7 29  1  0  0  0  0
  8 30  1  0  0  0  0
  8 31  1  0  0  0  0
  9 32  1  0  0  0  0
  9 33  1  0  0  0  0
 10 34  1  0  0  0  0
 10 35  1  0  0  0  0
 11 36  1  0  0  0  0
 11 37  1  0  0  0  0
 15 38  1  0  0  0  0
 15 39  1  0  0  0  0
M  END
> <POSIT::Probability>
0.05

> <POSIT::Method>
FRED

> <ReceptorTitle>
UCSF-P4609-REFINED_LIGAND-BOUND-STATE_AALTB__DU__LA1_A-201(A)

> <OMEGA_C>
fukrwkKh3MG2EwpAwQ8rwuaX58EKFRxAoiEtwj4N3MHYaVE/H9IrwpTv7MFIMaA/Tlwuwhww08EA
QKe8sudBwjhX/cGeCBpAglM7wjzZ/sHwPP4+qsg4wgFKAsLc0zFAQPo1wrsb+cFwKbQ+xHEzwsTQ
/sGSkihAk/NFwl8n+MFQvY5A6AJDwh5O7sGuiJ1Aytc8wp/f/8G8//M/KtwxwtKD/sEc/pg/tSkq
wpPpzcH4cS+/IhMzwi3xz8Fg0FK+pqFFwsr7+cEETtw/U/AnwmKV/8GIWvE/nUcqws3h+8FgXQW/
BRUtwiv15cFgYYQ+4k5Cwg/7/sH8fXBAWew+wsr88MFEobdAr0ZGwleq58FdaLNASPRAwgjV6MEb
R3hAQGErwua7+sHYhGQ/A6orwpH/1cGySTZAJgYqwgAj68FQ8VhAH2M+wh6h+sEAbKK9Qww7wo9/
A8LAB8Q9ymE4wv5+BsIe/x5A5xU6wi41AsLKsXRAfrs0wnlk+cEAojK/B1g2wh+08MEgriY/nbYz
wu6k9sGEq0FAZWYwwguTAcJqLU1Aa5RHwliJ/MEvFapAAjpJwqr79cEsZ3JAc1Amws5d0MHgthe/
pskqwsGix8G0l6e/

> <OMEGA_E>
SuTiwA==

> <OMEGA_NBR>
     47697

$$$$
CACHE3HI_1708_57
  -OEChem-03092622513D

 37 39  0     0  0  0  0  0  0999 V2000
  -43.5247  -33.2666   -2.5697 C   0  0  0  0  0  0  0  0  0  0  0  0
  -44.6501  -33.9869   -2.1693 C   0  0  0  0  0  0  0  0  0  0  0  0
  -42.9340  -32.3543   -1.6956 C   0  0  0  0  0  0  0  0  0  0  0  0
  -46.5438  -29.6328    2.0388 C   0  0  0  0  0  0  0  0  0  0  0  0
  -45.4067  -30.2540    1.5222 C   0  0  0  0  0  0  0  0  0  0  0  0
  -44.5937  -32.8827   -0.0209 C   0  0  0  0  0  0  0  0  0  0  0  0
  -44.5755  -30.5995    3.7644 C   0  0  0  0  0  0  0  0  0  0  0  0
  -49.1125  -27.7819    5.0993 C   0  0  0  0  0  0  0  0  0  0  0  0
  -49.0691  -28.8647    3.3152 C   0  0  0  0  0  0  0  0  0  0  0  0
  -45.1845  -33.7951   -0.8950 C   0  0  0  0  0  0  0  0  0  0  0  0
  -43.4683  -32.1625   -0.4214 C   0  0  0  0  0  0  0  0  0  0  0  0
  -46.6966  -29.4951    3.4183 C   0  0  0  0  0  0  0  0  0  0  0  0
  -44.4226  -30.7372    2.3848 C   0  0  0  0  0  0  0  0  0  0  0  0
  -45.7126  -29.9783    4.2809 C   0  0  0  0  0  0  0  0  0  0  0  0
  -46.3579  -34.5461   -0.4777 C   0  0  0  0  0  0  0  0  0  0  0  0
  -42.8351  -31.1883    0.5139 C   0  0  0  0  0  0  0  0  0  0  0  0
  -49.9039  -28.1762    4.0583 N   0  0  0  0  0  0  0  0  0  0  0  0
  -47.8409  -28.1835    5.0464 N   0  0  0  0  0  0  0  0  0  0  0  0
  -47.8396  -28.8736    3.8960 N   0  0  0  0  0  0  0  0  0  0  0  0
  -46.8510  -34.3172    0.8035 N   0  0  0  0  0  0  0  0  0  0  0  0
  -43.2921  -31.3543    1.8698 N   0  0  0  0  0  0  0  0  0  0  0  0
  -46.9163  -35.3535   -1.2410 O   0  0  0  0  0  0  0  0  0  0  0  0
  -45.8552  -29.8291    5.9978 Cl  0  0  0  0  0  0  0  0  0  0  0  0
  -43.1093  -33.4151   -3.5621 H   0  0  0  0  0  0  0  0  0  0  0  0
  -45.1035  -34.6946   -2.8587 H   0  0  0  0  0  0  0  0  0  0  0  0
  -42.0576  -31.7972   -2.0161 H   0  0  0  0  0  0  0  0  0  0  0  0
  -47.3020  -29.2625    1.3529 H   0  0  0  0  0  0  0  0  0  0  0  0
  -45.2979  -30.3570    0.4455 H   0  0  0  0  0  0  0  0  0  0  0  0
  -45.0087  -32.7330    0.9733 H   0  0  0  0  0  0  0  0  0  0  0  0
  -43.8041  -30.9771    4.4324 H   0  0  0  0  0  0  0  0  0  0  0  0
  -49.4740  -27.1824    5.9215 H   0  0  0  0  0  0  0  0  0  0  0  0
  -49.2999  -29.3605    2.3820 H   0  0  0  0  0  0  0  0  0  0  0  0
  -41.7418  -31.2969    0.5185 H   0  0  0  0  0  0  0  0  0  0  0  0
  -43.0493  -30.1512    0.2213 H   0  0  0  0  0  0  0  0  0  0  0  0
  -46.4359  -33.6429    1.4371 H   0  0  0  0  0  0  0  0  0  0  0  0
  -47.6761  -34.7975    1.1468 H   0  0  0  0  0  0  0  0  0  0  0  0
  -42.7578  -31.9584    2.4871 H   0  0  0  0  0  0  0  0  0  0  0  0
  1  2  2  0  0  0  0
  1  3  1  0  0  0  0
  2 10  1  0  0  0  0
  3 11  2  0  0  0  0
  4  5  2  0  0  0  0
  4 12  1  0  0  0  0
  5 13  1  0  0  0  0
  6 10  2  0  0  0  0
  6 11  1  0  0  0  0
  7 13  2  0  0  0  0
  7 14  1  0  0  0  0
  8 17  1  0  0  0  0
  8 18  2  0  0  0  0
  9 17  2  0  0  0  0
  9 19  1  0  0  0  0
 10 15  1  0  0  0  0
 11 16  1  0  0  0  0
 12 14  2  0  0  0  0
 12 19  1  0  0  0  0
 13 21  1  0  0  0  0
 14 23  1  0  0  0  0
 15 20  1  0  0  0  0
 15 22  2  0  0  0  0
 16 21  1  0  0  0  0
 18 19  1  0  0  0  0
  1 24  1  0  0  0  0
  2 25  1  0  0  0  0
  3 26  1  0  0  0  0
  4 27  1  0  0  0  0
  5 28  1  0  0  0  0
  6 29  1  0  0  0  0
  7 30  1  0  0  0  0
  8 31  1  0  0  0  0
  9 32  1  0  0  0  0
 16 33  1  0  0  0  0
 16 34  1  0  0  0  0
 20 35  1  0  0  0  0
 20 36  1  0  0  0  0
 21 37  1  0  0  0  0
M  END
> <POSIT::Probability>
0.18

> <POSIT::Method>
HYBRID

> <ReceptorTitle>
UCSF-P4609-REFINED_LIGAND-BOUND-STATE_AALTB__DU__LA1_A-201(A)

> <OMEGA_C>
URkuwgURBcL0dSTAwJkywpLyB8JO1QrAXrwrwsNqAcLwCdm/zSw6wvwP7cH0egJAbKA1wkAI8sFY
18I/+F8ywuGHA8IAkqu8Uk0ywrPL9MFQ7HBAOnNEwlhB3sERLaNAyEZEwvjq5sG2LFRA9rw0wi4u
B8KgIWW/kt8twl+mAMKAwNe+XMk6wvz168EqxVpAvLAxwsDl9cFEoRhAq9k2wnrT78Fe/YhAhm45
wjIvCsLQj/S+IlcrwpqB+cGYkAM/lp1Hwt1o4cGp3YFAIF0/wrh34cFQfKFAs1s/wiv95sH6V3lA
aGc7wtVECcJor00/ISstwrLV+sHgVe8/TKo7wv5pDcKA2Z6/w2s3wgKi7sHN7b9A4m8swgmpBcIo
+WPA8Gk0wkLHCsLQ9DbA8joowpdg/sGYBwHAQjU9wpAZ6sHwKq0/AzE1wjDb8sGAHeQ+3Ag0wovu
AsKYLHk/XzcvwhLR98HY1Y1AVuVFwo512cHyfL1AITNFwlbi6sFucxhAl/cmwgBg+sHQuwQ/djIs
wpI18cFAmGI+Zb45wliSBsLo8rc/R7Q+wq8wC8I0yZI/AAgrwryq/8FGLB9A

> <OMEGA_E>
YjSDwA==

> <OMEGA_NBR>
     48939

$$$$
CACHE3HI_1708_72
  -OEChem-03092622513D

 26 27  0     0  0  0  0  0  0999 V2000
  -47.4836  -29.4856    5.1699 C   0  0  0  0  0  0  0  0  0  0  0  0
  -50.2921  -29.4587    5.9971 C   0  0  0  0  0  0  0  0  0  0  0  0
  -50.8041  -28.8192    3.7238 C   0  0  0  0  0  0  0  0  0  0  0  0
  -52.5068  -28.6760    5.4313 C   0  0  0  0  0  0  0  0  0  0  0  0
  -48.2554  -30.0560    2.9935 C   0  0  0  0  0  0  0  0  0  0  0  0
  -46.0121  -30.2347    3.4581 C   0  0  0  0  0  0  0  0  0  0  0  0
  -48.5406  -29.6131    4.2755 C   0  0  0  0  0  0  0  0  0  0  0  0
  -49.8953  -29.2932    4.6701 C   0  0  0  0  0  0  0  0  0  0  0  0
  -46.1924  -29.8002    4.7614 C   0  0  0  0  0  0  0  0  0  0  0  0
  -51.5980  -29.1499    6.3776 C   0  0  0  0  0  0  0  0  0  0  0  0
  -52.1100  -28.5104    4.1044 C   0  0  0  0  0  0  0  0  0  0  0  0
  -45.0676  -29.6788    5.6722 C   0  0  0  0  0  0  0  0  0  0  0  0
  -47.0139  -30.3710    2.5608 N   0  0  0  0  0  0  0  0  0  0  0  0
  -43.8039  -30.0120    5.1912 N   0  0  0  0  0  0  0  0  0  0  0  0
  -45.2169  -29.2745    6.8397 O   0  0  0  0  0  0  0  0  0  0  0  0
  -51.9858  -29.3111    7.6723 O   0  0  0  0  0  0  0  0  0  0  0  0
  -53.2316  -27.9277    2.9367 Cl  0  0  0  0  0  0  0  0  0  0  0  0
  -47.6616  -29.1415    6.1863 H   0  0  0  0  0  0  0  0  0  0  0  0
  -49.5904  -29.8276    6.7423 H   0  0  0  0  0  0  0  0  0  0  0  0
  -50.4945  -28.6906    2.6885 H   0  0  0  0  0  0  0  0  0  0  0  0
  -53.5233  -28.4378    5.7360 H   0  0  0  0  0  0  0  0  0  0  0  0
  -49.0357  -30.1775    2.2474 H   0  0  0  0  0  0  0  0  0  0  0  0
  -45.0274  -30.4946    3.0810 H   0  0  0  0  0  0  0  0  0  0  0  0
  -43.6453  -30.3148    4.2364 H   0  0  0  0  0  0  0  0  0  0  0  0
  -42.9768  -29.9323    5.7733 H   0  0  0  0  0  0  0  0  0  0  0  0
  -51.2300  -29.6472    8.1876 H   0  0  0  0  0  0  0  0  0  0  0  0
  1  7  1  0  0  0  0
  1  9  2  0  0  0  0
  2  8  1  0  0  0  0
  2 10  2  0  0  0  0
  3  8  2  0  0  0  0
  3 11  1  0  0  0  0
  4 10  1  0  0  0  0
  4 11  2  0  0  0  0
  5  7  2  0  0  0  0
  5 13  1  0  0  0  0
  6  9  1  0  0  0  0
  6 13  2  0  0  0  0
  7  8  1  0  0  0  0
  9 12  1  0  0  0  0
 10 16  1  0  0  0  0
 11 17  1  0  0  0  0
 12 14  1  0  0  0  0
 12 15  2  0  0  0  0
  1 18  1  0  0  0  0
  2 19  1  0  0  0  0
  3 20  1  0  0  0  0
  4 21  1  0  0  0  0
  5 22  1  0  0  0  0
  6 23  1  0  0  0  0
 14 24  1  0  0  0  0
 14 25  1  0  0  0  0
 16 26  1  0  0  0  0
M  END
> <POSIT::Probability>
0.24

> <POSIT::Method>
FRED

> <ReceptorTitle>
UCSF-P4609-REFINED_LIGAND-BOUND-STATE_AALTB__DU__LA1_A-201(A)

> <OMEGA_C>
Qe89wpri68Gtb6VAKCtJwn6r68Ew6L9AYTdLwtGN5sFFU25A9wZSwmdo5cEJza1AhwVBwqty8MH2
lT9AVww4wrTg8cEhUl1AkSlCwqjn7MEy0YhAypRHwnZY6sHDcZVACMU4wudm7sFJXZhAYGROwgwz
6cEpFcxAo3BQwlwV5MHuVoNALUU0wiZu7cFogrVANg48wub38sGf5CNAMjcvwpwY8MFWHqZAHd40
wjAy6sHI3tpAf/FPwhN96sHBg/VALu1Uwthr38Fi8ztAh6U+wsUh6cGQ9sVAl1xGwgWf7sGGwNdA
WPpJwkuG5cGYDyxA3hdWwq2A48FMjbdAjyREwn1r8cFa1Q9AExw0wuD088FhL0VAz5QuwruE8sGw
kIdAQOgrwkF178Ehv7hAeetMwnUt7cF9AANB

> <OMEGA_E>
QkTzwA==

> <OMEGA_NBR>
     49952

$$$$
CACHE3HI_1708_77
  -OEChem-03092622513D

 27 29  0     0  0  0  0  0  0999 V2000
  -45.4349  -32.8736    0.0920 C   0  0  0  0  0  0  0  0  0  0  0  0
  -48.7077  -28.8303    2.9083 C   0  0  0  0  0  0  0  0  0  0  0  0
  -46.8596  -29.1541    6.0756 C   0  0  0  0  0  0  0  0  0  0  0  0
  -44.1596  -32.9503   -0.4141 C   0  0  0  0  0  0  0  0  0  0  0  0
  -50.8016  -28.4770    3.8871 C   0  0  0  0  0  0  0  0  0  0  0  0
  -48.1421  -28.9290    4.1966 C   0  0  0  0  0  0  0  0  0  0  0  0
  -46.7812  -29.1544    4.7005 C   0  0  0  0  0  0  0  0  0  0  0  0
  -48.9748  -28.7873    5.3079 C   0  0  0  0  0  0  0  0  0  0  0  0
  -44.6276  -30.8849    0.8685 C   0  0  0  0  0  0  0  0  0  0  0  0
  -45.5656  -29.3430    3.8945 C   0  0  0  0  0  0  0  0  0  0  0  0
  -44.5835  -29.5470    1.5669 C   0  0  0  0  0  0  0  0  0  0  0  0
  -50.0327  -28.6093    2.7751 N   0  0  0  0  0  0  0  0  0  0  0  0
  -45.6659  -31.6927    0.8042 N   0  0  0  0  0  0  0  0  0  0  0  0
  -50.2956  -28.5598    5.1463 N   0  0  0  0  0  0  0  0  0  0  0  0
  -48.1851  -28.9280    6.4410 N   0  0  0  0  0  0  0  0  0  0  0  0
  -45.6911  -29.4156    2.5131 N   0  0  0  0  0  0  0  0  0  0  0  0
  -44.4684  -29.3799    4.4414 O   0  0  0  0  0  0  0  0  0  0  0  0
  -43.2596  -31.5336    0.0131 S   0  0  0  0  0  0  0  0  0  0  0  0
  -46.1796  -33.6436   -0.0457 H   0  0  0  0  0  0  0  0  0  0  0  0
  -48.0837  -28.9311    2.0326 H   0  0  0  0  0  0  0  0  0  0  0  0
  -46.0338  -29.3038    6.7553 H   0  0  0  0  0  0  0  0  0  0  0  0
  -43.7740  -33.7753   -0.9946 H   0  0  0  0  0  0  0  0  0  0  0  0
  -51.8599  -28.2986    3.7658 H   0  0  0  0  0  0  0  0  0  0  0  0
  -43.6320  -29.4561    2.1114 H   0  0  0  0  0  0  0  0  0  0  0  0
  -44.6543  -28.7463    0.8161 H   0  0  0  0  0  0  0  0  0  0  0  0
  -48.5189  -28.8748    7.3822 H   0  0  0  0  0  0  0  0  0  0  0  0
  -46.6155  -29.3745    2.1339 H   0  0  0  0  0  0  0  0  0  0  0  0
  1  4  2  0  0  0  0
  1 13  1  0  0  0  0
  2  6  2  0  0  0  0
  2 12  1  0  0  0  0
  3  7  2  0  0  0  0
  3 15  1  0  0  0  0
  4 18  1  0  0  0  0
  5 12  2  0  0  0  0
  5 14  1  0  0  0  0
  6  7  1  0  0  0  0
  6  8  1  0  0  0  0
  7 10  1  0  0  0  0
  8 14  2  0  0  0  0
  8 15  1  0  0  0  0
  9 11  1  0  0  0  0
  9 13  2  0  0  0  0
  9 18  1  0  0  0  0
 10 16  1  0  0  0  0
 10 17  2  0  0  0  0
 11 16  1  0  0  0  0
  1 19  1  0  0  0  0
  2 20  1  0  0  0  0
  3 21  1  0  0  0  0
  4 22  1  0  0  0  0
  5 23  1  0  0  0  0
 11 24  1  0  0  0  0
 11 25  1  0  0  0  0
 15 26  1  0  0  0  0
 16 27  1  0  0  0  0
M  END
> <POSIT::Probability>
0.5

> <POSIT::Method>
SHAPEFIT

> <ReceptorTitle>
UCSF-P4609_LA2_MERGED(A)

> <OMEGA_C>
Ub01wpN+A8IgcLw9qdRCwnGk5sFCITpAQHA7wqc76cFua8JAaqMwwiHNA8KIANS+3TRLwvzQ48Ez
xnhAh5FAwpJu58GISoZA9h87wj086cFIapZAJ+ZDwmxM5sGS2qlAoYIywkUU98EgWF4/KkM2wnO+
6sHUPnlAhVUywlpg7MGvkMg/gSFIwszf5MFOmzFA5Kk2wqaK/cHE3U0/ri5Jwnx65ME/rqRAjL1A
woFs58H3HM5AsMM2whRT68H31SBAqN8xwgkK68HEH45AzQktws5E/MEAclY837c4wgyTBsLOHTu9
rFVAws5y58G7FQJAnyI4wi5u6sHJK9hAlhgvwvUZB8KBoH6/fXBPwoNj4sHlAnFANIcuwiqm68GE
IAdA+p0ywmz45cGy6FA/UBNCwof/5sHrOuxATXY6wv7+6sEHkghA

> <OMEGA_E>
gNdXPw==

> <OMEGA_NBR>
     50945

$$$$
CACHE3HI_1708_97
  -OEChem-03092622513D

 33 35  0     0  0  0  0  0  0999 V2000
  -48.3946  -28.5534    4.9473 C   0  0  0  0  0  0  0  0  0  0  0  0
  -47.7250  -28.4575    6.1746 C   0  0  0  0  0  0  0  0  0  0  0  0
  -43.8781  -31.6273    0.4699 C   0  0  0  0  0  0  0  0  0  0  0  0
  -45.8802  -29.7434    5.2575 C   0  0  0  0  0  0  0  0  0  0  0  0
  -43.3947  -32.3221   -0.6631 C   0  0  0  0  0  0  0  0  0  0  0  0
  -45.1260  -33.8976   -0.5262 C   0  0  0  0  0  0  0  0  0  0  0  0
  -46.5111  -29.8435    3.9948 C   0  0  0  0  0  0  0  0  0  0  0  0
  -45.6344  -33.2747    0.6325 C   0  0  0  0  0  0  0  0  0  0  0  0
  -47.8197  -29.2330    3.8346 C   0  0  0  0  0  0  0  0  0  0  0  0
  -45.0411  -32.0918    1.1275 C   0  0  0  0  0  0  0  0  0  0  0  0
  -46.4641  -29.0468    6.3239 C   0  0  0  0  0  0  0  0  0  0  0  0
  -45.6236  -30.3794    2.8957 C   0  0  0  0  0  0  0  0  0  0  0  0
  -46.8184  -33.5955    1.4917 C   0  0  0  0  0  0  0  0  0  0  0  0
  -46.6491  -32.6893    2.6972 C   0  0  0  0  0  0  0  0  0  0  0  0
  -48.5821  -29.1244    2.4989 C   0  0  0  0  0  0  0  0  0  0  0  0
  -44.0259  -33.4177   -1.1530 N   0  0  0  0  0  0  0  0  0  0  0  0
  -45.8433  -31.5815    2.1913 N   0  0  0  0  0  0  0  0  0  0  0  0
  -44.5012  -29.8901    2.8273 O   0  0  0  0  0  0  0  0  0  0  0  0
  -45.7825  -28.9200    7.4900 O   0  0  0  0  0  0  0  0  0  0  0  0
  -49.8783  -28.7265    2.6876 F   0  0  0  0  0  0  0  0  0  0  0  0
  -48.6277  -30.3128    1.8540 F   0  0  0  0  0  0  0  0  0  0  0  0
  -47.9841  -28.1948    1.7120 F   0  0  0  0  0  0  0  0  0  0  0  0
  -49.3698  -28.1013    4.8422 H   0  0  0  0  0  0  0  0  0  0  0  0
  -48.1795  -27.9316    7.0012 H   0  0  0  0  0  0  0  0  0  0  0  0
  -43.3632  -30.7490    0.8303 H   0  0  0  0  0  0  0  0  0  0  0  0
  -44.9210  -30.2177    5.4035 H   0  0  0  0  0  0  0  0  0  0  0  0
  -42.4980  -31.9703   -1.1517 H   0  0  0  0  0  0  0  0  0  0  0  0
  -45.6224  -34.7722   -0.9202 H   0  0  0  0  0  0  0  0  0  0  0  0
  -47.7573  -33.3732    0.9634 H   0  0  0  0  0  0  0  0  0  0  0  0
  -46.8086  -34.6535    1.7927 H   0  0  0  0  0  0  0  0  0  0  0  0
  -47.6246  -32.3312    3.0580 H   0  0  0  0  0  0  0  0  0  0  0  0
  -46.1270  -33.2136    3.5111 H   0  0  0  0  0  0  0  0  0  0  0  0
  -44.9518  -29.3760    7.4229 H   0  0  0  0  0  0  0  0  0  0  0  0
  1  2  1  0  0  0  0
  1  9  2  0  0  0  0
  2 11  2  0  0  0  0
  3  5  1  0  0  0  0
  3 10  2  0  0  0  0
  4  7  2  0  0  0  0
  4 11  1  0  0  0  0
  5 16  2  0  0  0  0
  6  8  2  0  0  0  0
  6 16  1  0  0  0  0
  7  9  1  0  0  0  0
  7 12  1  0  0  0  0
  8 10  1  0  0  0  0
  8 13  1  0  0  0  0
  9 15  1  0  0  0  0
 10 17  1  0  0  0  0
 11 19  1  0  0  0  0
 12 17  1  0  0  0  0
 12 18  2  0  0  0  0
 13 14  1  0  0  0  0
 14 17  1  0  0  0  0
 15 20  1  0  0  0  0
 15 21  1  0  0  0  0
 15 22  1  0  0  0  0
  1 23  1  0  0  0  0
  2 24  1  0  0  0  0
  3 25  1  0  0  0  0
  4 26  1  0  0  0  0
  5 27  1  0  0  0  0
  6 28  1  0  0  0  0
 13 29  1  0  0  0  0
 13 30  1  0  0  0  0
 14 31  1  0  0  0  0
 14 32  1  0  0  0  0
 19 33  1  0  0  0  0
M  END
> <POSIT::Probability>
0.51

> <POSIT::Method>
SHAPEFIT

> <ReceptorTitle>
UCSF-P4609-REFINED_LIGAND-BOUND-STATE_AALTB__DU__LA1_A-201(A)

> <OMEGA_C>
CpRBwkZt5MFGUJ5AYuY+wuqo48GYlsVAJIMvwrgE/cF+mfA+XoU3wnHy7cFNPahAJ5Qtws5JAcKV
wim//4A0wjGXB8Jntga/WAs6wmq/7sEjqn9AqIk2wkEZBcKy7iE/VEc/wjDd6cGhanVAGSo0wgVe
AMLnUJA/Mds5wsVf6MHHXcpAjX42wv0I88FAUzlACUY7wtBhBsI4774/sZg6wsvBAsKXnixAB1RC
wt7+6MFm7R9AkhowwrurBcJMlJO/j183wu2m/MHMPgxAPQEywvke78EA8jRARiE3whVc58Gwre9A
aINHwvPP5cFmASxAv4JCwqaA8sHyUO0/se8/wvmO4cEWIts/oHpFwmjP4MGL85pA2bdAwtNz38Gx
CeBA83MtwuL99cHcjVQ/Gq8zwsW98cEo6axAAP4pwj3D/8Gga5O/V302wq8WC8JrkGu/eQc/wjV+
BcKhonY/Bzw7wi6dCsLsdeU/l38+wh1TAcKHtkNAGII4wrvaBMIztmBAq84zwhsC68GsiO1A

> <OMEGA_E>
KOiFPw==

> <OMEGA_NBR>
     52129

$$$$
CACHE3HI_1708_98
  -OEChem-03092622513D

 38 40  0     0  0  0  0  0  0999 V2000
  -45.0023  -29.6842    0.2615 C   0  0  0  0  0  0  0  0  0  0  0  0
  -44.8271  -30.9922    0.7132 C   0  0  0  0  0  0  0  0  0  0  0  0
  -43.4543  -28.8978    1.9416 C   0  0  0  0  0  0  0  0  0  0  0  0
  -47.9617  -28.6905    6.0592 C   0  0  0  0  0  0  0  0  0  0  0  0
  -47.3012  -29.2723    3.4419 C   0  0  0  0  0  0  0  0  0  0  0  0
  -44.4222  -29.2061    6.3327 C   0  0  0  0  0  0  0  0  0  0  0  0
  -44.3159  -28.6370    0.8759 C   0  0  0  0  0  0  0  0  0  0  0  0
  -43.2790  -30.2058    2.3933 C   0  0  0  0  0  0  0  0  0  0  0  0
  -46.6331  -28.9607    5.7400 C   0  0  0  0  0  0  0  0  0  0  0  0
  -46.2966  -29.2569    4.4064 C   0  0  0  0  0  0  0  0  0  0  0  0
  -43.9655  -31.2531    1.7789 C   0  0  0  0  0  0  0  0  0  0  0  0
  -48.9586  -28.7083    5.0867 C   0  0  0  0  0  0  0  0  0  0  0  0
  -48.6281  -29.0000    3.7715 C   0  0  0  0  0  0  0  0  0  0  0  0
  -44.0936  -29.4948    5.0346 C   0  0  0  0  0  0  0  0  0  0  0  0
  -44.5031  -27.2384    0.3931 C   0  0  0  0  0  0  0  0  0  0  0  0
  -44.5466  -33.5450    1.5216 C   0  0  0  0  0  0  0  0  0  0  0  0
  -42.3476  -30.4680    3.5418 C   0  0  0  0  0  0  0  0  0  0  0  0
  -45.6886  -28.9377    6.6964 N   0  0  0  0  0  0  0  0  0  0  0  0
  -45.0242  -29.5222    4.0628 N   0  0  0  0  0  0  0  0  0  0  0  0
  -42.7442  -29.7671    4.7227 N   0  0  0  0  0  0  0  0  0  0  0  0
  -43.8063  -32.5367    2.2070 O   0  0  0  0  0  0  0  0  0  0  0  0
  -50.2288  -28.4452    5.4197 F   0  0  0  0  0  0  0  0  0  0  0  0
  -49.5756  -29.0204    2.8256 F   0  0  0  0  0  0  0  0  0  0  0  0
  -45.6755  -29.4906   -0.5694 H   0  0  0  0  0  0  0  0  0  0  0  0
  -45.3648  -31.8037    0.2303 H   0  0  0  0  0  0  0  0  0  0  0  0
  -42.9194  -28.0805    2.4199 H   0  0  0  0  0  0  0  0  0  0  0  0
  -48.2362  -28.4597    7.0866 H   0  0  0  0  0  0  0  0  0  0  0  0
  -47.0550  -29.4995    2.4065 H   0  0  0  0  0  0  0  0  0  0  0  0
  -43.6891  -29.1767    7.1304 H   0  0  0  0  0  0  0  0  0  0  0  0
  -45.3281  -26.7414    0.9203 H   0  0  0  0  0  0  0  0  0  0  0  0
  -44.7502  -27.2159   -0.6766 H   0  0  0  0  0  0  0  0  0  0  0  0
  -43.5881  -26.6542    0.5507 H   0  0  0  0  0  0  0  0  0  0  0  0
  -44.3285  -34.5215    1.9618 H   0  0  0  0  0  0  0  0  0  0  0  0
  -45.6138  -33.3328    1.6219 H   0  0  0  0  0  0  0  0  0  0  0  0
  -44.2750  -33.5418    0.4635 H   0  0  0  0  0  0  0  0  0  0  0  0
  -42.3173  -31.5369    3.7778 H   0  0  0  0  0  0  0  0  0  0  0  0
  -41.3258  -30.1598    3.2970 H   0  0  0  0  0  0  0  0  0  0  0  0
  -42.0552  -29.4445    5.3747 H   0  0  0  0  0  0  0  0  0  0  0  0
  1  2  2  0  0  0  0
  1  7  1  0  0  0  0
  2 11  1  0  0  0  0
  3  7  2  0  0  0  0
  3  8  1  0  0  0  0
  4  9  1  0  0  0  0
  4 12  2  0  0  0  0
  5 10  1  0  0  0  0
  5 13  2  0  0  0  0
  6 14  1  0  0  0  0
  6 18  2  0  0  0  0
  7 15  1  0  0  0  0
  8 11  2  0  0  0  0
  8 17  1  0  0  0  0
  9 10  2  0  0  0  0
  9 18  1  0  0  0  0
 10 19  1  0  0  0  0
 11 21  1  0  0  0  0
 12 13  1  0  0  0  0
 12 22  1  0  0  0  0
 13 23  1  0  0  0  0
 14 19  2  0  0  0  0
 14 20  1  0  0  0  0
 16 21  1  0  0  0  0
 17 20  1  0  0  0  0
  1 24  1  0  0  0  0
  2 25  1  0  0  0  0
  3 26  1  0  0  0  0
  4 27  1  0  0  0  0
  5 28  1  0  0  0  0
  6 29  1  0  0  0  0
 15 30  1  0  0  0  0
 15 31  1  0  0  0  0
 15 32  1  0  0  0  0
 16 33  1  0  0  0  0
 16 34  1  0  0  0  0
 16 35  1  0  0  0  0
 17 36  1  0  0  0  0
 17 37  1  0  0  0  0
 20 38  1  0  0  0  0
M  END
> <POSIT::Probability>
0.18

> <POSIT::Method>
HYBRID

> <ReceptorTitle>
UCSF-P4609-REFINED_LIGAND-BOUND-STATE_AALTB__DU__LA1_A-201(A)

> <OMEGA_C>
WgI0wj157cEg4IU+7U4zwhbw98FQlDY/KNEtwqYu58HkhPg/vtg/wjKG5cE05cFAdDQ9wpQt6sGE
R1xAVrAxwhOm6cFdpcpAcEMxwnoY5cEgO2A/uB0twmGl8cGsKxlAS4g6wpCv58EOrrdAwy85wjYO
6sE1AY1Ap9wvwkIG+sGAseM/p9VDwpiq5cE5xqJAJoNCwgwA6MH8X3FA318wwl7168EqG6FAOQMy
wjjo2cGASMk+vi8ywh4uBsLYxMI/8GMpwmi+88EerWJAFcE2wniA58HSSNZAwRg0woIt7MHOAoJA
Bfoqwhgj7sGiIJdAnDkvwp4lAsKgPw1AR+pIwsCP48Eybq1AX01Gwt4p6MEg1zRAsLM2wsXs68FY
xRG/j3U1wgpu/sHg1ms+dq0rwu6k4MFg3xpA3fFAwo6t48G2xeJASjg8wuL+68HaAxpAmcEuwuBp
6cF4LORA9E81wlbu1cGIl2s/MgAzwjy62cFwMy2/Plouwr071cHY/Aw/bFAxwgwWCsJwHPs/gnQ2
wsFUBcIcmc8/khkxws4qBsKAUu0+4UQpwoVL/MG0xnFAmU0lwjtH8cGGAlNAkjgowk6O68FA/atA

> <OMEGA_E>
TJgEwQ==

> <OMEGA_NBR>
     53390

$$$$
CACHE3HI_1715_40
  -OEChem-03092622513D

 58 61  0     0  0  0  0  0  0999 V2000
  -43.2947  -34.2927   -3.1587 C   0  0  0  0  0  0  0  0  0  0  0  0
  -44.4763  -34.0466   -3.8516 C   0  0  0  0  0  0  0  0  0  0  0  0
  -46.4075  -29.0884    5.7437 C   0  0  0  0  0  0  0  0  0  0  0  0
  -45.2297  -29.1419    6.4892 C   0  0  0  0  0  0  0  0  0  0  0  0
  -43.2054  -33.9897   -1.7992 C   0  0  0  0  0  0  0  0  0  0  0  0
  -45.5732  -33.4962   -3.1881 C   0  0  0  0  0  0  0  0  0  0  0  0
  -50.4337  -30.2043    6.2372 C   0  0  0  0  0  0  0  0  0  0  0  0
  -52.2654  -29.8831    4.6948 C   0  0  0  0  0  0  0  0  0  0  0  0
  -46.4604  -29.6787    4.4811 C   0  0  0  0  0  0  0  0  0  0  0  0
  -49.6974  -30.8305    5.2315 C   0  0  0  0  0  0  0  0  0  0  0  0
  -51.5292  -30.5093    3.6891 C   0  0  0  0  0  0  0  0  0  0  0  0
  -44.1052  -29.7858    5.9724 C   0  0  0  0  0  0  0  0  0  0  0  0
  -44.2280  -33.1233    0.2518 C   0  0  0  0  0  0  0  0  0  0  0  0
  -46.5958  -32.6297   -1.1372 C   0  0  0  0  0  0  0  0  0  0  0  0
  -44.2998  -33.4351   -1.1158 C   0  0  0  0  0  0  0  0  0  0  0  0
  -45.5014  -33.1846   -1.8205 C   0  0  0  0  0  0  0  0  0  0  0  0
  -51.7177  -29.7305    5.9687 C   0  0  0  0  0  0  0  0  0  0  0  0
  -45.3249  -32.5728    0.9153 C   0  0  0  0  0  0  0  0  0  0  0  0
  -50.2451  -30.9831    3.9576 C   0  0  0  0  0  0  0  0  0  0  0  0
  -45.3360  -30.3226    3.9643 C   0  0  0  0  0  0  0  0  0  0  0  0
  -44.1582  -30.3761    4.7097 C   0  0  0  0  0  0  0  0  0  0  0  0
  -46.5063  -32.3265    0.2215 C   0  0  0  0  0  0  0  0  0  0  0  0
  -52.4856  -29.0771    7.0167 C   0  0  0  0  0  0  0  0  0  0  0  0
  -45.2125  -32.2626    2.3338 C   0  0  0  0  0  0  0  0  0  0  0  0
  -49.8861  -31.8518    1.6223 C   0  0  0  0  0  0  0  0  0  0  0  0
  -42.1383  -30.2057    3.4656 C   0  0  0  0  0  0  0  0  0  0  0  0
  -48.7861  -32.5629    0.8567 C   0  0  0  0  0  0  0  0  0  0  0  0
  -51.8933  -28.9499    8.2697 N   0  0  0  0  0  0  0  0  0  0  0  0
  -45.4064  -30.9193    2.6815 N   0  0  0  0  0  0  0  0  0  0  0  0
  -49.4975  -31.6191    2.9372 N   0  0  0  0  0  0  0  0  0  0  0  0
  -53.6259  -28.6296    6.8021 O   0  0  0  0  0  0  0  0  0  0  0  0
  -44.9379  -33.1743    3.1294 O   0  0  0  0  0  0  0  0  0  0  0  0
  -50.9500  -31.5534    1.0898 O   0  0  0  0  0  0  0  0  0  0  0  0
  -43.0484  -31.0003    4.2234 O   0  0  0  0  0  0  0  0  0  0  0  0
  -47.5884  -31.7888    0.8525 O   0  0  0  0  0  0  0  0  0  0  0  0
  -42.4410  -34.7217   -3.6755 H   0  0  0  0  0  0  0  0  0  0  0  0
  -44.5450  -34.2823   -4.9097 H   0  0  0  0  0  0  0  0  0  0  0  0
  -47.2826  -28.5875    6.1467 H   0  0  0  0  0  0  0  0  0  0  0  0
  -45.1888  -28.6826    7.4724 H   0  0  0  0  0  0  0  0  0  0  0  0
  -42.2715  -34.1897   -1.2781 H   0  0  0  0  0  0  0  0  0  0  0  0
  -46.4871  -33.3129   -3.7495 H   0  0  0  0  0  0  0  0  0  0  0  0
  -49.9960  -30.0910    7.2256 H   0  0  0  0  0  0  0  0  0  0  0  0
  -53.2652  -29.5181    4.4742 H   0  0  0  0  0  0  0  0  0  0  0  0
  -47.3833  -29.6299    3.9090 H   0  0  0  0  0  0  0  0  0  0  0  0
  -48.6974  -31.1956    5.4517 H   0  0  0  0  0  0  0  0  0  0  0  0
  -51.9666  -30.6231    2.7004 H   0  0  0  0  0  0  0  0  0  0  0  0
  -43.1915  -29.8249    6.5595 H   0  0  0  0  0  0  0  0  0  0  0  0
  -43.3083  -33.3121    0.8035 H   0  0  0  0  0  0  0  0  0  0  0  0
  -47.5268  -32.4312   -1.6653 H   0  0  0  0  0  0  0  0  0  0  0  0
  -41.2986  -30.8240    3.1377 H   0  0  0  0  0  0  0  0  0  0  0  0
  -42.6575  -29.8067    2.5909 H   0  0  0  0  0  0  0  0  0  0  0  0
  -41.7767  -29.3782    4.0804 H   0  0  0  0  0  0  0  0  0  0  0  0
  -49.1018  -32.7412   -0.1760 H   0  0  0  0  0  0  0  0  0  0  0  0
  -48.5751  -33.5237    1.3368 H   0  0  0  0  0  0  0  0  0  0  0  0
  -50.9537  -29.2769    8.4664 H   0  0  0  0  0  0  0  0  0  0  0  0
  -52.3712  -28.4890    9.0368 H   0  0  0  0  0  0  0  0  0  0  0  0
  -45.6263  -30.2905    1.9125 H   0  0  0  0  0  0  0  0  0  0  0  0
  -48.5703  -31.9368    3.2108 H   0  0  0  0  0  0  0  0  0  0  0  0
  1  2  1  0  0  0  0
  1  5  2  0  0  0  0
  2  6  2  0  0  0  0
  3  4  1  0  0  0  0
  3  9  2  0  0  0  0
  4 12  2  0  0  0  0
  5 15  1  0  0  0  0
  6 16  1  0  0  0  0
  7 10  2  0  0  0  0
  7 17  1  0  0  0  0
  8 11  1  0  0  0  0
  8 17  2  0  0  0  0
  9 20  1  0  0  0  0
 10 19  1  0  0  0  0
 11 19  2  0  0  0  0
 12 21  1  0  0  0  0
 13 15  2  0  0  0  0
 13 18  1  0  0  0  0
 14 16  2  0  0  0  0
 14 22  1  0  0  0  0
 15 16  1  0  0  0  0
 17 23  1  0  0  0  0
 18 22  2  0  0  0  0
 18 24  1  0  0  0  0
 19 30  1  0  0  0  0
 20 21  2  0  0  0  0
 20 29  1  0  0  0  0
 21 34  1  0  0  0  0
 22 35  1  0  0  0  0
 23 28  1  0  0  0  0
 23 31  2  0  0  0  0
 24 29  1  0  0  0  0
 24 32  2  0  0  0  0
 25 27  1  0  0  0  0
 25 30  1  0  0  0  0
 25 33  2  0  0  0  0
 26 34  1  0  0  0  0
 27 35  1  0  0  0  0
  1 36  1  0  0  0  0
  2 37  1  0  0  0  0
  3 38  1  0  0  0  0
  4 39  1  0  0  0  0
  5 40  1  0  0  0  0
  6 41  1  0  0  0  0
  7 42  1  0  0  0  0
  8 43  1  0  0  0  0
  9 44  1  0  0  0  0
 10 45  1  0  0  0  0
 11 46  1  0  0  0  0
 12 47  1  0  0  0  0
 13 48  1  0  0  0  0
 14 49  1  0  0  0  0
 26 50  1  0  0  0  0
 26 51  1  0  0  0  0
 26 52  1  0  0  0  0
 27 53  1  0  0  0  0
 27 54  1  0  0  0  0
 28 55  1  0  0  0  0
 28 56  1  0  0  0  0
 29 57  1  0  0  0  0
 30 58  1  0  0  0  0
M  END
> <POSIT::Probability>
0.24

> <POSIT::Method>
FRED

> <ReceptorTitle>
UCSF-P4609-REFINED_LIGAND-BOUND-STATE_AALTB__DU__LA1_A-201(A)

> <OMEGA_C>
wi0twsUrCcI5KErAwOcxwrwvCMKygHbAPKE5whS16MHKzLdAM+s0wqIi6cGap89AW9IswoD1B8Ii
S+a/+Uo2whn8BcKqCUzAEbxJwmmi8cFpl8dAzA9RwpkQ78ELPJZAdNc5wghu7cGKZY9AKMpGwuSk
9sFYaKdA8h1OwgUT9ME5GmxAxGswwjpJ7sHsHb9Ad+kwwjh+BMI45oA+FGI6wtKEAsKqjpG/9TIx
woO9BcJE0Y6/ZgE2wg+9BMJcBem/8t5OwgLY7cGE/75Ar0w1wpdKAsI4T2o/A/tIwnrd98HFSX1A
BVg1wp+U8sGxt31ABKIwwjUC88E6tpZAZwY6wlZOAcLQxWI+PfFRws2d6MEaieBAotk0wuoMAcL7
XBVAZYtHwpbQ/sHYp88/lI0owk2l8cHTzF1A8yRDwl1AAsIoU1s/u5JPwmWZ58GFUARBHaA1wrha
98EXnStAbf1Fwtjz/MFO+jtA4IBWwoQJ5cHbqtlAacAzwoayBMKjR0hAx8xLwnNt/MEufos/kTEs
wp4A+MG3JYdAiFo+wmhP/sG8PFo/ncMpwv/iCsIPPGvAFC4ywhwhCcKYHJ3AWiE9whmz5MEJssRA
S8E0wg925cFAHu9A/xUpwkvCCMIQmKO/wPI5wl9ABcIG92/A7ftHwk268MENOOdAjg9Vwhcl7MEI
LY9AfIg9wgIK7cGsLXpALMpCwpSQ+cEkdK5AyN1Pwhz89MH+0yxAH8Qswn+Z7sF859FAqjstwqE/
BcJIs00/fhs+wpm5AcJMKNW/wzElwpiX9sHB0EhARaEqwhx07sG+0SVAYhsnwpQG68GokoJAO2hE
wvX2AsKAQjS+5ExCwkQYBsL0HKs/l9BLwgw36sFmdgdBHHxRwojp48HDlhBBWYE2wv9S8sGay/Q/
CUhCwnl+/8FmfU1A

> <OMEGA_E>
wtHYwA==

> <OMEGA_NBR>
     55050

$$$$
CACHE3HI_1715_55
  -OEChem-03092622513D

 47 50  0     0  0  0  0  0  0999 V2000
  -47.7487  -29.3341   -0.2867 C   0  0  0  0  0  0  0  0  0  0  0  0
  -47.5594  -28.3039    0.6344 C   0  0  0  0  0  0  0  0  0  0  0  0
  -48.7230  -30.3051   -0.0558 C   0  0  0  0  0  0  0  0  0  0  0  0
  -48.3443  -28.2444    1.7860 C   0  0  0  0  0  0  0  0  0  0  0  0
  -49.5080  -30.2455    1.0959 C   0  0  0  0  0  0  0  0  0  0  0  0
  -44.6513  -31.2938    0.3575 C   0  0  0  0  0  0  0  0  0  0  0  0
  -45.5081  -32.3350    0.7146 C   0  0  0  0  0  0  0  0  0  0  0  0
  -45.8765  -31.2958    2.8645 C   0  0  0  0  0  0  0  0  0  0  0  0
  -49.3187  -29.2154    2.0170 C   0  0  0  0  0  0  0  0  0  0  0  0
  -49.6936  -29.1941    4.5381 C   0  0  0  0  0  0  0  0  0  0  0  0
  -44.4072  -30.2536    1.2540 C   0  0  0  0  0  0  0  0  0  0  0  0
  -46.1206  -32.3361    1.9680 C   0  0  0  0  0  0  0  0  0  0  0  0
  -45.0197  -30.2547    2.5074 C   0  0  0  0  0  0  0  0  0  0  0  0
  -50.1276  -29.1539    3.2021 C   0  0  0  0  0  0  0  0  0  0  0  0
  -50.8538  -29.1020    5.2607 C   0  0  0  0  0  0  0  0  0  0  0  0
  -48.3388  -29.3065    5.0878 C   0  0  0  0  0  0  0  0  0  0  0  0
  -46.2518  -29.4774    5.2628 C   0  0  0  0  0  0  0  0  0  0  0  0
  -43.5103  -29.1757    0.8612 C   0  0  0  0  0  0  0  0  0  0  0  0
  -47.0374  -33.4491    2.3484 C   0  0  0  0  0  0  0  0  0  0  0  0
  -51.1679  -29.0811    6.6962 C   0  0  0  0  0  0  0  0  0  0  0  0
  -44.8678  -29.5886    4.7856 C   0  0  0  0  0  0  0  0  0  0  0  0
  -51.4552  -29.0453    3.1032 N   0  0  0  0  0  0  0  0  0  0  0  0
  -48.0867  -29.3317    6.3759 N   0  0  0  0  0  0  0  0  0  0  0  0
  -46.7138  -29.4440    6.4905 N   0  0  0  0  0  0  0  0  0  0  0  0
  -42.1583  -29.3227    1.1522 N   0  0  0  0  0  0  0  0  0  0  0  0
  -43.9318  -28.1667    0.2711 O   0  0  0  0  0  0  0  0  0  0  0  0
  -51.9127  -29.0130    4.4148 O   0  0  0  0  0  0  0  0  0  0  0  0
  -47.2233  -29.3947    4.3133 O   0  0  0  0  0  0  0  0  0  0  0  0
  -44.7925  -29.2444    3.3997 O   0  0  0  0  0  0  0  0  0  0  0  0
  -47.1374  -29.3807   -1.1833 H   0  0  0  0  0  0  0  0  0  0  0  0
  -46.7996  -27.5486    0.4560 H   0  0  0  0  0  0  0  0  0  0  0  0
  -48.8707  -31.1073   -0.7729 H   0  0  0  0  0  0  0  0  0  0  0  0
  -48.1840  -27.4349    2.4946 H   0  0  0  0  0  0  0  0  0  0  0  0
  -50.2638  -31.0100    1.2611 H   0  0  0  0  0  0  0  0  0  0  0  0
  -44.1793  -31.3041   -0.6216 H   0  0  0  0  0  0  0  0  0  0  0  0
  -45.6928  -33.1413    0.0097 H   0  0  0  0  0  0  0  0  0  0  0  0
  -46.3531  -31.2942    3.8418 H   0  0  0  0  0  0  0  0  0  0  0  0
  -46.4913  -34.2669    2.8365 H   0  0  0  0  0  0  0  0  0  0  0  0
  -47.5305  -33.8783    1.4661 H   0  0  0  0  0  0  0  0  0  0  0  0
  -47.8110  -33.0881    3.0374 H   0  0  0  0  0  0  0  0  0  0  0  0
  -51.1747  -28.0557    7.1106 H   0  0  0  0  0  0  0  0  0  0  0  0
  -50.4269  -29.6417    7.2965 H   0  0  0  0  0  0  0  0  0  0  0  0
  -52.1591  -29.5247    6.8990 H   0  0  0  0  0  0  0  0  0  0  0  0
  -44.1772  -28.9207    5.3355 H   0  0  0  0  0  0  0  0  0  0  0  0
  -44.4634  -30.6134    4.8997 H   0  0  0  0  0  0  0  0  0  0  0  0
  -41.7816  -30.1484    1.6048 H   0  0  0  0  0  0  0  0  0  0  0  0
  -41.4812  -28.6144    0.8893 H   0  0  0  0  0  0  0  0  0  0  0  0
  1  2  1  0  0  0  0
  1  3  2  0  0  0  0
  2  4  2  0  0  0  0
  3  5  1  0  0  0  0
  4  9  1  0  0  0  0
  5  9  2  0  0  0  0
  6  7  2  0  0  0  0
  6 11  1  0  0  0  0
  7 12  1  0  0  0  0
  8 12  2  0  0  0  0
  8 13  1  0  0  0  0
  9 14  1  0  0  0  0
 10 14  1  0  0  0  0
 10 15  2  0  0  0  0
 10 16  1  0  0  0  0
 11 13  2  0  0  0  0
 11 18  1  0  0  0  0
 12 19  1  0  0  0  0
 13 29  1  0  0  0  0
 14 22  2  0  0  0  0
 15 20  1  0  0  0  0
 15 27  1  0  0  0  0
 16 23  2  0  0  0  0
 16 28  1  0  0  0  0
 17 21  1  0  0  0  0
 17 24  2  0  0  0  0
 17 28  1  0  0  0  0
 18 25  1  0  0  0  0
 18 26  2  0  0  0  0
 21 29  1  0  0  0  0
 22 27  1  0  0  0  0
 23 24  1  0  0  0  0
  1 30  1  0  0  0  0
  2 31  1  0  0  0  0
  3 32  1  0  0  0  0
  4 33  1  0  0  0  0
  5 34  1  0  0  0  0
  6 35  1  0  0  0  0
  7 36  1  0  0  0  0
  8 37  1  0  0  0  0
 19 38  1  0  0  0  0
 19 39  1  0  0  0  0
 19 40  1  0  0  0  0
 20 41  1  0  0  0  0
 20 42  1  0  0  0  0
 20 43  1  0  0  0  0
 21 44  1  0  0  0  0
 21 45  1  0  0  0  0
 25 46  1  0  0  0  0
 25 47  1  0  0  0  0
M  END
> <POSIT::Probability>
0.24

> <POSIT::Method>
FRED

> <ReceptorTitle>
UCSF-P4609-REFINED_LIGAND-BOUND-STATE_AALTB__DU__LA1_A-201(A)

> <OMEGA_C>
o/4+wj6s6sHMzZK+yzw+wk5u4sESaCI/XuRCwsBw8sEgY2S9m2BBwnL04cENneQ/LQhGwuL28cHr
RYw/5poywsxZ+sEGDLc+Twg2wglXAcIC8jY/lIE3wrhd+sESVDdAX0ZFwg656cF8FgFAPcZGwniN
6cEYOJFABqExwlIH8sHUg6A/eXs4wiZYAcK65vs/MhQ0wo0J8sHCeCBAnYJIwjI76cFv70xAQ2pL
wtLQ6MFEV6hA7FpBwstz6sERz6JAzgE5wr7R68HEaKhAlgouwspn6cFCd1w/VSY8wtbLBcIUTBZA
4atMwjGm6ME+R9ZAmHgzwoW17MG+I5lAFdJNwr5c6MElmkZAxVhAwlmn6sFBB8xA6do6wj+N68Fj
ss9AIKIowumU6sH4e5M/KrovwlZV4cE8zYo+mqZPwpoa6MH+RY1AqOQ8wmgo68GcBopAjyszwoj0
6cHpk1lAqow8wpgL68HodZe/0zI7wpxj3MEWf+k+lXtDwsvb+ME820W/XrxAwsd628E8qB9AGw5J
wn0U+MEqbaE/lbcwwtRu+sGcIh+/dcU2wqWQBMIAmB48mWk5wnBa+sGg4HVAC/c5wksRCcLNiTVA
Lx8+wmWDB8JpqLs/dj4/wjpaBMIUZUJA6rJMwipy4MHMieNAK7VJwj4i7cG2fOlA8qJQwooy7MFo
xNxAcbUwwqdd58EMvKpAetoxwk/o9MGOypxAYSAnwuUv8cFpac0/yuwlwkLq5MEapmM/

> <OMEGA_E>
Q2DnwA==

> <OMEGA_NBR>
     56490

$$$$
CACHE3HI_1716_29
  -OEChem-03092622513D

 35 37  0     0  0  0  0  0  0999 V2000
  -45.1530  -33.6515   -0.5401 C   0  0  0  0  0  0  0  0  0  0  0  0
  -44.1114  -33.1742   -1.3609 C   0  0  0  0  0  0  0  0  0  0  0  0
  -43.4570  -31.6242    0.2724 C   0  0  0  0  0  0  0  0  0  0  0  0
  -48.6607  -28.2469    5.3809 C   0  0  0  0  0  0  0  0  0  0  0  0
  -44.5009  -29.8239    6.2976 C   0  0  0  0  0  0  0  0  0  0  0  0
  -46.7193  -29.3240    4.7773 C   0  0  0  0  0  0  0  0  0  0  0  0
  -48.0501  -28.8549    4.3047 C   0  0  0  0  0  0  0  0  0  0  0  0
  -45.3442  -33.0886    0.7371 C   0  0  0  0  0  0  0  0  0  0  0  0
  -44.4699  -32.0601    1.1579 C   0  0  0  0  0  0  0  0  0  0  0  0
  -46.6188  -28.8950    6.1137 C   0  0  0  0  0  0  0  0  0  0  0  0
  -45.6266  -30.0656    4.2404 C   0  0  0  0  0  0  0  0  0  0  0  0
  -48.7132  -28.9434    2.9885 C   0  0  0  0  0  0  0  0  0  0  0  0
  -46.4155  -33.6445    1.6557 C   0  0  0  0  0  0  0  0  0  0  0  0
  -44.4738  -31.5436    2.5861 C   0  0  0  0  0  0  0  0  0  0  0  0
  -43.2918  -32.1772   -0.9529 N   0  0  0  0  0  0  0  0  0  0  0  0
  -45.5238  -29.1440    6.8531 N   0  0  0  0  0  0  0  0  0  0  0  0
  -44.5389  -30.2834    5.0272 N   0  0  0  0  0  0  0  0  0  0  0  0
  -47.7943  -28.2600    6.4580 N   0  0  0  0  0  0  0  0  0  0  0  0
  -50.0457  -28.5768    2.8691 N   0  0  0  0  0  0  0  0  0  0  0  0
  -45.6174  -30.6447    2.9597 N   0  0  0  0  0  0  0  0  0  0  0  0
  -48.1058  -29.3110    1.9924 O   0  0  0  0  0  0  0  0  0  0  0  0
  -45.8000  -34.4433   -0.8878 H   0  0  0  0  0  0  0  0  0  0  0  0
  -43.9641  -33.6134   -2.3365 H   0  0  0  0  0  0  0  0  0  0  0  0
  -42.7966  -30.8277    0.5820 H   0  0  0  0  0  0  0  0  0  0  0  0
  -49.6561  -27.8276    5.3822 H   0  0  0  0  0  0  0  0  0  0  0  0
  -43.6173  -30.0086    6.8905 H   0  0  0  0  0  0  0  0  0  0  0  0
  -45.9965  -34.4682    2.2523 H   0  0  0  0  0  0  0  0  0  0  0  0
  -46.7710  -32.8493    2.3275 H   0  0  0  0  0  0  0  0  0  0  0  0
  -47.2565  -34.0189    1.0535 H   0  0  0  0  0  0  0  0  0  0  0  0
  -44.4968  -32.4140    3.2583 H   0  0  0  0  0  0  0  0  0  0  0  0
  -43.5404  -30.9833    2.7435 H   0  0  0  0  0  0  0  0  0  0  0  0
  -47.9909  -27.8665    7.3560 H   0  0  0  0  0  0  0  0  0  0  0  0
  -50.4969  -28.6152    1.9775 H   0  0  0  0  0  0  0  0  0  0  0  0
  -50.5551  -28.2742    3.6746 H   0  0  0  0  0  0  0  0  0  0  0  0
  -46.4558  -31.1827    2.8734 H   0  0  0  0  0  0  0  0  0  0  0  0
  1  2  2  0  0  0  0
  1  8  1  0  0  0  0
  2 15  1  0  0  0  0
  3  9  1  0  0  0  0
  3 15  2  0  0  0  0
  4  7  2  0  0  0  0
  4 18  1  0  0  0  0
  5 16  2  0  0  0  0
  5 17  1  0  0  0  0
  6  7  1  0  0  0  0
  6 10  2  0  0  0  0
  6 11  1  0  0  0  0
  7 12  1  0  0  0  0
  8  9  2  0  0  0  0
  8 13  1  0  0  0  0
  9 14  1  0  0  0  0
 10 16  1  0  0  0  0
 10 18  1  0  0  0  0
 11 17  2  0  0  0  0
 11 20  1  0  0  0  0
 12 19  1  0  0  0  0
 12 21  2  0  0  0  0
 14 20  1  0  0  0  0
  1 22  1  0  0  0  0
  2 23  1  0  0  0  0
  3 24  1  0  0  0  0
  4 25  1  0  0  0  0
  5 26  1  0  0  0  0
 13 27  1  0  0  0  0
 13 28  1  0  0  0  0
 13 29  1  0  0  0  0
 14 30  1  0  0  0  0
 14 31  1  0  0  0  0
 18 32  1  0  0  0  0
 19 33  1  0  0  0  0
 19 34  1  0  0  0  0
 20 35  1  0  0  0  0
M  END
> <POSIT::Probability>
0.91

> <POSIT::Method>
SHAPEFIT

> <ReceptorTitle>
UCSF-P4609-REFINED_LIGAND-BOUND-STATE_AALTB__DU__LA1_A-201(A)

> <OMEGA_C>
qZw0wiqbBsJUQgq/HXIwwmuyBMKAM66/AtQtwkb+/MFIeos+m6RCwpP54cFcMKxA9wAywmeX7sEU
hslAieA6wnyX6sFh35hATjNAwvDW5sF8wIlAgWA1wrhaBMLcsjw/KuExwpA9AMIsNZQ/r3k6wggp
58Fgo8NAnYE2wmSG8MG2sYdAWNpCwv6L58EkQz9Ag6k5wuyTBsKY7dM/LeUxwlRZ/MGAgiVA0iot
wnO1AMJ+73O/Wxg2wuAm6cGMTNtA2CcywnZE8sGM3qBAYi0/woQU4sG+p85Azy5IwlGd5MFAnzdA
L3g2wkIo9cF2bD1AVWxAwvB86sFACP8/LjM3wvPFCcLzQ2O/ONsvwih0BsLviRXAtS8rwhqf9sHd
/RQ/zJ9GwvWe3sEvO6xAHXguwo8R8MG+ftxAY/w3wmPfCcImJRBAjBU7wqhlA8Jy9RRApAY9wmIT
CMJz2oY/xfwxwvKnAcI1iFBAWSkuwtzd98E4li9AuvY/wp/u3sGSZOtA0/xJwvTr5MFzHv0/dThK
woEx4sE/LWtAxdI5wjp2+cFF5TdA

> <OMEGA_E>
PMSoPg==

> <OMEGA_NBR>
     57717

$$$$
CACHE3HI_1716_34
  -OEChem-03092622513D

 34 36  0     0  0  0  0  0  0999 V2000
  -44.8151  -33.5917   -0.9277 C   0  0  0  0  0  0  0  0  0  0  0  0
  -45.6023  -33.7375    0.2305 C   0  0  0  0  0  0  0  0  0  0  0  0
  -43.6268  -31.7322    0.1115 C   0  0  0  0  0  0  0  0  0  0  0  0
  -48.7208  -28.3889    5.3441 C   0  0  0  0  0  0  0  0  0  0  0  0
  -44.5252  -29.7635    6.4304 C   0  0  0  0  0  0  0  0  0  0  0  0
  -46.6771  -29.2921    4.8103 C   0  0  0  0  0  0  0  0  0  0  0  0
  -48.0077  -28.8900    4.2764 C   0  0  0  0  0  0  0  0  0  0  0  0
  -44.4241  -31.8621    1.2691 C   0  0  0  0  0  0  0  0  0  0  0  0
  -43.8197  -32.5973   -0.9824 C   0  0  0  0  0  0  0  0  0  0  0  0
  -45.4018  -32.8866    1.3356 C   0  0  0  0  0  0  0  0  0  0  0  0
  -46.6889  -28.9562    6.1735 C   0  0  0  0  0  0  0  0  0  0  0  0
  -45.5057  -29.9118    4.2982 C   0  0  0  0  0  0  0  0  0  0  0  0
  -48.5915  -28.9569    2.9173 C   0  0  0  0  0  0  0  0  0  0  0  0
  -44.1485  -30.9615    2.4533 C   0  0  0  0  0  0  0  0  0  0  0  0
  -45.6241  -29.1880    6.9634 N   0  0  0  0  0  0  0  0  0  0  0  0
  -44.4539  -30.1265    5.1295 N   0  0  0  0  0  0  0  0  0  0  0  0
  -47.9236  -28.4187    6.4750 N   0  0  0  0  0  0  0  0  0  0  0  0
  -49.9341  -28.6620    2.7348 N   0  0  0  0  0  0  0  0  0  0  0  0
  -45.3977  -30.3324    2.9730 N   0  0  0  0  0  0  0  0  0  0  0  0
  -47.9160  -29.2514    1.9411 O   0  0  0  0  0  0  0  0  0  0  0  0
  -43.0360  -32.4827   -2.0858 O   0  0  0  0  0  0  0  0  0  0  0  0
  -46.1454  -33.0697    2.4531 F   0  0  0  0  0  0  0  0  0  0  0  0
  -44.9748  -34.2428   -1.7744 H   0  0  0  0  0  0  0  0  0  0  0  0
  -46.3622  -34.5039    0.2720 H   0  0  0  0  0  0  0  0  0  0  0  0
  -42.8664  -30.9668    0.0648 H   0  0  0  0  0  0  0  0  0  0  0  0
  -49.7388  -28.0304    5.3046 H   0  0  0  0  0  0  0  0  0  0  0  0
  -43.6709  -29.9407    7.0669 H   0  0  0  0  0  0  0  0  0  0  0  0
  -43.6899  -31.5583    3.2555 H   0  0  0  0  0  0  0  0  0  0  0  0
  -43.4527  -30.1681    2.1430 H   0  0  0  0  0  0  0  0  0  0  0  0
  -48.2022  -28.0972    7.3800 H   0  0  0  0  0  0  0  0  0  0  0  0
  -50.3326  -28.6925    1.8181 H   0  0  0  0  0  0  0  0  0  0  0  0
  -50.5039  -28.4189    3.5198 H   0  0  0  0  0  0  0  0  0  0  0  0
  -46.1299  -30.9978    2.8278 H   0  0  0  0  0  0  0  0  0  0  0  0
  -42.4201  -31.7696   -1.9647 H   0  0  0  0  0  0  0  0  0  0  0  0
  1  2  1  0  0  0  0
  1  9  2  0  0  0  0
  2 10  2  0  0  0  0
  3  8  2  0  0  0  0
  3  9  1  0  0  0  0
  4  7  2  0  0  0  0
  4 17  1  0  0  0  0
  5 15  2  0  0  0  0
  5 16  1  0  0  0  0
  6  7  1  0  0  0  0
  6 11  2  0  0  0  0
  6 12  1  0  0  0  0
  7 13  1  0  0  0  0
  8 10  1  0  0  0  0
  8 14  1  0  0  0  0
  9 21  1  0  0  0  0
 10 22  1  0  0  0  0
 11 15  1  0  0  0  0
 11 17  1  0  0  0  0
 12 16  2  0  0  0  0
 12 19  1  0  0  0  0
 13 18  1  0  0  0  0
 13 20  2  0  0  0  0
 14 19  1  0  0  0  0
  1 23  1  0  0  0  0
  2 24  1  0  0  0  0
  3 25  1  0  0  0  0
  4 26  1  0  0  0  0
  5 27  1  0  0  0  0
 14 28  1  0  0  0  0
 14 29  1  0  0  0  0
 17 30  1  0  0  0  0
 18 31  1  0  0  0  0
 18 32  1  0  0  0  0
 19 33  1  0  0  0  0
 21 34  1  0  0  0  0
M  END
> <POSIT::Probability>
0.99

> <POSIT::Method>
SHAPEFIT

> <ReceptorTitle>
UCSF-P4609-REFINED_LIGAND-BOUND-STATE_AALTB__DU__LA1_A-201(A)

> <OMEGA_C>
qEIzwuhdBsLqe22/ymg2wjjzBsIIC2w+4oEuwp/b/cHgVeQ9FuJCwnkc48H5AqtA1hkywrEb7sG9
xc1AWbU6wjdW6sGU7ZlA3AdAwqAe58Ea2IhARLIxwonl/sHNcqI/YEcvwpxjAsJufXu/bps1wtSL
A8Jg9ao/csE6wjem58GyjcVA0wU2wlJL78HHiolAuV1Cws+n58FNtTpAE5gwwhux98HAAh1AEH82
wveA6cGD1N5A1NAxwhgD8cH2JKRAy7E/wo1Z48ERM89AhLxHwtdL5cFMBi9AM5c1wsOo8sEmRT5A
8qk/wtwC6sGGd/g/5yQswkLuAcJufgXA6JQ4wmxHBMIeAB1AJ+Yzwqb4CMK0H+O/33I5wvkDCsK7
SIs+MXcrwvC798HJqIQ9gfRGwjg+4MEcv6lA/q4uwqWG78GxI+JAfcIuwlh3/MEpWlBAhc8twjRY
8cGjJglAB89AwhXH4MHfKOxAiFRJwiuK5cG4tug/8wNKwvRZ48E8RGFAC4U4wmf798Hd+TRALK4p
wjQo/sEJe/u/

> <OMEGA_E>
AMxFPQ==

> <OMEGA_NBR>
     58924

$$$$
CACHE3HI_1716_37
  -OEChem-03092622513D

 35 37  0     0  0  0  0  0  0999 V2000
  -45.1562  -33.6192   -0.5673 C   0  0  0  0  0  0  0  0  0  0  0  0
  -44.1289  -33.1385   -1.3991 C   0  0  0  0  0  0  0  0  0  0  0  0
  -43.4654  -31.5865    0.2213 C   0  0  0  0  0  0  0  0  0  0  0  0
  -48.6386  -28.2091    5.3514 C   0  0  0  0  0  0  0  0  0  0  0  0
  -44.5070  -29.8317    6.3200 C   0  0  0  0  0  0  0  0  0  0  0  0
  -46.7079  -29.3203    4.7795 C   0  0  0  0  0  0  0  0  0  0  0  0
  -48.0303  -28.8458    4.2905 C   0  0  0  0  0  0  0  0  0  0  0  0
  -45.3329  -33.0722    0.7259 C   0  0  0  0  0  0  0  0  0  0  0  0
  -44.4603  -32.0207    1.1272 C   0  0  0  0  0  0  0  0  0  0  0  0
  -46.6198  -28.8929    6.1169 C   0  0  0  0  0  0  0  0  0  0  0  0
  -45.6132  -30.0634    4.2520 C   0  0  0  0  0  0  0  0  0  0  0  0
  -48.6921  -28.9641    2.9748 C   0  0  0  0  0  0  0  0  0  0  0  0
  -44.4192  -31.4533    2.5439 C   0  0  0  0  0  0  0  0  0  0  0  0
  -46.4281  -33.6219    1.6407 C   0  0  0  0  0  0  0  0  0  0  0  0
  -43.3102  -32.1411   -1.0019 N   0  0  0  0  0  0  0  0  0  0  0  0
  -45.5349  -29.1522    6.8685 N   0  0  0  0  0  0  0  0  0  0  0  0
  -44.5331  -30.2872    5.0469 N   0  0  0  0  0  0  0  0  0  0  0  0
  -47.7869  -28.2317    6.4407 N   0  0  0  0  0  0  0  0  0  0  0  0
  -50.0236  -28.5995    2.8456 N   0  0  0  0  0  0  0  0  0  0  0  0
  -45.5917  -30.6185    2.9622 N   0  0  0  0  0  0  0  0  0  0  0  0
  -48.0906  -29.3706    1.9903 O   0  0  0  0  0  0  0  0  0  0  0  0
  -47.0457  -34.6975    1.0815 F   0  0  0  0  0  0  0  0  0  0  0  0
  -47.3627  -32.6611    1.8568 F   0  0  0  0  0  0  0  0  0  0  0  0
  -45.9019  -34.0266    2.8249 F   0  0  0  0  0  0  0  0  0  0  0  0
  -45.8099  -34.4053   -0.9154 H   0  0  0  0  0  0  0  0  0  0  0  0
  -43.9920  -33.5768   -2.3766 H   0  0  0  0  0  0  0  0  0  0  0  0
  -42.8062  -30.7837    0.5168 H   0  0  0  0  0  0  0  0  0  0  0  0
  -49.6225  -27.7641    5.3345 H   0  0  0  0  0  0  0  0  0  0  0  0
  -43.6292  -30.0192    6.9207 H   0  0  0  0  0  0  0  0  0  0  0  0
  -44.3459  -32.3006    3.2416 H   0  0  0  0  0  0  0  0  0  0  0  0
  -43.5172  -30.8295    2.6285 H   0  0  0  0  0  0  0  0  0  0  0  0
  -47.9875  -27.8276    7.3331 H   0  0  0  0  0  0  0  0  0  0  0  0
  -50.4777  -28.6709    1.9575 H   0  0  0  0  0  0  0  0  0  0  0  0
  -50.5298  -28.2651    3.6406 H   0  0  0  0  0  0  0  0  0  0  0  0
  -46.4049  -31.1945    2.8786 H   0  0  0  0  0  0  0  0  0  0  0  0
  1  2  1  0  0  0  0
  1  8  2  0  0  0  0
  2 15  2  0  0  0  0
  3  9  2  0  0  0  0
  3 15  1  0  0  0  0
  4  7  2  0  0  0  0
  4 18  1  0  0  0  0
  5 16  2  0  0  0  0
  5 17  1  0  0  0  0
  6  7  1  0  0  0  0
  6 10  2  0  0  0  0
  6 11  1  0  0  0  0
  7 12  1  0  0  0  0
  8  9  1  0  0  0  0
  8 14  1  0  0  0  0
  9 13  1  0  0  0  0
 10 16  1  0  0  0  0
 10 18  1  0  0  0  0
 11 17  2  0  0  0  0
 11 20  1  0  0  0  0
 12 19  1  0  0  0  0
 12 21  2  0  0  0  0
 13 20  1  0  0  0  0
 14 22  1  0  0  0  0
 14 23  1  0  0  0  0
 14 24  1  0  0  0  0
  1 25  1  0  0  0  0
  2 26  1  0  0  0  0
  3 27  1  0  0  0  0
  4 28  1  0  0  0  0
  5 29  1  0  0  0  0
 13 30  1  0  0  0  0
 13 31  1  0  0  0  0
 18 32  1  0  0  0  0
 19 33  1  0  0  0  0
 19 34  1  0  0  0  0
 20 35  1  0  0  0  0
M  END
> <POSIT::Probability>
0.91

> <POSIT::Method>
SHAPEFIT

> <ReceptorTitle>
UCSF-P4609-REFINED_LIGAND-BOUND-STATE_AALTB__DU__LA1_A-201(A)

> <OMEGA_C>
+J80whJ6BsK4OxG/A4QwwtqNBMIVFLO/itwtwjmx/MHwlmI+9I1Cwjis4cHaPqtAJgcywkOn7sG0
PcpA6tQ6wuCP6sGp8ZhACB9AwkHE5sHhS4lA7FQ1wvBJBMIU0zk/T9cxwjAVAMJkSJA/pHo6wrMk
58HwvcNA8HM2wr+B8MFIEIhAq8RCwoq258GoYj5AT60xwnCg+8G6zyJAX7Y5wtN8BsLoAtI/mj0t
wnSQAMIvP4C/xiM2wq036cHCyttA4CEywidM8sFwgKFAwSU/wnba4cEEGs5AKhhIwr7L5MHSHjZA
4l02wrHy9MH6lD1AwVxAwhX36sFMw/4/2S48wkPKCsLAb4o/X3M9wvWkAsK4qu0/jJs3wkUbCMLc
yzRATT03whSfCcItVWq/1vcvwqNOBsIKGhjAkDkrwvpE9sEzTQQ/eH1Gws4c3sEttKpAU4Quwlcn
8MEsdt1ANmIxws4zAcLadk9AmBEuwuei9sHLOShAPvM/wuSe3sHdqOpAJulJwudd5cGGkPo/hh5K
wgAf4sF1/2hAmZ45wj6O+cFwOzhA

> <OMEGA_E>
SL3GPg==

> <OMEGA_NBR>
     60151

$$$$
CACHE3HI_1717_85
  -OEChem-03092622513D

 39 42  0     1  0  0  0  0  0999 V2000
  -43.3290  -32.0962   -0.2452 C   0  0  0  0  0  0  0  0  0  0  0  0
  -43.6987  -31.8577    1.0852 C   0  0  0  0  0  0  0  0  0  0  0  0
  -45.2232  -33.6247   -0.4906 C   0  0  0  0  0  0  0  0  0  0  0  0
  -48.2019  -29.1169    4.5233 C   0  0  0  0  0  0  0  0  0  0  0  0
  -44.5213  -29.7913    6.3322 C   0  0  0  0  0  0  0  0  0  0  0  0
  -46.8257  -29.4400    4.9298 C   0  0  0  0  0  0  0  0  0  0  0  0
  -44.0809  -32.9944   -1.0381 C   0  0  0  0  0  0  0  0  0  0  0  0
  -44.8317  -32.4965    1.6254 C   0  0  0  0  0  0  0  0  0  0  0  0
  -45.6044  -33.3709    0.8332 C   0  0  0  0  0  0  0  0  0  0  0  0
  -46.6731  -28.9135    6.2062 C   0  0  0  0  0  0  0  0  0  0  0  0
  -45.7459  -30.1547    4.3607 C   0  0  0  0  0  0  0  0  0  0  0  0
  -43.6652  -33.2954   -2.4212 C   0  0  0  0  0  0  0  0  0  0  0  0
  -46.8891  -28.7727    1.8018 C   0  0  0  0  0  0  0  0  0  0  0  0
  -45.8791  -29.4923    0.9206 C   0  0  0  0  0  0  0  0  0  0  0  0
  -46.6487  -30.2872    1.9901 C   0  0  0  0  0  0  0  0  0  0  0  0
  -45.2403  -32.1866    3.0357 C   0  0  0  0  0  0  0  0  0  0  0  0
  -48.7441  -28.3865    5.4707 N   0  0  0  0  0  0  0  0  0  0  0  0
  -45.5355  -29.1002    6.9046 N   0  0  0  0  0  0  0  0  0  0  0  0
  -44.6055  -30.3013    5.0817 N   0  0  0  0  0  0  0  0  0  0  0  0
  -47.8487  -28.2487    6.5011 N   0  0  0  0  0  0  0  0  0  0  0  0
  -44.3679  -34.2178   -3.1745 N   0  0  0  0  0  0  0  0  0  0  0  0
  -45.8474  -30.8225    3.1376 N   0  0  3  0  0  0  0  0  0  0  0  0
  -42.6798  -32.7574   -2.9119 O   0  0  0  0  0  0  0  0  0  0  0  0
  -46.7075  -33.9776    1.3333 F   0  0  0  0  0  0  0  0  0  0  0  0
  -42.4699  -31.5942   -0.6653 H   0  0  0  0  0  0  0  0  0  0  0  0
  -43.1152  -31.1846    1.6959 H   0  0  0  0  0  0  0  0  0  0  0  0
  -45.8040  -34.3047   -1.0962 H   0  0  0  0  0  0  0  0  0  0  0  0
  -48.6823  -29.4261    3.6067 H   0  0  0  0  0  0  0  0  0  0  0  0
  -43.6115  -29.9409    6.8947 H   0  0  0  0  0  0  0  0  0  0  0  0
  -46.5428  -28.0623    2.5669 H   0  0  0  0  0  0  0  0  0  0  0  0
  -47.8370  -28.4162    1.3726 H   0  0  0  0  0  0  0  0  0  0  0  0
  -46.0980  -29.6531   -0.1453 H   0  0  0  0  0  0  0  0  0  0  0  0
  -44.8038  -29.2992    1.0490 H   0  0  0  0  0  0  0  0  0  0  0  0
  -47.4469  -30.9412    1.6091 H   0  0  0  0  0  0  0  0  0  0  0  0
  -45.9774  -32.9327    3.3675 H   0  0  0  0  0  0  0  0  0  0  0  0
  -44.3533  -32.2336    3.6845 H   0  0  0  0  0  0  0  0  0  0  0  0
  -48.0218  -27.7402    7.3445 H   0  0  0  0  0  0  0  0  0  0  0  0
  -44.0693  -34.4360   -4.1037 H   0  0  0  0  0  0  0  0  0  0  0  0
  -45.1745  -34.6668   -2.7902 H   0  0  0  0  0  0  0  0  0  0  0  0
  1  2  1  0  0  0  0
  1  7  2  0  0  0  0
  2  8  2  0  0  0  0
  3  7  1  0  0  0  0
  3  9  2  0  0  0  0
  4  6  1  0  0  0  0
  4 17  2  0  0  0  0
  5 18  2  0  0  0  0
  5 19  1  0  0  0  0
  6 10  2  0  0  0  0
  6 11  1  0  0  0  0
  7 12  1  0  0  0  0
  8  9  1  0  0  0  0
  8 16  1  0  0  0  0
  9 24  1  0  0  0  0
 10 18  1  0  0  0  0
 10 20  1  0  0  0  0
 11 19  2  0  0  0  0
 11 22  1  0  0  0  0
 12 21  1  0  0  0  0
 12 23  2  0  0  0  0
 13 14  1  0  0  0  0
 13 15  1  0  0  0  0
 14 15  1  0  0  0  0
 15 22  1  0  0  0  0
 16 22  1  0  0  0  0
 17 20  1  0  0  0  0
  1 25  1  0  0  0  0
  2 26  1  0  0  0  0
  3 27  1  0  0  0  0
  4 28  1  0  0  0  0
  5 29  1  0  0  0  0
 13 30  1  0  0  0  0
 13 31  1  0  0  0  0
 14 32  1  0  0  0  0
 14 33  1  0  0  0  0
 15 34  1  0  0  0  0
 16 35  1  0  0  0  0
 16 36  1  0  0  0  0
 20 37  1  0  0  0  0
 21 38  1  0  0  0  0
 21 39  1  0  0  0  0
M  END
> <POSIT::Probability>
0.72

> <POSIT::Method>
SHAPEFIT

> <ReceptorTitle>
UCSF-P4609-REFINED_LIGAND-BOUND-STATE_AALTB__DU__LA1_A-201(A)

> <OMEGA_C>
4VAtwodiAMKIInu+bMsuwpTc/sH/54o/mOQ0wrR/BsJALfu+ys5Awn3v6MEVv5BAxBUywotU7sG6
ocpAi007wjOF68HbwJ1A2FIwwkr6A8Ip4IS/qlMzwmX8AcL7C9A/52o2wtZ7BcIOSlU/RbE6wu1O
58GGmcZA1Ps2wuQ88cGtiotALKkuwncuBcJj9BrAaY47woIu5sERouY/MIQ3wiHw68FWq2s/Opg6
wklM8sEru/4/HvY0wgy/AMI6SEJA+flCwqUX48GrD69AUSQ2wkTN6MEt8txABGwywhZp8sH3nKJA
GmU/wlf94cHcCNBAsHgxwhHfCMLTK0vAt2M3wnSU9sHuzUhAKbgqwpEHA8KVXDrAcNQ6whrpB8Jj
qao/N+EpwvfA/MHLUCq/93UswhZ6+cGwEtk/UTc3wv03CcIrT4y/o7pCwpZo68HT1GZALHIuwvuG
78FLodxA1ys6wn5/4MEwSCRAHlk/wklU48GQsK8/XWQ4wqY57cE30xS+Fjczwttk6sFpRYY/qck9
wouH98EI+M0/1+g3wgu7A8JyhVdA0GkxwjvvAMK2zmtASxZAwtbr3cGNButA9UYwwm++CcJTUYPA
vLI0wsqqCsIpkzLA

> <OMEGA_E>
sjROPw==

> <OMEGA_NBR>
     61464

$$$$
CACHE3HI_1718_29
  -OEChem-03092622513D

 29 29  0     1  0  0  0  0  0999 V2000
  -47.0033  -30.2673    4.3955 C   0  0  0  0  0  0  0  0  0  0  0  0
  -47.8589  -28.5331    2.9471 C   0  0  0  0  0  0  0  0  0  0  0  0
  -47.9582  -29.9350    5.3565 C   0  0  0  0  0  0  0  0  0  0  0  0
  -48.8138  -28.2008    3.9080 C   0  0  0  0  0  0  0  0  0  0  0  0
  -46.9538  -29.5663    3.1907 C   0  0  0  0  0  0  0  0  0  0  0  0
  -48.8633  -28.9018    5.1129 C   0  0  0  0  0  0  0  0  0  0  0  0
  -45.3910  -29.0618    1.2821 C   0  0  0  0  0  0  0  0  0  0  0  0
  -51.1156  -29.0824    6.2294 C   0  0  0  0  0  0  0  0  0  0  0  0
  -44.3933  -29.8144    0.4055 C   0  0  2  0  0  0  0  0  0  0  0  0
  -44.2873  -31.2713    0.8067 C   0  0  0  0  0  0  0  0  0  0  0  0
  -51.2822  -29.6875    7.4673 N   0  0  0  0  0  0  0  0  0  0  0  0
  -45.9860  -29.9037    2.2155 N   0  0  0  0  0  0  0  0  0  0  0  0
  -49.8177  -28.5695    6.0747 N   0  0  0  0  0  0  0  0  0  0  0  0
  -45.5834  -27.8577    1.1380 O   0  0  0  0  0  0  0  0  0  0  0  0
  -52.0292  -29.0327    5.4103 O   0  0  0  0  0  0  0  0  0  0  0  0
  -43.1121  -29.2224    0.5478 O   0  0  0  0  0  0  0  0  0  0  0  0
  -43.3725  -31.9271    0.0600 F   0  0  0  0  0  0  0  0  0  0  0  0
  -43.9173  -31.3834    2.1016 F   0  0  0  0  0  0  0  0  0  0  0  0
  -45.4691  -31.9104    0.6716 F   0  0  0  0  0  0  0  0  0  0  0  0
  -46.3038  -31.0751    4.5954 H   0  0  0  0  0  0  0  0  0  0  0  0
  -47.8288  -27.9789    2.0125 H   0  0  0  0  0  0  0  0  0  0  0  0
  -47.9879  -30.4884    6.2916 H   0  0  0  0  0  0  0  0  0  0  0  0
  -49.5142  -27.3940    3.7074 H   0  0  0  0  0  0  0  0  0  0  0  0
  -44.6918  -29.7326   -0.6456 H   0  0  0  0  0  0  0  0  0  0  0  0
  -50.5058  -29.7106    8.1198 H   0  0  0  0  0  0  0  0  0  0  0  0
  -52.1680  -30.1073    7.7304 H   0  0  0  0  0  0  0  0  0  0  0  0
  -45.6902  -30.8777    2.1945 H   0  0  0  0  0  0  0  0  0  0  0  0
  -49.5501  -27.8607    6.7651 H   0  0  0  0  0  0  0  0  0  0  0  0
  -43.1950  -28.2972    0.2630 H   0  0  0  0  0  0  0  0  0  0  0  0
  1  3  1  0  0  0  0
  1  5  2  0  0  0  0
  2  4  2  0  0  0  0
  2  5  1  0  0  0  0
  3  6  2  0  0  0  0
  4  6  1  0  0  0  0
  5 12  1  0  0  0  0
  6 13  1  0  0  0  0
  7  9  1  0  0  0  0
  7 12  1  0  0  0  0
  7 14  2  0  0  0  0
  8 11  1  0  0  0  0
  8 13  1  0  0  0  0
  8 15  2  0  0  0  0
  9 10  1  0  0  0  0
  9 16  1  0  0  0  0
 10 17  1  0  0  0  0
 10 18  1  0  0  0  0
 10 19  1  0  0  0  0
  1 20  1  0  0  0  0
  2 21  1  0  0  0  0
  3 22  1  0  0  0  0
  4 23  1  0  0  0  0
  9 24  1  0  0  0  0
 11 25  1  0  0  0  0
 11 26  1  0  0  0  0
 12 27  1  0  0  0  0
 13 28  1  0  0  0  0
 16 29  1  0  0  0  0
M  END
> <POSIT::Probability>
0.14

> <POSIT::Method>
HYBRID

> <ReceptorTitle>
UCSF-P4609_LA2_MERGED(A)

> <OMEGA_C>
WQM8wn4j8sH6p4xAhG8/wrZD5MHunTxALtU/wvd678EbaKtAU0FDwiqb4cFKHXpAutA7wrmH7MGu
NExA+HNDwvQ258G8nKNAXJA1wop+6MEeG6Q/aXZMwrmo6MFCV8dAspIxwvCD7sFgns8+MCYxwqwr
+sGwgU4/BiFNwgSA7cHQ8+5ApfE3wtg678FMyg1ASkVHwlyO5MEIZMJAalU2wn/c3sGCq5E/8h1Q
wgZD6MF4Ia1A1HIswmTH6cF4PQw/an0twqRq/8EAxHU9T6svwjUR+8HcgAZAYOA1wmtI/8Gw7Cs/
Hjc5wt6Z+MG9DZNAuVA/wsjU38ElzQBAnvM/wkHo88EDVclAkw5Gwtwm28FaRm1AYsQywlrc7cFw
RyW//AVKwk2v7cGa6gFBAKxQwrPb8MHBX/dA0MI2woQF98EecwxASzNGwrzi3sHRe9hAuscswpxg
4sGIq4Y+

> <OMEGA_E>
EG20wA==

> <OMEGA_NBR>
     62466

$$$$
CACHE3HI_1718_30
  -OEChem-03092622513D

 32 32  0     1  0  0  0  0  0999 V2000
  -44.5198  -31.7506    3.0718 C   0  0  0  0  0  0  0  0  0  0  0  0
  -45.6294  -30.0847    1.7186 C   0  0  0  0  0  0  0  0  0  0  0  0
  -44.4535  -32.6017    1.9687 C   0  0  0  0  0  0  0  0  0  0  0  0
  -45.5631  -30.9357    0.6155 C   0  0  0  0  0  0  0  0  0  0  0  0
  -45.1076  -30.4920    2.9466 C   0  0  0  0  0  0  0  0  0  0  0  0
  -44.9753  -32.1944    0.7407 C   0  0  0  0  0  0  0  0  0  0  0  0
  -46.9583  -28.9431    5.7566 C   0  0  0  0  0  0  0  0  0  0  0  0
  -45.4604  -34.3287   -0.5092 C   0  0  0  0  0  0  0  0  0  0  0  0
  -45.1816  -29.5763    4.1347 C   0  0  0  0  0  0  0  0  0  0  0  0
  -48.4468  -28.6309    5.8375 C   0  0  1  0  0  0  0  0  0  0  0  0
  -49.1275  -28.7370    4.4880 C   0  0  0  0  0  0  0  0  0  0  0  0
  -46.6197  -34.4755    0.2395 N   0  0  0  0  0  0  0  0  0  0  0  0
  -44.9088  -33.0457   -0.3626 N   0  0  0  0  0  0  0  0  0  0  0  0
  -46.5447  -29.2282    4.4651 N   0  0  0  0  0  0  0  0  0  0  0  0
  -46.2322  -28.9526    6.7486 O   0  0  0  0  0  0  0  0  0  0  0  0
  -45.0192  -35.2454   -1.1969 O   0  0  0  0  0  0  0  0  0  0  0  0
  -49.0552  -29.5407    6.7401 O   0  0  0  0  0  0  0  0  0  0  0  0
  -48.6144  -27.8570    3.6014 F   0  0  0  0  0  0  0  0  0  0  0  0
  -48.9620  -29.9734    3.9672 F   0  0  0  0  0  0  0  0  0  0  0  0
  -50.4543  -28.5058    4.5837 F   0  0  0  0  0  0  0  0  0  0  0  0
  -44.1111  -32.0764    4.0246 H   0  0  0  0  0  0  0  0  0  0  0  0
  -46.0896  -29.1057    1.6123 H   0  0  0  0  0  0  0  0  0  0  0  0
  -43.9930  -33.5805    2.0775 H   0  0  0  0  0  0  0  0  0  0  0  0
  -45.9732  -30.6077   -0.3364 H   0  0  0  0  0  0  0  0  0  0  0  0
  -44.7310  -30.0481    5.0142 H   0  0  0  0  0  0  0  0  0  0  0  0
  -44.6345  -28.6462    3.9483 H   0  0  0  0  0  0  0  0  0  0  0  0
  -48.5746  -27.6243    6.2482 H   0  0  0  0  0  0  0  0  0  0  0  0
  -46.9557  -33.6972    0.7967 H   0  0  0  0  0  0  0  0  0  0  0  0
  -47.1370  -35.3487    0.2388 H   0  0  0  0  0  0  0  0  0  0  0  0
  -44.3941  -32.7028   -1.1801 H   0  0  0  0  0  0  0  0  0  0  0  0
  -47.2266  -29.2230    3.7116 H   0  0  0  0  0  0  0  0  0  0  0  0
  -48.6245  -29.4146    7.6017 H   0  0  0  0  0  0  0  0  0  0  0  0
  1  3  1  0  0  0  0
  1  5  2  0  0  0  0
  2  4  2  0  0  0  0
  2  5  1  0  0  0  0
  3  6  2  0  0  0  0
  4  6  1  0  0  0  0
  5  9  1  0  0  0  0
  6 13  1  0  0  0  0
  7 10  1  0  0  0  0
  7 14  1  0  0  0  0
  7 15  2  0  0  0  0
  8 12  1  0  0  0  0
  8 13  1  0  0  0  0
  8 16  2  0  0  0  0
  9 14  1  0  0  0  0
 10 11  1  0  0  0  0
 10 17  1  0  0  0  0
 11 18  1  0  0  0  0
 11 19  1  0  0  0  0
 11 20  1  0  0  0  0
  1 21  1  0  0  0  0
  2 22  1  0  0  0  0
  3 23  1  0  0  0  0
  4 24  1  0  0  0  0
  9 25  1  0  0  0  0
  9 26  1  0  0  0  0
 10 27  1  0  0  0  0
 12 28  1  0  0  0  0
 12 29  1  0  0  0  0
 13 30  1  0  0  0  0
 14 31  1  0  0  0  0
 17 32  1  0  0  0  0
M  END
> <POSIT::Probability>
0.23

> <POSIT::Method>
HYBRID

> <ReceptorTitle>
UCSF-P4609_LA2_MERGED(A)

> <OMEGA_C>
PBQywj4B/sEemURAeIQ2woKt8MF8/Ns/aNAxwiBoAsKk/fs/qUA2wml898EOkR0/OG40wpDv88GX
lTxAqOYzwhrHAMLgnT0/VNU7woqL58HMNbhAa9c1wotQCcINWgK/77k0wjic7MFQT4RAiclBwhcM
5cEOzbpAh4JEwnbl5cH0nY9An3o6wurmCcIiO3U+kaIzwsUuBMJcprm+0i06wmDT6cE54o5Aye04
wtSe58Fy9NdAsxM0wkn7DMJCNZm/fzhEwmJT7MGOrtdALnVCwiLb3sGUfWZACtlDwpzJ78Hl5n1A
L9FJwugL5MFwrZJAuXEwwjJOAMJAyYBAwFs4wozY6MGEX84/3/gvwmlSBsJ+9gRAl+Q3wqfc9MFU
O6y+f+wywnhi8MH+c6BAvYkywnYr5cFQsXxAcExCwpT+3MEc8cdAotI7wubJBsKF8Us/Sow8wgxl
DcLuenQ+h5MxwrPPAsKbDJe//ec8wrnI6cE4i21AeX9CwgVR68FKQfNA

> <OMEGA_E>
nzavwA==

> <OMEGA_NBR>
     63531

$$$$
CACHE3-HO_1705_1
  -OEChem-03092622513D

 38 40  0     1  0  0  0  0  0999 V2000
  -48.3521  -28.6321    4.7483 C   0  0  0  0  0  0  0  0  0  0  0  0
  -49.0687  -28.6845    5.9167 C   0  0  0  0  0  0  0  0  0  0  0  0
  -46.9573  -29.0184    5.0566 C   0  0  0  0  0  0  0  0  0  0  0  0
  -46.9311  -29.2373    6.4449 C   0  0  0  0  0  0  0  0  0  0  0  0
  -45.7335  -29.1561    4.3315 C   0  0  0  0  0  0  0  0  0  0  0  0
  -44.6546  -29.6780    6.3658 C   0  0  0  0  0  0  0  0  0  0  0  0
  -44.0921  -30.5065    1.8326 C   0  0  0  0  0  0  0  0  0  0  0  0
  -46.6268  -30.4680    1.4248 C   0  0  0  0  0  0  0  0  0  0  0  0
  -44.1992  -29.0522    2.3468 C   0  0  0  0  0  0  0  0  0  0  0  0
  -46.6384  -29.0186    1.9375 C   0  0  0  0  0  0  0  0  0  0  0  0
  -45.2387  -30.8315    0.8240 C   0  0  0  0  0  0  0  0  0  0  0  0
  -45.0675  -30.1080   -0.5661 C   0  0  2  0  0  0  0  0  0  0  0  0
  -45.0970  -31.1455   -1.6955 C   0  0  0  0  0  0  0  0  0  0  0  0
  -45.7903  -29.5531    7.0820 N   0  0  0  0  0  0  0  0  0  0  0  0
  -44.6205  -29.5076    5.0278 N   0  0  0  0  0  0  0  0  0  0  0  0
  -48.2087  -29.0457    6.9407 N   0  0  0  0  0  0  0  0  0  0  0  0
  -45.5570  -28.8758    2.9487 N   0  0  0  0  0  0  0  0  0  0  0  0
  -43.4684  -29.9596    7.0241 N   0  0  0  0  0  0  0  0  0  0  0  0
  -43.8548  -29.3588   -0.6783 O   0  0  0  0  0  0  0  0  0  0  0  0
  -44.9004  -30.5244   -2.8865 F   0  0  0  0  0  0  0  0  0  0  0  0
  -44.1111  -32.0659   -1.5050 F   0  0  0  0  0  0  0  0  0  0  0  0
  -46.3082  -31.7616   -1.7121 F   0  0  0  0  0  0  0  0  0  0  0  0
  -48.7369  -28.3581    3.7771 H   0  0  0  0  0  0  0  0  0  0  0  0
  -50.1239  -28.4790    6.0205 H   0  0  0  0  0  0  0  0  0  0  0  0
  -43.1229  -30.6394    1.3298 H   0  0  0  0  0  0  0  0  0  0  0  0
  -44.1594  -31.1957    2.6873 H   0  0  0  0  0  0  0  0  0  0  0  0
  -46.8468  -31.1479    2.2610 H   0  0  0  0  0  0  0  0  0  0  0  0
  -47.3969  -30.5816    0.6475 H   0  0  0  0  0  0  0  0  0  0  0  0
  -43.4264  -28.8669    3.1074 H   0  0  0  0  0  0  0  0  0  0  0  0
  -44.0669  -28.3495    1.5109 H   0  0  0  0  0  0  0  0  0  0  0  0
  -46.4605  -28.3263    1.1014 H   0  0  0  0  0  0  0  0  0  0  0  0
  -47.6116  -28.7943    2.3986 H   0  0  0  0  0  0  0  0  0  0  0  0
  -45.2253  -31.9156    0.6384 H   0  0  0  0  0  0  0  0  0  0  0  0
  -45.9273  -29.4348   -0.6984 H   0  0  0  0  0  0  0  0  0  0  0  0
  -48.4728  -29.1524    7.8992 H   0  0  0  0  0  0  0  0  0  0  0  0
  -43.6412  -30.0344    8.0062 H   0  0  0  0  0  0  0  0  0  0  0  0
  -43.0958  -30.8232    6.6846 H   0  0  0  0  0  0  0  0  0  0  0  0
  -43.8128  -28.9497   -1.5346 H   0  0  0  0  0  0  0  0  0  0  0  0
  1  2  2  0  0  0  0
  1  3  1  0  0  0  0
  2 16  1  0  0  0  0
  3  4  1  0  0  0  0
  3  5  2  0  0  0  0
  4 14  2  0  0  0  0
  4 16  1  0  0  0  0
  5 15  1  0  0  0  0
  5 17  1  0  0  0  0
  6 14  1  0  0  0  0
  6 15  2  0  0  0  0
  6 18  1  0  0  0  0
  7  9  1  0  0  0  0
  7 11  1  0  0  0  0
  8 10  1  0  0  0  0
  8 11  1  0  0  0  0
  9 17  1  0  0  0  0
 10 17  1  0  0  0  0
 11 12  1  0  0  0  0
 12 13  1  0  0  0  0
 12 19  1  0  0  0  0
 13 20  1  0  0  0  0
 13 21  1  0  0  0  0
 13 22  1  0  0  0  0
  1 23  1  0  0  0  0
  2 24  1  0  0  0  0
  7 25  1  0  0  0  0
  7 26  1  0  0  0  0
  8 27  1  0  0  0  0
  8 28  1  0  0  0  0
  9 29  1  0  0  0  0
  9 30  1  0  0  0  0
 10 31  1  0  0  0  0
 10 32  1  0  0  0  0
 11 33  1  0  0  0  0
 12 34  1  0  0  0  0
 16 35  1  0  0  0  0
 18 36  1  0  0  0  0
 18 37  1  0  0  0  0
 19 38  1  0  0  0  0
M  END
> <POSIT::Probability>
0.85

> <POSIT::Method>
SHAPEFIT

> <ReceptorTitle>
UCSF-P4615-REFINED_LIGAND-BOUND-STATE_A__DU__LA1_A-201(A)

> <OMEGA_C>
hWhBwqQO5cEQ8pdAXkZEwtF55cFCVb1ARNQ7wsMl6MHFz6FAerk7wg/m6cFtPM5AIu82wqI/6cG2
m4pAVp4ywpJs7cH3tMtAXF4wwkcN9MGqkuo/34E6woa+88GCXrY/+8swwtFq6MEZMhZAwo06wiMm
6MFc//c/c/Q0wt+m9sGw71I/FUU0wiXd8ME/7RC/TmM0wgQq+cHKBtm/Qyk3wtRs7MFkn+JAZnsy
wqgP7MH446BAtNVAwotd6MH1Gd5AaTo2wpsB58H0tjxAmN8twjyt78FQxeBASWsvwt3e6sFvoi2/
DpozwhAy9MG8uzjAvXEwwohDAMJYpMC/njs5wtAX/sEsJtu/l/JCwk7d4sFuvHFA4H5IwhTV48EJ
qMBA0H0swngd9cFNNqo/NqMwwrmQ+cGz/CtAK2M7wv4u+cFPtBBAapY9whan9MGCwyU/orQtwl3v
5sEf30ZAdUQwwtzL4sG6Y8E/ltc5wi6c4sGK+4w/TnI+wsxa5sEFghlAuOY0wjdT/8GPbiM/mLU3
wox668EsyjK/JORBwjQ46cGLxvxAkpAuwn5G8MFbGQBBDmIswv6V9sHt59VATUAvwgKZ58G2bsS/

> <OMEGA_E>
iK4EPw==

> <OMEGA_NBR>
      1282

$$$$
CACHE3-HO_1705_13
  -OEChem-03092622513D

 46 48  0     1  0  0  0  0  0999 V2000
  -49.0453  -28.7182    5.8592 C   0  0  0  0  0  0  0  0  0  0  0  0
  -47.0013  -29.1040    5.1195 C   0  0  0  0  0  0  0  0  0  0  0  0
  -46.9629  -29.2287    6.5116 C   0  0  0  0  0  0  0  0  0  0  0  0
  -45.7901  -29.2540    4.3975 C   0  0  0  0  0  0  0  0  0  0  0  0
  -44.6809  -29.6594    6.4279 C   0  0  0  0  0  0  0  0  0  0  0  0
  -44.9900  -30.5780    0.5203 C   0  0  0  0  0  0  0  0  0  0  0  0
  -44.3601  -28.9547    2.3461 C   0  0  0  0  0  0  0  0  0  0  0  0
  -46.8152  -29.5552    2.1362 C   0  0  0  0  0  0  0  0  0  0  0  0
  -43.9706  -30.2615    1.6198 C   0  0  1  0  0  0  0  0  0  0  0  0
  -46.3617  -29.8369    0.6540 C   0  0  2  0  0  0  0  0  0  0  0  0
  -48.6694  -29.6830   -0.3627 C   0  0  0  0  0  0  0  0  0  0  0  0
  -47.9391  -31.8931    0.6186 C   0  0  0  0  0  0  0  0  0  0  0  0
  -46.9272  -31.0524   -1.5463 C   0  0  0  0  0  0  0  0  0  0  0  0
  -43.8839  -31.4882    2.5602 C   0  0  0  0  0  0  0  0  0  0  0  0
  -47.4583  -30.6194   -0.1435 C   0  0  0  0  0  0  0  0  0  0  0  0
  -48.3144  -28.7934    4.7657 N   0  0  0  0  0  0  0  0  0  0  0  0
  -45.8125  -29.5078    7.1554 N   0  0  0  0  0  0  0  0  0  0  0  0
  -44.6610  -29.5315    5.0862 N   0  0  0  0  0  0  0  0  0  0  0  0
  -48.2399  -28.9832    6.9602 N   0  0  0  0  0  0  0  0  0  0  0  0
  -45.6945  -29.1204    2.9976 N   0  0  1  0  0  0  0  0  0  0  0  0
  -43.4813  -29.9176    7.0690 N   0  0  0  0  0  0  0  0  0  0  0  0
  -42.8722  -31.2924    3.5344 O   0  0  0  0  0  0  0  0  0  0  0  0
  -50.0999  -28.4879    5.8943 H   0  0  0  0  0  0  0  0  0  0  0  0
  -44.5455  -30.3003   -0.4468 H   0  0  0  0  0  0  0  0  0  0  0  0
  -45.1845  -31.6605    0.5372 H   0  0  0  0  0  0  0  0  0  0  0  0
  -43.6054  -28.7228    3.1119 H   0  0  0  0  0  0  0  0  0  0  0  0
  -44.4083  -28.1318    1.6177 H   0  0  0  0  0  0  0  0  0  0  0  0
  -47.5804  -28.7650    2.1270 H   0  0  0  0  0  0  0  0  0  0  0  0
  -47.2451  -30.4771    2.5550 H   0  0  0  0  0  0  0  0  0  0  0  0
  -42.9862  -30.1161    1.1509 H   0  0  0  0  0  0  0  0  0  0  0  0
  -46.2465  -28.8584    0.1648 H   0  0  0  0  0  0  0  0  0  0  0  0
  -49.4506  -30.2180   -0.9226 H   0  0  0  0  0  0  0  0  0  0  0  0
  -49.0688  -29.3661    0.6120 H   0  0  0  0  0  0  0  0  0  0  0  0
  -48.3501  -28.7984   -0.9333 H   0  0  0  0  0  0  0  0  0  0  0  0
  -48.7065  -32.4095    0.0233 H   0  0  0  0  0  0  0  0  0  0  0  0
  -47.0853  -32.5675    0.7804 H   0  0  0  0  0  0  0  0  0  0  0  0
  -48.3643  -31.6003    1.5900 H   0  0  0  0  0  0  0  0  0  0  0  0
  -47.7155  -31.5990   -2.0847 H   0  0  0  0  0  0  0  0  0  0  0  0
  -46.6419  -30.1595   -2.1218 H   0  0  0  0  0  0  0  0  0  0  0  0
  -46.0497  -31.7038   -1.4209 H   0  0  0  0  0  0  0  0  0  0  0  0
  -44.8513  -31.6274    3.0649 H   0  0  0  0  0  0  0  0  0  0  0  0
  -43.6476  -32.3839    1.9670 H   0  0  0  0  0  0  0  0  0  0  0  0
  -48.5376  -28.9936    7.9148 H   0  0  0  0  0  0  0  0  0  0  0  0
  -43.6327  -29.9587    8.0566 H   0  0  0  0  0  0  0  0  0  0  0  0
  -43.1152  -30.7923    6.7513 H   0  0  0  0  0  0  0  0  0  0  0  0
  -42.8295  -32.0513    4.1042 H   0  0  0  0  0  0  0  0  0  0  0  0
  1 16  2  0  0  0  0
  1 19  1  0  0  0  0
  2  3  2  0  0  0  0
  2  4  1  0  0  0  0
  2 16  1  0  0  0  0
  3 17  1  0  0  0  0
  3 19  1  0  0  0  0
  4 18  2  0  0  0  0
  4 20  1  0  0  0  0
  5 17  2  0  0  0  0
  5 18  1  0  0  0  0
  5 21  1  0  0  0  0
  6  9  1  0  0  0  0
  6 10  1  0  0  0  0
  7  9  1  0  0  0  0
  7 20  1  0  0  0  0
  8 10  1  0  0  0  0
  8 20  1  0  0  0  0
  9 14  1  0  0  0  0
 10 15  1  0  0  0  0
 11 15  1  0  0  0  0
 12 15  1  0  0  0  0
 13 15  1  0  0  0  0
 14 22  1  0  0  0  0
  1 23  1  0  0  0  0
  6 24  1  0  0  0  0
  6 25  1  0  0  0  0
  7 26  1  0  0  0  0
  7 27  1  0  0  0  0
  8 28  1  0  0  0  0
  8 29  1  0  0  0  0
  9 30  1  0  0  0  0
 10 31  1  0  0  0  0
 11 32  1  0  0  0  0
 11 33  1  0  0  0  0
 11 34  1  0  0  0  0
 12 35  1  0  0  0  0
 12 36  1  0  0  0  0
 12 37  1  0  0  0  0
 13 38  1  0  0  0  0
 13 39  1  0  0  0  0
 13 40  1  0  0  0  0
 14 41  1  0  0  0  0
 14 42  1  0  0  0  0
 19 43  1  0  0  0  0
 21 44  1  0  0  0  0
 21 45  1  0  0  0  0
 22 46  1  0  0  0  0
M  END
> <POSIT::Probability>
0.91

> <POSIT::Method>
SHAPEFIT

> <ReceptorTitle>
UCSF-P4615-REFINED_LIGAND-BOUND-STATE_A__DU__LA1_A-201(A)

> <OMEGA_C>
Xy5EwuC+5cF8frtAXgE8wuvU6MHY0qNA+Nk7wmDU6cFgX9BAGCk3wksI6sFYuIxANbkywotG7cGE
sc1AyvUzwqmf9MEYNAU/x3AxwjWj58HuJRZAzkI7wg1x7MHgtwhA5uEvwqAX8sGcVs8/YHI5wvmx
7sEobic/b61CwsR27cFAtbm+psE/wgQl/8HQXh4/gbU7wl5r+MHs7MW/GIkvwurn+8HE2iNAWdU9
wo/09MHA+xK+70FBwstY5sGegJhA+z83wvgP7MG0+ORA36QywoFA7MHUwaJAofVAword58E0ut5A
K8c2wpP26MEQ2D9A3ewtwjZX78FMNeJAJn0rws9W+sEsNGJAQmZIwjrn48HMnbxAkS4ywu5m8sGX
veS+5Lw0wrlI/cHMggk/4msuwkzI5cG7KUdAF6IxwuEN4cFNEc8/XFI+wr0e5sEgIQhAB/s8wgDR
88EfhSNA5vErwtbt8MHKUZM/dvw4whXe5sHpvSg+aM1FwmO+8cGbMGy/eUZEwtft6sFRqxw/iWZB
wg5j5sEw6m6/dtNCwkyjAcKTwL48Y1c8wipFAsL1x0c/CHVBwnTN/MGNhMs/sdw+wtjK/MEcawXA
S5E6wqJG8cHvywfA6zI4wkqh/cH24LW/vGczwugE/cHvJ0RAIpcuwiqJAcICyPs/dSZCwtjy58Fa
Rv1A64cuwmSr78Hr5wBB+HUswotW9sH8CthAaFErwo80AMIAVoNA

> <OMEGA_E>
5hoAPw==

> <OMEGA_NBR>
      2734

$$$$
CACHE3-HO_1705_21
  -OEChem-03092622513D

 40 42  0     1  0  0  0  0  0999 V2000
  -48.0012  -28.9092    4.3787 C   0  0  0  0  0  0  0  0  0  0  0  0
  -46.7644  -29.1372    4.9230 C   0  0  0  0  0  0  0  0  0  0  0  0
  -46.9180  -29.2981    6.3243 C   0  0  0  0  0  0  0  0  0  0  0  0
  -45.4837  -29.2496    4.3578 C   0  0  0  0  0  0  0  0  0  0  0  0
  -44.6138  -29.6285    6.5083 C   0  0  0  0  0  0  0  0  0  0  0  0
  -45.2977  -31.5891   -0.0376 C   0  0  0  0  0  0  0  0  0  0  0  0
  -46.2614  -29.2418    0.2258 C   0  0  0  0  0  0  0  0  0  0  0  0
  -46.3234  -31.8761   -1.1481 C   0  0  0  0  0  0  0  0  0  0  0  0
  -47.2840  -29.5487   -0.8885 C   0  0  0  0  0  0  0  0  0  0  0  0
  -45.8222  -30.5335    0.9891 C   0  0  0  0  0  0  0  0  0  0  0  0
  -46.7411  -30.5927   -1.8878 C   0  0  0  0  0  0  0  0  0  0  0  0
  -44.2591  -31.4500    2.8457 C   0  0  0  0  0  0  0  0  0  0  0  0
  -44.7361  -30.1765    2.0675 C   0  0  2  0  0  0  0  0  0  0  0  0
  -45.8367  -29.5458    7.0941 N   0  0  0  0  0  0  0  0  0  0  0  0
  -48.1899  -29.1711    6.6439 N   0  0  0  0  0  0  0  0  0  0  0  0
  -44.4263  -29.4680    5.1726 N   0  0  0  0  0  0  0  0  0  0  0  0
  -48.8273  -28.9373    5.4716 N   0  0  0  0  0  0  0  0  0  0  0  0
  -43.5071  -29.8964    7.3012 N   0  0  0  0  0  0  0  0  0  0  0  0
  -45.3176  -29.1199    2.9742 N   0  0  0  0  0  0  0  0  0  0  0  0
  -43.0222  -31.2043    3.5084 O   0  0  0  0  0  0  0  0  0  0  0  0
  -45.6719  -30.0803   -2.5587 F   0  0  0  0  0  0  0  0  0  0  0  0
  -47.7124  -30.9015   -2.7873 F   0  0  0  0  0  0  0  0  0  0  0  0
  -48.2609  -28.7472    3.3430 H   0  0  0  0  0  0  0  0  0  0  0  0
  -45.0815  -32.5262    0.4964 H   0  0  0  0  0  0  0  0  0  0  0  0
  -44.3742  -31.2078   -0.4977 H   0  0  0  0  0  0  0  0  0  0  0  0
  -45.3728  -28.7768   -0.2260 H   0  0  0  0  0  0  0  0  0  0  0  0
  -46.7165  -28.5429    0.9429 H   0  0  0  0  0  0  0  0  0  0  0  0
  -45.8782  -32.5750   -1.8716 H   0  0  0  0  0  0  0  0  0  0  0  0
  -47.2165  -32.3340   -0.6978 H   0  0  0  0  0  0  0  0  0  0  0  0
  -48.2048  -29.9386   -0.4301 H   0  0  0  0  0  0  0  0  0  0  0  0
  -47.5099  -28.6190   -1.4313 H   0  0  0  0  0  0  0  0  0  0  0  0
  -46.6999  -30.9516    1.5038 H   0  0  0  0  0  0  0  0  0  0  0  0
  -45.0200  -31.7227    3.5918 H   0  0  0  0  0  0  0  0  0  0  0  0
  -44.1288  -32.2793    2.1349 H   0  0  0  0  0  0  0  0  0  0  0  0
  -43.8663  -29.7525    1.5444 H   0  0  0  0  0  0  0  0  0  0  0  0
  -49.8155  -28.7973    5.4092 H   0  0  0  0  0  0  0  0  0  0  0  0
  -43.7951  -29.9957    8.2537 H   0  0  0  0  0  0  0  0  0  0  0  0
  -43.0742  -30.7438    6.9939 H   0  0  0  0  0  0  0  0  0  0  0  0
  -46.2310  -28.9324    2.6129 H   0  0  0  0  0  0  0  0  0  0  0  0
  -42.7507  -31.9869    3.9735 H   0  0  0  0  0  0  0  0  0  0  0  0
  1  2  2  0  0  0  0
  1 17  1  0  0  0  0
  2  3  1  0  0  0  0
  2  4  1  0  0  0  0
  3 14  1  0  0  0  0
  3 15  2  0  0  0  0
  4 16  2  0  0  0  0
  4 19  1  0  0  0  0
  5 14  2  0  0  0  0
  5 16  1  0  0  0  0
  5 18  1  0  0  0  0
  6  8  1  0  0  0  0
  6 10  1  0  0  0  0
  7  9  1  0  0  0  0
  7 10  1  0  0  0  0
  8 11  1  0  0  0  0
  9 11  1  0  0  0  0
 10 13  1  0  0  0  0
 11 21  1  0  0  0  0
 11 22  1  0  0  0  0
 12 13  1  0  0  0  0
 12 20  1  0  0  0  0
 13 19  1  0  0  0  0
 15 17  1  0  0  0  0
  1 23  1  0  0  0  0
  6 24  1  0  0  0  0
  6 25  1  0  0  0  0
  7 26  1  0  0  0  0
  7 27  1  0  0  0  0
  8 28  1  0  0  0  0
  8 29  1  0  0  0  0
  9 30  1  0  0  0  0
  9 31  1  0  0  0  0
 10 32  1  0  0  0  0
 12 33  1  0  0  0  0
 12 34  1  0  0  0  0
 13 35  1  0  0  0  0
 17 36  1  0  0  0  0
 18 37  1  0  0  0  0
 18 38  1  0  0  0  0
 19 39  1  0  0  0  0
 20 40  1  0  0  0  0
M  END
> <POSIT::Probability>
0.72

> <POSIT::Method>
SHAPEFIT

> <ReceptorTitle>
UCSF-P4615-REFINED_LIGAND-BOUND-STATE_A__DU__LA1_A-201(A)

> <OMEGA_C>
LgFAwgJG58E4HoxAtA47wv0Y6cENiZ1ABKw7wnti6sGEYMpARO81wjj/6cECc4tAjHQywjUH7cEw
RNBA3DA1wnW2/MFA7xm9rgs5wkfv6cHQK2c+IEs5wlMC/8FU85K/2CI9wqVj7ME8cmO/+Ek3wq9E
9ME4OH0/4/Y6wte99ME6o/G/Vwkxwp2Z+8FeIDZAx/Eywndp8cFEUQRAxFg3wsld7MEIA+NAbMJA
wlpe6cEcm9RAjbQxwny+68EMhqVAKk9Dwpp/58GcF69ASQcuwsUr78HKo+lAMEU1wo/16MHgWD5A
xxYswnWi+cFSimBA+q82wnOk8MH0wSPAi9k+wlM298HuYzLAKwtBwiv65cGK81VAd1M0wtMaAsI7
Iv4+Ln8xwpGp+cHM1f6+t301wt025sFwZWe+uN06wsdX5MEIYnE/S4M3wsNMAsKcj++/qt08wglW
AcIxpDK/vNFAwkmC78H2ONy+Kgo+wqXz5ME5NLe/ssw6wuic98HqfcA/ghQ0wh/I/cFM4GVA8IMw
wv8dAcK6oQhADHcvwi8F7sFyrsU/EkNHwvVg5sF1GK1AJi4vwjP378FADwRBBkwswlTz9cH5zd9A
guw4wot158ErOSdAvwArwkbl/8HNTX5A

> <OMEGA_E>
IOBDPw==

> <OMEGA_NBR>
      4057

$$$$
CACHE3-HO_1705_25
  -OEChem-03092622513D

 43 45  0     1  0  0  0  0  0999 V2000
  -48.3094  -28.7082    4.7152 C   0  0  0  0  0  0  0  0  0  0  0  0
  -46.9330  -29.0805    5.0639 C   0  0  0  0  0  0  0  0  0  0  0  0
  -46.9193  -29.2391    6.4454 C   0  0  0  0  0  0  0  0  0  0  0  0
  -45.7292  -29.2445    4.3407 C   0  0  0  0  0  0  0  0  0  0  0  0
  -44.6326  -29.6670    6.3830 C   0  0  0  0  0  0  0  0  0  0  0  0
  -46.1343  -30.6644    1.2546 C   0  0  0  0  0  0  0  0  0  0  0  0
  -46.7569  -29.5138    2.0182 C   0  0  0  0  0  0  0  0  0  0  0  0
  -44.4413  -29.1111    2.1224 C   0  0  0  0  0  0  0  0  0  0  0  0
  -44.6476  -30.2496    1.0587 C   0  0  2  0  0  0  0  0  0  0  0  0
  -43.6564  -31.9833    2.7800 C   0  0  0  0  0  0  0  0  0  0  0  0
  -42.1778  -31.0303    1.0043 C   0  0  0  0  0  0  0  0  0  0  0  0
  -43.9600  -32.6799    0.3730 C   0  0  0  0  0  0  0  0  0  0  0  0
  -44.5153  -29.6001   -0.3685 C   0  0  0  0  0  0  0  0  0  0  0  0
  -43.6390  -31.4660    1.2998 C   0  0  0  0  0  0  0  0  0  0  0  0
  -49.0229  -28.7048    5.8178 N   0  0  0  0  0  0  0  0  0  0  0  0
  -45.7778  -29.5318    7.0969 N   0  0  0  0  0  0  0  0  0  0  0  0
  -44.5936  -29.5230    5.0317 N   0  0  0  0  0  0  0  0  0  0  0  0
  -48.2151  -29.0243    6.8800 N   0  0  0  0  0  0  0  0  0  0  0  0
  -45.6844  -29.0841    2.9432 N   0  0  2  0  0  0  0  0  0  0  0  0
  -43.4570  -29.9609    7.0576 N   0  0  0  0  0  0  0  0  0  0  0  0
  -44.8530  -30.4936   -1.4335 O   0  0  0  0  0  0  0  0  0  0  0  0
  -48.6722  -28.4773    3.7245 H   0  0  0  0  0  0  0  0  0  0  0  0
  -46.2038  -31.5970    1.8337 H   0  0  0  0  0  0  0  0  0  0  0  0
  -46.6310  -30.7986    0.2823 H   0  0  0  0  0  0  0  0  0  0  0  0
  -47.0373  -28.6971    1.3368 H   0  0  0  0  0  0  0  0  0  0  0  0
  -47.6447  -29.8476    2.5753 H   0  0  0  0  0  0  0  0  0  0  0  0
  -43.5700  -29.3335    2.7559 H   0  0  0  0  0  0  0  0  0  0  0  0
  -44.2931  -28.1429    1.6217 H   0  0  0  0  0  0  0  0  0  0  0  0
  -42.9462  -32.8166    2.8861 H   0  0  0  0  0  0  0  0  0  0  0  0
  -43.3666  -31.1663    3.4572 H   0  0  0  0  0  0  0  0  0  0  0  0
  -44.6687  -32.3296    3.0354 H   0  0  0  0  0  0  0  0  0  0  0  0
  -41.4997  -31.8793    1.1755 H   0  0  0  0  0  0  0  0  0  0  0  0
  -42.0977  -30.7026   -0.0427 H   0  0  0  0  0  0  0  0  0  0  0  0
  -41.9010  -30.1999    1.6705 H   0  0  0  0  0  0  0  0  0  0  0  0
  -43.2449  -33.4920    0.5706 H   0  0  0  0  0  0  0  0  0  0  0  0
  -44.9818  -33.0343    0.5738 H   0  0  0  0  0  0  0  0  0  0  0  0
  -43.8799  -32.3689   -0.6791 H   0  0  0  0  0  0  0  0  0  0  0  0
  -45.1852  -28.7291   -0.4185 H   0  0  0  0  0  0  0  0  0  0  0  0
  -43.4748  -29.2709   -0.5065 H   0  0  0  0  0  0  0  0  0  0  0  0
  -48.5190  -29.0920    7.8303 H   0  0  0  0  0  0  0  0  0  0  0  0
  -43.6436  -30.0340    8.0373 H   0  0  0  0  0  0  0  0  0  0  0  0
  -43.0887  -30.8282    6.7229 H   0  0  0  0  0  0  0  0  0  0  0  0
  -44.7542  -30.0465   -2.2659 H   0  0  0  0  0  0  0  0  0  0  0  0
  1  2  1  0  0  0  0
  1 15  2  0  0  0  0
  2  3  2  0  0  0  0
  2  4  1  0  0  0  0
  3 16  1  0  0  0  0
  3 18  1  0  0  0  0
  4 17  2  0  0  0  0
  4 19  1  0  0  0  0
  5 16  2  0  0  0  0
  5 17  1  0  0  0  0
  5 20  1  0  0  0  0
  6  7  1  0  0  0  0
  6  9  1  0  0  0  0
  7 19  1  0  0  0  0
  8  9  1  0  0  0  0
  8 19  1  0  0  0  0
  9 13  1  0  0  0  0
  9 14  1  0  0  0  0
 10 14  1  0  0  0  0
 11 14  1  0  0  0  0
 12 14  1  0  0  0  0
 13 21  1  0  0  0  0
 15 18  1  0  0  0  0
  1 22  1  0  0  0  0
  6 23  1  0  0  0  0
  6 24  1  0  0  0  0
  7 25  1  0  0  0  0
  7 26  1  0  0  0  0
  8 27  1  0  0  0  0
  8 28  1  0  0  0  0
 10 29  1  0  0  0  0
 10 30  1  0  0  0  0
 10 31  1  0  0  0  0
 11 32  1  0  0  0  0
 11 33  1  0  0  0  0
 11 34  1  0  0  0  0
 12 35  1  0  0  0  0
 12 36  1  0  0  0  0
 12 37  1  0  0  0  0
 13 38  1  0  0  0  0
 13 39  1  0  0  0  0
 18 40  1  0  0  0  0
 20 41  1  0  0  0  0
 20 42  1  0  0  0  0
 21 43  1  0  0  0  0
M  END
> <POSIT::Probability>
0.85

> <POSIT::Method>
SHAPEFIT

> <ReceptorTitle>
UCSF-P4615-REFINED_LIGAND-BOUND-STATE_A__DU__LA1_A-201(A)

> <OMEGA_C>
0jxBwnSq5cE+45ZAYrs7wuyk6MEuC6JAZq07wprp6cHQQM5AtOo2wrj06cEM54pAxocywgJW7cHy
QcxAj4k4wq1Q9cHYlqA/Bwc7wisc7MGxKgFA8MMxwobj6MER1QdALZcywiP/8cGOhIc/HaAuwr7d
/8Fz6zFACbYowgg++MGoi4A/Bdcvwiu4AsKI974+og8ywhXN7MEAqby+TY4uwl+6+8HkYKY/ahdE
wm+j5cEQK7pAcRw3wiRB7MGcGeNA2l8ywgUv7MG+A6FAUNxAwrMx6MHkKNxA3Lw2wlGs6MH7XTxA
8NMtwtiv78Ga1+FAfmkzwt7y88GKfbe/TrBCwpPR48HuXm5AudA4wsHG/MHmteo/JIY6wohj9sGZ
jZA+MSY8wpuT5cFHG6s/IpQ+wvbH7sHb0SRAs0cuwgmr6sFLYDBAJSwxwqwk4cFAlc8/7sgrwjRE
A8LztThAa3ctwpdU+cHUQl1AwKwywoZRAcJcQ0JAp/8lwtUI/8FMd5Y/AWQowvGe9cGBDS+9nZon
wn6Z8cFA1NU/vPoswsf3BcJ8FBI/Ve0zwhMjBMLP5xI/CIUvwsh5AcK72i2/ob00wjTV5cG9S9a+
M+Ytwsoq6sECpwG/dRNCwmy86MHRkfpABJMuwpZF8MGzmABByVoswjag9sHFIddARwQzwjlf8MFQ
BBHA

> <OMEGA_E>
vFcaPw==

> <OMEGA_NBR>
      5445

$$$$
CACHE3-HO_1705_26
  -OEChem-03092622513D

 46 48  0     1  0  0  0  0  0999 V2000
  -50.1084  -29.6175    6.8254 C   0  0  0  0  0  0  0  0  0  0  0  0
  -49.2689  -28.7926    4.7154 C   0  0  0  0  0  0  0  0  0  0  0  0
  -51.4046  -29.6151    6.3099 C   0  0  0  0  0  0  0  0  0  0  0  0
  -50.5649  -28.7902    4.1998 C   0  0  0  0  0  0  0  0  0  0  0  0
  -49.0406  -29.2063    6.0279 C   0  0  0  0  0  0  0  0  0  0  0  0
  -51.6329  -29.2014    4.9973 C   0  0  0  0  0  0  0  0  0  0  0  0
  -45.2174  -29.7735    4.1238 C   0  0  0  0  0  0  0  0  0  0  0  0
  -44.2332  -29.5122    6.1231 C   0  0  0  0  0  0  0  0  0  0  0  0
  -46.4670  -29.3921    5.9483 C   0  0  0  0  0  0  0  0  0  0  0  0
  -46.8934  -31.6712    2.6862 C   0  0  0  0  0  0  0  0  0  0  0  0
  -47.9134  -31.0260    1.7517 C   0  0  0  0  0  0  0  0  0  0  0  0
  -46.3717  -31.0818   -0.0299 C   0  0  0  0  0  0  0  0  0  0  0  0
  -45.3106  -31.7333    0.8688 C   0  0  1  0  0  0  0  0  0  0  0  0
  -45.1150  -30.0230    2.6464 C   0  0  0  0  0  0  0  0  0  0  0  0
  -43.9012  -31.4415    0.3495 C   0  0  0  0  0  0  0  0  0  0  0  0
  -43.7973  -30.0305   -0.1908 C   0  0  0  0  0  0  0  0  0  0  0  0
  -44.0640  -29.7381    4.8105 N   0  0  0  0  0  0  0  0  0  0  0  0
  -46.4532  -29.6097    4.6233 N   0  0  0  0  0  0  0  0  0  0  0  0
  -45.4003  -29.3300    6.7615 N   0  0  0  0  0  0  0  0  0  0  0  0
  -45.5030  -31.3881    2.2938 N   0  0  1  0  0  0  0  0  0  0  0  0
  -43.0637  -29.4599    6.9125 N   0  0  0  0  0  0  0  0  0  0  0  0
  -47.7323  -29.2092    6.5476 N   0  0  0  0  0  0  0  0  0  0  0  0
  -47.6840  -31.4408    0.4059 O   0  0  0  0  0  0  0  0  0  0  0  0
  -42.4746  -29.8345   -0.6718 O   0  0  0  0  0  0  0  0  0  0  0  0
  -52.8778  -29.1991    4.5030 F   0  0  0  0  0  0  0  0  0  0  0  0
  -49.9419  -29.9425    7.8492 H   0  0  0  0  0  0  0  0  0  0  0  0
  -48.4438  -28.4706    4.0850 H   0  0  0  0  0  0  0  0  0  0  0  0
  -52.2363  -29.9352    6.9301 H   0  0  0  0  0  0  0  0  0  0  0  0
  -50.7430  -28.4681    3.1778 H   0  0  0  0  0  0  0  0  0  0  0  0
  -47.0761  -31.3293    3.7229 H   0  0  0  0  0  0  0  0  0  0  0  0
  -47.0669  -32.7638    2.6896 H   0  0  0  0  0  0  0  0  0  0  0  0
  -48.9389  -31.2772    2.0424 H   0  0  0  0  0  0  0  0  0  0  0  0
  -47.8143  -29.9380    1.7870 H   0  0  0  0  0  0  0  0  0  0  0  0
  -46.2937  -29.9911    0.0086 H   0  0  0  0  0  0  0  0  0  0  0  0
  -46.2444  -31.3798   -1.0771 H   0  0  0  0  0  0  0  0  0  0  0  0
  -45.4470  -32.8387    0.7776 H   0  0  0  0  0  0  0  0  0  0  0  0
  -45.7622  -29.3345    2.0930 H   0  0  0  0  0  0  0  0  0  0  0  0
  -44.0915  -29.8637    2.2912 H   0  0  0  0  0  0  0  0  0  0  0  0
  -43.1867  -31.5926    1.1597 H   0  0  0  0  0  0  0  0  0  0  0  0
  -43.6531  -32.1659   -0.4274 H   0  0  0  0  0  0  0  0  0  0  0  0
  -44.4963  -29.8708   -1.0184 H   0  0  0  0  0  0  0  0  0  0  0  0
  -43.9969  -29.2906    0.5914 H   0  0  0  0  0  0  0  0  0  0  0  0
  -42.1800  -29.6424    6.4839 H   0  0  0  0  0  0  0  0  0  0  0  0
  -43.1497  -29.3468    7.9014 H   0  0  0  0  0  0  0  0  0  0  0  0
  -47.6877  -29.0484    7.5489 H   0  0  0  0  0  0  0  0  0  0  0  0
  -42.4320  -28.9263   -1.0121 H   0  0  0  0  0  0  0  0  0  0  0  0
  1  3  1  0  0  0  0
  1  5  2  0  0  0  0
  2  4  2  0  0  0  0
  2  5  1  0  0  0  0
  3  6  2  0  0  0  0
  4  6  1  0  0  0  0
  5 22  1  0  0  0  0
  6 25  1  0  0  0  0
  7 14  1  0  0  0  0
  7 17  1  0  0  0  0
  7 18  2  0  0  0  0
  8 17  2  0  0  0  0
  8 19  1  0  0  0  0
  8 21  1  0  0  0  0
  9 18  1  0  0  0  0
  9 19  2  0  0  0  0
  9 22  1  0  0  0  0
 10 11  1  0  0  0  0
 10 20  1  0  0  0  0
 11 23  1  0  0  0  0
 12 13  1  0  0  0  0
 12 23  1  0  0  0  0
 13 15  1  0  0  0  0
 13 20  1  0  0  0  0
 14 20  1  0  0  0  0
 15 16  1  0  0  0  0
 16 24  1  0  0  0  0
  1 26  1  0  0  0  0
  2 27  1  0  0  0  0
  3 28  1  0  0  0  0
  4 29  1  0  0  0  0
 10 30  1  0  0  0  0
 10 31  1  0  0  0  0
 11 32  1  0  0  0  0
 11 33  1  0  0  0  0
 12 34  1  0  0  0  0
 12 35  1  0  0  0  0
 13 36  1  0  0  0  0
 14 37  1  0  0  0  0
 14 38  1  0  0  0  0
 15 39  1  0  0  0  0
 15 40  1  0  0  0  0
 16 41  1  0  0  0  0
 16 42  1  0  0  0  0
 21 43  1  0  0  0  0
 21 44  1  0  0  0  0
 22 45  1  0  0  0  0
 24 46  1  0  0  0  0
M  END
> <POSIT::Probability>
0.19

> <POSIT::Method>
FRED

> <ReceptorTitle>
UCSF-P4615-REFINED_LIGAND-BOUND-STATE_A__DU__LA1_A-201(A)

> <OMEGA_C>
C29IwrPw7MF/adpAUhNFwi5X5sFl5JZASJ5NwtDr7MFd6slAfkJKwkNS5sEoZYZAiylEwoWm6cGH
5MBADohOwnqc6cE56p9Aod40wg4w7sHX9YNA0O4wwg4Z7MF78MNANt45wgQj68GwWL5A05I7wqVe
/cFW6itASKc/wik1+MHcN+A/pHw5woin+MEASvW8Az41wsLd/cFYal4/xXU0wgsv8MEOXilA0pov
wiCI+8EQ77I+fDAvwnk+8MEAYUO+lEEwwovn7cFl75lAEtA5wpjg7MF48pNA7Jk1wsij6sHUXdhA
FwM2wsYa+8EkzhJAN0Eswuqt68GcM91A5u0+wl6s6cHUhdFAb7w+wsyG+8EQ1M8+CeYpwh+t7sGw
+yu/34JTwtqX6cE6GJBAiMRHwjeK78G8LPtAdsZBwuLD48GRuIJA/vFQwl9778EWw91A3fhKwr6+
48F0YUtA8008wmei+sGiRG5AhEQ8whwOA8LaIixAdcFDwsU3+sGctgJA1UE/wvmA78FkveQ/uyw5
wt3t78EAjAw8Ovo4wtgJ+8Gc34m/xsk1ws5aA8K4Ekc/gQw3wv+s6sFO8wVAu10wwtro7sHoohJA
Nr8swp29/MHIb5Q/vJwuwuapAMLg1dq+LPwxwln37sEcW4K/3fwvwhVT6sGIZRc/TLgowpEj7cH1
e89ATpkswlDG6sEq2PxANsA+whFj6MGjkPFAVbopwhBp58EEjIG/

> <OMEGA_E>
pJIOwQ==

> <OMEGA_NBR>
      6863

$$$$
CACHE3-HO_1705_28
  -OEChem-03092622513D

 44 45  0     1  0  0  0  0  0999 V2000
  -48.4984  -28.6225    4.9021 C   0  0  0  0  0  0  0  0  0  0  0  0
  -49.1790  -28.6534    6.0971 C   0  0  0  0  0  0  0  0  0  0  0  0
  -47.1059  -28.9510    5.1989 C   0  0  0  0  0  0  0  0  0  0  0  0
  -47.0154  -29.1856    6.5725 C   0  0  0  0  0  0  0  0  0  0  0  0
  -45.9479  -29.0497    4.4151 C   0  0  0  0  0  0  0  0  0  0  0  0
  -44.7367  -29.6153    6.3488 C   0  0  0  0  0  0  0  0  0  0  0  0
  -46.0178  -30.7737   -1.1899 C   0  0  0  0  0  0  0  0  0  0  0  0
  -47.6310  -30.4371    0.7123 C   0  0  0  0  0  0  0  0  0  0  0  0
  -46.4563  -28.4578   -0.3288 C   0  0  0  0  0  0  0  0  0  0  0  0
  -44.8853  -28.9694    2.1095 C   0  0  0  0  0  0  0  0  0  0  0  0
  -42.7324  -31.5751    2.3331 C   0  0  0  0  0  0  0  0  0  0  0  0
  -44.2063  -31.7975    2.7355 C   0  0  0  0  0  0  0  0  0  0  0  0
  -45.0542  -30.1320    1.0738 C   0  0  2  0  0  0  0  0  0  0  0  0
  -46.2844  -29.9434    0.0956 C   0  0  0  0  0  0  0  0  0  0  0  0
  -45.8380  -29.5256    7.1365 N   0  0  0  0  0  0  0  0  0  0  0  0
  -44.7708  -29.3458    5.0192 N   0  0  0  0  0  0  0  0  0  0  0  0
  -48.2800  -28.9968    7.1074 N   0  0  0  0  0  0  0  0  0  0  0  0
  -43.5320  -30.0060    6.9159 N   0  0  0  0  0  0  0  0  0  0  0  0
  -46.0334  -28.8513    3.0381 N   0  0  0  0  0  0  0  0  0  0  0  0
  -41.9133  -31.6766    3.4941 O   0  0  0  0  0  0  0  0  0  0  0  0
  -45.1723  -31.4483    1.7079 O   0  0  0  0  0  0  0  0  0  0  0  0
  -48.9137  -28.3983    3.9307 H   0  0  0  0  0  0  0  0  0  0  0  0
  -50.2307  -28.4469    6.2307 H   0  0  0  0  0  0  0  0  0  0  0  0
  -45.0726  -30.4475   -1.6483 H   0  0  0  0  0  0  0  0  0  0  0  0
  -45.9501  -31.8404   -0.9297 H   0  0  0  0  0  0  0  0  0  0  0  0
  -46.8422  -30.6216   -1.9020 H   0  0  0  0  0  0  0  0  0  0  0  0
  -47.8473  -29.8657    1.6270 H   0  0  0  0  0  0  0  0  0  0  0  0
  -48.4435  -30.2875   -0.0140 H   0  0  0  0  0  0  0  0  0  0  0  0
  -47.5513  -31.5063    0.9583 H   0  0  0  0  0  0  0  0  0  0  0  0
  -46.6471  -27.8412    0.5620 H   0  0  0  0  0  0  0  0  0  0  0  0
  -45.5386  -28.1099   -0.8256 H   0  0  0  0  0  0  0  0  0  0  0  0
  -47.3048  -28.3708   -1.0234 H   0  0  0  0  0  0  0  0  0  0  0  0
  -43.9751  -29.1543    2.6988 H   0  0  0  0  0  0  0  0  0  0  0  0
  -44.7801  -28.0225    1.5597 H   0  0  0  0  0  0  0  0  0  0  0  0
  -42.4308  -32.3389    1.6013 H   0  0  0  0  0  0  0  0  0  0  0  0
  -42.6186  -30.5756    1.8880 H   0  0  0  0  0  0  0  0  0  0  0  0
  -44.3378  -32.8612    2.9830 H   0  0  0  0  0  0  0  0  0  0  0  0
  -44.4153  -31.1854    3.6253 H   0  0  0  0  0  0  0  0  0  0  0  0
  -44.1501  -30.1352    0.4472 H   0  0  0  0  0  0  0  0  0  0  0  0
  -48.5137  -29.0926    8.0750 H   0  0  0  0  0  0  0  0  0  0  0  0
  -43.6626  -30.1762    7.8926 H   0  0  0  0  0  0  0  0  0  0  0  0
  -43.2104  -30.8423    6.4720 H   0  0  0  0  0  0  0  0  0  0  0  0
  -46.7140  -29.5072    2.7118 H   0  0  0  0  0  0  0  0  0  0  0  0
  -41.0043  -31.5407    3.2537 H   0  0  0  0  0  0  0  0  0  0  0  0
  1  2  2  0  0  0  0
  1  3  1  0  0  0  0
  2 17  1  0  0  0  0
  3  4  2  0  0  0  0
  3  5  1  0  0  0  0
  4 15  1  0  0  0  0
  4 17  1  0  0  0  0
  5 16  2  0  0  0  0
  5 19  1  0  0  0  0
  6 15  2  0  0  0  0
  6 16  1  0  0  0  0
  6 18  1  0  0  0  0
  7 14  1  0  0  0  0
  8 14  1  0  0  0  0
  9 14  1  0  0  0  0
 10 13  1  0  0  0  0
 10 19  1  0  0  0  0
 11 12  1  0  0  0  0
 11 20  1  0  0  0  0
 12 21  1  0  0  0  0
 13 14  1  0  0  0  0
 13 21  1  0  0  0  0
  1 22  1  0  0  0  0
  2 23  1  0  0  0  0
  7 24  1  0  0  0  0
  7 25  1  0  0  0  0
  7 26  1  0  0  0  0
  8 27  1  0  0  0  0
  8 28  1  0  0  0  0
  8 29  1  0  0  0  0
  9 30  1  0  0  0  0
  9 31  1  0  0  0  0
  9 32  1  0  0  0  0
 10 33  1  0  0  0  0
 10 34  1  0  0  0  0
 11 35  1  0  0  0  0
 11 36  1  0  0  0  0
 12 37  1  0  0  0  0
 12 38  1  0  0  0  0
 13 39  1  0  0  0  0
 17 40  1  0  0  0  0
 18 41  1  0  0  0  0
 18 42  1  0  0  0  0
 19 43  1  0  0  0  0
 20 44  1  0  0  0  0
M  END
> <POSIT::Probability>
0.72

> <POSIT::Method>
SHAPEFIT

> <ReceptorTitle>
UCSF-P4615-REFINED_LIGAND-BOUND-STATE_A__DU__LA1_A-201(A)

> <OMEGA_C>
aP5BwtD65MEa3pxAUbdEwis65cGSG8NAbGw8woyb58GvXaZAxQ88whx86cFOUtJAoco3wsBl6MGr
SI1AXfIywhHs7MEVKctAPBI4wqAw9sFoTZi/JoY+wiZ/88FHWjY/PtM5wn+p48G2VKi+i4ozwmTB
58FrAQdA/e0qwsiZ/MEgUhVAOdMwwjFh/sEdEi9Agzc0wlQO8cHecYk/NSM5wgiM78FRuMM9GFo3
wl807MEBXuRAVRUzwjzE6sGWnaBAtR5Bwnv558HCb+NAySAuwjUM8ME2T91AKCI4wmrP5sHub0JA
OKcnwq1p/cFJn19AcLA0whOW+8H2m9o/radDwtIv48EgkHtAMOxIwlWT48HHYcdAU0o0wpOU88HM
+tK/5sw3wh+5/sHIAW6/dF47wh759MGTdfO/nmM/wt3s7sFWQtA/GcZBwtJM8sEhkmW8izQ+wtMM
/MEUU3U/oJY6wsC63sGX3Q8/hSc2wiTh4MG/WlO/Hjg9wmb34sG4/YK/guYvwgg86cHkuSxAyh4z
whwu4MEKo8c/K7kpwhVbAcLJ98w/dXkqwu2a9MFFqfE/4VkxwtJxA8I46T5APakxwrR7+cFDBGhA
tZkwwtUU8cGx+uQ+Bg5CwrS96MERMwFBd6YuwuJo8cF2kPxAeNcswgu99sFLGs9AIds6wtcO7MG9
ji1AagQkwmVT/MEtPVBA

> <OMEGA_E>
WFk+Pw==

> <OMEGA_NBR>
      8263

$$$$
CACHE3-HO_1705_33
  -OEChem-03092622513D

 45 47  0     1  0  0  0  0  0999 V2000
  -51.2128  -29.7035    6.3038 C   0  0  0  0  0  0  0  0  0  0  0  0
  -50.2719  -29.2600    4.1231 C   0  0  0  0  0  0  0  0  0  0  0  0
  -49.9464  -29.5780    6.8751 C   0  0  0  0  0  0  0  0  0  0  0  0
  -49.0056  -29.1345    4.6943 C   0  0  0  0  0  0  0  0  0  0  0  0
  -51.3754  -29.5443    4.9277 C   0  0  0  0  0  0  0  0  0  0  0  0
  -48.8429  -29.2937    6.0704 C   0  0  0  0  0  0  0  0  0  0  0  0
  -44.8213  -29.5338    4.4440 C   0  0  0  0  0  0  0  0  0  0  0  0
  -44.1351  -30.0244    6.5232 C   0  0  0  0  0  0  0  0  0  0  0  0
  -46.2663  -29.4251    6.1576 C   0  0  0  0  0  0  0  0  0  0  0  0
  -44.9887  -32.5618    1.1872 C   0  0  0  0  0  0  0  0  0  0  0  0
  -45.2159  -30.1804    0.7826 C   0  0  0  0  0  0  0  0  0  0  0  0
  -45.2475  -31.5379    0.0930 C   0  0  1  0  0  0  0  0  0  0  0  0
  -44.3230  -31.7566    2.3027 C   0  0  1  0  0  0  0  0  0  0  0  0
  -52.7291  -29.6783    4.3164 C   0  0  0  0  0  0  0  0  0  0  0  0
  -44.5285  -29.3873    2.9784 C   0  0  0  0  0  0  0  0  0  0  0  0
  -42.8064  -31.6619    2.1107 C   0  0  0  0  0  0  0  0  0  0  0  0
  -43.7993  -29.9135    5.2279 N   0  0  0  0  0  0  0  0  0  0  0  0
  -46.0787  -29.2726    4.8367 N   0  0  0  0  0  0  0  0  0  0  0  0
  -45.3445  -29.7970    7.0603 N   0  0  0  0  0  0  0  0  0  0  0  0
  -45.0629  -30.4936    2.2044 N   0  0  1  0  0  0  0  0  0  0  0  0
  -43.1108  -30.4193    7.4113 N   0  0  0  0  0  0  0  0  0  0  0  0
  -47.5652  -29.1672    6.6474 N   0  0  0  0  0  0  0  0  0  0  0  0
  -42.2214  -31.3239    3.3531 O   0  0  0  0  0  0  0  0  0  0  0  0
  -44.2294  -31.5918   -0.8079 F   0  0  0  0  0  0  0  0  0  0  0  0
  -52.0667  -29.9252    6.9385 H   0  0  0  0  0  0  0  0  0  0  0  0
  -50.3895  -29.1345    3.0500 H   0  0  0  0  0  0  0  0  0  0  0  0
  -49.8307  -29.7038    7.9486 H   0  0  0  0  0  0  0  0  0  0  0  0
  -48.1526  -28.9127    4.0580 H   0  0  0  0  0  0  0  0  0  0  0  0
  -45.9464  -32.9597    1.5463 H   0  0  0  0  0  0  0  0  0  0  0  0
  -44.3751  -33.3978    0.8383 H   0  0  0  0  0  0  0  0  0  0  0  0
  -44.3873  -29.5779    0.3919 H   0  0  0  0  0  0  0  0  0  0  0  0
  -46.1507  -29.6348    0.6183 H   0  0  0  0  0  0  0  0  0  0  0  0
  -46.1837  -31.7298   -0.4389 H   0  0  0  0  0  0  0  0  0  0  0  0
  -44.5208  -32.2349    3.2692 H   0  0  0  0  0  0  0  0  0  0  0  0
  -53.2512  -28.7129    4.2876 H   0  0  0  0  0  0  0  0  0  0  0  0
  -53.3615  -30.3644    4.8953 H   0  0  0  0  0  0  0  0  0  0  0  0
  -52.6491  -30.0607    3.2914 H   0  0  0  0  0  0  0  0  0  0  0  0
  -44.9637  -28.4612    2.5885 H   0  0  0  0  0  0  0  0  0  0  0  0
  -43.4497  -29.3417    2.7960 H   0  0  0  0  0  0  0  0  0  0  0  0
  -42.5777  -30.8910    1.3783 H   0  0  0  0  0  0  0  0  0  0  0  0
  -42.4190  -32.6219    1.7750 H   0  0  0  0  0  0  0  0  0  0  0  0
  -42.2107  -30.6482    7.0433 H   0  0  0  0  0  0  0  0  0  0  0  0
  -43.3324  -30.5647    8.3745 H   0  0  0  0  0  0  0  0  0  0  0  0
  -47.5779  -28.8234    7.6025 H   0  0  0  0  0  0  0  0  0  0  0  0
  -41.2604  -31.2683    3.2121 H   0  0  0  0  0  0  0  0  0  0  0  0
  1  3  2  0  0  0  0
  1  5  1  0  0  0  0
  2  4  1  0  0  0  0
  2  5  2  0  0  0  0
  3  6  1  0  0  0  0
  4  6  2  0  0  0  0
  5 14  1  0  0  0  0
  6 22  1  0  0  0  0
  7 15  1  0  0  0  0
  7 17  1  0  0  0  0
  7 18  2  0  0  0  0
  8 17  2  0  0  0  0
  8 19  1  0  0  0  0
  8 21  1  0  0  0  0
  9 18  1  0  0  0  0
  9 19  2  0  0  0  0
  9 22  1  0  0  0  0
 10 12  1  0  0  0  0
 10 13  1  0  0  0  0
 11 12  1  0  0  0  0
 11 20  1  0  0  0  0
 12 24  1  0  0  0  0
 13 16  1  0  0  0  0
 13 20  1  0  0  0  0
 15 20  1  0  0  0  0
 16 23  1  0  0  0  0
  1 25  1  0  0  0  0
  2 26  1  0  0  0  0
  3 27  1  0  0  0  0
  4 28  1  0  0  0  0
 10 29  1  0  0  0  0
 10 30  1  0  0  0  0
 11 31  1  0  0  0  0
 11 32  1  0  0  0  0
 12 33  1  0  0  0  0
 13 34  1  0  0  0  0
 14 35  1  0  0  0  0
 14 36  1  0  0  0  0
 14 37  1  0  0  0  0
 15 38  1  0  0  0  0
 15 39  1  0  0  0  0
 16 40  1  0  0  0  0
 16 41  1  0  0  0  0
 21 42  1  0  0  0  0
 21 43  1  0  0  0  0
 22 44  1  0  0  0  0
 23 45  1  0  0  0  0
M  END
> <POSIT::Probability>
0.33

> <POSIT::Method>
HYBRID

> <ReceptorTitle>
UCSF-P4615-REFINED_LIGAND-BOUND-STATE_A__DU__LA1_A-201(A)

> <OMEGA_C>
59lMwsag7cEGuclAahZJwoYU6sGG8INAKMlHwraf7MF7ANxAtAVEwnQT6cGON5ZAaoBNwtFa7MH3
r51AKF9DwmxZ6sEJQcJA/0gzwilF7MGmNY5ATYowwuYx8MGxvdBAphA5wpJm68HnCsVAcvQzwkQ/
AsLY9Jc/Dd00woRx8cEgW0g/c/00wpdN/MGAj749vUoxwpoN/sHkXhNAkOpSwhZt7cFOIIpAJR0y
wkoZ68FsnT5AvjkrwqhL/cHwFQdAgTIvwulO78EuS6dAnlA4wlEu6sFlxppAvWA1wkxg7sGj7eFA
bkA0wvzy88EcFA1Af3EswrZa88EiKe1AukI+wmtW6cG9t9RAsOIowlCX+sGImFZA4uowwhK8/MGg
0E6/SURQwr1m78EtCN5A045JwnQT6cE4M0NAplJHwmeh7cG5Wv5ASZxAwjxN58EF24FAF8k3wsjW
A8Jg7cU/FYAxwlyXBcIAmlY/kowxwn6f7MFAqMg+S5o4whIU7cEATB4/Ibw4wqrW/cGgtOC+SxUy
woXwAMLKOVFAOwFVwvWz5cGgM4lAK3JVwkzq8sE/ppxAuphSwmJ88MHEpVJA2NozwpOw48F+qiVA
gswtwtK76sE28jJAnE8qwsAg98HYbLA/E60pwtV8AsKoNOM/wtcownMv9cEbY+FAXFQtwmiE9MHh
/QVBwE8+wmSW5sGiR/NArQolwn0l+sFik01A

> <OMEGA_E>
5AUOwQ==

> <OMEGA_NBR>
      9669

$$$$
CACHE3-HO_1705_34
  -OEChem-03092622513D

 43 45  0     1  0  0  0  0  0999 V2000
  -48.3194  -28.4850    4.7752 C   0  0  0  0  0  0  0  0  0  0  0  0
  -49.0574  -28.6161    5.9236 C   0  0  0  0  0  0  0  0  0  0  0  0
  -46.9494  -28.9454    5.0721 C   0  0  0  0  0  0  0  0  0  0  0  0
  -46.9359  -29.2453    6.4422 C   0  0  0  0  0  0  0  0  0  0  0  0
  -45.7362  -29.0824    4.3432 C   0  0  0  0  0  0  0  0  0  0  0  0
  -44.6554  -29.6796    6.3504 C   0  0  0  0  0  0  0  0  0  0  0  0
  -44.2367  -29.0161    2.3566 C   0  0  0  0  0  0  0  0  0  0  0  0
  -46.6924  -29.0835    1.9865 C   0  0  0  0  0  0  0  0  0  0  0  0
  -44.1197  -30.5063    2.0024 C   0  0  0  0  0  0  0  0  0  0  0  0
  -46.5879  -30.5369    1.4970 C   0  0  0  0  0  0  0  0  0  0  0  0
  -45.2263  -29.2188   -1.5389 C   0  0  0  0  0  0  0  0  0  0  0  0
  -45.0543  -30.6699   -2.0502 C   0  0  0  0  0  0  0  0  0  0  0  0
  -45.0253  -31.9882    0.1791 C   0  0  0  0  0  0  0  0  0  0  0  0
  -44.2573  -31.6214   -1.1099 C   0  0  2  0  0  0  0  0  0  0  0  0
  -45.7980  -29.6038    7.0663 N   0  0  0  0  0  0  0  0  0  0  0  0
  -44.6211  -29.4556    5.0224 N   0  0  0  0  0  0  0  0  0  0  0  0
  -48.2206  -29.0776    6.9296 N   0  0  0  0  0  0  0  0  0  0  0  0
  -45.5920  -28.8205    2.9606 N   0  0  0  0  0  0  0  0  0  0  0  0
  -45.2021  -30.7872    1.0132 N   0  0  0  0  0  0  0  0  0  0  0  0
  -43.4629  -29.9660    6.9948 N   0  0  0  0  0  0  0  0  0  0  0  0
  -42.9951  -31.0347   -0.7936 O   0  0  0  0  0  0  0  0  0  0  0  0
  -48.6760  -28.1126    3.8262 H   0  0  0  0  0  0  0  0  0  0  0  0
  -50.1100  -28.3975    6.0272 H   0  0  0  0  0  0  0  0  0  0  0  0
  -43.4561  -28.7361    3.0792 H   0  0  0  0  0  0  0  0  0  0  0  0
  -44.1341  -28.4021    1.4497 H   0  0  0  0  0  0  0  0  0  0  0  0
  -46.5998  -28.3983    1.1311 H   0  0  0  0  0  0  0  0  0  0  0  0
  -47.6646  -28.9283    2.4771 H   0  0  0  0  0  0  0  0  0  0  0  0
  -43.1350  -30.7166    1.5597 H   0  0  0  0  0  0  0  0  0  0  0  0
  -44.2565  -31.1238    2.9025 H   0  0  0  0  0  0  0  0  0  0  0  0
  -46.8187  -31.2227    2.3255 H   0  0  0  0  0  0  0  0  0  0  0  0
  -47.3006  -30.7015    0.6754 H   0  0  0  0  0  0  0  0  0  0  0  0
  -45.8001  -28.6359   -2.2745 H   0  0  0  0  0  0  0  0  0  0  0  0
  -45.7643  -29.2295   -0.5796 H   0  0  0  0  0  0  0  0  0  0  0  0
  -44.2365  -28.7597   -1.3991 H   0  0  0  0  0  0  0  0  0  0  0  0
  -46.0566  -31.0989   -2.1962 H   0  0  0  0  0  0  0  0  0  0  0  0
  -44.5287  -30.6291   -3.0157 H   0  0  0  0  0  0  0  0  0  0  0  0
  -46.0115  -32.3964   -0.0870 H   0  0  0  0  0  0  0  0  0  0  0  0
  -44.4558  -32.7428    0.7414 H   0  0  0  0  0  0  0  0  0  0  0  0
  -44.0844  -32.5555   -1.6645 H   0  0  0  0  0  0  0  0  0  0  0  0
  -48.5045  -29.2623    7.8705 H   0  0  0  0  0  0  0  0  0  0  0  0
  -43.6323  -30.0848    7.9732 H   0  0  0  0  0  0  0  0  0  0  0  0
  -43.0750  -30.8077    6.6192 H   0  0  0  0  0  0  0  0  0  0  0  0
  -42.5100  -31.6162   -0.2200 H   0  0  0  0  0  0  0  0  0  0  0  0
  1  2  2  0  0  0  0
  1  3  1  0  0  0  0
  2 17  1  0  0  0  0
  3  4  2  0  0  0  0
  3  5  1  0  0  0  0
  4 15  1  0  0  0  0
  4 17  1  0  0  0  0
  5 16  2  0  0  0  0
  5 18  1  0  0  0  0
  6 15  2  0  0  0  0
  6 16  1  0  0  0  0
  6 20  1  0  0  0  0
  7  9  1  0  0  0  0
  7 18  1  0  0  0  0
  8 10  1  0  0  0  0
  8 18  1  0  0  0  0
  9 19  1  0  0  0  0
 10 19  1  0  0  0  0
 11 12  1  0  0  0  0
 12 14  1  0  0  0  0
 13 14  1  0  0  0  0
 13 19  1  0  0  0  0
 14 21  1  0  0  0  0
  1 22  1  0  0  0  0
  2 23  1  0  0  0  0
  7 24  1  0  0  0  0
  7 25  1  0  0  0  0
  8 26  1  0  0  0  0
  8 27  1  0  0  0  0
  9 28  1  0  0  0  0
  9 29  1  0  0  0  0
 10 30  1  0  0  0  0
 10 31  1  0  0  0  0
 11 32  1  0  0  0  0
 11 33  1  0  0  0  0
 11 34  1  0  0  0  0
 12 35  1  0  0  0  0
 12 36  1  0  0  0  0
 13 37  1  0  0  0  0
 13 38  1  0  0  0  0
 14 39  1  0  0  0  0
 17 40  1  0  0  0  0
 20 41  1  0  0  0  0
 20 42  1  0  0  0  0
 21 43  1  0  0  0  0
M  END
> <POSIT::Probability>
0.85

> <POSIT::Method>
SHAPEFIT

> <ReceptorTitle>
UCSF-P4615-REFINED_LIGAND-BOUND-STATE_A__DU__LA1_A-201(A)

> <OMEGA_C>
BEdBwl3h48F1zphAyTpEwsvt5MHVjb1ANsw7wi2Q58GiTqJAXL47wkz26cEZJs5A2PE2wteo6MGH
+4pAGp8ywr9v7cF/NstAZfIwwuYg6MFM0hZADMU6whyr6MHFRv4/nHowwgAN9MEcKABA/Fk6wqNL
9MGunL8/tuc0whnA6cG3+8S/kTc0wvBb9cEwNgPA8hk0wt/n/8GwZjc+egcxwrL4/MGyEY6/IzE3
wqLU7MFBH+JAA3wywv+k68FHt6BA4uFAwuGe6MFVv91AP142wlCQ5sFSej1A6c40wiBM9sEGsoE/
+NktwnC678FM1d9AB/srwiBH+MHeK0u/NbRCwqnm4MEu4XRAnHBIwiYu48Gg3sBA/9Itwonj5cHK
EUVAR4kwwns348G6jrk/PGY6wrIv48FoxpA/mqg+wi5t58FKiR5AMooswrK79cHMpcc/swYxwnj9
+MF0wjlAXkY7wgPI+cE51RRAzDM9wqmc9cFz5yw/RDM3wmIW5cEmkRHAsA43whrW6cHSXhS/LfIw
wtwT5sEjFbO/8Dk4wpPK+MG7jQzAbB0ywlUI9cGYAEHAzws4wumVAcLZMLK9tNIxwqT4AsIFzD0/
YFYwwtU4AsKLD9W/kgRCwh4Z6sE+2/tAb4cuwrWt8MENJP9Axkwswjx29sFC0NNAOgoqwu3t/MEZ
TGG+

> <OMEGA_E>
flEZPw==

> <OMEGA_NBR>
     11053

$$$$
CACHE3-HO_1705_37
  -OEChem-03092622513D

 43 45  0     1  0  0  0  0  0999 V2000
  -44.9724  -29.1071    4.3392 C   0  0  0  0  0  0  0  0  0  0  0  0
  -43.8799  -29.3791    5.1558 C   0  0  0  0  0  0  0  0  0  0  0  0
  -46.2671  -29.0887    4.8700 C   0  0  0  0  0  0  0  0  0  0  0  0
  -46.3925  -29.3536    6.2362 C   0  0  0  0  0  0  0  0  0  0  0  0
  -44.1162  -29.6275    6.4943 C   0  0  0  0  0  0  0  0  0  0  0  0
  -48.6760  -28.8144    4.6652 C   0  0  0  0  0  0  0  0  0  0  0  0
  -47.4730  -28.8094    4.0675 C   0  0  0  0  0  0  0  0  0  0  0  0
  -48.8328  -29.0932    6.1152 C   0  0  0  0  0  0  0  0  0  0  0  0
  -45.8172  -31.2381    2.2504 C   0  0  0  0  0  0  0  0  0  0  0  0
  -47.3063  -30.9539    2.4659 C   0  0  0  0  0  0  0  0  0  0  0  0
  -47.3382  -29.6315    0.4459 C   0  0  0  0  0  0  0  0  0  0  0  0
  -45.8390  -29.9142    0.2353 C   0  0  2  0  0  0  0  0  0  0  0  0
  -47.3428  -28.5281    2.6136 C   0  0  0  0  0  0  0  0  0  0  0  0
  -45.5022  -29.9372   -1.2554 C   0  0  0  0  0  0  0  0  0  0  0  0
  -45.3994  -28.5342   -1.8207 C   0  0  0  0  0  0  0  0  0  0  0  0
  -45.3446  -29.6210    7.0527 N   0  0  0  0  0  0  0  0  0  0  0  0
  -47.6749  -29.3467    6.8144 N   0  0  0  0  0  0  0  0  0  0  0  0
  -45.4585  -31.2015    0.8316 N   0  0  0  0  0  0  0  0  0  0  0  0
  -47.7639  -29.7014    1.8509 N   0  0  2  0  0  0  0  0  0  0  0  0
  -42.9949  -29.9017    7.3150 N   0  0  0  0  0  0  0  0  0  0  0  0
  -49.9511  -29.0882    6.6253 O   0  0  0  0  0  0  0  0  0  0  0  0
  -45.1037  -28.6296   -3.2073 O   0  0  0  0  0  0  0  0  0  0  0  0
  -44.7891  -28.9098    3.2864 H   0  0  0  0  0  0  0  0  0  0  0  0
  -42.8780  -29.3922    4.7391 H   0  0  0  0  0  0  0  0  0  0  0  0
  -49.5866  -28.6147    4.1094 H   0  0  0  0  0  0  0  0  0  0  0  0
  -45.2243  -30.4874    2.7825 H   0  0  0  0  0  0  0  0  0  0  0  0
  -45.5463  -32.2067    2.6830 H   0  0  0  0  0  0  0  0  0  0  0  0
  -47.8817  -31.8035    2.0465 H   0  0  0  0  0  0  0  0  0  0  0  0
  -47.5249  -30.9540    3.5551 H   0  0  0  0  0  0  0  0  0  0  0  0
  -47.5788  -28.6348    0.0253 H   0  0  0  0  0  0  0  0  0  0  0  0
  -47.9212  -30.3567   -0.1525 H   0  0  0  0  0  0  0  0  0  0  0  0
  -45.2613  -29.1373    0.6913 H   0  0  0  0  0  0  0  0  0  0  0  0
  -47.9635  -27.6679    2.3473 H   0  0  0  0  0  0  0  0  0  0  0  0
  -46.3040  -28.2894    2.3690 H   0  0  0  0  0  0  0  0  0  0  0  0
  -44.5621  -30.4735   -1.4028 H   0  0  0  0  0  0  0  0  0  0  0  0
  -46.2697  -30.5035   -1.7879 H   0  0  0  0  0  0  0  0  0  0  0  0
  -46.3426  -27.9908   -1.7022 H   0  0  0  0  0  0  0  0  0  0  0  0
  -44.5992  -27.9687   -1.3317 H   0  0  0  0  0  0  0  0  0  0  0  0
  -47.7319  -29.5438    7.8090 H   0  0  0  0  0  0  0  0  0  0  0  0
  -44.4545  -31.3039    0.7552 H   0  0  0  0  0  0  0  0  0  0  0  0
  -42.0929  -29.9582    6.8942 H   0  0  0  0  0  0  0  0  0  0  0  0
  -43.1448  -30.1360    8.2723 H   0  0  0  0  0  0  0  0  0  0  0  0
  -45.0434  -27.7210   -3.5440 H   0  0  0  0  0  0  0  0  0  0  0  0
  1  2  1  0  0  0  0
  1  3  2  0  0  0  0
  2  5  2  0  0  0  0
  3  4  1  0  0  0  0
  3  7  1  0  0  0  0
  4 16  2  0  0  0  0
  4 17  1  0  0  0  0
  5 16  1  0  0  0  0
  5 20  1  0  0  0  0
  6  7  2  0  0  0  0
  6  8  1  0  0  0  0
  7 13  1  0  0  0  0
  8 17  1  0  0  0  0
  8 21  2  0  0  0  0
  9 10  1  0  0  0  0
  9 18  1  0  0  0  0
 10 19  1  0  0  0  0
 11 12  1  0  0  0  0
 11 19  1  0  0  0  0
 12 14  1  0  0  0  0
 12 18  1  0  0  0  0
 13 19  1  0  0  0  0
 14 15  1  0  0  0  0
 15 22  1  0  0  0  0
  1 23  1  0  0  0  0
  2 24  1  0  0  0  0
  6 25  1  0  0  0  0
  9 26  1  0  0  0  0
  9 27  1  0  0  0  0
 10 28  1  0  0  0  0
 10 29  1  0  0  0  0
 11 30  1  0  0  0  0
 11 31  1  0  0  0  0
 12 32  1  0  0  0  0
 13 33  1  0  0  0  0
 13 34  1  0  0  0  0
 14 35  1  0  0  0  0
 14 36  1  0  0  0  0
 15 37  1  0  0  0  0
 15 38  1  0  0  0  0
 17 39  1  0  0  0  0
 18 40  1  0  0  0  0
 20 41  1  0  0  0  0
 20 42  1  0  0  0  0
 22 43  1  0  0  0  0
M  END
> <POSIT::Probability>
0.33

> <POSIT::Method>
HYBRID

> <ReceptorTitle>
UCSF-P4615-REFINED_LIGAND-BOUND-STATE_A__DU__LA1_A-201(A)

> <OMEGA_C>
vuMzwk/b6MF62opA+oQvwnII68EY/KRAexE5wry16MEE15tA4ZE5wjPU6sGsjsdA/nYwwhoF7cEm
0c9AN7RCwteD5sGhSZVAZOQ9wqx55sGYKIJAw1RDwtW+6MGCr8NA1UQ3wqPn+cEsBhBAnjk9wqqh
98Gy0B1ARlo9wlAN7cGgS+Q+I1s3wkJQ78EA53A+DV89woY55MHsRCdAPgI2wnB/78H8saC/A5k1
wvtF5MGoC+m/6WA1wtX37MEQsOFAHrM+wgTG6sFID9pAhNU1wq6c+cGw5FQ/QA4/wnic7cGM6uw/
0forwsc278FIFOpA581Hwq606MESAtRALGo0wlQJ5cGBRE3ACigzwltH58F0VFJAG4Mrwk0j68EM
p5dAoVhGwvjq5MEIgINAqeU0wjHm88H2EzJAZy82wq3TAMK4titA14Y/wo1t/sH++QJAfxk+wrqh
98E0h2NAuVA+wisU5cEASs88U68/wo3a8sGAKxy+jgs1wjsZ6cGA+jA/nto/wtJX3cGoORZAUDc5
wqFQ4sFAnhdAoD8ywrnJ88G8jbO/KBQ5wjgH9MHY2eS/3l45wjXt38Eg4dm/jmUywvy/38E0dqq/
eO0+wqZZ7MEo4/lAcNExwmZu+sFwVkE/LF8owmKq78F7ndxAQJQswqEW8cFPWwRBZyw0wp7E3cGV
0WLA

> <OMEGA_E>
nnUiwQ==

> <OMEGA_NBR>
     12415

$$$$
CACHE3-HO_1705_38
  -OEChem-03092622513D

 37 39  0     1  0  0  0  0  0999 V2000
  -48.4656  -28.7552    4.9345 C   0  0  0  0  0  0  0  0  0  0  0  0
  -47.1544  -29.0572    5.1944 C   0  0  0  0  0  0  0  0  0  0  0  0
  -46.9974  -29.1512    6.6062 C   0  0  0  0  0  0  0  0  0  0  0  0
  -46.0369  -29.2693    4.3629 C   0  0  0  0  0  0  0  0  0  0  0  0
  -44.7452  -29.6426    6.3007 C   0  0  0  0  0  0  0  0  0  0  0  0
  -44.5902  -31.2277   -0.0767 C   0  0  0  0  0  0  0  0  0  0  0  0
  -46.3006  -30.0623   -0.3798 C   0  0  0  0  0  0  0  0  0  0  0  0
  -45.6123  -30.5778    0.9072 C   0  0  0  0  0  0  0  0  0  0  0  0
  -44.9332  -30.1543   -1.1104 C   0  0  0  0  0  0  0  0  0  0  0  0
  -43.6744  -29.8479    2.4202 C   0  0  0  0  0  0  0  0  0  0  0  0
  -43.5836  -31.3028    2.9850 C   0  0  0  0  0  0  0  0  0  0  0  0
  -45.0963  -29.4705    1.8918 C   0  0  2  0  0  0  0  0  0  0  0  0
  -45.7931  -29.4518    7.1344 N   0  0  0  0  0  0  0  0  0  0  0  0
  -48.1493  -28.9117    7.1965 N   0  0  0  0  0  0  0  0  0  0  0  0
  -44.8535  -29.5245    4.9603 N   0  0  0  0  0  0  0  0  0  0  0  0
  -49.0187  -28.6738    6.1870 N   0  0  0  0  0  0  0  0  0  0  0  0
  -43.5064  -29.9835    6.8246 N   0  0  0  0  0  0  0  0  0  0  0  0
  -46.1712  -29.2377    2.9526 N   0  0  0  0  0  0  0  0  0  0  0  0
  -42.3931  -31.4426    3.7471 O   0  0  0  0  0  0  0  0  0  0  0  0
  -44.1678  -29.0293   -1.0312 F   0  0  0  0  0  0  0  0  0  0  0  0
  -45.0014  -30.6495   -2.3734 F   0  0  0  0  0  0  0  0  0  0  0  0
  -48.9460  -28.6155    3.9774 H   0  0  0  0  0  0  0  0  0  0  0  0
  -43.5474  -31.2019    0.2726 H   0  0  0  0  0  0  0  0  0  0  0  0
  -44.8482  -32.2514   -0.3855 H   0  0  0  0  0  0  0  0  0  0  0  0
  -47.0748  -30.7334   -0.7801 H   0  0  0  0  0  0  0  0  0  0  0  0
  -46.7047  -29.0423   -0.3006 H   0  0  0  0  0  0  0  0  0  0  0  0
  -46.2196  -31.3341    1.4261 H   0  0  0  0  0  0  0  0  0  0  0  0
  -43.4036  -29.1456    3.2224 H   0  0  0  0  0  0  0  0  0  0  0  0
  -42.9581  -29.7512    1.5910 H   0  0  0  0  0  0  0  0  0  0  0  0
  -44.4548  -31.5020    3.6264 H   0  0  0  0  0  0  0  0  0  0  0  0
  -43.5710  -32.0197    2.1508 H   0  0  0  0  0  0  0  0  0  0  0  0
  -44.9930  -28.5417    1.3115 H   0  0  0  0  0  0  0  0  0  0  0  0
  -49.9827  -28.4571    6.3412 H   0  0  0  0  0  0  0  0  0  0  0  0
  -43.5704  -30.0441    7.8207 H   0  0  0  0  0  0  0  0  0  0  0  0
  -43.2200  -30.8673    6.4548 H   0  0  0  0  0  0  0  0  0  0  0  0
  -46.8745  -29.9196    2.7517 H   0  0  0  0  0  0  0  0  0  0  0  0
  -42.3381  -32.3267    4.0902 H   0  0  0  0  0  0  0  0  0  0  0  0
  1  2  2  0  0  0  0
  1 16  1  0  0  0  0
  2  3  1  0  0  0  0
  2  4  1  0  0  0  0
  3 13  1  0  0  0  0
  3 14  2  0  0  0  0
  4 15  2  0  0  0  0
  4 18  1  0  0  0  0
  5 13  2  0  0  0  0
  5 15  1  0  0  0  0
  5 17  1  0  0  0  0
  6  8  1  0  0  0  0
  6  9  1  0  0  0  0
  7  8  1  0  0  0  0
  7  9  1  0  0  0  0
  8 12  1  0  0  0  0
  9 20  1  0  0  0  0
  9 21  1  0  0  0  0
 10 11  1  0  0  0  0
 10 12  1  0  0  0  0
 11 19  1  0  0  0  0
 12 18  1  0  0  0  0
 14 16  1  0  0  0  0
  1 22  1  0  0  0  0
  6 23  1  0  0  0  0
  6 24  1  0  0  0  0
  7 25  1  0  0  0  0
  7 26  1  0  0  0  0
  8 27  1  0  0  0  0
 10 28  1  0  0  0  0
 10 29  1  0  0  0  0
 11 30  1  0  0  0  0
 11 31  1  0  0  0  0
 12 32  1  0  0  0  0
 16 33  1  0  0  0  0
 17 34  1  0  0  0  0
 17 35  1  0  0  0  0
 18 36  1  0  0  0  0
 19 37  1  0  0  0  0
M  END
> <POSIT::Probability>
0.79

> <POSIT::Method>
SHAPEFIT

> <ReceptorTitle>
UCSF-P4615-REFINED_LIGAND-BOUND-STATE_A__DU__LA1_A-201(A)

> <OMEGA_C>
w9xBwrEK5sFm551AFp48wh916MGUOKZAVf07wpM16cGbZdNAwiU4wogn6sHSnItAGvsywvoj7cFd
n8lAVFwywkrS+cFwI529xDM5woZ/8MF2eMK+/XI2wlSf9MHqPWg/pbszwgU88cE9IY6/lbIuwm3I
7sEJ5BpAolUuwjVs+sGCCj9AkWI0worD68HmJ/I/Hyw3wlKd68HLTORA55hAwiRL58EPSuZA8mkz
whsy7MGMup5AKhNEwgdk5cEY/MVAiAYuwjTe78FxY9pAUa84wszm6cGy9jxAfZIpwlqK+8Gl0G9A
06swwhA86MEF/oO/bQE0wiEy9cEk5RfAtMhDwn7s5MFfjX5AkDAuwoOd+cGskos+lWQzwngBAcJo
X8W+jEw8wvXd9cFctUe/oNE6wpZW6MFT6Zm+0uA4wiis+sG2i7Y/Q50twkcq6cFyO05AGtUrwnUC
7sGRpMs/uNExwgcE/ME9F2hAs0guwiwUAMJopglA2/gzwnJV5MF+4Kc/Se5HwjKo48Hz6spAIUgu
wlFa8MGHQ/pAO+Eswkrw9sF4jc5Ad387wmxb78EzGzBAN1opwo9OAcI444JA

> <OMEGA_E>
jtsPPw==

> <OMEGA_NBR>
     13679

$$$$
CACHE3-HO_1705_39
  -OEChem-03092622513D

 43 45  0     1  0  0  0  0  0999 V2000
  -46.1993  -34.1686    0.9943 C   0  0  0  0  0  0  0  0  0  0  0  0
  -45.0795  -33.8809    0.2139 C   0  0  0  0  0  0  0  0  0  0  0  0
  -46.9923  -33.1311    1.4845 C   0  0  0  0  0  0  0  0  0  0  0  0
  -44.7530  -32.5561   -0.0767 C   0  0  0  0  0  0  0  0  0  0  0  0
  -46.6657  -31.8063    1.1939 C   0  0  0  0  0  0  0  0  0  0  0  0
  -45.5460  -31.5186    0.4135 C   0  0  0  0  0  0  0  0  0  0  0  0
  -47.6273  -28.7071    4.0784 C   0  0  0  0  0  0  0  0  0  0  0  0
  -47.9944  -28.5562    6.2867 C   0  0  0  0  0  0  0  0  0  0  0  0
  -45.9408  -29.0379    5.5214 C   0  0  0  0  0  0  0  0  0  0  0  0
  -42.2817  -29.4467    2.2072 C   0  0  0  0  0  0  0  0  0  0  0  0
  -42.9126  -29.9125    0.9049 C   0  0  0  0  0  0  0  0  0  0  0  0
  -44.6542  -29.9275    2.4668 C   0  0  0  0  0  0  0  0  0  0  0  0
  -43.3459  -29.7784    3.2589 C   0  0  2  0  0  0  0  0  0  0  0  0
  -45.1948  -30.0923    0.1010 C   0  0  0  0  0  0  0  0  0  0  0  0
  -43.4260  -28.7244    4.3565 C   0  0  0  0  0  0  0  0  0  0  0  0
  -48.5208  -28.4774    5.0541 N   0  0  0  0  0  0  0  0  0  0  0  0
  -46.3244  -28.9925    4.2354 N   0  0  0  0  0  0  0  0  0  0  0  0
  -46.7174  -28.8314    6.5971 N   0  0  0  0  0  0  0  0  0  0  0  0
  -44.3064  -29.5189    1.1004 N   0  0  2  0  0  0  0  0  0  0  0  0
  -48.1063  -28.6424    2.7517 N   0  0  0  0  0  0  0  0  0  0  0  0
  -48.8730  -28.3251    7.3673 N   0  0  0  0  0  0  0  0  0  0  0  0
  -43.0368  -31.0390    3.8540 O   0  0  0  0  0  0  0  0  0  0  0  0
  -44.2188  -29.4117    5.8336 S   0  0  0  0  0  0  0  0  0  0  0  0
  -46.4535  -35.1999    1.2206 H   0  0  0  0  0  0  0  0  0  0  0  0
  -44.4622  -34.6886   -0.1682 H   0  0  0  0  0  0  0  0  0  0  0  0
  -47.8640  -33.3548    2.0923 H   0  0  0  0  0  0  0  0  0  0  0  0
  -43.8786  -32.3418   -0.6855 H   0  0  0  0  0  0  0  0  0  0  0  0
  -47.2902  -31.0048    1.5795 H   0  0  0  0  0  0  0  0  0  0  0  0
  -41.3271  -29.9513    2.3879 H   0  0  0  0  0  0  0  0  0  0  0  0
  -42.1002  -28.3656    2.1555 H   0  0  0  0  0  0  0  0  0  0  0  0
  -42.4607  -29.4174    0.0398 H   0  0  0  0  0  0  0  0  0  0  0  0
  -42.8028  -30.9987    0.7918 H   0  0  0  0  0  0  0  0  0  0  0  0
  -45.0088  -30.9658    2.5001 H   0  0  0  0  0  0  0  0  0  0  0  0
  -45.4503  -29.2820    2.8533 H   0  0  0  0  0  0  0  0  0  0  0  0
  -44.6982  -30.0215   -0.8724 H   0  0  0  0  0  0  0  0  0  0  0  0
  -46.0930  -29.4679    0.0541 H   0  0  0  0  0  0  0  0  0  0  0  0
  -44.0052  -27.8668    4.0077 H   0  0  0  0  0  0  0  0  0  0  0  0
  -42.4230  -28.3810    4.6170 H   0  0  0  0  0  0  0  0  0  0  0  0
  -49.0802  -28.4854    2.5942 H   0  0  0  0  0  0  0  0  0  0  0  0
  -47.4852  -28.8593    1.9998 H   0  0  0  0  0  0  0  0  0  0  0  0
  -49.8186  -28.0645    7.1773 H   0  0  0  0  0  0  0  0  0  0  0  0
  -48.5089  -28.3223    8.2977 H   0  0  0  0  0  0  0  0  0  0  0  0
  -43.7301  -31.2097    4.5090 H   0  0  0  0  0  0  0  0  0  0  0  0
  1  2  1  0  0  0  0
  1  3  2  0  0  0  0
  2  4  2  0  0  0  0
  3  5  1  0  0  0  0
  4  6  1  0  0  0  0
  5  6  2  0  0  0  0
  6 14  1  0  0  0  0
  7 16  2  0  0  0  0
  7 17  1  0  0  0  0
  7 20  1  0  0  0  0
  8 16  1  0  0  0  0
  8 18  2  0  0  0  0
  8 21  1  0  0  0  0
  9 17  2  0  0  0  0
  9 18  1  0  0  0  0
  9 23  1  0  0  0  0
 10 11  1  0  0  0  0
 10 13  1  0  0  0  0
 11 19  1  0  0  0  0
 12 13  1  0  0  0  0
 12 19  1  0  0  0  0
 13 15  1  0  0  0  0
 13 22  1  0  0  0  0
 14 19  1  0  0  0  0
 15 23  1  0  0  0  0
  1 24  1  0  0  0  0
  2 25  1  0  0  0  0
  3 26  1  0  0  0  0
  4 27  1  0  0  0  0
  5 28  1  0  0  0  0
 10 29  1  0  0  0  0
 10 30  1  0  0  0  0
 11 31  1  0  0  0  0
 11 32  1  0  0  0  0
 12 33  1  0  0  0  0
 12 34  1  0  0  0  0
 14 35  1  0  0  0  0
 14 36  1  0  0  0  0
 15 37  1  0  0  0  0
 15 38  1  0  0  0  0
 20 39  1  0  0  0  0
 20 40  1  0  0  0  0
 21 41  1  0  0  0  0
 21 42  1  0  0  0  0
 22 43  1  0  0  0  0
M  END
> <POSIT::Probability>
0.23

> <POSIT::Method>
HYBRID

> <ReceptorTitle>
UCSF-P4615-REFINED_LIGAND-BOUND-STATE_A__DU__LA1_A-201(A)

> <OMEGA_C>
Dsw4wp6sCMJQjH4/clE0wgaGB8Lw/1o+Ffg7wjuGBMKYAr4/DAMzwnw5AsKA/5y9sKk6wmFz/sGq
0pg/Hy82wiMm/MEYttM+V4I+wiKo5cHpgYJAPfo/whlz5MGWLMlAZcM3wo1N6MFUr7BAfyApwr+S
68FtQg1AhqYrwtpM78FopWc/450ywoZr78HT3x1AMmItwjQ67sHnkVBAccc0wga98MEA4M49PbQt
wqjL5cGdaItAQBVCwq/R48EFu6FAM0w5wprw58EgiIdAlt46wqym5sGlG9NAwjkxws8m7MHU2Yw/
zWxAwrAj5cEuGzBA+H1DwtGZ4sEawetAqiUswtJP+MFYp3ZAAuAwwixL68G0rLpAa9A5wqnMDMLa
O5w/SNkxwivBCsLgNiy+wHQ/wlxrBcJI6AVApIMvwvpdAcJ8ey+/NSk9wt0J+MH5K8o/6E4lwi2c
78H70xhAp2YowsTs4sHy8glAvtcpwupW68HAISM9HDYrwkP998G4s0o//wg0wgS698HbASBAKM01
wnpB6sHrmzZA+8oywh8s8MEEV1+/RF84wiy+68FAm109TQUwwkDv3sGuPoBAG7EpwjYM48FuvpNA
G1JEwiTi48HVBiZA0vA9wsLf5sFw+v8/RUZHwhaE4MGcrOVAIwlCwhqU4sFkwwRBmusuwnKt+cHI
SZBA

> <OMEGA_E>
6NT1wA==

> <OMEGA_NBR>
     15039

$$$$
CACHE3-HO_1705_41
  -OEChem-03092622513D

 35 38  0     1  0  0  0  0  0999 V2000
  -48.2276  -28.8785    4.7034 C   0  0  0  0  0  0  0  0  0  0  0  0
  -46.9468  -29.1894    5.0865 C   0  0  0  0  0  0  0  0  0  0  0  0
  -46.9096  -29.1996    6.5070 C   0  0  0  0  0  0  0  0  0  0  0  0
  -45.7510  -29.4433    4.3791 C   0  0  0  0  0  0  0  0  0  0  0  0
  -44.6304  -29.6879    6.4329 C   0  0  0  0  0  0  0  0  0  0  0  0
  -45.3538  -29.2607   -0.0773 C   0  0  0  0  0  0  0  0  0  0  0  0
  -46.7147  -29.9427    2.0638 C   0  0  0  0  0  0  0  0  0  0  0  0
  -44.4120  -29.0716    2.2981 C   0  0  0  0  0  0  0  0  0  0  0  0
  -45.9081  -30.4009    0.8222 C   0  0  2  0  0  0  0  0  0  0  0  0
  -44.4695  -29.8915    1.0072 C   0  0  1  0  0  0  0  0  0  0  0  0
  -46.2187  -31.8181    0.2888 C   0  0  0  0  0  0  0  0  0  0  0  0
  -43.2262  -30.7584    0.7614 C   0  0  0  0  0  0  0  0  0  0  0  0
  -45.7534  -29.4546    7.1528 N   0  0  0  0  0  0  0  0  0  0  0  0
  -48.1043  -28.9248    6.9854 N   0  0  0  0  0  0  0  0  0  0  0  0
  -44.6170  -29.6819    5.0807 N   0  0  0  0  0  0  0  0  0  0  0  0
  -48.8834  -28.7351    5.8977 N   0  0  0  0  0  0  0  0  0  0  0  0
  -45.6677  -29.4281    2.9780 N   0  0  3  0  0  0  0  0  0  0  0  0
  -43.4397  -29.9296    7.0999 N   0  0  0  0  0  0  0  0  0  0  0  0
  -46.0362  -31.8831   -1.1262 O   0  0  0  0  0  0  0  0  0  0  0  0
  -42.1416  -29.9441    0.7216 F   0  0  0  0  0  0  0  0  0  0  0  0
  -43.3069  -31.4260   -0.4171 F   0  0  0  0  0  0  0  0  0  0  0  0
  -43.1025  -31.6544    1.7810 F   0  0  0  0  0  0  0  0  0  0  0  0
  -48.6224  -28.7727    3.7038 H   0  0  0  0  0  0  0  0  0  0  0  0
  -45.1424  -29.4507   -1.1399 H   0  0  0  0  0  0  0  0  0  0  0  0
  -45.7260  -28.2327    0.0444 H   0  0  0  0  0  0  0  0  0  0  0  0
  -47.4306  -29.1508    1.7987 H   0  0  0  0  0  0  0  0  0  0  0  0
  -47.2537  -30.7875    2.5175 H   0  0  0  0  0  0  0  0  0  0  0  0
  -43.5400  -29.3538    2.9063 H   0  0  0  0  0  0  0  0  0  0  0  0
  -44.3736  -27.9941    2.0798 H   0  0  0  0  0  0  0  0  0  0  0  0
  -45.5443  -32.5403    0.7722 H   0  0  0  0  0  0  0  0  0  0  0  0
  -47.2616  -32.0726    0.5292 H   0  0  0  0  0  0  0  0  0  0  0  0
  -49.8556  -28.5093    5.9593 H   0  0  0  0  0  0  0  0  0  0  0  0
  -43.5966  -29.8935    8.0868 H   0  0  0  0  0  0  0  0  0  0  0  0
  -43.0956  -30.8347    6.8501 H   0  0  0  0  0  0  0  0  0  0  0  0
  -46.2323  -32.7611   -1.4313 H   0  0  0  0  0  0  0  0  0  0  0  0
  1  2  2  0  0  0  0
  1 16  1  0  0  0  0
  2  3  1  0  0  0  0
  2  4  1  0  0  0  0
  3 13  1  0  0  0  0
  3 14  2  0  0  0  0
  4 15  2  0  0  0  0
  4 17  1  0  0  0  0
  5 13  2  0  0  0  0
  5 15  1  0  0  0  0
  5 18  1  0  0  0  0
  6  9  1  0  0  0  0
  6 10  1  0  0  0  0
  7  9  1  0  0  0  0
  7 17  1  0  0  0  0
  8 10  1  0  0  0  0
  8 17  1  0  0  0  0
  9 10  1  0  0  0  0
  9 11  1  0  0  0  0
 10 12  1  0  0  0  0
 11 19  1  0  0  0  0
 12 20  1  0  0  0  0
 12 21  1  0  0  0  0
 12 22  1  0  0  0  0
 14 16  1  0  0  0  0
  1 23  1  0  0  0  0
  6 24  1  0  0  0  0
  6 25  1  0  0  0  0
  7 26  1  0  0  0  0
  7 27  1  0  0  0  0
  8 28  1  0  0  0  0
  8 29  1  0  0  0  0
 11 30  1  0  0  0  0
 11 31  1  0  0  0  0
 16 32  1  0  0  0  0
 18 33  1  0  0  0  0
 18 34  1  0  0  0  0
 19 35  1  0  0  0  0
M  END
> <POSIT::Probability>
0.78

> <POSIT::Method>
SHAPEFIT

> <ReceptorTitle>
UCSF-P4615-REFINED_LIGAND-BOUND-STATE_A__DU__LA1_A-201(A)

> <OMEGA_C>
FOlAwj0H58GYgpZAjck7wu2D6cGSxKJAYqM7wsKY6cFCOdBABQE3wtSL68GmIYxAhYUywsmA7cEK
2s1AVWo1wukV6sG4T5690ts6wruK78E+FQRA3aUxwpiS6MGJExNA6KE3wvo088Hoe1I/vOAxwt4h
78H+7IA//d84woqL/sGU4ZM+necswjQR9sEs6UI/egM3wvui68Gu4+RAxGpAwgdm58E+iN9Aw3cy
wm907cH8lKJAkYhDwnnh5cEMurxAsqs2wrhs68G7lz5AOsItwtVv78FCMuNAGyU4woMQ/8GsJ5C/
BpEowpqN78EguTg/Tjotwn1o+8FckdW+9mgswjg8/cGm9+M/Xn1Cwo0u5sGyCm1A3pE0wiGb68Fu
6ZG/aOc2wqbc4cGTyDU97rg9wts06cHDOuY/0QM9wsVM9sFBHiFA7iguwo/U6sEWATpAhX4xwgD0
38EHGwVAai02wlEpAsKHrEU/1ws9wktKAMJFewc/H2xHwvsS5MF9sr5A92IuwuEl78GmYwFB6GEs
woGt9sEENNtA2u04wmULA8IoNLe/

> <OMEGA_E>
Uuk6Pw==

> <OMEGA_NBR>
     16273

$$$$
CACHE3-HO_1705_42
  -OEChem-03092622513D

 46 48  0     1  0  0  0  0  0999 V2000
  -48.4029  -28.7619    4.7961 C   0  0  0  0  0  0  0  0  0  0  0  0
  -47.0090  -29.0906    5.1238 C   0  0  0  0  0  0  0  0  0  0  0  0
  -46.9661  -29.2065    6.5139 C   0  0  0  0  0  0  0  0  0  0  0  0
  -45.8039  -29.2540    4.3904 C   0  0  0  0  0  0  0  0  0  0  0  0
  -44.6882  -29.6613    6.4195 C   0  0  0  0  0  0  0  0  0  0  0  0
  -45.0225  -30.6648    0.5549 C   0  0  0  0  0  0  0  0  0  0  0  0
  -44.3750  -28.9804    2.3317 C   0  0  0  0  0  0  0  0  0  0  0  0
  -46.8332  -29.5524    2.1185 C   0  0  0  0  0  0  0  0  0  0  0  0
  -43.9833  -30.2976    1.6224 C   0  0  1  0  0  0  0  0  0  0  0  0
  -46.3714  -29.8819    0.6492 C   0  0  2  0  0  0  0  0  0  0  0  0
  -48.6611  -29.6807   -0.4028 C   0  0  0  0  0  0  0  0  0  0  0  0
  -48.0137  -31.8910    0.6295 C   0  0  0  0  0  0  0  0  0  0  0  0
  -46.9428  -31.1220   -1.5343 C   0  0  0  0  0  0  0  0  0  0  0  0
  -43.8527  -31.4992    2.5878 C   0  0  0  0  0  0  0  0  0  0  0  0
  -47.4813  -30.6474   -0.1482 C   0  0  0  0  0  0  0  0  0  0  0  0
  -49.0823  -28.6929    5.9207 N   0  0  0  0  0  0  0  0  0  0  0  0
  -45.8142  -29.4924    7.1524 N   0  0  0  0  0  0  0  0  0  0  0  0
  -44.6728  -29.5336    5.0769 N   0  0  0  0  0  0  0  0  0  0  0  0
  -48.2456  -28.9572    6.9751 N   0  0  0  0  0  0  0  0  0  0  0  0
  -45.7086  -29.1384    2.9863 N   0  0  1  0  0  0  0  0  0  0  0  0
  -43.4932  -29.9563    7.0543 N   0  0  0  0  0  0  0  0  0  0  0  0
  -42.8262  -31.2633    3.5368 O   0  0  0  0  0  0  0  0  0  0  0  0
  -48.8007  -28.6043    3.8044 H   0  0  0  0  0  0  0  0  0  0  0  0
  -44.5813  -30.4665   -0.4331 H   0  0  0  0  0  0  0  0  0  0  0  0
  -45.2437  -31.7382    0.6490 H   0  0  0  0  0  0  0  0  0  0  0  0
  -43.6200  -28.7370    3.0938 H   0  0  0  0  0  0  0  0  0  0  0  0
  -44.4247  -28.1677    1.5921 H   0  0  0  0  0  0  0  0  0  0  0  0
  -47.5698  -28.7362    2.0821 H   0  0  0  0  0  0  0  0  0  0  0  0
  -47.3008  -30.4493    2.5509 H   0  0  0  0  0  0  0  0  0  0  0  0
  -43.0133  -30.1470    1.1261 H   0  0  0  0  0  0  0  0  0  0  0  0
  -46.2191  -28.9187    0.1404 H   0  0  0  0  0  0  0  0  0  0  0  0
  -49.4503  -30.2039   -0.9628 H   0  0  0  0  0  0  0  0  0  0  0  0
  -49.0640  -29.3325    0.5597 H   0  0  0  0  0  0  0  0  0  0  0  0
  -48.3083  -28.8176   -0.9864 H   0  0  0  0  0  0  0  0  0  0  0  0
  -48.7882  -32.3939    0.0318 H   0  0  0  0  0  0  0  0  0  0  0  0
  -47.1843  -32.5889    0.8166 H   0  0  0  0  0  0  0  0  0  0  0  0
  -48.4438  -31.5670    1.5886 H   0  0  0  0  0  0  0  0  0  0  0  0
  -47.7387  -31.6557   -2.0743 H   0  0  0  0  0  0  0  0  0  0  0  0
  -46.6232  -30.2487   -2.1218 H   0  0  0  0  0  0  0  0  0  0  0  0
  -46.0865  -31.7959   -1.3836 H   0  0  0  0  0  0  0  0  0  0  0  0
  -44.8069  -31.6454    3.1152 H   0  0  0  0  0  0  0  0  0  0  0  0
  -43.6109  -32.4034    2.0099 H   0  0  0  0  0  0  0  0  0  0  0  0
  -48.5207  -28.9680    7.9364 H   0  0  0  0  0  0  0  0  0  0  0  0
  -43.6433  -30.0066    8.0417 H   0  0  0  0  0  0  0  0  0  0  0  0
  -43.1487  -30.8351    6.7243 H   0  0  0  0  0  0  0  0  0  0  0  0
  -42.7579  -32.0086    4.1219 H   0  0  0  0  0  0  0  0  0  0  0  0
  1  2  1  0  0  0  0
  1 16  2  0  0  0  0
  2  3  2  0  0  0  0
  2  4  1  0  0  0  0
  3 17  1  0  0  0  0
  3 19  1  0  0  0  0
  4 18  2  0  0  0  0
  4 20  1  0  0  0  0
  5 17  2  0  0  0  0
  5 18  1  0  0  0  0
  5 21  1  0  0  0  0
  6  9  1  0  0  0  0
  6 10  1  0  0  0  0
  7  9  1  0  0  0  0
  7 20  1  0  0  0  0
  8 10  1  0  0  0  0
  8 20  1  0  0  0  0
  9 14  1  0  0  0  0
 10 15  1  0  0  0  0
 11 15  1  0  0  0  0
 12 15  1  0  0  0  0
 13 15  1  0  0  0  0
 14 22  1  0  0  0  0
 16 19  1  0  0  0  0
  1 23  1  0  0  0  0
  6 24  1  0  0  0  0
  6 25  1  0  0  0  0
  7 26  1  0  0  0  0
  7 27  1  0  0  0  0
  8 28  1  0  0  0  0
  8 29  1  0  0  0  0
  9 30  1  0  0  0  0
 10 31  1  0  0  0  0
 11 32  1  0  0  0  0
 11 33  1  0  0  0  0
 11 34  1  0  0  0  0
 12 35  1  0  0  0  0
 12 36  1  0  0  0  0
 12 37  1  0  0  0  0
 13 38  1  0  0  0  0
 13 39  1  0  0  0  0
 13 40  1  0  0  0  0
 14 41  1  0  0  0  0
 14 42  1  0  0  0  0
 19 43  1  0  0  0  0
 21 44  1  0  0  0  0
 21 45  1  0  0  0  0
 22 46  1  0  0  0  0
M  END
> <POSIT::Probability>
0.91

> <POSIT::Method>
SHAPEFIT

> <ReceptorTitle>
UCSF-P4615-REFINED_LIGAND-BOUND-STATE_A__DU__LA1_A-201(A)

> <OMEGA_C>
kZxBwlUY5sFfeZlAMgk8wom56MFz9qNASt07wuGm6cGvcdBAOTc3wh8I6sFHfoxAv8AywmVK7cHD
bM1AARc0wnFR9cGYDA4/+X8xwujX58FGOhVAOFU7wlNr7MG+lQdA6O4vwohh8sHgq88/RHw5wiUO
78EoNCY/+6RCwhRy7cFQQM6+CQ5Awscg/8GgJCE/acU7wtT5+MHsYsS/Mmkvwlv++8FKniVA4uw9
wvEt9cGgxBe+TFREwhKL5cH3db1AxUE3wojw68Ed4ORA9rAywtRE7MH3daJAfftAwlKo58HjM99A
kdU2wmkb6cHmHz9ACvktwmym78GtvOFAC04rwiwb+sGuW2JA5zNDwovV5MHye3NARFMywnO788FF
vt2+gvk0wsvn/cEEIyY/7nouwmzl5cEFAUZA2LIxwmVX4cEpyss/dkc+wsrj5cHFQQVADDQ9wiqY
88FSQSNAlw0swvks8cGLJJA/T+A4wmpZ58HmuA8+Ec1FwpGh8cHUd3a/hUFEwgWp6sF5SA8/vjtB
wmqK5sFphny/GCdDwmeTAcJSHgI9v7w8wg9bAsKzDlE/cMZBwiOJ/MG4WMs/b/Q+wvU+/cEGwQTA
JH46wl798cFezAfAmFg4wu5d/sF5GrG/Sjozws8p/cECX0dAhnEuwhWdAcKqogBAKxVCwmi+58Fd
9/1AsZIuwpgN8MG0qgBBQpgswmKu9sGwLddAEAgrwskIAMLz5oNA

> <OMEGA_E>
RJPkPg==

> <OMEGA_NBR>
     17724

$$$$
CACHE3-HO_1705_6
  -OEChem-03092622513D

 46 48  0     1  0  0  0  0  0999 V2000
  -50.4080  -29.5264    7.3699 C   0  0  0  0  0  0  0  0  0  0  0  0
  -49.7992  -29.2027    5.0543 C   0  0  0  0  0  0  0  0  0  0  0  0
  -51.7369  -29.7204    6.9928 C   0  0  0  0  0  0  0  0  0  0  0  0
  -51.1281  -29.3966    4.6772 C   0  0  0  0  0  0  0  0  0  0  0  0
  -49.4392  -29.2677    6.4004 C   0  0  0  0  0  0  0  0  0  0  0  0
  -52.0969  -29.6553    5.6467 C   0  0  0  0  0  0  0  0  0  0  0  0
  -45.6808  -29.5133    4.2347 C   0  0  0  0  0  0  0  0  0  0  0  0
  -44.6926  -29.8510    6.2206 C   0  0  0  0  0  0  0  0  0  0  0  0
  -46.8729  -29.3295    6.1270 C   0  0  0  0  0  0  0  0  0  0  0  0
  -42.9705  -30.8630    0.5843 C   0  0  0  0  0  0  0  0  0  0  0  0
  -43.2199  -29.1867    2.3290 C   0  0  0  0  0  0  0  0  0  0  0  0
  -42.2021  -29.8047    1.3739 C   0  0  2  0  0  0  0  0  0  0  0  0
  -44.4454  -30.5537    0.8497 C   0  0  2  0  0  0  0  0  0  0  0  0
  -46.8552  -30.8278   -0.9374 C   0  0  0  0  0  0  0  0  0  0  0  0
  -45.6023  -29.4551    2.7361 C   0  0  0  0  0  0  0  0  0  0  0  0
  -45.0132  -29.5768   -0.1847 C   0  0  0  0  0  0  0  0  0  0  0  0
  -44.5464  -29.8161    4.8864 N   0  0  0  0  0  0  0  0  0  0  0  0
  -46.8785  -29.2584    4.7861 N   0  0  0  0  0  0  0  0  0  0  0  0
  -45.8213  -29.6192    6.9099 N   0  0  0  0  0  0  0  0  0  0  0  0
  -44.3850  -30.0658    2.2315 N   0  0  2  0  0  0  0  0  0  0  0  0
  -43.5408  -30.1621    6.9758 N   0  0  0  0  0  0  0  0  0  0  0  0
  -48.0979  -29.0726    6.7805 N   0  0  0  0  0  0  0  0  0  0  0  0
  -41.7021  -28.8016    0.5004 O   0  0  0  0  0  0  0  0  0  0  0  0
  -46.4221  -29.6993   -0.1854 O   0  0  0  0  0  0  0  0  0  0  0  0
  -53.3733  -29.8415    5.2853 F   0  0  0  0  0  0  0  0  0  0  0  0
  -50.1384  -29.5799    8.4216 H   0  0  0  0  0  0  0  0  0  0  0  0
  -49.0522  -29.0023    4.2905 H   0  0  0  0  0  0  0  0  0  0  0  0
  -52.4915  -29.9219    7.7470 H   0  0  0  0  0  0  0  0  0  0  0  0
  -51.4088  -29.3462    3.6290 H   0  0  0  0  0  0  0  0  0  0  0  0
  -42.7219  -30.8698   -0.4818 H   0  0  0  0  0  0  0  0  0  0  0  0
  -42.7358  -31.8534    0.9959 H   0  0  0  0  0  0  0  0  0  0  0  0
  -42.8352  -29.1771    3.3544 H   0  0  0  0  0  0  0  0  0  0  0  0
  -43.4526  -28.1530    2.0434 H   0  0  0  0  0  0  0  0  0  0  0  0
  -41.3571  -30.2541    1.9063 H   0  0  0  0  0  0  0  0  0  0  0  0
  -45.0280  -31.4816    0.8043 H   0  0  0  0  0  0  0  0  0  0  0  0
  -47.9465  -30.8865   -0.9129 H   0  0  0  0  0  0  0  0  0  0  0  0
  -46.5217  -30.7152   -1.9718 H   0  0  0  0  0  0  0  0  0  0  0  0
  -46.4214  -31.7368   -0.5143 H   0  0  0  0  0  0  0  0  0  0  0  0
  -46.4534  -29.9755    2.2846 H   0  0  0  0  0  0  0  0  0  0  0  0
  -45.6290  -28.4194    2.3814 H   0  0  0  0  0  0  0  0  0  0  0  0
  -44.6256  -29.8219   -1.1710 H   0  0  0  0  0  0  0  0  0  0  0  0
  -44.7365  -28.5587    0.0822 H   0  0  0  0  0  0  0  0  0  0  0  0
  -42.6942  -30.3920    6.4978 H   0  0  0  0  0  0  0  0  0  0  0  0
  -43.6195  -30.2501    7.9678 H   0  0  0  0  0  0  0  0  0  0  0  0
  -47.9876  -28.6680    7.7050 H   0  0  0  0  0  0  0  0  0  0  0  0
  -41.2262  -28.1606    1.0528 H   0  0  0  0  0  0  0  0  0  0  0  0
  1  3  2  0  0  0  0
  1  5  1  0  0  0  0
  2  4  1  0  0  0  0
  2  5  2  0  0  0  0
  3  6  1  0  0  0  0
  4  6  2  0  0  0  0
  5 22  1  0  0  0  0
  6 25  1  0  0  0  0
  7 15  1  0  0  0  0
  7 17  1  0  0  0  0
  7 18  2  0  0  0  0
  8 17  2  0  0  0  0
  8 19  1  0  0  0  0
  8 21  1  0  0  0  0
  9 18  1  0  0  0  0
  9 19  2  0  0  0  0
  9 22  1  0  0  0  0
 10 12  1  0  0  0  0
 10 13  1  0  0  0  0
 11 12  1  0  0  0  0
 11 20  1  0  0  0  0
 12 23  1  0  0  0  0
 13 16  1  0  0  0  0
 13 20  1  0  0  0  0
 14 24  1  0  0  0  0
 15 20  1  0  0  0  0
 16 24  1  0  0  0  0
  1 26  1  0  0  0  0
  2 27  1  0  0  0  0
  3 28  1  0  0  0  0
  4 29  1  0  0  0  0
 10 30  1  0  0  0  0
 10 31  1  0  0  0  0
 11 32  1  0  0  0  0
 11 33  1  0  0  0  0
 12 34  1  0  0  0  0
 13 35  1  0  0  0  0
 14 36  1  0  0  0  0
 14 37  1  0  0  0  0
 14 38  1  0  0  0  0
 15 39  1  0  0  0  0
 15 40  1  0  0  0  0
 16 41  1  0  0  0  0
 16 42  1  0  0  0  0
 21 43  1  0  0  0  0
 21 44  1  0  0  0  0
 22 45  1  0  0  0  0
 23 46  1  0  0  0  0
M  END
> <POSIT::Probability>
0.25

> <POSIT::Method>
FRED

> <ReceptorTitle>
UCSF-P4615-REFINED_LIGAND-BOUND-STATE_A__DU__LA1_A-201(A)

> <OMEGA_C>
x6FJwiE27MGO1utAbjJHwjCf6cHLvKFAivJOwkvD7cFpxd9AI4NMwlMs68F7q5VAtsFFwlMk6sFy
0MxAQmNQwig+7cHCsbRAG7k2wkob7MGEgodALsUyws/O7sHNDsdA5n07wtmi6sFtEMRAz+ErwmHn
9sG2lxU/L+EswmF+6cHyDhVA9s4owhhw7sFf268/DsgxwgRu9MGwhFk/wWs7wlKf9sHE+G+/wmg2
wvSj68GOGy9AkQ00wjCd7MHYLT2+jC8ywl2H7sEmXZxAkoM7wj0R6sHKJ5lA+kg3wjb07MGiHd1A
SIoxwtSG8ME40A5AxikuwuhL8cHpOd9APmRAwqqU6ME8+thA+84mwrlp5sHtFwA/SLA5whaY7cH4
0z2+OH5VwlC77sHKIKlAwY1IwqSj7MH7vgZBaDVEwq8E6MHqS4lAVPdRwgZg78GO5/dAlKJNwvfE
6sESQmhAReMqwk719sFEtPa+b/EqwsDT/sG29X4/PVcrwshq6cHkrVZAbM8twm854cHbxwJAp20l
wmMI8sFWAvQ/qhw0wkHa+8Eq5E0/Lsk/woYX98Ectmm/MhY6wr+49cF+Y/y/ja85wuzk/cGAqgO/
TdA5wuHN78EuNhJAEIQ2wgJb48FqaBhAqYAywkmT7sEs5JW/IvIywjV45MFQZ6g95cYqwtEi88Fc
7s9AYHouwjMA8sFI+P5ATPM/wilY5cGTj/ZAo+ckwtRI4cHZwYY/

> <OMEGA_E>
xsMRwQ==

> <OMEGA_NBR>
     19142

$$$$
CACHE3-HO_1705_9
  -OEChem-03092622513D

 42 45  0     1  0  0  0  0  0999 V2000
  -48.2821  -28.8673    4.5724 C   0  0  0  0  0  0  0  0  0  0  0  0
  -49.0474  -28.8141    5.7111 C   0  0  0  0  0  0  0  0  0  0  0  0
  -46.9035  -29.1511    4.9915 C   0  0  0  0  0  0  0  0  0  0  0  0
  -46.9157  -29.2492    6.3862 C   0  0  0  0  0  0  0  0  0  0  0  0
  -45.6740  -29.3358    4.3250 C   0  0  0  0  0  0  0  0  0  0  0  0
  -44.6209  -29.6650    6.3875 C   0  0  0  0  0  0  0  0  0  0  0  0
  -45.8401  -31.5202   -1.1506 C   0  0  0  0  0  0  0  0  0  0  0  0
  -44.5404  -32.0838   -0.5130 C   0  0  0  0  0  0  0  0  0  0  0  0
  -46.7168  -30.7818   -0.1227 C   0  0  0  0  0  0  0  0  0  0  0  0
  -44.2217  -31.4679    0.8705 C   0  0  0  0  0  0  0  0  0  0  0  0
  -46.6116  -29.2830    1.9342 C   0  0  0  0  0  0  0  0  0  0  0  0
  -44.2307  -29.3804    2.2834 C   0  0  0  0  0  0  0  0  0  0  0  0
  -45.9625  -29.6116    0.5781 C   0  0  1  0  0  0  0  0  0  0  0  0
  -44.4633  -29.9311    0.8820 C   0  0  2  0  0  0  0  0  0  0  0  0
  -43.4699  -29.1985   -0.0729 C   0  0  0  0  0  0  0  0  0  0  0  0
  -45.7816  -29.5131    7.0711 N   0  0  0  0  0  0  0  0  0  0  0  0
  -44.5566  -29.5573    5.0485 N   0  0  0  0  0  0  0  0  0  0  0  0
  -48.2208  -29.0489    6.8067 N   0  0  0  0  0  0  0  0  0  0  0  0
  -45.5429  -29.4027    2.9463 N   0  0  3  0  0  0  0  0  0  0  0  0
  -43.4515  -29.9651    7.0657 N   0  0  0  0  0  0  0  0  0  0  0  0
  -43.9154  -29.1662   -1.4202 O   0  0  0  0  0  0  0  0  0  0  0  0
  -48.6287  -28.7269    3.5592 H   0  0  0  0  0  0  0  0  0  0  0  0
  -50.1096  -28.6227    5.7503 H   0  0  0  0  0  0  0  0  0  0  0  0
  -45.5663  -30.8186   -1.9524 H   0  0  0  0  0  0  0  0  0  0  0  0
  -46.4176  -32.3547   -1.5750 H   0  0  0  0  0  0  0  0  0  0  0  0
  -44.6531  -33.1715   -0.3937 H   0  0  0  0  0  0  0  0  0  0  0  0
  -43.6996  -31.8745   -1.1907 H   0  0  0  0  0  0  0  0  0  0  0  0
  -47.5977  -30.3735   -0.6398 H   0  0  0  0  0  0  0  0  0  0  0  0
  -47.0420  -31.5005    0.6439 H   0  0  0  0  0  0  0  0  0  0  0  0
  -44.8678  -31.9366    1.6274 H   0  0  0  0  0  0  0  0  0  0  0  0
  -43.1676  -31.6655    1.1151 H   0  0  0  0  0  0  0  0  0  0  0  0
  -47.0146  -28.2595    1.9254 H   0  0  0  0  0  0  0  0  0  0  0  0
  -47.4222  -29.9944    2.1507 H   0  0  0  0  0  0  0  0  0  0  0  0
  -43.5151  -30.0128    2.8294 H   0  0  0  0  0  0  0  0  0  0  0  0
  -43.8453  -28.3514    2.2315 H   0  0  0  0  0  0  0  0  0  0  0  0
  -46.0104  -28.7223   -0.0675 H   0  0  0  0  0  0  0  0  0  0  0  0
  -43.3441  -28.1640    0.2793 H   0  0  0  0  0  0  0  0  0  0  0  0
  -42.5013  -29.7185   -0.0366 H   0  0  0  0  0  0  0  0  0  0  0  0
  -48.5249  -29.0699    7.7591 H   0  0  0  0  0  0  0  0  0  0  0  0
  -43.6417  -30.0336    8.0450 H   0  0  0  0  0  0  0  0  0  0  0  0
  -43.0887  -30.8363    6.7350 H   0  0  0  0  0  0  0  0  0  0  0  0
  -43.2757  -28.7107   -1.9548 H   0  0  0  0  0  0  0  0  0  0  0  0
  1  2  2  0  0  0  0
  1  3  1  0  0  0  0
  2 18  1  0  0  0  0
  3  4  1  0  0  0  0
  3  5  2  0  0  0  0
  4 16  2  0  0  0  0
  4 18  1  0  0  0  0
  5 17  1  0  0  0  0
  5 19  1  0  0  0  0
  6 16  1  0  0  0  0
  6 17  2  0  0  0  0
  6 20  1  0  0  0  0
  7  8  1  0  0  0  0
  7  9  1  0  0  0  0
  8 10  1  0  0  0  0
  9 13  1  0  0  0  0
 10 14  1  0  0  0  0
 11 13  1  0  0  0  0
 11 19  1  0  0  0  0
 12 14  1  0  0  0  0
 12 19  1  0  0  0  0
 13 14  1  0  0  0  0
 14 15  1  0  0  0  0
 15 21  1  0  0  0  0
  1 22  1  0  0  0  0
  2 23  1  0  0  0  0
  7 24  1  0  0  0  0
  7 25  1  0  0  0  0
  8 26  1  0  0  0  0
  8 27  1  0  0  0  0
  9 28  1  0  0  0  0
  9 29  1  0  0  0  0
 10 30  1  0  0  0  0
 10 31  1  0  0  0  0
 11 32  1  0  0  0  0
 11 33  1  0  0  0  0
 12 34  1  0  0  0  0
 12 35  1  0  0  0  0
 13 36  1  0  0  0  0
 15 37  1  0  0  0  0
 15 38  1  0  0  0  0
 18 39  1  0  0  0  0
 20 40  1  0  0  0  0
 20 41  1  0  0  0  0
 21 42  1  0  0  0  0
M  END
> <POSIT::Probability>
0.85

> <POSIT::Method>
SHAPEFIT

> <ReceptorTitle>
UCSF-P4615-REFINED_LIGAND-BOUND-STATE_A__DU__LA1_A-201(A)

> <OMEGA_C>
4iBBwkLw5sHoUJJAgDBEwk2D5sE2wbZAMZ07wlw16cF+up9AtKk7wl7+6cGqW8xAN7I2wq6v6sFY
ZopAynsywtdR7cFSZsxAOFw3wl8p/MGsR5O/XSkywtpVAMLUVgO/AN46whlB9sGoXPu9BOMwwk6+
+8Gk2F4/T3I6wqND6sFClfc/MOwwwiML68HqIxJApdk3wqjk7MEc/RM/Ytoxwtpy78HOzGE/MOEt
wnaW6cEASZW9ZiA3wtAa7MHWRuJA7jkywkZ17MFEjaFAEeJAwidk6MG60NlA4Ss2wr8468HVjzxA
Sc4twoW478EuGuJAVakvwlZU6cGsx7W/0oNCwsHQ5cHAyWNALnBIwmH75MGBArhA70M2wm+M9sE9
5/m/qas5wiprAcJ1mcm/wZwywqOvBMI2jsm+YMwuwv3+/sHiaJi/DWQ+wvf88sFIxyO//Co8whEB
/MFz1CQ/nngzwjJ+/8ETTtA/nKsswv9S/cEcuo4/+w48wo0T4sFkcvY/YLA9wo7078GCpAlAcg8u
wjAa8MFGFTVAnmEvwsPP4sFV0A5Asgo4wkDH5cGDMYq9V2AtwtpP4cFL/Y4+UQEqwoe/7cG0EBa9
exlCwjaP6MHQSvhAG5EuwrhE8MF9uABB11oswtaw9sFNhddAThotwo6v5cHIN/q/

> <OMEGA_E>
BEAPPw==

> <OMEGA_NBR>
     20515

$$$$
CACHE3HI_1687_36
  -OEChem-03092622513D

 26 28  0     0  0  0  0  0  0999 V2000
  -43.5229  -30.4694    3.3528 C   0  0  0  0  0  0  0  0  0  0  0  0
  -42.1613  -30.0518    3.3706 C   0  0  0  0  0  0  0  0  0  0  0  0
  -47.9298  -29.3754    3.0055 C   0  0  0  0  0  0  0  0  0  0  0  0
  -47.4649  -29.3220    5.0852 C   0  0  0  0  0  0  0  0  0  0  0  0
  -44.2236  -29.7566    2.4038 C   0  0  0  0  0  0  0  0  0  0  0  0
  -46.2673  -29.5697    4.4340 C   0  0  0  0  0  0  0  0  0  0  0  0
  -47.4213  -29.2406    6.4736 C   0  0  0  0  0  0  0  0  0  0  0  0
  -45.1432  -29.6414    6.3379 C   0  0  0  0  0  0  0  0  0  0  0  0
  -45.6767  -29.8277    2.0052 C   0  0  0  0  0  0  0  0  0  0  0  0
  -41.8061  -29.0958    2.5161 N   0  0  0  0  0  0  0  0  0  0  0  0
  -48.4925  -29.2030    4.1839 N   0  0  0  0  0  0  0  0  0  0  0  0
  -45.0602  -29.7415    4.9932 N   0  0  0  0  0  0  0  0  0  0  0  0
  -46.2340  -29.4047    7.1054 N   0  0  0  0  0  0  0  0  0  0  0  0
  -46.5826  -29.6003    3.1051 N   0  0  0  0  0  0  0  0  0  0  0  0
  -48.5884  -28.9916    7.2159 N   0  0  0  0  0  0  0  0  0  0  0  0
  -43.9273  -29.8060    7.0400 N   0  0  0  0  0  0  0  0  0  0  0  0
  -43.1505  -28.6610    1.6411 S   0  0  0  0  0  0  0  0  0  0  0  0
  -43.9520  -31.2332    3.9877 H   0  0  0  0  0  0  0  0  0  0  0  0
  -41.3911  -30.4457    4.0198 H   0  0  0  0  0  0  0  0  0  0  0  0
  -48.4422  -29.3484    2.0535 H   0  0  0  0  0  0  0  0  0  0  0  0
  -45.8768  -29.1021    1.2054 H   0  0  0  0  0  0  0  0  0  0  0  0
  -45.8875  -30.8040    1.5485 H   0  0  0  0  0  0  0  0  0  0  0  0
  -49.4504  -28.8193    6.7346 H   0  0  0  0  0  0  0  0  0  0  0  0
  -48.5259  -28.8843    8.2104 H   0  0  0  0  0  0  0  0  0  0  0  0
  -43.1009  -30.0353    6.5293 H   0  0  0  0  0  0  0  0  0  0  0  0
  -43.9392  -29.7947    8.0381 H   0  0  0  0  0  0  0  0  0  0  0  0
  1  2  1  0  0  0  0
  1  5  2  0  0  0  0
  2 10  2  0  0  0  0
  3 11  2  0  0  0  0
  3 14  1  0  0  0  0
  4  6  1  0  0  0  0
  4  7  2  0  0  0  0
  4 11  1  0  0  0  0
  5  9  1  0  0  0  0
  5 17  1  0  0  0  0
  6 12  2  0  0  0  0
  6 14  1  0  0  0  0
  7 13  1  0  0  0  0
  7 15  1  0  0  0  0
  8 12  1  0  0  0  0
  8 13  2  0  0  0  0
  8 16  1  0  0  0  0
  9 14  1  0  0  0  0
 10 17  1  0  0  0  0
  1 18  1  0  0  0  0
  2 19  1  0  0  0  0
  3 20  1  0  0  0  0
  9 21  1  0  0  0  0
  9 22  1  0  0  0  0
 15 23  1  0  0  0  0
 15 24  1  0  0  0  0
 16 25  1  0  0  0  0
 16 26  1  0  0  0  0
M  END
> <POSIT::Probability>
0.25

> <POSIT::Method>
FRED

> <ReceptorTitle>
UCSF-P4615-REFINED_LIGAND-BOUND-STATE_A__DU__LA1_A-201(A)

> <OMEGA_C>
cBcuwlDB88EOlVZAKaUowitq8MFcuFdAIbg/wtsA68EWWkBAGdw9wnqT6sE+uqJA7eQwwo8N7sF6
2BlAvxE5wr6O7MFJ441AZK89wrLs6cECKM9AoJI0wpgh7cHyz8pA/bQ2wjif7sHaVQBAdzknwirE
6MH/BiFAUvhBwrSf6cG24oVAoj00wqbu7cHkx59Amu84wsA868EyX+NAilQ6wmDN7MHquUZAiFpC
ws7u58H36OZAj7UvwsBy7sGoR+FAGposwrdJ5cGgENI/284vwpDd+cEdNn9AgZAlwtaQ88HmoYBA
1cRBwpvJ6sEgbANA0YE3wjLR6MEESpo/0Iw3wq5u9sGeNcY/Oc1FwgWO5sGcgddAixpCwv0S58Hp
XQNBSWcswmBI8MEN8NBAv8Evwntb7sHbmwBB

> <OMEGA_E>
w5wQwQ==

> <OMEGA_NBR>
     21522

$$$$
CACHE3HI_1687_39
  -OEChem-03092622513D

 29 31  0     0  0  0  0  0  0999 V2000
  -42.6915  -31.0607    2.4536 C   0  0  0  0  0  0  0  0  0  0  0  0
  -47.2021  -29.3063    2.9632 C   0  0  0  0  0  0  0  0  0  0  0  0
  -46.6337  -29.2170    5.0158 C   0  0  0  0  0  0  0  0  0  0  0  0
  -41.4772  -30.3949    2.6923 C   0  0  0  0  0  0  0  0  0  0  0  0
  -43.5782  -30.0449    2.2116 C   0  0  0  0  0  0  0  0  0  0  0  0
  -45.4960  -29.5968    4.3222 C   0  0  0  0  0  0  0  0  0  0  0  0
  -46.5155  -29.0876    6.3961 C   0  0  0  0  0  0  0  0  0  0  0  0
  -44.2914  -29.6984    6.1748 C   0  0  0  0  0  0  0  0  0  0  0  0
  -40.1683  -30.9899    3.0065 C   0  0  0  0  0  0  0  0  0  0  0  0
  -45.0496  -29.9987    1.8822 C   0  0  0  0  0  0  0  0  0  0  0  0
  -47.6893  -29.0392    4.1575 N   0  0  0  0  0  0  0  0  0  0  0  0
  -41.6007  -29.0678    2.6050 N   0  0  0  0  0  0  0  0  0  0  0  0
  -44.2831  -29.8563    4.8331 N   0  0  0  0  0  0  0  0  0  0  0  0
  -45.3182  -29.3349    6.9801 N   0  0  0  0  0  0  0  0  0  0  0  0
  -45.8770  -29.6487    3.0113 N   0  0  0  0  0  0  0  0  0  0  0  0
  -47.6184  -28.7059    7.1792 N   0  0  0  0  0  0  0  0  0  0  0  0
  -43.0622  -29.9462    6.8277 N   0  0  0  0  0  0  0  0  0  0  0  0
  -42.9385  -28.8499    2.2987 O   0  0  0  0  0  0  0  0  0  0  0  0
  -42.8945  -32.1216    2.4552 H   0  0  0  0  0  0  0  0  0  0  0  0
  -47.7558  -29.2688    2.0349 H   0  0  0  0  0  0  0  0  0  0  0  0
  -39.5761  -31.2025    2.0979 H   0  0  0  0  0  0  0  0  0  0  0  0
  -40.2643  -31.9554    3.5361 H   0  0  0  0  0  0  0  0  0  0  0  0
  -39.5658  -30.3206    3.6451 H   0  0  0  0  0  0  0  0  0  0  0  0
  -45.2230  -29.2886    1.0625 H   0  0  0  0  0  0  0  0  0  0  0  0
  -45.3683  -30.9684    1.4768 H   0  0  0  0  0  0  0  0  0  0  0  0
  -48.4840  -28.4743    6.7304 H   0  0  0  0  0  0  0  0  0  0  0  0
  -47.4982  -28.5673    8.1645 H   0  0  0  0  0  0  0  0  0  0  0  0
  -42.2853  -30.2687    6.2903 H   0  0  0  0  0  0  0  0  0  0  0  0
  -43.0245  -29.8962    7.8239 H   0  0  0  0  0  0  0  0  0  0  0  0
  1  4  1  0  0  0  0
  1  5  2  0  0  0  0
  2 11  2  0  0  0  0
  2 15  1  0  0  0  0
  3  6  1  0  0  0  0
  3  7  2  0  0  0  0
  3 11  1  0  0  0  0
  4  9  1  0  0  0  0
  4 12  2  0  0  0  0
  5 10  1  0  0  0  0
  5 18  1  0  0  0  0
  6 13  2  0  0  0  0
  6 15  1  0  0  0  0
  7 14  1  0  0  0  0
  7 16  1  0  0  0  0
  8 13  1  0  0  0  0
  8 14  2  0  0  0  0
  8 17  1  0  0  0  0
 10 15  1  0  0  0  0
 12 18  1  0  0  0  0
  1 19  1  0  0  0  0
  2 20  1  0  0  0  0
  9 21  1  0  0  0  0
  9 22  1  0  0  0  0
  9 23  1  0  0  0  0
 10 24  1  0  0  0  0
 10 25  1  0  0  0  0
 16 26  1  0  0  0  0
 16 27  1  0  0  0  0
 17 28  1  0  0  0  0
 17 29  1  0  0  0  0
M  END
> <POSIT::Probability>
0.25

> <POSIT::Method>
FRED

> <ReceptorTitle>
UCSF-P4615-REFINED_LIGAND-BOUND-STATE_A__DU__LA1_A-201(A)

> <OMEGA_C>
HcQqwkR8+MFoCB1A/848wlpz6sFnpD1A74g6wmq86cEigaBAp+glwsIo88HdTixAClAuwuhb8MGC
ig1A5/s1wjXG7MErT4pA3g86wmOz6MFBrcxAYioxwmyW7cHVl8VAXKwgwlrr98EdakBAxTI0wmj9
78FS7PA/z8E+wlBQ6MEbCoVAKGcmwtaK6MEluCZA8SExwrbZ7sFmqJpAzkU1wtit6sGcXN9ACII3
wnsw7cG5uEBAMXk+wqWl5cEavOVAvT8swtuR78FEfNpA/sArwqTM5sF8HhNA+ZMrwol8AMKlIh1A
+gU/wpAm6sHZOwJA5k0ewqSe+cGZQwZArQ4hwp2k/8GJT2JAYEMewqSQ8sEQSWlAUeQ0wiBP6sEs
/4c/I3k1wj+/98G6Br0/ou9Bwm7L48FXX9dANf49wr+J5MHMoQJBJyQpwkwm8sEySslAGhkswnIr
78FPXfpA

> <OMEGA_E>
iaQQwQ==

> <OMEGA_NBR>
     22589

$$$$
CACHE3HI_1689_3
  -OEChem-03092622513D

 40 43  0     0  0  0  0  0  0999 V2000
  -41.9217  -30.7029    2.4680 C   0  0  0  0  0  0  0  0  0  0  0  0
  -42.7477  -30.3936    3.5657 C   0  0  0  0  0  0  0  0  0  0  0  0
  -44.5271  -29.2307    2.2362 C   0  0  0  0  0  0  0  0  0  0  0  0
  -45.9315  -28.7887    4.7307 C   0  0  0  0  0  0  0  0  0  0  0  0
  -42.4761  -30.2376    1.2828 C   0  0  0  0  0  0  0  0  0  0  0  0
  -43.9900  -29.6923    3.4591 C   0  0  0  0  0  0  0  0  0  0  0  0
  -43.7218  -29.5268    1.1208 C   0  0  0  0  0  0  0  0  0  0  0  0
  -44.7283  -29.4441    4.6557 C   0  0  0  0  0  0  0  0  0  0  0  0
  -41.9280  -30.3735    0.0396 C   0  0  0  0  0  0  0  0  0  0  0  0
  -50.8153  -30.1206    4.4575 C   0  0  0  0  0  0  0  0  0  0  0  0
  -50.0001  -29.9913    5.7579 C   0  0  0  0  0  0  0  0  0  0  0  0
  -50.1778  -28.7985    3.9909 C   0  0  0  0  0  0  0  0  0  0  0  0
  -49.0120  -29.0790    4.9789 C   0  0  0  0  0  0  0  0  0  0  0  0
  -48.5243  -27.8586    5.7424 C   0  0  0  0  0  0  0  0  0  0  0  0
  -47.4348  -28.2314    6.7466 C   0  0  0  0  0  0  0  0  0  0  0  0
  -43.9040  -29.2507   -0.1831 N   0  0  0  0  0  0  0  0  0  0  0  0
  -44.3357  -29.8300    5.9071 N   0  0  0  0  0  0  0  0  0  0  0  0
  -45.2663  -29.4312    6.7673 N   0  0  0  0  0  0  0  0  0  0  0  0
  -42.8209  -29.7676   -0.7959 N   0  0  0  0  0  0  0  0  0  0  0  0
  -46.2224  -28.8071    6.0603 N   0  0  0  0  0  0  0  0  0  0  0  0
  -40.8021  -30.9307   -0.4464 N   0  0  0  0  0  0  0  0  0  0  0  0
  -47.8793  -29.7610    4.3949 O   0  0  0  0  0  0  0  0  0  0  0  0
  -40.9857  -31.2346    2.5665 H   0  0  0  0  0  0  0  0  0  0  0  0
  -42.4079  -30.7142    4.5521 H   0  0  0  0  0  0  0  0  0  0  0  0
  -45.4682  -28.7006    2.1596 H   0  0  0  0  0  0  0  0  0  0  0  0
  -46.5778  -28.3325    3.9935 H   0  0  0  0  0  0  0  0  0  0  0  0
  -50.5911  -30.9955    3.8442 H   0  0  0  0  0  0  0  0  0  0  0  0
  -51.8977  -30.0582    4.6080 H   0  0  0  0  0  0  0  0  0  0  0  0
  -50.5307  -29.5314    6.5934 H   0  0  0  0  0  0  0  0  0  0  0  0
  -49.5599  -30.9349    6.0943 H   0  0  0  0  0  0  0  0  0  0  0  0
  -49.8772  -28.8042    2.9387 H   0  0  0  0  0  0  0  0  0  0  0  0
  -50.7723  -27.9037    4.1837 H   0  0  0  0  0  0  0  0  0  0  0  0
  -48.1458  -27.1198    5.0275 H   0  0  0  0  0  0  0  0  0  0  0  0
  -49.3750  -27.3978    6.2575 H   0  0  0  0  0  0  0  0  0  0  0  0
  -47.8213  -28.9576    7.4730 H   0  0  0  0  0  0  0  0  0  0  0  0
  -47.1393  -27.3505    7.3301 H   0  0  0  0  0  0  0  0  0  0  0  0
  -42.7530  -29.6692   -1.8008 H   0  0  0  0  0  0  0  0  0  0  0  0
  -40.0851  -31.3483    0.1675 H   0  0  0  0  0  0  0  0  0  0  0  0
  -40.5471  -30.8759   -1.4451 H   0  0  0  0  0  0  0  0  0  0  0  0
  -47.4121  -30.1657    5.1355 H   0  0  0  0  0  0  0  0  0  0  0  0
  1  2  2  0  0  0  0
  1  5  1  0  0  0  0
  2  6  1  0  0  0  0
  3  6  2  0  0  0  0
  3  7  1  0  0  0  0
  4  8  2  0  0  0  0
  4 20  1  0  0  0  0
  5  7  1  0  0  0  0
  5  9  2  0  0  0  0
  6  8  1  0  0  0  0
  7 16  2  0  0  0  0
  8 17  1  0  0  0  0
  9 19  1  0  0  0  0
  9 21  1  0  0  0  0
 10 11  1  0  0  0  0
 10 12  1  0  0  0  0
 11 13  1  0  0  0  0
 12 13  1  0  0  0  0
 13 14  1  0  0  0  0
 13 22  1  0  0  0  0
 14 15  1  0  0  0  0
 15 20  1  0  0  0  0
 16 19  1  0  0  0  0
 17 18  2  0  0  0  0
 18 20  1  0  0  0  0
  1 23  1  0  0  0  0
  2 24  1  0  0  0  0
  3 25  1  0  0  0  0
  4 26  1  0  0  0  0
 10 27  1  0  0  0  0
 10 28  1  0  0  0  0
 11 29  1  0  0  0  0
 11 30  1  0  0  0  0
 12 31  1  0  0  0  0
 12 32  1  0  0  0  0
 14 33  1  0  0  0  0
 14 34  1  0  0  0  0
 15 35  1  0  0  0  0
 15 36  1  0  0  0  0
 19 37  1  0  0  0  0
 21 38  1  0  0  0  0
 21 39  1  0  0  0  0
 22 40  1  0  0  0  0
M  END
> <POSIT::Probability>
0.18

> <POSIT::Method>
FRED

> <ReceptorTitle>
UCSF-P4615-REFINED_LIGAND-BOUND-STATE_A__DU__LA1_A-201(A)

> <OMEGA_C>
3a8nwoKf9cGP8x1Aqf0qwiAm88H4NGRAtxsywoDY6cE5HQ9A5bk3wjZP5sH5YZdAgOcpwo/m8cEk
NKQ/xPUvwsSJ7cFmYV1AIOMuwuI27MF0do8/xekywoyN68Fe+5RAQbYnwub88sGANCI930JLwuX2
8MHoo45AFwBIwjzu78GuQLhAF7ZIwlpj5sHMan9ASwxEwsCh6ME1U59A7RhCwlve3sG6wbdAO709
wvXZ4cGE5NdAp50vwmYB6sG4dDu+uFcxwsKj7sFSB71AvRA1wi1z68FujdhAm0grwgQk7sEGwku/
teM4wvh05sEP7sFAWjUjwily98EUkOS+YoQ/wpkW7sFZo4xAWPEjwnLg+cHVQCRAqaEpwpy29cF/
qpFAfN81wuqa5cEZNgpAsk86wv2o4sEPln9AVl1KwsL298EjCHZAP5dPwj138MEQdZNAbR9KwlNA
7MFq/dJASz1Gwr9698EyBMNARIJHwgZv5sFjEzxA2xZLwsQ638E74YVARpVAwkb12MGd4aBADIBF
wsIu28F/PchA/Eg/wjip58HoIu9Ao448wtnN2sE3kOpAHAMrwoxa7cEdgOa/IVcgwk7J+sFQhys+
NzAiwuYB98Gp+Li//qU9wk5T8cFmVqRA

> <OMEGA_E>
3hIJwQ==

> <OMEGA_NBR>
     23882

$$$$
CACHE3HI_1689_31
  -OEChem-03092622513D

 45 47  0     0  0  0  0  0  0999 V2000
  -44.0225  -31.0869   -0.3573 C   0  0  0  0  0  0  0  0  0  0  0  0
  -44.5661  -30.9046   -1.6289 C   0  0  0  0  0  0  0  0  0  0  0  0
  -44.8223  -31.5652    0.6805 C   0  0  0  0  0  0  0  0  0  0  0  0
  -45.9091  -31.2008   -1.8628 C   0  0  0  0  0  0  0  0  0  0  0  0
  -46.1653  -31.8614    0.4465 C   0  0  0  0  0  0  0  0  0  0  0  0
  -47.4671  -29.1369    5.1445 C   0  0  0  0  0  0  0  0  0  0  0  0
  -46.7089  -31.6792   -0.8250 C   0  0  0  0  0  0  0  0  0  0  0  0
  -46.3370  -29.4884    4.4153 C   0  0  0  0  0  0  0  0  0  0  0  0
  -47.3038  -29.1009    6.5190 C   0  0  0  0  0  0  0  0  0  0  0  0
  -45.1281  -29.7259    6.3390 C   0  0  0  0  0  0  0  0  0  0  0  0
  -49.9449  -29.1270    2.2791 C   0  0  0  0  0  0  0  0  0  0  0  0
  -48.7785  -28.7989    4.5016 C   0  0  0  0  0  0  0  0  0  0  0  0
  -46.4103  -29.5797    2.9171 C   0  0  0  0  0  0  0  0  0  0  0  0
  -47.5136  -28.6902    2.3559 C   0  0  0  0  0  0  0  0  0  0  0  0
  -48.1619  -31.9997   -1.0776 C   0  0  0  0  0  0  0  0  0  0  0  0
  -49.7554  -29.2417    0.7859 C   0  0  0  0  0  0  0  0  0  0  0  0
  -49.0715  -30.8001   -0.8352 C   0  0  0  0  0  0  0  0  0  0  0  0
  -45.1537  -29.7972    4.9938 N   0  0  0  0  0  0  0  0  0  0  0  0
  -46.1471  -29.3905    7.1493 N   0  0  0  0  0  0  0  0  0  0  0  0
  -48.7858  -28.9376    3.0374 N   0  0  0  0  0  0  0  0  0  0  0  0
  -48.4104  -28.7378    7.3265 N   0  0  0  0  0  0  0  0  0  0  0  0
  -43.9012  -30.0387    6.9637 N   0  0  0  0  0  0  0  0  0  0  0  0
  -51.0818  -29.1981    2.7527 O   0  0  0  0  0  0  0  0  0  0  0  0
  -48.9314  -30.3537    0.5110 O   0  0  0  0  0  0  0  0  0  0  0  0
  -42.9770  -30.8563   -0.1751 H   0  0  0  0  0  0  0  0  0  0  0  0
  -43.9433  -30.5326   -2.4371 H   0  0  0  0  0  0  0  0  0  0  0  0
  -44.3993  -31.7070    1.6707 H   0  0  0  0  0  0  0  0  0  0  0  0
  -46.3237  -31.0555   -2.8569 H   0  0  0  0  0  0  0  0  0  0  0  0
  -46.7803  -32.2346    1.2612 H   0  0  0  0  0  0  0  0  0  0  0  0
  -49.5595  -29.4388    4.9229 H   0  0  0  0  0  0  0  0  0  0  0  0
  -49.0324  -27.7529    4.7110 H   0  0  0  0  0  0  0  0  0  0  0  0
  -45.4491  -29.2846    2.4814 H   0  0  0  0  0  0  0  0  0  0  0  0
  -46.5946  -30.6244    2.6400 H   0  0  0  0  0  0  0  0  0  0  0  0
  -47.2719  -27.6303    2.5063 H   0  0  0  0  0  0  0  0  0  0  0  0
  -47.6077  -28.8521    1.2772 H   0  0  0  0  0  0  0  0  0  0  0  0
  -48.2801  -32.3598   -2.1074 H   0  0  0  0  0  0  0  0  0  0  0  0
  -48.4587  -32.8264   -0.4204 H   0  0  0  0  0  0  0  0  0  0  0  0
  -49.2968  -28.3341    0.4048 H   0  0  0  0  0  0  0  0  0  0  0  0
  -50.7239  -29.3831    0.3154 H   0  0  0  0  0  0  0  0  0  0  0  0
  -50.1236  -31.0402   -1.0205 H   0  0  0  0  0  0  0  0  0  0  0  0
  -48.7786  -29.9754   -1.4934 H   0  0  0  0  0  0  0  0  0  0  0  0
  -49.2605  -28.4669    6.8827 H   0  0  0  0  0  0  0  0  0  0  0  0
  -48.2815  -28.6596    8.3115 H   0  0  0  0  0  0  0  0  0  0  0  0
  -43.1343  -30.3455    6.4017 H   0  0  0  0  0  0  0  0  0  0  0  0
  -43.8529  -30.0499    7.9615 H   0  0  0  0  0  0  0  0  0  0  0  0
  1  2  1  0  0  0  0
  1  3  2  0  0  0  0
  2  4  2  0  0  0  0
  3  5  1  0  0  0  0
  4  7  1  0  0  0  0
  5  7  2  0  0  0  0
  6  8  1  0  0  0  0
  6  9  2  0  0  0  0
  6 12  1  0  0  0  0
  7 15  1  0  0  0  0
  8 13  1  0  0  0  0
  8 18  2  0  0  0  0
  9 19  1  0  0  0  0
  9 21  1  0  0  0  0
 10 18  1  0  0  0  0
 10 19  2  0  0  0  0
 10 22  1  0  0  0  0
 11 16  1  0  0  0  0
 11 20  1  0  0  0  0
 11 23  2  0  0  0  0
 12 20  1  0  0  0  0
 13 14  1  0  0  0  0
 14 20  1  0  0  0  0
 15 17  1  0  0  0  0
 16 24  1  0  0  0  0
 17 24  1  0  0  0  0
  1 25  1  0  0  0  0
  2 26  1  0  0  0  0
  3 27  1  0  0  0  0
  4 28  1  0  0  0  0
  5 29  1  0  0  0  0
 12 30  1  0  0  0  0
 12 31  1  0  0  0  0
 13 32  1  0  0  0  0
 13 33  1  0  0  0  0
 14 34  1  0  0  0  0
 14 35  1  0  0  0  0
 15 36  1  0  0  0  0
 15 37  1  0  0  0  0
 16 38  1  0  0  0  0
 16 39  1  0  0  0  0
 17 40  1  0  0  0  0
 17 41  1  0  0  0  0
 21 42  1  0  0  0  0
 21 43  1  0  0  0  0
 22 44  1  0  0  0  0
 22 45  1  0  0  0  0
M  END
> <POSIT::Probability>
0.33

> <POSIT::Method>
HYBRID

> <ReceptorTitle>
UCSF-P4615-REFINED_LIGAND-BOUND-STATE_A__DU__LA1_A-201(A)

> <OMEGA_C>
Chcwwvqx+MFA7ra+sEMywrY898GMf9C/D0ozwouF/MFgMy4/4aI3wlWb+cHgcO6/Qqk4wirk/sGA
oeQ+T949wlwY6cGXn6RA6tU6wvBu/cGAM1O/DVk5wkLo68E1So1AHTc9wpjO6MHem9BALIM0wq7O
7cE52cpAisdHwhAE6cFu3RFAJx1Dwj1k5sFXDZBAJaQ5wjGj7MF3sTpA7g0+wnaF5cHkxhZAy6VA
wlz//8Fk8Im/kAVHwu3u6cGoMkk/NklEwoxm9sHQz1W/bp00wrJg7sHbzJ9AnZY4wskf68Fqx+RA
nSRDwi6A58EDZEJAOqRBwurm5cFscupA1JovwkdP8MHI1t5AwlNMwryV6cHqLDBAt7lDwmbU8sHw
0AI/d+grwq7Z9sFATDO++cUvwsBC9MFA+hvA65gxwuqn/cEA2NU/hUs5wrtx+MH01jbA/h47wjHw
AMLsbqE/9zxGwpCC68HDiJ1ALyFEwtoF3sFTwJZA1ss1wuxG6sHszx5A1WA6wr3+9MGd9ShAZhY9
ws8K3cH2ZiBAUm4+wizR5sHQe6M/0R5BwndwAcIw4AbAwNVBwj9OA8JAQNe+4y9FwlOs4sFwRc8+
QOVKwqgQ68HQfKE+m35IwmVS+MEsnoK/VR1DwobN78GIJr+/yQpFwkG848EyP9xASCBBwuBG5cH0
+wRBk4kswqbD8sFV2sxAZGkvwh5m8MEDxf5A

> <OMEGA_E>
VIAGwQ==

> <OMEGA_NBR>
     25275

$$$$
CACHE3HI_1690_72
  -OEChem-03092622513D

 43 46  0     1  0  0  0  0  0999 V2000
  -50.8567  -29.3697    3.8572 C   0  0  0  0  0  0  0  0  0  0  0  0
  -50.9227  -29.4002    5.2502 C   0  0  0  0  0  0  0  0  0  0  0  0
  -49.6256  -29.2101    3.2213 C   0  0  0  0  0  0  0  0  0  0  0  0
  -49.7580  -29.2713    6.0071 C   0  0  0  0  0  0  0  0  0  0  0  0
  -48.4609  -29.0812    3.9782 C   0  0  0  0  0  0  0  0  0  0  0  0
  -45.5799  -29.3302    4.5702 C   0  0  0  0  0  0  0  0  0  0  0  0
  -43.9518  -29.9987    6.5982 C   0  0  0  0  0  0  0  0  0  0  0  0
  -48.5269  -29.1116    5.3711 C   0  0  0  0  0  0  0  0  0  0  0  0
  -44.2620  -29.6855    4.3679 C   0  0  0  0  0  0  0  0  0  0  0  0
  -46.0069  -29.3405    5.8822 C   0  0  0  0  0  0  0  0  0  0  0  0
  -44.5232  -31.3729   -0.7497 C   0  0  0  0  0  0  0  0  0  0  0  0
  -43.0575  -31.2986   -0.2773 C   0  0  0  0  0  0  0  0  0  0  0  0
  -44.7269  -29.9632   -0.1577 C   0  0  0  0  0  0  0  0  0  0  0  0
  -43.1894  -28.5309    2.4132 C   0  0  0  0  0  0  0  0  0  0  0  0
  -43.9245  -30.8258    2.1585 C   0  0  0  0  0  0  0  0  0  0  0  0
  -42.5497  -29.1199    1.1478 C   0  0  1  0  0  0  0  0  0  0  0  0
  -43.5101  -30.2552    0.7856 C   0  0  0  0  0  0  0  0  0  0  0  0
  -43.4167  -30.0267    5.3626 N   0  0  0  0  0  0  0  0  0  0  0  0
  -45.2169  -29.6712    6.9250 N   0  0  0  0  0  0  0  0  0  0  0  0
  -43.7967  -29.6873    3.0699 N   0  0  3  0  0  0  0  0  0  0  0  0
  -42.3749  -28.1167    0.1098 N   0  0  0  0  0  0  0  0  0  0  0  0
  -47.3540  -28.9814    6.1329 N   0  0  0  0  0  0  0  0  0  0  0  0
  -51.7636  -29.4691    3.2681 H   0  0  0  0  0  0  0  0  0  0  0  0
  -51.8813  -29.5248    5.7455 H   0  0  0  0  0  0  0  0  0  0  0  0
  -49.5742  -29.1864    2.1366 H   0  0  0  0  0  0  0  0  0  0  0  0
  -49.8217  -29.2955    7.0919 H   0  0  0  0  0  0  0  0  0  0  0  0
  -47.5065  -28.9576    3.4725 H   0  0  0  0  0  0  0  0  0  0  0  0
  -46.2371  -29.0602    3.7515 H   0  0  0  0  0  0  0  0  0  0  0  0
  -43.2950  -30.2683    7.4162 H   0  0  0  0  0  0  0  0  0  0  0  0
  -44.6687  -31.4593   -1.8295 H   0  0  0  0  0  0  0  0  0  0  0  0
  -45.1097  -32.1520   -0.2502 H   0  0  0  0  0  0  0  0  0  0  0  0
  -42.6401  -32.2333    0.1073 H   0  0  0  0  0  0  0  0  0  0  0  0
  -42.3769  -30.9016   -1.0396 H   0  0  0  0  0  0  0  0  0  0  0  0
  -44.5740  -29.1748   -0.9027 H   0  0  0  0  0  0  0  0  0  0  0  0
  -45.6919  -29.7918    0.3277 H   0  0  0  0  0  0  0  0  0  0  0  0
  -42.4464  -28.0401    3.0514 H   0  0  0  0  0  0  0  0  0  0  0  0
  -43.9727  -27.8040    2.1620 H   0  0  0  0  0  0  0  0  0  0  0  0
  -44.9427  -31.2313    2.1484 H   0  0  0  0  0  0  0  0  0  0  0  0
  -43.2357  -31.6155    2.4793 H   0  0  0  0  0  0  0  0  0  0  0  0
  -41.5738  -29.5355    1.3996 H   0  0  0  0  0  0  0  0  0  0  0  0
  -41.9290  -28.5441   -0.6999 H   0  0  0  0  0  0  0  0  0  0  0  0
  -41.7343  -27.3971    0.4408 H   0  0  0  0  0  0  0  0  0  0  0  0
  -47.4918  -28.5472    7.0380 H   0  0  0  0  0  0  0  0  0  0  0  0
  1  2  1  0  0  0  0
  1  3  2  0  0  0  0
  2  4  2  0  0  0  0
  3  5  1  0  0  0  0
  4  8  1  0  0  0  0
  5  8  2  0  0  0  0
  6  9  2  0  0  0  0
  6 10  1  0  0  0  0
  7 18  2  0  0  0  0
  7 19  1  0  0  0  0
  8 22  1  0  0  0  0
  9 18  1  0  0  0  0
  9 20  1  0  0  0  0
 10 19  2  0  0  0  0
 10 22  1  0  0  0  0
 11 12  1  0  0  0  0
 11 13  1  0  0  0  0
 12 17  1  0  0  0  0
 13 17  1  0  0  0  0
 14 16  1  0  0  0  0
 14 20  1  0  0  0  0
 15 17  1  0  0  0  0
 15 20  1  0  0  0  0
 16 17  1  0  0  0  0
 16 21  1  0  0  0  0
  1 23  1  0  0  0  0
  2 24  1  0  0  0  0
  3 25  1  0  0  0  0
  4 26  1  0  0  0  0
  5 27  1  0  0  0  0
  6 28  1  0  0  0  0
  7 29  1  0  0  0  0
 11 30  1  0  0  0  0
 11 31  1  0  0  0  0
 12 32  1  0  0  0  0
 12 33  1  0  0  0  0
 13 34  1  0  0  0  0
 13 35  1  0  0  0  0
 14 36  1  0  0  0  0
 14 37  1  0  0  0  0
 15 38  1  0  0  0  0
 15 39  1  0  0  0  0
 16 40  1  0  0  0  0
 21 41  1  0  0  0  0
 21 42  1  0  0  0  0
 22 43  1  0  0  0  0
M  END
> <POSIT::Probability>
0.18

> <POSIT::Method>
FRED

> <ReceptorTitle>
UCSF-P4615-REFINED_LIGAND-BOUND-STATE_A__DU__LA1_A-201(A)

> <OMEGA_C>
OW1Lwi316sFP3HZA17BLwocz68GHAahAm4BGwjyu6cEnKU5AMwhHwpkr6sEDOsBA9tdBwk+m6MEj
mn5Ay1E2wiyk6sFFP5JAoM4vwmn978GQJNNAjBtCwqXk6MEL4KtATQwxwuB77cGgxYtACgc4wlS5
6sHpOrxAvRcywrX7+sFQ7z+/6joswnNj+sEA9I2+TegywqO078GghyG+7sEswjM/5MFfchpAuLIv
wjSb9sH/JApA2DIqwob16MEY6pI/WwouwpcK8sGgHUk/raotwsQ28MGJmqtAGN40wpVe7cGJmd1A
yi8vwpp/7cGOeURA3X8pwuju4MEA0eA9cmo9wgLa58FeQMRA5g1PwrjA68ERKVFAfoZPws4y7MHd
2rdA/ktGwqx96cFXvQhAcklHwiFd6sHG8OJAqQY+whWp58FTPV5AvvI4wkx76MEKGHBAIC4twool
8sFYUe1AvKwywqys+8EsLuq/X3A0wp2bAMLwGYC+e48qwt7uAMJAzts9+IEpwoY298EAE4W/wEsy
wvBl6cGgGGe/isQ2wptV7sGgwqc+FMkpwjhS4MHJSUNABuQvwp5u3sHeXQpAVMUzwrvZ+cFwfwlA
ZfEswpDs/MHhrB5Am0smwrNI7MHMJrM/Trcnwmpa5MGQLzO/6O8mwjgt28GQs+E+lfc9wrxg5MFt
N+FA

> <OMEGA_E>
N/gUwQ==

> <OMEGA_NBR>
     26634

$$$$
CACHE3HI_1690_97
  -OEChem-03092622513D

 39 41  0     1  0  0  0  0  0999 V2000
  -48.2420  -28.7660    4.6383 C   0  0  0  0  0  0  0  0  0  0  0  0
  -49.0251  -28.7556    5.7663 C   0  0  0  0  0  0  0  0  0  0  0  0
  -46.8678  -29.0693    5.0611 C   0  0  0  0  0  0  0  0  0  0  0  0
  -46.9092  -29.2158    6.4540 C   0  0  0  0  0  0  0  0  0  0  0  0
  -45.6348  -29.2825    4.3967 C   0  0  0  0  0  0  0  0  0  0  0  0
  -44.6182  -29.6021    6.5009 C   0  0  0  0  0  0  0  0  0  0  0  0
  -45.9321  -29.2682    0.6561 C   0  0  0  0  0  0  0  0  0  0  0  0
  -46.5611  -28.9928    2.0121 C   0  0  0  0  0  0  0  0  0  0  0  0
  -45.2107  -30.5835    0.8959 C   0  0  2  0  0  0  0  0  0  0  0  0
  -44.6796  -30.4417    2.3552 C   0  0  1  0  0  0  0  0  0  0  0  0
  -43.3712  -29.9224    7.2885 C   0  0  0  0  0  0  0  0  0  0  0  0
  -42.4453  -31.3707    3.0521 C   0  0  0  0  0  0  0  0  0  0  0  0
  -44.1727  -30.8797   -0.2127 C   0  0  0  0  0  0  0  0  0  0  0  0
  -43.1596  -30.1253    2.5041 C   0  0  0  0  0  0  0  0  0  0  0  0
  -45.7967  -29.4963    7.1557 N   0  0  0  0  0  0  0  0  0  0  0  0
  -44.5366  -29.5414    5.1499 N   0  0  0  0  0  0  0  0  0  0  0  0
  -48.2187  -29.0340    6.8628 N   0  0  0  0  0  0  0  0  0  0  0  0
  -45.5118  -29.3659    2.9947 N   0  0  2  0  0  0  0  0  0  0  0  0
  -44.8473  -31.1119   -1.4439 O   0  0  0  0  0  0  0  0  0  0  0  0
  -48.5748  -28.5847    3.6270 H   0  0  0  0  0  0  0  0  0  0  0  0
  -50.0875  -28.5637    5.7960 H   0  0  0  0  0  0  0  0  0  0  0  0
  -46.6992  -29.3713   -0.1255 H   0  0  0  0  0  0  0  0  0  0  0  0
  -45.2268  -28.4724    0.3749 H   0  0  0  0  0  0  0  0  0  0  0  0
  -46.8236  -27.9290    2.1095 H   0  0  0  0  0  0  0  0  0  0  0  0
  -47.4622  -29.6074    2.1542 H   0  0  0  0  0  0  0  0  0  0  0  0
  -45.9561  -31.3924    0.8867 H   0  0  0  0  0  0  0  0  0  0  0  0
  -44.8769  -31.3898    2.8769 H   0  0  0  0  0  0  0  0  0  0  0  0
  -43.6266  -30.0294    8.3531 H   0  0  0  0  0  0  0  0  0  0  0  0
  -42.9362  -30.8630    6.9196 H   0  0  0  0  0  0  0  0  0  0  0  0
  -42.6415  -29.1083    7.1666 H   0  0  0  0  0  0  0  0  0  0  0  0
  -41.3713  -31.1595    3.1616 H   0  0  0  0  0  0  0  0  0  0  0  0
  -42.8687  -31.6345    4.0324 H   0  0  0  0  0  0  0  0  0  0  0  0
  -42.5846  -32.2098    2.3546 H   0  0  0  0  0  0  0  0  0  0  0  0
  -43.4967  -30.0189   -0.3216 H   0  0  0  0  0  0  0  0  0  0  0  0
  -43.5896  -31.7717    0.0598 H   0  0  0  0  0  0  0  0  0  0  0  0
  -42.7394  -29.8600    1.5228 H   0  0  0  0  0  0  0  0  0  0  0  0
  -43.0236  -29.2848    3.2006 H   0  0  0  0  0  0  0  0  0  0  0  0
  -48.5377  -29.0942    7.8087 H   0  0  0  0  0  0  0  0  0  0  0  0
  -44.2105  -31.2939   -2.1250 H   0  0  0  0  0  0  0  0  0  0  0  0
  1  2  2  0  0  0  0
  1  3  1  0  0  0  0
  2 17  1  0  0  0  0
  3  4  2  0  0  0  0
  3  5  1  0  0  0  0
  4 15  1  0  0  0  0
  4 17  1  0  0  0  0
  5 16  2  0  0  0  0
  5 18  1  0  0  0  0
  6 11  1  0  0  0  0
  6 15  2  0  0  0  0
  6 16  1  0  0  0  0
  7  8  1  0  0  0  0
  7  9  1  0  0  0  0
  8 18  1  0  0  0  0
  9 10  1  0  0  0  0
  9 13  1  0  0  0  0
 10 14  1  0  0  0  0
 10 18  1  0  0  0  0
 12 14  1  0  0  0  0
 13 19  1  0  0  0  0
  1 20  1  0  0  0  0
  2 21  1  0  0  0  0
  7 22  1  0  0  0  0
  7 23  1  0  0  0  0
  8 24  1  0  0  0  0
  8 25  1  0  0  0  0
  9 26  1  0  0  0  0
 10 27  1  0  0  0  0
 11 28  1  0  0  0  0
 11 29  1  0  0  0  0
 11 30  1  0  0  0  0
 12 31  1  0  0  0  0
 12 32  1  0  0  0  0
 12 33  1  0  0  0  0
 13 34  1  0  0  0  0
 13 35  1  0  0  0  0
 14 36  1  0  0  0  0
 14 37  1  0  0  0  0
 17 38  1  0  0  0  0
 19 39  1  0  0  0  0
M  END
> <POSIT::Probability>
0.85

> <POSIT::Method>
SHAPEFIT

> <ReceptorTitle>
UCSF-P4615-REFINED_LIGAND-BOUND-STATE_A__DU__LA1_A-201(A)

> <OMEGA_C>
1PdAwsMg5sHMbJRArhlEwpAL5sFUhbhAnHg7wuyN6MFj9KFAAaM7wue56cFlh85AFIo2wphC6sEb
soxADHkywgDR7MGvB9BAdbo3wmAl6sGA9Sc/iD46wkPx58HSxgBAt9c0wv2q9MHAVmU/8LcywoqI
88EFuxZAEHwtwglh78F7O+lA8Mcpwh33+sEmVUNA2rAwwrIJ98HAzFm+dqMswp8A8cF0QyBA1i83
wmz468FT++RAcSUywsdU7ME4zKRA6N9AwrRF6MFDnNtADww2wkbt6sF9qD9AmmMzwi7l+MHI0Li/
lUxCwmmt5MH5H2hAkVlIwm2C5MGreLlAB8w6wlf46sFxfgC+Mug0wmLH48Fm9b8+Z0s7wrFu38FT
AgdAT9k9wvjb7MEI3wlAA9M3wpMj+8F6/mI/+oEzwjge+8EOHzhAmIEuwiU88ME/pgVBor4rwlnn
9sFzbd1A3JAqwtTd6MEyVeVAL3wlwq1G+cEJV0pAlXkrwoYT/cFjCYFAnlYqws7WAMKcsRZAlPwt
wqMm8ME2qaS+tFsuwoEs/sG2HXU9MfUqwlbh7sGa6cI/KBgswkFH6sH31UxAliZCwgHB6MGF4PlA
h9cwwtdZ+sFj/wfA

> <OMEGA_E>
DDAvPw==

> <OMEGA_NBR>
     27944

$$$$
CACHE3HI_1694_19
  -OEChem-03092622513D

 43 45  0     1  0  0  0  0  0999 V2000
  -45.6779  -31.0141   -1.3416 C   0  0  0  0  0  0  0  0  0  0  0  0
  -44.3765  -31.2392   -1.7902 C   0  0  0  0  0  0  0  0  0  0  0  0
  -45.9758  -31.1246    0.0165 C   0  0  0  0  0  0  0  0  0  0  0  0
  -49.0210  -28.9622    5.9452 C   0  0  0  0  0  0  0  0  0  0  0  0
  -48.9028  -28.7878    4.5741 C   0  0  0  0  0  0  0  0  0  0  0  0
  -43.3730  -31.5743   -0.8809 C   0  0  0  0  0  0  0  0  0  0  0  0
  -44.9723  -31.4598    0.9258 C   0  0  0  0  0  0  0  0  0  0  0  0
  -47.8814  -29.2027    6.7091 C   0  0  0  0  0  0  0  0  0  0  0  0
  -47.6437  -28.8566    3.9798 C   0  0  0  0  0  0  0  0  0  0  0  0
  -43.6709  -31.6848    0.4772 C   0  0  0  0  0  0  0  0  0  0  0  0
  -46.6189  -29.2729    6.1249 C   0  0  0  0  0  0  0  0  0  0  0  0
  -46.4979  -29.0963    4.7344 C   0  0  0  0  0  0  0  0  0  0  0  0
  -44.3398  -29.5640    6.2676 C   0  0  0  0  0  0  0  0  0  0  0  0
  -44.2209  -29.3925    4.9137 C   0  0  0  0  0  0  0  0  0  0  0  0
  -42.5861  -32.0473    1.4608 C   0  0  0  0  0  0  0  0  0  0  0  0
  -42.7954  -31.4585    2.8641 C   0  0  0  0  0  0  0  0  0  0  0  0
  -41.4485  -29.3508    2.4373 C   0  0  0  0  0  0  0  0  0  0  0  0
  -42.7798  -29.9168    2.9460 C   0  0  2  0  0  0  0  0  0  0  0  0
  -45.5337  -29.5063    6.8833 N   0  0  0  0  0  0  0  0  0  0  0  0
  -45.2947  -29.1573    4.1375 N   0  0  0  0  0  0  0  0  0  0  0  0
  -43.1889  -29.8084    7.0497 N   0  0  0  0  0  0  0  0  0  0  0  0
  -42.9825  -29.4584    4.3197 N   0  0  0  0  0  0  0  0  0  0  0  0
  -40.3782  -29.8506    3.2299 O   0  0  0  0  0  0  0  0  0  0  0  0
  -46.4592  -30.7532   -2.0494 H   0  0  0  0  0  0  0  0  0  0  0  0
  -44.1443  -31.1528   -2.8476 H   0  0  0  0  0  0  0  0  0  0  0  0
  -46.9891  -30.9497    0.3660 H   0  0  0  0  0  0  0  0  0  0  0  0
  -49.9954  -28.9106    6.4208 H   0  0  0  0  0  0  0  0  0  0  0  0
  -49.7834  -28.6007    3.9672 H   0  0  0  0  0  0  0  0  0  0  0  0
  -42.3619  -31.7479   -1.2399 H   0  0  0  0  0  0  0  0  0  0  0  0
  -45.2139  -31.5425    1.9821 H   0  0  0  0  0  0  0  0  0  0  0  0
  -47.9898  -29.3376    7.7836 H   0  0  0  0  0  0  0  0  0  0  0  0
  -47.5648  -28.7195    2.9033 H   0  0  0  0  0  0  0  0  0  0  0  0
  -42.5529  -33.1430    1.5390 H   0  0  0  0  0  0  0  0  0  0  0  0
  -41.6042  -31.7590    1.0674 H   0  0  0  0  0  0  0  0  0  0  0  0
  -43.7451  -31.8318    3.2662 H   0  0  0  0  0  0  0  0  0  0  0  0
  -42.0113  -31.8610    3.5201 H   0  0  0  0  0  0  0  0  0  0  0  0
  -41.2689  -29.6301    1.3929 H   0  0  0  0  0  0  0  0  0  0  0  0
  -41.4349  -28.2578    2.5126 H   0  0  0  0  0  0  0  0  0  0  0  0
  -43.5830  -29.5212    2.3137 H   0  0  0  0  0  0  0  0  0  0  0  0
  -42.3053  -29.9055    6.5947 H   0  0  0  0  0  0  0  0  0  0  0  0
  -43.2950  -29.9841    8.0270 H   0  0  0  0  0  0  0  0  0  0  0  0
  -42.1657  -29.1835    4.8374 H   0  0  0  0  0  0  0  0  0  0  0  0
  -39.5626  -29.4663    2.8710 H   0  0  0  0  0  0  0  0  0  0  0  0
  1  2  1  0  0  0  0
  1  3  2  0  0  0  0
  2  6  2  0  0  0  0
  3  7  1  0  0  0  0
  4  5  1  0  0  0  0
  4  8  2  0  0  0  0
  5  9  2  0  0  0  0
  6 10  1  0  0  0  0
  7 10  2  0  0  0  0
  8 11  1  0  0  0  0
  9 12  1  0  0  0  0
 10 15  1  0  0  0  0
 11 12  2  0  0  0  0
 11 19  1  0  0  0  0
 12 20  1  0  0  0  0
 13 14  1  0  0  0  0
 13 19  2  0  0  0  0
 13 21  1  0  0  0  0
 14 20  2  0  0  0  0
 14 22  1  0  0  0  0
 15 16  1  0  0  0  0
 16 18  1  0  0  0  0
 17 18  1  0  0  0  0
 17 23  1  0  0  0  0
 18 22  1  0  0  0  0
  1 24  1  0  0  0  0
  2 25  1  0  0  0  0
  3 26  1  0  0  0  0
  4 27  1  0  0  0  0
  5 28  1  0  0  0  0
  6 29  1  0  0  0  0
  7 30  1  0  0  0  0
  8 31  1  0  0  0  0
  9 32  1  0  0  0  0
 15 33  1  0  0  0  0
 15 34  1  0  0  0  0
 16 35  1  0  0  0  0
 16 36  1  0  0  0  0
 17 37  1  0  0  0  0
 17 38  1  0  0  0  0
 18 39  1  0  0  0  0
 21 40  1  0  0  0  0
 21 41  1  0  0  0  0
 22 42  1  0  0  0  0
 23 43  1  0  0  0  0
M  END
> <POSIT::Probability>
0.42

> <POSIT::Method>
HYBRID

> <ReceptorTitle>
UCSF-P4615-REFINED_LIGAND-BOUND-STATE_A__DU__LA1_A-201(A)

> <OMEGA_C>
NbY2wvAc+MEauqu/gIExwtHp+cFZJeW/Muc3wj3/+MHASYc8exVEwpKy58HcPr5AfpxDwmVN5sEu
X5JA9n0twjyY/MHOhWG/qeMzwqqt+8E0/2w/iYY/wiCf6cEAsdZAJJM+wkDa5sG1tX5A/q4uwop6
/cHQV/Q+xnk6wtAu6sFi/8NA0v05wkTF6MELgJdA9FsxwhWD7MHsj8hANOIwwsYj68FJPZ1ALVgq
wnIwAMLJ+ro/dS4rwhCr+8FMTTdATMslwmzO6sHA/BtAeR4rwrJV78GqijxAhyI2wvwM7MFMRNxA
yC01wiRC6cFcZoRAeMEswoZ37sHaluFAHu4rwtaq68ELO4pASIMhwgDO7sHetk5ANdY5wqEG9sHO
KQPAxpMwwt84+cHYPzbAzvQ7wuiY98HcX7s+UPtHwuBI58H2ds1ANyJHwjrO5MG15n1AoHIpwsH7
/cHTs56/Ats0whxX/MGwtv0/hfU/wmyz6sEtE/lATkI+wnDB5cHazzlANDYqwm+SBMLu/sQ/umom
woMS/sGwn4g/8Pouwo6n/sGoCFFAjgsowmnj/sHuSWFAYBMlwnYK7cFGSrI/U70lwgYQ4sFHziBA
/VQuwmgr7MFpExRAnTgpwow+78HPB9NAEC4twojf78FybgBBtakowuF36cEKzJpAJEAewuK668EQ
vzdA

> <OMEGA_E>
fDArwQ==

> <OMEGA_NBR>
     29304

$$$$
CACHE3HI_1694_25
  -OEChem-03092622513D

 42 44  0     1  0  0  0  0  0999 V2000
  -48.9900  -29.2259    5.5439 C   0  0  0  0  0  0  0  0  0  0  0  0
  -48.7764  -29.2036    4.1734 C   0  0  0  0  0  0  0  0  0  0  0  0
  -47.9044  -29.3505    6.4076 C   0  0  0  0  0  0  0  0  0  0  0  0
  -47.4768  -29.3071    3.6799 C   0  0  0  0  0  0  0  0  0  0  0  0
  -45.0313  -30.7784   -0.8067 C   0  0  0  0  0  0  0  0  0  0  0  0
  -46.0271  -31.8063    1.1264 C   0  0  0  0  0  0  0  0  0  0  0  0
  -46.0630  -31.3185   -1.5583 C   0  0  0  0  0  0  0  0  0  0  0  0
  -47.0141  -32.3004    0.2888 C   0  0  0  0  0  0  0  0  0  0  0  0
  -45.0206  -31.0318    0.5603 C   0  0  0  0  0  0  0  0  0  0  0  0
  -46.6022  -29.4542    5.9245 C   0  0  0  0  0  0  0  0  0  0  0  0
  -46.3844  -29.4319    4.5347 C   0  0  0  0  0  0  0  0  0  0  0  0
  -44.3346  -29.6704    6.2576 C   0  0  0  0  0  0  0  0  0  0  0  0
  -44.1215  -29.6490    4.9047 C   0  0  0  0  0  0  0  0  0  0  0  0
  -43.9210  -30.4682    1.4256 C   0  0  0  0  0  0  0  0  0  0  0  0
  -43.5871  -31.3328    2.6506 C   0  0  0  0  0  0  0  0  0  0  0  0
  -41.2646  -30.3121    2.6461 C   0  0  0  0  0  0  0  0  0  0  0  0
  -42.4146  -30.8283    3.5192 C   0  0  1  0  0  0  0  0  0  0  0  0
  -47.0578  -32.0755   -1.0435 N   0  0  0  0  0  0  0  0  0  0  0  0
  -45.5706  -29.5739    6.7783 N   0  0  0  0  0  0  0  0  0  0  0  0
  -45.1405  -29.5294    4.0339 N   0  0  0  0  0  0  0  0  0  0  0  0
  -43.2391  -29.7966    7.1407 N   0  0  0  0  0  0  0  0  0  0  0  0
  -42.8427  -29.7502    4.4096 N   0  0  0  0  0  0  0  0  0  0  0  0
  -40.0599  -30.2859    3.4021 O   0  0  0  0  0  0  0  0  0  0  0  0
  -49.9969  -29.1456    5.9415 H   0  0  0  0  0  0  0  0  0  0  0  0
  -49.6141  -29.1079    3.4894 H   0  0  0  0  0  0  0  0  0  0  0  0
  -48.0876  -29.3667    7.4803 H   0  0  0  0  0  0  0  0  0  0  0  0
  -47.3229  -29.2898    2.6029 H   0  0  0  0  0  0  0  0  0  0  0  0
  -44.2604  -30.1784   -1.2785 H   0  0  0  0  0  0  0  0  0  0  0  0
  -46.0461  -32.0213    2.1892 H   0  0  0  0  0  0  0  0  0  0  0  0
  -46.1177  -31.1506   -2.6287 H   0  0  0  0  0  0  0  0  0  0  0  0
  -47.8218  -32.9094    0.6810 H   0  0  0  0  0  0  0  0  0  0  0  0
  -43.0189  -30.3711    0.8055 H   0  0  0  0  0  0  0  0  0  0  0  0
  -44.1668  -29.4454    1.7347 H   0  0  0  0  0  0  0  0  0  0  0  0
  -44.4848  -31.4246    3.2740 H   0  0  0  0  0  0  0  0  0  0  0  0
  -43.3609  -32.3480    2.2965 H   0  0  0  0  0  0  0  0  0  0  0  0
  -41.1117  -30.9506    1.7686 H   0  0  0  0  0  0  0  0  0  0  0  0
  -41.4632  -29.2907    2.3029 H   0  0  0  0  0  0  0  0  0  0  0  0
  -42.0370  -31.6623    4.1221 H   0  0  0  0  0  0  0  0  0  0  0  0
  -42.3235  -29.9220    6.7623 H   0  0  0  0  0  0  0  0  0  0  0  0
  -43.4122  -29.8641    8.1218 H   0  0  0  0  0  0  0  0  0  0  0  0
  -42.1549  -29.0611    4.6601 H   0  0  0  0  0  0  0  0  0  0  0  0
  -39.3664  -29.9543    2.8099 H   0  0  0  0  0  0  0  0  0  0  0  0
  1  2  1  0  0  0  0
  1  3  2  0  0  0  0
  2  4  2  0  0  0  0
  3 10  1  0  0  0  0
  4 11  1  0  0  0  0
  5  7  2  0  0  0  0
  5  9  1  0  0  0  0
  6  8  1  0  0  0  0
  6  9  2  0  0  0  0
  7 18  1  0  0  0  0
  8 18  2  0  0  0  0
  9 14  1  0  0  0  0
 10 11  1  0  0  0  0
 10 19  2  0  0  0  0
 11 20  2  0  0  0  0
 12 13  2  0  0  0  0
 12 19  1  0  0  0  0
 12 21  1  0  0  0  0
 13 20  1  0  0  0  0
 13 22  1  0  0  0  0
 14 15  1  0  0  0  0
 15 17  1  0  0  0  0
 16 17  1  0  0  0  0
 16 23  1  0  0  0  0
 17 22  1  0  0  0  0
  1 24  1  0  0  0  0
  2 25  1  0  0  0  0
  3 26  1  0  0  0  0
  4 27  1  0  0  0  0
  5 28  1  0  0  0  0
  6 29  1  0  0  0  0
  7 30  1  0  0  0  0
  8 31  1  0  0  0  0
 14 32  1  0  0  0  0
 14 33  1  0  0  0  0
 15 34  1  0  0  0  0
 15 35  1  0  0  0  0
 16 36  1  0  0  0  0
 16 37  1  0  0  0  0
 17 38  1  0  0  0  0
 21 39  1  0  0  0  0
 21 40  1  0  0  0  0
 22 41  1  0  0  0  0
 23 42  1  0  0  0  0
M  END
> <POSIT::Probability>
0.33

> <POSIT::Method>
HYBRID

> <ReceptorTitle>
UCSF-P4615-REFINED_LIGAND-BOUND-STATE_A__DU__LA1_A-201(A)

> <OMEGA_C>
xvVDwqrO6cFGZ7FAFRtDwgKh6cHGjIVAJp4/wurN6sFmC81AROg9wgt16sHig2tABiA0whs69sHA
hU6/tBs4wkxz/sFwLJA/e0A4wlCM+sGwdse/ZQ48wpAzAcLA3pM+GBU0wilB+MGwcg8/pmg6wkSi
68G8lb1Amok5wp1068GnHJFAq1YxwgBd7cGjPshAcHwwwi0x7cEA85xAIa8vws6+88Ewe7Y/Jlku
wqqp+sF4oylA8g4lwhV/8sF4WSlAhKgpwmqg9sGwOmFAODs8wlFNAMIYkIW/Skg2wkyX7MF959hA
4Y80wjo87MF6FYFA0PQswldf7sE+gORA5V4rwncA7sHEG41AUj0gwn5J8sGmvFlA0/xHwkIq6cHi
IL5A2nRGwgrd6MHUUV9AsFlAwunu6sHjXu9ArUo9wo1R6sEIliZAqwoxwltt8cF4p6O/Oi84wtIV
AMLMGwxAing4wnc0+cEoPCjAkkk/wkajA8IwVC4/XBMswvb38sFAOE4/yaowwjCQ68FgC94/Z/Ax
wqRl+8G0iFFAinEtwmZkAcJo+RJAa3Ikwtma98EwYuI/UdolwkhT6sEsYxNA3iUowlFM/cFH6INA
N0spwltg78HhZNhAGKYtwrXp7sEP8wFBlZ4owhd96MHQH5VAK3cdwmei78FY1TNA

> <OMEGA_E>
jicvwQ==

> <OMEGA_NBR>
     30641

$$$$
CACHE3HI_1695_78
  -OEChem-03092622513D

 44 46  0     0  0  0  0  0  0999 V2000
  -47.1178  -30.0915    2.5729 C   0  0  0  0  0  0  0  0  0  0  0  0
  -49.4572  -30.6476    2.8088 C   0  0  0  0  0  0  0  0  0  0  0  0
  -47.1290  -29.5095    3.8405 C   0  0  0  0  0  0  0  0  0  0  0  0
  -49.4684  -30.0656    4.0764 C   0  0  0  0  0  0  0  0  0  0  0  0
  -48.2821  -30.6606    2.0572 C   0  0  0  0  0  0  0  0  0  0  0  0
  -48.3041  -29.4964    4.5922 C   0  0  0  0  0  0  0  0  0  0  0  0
  -42.3953  -31.1119    2.0585 C   0  0  0  0  0  0  0  0  0  0  0  0
  -43.8415  -32.6822    1.6113 C   0  0  0  0  0  0  0  0  0  0  0  0
  -41.5566  -29.8964    1.9109 C   0  0  0  0  0  0  0  0  0  0  0  0
  -42.3854  -28.6324    1.6877 C   0  0  0  0  0  0  0  0  0  0  0  0
  -42.9572  -28.5036    0.2726 C   0  0  0  0  0  0  0  0  0  0  0  0
  -44.0386  -29.5259   -0.0844 C   0  0  0  0  0  0  0  0  0  0  0  0
  -43.5255  -30.9599   -0.1833 C   0  0  0  0  0  0  0  0  0  0  0  0
  -47.0445  -31.8055    0.3795 C   0  0  0  0  0  0  0  0  0  0  0  0
  -46.6094  -32.8979    1.3436 C   0  0  0  0  0  0  0  0  0  0  0  0
  -42.4432  -31.9283    3.0929 N   0  0  0  0  0  0  0  0  0  0  0  0
  -43.3586  -32.9213    2.8092 N   0  0  0  0  0  0  0  0  0  0  0  0
  -43.2651  -31.5603    1.1039 N   0  0  0  0  0  0  0  0  0  0  0  0
  -47.9009  -30.1060    7.1561 N   0  0  0  0  0  0  0  0  0  0  0  0
  -49.6822  -28.3665    6.4900 O   0  0  0  0  0  0  0  0  0  0  0  0
  -47.2425  -27.7870    6.2449 O   0  0  0  0  0  0  0  0  0  0  0  0
  -48.2716  -31.2330    0.8117 O   0  0  0  0  0  0  0  0  0  0  0  0
  -45.0303  -33.6532    0.8196 S   0  0  0  0  0  0  0  0  0  0  0  0
  -48.3174  -28.7677    6.1787 S   0  0  0  0  0  0  0  0  0  0  0  0
  -46.1994  -30.0990    1.9923 H   0  0  0  0  0  0  0  0  0  0  0  0
  -50.3671  -31.0893    2.4118 H   0  0  0  0  0  0  0  0  0  0  0  0
  -46.2163  -29.0689    4.2330 H   0  0  0  0  0  0  0  0  0  0  0  0
  -50.3893  -30.0616    4.6534 H   0  0  0  0  0  0  0  0  0  0  0  0
  -40.9704  -29.7695    2.8295 H   0  0  0  0  0  0  0  0  0  0  0  0
  -40.8350  -30.0343    1.0972 H   0  0  0  0  0  0  0  0  0  0  0  0
  -43.1964  -28.5668    2.4240 H   0  0  0  0  0  0  0  0  0  0  0  0
  -41.7344  -27.7663    1.8611 H   0  0  0  0  0  0  0  0  0  0  0  0
  -43.3966  -27.5026    0.1778 H   0  0  0  0  0  0  0  0  0  0  0  0
  -42.1433  -28.5534   -0.4613 H   0  0  0  0  0  0  0  0  0  0  0  0
  -44.8637  -29.4625    0.6358 H   0  0  0  0  0  0  0  0  0  0  0  0
  -44.4499  -29.2445   -1.0619 H   0  0  0  0  0  0  0  0  0  0  0  0
  -44.2602  -31.5575   -0.7280 H   0  0  0  0  0  0  0  0  0  0  0  0
  -42.5918  -31.0066   -0.7564 H   0  0  0  0  0  0  0  0  0  0  0  0
  -46.2930  -31.0095    0.3676 H   0  0  0  0  0  0  0  0  0  0  0  0
  -47.1613  -32.1824   -0.6424 H   0  0  0  0  0  0  0  0  0  0  0  0
  -46.4711  -32.4826    2.3462 H   0  0  0  0  0  0  0  0  0  0  0  0
  -47.3612  -33.6922    1.3929 H   0  0  0  0  0  0  0  0  0  0  0  0
  -46.9663  -30.1194    7.5814 H   0  0  0  0  0  0  0  0  0  0  0  0
  -48.6327  -30.5152    7.7490 H   0  0  0  0  0  0  0  0  0  0  0  0
  1  3  1  0  0  0  0
  1  5  2  0  0  0  0
  2  4  2  0  0  0  0
  2  5  1  0  0  0  0
  3  6  2  0  0  0  0
  4  6  1  0  0  0  0
  5 22  1  0  0  0  0
  6 24  1  0  0  0  0
  7  9  1  0  0  0  0
  7 16  2  0  0  0  0
  7 18  1  0  0  0  0
  8 17  2  0  0  0  0
  8 18  1  0  0  0  0
  8 23  1  0  0  0  0
  9 10  1  0  0  0  0
 10 11  1  0  0  0  0
 11 12  1  0  0  0  0
 12 13  1  0  0  0  0
 13 18  1  0  0  0  0
 14 15  1  0  0  0  0
 14 22  1  0  0  0  0
 15 23  1  0  0  0  0
 16 17  1  0  0  0  0
 19 24  1  0  0  0  0
 20 24  2  0  0  0  0
 21 24  2  0  0  0  0
  1 25  1  0  0  0  0
  2 26  1  0  0  0  0
  3 27  1  0  0  0  0
  4 28  1  0  0  0  0
  9 29  1  0  0  0  0
  9 30  1  0  0  0  0
 10 31  1  0  0  0  0
 10 32  1  0  0  0  0
 11 33  1  0  0  0  0
 11 34  1  0  0  0  0
 12 35  1  0  0  0  0
 12 36  1  0  0  0  0
 13 37  1  0  0  0  0
 13 38  1  0  0  0  0
 14 39  1  0  0  0  0
 14 40  1  0  0  0  0
 15 41  1  0  0  0  0
 15 42  1  0  0  0  0
 19 43  1  0  0  0  0
 19 44  1  0  0  0  0
M  END
> <POSIT::Probability>
0.24

> <POSIT::Method>
FRED

> <ReceptorTitle>
UCSF-P4615-REFINED_LIGAND-BOUND-STATE_A__DU__LA1_A-201(A)

> <OMEGA_C>
qHg8wlG78MHZqiRALdRFwjIu9cG8wzNAGIQ8wmYT7MGSy3VApt9FwlaG8MHkcYJA2yBBwgJJ9cEu
qQNAajdBwpb468ER85JA1pQpwhbl+MHLvQNAqF0vwpa6AsLHPc4/6zkmwsIr78EGmfQ/oYopwjAP
5cEuB9g/K9QrwmYH5MFgkIs+kCcwwh417MHA6Ky9FBouwuit98FQuTu+jC08wpJx/sEQSMI+/G86
wmyXA8Ja/Ks/1cUpwi5t/8Fg8UVAOG8twnWvA8JNyTNAeA8twnJ7/MHKTI0/fZo/whnZ8MFe/uRA
jLpGwpXu4sHCrc9ASvg8wtxL3sFM1sdAKBZBwjrd+cHkyk8/Bx80wtmcBsJc0lE/B0VBwisk5sHX
t8VAMMw4wrzK8MGGBP8/6ndJwvO2+MG5WhpAiN04whyN6MFgdIdAm45Jwj9+8MGm6JRAvOEjwggo
7sHpFjVAElcjwjpG8MHQcIw/IMkswtOI5MHIIhtABPAmwlQh3sHWN+4/GZYtwmcF3MGwFDY+vJIo
wklt5MFALey+a3Qzwh6z68EgwSI/qMwxwsf06cFO64e/ewoxwrR1/MGkXTq/CV4qwpsN+MEcpUG/
Ciw5wosT+MFAN7w+LaU8ws+6AMKEdyS/ZeI5wi3uAcKpKBZA1XE9wsrEBsJyS7I/it07wn708MHc
mvJA1odCwiwf9MHW9/dA

> <OMEGA_E>
vfTZwA==

> <OMEGA_NBR>
     32010

$$$$
CACHE3HI_1700_27
  -OEChem-03092622513D

 37 39  0     1  0  0  0  0  0999 V2000
  -51.1893  -28.9092    4.6835 C   0  0  0  0  0  0  0  0  0  0  0  0
  -50.0138  -28.8843    5.4885 C   0  0  0  0  0  0  0  0  0  0  0  0
  -47.1401  -28.9306    6.4926 C   0  0  0  0  0  0  0  0  0  0  0  0
  -44.9358  -29.1202    5.9126 C   0  0  0  0  0  0  0  0  0  0  0  0
  -50.8983  -29.0737    3.3472 C   0  0  0  0  0  0  0  0  0  0  0  0
  -47.4995  -29.0580    5.1687 C   0  0  0  0  0  0  0  0  0  0  0  0
  -48.8687  -29.0308    4.7360 C   0  0  0  0  0  0  0  0  0  0  0  0
  -45.2954  -29.2476    4.5885 C   0  0  0  0  0  0  0  0  0  0  0  0
  -42.2508  -30.0460    2.6365 C   0  0  0  0  0  0  0  0  0  0  0  0
  -42.8103  -28.8280    1.9182 C   0  0  0  0  0  0  0  0  0  0  0  0
  -43.0212  -30.0682    3.9528 C   0  0  0  0  0  0  0  0  0  0  0  0
  -44.2959  -28.8256    2.3039 C   0  0  1  0  0  0  0  0  0  0  0  0
  -44.7123  -29.4461   -0.1020 C   0  0  0  0  0  0  0  0  0  0  0  0
  -45.1222  -29.6811    1.3448 C   0  0  2  0  0  0  0  0  0  0  0  0
  -45.8521  -28.9595    6.8885 N   0  0  0  0  0  0  0  0  0  0  0  0
  -46.5832  -29.2186    4.1927 N   0  0  0  0  0  0  0  0  0  0  0  0
  -44.2933  -29.4097    3.6508 N   0  0  3  0  0  0  0  0  0  0  0  0
  -43.5501  -30.2197   -0.3777 O   0  0  0  0  0  0  0  0  0  0  0  0
  -46.4908  -29.3220    1.5131 O   0  0  0  0  0  0  0  0  0  0  0  0
  -49.2133  -29.1976    3.0669 S   0  0  0  0  0  0  0  0  0  0  0  0
  -52.1974  -28.8121    5.0649 H   0  0  0  0  0  0  0  0  0  0  0  0
  -50.0158  -28.7637    6.5647 H   0  0  0  0  0  0  0  0  0  0  0  0
  -47.8689  -28.8004    7.2847 H   0  0  0  0  0  0  0  0  0  0  0  0
  -43.9032  -29.1423    6.2418 H   0  0  0  0  0  0  0  0  0  0  0  0
  -51.5938  -29.1266    2.5216 H   0  0  0  0  0  0  0  0  0  0  0  0
  -42.4579  -30.9559    2.0614 H   0  0  0  0  0  0  0  0  0  0  0  0
  -41.1698  -29.9765    2.7884 H   0  0  0  0  0  0  0  0  0  0  0  0
  -42.3261  -27.9208    2.3002 H   0  0  0  0  0  0  0  0  0  0  0  0
  -42.6452  -28.8744    0.8376 H   0  0  0  0  0  0  0  0  0  0  0  0
  -43.1712  -31.0894    4.3173 H   0  0  0  0  0  0  0  0  0  0  0  0
  -42.4734  -29.4988    4.7133 H   0  0  0  0  0  0  0  0  0  0  0  0
  -44.6725  -27.8000    2.2981 H   0  0  0  0  0  0  0  0  0  0  0  0
  -45.4992  -29.7633   -0.7941 H   0  0  0  0  0  0  0  0  0  0  0  0
  -44.4704  -28.3937   -0.2791 H   0  0  0  0  0  0  0  0  0  0  0  0
  -45.0227  -30.7381    1.6110 H   0  0  0  0  0  0  0  0  0  0  0  0
  -43.3153  -30.0485   -1.3034 H   0  0  0  0  0  0  0  0  0  0  0  0
  -46.5571  -28.3784    1.2999 H   0  0  0  0  0  0  0  0  0  0  0  0
  1  2  1  0  0  0  0
  1  5  2  0  0  0  0
  2  7  2  0  0  0  0
  3  6  1  0  0  0  0
  3 15  2  0  0  0  0
  4  8  2  0  0  0  0
  4 15  1  0  0  0  0
  5 20  1  0  0  0  0
  6  7  1  0  0  0  0
  6 16  2  0  0  0  0
  7 20  1  0  0  0  0
  8 16  1  0  0  0  0
  8 17  1  0  0  0  0
  9 10  1  0  0  0  0
  9 11  1  0  0  0  0
 10 12  1  0  0  0  0
 11 17  1  0  0  0  0
 12 14  1  0  0  0  0
 12 17  1  0  0  0  0
 13 14  1  0  0  0  0
 13 18  1  0  0  0  0
 14 19  1  0  0  0  0
  1 21  1  0  0  0  0
  2 22  1  0  0  0  0
  3 23  1  0  0  0  0
  4 24  1  0  0  0  0
  5 25  1  0  0  0  0
  9 26  1  0  0  0  0
  9 27  1  0  0  0  0
 10 28  1  0  0  0  0
 10 29  1  0  0  0  0
 11 30  1  0  0  0  0
 11 31  1  0  0  0  0
 12 32  1  0  0  0  0
 13 33  1  0  0  0  0
 13 34  1  0  0  0  0
 14 35  1  0  0  0  0
 18 36  1  0  0  0  0
 19 37  1  0  0  0  0
M  END
> <POSIT::Probability>
0.18

> <POSIT::Method>
HYBRID

> <ReceptorTitle>
UCSF-P4615-REFINED_LIGAND-BOUND-STATE_A__DU__LA1_A-201(A)

> <OMEGA_C>
4MFMwiBG58FW35VAFw5Iwv4S58GPoa9Ab488wu5x58GKw89AOb4zwiD26MHcM71A0pdLwgqX6MFk
OFZAcv89wrx26MGlZaVAiHlDwhQ/6MFOjZdAdC41whr76cFG1ZJA1AApwk1e8MGgvChAuj0rwtaf
5sG0hvU/sBUswsaL8MHk+XxA/C4xwsCa5sG8cxNAatkywoeR68EA1dC9LH00wvhy7cFAI6w/jmg3
wvys58H4btxAKVU6wqO/6cFqKoZAYiwxwhpH68E0p2lARjMuwvrB8cEgZcG+n/Y5wnaT6sGgrcE/
ZNpEwqGU6cFiSERAMMpQwjt/5sGYE6JAOBBIwv4b5sFCEtJAyHk/wihn5sECHOlA7ZwvwnMj6cG5
vMdAEWBOwlgD6cHaYSFA4tQpwq6l98E87gNA5a0kwujP78GcdTJA7k0pwtBd38FUNhNApJQqwr7+
5sGAbFY/Rq8swjG3+MGIJ4pAt+Qpwor968Fh05ZAmrAywnRm3sFsExNAN/81wi0b7sGgS0u/uOEx
wjIm48Fg7I6+Ohc0wozn9cEwNM4/4kItwmZj8MEY1qa/dTo6wt4G48HUYaY/

> <OMEGA_E>
fwT3wA==

> <OMEGA_NBR>
     33253

$$$$
CACHE3HI_1700_77
  -OEChem-03092622513D

 40 43  0     1  0  0  0  0  0999 V2000
  -48.9389  -29.2225    5.7206 C   0  0  0  0  0  0  0  0  0  0  0  0
  -46.5595  -28.9975    5.1829 C   0  0  0  0  0  0  0  0  0  0  0  0
  -50.2361  -29.5299    5.3192 C   0  0  0  0  0  0  0  0  0  0  0  0
  -45.5306  -29.0843    4.2564 C   0  0  0  0  0  0  0  0  0  0  0  0
  -49.4163  -29.9941    3.0973 C   0  0  0  0  0  0  0  0  0  0  0  0
  -47.8749  -29.3015    4.8058 C   0  0  0  0  0  0  0  0  0  0  0  0
  -50.4748  -29.9163    4.0063 C   0  0  0  0  0  0  0  0  0  0  0  0
  -48.1100  -29.6927    3.4714 C   0  0  0  0  0  0  0  0  0  0  0  0
  -45.8584  -29.4766    2.9741 C   0  0  0  0  0  0  0  0  0  0  0  0
  -41.9185  -30.8772    0.6742 C   0  0  0  0  0  0  0  0  0  0  0  0
  -44.4686  -30.7925    1.3625 C   0  0  0  0  0  0  0  0  0  0  0  0
  -44.0736  -28.4107    1.5785 C   0  0  0  0  0  0  0  0  0  0  0  0
  -43.3609  -30.4168    0.3785 C   0  0  1  0  0  0  0  0  0  0  0  0
  -42.9473  -28.9732    0.7217 C   0  0  2  0  0  0  0  0  0  0  0  0
  -41.6435  -29.5308    1.3767 C   0  0  1  0  0  0  0  0  0  0  0  0
  -51.8608  -30.2469    3.5656 C   0  0  0  0  0  0  0  0  0  0  0  0
  -41.5196  -29.6002    2.8909 C   0  0  0  0  0  0  0  0  0  0  0  0
  -47.1125  -29.7780    2.5687 N   0  0  0  0  0  0  0  0  0  0  0  0
  -44.8292  -29.5613    2.0568 N   0  0  3  0  0  0  0  0  0  0  0  0
  -40.2214  -30.0665    3.2267 O   0  0  0  0  0  0  0  0  0  0  0  0
  -48.7630  -28.9227    6.7513 H   0  0  0  0  0  0  0  0  0  0  0  0
  -46.3305  -28.6925    6.2014 H   0  0  0  0  0  0  0  0  0  0  0  0
  -51.0499  -29.4666    6.0362 H   0  0  0  0  0  0  0  0  0  0  0  0
  -44.5113  -28.8502    4.5446 H   0  0  0  0  0  0  0  0  0  0  0  0
  -49.6192  -30.2986    2.0714 H   0  0  0  0  0  0  0  0  0  0  0  0
  -41.8413  -31.7590    1.3349 H   0  0  0  0  0  0  0  0  0  0  0  0
  -41.2950  -31.0752   -0.2128 H   0  0  0  0  0  0  0  0  0  0  0  0
  -45.3372  -31.1725    0.8112 H   0  0  0  0  0  0  0  0  0  0  0  0
  -44.1376  -31.5677    2.0625 H   0  0  0  0  0  0  0  0  0  0  0  0
  -43.7073  -27.8262    2.4267 H   0  0  0  0  0  0  0  0  0  0  0  0
  -44.7140  -27.7611    0.9707 H   0  0  0  0  0  0  0  0  0  0  0  0
  -43.6493  -30.5638   -0.6823 H   0  0  0  0  0  0  0  0  0  0  0  0
  -42.7554  -28.3359   -0.1512 H   0  0  0  0  0  0  0  0  0  0  0  0
  -40.7528  -29.0388    0.9666 H   0  0  0  0  0  0  0  0  0  0  0  0
  -52.3819  -29.3576    3.1873 H   0  0  0  0  0  0  0  0  0  0  0  0
  -52.4611  -30.6369    4.3982 H   0  0  0  0  0  0  0  0  0  0  0  0
  -51.8387  -31.0015    2.7698 H   0  0  0  0  0  0  0  0  0  0  0  0
  -42.2606  -30.2898    3.3045 H   0  0  0  0  0  0  0  0  0  0  0  0
  -41.6641  -28.6099    3.3331 H   0  0  0  0  0  0  0  0  0  0  0  0
  -40.1760  -30.0989    4.1964 H   0  0  0  0  0  0  0  0  0  0  0  0
  1  3  2  0  0  0  0
  1  6  1  0  0  0  0
  2  4  2  0  0  0  0
  2  6  1  0  0  0  0
  3  7  1  0  0  0  0
  4  9  1  0  0  0  0
  5  7  2  0  0  0  0
  5  8  1  0  0  0  0
  6  8  2  0  0  0  0
  7 16  1  0  0  0  0
  8 18  1  0  0  0  0
  9 18  2  0  0  0  0
  9 19  1  0  0  0  0
 10 13  1  0  0  0  0
 10 15  1  0  0  0  0
 11 13  1  0  0  0  0
 11 19  1  0  0  0  0
 12 14  1  0  0  0  0
 12 19  1  0  0  0  0
 13 14  1  0  0  0  0
 14 15  1  0  0  0  0
 15 17  1  0  0  0  0
 17 20  1  0  0  0  0
  1 21  1  0  0  0  0
  2 22  1  0  0  0  0
  3 23  1  0  0  0  0
  4 24  1  0  0  0  0
  5 25  1  0  0  0  0
 10 26  1  0  0  0  0
 10 27  1  0  0  0  0
 11 28  1  0  0  0  0
 11 29  1  0  0  0  0
 12 30  1  0  0  0  0
 12 31  1  0  0  0  0
 13 32  1  0  0  0  0
 14 33  1  0  0  0  0
 15 34  1  0  0  0  0
 16 35  1  0  0  0  0
 16 36  1  0  0  0  0
 16 37  1  0  0  0  0
 17 38  1  0  0  0  0
 17 39  1  0  0  0  0
 20 40  1  0  0  0  0
M  END
> <POSIT::Probability>
0.24

> <POSIT::Method>
FRED

> <ReceptorTitle>
UCSF-P4615-REFINED_LIGAND-BOUND-STATE_A__DU__LA1_A-201(A)

> <OMEGA_C>
ZcFDwpbH6cEJD7dA9zw6wvP658El2qVAyvFIwiI97MEvN6pAWB82wqis6MFQNIhARqpFwvPz78HU
OkZA5X8/wmpp6sFvyZlAPeZJwqJU78FWM4BApXBAwqGK7cFpK15AC283wh/Q68FUVz5Agqwnwn8E
98EIliw/zd8xwhpX9sH8Zq4/Z0swwi1J48HkDco/j3EtwodV88GgxcE+EsorwhHJ58EQwjg//JIm
wik/7MEgOLA/eHFPwo758cFEM2RABRQmwjPN7MEoBDlAMnM8wmo57sGwZSRAGlEzwpN97MHQoQNA
v+IgwjWI8MH7gk5ARQ1Dwrph58G1CthAeVI5wi6K5cGAccZAGDNMwqC768F6KMFAmgsywkzN5sEc
bZFAE3pGwo9j8sFekgRAg10nwmwS/sHg3Ko/IS4lwgGa+MEg6Vm+T1k1wkxh+cF4qE8/44wwwqqK
/MFe/wNAStQuwhac3sGDThtAJNsywr8W3sGQfHg/2ZguwpGC9MHYrC6/iQUrwviv4sGA0Rq+1AIj
wl5P6MEYcXc/GYdRwnfc6sEF/UtALNhRwlsY9cFyvoxA4FpPwgkD+MGyQzFA0gopwopR8sFKfVNA
/acmwiTh5MG8UFVAP7QgwnbK8MGnSIZA

> <OMEGA_E>
TDYDwQ==

> <OMEGA_NBR>
     34559

$$$$
CACHE3HI_1700_83
  -OEChem-03092622513D

 34 36  0     1  0  0  0  0  0999 V2000
  -45.2663  -30.5923   -1.6389 C   0  0  0  0  0  0  0  0  0  0  0  0
  -45.8657  -29.7125   -0.7301 C   0  0  0  0  0  0  0  0  0  0  0  0
  -44.3990  -31.5955   -1.1575 C   0  0  0  0  0  0  0  0  0  0  0  0
  -45.5579  -29.8464    0.6262 C   0  0  0  0  0  0  0  0  0  0  0  0
  -44.6030  -30.8026    1.0311 C   0  0  0  0  0  0  0  0  0  0  0  0
  -45.4749  -29.3525    2.8150 C   0  0  0  0  0  0  0  0  0  0  0  0
  -47.3543  -28.7215    4.2687 C   0  0  0  0  0  0  0  0  0  0  0  0
  -44.9620  -28.6869    5.1228 C   0  0  0  0  0  0  0  0  0  0  0  0
  -47.5727  -28.7144    5.7996 C   0  0  1  0  0  0  0  0  0  0  0  0
  -45.3617  -29.8116    6.0895 C   0  0  1  0  0  0  0  0  0  0  0  0
  -49.0483  -28.9430    6.1320 C   0  0  0  0  0  0  0  0  0  0  0  0
  -44.4841  -29.7414    7.3408 C   0  0  0  0  0  0  0  0  0  0  0  0
  -44.0685  -31.6778    0.1528 N   0  0  0  0  0  0  0  0  0  0  0  0
  -46.1117  -29.1705    1.6894 N   0  0  0  0  0  0  0  0  0  0  0  0
  -45.8920  -28.7632    3.9879 N   0  0  0  0  0  0  0  0  0  0  0  0
  -46.7750  -29.7485    6.4568 O   0  0  0  0  0  0  0  0  0  0  0  0
  -49.2106  -28.8602    7.5444 O   0  0  0  0  0  0  0  0  0  0  0  0
  -43.1354  -30.0409    6.9852 O   0  0  0  0  0  0  0  0  0  0  0  0
  -44.1569  -30.4972    2.6644 S   0  0  0  0  0  0  0  0  0  0  0  0
  -45.4656  -30.5042   -2.6966 H   0  0  0  0  0  0  0  0  0  0  0  0
  -46.5497  -28.9485   -1.0691 H   0  0  0  0  0  0  0  0  0  0  0  0
  -43.9889  -32.3150   -1.8508 H   0  0  0  0  0  0  0  0  0  0  0  0
  -47.8393  -29.6065    3.8311 H   0  0  0  0  0  0  0  0  0  0  0  0
  -47.7883  -27.8110    3.8300 H   0  0  0  0  0  0  0  0  0  0  0  0
  -45.0485  -27.7096    5.6202 H   0  0  0  0  0  0  0  0  0  0  0  0
  -43.9278  -28.8322    4.7773 H   0  0  0  0  0  0  0  0  0  0  0  0
  -47.2780  -27.7272    6.1849 H   0  0  0  0  0  0  0  0  0  0  0  0
  -45.1662  -30.7723    5.5906 H   0  0  0  0  0  0  0  0  0  0  0  0
  -49.6628  -28.1734    5.6420 H   0  0  0  0  0  0  0  0  0  0  0  0
  -49.3582  -29.9382    5.7805 H   0  0  0  0  0  0  0  0  0  0  0  0
  -44.5355  -28.7299    7.7700 H   0  0  0  0  0  0  0  0  0  0  0  0
  -44.8403  -30.4725    8.0815 H   0  0  0  0  0  0  0  0  0  0  0  0
  -50.1233  -29.0002    7.7675 H   0  0  0  0  0  0  0  0  0  0  0  0
  -42.5864  -29.9985    7.7594 H   0  0  0  0  0  0  0  0  0  0  0  0
  1  2  1  0  0  0  0
  1  3  2  0  0  0  0
  2  4  2  0  0  0  0
  3 13  1  0  0  0  0
  4  5  1  0  0  0  0
  4 14  1  0  0  0  0
  5 13  2  0  0  0  0
  5 19  1  0  0  0  0
  6 14  2  0  0  0  0
  6 15  1  0  0  0  0
  6 19  1  0  0  0  0
  7  9  1  0  0  0  0
  7 15  1  0  0  0  0
  8 10  1  0  0  0  0
  8 15  1  0  0  0  0
  9 11  1  0  0  0  0
  9 16  1  0  0  0  0
 10 12  1  0  0  0  0
 10 16  1  0  0  0  0
 11 17  1  0  0  0  0
 12 18  1  0  0  0  0
  1 20  1  0  0  0  0
  2 21  1  0  0  0  0
  3 22  1  0  0  0  0
  7 23  1  0  0  0  0
  7 24  1  0  0  0  0
  8 25  1  0  0  0  0
  8 26  1  0  0  0  0
  9 27  1  0  0  0  0
 10 28  1  0  0  0  0
 11 29  1  0  0  0  0
 11 30  1  0  0  0  0
 12 31  1  0  0  0  0
 12 32  1  0  0  0  0
 17 33  1  0  0  0  0
 18 34  1  0  0  0  0
M  END
> <POSIT::Probability>
0.72

> <POSIT::Method>
SHAPEFIT

> <ReceptorTitle>
UCSF-P4615-REFINED_LIGAND-BOUND-STATE_A__DU__LA1_A-201(A)

> <OMEGA_C>
uhA1whG99MEAxtG/fXY3wiOz7cFw5jq/jpgxwqfD/MGwKZS/SDs2wmfF7sF0TSA/cmkywtNr9sEZ
+oM/SeY1wvzR6sGKKDRAwmo9wrnF5cFimYhAEtkzwtF+5cFG7qNAfUo+whe35cEUlrlAVXI1wjF+
7sEi3cJAgjFEwkSL58F2OcRAt+8xwmvu7cG95+pAJ0YwwhNs/cGQcRw+WXI4wixd6cFbPtg/Z5E3
wiIb5sEmOn9AnBk7wuv87cHrnc5AotdEwpnh5sHTa/FAqIoswq1T8MGqht9AqqAwwjH688EwhSpA
yNw1wpwI9MHjlSzA2DI6wniW58Ej2Ii/o/QvwoxCAcLN5uy/Zls/wjXa7MEjMHVALSc/wuJ83sEW
HnVAqjE0wjut3cFQ2LNAFrYvwm6o5sG435hAqRw9wjnR3cGp6sVALKo0wrAt9sFz5rJAtqZGwg1j
4cFci7RAyW5FwnaB78EE+rhAYCQywtTW5cGAo/hAdlwzwrrH88GxTQFBSn5IwmIA6MGYj/hAhlgq
wuH878G3TPhA

> <OMEGA_E>
DsNhPw==

> <OMEGA_NBR>
     35763

$$$$
CACHE3HI_1705_4
  -OEChem-03092622513D

 42 45  0     1  0  0  0  0  0999 V2000
  -48.3350  -28.6652    4.7484 C   0  0  0  0  0  0  0  0  0  0  0  0
  -49.0808  -28.7007    5.8985 C   0  0  0  0  0  0  0  0  0  0  0  0
  -46.9556  -29.0531    5.1001 C   0  0  0  0  0  0  0  0  0  0  0  0
  -46.9527  -29.2437    6.4876 C   0  0  0  0  0  0  0  0  0  0  0  0
  -45.7341  -29.2184    4.3903 C   0  0  0  0  0  0  0  0  0  0  0  0
  -44.6633  -29.6439    6.4432 C   0  0  0  0  0  0  0  0  0  0  0  0
  -44.2239  -31.4330   -1.2696 C   0  0  0  0  0  0  0  0  0  0  0  0
  -44.6489  -29.9698   -1.0595 C   0  0  0  0  0  0  0  0  0  0  0  0
  -45.3449  -31.8045   -0.2865 C   0  0  0  0  0  0  0  0  0  0  0  0
  -46.4501  -29.6683    0.6772 C   0  0  0  0  0  0  0  0  0  0  0  0
  -46.7753  -29.7158    2.1620 C   0  0  0  0  0  0  0  0  0  0  0  0
  -44.3085  -29.0082    2.3007 C   0  0  0  0  0  0  0  0  0  0  0  0
  -43.9913  -30.2651    1.4464 C   0  0  2  0  0  0  0  0  0  0  0  0
  -45.1264  -30.4014    0.3461 C   0  0  0  0  0  0  0  0  0  0  0  0
  -43.8585  -31.5279    2.3476 C   0  0  0  0  0  0  0  0  0  0  0  0
  -45.8167  -29.5445    7.1424 N   0  0  0  0  0  0  0  0  0  0  0  0
  -44.6116  -29.4926    5.0996 N   0  0  0  0  0  0  0  0  0  0  0  0
  -48.2459  -29.0571    6.9483 N   0  0  0  0  0  0  0  0  0  0  0  0
  -45.6474  -29.1705    2.9829 N   0  0  2  0  0  0  0  0  0  0  0  0
  -43.4848  -29.9001    7.1246 N   0  0  0  0  0  0  0  0  0  0  0  0
  -42.9211  -31.3148    3.4013 O   0  0  0  0  0  0  0  0  0  0  0  0
  -48.6924  -28.4014    3.7639 H   0  0  0  0  0  0  0  0  0  0  0  0
  -50.1369  -28.4877    5.9744 H   0  0  0  0  0  0  0  0  0  0  0  0
  -44.3623  -31.8121   -2.2929 H   0  0  0  0  0  0  0  0  0  0  0  0
  -43.2077  -31.6732   -0.9238 H   0  0  0  0  0  0  0  0  0  0  0  0
  -43.8224  -29.2440   -1.0635 H   0  0  0  0  0  0  0  0  0  0  0  0
  -45.4471  -29.6202   -1.7308 H   0  0  0  0  0  0  0  0  0  0  0  0
  -46.3324  -31.9555   -0.7469 H   0  0  0  0  0  0  0  0  0  0  0  0
  -45.1162  -32.6515    0.3769 H   0  0  0  0  0  0  0  0  0  0  0  0
  -47.2691  -30.1460    0.1194 H   0  0  0  0  0  0  0  0  0  0  0  0
  -46.3601  -28.6166    0.3674 H   0  0  0  0  0  0  0  0  0  0  0  0
  -47.6783  -29.1165    2.3506 H   0  0  0  0  0  0  0  0  0  0  0  0
  -46.9602  -30.7597    2.4553 H   0  0  0  0  0  0  0  0  0  0  0  0
  -43.5253  -28.8782    3.0621 H   0  0  0  0  0  0  0  0  0  0  0  0
  -44.3369  -28.1225    1.6490 H   0  0  0  0  0  0  0  0  0  0  0  0
  -43.0333  -30.1036    0.9304 H   0  0  0  0  0  0  0  0  0  0  0  0
  -44.8409  -31.7622    2.7835 H   0  0  0  0  0  0  0  0  0  0  0  0
  -43.5194  -32.3739    1.7317 H   0  0  0  0  0  0  0  0  0  0  0  0
  -48.5357  -29.1638    7.8994 H   0  0  0  0  0  0  0  0  0  0  0  0
  -43.6754  -29.9793    8.1030 H   0  0  0  0  0  0  0  0  0  0  0  0
  -43.0870  -30.7553    6.7923 H   0  0  0  0  0  0  0  0  0  0  0  0
  -42.8596  -32.0987    3.9344 H   0  0  0  0  0  0  0  0  0  0  0  0
  1  2  2  0  0  0  0
  1  3  1  0  0  0  0
  2 18  1  0  0  0  0
  3  4  1  0  0  0  0
  3  5  2  0  0  0  0
  4 16  2  0  0  0  0
  4 18  1  0  0  0  0
  5 17  1  0  0  0  0
  5 19  1  0  0  0  0
  6 16  1  0  0  0  0
  6 17  2  0  0  0  0
  6 20  1  0  0  0  0
  7  8  1  0  0  0  0
  7  9  1  0  0  0  0
  8 14  1  0  0  0  0
  9 14  1  0  0  0  0
 10 11  1  0  0  0  0
 10 14  1  0  0  0  0
 11 19  1  0  0  0  0
 12 13  1  0  0  0  0
 12 19  1  0  0  0  0
 13 14  1  0  0  0  0
 13 15  1  0  0  0  0
 15 21  1  0  0  0  0
  1 22  1  0  0  0  0
  2 23  1  0  0  0  0
  7 24  1  0  0  0  0
  7 25  1  0  0  0  0
  8 26  1  0  0  0  0
  8 27  1  0  0  0  0
  9 28  1  0  0  0  0
  9 29  1  0  0  0  0
 10 30  1  0  0  0  0
 10 31  1  0  0  0  0
 11 32  1  0  0  0  0
 11 33  1  0  0  0  0
 12 34  1  0  0  0  0
 12 35  1  0  0  0  0
 13 36  1  0  0  0  0
 15 37  1  0  0  0  0
 15 38  1  0  0  0  0
 18 39  1  0  0  0  0
 20 40  1  0  0  0  0
 20 41  1  0  0  0  0
 21 42  1  0  0  0  0
M  END
> <POSIT::Probability>
0.99

> <POSIT::Method>
SHAPEFIT

> <ReceptorTitle>
UCSF-P4615-REFINED_LIGAND-BOUND-STATE_A__DU__LA1_A-201(A)

> <OMEGA_C>
DVdBwl1S5cGO8pdAx1JEwvqa5cGcwLxAgtI7wrRs6MFRNKNAjs87whfz6cEzms9AwO82wlK/6cF7
fYxAPqcywrUm7cHfLs5ATuUwwtZ2+8HNgKK/hZgywiXC78Evnoe/JGE1wo1v/sEEspK+8Mw5wplY
7cHeXC0/6Bk7wua57cG6XgpA6DsxwswQ6MEZPxNADPcvwtge8sGpIrk/ZoE0wgY288HAL7E+GW8v
whg5/MGMPhZARkQ3wjFb7MGBjuRAT3Iywsjw68E4MKNAxPtAwvd06MGjWN5A6ZY2wkBd6cGe6D5A
efAtwmkz78Fj/ONAOK8rwqOE+sF0rllA+cRCwvc148Fm5HBAM4xIwuXm48GrLr9A/HIxwi5//sFI
vhLAqtQsws9i/cEAgGy/GkovwsLz6cEjIIi/2ck1whb27MERjN2/ZlQ5ws+k/8HUMj+//XY0wi6b
AsLZ/sA+jhM9wvAq8cG4mvQ9vXA5wtnu5MEkILw+jLY+wq3u6MGjcBZAMtc7wuUT9sHKIx1A3Bku
wpYG58G++ENAAFkxwvT64MFnEdM/FCIswhfU8MFxMG4/DF0zwvQY/sHxJDJA6hMuwtx+AcKtp90/
iSRCwnFP6cE0yPxAnrMuwp/V78EFpgFBE1kswskK9sFUWtlARXArwgplAMIMzXtA

> <OMEGA_E>
ICiEPQ==

> <OMEGA_NBR>
     37129

$$$$
CACHE3HI_1706_73
  -OEChem-03092622513D

 40 42  0     0  0  0  0  0  0999 V2000
  -48.4944  -28.8123    4.8568 C   0  0  0  0  0  0  0  0  0  0  0  0
  -49.1224  -28.6553    6.0681 C   0  0  0  0  0  0  0  0  0  0  0  0
  -47.1108  -29.1638    5.1460 C   0  0  0  0  0  0  0  0  0  0  0  0
  -46.9512  -29.1653    6.5317 C   0  0  0  0  0  0  0  0  0  0  0  0
  -46.0417  -29.5615    4.3449 C   0  0  0  0  0  0  0  0  0  0  0  0
  -44.7099  -29.7421    6.2718 C   0  0  0  0  0  0  0  0  0  0  0  0
  -44.9243  -31.0307   -1.4702 C   0  0  0  0  0  0  0  0  0  0  0  0
  -45.7637  -29.9283   -0.8037 C   0  0  0  0  0  0  0  0  0  0  0  0
  -44.4273  -32.0476   -0.4297 C   0  0  0  0  0  0  0  0  0  0  0  0
  -44.9347  -29.1920    0.2635 C   0  0  0  0  0  0  0  0  0  0  0  0
  -43.5873  -31.3470    0.6512 C   0  0  0  0  0  0  0  0  0  0  0  0
  -44.3361  -30.1565    1.3386 C   0  0  0  0  0  0  0  0  0  0  0  0
  -45.4796  -30.7621    2.2155 C   0  0  0  0  0  0  0  0  0  0  0  0
  -43.2887  -29.3756    2.2046 C   0  0  0  0  0  0  0  0  0  0  0  0
  -45.7542  -29.4519    7.0865 N   0  0  0  0  0  0  0  0  0  0  0  0
  -44.8567  -29.8564    4.9305 N   0  0  0  0  0  0  0  0  0  0  0  0
  -48.1886  -28.8764    7.0817 N   0  0  0  0  0  0  0  0  0  0  0  0
  -43.4480  -29.9209    6.8201 N   0  0  0  0  0  0  0  0  0  0  0  0
  -46.2468  -29.7531    2.9817 N   0  0  0  0  0  0  0  0  0  0  0  0
  -43.8318  -28.2663    2.7761 F   0  0  0  0  0  0  0  0  0  0  0  0
  -42.2597  -28.9417    1.4339 F   0  0  0  0  0  0  0  0  0  0  0  0
  -42.7658  -30.1952    3.1580 F   0  0  0  0  0  0  0  0  0  0  0  0
  -48.9400  -28.6974    3.8797 H   0  0  0  0  0  0  0  0  0  0  0  0
  -50.1627  -28.4035    6.2121 H   0  0  0  0  0  0  0  0  0  0  0  0
  -45.5419  -31.5519   -2.2165 H   0  0  0  0  0  0  0  0  0  0  0  0
  -44.0572  -30.5718   -1.9678 H   0  0  0  0  0  0  0  0  0  0  0  0
  -46.0898  -29.2087   -1.5691 H   0  0  0  0  0  0  0  0  0  0  0  0
  -46.6454  -30.3822   -0.3278 H   0  0  0  0  0  0  0  0  0  0  0  0
  -45.2932  -32.5336    0.0436 H   0  0  0  0  0  0  0  0  0  0  0  0
  -43.8099  -32.8069   -0.9320 H   0  0  0  0  0  0  0  0  0  0  0  0
  -44.1078  -28.6654   -0.2355 H   0  0  0  0  0  0  0  0  0  0  0  0
  -45.5828  -28.4610    0.7691 H   0  0  0  0  0  0  0  0  0  0  0  0
  -43.3231  -32.0858    1.4221 H   0  0  0  0  0  0  0  0  0  0  0  0
  -42.6695  -30.9599    0.1844 H   0  0  0  0  0  0  0  0  0  0  0  0
  -46.1763  -31.2981    1.5541 H   0  0  0  0  0  0  0  0  0  0  0  0
  -45.0317  -31.4708    2.9276 H   0  0  0  0  0  0  0  0  0  0  0  0
  -48.3845  -28.8325    8.0614 H   0  0  0  0  0  0  0  0  0  0  0  0
  -43.4948  -29.8009    7.8117 H   0  0  0  0  0  0  0  0  0  0  0  0
  -43.1215  -30.8427    6.6110 H   0  0  0  0  0  0  0  0  0  0  0  0
  -47.2120  -29.9909    2.8728 H   0  0  0  0  0  0  0  0  0  0  0  0
  1  2  2  0  0  0  0
  1  3  1  0  0  0  0
  2 17  1  0  0  0  0
  3  4  1  0  0  0  0
  3  5  2  0  0  0  0
  4 15  2  0  0  0  0
  4 17  1  0  0  0  0
  5 16  1  0  0  0  0
  5 19  1  0  0  0  0
  6 15  1  0  0  0  0
  6 16  2  0  0  0  0
  6 18  1  0  0  0  0
  7  8  1  0  0  0  0
  7  9  1  0  0  0  0
  8 10  1  0  0  0  0
  9 11  1  0  0  0  0
 10 12  1  0  0  0  0
 11 12  1  0  0  0  0
 12 13  1  0  0  0  0
 12 14  1  0  0  0  0
 13 19  1  0  0  0  0
 14 20  1  0  0  0  0
 14 21  1  0  0  0  0
 14 22  1  0  0  0  0
  1 23  1  0  0  0  0
  2 24  1  0  0  0  0
  7 25  1  0  0  0  0
  7 26  1  0  0  0  0
  8 27  1  0  0  0  0
  8 28  1  0  0  0  0
  9 29  1  0  0  0  0
  9 30  1  0  0  0  0
 10 31  1  0  0  0  0
 10 32  1  0  0  0  0
 11 33  1  0  0  0  0
 11 34  1  0  0  0  0
 13 35  1  0  0  0  0
 13 36  1  0  0  0  0
 17 37  1  0  0  0  0
 18 38  1  0  0  0  0
 18 39  1  0  0  0  0
 19 40  1  0  0  0  0
M  END
> <POSIT::Probability>
0.79

> <POSIT::Method>
SHAPEFIT

> <ReceptorTitle>
UCSF-P4615-REFINED_LIGAND-BOUND-STATE_A__DU__LA1_A-201(A)

> <OMEGA_C>
S/pBwpV/5sHXaptATX1Ewh4+5cFGLsJAcHE8wpBP6cFHrKRAE847woBS6cGeA9FAvyo4wul97MEk
CYtA5tYywsTv7cGZsshAdbIzwuo++MGfLry//g03wiht78Eyvk2/i7UxwrcwAMLs/tu+Lr0zwiCJ
6cEs5YY+aFkuwqPG+sHRsiY/LlgxwoxA8cElWKs/Ies1wt4Y9sEryg1ApictwkoB68GuGA1ASgQ3
woSd68HtxOJANm0zwtXZ7sFcxp1AJMFAws8C58GAneJAucotwhZe78HsPdpAsvw4wmcG7sGf0z5A
xVMvwnoh4sEOrDFA5AkpwpuI58EPibc/KBArwq2P8cE2HUpAg8JDwkaU5cEITXhAlaZIwk4648E3
ycZA4yo2wktq/MFU2g3AljowwhCT9MHs3/u/8ls4woKr6cGt2Mi/5ZQ6wtgO88EH1qe+RSw1wlsi
AsI+dTI9Xj0vwjo6A8IamW6/bG4wwshS5cHLKXG+zVQ2whyw48H95UQ/4kotwtZXAMKxCLY/l60q
wu2t98E23Dw+kbQ4wm9i+sFu7cY/ayA0whzE+8F9XjtAwYlBwv6o5sFb+wBBq/otwkJo7sGk+flA
Xnwswum99sGajdNADtk8wlvt78El2zdA

> <OMEGA_E>
VJ0fPw==

> <OMEGA_NBR>
     38448

$$$$
CACHE3HI_1707_93
  -OEChem-03092622513D

 36 37  0     1  0  0  0  0  0999 V2000
  -45.4745  -33.8114    0.9245 C   0  0  0  0  0  0  0  0  0  0  0  0
  -46.7377  -33.5318    0.4571 C   0  0  0  0  0  0  0  0  0  0  0  0
  -44.9407  -32.5807    1.3748 C   0  0  0  0  0  0  0  0  0  0  0  0
  -45.9153  -31.6365    1.1508 C   0  0  0  0  0  0  0  0  0  0  0  0
  -43.6214  -32.3194    1.9668 C   0  0  0  0  0  0  0  0  0  0  0  0
  -40.7808  -30.4170    0.5846 C   0  0  0  0  0  0  0  0  0  0  0  0
  -43.0974  -30.7212    0.0562 C   0  0  0  0  0  0  0  0  0  0  0  0
  -41.9464  -29.7516   -0.1342 C   0  0  1  0  0  0  0  0  0  0  0  0
  -41.4424  -31.1166    1.7756 C   0  0  1  0  0  0  0  0  0  0  0  0
  -47.9711  -30.3432    2.9917 C   0  0  0  0  0  0  0  0  0  0  0  0
  -45.9940  -30.1873    1.3903 C   0  0  0  0  0  0  0  0  0  0  0  0
  -41.4719  -30.2320    3.0216 C   0  0  0  0  0  0  0  0  0  0  0  0
  -47.4234  -29.7104    1.7224 C   0  0  0  0  0  0  0  0  0  0  0  0
  -42.7926  -31.4257    1.3020 N   0  0  0  0  0  0  0  0  0  0  0  0
  -43.3516  -32.9042    3.0135 O   0  0  0  0  0  0  0  0  0  0  0  0
  -47.0140  -32.2082    0.5920 O   0  0  0  0  0  0  0  0  0  0  0  0
  -40.1393  -29.9146    3.3781 O   0  0  0  0  0  0  0  0  0  0  0  0
  -42.2474  -28.5822    0.4915 F   0  0  0  0  0  0  0  0  0  0  0  0
  -45.0020  -34.7833    0.9369 H   0  0  0  0  0  0  0  0  0  0  0  0
  -47.5235  -34.1314    0.0214 H   0  0  0  0  0  0  0  0  0  0  0  0
  -40.3224  -31.1664   -0.0717 H   0  0  0  0  0  0  0  0  0  0  0  0
  -40.0166  -29.6955    0.8878 H   0  0  0  0  0  0  0  0  0  0  0  0
  -44.0657  -30.2187    0.1340 H   0  0  0  0  0  0  0  0  0  0  0  0
  -43.1292  -31.4679   -0.7444 H   0  0  0  0  0  0  0  0  0  0  0  0
  -41.7345  -29.5321   -1.1836 H   0  0  0  0  0  0  0  0  0  0  0  0
  -40.9223  -32.0497    2.0186 H   0  0  0  0  0  0  0  0  0  0  0  0
  -47.3166  -30.1179    3.8398 H   0  0  0  0  0  0  0  0  0  0  0  0
  -48.9697  -29.9588    3.2222 H   0  0  0  0  0  0  0  0  0  0  0  0
  -48.0359  -31.4312    2.8914 H   0  0  0  0  0  0  0  0  0  0  0  0
  -45.6272  -29.6168    0.5123 H   0  0  0  0  0  0  0  0  0  0  0  0
  -45.3198  -29.8809    2.2163 H   0  0  0  0  0  0  0  0  0  0  0  0
  -41.9489  -30.7651    3.8428 H   0  0  0  0  0  0  0  0  0  0  0  0
  -42.0181  -29.3130    2.8107 H   0  0  0  0  0  0  0  0  0  0  0  0
  -48.0920  -29.9472    0.8859 H   0  0  0  0  0  0  0  0  0  0  0  0
  -47.4295  -28.6196    1.8336 H   0  0  0  0  0  0  0  0  0  0  0  0
  -40.1817  -29.3529    4.1708 H   0  0  0  0  0  0  0  0  0  0  0  0
  1  2  2  0  0  0  0
  1  3  1  0  0  0  0
  2 16  1  0  0  0  0
  3  4  2  0  0  0  0
  3  5  1  0  0  0  0
  4 11  1  0  0  0  0
  4 16  1  0  0  0  0
  5 14  1  0  0  0  0
  5 15  2  0  0  0  0
  6  8  1  0  0  0  0
  6  9  1  0  0  0  0
  7  8  1  0  0  0  0
  7 14  1  0  0  0  0
  8 18  1  0  0  0  0
  9 12  1  0  0  0  0
  9 14  1  0  0  0  0
 10 13  1  0  0  0  0
 11 13  1  0  0  0  0
 12 17  1  0  0  0  0
  1 19  1  0  0  0  0
  2 20  1  0  0  0  0
  6 21  1  0  0  0  0
  6 22  1  0  0  0  0
  7 23  1  0  0  0  0
  7 24  1  0  0  0  0
  8 25  1  0  0  0  0
  9 26  1  0  0  0  0
 10 27  1  0  0  0  0
 10 28  1  0  0  0  0
 10 29  1  0  0  0  0
 11 30  1  0  0  0  0
 11 31  1  0  0  0  0
 12 32  1  0  0  0  0
 12 33  1  0  0  0  0
 13 34  1  0  0  0  0
 13 35  1  0  0  0  0
 17 36  1  0  0  0  0
M  END
> <POSIT::Probability>
0.02

> <POSIT::Method>
FRED

> <ReceptorTitle>
UCSF-P4615-REFINED_LIGAND-BOUND-STATE_A__DU__LA1_A-201(A)

> <OMEGA_C>
6eU1wug+B8LwrGw/X/M6wo8gBsIwCOo+O8MzwqpSAsKI+q8/Rqk3wp4X/cGoTZM/UXwuwhdHAcKg
wfs/jB8jwhxW88EwpRU/vGMswh7F9cGAW2Y9FcknwkID7sGAYgm+CsUlwr7u+MGYRuM/aOI/wse+
8sFMeD9A1vk3wqR/8cFs9rE/MeMlwhTb8cEgYUFAi7E9wvyu7cGYd9w/nisrwtxn+8FAp6Y/FGgt
wuCdA8Jc3UBAVA48wjjVAMIQjBc/mI4gwhhR78FgM1hAYP0owmao5MHgofs+DQI0whAiC8Jo128/
Cxg+wpCGCMIAnK88K0ohwsxU+cGA1JK9CBEgwlqQ7cG4RWM/OkMwws6/8cHAPAk+ToQswlm++8Gw
kD6/JvAmwshB7MFIf5e/b7AjwuQyAMKMMAFAL0Q9wojx8MFyv3VA8OBDwqer78GwOE5AzSRAwhJz
+8H8CzlAOoI2wiXv7MEQKQM/fUc1wiMM78FE1w1Apssnwu4e9sHk73VAjBIowv2A6sE64jNANF5A
wt6T78E4x2I/0Lc9wgT15MEQtOo/DrogwtXS6sFdd4VA

> <OMEGA_E>
YIv4wA==

> <OMEGA_NBR>
     39662

$$$$
CACHE3HI_1708_14
  -OEChem-03092622513D

 38 39  0     1  0  0  0  0  0999 V2000
  -44.0610  -29.7152    5.1133 C   0  0  0  0  0  0  0  0  0  0  0  0
  -44.4013  -29.5814    6.4438 C   0  0  0  0  0  0  0  0  0  0  0  0
  -45.1025  -29.6001    4.2156 C   0  0  0  0  0  0  0  0  0  0  0  0
  -46.5864  -29.2604    5.9044 C   0  0  0  0  0  0  0  0  0  0  0  0
  -44.6468  -31.0336    0.7542 C   0  0  0  0  0  0  0  0  0  0  0  0
  -45.4202  -30.7881    2.0556 C   0  0  0  0  0  0  0  0  0  0  0  0
  -44.0725  -28.6843    2.1384 C   0  0  0  0  0  0  0  0  0  0  0  0
  -42.9203  -29.2833    1.3106 C   0  0  2  0  0  0  0  0  0  0  0  0
  -43.1676  -30.7529    0.9525 C   0  0  0  0  0  0  0  0  0  0  0  0
  -49.0251  -29.6666    5.4146 C   0  0  0  0  0  0  0  0  0  0  0  0
  -48.2984  -27.5046    6.4894 C   0  0  0  0  0  0  0  0  0  0  0  0
  -41.5705  -29.1100    2.0060 C   0  0  0  0  0  0  0  0  0  0  0  0
  -47.9886  -29.0073    6.3439 C   0  0  0  0  0  0  0  0  0  0  0  0
  -45.6587  -29.3526    6.8763 N   0  0  0  0  0  0  0  0  0  0  0  0
  -46.3823  -29.3722    4.5776 N   0  0  0  0  0  0  0  0  0  0  0  0
  -44.7991  -29.7284    2.8627 N   0  0  3  0  0  0  0  0  0  0  0  0
  -41.4527  -30.1059    3.0033 O   0  0  0  0  0  0  0  0  0  0  0  0
  -42.4749  -31.0742   -0.1666 F   0  0  0  0  0  0  0  0  0  0  0  0
  -42.7057  -31.5667    1.9384 F   0  0  0  0  0  0  0  0  0  0  0  0
  -43.0381  -29.8976    4.8082 H   0  0  0  0  0  0  0  0  0  0  0  0
  -43.6501  -29.6582    7.2229 H   0  0  0  0  0  0  0  0  0  0  0  0
  -44.7972  -32.0589    0.4153 H   0  0  0  0  0  0  0  0  0  0  0  0
  -45.0416  -30.3790   -0.0237 H   0  0  0  0  0  0  0  0  0  0  0  0
  -46.4576  -30.5093    1.8184 H   0  0  0  0  0  0  0  0  0  0  0  0
  -45.4587  -31.7292    2.6228 H   0  0  0  0  0  0  0  0  0  0  0  0
  -43.6663  -27.9403    2.8381 H   0  0  0  0  0  0  0  0  0  0  0  0
  -44.7642  -28.1523    1.4696 H   0  0  0  0  0  0  0  0  0  0  0  0
  -42.8566  -28.7186    0.3589 H   0  0  0  0  0  0  0  0  0  0  0  0
  -48.9259  -29.2788    4.3946 H   0  0  0  0  0  0  0  0  0  0  0  0
  -48.8933  -30.7534    5.3737 H   0  0  0  0  0  0  0  0  0  0  0  0
  -50.0500  -29.4689    5.7481 H   0  0  0  0  0  0  0  0  0  0  0  0
  -48.1621  -26.9737    5.5406 H   0  0  0  0  0  0  0  0  0  0  0  0
  -49.3361  -27.3582    6.8100 H   0  0  0  0  0  0  0  0  0  0  0  0
  -47.6488  -27.0291    7.2326 H   0  0  0  0  0  0  0  0  0  0  0  0
  -41.5193  -28.1257    2.4664 H   0  0  0  0  0  0  0  0  0  0  0  0
  -40.7669  -29.2244    1.2809 H   0  0  0  0  0  0  0  0  0  0  0  0
  -48.1540  -29.4492    7.3453 H   0  0  0  0  0  0  0  0  0  0  0  0
  -40.5895  -29.9799    3.4340 H   0  0  0  0  0  0  0  0  0  0  0  0
  1  2  1  0  0  0  0
  1  3  2  0  0  0  0
  2 14  2  0  0  0  0
  3 15  1  0  0  0  0
  3 16  1  0  0  0  0
  4 13  1  0  0  0  0
  4 14  1  0  0  0  0
  4 15  2  0  0  0  0
  5  6  1  0  0  0  0
  5  9  1  0  0  0  0
  6 16  1  0  0  0  0
  7  8  1  0  0  0  0
  7 16  1  0  0  0  0
  8  9  1  0  0  0  0
  8 12  1  0  0  0  0
  9 18  1  0  0  0  0
  9 19  1  0  0  0  0
 10 13  1  0  0  0  0
 11 13  1  0  0  0  0
 12 17  1  0  0  0  0
  1 20  1  0  0  0  0
  2 21  1  0  0  0  0
  5 22  1  0  0  0  0
  5 23  1  0  0  0  0
  6 24  1  0  0  0  0
  6 25  1  0  0  0  0
  7 26  1  0  0  0  0
  7 27  1  0  0  0  0
  8 28  1  0  0  0  0
 10 29  1  0  0  0  0
 10 30  1  0  0  0  0
 10 31  1  0  0  0  0
 11 32  1  0  0  0  0
 11 33  1  0  0  0  0
 11 34  1  0  0  0  0
 12 35  1  0  0  0  0
 12 36  1  0  0  0  0
 13 37  1  0  0  0  0
 17 38  1  0  0  0  0
M  END
> <POSIT::Probability>
0.23

> <POSIT::Method>
HYBRID

> <ReceptorTitle>
UCSF-P4615-REFINED_LIGAND-BOUND-STATE_A__DU__LA1_A-201(A)

> <OMEGA_C>
dj4wwtS47cHdn6NA55oxwqqm7MFsM85A62g0wvnM7MFO5oZAe1g6wk8V6sGj8LxASpYywsVE+ME4
FEE/Tq41wgdO9sHKjgNAOEowwod55cFE2whAba4rwi5E6sG0wKc/nKsswt8F9sHo1XM/shlEwjJV
7cEvRK1AjTFBwnEJ3MEGqc9AO0gmwjHh6MHKYgBAUfQ/wv0O6MH3AMtAgaI2wiLS6sHaCtxAdYc5
wlr66sF9e5JAUzIzwtvT7cFENzdAhc8lwt/Y8MG4NkBATeYpwu6X+MFAmSq+ntIqwoyI/MFQHvg/
BScswkwu78GM3JlAwJkuwutD7cHwIedASTAzwlE8AMLgotQ+lCo0wkUI88EA/sG8ndQ5whQT9MFE
weg/uNU1wljV/cF02ydASqouwtCF38EMozVAjA4zwuA34cG4G7w/Mm0rwq6/5cFQvrc+HrRDwv46
6sGVoIxAyZJDwuAG9sGA9atAOTNIwjnA68EJ8LdAAqZAwi7K18GwTLFAKFhFwpvd2sE269lAYZg+
woM72MGdcedAzBMmwmEB4cEe2h1AWREjwnnL6cEI9aM/u51AwgGY68HoDOtAsVsiwrzW78HwxVtA

> <OMEGA_E>
tWvswA==

> <OMEGA_NBR>
     40919

$$$$
CACHE3HI_1708_23
  -OEChem-03092622513D

 36 38  0     1  0  0  0  0  0999 V2000
  -50.2473  -29.5216    3.9464 C   0  0  0  0  0  0  0  0  0  0  0  0
  -49.1431  -29.4630    3.1938 C   0  0  0  0  0  0  0  0  0  0  0  0
  -45.3674  -29.4789    5.0335 C   0  0  0  0  0  0  0  0  0  0  0  0
  -48.9527  -29.5965    5.9727 C   0  0  0  0  0  0  0  0  0  0  0  0
  -50.1528  -29.5907    5.3795 C   0  0  0  0  0  0  0  0  0  0  0  0
  -45.4972  -29.4154    3.6937 C   0  0  0  0  0  0  0  0  0  0  0  0
  -47.7994  -29.4684    3.8445 C   0  0  0  0  0  0  0  0  0  0  0  0
  -46.5538  -29.5455    5.9171 C   0  0  0  0  0  0  0  0  0  0  0  0
  -42.9785  -28.0522    1.3724 C   0  0  0  0  0  0  0  0  0  0  0  0
  -41.8588  -29.0914    1.3843 C   0  0  0  0  0  0  0  0  0  0  0  0
  -44.3471  -28.6638    1.6443 C   0  0  0  0  0  0  0  0  0  0  0  0
  -43.1168  -29.9875    3.3910 C   0  0  0  0  0  0  0  0  0  0  0  0
  -42.2088  -30.3384    2.2076 C   0  0  2  0  0  0  0  0  0  0  0  0
  -40.9414  -31.0507    2.6774 C   0  0  0  0  0  0  0  0  0  0  0  0
  -46.7408  -29.4107    3.0939 N   0  0  0  0  0  0  0  0  0  0  0  0
  -47.7718  -29.5369    5.2407 N   0  0  0  0  0  0  0  0  0  0  0  0
  -44.3612  -29.3558    2.9362 N   0  0  3  0  0  0  0  0  0  0  0  0
  -46.3902  -29.6016    7.1341 O   0  0  0  0  0  0  0  0  0  0  0  0
  -40.1887  -30.1514    3.4702 O   0  0  0  0  0  0  0  0  0  0  0  0
  -51.6053  -29.6654    6.3009 Cl  0  0  0  0  0  0  0  0  0  0  0  0
  -51.2254  -29.5177    3.4772 H   0  0  0  0  0  0  0  0  0  0  0  0
  -49.1946  -29.4107    2.1125 H   0  0  0  0  0  0  0  0  0  0  0  0
  -44.3954  -29.4835    5.5172 H   0  0  0  0  0  0  0  0  0  0  0  0
  -48.8571  -29.6481    7.0524 H   0  0  0  0  0  0  0  0  0  0  0  0
  -42.7649  -27.2768    2.1239 H   0  0  0  0  0  0  0  0  0  0  0  0
  -42.9919  -27.5399    0.3969 H   0  0  0  0  0  0  0  0  0  0  0  0
  -41.6200  -29.3807    0.3454 H   0  0  0  0  0  0  0  0  0  0  0  0
  -40.9401  -28.6248    1.7852 H   0  0  0  0  0  0  0  0  0  0  0  0
  -45.1187  -27.8795    1.6501 H   0  0  0  0  0  0  0  0  0  0  0  0
  -44.6052  -29.3484    0.8227 H   0  0  0  0  0  0  0  0  0  0  0  0
  -43.3309  -30.9003    3.9707 H   0  0  0  0  0  0  0  0  0  0  0  0
  -42.6042  -29.2994    4.0831 H   0  0  0  0  0  0  0  0  0  0  0  0
  -42.7563  -31.0401    1.5498 H   0  0  0  0  0  0  0  0  0  0  0  0
  -40.3486  -31.3576    1.8168 H   0  0  0  0  0  0  0  0  0  0  0  0
  -41.2062  -31.9235    3.2738 H   0  0  0  0  0  0  0  0  0  0  0  0
  -39.3891  -30.6243    3.7575 H   0  0  0  0  0  0  0  0  0  0  0  0
  1  2  2  0  0  0  0
  1  5  1  0  0  0  0
  2  7  1  0  0  0  0
  3  6  2  0  0  0  0
  3  8  1  0  0  0  0
  4  5  2  0  0  0  0
  4 16  1  0  0  0  0
  5 20  1  0  0  0  0
  6 15  1  0  0  0  0
  6 17  1  0  0  0  0
  7 15  2  0  0  0  0
  7 16  1  0  0  0  0
  8 16  1  0  0  0  0
  8 18  2  0  0  0  0
  9 10  1  0  0  0  0
  9 11  1  0  0  0  0
 10 13  1  0  0  0  0
 11 17  1  0  0  0  0
 12 13  1  0  0  0  0
 12 17  1  0  0  0  0
 13 14  1  0  0  0  0
 14 19  1  0  0  0  0
  1 21  1  0  0  0  0
  2 22  1  0  0  0  0
  3 23  1  0  0  0  0
  4 24  1  0  0  0  0
  9 25  1  0  0  0  0
  9 26  1  0  0  0  0
 10 27  1  0  0  0  0
 10 28  1  0  0  0  0
 11 29  1  0  0  0  0
 11 30  1  0  0  0  0
 12 31  1  0  0  0  0
 12 32  1  0  0  0  0
 13 33  1  0  0  0  0
 14 34  1  0  0  0  0
 14 35  1  0  0  0  0
 19 36  1  0  0  0  0
M  END
> <POSIT::Probability>
0.24

> <POSIT::Method>
FRED

> <ReceptorTitle>
UCSF-P4615-REFINED_LIGAND-BOUND-STATE_A__DU__LA1_A-201(A)

> <OMEGA_C>
N/1IwjYs7MHIkXxAhpJEwiy068EgZ0xAK3g1wrrU68GkEqFAiM9DwpDF7MGyIL9Ag5xIwr657MF3
JKxAK/01wsxS68H4ZGxAlDI/wki/68F+DHZAFDc6wjFd7MGxWL1A/ukrwgJr4MEIrK8/aW8nwim7
6MGQMLE/amMxwoFP5cH4edI/lncswmLm78H8BVlAxtUowgC18sGkSQ1A/cMjwu1n+MGsWitAl/Y6
whBJ68F2AkZAUhY/wpBL7MHLs6dA2HExwqzY6sFg6jtAko85whvQ7MGTSuRAPMEgwhk28cFYF15A
3GtOwqhS7cHXoMlA2eZMwjIk7MH8il5AScdEwhRJ68HOMgdA35QxwjTe68GIjLBAsG1DwkIv7cGi
reFASg8rwuE22sEY7gdAsPcrwqpR3MGQMss+2nomwpwL68EQ2LA+qsIjwpL/5MH0geQ/j3k0wjAJ
38H4N9M/u2sywnLJ6sEInFI/01Itwroz98HQH35At2oqwhZl6sENqYJAaQYrwjhS+MEsYcY/8GQh
wkfc+sHkjOg/K9MkwkFj/8HkhVFAao4dwqD+9MFaenBA

> <OMEGA_E>
zn8IwQ==

> <OMEGA_NBR>
     42136

$$$$
CACHE3HI_1708_69
  -OEChem-03092622513D

 36 38  0     1  0  0  0  0  0999 V2000
  -44.7015  -29.5957    6.3634 C   0  0  0  0  0  0  0  0  0  0  0  0
  -47.6021  -29.0913    2.9508 C   0  0  0  0  0  0  0  0  0  0  0  0
  -47.0618  -29.1891    5.0799 C   0  0  0  0  0  0  0  0  0  0  0  0
  -45.8772  -29.3741    4.3657 C   0  0  0  0  0  0  0  0  0  0  0  0
  -47.0144  -29.2116    6.4848 C   0  0  0  0  0  0  0  0  0  0  0  0
  -44.9745  -29.3515   -0.6472 C   0  0  0  0  0  0  0  0  0  0  0  0
  -45.9680  -29.2037    0.5227 C   0  0  0  0  0  0  0  0  0  0  0  0
  -44.5520  -30.8182    1.9062 C   0  0  0  0  0  0  0  0  0  0  0  0
  -44.2902  -30.7472   -0.6593 C   0  0  1  0  0  0  0  0  0  0  0  0
  -45.2592  -29.4332    1.8861 C   0  0  2  0  0  0  0  0  0  0  0  0
  -43.5784  -30.9697    0.7082 C   0  0  2  0  0  0  0  0  0  0  0  0
  -45.3080  -31.8870   -0.9726 C   0  0  0  0  0  0  0  0  0  0  0  0
  -44.7057  -29.5705    5.0065 N   0  0  0  0  0  0  0  0  0  0  0  0
  -45.8286  -29.4186    7.1065 N   0  0  0  0  0  0  0  0  0  0  0  0
  -48.0963  -29.0137    4.1680 N   0  0  0  0  0  0  0  0  0  0  0  0
  -46.2222  -29.3098    3.0310 N   0  0  0  0  0  0  0  0  0  0  0  0
  -48.1716  -29.0242    7.2323 N   0  0  0  0  0  0  0  0  0  0  0  0
  -42.9684  -32.2614    0.7513 O   0  0  0  0  0  0  0  0  0  0  0  0
  -46.0658  -31.5859   -2.1432 O   0  0  0  0  0  0  0  0  0  0  0  0
  -43.7653  -29.7633    6.8750 H   0  0  0  0  0  0  0  0  0  0  0  0
  -48.1702  -29.0009    2.0368 H   0  0  0  0  0  0  0  0  0  0  0  0
  -45.5179  -29.2144   -1.5937 H   0  0  0  0  0  0  0  0  0  0  0  0
  -44.1990  -28.5769   -0.5542 H   0  0  0  0  0  0  0  0  0  0  0  0
  -46.3960  -28.1905    0.5057 H   0  0  0  0  0  0  0  0  0  0  0  0
  -46.7734  -29.9439    0.4066 H   0  0  0  0  0  0  0  0  0  0  0  0
  -43.9852  -30.9178    2.8436 H   0  0  0  0  0  0  0  0  0  0  0  0
  -45.3132  -31.6104    1.8520 H   0  0  0  0  0  0  0  0  0  0  0  0
  -43.5237  -30.7468   -1.4483 H   0  0  0  0  0  0  0  0  0  0  0  0
  -44.4855  -28.6593    1.9972 H   0  0  0  0  0  0  0  0  0  0  0  0
  -42.8014  -30.1976    0.8088 H   0  0  0  0  0  0  0  0  0  0  0  0
  -44.7586  -32.8267   -1.1312 H   0  0  0  0  0  0  0  0  0  0  0  0
  -45.9932  -32.0023   -0.1198 H   0  0  0  0  0  0  0  0  0  0  0  0
  -47.9511  -29.0720    8.2065 H   0  0  0  0  0  0  0  0  0  0  0  0
  -48.5623  -28.1279    7.0227 H   0  0  0  0  0  0  0  0  0  0  0  0
  -42.3719  -32.3550    0.0178 H   0  0  0  0  0  0  0  0  0  0  0  0
  -46.6780  -32.2918   -2.3150 H   0  0  0  0  0  0  0  0  0  0  0  0
  1 13  2  0  0  0  0
  1 14  1  0  0  0  0
  2 15  2  0  0  0  0
  2 16  1  0  0  0  0
  3  4  2  0  0  0  0
  3  5  1  0  0  0  0
  3 15  1  0  0  0  0
  4 13  1  0  0  0  0
  4 16  1  0  0  0  0
  5 14  2  0  0  0  0
  5 17  1  0  0  0  0
  6  7  1  0  0  0  0
  6  9  1  0  0  0  0
  7 10  1  0  0  0  0
  8 10  1  0  0  0  0
  8 11  1  0  0  0  0
  9 11  1  0  0  0  0
  9 12  1  0  0  0  0
 10 16  1  0  0  0  0
 11 18  1  0  0  0  0
 12 19  1  0  0  0  0
  1 20  1  0  0  0  0
  2 21  1  0  0  0  0
  6 22  1  0  0  0  0
  6 23  1  0  0  0  0
  7 24  1  0  0  0  0
  7 25  1  0  0  0  0
  8 26  1  0  0  0  0
  8 27  1  0  0  0  0
  9 28  1  0  0  0  0
 10 29  1  0  0  0  0
 11 30  1  0  0  0  0
 12 31  1  0  0  0  0
 12 32  1  0  0  0  0
 17 33  1  0  0  0  0
 17 34  1  0  0  0  0
 18 35  1  0  0  0  0
 19 36  1  0  0  0  0
M  END
> <POSIT::Probability>
0.51

> <POSIT::Method>
SHAPEFIT

> <ReceptorTitle>
UCSF-P4615-REFINED_LIGAND-BOUND-STATE_A__DU__LA1_A-201(A)

> <OMEGA_C>
VM4ywhXE7MHGoMtAimg+wv266MGc2TxART88wjCD6cGRjqJAO4I3wib+6sF3s4tAsg48wlSx6cFf
g89A3OUzwsfP6sEGriW/P983wi6h6cGu0QU/OzUywreL9sF4/fM/Lykxwj/69cEkyCi/dwk1wkl3
68FUavE/TlAuwu3B98EQSjU/YDs1wqMY/8Hc+3i/ltIywnqQ7MGeNaBAe1A3wj1Z68HAaONAnmJA
wgkc6MEKYIVAlOM4wn166sFG+0FAwK9AwqMx6MEVb+dAmd8rwqwLAcJIU0A/bkM4wt2v/MFDKgnA
ng8vwjkb7sEqANxAT65AwswB6MEuWgJAVhI2wie36cGp/su/xsswwmyd5MFh3Q2/f5U5wi6G4cEl
dAE/7Rc7wiqN78G2M9A+2fAvwrtX98Ek/jVAvkA1wiLi/MEDDu0/TRguwlr59cGAYbm/IPExwldG
5cENpf8/pDQrwrOU8cHNDk8/zwgzwpFOA8Ipy5C/Bvk3wmYCAMKsavW9980/woKT6MHvTQNBxj9C
wuoF4cGhueBAzXwpwo1rAcIXApI8OrY6wsgqAcIbKRTA

> <OMEGA_E>
gt2EPw==

> <OMEGA_NBR>
     43382

$$$$
CACHE3HI_1708_86
  -OEChem-03092622513D

 35 37  0     1  0  0  0  0  0999 V2000
  -44.5862  -29.5551    6.6903 C   0  0  0  0  0  0  0  0  0  0  0  0
  -46.7357  -29.2696    6.3402 C   0  0  0  0  0  0  0  0  0  0  0  0
  -48.0446  -28.9448    3.9484 C   0  0  0  0  0  0  0  0  0  0  0  0
  -46.6752  -29.1766    3.8966 C   0  0  0  0  0  0  0  0  0  0  0  0
  -48.7619  -28.9411    5.2434 C   0  0  0  0  0  0  0  0  0  0  0  0
  -46.1691  -30.6764    0.4681 C   0  0  0  0  0  0  0  0  0  0  0  0
  -46.8530  -29.6435    1.3903 C   0  0  0  0  0  0  0  0  0  0  0  0
  -44.6186  -28.9725    2.3413 C   0  0  0  0  0  0  0  0  0  0  0  0
  -43.9113  -30.1037    1.5403 C   0  0  2  0  0  0  0  0  0  0  0  0
  -44.6763  -30.3683    0.2039 C   0  0  0  0  0  0  0  0  0  0  0  0
  -50.2641  -28.8035    5.2574 C   0  0  0  0  0  0  0  0  0  0  0  0
  -43.8219  -31.4003    2.3962 C   0  0  0  0  0  0  0  0  0  0  0  0
  -45.8489  -29.4240    7.2901 N   0  0  0  0  0  0  0  0  0  0  0  0
  -44.7086  -29.4964    5.3811 N   0  0  0  0  0  0  0  0  0  0  0  0
  -48.1159  -29.1056    6.3771 N   0  0  0  0  0  0  0  0  0  0  0  0
  -46.0238  -29.3075    5.1570 N   0  0  0  0  0  0  0  0  0  0  0  0
  -46.0385  -29.3582    2.6255 N   0  0  3  0  0  0  0  0  0  0  0  0
  -43.0467  -31.1751    3.5676 O   0  0  0  0  0  0  0  0  0  0  0  0
  -44.1360  -31.4326   -0.4523 F   0  0  0  0  0  0  0  0  0  0  0  0
  -44.5669  -29.2838   -0.6120 F   0  0  0  0  0  0  0  0  0  0  0  0
  -43.6554  -29.6844    7.2225 H   0  0  0  0  0  0  0  0  0  0  0  0
  -48.5911  -28.7656    3.0343 H   0  0  0  0  0  0  0  0  0  0  0  0
  -46.2428  -31.6676    0.9391 H   0  0  0  0  0  0  0  0  0  0  0  0
  -46.6988  -30.6882   -0.4959 H   0  0  0  0  0  0  0  0  0  0  0  0
  -46.9904  -28.7058    0.8319 H   0  0  0  0  0  0  0  0  0  0  0  0
  -47.8343  -30.0357    1.6955 H   0  0  0  0  0  0  0  0  0  0  0  0
  -44.0876  -28.8115    3.2910 H   0  0  0  0  0  0  0  0  0  0  0  0
  -44.6042  -28.0443    1.7512 H   0  0  0  0  0  0  0  0  0  0  0  0
  -42.8903  -29.7742    1.2975 H   0  0  0  0  0  0  0  0  0  0  0  0
  -50.6289  -28.8656    6.2933 H   0  0  0  0  0  0  0  0  0  0  0  0
  -50.5472  -27.8317    4.8268 H   0  0  0  0  0  0  0  0  0  0  0  0
  -50.7119  -29.6128    4.6620 H   0  0  0  0  0  0  0  0  0  0  0  0
  -44.8359  -31.7113    2.6881 H   0  0  0  0  0  0  0  0  0  0  0  0
  -43.3520  -32.1958    1.7993 H   0  0  0  0  0  0  0  0  0  0  0  0
  -43.0027  -31.9754    4.0774 H   0  0  0  0  0  0  0  0  0  0  0  0
  1 13  1  0  0  0  0
  1 14  2  0  0  0  0
  2 13  2  0  0  0  0
  2 15  1  0  0  0  0
  2 16  1  0  0  0  0
  3  4  2  0  0  0  0
  3  5  1  0  0  0  0
  4 16  1  0  0  0  0
  4 17  1  0  0  0  0
  5 11  1  0  0  0  0
  5 15  2  0  0  0  0
  6  7  1  0  0  0  0
  6 10  1  0  0  0  0
  7 17  1  0  0  0  0
  8  9  1  0  0  0  0
  8 17  1  0  0  0  0
  9 10  1  0  0  0  0
  9 12  1  0  0  0  0
 10 19  1  0  0  0  0
 10 20  1  0  0  0  0
 12 18  1  0  0  0  0
 14 16  1  0  0  0  0
  1 21  1  0  0  0  0
  3 22  1  0  0  0  0
  6 23  1  0  0  0  0
  6 24  1  0  0  0  0
  7 25  1  0  0  0  0
  7 26  1  0  0  0  0
  8 27  1  0  0  0  0
  8 28  1  0  0  0  0
  9 29  1  0  0  0  0
 11 30  1  0  0  0  0
 11 31  1  0  0  0  0
 11 32  1  0  0  0  0
 12 33  1  0  0  0  0
 12 34  1  0  0  0  0
 18 35  1  0  0  0  0
M  END
> <POSIT::Probability>
0.85

> <POSIT::Method>
SHAPEFIT

> <ReceptorTitle>
UCSF-P4615-REFINED_LIGAND-BOUND-STATE_A__DU__LA1_A-201(A)

> <OMEGA_C>
RFgywsFw7MGQFtZAWvE6wh0o6sHa4spAqy1AwgmP58HisnxAc7M6wplp6cFqYnlAPAxDwkuH58Ef
yqdAHK04wi1p9cGApO8+cGk7wtUl7cHQ9rE/c3kywrPH58FY1xVAIaUvwmfU8MEYKMU/hLQywkXy
8sGA1FA+eQ5Jwo1t5sHQPKhAokkvwskz+8GWWxlAUmU3wmFk68FXSOlAj9UywqH468FPMqxAqnZA
wlfY6MFEEcxAXBg4wr916sF+BqVAeCc4wq3d6sGOByhA3y8swoVm+cFQU2RARYswwvF1+8GAj+e+
dkQywjFF6sEwrxy/KJ8uwqd57cEWH+dAVF1Cwgsg5sFDMkJAmvg4wlFX/cHva3A/lMs6wmiB9cG3
5/2+KvY7wmel5cEX+lQ/VVY/whRJ8MFEB9k/p1kwwgp+5sF4oFJArGoywqla4MH5J+A/no8rwngx
7sHuFKY/AIRKwrTs5sHmYslAXzBKwlGn3sHUdJpA+dhKwhLn7MFbL5VA7FczwrSw/cFbCSxAamgt
wnjIAML7TeY/vwIswrLN/8FieoJA

> <OMEGA_E>
jGYoPw==

> <OMEGA_NBR>
     44605

$$$$
CACHE3-HO_1696_1
  -OEChem-03092622503D

 38 39  0     1  0  0  0  0  0999 V2000
  -48.7553  -28.8008    5.8867 C   0  0  0  0  0  0  0  0  0  0  0  0
  -44.2351  -29.2146    6.1965 C   0  0  0  0  0  0  0  0  0  0  0  0
  -46.6686  -29.0525    5.0010 C   0  0  0  0  0  0  0  0  0  0  0  0
  -48.0928  -28.8956    4.6819 C   0  0  0  0  0  0  0  0  0  0  0  0
  -46.5461  -29.0041    6.3905 C   0  0  0  0  0  0  0  0  0  0  0  0
  -45.5107  -29.2364    4.2263 C   0  0  0  0  0  0  0  0  0  0  0  0
  -43.7890  -31.0336    2.0992 C   0  0  0  0  0  0  0  0  0  0  0  0
  -50.2227  -28.6025    3.3264 C   0  0  0  0  0  0  0  0  0  0  0  0
  -43.4986  -28.5472    1.8911 C   0  0  0  0  0  0  0  0  0  0  0  0
  -48.7002  -28.8261    3.2895 C   0  0  0  0  0  0  0  0  0  0  0  0
  -43.8871  -31.7976   -0.2514 C   0  0  0  0  0  0  0  0  0  0  0  0
  -44.5288  -29.6856    1.8917 C   0  0  2  0  0  0  0  0  0  0  0  0
  -45.1911  -32.6124   -0.0478 C   0  0  0  0  0  0  0  0  0  0  0  0
  -45.3361  -29.0960    6.9783 N   0  0  0  0  0  0  0  0  0  0  0  0
  -44.3054  -29.2828    4.8443 N   0  0  0  0  0  0  0  0  0  0  0  0
  -47.8205  -28.8750    6.9148 N   0  0  0  0  0  0  0  0  0  0  0  0
  -45.6389  -29.4362    2.8520 N   0  0  0  0  0  0  0  0  0  0  0  0
  -43.1867  -31.6642    1.0276 N   0  0  0  0  0  0  0  0  0  0  0  0
  -43.6110  -31.5154    3.2110 O   0  0  0  0  0  0  0  0  0  0  0  0
  -45.5395  -33.1915   -1.2205 F   0  0  0  0  0  0  0  0  0  0  0  0
  -45.0054  -33.5912    0.8831 F   0  0  0  0  0  0  0  0  0  0  0  0
  -46.2071  -31.8040    0.3616 F   0  0  0  0  0  0  0  0  0  0  0  0
  -49.8220  -28.6878    6.0120 H   0  0  0  0  0  0  0  0  0  0  0  0
  -43.2648  -29.2565    6.6689 H   0  0  0  0  0  0  0  0  0  0  0  0
  -50.6125  -28.5598    2.2987 H   0  0  0  0  0  0  0  0  0  0  0  0
  -50.7021  -29.4324    3.8662 H   0  0  0  0  0  0  0  0  0  0  0  0
  -50.4416  -27.6553    3.8412 H   0  0  0  0  0  0  0  0  0  0  0  0
  -44.0134  -27.5862    1.7444 H   0  0  0  0  0  0  0  0  0  0  0  0
  -42.9658  -28.5345    2.8533 H   0  0  0  0  0  0  0  0  0  0  0  0
  -42.7781  -28.7053    1.0750 H   0  0  0  0  0  0  0  0  0  0  0  0
  -48.2337  -27.9944    2.7412 H   0  0  0  0  0  0  0  0  0  0  0  0
  -48.4942  -29.7715    2.7662 H   0  0  0  0  0  0  0  0  0  0  0  0
  -43.2386  -32.3184   -0.9713 H   0  0  0  0  0  0  0  0  0  0  0  0
  -44.1363  -30.7985   -0.6383 H   0  0  0  0  0  0  0  0  0  0  0  0
  -44.9676  -29.7188    0.8835 H   0  0  0  0  0  0  0  0  0  0  0  0
  -48.0379  -28.8401    7.8903 H   0  0  0  0  0  0  0  0  0  0  0  0
  -46.2471  -30.2245    2.7585 H   0  0  0  0  0  0  0  0  0  0  0  0
  -42.2626  -32.0334    1.1265 H   0  0  0  0  0  0  0  0  0  0  0  0
  1  4  2  0  0  0  0
  1 16  1  0  0  0  0
  2 14  1  0  0  0  0
  2 15  2  0  0  0  0
  3  4  1  0  0  0  0
  3  5  1  0  0  0  0
  3  6  2  0  0  0  0
  4 10  1  0  0  0  0
  5 14  2  0  0  0  0
  5 16  1  0  0  0  0
  6 15  1  0  0  0  0
  6 17  1  0  0  0  0
  7 12  1  0  0  0  0
  7 18  1  0  0  0  0
  7 19  2  0  0  0  0
  8 10  1  0  0  0  0
  9 12  1  0  0  0  0
 11 13  1  0  0  0  0
 11 18  1  0  0  0  0
 12 17  1  0  0  0  0
 13 20  1  0  0  0  0
 13 21  1  0  0  0  0
 13 22  1  0  0  0  0
  1 23  1  0  0  0  0
  2 24  1  0  0  0  0
  8 25  1  0  0  0  0
  8 26  1  0  0  0  0
  8 27  1  0  0  0  0
  9 28  1  0  0  0  0
  9 29  1  0  0  0  0
  9 30  1  0  0  0  0
 10 31  1  0  0  0  0
 10 32  1  0  0  0  0
 11 33  1  0  0  0  0
 11 34  1  0  0  0  0
 12 35  1  0  0  0  0
 16 36  1  0  0  0  0
 17 37  1  0  0  0  0
 18 38  1  0  0  0  0
M  END
> <POSIT::Probability>
0.9

> <POSIT::Method>
SHAPEFIT

> <ReceptorTitle>
UCSF-P4621-REFINED_LIGAND-BOUND-STATE_A__DU__LA1_A-201(A)

> <OMEGA_C>
ZgVDwhVo5sEzYLxAvPAwwpG36cHtScZArqw6wnFr6MHeB6BAAV9AwiQq58FE0pVAOi86wnkI6MG3
fsxA7Qo2wg7k6cG6PYdA9ScvwuNE+MFgWQZAAeRIwtfR5MEu5FRAjv4twqNg5MEtDvI/Bc1Cwuqb
5sEyh1JAX4wvwnth/sFMs4C+cR0ywjZ87cHuIfI/t8M0wg9zAsJA6UO9LFg1wpTE6MEnTt9Atjgx
whVD6sHdBJtAPUg/wgEA58FvRt1AQI42wnB968EkhzZAIr8swkFQ/cFUiYM/oHEuwncf/MHGgE1A
cSg2whzEBMJ7OJy/fgU0wmNdBsI2FGI/CdQ4wqNu/sHkHrk+vklHwrCA5cFrYsBAIw8twk0N6sGu
Z9VAQHNKwml65MFgHhNA7s5Kwp1168Eeb3dAM8RJwg0+3cGI1XVAuw0wwpOw3MFCSd8/9twrwp1G
5MHXnDZAwBwrwmOk5cEjm4k/W+9Awn/038FBcC9AFvpBwhAs7sHYCTFAXPQswgFGAcLFp3i/iIsw
wk9j9sGsZSO/1N4zwhHA7cGRL2I/wyZAwoi45sGPffxABP04wtTL8cGEijBA4Awpwi0iAMKyMJA/

> <OMEGA_E>
IH/BPg==

> <OMEGA_NBR>
      1278

$$$$
CACHE3-HO_1696_11
  -OEChem-03092622503D

 40 41  0     0  0  0  0  0  0999 V2000
  -48.7475  -28.7483    5.8713 C   0  0  0  0  0  0  0  0  0  0  0  0
  -44.2424  -29.2792    6.2134 C   0  0  0  0  0  0  0  0  0  0  0  0
  -46.6648  -29.0819    4.9927 C   0  0  0  0  0  0  0  0  0  0  0  0
  -48.0890  -28.9092    4.6706 C   0  0  0  0  0  0  0  0  0  0  0  0
  -46.5482  -29.0055    6.3834 C   0  0  0  0  0  0  0  0  0  0  0  0
  -45.4951  -29.2658    4.2279 C   0  0  0  0  0  0  0  0  0  0  0  0
  -50.2320  -28.6579    3.3311 C   0  0  0  0  0  0  0  0  0  0  0  0
  -43.5837  -31.7121    2.8028 C   0  0  0  0  0  0  0  0  0  0  0  0
  -42.8331  -30.8257    0.5739 C   0  0  0  0  0  0  0  0  0  0  0  0
  -48.7108  -28.9015    3.2847 C   0  0  0  0  0  0  0  0  0  0  0  0
  -45.3145  -31.5110    0.8838 C   0  0  0  0  0  0  0  0  0  0  0  0
  -44.3622  -29.4367    1.9640 C   0  0  0  0  0  0  0  0  0  0  0  0
  -45.1595  -32.8801    0.1769 C   0  0  0  0  0  0  0  0  0  0  0  0
  -44.0301  -30.8990    1.5556 C   0  0  0  0  0  0  0  0  0  0  0  0
  -45.3452  -29.1086    6.9819 N   0  0  0  0  0  0  0  0  0  0  0  0
  -44.2990  -29.3511    4.8606 N   0  0  0  0  0  0  0  0  0  0  0  0
  -47.8165  -28.8111    6.9009 N   0  0  0  0  0  0  0  0  0  0  0  0
  -45.5632  -29.3329    2.8381 N   0  0  0  0  0  0  0  0  0  0  0  0
  -44.3812  -32.7718   -0.9308 F   0  0  0  0  0  0  0  0  0  0  0  0
  -44.6469  -33.8226    1.0075 F   0  0  0  0  0  0  0  0  0  0  0  0
  -49.8103  -28.5984    5.9916 H   0  0  0  0  0  0  0  0  0  0  0  0
  -43.2805  -29.3611    6.6974 H   0  0  0  0  0  0  0  0  0  0  0  0
  -50.6357  -28.6609    2.3079 H   0  0  0  0  0  0  0  0  0  0  0  0
  -50.7130  -29.4547    3.9174 H   0  0  0  0  0  0  0  0  0  0  0  0
  -50.4330  -27.6842    3.8017 H   0  0  0  0  0  0  0  0  0  0  0  0
  -44.4185  -31.7782    3.5162 H   0  0  0  0  0  0  0  0  0  0  0  0
  -43.2855  -32.7245    2.4929 H   0  0  0  0  0  0  0  0  0  0  0  0
  -42.7309  -31.2093    3.2822 H   0  0  0  0  0  0  0  0  0  0  0  0
  -43.1251  -30.2537   -0.3191 H   0  0  0  0  0  0  0  0  0  0  0  0
  -41.9848  -30.3282    1.0667 H   0  0  0  0  0  0  0  0  0  0  0  0
  -42.5394  -31.8435    0.2774 H   0  0  0  0  0  0  0  0  0  0  0  0
  -48.2421  -28.1032    2.6904 H   0  0  0  0  0  0  0  0  0  0  0  0
  -48.5220  -29.8738    2.8061 H   0  0  0  0  0  0  0  0  0  0  0  0
  -45.6711  -30.7898    0.1336 H   0  0  0  0  0  0  0  0  0  0  0  0
  -46.0750  -31.6286    1.6698 H   0  0  0  0  0  0  0  0  0  0  0  0
  -43.4992  -29.0193    2.5036 H   0  0  0  0  0  0  0  0  0  0  0  0
  -44.5421  -28.8504    1.0508 H   0  0  0  0  0  0  0  0  0  0  0  0
  -46.1702  -33.1884   -0.1287 H   0  0  0  0  0  0  0  0  0  0  0  0
  -48.0318  -28.7279    7.8739 H   0  0  0  0  0  0  0  0  0  0  0  0
  -46.1238  -30.1343    2.6297 H   0  0  0  0  0  0  0  0  0  0  0  0
  1  4  2  0  0  0  0
  1 17  1  0  0  0  0
  2 15  1  0  0  0  0
  2 16  2  0  0  0  0
  3  4  1  0  0  0  0
  3  5  1  0  0  0  0
  3  6  2  0  0  0  0
  4 10  1  0  0  0  0
  5 15  2  0  0  0  0
  5 17  1  0  0  0  0
  6 16  1  0  0  0  0
  6 18  1  0  0  0  0
  7 10  1  0  0  0  0
  8 14  1  0  0  0  0
  9 14  1  0  0  0  0
 11 13  1  0  0  0  0
 11 14  1  0  0  0  0
 12 14  1  0  0  0  0
 12 18  1  0  0  0  0
 13 19  1  0  0  0  0
 13 20  1  0  0  0  0
  1 21  1  0  0  0  0
  2 22  1  0  0  0  0
  7 23  1  0  0  0  0
  7 24  1  0  0  0  0
  7 25  1  0  0  0  0
  8 26  1  0  0  0  0
  8 27  1  0  0  0  0
  8 28  1  0  0  0  0
  9 29  1  0  0  0  0
  9 30  1  0  0  0  0
  9 31  1  0  0  0  0
 10 32  1  0  0  0  0
 10 33  1  0  0  0  0
 11 34  1  0  0  0  0
 11 35  1  0  0  0  0
 12 36  1  0  0  0  0
 12 37  1  0  0  0  0
 13 38  1  0  0  0  0
 17 39  1  0  0  0  0
 18 40  1  0  0  0  0
M  END
> <POSIT::Probability>
0.99

> <POSIT::Method>
SHAPEFIT

> <ReceptorTitle>
UCSF-P4621-REFINED_LIGAND-BOUND-STATE_A__DU__LA1_A-201(A)

> <OMEGA_C>
cP1Cwo385cHd4btAQPgwwsg76sHG08ZAwqg6wryn6MHzw59AJ1tAwhpG58HydZVAYTE6wj0L6MGS
RMxA9fo1wk4g6sGSSodAhu1IwmND5cGAMVVAuVUuwmWy/cGhYTNAHFUrwhyb9sHf6RI/09dCwjc2
58HaN1JAFEI1wnIW/MGfP2I/3XIxwk5+68EoY/s/VKM0wkGFA8LUJzU+3R4wwh8x98FoHcc/gmE1
wmDe6MHWa99AKDIxwgPP6sGtiZtAIkQ/wh995sE61NxAr0A2wsyp6sEWpDVAXoYxwl8WA8JrSW6/
cpYywlRKB8I69oA/tT1HwoPJ5MHJur9AMB8twqDj6sH4UNZAAItKwotJ5cFNtRNAHdpKwk2j68Eg
tnpAb7tJwi553cHQTnNAgawxwqk5/sHHCGFAViQtwujlAsIGix9AZ+wqwo+s+cFsD1JAGYAswoUH
8sFxZqO+c/Anwjug8sHkiYg/Yigqwny//sFbBI4+3PdAwmHT4MFOMCxAihZCwoD97sGelzNAPq82
wnVR9sE41wg+xUw4wmYH/cFjvdU/Ov8twpEn6MFyOiBAGysywprN5sEAgIY/Tq44wurABMLs1AO+
kiBAwsbS5cEW9/tAzH44wgcT8cHxTChA

> <OMEGA_E>
YDsZPQ==

> <OMEGA_NBR>
      2596

$$$$
CACHE3-HO_1696_12
  -OEChem-03092622503D

 39 42  0     0  0  0  0  0  0999 V2000
  -48.7415  -28.6770    5.8721 C   0  0  0  0  0  0  0  0  0  0  0  0
  -44.2593  -29.3959    6.2097 C   0  0  0  0  0  0  0  0  0  0  0  0
  -46.6707  -29.0680    4.9945 C   0  0  0  0  0  0  0  0  0  0  0  0
  -48.0935  -28.8842    4.6733 C   0  0  0  0  0  0  0  0  0  0  0  0
  -46.5493  -29.0016    6.3838 C   0  0  0  0  0  0  0  0  0  0  0  0
  -45.5038  -29.2440    4.2279 C   0  0  0  0  0  0  0  0  0  0  0  0
  -45.7290  -31.6937    1.4873 C   0  0  0  0  0  0  0  0  0  0  0  0
  -43.7034  -31.7206    0.7031 C   0  0  0  0  0  0  0  0  0  0  0  0
  -44.8412  -33.9699    0.9716 C   0  0  0  0  0  0  0  0  0  0  0  0
  -44.3697  -31.0217    1.9682 C   0  0  0  0  0  0  0  0  0  0  0  0
  -44.9432  -32.5032    0.5723 C   0  0  0  0  0  0  0  0  0  0  0  0
  -45.3819  -33.5561   -0.4218 C   0  0  0  0  0  0  0  0  0  0  0  0
  -50.2522  -28.7354    3.3381 C   0  0  0  0  0  0  0  0  0  0  0  0
  -48.7243  -28.9349    3.2909 C   0  0  0  0  0  0  0  0  0  0  0  0
  -44.4156  -29.5077    1.9790 C   0  0  0  0  0  0  0  0  0  0  0  0
  -45.3491  -29.1546    6.9795 N   0  0  0  0  0  0  0  0  0  0  0  0
  -44.3167  -29.4313    4.8557 N   0  0  0  0  0  0  0  0  0  0  0  0
  -47.8067  -28.7412    6.8996 N   0  0  0  0  0  0  0  0  0  0  0  0
  -45.5541  -29.1298    2.8432 N   0  0  0  0  0  0  0  0  0  0  0  0
  -44.5810  -33.7991   -1.4873 F   0  0  0  0  0  0  0  0  0  0  0  0
  -46.7158  -33.6967   -0.6325 F   0  0  0  0  0  0  0  0  0  0  0  0
  -49.7992  -28.4951    5.9932 H   0  0  0  0  0  0  0  0  0  0  0  0
  -43.3090  -29.5665    6.6938 H   0  0  0  0  0  0  0  0  0  0  0  0
  -46.2568  -32.2649    2.2652 H   0  0  0  0  0  0  0  0  0  0  0  0
  -46.4323  -31.0035    0.9984 H   0  0  0  0  0  0  0  0  0  0  0  0
  -43.4953  -31.0446   -0.1393 H   0  0  0  0  0  0  0  0  0  0  0  0
  -42.8054  -32.3155    0.9262 H   0  0  0  0  0  0  0  0  0  0  0  0
  -43.8561  -34.4510    1.0618 H   0  0  0  0  0  0  0  0  0  0  0  0
  -45.5230  -34.3856    1.7281 H   0  0  0  0  0  0  0  0  0  0  0  0
  -44.0091  -31.4512    2.9144 H   0  0  0  0  0  0  0  0  0  0  0  0
  -50.6600  -28.7802    2.3174 H   0  0  0  0  0  0  0  0  0  0  0  0
  -50.7067  -29.5287    3.9496 H   0  0  0  0  0  0  0  0  0  0  0  0
  -50.4802  -27.7547    3.7812 H   0  0  0  0  0  0  0  0  0  0  0  0
  -48.2827  -28.1407    2.6711 H   0  0  0  0  0  0  0  0  0  0  0  0
  -48.5092  -29.9147    2.8395 H   0  0  0  0  0  0  0  0  0  0  0  0
  -43.4778  -29.1018    2.3863 H   0  0  0  0  0  0  0  0  0  0  0  0
  -44.5686  -29.1246    0.9593 H   0  0  0  0  0  0  0  0  0  0  0  0
  -48.0131  -28.6173    7.8702 H   0  0  0  0  0  0  0  0  0  0  0  0
  -46.3279  -29.6887    2.5453 H   0  0  0  0  0  0  0  0  0  0  0  0
  1  4  2  0  0  0  0
  1 18  1  0  0  0  0
  2 16  1  0  0  0  0
  2 17  2  0  0  0  0
  3  4  1  0  0  0  0
  3  5  1  0  0  0  0
  3  6  2  0  0  0  0
  4 14  1  0  0  0  0
  5 16  2  0  0  0  0
  5 18  1  0  0  0  0
  6 17  1  0  0  0  0
  6 19  1  0  0  0  0
  7 10  1  0  0  0  0
  7 11  1  0  0  0  0
  8 10  1  0  0  0  0
  8 11  1  0  0  0  0
  9 11  1  0  0  0  0
  9 12  1  0  0  0  0
 10 15  1  0  0  0  0
 11 12  1  0  0  0  0
 12 20  1  0  0  0  0
 12 21  1  0  0  0  0
 13 14  1  0  0  0  0
 15 19  1  0  0  0  0
  1 22  1  0  0  0  0
  2 23  1  0  0  0  0
  7 24  1  0  0  0  0
  7 25  1  0  0  0  0
  8 26  1  0  0  0  0
  8 27  1  0  0  0  0
  9 28  1  0  0  0  0
  9 29  1  0  0  0  0
 10 30  1  0  0  0  0
 13 31  1  0  0  0  0
 13 32  1  0  0  0  0
 13 33  1  0  0  0  0
 14 34  1  0  0  0  0
 14 35  1  0  0  0  0
 15 36  1  0  0  0  0
 15 37  1  0  0  0  0
 18 38  1  0  0  0  0
 19 39  1  0  0  0  0
M  END
> <POSIT::Probability>
0.91

> <POSIT::Method>
SHAPEFIT

> <ReceptorTitle>
UCSF-P4621-REFINED_LIGAND-BOUND-STATE_A__DU__LA1_A-201(A)

> <OMEGA_C>
VPdCwpZq5cE86LtAhQkxws4q68HOtcZA0K46wjqL6MGY0p9AtV9AwuAS58Fei5VAgTI6wkYD6MHa
R8xA6gM2wp7z6cFWS4dAfOo2wqSM/cHcXr4/Q9AuwtTD/cFQ/DM/Xl0zwiPhB8LIvHg/mnoxwnQs
+MGw7Ps/3cUzwkkDAsJwhBI/HIc1wms5BsJQ/Ne+OAJJwgDi5cGkolVAu+VCwqp658EQnlJAhqkx
wsIP7MFMT/0/f2U1wp486cG4V99AWUQxwj5z68GiYZtAGDo/whLu5cHUydxAXTc2wuQJ6cGU9zVA
61IywlAyB8LkX76//Nw6wmXJBsKQ7iG/YDJHwhH248E5yL9Adzwtwh6I7MFuM9ZA/wY5wj0PAcJJ
+BBAo7o5whQH+MEkln8/NvstwkVb+MHCsA6+xjgrwhxDAcKvGm0/rWwvwuDNCcLK6Yc/jRc2wuOK
CcKXMt0/UQkwwiac+8EohjpA16NKwsk95sHQUBRAstNKwso67MHUxXxAw+tJwq0J3sG3/nFAhCFB
whsg4cG98ipAcglCwjhR78HauTVASuktwmnQ6MGeuBhARkYywiP/6MF7k3U/dw1Awjjw5MHV2PtA
x085woeC7cFp5SJA

> <OMEGA_E>
MKKrPg==

> <OMEGA_NBR>
      3900

$$$$
CACHE3-HO_1696_3
  -OEChem-03092622503D

 38 40  0     1  0  0  0  0  0999 V2000
  -48.7581  -28.7507    5.8706 C   0  0  0  0  0  0  0  0  0  0  0  0
  -44.2631  -29.2903    6.2209 C   0  0  0  0  0  0  0  0  0  0  0  0
  -46.6738  -29.0825    4.9667 C   0  0  0  0  0  0  0  0  0  0  0  0
  -48.1095  -28.9099    4.6623 C   0  0  0  0  0  0  0  0  0  0  0  0
  -46.5613  -29.0033    6.3640 C   0  0  0  0  0  0  0  0  0  0  0  0
  -45.4852  -29.2667    4.2071 C   0  0  0  0  0  0  0  0  0  0  0  0
  -46.0164  -31.8233    1.1302 C   0  0  0  0  0  0  0  0  0  0  0  0
  -44.5205  -31.6801    1.4405 C   0  0  2  0  0  0  0  0  0  0  0  0
  -44.9942  -32.6948    0.3834 C   0  0  0  0  0  0  0  0  0  0  0  0
  -43.9567  -32.2649    2.7560 C   0  0  0  0  0  0  0  0  0  0  0  0
  -50.2953  -28.6426    3.3977 C   0  0  0  0  0  0  0  0  0  0  0  0
  -48.7732  -28.8945    3.2980 C   0  0  0  0  0  0  0  0  0  0  0  0
  -43.9022  -30.3396    0.9968 C   0  0  0  0  0  0  0  0  0  0  0  0
  -44.2004  -29.1852    1.9924 C   0  0  0  0  0  0  0  0  0  0  0  0
  -45.3679  -29.1055    6.9742 N   0  0  0  0  0  0  0  0  0  0  0  0
  -44.3045  -29.3643    4.8699 N   0  0  0  0  0  0  0  0  0  0  0  0
  -47.8237  -28.8106    6.8902 N   0  0  0  0  0  0  0  0  0  0  0  0
  -45.4775  -29.3285    2.8006 N   0  0  0  0  0  0  0  0  0  0  0  0
  -45.0033  -34.0150    0.7003 F   0  0  0  0  0  0  0  0  0  0  0  0
  -44.7470  -32.4279   -0.9260 F   0  0  0  0  0  0  0  0  0  0  0  0
  -49.8203  -28.6035    5.9992 H   0  0  0  0  0  0  0  0  0  0  0  0
  -43.3077  -29.3828    6.7159 H   0  0  0  0  0  0  0  0  0  0  0  0
  -46.6901  -32.2791    1.8708 H   0  0  0  0  0  0  0  0  0  0  0  0
  -46.5466  -31.0199    0.5978 H   0  0  0  0  0  0  0  0  0  0  0  0
  -42.8754  -32.0708    2.8104 H   0  0  0  0  0  0  0  0  0  0  0  0
  -44.4579  -31.7904    3.6126 H   0  0  0  0  0  0  0  0  0  0  0  0
  -44.1361  -33.3499    2.7813 H   0  0  0  0  0  0  0  0  0  0  0  0
  -50.7338  -28.6397    2.3889 H   0  0  0  0  0  0  0  0  0  0  0  0
  -50.7601  -29.4392    3.9972 H   0  0  0  0  0  0  0  0  0  0  0  0
  -50.4751  -27.6697    3.8784 H   0  0  0  0  0  0  0  0  0  0  0  0
  -48.3200  -28.0965    2.6915 H   0  0  0  0  0  0  0  0  0  0  0  0
  -48.6051  -29.8661    2.8103 H   0  0  0  0  0  0  0  0  0  0  0  0
  -42.8121  -30.4636    0.9175 H   0  0  0  0  0  0  0  0  0  0  0  0
  -44.3132  -30.0709    0.0125 H   0  0  0  0  0  0  0  0  0  0  0  0
  -43.3590  -29.1211    2.6980 H   0  0  0  0  0  0  0  0  0  0  0  0
  -44.2678  -28.2505    1.4163 H   0  0  0  0  0  0  0  0  0  0  0  0
  -48.0321  -28.7267    7.8646 H   0  0  0  0  0  0  0  0  0  0  0  0
  -45.8628  -30.2189    2.5581 H   0  0  0  0  0  0  0  0  0  0  0  0
  1  4  2  0  0  0  0
  1 17  1  0  0  0  0
  2 15  1  0  0  0  0
  2 16  2  0  0  0  0
  3  4  1  0  0  0  0
  3  5  1  0  0  0  0
  3  6  2  0  0  0  0
  4 12  1  0  0  0  0
  5 15  2  0  0  0  0
  5 17  1  0  0  0  0
  6 16  1  0  0  0  0
  6 18  1  0  0  0  0
  7  8  1  0  0  0  0
  7  9  1  0  0  0  0
  8  9  1  0  0  0  0
  8 10  1  0  0  0  0
  8 13  1  0  0  0  0
  9 19  1  0  0  0  0
  9 20  1  0  0  0  0
 11 12  1  0  0  0  0
 13 14  1  0  0  0  0
 14 18  1  0  0  0  0
  1 21  1  0  0  0  0
  2 22  1  0  0  0  0
  7 23  1  0  0  0  0
  7 24  1  0  0  0  0
 10 25  1  0  0  0  0
 10 26  1  0  0  0  0
 10 27  1  0  0  0  0
 11 28  1  0  0  0  0
 11 29  1  0  0  0  0
 11 30  1  0  0  0  0
 12 31  1  0  0  0  0
 12 32  1  0  0  0  0
 13 33  1  0  0  0  0
 13 34  1  0  0  0  0
 14 35  1  0  0  0  0
 14 36  1  0  0  0  0
 17 37  1  0  0  0  0
 18 38  1  0  0  0  0
M  END
> <POSIT::Probability>
0.94

> <POSIT::Method>
SHAPEFIT

> <ReceptorTitle>
UCSF-P4621-REFINED_LIGAND-BOUND-STATE_A__DU__LA1_A-201(A)

> <OMEGA_C>
TghDwlcB5sG027tAZw0xwo9S6sFoEcdA8rE6wgep6MEe755AKHBAwnJH58HwMZVAxj46wrUG6MGC
pctA4/A1whwi6sGaoIZA2BA4wieW/sGQqpA//xQywsJw/cHcYbg/BPozwn/HAsK4RsQ+r9Mvwk4P
AcKVYjBAXS5Jwhsk5cErdFlAtxdDwgYo58GLElNA5ZsvwpC38sGMLX8/Qc0wwjF76cEeB/8/v3g1
whjY6MEMLd9A0Tcxwirq6sGg1ptAcUs/whl85sE8fNxA7+g1ws+g6sGHPDNAbAM0wlEPCMJkRzM/
7vwywiq2AcL0EG2/9UdHwufT5MGi+b9AGDstwgAQ68EL6dZAocI6wscdAcI+d+8/vC86wroo+MFd
Cxk/XIArwotIAMJC3jNA2dQxwr1S/sEuNGdAXYswwlRmBcK4ADJAce9KwhMe5cEd5BhAYwpLwomD
68Fy0X9Ad+ZJwoJb3cGMN3hAr0dBwrPF4MHRQSxAnGtCwrrt7sG32zNAnz8rwoi188HB42o/vEAx
wh2R8MH/hEw8l28twgH46MGZqyxAQhIxwhIB4sF8SLU/0yBAwkvQ5cHgqvtAhXM3wkbA8cGkuCNA

> <OMEGA_E>
oGJLPg==

> <OMEGA_NBR>
      5182

$$$$
CACHE3-HO_1696_4
  -OEChem-03092622503D

 39 42  0     1  0  0  0  0  0999 V2000
  -48.7374  -28.7092    5.8933 C   0  0  0  0  0  0  0  0  0  0  0  0
  -44.2340  -29.3463    6.1911 C   0  0  0  0  0  0  0  0  0  0  0  0
  -46.6693  -29.0635    5.0309 C   0  0  0  0  0  0  0  0  0  0  0  0
  -48.0813  -28.8934    4.6978 C   0  0  0  0  0  0  0  0  0  0  0  0
  -46.5331  -28.9918    6.4124 C   0  0  0  0  0  0  0  0  0  0  0  0
  -45.5373  -29.2527    4.2445 C   0  0  0  0  0  0  0  0  0  0  0  0
  -41.4073  -31.6236    1.0742 C   0  0  0  0  0  0  0  0  0  0  0  0
  -42.5349  -32.5510    1.7167 C   0  0  0  0  0  0  0  0  0  0  0  0
  -42.5842  -30.8877    0.3056 C   0  0  0  0  0  0  0  0  0  0  0  0
  -44.6442  -31.1859    1.9156 C   0  0  2  0  0  0  0  0  0  0  0  0
  -43.5422  -31.7340    1.0442 C   0  0  0  0  0  0  0  0  0  0  0  0
  -44.9714  -32.0525    0.6517 C   0  0  0  0  0  0  0  0  0  0  0  0
  -50.1805  -28.7124    3.2692 C   0  0  0  0  0  0  0  0  0  0  0  0
  -48.6644  -28.9257    3.2892 C   0  0  0  0  0  0  0  0  0  0  0  0
  -44.7109  -29.6610    1.9353 C   0  0  0  0  0  0  0  0  0  0  0  0
  -45.3169  -29.1291    6.9869 N   0  0  0  0  0  0  0  0  0  0  0  0
  -44.3235  -29.4038    4.8340 N   0  0  0  0  0  0  0  0  0  0  0  0
  -47.7998  -28.7636    6.9272 N   0  0  0  0  0  0  0  0  0  0  0  0
  -45.7189  -29.2376    2.8716 N   0  0  0  0  0  0  0  0  0  0  0  0
  -45.4560  -31.4405   -0.4601 F   0  0  0  0  0  0  0  0  0  0  0  0
  -45.3600  -33.3441    0.8113 F   0  0  0  0  0  0  0  0  0  0  0  0
  -49.7988  -28.5494    6.0121 H   0  0  0  0  0  0  0  0  0  0  0  0
  -43.2672  -29.4779    6.6540 H   0  0  0  0  0  0  0  0  0  0  0  0
  -40.8607  -30.9953    1.7929 H   0  0  0  0  0  0  0  0  0  0  0  0
  -40.6899  -32.1491    0.4268 H   0  0  0  0  0  0  0  0  0  0  0  0
  -42.5045  -33.5992    1.3845 H   0  0  0  0  0  0  0  0  0  0  0  0
  -42.5807  -32.5156    2.8151 H   0  0  0  0  0  0  0  0  0  0  0  0
  -42.6663  -29.8123    0.5217 H   0  0  0  0  0  0  0  0  0  0  0  0
  -42.5842  -31.0440   -0.7832 H   0  0  0  0  0  0  0  0  0  0  0  0
  -44.7977  -31.6880    2.8822 H   0  0  0  0  0  0  0  0  0  0  0  0
  -50.5424  -28.7459    2.2310 H   0  0  0  0  0  0  0  0  0  0  0  0
  -50.6699  -29.5054    3.8537 H   0  0  0  0  0  0  0  0  0  0  0  0
  -50.4186  -27.7327    3.7090 H   0  0  0  0  0  0  0  0  0  0  0  0
  -48.1900  -28.1315    2.6941 H   0  0  0  0  0  0  0  0  0  0  0  0
  -48.4413  -29.9042    2.8388 H   0  0  0  0  0  0  0  0  0  0  0  0
  -43.7347  -29.2550    2.2389 H   0  0  0  0  0  0  0  0  0  0  0  0
  -44.9652  -29.2919    0.9308 H   0  0  0  0  0  0  0  0  0  0  0  0
  -48.0117  -28.6537    7.8983 H   0  0  0  0  0  0  0  0  0  0  0  0
  -46.5167  -29.8140    2.6945 H   0  0  0  0  0  0  0  0  0  0  0  0
  1  4  2  0  0  0  0
  1 18  1  0  0  0  0
  2 16  1  0  0  0  0
  2 17  2  0  0  0  0
  3  4  1  0  0  0  0
  3  5  1  0  0  0  0
  3  6  2  0  0  0  0
  4 14  1  0  0  0  0
  5 16  2  0  0  0  0
  5 18  1  0  0  0  0
  6 17  1  0  0  0  0
  6 19  1  0  0  0  0
  7  8  1  0  0  0  0
  7  9  1  0  0  0  0
  8 11  1  0  0  0  0
  9 11  1  0  0  0  0
 10 11  1  0  0  0  0
 10 12  1  0  0  0  0
 10 15  1  0  0  0  0
 11 12  1  0  0  0  0
 12 20  1  0  0  0  0
 12 21  1  0  0  0  0
 13 14  1  0  0  0  0
 15 19  1  0  0  0  0
  1 22  1  0  0  0  0
  2 23  1  0  0  0  0
  7 24  1  0  0  0  0
  7 25  1  0  0  0  0
  8 26  1  0  0  0  0
  8 27  1  0  0  0  0
  9 28  1  0  0  0  0
  9 29  1  0  0  0  0
 10 30  1  0  0  0  0
 13 31  1  0  0  0  0
 13 32  1  0  0  0  0
 13 33  1  0  0  0  0
 14 34  1  0  0  0  0
 14 35  1  0  0  0  0
 15 36  1  0  0  0  0
 15 37  1  0  0  0  0
 18 38  1  0  0  0  0
 19 39  1  0  0  0  0
M  END
> <POSIT::Probability>
0.91

> <POSIT::Method>
SHAPEFIT

> <ReceptorTitle>
UCSF-P4621-REFINED_LIGAND-BOUND-STATE_A__DU__LA1_A-201(A)

> <OMEGA_C>
DfNCwnKs5cGMlbxApe8wwiLF6sFgHcZAXq06wgyC6ME+/aBAO1NAwq8l58GHVJZA3iE6wkbv58G4
Ms1AMiY2wn8F6sE304dAFaElwgr9/MEwf4k/tCMqwkE0AsJwu9s/LFYqwgYa98EMd5w+oZMyws98
+cG0MfU/MCsuwj3f/cEAp4U/s+IzwsE1AMIK2SY/1LhIwgGz5cFqOlFAYqhCwt1n58GUgVJA/Ncy
wr9J7cFwufc/hkQ1wlII6cGhlN9ARksxwgE768ECsJpA/jI/wsIb5sGWq91ALuA2wqzm6cHnyDdA
9NI1whOG+8GDk+u+mXA1wlBgBcJYsk8/AzJHwkZl5MEhY8BAmhEtwsHS68GY7dRAUnEjwmP298GT
fOU/gMIiwrqYAMKLg9o+nAQqwqFlBsIBOLE/oVIqwgMQAsIiKzRAU6oqwol/7sEPjAU/RVYqwhda
+MHJgki/0jAzwhqB/cHLdThAYStKwoL35cH2xw5ABq5KwggL7MGTonZAqqxJwnzc3cGgX21AiMJA
wkAN4cGibCxA5cNBwss778GVrzVAUPAuwk4K6sHeSQ9AYNwzwuVV6sF+SG4/+wtAwr465cHMvvxA
GBE6whGD7sEUcyxA

> <OMEGA_E>
uLPNPg==

> <OMEGA_NBR>
      6487

$$$$
CACHE3-HO_1696_5
  -OEChem-03092622503D

 35 36  0     0  0  0  0  0  0999 V2000
  -48.7470  -28.7216    5.8601 C   0  0  0  0  0  0  0  0  0  0  0  0
  -44.2522  -29.3269    6.2217 C   0  0  0  0  0  0  0  0  0  0  0  0
  -46.6660  -29.0896    4.9826 C   0  0  0  0  0  0  0  0  0  0  0  0
  -48.0942  -28.9108    4.6601 C   0  0  0  0  0  0  0  0  0  0  0  0
  -46.5518  -28.9986    6.3736 C   0  0  0  0  0  0  0  0  0  0  0  0
  -45.4876  -29.2812    4.2273 C   0  0  0  0  0  0  0  0  0  0  0  0
  -50.2640  -28.6997    3.3506 C   0  0  0  0  0  0  0  0  0  0  0  0
  -48.7390  -28.9347    3.2835 C   0  0  0  0  0  0  0  0  0  0  0  0
  -44.0614  -30.9514    1.7000 C   0  0  0  0  0  0  0  0  0  0  0  0
  -44.2999  -29.4612    2.0037 C   0  0  0  0  0  0  0  0  0  0  0  0
  -44.8873  -32.9297    0.3917 C   0  0  0  0  0  0  0  0  0  0  0  0
  -45.2904  -31.5874    1.0090 C   0  0  0  0  0  0  0  0  0  0  0  0
  -45.3535  -29.1102    6.9792 N   0  0  0  0  0  0  0  0  0  0  0  0
  -44.3012  -29.4101    4.8703 N   0  0  0  0  0  0  0  0  0  0  0  0
  -47.8154  -28.7738    6.8879 N   0  0  0  0  0  0  0  0  0  0  0  0
  -45.5178  -29.2606    2.8370 N   0  0  0  0  0  0  0  0  0  0  0  0
  -46.0186  -33.5250   -0.2347 O   0  0  0  0  0  0  0  0  0  0  0  0
  -46.2852  -31.8058    1.9158 F   0  0  0  0  0  0  0  0  0  0  0  0
  -45.7571  -30.7672    0.0253 F   0  0  0  0  0  0  0  0  0  0  0  0
  -49.8080  -28.5595    5.9804 H   0  0  0  0  0  0  0  0  0  0  0  0
  -43.2974  -29.4377    6.7140 H   0  0  0  0  0  0  0  0  0  0  0  0
  -50.6846  -28.7256    2.3345 H   0  0  0  0  0  0  0  0  0  0  0  0
  -50.7298  -29.4878    3.9604 H   0  0  0  0  0  0  0  0  0  0  0  0
  -50.4639  -27.7181    3.8051 H   0  0  0  0  0  0  0  0  0  0  0  0
  -48.2856  -28.1453    2.6660 H   0  0  0  0  0  0  0  0  0  0  0  0
  -48.5515  -29.9151    2.8213 H   0  0  0  0  0  0  0  0  0  0  0  0
  -43.1884  -31.0469    1.0376 H   0  0  0  0  0  0  0  0  0  0  0  0
  -43.8658  -31.4825    2.6432 H   0  0  0  0  0  0  0  0  0  0  0  0
  -43.4282  -29.0627    2.5435 H   0  0  0  0  0  0  0  0  0  0  0  0
  -44.4231  -28.9186    1.0548 H   0  0  0  0  0  0  0  0  0  0  0  0
  -44.0980  -32.7664   -0.3568 H   0  0  0  0  0  0  0  0  0  0  0  0
  -44.5118  -33.5978    1.1808 H   0  0  0  0  0  0  0  0  0  0  0  0
  -48.0274  -28.6646    7.8590 H   0  0  0  0  0  0  0  0  0  0  0  0
  -46.1615  -29.9752    2.5633 H   0  0  0  0  0  0  0  0  0  0  0  0
  -45.7677  -34.3575   -0.6173 H   0  0  0  0  0  0  0  0  0  0  0  0
  1  4  2  0  0  0  0
  1 15  1  0  0  0  0
  2 13  1  0  0  0  0
  2 14  2  0  0  0  0
  3  4  1  0  0  0  0
  3  5  1  0  0  0  0
  3  6  2  0  0  0  0
  4  8  1  0  0  0  0
  5 13  2  0  0  0  0
  5 15  1  0  0  0  0
  6 14  1  0  0  0  0
  6 16  1  0  0  0  0
  7  8  1  0  0  0  0
  9 10  1  0  0  0  0
  9 12  1  0  0  0  0
 10 16  1  0  0  0  0
 11 12  1  0  0  0  0
 11 17  1  0  0  0  0
 12 18  1  0  0  0  0
 12 19  1  0  0  0  0
  1 20  1  0  0  0  0
  2 21  1  0  0  0  0
  7 22  1  0  0  0  0
  7 23  1  0  0  0  0
  7 24  1  0  0  0  0
  8 25  1  0  0  0  0
  8 26  1  0  0  0  0
  9 27  1  0  0  0  0
  9 28  1  0  0  0  0
 10 29  1  0  0  0  0
 10 30  1  0  0  0  0
 11 31  1  0  0  0  0
 11 32  1  0  0  0  0
 15 33  1  0  0  0  0
 16 34  1  0  0  0  0
 17 35  1  0  0  0  0
M  END
> <POSIT::Probability>
0.9

> <POSIT::Method>
SHAPEFIT

> <ReceptorTitle>
UCSF-P4621-REFINED_LIGAND-BOUND-STATE_A__DU__LA1_A-201(A)

> <OMEGA_C>
6vxCwsLF5cEmhrtARgIxwm6d6sH+F8dAAqo6wnu36MGecZ9AeWBAwlNJ58GyH5VAGDU6wjr958HA
9MtAWfM1wuA/6sHURYdAUg5JwvCY5cFfcFZAv/RCwj1658FTJVJA1z4wwnac98Hmmtk/IDMxwnmw
68GzPABApYwzwgW4A8LIisg+Uik1wu2y/MEuJ4E//2k1wsLh6MHCVd9AcjQxwttH68FC2ZtABEM/
wqgw5sGMadxAOhI2wq8V6sEjkjVAFhM4wpcZBsKQU3C+CiQ5wjBy/sG2OfU/UQc3wi4j9sEAi888
WjtHwtR55MFNX79AhjAtwlSA68Ft2dZA+7xKwhXO5cGraBVAWutKwhPn68GGdn1AE9tJwre+3cHl
hnNAbSRBwq0p4cG+nypAtDRCwgpS78FfjzRA7MAswhVg+MGs0IQ/kXYvwjvc+8H6KilAgbYtwlSA
6MHwxyJAR7ExwkFZ58GnA4c/U2QwwsYQA8IOrba+IgwywhpkBsKZJJc/FRxAwhFR5cFDfftAY6U4
wkXN78GODSRAKhI3wiBuCcKuCB6/

> <OMEGA_E>
sF7gPg==

> <OMEGA_NBR>
      7702

$$$$
CACHE3-HO_1696_6
  -OEChem-03092622503D

 37 39  0     0  0  0  0  0  0999 V2000
  -44.8870  -31.2197    0.9066 C   0  0  0  0  0  0  0  0  0  0  0  0
  -48.7578  -28.8250    5.9002 C   0  0  0  0  0  0  0  0  0  0  0  0
  -44.2532  -29.3901    6.1729 C   0  0  0  0  0  0  0  0  0  0  0  0
  -46.6780  -29.0550    4.9786 C   0  0  0  0  0  0  0  0  0  0  0  0
  -48.1086  -28.8721    4.6843 C   0  0  0  0  0  0  0  0  0  0  0  0
  -44.0455  -30.4713    1.7994 C   0  0  0  0  0  0  0  0  0  0  0  0
  -44.6232  -32.5395    1.1142 C   0  0  0  0  0  0  0  0  0  0  0  0
  -46.5562  -29.1234    6.3704 C   0  0  0  0  0  0  0  0  0  0  0  0
  -45.5014  -29.1248    4.2024 C   0  0  0  0  0  0  0  0  0  0  0  0
  -50.2841  -28.6073    3.4000 C   0  0  0  0  0  0  0  0  0  0  0  0
  -46.2773  -33.1924   -0.6800 C   0  0  0  0  0  0  0  0  0  0  0  0
  -48.7512  -28.7591    3.3127 C   0  0  0  0  0  0  0  0  0  0  0  0
  -44.2796  -29.0167    2.0152 C   0  0  0  0  0  0  0  0  0  0  0  0
  -45.3591  -33.6805    0.4635 C   0  0  0  0  0  0  0  0  0  0  0  0
  -45.3526  -29.2831    6.9543 N   0  0  0  0  0  0  0  0  0  0  0  0
  -44.3100  -29.3094    4.8236 N   0  0  0  0  0  0  0  0  0  0  0  0
  -43.3077  -31.3072    2.4911 N   0  0  0  0  0  0  0  0  0  0  0  0
  -47.8190  -28.9736    6.9124 N   0  0  0  0  0  0  0  0  0  0  0  0
  -45.5235  -28.9192    2.8244 N   0  0  0  0  0  0  0  0  0  0  0  0
  -43.6309  -32.6127    2.0508 O   0  0  0  0  0  0  0  0  0  0  0  0
  -46.1162  -34.2984    1.4076 F   0  0  0  0  0  0  0  0  0  0  0  0
  -44.4492  -34.5534   -0.0352 F   0  0  0  0  0  0  0  0  0  0  0  0
  -45.5966  -30.8114    0.2021 H   0  0  0  0  0  0  0  0  0  0  0  0
  -49.8204  -28.6942    6.0417 H   0  0  0  0  0  0  0  0  0  0  0  0
  -43.2940  -29.5457    6.6441 H   0  0  0  0  0  0  0  0  0  0  0  0
  -50.7037  -28.5294    2.3861 H   0  0  0  0  0  0  0  0  0  0  0  0
  -50.7111  -29.4852    3.9069 H   0  0  0  0  0  0  0  0  0  0  0  0
  -50.5307  -27.6991    3.9695 H   0  0  0  0  0  0  0  0  0  0  0  0
  -46.7952  -34.0533   -1.1279 H   0  0  0  0  0  0  0  0  0  0  0  0
  -47.0193  -32.4867   -0.2783 H   0  0  0  0  0  0  0  0  0  0  0  0
  -45.6710  -32.6895   -1.4477 H   0  0  0  0  0  0  0  0  0  0  0  0
  -48.3365  -27.8797    2.7982 H   0  0  0  0  0  0  0  0  0  0  0  0
  -48.5170  -29.6658    2.7356 H   0  0  0  0  0  0  0  0  0  0  0  0
  -43.4339  -28.5696    2.5582 H   0  0  0  0  0  0  0  0  0  0  0  0
  -44.4091  -28.5030    1.0512 H   0  0  0  0  0  0  0  0  0  0  0  0
  -48.0262  -28.9724    7.8907 H   0  0  0  0  0  0  0  0  0  0  0  0
  -46.1614  -29.5905    2.4471 H   0  0  0  0  0  0  0  0  0  0  0  0
  1  6  1  0  0  0  0
  1  7  2  0  0  0  0
  2  5  2  0  0  0  0
  2 18  1  0  0  0  0
  3 15  1  0  0  0  0
  3 16  2  0  0  0  0
  4  5  1  0  0  0  0
  4  8  1  0  0  0  0
  4  9  2  0  0  0  0
  5 12  1  0  0  0  0
  6 13  1  0  0  0  0
  6 17  2  0  0  0  0
  7 14  1  0  0  0  0
  7 20  1  0  0  0  0
  8 15  2  0  0  0  0
  8 18  1  0  0  0  0
  9 16  1  0  0  0  0
  9 19  1  0  0  0  0
 10 12  1  0  0  0  0
 11 14  1  0  0  0  0
 13 19  1  0  0  0  0
 14 21  1  0  0  0  0
 14 22  1  0  0  0  0
 17 20  1  0  0  0  0
  1 23  1  0  0  0  0
  2 24  1  0  0  0  0
  3 25  1  0  0  0  0
 10 26  1  0  0  0  0
 10 27  1  0  0  0  0
 10 28  1  0  0  0  0
 11 29  1  0  0  0  0
 11 30  1  0  0  0  0
 11 31  1  0  0  0  0
 12 32  1  0  0  0  0
 12 33  1  0  0  0  0
 13 34  1  0  0  0  0
 13 35  1  0  0  0  0
 18 36  1  0  0  0  0
 19 37  1  0  0  0  0
M  END
> <POSIT::Probability>
0.9

> <POSIT::Method>
SHAPEFIT

> <ReceptorTitle>
UCSF-P4621-REFINED_LIGAND-BOUND-STATE_A__DU__LA1_A-201(A)

> <OMEGA_C>
VIwzwuTB+cHuE2g/8QdDwp2Z5sGdzrxAQgMxwtQe68FNiMVAQbY6wrhw6MFLUJ9AMW9AwhL65sFo
5ZVAnC4wwkTF88GFUeY/I34ywnMoAsLDnY4/iTk6wrf86MEx2stAfAE2woL/6MHBeYZA9yJJws3b
5MHimFlA+xs5whDFBMLmEi6/OgFDwqkS5sEIA1RASB4xwkAi6MGI+ABAs281wt+4BsKwTe0+B2k1
wuRD6sGAid5Abz0xwqV56sEOW5pACTstwjJ1+sHAbR9AskY/wuXJ58FcMt1ABRg2wpla58GmwzRA
BIYuwmVzAsLMPwNA/XY4wpYxCcIJK7Q/BswxwqM2CsJAMxC96WI2wsZ99sHB8k4+IEhHwrmN5cFU
VcFAAy0twoZd7MHBnNRAndBKwjc85MEKthhAM9hKwsDh68EzCnpAcx9KwsuX3cERDH5AUC47wqA2
CMKWXpC/zxM8wmPyAcJ8fY6+EK82wgbCAsIDTbm/nVhBwp4J38HfFTNAXRFCwpNT7cECFC9ASbwt
wpWO5MG0uSNA8KIxwg8G5MFEjYY/3BpAwnXH58GYgPxARaU4wmm57MEgnRxA

> <OMEGA_E>
4IzqPg==

> <OMEGA_NBR>
      8960

$$$$
CACHE3-HO_1696_7
  -OEChem-03092622503D

 34 35  0     0  0  0  0  0  0999 V2000
  -48.7523  -28.7279    5.8724 C   0  0  0  0  0  0  0  0  0  0  0  0
  -44.2530  -29.3078    6.2125 C   0  0  0  0  0  0  0  0  0  0  0  0
  -46.6731  -29.0847    4.9838 C   0  0  0  0  0  0  0  0  0  0  0  0
  -48.1023  -28.9018    4.6684 C   0  0  0  0  0  0  0  0  0  0  0  0
  -46.5539  -28.9963    6.3748 C   0  0  0  0  0  0  0  0  0  0  0  0
  -45.4983  -29.2838    4.2231 C   0  0  0  0  0  0  0  0  0  0  0  0
  -50.2728  -28.6632    3.3680 C   0  0  0  0  0  0  0  0  0  0  0  0
  -48.7494  -28.9038    3.2936 C   0  0  0  0  0  0  0  0  0  0  0  0
  -44.0414  -30.8926    1.6264 C   0  0  0  0  0  0  0  0  0  0  0  0
  -45.2716  -31.4589    0.8853 C   0  0  0  0  0  0  0  0  0  0  0  0
  -44.3148  -29.4300    1.9900 C   0  0  0  0  0  0  0  0  0  0  0  0
  -44.9668  -32.8013    0.2201 C   0  0  0  0  0  0  0  0  0  0  0  0
  -45.3530  -29.1044    6.9754 N   0  0  0  0  0  0  0  0  0  0  0  0
  -44.3078  -29.3984    4.8615 N   0  0  0  0  0  0  0  0  0  0  0  0
  -47.8171  -28.7851    6.8961 N   0  0  0  0  0  0  0  0  0  0  0  0
  -45.5387  -29.3041    2.8321 N   0  0  0  0  0  0  0  0  0  0  0  0
  -46.1090  -33.2717   -0.3426 F   0  0  0  0  0  0  0  0  0  0  0  0
  -44.0285  -32.6274   -0.7485 F   0  0  0  0  0  0  0  0  0  0  0  0
  -44.5164  -33.6930    1.1421 F   0  0  0  0  0  0  0  0  0  0  0  0
  -49.8138  -28.5728    5.9977 H   0  0  0  0  0  0  0  0  0  0  0  0
  -43.2938  -29.4015    6.7000 H   0  0  0  0  0  0  0  0  0  0  0  0
  -50.6962  -28.6730    2.3528 H   0  0  0  0  0  0  0  0  0  0  0  0
  -50.7406  -29.4578    3.9679 H   0  0  0  0  0  0  0  0  0  0  0  0
  -50.4673  -27.6872    3.8368 H   0  0  0  0  0  0  0  0  0  0  0  0
  -48.2939  -28.1079    2.6861 H   0  0  0  0  0  0  0  0  0  0  0  0
  -48.5672  -29.8784    2.8173 H   0  0  0  0  0  0  0  0  0  0  0  0
  -43.8617  -31.4741    2.5426 H   0  0  0  0  0  0  0  0  0  0  0  0
  -43.1572  -30.9525    0.9747 H   0  0  0  0  0  0  0  0  0  0  0  0
  -46.0895  -31.5973    1.6076 H   0  0  0  0  0  0  0  0  0  0  0  0
  -45.5827  -30.7411    0.1121 H   0  0  0  0  0  0  0  0  0  0  0  0
  -43.4537  -29.0316    2.5465 H   0  0  0  0  0  0  0  0  0  0  0  0
  -44.4540  -28.8503    1.0656 H   0  0  0  0  0  0  0  0  0  0  0  0
  -48.0264  -28.6878    7.8691 H   0  0  0  0  0  0  0  0  0  0  0  0
  -46.1253  -30.0750    2.5839 H   0  0  0  0  0  0  0  0  0  0  0  0
  1  4  2  0  0  0  0
  1 15  1  0  0  0  0
  2 13  1  0  0  0  0
  2 14  2  0  0  0  0
  3  4  1  0  0  0  0
  3  5  1  0  0  0  0
  3  6  2  0  0  0  0
  4  8  1  0  0  0  0
  5 13  2  0  0  0  0
  5 15  1  0  0  0  0
  6 14  1  0  0  0  0
  6 16  1  0  0  0  0
  7  8  1  0  0  0  0
  9 10  1  0  0  0  0
  9 11  1  0  0  0  0
 10 12  1  0  0  0  0
 11 16  1  0  0  0  0
 12 17  1  0  0  0  0
 12 18  1  0  0  0  0
 12 19  1  0  0  0  0
  1 20  1  0  0  0  0
  2 21  1  0  0  0  0
  7 22  1  0  0  0  0
  7 23  1  0  0  0  0
  7 24  1  0  0  0  0
  8 25  1  0  0  0  0
  8 26  1  0  0  0  0
  9 27  1  0  0  0  0
  9 28  1  0  0  0  0
 10 29  1  0  0  0  0
 10 30  1  0  0  0  0
 11 31  1  0  0  0  0
 11 32  1  0  0  0  0
 15 33  1  0  0  0  0
 16 34  1  0  0  0  0
M  END
> <POSIT::Probability>
0.94

> <POSIT::Method>
SHAPEFIT

> <ReceptorTitle>
UCSF-P4621-REFINED_LIGAND-BOUND-STATE_A__DU__LA1_A-201(A)

> <OMEGA_C>
ZAJDwr7S5cGG6rtADAMxwkt26sFkzMZAPLE6wmmt6MGee59AuGhAwvk258HCY5VAKTc6wlb458Gu
/stAR/41wjhF6sG4I4dAYxdJwiZO5cGpjVdAaf9CwvY658GnylJAYiowwhYk98GOLNA/FBY1wsar
+8F8o2I/YkIxwrpw68E+uf4/9t0zwoU0A8JQV2E+eGk1wsnV6MFiNt9ALDsxwukv68F8kZtAwUQ/
wvFH5sGkrNxAlCc2wttu6sHtQDVAmW84wi0WBcJgY6++Nh0wwmyCAsJkmz+/zxAywp7FBsI6MJI/
TEFHwhaV5MFA7b9A5Swtwi4268E5ZtZA3MhKwlli5cEAlBZAVvZKwnmp68EZ8n1Ahd5Jwmt/3cGE
jXVA/SxBwuzc4MGH6StAz0RCwvsG78EcTjRAVnIvwvrK+8GWuiJA/qAswtCe98GDhnk/sVs4wjTH
/MHXxs0/uVQ2wq3t9cEog+U9mtAtwqVA6MFt+iJA79AxwoPN5sF4ZYg//xpAwrKA5cGYz/tAToA4
wp+Z8MH8XiVA

> <OMEGA_E>
qLQ+Pg==

> <OMEGA_NBR>
     10156

$$$$
CACHE3-HO_1696_9
  -OEChem-03092622503D

 38 39  0     0  0  0  0  0  0999 V2000
  -48.7597  -28.7822    5.8825 C   0  0  0  0  0  0  0  0  0  0  0  0
  -44.2492  -29.2498    6.2066 C   0  0  0  0  0  0  0  0  0  0  0  0
  -46.6758  -29.0815    4.9890 C   0  0  0  0  0  0  0  0  0  0  0  0
  -48.1043  -28.9163    4.6764 C   0  0  0  0  0  0  0  0  0  0  0  0
  -46.5560  -29.0103    6.3810 C   0  0  0  0  0  0  0  0  0  0  0  0
  -45.5041  -29.2561    4.2205 C   0  0  0  0  0  0  0  0  0  0  0  0
  -50.2562  -28.6240    3.3620 C   0  0  0  0  0  0  0  0  0  0  0  0
  -48.7362  -28.8763    3.2962 C   0  0  0  0  0  0  0  0  0  0  0  0
  -43.1571  -30.0154    2.1449 C   0  0  0  0  0  0  0  0  0  0  0  0
  -44.3971  -29.0860    1.9395 C   0  0  0  0  0  0  0  0  0  0  0  0
  -43.4644  -31.4884    2.5261 C   0  0  0  0  0  0  0  0  0  0  0  0
  -45.0442  -31.9434    0.7561 C   0  0  0  0  0  0  0  0  0  0  0  0
  -45.4543  -33.0656   -0.1693 C   0  0  0  0  0  0  0  0  0  0  0  0
  -45.3517  -29.0991    6.9772 N   0  0  0  0  0  0  0  0  0  0  0  0
  -44.3079  -29.3204    4.8547 N   0  0  0  0  0  0  0  0  0  0  0  0
  -47.8246  -28.8463    6.9066 N   0  0  0  0  0  0  0  0  0  0  0  0
  -45.5677  -29.3598    2.8290 N   0  0  0  0  0  0  0  0  0  0  0  0
  -43.7986  -32.2868    1.3847 O   0  0  0  0  0  0  0  0  0  0  0  0
  -44.5635  -33.1404   -1.1938 F   0  0  0  0  0  0  0  0  0  0  0  0
  -46.6937  -32.7954   -0.6500 F   0  0  0  0  0  0  0  0  0  0  0  0
  -45.4688  -34.2353    0.5217 F   0  0  0  0  0  0  0  0  0  0  0  0
  -49.8240  -28.6494    6.0092 H   0  0  0  0  0  0  0  0  0  0  0  0
  -43.2848  -29.3164    6.6882 H   0  0  0  0  0  0  0  0  0  0  0  0
  -50.6694  -28.6032    2.3428 H   0  0  0  0  0  0  0  0  0  0  0  0
  -50.7370  -29.4298    3.9361 H   0  0  0  0  0  0  0  0  0  0  0  0
  -50.4466  -27.6590    3.8545 H   0  0  0  0  0  0  0  0  0  0  0  0
  -48.2674  -28.0689    2.7146 H   0  0  0  0  0  0  0  0  0  0  0  0
  -48.5578  -29.8397    2.7962 H   0  0  0  0  0  0  0  0  0  0  0  0
  -42.5839  -30.0237    1.2060 H   0  0  0  0  0  0  0  0  0  0  0  0
  -42.5412  -29.5820    2.9467 H   0  0  0  0  0  0  0  0  0  0  0  0
  -44.0748  -28.0489    2.1148 H   0  0  0  0  0  0  0  0  0  0  0  0
  -44.7320  -29.1947    0.8973 H   0  0  0  0  0  0  0  0  0  0  0  0
  -42.5775  -31.9203    3.0127 H   0  0  0  0  0  0  0  0  0  0  0  0
  -44.3112  -31.5028    3.2281 H   0  0  0  0  0  0  0  0  0  0  0  0
  -44.9223  -31.0152    0.1786 H   0  0  0  0  0  0  0  0  0  0  0  0
  -45.8175  -31.7981    1.5248 H   0  0  0  0  0  0  0  0  0  0  0  0
  -48.0372  -28.7830    7.8817 H   0  0  0  0  0  0  0  0  0  0  0  0
  -45.8476  -30.3000    2.6350 H   0  0  0  0  0  0  0  0  0  0  0  0
  1  4  2  0  0  0  0
  1 16  1  0  0  0  0
  2 14  1  0  0  0  0
  2 15  2  0  0  0  0
  3  4  1  0  0  0  0
  3  5  1  0  0  0  0
  3  6  2  0  0  0  0
  4  8  1  0  0  0  0
  5 14  2  0  0  0  0
  5 16  1  0  0  0  0
  6 15  1  0  0  0  0
  6 17  1  0  0  0  0
  7  8  1  0  0  0  0
  9 10  1  0  0  0  0
  9 11  1  0  0  0  0
 10 17  1  0  0  0  0
 11 18  1  0  0  0  0
 12 13  1  0  0  0  0
 12 18  1  0  0  0  0
 13 19  1  0  0  0  0
 13 20  1  0  0  0  0
 13 21  1  0  0  0  0
  1 22  1  0  0  0  0
  2 23  1  0  0  0  0
  7 24  1  0  0  0  0
  7 25  1  0  0  0  0
  7 26  1  0  0  0  0
  8 27  1  0  0  0  0
  8 28  1  0  0  0  0
  9 29  1  0  0  0  0
  9 30  1  0  0  0  0
 10 31  1  0  0  0  0
 10 32  1  0  0  0  0
 11 33  1  0  0  0  0
 11 34  1  0  0  0  0
 12 35  1  0  0  0  0
 12 36  1  0  0  0  0
 16 37  1  0  0  0  0
 17 38  1  0  0  0  0
M  END
> <POSIT::Probability>
0.9

> <POSIT::Method>
SHAPEFIT

> <ReceptorTitle>
UCSF-P4621-REFINED_LIGAND-BOUND-STATE_A__DU__LA1_A-201(A)

> <OMEGA_C>
6QlDwvFB5sFBPbxAKf8wwpr/6cGLnMZAC7Q6wvim6MGrpZ9A0WpAwqBU58HkpJVAVzk6wgIV6MFC
McxAMAQ2woIM6sEgDodAWQZJwvX95MGBK1dA5/FCwqYC58HV9FJA16Aswogf8MGeRQlAppYxwgqw
6MHzQPg/lNstwi7o+8FgrCFASS00whyM/8E2jkE/KtE1witDBMISXC2+G2g1wvHK6MEBRd9AVDsx
wjaQ6sENWptAXUw/wiHF5sHVAt1ATEU2wvLg6sH+DjVAvjEvwrwlAcJhPbE/B0EywsePBMKZzpi/
UsY6wn8uA8KQYya/BOA1wvnwCMLakAU/u0tHwuAx5cGdS8BAniMtwvyH6sF9BdZAg61KwlvT5MG3
8BVAqfJKwjZw68Ep6XtATclJwqRF3cE+sHZA0BFBwhqN4MFPuy1AKztCwqu37sE69DJA6VUqwnww
8MGYX5o/LCoqwgGo7MFLljxApUwwwjhk4MF0WAdAhu0ywrOO6cEBuGU/U08qwthc/8Fiz0BAsD4x
wrYF/ME/mU5AbbAzwggf+MGW5jY+IUU3wpJi/sFoLMM/HiZAwq9D5sG0NvxA+WM3wndm8sGhoyhA

> <OMEGA_E>
YPWbPg==

> <OMEGA_NBR>
     11431

$$$$
CACHE3-HO_1708_11
  -OEChem-03092622503D

 44 45  0     1  0  0  0  0  0999 V2000
  -48.7535  -28.7053    5.8988 C   0  0  0  0  0  0  0  0  0  0  0  0
  -44.2520  -29.3329    6.1930 C   0  0  0  0  0  0  0  0  0  0  0  0
  -46.6888  -29.0863    5.0156 C   0  0  0  0  0  0  0  0  0  0  0  0
  -48.1085  -28.8958    4.6966 C   0  0  0  0  0  0  0  0  0  0  0  0
  -46.5518  -29.0005    6.3998 C   0  0  0  0  0  0  0  0  0  0  0  0
  -45.5410  -29.2805    4.2363 C   0  0  0  0  0  0  0  0  0  0  0  0
  -50.2472  -28.6535    3.3426 C   0  0  0  0  0  0  0  0  0  0  0  0
  -41.8536  -31.0664    1.2268 C   0  0  0  0  0  0  0  0  0  0  0  0
  -48.7297  -28.9055    3.3067 C   0  0  0  0  0  0  0  0  0  0  0  0
  -43.1723  -30.8831    0.4667 C   0  0  0  0  0  0  0  0  0  0  0  0
  -45.7103  -31.2311    0.6002 C   0  0  0  0  0  0  0  0  0  0  0  0
  -46.0623  -32.7431    0.5614 C   0  0  0  0  0  0  0  0  0  0  0  0
  -44.5381  -29.4126    1.9267 C   0  0  0  0  0  0  0  0  0  0  0  0
  -44.4199  -30.8605    1.4066 C   0  0  2  0  0  0  0  0  0  0  0  0
  -45.0160  -33.6663   -0.1049 C   0  0  0  0  0  0  0  0  0  0  0  0
  -45.3389  -29.1225    6.9794 N   0  0  0  0  0  0  0  0  0  0  0  0
  -44.3335  -29.4076    4.8398 N   0  0  0  0  0  0  0  0  0  0  0  0
  -47.8118  -28.7654    6.9231 N   0  0  0  0  0  0  0  0  0  0  0  0
  -45.6672  -29.2668    2.8579 N   0  0  0  0  0  0  0  0  0  0  0  0
  -44.2636  -31.7380    2.5368 O   0  0  0  0  0  0  0  0  0  0  0  0
  -45.5747  -34.8908   -0.2465 F   0  0  0  0  0  0  0  0  0  0  0  0
  -43.9062  -33.8106    0.6689 F   0  0  0  0  0  0  0  0  0  0  0  0
  -44.6841  -33.2061   -1.3420 F   0  0  0  0  0  0  0  0  0  0  0  0
  -49.8127  -28.5374    6.0259 H   0  0  0  0  0  0  0  0  0  0  0  0
  -43.2856  -29.4450    6.6620 H   0  0  0  0  0  0  0  0  0  0  0  0
  -50.6465  -28.6703    2.3178 H   0  0  0  0  0  0  0  0  0  0  0  0
  -50.7351  -29.4384    3.9390 H   0  0  0  0  0  0  0  0  0  0  0  0
  -50.4450  -27.6714    3.7970 H   0  0  0  0  0  0  0  0  0  0  0  0
  -41.0165  -31.0740    0.5133 H   0  0  0  0  0  0  0  0  0  0  0  0
  -41.7219  -30.2372    1.9376 H   0  0  0  0  0  0  0  0  0  0  0  0
  -41.8763  -32.0195    1.7755 H   0  0  0  0  0  0  0  0  0  0  0  0
  -48.2548  -28.1191    2.7017 H   0  0  0  0  0  0  0  0  0  0  0  0
  -48.5449  -29.8861    2.8437 H   0  0  0  0  0  0  0  0  0  0  0  0
  -43.1305  -29.9314   -0.0835 H   0  0  0  0  0  0  0  0  0  0  0  0
  -43.2848  -31.7137   -0.2455 H   0  0  0  0  0  0  0  0  0  0  0  0
  -45.5728  -30.8884   -0.4360 H   0  0  0  0  0  0  0  0  0  0  0  0
  -46.5585  -30.6971    1.0535 H   0  0  0  0  0  0  0  0  0  0  0  0
  -46.1992  -33.0833    1.5985 H   0  0  0  0  0  0  0  0  0  0  0  0
  -47.0082  -32.8544    0.0111 H   0  0  0  0  0  0  0  0  0  0  0  0
  -43.6077  -29.1424    2.4474 H   0  0  0  0  0  0  0  0  0  0  0  0
  -44.6896  -28.7367    1.0721 H   0  0  0  0  0  0  0  0  0  0  0  0
  -48.0162  -28.6548    7.8957 H   0  0  0  0  0  0  0  0  0  0  0  0
  -46.2989  -30.0096    2.6362 H   0  0  0  0  0  0  0  0  0  0  0  0
  -45.0408  -31.6953    3.0814 H   0  0  0  0  0  0  0  0  0  0  0  0
  1  4  2  0  0  0  0
  1 18  1  0  0  0  0
  2 16  1  0  0  0  0
  2 17  2  0  0  0  0
  3  4  1  0  0  0  0
  3  5  1  0  0  0  0
  3  6  2  0  0  0  0
  4  9  1  0  0  0  0
  5 16  2  0  0  0  0
  5 18  1  0  0  0  0
  6 17  1  0  0  0  0
  6 19  1  0  0  0  0
  7  9  1  0  0  0  0
  8 10  1  0  0  0  0
 10 14  1  0  0  0  0
 11 12  1  0  0  0  0
 11 14  1  0  0  0  0
 12 15  1  0  0  0  0
 13 14  1  0  0  0  0
 13 19  1  0  0  0  0
 14 20  1  0  0  0  0
 15 21  1  0  0  0  0
 15 22  1  0  0  0  0
 15 23  1  0  0  0  0
  1 24  1  0  0  0  0
  2 25  1  0  0  0  0
  7 26  1  0  0  0  0
  7 27  1  0  0  0  0
  7 28  1  0  0  0  0
  8 29  1  0  0  0  0
  8 30  1  0  0  0  0
  8 31  1  0  0  0  0
  9 32  1  0  0  0  0
  9 33  1  0  0  0  0
 10 34  1  0  0  0  0
 10 35  1  0  0  0  0
 11 36  1  0  0  0  0
 11 37  1  0  0  0  0
 12 38  1  0  0  0  0
 12 39  1  0  0  0  0
 13 40  1  0  0  0  0
 13 41  1  0  0  0  0
 18 42  1  0  0  0  0
 19 43  1  0  0  0  0
 20 44  1  0  0  0  0
M  END
> <POSIT::Probability>
0.91

> <POSIT::Method>
SHAPEFIT

> <ReceptorTitle>
UCSF-P4621-REFINED_LIGAND-BOUND-STATE_A__DU__LA1_A-201(A)

> <OMEGA_C>
iwNDwn6k5cFCw7xAEQIxwrap6sEALcZAYcE6wrCw6MEsgKBAJm9AwpEq58FpSpZAEjU6wg0B6MF+
y8xA+Sk2wmQ+6sEKkIdAG/1Iwk465cHQ7FVAH2onwvGH+MFICZ0/LOtCwoQ+58FUoVNAbLAswn8Q
98Fo9e4+Zdc2wlDZ+cEYpRk/wj84wu34AsKUug8/ECcywvRM68GYnfY//q0xwkLi9sEEC7Q/XxA0
wkqqBsKAvta9E1s1wtD66MGSV99Ah1Uxwt1C68HH35pAVD8/wpMf5sE8it1ALKs2wlEi6sF45zZA
6Q0xwnbn/cEOWyJAi0w2wjeQC8JgbHy+7Z8vwhI+B8JgOys/erwywgTTBMJ6x6u/PUBHwo5M5MEM
1MBAfyQtwmWP68HbLtVABJZKwr1c5cEsVhRAw/BKwuqB68HQGHxAqcdJwhdf3cGNAXNA4xAkwoeX
+MFPaAM/QeMmwtLl8cGrAvg/UIEnwvsTAMKvQ+M/6wRBwurz4MG66CxABi5Cwr4W78H+/zVAn4Us
wphz78E96qq9rSMtwry1/cH7bHu+hko2wmAb98G8N9++5Ts6wqeT9cFA2IY/CMw4wk9VBMKMm8w/
WQg8wuBqA8JYWzU8QG4uwpcj6cEDoxxAKcIywsTk5cG0O4k/mxBAwv885cHyqfxADDI5wqUT8MHY
tyhAzyk0wuOP/cFoNUVA

> <OMEGA_E>
DArlPg==

> <OMEGA_NBR>
     12832

$$$$
CACHE3-HO_1708_12
  -OEChem-03092622503D

 37 39  0     0  0  0  0  0  0999 V2000
  -48.7425  -28.6878    5.8791 C   0  0  0  0  0  0  0  0  0  0  0  0
  -44.2466  -29.3514    6.1998 C   0  0  0  0  0  0  0  0  0  0  0  0
  -46.6813  -29.1125    5.0131 C   0  0  0  0  0  0  0  0  0  0  0  0
  -48.0968  -28.9109    4.6832 C   0  0  0  0  0  0  0  0  0  0  0  0
  -46.5463  -29.0026    6.3947 C   0  0  0  0  0  0  0  0  0  0  0  0
  -45.5297  -29.3030    4.2432 C   0  0  0  0  0  0  0  0  0  0  0  0
  -44.9827  -31.3949    1.1819 C   0  0  0  0  0  0  0  0  0  0  0  0
  -44.6271  -32.4335    0.3611 C   0  0  0  0  0  0  0  0  0  0  0  0
  -44.0054  -30.3172    1.4429 C   0  0  0  0  0  0  0  0  0  0  0  0
  -43.2552  -32.4288   -0.1892 C   0  0  0  0  0  0  0  0  0  0  0  0
  -50.2344  -28.7063    3.3201 C   0  0  0  0  0  0  0  0  0  0  0  0
  -48.7145  -28.9464    3.2914 C   0  0  0  0  0  0  0  0  0  0  0  0
  -44.4755  -29.0159    2.0011 C   0  0  0  0  0  0  0  0  0  0  0  0
  -45.6298  -33.5063   -0.0187 C   0  0  0  0  0  0  0  0  0  0  0  0
  -45.3341  -29.1177    6.9789 N   0  0  0  0  0  0  0  0  0  0  0  0
  -44.3249  -29.4364    4.8487 N   0  0  0  0  0  0  0  0  0  0  0  0
  -42.7785  -30.3615    0.9678 N   0  0  0  0  0  0  0  0  0  0  0  0
  -47.8047  -28.7396    6.9080 N   0  0  0  0  0  0  0  0  0  0  0  0
  -42.3783  -31.4262    0.1989 N   0  0  0  0  0  0  0  0  0  0  0  0
  -45.6352  -29.2072    2.8730 N   0  0  0  0  0  0  0  0  0  0  0  0
  -42.8873  -33.2682   -1.0003 O   0  0  0  0  0  0  0  0  0  0  0  0
  -46.8230  -33.3459    0.6166 F   0  0  0  0  0  0  0  0  0  0  0  0
  -45.8417  -33.4409   -1.3583 F   0  0  0  0  0  0  0  0  0  0  0  0
  -45.1210  -34.7211    0.3098 F   0  0  0  0  0  0  0  0  0  0  0  0
  -49.7998  -28.5034    5.9992 H   0  0  0  0  0  0  0  0  0  0  0  0
  -43.2839  -29.4741    6.6737 H   0  0  0  0  0  0  0  0  0  0  0  0
  -45.9640  -31.3645    1.6320 H   0  0  0  0  0  0  0  0  0  0  0  0
  -50.6312  -28.7416    2.2947 H   0  0  0  0  0  0  0  0  0  0  0  0
  -50.7173  -29.4864    3.9270 H   0  0  0  0  0  0  0  0  0  0  0  0
  -50.4413  -27.7193    3.7594 H   0  0  0  0  0  0  0  0  0  0  0  0
  -48.2446  -28.1652    2.6759 H   0  0  0  0  0  0  0  0  0  0  0  0
  -48.5206  -29.9322    2.8434 H   0  0  0  0  0  0  0  0  0  0  0  0
  -43.6608  -28.5582    2.5815 H   0  0  0  0  0  0  0  0  0  0  0  0
  -44.7548  -28.3489    1.1722 H   0  0  0  0  0  0  0  0  0  0  0  0
  -48.0108  -28.6060    7.8773 H   0  0  0  0  0  0  0  0  0  0  0  0
  -41.4228  -31.4808   -0.0910 H   0  0  0  0  0  0  0  0  0  0  0  0
  -46.0729  -30.0535    2.5694 H   0  0  0  0  0  0  0  0  0  0  0  0
  1  4  2  0  0  0  0
  1 18  1  0  0  0  0
  2 15  1  0  0  0  0
  2 16  2  0  0  0  0
  3  4  1  0  0  0  0
  3  5  1  0  0  0  0
  3  6  2  0  0  0  0
  4 12  1  0  0  0  0
  5 15  2  0  0  0  0
  5 18  1  0  0  0  0
  6 16  1  0  0  0  0
  6 20  1  0  0  0  0
  7  8  2  0  0  0  0
  7  9  1  0  0  0  0
  8 10  1  0  0  0  0
  8 14  1  0  0  0  0
  9 13  1  0  0  0  0
  9 17  2  0  0  0  0
 10 19  1  0  0  0  0
 10 21  2  0  0  0  0
 11 12  1  0  0  0  0
 13 20  1  0  0  0  0
 14 22  1  0  0  0  0
 14 23  1  0  0  0  0
 14 24  1  0  0  0  0
 17 19  1  0  0  0  0
  1 25  1  0  0  0  0
  2 26  1  0  0  0  0
  7 27  1  0  0  0  0
 11 28  1  0  0  0  0
 11 29  1  0  0  0  0
 11 30  1  0  0  0  0
 12 31  1  0  0  0  0
 12 32  1  0  0  0  0
 13 33  1  0  0  0  0
 13 34  1  0  0  0  0
 18 35  1  0  0  0  0
 19 36  1  0  0  0  0
 20 37  1  0  0  0  0
M  END
> <POSIT::Probability>
0.72

> <POSIT::Method>
SHAPEFIT

> <ReceptorTitle>
UCSF-P4621-REFINED_LIGAND-BOUND-STATE_A__DU__LA1_A-201(A)

> <OMEGA_C>
U/hCwqmA5cGNIbxAePwwwrrP6sEJZcZAnbk6wnTm6MFJa6BAIWNAwoVJ58H53JVAci86wm0F6MFt
ocxAdR42wphs6sHrx4dASO4zwsMo+8GMSJc/J4Iywua7AcIw4rg+igUwwqCJ8sHssLg/SQUtwhK3
AcJAu0G+B/BIwo+m5cFqfFRAqttCwkaS58GmpVJA4uYxwpYg6MFSEgBA8YQ2wncGBsIAiZm8FFY1
wh7x6MFnU99AuEwxwtl968GLKJtAIx0rwkbk8sFowXc/+zc/wrbq5cEtDt1AYoMpws5o+8GAtks+
e4o2wlWo6cG43jdAjowrwqkSBcJKC4C/xUo7wj1iBcJI1x0/2103woPDBcJ0262/23s0wmHiCsKw
l54+CzNHwg4H5MHK+b9AriItwurK68FZj9VAHts3wmXq+sEJ5NA/UIZKwszu5cEi3RJAg95Kwhbk
68EeVHtA68NJwjHB3cGQmnBAgfpAwkFS4cFHQStAGBVCwiZ178HV+jVAqaQuwkt35MGBNyVA4AQz
wn7K4sGbC5Y/CgtAwifZ5ME+E/xA+rAlwsXY+8F4arq9qEo4wp5t8MG1cCRA

> <OMEGA_E>
bOgQPw==

> <OMEGA_NBR>
     14094

$$$$
CACHE3-HO_1708_15
  -OEChem-03092622503D

 44 46  0     1  0  0  0  0  0999 V2000
  -49.9831  -28.8077    3.2104 C   0  0  0  0  0  0  0  0  0  0  0  0
  -50.7381  -28.4973    4.3653 C   0  0  0  0  0  0  0  0  0  0  0  0
  -48.6036  -29.0620    3.3180 C   0  0  0  0  0  0  0  0  0  0  0  0
  -50.1232  -28.4533    5.6397 C   0  0  0  0  0  0  0  0  0  0  0  0
  -44.2500  -29.3185    6.2432 C   0  0  0  0  0  0  0  0  0  0  0  0
  -48.0137  -28.9896    4.5975 C   0  0  0  0  0  0  0  0  0  0  0  0
  -46.6304  -29.1539    5.0062 C   0  0  0  0  0  0  0  0  0  0  0  0
  -48.7449  -28.7079    5.7505 C   0  0  0  0  0  0  0  0  0  0  0  0
  -46.5617  -29.0090    6.3859 C   0  0  0  0  0  0  0  0  0  0  0  0
  -45.4778  -29.3272    4.2412 C   0  0  0  0  0  0  0  0  0  0  0  0
  -41.9972  -30.8736    0.9693 C   0  0  0  0  0  0  0  0  0  0  0  0
  -43.3849  -31.1713    0.3831 C   0  0  0  0  0  0  0  0  0  0  0  0
  -45.9357  -31.2401    0.7031 C   0  0  0  0  0  0  0  0  0  0  0  0
  -46.4399  -32.7058    0.6435 C   0  0  0  0  0  0  0  0  0  0  0  0
  -44.4756  -29.5564    1.9436 C   0  0  0  0  0  0  0  0  0  0  0  0
  -44.5493  -31.0077    1.4099 C   0  0  2  0  0  0  0  0  0  0  0  0
  -45.5639  -33.6783   -0.1728 C   0  0  0  0  0  0  0  0  0  0  0  0
  -45.3616  -29.0915    6.9999 N   0  0  0  0  0  0  0  0  0  0  0  0
  -44.2880  -29.4250    4.8843 N   0  0  0  0  0  0  0  0  0  0  0  0
  -47.8582  -28.7378    6.8362 N   0  0  0  0  0  0  0  0  0  0  0  0
  -45.5719  -29.2689    2.8638 N   0  0  0  0  0  0  0  0  0  0  0  0
  -44.3904  -31.9149    2.5117 O   0  0  0  0  0  0  0  0  0  0  0  0
  -46.3170  -34.7549   -0.5002 F   0  0  0  0  0  0  0  0  0  0  0  0
  -44.5143  -34.1199    0.5727 F   0  0  0  0  0  0  0  0  0  0  0  0
  -45.1371  -33.0960   -1.3280 F   0  0  0  0  0  0  0  0  0  0  0  0
  -50.4659  -28.8495    2.2452 H   0  0  0  0  0  0  0  0  0  0  0  0
  -51.7945  -28.2918    4.2741 H   0  0  0  0  0  0  0  0  0  0  0  0
  -48.0136  -29.3053    2.4467 H   0  0  0  0  0  0  0  0  0  0  0  0
  -50.7077  -28.2262    6.5190 H   0  0  0  0  0  0  0  0  0  0  0  0
  -43.2975  -29.4183    6.7423 H   0  0  0  0  0  0  0  0  0  0  0  0
  -41.2327  -31.0096    0.1903 H   0  0  0  0  0  0  0  0  0  0  0  0
  -41.9683  -29.8363    1.3342 H   0  0  0  0  0  0  0  0  0  0  0  0
  -41.7966  -31.5616    1.8039 H   0  0  0  0  0  0  0  0  0  0  0  0
  -43.5624  -30.4822   -0.4557 H   0  0  0  0  0  0  0  0  0  0  0  0
  -43.3907  -32.2075    0.0140 H   0  0  0  0  0  0  0  0  0  0  0  0
  -45.8507  -30.8727   -0.3302 H   0  0  0  0  0  0  0  0  0  0  0  0
  -46.6900  -30.6479    1.2419 H   0  0  0  0  0  0  0  0  0  0  0  0
  -46.4979  -33.0861    1.6741 H   0  0  0  0  0  0  0  0  0  0  0  0
  -47.4454  -32.7001    0.1976 H   0  0  0  0  0  0  0  0  0  0  0  0
  -43.5203  -29.4176    2.4711 H   0  0  0  0  0  0  0  0  0  0  0  0
  -44.5299  -28.8598    1.0940 H   0  0  0  0  0  0  0  0  0  0  0  0
  -48.1146  -28.5877    7.7910 H   0  0  0  0  0  0  0  0  0  0  0  0
  -46.3024  -29.9059    2.6178 H   0  0  0  0  0  0  0  0  0  0  0  0
  -45.1079  -31.7994    3.1236 H   0  0  0  0  0  0  0  0  0  0  0  0
  1  2  1  0  0  0  0
  1  3  2  0  0  0  0
  2  4  2  0  0  0  0
  3  6  1  0  0  0  0
  4  8  1  0  0  0  0
  5 18  2  0  0  0  0
  5 19  1  0  0  0  0
  6  7  1  0  0  0  0
  6  8  2  0  0  0  0
  7  9  2  0  0  0  0
  7 10  1  0  0  0  0
  8 20  1  0  0  0  0
  9 18  1  0  0  0  0
  9 20  1  0  0  0  0
 10 19  2  0  0  0  0
 10 21  1  0  0  0  0
 11 12  1  0  0  0  0
 12 16  1  0  0  0  0
 13 14  1  0  0  0  0
 13 16  1  0  0  0  0
 14 17  1  0  0  0  0
 15 16  1  0  0  0  0
 15 21  1  0  0  0  0
 16 22  1  0  0  0  0
 17 23  1  0  0  0  0
 17 24  1  0  0  0  0
 17 25  1  0  0  0  0
  1 26  1  0  0  0  0
  2 27  1  0  0  0  0
  3 28  1  0  0  0  0
  4 29  1  0  0  0  0
  5 30  1  0  0  0  0
 11 31  1  0  0  0  0
 11 32  1  0  0  0  0
 11 33  1  0  0  0  0
 12 34  1  0  0  0  0
 12 35  1  0  0  0  0
 13 36  1  0  0  0  0
 13 37  1  0  0  0  0
 14 38  1  0  0  0  0
 14 39  1  0  0  0  0
 15 40  1  0  0  0  0
 15 41  1  0  0  0  0
 20 42  1  0  0  0  0
 21 43  1  0  0  0  0
 22 44  1  0  0  0  0
M  END
> <POSIT::Probability>
0.79

> <POSIT::Method>
SHAPEFIT

> <ReceptorTitle>
UCSF-P4621-REFINED_LIGAND-BOUND-STATE_A__DU__LA1_A-201(A)

> <OMEGA_C>
ue5Hwh525sHpdk1A1vNKwnP648F0sItAIWpCwuJ+6MFtWVRAMn5IwlSg48FaeLRABAAxwkSM6sEe
yMdAAg5Awszq58GSHpNAh4U6wjA76cGUMqBAy/pCwrOp5cHuA7hAKj86wlYS6MFyWcxARuk1wiie
6sEauIdALf0nwib99sEkJXg/Gootwspe+cEYKsQ+I743wsXr+cEk/zM/csI5wsHSAsLUvSQ//OYx
wodz7MFayPg/gTIywq8P+MESebQ/e0E2wpy2BsJQ9jC+VHI1wla76MF0/99A7CYxwnFm68HmS5xA
ym4/whnn5cECwtpAqEk2wq8m6sHxRzdA0o8xwrRR/8EZvyBAlkQ5wg8FC8KwCgC/qg4yws56CMJM
mxI/Zow0wlRiBMLk/Km/F91JwtLL5sFosQ9AhS1PwoRV4sE5xYhA9w1Awlhx6sEPlxxAsNRKwjjP
4cHXm9BAmzAtwrJY68GbwNdAPu4kwqIT+MEP1UI+jd8nwrmw7sHSxqo/uC8nwhp+/MGV5OY/5j8u
woXb88FEUOm+EZAtwnPUAMI72WQ8Imc3wlv79sGWFKm+i8I6wvsu9cEw+J4/5v05wiZYBMLXR9Y/
H8g9wuvMAsIFVko+1RQuwipX68HTJh5Alx4ywvfg5sEOCIw/UnVAwoiz5MEMUPlAtTU5wlk/78FP
iSdAdG40whJl/sEO6UdA

> <OMEGA_E>
ajIiPw==

> <OMEGA_NBR>
     15498

$$$$
CACHE3-HO_1708_18
  -OEChem-03092622503D

 38 40  0     0  0  0  0  0  0999 V2000
  -48.7366  -28.6424    5.8751 C   0  0  0  0  0  0  0  0  0  0  0  0
  -44.4999  -32.8636    1.2627 C   0  0  0  0  0  0  0  0  0  0  0  0
  -44.2600  -29.3726    6.2203 C   0  0  0  0  0  0  0  0  0  0  0  0
  -46.6642  -29.0415    4.9952 C   0  0  0  0  0  0  0  0  0  0  0  0
  -48.0825  -28.8242    4.6738 C   0  0  0  0  0  0  0  0  0  0  0  0
  -45.4640  -33.3793    0.4349 C   0  0  0  0  0  0  0  0  0  0  0  0
  -46.0980  -32.2253   -0.2580 C   0  0  0  0  0  0  0  0  0  0  0  0
  -46.5488  -28.9889    6.3893 C   0  0  0  0  0  0  0  0  0  0  0  0
  -45.4989  -29.2526    4.2259 C   0  0  0  0  0  0  0  0  0  0  0  0
  -50.2408  -28.7570    3.3246 C   0  0  0  0  0  0  0  0  0  0  0  0
  -48.7000  -28.8189    3.2835 C   0  0  0  0  0  0  0  0  0  0  0  0
  -43.6733  -30.5367    1.7372 C   0  0  0  0  0  0  0  0  0  0  0  0
  -44.3464  -29.1608    1.9642 C   0  0  0  0  0  0  0  0  0  0  0  0
  -47.2255  -32.2442   -1.2734 C   0  0  0  0  0  0  0  0  0  0  0  0
  -45.3545  -29.1558    6.9907 N   0  0  0  0  0  0  0  0  0  0  0  0
  -44.3113  -29.4131    4.8627 N   0  0  0  0  0  0  0  0  0  0  0  0
  -45.5132  -31.1219    0.1554 N   0  0  0  0  0  0  0  0  0  0  0  0
  -47.8088  -28.7409    6.9066 N   0  0  0  0  0  0  0  0  0  0  0  0
  -44.5876  -31.5036    1.0692 N   0  0  0  0  0  0  0  0  0  0  0  0
  -45.5577  -29.2530    2.8288 N   0  0  0  0  0  0  0  0  0  0  0  0
  -47.6524  -33.5078   -1.5298 F   0  0  0  0  0  0  0  0  0  0  0  0
  -46.7932  -31.6804   -2.4322 F   0  0  0  0  0  0  0  0  0  0  0  0
  -48.2694  -31.5161   -0.7948 F   0  0  0  0  0  0  0  0  0  0  0  0
  -45.8465  -35.0759    0.2443 Cl  0  0  0  0  0  0  0  0  0  0  0  0
  -49.7935  -28.4547    5.9945 H   0  0  0  0  0  0  0  0  0  0  0  0
  -43.8274  -33.4004    1.9153 H   0  0  0  0  0  0  0  0  0  0  0  0
  -43.3067  -29.5193    6.7062 H   0  0  0  0  0  0  0  0  0  0  0  0
  -50.6357  -28.7555    2.2980 H   0  0  0  0  0  0  0  0  0  0  0  0
  -50.6285  -29.6331    3.8652 H   0  0  0  0  0  0  0  0  0  0  0  0
  -50.5571  -27.8384    3.8404 H   0  0  0  0  0  0  0  0  0  0  0  0
  -48.3258  -27.9425    2.7341 H   0  0  0  0  0  0  0  0  0  0  0  0
  -48.3972  -29.7372    2.7590 H   0  0  0  0  0  0  0  0  0  0  0  0
  -42.7831  -30.3964    1.1065 H   0  0  0  0  0  0  0  0  0  0  0  0
  -43.3713  -30.9489    2.7113 H   0  0  0  0  0  0  0  0  0  0  0  0
  -43.6206  -28.4880    2.4445 H   0  0  0  0  0  0  0  0  0  0  0  0
  -44.6403  -28.7466    0.9884 H   0  0  0  0  0  0  0  0  0  0  0  0
  -48.0208  -28.6465    7.8793 H   0  0  0  0  0  0  0  0  0  0  0  0
  -46.0146  -30.1049    2.5728 H   0  0  0  0  0  0  0  0  0  0  0  0
  1  5  2  0  0  0  0
  1 18  1  0  0  0  0
  2  6  2  0  0  0  0
  2 19  1  0  0  0  0
  3 15  1  0  0  0  0
  3 16  2  0  0  0  0
  4  5  1  0  0  0  0
  4  8  1  0  0  0  0
  4  9  2  0  0  0  0
  5 11  1  0  0  0  0
  6  7  1  0  0  0  0
  6 24  1  0  0  0  0
  7 14  1  0  0  0  0
  7 17  2  0  0  0  0
  8 15  2  0  0  0  0
  8 18  1  0  0  0  0
  9 16  1  0  0  0  0
  9 20  1  0  0  0  0
 10 11  1  0  0  0  0
 12 13  1  0  0  0  0
 12 19  1  0  0  0  0
 13 20  1  0  0  0  0
 14 21  1  0  0  0  0
 14 22  1  0  0  0  0
 14 23  1  0  0  0  0
 17 19  1  0  0  0  0
  1 25  1  0  0  0  0
  2 26  1  0  0  0  0
  3 27  1  0  0  0  0
 10 28  1  0  0  0  0
 10 29  1  0  0  0  0
 10 30  1  0  0  0  0
 11 31  1  0  0  0  0
 11 32  1  0  0  0  0
 12 33  1  0  0  0  0
 12 34  1  0  0  0  0
 13 35  1  0  0  0  0
 13 36  1  0  0  0  0
 18 37  1  0  0  0  0
 20 38  1  0  0  0  0
M  END
> <POSIT::Probability>
0.79

> <POSIT::Method>
SHAPEFIT

> <ReceptorTitle>
UCSF-P4621-REFINED_LIGAND-BOUND-STATE_A__DU__LA1_A-201(A)

> <OMEGA_C>
VPJCwpIj5cGXALxA4/8xwlZ0A8Ijn6E/OQoxwhX76sHQDMdAHag6wu9U6MHu2J9Ah1RAwvyX5sFl
j5VALds1wnSEBcL8rt4+VmQ4wrPmAMIAHYS+AzI6wjfp58EUdcxA0/41wkAF6sEqOodAlvZIwmcO
5sGOxlRAw8xCwhyN5sEYJVJAdLEuwjFL9MFTXd4/tmIxwkNJ6cGXa/s/5uY8wgf6AMIZ/qK/BGs1
wi4/6cGds99Azz4xwgpO68EAm5tAhQ02wpr5+MEwKx8+Ojw/wnDt5cHkAt1AqlkywmYH/MFr3Ig/
Gjs2whwG6sGmCzVAB5w+wgMIBsIZz8O/SCw7wmpx/cE7qRvA0hNBwv4g/MH3d0u/1mI3wrpNDML4
MXo+iCxHwjKj48Eg079AOE8vwvyZBcIoKvU/CDotwpIn7MERmdZAAotKwlcL5sHaERNAm4NKwoQQ
7cGxX3dAfzpKwvi03sF9yHVAk01BwiWK38Ev/C5AsJZBwrHl7cFkkzBA2iErwuIr88Efoo0/L3wt
wmuX98E3hi1AhXsuwoTn48EVcxxAn48ywhf55cEJC30/SRVAwiAs5cFOI/xA8A44wsDW8MELqCRA

> <OMEGA_E>
ENMLPw==

> <OMEGA_NBR>
     16780

$$$$
CACHE3-HO_1708_22
  -OEChem-03092622503D

 38 40  0     0  0  0  0  0  0999 V2000
  -42.8963  -32.2674    2.7877 C   0  0  0  0  0  0  0  0  0  0  0  0
  -42.9579  -30.8881    2.5632 C   0  0  0  0  0  0  0  0  0  0  0  0
  -43.7077  -33.1342    2.0391 C   0  0  0  0  0  0  0  0  0  0  0  0
  -48.7441  -28.7100    5.8819 C   0  0  0  0  0  0  0  0  0  0  0  0
  -44.2527  -29.3436    6.2062 C   0  0  0  0  0  0  0  0  0  0  0  0
  -46.6758  -29.1009    5.0036 C   0  0  0  0  0  0  0  0  0  0  0  0
  -43.9029  -30.3700    1.6600 C   0  0  0  0  0  0  0  0  0  0  0  0
  -44.5451  -32.6257    1.0175 C   0  0  0  0  0  0  0  0  0  0  0  0
  -48.0936  -28.9084    4.6832 C   0  0  0  0  0  0  0  0  0  0  0  0
  -44.6414  -31.2316    0.8279 C   0  0  0  0  0  0  0  0  0  0  0  0
  -46.5487  -29.0099    6.3916 C   0  0  0  0  0  0  0  0  0  0  0  0
  -45.5184  -29.2790    4.2265 C   0  0  0  0  0  0  0  0  0  0  0  0
  -50.2286  -28.6887    3.3303 C   0  0  0  0  0  0  0  0  0  0  0  0
  -48.7097  -28.9298    3.2949 C   0  0  0  0  0  0  0  0  0  0  0  0
  -44.4473  -29.0074    1.9301 C   0  0  0  0  0  0  0  0  0  0  0  0
  -45.3911  -33.5525    0.1695 C   0  0  0  0  0  0  0  0  0  0  0  0
  -45.3430  -29.1275    6.9822 N   0  0  0  0  0  0  0  0  0  0  0  0
  -44.3205  -29.4048    4.8512 N   0  0  0  0  0  0  0  0  0  0  0  0
  -47.8098  -28.7735    6.9101 N   0  0  0  0  0  0  0  0  0  0  0  0
  -45.6123  -29.2118    2.8341 N   0  0  0  0  0  0  0  0  0  0  0  0
  -45.5483  -30.7182   -0.0434 F   0  0  0  0  0  0  0  0  0  0  0  0
  -45.1865  -34.8538    0.4989 F   0  0  0  0  0  0  0  0  0  0  0  0
  -45.0565  -33.3729   -1.1353 F   0  0  0  0  0  0  0  0  0  0  0  0
  -46.7062  -33.2583    0.3533 F   0  0  0  0  0  0  0  0  0  0  0  0
  -42.2259  -32.6646    3.5354 H   0  0  0  0  0  0  0  0  0  0  0  0
  -42.2823  -30.2238    3.0816 H   0  0  0  0  0  0  0  0  0  0  0  0
  -43.6929  -34.1945    2.2435 H   0  0  0  0  0  0  0  0  0  0  0  0
  -49.8029  -28.5345    6.0027 H   0  0  0  0  0  0  0  0  0  0  0  0
  -43.2927  -29.4721    6.6841 H   0  0  0  0  0  0  0  0  0  0  0  0
  -50.6282  -28.7131    2.3057 H   0  0  0  0  0  0  0  0  0  0  0  0
  -50.7105  -29.4745    3.9305 H   0  0  0  0  0  0  0  0  0  0  0  0
  -50.4334  -27.7061    3.7803 H   0  0  0  0  0  0  0  0  0  0  0  0
  -48.2401  -28.1428    2.6865 H   0  0  0  0  0  0  0  0  0  0  0  0
  -48.5173  -29.9112    2.8368 H   0  0  0  0  0  0  0  0  0  0  0  0
  -43.6872  -28.3807    2.4196 H   0  0  0  0  0  0  0  0  0  0  0  0
  -44.7682  -28.5297    0.9927 H   0  0  0  0  0  0  0  0  0  0  0  0
  -48.0187  -28.6642    7.8819 H   0  0  0  0  0  0  0  0  0  0  0  0
  -46.0288  -30.0749    2.5485 H   0  0  0  0  0  0  0  0  0  0  0  0
  1  2  2  0  0  0  0
  1  3  1  0  0  0  0
  2  7  1  0  0  0  0
  3  8  2  0  0  0  0
  4  9  2  0  0  0  0
  4 19  1  0  0  0  0
  5 17  1  0  0  0  0
  5 18  2  0  0  0  0
  6  9  1  0  0  0  0
  6 11  1  0  0  0  0
  6 12  2  0  0  0  0
  7 10  2  0  0  0  0
  7 15  1  0  0  0  0
  8 10  1  0  0  0  0
  8 16  1  0  0  0  0
  9 14  1  0  0  0  0
 10 21  1  0  0  0  0
 11 17  2  0  0  0  0
 11 19  1  0  0  0  0
 12 18  1  0  0  0  0
 12 20  1  0  0  0  0
 13 14  1  0  0  0  0
 15 20  1  0  0  0  0
 16 22  1  0  0  0  0
 16 23  1  0  0  0  0
 16 24  1  0  0  0  0
  1 25  1  0  0  0  0
  2 26  1  0  0  0  0
  3 27  1  0  0  0  0
  4 28  1  0  0  0  0
  5 29  1  0  0  0  0
 13 30  1  0  0  0  0
 13 31  1  0  0  0  0
 13 32  1  0  0  0  0
 14 33  1  0  0  0  0
 14 34  1  0  0  0  0
 15 35  1  0  0  0  0
 15 36  1  0  0  0  0
 19 37  1  0  0  0  0
 20 38  1  0  0  0  0
M  END
> <POSIT::Probability>
0.91

> <POSIT::Method>
SHAPEFIT

> <ReceptorTitle>
UCSF-P4621-REFINED_LIGAND-BOUND-STATE_A__DU__LA1_A-201(A)

> <OMEGA_C>
1pUrwtwRAcLpaDJA4NQrwuwa98ENDCRApNQuwmaJBMLTfwJA+vlCwg+u5cGqOLxAwAIxwr2/6sFC
mcZAC7Q6wpXO6MFaHaBAnJwvwrL18sGKetQ/My4ywrmAAsKePoI/zV9AwmBE58GA3JVAzJAywlja
+cEc8VM/6zE6wlEU6MHsh8xA0hI2wn076sFqP4dAFupIwnGC5cETI1VAxdZCwipw58ED31JA/skx
wi0P6MEaDvc/c5A1wrk1BsJImS0+Ql81wiwF6cGWbt9ANkgxwv4868HUPJtAPj0/whEw5sGkH91A
/XI2ws6x6cG1YTVAeDE2wsq+9cEgmjG9+740wklqC8LIa/8+0Dk0wtl9BcJCUJG/KNM6woYIBcKQ
5rQ+TOcowpOoAsIzRGJAGCEpwmXK8cG0OEVAg8UuwjfHCMKrlQ9ALDZHwqRG5MHKFcBAxSstwvXG
68FH5NVAUYNKwnG05cHukBNAmtdKwrHL68GEjXtAxbtJwv+l3cGv73FA2/VAwl4k4cFU8CtAsBFC
whBK78EpjjVAr78uwrIL48Hs2RpAnhIzwsQ85MHZIH4/JhNAwlpQ5cHHOPxAgR04wnSZ8MHYGiNA

> <OMEGA_E>
YJ+1Pg==

> <OMEGA_NBR>
     18061

$$$$
CACHE3-HO_1708_28
  -OEChem-03092622503D

 38 40  0     0  0  0  0  0  0999 V2000
  -46.1716  -31.4621    1.0725 C   0  0  0  0  0  0  0  0  0  0  0  0
  -48.7395  -28.7074    5.8785 C   0  0  0  0  0  0  0  0  0  0  0  0
  -44.2435  -29.3543    6.2029 C   0  0  0  0  0  0  0  0  0  0  0  0
  -44.7044  -32.9395    0.3005 C   0  0  0  0  0  0  0  0  0  0  0  0
  -46.6661  -29.0793    5.0120 C   0  0  0  0  0  0  0  0  0  0  0  0
  -48.0832  -28.9020    4.6833 C   0  0  0  0  0  0  0  0  0  0  0  0
  -44.9404  -30.8706    1.2393 C   0  0  0  0  0  0  0  0  0  0  0  0
  -46.5406  -28.9985    6.3980 C   0  0  0  0  0  0  0  0  0  0  0  0
  -45.5171  -29.2721    4.2328 C   0  0  0  0  0  0  0  0  0  0  0  0
  -50.2062  -28.7154    3.2975 C   0  0  0  0  0  0  0  0  0  0  0  0
  -42.6470  -32.3089    2.7243 C   0  0  0  0  0  0  0  0  0  0  0  0
  -48.6879  -28.9455    3.2877 C   0  0  0  0  0  0  0  0  0  0  0  0
  -44.5980  -29.5462    1.8837 C   0  0  0  0  0  0  0  0  0  0  0  0
  -42.6701  -31.8564    1.2480 C   0  0  0  0  0  0  0  0  0  0  0  0
  -45.9886  -32.7261    0.4810 N   0  0  0  0  0  0  0  0  0  0  0  0
  -45.3322  -29.1280    6.9845 N   0  0  0  0  0  0  0  0  0  0  0  0
  -44.3155  -29.4228    4.8455 N   0  0  0  0  0  0  0  0  0  0  0  0
  -47.8064  -28.7654    6.9115 N   0  0  0  0  0  0  0  0  0  0  0  0
  -44.0743  -31.8319    0.8120 N   0  0  0  0  0  0  0  0  0  0  0  0
  -45.6505  -29.2113    2.8488 N   0  0  0  0  0  0  0  0  0  0  0  0
  -47.1211  -31.0284    1.3496 H   0  0  0  0  0  0  0  0  0  0  0  0
  -49.7997  -28.5381    5.9953 H   0  0  0  0  0  0  0  0  0  0  0  0
  -43.2825  -29.4850    6.6781 H   0  0  0  0  0  0  0  0  0  0  0  0
  -44.2424  -33.8035   -0.1540 H   0  0  0  0  0  0  0  0  0  0  0  0
  -50.5905  -28.7569    2.2676 H   0  0  0  0  0  0  0  0  0  0  0  0
  -50.6914  -29.4962    3.9015 H   0  0  0  0  0  0  0  0  0  0  0  0
  -50.4245  -27.7281    3.7307 H   0  0  0  0  0  0  0  0  0  0  0  0
  -41.6076  -32.3382    3.0832 H   0  0  0  0  0  0  0  0  0  0  0  0
  -43.2255  -31.5995    3.3343 H   0  0  0  0  0  0  0  0  0  0  0  0
  -43.0918  -33.3116    2.8074 H   0  0  0  0  0  0  0  0  0  0  0  0
  -48.2165  -28.1635    2.6744 H   0  0  0  0  0  0  0  0  0  0  0  0
  -48.4834  -29.9316    2.8452 H   0  0  0  0  0  0  0  0  0  0  0  0
  -43.6310  -29.6249    2.4019 H   0  0  0  0  0  0  0  0  0  0  0  0
  -44.5385  -28.7633    1.1133 H   0  0  0  0  0  0  0  0  0  0  0  0
  -42.2315  -30.8517    1.1568 H   0  0  0  0  0  0  0  0  0  0  0  0
  -42.0978  -32.5638    0.6299 H   0  0  0  0  0  0  0  0  0  0  0  0
  -48.0192  -28.6549    7.8823 H   0  0  0  0  0  0  0  0  0  0  0  0
  -46.4156  -29.8164    2.6285 H   0  0  0  0  0  0  0  0  0  0  0  0
  1  7  2  0  0  0  0
  1 15  1  0  0  0  0
  2  6  2  0  0  0  0
  2 18  1  0  0  0  0
  3 16  1  0  0  0  0
  3 17  2  0  0  0  0
  4 15  2  0  0  0  0
  4 19  1  0  0  0  0
  5  6  1  0  0  0  0
  5  8  1  0  0  0  0
  5  9  2  0  0  0  0
  6 12  1  0  0  0  0
  7 13  1  0  0  0  0
  7 19  1  0  0  0  0
  8 16  2  0  0  0  0
  8 18  1  0  0  0  0
  9 17  1  0  0  0  0
  9 20  1  0  0  0  0
 10 12  1  0  0  0  0
 11 14  1  0  0  0  0
 13 20  1  0  0  0  0
 14 19  1  0  0  0  0
  1 21  1  0  0  0  0
  2 22  1  0  0  0  0
  3 23  1  0  0  0  0
  4 24  1  0  0  0  0
 10 25  1  0  0  0  0
 10 26  1  0  0  0  0
 10 27  1  0  0  0  0
 11 28  1  0  0  0  0
 11 29  1  0  0  0  0
 11 30  1  0  0  0  0
 12 31  1  0  0  0  0
 12 32  1  0  0  0  0
 13 33  1  0  0  0  0
 13 34  1  0  0  0  0
 14 35  1  0  0  0  0
 14 36  1  0  0  0  0
 18 37  1  0  0  0  0
 20 38  1  0  0  0  0
M  END
> <POSIT::Probability>
0.72

> <POSIT::Method>
SHAPEFIT

> <ReceptorTitle>
UCSF-P4621-REFINED_LIGAND-BOUND-STATE_A__DU__LA1_A-201(A)

> <OMEGA_C>
ua84wnWy+8EOR4k/OfVCwq+o5cFpHLxAV/kwwpPV6sHBfcZAWtEywhXCA8IE2Jk+I6o6wnWi6MGx
YqBAN1VAwko358Fb3ZVA7sIzwu729sHqoJ4/lyk6wur858EJvMxAixE2wkwt6sEbc4dALdNIwha5
5cEQClNAhpYqwlo8AcJkWy5AbsBCwnuQ58H2aVJAX2Qywo9e7MEIHPE/Na4qwuTZ/sFovp8/TfQ3
wn7nAsKAP/Y+JFQ1wjsG6cE1gd9AEUMxwuhh68FlDptAzjk/wnkf5sEtK91AIUwwwqGn/sGi308/
Ipo2wsyw6cFkUjZA+Xs8wiI6+MHovqw/6TJHwhpO5MFf2b9ASCEtwjHh68GYstVAP/gwwrw2B8Id
vB2+tVxKwg4O5sEKIRFACsRKwj/468F/snlAsLJJwifT3cFew25AKm4mwlVaAcKNUkVA5eYswsHL
/MG/ZFVAA14swgg/BcIBrDNArN1AwuhO4cEDKStABe9Bwv9z78EjGDZAGoYuwrT/7MFRuRlAcScy
wiob5sGTf44/E+0owmLQ9sEEEpQ/MWQowllBAsIPQSE/tBNAwiM95cEyPPxAnKk5wuyH7sFHOShA

> <OMEGA_E>
7CMDPw==

> <OMEGA_NBR>
     19341

$$$$
CACHE3HI_1687_54
  -OEChem-03092622503D

 31 31  0     0  0  0  0  0  0999 V2000
  -46.8806  -29.1495    4.3082 C   0  0  0  0  0  0  0  0  0  0  0  0
  -49.1788  -29.2911    5.7280 C   0  0  0  0  0  0  0  0  0  0  0  0
  -46.8322  -29.0124    5.6439 C   0  0  0  0  0  0  0  0  0  0  0  0
  -48.2083  -29.3761    3.6427 C   0  0  0  0  0  0  0  0  0  0  0  0
  -45.5541  -28.7838    6.3874 C   0  0  0  0  0  0  0  0  0  0  0  0
  -44.3260  -30.2007    0.4879 C   0  0  0  0  0  0  0  0  0  0  0  0
  -44.3906  -29.4336    5.6586 C   0  0  0  0  0  0  0  0  0  0  0  0
  -44.8424  -29.8225    1.8662 C   0  0  0  0  0  0  0  0  0  0  0  0
  -43.8064  -31.6208    0.4534 C   0  0  0  0  0  0  0  0  0  0  0  0
  -49.3370  -29.4360    4.4498 N   0  0  0  0  0  0  0  0  0  0  0  0
  -47.9949  -29.0824    6.3731 N   0  0  0  0  0  0  0  0  0  0  0  0
  -44.2296  -28.9244    4.3226 N   0  0  0  0  0  0  0  0  0  0  0  0
  -48.2423  -29.4984    2.4206 O   0  0  0  0  0  0  0  0  0  0  0  0
  -43.5058  -31.2970    3.5523 O   0  0  0  0  0  0  0  0  0  0  0  0
  -42.3744  -29.2793    2.5479 O   0  0  0  0  0  0  0  0  0  0  0  0
  -42.7629  -31.7643    1.3020 F   0  0  0  0  0  0  0  0  0  0  0  0
  -44.7590  -32.5026    0.8229 F   0  0  0  0  0  0  0  0  0  0  0  0
  -43.3798  -31.9587   -0.7813 F   0  0  0  0  0  0  0  0  0  0  0  0
  -43.5560  -29.9232    3.0891 S   0  0  0  0  0  0  0  0  0  0  0  0
  -45.9991  -29.1036    3.6796 H   0  0  0  0  0  0  0  0  0  0  0  0
  -50.0429  -29.3307    6.4093 H   0  0  0  0  0  0  0  0  0  0  0  0
  -45.6674  -29.1852    7.3992 H   0  0  0  0  0  0  0  0  0  0  0  0
  -45.3980  -27.7023    6.4493 H   0  0  0  0  0  0  0  0  0  0  0  0
  -43.5252  -29.5142    0.1890 H   0  0  0  0  0  0  0  0  0  0  0  0
  -45.1270  -30.0899   -0.2526 H   0  0  0  0  0  0  0  0  0  0  0  0
  -44.5546  -30.5120    5.5708 H   0  0  0  0  0  0  0  0  0  0  0  0
  -43.4460  -29.2679    6.1873 H   0  0  0  0  0  0  0  0  0  0  0  0
  -45.2166  -28.7945    1.8841 H   0  0  0  0  0  0  0  0  0  0  0  0
  -45.6422  -30.4941    2.1912 H   0  0  0  0  0  0  0  0  0  0  0  0
  -47.9379  -28.9765    7.3797 H   0  0  0  0  0  0  0  0  0  0  0  0
  -43.9763  -27.9154    4.2508 H   0  0  0  0  0  0  0  0  0  0  0  0
  1  3  2  0  0  0  0
  1  4  1  0  0  0  0
  2 10  2  0  0  0  0
  2 11  1  0  0  0  0
  3  5  1  0  0  0  0
  3 11  1  0  0  0  0
  4 10  1  0  0  0  0
  4 13  2  0  0  0  0
  5  7  1  0  0  0  0
  6  8  1  0  0  0  0
  6  9  1  0  0  0  0
  7 12  1  0  0  0  0
  8 19  1  0  0  0  0
  9 16  1  0  0  0  0
  9 17  1  0  0  0  0
  9 18  1  0  0  0  0
 12 19  1  0  0  0  0
 14 19  2  0  0  0  0
 15 19  2  0  0  0  0
  1 20  1  0  0  0  0
  2 21  1  0  0  0  0
  5 22  1  0  0  0  0
  5 23  1  0  0  0  0
  6 24  1  0  0  0  0
  6 25  1  0  0  0  0
  7 26  1  0  0  0  0
  7 27  1  0  0  0  0
  8 28  1  0  0  0  0
  8 29  1  0  0  0  0
 11 30  1  0  0  0  0
 12 31  1  0  0  0  0
M  END
> <POSIT::Probability>
0.23

> <POSIT::Method>
HYBRID

> <ReceptorTitle>
UCSF-P4621-REFINED_LIGAND-BOUND-STATE_A__DU__LA1_A-201(A)

> <OMEGA_C>
uIU7wj8y6cGy3IlAGrdEwjNU6sGmS7dAIVQ7wmwZ6MGEmrRAVtVAwlgC68FEImlAXDc2wkpF5sHi
ZcxAyU0xwgqb8cHAy/k+9o8xwgp468EwE7VApV4zwmKU7sEw3u4/vTkvwlz3/MGAKeg+EllFwtp8
68EIZY5AwPo/wsyo6MHO8MtAGOswwhpl58EaU4pAFfhAwq7868Hk6xpA5wUuwihg+sE4WWNAa38p
wgY86sFYECNALA0rwkMd/sH4p6Y/Pgkzwq8CAsIAqVI/4YQtwn6r/8EgAUi/Yzkuwrxi78Gos0VA
IP83wiPU6MHMfmtA+itIwkKl6sEgGc1AYqs2wkJ76cEuxuxAhpc1wmSe3cFkYM5A1hkuwhsd7MFA
jkE+A4I0wgS48MGAVoG+9DcywqwY9MHAQ7JAu8gtwqEk6sFE/sVAzd00whxb5sEYKvE/qJE2wtjz
88EUPQxAaMA/wuPP58GcJuxAvucvwrVS38HsBohA

> <OMEGA_E>
oyLmwA==

> <OMEGA_NBR>
     20449

$$$$
CACHE3HI_1689_16
  -OEChem-03092622503D

 35 36  0     0  0  0  0  0  0999 V2000
  -48.7097  -28.5614    4.9718 C   0  0  0  0  0  0  0  0  0  0  0  0
  -48.7093  -29.1581    2.6306 C   0  0  0  0  0  0  0  0  0  0  0  0
  -47.3440  -28.8365    5.0415 C   0  0  0  0  0  0  0  0  0  0  0  0
  -47.3436  -29.4332    2.7002 C   0  0  0  0  0  0  0  0  0  0  0  0
  -51.6018  -27.5283    4.4057 C   0  0  0  0  0  0  0  0  0  0  0  0
  -51.6703  -29.0728    2.8425 C   0  0  0  0  0  0  0  0  0  0  0  0
  -49.3923  -28.7221    3.7661 C   0  0  0  0  0  0  0  0  0  0  0  0
  -50.7982  -28.4389    3.6937 C   0  0  0  0  0  0  0  0  0  0  0  0
  -46.6610  -29.2725    3.9060 C   0  0  0  0  0  0  0  0  0  0  0  0
  -44.4366  -29.4476    5.0902 C   0  0  0  0  0  0  0  0  0  0  0  0
  -42.7457  -30.2359    3.4207 C   0  0  0  0  0  0  0  0  0  0  0  0
  -43.1150  -29.6425    0.9955 C   0  0  0  0  0  0  0  0  0  0  0  0
  -43.0280  -29.1269    2.4202 C   0  0  0  0  0  0  0  0  0  0  0  0
  -52.8851  -27.5762    4.0386 N   0  0  0  0  0  0  0  0  0  0  0  0
  -52.8951  -28.5247    3.0866 N   0  0  0  0  0  0  0  0  0  0  0  0
  -45.2758  -29.5514    3.9773 N   0  0  0  0  0  0  0  0  0  0  0  0
  -43.1307  -29.8149    4.7481 N   0  0  0  0  0  0  0  0  0  0  0  0
  -44.7602  -29.0903    6.2203 O   0  0  0  0  0  0  0  0  0  0  0  0
  -43.4080  -28.5514    0.1312 O   0  0  0  0  0  0  0  0  0  0  0  0
  -44.1945  -28.5111    2.7435 F   0  0  0  0  0  0  0  0  0  0  0  0
  -42.0490  -28.1888    2.4952 F   0  0  0  0  0  0  0  0  0  0  0  0
  -49.2276  -28.2224    5.8659 H   0  0  0  0  0  0  0  0  0  0  0  0
  -49.2274  -29.2883    1.6833 H   0  0  0  0  0  0  0  0  0  0  0  0
  -46.8218  -28.7077    5.9863 H   0  0  0  0  0  0  0  0  0  0  0  0
  -46.8216  -29.7723    1.8090 H   0  0  0  0  0  0  0  0  0  0  0  0
  -51.3096  -26.8305    5.1781 H   0  0  0  0  0  0  0  0  0  0  0  0
  -51.5391  -29.8495    2.1018 H   0  0  0  0  0  0  0  0  0  0  0  0
  -43.3102  -31.1375    3.1639 H   0  0  0  0  0  0  0  0  0  0  0  0
  -41.6789  -30.4817    3.4265 H   0  0  0  0  0  0  0  0  0  0  0  0
  -43.9164  -30.3811    0.8940 H   0  0  0  0  0  0  0  0  0  0  0  0
  -42.1644  -30.0811    0.6792 H   0  0  0  0  0  0  0  0  0  0  0  0
  -53.7771  -28.7495    2.6435 H   0  0  0  0  0  0  0  0  0  0  0  0
  -44.8378  -29.8653    3.1144 H   0  0  0  0  0  0  0  0  0  0  0  0
  -42.4059  -29.7534    5.4570 H   0  0  0  0  0  0  0  0  0  0  0  0
  -43.4566  -28.9133   -0.7679 H   0  0  0  0  0  0  0  0  0  0  0  0
  1  3  1  0  0  0  0
  1  7  2  0  0  0  0
  2  4  2  0  0  0  0
  2  7  1  0  0  0  0
  3  9  2  0  0  0  0
  4  9  1  0  0  0  0
  5  8  1  0  0  0  0
  5 14  2  0  0  0  0
  6  8  2  0  0  0  0
  6 15  1  0  0  0  0
  7  8  1  0  0  0  0
  9 16  1  0  0  0  0
 10 16  1  0  0  0  0
 10 17  1  0  0  0  0
 10 18  2  0  0  0  0
 11 13  1  0  0  0  0
 11 17  1  0  0  0  0
 12 13  1  0  0  0  0
 12 19  1  0  0  0  0
 13 20  1  0  0  0  0
 13 21  1  0  0  0  0
 14 15  1  0  0  0  0
  1 22  1  0  0  0  0
  2 23  1  0  0  0  0
  3 24  1  0  0  0  0
  4 25  1  0  0  0  0
  5 26  1  0  0  0  0
  6 27  1  0  0  0  0
 11 28  1  0  0  0  0
 11 29  1  0  0  0  0
 12 30  1  0  0  0  0
 12 31  1  0  0  0  0
 15 32  1  0  0  0  0
 16 33  1  0  0  0  0
 17 34  1  0  0  0  0
 19 35  1  0  0  0  0
M  END
> <POSIT::Probability>
0.24

> <POSIT::Method>
FRED

> <ReceptorTitle>
UCSF-P4621-REFINED_LIGAND-BOUND-STATE_A__DU__LA1_A-201(A)

> <OMEGA_C>
vtZCwrB95MEkGZ9AVdZCwtpD6cFYWyhAQmA9wh6x5sE4VKFA5V89wkV368Hk0CxAPWhOwvw53ME8
+4xAbK5OwgyV6MGY6zVAr5FFwunG5cEYCHFATzFLwt+C48HwZWxA56Q6wg4u6sGs+3lAF78xwq6U
68G84qJAkvsqwibj8cHM7FpAvnUsws4j7cFw234/qBwswtMD6cHg5BpATopTwhac3MHsO4FAoJRT
woky5MEMi0VAbBo1wkJp7MFMi35AzYUswuKE7sGk8JdAdAozwvy46MFuDMdAwKEtwjxp5MEAWQY+
IscwwrkW5MEYli9ANzIowpuC4cEQsh9AGOlEwmfH4cF6tbtA5OhEwohO6sHod9c/hkk7wkWp5cF7
j79AXEk7wqAt7sEwjuc/AD1Nwtmk1sEks6VAFihOwtDL7sF8hAZAoD0twpwZ+cEkfUpAPbcmwpTa
88H4SltAY6ovwnYM88FQ22Q/Zagowiqm8MGw3i0/vBtXwhH/5cF0LilA3FkzwjTs7sEQU0dAqp8p
wvoG7sERoK5AktMtwnFO58HAk0S/

> <OMEGA_E>
y3kJwQ==

> <OMEGA_NBR>
     21637

$$$$
CACHE3HI_1696_6
  -OEChem-03092622503D

 40 41  0     0  0  0  0  0  0999 V2000
  -48.7436  -28.7356    5.8645 C   0  0  0  0  0  0  0  0  0  0  0  0
  -44.2417  -29.2803    6.2315 C   0  0  0  0  0  0  0  0  0  0  0  0
  -46.6599  -29.0953    5.0008 C   0  0  0  0  0  0  0  0  0  0  0  0
  -48.0811  -28.9188    4.6694 C   0  0  0  0  0  0  0  0  0  0  0  0
  -46.5479  -28.9993    6.3903 C   0  0  0  0  0  0  0  0  0  0  0  0
  -45.4883  -29.2889    4.2430 C   0  0  0  0  0  0  0  0  0  0  0  0
  -50.2157  -28.6771    3.3151 C   0  0  0  0  0  0  0  0  0  0  0  0
  -43.5672  -31.7116    2.7733 C   0  0  0  0  0  0  0  0  0  0  0  0
  -42.7960  -30.7626    0.5750 C   0  0  0  0  0  0  0  0  0  0  0  0
  -48.6951  -28.9247    3.2796 C   0  0  0  0  0  0  0  0  0  0  0  0
  -45.2758  -31.4666    0.8436 C   0  0  0  0  0  0  0  0  0  0  0  0
  -44.3478  -29.4210    1.9834 C   0  0  0  0  0  0  0  0  0  0  0  0
  -44.0020  -30.8689    1.5422 C   0  0  0  0  0  0  0  0  0  0  0  0
  -45.1086  -32.8196    0.1085 C   0  0  0  0  0  0  0  0  0  0  0  0
  -45.3467  -29.0961    6.9941 N   0  0  0  0  0  0  0  0  0  0  0  0
  -44.2945  -29.3716    4.8799 N   0  0  0  0  0  0  0  0  0  0  0  0
  -47.8170  -28.7873    6.8991 N   0  0  0  0  0  0  0  0  0  0  0  0
  -45.5523  -29.3524    2.8541 N   0  0  0  0  0  0  0  0  0  0  0  0
  -46.3356  -33.2140   -0.3163 F   0  0  0  0  0  0  0  0  0  0  0  0
  -44.3108  -32.6900   -0.9828 F   0  0  0  0  0  0  0  0  0  0  0  0
  -44.6152  -33.7849    0.9249 F   0  0  0  0  0  0  0  0  0  0  0  0
  -49.8060  -28.5781    5.9780 H   0  0  0  0  0  0  0  0  0  0  0  0
  -43.2814  -29.3574    6.7196 H   0  0  0  0  0  0  0  0  0  0  0  0
  -50.6138  -28.6903    2.2898 H   0  0  0  0  0  0  0  0  0  0  0  0
  -50.7018  -29.4664    3.9072 H   0  0  0  0  0  0  0  0  0  0  0  0
  -50.4170  -27.6979    3.7739 H   0  0  0  0  0  0  0  0  0  0  0  0
  -44.4103  -31.7998    3.4743 H   0  0  0  0  0  0  0  0  0  0  0  0
  -43.2603  -32.7144    2.4411 H   0  0  0  0  0  0  0  0  0  0  0  0
  -42.7227  -31.2175    3.2760 H   0  0  0  0  0  0  0  0  0  0  0  0
  -43.0827  -30.1686   -0.3053 H   0  0  0  0  0  0  0  0  0  0  0  0
  -41.9557  -30.2735    1.0894 H   0  0  0  0  0  0  0  0  0  0  0  0
  -42.4933  -31.7703    0.2546 H   0  0  0  0  0  0  0  0  0  0  0  0
  -48.2211  -28.1340    2.6794 H   0  0  0  0  0  0  0  0  0  0  0  0
  -48.5060  -29.9025    2.8127 H   0  0  0  0  0  0  0  0  0  0  0  0
  -46.0449  -31.6032    1.6181 H   0  0  0  0  0  0  0  0  0  0  0  0
  -45.6254  -30.7296    0.1056 H   0  0  0  0  0  0  0  0  0  0  0  0
  -43.4910  -29.0087    2.5366 H   0  0  0  0  0  0  0  0  0  0  0  0
  -44.5299  -28.8142    1.0841 H   0  0  0  0  0  0  0  0  0  0  0  0
  -48.0356  -28.6860    7.8696 H   0  0  0  0  0  0  0  0  0  0  0  0
  -46.0911  -30.1675    2.6414 H   0  0  0  0  0  0  0  0  0  0  0  0
  1  4  2  0  0  0  0
  1 17  1  0  0  0  0
  2 15  1  0  0  0  0
  2 16  2  0  0  0  0
  3  4  1  0  0  0  0
  3  5  1  0  0  0  0
  3  6  2  0  0  0  0
  4 10  1  0  0  0  0
  5 15  2  0  0  0  0
  5 17  1  0  0  0  0
  6 16  1  0  0  0  0
  6 18  1  0  0  0  0
  7 10  1  0  0  0  0
  8 13  1  0  0  0  0
  9 13  1  0  0  0  0
 11 13  1  0  0  0  0
 11 14  1  0  0  0  0
 12 13  1  0  0  0  0
 12 18  1  0  0  0  0
 14 19  1  0  0  0  0
 14 20  1  0  0  0  0
 14 21  1  0  0  0  0
  1 22  1  0  0  0  0
  2 23  1  0  0  0  0
  7 24  1  0  0  0  0
  7 25  1  0  0  0  0
  7 26  1  0  0  0  0
  8 27  1  0  0  0  0
  8 28  1  0  0  0  0
  8 29  1  0  0  0  0
  9 30  1  0  0  0  0
  9 31  1  0  0  0  0
  9 32  1  0  0  0  0
 10 33  1  0  0  0  0
 10 34  1  0  0  0  0
 11 35  1  0  0  0  0
 11 36  1  0  0  0  0
 12 37  1  0  0  0  0
 12 38  1  0  0  0  0
 17 39  1  0  0  0  0
 18 40  1  0  0  0  0
M  END
> <POSIT::Probability>
0.99

> <POSIT::Method>
SHAPEFIT

> <ReceptorTitle>
UCSF-P4621-REFINED_LIGAND-BOUND-STATE_A__DU__LA1_A-201(A)

> <OMEGA_C>
cflCwovi5cFjqrtAePcwwiI+6sG1aMdAuqM6wirD6MG5BqBACVNAwrJZ58GLa5VAAzE6woz+58E1
fcxAEPQ1wpRP6sFVxodA19xIwrhq5cE7KlRAxUQuwnWx/cG/fTFAJy8rwr4Z9sFPNhM/vsdCwrRl
58Hv5FFAZRo1wqG7+8Fn+Vc/HmQxwh1e68Gw3/0/GAIwwnbz9sHAZ8U/O280wkpHA8LISN49AGM1
wubE6MHSz99Aii0xwhn56sEJKJxAmkQ/wl9M5sFbxdxAhzU2wrHR6sGvqTZAm1c5whrbBMIa7qG+
Rj4xwpTCAsJklnu/93UywrAjB8I3xGw/XDlHwgug5MGPS79AGyAtwgTc6sFUB9dAlHRKwqWF5cFs
ixJAp85Kwj6768ECEHpAAqtJwj6V3cFQiHFAH6QxwgZm/sG5Wl5AhAotwofbAsJKOxxACeQqwmi9
+cFyqVFApVQswlpZ8cHpVZy+otInwgcw8sHicYs/Hfkpwq0p/sFIVoI+dOJAwmMS4cF0eytAGAZC
wmM478EmAzRAAC44wmfT/MF+Hc8/YYA2wlHW9cEEWNg9zPYtwscR6MH8ViJAnB4ywnyD5sFzxIo/
eCRAwvt85cEI1PtAS104whBX8cElDSlA

> <OMEGA_E>
ACRDPA==

> <OMEGA_NBR>
     22951

$$$$
CACHE3-HO_1700_14
  -OEChem-03092622523D

 38 40  0     0  0  0  0  0  0999 V2000
  -41.0498  -30.7847    2.5065 C   0  0  0  0  0  0  0  0  0  0  0  0
  -41.6739  -29.5995    2.8960 C   0  0  0  0  0  0  0  0  0  0  0  0
  -41.6093  -31.5676    1.4968 C   0  0  0  0  0  0  0  0  0  0  0  0
  -42.8569  -29.1972    2.2759 C   0  0  0  0  0  0  0  0  0  0  0  0
  -47.8163  -29.6952    6.5831 C   0  0  0  0  0  0  0  0  0  0  0  0
  -47.2768  -29.8199    5.2984 C   0  0  0  0  0  0  0  0  0  0  0  0
  -49.4797  -30.1961    4.3316 C   0  0  0  0  0  0  0  0  0  0  0  0
  -51.3189  -29.9673    7.3207 C   0  0  0  0  0  0  0  0  0  0  0  0
  -42.7923  -31.1653    0.8767 C   0  0  0  0  0  0  0  0  0  0  0  0
  -43.4164  -29.9802    1.2662 C   0  0  0  0  0  0  0  0  0  0  0  0
  -50.0383  -30.0731    5.6149 C   0  0  0  0  0  0  0  0  0  0  0  0
  -49.2002  -29.8276    6.6989 C   0  0  0  0  0  0  0  0  0  0  0  0
  -48.0929  -30.0666    4.1919 C   0  0  0  0  0  0  0  0  0  0  0  0
  -43.3543  -32.0020   -0.1749 C   0  0  0  0  0  0  0  0  0  0  0  0
  -46.1629  -30.1090    2.5806 C   0  0  0  0  0  0  0  0  0  0  0  0
  -44.6968  -29.5215    0.6121 C   0  0  0  0  0  0  0  0  0  0  0  0
  -45.9311  -30.2897    1.0884 C   0  0  0  0  0  0  0  0  0  0  0  0
  -51.3512  -30.1567    6.0201 N   0  0  0  0  0  0  0  0  0  0  0  0
  -50.0465  -29.7650    7.7765 N   0  0  0  0  0  0  0  0  0  0  0  0
  -47.5176  -30.1856    2.9252 N   0  0  0  0  0  0  0  0  0  0  0  0
  -44.1626  -32.9188   -0.0026 O   0  0  0  0  0  0  0  0  0  0  0  0
  -45.2124  -29.9488    3.3410 O   0  0  0  0  0  0  0  0  0  0  0  0
  -42.8893  -31.6666   -1.4084 O   0  0  0  0  0  0  0  0  0  0  0  0
  -40.1288  -31.0976    2.9891 H   0  0  0  0  0  0  0  0  0  0  0  0
  -41.2382  -28.9901    3.6823 H   0  0  0  0  0  0  0  0  0  0  0  0
  -41.1133  -32.4887    1.2021 H   0  0  0  0  0  0  0  0  0  0  0  0
  -43.3353  -28.2721    2.5869 H   0  0  0  0  0  0  0  0  0  0  0  0
  -47.1853  -29.5047    7.4439 H   0  0  0  0  0  0  0  0  0  0  0  0
  -46.2003  -29.7212    5.1729 H   0  0  0  0  0  0  0  0  0  0  0  0
  -50.1155  -30.3885    3.4723 H   0  0  0  0  0  0  0  0  0  0  0  0
  -52.1725  -29.9647    7.9836 H   0  0  0  0  0  0  0  0  0  0  0  0
  -44.5932  -29.6417   -0.4735 H   0  0  0  0  0  0  0  0  0  0  0  0
  -44.8353  -28.4467    0.7846 H   0  0  0  0  0  0  0  0  0  0  0  0
  -46.8211  -29.9056    0.5740 H   0  0  0  0  0  0  0  0  0  0  0  0
  -45.8622  -31.3547    0.8388 H   0  0  0  0  0  0  0  0  0  0  0  0
  -49.7763  -29.5992    8.7369 H   0  0  0  0  0  0  0  0  0  0  0  0
  -48.1664  -30.3664    2.1524 H   0  0  0  0  0  0  0  0  0  0  0  0
  -43.2622  -32.2243   -2.1246 H   0  0  0  0  0  0  0  0  0  0  0  0
  1  2  1  0  0  0  0
  1  3  2  0  0  0  0
  2  4  2  0  0  0  0
  3  9  1  0  0  0  0
  4 10  1  0  0  0  0
  5  6  2  0  0  0  0
  5 12  1  0  0  0  0
  6 13  1  0  0  0  0
  7 11  1  0  0  0  0
  7 13  2  0  0  0  0
  8 18  2  0  0  0  0
  8 19  1  0  0  0  0
  9 10  2  0  0  0  0
  9 14  1  0  0  0  0
 10 16  1  0  0  0  0
 11 12  2  0  0  0  0
 11 18  1  0  0  0  0
 12 19  1  0  0  0  0
 13 20  1  0  0  0  0
 14 21  2  0  0  0  0
 14 23  1  0  0  0  0
 15 17  1  0  0  0  0
 15 20  1  0  0  0  0
 15 22  2  0  0  0  0
 16 17  1  0  0  0  0
  1 24  1  0  0  0  0
  2 25  1  0  0  0  0
  3 26  1  0  0  0  0
  4 27  1  0  0  0  0
  5 28  1  0  0  0  0
  6 29  1  0  0  0  0
  7 30  1  0  0  0  0
  8 31  1  0  0  0  0
 16 32  1  0  0  0  0
 16 33  1  0  0  0  0
 17 34  1  0  0  0  0
 17 35  1  0  0  0  0
 19 36  1  0  0  0  0
 20 37  1  0  0  0  0
 23 38  1  0  0  0  0
M  END
> <POSIT::Probability>
0.05

> <POSIT::Method>
FRED

> <ReceptorTitle>
UCSF-P4622-REFINED_LIGAND-BOUND-STATE_A__DU__LA1_A-201(A)

> <OMEGA_C>
+zIkwgNH9sGVaiBABrImwuDL7MGCWDlA428mwm6K/MHil78/dW0rwveT6cFhqBFA8EM/wr2P7cHA
qNJAdRs9wj+P7sErjKlAMetFwrKR8cFinIpAi0ZNwgS978H6QupAVCsrwoZS+cE4b2A/YKotwnzX
78FAEqI/MSdIwr6V8MFUrbNA+8xEwvme7sGoXdZALV9AwniI8MEuJIZAymotwgcCAMKwIDO+0aY4
wknf8ME2KSVAj8kywgMs7MEktRw/eLk3wmZR8sFWUIs/m2dNwgNB8cHxpMBAqC9IwqAe7sF02fhA
EBI+wiN88cH3NjtAhKYwwtWsA8IAQCi7g9k0wiOX78F201VAmo4rwitV/cGvRrS/24MgwtXH+MFA
TT9A5PMkwsfr58E1qmtAD3QkwnL0AcJG3pk/Xlctwiot4sFJkCVAuL08wpwJ7MFjNO5AKM04wgrF
7cF8iKVATnZIwqwb88FoOV5ArLBQwsm378GHef9AZF8ywh4i7cFYb/K+UFczwtyS48FI2Ug/xEg7
wpQ+78HI9BI/5XI3woXW+sHouFY/8RpHwkLL7MFQygtBXKpAwn3u8sEzwAlAhwwtwrXlAMIt+QfA

> <OMEGA_E>
aHQRwQ==

> <OMEGA_NBR>
      1252

$$$$
CACHE3-HO_1700_28
  -OEChem-03092622523D

 55 58  0     1  0  0  0  0  0999 V2000
  -49.0880  -29.1761    4.7577 C   0  0  0  0  0  0  0  0  0  0  0  0
  -48.3158  -29.2953    3.6064 C   0  0  0  0  0  0  0  0  0  0  0  0
  -44.9892  -29.5809    6.4573 C   0  0  0  0  0  0  0  0  0  0  0  0
  -48.4569  -29.2097    6.0014 C   0  0  0  0  0  0  0  0  0  0  0  0
  -47.0642  -29.3637    6.0089 C   0  0  0  0  0  0  0  0  0  0  0  0
  -46.4183  -29.4711    4.7850 C   0  0  0  0  0  0  0  0  0  0  0  0
  -49.2304  -29.0873    7.2631 C   0  0  0  0  0  0  0  0  0  0  0  0
  -53.7818  -27.3644    9.8834 C   0  0  0  0  0  0  0  0  0  0  0  0
  -56.0264  -30.3972    5.8564 C   0  0  0  0  0  0  0  0  0  0  0  0
  -54.8272  -31.2916    6.1539 C   0  0  0  0  0  0  0  0  0  0  0  0
  -55.5967  -28.9685    5.5404 C   0  0  0  0  0  0  0  0  0  0  0  0
  -54.4920  -25.5374   12.3932 C   0  0  0  0  0  0  0  0  0  0  0  0
  -55.4072  -26.2686   11.4402 C   0  0  0  0  0  0  0  0  0  0  0  0
  -53.9543  -30.7112    7.2647 C   0  0  0  0  0  0  0  0  0  0  0  0
  -54.7244  -28.3837    6.6491 C   0  0  0  0  0  0  0  0  0  0  0  0
  -53.8263  -26.6783   13.1287 C   0  0  0  0  0  0  0  0  0  0  0  0
  -54.6189  -27.5218   11.1121 C   0  0  2  0  0  0  0  0  0  0  0  0
  -53.5118  -29.2764    6.9464 C   0  0  0  0  0  0  0  0  0  0  0  0
  -51.4138  -29.5043    8.3653 C   0  0  0  0  0  0  0  0  0  0  0  0
  -52.6862  -28.7000    8.0942 C   0  0  2  0  0  0  0  0  0  0  0  0
  -46.9697  -29.4458    3.5599 N   0  0  0  0  0  0  0  0  0  0  0  0
  -46.1598  -29.4339    7.0403 N   0  0  0  0  0  0  0  0  0  0  0  0
  -45.0940  -29.6088    5.0914 N   0  0  0  0  0  0  0  0  0  0  0  0
  -50.5322  -29.5723    7.2310 N   0  0  0  0  0  0  0  0  0  0  0  0
  -53.4950  -28.5797    9.2829 N   0  0  0  0  0  0  0  0  0  0  0  0
  -48.7050  -28.5608    8.2404 O   0  0  0  0  0  0  0  0  0  0  0  0
  -53.3980  -26.2633    9.4963 O   0  0  0  0  0  0  0  0  0  0  0  0
  -53.6978  -27.7475   12.1825 O   0  0  0  0  0  0  0  0  0  0  0  0
  -50.1646  -29.0591    4.6797 H   0  0  0  0  0  0  0  0  0  0  0  0
  -48.7963  -29.2706    2.6316 H   0  0  0  0  0  0  0  0  0  0  0  0
  -44.0363  -29.6721    6.9588 H   0  0  0  0  0  0  0  0  0  0  0  0
  -56.5921  -30.8076    5.0124 H   0  0  0  0  0  0  0  0  0  0  0  0
  -56.7012  -30.3923    6.7213 H   0  0  0  0  0  0  0  0  0  0  0  0
  -55.1744  -32.2902    6.4424 H   0  0  0  0  0  0  0  0  0  0  0  0
  -54.2268  -31.4125    5.2438 H   0  0  0  0  0  0  0  0  0  0  0  0
  -55.0413  -28.9550    4.5945 H   0  0  0  0  0  0  0  0  0  0  0  0
  -56.4830  -28.3397    5.3991 H   0  0  0  0  0  0  0  0  0  0  0  0
  -53.7443  -24.9696   11.8272 H   0  0  0  0  0  0  0  0  0  0  0  0
  -55.0146  -24.8461   13.0593 H   0  0  0  0  0  0  0  0  0  0  0  0
  -56.3278  -26.5501   11.9649 H   0  0  0  0  0  0  0  0  0  0  0  0
  -55.6840  -25.6694   10.5682 H   0  0  0  0  0  0  0  0  0  0  0  0
  -54.5137  -30.7285    8.2088 H   0  0  0  0  0  0  0  0  0  0  0  0
  -53.0751  -31.3513    7.4050 H   0  0  0  0  0  0  0  0  0  0  0  0
  -54.3885  -27.3823    6.3544 H   0  0  0  0  0  0  0  0  0  0  0  0
  -55.3294  -28.2615    7.5567 H   0  0  0  0  0  0  0  0  0  0  0  0
  -52.8412  -26.4111   13.5207 H   0  0  0  0  0  0  0  0  0  0  0  0
  -54.4493  -27.0341   13.9565 H   0  0  0  0  0  0  0  0  0  0  0  0
  -55.2587  -28.3986   10.9820 H   0  0  0  0  0  0  0  0  0  0  0  0
  -52.8746  -29.3022    6.0523 H   0  0  0  0  0  0  0  0  0  0  0  0
  -50.8465  -29.0646    9.1926 H   0  0  0  0  0  0  0  0  0  0  0  0
  -51.6629  -30.5362    8.6364 H   0  0  0  0  0  0  0  0  0  0  0  0
  -52.3928  -27.6795    7.8257 H   0  0  0  0  0  0  0  0  0  0  0  0
  -44.3330  -29.7124    4.4336 H   0  0  0  0  0  0  0  0  0  0  0  0
  -50.9144  -29.9379    6.3616 H   0  0  0  0  0  0  0  0  0  0  0  0
  -53.8425  -29.4353    9.7079 H   0  0  0  0  0  0  0  0  0  0  0  0
  1  2  1  0  0  0  0
  1  4  2  0  0  0  0
  2 21  2  0  0  0  0
  3 22  2  0  0  0  0
  3 23  1  0  0  0  0
  4  5  1  0  0  0  0
  4  7  1  0  0  0  0
  5  6  2  0  0  0  0
  5 22  1  0  0  0  0
  6 21  1  0  0  0  0
  6 23  1  0  0  0  0
  7 24  1  0  0  0  0
  7 26  2  0  0  0  0
  8 17  1  0  0  0  0
  8 25  1  0  0  0  0
  8 27  2  0  0  0  0
  9 10  1  0  0  0  0
  9 11  1  0  0  0  0
 10 14  1  0  0  0  0
 11 15  1  0  0  0  0
 12 13  1  0  0  0  0
 12 16  1  0  0  0  0
 13 17  1  0  0  0  0
 14 18  1  0  0  0  0
 15 18  1  0  0  0  0
 16 28  1  0  0  0  0
 17 28  1  0  0  0  0
 18 20  1  0  0  0  0
 19 20  1  0  0  0  0
 19 24  1  0  0  0  0
 20 25  1  0  0  0  0
  1 29  1  0  0  0  0
  2 30  1  0  0  0  0
  3 31  1  0  0  0  0
  9 32  1  0  0  0  0
  9 33  1  0  0  0  0
 10 34  1  0  0  0  0
 10 35  1  0  0  0  0
 11 36  1  0  0  0  0
 11 37  1  0  0  0  0
 12 38  1  0  0  0  0
 12 39  1  0  0  0  0
 13 40  1  0  0  0  0
 13 41  1  0  0  0  0
 14 42  1  0  0  0  0
 14 43  1  0  0  0  0
 15 44  1  0  0  0  0
 15 45  1  0  0  0  0
 16 46  1  0  0  0  0
 16 47  1  0  0  0  0
 17 48  1  0  0  0  0
 18 49  1  0  0  0  0
 19 50  1  0  0  0  0
 19 51  1  0  0  0  0
 20 52  1  0  0  0  0
 23 53  1  0  0  0  0
 24 54  1  0  0  0  0
 25 55  1  0  0  0  0
M  END
> <POSIT::Probability>
0.33

> <POSIT::Method>
HYBRID

> <ReceptorTitle>
UCSF-P4622-REFINED_LIGAND-BOUND-STATE_A__DU__LA1_A-201(A)

> <OMEGA_C>
H1pEwrRo6cEhP5hAbkNBwsZc6sH4zmZA6PQzwq6l7MHdoc5A29NBwnCt6cGCC8BAyEE8wuHo6sEJ
ScBAU6w5wsnE68HpHplA9etEwryy6MGKa+hAiCBXwk7q2sF+Ih5BBBtgwoYt88EBaLtAAU9bwipV
+sEO7cRA+mJewoa/58E+S7FAw/dZwrJMzMFpSkZB86Bdwhkm0sH8CjdBLdFXwoWw9cEUeOhA0eVa
wsgR48EixdRAJE5XwhFt1cEoD1JBu3lawpgs3MEQyzFBCgxWwig26sHHSN5AuadNwsUI7ME82AVB
n75SwoOZ5cEFggFBAeE7wvKQ68Gf1GNAoqM4wpV468FDSuFAS2A0wsze7MGw7KJA9CBKwvuT7MG9
ZOdA1/pVwiKj5MGmhhRB89FCwox85MHZ2ANBlZdVwjMb0sEJ8RdBg8pWwu/63cGu60JBmahIwh55
6MEnwJVAai9Dwhoq6sHObChAKyUwwoVg7cF2rt5ATl5iwuB19sFWZaBAAc5iwoYj88EiFddAm7Jc
wh8pAcLbJ85ANuhYwrVM+8GIzadAVipcwtmj58H5BZNAku5hwrW34sFBxaxAIPpWwq3Bx8E6PD1B
9w5cwurExsH48lBBo09hwp9m1MFkcD9Bb7xewgNbzcGEFylBDw5awgTU9cFdVwNB5kxUwoLP+sGh
9exAzY1ZwgIP28EtV8tAQ1FdwnQX4sHP0PFAX11TwttJ08HKVFhBC8xZwtxF2MHMTV9B6whdwlsw
48Fzti9Bln9Twulq6sFvrMFAz2JLwj+E6MHeFBNB2KZOwjZK9MG2LgpBQpJRwotv3cHsa/pA+VQx
wuuy7cFj4I1AVKhLwtqA78HokctAwF5XwoZ768GeUxtB

> <OMEGA_E>
NPGxwA==

> <OMEGA_NBR>
      2857

$$$$
CACHE3-HO_1700_30
  -OEChem-03092622523D

 34 36  0     1  0  0  0  0  0999 V2000
  -53.7889  -27.7072   11.2971 C   0  0  0  0  0  0  0  0  0  0  0  0
  -54.7396  -27.6027   10.2895 C   0  0  0  0  0  0  0  0  0  0  0  0
  -53.7569  -28.5610    6.3887 C   0  0  0  0  0  0  0  0  0  0  0  0
  -52.5295  -28.1369   10.9392 C   0  0  0  0  0  0  0  0  0  0  0  0
  -55.0158  -28.1319    6.7463 C   0  0  0  0  0  0  0  0  0  0  0  0
  -46.3495  -29.5452    4.5659 C   0  0  0  0  0  0  0  0  0  0  0  0
  -45.2164  -29.4854    6.4557 C   0  0  0  0  0  0  0  0  0  0  0  0
  -54.4295  -27.9202    8.9721 C   0  0  0  0  0  0  0  0  0  0  0  0
  -53.1158  -28.3488    8.7134 C   0  0  0  0  0  0  0  0  0  0  0  0
  -52.8058  -28.6663    7.3959 C   0  0  0  0  0  0  0  0  0  0  0  0
  -47.1367  -29.1227    5.6117 C   0  0  0  0  0  0  0  0  0  0  0  0
  -51.0385  -29.4630    5.7901 C   0  0  0  0  0  0  0  0  0  0  0  0
  -48.5959  -28.7259    5.5855 C   0  0  0  0  0  0  0  0  0  0  0  0
  -49.5705  -29.8863    5.8358 C   0  0  2  0  0  0  0  0  0  0  0  0
  -52.1787  -28.4571    9.6760 N   0  0  0  0  0  0  0  0  0  0  0  0
  -55.3658  -27.8114    8.0097 N   0  0  0  0  0  0  0  0  0  0  0  0
  -46.4258  -29.0875    6.7847 N   0  0  0  0  0  0  0  0  0  0  0  0
  -45.1224  -29.7738    5.1223 N   0  0  0  0  0  0  0  0  0  0  0  0
  -51.5206  -29.1028    7.0547 N   0  0  0  0  0  0  0  0  0  0  0  0
  -51.6711  -29.4749    4.7377 O   0  0  0  0  0  0  0  0  0  0  0  0
  -49.3370  -30.9128    4.8843 O   0  0  0  0  0  0  0  0  0  0  0  0
  -54.0303  -27.4600   12.3240 H   0  0  0  0  0  0  0  0  0  0  0  0
  -55.7420  -27.2655   10.5457 H   0  0  0  0  0  0  0  0  0  0  0  0
  -53.5275  -28.8059    5.3572 H   0  0  0  0  0  0  0  0  0  0  0  0
  -51.7427  -28.2399   11.6787 H   0  0  0  0  0  0  0  0  0  0  0  0
  -55.8028  -28.0297    6.0068 H   0  0  0  0  0  0  0  0  0  0  0  0
  -46.5401  -29.6999    3.5138 H   0  0  0  0  0  0  0  0  0  0  0  0
  -44.3745  -29.5854    7.1259 H   0  0  0  0  0  0  0  0  0  0  0  0
  -48.8174  -28.2509    4.6218 H   0  0  0  0  0  0  0  0  0  0  0  0
  -48.7514  -27.9497    6.3468 H   0  0  0  0  0  0  0  0  0  0  0  0
  -49.3631  -30.3123    6.8248 H   0  0  0  0  0  0  0  0  0  0  0  0
  -44.2961  -30.0972    4.6374 H   0  0  0  0  0  0  0  0  0  0  0  0
  -50.8487  -29.1668    7.8262 H   0  0  0  0  0  0  0  0  0  0  0  0
  -49.5601  -30.5460    4.0129 H   0  0  0  0  0  0  0  0  0  0  0  0
  1  2  1  0  0  0  0
  1  4  2  0  0  0  0
  2  8  2  0  0  0  0
  3  5  1  0  0  0  0
  3 10  2  0  0  0  0
  4 15  1  0  0  0  0
  5 16  2  0  0  0  0
  6 11  2  0  0  0  0
  6 18  1  0  0  0  0
  7 17  2  0  0  0  0
  7 18  1  0  0  0  0
  8  9  1  0  0  0  0
  8 16  1  0  0  0  0
  9 10  1  0  0  0  0
  9 15  2  0  0  0  0
 10 19  1  0  0  0  0
 11 13  1  0  0  0  0
 11 17  1  0  0  0  0
 12 14  1  0  0  0  0
 12 19  1  0  0  0  0
 12 20  2  0  0  0  0
 13 14  1  0  0  0  0
 14 21  1  0  0  0  0
  1 22  1  0  0  0  0
  2 23  1  0  0  0  0
  3 24  1  0  0  0  0
  4 25  1  0  0  0  0
  5 26  1  0  0  0  0
  6 27  1  0  0  0  0
  7 28  1  0  0  0  0
 13 29  1  0  0  0  0
 13 30  1  0  0  0  0
 14 31  1  0  0  0  0
 18 32  1  0  0  0  0
 19 33  1  0  0  0  0
 21 34  1  0  0  0  0
M  END
> <POSIT::Probability>
0.18

> <POSIT::Method>
HYBRID

> <ReceptorTitle>
UCSF-P4622-REFINED_LIGAND-BOUND-STATE_A__DU__LA1_A-201(A)

> <OMEGA_C>
yydXwlGo3cEQwTRBU/VawmbS3MGyoSRBGgdXwvh85MH+b8xAMB5SwngY4cEOBy9BMRBcwjoO4cFK
4ddA7GU5wpxc7MEcHJJAl900whbi68F0lc5Ax7dZwo9c38HSjQ9Bj3ZUwkXK4sH2aQtBHjlTwoZU
5cGcq+xAAYw8wj/76MFQk7NAcydMwjy068GcSLlAP2JCwpjO5cFovLJANUhGwjUX78F+vrpA97ZQ
wg+o48Hr0BpBjHZdwrd93sGIJwBBA7Q5wiyz6ME0HNlAYn00wtIw7sE26qNAERVOwoDS6METwOFA
LK9OwqbM68FKm5dAGVlFwn5N98HyS5xABh9Ywiuu28EoL0VByfdewscf2sEguyhBKhxWwoJy5sHM
batAgvhOwlDr4cH02zpBEDZfwu084MEEOMBAFSk6wnSZ7cF/4WBAeX8xwvyu7MEuB+RA/0RDwuEB
4sFi5ZNAeQFDwhGZ38EcGctAzHNFwod/8sGIZNpAKC8xwgHH8MHCZZRABWVLwpBV6cHsb/pAhz1G
wipe9MGoaYBA

> <OMEGA_E>
ggWAwA==

> <OMEGA_NBR>
      4036

$$$$
CACHE3-HO_1718_10
  -OEChem-03092622523D

 45 49  0     0  0  0  0  0  0999 V2000
  -45.1398  -29.9179    3.6447 C   0  0  0  0  0  0  0  0  0  0  0  0
  -46.3638  -30.1395    3.0100 C   0  0  0  0  0  0  0  0  0  0  0  0
  -52.9804  -30.2191    9.1908 C   0  0  0  0  0  0  0  0  0  0  0  0
  -45.0806  -29.6219    5.0123 C   0  0  0  0  0  0  0  0  0  0  0  0
  -47.5721  -30.0742    3.7114 C   0  0  0  0  0  0  0  0  0  0  0  0
  -53.1090  -29.7591   10.5004 C   0  0  0  0  0  0  0  0  0  0  0  0
  -53.9075  -28.1489    8.4186 C   0  0  0  0  0  0  0  0  0  0  0  0
  -53.3746  -29.4055    8.1446 C   0  0  0  0  0  0  0  0  0  0  0  0
  -54.0657  -27.6676    9.7421 C   0  0  0  0  0  0  0  0  0  0  0  0
  -46.2800  -29.5508    5.7411 C   0  0  0  0  0  0  0  0  0  0  0  0
  -47.4970  -29.7785    5.0736 C   0  0  0  0  0  0  0  0  0  0  0  0
  -53.6314  -28.4800   10.8016 C   0  0  0  0  0  0  0  0  0  0  0  0
  -47.7717  -29.3405    7.2217 C   0  0  0  0  0  0  0  0  0  0  0  0
  -53.9298  -27.0629   12.9098 C   0  0  0  0  0  0  0  0  0  0  0  0
  -49.7690  -29.6748    6.3075 C   0  0  0  0  0  0  0  0  0  0  0  0
  -53.2266  -29.8557    6.7691 C   0  0  0  0  0  0  0  0  0  0  0  0
  -54.6919  -26.3015    9.8341 C   0  0  0  0  0  0  0  0  0  0  0  0
  -54.2214  -25.7668   12.2141 C   0  0  0  0  0  0  0  0  0  0  0  0
  -55.3010  -25.9165   11.1679 C   0  0  0  0  0  0  0  0  0  0  0  0
  -52.3498  -29.0482    5.7993 C   0  0  0  0  0  0  0  0  0  0  0  0
  -46.4761  -29.2776    7.0896 N   0  0  0  0  0  0  0  0  0  0  0  0
  -50.0042  -29.4226    7.5703 N   0  0  0  0  0  0  0  0  0  0  0  0
  -48.4124  -29.6309    6.0678 N   0  0  0  0  0  0  0  0  0  0  0  0
  -53.6520  -28.1909   12.1865 N   0  0  0  0  0  0  0  0  0  0  0  0
  -48.7474  -29.2154    8.1327 N   0  0  0  0  0  0  0  0  0  0  0  0
  -53.8836  -27.0852   14.1459 O   0  0  0  0  0  0  0  0  0  0  0  0
  -53.8110  -30.8872    6.3785 O   0  0  0  0  0  0  0  0  0  0  0  0
  -50.9713  -30.0103    5.1239 S   0  0  0  0  0  0  0  0  0  0  0  0
  -44.2193  -29.9752    3.0695 H   0  0  0  0  0  0  0  0  0  0  0  0
  -46.3786  -30.3681    1.9470 H   0  0  0  0  0  0  0  0  0  0  0  0
  -52.5793  -31.2115    9.0087 H   0  0  0  0  0  0  0  0  0  0  0  0
  -44.1238  -29.4509    5.4953 H   0  0  0  0  0  0  0  0  0  0  0  0
  -48.5162  -30.2470    3.2085 H   0  0  0  0  0  0  0  0  0  0  0  0
  -52.8032  -30.4305   11.3026 H   0  0  0  0  0  0  0  0  0  0  0  0
  -54.2030  -27.5134    7.5835 H   0  0  0  0  0  0  0  0  0  0  0  0
  -53.9199  -25.5517    9.6139 H   0  0  0  0  0  0  0  0  0  0  0  0
  -55.4468  -26.2151    9.0418 H   0  0  0  0  0  0  0  0  0  0  0  0
  -54.4579  -25.0027   12.9621 H   0  0  0  0  0  0  0  0  0  0  0  0
  -53.2958  -25.4531   11.7159 H   0  0  0  0  0  0  0  0  0  0  0  0
  -55.9045  -25.0055   11.0756 H   0  0  0  0  0  0  0  0  0  0  0  0
  -55.9797  -26.7212   11.4764 H   0  0  0  0  0  0  0  0  0  0  0  0
  -52.9667  -28.7107    4.9620 H   0  0  0  0  0  0  0  0  0  0  0  0
  -51.9287  -28.1903    6.3310 H   0  0  0  0  0  0  0  0  0  0  0  0
  -53.4350  -28.9911   12.7779 H   0  0  0  0  0  0  0  0  0  0  0  0
  -48.6474  -28.9988    9.1171 H   0  0  0  0  0  0  0  0  0  0  0  0
  1  2  1  0  0  0  0
  1  4  2  0  0  0  0
  2  5  2  0  0  0  0
  3  6  2  0  0  0  0
  3  8  1  0  0  0  0
  4 10  1  0  0  0  0
  5 11  1  0  0  0  0
  6 12  1  0  0  0  0
  7  8  2  0  0  0  0
  7  9  1  0  0  0  0
  8 16  1  0  0  0  0
  9 12  2  0  0  0  0
  9 17  1  0  0  0  0
 10 11  2  0  0  0  0
 10 21  1  0  0  0  0
 11 23  1  0  0  0  0
 12 24  1  0  0  0  0
 13 21  2  0  0  0  0
 13 23  1  0  0  0  0
 13 25  1  0  0  0  0
 14 18  1  0  0  0  0
 14 24  1  0  0  0  0
 14 26  2  0  0  0  0
 15 22  2  0  0  0  0
 15 23  1  0  0  0  0
 15 28  1  0  0  0  0
 16 20  1  0  0  0  0
 16 27  2  0  0  0  0
 17 19  1  0  0  0  0
 18 19  1  0  0  0  0
 20 28  1  0  0  0  0
 22 25  1  0  0  0  0
  1 29  1  0  0  0  0
  2 30  1  0  0  0  0
  3 31  1  0  0  0  0
  4 32  1  0  0  0  0
  5 33  1  0  0  0  0
  6 34  1  0  0  0  0
  7 35  1  0  0  0  0
 17 36  1  0  0  0  0
 17 37  1  0  0  0  0
 18 38  1  0  0  0  0
 18 39  1  0  0  0  0
 19 40  1  0  0  0  0
 19 41  1  0  0  0  0
 20 42  1  0  0  0  0
 20 43  1  0  0  0  0
 24 44  1  0  0  0  0
 25 45  1  0  0  0  0
M  END
> <POSIT::Probability>
0.14

> <POSIT::Method>
HYBRID

> <ReceptorTitle>
UCSF-P4622-REFINED_LIGAND-BOUND-STATE_A__DU__LA1_A-201(A)

> <OMEGA_C>
JY80wvRX78GAQ2lAfnQ5wsEd8cEKo0BA4+tTwqDA8cGgDRNBilI0wp757MEkZaBA30k+wg+Y8ME8
iG1AlG9UwqAS7sHAAShBS6FXwukw4cFtsgZBjX9VwoY+68FbUAJBSUNYwjpX3cGL3xtBwR45wvxn
7MF7t7dA9fw9wnc67sG6WqJAkoZWwhzX48Eo0yxBPhY/wj656sFEGOdAFLhXws6A2MF0jk5BbhNH
wgRm7cGn1slABOhUwnPY7sHNnNhAhsRawmZp0sFUWB1BuOJYwl0izsH4bENBLTRdwhdVz8G8rzJB
NWZRwr5i6MH8k7lAeuc5wog46sET3uJARQRIwnhh68GBP/JASqZBwgAM7cEVK8JAq5tWwumG4cHo
+0JBTf1Cwg256cGFHwJBx4hXwoWu2MGdVWJBfj5XwgcZ98GWHMxAouJLwiIV8MGi9qNAh+AwwiLN
78G+ckRAs4M5wvfx8sGsNfk/MlFSwiOx+cGTIxBBwn4wwl2b68Es2a9AlRBCwuD58cFyWE1AgjZT
wpJx88Fz1zRB1s9Ywm4b3MHCq/JAAa5Xwt1pzMGv0hlBe8ldwpi40cEOqxBB5tRZwpMFyMGhZE9B
4y5VwvGfy8GGdDtBQJ5fwkwLyMGeNTFBQOtfwh7F1cE4nzdB8N1Twnav5cGeyJ5ABrdPwqKF4cEx
l8pAa71Vwr/t58EackxB75ZCwp/958GW3xFB

> <OMEGA_E>
1OQowQ==

> <OMEGA_NBR>
      5438

$$$$
CACHE3-HO_1718_11
  -OEChem-03092622523D

 46 49  0     0  0  0  0  0  0999 V2000
  -49.4882  -28.9631    5.9221 C   0  0  0  0  0  0  0  0  0  0  0  0
  -49.3562  -29.0718    4.5361 C   0  0  0  0  0  0  0  0  0  0  0  0
  -48.0371  -31.6263   -1.2311 C   0  0  0  0  0  0  0  0  0  0  0  0
  -47.5098  -32.4912    0.9624 C   0  0  0  0  0  0  0  0  0  0  0  0
  -48.3761  -29.0896    6.7639 C   0  0  0  0  0  0  0  0  0  0  0  0
  -48.1147  -29.3104    3.9377 C   0  0  0  0  0  0  0  0  0  0  0  0
  -49.3848  -31.5551   -0.8784 C   0  0  0  0  0  0  0  0  0  0  0  0
  -48.8574  -32.4200    1.3151 C   0  0  0  0  0  0  0  0  0  0  0  0
  -47.0997  -32.0943   -0.3105 C   0  0  0  0  0  0  0  0  0  0  0  0
  -47.1165  -29.3291    6.1886 C   0  0  0  0  0  0  0  0  0  0  0  0
  -47.0157  -29.4338    4.7895 C   0  0  0  0  0  0  0  0  0  0  0  0
  -49.7950  -31.9520    0.3945 C   0  0  0  0  0  0  0  0  0  0  0  0
  -45.0697  -29.6829    5.8057 C   0  0  0  0  0  0  0  0  0  0  0  0
  -44.7526  -29.8734    3.6149 C   0  0  0  0  0  0  0  0  0  0  0  0
  -44.2734  -32.5161    1.4228 C   0  0  0  0  0  0  0  0  0  0  0  0
  -44.7741  -34.3974   -0.0987 C   0  0  0  0  0  0  0  0  0  0  0  0
  -51.4604  -32.3041    2.0557 C   0  0  0  0  0  0  0  0  0  0  0  0
  -45.6485  -32.1711   -0.6897 C   0  0  0  0  0  0  0  0  0  0  0  0
  -43.8042  -31.0719    1.3842 C   0  0  0  0  0  0  0  0  0  0  0  0
  -45.8821  -29.4885    6.8069 N   0  0  0  0  0  0  0  0  0  0  0  0
  -43.5686  -30.0299    4.1509 N   0  0  0  0  0  0  0  0  0  0  0  0
  -45.6880  -29.6597    4.6043 N   0  0  0  0  0  0  0  0  0  0  0  0
  -43.7789  -29.9084    5.5220 N   0  0  0  0  0  0  0  0  0  0  0  0
  -44.8802  -32.9858    0.2498 N   0  0  0  0  0  0  0  0  0  0  0  0
  -44.1237  -33.2188    2.4259 O   0  0  0  0  0  0  0  0  0  0  0  0
  -51.1101  -31.8823    0.7382 O   0  0  0  0  0  0  0  0  0  0  0  0
  -45.0916  -29.9266    1.9284 S   0  0  0  0  0  0  0  0  0  0  0  0
  -50.4682  -28.7785    6.3546 H   0  0  0  0  0  0  0  0  0  0  0  0
  -50.2375  -28.9685    3.9076 H   0  0  0  0  0  0  0  0  0  0  0  0
  -47.7269  -31.3150   -2.2250 H   0  0  0  0  0  0  0  0  0  0  0  0
  -46.7862  -32.8572    1.6859 H   0  0  0  0  0  0  0  0  0  0  0  0
  -48.4905  -29.0040    7.8398 H   0  0  0  0  0  0  0  0  0  0  0  0
  -48.0240  -29.3939    2.8612 H   0  0  0  0  0  0  0  0  0  0  0  0
  -50.1107  -31.1895   -1.5996 H   0  0  0  0  0  0  0  0  0  0  0  0
  -49.1707  -32.7306    2.3082 H   0  0  0  0  0  0  0  0  0  0  0  0
  -45.6056  -34.9632    0.3314 H   0  0  0  0  0  0  0  0  0  0  0  0
  -44.7907  -34.5206   -1.1852 H   0  0  0  0  0  0  0  0  0  0  0  0
  -43.8352  -34.8103    0.2803 H   0  0  0  0  0  0  0  0  0  0  0  0
  -52.5387  -32.1973    2.1992 H   0  0  0  0  0  0  0  0  0  0  0  0
  -51.1806  -33.3530    2.1795 H   0  0  0  0  0  0  0  0  0  0  0  0
  -50.9229  -31.6975    2.7882 H   0  0  0  0  0  0  0  0  0  0  0  0
  -45.5330  -32.6071   -1.6875 H   0  0  0  0  0  0  0  0  0  0  0  0
  -45.1962  -31.1743   -0.7159 H   0  0  0  0  0  0  0  0  0  0  0  0
  -43.5283  -30.8033    0.3602 H   0  0  0  0  0  0  0  0  0  0  0  0
  -42.9420  -30.9513    2.0463 H   0  0  0  0  0  0  0  0  0  0  0  0
  -43.0095  -29.9908    6.1755 H   0  0  0  0  0  0  0  0  0  0  0  0
  1  2  1  0  0  0  0
  1  5  2  0  0  0  0
  2  6  2  0  0  0  0
  3  7  2  0  0  0  0
  3  9  1  0  0  0  0
  4  8  1  0  0  0  0
  4  9  2  0  0  0  0
  5 10  1  0  0  0  0
  6 11  1  0  0  0  0
  7 12  1  0  0  0  0
  8 12  2  0  0  0  0
  9 18  1  0  0  0  0
 10 11  2  0  0  0  0
 10 20  1  0  0  0  0
 11 22  1  0  0  0  0
 12 26  1  0  0  0  0
 13 20  2  0  0  0  0
 13 22  1  0  0  0  0
 13 23  1  0  0  0  0
 14 21  2  0  0  0  0
 14 22  1  0  0  0  0
 14 27  1  0  0  0  0
 15 19  1  0  0  0  0
 15 24  1  0  0  0  0
 15 25  2  0  0  0  0
 16 24  1  0  0  0  0
 17 26  1  0  0  0  0
 18 24  1  0  0  0  0
 19 27  1  0  0  0  0
 21 23  1  0  0  0  0
  1 28  1  0  0  0  0
  2 29  1  0  0  0  0
  3 30  1  0  0  0  0
  4 31  1  0  0  0  0
  5 32  1  0  0  0  0
  6 33  1  0  0  0  0
  7 34  1  0  0  0  0
  8 35  1  0  0  0  0
 16 36  1  0  0  0  0
 16 37  1  0  0  0  0
 16 38  1  0  0  0  0
 17 39  1  0  0  0  0
 17 40  1  0  0  0  0
 17 41  1  0  0  0  0
 18 42  1  0  0  0  0
 18 43  1  0  0  0  0
 19 44  1  0  0  0  0
 19 45  1  0  0  0  0
 23 46  1  0  0  0  0
M  END
> <POSIT::Probability>
0.24

> <POSIT::Method>
FRED

> <ReceptorTitle>
UCSF-P4622-REFINED_LIGAND-BOUND-STATE_A__DU__LA1_A-201(A)

> <OMEGA_C>
8vNFwn6058Hygb1Aw2xFwgKT6MEEKJFACCZAwqoC/cFAlZ2/FQo+wgr3AcKIXXY/IIFBwoG36MEe
cthAbHVAws176sEgA3xACopFwsJw/MGQ3GC/B25DwhmuAcKAVqg/DmY8wplgAMIg+56+VXc8wvyh
6sEgCcZAHRA8woV468G1Q5lAEC5HwqOd/8Eg/ck+Vkc0woZ27cFyyLlAoAIzwqv87sH6WWdA/Rcx
wnsQAsIkHbY/txgzwuWWCcLAIsq9bddNwmE3AcKckANAGZg2wj6vAMKQjTC/jDcvwi2T+MFkLbE/
T4c3wono68HW0dlAQEYuwlU98MEx1IRAjsA2whdH7cExVpNAmh0vwmVE78ELtLBAUYUzwm7xA8JA
wn8+qH4wwhDgBMKEQRtAyXBMwgMP/8H4+Dw/0V00wqlp78FM1vY/d99Jwlo65sHtWMtANvNIwmS/
58F4FXpAXOg+wg6F+sH4Zg7ADiU7ws5tA8Lcy9c/OfZBwigI6MHW3/pAlBhAwrQm68H4HTdAV3FI
whqE+cH4wMy/xq5EwhbsAsIiuRNAHWw2wkjaC8Kwq6k+oSkzwhoVCsLwtZe/R1cvwso9C8IAio8+
qydSwgvKAMJgvwxA+rhMwoNpBcKWfQtAGbFLwmeU/cFAcjJAwyE2wrBtAsJcANi/48g0wvBk+cGo
Qje/7hwuwjBt9sEga7g+lsQrwk+c98H09gJAswkswint78GVncVA

> <OMEGA_E>
9wMewQ==

> <OMEGA_NBR>
      6853

$$$$
CACHE3-HO_1718_12
  -OEChem-03092622523D

 37 41  0     0  0  0  0  0  0999 V2000
  -49.4059  -28.9596    6.2568 C   0  0  0  0  0  0  0  0  0  0  0  0
  -49.3379  -29.0995    4.8690 C   0  0  0  0  0  0  0  0  0  0  0  0
  -46.2045  -33.5248    0.5535 C   0  0  0  0  0  0  0  0  0  0  0  0
  -48.2477  -29.0033    7.0430 C   0  0  0  0  0  0  0  0  0  0  0  0
  -48.1168  -29.2884    4.2134 C   0  0  0  0  0  0  0  0  0  0  0  0
  -46.8485  -34.1216   -0.5332 C   0  0  0  0  0  0  0  0  0  0  0  0
  -44.2535  -33.0334   -0.8176 C   0  0  0  0  0  0  0  0  0  0  0  0
  -44.9143  -32.9832    0.4118 C   0  0  0  0  0  0  0  0  0  0  0  0
  -47.0074  -29.1914    6.4096 C   0  0  0  0  0  0  0  0  0  0  0  0
  -46.9714  -29.3295    5.0102 C   0  0  0  0  0  0  0  0  0  0  0  0
  -46.1742  -34.1576   -1.7360 C   0  0  0  0  0  0  0  0  0  0  0  0
  -44.9115  -33.6279   -1.8747 C   0  0  0  0  0  0  0  0  0  0  0  0
  -44.9661  -29.4464    5.9305 C   0  0  0  0  0  0  0  0  0  0  0  0
  -44.7495  -29.6805    3.7317 C   0  0  0  0  0  0  0  0  0  0  0  0
  -44.2456  -32.3497    1.5880 C   0  0  0  0  0  0  0  0  0  0  0  0
  -45.5283  -34.4447   -3.7813 C   0  0  0  0  0  0  0  0  0  0  0  0
  -43.8504  -30.8883    1.4857 C   0  0  0  0  0  0  0  0  0  0  0  0
  -45.7367  -29.2678    6.9671 N   0  0  0  0  0  0  0  0  0  0  0  0
  -43.5333  -29.7589    4.2096 N   0  0  0  0  0  0  0  0  0  0  0  0
  -45.6443  -29.4895    4.7624 N   0  0  0  0  0  0  0  0  0  0  0  0
  -43.6808  -29.6107    5.5863 N   0  0  0  0  0  0  0  0  0  0  0  0
  -44.0379  -33.0343    2.5868 O   0  0  0  0  0  0  0  0  0  0  0  0
  -46.6392  -34.6950   -2.8964 O   0  0  0  0  0  0  0  0  0  0  0  0
  -44.4285  -33.7675   -3.1388 O   0  0  0  0  0  0  0  0  0  0  0  0
  -45.1693  -29.7985    2.0668 S   0  0  0  0  0  0  0  0  0  0  0  0
  -50.3716  -28.8154    6.7346 H   0  0  0  0  0  0  0  0  0  0  0  0
  -50.2540  -29.0607    4.2844 H   0  0  0  0  0  0  0  0  0  0  0  0
  -46.7134  -33.4835    1.5137 H   0  0  0  0  0  0  0  0  0  0  0  0
  -48.3124  -28.8941    8.1209 H   0  0  0  0  0  0  0  0  0  0  0  0
  -48.0759  -29.3967    3.1361 H   0  0  0  0  0  0  0  0  0  0  0  0
  -47.8430  -34.5401   -0.4287 H   0  0  0  0  0  0  0  0  0  0  0  0
  -43.2578  -32.6207   -0.9419 H   0  0  0  0  0  0  0  0  0  0  0  0
  -45.1691  -35.4031   -4.1737 H   0  0  0  0  0  0  0  0  0  0  0  0
  -45.8778  -33.8303   -4.6190 H   0  0  0  0  0  0  0  0  0  0  0  0
  -42.9666  -30.7059    2.1032 H   0  0  0  0  0  0  0  0  0  0  0  0
  -43.6437  -30.6346    0.4422 H   0  0  0  0  0  0  0  0  0  0  0  0
  -42.8762  -29.6339    6.2010 H   0  0  0  0  0  0  0  0  0  0  0  0
  1  2  1  0  0  0  0
  1  4  2  0  0  0  0
  2  5  2  0  0  0  0
  3  6  2  0  0  0  0
  3  8  1  0  0  0  0
  4  9  1  0  0  0  0
  5 10  1  0  0  0  0
  6 11  1  0  0  0  0
  7  8  2  0  0  0  0
  7 12  1  0  0  0  0
  8 15  1  0  0  0  0
  9 10  2  0  0  0  0
  9 18  1  0  0  0  0
 10 20  1  0  0  0  0
 11 12  2  0  0  0  0
 11 23  1  0  0  0  0
 12 24  1  0  0  0  0
 13 18  2  0  0  0  0
 13 20  1  0  0  0  0
 13 21  1  0  0  0  0
 14 19  2  0  0  0  0
 14 20  1  0  0  0  0
 14 25  1  0  0  0  0
 15 17  1  0  0  0  0
 15 22  2  0  0  0  0
 16 23  1  0  0  0  0
 16 24  1  0  0  0  0
 17 25  1  0  0  0  0
 19 21  1  0  0  0  0
  1 26  1  0  0  0  0
  2 27  1  0  0  0  0
  3 28  1  0  0  0  0
  4 29  1  0  0  0  0
  5 30  1  0  0  0  0
  6 31  1  0  0  0  0
  7 32  1  0  0  0  0
 16 33  1  0  0  0  0
 16 34  1  0  0  0  0
 17 35  1  0  0  0  0
 17 36  1  0  0  0  0
 21 37  1  0  0  0  0
M  END
> <POSIT::Probability>
0.24

> <POSIT::Method>
FRED

> <ReceptorTitle>
UCSF-P4622-REFINED_LIGAND-BOUND-STATE_A__DU__LA1_A-201(A)

> <OMEGA_C>
pZ9FwkSt58HcN8hABFpFws7L6MEOz5tAYdE4wlsZBsKAsw0/nv1AwtsG6MFGYOFAm3dAwo9O6sGP
1IZA1GQ7wox8CMI4fgi/oAMxwjgiBMLIS1G/QKgzwtnuA8KA3dI+lAc8wgWI6cF7G81AuOI7wryi
6sHFU6BAY7I4wmGhCMICNN6/YqUzwuyCBsKy9O+/SN0zwieS68Hexr1Acv8ywqBx7cHS025AdPsw
whdmAcJUQss/8Bw2wmDHCcIPAXLAzmYvwkgb98G4K74/WvI2wm0k6sGD8t5AHSIuwlMS7sFKtYZA
z5M2wnLq68GUZZhAL7kuwsji7MGrwrJAwyYwwhcjBMKYjSVAho46wqnHCsK3XjnAvbYxwuwRB8LX
4kjAZq00wjpj7sEPRwRAeXxJwuyF5sGUgddADgRJwkR86MHFGYlAkdo6whbvBcJyv8E/3z9Bwhwn
58Em7wFBsk1Awnws68GGtkhAMl8/whgpCsKYgNu+/wctwqV7AsKqInG/Mq00wsWcDcIwj4XA3YI3
wkJSB8LnzpPAyd0rwp+l9cEymgZAH5MuwqQT9cFYZuI+QIErwk4S7cHlbsZA

> <OMEGA_E>
gPAewQ==

> <OMEGA_NBR>
      8091

$$$$
CACHE3-HO_1718_18
  -OEChem-03092622523D

 32 35  0     0  0  0  0  0  0999 V2000
  -43.5286  -29.2898    4.2083 C   0  0  0  0  0  0  0  0  0  0  0  0
  -44.4967  -29.2473    3.2027 C   0  0  0  0  0  0  0  0  0  0  0  0
  -54.9567  -26.7059    2.9005 C   0  0  0  0  0  0  0  0  0  0  0  0
  -43.8947  -29.3363    5.5593 C   0  0  0  0  0  0  0  0  0  0  0  0
  -45.8626  -29.2491    3.5040 C   0  0  0  0  0  0  0  0  0  0  0  0
  -54.5212  -28.0500    3.0070 C   0  0  0  0  0  0  0  0  0  0  0  0
  -53.8324  -25.9105    2.8681 C   0  0  0  0  0  0  0  0  0  0  0  0
  -45.2605  -29.3398    5.8899 C   0  0  0  0  0  0  0  0  0  0  0  0
  -46.2118  -29.2961    4.8547 C   0  0  0  0  0  0  0  0  0  0  0  0
  -53.1441  -28.0351    3.0360 C   0  0  0  0  0  0  0  0  0  0  0  0
  -47.1365  -29.3638    6.8602 C   0  0  0  0  0  0  0  0  0  0  0  0
  -48.7537  -29.2974    5.3381 C   0  0  0  0  0  0  0  0  0  0  0  0
  -52.2062  -29.1931    3.1419 C   0  0  0  0  0  0  0  0  0  0  0  0
  -51.2615  -29.2433    4.3281 C   0  0  0  0  0  0  0  0  0  0  0  0
  -45.8634  -29.3821    7.1414 N   0  0  0  0  0  0  0  0  0  0  0  0
  -49.3675  -29.3361    6.4937 N   0  0  0  0  0  0  0  0  0  0  0  0
  -52.7365  -26.7296    2.9510 N   0  0  0  0  0  0  0  0  0  0  0  0
  -47.3895  -29.3133    5.5336 N   0  0  0  0  0  0  0  0  0  0  0  0
  -48.3458  -29.3779    7.4389 N   0  0  0  0  0  0  0  0  0  0  0  0
  -52.2323  -30.0542    2.2660 O   0  0  0  0  0  0  0  0  0  0  0  0
  -49.5321  -29.2355    3.8044 S   0  0  0  0  0  0  0  0  0  0  0  0
  -42.4754  -29.2858    3.9393 H   0  0  0  0  0  0  0  0  0  0  0  0
  -44.1825  -29.2124    2.1623 H   0  0  0  0  0  0  0  0  0  0  0  0
  -55.9780  -26.3551    2.8522 H   0  0  0  0  0  0  0  0  0  0  0  0
  -43.1338  -29.3684    6.3326 H   0  0  0  0  0  0  0  0  0  0  0  0
  -46.6051  -29.2150    2.7157 H   0  0  0  0  0  0  0  0  0  0  0  0
  -55.1469  -28.9309    3.0568 H   0  0  0  0  0  0  0  0  0  0  0  0
  -53.7156  -24.8387    2.7929 H   0  0  0  0  0  0  0  0  0  0  0  0
  -51.4252  -28.3671    4.9616 H   0  0  0  0  0  0  0  0  0  0  0  0
  -51.4333  -30.1611    4.8975 H   0  0  0  0  0  0  0  0  0  0  0  0
  -51.7759  -26.4148    2.9503 H   0  0  0  0  0  0  0  0  0  0  0  0
  -48.5548  -29.4130    8.4293 H   0  0  0  0  0  0  0  0  0  0  0  0
  1  2  1  0  0  0  0
  1  4  2  0  0  0  0
  2  5  2  0  0  0  0
  3  6  1  0  0  0  0
  3  7  2  0  0  0  0
  4  8  1  0  0  0  0
  5  9  1  0  0  0  0
  6 10  2  0  0  0  0
  7 17  1  0  0  0  0
  8  9  2  0  0  0  0
  8 15  1  0  0  0  0
  9 18  1  0  0  0  0
 10 13  1  0  0  0  0
 10 17  1  0  0  0  0
 11 15  2  0  0  0  0
 11 18  1  0  0  0  0
 11 19  1  0  0  0  0
 12 16  2  0  0  0  0
 12 18  1  0  0  0  0
 12 21  1  0  0  0  0
 13 14  1  0  0  0  0
 13 20  2  0  0  0  0
 14 21  1  0  0  0  0
 16 19  1  0  0  0  0
  1 22  1  0  0  0  0
  2 23  1  0  0  0  0
  3 24  1  0  0  0  0
  4 25  1  0  0  0  0
  5 26  1  0  0  0  0
  6 27  1  0  0  0  0
  7 28  1  0  0  0  0
 14 29  1  0  0  0  0
 14 30  1  0  0  0  0
 17 31  1  0  0  0  0
 19 32  1  0  0  0  0
M  END
> <POSIT::Probability>
0.24

> <POSIT::Method>
FRED

> <ReceptorTitle>
UCSF-P4622-REFINED_LIGAND-BOUND-STATE_A__DU__LA1_A-201(A)

> <OMEGA_C>
Sh0uwm9R6sF8qoZAlvwxwo766cE4+UxAtdNbwr+l1cH8oTlAKpQvwsCw6sEw5rFAS3M3wjj+6cFg
QWBAuRVawmJm4MGQckBAVVRXwsFIz8HYjjdAzAo1wta36sEeerxA7dg4wlle6sFgWZtAmZNUwtNH
4MHMTUJA04s8whrp6sHIhttA1QNDwh5h6sFa0apAKtNQwmaL6cHIFElAwAtNwj7y6cEYgIpAKnQ3
wnIO68H2heRARnhFwlKw6sE0zM9AMPJSwi3W1cHo3TxA1o49wruB6sFCE7FAImJBwtcF68E6C+5A
5e1Qwutu8MHYBRFA4CBGwjXi6cGQenNA2uYpwmtJ6sGwHXxA4bowwvKy6cGEYgpAfulfwjTX0sGc
ijZABokswnjy6sEIpcpArGs6wly46cFgzS1AdZZcwnBy58HooUNAu9xWwqC1xsEcvzJAYbNNwurv
4sEkxZ5Ar7tNwuNJ8cFcuJxAehpPwn9R08E40jxAGDhCwrlN68GK3gZB

> <OMEGA_E>
YKUjwQ==

> <OMEGA_NBR>
      9228

$$$$
CACHE3-HO_1718_9
  -OEChem-03092622523D

 40 44  0     0  0  0  0  0  0999 V2000
  -49.3168  -28.5741    5.7703 C   0  0  0  0  0  0  0  0  0  0  0  0
  -49.1649  -28.8380    4.4075 C   0  0  0  0  0  0  0  0  0  0  0  0
  -45.5375  -32.6584   -0.2946 C   0  0  0  0  0  0  0  0  0  0  0  0
  -48.2252  -28.6484    6.6446 C   0  0  0  0  0  0  0  0  0  0  0  0
  -47.9233  -29.1855    3.8652 C   0  0  0  0  0  0  0  0  0  0  0  0
  -46.6248  -33.0584   -1.0703 C   0  0  0  0  0  0  0  0  0  0  0  0
  -46.2376  -34.1530    1.4719 C   0  0  0  0  0  0  0  0  0  0  0  0
  -45.3446  -33.2046    0.9749 C   0  0  0  0  0  0  0  0  0  0  0  0
  -46.9659  -28.9949    6.1258 C   0  0  0  0  0  0  0  0  0  0  0  0
  -46.8449  -29.2552    4.7488 C   0  0  0  0  0  0  0  0  0  0  0  0
  -47.3327  -34.5427    0.6974 C   0  0  0  0  0  0  0  0  0  0  0  0
  -47.5292  -33.9949   -0.5689 C   0  0  0  0  0  0  0  0  0  0  0  0
  -44.9278  -29.4625    5.8276 C   0  0  0  0  0  0  0  0  0  0  0  0
  -49.3447  -35.8721    0.4824 C   0  0  0  0  0  0  0  0  0  0  0  0
  -44.5802  -29.9022    3.6776 C   0  0  0  0  0  0  0  0  0  0  0  0
  -44.1728  -32.7788    1.7980 C   0  0  0  0  0  0  0  0  0  0  0  0
  -49.6366  -34.9885   -0.7181 C   0  0  0  0  0  0  0  0  0  0  0  0
  -43.6400  -31.3705    1.6108 C   0  0  0  0  0  0  0  0  0  0  0  0
  -45.7495  -29.1307    6.7841 N   0  0  0  0  0  0  0  0  0  0  0  0
  -43.4127  -30.0423    4.2528 N   0  0  0  0  0  0  0  0  0  0  0  0
  -45.5238  -29.5480    4.6177 N   0  0  0  0  0  0  0  0  0  0  0  0
  -48.2113  -35.5198    1.1774 N   0  0  0  0  0  0  0  0  0  0  0  0
  -43.6420  -29.7644    5.5978 N   0  0  0  0  0  0  0  0  0  0  0  0
  -50.1091  -36.7699    0.8297 O   0  0  0  0  0  0  0  0  0  0  0  0
  -43.6846  -33.5831    2.5880 O   0  0  0  0  0  0  0  0  0  0  0  0
  -48.5487  -34.3840   -1.3914 O   0  0  0  0  0  0  0  0  0  0  0  0
  -44.8916  -30.1267    2.0000 S   0  0  0  0  0  0  0  0  0  0  0  0
  -50.2963  -28.3079    6.1591 H   0  0  0  0  0  0  0  0  0  0  0  0
  -50.0305  -28.7719    3.7526 H   0  0  0  0  0  0  0  0  0  0  0  0
  -44.8416  -31.9237   -0.6918 H   0  0  0  0  0  0  0  0  0  0  0  0
  -48.3549  -28.4418    7.7022 H   0  0  0  0  0  0  0  0  0  0  0  0
  -47.8171  -29.3891    2.8063 H   0  0  0  0  0  0  0  0  0  0  0  0
  -46.7602  -32.6362   -2.0624 H   0  0  0  0  0  0  0  0  0  0  0  0
  -46.0809  -34.5870    2.4568 H   0  0  0  0  0  0  0  0  0  0  0  0
  -50.1671  -35.6019   -1.4550 H   0  0  0  0  0  0  0  0  0  0  0  0
  -50.3257  -34.1997   -0.3929 H   0  0  0  0  0  0  0  0  0  0  0  0
  -42.7886  -31.2114    2.2783 H   0  0  0  0  0  0  0  0  0  0  0  0
  -43.3386  -31.2258    0.5695 H   0  0  0  0  0  0  0  0  0  0  0  0
  -47.9934  -35.9887    2.0517 H   0  0  0  0  0  0  0  0  0  0  0  0
  -42.8878  -29.8030    6.2728 H   0  0  0  0  0  0  0  0  0  0  0  0
  1  2  1  0  0  0  0
  1  4  2  0  0  0  0
  2  5  2  0  0  0  0
  3  6  2  0  0  0  0
  3  8  1  0  0  0  0
  4  9  1  0  0  0  0
  5 10  1  0  0  0  0
  6 12  1  0  0  0  0
  7  8  2  0  0  0  0
  7 11  1  0  0  0  0
  8 16  1  0  0  0  0
  9 10  2  0  0  0  0
  9 19  1  0  0  0  0
 10 21  1  0  0  0  0
 11 12  2  0  0  0  0
 11 22  1  0  0  0  0
 12 26  1  0  0  0  0
 13 19  2  0  0  0  0
 13 21  1  0  0  0  0
 13 23  1  0  0  0  0
 14 17  1  0  0  0  0
 14 22  1  0  0  0  0
 14 24  2  0  0  0  0
 15 20  2  0  0  0  0
 15 21  1  0  0  0  0
 15 27  1  0  0  0  0
 16 18  1  0  0  0  0
 16 25  2  0  0  0  0
 17 26  1  0  0  0  0
 18 27  1  0  0  0  0
 20 23  1  0  0  0  0
  1 28  1  0  0  0  0
  2 29  1  0  0  0  0
  3 30  1  0  0  0  0
  4 31  1  0  0  0  0
  5 32  1  0  0  0  0
  6 33  1  0  0  0  0
  7 34  1  0  0  0  0
 17 35  1  0  0  0  0
 17 36  1  0  0  0  0
 18 37  1  0  0  0  0
 18 38  1  0  0  0  0
 22 39  1  0  0  0  0
 23 40  1  0  0  0  0
M  END
> <POSIT::Probability>
0.24

> <POSIT::Method>
FRED

> <ReceptorTitle>
UCSF-P4622-REFINED_LIGAND-BOUND-STATE_A__DU__LA1_A-201(A)

> <OMEGA_C>
YkRFwtCX5MGyprhA5KhEwj+05sHiCY1AXCY2wj2iAsIa25a+k+ZAwuov5cHEoNRAbLE/wvN76cHC
X3dAyn86wsE7BMIsAIm/VvM4wqecCMKEZrw/42A1wnrRBMLwknk/Ht07wnf158H0BsRALGE7wpQK
6sFc9pdAqlQ9wsArCsK1hzI/8B0+wtT6B8JzoRG/HLYzwjCz68Hie7pA8mBFwg59D8IuAfc+IFIy
wrQ378FFXmtA8LAwwoYdA8KcI+Y/3ItGwkP0C8J90ze/YY8uws72+sF8L84/if82wrML6cGRF9lA
kaYtwrJW8MHuFohAbBg2wlti7MFkxJNAXthAwlAUDsLTs5Y/ZJEuwoId7sEqIbNAr29Iwl8UE8LW
aVQ//bwuwiVVBsIFoSVA5DFCwkKJCcLcF7K/CJEzwmYD8cH+/v8/ci9JwpV24sGOF8VAQR9Iwsss
5sFpKnBAwl0zwr1j/8HlFjG/YmtBwueI48FyePZAwEQ/wuoc68GJmjNAcgo7wneLAsL9/gPA41I4
wh1ZCsI6PB1AFatIwk1oDsIiPLq/jU1JwoDMCMLSK8m+jCcrwv+w+cHdzhFAuVotwojO+cGdzRE/
PPk/wmz0D8LFTwNAFo0rwn9s7sGUushA

> <OMEGA_E>
7K8YwQ==

> <OMEGA_NBR>
     10525

$$$$
CACHE3HI_1687_71
  -OEChem-03092622523D

 34 37  0     0  0  0  0  0  0999 V2000
  -54.2440  -28.4837    6.4628 C   0  0  0  0  0  0  0  0  0  0  0  0
  -54.6447  -27.3333    7.1467 C   0  0  0  0  0  0  0  0  0  0  0  0
  -48.9024  -29.9707    4.6264 C   0  0  0  0  0  0  0  0  0  0  0  0
  -52.9323  -29.2174    8.3781 C   0  0  0  0  0  0  0  0  0  0  0  0
  -46.7274  -29.6762    3.1915 C   0  0  0  0  0  0  0  0  0  0  0  0
  -48.3288  -29.5700    6.9211 C   0  0  0  0  0  0  0  0  0  0  0  0
  -47.5579  -29.7172    4.3291 C   0  0  0  0  0  0  0  0  0  0  0  0
  -53.3928  -29.4207    7.0754 C   0  0  0  0  0  0  0  0  0  0  0  0
  -49.2863  -29.8915    5.9655 C   0  0  0  0  0  0  0  0  0  0  0  0
  -54.1762  -27.1568    8.4320 C   0  0  0  0  0  0  0  0  0  0  0  0
  -53.3430  -28.0737    9.0315 C   0  0  0  0  0  0  0  0  0  0  0  0
  -46.7078  -29.4071    5.3790 C   0  0  0  0  0  0  0  0  0  0  0  0
  -51.6973  -30.4652    5.5156 C   0  0  0  0  0  0  0  0  0  0  0  0
  -53.7084  -26.4604   10.4268 C   0  0  0  0  0  0  0  0  0  0  0  0
  -52.9785  -30.6423    6.3250 C   0  0  0  0  0  0  0  0  0  0  0  0
  -47.0194  -29.3165    6.6841 N   0  0  0  0  0  0  0  0  0  0  0  0
  -45.4601  -29.3676    3.4868 N   0  0  0  0  0  0  0  0  0  0  0  0
  -45.4787  -29.2103    4.8221 N   0  0  0  0  0  0  0  0  0  0  0  0
  -50.6281  -30.1342    6.3437 N   0  0  0  0  0  0  0  0  0  0  0  0
  -51.6754  -30.6119    4.2977 O   0  0  0  0  0  0  0  0  0  0  0  0
  -54.4575  -26.1042    9.2471 O   0  0  0  0  0  0  0  0  0  0  0  0
  -52.9988  -27.7096   10.2964 O   0  0  0  0  0  0  0  0  0  0  0  0
  -54.5976  -28.6495    5.4480 H   0  0  0  0  0  0  0  0  0  0  0  0
  -55.3009  -26.6087    6.6781 H   0  0  0  0  0  0  0  0  0  0  0  0
  -49.6134  -30.2192    3.8451 H   0  0  0  0  0  0  0  0  0  0  0  0
  -52.2751  -29.9321    8.8619 H   0  0  0  0  0  0  0  0  0  0  0  0
  -46.9906  -29.8577    2.1592 H   0  0  0  0  0  0  0  0  0  0  0  0
  -48.6035  -29.5021    7.9717 H   0  0  0  0  0  0  0  0  0  0  0  0
  -52.9836  -25.6653   10.6359 H   0  0  0  0  0  0  0  0  0  0  0  0
  -54.4011  -26.5370   11.2728 H   0  0  0  0  0  0  0  0  0  0  0  0
  -52.8324  -31.4836    7.0210 H   0  0  0  0  0  0  0  0  0  0  0  0
  -53.7775  -30.9561    5.6341 H   0  0  0  0  0  0  0  0  0  0  0  0
  -44.6145  -28.9681    5.2906 H   0  0  0  0  0  0  0  0  0  0  0  0
  -50.8198  -30.0550    7.3401 H   0  0  0  0  0  0  0  0  0  0  0  0
  1  2  1  0  0  0  0
  1  8  2  0  0  0  0
  2 10  2  0  0  0  0
  3  7  2  0  0  0  0
  3  9  1  0  0  0  0
  4  8  1  0  0  0  0
  4 11  2  0  0  0  0
  5  7  1  0  0  0  0
  5 17  2  0  0  0  0
  6  9  2  0  0  0  0
  6 16  1  0  0  0  0
  7 12  1  0  0  0  0
  8 15  1  0  0  0  0
  9 19  1  0  0  0  0
 10 11  1  0  0  0  0
 10 21  1  0  0  0  0
 11 22  1  0  0  0  0
 12 16  2  0  0  0  0
 12 18  1  0  0  0  0
 13 15  1  0  0  0  0
 13 19  1  0  0  0  0
 13 20  2  0  0  0  0
 14 21  1  0  0  0  0
 14 22  1  0  0  0  0
 17 18  1  0  0  0  0
  1 23  1  0  0  0  0
  2 24  1  0  0  0  0
  3 25  1  0  0  0  0
  4 26  1  0  0  0  0
  5 27  1  0  0  0  0
  6 28  1  0  0  0  0
 14 29  1  0  0  0  0
 14 30  1  0  0  0  0
 15 31  1  0  0  0  0
 15 32  1  0  0  0  0
 18 33  1  0  0  0  0
 19 34  1  0  0  0  0
M  END
> <POSIT::Probability>
0.14

> <POSIT::Method>
HYBRID

> <ReceptorTitle>
UCSF-P4622-REFINED_LIGAND-BOUND-STATE_A__DU__LA1_A-201(A)

> <OMEGA_C>
0vlYwpve48H4zs5ANpRawoyq2sH9seRAE5xDwufD78EpC5RAp7pTwjO96cHKDAZB3+g6ws1o7cH6
QExAvFBBwl6P7MFIed1ASzs+wua87cH+h4pAO5JVwqtd68GBaeJALSVFwrMh78F35b5AabRYwiBB
2cF66QZBQ19VwuiW4ME1gRBBxNQ6wtBB68GkIKxAFcpOwrS488Fmf7BAZ9VWwu+u08FW1CZB+elT
wmYj9cGPZspA0hM8wkiI6sFC5NVAI9c1wsLw6sEIJ19ALeo1wr2u6cHOTppAMoNKwsES8cG5/8pA
lLNOwjjl9MFpholAhtRZwlnV0ME29BNBzf5Twj6t3cE+viRB7mNawkQy5cEsVq5AEzRdwove1MH/
stVAKnRGwgbB8cFsFXZAwBlRwuJ078Fpyg1BVvY7wp3c7sG5LwpA9WlCwkIE7MHGF/9ALe9TwnZS
zcHMLCpBtZpZwrJL1MGAXTRBXlRTwlHe+8ForOBAIBxXwiCm98HvSrRAS3Uywp6+58GRTKlAfUdL
wrZw8MFm4upA

> <OMEGA_E>
WUawwA==

> <OMEGA_NBR>
     11703

$$$$
CACHE3HI_1689_13
  -OEChem-03092622523D

 41 43  0     0  0  0  0  0  0999 V2000
  -57.2643  -24.2358    3.8915 C   0  0  0  0  0  0  0  0  0  0  0  0
  -56.8817  -24.6071    2.6025 C   0  0  0  0  0  0  0  0  0  0  0  0
  -56.4655  -24.5800    4.9819 C   0  0  0  0  0  0  0  0  0  0  0  0
  -55.7006  -25.3223    2.4039 C   0  0  0  0  0  0  0  0  0  0  0  0
  -55.2844  -25.2952    4.7832 C   0  0  0  0  0  0  0  0  0  0  0  0
  -46.8556  -29.3067    3.0116 C   0  0  0  0  0  0  0  0  0  0  0  0
  -48.1539  -29.1393    2.5209 C   0  0  0  0  0  0  0  0  0  0  0  0
  -48.9973  -29.1331    4.7724 C   0  0  0  0  0  0  0  0  0  0  0  0
  -47.6886  -29.3017    5.2573 C   0  0  0  0  0  0  0  0  0  0  0  0
  -54.9018  -25.6665    3.4943 C   0  0  0  0  0  0  0  0  0  0  0  0
  -46.5977  -29.3910    4.3775 C   0  0  0  0  0  0  0  0  0  0  0  0
  -49.2257  -29.0519    3.4027 C   0  0  0  0  0  0  0  0  0  0  0  0
  -47.3913  -29.3900    6.6139 C   0  0  0  0  0  0  0  0  0  0  0  0
  -45.1851  -29.6235    6.1679 C   0  0  0  0  0  0  0  0  0  0  0  0
  -51.7161  -28.7755    3.6445 C   0  0  0  0  0  0  0  0  0  0  0  0
  -53.6316  -26.4357    3.2811 C   0  0  0  0  0  0  0  0  0  0  0  0
  -52.9107  -28.6027    2.7253 C   0  0  0  0  0  0  0  0  0  0  0  0
  -45.3419  -29.5523    4.8305 N   0  0  0  0  0  0  0  0  0  0  0  0
  -46.1468  -29.5520    7.1017 N   0  0  0  0  0  0  0  0  0  0  0  0
  -48.4405  -29.3057    7.5627 N   0  0  0  0  0  0  0  0  0  0  0  0
  -43.8639  -29.7920    6.6367 N   0  0  0  0  0  0  0  0  0  0  0  0
  -50.5219  -28.8842    2.9152 N   0  0  0  0  0  0  0  0  0  0  0  0
  -51.8433  -28.8089    4.8640 O   0  0  0  0  0  0  0  0  0  0  0  0
  -53.9156  -27.8300    3.3468 O   0  0  0  0  0  0  0  0  0  0  0  0
  -58.1838  -23.6790    4.0462 H   0  0  0  0  0  0  0  0  0  0  0  0
  -57.5033  -24.3387    1.7534 H   0  0  0  0  0  0  0  0  0  0  0  0
  -56.7633  -24.2912    5.9855 H   0  0  0  0  0  0  0  0  0  0  0  0
  -55.4107  -25.6073    1.3959 H   0  0  0  0  0  0  0  0  0  0  0  0
  -54.6681  -25.5580    5.6389 H   0  0  0  0  0  0  0  0  0  0  0  0
  -46.0332  -29.3710    2.3013 H   0  0  0  0  0  0  0  0  0  0  0  0
  -48.3123  -29.0778    1.4472 H   0  0  0  0  0  0  0  0  0  0  0  0
  -49.8451  -29.0640    5.4509 H   0  0  0  0  0  0  0  0  0  0  0  0
  -53.1955  -26.2046    2.3035 H   0  0  0  0  0  0  0  0  0  0  0  0
  -52.8903  -26.1843    4.0480 H   0  0  0  0  0  0  0  0  0  0  0  0
  -53.3237  -29.5804    2.4579 H   0  0  0  0  0  0  0  0  0  0  0  0
  -52.5929  -28.0875    1.8133 H   0  0  0  0  0  0  0  0  0  0  0  0
  -49.3671  -29.1314    7.2402 H   0  0  0  0  0  0  0  0  0  0  0  0
  -48.2132  -29.3166    8.5329 H   0  0  0  0  0  0  0  0  0  0  0  0
  -43.1242  -29.9032    5.9745 H   0  0  0  0  0  0  0  0  0  0  0  0
  -43.7067  -29.9028    7.6170 H   0  0  0  0  0  0  0  0  0  0  0  0
  -50.6221  -28.8320    1.8948 H   0  0  0  0  0  0  0  0  0  0  0  0
  1  2  1  0  0  0  0
  1  3  2  0  0  0  0
  2  4  2  0  0  0  0
  3  5  1  0  0  0  0
  4 10  1  0  0  0  0
  5 10  2  0  0  0  0
  6  7  2  0  0  0  0
  6 11  1  0  0  0  0
  7 12  1  0  0  0  0
  8  9  1  0  0  0  0
  8 12  2  0  0  0  0
  9 11  1  0  0  0  0
  9 13  2  0  0  0  0
 10 16  1  0  0  0  0
 11 18  2  0  0  0  0
 12 22  1  0  0  0  0
 13 19  1  0  0  0  0
 13 20  1  0  0  0  0
 14 18  1  0  0  0  0
 14 19  2  0  0  0  0
 14 21  1  0  0  0  0
 15 17  1  0  0  0  0
 15 22  1  0  0  0  0
 15 23  2  0  0  0  0
 16 24  1  0  0  0  0
 17 24  1  0  0  0  0
  1 25  1  0  0  0  0
  2 26  1  0  0  0  0
  3 27  1  0  0  0  0
  4 28  1  0  0  0  0
  5 29  1  0  0  0  0
  6 30  1  0  0  0  0
  7 31  1  0  0  0  0
  8 32  1  0  0  0  0
 16 33  1  0  0  0  0
 16 34  1  0  0  0  0
 17 35  1  0  0  0  0
 17 36  1  0  0  0  0
 20 37  1  0  0  0  0
 20 38  1  0  0  0  0
 21 39  1  0  0  0  0
 21 40  1  0  0  0  0
 22 41  1  0  0  0  0
M  END
> <POSIT::Probability>
0.24

> <POSIT::Method>
FRED

> <ReceptorTitle>
UCSF-P4622-REFINED_LIGAND-BOUND-STATE_A__DU__LA1_A-201(A)

> <OMEGA_C>
oQ5lwtTiwcEoDnlA2oZjwlDbxMGyjyZAtNxhwuyjxMFca59AX81ewviTysH82BlAOCNdwpNcysH9
D5lAImw7whR06sHAvkBAn51Awk0d6cEeVyFAOv1Dwn4Q6cFft5hAKcE+wuRp6sEVPKhAbZtbwhFV
zcF+ol9AAmQ6wrUg68GhFIxAHOdEwjFq6MEUxVlAupA9wqYe68HcpNNAiL00wuX87MHQX8VAVt1O
wjw05sGaP2lAtoZWwkJ808GY/VFAj6RTwkvS5MGOay5AHl41wiVr7MGRk5pAUpY4wmxq7MEEQeNA
FcNBwhNy6sHmAfJAlnQvwu5V7sE6YNRAZRZKwsUS58GukjpAlV9Pwqx45sGspZtAm6lXwuCj3sGk
MlZAObxowqluvcGaeoFAbQNmwrq1wsELbuA/pw1jwmJUwsGCib9AlKRdwrDbzMEprbI/JqxawsN2
zMEBcrRAByI4wsH36sGWSBNA0j9BwkKf6MFrP7k/W2FHwgmD6MFrba5ALchUwvKi0cH0axNAqY9T
wmN50cFFiYFAeEtVwsCk7MGYTh1AH19Swjmz4MGFGeg/9HdFwjMN6cFyr+dAVtpAwniI6sHbhghB
MH8swsQ578FyL79An9Muwuc478HIvvNAC31KwgGo5sF7h/I/

> <OMEGA_E>
+x8WwQ==

> <OMEGA_NBR>
     13012

$$$$
CACHE3HI_1689_62
  -OEChem-03092622523D

 34 35  0     0  0  0  0  0  0999 V2000
  -55.5221  -26.5204   11.1350 C   0  0  0  0  0  0  0  0  0  0  0  0
  -54.3810  -25.7436   10.9350 C   0  0  0  0  0  0  0  0  0  0  0  0
  -55.5338  -27.8570   10.7365 C   0  0  0  0  0  0  0  0  0  0  0  0
  -53.2517  -26.3031   10.3369 C   0  0  0  0  0  0  0  0  0  0  0  0
  -54.4046  -28.4166   10.1385 C   0  0  0  0  0  0  0  0  0  0  0  0
  -53.2635  -27.6398    9.9385 C   0  0  0  0  0  0  0  0  0  0  0  0
  -44.8076  -29.6065    4.7559 C   0  0  0  0  0  0  0  0  0  0  0  0
  -46.2924  -29.0759    6.1237 C   0  0  0  0  0  0  0  0  0  0  0  0
  -50.2462  -29.8444    6.6700 C   0  0  0  0  0  0  0  0  0  0  0  0
  -52.0177  -28.7752    8.0578 C   0  0  0  0  0  0  0  0  0  0  0  0
  -44.1240  -30.0052    3.5060 C   0  0  0  0  0  0  0  0  0  0  0  0
  -48.7770  -30.1903    6.7272 C   0  0  0  0  0  0  0  0  0  0  0  0
  -46.1543  -29.4045    4.8604 N   0  0  0  0  0  0  0  0  0  0  0  0
  -45.0775  -29.0851    6.7346 N   0  0  0  0  0  0  0  0  0  0  0  0
  -44.1044  -29.4234    5.8753 N   0  0  0  0  0  0  0  0  0  0  0  0
  -52.1192  -28.2074    9.3321 N   0  0  0  0  0  0  0  0  0  0  0  0
  -50.7010  -29.2270    7.8349 N   0  0  0  0  0  0  0  0  0  0  0  0
  -50.9293  -30.0807    5.6753 O   0  0  0  0  0  0  0  0  0  0  0  0
  -52.9167  -28.8829    7.2286 O   0  0  0  0  0  0  0  0  0  0  0  0
  -43.4346  -28.8858    2.9529 O   0  0  0  0  0  0  0  0  0  0  0  0
  -47.8257  -28.6681    6.9528 S   0  0  0  0  0  0  0  0  0  0  0  0
  -56.4017  -26.0843   11.5994 H   0  0  0  0  0  0  0  0  0  0  0  0
  -54.3720  -24.7023   11.2439 H   0  0  0  0  0  0  0  0  0  0  0  0
  -56.4223  -28.4621   10.8914 H   0  0  0  0  0  0  0  0  0  0  0  0
  -52.3688  -25.6870   10.1855 H   0  0  0  0  0  0  0  0  0  0  0  0
  -54.4259  -29.4596    9.8317 H   0  0  0  0  0  0  0  0  0  0  0  0
  -43.3902  -30.8101    3.6782 H   0  0  0  0  0  0  0  0  0  0  0  0
  -44.8356  -30.3788    2.7500 H   0  0  0  0  0  0  0  0  0  0  0  0
  -48.4918  -30.6686    5.7855 H   0  0  0  0  0  0  0  0  0  0  0  0
  -48.5548  -30.8860    7.5415 H   0  0  0  0  0  0  0  0  0  0  0  0
  -43.1257  -29.4831    6.1425 H   0  0  0  0  0  0  0  0  0  0  0  0
  -51.2686  -28.2021    9.8889 H   0  0  0  0  0  0  0  0  0  0  0  0
  -50.0281  -29.0918    8.5845 H   0  0  0  0  0  0  0  0  0  0  0  0
  -43.0072  -29.1996    2.1415 H   0  0  0  0  0  0  0  0  0  0  0  0
  1  2  1  0  0  0  0
  1  3  2  0  0  0  0
  2  4  2  0  0  0  0
  3  5  1  0  0  0  0
  4  6  1  0  0  0  0
  5  6  2  0  0  0  0
  6 16  1  0  0  0  0
  7 11  1  0  0  0  0
  7 13  2  0  0  0  0
  7 15  1  0  0  0  0
  8 13  1  0  0  0  0
  8 14  2  0  0  0  0
  8 21  1  0  0  0  0
  9 12  1  0  0  0  0
  9 17  1  0  0  0  0
  9 18  2  0  0  0  0
 10 16  1  0  0  0  0
 10 17  1  0  0  0  0
 10 19  2  0  0  0  0
 11 20  1  0  0  0  0
 12 21  1  0  0  0  0
 14 15  1  0  0  0  0
  1 22  1  0  0  0  0
  2 23  1  0  0  0  0
  3 24  1  0  0  0  0
  4 25  1  0  0  0  0
  5 26  1  0  0  0  0
 11 27  1  0  0  0  0
 11 28  1  0  0  0  0
 12 29  1  0  0  0  0
 12 30  1  0  0  0  0
 15 31  1  0  0  0  0
 16 32  1  0  0  0  0
 17 33  1  0  0  0  0
 20 34  1  0  0  0  0
M  END
> <POSIT::Probability>
0.18

> <POSIT::Method>
HYBRID

> <ReceptorTitle>
UCSF-P4622-REFINED_LIGAND-BOUND-STATE_A__DU__LA1_A-201(A)

> <OMEGA_C>
rBZewssp1MHCKDJBJYZZwszyzcGg9S5BpiJewivb3sGayCtByAFVwtZs0sEeZCVBSp5ZwjZV48EY
NyJBxw1VwlQe3cHuAx9B9Dozwg/a7ME1MJhAbSs5woOb6MFd9cNAGfxIwkPB7sGmcNVAGBJQwqkz
5sHa7ABB+34wwqIK8MFdYmBArRtDwsqF8cEnRddA9504wmo868EOiJtAZ080wkuu6MEPgtdA9Gow
whFj68FDArxAGXpQwrKo4cF8UBVBx81KwvbQ6cHOt/pAn7dLwlyl8MEKnLVAuKpTwhUQ58GkUOdA
E70twisW58Hg/DxAgE0/wl5Y5cEDfd5AVZthwpCs0MEDlzlB7XxZwkaexcHY5jNBa7BhwnCy48Ek
Qy5BrnlRwvx+zcHG9yJBFrRZwi+t68G4Th1BhY8twgF79sFKaGtArlczwroH88E4ADBAnvdBwjFZ
9cEdI7lAKDhCwngW98G0U/FAroAswmrd68Gbj8RAEhNNwgCe4cHjOB5ByxxIwgK86MEhWglBbAcs
wtWY6cHKDQlA

> <OMEGA_E>
dCnfwA==

> <OMEGA_NBR>
     14184

$$$$
CACHE3HI_1689_85
  -OEChem-03092622523D

 34 35  0     0  0  0  0  0  0999 V2000
  -52.1613  -30.5329    9.9921 C   0  0  0  0  0  0  0  0  0  0  0  0
  -51.8109  -28.8665    8.2781 C   0  0  0  0  0  0  0  0  0  0  0  0
  -52.7805  -29.5754   10.7955 C   0  0  0  0  0  0  0  0  0  0  0  0
  -52.4301  -27.9090    9.0815 C   0  0  0  0  0  0  0  0  0  0  0  0
  -51.6767  -30.1783    8.7332 C   0  0  0  0  0  0  0  0  0  0  0  0
  -52.9148  -28.2636   10.3404 C   0  0  0  0  0  0  0  0  0  0  0  0
  -47.4557  -29.7498    6.4375 C   0  0  0  0  0  0  0  0  0  0  0  0
  -45.2529  -29.4661    6.1189 C   0  0  0  0  0  0  0  0  0  0  0  0
  -46.6493  -29.4664    4.3625 C   0  0  0  0  0  0  0  0  0  0  0  0
  -53.6229  -26.0076   10.5978 C   0  0  0  0  0  0  0  0  0  0  0  0
  -51.0147  -31.2015    7.8737 C   0  0  0  0  0  0  0  0  0  0  0  0
  -48.6202  -29.9679    7.3635 C   0  0  0  0  0  0  0  0  0  0  0  0
  -46.2422  -29.6616    7.0054 N   0  0  0  0  0  0  0  0  0  0  0  0
  -47.7358  -29.6619    5.1270 N   0  0  0  0  0  0  0  0  0  0  0  0
  -45.3798  -29.3589    4.7866 N   0  0  0  0  0  0  0  0  0  0  0  0
  -43.9452  -29.3642    6.6417 N   0  0  0  0  0  0  0  0  0  0  0  0
  -46.8634  -29.3643    2.9707 N   0  0  0  0  0  0  0  0  0  0  0  0
  -53.5190  -27.3297   11.1248 O   0  0  0  0  0  0  0  0  0  0  0  0
  -50.1143  -30.4624    6.4765 S   0  0  0  0  0  0  0  0  0  0  0  0
  -52.0612  -31.5524   10.3550 H   0  0  0  0  0  0  0  0  0  0  0  0
  -51.4361  -28.5814    7.2986 H   0  0  0  0  0  0  0  0  0  0  0  0
  -53.1563  -29.8575   11.7753 H   0  0  0  0  0  0  0  0  0  0  0  0
  -52.5317  -26.8889    8.7213 H   0  0  0  0  0  0  0  0  0  0  0  0
  -54.1247  -25.3630   11.3240 H   0  0  0  0  0  0  0  0  0  0  0  0
  -52.6190  -25.6220   10.4040 H   0  0  0  0  0  0  0  0  0  0  0  0
  -54.1882  -26.0305    9.6633 H   0  0  0  0  0  0  0  0  0  0  0  0
  -50.3044  -31.8017    8.4606 H   0  0  0  0  0  0  0  0  0  0  0  0
  -51.7520  -31.9121    7.4727 H   0  0  0  0  0  0  0  0  0  0  0  0
  -48.3762  -30.7418    8.0994 H   0  0  0  0  0  0  0  0  0  0  0  0
  -48.8307  -29.0541    7.9295 H   0  0  0  0  0  0  0  0  0  0  0  0
  -43.8150  -29.3866    7.6319 H   0  0  0  0  0  0  0  0  0  0  0  0
  -43.1880  -29.1658    6.0209 H   0  0  0  0  0  0  0  0  0  0  0  0
  -47.7865  -29.4924    2.6107 H   0  0  0  0  0  0  0  0  0  0  0  0
  -46.0756  -29.2718    2.3634 H   0  0  0  0  0  0  0  0  0  0  0  0
  1  3  2  0  0  0  0
  1  5  1  0  0  0  0
  2  4  1  0  0  0  0
  2  5  2  0  0  0  0
  3  6  1  0  0  0  0
  4  6  2  0  0  0  0
  5 11  1  0  0  0  0
  6 18  1  0  0  0  0
  7 12  1  0  0  0  0
  7 13  2  0  0  0  0
  7 14  1  0  0  0  0
  8 13  1  0  0  0  0
  8 15  2  0  0  0  0
  8 16  1  0  0  0  0
  9 14  2  0  0  0  0
  9 15  1  0  0  0  0
  9 17  1  0  0  0  0
 10 18  1  0  0  0  0
 11 19  1  0  0  0  0
 12 19  1  0  0  0  0
  1 20  1  0  0  0  0
  2 21  1  0  0  0  0
  3 22  1  0  0  0  0
  4 23  1  0  0  0  0
 10 24  1  0  0  0  0
 10 25  1  0  0  0  0
 10 26  1  0  0  0  0
 11 27  1  0  0  0  0
 11 28  1  0  0  0  0
 12 29  1  0  0  0  0
 12 30  1  0  0  0  0
 16 31  1  0  0  0  0
 16 32  1  0  0  0  0
 17 33  1  0  0  0  0
 17 34  1  0  0  0  0
M  END
> <POSIT::Probability>
0.14

> <POSIT::Method>
HYBRID

> <ReceptorTitle>
UCSF-P4622-REFINED_LIGAND-BOUND-STATE_A__DU__LA1_A-201(A)

> <OMEGA_C>
NqVQwmVD9MFw3x9BXj5PwoDu5sEJcwRBQh9Twnia7MFluixBYrhRwplF38HFTRFB5bROwhlt8cEa
uwtBu6hTwt4b4sFTciVBqtI9woL/7cHS/81A/QI1wqe668FuzsNA3pg6wji768ECmotA1X1WwqIP
0MGNkClBDg9Mwrqc+cEM9ftACntCwkO+78EWoutA9/c4wvxK7cFkLOBAePE+woJL7cE6EKRA9IQ1
wgvf6sGgK5lA48cvws3p6sF6iNRAJ3Q7wiDq6sFeHz5AbhNWwjSj2sFe/zFBCXVIwuqy88EWP89A
qD5Qwjtr/MEKriVBkr5Nwqim5MEbjulAEaBUwhvc7sGgZzxBdyBSwmkc18GTigtBtn9YwlXnysEk
LzVB5nlSwvH5zMHvdiZBvsBYwnQ+0MHgnBpBqzdJwvtp/sGTXgdBBwJPwvpL/8FsIO9AL4FBwiLv
9cEMlwFBl1JDwsJu6MG6vv1AkUIvwrMX68FbOPRAiMAswpJT6cFYq8BAYCU/wmzw68HdFSdAZk04
wrgs6sHUQRdA

> <OMEGA_E>
XnzkwA==

> <OMEGA_NBR>
     15354

$$$$
CACHE3HI_1689_92
  -OEChem-03092622523D

 41 43  0     0  0  0  0  0  0999 V2000
  -45.6561  -29.2665    4.8577 C   0  0  0  0  0  0  0  0  0  0  0  0
  -45.9529  -29.6792    3.5588 C   0  0  0  0  0  0  0  0  0  0  0  0
  -46.6882  -29.0028    5.7581 C   0  0  0  0  0  0  0  0  0  0  0  0
  -47.2814  -29.8285    3.1603 C   0  0  0  0  0  0  0  0  0  0  0  0
  -54.3820  -27.4181    9.9084 C   0  0  0  0  0  0  0  0  0  0  0  0
  -48.0167  -29.1521    5.3596 C   0  0  0  0  0  0  0  0  0  0  0  0
  -48.3136  -29.5648    4.0607 C   0  0  0  0  0  0  0  0  0  0  0  0
  -55.4403  -28.2065    9.5266 C   0  0  0  0  0  0  0  0  0  0  0  0
  -54.9244  -26.5685   10.8892 C   0  0  0  0  0  0  0  0  0  0  0  0
  -51.7734  -29.5229    8.3476 C   0  0  0  0  0  0  0  0  0  0  0  0
  -53.0226  -27.5341    9.3292 C   0  0  0  0  0  0  0  0  0  0  0  0
  -55.3953  -29.2826    8.5142 C   0  0  0  0  0  0  0  0  0  0  0  0
  -54.1220  -29.0992    7.6678 C   0  0  0  0  0  0  0  0  0  0  0  0
  -54.2359  -25.5097   11.6472 C   0  0  0  0  0  0  0  0  0  0  0  0
  -51.6015  -30.2453    7.0338 C   0  0  0  0  0  0  0  0  0  0  0  0
  -50.1334  -30.3965    6.6828 C   0  0  0  0  0  0  0  0  0  0  0  0
  -56.2228  -26.8036   11.1125 N   0  0  0  0  0  0  0  0  0  0  0  0
  -56.5094  -27.8112   10.2653 N   0  0  0  0  0  0  0  0  0  0  0  0
  -52.9372  -28.7611    8.4928 N   0  0  0  0  0  0  0  0  0  0  0  0
  -50.9010  -29.6297    9.2132 O   0  0  0  0  0  0  0  0  0  0  0  0
  -53.4013  -26.0890   12.6512 O   0  0  0  0  0  0  0  0  0  0  0  0
  -49.2773  -28.7940    6.5760 S   0  0  0  0  0  0  0  0  0  0  0  0
  -49.9358  -29.7716    3.4966 Cl  0  0  0  0  0  0  0  0  0  0  0  0
  -44.6217  -29.1509    5.1674 H   0  0  0  0  0  0  0  0  0  0  0  0
  -45.1493  -29.8848    2.8579 H   0  0  0  0  0  0  0  0  0  0  0  0
  -46.4330  -28.6824    6.7656 H   0  0  0  0  0  0  0  0  0  0  0  0
  -47.4938  -30.1514    2.1442 H   0  0  0  0  0  0  0  0  0  0  0  0
  -52.7893  -26.6436    8.7419 H   0  0  0  0  0  0  0  0  0  0  0  0
  -52.2750  -27.6345   10.1233 H   0  0  0  0  0  0  0  0  0  0  0  0
  -55.3904  -30.2703    8.9867 H   0  0  0  0  0  0  0  0  0  0  0  0
  -56.2800  -29.2176    7.8707 H   0  0  0  0  0  0  0  0  0  0  0  0
  -53.8774  -30.0339    7.1465 H   0  0  0  0  0  0  0  0  0  0  0  0
  -54.2973  -28.3395    6.8992 H   0  0  0  0  0  0  0  0  0  0  0  0
  -53.5999  -24.8795   10.9994 H   0  0  0  0  0  0  0  0  0  0  0  0
  -54.9463  -24.8268   12.1488 H   0  0  0  0  0  0  0  0  0  0  0  0
  -52.1179  -31.2032    7.0976 H   0  0  0  0  0  0  0  0  0  0  0  0
  -52.0981  -29.6298    6.2820 H   0  0  0  0  0  0  0  0  0  0  0  0
  -50.0029  -30.9201    5.7303 H   0  0  0  0  0  0  0  0  0  0  0  0
  -49.6382  -30.9843    7.4625 H   0  0  0  0  0  0  0  0  0  0  0  0
  -57.4548  -28.1735   10.2489 H   0  0  0  0  0  0  0  0  0  0  0  0
  -52.9778  -25.3505   13.1135 H   0  0  0  0  0  0  0  0  0  0  0  0
  1  2  1  0  0  0  0
  1  3  2  0  0  0  0
  2  4  2  0  0  0  0
  3  6  1  0  0  0  0
  4  7  1  0  0  0  0
  5  8  2  0  0  0  0
  5  9  1  0  0  0  0
  5 11  1  0  0  0  0
  6  7  2  0  0  0  0
  6 22  1  0  0  0  0
  7 23  1  0  0  0  0
  8 12  1  0  0  0  0
  8 18  1  0  0  0  0
  9 14  1  0  0  0  0
  9 17  2  0  0  0  0
 10 15  1  0  0  0  0
 10 19  1  0  0  0  0
 10 20  2  0  0  0  0
 11 19  1  0  0  0  0
 12 13  1  0  0  0  0
 13 19  1  0  0  0  0
 14 21  1  0  0  0  0
 15 16  1  0  0  0  0
 16 22  1  0  0  0  0
 17 18  1  0  0  0  0
  1 24  1  0  0  0  0
  2 25  1  0  0  0  0
  3 26  1  0  0  0  0
  4 27  1  0  0  0  0
 11 28  1  0  0  0  0
 11 29  1  0  0  0  0
 12 30  1  0  0  0  0
 12 31  1  0  0  0  0
 13 32  1  0  0  0  0
 13 33  1  0  0  0  0
 14 34  1  0  0  0  0
 14 35  1  0  0  0  0
 15 36  1  0  0  0  0
 15 37  1  0  0  0  0
 16 38  1  0  0  0  0
 16 39  1  0  0  0  0
 18 40  1  0  0  0  0
 21 41  1  0  0  0  0
M  END
> <POSIT::Probability>
0.33

> <POSIT::Method>
HYBRID

> <ReceptorTitle>
UCSF-P4622-REFINED_LIGAND-BOUND-STATE_A__DU__LA1_A-201(A)

> <OMEGA_C>
3J82wswh6sGVcptAzc83whFv7cE9w2NAwcA6wsoF6MFYQrhAMCA9wtmg7sHkQkpAIIdZwklY28H0
iB5BJRFAwpM36cErgqtAG0FBws6E7MGk8YFA0sJdwtGm4cH0bBhBj7JbwkSM1MEkOi5BARhPwusu
7MGkjwVBHRdUwuBF3MFORBVB0pRdwtBC6sE4OghB9HxYwhbL6MGaXvVAivFYwsgTzMHmWjpB6mdO
wlz28cG/FOFAmYhIwiEs88EZ2dVAL+Rgwrtt1sGZzDFBmwliwll93sGuPiRBq79TwqgW5sFm4gdB
mZpLwroJ7cFSaRNB6JpVwl620ME7a0pB/RtFwjNa5sHQbtJASr5Hwjcs7sEQyV9AnnwywgI16cG2
W6VA35g0whoU78Fp5zZAZLs5wpx15cGpf9hAqvk9wiA28cGZOglAQyhTwjAm1cHI3gtBkxlRwmMT
3cHc+CFBu49dwp4p8sFUyQ9Brh5hwrm96cFh3PtAdoJXwndF8MGIsORAcjBZwkW34sEcxtxAQGZW
wkYJx8GM/S9BCslbwkSdxsGjYUJBxHhQwhqg+cHBH+NAcmRQwr0J7cHHBclA7gJIwkxc98HDXrdA
kI1GwvDf98GuzO5AstFlwklj4cFa+yNBPulTwunNysGx0FFB

> <OMEGA_E>
xPlbwA==

> <OMEGA_NBR>
     16670

$$$$
CACHE3HI_1691_27
  -OEChem-03092622523D

 40 42  0     1  0  0  0  0  0999 V2000
  -55.9038  -26.4100   11.2494 C   0  0  0  0  0  0  0  0  0  0  0  0
  -54.6524  -25.8315   11.0373 C   0  0  0  0  0  0  0  0  0  0  0  0
  -56.1635  -27.6989   10.7837 C   0  0  0  0  0  0  0  0  0  0  0  0
  -53.6609  -26.5416   10.3600 C   0  0  0  0  0  0  0  0  0  0  0  0
  -55.1721  -28.4090   10.1064 C   0  0  0  0  0  0  0  0  0  0  0  0
  -46.9763  -29.6602    4.5505 C   0  0  0  0  0  0  0  0  0  0  0  0
  -45.3922  -28.9966    6.0402 C   0  0  0  0  0  0  0  0  0  0  0  0
  -53.9207  -27.8305    9.8944 C   0  0  0  0  0  0  0  0  0  0  0  0
  -47.9438  -29.6629    5.5343 C   0  0  0  0  0  0  0  0  0  0  0  0
  -47.5152  -29.3008    6.7949 C   0  0  0  0  0  0  0  0  0  0  0  0
  -52.8648  -28.5861    9.1736 C   0  0  0  0  0  0  0  0  0  0  0  0
  -49.3444  -30.0378    5.2133 C   0  0  0  0  0  0  0  0  0  0  0  0
  -52.5813  -30.1086    6.2139 C   0  0  0  0  0  0  0  0  0  0  0  0
  -52.3863  -31.1913    7.2374 C   0  0  1  0  0  0  0  0  0  0  0  0
  -51.4286  -31.0694    6.0778 C   0  0  2  0  0  0  0  0  0  0  0  0
  -51.9816  -30.8396    8.6282 C   0  0  0  0  0  0  0  0  0  0  0  0
  -45.6861  -29.3312    4.7691 N   0  0  0  0  0  0  0  0  0  0  0  0
  -46.2420  -28.9608    7.0847 N   0  0  0  0  0  0  0  0  0  0  0  0
  -48.4625  -29.2841    7.8486 N   0  0  0  0  0  0  0  0  0  0  0  0
  -50.0869  -30.6360    6.2383 N   0  0  0  0  0  0  0  0  0  0  0  0
  -52.9625  -29.9537    9.2651 N   0  0  0  0  0  0  0  0  0  0  0  0
  -51.9869  -27.9690    8.5763 O   0  0  0  0  0  0  0  0  0  0  0  0
  -49.7771  -29.8304    4.0828 O   0  0  0  0  0  0  0  0  0  0  0  0
  -56.6755  -25.8570   11.7766 H   0  0  0  0  0  0  0  0  0  0  0  0
  -54.4494  -24.8278   11.3993 H   0  0  0  0  0  0  0  0  0  0  0  0
  -57.1381  -28.1496   10.9474 H   0  0  0  0  0  0  0  0  0  0  0  0
  -52.6896  -26.0803   10.2009 H   0  0  0  0  0  0  0  0  0  0  0  0
  -55.3860  -29.4127    9.7479 H   0  0  0  0  0  0  0  0  0  0  0  0
  -47.2081  -29.9287    3.5244 H   0  0  0  0  0  0  0  0  0  0  0  0
  -44.3624  -28.7302    6.2448 H   0  0  0  0  0  0  0  0  0  0  0  0
  -53.4081  -30.2134    5.5214 H   0  0  0  0  0  0  0  0  0  0  0  0
  -52.3667  -29.0848    6.4962 H   0  0  0  0  0  0  0  0  0  0  0  0
  -53.0769  -32.0269    7.2223 H   0  0  0  0  0  0  0  0  0  0  0  0
  -51.5171  -31.8214    5.3003 H   0  0  0  0  0  0  0  0  0  0  0  0
  -51.8810  -31.7446    9.2537 H   0  0  0  0  0  0  0  0  0  0  0  0
  -50.9974  -30.3377    8.6439 H   0  0  0  0  0  0  0  0  0  0  0  0
  -49.4168  -29.4816    7.6400 H   0  0  0  0  0  0  0  0  0  0  0  0
  -48.1734  -28.9731    8.7501 H   0  0  0  0  0  0  0  0  0  0  0  0
  -49.6168  -30.8247    7.1313 H   0  0  0  0  0  0  0  0  0  0  0  0
  -53.6673  -30.4053    9.8208 H   0  0  0  0  0  0  0  0  0  0  0  0
  1  2  1  0  0  0  0
  1  3  2  0  0  0  0
  2  4  2  0  0  0  0
  3  5  1  0  0  0  0
  4  8  1  0  0  0  0
  5  8  2  0  0  0  0
  6  9  1  0  0  0  0
  6 17  2  0  0  0  0
  7 17  1  0  0  0  0
  7 18  2  0  0  0  0
  8 11  1  0  0  0  0
  9 10  2  0  0  0  0
  9 12  1  0  0  0  0
 10 18  1  0  0  0  0
 10 19  1  0  0  0  0
 11 21  1  0  0  0  0
 11 22  2  0  0  0  0
 12 20  1  0  0  0  0
 12 23  2  0  0  0  0
 13 14  1  0  0  0  0
 13 15  1  0  0  0  0
 14 15  1  0  0  0  0
 14 16  1  0  0  0  0
 15 20  1  0  0  0  0
 16 21  1  0  0  0  0
  1 24  1  0  0  0  0
  2 25  1  0  0  0  0
  3 26  1  0  0  0  0
  4 27  1  0  0  0  0
  5 28  1  0  0  0  0
  6 29  1  0  0  0  0
  7 30  1  0  0  0  0
 13 31  1  0  0  0  0
 13 32  1  0  0  0  0
 14 33  1  0  0  0  0
 15 34  1  0  0  0  0
 16 35  1  0  0  0  0
 16 36  1  0  0  0  0
 19 37  1  0  0  0  0
 19 38  1  0  0  0  0
 20 39  1  0  0  0  0
 21 40  1  0  0  0  0
M  END
> <POSIT::Probability>
0.18

> <POSIT::Method>
HYBRID

> <ReceptorTitle>
UCSF-P4622-REFINED_LIGAND-BOUND-STATE_A__DU__LA1_A-201(A)

> <OMEGA_C>
dJ1fwrNH08Fw/TNBApxawtamzsHPmDBBeadgwkCX3cEZiixBvaRWwi5V1MGxwiVBNLBcwphF48H5
syFBu+c7whFI7cG3nZFAm5E1whD558HzSMFAza5XwtOk3sFLTx5BdMY/wopN7cEvGbFAmA8+whxo
6sGDb9lAm3VTwlyw5MEhxxJBqmBFwl5N8MGn06ZAR1NSwnDe8MFH2MZAlotRwsmH+cF2mOdA77ZN
wjWO+MGhfcJAJe1Pwn639sFHDQpBnL42wkum6sHInJhAxfc4wqmv58FFtuJAmdlBwuZF6sFZJ/tA
/FhIwpYW9cE1oMdAjtlTwjah78HiPRRBmfJPwnvA38G1OAlBuRtHwqCk7sFIpoJAs7Niwi/bzsEe
bTxBK8xZwlOfxsGsYzZBcY1kwnky4cFzKC9BHMJSwmmk0MEBNyNBQItdwkZN68GB9xtBJdU8wg5u
78FQkGFAH3MxwoLX5cEW1cdA5qFVwvG08cGqr7BAdXdRwrKt6MHU4M9As05UwoMbAMIzHedAgxFO
wkCS/sERnKlAMYZPwvL0/cFQDxRBWv1LwrWz8sGRTQpByqpFwk/a68HWevRAibFAwuLI58GAAAxB
pXdGwv6Y9sHMM+RAR6tWwgY+88EYIh1B

> <OMEGA_E>
ykLWwA==

> <OMEGA_NBR>
     17970

$$$$
CACHE3HI_1694_55
  -OEChem-03092622523D

 35 36  0     1  0  0  0  0  0999 V2000
  -55.3627  -26.6953   10.2941 C   0  0  0  0  0  0  0  0  0  0  0  0
  -55.5164  -27.4969    9.1629 C   0  0  0  0  0  0  0  0  0  0  0  0
  -54.0870  -26.4272   10.7900 C   0  0  0  0  0  0  0  0  0  0  0  0
  -54.3946  -28.0299    8.5276 C   0  0  0  0  0  0  0  0  0  0  0  0
  -52.9652  -26.9602   10.1548 C   0  0  0  0  0  0  0  0  0  0  0  0
  -49.0166  -29.5438    5.4651 C   0  0  0  0  0  0  0  0  0  0  0  0
  -46.3666  -29.6697    5.7662 C   0  0  0  0  0  0  0  0  0  0  0  0
  -53.1188  -27.7617    9.0236 C   0  0  0  0  0  0  0  0  0  0  0  0
  -48.4402  -29.4974    6.7158 C   0  0  0  0  0  0  0  0  0  0  0  0
  -46.9431  -29.7161    4.5157 C   0  0  0  0  0  0  0  0  0  0  0  0
  -51.9056  -28.3380    8.3370 C   0  0  0  0  0  0  0  0  0  0  0  0
  -51.4827  -29.7149    8.8710 C   0  0  0  0  0  0  0  0  0  0  0  0
  -50.7466  -31.0555    6.8469 C   0  0  0  0  0  0  0  0  0  0  0  0
  -50.2910  -30.3720    8.1418 C   0  0  1  0  0  0  0  0  0  0  0  0
  -47.1044  -29.5595    6.8886 N   0  0  0  0  0  0  0  0  0  0  0  0
  -48.2788  -29.6542    4.3428 N   0  0  0  0  0  0  0  0  0  0  0  0
  -49.2650  -29.3843    7.8102 N   0  0  0  0  0  0  0  0  0  0  0  0
  -51.7221  -30.2510    6.1950 O   0  0  0  0  0  0  0  0  0  0  0  0
  -45.7422  -29.8877    2.8258 I   0  0  0  0  0  0  0  0  0  0  0  0
  -56.2360  -26.2804   10.7887 H   0  0  0  0  0  0  0  0  0  0  0  0
  -56.5097  -27.7054    8.7763 H   0  0  0  0  0  0  0  0  0  0  0  0
  -53.9671  -25.8033   11.6709 H   0  0  0  0  0  0  0  0  0  0  0  0
  -54.5243  -28.6534    7.6469 H   0  0  0  0  0  0  0  0  0  0  0  0
  -51.9752  -26.7449   10.5481 H   0  0  0  0  0  0  0  0  0  0  0  0
  -50.0891  -29.4940    5.3153 H   0  0  0  0  0  0  0  0  0  0  0  0
  -45.2953  -29.7174    5.9246 H   0  0  0  0  0  0  0  0  0  0  0  0
  -52.1348  -28.4299    7.2661 H   0  0  0  0  0  0  0  0  0  0  0  0
  -51.0676  -27.6330    8.3904 H   0  0  0  0  0  0  0  0  0  0  0  0
  -51.2468  -29.6230    9.9381 H   0  0  0  0  0  0  0  0  0  0  0  0
  -52.3531  -30.3828    8.8111 H   0  0  0  0  0  0  0  0  0  0  0  0
  -49.9067  -31.2100    6.1601 H   0  0  0  0  0  0  0  0  0  0  0  0
  -51.2060  -32.0272    7.0592 H   0  0  0  0  0  0  0  0  0  0  0  0
  -49.8547  -31.1363    8.7953 H   0  0  0  0  0  0  0  0  0  0  0  0
  -49.1746  -28.5925    8.4231 H   0  0  0  0  0  0  0  0  0  0  0  0
  -51.9773  -30.7230    5.3864 H   0  0  0  0  0  0  0  0  0  0  0  0
  1  2  1  0  0  0  0
  1  3  2  0  0  0  0
  2  4  2  0  0  0  0
  3  5  1  0  0  0  0
  4  8  1  0  0  0  0
  5  8  2  0  0  0  0
  6  9  1  0  0  0  0
  6 16  2  0  0  0  0
  7 10  2  0  0  0  0
  7 15  1  0  0  0  0
  8 11  1  0  0  0  0
  9 15  2  0  0  0  0
  9 17  1  0  0  0  0
 10 16  1  0  0  0  0
 10 19  1  0  0  0  0
 11 12  1  0  0  0  0
 12 14  1  0  0  0  0
 13 14  1  0  0  0  0
 13 18  1  0  0  0  0
 14 17  1  0  0  0  0
  1 20  1  0  0  0  0
  2 21  1  0  0  0  0
  3 22  1  0  0  0  0
  4 23  1  0  0  0  0
  5 24  1  0  0  0  0
  6 25  1  0  0  0  0
  7 26  1  0  0  0  0
 11 27  1  0  0  0  0
 11 28  1  0  0  0  0
 12 29  1  0  0  0  0
 12 30  1  0  0  0  0
 13 31  1  0  0  0  0
 13 32  1  0  0  0  0
 14 33  1  0  0  0  0
 17 34  1  0  0  0  0
 18 35  1  0  0  0  0
M  END
> <POSIT::Probability>
0.18

> <POSIT::Method>
HYBRID

> <ReceptorTitle>
UCSF-P4622-REFINED_LIGAND-BOUND-STATE_A__DU__LA1_A-201(A)

> <OMEGA_C>
bHNdwhGQ1cGEtCRBwxBewpb528EMmxJBDllYwulq08EKpCxBGpRZwj894MH3cAhBY9xTwpOu18H2
eSJB/RBEwqpZ7MHQ4a5AaHc5woFb7cFvhLhAsXlUwgwY3sGnYBBBycJBwrn668G159ZAt8U7wpS6
7cE/gJBAUZ9Pwjq04sFGZAVBUu5NwhO47cGM7w1BkPxKwp1x+MHyGdtABypJwvL58sG8RAJB9Go8
wsx57MGFb9xAhh1Bwr477cE/+IpAWg9FwvoS68H67PlAcuNOwiMC8sGhPcZACvg2wg4a78HG2TRA
nvFgwjU+0sGKnixB5QliwrSk3cG+awxBU95Xwj5tzsELvDpB3hhawiQ65cEGs/RAp+ZPwn711cHS
xChBSVtIwqbz68GcFqpAcC41wk697cG0lr1ADIpQwmpw48H1g+hARkVMwnQQ3cEWPwZBw/xMwvz7
7MGaAh9Bk2lRwugP88ET+gxBdaBHwimu+cHVH8VA/dJMwuUbAMIQ5eFANWtHwhIX+cGKuQxBzbJE
wna95MEexQZBvOhPwqjI9cGmXaxA

> <OMEGA_E>
mgHFwA==

> <OMEGA_NBR>
     19164

$$$$
CACHE3HI_1694_92
  -OEChem-03092622523D

 37 38  0     1  0  0  0  0  0999 V2000
  -45.6517  -29.6310    3.4071 C   0  0  0  0  0  0  0  0  0  0  0  0
  -44.9533  -29.5996    6.2801 C   0  0  0  0  0  0  0  0  0  0  0  0
  -55.3638  -26.4281   10.5731 C   0  0  0  0  0  0  0  0  0  0  0  0
  -54.1728  -26.3482   11.2947 C   0  0  0  0  0  0  0  0  0  0  0  0
  -55.4473  -27.2592    9.4560 C   0  0  0  0  0  0  0  0  0  0  0  0
  -53.0656  -27.0992   10.8997 C   0  0  0  0  0  0  0  0  0  0  0  0
  -54.3401  -28.0102    9.0610 C   0  0  0  0  0  0  0  0  0  0  0  0
  -48.8033  -29.0858    4.9800 C   0  0  0  0  0  0  0  0  0  0  0  0
  -46.6066  -29.4390    4.4498 C   0  0  0  0  0  0  0  0  0  0  0  0
  -46.2812  -29.4235    5.7886 C   0  0  0  0  0  0  0  0  0  0  0  0
  -53.1491  -27.9303    9.7826 C   0  0  0  0  0  0  0  0  0  0  0  0
  -48.4778  -29.0705    6.3187 C   0  0  0  0  0  0  0  0  0  0  0  0
  -51.9520  -28.7425    9.3550 C   0  0  0  0  0  0  0  0  0  0  0  0
  -51.8867  -29.0075    7.8433 C   0  0  0  0  0  0  0  0  0  0  0  0
  -50.8880  -30.4311    5.9962 C   0  0  0  0  0  0  0  0  0  0  0  0
  -50.6357  -29.7704    7.3567 C   0  0  1  0  0  0  0  0  0  0  0  0
  -44.8751  -29.7872    2.5589 N   0  0  0  0  0  0  0  0  0  0  0  0
  -43.8732  -29.7427    6.6798 N   0  0  0  0  0  0  0  0  0  0  0  0
  -47.8739  -29.2703    4.0215 N   0  0  0  0  0  0  0  0  0  0  0  0
  -47.2105  -29.2393    6.7470 N   0  0  0  0  0  0  0  0  0  0  0  0
  -49.4861  -28.8751    7.2329 N   0  0  0  0  0  0  0  0  0  0  0  0
  -51.6060  -31.6459    6.1763 O   0  0  0  0  0  0  0  0  0  0  0  0
  -56.2258  -25.8434   10.8806 H   0  0  0  0  0  0  0  0  0  0  0  0
  -54.1077  -25.7014   12.1648 H   0  0  0  0  0  0  0  0  0  0  0  0
  -56.3744  -27.3214    8.8939 H   0  0  0  0  0  0  0  0  0  0  0  0
  -52.1418  -27.0302   11.4681 H   0  0  0  0  0  0  0  0  0  0  0  0
  -54.4151  -28.6557    8.1898 H   0  0  0  0  0  0  0  0  0  0  0  0
  -49.8186  -28.9511    4.6249 H   0  0  0  0  0  0  0  0  0  0  0  0
  -51.0474  -28.1964    9.6570 H   0  0  0  0  0  0  0  0  0  0  0  0
  -51.9148  -29.6867    9.9109 H   0  0  0  0  0  0  0  0  0  0  0  0
  -52.7857  -29.5587    7.5418 H   0  0  0  0  0  0  0  0  0  0  0  0
  -51.9399  -28.0388    7.3275 H   0  0  0  0  0  0  0  0  0  0  0  0
  -51.4693  -29.7771    5.3363 H   0  0  0  0  0  0  0  0  0  0  0  0
  -49.9424  -30.6751    5.4994 H   0  0  0  0  0  0  0  0  0  0  0  0
  -50.3992  -30.5592    8.0802 H   0  0  0  0  0  0  0  0  0  0  0  0
  -49.4501  -28.0854    7.8541 H   0  0  0  0  0  0  0  0  0  0  0  0
  -51.7403  -32.0238    5.2926 H   0  0  0  0  0  0  0  0  0  0  0  0
  1  9  1  0  0  0  0
  1 17  3  0  0  0  0
  2 10  1  0  0  0  0
  2 18  3  0  0  0  0
  3  4  1  0  0  0  0
  3  5  2  0  0  0  0
  4  6  2  0  0  0  0
  5  7  1  0  0  0  0
  6 11  1  0  0  0  0
  7 11  2  0  0  0  0
  8 12  1  0  0  0  0
  8 19  2  0  0  0  0
  9 10  2  0  0  0  0
  9 19  1  0  0  0  0
 10 20  1  0  0  0  0
 11 13  1  0  0  0  0
 12 20  2  0  0  0  0
 12 21  1  0  0  0  0
 13 14  1  0  0  0  0
 14 16  1  0  0  0  0
 15 16  1  0  0  0  0
 15 22  1  0  0  0  0
 16 21  1  0  0  0  0
  3 23  1  0  0  0  0
  4 24  1  0  0  0  0
  5 25  1  0  0  0  0
  6 26  1  0  0  0  0
  7 27  1  0  0  0  0
  8 28  1  0  0  0  0
 13 29  1  0  0  0  0
 13 30  1  0  0  0  0
 14 31  1  0  0  0  0
 14 32  1  0  0  0  0
 15 33  1  0  0  0  0
 15 34  1  0  0  0  0
 16 35  1  0  0  0  0
 21 36  1  0  0  0  0
 22 37  1  0  0  0  0
M  END
> <POSIT::Probability>
0.18

> <POSIT::Method>
HYBRID

> <ReceptorTitle>
UCSF-P4622-REFINED_LIGAND-BOUND-STATE_A__DU__LA1_A-201(A)

> <OMEGA_C>
Vps2wmIM7cGmDVpAK9Azwg7M7MFA9shAhXRdwtFs08FmKylB6bBYwgfJ0sFItzRB/MldwsoS2sHg
SxdBJ0NUwiPL2MEPZS5BOFxZwuYU4MGo+RBBmzZDwsyv6MEFXJ9ALm06wgOD68GvZI5A+h85wk1j
68GSPLlApZhUwipx38FahRxBRelBwlOQ6MF2MspA3s5PwqPw5cHwrRVBAYxPwl8P6MH6+/pATI1L
wu5y88Gy4L9A9opKwrop7sFRautAGYAzwhhM7sFLxSNAKH4vwiXx7cHPwNVA7H4/wnkp6sEmsIBA
mNc8whTq6cE+59dAxPFFwi4A58FOdOdAjmxOwsEq/cH3o8VAL+dgwmG/zsHcFi5BVm5YwnqczcEc
o0JBZX9hwkyS2sFhTQ5BOpFQwu492MF8fTdBCqlZwso+5cGBCQNBQUZHwtWb58Ey/5NAkDBMwjKS
4cEcgxpByahPwlR+7cEqkx5BiiRTwk547MEaVvFAgcJPwohP4MGFeupAhuBNwnA37sE0w6pABcVH
wrFm9cFJ+69AyJhJwjd59MFUSAFB3cxFwtqu4MGfVPtAE/ZOwl4YAMJTXalA

> <OMEGA_E>
TdC4wA==

> <OMEGA_NBR>
     20398

$$$$
CACHE3HI_1695_28
  -OEChem-03092622523D

 37 39  0     1  0  0  0  0  0999 V2000
  -49.5481  -29.4736    6.1593 C   0  0  0  0  0  0  0  0  0  0  0  0
  -48.2779  -29.7024    6.6735 C   0  0  0  0  0  0  0  0  0  0  0  0
  -49.7105  -29.2738    4.7910 C   0  0  0  0  0  0  0  0  0  0  0  0
  -48.7332  -29.1051    2.5511 C   0  0  0  0  0  0  0  0  0  0  0  0
  -47.1729  -29.7316    5.8185 C   0  0  0  0  0  0  0  0  0  0  0  0
  -47.6162  -29.1404    1.7291 C   0  0  0  0  0  0  0  0  0  0  0  0
  -44.4226  -33.6661    1.6949 C   0  0  0  0  0  0  0  0  0  0  0  0
  -43.5814  -32.0133    0.5140 C   0  0  0  0  0  0  0  0  0  0  0  0
  -48.5985  -29.3028    3.9322 C   0  0  0  0  0  0  0  0  0  0  0  0
  -47.3062  -29.5350    4.4471 C   0  0  0  0  0  0  0  0  0  0  0  0
  -44.4091  -33.1041    0.4042 C   0  0  0  0  0  0  0  0  0  0  0  0
  -46.3930  -29.3738    2.3250 C   0  0  0  0  0  0  0  0  0  0  0  0
  -42.2320  -30.9773    2.4378 C   0  0  0  0  0  0  0  0  0  0  0  0
  -43.6601  -28.8374    2.4762 C   0  0  0  0  0  0  0  0  0  0  0  0
  -42.9870  -29.9489    3.2925 C   0  0  2  0  0  0  0  0  0  0  0  0
  -43.6637  -32.9887    2.5604 N   0  0  0  0  0  0  0  0  0  0  0  0
  -46.2188  -29.5699    3.6512 N   0  0  0  0  0  0  0  0  0  0  0  0
  -43.1655  -31.9894    1.8128 N   0  0  0  0  0  0  0  0  0  0  0  0
  -45.0725  -33.5249   -0.7583 N   0  3  0  0  0  0  0  0  0  0  0  0
  -45.8084  -34.5505   -0.7212 O   0  5  0  0  0  0  0  0  0  0  0  0
  -44.9273  -32.8737   -1.8310 O   0  0  0  0  0  0  0  0  0  0  0  0
  -42.0826  -29.3637    4.2294 O   0  0  0  0  0  0  0  0  0  0  0  0
  -44.9233  -29.4285    1.3150 S   0  0  0  0  0  0  0  0  0  0  0  0
  -50.4093  -29.4510    6.8201 H   0  0  0  0  0  0  0  0  0  0  0  0
  -48.1420  -29.8590    7.7396 H   0  0  0  0  0  0  0  0  0  0  0  0
  -50.7091  -29.0945    4.3989 H   0  0  0  0  0  0  0  0  0  0  0  0
  -49.7099  -28.9222    2.1089 H   0  0  0  0  0  0  0  0  0  0  0  0
  -46.1881  -29.9129    6.2452 H   0  0  0  0  0  0  0  0  0  0  0  0
  -47.7227  -28.9871    0.6604 H   0  0  0  0  0  0  0  0  0  0  0  0
  -44.9510  -34.5420    2.0445 H   0  0  0  0  0  0  0  0  0  0  0  0
  -43.2593  -31.2695   -0.2029 H   0  0  0  0  0  0  0  0  0  0  0  0
  -41.4986  -31.5175    3.0506 H   0  0  0  0  0  0  0  0  0  0  0  0
  -41.6703  -30.4834    1.6355 H   0  0  0  0  0  0  0  0  0  0  0  0
  -42.9079  -28.2854    1.9037 H   0  0  0  0  0  0  0  0  0  0  0  0
  -44.1563  -28.1319    3.1506 H   0  0  0  0  0  0  0  0  0  0  0  0
  -43.7664  -30.4551    3.8762 H   0  0  0  0  0  0  0  0  0  0  0  0
  -42.5978  -28.7249    4.7446 H   0  0  0  0  0  0  0  0  0  0  0  0
  1  2  1  0  0  0  0
  1  3  2  0  0  0  0
  2  5  2  0  0  0  0
  3  9  1  0  0  0  0
  4  6  1  0  0  0  0
  4  9  2  0  0  0  0
  5 10  1  0  0  0  0
  6 12  2  0  0  0  0
  7 11  1  0  0  0  0
  7 16  2  0  0  0  0
  8 11  2  0  0  0  0
  8 18  1  0  0  0  0
  9 10  1  0  0  0  0
 10 17  2  0  0  0  0
 11 19  1  0  0  0  0
 12 17  1  0  0  0  0
 12 23  1  0  0  0  0
 13 15  1  0  0  0  0
 13 18  1  0  0  0  0
 14 15  1  0  0  0  0
 14 23  1  0  0  0  0
 15 22  1  0  0  0  0
 16 18  1  0  0  0  0
 19 20  1  0  0  0  0
 19 21  2  0  0  0  0
  1 24  1  0  0  0  0
  2 25  1  0  0  0  0
  3 26  1  0  0  0  0
  4 27  1  0  0  0  0
  5 28  1  0  0  0  0
  6 29  1  0  0  0  0
  7 30  1  0  0  0  0
  8 31  1  0  0  0  0
 13 32  1  0  0  0  0
 13 33  1  0  0  0  0
 14 34  1  0  0  0  0
 14 35  1  0  0  0  0
 15 36  1  0  0  0  0
 22 37  1  0  0  0  0
M  CHG  2  19   1  20  -1
M  END
> <POSIT::Probability>
0.05

> <POSIT::Method>
FRED

> <ReceptorTitle>
UCSF-P4622-REFINED_LIGAND-BOUND-STATE_A__DU__LA1_A-201(A)

> <OMEGA_C>
RjFGwtrJ68EgGcVAjBxBwp6e7cHqjNVAiNdGwrIw6sEsUJlA1e5CwkHX6MG0RCNAB7E8wmba7cGC
MbpAAXc+wo8f6cFIU90/sbAxwguqBsI48dg/UlMuwp4NAMJgmAM/12RCwjhs6sGwqHtAkjk9wsVH
7MEMT45A86IxwpJqBMKA784+eJI5woT96sFczBRAkO0owo/R98GEBRxA+KMuwvay5sHAeh5AvfIr
wkKX78Hgt1JAqqcuwmr0A8L43SNADuA4wj+P7MEArmlAdqkswjnq/8FYCOg/Nko0wn4ZBsKgIkK/
wzs3wrIzCsLAoji/j7UzwrB+A8LQXOq/i1QowtPo6sFMV4dAf7EzwpNt68HgUag/JqNJwryb68EW
PtpAZpFAwiTf7sFqqvdAHdZKwpDB6MEmxIxA9NZGwq5g58Hc9wZAlsA4wqhN78Fo2MdAFOQ+woXl
58EgEik/180zwvgqCsLQ2AJAegktwvwn+sEAvk++lv4lwuQj/MFkPUNAZa4mwhne88EwWdE/raEr
wnBI4sGArfM/EaAwwjUO4cHso0lAxhAvwgGk88HEE3hAHGQqwrHM5cFo05dA

> <OMEGA_E>
uj34wA==

> <OMEGA_NBR>
     21636

$$$$
CACHE3HI_1695_43
  -OEChem-03092622523D

 38 41  0     0  0  0  0  0  0999 V2000
  -45.5644  -29.5557    3.0072 C   0  0  0  0  0  0  0  0  0  0  0  0
  -46.5818  -29.5054    2.0353 C   0  0  0  0  0  0  0  0  0  0  0  0
  -45.8693  -29.5014    4.3710 C   0  0  0  0  0  0  0  0  0  0  0  0
  -53.7937  -29.8063    7.4196 C   0  0  0  0  0  0  0  0  0  0  0  0
  -54.9184  -29.3210    8.0875 C   0  0  0  0  0  0  0  0  0  0  0  0
  -47.9223  -29.4014    2.4096 C   0  0  0  0  0  0  0  0  0  0  0  0
  -52.4021  -28.2170    8.5966 C   0  0  0  0  0  0  0  0  0  0  0  0
  -47.2007  -29.3977    4.7356 C   0  0  0  0  0  0  0  0  0  0  0  0
  -52.5380  -29.2512    7.6700 C   0  0  0  0  0  0  0  0  0  0  0  0
  -54.7854  -28.2782    9.0041 C   0  0  0  0  0  0  0  0  0  0  0  0
  -53.5244  -27.7412    9.2745 C   0  0  0  0  0  0  0  0  0  0  0  0
  -48.1967  -29.3492    3.7607 C   0  0  0  0  0  0  0  0  0  0  0  0
  -47.7112  -29.3294    6.1188 C   0  0  0  0  0  0  0  0  0  0  0  0
  -51.3369  -29.7699    6.9490 C   0  0  0  0  0  0  0  0  0  0  0  0
  -55.7347  -26.5656   10.2484 C   0  0  0  0  0  0  0  0  0  0  0  0
  -54.4500  -26.5732   11.0537 C   0  0  0  0  0  0  0  0  0  0  0  0
  -49.9883  -29.1413    7.2476 C   0  0  0  0  0  0  0  0  0  0  0  0
  -49.1418  -29.2289    6.0493 N   0  0  0  0  0  0  0  0  0  0  0  0
  -47.0282  -29.3547    7.1264 O   0  0  0  0  0  0  0  0  0  0  0  0
  -51.4781  -30.6852    6.1404 O   0  0  0  0  0  0  0  0  0  0  0  0
  -50.4999  -30.4516    4.1960 O   0  0  0  0  0  0  0  0  0  0  0  0
  -50.3174  -27.9105    4.1375 O   0  0  0  0  0  0  0  0  0  0  0  0
  -55.9296  -27.8308    9.6122 O   0  0  0  0  0  0  0  0  0  0  0  0
  -53.3244  -26.7388   10.1872 O   0  0  0  0  0  0  0  0  0  0  0  0
  -49.7885  -29.2190    4.4555 S   0  0  0  0  0  0  0  0  0  0  0  0
  -44.5278  -29.6375    2.6910 H   0  0  0  0  0  0  0  0  0  0  0  0
  -46.3177  -29.5492    0.9821 H   0  0  0  0  0  0  0  0  0  0  0  0
  -45.0773  -29.5407    5.1110 H   0  0  0  0  0  0  0  0  0  0  0  0
  -53.9081  -30.6151    6.7024 H   0  0  0  0  0  0  0  0  0  0  0  0
  -55.8935  -29.7534    7.8803 H   0  0  0  0  0  0  0  0  0  0  0  0
  -48.7069  -29.3632    1.6630 H   0  0  0  0  0  0  0  0  0  0  0  0
  -51.4234  -27.7885    8.7996 H   0  0  0  0  0  0  0  0  0  0  0  0
  -56.5931  -26.3870   10.9039 H   0  0  0  0  0  0  0  0  0  0  0  0
  -55.7242  -25.7841    9.4785 H   0  0  0  0  0  0  0  0  0  0  0  0
  -54.3266  -25.6225   11.5822 H   0  0  0  0  0  0  0  0  0  0  0  0
  -54.4432  -27.3813   11.7955 H   0  0  0  0  0  0  0  0  0  0  0  0
  -49.5049  -29.6746    8.0711 H   0  0  0  0  0  0  0  0  0  0  0  0
  -50.1284  -28.0874    7.5050 H   0  0  0  0  0  0  0  0  0  0  0  0
  1  2  1  0  0  0  0
  1  3  2  0  0  0  0
  2  6  2  0  0  0  0
  3  8  1  0  0  0  0
  4  5  2  0  0  0  0
  4  9  1  0  0  0  0
  5 10  1  0  0  0  0
  6 12  1  0  0  0  0
  7  9  2  0  0  0  0
  7 11  1  0  0  0  0
  8 12  2  0  0  0  0
  8 13  1  0  0  0  0
  9 14  1  0  0  0  0
 10 11  2  0  0  0  0
 10 23  1  0  0  0  0
 11 24  1  0  0  0  0
 12 25  1  0  0  0  0
 13 18  1  0  0  0  0
 13 19  2  0  0  0  0
 14 17  1  0  0  0  0
 14 20  2  0  0  0  0
 15 16  1  0  0  0  0
 15 23  1  0  0  0  0
 16 24  1  0  0  0  0
 17 18  1  0  0  0  0
 18 25  1  0  0  0  0
 21 25  2  0  0  0  0
 22 25  2  0  0  0  0
  1 26  1  0  0  0  0
  2 27  1  0  0  0  0
  3 28  1  0  0  0  0
  4 29  1  0  0  0  0
  5 30  1  0  0  0  0
  6 31  1  0  0  0  0
  7 32  1  0  0  0  0
 15 33  1  0  0  0  0
 15 34  1  0  0  0  0
 16 35  1  0  0  0  0
 16 36  1  0  0  0  0
 17 37  1  0  0  0  0
 17 38  1  0  0  0  0
M  END
> <POSIT::Probability>
0.18

> <POSIT::Method>
HYBRID

> <ReceptorTitle>
UCSF-P4622-REFINED_LIGAND-BOUND-STATE_A__DU__LA1_A-201(A)

> <OMEGA_C>
/EE2wgNy7MGkdkBAvlM6wvkK7MHbQgJANXo3wtIC7MHp3otAxixXwj5z7sG0be1AdKxbwnSR6sFX
ZgFBbrA/whI268FENxpAx5tRwl684cGFiwlBh808wpIu68GhiZdA4CZSwo4C6sG6cPVANiRbwtQ5
4sGjEBBBBRlWwuLt3cF+ZBRBYslAwiHL6sEAr3BAP9g+woOi6sHfzMNA+VhNwsAo7sEKXt5AYPBe
wkyG1MGJ+SNB0cxZwt6V1MES3DBB+vNHwmIh6cGX7OdAJ5FEws3U6cGZk8FA4hw8wmLW6sGeC+RA
nulNwjF79cEEfsRA2f9JwvCc88HYRYZADUVJwsVI38EwZoRA3LdfwpOl3sHGyxlBJExVwgTp1cG7
/iJBdSdHwoPA6cGek45AcRwywpUZ7cFoOSxASEU5wsNk7MFAans/LU80wmhT7MF2jaNA36FXwrjr
9MEQetZA7JJfwvAG7sFSK/xA6tNCwtPn6sF23tQ/hLFNwuBO3sEbywxBWl9iwqUY08Fhdi5BiOVe
wt5FzsEWqBdBb05Zwsv6zMHcUDlB2MVZwuMM28GJujxBEQVGwq5l7cEqIwFBfINIwhez4MG9KPBA

> <OMEGA_E>
wjuxwA==

> <OMEGA_NBR>
     22892

$$$$
CACHE3HI_1695_46
  -OEChem-03092622523D

 36 38  0     0  0  0  0  0  0999 V2000
  -54.1067  -29.0370   10.9185 C   0  0  0  0  0  0  0  0  0  0  0  0
  -52.7407  -28.7772   10.8589 C   0  0  0  0  0  0  0  0  0  0  0  0
  -53.8536  -31.3504    6.6452 C   0  0  0  0  0  0  0  0  0  0  0  0
  -54.7298  -29.7421    9.8877 C   0  0  0  0  0  0  0  0  0  0  0  0
  -51.9924  -29.2211    9.7683 C   0  0  0  0  0  0  0  0  0  0  0  0
  -54.6019  -30.9065    7.7358 C   0  0  0  0  0  0  0  0  0  0  0  0
  -52.4875  -31.0898    6.5861 C   0  0  0  0  0  0  0  0  0  0  0  0
  -53.9918  -30.1961    8.7825 C   0  0  0  0  0  0  0  0  0  0  0  0
  -52.6027  -29.9317    8.7218 C   0  0  0  0  0  0  0  0  0  0  0  0
  -51.8645  -30.3854    7.6164 C   0  0  0  0  0  0  0  0  0  0  0  0
  -46.4108  -29.2026    6.2352 C   0  0  0  0  0  0  0  0  0  0  0  0
  -49.9173  -29.9912    6.0470 C   0  0  0  0  0  0  0  0  0  0  0  0
  -48.7180  -28.4229    4.5652 C   0  0  0  0  0  0  0  0  0  0  0  0
  -50.3927  -30.1407    7.4895 C   0  0  0  0  0  0  0  0  0  0  0  0
  -47.7640  -28.8658    6.7927 C   0  0  0  0  0  0  0  0  0  0  0  0
  -46.1876  -29.4208    4.9079 N   0  0  0  0  0  0  0  0  0  0  0  0
  -45.3200  -29.3144    6.9973 N   0  0  0  0  0  0  0  0  0  0  0  0
  -44.8919  -29.6879    4.7947 N   0  0  0  0  0  0  0  0  0  0  0  0
  -44.4221  -29.6143    6.0481 N   0  0  0  0  0  0  0  0  0  0  0  0
  -48.8326  -29.1331    5.8332 N   0  0  0  0  0  0  0  0  0  0  0  0
  -50.4812  -30.6089    5.1383 O   0  0  0  0  0  0  0  0  0  0  0  0
  -54.6887  -28.6907   11.7677 H   0  0  0  0  0  0  0  0  0  0  0  0
  -52.2567  -28.2285   11.6616 H   0  0  0  0  0  0  0  0  0  0  0  0
  -54.3375  -31.8987    5.8421 H   0  0  0  0  0  0  0  0  0  0  0  0
  -55.7987  -29.9335    9.9552 H   0  0  0  0  0  0  0  0  0  0  0  0
  -50.9279  -28.9985    9.7581 H   0  0  0  0  0  0  0  0  0  0  0  0
  -55.6684  -31.1209    7.7621 H   0  0  0  0  0  0  0  0  0  0  0  0
  -51.9151  -31.4407    5.7311 H   0  0  0  0  0  0  0  0  0  0  0  0
  -49.2277  -27.4566    4.6182 H   0  0  0  0  0  0  0  0  0  0  0  0
  -47.6657  -28.2517    4.3217 H   0  0  0  0  0  0  0  0  0  0  0  0
  -49.1660  -29.0124    3.7605 H   0  0  0  0  0  0  0  0  0  0  0  0
  -49.8432  -30.9731    7.9529 H   0  0  0  0  0  0  0  0  0  0  0  0
  -50.1259  -29.2276    8.0415 H   0  0  0  0  0  0  0  0  0  0  0  0
  -47.9663  -29.4519    7.6953 H   0  0  0  0  0  0  0  0  0  0  0  0
  -47.8216  -27.8085    7.0718 H   0  0  0  0  0  0  0  0  0  0  0  0
  -43.4442  -29.7755    6.2646 H   0  0  0  0  0  0  0  0  0  0  0  0
  1  2  1  0  0  0  0
  1  4  2  0  0  0  0
  2  5  2  0  0  0  0
  3  6  1  0  0  0  0
  3  7  2  0  0  0  0
  4  8  1  0  0  0  0
  5  9  1  0  0  0  0
  6  8  2  0  0  0  0
  7 10  1  0  0  0  0
  8  9  1  0  0  0  0
  9 10  2  0  0  0  0
 10 14  1  0  0  0  0
 11 15  1  0  0  0  0
 11 16  1  0  0  0  0
 11 17  2  0  0  0  0
 12 14  1  0  0  0  0
 12 20  1  0  0  0  0
 12 21  2  0  0  0  0
 13 20  1  0  0  0  0
 15 20  1  0  0  0  0
 16 18  2  0  0  0  0
 17 19  1  0  0  0  0
 18 19  1  0  0  0  0
  1 22  1  0  0  0  0
  2 23  1  0  0  0  0
  3 24  1  0  0  0  0
  4 25  1  0  0  0  0
  5 26  1  0  0  0  0
  6 27  1  0  0  0  0
  7 28  1  0  0  0  0
 13 29  1  0  0  0  0
 13 30  1  0  0  0  0
 13 31  1  0  0  0  0
 14 32  1  0  0  0  0
 14 33  1  0  0  0  0
 15 34  1  0  0  0  0
 15 35  1  0  0  0  0
 19 36  1  0  0  0  0
M  END
> <POSIT::Probability>
0.14

> <POSIT::Method>
HYBRID

> <ReceptorTitle>
UCSF-P4622-REFINED_LIGAND-BOUND-STATE_A__DU__LA1_A-201(A)

> <OMEGA_C>
P21YwrhL6ME8si5BevZSwsA35sEpvi1BH2pXwozN+sFypdRAVOtawujv7cEJNB5BOfhPwsvE6cH9
ShxBYGhawn9A98G8i/dAOfNRwta3+MEOwdJAlvdXwoSR8cHzhAxBImlSwjN078GIjAtBRXVPwmYV
88GxufNAs6Q5wgKf6cFwhsdAT6tHwgvu78FrgcFAQd9CwjBi48H9FZJAFZJJwjQg8cFLqu9AVg4/
whHt5sEXXtlAGsA4wuRd68GEDZ1At0c1wvqD6sEP6t9AW5EzwtyA7cGQbplAL7Axwizq7MFrisFA
j1RDwowQ6cFzqbpAwexJwhvf9MEhbaRALsFawqCG5cGISDxB3wZRwgHU4cEWljpBollZwn8w/8Ea
8rpA4TFfwrZ378GwSB9BNrZLwuz858FVIRxBcqxewq73+MEeY/hACqlPwnqG+8F9ZbdAK+lEwhmn
28E2yJNApqk+wpID4sFvS4pABqpEwnAZ6MF7q3BAel9HwtrI98FFfv5A8oBIwhTS6cHrqQBBgN0/
wpCd68HRP/ZAXUk/wsx33sFxTOJA28Ytwiw07sFpd8hA

> <OMEGA_E>
tIztwA==

> <OMEGA_NBR>
     24107

$$$$
CACHE3HI_1695_62
  -OEChem-03092622523D

 35 37  0     0  0  0  0  0  0999 V2000
  -55.6539  -27.7037    9.4999 C   0  0  0  0  0  0  0  0  0  0  0  0
  -55.9764  -27.8085    8.1318 C   0  0  0  0  0  0  0  0  0  0  0  0
  -54.4103  -28.1718    9.9640 C   0  0  0  0  0  0  0  0  0  0  0  0
  -55.0337  -28.3231    7.2142 C   0  0  0  0  0  0  0  0  0  0  0  0
  -52.2811  -29.2800    9.5357 C   0  0  0  0  0  0  0  0  0  0  0  0
  -51.3426  -29.8078    8.6346 C   0  0  0  0  0  0  0  0  0  0  0  0
  -52.7843  -29.2184    6.7565 C   0  0  0  0  0  0  0  0  0  0  0  0
  -44.6417  -29.3733    5.3024 C   0  0  0  0  0  0  0  0  0  0  0  0
  -45.8411  -29.2612    4.6421 C   0  0  0  0  0  0  0  0  0  0  0  0
  -46.1973  -29.4861    6.8826 C   0  0  0  0  0  0  0  0  0  0  0  0
  -53.4845  -28.7325    9.0584 C   0  0  0  0  0  0  0  0  0  0  0  0
  -53.7716  -28.7659    7.6686 C   0  0  0  0  0  0  0  0  0  0  0  0
  -51.5392  -29.6950    7.2401 C   0  0  0  0  0  0  0  0  0  0  0  0
  -48.1870  -29.2835    5.3683 C   0  0  0  0  0  0  0  0  0  0  0  0
  -48.9169  -28.3830    7.5791 C   0  0  0  0  0  0  0  0  0  0  0  0
  -50.3997  -30.0778    6.2837 C   0  0  0  0  0  0  0  0  0  0  0  0
  -44.8977  -29.5039    6.6760 N   0  0  0  0  0  0  0  0  0  0  0  0
  -46.7918  -29.3199    5.6384 N   0  0  0  0  0  0  0  0  0  0  0  0
  -49.1828  -29.1875    6.3660 N   0  0  0  0  0  0  0  0  0  0  0  0
  -48.5529  -29.2309    4.1975 O   0  0  0  0  0  0  0  0  0  0  0  0
  -56.3592  -27.2654   10.1903 H   0  0  0  0  0  0  0  0  0  0  0  0
  -56.9490  -27.4937    7.7833 H   0  0  0  0  0  0  0  0  0  0  0  0
  -54.1646  -28.1019   11.0133 H   0  0  0  0  0  0  0  0  0  0  0  0
  -55.2782  -28.3782    6.1637 H   0  0  0  0  0  0  0  0  0  0  0  0
  -52.0782  -29.2947   10.5964 H   0  0  0  0  0  0  0  0  0  0  0  0
  -50.4612  -30.3053    9.0114 H   0  0  0  0  0  0  0  0  0  0  0  0
  -52.9804  -29.2000    5.6947 H   0  0  0  0  0  0  0  0  0  0  0  0
  -43.6651  -29.3628    4.8415 H   0  0  0  0  0  0  0  0  0  0  0  0
  -46.0029  -29.1515    3.5799 H   0  0  0  0  0  0  0  0  0  0  0  0
  -46.7021  -29.5818    7.8326 H   0  0  0  0  0  0  0  0  0  0  0  0
  -49.7934  -28.4188    8.2428 H   0  0  0  0  0  0  0  0  0  0  0  0
  -48.0417  -28.7916    8.1053 H   0  0  0  0  0  0  0  0  0  0  0  0
  -48.7177  -27.3403    7.2910 H   0  0  0  0  0  0  0  0  0  0  0  0
  -50.0881  -31.1068    6.5161 H   0  0  0  0  0  0  0  0  0  0  0  0
  -50.7867  -30.0354    5.2549 H   0  0  0  0  0  0  0  0  0  0  0  0
  1  2  1  0  0  0  0
  1  3  2  0  0  0  0
  2  4  2  0  0  0  0
  3 11  1  0  0  0  0
  4 12  1  0  0  0  0
  5  6  2  0  0  0  0
  5 11  1  0  0  0  0
  6 13  1  0  0  0  0
  7 12  1  0  0  0  0
  7 13  2  0  0  0  0
  8  9  2  0  0  0  0
  8 17  1  0  0  0  0
  9 18  1  0  0  0  0
 10 17  2  0  0  0  0
 10 18  1  0  0  0  0
 11 12  2  0  0  0  0
 13 16  1  0  0  0  0
 14 18  1  0  0  0  0
 14 19  1  0  0  0  0
 14 20  2  0  0  0  0
 15 19  1  0  0  0  0
 16 19  1  0  0  0  0
  1 21  1  0  0  0  0
  2 22  1  0  0  0  0
  3 23  1  0  0  0  0
  4 24  1  0  0  0  0
  5 25  1  0  0  0  0
  6 26  1  0  0  0  0
  7 27  1  0  0  0  0
  8 28  1  0  0  0  0
  9 29  1  0  0  0  0
 10 30  1  0  0  0  0
 15 31  1  0  0  0  0
 15 32  1  0  0  0  0
 15 33  1  0  0  0  0
 16 34  1  0  0  0  0
 16 35  1  0  0  0  0
M  END
> <POSIT::Probability>
0.42

> <POSIT::Method>
SHAPEFIT

> <ReceptorTitle>
UCSF-P4622-REFINED_LIGAND-BOUND-STATE_A__DU__LA1_A-201(A)

> <OMEGA_C>
jJ1ewkeh3cF//xdB3+dfwsB33sGoGwJBKqRZwuFf4cGPbB9BeiJcwsWV4sH/2uZA0x9RwoQ96sEv
khhB2V5NwnN27sFRJwpBFCNTwjy/6cGFNdhAIpEywpr86sGPralATV03wtgW6sG4i5RACco4wnzj
68GdPtxAHfBVwirc5cFa7xBBGBZXwnYg5sFSZfVAKShOwkSP7cEtr+dAgr9AwqxE6sH/yKtA86pD
wmMQ48Gnh/JASZlJwlyf8MHlE8lASJczwv8H7MGPodVA0Co7wjmP6sEpbrRAJ7tEwguA6cH2tctA
NDZCwvLY6cHmUYZA1W9hwokf2sGVCyNBzMtjwi3z28G3EPlAhqhYwqzQ4MGrNjBB5xxdwo0G48FD
PcVADFBQwqRb6sGsiilBR9hJwllx8sG/LhBB8utTwrGZ6cGdOrZACKkuwgrn6sHy7ZpABAM4wi02
6cERHWVA8M46wn+n7MG3pPpAdSxHwsVZ48Fg4gNBsipAwjhV5sGArwFB895Cwtu42sGCT+lANVpI
ws/a+MGng9BAkCVLwndI8MHtJ6hA

> <OMEGA_E>
NHlxPw==

> <OMEGA_NBR>
     25327

$$$$
CACHE3HI_1695_81
  -OEChem-03092622523D

 35 37  0     0  0  0  0  0  0999 V2000
  -49.9625  -29.8809    4.8158 C   0  0  0  0  0  0  0  0  0  0  0  0
  -49.4971  -29.8749    7.1867 C   0  0  0  0  0  0  0  0  0  0  0  0
  -48.6113  -29.6578    4.5507 C   0  0  0  0  0  0  0  0  0  0  0  0
  -48.1459  -29.6518    6.9216 C   0  0  0  0  0  0  0  0  0  0  0  0
  -44.4659  -28.9840    4.3118 C   0  0  0  0  0  0  0  0  0  0  0  0
  -53.3215  -28.2392   10.5286 C   0  0  0  0  0  0  0  0  0  0  0  0
  -53.8496  -27.2023    8.4188 C   0  0  0  0  0  0  0  0  0  0  0  0
  -44.3236  -28.9993    5.7123 C   0  0  0  0  0  0  0  0  0  0  0  0
  -45.8066  -29.1969    4.1013 C   0  0  0  0  0  0  0  0  0  0  0  0
  -53.7868  -27.1003   11.1697 C   0  0  0  0  0  0  0  0  0  0  0  0
  -54.3013  -26.0900    9.1138 C   0  0  0  0  0  0  0  0  0  0  0  0
  -53.3551  -28.2861    9.1379 C   0  0  0  0  0  0  0  0  0  0  0  0
  -50.4052  -29.9896    6.1340 C   0  0  0  0  0  0  0  0  0  0  0  0
  -47.7032  -29.5431    5.6033 C   0  0  0  0  0  0  0  0  0  0  0  0
  -52.8746  -29.4665    8.4376 C   0  0  0  0  0  0  0  0  0  0  0  0
  -51.8580  -30.2308    6.4198 C   0  0  0  0  0  0  0  0  0  0  0  0
  -45.4810  -29.2052    6.3462 N   0  0  0  0  0  0  0  0  0  0  0  0
  -46.3639  -29.3216    5.3399 N   0  0  0  0  0  0  0  0  0  0  0  0
  -54.2577  -26.0708   10.4526 N   0  3  0  0  0  0  0  0  0  0  0  0
  -54.6827  -25.0272   11.0717 O   0  5  0  0  0  0  0  0  0  0  0  0
  -52.9183  -30.6170    8.8930 O   0  0  0  0  0  0  0  0  0  0  0  0
  -52.3651  -29.1490    7.2081 O   0  0  0  0  0  0  0  0  0  0  0  0
  -50.6633  -29.9704    3.9901 H   0  0  0  0  0  0  0  0  0  0  0  0
  -49.8343  -29.9571    8.2166 H   0  0  0  0  0  0  0  0  0  0  0  0
  -48.2799  -29.5759    3.5183 H   0  0  0  0  0  0  0  0  0  0  0  0
  -47.4492  -29.5643    7.7517 H   0  0  0  0  0  0  0  0  0  0  0  0
  -43.7039  -28.8387    3.5604 H   0  0  0  0  0  0  0  0  0  0  0  0
  -52.9401  -29.0726   11.1105 H   0  0  0  0  0  0  0  0  0  0  0  0
  -53.8863  -27.2160    7.3338 H   0  0  0  0  0  0  0  0  0  0  0  0
  -43.4247  -28.8699    6.2979 H   0  0  0  0  0  0  0  0  0  0  0  0
  -46.3900  -29.2679    3.1928 H   0  0  0  0  0  0  0  0  0  0  0  0
  -53.7968  -26.9805   12.2429 H   0  0  0  0  0  0  0  0  0  0  0  0
  -54.6998  -25.2080    8.6349 H   0  0  0  0  0  0  0  0  0  0  0  0
  -52.4324  -30.2964    5.4897 H   0  0  0  0  0  0  0  0  0  0  0  0
  -51.9968  -31.1696    6.9678 H   0  0  0  0  0  0  0  0  0  0  0  0
  1  3  2  0  0  0  0
  1 13  1  0  0  0  0
  2  4  1  0  0  0  0
  2 13  2  0  0  0  0
  3 14  1  0  0  0  0
  4 14  2  0  0  0  0
  5  8  1  0  0  0  0
  5  9  2  0  0  0  0
  6 10  2  0  0  0  0
  6 12  1  0  0  0  0
  7 11  1  0  0  0  0
  7 12  2  0  0  0  0
  8 17  2  0  0  0  0
  9 18  1  0  0  0  0
 10 19  1  0  0  0  0
 11 19  2  0  0  0  0
 12 15  1  0  0  0  0
 13 16  1  0  0  0  0
 14 18  1  0  0  0  0
 15 21  2  0  0  0  0
 15 22  1  0  0  0  0
 16 22  1  0  0  0  0
 17 18  1  0  0  0  0
 19 20  1  0  0  0  0
  1 23  1  0  0  0  0
  2 24  1  0  0  0  0
  3 25  1  0  0  0  0
  4 26  1  0  0  0  0
  5 27  1  0  0  0  0
  6 28  1  0  0  0  0
  7 29  1  0  0  0  0
  8 30  1  0  0  0  0
  9 31  1  0  0  0  0
 10 32  1  0  0  0  0
 11 33  1  0  0  0  0
 16 34  1  0  0  0  0
 16 35  1  0  0  0  0
M  CHG  2  19   1  20  -1
M  END
> <POSIT::Probability>
0.18

> <POSIT::Method>
HYBRID

> <ReceptorTitle>
UCSF-P4622-REFINED_LIGAND-BOUND-STATE_A__DU__LA1_A-201(A)

> <OMEGA_C>
ktlHwhUM78FxG5pA/PxFwtL/7sFl+eVA/nFCwiBD7cEyn5FAc5VAwuI27cGCfd1AHt0xwjrf58Hg
+YlANElVwvvp4cHydChBAWZXwjue2cFtswZBYEsxwn3+58HFyrZA/Dk3wkiT6cHoPYNAtiVXwm/N
2MEhtzJBiTRZwkm40MFR0hFBqmtVwgRK4sGqNBJB8Z5JwrHq78H9ScRACtA+wkFY7MGaTrNAkX9T
wm2768FVAAdBn25Pwr3Y8cG3bs1Ag+w1wkWk6cFiFMtApHQ5wq2S6sFG4KpA6AdZwv+Q0MHzPSdB
HrtawqY3yMHhJTFBVqxTwrbv9MHHSQ5B43VRwhEx6cGmqOZALKdKwnHD78GOXX9ATVZHwhKo78EN
dwNBoh5BwnWb7MFWK2FA7ss9wrmD7MEXDvhA0NAuwrG15sEm3mNAtcJTwsOU6MGExDFBiItXwm+6
2cHfrupA6LItwoL15sF4iMlAZI85wpQk6sGOV0xA5i9XwirY18G94kNBj8xawhKqycFsKApB07pR
wghf8sFOq69AxfxPwkVb+cEE+N5A

> <OMEGA_E>
rF+/wA==

> <OMEGA_NBR>
     26526

$$$$
CACHE3HI_1695_89
  -OEChem-03092622523D

 44 46  0     0  0  0  0  0  0999 V2000
  -42.9776  -29.6814    0.9162 C   0  0  0  0  0  0  0  0  0  0  0  0
  -43.0131  -31.0753    0.9559 C   0  0  0  0  0  0  0  0  0  0  0  0
  -44.1644  -28.9519    0.9858 C   0  0  0  0  0  0  0  0  0  0  0  0
  -47.1946  -29.4902    4.5966 C   0  0  0  0  0  0  0  0  0  0  0  0
  -47.4215  -29.7776    3.2491 C   0  0  0  0  0  0  0  0  0  0  0  0
  -44.2349  -31.7395    1.0654 C   0  0  0  0  0  0  0  0  0  0  0  0
  -45.3862  -29.6161    1.0954 C   0  0  0  0  0  0  0  0  0  0  0  0
  -49.7050  -30.3966    3.7511 C   0  0  0  0  0  0  0  0  0  0  0  0
  -48.2283  -29.6574    5.5211 C   0  0  0  0  0  0  0  0  0  0  0  0
  -48.6730  -30.2292    2.8275 C   0  0  0  0  0  0  0  0  0  0  0  0
  -45.4217  -31.0100    1.1350 C   0  0  0  0  0  0  0  0  0  0  0  0
  -49.4813  -30.1099    5.0992 C   0  0  0  0  0  0  0  0  0  0  0  0
  -48.0131  -29.3596    6.9527 C   0  0  0  0  0  0  0  0  0  0  0  0
  -50.3643  -30.0121    7.3665 C   0  0  0  0  0  0  0  0  0  0  0  0
  -48.9010  -30.5259    1.4220 C   0  0  0  0  0  0  0  0  0  0  0  0
  -48.1801  -31.6338   -3.1243 C   0  0  0  0  0  0  0  0  0  0  0  0
  -46.7373  -31.7247    1.2529 C   0  0  0  0  0  0  0  0  0  0  0  0
  -48.3308  -31.8541   -1.6258 C   0  0  0  0  0  0  0  0  0  0  0  0
  -47.6955  -30.7415   -0.8002 C   0  0  0  0  0  0  0  0  0  0  0  0
  -50.5207  -30.2778    6.0268 N   0  0  0  0  0  0  0  0  0  0  0  0
  -49.1186  -29.5657    7.7718 N   0  0  0  0  0  0  0  0  0  0  0  0
  -47.8226  -30.9736    0.6370 N   0  0  0  0  0  0  0  0  0  0  0  0
  -46.9277  -28.9609    7.3610 O   0  0  0  0  0  0  0  0  0  0  0  0
  -50.0538  -30.3773    0.9968 O   0  0  0  0  0  0  0  0  0  0  0  0
  -51.6166  -30.2181    8.4553 S   0  0  0  0  0  0  0  0  0  0  0  0
  -42.0265  -29.1643    0.8309 H   0  0  0  0  0  0  0  0  0  0  0  0
  -42.0891  -31.6435    0.9021 H   0  0  0  0  0  0  0  0  0  0  0  0
  -44.1370  -27.8667    0.9547 H   0  0  0  0  0  0  0  0  0  0  0  0
  -46.2129  -29.1404    4.9029 H   0  0  0  0  0  0  0  0  0  0  0  0
  -46.6128  -29.6450    2.5345 H   0  0  0  0  0  0  0  0  0  0  0  0
  -44.2526  -32.8258    1.0955 H   0  0  0  0  0  0  0  0  0  0  0  0
  -46.3055  -29.0391    1.1500 H   0  0  0  0  0  0  0  0  0  0  0  0
  -50.6795  -30.7487    3.4204 H   0  0  0  0  0  0  0  0  0  0  0  0
  -47.1213  -31.5426   -3.3867 H   0  0  0  0  0  0  0  0  0  0  0  0
  -48.6878  -30.7164   -3.4388 H   0  0  0  0  0  0  0  0  0  0  0  0
  -48.5962  -32.4702   -3.6946 H   0  0  0  0  0  0  0  0  0  0  0  0
  -46.6883  -32.7056    0.7686 H   0  0  0  0  0  0  0  0  0  0  0  0
  -47.0002  -31.8929    2.3025 H   0  0  0  0  0  0  0  0  0  0  0  0
  -49.3955  -31.9432   -1.3805 H   0  0  0  0  0  0  0  0  0  0  0  0
  -47.8563  -32.8065   -1.3619 H   0  0  0  0  0  0  0  0  0  0  0  0
  -48.1490  -29.7710   -1.0247 H   0  0  0  0  0  0  0  0  0  0  0  0
  -46.6251  -30.6769   -1.0202 H   0  0  0  0  0  0  0  0  0  0  0  0
  -51.4206  -30.6082    5.6906 H   0  0  0  0  0  0  0  0  0  0  0  0
  -49.0001  -29.3698    8.7619 H   0  0  0  0  0  0  0  0  0  0  0  0
  1  2  1  0  0  0  0
  1  3  2  0  0  0  0
  2  6  2  0  0  0  0
  3  7  1  0  0  0  0
  4  5  2  0  0  0  0
  4  9  1  0  0  0  0
  5 10  1  0  0  0  0
  6 11  1  0  0  0  0
  7 11  2  0  0  0  0
  8 10  2  0  0  0  0
  8 12  1  0  0  0  0
  9 12  2  0  0  0  0
  9 13  1  0  0  0  0
 10 15  1  0  0  0  0
 11 17  1  0  0  0  0
 12 20  1  0  0  0  0
 13 21  1  0  0  0  0
 13 23  2  0  0  0  0
 14 20  1  0  0  0  0
 14 21  1  0  0  0  0
 14 25  2  0  0  0  0
 15 22  1  0  0  0  0
 15 24  2  0  0  0  0
 16 18  1  0  0  0  0
 17 22  1  0  0  0  0
 18 19  1  0  0  0  0
 19 22  1  0  0  0  0
  1 26  1  0  0  0  0
  2 27  1  0  0  0  0
  3 28  1  0  0  0  0
  4 29  1  0  0  0  0
  5 30  1  0  0  0  0
  6 31  1  0  0  0  0
  7 32  1  0  0  0  0
  8 33  1  0  0  0  0
 16 34  1  0  0  0  0
 16 35  1  0  0  0  0
 16 36  1  0  0  0  0
 17 37  1  0  0  0  0
 17 38  1  0  0  0  0
 18 39  1  0  0  0  0
 18 40  1  0  0  0  0
 19 41  1  0  0  0  0
 19 42  1  0  0  0  0
 20 43  1  0  0  0  0
 21 44  1  0  0  0  0
M  END
> <POSIT::Probability>
0.05

> <POSIT::Method>
FRED

> <ReceptorTitle>
UCSF-P4622-REFINED_LIGAND-BOUND-STATE_A__DU__LA1_A-201(A)

> <OMEGA_C>
Hekrwpxz7cF4jmo/bw0swkGa+MFEt3Q/W6gwwo2d58FQX3w/Rcc8wgjs68E1F5NAqq89wn447sFY
8U9AkPAwwpTq/cGMYIg/fos1wt/t7MGINIw/9NFGwlQs88EkEnBAxulAwmVC7cHqrLBALLFCwn/V
8cEi9TRA1681wmsU+MHsSJE/zuxFwgbh8MGdLKNAZw1AwoXg6sHIfN5ACnVJwtkY8ME2uutApZpD
whw19MFABbY/bLhAwh0S/cFZ9UfA//I6whvM/cGwXqA/tFJBwhvV/sFEG9C/MMg+wqzu9cEo3Uy/
NhVKwug48sGI28BAbXlEwpeG7MHEsvhAW0o/wt3J98HgEyM/7LU7wviv58GejetADTdIwrQE88Hg
MH8/b3dOwri+8cEPSQdBJBsownhQ6cHIt1Q/OVsowt8l/cHY8mY/U4wwwvTu3sHwaXQ/+tk4wnIf
6cHY5JxAiXM6wvUo7cGcNSJAqAIxwqRNA8LOOYw/1jg5wvxP6MFcMpM/2LdKwmj99cEO6FpAOXw8
wipX/MEJv1jAS8BCwkG79cGaFVzAfGJCwnnhAcK1dGzA0MA6woXSAsJww0Q/OQA8wpQk/8GGWxNA
B5VFwryL/8GmtbC/2Gw/wtA5A8IAUq6/iphAwhUr7sEIKIO/HYA6wldq9cFslIK/p65NwpDd9MEi
GbZAIgBEwm/16sGgMAxB

> <OMEGA_E>
Ick9wQ==

> <OMEGA_NBR>
     27899

$$$$
CACHE3HI_1695_99
  -OEChem-03092622523D

 43 46  0     0  0  0  0  0  0999 V2000
  -45.4123  -30.1055    2.7520 C   0  0  0  0  0  0  0  0  0  0  0  0
  -45.3544  -29.8604    4.1208 C   0  0  0  0  0  0  0  0  0  0  0  0
  -55.9326  -26.7796   11.7402 C   0  0  0  0  0  0  0  0  0  0  0  0
  -54.8291  -27.0470   12.5473 C   0  0  0  0  0  0  0  0  0  0  0  0
  -50.2446  -29.5440    2.8556 C   0  0  0  0  0  0  0  0  0  0  0  0
  -46.6411  -30.0888    2.0902 C   0  0  0  0  0  0  0  0  0  0  0  0
  -46.5248  -29.5980    4.8334 C   0  0  0  0  0  0  0  0  0  0  0  0
  -49.0743  -29.8063    2.1430 C   0  0  0  0  0  0  0  0  0  0  0  0
  -55.9786  -27.2717   10.4352 C   0  0  0  0  0  0  0  0  0  0  0  0
  -53.7685  -27.8061   12.0531 C   0  0  0  0  0  0  0  0  0  0  0  0
  -50.1859  -29.2994    4.2247 C   0  0  0  0  0  0  0  0  0  0  0  0
  -47.8290  -29.8266    2.7921 C   0  0  0  0  0  0  0  0  0  0  0  0
  -47.7700  -29.5776    4.1841 C   0  0  0  0  0  0  0  0  0  0  0  0
  -54.9147  -28.0338    9.9372 C   0  0  0  0  0  0  0  0  0  0  0  0
  -53.8103  -28.3016   10.7443 C   0  0  0  0  0  0  0  0  0  0  0  0
  -48.9579  -29.3156    4.8862 C   0  0  0  0  0  0  0  0  0  0  0  0
  -54.9691  -28.5497    8.5579 C   0  0  0  0  0  0  0  0  0  0  0  0
  -52.6831  -29.1056   10.2284 C   0  0  0  0  0  0  0  0  0  0  0  0
  -51.0931  -29.7232    7.1460 C   0  0  0  0  0  0  0  0  0  0  0  0
  -48.9668  -29.0431    6.3613 C   0  0  0  0  0  0  0  0  0  0  0  0
  -51.7122  -30.3499    8.3733 C   0  0  0  0  0  0  0  0  0  0  0  0
  -53.8905  -29.2891    8.1329 N   0  0  0  0  0  0  0  0  0  0  0  0
  -52.7939  -29.5583    8.9276 N   0  0  0  0  0  0  0  0  0  0  0  0
  -55.9409  -28.3162    7.8444 O   0  0  0  0  0  0  0  0  0  0  0  0
  -51.7215  -29.3305   10.9598 O   0  0  0  0  0  0  0  0  0  0  0  0
  -51.7397  -29.0213    6.3756 O   0  0  0  0  0  0  0  0  0  0  0  0
  -49.7734  -30.0300    7.0142 O   0  0  0  0  0  0  0  0  0  0  0  0
  -44.5008  -30.3101    2.1980 H   0  0  0  0  0  0  0  0  0  0  0  0
  -44.3977  -29.8735    4.6348 H   0  0  0  0  0  0  0  0  0  0  0  0
  -56.7576  -26.1883   12.1266 H   0  0  0  0  0  0  0  0  0  0  0  0
  -54.7945  -26.6638   13.5629 H   0  0  0  0  0  0  0  0  0  0  0  0
  -51.2016  -29.5313    2.3419 H   0  0  0  0  0  0  0  0  0  0  0  0
  -46.6626  -30.2834    1.0200 H   0  0  0  0  0  0  0  0  0  0  0  0
  -46.4384  -29.4115    5.9013 H   0  0  0  0  0  0  0  0  0  0  0  0
  -49.1427  -29.9949    1.0735 H   0  0  0  0  0  0  0  0  0  0  0  0
  -56.8497  -27.0501    9.8247 H   0  0  0  0  0  0  0  0  0  0  0  0
  -52.9202  -27.9996   12.7041 H   0  0  0  0  0  0  0  0  0  0  0  0
  -51.1046  -29.0962    4.7692 H   0  0  0  0  0  0  0  0  0  0  0  0
  -47.9519  -29.0817    6.7709 H   0  0  0  0  0  0  0  0  0  0  0  0
  -49.3768  -28.0488    6.5715 H   0  0  0  0  0  0  0  0  0  0  0  0
  -50.9476  -30.4514    9.1466 H   0  0  0  0  0  0  0  0  0  0  0  0
  -52.1216  -31.3283    8.1083 H   0  0  0  0  0  0  0  0  0  0  0  0
  -53.8714  -29.6704    7.1920 H   0  0  0  0  0  0  0  0  0  0  0  0
  1  2  1  0  0  0  0
  1  6  2  0  0  0  0
  2  7  2  0  0  0  0
  3  4  1  0  0  0  0
  3  9  2  0  0  0  0
  4 10  2  0  0  0  0
  5  8  1  0  0  0  0
  5 11  2  0  0  0  0
  6 12  1  0  0  0  0
  7 13  1  0  0  0  0
  8 12  2  0  0  0  0
  9 14  1  0  0  0  0
 10 15  1  0  0  0  0
 11 16  1  0  0  0  0
 12 13  1  0  0  0  0
 13 16  2  0  0  0  0
 14 15  2  0  0  0  0
 14 17  1  0  0  0  0
 15 18  1  0  0  0  0
 16 20  1  0  0  0  0
 17 22  1  0  0  0  0
 17 24  2  0  0  0  0
 18 23  1  0  0  0  0
 18 25  2  0  0  0  0
 19 21  1  0  0  0  0
 19 26  2  0  0  0  0
 19 27  1  0  0  0  0
 20 27  1  0  0  0  0
 21 23  1  0  0  0  0
 22 23  1  0  0  0  0
  1 28  1  0  0  0  0
  2 29  1  0  0  0  0
  3 30  1  0  0  0  0
  4 31  1  0  0  0  0
  5 32  1  0  0  0  0
  6 33  1  0  0  0  0
  7 34  1  0  0  0  0
  8 35  1  0  0  0  0
  9 36  1  0  0  0  0
 10 37  1  0  0  0  0
 11 38  1  0  0  0  0
 20 39  1  0  0  0  0
 20 40  1  0  0  0  0
 21 41  1  0  0  0  0
 21 42  1  0  0  0  0
 22 43  1  0  0  0  0
M  END
> <POSIT::Probability>
0.18

> <POSIT::Method>
HYBRID

> <ReceptorTitle>
UCSF-P4622-REFINED_LIGAND-BOUND-STATE_A__DU__LA1_A-201(A)

> <OMEGA_C>
PqY1whjY8MEAITBA5mo1wiPi7sFo3YNA/7pfwrY81sHW1ztBAlFbwlNg2MHEwUhBgPpIwgRa7MGz
wjZAgpA6ws218MGExgVAWxk6wszI7MH/qppAC0xEwl9z7sGUJwlACupfwl4s2sGH9iZB8hJXwvly
3sGi2UBBY75IwiRl6sH0MIdA2lA/wvSc7sHksTJAfRQ/wtSe7ME45IVAnqhbwkpF4MHS/h5ByD1X
wr1p4sGo6CtB5NRDwlyG6sGAW5xAY+Bbwrhl5MEa7QhBhrtSwkjY6MFypyNBSV9Mwi7J7cEPrORA
Dd5DwitY6MEgkMtATNlOwpvM8sEA+QVB5I9XwiBQ6sF4IAJB7ixTwmx37MFF1w5Bb8Nfwn+H4sFm
BftAxuJOwtak6sFYWy9BaPVOwpsr6MG4BMxA/hdHwnE98MFLdOBA0gAywhh78sEQrAxAPJcxwgL9
7sFUUJRAxQdjwqCB0cGLBkJBmS1bwm5P1cF8AVlBac5MwhZA7MFY4RVAeqY6wmdE8sE+kII/4sA5
wshK68GC17xAF5JEwn3178HOaYk/G2Zjwqlm2MHkMR1BVa5Twjb/38EnREtBJ2tMwhjF6MHznJhA
wc4/wk+n6MFXq9hA1oFFwuhj4MHwSdJATspLwnac88F2WBJBgXxQwmKg+sGkuwFBR3xXwuJc7cH0
JOZA

> <OMEGA_E>
KvvBwA==

> <OMEGA_NBR>
     29257

$$$$
CACHE3HI_1696_36
  -OEChem-03092622523D

 39 41  0     1  0  0  0  0  0999 V2000
  -44.3492  -29.1588    6.1682 C   0  0  0  0  0  0  0  0  0  0  0  0
  -46.3082  -30.3939    2.4834 C   0  0  0  0  0  0  0  0  0  0  0  0
  -46.3439  -29.7564    4.5172 C   0  0  0  0  0  0  0  0  0  0  0  0
  -45.0064  -29.8152    4.1605 C   0  0  0  0  0  0  0  0  0  0  0  0
  -46.6311  -29.3588    5.8194 C   0  0  0  0  0  0  0  0  0  0  0  0
  -52.1404  -29.1604    7.6236 C   0  0  0  0  0  0  0  0  0  0  0  0
  -49.9208  -28.1798    5.2022 C   0  0  0  0  0  0  0  0  0  0  0  0
  -48.7091  -28.0248    6.1264 C   0  0  0  0  0  0  0  0  0  0  0  0
  -50.8597  -29.3397    5.5239 C   0  0  0  0  0  0  0  0  0  0  0  0
  -48.5860  -30.4733    6.8287 C   0  0  0  0  0  0  0  0  0  0  0  0
  -49.8466  -30.2044    7.6582 C   0  0  0  0  0  0  0  0  0  0  0  0
  -53.9201  -26.9024    8.5538 C   0  0  0  0  0  0  0  0  0  0  0  0
  -51.9761  -28.7648    9.0716 C   0  0  0  0  0  0  0  0  0  0  0  0
  -43.9474  -29.5305    4.9330 N   0  0  0  0  0  0  0  0  0  0  0  0
  -45.6089  -29.0559    6.6555 N   0  0  0  0  0  0  0  0  0  0  0  0
  -47.1442  -30.1191    3.4635 N   0  0  0  0  0  0  0  0  0  0  0  0
  -45.0016  -30.2242    2.8570 N   0  0  0  0  0  0  0  0  0  0  0  0
  -47.9542  -29.2715    6.2652 N   0  0  3  0  0  0  0  0  0  0  0  0
  -50.9798  -29.5769    6.9608 N   0  0  0  0  0  0  0  0  0  0  0  0
  -53.2551  -29.0962    7.0999 O   0  0  0  0  0  0  0  0  0  0  0  0
  -53.5907  -28.2722    9.6901 S   0  0  0  0  0  0  0  0  0  0  0  0
  -43.5564  -28.9096    6.8652 H   0  0  0  0  0  0  0  0  0  0  0  0
  -46.5809  -30.7172    1.4889 H   0  0  0  0  0  0  0  0  0  0  0  0
  -50.5006  -27.2403    5.2496 H   0  0  0  0  0  0  0  0  0  0  0  0
  -49.5764  -28.2485    4.1543 H   0  0  0  0  0  0  0  0  0  0  0  0
  -48.0530  -27.2326    5.7365 H   0  0  0  0  0  0  0  0  0  0  0  0
  -49.0424  -27.6729    7.1139 H   0  0  0  0  0  0  0  0  0  0  0  0
  -51.8616  -29.1619    5.1101 H   0  0  0  0  0  0  0  0  0  0  0  0
  -50.4856  -30.2433    5.0301 H   0  0  0  0  0  0  0  0  0  0  0  0
  -47.8531  -31.0281    7.4493 H   0  0  0  0  0  0  0  0  0  0  0  0
  -48.8326  -31.1762    6.0070 H   0  0  0  0  0  0  0  0  0  0  0  0
  -50.1804  -31.1548    8.1091 H   0  0  0  0  0  0  0  0  0  0  0  0
  -49.5933  -29.5473    8.5084 H   0  0  0  0  0  0  0  0  0  0  0  0
  -54.8928  -26.4581    8.7795 H   0  0  0  0  0  0  0  0  0  0  0  0
  -53.1455  -26.1391    8.6585 H   0  0  0  0  0  0  0  0  0  0  0  0
  -53.9254  -27.2676    7.5236 H   0  0  0  0  0  0  0  0  0  0  0  0
  -51.2750  -27.9382    9.1214 H   0  0  0  0  0  0  0  0  0  0  0  0
  -51.6026  -29.6252    9.6170 H   0  0  0  0  0  0  0  0  0  0  0  0
  -44.1872  -30.3740    2.2768 H   0  0  0  0  0  0  0  0  0  0  0  0
  1 14  2  0  0  0  0
  1 15  1  0  0  0  0
  2 16  2  0  0  0  0
  2 17  1  0  0  0  0
  3  4  2  0  0  0  0
  3  5  1  0  0  0  0
  3 16  1  0  0  0  0
  4 14  1  0  0  0  0
  4 17  1  0  0  0  0
  5 15  2  0  0  0  0
  5 18  1  0  0  0  0
  6 13  1  0  0  0  0
  6 19  1  0  0  0  0
  6 20  2  0  0  0  0
  7  8  1  0  0  0  0
  7  9  1  0  0  0  0
  8 18  1  0  0  0  0
  9 19  1  0  0  0  0
 10 11  1  0  0  0  0
 10 18  1  0  0  0  0
 11 19  1  0  0  0  0
 12 21  1  0  0  0  0
 13 21  1  0  0  0  0
  1 22  1  0  0  0  0
  2 23  1  0  0  0  0
  7 24  1  0  0  0  0
  7 25  1  0  0  0  0
  8 26  1  0  0  0  0
  8 27  1  0  0  0  0
  9 28  1  0  0  0  0
  9 29  1  0  0  0  0
 10 30  1  0  0  0  0
 10 31  1  0  0  0  0
 11 32  1  0  0  0  0
 11 33  1  0  0  0  0
 12 34  1  0  0  0  0
 12 35  1  0  0  0  0
 12 36  1  0  0  0  0
 13 37  1  0  0  0  0
 13 38  1  0  0  0  0
 17 39  1  0  0  0  0
M  END
> <POSIT::Probability>
0.18

> <POSIT::Method>
HYBRID

> <ReceptorTitle>
UCSF-P4622-REFINED_LIGAND-BOUND-STATE_A__DU__LA1_A-201(A)

> <OMEGA_C>
l2UxwkJF6cGsYcVAmzs5wsgm88HE7x5AM2A5wgwN7sEVjZBAkgY0wqGF7sGtIoVAR4Y6wrze6sFe
OLpAvY9QwmxI6cG39PNA6K5Hwidw4cFVeKZAKtZCwsAy4MGkC8RAYHBLwrG36sGYw7BAFFhCwmLJ
88FjhNpA8GJHwoSi8cHMD/VAO65XwjY418Fy3AhBf+dPwkYe5sFoJRFBJMovwn8+7MFB251AiW82
wmty6MGH+dRAsZM8wv3z8MG0qV1AqgE0whDL8cEy2TZAEdE/wgws6sFbfMhARetLwpSd7MEyv95A
PwVVwvbE6MEaMuNA5FxWwoMt4sF1ChtBtTkuwvZG58Hor9tA4FI6wtG89cFklL4/pwBKwhTs2cHP
/KdAPk5Gwvb84cE88IRARTZAwkbc2cFGkbdAbitEwixi3cHmpONAQ3JPwqZL6cG5haNAOPFJwjjy
8cGL9qBAimk/wpg5+MFzYO5AklRDwuNo+cHAOcBAvLhIwgM9+cGtvgFBhF9GwuBg7ME8IghBPZJb
wjyq08EIeQxB9ZRUwtoc0cEiiQpBprNXwgsk2sEUwfBApRlNwnqB38FT8RFBEGlOwlIA7cFs3xlB
pr8wwgz+8sFMtxFA

> <OMEGA_E>
wH28wA==

> <OMEGA_NBR>
     30536

$$$$
CACHE3HI_1696_45
  -OEChem-03092622523D

 37 39  0     0  0  0  0  0  0999 V2000
  -44.9605  -29.1847    6.0143 C   0  0  0  0  0  0  0  0  0  0  0  0
  -48.0151  -29.9562    3.0119 C   0  0  0  0  0  0  0  0  0  0  0  0
  -47.3969  -29.4837    4.9965 C   0  0  0  0  0  0  0  0  0  0  0  0
  -46.2327  -29.6219    4.2582 C   0  0  0  0  0  0  0  0  0  0  0  0
  -47.2538  -29.1703    6.3447 C   0  0  0  0  0  0  0  0  0  0  0  0
  -51.6798  -29.6519    8.3426 C   0  0  0  0  0  0  0  0  0  0  0  0
  -52.7515  -28.3631   10.8956 C   0  0  0  0  0  0  0  0  0  0  0  0
  -54.2610  -28.3937    9.3855 C   0  0  0  0  0  0  0  0  0  0  0  0
  -53.4417  -29.4916   10.0987 C   0  0  0  0  0  0  0  0  0  0  0  0
  -54.0150  -27.4985   10.6312 C   0  0  0  0  0  0  0  0  0  0  0  0
  -53.7515  -26.0345   10.3376 C   0  0  0  0  0  0  0  0  0  0  0  0
  -50.8619  -30.6900    7.5880 C   0  0  0  0  0  0  0  0  0  0  0  0
  -49.8720  -30.1002    6.5893 C   0  0  0  0  0  0  0  0  0  0  0  0
  -44.9725  -29.4870    4.6976 N   0  0  0  0  0  0  0  0  0  0  0  0
  -46.0085  -29.0196    6.8566 N   0  0  0  0  0  0  0  0  0  0  0  0
  -48.5000  -29.6944    4.2083 N   0  0  0  0  0  0  0  0  0  0  0  0
  -46.6461  -29.9235    2.9916 N   0  0  0  0  0  0  0  0  0  0  0  0
  -52.5555  -30.2505    9.2296 N   0  0  0  0  0  0  0  0  0  0  0  0
  -51.5440  -28.4422    8.1815 O   0  0  0  0  0  0  0  0  0  0  0  0
  -54.9709  -27.5890   11.5884 F   0  0  0  0  0  0  0  0  0  0  0  0
  -48.6917  -28.9693    7.3883 S   0  0  0  0  0  0  0  0  0  0  0  0
  -43.9792  -29.0564    6.4585 H   0  0  0  0  0  0  0  0  0  0  0  0
  -48.5946  -30.1754    2.1264 H   0  0  0  0  0  0  0  0  0  0  0  0
  -52.5551  -28.5894   11.9475 H   0  0  0  0  0  0  0  0  0  0  0  0
  -51.8317  -27.9763   10.4405 H   0  0  0  0  0  0  0  0  0  0  0  0
  -53.8133  -28.0165    8.4581 H   0  0  0  0  0  0  0  0  0  0  0  0
  -55.3079  -28.6453    9.1935 H   0  0  0  0  0  0  0  0  0  0  0  0
  -54.0544  -30.1515   10.7244 H   0  0  0  0  0  0  0  0  0  0  0  0
  -54.6919  -25.5058   10.1652 H   0  0  0  0  0  0  0  0  0  0  0  0
  -53.1264  -25.9315    9.4477 H   0  0  0  0  0  0  0  0  0  0  0  0
  -53.2374  -25.5637   11.1798 H   0  0  0  0  0  0  0  0  0  0  0  0
  -50.2998  -31.2520    8.3443 H   0  0  0  0  0  0  0  0  0  0  0  0
  -51.5362  -31.4008    7.0947 H   0  0  0  0  0  0  0  0  0  0  0  0
  -49.3098  -30.8857    6.0740 H   0  0  0  0  0  0  0  0  0  0  0  0
  -50.4164  -29.5254    5.8324 H   0  0  0  0  0  0  0  0  0  0  0  0
  -46.0534  -30.0915    2.1897 H   0  0  0  0  0  0  0  0  0  0  0  0
  -52.6105  -31.2590    9.2832 H   0  0  0  0  0  0  0  0  0  0  0  0
  1 14  2  0  0  0  0
  1 15  1  0  0  0  0
  2 16  2  0  0  0  0
  2 17  1  0  0  0  0
  3  4  2  0  0  0  0
  3  5  1  0  0  0  0
  3 16  1  0  0  0  0
  4 14  1  0  0  0  0
  4 17  1  0  0  0  0
  5 15  2  0  0  0  0
  5 21  1  0  0  0  0
  6 12  1  0  0  0  0
  6 18  1  0  0  0  0
  6 19  2  0  0  0  0
  7  9  1  0  0  0  0
  7 10  1  0  0  0  0
  8  9  1  0  0  0  0
  8 10  1  0  0  0  0
  9 18  1  0  0  0  0
 10 11  1  0  0  0  0
 10 20  1  0  0  0  0
 12 13  1  0  0  0  0
 13 21  1  0  0  0  0
  1 22  1  0  0  0  0
  2 23  1  0  0  0  0
  7 24  1  0  0  0  0
  7 25  1  0  0  0  0
  8 26  1  0  0  0  0
  8 27  1  0  0  0  0
  9 28  1  0  0  0  0
 11 29  1  0  0  0  0
 11 30  1  0  0  0  0
 11 31  1  0  0  0  0
 12 32  1  0  0  0  0
 12 33  1  0  0  0  0
 13 34  1  0  0  0  0
 13 35  1  0  0  0  0
 17 36  1  0  0  0  0
 18 37  1  0  0  0  0
M  END
> <POSIT::Probability>
0.23

> <POSIT::Method>
HYBRID

> <ReceptorTitle>
UCSF-P4622-REFINED_LIGAND-BOUND-STATE_A__DU__LA1_A-201(A)

> <OMEGA_C>
hdczwj566cFKdcBAfA9AwlOm78FtwkBAdpY9wrLe68GO459AQe44wpX57MEIQ4hA6QM9wtpc6cGM
B8tAJbhOwiE37cFRewVBjAFTwrHn4sGQVC5BQwtZwlsm48EgKxZBRsRVwsfu68EglCFBZw9Ywvb8
28F8GSpBlAFXwp9G0MEAZyVBknJLwjaF9cEK0fJA9XxHwhzN8MF629JA0+Mzwmzl68H2UpZAqgg4
wiEo6MH6aNtA+v9BwiqO7cFHqoZAp5U6wk9j78GvdT9AyjhSwgAB8sGcrBNBCy1OwoqJ48FS5wJB
K+Jbwj223MEUajlBWsRCwh/B58EqbexAsOovwplz6MGiq85A1WBCwiNn8cGiFwhAajhSwiO35MHF
KD9BplNPwl/P38FyDCdBxUBXwrgh4MGGVAdBPztdwpQp5cGBGBNBrzdYwkE28cFGlytBfsRawuoL
zMGspCJBY4FUwrZzz8GoKRdBGfNUwmmCzMGB4DJB+DJJwhkE+sFVggVBGSVOwtA0+8EMCONAPz1F
wtEV98HkXcJAbKpJwh407MGgorpArzY4wnW78MHSIwxAJnFSwlsS+sHohxRB

> <OMEGA_E>
YFbUwA==

> <OMEGA_NBR>
     31771

$$$$
CACHE3HI_1696_5
  -OEChem-03092622523D

 34 36  0     0  0  0  0  0  0999 V2000
  -54.2198  -27.1164   10.2517 C   0  0  0  0  0  0  0  0  0  0  0  0
  -55.7455  -28.4765    9.0588 C   0  0  0  0  0  0  0  0  0  0  0  0
  -47.8172  -29.3682    3.3803 C   0  0  0  0  0  0  0  0  0  0  0  0
  -44.3441  -29.5237    6.2401 C   0  0  0  0  0  0  0  0  0  0  0  0
  -46.4857  -29.3405    5.7473 C   0  0  0  0  0  0  0  0  0  0  0  0
  -54.4374  -28.0625    9.1307 C   0  0  0  0  0  0  0  0  0  0  0  0
  -55.3612  -26.9286   11.0058 C   0  0  0  0  0  0  0  0  0  0  0  0
  -45.8049  -29.5097    4.5388 C   0  0  0  0  0  0  0  0  0  0  0  0
  -47.8897  -29.1788    5.7247 C   0  0  0  0  0  0  0  0  0  0  0  0
  -52.2038  -28.9052    8.3335 C   0  0  0  0  0  0  0  0  0  0  0  0
  -55.4913  -26.0165   12.2040 C   0  0  0  0  0  0  0  0  0  0  0  0
  -51.5255  -29.5724    7.0985 C   0  0  0  0  0  0  0  0  0  0  0  0
  -50.0845  -30.1210    7.2935 C   0  0  0  0  0  0  0  0  0  0  0  0
  -46.4679  -29.5195    3.3662 N   0  0  0  0  0  0  0  0  0  0  0  0
  -48.5312  -29.2020    4.5295 N   0  0  0  0  0  0  0  0  0  0  0  0
  -45.5394  -29.3516    6.7685 N   0  0  0  0  0  0  0  0  0  0  0  0
  -44.4697  -29.6225    4.8587 N   0  0  0  0  0  0  0  0  0  0  0  0
  -53.5333  -28.5091    8.1566 N   0  0  0  0  0  0  0  0  0  0  0  0
  -51.6750  -28.9147    9.4414 O   0  0  0  0  0  0  0  0  0  0  0  0
  -56.6947  -27.8576   10.3783 S   0  0  0  0  0  0  0  0  0  0  0  0
  -48.7887  -28.7950    7.2152 S   0  0  0  0  0  0  0  0  0  0  0  0
  -53.2771  -26.6301   10.4548 H   0  0  0  0  0  0  0  0  0  0  0  0
  -56.1373  -29.1101    8.2768 H   0  0  0  0  0  0  0  0  0  0  0  0
  -48.3479  -29.3800    2.4398 H   0  0  0  0  0  0  0  0  0  0  0  0
  -43.4169  -29.5790    6.7912 H   0  0  0  0  0  0  0  0  0  0  0  0
  -56.5244  -26.0497   12.5802 H   0  0  0  0  0  0  0  0  0  0  0  0
  -54.8025  -26.3493   12.9944 H   0  0  0  0  0  0  0  0  0  0  0  0
  -55.2413  -24.9866   11.9095 H   0  0  0  0  0  0  0  0  0  0  0  0
  -52.1610  -30.4138    6.7854 H   0  0  0  0  0  0  0  0  0  0  0  0
  -51.4886  -28.8220    6.2950 H   0  0  0  0  0  0  0  0  0  0  0  0
  -50.0258  -30.6112    8.2765 H   0  0  0  0  0  0  0  0  0  0  0  0
  -49.8800  -30.8584    6.5032 H   0  0  0  0  0  0  0  0  0  0  0  0
  -43.7202  -29.7530    4.2096 H   0  0  0  0  0  0  0  0  0  0  0  0
  -53.8820  -28.5493    7.2202 H   0  0  0  0  0  0  0  0  0  0  0  0
  1  6  1  0  0  0  0
  1  7  2  0  0  0  0
  2  6  2  0  0  0  0
  2 20  1  0  0  0  0
  3 14  2  0  0  0  0
  3 15  1  0  0  0  0
  4 16  2  0  0  0  0
  4 17  1  0  0  0  0
  5  8  2  0  0  0  0
  5  9  1  0  0  0  0
  5 16  1  0  0  0  0
  6 18  1  0  0  0  0
  7 11  1  0  0  0  0
  7 20  1  0  0  0  0
  8 14  1  0  0  0  0
  8 17  1  0  0  0  0
  9 15  2  0  0  0  0
  9 21  1  0  0  0  0
 10 12  1  0  0  0  0
 10 18  1  0  0  0  0
 10 19  2  0  0  0  0
 12 13  1  0  0  0  0
 13 21  1  0  0  0  0
  1 22  1  0  0  0  0
  2 23  1  0  0  0  0
  3 24  1  0  0  0  0
  4 25  1  0  0  0  0
 11 26  1  0  0  0  0
 11 27  1  0  0  0  0
 11 28  1  0  0  0  0
 12 29  1  0  0  0  0
 12 30  1  0  0  0  0
 13 31  1  0  0  0  0
 13 32  1  0  0  0  0
 17 33  1  0  0  0  0
 18 34  1  0  0  0  0
M  END
> <POSIT::Probability>
0.79

> <POSIT::Method>
SHAPEFIT

> <ReceptorTitle>
UCSF-P4622-REFINED_LIGAND-BOUND-STATE_A__DU__LA1_A-201(A)

> <OMEGA_C>
EuFYwknu2MHNBiRBbftewuzP48G78BBBzkQ/whDy6sErV1hAYGAxwoIw7MFOr8dAYfE5wlK56sEB
6rdA679ZwgqA4MFDFxJB33FdwrJt18HXFzBBLTg3wsYT7MF2PZFAC48/wjRu6cGzMLdAt9BQwuk9
58EcVgVBFPddwtMh0MGIQ0NBExpOwjCU7MGlJuNAgFZIwuj38MEUZOlAK985wvQn7MFpcFdA9R9C
wqyd6cGt8ZBAUig2whfQ6sFnl9hA7eAxwu767MFNeptAJSJWwpsS5MGIgQJBKLNOwlFR58EKEBdB
V8diwl/c3sGvDSZBnSdDwhpc5sGm4uZAvRtVwngK1cHyRidBpYxgwo3h6MHtbQRBS2RBwlQK68HP
JRxA66otwsmh7MFSUdlA/Rhiwr5l0MGySElBuDVbwk3L0sEs6U9BIvdcwn3kx8FCjT5B6aRQwn1P
88FPItlASPRNwnWT5sFscMlAaxpIwszj9MFjbARBF4VHwhDe9sGZGtBAdeEuwiEG7sFXtYZAMYdX
wvNk5ME9DOdA

> <OMEGA_E>
aooZPw==

> <OMEGA_NBR>
     32968

$$$$
CACHE3HI_1696_51
  -OEChem-03092622523D

 39 41  0     1  0  0  0  0  0999 V2000
  -44.4993  -29.3484    6.0969 C   0  0  0  0  0  0  0  0  0  0  0  0
  -46.5968  -29.7882    2.3090 C   0  0  0  0  0  0  0  0  0  0  0  0
  -46.5555  -29.4911    4.4195 C   0  0  0  0  0  0  0  0  0  0  0  0
  -45.2322  -29.6076    4.0258 C   0  0  0  0  0  0  0  0  0  0  0  0
  -46.7932  -29.2882    5.7755 C   0  0  0  0  0  0  0  0  0  0  0  0
  -50.1438  -30.2064    7.0101 C   0  0  0  0  0  0  0  0  0  0  0  0
  -54.2516  -29.0451    9.6740 C   0  0  0  0  0  0  0  0  0  0  0  0
  -52.1964  -28.8476   10.5830 C   0  0  0  0  0  0  0  0  0  0  0  0
  -52.8077  -28.7616    9.1472 C   0  0  0  0  0  0  0  0  0  0  0  0
  -52.6436  -27.3898    8.4785 C   0  0  0  0  0  0  0  0  0  0  0  0
  -48.9544  -28.0687    5.7637 C   0  0  0  0  0  0  0  0  0  0  0  0
  -48.6504  -30.0771    7.2203 C   0  0  0  0  0  0  0  0  0  0  0  0
  -52.2930  -29.8681    8.2236 C   0  0  0  0  0  0  0  0  0  0  0  0
  -44.1445  -29.5468    4.8085 N   0  0  0  0  0  0  0  0  0  0  0  0
  -45.7399  -29.2167    6.6247 N   0  0  0  0  0  0  0  0  0  0  0  0
  -47.3952  -29.6053    3.3406 N   0  0  0  0  0  0  0  0  0  0  0  0
  -45.2767  -29.7967    2.6736 N   0  0  0  0  0  0  0  0  0  0  0  0
  -50.8440  -29.8074    8.1346 N   0  0  0  0  0  0  0  0  0  0  0  0
  -48.1064  -29.1589    6.2642 N   0  0  3  0  0  0  0  0  0  0  0  0
  -50.6436  -30.6480    5.9784 O   0  0  0  0  0  0  0  0  0  0  0  0
  -53.8032  -28.4121   11.3221 S   0  0  0  0  0  0  0  0  0  0  0  0
  -43.6806  -29.2869    6.8058 H   0  0  0  0  0  0  0  0  0  0  0  0
  -46.9070  -29.9193    1.2822 H   0  0  0  0  0  0  0  0  0  0  0  0
  -55.0482  -28.4927    9.1658 H   0  0  0  0  0  0  0  0  0  0  0  0
  -54.5355  -30.1036    9.6927 H   0  0  0  0  0  0  0  0  0  0  0  0
  -51.8540  -29.8459   10.8787 H   0  0  0  0  0  0  0  0  0  0  0  0
  -51.3859  -28.1406   10.7861 H   0  0  0  0  0  0  0  0  0  0  0  0
  -51.6177  -27.2719    8.1422 H   0  0  0  0  0  0  0  0  0  0  0  0
  -52.8830  -26.6082    9.1935 H   0  0  0  0  0  0  0  0  0  0  0  0
  -53.3148  -27.3197    7.6266 H   0  0  0  0  0  0  0  0  0  0  0  0
  -49.9407  -28.1010    6.2356 H   0  0  0  0  0  0  0  0  0  0  0  0
  -48.4931  -27.1012    5.9806 H   0  0  0  0  0  0  0  0  0  0  0  0
  -49.0804  -28.1550    4.6809 H   0  0  0  0  0  0  0  0  0  0  0  0
  -48.4318  -29.6937    8.2210 H   0  0  0  0  0  0  0  0  0  0  0  0
  -48.1721  -31.0502    7.0813 H   0  0  0  0  0  0  0  0  0  0  0  0
  -52.5990  -30.8369    8.6212 H   0  0  0  0  0  0  0  0  0  0  0  0
  -52.7360  -29.7467    7.2339 H   0  0  0  0  0  0  0  0  0  0  0  0
  -44.4846  -29.9203    2.0573 H   0  0  0  0  0  0  0  0  0  0  0  0
  -50.3242  -29.4580    8.9300 H   0  0  0  0  0  0  0  0  0  0  0  0
  1 14  2  0  0  0  0
  1 15  1  0  0  0  0
  2 16  2  0  0  0  0
  2 17  1  0  0  0  0
  3  4  2  0  0  0  0
  3  5  1  0  0  0  0
  3 16  1  0  0  0  0
  4 14  1  0  0  0  0
  4 17  1  0  0  0  0
  5 15  2  0  0  0  0
  5 19  1  0  0  0  0
  6 12  1  0  0  0  0
  6 18  1  0  0  0  0
  6 20  2  0  0  0  0
  7  9  1  0  0  0  0
  7 21  1  0  0  0  0
  8  9  1  0  0  0  0
  8 21  1  0  0  0  0
  9 10  1  0  0  0  0
  9 13  1  0  0  0  0
 11 19  1  0  0  0  0
 12 19  1  0  0  0  0
 13 18  1  0  0  0  0
  1 22  1  0  0  0  0
  2 23  1  0  0  0  0
  7 24  1  0  0  0  0
  7 25  1  0  0  0  0
  8 26  1  0  0  0  0
  8 27  1  0  0  0  0
 10 28  1  0  0  0  0
 10 29  1  0  0  0  0
 10 30  1  0  0  0  0
 11 31  1  0  0  0  0
 11 32  1  0  0  0  0
 11 33  1  0  0  0  0
 12 34  1  0  0  0  0
 12 35  1  0  0  0  0
 13 36  1  0  0  0  0
 13 37  1  0  0  0  0
 17 38  1  0  0  0  0
 18 39  1  0  0  0  0
M  END
> <POSIT::Probability>
0.18

> <POSIT::Method>
HYBRID

> <ReceptorTitle>
UCSF-P4622-REFINED_LIGAND-BOUND-STATE_A__DU__LA1_A-201(A)

> <OMEGA_C>
T/8xwn7J6sHwGcNAFGM6wihO7sHcxhNAzDg6wtbt68HgbI1Auu00wmvc7MGe04BAPCw7wlRO6sGO
0LhASZNIwqam8cFuUuBArAFZwnNc6MG+yBpBGslQwtjH5sECVClBHztTwsIX5sHFWhJBCZNSwkUe
28ETqAdBVtFDwsOM4MFKcLhABppCwtCd8MGqDOdABixRwvHx7sHMkwNB8JMwwtFf7MF+35lArPU2
wuG76cFU/dNAsZQ9wqTX7MGay1VAVBs1wqBf7sEuHCtAOGBLwod17sFiJwJB+WxAwoVF6cH4c8hA
EJNKwjEv9cEmT79AgjZXwulL48EwJzVB9rguwoFL6sEwydlAwqA7wsta78HkHaQ/TzFcwgnx48EU
pxJBUiRawkPU8MFrFRtBgWpPwmTE7sEADy5BJYtNwgkg4cHhkyxBhnhOwvIs2sF6RgJBM4hTwoDd
1MHDGBNBX0JVwq2O2sFXDfRAQMNHwujO4MEzisdA9/hBwjHP2MFhYb9AWFJEwmU94cH4yZVAMLpB
wpmM7cFQiQNBMbBAwtlm+MEEmuJAW2VSwgyy9sGI8AlBqvFSwkr57cFmfOdAQvAxwtdc78ESqwNA
+EtJwuip68FC4Q5B

> <OMEGA_E>
XMPiwA==

> <OMEGA_NBR>
     34246

$$$$
CACHE3HI_1696_55
  -OEChem-03092622523D

 37 39  0     1  0  0  0  0  0999 V2000
  -55.7551  -26.9962   10.7969 C   0  0  0  0  0  0  0  0  0  0  0  0
  -54.3584  -26.8311   10.8740 C   0  0  0  0  0  0  0  0  0  0  0  0
  -56.3157  -27.7849    9.7720 C   0  0  0  0  0  0  0  0  0  0  0  0
  -53.5197  -27.4992    9.9604 C   0  0  0  0  0  0  0  0  0  0  0  0
  -55.4808  -28.4192    8.8317 C   0  0  0  0  0  0  0  0  0  0  0  0
  -47.8262  -29.3616    3.3934 C   0  0  0  0  0  0  0  0  0  0  0  0
  -44.3264  -29.5083    6.2168 C   0  0  0  0  0  0  0  0  0  0  0  0
  -46.4696  -29.3394    5.7449 C   0  0  0  0  0  0  0  0  0  0  0  0
  -54.0813  -28.3096    8.9444 C   0  0  0  0  0  0  0  0  0  0  0  0
  -45.8065  -29.5272    4.5320 C   0  0  0  0  0  0  0  0  0  0  0  0
  -47.8662  -29.1626    5.7344 C   0  0  0  0  0  0  0  0  0  0  0  0
  -51.1962  -29.5085    6.0585 C   0  0  0  0  0  0  0  0  0  0  0  0
  -50.9157  -29.4953    8.6190 C   0  0  0  0  0  0  0  0  0  0  0  0
  -52.3782  -29.9707    8.7366 C   0  0  0  0  0  0  0  0  0  0  0  0
  -50.2418  -29.7987    7.2502 C   0  0  2  0  0  0  0  0  0  0  0  0
  -46.4834  -29.5452    3.3671 N   0  0  0  0  0  0  0  0  0  0  0  0
  -48.5135  -29.1543    4.5463 N   0  0  0  0  0  0  0  0  0  0  0  0
  -45.5148  -29.3319    6.7567 N   0  0  0  0  0  0  0  0  0  0  0  0
  -44.4692  -29.6325    4.8386 N   0  0  0  0  0  0  0  0  0  0  0  0
  -53.2916  -29.0401    8.0857 O   0  0  0  0  0  0  0  0  0  0  0  0
  -48.7063  -28.7352    7.2289 S   0  0  0  0  0  0  0  0  0  0  0  0
  -56.3964  -26.5185   11.5228 H   0  0  0  0  0  0  0  0  0  0  0  0
  -53.9307  -26.1929   11.6331 H   0  0  0  0  0  0  0  0  0  0  0  0
  -57.3873  -27.9031    9.7077 H   0  0  0  0  0  0  0  0  0  0  0  0
  -52.4475  -27.3931   10.0351 H   0  0  0  0  0  0  0  0  0  0  0  0
  -55.9141  -28.9900    8.0237 H   0  0  0  0  0  0  0  0  0  0  0  0
  -48.3709  -29.3810    2.4609 H   0  0  0  0  0  0  0  0  0  0  0  0
  -43.3920  -29.5497    6.7568 H   0  0  0  0  0  0  0  0  0  0  0  0
  -50.6824  -29.7355    5.1128 H   0  0  0  0  0  0  0  0  0  0  0  0
  -52.0949  -30.1366    6.1473 H   0  0  0  0  0  0  0  0  0  0  0  0
  -51.4874  -28.4478    6.0721 H   0  0  0  0  0  0  0  0  0  0  0  0
  -50.8955  -28.4069    8.7772 H   0  0  0  0  0  0  0  0  0  0  0  0
  -50.3298  -29.9913    9.4069 H   0  0  0  0  0  0  0  0  0  0  0  0
  -52.4734  -30.9580    8.2609 H   0  0  0  0  0  0  0  0  0  0  0  0
  -52.6450  -30.0492    9.8009 H   0  0  0  0  0  0  0  0  0  0  0  0
  -49.9021  -30.8444    7.2183 H   0  0  0  0  0  0  0  0  0  0  0  0
  -43.7273  -29.7741    4.1832 H   0  0  0  0  0  0  0  0  0  0  0  0
  1  2  1  0  0  0  0
  1  3  2  0  0  0  0
  2  4  2  0  0  0  0
  3  5  1  0  0  0  0
  4  9  1  0  0  0  0
  5  9  2  0  0  0  0
  6 16  2  0  0  0  0
  6 17  1  0  0  0  0
  7 18  2  0  0  0  0
  7 19  1  0  0  0  0
  8 10  2  0  0  0  0
  8 11  1  0  0  0  0
  8 18  1  0  0  0  0
  9 20  1  0  0  0  0
 10 16  1  0  0  0  0
 10 19  1  0  0  0  0
 11 17  2  0  0  0  0
 11 21  1  0  0  0  0
 12 15  1  0  0  0  0
 13 14  1  0  0  0  0
 13 15  1  0  0  0  0
 14 20  1  0  0  0  0
 15 21  1  0  0  0  0
  1 22  1  0  0  0  0
  2 23  1  0  0  0  0
  3 24  1  0  0  0  0
  4 25  1  0  0  0  0
  5 26  1  0  0  0  0
  6 27  1  0  0  0  0
  7 28  1  0  0  0  0
 12 29  1  0  0  0  0
 12 30  1  0  0  0  0
 12 31  1  0  0  0  0
 13 32  1  0  0  0  0
 13 33  1  0  0  0  0
 14 34  1  0  0  0  0
 14 35  1  0  0  0  0
 15 36  1  0  0  0  0
 19 37  1  0  0  0  0
M  END
> <POSIT::Probability>
0.85

> <POSIT::Method>
SHAPEFIT

> <ReceptorTitle>
UCSF-P4622-REFINED_LIGAND-BOUND-STATE_A__DU__LA1_A-201(A)

> <OMEGA_C>
PgVfwij418H2vyxB925ZwiOm1sEA/C1BTkNhwoBH3sEcWhxBLhRWwln+28HWXR9BYuxdwopa48Gw
Tg1BCk4/wpDk6sG+LFlAQE4xwusQ7MER8MZA6+A5wgS36sFU1rdANVNYwhV64sFqHA9B5Tk3wrM3
7MEsBpFA+HY/wupM6cEFgLdA88hMwl4R7MGG38FAtalLwl3268GM5wlBTYNRwgXE78E0yQtBm/dI
wrtj7sF5AehA+u45woBc7MGQfldA2A1CwvY76cHxepFAHw82wtGn6sH9NthAbeAxwnUP7cGI1ZpA
lipVwh5S6MEEXwFBO9NCwr3h5cE5U+dA4JVhwtQl1MF6XThBE7lXwvaK0cELITpBnYxlwnU538Gh
UhtBRcpRwgcl28GVjyBBEqhfwonr58EoYQBBwXtBwkAM68EggB1AdZEtwrhl7MEVONhAvbpKwjji
7cETnKNALWFQwsEX8cHMtsRAJPNNwh6V48FjTsJA8ZRLwlxB48FjbwxBtFFJwiTu78F9ghZBw+RR
wuqp98HSLARBd5RSwtlk8MF10BxBvJtHwmrB9sG1/OZAvOguwm8x7sFu3IVA

> <OMEGA_E>
OPQoPw==

> <OMEGA_NBR>
     35508

$$$$
CACHE3HI_1697_35
  -OEChem-03092622523D

 42 45  0     0  0  0  0  0  0999 V2000
  -48.1168  -29.7744    2.3996 C   0  0  0  0  0  0  0  0  0  0  0  0
  -46.9590  -29.2697    2.9903 C   0  0  0  0  0  0  0  0  0  0  0  0
  -54.5846  -27.9920   11.6599 C   0  0  0  0  0  0  0  0  0  0  0  0
  -53.8725  -26.1690   10.2431 C   0  0  0  0  0  0  0  0  0  0  0  0
  -49.2138  -30.1229    3.1887 C   0  0  0  0  0  0  0  0  0  0  0  0
  -46.8909  -29.1100    4.3750 C   0  0  0  0  0  0  0  0  0  0  0  0
  -54.2233  -28.9034   10.6677 C   0  0  0  0  0  0  0  0  0  0  0  0
  -53.5112  -27.0804    9.2509 C   0  0  0  0  0  0  0  0  0  0  0  0
  -54.2172  -25.6984   13.7275 C   0  0  0  0  0  0  0  0  0  0  0  0
  -54.4090  -26.6247   11.4475 C   0  0  0  0  0  0  0  0  0  0  0  0
  -49.1580  -29.9674    4.5778 C   0  0  0  0  0  0  0  0  0  0  0  0
  -47.9895  -29.4589    5.1652 C   0  0  0  0  0  0  0  0  0  0  0  0
  -53.6868  -28.4477    9.4633 C   0  0  0  0  0  0  0  0  0  0  0  0
  -54.7804  -25.6862   12.4687 C   0  0  0  0  0  0  0  0  0  0  0  0
  -55.8764  -23.9972   13.3369 C   0  0  0  0  0  0  0  0  0  0  0  0
  -50.2991  -30.3263    5.4203 C   0  0  0  0  0  0  0  0  0  0  0  0
  -47.9334  -29.2949    6.6401 C   0  0  0  0  0  0  0  0  0  0  0  0
  -50.2189  -30.1668    6.7502 C   0  0  0  0  0  0  0  0  0  0  0  0
  -53.3034  -29.4180    8.4078 C   0  0  0  0  0  0  0  0  0  0  0  0
  -51.3410  -30.5103    7.6793 C   0  0  0  0  0  0  0  0  0  0  0  0
  -55.7322  -24.7112   12.2429 N   0  0  0  0  0  0  0  0  0  0  0  0
  -49.0746  -29.6688    7.3355 N   0  0  0  0  0  0  0  0  0  0  0  0
  -56.7376  -22.9524   13.4611 N   0  0  0  0  0  0  0  0  0  0  0  0
  -46.9261  -28.8533    7.1841 O   0  0  0  0  0  0  0  0  0  0  0  0
  -54.0945  -30.1898    7.8876 O   0  0  0  0  0  0  0  0  0  0  0  0
  -51.9741  -29.3218    8.1147 O   0  0  0  0  0  0  0  0  0  0  0  0
  -54.8983  -24.4417   14.6745 S   0  0  0  0  0  0  0  0  0  0  0  0
  -48.1652  -29.8968    1.3213 H   0  0  0  0  0  0  0  0  0  0  0  0
  -46.1081  -29.0001    2.3713 H   0  0  0  0  0  0  0  0  0  0  0  0
  -55.0020  -28.3632   12.5930 H   0  0  0  0  0  0  0  0  0  0  0  0
  -53.7291  -25.1060   10.0624 H   0  0  0  0  0  0  0  0  0  0  0  0
  -50.1069  -30.5146    2.7076 H   0  0  0  0  0  0  0  0  0  0  0  0
  -45.9797  -28.7152    4.8153 H   0  0  0  0  0  0  0  0  0  0  0  0
  -54.3653  -29.9669   10.8429 H   0  0  0  0  0  0  0  0  0  0  0  0
  -53.0932  -26.7146    8.3166 H   0  0  0  0  0  0  0  0  0  0  0  0
  -53.4626  -26.3591   14.1321 H   0  0  0  0  0  0  0  0  0  0  0  0
  -51.1930  -30.7171    4.9462 H   0  0  0  0  0  0  0  0  0  0  0  0
  -50.9629  -31.0591    8.5420 H   0  0  0  0  0  0  0  0  0  0  0  0
  -52.0712  -31.1305    7.1594 H   0  0  0  0  0  0  0  0  0  0  0  0
  -49.0661  -29.5685    8.3467 H   0  0  0  0  0  0  0  0  0  0  0  0
  -57.3004  -22.6222   12.6700 H   0  0  0  0  0  0  0  0  0  0  0  0
  -56.7801  -22.3888   14.3168 H   0  0  0  0  0  0  0  0  0  0  0  0
  1  2  1  0  0  0  0
  1  5  2  0  0  0  0
  2  6  2  0  0  0  0
  3  7  2  0  0  0  0
  3 10  1  0  0  0  0
  4  8  1  0  0  0  0
  4 10  2  0  0  0  0
  5 11  1  0  0  0  0
  6 12  1  0  0  0  0
  7 13  1  0  0  0  0
  8 13  2  0  0  0  0
  9 14  2  0  0  0  0
  9 27  1  0  0  0  0
 10 14  1  0  0  0  0
 11 12  2  0  0  0  0
 11 16  1  0  0  0  0
 12 17  1  0  0  0  0
 13 19  1  0  0  0  0
 14 21  1  0  0  0  0
 15 21  2  0  0  0  0
 15 23  1  0  0  0  0
 15 27  1  0  0  0  0
 16 18  2  0  0  0  0
 17 22  1  0  0  0  0
 17 24  2  0  0  0  0
 18 20  1  0  0  0  0
 18 22  1  0  0  0  0
 19 25  2  0  0  0  0
 19 26  1  0  0  0  0
 20 26  1  0  0  0  0
  1 28  1  0  0  0  0
  2 29  1  0  0  0  0
  3 30  1  0  0  0  0
  4 31  1  0  0  0  0
  5 32  1  0  0  0  0
  6 33  1  0  0  0  0
  7 34  1  0  0  0  0
  8 35  1  0  0  0  0
  9 36  1  0  0  0  0
 16 37  1  0  0  0  0
 20 38  1  0  0  0  0
 20 39  1  0  0  0  0
 22 40  1  0  0  0  0
 23 41  1  0  0  0  0
 23 42  1  0  0  0  0
M  END
> <POSIT::Probability>
0.24

> <POSIT::Method>
FRED

> <ReceptorTitle>
UCSF-P4622-REFINED_LIGAND-BOUND-STATE_A__DU__LA1_A-201(A)

> <OMEGA_C>
n3dAwucx7sEokxlAENY7wlYo6sE4YT9ArVZawonv38HAjjpBdX1Xwhxa0cGn4yNB79pEwrj78MF4
E0xAQpA7wlzh6ME+AIxArORYwiY658HAripBdQtWwpqk2MG4AxRBZN5YwmSWzcHco1tB3KJZwlH/
1MHDKDdByqFEwjC978GCfZJANvU/wuer68EeSaVARb9WwvGU48GlaRdBHR9bwlx9zcHIf0dBdYFf
wjb6v8EgZFVBVDJJwkec8sHWcq1Aw7s/wvFb6sHAe9RAJOBIwrFV8cHMAdhArzZVwgZY68EqhgZB
NF1NwgQV9MEyvfVAuu1ewoCwxcH84kNBZkxEwspZ7cEIvOpATvNiwnqet8HCYFdBSrQ7wqTT5sHc
4+VAuGBYwqyE8cHWZvxAd+VPwgST6sH61QFB3pdbwoyIw8HcympBIqlAwqcs78EAIak/sm44wjAA
6MHIwxdAAgJcwubn4sEYfUlBoupWwivZyMGE/yBBdW1IwtAd9MFcSS1AMOs3wra45cGQFppAHnZZ
why878GYfC1BeF9UwnS31cGcEAVBvtlVwnjf0sEEHWJBq8VMwpC89cFgR55A/tlLwhx5+MH6qwhB
80hQwi4L+cHsGeVAsUNEwleM7MHxiwVBljNlwl76tMFbuEpByB5jwiwcs8F0EWVB

> <OMEGA_E>
4pUewQ==

> <OMEGA_NBR>
     36842

$$$$
CACHE3HI_1697_55
  -OEChem-03092622523D

 53 57  0     0  0  0  0  0  0999 V2000
  -41.1733  -30.4646    3.0648 C   0  0  0  0  0  0  0  0  0  0  0  0
  -41.2255  -30.7549    1.7014 C   0  0  0  0  0  0  0  0  0  0  0  0
  -42.3111  -29.9964    3.7216 C   0  0  0  0  0  0  0  0  0  0  0  0
  -42.4153  -30.5774    0.9952 C   0  0  0  0  0  0  0  0  0  0  0  0
  -43.5010  -29.8189    3.0153 C   0  0  0  0  0  0  0  0  0  0  0  0
  -44.1022  -35.0551   -0.2134 C   0  0  0  0  0  0  0  0  0  0  0  0
  -49.4812  -29.1966    2.3484 C   0  0  0  0  0  0  0  0  0  0  0  0
  -48.1169  -29.5441    4.0370 C   0  0  0  0  0  0  0  0  0  0  0  0
  -44.5419  -35.8949   -1.2170 C   0  0  0  0  0  0  0  0  0  0  0  0
  -50.2187  -30.4388    7.9734 C   0  0  0  0  0  0  0  0  0  0  0  0
  -48.1179  -29.2497    2.6953 C   0  0  0  0  0  0  0  0  0  0  0  0
  -43.5532  -30.1092    1.6521 C   0  0  0  0  0  0  0  0  0  0  0  0
  -45.1253  -34.1623    0.1863 C   0  0  0  0  0  0  0  0  0  0  0  0
  -46.2954  -34.3398   -0.5071 C   0  0  0  0  0  0  0  0  0  0  0  0
  -51.3867  -30.3020    7.2531 C   0  0  0  0  0  0  0  0  0  0  0  0
  -49.9554  -29.9239    5.6356 C   0  0  0  0  0  0  0  0  0  0  0  0
  -47.4936  -33.5550   -0.2904 C   0  0  0  0  0  0  0  0  0  0  0  0
  -46.2088  -32.4652    1.3345 C   0  0  0  0  0  0  0  0  0  0  0  0
  -46.9287  -29.0436    1.8537 C   0  0  0  0  0  0  0  0  0  0  0  0
  -53.3293  -29.1219    8.3106 C   0  0  0  0  0  0  0  0  0  0  0  0
  -44.8344  -29.9179    0.8921 C   0  0  0  0  0  0  0  0  0  0  0  0
  -52.7536  -30.4440    7.7923 C   0  0  0  0  0  0  0  0  0  0  0  0
  -46.1295  -31.3903    2.3937 C   0  0  0  0  0  0  0  0  0  0  0  0
  -50.2873  -29.4382    3.3856 N   0  0  0  0  0  0  0  0  0  0  0  0
  -51.2377  -30.0068    5.9121 N   0  0  0  0  0  0  0  0  0  0  0  0
  -47.3455  -32.5910    0.7009 N   0  0  0  0  0  0  0  0  0  0  0  0
  -49.4283  -29.6458    4.3980 N   0  0  0  0  0  0  0  0  0  0  0  0
  -45.0529  -33.2074    1.1360 N   0  0  0  0  0  0  0  0  0  0  0  0
  -46.0142  -30.1184    1.7442 N   0  0  0  0  0  0  0  0  0  0  0  0
  -48.5390  -33.7139   -0.9117 O   0  0  0  0  0  0  0  0  0  0  0  0
  -46.8351  -27.9479    1.3025 O   0  0  0  0  0  0  0  0  0  0  0  0
  -46.1772  -35.5876   -1.6534 S   0  0  0  0  0  0  0  0  0  0  0  0
  -48.8732  -30.1913    6.9396 S   0  0  0  0  0  0  0  0  0  0  0  0
  -40.2470  -30.6027    3.6146 H   0  0  0  0  0  0  0  0  0  0  0  0
  -40.3397  -31.1199    1.1899 H   0  0  0  0  0  0  0  0  0  0  0  0
  -42.2706  -29.7700    4.7830 H   0  0  0  0  0  0  0  0  0  0  0  0
  -42.4464  -30.8062   -0.0669 H   0  0  0  0  0  0  0  0  0  0  0  0
  -44.3826  -29.4546    3.5361 H   0  0  0  0  0  0  0  0  0  0  0  0
  -43.1020  -35.0918    0.1989 H   0  0  0  0  0  0  0  0  0  0  0  0
  -49.9233  -28.9919    1.3835 H   0  0  0  0  0  0  0  0  0  0  0  0
  -47.3115  -29.6858    4.7459 H   0  0  0  0  0  0  0  0  0  0  0  0
  -43.9848  -36.6748   -1.7168 H   0  0  0  0  0  0  0  0  0  0  0  0
  -50.0920  -30.6656    9.0226 H   0  0  0  0  0  0  0  0  0  0  0  0
  -53.3191  -28.3589    7.5247 H   0  0  0  0  0  0  0  0  0  0  0  0
  -52.7386  -28.7450    9.1522 H   0  0  0  0  0  0  0  0  0  0  0  0
  -54.3624  -29.2455    8.6499 H   0  0  0  0  0  0  0  0  0  0  0  0
  -44.8877  -28.9072    0.4739 H   0  0  0  0  0  0  0  0  0  0  0  0
  -44.9030  -30.6203    0.0549 H   0  0  0  0  0  0  0  0  0  0  0  0
  -52.7829  -31.1836    8.6154 H   0  0  0  0  0  0  0  0  0  0  0  0
  -53.4438  -30.8500    7.0273 H   0  0  0  0  0  0  0  0  0  0  0  0
  -47.0288  -31.4374    3.0000 H   0  0  0  0  0  0  0  0  0  0  0  0
  -45.2622  -31.5773    3.0189 H   0  0  0  0  0  0  0  0  0  0  0  0
  -44.2176  -33.0243    1.6840 H   0  0  0  0  0  0  0  0  0  0  0  0
  1  2  1  0  0  0  0
  1  3  2  0  0  0  0
  2  4  2  0  0  0  0
  3  5  1  0  0  0  0
  4 12  1  0  0  0  0
  5 12  2  0  0  0  0
  6  9  2  0  0  0  0
  6 13  1  0  0  0  0
  7 11  1  0  0  0  0
  7 24  2  0  0  0  0
  8 11  2  0  0  0  0
  8 27  1  0  0  0  0
  9 32  1  0  0  0  0
 10 15  2  0  0  0  0
 10 33  1  0  0  0  0
 11 19  1  0  0  0  0
 12 21  1  0  0  0  0
 13 14  2  0  0  0  0
 13 28  1  0  0  0  0
 14 17  1  0  0  0  0
 14 32  1  0  0  0  0
 15 22  1  0  0  0  0
 15 25  1  0  0  0  0
 16 25  2  0  0  0  0
 16 27  1  0  0  0  0
 16 33  1  0  0  0  0
 17 26  1  0  0  0  0
 17 30  2  0  0  0  0
 18 23  1  0  0  0  0
 18 26  2  0  0  0  0
 18 28  1  0  0  0  0
 19 29  1  0  0  0  0
 19 31  2  0  0  0  0
 20 22  1  0  0  0  0
 21 29  1  0  0  0  0
 23 29  1  0  0  0  0
 24 27  1  0  0  0  0
  1 34  1  0  0  0  0
  2 35  1  0  0  0  0
  3 36  1  0  0  0  0
  4 37  1  0  0  0  0
  5 38  1  0  0  0  0
  6 39  1  0  0  0  0
  7 40  1  0  0  0  0
  8 41  1  0  0  0  0
  9 42  1  0  0  0  0
 10 43  1  0  0  0  0
 20 44  1  0  0  0  0
 20 45  1  0  0  0  0
 20 46  1  0  0  0  0
 21 47  1  0  0  0  0
 21 48  1  0  0  0  0
 22 49  1  0  0  0  0
 22 50  1  0  0  0  0
 23 51  1  0  0  0  0
 23 52  1  0  0  0  0
 28 53  1  0  0  0  0
M  END
> <POSIT::Probability>
0.02

> <POSIT::Method>
FRED

> <ReceptorTitle>
UCSF-P4622-REFINED_LIGAND-BOUND-STATE_A__DU__LA1_A-201(A)

> <OMEGA_C>
a7Ekwm2388ENJURA7eYkwhMK9sGCyNk/nD4pwo3478EIL25ATqkpwo6e9MG4wn4/+wAuwgaN7sF0
+0BAoGgwwmo4DMLQhFq+xexFwqGS6cH2SxZAvndAwmla7MFEL4FA6yoywmyUD8JkxZu/699IwpWC
88ExJv9AsHhAwkr/6cEJfyxAhTYuwqLf8MHddtM/Q4A0wj2mCMKgwz4+cS45wu1bCcIE1AG/BoxN
woFq8sFnGehAYdJHwjlk78F8VrRAcPk9wlQ4BsIotZS+xNU4wlrcAcJm0Ko/Crc7wkNZ6MHkRu0/
O1FVwqL56ME2+ARBYFYzwt5X78FwXmQ/ugNTwmON88E1WvlAlIQ4wlYf+8GQMRlAJSZJwmCB68GT
rVhAZ/NMwtkN8MFUML1AyGE9wi1dAsKgbDM/iLZFwp0q7cEuvIxAIjY0wl7UBMKAZ5E/hw44wojy
8MFIQd8/9SdCwhTbBsIgZ2m/K1c7wlyV38GguaY/drU4wr5ZDsKIo9O/Jn5DwrmH8cGcEd5A7vwg
wk3S9MFmVmdA1VshwoL1+MHzTpg/HhUpwgkp7sG2DplAFskpwiJz9sGA9Ii9wIcxwvCi68HpTmJA
emgswgNeDMIgpEs+erFHwmHv58EsFrE//D49wpZ87cFI3pdAfPAvwgSzEsJMv9u/Ml5IwkBT9cGZ
XBBBuUZVwhXf4sHxyfBAW/RSwsv15cFqbxJBI3NZwuH26cH5ZQpBDo0zwgRC58FAp/I+n5wzwmr2
9MEAsmA9uiFTwup3+cGS2AlBccZVwtrM9sFi3+BAcx08wsx/+8H4/z9AgAw1wkGe/MEpNkFA2d4w
wuwYBMJGjNc/

> <OMEGA_E>
Oi3vwA==

> <OMEGA_NBR>
     38399

$$$$
CACHE3HI_1697_56
  -OEChem-03092622523D

 53 57  0     0  0  0  0  0  0999 V2000
  -45.8048  -30.5322    2.4166 C   0  0  0  0  0  0  0  0  0  0  0  0
  -45.6059  -29.9643    3.6750 C   0  0  0  0  0  0  0  0  0  0  0  0
  -47.0613  -30.4695    1.8144 C   0  0  0  0  0  0  0  0  0  0  0  0
  -50.7543  -31.2949    7.9204 C   0  0  0  0  0  0  0  0  0  0  0  0
  -46.6632  -29.3334    4.3310 C   0  0  0  0  0  0  0  0  0  0  0  0
  -48.1186  -29.8386    2.4704 C   0  0  0  0  0  0  0  0  0  0  0  0
  -51.7455  -31.5997    8.8534 C   0  0  0  0  0  0  0  0  0  0  0  0
  -54.5798  -27.0568    5.4193 C   0  0  0  0  0  0  0  0  0  0  0  0
  -51.1718  -28.9379    8.2486 C   0  0  0  0  0  0  0  0  0  0  0  0
  -55.3412  -26.2355    4.6121 C   0  0  0  0  0  0  0  0  0  0  0  0
  -52.6939  -26.8761    9.6159 C   0  0  0  0  0  0  0  0  0  0  0  0
  -50.4677  -29.9638    7.6180 C   0  0  0  0  0  0  0  0  0  0  0  0
  -47.9198  -29.2707    3.7287 C   0  0  0  0  0  0  0  0  0  0  0  0
  -52.1629  -29.2426    9.1815 C   0  0  0  0  0  0  0  0  0  0  0  0
  -53.6288  -27.7772    4.6577 C   0  0  0  0  0  0  0  0  0  0  0  0
  -52.4496  -30.5738    9.4840 C   0  0  0  0  0  0  0  0  0  0  0  0
  -53.6867  -27.4934    3.3170 C   0  0  0  0  0  0  0  0  0  0  0  0
  -52.8231  -28.0961    2.3223 C   0  0  0  0  0  0  0  0  0  0  0  0
  -51.9003  -29.2348    4.1473 C   0  0  0  0  0  0  0  0  0  0  0  0
  -49.4217  -29.6425    6.6345 C   0  0  0  0  0  0  0  0  0  0  0  0
  -53.6342  -32.2860   10.6339 C   0  0  0  0  0  0  0  0  0  0  0  0
  -49.0583  -28.5917    4.4346 C   0  0  0  0  0  0  0  0  0  0  0  0
  -50.8876  -30.2370    4.6507 C   0  0  0  0  0  0  0  0  0  0  0  0
  -53.5442  -26.2446   10.3921 N   0  0  0  0  0  0  0  0  0  0  0  0
  -54.2359  -27.2287   11.0628 N   0  0  0  0  0  0  0  0  0  0  0  0
  -53.8165  -28.4357   10.7030 N   0  0  0  0  0  0  0  0  0  0  0  0
  -51.9161  -29.0024    2.8608 N   0  0  0  0  0  0  0  0  0  0  0  0
  -52.8528  -28.2128    9.7987 N   0  0  0  0  0  0  0  0  0  0  0  0
  -52.7225  -28.6673    5.1109 N   0  0  0  0  0  0  0  0  0  0  0  0
  -49.8156  -29.5245    5.2799 N   0  0  0  0  0  0  0  0  0  0  0  0
  -52.8764  -27.8422    1.1236 O   0  0  0  0  0  0  0  0  0  0  0  0
  -48.2847  -29.4912    7.0787 O   0  0  0  0  0  0  0  0  0  0  0  0
  -53.4140  -30.8981   10.3919 O   0  0  0  0  0  0  0  0  0  0  0  0
  -54.8917  -26.3521    2.9558 S   0  0  0  0  0  0  0  0  0  0  0  0
  -44.9818  -31.0234    1.9059 H   0  0  0  0  0  0  0  0  0  0  0  0
  -44.6275  -30.0127    4.1439 H   0  0  0  0  0  0  0  0  0  0  0  0
  -47.2164  -30.9118    0.8347 H   0  0  0  0  0  0  0  0  0  0  0  0
  -50.2123  -32.1019    7.4347 H   0  0  0  0  0  0  0  0  0  0  0  0
  -46.4987  -28.8939    5.3112 H   0  0  0  0  0  0  0  0  0  0  0  0
  -49.0937  -29.7939    1.9926 H   0  0  0  0  0  0  0  0  0  0  0  0
  -51.9650  -32.6390    9.0833 H   0  0  0  0  0  0  0  0  0  0  0  0
  -54.7100  -27.1252    6.4917 H   0  0  0  0  0  0  0  0  0  0  0  0
  -50.9450  -27.9005    8.0104 H   0  0  0  0  0  0  0  0  0  0  0  0
  -56.1400  -25.5716    4.9116 H   0  0  0  0  0  0  0  0  0  0  0  0
  -51.9794  -26.4319    8.9375 H   0  0  0  0  0  0  0  0  0  0  0  0
  -54.4272  -32.4063   11.3765 H   0  0  0  0  0  0  0  0  0  0  0  0
  -53.9366  -32.7662    9.7001 H   0  0  0  0  0  0  0  0  0  0  0  0
  -52.7106  -32.7449   10.9941 H   0  0  0  0  0  0  0  0  0  0  0  0
  -48.6889  -27.7819    5.0724 H   0  0  0  0  0  0  0  0  0  0  0  0
  -49.7565  -28.1480    3.7172 H   0  0  0  0  0  0  0  0  0  0  0  0
  -51.3802  -30.9002    5.3550 H   0  0  0  0  0  0  0  0  0  0  0  0
  -50.5174  -30.8143    3.8094 H   0  0  0  0  0  0  0  0  0  0  0  0
  -52.6282  -28.9221    6.0895 H   0  0  0  0  0  0  0  0  0  0  0  0
  1  2  1  0  0  0  0
  1  3  2  0  0  0  0
  2  5  2  0  0  0  0
  3  6  1  0  0  0  0
  4  7  2  0  0  0  0
  4 12  1  0  0  0  0
  5 13  1  0  0  0  0
  6 13  2  0  0  0  0
  7 16  1  0  0  0  0
  8 10  2  0  0  0  0
  8 15  1  0  0  0  0
  9 12  2  0  0  0  0
  9 14  1  0  0  0  0
 10 34  1  0  0  0  0
 11 24  2  0  0  0  0
 11 28  1  0  0  0  0
 12 20  1  0  0  0  0
 13 22  1  0  0  0  0
 14 16  2  0  0  0  0
 14 28  1  0  0  0  0
 15 17  2  0  0  0  0
 15 29  1  0  0  0  0
 16 33  1  0  0  0  0
 17 18  1  0  0  0  0
 17 34  1  0  0  0  0
 18 27  1  0  0  0  0
 18 31  2  0  0  0  0
 19 23  1  0  0  0  0
 19 27  2  0  0  0  0
 19 29  1  0  0  0  0
 20 30  1  0  0  0  0
 20 32  2  0  0  0  0
 21 33  1  0  0  0  0
 22 30  1  0  0  0  0
 23 30  1  0  0  0  0
 24 25  1  0  0  0  0
 25 26  2  0  0  0  0
 26 28  1  0  0  0  0
  1 35  1  0  0  0  0
  2 36  1  0  0  0  0
  3 37  1  0  0  0  0
  4 38  1  0  0  0  0
  5 39  1  0  0  0  0
  6 40  1  0  0  0  0
  7 41  1  0  0  0  0
  8 42  1  0  0  0  0
  9 43  1  0  0  0  0
 10 44  1  0  0  0  0
 11 45  1  0  0  0  0
 21 46  1  0  0  0  0
 21 47  1  0  0  0  0
 21 48  1  0  0  0  0
 22 49  1  0  0  0  0
 22 50  1  0  0  0  0
 23 51  1  0  0  0  0
 23 52  1  0  0  0  0
 29 53  1  0  0  0  0
M  END
> <POSIT::Probability>
0.05

> <POSIT::Method>
FRED

> <ReceptorTitle>
UCSF-P4622-REFINED_LIGAND-BOUND-STATE_A__DU__LA1_A-201(A)

> <OMEGA_C>
GDg3wgFC9MGvqRpAe2w2wsy278FYM2tAxj48wnLB88FiPug/dARLwgVc+sFDdP1AHqc6wuCq6sE2
l4pAaHlAwoW17sFIGh5AZftOwjbM/MGOpw1BuVFawjp02MEka61A6K9Mws+A58E6+gNBZl1dwjbi
0cFglpNAkMZSwisC18GY2hlB5d5Jwva178GrxvNA160/wlYq6sE+o25A06ZQwurw6cGI5xJB54NW
wq033sEbDJVAasxRwhKX9MFyvhdBM79Wwmfy28GtSVRA3kpTwtTE4MFWoBRA8JlPwsjg6cEXt4RA
269FwtEj7cFyTdRAb4lWwtUkAcJIJCpBqTtEwsy75MEU6I1A34xLwlnl8cFq0pRAQy1WwuD00cEu
RiZBjfFYwnDU2cFKATFBGURXwld848F8PytBGapPwtwE6MFvFzdAPGlTwrqz4cGaxxxBzeNSwoxW
5cFljKNAIUNHwjsy7MFT9ahAb4FTwuS83sGY0Y8/jiNBwujt68GOhOJA66dVwmEv98EwRSZBJJFb
wg3R0sEDKz1AUe0zwuAv+MHi9PM/jYIywgca8MGbmoRAk908wldL98E8sFU/ZtlIwlFoAMIR6e1A
sf45wqom58G29alA819Ewt5Z7sEUD/8/MtxPwkmOAsJWVRFBEddawmsA2cHsu89AqsdLwjE038GQ
KgBBUo9gwruSzMG8K51A5+pPwpl008EqAA9BbrVZwgGgAcJQBjZBGb9XwpsQA8LKMxtBp9dSwr/6
AsK85y9BYsFCwkVB3sFdUaJAoAZHwhUv4cF65m1AToVNwpcz98FPXKtA2RFKwsSD9sFzzXNAR4NS
wmdg58Hi3MJA

> <OMEGA_E>
TZD0wA==

> <OMEGA_NBR>
     39956

$$$$
CACHE3HI_1697_58
  -OEChem-03092622523D

 55 59  0     1  0  0  0  0  0999 V2000
  -44.0783  -29.7975    3.5763 C   0  0  0  0  0  0  0  0  0  0  0  0
  -44.0765  -29.4822    4.9351 C   0  0  0  0  0  0  0  0  0  0  0  0
  -45.2860  -30.0124    2.9125 C   0  0  0  0  0  0  0  0  0  0  0  0
  -53.9764  -26.1808   11.1734 C   0  0  0  0  0  0  0  0  0  0  0  0
  -54.3365  -26.0160    5.6160 C   0  0  0  0  0  0  0  0  0  0  0  0
  -45.2820  -29.3817    5.6298 C   0  0  0  0  0  0  0  0  0  0  0  0
  -46.4915  -29.9119    3.6072 C   0  0  0  0  0  0  0  0  0  0  0  0
  -54.1706  -27.0887   10.1298 C   0  0  0  0  0  0  0  0  0  0  0  0
  -53.7773  -27.2157    6.0560 C   0  0  0  0  0  0  0  0  0  0  0  0
  -54.8989  -26.0713   12.2194 C   0  0  0  0  0  0  0  0  0  0  0  0
  -55.3791  -26.0315    4.6896 C   0  0  0  0  0  0  0  0  0  0  0  0
  -55.3033  -28.4462    4.6437 C   0  0  0  0  0  0  0  0  0  0  0  0
  -49.3097  -29.2559    7.0511 C   0  0  0  0  0  0  0  0  0  0  0  0
  -57.8947  -28.0340   12.4629 C   0  0  0  0  0  0  0  0  0  0  0  0
  -46.4897  -29.5966    4.9659 C   0  0  0  0  0  0  0  0  0  0  0  0
  -55.2967  -27.9194   10.0950 C   0  0  0  0  0  0  0  0  0  0  0  0
  -54.2607  -28.4307    5.5701 C   0  0  0  0  0  0  0  0  0  0  0  0
  -56.2336  -27.8221   11.1375 C   0  0  0  0  0  0  0  0  0  0  0  0
  -56.0135  -26.9085   12.1644 C   0  0  0  0  0  0  0  0  0  0  0  0
  -55.8625  -27.2465    4.2037 C   0  0  0  0  0  0  0  0  0  0  0  0
  -49.8639  -29.5668    5.8342 C   0  0  0  0  0  0  0  0  0  0  0  0
  -47.7311  -29.4933    5.6816 C   0  0  0  0  0  0  0  0  0  0  0  0
  -55.4880  -28.8588    9.0050 C   0  0  0  0  0  0  0  0  0  0  0  0
  -51.2640  -29.7459    5.3729 C   0  0  0  0  0  0  0  0  0  0  0  0
  -54.3607  -30.3009    7.2895 C   0  0  0  0  0  0  0  0  0  0  0  0
  -53.6511  -29.7368    6.0495 C   0  0  2  0  0  0  0  0  0  0  0  0
  -47.9429  -29.2104    6.9474 N   0  0  0  0  0  0  0  0  0  0  0  0
  -57.4072  -28.5125   11.3396 N   0  0  0  0  0  0  0  0  0  0  0  0
  -57.0916  -27.0661   12.9976 N   0  0  0  0  0  0  0  0  0  0  0  0
  -54.3356  -29.3749    8.3989 N   0  0  0  0  0  0  0  0  0  0  0  0
  -52.2228  -29.5706    6.3415 N   0  0  0  0  0  0  0  0  0  0  0  0
  -56.6336  -29.1650    8.6263 O   0  0  0  0  0  0  0  0  0  0  0  0
  -51.4759  -30.0485    4.2016 O   0  0  0  0  0  0  0  0  0  0  0  0
  -48.8490  -29.7225    4.9393 O   0  0  0  0  0  0  0  0  0  0  0  0
  -57.1496  -27.2648    3.0613 Cl  0  0  0  0  0  0  0  0  0  0  0  0
  -43.1399  -29.8766    3.0354 H   0  0  0  0  0  0  0  0  0  0  0  0
  -43.1364  -29.3139    5.4522 H   0  0  0  0  0  0  0  0  0  0  0  0
  -45.2870  -30.2584    1.8546 H   0  0  0  0  0  0  0  0  0  0  0  0
  -53.0925  -25.5479   11.1742 H   0  0  0  0  0  0  0  0  0  0  0  0
  -53.9597  -25.0705    5.9949 H   0  0  0  0  0  0  0  0  0  0  0  0
  -45.2637  -29.1359    6.6890 H   0  0  0  0  0  0  0  0  0  0  0  0
  -47.4244  -30.0820    3.0746 H   0  0  0  0  0  0  0  0  0  0  0  0
  -53.4292  -27.1434    9.3354 H   0  0  0  0  0  0  0  0  0  0  0  0
  -52.9655  -27.1938    6.7781 H   0  0  0  0  0  0  0  0  0  0  0  0
  -54.7510  -25.3681   13.0311 H   0  0  0  0  0  0  0  0  0  0  0  0
  -55.8053  -25.0892    4.3555 H   0  0  0  0  0  0  0  0  0  0  0  0
  -55.6761  -29.3960    4.2665 H   0  0  0  0  0  0  0  0  0  0  0  0
  -49.8130  -29.0650    7.9877 H   0  0  0  0  0  0  0  0  0  0  0  0
  -58.8151  -28.3425   12.9377 H   0  0  0  0  0  0  0  0  0  0  0  0
  -55.4181  -30.4959    7.0749 H   0  0  0  0  0  0  0  0  0  0  0  0
  -53.9139  -31.2393    7.6368 H   0  0  0  0  0  0  0  0  0  0  0  0
  -53.7330  -30.4812    5.2468 H   0  0  0  0  0  0  0  0  0  0  0  0
  -57.2617  -26.5569   13.8546 H   0  0  0  0  0  0  0  0  0  0  0  0
  -53.4262  -29.0445    8.7040 H   0  0  0  0  0  0  0  0  0  0  0  0
  -51.9889  -29.3849    7.3007 H   0  0  0  0  0  0  0  0  0  0  0  0
  1  2  1  0  0  0  0
  1  3  2  0  0  0  0
  2  6  2  0  0  0  0
  3  7  1  0  0  0  0
  4  8  2  0  0  0  0
  4 10  1  0  0  0  0
  5  9  2  0  0  0  0
  5 11  1  0  0  0  0
  6 15  1  0  0  0  0
  7 15  2  0  0  0  0
  8 16  1  0  0  0  0
  9 17  1  0  0  0  0
 10 19  2  0  0  0  0
 11 20  2  0  0  0  0
 12 17  2  0  0  0  0
 12 20  1  0  0  0  0
 13 21  2  0  0  0  0
 13 27  1  0  0  0  0
 14 28  2  0  0  0  0
 14 29  1  0  0  0  0
 15 22  1  0  0  0  0
 16 18  2  0  0  0  0
 16 23  1  0  0  0  0
 17 26  1  0  0  0  0
 18 19  1  0  0  0  0
 18 28  1  0  0  0  0
 19 29  1  0  0  0  0
 20 35  1  0  0  0  0
 21 24  1  0  0  0  0
 21 34  1  0  0  0  0
 22 27  2  0  0  0  0
 22 34  1  0  0  0  0
 23 30  1  0  0  0  0
 23 32  2  0  0  0  0
 24 31  1  0  0  0  0
 24 33  2  0  0  0  0
 25 26  1  0  0  0  0
 25 30  1  0  0  0  0
 26 31  1  0  0  0  0
  1 36  1  0  0  0  0
  2 37  1  0  0  0  0
  3 38  1  0  0  0  0
  4 39  1  0  0  0  0
  5 40  1  0  0  0  0
  6 41  1  0  0  0  0
  7 42  1  0  0  0  0
  8 43  1  0  0  0  0
  9 44  1  0  0  0  0
 10 45  1  0  0  0  0
 11 46  1  0  0  0  0
 12 47  1  0  0  0  0
 13 48  1  0  0  0  0
 14 49  1  0  0  0  0
 25 50  1  0  0  0  0
 25 51  1  0  0  0  0
 26 52  1  0  0  0  0
 29 53  1  0  0  0  0
 30 54  1  0  0  0  0
 31 55  1  0  0  0  0
M  END
> <POSIT::Probability>
0.14

> <POSIT::Method>
HYBRID

> <ReceptorTitle>
UCSF-P4622-REFINED_LIGAND-BOUND-STATE_A__DU__LA1_A-201(A)

> <OMEGA_C>
LFAwwklh7sG+4mRAWE4wwqTb68GY7J1A1yQ1wn0Z8MGYZTpA4OdXwjdy0cFAxjJBoFhZwq0g0MEc
trNAyyA1wqwN68GeJ7RASvc5woVL78Gk22ZAtq5Ywpa12MGKEyJB+htXwrS52cEMy8FAhZhbwgyS
0MHegkNBPIRdwphA0MEcEZZAmTZdwuSR48HymJRALD1Fwg8M6sGiouFAKJRnwqFF4MHsZ0dBf/U5
wufF7MGp6J5AzS9dwuZa38EJhSFB8QpZwgZy48E/PrJAM+9gwqeT3sEcMzJBxg1gwoJE18FfoUJB
MnNfwur42cFRhIZAnXRHwr2I7MHnsbpArOw+wjfy68Hmz7VAtvNdwuPe5sFnFBBBWw5Nwpv37cHw
7qtAXnFZwjto8sH7Q+lAsJpWwuTk7cE3lcFAkMU/wtSu6cHWUN5AAqFlwpcZ5MHubjVBzV1kwnGH
2MEl9k9BpldZwtX/6sG0YQZBKuRQwoCQ7MEw7cpAyohiwv1R6cFxBQpBSudNwkBj8MHCc4ZAY2VD
wqzH7cHwDp5AMJlkwlIe2sGG7ENAQ48swlYD78FkREJApYsswt6C6sEKeK5A2iU1wkwR8sHEZO0/
sl5UwgBizMF5yTJBwtZXwneQyMFR1r9AEw41wkMW6cEyDNZAjLI9wvqn8MHHxkRAjLdVwp8l2cHA
XRVBrNxTwt+M2cED5thA/wBbwsnxysFzf1BBqzhfwqW2yMHiX4tASbRewgIr68Enh4hAikBHwg+F
6MEam/9ApUJrwm+94sH2AE9BKKxdwqz388HIZeJA3qdXwhjq+cFFYPRAjO5WworZ88GY5adA/Atl
wnt01MFSrF1BcbRVwh1b6MFjQwtBlvRPwloU68GVn+lA

> <OMEGA_E>
xsGWwA==

> <OMEGA_NBR>
     41561

$$$$
CACHE3HI_1697_64
  -OEChem-03092622523D

 59 63  0     1  0  0  0  0  0999 V2000
  -55.5901  -25.7501    2.6429 C   0  0  0  0  0  0  0  0  0  0  0  0
  -45.1619  -33.1619    1.2569 C   0  0  0  0  0  0  0  0  0  0  0  0
  -46.4930  -33.3672    0.9300 C   0  0  0  0  0  0  0  0  0  0  0  0
  -56.2658  -26.9180    2.2890 C   0  0  0  0  0  0  0  0  0  0  0  0
  -54.4179  -25.8239    3.3951 C   0  0  0  0  0  0  0  0  0  0  0  0
  -44.8082  -32.0853    2.0647 C   0  0  0  0  0  0  0  0  0  0  0  0
  -47.4733  -32.4942    1.4089 C   0  0  0  0  0  0  0  0  0  0  0  0
  -45.3919  -30.1240    3.3671 C   0  0  0  0  0  0  0  0  0  0  0  0
  -55.7692  -28.1594    2.6870 C   0  0  0  0  0  0  0  0  0  0  0  0
  -53.9213  -27.0653    3.7930 C   0  0  0  0  0  0  0  0  0  0  0  0
  -46.3306  -29.2316    3.8702 C   0  0  0  0  0  0  0  0  0  0  0  0
  -45.7820  -31.1984    2.5559 C   0  0  0  0  0  0  0  0  0  0  0  0
  -47.1530  -31.3846    2.2316 C   0  0  0  0  0  0  0  0  0  0  0  0
  -48.1087  -30.4600    2.7505 C   0  0  0  0  0  0  0  0  0  0  0  0
  -54.5969  -28.2332    3.4392 C   0  0  0  0  0  0  0  0  0  0  0  0
  -47.6805  -29.4042    3.5761 C   0  0  0  0  0  0  0  0  0  0  0  0
  -49.5414  -30.5280    2.4332 C   0  0  0  0  0  0  0  0  0  0  0  0
  -53.0735  -28.6572   10.9455 C   0  0  0  0  0  0  0  0  0  0  0  0
  -52.9248  -28.7183    9.6168 C   0  0  0  0  0  0  0  0  0  0  0  0
  -50.3791  -29.7560    3.1304 C   0  0  0  0  0  0  0  0  0  0  0  0
  -51.6187  -29.4210    9.4349 C   0  0  0  0  0  0  0  0  0  0  0  0
  -51.8081  -29.8325    2.8253 C   0  0  0  0  0  0  0  0  0  0  0  0
  -54.1196  -29.4505    7.6070 C   0  0  0  0  0  0  0  0  0  0  0  0
  -49.9097  -28.8225    4.1934 C   0  0  0  0  0  0  0  0  0  0  0  0
  -53.8073  -28.2699    8.5071 C   0  0  0  0  0  0  0  0  0  0  0  0
  -54.6058  -30.0326    5.2353 C   0  0  0  0  0  0  0  0  0  0  0  0
  -54.0558  -29.5847    3.8728 C   0  0  2  0  0  0  0  0  0  0  0  0
  -52.0218  -29.1990   11.6132 N   0  0  0  0  0  0  0  0  0  0  0  0
  -51.1406  -29.7028   10.7080 N   0  0  0  0  0  0  0  0  0  0  0  0
  -52.6112  -29.5690    3.9222 N   0  0  0  0  0  0  0  0  0  0  0  0
  -54.3028  -29.0883    6.2789 N   0  0  0  0  0  0  0  0  0  0  0  0
  -51.1102  -29.6835    8.3584 O   0  0  0  0  0  0  0  0  0  0  0  0
  -52.2013  -30.1079    1.6915 O   0  0  0  0  0  0  0  0  0  0  0  0
  -54.1930  -30.5991    8.0417 O   0  0  0  0  0  0  0  0  0  0  0  0
  -48.5259  -28.4601    4.1004 O   0  0  0  0  0  0  0  0  0  0  0  0
  -55.9767  -24.7836    2.3331 H   0  0  0  0  0  0  0  0  0  0  0  0
  -44.3977  -33.8380    0.8855 H   0  0  0  0  0  0  0  0  0  0  0  0
  -46.7762  -34.2074    0.3026 H   0  0  0  0  0  0  0  0  0  0  0  0
  -57.1783  -26.8607    1.7030 H   0  0  0  0  0  0  0  0  0  0  0  0
  -53.8918  -24.9147    3.6708 H   0  0  0  0  0  0  0  0  0  0  0  0
  -43.7572  -31.9443    2.3104 H   0  0  0  0  0  0  0  0  0  0  0  0
  -48.5008  -32.7071    1.1259 H   0  0  0  0  0  0  0  0  0  0  0  0
  -44.3438  -29.9710    3.6178 H   0  0  0  0  0  0  0  0  0  0  0  0
  -56.3026  -29.0639    2.4066 H   0  0  0  0  0  0  0  0  0  0  0  0
  -53.0066  -27.1127    4.3780 H   0  0  0  0  0  0  0  0  0  0  0  0
  -46.0030  -28.4064    4.4970 H   0  0  0  0  0  0  0  0  0  0  0  0
  -49.8981  -31.1915    1.6562 H   0  0  0  0  0  0  0  0  0  0  0  0
  -53.9085  -28.2635   11.5035 H   0  0  0  0  0  0  0  0  0  0  0  0
  -50.4754  -27.8855    4.1440 H   0  0  0  0  0  0  0  0  0  0  0  0
  -50.0846  -29.2588    5.1839 H   0  0  0  0  0  0  0  0  0  0  0  0
  -54.7160  -27.8230    8.9206 H   0  0  0  0  0  0  0  0  0  0  0  0
  -53.3013  -27.5100    7.9014 H   0  0  0  0  0  0  0  0  0  0  0  0
  -55.6986  -30.1159    5.2030 H   0  0  0  0  0  0  0  0  0  0  0  0
  -54.2081  -31.0046    5.5482 H   0  0  0  0  0  0  0  0  0  0  0  0
  -54.3462  -30.3375    3.1284 H   0  0  0  0  0  0  0  0  0  0  0  0
  -52.1085  -29.5857   12.5426 H   0  0  0  0  0  0  0  0  0  0  0  0
  -50.2853  -30.1970   10.9244 H   0  0  0  0  0  0  0  0  0  0  0  0
  -52.1795  -29.3624    4.8183 H   0  0  0  0  0  0  0  0  0  0  0  0
  -54.2305  -28.1066    6.0194 H   0  0  0  0  0  0  0  0  0  0  0  0
  1  4  1  0  0  0  0
  1  5  2  0  0  0  0
  2  3  1  0  0  0  0
  2  6  2  0  0  0  0
  3  7  2  0  0  0  0
  4  9  2  0  0  0  0
  5 10  1  0  0  0  0
  6 12  1  0  0  0  0
  7 13  1  0  0  0  0
  8 11  2  0  0  0  0
  8 12  1  0  0  0  0
  9 15  1  0  0  0  0
 10 15  2  0  0  0  0
 11 16  1  0  0  0  0
 12 13  2  0  0  0  0
 13 14  1  0  0  0  0
 14 16  2  0  0  0  0
 14 17  1  0  0  0  0
 15 27  1  0  0  0  0
 16 35  1  0  0  0  0
 17 20  2  0  0  0  0
 18 19  2  0  0  0  0
 18 28  1  0  0  0  0
 19 21  1  0  0  0  0
 19 25  1  0  0  0  0
 20 22  1  0  0  0  0
 20 24  1  0  0  0  0
 21 29  1  0  0  0  0
 21 32  2  0  0  0  0
 22 30  1  0  0  0  0
 22 33  2  0  0  0  0
 23 25  1  0  0  0  0
 23 31  1  0  0  0  0
 23 34  2  0  0  0  0
 24 35  1  0  0  0  0
 26 27  1  0  0  0  0
 26 31  1  0  0  0  0
 27 30  1  0  0  0  0
 28 29  1  0  0  0  0
  1 36  1  0  0  0  0
  2 37  1  0  0  0  0
  3 38  1  0  0  0  0
  4 39  1  0  0  0  0
  5 40  1  0  0  0  0
  6 41  1  0  0  0  0
  7 42  1  0  0  0  0
  8 43  1  0  0  0  0
  9 44  1  0  0  0  0
 10 45  1  0  0  0  0
 11 46  1  0  0  0  0
 17 47  1  0  0  0  0
 18 48  1  0  0  0  0
 24 49  1  0  0  0  0
 24 50  1  0  0  0  0
 25 51  1  0  0  0  0
 25 52  1  0  0  0  0
 26 53  1  0  0  0  0
 26 54  1  0  0  0  0
 27 55  1  0  0  0  0
 28 56  1  0  0  0  0
 29 57  1  0  0  0  0
 30 58  1  0  0  0  0
 31 59  1  0  0  0  0
M  END
> <POSIT::Probability>
0.05

> <POSIT::Method>
FRED

> <ReceptorTitle>
UCSF-P4622-REFINED_LIGAND-BOUND-STATE_A__DU__LA1_A-201(A)

> <OMEGA_C>
SFxewjIAzsHBJClAyqU0wsSlBMJW46A/4fg5wg94BcJOFm4/IhBhwhRY18GAfxJA4atZwkyXzsGR
SFlApDszwkxXAMIfJARAoeQ9wgf6AcICVrQ/VZE1wgb+8MF7fldAoxNfwnBG4cGk9ytAYq9XwqmF
2MG3wHJAkFI5wlTa6cG3sHdAuCA3wkCW+cEZkyNAp5w8wroT+8F10g5ASG9AwhCu88GhBzBALmNa
woDd4cHxG1xAybg+wtQ768FL32RAXCpGwj859MHquBtAT0tUwupB5cHAIC9B8rJTwiu/5cGA3hlB
NIRJwlEM7sGFWEhAh3lOwkRe68Fx9RZBhjtPwuqo7sFc0jRAcnpYwqqa68HMbPNAkaNHwpCU5sFU
MIZAuTpXwrgo4sEMHQhBXmxawtBC8MHMh6dALjlYwmit7MHd23dATxZQwpeX6cF8zzlB749MwlGf
7cHTUytB5HFSwmKN7MFuBXtACDZZwt206MH07MhA3HBMwtp37cEmvAVBIs5QwgTd8MEsg9g/nMVY
wvnK9MHHqgBBhxpCwmCu48HBNoNAHOhfwuJExsHnURVASJcxwhVaB8LYsWI/3Ro7wmbUCMLQ6Zo+
obZkwsri1sHa+9k/KpFXwjpRx8Hd7mpAYgcvwtqN/8G23RNAzABCwhrUAsLxHJA/CWAxwrLE78GT
iWdA0DVhwt6C6MFABhpAwgZUwrzm2MG8GIxAFgM4wlNA48Fu549AppdHwhiI+cFX/dM/RaJXwr0b
4sFvDjhBx+ZJwn0V38Fim4RAoFZIwgoS6sG64qVANt1awoCV3sGsug5BgjRVwokU3MF82PxAacte
wkbt8MHnfqZADdVYwlgJ+MHCirFAiWJZwj6z8sGwN0hAI29Qwo6v7MGurkhBGyRJwmaT8cF4yi5B
xbdQwkzm6sFEL5pAE+xYwj7a4MH3nsBA

> <OMEGA_E>
hw4AwQ==

> <OMEGA_NBR>
     43243

$$$$
CACHE3HI_1697_7
  -OEChem-03092622523D

 54 58  0     0  0  0  0  0  0999 V2000
  -55.6340  -24.6700    2.9891 C   0  0  0  0  0  0  0  0  0  0  0  0
  -56.8508  -24.7313    3.6683 C   0  0  0  0  0  0  0  0  0  0  0  0
  -54.6215  -25.5809    3.2896 C   0  0  0  0  0  0  0  0  0  0  0  0
  -52.1400  -30.5559    9.1664 C   0  0  0  0  0  0  0  0  0  0  0  0
  -53.3347  -30.2053    8.5375 C   0  0  0  0  0  0  0  0  0  0  0  0
  -57.0552  -25.7035    4.6476 C   0  0  0  0  0  0  0  0  0  0  0  0
  -54.8259  -26.5532    4.2689 C   0  0  0  0  0  0  0  0  0  0  0  0
  -50.9321  -30.4482    8.4774 C   0  0  0  0  0  0  0  0  0  0  0  0
  -54.8422  -24.8257   11.8011 C   0  0  0  0  0  0  0  0  0  0  0  0
  -52.1135  -29.6391    6.5310 C   0  0  0  0  0  0  0  0  0  0  0  0
  -55.4684  -25.1596   12.9853 C   0  0  0  0  0  0  0  0  0  0  0  0
  -53.3215  -29.7468    7.2200 C   0  0  0  0  0  0  0  0  0  0  0  0
  -56.0426  -26.6145    4.9481 C   0  0  0  0  0  0  0  0  0  0  0  0
  -50.9189  -29.9897    7.1599 C   0  0  0  0  0  0  0  0  0  0  0  0
  -55.0185  -25.8401   10.8299 C   0  0  0  0  0  0  0  0  0  0  0  0
  -55.7595  -26.9000   11.2872 C   0  0  0  0  0  0  0  0  0  0  0  0
  -47.2539  -29.5753    5.1103 C   0  0  0  0  0  0  0  0  0  0  0  0
  -48.3608  -29.8475    4.4256 C   0  0  0  0  0  0  0  0  0  0  0  0
  -56.0831  -28.0667   10.4919 C   0  0  0  0  0  0  0  0  0  0  0  0
  -47.2989  -29.4410    6.5708 C   0  0  0  0  0  0  0  0  0  0  0  0
  -49.6710  -30.0444    5.0853 C   0  0  0  0  0  0  0  0  0  0  0  0
  -54.8679  -26.9758    8.8149 C   0  0  0  0  0  0  0  0  0  0  0  0
  -54.5822  -29.3774    6.5575 C   0  0  0  0  0  0  0  0  0  0  0  0
  -56.2622  -27.6613    6.0024 C   0  0  0  0  0  0  0  0  0  0  0  0
  -54.3373  -26.9968    7.4001 C   0  0  0  0  0  0  0  0  0  0  0  0
  -55.5655  -28.0115    9.2023 N   0  0  0  0  0  0  0  0  0  0  0  0
  -54.5481  -25.8533    9.5659 N   0  0  0  0  0  0  0  0  0  0  0  0
  -48.5207  -29.6109    7.1653 N   0  0  0  0  0  0  0  0  0  0  0  0
  -49.7100  -29.8825    6.4715 N   0  0  0  0  0  0  0  0  0  0  0  0
  -55.0110  -28.0337    6.6763 N   0  0  0  0  0  0  0  0  0  0  0  0
  -56.7449  -29.0142   10.9022 O   0  0  0  0  0  0  0  0  0  0  0  0
  -46.2692  -29.1908    7.1942 O   0  0  0  0  0  0  0  0  0  0  0  0
  -50.6478  -30.3236    4.3892 O   0  0  0  0  0  0  0  0  0  0  0  0
  -55.1563  -30.2739    5.9413 O   0  0  0  0  0  0  0  0  0  0  0  0
  -56.2539  -26.6875   12.8983 S   0  0  0  0  0  0  0  0  0  0  0  0
  -55.4748  -23.9131    2.2267 H   0  0  0  0  0  0  0  0  0  0  0  0
  -57.6395  -24.0223    3.4341 H   0  0  0  0  0  0  0  0  0  0  0  0
  -53.6740  -25.5332    2.7610 H   0  0  0  0  0  0  0  0  0  0  0  0
  -52.1499  -30.9127   10.1921 H   0  0  0  0  0  0  0  0  0  0  0  0
  -54.2703  -30.2933    9.0838 H   0  0  0  0  0  0  0  0  0  0  0  0
  -58.0065  -25.7435    5.1716 H   0  0  0  0  0  0  0  0  0  0  0  0
  -54.0313  -27.2592    4.4954 H   0  0  0  0  0  0  0  0  0  0  0  0
  -50.0070  -30.7242    8.9769 H   0  0  0  0  0  0  0  0  0  0  0  0
  -54.2938  -23.9038   11.6563 H   0  0  0  0  0  0  0  0  0  0  0  0
  -52.1031  -29.2816    5.5034 H   0  0  0  0  0  0  0  0  0  0  0  0
  -55.5045  -24.5827   13.8987 H   0  0  0  0  0  0  0  0  0  0  0  0
  -46.3017  -29.4415    4.6104 H   0  0  0  0  0  0  0  0  0  0  0  0
  -48.3295  -29.9463    3.3457 H   0  0  0  0  0  0  0  0  0  0  0  0
  -56.9616  -27.3011    6.7641 H   0  0  0  0  0  0  0  0  0  0  0  0
  -56.6925  -28.5704    5.5696 H   0  0  0  0  0  0  0  0  0  0  0  0
  -54.5199  -26.0261    6.9495 H   0  0  0  0  0  0  0  0  0  0  0  0
  -53.2690  -27.1863    7.4289 H   0  0  0  0  0  0  0  0  0  0  0  0
  -53.9935  -25.1020    9.1666 H   0  0  0  0  0  0  0  0  0  0  0  0
  -48.5696  -29.5351    8.1770 H   0  0  0  0  0  0  0  0  0  0  0  0
  1  2  1  0  0  0  0
  1  3  2  0  0  0  0
  2  6  2  0  0  0  0
  3  7  1  0  0  0  0
  4  5  2  0  0  0  0
  4  8  1  0  0  0  0
  5 12  1  0  0  0  0
  6 13  1  0  0  0  0
  7 13  2  0  0  0  0
  8 14  2  0  0  0  0
  9 11  2  0  0  0  0
  9 15  1  0  0  0  0
 10 12  2  0  0  0  0
 10 14  1  0  0  0  0
 11 35  1  0  0  0  0
 12 23  1  0  0  0  0
 13 24  1  0  0  0  0
 14 29  1  0  0  0  0
 15 16  2  0  0  0  0
 15 27  1  0  0  0  0
 16 19  1  0  0  0  0
 16 35  1  0  0  0  0
 17 18  2  0  0  0  0
 17 20  1  0  0  0  0
 18 21  1  0  0  0  0
 19 26  1  0  0  0  0
 19 31  2  0  0  0  0
 20 28  1  0  0  0  0
 20 32  2  0  0  0  0
 21 29  1  0  0  0  0
 21 33  2  0  0  0  0
 22 25  1  0  0  0  0
 22 26  2  0  0  0  0
 22 27  1  0  0  0  0
 23 30  1  0  0  0  0
 23 34  2  0  0  0  0
 24 30  1  0  0  0  0
 25 30  1  0  0  0  0
 28 29  1  0  0  0  0
  1 36  1  0  0  0  0
  2 37  1  0  0  0  0
  3 38  1  0  0  0  0
  4 39  1  0  0  0  0
  5 40  1  0  0  0  0
  6 41  1  0  0  0  0
  7 42  1  0  0  0  0
  8 43  1  0  0  0  0
  9 44  1  0  0  0  0
 10 45  1  0  0  0  0
 11 46  1  0  0  0  0
 17 47  1  0  0  0  0
 18 48  1  0  0  0  0
 24 49  1  0  0  0  0
 24 50  1  0  0  0  0
 25 51  1  0  0  0  0
 25 52  1  0  0  0  0
 27 53  1  0  0  0  0
 28 54  1  0  0  0  0
M  END
> <POSIT::Probability>
0.18

> <POSIT::Method>
FRED

> <ReceptorTitle>
UCSF-P4622-REFINED_LIGAND-BOUND-STATE_A__DU__LA1_A-201(A)

> <OMEGA_C>
P4lewhZcxcG8TD9AO2djwsLZxcGCxWpAaHxawselzMGwiFJAZY9QwpVy9MFuqRJBu1ZVwnSk8cFz
mQhBfzhkwtegzcFFuZRArE1bwtxs1MHamohAdrpLwv2V88FGowdBcF5bwgCbxsFW0TxBNnRQwt8c
7cEx/tBApN9dwt1GycG+w09BM0lVwnP57cGQCudAmytgwpXq1MExV55A76xLwvzq78E1HuVA/RJc
woS4zsEaRy1BrglfwiEz18GCmDRB+AM9wima7MF3h6NAgnFBwrrH7sGLno1ADVVgwpSI4MGs3idB
HzI9whiH68GdQ9JAGK9Gwv1a8MGxuqJAsXhbwn7O18HSCQ1BIFRawgMF68Fd19FAdQxhwltK3cHQ
E8BAcllZwmj518G3zexAGUNewpgX4MFyPBNBPjFaworTzsH8DRlBORVCwgnj7MH9SeVAB9dGwm0P
78GIFs9AOwtcwvhE4MF4pNVAwfpiwh0d6MFYby5BoxM5wsOG6cE0N+ZAUZdKwr6W8sEUdIxAEqBc
wvww8sFqH75AAwRhwgiA1cFcX05BP+ZdwgVOv8HwgQ5A0Y5mwqwtwMGiyFtAJLJWwgdEzMFItDBA
hZlQwiRN98HqEiNB0hRZwrxY8sFsVxFBrQZowqLyzcHUfaVAFCBYwugS2sED2o9AIwdIwjzL9cFp
oQ9B1yxZwv86v8FGgDpBoGlQwsZA6sH/G7BApwRewnKpxMHsYF5B5DQ5wj2I68FjiJNAbVFBwu6R
78GgH1ZAq9hjwpZo2sGKc9hAIcViwjaQ5MEPOrJAZhRawnI10MF1Yt5AexNVwo592cE1ue1AZflX
wuDQyMFcqhJBOkdCwupH7MEc1QJB

> <OMEGA_E>
VXoiwQ==

> <OMEGA_NBR>
     44821

$$$$
CACHE3HI_1700_33
  -OEChem-03092622523D

 50 52  0     1  0  0  0  0  0999 V2000
  -55.7853  -27.1093   11.9728 C   0  0  0  0  0  0  0  0  0  0  0  0
  -55.3610  -26.0945   11.1150 C   0  0  0  0  0  0  0  0  0  0  0  0
  -55.1961  -28.3717   11.9040 C   0  0  0  0  0  0  0  0  0  0  0  0
  -54.3477  -26.3419   10.1887 C   0  0  0  0  0  0  0  0  0  0  0  0
  -54.1828  -28.6190   10.9777 C   0  0  0  0  0  0  0  0  0  0  0  0
  -49.5517  -29.8086    5.2818 C   0  0  0  0  0  0  0  0  0  0  0  0
  -48.7640  -29.4816    7.4565 C   0  0  0  0  0  0  0  0  0  0  0  0
  -53.7585  -27.6043   10.1199 C   0  0  0  0  0  0  0  0  0  0  0  0
  -49.8469  -29.6706    6.6227 C   0  0  0  0  0  0  0  0  0  0  0  0
  -47.3283  -29.5777    5.6961 C   0  0  0  0  0  0  0  0  0  0  0  0
  -55.3351  -29.6163    8.1312 C   0  0  0  0  0  0  0  0  0  0  0  0
  -44.2066  -29.2580    3.7640 C   0  0  0  0  0  0  0  0  0  0  0  0
  -43.6864  -29.6426    5.1394 C   0  0  0  0  0  0  0  0  0  0  0  0
  -45.6755  -29.6692    3.8125 C   0  0  0  0  0  0  0  0  0  0  0  0
  -44.8599  -29.3298    6.0637 C   0  0  0  0  0  0  0  0  0  0  0  0
  -52.6623  -27.8723    9.1180 C   0  0  0  0  0  0  0  0  0  0  0  0
  -51.2557  -29.7236    7.1401 C   0  0  0  0  0  0  0  0  0  0  0  0
  -53.8634  -29.7553    7.7697 C   0  0  2  0  0  0  0  0  0  0  0  0
  -53.1535  -28.3841    7.7442 C   0  0  2  0  0  0  0  0  0  0  0  0
  -48.2991  -29.7671    4.7821 N   0  0  0  0  0  0  0  0  0  0  0  0
  -47.4862  -29.4300    7.0257 N   0  0  0  0  0  0  0  0  0  0  0  0
  -46.0353  -29.5292    5.2204 N   0  0  0  0  0  0  0  0  0  0  0  0
  -51.9845  -28.5011    6.8569 N   0  0  0  0  0  0  0  0  0  0  0  0
  -55.7745  -28.7213    8.8445 O   0  0  0  0  0  0  0  0  0  0  0  0
  -56.1262  -30.5710    7.5853 O   0  0  0  0  0  0  0  0  0  0  0  0
  -53.6693  -30.4261    6.5388 O   0  0  0  0  0  0  0  0  0  0  0  0
  -56.5742  -26.9169   12.6939 H   0  0  0  0  0  0  0  0  0  0  0  0
  -55.8194  -25.1114   11.1687 H   0  0  0  0  0  0  0  0  0  0  0  0
  -55.5265  -29.1620   12.5716 H   0  0  0  0  0  0  0  0  0  0  0  0
  -54.0238  -25.5450    9.5244 H   0  0  0  0  0  0  0  0  0  0  0  0
  -53.7291  -29.6056   10.9323 H   0  0  0  0  0  0  0  0  0  0  0  0
  -50.3334  -29.9624    4.5447 H   0  0  0  0  0  0  0  0  0  0  0  0
  -48.8902  -29.3614    8.5280 H   0  0  0  0  0  0  0  0  0  0  0  0
  -44.1235  -28.1743    3.6193 H   0  0  0  0  0  0  0  0  0  0  0  0
  -43.6605  -29.7564    2.9580 H   0  0  0  0  0  0  0  0  0  0  0  0
  -43.4586  -30.7148    5.1699 H   0  0  0  0  0  0  0  0  0  0  0  0
  -42.7825  -29.0904    5.4119 H   0  0  0  0  0  0  0  0  0  0  0  0
  -46.2898  -29.0366    3.1573 H   0  0  0  0  0  0  0  0  0  0  0  0
  -45.8052  -30.7171    3.5065 H   0  0  0  0  0  0  0  0  0  0  0  0
  -44.8625  -29.9850    6.9454 H   0  0  0  0  0  0  0  0  0  0  0  0
  -44.8279  -28.2853    6.4054 H   0  0  0  0  0  0  0  0  0  0  0  0
  -52.1157  -26.9284    8.9846 H   0  0  0  0  0  0  0  0  0  0  0  0
  -51.9294  -28.5700    9.5446 H   0  0  0  0  0  0  0  0  0  0  0  0
  -51.8029  -30.5559    6.6850 H   0  0  0  0  0  0  0  0  0  0  0  0
  -51.2705  -29.8785    8.2239 H   0  0  0  0  0  0  0  0  0  0  0  0
  -53.4301  -30.3883    8.5556 H   0  0  0  0  0  0  0  0  0  0  0  0
  -53.8195  -27.6408    7.2914 H   0  0  0  0  0  0  0  0  0  0  0  0
  -52.3114  -28.5075    5.8962 H   0  0  0  0  0  0  0  0  0  0  0  0
  -57.0787  -30.4937    7.8031 H   0  0  0  0  0  0  0  0  0  0  0  0
  -54.0613  -31.3113    6.6305 H   0  0  0  0  0  0  0  0  0  0  0  0
  1  2  1  0  0  0  0
  1  3  2  0  0  0  0
  2  4  2  0  0  0  0
  3  5  1  0  0  0  0
  4  8  1  0  0  0  0
  5  8  2  0  0  0  0
  6  9  1  0  0  0  0
  6 20  2  0  0  0  0
  7  9  2  0  0  0  0
  7 21  1  0  0  0  0
  8 16  1  0  0  0  0
  9 17  1  0  0  0  0
 10 20  1  0  0  0  0
 10 21  2  0  0  0  0
 10 22  1  0  0  0  0
 11 18  1  0  0  0  0
 11 24  2  0  0  0  0
 11 25  1  0  0  0  0
 12 13  1  0  0  0  0
 12 14  1  0  0  0  0
 13 15  1  0  0  0  0
 14 22  1  0  0  0  0
 15 22  1  0  0  0  0
 16 19  1  0  0  0  0
 17 23  1  0  0  0  0
 18 19  1  0  0  0  0
 18 26  1  0  0  0  0
 19 23  1  0  0  0  0
  1 27  1  0  0  0  0
  2 28  1  0  0  0  0
  3 29  1  0  0  0  0
  4 30  1  0  0  0  0
  5 31  1  0  0  0  0
  6 32  1  0  0  0  0
  7 33  1  0  0  0  0
 12 34  1  0  0  0  0
 12 35  1  0  0  0  0
 13 36  1  0  0  0  0
 13 37  1  0  0  0  0
 14 38  1  0  0  0  0
 14 39  1  0  0  0  0
 15 40  1  0  0  0  0
 15 41  1  0  0  0  0
 16 42  1  0  0  0  0
 16 43  1  0  0  0  0
 17 44  1  0  0  0  0
 17 45  1  0  0  0  0
 18 46  1  0  0  0  0
 19 47  1  0  0  0  0
 23 48  1  0  0  0  0
 25 49  1  0  0  0  0
 26 50  1  0  0  0  0
M  END
> <POSIT::Probability>
0.23

> <POSIT::Method>
HYBRID

> <ReceptorTitle>
UCSF-P4622-REFINED_LIGAND-BOUND-STATE_A__DU__LA1_A-201(A)

> <OMEGA_C>
KSRfwuvf2MGVkD9BsnFdwqPB0MHY1jFB1chcwj354sGkdj5BBmRZwjW80sHuBCNBKLtYwtDz5MG6
pC9B+zRGwvx37sG6BKlASw5Dwj3a68Gdm+5AsQhXwqbV3MEM6yFBMWNHwlZd7cHO7NNAJFA9whCf
7MGQRrZAJVddwjXu7MFWGQJBgtMwwmYQ6sHC5XBA3L4uwgkk7cERdqRAsbM2wp1a7cGY/3NAiXAz
wmaj6sGXCcJAM6ZSwoX63sFg4xFB3wVNwujJ7cFde+RAK3RXwvQK7sGwofhALZ1UwrsS48G/0PdA
STJBwvUi7sHoBplA4fE9wrRw68Gh0uBAICQ4wsw77MF9DadAHvBPwlgC5MGOa9tAERlfwlDF5cEg
gw1BOIFgwl2R9MEpu/JAZq1Wwp5o88GJPdFAA0xiwrdV18EiGktBG0dfwjXkyMECszJBFhtewshL
6cFxJUlBZhhYwjRczMHZYxhBjupWwivY7MGo6i5BcFVJwg+z78FKbpFAh49DwjHk6sGOcghBb34w
wuVk4cHQoWdAXKQuwh8N7sF6UD1ApNUtwtq39cHeb6VATiErwim56MGVLq1Azig5wuxK6MGWEUpA
fzg3wqq89cE8amBAL3Mzwkjh78HpQN5AwU8zwk5I4sEf+cxAfHZQwlNt18G+wA9BsrdPwlmP5MHG
thhBITZPwnpy9MG669VA+hRNwjMH78FAlQNBa7hVwi0b88Hq4whBNkdXwmwg3cFmU+lA6z5RwlkP
5MG6rbxAnlBkwirz88GrsvlA0T5YwqN9+sFoLdRA

> <OMEGA_E>
CiuiwA==

> <OMEGA_NBR>
     46320

$$$$
CACHE3HI_1702_22
  -OEChem-03092622523D

 32 34  0     0  0  0  0  0  0999 V2000
  -54.1257  -26.0766   10.4938 C   0  0  0  0  0  0  0  0  0  0  0  0
  -55.1220  -26.3867   11.4195 C   0  0  0  0  0  0  0  0  0  0  0  0
  -53.9811  -26.8482    9.3409 C   0  0  0  0  0  0  0  0  0  0  0  0
  -50.6684  -29.4523    7.2124 C   0  0  0  0  0  0  0  0  0  0  0  0
  -49.2964  -29.3550    6.9565 C   0  0  0  0  0  0  0  0  0  0  0  0
  -55.9737  -27.4679   11.1922 C   0  0  0  0  0  0  0  0  0  0  0  0
  -51.0801  -30.3799    4.9919 C   0  0  0  0  0  0  0  0  0  0  0  0
  -54.8328  -27.9293    9.1136 C   0  0  0  0  0  0  0  0  0  0  0  0
  -51.5527  -29.9607    6.2383 C   0  0  0  0  0  0  0  0  0  0  0  0
  -49.7256  -30.2702    4.7763 C   0  0  0  0  0  0  0  0  0  0  0  0
  -48.8531  -29.7752    5.7214 C   0  0  0  0  0  0  0  0  0  0  0  0
  -55.8291  -28.2394   10.0392 C   0  0  0  0  0  0  0  0  0  0  0  0
  -47.6505  -30.2867    3.9767 C   0  0  0  0  0  0  0  0  0  0  0  0
  -54.6255  -28.7085    7.8665 C   0  0  0  0  0  0  0  0  0  0  0  0
  -53.0107  -30.0511    6.5453 C   0  0  0  0  0  0  0  0  0  0  0  0
  -48.9695  -30.5911    3.6807 N   0  0  0  0  0  0  0  0  0  0  0  0
  -53.3724  -29.2858    7.7103 N   0  0  0  0  0  0  0  0  0  0  0  0
  -46.6866  -30.4389    3.2368 O   0  0  0  0  0  0  0  0  0  0  0  0
  -55.5385  -28.7860    7.0487 O   0  0  0  0  0  0  0  0  0  0  0  0
  -47.5399  -29.7613    5.2772 O   0  0  0  0  0  0  0  0  0  0  0  0
  -57.1457  -29.8435    9.7626 I   0  0  0  0  0  0  0  0  0  0  0  0
  -53.4625  -25.2350   10.6715 H   0  0  0  0  0  0  0  0  0  0  0  0
  -55.2341  -25.7861   12.3175 H   0  0  0  0  0  0  0  0  0  0  0  0
  -53.2001  -26.5953    8.6280 H   0  0  0  0  0  0  0  0  0  0  0  0
  -51.0511  -29.1298    8.1781 H   0  0  0  0  0  0  0  0  0  0  0  0
  -48.6153  -28.9645    7.7035 H   0  0  0  0  0  0  0  0  0  0  0  0
  -56.7424  -27.6887   11.9286 H   0  0  0  0  0  0  0  0  0  0  0  0
  -51.7476  -30.7719    4.2331 H   0  0  0  0  0  0  0  0  0  0  0  0
  -53.6147  -29.6814    5.7059 H   0  0  0  0  0  0  0  0  0  0  0  0
  -53.3196  -31.0894    6.7261 H   0  0  0  0  0  0  0  0  0  0  0  0
  -49.3213  -30.9804    2.8150 H   0  0  0  0  0  0  0  0  0  0  0  0
  -52.6481  -29.1227    8.4051 H   0  0  0  0  0  0  0  0  0  0  0  0
  1  2  1  0  0  0  0
  1  3  2  0  0  0  0
  2  6  2  0  0  0  0
  3  8  1  0  0  0  0
  4  5  2  0  0  0  0
  4  9  1  0  0  0  0
  5 11  1  0  0  0  0
  6 12  1  0  0  0  0
  7  9  2  0  0  0  0
  7 10  1  0  0  0  0
  8 12  2  0  0  0  0
  8 14  1  0  0  0  0
  9 15  1  0  0  0  0
 10 11  2  0  0  0  0
 10 16  1  0  0  0  0
 11 20  1  0  0  0  0
 12 21  1  0  0  0  0
 13 16  1  0  0  0  0
 13 18  2  0  0  0  0
 13 20  1  0  0  0  0
 14 17  1  0  0  0  0
 14 19  2  0  0  0  0
 15 17  1  0  0  0  0
  1 22  1  0  0  0  0
  2 23  1  0  0  0  0
  3 24  1  0  0  0  0
  4 25  1  0  0  0  0
  5 26  1  0  0  0  0
  6 27  1  0  0  0  0
  7 28  1  0  0  0  0
 15 29  1  0  0  0  0
 15 30  1  0  0  0  0
 16 31  1  0  0  0  0
 17 32  1  0  0  0  0
M  END
> <POSIT::Probability>
0.14

> <POSIT::Method>
HYBRID

> <ReceptorTitle>
UCSF-P4622-REFINED_LIGAND-BOUND-STATE_A__DU__LA1_A-201(A)

> <OMEGA_C>
rIBYwuGc0MGq5idB7HxcwvoX08EvtjZBouxXwgPJ1sFBdBVBaKxKwlue68Gky+ZAhC9FwgjX6sHj
m95AGeVfwi2+28FOEzNBD1JMwiIK88F+vZ9A0FRbwjdv38Ff0RFB7TVOwpyv78ECoMdADOdGwmop
8sF215hAmWlDwoQz7sHaFbdACVFfwljq4cGuoCBBKZo+wkBL8sFYgn5AkIBawvaq5cGquvtA/wpU
wpho8MFJc9FAuOBDwpy69MF4kGtAUn1VwkBJ6sGCuvZAG786ws+C88EAJ09AZSdewstJ5sHIjuFA
2Cg+wioX7sGr3qhALJVkwoi/7sF0MxxBndlVwlvhycFNvipBtu9cwulJzsFiFEVB6MxUwjnD1MEu
DApBUDRMwuUJ6cGe2QJBFHZCwl+358H+gvZAL/hiwn+C3cF52z5Bk/1Ows0s9sHjdYdAeHVWwm5z
7cFZlrZAUkdVwga3+MGGPNdAAElFwurX98HeKDRAnJdSwkP76MF7ewZB

> <OMEGA_E>
yUakwA==

> <OMEGA_NBR>
     47455

$$$$
CACHE3HI_1702_25
  -OEChem-03092622523D

 36 39  0     0  0  0  0  0  0999 V2000
  -45.4728  -29.2621    4.4492 C   0  0  0  0  0  0  0  0  0  0  0  0
  -45.1417  -28.9132    5.7567 C   0  0  0  0  0  0  0  0  0  0  0  0
  -46.7775  -29.6446    4.1177 C   0  0  0  0  0  0  0  0  0  0  0  0
  -52.3017  -27.5081    9.2613 C   0  0  0  0  0  0  0  0  0  0  0  0
  -46.1005  -28.9351    6.7731 C   0  0  0  0  0  0  0  0  0  0  0  0
  -52.7442  -26.3055    9.8227 C   0  0  0  0  0  0  0  0  0  0  0  0
  -49.1465  -30.0014    5.1501 C   0  0  0  0  0  0  0  0  0  0  0  0
  -53.9164  -28.7867   10.5723 C   0  0  0  0  0  0  0  0  0  0  0  0
  -47.7618  -29.6735    5.1259 C   0  0  0  0  0  0  0  0  0  0  0  0
  -52.8832  -28.7383    9.6328 C   0  0  0  0  0  0  0  0  0  0  0  0
  -47.4014  -29.3191    6.4277 C   0  0  0  0  0  0  0  0  0  0  0  0
  -54.3258  -27.5847   11.1023 C   0  0  0  0  0  0  0  0  0  0  0  0
  -53.7646  -26.3774   10.7458 C   0  0  0  0  0  0  0  0  0  0  0  0
  -49.5910  -29.8425    6.4422 C   0  0  0  0  0  0  0  0  0  0  0  0
  -55.3110  -25.9310   12.2160 C   0  0  0  0  0  0  0  0  0  0  0  0
  -50.9061  -30.0534    6.9593 C   0  0  0  0  0  0  0  0  0  0  0  0
  -52.3837  -30.0100    9.0095 C   0  0  0  0  0  0  0  0  0  0  0  0
  -48.5314  -29.4309    7.2058 N   0  0  0  0  0  0  0  0  0  0  0  0
  -55.2969  -27.3034   12.0259 N   0  0  0  0  0  0  0  0  0  0  0  0
  -51.1196  -29.8215    8.3348 N   0  0  0  0  0  0  0  0  0  0  0  0
  -56.0492  -25.3101   12.9705 O   0  0  0  0  0  0  0  0  0  0  0  0
  -51.8443  -30.4516    6.2243 O   0  0  0  0  0  0  0  0  0  0  0  0
  -54.3409  -25.3062   11.4109 O   0  0  0  0  0  0  0  0  0  0  0  0
  -44.7096  -29.2394    3.6757 H   0  0  0  0  0  0  0  0  0  0  0  0
  -44.1220  -28.6195    5.9917 H   0  0  0  0  0  0  0  0  0  0  0  0
  -47.0215  -29.9151    3.0945 H   0  0  0  0  0  0  0  0  0  0  0  0
  -51.4980  -27.4864    8.5286 H   0  0  0  0  0  0  0  0  0  0  0  0
  -45.8415  -28.6633    7.7909 H   0  0  0  0  0  0  0  0  0  0  0  0
  -52.2987  -25.3594    9.5388 H   0  0  0  0  0  0  0  0  0  0  0  0
  -49.7483  -30.3205    4.3095 H   0  0  0  0  0  0  0  0  0  0  0  0
  -54.3723  -29.7244   10.8683 H   0  0  0  0  0  0  0  0  0  0  0  0
  -52.2478  -30.7854    9.7707 H   0  0  0  0  0  0  0  0  0  0  0  0
  -53.1000  -30.3958    8.2765 H   0  0  0  0  0  0  0  0  0  0  0  0
  -48.5697  -29.2369    8.1972 H   0  0  0  0  0  0  0  0  0  0  0  0
  -55.8920  -27.9838   12.4816 H   0  0  0  0  0  0  0  0  0  0  0  0
  -50.3243  -29.5619    8.9087 H   0  0  0  0  0  0  0  0  0  0  0  0
  1  2  1  0  0  0  0
  1  3  2  0  0  0  0
  2  5  2  0  0  0  0
  3  9  1  0  0  0  0
  4  6  2  0  0  0  0
  4 10  1  0  0  0  0
  5 11  1  0  0  0  0
  6 13  1  0  0  0  0
  7  9  1  0  0  0  0
  7 14  2  0  0  0  0
  8 10  2  0  0  0  0
  8 12  1  0  0  0  0
  9 11  2  0  0  0  0
 10 17  1  0  0  0  0
 11 18  1  0  0  0  0
 12 13  2  0  0  0  0
 12 19  1  0  0  0  0
 13 23  1  0  0  0  0
 14 16  1  0  0  0  0
 14 18  1  0  0  0  0
 15 19  1  0  0  0  0
 15 21  2  0  0  0  0
 15 23  1  0  0  0  0
 16 20  1  0  0  0  0
 16 22  2  0  0  0  0
 17 20  1  0  0  0  0
  1 24  1  0  0  0  0
  2 25  1  0  0  0  0
  3 26  1  0  0  0  0
  4 27  1  0  0  0  0
  5 28  1  0  0  0  0
  6 29  1  0  0  0  0
  7 30  1  0  0  0  0
  8 31  1  0  0  0  0
 17 32  1  0  0  0  0
 17 33  1  0  0  0  0
 18 34  1  0  0  0  0
 19 35  1  0  0  0  0
 20 36  1  0  0  0  0
M  END
> <POSIT::Probability>
0.14

> <POSIT::Method>
HYBRID

> <ReceptorTitle>
UCSF-P4622-REFINED_LIGAND-BOUND-STATE_A__DU__LA1_A-201(A)

> <OMEGA_C>
LeQ1wtgY6sFAYI5AGpE0wlZO58FEN7hAJxw7wg0o7cF8xINA8zRRwqwQ3MFiLhRB4WY4wgF758Ef
vdhABvpSwrhx0sHqKR1B+ZVEwuUC8MF1zaRAcKpXwhpL5sH6JylBCgw/wltj7cGJB6RAXYhTwvHn
5cEXIBpBAJs9wpGN6sFYr81AqE1ZwoOt3MH3ojFB6Q5XwgMF08H/7itBNV1Gwmy97sHPJs5Aaz5d
wq9yz8GwdENB5Z9LwlZt8MHIst5A8ohRwpAU8MHeJhBBMCBCwnRy68E3luZABzBdwlVt2sH2aUBB
hHpMwneS7sGLWwVBWzJgwgB7ysEgh09BlmBPwuWc88GRLcdAEV1ZwgVzysE0kzZBrNYywkDq6cGQ
PmtA8nwwwsb05MHLu79AABY8wh1S78EjDEZA+/1Nwh7k28FXdQhBql03wmtO5cHOTvlA2jFRwv/f
ysHYnhhBRP5GwlWQ8sEt54lARH1ZwprL7cGg5C1Bwv1Qwo9I9sHIVBxBW2ZUwpgq88GlbARBVUdC
wkLl6cG0JwNBZ5FfwtTe38GYtEdBD0xJwst+7MHbiQ5B

> <OMEGA_E>
al3owA==

> <OMEGA_NBR>
     48675

$$$$
CACHE3HI_1702_26
  -OEChem-03092622523D

 32 34  0     0  0  0  0  0  0999 V2000
  -46.9328  -29.3984    6.5836 C   0  0  0  0  0  0  0  0  0  0  0  0
  -48.1577  -29.7046    7.1764 C   0  0  0  0  0  0  0  0  0  0  0  0
  -52.1630  -27.5353    9.1601 C   0  0  0  0  0  0  0  0  0  0  0  0
  -52.7294  -26.3511    9.6440 C   0  0  0  0  0  0  0  0  0  0  0  0
  -46.8623  -29.1648    5.2103 C   0  0  0  0  0  0  0  0  0  0  0  0
  -49.2414  -29.5433    5.0230 C   0  0  0  0  0  0  0  0  0  0  0  0
  -53.5384  -28.8808   10.6631 C   0  0  0  0  0  0  0  0  0  0  0  0
  -49.3119  -29.7769    6.3963 C   0  0  0  0  0  0  0  0  0  0  0  0
  -52.5644  -28.7895    9.6653 C   0  0  0  0  0  0  0  0  0  0  0  0
  -54.0733  -27.6959   11.1139 C   0  0  0  0  0  0  0  0  0  0  0  0
  -53.6883  -26.4654   10.6267 C   0  0  0  0  0  0  0  0  0  0  0  0
  -48.0165  -29.2371    4.4302 C   0  0  0  0  0  0  0  0  0  0  0  0
  -55.2095  -26.0834   12.1407 C   0  0  0  0  0  0  0  0  0  0  0  0
  -50.6152  -30.1040    7.0286 C   0  0  0  0  0  0  0  0  0  0  0  0
  -51.9394  -30.0331    9.1256 C   0  0  0  0  0  0  0  0  0  0  0  0
  -55.0286  -27.4550   12.0649 N   0  0  0  0  0  0  0  0  0  0  0  0
  -50.7458  -29.7604    8.3676 N   0  0  0  0  0  0  0  0  0  0  0  0
  -55.9854  -25.4932   12.8820 O   0  0  0  0  0  0  0  0  0  0  0  0
  -51.4818  -30.6638    6.3622 O   0  0  0  0  0  0  0  0  0  0  0  0
  -54.3657  -25.4182   11.2323 O   0  0  0  0  0  0  0  0  0  0  0  0
  -47.9284  -28.9483    2.7358 Cl  0  0  0  0  0  0  0  0  0  0  0  0
  -46.0346  -29.3413    7.1916 H   0  0  0  0  0  0  0  0  0  0  0  0
  -48.2012  -29.8847    8.2475 H   0  0  0  0  0  0  0  0  0  0  0  0
  -51.4035  -27.4803    8.3834 H   0  0  0  0  0  0  0  0  0  0  0  0
  -52.4223  -25.3865    9.2573 H   0  0  0  0  0  0  0  0  0  0  0  0
  -45.9011  -28.9267    4.7619 H   0  0  0  0  0  0  0  0  0  0  0  0
  -50.1434  -29.6001    4.4172 H   0  0  0  0  0  0  0  0  0  0  0  0
  -53.8563  -29.8373   11.0617 H   0  0  0  0  0  0  0  0  0  0  0  0
  -51.6665  -30.7219    9.9363 H   0  0  0  0  0  0  0  0  0  0  0  0
  -52.6297  -30.5761    8.4662 H   0  0  0  0  0  0  0  0  0  0  0  0
  -55.5100  -28.1601   12.6089 H   0  0  0  0  0  0  0  0  0  0  0  0
  -49.9580  -29.3552    8.8670 H   0  0  0  0  0  0  0  0  0  0  0  0
  1  2  1  0  0  0  0
  1  5  2  0  0  0  0
  2  8  2  0  0  0  0
  3  4  2  0  0  0  0
  3  9  1  0  0  0  0
  4 11  1  0  0  0  0
  5 12  1  0  0  0  0
  6  8  1  0  0  0  0
  6 12  2  0  0  0  0
  7  9  2  0  0  0  0
  7 10  1  0  0  0  0
  8 14  1  0  0  0  0
  9 15  1  0  0  0  0
 10 11  2  0  0  0  0
 10 16  1  0  0  0  0
 11 20  1  0  0  0  0
 12 21  1  0  0  0  0
 13 16  1  0  0  0  0
 13 18  2  0  0  0  0
 13 20  1  0  0  0  0
 14 17  1  0  0  0  0
 14 19  2  0  0  0  0
 15 17  1  0  0  0  0
  1 22  1  0  0  0  0
  2 23  1  0  0  0  0
  3 24  1  0  0  0  0
  4 25  1  0  0  0  0
  5 26  1  0  0  0  0
  6 27  1  0  0  0  0
  7 28  1  0  0  0  0
 15 29  1  0  0  0  0
 15 30  1  0  0  0  0
 16 31  1  0  0  0  0
 17 32  1  0  0  0  0
M  END
> <POSIT::Probability>
0.18

> <POSIT::Method>
HYBRID

> <ReceptorTitle>
UCSF-P4622-REFINED_LIGAND-BOUND-STATE_A__DU__LA1_A-201(A)

> <OMEGA_C>
Kbs7wvgv68HErNJAf6FAwhaj7cFepeVA9qZQwmRI3MHbjxJB4upSwhzP0sG5TRpBAHM7wnlR6cHi
uqZAO/dEwqJY7MGIvKBAUCdWwsoL58HxmypBbD9FwiY37sHcrsxA80FSwvtQ5sEOpRpBFktYwkGR
3cFn0jFB3sBWwjq508EjBypB7RBAwovl6cFixI1Af9ZcwsCq0MFtQEJB+XVKwv/U8MF46uBA+MFP
wtxD8MFcAhJBVB1cwtKj28HZCUFBtvtKwkIV7sHe4QVBEPFfwhzyy8GbHE5BWe1NwmRP9cGEl8tA
d3ZZwpBYy8GbtzNBs7Y/whyW58HIFi9AdyM4wvq66sGeIeZAAM5AwuYT78Hq9QNBOp1NwqbX28Fe
IgZBeLBRwpAXy8HpHRRBv5o3wvRp58HeYZhA2ZJIwu7M7MGkWY1A0mxXwrmy7sGl/DBBeapOwmHG
9cE9+x5B1oRSwt+b9MFedQdBOgpews9H4cEqvklBBtVHwnTX6sEk3w1B

> <OMEGA_E>
0aipwA==

> <OMEGA_NBR>
     49811

$$$$
CACHE3HI_1702_27
  -OEChem-03092622523D

 36 38  0     0  0  0  0  0  0999 V2000
  -56.1718  -26.3086   12.0931 C   0  0  0  0  0  0  0  0  0  0  0  0
  -55.1193  -25.4821   11.6995 C   0  0  0  0  0  0  0  0  0  0  0  0
  -56.3587  -27.5429   11.4710 C   0  0  0  0  0  0  0  0  0  0  0  0
  -54.2537  -25.8899   10.6844 C   0  0  0  0  0  0  0  0  0  0  0  0
  -55.4931  -27.9507   10.4558 C   0  0  0  0  0  0  0  0  0  0  0  0
  -50.1164  -29.7904    5.0190 C   0  0  0  0  0  0  0  0  0  0  0  0
  -48.9121  -29.7668    4.3107 C   0  0  0  0  0  0  0  0  0  0  0  0
  -48.9561  -29.3470    7.1239 C   0  0  0  0  0  0  0  0  0  0  0  0
  -54.4407  -27.1242   10.0623 C   0  0  0  0  0  0  0  0  0  0  0  0
  -50.1384  -29.5820    6.4137 C   0  0  0  0  0  0  0  0  0  0  0  0
  -47.7701  -29.5337    5.0421 C   0  0  0  0  0  0  0  0  0  0  0  0
  -47.7808  -29.3292    6.4051 C   0  0  0  0  0  0  0  0  0  0  0  0
  -45.6975  -29.2010    5.7762 C   0  0  0  0  0  0  0  0  0  0  0  0
  -51.4416  -29.6135    7.1405 C   0  0  0  0  0  0  0  0  0  0  0  0
  -53.5117  -27.5623    8.9723 C   0  0  0  0  0  0  0  0  0  0  0  0
  -46.4612  -29.4528    4.6479 N   0  0  0  0  0  0  0  0  0  0  0  0
  -51.3414  -29.0623    8.4671 N   0  0  0  0  0  0  0  0  0  0  0  0
  -44.4809  -29.0657    5.8140 O   0  0  0  0  0  0  0  0  0  0  0  0
  -52.2815  -28.8505   10.8779 O   0  0  0  0  0  0  0  0  0  0  0  0
  -53.5772  -30.1718    9.1647 O   0  0  0  0  0  0  0  0  0  0  0  0
  -46.5116  -29.1154    6.9205 O   0  0  0  0  0  0  0  0  0  0  0  0
  -52.7144  -29.0579    9.5090 S   0  0  0  0  0  0  0  0  0  0  0  0
  -56.8457  -25.9912   12.8834 H   0  0  0  0  0  0  0  0  0  0  0  0
  -54.9734  -24.5212   12.1841 H   0  0  0  0  0  0  0  0  0  0  0  0
  -57.1782  -28.1865   11.7771 H   0  0  0  0  0  0  0  0  0  0  0  0
  -53.4366  -25.2391   10.3844 H   0  0  0  0  0  0  0  0  0  0  0  0
  -55.6462  -28.9146    9.9778 H   0  0  0  0  0  0  0  0  0  0  0  0
  -51.0447  -29.9718    4.4826 H   0  0  0  0  0  0  0  0  0  0  0  0
  -48.8888  -29.9253    3.2393 H   0  0  0  0  0  0  0  0  0  0  0  0
  -48.9614  -29.1849    8.1960 H   0  0  0  0  0  0  0  0  0  0  0  0
  -52.2086  -29.0410    6.6015 H   0  0  0  0  0  0  0  0  0  0  0  0
  -51.8219  -30.6391    7.2396 H   0  0  0  0  0  0  0  0  0  0  0  0
  -52.7372  -26.8172    8.7701 H   0  0  0  0  0  0  0  0  0  0  0  0
  -54.0438  -27.7754    8.0412 H   0  0  0  0  0  0  0  0  0  0  0  0
  -46.1239  -29.5604    3.6996 H   0  0  0  0  0  0  0  0  0  0  0  0
  -50.7181  -28.2327    8.5647 H   0  0  0  0  0  0  0  0  0  0  0  0
  1  2  1  0  0  0  0
  1  3  2  0  0  0  0
  2  4  2  0  0  0  0
  3  5  1  0  0  0  0
  4  9  1  0  0  0  0
  5  9  2  0  0  0  0
  6  7  2  0  0  0  0
  6 10  1  0  0  0  0
  7 11  1  0  0  0  0
  8 10  2  0  0  0  0
  8 12  1  0  0  0  0
  9 15  1  0  0  0  0
 10 14  1  0  0  0  0
 11 12  2  0  0  0  0
 11 16  1  0  0  0  0
 12 21  1  0  0  0  0
 13 16  1  0  0  0  0
 13 18  2  0  0  0  0
 13 21  1  0  0  0  0
 14 17  1  0  0  0  0
 15 22  1  0  0  0  0
 17 22  1  0  0  0  0
 19 22  2  0  0  0  0
 20 22  2  0  0  0  0
  1 23  1  0  0  0  0
  2 24  1  0  0  0  0
  3 25  1  0  0  0  0
  4 26  1  0  0  0  0
  5 27  1  0  0  0  0
  6 28  1  0  0  0  0
  7 29  1  0  0  0  0
  8 30  1  0  0  0  0
 14 31  1  0  0  0  0
 14 32  1  0  0  0  0
 15 33  1  0  0  0  0
 15 34  1  0  0  0  0
 16 35  1  0  0  0  0
 17 36  1  0  0  0  0
M  END
> <POSIT::Probability>
0.23

> <POSIT::Method>
HYBRID

> <ReceptorTitle>
UCSF-P4622-REFINED_LIGAND-BOUND-STATE_A__DU__LA1_A-201(A)

> <OMEGA_C>
6q9gwhB40sFHfUFBLnpcwmTby8FAMTtBR29hwu5X3MEwiTdB1wNZwnMez8Eo8ypB8Phdwv2a38EZ
SydBK3dIwqVS7sFDm6BA8qVDwlAi7sF08YlAFNNDwprG6sH29uNAOsNZwm3+2MEG/yBBrY1Iwuqn
7ME+Pc1AoRQ/wvZE7MHuWKFAgR8/wjSi6sFU9sxAOco2wo6b6cHk1rhAMcRNwnjo7MG8fuRA8AtW
wqR/3MGajg9BUdg5wkCf68Hxu5RAjV1Nwpl/6MFSeQdBZuwxwnmG6MHuC7pANSBRwtjN5sG9Cy5B
Dk9Wwt9f8cGdohJB5As6wmrs6MEOdd1Ah9tSwqJ26MHNJBhBAGJjwhDuz8E5Ik5BzORbwlgrxMEX
8kJBcrZkwvZ94cEWbzxBFr9VwpzpycGoJiZBrZVewhRR58HtpB9BzS1Mwi3G78EmcY9AGI5Dwgdn
78F4UU9AethDwsF66cHcIgNBj9VQwg1U6MG7P9NAqElPwvkc9cGYqudA3PJSwpaJ1sE1UgxB1yxY
wvMz3sGOqABB5n44ws177MGMxWxAXd9KwqDc4cEBCQlB

> <OMEGA_E>
ofLcwA==

> <OMEGA_NBR>
     51026

$$$$
CACHE3HI_1702_48
  -OEChem-03092622523D

 41 45  0     0  0  0  0  0  0999 V2000
  -45.7893  -33.6302    0.4915 C   0  0  0  0  0  0  0  0  0  0  0  0
  -45.0622  -26.3398    0.7032 C   0  0  0  0  0  0  0  0  0  0  0  0
  -44.4139  -33.6804    0.2772 C   0  0  0  0  0  0  0  0  0  0  0  0
  -43.7030  -26.5493    0.4823 C   0  0  0  0  0  0  0  0  0  0  0  0
  -47.5388  -29.3019    5.1651 C   0  0  0  0  0  0  0  0  0  0  0  0
  -46.4102  -32.4097    0.7565 C   0  0  0  0  0  0  0  0  0  0  0  0
  -45.9135  -27.4272    0.9019 C   0  0  0  0  0  0  0  0  0  0  0  0
  -47.8269  -29.2736    6.5321 C   0  0  0  0  0  0  0  0  0  0  0  0
  -43.6595  -32.5092    0.3222 C   0  0  0  0  0  0  0  0  0  0  0  0
  -43.1943  -27.8464    0.4554 C   0  0  0  0  0  0  0  0  0  0  0  0
  -49.7547  -30.1985    4.6559 C   0  0  0  0  0  0  0  0  0  0  0  0
  -48.4947  -29.7603    4.2348 C   0  0  0  0  0  0  0  0  0  0  0  0
  -45.6613  -31.2252    0.8081 C   0  0  0  0  0  0  0  0  0  0  0  0
  -45.4128  -28.7377    0.8798 C   0  0  0  0  0  0  0  0  0  0  0  0
  -49.0752  -29.7126    6.9092 C   0  0  0  0  0  0  0  0  0  0  0  0
  -44.2821  -31.2860    0.5811 C   0  0  0  0  0  0  0  0  0  0  0  0
  -44.0482  -28.9366    0.6480 C   0  0  0  0  0  0  0  0  0  0  0  0
  -50.0161  -30.1626    6.0083 C   0  0  0  0  0  0  0  0  0  0  0  0
  -50.9278  -30.3134    7.9826 C   0  0  0  0  0  0  0  0  0  0  0  0
  -48.1592  -29.7762    2.7882 C   0  0  0  0  0  0  0  0  0  0  0  0
  -46.3267  -29.9105    1.1210 C   0  0  0  0  0  0  0  0  0  0  0  0
  -49.6487  -29.8074    8.1490 N   0  0  0  0  0  0  0  0  0  0  0  0
  -46.8141  -29.9026    2.4829 N   0  0  0  0  0  0  0  0  0  0  0  0
  -51.7419  -30.5359    8.8700 O   0  0  0  0  0  0  0  0  0  0  0  0
  -49.0604  -29.6603    1.9619 O   0  0  0  0  0  0  0  0  0  0  0  0
  -43.4639  -30.1806    0.5942 O   0  0  0  0  0  0  0  0  0  0  0  0
  -51.1965  -30.5523    6.6224 O   0  0  0  0  0  0  0  0  0  0  0  0
  -46.3783  -34.5420    0.4552 H   0  0  0  0  0  0  0  0  0  0  0  0
  -45.4596  -25.3292    0.7236 H   0  0  0  0  0  0  0  0  0  0  0  0
  -43.9299  -34.6309    0.0732 H   0  0  0  0  0  0  0  0  0  0  0  0
  -43.0404  -25.7024    0.3298 H   0  0  0  0  0  0  0  0  0  0  0  0
  -46.5630  -28.9638    4.8233 H   0  0  0  0  0  0  0  0  0  0  0  0
  -47.4839  -32.3876    0.9264 H   0  0  0  0  0  0  0  0  0  0  0  0
  -46.9712  -27.2470    1.0779 H   0  0  0  0  0  0  0  0  0  0  0  0
  -47.0973  -28.9226    7.2519 H   0  0  0  0  0  0  0  0  0  0  0  0
  -42.5875  -32.5561    0.1496 H   0  0  0  0  0  0  0  0  0  0  0  0
  -42.1332  -28.0023    0.2791 H   0  0  0  0  0  0  0  0  0  0  0  0
  -50.4978  -30.5533    3.9504 H   0  0  0  0  0  0  0  0  0  0  0  0
  -47.1980  -29.8027    0.4620 H   0  0  0  0  0  0  0  0  0  0  0  0
  -49.2075  -29.5511    9.0233 H   0  0  0  0  0  0  0  0  0  0  0  0
  -46.1193  -29.9305    3.2208 H   0  0  0  0  0  0  0  0  0  0  0  0
  1  3  1  0  0  0  0
  1  6  2  0  0  0  0
  2  4  1  0  0  0  0
  2  7  2  0  0  0  0
  3  9  2  0  0  0  0
  4 10  2  0  0  0  0
  5  8  2  0  0  0  0
  5 12  1  0  0  0  0
  6 13  1  0  0  0  0
  7 14  1  0  0  0  0
  8 15  1  0  0  0  0
  9 16  1  0  0  0  0
 10 17  1  0  0  0  0
 11 12  2  0  0  0  0
 11 18  1  0  0  0  0
 12 20  1  0  0  0  0
 13 16  2  0  0  0  0
 13 21  1  0  0  0  0
 14 17  2  0  0  0  0
 14 21  1  0  0  0  0
 15 18  2  0  0  0  0
 15 22  1  0  0  0  0
 16 26  1  0  0  0  0
 17 26  1  0  0  0  0
 18 27  1  0  0  0  0
 19 22  1  0  0  0  0
 19 24  2  0  0  0  0
 19 27  1  0  0  0  0
 20 23  1  0  0  0  0
 20 25  2  0  0  0  0
 21 23  1  0  0  0  0
  1 28  1  0  0  0  0
  2 29  1  0  0  0  0
  3 30  1  0  0  0  0
  4 31  1  0  0  0  0
  5 32  1  0  0  0  0
  6 33  1  0  0  0  0
  7 34  1  0  0  0  0
  8 35  1  0  0  0  0
  9 36  1  0  0  0  0
 10 37  1  0  0  0  0
 11 38  1  0  0  0  0
 21 39  1  0  0  0  0
 22 40  1  0  0  0  0
 23 41  1  0  0  0  0
M  END
> <POSIT::Probability>
0.02

> <POSIT::Method>
FRED

> <ReceptorTitle>
UCSF-P4622-REFINED_LIGAND-BOUND-STATE_A__DU__LA1_A-201(A)

> <OMEGA_C>
Ryg3wliFBsLYo/s+uD80wvO30sHsBTQ/4qcxwrG4BsKA840+5s8uwuVk1MHo7PY+tSc+wl1q6sEu
SKVAE6Q5wo2jAcKmqUE/cqc3wvpq28EG4GY/t04/wj0w6sHBBtFAU6MuwmMJAsKw86Q+88YswljF
3sHcJek+1gRHwqGW8cF0/ZRAhvpBwiIV7sEUg4dAMKU2wiXN+cFo304/wqY1wuLm5cHMOGE/90xE
wlKz7cFZGN1A2CAxwqZJ+sHGwRQ/VjEwwjV+58Ey4iU/ghBIwglN8cEORMBAHbZLwsSB8sHJcf9A
DqNAwqs17sHMcTJAhk45wqBI78FWfY8/TphGwpN17sF6YgJBsEE7wnM478EZ5x5At/dOwnhJ9MF3
6w1B4z1EwlZI7cEWIPs/AdstwvRx8cGEHxg/LslMwhtr9MGB6tNAWYM5wgwrCsIIFek+qNY1wjui
ysEmPTk/RLgvwhOGCsKw1JU9XCkswpqezcEA1ag+gEA6wta158EwWJpAjO89wvCMAcJyJ20/guI7
wvH52cEy94k/l2M8woph58E3D+hAkVkqwnE5AsKIPBk+cogowqME4MGk444+w/1JwhRt9MFG03xA
v8o8wthr7sGYkew+f9REwrBo7MGUXxBBL3o4wqlx78EYIU5A

> <OMEGA_E>
Rs8WwQ==

> <OMEGA_NBR>
     52343

$$$$
CACHE3HI_1702_86
  -OEChem-03092622523D

 39 42  0     0  0  0  0  0  0999 V2000
  -45.7336  -26.2858   -0.0344 C   0  0  0  0  0  0  0  0  0  0  0  0
  -44.3477  -26.1431   -0.1009 C   0  0  0  0  0  0  0  0  0  0  0  0
  -46.2902  -27.3954    0.6014 C   0  0  0  0  0  0  0  0  0  0  0  0
  -41.1048  -30.4047    1.6783 C   0  0  0  0  0  0  0  0  0  0  0  0
  -41.5094  -31.1429    2.7906 C   0  0  0  0  0  0  0  0  0  0  0  0
  -43.5185  -27.1096    0.4685 C   0  0  0  0  0  0  0  0  0  0  0  0
  -45.4610  -28.3620    1.1708 C   0  0  0  0  0  0  0  0  0  0  0  0
  -41.9570  -29.4456    1.1310 C   0  0  0  0  0  0  0  0  0  0  0  0
  -47.5313  -28.9986    4.0284 C   0  0  0  0  0  0  0  0  0  0  0  0
  -42.7655  -30.9220    3.3556 C   0  0  0  0  0  0  0  0  0  0  0  0
  -48.8972  -28.9001    4.3148 C   0  0  0  0  0  0  0  0  0  0  0  0
  -47.0089  -29.4478    6.3706 C   0  0  0  0  0  0  0  0  0  0  0  0
  -44.0751  -28.2193    1.1043 C   0  0  0  0  0  0  0  0  0  0  0  0
  -43.2132  -29.2247    1.6960 C   0  0  0  0  0  0  0  0  0  0  0  0
  -46.5952  -29.2704    5.0478 C   0  0  0  0  0  0  0  0  0  0  0  0
  -48.3591  -29.3446    6.6144 C   0  0  0  0  0  0  0  0  0  0  0  0
  -43.6177  -29.9629    2.8082 C   0  0  0  0  0  0  0  0  0  0  0  0
  -49.2820  -29.0796    5.6256 C   0  0  0  0  0  0  0  0  0  0  0  0
  -50.4046  -29.2732    7.4842 C   0  0  0  0  0  0  0  0  0  0  0  0
  -45.1819  -29.3664    4.7165 C   0  0  0  0  0  0  0  0  0  0  0  0
  -49.0651  -29.4658    7.7815 N   0  0  0  0  0  0  0  0  0  0  0  0
  -44.8869  -29.7620    3.4045 N   0  0  0  0  0  0  0  0  0  0  0  0
  -51.3367  -29.3077    8.2778 O   0  0  0  0  0  0  0  0  0  0  0  0
  -44.3384  -29.1212    5.5940 O   0  0  0  0  0  0  0  0  0  0  0  0
  -50.5795  -29.0230    6.1107 O   0  0  0  0  0  0  0  0  0  0  0  0
  -46.3793  -25.5337   -0.4781 H   0  0  0  0  0  0  0  0  0  0  0  0
  -43.9142  -25.2787   -0.5954 H   0  0  0  0  0  0  0  0  0  0  0  0
  -47.3693  -27.5067    0.6530 H   0  0  0  0  0  0  0  0  0  0  0  0
  -40.1272  -30.5766    1.2376 H   0  0  0  0  0  0  0  0  0  0  0  0
  -40.8454  -31.8892    3.2170 H   0  0  0  0  0  0  0  0  0  0  0  0
  -42.4399  -26.9842    0.4075 H   0  0  0  0  0  0  0  0  0  0  0  0
  -45.9101  -29.2210    1.6636 H   0  0  0  0  0  0  0  0  0  0  0  0
  -41.6267  -28.8793    0.2634 H   0  0  0  0  0  0  0  0  0  0  0  0
  -47.1956  -28.8623    3.0028 H   0  0  0  0  0  0  0  0  0  0  0  0
  -43.0683  -31.5042    4.2223 H   0  0  0  0  0  0  0  0  0  0  0  0
  -49.6177  -28.6914    3.5328 H   0  0  0  0  0  0  0  0  0  0  0  0
  -46.3031  -29.6571    7.1666 H   0  0  0  0  0  0  0  0  0  0  0  0
  -48.6686  -29.6615    8.6921 H   0  0  0  0  0  0  0  0  0  0  0  0
  -45.6896  -29.9263    2.8013 H   0  0  0  0  0  0  0  0  0  0  0  0
  1  2  1  0  0  0  0
  1  3  2  0  0  0  0
  2  6  2  0  0  0  0
  3  7  1  0  0  0  0
  4  5  1  0  0  0  0
  4  8  2  0  0  0  0
  5 10  2  0  0  0  0
  6 13  1  0  0  0  0
  7 13  2  0  0  0  0
  8 14  1  0  0  0  0
  9 11  2  0  0  0  0
  9 15  1  0  0  0  0
 10 17  1  0  0  0  0
 11 18  1  0  0  0  0
 12 15  2  0  0  0  0
 12 16  1  0  0  0  0
 13 14  1  0  0  0  0
 14 17  2  0  0  0  0
 15 20  1  0  0  0  0
 16 18  2  0  0  0  0
 16 21  1  0  0  0  0
 17 22  1  0  0  0  0
 18 25  1  0  0  0  0
 19 21  1  0  0  0  0
 19 23  2  0  0  0  0
 19 25  1  0  0  0  0
 20 22  1  0  0  0  0
 20 24  2  0  0  0  0
  1 26  1  0  0  0  0
  2 27  1  0  0  0  0
  3 28  1  0  0  0  0
  4 29  1  0  0  0  0
  5 30  1  0  0  0  0
  6 31  1  0  0  0  0
  7 32  1  0  0  0  0
  8 33  1  0  0  0  0
  9 34  1  0  0  0  0
 10 35  1  0  0  0  0
 11 36  1  0  0  0  0
 12 37  1  0  0  0  0
 21 38  1  0  0  0  0
 22 39  1  0  0  0  0
M  END
> <POSIT::Probability>
0.24

> <POSIT::Method>
FRED

> <ReceptorTitle>
UCSF-P4622-REFINED_LIGAND-BOUND-STATE_A__DU__LA1_A-201(A)

> <OMEGA_C>
QO82wkFJ0sEADw29BGQxwhIl0cHgt869MSk5wtgp28HQ9Rk/WGskwr4888HC09Y/lQkmwpwk+cH+
mDJA5hIuwong2MFo2u8+E9g1wlHl4sEA3ZU/8dMnwqaQ68FUxZA/GSA+wiP958EL6YBA6Q8rwjpg
98HlwVZAtpZDwlIz58HpEopAFwk8whWV68E23MtA4kwwwjXB4cGaWo0/RdoswkbM6cEeF9k/fGE6
wtAp6sFrh6FAuW9BwqjB6sE/qdNAhnguwg6078EDujNAvCBFwgyj6MEMBbRAT55Jwn0v6sE+fu9A
Tbo0wlru6sHE7ZZApUJEwvi568HNAflAMowzwogY7sEk41lAyVhNwkV26sHBcQRBgFoxwkH46MHY
AbNAblFKwigv6MHkisNAb4Q5wgZFzMGYy/S+MagvwrQ6ysHoaRi/H3o9wskN3MH0Kyc/OYIgwuyc
9MGyaJ4/pWEjwgUd/8G7401AfsIpwpnf18GQodA+7qM3wo7E6cHw8NQ/toEmwuQI58Eo2YY+Qcg8
wgLm5sF7LUBA/EUswo8I/ME5HYdAhHhGwv6H5cESGWJAYjY5wsBB7cF4VOVAo6xCwr9K7cH3EgtB
JMI2wiZp78E8STNA

> <OMEGA_E>
Sqj+wA==

> <OMEGA_NBR>
     53617

$$$$
CACHE3HI_1702_89
  -OEChem-03092622523D

 41 45  0     0  0  0  0  0  0999 V2000
  -44.7312  -33.5643    1.6177 C   0  0  0  0  0  0  0  0  0  0  0  0
  -45.1352  -26.4052    0.0989 C   0  0  0  0  0  0  0  0  0  0  0  0
  -43.4506  -33.3071    2.1015 C   0  0  0  0  0  0  0  0  0  0  0  0
  -43.8450  -26.3049    0.6140 C   0  0  0  0  0  0  0  0  0  0  0  0
  -48.1360  -29.8334    5.2843 C   0  0  0  0  0  0  0  0  0  0  0  0
  -45.5460  -32.5102    1.2050 C   0  0  0  0  0  0  0  0  0  0  0  0
  -45.8226  -27.6174    0.1674 C   0  0  0  0  0  0  0  0  0  0  0  0
  -42.9820  -31.9961    2.1675 C   0  0  0  0  0  0  0  0  0  0  0  0
  -43.2391  -27.4176    1.1943 C   0  0  0  0  0  0  0  0  0  0  0  0
  -49.2940  -29.7739    6.0670 C   0  0  0  0  0  0  0  0  0  0  0  0
  -49.3831  -29.2090    3.2804 C   0  0  0  0  0  0  0  0  0  0  0  0
  -48.1802  -29.5530    3.9027 C   0  0  0  0  0  0  0  0  0  0  0  0
  -45.0871  -31.1866    1.2702 C   0  0  0  0  0  0  0  0  0  0  0  0
  -45.2244  -28.7440    0.7517 C   0  0  0  0  0  0  0  0  0  0  0  0
  -50.5006  -29.1598    4.0815 C   0  0  0  0  0  0  0  0  0  0  0  0
  -43.7953  -30.9409    1.7481 C   0  0  0  0  0  0  0  0  0  0  0  0
  -43.9252  -28.6342    1.2574 C   0  0  0  0  0  0  0  0  0  0  0  0
  -50.4681  -29.4316    5.4323 C   0  0  0  0  0  0  0  0  0  0  0  0
  -52.5385  -28.9521    4.9473 C   0  0  0  0  0  0  0  0  0  0  0  0
  -46.9324  -29.6254    3.1007 C   0  0  0  0  0  0  0  0  0  0  0  0
  -45.9761  -30.0454    0.8502 C   0  0  0  0  0  0  0  0  0  0  0  0
  -51.8015  -28.8589    3.7777 N   0  0  0  0  0  0  0  0  0  0  0  0
  -47.0960  -29.9175    1.7567 N   0  0  0  0  0  0  0  0  0  0  0  0
  -53.7410  -28.7522    5.0656 O   0  0  0  0  0  0  0  0  0  0  0  0
  -45.8513  -29.4479    3.6557 O   0  0  0  0  0  0  0  0  0  0  0  0
  -43.2480  -29.6823    1.8361 O   0  0  0  0  0  0  0  0  0  0  0  0
  -51.7149  -29.3175    6.0278 O   0  0  0  0  0  0  0  0  0  0  0  0
  -45.0967  -34.5857    1.5645 H   0  0  0  0  0  0  0  0  0  0  0  0
  -45.6079  -25.5386   -0.3542 H   0  0  0  0  0  0  0  0  0  0  0  0
  -42.8169  -34.1276    2.4251 H   0  0  0  0  0  0  0  0  0  0  0  0
  -43.3111  -25.3606    0.5623 H   0  0  0  0  0  0  0  0  0  0  0  0
  -47.1928  -30.1003    5.7560 H   0  0  0  0  0  0  0  0  0  0  0  0
  -46.5449  -32.7268    0.8343 H   0  0  0  0  0  0  0  0  0  0  0  0
  -46.8309  -27.6783   -0.2349 H   0  0  0  0  0  0  0  0  0  0  0  0
  -41.9800  -31.8040    2.5422 H   0  0  0  0  0  0  0  0  0  0  0  0
  -42.2308  -27.3327    1.5911 H   0  0  0  0  0  0  0  0  0  0  0  0
  -49.2617  -29.9889    7.1286 H   0  0  0  0  0  0  0  0  0  0  0  0
  -49.4353  -28.9906    2.2198 H   0  0  0  0  0  0  0  0  0  0  0  0
  -46.3845  -30.2772   -0.1420 H   0  0  0  0  0  0  0  0  0  0  0  0
  -52.1504  -28.6135    2.8596 H   0  0  0  0  0  0  0  0  0  0  0  0
  -48.0171  -30.1138    1.3812 H   0  0  0  0  0  0  0  0  0  0  0  0
  1  3  1  0  0  0  0
  1  6  2  0  0  0  0
  2  4  1  0  0  0  0
  2  7  2  0  0  0  0
  3  8  2  0  0  0  0
  4  9  2  0  0  0  0
  5 10  2  0  0  0  0
  5 12  1  0  0  0  0
  6 13  1  0  0  0  0
  7 14  1  0  0  0  0
  8 16  1  0  0  0  0
  9 17  1  0  0  0  0
 10 18  1  0  0  0  0
 11 12  2  0  0  0  0
 11 15  1  0  0  0  0
 12 20  1  0  0  0  0
 13 16  2  0  0  0  0
 13 21  1  0  0  0  0
 14 17  2  0  0  0  0
 14 21  1  0  0  0  0
 15 18  2  0  0  0  0
 15 22  1  0  0  0  0
 16 26  1  0  0  0  0
 17 26  1  0  0  0  0
 18 27  1  0  0  0  0
 19 22  1  0  0  0  0
 19 24  2  0  0  0  0
 19 27  1  0  0  0  0
 20 23  1  0  0  0  0
 20 25  2  0  0  0  0
 21 23  1  0  0  0  0
  1 28  1  0  0  0  0
  2 29  1  0  0  0  0
  3 30  1  0  0  0  0
  4 31  1  0  0  0  0
  5 32  1  0  0  0  0
  6 33  1  0  0  0  0
  7 34  1  0  0  0  0
  8 35  1  0  0  0  0
  9 36  1  0  0  0  0
 10 37  1  0  0  0  0
 11 38  1  0  0  0  0
 21 39  1  0  0  0  0
 22 40  1  0  0  0  0
 23 41  1  0  0  0  0
M  END
> <POSIT::Probability>
0.02

> <POSIT::Method>
FRED

> <ReceptorTitle>
UCSF-P4622-REFINED_LIGAND-BOUND-STATE_A__DU__LA1_A-201(A)

> <OMEGA_C>
v+wywt9BBsKcEM8/eIo0wtA908FAeMo9cc0twn86BcJhfwZAR2Evwlhw0sFILx0/OotAwsCq7sHZ
GKlAFy82wnQKAsLwPJo/X0o3wl7w3MFgbys+hu0rwuv3/8FbuApAzPQswiZX28Hw3pg/Cy1FwuYw
7sH2JMJAQYhFwvar6cGN8lFAgrhAwpts7MEAxnlANVk0wjR++cH4laI/veU0wqvz5cEob0A/qgBK
wi5H6cH7m4JAay4vwuaG98FIw98/ZrMvwscS5cFA8qA/Vd9Jwtlz68G11a1AdydSwuCd58HiT55A
zbo7wuEA7cGmckZAiuc3wv9c8ME4qFk/wjRPwv3e5sF9xXFAVGI8wgFX78GU3OA/xfZWwnsE5sEZ
GaJAs2c3wmaV68Ge9mlA/f0swkZ17cHwA+s/EdxOwlaK6sHr48BAEGM0wrZXCsJQQsg/eG42whJP
zMHgX7W+fkQrwqeCCMKcNBtAhz4twm3iysGs8Q8/a8U8wn/N8MHWMLhA/i06wjfoAsJIklU/1VI7
wjpt3cGAfXC+fusnwqVu/sEIsyJAYuwowlSp2sEMqss/9AtFwi3p78GXHeRAzL1Fwrns58GwEA5A
tIk5wqE38sEAcRG++5lQwojo5ME5AzdAjxFAwirp8MH4ybA/

> <OMEGA_E>
RMkBwQ==

> <OMEGA_NBR>
     54934

$$$$
CACHE3HI_1702_96
  -OEChem-03092622523D

 43 46  0     0  0  0  0  0  0999 V2000
  -46.9342  -29.3197    2.4488 C   0  0  0  0  0  0  0  0  0  0  0  0
  -48.2814  -29.1078    2.7416 C   0  0  0  0  0  0  0  0  0  0  0  0
  -46.0217  -29.5331    3.4819 C   0  0  0  0  0  0  0  0  0  0  0  0
  -48.7162  -29.1096    4.0671 C   0  0  0  0  0  0  0  0  0  0  0  0
  -46.4565  -29.5349    4.8074 C   0  0  0  0  0  0  0  0  0  0  0  0
  -54.2512  -29.1237    9.5412 C   0  0  0  0  0  0  0  0  0  0  0  0
  -54.6967  -28.8859   10.8440 C   0  0  0  0  0  0  0  0  0  0  0  0
  -53.7525  -26.7534    9.2153 C   0  0  0  0  0  0  0  0  0  0  0  0
  -47.8037  -29.3230    5.1003 C   0  0  0  0  0  0  0  0  0  0  0  0
  -53.7828  -28.0665    8.7336 C   0  0  0  0  0  0  0  0  0  0  0  0
  -54.6530  -27.5827   11.2833 C   0  0  0  0  0  0  0  0  0  0  0  0
  -54.1975  -26.5425   10.5021 C   0  0  0  0  0  0  0  0  0  0  0  0
  -54.7720  -25.6731   12.4168 C   0  0  0  0  0  0  0  0  0  0  0  0
  -48.2615  -29.3250    6.4943 C   0  0  0  0  0  0  0  0  0  0  0  0
  -53.3192  -28.3485    7.3696 C   0  0  0  0  0  0  0  0  0  0  0  0
  -50.0293  -29.7274    8.1518 C   0  0  0  0  0  0  0  0  0  0  0  0
  -50.5028  -30.3057    5.7813 C   0  0  0  0  0  0  0  0  0  0  0  0
  -51.5368  -29.9251    8.2827 C   0  0  0  0  0  0  0  0  0  0  0  0
  -51.8456  -29.5840    5.8408 C   0  0  0  0  0  0  0  0  0  0  0  0
  -55.0135  -27.0357   12.4858 N   0  0  0  0  0  0  0  0  0  0  0  0
  -49.5673  -29.7440    6.7627 N   0  0  0  0  0  0  0  0  0  0  0  0
  -52.2470  -29.2293    7.2035 N   0  0  0  0  0  0  0  0  0  0  0  0
  -54.9727  -24.8541   13.3049 O   0  0  0  0  0  0  0  0  0  0  0  0
  -47.4549  -28.9376    7.3382 O   0  0  0  0  0  0  0  0  0  0  0  0
  -53.9083  -27.7698    6.4579 O   0  0  0  0  0  0  0  0  0  0  0  0
  -54.2483  -25.3226   11.1589 O   0  0  0  0  0  0  0  0  0  0  0  0
  -46.5959  -29.3182    1.4169 H   0  0  0  0  0  0  0  0  0  0  0  0
  -48.9925  -28.9412    1.9378 H   0  0  0  0  0  0  0  0  0  0  0  0
  -44.9722  -29.6970    3.2548 H   0  0  0  0  0  0  0  0  0  0  0  0
  -49.7685  -28.9435    4.2829 H   0  0  0  0  0  0  0  0  0  0  0  0
  -45.7363  -29.7022    5.6044 H   0  0  0  0  0  0  0  0  0  0  0  0
  -54.2689  -30.1400    9.1536 H   0  0  0  0  0  0  0  0  0  0  0  0
  -55.0577  -29.6934   11.4696 H   0  0  0  0  0  0  0  0  0  0  0  0
  -53.3947  -25.9323    8.6040 H   0  0  0  0  0  0  0  0  0  0  0  0
  -49.7362  -28.7854    8.6417 H   0  0  0  0  0  0  0  0  0  0  0  0
  -49.4931  -30.5336    8.6798 H   0  0  0  0  0  0  0  0  0  0  0  0
  -50.6314  -31.3615    6.0329 H   0  0  0  0  0  0  0  0  0  0  0  0
  -50.1049  -30.2500    4.7695 H   0  0  0  0  0  0  0  0  0  0  0  0
  -51.7744  -30.9897    8.2746 H   0  0  0  0  0  0  0  0  0  0  0  0
  -51.8956  -29.5082    9.2271 H   0  0  0  0  0  0  0  0  0  0  0  0
  -51.7911  -28.6417    5.2699 H   0  0  0  0  0  0  0  0  0  0  0  0
  -52.6094  -30.2016    5.3457 H   0  0  0  0  0  0  0  0  0  0  0  0
  -55.3883  -27.5454   13.2760 H   0  0  0  0  0  0  0  0  0  0  0  0
  1  2  1  0  0  0  0
  1  3  2  0  0  0  0
  2  4  2  0  0  0  0
  3  5  1  0  0  0  0
  4  9  1  0  0  0  0
  5  9  2  0  0  0  0
  6  7  2  0  0  0  0
  6 10  1  0  0  0  0
  7 11  1  0  0  0  0
  8 10  2  0  0  0  0
  8 12  1  0  0  0  0
  9 14  1  0  0  0  0
 10 15  1  0  0  0  0
 11 12  2  0  0  0  0
 11 20  1  0  0  0  0
 12 26  1  0  0  0  0
 13 20  1  0  0  0  0
 13 23  2  0  0  0  0
 13 26  1  0  0  0  0
 14 21  1  0  0  0  0
 14 24  2  0  0  0  0
 15 22  1  0  0  0  0
 15 25  2  0  0  0  0
 16 18  1  0  0  0  0
 16 21  1  0  0  0  0
 17 19  1  0  0  0  0
 17 21  1  0  0  0  0
 18 22  1  0  0  0  0
 19 22  1  0  0  0  0
  1 27  1  0  0  0  0
  2 28  1  0  0  0  0
  3 29  1  0  0  0  0
  4 30  1  0  0  0  0
  5 31  1  0  0  0  0
  6 32  1  0  0  0  0
  7 33  1  0  0  0  0
  8 34  1  0  0  0  0
 16 35  1  0  0  0  0
 16 36  1  0  0  0  0
 17 37  1  0  0  0  0
 17 38  1  0  0  0  0
 18 39  1  0  0  0  0
 18 40  1  0  0  0  0
 19 41  1  0  0  0  0
 19 42  1  0  0  0  0
 20 43  1  0  0  0  0
M  END
> <POSIT::Probability>
0.18

> <POSIT::Method>
HYBRID

> <ReceptorTitle>
UCSF-P4622-REFINED_LIGAND-BOUND-STATE_A__DU__LA1_A-201(A)

> <OMEGA_C>
k7w7wreO6sFfuRxAJSBBwr7c6MEJdy9ANxY4wtND7MHS115AXN1Cwmvg6MEMJoJAbtM5woBH7MFz
1plAQwFZwm/96MGhqBhBcclawlEW58E6gS1BhgJXwvYG1sG+cRNB9DY/woyV6sF2NaNAmyFXwj+I
4MHavAtBr5xawlCp3ME4iDRBM8pYwhZX1MG/CChBgRZbwn5izcE8q0ZByQtBwqiZ6sGA0c9A30ZV
wsHJ4sGv0+tACh5IwsjR7cHubQJB2gJKwhBy8sGuALlAqiVOwpZm78EVhgRB6mFPwvyr7MEU6LpA
zQ1cwh1J2MGwxUdB50RGwsDz7cElaNhA6PxQwqLV6cEag+ZADuRbwkbVxsGu4FRB2NE9wjiA58Ge
0upAGKJXwp4o3sF1p85APf5YwqCUysGtijJBKmI6wsKL6sHOW7U/SvhDwpyH58FeCPg/kOMzwnmT
7cFRT1BA+hJHwjiM58FZDYlA8fE2whWe7cEAV7NAWBNZwsoe8cFOdRJBDDtcwgiM7cFagzdBM5RV
wl91z8EBqglB5fFGwo1I5sF9RApB5vhFwtdE9MFM4ApBjYZKwkPk+sFEDcFAZmtIwvP/8cHSn5hA
/RhPwtLq98HAZARBE5VPwsgQ7ME+ohNBFypPwiYi5cFno6hAC3BSwvKc8cFKEKtApo1dwvVc3MFy
alRB

> <OMEGA_E>
fFXVwA==

> <OMEGA_NBR>
     56292

$$$$
CACHE3HI_1704_16
  -OEChem-03092622523D

 31 32  0     0  0  0  0  0  0999 V2000
  -43.7890  -30.2131    0.9299 C   0  0  0  0  0  0  0  0  0  0  0  0
  -44.7988  -31.0668    1.3739 C   0  0  0  0  0  0  0  0  0  0  0  0
  -44.0279  -28.8424    0.8327 C   0  0  0  0  0  0  0  0  0  0  0  0
  -50.0321  -29.9246    4.3181 C   0  0  0  0  0  0  0  0  0  0  0  0
  -47.9192  -29.6752    5.4631 C   0  0  0  0  0  0  0  0  0  0  0  0
  -46.0472  -30.5499    1.7209 C   0  0  0  0  0  0  0  0  0  0  0  0
  -45.2763  -28.3255    1.1797 C   0  0  0  0  0  0  0  0  0  0  0  0
  -49.4459  -29.4667    3.1381 C   0  0  0  0  0  0  0  0  0  0  0  0
  -47.3330  -29.2173    4.2832 C   0  0  0  0  0  0  0  0  0  0  0  0
  -49.2684  -30.0290    5.4806 C   0  0  0  0  0  0  0  0  0  0  0  0
  -46.2861  -29.1792    1.6237 C   0  0  0  0  0  0  0  0  0  0  0  0
  -48.0966  -29.1130    3.1206 C   0  0  0  0  0  0  0  0  0  0  0  0
  -51.3427  -30.0245    8.5915 C   0  0  0  0  0  0  0  0  0  0  0  0
  -49.8945  -30.5186    6.7425 C   0  0  0  0  0  0  0  0  0  0  0  0
  -50.7300  -29.5221    7.3623 N   0  0  0  0  0  0  0  0  0  0  0  0
  -47.5252  -28.6661    1.9689 O   0  0  0  0  0  0  0  0  0  0  0  0
  -42.8170  -30.6156    0.6602 H   0  0  0  0  0  0  0  0  0  0  0  0
  -44.6129  -32.1340    1.4504 H   0  0  0  0  0  0  0  0  0  0  0  0
  -43.2420  -28.1772    0.4871 H   0  0  0  0  0  0  0  0  0  0  0  0
  -51.0839  -30.1978    4.3222 H   0  0  0  0  0  0  0  0  0  0  0  0
  -47.3168  -29.7533    6.3643 H   0  0  0  0  0  0  0  0  0  0  0  0
  -46.8294  -31.2202    2.0664 H   0  0  0  0  0  0  0  0  0  0  0  0
  -45.4559  -27.2566    1.1016 H   0  0  0  0  0  0  0  0  0  0  0  0
  -50.0457  -29.3876    2.2354 H   0  0  0  0  0  0  0  0  0  0  0  0
  -46.2815  -28.9434    4.2759 H   0  0  0  0  0  0  0  0  0  0  0  0
  -51.9449  -30.9140    8.3853 H   0  0  0  0  0  0  0  0  0  0  0  0
  -50.5696  -30.2853    9.3198 H   0  0  0  0  0  0  0  0  0  0  0  0
  -51.9869  -29.2589    9.0326 H   0  0  0  0  0  0  0  0  0  0  0  0
  -50.5186  -31.4039    6.5578 H   0  0  0  0  0  0  0  0  0  0  0  0
  -49.1361  -30.8143    7.4806 H   0  0  0  0  0  0  0  0  0  0  0  0
  -50.1749  -28.6913    7.5918 H   0  0  0  0  0  0  0  0  0  0  0  0
  1  2  1  0  0  0  0
  1  3  2  0  0  0  0
  2  6  2  0  0  0  0
  3  7  1  0  0  0  0
  4  8  2  0  0  0  0
  4 10  1  0  0  0  0
  5  9  1  0  0  0  0
  5 10  2  0  0  0  0
  6 11  1  0  0  0  0
  7 11  2  0  0  0  0
  8 12  1  0  0  0  0
  9 12  2  0  0  0  0
 10 14  1  0  0  0  0
 11 16  1  0  0  0  0
 12 16  1  0  0  0  0
 13 15  1  0  0  0  0
 14 15  1  0  0  0  0
  1 17  1  0  0  0  0
  2 18  1  0  0  0  0
  3 19  1  0  0  0  0
  4 20  1  0  0  0  0
  5 21  1  0  0  0  0
  6 22  1  0  0  0  0
  7 23  1  0  0  0  0
  8 24  1  0  0  0  0
  9 25  1  0  0  0  0
 13 26  1  0  0  0  0
 13 27  1  0  0  0  0
 13 28  1  0  0  0  0
 14 29  1  0  0  0  0
 14 30  1  0  0  0  0
 15 31  1  0  0  0  0
M  END
> <POSIT::Probability>
0.05

> <POSIT::Method>
FRED

> <ReceptorTitle>
UCSF-P4622-REFINED_LIGAND-BOUND-STATE_A__DU__LA1_A-201(A)

> <OMEGA_C>
5CcvwnC08cG8DG4/+TEzwsmI+MGY268/lxwwwjC95sF8K1U/0iBIwpxl78H+LYpAOq0/wt1m7cEE
0q5AUDA4wkZm9ME0Rtw/7ho1wq2a4sFPAJc/mshFws+768GF1khAAFU9whe96cHED4lA5BJFwlM7
8MFmYa9A/yQ5wudu6cEc1c8/8GJAwljn6MHDt0dA5V5Nwj8y8MHLdglB/JNHwhgm9MGWwtdAj+tK
wlMt7MHal+tAyRk+wjZU5cEABfw/kkQrwr7s9MEsAyk/kHMywj+JAMIgprk/1fcswtxq4cEEaPk+
6VVMwiiV8cHGT4pAXEQ9wtgG7sGMqMtASFE7wgLD+cGCQARAzNI1wn4N2sFIAI0/wC5Iwr4Z68FN
EQ9ATCA5wieM58FX1IhAoMdPwulP98FIKgZBQUdKwkRI8sHPHRVBlfJPwjsS6sFuhRBBExNKwig7
+8F42dFAYYtEwqaD9sH/YO9AI7NIwryH5cEQ8PJA

> <OMEGA_E>
dVDOwA==

> <OMEGA_NBR>
     57397

$$$$
CACHE3HI_1704_55
  -OEChem-03092622523D

 63 65  0     1  0  0  0  0  0999 V2000
  -46.1593  -33.7854   -0.8308 C   0  0  0  0  0  0  0  0  0  0  0  0
  -44.9186  -33.1819   -0.6251 C   0  0  0  0  0  0  0  0  0  0  0  0
  -47.2101  -33.5367    0.0521 C   0  0  0  0  0  0  0  0  0  0  0  0
  -44.7288  -32.3297    0.4629 C   0  0  0  0  0  0  0  0  0  0  0  0
  -47.0203  -32.6845    1.1401 C   0  0  0  0  0  0  0  0  0  0  0  0
  -50.2693  -29.5921    7.4133 C   0  0  0  0  0  0  0  0  0  0  0  0
  -51.3817  -28.9909    8.0023 C   0  0  0  0  0  0  0  0  0  0  0  0
  -51.3819  -29.5479    5.2691 C   0  0  0  0  0  0  0  0  0  0  0  0
  -45.7797  -32.0811    1.3458 C   0  0  0  0  0  0  0  0  0  0  0  0
  -50.2696  -29.8707    6.0466 C   0  0  0  0  0  0  0  0  0  0  0  0
  -52.4940  -28.6681    7.2247 C   0  0  0  0  0  0  0  0  0  0  0  0
  -52.4943  -28.9468    5.8580 C   0  0  0  0  0  0  0  0  0  0  0  0
  -43.4219  -30.0854    3.0603 C   0  0  0  0  0  0  0  0  0  0  0  0
  -46.8625  -30.4425    2.9128 C   0  0  0  0  0  0  0  0  0  0  0  0
  -42.3713  -29.0615    2.6761 C   0  0  0  0  0  0  0  0  0  0  0  0
  -42.9186  -27.8399    1.9660 C   0  0  0  0  0  0  0  0  0  0  0  0
  -43.7593  -28.2838    0.7866 C   0  0  0  0  0  0  0  0  0  0  0  0
  -44.9238  -29.1216    1.2814 C   0  0  0  0  0  0  0  0  0  0  0  0
  -55.3085  -28.3076    9.4480 C   0  0  0  0  0  0  0  0  0  0  0  0
  -54.6399  -26.9585    3.7517 C   0  0  0  0  0  0  0  0  0  0  0  0
  -49.0660  -30.5210    5.4104 C   0  0  0  0  0  0  0  0  0  0  0  0
  -48.0420  -29.5106    4.9006 C   0  0  0  0  0  0  0  0  0  0  0  0
  -53.8214  -28.4015    9.1803 C   0  0  0  0  0  0  0  0  0  0  0  0
  -53.3610  -27.7265    4.0095 C   0  0  0  0  0  0  0  0  0  0  0  0
  -45.5745  -31.1581    2.5245 C   0  0  2  0  0  0  0  0  0  0  0  0
  -44.5582  -30.1497    2.2556 N   0  0  0  0  0  0  0  0  0  0  0  0
  -46.9090  -30.1475    4.2685 N   0  0  0  0  0  0  0  0  0  0  0  0
  -43.1939  -30.8532    3.9988 O   0  0  0  0  0  0  0  0  0  0  0  0
  -47.7603  -30.2017    2.1081 O   0  0  0  0  0  0  0  0  0  0  0  0
  -53.5744  -28.0820    7.8121 O   0  0  0  0  0  0  0  0  0  0  0  0
  -53.5740  -28.6352    5.0884 O   0  0  0  0  0  0  0  0  0  0  0  0
  -46.3071  -34.4488   -1.6778 H   0  0  0  0  0  0  0  0  0  0  0  0
  -44.1005  -33.3751   -1.3127 H   0  0  0  0  0  0  0  0  0  0  0  0
  -48.1761  -34.0066   -0.1077 H   0  0  0  0  0  0  0  0  0  0  0  0
  -43.7586  -31.8642    0.6151 H   0  0  0  0  0  0  0  0  0  0  0  0
  -47.8453  -32.4961    1.8220 H   0  0  0  0  0  0  0  0  0  0  0  0
  -49.4069  -29.8393    8.0266 H   0  0  0  0  0  0  0  0  0  0  0  0
  -51.3756  -28.7762    9.0676 H   0  0  0  0  0  0  0  0  0  0  0  0
  -51.3841  -29.7639    4.2036 H   0  0  0  0  0  0  0  0  0  0  0  0
  -41.8517  -28.7450    3.5877 H   0  0  0  0  0  0  0  0  0  0  0  0
  -41.6399  -29.5720    2.0381 H   0  0  0  0  0  0  0  0  0  0  0  0
  -43.5262  -27.2422    2.6563 H   0  0  0  0  0  0  0  0  0  0  0  0
  -42.0931  -27.2059    1.6242 H   0  0  0  0  0  0  0  0  0  0  0  0
  -44.1353  -27.4111    0.2413 H   0  0  0  0  0  0  0  0  0  0  0  0
  -43.1499  -28.8654    0.0843 H   0  0  0  0  0  0  0  0  0  0  0  0
  -45.6654  -28.4766    1.7681 H   0  0  0  0  0  0  0  0  0  0  0  0
  -45.4121  -29.6062    0.4284 H   0  0  0  0  0  0  0  0  0  0  0  0
  -55.6771  -27.2965    9.2536 H   0  0  0  0  0  0  0  0  0  0  0  0
  -55.8593  -29.0125    8.8168 H   0  0  0  0  0  0  0  0  0  0  0  0
  -55.5302  -28.5708   10.4871 H   0  0  0  0  0  0  0  0  0  0  0  0
  -55.4546  -27.6363    3.4816 H   0  0  0  0  0  0  0  0  0  0  0  0
  -54.9333  -26.3887    4.6393 H   0  0  0  0  0  0  0  0  0  0  0  0
  -54.4986  -26.2356    2.9419 H   0  0  0  0  0  0  0  0  0  0  0  0
  -48.5946  -31.2086    6.1244 H   0  0  0  0  0  0  0  0  0  0  0  0
  -49.4086  -31.1430    4.5737 H   0  0  0  0  0  0  0  0  0  0  0  0
  -48.5015  -28.8623    4.1473 H   0  0  0  0  0  0  0  0  0  0  0  0
  -47.6584  -28.8764    5.7063 H   0  0  0  0  0  0  0  0  0  0  0  0
  -53.4591  -29.4149    9.3765 H   0  0  0  0  0  0  0  0  0  0  0  0
  -53.2719  -27.6960    9.8113 H   0  0  0  0  0  0  0  0  0  0  0  0
  -52.5504  -27.0431    4.2791 H   0  0  0  0  0  0  0  0  0  0  0  0
  -53.0691  -28.2963    3.1218 H   0  0  0  0  0  0  0  0  0  0  0  0
  -45.2041  -31.7185    3.3912 H   0  0  0  0  0  0  0  0  0  0  0  0
  -46.1260  -30.4070    4.8618 H   0  0  0  0  0  0  0  0  0  0  0  0
  1  2  1  0  0  0  0
  1  3  2  0  0  0  0
  2  4  2  0  0  0  0
  3  5  1  0  0  0  0
  4  9  1  0  0  0  0
  5  9  2  0  0  0  0
  6  7  2  0  0  0  0
  6 10  1  0  0  0  0
  7 11  1  0  0  0  0
  8 10  2  0  0  0  0
  8 12  1  0  0  0  0
  9 25  1  0  0  0  0
 10 21  1  0  0  0  0
 11 12  2  0  0  0  0
 11 30  1  0  0  0  0
 12 31  1  0  0  0  0
 13 15  1  0  0  0  0
 13 26  1  0  0  0  0
 13 28  2  0  0  0  0
 14 25  1  0  0  0  0
 14 27  1  0  0  0  0
 14 29  2  0  0  0  0
 15 16  1  0  0  0  0
 16 17  1  0  0  0  0
 17 18  1  0  0  0  0
 18 26  1  0  0  0  0
 19 23  1  0  0  0  0
 20 24  1  0  0  0  0
 21 22  1  0  0  0  0
 22 27  1  0  0  0  0
 23 30  1  0  0  0  0
 24 31  1  0  0  0  0
 25 26  1  0  0  0  0
  1 32  1  0  0  0  0
  2 33  1  0  0  0  0
  3 34  1  0  0  0  0
  4 35  1  0  0  0  0
  5 36  1  0  0  0  0
  6 37  1  0  0  0  0
  7 38  1  0  0  0  0
  8 39  1  0  0  0  0
 15 40  1  0  0  0  0
 15 41  1  0  0  0  0
 16 42  1  0  0  0  0
 16 43  1  0  0  0  0
 17 44  1  0  0  0  0
 17 45  1  0  0  0  0
 18 46  1  0  0  0  0
 18 47  1  0  0  0  0
 19 48  1  0  0  0  0
 19 49  1  0  0  0  0
 19 50  1  0  0  0  0
 20 51  1  0  0  0  0
 20 52  1  0  0  0  0
 20 53  1  0  0  0  0
 21 54  1  0  0  0  0
 21 55  1  0  0  0  0
 22 56  1  0  0  0  0
 22 57  1  0  0  0  0
 23 58  1  0  0  0  0
 23 59  1  0  0  0  0
 24 60  1  0  0  0  0
 24 61  1  0  0  0  0
 25 62  1  0  0  0  0
 27 63  1  0  0  0  0
M  END
> <POSIT::Probability>
0.05

> <POSIT::Method>
FRED

> <ReceptorTitle>
UCSF-P4622-REFINED_LIGAND-BOUND-STATE_A__DU__LA1_A-201(A)

> <OMEGA_C>
HaM4wjokB8K+rVS/sqwzwkG6BMJTByC/Htc8wpMlBsKAW1U9U+oywqdRAcLYA+0+whQ8wvi8AsJ2
75E/uRNJwpK87MH4Oe1A1oZNwl/t58E5CQBBFodNwiZi7MG1nKhAYx43wgJTAMJkQ6w/DhRJwij3
7sEcfsFA3vlRwl5Y5cEMMedALvpRwv6S58HCdLtAD7AtwtOu8MFG3ENAM3M7wjKK88EcbDpANHwp
wuZ96MHkRStAmqwrwhO43sGPpvs/gAkvwjNF4sFwYUk/ArIzwvr46MG6A6Q/3Ttdwg124sHSKhdB
P49awhKr18HTG3BAmUNEwgkr9MGeIa1A9ipAwr0V7MFQ0ZxAGklXwlI248FU4hJBpnFVwubP3cHp
TYBAQkw2wtlD+cHUkSFAmTsywoMy8cFWWxBAx6I7wigu8cHel4hAl8YswmXT9sEM7H9AiAo/whid
8cGm6gZANExWwgCo4MHY/PlAz0tWwvcU5cFq1KJAfTo5wpfLCcIewda/32YwwiCABcK4Bqi/R7RA
wscGCMLgpdy9zwgvwt3p/sE8dB0/lmE/wgT8AcJ9Nuk/qqBFwv227sEUbQBBpIBNwr415sH8FBFB
SYlNwo4c7sF8g4ZAGWgnwrb15cHOnGVAO48mwmKT7MHKbwJAyBouwu7v2cFgASpAWl8owsCl2cEF
5s8/lYowwvBJ28HQGnc+fJkswmvs5sFwu6w9YKk2wgLQ48H/UeI/BKY1woLZ7ME8Uds+X7Vewjpf
2sGMDhRB8G9fwoAZ6MFwEQ1B9R5ewv6Q5MFQyydBidFdwh4X3cH40V5AubtbwiUc08EsdZRAj/5Z
wn7i0cGQSDxA6mBCwiur+cFK+8NAXqJFwukk+cGKW5JAhAFCwvHl5sFgtoRAMqI+wvMC58HTmbZA
KtZVwqpR68EqBhZBdRZVwmCR3cHx+hxBqDNSwl9Y2ME47ohAy0ZUwrle4sEey0dAB9E0wna//cG7
CVlAA4E4wnNB88Gik5tA

> <OMEGA_E>
CVn5wA==

> <OMEGA_NBR>
     59149

$$$$
CACHE3HI_1704_78
  -OEChem-03092622523D

 41 42  0     0  0  0  0  0  0999 V2000
  -54.7296  -25.3951   10.6788 C   0  0  0  0  0  0  0  0  0  0  0  0
  -55.5907  -26.2803   11.3272 C   0  0  0  0  0  0  0  0  0  0  0  0
  -53.9021  -25.8530    9.6536 C   0  0  0  0  0  0  0  0  0  0  0  0
  -55.6246  -27.6231   10.9504 C   0  0  0  0  0  0  0  0  0  0  0  0
  -53.9359  -27.1957    9.2768 C   0  0  0  0  0  0  0  0  0  0  0  0
  -51.8189  -29.6427    7.2947 C   0  0  0  0  0  0  0  0  0  0  0  0
  -52.7197  -28.8057    5.2149 C   0  0  0  0  0  0  0  0  0  0  0  0
  -50.5674  -29.7840    6.6952 C   0  0  0  0  0  0  0  0  0  0  0  0
  -51.4682  -28.9469    4.6153 C   0  0  0  0  0  0  0  0  0  0  0  0
  -54.7970  -28.0810    9.9252 C   0  0  0  0  0  0  0  0  0  0  0  0
  -52.8950  -29.1534    6.5545 C   0  0  0  0  0  0  0  0  0  0  0  0
  -50.3921  -29.4363    5.3556 C   0  0  0  0  0  0  0  0  0  0  0  0
  -54.8311  -29.4811    9.5329 C   0  0  0  0  0  0  0  0  0  0  0  0
  -54.5755  -29.9476    8.2899 C   0  0  0  0  0  0  0  0  0  0  0  0
  -54.2255  -29.0051    7.1908 C   0  0  0  0  0  0  0  0  0  0  0  0
  -45.3966  -29.4308    5.7025 C   0  0  0  0  0  0  0  0  0  0  0  0
  -44.2174  -29.5842    4.7801 C   0  0  0  0  0  0  0  0  0  0  0  0
  -49.0538  -29.5868    4.7154 C   0  0  0  0  0  0  0  0  0  0  0  0
  -47.8836  -29.4157    5.6913 C   0  0  0  0  0  0  0  0  0  0  0  0
  -46.6094  -29.5446    5.0370 N   0  0  0  0  0  0  0  0  0  0  0  0
  -54.9798  -28.1117    6.8214 O   0  0  0  0  0  0  0  0  0  0  0  0
  -45.2569  -29.2113    6.9033 O   0  0  0  0  0  0  0  0  0  0  0  0
  -54.7030  -24.3499   10.9725 H   0  0  0  0  0  0  0  0  0  0  0  0
  -56.2357  -25.9246   12.1254 H   0  0  0  0  0  0  0  0  0  0  0  0
  -53.2306  -25.1648    9.1484 H   0  0  0  0  0  0  0  0  0  0  0  0
  -56.3022  -28.3004   11.4647 H   0  0  0  0  0  0  0  0  0  0  0  0
  -53.2845  -27.5373    8.4757 H   0  0  0  0  0  0  0  0  0  0  0  0
  -51.9440  -29.9172    8.3390 H   0  0  0  0  0  0  0  0  0  0  0  0
  -53.5513  -28.4241    4.6281 H   0  0  0  0  0  0  0  0  0  0  0  0
  -49.7349  -30.1666    7.2795 H   0  0  0  0  0  0  0  0  0  0  0  0
  -51.3410  -28.6717    3.5719 H   0  0  0  0  0  0  0  0  0  0  0  0
  -55.1026  -30.1943   10.3188 H   0  0  0  0  0  0  0  0  0  0  0  0
  -54.5950  -31.0091    8.0743 H   0  0  0  0  0  0  0  0  0  0  0  0
  -43.9334  -28.6041    4.3856 H   0  0  0  0  0  0  0  0  0  0  0  0
  -43.3724  -30.0100    5.3295 H   0  0  0  0  0  0  0  0  0  0  0  0
  -44.4676  -30.2526    3.9508 H   0  0  0  0  0  0  0  0  0  0  0  0
  -48.9703  -30.5668    4.2146 H   0  0  0  0  0  0  0  0  0  0  0  0
  -48.9484  -28.8411    3.9094 H   0  0  0  0  0  0  0  0  0  0  0  0
  -47.9064  -28.4201    6.1464 H   0  0  0  0  0  0  0  0  0  0  0  0
  -47.9195  -30.1578    6.4953 H   0  0  0  0  0  0  0  0  0  0  0  0
  -46.6023  -29.6991    4.0299 H   0  0  0  0  0  0  0  0  0  0  0  0
  1  2  1  0  0  0  0
  1  3  2  0  0  0  0
  2  4  2  0  0  0  0
  3  5  1  0  0  0  0
  4 10  1  0  0  0  0
  5 10  2  0  0  0  0
  6  8  2  0  0  0  0
  6 11  1  0  0  0  0
  7  9  1  0  0  0  0
  7 11  2  0  0  0  0
  8 12  1  0  0  0  0
  9 12  2  0  0  0  0
 10 13  1  0  0  0  0
 11 15  1  0  0  0  0
 12 18  1  0  0  0  0
 13 14  2  0  0  0  0
 14 15  1  0  0  0  0
 15 21  2  0  0  0  0
 16 17  1  0  0  0  0
 16 20  1  0  0  0  0
 16 22  2  0  0  0  0
 18 19  1  0  0  0  0
 19 20  1  0  0  0  0
  1 23  1  0  0  0  0
  2 24  1  0  0  0  0
  3 25  1  0  0  0  0
  4 26  1  0  0  0  0
  5 27  1  0  0  0  0
  6 28  1  0  0  0  0
  7 29  1  0  0  0  0
  8 30  1  0  0  0  0
  9 31  1  0  0  0  0
 13 32  1  0  0  0  0
 14 33  1  0  0  0  0
 17 34  1  0  0  0  0
 17 35  1  0  0  0  0
 17 36  1  0  0  0  0
 18 37  1  0  0  0  0
 18 38  1  0  0  0  0
 19 39  1  0  0  0  0
 19 40  1  0  0  0  0
 20 41  1  0  0  0  0
M  END
> <POSIT::Probability>
0.18

> <POSIT::Method>
HYBRID

> <ReceptorTitle>
UCSF-P4622-REFINED_LIGAND-BOUND-STATE_A__DU__LA1_A-201(A)

> <OMEGA_C>
EetawiYpy8E23CpB31xewiU+0sE8PDVBtJtXwvDSzsEMdRpBkX9ewgr83MECNS9BZr5XwtaQ2cHU
bRRBkkZPwlok7cF8bulA7uBSwhFy5sHI4KZACUVKwp9F7sGwPtZAct9NwkuT58HqsJNAKTBbwtKl
4MGtzR5Bf5RTwi866cE2vtFAd5FJwoB968FAYatAElNbwmPZ68HphhhBWk1awsSU78FcowRB4uZY
wlgK6MFgG+ZAKJY1wj9y68EUe7ZAlN4wwnWs7MFg9phAEjdEwsKx7MHg5JZAyYg/wmtT68HKHrZA
BXA6wlpb7MHCLqFAVutbwtvk4MG8SNpAGwc1wtCw6cHq59xA1s9awpDMwsGIjy9BW/Fgwo1lz8Gm
AUJBJexUwn5RycEIYBJBfTVhwiJn4sFsbzdBWyNVwmxM3MGmnAdBrcZPwlpW78GXbAVBgTRWwn1k
48GUGZRAgPBGwihV8cGS8ehAJF1Nwq5f5cHcmWRAHWlcwtiN8cHOGSVBQGFawpwS+MFZMAFB07sv
wjLV5MHqVoxASn0twoAU8MEAi6pA2t4xwlwF8sHE2XxAkuFDwteI9MEY3oZANstDwqi65sEUM3pA
M6A/wl5c48E8r8RAjK0/witD8cHM2c9AxWg6wryX7cFQ9YBA

> <OMEGA_E>
VhWrwA==

> <OMEGA_NBR>
     60459

$$$$
CACHE3HI_1704_81
  -OEChem-03092622523D

 45 47  0     0  0  0  0  0  0999 V2000
  -55.5932  -27.3504   10.9341 C   0  0  0  0  0  0  0  0  0  0  0  0
  -56.0560  -28.3576   10.0873 C   0  0  0  0  0  0  0  0  0  0  0  0
  -54.3159  -26.8201   10.7532 C   0  0  0  0  0  0  0  0  0  0  0  0
  -43.6941  -30.1637    3.9622 C   0  0  0  0  0  0  0  0  0  0  0  0
  -44.6869  -30.3252    2.9931 C   0  0  0  0  0  0  0  0  0  0  0  0
  -55.2418  -28.8342    9.0597 C   0  0  0  0  0  0  0  0  0  0  0  0
  -53.5017  -27.2968    9.7256 C   0  0  0  0  0  0  0  0  0  0  0  0
  -44.0023  -29.6782    5.2384 C   0  0  0  0  0  0  0  0  0  0  0  0
  -46.0220  -30.0065    3.2636 C   0  0  0  0  0  0  0  0  0  0  0  0
  -53.9645  -28.3039    8.8788 C   0  0  0  0  0  0  0  0  0  0  0  0
  -45.3385  -29.3536    5.5271 C   0  0  0  0  0  0  0  0  0  0  0  0
  -46.3064  -29.5247    4.5414 C   0  0  0  0  0  0  0  0  0  0  0  0
  -47.1807  -28.7399    6.4162 C   0  0  0  0  0  0  0  0  0  0  0  0
  -53.0982  -28.8115    7.7846 C   0  0  0  0  0  0  0  0  0  0  0  0
  -50.3945  -29.3479    6.7385 C   0  0  0  0  0  0  0  0  0  0  0  0
  -50.6078  -31.6129    7.8459 C   0  0  0  0  0  0  0  0  0  0  0  0
  -52.1520  -30.9849    5.9541 C   0  0  0  0  0  0  0  0  0  0  0  0
  -48.2496  -28.2434    7.3470 C   0  0  0  0  0  0  0  0  0  0  0  0
  -51.3619  -30.4704    7.1609 C   0  0  0  0  0  0  0  0  0  0  0  0
  -45.9000  -28.8653    6.6852 N   0  0  0  0  0  0  0  0  0  0  0  0
  -47.4748  -29.1241    5.1381 N   0  0  0  0  0  0  0  0  0  0  0  0
  -52.2821  -29.8778    8.1138 N   0  0  0  0  0  0  0  0  0  0  0  0
  -49.2823  -29.2315    7.5605 N   0  0  0  0  0  0  0  0  0  0  0  0
  -53.1359  -28.2634    6.6861 O   0  0  0  0  0  0  0  0  0  0  0  0
  -50.6015  -28.6275    5.7620 O   0  0  0  0  0  0  0  0  0  0  0  0
  -56.2271  -26.9795   11.7341 H   0  0  0  0  0  0  0  0  0  0  0  0
  -57.0504  -28.7712   10.2277 H   0  0  0  0  0  0  0  0  0  0  0  0
  -53.9543  -26.0367   11.4130 H   0  0  0  0  0  0  0  0  0  0  0  0
  -42.6650  -30.4194    3.7230 H   0  0  0  0  0  0  0  0  0  0  0  0
  -44.4174  -30.7049    2.0107 H   0  0  0  0  0  0  0  0  0  0  0  0
  -55.6135  -29.6192    8.4061 H   0  0  0  0  0  0  0  0  0  0  0  0
  -52.5080  -26.8760    9.5943 H   0  0  0  0  0  0  0  0  0  0  0  0
  -43.2231  -29.5567    5.9840 H   0  0  0  0  0  0  0  0  0  0  0  0
  -46.7948  -30.1306    2.5134 H   0  0  0  0  0  0  0  0  0  0  0  0
  -51.2956  -32.4124    8.1469 H   0  0  0  0  0  0  0  0  0  0  0  0
  -50.0822  -31.2772    8.7464 H   0  0  0  0  0  0  0  0  0  0  0  0
  -49.8648  -32.0555    7.1716 H   0  0  0  0  0  0  0  0  0  0  0  0
  -52.8426  -31.7843    6.2484 H   0  0  0  0  0  0  0  0  0  0  0  0
  -51.4828  -31.3948    5.1893 H   0  0  0  0  0  0  0  0  0  0  0  0
  -52.7470  -30.1942    5.4846 H   0  0  0  0  0  0  0  0  0  0  0  0
  -47.8228  -27.9851    8.3219 H   0  0  0  0  0  0  0  0  0  0  0  0
  -48.7267  -27.3408    6.9513 H   0  0  0  0  0  0  0  0  0  0  0  0
  -48.3892  -29.1150    4.7058 H   0  0  0  0  0  0  0  0  0  0  0  0
  -52.2566  -30.2405    9.0580 H   0  0  0  0  0  0  0  0  0  0  0  0
  -49.1881  -29.8353    8.3701 H   0  0  0  0  0  0  0  0  0  0  0  0
  1  2  1  0  0  0  0
  1  3  2  0  0  0  0
  2  6  2  0  0  0  0
  3  7  1  0  0  0  0
  4  5  1  0  0  0  0
  4  8  2  0  0  0  0
  5  9  2  0  0  0  0
  6 10  1  0  0  0  0
  7 10  2  0  0  0  0
  8 11  1  0  0  0  0
  9 12  1  0  0  0  0
 10 14  1  0  0  0  0
 11 12  2  0  0  0  0
 11 20  1  0  0  0  0
 12 21  1  0  0  0  0
 13 18  1  0  0  0  0
 13 20  2  0  0  0  0
 13 21  1  0  0  0  0
 14 22  1  0  0  0  0
 14 24  2  0  0  0  0
 15 19  1  0  0  0  0
 15 23  1  0  0  0  0
 15 25  2  0  0  0  0
 16 19  1  0  0  0  0
 17 19  1  0  0  0  0
 18 23  1  0  0  0  0
 19 22  1  0  0  0  0
  1 26  1  0  0  0  0
  2 27  1  0  0  0  0
  3 28  1  0  0  0  0
  4 29  1  0  0  0  0
  5 30  1  0  0  0  0
  6 31  1  0  0  0  0
  7 32  1  0  0  0  0
  8 33  1  0  0  0  0
  9 34  1  0  0  0  0
 16 35  1  0  0  0  0
 16 36  1  0  0  0  0
 16 37  1  0  0  0  0
 17 38  1  0  0  0  0
 17 39  1  0  0  0  0
 17 40  1  0  0  0  0
 18 41  1  0  0  0  0
 18 42  1  0  0  0  0
 21 43  1  0  0  0  0
 22 44  1  0  0  0  0
 23 45  1  0  0  0  0
M  END
> <POSIT::Probability>
0.23

> <POSIT::Method>
HYBRID

> <ReceptorTitle>
UCSF-P4622-REFINED_LIGAND-BOUND-STATE_A__DU__LA1_A-201(A)

> <OMEGA_C>
bF9ewprN2sEx8i5BTjlgwkzc4sGEZSFBdENZwp6P1sFKDSxBuMYuwjNP8cFnlX1Aab8ywgua8sGu
jj9Aovdcwmqs5sFe9BBBxgFWwr9f2sEjnBtBYgIwwt5s7cH4oKdAjhY4wmEN8MFP3lBAnNtXwlpu
4sGFDw5BpFo1wkbU6sFV3rBAyTk5woEy7MEwU5FAD7k8wkLr5cE1Uc1AmmRUwt595sEuG/lA/5NJ
wmrI6sHKoddAZm5KwjTn/MFzEftAoJtQwgvh98EFiL5Alf9AwpLy4cHXGutAonJNwl/D88EJJuVA
nZk3wiTs5sFk7dVALOY9wiL+6MEDa6RA5SBRwsQF78H20QFBGSFFwi7a6cGj7/FAKotUwnQb4sHQ
9NVA+WdKwhoF5cEwYrhAk+hgwvvV18HCvjtBjzNkwmwr5sGOpCNBLtFXwhhL0MGSmzZB86gqwv9a
88GYRW5Acasxwrmj9cGQrgBAPnRewh/07MEyfwZBLAhSwh0C18EVghlBaeQswjZ07MGmfL9A4C07
wl4L8cHs2yBArS5NwlOmAcLKWQJBL1RIwsQ3+sFV8QtBgnVHwtI4AMKLfeVAx15TwkZG/sG/8sdA
ZO5NwpQo+8FYDqZA8PxSwtCN8cHhga9AlEo/wonh38FPJgVBMehCwvW52sFncd5Ajo5Bwprr6MEH
lpZAywZRwozs8cGg7RBBl8BEwryu7sEI7AVB

> <OMEGA_E>
JKKDwA==

> <OMEGA_NBR>
     61854

$$$$
CACHE3HI_1704_93
  -OEChem-03092622523D

 52 54  0     0  0  0  0  0  0999 V2000
  -56.2040  -24.9469   13.2582 C   0  0  0  0  0  0  0  0  0  0  0  0
  -56.8550  -26.0676   13.7739 C   0  0  0  0  0  0  0  0  0  0  0  0
  -55.6013  -25.0079   12.0018 C   0  0  0  0  0  0  0  0  0  0  0  0
  -48.4993  -29.6706    2.8096 C   0  0  0  0  0  0  0  0  0  0  0  0
  -47.7037  -29.5625    5.0884 C   0  0  0  0  0  0  0  0  0  0  0  0
  -47.2117  -29.9858    2.3757 C   0  0  0  0  0  0  0  0  0  0  0  0
  -46.4160  -29.8776    4.6545 C   0  0  0  0  0  0  0  0  0  0  0  0
  -53.9078  -28.5681    6.6939 C   0  0  0  0  0  0  0  0  0  0  0  0
  -52.9308  -29.6068    8.6443 C   0  0  0  0  0  0  0  0  0  0  0  0
  -56.9034  -27.2489   13.0335 C   0  0  0  0  0  0  0  0  0  0  0  0
  -55.6497  -26.1891   11.2614 C   0  0  0  0  0  0  0  0  0  0  0  0
  -52.7060  -28.7323    6.0051 C   0  0  0  0  0  0  0  0  0  0  0  0
  -51.7290  -29.7710    7.9556 C   0  0  0  0  0  0  0  0  0  0  0  0
  -48.7452  -29.4591    4.1662 C   0  0  0  0  0  0  0  0  0  0  0  0
  -54.0201  -29.0055    8.0135 C   0  0  0  0  0  0  0  0  0  0  0  0
  -46.1701  -30.0891    3.2979 C   0  0  0  0  0  0  0  0  0  0  0  0
  -56.3006  -27.3098   11.7771 C   0  0  0  0  0  0  0  0  0  0  0  0
  -51.6167  -29.3336    6.6359 C   0  0  0  0  0  0  0  0  0  0  0  0
  -50.0876  -29.1310    4.6192 C   0  0  0  0  0  0  0  0  0  0  0  0
  -55.2730  -28.8349    8.7319 C   0  0  0  0  0  0  0  0  0  0  0  0
  -44.8279  -30.4177    2.8449 C   0  0  0  0  0  0  0  0  0  0  0  0
  -42.8739  -28.5151    1.9412 C   0  0  0  0  0  0  0  0  0  0  0  0
  -56.3525  -28.5814   10.9797 C   0  0  0  0  0  0  0  0  0  0  0  0
  -42.6255  -29.5235    3.0427 C   0  0  0  0  0  0  0  0  0  0  0  0
  -50.3963  -29.5000    5.9361 N   0  0  0  0  0  0  0  0  0  0  0  0
  -55.1965  -28.7315   10.1254 N   0  0  0  0  0  0  0  0  0  0  0  0
  -50.8725  -28.5777    3.8318 O   0  0  0  0  0  0  0  0  0  0  0  0
  -56.3536  -28.8052    8.1173 O   0  0  0  0  0  0  0  0  0  0  0  0
  -44.5746  -31.1124    1.8518 O   0  0  0  0  0  0  0  0  0  0  0  0
  -43.8744  -29.8631    3.6543 O   0  0  0  0  0  0  0  0  0  0  0  0
  -56.1662  -24.0272   13.8346 H   0  0  0  0  0  0  0  0  0  0  0  0
  -57.3247  -26.0201   14.7520 H   0  0  0  0  0  0  0  0  0  0  0  0
  -55.0942  -24.1355   11.6002 H   0  0  0  0  0  0  0  0  0  0  0  0
  -49.3030  -29.5930    2.0821 H   0  0  0  0  0  0  0  0  0  0  0  0
  -47.8849  -29.3996    6.1479 H   0  0  0  0  0  0  0  0  0  0  0  0
  -47.0308  -30.1493    1.3162 H   0  0  0  0  0  0  0  0  0  0  0  0
  -45.6122  -29.9546    5.3820 H   0  0  0  0  0  0  0  0  0  0  0  0
  -54.7495  -28.0985    6.1916 H   0  0  0  0  0  0  0  0  0  0  0  0
  -53.0067  -29.9511    9.6724 H   0  0  0  0  0  0  0  0  0  0  0  0
  -57.4128  -28.1169   13.4437 H   0  0  0  0  0  0  0  0  0  0  0  0
  -55.1780  -26.2267   10.2830 H   0  0  0  0  0  0  0  0  0  0  0  0
  -52.6297  -28.3882    4.9768 H   0  0  0  0  0  0  0  0  0  0  0  0
  -50.8868  -30.2404    8.4576 H   0  0  0  0  0  0  0  0  0  0  0  0
  -43.5367  -28.9284    1.1756 H   0  0  0  0  0  0  0  0  0  0  0  0
  -43.3265  -27.6045    2.3468 H   0  0  0  0  0  0  0  0  0  0  0  0
  -41.9312  -28.2192    1.4700 H   0  0  0  0  0  0  0  0  0  0  0  0
  -56.3972  -29.4514   11.6432 H   0  0  0  0  0  0  0  0  0  0  0  0
  -57.2440  -28.6105   10.3446 H   0  0  0  0  0  0  0  0  0  0  0  0
  -41.9623  -29.1041    3.8048 H   0  0  0  0  0  0  0  0  0  0  0  0
  -42.1738  -30.4336    2.6359 H   0  0  0  0  0  0  0  0  0  0  0  0
  -49.6451  -29.9459    6.4577 H   0  0  0  0  0  0  0  0  0  0  0  0
  -54.2949  -28.8253   10.5809 H   0  0  0  0  0  0  0  0  0  0  0  0
  1  2  1  0  0  0  0
  1  3  2  0  0  0  0
  2 10  2  0  0  0  0
  3 11  1  0  0  0  0
  4  6  2  0  0  0  0
  4 14  1  0  0  0  0
  5  7  1  0  0  0  0
  5 14  2  0  0  0  0
  6 16  1  0  0  0  0
  7 16  2  0  0  0  0
  8 12  2  0  0  0  0
  8 15  1  0  0  0  0
  9 13  1  0  0  0  0
  9 15  2  0  0  0  0
 10 17  1  0  0  0  0
 11 17  2  0  0  0  0
 12 18  1  0  0  0  0
 13 18  2  0  0  0  0
 14 19  1  0  0  0  0
 15 20  1  0  0  0  0
 16 21  1  0  0  0  0
 17 23  1  0  0  0  0
 18 25  1  0  0  0  0
 19 25  1  0  0  0  0
 19 27  2  0  0  0  0
 20 26  1  0  0  0  0
 20 28  2  0  0  0  0
 21 29  2  0  0  0  0
 21 30  1  0  0  0  0
 22 24  1  0  0  0  0
 23 26  1  0  0  0  0
 24 30  1  0  0  0  0
  1 31  1  0  0  0  0
  2 32  1  0  0  0  0
  3 33  1  0  0  0  0
  4 34  1  0  0  0  0
  5 35  1  0  0  0  0
  6 36  1  0  0  0  0
  7 37  1  0  0  0  0
  8 38  1  0  0  0  0
  9 39  1  0  0  0  0
 10 40  1  0  0  0  0
 11 41  1  0  0  0  0
 12 42  1  0  0  0  0
 13 43  1  0  0  0  0
 22 44  1  0  0  0  0
 22 45  1  0  0  0  0
 22 46  1  0  0  0  0
 23 47  1  0  0  0  0
 23 48  1  0  0  0  0
 24 49  1  0  0  0  0
 24 50  1  0  0  0  0
 25 51  1  0  0  0  0
 26 52  1  0  0  0  0
M  END
> <POSIT::Probability>
0.18

> <POSIT::Method>
HYBRID

> <ReceptorTitle>
UCSF-P4622-REFINED_LIGAND-BOUND-STATE_A__DU__LA1_A-201(A)

> <OMEGA_C>
8NBgwj6Tx8GEIVRBgmtjwnCK0MEQYlxBtWdewh8QyMGIB0BBTP9Bwn1d7cHZ0DNAkdA+wuh/7MEl
1KJAu9g8wuTi78HYChhACKo5wkoF78GG8ZRAnaFXwmSL5MFGNNZAKLlTwqTa7MEHTwpBIJ1jwrH9
2cFEiVBBU5lewmGD0cG8LjRB89JSwtbb5cEvKsBAhepOwhkr7sFllP5AHPtCwkqs68FGUYVAnhRY
wj8L6MFwNwBBL644woK28MGQEFNA3TNhwod62sEYbzxBfHdOwjqr6sFeWdRArVlIwlYM6cGn0JNA
mhddwvet5sEAtgtBw08zwmhX88G0EjZA5X4rwvAe5MHiePg//mhhwq6m5MHbrC9BiIAqwjAw7MHy
ukJAzZVJwv7/68Fm9L1AQ8lcwg/a5cG+ASJBZn1Lwi6f5MFQPHVAE2phwvpw5sGq4AFBYkwywkXm
+MHgCO0/WH8vwprn7sHS4GlAPapgws43wMFqWl1BhUxlwkMp0MFICGxBfmBcwnoVwcFOmjlBQzZF
wl6+7MGnQQVAK4o/wmoy68F5u8RAgR88wqwx8cHod6g/5nI2wh2j78EROaxAhv9awrzJ4MHOIcZA
5QZUwuib78E+whpBuqZlwnjv4MFMGVdBTbZcwjDQ0cFchyRB1YRSwvIa48EbQp9AEIxLwmfs8cE9
UgdBiyUuwllt58HYepY/XU4twvDV3MEnMRZAjLknwt3A4cGOKLw/wpZhwnic68F+SjpB4/lkwmTi
5MFbgyVBXNknwkfV6MF1gXNA8rEowhx488EusihAmJRGwhyR78Eepc5A+i1Zwkaa5sF8SylB

> <OMEGA_E>
dv65wA==

> <OMEGA_NBR>
     63387

$$$$
CACHE3HI_1704_96
  -OEChem-03092622523D

 49 50  0     0  0  0  0  0  0999 V2000
  -43.9774  -29.5449    4.2737 C   0  0  0  0  0  0  0  0  0  0  0  0
  -44.0152  -30.0414    2.9707 C   0  0  0  0  0  0  0  0  0  0  0  0
  -56.1467  -27.8319    8.9526 C   0  0  0  0  0  0  0  0  0  0  0  0
  -53.8273  -27.2113    9.2224 C   0  0  0  0  0  0  0  0  0  0  0  0
  -55.8612  -28.3466    7.6880 C   0  0  0  0  0  0  0  0  0  0  0  0
  -53.5418  -27.7260    7.9579 C   0  0  0  0  0  0  0  0  0  0  0  0
  -45.1592  -29.1622    4.9080 C   0  0  0  0  0  0  0  0  0  0  0  0
  -45.2343  -30.1555    2.3023 C   0  0  0  0  0  0  0  0  0  0  0  0
  -55.1295  -27.2643    9.7198 C   0  0  0  0  0  0  0  0  0  0  0  0
  -54.5589  -28.2936    7.1906 C   0  0  0  0  0  0  0  0  0  0  0  0
  -46.3783  -29.2763    4.2397 C   0  0  0  0  0  0  0  0  0  0  0  0
  -46.4161  -29.7728    2.9367 C   0  0  0  0  0  0  0  0  0  0  0  0
  -55.4273  -26.7258   11.0376 C   0  0  0  0  0  0  0  0  0  0  0  0
  -47.8501  -28.9169    6.2493 C   0  0  0  0  0  0  0  0  0  0  0  0
  -51.4101  -30.5317    6.1825 C   0  0  0  0  0  0  0  0  0  0  0  0
  -54.7891  -25.0728   12.6340 C   0  0  0  0  0  0  0  0  0  0  0  0
  -54.2506  -28.8512    5.8230 C   0  0  0  0  0  0  0  0  0  0  0  0
  -49.2465  -28.4208    6.5571 C   0  0  0  0  0  0  0  0  0  0  0  0
  -50.3628  -30.8331    7.2282 C   0  0  0  0  0  0  0  0  0  0  0  0
  -53.8602  -30.3264    5.8545 C   0  0  0  0  0  0  0  0  0  0  0  0
  -47.5763  -28.8879    4.8871 N   0  0  0  0  0  0  0  0  0  0  0  0
  -52.7016  -30.5704    6.6820 N   0  0  0  0  0  0  0  0  0  0  0  0
  -56.3225  -27.1491   11.7808 O   0  0  0  0  0  0  0  0  0  0  0  0
  -47.0998  -29.2703    7.1557 O   0  0  0  0  0  0  0  0  0  0  0  0
  -51.1104  -30.2926    5.0137 O   0  0  0  0  0  0  0  0  0  0  0  0
  -54.5938  -25.6889   11.3568 O   0  0  0  0  0  0  0  0  0  0  0  0
  -47.5822  -29.8875    2.2848 F   0  0  0  0  0  0  0  0  0  0  0  0
  -49.8630  -29.2861    8.0204 S   0  0  0  0  0  0  0  0  0  0  0  0
  -43.0282  -29.4568    4.7938 H   0  0  0  0  0  0  0  0  0  0  0  0
  -43.0952  -30.3393    2.4762 H   0  0  0  0  0  0  0  0  0  0  0  0
  -57.1650  -27.8782    9.3298 H   0  0  0  0  0  0  0  0  0  0  0  0
  -53.0268  -26.7706    9.8112 H   0  0  0  0  0  0  0  0  0  0  0  0
  -56.6601  -28.7865    7.0970 H   0  0  0  0  0  0  0  0  0  0  0  0
  -52.5240  -27.6818    7.5797 H   0  0  0  0  0  0  0  0  0  0  0  0
  -45.1177  -28.7759    5.9233 H   0  0  0  0  0  0  0  0  0  0  0  0
  -45.2634  -30.5423    1.2878 H   0  0  0  0  0  0  0  0  0  0  0  0
  -54.0646  -24.2648   12.7648 H   0  0  0  0  0  0  0  0  0  0  0  0
  -55.8010  -24.6629   12.6802 H   0  0  0  0  0  0  0  0  0  0  0  0
  -54.6648  -25.8189   13.4222 H   0  0  0  0  0  0  0  0  0  0  0  0
  -55.1118  -28.7029    5.1587 H   0  0  0  0  0  0  0  0  0  0  0  0
  -53.4293  -28.2685    5.3869 H   0  0  0  0  0  0  0  0  0  0  0  0
  -49.2657  -27.3413    6.7317 H   0  0  0  0  0  0  0  0  0  0  0  0
  -49.8933  -28.6358    5.7006 H   0  0  0  0  0  0  0  0  0  0  0  0
  -50.7925  -31.5109    7.9722 H   0  0  0  0  0  0  0  0  0  0  0  0
  -49.4846  -31.3179    6.7932 H   0  0  0  0  0  0  0  0  0  0  0  0
  -54.6794  -30.9196    6.2739 H   0  0  0  0  0  0  0  0  0  0  0  0
  -53.6395  -30.7115    4.8538 H   0  0  0  0  0  0  0  0  0  0  0  0
  -48.3080  -28.5428    4.2698 H   0  0  0  0  0  0  0  0  0  0  0  0
  -52.8390  -30.7781    7.6668 H   0  0  0  0  0  0  0  0  0  0  0  0
  1  2  1  0  0  0  0
  1  7  2  0  0  0  0
  2  8  2  0  0  0  0
  3  5  2  0  0  0  0
  3  9  1  0  0  0  0
  4  6  1  0  0  0  0
  4  9  2  0  0  0  0
  5 10  1  0  0  0  0
  6 10  2  0  0  0  0
  7 11  1  0  0  0  0
  8 12  1  0  0  0  0
  9 13  1  0  0  0  0
 10 17  1  0  0  0  0
 11 12  2  0  0  0  0
 11 21  1  0  0  0  0
 12 27  1  0  0  0  0
 13 23  2  0  0  0  0
 13 26  1  0  0  0  0
 14 18  1  0  0  0  0
 14 21  1  0  0  0  0
 14 24  2  0  0  0  0
 15 19  1  0  0  0  0
 15 22  1  0  0  0  0
 15 25  2  0  0  0  0
 16 26  1  0  0  0  0
 17 20  1  0  0  0  0
 18 28  1  0  0  0  0
 19 28  1  0  0  0  0
 20 22  1  0  0  0  0
  1 29  1  0  0  0  0
  2 30  1  0  0  0  0
  3 31  1  0  0  0  0
  4 32  1  0  0  0  0
  5 33  1  0  0  0  0
  6 34  1  0  0  0  0
  7 35  1  0  0  0  0
  8 36  1  0  0  0  0
 16 37  1  0  0  0  0
 16 38  1  0  0  0  0
 16 39  1  0  0  0  0
 17 40  1  0  0  0  0
 17 41  1  0  0  0  0
 18 42  1  0  0  0  0
 18 43  1  0  0  0  0
 19 44  1  0  0  0  0
 19 45  1  0  0  0  0
 20 46  1  0  0  0  0
 20 47  1  0  0  0  0
 21 48  1  0  0  0  0
 22 49  1  0  0  0  0
M  END
> <POSIT::Probability>
0.14

> <POSIT::Method>
HYBRID

> <ReceptorTitle>
UCSF-P4622-REFINED_LIGAND-BOUND-STATE_A__DU__LA1_A-201(A)

> <OMEGA_C>
6Ogvwtxb7MG/wYhAhw8wwr5U8MGEHz5AN5ZgwqWn3sGmPQ9BJ09Xwq2w2cEEjxNB13FfwtvF4sGw
A/ZAwipWwtTO3cHUpv5ACqM0wjJM6cGODp1A5+80wnk+8cHuWBNAo4RcwkId2sFQhBtBXDxawkVZ
4sEZGeZAbIM5wuw16sFHq4dAE6o5wsAu7sFT8ztAl7VdwnPO1cHimTBBdmY/wuVV58H8+cdA76NN
wvZA9MFA18VAFShbwhGVyMHxJEpBoABZwkrP5sGeVbpAc/xEwsRd48HP09FAf3NJwkeq9sFnTedA
0XBXwmec8sEZWLtAKE4+wmQa58HWYpxAcs5SwjOQ9MGk0tVANEphwmcx2cH/fTxBJmY8wqgp6sFE
++RABXFMwlBX8sGDcKBABWBawvCCzcGHtTVBJlQ+wpQZ78FCOhJArnNHwglK6sFrUwBB3Bwswoqn
68GTZplAdWEswu628sFQeh5A/ahkwp8G38HQRhVBehtUwiIq1sGI+hxB8KNiwqtK5sGkGuNAmRhS
wlJ03cEcjfJAfXg0wgk15sFli71AxQ01wqBW9MEQ1qQ/L0JYwlEewsGPPExBMjRfwrBNxcH44UpB
uqhawhyNzsFiwVZBfXJcwnif5cFyFKVAmrdVwtIl4sG0YaxAExBFwhC72sHbaddAu5JHwiwW5cFn
a7ZAhytLwmYW/MFKHP9AOvBFwg6L+sEwYtlArLdawmFb98EfxMhAzI5Wwj6x9cFTUptAbDtBwr9X
5ME2oohALltTwqA59sEkVvVA

> <OMEGA_E>
Z8hiwA==

> <OMEGA_NBR>
     64857

$$$$
CACHE3HI_1707_44
  -OEChem-03092622523D

 42 44  0     0  0  0  0  0  0999 V2000
  -47.9600  -29.3527    2.6225 C   0  0  0  0  0  0  0  0  0  0  0  0
  -46.7284  -29.6489    2.0489 C   0  0  0  0  0  0  0  0  0  0  0  0
  -48.0427  -29.1206    3.9915 C   0  0  0  0  0  0  0  0  0  0  0  0
  -45.5817  -29.7112    2.8462 C   0  0  0  0  0  0  0  0  0  0  0  0
  -53.3050  -29.6930    8.3627 C   0  0  0  0  0  0  0  0  0  0  0  0
  -54.6218  -29.4169    8.7308 C   0  0  0  0  0  0  0  0  0  0  0  0
  -52.5144  -28.1076   10.0056 C   0  0  0  0  0  0  0  0  0  0  0  0
  -44.6658  -29.3129    6.2895 C   0  0  0  0  0  0  0  0  0  0  0  0
  -46.8848  -29.1855    4.7860 C   0  0  0  0  0  0  0  0  0  0  0  0
  -45.6350  -29.4833    4.2190 C   0  0  0  0  0  0  0  0  0  0  0  0
  -52.2513  -29.0381    9.0001 C   0  0  0  0  0  0  0  0  0  0  0  0
  -54.8849  -28.4864    9.7362 C   0  0  0  0  0  0  0  0  0  0  0  0
  -53.8312  -27.8315   10.3737 C   0  0  0  0  0  0  0  0  0  0  0  0
  -46.8979  -28.9640    6.1597 C   0  0  0  0  0  0  0  0  0  0  0  0
  -50.4766  -30.2009    7.6467 C   0  0  0  0  0  0  0  0  0  0  0  0
  -56.7403  -29.0275   11.1225 C   0  0  0  0  0  0  0  0  0  0  0  0
  -54.2406  -25.5619   10.9554 C   0  0  0  0  0  0  0  0  0  0  0  0
  -48.9669  -30.2260    7.5404 C   0  0  0  0  0  0  0  0  0  0  0  0
  -44.5211  -29.5479    4.9695 N   0  0  0  0  0  0  0  0  0  0  0  0
  -45.8027  -29.0212    6.9409 N   0  0  0  0  0  0  0  0  0  0  0  0
  -50.9144  -29.3181    8.6266 N   0  0  0  0  0  0  0  0  0  0  0  0
  -51.1657  -30.8968    6.9049 O   0  0  0  0  0  0  0  0  0  0  0  0
  -56.1753  -28.2260   10.0865 O   0  0  0  0  0  0  0  0  0  0  0  0
  -54.0752  -26.9207   11.3568 O   0  0  0  0  0  0  0  0  0  0  0  0
  -48.3861  -28.5711    7.0812 S   0  0  0  0  0  0  0  0  0  0  0  0
  -48.8515  -29.3023    2.0049 H   0  0  0  0  0  0  0  0  0  0  0  0
  -46.6560  -29.8321    0.9808 H   0  0  0  0  0  0  0  0  0  0  0  0
  -49.0215  -28.8939    4.4031 H   0  0  0  0  0  0  0  0  0  0  0  0
  -44.6300  -29.9443    2.3724 H   0  0  0  0  0  0  0  0  0  0  0  0
  -53.1118  -30.4196    7.5776 H   0  0  0  0  0  0  0  0  0  0  0  0
  -55.4383  -29.9301    8.2302 H   0  0  0  0  0  0  0  0  0  0  0  0
  -51.6958  -27.5944   10.5051 H   0  0  0  0  0  0  0  0  0  0  0  0
  -43.7648  -29.3647    6.8885 H   0  0  0  0  0  0  0  0  0  0  0  0
  -57.7724  -28.7165   11.3036 H   0  0  0  0  0  0  0  0  0  0  0  0
  -56.7270  -30.0743   10.8097 H   0  0  0  0  0  0  0  0  0  0  0  0
  -56.1495  -28.9149   12.0345 H   0  0  0  0  0  0  0  0  0  0  0  0
  -54.4293  -24.9411   11.8351 H   0  0  0  0  0  0  0  0  0  0  0  0
  -53.3263  -25.2229   10.4623 H   0  0  0  0  0  0  0  0  0  0  0  0
  -55.0774  -25.4867   10.2572 H   0  0  0  0  0  0  0  0  0  0  0  0
  -48.4978  -30.5341    8.4791 H   0  0  0  0  0  0  0  0  0  0  0  0
  -48.6803  -30.9460    6.7675 H   0  0  0  0  0  0  0  0  0  0  0  0
  -50.2053  -28.7987    9.1393 H   0  0  0  0  0  0  0  0  0  0  0  0
  1  2  1  0  0  0  0
  1  3  2  0  0  0  0
  2  4  2  0  0  0  0
  3  9  1  0  0  0  0
  4 10  1  0  0  0  0
  5  6  2  0  0  0  0
  5 11  1  0  0  0  0
  6 12  1  0  0  0  0
  7 11  2  0  0  0  0
  7 13  1  0  0  0  0
  8 19  2  0  0  0  0
  8 20  1  0  0  0  0
  9 10  2  0  0  0  0
  9 14  1  0  0  0  0
 10 19  1  0  0  0  0
 11 21  1  0  0  0  0
 12 13  2  0  0  0  0
 12 23  1  0  0  0  0
 13 24  1  0  0  0  0
 14 20  2  0  0  0  0
 14 25  1  0  0  0  0
 15 18  1  0  0  0  0
 15 21  1  0  0  0  0
 15 22  2  0  0  0  0
 16 23  1  0  0  0  0
 17 24  1  0  0  0  0
 18 25  1  0  0  0  0
  1 26  1  0  0  0  0
  2 27  1  0  0  0  0
  3 28  1  0  0  0  0
  4 29  1  0  0  0  0
  5 30  1  0  0  0  0
  6 31  1  0  0  0  0
  7 32  1  0  0  0  0
  8 33  1  0  0  0  0
 16 34  1  0  0  0  0
 16 35  1  0  0  0  0
 16 36  1  0  0  0  0
 17 37  1  0  0  0  0
 17 38  1  0  0  0  0
 17 39  1  0  0  0  0
 18 40  1  0  0  0  0
 18 41  1  0  0  0  0
 21 42  1  0  0  0  0
M  END
> <POSIT::Probability>
0.23

> <POSIT::Method>
HYBRID

> <ReceptorTitle>
UCSF-P4622-REFINED_LIGAND-BOUND-STATE_A__DU__LA1_A-201(A)

> <OMEGA_C>
Fdc/wkHS6sEp1ydA2uk6wu0w7cHiIQNAwitAwv726MFOdX9AplM2wn2w7cHoKDZASDhVwkWL7cGU
zQVBsHxawspV68FcsQtBwA5SwmDc4MHbFiBBzakywrqA6sFGQ8lACoo7wv976cEFJ5lAM4o2wr3d
68EbAodAUgFRwhFO6MGOABBBHopbwhrk48GoxxtBGlNXwt2m3sGs+iVBfJc7wj6258GQHMVAAOhJ
woWb8cGVsfRADfZiwj846MHc9TFBW/ZYwrh+zMEzSS9BFd5Dwr/O8cE0S/FAnRUywixi7MGDBp9A
8TU3wncr6MHRG95AV6hLwm+L6sGHBgpBpKlMwros98Gk9NxAirNgwtbO4cE2YiFBDE1YwqZd18GU
tTVBZItBwrOR5MFjmeJA7GdDwhdr6sGOTwBAvp86wiKo7sFwE3s/ABZEwssm58Fd5oxAHYUywvqN
78H81BdAcnJUwk5b88FWe/JA18Bdwt9w78G9rgNBgchOwkjB3MG6FChBIA8vwv/q6sGTbtxA+xZn
wly75cGc2zRBeOhiwiuY8MF89CxBDplgwsZR58FEjUBBkrdZwnSHx8GbXD1BKU5VwoLIycF4ZSdB
Pk9cwq7ky8FLHSRByP1Bws9F9MFgqgdBmrhCwnaR98EXj9hARtJIwqpj5sG4OhJB

> <OMEGA_E>
9I7+wA==

> <OMEGA_NBR>
     66190

$$$$
CACHE3HI_1708_38
  -OEChem-03092622523D

 59 62  0     1  0  0  0  0  0999 V2000
  -42.9880  -28.8503    2.8711 C   0  0  0  0  0  0  0  0  0  0  0  0
  -43.4460  -28.8263    1.5538 C   0  0  0  0  0  0  0  0  0  0  0  0
  -43.7740  -29.4213    3.8719 C   0  0  0  0  0  0  0  0  0  0  0  0
  -49.3164  -30.7009    3.7860 C   0  0  0  0  0  0  0  0  0  0  0  0
  -48.3802  -28.5053    4.1606 C   0  0  0  0  0  0  0  0  0  0  0  0
  -44.6897  -29.3733    1.2372 C   0  0  0  0  0  0  0  0  0  0  0  0
  -45.0177  -29.9683    3.5553 C   0  0  0  0  0  0  0  0  0  0  0  0
  -49.8834  -30.6759    5.0602 C   0  0  0  0  0  0  0  0  0  0  0  0
  -48.9472  -28.4802    5.4348 C   0  0  0  0  0  0  0  0  0  0  0  0
  -53.4207  -26.7853   10.0368 C   0  0  0  0  0  0  0  0  0  0  0  0
  -44.3308  -33.7716   -1.7792 C   0  0  0  0  0  0  0  0  0  0  0  0
  -53.9847  -27.1656    8.8043 C   0  0  0  0  0  0  0  0  0  0  0  0
  -45.5555  -34.4337   -1.5700 C   0  0  0  0  0  0  0  0  0  0  0  0
  -52.4926  -27.7620   10.3048 C   0  0  0  0  0  0  0  0  0  0  0  0
  -44.1513  -33.0170   -0.6454 C   0  0  0  0  0  0  0  0  0  0  0  0
  -48.5648  -29.6154    3.3362 C   0  0  0  0  0  0  0  0  0  0  0  0
  -49.6988  -29.5658    5.8845 C   0  0  0  0  0  0  0  0  0  0  0  0
  -45.4757  -29.9442    2.2380 C   0  0  0  0  0  0  0  0  0  0  0  0
  -51.4441  -30.1669    7.5977 C   0  0  0  0  0  0  0  0  0  0  0  0
  -46.8332  -31.8768    1.5505 C   0  0  0  0  0  0  0  0  0  0  0  0
  -52.3921  -31.0874    9.7604 C   0  0  0  0  0  0  0  0  0  0  0  0
  -45.5110  -33.7930    2.5538 C   0  0  0  0  0  0  0  0  0  0  0  0
  -47.9519  -29.6429    1.9655 C   0  0  0  0  0  0  0  0  0  0  0  0
  -51.7213  -29.8906    9.0803 C   0  0  2  0  0  0  0  0  0  0  0  0
  -45.5114  -32.6649    1.5133 C   0  0  1  0  0  0  0  0  0  0  0  0
  -53.4589  -28.2950    8.3229 N   0  0  0  0  0  0  0  0  0  0  0  0
  -46.1139  -34.1269   -0.3962 N   0  0  0  0  0  0  0  0  0  0  0  0
  -52.5546  -28.6335    9.2575 N   0  0  0  0  0  0  0  0  0  0  0  0
  -45.2366  -33.2635    0.1430 N   0  0  0  0  0  0  0  0  0  0  0  0
  -50.2661  -29.5408    7.1588 N   0  0  0  0  0  0  0  0  0  0  0  0
  -46.7683  -30.5126    1.9096 N   0  0  0  0  0  0  0  0  0  0  0  0
  -52.1946  -30.8656    6.9222 O   0  0  0  0  0  0  0  0  0  0  0  0
  -47.8804  -32.4623    1.2524 O   0  0  0  0  0  0  0  0  0  0  0  0
  -42.0203  -28.4233    3.1176 H   0  0  0  0  0  0  0  0  0  0  0  0
  -42.8348  -28.3805    0.7744 H   0  0  0  0  0  0  0  0  0  0  0  0
  -43.4181  -29.4397    4.8978 H   0  0  0  0  0  0  0  0  0  0  0  0
  -49.4652  -31.5699    3.1508 H   0  0  0  0  0  0  0  0  0  0  0  0
  -47.7957  -27.6552    3.8183 H   0  0  0  0  0  0  0  0  0  0  0  0
  -45.0361  -29.3474    0.2069 H   0  0  0  0  0  0  0  0  0  0  0  0
  -45.6216  -30.4102    4.3442 H   0  0  0  0  0  0  0  0  0  0  0  0
  -50.4674  -31.5274    5.4005 H   0  0  0  0  0  0  0  0  0  0  0  0
  -48.7964  -27.6098    6.0685 H   0  0  0  0  0  0  0  0  0  0  0  0
  -53.6540  -25.9248   10.6464 H   0  0  0  0  0  0  0  0  0  0  0  0
  -43.6707  -33.8317   -2.6319 H   0  0  0  0  0  0  0  0  0  0  0  0
  -54.7569  -26.6661    8.2367 H   0  0  0  0  0  0  0  0  0  0  0  0
  -46.0640  -35.1275   -2.2243 H   0  0  0  0  0  0  0  0  0  0  0  0
  -51.8119  -27.9074   11.1322 H   0  0  0  0  0  0  0  0  0  0  0  0
  -43.3636  -32.3414   -0.3417 H   0  0  0  0  0  0  0  0  0  0  0  0
  -53.3758  -31.2854    9.3226 H   0  0  0  0  0  0  0  0  0  0  0  0
  -51.7805  -31.9886    9.6418 H   0  0  0  0  0  0  0  0  0  0  0  0
  -52.5309  -30.9271   10.8352 H   0  0  0  0  0  0  0  0  0  0  0  0
  -46.2913  -34.5373    2.3532 H   0  0  0  0  0  0  0  0  0  0  0  0
  -44.5482  -34.3163    2.5563 H   0  0  0  0  0  0  0  0  0  0  0  0
  -45.6813  -33.3994    3.5629 H   0  0  0  0  0  0  0  0  0  0  0  0
  -48.6739  -30.0074    1.2272 H   0  0  0  0  0  0  0  0  0  0  0  0
  -47.6450  -28.6395    1.6523 H   0  0  0  0  0  0  0  0  0  0  0  0
  -50.7460  -29.7518    9.5674 H   0  0  0  0  0  0  0  0  0  0  0  0
  -44.7029  -31.9849    1.8053 H   0  0  0  0  0  0  0  0  0  0  0  0
  -49.7600  -29.0000    7.8692 H   0  0  0  0  0  0  0  0  0  0  0  0
  1  2  1  0  0  0  0
  1  3  2  0  0  0  0
  2  6  2  0  0  0  0
  3  7  1  0  0  0  0
  4  8  2  0  0  0  0
  4 16  1  0  0  0  0
  5  9  1  0  0  0  0
  5 16  2  0  0  0  0
  6 18  1  0  0  0  0
  7 18  2  0  0  0  0
  8 17  1  0  0  0  0
  9 17  2  0  0  0  0
 10 12  1  0  0  0  0
 10 14  2  0  0  0  0
 11 13  1  0  0  0  0
 11 15  2  0  0  0  0
 12 26  2  0  0  0  0
 13 27  2  0  0  0  0
 14 28  1  0  0  0  0
 15 29  1  0  0  0  0
 16 23  1  0  0  0  0
 17 30  1  0  0  0  0
 18 31  1  0  0  0  0
 19 24  1  0  0  0  0
 19 30  1  0  0  0  0
 19 32  2  0  0  0  0
 20 25  1  0  0  0  0
 20 31  1  0  0  0  0
 20 33  2  0  0  0  0
 21 24  1  0  0  0  0
 22 25  1  0  0  0  0
 23 31  1  0  0  0  0
 24 28  1  0  0  0  0
 25 29  1  0  0  0  0
 26 28  1  0  0  0  0
 27 29  1  0  0  0  0
  1 34  1  0  0  0  0
  2 35  1  0  0  0  0
  3 36  1  0  0  0  0
  4 37  1  0  0  0  0
  5 38  1  0  0  0  0
  6 39  1  0  0  0  0
  7 40  1  0  0  0  0
  8 41  1  0  0  0  0
  9 42  1  0  0  0  0
 10 43  1  0  0  0  0
 11 44  1  0  0  0  0
 12 45  1  0  0  0  0
 13 46  1  0  0  0  0
 14 47  1  0  0  0  0
 15 48  1  0  0  0  0
 21 49  1  0  0  0  0
 21 50  1  0  0  0  0
 21 51  1  0  0  0  0
 22 52  1  0  0  0  0
 22 53  1  0  0  0  0
 22 54  1  0  0  0  0
 23 55  1  0  0  0  0
 23 56  1  0  0  0  0
 24 57  1  0  0  0  0
 25 58  1  0  0  0  0
 30 59  1  0  0  0  0
M  END
> <POSIT::Probability>
0.05

> <POSIT::Method>
FRED

> <ReceptorTitle>
UCSF-P4622-REFINED_LIGAND-BOUND-STATE_A__DU__LA1_A-201(A)

> <OMEGA_C>
svMrwoHN5sGFvzdAv8gtwkic5sFq4cY/oBgvwsle68FqzHdA90NFwmub9cFaTXJAVoVBwsYK5MHQ
I4VAOcIywnv86sF8XJ4/GRI0wvy+78HwiWNAmIhHwiZo9cHe7KFA7clDwnLX48Gp6a1Axa5VwkdI
1sHwliBBw1IxwigWB8LMu+O/UfBXwhNT2cFu3gxB0Dg2wiK8CcJw9si/c/hRwp0Y3sGQ4CRB+Jow
wm4RBMKYOSW/aEJCwj3s7MHwhFVAhstGwq6G7ME2TrxAK+c1wsuN78EQPA9AwsZNwuBV8cE5IPNA
NlU7wqUD/8EUd8Y/gpFRwg2z+MGEKhxBSAs2whQsB8JccSNAyM4/wpgk7cFslPs/puJOwuUf78Hi
SBFBqgs2wuCoAsIStcE/59VVwiJc4sF8KgVBrXQ4wv+BCMLo2sq+7zdSwnIR5cHcHhRBUfI0wtYN
BcKQZxI+eBBJwolT7MEaFeVAvxI7wt0Z9MHsbfQ/S8dQwqrs9sFjgt1AhIU/wmHZAcI8TaA/zRQo
wvNi48GuhkdA2VYrwlgL48GEPUY/Kqwtwn+E68FuupxAVtxFwkGP/MHspklAwS4/wsg93cEEX3RA
9iQ0wo3H6sEA6FM+fHw2whJI88FIA4tAlN5Jwhc4/MG90KxAhy9Dwvbg3MEPMcJAqZ1WwgJmz8Gp
VypB1a4uwrFTB8J5cCjAEwdbwkJU1cGYyQNBhEE4woOCDMK9Wg7AVj9Pwm9C38FsHTJBXnQtwqJd
AcKA8K6+2IBVwpVI+sFnKRVBNh9PwpHo/8G8RBpBrR9Swrxq98ESXS1BQCo5wjwmCsJ6mxZAXjEy
wttDCcI6myNAprk2wgeZBcK5BmRAErJCwi4P8ME6FZ0/d5Q+wrgd5cHKftM/6PtKwrYD7sEEFBlB
uM8ywgDh/8FWE+c/PApHwhgA6MFv0PtA

> <OMEGA_E>
//wSwQ==

> <OMEGA_NBR>
     67869

$$$$
CACHE3HI_1715_36
  -OEChem-03092622523D

 56 59  0     0  0  0  0  0  0999 V2000
  -45.4874  -26.0176    0.1539 C   0  0  0  0  0  0  0  0  0  0  0  0
  -44.1534  -26.1442    0.5412 C   0  0  0  0  0  0  0  0  0  0  0  0
  -46.3110  -27.1425    0.1133 C   0  0  0  0  0  0  0  0  0  0  0  0
  -45.1105  -33.2849    0.3142 C   0  0  0  0  0  0  0  0  0  0  0  0
  -46.2552  -33.4030    1.1025 C   0  0  0  0  0  0  0  0  0  0  0  0
  -43.6431  -27.3953    0.8880 C   0  0  0  0  0  0  0  0  0  0  0  0
  -45.8007  -28.3936    0.4601 C   0  0  0  0  0  0  0  0  0  0  0  0
  -44.3506  -32.1161    0.3598 C   0  0  0  0  0  0  0  0  0  0  0  0
  -46.6398  -32.3528    1.9363 C   0  0  0  0  0  0  0  0  0  0  0  0
  -50.8919  -29.9479    5.5200 C   0  0  0  0  0  0  0  0  0  0  0  0
  -49.0689  -29.2995    6.9669 C   0  0  0  0  0  0  0  0  0  0  0  0
  -50.1716  -29.4999    4.4127 C   0  0  0  0  0  0  0  0  0  0  0  0
  -48.3485  -28.8514    5.8597 C   0  0  0  0  0  0  0  0  0  0  0  0
  -44.4667  -28.5203    0.8474 C   0  0  0  0  0  0  0  0  0  0  0  0
  -50.3403  -29.8478    6.7971 C   0  0  0  0  0  0  0  0  0  0  0  0
  -44.7352  -31.0660    1.1936 C   0  0  0  0  0  0  0  0  0  0  0  0
  -45.8799  -31.1841    1.9818 C   0  0  0  0  0  0  0  0  0  0  0  0
  -48.9001  -28.9516    4.5824 C   0  0  0  0  0  0  0  0  0  0  0  0
  -43.9204  -29.8582    1.2186 C   0  0  0  0  0  0  0  0  0  0  0  0
  -51.1000  -30.3181    7.9644 C   0  0  0  0  0  0  0  0  0  0  0  0
  -46.3158  -30.0841    2.8792 C   0  0  0  0  0  0  0  0  0  0  0  0
  -52.8151  -29.6406    9.6081 C   0  0  0  0  0  0  0  0  0  0  0  0
  -53.2822  -29.2366    7.2179 C   0  0  0  0  0  0  0  0  0  0  0  0
  -53.3832  -28.2596    9.8987 C   0  0  0  0  0  0  0  0  0  0  0  0
  -53.8418  -27.8778    7.6192 C   0  0  0  0  0  0  0  0  0  0  0  0
  -48.1303  -28.4735    3.3983 C   0  0  0  0  0  0  0  0  0  0  0  0
  -52.3363  -29.7244    8.2291 N   0  0  0  0  0  0  0  0  0  0  0  0
  -47.5765  -29.5589    2.6298 N   0  0  0  0  0  0  0  0  0  0  0  0
  -42.7299  -29.9176    1.5559 O   0  0  0  0  0  0  0  0  0  0  0  0
  -50.5828  -31.2175    8.6237 O   0  0  0  0  0  0  0  0  0  0  0  0
  -45.5552  -29.6906    3.7595 O   0  0  0  0  0  0  0  0  0  0  0  0
  -54.3859  -27.9232    8.9383 O   0  0  0  0  0  0  0  0  0  0  0  0
  -45.8845  -25.0435   -0.1161 H   0  0  0  0  0  0  0  0  0  0  0  0
  -43.5114  -25.2687    0.5728 H   0  0  0  0  0  0  0  0  0  0  0  0
  -47.3496  -27.0450   -0.1894 H   0  0  0  0  0  0  0  0  0  0  0  0
  -44.8111  -34.1026   -0.3348 H   0  0  0  0  0  0  0  0  0  0  0  0
  -46.8471  -34.3130    1.0672 H   0  0  0  0  0  0  0  0  0  0  0  0
  -42.6019  -27.4814    1.1884 H   0  0  0  0  0  0  0  0  0  0  0  0
  -46.4519  -29.2634    0.4245 H   0  0  0  0  0  0  0  0  0  0  0  0
  -43.4605  -32.0355   -0.2591 H   0  0  0  0  0  0  0  0  0  0  0  0
  -47.5339  -32.4571    2.5458 H   0  0  0  0  0  0  0  0  0  0  0  0
  -51.8818  -30.3731    5.3758 H   0  0  0  0  0  0  0  0  0  0  0  0
  -48.6294  -29.2157    7.9576 H   0  0  0  0  0  0  0  0  0  0  0  0
  -50.6095  -29.5814    3.4214 H   0  0  0  0  0  0  0  0  0  0  0  0
  -47.3582  -28.4275    6.0017 H   0  0  0  0  0  0  0  0  0  0  0  0
  -52.0171  -29.8859   10.3156 H   0  0  0  0  0  0  0  0  0  0  0  0
  -53.6010  -30.3988    9.7075 H   0  0  0  0  0  0  0  0  0  0  0  0
  -54.0902  -29.9765    7.1751 H   0  0  0  0  0  0  0  0  0  0  0  0
  -52.8257  -29.1775    6.2269 H   0  0  0  0  0  0  0  0  0  0  0  0
  -53.8534  -28.2505   10.8871 H   0  0  0  0  0  0  0  0  0  0  0  0
  -52.5983  -27.4939    9.8971 H   0  0  0  0  0  0  0  0  0  0  0  0
  -53.0723  -27.0985    7.5652 H   0  0  0  0  0  0  0  0  0  0  0  0
  -54.6491  -27.5929    6.9370 H   0  0  0  0  0  0  0  0  0  0  0  0
  -48.7660  -27.8829    2.7241 H   0  0  0  0  0  0  0  0  0  0  0  0
  -47.2951  -27.8241    3.6954 H   0  0  0  0  0  0  0  0  0  0  0  0
  -48.1212  -29.8972    1.8410 H   0  0  0  0  0  0  0  0  0  0  0  0
  1  2  1  0  0  0  0
  1  3  2  0  0  0  0
  2  6  2  0  0  0  0
  3  7  1  0  0  0  0
  4  5  1  0  0  0  0
  4  8  2  0  0  0  0
  5  9  2  0  0  0  0
  6 14  1  0  0  0  0
  7 14  2  0  0  0  0
  8 16  1  0  0  0  0
  9 17  1  0  0  0  0
 10 12  2  0  0  0  0
 10 15  1  0  0  0  0
 11 13  1  0  0  0  0
 11 15  2  0  0  0  0
 12 18  1  0  0  0  0
 13 18  2  0  0  0  0
 14 19  1  0  0  0  0
 15 20  1  0  0  0  0
 16 17  2  0  0  0  0
 16 19  1  0  0  0  0
 17 21  1  0  0  0  0
 18 26  1  0  0  0  0
 19 29  2  0  0  0  0
 20 27  1  0  0  0  0
 20 30  2  0  0  0  0
 21 28  1  0  0  0  0
 21 31  2  0  0  0  0
 22 24  1  0  0  0  0
 22 27  1  0  0  0  0
 23 25  1  0  0  0  0
 23 27  1  0  0  0  0
 24 32  1  0  0  0  0
 25 32  1  0  0  0  0
 26 28  1  0  0  0  0
  1 33  1  0  0  0  0
  2 34  1  0  0  0  0
  3 35  1  0  0  0  0
  4 36  1  0  0  0  0
  5 37  1  0  0  0  0
  6 38  1  0  0  0  0
  7 39  1  0  0  0  0
  8 40  1  0  0  0  0
  9 41  1  0  0  0  0
 10 42  1  0  0  0  0
 11 43  1  0  0  0  0
 12 44  1  0  0  0  0
 13 45  1  0  0  0  0
 22 46  1  0  0  0  0
 22 47  1  0  0  0  0
 23 48  1  0  0  0  0
 23 49  1  0  0  0  0
 24 50  1  0  0  0  0
 24 51  1  0  0  0  0
 25 52  1  0  0  0  0
 25 53  1  0  0  0  0
 26 54  1  0  0  0  0
 26 55  1  0  0  0  0
 28 56  1  0  0  0  0
M  END
> <POSIT::Probability>
0.24

> <POSIT::Method>
FRED

> <ReceptorTitle>
UCSF-P4622-REFINED_LIGAND-BOUND-STATE_A__DU__LA1_A-201(A)

> <OMEGA_C>
JPM1wv0j0MGAmx0+FJ0wwj4n0cF8jQo/dj45wuYj2cGg7+c9JXE0wrYjBcKQ36A+UwU5wqmcBcJA
Ho0/f5IuwoIp28EkV2M/4DM3wism48FQj+s+A2cxwu52AMJQMbg+Lo86wk1pAcKa2Pc/S5FLwluV
78F2o7BAhUZEwk9l6sHS8N5Arq9IwsD/68GFNI1A6WRBwrrP5sFigrtA390xwn4p5MGY7Vg/dlxJ
wj3I7sEFgtlA3PAywiSH+MGwxpg/AYU3wvl4+cF2rP0/vZlDwtKc58FSo5JAeq4vwqTd7sGm/Js/
YWZMwnqL8sE33P5Aa0M5wjKs8MGFRDhAtkJTwvIf7cGsuhlB8CBVwn7k6cHU+OZAb4hVwqMT4sEY
YR5BDV5XwsQF38FA0PNAboVAwqzJ48E+fVlAUlhRwqLL7cFGqgNBSU4+wpB47MGuTihAbusqwlJX
78ETJ8c/ylRKwny9+cGA+glBgjg2wmCG7cFLm3BANYtZwtBi38EuAw9Bxok3wh5ZyMEgse29qQsu
wkwmysEwphI/AWY9wjZc2MHg7kG+kj4zwhdpCMJAZ6u+b2M7wnlACcL+mog/XWgqwtTZ28GdHJg/
s845wnQb6sFwW9k+k9ctwlAkAMLwo4S+riI+whzUAcLd7SJA+oZPwgT88sGtBqxAdoRCwsK56cFI
pP5AHnBKwqym7MGz+FpAyG49wn5r48EYDsBAiRFQwj4W78GjDCVBZ2dWwsYw88HiURtBWlxYwurP
78GkmuVAkE1TwnNr6cHqQsdA32lXwgAB4sGCMS5Bn2RSwpvz28F5Wh5BCkpUwqHJ2MEGFvJAuZha
wli+3MFK/N1AbBBDwiwQ38ELVy5AOy49wq6X3sHpgWxAHHxAwoQt78F4pOs/

> <OMEGA_E>
h+4QwQ==

> <OMEGA_NBR>
     69481

$$$$
CACHE3HI_1715_39
  -OEChem-03092622523D

 45 48  0     0  0  0  0  0  0999 V2000
  -44.5960  -29.2254    5.6392 C   0  0  0  0  0  0  0  0  0  0  0  0
  -44.3015  -29.4374    4.2819 C   0  0  0  0  0  0  0  0  0  0  0  0
  -45.9124  -29.2781    6.1061 C   0  0  0  0  0  0  0  0  0  0  0  0
  -51.0994  -29.9868    5.1320 C   0  0  0  0  0  0  0  0  0  0  0  0
  -56.1205  -27.1194   10.2721 C   0  0  0  0  0  0  0  0  0  0  0  0
  -53.7924  -26.5175   10.5069 C   0  0  0  0  0  0  0  0  0  0  0  0
  -45.3169  -29.7050    3.3626 C   0  0  0  0  0  0  0  0  0  0  0  0
  -50.3091  -30.1100    3.9876 C   0  0  0  0  0  0  0  0  0  0  0  0
  -56.4136  -26.4456   11.4578 C   0  0  0  0  0  0  0  0  0  0  0  0
  -54.0854  -25.8437   11.6925 C   0  0  0  0  0  0  0  0  0  0  0  0
  -49.1358  -29.5394    6.5095 C   0  0  0  0  0  0  0  0  0  0  0  0
  -46.9208  -29.5445    5.1946 C   0  0  0  0  0  0  0  0  0  0  0  0
  -48.3520  -29.6605    5.3736 C   0  0  0  0  0  0  0  0  0  0  0  0
  -54.8097  -27.1551    9.7967 C   0  0  0  0  0  0  0  0  0  0  0  0
  -50.5186  -29.7045    6.3806 C   0  0  0  0  0  0  0  0  0  0  0  0
  -46.6178  -29.7560    3.8307 C   0  0  0  0  0  0  0  0  0  0  0  0
  -48.9420  -29.9445    4.1216 C   0  0  0  0  0  0  0  0  0  0  0  0
  -55.3962  -25.8079   12.1680 C   0  0  0  0  0  0  0  0  0  0  0  0
  -51.3691  -29.5827    7.5546 C   0  0  0  0  0  0  0  0  0  0  0  0
  -54.4973  -27.8736    8.5362 C   0  0  0  0  0  0  0  0  0  0  0  0
  -47.8824  -30.0273    3.0424 C   0  0  0  0  0  0  0  0  0  0  0  0
  -55.7103  -25.0872   13.4350 C   0  0  0  0  0  0  0  0  0  0  0  0
  -52.8103  -29.0787    7.4064 C   0  0  0  0  0  0  0  0  0  0  0  0
  -50.9464  -29.8832    8.6887 O   0  0  0  0  0  0  0  0  0  0  0  0
  -55.2927  -27.9907    7.6167 O   0  0  0  0  0  0  0  0  0  0  0  0
  -55.2648  -25.8614   14.5418 O   0  0  0  0  0  0  0  0  0  0  0  0
  -53.2262  -28.3694    8.5584 O   0  0  0  0  0  0  0  0  0  0  0  0
  -43.7872  -29.0178    6.3353 H   0  0  0  0  0  0  0  0  0  0  0  0
  -43.2692  -29.3913    3.9451 H   0  0  0  0  0  0  0  0  0  0  0  0
  -46.1241  -29.1126    7.1572 H   0  0  0  0  0  0  0  0  0  0  0  0
  -52.1762  -30.1131    5.0458 H   0  0  0  0  0  0  0  0  0  0  0  0
  -56.9211  -27.6130    9.7273 H   0  0  0  0  0  0  0  0  0  0  0  0
  -52.7671  -26.5394   10.1463 H   0  0  0  0  0  0  0  0  0  0  0  0
  -45.0878  -29.8679    2.3153 H   0  0  0  0  0  0  0  0  0  0  0  0
  -50.7580  -30.3285    3.0250 H   0  0  0  0  0  0  0  0  0  0  0  0
  -57.4376  -26.4234   11.8209 H   0  0  0  0  0  0  0  0  0  0  0  0
  -53.2866  -25.3485   12.2378 H   0  0  0  0  0  0  0  0  0  0  0  0
  -48.6909  -29.3212    7.4757 H   0  0  0  0  0  0  0  0  0  0  0  0
  -48.0400  -29.2543    2.2846 H   0  0  0  0  0  0  0  0  0  0  0  0
  -47.8566  -31.0279    2.6006 H   0  0  0  0  0  0  0  0  0  0  0  0
  -55.2158  -24.1070   13.4693 H   0  0  0  0  0  0  0  0  0  0  0  0
  -56.7908  -24.9143   13.5382 H   0  0  0  0  0  0  0  0  0  0  0  0
  -52.8639  -28.3930    6.5569 H   0  0  0  0  0  0  0  0  0  0  0  0
  -53.4868  -29.9249    7.2593 H   0  0  0  0  0  0  0  0  0  0  0  0
  -55.4876  -25.3588   15.3415 H   0  0  0  0  0  0  0  0  0  0  0  0
  1  2  1  0  0  0  0
  1  3  2  0  0  0  0
  2  7  2  0  0  0  0
  3 12  1  0  0  0  0
  4  8  1  0  0  0  0
  4 15  2  0  0  0  0
  5  9  2  0  0  0  0
  5 14  1  0  0  0  0
  6 10  1  0  0  0  0
  6 14  2  0  0  0  0
  7 16  1  0  0  0  0
  8 17  2  0  0  0  0
  9 18  1  0  0  0  0
 10 18  2  0  0  0  0
 11 13  2  0  0  0  0
 11 15  1  0  0  0  0
 12 13  1  0  0  0  0
 12 16  2  0  0  0  0
 13 17  1  0  0  0  0
 14 20  1  0  0  0  0
 15 19  1  0  0  0  0
 16 21  1  0  0  0  0
 17 21  1  0  0  0  0
 18 22  1  0  0  0  0
 19 23  1  0  0  0  0
 19 24  2  0  0  0  0
 20 25  2  0  0  0  0
 20 27  1  0  0  0  0
 22 26  1  0  0  0  0
 23 27  1  0  0  0  0
  1 28  1  0  0  0  0
  2 29  1  0  0  0  0
  3 30  1  0  0  0  0
  4 31  1  0  0  0  0
  5 32  1  0  0  0  0
  6 33  1  0  0  0  0
  7 34  1  0  0  0  0
  8 35  1  0  0  0  0
  9 36  1  0  0  0  0
 10 37  1  0  0  0  0
 11 38  1  0  0  0  0
 21 39  1  0  0  0  0
 21 40  1  0  0  0  0
 22 41  1  0  0  0  0
 22 42  1  0  0  0  0
 23 43  1  0  0  0  0
 23 44  1  0  0  0  0
 26 45  1  0  0  0  0
M  END
> <POSIT::Probability>
0.23

> <POSIT::Method>
HYBRID

> <ReceptorTitle>
UCSF-P4622-REFINED_LIGAND-BOUND-STATE_A__DU__LA1_A-201(A)

> <OMEGA_C>
T2Iywo7N6cGfdLRAwzQxwsV/68GgBYlAVKY3wnY56sETZcNAxGVMwg/l78FWOaRAXntgwnn02MGg
WiRBXytXwsgj1ME5HChBjEQ1wuaj7cH5NFdAeTxJwlzh8MH8NH9Ag6dhwoyQ08EdUzdBeFdYwuW/
zsGLFDtBD4tEwqtQ7MGITdBA4647wjxb7ME6OqZAcmhBwsVI7cFL9KtAJD1bwq492cEzvxxBFBNK
wuGi7cF8LcxAnHg6wlQM7sGdKnVAo8RDwlqO78HM44NAvpVdwqh2zsEksEJB/HlNwmOp7MGEv/FA
Nf1ZwhT93sFklAhBoIc/wuU38MFbt0JAYNdewpCyyMHd9VZBwz1Twhah6MH4AO1AHclLwt8Q78HE
BAtBwCtdwuzs38HLu/NAMw9dwjzkzsEaq2hBmOdUwnj04sFS7whBIyYvwn0k6MEFu8pAnhMtwmwh
68H5fHxAC384wpnm6MGSB+VAZbRQwrXn8MHxdqFAL69jwlXn3MHdohtBjBFTwrxQ1ME9VyJB6lk0
wlzx7sGoLhRANAhLwr6g8sEqmkFAG8BlwjRj08GAIj1BciVVwqjJysHvzUNBhcNCwuWR6sGlOO9A
6ShAwrcI6sFzNxJAHm0/wgw5+MHccCZAAN1cwiLbwMEZgldBxCljwnhQx8FcnFhBqHRTwvck48Eo
0tFAgvJVwjFm78FhTOhAQvNdwtPeysHJdnVB

> <OMEGA_E>
UNXqwA==

> <OMEGA_NBR>
     70877

$$$$
CACHE3HI_1715_61
  -OEChem-03092622523D

 50 53  0     0  0  0  0  0  0999 V2000
  -41.1821  -30.9949    2.6499 C   0  0  0  0  0  0  0  0  0  0  0  0
  -46.2512  -33.8887    0.4568 C   0  0  0  0  0  0  0  0  0  0  0  0
  -50.3125  -29.4896    5.7140 C   0  0  0  0  0  0  0  0  0  0  0  0
  -49.7848  -29.4830    7.0039 C   0  0  0  0  0  0  0  0  0  0  0  0
  -41.7876  -29.8232    3.1039 C   0  0  0  0  0  0  0  0  0  0  0  0
  -41.6050  -31.5807    1.4568 C   0  0  0  0  0  0  0  0  0  0  0  0
  -46.6393  -33.0494   -0.5875 C   0  0  0  0  0  0  0  0  0  0  0  0
  -45.6708  -33.3498    1.6050 C   0  0  0  0  0  0  0  0  0  0  0  0
  -49.4616  -29.5124    4.6084 C   0  0  0  0  0  0  0  0  0  0  0  0
  -48.4030  -29.4981    7.1924 C   0  0  0  0  0  0  0  0  0  0  0  0
  -42.8156  -29.2372    2.3651 C   0  0  0  0  0  0  0  0  0  0  0  0
  -42.6330  -30.9947    0.7179 C   0  0  0  0  0  0  0  0  0  0  0  0
  -46.4474  -31.6715   -0.4837 C   0  0  0  0  0  0  0  0  0  0  0  0
  -45.4789  -31.9719    1.7088 C   0  0  0  0  0  0  0  0  0  0  0  0
  -48.0769  -29.5278    4.7971 C   0  0  0  0  0  0  0  0  0  0  0  0
  -47.5497  -29.5209    6.0835 C   0  0  0  0  0  0  0  0  0  0  0  0
  -43.2385  -29.8231    1.1720 C   0  0  0  0  0  0  0  0  0  0  0  0
  -45.8670  -31.1326    0.6645 C   0  0  0  0  0  0  0  0  0  0  0  0
  -47.1171  -29.5518    3.6806 C   0  0  0  0  0  0  0  0  0  0  0  0
  -46.0872  -29.5373    6.2639 C   0  0  0  0  0  0  0  0  0  0  0  0
  -46.6618  -28.8635    1.3271 C   0  0  0  0  0  0  0  0  0  0  0  0
  -43.8633  -29.5787    5.1640 C   0  0  0  0  0  0  0  0  0  0  0  0
  -44.3452  -29.1926    0.3762 C   0  0  0  0  0  0  0  0  0  0  0  0
  -47.6368  -29.5595    2.2621 C   0  0  0  0  0  0  0  0  0  0  0  0
  -45.8324  -29.5669    3.8448 N   0  0  0  0  0  0  0  0  0  0  0  0
  -45.3157  -29.5609    5.1067 N   0  0  0  0  0  0  0  0  0  0  0  0
  -45.6673  -29.7018    0.7727 N   0  0  0  0  0  0  0  0  0  0  0  0
  -45.6306  -29.5298    7.4051 O   0  0  0  0  0  0  0  0  0  0  0  0
  -46.7881  -27.6627    1.0737 O   0  0  0  0  0  0  0  0  0  0  0  0
  -40.3818  -31.4511    3.2251 H   0  0  0  0  0  0  0  0  0  0  0  0
  -46.3994  -34.9614    0.3753 H   0  0  0  0  0  0  0  0  0  0  0  0
  -51.3890  -29.4775    5.5690 H   0  0  0  0  0  0  0  0  0  0  0  0
  -50.4498  -29.4655    7.8625 H   0  0  0  0  0  0  0  0  0  0  0  0
  -41.4581  -29.3667    4.0327 H   0  0  0  0  0  0  0  0  0  0  0  0
  -41.1339  -32.4931    1.1032 H   0  0  0  0  0  0  0  0  0  0  0  0
  -47.0900  -33.4688   -1.4823 H   0  0  0  0  0  0  0  0  0  0  0  0
  -45.3679  -34.0029    2.4181 H   0  0  0  0  0  0  0  0  0  0  0  0
  -49.9045  -29.5174    3.6174 H   0  0  0  0  0  0  0  0  0  0  0  0
  -48.0132  -29.4922    8.2066 H   0  0  0  0  0  0  0  0  0  0  0  0
  -43.2814  -28.3244    2.7269 H   0  0  0  0  0  0  0  0  0  0  0  0
  -42.9550  -31.4580   -0.2109 H   0  0  0  0  0  0  0  0  0  0  0  0
  -46.7530  -31.0280   -1.3050 H   0  0  0  0  0  0  0  0  0  0  0  0
  -45.0251  -31.5637    2.6086 H   0  0  0  0  0  0  0  0  0  0  0  0
  -43.4921  -30.6073    5.1913 H   0  0  0  0  0  0  0  0  0  0  0  0
  -43.4443  -29.0777    4.2868 H   0  0  0  0  0  0  0  0  0  0  0  0
  -43.5142  -29.0557    6.0586 H   0  0  0  0  0  0  0  0  0  0  0  0
  -44.3474  -28.1060    0.5119 H   0  0  0  0  0  0  0  0  0  0  0  0
  -44.2191  -29.3866   -0.6940 H   0  0  0  0  0  0  0  0  0  0  0  0
  -47.7620  -30.6000    1.9682 H   0  0  0  0  0  0  0  0  0  0  0  0
  -48.5957  -29.0455    2.2590 H   0  0  0  0  0  0  0  0  0  0  0  0
  1  5  1  0  0  0  0
  1  6  2  0  0  0  0
  2  7  1  0  0  0  0
  2  8  2  0  0  0  0
  3  4  1  0  0  0  0
  3  9  2  0  0  0  0
  4 10  2  0  0  0  0
  5 11  2  0  0  0  0
  6 12  1  0  0  0  0
  7 13  2  0  0  0  0
  8 14  1  0  0  0  0
  9 15  1  0  0  0  0
 10 16  1  0  0  0  0
 11 17  1  0  0  0  0
 12 17  2  0  0  0  0
 13 18  1  0  0  0  0
 14 18  2  0  0  0  0
 15 16  2  0  0  0  0
 15 19  1  0  0  0  0
 16 20  1  0  0  0  0
 17 23  1  0  0  0  0
 18 27  1  0  0  0  0
 19 24  1  0  0  0  0
 19 25  2  0  0  0  0
 20 26  1  0  0  0  0
 20 28  2  0  0  0  0
 21 24  1  0  0  0  0
 21 27  1  0  0  0  0
 21 29  2  0  0  0  0
 22 26  1  0  0  0  0
 23 27  1  0  0  0  0
 25 26  1  0  0  0  0
  1 30  1  0  0  0  0
  2 31  1  0  0  0  0
  3 32  1  0  0  0  0
  4 33  1  0  0  0  0
  5 34  1  0  0  0  0
  6 35  1  0  0  0  0
  7 36  1  0  0  0  0
  8 37  1  0  0  0  0
  9 38  1  0  0  0  0
 10 39  1  0  0  0  0
 11 40  1  0  0  0  0
 12 41  1  0  0  0  0
 13 42  1  0  0  0  0
 14 43  1  0  0  0  0
 22 44  1  0  0  0  0
 22 45  1  0  0  0  0
 22 46  1  0  0  0  0
 23 47  1  0  0  0  0
 23 48  1  0  0  0  0
 24 49  1  0  0  0  0
 24 50  1  0  0  0  0
M  END
> <POSIT::Probability>
0.24

> <POSIT::Method>
FRED

> <ReceptorTitle>
UCSF-P4622-REFINED_LIGAND-BOUND-STATE_A__DU__LA1_A-201(A)

> <OMEGA_C>
drokwpD198GFlylAMAE5wvyNB8Kw5ek+/D9Jwq7q68EU2bZAniNHwiHd68EWIOBAgCYnwumV7sHx
pkZAkGsmwkSl/MG6eLo/nY46wosyBMJQZxa/5a42wilmBcJ4b80/pNhFwnAZ7MFEeJNAopxBwhH8
68GJKOZAJUMrwuHl6cFQXRdANogqwjr198EAyzc/GMo5wk1f/cEgqfe+X+o1wonG/8HQuNo/xU5A
wug47MGbgZlA7zI+wtgq7MElrMJAP/QswqqV7sHeApY/xnc3wqkP+cEgGyo/3Xc8whpq7MGqjmtA
QVk4wlFM7MEkcshAqaU6wozo5sG03ak/AXQvwkah7MFWP6VAg2ExwnqK6cHQo8A+EYw+wsR57MHy
xhBAbFQ3wvqI7MFjEHZAUEM1wrR87MEQaqNAS6s2wjqd7cGozkU/sYU2wu887MH29uxABic7wipN
3cHob4k//4YhwvKb+8FSZ05ACJk5wobYC8JQLcA+TI5NwtfR68FZNbJAjMxJwlq568FgmftAGNUl
whLv6sH2C4FAF4kkwuv4AcKyNY0/IFw8wgTgBcJQvb2/tHg1wu4CCMJEwhpAP55HwrYj7MENg2dA
hw1Awgrw68FITgNBKCAtwl6Y4sGohS5A6NErwvup+8HAAli+HAM7wkI5+MGUCae/sRk0wmKC/MH7
8iZA7Pctwrvb9MFbH6ZAA8ctwiKf6MFULYlAlA4uwhFy6MEZ4MFAtmMxwhbZ4MGYCwM/XuAwwqgX
68EArDG/VAw/wszM9MEG7vs//GFCwj1d6MGjkxBA

> <OMEGA_E>
sOEYwQ==

> <OMEGA_NBR>
     72369

$$$$
CACHE3HI_1715_66
  -OEChem-03092622523D

 56 59  0     0  0  0  0  0  0999 V2000
  -42.7875  -30.1744    0.9925 C   0  0  0  0  0  0  0  0  0  0  0  0
  -55.8677  -24.9603   12.4681 C   0  0  0  0  0  0  0  0  0  0  0  0
  -44.1603  -30.3839    1.1239 C   0  0  0  0  0  0  0  0  0  0  0  0
  -42.0407  -29.7411    2.0879 C   0  0  0  0  0  0  0  0  0  0  0  0
  -53.3686  -32.8609    5.9360 C   0  0  0  0  0  0  0  0  0  0  0  0
  -56.1976  -26.2702   12.8161 C   0  0  0  0  0  0  0  0  0  0  0  0
  -55.1378  -24.7108   11.3061 C   0  0  0  0  0  0  0  0  0  0  0  0
  -52.2516  -32.8506    5.1005 C   0  0  0  0  0  0  0  0  0  0  0  0
  -44.7861  -30.1604    2.3505 C   0  0  0  0  0  0  0  0  0  0  0  0
  -42.6665  -29.5177    3.3144 C   0  0  0  0  0  0  0  0  0  0  0  0
  -53.5852  -31.8065    6.8229 C   0  0  0  0  0  0  0  0  0  0  0  0
  -55.7979  -27.3303   12.0022 C   0  0  0  0  0  0  0  0  0  0  0  0
  -54.7381  -25.7708   10.4921 C   0  0  0  0  0  0  0  0  0  0  0  0
  -51.3517  -31.7859    5.1516 C   0  0  0  0  0  0  0  0  0  0  0  0
  -44.0392  -29.7271    3.4459 C   0  0  0  0  0  0  0  0  0  0  0  0
  -52.6853  -30.7418    6.8740 C   0  0  0  0  0  0  0  0  0  0  0  0
  -55.0679  -27.0807   10.8401 C   0  0  0  0  0  0  0  0  0  0  0  0
  -51.5684  -30.7314    6.0386 C   0  0  0  0  0  0  0  0  0  0  0  0
  -44.6867  -29.4958    4.7142 C   0  0  0  0  0  0  0  0  0  0  0  0
  -46.1386  -29.0168    6.1353 C   0  0  0  0  0  0  0  0  0  0  0  0
  -52.9422  -29.6553    7.8112 C   0  0  0  0  0  0  0  0  0  0  0  0
  -49.4994  -29.5055    5.2967 C   0  0  0  0  0  0  0  0  0  0  0  0
  -54.6354  -28.2269    9.9595 C   0  0  0  0  0  0  0  0  0  0  0  0
  -48.7631  -28.2240    5.6231 C   0  0  0  0  0  0  0  0  0  0  0  0
  -54.5291  -27.8405    8.4868 C   0  0  0  0  0  0  0  0  0  0  0  0
  -45.9872  -29.0962    4.8339 N   0  0  0  0  0  0  0  0  0  0  0  0
  -44.9756  -29.3559    6.7531 N   0  0  0  0  0  0  0  0  0  0  0  0
  -44.0245  -29.6684    5.8600 N   0  0  0  0  0  0  0  0  0  0  0  0
  -50.6426  -29.6603    6.0716 N   0  0  0  0  0  0  0  0  0  0  0  0
  -54.1418  -28.9553    7.6526 N   0  0  0  0  0  0  0  0  0  0  0  0
  -52.1092  -29.3725    8.6875 O   0  0  0  0  0  0  0  0  0  0  0  0
  -49.0803  -30.2604    4.4226 O   0  0  0  0  0  0  0  0  0  0  0  0
  -47.5805  -28.5528    6.9749 S   0  0  0  0  0  0  0  0  0  0  0  0
  -42.3002  -30.3476    0.0375 H   0  0  0  0  0  0  0  0  0  0  0  0
  -56.1788  -24.1350   13.1018 H   0  0  0  0  0  0  0  0  0  0  0  0
  -44.7419  -30.7221    0.2714 H   0  0  0  0  0  0  0  0  0  0  0  0
  -40.9719  -29.5776    1.9850 H   0  0  0  0  0  0  0  0  0  0  0  0
  -54.0684  -33.6904    5.8961 H   0  0  0  0  0  0  0  0  0  0  0  0
  -56.7663  -26.4646   13.7207 H   0  0  0  0  0  0  0  0  0  0  0  0
  -54.8807  -23.6910   11.0351 H   0  0  0  0  0  0  0  0  0  0  0  0
  -52.0832  -33.6722    4.4106 H   0  0  0  0  0  0  0  0  0  0  0  0
  -45.8572  -30.3276    2.4365 H   0  0  0  0  0  0  0  0  0  0  0  0
  -42.0697  -29.1804    4.1588 H   0  0  0  0  0  0  0  0  0  0  0  0
  -54.4591  -31.8259    7.4691 H   0  0  0  0  0  0  0  0  0  0  0  0
  -56.0595  -28.3475   12.2815 H   0  0  0  0  0  0  0  0  0  0  0  0
  -54.1705  -25.5664    9.5882 H   0  0  0  0  0  0  0  0  0  0  0  0
  -50.4854  -31.7898    4.4948 H   0  0  0  0  0  0  0  0  0  0  0  0
  -53.6770  -28.6269   10.3149 H   0  0  0  0  0  0  0  0  0  0  0  0
  -55.3617  -29.0423   10.0684 H   0  0  0  0  0  0  0  0  0  0  0  0
  -48.2294  -27.8286    4.7542 H   0  0  0  0  0  0  0  0  0  0  0  0
  -49.4909  -27.4717    5.9434 H   0  0  0  0  0  0  0  0  0  0  0  0
  -55.5015  -27.4945    8.1213 H   0  0  0  0  0  0  0  0  0  0  0  0
  -53.8011  -27.0386    8.3269 H   0  0  0  0  0  0  0  0  0  0  0  0
  -43.0843  -29.9462    6.1285 H   0  0  0  0  0  0  0  0  0  0  0  0
  -50.8585  -28.9239    6.7398 H   0  0  0  0  0  0  0  0  0  0  0  0
  -54.7561  -29.1890    6.8798 H   0  0  0  0  0  0  0  0  0  0  0  0
  1  3  1  0  0  0  0
  1  4  2  0  0  0  0
  2  6  1  0  0  0  0
  2  7  2  0  0  0  0
  3  9  2  0  0  0  0
  4 10  1  0  0  0  0
  5  8  1  0  0  0  0
  5 11  2  0  0  0  0
  6 12  2  0  0  0  0
  7 13  1  0  0  0  0
  8 14  2  0  0  0  0
  9 15  1  0  0  0  0
 10 15  2  0  0  0  0
 11 16  1  0  0  0  0
 12 17  1  0  0  0  0
 13 17  2  0  0  0  0
 14 18  1  0  0  0  0
 15 19  1  0  0  0  0
 16 18  2  0  0  0  0
 16 21  1  0  0  0  0
 17 23  1  0  0  0  0
 18 29  1  0  0  0  0
 19 26  2  0  0  0  0
 19 28  1  0  0  0  0
 20 26  1  0  0  0  0
 20 27  2  0  0  0  0
 20 33  1  0  0  0  0
 21 30  1  0  0  0  0
 21 31  2  0  0  0  0
 22 24  1  0  0  0  0
 22 29  1  0  0  0  0
 22 32  2  0  0  0  0
 23 25  1  0  0  0  0
 24 33  1  0  0  0  0
 25 30  1  0  0  0  0
 27 28  1  0  0  0  0
  1 34  1  0  0  0  0
  2 35  1  0  0  0  0
  3 36  1  0  0  0  0
  4 37  1  0  0  0  0
  5 38  1  0  0  0  0
  6 39  1  0  0  0  0
  7 40  1  0  0  0  0
  8 41  1  0  0  0  0
  9 42  1  0  0  0  0
 10 43  1  0  0  0  0
 11 44  1  0  0  0  0
 12 45  1  0  0  0  0
 13 46  1  0  0  0  0
 14 47  1  0  0  0  0
 23 48  1  0  0  0  0
 23 49  1  0  0  0  0
 24 50  1  0  0  0  0
 24 51  1  0  0  0  0
 25 52  1  0  0  0  0
 25 53  1  0  0  0  0
 28 54  1  0  0  0  0
 29 55  1  0  0  0  0
 30 56  1  0  0  0  0
M  END
> <POSIT::Probability>
0.18

> <POSIT::Method>
HYBRID

> <ReceptorTitle>
UCSF-P4622-REFINED_LIGAND-BOUND-STATE_A__DU__LA1_A-201(A)

> <OMEGA_C>
ZSYrwjZl8cFkEn4/iHhfwrKux8FufUdBIqQwwi8S88Fw3I8/pSkowtzt7cESoAVAbHlVwptxA8KV
871AT8pgwlsp0sG5Dk1BFo1cwqavxcGo5TRBqwFRwvdmA8JVN6NA9SQzwopI8cEXbhZAd6oqwjYk
7MHwH1RASFdWwp5z/sHoVNpABzFfwmOk2sHWCEBBzvNawq0qzsHF3ydBJWhNwnpJ/sEu2qRAJygw
wibR7cEGilxAwb1Swizv9cHB99tAjUVcwkOl2MHkcC1BCEZOwtPZ9cHdO8FAJL8ywnT368HH2pZA
4404wlYi6MGsVMRA1cRTwiY+7cFV9flAbP9FwlYL7ME0fqlAoopawsrQ4cEaWh9BdQ1DwrDK4cEO
8LNAxB1awlW53sHoyQdB2PI3wgPF6MH+rppA+eYzwt7Y6sFkGdhAHxkwwuRY7cHKhLtAEJJKwl5I
7cE6SsJAKZFYwmek58Ei4vRAyW9Qwsr66sEYAAtBQFJEwkYV8sHyhY1AZlI+wjRs5MHHMt9AYDMp
ws/H8sGAmxk9GLdgwnQUwcHHoFFBvvcywvbG9cFQ9Yo+RuMjwvKe7MEQFv4/FUZYwvbCBsK5rLxA
qxBjwou308H+h1tBzoVbwiaHvcGejzBBMlVQwmKwBsJcI41Av203wtie8sHr7xtAYUcownxx6cG4
FIVAI9ZZwoub/sEJA+9A5jxgwqvH4sEXgURBoq5YwuWHzMETaRlBCPFJwpJR/sGG1Y9AOLVWwvoD
5cGwCSVBYHJdwrtW6MEyGCFB9OpAwvKg3sGLIphAqvZFwgXG28H/L75AkwFewsH028EA8QFBVjRX
whpP2MHiOgVBUlYswuOR78GQHMRAFG9Lwitk58F5rNdARwZbwhiD6cGcJ9xA

> <OMEGA_E>
41qqwA==

> <OMEGA_NBR>
     73987

$$$$
CACHE3HI_1715_68
  -OEChem-03092622523D

 54 57  0     1  0  0  0  0  0999 V2000
  -54.5094  -27.8099    5.2634 C   0  0  0  0  0  0  0  0  0  0  0  0
  -42.2280  -31.0896    0.6910 C   0  0  0  0  0  0  0  0  0  0  0  0
  -41.0916  -31.0236    1.4943 C   0  0  0  0  0  0  0  0  0  0  0  0
  -43.4881  -30.7608    1.2032 C   0  0  0  0  0  0  0  0  0  0  0  0
  -45.9158  -34.7239    0.0558 C   0  0  0  0  0  0  0  0  0  0  0  0
  -44.4262  -32.9376   -0.5984 C   0  0  0  0  0  0  0  0  0  0  0  0
  -52.4831  -30.0780    3.9815 C   0  0  0  0  0  0  0  0  0  0  0  0
  -51.6934  -29.3010    6.1287 C   0  0  0  0  0  0  0  0  0  0  0  0
  -41.1767  -30.6284    2.8319 C   0  0  0  0  0  0  0  0  0  0  0  0
  -51.1749  -30.3949    3.6158 C   0  0  0  0  0  0  0  0  0  0  0  0
  -50.3852  -29.6180    5.7630 C   0  0  0  0  0  0  0  0  0  0  0  0
  -45.7184  -35.3402   -1.1799 C   0  0  0  0  0  0  0  0  0  0  0  0
  -44.2288  -33.5539   -1.8340 C   0  0  0  0  0  0  0  0  0  0  0  0
  -44.1764  -29.6800    4.6261 C   0  0  0  0  0  0  0  0  0  0  0  0
  -43.5986  -30.3588    2.5494 C   0  0  0  0  0  0  0  0  0  0  0  0
  -45.2695  -33.5226    0.3465 C   0  0  0  0  0  0  0  0  0  0  0  0
  -52.7423  -29.5311    5.2382 C   0  0  0  0  0  0  0  0  0  0  0  0
  -44.6848  -29.9635    3.3797 C   0  0  0  0  0  0  0  0  0  0  0  0
  -42.4430  -30.3022    3.3312 C   0  0  0  0  0  0  0  0  0  0  0  0
  -50.1260  -30.1649    4.5063 C   0  0  0  0  0  0  0  0  0  0  0  0
  -44.8751  -34.7552   -2.1248 C   0  0  0  0  0  0  0  0  0  0  0  0
  -45.4777  -32.8665    1.6624 C   0  0  0  0  0  0  0  0  0  0  0  0
  -48.3608  -31.0347    2.9330 C   0  0  0  0  0  0  0  0  0  0  0  0
  -54.1406  -29.1896    5.6288 C   0  0  0  0  0  0  0  0  0  0  0  0
  -46.1051  -29.8714    2.9853 C   0  0  0  0  0  0  0  0  0  0  0  0
  -46.8434  -31.2296    2.9316 C   0  0  2  0  0  0  0  0  0  0  0  0
  -54.7923  -26.7229    4.9728 N   0  0  0  0  0  0  0  0  0  0  0  0
  -42.8233  -29.8872    4.5874 N   0  0  0  0  0  0  0  0  0  0  0  0
  -48.7984  -30.4868    4.1351 N   0  0  0  0  0  0  0  0  0  0  0  0
  -46.5290  -31.9637    1.7309 N   0  0  0  0  0  0  0  0  0  0  0  0
  -44.7202  -33.1322    2.5919 O   0  0  0  0  0  0  0  0  0  0  0  0
  -49.0550  -31.3848    1.9824 O   0  0  0  0  0  0  0  0  0  0  0  0
  -44.6857  -35.3470   -3.3112 F   0  0  0  0  0  0  0  0  0  0  0  0
  -42.1364  -31.3996   -0.3464 H   0  0  0  0  0  0  0  0  0  0  0  0
  -40.1228  -31.2835    1.0751 H   0  0  0  0  0  0  0  0  0  0  0  0
  -44.3646  -30.8163    0.5639 H   0  0  0  0  0  0  0  0  0  0  0  0
  -46.5752  -35.1884    0.7844 H   0  0  0  0  0  0  0  0  0  0  0  0
  -43.9174  -32.0019   -0.3812 H   0  0  0  0  0  0  0  0  0  0  0  0
  -53.2938  -30.2603    3.2813 H   0  0  0  0  0  0  0  0  0  0  0  0
  -51.8864  -28.8748    7.1098 H   0  0  0  0  0  0  0  0  0  0  0  0
  -40.2914  -30.5769    3.4565 H   0  0  0  0  0  0  0  0  0  0  0  0
  -50.9843  -30.8209    2.6338 H   0  0  0  0  0  0  0  0  0  0  0  0
  -49.5759  -29.4341    6.4651 H   0  0  0  0  0  0  0  0  0  0  0  0
  -46.2212  -36.2755   -1.4071 H   0  0  0  0  0  0  0  0  0  0  0  0
  -43.5724  -33.0988   -2.5700 H   0  0  0  0  0  0  0  0  0  0  0  0
  -44.6540  -29.3494    5.5381 H   0  0  0  0  0  0  0  0  0  0  0  0
  -54.8493  -29.8915    5.1605 H   0  0  0  0  0  0  0  0  0  0  0  0
  -54.2781  -29.3270    6.7132 H   0  0  0  0  0  0  0  0  0  0  0  0
  -46.2163  -29.3684    2.0025 H   0  0  0  0  0  0  0  0  0  0  0  0
  -46.6469  -29.2060    3.6869 H   0  0  0  0  0  0  0  0  0  0  0  0
  -46.5402  -31.8684    3.7690 H   0  0  0  0  0  0  0  0  0  0  0  0
  -42.1947  -29.7554    5.3678 H   0  0  0  0  0  0  0  0  0  0  0  0
  -48.0795  -30.2950    4.8288 H   0  0  0  0  0  0  0  0  0  0  0  0
  -47.0728  -31.7502    0.8997 H   0  0  0  0  0  0  0  0  0  0  0  0
  1 24  1  0  0  0  0
  1 27  3  0  0  0  0
  2  3  1  0  0  0  0
  2  4  2  0  0  0  0
  3  9  2  0  0  0  0
  4 15  1  0  0  0  0
  5 12  2  0  0  0  0
  5 16  1  0  0  0  0
  6 13  1  0  0  0  0
  6 16  2  0  0  0  0
  7 10  2  0  0  0  0
  7 17  1  0  0  0  0
  8 11  1  0  0  0  0
  8 17  2  0  0  0  0
  9 19  1  0  0  0  0
 10 20  1  0  0  0  0
 11 20  2  0  0  0  0
 12 21  1  0  0  0  0
 13 21  2  0  0  0  0
 14 18  2  0  0  0  0
 14 28  1  0  0  0  0
 15 18  1  0  0  0  0
 15 19  2  0  0  0  0
 16 22  1  0  0  0  0
 17 24  1  0  0  0  0
 18 25  1  0  0  0  0
 19 28  1  0  0  0  0
 20 29  1  0  0  0  0
 21 33  1  0  0  0  0
 22 30  1  0  0  0  0
 22 31  2  0  0  0  0
 23 26  1  0  0  0  0
 23 29  1  0  0  0  0
 23 32  2  0  0  0  0
 25 26  1  0  0  0  0
 26 30  1  0  0  0  0
  2 34  1  0  0  0  0
  3 35  1  0  0  0  0
  4 36  1  0  0  0  0
  5 37  1  0  0  0  0
  6 38  1  0  0  0  0
  7 39  1  0  0  0  0
  8 40  1  0  0  0  0
  9 41  1  0  0  0  0
 10 42  1  0  0  0  0
 11 43  1  0  0  0  0
 12 44  1  0  0  0  0
 13 45  1  0  0  0  0
 14 46  1  0  0  0  0
 24 47  1  0  0  0  0
 24 48  1  0  0  0  0
 25 49  1  0  0  0  0
 25 50  1  0  0  0  0
 26 51  1  0  0  0  0
 28 52  1  0  0  0  0
 29 53  1  0  0  0  0
 30 54  1  0  0  0  0
M  END
> <POSIT::Probability>
0.01

> <POSIT::Method>
FRED

> <ReceptorTitle>
UCSF-P4622-REFINED_LIGAND-BOUND-STATE_A__DU__LA1_A-201(A)

> <OMEGA_C>
rQlawpt63sGybahAbOkowmu3+ME45jA/xl0kwmsw+ME3RL8/yvMtwjcW9sF1Apo/xak3wkXlCsIA
fmQ9dbQxwh3AA8LKLxm/s+5RwrSf8MEc0X5AF8ZOwoVo6sEvHsRA7bQkwuwG9cFgPTVAEbNMwtso
88EKaWdAfopJwqDx7MGDarhAod82wlpcDcIJB5e/TeowwiY3BsK1weq/mLQwwopw7cEiCZRAAWUu
wsne8sHGKCNA8BM1whoXBsIwZrE+GfhSwrM/7MEen6dAR70ywjy178GUTFhAmcUpws9q8sGkMVVA
DoFIwqtR8cGWM5BAJoAzwl0FC8I+/AfAKOk1wlV3A8J1yNQ/eHFBwhVH+MG8tTtA849YwkaE6cG7
HrRAqGs4wpz47sGODj9Aml87winW+cEkoDtATitbwpHI1cHQIJ9ADksrwgEZ78FjzJJAjjFDwvbk
88FkUoRAqR06wp61/8GRjt0/euEywlSHBMI24SVAXThEwgsU+8F9wP0/Lb4ywlFjDcLA6lPAroso
wkky+8HUVrG+uH0gwolE+sH7m4k/UXUxwtCH9sEEXRA/BU06wubADMJ0zUg/aasvwvMBAMIsL8O+
3CxVwiYV8sFSAFJAq4tPwpr/5sGzg+NAYSohwmed9MG6N11A7O9LwhqR9sHCkChAtU1GwgR568E7
4s5AfuI4whMaEcJDGrS/JkouwjFlBMK8eiTAsJ0ywo7L6sEtOLFAtGVbwtEh78G5IqVAxhxZwqOd
6sFi0tZAgN04wozy6sFEKABAYJY6wvSl6cGc9WtAHyk6wpHy/sGgNnFAWccowggL7sHCxKtAYlFA
wilc8sFehZpAj0o8wnYA/sFsVWY/

> <OMEGA_E>
HHUGwQ==

> <OMEGA_NBR>
     75564

$$$$
CACHE3HI_1715_99
  -OEChem-03092622523D

 54 57  0     1  0  0  0  0  0999 V2000
  -55.9834  -25.5233   13.9340 C   0  0  0  0  0  0  0  0  0  0  0  0
  -56.2045  -24.8041   12.7595 C   0  0  0  0  0  0  0  0  0  0  0  0
  -55.3760  -26.7777   13.8790 C   0  0  0  0  0  0  0  0  0  0  0  0
  -54.0922  -29.5073    6.8042 C   0  0  0  0  0  0  0  0  0  0  0  0
  -52.7819  -29.7964    6.4232 C   0  0  0  0  0  0  0  0  0  0  0  0
  -55.8182  -25.3389   11.5303 C   0  0  0  0  0  0  0  0  0  0  0  0
  -54.9897  -27.3125   12.6498 C   0  0  0  0  0  0  0  0  0  0  0  0
  -45.7185  -29.2102    6.0080 C   0  0  0  0  0  0  0  0  0  0  0  0
  -45.8010  -29.3924    3.6002 C   0  0  0  0  0  0  0  0  0  0  0  0
  -44.3498  -29.4781    5.9807 C   0  0  0  0  0  0  0  0  0  0  0  0
  -44.4324  -29.6603    3.5728 C   0  0  0  0  0  0  0  0  0  0  0  0
  -51.9754  -28.9744    8.5478 C   0  0  0  0  0  0  0  0  0  0  0  0
  -54.3436  -28.9433    8.0589 C   0  0  0  0  0  0  0  0  0  0  0  0
  -51.7254  -29.5326    7.2944 C   0  0  0  0  0  0  0  0  0  0  0  0
  -55.2108  -26.5933   11.4754 C   0  0  0  0  0  0  0  0  0  0  0  0
  -53.2848  -28.6668    8.9326 C   0  0  0  0  0  0  0  0  0  0  0  0
  -46.4440  -29.1672    4.8175 C   0  0  0  0  0  0  0  0  0  0  0  0
  -43.7069  -29.7033    4.7633 C   0  0  0  0  0  0  0  0  0  0  0  0
  -55.7420  -28.6794    8.4730 C   0  0  0  0  0  0  0  0  0  0  0  0
  -50.3614  -29.8434    6.8964 C   0  0  0  0  0  0  0  0  0  0  0  0
  -53.5787  -28.0871   10.2836 C   0  0  0  0  0  0  0  0  0  0  0  0
  -54.7918  -27.1736   10.1427 C   0  0  1  0  0  0  0  0  0  0  0  0
  -47.9260  -28.8770    4.8464 C   0  0  0  0  0  0  0  0  0  0  0  0
  -48.9500  -30.8210    3.6094 C   0  0  0  0  0  0  0  0  0  0  0  0
  -48.7846  -30.1460    4.9719 C   0  0  2  0  0  0  0  0  0  0  0  0
  -50.0835  -29.8366    5.5249 N   0  0  0  0  0  0  0  0  0  0  0  0
  -56.6915  -29.1480    7.8575 O   0  0  0  0  0  0  0  0  0  0  0  0
  -49.5022  -30.1191    7.7518 O   0  0  0  0  0  0  0  0  0  0  0  0
  -55.9049  -27.9126    9.5847 O   0  0  0  0  0  0  0  0  0  0  0  0
  -42.3714  -29.9647    4.7373 O   0  0  0  0  0  0  0  0  0  0  0  0
  -49.6156  -29.9320    2.7188 O   0  0  0  0  0  0  0  0  0  0  0  0
  -56.2841  -25.1071   14.8909 H   0  0  0  0  0  0  0  0  0  0  0  0
  -56.6771  -23.8271   12.8021 H   0  0  0  0  0  0  0  0  0  0  0  0
  -55.2039  -27.3380   14.7933 H   0  0  0  0  0  0  0  0  0  0  0  0
  -54.9011  -29.7296    6.1135 H   0  0  0  0  0  0  0  0  0  0  0  0
  -52.5960  -30.2336    5.4453 H   0  0  0  0  0  0  0  0  0  0  0  0
  -55.9948  -24.7711   10.6205 H   0  0  0  0  0  0  0  0  0  0  0  0
  -54.5162  -28.2902   12.6172 H   0  0  0  0  0  0  0  0  0  0  0  0
  -46.2108  -29.0361    6.9610 H   0  0  0  0  0  0  0  0  0  0  0  0
  -46.3586  -29.3609    2.6678 H   0  0  0  0  0  0  0  0  0  0  0  0
  -43.7897  -29.5102    6.9113 H   0  0  0  0  0  0  0  0  0  0  0  0
  -43.9373  -29.8347    2.6215 H   0  0  0  0  0  0  0  0  0  0  0  0
  -51.1507  -28.7760    9.2287 H   0  0  0  0  0  0  0  0  0  0  0  0
  -53.7813  -28.9149   10.9750 H   0  0  0  0  0  0  0  0  0  0  0  0
  -52.7206  -27.5224   10.6674 H   0  0  0  0  0  0  0  0  0  0  0  0
  -54.5799  -26.3242    9.4614 H   0  0  0  0  0  0  0  0  0  0  0  0
  -48.1835  -28.3398    3.9246 H   0  0  0  0  0  0  0  0  0  0  0  0
  -48.1500  -28.1848    5.6692 H   0  0  0  0  0  0  0  0  0  0  0  0
  -49.5614  -31.7253    3.6964 H   0  0  0  0  0  0  0  0  0  0  0  0
  -47.9810  -31.0871    3.1740 H   0  0  0  0  0  0  0  0  0  0  0  0
  -48.3254  -30.8543    5.6720 H   0  0  0  0  0  0  0  0  0  0  0  0
  -50.8368  -29.6666    4.8670 H   0  0  0  0  0  0  0  0  0  0  0  0
  -42.0311  -29.9555    5.6505 H   0  0  0  0  0  0  0  0  0  0  0  0
  -49.6988  -30.3981    1.8721 H   0  0  0  0  0  0  0  0  0  0  0  0
  1  2  1  0  0  0  0
  1  3  2  0  0  0  0
  2  6  2  0  0  0  0
  3  7  1  0  0  0  0
  4  5  2  0  0  0  0
  4 13  1  0  0  0  0
  5 14  1  0  0  0  0
  6 15  1  0  0  0  0
  7 15  2  0  0  0  0
  8 10  2  0  0  0  0
  8 17  1  0  0  0  0
  9 11  1  0  0  0  0
  9 17  2  0  0  0  0
 10 18  1  0  0  0  0
 11 18  2  0  0  0  0
 12 14  2  0  0  0  0
 12 16  1  0  0  0  0
 13 16  2  0  0  0  0
 13 19  1  0  0  0  0
 14 20  1  0  0  0  0
 15 22  1  0  0  0  0
 16 21  1  0  0  0  0
 17 23  1  0  0  0  0
 18 30  1  0  0  0  0
 19 27  2  0  0  0  0
 19 29  1  0  0  0  0
 20 26  1  0  0  0  0
 20 28  2  0  0  0  0
 21 22  1  0  0  0  0
 22 29  1  0  0  0  0
 23 25  1  0  0  0  0
 24 25  1  0  0  0  0
 24 31  1  0  0  0  0
 25 26  1  0  0  0  0
  1 32  1  0  0  0  0
  2 33  1  0  0  0  0
  3 34  1  0  0  0  0
  4 35  1  0  0  0  0
  5 36  1  0  0  0  0
  6 37  1  0  0  0  0
  7 38  1  0  0  0  0
  8 39  1  0  0  0  0
  9 40  1  0  0  0  0
 10 41  1  0  0  0  0
 11 42  1  0  0  0  0
 12 43  1  0  0  0  0
 21 44  1  0  0  0  0
 21 45  1  0  0  0  0
 22 46  1  0  0  0  0
 23 47  1  0  0  0  0
 23 48  1  0  0  0  0
 24 49  1  0  0  0  0
 24 50  1  0  0  0  0
 25 51  1  0  0  0  0
 26 52  1  0  0  0  0
 30 53  1  0  0  0  0
 31 54  1  0  0  0  0
M  END
> <POSIT::Probability>
0.23

> <POSIT::Method>
HYBRID

> <ReceptorTitle>
UCSF-P4622-REFINED_LIGAND-BOUND-STATE_A__DU__LA1_A-201(A)

> <OMEGA_C>
+e5fwsovzMF48V5BddFgwrtuxsG6JkxBB4Fdwsw41sFEEF5Bal5YwuYO7MG8u9lArCBTwvJe7sHM
is1A30Vfwvq1ysE0fDhBcPVbwgyA2sG+ZUpBuN82wnyu6cE4QcBAQzQ3wpQj68HlaGZAO2YxwinT
68GzYb9A0boxwj1I7cFJqWRAyuZPwpXL58HOwwhB3F9ZwseL58Fk8QBByuZOwthC7MFia+lA5tdc
whi/1MEWmzdBqSNVwrNV5cHm6w5BpsY5wndW6cHiKJpA2NMuwkSg7cFEbZhA2fdewmRv5cGCkQdB
GXJJwjO/7sFWr9xAmFBWwl2y4MHMiSRB1ipbwpJj2cGLSCJBNLQ/wicE58F1FZtAzMxDwlaR9sEn
AWdAciNDwhEr8cHwGZ9AfFVIwmex7sE0zLBAHcRiwgQv6cFKcPtANgJGwvrz8MFwDvhAlJ5fwhVN
38HwWhlBS3wpwr6378HWl5dAVnZGwrp078HqAC5A9CJhwkrbyMH6QG5BXLViwvedvsGY1UxByNBc
wjq02sFGsWxBxppbwj3W7cGGocNATGJSwmHe8cEyQK5ApfpfwjArxsHA7SlBnhBawlpS4sEh4ElB
59c4wv9J6MGqwN5AMW85wgbj6sEwvSpApSgvwu8U7MH4KN1A1r8vwnSt7sHoxSdAWppMwjs15sGl
qBNBESBXwp5R58GGmS9B6OFSwtst3MHBrSpBx1FawuWX0sG6YRdB8btAwgC44sE5LXtAoZlAwnp6
4cEiarVA1D5GwmHN/cEckWxAf+w/wlWy+MEvIktAOU1Bwo3V9sE2gbVA6VhLwktV7cGavptA1x8o
wvKk78Ek0bRAlMtGwjUv88EWoO8/

> <OMEGA_E>
3COxwA==

> <OMEGA_NBR>
     77147

$$$$
CACHE3HI_1717_3
  -OEChem-03092622523D

 41 43  0     0  0  0  0  0  0999 V2000
  -55.4258  -26.8853   12.8825 C   0  0  0  0  0  0  0  0  0  0  0  0
  -48.1552  -30.0877    2.5576 C   0  0  0  0  0  0  0  0  0  0  0  0
  -47.0226  -30.2073    1.7514 C   0  0  0  0  0  0  0  0  0  0  0  0
  -48.0247  -29.8153    3.9192 C   0  0  0  0  0  0  0  0  0  0  0  0
  -45.7511  -30.0574    2.3050 C   0  0  0  0  0  0  0  0  0  0  0  0
  -53.8986  -27.1497    9.4492 C   0  0  0  0  0  0  0  0  0  0  0  0
  -53.4505  -28.2696   11.5426 C   0  0  0  0  0  0  0  0  0  0  0  0
  -52.8824  -27.8850    8.8390 C   0  0  0  0  0  0  0  0  0  0  0  0
  -52.4342  -29.0049   10.9325 C   0  0  0  0  0  0  0  0  0  0  0  0
  -46.7520  -29.6593    4.4719 C   0  0  0  0  0  0  0  0  0  0  0  0
  -45.6209  -29.7844    3.6701 C   0  0  0  0  0  0  0  0  0  0  0  0
  -54.1827  -27.3423   10.8011 C   0  0  0  0  0  0  0  0  0  0  0  0
  -52.1502  -28.8123    9.5806 C   0  0  0  0  0  0  0  0  0  0  0  0
  -46.5268  -29.3725    5.8917 C   0  0  0  0  0  0  0  0  0  0  0  0
  -44.2918  -29.6315    4.2861 C   0  0  0  0  0  0  0  0  0  0  0  0
  -47.6753  -29.2040    6.8202 C   0  0  0  0  0  0  0  0  0  0  0  0
  -50.7055  -29.4936    7.6347 C   0  0  0  0  0  0  0  0  0  0  0  0
  -55.2675  -26.5545   11.4546 C   0  0  0  0  0  0  0  0  0  0  0  0
  -49.5666  -30.4630    7.3805 C   0  0  0  0  0  0  0  0  0  0  0  0
  -55.5443  -27.1510   14.0055 N   0  0  0  0  0  0  0  0  0  0  0  0
  -45.3608  -29.2454    6.4374 N   0  0  0  0  0  0  0  0  0  0  0  0
  -44.2712  -29.3766    5.6424 N   0  0  0  0  0  0  0  0  0  0  0  0
  -51.1188  -29.5588    8.9610 N   0  0  0  0  0  0  0  0  0  0  0  0
  -43.2755  -29.7336    3.6055 O   0  0  0  0  0  0  0  0  0  0  0  0
  -47.6295  -28.4904    7.7948 O   0  0  0  0  0  0  0  0  0  0  0  0
  -51.1522  -28.7792    6.7434 O   0  0  0  0  0  0  0  0  0  0  0  0
  -48.6916  -29.9659    6.3621 O   0  0  0  0  0  0  0  0  0  0  0  0
  -49.1432  -30.2086    2.1223 H   0  0  0  0  0  0  0  0  0  0  0  0
  -47.1315  -30.4200    0.6919 H   0  0  0  0  0  0  0  0  0  0  0  0
  -48.9241  -29.7330    4.5214 H   0  0  0  0  0  0  0  0  0  0  0  0
  -44.8809  -30.1580    1.6626 H   0  0  0  0  0  0  0  0  0  0  0  0
  -54.4636  -26.4293    8.8638 H   0  0  0  0  0  0  0  0  0  0  0  0
  -53.6649  -28.4257   12.5968 H   0  0  0  0  0  0  0  0  0  0  0  0
  -52.6695  -27.7269    7.7847 H   0  0  0  0  0  0  0  0  0  0  0  0
  -51.8701  -29.7246   11.5204 H   0  0  0  0  0  0  0  0  0  0  0  0
  -55.0701  -25.4753   11.3512 H   0  0  0  0  0  0  0  0  0  0  0  0
  -56.2250  -26.7200   10.9354 H   0  0  0  0  0  0  0  0  0  0  0  0
  -49.9627  -31.4351    7.0703 H   0  0  0  0  0  0  0  0  0  0  0  0
  -48.9884  -30.5902    8.3013 H   0  0  0  0  0  0  0  0  0  0  0  0
  -43.3616  -29.2791    6.0823 H   0  0  0  0  0  0  0  0  0  0  0  0
  -50.6313  -30.2142    9.5679 H   0  0  0  0  0  0  0  0  0  0  0  0
  1 18  1  0  0  0  0
  1 20  3  0  0  0  0
  2  3  1  0  0  0  0
  2  4  2  0  0  0  0
  3  5  2  0  0  0  0
  4 10  1  0  0  0  0
  5 11  1  0  0  0  0
  6  8  2  0  0  0  0
  6 12  1  0  0  0  0
  7  9  1  0  0  0  0
  7 12  2  0  0  0  0
  8 13  1  0  0  0  0
  9 13  2  0  0  0  0
 10 11  2  0  0  0  0
 10 14  1  0  0  0  0
 11 15  1  0  0  0  0
 12 18  1  0  0  0  0
 13 23  1  0  0  0  0
 14 16  1  0  0  0  0
 14 21  2  0  0  0  0
 15 22  1  0  0  0  0
 15 24  2  0  0  0  0
 16 25  2  0  0  0  0
 16 27  1  0  0  0  0
 17 19  1  0  0  0  0
 17 23  1  0  0  0  0
 17 26  2  0  0  0  0
 19 27  1  0  0  0  0
 21 22  1  0  0  0  0
  2 28  1  0  0  0  0
  3 29  1  0  0  0  0
  4 30  1  0  0  0  0
  5 31  1  0  0  0  0
  6 32  1  0  0  0  0
  7 33  1  0  0  0  0
  8 34  1  0  0  0  0
  9 35  1  0  0  0  0
 18 36  1  0  0  0  0
 18 37  1  0  0  0  0
 19 38  1  0  0  0  0
 19 39  1  0  0  0  0
 22 40  1  0  0  0  0
 23 41  1  0  0  0  0
M  END
> <POSIT::Probability>
0.18

> <POSIT::Method>
HYBRID

> <ReceptorTitle>
UCSF-P4622-REFINED_LIGAND-BOUND-STATE_A__DU__LA1_A-201(A)

> <OMEGA_C>
+bNdwgoV18GdHk5B9J5AwqCz8MH8ryNAIRc8wnyo8cHsLuA/TxlAwr6F7sGI1HpAIAE3wqR18MEY
hRNANJhXwqYy2cHXLxdBS81Vwi8o4sGkrjhBjIdTwnsU38GgbA1BrLxRwgAK6MGh6y5BDQI7wlZG
7cH8GY9AwXs2wmRG7sEi4mpAFbtYwvi82sFL0SxBwplQwrF/5sH3SRlBcBs6wvf66sEVibxA0yox
wlAN7cHaJ4lAe7M+wr6h6cH1PtpAbtJKwsvy68HaT/RA4hFdwqFv1MEwRjdBKERGwlG088FwLexA
Wi1ewko12cGVFmBBbHE1won26cFQ/81AuRUxwlYD68HkjrRAmnlMwlR47MFcYA9BIRotwlDe7cE0
wGZAnIQ+wmjs48EQb/lA3JtMwsM75sHQyddANMRCwjK678ETlstAqZJEwi6r8cFi0wdAoYY8wiJc
88EAHjE/PLJDwh3d7cFur5BAD4YzwoFD8cFw0NQ/uNpZwjZv08E+0g1B36hWwtRn48FgjElBk61S
wsnQ3cEMHPlABHtPwv3L7cGmUzhBx0dcwnbNy8FfnjVBXeZgwqTC1cGF9y5Bw9lHwhx7+8GoP+JA
G/RDwrq49MER0gRBS3ItwqA76sFUosJAfIZKwpq28cH7FRlB

> <OMEGA_E>
4esawQ==

> <OMEGA_NBR>
     78461

$$$$
CACHE3HI_1717_45
  -OEChem-03092622523D

 33 35  0     0  0  0  0  0  0999 V2000
  -53.9881  -28.7527    8.7854 C   0  0  0  0  0  0  0  0  0  0  0  0
  -52.8126  -28.8354    9.5552 C   0  0  0  0  0  0  0  0  0  0  0  0
  -53.9558  -29.1099    7.4275 C   0  0  0  0  0  0  0  0  0  0  0  0
  -51.6043  -29.2734    8.9697 C   0  0  0  0  0  0  0  0  0  0  0  0
  -47.7743  -29.3669    3.3374 C   0  0  0  0  0  0  0  0  0  0  0  0
  -44.3514  -29.5169    6.2578 C   0  0  0  0  0  0  0  0  0  0  0  0
  -52.7529  -29.5561    6.8359 C   0  0  0  0  0  0  0  0  0  0  0  0
  -51.5536  -29.6299    7.6027 C   0  0  0  0  0  0  0  0  0  0  0  0
  -46.4843  -29.3495    5.7295 C   0  0  0  0  0  0  0  0  0  0  0  0
  -45.7812  -29.4926    4.5304 C   0  0  0  0  0  0  0  0  0  0  0  0
  -47.8881  -29.2091    5.6823 C   0  0  0  0  0  0  0  0  0  0  0  0
  -52.7611  -29.8523    5.4033 C   0  0  0  0  0  0  0  0  0  0  0  0
  -52.7326  -29.0273    3.1677 C   0  0  0  0  0  0  0  0  0  0  0  0
  -50.2264  -30.1283    6.9961 C   0  0  0  0  0  0  0  0  0  0  0  0
  -46.4236  -29.4980    3.3458 N   0  0  0  0  0  0  0  0  0  0  0  0
  -48.5074  -29.2212    4.4751 N   0  0  0  0  0  0  0  0  0  0  0  0
  -45.5575  -29.3669    6.7676 N   0  0  0  0  0  0  0  0  0  0  0  0
  -44.4516  -29.5976    4.8728 N   0  0  0  0  0  0  0  0  0  0  0  0
  -52.5799  -31.0126    5.0437 O   0  0  0  0  0  0  0  0  0  0  0  0
  -52.9965  -28.7947    4.5683 O   0  0  0  0  0  0  0  0  0  0  0  0
  -48.8361  -28.9140    7.1575 S   0  0  0  0  0  0  0  0  0  0  0  0
  -54.9099  -28.4163    9.2365 H   0  0  0  0  0  0  0  0  0  0  0  0
  -52.8348  -28.5623   10.5998 H   0  0  0  0  0  0  0  0  0  0  0  0
  -54.8548  -29.0432    6.8327 H   0  0  0  0  0  0  0  0  0  0  0  0
  -50.7102  -29.3365    9.5722 H   0  0  0  0  0  0  0  0  0  0  0  0
  -48.2893  -29.3786    2.3881 H   0  0  0  0  0  0  0  0  0  0  0  0
  -43.4333  -29.5687    6.8242 H   0  0  0  0  0  0  0  0  0  0  0  0
  -52.9556  -28.1148    2.5955 H   0  0  0  0  0  0  0  0  0  0  0  0
  -51.6740  -29.2945    3.0336 H   0  0  0  0  0  0  0  0  0  0  0  0
  -53.3670  -29.8504    2.8069 H   0  0  0  0  0  0  0  0  0  0  0  0
  -49.9373  -31.0581    7.5079 H   0  0  0  0  0  0  0  0  0  0  0  0
  -50.3874  -30.3327    5.9273 H   0  0  0  0  0  0  0  0  0  0  0  0
  -43.6895  -29.7122    4.2356 H   0  0  0  0  0  0  0  0  0  0  0  0
  1  2  1  0  0  0  0
  1  3  2  0  0  0  0
  2  4  2  0  0  0  0
  3  7  1  0  0  0  0
  4  8  1  0  0  0  0
  5 15  2  0  0  0  0
  5 16  1  0  0  0  0
  6 17  2  0  0  0  0
  6 18  1  0  0  0  0
  7  8  2  0  0  0  0
  7 12  1  0  0  0  0
  8 14  1  0  0  0  0
  9 10  2  0  0  0  0
  9 11  1  0  0  0  0
  9 17  1  0  0  0  0
 10 15  1  0  0  0  0
 10 18  1  0  0  0  0
 11 16  2  0  0  0  0
 11 21  1  0  0  0  0
 12 19  2  0  0  0  0
 12 20  1  0  0  0  0
 13 20  1  0  0  0  0
 14 21  1  0  0  0  0
  1 22  1  0  0  0  0
  2 23  1  0  0  0  0
  3 24  1  0  0  0  0
  4 25  1  0  0  0  0
  5 26  1  0  0  0  0
  6 27  1  0  0  0  0
 13 28  1  0  0  0  0
 13 29  1  0  0  0  0
 13 30  1  0  0  0  0
 14 31  1  0  0  0  0
 14 32  1  0  0  0  0
 18 33  1  0  0  0  0
M  END
> <POSIT::Probability>
0.85

> <POSIT::Method>
SHAPEFIT

> <ReceptorTitle>
UCSF-P4622-REFINED_LIGAND-BOUND-STATE_A__DU__LA1_A-201(A)

> <OMEGA_C>
xfNXwm4F5sHNkAxBGkBTwuiu5sHo4RhBwtJXwgDh6MEUru1AyWpOwuYv6sG4gw9B6Bg/wl/v6sGu
l1VA4mcxwo4i7ME/QMhA+QJTwtVy7MFNv9pA7zZOwhkK7cGjSfNA4+85wsjL6sFEWLdAACA3wsXw
68Fl+ZBAXo0/wlOs6cGX1bVAYgtTwnHR7sEs6KxALO5SwgE46MFAu0pAyedIwqsG8cEl4N9Ax7E5
wv7768GWIVZAmwdCwv/E6cHnM49A6Do2wnPv6sF2kNhAdc4xwvDH7MEJ7ptAzFFSwuUZ+MG6ZaFA
dfxTwn5b5sFsL5JAMlhDws9P58FuCuVAtKNbwnxU48GQyBNB1VZTwql/5MHimClBWGtbwmJY6MHX
pdpAQ9dKwjOx6sG7JxlBNyhBwlQH68EO1xhAt7stwrOM7MHBX9pAidJTwgTr4MHoGyZAKLJOwilb
6sEQJ0JAy3dVwpfN7sGjpDNA1L9HwvV2+MFmQPBAqoxJwnip8sHUrL1AB8Iuwp6y7cEkiodA

> <OMEGA_E>
lrAoPw==

> <OMEGA_NBR>
     79640

$$$$
CACHE3HI_1717_46
  -OEChem-03092622523D

 44 47  0     1  0  0  0  0  0999 V2000
  -55.2028  -25.3908   11.4287 C   0  0  0  0  0  0  0  0  0  0  0  0
  -56.0299  -26.5136   11.4573 C   0  0  0  0  0  0  0  0  0  0  0  0
  -53.9265  -25.4794   10.8731 C   0  0  0  0  0  0  0  0  0  0  0  0
  -55.5810  -27.7247   10.9303 C   0  0  0  0  0  0  0  0  0  0  0  0
  -53.4776  -26.6905   10.3461 C   0  0  0  0  0  0  0  0  0  0  0  0
  -49.3034  -29.8642    7.4058 C   0  0  0  0  0  0  0  0  0  0  0  0
  -52.0116  -30.4930    4.5144 C   0  0  0  0  0  0  0  0  0  0  0  0
  -50.4545  -30.0913    6.6280 C   0  0  0  0  0  0  0  0  0  0  0  0
  -54.3047  -27.8133   10.3747 C   0  0  0  0  0  0  0  0  0  0  0  0
  -49.9822  -30.1429    5.3285 C   0  0  0  0  0  0  0  0  0  0  0  0
  -51.8224  -30.2616    6.8109 C   0  0  0  0  0  0  0  0  0  0  0  0
  -51.7911  -33.6446    9.3547 C   0  0  0  0  0  0  0  0  0  0  0  0
  -51.6427  -32.8086   10.6273 C   0  0  0  0  0  0  0  0  0  0  0  0
  -51.9623  -32.6493    8.2109 C   0  0  0  0  0  0  0  0  0  0  0  0
  -51.7325  -31.3500   10.1885 C   0  0  0  0  0  0  0  0  0  0  0  0
  -52.5260  -31.4087    8.8902 C   0  0  0  0  0  0  0  0  0  0  0  0
  -53.8188  -29.1230    9.8046 C   0  0  0  0  0  0  0  0  0  0  0  0
  -52.8285  -28.9432    8.6572 C   0  0  0  0  0  0  0  0  0  0  0  0
  -48.1905  -29.7787    6.6680 N   0  0  0  0  0  0  0  0  0  0  0  0
  -50.7037  -30.3411    4.2139 N   0  0  0  0  0  0  0  0  0  0  0  0
  -52.6114  -30.4666    5.7290 N   0  0  0  0  0  0  0  0  0  0  0  0
  -48.6350  -29.9522    5.4098 N   0  0  0  0  0  0  0  0  0  0  0  0
  -52.3880  -30.2235    8.0951 N   0  0  3  0  0  0  0  0  0  0  0  0
  -55.5522  -24.4479   11.8390 H   0  0  0  0  0  0  0  0  0  0  0  0
  -57.0239  -26.4447   11.8895 H   0  0  0  0  0  0  0  0  0  0  0  0
  -53.2823  -24.6053   10.8509 H   0  0  0  0  0  0  0  0  0  0  0  0
  -56.2325  -28.5942   10.9572 H   0  0  0  0  0  0  0  0  0  0  0  0
  -52.4820  -26.7495    9.9144 H   0  0  0  0  0  0  0  0  0  0  0  0
  -49.2235  -29.7575    8.4783 H   0  0  0  0  0  0  0  0  0  0  0  0
  -52.6722  -30.6581    3.6700 H   0  0  0  0  0  0  0  0  0  0  0  0
  -50.9258  -34.2949    9.1910 H   0  0  0  0  0  0  0  0  0  0  0  0
  -52.6747  -34.2884    9.4355 H   0  0  0  0  0  0  0  0  0  0  0  0
  -52.4541  -33.0477   11.3246 H   0  0  0  0  0  0  0  0  0  0  0  0
  -50.6980  -33.0127   11.1413 H   0  0  0  0  0  0  0  0  0  0  0  0
  -50.9822  -32.4437    7.7618 H   0  0  0  0  0  0  0  0  0  0  0  0
  -52.6198  -33.0344    7.4254 H   0  0  0  0  0  0  0  0  0  0  0  0
  -52.2108  -30.7213   10.9460 H   0  0  0  0  0  0  0  0  0  0  0  0
  -50.7210  -30.9610   10.0146 H   0  0  0  0  0  0  0  0  0  0  0  0
  -53.6006  -31.5734    9.1204 H   0  0  0  0  0  0  0  0  0  0  0  0
  -53.3681  -29.7299   10.6005 H   0  0  0  0  0  0  0  0  0  0  0  0
  -54.6875  -29.6905    9.4476 H   0  0  0  0  0  0  0  0  0  0  0  0
  -53.3004  -28.3852    7.8419 H   0  0  0  0  0  0  0  0  0  0  0  0
  -51.9348  -28.3947    8.9717 H   0  0  0  0  0  0  0  0  0  0  0  0
  -47.9622  -29.9278    4.6539 H   0  0  0  0  0  0  0  0  0  0  0  0
  1  2  1  0  0  0  0
  1  3  2  0  0  0  0
  2  4  2  0  0  0  0
  3  5  1  0  0  0  0
  4  9  1  0  0  0  0
  5  9  2  0  0  0  0
  6  8  1  0  0  0  0
  6 19  2  0  0  0  0
  7 20  2  0  0  0  0
  7 21  1  0  0  0  0
  8 10  2  0  0  0  0
  8 11  1  0  0  0  0
  9 17  1  0  0  0  0
 10 20  1  0  0  0  0
 10 22  1  0  0  0  0
 11 21  2  0  0  0  0
 11 23  1  0  0  0  0
 12 13  1  0  0  0  0
 12 14  1  0  0  0  0
 13 15  1  0  0  0  0
 14 16  1  0  0  0  0
 15 16  1  0  0  0  0
 16 23  1  0  0  0  0
 17 18  1  0  0  0  0
 18 23  1  0  0  0  0
 19 22  1  0  0  0  0
  1 24  1  0  0  0  0
  2 25  1  0  0  0  0
  3 26  1  0  0  0  0
  4 27  1  0  0  0  0
  5 28  1  0  0  0  0
  6 29  1  0  0  0  0
  7 30  1  0  0  0  0
 12 31  1  0  0  0  0
 12 32  1  0  0  0  0
 13 33  1  0  0  0  0
 13 34  1  0  0  0  0
 14 35  1  0  0  0  0
 14 36  1  0  0  0  0
 15 37  1  0  0  0  0
 15 38  1  0  0  0  0
 16 39  1  0  0  0  0
 17 40  1  0  0  0  0
 17 41  1  0  0  0  0
 18 42  1  0  0  0  0
 18 43  1  0  0  0  0
 22 44  1  0  0  0  0
M  END
> <POSIT::Probability>
0.17

> <POSIT::Method>
HYBRID

> <ReceptorTitle>
UCSF-P4622-REFINED_LIGAND-BOUND-STATE_A__DU__LA1_A-201(A)

> <OMEGA_C>
rc9cwlIgy8Hf2zZBoB5gwusb1MEaUTdBv7RXwtTVy8E/+C1B9lJewjzM3cFp4i5BF+lVwiWG1cGN
iSVBsDZFwvrp7sGM/OxA5AtQwqvx88H6dZBAXtFJwuS68MHZGNRA+jdZwrWB3sG5/iVByO1Hwr0k
8cF0g6pAK0pPwrIX8sHR8tlAIipPwhqUBsLbrBVBK5JOwv87A8KHCSpBWtlPwuSYAsLMXwNBHe5O
wrrM+sEvBCNBrBpSwvtE+8FrPg5BZ0ZXwvX76MHD3xxBYVBTwsWL58HsgwpBC8NAwtM67sHeX9VA
ntBKwo668sEo2IZAEnJSwoW788H2U7dAR4pCwiSe78EVHa1AWY1RwtPJ8cGphQFBcjVewlmVw8GB
bD1BdhhkwrCO08FuOz5BFSFVwr7XxMFQnS1BH+5gwvTA5MGFUC9Bke1Rwur+1cFXoR5B5uREwmIP
7sH4pgdBULBSwsxD9cFI4WpADbRLwvUtCcJHDhNB3rJSwlEnCcKq9xZB99BRwtswBMJpMTVBvspK
wgENBMKyQjJBw+1Lwl3GAcKJYPhAoHpSwj4jBMKjnO1A5NdQwkvF9cG4Ii9BV+JKwjCw98HjOyBB
/2ZWwkyW/MEJ7RFB63hVwtrW7cGwmylBCMBawjKG7cGNKRdBqTNVwuMU48F68PpAPr1Pwk4o48Hq
iw9BP9k/wi9s78HM7JRA

> <OMEGA_E>
JUVwwA==

> <OMEGA_NBR>
     81022

$$$$
CACHE3HI_1717_48
  -OEChem-03092622523D

 39 42  0     0  0  0  0  0  0999 V2000
  -55.9194  -25.8417   12.4867 C   0  0  0  0  0  0  0  0  0  0  0  0
  -56.7687  -26.9266   12.1939 C   0  0  0  0  0  0  0  0  0  0  0  0
  -54.8453  -25.5352   11.6275 C   0  0  0  0  0  0  0  0  0  0  0  0
  -56.5454  -27.7050   11.0421 C   0  0  0  0  0  0  0  0  0  0  0  0
  -54.6143  -26.3177   10.4784 C   0  0  0  0  0  0  0  0  0  0  0  0
  -52.8418  -28.7932    9.4410 C   0  0  0  0  0  0  0  0  0  0  0  0
  -53.7008  -29.0420    7.1689 C   0  0  0  0  0  0  0  0  0  0  0  0
  -51.5889  -29.2803    9.0177 C   0  0  0  0  0  0  0  0  0  0  0  0
  -52.4493  -29.5254    6.7483 C   0  0  0  0  0  0  0  0  0  0  0  0
  -47.8514  -29.3446    3.3932 C   0  0  0  0  0  0  0  0  0  0  0  0
  -44.3832  -29.5348    6.2609 C   0  0  0  0  0  0  0  0  0  0  0  0
  -55.4611  -27.4122   10.1821 C   0  0  0  0  0  0  0  0  0  0  0  0
  -53.9103  -28.6681    8.5179 C   0  0  0  0  0  0  0  0  0  0  0  0
  -51.3926  -29.6558    7.6719 C   0  0  0  0  0  0  0  0  0  0  0  0
  -46.5156  -29.3210    5.7604 C   0  0  0  0  0  0  0  0  0  0  0  0
  -45.8392  -29.5025    4.5543 C   0  0  0  0  0  0  0  0  0  0  0  0
  -47.9110  -29.1447    5.7312 C   0  0  0  0  0  0  0  0  0  0  0  0
  -55.2584  -28.2173    8.9559 C   0  0  0  0  0  0  0  0  0  0  0  0
  -50.0510  -30.1822    7.2100 C   0  0  0  0  0  0  0  0  0  0  0  0
  -46.5040  -29.5126    3.3811 N   0  0  0  0  0  0  0  0  0  0  0  0
  -48.5581  -29.1606    4.5407 N   0  0  0  0  0  0  0  0  0  0  0  0
  -45.5765  -29.3475    6.7865 N   0  0  0  0  0  0  0  0  0  0  0  0
  -44.5076  -29.6331    4.8786 N   0  0  0  0  0  0  0  0  0  0  0  0
  -56.2441  -28.5604    8.3113 O   0  0  0  0  0  0  0  0  0  0  0  0
  -48.8085  -28.8260    7.2088 S   0  0  0  0  0  0  0  0  0  0  0  0
  -56.0915  -25.2445   13.3700 H   0  0  0  0  0  0  0  0  0  0  0  0
  -57.5912  -27.1615   12.8531 H   0  0  0  0  0  0  0  0  0  0  0  0
  -54.1984  -24.6995   11.8499 H   0  0  0  0  0  0  0  0  0  0  0  0
  -57.2050  -28.5292   10.8141 H   0  0  0  0  0  0  0  0  0  0  0  0
  -53.7894  -26.0816    9.8225 H   0  0  0  0  0  0  0  0  0  0  0  0
  -52.9886  -28.5139   10.4739 H   0  0  0  0  0  0  0  0  0  0  0  0
  -54.5085  -28.9552    6.4571 H   0  0  0  0  0  0  0  0  0  0  0  0
  -50.7773  -29.3663    9.7250 H   0  0  0  0  0  0  0  0  0  0  0  0
  -52.2972  -29.7976    5.7143 H   0  0  0  0  0  0  0  0  0  0  0  0
  -48.3835  -29.3576    2.4535 H   0  0  0  0  0  0  0  0  0  0  0  0
  -43.4578  -29.6014    6.8137 H   0  0  0  0  0  0  0  0  0  0  0  0
  -49.7188  -30.9798    7.8909 H   0  0  0  0  0  0  0  0  0  0  0  0
  -50.1494  -30.5868    6.1919 H   0  0  0  0  0  0  0  0  0  0  0  0
  -43.7583  -29.7743    4.2316 H   0  0  0  0  0  0  0  0  0  0  0  0
  1  2  1  0  0  0  0
  1  3  2  0  0  0  0
  2  4  2  0  0  0  0
  3  5  1  0  0  0  0
  4 12  1  0  0  0  0
  5 12  2  0  0  0  0
  6  8  2  0  0  0  0
  6 13  1  0  0  0  0
  7  9  1  0  0  0  0
  7 13  2  0  0  0  0
  8 14  1  0  0  0  0
  9 14  2  0  0  0  0
 10 20  2  0  0  0  0
 10 21  1  0  0  0  0
 11 22  2  0  0  0  0
 11 23  1  0  0  0  0
 12 18  1  0  0  0  0
 13 18  1  0  0  0  0
 14 19  1  0  0  0  0
 15 16  2  0  0  0  0
 15 17  1  0  0  0  0
 15 22  1  0  0  0  0
 16 20  1  0  0  0  0
 16 23  1  0  0  0  0
 17 21  2  0  0  0  0
 17 25  1  0  0  0  0
 18 24  2  0  0  0  0
 19 25  1  0  0  0  0
  1 26  1  0  0  0  0
  2 27  1  0  0  0  0
  3 28  1  0  0  0  0
  4 29  1  0  0  0  0
  5 30  1  0  0  0  0
  6 31  1  0  0  0  0
  7 32  1  0  0  0  0
  8 33  1  0  0  0  0
  9 34  1  0  0  0  0
 10 35  1  0  0  0  0
 11 36  1  0  0  0  0
 19 37  1  0  0  0  0
 19 38  1  0  0  0  0
 23 39  1  0  0  0  0
M  END
> <POSIT::Probability>
0.99

> <POSIT::Method>
SHAPEFIT

> <ReceptorTitle>
UCSF-P4622-REFINED_LIGAND-BOUND-STATE_A__DU__LA1_A-201(A)

> <OMEGA_C>
fq1fwsi7zsGayUdBGhNjwr1p18FLGkNBoWFbwhNIzMEpCjpBhy5iws2j3cFLrDBBEnVawqGK0sF0
pydB/l1TwodY5sFkDhdBnc1WwvtV6MFyZ+VADltOwgs+6sGaSBBBG8xRwvsz7MFU8tdA1mc/wrrB
6sG4KVlAcogxwlRH7MGXWchAIthdwj5M28Ha6SJBMKRXwlhY5cEySQhBAZJNwiw/7cHmf/VA7Q86
wl2R6sE5VbhAU1s3wggF7MHavJFA6qQ/wkko6cEIZrdAjwhdwg+94cF/Sw9BLjRIwjp18cG3uOZA
HQQ6ws0Z7MFoZFhAdTtCwgBJ6cFsTZFAWk42wpjH6sERK9lAwQcywokQ7cE0HZxA9/lgwrV75MEL
+wRB8DtDwqCb5sHPruZAsl1gwsv0ycGH61VBb11mwtJK2cFwpk1BHctYwp6YxcEXmT1B9tFkws87
5MFsBi1BVyhXwg6n0MEZKR1BUfRTwmIc5MH+lCdBqAhawlSk58HtoM5A9BtLwivu6sGzmRtBWzBR
woJh7sHN27ZAv4hBwkXc6sF7BR1A1tQtwr7P7ME0CtpAAuBGwo7W98F9gvxA/5hIwrSx9MHmI8ZA
cwgvwtAx7sE7aYdA

> <OMEGA_E>
QDLsPA==

> <OMEGA_NBR>
     82324

$$$$
CACHE3HI_1717_89
  -OEChem-03092622523D

 27 29  0     0  0  0  0  0  0999 V2000
  -54.0416  -28.7342    8.5377 C   0  0  0  0  0  0  0  0  0  0  0  0
  -52.9517  -28.8249    9.4275 C   0  0  0  0  0  0  0  0  0  0  0  0
  -53.8798  -29.1122    7.1898 C   0  0  0  0  0  0  0  0  0  0  0  0
  -51.6996  -29.2917    8.9706 C   0  0  0  0  0  0  0  0  0  0  0  0
  -52.6282  -29.5734    6.7305 C   0  0  0  0  0  0  0  0  0  0  0  0
  -45.5192  -29.3505    6.8160 C   0  0  0  0  0  0  0  0  0  0  0  0
  -47.8391  -29.3653    3.3803 C   0  0  0  0  0  0  0  0  0  0  0  0
  -46.5274  -29.3371    5.7554 C   0  0  0  0  0  0  0  0  0  0  0  0
  -51.5302  -29.6647    7.6172 C   0  0  0  0  0  0  0  0  0  0  0  0
  -45.8341  -29.4935    4.5577 C   0  0  0  0  0  0  0  0  0  0  0  0
  -47.9316  -29.1961    5.7224 C   0  0  0  0  0  0  0  0  0  0  0  0
  -50.1894  -30.1875    7.1141 C   0  0  0  0  0  0  0  0  0  0  0  0
  -44.3396  -29.5097    6.2523 N   0  0  0  0  0  0  0  0  0  0  0  0
  -46.4885  -29.5063    3.3790 N   0  0  0  0  0  0  0  0  0  0  0  0
  -48.5626  -29.2137    4.5229 N   0  0  0  0  0  0  0  0  0  0  0  0
  -44.4939  -29.5979    4.8892 N   0  0  0  0  0  0  0  0  0  0  0  0
  -48.8679  -28.8899    7.1940 S   0  0  0  0  0  0  0  0  0  0  0  0
  -54.9982  -28.3759    8.8883 H   0  0  0  0  0  0  0  0  0  0  0  0
  -53.0747  -28.5366   10.4610 H   0  0  0  0  0  0  0  0  0  0  0  0
  -54.7148  -29.0487    6.5078 H   0  0  0  0  0  0  0  0  0  0  0  0
  -50.8688  -29.3639    9.6569 H   0  0  0  0  0  0  0  0  0  0  0  0
  -52.5078  -29.8583    5.6957 H   0  0  0  0  0  0  0  0  0  0  0  0
  -45.7090  -29.2480    7.8743 H   0  0  0  0  0  0  0  0  0  0  0  0
  -48.3610  -29.3739    2.4349 H   0  0  0  0  0  0  0  0  0  0  0  0
  -49.8856  -31.0432    7.7350 H   0  0  0  0  0  0  0  0  0  0  0  0
  -50.3042  -30.5144    6.0701 H   0  0  0  0  0  0  0  0  0  0  0  0
  -43.7484  -29.7194    4.2339 H   0  0  0  0  0  0  0  0  0  0  0  0
  1  2  1  0  0  0  0
  1  3  2  0  0  0  0
  2  4  2  0  0  0  0
  3  5  1  0  0  0  0
  4  9  1  0  0  0  0
  5  9  2  0  0  0  0
  6  8  1  0  0  0  0
  6 13  2  0  0  0  0
  7 14  2  0  0  0  0
  7 15  1  0  0  0  0
  8 10  2  0  0  0  0
  8 11  1  0  0  0  0
  9 12  1  0  0  0  0
 10 14  1  0  0  0  0
 10 16  1  0  0  0  0
 11 15  2  0  0  0  0
 11 17  1  0  0  0  0
 12 17  1  0  0  0  0
 13 16  1  0  0  0  0
  1 18  1  0  0  0  0
  2 19  1  0  0  0  0
  3 20  1  0  0  0  0
  4 21  1  0  0  0  0
  5 22  1  0  0  0  0
  6 23  1  0  0  0  0
  7 24  1  0  0  0  0
 12 25  1  0  0  0  0
 12 26  1  0  0  0  0
 16 27  1  0  0  0  0
M  END
> <POSIT::Probability>
0.78

> <POSIT::Method>
SHAPEFIT

> <ReceptorTitle>
UCSF-P4622-REFINED_LIGAND-BOUND-STATE_A__DU__LA1_A-201(A)

> <OMEGA_C>
lypYwpbf5cFFmghBic5TwlSZ5sHa1hZB7IRXwq/l6MHTEuZAWsxOwlhV6sFthw9BToNSwjmW7MHx
X9dArhM2wuTN6sHlHNpAQFs/wjvs6sGaV1hADhw6wmqy6sHuK7hA8h5OwldR7cEJwPNAI1Y3wrTy
68HA2JFA/bk/wqGR6cGwHbdA68FIwvp/8cHCpuNAs1sxwuET7MHcEshAO/Q5wgEN7MHQQVhAFEBC
wqy16cGAu5BAy/kxwmrI7MFBdJxArnhDwooe58E/NeZAKP5bwsQB48FONg5BdkxUwg5L5ME8YCdB
9Ntawrlj6MGlP9BAs3lLwlzp6sG/ghpBBghSws7d7sFFQ7ZABdY2wuz76cH9+ftAtXFBwsb96sEF
1RtA5IpHwnFY+MFAhfdAdTdJwowd9MFQPsJAZv4uwlLB7cHKe4dA

> <OMEGA_E>
yCk+Pw==

> <OMEGA_NBR>
     83381

$$$$
CACHE3HI_1718_25
  -OEChem-03092622523D

 36 38  0     0  0  0  0  0  0999 V2000
  -53.9938  -30.1690    9.9373 C   0  0  0  0  0  0  0  0  0  0  0  0
  -54.7661  -29.6164   10.9583 C   0  0  0  0  0  0  0  0  0  0  0  0
  -53.2791  -27.9554    9.2825 C   0  0  0  0  0  0  0  0  0  0  0  0
  -53.2506  -29.3388    9.0996 C   0  0  0  0  0  0  0  0  0  0  0  0
  -54.0527  -27.3951   10.3058 C   0  0  0  0  0  0  0  0  0  0  0  0
  -54.7904  -28.2307   11.1357 C   0  0  0  0  0  0  0  0  0  0  0  0
  -47.6835  -29.3388    4.6444 C   0  0  0  0  0  0  0  0  0  0  0  0
  -47.5484  -29.1058    6.9869 C   0  0  0  0  0  0  0  0  0  0  0  0
  -48.3859  -29.2092    5.7729 C   0  0  0  0  0  0  0  0  0  0  0  0
  -45.5680  -29.2676    5.8252 C   0  0  0  0  0  0  0  0  0  0  0  0
  -55.6518  -26.3166   12.4112 C   0  0  0  0  0  0  0  0  0  0  0  0
  -52.4473  -29.9131    8.0321 C   0  0  0  0  0  0  0  0  0  0  0  0
  -54.0935  -25.9174   10.5144 C   0  0  0  0  0  0  0  0  0  0  0  0
  -49.8753  -29.1683    5.8663 C   0  0  0  0  0  0  0  0  0  0  0  0
  -50.3622  -29.0147    7.3012 C   0  0  0  0  0  0  0  0  0  0  0  0
  -46.2550  -29.1315    7.0200 N   0  0  0  0  0  0  0  0  0  0  0  0
  -55.5631  -27.6726   12.1568 N   0  0  0  0  0  0  0  0  0  0  0  0
  -46.3164  -29.3684    4.6544 N   0  0  0  0  0  0  0  0  0  0  0  0
  -44.3375  -29.3006    5.7813 O   0  0  0  0  0  0  0  0  0  0  0  0
  -56.3466  -25.8659   13.3215 O   0  0  0  0  0  0  0  0  0  0  0  0
  -52.3633  -31.1252    7.7937 O   0  0  0  0  0  0  0  0  0  0  0  0
  -54.9337  -25.4753   11.6068 O   0  0  0  0  0  0  0  0  0  0  0  0
  -51.7919  -28.9459    7.3202 O   0  0  0  0  0  0  0  0  0  0  0  0
  -53.9793  -31.2476    9.8033 H   0  0  0  0  0  0  0  0  0  0  0  0
  -55.3430  -30.2716   11.6055 H   0  0  0  0  0  0  0  0  0  0  0  0
  -52.6999  -27.3067    8.6289 H   0  0  0  0  0  0  0  0  0  0  0  0
  -48.1493  -29.4289    3.6707 H   0  0  0  0  0  0  0  0  0  0  0  0
  -48.0939  -28.9989    7.9385 H   0  0  0  0  0  0  0  0  0  0  0  0
  -53.0851  -25.5443   10.7224 H   0  0  0  0  0  0  0  0  0  0  0  0
  -54.4662  -25.4242    9.6103 H   0  0  0  0  0  0  0  0  0  0  0  0
  -50.2748  -30.0932    5.4356 H   0  0  0  0  0  0  0  0  0  0  0  0
  -50.2373  -28.3281    5.2637 H   0  0  0  0  0  0  0  0  0  0  0  0
  -49.9741  -28.0837    7.7271 H   0  0  0  0  0  0  0  0  0  0  0  0
  -50.0378  -29.8502    7.9308 H   0  0  0  0  0  0  0  0  0  0  0  0
  -56.0940  -28.3036   12.7508 H   0  0  0  0  0  0  0  0  0  0  0  0
  -45.8258  -29.4680    3.7708 H   0  0  0  0  0  0  0  0  0  0  0  0
  1  2  1  0  0  0  0
  1  4  2  0  0  0  0
  2  6  2  0  0  0  0
  3  4  1  0  0  0  0
  3  5  2  0  0  0  0
  4 12  1  0  0  0  0
  5  6  1  0  0  0  0
  5 13  1  0  0  0  0
  6 17  1  0  0  0  0
  7  9  2  0  0  0  0
  7 18  1  0  0  0  0
  8  9  1  0  0  0  0
  8 16  2  0  0  0  0
  9 14  1  0  0  0  0
 10 16  1  0  0  0  0
 10 18  1  0  0  0  0
 10 19  2  0  0  0  0
 11 17  1  0  0  0  0
 11 20  2  0  0  0  0
 11 22  1  0  0  0  0
 12 21  2  0  0  0  0
 12 23  1  0  0  0  0
 13 22  1  0  0  0  0
 14 15  1  0  0  0  0
 15 23  1  0  0  0  0
  1 24  1  0  0  0  0
  2 25  1  0  0  0  0
  3 26  1  0  0  0  0
  7 27  1  0  0  0  0
  8 28  1  0  0  0  0
 13 29  1  0  0  0  0
 13 30  1  0  0  0  0
 14 31  1  0  0  0  0
 14 32  1  0  0  0  0
 15 33  1  0  0  0  0
 15 34  1  0  0  0  0
 17 35  1  0  0  0  0
 18 36  1  0  0  0  0
M  END
> <POSIT::Probability>
0.18

> <POSIT::Method>
HYBRID

> <ReceptorTitle>
UCSF-P4622-REFINED_LIGAND-BOUND-STATE_A__DU__LA1_A-201(A)

> <OMEGA_C>
rPlXwgVa8cEC/x5BehBbwnXu7MH/VC9Bxx1Vwq6k38EuhRRBpgBVwtG16sHxlxFB7TVYwkAp28Gi
5CRBYSlbwofY4cHnKzJB47s+wui16sEXn5RAjDE+wp/Y6MFalN9AIItBwn2s6cHqu7hArUU2whYk
6sFFaLpAZZtewk2I0sEolEZBB8pRwhxO78GMgwBBxF9YwulWz8HNOihBSIBHwrhY6cGYuLtA5nJJ
wiQe6MG0o+lAFgU5wkkN6cHpo+BAlEBewnNh3cFqgkJBBkQ5wnby6sHu8JRAolkxwphn6sHQALlA
32JhwkbtzsH3JFVBDnRRwmoA+cE5ZvlAIbxbwmvNy8FUtTlB3ypPwiiR58EXP+pAy+pXwi37+cEr
2hxBPV9dwkks8sFHsDlBs8xSwgt02sEsEApB1ZhAwm1u68Hq7GpAIGBAwrn958FfCP5AKFdUwsJa
zMHSjitBZt1Zwthky8HGwxlBaxlJwva+8MGo8K1A+/JIwgqg4sFqcKhAfuVHwnGr4MFlRPdAsSZI
wi3N7sE6yf1ANWBgwuBt4sEaA0xBnk03woy+68HsVHFA

> <OMEGA_E>
hVqwwA==

> <OMEGA_NBR>
     84596

$$$$
CACHE3HI_1718_49
  -OEChem-03092622523D

 45 47  0     0  0  0  0  0  0999 V2000
  -43.6323  -31.4439    0.4740 C   0  0  0  0  0  0  0  0  0  0  0  0
  -44.4501  -32.3211    1.1864 C   0  0  0  0  0  0  0  0  0  0  0  0
  -43.7284  -30.0696    0.6915 C   0  0  0  0  0  0  0  0  0  0  0  0
  -45.3636  -31.8242    2.1162 C   0  0  0  0  0  0  0  0  0  0  0  0
  -44.6419  -29.5726    1.6213 C   0  0  0  0  0  0  0  0  0  0  0  0
  -52.2924  -30.6076    9.4010 C   0  0  0  0  0  0  0  0  0  0  0  0
  -52.7089  -28.2479    9.0910 C   0  0  0  0  0  0  0  0  0  0  0  0
  -52.5878  -30.4807   10.7583 C   0  0  0  0  0  0  0  0  0  0  0  0
  -53.0042  -28.1210   10.4483 C   0  0  0  0  0  0  0  0  0  0  0  0
  -52.3531  -29.4910    8.5673 C   0  0  0  0  0  0  0  0  0  0  0  0
  -45.4597  -30.4497    2.3337 C   0  0  0  0  0  0  0  0  0  0  0  0
  -52.9435  -29.2377   11.2820 C   0  0  0  0  0  0  0  0  0  0  0  0
  -48.9571  -29.6782    3.5322 C   0  0  0  0  0  0  0  0  0  0  0  0
  -50.5688  -29.4104    6.7973 C   0  0  0  0  0  0  0  0  0  0  0  0
  -54.1179  -28.2089   13.2606 C   0  0  0  0  0  0  0  0  0  0  0  0
  -52.0349  -29.6255    7.1165 C   0  0  0  0  0  0  0  0  0  0  0  0
  -46.4474  -29.9119    3.3391 C   0  0  0  0  0  0  0  0  0  0  0  0
  -49.0162  -29.4330    5.0110 C   0  0  0  0  0  0  0  0  0  0  0  0
  -49.9585  -29.7351    2.6847 N   0  0  0  0  0  0  0  0  0  0  0  0
  -49.3901  -29.9812    1.4546 N   0  0  0  0  0  0  0  0  0  0  0  0
  -48.0691  -30.0723    1.5496 N   0  0  0  0  0  0  0  0  0  0  0  0
  -47.8009  -29.8826    2.8489 N   0  0  0  0  0  0  0  0  0  0  0  0
  -55.1720  -27.8649   12.4258 N   0  0  0  0  0  0  0  0  0  0  0  0
  -53.2391  -29.1110   12.6395 N   0  0  0  0  0  0  0  0  0  0  0  0
  -49.7104  -29.1101    7.6156 O   0  0  0  0  0  0  0  0  0  0  0  0
  -54.0194  -27.7477   14.3944 O   0  0  0  0  0  0  0  0  0  0  0  0
  -50.3647  -29.6043    5.4595 O   0  0  0  0  0  0  0  0  0  0  0  0
  -42.9211  -31.8308   -0.2499 H   0  0  0  0  0  0  0  0  0  0  0  0
  -44.3751  -33.3913    1.0174 H   0  0  0  0  0  0  0  0  0  0  0  0
  -43.0919  -29.3864    0.1368 H   0  0  0  0  0  0  0  0  0  0  0  0
  -45.9967  -32.5153    2.6664 H   0  0  0  0  0  0  0  0  0  0  0  0
  -44.7088  -28.5002    1.7846 H   0  0  0  0  0  0  0  0  0  0  0  0
  -52.0159  -31.5797    9.0019 H   0  0  0  0  0  0  0  0  0  0  0  0
  -52.7583  -27.3725    8.4486 H   0  0  0  0  0  0  0  0  0  0  0  0
  -52.5374  -31.3577   11.3990 H   0  0  0  0  0  0  0  0  0  0  0  0
  -53.2800  -27.1473   10.8452 H   0  0  0  0  0  0  0  0  0  0  0  0
  -52.6196  -28.8981    6.5302 H   0  0  0  0  0  0  0  0  0  0  0  0
  -52.3185  -30.6282    6.7579 H   0  0  0  0  0  0  0  0  0  0  0  0
  -46.4004  -30.5091    4.2596 H   0  0  0  0  0  0  0  0  0  0  0  0
  -46.1453  -28.9032    3.6511 H   0  0  0  0  0  0  0  0  0  0  0  0
  -48.3682  -30.1334    5.5483 H   0  0  0  0  0  0  0  0  0  0  0  0
  -48.6850  -28.4164    5.2511 H   0  0  0  0  0  0  0  0  0  0  0  0
  -55.2221  -28.2649   11.4949 H   0  0  0  0  0  0  0  0  0  0  0  0
  -55.8935  -27.2199   12.7313 H   0  0  0  0  0  0  0  0  0  0  0  0
  -52.7604  -29.7540   13.2783 H   0  0  0  0  0  0  0  0  0  0  0  0
  1  2  1  0  0  0  0
  1  3  2  0  0  0  0
  2  4  2  0  0  0  0
  3  5  1  0  0  0  0
  4 11  1  0  0  0  0
  5 11  2  0  0  0  0
  6  8  2  0  0  0  0
  6 10  1  0  0  0  0
  7  9  1  0  0  0  0
  7 10  2  0  0  0  0
  8 12  1  0  0  0  0
  9 12  2  0  0  0  0
 10 16  1  0  0  0  0
 11 17  1  0  0  0  0
 12 24  1  0  0  0  0
 13 18  1  0  0  0  0
 13 19  2  0  0  0  0
 13 22  1  0  0  0  0
 14 16  1  0  0  0  0
 14 25  2  0  0  0  0
 14 27  1  0  0  0  0
 15 23  1  0  0  0  0
 15 24  1  0  0  0  0
 15 26  2  0  0  0  0
 17 22  1  0  0  0  0
 18 27  1  0  0  0  0
 19 20  1  0  0  0  0
 20 21  2  0  0  0  0
 21 22  1  0  0  0  0
  1 28  1  0  0  0  0
  2 29  1  0  0  0  0
  3 30  1  0  0  0  0
  4 31  1  0  0  0  0
  5 32  1  0  0  0  0
  6 33  1  0  0  0  0
  7 34  1  0  0  0  0
  8 35  1  0  0  0  0
  9 36  1  0  0  0  0
 16 37  1  0  0  0  0
 16 38  1  0  0  0  0
 17 39  1  0  0  0  0
 17 40  1  0  0  0  0
 18 41  1  0  0  0  0
 18 42  1  0  0  0  0
 23 43  1  0  0  0  0
 23 44  1  0  0  0  0
 24 45  1  0  0  0  0
M  END
> <POSIT::Probability>
0.05

> <POSIT::Method>
FRED

> <ReceptorTitle>
UCSF-P4622-REFINED_LIGAND-BOUND-STATE_A__DU__LA1_A-201(A)

> <OMEGA_C>
dYcuwjSN+8G4sPI+5swxwtJIAcLc2pc/3+kuwn6O8MGKBzE/UHQ1wt+X/sGobwdASpEywriU7MEm
iM8/aitRwlDc9MGDahZB4dVSwrn74cGtdBFB4VlSworY88EtIixBVwRUwub34MEeLCdBm2lRwo3t
68HQEwlBt9Y1wguZ88FBWxVAKcZTwrbm6cEKgzRBFtRDwuJs7cFvD2JAfkZKwmxI68Esg9lAwnhY
wuSr4cF1K1RBtiNQwhIB7cEeuuNALMo5wpFL78Exs1VAmhBEwsJ268EwWqBAiNVHwpPh7cGW0StA
bI9FwpbZ78HiL7o/ykZAwvqT8MFrWMY/JTQ/wpIP78GmVDZAH7Bcwl/r3sE60EZB1fRUwk3j6MFv
O0pBaNdGworh6MG4svNA0xNYwk/73cGdT2ZBcnVJwqrV7MFwtK5APq8rwmal/sGA6H++GYAxwrqQ
BcLqOYI/GF4swmsX68FAIAw+lfw3wrIPAsL7pSpAxdUywoMA5MEib+Q/SxBQwk2j/MHJBxBBdwhT
wtX62sFPLQdBRyZSwnrc+sEwYjZBwx5VwqIt2cEChi1BgHpSwkEv58E299BAI0ZRwn0G9cGWQNhA
Bpo5wpES9MHmTohAxZQ4wrQ558GDq2lAAHlBwk4R8cEAjLFAab1CwslU48H+CKhAbuNcwn8e4sEj
6zdB6ZJfwkXC2cGYs0tBngpTwhsI7sEfdFRB

> <OMEGA_E>
CiILwQ==

> <OMEGA_NBR>
     85985

$$$$
CACHE3HI_1718_67
  -OEChem-03092622523D

 51 53  0     0  0  0  0  0  0999 V2000
  -43.1084  -29.6342    1.5873 C   0  0  0  0  0  0  0  0  0  0  0  0
  -44.4013  -29.1107    1.5764 C   0  0  0  0  0  0  0  0  0  0  0  0
  -42.5614  -30.1151    2.7768 C   0  0  0  0  0  0  0  0  0  0  0  0
  -51.3131  -30.4021    7.9952 C   0  0  0  0  0  0  0  0  0  0  0  0
  -52.8135  -29.2261    6.5109 C   0  0  0  0  0  0  0  0  0  0  0  0
  -45.1471  -29.0683    2.7545 C   0  0  0  0  0  0  0  0  0  0  0  0
  -43.3072  -30.0728    3.9549 C   0  0  0  0  0  0  0  0  0  0  0  0
  -52.0167  -29.9108    9.0948 C   0  0  0  0  0  0  0  0  0  0  0  0
  -53.5172  -28.7348    7.6105 C   0  0  0  0  0  0  0  0  0  0  0  0
  -51.7117  -30.0598    6.7032 C   0  0  0  0  0  0  0  0  0  0  0  0
  -44.6001  -29.5493    3.9440 C   0  0  0  0  0  0  0  0  0  0  0  0
  -53.1186  -29.0771    8.9026 C   0  0  0  0  0  0  0  0  0  0  0  0
  -46.6902  -29.5799    5.2677 C   0  0  0  0  0  0  0  0  0  0  0  0
  -49.8189  -29.6829    5.0911 C   0  0  0  0  0  0  0  0  0  0  0  0
  -55.1895  -28.2531   10.0913 C   0  0  0  0  0  0  0  0  0  0  0  0
  -55.8282  -25.7762   13.5495 C   0  0  0  0  0  0  0  0  0  0  0  0
  -50.9581  -30.5827    5.5272 C   0  0  0  0  0  0  0  0  0  0  0  0
  -47.6566  -29.7284    4.1299 C   0  0  0  0  0  0  0  0  0  0  0  0
  -55.1946  -27.1484   13.7290 C   0  0  0  0  0  0  0  0  0  0  0  0
  -54.5645  -27.6785   12.4465 C   0  0  0  0  0  0  0  0  0  0  0  0
  -46.9725  -29.5001    6.5477 N   0  0  0  0  0  0  0  0  0  0  0  0
  -45.7596  -29.3744    7.1880 N   0  0  0  0  0  0  0  0  0  0  0  0
  -44.7581  -29.3777    6.3167 N   0  0  0  0  0  0  0  0  0  0  0  0
  -45.3421  -29.5061    5.1173 N   0  0  0  0  0  0  0  0  0  0  0  0
  -53.8323  -28.5790   10.0180 N   0  0  0  0  0  0  0  0  0  0  0  0
  -55.5159  -27.7905   11.3754 N   0  0  0  0  0  0  0  0  0  0  0  0
  -49.8155  -28.4629    5.1822 O   0  0  0  0  0  0  0  0  0  0  0  0
  -56.0142  -28.3438    9.1851 O   0  0  0  0  0  0  0  0  0  0  0  0
  -48.8065  -30.4493    4.5846 O   0  0  0  0  0  0  0  0  0  0  0  0
  -42.5282  -29.6680    0.6698 H   0  0  0  0  0  0  0  0  0  0  0  0
  -44.8291  -28.7378    0.6504 H   0  0  0  0  0  0  0  0  0  0  0  0
  -41.5553  -30.5239    2.7866 H   0  0  0  0  0  0  0  0  0  0  0  0
  -50.4558  -31.0507    8.1545 H   0  0  0  0  0  0  0  0  0  0  0  0
  -53.1308  -28.9539    5.5075 H   0  0  0  0  0  0  0  0  0  0  0  0
  -46.1542  -28.6590    2.7309 H   0  0  0  0  0  0  0  0  0  0  0  0
  -42.8681  -30.4512    4.8749 H   0  0  0  0  0  0  0  0  0  0  0  0
  -51.6974  -30.1842   10.0974 H   0  0  0  0  0  0  0  0  0  0  0  0
  -54.3741  -28.0857    7.4485 H   0  0  0  0  0  0  0  0  0  0  0  0
  -56.5836  -25.8112   12.7581 H   0  0  0  0  0  0  0  0  0  0  0  0
  -55.0770  -25.0311   13.2687 H   0  0  0  0  0  0  0  0  0  0  0  0
  -56.3197  -25.4402   14.4678 H   0  0  0  0  0  0  0  0  0  0  0  0
  -51.6363  -30.7113    4.6679 H   0  0  0  0  0  0  0  0  0  0  0  0
  -50.5396  -31.5759    5.7567 H   0  0  0  0  0  0  0  0  0  0  0  0
  -47.9725  -28.7485    3.7565 H   0  0  0  0  0  0  0  0  0  0  0  0
  -47.1977  -30.2736    3.2974 H   0  0  0  0  0  0  0  0  0  0  0  0
  -54.4416  -27.0958   14.5241 H   0  0  0  0  0  0  0  0  0  0  0  0
  -55.9679  -27.8511   14.0607 H   0  0  0  0  0  0  0  0  0  0  0  0
  -54.1164  -28.6649   12.6015 H   0  0  0  0  0  0  0  0  0  0  0  0
  -53.7787  -26.9966   12.1060 H   0  0  0  0  0  0  0  0  0  0  0  0
  -53.2927  -28.4415   10.8693 H   0  0  0  0  0  0  0  0  0  0  0  0
  -56.4743  -27.4877   11.5458 H   0  0  0  0  0  0  0  0  0  0  0  0
  1  2  1  0  0  0  0
  1  3  2  0  0  0  0
  2  6  2  0  0  0  0
  3  7  1  0  0  0  0
  4  8  2  0  0  0  0
  4 10  1  0  0  0  0
  5  9  1  0  0  0  0
  5 10  2  0  0  0  0
  6 11  1  0  0  0  0
  7 11  2  0  0  0  0
  8 12  1  0  0  0  0
  9 12  2  0  0  0  0
 10 17  1  0  0  0  0
 11 24  1  0  0  0  0
 12 25  1  0  0  0  0
 13 18  1  0  0  0  0
 13 21  2  0  0  0  0
 13 24  1  0  0  0  0
 14 17  1  0  0  0  0
 14 27  2  0  0  0  0
 14 29  1  0  0  0  0
 15 25  1  0  0  0  0
 15 26  1  0  0  0  0
 15 28  2  0  0  0  0
 16 19  1  0  0  0  0
 18 29  1  0  0  0  0
 19 20  1  0  0  0  0
 20 26  1  0  0  0  0
 21 22  1  0  0  0  0
 22 23  2  0  0  0  0
 23 24  1  0  0  0  0
  1 30  1  0  0  0  0
  2 31  1  0  0  0  0
  3 32  1  0  0  0  0
  4 33  1  0  0  0  0
  5 34  1  0  0  0  0
  6 35  1  0  0  0  0
  7 36  1  0  0  0  0
  8 37  1  0  0  0  0
  9 38  1  0  0  0  0
 16 39  1  0  0  0  0
 16 40  1  0  0  0  0
 16 41  1  0  0  0  0
 17 42  1  0  0  0  0
 17 43  1  0  0  0  0
 18 44  1  0  0  0  0
 18 45  1  0  0  0  0
 19 46  1  0  0  0  0
 19 47  1  0  0  0  0
 20 48  1  0  0  0  0
 20 49  1  0  0  0  0
 25 50  1  0  0  0  0
 26 51  1  0  0  0  0
M  END
> <POSIT::Probability>
0.23

> <POSIT::Method>
HYBRID

> <ReceptorTitle>
UCSF-P4622-REFINED_LIGAND-BOUND-STATE_A__DU__LA1_A-201(A)

> <OMEGA_C>
CG8swskS7cF2Lcs/7poxwp7i6MEMx8k/5j4qwsPr8MGGtzFAk0BNwpE388HO2P9ACkFTwgjP6cGC
WdBApJY0wuqL6MHoSTBAmzotwhCV8MHhHX1AJRFQwltJ78FphBFBnBFWwtLg5cEEifNAxdhOwmR6
8MGOgNZAdmYywvFk7MFFa3xAbHlUwv+d6MHicA5By8I6wo+j7MEokahAj0ZHwpx27cGc6qJAGcJc
wmAG4sHxdSFBHVBfwpw1zsHGylhBE9VLwlup9MGc3rBAT6A+wrzT7cEFKIRAQcdcwu8v2cH6qVtB
BkJawodt3cHOJEdBzOM7wh8A7MG5htFA0wk3wrz+6sEBBOZAQAgzwpMF68HCIspAVF41wpQM7ME4
waNAUlRXwuGh5MGtSSBBSBBewvlS3sHMATZBD0NHwv2z48FS1KVAiA5gwhjA4sEf9hJB5TlDwieY
88HktJJA7RwqwgpY7cEgdys/BlEzwvzm5cGofiY/nTgmwvcw9MFKVzJAwtJJwr9n+MHieAJB7IVU
wpeh58G3PbBA2p04wqFF5cEkxy5A9XgrwgGc88Ft/5tAG8pOwip58cEVjyFBGX9Zwoiv4MHyWe5A
m1Viwj59zsEIIUxB3E5cwro/yMHJTFRBakdhwnKFy8E7fGdBj4tOwq6w9cFgX5VAkChKwomb/MGK
NrhA0OM/wvj85cHKanBAZ8o8wlkw8sFYCVNAN8RZwi/E2MGSYmhBJN9fwhLP3sGu+GBBL3dYwrpR
5cHun0lBbB1XwhD518E9skFBsytVwkKI48Go6C1Bo+VhwuXm28GEuzhB

> <OMEGA_E>
lv7rwA==

> <OMEGA_NBR>
     87498

$$$$
CACHE3HI_1718_77
  -OEChem-03092622523D

 35 36  0     0  0  0  0  0  0999 V2000
  -52.9113  -28.5754   10.0912 C   0  0  0  0  0  0  0  0  0  0  0  0
  -54.2125  -27.2671    8.5315 C   0  0  0  0  0  0  0  0  0  0  0  0
  -53.5553  -27.9453   11.1560 C   0  0  0  0  0  0  0  0  0  0  0  0
  -54.8566  -26.6370    9.5963 C   0  0  0  0  0  0  0  0  0  0  0  0
  -53.2401  -28.2362    8.7788 C   0  0  0  0  0  0  0  0  0  0  0  0
  -54.5277  -26.9762   10.9087 C   0  0  0  0  0  0  0  0  0  0  0  0
  -48.7170  -29.8045    6.4993 C   0  0  0  0  0  0  0  0  0  0  0  0
  -52.5693  -28.8932    7.6682 C   0  0  0  0  0  0  0  0  0  0  0  0
  -54.9808  -26.5472   13.3506 C   0  0  0  0  0  0  0  0  0  0  0  0
  -48.2561  -28.3461    3.3838 C   0  0  0  0  0  0  0  0  0  0  0  0
  -51.1252  -29.3877    7.8432 C   0  0  0  0  0  0  0  0  0  0  0  0
  -48.1632  -29.7195    4.0259 C   0  0  0  0  0  0  0  0  0  0  0  0
  -48.0227  -29.6439    7.6023 N   0  0  0  0  0  0  0  0  0  0  0  0
  -46.7342  -29.3790    7.1944 N   0  0  0  0  0  0  0  0  0  0  0  0
  -46.6441  -29.3782    5.8700 N   0  0  0  0  0  0  0  0  0  0  0  0
  -47.8846  -29.6443    5.4378 N   0  0  0  0  0  0  0  0  0  0  0  0
  -56.1479  -26.9683   13.9725 N   0  0  0  0  0  0  0  0  0  0  0  0
  -55.1714  -26.3461   11.9741 N   0  0  0  0  0  0  0  0  0  0  0  0
  -53.1607  -29.0495    6.5803 O   0  0  0  0  0  0  0  0  0  0  0  0
  -53.9388  -26.3875   13.9805 O   0  0  0  0  0  0  0  0  0  0  0  0
  -50.4618  -30.1742    6.3521 S   0  0  0  0  0  0  0  0  0  0  0  0
  -52.1557  -29.3291   10.2966 H   0  0  0  0  0  0  0  0  0  0  0  0
  -54.4766  -26.9945    7.5129 H   0  0  0  0  0  0  0  0  0  0  0  0
  -53.2916  -28.2177   12.1748 H   0  0  0  0  0  0  0  0  0  0  0  0
  -55.6122  -25.8829    9.3914 H   0  0  0  0  0  0  0  0  0  0  0  0
  -49.0454  -27.7450    3.8470 H   0  0  0  0  0  0  0  0  0  0  0  0
  -48.4810  -28.4404    2.3169 H   0  0  0  0  0  0  0  0  0  0  0  0
  -47.3143  -27.7972    3.4866 H   0  0  0  0  0  0  0  0  0  0  0  0
  -50.4860  -28.5346    8.0865 H   0  0  0  0  0  0  0  0  0  0  0  0
  -51.0973  -30.1255    8.6500 H   0  0  0  0  0  0  0  0  0  0  0  0
  -47.3714  -30.3131    3.5563 H   0  0  0  0  0  0  0  0  0  0  0  0
  -49.1019  -30.2703    3.8955 H   0  0  0  0  0  0  0  0  0  0  0  0
  -56.9909  -27.0898   13.4214 H   0  0  0  0  0  0  0  0  0  0  0  0
  -56.1720  -27.1566   14.9694 H   0  0  0  0  0  0  0  0  0  0  0  0
  -55.8773  -25.6421   11.7359 H   0  0  0  0  0  0  0  0  0  0  0  0
  1  3  2  0  0  0  0
  1  5  1  0  0  0  0
  2  4  1  0  0  0  0
  2  5  2  0  0  0  0
  3  6  1  0  0  0  0
  4  6  2  0  0  0  0
  5  8  1  0  0  0  0
  6 18  1  0  0  0  0
  7 13  2  0  0  0  0
  7 16  1  0  0  0  0
  7 21  1  0  0  0  0
  8 11  1  0  0  0  0
  8 19  2  0  0  0  0
  9 17  1  0  0  0  0
  9 18  1  0  0  0  0
  9 20  2  0  0  0  0
 10 12  1  0  0  0  0
 11 21  1  0  0  0  0
 12 16  1  0  0  0  0
 13 14  1  0  0  0  0
 14 15  2  0  0  0  0
 15 16  1  0  0  0  0
  1 22  1  0  0  0  0
  2 23  1  0  0  0  0
  3 24  1  0  0  0  0
  4 25  1  0  0  0  0
 10 26  1  0  0  0  0
 10 27  1  0  0  0  0
 10 28  1  0  0  0  0
 11 29  1  0  0  0  0
 11 30  1  0  0  0  0
 12 31  1  0  0  0  0
 12 32  1  0  0  0  0
 17 33  1  0  0  0  0
 17 34  1  0  0  0  0
 18 35  1  0  0  0  0
M  END
> <POSIT::Probability>
0.14

> <POSIT::Method>
HYBRID

> <ReceptorTitle>
UCSF-P4622-REFINED_LIGAND-BOUND-STATE_A__DU__LA1_A-201(A)

> <OMEGA_C>
JKVTwmKa5MFgdSFBnNlYwvoi2sHYgAhBpThWwgSQ38EMfzJBHW1bwp4Y1cFEihlB3vVUwsvj4cH2
dQxBZBxawjXP18HuiS5BOd5CwpNv7sFP+s9A/EZSwiwl58HBYfVASuxbwq5g1ME6nFVBOAZBwurE
4sHbj1hAP4BMwgQa68HG+/pAGqdAwpDB7cFF1IBAPhdAwq8m7cGvRfNA0O86wiQI68EoOOZAmpM6
wp4G68Gk1rtAy4k/wn0n7cFtAq5Acpdgwge/18FSj19Bja9cwtzE0sHMlT9BmKRUwm1l6MH8kdJA
TMFXwocZ08FAsF9B6thJwtRk8cGnRMtAZJ9Qwvqh6sG/viRBCOhZwsn018H/afBAjypVwuO94cEY
zEJB7HJewkIQz8H+QhZBfy5EwrT13cGNNHZAmOxBwtuF48GWRxRA40E9wqJg3sFvJF9AovFJwtNG
5MEtYgFBmWNMwhUB8cFuZgpBVXw9wjiB8sGmmWNAWGhEwpQp8sGDUHlAqvZjwt632MHyvVZBGLBg
wstA2cHZgm9BXoJfwvYizcFexjtB

> <OMEGA_E>
PrqkwA==

> <OMEGA_NBR>
     88688

$$$$
CACHE3HI_1718_81
  -OEChem-03092622523D

 36 37  0     0  0  0  0  0  0999 V2000
  -52.1218  -29.8387    9.9127 C   0  0  0  0  0  0  0  0  0  0  0  0
  -53.4938  -28.0784    8.9874 C   0  0  0  0  0  0  0  0  0  0  0  0
  -52.5498  -29.4971   11.1956 C   0  0  0  0  0  0  0  0  0  0  0  0
  -53.9218  -27.7368   10.2702 C   0  0  0  0  0  0  0  0  0  0  0  0
  -52.5940  -29.1293    8.8086 C   0  0  0  0  0  0  0  0  0  0  0  0
  -53.4496  -28.4462   11.3744 C   0  0  0  0  0  0  0  0  0  0  0  0
  -48.2760  -29.6680    6.0538 C   0  0  0  0  0  0  0  0  0  0  0  0
  -46.8944  -30.7718    1.9488 C   0  0  0  0  0  0  0  0  0  0  0  0
  -47.7039  -30.3057    2.9069 C   0  0  0  0  0  0  0  0  0  0  0  0
  -52.1485  -29.4853    7.4708 C   0  0  0  0  0  0  0  0  0  0  0  0
  -54.7702  -27.0903   13.0387 C   0  0  0  0  0  0  0  0  0  0  0  0
  -47.4040  -29.0957    3.7421 C   0  0  0  0  0  0  0  0  0  0  0  0
  -50.7481  -30.0866    7.2756 C   0  0  0  0  0  0  0  0  0  0  0  0
  -47.7124  -29.8981    7.2173 N   0  0  0  0  0  0  0  0  0  0  0  0
  -46.3575  -29.7733    7.0044 N   0  0  0  0  0  0  0  0  0  0  0  0
  -46.0997  -29.4735    5.7372 N   0  0  0  0  0  0  0  0  0  0  0  0
  -47.3002  -29.4081    5.1451 N   0  0  0  0  0  0  0  0  0  0  0  0
  -55.4616  -27.4251   14.1946 N   0  0  0  0  0  0  0  0  0  0  0  0
  -53.8772  -28.1048   12.6578 N   0  0  0  0  0  0  0  0  0  0  0  0
  -52.8962  -29.2994    6.4889 O   0  0  0  0  0  0  0  0  0  0  0  0
  -54.9594  -26.0220   12.4635 O   0  0  0  0  0  0  0  0  0  0  0  0
  -50.0230  -29.6813    5.6656 S   0  0  0  0  0  0  0  0  0  0  0  0
  -51.4208  -30.6596    9.7862 H   0  0  0  0  0  0  0  0  0  0  0  0
  -53.8681  -27.5184    8.1344 H   0  0  0  0  0  0  0  0  0  0  0  0
  -52.1757  -30.0571   12.0490 H   0  0  0  0  0  0  0  0  0  0  0  0
  -54.6227  -26.9156   10.3974 H   0  0  0  0  0  0  0  0  0  0  0  0
  -47.1715  -31.6488    1.3745 H   0  0  0  0  0  0  0  0  0  0  0  0
  -45.9484  -30.2928    1.7228 H   0  0  0  0  0  0  0  0  0  0  0  0
  -48.6449  -30.8206    3.0875 H   0  0  0  0  0  0  0  0  0  0  0  0
  -48.1976  -28.3541    3.5882 H   0  0  0  0  0  0  0  0  0  0  0  0
  -46.4783  -28.6058    3.4127 H   0  0  0  0  0  0  0  0  0  0  0  0
  -50.0840  -29.6963    8.0516 H   0  0  0  0  0  0  0  0  0  0  0  0
  -50.8158  -31.1759    7.3461 H   0  0  0  0  0  0  0  0  0  0  0  0
  -55.2803  -28.3164   14.6439 H   0  0  0  0  0  0  0  0  0  0  0  0
  -56.1455  -26.7929   14.5979 H   0  0  0  0  0  0  0  0  0  0  0  0
  -53.4991  -28.6585   13.4331 H   0  0  0  0  0  0  0  0  0  0  0  0
  1  3  2  0  0  0  0
  1  5  1  0  0  0  0
  2  4  1  0  0  0  0
  2  5  2  0  0  0  0
  3  6  1  0  0  0  0
  4  6  2  0  0  0  0
  5 10  1  0  0  0  0
  6 19  1  0  0  0  0
  7 14  2  0  0  0  0
  7 17  1  0  0  0  0
  7 22  1  0  0  0  0
  8  9  2  0  0  0  0
  9 12  1  0  0  0  0
 10 13  1  0  0  0  0
 10 20  2  0  0  0  0
 11 18  1  0  0  0  0
 11 19  1  0  0  0  0
 11 21  2  0  0  0  0
 12 17  1  0  0  0  0
 13 22  1  0  0  0  0
 14 15  1  0  0  0  0
 15 16  2  0  0  0  0
 16 17  1  0  0  0  0
  1 23  1  0  0  0  0
  2 24  1  0  0  0  0
  3 25  1  0  0  0  0
  4 26  1  0  0  0  0
  8 27  1  0  0  0  0
  8 28  1  0  0  0  0
  9 29  1  0  0  0  0
 12 30  1  0  0  0  0
 12 31  1  0  0  0  0
 13 32  1  0  0  0  0
 13 33  1  0  0  0  0
 18 34  1  0  0  0  0
 18 35  1  0  0  0  0
 19 36  1  0  0  0  0
M  END
> <POSIT::Probability>
0.14

> <POSIT::Method>
HYBRID

> <ReceptorTitle>
UCSF-P4622-REFINED_LIGAND-BOUND-STATE_A__DU__LA1_A-201(A)

> <OMEGA_C>
r3xQwr617sGYmh5Bo/lVwoqg4MFizA9B/zJSwiT668FLITNB9a9Xwunk3cHYUiRBQGBSws0I6cEK
8AxBYsxVwuGR48Gk/TVBqxpBwg1Y7cFkuMFA25M7wrcs9sG0cfk/y9A+wgFy8sGUCjpACJhQwvPh
68HIEO9ApxRbwui42MGwnlBBup09wvbD6MHofm9AGf5Kwm+x8MGG0ehAi9k+wk8v78Hu8+ZADm45
wqQv7sFGJOBAE2Y4wq3J68FGl7dAbjM9wtJD68GPpKRApthdwodm28FIHWNBSIJXwqXW4MEyhkpB
rJVTwidl6sFqpc9AdtZbwgct0MFwakdBkRdIwklz7cGiTLVA665NwvVG9cFDlBxB+HhXwpol3MFz
JgJB7rNQwud08MHCyEBBrH1awj5T18GeWyZBpq88wr0w/cEu8K8/LMs3wp1X8sGWg9w/VZRCwqeQ
9sFUmkVAZMpAwiPV4sFfpWVAxuk5wrDY5MFkalpABVZIwhqS7cFk0wBBW0NLwkJo+cE0E+tA/h5d
wuWH4sF4TWpBB5Vgwu1X1sHckGlBIP9Vwq9E5cHe7VZB

> <OMEGA_E>
r9LHwA==

> <OMEGA_NBR>
     89898

$$$$
CACHE3HI_1879_8
  -OEChem-03092622523D

 51 55  0     1  0  0  0  0  0999 V2000
  -44.4698  -33.3995   -2.7850 C   0  0  0  0  0  0  0  0  0  0  0  0
  -52.7229  -29.7352    7.3481 C   0  0  0  0  0  0  0  0  0  0  0  0
  -45.7819  -33.6641   -2.3923 C   0  0  0  0  0  0  0  0  0  0  0  0
  -43.5287  -32.9909   -1.8401 C   0  0  0  0  0  0  0  0  0  0  0  0
  -52.9787  -29.8154    5.9793 C   0  0  0  0  0  0  0  0  0  0  0  0
  -51.4097  -29.7850    7.8157 C   0  0  0  0  0  0  0  0  0  0  0  0
  -46.1527  -33.5204   -1.0552 C   0  0  0  0  0  0  0  0  0  0  0  0
  -43.8995  -32.8473   -0.5030 C   0  0  0  0  0  0  0  0  0  0  0  0
  -51.9218  -29.9451    5.0781 C   0  0  0  0  0  0  0  0  0  0  0  0
  -50.3528  -29.9147    6.9146 C   0  0  0  0  0  0  0  0  0  0  0  0
  -42.8891  -29.6911    1.2108 C   0  0  0  0  0  0  0  0  0  0  0  0
  -43.8036  -30.7185    1.4640 C   0  0  0  0  0  0  0  0  0  0  0  0
  -45.7030  -29.2450    1.0064 C   0  0  0  0  0  0  0  0  0  0  0  0
  -47.6206  -29.9183    3.8536 C   0  0  0  0  0  0  0  0  0  0  0  0
  -49.6078  -30.7639    3.4419 C   0  0  0  0  0  0  0  0  0  0  0  0
  -45.2115  -33.1119   -0.1104 C   0  0  0  0  0  0  0  0  0  0  0  0
  -50.6086  -29.9949    5.5457 C   0  0  0  0  0  0  0  0  0  0  0  0
  -43.4131  -28.4675    0.8617 C   0  0  0  0  0  0  0  0  0  0  0  0
  -44.7842  -28.2500    0.7620 C   0  0  0  0  0  0  0  0  0  0  0  0
  -45.1951  -30.4986    1.3632 C   0  0  0  0  0  0  0  0  0  0  0  0
  -48.3528  -30.6453    2.8960 C   0  0  0  0  0  0  0  0  0  0  0  0
  -43.7290  -26.2823    0.2559 C   0  0  0  0  0  0  0  0  0  0  0  0
  -45.6103  -32.9570    1.3292 C   0  0  0  0  0  0  0  0  0  0  0  0
  -48.3495  -29.5976    4.9259 N   0  0  0  0  0  0  0  0  0  0  0  0
  -49.5531  -30.1256    4.6460 N   0  0  0  0  0  0  0  0  0  0  0  0
  -42.7552  -27.2766    0.5560 N   0  0  0  0  0  0  0  0  0  0  0  0
  -44.9935  -26.9213    0.3930 N   0  0  0  0  0  0  0  0  0  0  0  0
  -46.0968  -31.5744    1.6298 N   0  0  2  0  0  0  0  0  0  0  0  0
  -43.5215  -25.1186   -0.0567 O   0  0  0  0  0  0  0  0  0  0  0  0
  -47.9250  -30.1926    0.3727 O   0  0  0  0  0  0  0  0  0  0  0  0
  -48.4820  -32.5231    1.1045 O   0  0  0  0  0  0  0  0  0  0  0  0
  -47.7866  -31.2703    1.3363 S   0  0  0  0  0  0  0  0  0  0  0  0
  -44.1811  -33.5113   -3.8259 H   0  0  0  0  0  0  0  0  0  0  0  0
  -53.5458  -29.6332    8.0496 H   0  0  0  0  0  0  0  0  0  0  0  0
  -46.5148  -33.9826   -3.1279 H   0  0  0  0  0  0  0  0  0  0  0  0
  -42.5071  -32.7847   -2.1456 H   0  0  0  0  0  0  0  0  0  0  0  0
  -54.0007  -29.7746    5.6138 H   0  0  0  0  0  0  0  0  0  0  0  0
  -51.2090  -29.7216    8.8811 H   0  0  0  0  0  0  0  0  0  0  0  0
  -47.1774  -33.7288   -0.7588 H   0  0  0  0  0  0  0  0  0  0  0  0
  -43.1588  -32.5294    0.2260 H   0  0  0  0  0  0  0  0  0  0  0  0
  -52.1359  -30.0049    4.0138 H   0  0  0  0  0  0  0  0  0  0  0  0
  -49.3342  -29.9522    7.2931 H   0  0  0  0  0  0  0  0  0  0  0  0
  -41.8218  -29.8602    1.2882 H   0  0  0  0  0  0  0  0  0  0  0  0
  -43.4289  -31.7011    1.7432 H   0  0  0  0  0  0  0  0  0  0  0  0
  -46.7691  -29.0648    0.9248 H   0  0  0  0  0  0  0  0  0  0  0  0
  -46.5861  -29.6076    3.8174 H   0  0  0  0  0  0  0  0  0  0  0  0
  -50.5103  -31.2390    3.0793 H   0  0  0  0  0  0  0  0  0  0  0  0
  -46.4102  -33.6596    1.5857 H   0  0  0  0  0  0  0  0  0  0  0  0
  -44.7669  -33.1671    1.9952 H   0  0  0  0  0  0  0  0  0  0  0  0
  -41.7503  -27.1532    0.5522 H   0  0  0  0  0  0  0  0  0  0  0  0
  -45.8950  -26.4841    0.2469 H   0  0  0  0  0  0  0  0  0  0  0  0
  1  3  1  0  0  0  0
  1  4  2  0  0  0  0
  2  5  1  0  0  0  0
  2  6  2  0  0  0  0
  3  7  2  0  0  0  0
  4  8  1  0  0  0  0
  5  9  2  0  0  0  0
  6 10  1  0  0  0  0
  7 16  1  0  0  0  0
  8 16  2  0  0  0  0
  9 17  1  0  0  0  0
 10 17  2  0  0  0  0
 11 12  2  0  0  0  0
 11 18  1  0  0  0  0
 12 20  1  0  0  0  0
 13 19  1  0  0  0  0
 13 20  2  0  0  0  0
 14 21  1  0  0  0  0
 14 24  2  0  0  0  0
 15 21  2  0  0  0  0
 15 25  1  0  0  0  0
 16 23  1  0  0  0  0
 17 25  1  0  0  0  0
 18 19  2  0  0  0  0
 18 26  1  0  0  0  0
 19 27  1  0  0  0  0
 20 28  1  0  0  0  0
 21 32  1  0  0  0  0
 22 26  1  0  0  0  0
 22 27  1  0  0  0  0
 22 29  2  0  0  0  0
 23 28  1  0  0  0  0
 24 25  1  0  0  0  0
 28 32  1  0  0  0  0
 30 32  2  0  0  0  0
 31 32  2  0  0  0  0
  1 33  1  0  0  0  0
  2 34  1  0  0  0  0
  3 35  1  0  0  0  0
  4 36  1  0  0  0  0
  5 37  1  0  0  0  0
  6 38  1  0  0  0  0
  7 39  1  0  0  0  0
  8 40  1  0  0  0  0
  9 41  1  0  0  0  0
 10 42  1  0  0  0  0
 11 43  1  0  0  0  0
 12 44  1  0  0  0  0
 13 45  1  0  0  0  0
 14 46  1  0  0  0  0
 15 47  1  0  0  0  0
 23 48  1  0  0  0  0
 23 49  1  0  0  0  0
 26 50  1  0  0  0  0
 27 51  1  0  0  0  0
M  END
> <POSIT::Probability>
0.02

> <POSIT::Method>
FRED

> <ReceptorTitle>
UCSF-P4622-REFINED_LIGAND-BOUND-STATE_A__DU__LA1_A-201(A)

> <OMEGA_C>
GeExwhWZBcIKPTLAO+RSwpfh7cHwI+tAqiA3wgaoBsJCHBnAWx0uwrb2A8Jcieu/POpTwumF7sEo
Vr9AkqNNwpRH7sEdGvpAYpw4wu4UBsIiEoe/Epkvwp5jA8LwxQC/7a9PwpGP78EMgKJAQmlJwjpR
78EDRN1AdI4rwk+H7cFj/Jo/7zYvwmy/9cFtZLs/5882ws/16cF+0YA/fns+wphY78GkoXZAYm5G
woIc9sHcSFxAldg0wopyBMIADeK9N29Kwo7178GWdrFA/qYtwnS948HgmFw/+iIzwu7/4cE0FUM/
vsc0wjL988HJfa4/UGlBwpgp9cFsVzlAd+ouwhBC0sEYBoM++HA2wv3TA8KFI6o/2GVBwtjH7MHi
oJ1AYDZGwjEB8cHoq5RAVwUrwns22sHIVg4/WfkzwuRe18GAOMk+JmM4wkqY/MEVnNA/ChYuwvXy
yMFAaWi9NrM/wmqK8cG40b4+h+1BwrEXAsKgYI0/gCU/wogp+sEnC6s/b7kwwokLBsK423TA8C5W
wrQQ7cH3ygBBHQ86wjLuB8I5L0jARQcqwoEjA8I4UgnAswBYwmMy7sFfpLNAC9ZMws7F7cEwGQ5B
pbU8wkPqBsI0QUK/qaIswiEeAsLAd2c+KotQwhYK8MH3cIBALlZFwiKe78F8YelAh0knwpvh7sFr
5KQ/LLctwsqb/cF+IN8/ihM7wrGE6MHswGw/I1g6wkzc7MGdUHRAhgpKwmzp+cGOE0VACaQ5wmKj
BsJe+co/TBEzwiarBMKQYf8/SQAnwrQ52cFQXg0/e5Q3wnLf08EQ2nw+

> <OMEGA_E>
6ycTwQ==

> <OMEGA_NBR>
     91419

$$$$
CACHE3-HO_1705_31
  -OEChem-03092622533D

 39 41  0     1  0  0  0  0  0999 V2000
  -48.8431  -28.9962    3.2925 C   0  0  0  0  0  0  0  0  0  0  0  0
  -50.2169  -28.9997    3.5745 C   0  0  0  0  0  0  0  0  0  0  0  0
  -47.9288  -28.9676    4.3687 C   0  0  0  0  0  0  0  0  0  0  0  0
  -48.4396  -28.9433    5.6955 C   0  0  0  0  0  0  0  0  0  0  0  0
  -50.6476  -28.9627    4.9159 C   0  0  0  0  0  0  0  0  0  0  0  0
  -45.6277  -28.9901    5.2755 C   0  0  0  0  0  0  0  0  0  0  0  0
  -46.4546  -28.9717    4.1617 C   0  0  0  0  0  0  0  0  0  0  0  0
  -46.1967  -28.9994    6.6211 C   0  0  0  0  0  0  0  0  0  0  0  0
  -44.4656  -32.9424    1.8996 C   0  0  0  0  0  0  0  0  0  0  0  0
  -42.9134  -31.3045    2.2357 C   0  0  0  0  0  0  0  0  0  0  0  0
  -45.1974  -31.6530    1.5094 C   0  0  1  0  0  0  0  0  0  0  0  0
  -44.1611  -30.5379    1.7799 C   0  0  1  0  0  0  0  0  0  0  0  0
  -45.8425  -28.9607    2.7661 C   0  0  0  0  0  0  0  0  0  0  0  0
  -45.5630  -31.6345    0.0157 C   0  0  0  0  0  0  0  0  0  0  0  0
  -49.7674  -28.9360    5.9409 N   0  0  0  0  0  0  0  0  0  0  0  0
  -47.5702  -28.9421    6.7869 N   0  0  0  0  0  0  0  0  0  0  0  0
  -52.0034  -28.9448    5.1968 N   0  0  0  0  0  0  0  0  0  0  0  0
  -44.5198  -29.6167    2.8605 N   0  0  0  0  0  0  0  0  0  0  0  0
  -45.4539  -29.0185    7.5934 O   0  0  0  0  0  0  0  0  0  0  0  0
  -43.0763  -32.6376    1.7315 O   0  0  0  0  0  0  0  0  0  0  0  0
  -46.4690  -32.6890   -0.2719 O   0  0  0  0  0  0  0  0  0  0  0  0
  -48.4909  -29.0149    2.2717 H   0  0  0  0  0  0  0  0  0  0  0  0
  -50.9381  -29.0306    2.7711 H   0  0  0  0  0  0  0  0  0  0  0  0
  -44.5554  -28.9975    5.1468 H   0  0  0  0  0  0  0  0  0  0  0  0
  -44.6803  -33.2091    2.9450 H   0  0  0  0  0  0  0  0  0  0  0  0
  -44.7631  -33.7718    1.2411 H   0  0  0  0  0  0  0  0  0  0  0  0
  -42.0057  -30.8440    1.8184 H   0  0  0  0  0  0  0  0  0  0  0  0
  -42.8481  -31.3142    3.3337 H   0  0  0  0  0  0  0  0  0  0  0  0
  -46.0931  -31.5086    2.1314 H   0  0  0  0  0  0  0  0  0  0  0  0
  -43.9486  -29.9912    0.8493 H   0  0  0  0  0  0  0  0  0  0  0  0
  -46.4879  -29.5135    2.0677 H   0  0  0  0  0  0  0  0  0  0  0  0
  -45.7247  -27.9249    2.4150 H   0  0  0  0  0  0  0  0  0  0  0  0
  -46.0329  -30.6716   -0.2331 H   0  0  0  0  0  0  0  0  0  0  0  0
  -44.6505  -31.7633   -0.5849 H   0  0  0  0  0  0  0  0  0  0  0  0
  -47.9484  -28.8989    7.7116 H   0  0  0  0  0  0  0  0  0  0  0  0
  -52.1387  -28.9125    6.1871 H   0  0  0  0  0  0  0  0  0  0  0  0
  -52.4200  -28.1385    4.7771 H   0  0  0  0  0  0  0  0  0  0  0  0
  -44.4981  -30.1322    3.7171 H   0  0  0  0  0  0  0  0  0  0  0  0
  -46.6914  -32.6730   -1.1953 H   0  0  0  0  0  0  0  0  0  0  0  0
  1  2  1  0  0  0  0
  1  3  2  0  0  0  0
  2  5  2  0  0  0  0
  3  4  1  0  0  0  0
  3  7  1  0  0  0  0
  4 15  2  0  0  0  0
  4 16  1  0  0  0  0
  5 15  1  0  0  0  0
  5 17  1  0  0  0  0
  6  7  2  0  0  0  0
  6  8  1  0  0  0  0
  7 13  1  0  0  0  0
  8 16  1  0  0  0  0
  8 19  2  0  0  0  0
  9 11  1  0  0  0  0
  9 20  1  0  0  0  0
 10 12  1  0  0  0  0
 10 20  1  0  0  0  0
 11 12  1  0  0  0  0
 11 14  1  0  0  0  0
 12 18  1  0  0  0  0
 13 18  1  0  0  0  0
 14 21  1  0  0  0  0
  1 22  1  0  0  0  0
  2 23  1  0  0  0  0
  6 24  1  0  0  0  0
  9 25  1  0  0  0  0
  9 26  1  0  0  0  0
 10 27  1  0  0  0  0
 10 28  1  0  0  0  0
 11 29  1  0  0  0  0
 12 30  1  0  0  0  0
 13 31  1  0  0  0  0
 13 32  1  0  0  0  0
 14 33  1  0  0  0  0
 14 34  1  0  0  0  0
 16 35  1  0  0  0  0
 17 36  1  0  0  0  0
 17 37  1  0  0  0  0
 18 38  1  0  0  0  0
 21 39  1  0  0  0  0
M  END
> <POSIT::Probability>
0.72

> <POSIT::Method>
SHAPEFIT

> <ReceptorTitle>
UCSF-P4626-REFINED_LIGAND-BOUND-STATE_AALTB__DU__LA1_A-201(A)

> <OMEGA_C>
Ul9DwiD458GVt1JAFN5IwnP/58EbxGRAFbc/wrW958FKzItAK8JBwuKL58FgQbZAI5dKwq2z58Em
T51Au4I2wqDr58GA0KhAj9E5wh/G58GULIVAcMk4wrn+58EM4NNAvNwxwg7FA8KuJvM/Uacrwohv
+sEhFQ9AK8o0wkY5/cEaNME/+qQwwppN9MEe0+M/tV43woSv58GBCDFAf0A2wnwT/cEA44A82BFH
wvh858EAHL5A6kc+wnWJ58F8LtlAewNQwguP58FATKZAOhQywg/v7MFJEjdA1dA1wtAl6MFc/fJA
Kk4swuyMAsJWoN0/Q+A5woTBAsL4Mou+r/ZBwm4e6MHqYhFAlcBLwpI+6MF7WjFAtTgywtH658Hz
sqRAqbgywiXWBMJOejxAcw0zwkYWB8JU254/2AUowpPA9sFuweg/bGQrwmmD+sEEW1VAW184wpUR
/MEGaQhAaMsvwuTt78EtbVk/j/M5wr4b7MGoVARAH+Y2wkRm38H3jhpApiE4wllf9cGhuG6+H5oy
wlcb/sGbvRW/M8s/wtkw58G1xfZAEI5QwtVM58GQ/MVAIK5Rwp8b4cGj3ZhADv4xwrsO8cFs5W1A
+sM6wiKxAsLqAJm/

> <OMEGA_E>
HBNOPw==

> <OMEGA_NBR>
      1316

$$$$
CACHE3-HO_1708_39
  -OEChem-03092622533D

 36 39  0     1  0  0  0  0  0999 V2000
  -49.5859  -28.7871    3.1261 C   0  0  0  0  0  0  0  0  0  0  0  0
  -50.4077  -28.7722    4.2805 C   0  0  0  0  0  0  0  0  0  0  0  0
  -48.1840  -28.9044    3.2503 C   0  0  0  0  0  0  0  0  0  0  0  0
  -49.8373  -28.8736    5.5702 C   0  0  0  0  0  0  0  0  0  0  0  0
  -43.9378  -29.2684    6.3469 C   0  0  0  0  0  0  0  0  0  0  0  0
  -47.6449  -29.0057    4.5485 C   0  0  0  0  0  0  0  0  0  0  0  0
  -46.2616  -29.1202    4.9936 C   0  0  0  0  0  0  0  0  0  0  0  0
  -48.4422  -28.9892    5.6967 C   0  0  0  0  0  0  0  0  0  0  0  0
  -46.2672  -29.1722    6.3856 C   0  0  0  0  0  0  0  0  0  0  0  0
  -45.0548  -29.1418    4.2775 C   0  0  0  0  0  0  0  0  0  0  0  0
  -44.6173  -31.3472    0.9413 C   0  0  0  0  0  0  0  0  0  0  0  0
  -44.1480  -32.7970    1.0162 C   0  0  0  0  0  0  0  0  0  0  0  0
  -43.1157  -31.5861    2.7580 C   0  0  0  0  0  0  0  0  0  0  0  0
  -43.4715  -30.6218    1.6222 C   0  0  2  0  0  0  0  0  0  0  0  0
  -43.8132  -29.1836    2.0667 C   0  0  0  0  0  0  0  0  0  0  0  0
  -45.0996  -29.2559    7.0545 N   0  0  0  0  0  0  0  0  0  0  0  0
  -43.8979  -29.2035    4.9867 N   0  0  0  0  0  0  0  0  0  0  0  0
  -47.5970  -29.0959    6.8047 N   0  0  0  0  0  0  0  0  0  0  0  0
  -45.0462  -29.0985    2.8864 N   0  0  0  0  0  0  0  0  0  0  0  0
  -43.3564  -32.9150    2.2319 O   0  0  0  0  0  0  0  0  0  0  0  0
  -50.0338  -28.7083    2.1466 H   0  0  0  0  0  0  0  0  0  0  0  0
  -51.4788  -28.6827    4.1741 H   0  0  0  0  0  0  0  0  0  0  0  0
  -47.5460  -28.9162    2.3790 H   0  0  0  0  0  0  0  0  0  0  0  0
  -50.4663  -28.8622    6.4481 H   0  0  0  0  0  0  0  0  0  0  0  0
  -43.0052  -29.3326    6.8878 H   0  0  0  0  0  0  0  0  0  0  0  0
  -44.7384  -31.0176   -0.1011 H   0  0  0  0  0  0  0  0  0  0  0  0
  -45.5632  -31.2027    1.4838 H   0  0  0  0  0  0  0  0  0  0  0  0
  -45.0136  -33.4745    1.0596 H   0  0  0  0  0  0  0  0  0  0  0  0
  -43.5335  -33.0430    0.1377 H   0  0  0  0  0  0  0  0  0  0  0  0
  -42.0592  -31.4713    3.0421 H   0  0  0  0  0  0  0  0  0  0  0  0
  -43.7535  -31.3989    3.6344 H   0  0  0  0  0  0  0  0  0  0  0  0
  -42.6214  -30.5754    0.9257 H   0  0  0  0  0  0  0  0  0  0  0  0
  -42.9728  -28.7926    2.6591 H   0  0  0  0  0  0  0  0  0  0  0  0
  -43.9482  -28.5635    1.1681 H   0  0  0  0  0  0  0  0  0  0  0  0
  -47.9000  -29.1148    7.7575 H   0  0  0  0  0  0  0  0  0  0  0  0
  -45.6249  -29.8572    2.5870 H   0  0  0  0  0  0  0  0  0  0  0  0
  1  2  1  0  0  0  0
  1  3  2  0  0  0  0
  2  4  2  0  0  0  0
  3  6  1  0  0  0  0
  4  8  1  0  0  0  0
  5 16  1  0  0  0  0
  5 17  2  0  0  0  0
  6  7  1  0  0  0  0
  6  8  2  0  0  0  0
  7  9  1  0  0  0  0
  7 10  2  0  0  0  0
  8 18  1  0  0  0  0
  9 16  2  0  0  0  0
  9 18  1  0  0  0  0
 10 17  1  0  0  0  0
 10 19  1  0  0  0  0
 11 12  1  0  0  0  0
 11 14  1  0  0  0  0
 12 20  1  0  0  0  0
 13 14  1  0  0  0  0
 13 20  1  0  0  0  0
 14 15  1  0  0  0  0
 15 19  1  0  0  0  0
  1 21  1  0  0  0  0
  2 22  1  0  0  0  0
  3 23  1  0  0  0  0
  4 24  1  0  0  0  0
  5 25  1  0  0  0  0
 11 26  1  0  0  0  0
 11 27  1  0  0  0  0
 12 28  1  0  0  0  0
 12 29  1  0  0  0  0
 13 30  1  0  0  0  0
 13 31  1  0  0  0  0
 14 32  1  0  0  0  0
 15 33  1  0  0  0  0
 15 34  1  0  0  0  0
 18 35  1  0  0  0  0
 19 36  1  0  0  0  0
M  END
> <POSIT::Probability>
0.94

> <POSIT::Method>
SHAPEFIT

> <ReceptorTitle>
UCSF-P4626-REFINED_LIGAND-BOUND-STATE_AALTB__DU__LA1_A-201(A)

> <OMEGA_C>
8FdGwvFL5sGjEkhAiKFJwoIt5sGg+YhAaLxAwkY858GGBVBAb1lHwg395sFMP7JAVcAvwqgl6sHg
GctAY5Q+wrIL6MGQjZFA4ws5wij26MGly59Az8RBwujp58FDS7ZAlxE5wp1g6cH4VsxAGTg0woAi
6cGJ4YhAFHgywiTH+sG6+HA/j5cwwigwA8I1E4I/enYswkKw/MF2gjBA2eItwlr59MHfpM8/sEAv
wu536cFwRARACmY0wgwM6sGovuFAepcvwr6g6cHkkp9AUGM+wl/E6MEAwNlAUy80wsrJ6MFqujhA
9Gwtwu+oA8IS2A5AnCJIwoyq5cFgYQlAQupNwkB25cGekoVADi8+wlJU58EWQhhAgd1Jwt3l5sHV
Vs5AVwUswkSp6sF0aNxAHvQywh0k+MH8Js+9tEA2wh6f+cH87b0/5Q00wtvlBcKTn4c/SCIuwhMs
BMJp+Qw+qjwowi/F+8F+sUJAnAMvwt0w+8HwmWhAWXwqwmOa9MGQ+Gw/KOQrwkFX5sF2LipA6sov
wiGC5MHjhZU/oZk/whjr6MFAPfhA3H82wnPb7sGekCVA

> <OMEGA_E>
YO0wPg==

> <OMEGA_NBR>
      2571

$$$$
CACHE3-HO_1715_35
  -OEChem-03092622533D

 30 33  0     0  0  0  0  0  0999 V2000
  -48.2186  -29.3512    3.2078 C   0  0  0  0  0  0  0  0  0  0  0  0
  -49.6259  -29.2096    3.1092 C   0  0  0  0  0  0  0  0  0  0  0  0
  -49.8018  -28.9536    5.5381 C   0  0  0  0  0  0  0  0  0  0  0  0
  -43.9110  -29.2220    6.3493 C   0  0  0  0  0  0  0  0  0  0  0  0
  -47.6269  -29.2802    4.4866 C   0  0  0  0  0  0  0  0  0  0  0  0
  -46.2131  -29.3206    4.9268 C   0  0  0  0  0  0  0  0  0  0  0  0
  -48.4047  -29.0544    5.6317 C   0  0  0  0  0  0  0  0  0  0  0  0
  -50.4153  -29.0271    4.2728 C   0  0  0  0  0  0  0  0  0  0  0  0
  -46.2269  -29.0570    6.3025 C   0  0  0  0  0  0  0  0  0  0  0  0
  -44.9824  -29.6642    4.2939 C   0  0  0  0  0  0  0  0  0  0  0  0
  -44.7844  -31.0576    0.8640 C   0  0  0  0  0  0  0  0  0  0  0  0
  -44.1937  -32.0727    1.5880 C   0  0  0  0  0  0  0  0  0  0  0  0
  -44.8921  -29.8452    1.7672 C   0  0  0  0  0  0  0  0  0  0  0  0
  -43.9750  -31.5595    2.9883 C   0  0  0  0  0  0  0  0  0  0  0  0
  -45.0798  -29.0200    7.0008 N   0  0  0  0  0  0  0  0  0  0  0  0
  -43.8483  -29.5686    5.0374 N   0  0  0  0  0  0  0  0  0  0  0  0
  -47.5492  -28.9453    6.7175 N   0  0  0  0  0  0  0  0  0  0  0  0
  -44.9076  -30.4158    3.1157 N   0  0  0  0  0  0  0  0  0  0  0  0
  -51.7608  -28.9164    4.1794 F   0  0  0  0  0  0  0  0  0  0  0  0
  -47.6149  -29.5096    2.3263 H   0  0  0  0  0  0  0  0  0  0  0  0
  -50.1005  -29.2408    2.1397 H   0  0  0  0  0  0  0  0  0  0  0  0
  -50.3999  -28.8210    6.4275 H   0  0  0  0  0  0  0  0  0  0  0  0
  -42.9875  -29.1023    6.8964 H   0  0  0  0  0  0  0  0  0  0  0  0
  -45.1118  -31.1164   -0.1635 H   0  0  0  0  0  0  0  0  0  0  0  0
  -43.9354  -33.0544    1.2193 H   0  0  0  0  0  0  0  0  0  0  0  0
  -44.0273  -29.1786    1.6335 H   0  0  0  0  0  0  0  0  0  0  0  0
  -45.8190  -29.2879    1.5667 H   0  0  0  0  0  0  0  0  0  0  0  0
  -44.2114  -32.3379    3.7287 H   0  0  0  0  0  0  0  0  0  0  0  0
  -42.9344  -31.2293    3.1230 H   0  0  0  0  0  0  0  0  0  0  0  0
  -47.8415  -28.8062    7.6637 H   0  0  0  0  0  0  0  0  0  0  0  0
  1  2  1  0  0  0  0
  1  5  2  0  0  0  0
  2  8  2  0  0  0  0
  3  7  2  0  0  0  0
  3  8  1  0  0  0  0
  4 15  1  0  0  0  0
  4 16  2  0  0  0  0
  5  6  1  0  0  0  0
  5  7  1  0  0  0  0
  6  9  1  0  0  0  0
  6 10  2  0  0  0  0
  7 17  1  0  0  0  0
  8 19  1  0  0  0  0
  9 15  2  0  0  0  0
  9 17  1  0  0  0  0
 10 16  1  0  0  0  0
 10 18  1  0  0  0  0
 11 12  2  0  0  0  0
 11 13  1  0  0  0  0
 12 14  1  0  0  0  0
 13 18  1  0  0  0  0
 14 18  1  0  0  0  0
  1 20  1  0  0  0  0
  2 21  1  0  0  0  0
  3 22  1  0  0  0  0
  4 23  1  0  0  0  0
 11 24  1  0  0  0  0
 12 25  1  0  0  0  0
 13 26  1  0  0  0  0
 13 27  1  0  0  0  0
 14 28  1  0  0  0  0
 14 29  1  0  0  0  0
 17 30  1  0  0  0  0
M  END
> <POSIT::Probability>
0.72

> <POSIT::Method>
SHAPEFIT

> <ReceptorTitle>
UCSF-P4626-REFINED_LIGAND-BOUND-STATE_AALTB__DU__LA1_A-201(A)

> <OMEGA_C>
1t9AwlrP6sHmS01A34BGwiqt6cGy/UZAADVHwgeh58HTN7FA06QvwpbG6cEmLctA5YE+wsM96sHU
kY9AN9o4wqGQ6sGiqJ1AaZ5BwnZv6MH2NrRAOKlJwpg36MG5uohAWOg4wrB06METrslAB+4zwltQ
7cG8Z4lANiMzwuR1+MHxLl0/TsYwwm1KAMLURMs/eJEzwuXC7sHVNOI/Z+Yvwup5/MH0Pz9Av1E0
wuIo6MF/BuBApGQvwpCM7MFXMqFAYjI+wvKP58Hp9dZAWKEzwpdT88GwZ0dAAwtPwsVU58EJvoVA
s3U+wpoT7MFW4hRA9mZIwjft6cEa8AhAh5lJwnyR5sGvrc1AN/Mrwn3R6MEJr9xAe3I0wlzu+MFa
aye+4r0vwrE3BMLbEZw/9Bswwsdt6cEGF9E/q0Y3wqdN6sE0iMg/dtgwwg1aAcK0om5A3bwrwoXV
+cHL3kdAp10/wgFz5sHnPPVA

> <OMEGA_E>
iC8CPw==

> <OMEGA_NBR>
      3701

$$$$
CACHE3HI_1687_1
  -OEChem-03092622533D

 32 35  0     0  0  0  0  0  0999 V2000
  -46.0927  -31.4942   -0.6599 C   0  0  0  0  0  0  0  0  0  0  0  0
  -46.1887  -32.7605   -1.2457 C   0  0  0  0  0  0  0  0  0  0  0  0
  -45.2838  -29.3657    3.8672 C   0  0  0  0  0  0  0  0  0  0  0  0
  -44.0146  -33.4142   -0.3592 C   0  0  0  0  0  0  0  0  0  0  0  0
  -42.9281  -31.4861    1.0385 C   0  0  0  0  0  0  0  0  0  0  0  0
  -47.8414  -29.1662    4.4101 C   0  0  0  0  0  0  0  0  0  0  0  0
  -44.0813  -29.2504    5.9399 C   0  0  0  0  0  0  0  0  0  0  0  0
  -46.4508  -29.2287    4.6286 C   0  0  0  0  0  0  0  0  0  0  0  0
  -43.8983  -32.1472    0.2394 C   0  0  0  0  0  0  0  0  0  0  0  0
  -44.0699  -29.3754    4.5552 C   0  0  0  0  0  0  0  0  0  0  0  0
  -44.9344  -31.2345    0.0703 C   0  0  0  0  0  0  0  0  0  0  0  0
  -45.1694  -33.7049   -1.0999 C   0  0  0  0  0  0  0  0  0  0  0  0
  -46.3195  -29.1133    6.0035 C   0  0  0  0  0  0  0  0  0  0  0  0
  -43.4307  -30.2327    1.2993 C   0  0  0  0  0  0  0  0  0  0  0  0
  -45.1810  -29.1160    6.7194 N   0  0  0  0  0  0  0  0  0  0  0  0
  -48.5374  -29.0238    5.5432 N   0  0  0  0  0  0  0  0  0  0  0  0
  -47.5865  -28.9944    6.4936 N   0  0  0  0  0  0  0  0  0  0  0  0
  -42.8280  -29.5115    3.8431 N   0  0  0  0  0  0  0  0  0  0  0  0
  -43.6359  -27.7774    2.1112 O   0  0  0  0  0  0  0  0  0  0  0  0
  -41.3436  -28.7642    1.8400 O   0  0  0  0  0  0  0  0  0  0  0  0
  -44.6470  -30.0697    0.7163 O   0  0  0  0  0  0  0  0  0  0  0  0
  -45.2963  -34.9084   -1.6759 F   0  0  0  0  0  0  0  0  0  0  0  0
  -42.7291  -28.9018    2.2407 S   0  0  0  0  0  0  0  0  0  0  0  0
  -46.8787  -30.7565   -0.7696 H   0  0  0  0  0  0  0  0  0  0  0  0
  -47.0722  -33.0135   -1.8261 H   0  0  0  0  0  0  0  0  0  0  0  0
  -45.3239  -29.4603    2.7866 H   0  0  0  0  0  0  0  0  0  0  0  0
  -43.2311  -34.1585   -0.2547 H   0  0  0  0  0  0  0  0  0  0  0  0
  -41.9805  -31.8787    1.3799 H   0  0  0  0  0  0  0  0  0  0  0  0
  -48.3787  -29.2184    3.4739 H   0  0  0  0  0  0  0  0  0  0  0  0
  -43.1475  -29.2558    6.4976 H   0  0  0  0  0  0  0  0  0  0  0  0
  -47.8738  -28.8920    7.4589 H   0  0  0  0  0  0  0  0  0  0  0  0
  -42.3201  -30.3869    4.0253 H   0  0  0  0  0  0  0  0  0  0  0  0
  1  2  1  0  0  0  0
  1 11  2  0  0  0  0
  2 12  2  0  0  0  0
  3  8  2  0  0  0  0
  3 10  1  0  0  0  0
  4  9  2  0  0  0  0
  4 12  1  0  0  0  0
  5  9  1  0  0  0  0
  5 14  2  0  0  0  0
  6  8  1  0  0  0  0
  6 16  2  0  0  0  0
  7 10  2  0  0  0  0
  7 15  1  0  0  0  0
  8 13  1  0  0  0  0
  9 11  1  0  0  0  0
 10 18  1  0  0  0  0
 11 21  1  0  0  0  0
 12 22  1  0  0  0  0
 13 15  2  0  0  0  0
 13 17  1  0  0  0  0
 14 21  1  0  0  0  0
 14 23  1  0  0  0  0
 16 17  1  0  0  0  0
 18 23  1  0  0  0  0
 19 23  2  0  0  0  0
 20 23  2  0  0  0  0
  1 24  1  0  0  0  0
  2 25  1  0  0  0  0
  3 26  1  0  0  0  0
  4 27  1  0  0  0  0
  5 28  1  0  0  0  0
  6 29  1  0  0  0  0
  7 30  1  0  0  0  0
 17 31  1  0  0  0  0
 18 32  1  0  0  0  0
M  END
> <POSIT::Probability>
0.19

> <POSIT::Method>
FRED

> <ReceptorTitle>
UCSF-P4626-REFINED_LIGAND-BOUND-STATE_AALTB__DU__LA1_A-201(A)

> <OMEGA_C>
+V44wi30+8Go8Ci/QsE4wrgKA8IQcp+/kCI1wtzs6sFigHdA+A4wwiCoBcKA7be+YrYrwonj+8EW
7oQ/o10/wm9U6cHeH41AR1MwwtAA6sGXE75Aks05wlDU6cElHZRA5ZcvwrWWAMJgInU+iUcwwsEA
68ElxJFAx7wzwirg+cHA5I89hK00wszRBsJMyYy/MEc5wg/o6MEUHcBAE7ktwo/c8cECT6Y/Y7k0
wpnt6MG7BddARyZCwsUw6ME7YrFAj1g+woL058Gby89A308rwp4X7MGO9HVALosuwhs43sF8HQdA
2F8lwvwc5sG2hes/kZYywsGO8MHoXDc/ZC81wiiiC8JQg9a/nOoqwtQ258H8Zw9A1IM7wk4N9sG4
BEW/8Ek8wuANBMJIvum/uEs1wq6u68EeWDJApewswkWiCMKwZ4K+BuwnwoUH/8HsobA/0oNBwky/
6cGWVF5AFJcswvoL6sF07M9AvX4/wtoi58FSr+5A1UcpwmgY88H2zoBA

> <OMEGA_E>
Nt8RwQ==

> <OMEGA_NBR>
      4842

$$$$
CACHE3HI_1687_25
  -OEChem-03092622533D

 37 40  0     0  0  0  0  0  0999 V2000
  -46.3795  -28.6495   -0.0129 C   0  0  0  0  0  0  0  0  0  0  0  0
  -46.7699  -27.4665   -0.6485 C   0  0  0  0  0  0  0  0  0  0  0  0
  -44.7577  -26.3146    0.1026 C   0  0  0  0  0  0  0  0  0  0  0  0
  -43.2246  -27.8883    1.5255 C   0  0  0  0  0  0  0  0  0  0  0  0
  -44.9658  -29.1465    4.0972 C   0  0  0  0  0  0  0  0  0  0  0  0
  -44.1334  -29.5106    6.2936 C   0  0  0  0  0  0  0  0  0  0  0  0
  -44.3456  -27.4941    0.7477 C   0  0  0  0  0  0  0  0  0  0  0  0
  -46.2350  -28.9432    4.6404 C   0  0  0  0  0  0  0  0  0  0  0  0
  -43.8921  -29.4321    4.9324 C   0  0  0  0  0  0  0  0  0  0  0  0
  -45.1648  -28.6155    0.6696 C   0  0  0  0  0  0  0  0  0  0  0  0
  -45.9756  -26.3185   -0.5928 C   0  0  0  0  0  0  0  0  0  0  0  0
  -46.3786  -29.0591    6.0247 C   0  0  0  0  0  0  0  0  0  0  0  0
  -43.4328  -29.2049    1.8644 C   0  0  0  0  0  0  0  0  0  0  0  0
  -47.4233  -28.6736    3.7602 C   0  0  0  0  0  0  0  0  0  0  0  0
  -47.7253  -28.8166    6.6512 C   0  0  0  0  0  0  0  0  0  0  0  0
  -48.8404  -28.9926    5.6291 C   0  0  0  0  0  0  0  0  0  0  0  0
  -45.3471  -29.3287    6.8606 N   0  0  0  0  0  0  0  0  0  0  0  0
  -42.5853  -29.6402    4.4043 N   0  0  0  0  0  0  0  0  0  0  0  0
  -41.0567  -30.1172    2.3660 O   0  0  0  0  0  0  0  0  0  0  0  0
  -43.0282  -31.6183    2.7684 O   0  0  0  0  0  0  0  0  0  0  0  0
  -44.6069  -29.6556    1.3505 O   0  0  0  0  0  0  0  0  0  0  0  0
  -48.5583  -28.1838    4.4859 O   0  0  0  0  0  0  0  0  0  0  0  0
  -46.3822  -25.2027   -1.2140 F   0  0  0  0  0  0  0  0  0  0  0  0
  -42.4231  -30.3013    2.8197 S   0  0  0  0  0  0  0  0  0  0  0  0
  -46.9909  -29.5432   -0.0510 H   0  0  0  0  0  0  0  0  0  0  0  0
  -47.7094  -27.4399   -1.1944 H   0  0  0  0  0  0  0  0  0  0  0  0
  -44.1512  -25.4147    0.1368 H   0  0  0  0  0  0  0  0  0  0  0  0
  -42.3722  -27.2839    1.8026 H   0  0  0  0  0  0  0  0  0  0  0  0
  -44.8191  -29.0826    3.0215 H   0  0  0  0  0  0  0  0  0  0  0  0
  -43.3342  -29.7288    6.9957 H   0  0  0  0  0  0  0  0  0  0  0  0
  -47.1714  -27.9148    3.0117 H   0  0  0  0  0  0  0  0  0  0  0  0
  -47.7137  -29.5911    3.2350 H   0  0  0  0  0  0  0  0  0  0  0  0
  -47.8802  -29.4934    7.4981 H   0  0  0  0  0  0  0  0  0  0  0  0
  -47.7310  -27.7867    7.0275 H   0  0  0  0  0  0  0  0  0  0  0  0
  -48.9577  -30.0395    5.3233 H   0  0  0  0  0  0  0  0  0  0  0  0
  -49.7929  -28.6603    6.0537 H   0  0  0  0  0  0  0  0  0  0  0  0
  -41.8849  -28.9221    4.6551 H   0  0  0  0  0  0  0  0  0  0  0  0
  1  2  1  0  0  0  0
  1 10  2  0  0  0  0
  2 11  2  0  0  0  0
  3  7  2  0  0  0  0
  3 11  1  0  0  0  0
  4  7  1  0  0  0  0
  4 13  2  0  0  0  0
  5  8  2  0  0  0  0
  5  9  1  0  0  0  0
  6  9  2  0  0  0  0
  6 17  1  0  0  0  0
  7 10  1  0  0  0  0
  8 12  1  0  0  0  0
  8 14  1  0  0  0  0
  9 18  1  0  0  0  0
 10 21  1  0  0  0  0
 11 23  1  0  0  0  0
 12 15  1  0  0  0  0
 12 17  2  0  0  0  0
 13 21  1  0  0  0  0
 13 24  1  0  0  0  0
 14 22  1  0  0  0  0
 15 16  1  0  0  0  0
 16 22  1  0  0  0  0
 18 24  1  0  0  0  0
 19 24  2  0  0  0  0
 20 24  2  0  0  0  0
  1 25  1  0  0  0  0
  2 26  1  0  0  0  0
  3 27  1  0  0  0  0
  4 28  1  0  0  0  0
  5 29  1  0  0  0  0
  6 30  1  0  0  0  0
 14 31  1  0  0  0  0
 14 32  1  0  0  0  0
 15 33  1  0  0  0  0
 15 34  1  0  0  0  0
 16 35  1  0  0  0  0
 16 36  1  0  0  0  0
 18 37  1  0  0  0  0
M  END
> <POSIT::Probability>
0.23

> <POSIT::Method>
HYBRID

> <ReceptorTitle>
UCSF-P4626_LA2_MERGED(A)

> <OMEGA_C>
pYQ5wiIy5cEAIlS8ZRQ7wnC728F4ASa/7gczwkiE0sFAItI9AeYswkMb38GMQ8M/7twzwhYs6cGh
HINAmogwwp4V7MGRZclA4GExwtrz28EsaT8/pvA4wsaL58ETfpRAfZEvwuR068FO1p1AyKg0wqTs
5MGEais/+OY3wkKM0sEYxBe/q4M5wgR56MGgysBAJrstwrqj6cEoo+4/e7E9woJj5cFpp3BAtuY+
wn6I5sGH1tRAj1xDwtTw58HiIbRAZWM1wjyh6sFjittAVlcqwhEf7cHU74xABTokwg7w8MH1bBdA
2Rwswjjy/MFzLTFAgW0ywqg+7cHw26w/rDtCwlV44cGdjI9AaIc5wiqfycGwZZu/TbEpwhZp8sG0
djRAtfY7wpFY7MGAt1C9d9Y+wuOE28Fs45i/2JowwmBRy8HADQw+LX0pwmpF2sEUvOY/uUYzwkSp
6MHoYEFALlYtwpDU7cFs3N9AiK88wpBR38FNwEBA0No+woy67MH8Ck9AUYU/wn7y68E+8O9AhOw+
whVL3sEb4eBApdRDwvpQ8MHVWKpA7ytHwlZI5cHst8FAL4onwn5g58Hy9pRA

> <OMEGA_E>
lP/1wA==

> <OMEGA_NBR>
      6012

$$$$
CACHE3HI_1694_79
  -OEChem-03092622533D

 41 43  0     1  0  0  0  0  0999 V2000
  -48.6926  -29.0414    5.1698 C   0  0  0  0  0  0  0  0  0  0  0  0
  -48.3786  -29.0727    3.8190 C   0  0  0  0  0  0  0  0  0  0  0  0
  -47.6694  -29.0576    6.1147 C   0  0  0  0  0  0  0  0  0  0  0  0
  -47.0419  -29.1207    3.4263 C   0  0  0  0  0  0  0  0  0  0  0  0
  -46.3308  -29.1051    5.7326 C   0  0  0  0  0  0  0  0  0  0  0  0
  -46.0112  -29.1370    4.3628 C   0  0  0  0  0  0  0  0  0  0  0  0
  -44.0859  -29.1662    6.2388 C   0  0  0  0  0  0  0  0  0  0  0  0
  -43.7737  -29.1976    4.9054 C   0  0  0  0  0  0  0  0  0  0  0  0
  -43.0659  -26.7564    1.2407 C   0  0  0  0  0  0  0  0  0  0  0  0
  -44.5105  -26.3694    1.0049 C   0  0  0  0  0  0  0  0  0  0  0  0
  -44.4287  -28.6540    1.4524 C   0  0  0  0  0  0  0  0  0  0  0  0
  -43.2165  -27.9986    2.0916 C   0  0  1  0  0  0  0  0  0  0  0  0
  -41.9867  -28.8851    2.1210 C   0  0  0  0  0  0  0  0  0  0  0  0
  -42.9051  -31.0732    2.9693 C   0  0  0  0  0  0  0  0  0  0  0  0
  -42.0018  -29.8811    3.2876 C   0  0  2  0  0  0  0  0  0  0  0  0
  -45.3609  -29.1200    6.6634 N   0  0  0  0  0  0  0  0  0  0  0  0
  -44.7298  -29.1827    3.9585 N   0  0  0  0  0  0  0  0  0  0  0  0
  -43.0541  -29.1823    7.2036 N   0  0  0  0  0  0  0  0  0  0  0  0
  -42.4493  -29.2449    4.5070 N   0  0  0  0  0  0  0  0  0  0  0  0
  -45.2692  -27.5874    0.9867 O   0  0  0  0  0  0  0  0  0  0  0  0
  -42.9248  -31.9834    4.0644 O   0  0  0  0  0  0  0  0  0  0  0  0
  -49.7293  -29.0035    5.4892 H   0  0  0  0  0  0  0  0  0  0  0  0
  -49.1668  -29.0616    3.0724 H   0  0  0  0  0  0  0  0  0  0  0  0
  -47.9311  -29.0327    7.1708 H   0  0  0  0  0  0  0  0  0  0  0  0
  -46.8091  -29.1463    2.3637 H   0  0  0  0  0  0  0  0  0  0  0  0
  -42.5841  -26.9983    0.2855 H   0  0  0  0  0  0  0  0  0  0  0  0
  -42.4893  -25.9613    1.7215 H   0  0  0  0  0  0  0  0  0  0  0  0
  -44.8940  -25.7498    1.8226 H   0  0  0  0  0  0  0  0  0  0  0  0
  -44.6531  -25.8319    0.0632 H   0  0  0  0  0  0  0  0  0  0  0  0
  -44.1587  -29.2668    0.5853 H   0  0  0  0  0  0  0  0  0  0  0  0
  -44.9878  -29.2764    2.1572 H   0  0  0  0  0  0  0  0  0  0  0  0
  -43.4736  -27.6943    3.1155 H   0  0  0  0  0  0  0  0  0  0  0  0
  -41.0928  -28.2520    2.1742 H   0  0  0  0  0  0  0  0  0  0  0  0
  -41.9366  -29.4335    1.1726 H   0  0  0  0  0  0  0  0  0  0  0  0
  -42.5699  -31.6143    2.0769 H   0  0  0  0  0  0  0  0  0  0  0  0
  -43.9365  -30.7467    2.8032 H   0  0  0  0  0  0  0  0  0  0  0  0
  -40.9848  -30.2392    3.4881 H   0  0  0  0  0  0  0  0  0  0  0  0
  -42.1071  -29.2700    6.8993 H   0  0  0  0  0  0  0  0  0  0  0  0
  -43.2961  -29.2126    8.1721 H   0  0  0  0  0  0  0  0  0  0  0  0
  -41.7523  -28.8114    5.1003 H   0  0  0  0  0  0  0  0  0  0  0  0
  -43.5092  -32.7136    3.8074 H   0  0  0  0  0  0  0  0  0  0  0  0
  1  2  1  0  0  0  0
  1  3  2  0  0  0  0
  2  4  2  0  0  0  0
  3  5  1  0  0  0  0
  4  6  1  0  0  0  0
  5  6  1  0  0  0  0
  5 16  2  0  0  0  0
  6 17  2  0  0  0  0
  7  8  2  0  0  0  0
  7 16  1  0  0  0  0
  7 18  1  0  0  0  0
  8 17  1  0  0  0  0
  8 19  1  0  0  0  0
  9 10  1  0  0  0  0
  9 12  1  0  0  0  0
 10 20  1  0  0  0  0
 11 12  1  0  0  0  0
 11 20  1  0  0  0  0
 12 13  1  0  0  0  0
 13 15  1  0  0  0  0
 14 15  1  0  0  0  0
 14 21  1  0  0  0  0
 15 19  1  0  0  0  0
  1 22  1  0  0  0  0
  2 23  1  0  0  0  0
  3 24  1  0  0  0  0
  4 25  1  0  0  0  0
  9 26  1  0  0  0  0
  9 27  1  0  0  0  0
 10 28  1  0  0  0  0
 10 29  1  0  0  0  0
 11 30  1  0  0  0  0
 11 31  1  0  0  0  0
 12 32  1  0  0  0  0
 13 33  1  0  0  0  0
 13 34  1  0  0  0  0
 14 35  1  0  0  0  0
 14 36  1  0  0  0  0
 15 37  1  0  0  0  0
 18 38  1  0  0  0  0
 18 39  1  0  0  0  0
 19 40  1  0  0  0  0
 21 41  1  0  0  0  0
M  END
> <POSIT::Probability>
0.18

> <POSIT::Method>
HYBRID

> <ReceptorTitle>
UCSF-P4626_LA2_MERGED(A)

> <OMEGA_C>
MMVCwthU6MGgbqVAtoNBwvSU6MHsaXRAbq0+wvR16MGcq8NA6io8wjb36MF4SFtAwlI5wirX6MFK
cbdAdAs4wqgY6cEynItA+lcwwmpU6cHoo8dAPxgvwqyU6cGu+JxAiEMswhAN1sH4zZ4/ugoywm/0
0sGYoIA/97Yxwlg75cHQ6bk/vd0swjP938FQ3QVAWfInwqwU58GsvgdA254rwgOW+MEcCT5AzAEo
wnkM78E8aFJAiHE1ws716MFKOtVASusywjh26cHMV31AazcswnB16cFGhOZAC8wpwo316cGiOZBA
nhM1wg+z3MEAmXw//LIrwvXd/8HGD4JA1+pGwhEH6MGwp69A06pEwiZ+6MG8oURAbbk/wgpD6ME2
d+VAeTw7wrQr6cEsRxdAHVYqwor818FgKJI+BfUpwtSwz8GIW9w/dJMzwqz/zcFQTOk/w5wywtWn
zsGAgYE9gaIwwl0i6sEg1BU/jvMzwig26sEYEApA7OQtwtaN3cGkZEdACF8kwgoE4sHUJQtAHL8n
wud368FwF5Y/oEcqwgDq/MF47ARA8r4vwif59cEYaDNAevAjws7p8cFAPF9Aom0owgYp6sGwxtxA
LS8twmyz6cG4wAJBVgInwrh95sGiNaNAaQkuwrraAsK0rHNA

> <OMEGA_E>
7foJwQ==

> <OMEGA_NBR>
      7266

$$$$
CACHE3HI_1700_52
  -OEChem-03092622533D

 44 47  0     1  0  0  0  0  0999 V2000
  -44.9867  -29.5316    6.7622 C   0  0  0  0  0  0  0  0  0  0  0  0
  -43.8659  -29.6502    5.9142 C   0  0  0  0  0  0  0  0  0  0  0  0
  -50.5011  -28.6080    4.4390 C   0  0  0  0  0  0  0  0  0  0  0  0
  -50.4984  -28.8577    6.8533 C   0  0  0  0  0  0  0  0  0  0  0  0
  -45.2351  -28.9970    3.9985 C   0  0  0  0  0  0  0  0  0  0  0  0
  -51.8907  -28.4349    4.4895 C   0  0  0  0  0  0  0  0  0  0  0  0
  -51.8915  -28.6766    6.8285 C   0  0  0  0  0  0  0  0  0  0  0  0
  -49.7965  -28.8086    5.6410 C   0  0  0  0  0  0  0  0  0  0  0  0
  -46.3456  -28.9705    4.8257 C   0  0  0  0  0  0  0  0  0  0  0  0
  -46.2336  -29.2356    6.1908 C   0  0  0  0  0  0  0  0  0  0  0  0
  -44.0034  -29.4331    4.5239 C   0  0  0  0  0  0  0  0  0  0  0  0
  -48.3577  -28.9236    5.6183 C   0  0  0  0  0  0  0  0  0  0  0  0
  -47.0955  -31.1935    0.0108 C   0  0  0  0  0  0  0  0  0  0  0  0
  -46.1040  -30.5051    0.9037 C   0  0  0  0  0  0  0  0  0  0  0  0
  -46.8851  -32.6563    0.3852 C   0  0  0  0  0  0  0  0  0  0  0  0
  -44.9186  -31.4905    0.8954 C   0  0  1  0  0  0  0  0  0  0  0  0
  -43.2581  -30.2054    2.2698 C   0  0  0  0  0  0  0  0  0  0  0  0
  -44.1670  -31.4624    2.2315 C   0  0  2  0  0  0  0  0  0  0  0  0
  -52.5594  -28.4660    5.6666 N   0  0  0  0  0  0  0  0  0  0  0  0
  -47.6597  -28.7871    4.5215 N   0  0  0  0  0  0  0  0  0  0  0  0
  -47.5071  -29.1648    6.6905 N   0  0  0  0  0  0  0  0  0  0  0  0
  -42.9719  -29.8024    3.6681 N   0  0  0  0  0  0  0  0  0  0  0  0
  -45.4693  -32.8036    0.6262 O   0  0  0  0  0  0  0  0  0  0  0  0
  -43.3716  -32.6304    2.3955 O   0  0  0  0  0  0  0  0  0  0  0  0
  -44.8872  -29.6659    7.8292 H   0  0  0  0  0  0  0  0  0  0  0  0
  -42.9017  -29.9071    6.3273 H   0  0  0  0  0  0  0  0  0  0  0  0
  -49.9793  -28.5878    3.4936 H   0  0  0  0  0  0  0  0  0  0  0  0
  -49.9803  -29.0308    7.7850 H   0  0  0  0  0  0  0  0  0  0  0  0
  -45.3126  -28.6880    2.9666 H   0  0  0  0  0  0  0  0  0  0  0  0
  -52.4384  -28.2736    3.5728 H   0  0  0  0  0  0  0  0  0  0  0  0
  -52.4436  -28.7056    7.7563 H   0  0  0  0  0  0  0  0  0  0  0  0
  -48.1237  -30.8680    0.2274 H   0  0  0  0  0  0  0  0  0  0  0  0
  -46.8704  -31.0149   -1.0510 H   0  0  0  0  0  0  0  0  0  0  0  0
  -45.8119  -29.5264    0.4954 H   0  0  0  0  0  0  0  0  0  0  0  0
  -46.5060  -30.3735    1.9192 H   0  0  0  0  0  0  0  0  0  0  0  0
  -47.4554  -32.9049    1.2924 H   0  0  0  0  0  0  0  0  0  0  0  0
  -47.2031  -33.3117   -0.4390 H   0  0  0  0  0  0  0  0  0  0  0  0
  -44.2252  -31.2019    0.0917 H   0  0  0  0  0  0  0  0  0  0  0  0
  -42.3104  -30.4304    1.7585 H   0  0  0  0  0  0  0  0  0  0  0  0
  -43.7659  -29.3778    1.7530 H   0  0  0  0  0  0  0  0  0  0  0  0
  -44.9013  -31.3858    3.0470 H   0  0  0  0  0  0  0  0  0  0  0  0
  -47.7748  -29.2676    7.6485 H   0  0  0  0  0  0  0  0  0  0  0  0
  -42.3480  -29.0225    3.6189 H   0  0  0  0  0  0  0  0  0  0  0  0
  -42.9168  -32.5899    3.2286 H   0  0  0  0  0  0  0  0  0  0  0  0
  1  2  1  0  0  0  0
  1 10  2  0  0  0  0
  2 11  2  0  0  0  0
  3  6  2  0  0  0  0
  3  8  1  0  0  0  0
  4  7  1  0  0  0  0
  4  8  2  0  0  0  0
  5  9  2  0  0  0  0
  5 11  1  0  0  0  0
  6 19  1  0  0  0  0
  7 19  2  0  0  0  0
  8 12  1  0  0  0  0
  9 10  1  0  0  0  0
  9 20  1  0  0  0  0
 10 21  1  0  0  0  0
 11 22  1  0  0  0  0
 12 20  2  0  0  0  0
 12 21  1  0  0  0  0
 13 14  1  0  0  0  0
 13 15  1  0  0  0  0
 14 16  1  0  0  0  0
 15 23  1  0  0  0  0
 16 18  1  0  0  0  0
 16 23  1  0  0  0  0
 17 18  1  0  0  0  0
 17 22  1  0  0  0  0
 18 24  1  0  0  0  0
  1 25  1  0  0  0  0
  2 26  1  0  0  0  0
  3 27  1  0  0  0  0
  4 28  1  0  0  0  0
  5 29  1  0  0  0  0
  6 30  1  0  0  0  0
  7 31  1  0  0  0  0
 13 32  1  0  0  0  0
 13 33  1  0  0  0  0
 14 34  1  0  0  0  0
 14 35  1  0  0  0  0
 15 36  1  0  0  0  0
 15 37  1  0  0  0  0
 16 38  1  0  0  0  0
 17 39  1  0  0  0  0
 17 40  1  0  0  0  0
 18 41  1  0  0  0  0
 21 42  1  0  0  0  0
 22 43  1  0  0  0  0
 24 44  1  0  0  0  0
M  END
> <POSIT::Probability>
0.51

> <POSIT::Method>
SHAPEFIT

> <ReceptorTitle>
UCSF-P4626-REFINED_LIGAND-BOUND-STATE_AALTB__DU__LA1_A-201(A)

> <OMEGA_C>
VvIzwsdA7MHaY9hAsXYvwp8z7cH6QL1AHAFKwiLd5ME8DI5AVf5Jwpjc5sFCTttAyPA0ws/558Hs
539AD5BPwqF648HGqY9A6pBPwpRp5cEcg9pApi9HwvV35sH4grRA4mE5wp3D58E0bJpAOe84wn/i
6cHeGsZAggMwwud268Gmw5BAPG5BwnNj58EGybNAx2E8wjCM+cEAoDE8f2o4woMK9MEQW2c/U4o7
whOgAsLgO8U+sawzwn3s+8EgNmU/QwgtwsKk8cHAQxFAAqswwgyz+8FA0Q5A3TxSwnW648EMVbVA
g6M+wvdL5sFMsJBAPwc+wpBR6cHWGNZAM+Mrwl9r7sGUwWpAjuA1wtc2A8LwSyA/i3wtwoOFAsLE
TxlAfIwzwr5T7cGviPpAUZsrwtNB78HueMpA0upHwtmz5MFDl19AzetHwiI/6MF9HvlAEkA1wvmA
5cFw3D1A88BRwm4w4sH1p2RAQcZRwgal5cFkM/hApH5Awqrx9sEC52g+Rns7wowe+MFchoa/WT83
whs27MG3nv0+IQY6wgf98sEOp/U/XdI9wqeeA8Lqa6U/+s88wjY/BcKnweC+kOYwwoad+cGV3bs9
3z0pwoRx88GtF+E/UhAvwqgF68GQY+A/5JozwgkW+8HVAUNAbBk/whok6sGtwPRAW2Qpwvst6MF6
m2dAyqorwhVcAsKVoE5A

> <OMEGA_E>
nl+FPw==

> <OMEGA_NBR>
      8682

$$$$
CACHE3HI_1700_59
  -OEChem-03092622533D

 41 44  0     1  0  0  0  0  0999 V2000
  -47.5383  -28.9019    3.4918 C   0  0  0  0  0  0  0  0  0  0  0  0
  -46.9309  -29.2745    2.3115 C   0  0  0  0  0  0  0  0  0  0  0  0
  -44.2563  -29.2267    5.8299 C   0  0  0  0  0  0  0  0  0  0  0  0
  -46.5512  -28.9388    4.5098 C   0  0  0  0  0  0  0  0  0  0  0  0
  -45.3636  -29.3365    3.9084 C   0  0  0  0  0  0  0  0  0  0  0  0
  -46.5033  -28.6844    5.8798 C   0  0  0  0  0  0  0  0  0  0  0  0
  -43.5386  -30.9317    1.9450 C   0  0  0  0  0  0  0  0  0  0  0  0
  -43.1997  -29.5012    1.6650 C   0  0  0  0  0  0  0  0  0  0  0  0
  -50.8506  -29.7913    3.8090 C   0  0  0  0  0  0  0  0  0  0  0  0
  -52.8596  -29.3328    4.8970 C   0  0  0  0  0  0  0  0  0  0  0  0
  -50.6925  -30.1522    5.2749 C   0  0  2  0  0  0  0  0  0  0  0  0
  -44.6378  -29.9581    1.5895 C   0  0  0  0  0  0  0  0  0  0  0  0
  -51.7374  -29.2597    5.9125 C   0  0  2  0  0  0  0  0  0  0  0  0
  -49.2864  -29.9429    5.8087 C   0  0  0  0  0  0  0  0  0  0  0  0
  -48.9808  -28.4785    6.0884 C   0  0  0  0  0  0  0  0  0  0  0  0
  -44.1737  -29.5012    4.5120 N   0  0  0  0  0  0  0  0  0  0  0  0
  -45.3344  -28.8329    6.5444 N   0  0  0  0  0  0  0  0  0  0  0  0
  -45.6109  -29.5357    2.5760 N   0  0  0  0  0  0  0  0  0  0  0  0
  -47.6405  -28.2794    6.5669 N   0  0  0  0  0  0  0  0  0  0  0  0
  -52.2440  -29.5004    3.6114 O   0  0  0  0  0  0  0  0  0  0  0  0
  -52.1372  -29.7384    7.1793 O   0  0  0  0  0  0  0  0  0  0  0  0
  -48.5803  -28.6336    3.6006 H   0  0  0  0  0  0  0  0  0  0  0  0
  -47.3296  -29.3744    1.3107 H   0  0  0  0  0  0  0  0  0  0  0  0
  -43.3353  -29.3360    6.3922 H   0  0  0  0  0  0  0  0  0  0  0  0
  -43.2611  -31.6701    1.2026 H   0  0  0  0  0  0  0  0  0  0  0  0
  -43.4617  -31.2755    2.9692 H   0  0  0  0  0  0  0  0  0  0  0  0
  -42.8992  -28.8806    2.5003 H   0  0  0  0  0  0  0  0  0  0  0  0
  -42.6934  -29.2751    0.7343 H   0  0  0  0  0  0  0  0  0  0  0  0
  -50.2515  -28.9337    3.4977 H   0  0  0  0  0  0  0  0  0  0  0  0
  -50.6024  -30.6403    3.1663 H   0  0  0  0  0  0  0  0  0  0  0  0
  -53.5472  -30.1658    5.0691 H   0  0  0  0  0  0  0  0  0  0  0  0
  -53.4298  -28.3992    4.8636 H   0  0  0  0  0  0  0  0  0  0  0  0
  -50.9550  -31.2375    5.4083 H   0  0  0  0  0  0  0  0  0  0  0  0
  -45.0700  -30.0483    0.5992 H   0  0  0  0  0  0  0  0  0  0  0  0
  -51.3852  -28.2056    6.0469 H   0  0  0  0  0  0  0  0  0  0  0  0
  -49.1609  -30.5380    6.7185 H   0  0  0  0  0  0  0  0  0  0  0  0
  -48.5760  -30.3221    5.0674 H   0  0  0  0  0  0  0  0  0  0  0  0
  -49.6676  -28.0615    6.8315 H   0  0  0  0  0  0  0  0  0  0  0  0
  -49.0810  -27.8964    5.1668 H   0  0  0  0  0  0  0  0  0  0  0  0
  -47.5096  -27.8139    7.4618 H   0  0  0  0  0  0  0  0  0  0  0  0
  -52.8747  -29.1779    7.4651 H   0  0  0  0  0  0  0  0  0  0  0  0
  1  2  2  0  0  0  0
  1  4  1  0  0  0  0
  2 18  1  0  0  0  0
  3 16  1  0  0  0  0
  3 17  2  0  0  0  0
  4  5  1  0  0  0  0
  4  6  2  0  0  0  0
  5 16  2  0  0  0  0
  5 18  1  0  0  0  0
  6 17  1  0  0  0  0
  6 19  1  0  0  0  0
  7  8  1  0  0  0  0
  7 12  1  0  0  0  0
  8 12  1  0  0  0  0
  9 11  1  0  0  0  0
  9 20  1  0  0  0  0
 10 13  1  0  0  0  0
 10 20  1  0  0  0  0
 11 13  1  0  0  0  0
 11 14  1  0  0  0  0
 12 18  1  0  0  0  0
 13 21  1  0  0  0  0
 14 15  1  0  0  0  0
 15 19  1  0  0  0  0
  1 22  1  0  0  0  0
  2 23  1  0  0  0  0
  3 24  1  0  0  0  0
  7 25  1  0  0  0  0
  7 26  1  0  0  0  0
  8 27  1  0  0  0  0
  8 28  1  0  0  0  0
  9 29  1  0  0  0  0
  9 30  1  0  0  0  0
 10 31  1  0  0  0  0
 10 32  1  0  0  0  0
 11 33  1  0  0  0  0
 12 34  1  0  0  0  0
 13 35  1  0  0  0  0
 14 36  1  0  0  0  0
 14 37  1  0  0  0  0
 15 38  1  0  0  0  0
 15 39  1  0  0  0  0
 19 40  1  0  0  0  0
 21 41  1  0  0  0  0
M  END
> <POSIT::Probability>
0.23

> <POSIT::Method>
HYBRID

> <ReceptorTitle>
UCSF-P4626-REFINED_LIGAND-BOUND-STATE_AALTB__DU__LA1_A-201(A)

> <OMEGA_C>
Pyc+whc358Eyel9AQbk7whky6sES8BNAbQYxwlfQ6cHkjrpAeDQ6wsCC58EHUJBATHQ1wjax6sFm
I3pAYAM6wrp55cFwJ7xAeicuwjF098GM9fg/f8wswnoC7MFEHtU/D2dLwoBU7sEjxnNANnBTwn2p
6sGStJxAF8VKws438cGdy6hAHI0ywiWq78FAdMs/IvNOwt8T6sF5M71AQCVFwhKL78F64LlAWOxD
wgLU48Eu1MJA2bEwwnkC7MFPYpBAZVY1wsep5sHra9FAmHE2wiRJ7MHm3SRA648+wiQ84sHWI9JA
2vlQwsoA7MGLIWdAhoxQwlXo7cFtvOVANFJCwrER5cGBb2ZAgVE9wr/+6sGYxKc/Vlctwi2w6sE+
jcxAVgstwnBc/cEk7pk/z9gtwlM0+sFOBz5Av5grwo8L58GHBSBACcYqwn0z6sFw/Ts/lAFJwil4
58EP219A3WhKwmIf9cHeo0pATzBWwoNT8cH4NaJAHLhVwoAx48GgoptA69FLwnXm+cHPEK1AtEc0
wtli8MEoYhk/e4pNwvqk4cHuf8FAvaREwtdN9MH5/dZA3U1CwriT8sEhKKJAo6tGwvx94MEInNpA
8FJEwtAr38FxVqVA2gk+wtCC3sHyxu5Aqn9TwlVs6cEa4u5A

> <OMEGA_E>
Mm0MwQ==

> <OMEGA_NBR>
     10012

$$$$
CACHE3HI_1700_66
  -OEChem-03092622533D

 43 45  0     1  0  0  0  0  0999 V2000
  -49.8065  -29.2354    5.4210 C   0  0  0  0  0  0  0  0  0  0  0  0
  -48.7737  -29.3281    6.3433 C   0  0  0  0  0  0  0  0  0  0  0  0
  -49.1259  -28.5900    1.9626 C   0  0  0  0  0  0  0  0  0  0  0  0
  -48.0381  -28.8353    3.7825 C   0  0  0  0  0  0  0  0  0  0  0  0
  -49.3784  -28.9824    4.1249 C   0  0  0  0  0  0  0  0  0  0  0  0
  -47.0750  -28.9465    4.7854 C   0  0  0  0  0  0  0  0  0  0  0  0
  -44.8308  -30.7085    2.6175 C   0  0  0  0  0  0  0  0  0  0  0  0
  -44.5600  -31.1207    1.1856 C   0  0  0  0  0  0  0  0  0  0  0  0
  -42.5428  -30.4713    2.1545 C   0  0  0  0  0  0  0  0  0  0  0  0
  -43.6730  -29.7735    2.8915 C   0  0  2  0  0  0  0  0  0  0  0  0
  -51.8825  -29.9396    1.7369 C   0  0  0  0  0  0  0  0  0  0  0  0
  -43.3934  -29.5452    4.3651 C   0  0  0  0  0  0  0  0  0  0  0  0
  -51.4820  -28.8806    2.7495 C   0  0  0  0  0  0  0  0  0  0  0  0
  -44.4122  -28.7526    6.5295 C   0  0  0  0  0  0  0  0  0  0  0  0
  -44.6736  -29.4752    5.2073 C   0  0  1  0  0  0  0  0  0  0  0  0
  -47.4536  -29.1933    6.0641 N   0  0  0  0  0  0  0  0  0  0  0  0
  -47.8996  -28.5922    2.4360 N   0  0  0  0  0  0  0  0  0  0  0  0
  -50.0522  -28.8209    2.9420 N   0  0  0  0  0  0  0  0  0  0  0  0
  -45.7319  -28.8062    4.4830 N   0  0  0  0  0  0  0  0  0  0  0  0
  -43.1350  -31.1095    1.0128 O   0  0  0  0  0  0  0  0  0  0  0  0
  -43.4052  -29.4324    7.2723 O   0  0  0  0  0  0  0  0  0  0  0  0
  -50.8472  -29.3504    5.6918 H   0  0  0  0  0  0  0  0  0  0  0  0
  -48.9950  -29.5241    7.3886 H   0  0  0  0  0  0  0  0  0  0  0  0
  -49.4025  -28.4284    0.9296 H   0  0  0  0  0  0  0  0  0  0  0  0
  -45.8118  -30.2422    2.7440 H   0  0  0  0  0  0  0  0  0  0  0  0
  -44.7824  -31.5866    3.2730 H   0  0  0  0  0  0  0  0  0  0  0  0
  -44.9518  -32.1149    0.9532 H   0  0  0  0  0  0  0  0  0  0  0  0
  -44.9874  -30.4022    0.4782 H   0  0  0  0  0  0  0  0  0  0  0  0
  -41.7684  -29.7745    1.8207 H   0  0  0  0  0  0  0  0  0  0  0  0
  -42.0708  -31.2507    2.7629 H   0  0  0  0  0  0  0  0  0  0  0  0
  -43.8757  -28.8098    2.4045 H   0  0  0  0  0  0  0  0  0  0  0  0
  -51.4233  -29.7486    0.7614 H   0  0  0  0  0  0  0  0  0  0  0  0
  -52.9691  -29.9482    1.6063 H   0  0  0  0  0  0  0  0  0  0  0  0
  -51.5703  -30.9369    2.0635 H   0  0  0  0  0  0  0  0  0  0  0  0
  -42.8137  -28.6212    4.4784 H   0  0  0  0  0  0  0  0  0  0  0  0
  -42.7629  -30.3669    4.7257 H   0  0  0  0  0  0  0  0  0  0  0  0
  -51.9460  -29.0801    3.7214 H   0  0  0  0  0  0  0  0  0  0  0  0
  -51.8211  -27.8898    2.4256 H   0  0  0  0  0  0  0  0  0  0  0  0
  -45.3150  -28.6911    7.1480 H   0  0  0  0  0  0  0  0  0  0  0  0
  -44.0501  -27.7351    6.3519 H   0  0  0  0  0  0  0  0  0  0  0  0
  -45.0427  -30.4871    5.4132 H   0  0  0  0  0  0  0  0  0  0  0  0
  -45.4723  -28.2019    3.7129 H   0  0  0  0  0  0  0  0  0  0  0  0
  -43.2825  -28.9327    8.0945 H   0  0  0  0  0  0  0  0  0  0  0  0
  1  2  1  0  0  0  0
  1  5  2  0  0  0  0
  2 16  2  0  0  0  0
  3 17  2  0  0  0  0
  3 18  1  0  0  0  0
  4  5  1  0  0  0  0
  4  6  2  0  0  0  0
  4 17  1  0  0  0  0
  5 18  1  0  0  0  0
  6 16  1  0  0  0  0
  6 19  1  0  0  0  0
  7  8  1  0  0  0  0
  7 10  1  0  0  0  0
  8 20  1  0  0  0  0
  9 10  1  0  0  0  0
  9 20  1  0  0  0  0
 10 12  1  0  0  0  0
 11 13  1  0  0  0  0
 12 15  1  0  0  0  0
 13 18  1  0  0  0  0
 14 15  1  0  0  0  0
 14 21  1  0  0  0  0
 15 19  1  0  0  0  0
  1 22  1  0  0  0  0
  2 23  1  0  0  0  0
  3 24  1  0  0  0  0
  7 25  1  0  0  0  0
  7 26  1  0  0  0  0
  8 27  1  0  0  0  0
  8 28  1  0  0  0  0
  9 29  1  0  0  0  0
  9 30  1  0  0  0  0
 10 31  1  0  0  0  0
 11 32  1  0  0  0  0
 11 33  1  0  0  0  0
 11 34  1  0  0  0  0
 12 35  1  0  0  0  0
 12 36  1  0  0  0  0
 13 37  1  0  0  0  0
 13 38  1  0  0  0  0
 14 39  1  0  0  0  0
 14 40  1  0  0  0  0
 15 41  1  0  0  0  0
 19 42  1  0  0  0  0
 21 43  1  0  0  0  0
M  END
> <POSIT::Probability>
0.18

> <POSIT::Method>
HYBRID

> <ReceptorTitle>
UCSF-P4626_LA2_MERGED(A)

> <OMEGA_C>
4jlHwhLi6cEcea1ARBhDwuSf6sFE/MpA84BEwk+45MF2Nfs/+iZAwpyu5sGnFHJAfINFwv7b58EA
/4NAwEw8wlyS58G8IZlAwFIzwvSq9cGLhSdAZj0ywjX3+MFUwZc/4CsqwjTF88EY5AlAGrEuwgsw
7sElDzlAsYdPwkaE78GoUt4/1ZItwpZc7MHkrotAmO1NwnsL58EI9y9AGKYxwlQF5sFU8dBAy7Ey
wkPN68EkoqZAgtA9wuKL6cFzDcJALJk/wt285MHf5htAeTVIwjCR5sH4STxAbe02whVz5sEadY9A
PIoswing+MF/o4E/7J4twot168G3tuhAkWNLwrLN6sGWI7ZA4PpDwlIx7MGlb+xAKpxFwmZt48FW
/G0/VT83wvDv8cFbni9AKyEzwmux/MF0eFFAr84zwqB1AMKkBnQ/FfMzwrk388Ek0fQ+zRInwkcy
7sGPDOk/dkgowmsB+sHc0zBAsIAvwoR65sHN4xlAarFNwhL97cFO60I/WOBTwgKW78Gimc0/+UdO
wsx+98H0DwRAPEErwjv45MEqT49AOg0rwoDv8sFMOZdAtMhPwvaj6METLG5A0khPwlMe38EDPRtA
jkI1wmKH5cE4vORAQTMwwo/h3cEJQ8tAuCs0wpXl88FCOa1AluM1wo6d4cHvn21ASiEtwh9258Ei
gwFB

> <OMEGA_E>
DuN/wA==

> <OMEGA_NBR>
     11306

$$$$
CACHE3HI_1705_41
  -OEChem-03092622533D

 29 30  0     1  0  0  0  0  0999 V2000
  -44.6696  -29.3371    5.4219 C   0  0  0  0  0  0  0  0  0  0  0  0
  -45.3311  -29.2142    4.1714 C   0  0  0  0  0  0  0  0  0  0  0  0
  -46.7021  -29.0307    6.5201 C   0  0  0  0  0  0  0  0  0  0  0  0
  -47.3592  -28.9298    5.2729 C   0  0  0  0  0  0  0  0  0  0  0  0
  -45.0578  -31.2733    1.7631 C   0  0  0  0  0  0  0  0  0  0  0  0
  -44.3620  -32.4579    1.0559 C   0  0  0  0  0  0  0  0  0  0  0  0
  -42.3357  -32.1248    2.3562 C   0  0  0  0  0  0  0  0  0  0  0  0
  -43.9977  -30.2737    2.2902 C   0  0  2  0  0  0  0  0  0  0  0  0
  -42.9945  -31.0151    3.1917 C   0  0  2  0  0  0  0  0  0  0  0  0
  -45.3674  -29.2440    6.5768 N   0  0  0  0  0  0  0  0  0  0  0  0
  -46.6622  -29.0168    4.1254 N   0  0  0  0  0  0  0  0  0  0  0  0
  -47.4267  -28.8906    7.6956 N   0  0  0  0  0  0  0  0  0  0  0  0
  -44.6382  -29.1161    2.9656 N   0  0  0  0  0  0  0  0  0  0  0  0
  -43.3552  -33.0510    1.9122 O   0  0  0  0  0  0  0  0  0  0  0  0
  -42.0080  -30.1117    3.6861 O   0  0  0  0  0  0  0  0  0  0  0  0
  -49.0852  -28.6647    5.1919 Cl  0  0  0  0  0  0  0  0  0  0  0  0
  -43.6032  -29.5058    5.4509 H   0  0  0  0  0  0  0  0  0  0  0  0
  -45.7189  -30.7603    1.0491 H   0  0  0  0  0  0  0  0  0  0  0  0
  -45.6530  -31.6518    2.6072 H   0  0  0  0  0  0  0  0  0  0  0  0
  -45.1147  -33.2194    0.8039 H   0  0  0  0  0  0  0  0  0  0  0  0
  -43.8833  -32.0962    0.1340 H   0  0  0  0  0  0  0  0  0  0  0  0
  -41.8356  -31.6808    1.4827 H   0  0  0  0  0  0  0  0  0  0  0  0
  -41.5955  -32.6584    2.9705 H   0  0  0  0  0  0  0  0  0  0  0  0
  -43.4419  -29.8963    1.4192 H   0  0  0  0  0  0  0  0  0  0  0  0
  -43.5423  -31.4772    4.0262 H   0  0  0  0  0  0  0  0  0  0  0  0
  -46.8109  -28.9738    8.4791 H   0  0  0  0  0  0  0  0  0  0  0  0
  -47.8662  -27.9925    7.7111 H   0  0  0  0  0  0  0  0  0  0  0  0
  -45.2897  -28.7414    2.3060 H   0  0  0  0  0  0  0  0  0  0  0  0
  -42.4290  -29.4324    4.1997 H   0  0  0  0  0  0  0  0  0  0  0  0
  1  2  1  0  0  0  0
  1 10  2  0  0  0  0
  2 11  2  0  0  0  0
  2 13  1  0  0  0  0
  3  4  2  0  0  0  0
  3 10  1  0  0  0  0
  3 12  1  0  0  0  0
  4 11  1  0  0  0  0
  4 16  1  0  0  0  0
  5  6  1  0  0  0  0
  5  8  1  0  0  0  0
  6 14  1  0  0  0  0
  7  9  1  0  0  0  0
  7 14  1  0  0  0  0
  8  9  1  0  0  0  0
  8 13  1  0  0  0  0
  9 15  1  0  0  0  0
  1 17  1  0  0  0  0
  5 18  1  0  0  0  0
  5 19  1  0  0  0  0
  6 20  1  0  0  0  0
  6 21  1  0  0  0  0
  7 22  1  0  0  0  0
  7 23  1  0  0  0  0
  8 24  1  0  0  0  0
  9 25  1  0  0  0  0
 12 26  1  0  0  0  0
 12 27  1  0  0  0  0
 13 28  1  0  0  0  0
 15 29  1  0  0  0  0
M  END
> <POSIT::Probability>
0.51

> <POSIT::Method>
SHAPEFIT

> <ReceptorTitle>
UCSF-P4626-REFINED_LIGAND-BOUND-STATE_AALTB__DU__LA1_A-201(A)

> <OMEGA_C>
oa0ywlKy6sHkf61ABlM1wpy26cFMfIVA/s46wsY+6MHYpNBA3289wjRw58GIu6hAMjs0wtAv+sHA
rOE/vXIxwtrUAcKwKIc/tVcpws5/AMJAyxZArP0vwqAw8sFAkhJAYforwtoe+MF4RExAPXg1wq7z
6cFYddJAGKY6wmwi6MEsA4RA5bQ9wvgf58E0QvZAe40ywsjt6MFwzD1Awmstwi40BMLAwvQ/OAgo
wtrk8MFY6GtAPldEwk5R5cHMI6ZAs2kuwu0L7MHfba5AKuA2wioV9sEhSYY/rpw2wuI2/cEo3CZA
dHU0wrHgBMJ6yU0/hIgvwoZiAMI8LQk+qVcnwlpy/cGuyr0/wGEmwi+iAsKhHD5Ag8QtwrYr78G6
p7U/VCsuwkvR+8FC1oBAZD47wlnK58GNqgdBAnc/wrXw38E7wfZApyg1wlTu5cGElRNAV7cpwqN1
68GiY4ZA

> <OMEGA_E>
XDN+Pw==

> <OMEGA_NBR>
     12413

$$$$
CACHE3HI_1707_45
  -OEChem-03092622533D

 44 47  0     1  0  0  0  0  0999 V2000
  -49.5349  -29.8736    0.5487 C   0  0  0  0  0  0  0  0  0  0  0  0
  -48.2032  -29.5059    0.3564 C   0  0  0  0  0  0  0  0  0  0  0  0
  -50.0484  -29.9816    1.8410 C   0  0  0  0  0  0  0  0  0  0  0  0
  -47.8987  -29.3540    2.7485 C   0  0  0  0  0  0  0  0  0  0  0  0
  -42.9466  -30.2453    2.6852 C   0  0  0  0  0  0  0  0  0  0  0  0
  -47.3852  -29.2460    1.4561 C   0  0  0  0  0  0  0  0  0  0  0  0
  -49.2304  -29.7217    2.9407 C   0  0  0  0  0  0  0  0  0  0  0  0
  -43.6555  -29.5951    1.6449 C   0  0  0  0  0  0  0  0  0  0  0  0
  -41.7048  -29.6545    2.7684 C   0  0  0  0  0  0  0  0  0  0  0  0
  -42.8256  -28.6267    1.1244 C   0  0  0  0  0  0  0  0  0  0  0  0
  -45.9967  -28.8627    1.2556 C   0  0  0  0  0  0  0  0  0  0  0  0
  -44.2745  -32.2636    0.4881 C   0  0  0  0  0  0  0  0  0  0  0  0
  -45.3014  -32.4270    1.5682 C   0  0  0  0  0  0  0  0  0  0  0  0
  -49.2228  -28.8903    5.3903 C   0  0  0  0  0  0  0  0  0  0  0  0
  -50.2621  -28.9679    6.4860 C   0  0  0  0  0  0  0  0  0  0  0  0
  -51.2819  -29.5339    4.4728 C   0  0  0  0  0  0  0  0  0  0  0  0
  -49.7879  -29.8368    4.3413 C   0  0  1  0  0  0  0  0  0  0  0  0
  -45.3365  -31.2156    0.6779 C   0  0  0  0  0  0  0  0  0  0  0  0
  -41.6429  -28.6720    1.8148 N   0  0  0  0  0  0  0  0  0  0  0  0
  -45.0054  -29.8786    1.1944 N   0  0  0  0  0  0  0  0  0  0  0  0
  -45.7770  -27.6466    1.1538 O   0  0  0  0  0  0  0  0  0  0  0  0
  -51.5233  -29.1493    5.8345 O   0  0  0  0  0  0  0  0  0  0  0  0
  -40.6718  -29.8862    3.5646 O   0  0  0  0  0  0  0  0  0  0  0  0
  -42.9965  -27.7471    0.1475 O   0  0  0  0  0  0  0  0  0  0  0  0
  -50.1715  -30.0770   -0.3074 H   0  0  0  0  0  0  0  0  0  0  0  0
  -47.8127  -29.4258   -0.6549 H   0  0  0  0  0  0  0  0  0  0  0  0
  -51.0871  -30.2690    1.9814 H   0  0  0  0  0  0  0  0  0  0  0  0
  -47.2624  -29.1506    3.6069 H   0  0  0  0  0  0  0  0  0  0  0  0
  -43.2992  -31.0567    3.3075 H   0  0  0  0  0  0  0  0  0  0  0  0
  -43.2602  -32.0317    0.7891 H   0  0  0  0  0  0  0  0  0  0  0  0
  -44.3498  -32.9049   -0.3815 H   0  0  0  0  0  0  0  0  0  0  0  0
  -46.0683  -33.1785    1.4265 H   0  0  0  0  0  0  0  0  0  0  0  0
  -44.9766  -32.3046    2.5941 H   0  0  0  0  0  0  0  0  0  0  0  0
  -49.0486  -27.8716    5.0433 H   0  0  0  0  0  0  0  0  0  0  0  0
  -48.2770  -29.2941    5.7633 H   0  0  0  0  0  0  0  0  0  0  0  0
  -50.0815  -29.7946    7.1758 H   0  0  0  0  0  0  0  0  0  0  0  0
  -50.3108  -28.0381    7.0587 H   0  0  0  0  0  0  0  0  0  0  0  0
  -51.6359  -28.7449    3.8024 H   0  0  0  0  0  0  0  0  0  0  0  0
  -51.8722  -30.4376    4.2849 H   0  0  0  0  0  0  0  0  0  0  0  0
  -49.6050  -30.9250    4.6585 H   0  0  0  0  0  0  0  0  0  0  0  0
  -46.1252  -31.1814   -0.0658 H   0  0  0  0  0  0  0  0  0  0  0  0
  -40.8470  -28.0726    1.6465 H   0  0  0  0  0  0  0  0  0  0  0  0
  -40.8711  -30.6202    4.1937 H   0  0  0  0  0  0  0  0  0  0  0  0
  -42.1889  -27.1924    0.0305 H   0  0  0  0  0  0  0  0  0  0  0  0
  1  2  2  0  0  0  0
  1  3  1  0  0  0  0
  2  6  1  0  0  0  0
  3  7  2  0  0  0  0
  4  6  2  0  0  0  0
  4  7  1  0  0  0  0
  5  8  1  0  0  0  0
  5  9  2  0  0  0  0
  6 11  1  0  0  0  0
  7 17  1  0  0  0  0
  8 10  2  0  0  0  0
  8 20  1  0  0  0  0
  9 19  1  0  0  0  0
  9 23  1  0  0  0  0
 10 19  1  0  0  0  0
 10 24  1  0  0  0  0
 11 20  1  0  0  0  0
 11 21  2  0  0  0  0
 12 13  1  0  0  0  0
 12 18  1  0  0  0  0
 13 18  1  0  0  0  0
 14 15  1  0  0  0  0
 14 17  1  0  0  0  0
 15 22  1  0  0  0  0
 16 17  1  0  0  0  0
 16 22  1  0  0  0  0
 18 20  1  0  0  0  0
  1 25  1  0  0  0  0
  2 26  1  0  0  0  0
  3 27  1  0  0  0  0
  4 28  1  0  0  0  0
  5 29  1  0  0  0  0
 12 30  1  0  0  0  0
 12 31  1  0  0  0  0
 13 32  1  0  0  0  0
 13 33  1  0  0  0  0
 14 34  1  0  0  0  0
 14 35  1  0  0  0  0
 15 36  1  0  0  0  0
 15 37  1  0  0  0  0
 16 38  1  0  0  0  0
 16 39  1  0  0  0  0
 17 40  1  0  0  0  0
 18 41  1  0  0  0  0
 19 42  1  0  0  0  0
 23 43  1  0  0  0  0
 24 44  1  0  0  0  0
M  END
> <POSIT::Probability>
0.05

> <POSIT::Method>
FRED

> <ReceptorTitle>
UCSF-P4626-REFINED_LIGAND-BOUND-STATE_AALTB__DU__LA1_A-201(A)

> <OMEGA_C>
viNGwij97sGndAw/CdBAwhgM7MGKfrY+ljFIwmLa78HcpOs/UZg/whLV6sFx5y9AXMkrwk/28cEK
2itAbYo9wtL36cEAY7o/+utEwhvG7cEbNDxARp8uwsLC7MHcitI/wtEmwnU87cHlLTFAd00rwn0D
5cGC648/nvw3wrjm5sEyuKA/ERkxwvoNAcIc6Pk+mzQ1wkG1AcI2usg/IuREwkQf58FUfaxAYQxJ
wle+58FLjc9AoyBNwnhF7MHKII9A1iZHwsax7sEs7IpAjlg1wn25+cGWiC0/UZImwjtg5cGOS+g/
ewU0wl0H78HQ4Jg/mRs3wkAs3cHOrpM/5RdOwsox6cEWtLpA6K8iwgIX78GIImRAa/wrwhv63cHG
Fhc+oK9Iwrqd8MFeZJ2+OkA/wvhn68HPpie/KFlMwvsm8sG0nv0/sQw9wmU06cF312ZAWDItwgV0
+MFBrlNAbAotwm4gAMJzBEo/OWYxwqqeA8LYTsO+50U4wsq2BMJ8l7Y/DugzwuI3AcKKBiZAzTFE
wvz43sGtYqFAnhtBwj1a6sEObbhAdlNIwm1b7sHon+VATj5JwvNN4MF64OFAI4tOwpr15cH4WXNA
FX1PwjWA88GqHYlAgGtGwltm98GMEpVAO4A4wohz+cHQu4a9XWMjwpmU4MFiwNI/AXwjwhr29MG1
MoZAdsEowiKK2cGANvo8

> <OMEGA_E>
cAcjwQ==

> <OMEGA_NBR>
     13799

$$$$
CACHE3HI_1707_84
  -OEChem-03092622533D

 40 42  0     1  0  0  0  0  0999 V2000
  -47.6827  -28.7338    2.0225 C   0  0  0  0  0  0  0  0  0  0  0  0
  -48.4684  -28.8710    3.1613 C   0  0  0  0  0  0  0  0  0  0  0  0
  -45.7535  -29.0383    3.3802 C   0  0  0  0  0  0  0  0  0  0  0  0
  -43.7845  -32.5865    2.0798 C   0  0  0  0  0  0  0  0  0  0  0  0
  -46.2986  -28.8177    2.1251 C   0  0  0  0  0  0  0  0  0  0  0  0
  -43.2128  -31.5192    1.4339 C   0  0  0  0  0  0  0  0  0  0  0  0
  -47.8268  -29.0893    4.3698 C   0  0  0  0  0  0  0  0  0  0  0  0
  -43.5368  -27.2624    1.2873 C   0  0  0  0  0  0  0  0  0  0  0  0
  -44.4277  -26.6569    0.2250 C   0  0  0  0  0  0  0  0  0  0  0  0
  -45.4132  -28.6722    0.9022 C   0  0  2  0  0  0  0  0  0  0  0  0
  -43.9198  -28.7287    1.2502 C   0  0  1  0  0  0  0  0  0  0  0  0
  -41.2399  -30.0888    2.0824 C   0  0  0  0  0  0  0  0  0  0  0  0
  -49.9913  -29.1355    5.3545 C   0  0  0  0  0  0  0  0  0  0  0  0
  -43.5373  -30.8229    0.1434 C   0  0  0  0  0  0  0  0  0  0  0  0
  -46.4850  -29.1767    4.5087 N   0  0  0  0  0  0  0  0  0  0  0  0
  -43.1103  -32.8355    3.2428 N   0  0  0  0  0  0  0  0  0  0  0  0
  -42.1271  -31.9475    3.3420 N   0  0  0  0  0  0  0  0  0  0  0  0
  -42.1900  -31.1592    2.2567 N   0  0  0  0  0  0  0  0  0  0  0  0
  -43.1863  -29.4133    0.1830 N   0  0  0  0  0  0  0  0  0  0  0  0
  -45.6489  -27.4079    0.2463 O   0  0  0  0  0  0  0  0  0  0  0  0
  -48.5796  -29.2281    5.5063 O   0  0  0  0  0  0  0  0  0  0  0  0
  -48.1562  -28.5624    1.0597 H   0  0  0  0  0  0  0  0  0  0  0  0
  -49.5493  -28.8069    3.0977 H   0  0  0  0  0  0  0  0  0  0  0  0
  -44.6798  -29.1132    3.5224 H   0  0  0  0  0  0  0  0  0  0  0  0
  -44.6331  -33.1805    1.7753 H   0  0  0  0  0  0  0  0  0  0  0  0
  -42.4747  -27.0618    1.1165 H   0  0  0  0  0  0  0  0  0  0  0  0
  -43.7988  -26.8440    2.2671 H   0  0  0  0  0  0  0  0  0  0  0  0
  -44.6434  -25.6011    0.4114 H   0  0  0  0  0  0  0  0  0  0  0  0
  -43.9886  -26.7497   -0.7739 H   0  0  0  0  0  0  0  0  0  0  0  0
  -45.7057  -29.4892    0.1959 H   0  0  0  0  0  0  0  0  0  0  0  0
  -43.7077  -29.2365    2.1893 H   0  0  0  0  0  0  0  0  0  0  0  0
  -41.6079  -29.1616    2.5344 H   0  0  0  0  0  0  0  0  0  0  0  0
  -41.0619  -29.9161    1.0164 H   0  0  0  0  0  0  0  0  0  0  0  0
  -40.2875  -30.3290    2.5662 H   0  0  0  0  0  0  0  0  0  0  0  0
  -50.4727  -29.2623    6.3277 H   0  0  0  0  0  0  0  0  0  0  0  0
  -50.2420  -28.1510    4.9521 H   0  0  0  0  0  0  0  0  0  0  0  0
  -50.3356  -29.9075    4.6626 H   0  0  0  0  0  0  0  0  0  0  0  0
  -42.9954  -31.2825   -0.6898 H   0  0  0  0  0  0  0  0  0  0  0  0
  -44.6059  -30.8955   -0.0841 H   0  0  0  0  0  0  0  0  0  0  0  0
  -43.4204  -28.9781   -0.7060 H   0  0  0  0  0  0  0  0  0  0  0  0
  1  2  2  0  0  0  0
  1  5  1  0  0  0  0
  2  7  1  0  0  0  0
  3  5  2  0  0  0  0
  3 15  1  0  0  0  0
  4  6  2  0  0  0  0
  4 16  1  0  0  0  0
  5 10  1  0  0  0  0
  6 14  1  0  0  0  0
  6 18  1  0  0  0  0
  7 15  2  0  0  0  0
  7 21  1  0  0  0  0
  8  9  1  0  0  0  0
  8 11  1  0  0  0  0
  9 20  1  0  0  0  0
 10 11  1  0  0  0  0
 10 20  1  0  0  0  0
 11 19  1  0  0  0  0
 12 18  1  0  0  0  0
 13 21  1  0  0  0  0
 14 19  1  0  0  0  0
 16 17  2  0  0  0  0
 17 18  1  0  0  0  0
  1 22  1  0  0  0  0
  2 23  1  0  0  0  0
  3 24  1  0  0  0  0
  4 25  1  0  0  0  0
  8 26  1  0  0  0  0
  8 27  1  0  0  0  0
  9 28  1  0  0  0  0
  9 29  1  0  0  0  0
 10 30  1  0  0  0  0
 11 31  1  0  0  0  0
 12 32  1  0  0  0  0
 12 33  1  0  0  0  0
 12 34  1  0  0  0  0
 13 35  1  0  0  0  0
 13 36  1  0  0  0  0
 13 37  1  0  0  0  0
 14 38  1  0  0  0  0
 14 39  1  0  0  0  0
 19 40  1  0  0  0  0
M  END
> <POSIT::Probability>
0.24

> <POSIT::Method>
FRED

> <ReceptorTitle>
UCSF-P4626-REFINED_LIGAND-BOUND-STATE_AALTB__DU__LA1_A-201(A)

> <OMEGA_C>
Crs+ws7e5cEYcQFAr99BwuH35sHyUkpAnAM3wmlO6MFxVFhAVyMvwpdYAsLMGgVAvDE5wpiK5sHs
AAhA8tkswl4n/MGMirc/ok4/wty26MFJ1YtAqiUuwmUZ2sHJx6Q/7bUxwlJB1cGEamY+Jqc1wrhg
5cFS9mY/6K0vwl3U5cFXBaA/ovUkwtK18MHkRQVAHfdHwm4V6cF1WKtAJSYuwmSV9sGY3BI+nfA5
wtZp6cGAR5BA9XAswohXA8LiiU9AL4IowoSU/8EI41VAkcIowgBG+cGSbRBAvr4swmVO68HgXjs+
hJg2wmpD28EEO3w+glFCwiPT6cGoM7BA7J9Awsp/5MHRo4c/djJGwnZ05sF7QUZAGbgywu7n6MGc
bmFARIgywt+4BMLJPOM/DuYpwox+2MHt544/ADIvwpzA1sEsGBFA4JIywvfOzMHgo9I+XfQvwl7/
1cHoIEa/ndI2wvjp68Gsk0g+uNQuwk7k6cGmHQxAd24mwuhK6cGIMyJAZT8kwiBU78FnGYI/XyYh
ws2h8sFCPSRAEeRJwjcZ6sF3fMpAxvdIwlM14cFMd55AqldJwqRC78EqNJVAQfsrwpRC+sFymDC/
cGwywuYp98GAOKy9dK4twizT58GgvzS/

> <OMEGA_E>
m3zXwA==

> <OMEGA_NBR>
     15103

$$$$
CACHE3HI_1708_29
  -OEChem-03092622533D

 40 42  0     1  0  0  0  0  0999 V2000
  -48.6227  -29.2977    3.6192 C   0  0  0  0  0  0  0  0  0  0  0  0
  -47.1062  -30.3003    2.4229 C   0  0  0  0  0  0  0  0  0  0  0  0
  -43.2689  -28.6502    0.8024 C   0  0  0  0  0  0  0  0  0  0  0  0
  -44.4932  -28.4454    1.6957 C   0  0  0  0  0  0  0  0  0  0  0  0
  -42.1526  -29.1597    1.7140 C   0  0  0  0  0  0  0  0  0  0  0  0
  -45.8314  -31.5206    0.6764 C   0  0  0  0  0  0  0  0  0  0  0  0
  -45.1041  -32.8568    0.8399 C   0  0  0  0  0  0  0  0  0  0  0  0
  -43.5362  -31.5058    2.0195 C   0  0  0  0  0  0  0  0  0  0  0  0
  -44.2291  -29.2927    2.9403 C   0  0  1  0  0  0  0  0  0  0  0  0
  -44.6574  -30.7477    2.7461 C   0  0  1  0  0  0  0  0  0  0  0  0
  -42.7212  -29.1067    3.1281 C   0  0  1  0  0  0  0  0  0  0  0  0
  -49.9245  -29.4546    5.7558 C   0  0  0  0  0  0  0  0  0  0  0  0
  -49.1207  -28.5673    4.7974 C   0  0  0  0  0  0  0  0  0  0  0  0
  -47.2911  -29.6721    3.5635 N   0  0  0  0  0  0  0  0  0  0  0  0
  -49.4558  -29.5893    2.6205 N   0  0  0  0  0  0  0  0  0  0  0  0
  -45.9078  -30.8431    1.9697 N   0  0  3  0  0  0  0  0  0  0  0  0
  -43.9634  -32.8223    1.6961 O   0  0  0  0  0  0  0  0  0  0  0  0
  -42.1310  -30.0923    3.9510 O   0  0  0  0  0  0  0  0  0  0  0  0
  -48.5386  -30.4059    1.4836 S   0  0  0  0  0  0  0  0  0  0  0  0
  -43.4937  -29.3754    0.0137 H   0  0  0  0  0  0  0  0  0  0  0  0
  -42.9715  -27.7168    0.3145 H   0  0  0  0  0  0  0  0  0  0  0  0
  -44.6400  -27.3893    1.9455 H   0  0  0  0  0  0  0  0  0  0  0  0
  -45.3925  -28.7855    1.1673 H   0  0  0  0  0  0  0  0  0  0  0  0
  -41.8312  -30.1672    1.4221 H   0  0  0  0  0  0  0  0  0  0  0  0
  -41.2863  -28.4886    1.6335 H   0  0  0  0  0  0  0  0  0  0  0  0
  -45.2905  -30.8879   -0.0358 H   0  0  0  0  0  0  0  0  0  0  0  0
  -46.8312  -31.7065    0.2679 H   0  0  0  0  0  0  0  0  0  0  0  0
  -45.8044  -33.6466    1.1984 H   0  0  0  0  0  0  0  0  0  0  0  0
  -44.7579  -33.2097   -0.1553 H   0  0  0  0  0  0  0  0  0  0  0  0
  -43.2814  -30.9978    1.0865 H   0  0  0  0  0  0  0  0  0  0  0  0
  -42.6276  -31.5537    2.6268 H   0  0  0  0  0  0  0  0  0  0  0  0
  -44.7505  -28.8674    3.7844 H   0  0  0  0  0  0  0  0  0  0  0  0
  -44.7853  -31.2046    3.7303 H   0  0  0  0  0  0  0  0  0  0  0  0
  -42.4957  -28.1070    3.5992 H   0  0  0  0  0  0  0  0  0  0  0  0
  -49.3297  -30.3165    6.0769 H   0  0  0  0  0  0  0  0  0  0  0  0
  -50.8279  -29.8336    5.2664 H   0  0  0  0  0  0  0  0  0  0  0  0
  -50.2298  -28.9012    6.6493 H   0  0  0  0  0  0  0  0  0  0  0  0
  -49.7591  -27.7118    4.4999 H   0  0  0  0  0  0  0  0  0  0  0  0
  -48.2882  -28.1066    5.3662 H   0  0  0  0  0  0  0  0  0  0  0  0
  -41.1784  -29.9078    3.9679 H   0  0  0  0  0  0  0  0  0  0  0  0
  1 13  1  0  0  0  0
  1 14  1  0  0  0  0
  1 15  2  0  0  0  0
  2 14  2  0  0  0  0
  2 16  1  0  0  0  0
  2 19  1  0  0  0  0
  3  4  1  0  0  0  0
  3  5  1  0  0  0  0
  4  9  1  0  0  0  0
  5 11  1  0  0  0  0
  6  7  1  0  0  0  0
  6 16  1  0  0  0  0
  7 17  1  0  0  0  0
  8 10  1  0  0  0  0
  8 17  1  0  0  0  0
  9 10  1  0  0  0  0
  9 11  1  0  0  0  0
 10 16  1  0  0  0  0
 11 18  1  0  0  0  0
 12 13  1  0  0  0  0
 15 19  1  0  0  0  0
  3 20  1  0  0  0  0
  3 21  1  0  0  0  0
  4 22  1  0  0  0  0
  4 23  1  0  0  0  0
  5 24  1  0  0  0  0
  5 25  1  0  0  0  0
  6 26  1  0  0  0  0
  6 27  1  0  0  0  0
  7 28  1  0  0  0  0
  7 29  1  0  0  0  0
  8 30  1  0  0  0  0
  8 31  1  0  0  0  0
  9 32  1  0  0  0  0
 10 33  1  0  0  0  0
 11 34  1  0  0  0  0
 12 35  1  0  0  0  0
 12 36  1  0  0  0  0
 12 37  1  0  0  0  0
 13 38  1  0  0  0  0
 13 39  1  0  0  0  0
 18 40  1  0  0  0  0
M  END
> <POSIT::Probability>
0.24

> <POSIT::Method>
FRED

> <ReceptorTitle>
UCSF-P4626-REFINED_LIGAND-BOUND-STATE_AALTB__DU__LA1_A-201(A)

> <OMEGA_C>
m31Cwqxh6sH8oGdAxmw8wvxm8sExEBtAVhMtwo4z5cFcaE0/A/kxwjWQ48FSDtk/O5wowv5G6cFK
ZNs/VlM3wiUq/MEkJy0/nWo0wmJtA8LEBFc/FiUuwuYL/MGXPwFAjeowwnRX6sE0LTxAMKEywmH7
9cHkvy9Af+Iqwpna6MGaM0hAvbJHwvCi68GOL7hAnHtEwsCJ5MEWhJlAIio9wopg7cHPEGRAvdJF
wt+27MGNtSdAo6E3wrO+9sGEHfw/gdovwgdKA8LIGNk/K4YowgG98MGa3XxAfSdCwjI/88Fd570/
h/ktwuAA68EAB2A8xOIrwuy73cFACqE+Z48ywj0d28HSBfk/6JE1wqpI5sGEaJU/G1MnwndW8cHk
BbY/JiUlwpHo48EZF9E/eSk1wm4a98HAnBK9L1M7wtSm/cH0JYk+vjc3whWWBsKdZZk/HAgzwsDW
BMIQDx++KSAtwo3798FFE4s/ooIqwvpt/MEaHihAiQAzwnjw5sHkM3JAICQzwvGi+cF7vW5Ak/sp
wjDb4MG2WWZAl1FFwi6I8sFHdsJAyU9LwjCr7sFOhqhASOtIwp0158EWx9RAVAlHwr6x3cFY/49A
FydBwlDa4MFGuKtAprYkwitD78FJ8n1A

> <OMEGA_E>
3sbewA==

> <OMEGA_NBR>
     16415

$$$$
CACHE3HI_1708_83
  -OEChem-03092622533D

 37 39  0     1  0  0  0  0  0999 V2000
  -49.7906  -28.7334    3.7381 C   0  0  0  0  0  0  0  0  0  0  0  0
  -49.8510  -28.7618    5.1337 C   0  0  0  0  0  0  0  0  0  0  0  0
  -48.5668  -28.8565    3.0645 C   0  0  0  0  0  0  0  0  0  0  0  0
  -48.6952  -28.9129    5.9063 C   0  0  0  0  0  0  0  0  0  0  0  0
  -45.3711  -29.2658    4.7478 C   0  0  0  0  0  0  0  0  0  0  0  0
  -47.3923  -29.0107    3.8222 C   0  0  0  0  0  0  0  0  0  0  0  0
  -46.0099  -29.1622    3.5342 C   0  0  0  0  0  0  0  0  0  0  0  0
  -47.4943  -29.0334    5.2093 C   0  0  0  0  0  0  0  0  0  0  0  0
  -42.9273  -31.2206    2.1260 C   0  0  0  0  0  0  0  0  0  0  0  0
  -45.9037  -30.3562    1.3734 C   0  0  0  0  0  0  0  0  0  0  0  0
  -45.2608  -32.7159    0.7054 C   0  0  0  0  0  0  0  0  0  0  0  0
  -44.4981  -33.2610   -0.4915 C   0  0  0  0  0  0  0  0  0  0  0  0
  -42.8403  -31.5976   -0.3400 C   0  0  0  0  0  0  0  0  0  0  0  0
  -43.5625  -30.8961    0.8055 C   0  0  1  0  0  0  0  0  0  0  0  0
  -45.3662  -29.2029    2.1835 C   0  0  0  0  0  0  0  0  0  0  0  0
  -44.9682  -31.2928    0.9210 N   0  0  0  0  0  0  0  0  0  0  0  0
  -41.6044  -30.8494    2.1914 N   0  0  0  0  0  0  0  0  0  0  0  0
  -43.5367  -31.7781    3.0346 O   0  0  0  0  0  0  0  0  0  0  0  0
  -47.1147  -30.4268    1.1517 O   0  0  0  0  0  0  0  0  0  0  0  0
  -46.2623  -29.1885    5.7704 O   0  0  0  0  0  0  0  0  0  0  0  0
  -43.1044  -33.0002   -0.3493 O   0  0  0  0  0  0  0  0  0  0  0  0
  -50.7057  -28.6139    3.1639 H   0  0  0  0  0  0  0  0  0  0  0  0
  -50.8141  -28.6647    5.6288 H   0  0  0  0  0  0  0  0  0  0  0  0
  -48.5378  -28.8328    1.9793 H   0  0  0  0  0  0  0  0  0  0  0  0
  -48.7337  -28.9352    6.9888 H   0  0  0  0  0  0  0  0  0  0  0  0
  -44.3387  -29.3914    5.0408 H   0  0  0  0  0  0  0  0  0  0  0  0
  -46.3292  -32.8936    0.5692 H   0  0  0  0  0  0  0  0  0  0  0  0
  -44.9493  -33.2360    1.6187 H   0  0  0  0  0  0  0  0  0  0  0  0
  -44.6288  -34.3461   -0.5514 H   0  0  0  0  0  0  0  0  0  0  0  0
  -44.8639  -32.8313   -1.4317 H   0  0  0  0  0  0  0  0  0  0  0  0
  -43.1392  -31.1725   -1.3058 H   0  0  0  0  0  0  0  0  0  0  0  0
  -41.7562  -31.4717   -0.2472 H   0  0  0  0  0  0  0  0  0  0  0  0
  -43.4856  -29.8106    0.6791 H   0  0  0  0  0  0  0  0  0  0  0  0
  -44.2871  -29.3292    2.2652 H   0  0  0  0  0  0  0  0  0  0  0  0
  -45.5610  -28.2867    1.6267 H   0  0  0  0  0  0  0  0  0  0  0  0
  -41.1801  -30.4070    1.3831 H   0  0  0  0  0  0  0  0  0  0  0  0
  -41.0373  -31.0023    3.0195 H   0  0  0  0  0  0  0  0  0  0  0  0
  1  2  1  0  0  0  0
  1  3  2  0  0  0  0
  2  4  2  0  0  0  0
  3  6  1  0  0  0  0
  4  8  1  0  0  0  0
  5  7  2  0  0  0  0
  5 20  1  0  0  0  0
  6  7  1  0  0  0  0
  6  8  2  0  0  0  0
  7 15  1  0  0  0  0
  8 20  1  0  0  0  0
  9 14  1  0  0  0  0
  9 17  1  0  0  0  0
  9 18  2  0  0  0  0
 10 15  1  0  0  0  0
 10 16  1  0  0  0  0
 10 19  2  0  0  0  0
 11 12  1  0  0  0  0
 11 16  1  0  0  0  0
 12 21  1  0  0  0  0
 13 14  1  0  0  0  0
 13 21  1  0  0  0  0
 14 16  1  0  0  0  0
  1 22  1  0  0  0  0
  2 23  1  0  0  0  0
  3 24  1  0  0  0  0
  4 25  1  0  0  0  0
  5 26  1  0  0  0  0
 11 27  1  0  0  0  0
 11 28  1  0  0  0  0
 12 29  1  0  0  0  0
 12 30  1  0  0  0  0
 13 31  1  0  0  0  0
 13 32  1  0  0  0  0
 14 33  1  0  0  0  0
 15 34  1  0  0  0  0
 15 35  1  0  0  0  0
 17 36  1  0  0  0  0
 17 37  1  0  0  0  0
M  END
> <POSIT::Probability>
0.18

> <POSIT::Method>
HYBRID

> <ReceptorTitle>
UCSF-P4626-REFINED_LIGAND-BOUND-STATE_AALTB__DU__LA1_A-201(A)

> <OMEGA_C>
kylHwuzd5cEuPW9AdmdHwkQY5sEkR6RAW0RCwhHa5sG8IERA4cdCwqhN58ERAL1A+3s1wl0g6sE6
7pdAtZE9wuwV6MFmnnRAHAo4wkNM6cF6MGJAIPo9wmJE6MFosqZAirUrwrrD+cGrEAhAXJ03wobZ
8sEEy68/DQs1whrdAsLokjQ/D/4xwkILBcIQp/u+fVwrwufH/MHgFK6+B0Auwksr98EwM04/8XY1
wpif6cEEvgtAY98zwrJX+sHIxWs/3GomwpbL9sF+QAxAjiUuwoI5/sFdNkJAenU8wiVq88EYa5M/
ogw5wg+C6cG4prhA3Goswi4ABMKo27K+qNJKwk3p5MGKfEpArkFLwlVR5cEGH7RAuiZCwpap5sHA
Wv0/UO9Cwj9758H4o99Azloxwpkh68FyTqFAH1E5whiTA8LYtxE/Fcwzwq7xBMJOMs8/5IMywm5i
CcLsKQ2/onQzwkxTA8I0Qre/iI4swjhh+cHCJKe/UQYnwgTG+8EQKX2+R/EtwjR87sE82S0//CUx
wiWi6sFe+RBAez42wh5L4sGQN9A/a7gkwplB88HiCrE/PCYkwqEE+MEsP0FA

> <OMEGA_E>
BL3AwA==

> <OMEGA_NBR>
     17660

$$$$
CACHE3HI_1708_95
  -OEChem-03092622533D

 38 40  0     1  0  0  0  0  0999 V2000
  -48.2049  -28.8205    6.5366 C   0  0  0  0  0  0  0  0  0  0  0  0
  -47.8235  -29.2645    3.8380 C   0  0  0  0  0  0  0  0  0  0  0  0
  -44.6235  -28.8854    6.3412 C   0  0  0  0  0  0  0  0  0  0  0  0
  -46.9060  -28.9131    6.0424 C   0  0  0  0  0  0  0  0  0  0  0  0
  -46.7117  -29.1391    4.6674 C   0  0  0  0  0  0  0  0  0  0  0  0
  -49.3099  -28.9473    5.6982 C   0  0  0  0  0  0  0  0  0  0  0  0
  -49.1197  -29.1699    4.3424 C   0  0  0  0  0  0  0  0  0  0  0  0
  -44.4334  -29.1057    5.0026 C   0  0  0  0  0  0  0  0  0  0  0  0
  -43.0867  -28.5519    0.7595 C   0  0  0  0  0  0  0  0  0  0  0  0
  -43.3571  -28.2934    2.2414 C   0  0  0  0  0  0  0  0  0  0  0  0
  -43.6325  -29.9052    0.3181 C   0  0  0  0  0  0  0  0  0  0  0  0
  -43.3720  -30.7841    2.6717 C   0  0  0  0  0  0  0  0  0  0  0  0
  -42.8124  -29.4293    3.1163 C   0  0  2  0  0  0  0  0  0  0  0  0
  -43.0986  -31.0402    1.1891 C   0  0  1  0  0  0  0  0  0  0  0  0
  -45.1390  -32.1814    0.9396 C   0  0  0  0  0  0  0  0  0  0  0  0
  -45.8552  -28.7876    6.8716 N   0  0  0  0  0  0  0  0  0  0  0  0
  -45.4718  -29.2335    4.1563 N   0  0  0  0  0  0  0  0  0  0  0  0
  -43.1394  -29.1960    4.5229 N   0  0  0  0  0  0  0  0  0  0  0  0
  -43.7282  -32.2537    0.7891 O   0  0  0  0  0  0  0  0  0  0  0  0
  -50.5487  -28.8545    6.1985 F   0  0  0  0  0  0  0  0  0  0  0  0
  -50.1722  -29.2934    3.5240 F   0  0  0  0  0  0  0  0  0  0  0  0
  -48.3699  -28.6458    7.5979 H   0  0  0  0  0  0  0  0  0  0  0  0
  -47.6878  -29.4392    2.7724 H   0  0  0  0  0  0  0  0  0  0  0  0
  -43.8022  -28.7776    7.0402 H   0  0  0  0  0  0  0  0  0  0  0  0
  -43.5409  -27.7561    0.1583 H   0  0  0  0  0  0  0  0  0  0  0  0
  -42.0059  -28.5158    0.5747 H   0  0  0  0  0  0  0  0  0  0  0  0
  -42.8968  -27.3409    2.5303 H   0  0  0  0  0  0  0  0  0  0  0  0
  -44.4394  -28.1879    2.3928 H   0  0  0  0  0  0  0  0  0  0  0  0
  -44.7296  -29.8946    0.3556 H   0  0  0  0  0  0  0  0  0  0  0  0
  -43.3741  -30.0906   -0.7314 H   0  0  0  0  0  0  0  0  0  0  0  0
  -42.9316  -31.5941    3.2672 H   0  0  0  0  0  0  0  0  0  0  0  0
  -44.4546  -30.8325    2.8538 H   0  0  0  0  0  0  0  0  0  0  0  0
  -41.7141  -29.4536    3.0287 H   0  0  0  0  0  0  0  0  0  0  0  0
  -42.0206  -31.1526    1.0225 H   0  0  0  0  0  0  0  0  0  0  0  0
  -45.5891  -33.1264    0.6246 H   0  0  0  0  0  0  0  0  0  0  0  0
  -45.3757  -32.0002    1.9908 H   0  0  0  0  0  0  0  0  0  0  0  0
  -45.5292  -31.3602    0.3341 H   0  0  0  0  0  0  0  0  0  0  0  0
  -42.3736  -29.0963    5.1770 H   0  0  0  0  0  0  0  0  0  0  0  0
  1  4  1  0  0  0  0
  1  6  2  0  0  0  0
  2  5  1  0  0  0  0
  2  7  2  0  0  0  0
  3  8  1  0  0  0  0
  3 16  2  0  0  0  0
  4  5  2  0  0  0  0
  4 16  1  0  0  0  0
  5 17  1  0  0  0  0
  6  7  1  0  0  0  0
  6 20  1  0  0  0  0
  7 21  1  0  0  0  0
  8 17  2  0  0  0  0
  8 18  1  0  0  0  0
  9 10  1  0  0  0  0
  9 11  1  0  0  0  0
 10 13  1  0  0  0  0
 11 14  1  0  0  0  0
 12 13  1  0  0  0  0
 12 14  1  0  0  0  0
 13 18  1  0  0  0  0
 14 19  1  0  0  0  0
 15 19  1  0  0  0  0
  1 22  1  0  0  0  0
  2 23  1  0  0  0  0
  3 24  1  0  0  0  0
  9 25  1  0  0  0  0
  9 26  1  0  0  0  0
 10 27  1  0  0  0  0
 10 28  1  0  0  0  0
 11 29  1  0  0  0  0
 11 30  1  0  0  0  0
 12 31  1  0  0  0  0
 12 32  1  0  0  0  0
 13 33  1  0  0  0  0
 14 34  1  0  0  0  0
 15 35  1  0  0  0  0
 15 36  1  0  0  0  0
 15 37  1  0  0  0  0
 18 38  1  0  0  0  0
M  END
> <POSIT::Probability>
0.33

> <POSIT::Method>
HYBRID

> <ReceptorTitle>
UCSF-P4626-REFINED_LIGAND-BOUND-STATE_AALTB__DU__LA1_A-201(A)

> <OMEGA_C>
zNFAwnaQ5sHXK9FAUEs/wr4d6sEvoXVAgn4ywl4V58Ej68pAtp87wgZO58EUW8FA1Ng6wvEc6cEX
W5VAYj1FwviT58HOV7ZAjHpEwgRc6cGJ9IpAyrsxwnrY6MGbFaBA0FgswjNq5ME9bUI/t20tws1Y
4sHscg9AtYcuwss978HU4aI+9XwtwsVF9sGK/SpA8j8rwkZv68EuckdA7WQswlxS+MGUNZg/U440
ws25AMJpjHA/w2s3wv5M5sH349tAH+M1wjre6cFqAIVAvo4swlmR6cG/u5BAtukuwsYDAcKQAko/
4DFKwhbW5sHBWcZAYbBIwvtY6sEAimFAx3pBwpoq5cFGIvNAVcA+wm2D68GVbzFAdDUvwoY45sHs
SOFA2ikuwpIM3sFqEyI+EAYowlYg5MElHRM/UZYrwkK62sE98SFA7cExwuqA4cHEIxlAI+sywgoo
78EkFLY+IH8twnW58MEkQDu/+LkrwrnA/MFgGlFAjdExwvGo9sEapTZARtsmwgCh68H41UFAEBUo
wnU4+cFC4YI/Q1s2wnWBBML25R8/uoA1wjQAAMLo0/4/7R02wqHh+sHWFKs+kn4pwijF6MFAqqVA

> <OMEGA_E>
K4T3wA==

> <OMEGA_NBR>
     18928

$$$$
CACHE3HI_1715_79
  -OEChem-03092622533D

 33 36  0     1  0  0  0  0  0999 V2000
  -48.2594  -29.0386    3.4291 C   0  0  0  0  0  0  0  0  0  0  0  0
  -49.6673  -28.9106    3.3041 C   0  0  0  0  0  0  0  0  0  0  0  0
  -49.9147  -28.8528    5.7453 C   0  0  0  0  0  0  0  0  0  0  0  0
  -44.0657  -29.4618    6.6515 C   0  0  0  0  0  0  0  0  0  0  0  0
  -47.7171  -29.0779    4.7290 C   0  0  0  0  0  0  0  0  0  0  0  0
  -46.3314  -29.2203    5.1975 C   0  0  0  0  0  0  0  0  0  0  0  0
  -48.5244  -28.9856    5.8709 C   0  0  0  0  0  0  0  0  0  0  0  0
  -50.4898  -28.8205    4.4594 C   0  0  0  0  0  0  0  0  0  0  0  0
  -46.3753  -29.2111    6.5948 C   0  0  0  0  0  0  0  0  0  0  0  0
  -45.0907  -29.3574    4.5294 C   0  0  0  0  0  0  0  0  0  0  0  0
  -43.3027  -28.0085    1.9165 C   0  0  0  0  0  0  0  0  0  0  0  0
  -43.7727  -28.1074    0.4735 C   0  0  0  0  0  0  0  0  0  0  0  0
  -43.6376  -30.3034    1.2267 C   0  0  0  0  0  0  0  0  0  0  0  0
  -43.6233  -29.3935    2.4653 C   0  0  2  0  0  0  0  0  0  0  0  0
  -45.2432  -29.3364    7.3091 N   0  0  0  0  0  0  0  0  0  0  0  0
  -43.9746  -29.4687    5.2965 N   0  0  0  0  0  0  0  0  0  0  0  0
  -47.7007  -29.0601    6.9876 N   0  0  0  0  0  0  0  0  0  0  0  0
  -44.9644  -29.4067    3.1396 N   0  0  0  0  0  0  0  0  0  0  0  0
  -43.4346  -29.4500    0.0755 O   0  0  0  0  0  0  0  0  0  0  0  0
  -51.8330  -28.7080    4.3406 F   0  0  0  0  0  0  0  0  0  0  0  0
  -47.6251  -29.1036    2.5574 H   0  0  0  0  0  0  0  0  0  0  0  0
  -50.1173  -28.8815    2.3228 H   0  0  0  0  0  0  0  0  0  0  0  0
  -50.5377  -28.7762    6.6242 H   0  0  0  0  0  0  0  0  0  0  0  0
  -43.1593  -29.5608    7.2303 H   0  0  0  0  0  0  0  0  0  0  0  0
  -42.2239  -27.8001    1.9694 H   0  0  0  0  0  0  0  0  0  0  0  0
  -43.8541  -27.2280    2.4612 H   0  0  0  0  0  0  0  0  0  0  0  0
  -44.8583  -27.9435    0.4060 H   0  0  0  0  0  0  0  0  0  0  0  0
  -43.2510  -27.3720   -0.1566 H   0  0  0  0  0  0  0  0  0  0  0  0
  -42.8294  -31.0465    1.2939 H   0  0  0  0  0  0  0  0  0  0  0  0
  -44.6054  -30.8203    1.1484 H   0  0  0  0  0  0  0  0  0  0  0  0
  -42.8369  -29.7179    3.1628 H   0  0  0  0  0  0  0  0  0  0  0  0
  -48.0153  -29.0122    7.9357 H   0  0  0  0  0  0  0  0  0  0  0  0
  -45.4177  -30.2484    2.8463 H   0  0  0  0  0  0  0  0  0  0  0  0
  1  2  1  0  0  0  0
  1  5  2  0  0  0  0
  2  8  2  0  0  0  0
  3  7  2  0  0  0  0
  3  8  1  0  0  0  0
  4 15  1  0  0  0  0
  4 16  2  0  0  0  0
  5  6  1  0  0  0  0
  5  7  1  0  0  0  0
  6  9  1  0  0  0  0
  6 10  2  0  0  0  0
  7 17  1  0  0  0  0
  8 20  1  0  0  0  0
  9 15  2  0  0  0  0
  9 17  1  0  0  0  0
 10 16  1  0  0  0  0
 10 18  1  0  0  0  0
 11 12  1  0  0  0  0
 11 14  1  0  0  0  0
 12 19  1  0  0  0  0
 13 14  1  0  0  0  0
 13 19  1  0  0  0  0
 14 18  1  0  0  0  0
  1 21  1  0  0  0  0
  2 22  1  0  0  0  0
  3 23  1  0  0  0  0
  4 24  1  0  0  0  0
 11 25  1  0  0  0  0
 11 26  1  0  0  0  0
 12 27  1  0  0  0  0
 12 28  1  0  0  0  0
 13 29  1  0  0  0  0
 13 30  1  0  0  0  0
 14 31  1  0  0  0  0
 17 32  1  0  0  0  0
 18 33  1  0  0  0  0
M  END
> <POSIT::Probability>
0.99

> <POSIT::Method>
SHAPEFIT

> <ReceptorTitle>
UCSF-P4626_LA2_MERGED(A)

> <OMEGA_C>
oAlBwv5O6MG8dltASatGwvxI58Esd1NArKhHwpbS5sFE2bdAT0Mwwtmx68EW2dRAW94+wnif6MG+
U5dAZVM5wjXD6cGOUaZA/hhCwoLi58F83rtAhfVJwmqQ5sGFs45AT4A5wkWw6cGKCNNA4Fw0wuvb
6sE58ZBA+jUtwmcR4MFjTvU/OxcvwuXb4MGGbfI+8YwuwlRt8sESBZ0/PH4uwuol68E8yB1AEPk0
wvqw6sHq4+lACOYvwuC/68FLfalAjs0+wht76MGymt9AlNszwuNA68Ea70hAE70twoGZ68Egqpo9
8VRPwhSq5cFi5opAJoA+wi7U6MF+rCNAH3hIwmAN58H0qBRAjiZKwqk15sFP+dNAHqMswnN87MFy
XudATOUowrJm3sHCFvw/mGovwtvS2cEUhB1A6m4zwkKM38FW4s8+BQEtwtv52sF+ZiC+SFErwjVf
+MHbnaU/9Wsywg+Q9sE3/ZI/CVkrwkK+7cGQa0pAqw9AwucY6MHp8P1AvKs1wsb88cEQKjZA

> <OMEGA_E>
QEpsPQ==

> <OMEGA_NBR>
     20047

$$$$
CACHE3HI_1689_32
  -OEChem-03092622523D

 40 41  0     0  0  0  0  0  0999 V2000
  -44.3069  -29.0919    4.6327 C   0  0  0  0  0  0  0  0  0  0  0  0
  -46.5813  -29.8407    4.4055 C   0  0  0  0  0  0  0  0  0  0  0  0
  -44.4981  -29.1009    6.0054 C   0  0  0  0  0  0  0  0  0  0  0  0
  -45.3735  -29.4701    3.8249 C   0  0  0  0  0  0  0  0  0  0  0  0
  -46.6709  -29.8164    5.7880 C   0  0  0  0  0  0  0  0  0  0  0  0
  -54.9467  -29.1377    7.0485 C   0  0  0  0  0  0  0  0  0  0  0  0
  -53.4388  -28.3299    8.2446 C   0  0  0  0  0  0  0  0  0  0  0  0
  -49.1586  -30.0456    5.8209 C   0  0  0  0  0  0  0  0  0  0  0  0
  -50.2287  -30.5859    6.7215 C   0  0  0  0  0  0  0  0  0  0  0  0
  -55.5981  -29.9060    5.9811 C   0  0  0  0  0  0  0  0  0  0  0  0
  -52.1523  -27.9100    8.9097 C   0  0  0  0  0  0  0  0  0  0  0  0
  -51.5787  -29.0244    9.7887 C   0  0  0  0  0  0  0  0  0  0  0  0
  -51.2451  -30.2631    8.9586 C   0  0  0  0  0  0  0  0  0  0  0  0
  -45.2221  -29.4787    2.3418 C   0  0  0  0  0  0  0  0  0  0  0  0
  -45.6568  -29.4548    6.6054 N   0  0  0  0  0  0  0  0  0  0  0  0
  -53.5897  -29.1123    7.2015 N   0  0  0  0  0  0  0  0  0  0  0  0
  -55.6441  -28.4202    7.9315 N   0  0  0  0  0  0  0  0  0  0  0  0
  -54.6562  -27.9137    8.6848 N   0  0  0  0  0  0  0  0  0  0  0  0
  -47.9033  -30.1953    6.3694 N   0  0  0  0  0  0  0  0  0  0  0  0
  -50.2828  -29.9347    7.9324 N   0  0  0  0  0  0  0  0  0  0  0  0
  -49.5227  -29.5765    4.7555 O   0  0  0  0  0  0  0  0  0  0  0  0
  -50.9237  -31.4975    6.3014 O   0  0  0  0  0  0  0  0  0  0  0  0
  -44.7781  -30.6721    1.8447 F   0  0  0  0  0  0  0  0  0  0  0  0
  -44.3334  -28.5497    1.8779 F   0  0  0  0  0  0  0  0  0  0  0  0
  -43.3523  -28.7975    4.2102 H   0  0  0  0  0  0  0  0  0  0  0  0
  -47.4242  -30.1390    3.7894 H   0  0  0  0  0  0  0  0  0  0  0  0
  -43.6978  -28.8141    6.6795 H   0  0  0  0  0  0  0  0  0  0  0  0
  -55.8403  -30.9402    6.2920 H   0  0  0  0  0  0  0  0  0  0  0  0
  -54.9587  -30.0070    5.0832 H   0  0  0  0  0  0  0  0  0  0  0  0
  -56.5430  -29.4314    5.6584 H   0  0  0  0  0  0  0  0  0  0  0  0
  -51.4237  -27.6209    8.1420 H   0  0  0  0  0  0  0  0  0  0  0  0
  -52.3308  -27.0090    9.5097 H   0  0  0  0  0  0  0  0  0  0  0  0
  -52.3010  -29.2859   10.5731 H   0  0  0  0  0  0  0  0  0  0  0  0
  -50.6752  -28.6661   10.2993 H   0  0  0  0  0  0  0  0  0  0  0  0
  -50.8363  -31.0505    9.6009 H   0  0  0  0  0  0  0  0  0  0  0  0
  -52.1516  -30.6546    8.4853 H   0  0  0  0  0  0  0  0  0  0  0  0
  -46.1879  -29.2687    1.8629 H   0  0  0  0  0  0  0  0  0  0  0  0
  -54.8882  -27.3079    9.4632 H   0  0  0  0  0  0  0  0  0  0  0  0
  -47.8582  -30.6242    7.2908 H   0  0  0  0  0  0  0  0  0  0  0  0
  -49.6203  -29.1900    8.1264 H   0  0  0  0  0  0  0  0  0  0  0  0
  1  3  2  0  0  0  0
  1  4  1  0  0  0  0
  2  4  2  0  0  0  0
  2  5  1  0  0  0  0
  3 15  1  0  0  0  0
  4 14  1  0  0  0  0
  5 15  2  0  0  0  0
  5 19  1  0  0  0  0
  6 10  1  0  0  0  0
  6 16  1  0  0  0  0
  6 17  2  0  0  0  0
  7 11  1  0  0  0  0
  7 16  2  0  0  0  0
  7 18  1  0  0  0  0
  8  9  1  0  0  0  0
  8 19  1  0  0  0  0
  8 21  2  0  0  0  0
  9 20  1  0  0  0  0
  9 22  2  0  0  0  0
 11 12  1  0  0  0  0
 12 13  1  0  0  0  0
 13 20  1  0  0  0  0
 14 23  1  0  0  0  0
 14 24  1  0  0  0  0
 17 18  1  0  0  0  0
  1 25  1  0  0  0  0
  2 26  1  0  0  0  0
  3 27  1  0  0  0  0
 10 28  1  0  0  0  0
 10 29  1  0  0  0  0
 10 30  1  0  0  0  0
 11 31  1  0  0  0  0
 11 32  1  0  0  0  0
 12 33  1  0  0  0  0
 12 34  1  0  0  0  0
 13 35  1  0  0  0  0
 13 36  1  0  0  0  0
 14 37  1  0  0  0  0
 18 38  1  0  0  0  0
 19 39  1  0  0  0  0
 20 40  1  0  0  0  0
M  END
> <POSIT::Probability>
0.23

> <POSIT::Method>
HYBRID

> <ReceptorTitle>
UCSF-P4629-REFINED_LIGAND-BOUND-STATE_AALTB__DU__LA1_A-201(A)

> <OMEGA_C>
Tjoxwh286MH/PpRAQFM6wqu57sEp+oxACP4xwrPO6MFwLMBAf341wtrC68E2y3RABK86wgaI7sEZ
N7lAX8lbwhUa6cE7jeFATMFVwp+j4sEV6gNBc6JEwlld8MH8RLpAMOpIwuiv9MHWFtdAbmRewmo/
78FiZb9A7JtQwpdH38FBjg5Bm1BOwg4y6MGjnhxBAvtMwu4a8sGfVg9Be+M0wmzU68HY4BVAkqA2
wmuj68GeX9NA41tWwvzl6MHUcuZAiZNewqZc48EOz/1A/59awjhP38Hp9ApB/5w/wgmQ8cFS0stA
lyFJwk5678FC1v1ASRdGwrOc7MHRLJhA5LFLwtL6+8EXpclAzRwzwolg9cEAIOw/YlUxwuJl5MHQ
XfA/v2gtwlhh5sH6uYZAV7I9wqUc8cF6hXJAf8ouwj+D5sG+vtVAa1xfwpGF98HUV8lArNVbwmsO
8MHIqaJAAixiwphz68HzEbVA1rFNwqb33MGiRQJByFJRwm4S2MHaJxhBNzRRwotJ6sFcKylBXrNK
wkZU5cEUyiRBa1hLwnZn+MFenRlBPJtQwpg89cHQwwdBX8A4wmEm6sGwdO4/gY1bwnx22sFHaRdB
2G4/wkb+9MGBTulAKXtGwhOF6cHlBQJB

> <OMEGA_E>
cGGnwA==

> <OMEGA_NBR>
      1300

$$$$
CACHE3HI_1694_1
  -OEChem-03092622523D

 44 46  0     1  0  0  0  0  0999 V2000
  -51.6845  -28.8694    9.9419 C   0  0  0  0  0  0  0  0  0  0  0  0
  -50.9127  -29.7031    9.1326 C   0  0  0  0  0  0  0  0  0  0  0  0
  -52.8567  -28.3029    9.4415 C   0  0  0  0  0  0  0  0  0  0  0  0
  -43.9705  -29.7241    4.2827 C   0  0  0  0  0  0  0  0  0  0  0  0
  -44.7212  -29.8503    3.1231 C   0  0  0  0  0  0  0  0  0  0  0  0
  -51.3130  -29.9705    7.8234 C   0  0  0  0  0  0  0  0  0  0  0  0
  -53.2570  -28.5703    8.1322 C   0  0  0  0  0  0  0  0  0  0  0  0
  -44.6080  -29.4375    5.4875 C   0  0  0  0  0  0  0  0  0  0  0  0
  -46.1045  -29.6874    3.1802 C   0  0  0  0  0  0  0  0  0  0  0  0
  -52.4853  -29.4040    7.3229 C   0  0  0  0  0  0  0  0  0  0  0  0
  -45.9895  -29.2734    5.5552 C   0  0  0  0  0  0  0  0  0  0  0  0
  -46.7519  -29.4009    4.3796 C   0  0  0  0  0  0  0  0  0  0  0  0
  -47.9183  -28.8486    6.7378 C   0  0  0  0  0  0  0  0  0  0  0  0
  -48.6615  -28.9723    5.5938 C   0  0  0  0  0  0  0  0  0  0  0  0
  -52.3658  -28.6962    4.8698 C   0  0  0  0  0  0  0  0  0  0  0  0
  -50.7179  -30.3015    3.8390 C   0  0  0  0  0  0  0  0  0  0  0  0
  -52.9193  -29.6933    5.9048 C   0  0  2  0  0  0  0  0  0  0  0  0
  -50.8956  -28.9258    4.4845 C   0  0  2  0  0  0  0  0  0  0  0  0
  -46.5820  -28.9970    6.7299 N   0  0  0  0  0  0  0  0  0  0  0  0
  -48.0874  -29.2492    4.4086 N   0  0  0  0  0  0  0  0  0  0  0  0
  -48.5571  -28.5580    7.9639 N   0  0  0  0  0  0  0  0  0  0  0  0
  -50.0350  -28.8126    5.6419 N   0  0  0  0  0  0  0  0  0  0  0  0
  -51.8186  -30.5905    2.9842 O   0  0  0  0  0  0  0  0  0  0  0  0
  -54.3484  -29.6554    5.8648 O   0  0  0  0  0  0  0  0  0  0  0  0
  -51.3728  -28.6611   10.9612 H   0  0  0  0  0  0  0  0  0  0  0  0
  -50.0001  -30.1446    9.5223 H   0  0  0  0  0  0  0  0  0  0  0  0
  -53.4576  -27.6535   10.0713 H   0  0  0  0  0  0  0  0  0  0  0  0
  -42.8926  -29.8490    4.2523 H   0  0  0  0  0  0  0  0  0  0  0  0
  -44.2363  -30.0724    2.1774 H   0  0  0  0  0  0  0  0  0  0  0  0
  -50.7051  -30.6212    7.2003 H   0  0  0  0  0  0  0  0  0  0  0  0
  -54.1724  -28.1251    7.7515 H   0  0  0  0  0  0  0  0  0  0  0  0
  -44.0059  -29.3414    6.3890 H   0  0  0  0  0  0  0  0  0  0  0  0
  -46.6817  -29.7875    2.2633 H   0  0  0  0  0  0  0  0  0  0  0  0
  -52.9922  -28.7513    3.9688 H   0  0  0  0  0  0  0  0  0  0  0  0
  -52.4922  -27.6717    5.2441 H   0  0  0  0  0  0  0  0  0  0  0  0
  -49.7971  -30.3603    3.2493 H   0  0  0  0  0  0  0  0  0  0  0  0
  -50.6869  -31.0872    4.6011 H   0  0  0  0  0  0  0  0  0  0  0  0
  -52.6316  -30.7132    5.6279 H   0  0  0  0  0  0  0  0  0  0  0  0
  -50.5577  -28.1575    3.7806 H   0  0  0  0  0  0  0  0  0  0  0  0
  -49.5421  -28.3938    7.9704 H   0  0  0  0  0  0  0  0  0  0  0  0
  -47.9993  -28.4181    8.7803 H   0  0  0  0  0  0  0  0  0  0  0  0
  -50.4649  -28.6044    6.5347 H   0  0  0  0  0  0  0  0  0  0  0  0
  -51.6533  -31.4681    2.6052 H   0  0  0  0  0  0  0  0  0  0  0  0
  -54.5989  -29.8433    4.9487 H   0  0  0  0  0  0  0  0  0  0  0  0
  1  2  1  0  0  0  0
  1  3  2  0  0  0  0
  2  6  2  0  0  0  0
  3  7  1  0  0  0  0
  4  5  1  0  0  0  0
  4  8  2  0  0  0  0
  5  9  2  0  0  0  0
  6 10  1  0  0  0  0
  7 10  2  0  0  0  0
  8 11  1  0  0  0  0
  9 12  1  0  0  0  0
 10 17  1  0  0  0  0
 11 12  2  0  0  0  0
 11 19  1  0  0  0  0
 12 20  1  0  0  0  0
 13 14  1  0  0  0  0
 13 19  2  0  0  0  0
 13 21  1  0  0  0  0
 14 20  2  0  0  0  0
 14 22  1  0  0  0  0
 15 17  1  0  0  0  0
 15 18  1  0  0  0  0
 16 18  1  0  0  0  0
 16 23  1  0  0  0  0
 17 24  1  0  0  0  0
 18 22  1  0  0  0  0
  1 25  1  0  0  0  0
  2 26  1  0  0  0  0
  3 27  1  0  0  0  0
  4 28  1  0  0  0  0
  5 29  1  0  0  0  0
  6 30  1  0  0  0  0
  7 31  1  0  0  0  0
  8 32  1  0  0  0  0
  9 33  1  0  0  0  0
 15 34  1  0  0  0  0
 15 35  1  0  0  0  0
 16 36  1  0  0  0  0
 16 37  1  0  0  0  0
 17 38  1  0  0  0  0
 18 39  1  0  0  0  0
 21 40  1  0  0  0  0
 21 41  1  0  0  0  0
 22 42  1  0  0  0  0
 23 43  1  0  0  0  0
 24 44  1  0  0  0  0
M  END
> <POSIT::Probability>
0.23

> <POSIT::Method>
HYBRID

> <ReceptorTitle>
UCSF-P4629-REFINED_LIGAND-BOUND-STATE_AALTB__DU__LA1_A-201(A)

> <OMEGA_C>
4rxOwnj05sEcEh9BkaZLwvSf7cFKHxJBNm1TwkJs4sFDEBdBw+Evwv/K7cG8C4lAd+IywlDN7sEm
4EdAjUBNwpzD78EGWfpAMgdVwuqP5MF7HQJBlm4ywhaA68GAma9A9mo4wtV/7cEsiUtA7/BRwlI7
68FUVepAOfU3wvwv6sHqw7FA7QE7wh0168HXJYxAWaw/wurJ5sEfnNdAXKVCwlXH58ExALNAiHZR
wsaR5cG71ZtAJd9KwoVp8sG6sXVAU61TwuCL7cF+9LxAGZVLwhVo58HwgI9A61M6wt3558EdW9dA
i1lAwmn+6cH2Eo1AfjpCwtZ25MFy2P5A4iNIwjaA5sEoirRAREZPwj659MEa/T5AxGRZwls+7cHV
rLtAv31NwvZJ5cEJYS9BGwBIwioo8cFkWxhBltRVwnA63cEsJCFB/JErwrbK7sH3EohA+fEwwl+U
8MEGWgtAENJKwlH49MHPaOZAk7BYwh4A4cF5DPhA/wUwwji76sFacsxACbo6wr1M7sEw2hBA/vdT
wrAC5sGMAX5AC/hRwrNf3cHSz6dAMzBHwtDh8sH89E9AXr9Kwoay+MGYPJNAv4ZSwqu09cGtF7RA
GTtKwpxC4cEM9XFAJytGwpIm48FfDf9APf8/wkNY48EUfAxBFtxJwtHV5MGbHNFA+pxOwrG++8HC
uyZATWVawi2/7sGFW55A

> <OMEGA_E>
4E/bwA==

> <OMEGA_NBR>
      2686

$$$$
CACHE3HI_1694_2
  -OEChem-03092622523D

 42 44  0     1  0  0  0  0  0999 V2000
  -55.7014  -28.3246    9.5587 C   0  0  0  0  0  0  0  0  0  0  0  0
  -54.8580  -27.2188    9.6658 C   0  0  0  0  0  0  0  0  0  0  0  0
  -55.1625  -29.5950    9.3562 C   0  0  0  0  0  0  0  0  0  0  0  0
  -45.1907  -29.9174    3.4392 C   0  0  0  0  0  0  0  0  0  0  0  0
  -44.3200  -29.7710    4.5091 C   0  0  0  0  0  0  0  0  0  0  0  0
  -53.4760  -27.3833    9.5707 C   0  0  0  0  0  0  0  0  0  0  0  0
  -53.7805  -29.7596    9.2611 C   0  0  0  0  0  0  0  0  0  0  0  0
  -46.5564  -29.7227    3.6316 C   0  0  0  0  0  0  0  0  0  0  0  0
  -44.8252  -29.4313    5.7631 C   0  0  0  0  0  0  0  0  0  0  0  0
  -52.9371  -28.6538    9.3682 C   0  0  0  0  0  0  0  0  0  0  0  0
  -47.0710  -29.3828    4.8804 C   0  0  0  0  0  0  0  0  0  0  0  0
  -46.1889  -29.2342    5.9664 C   0  0  0  0  0  0  0  0  0  0  0  0
  -48.8356  -28.8732    6.2682 C   0  0  0  0  0  0  0  0  0  0  0  0
  -47.9776  -28.7285    7.3262 C   0  0  0  0  0  0  0  0  0  0  0  0
  -51.0153  -30.0109    8.3693 C   0  0  0  0  0  0  0  0  0  0  0  0
  -52.5291  -29.3414    6.4677 C   0  0  0  0  0  0  0  0  0  0  0  0
  -51.4403  -28.8324    9.2651 C   0  0  2  0  0  0  0  0  0  0  0  0
  -51.1025  -29.7302    6.8606 C   0  0  1  0  0  0  0  0  0  0  0  0
  -48.3931  -29.2002    5.0413 N   0  0  0  0  0  0  0  0  0  0  0  0
  -46.6512  -28.9063    7.1855 N   0  0  0  0  0  0  0  0  0  0  0  0
  -50.1894  -28.6761    6.4757 N   0  0  0  0  0  0  0  0  0  0  0  0
  -52.5982  -29.0660    5.0731 O   0  0  0  0  0  0  0  0  0  0  0  0
  -50.9301  -29.0468   10.5839 O   0  0  0  0  0  0  0  0  0  0  0  0
  -48.4426  -28.4013    8.5411 F   0  0  0  0  0  0  0  0  0  0  0  0
  -56.7773  -28.1966    9.6327 H   0  0  0  0  0  0  0  0  0  0  0  0
  -55.2774  -26.2295    9.8239 H   0  0  0  0  0  0  0  0  0  0  0  0
  -55.8190  -30.4561    9.2726 H   0  0  0  0  0  0  0  0  0  0  0  0
  -44.8111  -30.1822    2.4570 H   0  0  0  0  0  0  0  0  0  0  0  0
  -43.2535  -29.9203    4.3720 H   0  0  0  0  0  0  0  0  0  0  0  0
  -52.8268  -26.5158    9.6553 H   0  0  0  0  0  0  0  0  0  0  0  0
  -53.3699  -30.7535    9.1043 H   0  0  0  0  0  0  0  0  0  0  0  0
  -47.2273  -29.8403    2.7828 H   0  0  0  0  0  0  0  0  0  0  0  0
  -44.1317  -29.3203    6.5944 H   0  0  0  0  0  0  0  0  0  0  0  0
  -49.9845  -30.2878    8.6301 H   0  0  0  0  0  0  0  0  0  0  0  0
  -51.6197  -30.8941    8.6147 H   0  0  0  0  0  0  0  0  0  0  0  0
  -53.2474  -30.1346    6.6999 H   0  0  0  0  0  0  0  0  0  0  0  0
  -52.8422  -28.4322    6.9916 H   0  0  0  0  0  0  0  0  0  0  0  0
  -50.9786  -27.9070    8.9043 H   0  0  0  0  0  0  0  0  0  0  0  0
  -50.8050  -30.6146    6.2868 H   0  0  0  0  0  0  0  0  0  0  0  0
  -50.5651  -27.7441    6.3518 H   0  0  0  0  0  0  0  0  0  0  0  0
  -53.5189  -28.8268    4.8823 H   0  0  0  0  0  0  0  0  0  0  0  0
  -49.9729  -29.1578   10.4894 H   0  0  0  0  0  0  0  0  0  0  0  0
  1  2  1  0  0  0  0
  1  3  2  0  0  0  0
  2  6  2  0  0  0  0
  3  7  1  0  0  0  0
  4  5  1  0  0  0  0
  4  8  2  0  0  0  0
  5  9  2  0  0  0  0
  6 10  1  0  0  0  0
  7 10  2  0  0  0  0
  8 11  1  0  0  0  0
  9 12  1  0  0  0  0
 10 17  1  0  0  0  0
 11 12  2  0  0  0  0
 11 19  1  0  0  0  0
 12 20  1  0  0  0  0
 13 14  1  0  0  0  0
 13 19  2  0  0  0  0
 13 21  1  0  0  0  0
 14 20  2  0  0  0  0
 14 24  1  0  0  0  0
 15 17  1  0  0  0  0
 15 18  1  0  0  0  0
 16 18  1  0  0  0  0
 16 22  1  0  0  0  0
 17 23  1  0  0  0  0
 18 21  1  0  0  0  0
  1 25  1  0  0  0  0
  2 26  1  0  0  0  0
  3 27  1  0  0  0  0
  4 28  1  0  0  0  0
  5 29  1  0  0  0  0
  6 30  1  0  0  0  0
  7 31  1  0  0  0  0
  8 32  1  0  0  0  0
  9 33  1  0  0  0  0
 15 34  1  0  0  0  0
 15 35  1  0  0  0  0
 16 36  1  0  0  0  0
 16 37  1  0  0  0  0
 17 38  1  0  0  0  0
 18 39  1  0  0  0  0
 21 40  1  0  0  0  0
 22 41  1  0  0  0  0
 23 42  1  0  0  0  0
M  END
> <POSIT::Probability>
0.23

> <POSIT::Method>
HYBRID

> <ReceptorTitle>
UCSF-P4629-REFINED_LIGAND-BOUND-STATE_AALTB__DU__LA1_A-201(A)

> <OMEGA_C>
Qs5ewsGY4sFu8BhBkW5bwgzA2cEapxpBaKZcwpvC7MECsxVBOsM0wutW78ExG1xArEcxwgor7sEw
SpBAaedVwgAR28GoIRlBQB9XwpAT7sGQLRRBtzk6whDI7cGna2hACE0zwmdz68Fwa7hAkL9Twvk6
5cEy5BVBq0g8wuIP68FoLJxAaME4wpDf6cF07L5Ar1dDwlX85sHXlMhAG+k/wvjT5cH0b+pApA9M
wlMW8MGz6AVBzR1Swhq76sGQ985A1MJNwtGo5sHfPRRB72hMwmjX7cEwittAlZJBwvqZ6cE8UqFA
z5o6wjNA58H27+VA6MFIwsBo5cEbOc9AmmRSwjCH6MGIVqJAY7hLwtxf6MGpVylBQ8VBwuc148FR
qAhB+RtjwpGS4cFpHxpBGRxdwhLW0cGULh1BskZfwhqm88GCXBRBiD4zwjF18cHmPx1AmgMtwrBc
78Gm54tAo05Twkog1MEMfBpB0npVwi4H9sFKqxFBtug8wt+47sEkGjJA1oYwwgOQ6sEOBdNAG/BH
woBN8sHoFApBl3pOwhUn98HI1QlBUf1Uwq0T8cG9ZdZAZl5TwhJ148E+u99ACupLwqFB38H6dw5B
SzhLwpzq9MEjLclAtkJKwtXz3cGkQctAYBNWwked5sHhO5xAPORHwi9D6cG41CdB

> <OMEGA_E>
1Pi9wA==

> <OMEGA_NBR>
      4033

$$$$
CACHE3HI_1694_57
  -OEChem-03092622523D

 43 45  0     1  0  0  0  0  0999 V2000
  -43.5122  -29.6431    4.6924 C   0  0  0  0  0  0  0  0  0  0  0  0
  -44.0509  -29.6203    3.4143 C   0  0  0  0  0  0  0  0  0  0  0  0
  -51.6056  -29.2463    9.8449 C   0  0  0  0  0  0  0  0  0  0  0  0
  -52.6676  -28.3850    9.5693 C   0  0  0  0  0  0  0  0  0  0  0  0
  -50.9557  -29.9070    8.8025 C   0  0  0  0  0  0  0  0  0  0  0  0
  -44.3423  -29.4435    5.7929 C   0  0  0  0  0  0  0  0  0  0  0  0
  -45.4171  -29.3970    3.2497 C   0  0  0  0  0  0  0  0  0  0  0  0
  -52.4297  -28.8451    7.2094 C   0  0  0  0  0  0  0  0  0  0  0  0
  -53.0796  -28.1843    8.2518 C   0  0  0  0  0  0  0  0  0  0  0  0
  -51.3677  -29.7063    7.4850 C   0  0  0  0  0  0  0  0  0  0  0  0
  -45.7085  -29.2200    5.6390 C   0  0  0  0  0  0  0  0  0  0  0  0
  -46.2560  -29.1965    4.3432 C   0  0  0  0  0  0  0  0  0  0  0  0
  -47.8010  -28.8184    6.5103 C   0  0  0  0  0  0  0  0  0  0  0  0
  -48.3351  -28.7951    5.2491 C   0  0  0  0  0  0  0  0  0  0  0  0
  -54.2151  -27.2631    7.9582 C   0  0  0  0  0  0  0  0  0  0  0  0
  -50.6634  -30.4221    6.3567 C   0  0  0  0  0  0  0  0  0  0  0  0
  -50.3894  -30.5499    3.8535 C   0  0  0  0  0  0  0  0  0  0  0  0
  -50.6772  -29.6287    5.0400 C   0  0  2  0  0  0  0  0  0  0  0  0
  -46.4893  -29.0298    6.7167 N   0  0  0  0  0  0  0  0  0  0  0  0
  -47.5706  -28.9839    4.1579 N   0  0  0  0  0  0  0  0  0  0  0  0
  -48.6361  -28.6168    7.6319 N   0  0  0  0  0  0  0  0  0  0  0  0
  -49.7185  -28.5699    5.0733 N   0  0  0  0  0  0  0  0  0  0  0  0
  -50.4407  -29.7968    2.6466 O   0  0  0  0  0  0  0  0  0  0  0  0
  -42.4501  -29.8164    4.8348 H   0  0  0  0  0  0  0  0  0  0  0  0
  -43.4146  -29.7735    2.5481 H   0  0  0  0  0  0  0  0  0  0  0  0
  -51.2849  -29.4024   10.8707 H   0  0  0  0  0  0  0  0  0  0  0  0
  -53.1683  -27.8744   10.3877 H   0  0  0  0  0  0  0  0  0  0  0  0
  -50.1292  -30.5763    9.0263 H   0  0  0  0  0  0  0  0  0  0  0  0
  -43.9053  -29.4640    6.7894 H   0  0  0  0  0  0  0  0  0  0  0  0
  -45.8270  -29.3801    2.2419 H   0  0  0  0  0  0  0  0  0  0  0  0
  -52.7508  -28.6887    6.1822 H   0  0  0  0  0  0  0  0  0  0  0  0
  -53.8635  -26.2361    7.7936 H   0  0  0  0  0  0  0  0  0  0  0  0
  -54.9246  -27.2258    8.7955 H   0  0  0  0  0  0  0  0  0  0  0  0
  -54.7533  -27.5940    7.0613 H   0  0  0  0  0  0  0  0  0  0  0  0
  -51.1536  -31.3936    6.2142 H   0  0  0  0  0  0  0  0  0  0  0  0
  -49.6299  -30.6485    6.6521 H   0  0  0  0  0  0  0  0  0  0  0  0
  -51.1434  -31.3410    3.7850 H   0  0  0  0  0  0  0  0  0  0  0  0
  -49.3983  -31.0090    3.9340 H   0  0  0  0  0  0  0  0  0  0  0  0
  -51.6496  -29.1436    4.8926 H   0  0  0  0  0  0  0  0  0  0  0  0
  -49.6014  -28.4066    7.4861 H   0  0  0  0  0  0  0  0  0  0  0  0
  -48.2263  -28.5834    8.5420 H   0  0  0  0  0  0  0  0  0  0  0  0
  -50.0111  -27.6178    4.9697 H   0  0  0  0  0  0  0  0  0  0  0  0
  -50.2535  -30.4168    1.9243 H   0  0  0  0  0  0  0  0  0  0  0  0
  1  2  1  0  0  0  0
  1  6  2  0  0  0  0
  2  7  2  0  0  0  0
  3  4  2  0  0  0  0
  3  5  1  0  0  0  0
  4  9  1  0  0  0  0
  5 10  2  0  0  0  0
  6 11  1  0  0  0  0
  7 12  1  0  0  0  0
  8  9  2  0  0  0  0
  8 10  1  0  0  0  0
  9 15  1  0  0  0  0
 10 16  1  0  0  0  0
 11 12  2  0  0  0  0
 11 19  1  0  0  0  0
 12 20  1  0  0  0  0
 13 14  1  0  0  0  0
 13 19  2  0  0  0  0
 13 21  1  0  0  0  0
 14 20  2  0  0  0  0
 14 22  1  0  0  0  0
 16 18  1  0  0  0  0
 17 18  1  0  0  0  0
 17 23  1  0  0  0  0
 18 22  1  0  0  0  0
  1 24  1  0  0  0  0
  2 25  1  0  0  0  0
  3 26  1  0  0  0  0
  4 27  1  0  0  0  0
  5 28  1  0  0  0  0
  6 29  1  0  0  0  0
  7 30  1  0  0  0  0
  8 31  1  0  0  0  0
 15 32  1  0  0  0  0
 15 33  1  0  0  0  0
 15 34  1  0  0  0  0
 16 35  1  0  0  0  0
 16 36  1  0  0  0  0
 17 37  1  0  0  0  0
 17 38  1  0  0  0  0
 18 39  1  0  0  0  0
 21 40  1  0  0  0  0
 21 41  1  0  0  0  0
 22 42  1  0  0  0  0
 23 43  1  0  0  0  0
M  END
> <POSIT::Probability>
0.23

> <POSIT::Method>
HYBRID

> <ReceptorTitle>
UCSF-P4629-REFINED_LIGAND-BOUND-STATE_AALTB__DU__LA1_A-201(A)

> <OMEGA_C>
dQwuwv4k7cH0J5ZAKzQwwl727MGjhFpAHGxOwmX46cG2hB1Bp6tSwn0U48H0GxlBrdJLwp5B78Eg
1wxBhl4xwkeM68FuX7lAF6s1wgst68H/+k9ACLhRwq7C5sEEs+ZAg1FUwmF54cEyBwRBiHhNwoKm
7cG8hO9AdtU2wprC6cFrcrRAKgY5wneS6cFe+4pARDQ/wgeM5sHHVNBAJFdBwltc5sHe+KdAR9xY
wtwa2sE+qf5ASqdKwn5g88F9astAvY5JwjZm9MFPoHZAbrVKwp4H7cELSKFADPU5whI96MEa79ZA
Qkg+wu7e58GRDYVAWItCwkbv5MHWOPRAuN9GwhGP5MGZWKJARcNJwuFf7sHOYSlA3cwpwgyI7sGn
tppAg6gtwgsw7sGHFCNAtiNNwiw468GD7i1BUaxUwtr+3sExNCZBWYRIwlCc9MGuaxBB+54vwkm2
68HTQtlA3U43wnIK68GOew9A2QBTwoKC5cG11MVARHRXwpDj0cEMZflAwLJbwoHO2cFAugxBVANb
wnLA3MEg9uFAUp1Mwhwm+8Fj2sZAEIVGwgsw9cEU3tRA3JJMwmm6+sHjPXJA2pdFwmwS+MFGxntA
MJlOwi8m6cF/kJxAzGdGwp9A48E/ju9AtudAwuaq5MEIrAhBZwtIwkbx3MFxB59AigNJwpRV88FV
UPY/

> <OMEGA_E>
/lLYwA==

> <OMEGA_NBR>
      5397

$$$$
CACHE3HI_1695_96
  -OEChem-03092622523D

 45 47  0     0  0  0  0  0  0999 V2000
  -52.1499  -28.3174    9.6672 C   0  0  0  0  0  0  0  0  0  0  0  0
  -53.3242  -27.8375    9.0872 C   0  0  0  0  0  0  0  0  0  0  0  0
  -51.5394  -29.4637    9.1585 C   0  0  0  0  0  0  0  0  0  0  0  0
  -53.2773  -29.6498    7.4900 C   0  0  0  0  0  0  0  0  0  0  0  0
  -43.4673  -29.7005    4.2396 C   0  0  0  0  0  0  0  0  0  0  0  0
  -53.8878  -28.5035    7.9987 C   0  0  0  0  0  0  0  0  0  0  0  0
  -52.1030  -30.1297    8.0700 C   0  0  0  0  0  0  0  0  0  0  0  0
  -45.3563  -29.6425    5.1259 C   0  0  0  0  0  0  0  0  0  0  0  0
  -46.7840  -29.6443    5.3516 C   0  0  0  0  0  0  0  0  0  0  0  0
  -48.8041  -29.7252    4.9143 C   0  0  0  0  0  0  0  0  0  0  0  0
  -51.0356  -31.3249    6.1969 C   0  0  0  0  0  0  0  0  0  0  0  0
  -56.3058  -28.9948    7.4847 C   0  0  0  0  0  0  0  0  0  0  0  0
  -54.9466  -27.5701    5.9097 C   0  0  0  0  0  0  0  0  0  0  0  0
  -51.2951  -32.4849    8.4245 C   0  0  0  0  0  0  0  0  0  0  0  0
  -50.1939  -29.8062    4.3363 C   0  0  0  0  0  0  0  0  0  0  0  0
  -51.2480  -30.0246    5.4247 C   0  0  0  0  0  0  0  0  0  0  0  0
  -55.1435  -27.9897    7.3795 C   0  0  0  0  0  0  0  0  0  0  0  0
  -44.7993  -29.7550    3.9426 N   0  0  0  0  0  0  0  0  0  0  0  0
  -47.6476  -29.7679    4.3024 N   0  0  0  0  0  0  0  0  0  0  0  0
  -44.3914  -29.5271    6.0771 N   0  0  0  0  0  0  0  0  0  0  0  0
  -47.3476  -29.5296    6.5578 N   0  0  0  0  0  0  0  0  0  0  0  0
  -43.1659  -29.5613    5.5322 N   0  0  0  0  0  0  0  0  0  0  0  0
  -51.4680  -31.3207    7.5420 N   0  0  0  0  0  0  0  0  0  0  0  0
  -50.4844  -32.2753    5.6366 O   0  0  0  0  0  0  0  0  0  0  0  0
  -48.7157  -29.5841    6.2629 O   0  0  0  0  0  0  0  0  0  0  0  0
  -51.7114  -27.7988   10.5147 H   0  0  0  0  0  0  0  0  0  0  0  0
  -53.7931  -26.9437    9.4901 H   0  0  0  0  0  0  0  0  0  0  0  0
  -50.6245  -29.8288    9.6181 H   0  0  0  0  0  0  0  0  0  0  0  0
  -53.7184  -30.1677    6.6412 H   0  0  0  0  0  0  0  0  0  0  0  0
  -42.7035  -29.7660    3.4760 H   0  0  0  0  0  0  0  0  0  0  0  0
  -56.0491  -29.9312    6.9769 H   0  0  0  0  0  0  0  0  0  0  0  0
  -56.5369  -29.2327    8.5287 H   0  0  0  0  0  0  0  0  0  0  0  0
  -57.2199  -28.6051    7.0229 H   0  0  0  0  0  0  0  0  0  0  0  0
  -54.6105  -28.4121    5.2944 H   0  0  0  0  0  0  0  0  0  0  0  0
  -55.8889  -27.2016    5.4885 H   0  0  0  0  0  0  0  0  0  0  0  0
  -54.2029  -26.7711    5.8145 H   0  0  0  0  0  0  0  0  0  0  0  0
  -52.1638  -33.1468    8.3626 H   0  0  0  0  0  0  0  0  0  0  0  0
  -50.4033  -33.0485    8.1363 H   0  0  0  0  0  0  0  0  0  0  0  0
  -51.1758  -32.1584    9.4613 H   0  0  0  0  0  0  0  0  0  0  0  0
  -50.2355  -30.6175    3.5972 H   0  0  0  0  0  0  0  0  0  0  0  0
  -50.4097  -28.8864    3.7760 H   0  0  0  0  0  0  0  0  0  0  0  0
  -51.2141  -29.1882    6.1324 H   0  0  0  0  0  0  0  0  0  0  0  0
  -52.2415  -30.0572    4.9610 H   0  0  0  0  0  0  0  0  0  0  0  0
  -55.4797  -27.0795    7.9122 H   0  0  0  0  0  0  0  0  0  0  0  0
  -42.3132  -29.4895    6.0802 H   0  0  0  0  0  0  0  0  0  0  0  0
  1  2  2  0  0  0  0
  1  3  1  0  0  0  0
  2  6  1  0  0  0  0
  3  7  2  0  0  0  0
  4  6  2  0  0  0  0
  4  7  1  0  0  0  0
  5 18  2  0  0  0  0
  5 22  1  0  0  0  0
  6 17  1  0  0  0  0
  7 23  1  0  0  0  0
  8  9  1  0  0  0  0
  8 18  1  0  0  0  0
  8 20  2  0  0  0  0
  9 19  1  0  0  0  0
  9 21  2  0  0  0  0
 10 15  1  0  0  0  0
 10 19  2  0  0  0  0
 10 25  1  0  0  0  0
 11 16  1  0  0  0  0
 11 23  1  0  0  0  0
 11 24  2  0  0  0  0
 12 17  1  0  0  0  0
 13 17  1  0  0  0  0
 14 23  1  0  0  0  0
 15 16  1  0  0  0  0
 20 22  1  0  0  0  0
 21 25  1  0  0  0  0
  1 26  1  0  0  0  0
  2 27  1  0  0  0  0
  3 28  1  0  0  0  0
  4 29  1  0  0  0  0
  5 30  1  0  0  0  0
 12 31  1  0  0  0  0
 12 32  1  0  0  0  0
 12 33  1  0  0  0  0
 13 34  1  0  0  0  0
 13 35  1  0  0  0  0
 13 36  1  0  0  0  0
 14 37  1  0  0  0  0
 14 38  1  0  0  0  0
 14 39  1  0  0  0  0
 15 40  1  0  0  0  0
 15 41  1  0  0  0  0
 16 42  1  0  0  0  0
 16 43  1  0  0  0  0
 17 44  1  0  0  0  0
 22 45  1  0  0  0  0
M  END
> <POSIT::Probability>
0.23

> <POSIT::Method>
HYBRID

> <ReceptorTitle>
UCSF-P4629-REFINED_LIGAND-BOUND-STATE_AALTB__DU__LA1_A-201(A)

> <OMEGA_C>
gplQwgaK4sGqrBpBA0xVwi+z3sEVZRFBXShOwqS168EhiRJB7RtVwtIy7cEEru9Ai94twpOa7cET
q4dAHI1Xwh4H5MEX9f9Ad2lQwpIJ8cGXHgFB3mw1wssj7cFlB6RA2SI7wnQn7cGiQKtAYDdDwi3N
7cFRQp1AdyRMwmSZ+sFmTcZAFzlhwmr158F9gu9AWMlbwpqP3MGAHL1AOi5NwpPwAcLGygZBjcZI
wgxz7sEMw4pA6/1MwlQy8MFwl61A7ZJcwtzq38HAJOxAdjIzwj4K7sEbVHxAHJc+wrsk7sHcrIlA
v5Axwmk37MF3d8JA8WM9woo87MGJ2dFA4qkswnV97MG4B7FANd9NwtmQ+sEbWPFA/u9JwuoZAcIh
X7RA2NxCwkKs7MGLachAb9hOwglk3sEcPChBKixXwraM18F31xdBeH9Kwnmh7sHA4xlBsd9WwmZX
8cHPhNRAY9Aqwsgg7sH9dV5APDJgwi5z78EGQ99AzSViwpjc6cGzdQhBKOFkwjzX5MFVu+BAIHFa
whFM48ETbKlAMY5fwuyc2cHHoa9A0c9YwkYr1sFVELpAt6dQwk6WBMIYzQVB/5xJwqoxBMIcLgJB
DLRMwjmiAMJ0YRdBL/FIwq7w9MHeOGZAkaNJwm0X58GxqXFAQttMwluB6cH0PMRARPdQwix18MGY
wJ5AOOtdwryi2MEXMf1AsUApwoLq68FkkcJA

> <OMEGA_E>
97W8wA==

> <OMEGA_NBR>
      6800

$$$$
CACHE3HI_1700_56
  -OEChem-03092622523D

 41 43  0     1  0  0  0  0  0999 V2000
  -47.9953  -29.1796    3.6011 C   0  0  0  0  0  0  0  0  0  0  0  0
  -44.2068  -29.5329    6.0143 C   0  0  0  0  0  0  0  0  0  0  0  0
  -46.3692  -29.2724    5.7756 C   0  0  0  0  0  0  0  0  0  0  0  0
  -45.8535  -29.4057    4.4917 C   0  0  0  0  0  0  0  0  0  0  0  0
  -47.7452  -29.1154    5.9363 C   0  0  0  0  0  0  0  0  0  0  0  0
  -55.0244  -28.7137    9.5385 C   0  0  0  0  0  0  0  0  0  0  0  0
  -55.0803  -29.1750    8.0728 C   0  0  0  0  0  0  0  0  0  0  0  0
  -53.6866  -29.1318   10.1709 C   0  0  0  0  0  0  0  0  0  0  0  0
  -53.9587  -28.5140    7.2694 C   0  0  0  0  0  0  0  0  0  0  0  0
  -52.5246  -28.4616    9.4289 C   0  0  0  0  0  0  0  0  0  0  0  0
  -52.5498  -28.7084    7.8885 C   0  0  0  0  0  0  0  0  0  0  0  0
  -51.9396  -30.0914    7.4752 C   0  0  0  0  0  0  0  0  0  0  0  0
  -49.6779  -28.8811    7.4947 C   0  0  0  0  0  0  0  0  0  0  0  0
  -50.4056  -30.2257    7.7289 C   0  0  1  0  0  0  0  0  0  0  0  0
  -46.6631  -29.3671    3.4117 N   0  0  0  0  0  0  0  0  0  0  0  0
  -48.5447  -29.0554    4.8382 N   0  0  0  0  0  0  0  0  0  0  0  0
  -45.3233  -29.3518    6.6840 N   0  0  0  0  0  0  0  0  0  0  0  0
  -44.4970  -29.5735    4.6522 N   0  0  0  0  0  0  0  0  0  0  0  0
  -48.2522  -29.0612    7.2287 N   0  0  0  0  0  0  0  0  0  0  0  0
  -50.1447  -30.6799    9.0566 O   0  0  0  0  0  0  0  0  0  0  0  0
  -48.6413  -29.1272    2.7372 H   0  0  0  0  0  0  0  0  0  0  0  0
  -43.2236  -29.6338    6.4495 H   0  0  0  0  0  0  0  0  0  0  0  0
  -55.1203  -27.6187    9.5796 H   0  0  0  0  0  0  0  0  0  0  0  0
  -55.8517  -29.1755   10.0975 H   0  0  0  0  0  0  0  0  0  0  0  0
  -54.9622  -30.2679    8.0308 H   0  0  0  0  0  0  0  0  0  0  0  0
  -56.0518  -28.8942    7.6399 H   0  0  0  0  0  0  0  0  0  0  0  0
  -53.6707  -28.8240   11.2268 H   0  0  0  0  0  0  0  0  0  0  0  0
  -53.5786  -30.2246   10.1058 H   0  0  0  0  0  0  0  0  0  0  0  0
  -53.9558  -28.9451    6.2574 H   0  0  0  0  0  0  0  0  0  0  0  0
  -54.1650  -27.4352    7.2078 H   0  0  0  0  0  0  0  0  0  0  0  0
  -52.5744  -27.3776    9.6094 H   0  0  0  0  0  0  0  0  0  0  0  0
  -51.5799  -28.8571    9.8302 H   0  0  0  0  0  0  0  0  0  0  0  0
  -51.9033  -27.9394    7.4405 H   0  0  0  0  0  0  0  0  0  0  0  0
  -52.4525  -30.8779    8.0483 H   0  0  0  0  0  0  0  0  0  0  0  0
  -52.1243  -30.2408    6.4012 H   0  0  0  0  0  0  0  0  0  0  0  0
  -50.1375  -28.3755    6.6327 H   0  0  0  0  0  0  0  0  0  0  0  0
  -49.7940  -28.2551    8.3917 H   0  0  0  0  0  0  0  0  0  0  0  0
  -50.0091  -30.9551    7.0074 H   0  0  0  0  0  0  0  0  0  0  0  0
  -43.8324  -29.7026    3.9162 H   0  0  0  0  0  0  0  0  0  0  0  0
  -47.9921  -29.9212    7.6677 H   0  0  0  0  0  0  0  0  0  0  0  0
  -49.2068  -30.7540    9.1878 H   0  0  0  0  0  0  0  0  0  0  0  0
  1 15  1  0  0  0  0
  1 16  2  0  0  0  0
  2 17  2  0  0  0  0
  2 18  1  0  0  0  0
  3  4  1  0  0  0  0
  3  5  2  0  0  0  0
  3 17  1  0  0  0  0
  4 15  2  0  0  0  0
  4 18  1  0  0  0  0
  5 16  1  0  0  0  0
  5 19  1  0  0  0  0
  6  7  1  0  0  0  0
  6  8  1  0  0  0  0
  7  9  1  0  0  0  0
  8 10  1  0  0  0  0
  9 11  1  0  0  0  0
 10 11  1  0  0  0  0
 11 12  1  0  0  0  0
 12 14  1  0  0  0  0
 13 14  1  0  0  0  0
 13 19  1  0  0  0  0
 14 20  1  0  0  0  0
  1 21  1  0  0  0  0
  2 22  1  0  0  0  0
  6 23  1  0  0  0  0
  6 24  1  0  0  0  0
  7 25  1  0  0  0  0
  7 26  1  0  0  0  0
  8 27  1  0  0  0  0
  8 28  1  0  0  0  0
  9 29  1  0  0  0  0
  9 30  1  0  0  0  0
 10 31  1  0  0  0  0
 10 32  1  0  0  0  0
 11 33  1  0  0  0  0
 12 34  1  0  0  0  0
 12 35  1  0  0  0  0
 13 36  1  0  0  0  0
 13 37  1  0  0  0  0
 14 38  1  0  0  0  0
 18 39  1  0  0  0  0
 19 40  1  0  0  0  0
 20 41  1  0  0  0  0
M  END
> <POSIT::Probability>
0.75

> <POSIT::Method>
SHAPEFIT

> <ReceptorTitle>
UCSF-P4629-REFINED_LIGAND-BOUND-STATE_AALTB__DU__LA1_A-201(A)

> <OMEGA_C>
K/s/wsZv6cHpd2ZAx9MwwlBD7MHpdMBAB3o5wt8t6sGJ0bhA/Wk3wvk+68Gju49AFvs+wl3s6ME+
9r1ABxlcwq615cGfnRhBM1Jcwmxm6cERKgFBGr9WwvsN6cHRuyJBt9VXwpQc5MHLnuhANhlSwkOx
48HC3BZB/jJSwuSq5cGabvxALsJPwia78MH0NO9AH7ZGwoMM58HS1O9AXJ9JwinO8cF8U/dA96Y6
wuHv6sFNWVpAxC1Cwohx6MGC0ppAGks1wnHQ6sHu4tVA6vwxwn6W7MEQ35RASAJBwkJ96MFVUedA
OZRIwolw9cG65xBBuZBCwogE6cExLi9A7uQswhkS7cFXYs5AOntcwgrz3MEoRhlBHGhfwmVn6cEx
jyFBU9lbwo8k8sH7fQBBBzVgwmcn58FyevRAzK5WwoqX5sHnoDNBc1BWwu3L8cFwsSFBxtJXwpiP
58GyPMhA+6hYwlx728H7peZAKExSwlMF28HzvxlB1lFOwlvb5sGpSB1BAZ1Pwu+D38HVGO5AVM9R
wtwF98HmxQBBPn9Qwivt8cFW1sxAzIxIwh0B48HoPtRAES1HwloK4sFqRAZBTAlIwgyk98FRPOBA
aVQvwume7cGAo3pA4/c/wo1e78GEXfVAvtNEwkII9sFXARNB

> <OMEGA_E>
nCoLPw==

> <OMEGA_NBR>
      8150

$$$$
CACHE3HI_1717_16
  -OEChem-03092622523D

 30 32  0     0  0  0  0  0  0999 V2000
  -52.6364  -28.8201    9.9409 C   0  0  0  0  0  0  0  0  0  0  0  0
  -51.4145  -29.2979    9.4255 C   0  0  0  0  0  0  0  0  0  0  0  0
  -53.7193  -28.5660    9.0761 C   0  0  0  0  0  0  0  0  0  0  0  0
  -52.3477  -29.2412    7.1711 C   0  0  0  0  0  0  0  0  0  0  0  0
  -47.9894  -29.1694    3.5139 C   0  0  0  0  0  0  0  0  0  0  0  0
  -44.3508  -29.5333    6.1411 C   0  0  0  0  0  0  0  0  0  0  0  0
  -51.2700  -29.5221    8.0393 C   0  0  0  0  0  0  0  0  0  0  0  0
  -53.5776  -28.7703    7.6821 C   0  0  0  0  0  0  0  0  0  0  0  0
  -46.5048  -29.2420    5.7890 C   0  0  0  0  0  0  0  0  0  0  0  0
  -45.9155  -29.4293    4.5376 C   0  0  0  0  0  0  0  0  0  0  0  0
  -47.8951  -29.0242    5.8571 C   0  0  0  0  0  0  0  0  0  0  0  0
  -49.9616  -30.0486    7.4754 C   0  0  0  0  0  0  0  0  0  0  0  0
  -54.7327  -28.5299    6.7204 C   0  0  0  0  0  0  0  0  0  0  0  0
  -46.6544  -29.3936    3.4109 N   0  0  0  0  0  0  0  0  0  0  0  0
  -48.6155  -28.9904    4.7091 N   0  0  0  0  0  0  0  0  0  0  0  0
  -45.4989  -29.3102    6.7478 N   0  0  0  0  0  0  0  0  0  0  0  0
  -44.5708  -29.6123    4.7697 N   0  0  0  0  0  0  0  0  0  0  0  0
  -55.7914  -27.9373    7.3353 F   0  0  0  0  0  0  0  0  0  0  0  0
  -55.1388  -29.7183    6.2014 F   0  0  0  0  0  0  0  0  0  0  0  0
  -48.6920  -28.7112    7.4018 S   0  0  0  0  0  0  0  0  0  0  0  0
  -52.7428  -28.6481   11.0018 H   0  0  0  0  0  0  0  0  0  0  0  0
  -50.5875  -29.4929   10.0923 H   0  0  0  0  0  0  0  0  0  0  0  0
  -54.6587  -28.2151    9.4770 H   0  0  0  0  0  0  0  0  0  0  0  0
  -52.2307  -29.3876    6.1075 H   0  0  0  0  0  0  0  0  0  0  0  0
  -48.5791  -29.1314    2.6100 H   0  0  0  0  0  0  0  0  0  0  0  0
  -43.3933  -29.6381    6.6296 H   0  0  0  0  0  0  0  0  0  0  0  0
  -49.5926  -30.8607    8.1192 H   0  0  0  0  0  0  0  0  0  0  0  0
  -50.1364  -30.4357    6.4607 H   0  0  0  0  0  0  0  0  0  0  0  0
  -54.3620  -27.8805    5.9137 H   0  0  0  0  0  0  0  0  0  0  0  0
  -43.8725  -29.7740    4.0725 H   0  0  0  0  0  0  0  0  0  0  0  0
  1  2  1  0  0  0  0
  1  3  2  0  0  0  0
  2  7  2  0  0  0  0
  3  8  1  0  0  0  0
  4  7  1  0  0  0  0
  4  8  2  0  0  0  0
  5 14  2  0  0  0  0
  5 15  1  0  0  0  0
  6 16  2  0  0  0  0
  6 17  1  0  0  0  0
  7 12  1  0  0  0  0
  8 13  1  0  0  0  0
  9 10  2  0  0  0  0
  9 11  1  0  0  0  0
  9 16  1  0  0  0  0
 10 14  1  0  0  0  0
 10 17  1  0  0  0  0
 11 15  2  0  0  0  0
 11 20  1  0  0  0  0
 12 20  1  0  0  0  0
 13 18  1  0  0  0  0
 13 19  1  0  0  0  0
  1 21  1  0  0  0  0
  2 22  1  0  0  0  0
  3 23  1  0  0  0  0
  4 24  1  0  0  0  0
  5 25  1  0  0  0  0
  6 26  1  0  0  0  0
 12 27  1  0  0  0  0
 12 28  1  0  0  0  0
 13 29  1  0  0  0  0
 17 30  1  0  0  0  0
M  END
> <POSIT::Probability>
0.99

> <POSIT::Method>
SHAPEFIT

> <ReceptorTitle>
UCSF-P4629-REFINED_LIGAND-BOUND-STATE_AALTB__DU__LA1_A-201(A)

> <OMEGA_C>
p4tSwnmP5sH5DR9BZqhNwidi6sELzxZBk+BWwj+H5MHRNxFBFmRRwvrt6cEMeuVAIPU/wuBa6cEe
5GBAPmcxwk1E7MG8g8RAgRRNwj8t7MHhoABBdk9WwpMp5sF60/VA3gQ6wovv6cGcP7lAgKk3wk1v
68ESNJFAoJQ/wqAx6ME9bbtAqdhHwotj8MF4Nu9ARe5awkY95MHaDddAIZ46wgom68FeS1pAOnZC
wmLs58FWsZZA2P41wkN76sEf7tdAiEgywvHl7MGtoZhAZSpfwop/38EOu+pALI5cwi6/7cH2ccZA
k8RCwoOw5cHW2+xAnPhSwl8v5cFxBzBBlllKwl3x68H6eSFBjaJawnm44cHJoRdBPOxQwuQZ68H/
cMNABlFCwisN6cF3CSdAyZItwtoa7cHKJdRA2l5GwqTi9sEX6AFBoItIwl9888Elvs5ApnJZwj4L
38EpPb1AZn0vwj4x7sEXUoJA

> <OMEGA_E>
gIY5PQ==

> <OMEGA_NBR>
      9276

$$$$
CACHE3HI_1718_19
  -OEChem-03092622523D

 29 31  0     1  0  0  0  0  0999 V2000
  -49.3434  -28.4958    6.3585 C   0  0  0  0  0  0  0  0  0  0  0  0
  -49.4051  -28.7780    4.9922 C   0  0  0  0  0  0  0  0  0  0  0  0
  -48.1230  -28.5217    7.0452 C   0  0  0  0  0  0  0  0  0  0  0  0
  -48.2565  -29.0965    4.2601 C   0  0  0  0  0  0  0  0  0  0  0  0
  -46.9534  -28.8382    6.3334 C   0  0  0  0  0  0  0  0  0  0  0  0
  -47.0479  -29.1181    4.9581 C   0  0  0  0  0  0  0  0  0  0  0  0
  -44.9760  -29.2483    5.7145 C   0  0  0  0  0  0  0  0  0  0  0  0
  -44.9659  -29.7136    3.5419 C   0  0  0  0  0  0  0  0  0  0  0  0
  -43.9802  -30.3722    1.1117 C   0  0  0  0  0  0  0  0  0  0  0  0
  -42.9868  -29.2156    1.2182 C   0  0  1  0  0  0  0  0  0  0  0  0
  -43.6806  -27.8783    1.0430 C   0  0  0  0  0  0  0  0  0  0  0  0
  -45.6429  -28.9256    6.7875 N   0  0  0  0  0  0  0  0  0  0  0  0
  -43.7168  -29.8081    3.9220 N   0  0  0  0  0  0  0  0  0  0  0  0
  -45.7564  -29.3726    4.6182 N   0  0  0  0  0  0  0  0  0  0  0  0
  -43.7349  -29.5145    5.2830 N   0  0  0  0  0  0  0  0  0  0  0  0
  -42.3771  -29.2136    2.5075 O   0  0  0  0  0  0  0  0  0  0  0  0
  -44.2290  -27.7742   -0.1881 F   0  0  0  0  0  0  0  0  0  0  0  0
  -42.8040  -26.8592    1.1821 F   0  0  0  0  0  0  0  0  0  0  0  0
  -44.6650  -27.7048    1.9493 F   0  0  0  0  0  0  0  0  0  0  0  0
  -45.5366  -29.9760    1.9397 S   0  0  0  0  0  0  0  0  0  0  0  0
  -50.2555  -28.2531    6.8976 H   0  0  0  0  0  0  0  0  0  0  0  0
  -50.3668  -28.7495    4.4854 H   0  0  0  0  0  0  0  0  0  0  0  0
  -48.0869  -28.3013    8.1073 H   0  0  0  0  0  0  0  0  0  0  0  0
  -48.3162  -29.3147    3.2005 H   0  0  0  0  0  0  0  0  0  0  0  0
  -43.5770  -31.2785    1.5740 H   0  0  0  0  0  0  0  0  0  0  0  0
  -44.2127  -30.5881    0.0638 H   0  0  0  0  0  0  0  0  0  0  0  0
  -42.1957  -29.3010    0.4642 H   0  0  0  0  0  0  0  0  0  0  0  0
  -42.8807  -29.5185    5.8273 H   0  0  0  0  0  0  0  0  0  0  0  0
  -41.9228  -30.0650    2.5982 H   0  0  0  0  0  0  0  0  0  0  0  0
  1  2  1  0  0  0  0
  1  3  2  0  0  0  0
  2  4  2  0  0  0  0
  3  5  1  0  0  0  0
  4  6  1  0  0  0  0
  5  6  2  0  0  0  0
  5 12  1  0  0  0  0
  6 14  1  0  0  0  0
  7 12  2  0  0  0  0
  7 14  1  0  0  0  0
  7 15  1  0  0  0  0
  8 13  2  0  0  0  0
  8 14  1  0  0  0  0
  8 20  1  0  0  0  0
  9 10  1  0  0  0  0
  9 20  1  0  0  0  0
 10 11  1  0  0  0  0
 10 16  1  0  0  0  0
 11 17  1  0  0  0  0
 11 18  1  0  0  0  0
 11 19  1  0  0  0  0
 13 15  1  0  0  0  0
  1 21  1  0  0  0  0
  2 22  1  0  0  0  0
  3 23  1  0  0  0  0
  4 24  1  0  0  0  0
  9 25  1  0  0  0  0
  9 26  1  0  0  0  0
 10 27  1  0  0  0  0
 15 28  1  0  0  0  0
 16 29  1  0  0  0  0
M  END
> <POSIT::Probability>
0.18

> <POSIT::Method>
FRED

> <ReceptorTitle>
UCSF-P4629-REFINED_LIGAND-BOUND-STATE_AALTB__DU__LA1_A-201(A)

> <OMEGA_C>
ol9FwlP348F4eMtAyp5Fwlk55sHyv59AAH5Awnss5MEMcuFArgZBwqPF6MHaUohATtA7wre05sEu
q8pACDE8wtfx6MH0qJ5AZeczwnb86cE83bZAEN0zwne17cEsr2JAs+svwjL68sEIS44/gfIrwp65
6cEY7ps/+LguwtUG38H4gIU/SpI2wp9n58EsM9lAAN4uwhN37sEUAntAmAY3wv766sGMyJNAhPAu
wswd7MFeDqlAKIIpwm216cEweyBAdOowwo4x3sHAl0C+QDcrwqPf1sEYTpc/7qgywlWj3cHwg/k/
hiU2wsrO78HIRvg/pAVJwk4G4sEkudxAkndJwgf/5cHAiI9ACVlAwg5p4sFotwFBx0NBwo6E6sGc
1ExA1U4uwmo6+sH4eck/29kwwoC09MEAvII9ccgowoho6sEgqO0+1YUrwvgl7MFIebpA6bAnwjSF
8MGaSCZA

> <OMEGA_E>
3lEewQ==

> <OMEGA_NBR>
     10358

$$$$
CACHE3HI_1694_20
  -OEChem-03092622523D

 30 31  0     0  0  0  0  0  0999 V2000
  -51.5496  -29.0661    9.2291 C   0  0  0  0  0  0  0  0  0  0  0  0
  -52.1705  -27.9393    9.7681 C   0  0  0  0  0  0  0  0  0  0  0  0
  -52.7625  -28.7453    7.1643 C   0  0  0  0  0  0  0  0  0  0  0  0
  -48.4611  -29.5781    4.9943 C   0  0  0  0  0  0  0  0  0  0  0  0
  -48.4804  -29.6038    7.3726 C   0  0  0  0  0  0  0  0  0  0  0  0
  -46.6004  -28.8521    6.2857 C   0  0  0  0  0  0  0  0  0  0  0  0
  -51.8458  -29.4691    7.9270 C   0  0  0  0  0  0  0  0  0  0  0  0
  -49.1366  -29.8542    6.1778 C   0  0  0  0  0  0  0  0  0  0  0  0
  -53.0872  -27.2156    9.0054 C   0  0  0  0  0  0  0  0  0  0  0  0
  -47.1687  -29.0674    5.0405 C   0  0  0  0  0  0  0  0  0  0  0  0
  -53.3835  -27.6186    7.7033 C   0  0  0  0  0  0  0  0  0  0  0  0
  -54.9015  -26.3259   10.2599 C   0  0  0  0  0  0  0  0  0  0  0  0
  -51.1814  -30.6728    7.3494 C   0  0  0  0  0  0  0  0  0  0  0  0
  -47.2253  -29.1082    7.4568 N   0  0  0  0  0  0  0  0  0  0  0  0
  -50.4261  -30.3650    6.1620 N   0  0  0  0  0  0  0  0  0  0  0  0
  -53.6780  -26.1180    9.5575 O   0  0  0  0  0  0  0  0  0  0  0  0
  -46.4955  -28.7930    3.9176 F   0  0  0  0  0  0  0  0  0  0  0  0
  -54.5120  -26.7417    6.7374 Cl  0  0  0  0  0  0  0  0  0  0  0  0
  -50.8370  -29.6241    9.8306 H   0  0  0  0  0  0  0  0  0  0  0  0
  -51.9364  -27.6318   10.7836 H   0  0  0  0  0  0  0  0  0  0  0  0
  -52.9893  -29.0652    6.1496 H   0  0  0  0  0  0  0  0  0  0  0  0
  -48.9328  -29.7572    4.0321 H   0  0  0  0  0  0  0  0  0  0  0  0
  -48.9548  -29.7990    8.3295 H   0  0  0  0  0  0  0  0  0  0  0  0
  -45.5949  -28.4548    6.3757 H   0  0  0  0  0  0  0  0  0  0  0  0
  -55.2659  -25.3719   10.6498 H   0  0  0  0  0  0  0  0  0  0  0  0
  -55.6408  -26.7418    9.5712 H   0  0  0  0  0  0  0  0  0  0  0  0
  -54.7367  -27.0277   11.0807 H   0  0  0  0  0  0  0  0  0  0  0  0
  -50.4898  -31.1285    8.0714 H   0  0  0  0  0  0  0  0  0  0  0  0
  -51.9132  -31.4469    7.0799 H   0  0  0  0  0  0  0  0  0  0  0  0
  -50.8603  -30.5313    5.2592 H   0  0  0  0  0  0  0  0  0  0  0  0
  1  2  2  0  0  0  0
  1  7  1  0  0  0  0
  2  9  1  0  0  0  0
  3  7  2  0  0  0  0
  3 11  1  0  0  0  0
  4  8  1  0  0  0  0
  4 10  2  0  0  0  0
  5  8  2  0  0  0  0
  5 14  1  0  0  0  0
  6 10  1  0  0  0  0
  6 14  2  0  0  0  0
  7 13  1  0  0  0  0
  8 15  1  0  0  0  0
  9 11  2  0  0  0  0
  9 16  1  0  0  0  0
 10 17  1  0  0  0  0
 11 18  1  0  0  0  0
 12 16  1  0  0  0  0
 13 15  1  0  0  0  0
  1 19  1  0  0  0  0
  2 20  1  0  0  0  0
  3 21  1  0  0  0  0
  4 22  1  0  0  0  0
  5 23  1  0  0  0  0
  6 24  1  0  0  0  0
 12 25  1  0  0  0  0
 12 26  1  0  0  0  0
 12 27  1  0  0  0  0
 13 28  1  0  0  0  0
 13 29  1  0  0  0  0
 15 30  1  0  0  0  0
M  END
> <POSIT::Probability>
0.18

> <POSIT::Method>
HYBRID

> <ReceptorTitle>
UCSF-P4630-REFINED_LIGAND-BOUND-STATE_A__DU__LA1_A-201(A)

> <OMEGA_C>
yDJOwlCH6MFQqhNBoK5Qwr6D38FVShxB0QxTwl725cGtQeVALNhBwt6f7ME20Z9A5OtBwpvU7MFc
7OtA22Y6wjPR5sGKJMlAHmJPwp/A68Fcqv1A7YtEwlnV7sFMsMVAVFlUwn652cH9FRBBxqw8whaK
6MELTKFAqYhVwuDy3MFOgfZAKJtbwmub0sGdKCRBwblMwuNh9cGfLutAvOY8word6MHgne5AVbRJ
wp/r8sE4L8VAPbZWwrvx0MGi6xhBaPs5whZY5sGcunpAUQxawvru1cHCmNdAFFlLwkL+7MERSh1B
6r5PwtQN3cHNiSxBCfVTwpaF6MG6ycRAMbtDwq4O7sHYBoFAvtFDwnFk7sG3RQVBJ2E2woSj48EE
BsxAQhBdwp75ysFiZSpBNJBewibv1cF4IxlBX/JawtM42MFsSjFBiPVJwkMH+cGgJAFBFKdPwj+T
+8GYjuJA8XBLwgVA9ME6S6hA

> <OMEGA_E>
O3bQwA==

> <OMEGA_NBR>
      1089

$$$$
CACHE3HI_1695_66
  -OEChem-03092622523D

 34 36  0     0  0  0  0  0  0999 V2000
  -51.4189  -30.0125    7.3800 C   0  0  0  0  0  0  0  0  0  0  0  0
  -51.4889  -29.4329    8.6468 C   0  0  0  0  0  0  0  0  0  0  0  0
  -53.2671  -28.6380    6.6501 C   0  0  0  0  0  0  0  0  0  0  0  0
  -43.9217  -29.7135    4.5270 C   0  0  0  0  0  0  0  0  0  0  0  0
  -45.2518  -29.6009    4.2506 C   0  0  0  0  0  0  0  0  0  0  0  0
  -52.3083  -29.6150    6.3817 C   0  0  0  0  0  0  0  0  0  0  0  0
  -52.4477  -28.4558    8.9152 C   0  0  0  0  0  0  0  0  0  0  0  0
  -53.3371  -28.0583    7.9169 C   0  0  0  0  0  0  0  0  0  0  0  0
  -45.8683  -29.3951    5.4817 C   0  0  0  0  0  0  0  0  0  0  0  0
  -48.7005  -29.3443    3.2149 C   0  0  0  0  0  0  0  0  0  0  0  0
  -46.2118  -29.6218    3.1480 C   0  0  0  0  0  0  0  0  0  0  0  0
  -47.3211  -29.2502    5.3732 C   0  0  0  0  0  0  0  0  0  0  0  0
  -52.2322  -30.2404    5.0164 C   0  0  0  0  0  0  0  0  0  0  0  0
  -49.9164  -29.1145    4.0756 C   0  0  0  0  0  0  0  0  0  0  0  0
  -45.0334  -29.3684    6.5094 N   0  0  0  0  0  0  0  0  0  0  0  0
  -43.8385  -29.5676    5.8938 N   0  0  0  0  0  0  0  0  0  0  0  0
  -47.4906  -29.3992    3.8905 N   0  0  0  0  0  0  0  0  0  0  0  0
  -48.8133  -29.4701    1.9938 O   0  0  0  0  0  0  0  0  0  0  0  0
  -50.5437  -30.7230    4.5785 S   0  0  0  0  0  0  0  0  0  0  0  0
  -52.4834  -27.7753   10.5043 Cl  0  0  0  0  0  0  0  0  0  0  0  0
  -54.5462  -26.8525    8.1875 Cl  0  0  0  0  0  0  0  0  0  0  0  0
  -50.6685  -30.7728    7.1798 H   0  0  0  0  0  0  0  0  0  0  0  0
  -50.7878  -29.7543    9.4132 H   0  0  0  0  0  0  0  0  0  0  0  0
  -53.9564  -28.3340    5.8653 H   0  0  0  0  0  0  0  0  0  0  0  0
  -43.0442  -29.8775    3.9188 H   0  0  0  0  0  0  0  0  0  0  0  0
  -46.0743  -28.8080    2.4307 H   0  0  0  0  0  0  0  0  0  0  0  0
  -46.2668  -30.5843    2.6320 H   0  0  0  0  0  0  0  0  0  0  0  0
  -47.8745  -30.0457    5.8779 H   0  0  0  0  0  0  0  0  0  0  0  0
  -47.6818  -28.2645    5.6770 H   0  0  0  0  0  0  0  0  0  0  0  0
  -52.8737  -31.1272    4.9722 H   0  0  0  0  0  0  0  0  0  0  0  0
  -52.6090  -29.5444    4.2592 H   0  0  0  0  0  0  0  0  0  0  0  0
  -50.6556  -28.5794    3.4878 H   0  0  0  0  0  0  0  0  0  0  0  0
  -49.6149  -28.5336    4.9416 H   0  0  0  0  0  0  0  0  0  0  0  0
  -43.0045  -29.5930    6.4670 H   0  0  0  0  0  0  0  0  0  0  0  0
  1  2  1  0  0  0  0
  1  6  2  0  0  0  0
  2  7  2  0  0  0  0
  3  6  1  0  0  0  0
  3  8  2  0  0  0  0
  4  5  2  0  0  0  0
  4 16  1  0  0  0  0
  5  9  1  0  0  0  0
  5 11  1  0  0  0  0
  6 13  1  0  0  0  0
  7  8  1  0  0  0  0
  7 20  1  0  0  0  0
  8 21  1  0  0  0  0
  9 12  1  0  0  0  0
  9 15  2  0  0  0  0
 10 14  1  0  0  0  0
 10 17  1  0  0  0  0
 10 18  2  0  0  0  0
 11 17  1  0  0  0  0
 12 17  1  0  0  0  0
 13 19  1  0  0  0  0
 14 19  1  0  0  0  0
 15 16  1  0  0  0  0
  1 22  1  0  0  0  0
  2 23  1  0  0  0  0
  3 24  1  0  0  0  0
  4 25  1  0  0  0  0
 11 26  1  0  0  0  0
 11 27  1  0  0  0  0
 12 28  1  0  0  0  0
 12 29  1  0  0  0  0
 13 30  1  0  0  0  0
 13 31  1  0  0  0  0
 14 32  1  0  0  0  0
 14 33  1  0  0  0  0
 16 34  1  0  0  0  0
M  END
> <POSIT::Probability>
0.42

> <POSIT::Method>
HYBRID

> <ReceptorTitle>
UCSF-P4630-REFINED_LIGAND-BOUND-STATE_A__DU__LA1_A-201(A)

> <OMEGA_C>
Aa1NwqIZ8MHIKOxAqPRNwn5268E+WQpBeRFVwpEa5cHxzdRA268vwja17cFg3ZBA1wE1wrzO7MFT
BYhAqztRwpXr7MHbNsxAeMpRwnql48HKpA5BJllVwm534MEwV/1AKHk3wj0p68G4aa9ARM1CwiHB
6sE9wE1A29g4wnr57MFAeElA1Ug9wlYA6sHl8KtAy+1QwmXs8cH3haBAX6pHwnjq6MFTa4JAMyI0
wpLy6sHMTNBAoFovwliK7MHlmbxAV/Y9wocx68FC/XhA3UBDwrDC68GKM/8/yyxKwsXI9cErg5JA
AO9Rwtkz3sGQEShBSS9awtPR1sEXAANBhqxKwrwu9sHGwOVAsyZLwuEI7sFanBZBYtNXwiKs4sFV
sLtAOi0swgYF78FuzXpAFUw4wtx25sFEkRtAJxE5wp2s9MFgcyhAgX8/woRd8MEXGLxAHro+wsAd
4sHdqbVArX5TwosE+cEaHJ9AoW9Swv9a7MH8SohAT59KwrCi5MG1N19AqnVGwr1E5MGTIZ5ApQQs
wnq+7MF28c5A

> <OMEGA_E>
S6sCwQ==

> <OMEGA_NBR>
      2270

$$$$
CACHE3HI_1696_15
  -OEChem-03092622523D

 27 29  0     0  0  0  0  0  0999 V2000
  -52.1240  -28.6443    8.9894 C   0  0  0  0  0  0  0  0  0  0  0  0
  -48.0368  -29.2922    3.6579 C   0  0  0  0  0  0  0  0  0  0  0  0
  -44.3859  -29.4547    6.2929 C   0  0  0  0  0  0  0  0  0  0  0  0
  -46.5511  -29.3046    5.9375 C   0  0  0  0  0  0  0  0  0  0  0  0
  -53.3647  -27.9787    8.5885 C   0  0  0  0  0  0  0  0  0  0  0  0
  -47.9557  -29.3066    6.0022 C   0  0  0  0  0  0  0  0  0  0  0  0
  -51.7966  -29.6804    8.1561 C   0  0  0  0  0  0  0  0  0  0  0  0
  -45.9456  -29.3334    4.6833 C   0  0  0  0  0  0  0  0  0  0  0  0
  -53.9116  -28.5178    7.4478 C   0  0  0  0  0  0  0  0  0  0  0  0
  -48.6516  -29.5077    7.2733 C   0  0  0  0  0  0  0  0  0  0  0  0
  -50.6220  -30.5829    8.3876 C   0  0  0  0  0  0  0  0  0  0  0  0
  -48.6767  -29.3011    4.8542 N   0  0  0  0  0  0  0  0  0  0  0  0
  -46.6841  -29.3232    3.5543 N   0  0  0  0  0  0  0  0  0  0  0  0
  -45.5501  -29.3778    6.9015 N   0  0  0  0  0  0  0  0  0  0  0  0
  -44.5928  -29.4314    4.9171 N   0  0  0  0  0  0  0  0  0  0  0  0
  -49.7038  -30.4119    7.2764 N   0  0  0  0  0  0  0  0  0  0  0  0
  -48.2761  -28.9439    8.2970 O   0  0  0  0  0  0  0  0  0  0  0  0
  -52.9315  -29.8246    6.8333 S   0  0  0  0  0  0  0  0  0  0  0  0
  -54.0690  -26.6846    9.5198 Cl  0  0  0  0  0  0  0  0  0  0  0  0
  -55.4245  -28.0043    6.7475 Cl  0  0  0  0  0  0  0  0  0  0  0  0
  -51.5339  -28.3514    9.8452 H   0  0  0  0  0  0  0  0  0  0  0  0
  -48.6264  -29.2591    2.7537 H   0  0  0  0  0  0  0  0  0  0  0  0
  -43.4255  -29.5246    6.7820 H   0  0  0  0  0  0  0  0  0  0  0  0
  -50.1230  -30.3129    9.3300 H   0  0  0  0  0  0  0  0  0  0  0  0
  -50.9582  -31.6290    8.4374 H   0  0  0  0  0  0  0  0  0  0  0  0
  -43.8799  -29.4779    4.2173 H   0  0  0  0  0  0  0  0  0  0  0  0
  -49.8377  -30.9800    6.4644 H   0  0  0  0  0  0  0  0  0  0  0  0
  1  5  1  0  0  0  0
  1  7  2  0  0  0  0
  2 12  1  0  0  0  0
  2 13  2  0  0  0  0
  3 14  2  0  0  0  0
  3 15  1  0  0  0  0
  4  6  1  0  0  0  0
  4  8  2  0  0  0  0
  4 14  1  0  0  0  0
  5  9  2  0  0  0  0
  5 19  1  0  0  0  0
  6 10  1  0  0  0  0
  6 12  2  0  0  0  0
  7 11  1  0  0  0  0
  7 18  1  0  0  0  0
  8 13  1  0  0  0  0
  8 15  1  0  0  0  0
  9 18  1  0  0  0  0
  9 20  1  0  0  0  0
 10 16  1  0  0  0  0
 10 17  2  0  0  0  0
 11 16  1  0  0  0  0
  1 21  1  0  0  0  0
  2 22  1  0  0  0  0
  3 23  1  0  0  0  0
 11 24  1  0  0  0  0
 11 25  1  0  0  0  0
 15 26  1  0  0  0  0
 16 27  1  0  0  0  0
M  END
> <POSIT::Probability>
0.83

> <POSIT::Method>
SHAPEFIT

> <ReceptorTitle>
UCSF-P4630-REFINED_LIGAND-BOUND-STATE_A__DU__LA1_A-201(A)

> <OMEGA_C>
9n5QwoMn5cF11A9BpSVAwlpW6sFfG2pAIIsxwjuj68HPX8lAVjQ6wrhv6sEPAL5AcnVVwnrU38F8
aglBpNI/wvZz6sEvEsBAuy9Pwnpx7cE/fwJBQMg3ws2q6sFr3ZVAcqVXwmsk5ME+VO5AOJtCwr8P
7MEgv+hA6HxKwrWp9MGoMwZB8LRCwpdo6sGcVZtAjbw6wueV6sFleWNARTM2wtQF68FH2dxAAV8y
wnBz68GwWJ1AstBGwqRL88Ft2OhAwhpBwg6N58GEwARB5rlTwtWY7sGwqtpAm0ZYwvd51cEUURhB
sLJdwsoI4MFS69dArSJOwqLP4sG9hR1BaIFCwq0S6sEmPDBAs7Mtwk8y7MFXBtlA7X1IwsOA8sGv
RxVBNtVLwkMI/cGI/wZBCYUvwqnS68E89IZA0VlHwhPX98F93M5A

> <OMEGA_E>
uCSbPg==

> <OMEGA_NBR>
      3329

$$$$
CACHE3HI_1717_60
  -OEChem-03092622523D

 24 26  0     0  0  0  0  0  0999 V2000
  -51.4535  -29.9903    6.5603 C   0  0  0  0  0  0  0  0  0  0  0  0
  -52.7764  -29.5043    6.4444 C   0  0  0  0  0  0  0  0  0  0  0  0
  -51.0738  -28.4881    8.4402 C   0  0  0  0  0  0  0  0  0  0  0  0
  -45.6307  -29.5068    7.0193 C   0  0  0  0  0  0  0  0  0  0  0  0
  -48.2527  -29.2561    3.8249 C   0  0  0  0  0  0  0  0  0  0  0  0
  -46.7385  -29.4241    6.0621 C   0  0  0  0  0  0  0  0  0  0  0  0
  -50.5694  -29.4381    7.5196 C   0  0  0  0  0  0  0  0  0  0  0  0
  -53.2439  -28.4988    7.3156 C   0  0  0  0  0  0  0  0  0  0  0  0
  -52.4035  -28.0185    8.3404 C   0  0  0  0  0  0  0  0  0  0  0  0
  -46.1452  -29.3067    4.8051 C   0  0  0  0  0  0  0  0  0  0  0  0
  -48.1525  -29.5052    6.1683 C   0  0  0  0  0  0  0  0  0  0  0  0
  -44.4994  -29.4558    6.3458 N   0  0  0  0  0  0  0  0  0  0  0  0
  -46.9013  -29.2328    3.6942 N   0  0  0  0  0  0  0  0  0  0  0  0
  -48.8814  -29.3998    5.0272 N   0  0  0  0  0  0  0  0  0  0  0  0
  -44.7740  -29.3422    5.0050 N   0  0  0  0  0  0  0  0  0  0  0  0
  -48.8893  -30.0424    7.7288 S   0  0  0  0  0  0  0  0  0  0  0  0
  -54.8509  -27.8328    7.1054 Cl  0  0  0  0  0  0  0  0  0  0  0  0
  -52.9965  -26.8199    9.4711 Cl  0  0  0  0  0  0  0  0  0  0  0  0
  -51.1153  -30.7867    5.9139 H   0  0  0  0  0  0  0  0  0  0  0  0
  -53.4317  -29.9051    5.6852 H   0  0  0  0  0  0  0  0  0  0  0  0
  -50.4350  -28.1175    9.2282 H   0  0  0  0  0  0  0  0  0  0  0  0
  -45.7257  -29.5944    8.0916 H   0  0  0  0  0  0  0  0  0  0  0  0
  -48.8578  -29.1563    2.9360 H   0  0  0  0  0  0  0  0  0  0  0  0
  -44.0867  -29.2925    4.2803 H   0  0  0  0  0  0  0  0  0  0  0  0
  1  2  1  0  0  0  0
  1  7  2  0  0  0  0
  2  8  2  0  0  0  0
  3  7  1  0  0  0  0
  3  9  2  0  0  0  0
  4  6  1  0  0  0  0
  4 12  2  0  0  0  0
  5 13  2  0  0  0  0
  5 14  1  0  0  0  0
  6 10  2  0  0  0  0
  6 11  1  0  0  0  0
  7 16  1  0  0  0  0
  8  9  1  0  0  0  0
  8 17  1  0  0  0  0
  9 18  1  0  0  0  0
 10 13  1  0  0  0  0
 10 15  1  0  0  0  0
 11 14  2  0  0  0  0
 11 16  1  0  0  0  0
 12 15  1  0  0  0  0
  1 19  1  0  0  0  0
  2 20  1  0  0  0  0
  3 21  1  0  0  0  0
  4 22  1  0  0  0  0
  5 23  1  0  0  0  0
 15 24  1  0  0  0  0
M  END
> <POSIT::Probability>
0.85

> <POSIT::Method>
SHAPEFIT

> <ReceptorTitle>
UCSF-P4630-REFINED_LIGAND-BOUND-STATE_A__DU__LA1_A-201(A)

> <OMEGA_C>
XNBNwhrs78HH7dFADxtTwtsI7MFDOM5AmEtMwo3n48HzCgdB3IU2wvMN7MFCnuBAtwJBwoYM6sGx
y3RAPPQ6wp5k68HB/MFAEkdKwkGB68HwoPBAwflUwoH948EGGepANJ1Rwugl4MFGcgVBtZQ4wiB0
6sGqw5lAIpxAwpkK7MGzYsVAXf8xwmGl68GMEMtA5po7wtnc6cElbmxAjoZDwscy68GG3qBAkRgz
wta86sHMKKBAqI5Dwt5W8MGaUvdASWdbwpqp3sHAX+NAbPxTwg+P1sGIiRdBDHZMwh1L9sHJPr1A
GbpVwqo978Ek7bVAb71JwrTw4MHCphNBKuc2wm/B7MECdwFBY25DwgdA6cE45ztAwVgwwg9X6sFp
+IhA

> <OMEGA_E>
6lsRPw==

> <OMEGA_NBR>
      4328

$$$$
CACHE3HI_1717_70
  -OEChem-03092622523D

 32 34  0     0  0  0  0  0  0999 V2000
  -52.0510  -30.0474    6.7417 C   0  0  0  0  0  0  0  0  0  0  0  0
  -53.3599  -29.5441    6.6420 C   0  0  0  0  0  0  0  0  0  0  0  0
  -45.4341  -29.2962    6.9279 C   0  0  0  0  0  0  0  0  0  0  0  0
  -51.6538  -28.6131    8.6826 C   0  0  0  0  0  0  0  0  0  0  0  0
  -44.3009  -29.4474    6.1655 C   0  0  0  0  0  0  0  0  0  0  0  0
  -48.2281  -29.2630    3.8635 C   0  0  0  0  0  0  0  0  0  0  0  0
  -46.5657  -29.2630    6.0057 C   0  0  0  0  0  0  0  0  0  0  0  0
  -51.2057  -29.6004    7.7787 C   0  0  0  0  0  0  0  0  0  0  0  0
  -53.8187  -28.5870    7.5726 C   0  0  0  0  0  0  0  0  0  0  0  0
  -52.9557  -28.0989    8.5738 C   0  0  0  0  0  0  0  0  0  0  0  0
  -46.0590  -29.4009    4.7135 C   0  0  0  0  0  0  0  0  0  0  0  0
  -47.9476  -29.1172    6.1876 C   0  0  0  0  0  0  0  0  0  0  0  0
  -55.3139  -27.1621    6.4611 C   0  0  0  0  0  0  0  0  0  0  0  0
  -49.8317  -30.1951    7.9484 C   0  0  0  0  0  0  0  0  0  0  0  0
  -46.8914  -29.3978    3.6506 N   0  0  0  0  0  0  0  0  0  0  0  0
  -48.7658  -29.1243    5.1074 N   0  0  0  0  0  0  0  0  0  0  0  0
  -44.6793  -29.5085    4.8237 N   0  0  0  0  0  0  0  0  0  0  0  0
  -55.1070  -28.1254    7.5076 O   0  0  0  0  0  0  0  0  0  0  0  0
  -48.5755  -28.8708    7.8070 S   0  0  0  0  0  0  0  0  0  0  0  0
  -53.4930  -26.8496    9.6751 Cl  0  0  0  0  0  0  0  0  0  0  0  0
  -51.6938  -30.7737    6.0267 H   0  0  0  0  0  0  0  0  0  0  0  0
  -54.0135  -29.8893    5.8546 H   0  0  0  0  0  0  0  0  0  0  0  0
  -45.4791  -29.2169    8.0041 H   0  0  0  0  0  0  0  0  0  0  0  0
  -50.9945  -28.2529    9.4585 H   0  0  0  0  0  0  0  0  0  0  0  0
  -43.2900  -29.5085    6.5407 H   0  0  0  0  0  0  0  0  0  0  0  0
  -48.8908  -29.2661    3.0108 H   0  0  0  0  0  0  0  0  0  0  0  0
  -56.3642  -26.8350    6.4655 H   0  0  0  0  0  0  0  0  0  0  0  0
  -54.6590  -26.2940    6.6271 H   0  0  0  0  0  0  0  0  0  0  0  0
  -55.0767  -27.6198    5.4894 H   0  0  0  0  0  0  0  0  0  0  0  0
  -49.7563  -30.6687    8.9383 H   0  0  0  0  0  0  0  0  0  0  0  0
  -49.6592  -30.9498    7.1668 H   0  0  0  0  0  0  0  0  0  0  0  0
  -44.0492  -29.6142    4.0544 H   0  0  0  0  0  0  0  0  0  0  0  0
  1  2  2  0  0  0  0
  1  8  1  0  0  0  0
  2  9  1  0  0  0  0
  3  5  2  0  0  0  0
  3  7  1  0  0  0  0
  4  8  2  0  0  0  0
  4 10  1  0  0  0  0
  5 17  1  0  0  0  0
  6 15  2  0  0  0  0
  6 16  1  0  0  0  0
  7 11  2  0  0  0  0
  7 12  1  0  0  0  0
  8 14  1  0  0  0  0
  9 10  2  0  0  0  0
  9 18  1  0  0  0  0
 10 20  1  0  0  0  0
 11 15  1  0  0  0  0
 11 17  1  0  0  0  0
 12 16  2  0  0  0  0
 12 19  1  0  0  0  0
 13 18  1  0  0  0  0
 14 19  1  0  0  0  0
  1 21  1  0  0  0  0
  2 22  1  0  0  0  0
  3 23  1  0  0  0  0
  4 24  1  0  0  0  0
  5 25  1  0  0  0  0
  6 26  1  0  0  0  0
 13 27  1  0  0  0  0
 13 28  1  0  0  0  0
 13 29  1  0  0  0  0
 14 30  1  0  0  0  0
 14 31  1  0  0  0  0
 17 32  1  0  0  0  0
M  END
> <POSIT::Probability>
0.91

> <POSIT::Method>
SHAPEFIT

> <ReceptorTitle>
UCSF-P4630-REFINED_LIGAND-BOUND-STATE_A__DU__LA1_A-201(A)

> <OMEGA_C>
LTRQwgBh8MElvNdAjHBVwlla7MFIi9RAgbw1wo9e6sF3sd1Aep1Owo/n5MEN7ApBITQxwjiU68Eo
TMVAmOlAwpsa6sHeQ3dAUkM6wrYa6sEIL8BAsNJMwq7N7MFe6/hAUUZXwi+y5MFaUvJAqtJTwnLK
4MFiLglBazw4wgg168E+1ZZAZMo/wvLv6MElAcZAd0FdwutL2cESwc5Ar1NHwp+P8cHqWP5AyJA7
wpku68HAomlAJBBDwnz+6MG0b6NAoLcywl4R7MFjW5pAjW1cwrwA4cE7PvBATE1CwnX35sFH0/lA
3vhVwvzL1sEbzRpBccZOwpEw9sG72sBAzg1Ywlod78GKWLtAouo1wkq86cGiEABBZvpLwucF4sE4
VhdB/CgtwmER7MHSTdFAOZBDwgQh6sFasEBA6HRhwg2u1sFr5c5AzaJawjJa0sFoEdRAik5cwmz1
3MEHqa9AaAZHwm9Z9cFrAw9BCqNGwheZ98GjVuVAXTIwwvTp7MG4vYFA

> <OMEGA_E>
QKbJPg==

> <OMEGA_NBR>
      5488

$$$$
CACHE3HI_1717_77
  -OEChem-03092622523D

 28 30  0     0  0  0  0  0  0999 V2000
  -52.4309  -29.9322    6.2726 C   0  0  0  0  0  0  0  0  0  0  0  0
  -52.6776  -28.3185    8.0829 C   0  0  0  0  0  0  0  0  0  0  0  0
  -51.0591  -30.0389    6.5617 C   0  0  0  0  0  0  0  0  0  0  0  0
  -51.2876  -28.3710    8.3200 C   0  0  0  0  0  0  0  0  0  0  0  0
  -45.4917  -29.3758    6.9670 C   0  0  0  0  0  0  0  0  0  0  0  0
  -48.2655  -29.2551    3.8956 C   0  0  0  0  0  0  0  0  0  0  0  0
  -46.6410  -29.3299    6.0621 C   0  0  0  0  0  0  0  0  0  0  0  0
  -53.2478  -29.0720    7.0325 C   0  0  0  0  0  0  0  0  0  0  0  0
  -50.4573  -29.2014    7.5337 C   0  0  0  0  0  0  0  0  0  0  0  0
  -46.1211  -29.3910    4.7715 C   0  0  0  0  0  0  0  0  0  0  0  0
  -48.0368  -29.2382    6.2432 C   0  0  0  0  0  0  0  0  0  0  0  0
  -54.7382  -29.0047    6.7613 C   0  0  0  0  0  0  0  0  0  0  0  0
  -44.4001  -29.4435    6.2334 N   0  0  0  0  0  0  0  0  0  0  0  0
  -46.9311  -29.3707    3.6963 N   0  0  0  0  0  0  0  0  0  0  0  0
  -48.8157  -29.1570    5.1336 N   0  0  0  0  0  0  0  0  0  0  0  0
  -44.7465  -29.4590    4.9038 N   0  0  0  0  0  0  0  0  0  0  0  0
  -55.1334  -27.6542    6.5274 O   0  0  0  0  0  0  0  0  0  0  0  0
  -48.7065  -29.2651    7.9121 S   0  0  0  0  0  0  0  0  0  0  0  0
  -52.8589  -30.5104    5.4671 H   0  0  0  0  0  0  0  0  0  0  0  0
  -53.3073  -27.7007    8.7059 H   0  0  0  0  0  0  0  0  0  0  0  0
  -50.4576  -30.7667    6.0375 H   0  0  0  0  0  0  0  0  0  0  0  0
  -50.8552  -27.7722    9.1079 H   0  0  0  0  0  0  0  0  0  0  0  0
  -45.5317  -29.3573    8.0461 H   0  0  0  0  0  0  0  0  0  0  0  0
  -48.9186  -29.2402    3.0356 H   0  0  0  0  0  0  0  0  0  0  0  0
  -54.9744  -29.6116    5.8749 H   0  0  0  0  0  0  0  0  0  0  0  0
  -55.2844  -29.3981    7.6313 H   0  0  0  0  0  0  0  0  0  0  0  0
  -44.0992  -29.5117    4.1433 H   0  0  0  0  0  0  0  0  0  0  0  0
  -56.0677  -27.6219    6.3586 H   0  0  0  0  0  0  0  0  0  0  0  0
  1  3  1  0  0  0  0
  1  8  2  0  0  0  0
  2  4  2  0  0  0  0
  2  8  1  0  0  0  0
  3  9  2  0  0  0  0
  4  9  1  0  0  0  0
  5  7  1  0  0  0  0
  5 13  2  0  0  0  0
  6 14  2  0  0  0  0
  6 15  1  0  0  0  0
  7 10  2  0  0  0  0
  7 11  1  0  0  0  0
  8 12  1  0  0  0  0
  9 18  1  0  0  0  0
 10 14  1  0  0  0  0
 10 16  1  0  0  0  0
 11 15  2  0  0  0  0
 11 18  1  0  0  0  0
 12 17  1  0  0  0  0
 13 16  1  0  0  0  0
  1 19  1  0  0  0  0
  2 20  1  0  0  0  0
  3 21  1  0  0  0  0
  4 22  1  0  0  0  0
  5 23  1  0  0  0  0
  6 24  1  0  0  0  0
 12 25  1  0  0  0  0
 12 26  1  0  0  0  0
 16 27  1  0  0  0  0
 17 28  1  0  0  0  0
M  END
> <POSIT::Probability>
0.72

> <POSIT::Method>
SHAPEFIT

> <ReceptorTitle>
UCSF-P4630-REFINED_LIGAND-BOUND-STATE_A__DU__LA1_A-201(A)

> <OMEGA_C>
PrlRwiJ178FpuchA17VSwk2M4sFcUwFBeTxMwptP8MHX+dFAhyZNwrj34sGbHgVBiPc1wpIB68F9
8d5A4g9BwmQK6sFkUXlAYpA6wpCj6sEB/cFAuf1UwmOT6MFlCuFAT9RJwo2c6cHZE/FA/ns4wrEg
68H/r5hAvCVAwu/n6cEDyMdA4PNawo4J6MG9XNhAtpkxwlCM68HFd8dAfbk7wjj36sFuj2xAR0ND
woNB6cF+RqRAX/wywgGs68HD65xAmIhcws073cE74NBAe9NCwvge6sFLMP1Ahm9TwkUV9MFi8q5A
pTpVwhmb3cGISwtBjNRJwk0i9sFxM8FAsGtLwn4t3sEZuhFBfyA2wtPb6sG+vABBqaxDwgDs6cHO
RkJAzeVbwqXk7MEX/7tANCNdwkcv68GeM/RAmmUwwv4X7MEJloRAWEVgwrj53MFbectA

> <OMEGA_E>
Hv80Pw==

> <OMEGA_NBR>
      6564

$$$$
CACHE3HI_1717_97
  -OEChem-03092622523D

 27 29  0     0  0  0  0  0  0999 V2000
  -52.2061  -29.9836    6.7266 C   0  0  0  0  0  0  0  0  0  0  0  0
  -53.4717  -29.3698    6.6396 C   0  0  0  0  0  0  0  0  0  0  0  0
  -51.7232  -28.6942    8.7438 C   0  0  0  0  0  0  0  0  0  0  0  0
  -48.2261  -29.2694    3.8695 C   0  0  0  0  0  0  0  0  0  0  0  0
  -44.3777  -29.4442    6.2043 C   0  0  0  0  0  0  0  0  0  0  0  0
  -51.3235  -29.6412    7.7742 C   0  0  0  0  0  0  0  0  0  0  0  0
  -46.5661  -29.2984    6.0189 C   0  0  0  0  0  0  0  0  0  0  0  0
  -53.8574  -28.4059    7.5933 C   0  0  0  0  0  0  0  0  0  0  0  0
  -52.9831  -28.0699    8.6485 C   0  0  0  0  0  0  0  0  0  0  0  0
  -46.0621  -29.3903    4.7221 C   0  0  0  0  0  0  0  0  0  0  0  0
  -47.9580  -29.1999    6.2013 C   0  0  0  0  0  0  0  0  0  0  0  0
  -49.9587  -30.2967    7.8698 C   0  0  0  0  0  0  0  0  0  0  0  0
  -46.8880  -29.3726    3.6564 N   0  0  0  0  0  0  0  0  0  0  0  0
  -48.7699  -29.1894    5.1157 N   0  0  0  0  0  0  0  0  0  0  0  0
  -45.4897  -29.3260    6.9000 N   0  0  0  0  0  0  0  0  0  0  0  0
  -44.6938  -29.4870    4.8497 N   0  0  0  0  0  0  0  0  0  0  0  0
  -55.0628  -27.7999    7.4876 F   0  0  0  0  0  0  0  0  0  0  0  0
  -48.6213  -29.0239    7.8257 S   0  0  0  0  0  0  0  0  0  0  0  0
  -53.4496  -26.8700    9.8323 Cl  0  0  0  0  0  0  0  0  0  0  0  0
  -51.9109  -30.7170    5.9908 H   0  0  0  0  0  0  0  0  0  0  0  0
  -54.1473  -29.6383    5.8409 H   0  0  0  0  0  0  0  0  0  0  0  0
  -51.0609  -28.4479    9.5606 H   0  0  0  0  0  0  0  0  0  0  0  0
  -48.8861  -29.2499    3.0148 H   0  0  0  0  0  0  0  0  0  0  0  0
  -43.3817  -29.4991    6.6182 H   0  0  0  0  0  0  0  0  0  0  0  0
  -49.8926  -30.8580    8.8136 H   0  0  0  0  0  0  0  0  0  0  0  0
  -49.8290  -30.9868    7.0230 H   0  0  0  0  0  0  0  0  0  0  0  0
  -44.0400  -29.5731    4.0980 H   0  0  0  0  0  0  0  0  0  0  0  0
  1  2  1  0  0  0  0
  1  6  2  0  0  0  0
  2  8  2  0  0  0  0
  3  6  1  0  0  0  0
  3  9  2  0  0  0  0
  4 13  2  0  0  0  0
  4 14  1  0  0  0  0
  5 15  2  0  0  0  0
  5 16  1  0  0  0  0
  6 12  1  0  0  0  0
  7 10  2  0  0  0  0
  7 11  1  0  0  0  0
  7 15  1  0  0  0  0
  8  9  1  0  0  0  0
  8 17  1  0  0  0  0
  9 19  1  0  0  0  0
 10 13  1  0  0  0  0
 10 16  1  0  0  0  0
 11 14  2  0  0  0  0
 11 18  1  0  0  0  0
 12 18  1  0  0  0  0
  1 20  1  0  0  0  0
  2 21  1  0  0  0  0
  3 22  1  0  0  0  0
  4 23  1  0  0  0  0
  5 24  1  0  0  0  0
 12 25  1  0  0  0  0
 12 26  1  0  0  0  0
 16 27  1  0  0  0  0
M  END
> <POSIT::Probability>
0.99

> <POSIT::Method>
SHAPEFIT

> <ReceptorTitle>
UCSF-P4630-REFINED_LIGAND-BOUND-STATE_A__DU__LA1_A-201(A)

> <OMEGA_C>
EtNQwmfe78HnP9dAA+NVwkL16sHBd9RAhOROwqyN5cGP5gtBj+dAwrIn6sFEpXdAz4IxwrON68He
icZAOEtNwj4h7cEwxvhAo0M6wiRj6sHOmsBA+21XwkE/48H++/JAve5TwjCP4ME9YApBkz84wmQf
68HWG5dAA9U/wniZ6cFfccZAutVHwrpf8sFl1ftATo07wgz76sElA2pAXhRDwveD6cEYtKNAfvU1
wpOb6sG3zNxAfcYywlTl68G3MJtAV0Bcwidm3sE+mu9ANXxCwu4w6MEbbPpAaMxVwsb11sEJUR1B
xKRPwmS89cFatL9A05ZYwicb7cEN6bpAYD5MwkuV48Ez+BhBYItDwuH/6cFt8kBA14YtwhL+68Hs
x9NACJJHwhXd9sFSBA1B8lBHwunk98GLvOBA9igwwrOV7MGgIoNA

> <OMEGA_E>
ANkhPQ==

> <OMEGA_NBR>
      7622

$$$$
CACHE3-HO_1690_11
  -OEChem-03092622543D

 38 40  0     1  0  0  0  0  0999 V2000
  -42.9770  -30.1271    2.9940 C   0  0  0  0  0  0  0  0  0  0  0  0
  -50.1315  -28.9136    6.2701 C   0  0  0  0  0  0  0  0  0  0  0  0
  -50.9565  -28.9868    5.1443 C   0  0  0  0  0  0  0  0  0  0  0  0
  -49.0304  -29.1217    3.6720 C   0  0  0  0  0  0  0  0  0  0  0  0
  -44.3137  -29.0075    6.0180 C   0  0  0  0  0  0  0  0  0  0  0  0
  -48.1762  -29.0487    4.7926 C   0  0  0  0  0  0  0  0  0  0  0  0
  -46.7606  -29.0544    4.9653 C   0  0  0  0  0  0  0  0  0  0  0  0
  -48.7470  -28.9475    6.0645 C   0  0  0  0  0  0  0  0  0  0  0  0
  -50.4164  -29.0892    3.8637 C   0  0  0  0  0  0  0  0  0  0  0  0
  -46.5124  -28.9560    6.3275 C   0  0  0  0  0  0  0  0  0  0  0  0
  -45.6433  -29.1307    4.1327 C   0  0  0  0  0  0  0  0  0  0  0  0
  -43.4324  -28.9634    0.8813 C   0  0  0  0  0  0  0  0  0  0  0  0
  -43.1846  -31.4604    0.9450 C   0  0  0  0  0  0  0  0  0  0  0  0
  -46.4628  -28.1972    1.9844 C   0  0  0  0  0  0  0  0  0  0  0  0
  -45.2226  -30.3670    2.0224 C   0  0  0  0  0  0  0  0  0  0  0  0
  -43.7108  -30.2313    1.7076 C   0  0  0  0  0  0  0  0  0  0  0  0
  -42.4043  -30.0450    3.9997 N   0  0  0  0  0  0  0  0  0  0  0  0
  -45.3089  -28.9267    6.9251 N   0  0  0  0  0  0  0  0  0  0  0  0
  -44.4040  -29.1054    4.6736 N   0  0  0  0  0  0  0  0  0  0  0  0
  -47.7152  -28.8926    6.9754 N   0  0  0  0  0  0  0  0  0  0  0  0
  -45.7815  -29.2343    2.7365 N   0  0  3  0  0  0  0  0  0  0  0  0
  -51.5678  -29.1865    2.3653 Br  0  0  0  0  0  0  0  0  0  0  0  0
  -50.5533  -28.8343    7.2666 H   0  0  0  0  0  0  0  0  0  0  0  0
  -52.0345  -28.9623    5.2894 H   0  0  0  0  0  0  0  0  0  0  0  0
  -48.6130  -29.2026    2.6723 H   0  0  0  0  0  0  0  0  0  0  0  0
  -43.3069  -28.9910    6.4211 H   0  0  0  0  0  0  0  0  0  0  0  0
  -43.9561  -28.9950   -0.0825 H   0  0  0  0  0  0  0  0  0  0  0  0
  -43.7616  -28.0585    1.4038 H   0  0  0  0  0  0  0  0  0  0  0  0
  -42.3629  -28.8571    0.6657 H   0  0  0  0  0  0  0  0  0  0  0  0
  -43.6980  -31.5807   -0.0161 H   0  0  0  0  0  0  0  0  0  0  0  0
  -42.1101  -31.3875    0.7462 H   0  0  0  0  0  0  0  0  0  0  0  0
  -43.3485  -32.3822    1.5179 H   0  0  0  0  0  0  0  0  0  0  0  0
  -46.4766  -28.4415    0.9183 H   0  0  0  0  0  0  0  0  0  0  0  0
  -47.4938  -28.0924    2.3338 H   0  0  0  0  0  0  0  0  0  0  0  0
  -45.9548  -27.2382    2.1182 H   0  0  0  0  0  0  0  0  0  0  0  0
  -45.3946  -31.2667    2.6269 H   0  0  0  0  0  0  0  0  0  0  0  0
  -45.7889  -30.5075    1.0930 H   0  0  0  0  0  0  0  0  0  0  0  0
  -47.8305  -28.8169    7.9765 H   0  0  0  0  0  0  0  0  0  0  0  0
  1 16  1  0  0  0  0
  1 17  3  0  0  0  0
  2  3  2  0  0  0  0
  2  8  1  0  0  0  0
  3  9  1  0  0  0  0
  4  6  1  0  0  0  0
  4  9  2  0  0  0  0
  5 18  2  0  0  0  0
  5 19  1  0  0  0  0
  6  7  1  0  0  0  0
  6  8  2  0  0  0  0
  7 10  2  0  0  0  0
  7 11  1  0  0  0  0
  8 20  1  0  0  0  0
  9 22  1  0  0  0  0
 10 18  1  0  0  0  0
 10 20  1  0  0  0  0
 11 19  2  0  0  0  0
 11 21  1  0  0  0  0
 12 16  1  0  0  0  0
 13 16  1  0  0  0  0
 14 21  1  0  0  0  0
 15 16  1  0  0  0  0
 15 21  1  0  0  0  0
  2 23  1  0  0  0  0
  3 24  1  0  0  0  0
  4 25  1  0  0  0  0
  5 26  1  0  0  0  0
 12 27  1  0  0  0  0
 12 28  1  0  0  0  0
 12 29  1  0  0  0  0
 13 30  1  0  0  0  0
 13 31  1  0  0  0  0
 13 32  1  0  0  0  0
 14 33  1  0  0  0  0
 14 34  1  0  0  0  0
 14 35  1  0  0  0  0
 15 36  1  0  0  0  0
 15 37  1  0  0  0  0
 20 38  1  0  0  0  0
M  END
> <POSIT::Probability>
0.5

> <POSIT::Method>
HYBRID

> <ReceptorTitle>
UCSF-P4640-REFINED_LIGAND-BOUND-STATE_A__DU__LA1_A-201(A)

> <OMEGA_C>
b+grwk8E8cFZnT9ArYZIwvxO58EOpchAedNLwv3k58HdnaRAIh9Ewkf56MG8AmtALkExwmMP6MES
k8BAbrRAwtVj6ME/XZlA0wo7wmlv6MHG455A5vxCwoqU58EdEMJAYapJwqe26MGYRndAuww6wvKl
58ESe8pAwpI2wqAL6cFTP4RAx7otwv2058GomWE/Ar0swv+u+8G07HE/4dk5wvKT4cG8//0/7eM0
wqfv8sEbbwFA39cuwr7Z8cFWk9o/CZ4pwhhc8MG0+n9AVzw1wtFp58Fmmt1AuZ0xwtnX6ME8jpVA
W9w+wvMj58G6Nt9ASCA3wuPf6cGdIi9AZkVOwgJ+6cGsYRdAmTZKwpWs5sG+h+hASiNQwuKy58Eq
Q6lArnNCwgCf6cGNBytAUDotwqvt58Hbec1AA9MvwrX158Gg56i91gsvwth34MF5rrM/n3Mpwj/b
5sGwayo/usouwk6l/MGAOYS8tHAowrIZ+8HQBz8/4mQtwmSHAcIcSsI/FOg5wh6I48H4Ems/nfk9
wkG94MHkXBVAq9E3wtDn2cGekAdACZQ1wj4i+sF7HyhAySc3wloP9MGU5os/elI/whWJ5sG4P/9A

> <OMEGA_E>
KJJRwQ==

> <OMEGA_NBR>
      1263

$$$$
CACHE3-HO_1690_18
  -OEChem-03092622543D

 38 40  0     1  0  0  0  0  0999 V2000
  -44.4047  -31.1849    1.1239 C   0  0  0  0  0  0  0  0  0  0  0  0
  -49.7790  -28.9516    6.7180 C   0  0  0  0  0  0  0  0  0  0  0  0
  -50.6750  -28.7918    5.6425 C   0  0  0  0  0  0  0  0  0  0  0  0
  -48.7965  -28.6610    4.0607 C   0  0  0  0  0  0  0  0  0  0  0  0
  -43.8861  -29.2731    5.9769 C   0  0  0  0  0  0  0  0  0  0  0  0
  -47.9247  -28.8852    5.1425 C   0  0  0  0  0  0  0  0  0  0  0  0
  -46.4608  -29.0189    5.1983 C   0  0  0  0  0  0  0  0  0  0  0  0
  -48.4001  -28.9958    6.4573 C   0  0  0  0  0  0  0  0  0  0  0  0
  -50.1880  -28.6410    4.3220 C   0  0  0  0  0  0  0  0  0  0  0  0
  -46.1285  -29.1286    6.5555 C   0  0  0  0  0  0  0  0  0  0  0  0
  -45.4408  -29.0759    4.2058 C   0  0  0  0  0  0  0  0  0  0  0  0
  -43.6300  -27.7516    2.0484 C   0  0  0  0  0  0  0  0  0  0  0  0
  -46.5876  -32.0942    0.4702 C   0  0  0  0  0  0  0  0  0  0  0  0
  -45.1577  -27.9597    1.9642 C   0  0  0  0  0  0  0  0  0  0  0  0
  -46.4478  -30.2213    2.1803 C   0  0  0  0  0  0  0  0  0  0  0  0
  -45.8052  -30.8320    0.8985 C   0  0  1  0  0  0  0  0  0  0  0  0
  -43.2841  -31.4522    1.3013 N   0  0  0  0  0  0  0  0  0  0  0  0
  -44.8455  -29.2512    6.9318 N   0  0  0  0  0  0  0  0  0  0  0  0
  -44.1606  -29.2023    4.6458 N   0  0  0  0  0  0  0  0  0  0  0  0
  -47.3041  -29.1238    7.2995 N   0  0  0  0  0  0  0  0  0  0  0  0
  -45.6627  -29.0937    2.8109 N   0  0  3  0  0  0  0  0  0  0  0  0
  -51.4265  -28.3955    2.8972 Br  0  0  0  0  0  0  0  0  0  0  0  0
  -50.1479  -29.0390    7.7292 H   0  0  0  0  0  0  0  0  0  0  0  0
  -51.7391  -28.7842    5.8266 H   0  0  0  0  0  0  0  0  0  0  0  0
  -48.4157  -28.5087    3.0616 H   0  0  0  0  0  0  0  0  0  0  0  0
  -42.8542  -29.3503    6.2861 H   0  0  0  0  0  0  0  0  0  0  0  0
  -43.3382  -26.9085    1.4050 H   0  0  0  0  0  0  0  0  0  0  0  0
  -43.3465  -27.5340    3.0887 H   0  0  0  0  0  0  0  0  0  0  0  0
  -43.1166  -28.6644    1.7118 H   0  0  0  0  0  0  0  0  0  0  0  0
  -47.6423  -31.8322    0.2997 H   0  0  0  0  0  0  0  0  0  0  0  0
  -46.1551  -32.4962   -0.4579 H   0  0  0  0  0  0  0  0  0  0  0  0
  -46.5221  -32.8530    1.2639 H   0  0  0  0  0  0  0  0  0  0  0  0
  -45.6525  -27.0340    2.2934 H   0  0  0  0  0  0  0  0  0  0  0  0
  -45.4226  -28.1645    0.9164 H   0  0  0  0  0  0  0  0  0  0  0  0
  -47.4433  -29.8370    1.9134 H   0  0  0  0  0  0  0  0  0  0  0  0
  -46.5521  -31.0236    2.9256 H   0  0  0  0  0  0  0  0  0  0  0  0
  -45.8727  -30.0889    0.0902 H   0  0  0  0  0  0  0  0  0  0  0  0
  -47.3524  -29.2012    8.2953 H   0  0  0  0  0  0  0  0  0  0  0  0
  1 16  1  0  0  0  0
  1 17  3  0  0  0  0
  2  3  2  0  0  0  0
  2  8  1  0  0  0  0
  3  9  1  0  0  0  0
  4  6  1  0  0  0  0
  4  9  2  0  0  0  0
  5 18  2  0  0  0  0
  5 19  1  0  0  0  0
  6  7  1  0  0  0  0
  6  8  2  0  0  0  0
  7 10  2  0  0  0  0
  7 11  1  0  0  0  0
  8 20  1  0  0  0  0
  9 22  1  0  0  0  0
 10 18  1  0  0  0  0
 10 20  1  0  0  0  0
 11 19  2  0  0  0  0
 11 21  1  0  0  0  0
 12 14  1  0  0  0  0
 13 16  1  0  0  0  0
 14 21  1  0  0  0  0
 15 16  1  0  0  0  0
 15 21  1  0  0  0  0
  2 23  1  0  0  0  0
  3 24  1  0  0  0  0
  4 25  1  0  0  0  0
  5 26  1  0  0  0  0
 12 27  1  0  0  0  0
 12 28  1  0  0  0  0
 12 29  1  0  0  0  0
 13 30  1  0  0  0  0
 13 31  1  0  0  0  0
 13 32  1  0  0  0  0
 14 33  1  0  0  0  0
 14 34  1  0  0  0  0
 15 35  1  0  0  0  0
 15 36  1  0  0  0  0
 16 37  1  0  0  0  0
 20 38  1  0  0  0  0
M  END
> <POSIT::Probability>
0.72

> <POSIT::Method>
SHAPEFIT

> <ReceptorTitle>
UCSF-P4640-REFINED_LIGAND-BOUND-STATE_A__DU__LA1_A-201(A)

> <OMEGA_C>
Zp4xwrN6+cGm248/ux1Hwuyc58Gk+dZAKbNKwoVV5sFWj7RAky9DwqVJ5cF08YFAZ4svwjsv6sEe
Q79A4rI/wusU58FWj6RA59c5wq8m6MHcWKZAu5lBwk3358EUos5AecBIws8g5cEkTopAoIM4wlsH
6cHKxtFAXcM1wmGb6ME8loZAGIUuwlAD3sFsGQNAu1k6wn5gAMK4uvA+fKE0wnyt38FQbPs/iMo5
wjrF8cFeiQtAgjg3wuOn9sH8A2Y/7iItwiSe+8HMkaY/1WEzwoMC6sEU0d1AgaQwwkie6cGMqpRA
Xjc9wnL96MFOlelAp6Y2wv6/6MFw5jNAxbRNwu4p48FQbDlAeZdIwvVP6MEDVvdA3vROwgFG5sFg
c7pAsKlBwtAR5MFI8UNAt2orwmTN6sGlJ8lAWFotwp5E18HT1bM/ymItwpBF3MHyrUVAbHcswqtQ
5cEfHNs/sZE+wmuo/sHJbJk+3J44wiD8AcJ2dOq+rhY6wnRpA8Ktx6E/I5w2wrhF2MHaxhJAxbA1
wtNQ4cHem2o/9sU9wh+y7sE46/Q/XzU6wkcw+MFhPDtAmH03wiC28MFxwLg94Gg9wvub6cGPuQRB

> <OMEGA_E>
9GckPw==

> <OMEGA_NBR>
      2552

$$$$
CACHE3-HO_1690_29
  -OEChem-03092622543D

 38 40  0     1  0  0  0  0  0999 V2000
  -44.1595  -31.3356    0.2574 C   0  0  0  0  0  0  0  0  0  0  0  0
  -48.5908  -28.8754    3.9326 C   0  0  0  0  0  0  0  0  0  0  0  0
  -50.0001  -28.9258    4.0896 C   0  0  0  0  0  0  0  0  0  0  0  0
  -49.7584  -29.1315    6.5233 C   0  0  0  0  0  0  0  0  0  0  0  0
  -43.8179  -29.1126    6.2322 C   0  0  0  0  0  0  0  0  0  0  0  0
  -47.7980  -28.9615    5.0924 C   0  0  0  0  0  0  0  0  0  0  0  0
  -46.3386  -28.9882    5.2647 C   0  0  0  0  0  0  0  0  0  0  0  0
  -48.3653  -29.0792    6.3699 C   0  0  0  0  0  0  0  0  0  0  0  0
  -50.5790  -29.0626    5.3800 C   0  0  0  0  0  0  0  0  0  0  0  0
  -46.1041  -29.0874    6.6420 C   0  0  0  0  0  0  0  0  0  0  0  0
  -45.2445  -28.9932    4.3556 C   0  0  0  0  0  0  0  0  0  0  0  0
  -46.1410  -29.8965    0.1692 C   0  0  0  0  0  0  0  0  0  0  0  0
  -46.0128  -31.8541    1.7474 C   0  0  0  0  0  0  0  0  0  0  0  0
  -45.4541  -27.4979    2.4493 C   0  0  0  0  0  0  0  0  0  0  0  0
  -44.4773  -29.8162    2.1352 C   0  0  0  0  0  0  0  0  0  0  0  0
  -45.2033  -30.7152    1.0803 C   0  0  0  0  0  0  0  0  0  0  0  0
  -43.3204  -31.8311   -0.3828 N   0  0  0  0  0  0  0  0  0  0  0  0
  -44.8469  -29.1445    7.1122 N   0  0  0  0  0  0  0  0  0  0  0  0
  -43.9947  -29.0440    4.8865 N   0  0  0  0  0  0  0  0  0  0  0  0
  -47.3315  -29.1377    7.2952 N   0  0  0  0  0  0  0  0  0  0  0  0
  -45.3517  -28.8934    2.9583 N   0  0  1  0  0  0  0  0  0  0  0  0
  -52.4734  -29.1730    5.5921 Br  0  0  0  0  0  0  0  0  0  0  0  0
  -48.1414  -28.7743    2.9558 H   0  0  0  0  0  0  0  0  0  0  0  0
  -50.6383  -28.8597    3.2208 H   0  0  0  0  0  0  0  0  0  0  0  0
  -50.1969  -29.2235    7.5060 H   0  0  0  0  0  0  0  0  0  0  0  0
  -42.8096  -29.1432    6.6179 H   0  0  0  0  0  0  0  0  0  0  0  0
  -46.9275  -29.4273    0.7785 H   0  0  0  0  0  0  0  0  0  0  0  0
  -45.5619  -29.1160   -0.3461 H   0  0  0  0  0  0  0  0  0  0  0  0
  -46.6021  -30.5624   -0.5751 H   0  0  0  0  0  0  0  0  0  0  0  0
  -46.8068  -31.4218    2.3741 H   0  0  0  0  0  0  0  0  0  0  0  0
  -46.4639  -32.4875    0.9694 H   0  0  0  0  0  0  0  0  0  0  0  0
  -45.3427  -32.4624    2.3726 H   0  0  0  0  0  0  0  0  0  0  0  0
  -45.5340  -27.5121    1.3523 H   0  0  0  0  0  0  0  0  0  0  0  0
  -46.3467  -27.0168    2.8756 H   0  0  0  0  0  0  0  0  0  0  0  0
  -44.5572  -26.9334    2.7442 H   0  0  0  0  0  0  0  0  0  0  0  0
  -43.9466  -30.4819    2.8317 H   0  0  0  0  0  0  0  0  0  0  0  0
  -43.7485  -29.1927    1.5967 H   0  0  0  0  0  0  0  0  0  0  0  0
  -47.4516  -29.2061    8.2856 H   0  0  0  0  0  0  0  0  0  0  0  0
  1 16  1  0  0  0  0
  1 17  3  0  0  0  0
  2  3  2  0  0  0  0
  2  6  1  0  0  0  0
  3  9  1  0  0  0  0
  4  8  1  0  0  0  0
  4  9  2  0  0  0  0
  5 18  2  0  0  0  0
  5 19  1  0  0  0  0
  6  7  1  0  0  0  0
  6  8  2  0  0  0  0
  7 10  2  0  0  0  0
  7 11  1  0  0  0  0
  8 20  1  0  0  0  0
  9 22  1  0  0  0  0
 10 18  1  0  0  0  0
 10 20  1  0  0  0  0
 11 19  2  0  0  0  0
 11 21  1  0  0  0  0
 12 16  1  0  0  0  0
 13 16  1  0  0  0  0
 14 21  1  0  0  0  0
 15 16  1  0  0  0  0
 15 21  1  0  0  0  0
  2 23  1  0  0  0  0
  3 24  1  0  0  0  0
  4 25  1  0  0  0  0
  5 26  1  0  0  0  0
 12 27  1  0  0  0  0
 12 28  1  0  0  0  0
 12 29  1  0  0  0  0
 13 30  1  0  0  0  0
 13 31  1  0  0  0  0
 13 32  1  0  0  0  0
 14 33  1  0  0  0  0
 14 34  1  0  0  0  0
 14 35  1  0  0  0  0
 15 36  1  0  0  0  0
 15 37  1  0  0  0  0
 20 38  1  0  0  0  0
M  END
> <POSIT::Probability>
0.72

> <POSIT::Method>
SHAPEFIT

> <ReceptorTitle>
UCSF-P4640-REFINED_LIGAND-BOUND-STATE_A__DU__LA1_A-201(A)

> <OMEGA_C>
VKMwwlev+sFdxoM+8FxCwsYA58FdsHtAHwBIwhdo58HQ3YJAlQhHwlkN6cHVvtBAhkUvwrHm6MEG
bsdAITE/wiCx58Eb9aJAw1o5wtbn58GyeKhAEnZBwj+i6MH91ctA3VBKwiyA6MEuKaxAmmo4wvGy
6MHvitRAU/o0wiDy58FCYYtAWJA4wgss78ECNy0+HQ04wiLV/sGTqt8/+9A1wqH728H5wBxAzegx
wqqH7sGypghAM9A0wrO49cGuRoo/E0gtwv6l/sFLBMS+NmMzwvMn6cE4l+NAh/ovwhNa6MGVXpxA
b1M9whsa6cGQculALGg1wqwl58GBVD1AwuRRwjli6cFQ8rJAwpBAwrcx5sHGKz1AmI1KwrHg5sF/
IU5AmslIwsbJ6cHuMPBACD0rwlgl6cEtxtNAu7U7wiRr68HJSUc/Vj82wo/t6MHhLbG+l2g6wr1/
9MGpOhO/LTo7wulf+8G+8BdABds5wjLzAcKNKXg/9V41wobZAcLj2BdAziI2wrgY3MFjF60/B2M5
wk8i2MHtCThAijoywrB318GUoC9AVskvwvLa88FkOzVAdP4uwo6K6cEVYsw/Zs49wgSm6cEBkgRB

> <OMEGA_E>
cPYQPw==

> <OMEGA_NBR>
      3836

$$$$
CACHE3-HO_1690_37
  -OEChem-03092622543D

 35 37  0     1  0  0  0  0  0999 V2000
  -48.6185  -29.0178    3.9745 C   0  0  0  0  0  0  0  0  0  0  0  0
  -50.0243  -29.0296    4.1455 C   0  0  0  0  0  0  0  0  0  0  0  0
  -49.7568  -29.0804    6.5870 C   0  0  0  0  0  0  0  0  0  0  0  0
  -43.8114  -29.0794    6.1822 C   0  0  0  0  0  0  0  0  0  0  0  0
  -47.8134  -29.0351    5.1328 C   0  0  0  0  0  0  0  0  0  0  0  0
  -46.3565  -29.0255    5.2922 C   0  0  0  0  0  0  0  0  0  0  0  0
  -48.3621  -29.0676    6.4202 C   0  0  0  0  0  0  0  0  0  0  0  0
  -50.5897  -29.0597    5.4471 C   0  0  0  0  0  0  0  0  0  0  0  0
  -46.0887  -29.0598    6.6619 C   0  0  0  0  0  0  0  0  0  0  0  0
  -45.3034  -29.0438    4.3556 C   0  0  0  0  0  0  0  0  0  0  0  0
  -43.3932  -29.7528    1.8607 C   0  0  0  0  0  0  0  0  0  0  0  0
  -45.5059  -28.7185   -0.0796 C   0  0  0  0  0  0  0  0  0  0  0  0
  -44.9049  -30.0427    2.0649 C   0  0  2  0  0  0  0  0  0  0  0  0
  -45.6860  -30.0330    0.7173 C   0  0  2  0  0  0  0  0  0  0  0  0
  -44.8150  -29.0831    7.0984 N   0  0  0  0  0  0  0  0  0  0  0  0
  -44.0328  -29.0694    4.8362 N   0  0  0  0  0  0  0  0  0  0  0  0
  -47.3091  -29.0817    7.3351 N   0  0  0  0  0  0  0  0  0  0  0  0
  -45.5578  -29.0635    2.9833 N   0  0  0  0  0  0  0  0  0  0  0  0
  -45.2608  -31.1317   -0.0913 O   0  0  0  0  0  0  0  0  0  0  0  0
  -52.4859  -29.0707    5.6746 Br  0  0  0  0  0  0  0  0  0  0  0  0
  -48.1770  -28.9963    2.9891 H   0  0  0  0  0  0  0  0  0  0  0  0
  -50.6703  -29.0156    3.2801 H   0  0  0  0  0  0  0  0  0  0  0  0
  -50.1876  -29.1057    7.5771 H   0  0  0  0  0  0  0  0  0  0  0  0
  -42.7911  -29.0846    6.5361 H   0  0  0  0  0  0  0  0  0  0  0  0
  -42.8814  -29.7690    2.8343 H   0  0  0  0  0  0  0  0  0  0  0  0
  -42.9579  -30.5212    1.2049 H   0  0  0  0  0  0  0  0  0  0  0  0
  -43.2692  -28.7626    1.3979 H   0  0  0  0  0  0  0  0  0  0  0  0
  -46.0799  -28.7753   -1.0162 H   0  0  0  0  0  0  0  0  0  0  0  0
  -45.8691  -27.8724    0.5222 H   0  0  0  0  0  0  0  0  0  0  0  0
  -44.4403  -28.5732   -0.3109 H   0  0  0  0  0  0  0  0  0  0  0  0
  -44.9992  -31.0483    2.5005 H   0  0  0  0  0  0  0  0  0  0  0  0
  -46.7556  -30.1428    0.9493 H   0  0  0  0  0  0  0  0  0  0  0  0
  -47.4145  -29.1042    8.3293 H   0  0  0  0  0  0  0  0  0  0  0  0
  -46.5430  -29.2032    2.8847 H   0  0  0  0  0  0  0  0  0  0  0  0
  -45.3690  -31.9421    0.3926 H   0  0  0  0  0  0  0  0  0  0  0  0
  1  2  2  0  0  0  0
  1  5  1  0  0  0  0
  2  8  1  0  0  0  0
  3  7  1  0  0  0  0
  3  8  2  0  0  0  0
  4 15  2  0  0  0  0
  4 16  1  0  0  0  0
  5  6  1  0  0  0  0
  5  7  2  0  0  0  0
  6  9  2  0  0  0  0
  6 10  1  0  0  0  0
  7 17  1  0  0  0  0
  8 20  1  0  0  0  0
  9 15  1  0  0  0  0
  9 17  1  0  0  0  0
 10 16  2  0  0  0  0
 10 18  1  0  0  0  0
 11 13  1  0  0  0  0
 12 14  1  0  0  0  0
 13 14  1  0  0  0  0
 13 18  1  0  0  0  0
 14 19  1  0  0  0  0
  1 21  1  0  0  0  0
  2 22  1  0  0  0  0
  3 23  1  0  0  0  0
  4 24  1  0  0  0  0
 11 25  1  0  0  0  0
 11 26  1  0  0  0  0
 11 27  1  0  0  0  0
 12 28  1  0  0  0  0
 12 29  1  0  0  0  0
 12 30  1  0  0  0  0
 13 31  1  0  0  0  0
 14 32  1  0  0  0  0
 17 33  1  0  0  0  0
 18 34  1  0  0  0  0
 19 35  1  0  0  0  0
M  END
> <POSIT::Probability>
0.9

> <POSIT::Method>
SHAPEFIT

> <ReceptorTitle>
UCSF-P4640-REFINED_LIGAND-BOUND-STATE_A__DU__LA1_A-201(A)

> <OMEGA_C>
XHlCwngk6MGzXX5A5xhIwqM86MEIqIRA+QZHwpak6MH1yNJA4j4vwpai6MFm1MVA80A/wuVH6MEk
QKRACm05wkE06MGLWalAynJBwmuK6ME/cs1A2FtKwkh66MFBTq5AyFo4wo966MFNLtVApDY1wr1Z
6MHRYItAqJItwqYF7sGxK+4/BQY2wny/5cFU76K9lp4zwmdX8MGaJwRAcL42wqRD8MEynjc/g0Iz
wkWq6MF9JuNAkiEwwhKO6MGMwppAkTw9wlmn6MF9uepALDs2whaC6MG/7j5AFAs1wsEN+cGk77q9
ifFRwt+Q6MGXlrVASLVAwlj458HFTD9AXa5Kwvsf6MEg7VFAIMBIwofY6MFFd/JADCorwjit6MHF
J9FAlYYrwvIm7sGKZDVA8NQrwmAr9MGbOpo/nhMtwtIZ5sHI7bI/0FE4wssz5sGGEoK/AHo3wqz6
3sEmsQU/68IxwtqV5MEQMJ++KP8zwgFj+MFrCCBAvwU7wmck8cEkA3M/eag9woDV6MHlRAVBFSw6
wj6g6cEmnjhA1Xk1wlqJ/8E5Ask+

> <OMEGA_E>
hAfjPg==

> <OMEGA_NBR>
      5063

$$$$
CACHE3-HO_1690_41
  -OEChem-03092622543D

 38 40  0     1  0  0  0  0  0999 V2000
  -48.5538  -29.0098    3.8760 C   0  0  0  0  0  0  0  0  0  0  0  0
  -49.9635  -29.0142    4.0305 C   0  0  0  0  0  0  0  0  0  0  0  0
  -49.7279  -29.1489    6.4716 C   0  0  0  0  0  0  0  0  0  0  0  0
  -43.7830  -29.0611    6.1793 C   0  0  0  0  0  0  0  0  0  0  0  0
  -47.7645  -29.0779    5.0424 C   0  0  0  0  0  0  0  0  0  0  0  0
  -46.3090  -29.0761    5.2246 C   0  0  0  0  0  0  0  0  0  0  0  0
  -48.3324  -29.1464    6.3210 C   0  0  0  0  0  0  0  0  0  0  0  0
  -50.5461  -29.0828    5.3242 C   0  0  0  0  0  0  0  0  0  0  0  0
  -46.0669  -29.1519    6.5990 C   0  0  0  0  0  0  0  0  0  0  0  0
  -45.2316  -28.9849    4.3179 C   0  0  0  0  0  0  0  0  0  0  0  0
  -42.7231  -30.8137    2.7519 C   0  0  0  0  0  0  0  0  0  0  0  0
  -44.7387  -28.1668    0.6870 C   0  0  0  0  0  0  0  0  0  0  0  0
  -44.8047  -31.4209    1.4830 C   0  0  0  0  0  0  0  0  0  0  0  0
  -43.7052  -30.3366    1.6510 C   0  0  1  0  0  0  0  0  0  0  0  0
  -44.2720  -28.9020    1.9663 C   0  0  2  0  0  0  0  0  0  0  0  0
  -44.8047  -29.1550    7.0656 N   0  0  0  0  0  0  0  0  0  0  0  0
  -43.9762  -28.9546    4.8372 N   0  0  0  0  0  0  0  0  0  0  0  0
  -47.2960  -29.1986    7.2500 N   0  0  0  0  0  0  0  0  0  0  0  0
  -45.4150  -28.9291    2.9346 N   0  0  0  0  0  0  0  0  0  0  0  0
  -45.7901  -31.0405    0.5289 O   0  0  0  0  0  0  0  0  0  0  0  0
  -52.4448  -29.0859    5.5346 Br  0  0  0  0  0  0  0  0  0  0  0  0
  -48.0999  -28.9561    2.8975 H   0  0  0  0  0  0  0  0  0  0  0  0
  -50.5987  -28.9651    3.1584 H   0  0  0  0  0  0  0  0  0  0  0  0
  -50.1706  -29.2010    7.4553 H   0  0  0  0  0  0  0  0  0  0  0  0
  -42.7708  -29.0713    6.5557 H   0  0  0  0  0  0  0  0  0  0  0  0
  -41.9329  -30.0611    2.8902 H   0  0  0  0  0  0  0  0  0  0  0  0
  -43.2696  -30.9492    3.6969 H   0  0  0  0  0  0  0  0  0  0  0  0
  -42.2702  -31.7696    2.4499 H   0  0  0  0  0  0  0  0  0  0  0  0
  -45.1254  -27.1726    0.9552 H   0  0  0  0  0  0  0  0  0  0  0  0
  -43.8889  -28.0557   -0.0026 H   0  0  0  0  0  0  0  0  0  0  0  0
  -45.5335  -28.7497    0.1985 H   0  0  0  0  0  0  0  0  0  0  0  0
  -44.3320  -32.3569    1.1509 H   0  0  0  0  0  0  0  0  0  0  0  0
  -45.2951  -31.5822    2.4544 H   0  0  0  0  0  0  0  0  0  0  0  0
  -43.1472  -30.2731    0.7051 H   0  0  0  0  0  0  0  0  0  0  0  0
  -43.4549  -28.3152    2.4112 H   0  0  0  0  0  0  0  0  0  0  0  0
  -47.4175  -29.2607    8.2407 H   0  0  0  0  0  0  0  0  0  0  0  0
  -45.9613  -29.7317    2.6954 H   0  0  0  0  0  0  0  0  0  0  0  0
  -46.4422  -31.7274    0.4554 H   0  0  0  0  0  0  0  0  0  0  0  0
  1  2  2  0  0  0  0
  1  5  1  0  0  0  0
  2  8  1  0  0  0  0
  3  7  1  0  0  0  0
  3  8  2  0  0  0  0
  4 16  2  0  0  0  0
  4 17  1  0  0  0  0
  5  6  1  0  0  0  0
  5  7  2  0  0  0  0
  6  9  2  0  0  0  0
  6 10  1  0  0  0  0
  7 18  1  0  0  0  0
  8 21  1  0  0  0  0
  9 16  1  0  0  0  0
  9 18  1  0  0  0  0
 10 17  2  0  0  0  0
 10 19  1  0  0  0  0
 11 14  1  0  0  0  0
 12 15  1  0  0  0  0
 13 14  1  0  0  0  0
 13 20  1  0  0  0  0
 14 15  1  0  0  0  0
 15 19  1  0  0  0  0
  1 22  1  0  0  0  0
  2 23  1  0  0  0  0
  3 24  1  0  0  0  0
  4 25  1  0  0  0  0
 11 26  1  0  0  0  0
 11 27  1  0  0  0  0
 11 28  1  0  0  0  0
 12 29  1  0  0  0  0
 12 30  1  0  0  0  0
 12 31  1  0  0  0  0
 13 32  1  0  0  0  0
 13 33  1  0  0  0  0
 14 34  1  0  0  0  0
 15 35  1  0  0  0  0
 18 36  1  0  0  0  0
 19 37  1  0  0  0  0
 20 38  1  0  0  0  0
M  END
> <POSIT::Probability>
0.9

> <POSIT::Method>
SHAPEFIT

> <ReceptorTitle>
UCSF-P4640-REFINED_LIGAND-BOUND-STATE_A__DU__LA1_A-201(A)

> <OMEGA_C>
EjdCwiAU6MGCEHhAqdpHwiod6MHe+YBAZ+lGwgwx6cFQF89AzSEvwht96MHsvMVA0Q4/wnif6MFc
W6FAYzw5wtab6METMKdAYVRBwrwr6cGSRcpAPi9Kwp+p6MHqX6pAd0Q4wiQ36cG7KtNAHu00wgvh
58EoLIpAgOQqwnCC9sFMHzBAafQywpdV4cHe3C8/Azgzwupd+8FU1L0/I9IuwlKx8sG2UtM/gRYx
wmM358ESsPs/+jczwlw96cFoGeJAmOcvwv6i58GtyppAIy89wsSW6cH6/+dA6ag1wr5u58H00DtA
Dyk3wt5S+MHRZAc/fcdRwvKv6MGqG7FAR2ZAwium58F/cDlABWVKwoy458G9IkpAtK5Iwqub6cEJ
ku5ASBUrwhaS6MGOyNFAQrsnwjd98MGG+ThAHhQtwgyY98GfmWxAuxQpwgoo/sEmyxxAaoA0wm1h
2cGwinQ/N44vwhhy4MGQeSq7QyI2wlL/5cGqR0s+/FMxwoRtAcJlUZM/Ki41wmmo/MFvFB1AtJYs
wmQv8sGHhDQ/xdEtwoaF4sHwUBpAfKs9wtUV6sG62QNBatg3wofa7cHsgCxAysQ5wrjR/cG8Juk+

> <OMEGA_E>
qBPTPg==

> <OMEGA_NBR>
      6351

$$$$
CACHE3-HO_1708_9
  -OEChem-03092622543D

 38 41  0     1  0  0  0  0  0999 V2000
  -49.8073  -29.1111    3.8230 C   0  0  0  0  0  0  0  0  0  0  0  0
  -50.4862  -29.0899    5.0668 C   0  0  0  0  0  0  0  0  0  0  0  0
  -48.3957  -29.0896    3.7803 C   0  0  0  0  0  0  0  0  0  0  0  0
  -49.7609  -29.0608    6.2806 C   0  0  0  0  0  0  0  0  0  0  0  0
  -44.4513  -31.3791    1.5986 C   0  0  0  0  0  0  0  0  0  0  0  0
  -43.7987  -29.1531    6.3366 C   0  0  0  0  0  0  0  0  0  0  0  0
  -47.7004  -29.0408    5.0049 C   0  0  0  0  0  0  0  0  0  0  0  0
  -46.2672  -29.0462    5.2788 C   0  0  0  0  0  0  0  0  0  0  0  0
  -48.3550  -29.0474    6.2403 C   0  0  0  0  0  0  0  0  0  0  0  0
  -44.7190  -29.9801    1.1797 C   0  0  0  0  0  0  0  0  0  0  0  0
  -45.2865  -32.1653    0.8470 C   0  0  0  0  0  0  0  0  0  0  0  0
  -46.1048  -29.0943    6.6616 C   0  0  0  0  0  0  0  0  0  0  0  0
  -45.1561  -28.9817    4.4176 C   0  0  0  0  0  0  0  0  0  0  0  0
  -42.8877  -28.6489    2.2779 C   0  0  0  0  0  0  0  0  0  0  0  0
  -44.3831  -28.7245    1.9291 C   0  0  2  0  0  0  0  0  0  0  0  0
  -45.6046  -33.6315    0.9275 C   0  0  0  0  0  0  0  0  0  0  0  0
  -44.8635  -29.1373    7.1831 N   0  0  0  0  0  0  0  0  0  0  0  0
  -43.9249  -29.0647    4.9816 N   0  0  0  0  0  0  0  0  0  0  0  0
  -45.5948  -29.9876    0.2014 N   0  0  0  0  0  0  0  0  0  0  0  0
  -47.3772  -29.0619    7.2389 N   0  0  0  0  0  0  0  0  0  0  0  0
  -45.8919  -31.2818   -0.0037 N   0  0  0  0  0  0  0  0  0  0  0  0
  -45.3513  -28.6626    3.0687 N   0  0  0  0  0  0  0  0  0  0  0  0
  -44.9192  -34.2316    1.9337 F   0  0  0  0  0  0  0  0  0  0  0  0
  -45.2983  -34.2120   -0.2597 F   0  0  0  0  0  0  0  0  0  0  0  0
  -46.9391  -33.7599    1.1496 F   0  0  0  0  0  0  0  0  0  0  0  0
  -50.3722  -29.1440    2.9031 H   0  0  0  0  0  0  0  0  0  0  0  0
  -51.5660  -29.0960    5.0879 H   0  0  0  0  0  0  0  0  0  0  0  0
  -47.8663  -29.1098    2.8392 H   0  0  0  0  0  0  0  0  0  0  0  0
  -50.2805  -29.0489    7.2273 H   0  0  0  0  0  0  0  0  0  0  0  0
  -43.7429  -31.7102    2.3437 H   0  0  0  0  0  0  0  0  0  0  0  0
  -42.8077  -29.2396    6.7571 H   0  0  0  0  0  0  0  0  0  0  0  0
  -42.6850  -27.7163    2.8250 H   0  0  0  0  0  0  0  0  0  0  0  0
  -42.6139  -29.5093    2.9063 H   0  0  0  0  0  0  0  0  0  0  0  0
  -42.2939  -28.6672    1.3521 H   0  0  0  0  0  0  0  0  0  0  0  0
  -44.6012  -27.8759    1.2641 H   0  0  0  0  0  0  0  0  0  0  0  0
  -47.5610  -29.0507    8.2218 H   0  0  0  0  0  0  0  0  0  0  0  0
  -46.5132  -31.5787   -0.7288 H   0  0  0  0  0  0  0  0  0  0  0  0
  -46.1074  -29.2513    2.7826 H   0  0  0  0  0  0  0  0  0  0  0  0
  1  2  1  0  0  0  0
  1  3  2  0  0  0  0
  2  4  2  0  0  0  0
  3  7  1  0  0  0  0
  4  9  1  0  0  0  0
  5 10  1  0  0  0  0
  5 11  2  0  0  0  0
  6 17  2  0  0  0  0
  6 18  1  0  0  0  0
  7  8  1  0  0  0  0
  7  9  2  0  0  0  0
  8 12  2  0  0  0  0
  8 13  1  0  0  0  0
  9 20  1  0  0  0  0
 10 15  1  0  0  0  0
 10 19  2  0  0  0  0
 11 16  1  0  0  0  0
 11 21  1  0  0  0  0
 12 17  1  0  0  0  0
 12 20  1  0  0  0  0
 13 18  2  0  0  0  0
 13 22  1  0  0  0  0
 14 15  1  0  0  0  0
 15 22  1  0  0  0  0
 16 23  1  0  0  0  0
 16 24  1  0  0  0  0
 16 25  1  0  0  0  0
 19 21  1  0  0  0  0
  1 26  1  0  0  0  0
  2 27  1  0  0  0  0
  3 28  1  0  0  0  0
  4 29  1  0  0  0  0
  5 30  1  0  0  0  0
  6 31  1  0  0  0  0
 14 32  1  0  0  0  0
 14 33  1  0  0  0  0
 14 34  1  0  0  0  0
 15 35  1  0  0  0  0
 20 36  1  0  0  0  0
 21 37  1  0  0  0  0
 22 38  1  0  0  0  0
M  END
> <POSIT::Probability>
0.72

> <POSIT::Method>
SHAPEFIT

> <ReceptorTitle>
UCSF-P4640-REFINED_LIGAND-BOUND-STATE_A__DU__LA1_A-201(A)

> <OMEGA_C>
rTpHwpDj6MFKrHRA4/FJwg646MEjI6JAO5VBwmu36ME+8HFALAtHwnB86MGF+shAF84xwmwI+8Hd
n8w/4jEvwoY56cFJxcpAK80+wqhT6MELKKBAmxE5wrde6MEd7KhAjWtBwhZh6MHFsMdAN+AywjTX
78FT/5Y/VSU1wk6pAMKy1lg/V2s4wh3B6MEzLNVA4p80wm7a58GtXI1A94wrwugw5cHqyRFAQ4gx
wuDL5cEb7PY/KGs2wqSGBsI2cG0/PHQzwjcZ6cGR2+VAD7MvwmqE6MGpaZ9AEmE2wqTm78E4RU4+
QoI9wrd+6MFPpedAS5E3wglB+sEA3nO7xGc1whhN5cHiZERANq0zwiLtCMLTg/c/eTE1wgzZCMIE
+4S+qME7wh8KB8IHJpM/Hn1JwtIm6cGKzDlAlENOwobE6MFF0KJAFHc/wszg6MEvtTVANR9JwjJk
6MExRudAxvguwnmu/cGT/hVAFTsrwsvq6cHOOdhAZr0qwv+63cEhzDRAmnQqwv0S7MEKADpA9ywp
wn9W5cHhEq0/pWcywsEB38Gkz6E/cT4+wsdn6MGijANBgA06wjuh/MFclTq/9m04wrYC6sG5FTJA

> <OMEGA_E>
AHkOPw==

> <OMEGA_NBR>
      7637

$$$$
CACHE3-HO_1715_23
  -OEChem-03092622543D

 38 40  0     1  0  0  0  0  0999 V2000
  -48.5183  -28.8364    3.9318 C   0  0  0  0  0  0  0  0  0  0  0  0
  -49.9235  -28.8931    4.0564 C   0  0  0  0  0  0  0  0  0  0  0  0
  -49.7258  -29.1446    6.4939 C   0  0  0  0  0  0  0  0  0  0  0  0
  -43.7761  -29.1369    6.1966 C   0  0  0  0  0  0  0  0  0  0  0  0
  -47.7506  -28.9453    5.1070 C   0  0  0  0  0  0  0  0  0  0  0  0
  -46.3063  -28.9660    5.2919 C   0  0  0  0  0  0  0  0  0  0  0  0
  -48.3279  -29.0897    6.3722 C   0  0  0  0  0  0  0  0  0  0  0  0
  -50.5235  -29.0527    5.3310 C   0  0  0  0  0  0  0  0  0  0  0  0
  -46.0594  -29.0980    6.6580 C   0  0  0  0  0  0  0  0  0  0  0  0
  -45.2489  -28.9530    4.3655 C   0  0  0  0  0  0  0  0  0  0  0  0
  -43.9152  -27.3747    1.8889 C   0  0  0  0  0  0  0  0  0  0  0  0
  -46.1282  -31.5973    0.5745 C   0  0  0  0  0  0  0  0  0  0  0  0
  -44.8586  -29.3389    0.5886 C   0  0  0  0  0  0  0  0  0  0  0  0
  -44.3840  -28.8382    1.9923 C   0  0  2  0  0  0  0  0  0  0  0  0
  -44.7846  -30.8835    0.3454 C   0  0  1  0  0  0  0  0  0  0  0  0
  -44.7899  -29.1781    7.1018 N   0  0  0  0  0  0  0  0  0  0  0  0
  -43.9836  -29.0346    4.8536 N   0  0  0  0  0  0  0  0  0  0  0  0
  -47.2935  -29.1651    7.3073 N   0  0  0  0  0  0  0  0  0  0  0  0
  -45.4822  -28.9221    2.9887 N   0  0  0  0  0  0  0  0  0  0  0  0
  -43.7895  -31.4990    1.1610 O   0  0  0  0  0  0  0  0  0  0  0  0
  -52.4204  -29.1566    5.4837 Br  0  0  0  0  0  0  0  0  0  0  0  0
  -48.0481  -28.7136    2.9674 H   0  0  0  0  0  0  0  0  0  0  0  0
  -50.5445  -28.8144    3.1763 H   0  0  0  0  0  0  0  0  0  0  0  0
  -50.1859  -29.2558    7.4646 H   0  0  0  0  0  0  0  0  0  0  0  0
  -42.7598  -29.1876    6.5586 H   0  0  0  0  0  0  0  0  0  0  0  0
  -43.5820  -27.0252    2.8773 H   0  0  0  0  0  0  0  0  0  0  0  0
  -43.0806  -27.3067    1.1756 H   0  0  0  0  0  0  0  0  0  0  0  0
  -44.7481  -26.7468    1.5397 H   0  0  0  0  0  0  0  0  0  0  0  0
  -46.0082  -32.6746    0.3879 H   0  0  0  0  0  0  0  0  0  0  0  0
  -46.4548  -31.4393    1.6130 H   0  0  0  0  0  0  0  0  0  0  0  0
  -46.8827  -31.1879   -0.1134 H   0  0  0  0  0  0  0  0  0  0  0  0
  -45.9057  -29.0282    0.4577 H   0  0  0  0  0  0  0  0  0  0  0  0
  -44.2330  -28.8489   -0.1719 H   0  0  0  0  0  0  0  0  0  0  0  0
  -43.5387  -29.4611    2.3201 H   0  0  0  0  0  0  0  0  0  0  0  0
  -44.5137  -31.0292   -0.7107 H   0  0  0  0  0  0  0  0  0  0  0  0
  -47.4182  -29.2540    8.2955 H   0  0  0  0  0  0  0  0  0  0  0  0
  -45.9877  -29.7579    2.7744 H   0  0  0  0  0  0  0  0  0  0  0  0
  -42.9556  -31.0645    1.0260 H   0  0  0  0  0  0  0  0  0  0  0  0
  1  2  2  0  0  0  0
  1  5  1  0  0  0  0
  2  8  1  0  0  0  0
  3  7  1  0  0  0  0
  3  8  2  0  0  0  0
  4 16  2  0  0  0  0
  4 17  1  0  0  0  0
  5  6  1  0  0  0  0
  5  7  2  0  0  0  0
  6  9  2  0  0  0  0
  6 10  1  0  0  0  0
  7 18  1  0  0  0  0
  8 21  1  0  0  0  0
  9 16  1  0  0  0  0
  9 18  1  0  0  0  0
 10 17  2  0  0  0  0
 10 19  1  0  0  0  0
 11 14  1  0  0  0  0
 12 15  1  0  0  0  0
 13 14  1  0  0  0  0
 13 15  1  0  0  0  0
 14 19  1  0  0  0  0
 15 20  1  0  0  0  0
  1 22  1  0  0  0  0
  2 23  1  0  0  0  0
  3 24  1  0  0  0  0
  4 25  1  0  0  0  0
 11 26  1  0  0  0  0
 11 27  1  0  0  0  0
 11 28  1  0  0  0  0
 12 29  1  0  0  0  0
 12 30  1  0  0  0  0
 12 31  1  0  0  0  0
 13 32  1  0  0  0  0
 13 33  1  0  0  0  0
 14 34  1  0  0  0  0
 15 35  1  0  0  0  0
 18 36  1  0  0  0  0
 19 37  1  0  0  0  0
 20 38  1  0  0  0  0
M  END
> <POSIT::Probability>
0.94

> <POSIT::Method>
SHAPEFIT

> <ReceptorTitle>
UCSF-P4640-REFINED_LIGAND-BOUND-STATE_A__DU__LA1_A-201(A)

> <OMEGA_C>
yhJCwvew5sEfo3tAs7FHwgMl58HkzYFAQedGwjEo6cHKzc9AuxovwmQY6cG6SsZAogA/wg+Q58FV
bKNAsTk5wme658EsV6lAv09Bwq636MEl6ctABxhKwulr6MFal6pA3Dw4wrPI6MF8DtVA4v40wsOf
58HNsYtAJqkvwlb/2sHmx/E/UIM4wizH/MEOExM/QW8zwhe26sHKrxY/NIkxwoi05sEEA/8/cSMz
wmQR98Ee1LA+4Cgzwrxs6cHGQeNAPe8vwudG6MHzUJtAiiw9whZS6cEl1elA0e01wmZg58FZRz9A
dygvwgz++8GUmpQ/dK5RwrZA6cFAeq9APTFAwnm15cGE6T1Ani1KwvSD5sFqSEtAWb5IwugL6sFR
3u5ADworwiyA6cHT39FA+FMuwocz2MEDJThAjFIswgV02sEFeZY/FP4ywmH51cE7FcU/Zgg4wtWy
AsJ0mMY+sNE5wqqD+8Efds4/54c7wtyA+cGWN+i9cp83wso56MGpW+o+ju4wwoHK5sGwBjC+ricu
wmmw68FPfBRA/g0ywtQ7+MGs8jW/Rqw9whgI6sE/ugRBavM3wiEQ7sHejzFAg9IrwhaE+MHiVIM/

> <OMEGA_E>
cLx4Pg==

> <OMEGA_NBR>
      8926

$$$$
CACHE3-HO_1715_24
  -OEChem-03092622543D

 38 40  0     1  0  0  0  0  0999 V2000
  -48.4919  -28.9436    3.9139 C   0  0  0  0  0  0  0  0  0  0  0  0
  -49.8973  -28.9862    4.0266 C   0  0  0  0  0  0  0  0  0  0  0  0
  -49.7208  -29.1123    6.4764 C   0  0  0  0  0  0  0  0  0  0  0  0
  -43.7688  -29.1033    6.2236 C   0  0  0  0  0  0  0  0  0  0  0  0
  -47.7367  -28.9951    5.1025 C   0  0  0  0  0  0  0  0  0  0  0  0
  -46.2990  -29.0151    5.3051 C   0  0  0  0  0  0  0  0  0  0  0  0
  -48.3226  -29.0662    6.3675 C   0  0  0  0  0  0  0  0  0  0  0  0
  -50.5073  -29.0784    5.3026 C   0  0  0  0  0  0  0  0  0  0  0  0
  -46.0561  -29.0551    6.6749 C   0  0  0  0  0  0  0  0  0  0  0  0
  -45.2441  -29.0566    4.3905 C   0  0  0  0  0  0  0  0  0  0  0  0
  -43.6075  -28.4005   -0.1784 C   0  0  0  0  0  0  0  0  0  0  0  0
  -46.1671  -31.2224    0.4059 C   0  0  0  0  0  0  0  0  0  0  0  0
  -44.3988  -28.7359    2.1035 C   0  0  0  0  0  0  0  0  0  0  0  0
  -44.7244  -29.0750    0.6363 C   0  0  2  0  0  0  0  0  0  0  0  0
  -44.7590  -30.6103    0.2870 C   0  0  1  0  0  0  0  0  0  0  0  0
  -44.7857  -29.0969    7.1266 N   0  0  0  0  0  0  0  0  0  0  0  0
  -43.9774  -29.0908    4.8794 N   0  0  0  0  0  0  0  0  0  0  0  0
  -47.2950  -29.0851    7.3159 N   0  0  0  0  0  0  0  0  0  0  0  0
  -45.4758  -29.0935    3.0246 N   0  0  0  0  0  0  0  0  0  0  0  0
  -43.8710  -31.3639    1.1127 O   0  0  0  0  0  0  0  0  0  0  0  0
  -52.4042  -29.1631    5.4467 Br  0  0  0  0  0  0  0  0  0  0  0  0
  -48.0111  -28.8738    2.9494 H   0  0  0  0  0  0  0  0  0  0  0  0
  -50.5102  -28.9484    3.1382 H   0  0  0  0  0  0  0  0  0  0  0  0
  -50.1909  -29.1730    7.4469 H   0  0  0  0  0  0  0  0  0  0  0  0
  -42.7526  -29.1191    6.5891 H   0  0  0  0  0  0  0  0  0  0  0  0
  -43.7656  -28.5951   -1.2495 H   0  0  0  0  0  0  0  0  0  0  0  0
  -43.6251  -27.3157    0.0035 H   0  0  0  0  0  0  0  0  0  0  0  0
  -42.6329  -28.8080    0.1282 H   0  0  0  0  0  0  0  0  0  0  0  0
  -46.1255  -32.2915    0.1505 H   0  0  0  0  0  0  0  0  0  0  0  0
  -46.5315  -31.1058    1.4373 H   0  0  0  0  0  0  0  0  0  0  0  0
  -46.8504  -30.7068   -0.2849 H   0  0  0  0  0  0  0  0  0  0  0  0
  -43.4906  -29.2831    2.3966 H   0  0  0  0  0  0  0  0  0  0  0  0
  -44.2160  -27.6539    2.1810 H   0  0  0  0  0  0  0  0  0  0  0  0
  -45.6923  -28.6274    0.3665 H   0  0  0  0  0  0  0  0  0  0  0  0
  -44.4424  -30.7106   -0.7617 H   0  0  0  0  0  0  0  0  0  0  0  0
  -47.4284  -29.1157    8.3064 H   0  0  0  0  0  0  0  0  0  0  0  0
  -45.7515  -30.0284    2.8012 H   0  0  0  0  0  0  0  0  0  0  0  0
  -42.9956  -31.0000    1.0518 H   0  0  0  0  0  0  0  0  0  0  0  0
  1  2  2  0  0  0  0
  1  5  1  0  0  0  0
  2  8  1  0  0  0  0
  3  7  1  0  0  0  0
  3  8  2  0  0  0  0
  4 16  2  0  0  0  0
  4 17  1  0  0  0  0
  5  6  1  0  0  0  0
  5  7  2  0  0  0  0
  6  9  2  0  0  0  0
  6 10  1  0  0  0  0
  7 18  1  0  0  0  0
  8 21  1  0  0  0  0
  9 16  1  0  0  0  0
  9 18  1  0  0  0  0
 10 17  2  0  0  0  0
 10 19  1  0  0  0  0
 11 14  1  0  0  0  0
 12 15  1  0  0  0  0
 13 14  1  0  0  0  0
 13 19  1  0  0  0  0
 14 15  1  0  0  0  0
 15 20  1  0  0  0  0
  1 22  1  0  0  0  0
  2 23  1  0  0  0  0
  3 24  1  0  0  0  0
  4 25  1  0  0  0  0
 11 26  1  0  0  0  0
 11 27  1  0  0  0  0
 11 28  1  0  0  0  0
 12 29  1  0  0  0  0
 12 30  1  0  0  0  0
 12 31  1  0  0  0  0
 13 32  1  0  0  0  0
 13 33  1  0  0  0  0
 14 34  1  0  0  0  0
 15 35  1  0  0  0  0
 18 36  1  0  0  0  0
 19 37  1  0  0  0  0
 20 38  1  0  0  0  0
M  END
> <POSIT::Probability>
0.9

> <POSIT::Method>
SHAPEFIT

> <ReceptorTitle>
UCSF-P4640-REFINED_LIGAND-BOUND-STATE_A__DU__LA1_A-201(A)

> <OMEGA_C>
wfdBwmqM58FGfXpA0pZHwqzj58Ez2oBAFuJGwvTl6MH1Ps9AOBMvwqfT6MFnJ8dAXPI+wgD258Gx
R6NAMTI5wtse6MGZw6lAUEpBwoOH6MFPwstAgwdKwp2g6MEZr6lAeTk4wu1w6MFxmNVA8fk0wvZz
6MHZfoxAHm4uwiA048GAuDa+GKs4wnXH+cGQ188+VZgxwg7j5cH+nwZAweUywoOZ6MEA5CI/MAkz
wv/h9MEA7ZI+jiQzwmzG6MEtDeRA0egvwgi66MHxI5xAGy49wmOu6MF9G+pAMOc1woa/6MHEkkFA
8nsvwlrp+sHIbI4/651RwvJN6cFBS65AUQtAwon95sHLwjxAbQpKwkyW58El2EhAeMNIwkti6cGo
TO5AsQIrwt3z6MHd2dJA/g8vwqrC5MEj75+/FIAuwqaG2sGQX2Y7GIgqwrZ25sFhRgM+jIA4woUq
AcLuJho+PCA6wq/Y+ME2+Lc/1GY7woin9cGf2pG+bPYtwrtD6sGqYRlAKt0wwkE73cEzlgtA78Q2
wgQF5cFon7s++cQxwkGv9cEn/0K/sbY9wvTs6ME35wRBgAE3wkE68MGnRjNAivsrwvT/98FDoYY/

> <OMEGA_E>
aMjBPg==

> <OMEGA_NBR>
     10214

$$$$
CACHE3-HO_1715_27
  -OEChem-03092622543D

 35 37  0     1  0  0  0  0  0999 V2000
  -48.5767  -28.8421    3.9699 C   0  0  0  0  0  0  0  0  0  0  0  0
  -49.9805  -28.8749    4.1184 C   0  0  0  0  0  0  0  0  0  0  0  0
  -49.7449  -29.1175    6.5529 C   0  0  0  0  0  0  0  0  0  0  0  0
  -43.7988  -29.2056    6.1437 C   0  0  0  0  0  0  0  0  0  0  0  0
  -47.7895  -28.9456    5.1332 C   0  0  0  0  0  0  0  0  0  0  0  0
  -46.3406  -28.9787    5.2943 C   0  0  0  0  0  0  0  0  0  0  0  0
  -48.3478  -29.0977    6.4060 C   0  0  0  0  0  0  0  0  0  0  0  0
  -50.5614  -29.0067    5.4048 C   0  0  0  0  0  0  0  0  0  0  0  0
  -46.0747  -29.1926    6.6458 C   0  0  0  0  0  0  0  0  0  0  0  0
  -45.2957  -28.8159    4.3653 C   0  0  0  0  0  0  0  0  0  0  0  0
  -43.5289  -30.6121    1.9881 C   0  0  0  0  0  0  0  0  0  0  0  0
  -44.5577  -28.3027    1.9600 C   0  0  0  0  0  0  0  0  0  0  0  0
  -45.6957  -30.2481    0.7000 C   0  0  0  0  0  0  0  0  0  0  0  0
  -44.3452  -29.6117    1.1478 C   0  0  2  0  0  0  0  0  0  0  0  0
  -44.7984  -29.3017    7.0628 N   0  0  0  0  0  0  0  0  0  0  0  0
  -44.0231  -28.9466    4.8218 N   0  0  0  0  0  0  0  0  0  0  0  0
  -47.2986  -29.2281    7.3186 N   0  0  0  0  0  0  0  0  0  0  0  0
  -45.5696  -28.4554    3.0429 N   0  0  0  0  0  0  0  0  0  0  0  0
  -45.5002  -31.5441    0.1269 O   0  0  0  0  0  0  0  0  0  0  0  0
  -52.4580  -29.0559    5.5928 Br  0  0  0  0  0  0  0  0  0  0  0  0
  -48.1213  -28.7410    2.9958 H   0  0  0  0  0  0  0  0  0  0  0  0
  -50.6148  -28.7991    3.2476 H   0  0  0  0  0  0  0  0  0  0  0  0
  -50.1898  -29.2163    7.5320 H   0  0  0  0  0  0  0  0  0  0  0  0
  -42.7800  -29.3405    6.4758 H   0  0  0  0  0  0  0  0  0  0  0  0
  -43.3789  -31.5379    1.4132 H   0  0  0  0  0  0  0  0  0  0  0  0
  -42.5517  -30.1717    2.2352 H   0  0  0  0  0  0  0  0  0  0  0  0
  -44.0732  -30.8411    2.9162 H   0  0  0  0  0  0  0  0  0  0  0  0
  -43.5990  -28.0101    2.4130 H   0  0  0  0  0  0  0  0  0  0  0  0
  -44.8946  -27.5128    1.2725 H   0  0  0  0  0  0  0  0  0  0  0  0
  -46.3551  -30.3403    1.5756 H   0  0  0  0  0  0  0  0  0  0  0  0
  -46.1684  -29.5943   -0.0478 H   0  0  0  0  0  0  0  0  0  0  0  0
  -43.7671  -29.3651    0.2450 H   0  0  0  0  0  0  0  0  0  0  0  0
  -47.4074  -29.3317    8.3073 H   0  0  0  0  0  0  0  0  0  0  0  0
  -46.2122  -29.1448    2.7087 H   0  0  0  0  0  0  0  0  0  0  0  0
  -46.3391  -31.9047   -0.1353 H   0  0  0  0  0  0  0  0  0  0  0  0
  1  2  2  0  0  0  0
  1  5  1  0  0  0  0
  2  8  1  0  0  0  0
  3  7  1  0  0  0  0
  3  8  2  0  0  0  0
  4 15  2  0  0  0  0
  4 16  1  0  0  0  0
  5  6  1  0  0  0  0
  5  7  2  0  0  0  0
  6  9  2  0  0  0  0
  6 10  1  0  0  0  0
  7 17  1  0  0  0  0
  8 20  1  0  0  0  0
  9 15  1  0  0  0  0
  9 17  1  0  0  0  0
 10 16  2  0  0  0  0
 10 18  1  0  0  0  0
 11 14  1  0  0  0  0
 12 14  1  0  0  0  0
 12 18  1  0  0  0  0
 13 14  1  0  0  0  0
 13 19  1  0  0  0  0
  1 21  1  0  0  0  0
  2 22  1  0  0  0  0
  3 23  1  0  0  0  0
  4 24  1  0  0  0  0
 11 25  1  0  0  0  0
 11 26  1  0  0  0  0
 11 27  1  0  0  0  0
 12 28  1  0  0  0  0
 12 29  1  0  0  0  0
 13 30  1  0  0  0  0
 13 31  1  0  0  0  0
 14 32  1  0  0  0  0
 17 33  1  0  0  0  0
 18 34  1  0  0  0  0
 19 35  1  0  0  0  0
M  END
> <POSIT::Probability>
0.83

> <POSIT::Method>
SHAPEFIT

> <ReceptorTitle>
UCSF-P4640-REFINED_LIGAND-BOUND-STATE_A__DU__LA1_A-201(A)

> <OMEGA_C>
gE5Cwq+85sEHEn5A/etHwrj/5sFEyoNAwvpGwqjw6MErsdFA9DEvwgOl6cGJmcRAaig/wqSQ58Ef
Q6RA01w5wk/U58GjaqlAL2RBwv7H6MEg/sxA6D5KwrYN6MHP86xAfkw4wm6K6cGyqtRA0y41wuWG
5sG7sItAoR0uwqfl9MHieP4/GDsywuBr4sFY4Po/asg2wiP88cF1MjM/h2Exwqvk7MFE65I/lTEz
wuVp6sFVAuJAoRcwwrKS58EOTJpAyjE9wjTT6cFTMupAOkc2wqmk48F0vkJAPwA2wlpa/MFY9gE+
+NRRwnJy6MHP97JAQHxAwprt5cF6uj9AinVKwoFk5sFv2U9AU8JIwgu76cFCBvFAuR4rwlK56sEL
Os9A94MtwpxN/ME75LQ/+jQqwpVf8cGADQ9A70owwqK69sFYojpAVWUuwrsU4MEpbhpAD5Qzwjoa
3MEp4aI/oWs5wum48sF8rck/a6w4wiDB7MEWmUO9jxEvwsPr6sGO5Xo+IqE9wjun6sG86gRBTdk4
wqco6cGkWy1AQVs5wt88/8HJiAq+

> <OMEGA_E>
yLXOPg==

> <OMEGA_NBR>
     11439

$$$$
CACHE3-HO_1715_28
  -OEChem-03092622543D

 35 37  0     1  0  0  0  0  0999 V2000
  -48.5344  -28.9037    3.9066 C   0  0  0  0  0  0  0  0  0  0  0  0
  -49.9404  -28.9487    4.0500 C   0  0  0  0  0  0  0  0  0  0  0  0
  -49.7157  -29.1289    6.4903 C   0  0  0  0  0  0  0  0  0  0  0  0
  -43.7683  -29.2001    6.1357 C   0  0  0  0  0  0  0  0  0  0  0  0
  -47.7525  -28.9752    5.0757 C   0  0  0  0  0  0  0  0  0  0  0  0
  -46.3023  -28.9937    5.2488 C   0  0  0  0  0  0  0  0  0  0  0  0
  -48.3189  -29.0991    6.3489 C   0  0  0  0  0  0  0  0  0  0  0  0
  -50.5274  -29.0585    5.3368 C   0  0  0  0  0  0  0  0  0  0  0  0
  -46.0490  -29.1642    6.6094 C   0  0  0  0  0  0  0  0  0  0  0  0
  -45.2429  -28.8888    4.3253 C   0  0  0  0  0  0  0  0  0  0  0  0
  -45.8832  -31.8485    0.1605 C   0  0  0  0  0  0  0  0  0  0  0  0
  -44.9628  -29.5394    0.7547 C   0  0  0  0  0  0  0  0  0  0  0  0
  -44.4402  -28.6620    1.9131 C   0  0  0  0  0  0  0  0  0  0  0  0
  -45.1120  -31.0163    1.2013 C   0  0  2  0  0  0  0  0  0  0  0  0
  -44.7782  -29.2579    7.0446 N   0  0  0  0  0  0  0  0  0  0  0  0
  -43.9777  -29.0125    4.8015 N   0  0  0  0  0  0  0  0  0  0  0  0
  -47.2771  -29.1965    7.2718 N   0  0  0  0  0  0  0  0  0  0  0  0
  -45.4794  -28.6167    2.9780 N   0  0  0  0  0  0  0  0  0  0  0  0
  -43.8114  -31.5689    1.3810 O   0  0  0  0  0  0  0  0  0  0  0  0
  -52.4239  -29.1433    5.5209 Br  0  0  0  0  0  0  0  0  0  0  0  0
  -48.0754  -28.8174    2.9328 H   0  0  0  0  0  0  0  0  0  0  0  0
  -50.5712  -28.8993    3.1747 H   0  0  0  0  0  0  0  0  0  0  0  0
  -50.1640  -29.2048    7.4699 H   0  0  0  0  0  0  0  0  0  0  0  0
  -42.7528  -29.3077    6.4872 H   0  0  0  0  0  0  0  0  0  0  0  0
  -45.9686  -32.8875    0.5114 H   0  0  0  0  0  0  0  0  0  0  0  0
  -46.8887  -31.4239    0.0239 H   0  0  0  0  0  0  0  0  0  0  0  0
  -45.3435  -31.8284   -0.7977 H   0  0  0  0  0  0  0  0  0  0  0  0
  -45.9434  -29.1607    0.4304 H   0  0  0  0  0  0  0  0  0  0  0  0
  -44.2537  -29.4871   -0.0846 H   0  0  0  0  0  0  0  0  0  0  0  0
  -43.5134  -29.0950    2.3174 H   0  0  0  0  0  0  0  0  0  0  0  0
  -44.2401  -27.6444    1.5465 H   0  0  0  0  0  0  0  0  0  0  0  0
  -45.6679  -31.0388    2.1502 H   0  0  0  0  0  0  0  0  0  0  0  0
  -47.3931  -29.2775    8.2617 H   0  0  0  0  0  0  0  0  0  0  0  0
  -46.1850  -29.2653    2.6927 H   0  0  0  0  0  0  0  0  0  0  0  0
  -43.3349  -31.0560    2.0231 H   0  0  0  0  0  0  0  0  0  0  0  0
  1  2  2  0  0  0  0
  1  5  1  0  0  0  0
  2  8  1  0  0  0  0
  3  7  1  0  0  0  0
  3  8  2  0  0  0  0
  4 15  2  0  0  0  0
  4 16  1  0  0  0  0
  5  6  1  0  0  0  0
  5  7  2  0  0  0  0
  6  9  2  0  0  0  0
  6 10  1  0  0  0  0
  7 17  1  0  0  0  0
  8 20  1  0  0  0  0
  9 15  1  0  0  0  0
  9 17  1  0  0  0  0
 10 16  2  0  0  0  0
 10 18  1  0  0  0  0
 11 14  1  0  0  0  0
 12 13  1  0  0  0  0
 12 14  1  0  0  0  0
 13 18  1  0  0  0  0
 14 19  1  0  0  0  0
  1 21  1  0  0  0  0
  2 22  1  0  0  0  0
  3 23  1  0  0  0  0
  4 24  1  0  0  0  0
 11 25  1  0  0  0  0
 11 26  1  0  0  0  0
 11 27  1  0  0  0  0
 12 28  1  0  0  0  0
 12 29  1  0  0  0  0
 13 30  1  0  0  0  0
 13 31  1  0  0  0  0
 14 32  1  0  0  0  0
 17 33  1  0  0  0  0
 18 34  1  0  0  0  0
 19 35  1  0  0  0  0
M  END
> <POSIT::Probability>
0.93

> <POSIT::Method>
SHAPEFIT

> <ReceptorTitle>
UCSF-P4640-REFINED_LIGAND-BOUND-STATE_A__DU__LA1_A-201(A)

> <OMEGA_C>
OSNCws8658HABXpABcNHwgmX58GPmYFA19xGwvYH6cGnsM9AxBIvwryZ6cHRV8RAjQI/wi7N58Hl
a6JAjzU5winz58EG9qdAikZBwvPK6MGNKstAERxKwsh36MEcx6pAITI4wjFQ6cFpgNNAwPg0wj8c
58GHaIpAaog3wqLJ/sEYYiQ+8NkzwrRQ7MF4MUE/y8IxwsRL5cH03vQ/qXI0wkgh+MHGw5k/3xwz
wjcQ6sF9beFAJOkvwqcZ6MElpplAths9wmqS6cE5suhA7Oo1wvru5MFqlz5A7D4vwjWN/MFExbA/
CbJRwmMl6cHaqrBAMU1AwvyJ5sFNsztA5EhKwscx58FeLktA86dIwlyj6cGSCe9A4AIrwjh26sEL
l89A4t83wsaMA8LG7QI/EY47whlk+8Hn/MM8sl81wpeg/sGmN0y/AMY3wiFJ6cFUXdw+0QMxwpTl
68FUW629sg0uwnzC6MH0TxRA4PUwwqQn3cGq88U/9qs2wnhP+MGZnAlAjpI9wlk46sHgLwRBdb04
wmAf6sHVVCxA5FYtwrdy+MFTegFA

> <OMEGA_E>
MDiRPg==

> <OMEGA_NBR>
     12664

$$$$
CACHE3-HO_1715_38
  -OEChem-03092622543D

 41 43  0     1  0  0  0  0  0999 V2000
  -48.5223  -28.9632    3.9098 C   0  0  0  0  0  0  0  0  0  0  0  0
  -49.9297  -29.0142    4.0405 C   0  0  0  0  0  0  0  0  0  0  0  0
  -49.7288  -29.1195    6.4874 C   0  0  0  0  0  0  0  0  0  0  0  0
  -43.7789  -29.1736    6.1966 C   0  0  0  0  0  0  0  0  0  0  0  0
  -47.7528  -28.9908    5.0890 C   0  0  0  0  0  0  0  0  0  0  0  0
  -46.3053  -28.9871    5.2796 C   0  0  0  0  0  0  0  0  0  0  0  0
  -48.3313  -29.0837    6.3592 C   0  0  0  0  0  0  0  0  0  0  0  0
  -50.5291  -29.0853    5.3247 C   0  0  0  0  0  0  0  0  0  0  0  0
  -46.0647  -29.1279    6.6453 C   0  0  0  0  0  0  0  0  0  0  0  0
  -45.2363  -28.9085    4.3675 C   0  0  0  0  0  0  0  0  0  0  0  0
  -43.7945  -27.6327    1.5472 C   0  0  0  0  0  0  0  0  0  0  0  0
  -46.2685  -31.8122   -0.0507 C   0  0  0  0  0  0  0  0  0  0  0  0
  -44.1670  -32.0702    1.2942 C   0  0  0  0  0  0  0  0  0  0  0  0
  -45.0441  -29.7206    0.7710 C   0  0  0  0  0  0  0  0  0  0  0  0
  -44.4037  -28.9732    1.9786 C   0  0  2  0  0  0  0  0  0  0  0  0
  -45.4311  -31.2044    1.0947 C   0  0  0  0  0  0  0  0  0  0  0  0
  -44.7982  -29.2156    7.0950 N   0  0  0  0  0  0  0  0  0  0  0  0
  -43.9759  -29.0174    4.8584 N   0  0  0  0  0  0  0  0  0  0  0  0
  -47.2989  -29.1458    7.2953 N   0  0  0  0  0  0  0  0  0  0  0  0
  -45.4471  -28.7090    3.0069 N   0  0  0  0  0  0  0  0  0  0  0  0
  -46.2249  -31.2738    2.2778 O   0  0  0  0  0  0  0  0  0  0  0  0
  -52.4276  -29.1485    5.4963 Br  0  0  0  0  0  0  0  0  0  0  0  0
  -48.0535  -28.9050    2.9386 H   0  0  0  0  0  0  0  0  0  0  0  0
  -50.5518  -28.9989    3.1577 H   0  0  0  0  0  0  0  0  0  0  0  0
  -50.1864  -29.1727    7.4642 H   0  0  0  0  0  0  0  0  0  0  0  0
  -42.7666  -29.2686    6.5609 H   0  0  0  0  0  0  0  0  0  0  0  0
  -43.3521  -27.1322    2.4212 H   0  0  0  0  0  0  0  0  0  0  0  0
  -43.0140  -27.8107    0.7928 H   0  0  0  0  0  0  0  0  0  0  0  0
  -44.5805  -26.9940    1.1180 H   0  0  0  0  0  0  0  0  0  0  0  0
  -47.1734  -31.2063   -0.2055 H   0  0  0  0  0  0  0  0  0  0  0  0
  -45.6721  -31.8230   -0.9750 H   0  0  0  0  0  0  0  0  0  0  0  0
  -46.5565  -32.8409    0.2117 H   0  0  0  0  0  0  0  0  0  0  0  0
  -43.5586  -31.6496    2.1085 H   0  0  0  0  0  0  0  0  0  0  0  0
  -44.4634  -33.0978    1.5514 H   0  0  0  0  0  0  0  0  0  0  0  0
  -43.5789  -32.0799    0.3647 H   0  0  0  0  0  0  0  0  0  0  0  0
  -45.9535  -29.1807    0.4687 H   0  0  0  0  0  0  0  0  0  0  0  0
  -44.3243  -29.7211   -0.0608 H   0  0  0  0  0  0  0  0  0  0  0  0
  -43.6128  -29.6060    2.4075 H   0  0  0  0  0  0  0  0  0  0  0  0
  -47.4249  -29.1957    8.2861 H   0  0  0  0  0  0  0  0  0  0  0  0
  -46.2277  -29.2838    2.7616 H   0  0  0  0  0  0  0  0  0  0  0  0
  -45.7395  -30.9069    3.0074 H   0  0  0  0  0  0  0  0  0  0  0  0
  1  2  2  0  0  0  0
  1  5  1  0  0  0  0
  2  8  1  0  0  0  0
  3  7  1  0  0  0  0
  3  8  2  0  0  0  0
  4 17  2  0  0  0  0
  4 18  1  0  0  0  0
  5  6  1  0  0  0  0
  5  7  2  0  0  0  0
  6  9  2  0  0  0  0
  6 10  1  0  0  0  0
  7 19  1  0  0  0  0
  8 22  1  0  0  0  0
  9 17  1  0  0  0  0
  9 19  1  0  0  0  0
 10 18  2  0  0  0  0
 10 20  1  0  0  0  0
 11 15  1  0  0  0  0
 12 16  1  0  0  0  0
 13 16  1  0  0  0  0
 14 15  1  0  0  0  0
 14 16  1  0  0  0  0
 15 20  1  0  0  0  0
 16 21  1  0  0  0  0
  1 23  1  0  0  0  0
  2 24  1  0  0  0  0
  3 25  1  0  0  0  0
  4 26  1  0  0  0  0
 11 27  1  0  0  0  0
 11 28  1  0  0  0  0
 11 29  1  0  0  0  0
 12 30  1  0  0  0  0
 12 31  1  0  0  0  0
 12 32  1  0  0  0  0
 13 33  1  0  0  0  0
 13 34  1  0  0  0  0
 13 35  1  0  0  0  0
 14 36  1  0  0  0  0
 14 37  1  0  0  0  0
 15 38  1  0  0  0  0
 19 39  1  0  0  0  0
 20 40  1  0  0  0  0
 21 41  1  0  0  0  0
M  END
> <POSIT::Probability>
0.91

> <POSIT::Method>
SHAPEFIT

> <ReceptorTitle>
UCSF-P4640-REFINED_LIGAND-BOUND-STATE_A__DU__LA1_A-201(A)

> <OMEGA_C>
yRZCwp+058GWOnpAB7hHwgcd6MGcS4FAQepGwsb06MEamc9Amh0vwptj6cGoSsZA4QI/wj7t58H2
2KJAnDg5wp7l58FW8qhAR1NBwlyr6MGOfstA1R1Kwqeu6MEMZKpAREI4wvUF6cGOptRA9vE0wq1E
58E2wotAhy0vwsoP3cG8CsY/6hI5wm5//sFAwk+9CKswwt9HAML0qaU/LC00ws/D7cFgYEU/cJ0x
whTJ58E4Q/0/brk1wrCi+cEwIIw/XjEzwoS56cGMCuNAXOcvwpcj6MESeJtAFDI9woEq6cF+c+lA
2Mk1wv6r5cEGcUBAReY4wscw+sEMyBFA3rVRwjIw6cGi4a9AyTZAwoE958HwETxAATVKwrz958F4
GEpA675IwqNh6cHm2u5ACBErwgwm6sGo8tFAjGgtwsUO2cFq9BpAUw4swlh83sGa8ko/bFIywsXz
18GYGY8/lbE8womm+cHnZlK+NrA2wm+V/sGClnm/5zk6wg5dA8Kn01g+DjwuwlEy/cE48QZAitox
witkBMLwk8Y/2FAuwtVRAMLpuLo+adA3wvpx6cGN8+8+G0wxwrbE7cGYDHm9hXMuwh/Z7MFzFBpA
JbM9wsCQ6cHukwRBNuk4wktF6sGYvjBANfU2wkBB98G3eEBA

> <OMEGA_E>
eF72Pg==

> <OMEGA_NBR>
     14009

$$$$
CACHE3-HO_1718_6
  -OEChem-03092622543D

 39 42  0     1  0  0  0  0  0999 V2000
  -49.9637  -28.7740    4.0061 C   0  0  0  0  0  0  0  0  0  0  0  0
  -50.5566  -28.8965    5.2864 C   0  0  0  0  0  0  0  0  0  0  0  0
  -48.5603  -28.7767    3.8693 C   0  0  0  0  0  0  0  0  0  0  0  0
  -49.7523  -29.0037    6.4447 C   0  0  0  0  0  0  0  0  0  0  0  0
  -43.8142  -29.2677    6.0815 C   0  0  0  0  0  0  0  0  0  0  0  0
  -47.7844  -28.9081    5.0386 C   0  0  0  0  0  0  0  0  0  0  0  0
  -46.3422  -29.0081    5.2074 C   0  0  0  0  0  0  0  0  0  0  0  0
  -48.3530  -29.0028    6.3115 C   0  0  0  0  0  0  0  0  0  0  0  0
  -46.0820  -29.0903    6.5746 C   0  0  0  0  0  0  0  0  0  0  0  0
  -45.3102  -29.1115    4.2600 C   0  0  0  0  0  0  0  0  0  0  0  0
  -44.6037  -30.5950    1.1643 C   0  0  0  0  0  0  0  0  0  0  0  0
  -42.7896  -27.4464    1.1117 C   0  0  0  0  0  0  0  0  0  0  0  0
  -43.3273  -27.0729    2.4977 C   0  0  0  0  0  0  0  0  0  0  0  0
  -43.3160  -28.5382    2.0440 C   0  0  0  0  0  0  0  0  0  0  0  0
  -45.8509  -32.4891    0.0759 C   0  0  0  0  0  0  0  0  0  0  0  0
  -44.6853  -29.1634    1.7266 C   0  0  2  0  0  0  0  0  0  0  0  0
  -44.8113  -29.2095    7.0040 N   0  0  0  0  0  0  0  0  0  0  0  0
  -44.0436  -29.2486    4.7363 N   0  0  0  0  0  0  0  0  0  0  0  0
  -47.3106  -29.0874    7.2388 N   0  0  0  0  0  0  0  0  0  0  0  0
  -45.6211  -29.0951    2.8888 N   0  0  0  0  0  0  0  0  0  0  0  0
  -45.7118  -31.0875    0.4821 N   0  0  0  0  0  0  0  0  0  0  0  0
  -43.6042  -31.2883    1.3271 O   0  0  0  0  0  0  0  0  0  0  0  0
  -50.5890  -28.6783    3.1308 H   0  0  0  0  0  0  0  0  0  0  0  0
  -51.6326  -28.9081    5.3790 H   0  0  0  0  0  0  0  0  0  0  0  0
  -48.0947  -28.6810    2.8995 H   0  0  0  0  0  0  0  0  0  0  0  0
  -50.2080  -29.0854    7.4204 H   0  0  0  0  0  0  0  0  0  0  0  0
  -42.7937  -29.3321    6.4292 H   0  0  0  0  0  0  0  0  0  0  0  0
  -43.3571  -27.1729    0.2100 H   0  0  0  0  0  0  0  0  0  0  0  0
  -41.7120  -27.3747    0.9026 H   0  0  0  0  0  0  0  0  0  0  0  0
  -42.6360  -26.7346    3.2836 H   0  0  0  0  0  0  0  0  0  0  0  0
  -44.2811  -26.5329    2.5910 H   0  0  0  0  0  0  0  0  0  0  0  0
  -42.5684  -29.1962    2.5112 H   0  0  0  0  0  0  0  0  0  0  0  0
  -46.8097  -32.6269   -0.4453 H   0  0  0  0  0  0  0  0  0  0  0  0
  -45.0249  -32.7589   -0.5986 H   0  0  0  0  0  0  0  0  0  0  0  0
  -45.8221  -33.1335    0.9669 H   0  0  0  0  0  0  0  0  0  0  0  0
  -45.1263  -28.5465    0.9298 H   0  0  0  0  0  0  0  0  0  0  0  0
  -47.4273  -29.1383    8.2307 H   0  0  0  0  0  0  0  0  0  0  0  0
  -46.2380  -29.8716    2.7613 H   0  0  0  0  0  0  0  0  0  0  0  0
  -46.4512  -30.4528    0.2575 H   0  0  0  0  0  0  0  0  0  0  0  0
  1  2  1  0  0  0  0
  1  3  2  0  0  0  0
  2  4  2  0  0  0  0
  3  6  1  0  0  0  0
  4  8  1  0  0  0  0
  5 17  2  0  0  0  0
  5 18  1  0  0  0  0
  6  7  1  0  0  0  0
  6  8  2  0  0  0  0
  7  9  2  0  0  0  0
  7 10  1  0  0  0  0
  8 19  1  0  0  0  0
  9 17  1  0  0  0  0
  9 19  1  0  0  0  0
 10 18  2  0  0  0  0
 10 20  1  0  0  0  0
 11 16  1  0  0  0  0
 11 21  1  0  0  0  0
 11 22  2  0  0  0  0
 12 13  1  0  0  0  0
 12 14  1  0  0  0  0
 13 14  1  0  0  0  0
 14 16  1  0  0  0  0
 15 21  1  0  0  0  0
 16 20  1  0  0  0  0
  1 23  1  0  0  0  0
  2 24  1  0  0  0  0
  3 25  1  0  0  0  0
  4 26  1  0  0  0  0
  5 27  1  0  0  0  0
 12 28  1  0  0  0  0
 12 29  1  0  0  0  0
 13 30  1  0  0  0  0
 13 31  1  0  0  0  0
 14 32  1  0  0  0  0
 15 33  1  0  0  0  0
 15 34  1  0  0  0  0
 15 35  1  0  0  0  0
 16 36  1  0  0  0  0
 19 37  1  0  0  0  0
 20 38  1  0  0  0  0
 21 39  1  0  0  0  0
M  END
> <POSIT::Probability>
0.93

> <POSIT::Method>
SHAPEFIT

> <ReceptorTitle>
UCSF-P4640-REFINED_LIGAND-BOUND-STATE_A__DU__LA1_A-201(A)

> <OMEGA_C>
ydpHwkEx5sHYMYBA+jlKwgEs58EgKqlAtz1CwqY25sFco3dAYwJHwpkH6MHYOs5AvkEvwkok6sFw
m8JARCM/wtFD58HkO6FAbF45wqUQ6MHjoqZAgWlBwqsF6MHM98lA/lM4wuy46MFAY9JAnz01wlTk
6MESUohAJmoywpvC9ME1B5U/iCgrwjSS28GQTI4/J08twmWV2MGZ2h9AiUMtwkxO5MEs0AJAS2c3
wtX0AcIQd5s9tL0ywqJO6cHsAd0/yT4zwves6cEmIeBArSwwwg/96cGHj5dAGz49wvOy6MEYpOdA
9ns2wrLC6MHg4jhA1dg2wi2z+MGm2/Y+sWouwoBO+sEz3qk/KltKwhRt5cHqXkhAw4dOwrxD58Gw
IKxAAWFAwsJy5cEOkjlAC9VIwt6u6MEIdO1AySwrwi2o6sHfu81AsG0twihi2cE6BFc+H9kmwlH/
2sE1Dmc/PIsqwo7g1cGaJlJAzR8xwmVD1MFR0yVAF0YqwsSR6cEKuCBAHT07wu2BAsIcA+S+fxk0
wicJA8IyPRm/3Ek3wr6IBMLdhnc/XYE0wi1f5MHzCW4/hbU9wjAb6cHBsANBwvM4whj57sGyuDBA
+805wl6f88FE04M+

> <OMEGA_E>
6BGTPg==

> <OMEGA_NBR>
     15314

$$$$
CACHE3-HO_1718_7
  -OEChem-03092622543D

 37 39  0     1  0  0  0  0  0999 V2000
  -49.7765  -29.1785    6.3168 C   0  0  0  0  0  0  0  0  0  0  0  0
  -50.5261  -29.0130    5.1316 C   0  0  0  0  0  0  0  0  0  0  0  0
  -48.4602  -28.7473    3.8244 C   0  0  0  0  0  0  0  0  0  0  0  0
  -43.8133  -29.0872    6.3274 C   0  0  0  0  0  0  0  0  0  0  0  0
  -47.7378  -28.9100    5.0257 C   0  0  0  0  0  0  0  0  0  0  0  0
  -46.2966  -28.9056    5.2889 C   0  0  0  0  0  0  0  0  0  0  0  0
  -48.3730  -29.1265    6.2542 C   0  0  0  0  0  0  0  0  0  0  0  0
  -49.8747  -28.7998    3.8912 C   0  0  0  0  0  0  0  0  0  0  0  0
  -46.1198  -29.1365    6.6532 C   0  0  0  0  0  0  0  0  0  0  0  0
  -45.1845  -28.7780    4.4366 C   0  0  0  0  0  0  0  0  0  0  0  0
  -44.9418  -31.8967    1.1908 C   0  0  0  0  0  0  0  0  0  0  0  0
  -44.3619  -28.6375    0.8336 C   0  0  0  0  0  0  0  0  0  0  0  0
  -43.2957  -26.7246   -0.1390 C   0  0  0  0  0  0  0  0  0  0  0  0
  -45.6106  -30.6857    1.8641 C   0  0  0  0  0  0  0  0  0  0  0  0
  -44.6679  -29.4710    2.0955 C   0  0  2  0  0  0  0  0  0  0  0  0
  -44.8761  -29.2187    7.1659 N   0  0  0  0  0  0  0  0  0  0  0  0
  -43.9456  -28.8822    4.9849 N   0  0  0  0  0  0  0  0  0  0  0  0
  -47.3835  -29.2581    7.2304 N   0  0  0  0  0  0  0  0  0  0  0  0
  -45.3408  -28.5812    3.0689 N   0  0  0  0  0  0  0  0  0  0  0  0
  -43.7528  -31.8800    0.8907 O   0  0  0  0  0  0  0  0  0  0  0  0
  -44.8376  -28.9681   -0.2508 O   0  0  0  0  0  0  0  0  0  0  0  0
  -45.7115  -32.9964    0.9838 O   0  0  0  0  0  0  0  0  0  0  0  0
  -43.5556  -27.5432    1.0245 O   0  0  0  0  0  0  0  0  0  0  0  0
  -50.9221  -28.5810    2.3096 Br  0  0  0  0  0  0  0  0  0  0  0  0
  -50.2755  -29.3432    7.2603 H   0  0  0  0  0  0  0  0  0  0  0  0
  -51.6048  -29.0492    5.1708 H   0  0  0  0  0  0  0  0  0  0  0  0
  -47.9517  -28.5881    2.8850 H   0  0  0  0  0  0  0  0  0  0  0  0
  -42.8185  -29.1479    6.7435 H   0  0  0  0  0  0  0  0  0  0  0  0
  -42.6422  -25.8853    0.1411 H   0  0  0  0  0  0  0  0  0  0  0  0
  -42.8015  -27.3321   -0.9115 H   0  0  0  0  0  0  0  0  0  0  0  0
  -44.2459  -26.3340   -0.5320 H   0  0  0  0  0  0  0  0  0  0  0  0
  -46.4446  -30.3563    1.2270 H   0  0  0  0  0  0  0  0  0  0  0  0
  -46.0005  -31.0083    2.8408 H   0  0  0  0  0  0  0  0  0  0  0  0
  -43.7205  -29.8352    2.5196 H   0  0  0  0  0  0  0  0  0  0  0  0
  -47.5560  -29.4166    8.2026 H   0  0  0  0  0  0  0  0  0  0  0  0
  -46.3212  -28.6426    2.8817 H   0  0  0  0  0  0  0  0  0  0  0  0
  -45.1840  -33.6840    0.5947 H   0  0  0  0  0  0  0  0  0  0  0  0
  1  2  2  0  0  0  0
  1  7  1  0  0  0  0
  2  8  1  0  0  0  0
  3  5  1  0  0  0  0
  3  8  2  0  0  0  0
  4 16  2  0  0  0  0
  4 17  1  0  0  0  0
  5  6  1  0  0  0  0
  5  7  2  0  0  0  0
  6  9  2  0  0  0  0
  6 10  1  0  0  0  0
  7 18  1  0  0  0  0
  8 24  1  0  0  0  0
  9 16  1  0  0  0  0
  9 18  1  0  0  0  0
 10 17  2  0  0  0  0
 10 19  1  0  0  0  0
 11 14  1  0  0  0  0
 11 20  2  0  0  0  0
 11 22  1  0  0  0  0
 12 15  1  0  0  0  0
 12 21  2  0  0  0  0
 12 23  1  0  0  0  0
 13 23  1  0  0  0  0
 14 15  1  0  0  0  0
 15 19  1  0  0  0  0
  1 25  1  0  0  0  0
  2 26  1  0  0  0  0
  3 27  1  0  0  0  0
  4 28  1  0  0  0  0
 13 29  1  0  0  0  0
 13 30  1  0  0  0  0
 13 31  1  0  0  0  0
 14 32  1  0  0  0  0
 14 33  1  0  0  0  0
 15 34  1  0  0  0  0
 18 35  1  0  0  0  0
 19 36  1  0  0  0  0
 22 37  1  0  0  0  0
M  END
> <POSIT::Probability>
0.79

> <POSIT::Method>
SHAPEFIT

> <ReceptorTitle>
UCSF-P4640-REFINED_LIGAND-BOUND-STATE_A__DU__LA1_A-201(A)

> <OMEGA_C>
HhtHwqlt6cH3IspAwhpKwqwa6MEdNqRAQNdBwon65cFKw3RAy0Avwpmy6MEAespAg/M+wqtH58HO
0qBAxS85wrk+58GuPqlA7n1BwikD6cEPIshAuH9Hwupl5sHQCXlApHo4wnQX6cHH5tRA+rw0wks5
5sED+Y1AZcQzwlss/8Hyapg/jHIxwqUZ5cFOaVU/zS4twhXM1cFIUw6+OXE2wmZ89cEAm+4/5Ksy
wqbE68FaHAZAJoEzwum/6cEjT+VASMgvwsQO58FJhJ9Av4g9wqYQ6sFuX+dA+lw1wlim5MGaaERA
2QIvwjsK/8EvA2Q/tlkzwqu+58F4Z4C+k9g2wlv8A8IV3Xs/6zguwnVY3MEeI4M/QLBLwuWl5MHC
zxNAHRpJwtC+6sF8VOhAVGtOwt1k6MHfdqVAj84/wne05MH7ozhAI0YrwtEu6cGZytdAmZEqwiQV
z8HVdxA+tDQrwhSo2sEQWGm/2Pswwgys0sEaMAi/Qsc5wqDZ8sF8D50/dwA4wgsR+MGlzzVAyeEu
wo6u7sFwQCFAWzk+wklV68HAPQNB50g5wg4k5cEPbThAarw0wnW8BsKVPBg/

> <OMEGA_E>
bjUnPw==

> <OMEGA_NBR>
     16577

$$$$
CACHE3HI_1687_17
  -OEChem-03092622543D

 35 38  0     0  0  0  0  0  0999 V2000
  -49.8706  -29.4390    6.2005 C   0  0  0  0  0  0  0  0  0  0  0  0
  -50.4524  -29.3041    4.9220 C   0  0  0  0  0  0  0  0  0  0  0  0
  -46.1080  -31.0888    1.6290 C   0  0  0  0  0  0  0  0  0  0  0  0
  -48.3457  -28.4179    4.0474 C   0  0  0  0  0  0  0  0  0  0  0  0
  -46.4990  -33.0045   -0.1363 C   0  0  0  0  0  0  0  0  0  0  0  0
  -43.7608  -30.4320    1.6995 C   0  0  0  0  0  0  0  0  0  0  0  0
  -46.4358  -28.6303    7.1876 C   0  0  0  0  0  0  0  0  0  0  0  0
  -45.7499  -32.0178    0.6391 C   0  0  0  0  0  0  0  0  0  0  0  0
  -47.7621  -28.5762    5.3231 C   0  0  0  0  0  0  0  0  0  0  0  0
  -46.4173  -28.3048    5.8505 C   0  0  0  0  0  0  0  0  0  0  0  0
  -48.5230  -29.0758    6.3896 C   0  0  0  0  0  0  0  0  0  0  0  0
  -45.0875  -30.2910    2.1886 C   0  0  0  0  0  0  0  0  0  0  0  0
  -49.6900  -28.7973    3.8457 C   0  0  0  0  0  0  0  0  0  0  0  0
  -44.4217  -32.1145    0.2209 C   0  0  0  0  0  0  0  0  0  0  0  0
  -44.6197  -28.8110    4.1641 C   0  0  0  0  0  0  0  0  0  0  0  0
  -45.2225  -27.7501    5.0978 C   0  0  0  0  0  0  0  0  0  0  0  0
  -43.4485  -31.3327    0.7374 N   0  0  0  0  0  0  0  0  0  0  0  0
  -45.6532  -33.6177   -0.9368 N   0  0  0  0  0  0  0  0  0  0  0  0
  -47.7063  -29.1008    7.5106 N   0  0  0  0  0  0  0  0  0  0  0  0
  -44.3933  -33.1034   -0.7461 N   0  0  0  0  0  0  0  0  0  0  0  0
  -45.4360  -29.3534    3.1665 N   0  0  0  0  0  0  0  0  0  0  0  0
  -43.4759  -29.2051    4.3707 O   0  0  0  0  0  0  0  0  0  0  0  0
  -50.4790  -28.6257    2.1154 Br  0  0  0  0  0  0  0  0  0  0  0  0
  -50.4537  -29.8176    7.0270 H   0  0  0  0  0  0  0  0  0  0  0  0
  -51.4824  -29.5888    4.7658 H   0  0  0  0  0  0  0  0  0  0  0  0
  -47.1334  -30.9880    1.9525 H   0  0  0  0  0  0  0  0  0  0  0  0
  -47.7676  -28.0094    3.2317 H   0  0  0  0  0  0  0  0  0  0  0  0
  -47.5594  -33.1966   -0.0650 H   0  0  0  0  0  0  0  0  0  0  0  0
  -42.9811  -29.8046    2.1056 H   0  0  0  0  0  0  0  0  0  0  0  0
  -45.6050  -28.5366    7.8712 H   0  0  0  0  0  0  0  0  0  0  0  0
  -45.5443  -26.8850    4.4993 H   0  0  0  0  0  0  0  0  0  0  0  0
  -44.4578  -27.4313    5.8214 H   0  0  0  0  0  0  0  0  0  0  0  0
  -47.9885  -29.4114    8.4183 H   0  0  0  0  0  0  0  0  0  0  0  0
  -43.5739  -33.4011   -1.2358 H   0  0  0  0  0  0  0  0  0  0  0  0
  -46.3829  -29.0323    3.1503 H   0  0  0  0  0  0  0  0  0  0  0  0
  1  2  1  0  0  0  0
  1 11  2  0  0  0  0
  2 13  2  0  0  0  0
  3  8  2  0  0  0  0
  3 12  1  0  0  0  0
  4  9  2  0  0  0  0
  4 13  1  0  0  0  0
  5  8  1  0  0  0  0
  5 18  2  0  0  0  0
  6 12  2  0  0  0  0
  6 17  1  0  0  0  0
  7 10  2  0  0  0  0
  7 19  1  0  0  0  0
  8 14  1  0  0  0  0
  9 10  1  0  0  0  0
  9 11  1  0  0  0  0
 10 16  1  0  0  0  0
 11 19  1  0  0  0  0
 12 21  1  0  0  0  0
 13 23  1  0  0  0  0
 14 17  2  0  0  0  0
 14 20  1  0  0  0  0
 15 16  1  0  0  0  0
 15 21  1  0  0  0  0
 15 22  2  0  0  0  0
 18 20  1  0  0  0  0
  1 24  1  0  0  0  0
  2 25  1  0  0  0  0
  3 26  1  0  0  0  0
  4 27  1  0  0  0  0
  5 28  1  0  0  0  0
  6 29  1  0  0  0  0
  7 30  1  0  0  0  0
 16 31  1  0  0  0  0
 16 32  1  0  0  0  0
 19 33  1  0  0  0  0
 20 34  1  0  0  0  0
 21 35  1  0  0  0  0
M  END
> <POSIT::Probability>
0.69

> <POSIT::Method>
SHAPEFIT

> <ReceptorTitle>
UCSF-P4640-REFINED_LIGAND-BOUND-STATE_A__DU__LA1_A-201(A)

> <OMEGA_C>
gntHwiaD68GkasZAQM9JwtZu6sErgZ1AjG44wva1+MEAg9A//WFBwulX48GEhIFABf85wpsEBMIW
jQu+BwsvwrZ088E2idk/OL45ws0K5cGaAOZA8P82wjgSAMKemiM/Yww/wiac5MF1VqpASqs5wj1w
4sFaN7tAlhdCwiWb6MGMd8xAjlk0wt9T8sGiEQxAg8JGwtVg5sFQIHZAx68xwkZ1AMLSO2I+i3oy
wgF95sHuP4VA2uM0wh8A3sFxIaNARMstwkqp+sEMyDw/1Jw2wn94BsJo0W+/O9M+woPO6ME6V/BA
yZIxwuRpBMKA/z6/cr41wq/T6sFiqEpAWectwh6k6cGU3ItAg+pJwoIB5cGKYgdAmdBJwoaK7sEh
3eBAAe5Nwt617MHLgZhAo4g8wl/n98Ht6fk/AxI/wlAT4MH21E5A2zw+wkzJBMIqFYW9pOwrws1v
7sFzwQZAfWs2wu9K5ME94ftAVi02wokU18Gg+o9AxtQxwjVz28HzSLpAQfQ/wqZK68FosQZBq0su
wsCaBcJGMJ6/Fog5whxC6MH6nklA

> <OMEGA_E>
LlOLPw==

> <OMEGA_NBR>
     17801

$$$$
CACHE3HI_1687_72
  -OEChem-03092622543D

 35 38  0     0  0  0  0  0  0999 V2000
  -48.3953  -28.4634    4.2612 C   0  0  0  0  0  0  0  0  0  0  0  0
  -49.7788  -28.7415    4.2097 C   0  0  0  0  0  0  0  0  0  0  0  0
  -46.0772  -30.9470    1.3500 C   0  0  0  0  0  0  0  0  0  0  0  0
  -49.8038  -29.1211    6.6270 C   0  0  0  0  0  0  0  0  0  0  0  0
  -46.4619  -32.8487   -0.4267 C   0  0  0  0  0  0  0  0  0  0  0  0
  -43.7352  -30.2688    1.4203 C   0  0  0  0  0  0  0  0  0  0  0  0
  -46.2552  -28.4732    7.2572 C   0  0  0  0  0  0  0  0  0  0  0  0
  -47.7198  -28.5277    5.4991 C   0  0  0  0  0  0  0  0  0  0  0  0
  -45.7168  -31.8561    0.3438 C   0  0  0  0  0  0  0  0  0  0  0  0
  -46.3229  -28.2962    5.8941 C   0  0  0  0  0  0  0  0  0  0  0  0
  -48.4233  -28.8480    6.6702 C   0  0  0  0  0  0  0  0  0  0  0  0
  -45.0612  -30.1524    1.9156 C   0  0  0  0  0  0  0  0  0  0  0  0
  -50.4822  -29.0703    5.3910 C   0  0  0  0  0  0  0  0  0  0  0  0
  -44.3944  -31.9197   -0.1007 C   0  0  0  0  0  0  0  0  0  0  0  0
  -44.6971  -29.0122    4.0918 C   0  0  0  0  0  0  0  0  0  0  0  0
  -45.1621  -27.8756    5.0143 C   0  0  0  0  0  0  0  0  0  0  0  0
  -43.4238  -31.1348    0.4222 N   0  0  0  0  0  0  0  0  0  0  0  0
  -45.6223  -33.4311   -1.2559 N   0  0  0  0  0  0  0  0  0  0  0  0
  -47.5213  -28.8163    7.7231 N   0  0  0  0  0  0  0  0  0  0  0  0
  -44.3694  -32.8905   -1.0878 N   0  0  0  0  0  0  0  0  0  0  0  0
  -45.3961  -29.2247    2.9044 N   0  0  0  0  0  0  0  0  0  0  0  0
  -43.8336  -29.7937    4.4815 O   0  0  0  0  0  0  0  0  0  0  0  0
  -52.3547  -29.4378    5.3190 Br  0  0  0  0  0  0  0  0  0  0  0  0
  -47.8583  -28.2037    3.3609 H   0  0  0  0  0  0  0  0  0  0  0  0
  -50.3010  -28.7029    3.2651 H   0  0  0  0  0  0  0  0  0  0  0  0
  -47.1017  -30.8593    1.6803 H   0  0  0  0  0  0  0  0  0  0  0  0
  -50.3389  -29.3674    7.5322 H   0  0  0  0  0  0  0  0  0  0  0  0
  -47.5155  -33.0661   -0.3324 H   0  0  0  0  0  0  0  0  0  0  0  0
  -42.9567  -29.6542    1.8475 H   0  0  0  0  0  0  0  0  0  0  0  0
  -45.3683  -28.3642    7.8638 H   0  0  0  0  0  0  0  0  0  0  0  0
  -45.4767  -27.0223    4.3955 H   0  0  0  0  0  0  0  0  0  0  0  0
  -44.3216  -27.5730    5.6561 H   0  0  0  0  0  0  0  0  0  0  0  0
  -47.7474  -29.0113    8.6775 H   0  0  0  0  0  0  0  0  0  0  0  0
  -43.5566  -33.1597   -1.6044 H   0  0  0  0  0  0  0  0  0  0  0  0
  -46.2087  -28.6635    2.7469 H   0  0  0  0  0  0  0  0  0  0  0  0
  1  2  1  0  0  0  0
  1  8  2  0  0  0  0
  2 13  2  0  0  0  0
  3  9  2  0  0  0  0
  3 12  1  0  0  0  0
  4 11  2  0  0  0  0
  4 13  1  0  0  0  0
  5  9  1  0  0  0  0
  5 18  2  0  0  0  0
  6 12  2  0  0  0  0
  6 17  1  0  0  0  0
  7 10  2  0  0  0  0
  7 19  1  0  0  0  0
  8 10  1  0  0  0  0
  8 11  1  0  0  0  0
  9 14  1  0  0  0  0
 10 16  1  0  0  0  0
 11 19  1  0  0  0  0
 12 21  1  0  0  0  0
 13 23  1  0  0  0  0
 14 17  2  0  0  0  0
 14 20  1  0  0  0  0
 15 16  1  0  0  0  0
 15 21  1  0  0  0  0
 15 22  2  0  0  0  0
 18 20  1  0  0  0  0
  1 24  1  0  0  0  0
  2 25  1  0  0  0  0
  3 26  1  0  0  0  0
  4 27  1  0  0  0  0
  5 28  1  0  0  0  0
  6 29  1  0  0  0  0
  7 30  1  0  0  0  0
 16 31  1  0  0  0  0
 16 32  1  0  0  0  0
 19 33  1  0  0  0  0
 20 34  1  0  0  0  0
 21 35  1  0  0  0  0
M  END
> <POSIT::Probability>
0.69

> <POSIT::Method>
SHAPEFIT

> <ReceptorTitle>
UCSF-P4640-REFINED_LIGAND-BOUND-STATE_A__DU__LA1_A-201(A)

> <OMEGA_C>
x5RBwhW148GmW4hAdx1HwpTu5cHotYZAFE84wn2T98EMzKw/GDdHwgL46MFCENRA8Ng5whRlA8JI
eNq+5PAuwoAm8sEezLU/UgU5wizJ48EsO+hAH+E+wqw45MHS+K9A9902wkLZ/sEUC7A+sEo5wrVe
4sGcnLxAb7FBwrbI5sGQctVAuD40wi448cHeMvU/0O1JwueP6MH4gqxA6pMxwpFb/8HAU86928ky
whMZ6MHk74JA/6U0wjsB38H4dKBA7LEtwg0U+cGwK9g+RX02wna5BcIJwaC/3BU+wrWH5sHoI/dA
SHoxwtmPA8IyPou/p5U1wh3M6cHf4TlAkVUvwpBZ7sGwaI9AOGtRwpGA68EuNapA6W4/wjOh4cEy
GFdAMDRJwoGf5cHX91BAJ2g8wvDf9sFoFdc/AFtJwmrw6sHqB/FA6Q8+wrRDBMJyNaq+rNMrwro7
7cESe+w/Knk1wvrp4sGPpPtAG+g1wq8t2MGSp4xAVUkxwmqV3MEL/7RAYP0+whkX6MEe1wpB9Tku
wo6jBMLtXM2/s9U4wsdO5cGPzC9A

> <OMEGA_E>
JiKFPw==

> <OMEGA_NBR>
     19025

$$$$
CACHE3HI_1689_21
  -OEChem-03092622543D

 39 40  0     0  0  0  0  0  0999 V2000
  -44.5638  -28.4686    4.3179 C   0  0  0  0  0  0  0  0  0  0  0  0
  -46.2938  -28.5796    2.6350 C   0  0  0  0  0  0  0  0  0  0  0  0
  -45.5330  -28.5427    5.3183 C   0  0  0  0  0  0  0  0  0  0  0  0
  -47.2630  -28.6537    3.6354 C   0  0  0  0  0  0  0  0  0  0  0  0
  -44.9443  -28.4872    2.9762 C   0  0  0  0  0  0  0  0  0  0  0  0
  -46.8825  -28.6351    4.9772 C   0  0  0  0  0  0  0  0  0  0  0  0
  -43.8576  -32.5056   -0.2751 C   0  0  0  0  0  0  0  0  0  0  0  0
  -44.3074  -31.4076    0.3556 C   0  0  0  0  0  0  0  0  0  0  0  0
  -44.6855  -33.7329   -0.2532 C   0  0  0  0  0  0  0  0  0  0  0  0
  -46.2275  -32.4108    1.0524 C   0  0  0  0  0  0  0  0  0  0  0  0
  -43.9135  -28.4090    1.9114 C   0  0  0  0  0  0  0  0  0  0  0  0
  -49.2511  -28.8061    5.8382 C   0  0  0  0  0  0  0  0  0  0  0  0
  -47.5478  -32.4232    1.7670 C   0  0  0  0  0  0  0  0  0  0  0  0
  -51.3063  -28.9585    7.2597 C   0  0  0  0  0  0  0  0  0  0  0  0
  -43.5021  -30.1408    0.3603 C   0  0  0  0  0  0  0  0  0  0  0  0
  -45.5044  -31.3347    1.0345 N   0  0  0  0  0  0  0  0  0  0  0  0
  -45.8695  -33.5940    0.4418 N   0  0  0  0  0  0  0  0  0  0  0  0
  -47.8515  -28.7090    5.9781 N   0  0  0  0  0  0  0  0  0  0  0  0
  -49.8744  -28.8573    7.0893 N   0  0  0  0  0  0  0  0  0  0  0  0
  -44.3159  -34.7586   -0.8147 O   0  0  0  0  0  0  0  0  0  0  0  0
  -42.8503  -27.8237    2.0496 O   0  0  0  0  0  0  0  0  0  0  0  0
  -49.8689  -28.8432    4.7769 O   0  0  0  0  0  0  0  0  0  0  0  0
  -44.3189  -29.0687    0.7870 O   0  0  0  0  0  0  0  0  0  0  0  0
  -43.5156  -28.3973    4.5963 H   0  0  0  0  0  0  0  0  0  0  0  0
  -46.6020  -28.5946    1.5928 H   0  0  0  0  0  0  0  0  0  0  0  0
  -45.2252  -28.5279    6.3608 H   0  0  0  0  0  0  0  0  0  0  0  0
  -48.3116  -28.7249    3.3575 H   0  0  0  0  0  0  0  0  0  0  0  0
  -42.9116  -32.5365   -0.8023 H   0  0  0  0  0  0  0  0  0  0  0  0
  -48.3344  -32.1256    1.0780 H   0  0  0  0  0  0  0  0  0  0  0  0
  -47.5137  -31.7301    2.6041 H   0  0  0  0  0  0  0  0  0  0  0  0
  -47.7476  -33.4250    2.1397 H   0  0  0  0  0  0  0  0  0  0  0  0
  -51.7541  -27.9647    7.3501 H   0  0  0  0  0  0  0  0  0  0  0  0
  -51.7539  -29.4684    6.4019 H   0  0  0  0  0  0  0  0  0  0  0  0
  -51.5397  -29.5319    8.1611 H   0  0  0  0  0  0  0  0  0  0  0  0
  -43.1203  -29.9372   -0.6387 H   0  0  0  0  0  0  0  0  0  0  0  0
  -42.6640  -30.2464    1.0469 H   0  0  0  0  0  0  0  0  0  0  0  0
  -46.4876  -34.3983    0.4970 H   0  0  0  0  0  0  0  0  0  0  0  0
  -47.4998  -28.6902    6.9417 H   0  0  0  0  0  0  0  0  0  0  0  0
  -49.2953  -28.8562    7.9233 H   0  0  0  0  0  0  0  0  0  0  0  0
  1  3  2  0  0  0  0
  1  5  1  0  0  0  0
  2  4  1  0  0  0  0
  2  5  2  0  0  0  0
  3  6  1  0  0  0  0
  4  6  2  0  0  0  0
  5 11  1  0  0  0  0
  6 18  1  0  0  0  0
  7  8  2  0  0  0  0
  7  9  1  0  0  0  0
  8 15  1  0  0  0  0
  8 16  1  0  0  0  0
  9 17  1  0  0  0  0
  9 20  2  0  0  0  0
 10 13  1  0  0  0  0
 10 16  2  0  0  0  0
 10 17  1  0  0  0  0
 11 21  2  0  0  0  0
 11 23  1  0  0  0  0
 12 18  1  0  0  0  0
 12 19  1  0  0  0  0
 12 22  2  0  0  0  0
 14 19  1  0  0  0  0
 15 23  1  0  0  0  0
  1 24  1  0  0  0  0
  2 25  1  0  0  0  0
  3 26  1  0  0  0  0
  4 27  1  0  0  0  0
  7 28  1  0  0  0  0
 13 29  1  0  0  0  0
 13 30  1  0  0  0  0
 13 31  1  0  0  0  0
 14 32  1  0  0  0  0
 14 33  1  0  0  0  0
 14 34  1  0  0  0  0
 15 35  1  0  0  0  0
 15 36  1  0  0  0  0
 17 37  1  0  0  0  0
 18 38  1  0  0  0  0
 19 39  1  0  0  0  0
M  END
> <POSIT::Probability>
0.18

> <POSIT::Method>
FRED

> <ReceptorTitle>
UCSF-P4640-REFINED_LIGAND-BOUND-STATE_A__DU__LA1_A-201(A)

> <OMEGA_C>
S0EywsS/48GWLIpA2yw5whyj5MFwpChAziE2wodX5MHAL6pAXA09wt865cHEqWhAAMczwt/l48Es
ej5AqIc7wsQU5cHhRJ9AOW4vwr0FAsKw04y+zToxwtNC+8HAFrY++L0ywnbuBsKQqIG+7eg4wqOk
AcKctoY/cacvwolF48G8qPQ/IAFFwu5y5sHl0rpA7zA+wmexAcJALuI/sTlNwhWr58G4T+hAIAIu
wl4g8cFgc7g+iQQ2wnet+sGkaYQ/VHo3wjxgBsKAOOI+92c/wgas5cGSTL9AbX9Hwrjb5sFj2+JA
gkMxwtkIC8LYjVC/t2YrwuqW3sFSLANAxnlHwuW+5sGd3JhAlUYxwraM6MFgd0k/9w8uwqwt48GY
FJNAdWg6wsTB5MHw4cs/kOY0wic55MGyi8tADj9Bwo3M5cHI4VZAgKUrwl4lAsKgY02/ZVZBwp6A
AMJw+4k/BQ4+wkLX/cH6qCZAiP0+wjGzBcIC8QhAMwRPwqe338H7M+tA9ANPwjq/68Gb3MxAoShO
wmtB7MEDlAJBN3sswld/78EAgiO/56cqwp/48cHk/4U/RPM5wtCXCcLQdv4+yf89wn2F5cG1It5A
ay5FwmbZ5sFti/1A

> <OMEGA_E>
uM4RwQ==

> <OMEGA_NBR>
     20293

$$$$
CACHE3HI_1690_14
  -OEChem-03092622543D

 41 43  0     1  0  0  0  0  0999 V2000
  -48.5765  -28.6893    4.0128 C   0  0  0  0  0  0  0  0  0  0  0  0
  -49.9759  -28.7397    4.1512 C   0  0  0  0  0  0  0  0  0  0  0  0
  -49.7439  -29.1530    6.5633 C   0  0  0  0  0  0  0  0  0  0  0  0
  -43.7947  -29.1704    6.1477 C   0  0  0  0  0  0  0  0  0  0  0  0
  -47.7887  -28.8868    5.1674 C   0  0  0  0  0  0  0  0  0  0  0  0
  -46.3424  -28.9418    5.3276 C   0  0  0  0  0  0  0  0  0  0  0  0
  -48.3456  -29.1097    6.4279 C   0  0  0  0  0  0  0  0  0  0  0  0
  -50.5570  -28.9751    5.4193 C   0  0  0  0  0  0  0  0  0  0  0  0
  -46.0677  -29.1758    6.6715 C   0  0  0  0  0  0  0  0  0  0  0  0
  -45.3158  -28.8187    4.3828 C   0  0  0  0  0  0  0  0  0  0  0  0
  -43.5996  -27.3678    2.2660 C   0  0  0  0  0  0  0  0  0  0  0  0
  -43.8238  -29.1237   -0.2924 C   0  0  0  0  0  0  0  0  0  0  0  0
  -43.3649  -30.4445    1.8071 C   0  0  0  0  0  0  0  0  0  0  0  0
  -45.6805  -30.4643    0.7631 C   0  0  0  0  0  0  0  0  0  0  0  0
  -44.7963  -28.2869    1.8837 C   0  0  1  0  0  0  0  0  0  0  0  0
  -44.4170  -29.5821    1.0629 C   0  0  0  0  0  0  0  0  0  0  0  0
  -44.7859  -29.2866    7.0754 N   0  0  0  0  0  0  0  0  0  0  0  0
  -44.0368  -28.9387    4.8233 N   0  0  0  0  0  0  0  0  0  0  0  0
  -47.2934  -29.2635    7.3387 N   0  0  0  0  0  0  0  0  0  0  0  0
  -45.6643  -28.5837    3.0508 N   0  0  0  0  0  0  0  0  0  0  0  0
  -45.3576  -31.6308   -0.0106 O   0  0  0  0  0  0  0  0  0  0  0  0
  -52.4519  -29.0562    5.5843 Br  0  0  0  0  0  0  0  0  0  0  0  0
  -48.1189  -28.5050    3.0521 H   0  0  0  0  0  0  0  0  0  0  0  0
  -50.6080  -28.5984    3.2870 H   0  0  0  0  0  0  0  0  0  0  0  0
  -50.1932  -29.3205    7.5311 H   0  0  0  0  0  0  0  0  0  0  0  0
  -42.7698  -29.2659    6.4747 H   0  0  0  0  0  0  0  0  0  0  0  0
  -43.9693  -26.4999    2.8318 H   0  0  0  0  0  0  0  0  0  0  0  0
  -42.8869  -27.9324    2.8851 H   0  0  0  0  0  0  0  0  0  0  0  0
  -43.0965  -27.0215    1.3511 H   0  0  0  0  0  0  0  0  0  0  0  0
  -44.5633  -28.5106   -0.8284 H   0  0  0  0  0  0  0  0  0  0  0  0
  -42.9159  -28.5292   -0.1128 H   0  0  0  0  0  0  0  0  0  0  0  0
  -43.5704  -30.0058   -0.8987 H   0  0  0  0  0  0  0  0  0  0  0  0
  -43.7771  -30.7752    2.7718 H   0  0  0  0  0  0  0  0  0  0  0  0
  -43.1126  -31.3234    1.1956 H   0  0  0  0  0  0  0  0  0  0  0  0
  -42.4581  -29.8468    1.9815 H   0  0  0  0  0  0  0  0  0  0  0  0
  -46.1237  -30.7840    1.7178 H   0  0  0  0  0  0  0  0  0  0  0  0
  -46.4101  -29.8596    0.2045 H   0  0  0  0  0  0  0  0  0  0  0  0
  -45.4108  -27.6867    1.1967 H   0  0  0  0  0  0  0  0  0  0  0  0
  -47.4024  -29.4140    8.3213 H   0  0  0  0  0  0  0  0  0  0  0  0
  -46.1681  -29.4040    2.7801 H   0  0  0  0  0  0  0  0  0  0  0  0
  -46.1472  -32.1348   -0.1691 H   0  0  0  0  0  0  0  0  0  0  0  0
  1  2  2  0  0  0  0
  1  5  1  0  0  0  0
  2  8  1  0  0  0  0
  3  7  1  0  0  0  0
  3  8  2  0  0  0  0
  4 17  2  0  0  0  0
  4 18  1  0  0  0  0
  5  6  1  0  0  0  0
  5  7  2  0  0  0  0
  6  9  2  0  0  0  0
  6 10  1  0  0  0  0
  7 19  1  0  0  0  0
  8 22  1  0  0  0  0
  9 17  1  0  0  0  0
  9 19  1  0  0  0  0
 10 18  2  0  0  0  0
 10 20  1  0  0  0  0
 11 15  1  0  0  0  0
 12 16  1  0  0  0  0
 13 16  1  0  0  0  0
 14 16  1  0  0  0  0
 14 21  1  0  0  0  0
 15 16  1  0  0  0  0
 15 20  1  0  0  0  0
  1 23  1  0  0  0  0
  2 24  1  0  0  0  0
  3 25  1  0  0  0  0
  4 26  1  0  0  0  0
 11 27  1  0  0  0  0
 11 28  1  0  0  0  0
 11 29  1  0  0  0  0
 12 30  1  0  0  0  0
 12 31  1  0  0  0  0
 12 32  1  0  0  0  0
 13 33  1  0  0  0  0
 13 34  1  0  0  0  0
 13 35  1  0  0  0  0
 14 36  1  0  0  0  0
 14 37  1  0  0  0  0
 15 38  1  0  0  0  0
 19 39  1  0  0  0  0
 20 40  1  0  0  0  0
 21 41  1  0  0  0  0
M  END
> <POSIT::Probability>
0.9

> <POSIT::Method>
SHAPEFIT

> <ReceptorTitle>
UCSF-P4640-REFINED_LIGAND-BOUND-STATE_A__DU__LA1_A-201(A)

> <OMEGA_C>
TU5CwrGD5cEqaYBAU+dHwvrq5cHT1oRAwvlGwm456cHoBtJAvi0vwutc6cEsusRAmCc/wkQY58FA
W6VAqV45wt2I58Hge6pA3WFBwq/g6MFusc1AVTpKwgHN58HNaq1AX0U4wg5o6cHKfNVAVUM1wpmM
5sEiQIxA82Uuwi/x2sFBBhFAjUsvwkj96ME4tJW+oHUtwliO88GmTec/1Lg2wsq288FyXEM/YS8z
wqRL4sFRHvE/CKsxwgyo7MFHDYg/zSQzwuJK6sEOauJAuyUwwnWC58GyWJpAeyw9wr8b6sFo1upA
Sag2wmKr5MHDP0NALm41wugL/cEAAC68uM5RwiVz6MHAsrJAtHlAwjQK5MGfVUNAmW5KwnfJ5MFq
XlJA18VIwmKQ6sGB/vBAQxQrwoMg6sF/MM9AheAvwtP/08G6PDVAJ4wrwod138FypThAyGIswh4s
2MFl8aw/0EAywrgV5MG7D1S/3KkrwrQ75MEI++a9HkguwugL8MHAEma/wxsvwq4z9sG3ZDFAV3Ms
wluW+sEYCZk/FNUpwifG7sHHov0/o344wrtF9sHB39s/8KM5wnng7sEtY1E+taQ1wnF+3cGKLJk/
Fpw9ws9P68HrIwVBK6w4wmw768GQ7TFAr5Y4wgmKAMIaHC2+

> <OMEGA_E>
WJvVPg==

> <OMEGA_NBR>
     21636

$$$$
CACHE3HI_1690_24
  -OEChem-03092622543D

 40 42  0     1  0  0  0  0  0999 V2000
  -48.8859  -28.6597    5.5959 C   0  0  0  0  0  0  0  0  0  0  0  0
  -46.0732  -31.4353   -0.2122 C   0  0  0  0  0  0  0  0  0  0  0  0
  -43.7750  -31.6156    0.5111 C   0  0  0  0  0  0  0  0  0  0  0  0
  -47.9425  -28.6476    6.6404 C   0  0  0  0  0  0  0  0  0  0  0  0
  -46.0557  -32.7752   -0.5999 C   0  0  0  0  0  0  0  0  0  0  0  0
  -43.7574  -32.9554    0.1234 C   0  0  0  0  0  0  0  0  0  0  0  0
  -47.2042  -28.9625    3.7882 C   0  0  0  0  0  0  0  0  0  0  0  0
  -44.9327  -30.8557    0.3434 C   0  0  0  0  0  0  0  0  0  0  0  0
  -48.5309  -28.8105    4.2294 C   0  0  0  0  0  0  0  0  0  0  0  0
  -46.6084  -28.7976    6.2205 C   0  0  0  0  0  0  0  0  0  0  0  0
  -46.2451  -28.9526    4.8173 C   0  0  0  0  0  0  0  0  0  0  0  0
  -44.8979  -33.5351   -0.4323 C   0  0  0  0  0  0  0  0  0  0  0  0
  -46.8293  -29.1213    2.3601 C   0  0  0  0  0  0  0  0  0  0  0  0
  -49.6438  -28.8050    3.2237 C   0  0  0  0  0  0  0  0  0  0  0  0
  -43.5614  -28.7539    0.6385 C   0  0  0  0  0  0  0  0  0  0  0  0
  -42.6584  -29.0649    1.8289 C   0  0  0  0  0  0  0  0  0  0  0  0
  -44.9507  -29.3992    0.7635 C   0  0  2  0  0  0  0  0  0  0  0  0
  -45.4854  -28.8284    6.9486 N   0  0  0  0  0  0  0  0  0  0  0  0
  -44.9134  -29.0720    4.7409 N   0  0  0  0  0  0  0  0  0  0  0  0
  -45.4746  -29.2593    2.1031 N   0  0  0  0  0  0  0  0  0  0  0  0
  -47.7090  -29.1031    1.5032 O   0  0  0  0  0  0  0  0  0  0  0  0
  -44.4510  -28.9960    6.0436 O   0  0  0  0  0  0  0  0  0  0  0  0
  -43.2644  -28.5532    3.0080 O   0  0  0  0  0  0  0  0  0  0  0  0
  -44.8748  -35.3502   -0.9575 Br  0  0  0  0  0  0  0  0  0  0  0  0
  -49.9377  -28.5470    5.8582 H   0  0  0  0  0  0  0  0  0  0  0  0
  -46.9799  -30.8515   -0.3471 H   0  0  0  0  0  0  0  0  0  0  0  0
  -42.8816  -31.1722    0.9424 H   0  0  0  0  0  0  0  0  0  0  0  0
  -48.2315  -28.5314    7.6773 H   0  0  0  0  0  0  0  0  0  0  0  0
  -46.9529  -33.2117   -1.0312 H   0  0  0  0  0  0  0  0  0  0  0  0
  -42.8472  -33.5341    0.2604 H   0  0  0  0  0  0  0  0  0  0  0  0
  -49.8474  -27.7883    2.8723 H   0  0  0  0  0  0  0  0  0  0  0  0
  -50.5699  -29.1877    3.6652 H   0  0  0  0  0  0  0  0  0  0  0  0
  -49.3753  -29.4293    2.3663 H   0  0  0  0  0  0  0  0  0  0  0  0
  -43.0650  -29.1029   -0.2773 H   0  0  0  0  0  0  0  0  0  0  0  0
  -43.6407  -27.6642    0.5306 H   0  0  0  0  0  0  0  0  0  0  0  0
  -41.6791  -28.5914    1.7084 H   0  0  0  0  0  0  0  0  0  0  0  0
  -42.5213  -30.1433    1.9522 H   0  0  0  0  0  0  0  0  0  0  0  0
  -45.6479  -28.8504    0.1182 H   0  0  0  0  0  0  0  0  0  0  0  0
  -44.8003  -29.2018    2.8589 H   0  0  0  0  0  0  0  0  0  0  0  0
  -42.6684  -28.7659    3.7442 H   0  0  0  0  0  0  0  0  0  0  0  0
  1  4  2  0  0  0  0
  1  9  1  0  0  0  0
  2  5  2  0  0  0  0
  2  8  1  0  0  0  0
  3  6  1  0  0  0  0
  3  8  2  0  0  0  0
  4 10  1  0  0  0  0
  5 12  1  0  0  0  0
  6 12  2  0  0  0  0
  7  9  2  0  0  0  0
  7 11  1  0  0  0  0
  7 13  1  0  0  0  0
  8 17  1  0  0  0  0
  9 14  1  0  0  0  0
 10 11  1  0  0  0  0
 10 18  2  0  0  0  0
 11 19  2  0  0  0  0
 12 24  1  0  0  0  0
 13 20  1  0  0  0  0
 13 21  2  0  0  0  0
 15 16  1  0  0  0  0
 15 17  1  0  0  0  0
 16 23  1  0  0  0  0
 17 20  1  0  0  0  0
 18 22  1  0  0  0  0
 19 22  1  0  0  0  0
  1 25  1  0  0  0  0
  2 26  1  0  0  0  0
  3 27  1  0  0  0  0
  4 28  1  0  0  0  0
  5 29  1  0  0  0  0
  6 30  1  0  0  0  0
 14 31  1  0  0  0  0
 14 32  1  0  0  0  0
 14 33  1  0  0  0  0
 15 34  1  0  0  0  0
 15 35  1  0  0  0  0
 16 36  1  0  0  0  0
 16 37  1  0  0  0  0
 17 38  1  0  0  0  0
 20 39  1  0  0  0  0
 23 40  1  0  0  0  0
M  END
> <POSIT::Probability>
0.23

> <POSIT::Method>
HYBRID

> <ReceptorTitle>
UCSF-P4640-REFINED_LIGAND-BOUND-STATE_A__DU__LA1_A-201(A)

> <OMEGA_C>
HotDwhVH5cGuEbNA/Eo4wpF7+8FGSlm+lBkvwtLs/MFu1AI/J8U/wlAu5cFeftRABDk4wsEZA8I6
kRm/kwcvwlfSA8JUu/w9D9E8wjmz58H7cXJAHrszwnbY9sHF1q8+nh9CwvR75sEIV4dA+W46woFh
5sEbDsdA7/o4wtae58GjJ5pAepczwvAjBsJbUN2+PFE7wmr46MFnCxdAOZNGwppw5sGSUU5A6z4u
wuUH5sHmcyM/L6IqwtaE6MG1GOo/fc0zwp8x68FUckM/E/E1wqOg5sHBWt5AXqczwoGT6MFgtZdA
CuY1wgYT6sGDmQZA/tU+wjzT6MG/aMA/zc0xwuH358HYZMFAtQ4twtps5MFvgkBA1X8zwo5mDcLm
HXW/NMBHwjJg5MF8drtAbus7wsvP9sHzsbG+woYrwpdg+cECP3E/BO1AwmFA5MFsrPVA0s87wsnY
BMIR/YO/lGMrwuIiBsKtTYU+smNHwmxO3sFv0zdAi0dKwnaA6cHgkWpATYBFwiFv68E2chdAlEIs
wtHS6MH7/42+FZAuwjtQ3cEg1wc/Zrcmwha75ME5rto/0hUqwosl8cGV4fk/c5c2wofN5sFULPI9
iTMzwkCd6cH59zZAeqwqwp8g5sGJoW9A

> <OMEGA_E>
J2YHwQ==

> <OMEGA_NBR>
     22933

$$$$
CACHE3HI_1690_36
  -OEChem-03092622543D

 35 37  0     1  0  0  0  0  0999 V2000
  -45.9270  -31.5659    0.5759 C   0  0  0  0  0  0  0  0  0  0  0  0
  -49.7705  -29.0875    6.4342 C   0  0  0  0  0  0  0  0  0  0  0  0
  -50.5836  -28.9844    5.2900 C   0  0  0  0  0  0  0  0  0  0  0  0
  -48.5899  -28.7969    3.8632 C   0  0  0  0  0  0  0  0  0  0  0  0
  -43.8210  -29.1384    6.2483 C   0  0  0  0  0  0  0  0  0  0  0  0
  -47.7897  -28.9444    5.0160 C   0  0  0  0  0  0  0  0  0  0  0  0
  -46.3186  -28.9993    5.2052 C   0  0  0  0  0  0  0  0  0  0  0  0
  -48.3735  -29.0786    6.2861 C   0  0  0  0  0  0  0  0  0  0  0  0
  -49.9980  -28.8478    4.0106 C   0  0  0  0  0  0  0  0  0  0  0  0
  -46.1168  -29.1445    6.5869 C   0  0  0  0  0  0  0  0  0  0  0  0
  -45.1862  -28.8956    4.3332 C   0  0  0  0  0  0  0  0  0  0  0  0
  -43.8974  -31.1049    1.8078 C   0  0  0  0  0  0  0  0  0  0  0  0
  -44.2186  -27.7472    2.3300 C   0  0  0  0  0  0  0  0  0  0  0  0
  -45.9824  -29.5992    2.0396 C   0  0  0  0  0  0  0  0  0  0  0  0
  -45.1051  -30.4669    1.0922 C   0  0  2  0  0  0  0  0  0  0  0  0
  -46.5637  -32.4696    0.2043 N   0  0  0  0  0  0  0  0  0  0  0  0
  -44.8751  -29.2117    7.0926 N   0  0  0  0  0  0  0  0  0  0  0  0
  -43.9546  -28.9690    4.9060 N   0  0  0  0  0  0  0  0  0  0  0  0
  -47.3541  -29.1801    7.2194 N   0  0  0  0  0  0  0  0  0  0  0  0
  -45.2307  -28.6686    2.9396 N   0  0  1  0  0  0  0  0  0  0  0  0
  -51.1273  -28.7378    2.4807 Br  0  0  0  0  0  0  0  0  0  0  0  0
  -50.2154  -29.1723    7.4147 H   0  0  0  0  0  0  0  0  0  0  0  0
  -51.6587  -29.0098    5.3897 H   0  0  0  0  0  0  0  0  0  0  0  0
  -48.1401  -28.6489    2.8925 H   0  0  0  0  0  0  0  0  0  0  0  0
  -42.8257  -29.2182    6.6601 H   0  0  0  0  0  0  0  0  0  0  0  0
  -43.2503  -30.3130    2.2129 H   0  0  0  0  0  0  0  0  0  0  0  0
  -44.2537  -31.7433    2.6297 H   0  0  0  0  0  0  0  0  0  0  0  0
  -43.3266  -31.7139    1.0914 H   0  0  0  0  0  0  0  0  0  0  0  0
  -44.3898  -27.6795    1.2455 H   0  0  0  0  0  0  0  0  0  0  0  0
  -44.3151  -26.7478    2.7794 H   0  0  0  0  0  0  0  0  0  0  0  0
  -43.2075  -28.1376    2.5177 H   0  0  0  0  0  0  0  0  0  0  0  0
  -46.6594  -28.9958    1.4170 H   0  0  0  0  0  0  0  0  0  0  0  0
  -46.5733  -30.2785    2.6715 H   0  0  0  0  0  0  0  0  0  0  0  0
  -44.7445  -29.8399    0.2634 H   0  0  0  0  0  0  0  0  0  0  0  0
  -47.4893  -29.2666    8.2064 H   0  0  0  0  0  0  0  0  0  0  0  0
  1 15  1  0  0  0  0
  1 16  3  0  0  0  0
  2  3  2  0  0  0  0
  2  8  1  0  0  0  0
  3  9  1  0  0  0  0
  4  6  1  0  0  0  0
  4  9  2  0  0  0  0
  5 17  2  0  0  0  0
  5 18  1  0  0  0  0
  6  7  1  0  0  0  0
  6  8  2  0  0  0  0
  7 10  2  0  0  0  0
  7 11  1  0  0  0  0
  8 19  1  0  0  0  0
  9 21  1  0  0  0  0
 10 17  1  0  0  0  0
 10 19  1  0  0  0  0
 11 18  2  0  0  0  0
 11 20  1  0  0  0  0
 12 15  1  0  0  0  0
 13 20  1  0  0  0  0
 14 15  1  0  0  0  0
 14 20  1  0  0  0  0
  2 22  1  0  0  0  0
  3 23  1  0  0  0  0
  4 24  1  0  0  0  0
  5 25  1  0  0  0  0
 12 26  1  0  0  0  0
 12 27  1  0  0  0  0
 12 28  1  0  0  0  0
 13 29  1  0  0  0  0
 13 30  1  0  0  0  0
 13 31  1  0  0  0  0
 14 32  1  0  0  0  0
 14 33  1  0  0  0  0
 15 34  1  0  0  0  0
 19 35  1  0  0  0  0
M  END
> <POSIT::Probability>
0.79

> <POSIT::Method>
SHAPEFIT

> <ReceptorTitle>
UCSF-P4640-REFINED_LIGAND-BOUND-STATE_A__DU__LA1_A-201(A)

> <OMEGA_C>
RrU3wvmG/MFSbRM/BhVHwhuz6MEj5c1AnlVKwhjg58FUR6lAFFxCwg1g5sEMPndArkgvwmEb6cE+
8sdAnCg/whGO58HQgqBAREY5wpT+58ExkaZAgH5BwhGh6MEeKMlA6v1HwmPI5sF5VoBAjnc4wucn
6cE9yNJAuL40whkq58EyqYpA8JYvwtDW+MFPZuc/2N8wwj/63cFXHhVA/O03wiXL7ME7iQJApms0
wjS888FXzYs/LkE6wtzgAcK4OlE+DoAzwpCx6cGF9uJAftEvwmrA58Hg/ZxAomo9wupw6cExBedA
Nuw0wk9Z5cEiIjxAWoJMwvHm5cGfwx5AmdxIwt1g6cHtRO1AgaJOwgwU6MF5eKxAfY9Awt0w5cHb
HjlAkE0rwty+6cFQH9VASwAtwviA8sGFoA1AvwMxwlzy/cGVTChAeE4twhu2/cGfsYs/Mo8xwqJv
3cF2bJ8/sEIxwo371cE44TFAddQswrUZ4cGiIiFAMqM6wmP358EnYbU/EEs6wnY68sGK+ipAXvoy
wiu47sEU4YY+DfU9wg4i6sGDTQNB

> <OMEGA_E>
uFctPw==

> <OMEGA_NBR>
     24159

$$$$
CACHE3HI_1690_38
  -OEChem-03092622543D

 35 37  0     1  0  0  0  0  0999 V2000
  -48.6184  -28.7309    3.9242 C   0  0  0  0  0  0  0  0  0  0  0  0
  -50.0229  -28.8188    4.0985 C   0  0  0  0  0  0  0  0  0  0  0  0
  -49.7400  -29.1530    6.5074 C   0  0  0  0  0  0  0  0  0  0  0  0
  -43.8134  -29.1361    6.2322 C   0  0  0  0  0  0  0  0  0  0  0  0
  -47.7953  -28.9108    5.0548 C   0  0  0  0  0  0  0  0  0  0  0  0
  -46.3232  -28.9851    5.2110 C   0  0  0  0  0  0  0  0  0  0  0  0
  -48.3515  -29.0883    6.3330 C   0  0  0  0  0  0  0  0  0  0  0  0
  -50.5786  -29.0435    5.3843 C   0  0  0  0  0  0  0  0  0  0  0  0
  -46.0981  -29.1154    6.5939 C   0  0  0  0  0  0  0  0  0  0  0  0
  -45.2003  -28.9430    4.3188 C   0  0  0  0  0  0  0  0  0  0  0  0
  -45.7613  -31.5850    0.5829 C   0  0  0  0  0  0  0  0  0  0  0  0
  -45.1904  -30.4513    1.1134 C   0  0  0  0  0  0  0  0  0  0  0  0
  -44.2076  -27.1974    1.0975 C   0  0  0  0  0  0  0  0  0  0  0  0
  -46.0228  -29.4893    1.9569 C   0  0  0  0  0  0  0  0  0  0  0  0
  -43.9751  -27.9644    2.3993 C   0  0  0  0  0  0  0  0  0  0  0  0
  -44.8536  -29.1724    7.0878 N   0  0  0  0  0  0  0  0  0  0  0  0
  -43.9666  -29.0466    4.8893 N   0  0  0  0  0  0  0  0  0  0  0  0
  -47.3187  -29.1762    7.2472 N   0  0  0  0  0  0  0  0  0  0  0  0
  -45.2066  -28.6711    2.9246 N   0  0  2  0  0  0  0  0  0  0  0  0
  -52.4653  -29.2007    5.6201 Br  0  0  0  0  0  0  0  0  0  0  0  0
  -48.1911  -28.5316    2.9526 H   0  0  0  0  0  0  0  0  0  0  0  0
  -50.6757  -28.7137    3.2445 H   0  0  0  0  0  0  0  0  0  0  0  0
  -50.1613  -29.2854    7.4930 H   0  0  0  0  0  0  0  0  0  0  0  0
  -42.8124  -29.1804    6.6353 H   0  0  0  0  0  0  0  0  0  0  0  0
  -46.8046  -31.7989    0.7622 H   0  0  0  0  0  0  0  0  0  0  0  0
  -45.1661  -32.2611   -0.0130 H   0  0  0  0  0  0  0  0  0  0  0  0
  -44.1468  -30.2406    0.9319 H   0  0  0  0  0  0  0  0  0  0  0  0
  -43.2704  -26.7146    0.7834 H   0  0  0  0  0  0  0  0  0  0  0  0
  -44.5404  -27.8954    0.3152 H   0  0  0  0  0  0  0  0  0  0  0  0
  -44.9795  -26.4302    1.2570 H   0  0  0  0  0  0  0  0  0  0  0  0
  -46.5511  -28.8018    1.2800 H   0  0  0  0  0  0  0  0  0  0  0  0
  -46.7563  -30.0754    2.5300 H   0  0  0  0  0  0  0  0  0  0  0  0
  -43.1930  -28.7174    2.2224 H   0  0  0  0  0  0  0  0  0  0  0  0
  -43.6321  -27.2521    3.1642 H   0  0  0  0  0  0  0  0  0  0  0  0
  -47.4353  -29.2701    8.2359 H   0  0  0  0  0  0  0  0  0  0  0  0
  1  2  2  0  0  0  0
  1  5  1  0  0  0  0
  2  8  1  0  0  0  0
  3  7  1  0  0  0  0
  3  8  2  0  0  0  0
  4 16  2  0  0  0  0
  4 17  1  0  0  0  0
  5  6  1  0  0  0  0
  5  7  2  0  0  0  0
  6  9  2  0  0  0  0
  6 10  1  0  0  0  0
  7 18  1  0  0  0  0
  8 20  1  0  0  0  0
  9 16  1  0  0  0  0
  9 18  1  0  0  0  0
 10 17  2  0  0  0  0
 10 19  1  0  0  0  0
 11 12  2  0  0  0  0
 12 14  1  0  0  0  0
 13 15  1  0  0  0  0
 14 19  1  0  0  0  0
 15 19  1  0  0  0  0
  1 21  1  0  0  0  0
  2 22  1  0  0  0  0
  3 23  1  0  0  0  0
  4 24  1  0  0  0  0
 11 25  1  0  0  0  0
 11 26  1  0  0  0  0
 12 27  1  0  0  0  0
 13 28  1  0  0  0  0
 13 29  1  0  0  0  0
 13 30  1  0  0  0  0
 14 31  1  0  0  0  0
 14 32  1  0  0  0  0
 15 33  1  0  0  0  0
 15 34  1  0  0  0  0
 18 35  1  0  0  0  0
M  END
> <POSIT::Probability>
0.83

> <POSIT::Method>
SHAPEFIT

> <ReceptorTitle>
UCSF-P4640-REFINED_LIGAND-BOUND-STATE_A__DU__LA1_A-201(A)

> <OMEGA_C>
RnlCwsjY5cEmJntAfhdIwuCM5sE0J4NAw/VGwkw56cG8PNBA60AvwrIW6cGSbsdAXy4/wjxJ58Er
waFA/ko5wpTh58HMwKZA+mdBwtC06MHfp8pAdVBKwgBZ6MEtTKxAa2Q4wl7s6MGXAdNAJ800wlKL
58FRM4pAiws3wv6t/MH+NRU/AcM0wjCc88Gxg44/iNQwwjqU2cGLe4w/VBc4wiTq68G9evo/huYv
wg6338HcjRlAEWozwgBh6cHlzuJAw90vwmBf6MGGdZxAX0Y9wupo6cHB6OdAh9M0wmRe5cE6LDtA
f9xRwhyb6cGO17NAssNAwspA5MGY9jxA5LNKwsC15cGOpk9AJ6VIwohI6sGrxu9A5z8rwmBx6cFm
VNRA4Tc7wg9k/sGEIUM/Gao0wlQLAcIZSFW8XJYwwsbs8cFskm4/3hQtwom31cEwj0g/WCkywssp
38GtZaE+DOszwvxw08Fa5KA/VDQ6wgZq5sFN16M/dwY7wmSa8MFi6yFAmsUswiK95cENPA5ATocu
wlIE2sGFgUpAvL09whkp6sFBxgNB

> <OMEGA_E>
gL38Pg==

> <OMEGA_NBR>
     25382

$$$$
CACHE3HI_1690_39
  -OEChem-03092622543D

 39 41  0     1  0  0  0  0  0999 V2000
  -44.7920  -28.6089    4.6744 C   0  0  0  0  0  0  0  0  0  0  0  0
  -47.1550  -28.8447    4.9078 C   0  0  0  0  0  0  0  0  0  0  0  0
  -44.0335  -29.4130    1.8988 C   0  0  0  0  0  0  0  0  0  0  0  0
  -46.0486  -28.6620    4.0707 C   0  0  0  0  0  0  0  0  0  0  0  0
  -44.7066  -28.7384    6.0559 C   0  0  0  0  0  0  0  0  0  0  0  0
  -48.5507  -28.9582    4.7842 C   0  0  0  0  0  0  0  0  0  0  0  0
  -43.1666  -30.4886    2.1564 C   0  0  0  0  0  0  0  0  0  0  0  0
  -43.1954  -28.3331    1.8086 C   0  0  0  0  0  0  0  0  0  0  0  0
  -46.9316  -28.9602    6.2714 C   0  0  0  0  0  0  0  0  0  0  0  0
  -43.3532  -28.6798    6.6899 C   0  0  0  0  0  0  0  0  0  0  0  0
  -49.3649  -28.9103    3.5583 C   0  0  0  0  0  0  0  0  0  0  0  0
  -43.5120  -31.9069    2.3495 C   0  0  0  0  0  0  0  0  0  0  0  0
  -43.4009  -26.9003    1.5591 C   0  0  0  0  0  0  0  0  0  0  0  0
  -46.1128  -30.8417    1.9149 C   0  0  0  0  0  0  0  0  0  0  0  0
  -45.5393  -29.4354    1.7541 C   0  0  1  0  0  0  0  0  0  0  0  0
  -45.7457  -28.9159    6.9059 N   0  0  0  0  0  0  0  0  0  0  0  0
  -49.1514  -29.1302    5.9649 N   0  0  0  0  0  0  0  0  0  0  0  0
  -41.8886  -30.1057    2.2210 N   0  0  0  0  0  0  0  0  0  0  0  0
  -46.1641  -28.5338    2.6744 N   0  0  0  0  0  0  0  0  0  0  0  0
  -41.9118  -28.7342    1.9988 O   0  0  0  0  0  0  0  0  0  0  0  0
  -48.1270  -29.1306    6.9023 O   0  0  0  0  0  0  0  0  0  0  0  0
  -43.8966  -28.4689    4.0755 H   0  0  0  0  0  0  0  0  0  0  0  0
  -43.0871  -27.6506    6.9579 H   0  0  0  0  0  0  0  0  0  0  0  0
  -42.5800  -29.0431    6.0025 H   0  0  0  0  0  0  0  0  0  0  0  0
  -43.3340  -29.2947    7.5964 H   0  0  0  0  0  0  0  0  0  0  0  0
  -49.5047  -29.9105    3.1100 H   0  0  0  0  0  0  0  0  0  0  0  0
  -48.8988  -28.2895    2.7718 H   0  0  0  0  0  0  0  0  0  0  0  0
  -50.3672  -28.4939    3.7588 H   0  0  0  0  0  0  0  0  0  0  0  0
  -43.5111  -32.4704    1.3991 H   0  0  0  0  0  0  0  0  0  0  0  0
  -44.5234  -32.0357    2.7759 H   0  0  0  0  0  0  0  0  0  0  0  0
  -42.7995  -32.4038    3.0303 H   0  0  0  0  0  0  0  0  0  0  0  0
  -43.5589  -26.3282    2.4927 H   0  0  0  0  0  0  0  0  0  0  0  0
  -44.2934  -26.7055    0.9347 H   0  0  0  0  0  0  0  0  0  0  0  0
  -42.5337  -26.4515    1.0416 H   0  0  0  0  0  0  0  0  0  0  0  0
  -45.8745  -31.2714    2.8940 H   0  0  0  0  0  0  0  0  0  0  0  0
  -47.2033  -30.8377    1.8054 H   0  0  0  0  0  0  0  0  0  0  0  0
  -45.6982  -31.5158    1.1566 H   0  0  0  0  0  0  0  0  0  0  0  0
  -45.8154  -29.0713    0.7575 H   0  0  0  0  0  0  0  0  0  0  0  0
  -46.7139  -27.7677    2.3297 H   0  0  0  0  0  0  0  0  0  0  0  0
  1  4  2  0  0  0  0
  1  5  1  0  0  0  0
  2  4  1  0  0  0  0
  2  6  1  0  0  0  0
  2  9  2  0  0  0  0
  3  7  1  0  0  0  0
  3  8  2  0  0  0  0
  3 15  1  0  0  0  0
  4 19  1  0  0  0  0
  5 10  1  0  0  0  0
  5 16  2  0  0  0  0
  6 11  1  0  0  0  0
  6 17  2  0  0  0  0
  7 12  1  0  0  0  0
  7 18  2  0  0  0  0
  8 13  1  0  0  0  0
  8 20  1  0  0  0  0
  9 16  1  0  0  0  0
  9 21  1  0  0  0  0
 14 15  1  0  0  0  0
 15 19  1  0  0  0  0
 17 21  1  0  0  0  0
 18 20  1  0  0  0  0
  1 22  1  0  0  0  0
 10 23  1  0  0  0  0
 10 24  1  0  0  0  0
 10 25  1  0  0  0  0
 11 26  1  0  0  0  0
 11 27  1  0  0  0  0
 11 28  1  0  0  0  0
 12 29  1  0  0  0  0
 12 30  1  0  0  0  0
 12 31  1  0  0  0  0
 13 32  1  0  0  0  0
 13 33  1  0  0  0  0
 13 34  1  0  0  0  0
 14 35  1  0  0  0  0
 14 36  1  0  0  0  0
 14 37  1  0  0  0  0
 15 38  1  0  0  0  0
 19 39  1  0  0  0  0
M  END
> <POSIT::Probability>
0.23

> <POSIT::Method>
HYBRID

> <ReceptorTitle>
UCSF-P4640-REFINED_LIGAND-BOUND-STATE_A__DU__LA1_A-201(A)

> <OMEGA_C>
/yozwgDf5MHmlJVArJ48wuzB5sHpDJ1AWiIwwsNN68H0C/M/yjE4wr9L5cH8QoJAl9MywlLo5cH7
ycFA9jNCwnaq58F+GJlApqoswpbo88GUAgpAI8gswkiq4sEYf+c/8rk7wnCu58E3r8hAtmktwlRw
5cHUE9ZAsXVFwkhI58ESu2NAVgwuwlNB/8H6XhZAgJotwtgz18FIj8c/g3M4wuK79sHEGvU/Nig2
wsB768HQh+A/n/s2wrdT58E2/dxA/5pEwpAK6cFr4L5A9Y0nwmLY8MHAJA5AAag4wihF5MGAKStA
tqUnwqjf5cHg2P8/EIJAwmUL6cFC39xAFpYvwjjA48G2aoJAOVkswnI03cFfp95A81EqwlBY6MGH
FMBA/FUtwoZb6sHEFfNAygRGwqhI78GMCkdAX5hDwtxQ4sHcZTFADnhJworz48FukHBAYAsuwrHh
AcIAF7M/9Rcywo4kAMLYpzFApDIrwoadAcKO8EFARDwuwjag0sEwiB9AZSwxwu+k1cGgSm8/jCIq
wpqc08FkVIU/en83wucr+sHkNzlAKNA8woyz9sH4GOc/7co2wkgg/MHwC5Q/AkM3wvSR6MF46EE/
A9s6wkAk3sFSGhVA

> <OMEGA_E>
fr/nwA==

> <OMEGA_NBR>
     26659

$$$$
CACHE3HI_1690_43
  -OEChem-03092622543D

 38 41  0     1  0  0  0  0  0999 V2000
  -48.6467  -28.7155    3.9284 C   0  0  0  0  0  0  0  0  0  0  0  0
  -50.0477  -28.8331    4.1028 C   0  0  0  0  0  0  0  0  0  0  0  0
  -49.7485  -29.1735    6.5047 C   0  0  0  0  0  0  0  0  0  0  0  0
  -43.8084  -29.1422    6.2272 C   0  0  0  0  0  0  0  0  0  0  0  0
  -47.8055  -28.9227    5.0466 C   0  0  0  0  0  0  0  0  0  0  0  0
  -46.3219  -28.9647    5.2078 C   0  0  0  0  0  0  0  0  0  0  0  0
  -48.3582  -29.1148    6.3234 C   0  0  0  0  0  0  0  0  0  0  0  0
  -50.5958  -29.0616    5.3877 C   0  0  0  0  0  0  0  0  0  0  0  0
  -46.0988  -29.1380    6.5844 C   0  0  0  0  0  0  0  0  0  0  0  0
  -45.1905  -28.8527    4.3295 C   0  0  0  0  0  0  0  0  0  0  0  0
  -44.2689  -30.8852    0.5668 C   0  0  0  0  0  0  0  0  0  0  0  0
  -45.6763  -31.5094    0.4932 C   0  0  2  0  0  0  0  0  0  0  0  0
  -45.2328  -30.7805    1.7549 C   0  0  2  0  0  0  0  0  0  0  0  0
  -45.8628  -33.0280    0.5759 C   0  0  0  0  0  0  0  0  0  0  0  0
  -44.0114  -27.9497    2.3243 C   0  0  0  0  0  0  0  0  0  0  0  0
  -45.9796  -29.4875    2.0418 C   0  0  0  0  0  0  0  0  0  0  0  0
  -44.8533  -29.2141    7.0777 N   0  0  0  0  0  0  0  0  0  0  0  0
  -43.9554  -28.9598    4.8922 N   0  0  0  0  0  0  0  0  0  0  0  0
  -47.3219  -29.2031    7.2350 N   0  0  0  0  0  0  0  0  0  0  0  0
  -45.2181  -28.5945    2.9414 N   0  0  1  0  0  0  0  0  0  0  0  0
  -52.4858  -29.1664    5.6326 Br  0  0  0  0  0  0  0  0  0  0  0  0
  -48.2298  -28.4728    2.9622 H   0  0  0  0  0  0  0  0  0  0  0  0
  -50.7028  -28.7478    3.2485 H   0  0  0  0  0  0  0  0  0  0  0  0
  -50.1641  -29.3033    7.4931 H   0  0  0  0  0  0  0  0  0  0  0  0
  -42.8098  -29.2341    6.6282 H   0  0  0  0  0  0  0  0  0  0  0  0
  -43.3814  -31.5317    0.6318 H   0  0  0  0  0  0  0  0  0  0  0  0
  -44.0294  -29.9925   -0.0297 H   0  0  0  0  0  0  0  0  0  0  0  0
  -46.3991  -30.9744   -0.1403 H   0  0  0  0  0  0  0  0  0  0  0  0
  -44.9984  -31.4116    2.6248 H   0  0  0  0  0  0  0  0  0  0  0  0
  -46.9332  -33.2710    0.5050 H   0  0  0  0  0  0  0  0  0  0  0  0
  -45.3220  -33.5094   -0.2523 H   0  0  0  0  0  0  0  0  0  0  0  0
  -45.4665  -33.3943    1.5345 H   0  0  0  0  0  0  0  0  0  0  0  0
  -44.1793  -27.8129    1.2458 H   0  0  0  0  0  0  0  0  0  0  0  0
  -43.8376  -26.9709    2.7952 H   0  0  0  0  0  0  0  0  0  0  0  0
  -43.1325  -28.5926    2.4797 H   0  0  0  0  0  0  0  0  0  0  0  0
  -46.1604  -28.9637    1.0915 H   0  0  0  0  0  0  0  0  0  0  0  0
  -46.9422  -29.7311    2.5151 H   0  0  0  0  0  0  0  0  0  0  0  0
  -47.4381  -29.3002    8.2235 H   0  0  0  0  0  0  0  0  0  0  0  0
  1  2  2  0  0  0  0
  1  5  1  0  0  0  0
  2  8  1  0  0  0  0
  3  7  1  0  0  0  0
  3  8  2  0  0  0  0
  4 17  2  0  0  0  0
  4 18  1  0  0  0  0
  5  6  1  0  0  0  0
  5  7  2  0  0  0  0
  6  9  2  0  0  0  0
  6 10  1  0  0  0  0
  7 19  1  0  0  0  0
  8 21  1  0  0  0  0
  9 17  1  0  0  0  0
  9 19  1  0  0  0  0
 10 18  2  0  0  0  0
 10 20  1  0  0  0  0
 11 12  1  0  0  0  0
 11 13  1  0  0  0  0
 12 13  1  0  0  0  0
 12 14  1  0  0  0  0
 13 16  1  0  0  0  0
 15 20  1  0  0  0  0
 16 20  1  0  0  0  0
  1 22  1  0  0  0  0
  2 23  1  0  0  0  0
  3 24  1  0  0  0  0
  4 25  1  0  0  0  0
 11 26  1  0  0  0  0
 11 27  1  0  0  0  0
 12 28  1  0  0  0  0
 13 29  1  0  0  0  0
 14 30  1  0  0  0  0
 14 31  1  0  0  0  0
 14 32  1  0  0  0  0
 15 33  1  0  0  0  0
 15 34  1  0  0  0  0
 15 35  1  0  0  0  0
 16 36  1  0  0  0  0
 16 37  1  0  0  0  0
 19 38  1  0  0  0  0
M  END
> <POSIT::Probability>
0.83

> <POSIT::Method>
SHAPEFIT

> <ReceptorTitle>
UCSF-P4640-REFINED_LIGAND-BOUND-STATE_A__DU__LA1_A-201(A)

> <OMEGA_C>
PpZCwme55cE5a3tAzDBIwkaq5sFaSoNAcP5Gwk1j6cGcJtBAxTsvwjQj6cHyRMdA4Tg/wrhh58Fi
faFAoUk5wpu358HqpaZAxG5Bwjbr6MFcWcpAGWJKwjZ+6MEQaKxAKmU4wq8a6cEws9JAG8M0wkDS
5sFmi4pAXxMxwtoU98G0GRE/i7Q2wiwT/MHwhPw+Xe40wmQ+9sEGoOA/dXM3wrkcBMK0bxM/qQsw
wgmZ38GlwBRAIOs3wl7m68FzrAJA1GkzwnS26cFMfOJATNIvwsCt58EMjZxAokk9wgKg6cFwhedA
Ud80wp/B5MEvQDxAgvFRwrNU6cF6PrRATOtAwk/I48EalD1Ap89KwnP75cEI509ABahIwjxt6sER
x+9APz0rwmff6cFFGtRAg4YtwvtA/MGeuiE/IB4wwqbw78EQA/O8tpg5wqXL98G8tw++VP4zwuhK
+8Gx/CdApbs7wnsVBcKqSAE/wUk1wpgJBsLHLIG+r901wsaTBcLKacQ/p7cwwtiA3sFfdp8/u1kv
woHE18Hn5DJAoYcswq+95MH0sh5AQaQ4wqS158Fvt4s/2MQ7wmDZ7cHf9iBAlcA9wsBm6sGGkwNB

> <OMEGA_E>
AIHLPg==

> <OMEGA_NBR>
     27951

$$$$
CACHE3HI_1690_61
  -OEChem-03092622543D

 41 43  0     0  0  0  0  0  0999 V2000
  -48.5717  -29.0573    3.9015 C   0  0  0  0  0  0  0  0  0  0  0  0
  -49.9805  -29.1008    4.0646 C   0  0  0  0  0  0  0  0  0  0  0  0
  -49.7340  -29.0821    6.5074 C   0  0  0  0  0  0  0  0  0  0  0  0
  -43.7999  -29.1653    6.1951 C   0  0  0  0  0  0  0  0  0  0  0  0
  -47.7798  -29.0302    5.0653 C   0  0  0  0  0  0  0  0  0  0  0  0
  -46.3247  -29.0345    5.2398 C   0  0  0  0  0  0  0  0  0  0  0  0
  -48.3425  -29.0558    6.3484 C   0  0  0  0  0  0  0  0  0  0  0  0
  -50.5562  -29.1101    5.3640 C   0  0  0  0  0  0  0  0  0  0  0  0
  -46.0827  -29.1015    6.6156 C   0  0  0  0  0  0  0  0  0  0  0  0
  -45.2392  -28.9884    4.3342 C   0  0  0  0  0  0  0  0  0  0  0  0
  -44.9338  -31.3327    0.8080 C   0  0  0  0  0  0  0  0  0  0  0  0
  -47.2568  -31.8912   -0.0585 C   0  0  0  0  0  0  0  0  0  0  0  0
  -45.7298  -33.7655    0.6194 C   0  0  0  0  0  0  0  0  0  0  0  0
  -44.1281  -28.5879    2.1288 C   0  0  0  0  0  0  0  0  0  0  0  0
  -44.3294  -28.8746    0.6407 C   0  0  0  0  0  0  0  0  0  0  0  0
  -46.1315  -32.3083    0.9163 C   0  0  0  0  0  0  0  0  0  0  0  0
  -44.8231  -29.1627    7.0806 N   0  0  0  0  0  0  0  0  0  0  0  0
  -43.9871  -29.0690    4.8557 N   0  0  0  0  0  0  0  0  0  0  0  0
  -47.3065  -29.0755    7.2737 N   0  0  0  0  0  0  0  0  0  0  0  0
  -45.3658  -28.8066    2.9555 N   0  0  0  0  0  0  0  0  0  0  0  0
  -45.2114  -30.0195    0.4373 N   0  0  0  0  0  0  0  0  0  0  0  0
  -43.8134  -31.6698    1.1811 O   0  0  0  0  0  0  0  0  0  0  0  0
  -52.4491  -29.1819    5.5943 Br  0  0  0  0  0  0  0  0  0  0  0  0
  -48.1227  -29.0453    2.9193 H   0  0  0  0  0  0  0  0  0  0  0  0
  -50.6202  -29.1271    3.1948 H   0  0  0  0  0  0  0  0  0  0  0  0
  -50.1712  -29.0811    7.4949 H   0  0  0  0  0  0  0  0  0  0  0  0
  -42.7910  -29.2476    6.5713 H   0  0  0  0  0  0  0  0  0  0  0  0
  -48.0989  -32.5934    0.0307 H   0  0  0  0  0  0  0  0  0  0  0  0
  -47.5987  -30.8755    0.1893 H   0  0  0  0  0  0  0  0  0  0  0  0
  -46.8735  -31.9078   -1.0894 H   0  0  0  0  0  0  0  0  0  0  0  0
  -46.6127  -34.4154    0.7093 H   0  0  0  0  0  0  0  0  0  0  0  0
  -45.3269  -33.8337   -0.4020 H   0  0  0  0  0  0  0  0  0  0  0  0
  -44.9624  -34.0880    1.3385 H   0  0  0  0  0  0  0  0  0  0  0  0
  -43.3356  -29.2505    2.5068 H   0  0  0  0  0  0  0  0  0  0  0  0
  -43.8146  -27.5396    2.2420 H   0  0  0  0  0  0  0  0  0  0  0  0
  -44.7742  -27.9898    0.1620 H   0  0  0  0  0  0  0  0  0  0  0  0
  -43.3530  -29.0881    0.1814 H   0  0  0  0  0  0  0  0  0  0  0  0
  -46.5259  -32.2588    1.9420 H   0  0  0  0  0  0  0  0  0  0  0  0
  -47.4239  -29.0716    8.2668 H   0  0  0  0  0  0  0  0  0  0  0  0
  -45.8191  -29.6211    2.5935 H   0  0  0  0  0  0  0  0  0  0  0  0
  -46.0906  -29.8460   -0.0064 H   0  0  0  0  0  0  0  0  0  0  0  0
  1  2  2  0  0  0  0
  1  5  1  0  0  0  0
  2  8  1  0  0  0  0
  3  7  1  0  0  0  0
  3  8  2  0  0  0  0
  4 17  2  0  0  0  0
  4 18  1  0  0  0  0
  5  6  1  0  0  0  0
  5  7  2  0  0  0  0
  6  9  2  0  0  0  0
  6 10  1  0  0  0  0
  7 19  1  0  0  0  0
  8 23  1  0  0  0  0
  9 17  1  0  0  0  0
  9 19  1  0  0  0  0
 10 18  2  0  0  0  0
 10 20  1  0  0  0  0
 11 16  1  0  0  0  0
 11 21  1  0  0  0  0
 11 22  2  0  0  0  0
 12 16  1  0  0  0  0
 13 16  1  0  0  0  0
 14 15  1  0  0  0  0
 14 20  1  0  0  0  0
 15 21  1  0  0  0  0
  1 24  1  0  0  0  0
  2 25  1  0  0  0  0
  3 26  1  0  0  0  0
  4 27  1  0  0  0  0
 12 28  1  0  0  0  0
 12 29  1  0  0  0  0
 12 30  1  0  0  0  0
 13 31  1  0  0  0  0
 13 32  1  0  0  0  0
 13 33  1  0  0  0  0
 14 34  1  0  0  0  0
 14 35  1  0  0  0  0
 15 36  1  0  0  0  0
 15 37  1  0  0  0  0
 16 38  1  0  0  0  0
 19 39  1  0  0  0  0
 20 40  1  0  0  0  0
 21 41  1  0  0  0  0
M  END
> <POSIT::Probability>
0.91

> <POSIT::Method>
SHAPEFIT

> <ReceptorTitle>
UCSF-P4640-REFINED_LIGAND-BOUND-STATE_A__DU__LA1_A-201(A)

> <OMEGA_C>
cklCwkF16MEesnlAFOxHwnjO6MHPEIJApO9Gwj6o6MGBPNBAJjMvwo1S6cHbPcZAih4/wsg96MGh
FqJAhEw5wo5G6MF/rKdAtl5BwjNy6MHdJctAmDlKwoTh6ME9pqtAulQ4wurP6MHxstNA+vQ0wjDo
58ERsopAKrwzwmKp+sGA2E4//AY9wj4h/8GAsW+9ROs2wtkPB8LQjR4/LIMwwhm05MFyPghASlEx
wj3/5sEQByQ/nIY4wro7AcJIlWo/3kozwklN6cGNlOJA0PIvwleN6MHXYZtA0Dk9wqia6MENwuhA
mnY1wthz5sEaJz1AdNg0wu0n8MFw598+8EAvwqdb/cG4Lpc/5stRwnp06cFxBLNAp31AwsRc6MFh
1jpAF3tKwk4E6cHkdkxAW69IwgWm6MFv1u9A8SkrwhT76cEfSNJAP2VAwplfAsIf0/s8CmU+wgcB
98GY4EE+eH47whRD/8HAcou/XHM6wlqpCcKXlzU/yE41wsJVB8Ktzc2+ftkzwhhaCMJsU6s/nFct
wgcB6sGqbyBALUIvwjFR3MEMfQ9AxRgzwgnr38GZ6SU+bGktwnW06MHXvDk+jho6wv8IAcK/kvg/
GrI9wqOS6MGiRARBz0Y3wgT47MGR/CVAxlw4wonE7sG95tC7

> <OMEGA_E>
rA2hPg==

> <OMEGA_NBR>
     29291

$$$$
CACHE3HI_1691_77
  -OEChem-03092622543D

 45 46  0     1  0  0  0  0  0999 V2000
  -43.8258  -28.4500    1.1714 C   0  0  0  0  0  0  0  0  0  0  0  0
  -45.2288  -28.4410    1.0193 C   0  0  0  0  0  0  0  0  0  0  0  0
  -43.1450  -29.6658    1.3792 C   0  0  0  0  0  0  0  0  0  0  0  0
  -45.2721  -30.8621    1.3539 C   0  0  0  0  0  0  0  0  0  0  0  0
  -45.1450  -28.7609    4.3625 C   0  0  0  0  0  0  0  0  0  0  0  0
  -43.8735  -29.2486    6.2434 C   0  0  0  0  0  0  0  0  0  0  0  0
  -45.9677  -29.6437    1.1615 C   0  0  0  0  0  0  0  0  0  0  0  0
  -46.3275  -28.8627    5.1063 C   0  0  0  0  0  0  0  0  0  0  0  0
  -43.8637  -30.8795    1.4210 C   0  0  0  0  0  0  0  0  0  0  0  0
  -46.2022  -29.1076    6.4900 C   0  0  0  0  0  0  0  0  0  0  0  0
  -47.4507  -29.6300    1.1349 C   0  0  0  0  0  0  0  0  0  0  0  0
  -47.6418  -28.7108    4.4417 C   0  0  0  0  0  0  0  0  0  0  0  0
  -43.1317  -32.1946    1.5953 C   0  0  0  0  0  0  0  0  0  0  0  0
  -50.9485  -29.6894    5.1565 C   0  0  0  0  0  0  0  0  0  0  0  0
  -50.1698  -30.9838    3.1154 C   0  0  0  0  0  0  0  0  0  0  0  0
  -49.6219  -30.8318    1.6773 C   0  0  0  0  0  0  0  0  0  0  0  0
  -49.9377  -29.7208    3.9929 C   0  0  2  0  0  0  0  0  0  0  0  0
  -43.9399  -28.9784    4.9204 N   0  0  0  0  0  0  0  0  0  0  0  0
  -44.9755  -29.2856    7.0361 N   0  0  0  0  0  0  0  0  0  0  0  0
  -47.3206  -29.1122    7.3165 N   0  0  0  0  0  0  0  0  0  0  0  0
  -48.1538  -30.7203    1.6531 N   0  0  0  0  0  0  0  0  0  0  0  0
  -48.5804  -29.7340    4.5755 N   0  0  0  0  0  0  0  0  0  0  0  0
  -48.0463  -28.6530    0.6908 O   0  0  0  0  0  0  0  0  0  0  0  0
  -47.8536  -27.7394    3.7226 O   0  0  0  0  0  0  0  0  0  0  0  0
  -43.2729  -27.5232    1.1283 H   0  0  0  0  0  0  0  0  0  0  0  0
  -45.7408  -27.5171    0.7944 H   0  0  0  0  0  0  0  0  0  0  0  0
  -42.0725  -29.6690    1.5065 H   0  0  0  0  0  0  0  0  0  0  0  0
  -45.8246  -31.7851    1.4501 H   0  0  0  0  0  0  0  0  0  0  0  0
  -45.2018  -28.5014    3.3156 H   0  0  0  0  0  0  0  0  0  0  0  0
  -42.9078  -29.4423    6.6865 H   0  0  0  0  0  0  0  0  0  0  0  0
  -43.0220  -32.4145    2.6675 H   0  0  0  0  0  0  0  0  0  0  0  0
  -43.7049  -33.0000    1.1128 H   0  0  0  0  0  0  0  0  0  0  0  0
  -42.1366  -32.1245    1.1318 H   0  0  0  0  0  0  0  0  0  0  0  0
  -50.7749  -28.7927    5.7696 H   0  0  0  0  0  0  0  0  0  0  0  0
  -51.9715  -29.6650    4.7528 H   0  0  0  0  0  0  0  0  0  0  0  0
  -50.8207  -30.5883    5.7774 H   0  0  0  0  0  0  0  0  0  0  0  0
  -51.2512  -31.1774    3.0595 H   0  0  0  0  0  0  0  0  0  0  0  0
  -49.6685  -31.8387    3.5926 H   0  0  0  0  0  0  0  0  0  0  0  0
  -49.9205  -31.7120    1.0890 H   0  0  0  0  0  0  0  0  0  0  0  0
  -50.0539  -29.9260    1.2269 H   0  0  0  0  0  0  0  0  0  0  0  0
  -50.0731  -28.8230    3.3719 H   0  0  0  0  0  0  0  0  0  0  0  0
  -47.0349  -29.2570    8.2638 H   0  0  0  0  0  0  0  0  0  0  0  0
  -47.7938  -28.2344    7.2416 H   0  0  0  0  0  0  0  0  0  0  0  0
  -47.6233  -31.4776    2.0341 H   0  0  0  0  0  0  0  0  0  0  0  0
  -48.3139  -30.5383    5.1067 H   0  0  0  0  0  0  0  0  0  0  0  0
  1  2  1  0  0  0  0
  1  3  2  0  0  0  0
  2  7  2  0  0  0  0
  3  9  1  0  0  0  0
  4  7  1  0  0  0  0
  4  9  2  0  0  0  0
  5  8  1  0  0  0  0
  5 18  2  0  0  0  0
  6 18  1  0  0  0  0
  6 19  2  0  0  0  0
  7 11  1  0  0  0  0
  8 10  2  0  0  0  0
  8 12  1  0  0  0  0
  9 13  1  0  0  0  0
 10 19  1  0  0  0  0
 10 20  1  0  0  0  0
 11 21  1  0  0  0  0
 11 23  2  0  0  0  0
 12 22  1  0  0  0  0
 12 24  2  0  0  0  0
 14 17  1  0  0  0  0
 15 16  1  0  0  0  0
 15 17  1  0  0  0  0
 16 21  1  0  0  0  0
 17 22  1  0  0  0  0
  1 25  1  0  0  0  0
  2 26  1  0  0  0  0
  3 27  1  0  0  0  0
  4 28  1  0  0  0  0
  5 29  1  0  0  0  0
  6 30  1  0  0  0  0
 13 31  1  0  0  0  0
 13 32  1  0  0  0  0
 13 33  1  0  0  0  0
 14 34  1  0  0  0  0
 14 35  1  0  0  0  0
 14 36  1  0  0  0  0
 15 37  1  0  0  0  0
 15 38  1  0  0  0  0
 16 39  1  0  0  0  0
 16 40  1  0  0  0  0
 17 41  1  0  0  0  0
 20 42  1  0  0  0  0
 20 43  1  0  0  0  0
 21 44  1  0  0  0  0
 22 45  1  0  0  0  0
M  END
> <POSIT::Probability>
0.25

> <POSIT::Method>
SHAPEFIT

> <ReceptorTitle>
UCSF-P4640-REFINED_LIGAND-BOUND-STATE_A__DU__LA1_A-201(A)

> <OMEGA_C>
kk0vwoiZ48Gw75U/T+o0wiiH48HweYI/cpQswqZT7cE0ibA/rRY1woLl9sE0Ta0/eJQ0wkEW5sFW
mYtAcX4vwir96cE5ysdA9t43wjYm7cFEq5Q/Y085wtXm5sG/ZqNAYnQvwksJ98FU47U/Gc84wkrc
6MHPrc9AhM09wiYK7cHURJE/LpE+wp6v5cGWIo5A14Yswk/HAMLEMsw/SMtLws6D7cElAqVA5a1I
wsne98GmYkdA03xGwpyn9sFEsNY/MMBHwiPE7cE6i39AcMIvwt3T58Hmc51A4eYzwt9I6sHPJ+FA
P0g9wrjl6MHBIOpAep1AwkLD9cFUmtM/UFJCwk/f7cGmapJAaS9Awm055cGc2jA/EWo/wkLq3cFW
Pm5AfxctwnMv3MGibZA/mvY2wu0i3MErYEs/P0oowhla7cGg1sA/bUw3wstH/sFom7k/nc40wtcC
5MF3M1RAk6ErwtSJ68EG+NVAfRYswnSoAcJeuCpA3tEuwvX/A8Kqb44/1osownh/AMJr35A/hRlL
wnJX5sF7oLhAzOJPwtlR7cFJF5hAZEhLwty09MHC4LhAOwFNwkxr+cGQzkNAf6xGwqe1/sGk7WVA
o65HwkOy/cEFZIs/ODdIwn9o78EECp0/20pIwn2V5sGSzFdAuCM8wkQO6sGgOARB5iw/wibg4cGA
u+dAO34+whbS+8EULwJAa0FBwnpO9MG/aaNA

> <OMEGA_E>
F/SWPw==

> <OMEGA_NBR>
     30707

$$$$
CACHE3HI_1695_25
  -OEChem-03092622543D

 42 43  0     1  0  0  0  0  0999 V2000
  -43.1892  -32.0565    2.6087 C   0  0  0  0  0  0  0  0  0  0  0  0
  -43.8455  -30.9062    2.0827 C   0  0  0  0  0  0  0  0  0  0  0  0
  -49.0872  -29.1047    5.6583 C   0  0  0  0  0  0  0  0  0  0  0  0
  -42.0777  -31.7240    3.3514 C   0  0  0  0  0  0  0  0  0  0  0  0
  -49.9018  -29.7915    4.7816 C   0  0  0  0  0  0  0  0  0  0  0  0
  -43.2100  -29.7380    2.4438 C   0  0  0  0  0  0  0  0  0  0  0  0
  -47.7681  -28.9782    5.2740 C   0  0  0  0  0  0  0  0  0  0  0  0
  -48.1651  -30.1289    3.3537 C   0  0  0  0  0  0  0  0  0  0  0  0
  -46.6924  -28.4138    0.9000 C   0  0  0  0  0  0  0  0  0  0  0  0
  -52.2114  -28.8385    4.5767 C   0  0  0  0  0  0  0  0  0  0  0  0
  -47.8490  -29.9176   -0.7561 C   0  0  0  0  0  0  0  0  0  0  0  0
  -51.3453  -29.9768    5.1094 C   0  0  0  0  0  0  0  0  0  0  0  0
  -43.5844  -28.3190    2.0936 C   0  0  0  0  0  0  0  0  0  0  0  0
  -44.2183  -28.1933    0.7109 C   0  0  0  0  0  0  0  0  0  0  0  0
  -47.8202  -29.4116    0.6805 C   0  0  1  0  0  0  0  0  0  0  0  0
  -49.4724  -30.3188    3.6162 N   0  0  0  0  0  0  0  0  0  0  0  0
  -47.2709  -29.4800    4.1243 N   0  0  0  0  0  0  0  0  0  0  0  0
  -46.8985  -28.2788    6.1463 N   0  0  0  0  0  0  0  0  0  0  0  0
  -45.4473  -28.9465    0.5989 N   0  0  0  0  0  0  0  0  0  0  0  0
  -46.8905  -27.2639    1.2888 O   0  0  0  0  0  0  0  0  0  0  0  0
  -41.8288  -30.0306    3.4127 S   0  0  0  0  0  0  0  0  0  0  0  0
  -47.5510  -30.8095    1.8193 S   0  0  0  0  0  0  0  0  0  0  0  0
  -43.5155  -33.0763    2.4514 H   0  0  0  0  0  0  0  0  0  0  0  0
  -44.7375  -30.9384    1.4700 H   0  0  0  0  0  0  0  0  0  0  0  0
  -49.4638  -28.6944    6.5881 H   0  0  0  0  0  0  0  0  0  0  0  0
  -41.3990  -32.3936    3.8604 H   0  0  0  0  0  0  0  0  0  0  0  0
  -52.0979  -28.7320    3.4924 H   0  0  0  0  0  0  0  0  0  0  0  0
  -51.9345  -27.8850    5.0385 H   0  0  0  0  0  0  0  0  0  0  0  0
  -53.2686  -29.0244    4.7905 H   0  0  0  0  0  0  0  0  0  0  0  0
  -46.9000  -30.3913   -1.0304 H   0  0  0  0  0  0  0  0  0  0  0  0
  -48.6391  -30.6675   -0.8778 H   0  0  0  0  0  0  0  0  0  0  0  0
  -48.0541  -29.1163   -1.4750 H   0  0  0  0  0  0  0  0  0  0  0  0
  -51.4839  -30.0549    6.1993 H   0  0  0  0  0  0  0  0  0  0  0  0
  -51.7118  -30.9317    4.6995 H   0  0  0  0  0  0  0  0  0  0  0  0
  -44.2612  -27.9145    2.8572 H   0  0  0  0  0  0  0  0  0  0  0  0
  -42.6790  -27.7003    2.1346 H   0  0  0  0  0  0  0  0  0  0  0  0
  -44.4690  -27.1466    0.5098 H   0  0  0  0  0  0  0  0  0  0  0  0
  -43.5447  -28.5392   -0.0797 H   0  0  0  0  0  0  0  0  0  0  0  0
  -48.7823  -28.9461    0.9179 H   0  0  0  0  0  0  0  0  0  0  0  0
  -47.2758  -27.8621    6.9696 H   0  0  0  0  0  0  0  0  0  0  0  0
  -45.9538  -28.1286    5.8658 H   0  0  0  0  0  0  0  0  0  0  0  0
  -45.3784  -29.9145    0.3000 H   0  0  0  0  0  0  0  0  0  0  0  0
  1  2  1  0  0  0  0
  1  4  2  0  0  0  0
  2  6  2  0  0  0  0
  3  5  1  0  0  0  0
  3  7  2  0  0  0  0
  4 21  1  0  0  0  0
  5 12  1  0  0  0  0
  5 16  2  0  0  0  0
  6 13  1  0  0  0  0
  6 21  1  0  0  0  0
  7 17  1  0  0  0  0
  7 18  1  0  0  0  0
  8 16  1  0  0  0  0
  8 17  2  0  0  0  0
  8 22  1  0  0  0  0
  9 15  1  0  0  0  0
  9 19  1  0  0  0  0
  9 20  2  0  0  0  0
 10 12  1  0  0  0  0
 11 15  1  0  0  0  0
 13 14  1  0  0  0  0
 14 19  1  0  0  0  0
 15 22  1  0  0  0  0
  1 23  1  0  0  0  0
  2 24  1  0  0  0  0
  3 25  1  0  0  0  0
  4 26  1  0  0  0  0
 10 27  1  0  0  0  0
 10 28  1  0  0  0  0
 10 29  1  0  0  0  0
 11 30  1  0  0  0  0
 11 31  1  0  0  0  0
 11 32  1  0  0  0  0
 12 33  1  0  0  0  0
 12 34  1  0  0  0  0
 13 35  1  0  0  0  0
 13 36  1  0  0  0  0
 14 37  1  0  0  0  0
 14 38  1  0  0  0  0
 15 39  1  0  0  0  0
 18 40  1  0  0  0  0
 18 41  1  0  0  0  0
 19 42  1  0  0  0  0
M  END
> <POSIT::Probability>
0.24

> <POSIT::Method>
FRED

> <ReceptorTitle>
UCSF-P4640-REFINED_LIGAND-BOUND-STATE_A__DU__LA1_A-201(A)

> <OMEGA_C>
ucEswto5AMJI9SZAxmEvwvc/98G2SgVASllEwnvW6MEOEbVAi08owqnK/cHAfFZAdptHwvtU7sGf
AplADtcswn3n7cF2ZhxAixI/wlTT58HwxKhAE6lAwvYH8cEso1ZABcU6wnJP48GIZ2Y/hthQwje1
5sH/c5JAVGU/wkZX78HwkEG/lGFNwozQ78FOgKNAdFYuwliN4sHy/QVAf98wwumL4cHA/DU/4kc/
wgFL68FoNi4/sONFws+M8sGsb2dAYBU9whLX68Gh+oNAFpg7wu064sGArsRAEco1wn2S58EQTxk/
3Y87wnAc2sGU9qQ/pFAnwro+8MHmaVpAOjQ+wu959sGE3+g/5A8uwixOBMIa5BxALPMywu6B98F8
J7w/+NpFwhCO5cHW0dJAnZglwheTAcLqEHdAR2RQwjnb5cHEgl9A47xPwmIU38GMO6FAABNVwuox
6MFyS5lAmZk7wlQh88Gg5IO/ao5CwglX9cGAtWC/YDdAwkHu6MGIzLy/h+9Nwn5w8MFcYMZA19hO
wjJ098EvYpZAfwsxws5Q38Hu3DZASbcqwkOa3cGcnAhAR+AxwjYs2cEIhAI/uy0uwl9Q5MGATaO9
CSFDwpaR58FY+Wo/aBo9wpnl3sHUBt9AtdA3wlEH4cFDtLtAe4M1wt5Q78HAmpk+

> <OMEGA_E>
2LLmwA==

> <OMEGA_NBR>
     32037

$$$$
CACHE3HI_1695_35
  -OEChem-03092622543D

 40 41  0     0  0  0  0  0  0999 V2000
  -44.6515  -28.3759    4.7540 C   0  0  0  0  0  0  0  0  0  0  0  0
  -45.6357  -28.4539    5.7401 C   0  0  0  0  0  0  0  0  0  0  0  0
  -46.3024  -28.8408    3.0494 C   0  0  0  0  0  0  0  0  0  0  0  0
  -47.2862  -28.9187    4.0381 C   0  0  0  0  0  0  0  0  0  0  0  0
  -44.9841  -28.5687    3.4133 C   0  0  0  0  0  0  0  0  0  0  0  0
  -46.9603  -28.7261    5.3875 C   0  0  0  0  0  0  0  0  0  0  0  0
  -48.7066  -29.2076    3.6908 C   0  0  0  0  0  0  0  0  0  0  0  0
  -49.2579  -29.0836    5.9359 C   0  0  0  0  0  0  0  0  0  0  0  0
  -44.2519  -29.3408    1.1286 C   0  0  0  0  0  0  0  0  0  0  0  0
  -42.5311  -28.8556    2.9065 C   0  0  0  0  0  0  0  0  0  0  0  0
  -53.4707  -27.9011    6.1324 C   0  0  0  0  0  0  0  0  0  0  0  0
  -52.8260  -28.9947    4.0210 C   0  0  0  0  0  0  0  0  0  0  0  0
  -50.3070  -29.1646    7.0171 C   0  0  0  0  0  0  0  0  0  0  0  0
  -43.9253  -28.4838    2.3657 C   0  0  0  0  0  0  0  0  0  0  0  0
  -49.6430  -29.2744    4.7075 N   0  0  0  0  0  0  0  0  0  0  0  0
  -47.9731  -28.8122    6.3445 N   0  0  0  0  0  0  0  0  0  0  0  0
  -52.4489  -28.7167    5.4295 N   0  0  0  0  0  0  0  0  0  0  0  0
  -48.9984  -29.3769    2.5109 O   0  0  0  0  0  0  0  0  0  0  0  0
  -52.5795  -30.3954    7.3980 O   0  0  0  0  0  0  0  0  0  0  0  0
  -51.2048  -30.9877    5.3770 O   0  0  0  0  0  0  0  0  0  0  0  0
  -51.6893  -29.9835    6.3175 S   0  0  0  0  0  0  0  0  0  0  0  0
  -43.6247  -28.1644    5.0415 H   0  0  0  0  0  0  0  0  0  0  0  0
  -45.3615  -28.3019    6.7811 H   0  0  0  0  0  0  0  0  0  0  0  0
  -46.5497  -28.9905    2.0018 H   0  0  0  0  0  0  0  0  0  0  0  0
  -44.3517  -30.3953    1.4087 H   0  0  0  0  0  0  0  0  0  0  0  0
  -45.1922  -29.0281    0.6615 H   0  0  0  0  0  0  0  0  0  0  0  0
  -43.4648  -29.2707    0.3693 H   0  0  0  0  0  0  0  0  0  0  0  0
  -42.5126  -29.8802    3.2945 H   0  0  0  0  0  0  0  0  0  0  0  0
  -41.7813  -28.7845    2.1105 H   0  0  0  0  0  0  0  0  0  0  0  0
  -42.2216  -28.1873    3.7178 H   0  0  0  0  0  0  0  0  0  0  0  0
  -53.1674  -27.7120    7.1662 H   0  0  0  0  0  0  0  0  0  0  0  0
  -53.6033  -26.9417    5.6245 H   0  0  0  0  0  0  0  0  0  0  0  0
  -54.4316  -28.4230    6.1385 H   0  0  0  0  0  0  0  0  0  0  0  0
  -52.0565  -29.5961    3.5283 H   0  0  0  0  0  0  0  0  0  0  0  0
  -53.7738  -29.5389    3.9839 H   0  0  0  0  0  0  0  0  0  0  0  0
  -52.9453  -28.0576    3.4701 H   0  0  0  0  0  0  0  0  0  0  0  0
  -49.9398  -29.7495    7.8507 H   0  0  0  0  0  0  0  0  0  0  0  0
  -50.5989  -28.1706    7.3291 H   0  0  0  0  0  0  0  0  0  0  0  0
  -43.8415  -27.4422    2.0009 H   0  0  0  0  0  0  0  0  0  0  0  0
  -47.7362  -28.6726    7.3194 H   0  0  0  0  0  0  0  0  0  0  0  0
  1  2  2  0  0  0  0
  1  5  1  0  0  0  0
  2  6  1  0  0  0  0
  3  4  1  0  0  0  0
  3  5  2  0  0  0  0
  4  6  2  0  0  0  0
  4  7  1  0  0  0  0
  5 14  1  0  0  0  0
  6 16  1  0  0  0  0
  7 15  1  0  0  0  0
  7 18  2  0  0  0  0
  8 13  1  0  0  0  0
  8 15  2  0  0  0  0
  8 16  1  0  0  0  0
  9 14  1  0  0  0  0
 10 14  1  0  0  0  0
 11 17  1  0  0  0  0
 12 17  1  0  0  0  0
 13 21  1  0  0  0  0
 17 21  1  0  0  0  0
 19 21  2  0  0  0  0
 20 21  2  0  0  0  0
  1 22  1  0  0  0  0
  2 23  1  0  0  0  0
  3 24  1  0  0  0  0
  9 25  1  0  0  0  0
  9 26  1  0  0  0  0
  9 27  1  0  0  0  0
 10 28  1  0  0  0  0
 10 29  1  0  0  0  0
 10 30  1  0  0  0  0
 11 31  1  0  0  0  0
 11 32  1  0  0  0  0
 11 33  1  0  0  0  0
 12 34  1  0  0  0  0
 12 35  1  0  0  0  0
 12 36  1  0  0  0  0
 13 37  1  0  0  0  0
 13 38  1  0  0  0  0
 14 39  1  0  0  0  0
 16 40  1  0  0  0  0
M  END
> <POSIT::Probability>
0.18

> <POSIT::Method>
FRED

> <ReceptorTitle>
UCSF-P4640-REFINED_LIGAND-BOUND-STATE_A__DU__LA1_A-201(A)

> <OMEGA_C>
HJsywr4B48EIIZhA94o2wqqh48GUrrdArTU5wgq65sH+KUNAGCU9wnhZ58FDOIFAr+8zwsyM5MFZ
c1pATtc7wgTP5cEgZqxAmtNCwj6p6cFiNWxAGQhFwjqr6MHK8r1A7wExwt256sFqdJA/5B8qwlLY
5sGEBDpACuJVwnc138HyPMRAyU1Twhz158HDq4BAVzpJwixR6cFyjOBAgrMvwsje48EyaBdAcJJG
wv4x6sGqo5ZAbOQ/wlx/5sHtBctAoMtRwsy75cFvvq1AY/5DwvoD68GTsiBAalFSwrUp88FGvOxA
vNFMwszm98H7D6xA3sFOwk3e78G9KMpAu38uwsdQ4cH0U6FANHI1wjxq4sGx/thA4zI6wpbs58Hr
HABAIGgxwpop88HkUbQ/0sQ0wqY56MGOVik/ANwtwnUq6sGeFr0+5AwqwpUK78G02VJAEiAnwqpG
5sG4EQdA8uIowqt/4cG8721AX6tUwiKy3cFUUeVAy2lWwpmI18EB/LNA/blZwmdi48G8bsRA2jlQ
wsLE7MF30GFAaxhXwq5P7MHe+H5A+cdTwg524MFwFV5AXMJHwgD/7cEAOftAR2VKwlFd4cEAiOpA
s10vwqmJ28E+DgBA0/E+woBh5cG6OOpA

> <OMEGA_E>
Xf0UwQ==

> <OMEGA_NBR>
     33325

$$$$
CACHE3HI_1695_36
  -OEChem-03092622543D

 35 37  0     0  0  0  0  0  0999 V2000
  -49.2245  -29.1737    5.7616 C   0  0  0  0  0  0  0  0  0  0  0  0
  -48.4553  -28.4656    6.6745 C   0  0  0  0  0  0  0  0  0  0  0  0
  -48.6886  -29.5461    4.5265 C   0  0  0  0  0  0  0  0  0  0  0  0
  -47.1372  -28.1166    6.3748 C   0  0  0  0  0  0  0  0  0  0  0  0
  -45.3137  -28.9752    3.0675 C   0  0  0  0  0  0  0  0  0  0  0  0
  -47.3548  -29.2077    4.1924 C   0  0  0  0  0  0  0  0  0  0  0  0
  -46.5930  -29.4752    3.0060 C   0  0  0  0  0  0  0  0  0  0  0  0
  -46.5995  -28.4950    5.1291 C   0  0  0  0  0  0  0  0  0  0  0  0
  -41.3802  -29.6954    1.9016 C   0  0  0  0  0  0  0  0  0  0  0  0
  -42.4412  -31.1851    3.0702 C   0  0  0  0  0  0  0  0  0  0  0  0
  -43.9661  -32.0437    0.7681 C   0  0  0  0  0  0  0  0  0  0  0  0
  -47.1186  -30.2140    1.8303 C   0  0  0  0  0  0  0  0  0  0  0  0
  -42.6113  -31.4043    0.5518 C   0  0  0  0  0  0  0  0  0  0  0  0
  -46.2868  -31.4479    1.4503 C   0  0  0  0  0  0  0  0  0  0  0  0
  -41.1163  -29.3354    3.1161 N   0  0  0  0  0  0  0  0  0  0  0  0
  -41.7720  -30.2567    3.8816 N   0  0  0  0  0  0  0  0  0  0  0  0
  -42.1667  -30.7926    1.7688 N   0  0  0  0  0  0  0  0  0  0  0  0
  -44.9244  -31.1063    1.1416 N   0  0  0  0  0  0  0  0  0  0  0  0
  -43.1160  -32.1312    3.4480 O   0  0  0  0  0  0  0  0  0  0  0  0
  -44.1668  -33.2508    0.6600 O   0  0  0  0  0  0  0  0  0  0  0  0
  -45.0084  -28.1794    4.5438 S   0  0  0  0  0  0  0  0  0  0  0  0
  -50.2487  -29.4396    6.0069 H   0  0  0  0  0  0  0  0  0  0  0  0
  -48.8812  -28.1802    7.6328 H   0  0  0  0  0  0  0  0  0  0  0  0
  -49.3068  -30.0997    3.8237 H   0  0  0  0  0  0  0  0  0  0  0  0
  -46.5423  -27.5634    7.0959 H   0  0  0  0  0  0  0  0  0  0  0  0
  -44.5406  -29.0385    2.3139 H   0  0  0  0  0  0  0  0  0  0  0  0
  -41.0286  -29.1974    0.9889 H   0  0  0  0  0  0  0  0  0  0  0  0
  -48.1674  -30.5242    1.9949 H   0  0  0  0  0  0  0  0  0  0  0  0
  -47.1564  -29.5407    0.9546 H   0  0  0  0  0  0  0  0  0  0  0  0
  -41.8712  -32.1545    0.2591 H   0  0  0  0  0  0  0  0  0  0  0  0
  -42.6856  -30.6332   -0.2197 H   0  0  0  0  0  0  0  0  0  0  0  0
  -46.2539  -32.1629    2.2789 H   0  0  0  0  0  0  0  0  0  0  0  0
  -46.7061  -31.9585    0.5774 H   0  0  0  0  0  0  0  0  0  0  0  0
  -41.7750  -30.2681    4.8936 H   0  0  0  0  0  0  0  0  0  0  0  0
  -44.6464  -30.1273    1.1994 H   0  0  0  0  0  0  0  0  0  0  0  0
  1  2  1  0  0  0  0
  1  3  2  0  0  0  0
  2  4  2  0  0  0  0
  3  6  1  0  0  0  0
  4  8  1  0  0  0  0
  5  7  2  0  0  0  0
  5 21  1  0  0  0  0
  6  7  1  0  0  0  0
  6  8  2  0  0  0  0
  7 12  1  0  0  0  0
  8 21  1  0  0  0  0
  9 15  2  0  0  0  0
  9 17  1  0  0  0  0
 10 16  1  0  0  0  0
 10 17  1  0  0  0  0
 10 19  2  0  0  0  0
 11 13  1  0  0  0  0
 11 18  1  0  0  0  0
 11 20  2  0  0  0  0
 12 14  1  0  0  0  0
 13 17  1  0  0  0  0
 14 18  1  0  0  0  0
 15 16  1  0  0  0  0
  1 22  1  0  0  0  0
  2 23  1  0  0  0  0
  3 24  1  0  0  0  0
  4 25  1  0  0  0  0
  5 26  1  0  0  0  0
  9 27  1  0  0  0  0
 12 28  1  0  0  0  0
 12 29  1  0  0  0  0
 13 30  1  0  0  0  0
 13 31  1  0  0  0  0
 14 32  1  0  0  0  0
 14 33  1  0  0  0  0
 16 34  1  0  0  0  0
 18 35  1  0  0  0  0
M  END
> <POSIT::Probability>
0.24

> <POSIT::Method>
FRED

> <ReceptorTitle>
UCSF-P4640-REFINED_LIGAND-BOUND-STATE_A__DU__LA1_A-201(A)

> <OMEGA_C>
2OVEwsJj6cESX7hAQdJBwoi548G2ldVAIMFCwoNe7MHk2JBAfYw8wrnu4MHE/stANEE1wjzN58E4
UURARGs9wmup6cGEKIZAPF86wjHN68GgYUBA2mU6wtD148FWIaRATIUlwh6Q7cEUZvM/vsMpwhh7
+cHYfURAVN0vwsIsAMKwpEQ/c3k8wkS28cFQR+o//XEqwvc7+8FYQA0/tiU5wliV+8EAo7k/C3ck
wveu6sG0bUdAlBYnwsQN8sHwbHhAtaoowlVX9sGAaeI/kbIzwqLZ+MFAIZI/wnYswlCGAMJYq1xA
2Kowwt4ABcKA8yg/pAg0wmpv4cHfZpFApP5IwlGE68GoOMBAWoZDwgNx4cESQPRAIjpFwiXM8MHw
tnRARCs6wt6B3MHaEeNAnykywvBO6MFYFxRATh0kwluU6cHQJn0/batAwo4x9MEQWP8/I6A8wmpT
7MFQX3Q/EHwnwiueAMLArIQ+Dr4qwt0Q9cHA92C+CwQ5wtSmAMIM2hFABNM6whir/8EwzhM/jRkn
wicl8sFpmJxA5pUywtAE8cF4hpk/

> <OMEGA_E>
JtcuwQ==

> <OMEGA_NBR>
     34516

$$$$
CACHE3HI_1696_33
  -OEChem-03092622543D

 31 33  0     1  0  0  0  0  0999 V2000
  -45.7056  -30.7855    2.1961 C   0  0  0  0  0  0  0  0  0  0  0  0
  -45.9230  -32.1303    1.8965 C   0  0  0  0  0  0  0  0  0  0  0  0
  -47.5675  -31.4973    0.2435 C   0  0  0  0  0  0  0  0  0  0  0  0
  -47.5169  -28.7066    4.4307 C   0  0  0  0  0  0  0  0  0  0  0  0
  -43.8936  -28.2826    6.0986 C   0  0  0  0  0  0  0  0  0  0  0  0
  -46.1518  -28.5245    4.7218 C   0  0  0  0  0  0  0  0  0  0  0  0
  -46.4192  -29.7966    1.5192 C   0  0  0  0  0  0  0  0  0  0  0  0
  -47.3501  -30.1525    0.5432 C   0  0  0  0  0  0  0  0  0  0  0  0
  -46.8539  -32.4863    0.9205 C   0  0  0  0  0  0  0  0  0  0  0  0
  -46.0842  -28.6064    6.1013 C   0  0  0  0  0  0  0  0  0  0  0  0
  -44.9589  -28.3027    4.0424 C   0  0  0  0  0  0  0  0  0  0  0  0
  -43.6852  -27.9736    1.9382 C   0  0  0  0  0  0  0  0  0  0  0  0
  -46.1536  -28.3601    1.8679 C   0  0  0  0  0  0  0  0  0  0  0  0
  -48.2589  -28.8899    5.5290 N   0  0  0  0  0  0  0  0  0  0  0  0
  -44.9855  -28.4949    6.8646 N   0  0  0  0  0  0  0  0  0  0  0  0
  -43.8103  -28.1807    4.7501 N   0  0  0  0  0  0  0  0  0  0  0  0
  -47.3602  -28.8240    6.5284 N   0  0  0  0  0  0  0  0  0  0  0  0
  -44.9344  -28.2052    2.6401 N   0  0  3  0  0  0  0  0  0  0  0  0
  -48.2521  -28.9559   -0.3137 Cl  0  0  0  0  0  0  0  0  0  0  0  0
  -47.1467  -34.3091    0.5160 Br  0  0  0  0  0  0  0  0  0  0  0  0
  -44.9775  -30.5190    2.9578 H   0  0  0  0  0  0  0  0  0  0  0  0
  -45.3587  -32.8888    2.4332 H   0  0  0  0  0  0  0  0  0  0  0  0
  -48.2922  -31.7742   -0.5192 H   0  0  0  0  0  0  0  0  0  0  0  0
  -48.0065  -28.7148    3.4673 H   0  0  0  0  0  0  0  0  0  0  0  0
  -42.9561  -28.1791    6.6343 H   0  0  0  0  0  0  0  0  0  0  0  0
  -43.8538  -27.9262    0.8585 H   0  0  0  0  0  0  0  0  0  0  0  0
  -43.2372  -27.0310    2.2652 H   0  0  0  0  0  0  0  0  0  0  0  0
  -42.9788  -28.7815    2.1481 H   0  0  0  0  0  0  0  0  0  0  0  0
  -46.0580  -27.7541    0.9609 H   0  0  0  0  0  0  0  0  0  0  0  0
  -46.9770  -27.9398    2.4547 H   0  0  0  0  0  0  0  0  0  0  0  0
  -47.6888  -28.9359    7.4793 H   0  0  0  0  0  0  0  0  0  0  0  0
  1  2  2  0  0  0  0
  1  7  1  0  0  0  0
  2  9  1  0  0  0  0
  3  8  1  0  0  0  0
  3  9  2  0  0  0  0
  4  6  1  0  0  0  0
  4 14  2  0  0  0  0
  5 15  2  0  0  0  0
  5 16  1  0  0  0  0
  6 10  2  0  0  0  0
  6 11  1  0  0  0  0
  7  8  2  0  0  0  0
  7 13  1  0  0  0  0
  8 19  1  0  0  0  0
  9 20  1  0  0  0  0
 10 15  1  0  0  0  0
 10 17  1  0  0  0  0
 11 16  2  0  0  0  0
 11 18  1  0  0  0  0
 12 18  1  0  0  0  0
 13 18  1  0  0  0  0
 14 17  1  0  0  0  0
  1 21  1  0  0  0  0
  2 22  1  0  0  0  0
  3 23  1  0  0  0  0
  4 24  1  0  0  0  0
  5 25  1  0  0  0  0
 12 26  1  0  0  0  0
 12 27  1  0  0  0  0
 12 28  1  0  0  0  0
 13 29  1  0  0  0  0
 13 30  1  0  0  0  0
 17 31  1  0  0  0  0
M  END
> <POSIT::Probability>
0.18

> <POSIT::Method>
HYBRID

> <ReceptorTitle>
UCSF-P4640-REFINED_LIGAND-BOUND-STATE_A__DU__LA1_A-201(A)

> <OMEGA_C>
fNI2wqpI9sFOjQxAH7E3wniFAMKUwPI/K0U+wmz6+8GgXnk+UBE+wg+n5cFpyI1ACJMvwsRC4sHb
J8NAb5s4wiQy5MEoGZdAOa05wlZf7sFcdcI/gmY9wkA48cGgDAs/aGo7wu/xAcIYo2s/Q1Y4wv7Z
5MEzPsNA6NUzwvlr4sGAW4FAob0uwvDJ38HcF/g/S504wovh4sF8GO8/GAlBwpge58Gf7bBAG/Ez
wn7148GvqttAxz0vwvxx4cE4AZhA4XA9wpqX5sGT6NBAz7wzwjmk4cHv9yhAIgJBwqKl58EAmKC+
QZY8woI8CcLAFgQ/7OgzwuEm9MFeTT1AV281whqOA8IhuRtANCtBwqcx/sEY6QS/qQZAwt635cGq
6F1ABtMrwt9u4cFgTNRASGovwt5o38GQyFs/4PIswoo/2ME6+BBARuorwpBA5sHOeQlAbDs4wnkI
3sEg+3U/eug7wp2E38GcGR1AXcE+wrZ858F8Vu9A

> <OMEGA_E>
pwMnwQ==

> <OMEGA_NBR>
     35636

$$$$
CACHE3HI_1702_84
  -OEChem-03092622543D

 45 48  0     1  0  0  0  0  0999 V2000
  -45.1094  -33.2484    1.4469 C   0  0  0  0  0  0  0  0  0  0  0  0
  -46.0011  -32.3458    0.8672 C   0  0  0  0  0  0  0  0  0  0  0  0
  -43.9578  -32.7809    2.0800 C   0  0  0  0  0  0  0  0  0  0  0  0
  -43.9220  -27.0085    0.4415 C   0  0  0  0  0  0  0  0  0  0  0  0
  -43.8001  -26.3460    1.6630 C   0  0  0  0  0  0  0  0  0  0  0  0
  -45.7415  -30.9763    0.9208 C   0  0  0  0  0  0  0  0  0  0  0  0
  -43.6982  -31.4114    2.1335 C   0  0  0  0  0  0  0  0  0  0  0  0
  -44.1816  -28.3787    0.4148 C   0  0  0  0  0  0  0  0  0  0  0  0
  -49.2311  -28.8278    3.5178 C   0  0  0  0  0  0  0  0  0  0  0  0
  -43.9381  -27.0533    2.8574 C   0  0  0  0  0  0  0  0  0  0  0  0
  -50.5290  -28.9696    4.0204 C   0  0  0  0  0  0  0  0  0  0  0  0
  -48.2794  -28.9708    5.7616 C   0  0  0  0  0  0  0  0  0  0  0  0
  -44.5898  -30.5089    1.5539 C   0  0  0  0  0  0  0  0  0  0  0  0
  -44.3195  -29.0860    1.6093 C   0  0  0  0  0  0  0  0  0  0  0  0
  -48.1158  -28.8286    4.3811 C   0  0  0  0  0  0  0  0  0  0  0  0
  -44.1977  -28.4235    2.8307 C   0  0  0  0  0  0  0  0  0  0  0  0
  -49.5696  -29.1086    6.2194 C   0  0  0  0  0  0  0  0  0  0  0  0
  -50.6661  -29.1094    5.3843 C   0  0  0  0  0  0  0  0  0  0  0  0
  -51.4310  -29.3587    7.4103 C   0  0  0  0  0  0  0  0  0  0  0  0
  -46.7793  -28.6789    3.8264 C   0  0  0  0  0  0  0  0  0  0  0  0
  -43.4970  -28.5268    5.2521 C   0  0  0  0  0  0  0  0  0  0  0  0
  -44.3402  -29.1574    4.1459 C   0  0  1  0  0  0  0  0  0  0  0  0
  -50.0510  -29.2651    7.4918 N   0  0  0  0  0  0  0  0  0  0  0  0
  -45.7243  -29.2410    4.5535 N   0  0  0  0  0  0  0  0  0  0  0  0
  -52.2054  -29.5050    8.3477 O   0  0  0  0  0  0  0  0  0  0  0  0
  -46.6039  -28.0586    2.7633 O   0  0  0  0  0  0  0  0  0  0  0  0
  -51.8592  -29.2625    6.0735 O   0  0  0  0  0  0  0  0  0  0  0  0
  -45.3111  -34.3146    1.4048 H   0  0  0  0  0  0  0  0  0  0  0  0
  -46.8982  -32.7097    0.3749 H   0  0  0  0  0  0  0  0  0  0  0  0
  -43.2634  -33.4835    2.5311 H   0  0  0  0  0  0  0  0  0  0  0  0
  -43.8146  -26.4570   -0.4879 H   0  0  0  0  0  0  0  0  0  0  0  0
  -43.5984  -25.2791    1.6853 H   0  0  0  0  0  0  0  0  0  0  0  0
  -46.4461  -30.2857    0.4634 H   0  0  0  0  0  0  0  0  0  0  0  0
  -42.7965  -31.0626    2.6313 H   0  0  0  0  0  0  0  0  0  0  0  0
  -44.2718  -28.8800   -0.5461 H   0  0  0  0  0  0  0  0  0  0  0  0
  -49.0894  -28.7158    2.4451 H   0  0  0  0  0  0  0  0  0  0  0  0
  -43.8410  -26.5271    3.8035 H   0  0  0  0  0  0  0  0  0  0  0  0
  -51.3869  -28.9692    3.3584 H   0  0  0  0  0  0  0  0  0  0  0  0
  -47.4335  -28.9735    6.4397 H   0  0  0  0  0  0  0  0  0  0  0  0
  -43.7731  -27.4821    5.4320 H   0  0  0  0  0  0  0  0  0  0  0  0
  -43.6123  -29.0727    6.1954 H   0  0  0  0  0  0  0  0  0  0  0  0
  -42.4351  -28.5384    4.9810 H   0  0  0  0  0  0  0  0  0  0  0  0
  -44.0105  -30.1958    4.0218 H   0  0  0  0  0  0  0  0  0  0  0  0
  -49.4897  -29.3042    8.3333 H   0  0  0  0  0  0  0  0  0  0  0  0
  -45.9167  -29.6817    5.4468 H   0  0  0  0  0  0  0  0  0  0  0  0
  1  2  1  0  0  0  0
  1  3  2  0  0  0  0
  2  6  2  0  0  0  0
  3  7  1  0  0  0  0
  4  5  1  0  0  0  0
  4  8  2  0  0  0  0
  5 10  2  0  0  0  0
  6 13  1  0  0  0  0
  7 13  2  0  0  0  0
  8 14  1  0  0  0  0
  9 11  2  0  0  0  0
  9 15  1  0  0  0  0
 10 16  1  0  0  0  0
 11 18  1  0  0  0  0
 12 15  2  0  0  0  0
 12 17  1  0  0  0  0
 13 14  1  0  0  0  0
 14 16  2  0  0  0  0
 15 20  1  0  0  0  0
 16 22  1  0  0  0  0
 17 18  2  0  0  0  0
 17 23  1  0  0  0  0
 18 27  1  0  0  0  0
 19 23  1  0  0  0  0
 19 25  2  0  0  0  0
 19 27  1  0  0  0  0
 20 24  1  0  0  0  0
 20 26  2  0  0  0  0
 21 22  1  0  0  0  0
 22 24  1  0  0  0  0
  1 28  1  0  0  0  0
  2 29  1  0  0  0  0
  3 30  1  0  0  0  0
  4 31  1  0  0  0  0
  5 32  1  0  0  0  0
  6 33  1  0  0  0  0
  7 34  1  0  0  0  0
  8 35  1  0  0  0  0
  9 36  1  0  0  0  0
 10 37  1  0  0  0  0
 11 38  1  0  0  0  0
 12 39  1  0  0  0  0
 21 40  1  0  0  0  0
 21 41  1  0  0  0  0
 21 42  1  0  0  0  0
 22 43  1  0  0  0  0
 23 44  1  0  0  0  0
 24 45  1  0  0  0  0
M  END
> <POSIT::Probability>
0.18

> <POSIT::Method>
FRED

> <ReceptorTitle>
UCSF-P4640-REFINED_LIGAND-BOUND-STATE_A__DU__LA1_A-201(A)

> <OMEGA_C>
C3A0wlL+BMLQMrk/HwE4wiBiAcKo/l0/z9QvwrEfA8L/HQVAGbAvwnUR2MEgEeI+TDMvwqTE0sGg
3NQ/Rfc2wl/P98FYtms/9souwn9K+8HriwhA8rkwwooH48GgZNQ+oexEwj2f5sG1I2FAksAvwjpt
2MHh3zZAqh1KwrPB58Ejp4BAIR5BwkPE58GqXrhA/lsywiAS9MFY5cY/N0cxwiCw6MFW/M0/jXZA
wgmh5sFgMoxAbcowwmtj48HrKTVASEdGwnve6MFHBcdACqpKwv7f6MEZTKxAX7lNwpLe6sHzIO1A
DB47wnZu5cEr43RA5fwtwvo25MFFEahAaFwxwmlC6cHzqoRAQzRIwuAe6sFrvO9AouU2woft6cE+
tpFAWtJQwjgK7MEkkAVBcGo6wgF44MGL2jBA3W9PwpkZ6sEiWsJAkD41wixCCcL0z7M/wpc7wr3W
AsJg7r8+vQ0twibvBcJU/SFAJkIvwtmn08Fwzvm+t2Quwok7ysEwuNc/2cg5wg5J8sHwPe0+oy8r
wiaA+MFpZihAUxYxwiUK58FQzwu/jltEwgC65cFGfBxAK10vwoE31MF4bHNALoxNwv3A58Fh8FZA
7bs9wrTJ58EDEs5Anxcvwj7b28HG0q1A+3IuwtyU6METQcZAjr0pwqdO5MEOZJ9AvQowwu6Q8cGZ
soBAc/VFwvRu6sEgVQVBqKo3wiN07cE1TK5A

> <OMEGA_E>
SvEZwQ==

> <OMEGA_NBR>
     37034

$$$$
CACHE3HI_1704_95
  -OEChem-03092622543D

 51 53  0     1  0  0  0  0  0999 V2000
  -52.9112  -28.7123    3.8372 C   0  0  0  0  0  0  0  0  0  0  0  0
  -50.6552  -28.8320    2.9008 C   0  0  0  0  0  0  0  0  0  0  0  0
  -50.9590  -28.9145    5.2963 C   0  0  0  0  0  0  0  0  0  0  0  0
  -47.0223  -33.1979    0.1858 C   0  0  0  0  0  0  0  0  0  0  0  0
  -47.7875  -30.9965    0.8228 C   0  0  0  0  0  0  0  0  0  0  0  0
  -49.2749  -28.9372    3.0729 C   0  0  0  0  0  0  0  0  0  0  0  0
  -49.5788  -29.0197    5.4684 C   0  0  0  0  0  0  0  0  0  0  0  0
  -48.3368  -33.6635    0.2180 C   0  0  0  0  0  0  0  0  0  0  0  0
  -49.1020  -31.4620    0.8550 C   0  0  0  0  0  0  0  0  0  0  0  0
  -51.4971  -28.8207    4.0127 C   0  0  0  0  0  0  0  0  0  0  0  0
  -46.7478  -31.8642    0.4881 C   0  0  0  0  0  0  0  0  0  0  0  0
  -48.7368  -29.0310    4.3565 C   0  0  0  0  0  0  0  0  0  0  0  0
  -49.3765  -32.7957    0.5527 C   0  0  0  0  0  0  0  0  0  0  0  0
  -45.3961  -31.3848    0.4550 C   0  0  0  0  0  0  0  0  0  0  0  0
  -43.7483  -30.1892    0.8204 C   0  0  0  0  0  0  0  0  0  0  0  0
  -46.5286  -28.6795    5.6448 C   0  0  0  0  0  0  0  0  0  0  0  0
  -43.6050  -29.0315    3.5867 C   0  0  0  0  0  0  0  0  0  0  0  0
  -44.2303  -28.4636    6.6286 C   0  0  0  0  0  0  0  0  0  0  0  0
  -51.6734  -32.3099    0.9340 C   0  0  0  0  0  0  0  0  0  0  0  0
  -42.7213  -29.1658    1.2312 C   0  0  0  0  0  0  0  0  0  0  0  0
  -43.2415  -28.2548    2.3421 C   0  0  0  0  0  0  0  0  0  0  0  0
  -45.0510  -28.9808    5.4592 C   0  0  2  0  0  0  0  0  0  0  0  0
  -54.0596  -28.6242    3.6948 N   0  0  0  0  0  0  0  0  0  0  0  0
  -45.0239  -30.2467    1.1093 N   0  0  0  0  0  0  0  0  0  0  0  0
  -44.4248  -32.0169   -0.2103 N   0  0  0  0  0  0  0  0  0  0  0  0
  -47.3196  -29.1387    4.5325 N   0  0  0  0  0  0  0  0  0  0  0  0
  -46.9705  -28.1278    6.6456 O   0  0  0  0  0  0  0  0  0  0  0  0
  -43.0909  -30.0852    3.9365 O   0  0  0  0  0  0  0  0  0  0  0  0
  -43.3084  -31.2080    0.0363 O   0  0  0  0  0  0  0  0  0  0  0  0
  -50.6590  -33.2506    0.5840 O   0  0  0  0  0  0  0  0  0  0  0  0
  -44.5957  -28.3648    4.2500 O   0  0  0  0  0  0  0  0  0  0  0  0
  -51.0593  -28.7603    1.8938 H   0  0  0  0  0  0  0  0  0  0  0  0
  -51.6033  -28.9073    6.1724 H   0  0  0  0  0  0  0  0  0  0  0  0
  -46.2231  -33.8870   -0.0769 H   0  0  0  0  0  0  0  0  0  0  0  0
  -47.5897  -29.9540    1.0610 H   0  0  0  0  0  0  0  0  0  0  0  0
  -48.6278  -28.9457    2.1993 H   0  0  0  0  0  0  0  0  0  0  0  0
  -49.1705  -29.0913    6.4734 H   0  0  0  0  0  0  0  0  0  0  0  0
  -48.5448  -34.7035   -0.0185 H   0  0  0  0  0  0  0  0  0  0  0  0
  -49.9076  -30.7813    1.1162 H   0  0  0  0  0  0  0  0  0  0  0  0
  -44.3537  -27.3810    6.7458 H   0  0  0  0  0  0  0  0  0  0  0  0
  -43.1629  -28.6681    6.4970 H   0  0  0  0  0  0  0  0  0  0  0  0
  -44.5622  -28.9249    7.5646 H   0  0  0  0  0  0  0  0  0  0  0  0
  -52.6490  -32.8026    0.9212 H   0  0  0  0  0  0  0  0  0  0  0  0
  -51.4735  -31.9284    1.9383 H   0  0  0  0  0  0  0  0  0  0  0  0
  -51.6630  -31.4803    0.2233 H   0  0  0  0  0  0  0  0  0  0  0  0
  -41.8054  -29.6766    1.5565 H   0  0  0  0  0  0  0  0  0  0  0  0
  -42.4278  -28.5703    0.3566 H   0  0  0  0  0  0  0  0  0  0  0  0
  -44.1353  -27.7202    2.0003 H   0  0  0  0  0  0  0  0  0  0  0  0
  -42.4757  -27.5183    2.6118 H   0  0  0  0  0  0  0  0  0  0  0  0
  -44.9256  -30.0623    5.3448 H   0  0  0  0  0  0  0  0  0  0  0  0
  -46.8114  -29.5991    3.7855 H   0  0  0  0  0  0  0  0  0  0  0  0
  1 10  1  0  0  0  0
  1 23  3  0  0  0  0
  2  6  2  0  0  0  0
  2 10  1  0  0  0  0
  3  7  1  0  0  0  0
  3 10  2  0  0  0  0
  4  8  2  0  0  0  0
  4 11  1  0  0  0  0
  5  9  1  0  0  0  0
  5 11  2  0  0  0  0
  6 12  1  0  0  0  0
  7 12  2  0  0  0  0
  8 13  1  0  0  0  0
  9 13  2  0  0  0  0
 11 14  1  0  0  0  0
 12 26  1  0  0  0  0
 13 30  1  0  0  0  0
 14 24  1  0  0  0  0
 14 25  2  0  0  0  0
 15 20  1  0  0  0  0
 15 24  2  0  0  0  0
 15 29  1  0  0  0  0
 16 22  1  0  0  0  0
 16 26  1  0  0  0  0
 16 27  2  0  0  0  0
 17 21  1  0  0  0  0
 17 28  2  0  0  0  0
 17 31  1  0  0  0  0
 18 22  1  0  0  0  0
 19 30  1  0  0  0  0
 20 21  1  0  0  0  0
 22 31  1  0  0  0  0
 25 29  1  0  0  0  0
  2 32  1  0  0  0  0
  3 33  1  0  0  0  0
  4 34  1  0  0  0  0
  5 35  1  0  0  0  0
  6 36  1  0  0  0  0
  7 37  1  0  0  0  0
  8 38  1  0  0  0  0
  9 39  1  0  0  0  0
 18 40  1  0  0  0  0
 18 41  1  0  0  0  0
 18 42  1  0  0  0  0
 19 43  1  0  0  0  0
 19 44  1  0  0  0  0
 19 45  1  0  0  0  0
 20 46  1  0  0  0  0
 20 47  1  0  0  0  0
 21 48  1  0  0  0  0
 21 49  1  0  0  0  0
 22 50  1  0  0  0  0
 26 51  1  0  0  0  0
M  END
> <POSIT::Probability>
0.18

> <POSIT::Method>
FRED

> <ReceptorTitle>
UCSF-P4640-REFINED_LIGAND-BOUND-STATE_A__DU__LA1_A-201(A)

> <OMEGA_C>
GKVTwsiy5cE2lXVA4J5Kwtyn5sEIpzlA/NVLwtJQ58F7e6lA0BY8wqbKBMJgST4+bCY/wsz498EI
oVI/hxlFwnJ/58EIqkRAsFBGwmgo6ME2/a5A21hBwmWnBsKAQ18+b2hEwjCy+8Hw31o/Ev1Nwt2Q
5sFbaIBAvP06wunp/sEg6vk+cPJCwmk/6MEhaItAi4FFwtcuA8LYfA0/oJU1whAU+8HA9ug+Qv4u
wmmD8cFABVI/Vh06wqZv5cGWorRAhWsuwptA6MH2jGVA3eswwmy148F9HdRAhrFOwko9AcLIHG8/
p+IqwqhT6cFwl50/WPcswsoJ4sFU5BVAOTQ0wsXY58EVsq5ADj1Ywkf+5MFGeGxAcRg0wjn58cGI
/o0/BLMxwkURAMJAX1e+PUc9wgIc6cEeCpFAwuE7wqkF4cEfqdRAH10swoGu8MHU73tAyjstwuqp
+cGAthQ9zKJKwpMABcKwgBU//GEywjDr4sGq/4dAujxMwg4V5sEoaPI/u2lOwhVC58EWhMVAc+Q4
wkWMB8LAgJ293Fs+wsyh78Hkzoc/3IJCwtqQ58GOwQxAk65Ewgq76MHYJc9A2i1CwlfQCsIAv5e8
YKFHwgJA9sEw4Y4/OmoxwjEM28Hk3ddA2qYswktY5cGJ589Atj8ywklm58H3EPJAm5hSwtU1A8Lo
0Gs/2eRNwmNt/8GwGPg/7qZOwrLX+8Ego2Q+rjgnwqFp7cFcOsc/E7YpwgCQ5MEQmbY+hoowwgXD
3cGkBQBAE+cpwnYl3MHqJidAzrMzwod/8MH5CKtA1j47wvLK7MHkRXJA

> <OMEGA_E>
evHHwA==

> <OMEGA_NBR>
     38546

$$$$
CACHE3HI_1707_28
  -OEChem-03092622543D

 47 49  0     1  0  0  0  0  0999 V2000
  -50.0479  -29.2917    4.2313 C   0  0  0  0  0  0  0  0  0  0  0  0
  -49.8218  -29.1448    2.8690 C   0  0  0  0  0  0  0  0  0  0  0  0
  -47.7561  -32.3784   -0.5221 C   0  0  0  0  0  0  0  0  0  0  0  0
  -48.9875  -29.1607    5.1239 C   0  0  0  0  0  0  0  0  0  0  0  0
  -48.5351  -28.8688    2.3988 C   0  0  0  0  0  0  0  0  0  0  0  0
  -47.3440  -31.5863    0.5885 C   0  0  0  0  0  0  0  0  0  0  0  0
  -46.7004  -33.0488   -1.0998 C   0  0  0  0  0  0  0  0  0  0  0  0
  -47.6954  -28.8834    4.6503 C   0  0  0  0  0  0  0  0  0  0  0  0
  -47.4503  -28.7335    3.2845 C   0  0  0  0  0  0  0  0  0  0  0  0
  -45.9884  -31.6819    0.8171 C   0  0  0  0  0  0  0  0  0  0  0  0
  -46.5943  -28.7518    5.6191 C   0  0  0  0  0  0  0  0  0  0  0  0
  -45.0422  -28.3158    3.7004 C   0  0  0  0  0  0  0  0  0  0  0  0
  -44.4920  -28.7441    1.0367 C   0  0  0  0  0  0  0  0  0  0  0  0
  -43.7810  -29.7007    6.5150 C   0  0  0  0  0  0  0  0  0  0  0  0
  -44.4678  -32.0089    2.8035 C   0  0  0  0  0  0  0  0  0  0  0  0
  -42.8806  -30.6594    1.0295 C   0  0  0  0  0  0  0  0  0  0  0  0
  -45.9016  -28.2999    1.3871 C   0  0  0  0  0  0  0  0  0  0  0  0
  -44.2210  -28.3371    6.0105 C   0  0  0  0  0  0  0  0  0  0  0  0
  -45.1647  -31.0034    1.8893 C   0  0  1  0  0  0  0  0  0  0  0  0
  -46.1308  -28.4520    2.8236 N   0  0  0  0  0  0  0  0  0  0  0  0
  -45.3338  -28.4745    5.0747 N   0  0  0  0  0  0  0  0  0  0  0  0
  -44.1897  -30.0835    1.3075 N   0  0  0  0  0  0  0  0  0  0  0  0
  -46.8305  -28.8879    6.8171 O   0  0  0  0  0  0  0  0  0  0  0  0
  -43.8961  -28.0725    3.3047 O   0  0  0  0  0  0  0  0  0  0  0  0
  -43.6839  -27.9510    0.5460 O   0  0  0  0  0  0  0  0  0  0  0  0
  -45.2193  -32.7229   -0.3042 S   0  0  0  0  0  0  0  0  0  0  0  0
  -51.0466  -29.5066    4.5989 H   0  0  0  0  0  0  0  0  0  0  0  0
  -50.6449  -29.2452    2.1672 H   0  0  0  0  0  0  0  0  0  0  0  0
  -48.7749  -32.4537   -0.8793 H   0  0  0  0  0  0  0  0  0  0  0  0
  -49.1876  -29.2790    6.1857 H   0  0  0  0  0  0  0  0  0  0  0  0
  -48.4128  -28.7640    1.3244 H   0  0  0  0  0  0  0  0  0  0  0  0
  -48.0109  -30.9778    1.1860 H   0  0  0  0  0  0  0  0  0  0  0  0
  -46.7271  -33.7138   -1.9514 H   0  0  0  0  0  0  0  0  0  0  0  0
  -43.4675  -30.3296    5.6758 H   0  0  0  0  0  0  0  0  0  0  0  0
  -44.5967  -30.2145    7.0347 H   0  0  0  0  0  0  0  0  0  0  0  0
  -42.9355  -29.6134    7.2058 H   0  0  0  0  0  0  0  0  0  0  0  0
  -43.7945  -32.6700    2.2468 H   0  0  0  0  0  0  0  0  0  0  0  0
  -43.8780  -31.4989    3.5736 H   0  0  0  0  0  0  0  0  0  0  0  0
  -45.2038  -32.6466    3.3065 H   0  0  0  0  0  0  0  0  0  0  0  0
  -42.2209  -30.5506    1.8951 H   0  0  0  0  0  0  0  0  0  0  0  0
  -42.9780  -31.7229    0.7939 H   0  0  0  0  0  0  0  0  0  0  0  0
  -42.4216  -30.1578    0.1730 H   0  0  0  0  0  0  0  0  0  0  0  0
  -46.0405  -27.2444    1.1403 H   0  0  0  0  0  0  0  0  0  0  0  0
  -46.6352  -28.9212    0.8679 H   0  0  0  0  0  0  0  0  0  0  0  0
  -44.5329  -27.7142    6.8551 H   0  0  0  0  0  0  0  0  0  0  0  0
  -43.3831  -27.8357    5.5153 H   0  0  0  0  0  0  0  0  0  0  0  0
  -45.8179  -30.3797    2.5111 H   0  0  0  0  0  0  0  0  0  0  0  0
  1  2  1  0  0  0  0
  1  4  2  0  0  0  0
  2  5  2  0  0  0  0
  3  6  1  0  0  0  0
  3  7  2  0  0  0  0
  4  8  1  0  0  0  0
  5  9  1  0  0  0  0
  6 10  2  0  0  0  0
  7 26  1  0  0  0  0
  8  9  2  0  0  0  0
  8 11  1  0  0  0  0
  9 20  1  0  0  0  0
 10 19  1  0  0  0  0
 10 26  1  0  0  0  0
 11 21  1  0  0  0  0
 11 23  2  0  0  0  0
 12 20  1  0  0  0  0
 12 21  1  0  0  0  0
 12 24  2  0  0  0  0
 13 17  1  0  0  0  0
 13 22  1  0  0  0  0
 13 25  2  0  0  0  0
 14 18  1  0  0  0  0
 15 19  1  0  0  0  0
 16 22  1  0  0  0  0
 17 20  1  0  0  0  0
 18 21  1  0  0  0  0
 19 22  1  0  0  0  0
  1 27  1  0  0  0  0
  2 28  1  0  0  0  0
  3 29  1  0  0  0  0
  4 30  1  0  0  0  0
  5 31  1  0  0  0  0
  6 32  1  0  0  0  0
  7 33  1  0  0  0  0
 14 34  1  0  0  0  0
 14 35  1  0  0  0  0
 14 36  1  0  0  0  0
 15 37  1  0  0  0  0
 15 38  1  0  0  0  0
 15 39  1  0  0  0  0
 16 40  1  0  0  0  0
 16 41  1  0  0  0  0
 16 42  1  0  0  0  0
 17 43  1  0  0  0  0
 17 44  1  0  0  0  0
 18 45  1  0  0  0  0
 18 46  1  0  0  0  0
 19 47  1  0  0  0  0
M  END
> <POSIT::Probability>
0.18

> <POSIT::Method>
HYBRID

> <ReceptorTitle>
UCSF-P4640-REFINED_LIGAND-BOUND-STATE_A__DU__LA1_A-201(A)

> <OMEGA_C>
EjFIwlZV6sHyZodAgklHwqAo6cGcnTdAMgY/wn2DAcKcpgW/N/NDwjZJ6cH/9qNA8iNCwk7z5sGI
hhlANmA9wtiw/MHSpxY/Qc06wv0xBMLhxoy/Csg+wjgR58Ekz5RAIs09wj7e5cEMNlJAIfQ3wpR0
/cHMKlE/hWA6wpYD5sHXz7NAQCs0wrqG4sG80mxAw/cxwtbz5cFIsYQ/xx8vwvua7cGnetBADt8x
wigJAMI2bDNAv4UrwnJG9cFQxYM/MZs3wjBm4sFAjbE/WeIwwmWy4sH1VcBAoag0wuoG+MEI1PE/
74U4wrad48GotTRAzlU1ws7L48GgY6JAOsIwwgyr8MGXXac/YlI7wlYa58FUJdpAkZUvwnCU4MFE
gFNAUrwuwpCb38Eaxgs/jOA0wkHkAsKAvpu+xS9MwnwN7ME5KpNAV5RKwhT26cEgtApAgRlDwpPQ
AcL2FmG/F8BEwmc76sER8cVAuaZBwsAc5sH2hak/LgtAwp7S98Gxzpc/meg6wvjaBsK9x/m/wN4t
whaj8sFIoLVAEGMywke38cF2HOFA+b0rwjTo7ME1luZAnC0vwhCuAsKYyw9AFoMvwqr9+8GbtWRA
p9A0whKWAsLSnVNAJ+Iowp5n9MEBkvI/cOkrwonI/cEoPks/wa8pwhhD8cEYLjE+cSk4woD02cGZ
9JE/e4o6wpBe58EOMF4/tiEywqC23cHWXNtAVYgtwm6v3sH0fLBAgEU3wpAJ88EotSBA

> <OMEGA_E>
p5jswA==

> <OMEGA_NBR>
     39983

$$$$
CACHE3HI_1712_26
  -OEChem-03092622543D

 50 52  0     1  0  0  0  0  0999 V2000
  -46.4741  -34.3039   -0.8085 C   0  0  0  0  0  0  0  0  0  0  0  0
  -45.1749  -34.7132   -1.1006 C   0  0  0  0  0  0  0  0  0  0  0  0
  -46.7146  -33.0805   -0.1730 C   0  0  0  0  0  0  0  0  0  0  0  0
  -44.0764  -33.9160   -0.7682 C   0  0  0  0  0  0  0  0  0  0  0  0
  -44.9209  -28.9250    6.8072 C   0  0  0  0  0  0  0  0  0  0  0  0
  -45.4972  -30.9909    0.8049 C   0  0  0  0  0  0  0  0  0  0  0  0
  -46.2902  -28.8523    6.7246 C   0  0  0  0  0  0  0  0  0  0  0  0
  -45.6225  -32.2591    0.1713 C   0  0  0  0  0  0  0  0  0  0  0  0
  -44.3313  -32.6949   -0.1334 C   0  0  0  0  0  0  0  0  0  0  0  0
  -44.1570  -30.6876    0.8711 C   0  0  0  0  0  0  0  0  0  0  0  0
  -44.4959  -29.0707    5.4731 C   0  0  0  0  0  0  0  0  0  0  0  0
  -49.5536  -30.1523    3.3460 C   0  0  0  0  0  0  0  0  0  0  0  0
  -42.6391  -29.3331    3.7805 C   0  0  0  0  0  0  0  0  0  0  0  0
  -43.9012  -28.1791    0.7477 C   0  0  0  0  0  0  0  0  0  0  0  0
  -42.0194  -31.7823    0.1785 C   0  0  0  0  0  0  0  0  0  0  0  0
  -51.8219  -30.7023    3.7301 C   0  0  0  0  0  0  0  0  0  0  0  0
  -48.1911  -30.1937    3.9999 C   0  0  0  0  0  0  0  0  0  0  0  0
  -47.9098  -28.9308    4.8136 C   0  0  0  0  0  0  0  0  0  0  0  0
  -43.4841  -29.4964    1.4295 C   0  0  1  0  0  0  0  0  0  0  0  0
  -45.5124  -29.0899    4.6069 N   0  0  0  0  0  0  0  0  0  0  0  0
  -46.5903  -28.9551    5.3981 N   0  0  0  0  0  0  0  0  0  0  0  0
  -43.4613  -31.7212    0.3029 N   0  0  0  0  0  0  0  0  0  0  0  0
  -43.1428  -29.1863    5.0760 N   0  0  0  0  0  0  0  0  0  0  0  0
  -43.6883  -29.3544    2.8660 N   0  0  0  0  0  0  0  0  0  0  0  0
  -49.7854  -29.7226    2.2241 O   0  0  0  0  0  0  0  0  0  0  0  0
  -41.4567  -29.4315    3.4616 O   0  0  0  0  0  0  0  0  0  0  0  0
  -50.4749  -30.6723    4.2108 O   0  0  0  0  0  0  0  0  0  0  0  0
  -47.3126  -34.9415   -1.0764 H   0  0  0  0  0  0  0  0  0  0  0  0
  -45.0118  -35.6675   -1.5951 H   0  0  0  0  0  0  0  0  0  0  0  0
  -47.7329  -32.7741    0.0486 H   0  0  0  0  0  0  0  0  0  0  0  0
  -43.0669  -34.2402   -0.9978 H   0  0  0  0  0  0  0  0  0  0  0  0
  -44.3239  -28.8787    7.7068 H   0  0  0  0  0  0  0  0  0  0  0  0
  -46.3029  -30.3694    1.1719 H   0  0  0  0  0  0  0  0  0  0  0  0
  -47.0560  -28.7395    7.4798 H   0  0  0  0  0  0  0  0  0  0  0  0
  -44.9838  -28.0228    0.8085 H   0  0  0  0  0  0  0  0  0  0  0  0
  -43.4104  -27.3265    1.2309 H   0  0  0  0  0  0  0  0  0  0  0  0
  -43.6323  -28.1681   -0.3147 H   0  0  0  0  0  0  0  0  0  0  0  0
  -41.6891  -31.3378   -0.7663 H   0  0  0  0  0  0  0  0  0  0  0  0
  -41.6843  -32.8236    0.2155 H   0  0  0  0  0  0  0  0  0  0  0  0
  -41.5336  -31.2248    0.9859 H   0  0  0  0  0  0  0  0  0  0  0  0
  -52.4734  -31.1339    4.4944 H   0  0  0  0  0  0  0  0  0  0  0  0
  -52.1451  -29.6812    3.5133 H   0  0  0  0  0  0  0  0  0  0  0  0
  -51.8703  -31.2987    2.8161 H   0  0  0  0  0  0  0  0  0  0  0  0
  -47.4379  -30.3073    3.2112 H   0  0  0  0  0  0  0  0  0  0  0  0
  -48.1517  -31.0753    4.6512 H   0  0  0  0  0  0  0  0  0  0  0  0
  -48.6598  -28.8148    5.6073 H   0  0  0  0  0  0  0  0  0  0  0  0
  -48.0138  -28.0395    4.1810 H   0  0  0  0  0  0  0  0  0  0  0  0
  -42.3833  -29.5708    1.3204 H   0  0  0  0  0  0  0  0  0  0  0  0
  -42.4534  -29.1592    5.8236 H   0  0  0  0  0  0  0  0  0  0  0  0
  -44.6413  -29.3032    3.1955 H   0  0  0  0  0  0  0  0  0  0  0  0
  1  2  1  0  0  0  0
  1  3  2  0  0  0  0
  2  4  2  0  0  0  0
  3  8  1  0  0  0  0
  4  9  1  0  0  0  0
  5  7  2  0  0  0  0
  5 11  1  0  0  0  0
  6  8  1  0  0  0  0
  6 10  2  0  0  0  0
  7 21  1  0  0  0  0
  8  9  2  0  0  0  0
  9 22  1  0  0  0  0
 10 19  1  0  0  0  0
 10 22  1  0  0  0  0
 11 20  2  0  0  0  0
 11 23  1  0  0  0  0
 12 17  1  0  0  0  0
 12 25  2  0  0  0  0
 12 27  1  0  0  0  0
 13 23  1  0  0  0  0
 13 24  1  0  0  0  0
 13 26  2  0  0  0  0
 14 19  1  0  0  0  0
 15 22  1  0  0  0  0
 16 27  1  0  0  0  0
 17 18  1  0  0  0  0
 18 21  1  0  0  0  0
 19 24  1  0  0  0  0
 20 21  1  0  0  0  0
  1 28  1  0  0  0  0
  2 29  1  0  0  0  0
  3 30  1  0  0  0  0
  4 31  1  0  0  0  0
  5 32  1  0  0  0  0
  6 33  1  0  0  0  0
  7 34  1  0  0  0  0
 14 35  1  0  0  0  0
 14 36  1  0  0  0  0
 14 37  1  0  0  0  0
 15 38  1  0  0  0  0
 15 39  1  0  0  0  0
 15 40  1  0  0  0  0
 16 41  1  0  0  0  0
 16 42  1  0  0  0  0
 16 43  1  0  0  0  0
 17 44  1  0  0  0  0
 17 45  1  0  0  0  0
 18 46  1  0  0  0  0
 18 47  1  0  0  0  0
 19 48  1  0  0  0  0
 23 49  1  0  0  0  0
 24 50  1  0  0  0  0
M  END
> <POSIT::Probability>
0.18

> <POSIT::Method>
FRED

> <ReceptorTitle>
UCSF-P4640-REFINED_LIGAND-BOUND-STATE_A__DU__LA1_A-201(A)

> <OMEGA_C>
e+U5wjg3CcIk906/DLM0wlvaCsKK34y/yts6wnlSBMIQLjG+OU4wwvupB8L0qkS/Bq8zwm5m58HI
1NlAFf01wmvt98HMDE4/LCk5wpTR5sG4L9dAcX02wlYJAcKgXC8+NFMxwo3HAsLgjgi+uKAwwhyA
9cFsAl8/zPsxwtKQ6ME8I69A2DZGwuo38cFTJFZAeI4qwiuq6sEu9HFA2povwsBu4cFQaj8/6RMo
wjhC/sGwyDY+rUlPwkCe9cGIuW5AssNAwrWM8cEy/n9AmqM/wlBy58GmCJpAwO8twqT468Eo+7Y/
tAw2whi46MH0a5NAcFw6whKk58EmvaxAZtgtwg7F/cEAF5s+Q5IswnV96cHobqJAzMAuwsbV6sG/
azdASyRHwuXH7cFsVw5As9MlwsVz68Gkil1AWOZJwutg9cEHv4ZAE0A9whHEC8JEx4m/EAw0wnqr
DsLsK8y/du4+wqIYA8LA5UY9fEQswvf1CMLsb3+/p0sxwqQH58GznfZAKDY5woD08sHs/5U/Tjk8
wnDq5cE0Wu9AdO8zwr4u4MGQ+U4/RaQtwsSc2sGujJ0/dIcuwjZY4cE4IaG+psEmwryz+sFILUS/
uLwmwlJLA8LwuFw+XyImwmLM+cGAZnw/v+RRwjoS+cEI0o9AiJRQwiRz7cGd2mBAJntPwrFj+sHU
OjRAbMA9wmJ18sFUhE1AVJtAwkKa+MGM1pRAnKNCwsqE5sHebrNAIg5AwthQ4MF5yoVAi4gpwhGR
7MG6Aak/UdApwhBG6cEaW7pArZAywuBs6sHfgkxA

> <OMEGA_E>
lfkJwQ==

> <OMEGA_NBR>
     41476

$$$$
CACHE3HI_1715_48
  -OEChem-03092622543D

 47 51  0     0  0  0  0  0  0999 V2000
  -45.3499  -31.9820    0.6208 C   0  0  0  0  0  0  0  0  0  0  0  0
  -44.5115  -32.9160    1.2269 C   0  0  0  0  0  0  0  0  0  0  0  0
  -53.6488  -29.9842    8.2945 C   0  0  0  0  0  0  0  0  0  0  0  0
  -54.0866  -30.9153    7.3497 C   0  0  0  0  0  0  0  0  0  0  0  0
  -47.8751  -28.9381    5.1488 C   0  0  0  0  0  0  0  0  0  0  0  0
  -49.1751  -29.4706    3.1831 C   0  0  0  0  0  0  0  0  0  0  0  0
  -44.9918  -30.6329    0.5859 C   0  0  0  0  0  0  0  0  0  0  0  0
  -43.3096  -32.5061    1.8026 C   0  0  0  0  0  0  0  0  0  0  0  0
  -52.4529  -29.2796    8.1140 C   0  0  0  0  0  0  0  0  0  0  0  0
  -53.3452  -31.1765    6.1925 C   0  0  0  0  0  0  0  0  0  0  0  0
  -46.7587  -28.7034    4.3461 C   0  0  0  0  0  0  0  0  0  0  0  0
  -48.0588  -29.2359    2.3804 C   0  0  0  0  0  0  0  0  0  0  0  0
  -49.0834  -29.3216    4.5671 C   0  0  0  0  0  0  0  0  0  0  0  0
  -43.7878  -30.2206    1.1624 C   0  0  0  0  0  0  0  0  0  0  0  0
  -42.9518  -31.1551    1.7677 C   0  0  0  0  0  0  0  0  0  0  0  0
  -51.6960  -29.5294    6.9569 C   0  0  0  0  0  0  0  0  0  0  0  0
  -52.1571  -30.4631    6.0331 C   0  0  0  0  0  0  0  0  0  0  0  0
  -46.8504  -28.8524    2.9622 C   0  0  0  0  0  0  0  0  0  0  0  0
  -50.2383  -29.5643    5.3966 C   0  0  0  0  0  0  0  0  0  0  0  0
  -43.3392  -28.8134    1.1672 C   0  0  0  0  0  0  0  0  0  0  0  0
  -41.6884  -30.6975    2.3687 C   0  0  0  0  0  0  0  0  0  0  0  0
  -45.5876  -27.6749    1.1304 C   0  0  0  0  0  0  0  0  0  0  0  0
  -44.2111  -27.7615    0.5228 C   0  0  0  0  0  0  0  0  0  0  0  0
  -50.5025  -28.9810    6.5448 N   0  0  0  0  0  0  0  0  0  0  0  0
  -42.2233  -28.4226    1.6988 N   0  0  0  0  0  0  0  0  0  0  0  0
  -51.2047  -30.4646    5.0460 N   0  0  0  0  0  0  0  0  0  0  0  0
  -41.4258  -29.3476    2.2825 N   0  0  0  0  0  0  0  0  0  0  0  0
  -45.7179  -28.6142    2.1486 N   0  0  0  0  0  0  0  0  0  0  0  0
  -40.9305  -31.4975    2.9095 O   0  0  0  0  0  0  0  0  0  0  0  0
  -46.4294  -26.8720    0.7409 O   0  0  0  0  0  0  0  0  0  0  0  0
  -46.2855  -32.3050    0.1728 H   0  0  0  0  0  0  0  0  0  0  0  0
  -44.7947  -33.9643    1.2503 H   0  0  0  0  0  0  0  0  0  0  0  0
  -54.2460  -29.8025    9.1843 H   0  0  0  0  0  0  0  0  0  0  0  0
  -55.0201  -31.4472    7.5159 H   0  0  0  0  0  0  0  0  0  0  0  0
  -47.7875  -28.8178    6.2260 H   0  0  0  0  0  0  0  0  0  0  0  0
  -50.1102  -29.7689    2.7149 H   0  0  0  0  0  0  0  0  0  0  0  0
  -45.6673  -29.9318    0.1059 H   0  0  0  0  0  0  0  0  0  0  0  0
  -42.6694  -33.2487    2.2704 H   0  0  0  0  0  0  0  0  0  0  0  0
  -52.1219  -28.5580    8.8541 H   0  0  0  0  0  0  0  0  0  0  0  0
  -53.6819  -31.8986    5.4572 H   0  0  0  0  0  0  0  0  0  0  0  0
  -45.8219  -28.4048    4.8100 H   0  0  0  0  0  0  0  0  0  0  0  0
  -48.1419  -29.3549    1.3031 H   0  0  0  0  0  0  0  0  0  0  0  0
  -43.6981  -26.8081    0.6384 H   0  0  0  0  0  0  0  0  0  0  0  0
  -44.2898  -28.0165   -0.5326 H   0  0  0  0  0  0  0  0  0  0  0  0
  -51.2199  -31.0331    4.2092 H   0  0  0  0  0  0  0  0  0  0  0  0
  -40.5579  -29.0177    2.6928 H   0  0  0  0  0  0  0  0  0  0  0  0
  -44.9119  -29.2056    2.3417 H   0  0  0  0  0  0  0  0  0  0  0  0
  1  2  1  0  0  0  0
  1  7  2  0  0  0  0
  2  8  2  0  0  0  0
  3  4  1  0  0  0  0
  3  9  2  0  0  0  0
  4 10  2  0  0  0  0
  5 11  2  0  0  0  0
  5 13  1  0  0  0  0
  6 12  1  0  0  0  0
  6 13  2  0  0  0  0
  7 14  1  0  0  0  0
  8 15  1  0  0  0  0
  9 16  1  0  0  0  0
 10 17  1  0  0  0  0
 11 18  1  0  0  0  0
 12 18  2  0  0  0  0
 13 19  1  0  0  0  0
 14 15  2  0  0  0  0
 14 20  1  0  0  0  0
 15 21  1  0  0  0  0
 16 17  2  0  0  0  0
 16 24  1  0  0  0  0
 17 26  1  0  0  0  0
 18 28  1  0  0  0  0
 19 24  2  0  0  0  0
 19 26  1  0  0  0  0
 20 23  1  0  0  0  0
 20 25  2  0  0  0  0
 21 27  1  0  0  0  0
 21 29  2  0  0  0  0
 22 23  1  0  0  0  0
 22 28  1  0  0  0  0
 22 30  2  0  0  0  0
 25 27  1  0  0  0  0
  1 31  1  0  0  0  0
  2 32  1  0  0  0  0
  3 33  1  0  0  0  0
  4 34  1  0  0  0  0
  5 35  1  0  0  0  0
  6 36  1  0  0  0  0
  7 37  1  0  0  0  0
  8 38  1  0  0  0  0
  9 39  1  0  0  0  0
 10 40  1  0  0  0  0
 11 41  1  0  0  0  0
 12 42  1  0  0  0  0
 23 43  1  0  0  0  0
 23 44  1  0  0  0  0
 26 45  1  0  0  0  0
 27 46  1  0  0  0  0
 28 47  1  0  0  0  0
M  END
> <POSIT::Probability>
0.24

> <POSIT::Method>
FRED

> <ReceptorTitle>
UCSF-P4640-REFINED_LIGAND-BOUND-STATE_A__DU__LA1_A-201(A)

> <OMEGA_C>
SGY1wh7b/8EA6x4/vgsywvWpA8IXDJ0/Y5hWwpTf78EStgRBs1hYwoZS98EQMetAHIA/wkSB58H5
wqRAUrNEwrHD68G1t0tApvczwhUQ9cHw/RU/Aj0twjoGAsLTu+Y/uM9Rwpg86sHp0gFBe2FVwpBp
+cHHKMZA6gg7wpag5cGGE4tAMDxAwgrj6cHQWBhAZ1VEwpyS6sFqJZJAtyYvwtbD8cGNyJQ/m84r
wqI9+cHtQ+I/ushOwjM87MHUnt5A4KBQwnG088FCD8FA1mY7wqrR5sHykz1A/vNIwp6D7MHYsKxA
WVstwvGB5sFvaJU/88AmwnuU9cEgmBdAt1k2wj5m3cGUsJA/JNgwwpwX3sEY2QU/mwJKwirZ58HY
btFAreQowoph48EJctk/pdFMwoy388F0eKFA+rMlwsvH6sF8FBJALt82wtvp5MFFgglAzbgjwt/6
+8FlNTpAubc5wtz51sF4qD0/VCQ5wko4AcLw8TA+wC0zwnHbB8K7CKA/2/tYwopr7sHs8hJBlhRc
wtST+8GWgvBAYCY/wseK5sFIO8dA0XBIws8m7sGBwC1ATKs2wkB078EA19g9fK0qwq7+BMKGTRFA
znxQwrt25ME2qg1BRrpWwkcw/8Eaoa5ArEk3wg0948E665lARJFAwsXW6sGCy6Y/18ouwvV21sG4
ayM/vCgxwtQh4MFEWwi/MeFMwtxD+MHksYZAPjsiwkIk6MF0VyxAzKUzwiil6cHB3hVA

> <OMEGA_E>
SFTYwA==

> <OMEGA_NBR>
     42915

$$$$
CACHE3HI_1715_69
  -OEChem-03092622543D

 50 53  0     0  0  0  0  0  0999 V2000
  -45.4254  -28.6893    5.5481 C   0  0  0  0  0  0  0  0  0  0  0  0
  -47.0060  -29.0160    3.7502 C   0  0  0  0  0  0  0  0  0  0  0  0
  -46.4747  -28.6746    6.4671 C   0  0  0  0  0  0  0  0  0  0  0  0
  -48.0553  -29.0012    4.6691 C   0  0  0  0  0  0  0  0  0  0  0  0
  -43.7557  -27.8068    3.0782 C   0  0  0  0  0  0  0  0  0  0  0  0
  -45.6913  -28.8602    4.1896 C   0  0  0  0  0  0  0  0  0  0  0  0
  -47.7895  -28.8304    6.0277 C   0  0  0  0  0  0  0  0  0  0  0  0
  -44.6115  -28.8756    3.2431 C   0  0  0  0  0  0  0  0  0  0  0  0
  -43.3312  -29.7171    1.6745 C   0  0  0  0  0  0  0  0  0  0  0  0
  -46.3427  -34.8320   -1.4350 C   0  0  0  0  0  0  0  0  0  0  0  0
  -45.6002  -33.7807   -1.8160 C   0  0  0  0  0  0  0  0  0  0  0  0
  -46.4255  -35.2487   -0.0478 C   0  0  0  0  0  0  0  0  0  0  0  0
  -45.7462  -34.5740    0.8915 C   0  0  0  0  0  0  0  0  0  0  0  0
  -44.8601  -33.0527   -0.7605 C   0  0  0  0  0  0  0  0  0  0  0  0
  -44.2112  -32.6681    1.3001 C   0  0  0  0  0  0  0  0  0  0  0  0
  -50.2140  -28.9600    6.6991 C   0  0  0  0  0  0  0  0  0  0  0  0
  -52.7705  -30.5052    7.2099 C   0  0  0  0  0  0  0  0  0  0  0  0
  -53.2810  -28.9802    9.1268 C   0  0  0  0  0  0  0  0  0  0  0  0
  -42.7735  -30.6581    0.6794 C   0  0  0  0  0  0  0  0  0  0  0  0
  -51.0185  -28.8824    7.9919 C   0  0  0  0  0  0  0  0  0  0  0  0
  -52.5251  -29.1163    7.8028 C   0  0  0  0  0  0  0  0  0  0  0  0
  -44.3695  -29.9720    2.4389 N   0  0  0  0  0  0  0  0  0  0  0  0
  -44.0894  -32.0193   -0.8959 N   0  0  0  0  0  0  0  0  0  0  0  0
  -44.9857  -33.5017    0.5190 N   0  0  0  0  0  0  0  0  0  0  0  0
  -43.6669  -31.7550    0.3829 N   0  0  0  0  0  0  0  0  0  0  0  0
  -48.8534  -28.8154    6.9602 N   0  0  0  0  0  0  0  0  0  0  0  0
  -44.0326  -32.7051    2.5088 O   0  0  0  0  0  0  0  0  0  0  0  0
  -50.7447  -29.1526    5.6100 O   0  0  0  0  0  0  0  0  0  0  0  0
  -42.5963  -28.1793    1.8710 S   0  0  0  0  0  0  0  0  0  0  0  0
  -44.4061  -28.5666    5.9066 H   0  0  0  0  0  0  0  0  0  0  0  0
  -47.2294  -29.1501    2.6944 H   0  0  0  0  0  0  0  0  0  0  0  0
  -46.2562  -28.5410    7.5236 H   0  0  0  0  0  0  0  0  0  0  0  0
  -49.0759  -29.1237    4.3154 H   0  0  0  0  0  0  0  0  0  0  0  0
  -43.7482  -26.8532    3.5880 H   0  0  0  0  0  0  0  0  0  0  0  0
  -46.9067  -35.4028   -2.1647 H   0  0  0  0  0  0  0  0  0  0  0  0
  -45.5261  -33.4541   -2.8447 H   0  0  0  0  0  0  0  0  0  0  0  0
  -47.0404  -36.1051    0.2021 H   0  0  0  0  0  0  0  0  0  0  0  0
  -45.7685  -34.8370    1.9414 H   0  0  0  0  0  0  0  0  0  0  0  0
  -52.3899  -31.2927    7.8694 H   0  0  0  0  0  0  0  0  0  0  0  0
  -53.8407  -30.6794    7.0555 H   0  0  0  0  0  0  0  0  0  0  0  0
  -52.2744  -30.6070    6.2394 H   0  0  0  0  0  0  0  0  0  0  0  0
  -52.9205  -29.6989    9.8696 H   0  0  0  0  0  0  0  0  0  0  0  0
  -54.3552  -29.1463    8.9903 H   0  0  0  0  0  0  0  0  0  0  0  0
  -53.1469  -27.9775    9.5460 H   0  0  0  0  0  0  0  0  0  0  0  0
  -42.5526  -30.1569   -0.2785 H   0  0  0  0  0  0  0  0  0  0  0  0
  -41.8230  -31.1053    1.0172 H   0  0  0  0  0  0  0  0  0  0  0  0
  -50.8452  -27.9076    8.4651 H   0  0  0  0  0  0  0  0  0  0  0  0
  -50.6070  -29.6495    8.6603 H   0  0  0  0  0  0  0  0  0  0  0  0
  -52.9262  -28.3755    7.0998 H   0  0  0  0  0  0  0  0  0  0  0  0
  -48.5780  -28.6865    7.9308 H   0  0  0  0  0  0  0  0  0  0  0  0
  1  3  2  0  0  0  0
  1  6  1  0  0  0  0
  2  4  1  0  0  0  0
  2  6  2  0  0  0  0
  3  7  1  0  0  0  0
  4  7  2  0  0  0  0
  5  8  2  0  0  0  0
  5 29  1  0  0  0  0
  6  8  1  0  0  0  0
  7 26  1  0  0  0  0
  8 22  1  0  0  0  0
  9 19  1  0  0  0  0
  9 22  2  0  0  0  0
  9 29  1  0  0  0  0
 10 11  2  0  0  0  0
 10 12  1  0  0  0  0
 11 14  1  0  0  0  0
 12 13  2  0  0  0  0
 13 24  1  0  0  0  0
 14 23  2  0  0  0  0
 14 24  1  0  0  0  0
 15 24  1  0  0  0  0
 15 25  1  0  0  0  0
 15 27  2  0  0  0  0
 16 20  1  0  0  0  0
 16 26  1  0  0  0  0
 16 28  2  0  0  0  0
 17 21  1  0  0  0  0
 18 21  1  0  0  0  0
 19 25  1  0  0  0  0
 20 21  1  0  0  0  0
 23 25  1  0  0  0  0
  1 30  1  0  0  0  0
  2 31  1  0  0  0  0
  3 32  1  0  0  0  0
  4 33  1  0  0  0  0
  5 34  1  0  0  0  0
 10 35  1  0  0  0  0
 11 36  1  0  0  0  0
 12 37  1  0  0  0  0
 13 38  1  0  0  0  0
 17 39  1  0  0  0  0
 17 40  1  0  0  0  0
 17 41  1  0  0  0  0
 18 42  1  0  0  0  0
 18 43  1  0  0  0  0
 18 44  1  0  0  0  0
 19 45  1  0  0  0  0
 19 46  1  0  0  0  0
 20 47  1  0  0  0  0
 20 48  1  0  0  0  0
 21 49  1  0  0  0  0
 26 50  1  0  0  0  0
M  END
> <POSIT::Probability>
0.24

> <POSIT::Method>
FRED

> <ReceptorTitle>
UCSF-P4640-REFINED_LIGAND-BOUND-STATE_A__DU__LA1_A-201(A)

> <OMEGA_C>
pLM1wsiD5cEmirFAMQY8wq4g6MEbA3BAHuY5wp9l5cEz8s5AqDhAwogC6MEgaZVAzAUvwkp03sEq
AUVA2cM2wqbh5sEaEYZAdig/wqek5sGm4sBAI3IywjQB58Gxj09AJFMtwpK87cFyVNY/5l45wu5T
C8LJrbe/p2Y2wmcfB8KUcei/tLM5wrj+DMLAqkO9GPw2wsZLCsLQOWQ/yXAzwv81BMIOsUK/S9gw
wiasAsLNaaY/GNtIwiGu58GlXtZA9BRTwqMK9ME+t+ZAuB9Vwo3X58GDBxJBERgrwsxD9cFS6i0/
+xJMwjUP58Hnvf9AvRlSwkTu6MHasPlAYHoxwr/G78FFFxxAhVswwrwTAMIWWWW/UvEzwsEBBsIJ
2wQ/4aouwicK/sGCDcQ+4GlDwuaF5sGOud5AZiEwwvzRAsLskCBAivpKwpQ46cH/hLNAoGIqwjhv
4cFMfO8/5J8xwl6I5MEeA71A8uo8wlMz6cF8cCxAYwY5wuNT5MEgwfBAvk1Ewk/96MGCF4pAH/4u
wmnT1sEIoWVAdKA7wmycDcI5iwrAwho2wvzQBcIwDzbAWik8wqhrEMIK7k4+7hI3whhZC8Iqfvg/
RI9Rwl9X+sF30vtA5lxXwm5v9cG1xuFA9RhRwg7b9MHjqMdAi65TwkyX7cGz6R1BwGtZwrIr6cFI
2A9Bc5ZUwvbR38GJvBhB1DUqwldB8cGIk46+ukonwrzX+MGZMoI/gmFLwrdC38EKcQdBj21Kwhgy
7cGykApBcrRTwgoB48GmMeNA7E9CwgJ+5cFayf1A

> <OMEGA_E>
pyoLwQ==

> <OMEGA_NBR>
     44407

$$$$
CACHE3HI_1715_71
  -OEChem-03092622543D

 38 40  0     1  0  0  0  0  0999 V2000
  -48.5210  -28.8520    3.8992 C   0  0  0  0  0  0  0  0  0  0  0  0
  -49.9263  -28.8862    4.0360 C   0  0  0  0  0  0  0  0  0  0  0  0
  -49.7118  -29.1472    6.4703 C   0  0  0  0  0  0  0  0  0  0  0  0
  -43.7681  -29.1866    6.1470 C   0  0  0  0  0  0  0  0  0  0  0  0
  -47.7439  -28.9745    5.0676 C   0  0  0  0  0  0  0  0  0  0  0  0
  -46.2963  -29.0030    5.2455 C   0  0  0  0  0  0  0  0  0  0  0  0
  -48.3148  -29.1141    6.3368 C   0  0  0  0  0  0  0  0  0  0  0  0
  -50.5179  -29.0384    5.3155 C   0  0  0  0  0  0  0  0  0  0  0  0
  -46.0472  -29.1523    6.6100 C   0  0  0  0  0  0  0  0  0  0  0  0
  -45.2386  -28.9328    4.3189 C   0  0  0  0  0  0  0  0  0  0  0  0
  -44.7308  -30.6269    0.8270 C   0  0  0  0  0  0  0  0  0  0  0  0
  -43.1590  -27.9767    2.2592 C   0  0  0  0  0  0  0  0  0  0  0  0
  -45.9410  -32.7802    0.3340 C   0  0  0  0  0  0  0  0  0  0  0  0
  -44.6795  -29.1026    0.5889 C   0  0  0  0  0  0  0  0  0  0  0  0
  -44.6321  -28.2419    1.8804 C   0  0  1  0  0  0  0  0  0  0  0  0
  -44.7792  -29.2400    7.0519 N   0  0  0  0  0  0  0  0  0  0  0  0
  -43.9769  -29.0382    4.8094 N   0  0  0  0  0  0  0  0  0  0  0  0
  -47.2774  -29.2061    7.2650 N   0  0  0  0  0  0  0  0  0  0  0  0
  -45.4963  -28.8654    2.9431 N   0  0  0  0  0  0  0  0  0  0  0  0
  -45.8183  -31.3215    0.3080 N   0  0  0  0  0  0  0  0  0  0  0  0
  -43.8490  -31.1998    1.4607 O   0  0  0  0  0  0  0  0  0  0  0  0
  -52.4147  -29.1072    5.4884 Br  0  0  0  0  0  0  0  0  0  0  0  0
  -48.0575  -28.7358    2.9306 H   0  0  0  0  0  0  0  0  0  0  0  0
  -50.5536  -28.7960    3.1615 H   0  0  0  0  0  0  0  0  0  0  0  0
  -50.1650  -29.2545    7.4447 H   0  0  0  0  0  0  0  0  0  0  0  0
  -42.7520  -29.2655    6.5044 H   0  0  0  0  0  0  0  0  0  0  0  0
  -43.1191  -27.3670    3.1739 H   0  0  0  0  0  0  0  0  0  0  0  0
  -42.6475  -28.9346    2.4346 H   0  0  0  0  0  0  0  0  0  0  0  0
  -42.6605  -27.4397    1.4388 H   0  0  0  0  0  0  0  0  0  0  0  0
  -46.8894  -33.0773   -0.1375 H   0  0  0  0  0  0  0  0  0  0  0  0
  -45.1013  -33.2285   -0.2172 H   0  0  0  0  0  0  0  0  0  0  0  0
  -45.9242  -33.1309    1.3765 H   0  0  0  0  0  0  0  0  0  0  0  0
  -43.7804  -28.8792   -0.0041 H   0  0  0  0  0  0  0  0  0  0  0  0
  -45.5754  -28.8151    0.0191 H   0  0  0  0  0  0  0  0  0  0  0  0
  -45.0763  -27.2677    1.6281 H   0  0  0  0  0  0  0  0  0  0  0  0
  -47.3980  -29.2970    8.2535 H   0  0  0  0  0  0  0  0  0  0  0  0
  -45.6071  -29.8171    2.6567 H   0  0  0  0  0  0  0  0  0  0  0  0
  -46.5595  -30.7939   -0.1070 H   0  0  0  0  0  0  0  0  0  0  0  0
  1  2  2  0  0  0  0
  1  5  1  0  0  0  0
  2  8  1  0  0  0  0
  3  7  1  0  0  0  0
  3  8  2  0  0  0  0
  4 16  2  0  0  0  0
  4 17  1  0  0  0  0
  5  6  1  0  0  0  0
  5  7  2  0  0  0  0
  6  9  2  0  0  0  0
  6 10  1  0  0  0  0
  7 18  1  0  0  0  0
  8 22  1  0  0  0  0
  9 16  1  0  0  0  0
  9 18  1  0  0  0  0
 10 17  2  0  0  0  0
 10 19  1  0  0  0  0
 11 14  1  0  0  0  0
 11 20  1  0  0  0  0
 11 21  2  0  0  0  0
 12 15  1  0  0  0  0
 13 20  1  0  0  0  0
 14 15  1  0  0  0  0
 15 19  1  0  0  0  0
  1 23  1  0  0  0  0
  2 24  1  0  0  0  0
  3 25  1  0  0  0  0
  4 26  1  0  0  0  0
 12 27  1  0  0  0  0
 12 28  1  0  0  0  0
 12 29  1  0  0  0  0
 13 30  1  0  0  0  0
 13 31  1  0  0  0  0
 13 32  1  0  0  0  0
 14 33  1  0  0  0  0
 14 34  1  0  0  0  0
 15 35  1  0  0  0  0
 18 36  1  0  0  0  0
 19 37  1  0  0  0  0
 20 38  1  0  0  0  0
M  END
> <POSIT::Probability>
0.91

> <POSIT::Method>
SHAPEFIT

> <ReceptorTitle>
UCSF-P4640-REFINED_LIGAND-BOUND-STATE_A__DU__LA1_A-201(A)

> <OMEGA_C>
ehVCwu3Q5sEOjHlAi7RHwv4W58EkJ4FA4thGwmst6cFYDM9AjhIvwjN+6cF1tMRAuvk+wrbL58Ee
KqJAdi85whEG6ME/26dAZUJBwrLp6MHExspASRJKwq5O6MH4GKpAWTA4wgM46cFWhdNAWvQ0wkl2
58EUNIpAYewywvED9cGNtVM/zqIswlDQ38EFlxBAl8M3wugeA8L2Bqs+zbcywiLS6MEhxRY/QIcy
wlLv4cGwsfA/5h0zwpHr6cHHqOFAYegvwjFO6MFX5plAGxw9wv6l6cGzeuhAOPw1wl/s5sEgWzxA
7UU3wmqS+sFCtZ0+amUvwjmZ+cG6+bo/pKhRwp3b6MHioK9A3jpAwu7i5cFwjztA2zZKwjFe5sH5
VUpA+6hIwk0J6sGqOu5ADwIrwqYf6sH/I9BA8nkswqrv2sGLIUtADJcqwiV658HF0BtAWqQqwpCE
28FDKbg/to47wjRPBMKnwQy+vGc0wgjqBMLIa16+brI3wgiGBMISMbA/HR8vwp0I58GFMYa7MU02
wl6F5sFPZpw8IU40wjQk2sHWZtA/k5c9wjxg6sFeDgRBp202wnaJ7sG/BypA5zw6wuBZ9sEHNNu9

> <OMEGA_E>
QFHiPQ==

> <OMEGA_NBR>
     45691

$$$$
CACHE3HI_1715_94
  -OEChem-03092622543D

 45 48  0     1  0  0  0  0  0999 V2000
  -48.6580  -29.0665    3.9537 C   0  0  0  0  0  0  0  0  0  0  0  0
  -50.0643  -29.0686    4.1352 C   0  0  0  0  0  0  0  0  0  0  0  0
  -49.7845  -29.0142    6.5739 C   0  0  0  0  0  0  0  0  0  0  0  0
  -43.8518  -29.1776    6.1720 C   0  0  0  0  0  0  0  0  0  0  0  0
  -47.8493  -29.0550    5.1051 C   0  0  0  0  0  0  0  0  0  0  0  0
  -46.3926  -29.1107    5.2568 C   0  0  0  0  0  0  0  0  0  0  0  0
  -48.3939  -29.0145    6.3959 C   0  0  0  0  0  0  0  0  0  0  0  0
  -50.6226  -29.0540    5.4416 C   0  0  0  0  0  0  0  0  0  0  0  0
  -46.1279  -29.0497    6.6288 C   0  0  0  0  0  0  0  0  0  0  0  0
  -45.3250  -29.2419    4.3340 C   0  0  0  0  0  0  0  0  0  0  0  0
  -44.1036  -30.5184    1.2152 C   0  0  0  0  0  0  0  0  0  0  0  0
  -44.8865  -28.2343    0.7263 C   0  0  0  0  0  0  0  0  0  0  0  0
  -45.0225  -28.0355    2.2431 C   0  0  0  0  0  0  0  0  0  0  0  0
  -45.2268  -30.6262    2.2704 C   0  0  2  0  0  0  0  0  0  0  0  0
  -47.7462  -32.9388    0.3115 C   0  0  0  0  0  0  0  0  0  0  0  0
  -45.8628  -33.6069    1.8213 C   0  0  0  0  0  0  0  0  0  0  0  0
  -46.5300  -31.1313    1.5882 C   0  0  0  0  0  0  0  0  0  0  0  0
  -46.3790  -32.5063    0.8666 C   0  0  0  0  0  0  0  0  0  0  0  0
  -44.8593  -29.0757    7.0735 N   0  0  0  0  0  0  0  0  0  0  0  0
  -44.0630  -29.2742    4.8324 N   0  0  0  0  0  0  0  0  0  0  0  0
  -47.3428  -28.9930    7.3052 N   0  0  0  0  0  0  0  0  0  0  0  0
  -43.9921  -29.3620    0.4691 N   0  0  0  0  0  0  0  0  0  0  0  0
  -45.4680  -29.2872    2.9442 N   0  0  1  0  0  0  0  0  0  0  0  0
  -43.4184  -31.4915    0.9255 O   0  0  0  0  0  0  0  0  0  0  0  0
  -52.5134  -29.1124    5.6937 Br  0  0  0  0  0  0  0  0  0  0  0  0
  -48.2225  -29.0736    2.9655 H   0  0  0  0  0  0  0  0  0  0  0  0
  -50.7158  -29.0813    3.2740 H   0  0  0  0  0  0  0  0  0  0  0  0
  -50.2084  -28.9838    7.5667 H   0  0  0  0  0  0  0  0  0  0  0  0
  -42.8346  -29.1822    6.5347 H   0  0  0  0  0  0  0  0  0  0  0  0
  -45.8755  -28.4424    0.2921 H   0  0  0  0  0  0  0  0  0  0  0  0
  -44.4706  -27.3233    0.2714 H   0  0  0  0  0  0  0  0  0  0  0  0
  -44.0465  -27.7309    2.6489 H   0  0  0  0  0  0  0  0  0  0  0  0
  -45.7614  -27.2426    2.4311 H   0  0  0  0  0  0  0  0  0  0  0  0
  -44.9243  -31.3603    3.0318 H   0  0  0  0  0  0  0  0  0  0  0  0
  -48.1271  -32.1645   -0.3707 H   0  0  0  0  0  0  0  0  0  0  0  0
  -47.6365  -33.8871   -0.2351 H   0  0  0  0  0  0  0  0  0  0  0  0
  -48.4531  -33.0746    1.1432 H   0  0  0  0  0  0  0  0  0  0  0  0
  -44.8840  -33.3116    2.2271 H   0  0  0  0  0  0  0  0  0  0  0  0
  -46.5770  -33.7402    2.6472 H   0  0  0  0  0  0  0  0  0  0  0  0
  -45.7603  -34.5527    1.2690 H   0  0  0  0  0  0  0  0  0  0  0  0
  -47.3081  -31.2295    2.3595 H   0  0  0  0  0  0  0  0  0  0  0  0
  -46.8431  -30.3834    0.8447 H   0  0  0  0  0  0  0  0  0  0  0  0
  -45.6706  -32.3939    0.0326 H   0  0  0  0  0  0  0  0  0  0  0  0
  -47.4446  -28.9440    8.2988 H   0  0  0  0  0  0  0  0  0  0  0  0
  -43.2985  -29.2956   -0.2482 H   0  0  0  0  0  0  0  0  0  0  0  0
  1  2  2  0  0  0  0
  1  5  1  0  0  0  0
  2  8  1  0  0  0  0
  3  7  1  0  0  0  0
  3  8  2  0  0  0  0
  4 19  2  0  0  0  0
  4 20  1  0  0  0  0
  5  6  1  0  0  0  0
  5  7  2  0  0  0  0
  6  9  2  0  0  0  0
  6 10  1  0  0  0  0
  7 21  1  0  0  0  0
  8 25  1  0  0  0  0
  9 19  1  0  0  0  0
  9 21  1  0  0  0  0
 10 20  2  0  0  0  0
 10 23  1  0  0  0  0
 11 14  1  0  0  0  0
 11 22  1  0  0  0  0
 11 24  2  0  0  0  0
 12 13  1  0  0  0  0
 12 22  1  0  0  0  0
 13 23  1  0  0  0  0
 14 17  1  0  0  0  0
 14 23  1  0  0  0  0
 15 18  1  0  0  0  0
 16 18  1  0  0  0  0
 17 18  1  0  0  0  0
  1 26  1  0  0  0  0
  2 27  1  0  0  0  0
  3 28  1  0  0  0  0
  4 29  1  0  0  0  0
 12 30  1  0  0  0  0
 12 31  1  0  0  0  0
 13 32  1  0  0  0  0
 13 33  1  0  0  0  0
 14 34  1  0  0  0  0
 15 35  1  0  0  0  0
 15 36  1  0  0  0  0
 15 37  1  0  0  0  0
 16 38  1  0  0  0  0
 16 39  1  0  0  0  0
 16 40  1  0  0  0  0
 17 41  1  0  0  0  0
 17 42  1  0  0  0  0
 18 43  1  0  0  0  0
 21 44  1  0  0  0  0
 22 45  1  0  0  0  0
M  END
> <POSIT::Probability>
0.79

> <POSIT::Method>
SHAPEFIT

> <ReceptorTitle>
UCSF-P4640-REFINED_LIGAND-BOUND-STATE_A__DU__LA1_A-201(A)

> <OMEGA_C>
0aFCwjaI6MESCn1A0kFIwmuM6MGPU4RAXyNHwhsd6MErXdJAQmgvwqtr6cG1gMVAq2U/wo9w6ME5
XaNAB5I5wrPi6MFlN6hAVJNBwsMd6MFDq8xAkX1Kwq5u6MHNIa5A9oI4wstl6MFtH9RAw0w1wnTv
6cF7sIpAE2owwrEl9ME8ips/yoszwu7f4cEw7zk/EBc0wrtI4MF+jg9APug0wnEC9cGsThFAEPw+
wlfBA8JgeZ8+h3M3woRtBsIMIOk/xB46wucM+cHYScs/HYQ5wmoGAsI4110/728zwgWb6MHdWeJA
iUAwwn0x6sE9o5pAC189wqHx58FhxOlA4/cvwlfl6sEQLfA+Pd81wkRM6sF6bjxAe6wtwoju+8HI
8Gw/tg1Swknm6MFpMrZA1uNAwquW6MFZyj1AAd1Kwmym6MGhiFFAbtVIwtXe58HKIvJAllYrwip1
6cEfHNFAjYA3wv6J48Gzi5U+5uExwhCW2sEJ8Io+py8wwvLY3cFRhylArgs3wt7w2cEflxtAhbIz
wtDh+sGyCEJALIJAwnyoAMK9zL2+vYs+wmSMB8IRtnC+AdBBwmdMBMLjU5I/Pokzwgs/BcJYiQ5A
1046wvz1BsJnbClAkwo3wvg1CsIpbqI/hDs9wg7W+cFlAhdAT187wkYR88FXQVg/rK42wk6TAcI9
kwU9Ssc9wjmN58H1xwRBsTEtwlVd6sHFNH6+

> <OMEGA_E>
5F8ePw==

> <OMEGA_NBR>
     47121

$$$$
CACHE3HI_1716_27
  -OEChem-03092622543D

 35 37  0     0  0  0  0  0  0999 V2000
  -43.9515  -32.4525    0.3124 C   0  0  0  0  0  0  0  0  0  0  0  0
  -45.2422  -32.5764    0.8743 C   0  0  0  0  0  0  0  0  0  0  0  0
  -45.3708  -30.2304    1.7465 C   0  0  0  0  0  0  0  0  0  0  0  0
  -44.1040  -30.1406    1.1847 C   0  0  0  0  0  0  0  0  0  0  0  0
  -43.3819  -31.1777    0.4874 C   0  0  0  0  0  0  0  0  0  0  0  0
  -45.9157  -31.5150    1.5571 C   0  0  0  0  0  0  0  0  0  0  0  0
  -43.3052  -29.0332    1.1937 C   0  0  0  0  0  0  0  0  0  0  0  0
  -46.2378  -28.6486    4.5657 C   0  0  0  0  0  0  0  0  0  0  0  0
  -47.5633  -28.7458    4.6967 C   0  0  0  0  0  0  0  0  0  0  0  0
  -48.1639  -28.8044    6.0495 C   0  0  0  0  0  0  0  0  0  0  0  0
  -45.8462  -28.6461    6.9648 C   0  0  0  0  0  0  0  0  0  0  0  0
  -43.6461  -28.8043    3.9509 C   0  0  0  0  0  0  0  0  0  0  0  0
  -43.4628  -27.6742    1.7384 C   0  0  0  0  0  0  0  0  0  0  0  0
  -43.9433  -28.4913    5.4018 C   0  0  0  0  0  0  0  0  0  0  0  0
  -42.1890  -30.6953    0.0955 N   0  0  0  0  0  0  0  0  0  0  0  0
  -42.1766  -29.4202    0.5313 N   0  0  0  0  0  0  0  0  0  0  0  0
  -47.2382  -28.7484    7.0828 N   0  0  0  0  0  0  0  0  0  0  0  0
  -45.3526  -28.5960    5.6389 N   0  0  0  0  0  0  0  0  0  0  0  0
  -43.6717  -27.6585    3.1710 N   0  0  0  0  0  0  0  0  0  0  0  0
  -49.3752  -28.8946    6.2257 O   0  0  0  0  0  0  0  0  0  0  0  0
  -45.1246  -28.6045    7.9634 O   0  0  0  0  0  0  0  0  0  0  0  0
  -43.4484  -29.9427    3.5337 O   0  0  0  0  0  0  0  0  0  0  0  0
  -47.4971  -31.8287    2.1889 Cl  0  0  0  0  0  0  0  0  0  0  0  0
  -48.6105  -28.8066    3.3377 Cl  0  0  0  0  0  0  0  0  0  0  0  0
  -43.4583  -33.2675   -0.2004 H   0  0  0  0  0  0  0  0  0  0  0  0
  -45.7421  -33.5404    0.7749 H   0  0  0  0  0  0  0  0  0  0  0  0
  -45.8847  -29.4291    2.2601 H   0  0  0  0  0  0  0  0  0  0  0  0
  -45.7693  -28.6043    3.5872 H   0  0  0  0  0  0  0  0  0  0  0  0
  -42.5768  -27.0427    1.5416 H   0  0  0  0  0  0  0  0  0  0  0  0
  -44.3201  -27.1372    1.2916 H   0  0  0  0  0  0  0  0  0  0  0  0
  -43.4347  -29.1988    6.0628 H   0  0  0  0  0  0  0  0  0  0  0  0
  -43.6253  -27.4710    5.6323 H   0  0  0  0  0  0  0  0  0  0  0  0
  -41.3531  -28.8640    0.3387 H   0  0  0  0  0  0  0  0  0  0  0  0
  -47.6111  -28.7857    8.0274 H   0  0  0  0  0  0  0  0  0  0  0  0
  -43.8449  -26.7676    3.6251 H   0  0  0  0  0  0  0  0  0  0  0  0
  1  2  2  0  0  0  0
  1  5  1  0  0  0  0
  2  6  1  0  0  0  0
  3  4  1  0  0  0  0
  3  6  2  0  0  0  0
  4  5  1  0  0  0  0
  4  7  2  0  0  0  0
  5 15  2  0  0  0  0
  6 23  1  0  0  0  0
  7 13  1  0  0  0  0
  7 16  1  0  0  0  0
  8  9  2  0  0  0  0
  8 18  1  0  0  0  0
  9 10  1  0  0  0  0
  9 24  1  0  0  0  0
 10 17  1  0  0  0  0
 10 20  2  0  0  0  0
 11 17  1  0  0  0  0
 11 18  1  0  0  0  0
 11 21  2  0  0  0  0
 12 14  1  0  0  0  0
 12 19  1  0  0  0  0
 12 22  2  0  0  0  0
 13 19  1  0  0  0  0
 14 18  1  0  0  0  0
 15 16  1  0  0  0  0
  1 25  1  0  0  0  0
  2 26  1  0  0  0  0
  3 27  1  0  0  0  0
  8 28  1  0  0  0  0
 13 29  1  0  0  0  0
 13 30  1  0  0  0  0
 14 31  1  0  0  0  0
 14 32  1  0  0  0  0
 16 33  1  0  0  0  0
 17 34  1  0  0  0  0
 19 35  1  0  0  0  0
M  END
> <POSIT::Probability>
0.19

> <POSIT::Method>
FRED

> <ReceptorTitle>
UCSF-P4640-REFINED_LIGAND-BOUND-STATE_A__DU__LA1_A-201(A)

> <OMEGA_C>
XM4vwlPPAcIQ8p8+C/g0wkROAsKwz18/vHs1wtHX8cHYjN8/jGowwtwf8cFMpZc/GYctwuZr+cGg
kvk+rqk3wqce/MHoTsc/jTgtwuxD6MFwy5g/iPM4wj4w5cHYGZJAykA+wk735cE5S5ZAzadAwnxv
5sFylcFAgmI3wi8r5cG1395Ao5UuwiZv5sEg3HxA8dktwsFk3cFshN4//MUvwhzu48FE26xAhcEo
wvCP9cHAhsM9z7QowqRc68HAAAg/3vM8wsD85cEMpuJAA2k1wpHE5MH9cbRA268uwolE3cFY8UpA
NYBFwi4o58EvOcdAi380wgLW5MGB1P5AM8stwqmK78G+KGJAAP09wh+h/sGwFwxALHFCwvxz5sEw
nVVAQNUtwuQRBcJAN02+9fc2wmgpBsJ4X0Y/5Ik3wrhu68HMpBBAwxM3wpbV5MHelGVAoE4qwnRX
2MHEU8U/wUcxwg4Z2cHUUaU/Jb0twhaX6cF1AsJAToAuwqzE28H8O7RAjmklwm3p5sHAbq0+vHE+
wiRJ5sFTcABBJWEvwiMk1sFyAWhA

> <OMEGA_E>
6NMpwQ==

> <OMEGA_NBR>
     48316

$$$$
CACHE3HI_1717_57
  -OEChem-03092622543D

 39 40  0     1  0  0  0  0  0999 V2000
  -47.8403  -28.5475    4.9394 C   0  0  0  0  0  0  0  0  0  0  0  0
  -44.2366  -29.5218    6.4071 C   0  0  0  0  0  0  0  0  0  0  0  0
  -46.4994  -28.9179    5.1548 C   0  0  0  0  0  0  0  0  0  0  0  0
  -46.3650  -28.9233    6.5318 C   0  0  0  0  0  0  0  0  0  0  0  0
  -45.3741  -29.2500    4.4083 C   0  0  0  0  0  0  0  0  0  0  0  0
  -44.8736  -32.6460    1.3538 C   0  0  0  0  0  0  0  0  0  0  0  0
  -43.4032  -26.2934    1.6578 C   0  0  0  0  0  0  0  0  0  0  0  0
  -42.7012  -28.6628    2.0668 C   0  0  0  0  0  0  0  0  0  0  0  0
  -45.6412  -33.3832   -0.7600 C   0  0  0  0  0  0  0  0  0  0  0  0
  -44.5688  -31.3875    2.1377 C   0  0  0  0  0  0  0  0  0  0  0  0
  -45.7766  -30.4666    2.2831 C   0  0  0  0  0  0  0  0  0  0  0  0
  -45.1278  -28.0531    2.2483 C   0  0  0  0  0  0  0  0  0  0  0  0
  -43.6906  -27.5649    2.4589 C   0  0  0  0  0  0  0  0  0  0  0  0
  -48.5066  -28.3349    6.0800 N   0  0  0  0  0  0  0  0  0  0  0  0
  -45.2592  -29.2161    7.2346 N   0  0  0  0  0  0  0  0  0  0  0  0
  -44.2230  -29.5575    5.0528 N   0  0  0  0  0  0  0  0  0  0  0  0
  -47.5837  -28.5712    7.0303 N   0  0  0  0  0  0  0  0  0  0  0  0
  -45.4200  -29.2696    3.0079 N   0  0  3  0  0  0  0  0  0  0  0  0
  -44.7655  -33.7875    1.7789 O   0  0  0  0  0  0  0  0  0  0  0  0
  -45.2992  -32.2949    0.1039 O   0  0  0  0  0  0  0  0  0  0  0  0
  -48.3641  -28.4230    4.0023 H   0  0  0  0  0  0  0  0  0  0  0  0
  -43.2986  -29.7723    6.8910 H   0  0  0  0  0  0  0  0  0  0  0  0
  -43.5372  -26.4728    0.5854 H   0  0  0  0  0  0  0  0  0  0  0  0
  -44.0743  -25.4788    1.9502 H   0  0  0  0  0  0  0  0  0  0  0  0
  -42.3725  -25.9542    1.8074 H   0  0  0  0  0  0  0  0  0  0  0  0
  -42.8100  -28.9256    1.0098 H   0  0  0  0  0  0  0  0  0  0  0  0
  -41.6696  -28.3301    2.2226 H   0  0  0  0  0  0  0  0  0  0  0  0
  -42.8582  -29.5703    2.6599 H   0  0  0  0  0  0  0  0  0  0  0  0
  -45.9665  -32.9933   -1.7280 H   0  0  0  0  0  0  0  0  0  0  0  0
  -44.7611  -34.0152   -0.9015 H   0  0  0  0  0  0  0  0  0  0  0  0
  -46.4407  -33.9729   -0.3056 H   0  0  0  0  0  0  0  0  0  0  0  0
  -43.7763  -30.8523    1.6015 H   0  0  0  0  0  0  0  0  0  0  0  0
  -44.1953  -31.6758    3.1264 H   0  0  0  0  0  0  0  0  0  0  0  0
  -46.5949  -30.9757    2.8044 H   0  0  0  0  0  0  0  0  0  0  0  0
  -46.1408  -30.1800    1.2923 H   0  0  0  0  0  0  0  0  0  0  0  0
  -45.8566  -27.2925    2.5477 H   0  0  0  0  0  0  0  0  0  0  0  0
  -45.3035  -28.2931    1.1944 H   0  0  0  0  0  0  0  0  0  0  0  0
  -43.5438  -27.3367    3.5226 H   0  0  0  0  0  0  0  0  0  0  0  0
  -47.8555  -28.4723    8.0004 H   0  0  0  0  0  0  0  0  0  0  0  0
  1  3  1  0  0  0  0
  1 14  2  0  0  0  0
  2 15  2  0  0  0  0
  2 16  1  0  0  0  0
  3  4  2  0  0  0  0
  3  5  1  0  0  0  0
  4 15  1  0  0  0  0
  4 17  1  0  0  0  0
  5 16  2  0  0  0  0
  5 18  1  0  0  0  0
  6 10  1  0  0  0  0
  6 19  2  0  0  0  0
  6 20  1  0  0  0  0
  7 13  1  0  0  0  0
  8 13  1  0  0  0  0
  9 20  1  0  0  0  0
 10 11  1  0  0  0  0
 11 18  1  0  0  0  0
 12 13  1  0  0  0  0
 12 18  1  0  0  0  0
 14 17  1  0  0  0  0
  1 21  1  0  0  0  0
  2 22  1  0  0  0  0
  7 23  1  0  0  0  0
  7 24  1  0  0  0  0
  7 25  1  0  0  0  0
  8 26  1  0  0  0  0
  8 27  1  0  0  0  0
  8 28  1  0  0  0  0
  9 29  1  0  0  0  0
  9 30  1  0  0  0  0
  9 31  1  0  0  0  0
 10 32  1  0  0  0  0
 10 33  1  0  0  0  0
 11 34  1  0  0  0  0
 11 35  1  0  0  0  0
 12 36  1  0  0  0  0
 12 37  1  0  0  0  0
 13 38  1  0  0  0  0
 17 39  1  0  0  0  0
M  END
> <POSIT::Probability>
0.33

> <POSIT::Method>
HYBRID

> <ReceptorTitle>
UCSF-P4640-REFINED_LIGAND-BOUND-STATE_A__DU__LA1_A-201(A)

> <OMEGA_C>
bFw/wlJh5MFLD55APvIwwqks7MHvBs1AZ/85wt1X58HB86RAuHU5wt9i58GDBNFAH381whgA6sGg
EI1AjX4zwneVAsIWSK0/6ZwtwttY0sGMMtQ/Bc4qwlpN5cEERwRAkJA2wnKIBcJkkkK/bEYywocZ
+8GMzwhARBs3wqi788EOHxJA2oI0wrRs4MHQ4w9ANcMuwv6E3MHkXR1AxgZCwtut4sHAj8JAbwk1
wqy66cGPgedAYuQwwtx17ME3sKFAtFU+wryR5MGd+OBACa41wg8o6sHggUBA6w8zwl0mB8L6seM/
VzI1wvEtAcJg4tQ9znRBwjpi48E/E4BA0DEtwp0t7sFqg9xAIyYuwjLI08Hs2hU/EkwwwobUy8Eo
ofk/cn0pwkyiz8FgWOc/fD0rwptn58EIQoE/tK0mwhek4sHYPg5A2W4rwuOP7MF+OypAut03wiT5
A8IYL92/YAszwpgPCMIqxma/RMM5wjbkB8J4d5y+4xovwpfR9sEO/8w/9scwwhto/cGYF0hAOmE6
wjjO98HKejNAM5A4wqhw8cGYaKU/Hm03whpX2sEWDSNA1DY1wlhY4sFy45g/3ywuwnax2sFYcmFA
C2w/wk3H48HOAQBB

> <OMEGA_E>
Fvo7wQ==

> <OMEGA_NBR>
     49591

$$$$
CACHE3HI_1718_95
  -OEChem-03092622543D

 38 40  0     1  0  0  0  0  0999 V2000
  -48.5980  -28.9297    3.9362 C   0  0  0  0  0  0  0  0  0  0  0  0
  -50.0052  -28.9401    4.0992 C   0  0  0  0  0  0  0  0  0  0  0  0
  -49.7519  -29.1068    6.5368 C   0  0  0  0  0  0  0  0  0  0  0  0
  -43.8044  -29.1263    6.1735 C   0  0  0  0  0  0  0  0  0  0  0  0
  -47.7996  -29.0130    5.0957 C   0  0  0  0  0  0  0  0  0  0  0  0
  -46.3433  -29.0267    5.2634 C   0  0  0  0  0  0  0  0  0  0  0  0
  -48.3565  -29.0991    6.3774 C   0  0  0  0  0  0  0  0  0  0  0  0
  -50.5783  -29.0274    5.3951 C   0  0  0  0  0  0  0  0  0  0  0  0
  -46.0856  -29.1219    6.6328 C   0  0  0  0  0  0  0  0  0  0  0  0
  -45.2802  -28.9941    4.3377 C   0  0  0  0  0  0  0  0  0  0  0  0
  -44.3581  -27.1872    0.7496 C   0  0  0  0  0  0  0  0  0  0  0  0
  -44.7010  -28.6831    0.6212 C   0  0  0  0  0  0  0  0  0  0  0  0
  -44.5020  -29.4255    1.9712 C   0  0  2  0  0  0  0  0  0  0  0  0
  -44.5975  -30.9877    1.8587 C   0  0  1  0  0  0  0  0  0  0  0  0
  -45.9223  -31.5404    1.2379 C   0  0  0  0  0  0  0  0  0  0  0  0
  -44.8160  -29.1684    7.0789 N   0  0  0  0  0  0  0  0  0  0  0  0
  -44.0132  -29.0463    4.8289 N   0  0  0  0  0  0  0  0  0  0  0  0
  -47.3100  -29.1621    7.2967 N   0  0  0  0  0  0  0  0  0  0  0  0
  -45.5026  -28.9317    2.9614 N   0  0  0  0  0  0  0  0  0  0  0  0
  -43.4885  -31.4631    1.0914 O   0  0  0  0  0  0  0  0  0  0  0  0
  -47.0056  -31.1545    1.9633 F   0  0  0  0  0  0  0  0  0  0  0  0
  -45.8794  -32.8993    1.2420 F   0  0  0  0  0  0  0  0  0  0  0  0
  -46.0825  -31.1425   -0.0520 F   0  0  0  0  0  0  0  0  0  0  0  0
  -52.4757  -29.0327    5.6138 Br  0  0  0  0  0  0  0  0  0  0  0  0
  -48.1510  -28.8602    2.9555 H   0  0  0  0  0  0  0  0  0  0  0  0
  -50.6462  -28.8813    3.2320 H   0  0  0  0  0  0  0  0  0  0  0  0
  -50.1880  -29.1729    7.5226 H   0  0  0  0  0  0  0  0  0  0  0  0
  -42.7874  -29.1575    6.5358 H   0  0  0  0  0  0  0  0  0  0  0  0
  -44.5090  -26.6913   -0.2207 H   0  0  0  0  0  0  0  0  0  0  0  0
  -45.0123  -26.7245    1.5033 H   0  0  0  0  0  0  0  0  0  0  0  0
  -43.3081  -27.0770    1.0582 H   0  0  0  0  0  0  0  0  0  0  0  0
  -45.7505  -28.7845    0.3078 H   0  0  0  0  0  0  0  0  0  0  0  0
  -44.0463  -29.1370   -0.1373 H   0  0  0  0  0  0  0  0  0  0  0  0
  -43.4955  -29.1812    2.3419 H   0  0  0  0  0  0  0  0  0  0  0  0
  -44.5232  -31.3915    2.8792 H   0  0  0  0  0  0  0  0  0  0  0  0
  -47.4219  -29.2268    8.2883 H   0  0  0  0  0  0  0  0  0  0  0  0
  -46.3421  -29.4477    2.7908 H   0  0  0  0  0  0  0  0  0  0  0  0
  -43.5366  -32.4090    1.0170 H   0  0  0  0  0  0  0  0  0  0  0  0
  1  2  2  0  0  0  0
  1  5  1  0  0  0  0
  2  8  1  0  0  0  0
  3  7  1  0  0  0  0
  3  8  2  0  0  0  0
  4 16  2  0  0  0  0
  4 17  1  0  0  0  0
  5  6  1  0  0  0  0
  5  7  2  0  0  0  0
  6  9  2  0  0  0  0
  6 10  1  0  0  0  0
  7 18  1  0  0  0  0
  8 24  1  0  0  0  0
  9 16  1  0  0  0  0
  9 18  1  0  0  0  0
 10 17  2  0  0  0  0
 10 19  1  0  0  0  0
 11 12  1  0  0  0  0
 12 13  1  0  0  0  0
 13 14  1  0  0  0  0
 13 19  1  0  0  0  0
 14 15  1  0  0  0  0
 14 20  1  0  0  0  0
 15 21  1  0  0  0  0
 15 22  1  0  0  0  0
 15 23  1  0  0  0  0
  1 25  1  0  0  0  0
  2 26  1  0  0  0  0
  3 27  1  0  0  0  0
  4 28  1  0  0  0  0
 11 29  1  0  0  0  0
 11 30  1  0  0  0  0
 11 31  1  0  0  0  0
 12 32  1  0  0  0  0
 12 33  1  0  0  0  0
 13 34  1  0  0  0  0
 14 35  1  0  0  0  0
 18 36  1  0  0  0  0
 19 37  1  0  0  0  0
 20 38  1  0  0  0  0
M  END
> <POSIT::Probability>
0.83

> <POSIT::Method>
SHAPEFIT

> <ReceptorTitle>
UCSF-P4640-REFINED_LIGAND-BOUND-STATE_A__DU__LA1_A-201(A)

> <OMEGA_C>
X2RCwgVw58H66ntAXQVIwleF58HhLINA5QFHwsTa6MG5LdFAszcvwpEC6cGFjcVAyzI/wrUa6MH9
D6NAiF85wqE26MEpbqhAAm1BwuzK6MGrE8xALVBKwgo46MHkpKxArFc4wq756MGaP9RA7B41wvDz
58FfzopAu24xwlF/2cE/4z8/280ywu925cEfCB8/CQIywldn68EaUPw/02MywuHm98GC6e0/ebA3
wtZS/MEwcp4/nEMzwt1Y6cE6huJAhA0wwuZe6MGthppAcj09wgJM6cHafulArQI2wiV058Hhhz1A
QfQtwna0+8GksYs/xQU8wmw8+cEQTfs/e4Q3wuCYA8JY+Z4/dlQ4wu8j+cEsylS9EudRwg9D6MFD
pLNAqZpAwqHh5sE0Jz1AvpVKwt4M58FE2U5AjMBIwgli6cFOufBAWCYrwplC6cE6JdFANQkywtKH
1cEl+2G+lAw0wtbL1cGyasA/eDstwqqd2MHJcYc/jwA3wrpG5sHqmJ0+ci8wwo4Y6cF3lQy+cPst
whtz6cFf4RVAyRcywrQh+8E4RThADrA9wmrQ6cERnQRBRl45ws+U68H3mzJAeCUuwsuiAcKpK4I/

> <OMEGA_E>
6I7fPg==

> <OMEGA_NBR>
     50878

$$$$
CACHE3-HO_1696_14
  -OEChem-03092622523D

 44 47  0     1  0  0  0  0  0999 V2000
  -47.9197  -29.5956    4.4841 C   0  0  0  0  0  0  0  0  0  0  0  0
  -45.8046  -35.6360   -1.5767 C   0  0  0  0  0  0  0  0  0  0  0  0
  -43.9432  -29.2743    5.6388 C   0  0  0  0  0  0  0  0  0  0  0  0
  -46.4686  -29.5506    4.6762 C   0  0  0  0  0  0  0  0  0  0  0  0
  -47.0682  -36.1601   -2.1509 C   0  0  0  0  0  0  0  0  0  0  0  0
  -46.1413  -34.6520   -0.6774 C   0  0  0  0  0  0  0  0  0  0  0  0
  -48.4907  -29.4484    5.7264 C   0  0  0  0  0  0  0  0  0  0  0  0
  -46.2374  -29.3718    6.0400 C   0  0  0  0  0  0  0  0  0  0  0  0
  -45.3675  -29.5759    3.8030 C   0  0  0  0  0  0  0  0  0  0  0  0
  -48.1107  -35.4546   -1.5935 C   0  0  0  0  0  0  0  0  0  0  0  0
  -45.2910  -33.8734    0.2163 C   0  0  0  0  0  0  0  0  0  0  0  0
  -45.0517  -29.6903    0.0663 C   0  0  0  0  0  0  0  0  0  0  0  0
  -46.3610  -30.4190    0.3521 C   0  0  0  0  0  0  0  0  0  0  0  0
  -44.6147  -29.1256    1.4273 C   0  0  0  0  0  0  0  0  0  0  0  0
  -46.2192  -30.8604    1.8123 C   0  0  1  0  0  0  0  0  0  0  0  0
  -49.9648  -29.4086    6.0405 C   0  0  0  0  0  0  0  0  0  0  0  0
  -45.3269  -32.1099    2.0000 C   0  0  0  0  0  0  0  0  0  0  0  0
  -44.9809  -29.2433    6.5128 N   0  0  0  0  0  0  0  0  0  0  0  0
  -44.1178  -29.4246    4.3016 N   0  0  0  0  0  0  0  0  0  0  0  0
  -47.5140  -34.5723   -0.7305 N   0  0  0  0  0  0  0  0  0  0  0  0
  -47.4711  -29.3261    6.6667 N   0  0  0  0  0  0  0  0  0  0  0  0
  -45.5581  -29.6941    2.4335 N   0  0  1  0  0  0  0  0  0  0  0  0
  -45.9185  -33.2102    1.2566 N   0  0  0  0  0  0  0  0  0  0  0  0
  -44.0841  -33.7830    0.0176 O   0  0  0  0  0  0  0  0  0  0  0  0
  -47.2072  -37.4700   -3.2969 Cl  0  0  0  0  0  0  0  0  0  0  0  0
  -49.8242  -35.6498   -1.8730 Cl  0  0  0  0  0  0  0  0  0  0  0  0
  -48.4413  -29.7204    3.5467 H   0  0  0  0  0  0  0  0  0  0  0  0
  -44.8056  -35.9662   -1.8200 H   0  0  0  0  0  0  0  0  0  0  0  0
  -42.9387  -29.1753    6.0228 H   0  0  0  0  0  0  0  0  0  0  0  0
  -44.2966  -30.3881   -0.3247 H   0  0  0  0  0  0  0  0  0  0  0  0
  -45.2100  -28.8778   -0.6581 H   0  0  0  0  0  0  0  0  0  0  0  0
  -47.2207  -29.7442    0.2280 H   0  0  0  0  0  0  0  0  0  0  0  0
  -46.4788  -31.2887   -0.3109 H   0  0  0  0  0  0  0  0  0  0  0  0
  -43.5833  -29.4329    1.6547 H   0  0  0  0  0  0  0  0  0  0  0  0
  -44.6776  -28.0274    1.4229 H   0  0  0  0  0  0  0  0  0  0  0  0
  -47.2107  -31.0348    2.2555 H   0  0  0  0  0  0  0  0  0  0  0  0
  -50.3245  -30.4279    6.2443 H   0  0  0  0  0  0  0  0  0  0  0  0
  -50.1342  -28.7765    6.9246 H   0  0  0  0  0  0  0  0  0  0  0  0
  -50.5114  -28.9919    5.1817 H   0  0  0  0  0  0  0  0  0  0  0  0
  -44.3155  -31.9051    1.6190 H   0  0  0  0  0  0  0  0  0  0  0  0
  -45.2710  -32.3699    3.0673 H   0  0  0  0  0  0  0  0  0  0  0  0
  -48.0367  -33.9203   -0.1812 H   0  0  0  0  0  0  0  0  0  0  0  0
  -47.6098  -29.2205    7.6514 H   0  0  0  0  0  0  0  0  0  0  0  0
  -46.8382  -33.5072    1.5134 H   0  0  0  0  0  0  0  0  0  0  0  0
  1  4  1  0  0  0  0
  1  7  2  0  0  0  0
  2  5  1  0  0  0  0
  2  6  2  0  0  0  0
  3 18  1  0  0  0  0
  3 19  2  0  0  0  0
  4  8  1  0  0  0  0
  4  9  2  0  0  0  0
  5 10  2  0  0  0  0
  5 25  1  0  0  0  0
  6 11  1  0  0  0  0
  6 20  1  0  0  0  0
  7 16  1  0  0  0  0
  7 21  1  0  0  0  0
  8 18  2  0  0  0  0
  8 21  1  0  0  0  0
  9 19  1  0  0  0  0
  9 22  1  0  0  0  0
 10 20  1  0  0  0  0
 10 26  1  0  0  0  0
 11 23  1  0  0  0  0
 11 24  2  0  0  0  0
 12 13  1  0  0  0  0
 12 14  1  0  0  0  0
 13 15  1  0  0  0  0
 14 22  1  0  0  0  0
 15 17  1  0  0  0  0
 15 22  1  0  0  0  0
 17 23  1  0  0  0  0
  1 27  1  0  0  0  0
  2 28  1  0  0  0  0
  3 29  1  0  0  0  0
 12 30  1  0  0  0  0
 12 31  1  0  0  0  0
 13 32  1  0  0  0  0
 13 33  1  0  0  0  0
 14 34  1  0  0  0  0
 14 35  1  0  0  0  0
 15 36  1  0  0  0  0
 16 37  1  0  0  0  0
 16 38  1  0  0  0  0
 16 39  1  0  0  0  0
 17 40  1  0  0  0  0
 17 41  1  0  0  0  0
 20 42  1  0  0  0  0
 21 43  1  0  0  0  0
 23 44  1  0  0  0  0
M  END
> <POSIT::Probability>
0.25

> <POSIT::Method>
SHAPEFIT

> <ReceptorTitle>
UCSF-P4643-REFINED_LIGAND-BOUND-STATE_AALTB__DU__LA1_A-201(A)

> <OMEGA_C>
wq0/wsjD7MEafo9A9jc3wkGLDsJN0Mm/3sUvwrIx6sFHcbRA5N85wqJn7MFvo5VA4EU8wuejEMKo
pwnAuJA4wqibCsK+ai2/cvZBwmmW68FEPrdAJPM4woP56sGSR8FAUHg1wl6b7MFmZHNAYHFAwoHR
DcIh98u/9Ck1wlR+B8L4cV0+5jQ0wrOF7cEwvoc9onE5whxa88HMTLQ+cnUywiMB6cEMsbY/duA4
wg/i9sFV+uc/+ttHwslE68F6S8FAxE41woNwAMIv//8/fuwzwljy6cEeadBApngwwo5l68GepolA
YA4+whJKCsLeATu/cuI9ws2b6sFMVdVAgjs2woSN7cGKvhtAjqw3wkPXBMJu16A/JlYwwswhB8LA
d5A8MtQ8wk7hFcKk/1LABExHwmOZDsKJve+/4MNBwmXD7cGB/WJA5zgzwmXdD8Ke9Oi/LsErwg9n
6cHQusBAti8xwuwa88EuP6a+C9c0wrgF58HWeyi/CeI8whL07cFceGk+P+o5wlhP+sFeMp++RFUu
wn9268GazdM/1LUywgo44ME8ILY/ydc8wktH+MHkWhBATkxJwmxs88EY0cdAc4lIwkE25sGalt1A
uQtKwl7v58Ea0KVAGUMxwpg9/8FrO88/gRU1wsJ6AcJPT0RAkCVAwmauB8KPkTm+b3A+wpbD6cHv
1/RAVVo7wlsHBsKstsE/

> <OMEGA_E>
6MVsPw==

> <OMEGA_NBR>
      1422

$$$$
CACHE3-HO_1715_6
  -OEChem-03092622523D

 39 41  0     1  0  0  0  0  0999 V2000
  -47.9634  -30.0302    4.8402 C   0  0  0  0  0  0  0  0  0  0  0  0
  -43.9830  -29.1211    5.5874 C   0  0  0  0  0  0  0  0  0  0  0  0
  -46.5213  -29.7874    4.8971 C   0  0  0  0  0  0  0  0  0  0  0  0
  -48.4924  -29.5721    6.0249 C   0  0  0  0  0  0  0  0  0  0  0  0
  -46.2487  -29.1926    6.1292 C   0  0  0  0  0  0  0  0  0  0  0  0
  -45.4582  -30.0446    4.0174 C   0  0  0  0  0  0  0  0  0  0  0  0
  -48.1103  -31.1779    0.9743 C   0  0  0  0  0  0  0  0  0  0  0  0
  -47.8608  -32.6545    1.3198 C   0  0  0  0  0  0  0  0  0  0  0  0
  -46.7689  -31.2098    0.2229 C   0  0  0  0  0  0  0  0  0  0  0  0
  -46.3302  -32.4191    1.1427 C   0  0  0  0  0  0  0  0  0  0  0  0
  -49.9437  -29.6104    6.4386 C   0  0  0  0  0  0  0  0  0  0  0  0
  -44.0829  -32.4024    2.4346 C   0  0  0  0  0  0  0  0  0  0  0  0
  -45.8016  -33.6521   -0.9591 C   0  0  0  0  0  0  0  0  0  0  0  0
  -45.5890  -32.0283    2.4867 C   0  0  1  0  0  0  0  0  0  0  0  0
  -44.9858  -28.8604    6.4665 N   0  0  0  0  0  0  0  0  0  0  0  0
  -44.1975  -29.7057    4.3772 N   0  0  0  0  0  0  0  0  0  0  0  0
  -47.4531  -29.0632    6.8014 N   0  0  0  0  0  0  0  0  0  0  0  0
  -45.7293  -30.5734    2.7660 N   0  0  0  0  0  0  0  0  0  0  0  0
  -45.6548  -33.5365    0.4744 O   0  0  0  0  0  0  0  0  0  0  0  0
  -48.5080  -30.4824    4.0245 H   0  0  0  0  0  0  0  0  0  0  0  0
  -42.9731  -28.8531    5.8605 H   0  0  0  0  0  0  0  0  0  0  0  0
  -48.9897  -30.9958    0.3391 H   0  0  0  0  0  0  0  0  0  0  0  0
  -48.1370  -30.5004    1.8404 H   0  0  0  0  0  0  0  0  0  0  0  0
  -48.1593  -32.9361    2.3404 H   0  0  0  0  0  0  0  0  0  0  0  0
  -48.2944  -33.3659    0.6015 H   0  0  0  0  0  0  0  0  0  0  0  0
  -46.8518  -31.4577   -0.8456 H   0  0  0  0  0  0  0  0  0  0  0  0
  -46.1587  -30.3025    0.3426 H   0  0  0  0  0  0  0  0  0  0  0  0
  -50.1514  -30.5550    6.9625 H   0  0  0  0  0  0  0  0  0  0  0  0
  -50.1560  -28.7648    7.1094 H   0  0  0  0  0  0  0  0  0  0  0  0
  -50.5815  -29.5388    5.5452 H   0  0  0  0  0  0  0  0  0  0  0  0
  -43.6009  -32.1177    3.3815 H   0  0  0  0  0  0  0  0  0  0  0  0
  -43.9797  -33.4869    2.2823 H   0  0  0  0  0  0  0  0  0  0  0  0
  -43.6010  -31.8679    1.6027 H   0  0  0  0  0  0  0  0  0  0  0  0
  -45.2438  -34.5306   -1.3157 H   0  0  0  0  0  0  0  0  0  0  0  0
  -46.8663  -33.7672   -1.2104 H   0  0  0  0  0  0  0  0  0  0  0  0
  -45.4066  -32.7462   -1.4423 H   0  0  0  0  0  0  0  0  0  0  0  0
  -46.0553  -32.5963    3.3052 H   0  0  0  0  0  0  0  0  0  0  0  0
  -47.5610  -28.6629    7.7115 H   0  0  0  0  0  0  0  0  0  0  0  0
  -46.6791  -30.3375    2.5604 H   0  0  0  0  0  0  0  0  0  0  0  0
  1  3  1  0  0  0  0
  1  4  2  0  0  0  0
  2 15  1  0  0  0  0
  2 16  2  0  0  0  0
  3  5  1  0  0  0  0
  3  6  2  0  0  0  0
  4 11  1  0  0  0  0
  4 17  1  0  0  0  0
  5 15  2  0  0  0  0
  5 17  1  0  0  0  0
  6 16  1  0  0  0  0
  6 18  1  0  0  0  0
  7  8  1  0  0  0  0
  7  9  1  0  0  0  0
  8 10  1  0  0  0  0
  9 10  1  0  0  0  0
 10 14  1  0  0  0  0
 10 19  1  0  0  0  0
 12 14  1  0  0  0  0
 13 19  1  0  0  0  0
 14 18  1  0  0  0  0
  1 20  1  0  0  0  0
  2 21  1  0  0  0  0
  7 22  1  0  0  0  0
  7 23  1  0  0  0  0
  8 24  1  0  0  0  0
  8 25  1  0  0  0  0
  9 26  1  0  0  0  0
  9 27  1  0  0  0  0
 11 28  1  0  0  0  0
 11 29  1  0  0  0  0
 11 30  1  0  0  0  0
 12 31  1  0  0  0  0
 12 32  1  0  0  0  0
 12 33  1  0  0  0  0
 13 34  1  0  0  0  0
 13 35  1  0  0  0  0
 13 36  1  0  0  0  0
 14 37  1  0  0  0  0
 17 38  1  0  0  0  0
 18 39  1  0  0  0  0
M  END
> <POSIT::Probability>
0.75

> <POSIT::Method>
SHAPEFIT

> <ReceptorTitle>
UCSF-P4643-REFINED_LIGAND-BOUND-STATE_AALTB__DU__LA1_A-201(A)

> <OMEGA_C>
iNo/wuE98MGP4ppAnO4vwgP46MHKy7JA3BU6wo5M7sHotJxARPhBwr2T7MGty8BApP44woaK6cER
IsRAJtU1wlVb8MFcjoBA8XBAwmNs+cGsaXk/eHE/wjGeAsJw76g/ZhM7wsWt+cEiRmQ+GlI5wiqt
AcIHQ5I/YMZHwgri7MGiCM5A61QwwhGcAcJZ0BtA2TQ3wrybBsLviHW/Jls2wu8cAMJfJh9AdvEz
wgHi5sHp7c5AP8owwj6l7cEhEoxA/c89wnyB6MFxpdlAzeo2wliW9MGjBTFAgp42wlklBsLf6PI+
PghCwuTb88GMyIBAb+QrwiXT5sFTibtAevVDwnH398HCna0+QYxAwtEA9MF3k+s/F6NAwpC+A8Is
yRVAey1BwqR2BcJi/Rk/P2g7wlSp+8FdeFi/jqI4wndr8sEDbK8+EJtIwq1w9MGnzN5Ay59Iwl0e
5sHWf+NAe1NKwndP7ME9crFASGcuwoN4AMK5aVhAPusvwpzyBcL9ERJAdmcuwmbx/sEuJc0/qvk0
wksfCsKuaKi/G3c7wpERB8Ka75q/aKA1wiP8AsIRnLi/pjg4wppiAsIoiFNAez4+wqtN5cE9xPZA
Ybc6wkGz8sH+3CNA

> <OMEGA_E>
GPUtPw==

> <OMEGA_NBR>
      2732

$$$$
CACHE3HI_1689_96
  -OEChem-03092622523D

 42 42  0     0  0  0  0  0  0999 V2000
  -45.8416  -28.9801    6.3165 C   0  0  0  0  0  0  0  0  0  0  0  0
  -46.3079  -29.5287    4.0102 C   0  0  0  0  0  0  0  0  0  0  0  0
  -44.4767  -29.1408    6.0781 C   0  0  0  0  0  0  0  0  0  0  0  0
  -44.9430  -29.6894    3.7717 C   0  0  0  0  0  0  0  0  0  0  0  0
  -46.7572  -29.1740    5.2823 C   0  0  0  0  0  0  0  0  0  0  0  0
  -44.0274  -29.4955    4.8060 C   0  0  0  0  0  0  0  0  0  0  0  0
  -51.5025  -28.4580    4.4355 C   0  0  0  0  0  0  0  0  0  0  0  0
  -50.5235  -28.9235    5.2251 C   0  0  0  0  0  0  0  0  0  0  0  0
  -49.1804  -29.1840    4.6195 C   0  0  0  0  0  0  0  0  0  0  0  0
  -42.0280  -30.5088    3.6411 C   0  0  0  0  0  0  0  0  0  0  0  0
  -43.8615  -32.8640    1.3219 C   0  0  0  0  0  0  0  0  0  0  0  0
  -41.7985  -31.5257    0.7965 C   0  0  0  0  0  0  0  0  0  0  0  0
  -50.7334  -29.3081    6.6662 C   0  0  0  0  0  0  0  0  0  0  0  0
  -52.1239  -29.8825    6.9270 C   0  0  0  0  0  0  0  0  0  0  0  0
  -42.6140  -32.2012    1.8918 C   0  0  0  0  0  0  0  0  0  0  0  0
  -48.1426  -29.0101    5.5238 N   0  0  0  0  0  0  0  0  0  0  0  0
  -42.6621  -29.6567    4.5683 N   0  0  0  0  0  0  0  0  0  0  0  0
  -42.9704  -31.2444    2.9151 N   0  0  0  0  0  0  0  0  0  0  0  0
  -49.1110  -29.5622    3.4547 O   0  0  0  0  0  0  0  0  0  0  0  0
  -40.8159  -30.6141    3.4703 O   0  0  0  0  0  0  0  0  0  0  0  0
  -52.2651  -30.2851    8.2827 O   0  0  0  0  0  0  0  0  0  0  0  0
  -46.1803  -28.7022    7.3114 H   0  0  0  0  0  0  0  0  0  0  0  0
  -47.0123  -29.6839    3.1970 H   0  0  0  0  0  0  0  0  0  0  0  0
  -43.7720  -28.9867    6.8913 H   0  0  0  0  0  0  0  0  0  0  0  0
  -44.6042  -29.9658    2.7765 H   0  0  0  0  0  0  0  0  0  0  0  0
  -52.4910  -28.2560    4.8355 H   0  0  0  0  0  0  0  0  0  0  0  0
  -51.3544  -28.2730    3.3765 H   0  0  0  0  0  0  0  0  0  0  0  0
  -44.5009  -32.1263    0.8251 H   0  0  0  0  0  0  0  0  0  0  0  0
  -44.4483  -33.3418    2.1139 H   0  0  0  0  0  0  0  0  0  0  0  0
  -43.6034  -33.6275    0.5803 H   0  0  0  0  0  0  0  0  0  0  0  0
  -42.3843  -30.7545    0.2835 H   0  0  0  0  0  0  0  0  0  0  0  0
  -41.4646  -32.2544    0.0515 H   0  0  0  0  0  0  0  0  0  0  0  0
  -40.9112  -31.0390    1.2169 H   0  0  0  0  0  0  0  0  0  0  0  0
  -50.5598  -28.4364    7.3084 H   0  0  0  0  0  0  0  0  0  0  0  0
  -49.9886  -30.0614    6.9525 H   0  0  0  0  0  0  0  0  0  0  0  0
  -52.9200  -29.1719    6.6799 H   0  0  0  0  0  0  0  0  0  0  0  0
  -52.2698  -30.7756    6.3110 H   0  0  0  0  0  0  0  0  0  0  0  0
  -41.9972  -32.9638    2.3807 H   0  0  0  0  0  0  0  0  0  0  0  0
  -48.3839  -28.7505    6.4781 H   0  0  0  0  0  0  0  0  0  0  0  0
  -42.0381  -29.0800    5.1433 H   0  0  0  0  0  0  0  0  0  0  0  0
  -43.9547  -31.1287    3.1357 H   0  0  0  0  0  0  0  0  0  0  0  0
  -53.1646  -30.6376    8.3778 H   0  0  0  0  0  0  0  0  0  0  0  0
  1  3  2  0  0  0  0
  1  5  1  0  0  0  0
  2  4  1  0  0  0  0
  2  5  2  0  0  0  0
  3  6  1  0  0  0  0
  4  6  2  0  0  0  0
  5 16  1  0  0  0  0
  6 17  1  0  0  0  0
  7  8  2  0  0  0  0
  8  9  1  0  0  0  0
  8 13  1  0  0  0  0
  9 16  1  0  0  0  0
  9 19  2  0  0  0  0
 10 17  1  0  0  0  0
 10 18  1  0  0  0  0
 10 20  2  0  0  0  0
 11 15  1  0  0  0  0
 12 15  1  0  0  0  0
 13 14  1  0  0  0  0
 14 21  1  0  0  0  0
 15 18  1  0  0  0  0
  1 22  1  0  0  0  0
  2 23  1  0  0  0  0
  3 24  1  0  0  0  0
  4 25  1  0  0  0  0
  7 26  1  0  0  0  0
  7 27  1  0  0  0  0
 11 28  1  0  0  0  0
 11 29  1  0  0  0  0
 11 30  1  0  0  0  0
 12 31  1  0  0  0  0
 12 32  1  0  0  0  0
 12 33  1  0  0  0  0
 13 34  1  0  0  0  0
 13 35  1  0  0  0  0
 14 36  1  0  0  0  0
 14 37  1  0  0  0  0
 15 38  1  0  0  0  0
 16 39  1  0  0  0  0
 17 40  1  0  0  0  0
 18 41  1  0  0  0  0
 21 42  1  0  0  0  0
M  END
> <POSIT::Probability>
0.24

> <POSIT::Method>
FRED

> <ReceptorTitle>
UCSF-P4643-REFINED_LIGAND-BOUND-STATE_AALTB__DU__LA1_A-201(A)

> <OMEGA_C>
yV03wkXX58HMIMpASzs5wts67MFrU4BAGOgxwlQg6cG6f8JAp8UzwuqD7cFLZHFAWQc7wlxk6cG4
CKlACBwwwtP268FsyplAlwJOwvip48Fg741ACxhKwlhj58G4M6dAwLhEwuh46cGw0pNArRwowg8S
9MGJCGlAK3IvwrN0A8JINKk/rzEnwp40/MHo6Es/A+9KwvF26sF+UdVA5H5QwlQP78GUqd1Aw3Qq
wgjOAML6JfI/EJJAwpYU6MEaw7BA/aUqwgVB7cGmL5JAp+ErwpL0+cFzkTpAtnFEwnN/7MFmGl1A
e0MjwrTp9MElGV5AcQ9RwvRH8sG/hQRBq7g4wiqe5cHG9ulAngw8wop47cH2m0xAhhYvwrHk58G0
hdxAtGoywui578GAsTFAzvZRwk4M4sEsvJpA7mpNwh0v4sEHGVhA8AAywlKBAMJcPFM/Gssxwgle
BcIsSgdA3WkuwpeCBsJojRQ/fYkpwiUJ9sF4LJE+s9slwoUEAcJA4FI9CKUjwtZP+MHqxJs/OD1K
ws5948FW3ulAU/RHwrl98MGAet5AH65TwiVg6cGgwdVASRRRwmw09sGY88lAF/0nwuzaA8JsXRhA
GYlBwhsB5sG+TM9AAicowsyj6MH4laRAltEvwpQH+cE7r0hAgqhUwuQZ9cFQCwZB

> <OMEGA_E>
HMjawA==

> <OMEGA_NBR>
      4063

$$$$
CACHE3HI_1690_88
  -OEChem-03092622523D

 28 29  0     0  0  0  0  0  0999 V2000
  -47.9060  -29.8181    4.4534 C   0  0  0  0  0  0  0  0  0  0  0  0
  -43.9548  -29.2244    5.5988 C   0  0  0  0  0  0  0  0  0  0  0  0
  -46.4597  -29.6552    4.6312 C   0  0  0  0  0  0  0  0  0  0  0  0
  -45.3449  -29.6788    3.7638 C   0  0  0  0  0  0  0  0  0  0  0  0
  -48.4843  -29.6365    5.6911 C   0  0  0  0  0  0  0  0  0  0  0  0
  -46.2427  -29.4017    5.9891 C   0  0  0  0  0  0  0  0  0  0  0  0
  -46.0722  -31.2504    2.0245 C   0  0  0  0  0  0  0  0  0  0  0  0
  -45.4370  -30.0671    2.3468 C   0  0  0  0  0  0  0  0  0  0  0  0
  -49.9547  -29.6777    6.0248 C   0  0  0  0  0  0  0  0  0  0  0  0
  -44.6222  -29.2833    1.3234 C   0  0  0  0  0  0  0  0  0  0  0  0
  -45.7845  -31.9980    0.7417 C   0  0  0  0  0  0  0  0  0  0  0  0
  -44.1114  -29.4419    4.2693 N   0  0  0  0  0  0  0  0  0  0  0  0
  -44.9975  -29.2026    6.4638 N   0  0  0  0  0  0  0  0  0  0  0  0
  -47.4749  -29.3965    6.6173 N   0  0  0  0  0  0  0  0  0  0  0  0
  -45.8388  -33.3973    0.9934 O   0  0  0  0  0  0  0  0  0  0  0  0
  -48.4197  -30.0384    3.5294 H   0  0  0  0  0  0  0  0  0  0  0  0
  -42.9588  -29.0621    5.9836 H   0  0  0  0  0  0  0  0  0  0  0  0
  -46.7996  -31.6557    2.7123 H   0  0  0  0  0  0  0  0  0  0  0  0
  -50.2423  -30.7056    6.2905 H   0  0  0  0  0  0  0  0  0  0  0  0
  -50.1565  -29.0093    6.8749 H   0  0  0  0  0  0  0  0  0  0  0  0
  -50.5379  -29.3477    5.1525 H   0  0  0  0  0  0  0  0  0  0  0  0
  -44.8005  -29.6949    0.3190 H   0  0  0  0  0  0  0  0  0  0  0  0
  -44.9257  -28.2262    1.3454 H   0  0  0  0  0  0  0  0  0  0  0  0
  -43.5527  -29.3629    1.5677 H   0  0  0  0  0  0  0  0  0  0  0  0
  -46.5358  -31.7311   -0.0162 H   0  0  0  0  0  0  0  0  0  0  0  0
  -44.7828  -31.7287    0.3756 H   0  0  0  0  0  0  0  0  0  0  0  0
  -47.6190  -29.2427    7.5948 H   0  0  0  0  0  0  0  0  0  0  0  0
  -45.6586  -33.8712    0.1900 H   0  0  0  0  0  0  0  0  0  0  0  0
  1  3  1  0  0  0  0
  1  5  2  0  0  0  0
  2 12  1  0  0  0  0
  2 13  2  0  0  0  0
  3  4  1  0  0  0  0
  3  6  2  0  0  0  0
  4  8  1  0  0  0  0
  4 12  2  0  0  0  0
  5  9  1  0  0  0  0
  5 14  1  0  0  0  0
  6 13  1  0  0  0  0
  6 14  1  0  0  0  0
  7  8  2  0  0  0  0
  7 11  1  0  0  0  0
  8 10  1  0  0  0  0
 11 15  1  0  0  0  0
  1 16  1  0  0  0  0
  2 17  1  0  0  0  0
  7 18  1  0  0  0  0
  9 19  1  0  0  0  0
  9 20  1  0  0  0  0
  9 21  1  0  0  0  0
 10 22  1  0  0  0  0
 10 23  1  0  0  0  0
 10 24  1  0  0  0  0
 11 25  1  0  0  0  0
 11 26  1  0  0  0  0
 14 27  1  0  0  0  0
 15 28  1  0  0  0  0
M  END
> <POSIT::Probability>
0.95

> <POSIT::Method>
SHAPEFIT

> <ReceptorTitle>
UCSF-P4643-REFINED_LIGAND-BOUND-STATE_AALTB__DU__LA1_A-201(A)

> <OMEGA_C>
sp8/woqL7sGRgo5AutEvwpTL6cFpKbNAxNY5wto97cGbMpRAKGE1whlu7cFW4XBA9O9BwpMX7cG7
HbZAhvg4wr4268F9pr9A+Ek4wr8A+sEVkgFAd781woKJ8MFAMRZAoNFHwuFr7cFqy8BAL30ywiBE
6sG2ZKk/UiM3wvb7/8HY3T0/GHIwwgmJ68EpnohAb/0zwtye6cFf185ASeY9whcs68GhwNNA9Fo3
wtKWBcLwTH4/0K1Bwo9O8MH74GFA1NUrwhZ/6MFXeb9AvjI7wvQ+/cEYly1AIfhIwiql9cF4S8lA
QaBIwiET6MEn/9tA1iZKwhnI6sEu4aRAqjMzwj+P7cHHVaM+37Mzwi/P4cHONKw/8zUuwjzn6sEz
qsg/qCQ6wkrZ/cFdVYS8iiEzwlrU/cH1U8A+0nk+wvbw6cGPCPNAbqI2wiR8B8IojUI+

> <OMEGA_E>
KA8gPg==

> <OMEGA_NBR>
      5145

$$$$
CACHE3HI_1716_53
  -OEChem-03092622523D

 38 41  0     1  0  0  0  0  0999 V2000
  -43.9761  -31.9250   -0.1216 C   0  0  0  0  0  0  0  0  0  0  0  0
  -45.0187  -31.0644    0.2035 C   0  0  0  0  0  0  0  0  0  0  0  0
  -48.5777  -29.0705    4.8336 C   0  0  0  0  0  0  0  0  0  0  0  0
  -43.7182  -32.9838    0.7349 C   0  0  0  0  0  0  0  0  0  0  0  0
  -45.4237  -32.3724    2.1483 C   0  0  0  0  0  0  0  0  0  0  0  0
  -44.6038  -29.2312    5.5592 C   0  0  0  0  0  0  0  0  0  0  0  0
  -47.1606  -29.1299    4.8208 C   0  0  0  0  0  0  0  0  0  0  0  0
  -45.7611  -31.2853    1.3582 C   0  0  0  0  0  0  0  0  0  0  0  0
  -48.9796  -29.0420    6.1521 C   0  0  0  0  0  0  0  0  0  0  0  0
  -46.7432  -29.1361    6.1460 C   0  0  0  0  0  0  0  0  0  0  0  0
  -46.1606  -29.1809    3.8505 C   0  0  0  0  0  0  0  0  0  0  0  0
  -46.8965  -28.4271    0.2992 C   0  0  0  0  0  0  0  0  0  0  0  0
  -47.5925  -29.7645    0.5013 C   0  0  0  0  0  0  0  0  0  0  0  0
  -46.6135  -27.9508    1.7200 C   0  0  0  0  0  0  0  0  0  0  0  0
  -46.9063  -30.3634    1.7409 C   0  0  2  0  0  0  0  0  0  0  0  0
  -50.3282  -28.9813    6.7455 C   0  0  0  0  0  0  0  0  0  0  0  0
  -44.4179  -33.2300    1.8652 N   0  0  0  0  0  0  0  0  0  0  0  0
  -45.4746  -29.1859    6.5881 N   0  0  0  0  0  0  0  0  0  0  0  0
  -44.8638  -29.2318    4.2324 N   0  0  0  0  0  0  0  0  0  0  0  0
  -47.8580  -29.0826    6.9400 N   0  0  0  0  0  0  0  0  0  0  0  0
  -46.4809  -29.1801    2.5047 N   0  0  3  0  0  0  0  0  0  0  0  0
  -43.3851  -31.7723   -1.0173 H   0  0  0  0  0  0  0  0  0  0  0  0
  -45.2459  -30.2256   -0.4486 H   0  0  0  0  0  0  0  0  0  0  0  0
  -49.2366  -29.0517    3.9759 H   0  0  0  0  0  0  0  0  0  0  0  0
  -42.9166  -33.6845    0.5259 H   0  0  0  0  0  0  0  0  0  0  0  0
  -45.9671  -32.5949    3.0614 H   0  0  0  0  0  0  0  0  0  0  0  0
  -43.5547  -29.2723    5.8314 H   0  0  0  0  0  0  0  0  0  0  0  0
  -45.9550  -28.5693   -0.2445 H   0  0  0  0  0  0  0  0  0  0  0  0
  -47.5129  -27.7192   -0.2626 H   0  0  0  0  0  0  0  0  0  0  0  0
  -48.6532  -29.5884    0.7203 H   0  0  0  0  0  0  0  0  0  0  0  0
  -47.5275  -30.3992   -0.3883 H   0  0  0  0  0  0  0  0  0  0  0  0
  -45.7070  -27.3392    1.7700 H   0  0  0  0  0  0  0  0  0  0  0  0
  -47.4604  -27.3576    2.0864 H   0  0  0  0  0  0  0  0  0  0  0  0
  -47.6552  -30.9734    2.3046 H   0  0  0  0  0  0  0  0  0  0  0  0
  -50.7504  -29.9861    6.9221 H   0  0  0  0  0  0  0  0  0  0  0  0
  -51.0475  -28.4607    6.0890 H   0  0  0  0  0  0  0  0  0  0  0  0
  -50.3148  -28.4507    7.7124 H   0  0  0  0  0  0  0  0  0  0  0  0
  -47.8512  -29.0769    7.9506 H   0  0  0  0  0  0  0  0  0  0  0  0
  1  2  2  0  0  0  0
  1  4  1  0  0  0  0
  2  8  1  0  0  0  0
  3  7  1  0  0  0  0
  3  9  2  0  0  0  0
  4 17  2  0  0  0  0
  5  8  2  0  0  0  0
  5 17  1  0  0  0  0
  6 18  1  0  0  0  0
  6 19  2  0  0  0  0
  7 10  1  0  0  0  0
  7 11  2  0  0  0  0
  8 15  1  0  0  0  0
  9 16  1  0  0  0  0
  9 20  1  0  0  0  0
 10 18  2  0  0  0  0
 10 20  1  0  0  0  0
 11 19  1  0  0  0  0
 11 21  1  0  0  0  0
 12 13  1  0  0  0  0
 12 14  1  0  0  0  0
 13 15  1  0  0  0  0
 14 21  1  0  0  0  0
 15 21  1  0  0  0  0
  1 22  1  0  0  0  0
  2 23  1  0  0  0  0
  3 24  1  0  0  0  0
  4 25  1  0  0  0  0
  5 26  1  0  0  0  0
  6 27  1  0  0  0  0
 12 28  1  0  0  0  0
 12 29  1  0  0  0  0
 13 30  1  0  0  0  0
 13 31  1  0  0  0  0
 14 32  1  0  0  0  0
 14 33  1  0  0  0  0
 15 34  1  0  0  0  0
 16 35  1  0  0  0  0
 16 36  1  0  0  0  0
 16 37  1  0  0  0  0
 20 38  1  0  0  0  0
M  END
> <POSIT::Probability>
0.33

> <POSIT::Method>
HYBRID

> <ReceptorTitle>
UCSF-P4643-REFINED_LIGAND-BOUND-STATE_AALTB__DU__LA1_A-201(A)

> <OMEGA_C>
eucvwk5m/8GA9fi9HhM0wviD+MGgbFA+kE9Cwk2Q6MGbrJpAZN8uwl3vA8KYHzw/27E1wk59AcKQ
fQlAS2oywnnZ6cGh5LFAcKQ8wiMK6cHSQ5pAUws3wllI+sHQ2K0/IutDwghW6MH+3cRAC/k6wsAW
6cG2q8RAcqQ4wmly6cF0bnZABJY7wsxq48GwLpk+wl4+wsId7sFwVgA/O3Q6wk6b38FcKdw/CaA7
wkjo8sE81d4/DlBJwqHZ58Et29dA5KsxwovrBMIUvu4/BeY1wsZ86cHT0dJAhnQzwtPa6cHjb4dA
j24/whCp6MGMFN5Abew5wsFw6cG4TSBAXootwpkt/sFgOIK/wfs0wvLN8cEAsuW+PfJEwvFp6MGA
dH5Ajqorwue8BsIYogY/St43wiVhAsLC7kNACDguwqst6sEQm7pA4dE3wteN5MGgWnq+Kg0+wu7A
3cHQboa+6pxCwiS17MFwYjg/Lhw+wn8x88Ewzsa++9M2wpu22sEAkOI/bdc9wnTc2sGohwVA6Z4+
wpHJ98H0fhNAagBLwnXj78HWgd1AqjBMwnqv48FM2cJAWUJJwg6b48G+y/ZAlmc/wmqd6MGXa/5A

> <OMEGA_E>
0IgtwQ==

> <OMEGA_NBR>
      6417

$$$$
CACHE3HI_1717_27
  -OEChem-03092622523D

 37 38  0     1  0  0  0  0  0999 V2000
  -48.0513  -29.8464    5.0468 C   0  0  0  0  0  0  0  0  0  0  0  0
  -44.0147  -29.1052    5.5910 C   0  0  0  0  0  0  0  0  0  0  0  0
  -46.5978  -29.7152    5.0445 C   0  0  0  0  0  0  0  0  0  0  0  0
  -46.2496  -29.1175    6.2501 C   0  0  0  0  0  0  0  0  0  0  0  0
  -45.5942  -30.0203    4.1101 C   0  0  0  0  0  0  0  0  0  0  0  0
  -43.2250  -28.2333    1.6579 C   0  0  0  0  0  0  0  0  0  0  0  0
  -43.5081  -29.6689    1.1857 C   0  0  0  0  0  0  0  0  0  0  0  0
  -44.9474  -29.8275    0.6362 C   0  0  0  0  0  0  0  0  0  0  0  0
  -45.0167  -32.8038    2.4275 C   0  0  0  0  0  0  0  0  0  0  0  0
  -46.0357  -29.5576    1.6974 C   0  0  0  0  0  0  0  0  0  0  0  0
  -46.2789  -31.9303    2.6183 C   0  0  0  0  0  0  0  0  0  0  0  0
  -45.3471  -34.0739    1.6341 C   0  0  0  0  0  0  0  0  0  0  0  0
  -48.4946  -29.3846    6.1959 N   0  0  0  0  0  0  0  0  0  0  0  0
  -44.9630  -28.8122    6.5197 N   0  0  0  0  0  0  0  0  0  0  0  0
  -44.3082  -29.7099    4.4074 N   0  0  0  0  0  0  0  0  0  0  0  0
  -47.4317  -28.9450    6.9511 N   0  0  0  0  0  0  0  0  0  0  0  0
  -45.9404  -30.5003    2.8423 N   0  0  3  0  0  0  0  0  0  0  0  0
  -45.6568  -33.7399    0.2801 O   0  0  0  0  0  0  0  0  0  0  0  0
  -48.6551  -30.2506    4.2478 H   0  0  0  0  0  0  0  0  0  0  0  0
  -42.9870  -28.8479    5.8007 H   0  0  0  0  0  0  0  0  0  0  0  0
  -42.1950  -28.1684    2.0385 H   0  0  0  0  0  0  0  0  0  0  0  0
  -43.3483  -27.5389    0.8137 H   0  0  0  0  0  0  0  0  0  0  0  0
  -43.9295  -27.9653    2.4590 H   0  0  0  0  0  0  0  0  0  0  0  0
  -42.7940  -29.9281    0.3902 H   0  0  0  0  0  0  0  0  0  0  0  0
  -43.3752  -30.3546    2.0355 H   0  0  0  0  0  0  0  0  0  0  0  0
  -45.0849  -29.1190   -0.1939 H   0  0  0  0  0  0  0  0  0  0  0  0
  -45.0686  -30.8558    0.2646 H   0  0  0  0  0  0  0  0  0  0  0  0
  -44.2570  -32.2252    1.8815 H   0  0  0  0  0  0  0  0  0  0  0  0
  -44.6222  -33.0877    3.4143 H   0  0  0  0  0  0  0  0  0  0  0  0
  -45.9195  -28.5301    2.0724 H   0  0  0  0  0  0  0  0  0  0  0  0
  -47.0246  -29.6671    1.2283 H   0  0  0  0  0  0  0  0  0  0  0  0
  -46.9049  -32.0097    1.7172 H   0  0  0  0  0  0  0  0  0  0  0  0
  -46.8397  -32.3025    3.4883 H   0  0  0  0  0  0  0  0  0  0  0  0
  -44.4800  -34.7505    1.6527 H   0  0  0  0  0  0  0  0  0  0  0  0
  -46.2127  -34.5745    2.0925 H   0  0  0  0  0  0  0  0  0  0  0  0
  -47.5023  -28.5580    7.8704 H   0  0  0  0  0  0  0  0  0  0  0  0
  -45.8600  -34.5321   -0.2034 H   0  0  0  0  0  0  0  0  0  0  0  0
  1  3  1  0  0  0  0
  1 13  2  0  0  0  0
  2 14  2  0  0  0  0
  2 15  1  0  0  0  0
  3  4  2  0  0  0  0
  3  5  1  0  0  0  0
  4 14  1  0  0  0  0
  4 16  1  0  0  0  0
  5 15  2  0  0  0  0
  5 17  1  0  0  0  0
  6  7  1  0  0  0  0
  7  8  1  0  0  0  0
  8 10  1  0  0  0  0
  9 11  1  0  0  0  0
  9 12  1  0  0  0  0
 10 17  1  0  0  0  0
 11 17  1  0  0  0  0
 12 18  1  0  0  0  0
 13 16  1  0  0  0  0
  1 19  1  0  0  0  0
  2 20  1  0  0  0  0
  6 21  1  0  0  0  0
  6 22  1  0  0  0  0
  6 23  1  0  0  0  0
  7 24  1  0  0  0  0
  7 25  1  0  0  0  0
  8 26  1  0  0  0  0
  8 27  1  0  0  0  0
  9 28  1  0  0  0  0
  9 29  1  0  0  0  0
 10 30  1  0  0  0  0
 10 31  1  0  0  0  0
 11 32  1  0  0  0  0
 11 33  1  0  0  0  0
 12 34  1  0  0  0  0
 12 35  1  0  0  0  0
 16 36  1  0  0  0  0
 18 37  1  0  0  0  0
M  END
> <POSIT::Probability>
0.75

> <POSIT::Method>
SHAPEFIT

> <ReceptorTitle>
UCSF-P4643-REFINED_LIGAND-BOUND-STATE_AALTB__DU__LA1_A-201(A)

> <OMEGA_C>
ijRAwoTF7sFQf6FAFw8wwnrX6MHI6bJAJmQ6wsu47cEobKFAk/84wrzw6MEYAchAgWA2woQp8MFA
hoNAbuYswtzd4cGgNNQ/Vgguwu9Z7cFwxpc/IMozwtKe7sFw3yI/GBE0wh83A8KIWxtAmyQ4wgV2
7MH4Rdk/oR05wjVx/8EYkidAbmM1wqpLCMIgKdE/ePpBwqAT68G8RMZAE9ozwmV/5sGAodBAozsx
wvqt7cE4CY1ADbo9wmCP58EQb95A+cI3woUA9MHY5zVAmqA2wq/1BsJAZY8+3J5CwjAB8sGT7YdA
tPIrwmzI5sFZn7lAuccowtpY4cExdwJAqWQtwpZP3MHPUVA/zLcvwv2438EOYR1AFC0rwtds78EV
zcc+N4Atwj7W8sE9RgJA9VY0ws/z6MEKj0a+NUY0wpnY9sEueoc+MwcxwpPmAMI81fA/JH0ywshZ
BMKTg1pAmK03wpM95MGjogRAORk8wi9W7cHaN50/k547wvMJAMI8zts/51s7wss1AcJRQF9Ag+sx
wn4AC8LSjNM/zdk4wj1MCsLo6wVAUgI+ws525MGX2vtAq3A3wtIgCsIaSlC+

> <OMEGA_E>
MHcWPw==

> <OMEGA_NBR>
      7683

$$$$
CACHE3HI_1717_39
  -OEChem-03092622523D

 38 40  0     1  0  0  0  0  0999 V2000
  -41.0988  -30.7376    1.1052 C   0  0  0  0  0  0  0  0  0  0  0  0
  -41.6806  -31.7884    0.3662 C   0  0  0  0  0  0  0  0  0  0  0  0
  -41.5145  -30.4899    2.4298 C   0  0  0  0  0  0  0  0  0  0  0  0
  -42.6999  -32.5728    0.9397 C   0  0  0  0  0  0  0  0  0  0  0  0
  -42.5131  -31.2936    3.0162 C   0  0  0  0  0  0  0  0  0  0  0  0
  -45.1481  -29.5237    5.5056 C   0  0  0  0  0  0  0  0  0  0  0  0
  -48.9480  -30.4137    4.0935 C   0  0  0  0  0  0  0  0  0  0  0  0
  -46.3755  -29.8961    4.7976 C   0  0  0  0  0  0  0  0  0  0  0  0
  -43.1262  -32.3226    2.2626 C   0  0  0  0  0  0  0  0  0  0  0  0
  -47.4276  -29.5788    5.6500 C   0  0  0  0  0  0  0  0  0  0  0  0
  -46.6690  -30.4931    3.5527 C   0  0  0  0  0  0  0  0  0  0  0  0
  -44.3921  -32.9783    2.7659 C   0  0  0  0  0  0  0  0  0  0  0  0
  -45.6056  -32.2463    2.1579 C   0  0  0  0  0  0  0  0  0  0  0  0
  -44.9614  -29.7353    1.8964 C   0  0  0  0  0  0  0  0  0  0  0  0
  -45.8803  -28.9920    0.9241 C   0  0  0  0  0  0  0  0  0  0  0  0
  -45.4906  -29.0275    6.6762 N   0  0  0  0  0  0  0  0  0  0  0  0
  -48.7045  -29.8292    5.2939 N   0  0  0  0  0  0  0  0  0  0  0  0
  -47.9579  -30.7541    3.2318 N   0  0  0  0  0  0  0  0  0  0  0  0
  -46.8602  -29.0392    6.7915 N   0  0  0  0  0  0  0  0  0  0  0  0
  -45.6752  -30.8300    2.6379 N   0  0  1  0  0  0  0  0  0  0  0  0
  -46.3280  -29.8750   -0.0998 O   0  0  0  0  0  0  0  0  0  0  0  0
  -40.3338  -30.1216    0.6560 H   0  0  0  0  0  0  0  0  0  0  0  0
  -41.3444  -31.9916   -0.6398 H   0  0  0  0  0  0  0  0  0  0  0  0
  -41.0680  -29.6850    2.9947 H   0  0  0  0  0  0  0  0  0  0  0  0
  -43.1562  -33.3667    0.3672 H   0  0  0  0  0  0  0  0  0  0  0  0
  -42.8104  -31.1240    4.0405 H   0  0  0  0  0  0  0  0  0  0  0  0
  -44.1406  -29.6363    5.1333 H   0  0  0  0  0  0  0  0  0  0  0  0
  -49.9713  -30.6158    3.8134 H   0  0  0  0  0  0  0  0  0  0  0  0
  -44.4073  -34.0353    2.4616 H   0  0  0  0  0  0  0  0  0  0  0  0
  -44.4319  -32.9120    3.8632 H   0  0  0  0  0  0  0  0  0  0  0  0
  -45.5156  -32.2503    1.0616 H   0  0  0  0  0  0  0  0  0  0  0  0
  -46.5265  -32.7712    2.4521 H   0  0  0  0  0  0  0  0  0  0  0  0
  -44.1300  -30.1778    1.3281 H   0  0  0  0  0  0  0  0  0  0  0  0
  -44.5639  -29.0152    2.6269 H   0  0  0  0  0  0  0  0  0  0  0  0
  -46.7498  -28.6007    1.4726 H   0  0  0  0  0  0  0  0  0  0  0  0
  -45.3282  -28.1569    0.4683 H   0  0  0  0  0  0  0  0  0  0  0  0
  -47.3717  -28.7068    7.5839 H   0  0  0  0  0  0  0  0  0  0  0  0
  -46.8971  -29.4047   -0.6977 H   0  0  0  0  0  0  0  0  0  0  0  0
  1  2  1  0  0  0  0
  1  3  2  0  0  0  0
  2  4  2  0  0  0  0
  3  5  1  0  0  0  0
  4  9  1  0  0  0  0
  5  9  2  0  0  0  0
  6  8  1  0  0  0  0
  6 16  2  0  0  0  0
  7 17  2  0  0  0  0
  7 18  1  0  0  0  0
  8 10  2  0  0  0  0
  8 11  1  0  0  0  0
  9 12  1  0  0  0  0
 10 17  1  0  0  0  0
 10 19  1  0  0  0  0
 11 18  2  0  0  0  0
 11 20  1  0  0  0  0
 12 13  1  0  0  0  0
 13 20  1  0  0  0  0
 14 15  1  0  0  0  0
 14 20  1  0  0  0  0
 15 21  1  0  0  0  0
 16 19  1  0  0  0  0
  1 22  1  0  0  0  0
  2 23  1  0  0  0  0
  3 24  1  0  0  0  0
  4 25  1  0  0  0  0
  5 26  1  0  0  0  0
  6 27  1  0  0  0  0
  7 28  1  0  0  0  0
 12 29  1  0  0  0  0
 12 30  1  0  0  0  0
 13 31  1  0  0  0  0
 13 32  1  0  0  0  0
 14 33  1  0  0  0  0
 14 34  1  0  0  0  0
 15 35  1  0  0  0  0
 15 36  1  0  0  0  0
 19 37  1  0  0  0  0
 21 38  1  0  0  0  0
M  END
> <POSIT::Probability>
0.2

> <POSIT::Method>
SHAPEFIT

> <ReceptorTitle>
UCSF-P4643_LA2_MERGED(A)

> <OMEGA_C>
JmUkwojm9cHYdY0/7rgmwqBO/sHggLs+1Q4mwk7r88FgghtAtswqwpBKAsKwknA/dw0qwkBZ+sGo
CEFArJc0wpIw7ME+LrBAzcpDwkRP88Hq/YJAjoA5wiAr78H+hZlAM4EswlVKAcIozxBA4rU9wmih
7MEGzbRADq06wujx88G0XmNAi5ExwsnpA8KkBDFAJWw2wjD8AMI8GwpAeNgzwtrh7cFgvvI/cYU3
wpjv58HAkWw/ZfY1wlQ46MGmo9VAXdFCwhyi7sGGZ6lA7tQ/wmQI9sHs1U5A1XA7wmJQ6ME2VNlA
XrM2wuCj9sFs0yhA0085wgQA78EAZ8y9yFUhwgv58MGY7ic/omAlwtvu/8EUySO/lkUkwsp67cFV
qT9A958swo13BcI6+7s+4z0rwun9+MGoS4FA+o8wwjIX7cESRKRAo+JHwjPt9MHDDnRAFqExwh8k
CMJYix1ATroxwumlA8J3PndA7Q82wkYAAcLq4oc/Fxs6wqwVA8Lm7hxAJoUwwhls8cG3/qk/d0Ey
wigf6MGKHihA0v86wj/O5MEdfrw/C1A1wk5B4cEXx+8+n3w9wnKn5cEWr/JAoJY7wuc868F7mTK/

> <OMEGA_E>
IDumPw==

> <OMEGA_NBR>
      8898

$$$$
CACHE3HI_1717_42
  -OEChem-03092622523D

 33 34  0     1  0  0  0  0  0999 V2000
  -47.9931  -29.7644    4.8127 C   0  0  0  0  0  0  0  0  0  0  0  0
  -43.9789  -29.1129    5.6770 C   0  0  0  0  0  0  0  0  0  0  0  0
  -46.5242  -29.6407    4.8758 C   0  0  0  0  0  0  0  0  0  0  0  0
  -46.2491  -29.1994    6.1693 C   0  0  0  0  0  0  0  0  0  0  0  0
  -45.4384  -29.8423    3.9748 C   0  0  0  0  0  0  0  0  0  0  0  0
  -45.7521  -33.0631    1.0963 C   0  0  0  0  0  0  0  0  0  0  0  0
  -44.5267  -28.6442    1.1694 C   0  0  0  0  0  0  0  0  0  0  0  0
  -43.5576  -33.4715    1.8790 C   0  0  0  0  0  0  0  0  0  0  0  0
  -46.8213  -31.9588    1.0219 C   0  0  0  0  0  0  0  0  0  0  0  0
  -44.5030  -30.0963    1.6479 C   0  0  0  0  0  0  0  0  0  0  0  0
  -46.8720  -31.0518    2.2727 C   0  0  0  0  0  0  0  0  0  0  0  0
  -48.4872  -29.4453    5.9868 N   0  0  0  0  0  0  0  0  0  0  0  0
  -44.9873  -28.9464    6.5646 N   0  0  0  0  0  0  0  0  0  0  0  0
  -44.1834  -29.5508    4.4095 N   0  0  0  0  0  0  0  0  0  0  0  0
  -47.4619  -29.1078    6.8296 N   0  0  0  0  0  0  0  0  0  0  0  0
  -45.5900  -30.3612    2.6650 N   0  0  3  0  0  0  0  0  0  0  0  0
  -45.6904  -33.8557    0.1626 O   0  0  0  0  0  0  0  0  0  0  0  0
  -44.9234  -33.1178    2.1816 O   0  0  0  0  0  0  0  0  0  0  0  0
  -48.5650  -30.0661    3.9476 H   0  0  0  0  0  0  0  0  0  0  0  0
  -42.9703  -28.8880    5.9907 H   0  0  0  0  0  0  0  0  0  0  0  0
  -43.7251  -28.4873    0.4325 H   0  0  0  0  0  0  0  0  0  0  0  0
  -45.4997  -28.4274    0.7043 H   0  0  0  0  0  0  0  0  0  0  0  0
  -44.3726  -27.9731    2.0272 H   0  0  0  0  0  0  0  0  0  0  0  0
  -42.9688  -33.4905    2.8079 H   0  0  0  0  0  0  0  0  0  0  0  0
  -43.5320  -34.4654    1.4083 H   0  0  0  0  0  0  0  0  0  0  0  0
  -43.1307  -32.7283    1.1895 H   0  0  0  0  0  0  0  0  0  0  0  0
  -46.6084  -31.3289    0.1456 H   0  0  0  0  0  0  0  0  0  0  0  0
  -47.8047  -32.4364    0.9001 H   0  0  0  0  0  0  0  0  0  0  0  0
  -44.6524  -30.7601    0.7836 H   0  0  0  0  0  0  0  0  0  0  0  0
  -43.5253  -30.3058    2.1064 H   0  0  0  0  0  0  0  0  0  0  0  0
  -47.6266  -30.2729    2.0884 H   0  0  0  0  0  0  0  0  0  0  0  0
  -47.1880  -31.6746    3.1226 H   0  0  0  0  0  0  0  0  0  0  0  0
  -47.5736  -28.8345    7.7850 H   0  0  0  0  0  0  0  0  0  0  0  0
  1  3  1  0  0  0  0
  1 12  2  0  0  0  0
  2 13  2  0  0  0  0
  2 14  1  0  0  0  0
  3  4  2  0  0  0  0
  3  5  1  0  0  0  0
  4 13  1  0  0  0  0
  4 15  1  0  0  0  0
  5 14  2  0  0  0  0
  5 16  1  0  0  0  0
  6  9  1  0  0  0  0
  6 17  2  0  0  0  0
  6 18  1  0  0  0  0
  7 10  1  0  0  0  0
  8 18  1  0  0  0  0
  9 11  1  0  0  0  0
 10 16  1  0  0  0  0
 11 16  1  0  0  0  0
 12 15  1  0  0  0  0
  1 19  1  0  0  0  0
  2 20  1  0  0  0  0
  7 21  1  0  0  0  0
  7 22  1  0  0  0  0
  7 23  1  0  0  0  0
  8 24  1  0  0  0  0
  8 25  1  0  0  0  0
  8 26  1  0  0  0  0
  9 27  1  0  0  0  0
  9 28  1  0  0  0  0
 10 29  1  0  0  0  0
 10 30  1  0  0  0  0
 11 31  1  0  0  0  0
 11 32  1  0  0  0  0
 15 33  1  0  0  0  0
M  END
> <POSIT::Probability>
0.57

> <POSIT::Method>
SHAPEFIT

> <ReceptorTitle>
UCSF-P4643-REFINED_LIGAND-BOUND-STATE_AALTB__DU__LA1_A-201(A)

> <OMEGA_C>
+vg/wmcd7sFGAZpAbeovwk7n6MGeqbVA1Bg6wigg7cGIBpxAH/84wkyY6cGeasVA5cA1whG97sFp
Yn5AKgI3wpNABMJSU4w/URsywmon5cH4rZU//jouws7iBcKIgfA/+Ug7wqyr/8GozYI/DwMywi/F
8MHM7NI/9Xw7wiVq+MHmcxFA2PJBwu6P68Gck79A9PIzwlCS58GIEdJA1rswwvxn7MHYGo1ACNk9
wsrc6MHei9pANlw2wrjj8sHgjypA7cI2wkdsB8LegyY+kLEzwqF4BMJynwtAkkJCwlqH8MFwpXxA
mOErwoka58EOtL9Ai+YuwgTm48Hpdt0+p/81wk5r48EWTjQ/gX0xwufI38ETvQFAA+Arwkn2BcI6
tDNAzyAuwpTcCcLBRLQ/0YUswr3pAsKSQZg/BW86wqyh+sEFEhU+/jc/wta+AcLsaWY/GJwywr0U
9sFamEg/8hkuwlZy8sGkzwZAnYE+wvMu8sFUqAVAeMA8wpZl/cHC2EdAXks+wvis5sGbHvlA

> <OMEGA_E>
vA0JPw==

> <OMEGA_NBR>
     10085

$$$$
CACHE3HI_1717_67
  -OEChem-03092622523D

 46 47  0     1  0  0  0  0  0999 V2000
  -48.2354  -29.4896    4.3701 C   0  0  0  0  0  0  0  0  0  0  0  0
  -44.4254  -28.9908    5.5214 C   0  0  0  0  0  0  0  0  0  0  0  0
  -46.8441  -29.2993    4.4688 C   0  0  0  0  0  0  0  0  0  0  0  0
  -46.5963  -29.2999    5.8300 C   0  0  0  0  0  0  0  0  0  0  0  0
  -45.7508  -29.1257    3.6271 C   0  0  0  0  0  0  0  0  0  0  0  0
  -46.6182  -33.3543   -2.5850 C   0  0  0  0  0  0  0  0  0  0  0  0
  -47.6802  -33.1049   -1.5264 C   0  0  0  0  0  0  0  0  0  0  0  0
  -47.3427  -33.7169   -0.1656 C   0  0  0  0  0  0  0  0  0  0  0  0
  -46.0550  -33.1603    0.4463 C   0  0  0  0  0  0  0  0  0  0  0  0
  -46.1406  -31.6433    0.6323 C   0  0  0  0  0  0  0  0  0  0  0  0
  -44.8376  -31.0796    1.2086 C   0  0  0  0  0  0  0  0  0  0  0  0
  -47.0492  -28.3073    0.1748 C   0  0  0  0  0  0  0  0  0  0  0  0
  -44.8701  -29.5615    1.3484 C   0  0  0  0  0  0  0  0  0  0  0  0
  -47.1776  -28.6504    1.6530 C   0  0  0  0  0  0  0  0  0  0  0  0
  -46.0537  -27.1836   -0.0886 C   0  0  0  0  0  0  0  0  0  0  0  0
  -48.8268  -29.6029    5.5650 N   0  0  0  0  0  0  0  0  0  0  0  0
  -45.4072  -29.1504    6.4349 N   0  0  0  0  0  0  0  0  0  0  0  0
  -44.5196  -28.9693    4.1700 N   0  0  0  0  0  0  0  0  0  0  0  0
  -47.8051  -29.4837    6.4325 N   0  0  0  0  0  0  0  0  0  0  0  0
  -45.9103  -29.1115    2.2311 N   0  0  3  0  0  0  0  0  0  0  0  0
  -45.9901  -26.9485   -1.4892 O   0  0  0  0  0  0  0  0  0  0  0  0
  -48.8469  -29.5516    3.4813 H   0  0  0  0  0  0  0  0  0  0  0  0
  -43.4259  -28.8618    5.9227 H   0  0  0  0  0  0  0  0  0  0  0  0
  -46.4590  -34.4237   -2.7507 H   0  0  0  0  0  0  0  0  0  0  0  0
  -45.6637  -32.9010   -2.2978 H   0  0  0  0  0  0  0  0  0  0  0  0
  -46.9274  -32.9144   -3.5392 H   0  0  0  0  0  0  0  0  0  0  0  0
  -47.7991  -32.0211   -1.4008 H   0  0  0  0  0  0  0  0  0  0  0  0
  -48.6447  -33.4893   -1.8804 H   0  0  0  0  0  0  0  0  0  0  0  0
  -47.2379  -34.8016   -0.2949 H   0  0  0  0  0  0  0  0  0  0  0  0
  -48.1791  -33.5610    0.5256 H   0  0  0  0  0  0  0  0  0  0  0  0
  -45.8723  -33.6385    1.4157 H   0  0  0  0  0  0  0  0  0  0  0  0
  -45.2007  -33.3949   -0.1990 H   0  0  0  0  0  0  0  0  0  0  0  0
  -46.9774  -31.4052    1.3002 H   0  0  0  0  0  0  0  0  0  0  0  0
  -46.3509  -31.1669   -0.3330 H   0  0  0  0  0  0  0  0  0  0  0  0
  -44.6384  -31.5392    2.1836 H   0  0  0  0  0  0  0  0  0  0  0  0
  -44.0058  -31.3517    0.5475 H   0  0  0  0  0  0  0  0  0  0  0  0
  -48.0310  -28.0096   -0.2141 H   0  0  0  0  0  0  0  0  0  0  0  0
  -46.7553  -29.1950   -0.4001 H   0  0  0  0  0  0  0  0  0  0  0  0
  -43.9225  -29.2020    1.7624 H   0  0  0  0  0  0  0  0  0  0  0  0
  -45.0239  -29.0799    0.3779 H   0  0  0  0  0  0  0  0  0  0  0  0
  -47.5165  -27.7862    2.2334 H   0  0  0  0  0  0  0  0  0  0  0  0
  -47.9035  -29.4576    1.7884 H   0  0  0  0  0  0  0  0  0  0  0  0
  -45.0518  -27.4507    0.2613 H   0  0  0  0  0  0  0  0  0  0  0  0
  -46.3695  -26.2595    0.4050 H   0  0  0  0  0  0  0  0  0  0  0  0
  -48.0062  -29.5371    7.4232 H   0  0  0  0  0  0  0  0  0  0  0  0
  -45.3505  -26.2307   -1.6234 H   0  0  0  0  0  0  0  0  0  0  0  0
  1  3  1  0  0  0  0
  1 16  2  0  0  0  0
  2 17  2  0  0  0  0
  2 18  1  0  0  0  0
  3  4  2  0  0  0  0
  3  5  1  0  0  0  0
  4 17  1  0  0  0  0
  4 19  1  0  0  0  0
  5 18  2  0  0  0  0
  5 20  1  0  0  0  0
  6  7  1  0  0  0  0
  7  8  1  0  0  0  0
  8  9  1  0  0  0  0
  9 10  1  0  0  0  0
 10 11  1  0  0  0  0
 11 13  1  0  0  0  0
 12 14  1  0  0  0  0
 12 15  1  0  0  0  0
 13 20  1  0  0  0  0
 14 20  1  0  0  0  0
 15 21  1  0  0  0  0
 16 19  1  0  0  0  0
  1 22  1  0  0  0  0
  2 23  1  0  0  0  0
  6 24  1  0  0  0  0
  6 25  1  0  0  0  0
  6 26  1  0  0  0  0
  7 27  1  0  0  0  0
  7 28  1  0  0  0  0
  8 29  1  0  0  0  0
  8 30  1  0  0  0  0
  9 31  1  0  0  0  0
  9 32  1  0  0  0  0
 10 33  1  0  0  0  0
 10 34  1  0  0  0  0
 11 35  1  0  0  0  0
 11 36  1  0  0  0  0
 12 37  1  0  0  0  0
 12 38  1  0  0  0  0
 13 39  1  0  0  0  0
 13 40  1  0  0  0  0
 14 41  1  0  0  0  0
 14 42  1  0  0  0  0
 15 43  1  0  0  0  0
 15 44  1  0  0  0  0
 19 45  1  0  0  0  0
 21 46  1  0  0  0  0
M  END
> <POSIT::Probability>
0.33

> <POSIT::Method>
HYBRID

> <ReceptorTitle>
UCSF-P4643-REFINED_LIGAND-BOUND-STATE_AALTB__DU__LA1_A-201(A)

> <OMEGA_C>
APFAwprq68Hg14tAmrMxwijt58Fvr7BAZGA7wuxk6sEEAI9AqWI6wkBm6sFIj7pA1QA3wnMB6cEY
I2hAEHk6wsNqBcIacSXAirg+wndrBMJYYsO/6F49wh7eBsKAhym+Vjg4wiikBMIAfeQ+9o84wowl
/cGg4SE/vlkzwgWj+MGIspo/azI8wml14sGgATM++Hozwvh97MFomKw/3LU8wg805cEAlNM/8TY4
whd42cEAcrW9qk5DwrzS7MFIFLJA/qA1whA06cHP6s1AGBQywi3B58GScIVAbDg/wqre68Hy1s1A
GaQ3wkDk6MH0yQ5A1fU3wnCW18HAnb6/PGNDwq1p7MH8zF5AKbQtwv/k5sEmh71ADNY5wuKxCcJA
CzDAq6c2wqqaA8LGDxPAnLU7wlKoA8KMgmLASDI/wpQVAMIUTbO/L5RCwhP1BcIwsPC/kfM8wuA0
C8Jg+Ja+brdAwnY+BsKgjAY/O303wtuNBsLwNrU/es00wmyUBcJgzEu+3Og7wso9+8EYbKY/VGc5
wtxV+cHQeaq+so0ywkpQ/MF0vwtA6AUwwkbQ+sH4Kww/xh9AwpsT4MGAM1u+bQU7wmCP6cEQ2sy+
qLAvwqid6cHIleE/dBg0wrGj6MHwe8E+4xA+whFK3sF87w5AM50/wiyp68GQ6eQ/ADU0wgib28GQ
xoU+X3o5wmAT0sHwXM8+TgZAwuNL7MGuiu1A7WY1wo7Y0cGcy8+/

> <OMEGA_E>
n5MewQ==

> <OMEGA_NBR>
     11509

$$$$
CACHE3HI_1717_90
  -OEChem-03092622523D

 44 45  0     1  0  0  0  0  0999 V2000
  -47.9594  -29.6934    4.6472 C   0  0  0  0  0  0  0  0  0  0  0  0
  -43.9610  -29.2067    5.6574 C   0  0  0  0  0  0  0  0  0  0  0  0
  -46.4960  -29.5904    4.7558 C   0  0  0  0  0  0  0  0  0  0  0  0
  -46.2413  -29.2871    6.0917 C   0  0  0  0  0  0  0  0  0  0  0  0
  -45.4051  -29.6958    3.8562 C   0  0  0  0  0  0  0  0  0  0  0  0
  -43.5381  -27.6213    0.2671 C   0  0  0  0  0  0  0  0  0  0  0  0
  -46.4422  -34.2208    0.4878 C   0  0  0  0  0  0  0  0  0  0  0  0
  -42.8479  -33.5562    2.9782 C   0  0  0  0  0  0  0  0  0  0  0  0
  -44.5958  -28.0526    1.2960 C   0  0  0  0  0  0  0  0  0  0  0  0
  -45.1750  -33.5441    1.0494 C   0  0  0  0  0  0  0  0  0  0  0  0
  -44.0635  -32.6405    3.1430 C   0  0  0  0  0  0  0  0  0  0  0  0
  -44.5527  -29.5756    1.4801 C   0  0  0  0  0  0  0  0  0  0  0  0
  -46.6228  -31.0000    2.0450 C   0  0  0  0  0  0  0  0  0  0  0  0
  -46.5512  -32.3518    2.8159 C   0  0  0  0  0  0  0  0  0  0  0  0
  -48.4763  -29.4807    5.8350 N   0  0  0  0  0  0  0  0  0  0  0  0
  -44.9850  -29.0996    6.5377 N   0  0  0  0  0  0  0  0  0  0  0  0
  -44.1495  -29.4884    4.3407 N   0  0  0  0  0  0  0  0  0  0  0  0
  -47.4675  -29.2346    6.7283 N   0  0  0  0  0  0  0  0  0  0  0  0
  -45.5720  -30.0261    2.4892 N   0  0  3  0  0  0  0  0  0  0  0  0
  -45.3204  -33.1557    2.4947 N   0  0  0  0  0  0  0  0  0  0  0  0
  -48.5135  -29.9072    3.7452 H   0  0  0  0  0  0  0  0  0  0  0  0
  -42.9527  -29.0622    6.0164 H   0  0  0  0  0  0  0  0  0  0  0  0
  -43.5738  -26.5293    0.1395 H   0  0  0  0  0  0  0  0  0  0  0  0
  -42.5396  -27.9163    0.6221 H   0  0  0  0  0  0  0  0  0  0  0  0
  -43.7437  -28.1098   -0.6968 H   0  0  0  0  0  0  0  0  0  0  0  0
  -46.2811  -34.4828   -0.5683 H   0  0  0  0  0  0  0  0  0  0  0  0
  -46.6560  -35.1335    1.0634 H   0  0  0  0  0  0  0  0  0  0  0  0
  -47.2934  -33.5288    0.5681 H   0  0  0  0  0  0  0  0  0  0  0  0
  -41.9783  -33.1059    3.4792 H   0  0  0  0  0  0  0  0  0  0  0  0
  -43.0636  -34.5363    3.4286 H   0  0  0  0  0  0  0  0  0  0  0  0
  -42.6284  -33.6848    1.9080 H   0  0  0  0  0  0  0  0  0  0  0  0
  -44.3894  -27.5626    2.2589 H   0  0  0  0  0  0  0  0  0  0  0  0
  -45.5934  -27.7561    0.9400 H   0  0  0  0  0  0  0  0  0  0  0  0
  -44.3309  -34.2432    0.9555 H   0  0  0  0  0  0  0  0  0  0  0  0
  -44.9684  -32.6385    0.4602 H   0  0  0  0  0  0  0  0  0  0  0  0
  -44.2571  -32.5154    4.2186 H   0  0  0  0  0  0  0  0  0  0  0  0
  -43.8219  -31.6640    2.6980 H   0  0  0  0  0  0  0  0  0  0  0  0
  -44.7631  -30.0605    0.5155 H   0  0  0  0  0  0  0  0  0  0  0  0
  -43.5504  -29.8677    1.8265 H   0  0  0  0  0  0  0  0  0  0  0  0
  -46.4876  -31.1990    0.9716 H   0  0  0  0  0  0  0  0  0  0  0  0
  -47.6128  -30.5508    2.2127 H   0  0  0  0  0  0  0  0  0  0  0  0
  -46.5575  -32.1390    3.8951 H   0  0  0  0  0  0  0  0  0  0  0  0
  -47.4368  -32.9498    2.5549 H   0  0  0  0  0  0  0  0  0  0  0  0
  -47.5990  -29.0443    7.7012 H   0  0  0  0  0  0  0  0  0  0  0  0
  1  3  1  0  0  0  0
  1 15  2  0  0  0  0
  2 16  2  0  0  0  0
  2 17  1  0  0  0  0
  3  4  2  0  0  0  0
  3  5  1  0  0  0  0
  4 16  1  0  0  0  0
  4 18  1  0  0  0  0
  5 17  2  0  0  0  0
  5 19  1  0  0  0  0
  6  9  1  0  0  0  0
  7 10  1  0  0  0  0
  8 11  1  0  0  0  0
  9 12  1  0  0  0  0
 10 20  1  0  0  0  0
 11 20  1  0  0  0  0
 12 19  1  0  0  0  0
 13 14  1  0  0  0  0
 13 19  1  0  0  0  0
 14 20  1  0  0  0  0
 15 18  1  0  0  0  0
  1 21  1  0  0  0  0
  2 22  1  0  0  0  0
  6 23  1  0  0  0  0
  6 24  1  0  0  0  0
  6 25  1  0  0  0  0
  7 26  1  0  0  0  0
  7 27  1  0  0  0  0
  7 28  1  0  0  0  0
  8 29  1  0  0  0  0
  8 30  1  0  0  0  0
  8 31  1  0  0  0  0
  9 32  1  0  0  0  0
  9 33  1  0  0  0  0
 10 34  1  0  0  0  0
 10 35  1  0  0  0  0
 11 36  1  0  0  0  0
 11 37  1  0  0  0  0
 12 38  1  0  0  0  0
 12 39  1  0  0  0  0
 13 40  1  0  0  0  0
 13 41  1  0  0  0  0
 14 42  1  0  0  0  0
 14 43  1  0  0  0  0
 18 44  1  0  0  0  0
M  END
> <POSIT::Probability>
0.43

> <POSIT::Method>
SHAPEFIT

> <ReceptorTitle>
UCSF-P4643-REFINED_LIGAND-BOUND-STATE_AALTB__DU__LA1_A-201(A)

> <OMEGA_C>
etY/wgWM7cE+tpRAE9gvwj2n6cFFCbVA7/s5wj257MFHL5hAHPc4wuhL6sF778JAzZ41wvKQ7cGA
zHZA+iYuwlj43MHtvog+w8Q5whniCML0xfk+RWQrwow5BsKemj5AEGIywsJr4MH04aU/NbM0wict
BsJEU4Y/B0EwwtmPAsIkJ0lA/zUywtqa7MFWdb0/yH06wvn/98Fe4QJAcTQ6wjZoAcJ4NzRAvudB
wnTY68GguLpAq/Azwv/L6ME7NdFAGJkwwibo68ET54pAvN49wmvg6cGGTtdAsUk2wmQ18MFmTx9A
I0g1wnufBMLeqR9A1g1CwvJB78FMsW9Ams8rwmR/6MGOhsBAl0suwvM71MF51w4+kigqwptU38Gg
Qx8/gfkuwvHg4MEWYDK/2h85wmjuCcKOexG/vJ86wq2IDMI+Hog/eiw9wnwdBsKpbxE/0uknwmps
BMKhq15AGkEswiklCsL1bltAb4Mqwke9BsJBOvQ/v44xwhyA3MHIkRBArl82wnMM3sFqo3A/5FIx
wgf5CMJWmXQ/o98zwtaNAsIGmes+SgcxwsoPAsK6/oZAn0kvws9P/cGgqyxAbg0zwgB88MGA9gM/
lzMuwh3x7sGayuk/QfM5wnyX+cGdvXg/jnM+whto9MFinQ1A1To6wlGOAMIoSXlAR789wpzMA8JK
hCNAZ2U+wqxa6MFUcPZA

> <OMEGA_E>
FD1HPw==

> <OMEGA_NBR>
     12919

$$$$
CACHE3-HO_1690_17
  -OEChem-03092622523D

 46 48  0     1  0  0  0  0  0999 V2000
  -44.6233  -29.2945    5.8185 C   0  0  0  0  0  0  0  0  0  0  0  0
  -47.1962  -29.3345    5.1319 C   0  0  0  0  0  0  0  0  0  0  0  0
  -48.6131  -29.2783    5.1659 C   0  0  0  0  0  0  0  0  0  0  0  0
  -48.9865  -29.0170    6.4671 C   0  0  0  0  0  0  0  0  0  0  0  0
  -46.7502  -29.1034    6.4273 C   0  0  0  0  0  0  0  0  0  0  0  0
  -46.2171  -29.5540    4.1638 C   0  0  0  0  0  0  0  0  0  0  0  0
  -47.6684  -31.1979    1.1348 C   0  0  0  0  0  0  0  0  0  0  0  0
  -47.0850  -30.3726   -0.0070 C   0  0  0  0  0  0  0  0  0  0  0  0
  -46.7851  -31.1718    2.3768 C   0  0  0  0  0  0  0  0  0  0  0  0
  -46.8023  -28.6942    1.8994 C   0  0  0  0  0  0  0  0  0  0  0  0
  -46.4064  -29.0762    0.4636 C   0  0  1  0  0  0  0  0  0  0  0  0
  -49.5332  -29.4635    4.0244 C   0  0  0  0  0  0  0  0  0  0  0  0
  -50.3205  -28.8562    7.0782 C   0  0  0  0  0  0  0  0  0  0  0  0
  -41.9809  -31.1475    1.8918 C   0  0  0  0  0  0  0  0  0  0  0  0
  -44.8823  -29.1662    0.3156 C   0  0  0  0  0  0  0  0  0  0  0  0
  -45.4720  -29.0697    6.8425 N   0  0  0  0  0  0  0  0  0  0  0  0
  -44.9120  -29.5321    4.5193 N   0  0  0  0  0  0  0  0  0  0  0  0
  -47.8478  -28.9130    7.2241 N   0  0  0  0  0  0  0  0  0  0  0  0
  -46.5616  -29.7973    2.8341 N   0  0  3  0  0  0  0  0  0  0  0  0
  -44.3146  -29.9037    1.4325 N   0  0  0  0  0  0  0  0  0  0  0  0
  -42.7849  -29.1604    3.3780 O   0  0  0  0  0  0  0  0  0  0  0  0
  -42.0686  -28.6857    1.0071 O   0  0  0  0  0  0  0  0  0  0  0  0
  -42.7288  -29.5370    1.9783 S   0  0  0  0  0  0  0  0  0  0  0  0
  -43.5684  -29.2834    6.0701 H   0  0  0  0  0  0  0  0  0  0  0  0
  -48.6695  -30.8184    1.3882 H   0  0  0  0  0  0  0  0  0  0  0  0
  -47.8052  -32.2367    0.8035 H   0  0  0  0  0  0  0  0  0  0  0  0
  -46.3580  -30.9923   -0.5709 H   0  0  0  0  0  0  0  0  0  0  0  0
  -47.8893  -30.1322   -0.7304 H   0  0  0  0  0  0  0  0  0  0  0  0
  -47.2703  -31.7621    3.1665 H   0  0  0  0  0  0  0  0  0  0  0  0
  -45.8203  -31.6508    2.1564 H   0  0  0  0  0  0  0  0  0  0  0  0
  -46.2357  -27.8075    2.2245 H   0  0  0  0  0  0  0  0  0  0  0  0
  -47.8677  -28.4174    1.9119 H   0  0  0  0  0  0  0  0  0  0  0  0
  -46.7446  -28.2549   -0.2088 H   0  0  0  0  0  0  0  0  0  0  0  0
  -49.8253  -30.5194    3.8971 H   0  0  0  0  0  0  0  0  0  0  0  0
  -49.0730  -29.1557    3.0703 H   0  0  0  0  0  0  0  0  0  0  0  0
  -50.4541  -28.8739    4.1590 H   0  0  0  0  0  0  0  0  0  0  0  0
  -50.7280  -29.8151    7.4419 H   0  0  0  0  0  0  0  0  0  0  0  0
  -51.0602  -28.4636    6.3592 H   0  0  0  0  0  0  0  0  0  0  0  0
  -50.2844  -28.1620    7.9338 H   0  0  0  0  0  0  0  0  0  0  0  0
  -40.9434  -31.0635    2.2188 H   0  0  0  0  0  0  0  0  0  0  0  0
  -42.0292  -31.4944    0.8588 H   0  0  0  0  0  0  0  0  0  0  0  0
  -42.5353  -31.8204    2.5474 H   0  0  0  0  0  0  0  0  0  0  0  0
  -44.6408  -29.6726   -0.6211 H   0  0  0  0  0  0  0  0  0  0  0  0
  -44.4612  -28.1594    0.2789 H   0  0  0  0  0  0  0  0  0  0  0  0
  -47.8190  -28.7279    8.2174 H   0  0  0  0  0  0  0  0  0  0  0  0
  -44.9920  -30.1691    2.1704 H   0  0  0  0  0  0  0  0  0  0  0  0
  1 16  1  0  0  0  0
  1 17  2  0  0  0  0
  2  3  1  0  0  0  0
  2  5  1  0  0  0  0
  2  6  2  0  0  0  0
  3  4  2  0  0  0  0
  3 12  1  0  0  0  0
  4 13  1  0  0  0  0
  4 18  1  0  0  0  0
  5 16  2  0  0  0  0
  5 18  1  0  0  0  0
  6 17  1  0  0  0  0
  6 19  1  0  0  0  0
  7  8  1  0  0  0  0
  7  9  1  0  0  0  0
  8 11  1  0  0  0  0
  9 19  1  0  0  0  0
 10 11  1  0  0  0  0
 10 19  1  0  0  0  0
 11 15  1  0  0  0  0
 14 23  1  0  0  0  0
 15 20  1  0  0  0  0
 20 23  1  0  0  0  0
 21 23  2  0  0  0  0
 22 23  2  0  0  0  0
  1 24  1  0  0  0  0
  7 25  1  0  0  0  0
  7 26  1  0  0  0  0
  8 27  1  0  0  0  0
  8 28  1  0  0  0  0
  9 29  1  0  0  0  0
  9 30  1  0  0  0  0
 10 31  1  0  0  0  0
 10 32  1  0  0  0  0
 11 33  1  0  0  0  0
 12 34  1  0  0  0  0
 12 35  1  0  0  0  0
 12 36  1  0  0  0  0
 13 37  1  0  0  0  0
 13 38  1  0  0  0  0
 13 39  1  0  0  0  0
 14 40  1  0  0  0  0
 14 41  1  0  0  0  0
 14 42  1  0  0  0  0
 15 43  1  0  0  0  0
 15 44  1  0  0  0  0
 18 45  1  0  0  0  0
 20 46  1  0  0  0  0
M  END
> <POSIT::Probability>
0.33

> <POSIT::Method>
HYBRID

> <ReceptorTitle>
UCSF-P4652-REFINED_LIGAND-BOUND-STATE_A__DU__LA1_A-201(A)

> <OMEGA_C>
TH4ywjZb6sFwMbpA5Mg8whet6sF2OKRAyHNCwuI56sE+T6VANvJDwrci6MGo8s5AKQA7wt3T6ME8
rM1AUN44wrBu7MGiPYVAbqw+wkKV+cEXQZE/BVc8whv78sEA5eS77CM7wuFf+cEJHhhAkDU7wqiN
5cHNH/M/JaA5wgOc6MFUXe0++iFGwlO168GAx4BAO0hJwm7Z5sGUgOJAaOwnwh0u+cGCJfI/dIcz
wkxU6cHskKE+TeM1wsWO6MFn9dpA5aUzwrhB7MHOnZBAJ2Q/wutN58EYLOdAFz86wvZg7sGeYjVA
HEIxwsg678GTWrc/wiMrwolI6cEnMVhAREYowmZ85cGE54A/RuoqwttL7MFuN/0/A0YuwlRE6sGk
PsJAia1CwgmM9sEusbE/fDg/wlnyAML0sE0/nm45wibw98F+JRK/oY4/wr4O8cG8+jq/1RQ9wtkY
/sGbqEpA9Uc3wsE0/cF1AgpAWPE4wsV13sH+Xg5AjHg/wr5W48EQuPQ/d/o6wgQK4sFg0VW+Fk1H
wrkn9MEOanlAu0pEwvY+6cEDgERAA9FJws395sG+FoVAb+lKwliF7sH0I+5Asj1MwoO148HCfstA
RCNJwrNL4cHY4f1AEsYjwhKC+MGGAA5A7x0ownn0+8Gi3Fs/MSQqwkKQ/sESCCNANZAywoFh7cH8
/h6/QtgxwoJG4cFwyY4+o0Y/wq/S5cFEegNByPczwlda8cHk5wpA

> <OMEGA_E>
xPgkwQ==

> <OMEGA_NBR>
      1423

$$$$
CACHE3-HO_1690_22
  -OEChem-03092622523D

 39 42  0     1  0  0  0  0  0999 V2000
  -44.2180  -29.4162    6.1528 C   0  0  0  0  0  0  0  0  0  0  0  0
  -46.5847  -29.3708    4.9324 C   0  0  0  0  0  0  0  0  0  0  0  0
  -47.9746  -29.2776    4.6651 C   0  0  0  0  0  0  0  0  0  0  0  0
  -48.6123  -29.0386    5.8639 C   0  0  0  0  0  0  0  0  0  0  0  0
  -46.4214  -29.1836    6.2994 C   0  0  0  0  0  0  0  0  0  0  0  0
  -45.4260  -29.5923    4.1893 C   0  0  0  0  0  0  0  0  0  0  0  0
  -45.8084  -29.3831    0.5226 C   0  0  0  0  0  0  0  0  0  0  0  0
  -45.4025  -28.7180    1.8382 C   0  0  0  0  0  0  0  0  0  0  0  0
  -45.5702  -31.1092    2.1962 C   0  0  0  0  0  0  0  0  0  0  0  0
  -45.9098  -31.8628   -0.3064 C   0  0  0  0  0  0  0  0  0  0  0  0
  -43.8789  -31.0874    0.2132 C   0  0  0  0  0  0  0  0  0  0  0  0
  -45.3394  -30.8253    0.7020 C   0  0  0  0  0  0  0  0  0  0  0  0
  -48.6329  -29.4102    3.3486 C   0  0  0  0  0  0  0  0  0  0  0  0
  -50.0425  -28.8575    6.1810 C   0  0  0  0  0  0  0  0  0  0  0  0
  -45.2612  -29.1942    6.9784 N   0  0  0  0  0  0  0  0  0  0  0  0
  -44.2270  -29.6139    4.8154 N   0  0  0  0  0  0  0  0  0  0  0  0
  -47.6599  -28.9838    6.8491 N   0  0  0  0  0  0  0  0  0  0  0  0
  -45.4824  -29.7912    2.8257 N   0  0  3  0  0  0  0  0  0  0  0  0
  -43.9177  -32.9035   -1.7375 O   0  0  0  0  0  0  0  0  0  0  0  0
  -44.2293  -33.6985    0.6587 O   0  0  0  0  0  0  0  0  0  0  0  0
  -44.3483  -32.6897   -0.3724 S   0  0  0  0  0  0  0  0  0  0  0  0
  -43.2413  -29.4394    6.6238 H   0  0  0  0  0  0  0  0  0  0  0  0
  -46.8816  -29.2954    0.3283 H   0  0  0  0  0  0  0  0  0  0  0  0
  -45.2703  -28.9105   -0.3084 H   0  0  0  0  0  0  0  0  0  0  0  0
  -44.3982  -28.2866    1.7780 H   0  0  0  0  0  0  0  0  0  0  0  0
  -46.1150  -27.9245    2.0937 H   0  0  0  0  0  0  0  0  0  0  0  0
  -46.5382  -31.5871    2.3828 H   0  0  0  0  0  0  0  0  0  0  0  0
  -44.7789  -31.7491    2.6027 H   0  0  0  0  0  0  0  0  0  0  0  0
  -46.7265  -32.4965    0.0578 H   0  0  0  0  0  0  0  0  0  0  0  0
  -46.1925  -31.4598   -1.2873 H   0  0  0  0  0  0  0  0  0  0  0  0
  -43.5460  -30.4383   -0.6007 H   0  0  0  0  0  0  0  0  0  0  0  0
  -43.1156  -31.1111    0.9923 H   0  0  0  0  0  0  0  0  0  0  0  0
  -48.9128  -30.4544    3.1306 H   0  0  0  0  0  0  0  0  0  0  0  0
  -47.9729  -29.0913    2.5243 H   0  0  0  0  0  0  0  0  0  0  0  0
  -49.5488  -28.7997    3.3013 H   0  0  0  0  0  0  0  0  0  0  0  0
  -50.5381  -29.8139    6.4207 H   0  0  0  0  0  0  0  0  0  0  0  0
  -50.6030  -28.4278    5.3328 H   0  0  0  0  0  0  0  0  0  0  0  0
  -50.1758  -28.1858    7.0449 H   0  0  0  0  0  0  0  0  0  0  0  0
  -47.8404  -28.8240    7.8307 H   0  0  0  0  0  0  0  0  0  0  0  0
  1 15  1  0  0  0  0
  1 16  2  0  0  0  0
  2  3  1  0  0  0  0
  2  5  1  0  0  0  0
  2  6  2  0  0  0  0
  3  4  2  0  0  0  0
  3 13  1  0  0  0  0
  4 14  1  0  0  0  0
  4 17  1  0  0  0  0
  5 15  2  0  0  0  0
  5 17  1  0  0  0  0
  6 16  1  0  0  0  0
  6 18  1  0  0  0  0
  7  8  1  0  0  0  0
  7 12  1  0  0  0  0
  8 18  1  0  0  0  0
  9 12  1  0  0  0  0
  9 18  1  0  0  0  0
 10 12  1  0  0  0  0
 10 21  1  0  0  0  0
 11 12  1  0  0  0  0
 11 21  1  0  0  0  0
 19 21  2  0  0  0  0
 20 21  2  0  0  0  0
  1 22  1  0  0  0  0
  7 23  1  0  0  0  0
  7 24  1  0  0  0  0
  8 25  1  0  0  0  0
  8 26  1  0  0  0  0
  9 27  1  0  0  0  0
  9 28  1  0  0  0  0
 10 29  1  0  0  0  0
 10 30  1  0  0  0  0
 11 31  1  0  0  0  0
 11 32  1  0  0  0  0
 13 33  1  0  0  0  0
 13 34  1  0  0  0  0
 13 35  1  0  0  0  0
 14 36  1  0  0  0  0
 14 37  1  0  0  0  0
 14 38  1  0  0  0  0
 17 39  1  0  0  0  0
M  END
> <POSIT::Probability>
0.42

> <POSIT::Method>
HYBRID

> <ReceptorTitle>
UCSF-P4652-REFINED_LIGAND-BOUND-STATE_A__DU__LA1_A-201(A)

> <OMEGA_C>
Rt8wwnNU68HT48RAvVY6wkz36sE01p1A/uU/wp446sHSSJVA9HJCwiJP6MF3pbtAh685wht46cGe
lMlAMLQ1wh697MFeDoZAwzs3wn4Q68HEyAU/NJw1wo6+5cHISes/3Uc2wqjf+MEijgxAm6M3whbn
/sFg3py+/IMvwuqy+MFgW1o+h1s1wkWa9sE4uTM/CohCwgBI68GeT1ZAfCtIwizc5sGfysVAeQs1
wryN6cFCT99AZugwwkrp7MGgF5pAwaM+wsze58EqLNtA+u01wnhU7sGy2DRAxqsvwiSdA8KkZd6/
y+owwknLBsLYoig/tGQxwkLCAsKYq76+GfcswtCD68F29tNAwoY7wvRc6sHwEag+0RQ1wspI58EA
7Z2+y5cxwuhK4sGYluM/unU4wlFl38Hj/gVAESc6wnKy/MGqfxhAkx0zwjr+/cEDkyZA+uc6wmj8
AcIAjWw9JsU4wrKt+8GwxqS/Iy8uwqiB88HUxhm/U3Yswn3j+MHWBn4/uKZDwp6i88HoW0hASuQ/
wvy66MFsjSFABDJGwtpl5sEoSFNA+SZKwvKC7sFwds1Ab2lKwihs48FqpqpAELRIwo584cHZb+FA
jlw/woeX5sFAlfpA

> <OMEGA_E>
DnEewQ==

> <OMEGA_NBR>
      2710

$$$$
CACHE3-HO_1690_27
  -OEChem-03092622523D

 44 47  0     1  0  0  0  0  0999 V2000
  -44.5963  -28.9982    6.2896 C   0  0  0  0  0  0  0  0  0  0  0  0
  -47.0883  -29.4331    5.4568 C   0  0  0  0  0  0  0  0  0  0  0  0
  -48.4936  -29.6203    5.4131 C   0  0  0  0  0  0  0  0  0  0  0  0
  -48.9676  -29.5047    6.7026 C   0  0  0  0  0  0  0  0  0  0  0  0
  -46.7505  -29.2078    6.7855 C   0  0  0  0  0  0  0  0  0  0  0  0
  -46.0414  -29.4248    4.5359 C   0  0  0  0  0  0  0  0  0  0  0  0
  -47.7324  -29.4280    1.2022 C   0  0  0  0  0  0  0  0  0  0  0  0
  -46.6422  -29.9489    0.2722 C   0  0  0  0  0  0  0  0  0  0  0  0
  -47.1593  -28.7398    2.4357 C   0  0  0  0  0  0  0  0  0  0  0  0
  -45.7366  -30.8230    2.4962 C   0  0  0  0  0  0  0  0  0  0  0  0
  -43.3671  -27.9879    2.1768 C   0  0  0  0  0  0  0  0  0  0  0  0
  -42.8773  -29.3188    2.6788 C   0  0  0  0  0  0  0  0  0  0  0  0
  -45.4307  -30.5290    1.0185 C   0  0  2  0  0  0  0  0  0  0  0  0
  -44.2211  -29.6253    0.8802 C   0  0  0  0  0  0  0  0  0  0  0  0
  -49.3129  -29.8903    4.2131 C   0  0  0  0  0  0  0  0  0  0  0  0
  -50.3367  -29.6096    7.2443 C   0  0  0  0  0  0  0  0  0  0  0  0
  -45.5184  -28.9825    7.2738 N   0  0  0  0  0  0  0  0  0  0  0  0
  -44.7779  -29.2030    4.9656 N   0  0  0  0  0  0  0  0  0  0  0  0
  -47.9009  -29.2546    7.5274 N   0  0  0  0  0  0  0  0  0  0  0  0
  -46.2754  -29.6428    3.1787 N   0  0  3  0  0  0  0  0  0  0  0  0
  -44.5271  -28.3339    1.4222 O   0  0  0  0  0  0  0  0  0  0  0  0
  -43.1033  -30.1950    1.5748 O   0  0  0  0  0  0  0  0  0  0  0  0
  -43.5722  -28.8233    6.6010 H   0  0  0  0  0  0  0  0  0  0  0  0
  -48.3823  -28.7289    0.6605 H   0  0  0  0  0  0  0  0  0  0  0  0
  -48.3728  -30.2624    1.5148 H   0  0  0  0  0  0  0  0  0  0  0  0
  -47.0712  -30.7358   -0.3700 H   0  0  0  0  0  0  0  0  0  0  0  0
  -46.3207  -29.1456   -0.4094 H   0  0  0  0  0  0  0  0  0  0  0  0
  -46.6098  -27.8434    2.1169 H   0  0  0  0  0  0  0  0  0  0  0  0
  -47.9789  -28.4062    3.0879 H   0  0  0  0  0  0  0  0  0  0  0  0
  -46.4650  -31.6452    2.5598 H   0  0  0  0  0  0  0  0  0  0  0  0
  -44.8194  -31.1697    2.9947 H   0  0  0  0  0  0  0  0  0  0  0  0
  -43.6185  -27.2875    2.9769 H   0  0  0  0  0  0  0  0  0  0  0  0
  -42.6449  -27.5215    1.4979 H   0  0  0  0  0  0  0  0  0  0  0  0
  -41.8217  -29.3151    2.9610 H   0  0  0  0  0  0  0  0  0  0  0  0
  -43.4776  -29.6759    3.5226 H   0  0  0  0  0  0  0  0  0  0  0  0
  -45.1626  -31.4811    0.5303 H   0  0  0  0  0  0  0  0  0  0  0  0
  -43.9530  -29.5127   -0.1746 H   0  0  0  0  0  0  0  0  0  0  0  0
  -49.4120  -30.9708    4.0158 H   0  0  0  0  0  0  0  0  0  0  0  0
  -48.8683  -29.4522    3.3037 H   0  0  0  0  0  0  0  0  0  0  0  0
  -50.3272  -29.4747    4.3251 H   0  0  0  0  0  0  0  0  0  0  0  0
  -50.5891  -30.6438    7.5349 H   0  0  0  0  0  0  0  0  0  0  0  0
  -51.0983  -29.3059    6.5054 H   0  0  0  0  0  0  0  0  0  0  0  0
  -50.4614  -28.9719    8.1348 H   0  0  0  0  0  0  0  0  0  0  0  0
  -47.9515  -29.1271    8.5288 H   0  0  0  0  0  0  0  0  0  0  0  0
  1 17  1  0  0  0  0
  1 18  2  0  0  0  0
  2  3  1  0  0  0  0
  2  5  1  0  0  0  0
  2  6  2  0  0  0  0
  3  4  2  0  0  0  0
  3 15  1  0  0  0  0
  4 16  1  0  0  0  0
  4 19  1  0  0  0  0
  5 17  2  0  0  0  0
  5 19  1  0  0  0  0
  6 18  1  0  0  0  0
  6 20  1  0  0  0  0
  7  8  1  0  0  0  0
  7  9  1  0  0  0  0
  8 13  1  0  0  0  0
  9 20  1  0  0  0  0
 10 13  1  0  0  0  0
 10 20  1  0  0  0  0
 11 12  1  0  0  0  0
 11 21  1  0  0  0  0
 12 22  1  0  0  0  0
 13 14  1  0  0  0  0
 14 21  1  0  0  0  0
 14 22  1  0  0  0  0
  1 23  1  0  0  0  0
  7 24  1  0  0  0  0
  7 25  1  0  0  0  0
  8 26  1  0  0  0  0
  8 27  1  0  0  0  0
  9 28  1  0  0  0  0
  9 29  1  0  0  0  0
 10 30  1  0  0  0  0
 10 31  1  0  0  0  0
 11 32  1  0  0  0  0
 11 33  1  0  0  0  0
 12 34  1  0  0  0  0
 12 35  1  0  0  0  0
 13 36  1  0  0  0  0
 14 37  1  0  0  0  0
 15 38  1  0  0  0  0
 15 39  1  0  0  0  0
 15 40  1  0  0  0  0
 16 41  1  0  0  0  0
 16 42  1  0  0  0  0
 16 43  1  0  0  0  0
 19 44  1  0  0  0  0
M  END
> <POSIT::Probability>
0.5

> <POSIT::Method>
HYBRID

> <ReceptorTitle>
UCSF-P4652-REFINED_LIGAND-BOUND-STATE_A__DU__LA1_A-201(A)

> <OMEGA_C>
m2Iywmb858FaRMlAYVo8wv5268G9na5AbvlBwl/27MHSN61Azt5DwpIJ7MF6e9ZAhgA7woip6cGg
ItlAXCo4wgJm68EBJpFA++0+wpZs68Gs4pk/p5E6wlqX78EQW4s+IKM8whnr5cFI4xtARPI2woiV
9sGEwR9A6nctwjTn38E7UQtAX4IrwviM6sEQcStA/7g1wmA79MFeX4I/YOIwwqoA7cGYUmE/ckBF
wkIf78HK0YZAvVhJwm/g7MEg0edA1hI2wjzc58HMwuhAmBwzwr6f6cE45p5Aj5o/wmAJ6sEm4PBA
CBo5wm0k7cGUb0tAuRsyws6r4sEeCbY/ymkswmiP8cG8kck/50kuwhGW5sEmO9NAfodBwrvU5cHI
Eyk/wX1BwmYZ8sFY5sE/9Eg8wuzi9cEQcb2+bEg5wh0q6cFgl9G+fHA6wlW/3sHlewdAWuo/wu8/
48HooEVAMtw5wncp/cE01CNAFUczwppb+cHYqT9AVnkuwrZM2sFKhj5AXpQqwhos3MEivL8/YEkn
wkeF6sFmgD1ADektwk5o7cEAcmFAiKY0wjHZ+8GUwgc/2s8vwvIZ7MFAxTK+6aVFwj7E98FygYBA
F3lDwg6e68Ggb1NAAU9JwiTM68F5Z4pAQ1tKwo4m9cG7HfFAnGRMwn1y6sEwLNBAethJwnbG58FW
KAJBSs4/wkoE6cHOdQhB

> <OMEGA_E>
gWopwQ==

> <OMEGA_NBR>
      4098

$$$$
CACHE3-HO_1690_30
  -OEChem-03092622523D

 47 49  0     0  0  0  0  0  0999 V2000
  -44.5210  -29.0701    6.2009 C   0  0  0  0  0  0  0  0  0  0  0  0
  -46.9933  -29.2131    5.2211 C   0  0  0  0  0  0  0  0  0  0  0  0
  -48.4052  -29.2685    5.0974 C   0  0  0  0  0  0  0  0  0  0  0  0
  -48.9355  -29.2088    6.3687 C   0  0  0  0  0  0  0  0  0  0  0  0
  -46.7086  -29.1209    6.5779 C   0  0  0  0  0  0  0  0  0  0  0  0
  -45.9020  -29.2296    4.3535 C   0  0  0  0  0  0  0  0  0  0  0  0
  -45.7227  -31.4090    1.7516 C   0  0  0  0  0  0  0  0  0  0  0  0
  -44.1820  -29.4208    1.4450 C   0  0  0  0  0  0  0  0  0  0  0  0
  -46.7593  -30.4616    2.3559 C   0  0  0  0  0  0  0  0  0  0  0  0
  -45.2583  -28.5228    2.0632 C   0  0  0  0  0  0  0  0  0  0  0  0
  -44.7916  -30.6655    0.7800 C   0  0  0  0  0  0  0  0  0  0  0  0
  -49.1797  -29.3713    3.8429 C   0  0  0  0  0  0  0  0  0  0  0  0
  -50.3355  -29.2303    6.8361 C   0  0  0  0  0  0  0  0  0  0  0  0
  -43.4512  -34.7814   -2.3936 C   0  0  0  0  0  0  0  0  0  0  0  0
  -43.6976  -31.5946    0.2594 C   0  0  0  0  0  0  0  0  0  0  0  0
  -43.0445  -33.5715   -1.5823 C   0  0  0  0  0  0  0  0  0  0  0  0
  -45.4895  -29.0458    7.1394 N   0  0  0  0  0  0  0  0  0  0  0  0
  -44.6488  -29.1564    4.8578 N   0  0  0  0  0  0  0  0  0  0  0  0
  -47.8967  -29.1197    7.2595 N   0  0  0  0  0  0  0  0  0  0  0  0
  -46.0809  -29.3216    2.9769 N   0  0  0  0  0  0  0  0  0  0  0  0
  -45.4257  -32.4986   -1.4811 O   0  0  0  0  0  0  0  0  0  0  0  0
  -44.6882  -34.0092    0.4026 O   0  0  0  0  0  0  0  0  0  0  0  0
  -44.3885  -32.9771   -0.5790 S   0  0  0  0  0  0  0  0  0  0  0  0
  -43.5037  -29.0127    6.5725 H   0  0  0  0  0  0  0  0  0  0  0  0
  -45.1373  -31.8666    2.5555 H   0  0  0  0  0  0  0  0  0  0  0  0
  -46.2370  -32.2188    1.2266 H   0  0  0  0  0  0  0  0  0  0  0  0
  -43.6154  -28.8449    0.7059 H   0  0  0  0  0  0  0  0  0  0  0  0
  -43.4733  -29.7226    2.2249 H   0  0  0  0  0  0  0  0  0  0  0  0
  -47.4400  -30.1113    1.5753 H   0  0  0  0  0  0  0  0  0  0  0  0
  -47.3448  -31.0097    3.0983 H   0  0  0  0  0  0  0  0  0  0  0  0
  -44.7705  -27.7090    2.5989 H   0  0  0  0  0  0  0  0  0  0  0  0
  -45.8807  -28.0978    1.2757 H   0  0  0  0  0  0  0  0  0  0  0  0
  -45.3894  -30.3363   -0.0895 H   0  0  0  0  0  0  0  0  0  0  0  0
  -49.3613  -30.4203    3.5550 H   0  0  0  0  0  0  0  0  0  0  0  0
  -48.6509  -28.9074    2.9933 H   0  0  0  0  0  0  0  0  0  0  0  0
  -50.1587  -28.8753    3.9409 H   0  0  0  0  0  0  0  0  0  0  0  0
  -50.6917  -30.2565    7.0306 H   0  0  0  0  0  0  0  0  0  0  0  0
  -51.0274  -28.8036    6.0895 H   0  0  0  0  0  0  0  0  0  0  0  0
  -50.4518  -28.6534    7.7683 H   0  0  0  0  0  0  0  0  0  0  0  0
  -43.7543  -35.6003   -1.7336 H   0  0  0  0  0  0  0  0  0  0  0  0
  -44.2908  -34.5457   -3.0555 H   0  0  0  0  0  0  0  0  0  0  0  0
  -42.6228  -35.1320   -3.0178 H   0  0  0  0  0  0  0  0  0  0  0  0
  -43.0999  -31.9729    1.0862 H   0  0  0  0  0  0  0  0  0  0  0  0
  -43.0568  -31.0660   -0.4441 H   0  0  0  0  0  0  0  0  0  0  0  0
  -42.7400  -32.7483   -2.2339 H   0  0  0  0  0  0  0  0  0  0  0  0
  -42.2193  -33.8124   -0.9063 H   0  0  0  0  0  0  0  0  0  0  0  0
  -47.9893  -29.0646    8.2645 H   0  0  0  0  0  0  0  0  0  0  0  0
  1 17  2  0  0  0  0
  1 18  1  0  0  0  0
  2  3  1  0  0  0  0
  2  5  2  0  0  0  0
  2  6  1  0  0  0  0
  3  4  2  0  0  0  0
  3 12  1  0  0  0  0
  4 13  1  0  0  0  0
  4 19  1  0  0  0  0
  5 17  1  0  0  0  0
  5 19  1  0  0  0  0
  6 18  2  0  0  0  0
  6 20  1  0  0  0  0
  7  9  1  0  0  0  0
  7 11  1  0  0  0  0
  8 10  1  0  0  0  0
  8 11  1  0  0  0  0
  9 20  1  0  0  0  0
 10 20  1  0  0  0  0
 11 15  1  0  0  0  0
 14 16  1  0  0  0  0
 15 23  1  0  0  0  0
 16 23  1  0  0  0  0
 21 23  2  0  0  0  0
 22 23  2  0  0  0  0
  1 24  1  0  0  0  0
  7 25  1  0  0  0  0
  7 26  1  0  0  0  0
  8 27  1  0  0  0  0
  8 28  1  0  0  0  0
  9 29  1  0  0  0  0
  9 30  1  0  0  0  0
 10 31  1  0  0  0  0
 10 32  1  0  0  0  0
 11 33  1  0  0  0  0
 12 34  1  0  0  0  0
 12 35  1  0  0  0  0
 12 36  1  0  0  0  0
 13 37  1  0  0  0  0
 13 38  1  0  0  0  0
 13 39  1  0  0  0  0
 14 40  1  0  0  0  0
 14 41  1  0  0  0  0
 14 42  1  0  0  0  0
 15 43  1  0  0  0  0
 15 44  1  0  0  0  0
 16 45  1  0  0  0  0
 16 46  1  0  0  0  0
 19 47  1  0  0  0  0
M  END
> <POSIT::Probability>
0.5

> <POSIT::Method>
HYBRID

> <ReceptorTitle>
UCSF-P4652-REFINED_LIGAND-BOUND-STATE_A__DU__LA1_A-201(A)

> <OMEGA_C>
hRUywo6P6MHnbcZAI/k7wnq06cGYE6dA8p5BwvIl6sEIHqNA971DwqSr6cErzMtAp9U6wp736ME8
ftJAp5s3wlLW6cGdT4tAEuQ2wrNF+8EQNOA/Y7owwrpd68GI9rg/egk7wlqx88GbxxZAdQg1wrsu
5MHECgRAoiozwgBT9cE4sUc/A7hEwmL46sGr8nVAg1dJwpLX6cFxwdpABc4twiUgC8L8LxnAUcou
wsrB/MEQ0IQ+kC0swjxJBsKoiMq/NPU1wuRd6MGWdeRAZpgywkRA6cG3cptAPpY/wg716MGlTehA
41I4wpqS6sEUhT5A8rM1wpb+AcJolL2/vMAywmoJCMJgG84+0Y0xwoToA8KQNhS/vgMuwvoZ6MEE
UtJAlIw0wtXu/sEGjSNAtvI4wgDgAMJQAp0/LnYuwnPC5sFIuDQ/pOQtwt3H7cGFZA5AicI9wuLj
8MGupMk/G2E9wu4T+MEGS0ZA/hQzwvOr3cFQVCZA2IU3wmDI4MHASKM/xo41ws+w8sFAQbe9+nFF
wsxc88HwhGNAhppCwlpC58Egkj9AdqJIwrMA58EVN3xAQMRKwkwN8sGB+uBAEBxMwt5t5sFg3cJA
sc5Jwjg65cEwlvhAbQQvwq5mDsKQ592/zikxwtAuCsICjkPAx30qwimHDMKSI0HAS2YswmjI/8Gq
CIs/KjoswjaH+MHQYOO+yPUqwj/+AsK69w7AheAowuo/B8LIAmi/FvU/wkiE6ME6OwRB

> <OMEGA_E>
6foowQ==

> <OMEGA_NBR>
      5537

$$$$
CACHE3-HO_1690_4
  -OEChem-03092622523D

 49 51  0     1  0  0  0  0  0999 V2000
  -44.6977  -29.0602    5.7655 C   0  0  0  0  0  0  0  0  0  0  0  0
  -47.2551  -29.4421    5.1281 C   0  0  0  0  0  0  0  0  0  0  0  0
  -48.6654  -29.5807    5.1905 C   0  0  0  0  0  0  0  0  0  0  0  0
  -49.0430  -29.3910    6.5028 C   0  0  0  0  0  0  0  0  0  0  0  0
  -46.8172  -29.1703    6.4183 C   0  0  0  0  0  0  0  0  0  0  0  0
  -46.2762  -29.5122    4.1377 C   0  0  0  0  0  0  0  0  0  0  0  0
  -48.1979  -29.6030    0.9327 C   0  0  0  0  0  0  0  0  0  0  0  0
  -47.1937  -30.2033   -0.0450 C   0  0  0  0  0  0  0  0  0  0  0  0
  -47.5169  -28.8816    2.0901 C   0  0  0  0  0  0  0  0  0  0  0  0
  -46.1621  -31.0097    2.1495 C   0  0  0  0  0  0  0  0  0  0  0  0
  -45.9520  -30.7927    0.6421 C   0  0  2  0  0  0  0  0  0  0  0  0
  -49.5759  -29.8742    4.0640 C   0  0  0  0  0  0  0  0  0  0  0  0
  -50.3731  -29.4227    7.1422 C   0  0  0  0  0  0  0  0  0  0  0  0
  -43.1200  -31.8082    0.4617 C   0  0  0  0  0  0  0  0  0  0  0  0
  -41.5112  -30.4577    2.8207 C   0  0  0  0  0  0  0  0  0  0  0  0
  -44.7121  -29.9300    0.3753 C   0  0  0  0  0  0  0  0  0  0  0  0
  -45.5469  -28.9678    6.8092 N   0  0  0  0  0  0  0  0  0  0  0  0
  -44.9790  -29.3169    4.4682 N   0  0  0  0  0  0  0  0  0  0  0  0
  -47.9132  -29.1429    7.2393 N   0  0  0  0  0  0  0  0  0  0  0  0
  -46.6126  -29.7818    2.8117 N   0  0  3  0  0  0  0  0  0  0  0  0
  -43.5569  -30.5012    1.0456 N   0  0  2  0  0  0  0  0  0  0  0  0
  -41.3469  -29.2582    0.5059 O   0  0  0  0  0  0  0  0  0  0  0  0
  -42.8618  -28.2925    2.2660 O   0  0  0  0  0  0  0  0  0  0  0  0
  -42.2965  -29.4423    1.5870 S   0  0  0  0  0  0  0  0  0  0  0  0
  -43.6490  -28.9083    5.9968 H   0  0  0  0  0  0  0  0  0  0  0  0
  -48.8613  -28.9058    0.4050 H   0  0  0  0  0  0  0  0  0  0  0  0
  -48.8414  -30.3992    1.3276 H   0  0  0  0  0  0  0  0  0  0  0  0
  -47.6925  -31.0021   -0.6185 H   0  0  0  0  0  0  0  0  0  0  0  0
  -46.8952  -29.4431   -0.7840 H   0  0  0  0  0  0  0  0  0  0  0  0
  -46.9624  -28.0205    1.6925 H   0  0  0  0  0  0  0  0  0  0  0  0
  -48.2770  -28.4903    2.7811 H   0  0  0  0  0  0  0  0  0  0  0  0
  -46.9107  -31.8017    2.3018 H   0  0  0  0  0  0  0  0  0  0  0  0
  -45.2238  -31.3665    2.5992 H   0  0  0  0  0  0  0  0  0  0  0  0
  -45.7503  -31.7745    0.1817 H   0  0  0  0  0  0  0  0  0  0  0  0
  -49.7238  -30.9582    3.9248 H   0  0  0  0  0  0  0  0  0  0  0  0
  -49.1825  -29.4931    3.1065 H   0  0  0  0  0  0  0  0  0  0  0  0
  -50.5655  -29.4180    4.2263 H   0  0  0  0  0  0  0  0  0  0  0  0
  -50.6380  -30.4333    7.4976 H   0  0  0  0  0  0  0  0  0  0  0  0
  -51.1747  -29.1251    6.4443 H   0  0  0  0  0  0  0  0  0  0  0  0
  -50.4137  -28.7420    8.0084 H   0  0  0  0  0  0  0  0  0  0  0  0
  -42.2498  -32.1974    0.9981 H   0  0  0  0  0  0  0  0  0  0  0  0
  -43.9293  -32.5408    0.5274 H   0  0  0  0  0  0  0  0  0  0  0  0
  -42.8551  -31.6814   -0.5917 H   0  0  0  0  0  0  0  0  0  0  0  0
  -40.6803  -29.8965    3.2508 H   0  0  0  0  0  0  0  0  0  0  0  0
  -41.1496  -31.3669    2.3388 H   0  0  0  0  0  0  0  0  0  0  0  0
  -42.2479  -30.6989    3.5882 H   0  0  0  0  0  0  0  0  0  0  0  0
  -44.5330  -29.8863   -0.6997 H   0  0  0  0  0  0  0  0  0  0  0  0
  -44.8947  -28.9172    0.7362 H   0  0  0  0  0  0  0  0  0  0  0  0
  -47.8886  -28.9693    8.2348 H   0  0  0  0  0  0  0  0  0  0  0  0
  1 17  1  0  0  0  0
  1 18  2  0  0  0  0
  2  3  1  0  0  0  0
  2  5  1  0  0  0  0
  2  6  2  0  0  0  0
  3  4  2  0  0  0  0
  3 12  1  0  0  0  0
  4 13  1  0  0  0  0
  4 19  1  0  0  0  0
  5 17  2  0  0  0  0
  5 19  1  0  0  0  0
  6 18  1  0  0  0  0
  6 20  1  0  0  0  0
  7  8  1  0  0  0  0
  7  9  1  0  0  0  0
  8 11  1  0  0  0  0
  9 20  1  0  0  0  0
 10 11  1  0  0  0  0
 10 20  1  0  0  0  0
 11 16  1  0  0  0  0
 14 21  1  0  0  0  0
 15 24  1  0  0  0  0
 16 21  1  0  0  0  0
 21 24  1  0  0  0  0
 22 24  2  0  0  0  0
 23 24  2  0  0  0  0
  1 25  1  0  0  0  0
  7 26  1  0  0  0  0
  7 27  1  0  0  0  0
  8 28  1  0  0  0  0
  8 29  1  0  0  0  0
  9 30  1  0  0  0  0
  9 31  1  0  0  0  0
 10 32  1  0  0  0  0
 10 33  1  0  0  0  0
 11 34  1  0  0  0  0
 12 35  1  0  0  0  0
 12 36  1  0  0  0  0
 12 37  1  0  0  0  0
 13 38  1  0  0  0  0
 13 39  1  0  0  0  0
 13 40  1  0  0  0  0
 14 41  1  0  0  0  0
 14 42  1  0  0  0  0
 14 43  1  0  0  0  0
 15 44  1  0  0  0  0
 15 45  1  0  0  0  0
 15 46  1  0  0  0  0
 16 47  1  0  0  0  0
 16 48  1  0  0  0  0
 19 49  1  0  0  0  0
M  END
> <POSIT::Probability>
0.42

> <POSIT::Method>
HYBRID

> <ReceptorTitle>
UCSF-P4652-REFINED_LIGAND-BOUND-STATE_A__DU__LA1_A-201(A)

> <OMEGA_C>
ccoywkN76MHMfrhAQgU9woKJ68GpGaRAXalCwj6l7MF2GKZAFSxEwsgg68FKF9BAxkQ7wrBc6cHu
Ys1A3Ro5wgwZ7MFZaIRAnMpAwu3S7MH0x24/XcY8wnWg8cFAcDi9ShE+wocN58GcxAVAAqY4ws0T
+MEPkglA0c43wnVX9sE0YyQ/rk1Gwlb+7sEqDIJAD35Jwqxh68HUjORA2XoswjZ3/sFwYuw+cgsm
wm6p88EAhjRANtkywrFw78FAJcA+DjA2wgm+58Ep5dlAheozwgyJ6sHf+45AG6c/wpQk6cGKqOdA
UXM6wg1B7sEY8jNAQzouwnAC9MEq14U/Q2MlwrEQ6sEAgwE/b3IrwglX4sG1BhFAni8pwtWJ68H8
I8s/i5guwkBE58HC5b9A+nFDwgw/58GYYs8+nV1DwpQx88Ec7qk/E8U+wmAE+MH8VB6/pJQ7wnWL
68EitUi/gtk7wgYq4MGRo9g/oxtBwhXs48Ek/TFAhKQ7ws1p/sGZUBNAKOU0wpbu+sE6WSZASwA3
wicy/sHABTo+MOVGwmeq98HfL3tA57pEwunx68HX0EZAHENKwhJY68GDPYdASI1Kwmp388Gn7O9A
5rJMwiQA6cHCN85ArKdJwq3v5cGAIgBBzf8owh7KAML4hX8/k7cvwtEpAsJABgc/qGsrwptz/cGu
dxe/prgiwhss78HeDFBAM5kkwnPv+sFJrhVA4P0owm+X9cFMpWVAyiEywiwX78FUHDO/OJQzwlRW
58EQejw/8o0/wiDB58GLwQNB

> <OMEGA_E>
lGgkwQ==

> <OMEGA_NBR>
      7025

$$$$
CACHE3-HO_1715_11
  -OEChem-03092622523D

 38 40  0     1  0  0  0  0  0999 V2000
  -44.2065  -29.2730    6.5022 C   0  0  0  0  0  0  0  0  0  0  0  0
  -46.7002  -29.5307    5.4493 C   0  0  0  0  0  0  0  0  0  0  0  0
  -46.5042  -29.3064    6.8106 C   0  0  0  0  0  0  0  0  0  0  0  0
  -45.5709  -29.5832    4.6107 C   0  0  0  0  0  0  0  0  0  0  0  0
  -48.6905  -29.4659    6.3854 C   0  0  0  0  0  0  0  0  0  0  0  0
  -42.3051  -30.6417    0.9412 C   0  0  0  0  0  0  0  0  0  0  0  0
  -43.4996  -30.2198    0.0784 C   0  0  0  0  0  0  0  0  0  0  0  0
  -43.2961  -31.4084    1.8235 C   0  0  0  0  0  0  0  0  0  0  0  0
  -44.4538  -30.5254    1.2600 C   0  0  0  0  0  0  0  0  0  0  0  0
  -43.6733  -28.3719    2.5681 C   0  0  0  0  0  0  0  0  0  0  0  0
  -46.0239  -32.3948    1.6004 C   0  0  0  0  0  0  0  0  0  0  0  0
  -50.1639  -29.4854    6.6950 C   0  0  0  0  0  0  0  0  0  0  0  0
  -44.8532  -29.2792    2.1207 C   0  0  2  0  0  0  0  0  0  0  0  0
  -45.2722  -29.1695    7.3295 N   0  0  0  0  0  0  0  0  0  0  0  0
  -44.3366  -29.4822    5.1664 N   0  0  0  0  0  0  0  0  0  0  0  0
  -48.0764  -29.6209    5.2258 N   0  0  0  0  0  0  0  0  0  0  0  0
  -47.7464  -29.2641    7.3770 N   0  0  0  0  0  0  0  0  0  0  0  0
  -45.7673  -29.7131    3.2323 N   0  0  0  0  0  0  0  0  0  0  0  0
  -45.6248  -31.2556    0.8010 O   0  0  0  0  0  0  0  0  0  0  0  0
  -50.3881  -30.4208    7.6559 F   0  0  0  0  0  0  0  0  0  0  0  0
  -50.8929  -29.7750    5.5896 F   0  0  0  0  0  0  0  0  0  0  0  0
  -43.2144  -29.1858    6.9200 H   0  0  0  0  0  0  0  0  0  0  0  0
  -41.5671  -31.2732    0.4250 H   0  0  0  0  0  0  0  0  0  0  0  0
  -41.7885  -29.8120    1.4460 H   0  0  0  0  0  0  0  0  0  0  0  0
  -43.4840  -29.1627   -0.2255 H   0  0  0  0  0  0  0  0  0  0  0  0
  -43.6616  -30.8532   -0.8062 H   0  0  0  0  0  0  0  0  0  0  0  0
  -43.3840  -32.4776    1.5801 H   0  0  0  0  0  0  0  0  0  0  0  0
  -43.1235  -31.2913    2.9036 H   0  0  0  0  0  0  0  0  0  0  0  0
  -44.0612  -27.5318    3.1629 H   0  0  0  0  0  0  0  0  0  0  0  0
  -42.9703  -28.9587    3.1776 H   0  0  0  0  0  0  0  0  0  0  0  0
  -43.1529  -27.9831    1.6804 H   0  0  0  0  0  0  0  0  0  0  0  0
  -46.9151  -32.8614    1.1555 H   0  0  0  0  0  0  0  0  0  0  0  0
  -45.2034  -33.1268    1.6309 H   0  0  0  0  0  0  0  0  0  0  0  0
  -46.2563  -32.0618    2.6227 H   0  0  0  0  0  0  0  0  0  0  0  0
  -50.4404  -28.4902    7.0735 H   0  0  0  0  0  0  0  0  0  0  0  0
  -45.4654  -28.6530    1.4551 H   0  0  0  0  0  0  0  0  0  0  0  0
  -47.9411  -29.1127    8.3461 H   0  0  0  0  0  0  0  0  0  0  0  0
  -45.8946  -30.6942    3.0865 H   0  0  0  0  0  0  0  0  0  0  0  0
  1 14  2  0  0  0  0
  1 15  1  0  0  0  0
  2  3  2  0  0  0  0
  2  4  1  0  0  0  0
  2 16  1  0  0  0  0
  3 14  1  0  0  0  0
  3 17  1  0  0  0  0
  4 15  2  0  0  0  0
  4 18  1  0  0  0  0
  5 12  1  0  0  0  0
  5 16  2  0  0  0  0
  5 17  1  0  0  0  0
  6  7  1  0  0  0  0
  6  8  1  0  0  0  0
  7  9  1  0  0  0  0
  8  9  1  0  0  0  0
  9 13  1  0  0  0  0
  9 19  1  0  0  0  0
 10 13  1  0  0  0  0
 11 19  1  0  0  0  0
 12 20  1  0  0  0  0
 12 21  1  0  0  0  0
 13 18  1  0  0  0  0
  1 22  1  0  0  0  0
  6 23  1  0  0  0  0
  6 24  1  0  0  0  0
  7 25  1  0  0  0  0
  7 26  1  0  0  0  0
  8 27  1  0  0  0  0
  8 28  1  0  0  0  0
 10 29  1  0  0  0  0
 10 30  1  0  0  0  0
 10 31  1  0  0  0  0
 11 32  1  0  0  0  0
 11 33  1  0  0  0  0
 11 34  1  0  0  0  0
 12 35  1  0  0  0  0
 13 36  1  0  0  0  0
 17 37  1  0  0  0  0
 18 38  1  0  0  0  0
M  END
> <POSIT::Probability>
0.72

> <POSIT::Method>
SHAPEFIT

> <ReceptorTitle>
UCSF-P4652-REFINED_LIGAND-BOUND-STATE_A__DU__LA1_A-201(A)

> <OMEGA_C>
ctMwwgov6sEkEtBA+Mw6wuY+7MHaYK5AWQQ6wnBz6sHI8NlAnEg2wmSq7MGCipNAE8NCwjK668GA
VcxAaTgpwhwi9cEA8HA/kv8twhzC8cHgmKA9My8twnxE+8GMaek/u9AxwvAz9MFsRqE/dbEuwqD5
4sFBXCRAfxg4wjuUAcI928w/36dIwgTi68EiPdZArGkzwtY76sEQugdAxxY1wjJb6cESi+pAsFgx
wpLb68EuU6VANU5AwrL37MG3OadASvw+wuoc6sF8EOxAuhE3wm607cFL3k5AwX82wnAL+sHMD00/
dY1JwtZd88EW/fRAWJJLwjoz7sGu3bJAitsswpJ86cGxcN1AsUQmwpIv+sHilNk+bycnwhR/7sHj
F7k/nO8twjZN6cGW32a+hqUuwmzT9sFRYE6/PIktwgPpAcIxQMo/a34swp1U+sEW1DlAqD4wwhRB
3MEEbUpAmuErwnOr58GzXUtAjJwswlXd38HQGNc/E6k7whhyA8If5pM/R9A0wsuBBMJkwNA/eQY5
wj0/AMIF2ydA9sJJwgDs48EwWuJAldw1wlA55cHQQbo/p8M/wszm6MGziQVBCpQ3wrWN9cFEiUVA

> <OMEGA_E>
3HAYPw==

> <OMEGA_NBR>
      8308

$$$$
CACHE3-HO_1715_3
  -OEChem-03092622523D

 38 40  0     1  0  0  0  0  0999 V2000
  -44.2013  -29.2089    6.6837 C   0  0  0  0  0  0  0  0  0  0  0  0
  -46.5705  -29.5497    5.3947 C   0  0  0  0  0  0  0  0  0  0  0  0
  -47.9977  -29.6584    5.0443 C   0  0  0  0  0  0  0  0  0  0  0  0
  -46.5276  -29.2711    6.7571 C   0  0  0  0  0  0  0  0  0  0  0  0
  -45.3555  -29.6790    4.6940 C   0  0  0  0  0  0  0  0  0  0  0  0
  -43.6341  -29.3696    0.9335 C   0  0  0  0  0  0  0  0  0  0  0  0
  -44.9007  -30.1208    0.4793 C   0  0  0  0  0  0  0  0  0  0  0  0
  -43.0323  -30.7458    1.2456 C   0  0  0  0  0  0  0  0  0  0  0  0
  -44.4727  -31.3211    1.3758 C   0  0  0  0  0  0  0  0  0  0  0  0
  -48.6332  -29.9299    3.6985 C   0  0  0  0  0  0  0  0  0  0  0  0
  -46.3708  -32.1417    2.8941 C   0  0  0  0  0  0  0  0  0  0  0  0
  -43.8587  -33.6878    1.2347 C   0  0  0  0  0  0  0  0  0  0  0  0
  -45.0551  -31.3241    2.8375 C   0  0  2  0  0  0  0  0  0  0  0  0
  -45.3527  -29.0939    7.3947 N   0  0  0  0  0  0  0  0  0  0  0  0
  -44.1836  -29.5148    5.3568 N   0  0  0  0  0  0  0  0  0  0  0  0
  -48.6915  -29.4910    6.1482 N   0  0  0  0  0  0  0  0  0  0  0  0
  -47.8385  -29.2514    7.1947 N   0  0  0  0  0  0  0  0  0  0  0  0
  -45.3592  -29.9571    3.3343 N   0  0  0  0  0  0  0  0  0  0  0  0
  -44.6485  -32.5966    0.7005 O   0  0  0  0  0  0  0  0  0  0  0  0
  -43.2612  -29.0513    7.1914 H   0  0  0  0  0  0  0  0  0  0  0  0
  -43.1192  -28.8107    0.1382 H   0  0  0  0  0  0  0  0  0  0  0  0
  -43.7733  -28.7179    1.8086 H   0  0  0  0  0  0  0  0  0  0  0  0
  -45.8442  -29.6428    0.7814 H   0  0  0  0  0  0  0  0  0  0  0  0
  -44.9324  -30.3471   -0.5967 H   0  0  0  0  0  0  0  0  0  0  0  0
  -42.4446  -31.1796    0.4231 H   0  0  0  0  0  0  0  0  0  0  0  0
  -42.4449  -30.7824    2.1750 H   0  0  0  0  0  0  0  0  0  0  0  0
  -49.7273  -29.9600    3.8085 H   0  0  0  0  0  0  0  0  0  0  0  0
  -48.3574  -29.1307    2.9949 H   0  0  0  0  0  0  0  0  0  0  0  0
  -48.2769  -30.8967    3.3133 H   0  0  0  0  0  0  0  0  0  0  0  0
  -46.7642  -32.1337    3.9213 H   0  0  0  0  0  0  0  0  0  0  0  0
  -47.1107  -31.6932    2.2148 H   0  0  0  0  0  0  0  0  0  0  0  0
  -46.1715  -33.1787    2.5860 H   0  0  0  0  0  0  0  0  0  0  0  0
  -44.0611  -34.6034    0.6598 H   0  0  0  0  0  0  0  0  0  0  0  0
  -42.7901  -33.4373    1.1608 H   0  0  0  0  0  0  0  0  0  0  0  0
  -44.1249  -33.8509    2.2895 H   0  0  0  0  0  0  0  0  0  0  0  0
  -44.3182  -31.7991    3.5019 H   0  0  0  0  0  0  0  0  0  0  0  0
  -48.1238  -29.0861    8.1387 H   0  0  0  0  0  0  0  0  0  0  0  0
  -46.2731  -29.7282    2.9987 H   0  0  0  0  0  0  0  0  0  0  0  0
  1 14  1  0  0  0  0
  1 15  2  0  0  0  0
  2  3  1  0  0  0  0
  2  4  1  0  0  0  0
  2  5  2  0  0  0  0
  3 10  1  0  0  0  0
  3 16  2  0  0  0  0
  4 14  2  0  0  0  0
  4 17  1  0  0  0  0
  5 15  1  0  0  0  0
  5 18  1  0  0  0  0
  6  7  1  0  0  0  0
  6  8  1  0  0  0  0
  7  9  1  0  0  0  0
  8  9  1  0  0  0  0
  9 13  1  0  0  0  0
  9 19  1  0  0  0  0
 11 13  1  0  0  0  0
 12 19  1  0  0  0  0
 13 18  1  0  0  0  0
 16 17  1  0  0  0  0
  1 20  1  0  0  0  0
  6 21  1  0  0  0  0
  6 22  1  0  0  0  0
  7 23  1  0  0  0  0
  7 24  1  0  0  0  0
  8 25  1  0  0  0  0
  8 26  1  0  0  0  0
 10 27  1  0  0  0  0
 10 28  1  0  0  0  0
 10 29  1  0  0  0  0
 11 30  1  0  0  0  0
 11 31  1  0  0  0  0
 11 32  1  0  0  0  0
 12 33  1  0  0  0  0
 12 34  1  0  0  0  0
 12 35  1  0  0  0  0
 13 36  1  0  0  0  0
 17 37  1  0  0  0  0
 18 38  1  0  0  0  0
M  END
> <POSIT::Probability>
0.83

> <POSIT::Method>
SHAPEFIT

> <ReceptorTitle>
UCSF-P4652-REFINED_LIGAND-BOUND-STATE_A__DU__LA1_A-201(A)

> <OMEGA_C>
Ic4wwuWr6cGY4NVAK0g6wrhl7MFEoaxAp/0/wlRE7cG+aqFAPxw6wkIr6sEQOthA/2s1wp1u7cH+
NJZAUokuwv706sEP+24/RpozwlX38MFjaPU+ECEswmn39cE4cZ8/BuQxwp+R+sFYG7A/cIhCwoNw
78GctGxAvns5wiWRAMI1OTlARW8vwkXABsIcDJ4/YDg0wquX+sFGmTVAKWk1wmPA6MGGoexA9bsw
wk0e7MEaa6tAD8RCwoXt68HOvcRAm1o/wsQC6sG6OuZA3281wg2o78F7ZFVAGZgywuBiAsLsVDM/
dwstwiFp6MHDH+ZAFHoswkZ85sFqjQ0+2xcvwi2+5cFNgec/e2A3wo0k7cEHDUg/vbozwsPG8sH9
wBi/S8cpwsNv+cHgptg+mccpwk9C9sHTMgtAxuhGwgmu78E1vnNA9m1BwpwL6cGdrD9AihtBwmss
98HVDFRAig47wvWIAMJj93pAVHE8wqKL/cGivw1Aoa84wgW3BMJPgSVAlz4wwulpCsJx6Cg/FSkr
wsO/BcL6lJQ/5H8wwkdnB8JBhxJA4EUxwohk/sEKH2BAzn5Awj2w6ME+OAJBnBc5wmvT7cHE6j9A

> <OMEGA_E>
GCv3Pg==

> <OMEGA_NBR>
      9590

$$$$
CACHE3HI_1687_10
  -OEChem-03092622523D

 43 44  0     1  0  0  0  0  0999 V2000
  -42.6065  -31.4562    1.4646 C   0  0  0  0  0  0  0  0  0  0  0  0
  -42.8198  -30.0705    0.8559 C   0  0  0  0  0  0  0  0  0  0  0  0
  -50.0344  -30.4167    6.2232 C   0  0  0  0  0  0  0  0  0  0  0  0
  -50.0115  -30.1939    4.7113 C   0  0  0  0  0  0  0  0  0  0  0  0
  -49.4108  -29.2442    6.9718 C   0  0  0  0  0  0  0  0  0  0  0  0
  -43.8929  -31.7940    2.2157 C   0  0  0  0  0  0  0  0  0  0  0  0
  -44.2234  -29.6350    1.2710 C   0  0  0  0  0  0  0  0  0  0  0  0
  -47.9759  -28.7165    4.9613 C   0  0  0  0  0  0  0  0  0  0  0  0
  -48.5918  -29.9007    4.2101 C   0  0  2  0  0  0  0  0  0  0  0  0
  -47.9990  -28.9432    6.4734 C   0  0  1  0  0  0  0  0  0  0  0  0
  -44.9801  -30.9408    1.5489 C   0  0  0  0  0  0  0  0  0  0  0  0
  -45.4755  -31.5878    0.2456 C   0  0  0  0  0  0  0  0  0  0  0  0
  -46.1698  -30.7140    2.4832 C   0  0  0  0  0  0  0  0  0  0  0  0
  -48.6012  -29.6251    2.7735 N   0  0  0  0  0  0  0  0  0  0  0  0
  -46.5292  -28.1337    2.6128 O   0  0  0  0  0  0  0  0  0  0  0  0
  -47.3041  -29.3613    0.5507 O   0  0  0  0  0  0  0  0  0  0  0  0
  -47.5217  -27.7779    7.1393 O   0  0  0  0  0  0  0  0  0  0  0  0
  -47.1262  -29.2993    1.9889 S   0  0  0  0  0  0  0  0  0  0  0  0
  -42.4209  -32.1887    0.6707 H   0  0  0  0  0  0  0  0  0  0  0  0
  -41.7406  -31.4753    2.1345 H   0  0  0  0  0  0  0  0  0  0  0  0
  -42.0647  -29.3560    1.1992 H   0  0  0  0  0  0  0  0  0  0  0  0
  -42.7414  -30.1257   -0.2359 H   0  0  0  0  0  0  0  0  0  0  0  0
  -51.0678  -30.5613    6.5583 H   0  0  0  0  0  0  0  0  0  0  0  0
  -49.4883  -31.3366    6.4647 H   0  0  0  0  0  0  0  0  0  0  0  0
  -50.4128  -31.0795    4.2038 H   0  0  0  0  0  0  0  0  0  0  0  0
  -50.6791  -29.3603    4.4563 H   0  0  0  0  0  0  0  0  0  0  0  0
  -50.0406  -28.3522    6.8587 H   0  0  0  0  0  0  0  0  0  0  0  0
  -49.3868  -29.4547    8.0477 H   0  0  0  0  0  0  0  0  0  0  0  0
  -44.1111  -32.8666    2.1859 H   0  0  0  0  0  0  0  0  0  0  0  0
  -43.7738  -31.5129    3.2699 H   0  0  0  0  0  0  0  0  0  0  0  0
  -44.1525  -29.0284    2.1830 H   0  0  0  0  0  0  0  0  0  0  0  0
  -44.7015  -29.0178    0.5031 H   0  0  0  0  0  0  0  0  0  0  0  0
  -46.9436  -28.5492    4.6281 H   0  0  0  0  0  0  0  0  0  0  0  0
  -48.5097  -27.7870    4.7188 H   0  0  0  0  0  0  0  0  0  0  0  0
  -47.9584  -30.7979    4.3817 H   0  0  0  0  0  0  0  0  0  0  0  0
  -47.3338  -29.7741    6.7368 H   0  0  0  0  0  0  0  0  0  0  0  0
  -46.2414  -30.9602   -0.1984 H   0  0  0  0  0  0  0  0  0  0  0  0
  -45.8887  -32.5670    0.4653 H   0  0  0  0  0  0  0  0  0  0  0  0
  -44.6430  -31.6902   -0.4442 H   0  0  0  0  0  0  0  0  0  0  0  0
  -45.8336  -30.5338    3.5076 H   0  0  0  0  0  0  0  0  0  0  0  0
  -46.8425  -31.5762    2.4774 H   0  0  0  0  0  0  0  0  0  0  0  0
  -49.3012  -30.1676    2.2592 H   0  0  0  0  0  0  0  0  0  0  0  0
  -46.6268  -27.6130    6.8031 H   0  0  0  0  0  0  0  0  0  0  0  0
  1  2  1  0  0  0  0
  1  6  1  0  0  0  0
  2  7  1  0  0  0  0
  3  4  1  0  0  0  0
  3  5  1  0  0  0  0
  4  9  1  0  0  0  0
  5 10  1  0  0  0  0
  6 11  1  0  0  0  0
  7 11  1  0  0  0  0
  8  9  1  0  0  0  0
  8 10  1  0  0  0  0
  9 14  1  0  0  0  0
 10 17  1  0  0  0  0
 11 12  1  0  0  0  0
 11 13  1  0  0  0  0
 13 18  1  0  0  0  0
 14 18  1  0  0  0  0
 15 18  2  0  0  0  0
 16 18  2  0  0  0  0
  1 19  1  0  0  0  0
  1 20  1  0  0  0  0
  2 21  1  0  0  0  0
  2 22  1  0  0  0  0
  3 23  1  0  0  0  0
  3 24  1  0  0  0  0
  4 25  1  0  0  0  0
  4 26  1  0  0  0  0
  5 27  1  0  0  0  0
  5 28  1  0  0  0  0
  6 29  1  0  0  0  0
  6 30  1  0  0  0  0
  7 31  1  0  0  0  0
  7 32  1  0  0  0  0
  8 33  1  0  0  0  0
  8 34  1  0  0  0  0
  9 35  1  0  0  0  0
 10 36  1  0  0  0  0
 12 37  1  0  0  0  0
 12 38  1  0  0  0  0
 12 39  1  0  0  0  0
 13 40  1  0  0  0  0
 13 41  1  0  0  0  0
 14 42  1  0  0  0  0
 17 43  1  0  0  0  0
M  END
> <POSIT::Probability>
0.18

> <POSIT::Method>
FRED

> <ReceptorTitle>
UCSF-P4652-REFINED_LIGAND-BOUND-STATE_A__DU__LA1_A-201(A)

> <OMEGA_C>
A20qwjSm+8GkeLs/fkcrwmaQ8MHQHls/OyNIwmVV88E6JMdAvQtIwhSN8cHEwpZAqaRFwgv06cHq
GN9AWZIvwgla/sFPzQ1AueQwwmUU7cFIr6I/Ruc/wk275cHIwp5A+l1CwqE078HguIZAAf8/wpmL
58ElJs9AlOszwsqG98HgQcY/8eY1wuKz/MHgiHs+4604wkG29cHB7B5AlmdCwjQA7cHOgDFA7h06
wssR4cHvOCdAYDc9wvDj6sEc/Qw/QRY+wjI53sFVdeRAO4E8wuNk6sF2k/4/+a4pwjXBAMIktSs/
XvYmwmjN+8HVmghARUIowhrZ6sFWgJk/NPcqwnQB8cEAk3G+ZUVMwoF99MFZ3dFAAPRFwm+x+sH2
3s5AqKZJwtii+MEuhYZAa7dKwv3h6sG6mY5AlSlIwjvR4sG9ettAD4xFwiGj68GAwwBBwXEwwmF3
A8IF5gtAbBgvwlUa/MGbRlFAK5wwwj066MHLtQtAUM4ywook6MFcygA/MsY7wtlk5ME3GZRA7AlC
wsdL3sFOAJdAb9U/whxi9sEzN4xAyVU9wmox7sGpk9dAOfc4wnCu98EAMku+DY43wqhEAsKwN+4+
bpIywneF/cHwcuO+nVU3wkJF9MEFfWBAxV47whSc/MENjR5AczRFwjtX8cE1lxBA34E6wl/n3ME0
s9lA

> <OMEGA_E>
NObZwA==

> <OMEGA_NBR>
     10943

$$$$
CACHE3HI_1687_12
  -OEChem-03092622523D

 40 41  0     1  0  0  0  0  0999 V2000
  -44.2556  -28.7714    1.6325 C   0  0  0  0  0  0  0  0  0  0  0  0
  -50.1937  -29.1459    3.3665 C   0  0  0  0  0  0  0  0  0  0  0  0
  -44.9867  -30.1127    1.7017 C   0  0  0  0  0  0  0  0  0  0  0  0
  -42.8089  -28.8968    2.0992 C   0  0  0  0  0  0  0  0  0  0  0  0
  -49.9973  -28.2127    4.5769 C   0  0  0  0  0  0  0  0  0  0  0  0
  -50.2698  -30.3269    4.3538 C   0  0  0  0  0  0  0  0  0  0  0  0
  -43.4383  -30.8669    3.5482 C   0  0  0  0  0  0  0  0  0  0  0  0
  -44.8969  -30.7829    3.0798 C   0  0  1  0  0  0  0  0  0  0  0  0
  -42.7090  -29.5221    3.4892 C   0  0  1  0  0  0  0  0  0  0  0  0
  -49.5105  -29.4476    5.3911 C   0  0  0  0  0  0  0  0  0  0  0  0
  -50.0797  -29.5237    6.8039 C   0  0  0  0  0  0  0  0  0  0  0  0
  -48.0105  -29.6405    5.3869 C   0  0  0  0  0  0  0  0  0  0  0  0
  -45.7262  -30.0680    4.0524 N   0  0  0  0  0  0  0  0  0  0  0  0
  -47.9038  -31.1579    3.2679 O   0  0  0  0  0  0  0  0  0  0  0  0
  -47.6232  -28.6674    2.9882 O   0  0  0  0  0  0  0  0  0  0  0  0
  -41.3327  -29.7143    3.7996 O   0  0  0  0  0  0  0  0  0  0  0  0
  -47.3896  -29.8860    3.7392 S   0  0  0  0  0  0  0  0  0  0  0  0
  -44.2827  -28.3952    0.6029 H   0  0  0  0  0  0  0  0  0  0  0  0
  -44.7805  -28.0368    2.2534 H   0  0  0  0  0  0  0  0  0  0  0  0
  -51.0940  -28.9672    2.7730 H   0  0  0  0  0  0  0  0  0  0  0  0
  -49.3300  -29.1861    2.6935 H   0  0  0  0  0  0  0  0  0  0  0  0
  -46.0474  -29.9605    1.4274 H   0  0  0  0  0  0  0  0  0  0  0  0
  -44.5809  -30.7917    0.9304 H   0  0  0  0  0  0  0  0  0  0  0  0
  -42.2583  -29.5073    1.3748 H   0  0  0  0  0  0  0  0  0  0  0  0
  -42.3463  -27.9031    2.1133 H   0  0  0  0  0  0  0  0  0  0  0  0
  -49.2703  -27.4080    4.4342 H   0  0  0  0  0  0  0  0  0  0  0  0
  -50.9356  -27.7723    4.9355 H   0  0  0  0  0  0  0  0  0  0  0  0
  -51.2975  -30.5823    4.6391 H   0  0  0  0  0  0  0  0  0  0  0  0
  -49.7642  -31.2412    4.0295 H   0  0  0  0  0  0  0  0  0  0  0  0
  -43.4005  -31.2522    4.5817 H   0  0  0  0  0  0  0  0  0  0  0  0
  -42.9068  -31.6071    2.9267 H   0  0  0  0  0  0  0  0  0  0  0  0
  -45.3044  -31.8186    2.9889 H   0  0  0  0  0  0  0  0  0  0  0  0
  -43.1233  -28.8383    4.2306 H   0  0  0  0  0  0  0  0  0  0  0  0
  -49.6974  -30.4087    7.3111 H   0  0  0  0  0  0  0  0  0  0  0  0
  -51.1669  -29.5794    6.7637 H   0  0  0  0  0  0  0  0  0  0  0  0
  -49.7906  -28.6378    7.3695 H   0  0  0  0  0  0  0  0  0  0  0  0
  -47.7278  -30.5194    5.9722 H   0  0  0  0  0  0  0  0  0  0  0  0
  -47.5015  -28.7634    5.7961 H   0  0  0  0  0  0  0  0  0  0  0  0
  -45.2420  -29.2873    4.5055 H   0  0  0  0  0  0  0  0  0  0  0  0
  -41.3029  -30.1108    4.6837 H   0  0  0  0  0  0  0  0  0  0  0  0
  1  3  1  0  0  0  0
  1  4  1  0  0  0  0
  2  5  1  0  0  0  0
  2  6  1  0  0  0  0
  3  8  1  0  0  0  0
  4  9  1  0  0  0  0
  5 10  1  0  0  0  0
  6 10  1  0  0  0  0
  7  8  1  0  0  0  0
  7  9  1  0  0  0  0
  8 13  1  0  0  0  0
  9 16  1  0  0  0  0
 10 11  1  0  0  0  0
 10 12  1  0  0  0  0
 12 17  1  0  0  0  0
 13 17  1  0  0  0  0
 14 17  2  0  0  0  0
 15 17  2  0  0  0  0
  1 18  1  0  0  0  0
  1 19  1  0  0  0  0
  2 20  1  0  0  0  0
  2 21  1  0  0  0  0
  3 22  1  0  0  0  0
  3 23  1  0  0  0  0
  4 24  1  0  0  0  0
  4 25  1  0  0  0  0
  5 26  1  0  0  0  0
  5 27  1  0  0  0  0
  6 28  1  0  0  0  0
  6 29  1  0  0  0  0
  7 30  1  0  0  0  0
  7 31  1  0  0  0  0
  8 32  1  0  0  0  0
  9 33  1  0  0  0  0
 11 34  1  0  0  0  0
 11 35  1  0  0  0  0
 11 36  1  0  0  0  0
 12 37  1  0  0  0  0
 12 38  1  0  0  0  0
 13 39  1  0  0  0  0
 16 40  1  0  0  0  0
M  END
> <POSIT::Probability>
0.24

> <POSIT::Method>
FRED

> <ReceptorTitle>
UCSF-P4652-REFINED_LIGAND-BOUND-STATE_A__DU__LA1_A-201(A)

> <OMEGA_C>
uQUxwsQr5sH39dA/VcZIwsEq6cFqdVdAaPIzwtbm8MFc0Nk/WDwrwpIs58HGWQZAMP1HwpGz4cEt
dpJASxRJwpad8sE0UotAxcAtwmbv9sGAFWNAYZYzwmVD9sEtHEVAEdYqwlYt7MGYT19AxgpGwqiU
68GKg6xAqFFIwpgw7MGVudlAvQpAwtYf7cE7YaxAm+c2wlSL8MHhrIFAdZ0/wnFD+cH+JFFAJH4+
wtNW5cFUPj9AtlQlwvq27cECLXNA7o49wpgW78GTT29AcyExwkYp48HzVxo/Mx8zwnVL4MFBNxBA
SmBMwtu858GieDFA61FFwjh96cHaYSxAjjA4wgiv78GftrY/2lIywn1V9sHaMW4/iggpwvcO7MG7
+q8/kWIpwpw538HGQAdAwBRFwqhD28Gj5I1AAb5Lwp0t3sHe751ApjBNwoKo9MHqc5RAiQ5Hwurt
+cFi8YBAEpotwmwE+sF6nZJAlKArwk3b/MGbTjtAvzc1wnKM/sF4Sj9AN34swt+05sEkYYdAIspG
wgpF88Fm9OlA7qpMwpii7MEVcNhAjSlHwioa5cGl0utAOuk+ws4n9MH+G79AfwE+wlsb5sGaeblA
zPc0wnpM6sG5LJBAMzYlwuXi8MHf4JVA

> <OMEGA_E>
1jfUwA==

> <OMEGA_NBR>
     12237

$$$$
CACHE3HI_1690_25
  -OEChem-03092622523D

 38 40  0     0  0  0  0  0  0999 V2000
  -44.1630  -29.2682    6.4559 C   0  0  0  0  0  0  0  0  0  0  0  0
  -46.6365  -29.4883    5.3623 C   0  0  0  0  0  0  0  0  0  0  0  0
  -48.0754  -29.5295    5.0877 C   0  0  0  0  0  0  0  0  0  0  0  0
  -44.6246  -30.1681    2.3125 C   0  0  0  0  0  0  0  0  0  0  0  0
  -44.3288  -31.3759    1.5126 C   0  0  0  0  0  0  0  0  0  0  0  0
  -48.7120  -29.4037    6.3067 C   0  0  0  0  0  0  0  0  0  0  0  0
  -43.7259  -29.2113    1.9204 C   0  0  0  0  0  0  0  0  0  0  0  0
  -46.4763  -29.2850    6.7324 C   0  0  0  0  0  0  0  0  0  0  0  0
  -45.4956  -29.6301    4.5559 C   0  0  0  0  0  0  0  0  0  0  0  0
  -48.7000  -29.6556    3.7100 C   0  0  0  0  0  0  0  0  0  0  0  0
  -44.8431  -32.7567    1.7903 C   0  0  0  0  0  0  0  0  0  0  0  0
  -50.1965  -29.4023    6.5972 C   0  0  0  0  0  0  0  0  0  0  0  0
  -43.5753  -27.7859    2.3970 C   0  0  0  0  0  0  0  0  0  0  0  0
  -41.9361  -29.1547    0.1799 C   0  0  0  0  0  0  0  0  0  0  0  0
  -45.2449  -29.1827    7.2719 N   0  0  0  0  0  0  0  0  0  0  0  0
  -44.2673  -29.5023    5.1199 N   0  0  0  0  0  0  0  0  0  0  0  0
  -43.3811  -31.0993    0.6497 N   0  0  0  0  0  0  0  0  0  0  0  0
  -47.7399  -29.2617    7.2952 N   0  0  0  0  0  0  0  0  0  0  0  0
  -43.0363  -29.8196    0.8999 N   0  0  0  0  0  0  0  0  0  0  0  0
  -45.6567  -30.0524    3.2366 N   0  0  0  0  0  0  0  0  0  0  0  0
  -43.1795  -29.1453    6.8850 H   0  0  0  0  0  0  0  0  0  0  0  0
  -48.8502  -30.7187    3.4709 H   0  0  0  0  0  0  0  0  0  0  0  0
  -49.6698  -29.1366    3.6983 H   0  0  0  0  0  0  0  0  0  0  0  0
  -48.0326  -29.2024    2.9622 H   0  0  0  0  0  0  0  0  0  0  0  0
  -44.3044  -33.4822    1.1630 H   0  0  0  0  0  0  0  0  0  0  0  0
  -44.6846  -33.0005    2.8511 H   0  0  0  0  0  0  0  0  0  0  0  0
  -45.9180  -32.8005    1.5607 H   0  0  0  0  0  0  0  0  0  0  0  0
  -50.5340  -30.4315    6.7894 H   0  0  0  0  0  0  0  0  0  0  0  0
  -50.3962  -28.7798    7.4819 H   0  0  0  0  0  0  0  0  0  0  0  0
  -50.7389  -28.9942    5.7317 H   0  0  0  0  0  0  0  0  0  0  0  0
  -42.8430  -27.7484    3.2170 H   0  0  0  0  0  0  0  0  0  0  0  0
  -43.2267  -27.1562    1.5652 H   0  0  0  0  0  0  0  0  0  0  0  0
  -44.5467  -27.4148    2.7558 H   0  0  0  0  0  0  0  0  0  0  0  0
  -41.4922  -29.8566   -0.5415 H   0  0  0  0  0  0  0  0  0  0  0  0
  -42.3263  -28.2767   -0.3556 H   0  0  0  0  0  0  0  0  0  0  0  0
  -41.1681  -28.8341    0.8992 H   0  0  0  0  0  0  0  0  0  0  0  0
  -47.9287  -29.1577    8.2717 H   0  0  0  0  0  0  0  0  0  0  0  0
  -46.5800  -30.2887    2.9338 H   0  0  0  0  0  0  0  0  0  0  0  0
  1 15  1  0  0  0  0
  1 16  2  0  0  0  0
  2  3  1  0  0  0  0
  2  8  1  0  0  0  0
  2  9  2  0  0  0  0
  3  6  2  0  0  0  0
  3 10  1  0  0  0  0
  4  5  1  0  0  0  0
  4  7  2  0  0  0  0
  4 20  1  0  0  0  0
  5 11  1  0  0  0  0
  5 17  2  0  0  0  0
  6 12  1  0  0  0  0
  6 18  1  0  0  0  0
  7 13  1  0  0  0  0
  7 19  1  0  0  0  0
  8 15  2  0  0  0  0
  8 18  1  0  0  0  0
  9 16  1  0  0  0  0
  9 20  1  0  0  0  0
 14 19  1  0  0  0  0
 17 19  1  0  0  0  0
  1 21  1  0  0  0  0
 10 22  1  0  0  0  0
 10 23  1  0  0  0  0
 10 24  1  0  0  0  0
 11 25  1  0  0  0  0
 11 26  1  0  0  0  0
 11 27  1  0  0  0  0
 12 28  1  0  0  0  0
 12 29  1  0  0  0  0
 12 30  1  0  0  0  0
 13 31  1  0  0  0  0
 13 32  1  0  0  0  0
 13 33  1  0  0  0  0
 14 34  1  0  0  0  0
 14 35  1  0  0  0  0
 14 36  1  0  0  0  0
 18 37  1  0  0  0  0
 20 38  1  0  0  0  0
M  END
> <POSIT::Probability>
0.9

> <POSIT::Method>
SHAPEFIT

> <ReceptorTitle>
UCSF-P4652-REFINED_LIGAND-BOUND-STATE_A__DU__LA1_A-201(A)

> <OMEGA_C>
5aYwwjwl6sGBls5A0Is6whfo68EMmKtAO01Awl887MGwzqJAnH8ywlBY8cFKABRArVAxwtUB+8G8
ncE/HNlCwtw668HA0MlAUucuwsCw6cGQzvU/t+c5wqhH6sHOb9dAf/s1wlsK7cEoypFAzMxCwpw+
7cGrcG1AWl8zwtgGA8KAJ+U/K8lIwvI368GpHNNAFk0uwoZJ3sHoaBlAhL4nwuU86cGgKzg+zfo0
wkJ26cFHs+hAuxExwqcE7MGJ1qNASYYtwk3L+MFoVSY/pfU+wugX6sGOculALCUswpyO7sGgYGY/
eaA2wlBr8MHOI09A2bcswoUp6cG+UdxApmZDwuS/9cGMIl5A561GwtQX6cFvsWxAbCFAwoqe6cHi
kz1AwDcxwsTtBcIT3ZQ//7wywnYABMIAeTZABqw3wrUzA8J3w8c/zSJKwqRz88HgQtlAuJVJwh89
5sHOa+9Ar/RKwjT058EXardARF8rwqz83cHb401AH+gsws0/2cFFWcg/yC8ywoNR28GnXjBADvgl
wmDa7sHfoAq/Fk4pwqM24sGpFra+Lqwkwjys5sFsNGY/Abc/wg5D6cEAWQRB81E6wkZP8sHmwztA

> <OMEGA_E>
IHeiPg==

> <OMEGA_NBR>
     13515

$$$$
CACHE3HI_1690_32
  -OEChem-03092622523D

 39 41  0     1  0  0  0  0  0999 V2000
  -44.1823  -29.1634    6.5916 C   0  0  0  0  0  0  0  0  0  0  0  0
  -46.5678  -29.7352    5.3965 C   0  0  0  0  0  0  0  0  0  0  0  0
  -48.0116  -29.8424    5.0683 C   0  0  0  0  0  0  0  0  0  0  0  0
  -48.7054  -29.5226    6.2209 C   0  0  0  0  0  0  0  0  0  0  0  0
  -46.5014  -29.2724    6.7163 C   0  0  0  0  0  0  0  0  0  0  0  0
  -45.3417  -29.9396    4.7032 C   0  0  0  0  0  0  0  0  0  0  0  0
  -44.9873  -29.6394    1.1158 C   0  0  0  0  0  0  0  0  0  0  0  0
  -43.1319  -30.8832    2.0937 C   0  0  0  0  0  0  0  0  0  0  0  0
  -43.0145  -30.6884    0.5985 C   0  0  0  0  0  0  0  0  0  0  0  0
  -44.2805  -29.9296    2.4417 C   0  0  2  0  0  0  0  0  0  0  0  0
  -48.6413  -30.1523    3.7222 C   0  0  0  0  0  0  0  0  0  0  0  0
  -50.2013  -29.5007    6.4574 C   0  0  0  0  0  0  0  0  0  0  0  0
  -45.1755  -31.5722   -0.4043 C   0  0  0  0  0  0  0  0  0  0  0  0
  -45.9811  -31.7724    3.1123 C   0  0  0  0  0  0  0  0  0  0  0  0
  -45.3210  -28.9985    7.3016 N   0  0  0  0  0  0  0  0  0  0  0  0
  -44.1758  -29.6235    5.3184 N   0  0  0  0  0  0  0  0  0  0  0  0
  -47.7888  -29.1884    7.2060 N   0  0  0  0  0  0  0  0  0  0  0  0
  -44.3965  -30.4640    0.1592 N   0  0  0  0  0  0  0  0  0  0  0  0
  -45.2670  -30.4930    3.4218 N   0  0  3  0  0  0  0  0  0  0  0  0
  -46.0845  -29.1015    1.0225 O   0  0  0  0  0  0  0  0  0  0  0  0
  -43.2400  -28.9183    7.0589 H   0  0  0  0  0  0  0  0  0  0  0  0
  -43.3850  -31.9241    2.3438 H   0  0  0  0  0  0  0  0  0  0  0  0
  -42.2033  -30.5976    2.6095 H   0  0  0  0  0  0  0  0  0  0  0  0
  -42.3842  -29.8173    0.3662 H   0  0  0  0  0  0  0  0  0  0  0  0
  -42.5927  -31.5843    0.1196 H   0  0  0  0  0  0  0  0  0  0  0  0
  -43.8622  -28.9931    2.8390 H   0  0  0  0  0  0  0  0  0  0  0  0
  -48.8050  -31.2365    3.6342 H   0  0  0  0  0  0  0  0  0  0  0  0
  -49.6048  -29.6282    3.6389 H   0  0  0  0  0  0  0  0  0  0  0  0
  -47.9705  -29.8165    2.9177 H   0  0  0  0  0  0  0  0  0  0  0  0
  -50.5309  -30.4873    6.8152 H   0  0  0  0  0  0  0  0  0  0  0  0
  -50.4418  -28.7378    7.2125 H   0  0  0  0  0  0  0  0  0  0  0  0
  -50.7177  -29.2608    5.5163 H   0  0  0  0  0  0  0  0  0  0  0  0
  -44.5624  -32.1163   -1.1379 H   0  0  0  0  0  0  0  0  0  0  0  0
  -45.4753  -32.2571    0.4026 H   0  0  0  0  0  0  0  0  0  0  0  0
  -46.0732  -31.1743   -0.9001 H   0  0  0  0  0  0  0  0  0  0  0  0
  -45.8050  -32.0463    2.0617 H   0  0  0  0  0  0  0  0  0  0  0  0
  -45.6031  -32.5709    3.7677 H   0  0  0  0  0  0  0  0  0  0  0  0
  -47.0601  -31.6399    3.2807 H   0  0  0  0  0  0  0  0  0  0  0  0
  -48.0271  -28.9236    8.1404 H   0  0  0  0  0  0  0  0  0  0  0  0
  1 15  1  0  0  0  0
  1 16  2  0  0  0  0
  2  3  1  0  0  0  0
  2  5  1  0  0  0  0
  2  6  2  0  0  0  0
  3  4  2  0  0  0  0
  3 11  1  0  0  0  0
  4 12  1  0  0  0  0
  4 17  1  0  0  0  0
  5 15  2  0  0  0  0
  5 17  1  0  0  0  0
  6 16  1  0  0  0  0
  6 19  1  0  0  0  0
  7 10  1  0  0  0  0
  7 18  1  0  0  0  0
  7 20  2  0  0  0  0
  8  9  1  0  0  0  0
  8 10  1  0  0  0  0
  9 18  1  0  0  0  0
 10 19  1  0  0  0  0
 13 18  1  0  0  0  0
 14 19  1  0  0  0  0
  1 21  1  0  0  0  0
  8 22  1  0  0  0  0
  8 23  1  0  0  0  0
  9 24  1  0  0  0  0
  9 25  1  0  0  0  0
 10 26  1  0  0  0  0
 11 27  1  0  0  0  0
 11 28  1  0  0  0  0
 11 29  1  0  0  0  0
 12 30  1  0  0  0  0
 12 31  1  0  0  0  0
 12 32  1  0  0  0  0
 13 33  1  0  0  0  0
 13 34  1  0  0  0  0
 13 35  1  0  0  0  0
 14 36  1  0  0  0  0
 14 37  1  0  0  0  0
 14 38  1  0  0  0  0
 17 39  1  0  0  0  0
M  END
> <POSIT::Probability>
0.72

> <POSIT::Method>
SHAPEFIT

> <ReceptorTitle>
UCSF-P4652-REFINED_LIGAND-BOUND-STATE_A__DU__LA1_A-201(A)

> <OMEGA_C>
orowwqhO6cFO7tJAYkU6wqrh7cH5r6xA1QtAwj+97sGCL6JAX9JCwksu7MFQEcdAbAE6wtUt6sGw
69ZA4V01wj6E78GlgJZA9fIzwpQd7cH+0I4/D4csws0Q98G5/gVA0Q4swsmB9cEGORk/Qh8xwt1v
78E2RBxArZBCwuM38cG+N25AG85IwnwB7MEho85AubM0wu+T/MGDBM++qew3wtct/sGQMEdAt0g1
wu3858FNpulACrQwwvH87MEfMKpAsCc/wsaB6cGUl+ZA/ZUxwjq288HOECM+ZhE1wpDx88E0/1pA
gVY4wtjP6MFe4YI/u/UswphY58Gw4uFAPootwnVk/8EgARZAJtAowsnH9MHIASdAaokpwtGJ7sFF
frs+714qwqys/MH53PQ923Ivwt7x58GqsjVAUjhDwk7k+cEVl2hAUGtGwnkG7cEx42hAvuE/whuI
7sECuzpAqB9Kwvzl88EdFtpAcsRJwhfn5cGrzOZA895KwhoW6sFzhbBA7T8ywg53AMKEp5G/vuY1
wj0HAcIDH84+Aks4wg9l+cFRama/TDg3wnEvAMI48gNAkmk2wp9IAsJNIXFAfz08woke/cFy9lFA
yBtAwnNj58H9PgJB

> <OMEGA_E>
vJ8LPw==

> <OMEGA_NBR>
     14819

$$$$
CACHE3HI_1690_48
  -OEChem-03092622523D

 41 43  0     1  0  0  0  0  0999 V2000
  -44.1901  -29.2017    6.5214 C   0  0  0  0  0  0  0  0  0  0  0  0
  -46.6427  -29.5704    5.4013 C   0  0  0  0  0  0  0  0  0  0  0  0
  -48.0833  -29.6777    5.1265 C   0  0  0  0  0  0  0  0  0  0  0  0
  -48.7298  -29.4518    6.3284 C   0  0  0  0  0  0  0  0  0  0  0  0
  -46.5040  -29.2625    6.7565 C   0  0  0  0  0  0  0  0  0  0  0  0
  -45.4756  -29.7220    4.6274 C   0  0  0  0  0  0  0  0  0  0  0  0
  -43.0894  -29.6277    0.5208 C   0  0  0  0  0  0  0  0  0  0  0  0
  -43.8271  -29.1128    1.7751 C   0  0  0  0  0  0  0  0  0  0  0  0
  -43.3143  -31.1544    0.4832 C   0  0  0  0  0  0  0  0  0  0  0  0
  -44.3265  -30.3743    2.4915 C   0  0  2  0  0  0  0  0  0  0  0  0
  -44.5442  -31.4031    1.3739 C   0  0  0  0  0  0  0  0  0  0  0  0
  -48.7055  -29.9514    3.7698 C   0  0  0  0  0  0  0  0  0  0  0  0
  -50.2129  -29.4213    6.6231 C   0  0  0  0  0  0  0  0  0  0  0  0
  -44.5554  -32.8414    1.9362 C   0  0  0  0  0  0  0  0  0  0  0  0
  -45.8506  -31.1373    0.5722 C   0  0  0  0  0  0  0  0  0  0  0  0
  -45.2873  -29.0814    7.3056 N   0  0  0  0  0  0  0  0  0  0  0  0
  -44.2658  -29.5237    5.2076 N   0  0  0  0  0  0  0  0  0  0  0  0
  -47.7691  -29.2185    7.3061 N   0  0  0  0  0  0  0  0  0  0  0  0
  -45.5479  -30.1244    3.2984 N   0  0  0  0  0  0  0  0  0  0  0  0
  -43.2174  -29.0345    6.9600 H   0  0  0  0  0  0  0  0  0  0  0  0
  -43.5035  -29.1592   -0.3841 H   0  0  0  0  0  0  0  0  0  0  0  0
  -42.0150  -29.4026    0.5914 H   0  0  0  0  0  0  0  0  0  0  0  0
  -43.1403  -28.5475    2.4222 H   0  0  0  0  0  0  0  0  0  0  0  0
  -44.6732  -28.4707    1.4890 H   0  0  0  0  0  0  0  0  0  0  0  0
  -43.5092  -31.4903   -0.5460 H   0  0  0  0  0  0  0  0  0  0  0  0
  -42.4362  -31.6836    0.8816 H   0  0  0  0  0  0  0  0  0  0  0  0
  -43.5266  -30.7404    3.1519 H   0  0  0  0  0  0  0  0  0  0  0  0
  -48.8283  -31.0360    3.6343 H   0  0  0  0  0  0  0  0  0  0  0  0
  -49.6884  -29.4610    3.7117 H   0  0  0  0  0  0  0  0  0  0  0  0
  -48.0507  -29.5551    2.9797 H   0  0  0  0  0  0  0  0  0  0  0  0
  -50.5518  -30.4287    6.9062 H   0  0  0  0  0  0  0  0  0  0  0  0
  -50.4079  -28.7230    7.4504 H   0  0  0  0  0  0  0  0  0  0  0  0
  -50.7579  -29.0895    5.7271 H   0  0  0  0  0  0  0  0  0  0  0  0
  -45.4460  -32.9825    2.5662 H   0  0  0  0  0  0  0  0  0  0  0  0
  -44.5775  -33.5602    1.1039 H   0  0  0  0  0  0  0  0  0  0  0  0
  -43.6502  -33.0063    2.5391 H   0  0  0  0  0  0  0  0  0  0  0  0
  -46.7217  -31.3183    1.2190 H   0  0  0  0  0  0  0  0  0  0  0  0
  -45.8620  -30.0933    0.2257 H   0  0  0  0  0  0  0  0  0  0  0  0
  -45.8919  -31.8121   -0.2955 H   0  0  0  0  0  0  0  0  0  0  0  0
  -47.9669  -29.0435    8.2707 H   0  0  0  0  0  0  0  0  0  0  0  0
  -46.0695  -30.9775    3.2909 H   0  0  0  0  0  0  0  0  0  0  0  0
  1 16  1  0  0  0  0
  1 17  2  0  0  0  0
  2  3  1  0  0  0  0
  2  5  1  0  0  0  0
  2  6  2  0  0  0  0
  3  4  2  0  0  0  0
  3 12  1  0  0  0  0
  4 13  1  0  0  0  0
  4 18  1  0  0  0  0
  5 16  2  0  0  0  0
  5 18  1  0  0  0  0
  6 17  1  0  0  0  0
  6 19  1  0  0  0  0
  7  8  1  0  0  0  0
  7  9  1  0  0  0  0
  8 10  1  0  0  0  0
  9 11  1  0  0  0  0
 10 11  1  0  0  0  0
 10 19  1  0  0  0  0
 11 14  1  0  0  0  0
 11 15  1  0  0  0  0
  1 20  1  0  0  0  0
  7 21  1  0  0  0  0
  7 22  1  0  0  0  0
  8 23  1  0  0  0  0
  8 24  1  0  0  0  0
  9 25  1  0  0  0  0
  9 26  1  0  0  0  0
 10 27  1  0  0  0  0
 12 28  1  0  0  0  0
 12 29  1  0  0  0  0
 12 30  1  0  0  0  0
 13 31  1  0  0  0  0
 13 32  1  0  0  0  0
 13 33  1  0  0  0  0
 14 34  1  0  0  0  0
 14 35  1  0  0  0  0
 14 36  1  0  0  0  0
 15 37  1  0  0  0  0
 15 38  1  0  0  0  0
 15 39  1  0  0  0  0
 18 40  1  0  0  0  0
 19 41  1  0  0  0  0
M  END
> <POSIT::Probability>
0.99

> <POSIT::Method>
SHAPEFIT

> <ReceptorTitle>
UCSF-P4652-REFINED_LIGAND-BOUND-STATE_A__DU__LA1_A-201(A)

> <OMEGA_C>
osIwwvyc6cGyr9BAJpI6wi2Q7MHI16xAVFVAwutr7cGmDKRATetCwkKd68E0gspAGwQ6wqYZ6sHz
NNhA/eY1wo/G7cFPE5RAgFsswqEF7cFYVgU/8E4vwvzm6MEONeM/4kEtwik8+cEUafc+Tk4xwpT+
8sEOdB9ATS0ywo45+8FP3a8/Y9JCwmGc78G6RHFA/9lIwrte68Ge8NNAsDgywp5dA8IE1/c/CWc3
whkZ+cF+eRI/KCY1wqam6MFbx+lAMxAxwpgw7MFfpKZAmxM/wmO/6cH0y+lAETE2wrn+8MGcGVNA
md4swqNG6MFXuN5AmgMuwvRF6cHcpcS+Uw8ownc468GKaBc/oI8swmFh5MENBRtAVrEywv7D48Eh
lr4/YAkuwiPs+8Fxwwu/pL4pwgp4/cH5smE/PBsuwmXs9cFwuElAMlBDws1J+MG7l2hA8MBGwjew
68GAjG1A9DNAwsJw7MFysz5ADzVKwgZu88Gy/9xArqFJwq/I5cG7ae5AFwhLwkK36MFFRLdAtcg1
whnuA8LCPCRAZE8ywqw9BsIQTI0/wZkuwnUGBMJjgCJACuM6wtGL+sH4CJw/sXI3wh2/8MHcFGc+
SpE3wh5//sGaUZe+E94/witZ6MGtVARBKEc4wgXS98HqnVJA

> <OMEGA_E>
ACfMPA==

> <OMEGA_NBR>
     16161

$$$$
CACHE3HI_1690_56
  -OEChem-03092622523D

 41 43  0     1  0  0  0  0  0999 V2000
  -44.1489  -29.2436    6.6291 C   0  0  0  0  0  0  0  0  0  0  0  0
  -46.4784  -29.4944    5.2205 C   0  0  0  0  0  0  0  0  0  0  0  0
  -47.9160  -29.6422    4.8591 C   0  0  0  0  0  0  0  0  0  0  0  0
  -48.6462  -29.5388    6.0369 C   0  0  0  0  0  0  0  0  0  0  0  0
  -46.4643  -29.3390    6.6183 C   0  0  0  0  0  0  0  0  0  0  0  0
  -45.2117  -29.4745    4.5419 C   0  0  0  0  0  0  0  0  0  0  0  0
  -43.6431  -28.9476    1.2030 C   0  0  0  0  0  0  0  0  0  0  0  0
  -43.1982  -30.3234    1.6362 C   0  0  0  0  0  0  0  0  0  0  0  0
  -44.3326  -28.4026    2.4556 C   0  0  0  0  0  0  0  0  0  0  0  0
  -44.3041  -30.7882    2.6208 C   0  0  2  0  0  0  0  0  0  0  0  0
  -48.4846  -29.8792    3.4772 C   0  0  0  0  0  0  0  0  0  0  0  0
  -50.1426  -29.6105    6.2800 C   0  0  0  0  0  0  0  0  0  0  0  0
  -45.9832  -31.2014    0.7034 C   0  0  0  0  0  0  0  0  0  0  0  0
  -44.6713  -33.1137    1.7182 C   0  0  0  0  0  0  0  0  0  0  0  0
  -45.3387  -31.7536    1.9984 C   0  0  0  0  0  0  0  0  0  0  0  0
  -45.3163  -29.2105    7.3008 N   0  0  0  0  0  0  0  0  0  0  0  0
  -44.0822  -29.3636    5.2844 N   0  0  0  0  0  0  0  0  0  0  0  0
  -47.7614  -29.3517    7.0808 N   0  0  0  0  0  0  0  0  0  0  0  0
  -45.0093  -29.5613    3.1477 N   0  0  1  0  0  0  0  0  0  0  0  0
  -43.2279  -29.1713    7.1884 H   0  0  0  0  0  0  0  0  0  0  0  0
  -42.7822  -28.3234    0.9216 H   0  0  0  0  0  0  0  0  0  0  0  0
  -44.3453  -29.0062    0.3583 H   0  0  0  0  0  0  0  0  0  0  0  0
  -43.1337  -31.0023    0.7731 H   0  0  0  0  0  0  0  0  0  0  0  0
  -42.2215  -30.2769    2.1401 H   0  0  0  0  0  0  0  0  0  0  0  0
  -43.5878  -27.9489    3.1259 H   0  0  0  0  0  0  0  0  0  0  0  0
  -45.0801  -27.6467    2.1729 H   0  0  0  0  0  0  0  0  0  0  0  0
  -43.8179  -31.3027    3.4628 H   0  0  0  0  0  0  0  0  0  0  0  0
  -48.5469  -30.9608    3.2863 H   0  0  0  0  0  0  0  0  0  0  0  0
  -49.4900  -29.4374    3.4138 H   0  0  0  0  0  0  0  0  0  0  0  0
  -47.8305  -29.4116    2.7265 H   0  0  0  0  0  0  0  0  0  0  0  0
  -50.4345  -30.6543    6.4677 H   0  0  0  0  0  0  0  0  0  0  0  0
  -50.4019  -28.9947    7.1538 H   0  0  0  0  0  0  0  0  0  0  0  0
  -50.6762  -29.2342    5.3948 H   0  0  0  0  0  0  0  0  0  0  0  0
  -46.7063  -31.9324    0.3126 H   0  0  0  0  0  0  0  0  0  0  0  0
  -46.5009  -30.2566    0.9256 H   0  0  0  0  0  0  0  0  0  0  0  0
  -45.2002  -31.0226   -0.0483 H   0  0  0  0  0  0  0  0  0  0  0  0
  -45.4081  -33.7999    1.2753 H   0  0  0  0  0  0  0  0  0  0  0  0
  -43.8339  -32.9739    1.0188 H   0  0  0  0  0  0  0  0  0  0  0  0
  -44.2950  -33.5383    2.6606 H   0  0  0  0  0  0  0  0  0  0  0  0
  -46.1403  -31.9128    2.7346 H   0  0  0  0  0  0  0  0  0  0  0  0
  -48.0258  -29.2408    8.0389 H   0  0  0  0  0  0  0  0  0  0  0  0
  1 16  1  0  0  0  0
  1 17  2  0  0  0  0
  2  3  1  0  0  0  0
  2  5  1  0  0  0  0
  2  6  2  0  0  0  0
  3  4  2  0  0  0  0
  3 11  1  0  0  0  0
  4 12  1  0  0  0  0
  4 18  1  0  0  0  0
  5 16  2  0  0  0  0
  5 18  1  0  0  0  0
  6 17  1  0  0  0  0
  6 19  1  0  0  0  0
  7  8  1  0  0  0  0
  7  9  1  0  0  0  0
  8 10  1  0  0  0  0
  9 19  1  0  0  0  0
 10 15  1  0  0  0  0
 10 19  1  0  0  0  0
 13 15  1  0  0  0  0
 14 15  1  0  0  0  0
  1 20  1  0  0  0  0
  7 21  1  0  0  0  0
  7 22  1  0  0  0  0
  8 23  1  0  0  0  0
  8 24  1  0  0  0  0
  9 25  1  0  0  0  0
  9 26  1  0  0  0  0
 10 27  1  0  0  0  0
 11 28  1  0  0  0  0
 11 29  1  0  0  0  0
 11 30  1  0  0  0  0
 12 31  1  0  0  0  0
 12 32  1  0  0  0  0
 12 33  1  0  0  0  0
 13 34  1  0  0  0  0
 13 35  1  0  0  0  0
 13 36  1  0  0  0  0
 14 37  1  0  0  0  0
 14 38  1  0  0  0  0
 14 39  1  0  0  0  0
 15 40  1  0  0  0  0
 18 41  1  0  0  0  0
M  END
> <POSIT::Probability>
0.9

> <POSIT::Method>
SHAPEFIT

> <ReceptorTitle>
UCSF-P4652-REFINED_LIGAND-BOUND-STATE_A__DU__LA1_A-201(A)

> <OMEGA_C>
hZgwwvzy6cFxIdRA2Ok5wov068FVDqdAB6o/wkcj7cFsfZtAwJVCwmBP7MGELsFAets5wlG26sHg
yNNAvNg0wtDL68EEV5FAkZIuwq+U58HQ+5k/AMsswj6W8sGmbtE/nVQxwnc448HUJx1AcDcxwktO
9sGVuydAQfBBwq4I78E3il5ABZJIwlTi7MEi9shA0O43woic+cHYDzQ/bq8ywmZ0BMLI7ds/3Fo1
wlIH/sFgyv8/30M1wgiv6cF8oOlAJVQwwrjo6sHBGalAsAs/wi/Q6sEMluJAigk0wnZ97MFMc0lA
Yekswule6cGVB+ZAACErwk2W4sHt62s/j2ExwrgM6MFib7c+44gswsEE+MHf7EU/3OIowi838sEO
9whA3lkuwmyX38ESD0hABFI0wlos3cHSEAtAj0Uvwudr+sGanl1AADBCwqCv98FnUlJAvPVFwrx/
68HmelpAd1I/wu5K68Gofy5A57xJwhs89cFY985AkptJwhP158Eb7ORAdbRKwpff6cFtoqxAS9M6
wp91/8EaCKA+3wA6wo0N8sEa82w/DM00wjsu+MGHuEW966E1wiUzB8J6PaM/6lUvwkDlA8ImZ4I/
FC4xwkInBsKCRipAtI84wmJN/8EQBC9AYhpAwjHt6cEknwBB

> <OMEGA_E>
6N/3Pg==

> <OMEGA_NBR>
     17506

$$$$
CACHE3HI_1690_59
  -OEChem-03092622523D

 43 45  0     1  0  0  0  0  0999 V2000
  -44.1768  -29.2301    6.5605 C   0  0  0  0  0  0  0  0  0  0  0  0
  -46.6029  -29.5561    5.3692 C   0  0  0  0  0  0  0  0  0  0  0  0
  -48.0304  -29.7001    5.0569 C   0  0  0  0  0  0  0  0  0  0  0  0
  -48.7098  -29.4797    6.2398 C   0  0  0  0  0  0  0  0  0  0  0  0
  -46.4986  -29.2592    6.7282 C   0  0  0  0  0  0  0  0  0  0  0  0
  -45.4212  -29.6941    4.6266 C   0  0  0  0  0  0  0  0  0  0  0  0
  -43.2735  -29.5001    2.2686 C   0  0  0  0  0  0  0  0  0  0  0  0
  -44.2753  -30.6170    2.6256 C   0  0  2  0  0  0  0  0  0  0  0  0
  -44.6210  -31.3988    1.3168 C   0  0  0  0  0  0  0  0  0  0  0  0
  -48.6099  -30.0394    3.6949 C   0  0  0  0  0  0  0  0  0  0  0  0
  -50.1981  -29.5096    6.5001 C   0  0  0  0  0  0  0  0  0  0  0  0
  -44.2923  -32.9004    1.5603 C   0  0  0  0  0  0  0  0  0  0  0  0
  -46.1170  -31.3251    0.9004 C   0  0  0  0  0  0  0  0  0  0  0  0
  -42.6263  -31.4776   -0.2949 C   0  0  0  0  0  0  0  0  0  0  0  0
  -45.2946  -29.0958    7.3129 N   0  0  0  0  0  0  0  0  0  0  0  0
  -44.2232  -29.5327    5.2422 N   0  0  0  0  0  0  0  0  0  0  0  0
  -47.7792  -29.2119    7.2391 N   0  0  0  0  0  0  0  0  0  0  0  0
  -43.8114  -30.7478    0.2289 N   0  0  2  0  0  0  0  0  0  0  0  0
  -45.4711  -30.0647    3.2931 N   0  0  0  0  0  0  0  0  0  0  0  0
  -44.8616  -28.3493    0.4924 O   0  0  0  0  0  0  0  0  0  0  0  0
  -42.3337  -28.5838   -0.0223 O   0  0  0  0  0  0  0  0  0  0  0  0
  -43.5842  -29.0713    0.5745 S   0  0  0  0  0  0  0  0  0  0  0  0
  -43.2138  -29.0908    7.0291 H   0  0  0  0  0  0  0  0  0  0  0  0
  -43.4313  -28.6259    2.9174 H   0  0  0  0  0  0  0  0  0  0  0  0
  -42.2417  -29.8626    2.3862 H   0  0  0  0  0  0  0  0  0  0  0  0
  -43.7756  -31.3160    3.3124 H   0  0  0  0  0  0  0  0  0  0  0  0
  -48.6927  -31.1316    3.5928 H   0  0  0  0  0  0  0  0  0  0  0  0
  -49.6071  -29.5855    3.5974 H   0  0  0  0  0  0  0  0  0  0  0  0
  -47.9497  -29.6468    2.9075 H   0  0  0  0  0  0  0  0  0  0  0  0
  -50.5011  -30.5285    6.7827 H   0  0  0  0  0  0  0  0  0  0  0  0
  -50.4413  -28.8148    7.3176 H   0  0  0  0  0  0  0  0  0  0  0  0
  -50.7356  -29.2066    5.5894 H   0  0  0  0  0  0  0  0  0  0  0  0
  -44.5256  -33.4790    0.6543 H   0  0  0  0  0  0  0  0  0  0  0  0
  -43.2239  -33.0078    1.7988 H   0  0  0  0  0  0  0  0  0  0  0  0
  -44.8950  -33.2760    2.4003 H   0  0  0  0  0  0  0  0  0  0  0  0
  -46.2692  -31.8995   -0.0253 H   0  0  0  0  0  0  0  0  0  0  0  0
  -46.7416  -31.7479    1.7010 H   0  0  0  0  0  0  0  0  0  0  0  0
  -46.3990  -30.2754    0.7310 H   0  0  0  0  0  0  0  0  0  0  0  0
  -41.7743  -30.7862   -0.3728 H   0  0  0  0  0  0  0  0  0  0  0  0
  -42.3699  -32.2995    0.3898 H   0  0  0  0  0  0  0  0  0  0  0  0
  -42.8580  -31.8873   -1.2891 H   0  0  0  0  0  0  0  0  0  0  0  0
  -48.0064  -29.0133    8.1925 H   0  0  0  0  0  0  0  0  0  0  0  0
  -46.1889  -30.7563    3.2141 H   0  0  0  0  0  0  0  0  0  0  0  0
  1 15  1  0  0  0  0
  1 16  2  0  0  0  0
  2  3  1  0  0  0  0
  2  5  1  0  0  0  0
  2  6  2  0  0  0  0
  3  4  2  0  0  0  0
  3 10  1  0  0  0  0
  4 11  1  0  0  0  0
  4 17  1  0  0  0  0
  5 15  2  0  0  0  0
  5 17  1  0  0  0  0
  6 16  1  0  0  0  0
  6 19  1  0  0  0  0
  7  8  1  0  0  0  0
  7 22  1  0  0  0  0
  8  9  1  0  0  0  0
  8 19  1  0  0  0  0
  9 12  1  0  0  0  0
  9 13  1  0  0  0  0
  9 18  1  0  0  0  0
 14 18  1  0  0  0  0
 18 22  1  0  0  0  0
 20 22  2  0  0  0  0
 21 22  2  0  0  0  0
  1 23  1  0  0  0  0
  7 24  1  0  0  0  0
  7 25  1  0  0  0  0
  8 26  1  0  0  0  0
 10 27  1  0  0  0  0
 10 28  1  0  0  0  0
 10 29  1  0  0  0  0
 11 30  1  0  0  0  0
 11 31  1  0  0  0  0
 11 32  1  0  0  0  0
 12 33  1  0  0  0  0
 12 34  1  0  0  0  0
 12 35  1  0  0  0  0
 13 36  1  0  0  0  0
 13 37  1  0  0  0  0
 13 38  1  0  0  0  0
 14 39  1  0  0  0  0
 14 40  1  0  0  0  0
 14 41  1  0  0  0  0
 17 42  1  0  0  0  0
 19 43  1  0  0  0  0
M  END
> <POSIT::Probability>
0.81

> <POSIT::Method>
SHAPEFIT

> <ReceptorTitle>
UCSF-P4652-REFINED_LIGAND-BOUND-STATE_A__DU__LA1_A-201(A)

> <OMEGA_C>
B7UwwlHX6cFY79FAXWk6wu1y7MG+0KtAGx9AwtGZ7cHY0aFA2NZCwmrW68F0rMdAj/45wuQS6sEo
TddAUq81wpGN7cFyDZRAGxgtwhwA7MFGMBFA9Rkxwqbv9MEcCShA43sywsEw+8EsjKg/fXBCwslQ
8MH9eGxA4MpIwo8T7MG0ANBAVCsxwgSaA8KLt8c/0Hc4wreZ+sG4fmY/UoEqwhnS+8Fw95a+ny01
wkTE6MEGA+pAh+Qwwu1C7MFKwKdA4R0/wvOx6cHqpudA1j4vwnv79cHEXWo+XuI1wmiE8MGLwVJA
VHIzwmLL4sGKFvw+tlUpwpir5MHADre8OFYuwgqS6MHsEBM/79oswgO66MG87uBAoLktwskB5cEF
tjpAe/cowo3m7sH3txhAMRovwhSH+sHa/VNATMVCwnIN+cH38GVApm1Gwiyv7MHzO2ZAe8w/wows
7cF7FDpAHAFKwnI69MH8C9lA28NJws6E5sF4KepASvFKwjan6cF03LJAMxoywnTqBcKXfic/OuUs
wvMHBMLDPeY/g5Qzwp4aBcL1nhlAtBM5whky/8HxUs+8aPc6wrT7/cGuu9k/lpg5wgU08sEWITs/
1RgnwjtK9sG44b6+03opwrMyAcJdkcc+oW4rwikZ/8Ht/6S/mgZAwjMb6MFxFANBdsE4wv8M9sF6
tE1A

> <OMEGA_E>
wDucPg==

> <OMEGA_NBR>
     18892

$$$$
CACHE3HI_1690_62
  -OEChem-03092622523D

 40 42  0     1  0  0  0  0  0999 V2000
  -44.0320  -29.5494    6.6771 C   0  0  0  0  0  0  0  0  0  0  0  0
  -46.3371  -29.4625    5.3462 C   0  0  0  0  0  0  0  0  0  0  0  0
  -47.7150  -29.3892    5.0177 C   0  0  0  0  0  0  0  0  0  0  0  0
  -48.4182  -29.2891    6.1994 C   0  0  0  0  0  0  0  0  0  0  0  0
  -46.2470  -29.4043    6.7314 C   0  0  0  0  0  0  0  0  0  0  0  0
  -45.1364  -29.5727    4.6460 C   0  0  0  0  0  0  0  0  0  0  0  0
  -45.1868  -30.8869    2.5115 C   0  0  0  0  0  0  0  0  0  0  0  0
  -45.0488  -28.4708    2.3924 C   0  0  0  0  0  0  0  0  0  0  0  0
  -45.4492  -30.4263    1.0717 C   0  0  1  0  0  0  0  0  0  0  0  0
  -44.7575  -29.0549    0.9996 C   0  0  2  0  0  0  0  0  0  0  0  0
  -48.3036  -29.4142    3.6623 C   0  0  0  0  0  0  0  0  0  0  0  0
  -49.8678  -29.1864    6.4581 C   0  0  0  0  0  0  0  0  0  0  0  0
  -45.0180  -31.4489    0.0331 C   0  0  0  0  0  0  0  0  0  0  0  0
  -43.2531  -29.1100    0.7262 C   0  0  0  0  0  0  0  0  0  0  0  0
  -45.1213  -29.4431    7.4653 N   0  0  0  0  0  0  0  0  0  0  0  0
  -43.9690  -29.6161    5.3283 N   0  0  0  0  0  0  0  0  0  0  0  0
  -47.5172  -29.2994    7.2331 N   0  0  0  0  0  0  0  0  0  0  0  0
  -45.1196  -29.6396    3.2684 N   0  0  0  0  0  0  0  0  0  0  0  0
  -45.7318  -32.6538    0.2552 O   0  0  0  0  0  0  0  0  0  0  0  0
  -42.7393  -27.7928    0.7842 O   0  0  0  0  0  0  0  0  0  0  0  0
  -43.0789  -29.5865    7.1936 H   0  0  0  0  0  0  0  0  0  0  0  0
  -45.9978  -31.5353    2.8621 H   0  0  0  0  0  0  0  0  0  0  0  0
  -44.2387  -31.4279    2.6068 H   0  0  0  0  0  0  0  0  0  0  0  0
  -44.2812  -27.7621    2.7214 H   0  0  0  0  0  0  0  0  0  0  0  0
  -46.0188  -27.9590    2.3891 H   0  0  0  0  0  0  0  0  0  0  0  0
  -46.5313  -30.2631    0.9578 H   0  0  0  0  0  0  0  0  0  0  0  0
  -45.2243  -28.4353    0.2247 H   0  0  0  0  0  0  0  0  0  0  0  0
  -48.5334  -30.4408    3.3313 H   0  0  0  0  0  0  0  0  0  0  0  0
  -47.6171  -28.9952    2.9074 H   0  0  0  0  0  0  0  0  0  0  0  0
  -49.2385  -28.8323    3.6264 H   0  0  0  0  0  0  0  0  0  0  0  0
  -50.3382  -30.1773    6.5793 H   0  0  0  0  0  0  0  0  0  0  0  0
  -50.4025  -28.6947    5.6271 H   0  0  0  0  0  0  0  0  0  0  0  0
  -50.0678  -28.6068    7.3742 H   0  0  0  0  0  0  0  0  0  0  0  0
  -43.9479  -31.6471    0.1198 H   0  0  0  0  0  0  0  0  0  0  0  0
  -45.2397  -31.0835   -0.9721 H   0  0  0  0  0  0  0  0  0  0  0  0
  -43.0732  -29.5262   -0.2636 H   0  0  0  0  0  0  0  0  0  0  0  0
  -42.7630  -29.7236    1.4810 H   0  0  0  0  0  0  0  0  0  0  0  0
  -47.7507  -29.2420    8.2149 H   0  0  0  0  0  0  0  0  0  0  0  0
  -45.4367  -33.2864   -0.4208 H   0  0  0  0  0  0  0  0  0  0  0  0
  -41.7845  -27.8501    0.6082 H   0  0  0  0  0  0  0  0  0  0  0  0
  1 15  1  0  0  0  0
  1 16  2  0  0  0  0
  2  3  1  0  0  0  0
  2  5  1  0  0  0  0
  2  6  2  0  0  0  0
  3  4  2  0  0  0  0
  3 11  1  0  0  0  0
  4 12  1  0  0  0  0
  4 17  1  0  0  0  0
  5 15  2  0  0  0  0
  5 17  1  0  0  0  0
  6 16  1  0  0  0  0
  6 18  1  0  0  0  0
  7  9  1  0  0  0  0
  7 18  1  0  0  0  0
  8 10  1  0  0  0  0
  8 18  1  0  0  0  0
  9 10  1  0  0  0  0
  9 13  1  0  0  0  0
 10 14  1  0  0  0  0
 13 19  1  0  0  0  0
 14 20  1  0  0  0  0
  1 21  1  0  0  0  0
  7 22  1  0  0  0  0
  7 23  1  0  0  0  0
  8 24  1  0  0  0  0
  8 25  1  0  0  0  0
  9 26  1  0  0  0  0
 10 27  1  0  0  0  0
 11 28  1  0  0  0  0
 11 29  1  0  0  0  0
 11 30  1  0  0  0  0
 12 31  1  0  0  0  0
 12 32  1  0  0  0  0
 12 33  1  0  0  0  0
 13 34  1  0  0  0  0
 13 35  1  0  0  0  0
 14 36  1  0  0  0  0
 14 37  1  0  0  0  0
 17 38  1  0  0  0  0
 19 39  1  0  0  0  0
 20 40  1  0  0  0  0
M  END
> <POSIT::Probability>
0.55

> <POSIT::Method>
HYBRID

> <ReceptorTitle>
UCSF-P4652-REFINED_LIGAND-BOUND-STATE_A__DU__LA1_A-201(A)

> <OMEGA_C>
wiAwwkRl7MEyq9VANlk5wjaz68EDFKtAL9w+whMd68EKkaBAR6xBwgFQ6sFCYcZA9/w4wuo768G/
Z9dAsIs0wuqU7MFprJRAT780wnEY98EAvCBABDI0wjTE48HyHBlAAcw1whNp88HILYk/twczwmhw
6MEw438/5jZBwkpQ68GkY2pArXhHwtR96cFpqM5AaxI0wkSX+8EApAc9MgMtwljh6MGI5zk/QHw0
wmeL68Gc4+5AROAvwrDt7ME5gapAohE+wjpl6sGzdedAbHo0wtQd7cEWLVFAVO02woGdAsL4o4I+
DfUqwpxX3sFowEg/01Aswhyx7MG7MeZAw/03wjRI/MFDLTdAaPQwwmZs+8GW1iZA/R8xwuIY3sGb
Ky5APhM4whOs38FP5xhADyA6wuIa8sGoNHU/quU0wn9748FAI2Y+OyJCwsyG88FqM1VA83c+wiX2
58FAEzpANPREwoSo5sE8F2hAXlpJwixr8cFuidJAKJxJwqiO5cE9EbRAaUVIwsra5MHJ+etApcov
wkYt/cEgQPU9fvU0whqr+MFA3Xi/9EoswqY17MHw8Ia+TA0rwt7J7cFMkb0/rQA/wpzv6cEMcANB
Mb81wk4lBcJAdte+XiMnwgrN3sF4sBs/

> <OMEGA_E>
/uAfwQ==

> <OMEGA_NBR>
     20194

$$$$
CACHE3HI_1690_66
  -OEChem-03092622523D

 45 47  0     1  0  0  0  0  0999 V2000
  -44.2073  -29.3813    6.4387 C   0  0  0  0  0  0  0  0  0  0  0  0
  -46.7144  -29.4516    5.3520 C   0  0  0  0  0  0  0  0  0  0  0  0
  -48.1944  -29.4139    5.1656 C   0  0  0  0  0  0  0  0  0  0  0  0
  -48.7587  -29.2895    6.4271 C   0  0  0  0  0  0  0  0  0  0  0  0
  -46.5095  -29.3373    6.7363 C   0  0  0  0  0  0  0  0  0  0  0  0
  -45.5496  -29.4917    4.5158 C   0  0  0  0  0  0  0  0  0  0  0  0
  -45.1530  -28.4416    0.9299 C   0  0  0  0  0  0  0  0  0  0  0  0
  -44.6169  -28.4702    2.3785 C   0  0  0  0  0  0  0  0  0  0  0  0
  -46.3327  -29.4304    0.9569 C   0  0  2  0  0  0  0  0  0  0  0  0
  -46.0209  -30.3537    2.1474 C   0  0  1  0  0  0  0  0  0  0  0  0
  -48.9660  -29.4927    3.8638 C   0  0  0  0  0  0  0  0  0  0  0  0
  -50.2161  -29.2100    6.8443 C   0  0  0  0  0  0  0  0  0  0  0  0
  -45.6470  -32.8394    1.6338 C   0  0  0  0  0  0  0  0  0  0  0  0
  -43.8911  -31.3050    0.7636 C   0  0  0  0  0  0  0  0  0  0  0  0
  -47.8157  -30.8224   -0.3199 C   0  0  0  0  0  0  0  0  0  0  0  0
  -44.9370  -31.5007    1.9099 C   0  0  0  0  0  0  0  0  0  0  0  0
  -45.2735  -29.2996    7.2619 N   0  0  0  0  0  0  0  0  0  0  0  0
  -44.3263  -29.4619    5.0941 N   0  0  0  0  0  0  0  0  0  0  0  0
  -47.7366  -29.2407    7.3574 N   0  0  0  0  0  0  0  0  0  0  0  0
  -45.5772  -29.3384    3.1244 N   0  0  1  0  0  0  0  0  0  0  0  0
  -46.5550  -30.1231   -0.2767 O   0  0  0  0  0  0  0  0  0  0  0  0
  -43.2180  -29.3823    6.8718 H   0  0  0  0  0  0  0  0  0  0  0  0
  -45.4939  -27.4318    0.6577 H   0  0  0  0  0  0  0  0  0  0  0  0
  -44.3808  -28.7718    0.2194 H   0  0  0  0  0  0  0  0  0  0  0  0
  -43.6040  -28.8981    2.4083 H   0  0  0  0  0  0  0  0  0  0  0  0
  -44.5994  -27.4564    2.8051 H   0  0  0  0  0  0  0  0  0  0  0  0
  -47.2373  -28.8583    1.2107 H   0  0  0  0  0  0  0  0  0  0  0  0
  -46.9536  -30.8237    2.4925 H   0  0  0  0  0  0  0  0  0  0  0  0
  -49.1904  -30.5445    3.6330 H   0  0  0  0  0  0  0  0  0  0  0  0
  -49.9062  -28.9300    3.9604 H   0  0  0  0  0  0  0  0  0  0  0  0
  -48.3616  -29.0603    3.0528 H   0  0  0  0  0  0  0  0  0  0  0  0
  -50.5997  -30.2235    7.0333 H   0  0  0  0  0  0  0  0  0  0  0  0
  -50.3026  -28.6084    7.7611 H   0  0  0  0  0  0  0  0  0  0  0  0
  -50.8022  -28.7402    6.0407 H   0  0  0  0  0  0  0  0  0  0  0  0
  -44.8961  -33.6266    1.4707 H   0  0  0  0  0  0  0  0  0  0  0  0
  -46.2757  -33.1056    2.4963 H   0  0  0  0  0  0  0  0  0  0  0  0
  -46.2768  -32.7422    0.7371 H   0  0  0  0  0  0  0  0  0  0  0  0
  -43.2187  -32.1747    0.7276 H   0  0  0  0  0  0  0  0  0  0  0  0
  -44.4156  -31.2071   -0.1983 H   0  0  0  0  0  0  0  0  0  0  0  0
  -43.3035  -30.3950    0.9550 H   0  0  0  0  0  0  0  0  0  0  0  0
  -47.9211  -31.3298   -1.2902 H   0  0  0  0  0  0  0  0  0  0  0  0
  -47.8496  -31.5672    0.4889 H   0  0  0  0  0  0  0  0  0  0  0  0
  -48.6382  -30.1034   -0.1910 H   0  0  0  0  0  0  0  0  0  0  0  0
  -44.3755  -31.6104    2.8494 H   0  0  0  0  0  0  0  0  0  0  0  0
  -47.8693  -29.1482    8.3442 H   0  0  0  0  0  0  0  0  0  0  0  0
  1 17  1  0  0  0  0
  1 18  2  0  0  0  0
  2  3  1  0  0  0  0
  2  5  1  0  0  0  0
  2  6  2  0  0  0  0
  3  4  2  0  0  0  0
  3 11  1  0  0  0  0
  4 12  1  0  0  0  0
  4 19  1  0  0  0  0
  5 17  2  0  0  0  0
  5 19  1  0  0  0  0
  6 18  1  0  0  0  0
  6 20  1  0  0  0  0
  7  8  1  0  0  0  0
  7  9  1  0  0  0  0
  8 20  1  0  0  0  0
  9 10  1  0  0  0  0
  9 21  1  0  0  0  0
 10 16  1  0  0  0  0
 10 20  1  0  0  0  0
 13 16  1  0  0  0  0
 14 16  1  0  0  0  0
 15 21  1  0  0  0  0
  1 22  1  0  0  0  0
  7 23  1  0  0  0  0
  7 24  1  0  0  0  0
  8 25  1  0  0  0  0
  8 26  1  0  0  0  0
  9 27  1  0  0  0  0
 10 28  1  0  0  0  0
 11 29  1  0  0  0  0
 11 30  1  0  0  0  0
 11 31  1  0  0  0  0
 12 32  1  0  0  0  0
 12 33  1  0  0  0  0
 12 34  1  0  0  0  0
 13 35  1  0  0  0  0
 13 36  1  0  0  0  0
 13 37  1  0  0  0  0
 14 38  1  0  0  0  0
 14 39  1  0  0  0  0
 14 40  1  0  0  0  0
 15 41  1  0  0  0  0
 15 42  1  0  0  0  0
 15 43  1  0  0  0  0
 16 44  1  0  0  0  0
 19 45  1  0  0  0  0
M  END
> <POSIT::Probability>
0.72

> <POSIT::Method>
SHAPEFIT

> <ReceptorTitle>
UCSF-P4652-REFINED_LIGAND-BOUND-STATE_A__DU__LA1_A-201(A)

> <OMEGA_C>
U9QwwtcM68HKCc5AmNs6wtCc68HQQ6tAE8dAwqRP68FCTKVA4ghDwuFQ6sHgqs1AuAk6wtCy6sEk
kNdAxzI2wvXu68F8gZBApZw0wluI48FcC24/t3cywuHC48EJORhAtlQ5wntx68G0+HQ/YBU4wnTU
8sG7bwlALN1Dwvjw68GxSHdAQ91Iwhuu6cFIBNtAi5Y2wphbA8LSHtE/iJAvwo1w+sGwekM/RUM/
wjaU9sEIyaO+db8zwmsB/MEidvQ/HRg1wohl6sFmYehAG04xwuix68EyA6NASfI+wgPt6cHGb+tA
BE82wh+16sG19kdATTg6wij88MEIsI2+Nt8swv0O68F85dtAvPk1wj9028EjYig/8IUxwows5sGV
rmA+gGouwk8v58EvIhpAxGUywrum28EDhzNAAfM8wrvd5sGc9po/gdA7wgaX9sGWhR9A7MJEwitb
9MGVg2hA/J9Hwppw58FQd31AS3JBwod76MFhYENAGGZKwq3J8cGfEOFA4DVJwhLe5MEeW/hAfDVL
wtbr5cHLTcFAnZUzwpqBBsLhP7w/TBo5wipsBMLNwh9AaBs5whD4AsJSszw/898swu+yAMLfQzo/
n6kxwiSo+cEiG0u+xzYtwvco88H8fHQ/N68/wm6j+sGzI6W//WU/wpqJ/MH6TPo+go1CwtHT8MEq
kEO+gIAxwhvi/ME1XDZAHno/woIv6cH2gQVB

> <OMEGA_E>
gDcwPw==

> <OMEGA_NBR>
     21622

$$$$
CACHE3HI_1690_70
  -OEChem-03092622523D

 42 44  0     1  0  0  0  0  0999 V2000
  -44.1947  -29.2446    6.5471 C   0  0  0  0  0  0  0  0  0  0  0  0
  -46.6443  -29.6156    5.4251 C   0  0  0  0  0  0  0  0  0  0  0  0
  -48.0832  -29.7346    5.1466 C   0  0  0  0  0  0  0  0  0  0  0  0
  -48.7384  -29.4341    6.3277 C   0  0  0  0  0  0  0  0  0  0  0  0
  -46.5113  -29.2440    6.7654 C   0  0  0  0  0  0  0  0  0  0  0  0
  -45.4772  -29.8014    4.6592 C   0  0  0  0  0  0  0  0  0  0  0  0
  -44.6890  -31.3044    1.2781 C   0  0  0  0  0  0  0  0  0  0  0  0
  -42.6042  -29.2984    1.0413 C   0  0  0  0  0  0  0  0  0  0  0  0
  -43.0527  -30.1025   -0.1991 C   0  0  0  0  0  0  0  0  0  0  0  0
  -44.3692  -30.3593    2.4582 C   0  0  1  0  0  0  0  0  0  0  0  0
  -43.7958  -28.9997    1.9776 C   0  0  2  0  0  0  0  0  0  0  0  0
  -48.6938  -30.1205    3.8101 C   0  0  0  0  0  0  0  0  0  0  0  0
  -50.2259  -29.4069    6.6109 C   0  0  0  0  0  0  0  0  0  0  0  0
  -44.8706  -28.1197    1.2802 C   0  0  0  0  0  0  0  0  0  0  0  0
  -44.1259  -32.2586   -0.9552 C   0  0  0  0  0  0  0  0  0  0  0  0
  -45.2951  -29.0592    7.3164 N   0  0  0  0  0  0  0  0  0  0  0  0
  -44.2664  -29.6137    5.2425 N   0  0  0  0  0  0  0  0  0  0  0  0
  -47.7825  -29.1383    7.2961 N   0  0  0  0  0  0  0  0  0  0  0  0
  -43.8714  -31.2953    0.1336 N   0  0  0  0  0  0  0  0  0  0  0  0
  -45.5669  -30.1689    3.3184 N   0  0  0  0  0  0  0  0  0  0  0  0
  -45.5555  -32.1638    1.4201 O   0  0  0  0  0  0  0  0  0  0  0  0
  -43.2214  -29.0925    6.9897 H   0  0  0  0  0  0  0  0  0  0  0  0
  -41.8521  -29.8812    1.5933 H   0  0  0  0  0  0  0  0  0  0  0  0
  -42.1610  -28.3475    0.7108 H   0  0  0  0  0  0  0  0  0  0  0  0
  -43.6476  -29.4412   -0.8464 H   0  0  0  0  0  0  0  0  0  0  0  0
  -42.1555  -30.4359   -0.7411 H   0  0  0  0  0  0  0  0  0  0  0  0
  -43.5900  -30.8451    3.0639 H   0  0  0  0  0  0  0  0  0  0  0  0
  -43.4193  -28.4538    2.8552 H   0  0  0  0  0  0  0  0  0  0  0  0
  -48.8098  -31.2133    3.7613 H   0  0  0  0  0  0  0  0  0  0  0  0
  -49.6788  -29.6423    3.7054 H   0  0  0  0  0  0  0  0  0  0  0  0
  -48.0349  -29.7851    2.9956 H   0  0  0  0  0  0  0  0  0  0  0  0
  -50.5529  -30.4002    6.9522 H   0  0  0  0  0  0  0  0  0  0  0  0
  -50.4366  -28.6628    7.3932 H   0  0  0  0  0  0  0  0  0  0  0  0
  -50.7689  -29.1376    5.6930 H   0  0  0  0  0  0  0  0  0  0  0  0
  -45.6994  -27.9304    1.9781 H   0  0  0  0  0  0  0  0  0  0  0  0
  -44.4206  -27.1628    0.9773 H   0  0  0  0  0  0  0  0  0  0  0  0
  -45.2523  -28.6431    0.3912 H   0  0  0  0  0  0  0  0  0  0  0  0
  -43.3931  -32.1041   -1.7609 H   0  0  0  0  0  0  0  0  0  0  0  0
  -44.0331  -33.2836   -0.5669 H   0  0  0  0  0  0  0  0  0  0  0  0
  -45.1416  -32.1064   -1.3493 H   0  0  0  0  0  0  0  0  0  0  0  0
  -47.9871  -28.8851    8.2416 H   0  0  0  0  0  0  0  0  0  0  0  0
  -46.0613  -31.0379    3.3015 H   0  0  0  0  0  0  0  0  0  0  0  0
  1 16  1  0  0  0  0
  1 17  2  0  0  0  0
  2  3  1  0  0  0  0
  2  5  1  0  0  0  0
  2  6  2  0  0  0  0
  3  4  2  0  0  0  0
  3 12  1  0  0  0  0
  4 13  1  0  0  0  0
  4 18  1  0  0  0  0
  5 16  2  0  0  0  0
  5 18  1  0  0  0  0
  6 17  1  0  0  0  0
  6 20  1  0  0  0  0
  7 10  1  0  0  0  0
  7 19  1  0  0  0  0
  7 21  2  0  0  0  0
  8  9  1  0  0  0  0
  8 11  1  0  0  0  0
  9 19  1  0  0  0  0
 10 11  1  0  0  0  0
 10 20  1  0  0  0  0
 11 14  1  0  0  0  0
 15 19  1  0  0  0  0
  1 22  1  0  0  0  0
  8 23  1  0  0  0  0
  8 24  1  0  0  0  0
  9 25  1  0  0  0  0
  9 26  1  0  0  0  0
 10 27  1  0  0  0  0
 11 28  1  0  0  0  0
 12 29  1  0  0  0  0
 12 30  1  0  0  0  0
 12 31  1  0  0  0  0
 13 32  1  0  0  0  0
 13 33  1  0  0  0  0
 13 34  1  0  0  0  0
 14 35  1  0  0  0  0
 14 36  1  0  0  0  0
 14 37  1  0  0  0  0
 15 38  1  0  0  0  0
 15 39  1  0  0  0  0
 15 40  1  0  0  0  0
 18 41  1  0  0  0  0
 20 42  1  0  0  0  0
M  END
> <POSIT::Probability>
0.83

> <POSIT::Method>
SHAPEFIT

> <ReceptorTitle>
UCSF-P4652-REFINED_LIGAND-BOUND-STATE_A__DU__LA1_A-201(A)

> <OMEGA_C>
WMcwwuX06cFxgdFAzpM6wq/s7MElmq1ANVVAwlzg7cGbsKRAH/RCwgd568FxfMpAjQs6wqfz6cEZ
fthApeg1wlJp7sHaF5VAiMEywmtv+sFtmKM/vWoqwjRj6sFUSIU/AzYswtPR8MHA3ku+Gnoxwr/f
8sFKUx1A4i4vwlf/58GLIf0/bMZCwsb28ME32XNAVedIwl5B68F4jNNAdnszwjP14MEM3aM/9IAw
wtUIAcLBiHS/LC41wkp56MHnH+pAwxAxwsLo7MFIwqdASCE/wiUb6cFceelAVnwvwrFc+sFZzwg+
dkQ2wtpZ8cFSYFRA3Dg2wsWnAMJaxLU/seIswnm96MH6q99AmWgnwsAM78G58Ms/6qQowpnH4sG7
9TU/Hpcuwq2H68GZrFi/RZ8ows5888GMuj2/L1wuwq/C9sE3FkRAZa0twkqh48EFvDZAMz1Dwsi0
+cF5uXBAIrdGwmwj7cG6JW1AxCNAwtxH7sFJuD9AMTZKwpMz88FpeN5ACb9Jwn5N5cH2lOxAZBNL
wt8Z6cG7LLZANsw2wmRx38F/M/0/r64xwl5N2cEwLXo/WwI1wiAl5cGGSMg+lZItwqVqAMLEZeG/
4yEwwmkiBcIuHxG/9pA0wvtsAMKjtqy/1/I/wsgU58Gi3QNBxz44wqdN+ME4TFNA

> <OMEGA_E>
OJC2Pg==

> <OMEGA_NBR>
     22988

$$$$
CACHE3HI_1690_78
  -OEChem-03092622523D

 45 47  0     1  0  0  0  0  0999 V2000
  -44.1773  -29.1580    6.5625 C   0  0  0  0  0  0  0  0  0  0  0  0
  -46.5892  -29.5042    5.3555 C   0  0  0  0  0  0  0  0  0  0  0  0
  -48.0107  -29.6854    5.0386 C   0  0  0  0  0  0  0  0  0  0  0  0
  -48.6955  -29.5716    6.2333 C   0  0  0  0  0  0  0  0  0  0  0  0
  -46.4938  -29.2886    6.7316 C   0  0  0  0  0  0  0  0  0  0  0  0
  -45.4046  -29.5594    4.6012 C   0  0  0  0  0  0  0  0  0  0  0  0
  -43.0747  -30.1669    2.4554 C   0  0  0  0  0  0  0  0  0  0  0  0
  -44.4270  -30.8286    2.6988 C   0  0  2  0  0  0  0  0  0  0  0  0
  -43.1527  -29.6900    0.9977 C   0  0  0  0  0  0  0  0  0  0  0  0
  -44.7787  -31.3639    1.2909 C   0  0  0  0  0  0  0  0  0  0  0  0
  -48.5805  -29.9519    3.6584 C   0  0  0  0  0  0  0  0  0  0  0  0
  -50.1808  -29.6861    6.4888 C   0  0  0  0  0  0  0  0  0  0  0  0
  -41.8092  -29.8875    0.2829 C   0  0  0  0  0  0  0  0  0  0  0  0
  -43.5977  -28.2160    0.9330 C   0  0  0  0  0  0  0  0  0  0  0  0
  -46.2859  -31.3839    0.9748 C   0  0  0  0  0  0  0  0  0  0  0  0
  -44.1813  -32.7813    1.1353 C   0  0  0  0  0  0  0  0  0  0  0  0
  -45.2959  -29.1146    7.3241 N   0  0  0  0  0  0  0  0  0  0  0  0
  -44.2151  -29.3889    5.2281 N   0  0  0  0  0  0  0  0  0  0  0  0
  -47.7738  -29.3287    7.2469 N   0  0  0  0  0  0  0  0  0  0  0  0
  -45.4476  -29.9007    3.2527 N   0  0  0  0  0  0  0  0  0  0  0  0
  -44.1473  -30.4928    0.3346 O   0  0  0  0  0  0  0  0  0  0  0  0
  -43.2193  -29.0028    7.0363 H   0  0  0  0  0  0  0  0  0  0  0  0
  -42.9268  -29.3168    3.1377 H   0  0  0  0  0  0  0  0  0  0  0  0
  -42.2561  -30.8897    2.5874 H   0  0  0  0  0  0  0  0  0  0  0  0
  -44.2936  -31.6816    3.3804 H   0  0  0  0  0  0  0  0  0  0  0  0
  -48.6205  -31.0368    3.4809 H   0  0  0  0  0  0  0  0  0  0  0  0
  -49.5952  -29.5322    3.5934 H   0  0  0  0  0  0  0  0  0  0  0  0
  -47.9391  -29.4798    2.8996 H   0  0  0  0  0  0  0  0  0  0  0  0
  -50.4367  -30.7340    6.7041 H   0  0  0  0  0  0  0  0  0  0  0  0
  -50.4542  -29.0578    7.3494 H   0  0  0  0  0  0  0  0  0  0  0  0
  -50.7329  -29.3494    5.5990 H   0  0  0  0  0  0  0  0  0  0  0  0
  -41.8918  -29.5389   -0.7571 H   0  0  0  0  0  0  0  0  0  0  0  0
  -41.0296  -29.3106    0.8020 H   0  0  0  0  0  0  0  0  0  0  0  0
  -41.5427  -30.9547    0.2917 H   0  0  0  0  0  0  0  0  0  0  0  0
  -43.6476  -27.8932   -0.1174 H   0  0  0  0  0  0  0  0  0  0  0  0
  -44.5902  -28.1121    1.3958 H   0  0  0  0  0  0  0  0  0  0  0  0
  -42.8731  -27.5902    1.4747 H   0  0  0  0  0  0  0  0  0  0  0  0
  -46.4430  -31.7768   -0.0406 H   0  0  0  0  0  0  0  0  0  0  0  0
  -46.8042  -32.0274    1.7010 H   0  0  0  0  0  0  0  0  0  0  0  0
  -46.6874  -30.3618    1.0386 H   0  0  0  0  0  0  0  0  0  0  0  0
  -44.4241  -33.1747    0.1372 H   0  0  0  0  0  0  0  0  0  0  0  0
  -43.0888  -32.7337    1.2547 H   0  0  0  0  0  0  0  0  0  0  0  0
  -44.6055  -33.4443    1.9037 H   0  0  0  0  0  0  0  0  0  0  0  0
  -48.0056  -29.2014    8.2113 H   0  0  0  0  0  0  0  0  0  0  0  0
  -46.3409  -30.3186    3.0870 H   0  0  0  0  0  0  0  0  0  0  0  0
  1 17  1  0  0  0  0
  1 18  2  0  0  0  0
  2  3  1  0  0  0  0
  2  5  1  0  0  0  0
  2  6  2  0  0  0  0
  3  4  2  0  0  0  0
  3 11  1  0  0  0  0
  4 12  1  0  0  0  0
  4 19  1  0  0  0  0
  5 17  2  0  0  0  0
  5 19  1  0  0  0  0
  6 18  1  0  0  0  0
  6 20  1  0  0  0  0
  7  8  1  0  0  0  0
  7  9  1  0  0  0  0
  8 10  1  0  0  0  0
  8 20  1  0  0  0  0
  9 13  1  0  0  0  0
  9 14  1  0  0  0  0
  9 21  1  0  0  0  0
 10 15  1  0  0  0  0
 10 16  1  0  0  0  0
 10 21  1  0  0  0  0
  1 22  1  0  0  0  0
  7 23  1  0  0  0  0
  7 24  1  0  0  0  0
  8 25  1  0  0  0  0
 11 26  1  0  0  0  0
 11 27  1  0  0  0  0
 11 28  1  0  0  0  0
 12 29  1  0  0  0  0
 12 30  1  0  0  0  0
 12 31  1  0  0  0  0
 13 32  1  0  0  0  0
 13 33  1  0  0  0  0
 13 34  1  0  0  0  0
 14 35  1  0  0  0  0
 14 36  1  0  0  0  0
 14 37  1  0  0  0  0
 15 38  1  0  0  0  0
 15 39  1  0  0  0  0
 15 40  1  0  0  0  0
 16 41  1  0  0  0  0
 16 42  1  0  0  0  0
 16 43  1  0  0  0  0
 19 44  1  0  0  0  0
 20 45  1  0  0  0  0
M  END
> <POSIT::Probability>
0.91

> <POSIT::Method>
SHAPEFIT

> <ReceptorTitle>
UCSF-P4652-REFINED_LIGAND-BOUND-STATE_A__DU__LA1_A-201(A)

> <OMEGA_C>
jLUwwpJD6cHO/9FAV1s6wpoI7MGqYKtA9ApAwsB77cGCPKFALMhCwqSS7ME4d8dApfk5wvRO6sGq
addAVZ41wpR57MFGPZNAgkwswsBV8cH4JR1AOLUxwhKh9sF4uCxAW5wswjiF7cFIZ38/ax0zwkDp
+sGpO6U/aFJCwpSd78HqImpAJrlIwhZ97cGkpM9AlDwnwpYZ78EQ2pA+DmQuwk664cEc124/xiQ5
wlIS+8FAjnk/m7kwwhQgA8LqUZE//y41wqjq6MEMX+pAOdwwwoYc68GSTKdAWxg/wj6h6sGA5udA
Yso1wrQ078HtK1BA1ZYwwjbx88H4Vqs+keAswqIF6MHEKeFACbUrwsmI6sEl0EhAOAYpwgYe98FG
lyVArCwxwvtz/cGEWFhAYHtCwlZL+MFGxl5AdmFGwgFC7MFg+mVAosE/wpTW68GqkzlAI79Jwkff
9cFliNZAEtFJwl126ME0LutAce5KworL6sG+KrNAN5EnwqFP7MGY0UG/Rx4kwiR86sH9T00/sSsm
wjSj98ExWJU+G5cuwlYl38GsgvC9Ulwywn3l4MH0qrI/GH4rwsy43MFawrw/mMU5wso2/sFkMCa9
eDc7whocAMI+utk/7L86wgfl8sHH8IQ/U7IxwtuyBMIYdgw+6loswlbvAsJsmKA/CmwywvTGBcLq
rfM/uwVAwoCc6cFoYQNBEF05wpaM8sGjkEVA

> <OMEGA_E>
ECmiPg==

> <OMEGA_NBR>
     24410

$$$$
CACHE3HI_1690_8
  -OEChem-03092622523D

 38 41  0     1  0  0  0  0  0999 V2000
  -45.3445  -26.7257    1.0262 C   0  0  0  0  0  0  0  0  0  0  0  0
  -44.0186  -26.5313    0.7422 C   0  0  0  0  0  0  0  0  0  0  0  0
  -44.5360  -29.4196    6.0426 C   0  0  0  0  0  0  0  0  0  0  0  0
  -47.0670  -29.4836    5.2166 C   0  0  0  0  0  0  0  0  0  0  0  0
  -48.4845  -29.4513    5.1751 C   0  0  0  0  0  0  0  0  0  0  0  0
  -45.3931  -28.0442    1.5099 C   0  0  0  0  0  0  0  0  0  0  0  0
  -48.9320  -29.2300    6.4603 C   0  0  0  0  0  0  0  0  0  0  0  0
  -46.6955  -29.2791    6.5397 C   0  0  0  0  0  0  0  0  0  0  0  0
  -46.0336  -29.6618    4.2978 C   0  0  0  0  0  0  0  0  0  0  0  0
  -46.6784  -30.9680    0.8921 C   0  0  0  0  0  0  0  0  0  0  0  0
  -47.2887  -29.5761    0.8301 C   0  0  0  0  0  0  0  0  0  0  0  0
  -46.4848  -31.2096    2.3854 C   0  0  0  0  0  0  0  0  0  0  0  0
  -46.6128  -28.8160    1.9839 C   0  0  1  0  0  0  0  0  0  0  0  0
  -49.3384  -29.6217    3.9810 C   0  0  0  0  0  0  0  0  0  0  0  0
  -50.2996  -29.1070    7.0019 C   0  0  0  0  0  0  0  0  0  0  0  0
  -45.4423  -29.2354    7.0243 N   0  0  0  0  0  0  0  0  0  0  0  0
  -44.7501  -29.6279    4.7240 N   0  0  0  0  0  0  0  0  0  0  0  0
  -44.1897  -28.6236    1.5248 N   0  0  0  0  0  0  0  0  0  0  0  0
  -47.8377  -29.1274    7.2803 N   0  0  0  0  0  0  0  0  0  0  0  0
  -46.2994  -29.8742    2.9570 N   0  0  3  0  0  0  0  0  0  0  0  0
  -43.3188  -27.6578    1.0354 O   0  0  0  0  0  0  0  0  0  0  0  0
  -46.1503  -26.0181    0.9004 H   0  0  0  0  0  0  0  0  0  0  0  0
  -43.4425  -25.7062    0.3512 H   0  0  0  0  0  0  0  0  0  0  0  0
  -43.4965  -29.3979    6.3513 H   0  0  0  0  0  0  0  0  0  0  0  0
  -47.3183  -31.7235    0.4272 H   0  0  0  0  0  0  0  0  0  0  0  0
  -45.7082  -30.9770    0.3816 H   0  0  0  0  0  0  0  0  0  0  0  0
  -47.1466  -29.1125   -0.1516 H   0  0  0  0  0  0  0  0  0  0  0  0
  -48.3673  -29.6478    1.0197 H   0  0  0  0  0  0  0  0  0  0  0  0
  -47.3804  -31.6860    2.8100 H   0  0  0  0  0  0  0  0  0  0  0  0
  -45.6209  -31.8563    2.5875 H   0  0  0  0  0  0  0  0  0  0  0  0
  -47.3130  -28.0831    2.3942 H   0  0  0  0  0  0  0  0  0  0  0  0
  -49.6045  -30.6785    3.8116 H   0  0  0  0  0  0  0  0  0  0  0  0
  -48.8330  -29.2817    3.0614 H   0  0  0  0  0  0  0  0  0  0  0  0
  -50.2755  -29.0508    4.0803 H   0  0  0  0  0  0  0  0  0  0  0  0
  -50.7090  -30.0815    7.3187 H   0  0  0  0  0  0  0  0  0  0  0  0
  -51.0063  -28.7079    6.2539 H   0  0  0  0  0  0  0  0  0  0  0  0
  -50.3218  -28.4348    7.8754 H   0  0  0  0  0  0  0  0  0  0  0  0
  -47.8656  -28.9677    8.2780 H   0  0  0  0  0  0  0  0  0  0  0  0
  1  2  2  0  0  0  0
  1  6  1  0  0  0  0
  2 21  1  0  0  0  0
  3 16  1  0  0  0  0
  3 17  2  0  0  0  0
  4  5  1  0  0  0  0
  4  8  1  0  0  0  0
  4  9  2  0  0  0  0
  5  7  2  0  0  0  0
  5 14  1  0  0  0  0
  6 13  1  0  0  0  0
  6 18  2  0  0  0  0
  7 15  1  0  0  0  0
  7 19  1  0  0  0  0
  8 16  2  0  0  0  0
  8 19  1  0  0  0  0
  9 17  1  0  0  0  0
  9 20  1  0  0  0  0
 10 11  1  0  0  0  0
 10 12  1  0  0  0  0
 11 13  1  0  0  0  0
 12 20  1  0  0  0  0
 13 20  1  0  0  0  0
 18 21  1  0  0  0  0
  1 22  1  0  0  0  0
  2 23  1  0  0  0  0
  3 24  1  0  0  0  0
 10 25  1  0  0  0  0
 10 26  1  0  0  0  0
 11 27  1  0  0  0  0
 11 28  1  0  0  0  0
 12 29  1  0  0  0  0
 12 30  1  0  0  0  0
 13 31  1  0  0  0  0
 14 32  1  0  0  0  0
 14 33  1  0  0  0  0
 14 34  1  0  0  0  0
 15 35  1  0  0  0  0
 15 36  1  0  0  0  0
 15 37  1  0  0  0  0
 19 38  1  0  0  0  0
M  END
> <POSIT::Probability>
0.33

> <POSIT::Method>
HYBRID

> <ReceptorTitle>
UCSF-P4652-REFINED_LIGAND-BOUND-STATE_A__DU__LA1_A-201(A)

> <OMEGA_C>
xmA1wivO1cFoW4M/ARMwwgJA1MEQBD4/2yQywmtb68H9XMFAp0Q8wlbe68FC7qZAG/BBwjKc68FY
mqVAj5I1woZa4MHgQsE/XLpDwiTX6cF6us5AO8g6wpQ76sHeRNFAWyI4wndL7cGdh4lAtbY6wo6+
98GwY2Q/mSc9ws6b7MFwflQ/e/A5wjmt+cHIqhhAdXM6whmH5sGQ8P0/hVpFwjb57MFwyH5AxjJJ
wgrb6MGcD+BA9sQ1whji6cEHx+BAEwAzwgEG7cExK5dAR8Iwwiz95MEYLMM/x1k/wuQE6cFb+OhA
mjI5wmT+7sGuPz1AdUYtwi5D3cHEiIQ/8Zk4wh0l0MFYf2Y/FsUtwjKmzcEQ1LM+XvwtwtQu68G2
PctA7UU9wqHJ/cGwtNo+M9U2wvnQ98EwX8M+FpY8wmPm6MEAQBu+EnhBwsUu7cEwhII/k4U9wuZ8
/cGk1zNAyHs2wrLZ/sFAmSVAhkA9wiKq4MHGORlAD2tGwoht9cHU8HNAAlVDwu1A6sFA7UNAHhpJ
wh5o6MGGkYJABNZKwgCn8MEmM+pAfgZMwsqp5cFaIMhAk0lJwm1648FMA/xAZXY/wty958GVcgRB

> <OMEGA_E>
LdItwQ==

> <OMEGA_NBR>
     25675

$$$$
CACHE3HI_1690_95
  -OEChem-03092622523D

 35 37  0     1  0  0  0  0  0999 V2000
  -46.5935  -30.5649   -0.2447 C   0  0  0  0  0  0  0  0  0  0  0  0
  -45.5302  -30.3541    0.2990 C   0  0  0  0  0  0  0  0  0  0  0  0
  -44.1645  -29.2296    6.5329 C   0  0  0  0  0  0  0  0  0  0  0  0
  -46.5801  -29.5644    5.3123 C   0  0  0  0  0  0  0  0  0  0  0  0
  -48.0259  -29.6577    5.0118 C   0  0  0  0  0  0  0  0  0  0  0  0
  -48.6988  -29.4681    6.2095 C   0  0  0  0  0  0  0  0  0  0  0  0
  -46.4826  -29.3029    6.6849 C   0  0  0  0  0  0  0  0  0  0  0  0
  -45.3705  -29.6707    4.5697 C   0  0  0  0  0  0  0  0  0  0  0  0
  -43.9653  -31.4851    1.7531 C   0  0  0  0  0  0  0  0  0  0  0  0
  -44.9515  -31.5062    2.9373 C   0  0  0  0  0  0  0  0  0  0  0  0
  -44.5415  -29.2468    2.2460 C   0  0  0  0  0  0  0  0  0  0  0  0
  -44.2916  -30.1742    1.0570 C   0  0  2  0  0  0  0  0  0  0  0  0
  -48.6367  -29.8762    3.6433 C   0  0  0  0  0  0  0  0  0  0  0  0
  -50.1884  -29.4439    6.4915 C   0  0  0  0  0  0  0  0  0  0  0  0
  -45.2871  -29.1455    7.2810 N   0  0  0  0  0  0  0  0  0  0  0  0
  -44.1892  -29.4872    5.2048 N   0  0  0  0  0  0  0  0  0  0  0  0
  -47.7586  -29.2682    7.2092 N   0  0  0  0  0  0  0  0  0  0  0  0
  -45.3116  -30.0730    3.2359 N   0  0  2  0  0  0  0  0  0  0  0  0
  -43.2180  -29.7113    0.2371 O   0  0  0  0  0  0  0  0  0  0  0  0
  -47.5229  -30.7492   -0.7200 H   0  0  0  0  0  0  0  0  0  0  0  0
  -43.2089  -29.0853    7.0149 H   0  0  0  0  0  0  0  0  0  0  0  0
  -42.9236  -31.4961    2.1063 H   0  0  0  0  0  0  0  0  0  0  0  0
  -44.1344  -32.3408    1.0830 H   0  0  0  0  0  0  0  0  0  0  0  0
  -45.8540  -32.0742    2.6673 H   0  0  0  0  0  0  0  0  0  0  0  0
  -44.4771  -31.9676    3.8159 H   0  0  0  0  0  0  0  0  0  0  0  0
  -43.5882  -28.9128    2.6815 H   0  0  0  0  0  0  0  0  0  0  0  0
  -45.1294  -28.3707    1.9348 H   0  0  0  0  0  0  0  0  0  0  0  0
  -48.7661  -30.9542    3.4667 H   0  0  0  0  0  0  0  0  0  0  0  0
  -49.6156  -29.3768    3.5949 H   0  0  0  0  0  0  0  0  0  0  0  0
  -47.9723  -29.4559    2.8740 H   0  0  0  0  0  0  0  0  0  0  0  0
  -50.5317  -30.4592    6.7394 H   0  0  0  0  0  0  0  0  0  0  0  0
  -50.3902  -28.7717    7.3384 H   0  0  0  0  0  0  0  0  0  0  0  0
  -50.7242  -29.0831    5.6011 H   0  0  0  0  0  0  0  0  0  0  0  0
  -47.9749  -29.1199    8.1742 H   0  0  0  0  0  0  0  0  0  0  0  0
  -42.4361  -29.6084    0.7667 H   0  0  0  0  0  0  0  0  0  0  0  0
  1  2  3  0  0  0  0
  2 12  1  0  0  0  0
  3 15  1  0  0  0  0
  3 16  2  0  0  0  0
  4  5  1  0  0  0  0
  4  7  1  0  0  0  0
  4  8  2  0  0  0  0
  5  6  2  0  0  0  0
  5 13  1  0  0  0  0
  6 14  1  0  0  0  0
  6 17  1  0  0  0  0
  7 15  2  0  0  0  0
  7 17  1  0  0  0  0
  8 16  1  0  0  0  0
  8 18  1  0  0  0  0
  9 10  1  0  0  0  0
  9 12  1  0  0  0  0
 10 18  1  0  0  0  0
 11 12  1  0  0  0  0
 11 18  1  0  0  0  0
 12 19  1  0  0  0  0
  1 20  1  0  0  0  0
  3 21  1  0  0  0  0
  9 22  1  0  0  0  0
  9 23  1  0  0  0  0
 10 24  1  0  0  0  0
 10 25  1  0  0  0  0
 11 26  1  0  0  0  0
 11 27  1  0  0  0  0
 13 28  1  0  0  0  0
 13 29  1  0  0  0  0
 13 30  1  0  0  0  0
 14 31  1  0  0  0  0
 14 32  1  0  0  0  0
 14 33  1  0  0  0  0
 17 34  1  0  0  0  0
 19 35  1  0  0  0  0
M  END
> <POSIT::Probability>
0.72

> <POSIT::Method>
SHAPEFIT

> <ReceptorTitle>
UCSF-P4652-REFINED_LIGAND-BOUND-STATE_A__DU__LA1_A-201(A)

> <OMEGA_C>
uF86wvGE9MFAn3q+5R42wifV8sFQEJk+eagwwinW6cF6DdFABlI6wviD7MFA/qlAjhpAwg9D7cG6
YKBAlstCwp6+68FKtMZAM+45wmNs6sH96tVAY3s1wpNd7cHsOpJAgNwvwmXh+8F4ZeA/Vs4zwrsM
/MFO/DtAdCoywnn56cGyvg9AmyoxwrJk8cFkTYc/BYxCwmAC78HxK2lA5cBIwi2N68EYus9AAyY1
wucp6cFX/uhAvMEwwrzl68FnjaZA0Ag/wlcl6sGbseZADD81woqV8MFkGE9AON8swtCw7cEgyHI+
bhc+wlv+9cGzUDi/39UswqWu6MGveeBA0bErwgr4+8ExzgZAmIkwwgRdAcLJnoo/gGo3wv5LAMKH
tSpAgegxwpa9/8FdOHRARVouwl5N58FcnStAe4Q0wkP34sFsqPc/dRBDwiGi98H+3l1AbHZGwqAD
68G5EmZAluM/wpql68Hh7zdAaiBKwl+s88EMqddAnY9JwnMs5sFy1OpAiOVKwheq6MFrPLNATOY/
wnv16MFmyQJBjL4pwu7d7MGaSEQ/

> <OMEGA_E>
0FsuPw==

> <OMEGA_NBR>
     26899

$$$$
CACHE3HI_1706_30
  -OEChem-03092622523D

 46 49  0     1  0  0  0  0  0999 V2000
  -44.1140  -29.2181    6.3270 C   0  0  0  0  0  0  0  0  0  0  0  0
  -46.5194  -29.5154    5.2231 C   0  0  0  0  0  0  0  0  0  0  0  0
  -47.9186  -29.6391    5.0261 C   0  0  0  0  0  0  0  0  0  0  0  0
  -48.5213  -29.5450    6.2625 C   0  0  0  0  0  0  0  0  0  0  0  0
  -46.3153  -29.3488    6.5873 C   0  0  0  0  0  0  0  0  0  0  0  0
  -45.3814  -29.5230    4.4175 C   0  0  0  0  0  0  0  0  0  0  0  0
  -45.0778  -33.2502    0.8178 C   0  0  0  0  0  0  0  0  0  0  0  0
  -44.2352  -31.9713    0.9457 C   0  0  0  0  0  0  0  0  0  0  0  0
  -46.2488  -32.3689    0.3571 C   0  0  0  0  0  0  0  0  0  0  0  0
  -46.0805  -30.8978    2.4711 C   0  0  0  0  0  0  0  0  0  0  0  0
  -45.6140  -28.4826    2.2042 C   0  0  0  0  0  0  0  0  0  0  0  0
  -45.5592  -31.1513    1.0495 C   0  0  0  0  0  0  0  0  0  0  0  0
  -45.0442  -28.7408    0.8003 C   0  0  0  0  0  0  0  0  0  0  0  0
  -48.6166  -29.8333    3.7380 C   0  0  0  0  0  0  0  0  0  0  0  0
  -49.9431  -29.6073    6.6541 C   0  0  0  0  0  0  0  0  0  0  0  0
  -43.5128  -28.8109    0.8084 C   0  0  0  0  0  0  0  0  0  0  0  0
  -45.4772  -27.6076   -0.1392 C   0  0  0  0  0  0  0  0  0  0  0  0
  -45.1337  -29.1941    7.2095 N   0  0  0  0  0  0  0  0  0  0  0  0
  -44.1626  -29.3712    4.9846 N   0  0  0  0  0  0  0  0  0  0  0  0
  -47.5387  -29.3692    7.2028 N   0  0  0  0  0  0  0  0  0  0  0  0
  -45.4793  -29.6861    3.0341 N   0  0  1  0  0  0  0  0  0  0  0  0
  -45.6112  -29.9393    0.2546 O   0  0  0  0  0  0  0  0  0  0  0  0
  -43.1224  -29.0987    6.7498 H   0  0  0  0  0  0  0  0  0  0  0  0
  -44.7203  -33.9815    0.0893 H   0  0  0  0  0  0  0  0  0  0  0  0
  -45.2563  -33.7575    1.7719 H   0  0  0  0  0  0  0  0  0  0  0  0
  -43.5733  -31.9362    1.8154 H   0  0  0  0  0  0  0  0  0  0  0  0
  -43.6450  -31.7431    0.0503 H   0  0  0  0  0  0  0  0  0  0  0  0
  -46.3248  -32.2705   -0.7326 H   0  0  0  0  0  0  0  0  0  0  0  0
  -47.2268  -32.6650    0.7477 H   0  0  0  0  0  0  0  0  0  0  0  0
  -47.1730  -30.8182    2.4667 H   0  0  0  0  0  0  0  0  0  0  0  0
  -45.8261  -31.7440    3.1169 H   0  0  0  0  0  0  0  0  0  0  0  0
  -45.0968  -27.6405    2.6729 H   0  0  0  0  0  0  0  0  0  0  0  0
  -46.6754  -28.2251    2.1432 H   0  0  0  0  0  0  0  0  0  0  0  0
  -48.7377  -30.9014    3.4914 H   0  0  0  0  0  0  0  0  0  0  0  0
  -48.0608  -29.3856    2.8969 H   0  0  0  0  0  0  0  0  0  0  0  0
  -49.6193  -29.3774    3.7590 H   0  0  0  0  0  0  0  0  0  0  0  0
  -50.2664  -30.6384    6.8781 H   0  0  0  0  0  0  0  0  0  0  0  0
  -50.6094  -29.2463    5.8516 H   0  0  0  0  0  0  0  0  0  0  0  0
  -50.1356  -28.9942    7.5499 H   0  0  0  0  0  0  0  0  0  0  0  0
  -43.1525  -28.9941   -0.2001 H   0  0  0  0  0  0  0  0  0  0  0  0
  -43.1900  -29.6182    1.4600 H   0  0  0  0  0  0  0  0  0  0  0  0
  -43.1079  -27.8695    1.1716 H   0  0  0  0  0  0  0  0  0  0  0  0
  -45.0764  -27.7858   -1.1337 H   0  0  0  0  0  0  0  0  0  0  0  0
  -45.1014  -26.6594    0.2365 H   0  0  0  0  0  0  0  0  0  0  0  0
  -46.5631  -27.5704   -0.1894 H   0  0  0  0  0  0  0  0  0  0  0  0
  -47.6897  -29.2725    8.1975 H   0  0  0  0  0  0  0  0  0  0  0  0
  1 18  1  0  0  0  0
  1 19  2  0  0  0  0
  2  3  1  0  0  0  0
  2  5  1  0  0  0  0
  2  6  2  0  0  0  0
  3  4  2  0  0  0  0
  3 14  1  0  0  0  0
  4 15  1  0  0  0  0
  4 20  1  0  0  0  0
  5 18  2  0  0  0  0
  5 20  1  0  0  0  0
  6 19  1  0  0  0  0
  6 21  1  0  0  0  0
  7  8  1  0  0  0  0
  7  9  1  0  0  0  0
  8 12  1  0  0  0  0
  9 12  1  0  0  0  0
 10 12  1  0  0  0  0
 10 21  1  0  0  0  0
 11 13  1  0  0  0  0
 11 21  1  0  0  0  0
 12 22  1  0  0  0  0
 13 16  1  0  0  0  0
 13 17  1  0  0  0  0
 13 22  1  0  0  0  0
  1 23  1  0  0  0  0
  7 24  1  0  0  0  0
  7 25  1  0  0  0  0
  8 26  1  0  0  0  0
  8 27  1  0  0  0  0
  9 28  1  0  0  0  0
  9 29  1  0  0  0  0
 10 30  1  0  0  0  0
 10 31  1  0  0  0  0
 11 32  1  0  0  0  0
 11 33  1  0  0  0  0
 14 34  1  0  0  0  0
 14 35  1  0  0  0  0
 14 36  1  0  0  0  0
 15 37  1  0  0  0  0
 15 38  1  0  0  0  0
 15 39  1  0  0  0  0
 16 40  1  0  0  0  0
 16 41  1  0  0  0  0
 16 42  1  0  0  0  0
 17 43  1  0  0  0  0
 17 44  1  0  0  0  0
 17 45  1  0  0  0  0
 20 46  1  0  0  0  0
M  END
> <POSIT::Probability>
0.55

> <POSIT::Method>
HYBRID

> <ReceptorTitle>
UCSF-P4652-REFINED_LIGAND-BOUND-STATE_A__DU__LA1_A-201(A)

> <OMEGA_C>
xHQwwrC+6cH3dspA0xM6wowf7MHSI6dAnqw/wtIc7cHd1aBA1BVCwixc7MGWZshA4EI5wlnK6sEW
y9JAlIY1wiEv7MHeW41AoU80wikABcJgXFE/zvAwwijF/8GIFnI/vP44wrt5AcLw2rY+c1I4wqwu
98HSJR5AsnQ2wmLc48HsEA1Apzw2wtU1+cFIVYY/Ni00whPt5cEg3kw/WndCwo6q7sFuO29AxsVH
wrTb7MHA7tRAHw0uwsJ85sHI9E4/oOg1wlLc3MGglg6+64g0woSN6cFutOZAiqYwwjj46sHwgZ9A
qCc+wi306sGdfeZAyOo1wjl97cEKL0JA4nE2wqiD78EgVoI+VH0swgzK6MHD/tdAj+EywhXtB8LA
67Y9bAY1wqkHB8Ikz+I/D0suwlR9/8GcX+g/hJQuwurx/cEAJ049lkw5wgcVAcKciTu/M+g8wu2o
AsIgbD8/ILE8wqGL9sHe3h1A8003wsXz/cFOe0dAFWM0wq4f3cGIEStAqbM6wv3M4cHAKglAX/NC
wg4298Gscl9ASz5AwsMV68FiZjlANnpGwt0E68ECk3BAzhBJwmQb9cG1GdxABnBKwoX46cGkQLtA
34pIwjX058EYmfFAMpwswt7z58EA5Ey+kcIswhDy7MFI4ro/dW4swrH03sG495U/QE40wmJJ3sHU
HZG/1Gc0wnJG1cGAJ3I+m0A6wjyQ3MGA+0G+TcI+wh4u6sEeKQNB

> <OMEGA_E>
RxwywQ==

> <OMEGA_NBR>
     28321

$$$$
CACHE3HI_1707_78
  -OEChem-03092622523D

 40 42  0     1  0  0  0  0  0999 V2000
  -51.2398  -30.5360    3.5204 C   0  0  0  0  0  0  0  0  0  0  0  0
  -51.0553  -29.3713    4.2654 C   0  0  0  0  0  0  0  0  0  0  0  0
  -50.1699  -31.4061    3.3111 C   0  0  0  0  0  0  0  0  0  0  0  0
  -49.8015  -29.0767    4.8012 C   0  0  0  0  0  0  0  0  0  0  0  0
  -48.9160  -31.1115    3.8469 C   0  0  0  0  0  0  0  0  0  0  0  0
  -47.1818  -29.4900    6.4434 C   0  0  0  0  0  0  0  0  0  0  0  0
  -48.7315  -29.9468    4.5918 C   0  0  0  0  0  0  0  0  0  0  0  0
  -46.3093  -29.4651    4.4564 C   0  0  0  0  0  0  0  0  0  0  0  0
  -44.1815  -31.6377    0.6309 C   0  0  0  0  0  0  0  0  0  0  0  0
  -42.4069  -30.3444    1.4275 C   0  0  0  0  0  0  0  0  0  0  0  0
  -44.7608  -30.3543    1.2110 C   0  0  2  0  0  0  0  0  0  0  0  0
  -43.5699  -29.3926    1.1461 C   0  0  0  0  0  0  0  0  0  0  0  0
  -43.6177  -28.2342    2.1471 C   0  0  0  0  0  0  0  0  0  0  0  0
  -43.4403  -28.8044   -0.2737 C   0  0  0  0  0  0  0  0  0  0  0  0
  -46.1825  -29.5545    2.9627 C   0  0  0  0  0  0  0  0  0  0  0  0
  -45.9029  -29.2189    6.5776 N   0  0  0  0  0  0  0  0  0  0  0  0
  -45.3477  -29.2032    5.3131 N   0  0  0  0  0  0  0  0  0  0  0  0
  -47.4811  -29.6526    5.1250 N   0  0  0  0  0  0  0  0  0  0  0  0
  -45.2353  -30.5853    2.5563 N   0  0  0  0  0  0  0  0  0  0  0  0
  -42.7671  -31.6195    0.8722 O   0  0  0  0  0  0  0  0  0  0  0  0
  -52.2163  -30.7658    3.1042 H   0  0  0  0  0  0  0  0  0  0  0  0
  -51.8881  -28.6940    4.4309 H   0  0  0  0  0  0  0  0  0  0  0  0
  -50.3123  -32.3138    2.7321 H   0  0  0  0  0  0  0  0  0  0  0  0
  -49.6726  -28.1660    5.3811 H   0  0  0  0  0  0  0  0  0  0  0  0
  -48.0910  -31.7988    3.6757 H   0  0  0  0  0  0  0  0  0  0  0  0
  -47.9058  -29.5757    7.2418 H   0  0  0  0  0  0  0  0  0  0  0  0
  -44.5864  -32.5373    1.1136 H   0  0  0  0  0  0  0  0  0  0  0  0
  -44.3664  -31.7254   -0.4471 H   0  0  0  0  0  0  0  0  0  0  0  0
  -41.4847  -30.0216    0.9279 H   0  0  0  0  0  0  0  0  0  0  0  0
  -42.1889  -30.4655    2.4944 H   0  0  0  0  0  0  0  0  0  0  0  0
  -45.5571  -30.0143    0.6008 H   0  0  0  0  0  0  0  0  0  0  0  0
  -44.4559  -27.5913    1.9054 H   0  0  0  0  0  0  0  0  0  0  0  0
  -42.6929  -27.6729    2.0842 H   0  0  0  0  0  0  0  0  0  0  0  0
  -43.7377  -28.6347    3.1478 H   0  0  0  0  0  0  0  0  0  0  0  0
  -44.2702  -28.1283   -0.4678 H   0  0  0  0  0  0  0  0  0  0  0  0
  -43.4538  -29.6083   -1.0064 H   0  0  0  0  0  0  0  0  0  0  0  0
  -42.5037  -28.2563   -0.3602 H   0  0  0  0  0  0  0  0  0  0  0  0
  -47.1505  -29.7868    2.5064 H   0  0  0  0  0  0  0  0  0  0  0  0
  -45.8435  -28.6030    2.5397 H   0  0  0  0  0  0  0  0  0  0  0  0
  -45.6943  -31.4963    2.6029 H   0  0  0  0  0  0  0  0  0  0  0  0
  1  2  1  0  0  0  0
  1  3  2  0  0  0  0
  2  4  2  0  0  0  0
  3  5  1  0  0  0  0
  4  7  1  0  0  0  0
  5  7  2  0  0  0  0
  6 16  2  0  0  0  0
  6 18  1  0  0  0  0
  7 18  1  0  0  0  0
  8 15  1  0  0  0  0
  8 17  2  0  0  0  0
  8 18  1  0  0  0  0
  9 11  1  0  0  0  0
  9 20  1  0  0  0  0
 10 12  1  0  0  0  0
 10 20  1  0  0  0  0
 11 12  1  0  0  0  0
 11 19  1  0  0  0  0
 12 13  1  0  0  0  0
 12 14  1  0  0  0  0
 15 19  1  0  0  0  0
 16 17  1  0  0  0  0
  1 21  1  0  0  0  0
  2 22  1  0  0  0  0
  3 23  1  0  0  0  0
  4 24  1  0  0  0  0
  5 25  1  0  0  0  0
  6 26  1  0  0  0  0
  9 27  1  0  0  0  0
  9 28  1  0  0  0  0
 10 29  1  0  0  0  0
 10 30  1  0  0  0  0
 11 31  1  0  0  0  0
 13 32  1  0  0  0  0
 13 33  1  0  0  0  0
 13 34  1  0  0  0  0
 14 35  1  0  0  0  0
 14 36  1  0  0  0  0
 14 37  1  0  0  0  0
 15 38  1  0  0  0  0
 15 39  1  0  0  0  0
 19 40  1  0  0  0  0
M  END
> <POSIT::Probability>
0.23

> <POSIT::Method>
HYBRID

> <ReceptorTitle>
UCSF-P4652-REFINED_LIGAND-BOUND-STATE_A__DU__LA1_A-201(A)

> <OMEGA_C>
hvVMwstJ9MFmTmFAqDhMwlf46sEOfohA9K1IwqI/+8EA6VNAtDRHwgqd6MEYo5lA/6lDwlXk+MEU
M3ZANbo8wobr68GRMM5AGu1CwviS78E08JJAsDw5woi468Ecm45A1bkwwg0a/cGQgCE/sqApwmzB
8sFMuLY/EwszwqbV8sEoAps/iUcuwvYj68H0tJI/k3guwrff4cGaaglA68ItwlJv5sHQH4y+4Lo4
wodv7MEgnD1AjZw3wkrA6cG+e9JACmQ1wjug6cGwBKpAoOw9wn847cH+/6NA5vA0wq2u9MESmyNA
fhErwqP0/MHgSF8/fN1QwkYg9sHMqkZAdo1PwmqN5cGKyY1AzT9JwlZBAcK42i5AurBGwghU4cEa
MqxAJF1Awt1j/sGUPmtAk58/wh+b7MH0vOdAe1gywjsmAsKYio4/Pncxwq7N/cEw5OS+XfAlwjYs
8MGgjW0/bMEowm+588FkpB9Abjo2wjYd8MFgzxk/29IxwuK63MGo4/M/gsUqwhpi3cEeYwVAXPMu
wsYT5cFSdklAqBQxwsEG4cEwhu++qdAtwrvd7MEO04C/0AMqwvIM4sEQb7i+H5o8wkpL7sGoaSBA
xl83wgbT5MEIiiJA/cY2wob4+8GEliZA

> <OMEGA_E>
9YnUwA==

> <OMEGA_NBR>
     29617

$$$$
CACHE3HI_1717_24
  -OEChem-03092622523D

 34 36  0     1  0  0  0  0  0999 V2000
  -48.5770  -29.5405    5.1501 C   0  0  0  0  0  0  0  0  0  0  0  0
  -44.6809  -29.4311    6.0981 C   0  0  0  0  0  0  0  0  0  0  0  0
  -47.1696  -29.5385    5.1770 C   0  0  0  0  0  0  0  0  0  0  0  0
  -46.8552  -29.3802    6.5151 C   0  0  0  0  0  0  0  0  0  0  0  0
  -46.1072  -29.6447    4.2861 C   0  0  0  0  0  0  0  0  0  0  0  0
  -46.8863  -31.4611    1.0089 C   0  0  0  0  0  0  0  0  0  0  0  0
  -46.3935  -32.2763    2.1667 C   0  0  0  0  0  0  0  0  0  0  0  0
  -47.0718  -30.9571    2.4139 C   0  0  0  0  0  0  0  0  0  0  0  0
  -43.9639  -26.6580    1.1179 C   0  0  0  0  0  0  0  0  0  0  0  0
  -43.9114  -28.0590    0.5279 C   0  0  0  0  0  0  0  0  0  0  0  0
  -44.4292  -29.1025    1.5187 C   0  0  0  0  0  0  0  0  0  0  0  0
  -45.8597  -28.8191    1.9588 C   0  0  0  0  0  0  0  0  0  0  0  0
  -49.1167  -29.3966    6.3660 N   0  0  0  0  0  0  0  0  0  0  0  0
  -45.6275  -29.3170    7.0546 N   0  0  0  0  0  0  0  0  0  0  0  0
  -44.8401  -29.5896    4.7620 N   0  0  0  0  0  0  0  0  0  0  0  0
  -48.0454  -29.3017    7.1747 N   0  0  0  0  0  0  0  0  0  0  0  0
  -46.3325  -29.8061    2.9187 N   0  0  3  0  0  0  0  0  0  0  0  0
  -49.2358  -29.6410    4.2993 H   0  0  0  0  0  0  0  0  0  0  0  0
  -43.6540  -29.3900    6.4452 H   0  0  0  0  0  0  0  0  0  0  0  0
  -46.1473  -30.9782    0.3815 H   0  0  0  0  0  0  0  0  0  0  0  0
  -47.7623  -31.8153    0.4796 H   0  0  0  0  0  0  0  0  0  0  0  0
  -46.9384  -33.1772    2.4203 H   0  0  0  0  0  0  0  0  0  0  0  0
  -45.3225  -32.3415    2.3149 H   0  0  0  0  0  0  0  0  0  0  0  0
  -48.0780  -30.9934    2.8169 H   0  0  0  0  0  0  0  0  0  0  0  0
  -43.3692  -26.6102    2.0342 H   0  0  0  0  0  0  0  0  0  0  0  0
  -44.9921  -26.3751    1.3654 H   0  0  0  0  0  0  0  0  0  0  0  0
  -43.5645  -25.9201    0.4146 H   0  0  0  0  0  0  0  0  0  0  0  0
  -44.5127  -28.0855   -0.3882 H   0  0  0  0  0  0  0  0  0  0  0  0
  -42.8775  -28.2874    0.2444 H   0  0  0  0  0  0  0  0  0  0  0  0
  -44.3775  -30.0983    1.0623 H   0  0  0  0  0  0  0  0  0  0  0  0
  -43.7829  -29.1158    2.4042 H   0  0  0  0  0  0  0  0  0  0  0  0
  -46.5438  -28.8181    1.1037 H   0  0  0  0  0  0  0  0  0  0  0  0
  -45.9157  -27.8373    2.4385 H   0  0  0  0  0  0  0  0  0  0  0  0
  -48.2011  -29.1838    8.1679 H   0  0  0  0  0  0  0  0  0  0  0  0
  1  3  1  0  0  0  0
  1 13  2  0  0  0  0
  2 14  2  0  0  0  0
  2 15  1  0  0  0  0
  3  4  2  0  0  0  0
  3  5  1  0  0  0  0
  4 14  1  0  0  0  0
  4 16  1  0  0  0  0
  5 15  2  0  0  0  0
  5 17  1  0  0  0  0
  6  7  1  0  0  0  0
  6  8  1  0  0  0  0
  7  8  1  0  0  0  0
  8 17  1  0  0  0  0
  9 10  1  0  0  0  0
 10 11  1  0  0  0  0
 11 12  1  0  0  0  0
 12 17  1  0  0  0  0
 13 16  1  0  0  0  0
  1 18  1  0  0  0  0
  2 19  1  0  0  0  0
  6 20  1  0  0  0  0
  6 21  1  0  0  0  0
  7 22  1  0  0  0  0
  7 23  1  0  0  0  0
  8 24  1  0  0  0  0
  9 25  1  0  0  0  0
  9 26  1  0  0  0  0
  9 27  1  0  0  0  0
 10 28  1  0  0  0  0
 10 29  1  0  0  0  0
 11 30  1  0  0  0  0
 11 31  1  0  0  0  0
 12 32  1  0  0  0  0
 12 33  1  0  0  0  0
 16 34  1  0  0  0  0
M  END
> <POSIT::Probability>
0.42

> <POSIT::Method>
HYBRID

> <ReceptorTitle>
UCSF-P4652-REFINED_LIGAND-BOUND-STATE_A__DU__LA1_A-201(A)

> <OMEGA_C>
0E5CwgpT7MFrzaRAPrkywupy68GyI8NAqq08wu5O7MEGqqVAr2s7wpAK68Fte9BAum04wkYo7cGf
J4lAlYs7wkyw+8GHJIE/6ZI5wuoaAcJnqgpAjkk8wjKo98E5fRpAAtsvwqhD1cE2Fo8/SKUvwr94
4MFMJAc/ebcxwvrR6MGGY8I/THA3wpqN5sHSufo/fHdEwjQs68H4tctAiII2wiaJ6sFwv+FAPlwz
woO37MEoYphAeC5AwvBp6sHdluVAelQ5wvxy7sFoyzpAbvFEwsQg7cEVlIlAvp0uws0e68FqP85A
ypY4wnLT98GUUMM+nww/wqSF/sHMjfU+88A7wnq1BMJo5hpARko1wrhdAcKOJhRA5E9Awn7y98H9
RzRAGnotwp/h1MERMAJA9vczwiAA08Hoxa4/B0IuwmRcz8GsStQ+/QwywgKv4MFwwsa+j4IrwoBM
4sEARno+iIIxwkTJ8MFC+oc/siEvwhbt6MEn3hlA1yw6woiL5sEeRY0/p6k3wtyy3sEvERxA5s1A
wnh46cHkrwJB

> <OMEGA_E>
y3kiwQ==

> <OMEGA_NBR>
     30800

$$$$
CACHE3-HO_1700_24
  -OEChem-03092622543D

 45 47  0     0  0  0  0  0  0999 V2000
  -42.6325  -30.6885    3.0093 C   0  0  0  0  0  0  0  0  0  0  0  0
  -44.0064  -30.9220    3.0680 C   0  0  0  0  0  0  0  0  0  0  0  0
  -42.1410  -29.5983    2.2915 C   0  0  0  0  0  0  0  0  0  0  0  0
  -50.6979  -30.0387    3.1776 C   0  0  0  0  0  0  0  0  0  0  0  0
  -44.3971  -28.9751    1.6915 C   0  0  0  0  0  0  0  0  0  0  0  0
  -48.7558  -29.6567    5.1981 C   0  0  0  0  0  0  0  0  0  0  0  0
  -44.8887  -30.0654    2.4093 C   0  0  0  0  0  0  0  0  0  0  0  0
  -49.3415  -29.9607    2.8560 C   0  0  0  0  0  0  0  0  0  0  0  0
  -51.0648  -29.9118    4.5067 C   0  0  0  0  0  0  0  0  0  0  0  0
  -50.1035  -29.7226    5.5065 C   0  0  0  0  0  0  0  0  0  0  0  0
  -43.0232  -28.7417    1.6328 C   0  0  0  0  0  0  0  0  0  0  0  0
  -48.3778  -29.7713    3.8587 C   0  0  0  0  0  0  0  0  0  0  0  0
  -46.3528  -30.3152    2.4723 C   0  0  0  0  0  0  0  0  0  0  0  0
  -48.9552  -30.0886    1.4557 C   0  0  0  0  0  0  0  0  0  0  0  0
  -43.2515  -26.6811    0.1895 C   0  0  0  0  0  0  0  0  0  0  0  0
  -52.4372  -29.9978    5.0966 C   0  0  0  0  0  0  0  0  0  0  0  0
  -50.7437  -29.6646    6.8570 C   0  0  0  0  0  0  0  0  0  0  0  0
  -52.2051  -29.3760    6.4813 C   0  0  0  0  0  0  0  0  0  0  0  0
  -42.8403  -24.6364   -1.1953 C   0  0  0  0  0  0  0  0  0  0  0  0
  -47.0192  -29.6968    3.5361 N   0  0  0  0  0  0  0  0  0  0  0  0
  -42.5305  -27.6515    0.9149 N   0  0  0  0  0  0  0  0  0  0  0  0
  -42.3860  -25.7487   -0.3915 N   0  0  0  0  0  0  0  0  0  0  0  0
  -46.8455  -31.0446    1.6183 O   0  0  0  0  0  0  0  0  0  0  0  0
  -48.3561  -29.2322    0.8008 O   0  0  0  0  0  0  0  0  0  0  0  0
  -44.4729  -26.6334    0.0658 O   0  0  0  0  0  0  0  0  0  0  0  0
  -49.3304  -31.2819    0.9230 O   0  0  0  0  0  0  0  0  0  0  0  0
  -41.9454  -31.3551    3.5222 H   0  0  0  0  0  0  0  0  0  0  0  0
  -44.3785  -31.7748    3.6302 H   0  0  0  0  0  0  0  0  0  0  0  0
  -41.0685  -29.4257    2.2522 H   0  0  0  0  0  0  0  0  0  0  0  0
  -51.4510  -30.1960    2.4114 H   0  0  0  0  0  0  0  0  0  0  0  0
  -45.0852  -28.3070    1.1776 H   0  0  0  0  0  0  0  0  0  0  0  0
  -48.0169  -29.5200    5.9818 H   0  0  0  0  0  0  0  0  0  0  0  0
  -53.1764  -29.4310    4.5237 H   0  0  0  0  0  0  0  0  0  0  0  0
  -52.7468  -31.0446    5.1793 H   0  0  0  0  0  0  0  0  0  0  0  0
  -50.6483  -30.6316    7.3614 H   0  0  0  0  0  0  0  0  0  0  0  0
  -50.3292  -28.8707    7.4844 H   0  0  0  0  0  0  0  0  0  0  0  0
  -52.3499  -28.2885    6.4151 H   0  0  0  0  0  0  0  0  0  0  0  0
  -52.9105  -29.7487    7.2305 H   0  0  0  0  0  0  0  0  0  0  0  0
  -42.8616  -24.9103   -2.2540 H   0  0  0  0  0  0  0  0  0  0  0  0
  -43.8467  -24.3359   -0.8902 H   0  0  0  0  0  0  0  0  0  0  0  0
  -42.1720  -23.7803   -1.0675 H   0  0  0  0  0  0  0  0  0  0  0  0
  -46.4408  -29.1186    4.1543 H   0  0  0  0  0  0  0  0  0  0  0  0
  -41.5104  -27.5416    0.9148 H   0  0  0  0  0  0  0  0  0  0  0  0
  -41.3893  -25.8332   -0.2169 H   0  0  0  0  0  0  0  0  0  0  0  0
  -49.0747  -31.3784   -0.0196 H   0  0  0  0  0  0  0  0  0  0  0  0
  1  2  1  0  0  0  0
  1  3  2  0  0  0  0
  2  7  2  0  0  0  0
  3 11  1  0  0  0  0
  4  8  1  0  0  0  0
  4  9  2  0  0  0  0
  5  7  1  0  0  0  0
  5 11  2  0  0  0  0
  6 10  2  0  0  0  0
  6 12  1  0  0  0  0
  7 13  1  0  0  0  0
  8 12  2  0  0  0  0
  8 14  1  0  0  0  0
  9 10  1  0  0  0  0
  9 16  1  0  0  0  0
 10 17  1  0  0  0  0
 11 21  1  0  0  0  0
 12 20  1  0  0  0  0
 13 20  1  0  0  0  0
 13 23  2  0  0  0  0
 14 24  2  0  0  0  0
 14 26  1  0  0  0  0
 15 21  1  0  0  0  0
 15 22  1  0  0  0  0
 15 25  2  0  0  0  0
 16 18  1  0  0  0  0
 17 18  1  0  0  0  0
 19 22  1  0  0  0  0
  1 27  1  0  0  0  0
  2 28  1  0  0  0  0
  3 29  1  0  0  0  0
  4 30  1  0  0  0  0
  5 31  1  0  0  0  0
  6 32  1  0  0  0  0
 16 33  1  0  0  0  0
 16 34  1  0  0  0  0
 17 35  1  0  0  0  0
 17 36  1  0  0  0  0
 18 37  1  0  0  0  0
 18 38  1  0  0  0  0
 19 39  1  0  0  0  0
 19 40  1  0  0  0  0
 19 41  1  0  0  0  0
 20 42  1  0  0  0  0
 21 43  1  0  0  0  0
 22 44  1  0  0  0  0
 26 45  1  0  0  0  0
M  END
> <POSIT::Probability>
0.05

> <POSIT::Method>
FRED

> <ReceptorTitle>
UCSF-P4661-REFINED_LIGAND-BOUND-STATE_A__DU__LA1_A-201(A)

> <OMEGA_C>
qocqwiGC9cE+mEBAmAYwwkVg98EfWkRAWJAowlrJ7MGYpxJAoMpKwltP8MFhXktAp5YxwgvN58Fo
g9g/5gVDwv5A7cGDVqZABo4zwuSF8MG8MhpAul1FwoKv78GYyDZAZkJMwkRL78HeNpBA+WlIwuDH
7cHiNLBAxRcswvzu5cFoANE/04JBwpcr7sFM9HZAQWk5wpqF8sHuOh5ALNJDwoK18MFCVLo/iQEt
wv5y1cHEEkI+ub9Rwnb778FVF6NAjvlKwi9R7cE2bNtABNJQwgAC68HSZs9AeVwrwkMXxcH4/Zi/
oBM8wv6S7cE6T2JANh8qwjM23cHQNGo/Pospwj79zcFucci+zmE7wmtb+ME2Jc8/nmxBwoHb6cFw
A00/RuQxwisR1cEYvYY9XVJFwmlB+sGER2w/C8gnwjjX+sHHa2FAloMxwrYy/sEyVWhAHUYkwsln
68HeIxBA1c1NwmiR8cGbVBpAQlc0wsx04sHMvJY/TBFAwvIo7MGdar9AprRUwsFy68EYwpBAw/xS
wmBb+ME7vaVA6JdKwogN9cGbkOtAFlFJwh735sEBgO9AQGZRwsdO4sFWSM1AY6RTwl397cFJYOdA
O3IrwklIx8FlQRDA/GIvwgKwwsEg52O/GbAowiE+vsH0o4i/bMM5wtLy6MHS74RAsgomwkZV3MHO
MGo/sI4lwniqzsHYI16+fExEwgwH+8EwTqC8

> <OMEGA_E>
ZJfhwA==

> <OMEGA_NBR>
      1390

$$$$
CACHE3HI_1687_76
  -OEChem-03092622543D

 35 37  0     0  0  0  0  0  0999 V2000
  -44.1005  -32.5941   -0.7886 C   0  0  0  0  0  0  0  0  0  0  0  0
  -43.1158  -31.8844   -0.0933 C   0  0  0  0  0  0  0  0  0  0  0  0
  -45.7935  -28.4165    1.2139 C   0  0  0  0  0  0  0  0  0  0  0  0
  -43.9011  -27.0948    0.4999 C   0  0  0  0  0  0  0  0  0  0  0  0
  -44.9509  -29.1908    2.0115 C   0  0  0  0  0  0  0  0  0  0  0  0
  -43.0586  -27.8691    1.2976 C   0  0  0  0  0  0  0  0  0  0  0  0
  -44.0123  -32.6091    2.0507 C   0  0  0  0  0  0  0  0  0  0  0  0
  -46.1006  -34.1469    1.7189 C   0  0  0  0  0  0  0  0  0  0  0  0
  -45.0070  -33.3268    1.3658 C   0  0  0  0  0  0  0  0  0  0  0  0
  -45.0291  -33.3037   -0.0244 C   0  0  0  0  0  0  0  0  0  0  0  0
  -43.0703  -31.8904    1.3026 C   0  0  0  0  0  0  0  0  0  0  0  0
  -45.2684  -27.3683    0.4582 C   0  0  0  0  0  0  0  0  0  0  0  0
  -43.5836  -28.9173    2.0533 C   0  0  0  0  0  0  0  0  0  0  0  0
  -46.7661  -34.6096    0.6584 N   0  0  0  0  0  0  0  0  0  0  0  0
  -46.0954  -34.0836   -0.3807 N   0  0  0  0  0  0  0  0  0  0  0  0
  -47.8334  -27.1338   -0.2301 N   0  0  0  0  0  0  0  0  0  0  0  0
  -42.0501  -31.1533    1.9786 N   0  0  0  0  0  0  0  0  0  0  0  0
  -45.9697  -26.6203   -1.9347 O   0  0  0  0  0  0  0  0  0  0  0  0
  -46.3438  -25.0427   -0.0062 O   0  0  0  0  0  0  0  0  0  0  0  0
  -43.3380  -30.4692    4.1175 O   0  0  0  0  0  0  0  0  0  0  0  0
  -41.3629  -29.0900    3.4112 O   0  0  0  0  0  0  0  0  0  0  0  0
  -46.3224  -26.3980   -0.5395 S   0  0  0  0  0  0  0  0  0  0  0  0
  -42.5149  -29.9005    3.0658 S   0  0  0  0  0  0  0  0  0  0  0  0
  -44.1376  -32.5905   -1.8723 H   0  0  0  0  0  0  0  0  0  0  0  0
  -42.3780  -31.3214   -0.6607 H   0  0  0  0  0  0  0  0  0  0  0  0
  -46.8573  -28.6372    1.1892 H   0  0  0  0  0  0  0  0  0  0  0  0
  -43.4816  -26.2814   -0.0862 H   0  0  0  0  0  0  0  0  0  0  0  0
  -45.3702  -30.0049    2.5968 H   0  0  0  0  0  0  0  0  0  0  0  0
  -41.9950  -27.6475    1.3233 H   0  0  0  0  0  0  0  0  0  0  0  0
  -43.9763  -32.6144    3.1365 H   0  0  0  0  0  0  0  0  0  0  0  0
  -46.4390  -34.4255    2.7069 H   0  0  0  0  0  0  0  0  0  0  0  0
  -46.4202  -34.2958   -1.3158 H   0  0  0  0  0  0  0  0  0  0  0  0
  -48.5138  -26.6159    0.3384 H   0  0  0  0  0  0  0  0  0  0  0  0
  -48.2585  -27.6934   -0.9789 H   0  0  0  0  0  0  0  0  0  0  0  0
  -41.2004  -30.9660    1.4232 H   0  0  0  0  0  0  0  0  0  0  0  0
  1  2  2  0  0  0  0
  1 10  1  0  0  0  0
  2 11  1  0  0  0  0
  3  5  1  0  0  0  0
  3 12  2  0  0  0  0
  4  6  2  0  0  0  0
  4 12  1  0  0  0  0
  5 13  2  0  0  0  0
  6 13  1  0  0  0  0
  7  9  1  0  0  0  0
  7 11  2  0  0  0  0
  8  9  1  0  0  0  0
  8 14  2  0  0  0  0
  9 10  2  0  0  0  0
 10 15  1  0  0  0  0
 11 17  1  0  0  0  0
 12 22  1  0  0  0  0
 13 23  1  0  0  0  0
 14 15  1  0  0  0  0
 16 22  1  0  0  0  0
 17 23  1  0  0  0  0
 18 22  2  0  0  0  0
 19 22  2  0  0  0  0
 20 23  2  0  0  0  0
 21 23  2  0  0  0  0
  1 24  1  0  0  0  0
  2 25  1  0  0  0  0
  3 26  1  0  0  0  0
  4 27  1  0  0  0  0
  5 28  1  0  0  0  0
  6 29  1  0  0  0  0
  7 30  1  0  0  0  0
  8 31  1  0  0  0  0
 15 32  1  0  0  0  0
 16 33  1  0  0  0  0
 16 34  1  0  0  0  0
 17 35  1  0  0  0  0
M  END
> <POSIT::Probability>
0.23

> <POSIT::Method>
HYBRID

> <ReceptorTitle>
UCSF-P4661-REFINED_LIGAND-BOUND-STATE_A__DU__LA1_A-201(A)

> <OMEGA_C>
42Ywwl5gAsJY4Um/mHYswlkT/8EQLr+9hCw3wvBU48EQYJs/v5ovwh3C2MF0+P8+wM0zwr+G6cHK
vABA+jsswtTz3sFdFqY/jgwwwsJvAsIZPwNA92Y4wmqWCMIZBNw/Nwc0wqtOBcKj0q4/zB00wvM2
BcKgJ8i88Ucswp4f/8EAuqY/1hI1wkzy2sHUlOo+qFUuwpFW58E7aQNAcRA7wkhwCsKRiig/sWE4
wpRVCMLg68K+W1U/wv8R2cG0n2u+TTMowg06+cHKQ/0/+eA3wmH21MEwpfe/GGA5wohXyMGAfsq7
EVotwgXB88E/woNAqHMlwkC46MF/UFpAIUo5wi4v08GmGQq/Ng8qwiQ078HINURA44wwwqpcAsL1
qO+/DIMpwiiS+sFuISm/1G07wvwY5cESOJg/MO0twlBA0sFUf7C9DXs1whMK8MG0MiZA2/onwhIu
3cELYak/sOcvwi91AsL2vEhAgcE5wq6zCcJQPi1AVK45wvMuCcKZbKi/JQ5CwlLt1MGwQK0+tghB
wgCM3cGtmHq/Ns0kwly698GYLLY/

> <OMEGA_E>
dzuYwA==

> <OMEGA_NBR>
      2585

$$$$
CACHE3HI_1689_44
  -OEChem-03092622543D

 44 44  0     0  0  0  0  0  0999 V2000
  -46.3264  -32.7359    1.3781 C   0  0  0  0  0  0  0  0  0  0  0  0
  -44.6359  -33.1744   -0.2914 C   0  0  0  0  0  0  0  0  0  0  0  0
  -47.0149  -33.8823    0.9811 C   0  0  0  0  0  0  0  0  0  0  0  0
  -45.3243  -34.3207   -0.6884 C   0  0  0  0  0  0  0  0  0  0  0  0
  -45.1367  -32.3822    0.7418 C   0  0  0  0  0  0  0  0  0  0  0  0
  -46.5140  -34.6745   -0.0520 C   0  0  0  0  0  0  0  0  0  0  0  0
  -44.4024  -31.1612    1.1647 C   0  0  0  0  0  0  0  0  0  0  0  0
  -43.6301  -28.2992    0.9280 C   0  0  0  0  0  0  0  0  0  0  0  0
  -46.3600  -25.4393   -0.5735 C   0  0  0  0  0  0  0  0  0  0  0  0
  -45.4186  -26.1270    0.4033 C   0  0  0  0  0  0  0  0  0  0  0  0
  -44.1582  -25.2953    0.6446 C   0  0  0  0  0  0  0  0  0  0  0  0
  -43.2224  -25.9472    1.6544 C   0  0  0  0  0  0  0  0  0  0  0  0
  -49.4398  -34.4868   -1.2991 C   0  0  0  0  0  0  0  0  0  0  0  0
  -48.4839  -35.5417   -1.8188 C   0  0  0  0  0  0  0  0  0  0  0  0
  -43.6215  -30.5649    0.1925 N   0  0  0  0  0  0  0  0  0  0  0  0
  -42.7647  -27.2519    1.1991 N   0  0  0  0  0  0  0  0  0  0  0  0
  -42.9286  -29.4229    0.5100 N   0  0  0  0  0  0  0  0  0  0  0  0
  -44.5325  -30.7479    2.3138 O   0  0  0  0  0  0  0  0  0  0  0  0
  -44.8544  -28.2461    1.0387 O   0  0  0  0  0  0  0  0  0  0  0  0
  -46.4389  -37.0276   -1.1817 O   0  0  0  0  0  0  0  0  0  0  0  0
  -48.1808  -36.5612    0.5781 O   0  0  0  0  0  0  0  0  0  0  0  0
  -50.1913  -35.0214   -0.2175 O   0  0  0  0  0  0  0  0  0  0  0  0
  -47.3763  -36.1093   -0.5484 S   0  0  0  0  0  0  0  0  0  0  0  0
  -46.7255  -32.1262    2.1847 H   0  0  0  0  0  0  0  0  0  0  0  0
  -43.7099  -32.9073   -0.7943 H   0  0  0  0  0  0  0  0  0  0  0  0
  -47.9407  -34.1495    1.4835 H   0  0  0  0  0  0  0  0  0  0  0  0
  -44.9254  -34.9309   -1.4942 H   0  0  0  0  0  0  0  0  0  0  0  0
  -45.8554  -25.2659   -1.5279 H   0  0  0  0  0  0  0  0  0  0  0  0
  -46.6908  -24.4711   -0.1837 H   0  0  0  0  0  0  0  0  0  0  0  0
  -47.2460  -26.0535   -0.7642 H   0  0  0  0  0  0  0  0  0  0  0  0
  -45.9429  -26.2914    1.3518 H   0  0  0  0  0  0  0  0  0  0  0  0
  -45.1506  -27.1126    0.0054 H   0  0  0  0  0  0  0  0  0  0  0  0
  -43.6281  -25.1498   -0.3043 H   0  0  0  0  0  0  0  0  0  0  0  0
  -44.4421  -24.3032    1.0149 H   0  0  0  0  0  0  0  0  0  0  0  0
  -43.7147  -26.0763    2.6240 H   0  0  0  0  0  0  0  0  0  0  0  0
  -42.3385  -25.3199    1.8042 H   0  0  0  0  0  0  0  0  0  0  0  0
  -50.1322  -34.1515   -2.0773 H   0  0  0  0  0  0  0  0  0  0  0  0
  -48.8787  -33.6248   -0.9253 H   0  0  0  0  0  0  0  0  0  0  0  0
  -49.0294  -36.4221   -2.1697 H   0  0  0  0  0  0  0  0  0  0  0  0
  -47.8566  -35.1540   -2.6265 H   0  0  0  0  0  0  0  0  0  0  0  0
  -43.5615  -30.9637   -0.7383 H   0  0  0  0  0  0  0  0  0  0  0  0
  -41.7735  -27.4001    1.0757 H   0  0  0  0  0  0  0  0  0  0  0  0
  -41.9167  -29.4000    0.4401 H   0  0  0  0  0  0  0  0  0  0  0  0
  -50.7876  -34.3172    0.0839 H   0  0  0  0  0  0  0  0  0  0  0  0
  1  3  2  0  0  0  0
  1  5  1  0  0  0  0
  2  4  1  0  0  0  0
  2  5  2  0  0  0  0
  3  6  1  0  0  0  0
  4  6  2  0  0  0  0
  5  7  1  0  0  0  0
  6 23  1  0  0  0  0
  7 15  1  0  0  0  0
  7 18  2  0  0  0  0
  8 16  1  0  0  0  0
  8 17  1  0  0  0  0
  8 19  2  0  0  0  0
  9 10  1  0  0  0  0
 10 11  1  0  0  0  0
 11 12  1  0  0  0  0
 12 16  1  0  0  0  0
 13 14  1  0  0  0  0
 13 22  1  0  0  0  0
 14 23  1  0  0  0  0
 15 17  1  0  0  0  0
 20 23  2  0  0  0  0
 21 23  2  0  0  0  0
  1 24  1  0  0  0  0
  2 25  1  0  0  0  0
  3 26  1  0  0  0  0
  4 27  1  0  0  0  0
  9 28  1  0  0  0  0
  9 29  1  0  0  0  0
  9 30  1  0  0  0  0
 10 31  1  0  0  0  0
 10 32  1  0  0  0  0
 11 33  1  0  0  0  0
 11 34  1  0  0  0  0
 12 35  1  0  0  0  0
 12 36  1  0  0  0  0
 13 37  1  0  0  0  0
 13 38  1  0  0  0  0
 14 39  1  0  0  0  0
 14 40  1  0  0  0  0
 15 41  1  0  0  0  0
 16 42  1  0  0  0  0
 17 43  1  0  0  0  0
 22 44  1  0  0  0  0
M  END
> <POSIT::Probability>
0.18

> <POSIT::Method>
HYBRID

> <ReceptorTitle>
UCSF-P4661-REFINED_LIGAND-BOUND-STATE_A__DU__LA1_A-201(A)

> <OMEGA_C>
Pk45wpfxAsIAZrA/H4sywpWyBMIANZW+Ow88wneHB8IwLHs/Dkw1wmxICcLgOjC/Aow0wlOHAcKY
5D0/WQ46wrmyCsKALlW9BZwxwhhK+cHwFJU/OIUuwsxk4sFwj20/r3A5wqSDy8EQ0BK/saw1wigE
0cGAgM4+9aEwwtVcysEsAyU/t+Mswt6Tz8HswtM/XsJFwm/yCcKESqa/fO9BwrsqDsKczei/a3wu
wv+E9MEAFUU+Ag8rwvoD2sGcfZk/4rYrwiBi68EgjQI/RSEywqn79cHCFRRA9Gozwuz34cFa84Q/
a8E5wkocFMJoQpe/I7lAwrg+EsIo/BM/8cNIwvQVDMLAsF6+TIE9wuFvEMLgZQy/6OY6wjGBAMKR
0QtA5dYuwh+hA8JQWEu/UcM/wh2ZCMIU4r0/j7Mzwki5C8LMQL+/+Gs3woUgysHwkMO/X8M6wtnE
w8FADzy+7vs8wolt0MGQokO/gsU3wsxU0sFoCK0/PZo0wpPm2MEAxLE7L4Muws0yycGwx5u+ucQx
wg1twsEC6IE/5dsuwkec0MHT7ydAl1opwi2PysG07+Y/YodIwhqbCMLc8gTAyoNDwsp/BsLQ4Wy/
Hh5EwjGwEcII3ArAL20/wrqdDML4GCjA9T4uwqG198EoAj2/CBgnwlcz28Ggr4k/taonwkwz68GQ
WeE+hCZLwt1ECcIAxKs9

> <OMEGA_E>
vDPyvw==

> <OMEGA_NBR>
      3952

$$$$
CACHE3HI_1694_11
  -OEChem-03092622543D

 35 36  0     1  0  0  0  0  0999 V2000
  -45.1060  -25.5211   -0.5015 C   0  0  0  0  0  0  0  0  0  0  0  0
  -43.8395  -25.6924    0.0575 C   0  0  0  0  0  0  0  0  0  0  0  0
  -46.0702  -26.5192   -0.3618 C   0  0  0  0  0  0  0  0  0  0  0  0
  -43.5374  -26.8613    0.7562 C   0  0  0  0  0  0  0  0  0  0  0  0
  -45.7680  -27.6882    0.3370 C   0  0  0  0  0  0  0  0  0  0  0  0
  -46.2616  -33.4577    0.9803 C   0  0  0  0  0  0  0  0  0  0  0  0
  -46.1400  -34.8018   -0.8664 C   0  0  0  0  0  0  0  0  0  0  0  0
  -44.5016  -27.8595    0.8959 C   0  0  0  0  0  0  0  0  0  0  0  0
  -44.9114  -33.2014    0.8827 C   0  0  0  0  0  0  0  0  0  0  0  0
  -44.7897  -34.5453   -0.9639 C   0  0  0  0  0  0  0  0  0  0  0  0
  -44.1752  -29.1237    1.6514 C   0  0  0  0  0  0  0  0  0  0  0  0
  -43.5956  -30.2425    0.7728 C   0  0  0  0  0  0  0  0  0  0  0  0
  -42.4758  -31.1880    2.8435 C   0  0  0  0  0  0  0  0  0  0  0  0
  -43.1774  -31.5258    1.5225 C   0  0  1  0  0  0  0  0  0  0  0  0
  -46.9003  -34.2623    0.1078 N   0  0  0  0  0  0  0  0  0  0  0  0
  -44.1511  -33.7410   -0.0913 N   0  0  0  0  0  0  0  0  0  0  0  0
  -44.3363  -32.3688    1.8136 N   0  0  0  0  0  0  0  0  0  0  0  0
  -43.4440  -30.8652    3.8344 O   0  0  0  0  0  0  0  0  0  0  0  0
  -43.8193  -35.2259   -2.1966 Cl  0  0  0  0  0  0  0  0  0  0  0  0
  -45.3413  -24.6111   -1.0455 H   0  0  0  0  0  0  0  0  0  0  0  0
  -43.0888  -24.9151   -0.0509 H   0  0  0  0  0  0  0  0  0  0  0  0
  -47.0562  -26.3862   -0.7971 H   0  0  0  0  0  0  0  0  0  0  0  0
  -42.5479  -26.9858    1.1882 H   0  0  0  0  0  0  0  0  0  0  0  0
  -46.5261  -28.4598    0.4414 H   0  0  0  0  0  0  0  0  0  0  0  0
  -46.8821  -33.0294    1.7592 H   0  0  0  0  0  0  0  0  0  0  0  0
  -46.6625  -35.4471   -1.5628 H   0  0  0  0  0  0  0  0  0  0  0  0
  -43.4429  -28.8721    2.4313 H   0  0  0  0  0  0  0  0  0  0  0  0
  -45.0584  -29.4816    2.1935 H   0  0  0  0  0  0  0  0  0  0  0  0
  -44.3284  -30.4995   -0.0017 H   0  0  0  0  0  0  0  0  0  0  0  0
  -42.7240  -29.8373    0.2404 H   0  0  0  0  0  0  0  0  0  0  0  0
  -41.8759  -32.0314    3.2039 H   0  0  0  0  0  0  0  0  0  0  0  0
  -41.8192  -30.3189    2.7256 H   0  0  0  0  0  0  0  0  0  0  0  0
  -42.4741  -32.0873    0.8968 H   0  0  0  0  0  0  0  0  0  0  0  0
  -44.7151  -32.3234    2.7438 H   0  0  0  0  0  0  0  0  0  0  0  0
  -42.9540  -30.6603    4.6465 H   0  0  0  0  0  0  0  0  0  0  0  0
  1  2  1  0  0  0  0
  1  3  2  0  0  0  0
  2  4  2  0  0  0  0
  3  5  1  0  0  0  0
  4  8  1  0  0  0  0
  5  8  2  0  0  0  0
  6  9  1  0  0  0  0
  6 15  2  0  0  0  0
  7 10  2  0  0  0  0
  7 15  1  0  0  0  0
  8 11  1  0  0  0  0
  9 16  2  0  0  0  0
  9 17  1  0  0  0  0
 10 16  1  0  0  0  0
 10 19  1  0  0  0  0
 11 12  1  0  0  0  0
 12 14  1  0  0  0  0
 13 14  1  0  0  0  0
 13 18  1  0  0  0  0
 14 17  1  0  0  0  0
  1 20  1  0  0  0  0
  2 21  1  0  0  0  0
  3 22  1  0  0  0  0
  4 23  1  0  0  0  0
  5 24  1  0  0  0  0
  6 25  1  0  0  0  0
  7 26  1  0  0  0  0
 11 27  1  0  0  0  0
 11 28  1  0  0  0  0
 12 29  1  0  0  0  0
 12 30  1  0  0  0  0
 13 31  1  0  0  0  0
 13 32  1  0  0  0  0
 14 33  1  0  0  0  0
 17 34  1  0  0  0  0
 18 35  1  0  0  0  0
M  END
> <POSIT::Probability>
0.23

> <POSIT::Method>
HYBRID

> <ReceptorTitle>
UCSF-P4661-REFINED_LIGAND-BOUND-STATE_A__DU__LA1_A-201(A)

> <OMEGA_C>
imw0wjUrzMEyYwC/slsvwgCKzcEwcWs92Uc4wmon1MEfPrm+RCYuwv7j1sG4mEE/axI3wmmB3cFI
haw+6ws5wrLUBcKH8no/Z484wgQ1C8LsyV2/oQEywkHg3sFcXGU/UaUzwjrOBMJW92E/rigzwlcu
CsLUv3a/bLMwwmH96MFQYdM/3mEuwrHw8cEU00U/POcpwh6B+cHg+zVAp7Uswsw0/MEy4cI/6Zk7
wo0MCcIYtNw9xJowwsP2BsJgFLu9X1gxwp15AcJkJeg/scYtwvXr9sFMZ3VA/0Yvwl/nDMLllQzA
fV01wo/jxMFy1IW/8VoswhVSx8EAa1C9jTk8wuQW08FuEEy/AjEqwgPj18H0Fpg/xRo6wrGt48GM
/eE+O4c7whMeBMIuLuE/XKY6wt3JDcJMC8i/j8UtwiH65sE/mhtA1Ts0wlba68GpYQxAUVAxwuj+
88EAwuC6XeUqwtKy7sF0OHY+4IAnwiAgAMJgDU1A0kYnwiuN8sEKcS5Ab+UpwnJZAMJblmU/Sdwy
wiJLAcJOmi9A3NArwlVI9cFcsJRA

> <OMEGA_E>
mwCRwA==

> <OMEGA_NBR>
      5147

$$$$
CACHE3HI_1694_44
  -OEChem-03092622543D

 35 36  0     1  0  0  0  0  0999 V2000
  -46.9521  -34.5860   -0.1417 C   0  0  0  0  0  0  0  0  0  0  0  0
  -45.8073  -34.8999   -0.8742 C   0  0  0  0  0  0  0  0  0  0  0  0
  -46.9243  -33.5400    0.7805 C   0  0  0  0  0  0  0  0  0  0  0  0
  -44.6350  -34.1679   -0.6847 C   0  0  0  0  0  0  0  0  0  0  0  0
  -45.7520  -32.8080    0.9701 C   0  0  0  0  0  0  0  0  0  0  0  0
  -43.8747  -26.8811    0.1323 C   0  0  0  0  0  0  0  0  0  0  0  0
  -46.1592  -26.9907    0.1503 C   0  0  0  0  0  0  0  0  0  0  0  0
  -44.6072  -33.1219    0.2376 C   0  0  0  0  0  0  0  0  0  0  0  0
  -43.8113  -28.0956    0.7797 C   0  0  0  0  0  0  0  0  0  0  0  0
  -46.0956  -28.2054    0.7977 C   0  0  0  0  0  0  0  0  0  0  0  0
  -43.3397  -32.3301    0.4429 C   0  0  0  0  0  0  0  0  0  0  0  0
  -43.5774  -30.8703    0.8581 C   0  0  0  0  0  0  0  0  0  0  0  0
  -41.7520  -30.3661    2.5470 C   0  0  0  0  0  0  0  0  0  0  0  0
  -42.3039  -30.0484    1.1521 C   0  0  2  0  0  0  0  0  0  0  0  0
  -45.0494  -26.3067   -0.1941 N   0  0  0  0  0  0  0  0  0  0  0  0
  -44.9210  -28.7795    1.1243 N   0  0  0  0  0  0  0  0  0  0  0  0
  -42.5723  -28.6128    1.0768 N   0  0  0  0  0  0  0  0  0  0  0  0
  -42.8253  -30.4984    3.4712 O   0  0  0  0  0  0  0  0  0  0  0  0
  -47.4988  -29.0784    1.2376 Cl  0  0  0  0  0  0  0  0  0  0  0  0
  -47.8648  -35.1558   -0.2892 H   0  0  0  0  0  0  0  0  0  0  0  0
  -45.8289  -35.7140   -1.5927 H   0  0  0  0  0  0  0  0  0  0  0  0
  -47.8155  -33.2956    1.3511 H   0  0  0  0  0  0  0  0  0  0  0  0
  -43.7479  -34.4199   -1.2599 H   0  0  0  0  0  0  0  0  0  0  0  0
  -45.7404  -31.9941    1.6902 H   0  0  0  0  0  0  0  0  0  0  0  0
  -42.9890  -26.3229   -0.1491 H   0  0  0  0  0  0  0  0  0  0  0  0
  -47.0987  -26.5209   -0.1163 H   0  0  0  0  0  0  0  0  0  0  0  0
  -42.7526  -32.8289    1.2267 H   0  0  0  0  0  0  0  0  0  0  0  0
  -42.7133  -32.3752   -0.4557 H   0  0  0  0  0  0  0  0  0  0  0  0
  -44.1572  -30.3695    0.0733 H   0  0  0  0  0  0  0  0  0  0  0  0
  -44.2176  -30.8726    1.7510 H   0  0  0  0  0  0  0  0  0  0  0  0
  -41.1761  -31.2985    2.5457 H   0  0  0  0  0  0  0  0  0  0  0  0
  -41.1045  -29.5576    2.9040 H   0  0  0  0  0  0  0  0  0  0  0  0
  -41.5368  -30.3089    0.4138 H   0  0  0  0  0  0  0  0  0  0  0  0
  -41.8020  -27.9917    1.2543 H   0  0  0  0  0  0  0  0  0  0  0  0
  -42.4275  -30.6979    4.3335 H   0  0  0  0  0  0  0  0  0  0  0  0
  1  2  1  0  0  0  0
  1  3  2  0  0  0  0
  2  4  2  0  0  0  0
  3  5  1  0  0  0  0
  4  8  1  0  0  0  0
  5  8  2  0  0  0  0
  6  9  1  0  0  0  0
  6 15  2  0  0  0  0
  7 10  2  0  0  0  0
  7 15  1  0  0  0  0
  8 11  1  0  0  0  0
  9 16  2  0  0  0  0
  9 17  1  0  0  0  0
 10 16  1  0  0  0  0
 10 19  1  0  0  0  0
 11 12  1  0  0  0  0
 12 14  1  0  0  0  0
 13 14  1  0  0  0  0
 13 18  1  0  0  0  0
 14 17  1  0  0  0  0
  1 20  1  0  0  0  0
  2 21  1  0  0  0  0
  3 22  1  0  0  0  0
  4 23  1  0  0  0  0
  5 24  1  0  0  0  0
  6 25  1  0  0  0  0
  7 26  1  0  0  0  0
 11 27  1  0  0  0  0
 11 28  1  0  0  0  0
 12 29  1  0  0  0  0
 12 30  1  0  0  0  0
 13 31  1  0  0  0  0
 13 32  1  0  0  0  0
 14 33  1  0  0  0  0
 17 34  1  0  0  0  0
 18 35  1  0  0  0  0
M  END
> <POSIT::Probability>
0.23

> <POSIT::Method>
HYBRID

> <ReceptorTitle>
UCSF-P4661-REFINED_LIGAND-BOUND-STATE_A__DU__LA1_A-201(A)

> <OMEGA_C>
+c47wgtYCsJAJhG+pjo3wneZC8IAzF+/fbI7wvgoBsJg0Uc/OooywuarCMIgSC+/EAI3wmY7A8JA
VXg/r38vwnYM18GAeAc+BaM4wvLs18FA7Bk+wm0ywsp8BMLAVnM+uT4vws7D4MEQnEc/4GE4wp2k
4cFgOEw/31stwghSAcLgxeI+Nk8uwnT29sEwqls/CwInwsHt8sHsASNANzcpwg1j8MG0d5M/njI0
wjh00sEAy0a+Fq8zwnI85sFw6I8/Dkoqwhbn5MGU1Yk/IE0rwq7888GQJ15A0f49wo+g6MGgaJ4/
iHU/wpKfDMLAEpS+zFA3wi7bDsLg3Mu/EkM/wqwuBcIQ8Kw/5P0uwvKtCcKIRKG/J/Y2wgT0/8FA
WNg/vfQrwleV0sEAsxi+FGU8wroq1MEAKu69qwIrwspQA8KkA50/dtoqwj6AAcKgVum+9KAwwqz0
8sEAKZY9zt4wwgv79sE4IOA/W7QkwmRj+sEi7CJA+2okwvN17MHE2zlAqiUmwpx48sFA2NM+PTUn
wvbu38E4jqA/yrUpwkGV9cEIrIpA

> <OMEGA_E>
WAzLwA==

> <OMEGA_NBR>
      6341

$$$$
CACHE3HI_1694_78
  -OEChem-03092622543D

 37 39  0     0  0  0  0  0  0999 V2000
  -49.0854  -28.7767    5.7984 C   0  0  0  0  0  0  0  0  0  0  0  0
  -49.0197  -29.1635    4.4679 C   0  0  0  0  0  0  0  0  0  0  0  0
  -43.5781  -27.1964    1.1829 C   0  0  0  0  0  0  0  0  0  0  0  0
  -42.9002  -28.2055    1.8670 C   0  0  0  0  0  0  0  0  0  0  0  0
  -47.9324  -28.7998    6.5796 C   0  0  0  0  0  0  0  0  0  0  0  0
  -47.7992  -29.5709    3.9314 C   0  0  0  0  0  0  0  0  0  0  0  0
  -44.9521  -29.4697    2.0378 C   0  0  0  0  0  0  0  0  0  0  0  0
  -44.4538  -29.6186    6.2672 C   0  0  0  0  0  0  0  0  0  0  0  0
  -44.9431  -27.3242    0.9262 C   0  0  0  0  0  0  0  0  0  0  0  0
  -43.5871  -29.3419    2.2945 C   0  0  0  0  0  0  0  0  0  0  0  0
  -45.6300  -28.4607    1.3537 C   0  0  0  0  0  0  0  0  0  0  0  0
  -46.7083  -29.2048    6.0529 C   0  0  0  0  0  0  0  0  0  0  0  0
  -46.6404  -29.5975    4.7035 C   0  0  0  0  0  0  0  0  0  0  0  0
  -44.3868  -30.0013    4.9536 C   0  0  0  0  0  0  0  0  0  0  0  0
  -45.6269  -26.2560    0.2098 C   0  0  0  0  0  0  0  0  0  0  0  0
  -47.0920  -28.6224    1.0917 C   0  0  0  0  0  0  0  0  0  0  0  0
  -42.8557  -30.4276    3.0306 C   0  0  0  0  0  0  0  0  0  0  0  0
  -45.6092  -29.2188    6.8269 N   0  0  0  0  0  0  0  0  0  0  0  0
  -45.4753  -29.9938    4.1623 N   0  0  0  0  0  0  0  0  0  0  0  0
  -43.1408  -30.4099    4.4311 N   0  0  0  0  0  0  0  0  0  0  0  0
  -46.5736  -25.5954    0.6467 O   0  0  0  0  0  0  0  0  0  0  0  0
  -45.1061  -26.0466   -1.0292 O   0  0  0  0  0  0  0  0  0  0  0  0
  -50.0295  -28.4583    6.2298 H   0  0  0  0  0  0  0  0  0  0  0  0
  -49.9115  -29.1506    3.8489 H   0  0  0  0  0  0  0  0  0  0  0  0
  -43.0313  -26.3161    0.8549 H   0  0  0  0  0  0  0  0  0  0  0  0
  -41.8365  -28.0971    2.0622 H   0  0  0  0  0  0  0  0  0  0  0  0
  -47.9991  -28.4933    7.6217 H   0  0  0  0  0  0  0  0  0  0  0  0
  -47.7614  -29.8729    2.8866 H   0  0  0  0  0  0  0  0  0  0  0  0
  -45.4868  -30.3563    2.3705 H   0  0  0  0  0  0  0  0  0  0  0  0
  -43.5910  -29.6170    6.9229 H   0  0  0  0  0  0  0  0  0  0  0  0
  -47.6901  -28.2042    1.9106 H   0  0  0  0  0  0  0  0  0  0  0  0
  -47.3637  -29.6818    1.0055 H   0  0  0  0  0  0  0  0  0  0  0  0
  -47.3690  -28.1135    0.1613 H   0  0  0  0  0  0  0  0  0  0  0  0
  -43.1344  -31.4127    2.6418 H   0  0  0  0  0  0  0  0  0  0  0  0
  -41.7725  -30.3241    2.9082 H   0  0  0  0  0  0  0  0  0  0  0  0
  -42.4445  -30.6951    5.0925 H   0  0  0  0  0  0  0  0  0  0  0  0
  -45.5596  -25.3282   -1.5204 H   0  0  0  0  0  0  0  0  0  0  0  0
  1  2  1  0  0  0  0
  1  5  2  0  0  0  0
  2  6  2  0  0  0  0
  3  4  2  0  0  0  0
  3  9  1  0  0  0  0
  4 10  1  0  0  0  0
  5 12  1  0  0  0  0
  6 13  1  0  0  0  0
  7 10  2  0  0  0  0
  7 11  1  0  0  0  0
  8 14  1  0  0  0  0
  8 18  2  0  0  0  0
  9 11  2  0  0  0  0
  9 15  1  0  0  0  0
 10 17  1  0  0  0  0
 11 16  1  0  0  0  0
 12 13  2  0  0  0  0
 12 18  1  0  0  0  0
 13 19  1  0  0  0  0
 14 19  2  0  0  0  0
 14 20  1  0  0  0  0
 15 21  2  0  0  0  0
 15 22  1  0  0  0  0
 17 20  1  0  0  0  0
  1 23  1  0  0  0  0
  2 24  1  0  0  0  0
  3 25  1  0  0  0  0
  4 26  1  0  0  0  0
  5 27  1  0  0  0  0
  6 28  1  0  0  0  0
  7 29  1  0  0  0  0
  8 30  1  0  0  0  0
 16 31  1  0  0  0  0
 16 32  1  0  0  0  0
 16 33  1  0  0  0  0
 17 34  1  0  0  0  0
 17 35  1  0  0  0  0
 20 36  1  0  0  0  0
 22 37  1  0  0  0  0
M  END
> <POSIT::Probability>
0.05

> <POSIT::Method>
FRED

> <ReceptorTitle>
UCSF-P4661-REFINED_LIGAND-BOUND-STATE_A__DU__LA1_A-201(A)

> <OMEGA_C>
bFdEwqs25sGtjLlAKhREwsNO6cEY+Y5ABVAuwkKS2cHaapc/1pkrwsqk4cGM+u4/xbo/wvFl5sH3
i9JAbjI/wh2R7MEHnHtA/M4zwunB68HhagJAvNAxwtXy7MHNjMhAxcUzwgOY2sH8HG0/LlkuwjK8
6sFw2RJAHoU2wmqv48HORq0/QNU6wmmj6cH7sMFA0o86wqHH7MFxg5ZAGowxwqUC8MEFhJ5A+IE2
wkYM0sEg01Y+O148wpP65MEmvIs/SGwrwrtr88Ej9UFAyW82wgTA6cExdtpAruY1wjfz78HaMYVA
KZAswnRH88FYy41AZ0s6wlnDzMHYjCU/mmw0wm5f0MF4u4O/Mx5Iwomq48GTWsdAW6VHwnI06cHB
U3ZAFiAswkyH0sGI21o/iFgnwu/G4MF5+gNAFv8/wmDy48Gi5PNAuQs/wrf77sHgvThAc/I1wrLZ
8sHtthdAN10uwpTv7MGgiN1AncI+wh2i4cEIkPQ/bnQ9wkR07cFYtYA/6Hk9wnzo4MGAIiU+noks
wh9N+8EhEylAFBcnwtOX8sFbIDpANMcpwqqP9cEY9qJACT02wjOgysHEnMK/

> <OMEGA_E>
/DURwQ==

> <OMEGA_NBR>
      7570

$$$$
CACHE3HI_1695_52
  -OEChem-03092622543D

 39 41  0     0  0  0  0  0  0999 V2000
  -45.7844  -28.6134    0.4470 C   0  0  0  0  0  0  0  0  0  0  0  0
  -44.8503  -27.9347    0.7769 C   0  0  0  0  0  0  0  0  0  0  0  0
  -51.5295  -28.6178    3.9671 C   0  0  0  0  0  0  0  0  0  0  0  0
  -44.6799  -32.0730    0.9017 C   0  0  0  0  0  0  0  0  0  0  0  0
  -51.7545  -28.4828    5.3506 C   0  0  0  0  0  0  0  0  0  0  0  0
  -46.0079  -31.7968    1.2273 C   0  0  0  0  0  0  0  0  0  0  0  0
  -50.2804  -29.0173    3.3954 C   0  0  0  0  0  0  0  0  0  0  0  0
  -43.6604  -31.2462    1.3734 C   0  0  0  0  0  0  0  0  0  0  0  0
  -45.2966  -29.8676    2.4962 C   0  0  0  0  0  0  0  0  0  0  0  0
  -50.4908  -28.7564    7.4323 C   0  0  0  0  0  0  0  0  0  0  0  0
  -50.6082  -28.7885    6.0723 C   0  0  0  0  0  0  0  0  0  0  0  0
  -46.3162  -30.6944    2.0246 C   0  0  0  0  0  0  0  0  0  0  0  0
  -49.3271  -29.1952    5.5463 C   0  0  0  0  0  0  0  0  0  0  0  0
  -49.1306  -29.3213    4.1587 C   0  0  0  0  0  0  0  0  0  0  0  0
  -43.9687  -30.1438    2.1706 C   0  0  0  0  0  0  0  0  0  0  0  0
  -47.7318  -30.4009    2.3709 C   0  0  0  0  0  0  0  0  0  0  0  0
  -43.7139  -27.1025    1.1784 C   0  0  0  0  0  0  0  0  0  0  0  0
  -48.4765  -29.3976    6.5686 N   0  0  0  0  0  0  0  0  0  0  0  0
  -49.2000  -29.1284    7.6730 N   0  0  0  0  0  0  0  0  0  0  0  0
  -47.9293  -29.7067    3.5760 N   0  0  0  0  0  0  0  0  0  0  0  0
  -42.5581  -27.9432    1.5208 N   0  0  0  0  0  0  0  0  0  0  0  0
  -48.6022  -30.7982    1.6037 O   0  0  0  0  0  0  0  0  0  0  0  0
  -41.4539  -29.8784    2.8142 O   0  0  0  0  0  0  0  0  0  0  0  0
  -43.1735  -28.4531    3.9683 O   0  0  0  0  0  0  0  0  0  0  0  0
  -42.6914  -29.1106    2.7615 S   0  0  0  0  0  0  0  0  0  0  0  0
  -46.6133  -29.2156    0.1542 H   0  0  0  0  0  0  0  0  0  0  0  0
  -52.3549  -28.4056    3.2876 H   0  0  0  0  0  0  0  0  0  0  0  0
  -44.4400  -32.9315    0.2813 H   0  0  0  0  0  0  0  0  0  0  0  0
  -52.7044  -28.1796    5.7685 H   0  0  0  0  0  0  0  0  0  0  0  0
  -46.7943  -32.4478    0.8543 H   0  0  0  0  0  0  0  0  0  0  0  0
  -50.2237  -29.0865    2.3088 H   0  0  0  0  0  0  0  0  0  0  0  0
  -42.6287  -31.4703    1.1143 H   0  0  0  0  0  0  0  0  0  0  0  0
  -45.5368  -29.0080    3.1177 H   0  0  0  0  0  0  0  0  0  0  0  0
  -51.1735  -28.5137    8.2347 H   0  0  0  0  0  0  0  0  0  0  0  0
  -43.4360  -26.4219    0.3669 H   0  0  0  0  0  0  0  0  0  0  0  0
  -43.9813  -26.4878    2.0440 H   0  0  0  0  0  0  0  0  0  0  0  0
  -48.7436  -29.2202    8.5717 H   0  0  0  0  0  0  0  0  0  0  0  0
  -47.0768  -29.4513    4.0925 H   0  0  0  0  0  0  0  0  0  0  0  0
  -41.6338  -27.5467    1.3113 H   0  0  0  0  0  0  0  0  0  0  0  0
  1  2  3  0  0  0  0
  2 17  1  0  0  0  0
  3  5  2  0  0  0  0
  3  7  1  0  0  0  0
  4  6  1  0  0  0  0
  4  8  2  0  0  0  0
  5 11  1  0  0  0  0
  6 12  2  0  0  0  0
  7 14  2  0  0  0  0
  8 15  1  0  0  0  0
  9 12  1  0  0  0  0
  9 15  2  0  0  0  0
 10 11  2  0  0  0  0
 10 19  1  0  0  0  0
 11 13  1  0  0  0  0
 12 16  1  0  0  0  0
 13 14  1  0  0  0  0
 13 18  2  0  0  0  0
 14 20  1  0  0  0  0
 15 25  1  0  0  0  0
 16 20  1  0  0  0  0
 16 22  2  0  0  0  0
 17 21  1  0  0  0  0
 18 19  1  0  0  0  0
 21 25  1  0  0  0  0
 23 25  2  0  0  0  0
 24 25  2  0  0  0  0
  1 26  1  0  0  0  0
  3 27  1  0  0  0  0
  4 28  1  0  0  0  0
  5 29  1  0  0  0  0
  6 30  1  0  0  0  0
  7 31  1  0  0  0  0
  8 32  1  0  0  0  0
  9 33  1  0  0  0  0
 10 34  1  0  0  0  0
 17 35  1  0  0  0  0
 17 36  1  0  0  0  0
 19 37  1  0  0  0  0
 20 38  1  0  0  0  0
 21 39  1  0  0  0  0
M  END
> <POSIT::Probability>
0.05

> <POSIT::Method>
FRED

> <ReceptorTitle>
UCSF-P4661-REFINED_LIGAND-BOUND-STATE_A__DU__LA1_A-201(A)

> <OMEGA_C>
LSM3wkXo5MEA3+Q+wGYzwi5638Hs40Y/Lh5Owj7x5MGy5H1AOrgywrxKAML01mY/pARPwr7c48Hg
N6tACgg4wt9f/sGaGJ0/IR9Jwl4j6MHXTllANqQuwk34+cG9yq8/uC81wuvw7sEVwh9AjfZJwgQN
5sGR1e1A0W5KwttO5sErUMJAy0M5wiCO9cFdkgFA8E5Fwr2P6cGMe7FAv4VEwhSS6sHHE4VA998v
wo4m8cFt6wpAW+0+wh0188FEvRdADdsuwvXR2MHu1ZY/5OdBwkcu68GRMdJAxcxEwvwG6cF2ifVA
l7c/wlun7cGS3GRAdTsqwsGL38HnqcI/rWhCwrNi9sG0RM0/zdAlwvMG78EnHDRAr7Eswt+f48Gl
+H1A+8Mqwovi6MFYvDBAAXQ6wqC56cGQ4R0+aGtRwpU+48ElaFJAlMIxwuC5A8KAC5A+V9FSwuhv
4cHgl7hAXi07wpDKAcJos1o/FeVIwimx6MHKwhNA1YMqwiPD+8GBoY4/qCU2wmYQ6MFRiEdApLFM
wvcb5MFWwQNBbr4twhNg08Eo3Ls+3ewvwgjn08H30AJAaflCwvLC6cGSJQlBr048wjac68F09YJA
DYkmwqZf3MFD16c/

> <OMEGA_E>
34YJwQ==

> <OMEGA_NBR>
      8841

$$$$
CACHE3HI_1695_75
  -OEChem-03092622543D

 43 44  0     1  0  0  0  0  0999 V2000
  -44.0973  -35.3708   -3.2909 C   0  0  0  0  0  0  0  0  0  0  0  0
  -43.9828  -27.3059    0.3574 C   0  0  0  0  0  0  0  0  0  0  0  0
  -45.3545  -27.3237    0.1048 C   0  0  0  0  0  0  0  0  0  0  0  0
  -43.4513  -28.0979    1.3750 C   0  0  0  0  0  0  0  0  0  0  0  0
  -46.1945  -28.1334    0.8694 C   0  0  0  0  0  0  0  0  0  0  0  0
  -44.2913  -28.9077    2.1397 C   0  0  0  0  0  0  0  0  0  0  0  0
  -45.6630  -28.9255    1.8872 C   0  0  0  0  0  0  0  0  0  0  0  0
  -46.0318  -35.6968   -1.9145 C   0  0  0  0  0  0  0  0  0  0  0  0
  -44.8995  -35.0345   -2.1656 C   0  0  0  0  0  0  0  0  0  0  0  0
  -44.4874  -33.9375   -1.2504 C   0  0  0  0  0  0  0  0  0  0  0  0
  -46.5619  -34.4094    0.0815 C   0  0  0  0  0  0  0  0  0  0  0  0
  -49.2875  -35.4079   -1.0872 C   0  0  0  0  0  0  0  0  0  0  0  0
  -43.6799  -29.7444    3.2244 C   0  0  0  0  0  0  0  0  0  0  0  0
  -48.0682  -36.2111   -0.6682 C   0  0  0  0  0  0  0  0  0  0  0  0
  -45.0210  -32.6357    0.7626 C   0  0  0  0  0  0  0  0  0  0  0  0
  -43.0570  -31.6418    1.9850 C   0  0  0  0  0  0  0  0  0  0  0  0
  -43.6604  -32.9136    1.3991 C   0  0  1  0  0  0  0  0  0  0  0  0
  -43.4422  -35.6454   -4.2079 N   0  0  0  0  0  0  0  0  0  0  0  0
  -46.8524  -35.4217   -0.8450 N   0  0  0  0  0  0  0  0  0  0  0  0
  -45.3602  -33.6986   -0.1779 N   0  0  0  0  0  0  0  0  0  0  0  0
  -43.4461  -33.3187   -1.4674 O   0  0  0  0  0  0  0  0  0  0  0  0
  -47.2876  -34.1521    1.0470 O   0  0  0  0  0  0  0  0  0  0  0  0
  -43.8267  -33.8480    2.4670 O   0  0  0  0  0  0  0  0  0  0  0  0
  -43.9495  -31.1133    2.9614 O   0  0  0  0  0  0  0  0  0  0  0  0
  -46.7329  -29.9144    2.8125 Cl  0  0  0  0  0  0  0  0  0  0  0  0
  -43.3290  -26.6754   -0.2381 H   0  0  0  0  0  0  0  0  0  0  0  0
  -45.7685  -26.7069   -0.6876 H   0  0  0  0  0  0  0  0  0  0  0  0
  -42.3811  -28.0767    1.5638 H   0  0  0  0  0  0  0  0  0  0  0  0
  -47.2611  -28.1355    0.6594 H   0  0  0  0  0  0  0  0  0  0  0  0
  -46.3639  -36.5041   -2.5616 H   0  0  0  0  0  0  0  0  0  0  0  0
  -49.2016  -35.1131   -2.1378 H   0  0  0  0  0  0  0  0  0  0  0  0
  -49.3878  -34.4961   -0.4887 H   0  0  0  0  0  0  0  0  0  0  0  0
  -50.2057  -35.9944   -0.9750 H   0  0  0  0  0  0  0  0  0  0  0  0
  -42.5959  -29.5946    3.2679 H   0  0  0  0  0  0  0  0  0  0  0  0
  -44.0957  -29.4786    4.2028 H   0  0  0  0  0  0  0  0  0  0  0  0
  -48.1614  -36.5021    0.3831 H   0  0  0  0  0  0  0  0  0  0  0  0
  -48.0029  -37.1266   -1.2651 H   0  0  0  0  0  0  0  0  0  0  0  0
  -45.8013  -32.5859    1.5292 H   0  0  0  0  0  0  0  0  0  0  0  0
  -45.0088  -31.6843    0.2205 H   0  0  0  0  0  0  0  0  0  0  0  0
  -42.9134  -30.8783    1.2130 H   0  0  0  0  0  0  0  0  0  0  0  0
  -42.1011  -31.8486    2.4772 H   0  0  0  0  0  0  0  0  0  0  0  0
  -42.9647  -33.3615    0.6803 H   0  0  0  0  0  0  0  0  0  0  0  0
  -44.4314  -33.4336    3.1001 H   0  0  0  0  0  0  0  0  0  0  0  0
  1  9  1  0  0  0  0
  1 18  3  0  0  0  0
  2  3  1  0  0  0  0
  2  4  2  0  0  0  0
  3  5  2  0  0  0  0
  4  6  1  0  0  0  0
  5  7  1  0  0  0  0
  6  7  2  0  0  0  0
  6 13  1  0  0  0  0
  7 25  1  0  0  0  0
  8  9  2  0  0  0  0
  8 19  1  0  0  0  0
  9 10  1  0  0  0  0
 10 20  1  0  0  0  0
 10 21  2  0  0  0  0
 11 19  1  0  0  0  0
 11 20  1  0  0  0  0
 11 22  2  0  0  0  0
 12 14  1  0  0  0  0
 13 24  1  0  0  0  0
 14 19  1  0  0  0  0
 15 17  1  0  0  0  0
 15 20  1  0  0  0  0
 16 17  1  0  0  0  0
 16 24  1  0  0  0  0
 17 23  1  0  0  0  0
  2 26  1  0  0  0  0
  3 27  1  0  0  0  0
  4 28  1  0  0  0  0
  5 29  1  0  0  0  0
  8 30  1  0  0  0  0
 12 31  1  0  0  0  0
 12 32  1  0  0  0  0
 12 33  1  0  0  0  0
 13 34  1  0  0  0  0
 13 35  1  0  0  0  0
 14 36  1  0  0  0  0
 14 37  1  0  0  0  0
 15 38  1  0  0  0  0
 15 39  1  0  0  0  0
 16 40  1  0  0  0  0
 16 41  1  0  0  0  0
 17 42  1  0  0  0  0
 23 43  1  0  0  0  0
M  END
> <POSIT::Probability>
0.23

> <POSIT::Method>
HYBRID

> <ReceptorTitle>
UCSF-P4661-REFINED_LIGAND-BOUND-STATE_A__DU__LA1_A-201(A)

> <OMEGA_C>
rmMwwrJ7DcLUnVLAXO4vwnpy2sHg+bY+/mo1wt6W2sGAotY9H84two/I4MF4AbA/K8c4wj0R4cEg
lF4/Syoxwu5C58Gw8AhA4qY2wl1n58E4jvE/jCA4wpLJDsKQDfW/GJkzwkgjDMKAmQrAIvMxwvy/
B8IQDaC/XD86wkajCcKA36Y9XyZFwqWhDcLYKIu/Orguwnz07cHsXE5AzkVAwifYEMLQDiu/dxU0
wvyKAsIQO0M/XDoswmUi/cGIE/4/QqQuwoenA8LwFrM/2cQtwtuUDsIep4bA2Gg7wtqvDcJQUFi/
03A1wmTLBsJAMja+z8gtwmBGBcLg07u/giY9wrSbCMJgA4Y/hE4vwmZkB8KM4x1AQswvwhfo+MGo
hz1Ade46wqZQ78FA/zNA6VAtwkln1cFA23O+6hI3wrun1cFgBDC/SIYpwiyd4MFQKsg/YQs9wpoV
4cFw0Sg/nHQ5wi4EEsII8iPAac5Ews9zDMKg0QjAJI1Fwg78CcJgMPq+rNJIwkH6D8IwnHm/O2Iq
wrDB7MFoJVFADGIwwkHU68GEfYZAQ6VAwiECEsKAKcQ+7gJAwquBFMJY76G/hzQ3wgNYAsKIu8M/
Cgk0wnB5/cGA0mE+VqcrwsEG98FYRJs/gmcowtrJ/sEMix5A09srwjZyBcIAJS4/wbkxwvu7BcLo
Z0ZA

> <OMEGA_E>
PEiFwA==

> <OMEGA_NBR>
     10196

$$$$
CACHE3HI_1695_83
  -OEChem-03092622543D

 40 42  0     0  0  0  0  0  0999 V2000
  -47.9578  -31.3787    1.7886 C   0  0  0  0  0  0  0  0  0  0  0  0
  -46.6261  -31.3247    1.3774 C   0  0  0  0  0  0  0  0  0  0  0  0
  -46.1345  -29.7959    3.1813 C   0  0  0  0  0  0  0  0  0  0  0  0
  -45.4764  -33.8492    1.1108 C   0  0  0  0  0  0  0  0  0  0  0  0
  -44.4174  -33.1211   -0.7384 C   0  0  0  0  0  0  0  0  0  0  0  0
  -48.3793  -30.6555    2.9112 C   0  0  0  0  0  0  0  0  0  0  0  0
  -45.7147  -30.5363    2.0761 C   0  0  0  0  0  0  0  0  0  0  0  0
  -47.4672  -29.8531    3.6067 C   0  0  0  0  0  0  0  0  0  0  0  0
  -44.4593  -32.9867    0.6321 C   0  0  0  0  0  0  0  0  0  0  0  0
  -46.0253  -34.4839    0.0185 C   0  0  0  0  0  0  0  0  0  0  0  0
  -50.2981  -30.2274    4.4271 C   0  0  0  0  0  0  0  0  0  0  0  0
  -47.0848  -35.4457    0.0099 C   0  0  0  0  0  0  0  0  0  0  0  0
  -49.3583  -29.8373    5.5382 C   0  0  0  0  0  0  0  0  0  0  0  0
  -44.5535  -34.0017   -3.4214 C   0  0  0  0  0  0  0  0  0  0  0  0
  -45.6416  -34.4473   -2.4598 C   0  0  0  0  0  0  0  0  0  0  0  0
  -45.3739  -34.0338   -1.0999 N   0  0  0  0  0  0  0  0  0  0  0  0
  -49.7404  -30.7238    3.2684 N   0  0  0  0  0  0  0  0  0  0  0  0
  -44.3527  -30.4755    1.6519 N   0  0  0  0  0  0  0  0  0  0  0  0
  -51.5196  -30.2071    4.6060 O   0  0  0  0  0  0  0  0  0  0  0  0
  -47.5654  -36.0078   -0.9971 O   0  0  0  0  0  0  0  0  0  0  0  0
  -42.2171  -31.7003    0.8495 O   0  0  0  0  0  0  0  0  0  0  0  0
  -43.3482  -32.5025    2.9421 O   0  0  0  0  0  0  0  0  0  0  0  0
  -47.5711  -35.7308    1.2588 O   0  0  0  0  0  0  0  0  0  0  0  0
  -47.9911  -28.8241    4.9593 S   0  0  0  0  0  0  0  0  0  0  0  0
  -43.4306  -31.9305    1.6120 S   0  0  0  0  0  0  0  0  0  0  0  0
  -48.6587  -31.9936    1.2290 H   0  0  0  0  0  0  0  0  0  0  0  0
  -46.3115  -31.8974    0.5089 H   0  0  0  0  0  0  0  0  0  0  0  0
  -45.4169  -29.1675    3.7059 H   0  0  0  0  0  0  0  0  0  0  0  0
  -45.7759  -33.9915    2.1406 H   0  0  0  0  0  0  0  0  0  0  0  0
  -43.7911  -32.6467   -1.4823 H   0  0  0  0  0  0  0  0  0  0  0  0
  -49.9142  -29.2703    6.2913 H   0  0  0  0  0  0  0  0  0  0  0  0
  -48.9760  -30.7483    6.0104 H   0  0  0  0  0  0  0  0  0  0  0  0
  -44.4457  -32.9120   -3.4202 H   0  0  0  0  0  0  0  0  0  0  0  0
  -44.7943  -34.3193   -4.4407 H   0  0  0  0  0  0  0  0  0  0  0  0
  -43.5847  -34.4334   -3.1496 H   0  0  0  0  0  0  0  0  0  0  0  0
  -45.7418  -35.5380   -2.4680 H   0  0  0  0  0  0  0  0  0  0  0  0
  -46.6114  -34.0304   -2.7551 H   0  0  0  0  0  0  0  0  0  0  0  0
  -50.3691  -31.1607    2.5995 H   0  0  0  0  0  0  0  0  0  0  0  0
  -44.1571  -29.8065    0.8900 H   0  0  0  0  0  0  0  0  0  0  0  0
  -48.2981  -36.3899    1.2641 H   0  0  0  0  0  0  0  0  0  0  0  0
  1  2  2  0  0  0  0
  1  6  1  0  0  0  0
  2  7  1  0  0  0  0
  3  7  2  0  0  0  0
  3  8  1  0  0  0  0
  4  9  1  0  0  0  0
  4 10  2  0  0  0  0
  5  9  2  0  0  0  0
  5 16  1  0  0  0  0
  6  8  2  0  0  0  0
  6 17  1  0  0  0  0
  7 18  1  0  0  0  0
  8 24  1  0  0  0  0
  9 25  1  0  0  0  0
 10 12  1  0  0  0  0
 10 16  1  0  0  0  0
 11 13  1  0  0  0  0
 11 17  1  0  0  0  0
 11 19  2  0  0  0  0
 12 20  2  0  0  0  0
 12 23  1  0  0  0  0
 13 24  1  0  0  0  0
 14 15  1  0  0  0  0
 15 16  1  0  0  0  0
 18 25  1  0  0  0  0
 21 25  2  0  0  0  0
 22 25  2  0  0  0  0
  1 26  1  0  0  0  0
  2 27  1  0  0  0  0
  3 28  1  0  0  0  0
  4 29  1  0  0  0  0
  5 30  1  0  0  0  0
 13 31  1  0  0  0  0
 13 32  1  0  0  0  0
 14 33  1  0  0  0  0
 14 34  1  0  0  0  0
 14 35  1  0  0  0  0
 15 36  1  0  0  0  0
 15 37  1  0  0  0  0
 17 38  1  0  0  0  0
 18 39  1  0  0  0  0
 23 40  1  0  0  0  0
M  END
> <POSIT::Probability>
0.24

> <POSIT::Method>
FRED

> <ReceptorTitle>
UCSF-P4661-REFINED_LIGAND-BOUND-STATE_A__DU__LA1_A-201(A)

> <OMEGA_C>
ytQ/wqkH+8Ho7+Q/HoE6wgCZ+sGoTrA/r4k4wvJd7sGsmUtA1uc1wohlB8J4L44/ZasxwgZ8BMJw
Bj2/boRBwoU+9cE0UTpA5Ns2wj5K9MHk3gRAXd49wirT7sEw1GZAS9YxwmjyA8LQzyE/5xk4wozv
CcIAepc8PzFJwqLR8cGdqo1A2lY8wnLIDcIAtCE88m5Fwsey7sERObFAvDYywsEBCMLg91rA85A2
wv3JCcJYbR3A2n41wp8iCMKQyIy/JvZGwkzK9cE0LlFAK2kxwszN88EQcdM/GBROwhio8cGIZJNA
7UI+wgYIEMJQQ3+/R94owiKa/cHQeVk/jGQtwpQCAsJISzxAyEg+wlTsDsJAH6E/8PY/wsCX5sFd
sp5A6rgtwq1x/8HIVs4/fKJCwvHy/8HoT50/AD85wuYt/8GARgI/4qo1whhX6cFALW1AgBo3wkf3
B8LY/whACyovwkOWAsLAu72/KqhHwn4p6sFKUslAcOdDwn789cGPVcBAbsgxwu6lA8LQ41rAVi0z
wvFGCcL0GY7AslYuwsu7CcJUkknAnPc2wuYmDsLM8x3ACHI6whUfCMLoUzDA9XlJwgpJ+cEsXiZA
56Awwr9z7sHQ1WM/RjFBwkuPEcLwzKE/

> <OMEGA_E>
8r3MwA==

> <OMEGA_NBR>
     11485

$$$$
CACHE3HI_1696_27
  -OEChem-03092622543D

 32 32  0     1  0  0  0  0  0999 V2000
  -43.4319  -29.5799    0.7533 C   0  0  0  0  0  0  0  0  0  0  0  0
  -42.7758  -28.5457    2.8272 C   0  0  0  0  0  0  0  0  0  0  0  0
  -43.3030  -30.8125    1.2714 C   0  0  0  0  0  0  0  0  0  0  0  0
  -43.1610  -28.4070    1.5532 C   0  0  0  0  0  0  0  0  0  0  0  0
  -42.8724  -30.9730    2.6968 C   0  0  0  0  0  0  0  0  0  0  0  0
  -43.5979  -31.9587    0.3922 C   0  0  0  0  0  0  0  0  0  0  0  0
  -44.7170  -34.7325    0.0617 C   0  0  0  0  0  0  0  0  0  0  0  0
  -45.3093  -33.1447   -1.8358 C   0  0  0  0  0  0  0  0  0  0  0  0
  -45.4519  -34.3566   -2.7544 C   0  0  0  0  0  0  0  0  0  0  0  0
  -45.4556  -33.4430   -0.3247 C   0  0  1  0  0  0  0  0  0  0  0  0
  -46.9424  -33.5944    0.0143 C   0  0  0  0  0  0  0  0  0  0  0  0
  -42.6351  -29.7922    3.3841 N   0  0  0  0  0  0  0  0  0  0  0  0
  -44.9200  -32.3371    0.4509 N   0  0  0  0  0  0  0  0  0  0  0  0
  -42.7453  -32.0871    3.1987 O   0  0  0  0  0  0  0  0  0  0  0  0
  -42.7135  -32.4679   -0.2868 O   0  0  0  0  0  0  0  0  0  0  0  0
  -46.7333  -34.9385   -2.5413 O   0  0  0  0  0  0  0  0  0  0  0  0
  -47.1290  -33.8198    1.3337 F   0  0  0  0  0  0  0  0  0  0  0  0
  -47.6389  -32.4817   -0.3102 F   0  0  0  0  0  0  0  0  0  0  0  0
  -47.4976  -34.6294   -0.6556 F   0  0  0  0  0  0  0  0  0  0  0  0
  -43.3429  -26.8524    0.8376 Cl  0  0  0  0  0  0  0  0  0  0  0  0
  -43.7425  -29.4308   -0.2769 H   0  0  0  0  0  0  0  0  0  0  0  0
  -42.5565  -27.7119    3.4829 H   0  0  0  0  0  0  0  0  0  0  0  0
  -44.8195  -34.9454    1.1311 H   0  0  0  0  0  0  0  0  0  0  0  0
  -45.0912  -35.5979   -0.4965 H   0  0  0  0  0  0  0  0  0  0  0  0
  -43.6466  -34.6577   -0.1635 H   0  0  0  0  0  0  0  0  0  0  0  0
  -44.3315  -32.6821   -2.0298 H   0  0  0  0  0  0  0  0  0  0  0  0
  -46.0482  -32.3918   -2.1414 H   0  0  0  0  0  0  0  0  0  0  0  0
  -44.6967  -35.1157   -2.5332 H   0  0  0  0  0  0  0  0  0  0  0  0
  -45.3772  -34.0689   -3.8071 H   0  0  0  0  0  0  0  0  0  0  0  0
  -42.3400  -29.8420    4.3549 H   0  0  0  0  0  0  0  0  0  0  0  0
  -45.5667  -31.8499    1.0586 H   0  0  0  0  0  0  0  0  0  0  0  0
  -46.7939  -35.7025   -3.1362 H   0  0  0  0  0  0  0  0  0  0  0  0
  1  3  2  0  0  0  0
  1  4  1  0  0  0  0
  2  4  2  0  0  0  0
  2 12  1  0  0  0  0
  3  5  1  0  0  0  0
  3  6  1  0  0  0  0
  4 20  1  0  0  0  0
  5 12  1  0  0  0  0
  5 14  2  0  0  0  0
  6 13  1  0  0  0  0
  6 15  2  0  0  0  0
  7 10  1  0  0  0  0
  8  9  1  0  0  0  0
  8 10  1  0  0  0  0
  9 16  1  0  0  0  0
 10 11  1  0  0  0  0
 10 13  1  0  0  0  0
 11 17  1  0  0  0  0
 11 18  1  0  0  0  0
 11 19  1  0  0  0  0
  1 21  1  0  0  0  0
  2 22  1  0  0  0  0
  7 23  1  0  0  0  0
  7 24  1  0  0  0  0
  7 25  1  0  0  0  0
  8 26  1  0  0  0  0
  8 27  1  0  0  0  0
  9 28  1  0  0  0  0
  9 29  1  0  0  0  0
 12 30  1  0  0  0  0
 13 31  1  0  0  0  0
 16 32  1  0  0  0  0
M  END
> <POSIT::Probability>
0.18

> <POSIT::Method>
HYBRID

> <ReceptorTitle>
UCSF-P4661-REFINED_LIGAND-BOUND-STATE_A__DU__LA1_A-201(A)

> <OMEGA_C>
SLotwpij7MFg10A/YxorwpRd5MGN8DRARzYtwu9/9sGcvqI/56QswodB48EkzsY/Sn0rwqDI98ER
mCxAOmQuwmCr/8EYz8g+QN4ywhzuCsIAnXw9rjw1wiiUBMIC++q/ws41wi9tCcLGRzDAhtI1wqjF
BcI4Oqa+CMU7wqZgBsIAv2k8YYoqwlZW7sHolVhACK4zwjBZAcLY3+Y+J/sqwjlZAMLDtkxArNoq
wiDfAcIA1pK+7O46wgvBC8KDpCLAHIQ8wnFHB8Ketqo/QI4+wkDtAcJ41p6+fv09woyECsJE1ie/
JF8twqDR1sHIblY/TfguwlRy68FwyI2+2zkqwv2x3cFc6F5AJkczwh3IC8I4yJA/WV00wkFkDsKw
Nf6+FZYuwnShCsIwbCe+gVMxwni6AsJR6AHAWjE4wkCRAcKlDAnAbskywoF2DMJ9ICLAR4I1wphG
CMIdp3PALFwpwnK87sEbW4tAVkQ2woDM/sHCgYc/9yw7wljPDsLrtkjA

> <OMEGA_E>
6oaRwA==

> <OMEGA_NBR>
     12619

$$$$
CACHE3HI_1697_42
  -OEChem-03092622543D

 50 53  0     1  0  0  0  0  0999 V2000
  -46.4024  -29.5621    4.6663 C   0  0  0  0  0  0  0  0  0  0  0  0
  -45.0736  -29.6287    5.0854 C   0  0  0  0  0  0  0  0  0  0  0  0
  -46.7168  -29.7271    3.3175 C   0  0  0  0  0  0  0  0  0  0  0  0
  -44.0595  -29.8604    4.1559 C   0  0  0  0  0  0  0  0  0  0  0  0
  -45.7027  -29.9588    2.3880 C   0  0  0  0  0  0  0  0  0  0  0  0
  -44.1480  -33.0887   -1.5569 C   0  0  0  0  0  0  0  0  0  0  0  0
  -44.6546  -33.1618   -0.2504 C   0  0  0  0  0  0  0  0  0  0  0  0
  -44.3739  -30.0253    2.8070 C   0  0  0  0  0  0  0  0  0  0  0  0
  -45.6454  -34.1093   -0.3222 C   0  0  0  0  0  0  0  0  0  0  0  0
  -47.4624  -36.0709   -1.1835 C   0  0  0  0  0  0  0  0  0  0  0  0
  -46.6002  -35.5356   -2.0632 C   0  0  0  0  0  0  0  0  0  0  0  0
  -46.6737  -27.4867    1.0641 C   0  0  0  0  0  0  0  0  0  0  0  0
  -46.5599  -34.6806    0.6008 C   0  0  0  0  0  0  0  0  0  0  0  0
  -46.0618  -27.0920   -0.0589 C   0  0  0  0  0  0  0  0  0  0  0  0
  -47.4342  -35.6208    0.1995 C   0  0  0  0  0  0  0  0  0  0  0  0
  -46.8894  -27.6938   -1.1478 C   0  0  0  0  0  0  0  0  0  0  0  0
  -44.2523  -32.4298    0.9129 C   0  0  0  0  0  0  0  0  0  0  0  0
  -43.6844  -26.8107    0.4622 C   0  0  0  0  0  0  0  0  0  0  0  0
  -44.8725  -26.2266   -0.2785 C   0  0  0  0  0  0  0  0  0  0  0  0
  -42.7063  -28.9791    1.1981 C   0  0  0  0  0  0  0  0  0  0  0  0
  -43.2700  -30.2776    1.7946 C   0  0  2  0  0  0  0  0  0  0  0  0
  -44.7575  -33.9184   -2.4039 N   0  0  0  0  0  0  0  0  0  0  0  0
  -45.6900  -34.5574   -1.6465 N   0  0  0  0  0  0  0  0  0  0  0  0
  -47.7509  -28.2776    0.8203 N   0  0  0  0  0  0  0  0  0  0  0  0
  -47.9198  -28.3858   -0.5249 N   0  0  0  0  0  0  0  0  0  0  0  0
  -43.7369  -31.1311    0.7260 N   0  0  0  0  0  0  0  0  0  0  0  0
  -43.7233  -28.1964    0.5457 N   0  0  0  0  0  0  0  0  0  0  0  0
  -46.6715  -27.5701   -2.3409 O   0  0  0  0  0  0  0  0  0  0  0  0
  -44.3352  -32.9305    2.0605 O   0  0  0  0  0  0  0  0  0  0  0  0
  -42.7935  -26.1006    0.9266 O   0  0  0  0  0  0  0  0  0  0  0  0
  -46.5259  -34.2562    1.8815 F   0  0  0  0  0  0  0  0  0  0  0  0
  -48.5545  -36.3291    1.3026 Cl  0  0  0  0  0  0  0  0  0  0  0  0
  -47.1919  -29.3817    5.3899 H   0  0  0  0  0  0  0  0  0  0  0  0
  -44.8286  -29.5006    6.1357 H   0  0  0  0  0  0  0  0  0  0  0  0
  -47.7513  -29.6751    2.9910 H   0  0  0  0  0  0  0  0  0  0  0  0
  -43.0270  -29.9105    4.4918 H   0  0  0  0  0  0  0  0  0  0  0  0
  -45.9576  -30.0871    1.3394 H   0  0  0  0  0  0  0  0  0  0  0  0
  -43.3528  -32.4609   -1.9337 H   0  0  0  0  0  0  0  0  0  0  0  0
  -48.1736  -36.8294   -1.4903 H   0  0  0  0  0  0  0  0  0  0  0  0
  -46.5712  -35.8284   -3.1060 H   0  0  0  0  0  0  0  0  0  0  0  0
  -46.4226  -27.2336    2.0821 H   0  0  0  0  0  0  0  0  0  0  0  0
  -44.6785  -26.1373   -1.3512 H   0  0  0  0  0  0  0  0  0  0  0  0
  -45.0547  -25.2215    0.1178 H   0  0  0  0  0  0  0  0  0  0  0  0
  -42.2852  -28.3426    1.9853 H   0  0  0  0  0  0  0  0  0  0  0  0
  -41.9151  -29.1651    0.4631 H   0  0  0  0  0  0  0  0  0  0  0  0
  -42.4460  -30.8046    2.2933 H   0  0  0  0  0  0  0  0  0  0  0  0
  -48.5287  -28.3500    1.4613 H   0  0  0  0  0  0  0  0  0  0  0  0
  -48.6664  -28.8839   -0.9908 H   0  0  0  0  0  0  0  0  0  0  0  0
  -43.6271  -30.7863   -0.2218 H   0  0  0  0  0  0  0  0  0  0  0  0
  -44.5111  -28.6947    0.1364 H   0  0  0  0  0  0  0  0  0  0  0  0
  1  2  1  0  0  0  0
  1  3  2  0  0  0  0
  2  4  2  0  0  0  0
  3  5  1  0  0  0  0
  4  8  1  0  0  0  0
  5  8  2  0  0  0  0
  6  7  1  0  0  0  0
  6 22  2  0  0  0  0
  7  9  2  0  0  0  0
  7 17  1  0  0  0  0
  8 21  1  0  0  0  0
  9 13  1  0  0  0  0
  9 23  1  0  0  0  0
 10 11  2  0  0  0  0
 10 15  1  0  0  0  0
 11 23  1  0  0  0  0
 12 14  2  0  0  0  0
 12 24  1  0  0  0  0
 13 15  2  0  0  0  0
 13 31  1  0  0  0  0
 14 16  1  0  0  0  0
 14 19  1  0  0  0  0
 15 32  1  0  0  0  0
 16 25  1  0  0  0  0
 16 28  2  0  0  0  0
 17 26  1  0  0  0  0
 17 29  2  0  0  0  0
 18 19  1  0  0  0  0
 18 27  1  0  0  0  0
 18 30  2  0  0  0  0
 20 21  1  0  0  0  0
 20 27  1  0  0  0  0
 21 26  1  0  0  0  0
 22 23  1  0  0  0  0
 24 25  1  0  0  0  0
  1 33  1  0  0  0  0
  2 34  1  0  0  0  0
  3 35  1  0  0  0  0
  4 36  1  0  0  0  0
  5 37  1  0  0  0  0
  6 38  1  0  0  0  0
 10 39  1  0  0  0  0
 11 40  1  0  0  0  0
 12 41  1  0  0  0  0
 19 42  1  0  0  0  0
 19 43  1  0  0  0  0
 20 44  1  0  0  0  0
 20 45  1  0  0  0  0
 21 46  1  0  0  0  0
 24 47  1  0  0  0  0
 25 48  1  0  0  0  0
 26 49  1  0  0  0  0
 27 50  1  0  0  0  0
M  END
> <POSIT::Probability>
0.18

> <POSIT::Method>
HYBRID

> <ReceptorTitle>
UCSF-P4661-REFINED_LIGAND-BOUND-STATE_A__DU__LA1_A-201(A)

> <OMEGA_C>
BJw5wjh/7MGkUpVAVEs0woAH7cE2u6JA+906whLR7cHiUVRA4Twwwgzi7sEh/YRAh882wqCr78G5
1RhAlpcwwtdaBMJ6Sce/Up4ywrGlBMIwOIC+4H4xwuQz8MESpjNA5ZQ2wvJvCMKg/KS+e9k9wplI
EMJcfJe/pmY6wn4kDsJBDATA0rE6wrDk28E9NIg/Wz06wua4CsLgzRk/Sz84woS82MGAWnG9nrw9
wrZ7DsJ4Rkw+yo47wtaM3cHw6pK/WgIxwhK4AcKQsmk/zLwuwkR81sGEpuw+e30zwgnQ0cFEko6+
OtMqwjjV58G+Wpk/bhQtwoY48sHkteU/rgczwmisB8J62RnAmcI2wso6CsKawNK/8wA/woo44sEx
AFI/5a0/whwW48FcXQa/o/IuwogM+cEY2Dk/s+QuwiiS4cHPtAs/mq86wqiP3MEq0RXAPFcxws64
A8IQ3wNAhywrwg3O0MHGOG0/hRo6wmQGCcJO1PA/xzdCwvVQEcL8uaY/gcQ8wrQN68HAeaxAg1Az
wkgB7MFgV8RAUAE/wqJm7cHFbD9ArhsswqJI78HCvI9AltQ3wlyy8MF6cas/QGktwv3XAcJ4gve/
x7FAwk9RE8JUwb6/60g6wkNQD8IoyEbAtrA5wlDe2cE9QQVAvbYywkQZ0cGQ86y//jc0wrDFycHg
OfE9FSQpwpS94sEOH/4/FKknwiZS6cGsF+0+u8gpwrxv9sGcxRJAah1CwrzM4sHDCrs/aapCwkAS
58HAo32/G4IuwmZK9sEQKGO+VQsywryO5cG4qgs+

> <OMEGA_E>
/2IbwA==

> <OMEGA_NBR>
     14123

$$$$
CACHE3HI_1702_31
  -OEChem-03092622543D

 37 38  0     0  0  0  0  0  0999 V2000
  -42.6833  -26.9510    1.8882 C   0  0  0  0  0  0  0  0  0  0  0  0
  -43.7294  -26.3897    1.1558 C   0  0  0  0  0  0  0  0  0  0  0  0
  -42.6519  -28.3266    2.1162 C   0  0  0  0  0  0  0  0  0  0  0  0
  -44.4917  -34.1069   -1.1005 C   0  0  0  0  0  0  0  0  0  0  0  0
  -45.5757  -34.7020   -1.7459 C   0  0  0  0  0  0  0  0  0  0  0  0
  -45.9317  -33.4763    0.7342 C   0  0  0  0  0  0  0  0  0  0  0  0
  -44.7436  -27.2038    0.6512 C   0  0  0  0  0  0  0  0  0  0  0  0
  -43.6661  -29.1408    1.6117 C   0  0  0  0  0  0  0  0  0  0  0  0
  -44.6699  -33.4940    0.1397 C   0  0  0  0  0  0  0  0  0  0  0  0
  -44.7121  -28.5796    0.8793 C   0  0  0  0  0  0  0  0  0  0  0  0
  -46.8375  -34.6843   -1.1513 C   0  0  0  0  0  0  0  0  0  0  0  0
  -47.0157  -34.0713    0.0888 C   0  0  0  0  0  0  0  0  0  0  0  0
  -45.8220  -26.5883   -0.1112 C   0  0  0  0  0  0  0  0  0  0  0  0
  -43.6047  -30.5742    1.8662 C   0  0  0  0  0  0  0  0  0  0  0  0
  -45.7994  -29.4538    0.3367 C   0  0  0  0  0  0  0  0  0  0  0  0
  -43.5031  -32.8542    0.8359 C   0  0  0  0  0  0  0  0  0  0  0  0
  -45.6553  -26.4744   -1.4868 N   0  0  0  0  0  0  0  0  0  0  0  0
  -43.5456  -31.4123    0.7486 N   0  0  0  0  0  0  0  0  0  0  0  0
  -46.8615  -26.1945    0.4432 O   0  0  0  0  0  0  0  0  0  0  0  0
  -43.6253  -31.0068    3.0302 O   0  0  0  0  0  0  0  0  0  0  0  0
  -47.8784  -35.2746   -1.8044 O   0  0  0  0  0  0  0  0  0  0  0  0
  -48.5645  -34.0358    0.8474 Cl  0  0  0  0  0  0  0  0  0  0  0  0
  -41.8941  -26.3165    2.2811 H   0  0  0  0  0  0  0  0  0  0  0  0
  -43.7418  -25.3161    0.9852 H   0  0  0  0  0  0  0  0  0  0  0  0
  -41.8315  -28.7522    2.6884 H   0  0  0  0  0  0  0  0  0  0  0  0
  -43.5123  -34.1251   -1.5712 H   0  0  0  0  0  0  0  0  0  0  0  0
  -45.4303  -35.1764   -2.7126 H   0  0  0  0  0  0  0  0  0  0  0  0
  -46.0639  -32.9962    1.7014 H   0  0  0  0  0  0  0  0  0  0  0  0
  -45.5501  -29.8142   -0.6677 H   0  0  0  0  0  0  0  0  0  0  0  0
  -46.7434  -28.9025    0.2564 H   0  0  0  0  0  0  0  0  0  0  0  0
  -45.9507  -30.3173    0.9930 H   0  0  0  0  0  0  0  0  0  0  0  0
  -43.4890  -33.1280    1.8961 H   0  0  0  0  0  0  0  0  0  0  0  0
  -42.5552  -33.1880    0.4011 H   0  0  0  0  0  0  0  0  0  0  0  0
  -44.8311  -26.8151   -1.9697 H   0  0  0  0  0  0  0  0  0  0  0  0
  -46.3770  -26.0704   -2.0743 H   0  0  0  0  0  0  0  0  0  0  0  0
  -43.5952  -31.0072   -0.1802 H   0  0  0  0  0  0  0  0  0  0  0  0
  -47.5518  -35.6423   -2.6450 H   0  0  0  0  0  0  0  0  0  0  0  0
  1  2  1  0  0  0  0
  1  3  2  0  0  0  0
  2  7  2  0  0  0  0
  3  8  1  0  0  0  0
  4  5  2  0  0  0  0
  4  9  1  0  0  0  0
  5 11  1  0  0  0  0
  6  9  2  0  0  0  0
  6 12  1  0  0  0  0
  7 10  1  0  0  0  0
  7 13  1  0  0  0  0
  8 10  2  0  0  0  0
  8 14  1  0  0  0  0
  9 16  1  0  0  0  0
 10 15  1  0  0  0  0
 11 12  2  0  0  0  0
 11 21  1  0  0  0  0
 12 22  1  0  0  0  0
 13 17  1  0  0  0  0
 13 19  2  0  0  0  0
 14 18  1  0  0  0  0
 14 20  2  0  0  0  0
 16 18  1  0  0  0  0
  1 23  1  0  0  0  0
  2 24  1  0  0  0  0
  3 25  1  0  0  0  0
  4 26  1  0  0  0  0
  5 27  1  0  0  0  0
  6 28  1  0  0  0  0
 15 29  1  0  0  0  0
 15 30  1  0  0  0  0
 15 31  1  0  0  0  0
 16 32  1  0  0  0  0
 16 33  1  0  0  0  0
 17 34  1  0  0  0  0
 17 35  1  0  0  0  0
 18 36  1  0  0  0  0
 21 37  1  0  0  0  0
M  END
> <POSIT::Probability>
0.23

> <POSIT::Method>
HYBRID

> <ReceptorTitle>
UCSF-P4661-REFINED_LIGAND-BOUND-STATE_A__DU__LA1_A-201(A)

> <OMEGA_C>
vrsqwpmb18EksfE/5uouwh4e08Hc8JM/jZsqwvic4sEacAdAhPcxwoNtCMJo3Iy/hU02wtnOCsIw
et+/G7o3wrznBcJw9js/dPkywnah2cFgtyY/GaouwlAg6cEAS84/BK4yws/5BcKAAA8+PNkywvCi
5MEIF2E/nFk7wsa8CsIIX5O/FxA8wglJCMLA8LU9vEk3wtm01MGAteO9KmsuwuKX9MFY3u4/mDI3
wluh68GgZ6w+NQMuwrtqA8KQ/VU/Bp82wpzL08GAUL6/ui4uwl1M+8GYpT8/InI7wlSO0cEA5eI+
VYAuwtkN+MFI70FAg4M/wi8ZDcK09+a/E0JCwq0kCMK48Vg/l5Mnwi+I0sHM/BFApvcuwl2HysH4
M3w/flMnwpIE5sFYDixAogwuwheACMLIG8m/obg1wq60DMKMmi3Ac0E4wiH8A8IIxtk/VTM2wn2D
7sGA8Sq/N/k6wmc458FATIM+kc03wsyJ8sHYM34/u/QtwhGDBMLwsvI/iTgqwoLABMIAXs0+GFMz
wmCF1sEAH/y/FII5whWQ0MHQwQTAgWEuws0O+MGgiDi+/zQ+wryRDsI0SCnA

> <OMEGA_E>
SBu5wA==

> <OMEGA_NBR>
     15354

$$$$
CACHE3HI_1702_40
  -OEChem-03092622543D

 34 35  0     0  0  0  0  0  0999 V2000
  -42.7384  -28.3445    1.7528 C   0  0  0  0  0  0  0  0  0  0  0  0
  -47.6503  -35.5722    0.1188 C   0  0  0  0  0  0  0  0  0  0  0  0
  -43.5082  -27.3781    1.1053 C   0  0  0  0  0  0  0  0  0  0  0  0
  -43.2145  -29.6502    1.8713 C   0  0  0  0  0  0  0  0  0  0  0  0
  -48.2887  -34.5235    0.7809 C   0  0  0  0  0  0  0  0  0  0  0  0
  -46.3835  -35.3801   -0.4323 C   0  0  0  0  0  0  0  0  0  0  0  0
  -44.7535  -27.7173    0.5761 C   0  0  0  0  0  0  0  0  0  0  0  0
  -44.4599  -29.9893    1.3421 C   0  0  0  0  0  0  0  0  0  0  0  0
  -45.2296  -29.0230    0.6946 C   0  0  0  0  0  0  0  0  0  0  0  0
  -46.3935  -33.0908    0.3409 C   0  0  0  0  0  0  0  0  0  0  0  0
  -47.6603  -33.2830    0.8920 C   0  0  0  0  0  0  0  0  0  0  0  0
  -45.7552  -34.1396   -0.3211 C   0  0  0  0  0  0  0  0  0  0  0  0
  -45.5335  -26.6863   -0.0959 C   0  0  0  0  0  0  0  0  0  0  0  0
  -44.9292  -31.3617    1.4814 C   0  0  0  0  0  0  0  0  0  0  0  0
  -46.5652  -29.3879    0.1256 C   0  0  0  0  0  0  0  0  0  0  0  0
  -45.3438  -26.5234   -1.4637 N   0  0  0  0  0  0  0  0  0  0  0  0
  -45.7709  -31.8241    0.4617 N   0  0  0  0  0  0  0  0  0  0  0  0
  -46.3520  -25.9883    0.5251 O   0  0  0  0  0  0  0  0  0  0  0  0
  -44.5847  -32.0168    2.4769 O   0  0  0  0  0  0  0  0  0  0  0  0
  -48.3043  -32.2735    1.5440 O   0  0  0  0  0  0  0  0  0  0  0  0
  -44.1862  -33.9489   -1.0200 Cl  0  0  0  0  0  0  0  0  0  0  0  0
  -41.7690  -28.0797    2.1649 H   0  0  0  0  0  0  0  0  0  0  0  0
  -48.1391  -36.5383    0.0327 H   0  0  0  0  0  0  0  0  0  0  0  0
  -43.1253  -26.3642    1.0196 H   0  0  0  0  0  0  0  0  0  0  0  0
  -42.6055  -30.3943    2.3781 H   0  0  0  0  0  0  0  0  0  0  0  0
  -49.2755  -34.6801    1.2086 H   0  0  0  0  0  0  0  0  0  0  0  0
  -45.8994  -36.2078   -0.9450 H   0  0  0  0  0  0  0  0  0  0  0  0
  -46.4715  -29.7266   -0.9125 H   0  0  0  0  0  0  0  0  0  0  0  0
  -47.2403  -28.5244    0.1232 H   0  0  0  0  0  0  0  0  0  0  0  0
  -47.0204  -30.1889    0.7174 H   0  0  0  0  0  0  0  0  0  0  0  0
  -44.7056  -27.0994   -2.0015 H   0  0  0  0  0  0  0  0  0  0  0  0
  -45.8692  -25.8340   -1.9910 H   0  0  0  0  0  0  0  0  0  0  0  0
  -45.9597  -31.1646   -0.2896 H   0  0  0  0  0  0  0  0  0  0  0  0
  -49.1675  -32.6019    1.8532 H   0  0  0  0  0  0  0  0  0  0  0  0
  1  3  1  0  0  0  0
  1  4  2  0  0  0  0
  2  5  1  0  0  0  0
  2  6  2  0  0  0  0
  3  7  2  0  0  0  0
  4  8  1  0  0  0  0
  5 11  2  0  0  0  0
  6 12  1  0  0  0  0
  7  9  1  0  0  0  0
  7 13  1  0  0  0  0
  8  9  2  0  0  0  0
  8 14  1  0  0  0  0
  9 15  1  0  0  0  0
 10 11  1  0  0  0  0
 10 12  2  0  0  0  0
 10 17  1  0  0  0  0
 11 20  1  0  0  0  0
 12 21  1  0  0  0  0
 13 16  1  0  0  0  0
 13 18  2  0  0  0  0
 14 17  1  0  0  0  0
 14 19  2  0  0  0  0
  1 22  1  0  0  0  0
  2 23  1  0  0  0  0
  3 24  1  0  0  0  0
  4 25  1  0  0  0  0
  5 26  1  0  0  0  0
  6 27  1  0  0  0  0
 15 28  1  0  0  0  0
 15 29  1  0  0  0  0
 15 30  1  0  0  0  0
 16 31  1  0  0  0  0
 16 32  1  0  0  0  0
 17 33  1  0  0  0  0
 20 34  1  0  0  0  0
M  END
> <POSIT::Probability>
0.14

> <POSIT::Method>
HYBRID

> <ReceptorTitle>
UCSF-P4661-REFINED_LIGAND-BOUND-STATE_A__DU__LA1_A-201(A)

> <OMEGA_C>
I/Qqwo7B4sGIXOA/85k+wvVJDsIATvM9XAguwnIG28EUeY0/qNsswocz7cGgh+8/midBwgQYCsL4
5Uc/vog5wjaFDcKgWd2+nAMzwhe93cHYeRM/6NYxwi/q78F4y6s/IOs0wjEv6ME40TE/7ZI5wgRd
BMIAh64+LqQ+wr8hBcIgXGQ/UwU3wvCOCMJgbaS+VCI2wnR91cHAfsS9drczwt3k+sHQn70/yUI6
wlga68HgkgA+F2A1wtkv1MFAWbu/aBU3wsWX/sHgaew+d2g5wgDoz8H4bgY/tFYywi0RAMJUhh5A
pzdBwgYYAcLAocU/n74wwqTLB8KIjoK/bhMnwjqj4MG1jQpAeI5AwiwnEsIA/AU9VoAswvbp0sHs
goI/AGwqwpAn88F6MhhAGhpFwmS4CsIEtZo//Zg3wtTUEMIY7XG/xeI5whbQ7cF4lmm/FfY8wuEx
5MFASfw95xQ8wuaC8cFQqTc/h9IywpXL2MGeGADACHo3wvOrzsGo2P6/r9Y3whVR+cEARZS+eatE
wmNoAsJ4NO0/

> <OMEGA_E>
wvO6wA==

> <OMEGA_NBR>
     16525

$$$$
CACHE3HI_1702_43
  -OEChem-03092622543D

 34 35  0     0  0  0  0  0  0999 V2000
  -44.6680  -32.5286    0.6477 C   0  0  0  0  0  0  0  0  0  0  0  0
  -43.6087  -31.6400    0.8318 C   0  0  0  0  0  0  0  0  0  0  0  0
  -45.9529  -32.1763    1.0604 C   0  0  0  0  0  0  0  0  0  0  0  0
  -49.9624  -30.8927    4.1354 C   0  0  0  0  0  0  0  0  0  0  0  0
  -50.1577  -28.4699    5.5058 C   0  0  0  0  0  0  0  0  0  0  0  0
  -43.8342  -30.3992    1.4281 C   0  0  0  0  0  0  0  0  0  0  0  0
  -46.1784  -30.9355    1.6567 C   0  0  0  0  0  0  0  0  0  0  0  0
  -45.1191  -30.0469    1.8408 C   0  0  0  0  0  0  0  0  0  0  0  0
  -48.8880  -30.0031    4.1365 C   0  0  0  0  0  0  0  0  0  0  0  0
  -51.2320  -29.3595    5.5046 C   0  0  0  0  0  0  0  0  0  0  0  0
  -48.9856  -28.7918    4.8215 C   0  0  0  0  0  0  0  0  0  0  0  0
  -51.1344  -30.5708    4.8196 C   0  0  0  0  0  0  0  0  0  0  0  0
  -42.7078  -29.4921    1.6054 C   0  0  0  0  0  0  0  0  0  0  0  0
  -47.5319  -30.5964    2.0765 C   0  0  0  0  0  0  0  0  0  0  0  0
  -45.3619  -28.7149    2.4794 C   0  0  0  0  0  0  0  0  0  0  0  0
  -42.4314  -28.5989    0.5764 N   0  0  0  0  0  0  0  0  0  0  0  0
  -47.6980  -30.3321    3.4420 N   0  0  0  0  0  0  0  0  0  0  0  0
  -42.0280  -29.5023    2.6449 O   0  0  0  0  0  0  0  0  0  0  0  0
  -48.4382  -30.5828    1.2296 O   0  0  0  0  0  0  0  0  0  0  0  0
  -52.3651  -29.0192    6.1819 O   0  0  0  0  0  0  0  0  0  0  0  0
  -47.9590  -27.9295    4.8294 F   0  0  0  0  0  0  0  0  0  0  0  0
  -52.4480  -31.6890    4.8026 Cl  0  0  0  0  0  0  0  0  0  0  0  0
  -44.4917  -33.4947    0.1835 H   0  0  0  0  0  0  0  0  0  0  0  0
  -42.6121  -31.9269    0.5054 H   0  0  0  0  0  0  0  0  0  0  0  0
  -46.7702  -32.8772    0.9115 H   0  0  0  0  0  0  0  0  0  0  0  0
  -49.8823  -31.8368    3.6004 H   0  0  0  0  0  0  0  0  0  0  0  0
  -50.2264  -27.5245    6.0369 H   0  0  0  0  0  0  0  0  0  0  0  0
  -45.6094  -27.9572    1.7273 H   0  0  0  0  0  0  0  0  0  0  0  0
  -44.4683  -28.3642    3.0084 H   0  0  0  0  0  0  0  0  0  0  0  0
  -46.1889  -28.7851    3.1937 H   0  0  0  0  0  0  0  0  0  0  0  0
  -42.9882  -28.5472   -0.2696 H   0  0  0  0  0  0  0  0  0  0  0  0
  -41.6710  -27.9310    0.6472 H   0  0  0  0  0  0  0  0  0  0  0  0
  -46.8544  -30.3830    4.0085 H   0  0  0  0  0  0  0  0  0  0  0  0
  -52.2348  -28.1442    6.5892 H   0  0  0  0  0  0  0  0  0  0  0  0
  1  2  1  0  0  0  0
  1  3  2  0  0  0  0
  2  6  2  0  0  0  0
  3  7  1  0  0  0  0
  4  9  1  0  0  0  0
  4 12  2  0  0  0  0
  5 10  2  0  0  0  0
  5 11  1  0  0  0  0
  6  8  1  0  0  0  0
  6 13  1  0  0  0  0
  7  8  2  0  0  0  0
  7 14  1  0  0  0  0
  8 15  1  0  0  0  0
  9 11  2  0  0  0  0
  9 17  1  0  0  0  0
 10 12  1  0  0  0  0
 10 20  1  0  0  0  0
 11 21  1  0  0  0  0
 12 22  1  0  0  0  0
 13 16  1  0  0  0  0
 13 18  2  0  0  0  0
 14 17  1  0  0  0  0
 14 19  2  0  0  0  0
  1 23  1  0  0  0  0
  2 24  1  0  0  0  0
  3 25  1  0  0  0  0
  4 26  1  0  0  0  0
  5 27  1  0  0  0  0
 15 28  1  0  0  0  0
 15 29  1  0  0  0  0
 15 30  1  0  0  0  0
 16 31  1  0  0  0  0
 16 32  1  0  0  0  0
 17 33  1  0  0  0  0
 20 34  1  0  0  0  0
M  END
> <POSIT::Probability>
0.05

> <POSIT::Method>
FRED

> <ReceptorTitle>
UCSF-P4661-REFINED_LIGAND-BOUND-STATE_A__DU__LA1_A-201(A)

> <OMEGA_C>
A6wywlEdAsIAziU/SW8uwq4e/cEw7lQ/v883woK0AMLAuoc/ftlHwkQk98HLVIRAcqFIwkrC48E4
L7BAMlYvwpox88GgzLY/qLY4wut798FYENQ//Hk0wv1f8MG0oOs/U41DwloG8MEiXoRAju1Mwi/g
6sG1JbBARPFDwpJV5sFkSZpAnIlMwvaQ9MFzOppAwNQqwsfv68Fgfs0/qSA+wn7F9MGa5ARAkHI1
wjG45cHUrh5AwbkpwnLK5MFgjRM/uMo+whyo8sEkSVxAphwowsoE7MHMRilAwMBBwoWp9MEoZJ0/
0nVRwlYn6MHl0cVAC9Y/wpBv38FJippAzcpRwv2C/cFOr5lAfvcxwo36BcJA9Ds+1XIqwlhq/8Eg
ZAE/qRQ7wkuCA8JAWGk/bYdHwq6x/sEgbWZAy+dIwjIy3MFnLsFACHA2wnKo38EYGd0/ft8xwvrp
4sH6iUBAesE4wvhH5sEWZkxA8fMrwp5g5MFgDYq+Fq8mwpxy38HgrCU/8Wo7wkoQ88GkRYBAefBQ
wjon4cGC2tJA

> <OMEGA_E>
s3jcwA==

> <OMEGA_NBR>
     17692

$$$$
CACHE3HI_1702_44
  -OEChem-03092622543D

 37 38  0     0  0  0  0  0  0999 V2000
  -42.8741  -29.4733    1.8090 C   0  0  0  0  0  0  0  0  0  0  0  0
  -42.7345  -28.2548    1.1446 C   0  0  0  0  0  0  0  0  0  0  0  0
  -44.1347  -29.8979    2.2284 C   0  0  0  0  0  0  0  0  0  0  0  0
  -49.8246  -29.2240    5.9575 C   0  0  0  0  0  0  0  0  0  0  0  0
  -49.6212  -29.0869    3.1779 C   0  0  0  0  0  0  0  0  0  0  0  0
  -43.8552  -27.4611    0.8995 C   0  0  0  0  0  0  0  0  0  0  0  0
  -45.2554  -29.1042    1.9833 C   0  0  0  0  0  0  0  0  0  0  0  0
  -50.9660  -29.3575    5.1669 C   0  0  0  0  0  0  0  0  0  0  0  0
  -45.1159  -27.8857    1.3190 C   0  0  0  0  0  0  0  0  0  0  0  0
  -48.4799  -28.9535    3.9685 C   0  0  0  0  0  0  0  0  0  0  0  0
  -48.5814  -29.0222    5.3581 C   0  0  0  0  0  0  0  0  0  0  0  0
  -50.8644  -29.2888    3.7773 C   0  0  0  0  0  0  0  0  0  0  0  0
  -43.6775  -26.1942    0.2020 C   0  0  0  0  0  0  0  0  0  0  0  0
  -46.5587  -29.5756    2.4333 C   0  0  0  0  0  0  0  0  0  0  0  0
  -52.2792  -29.5752    5.8469 C   0  0  0  0  0  0  0  0  0  0  0  0
  -46.3190  -27.0352    1.0548 C   0  0  0  0  0  0  0  0  0  0  0  0
  -42.3877  -25.8458   -0.1830 N   0  0  0  0  0  0  0  0  0  0  0  0
  -47.2243  -28.7471    3.3458 N   0  0  0  0  0  0  0  0  0  0  0  0
  -44.6442  -25.4582   -0.0561 O   0  0  0  0  0  0  0  0  0  0  0  0
  -46.9831  -30.6625    2.0121 O   0  0  0  0  0  0  0  0  0  0  0  0
  -47.4779  -28.8948    6.1479 O   0  0  0  0  0  0  0  0  0  0  0  0
  -52.2556  -29.4492    2.7681 Cl  0  0  0  0  0  0  0  0  0  0  0  0
  -42.0010  -30.0907    1.9998 H   0  0  0  0  0  0  0  0  0  0  0  0
  -41.7463  -27.9357    0.8229 H   0  0  0  0  0  0  0  0  0  0  0  0
  -44.2307  -30.8494    2.7451 H   0  0  0  0  0  0  0  0  0  0  0  0
  -49.8985  -29.2780    7.0410 H   0  0  0  0  0  0  0  0  0  0  0  0
  -49.5379  -29.0320    2.0944 H   0  0  0  0  0  0  0  0  0  0  0  0
  -52.7734  -28.6214    6.0677 H   0  0  0  0  0  0  0  0  0  0  0  0
  -52.1474  -30.0969    6.8027 H   0  0  0  0  0  0  0  0  0  0  0  0
  -52.9408  -30.1731    5.2099 H   0  0  0  0  0  0  0  0  0  0  0  0
  -46.7737  -27.2856    0.0896 H   0  0  0  0  0  0  0  0  0  0  0  0
  -46.0491  -25.9735    1.0183 H   0  0  0  0  0  0  0  0  0  0  0  0
  -47.0643  -27.1820    1.8436 H   0  0  0  0  0  0  0  0  0  0  0  0
  -41.5847  -26.4414   -0.0131 H   0  0  0  0  0  0  0  0  0  0  0  0
  -42.2015  -24.9848   -0.6863 H   0  0  0  0  0  0  0  0  0  0  0  0
  -46.7436  -27.8853    3.5935 H   0  0  0  0  0  0  0  0  0  0  0  0
  -47.7500  -28.9704    7.0801 H   0  0  0  0  0  0  0  0  0  0  0  0
  1  2  1  0  0  0  0
  1  3  2  0  0  0  0
  2  6  2  0  0  0  0
  3  7  1  0  0  0  0
  4  8  1  0  0  0  0
  4 11  2  0  0  0  0
  5 10  2  0  0  0  0
  5 12  1  0  0  0  0
  6  9  1  0  0  0  0
  6 13  1  0  0  0  0
  7  9  2  0  0  0  0
  7 14  1  0  0  0  0
  8 12  2  0  0  0  0
  8 15  1  0  0  0  0
  9 16  1  0  0  0  0
 10 11  1  0  0  0  0
 10 18  1  0  0  0  0
 11 21  1  0  0  0  0
 12 22  1  0  0  0  0
 13 17  1  0  0  0  0
 13 19  2  0  0  0  0
 14 18  1  0  0  0  0
 14 20  2  0  0  0  0
  1 23  1  0  0  0  0
  2 24  1  0  0  0  0
  3 25  1  0  0  0  0
  4 26  1  0  0  0  0
  5 27  1  0  0  0  0
 15 28  1  0  0  0  0
 15 29  1  0  0  0  0
 15 30  1  0  0  0  0
 16 31  1  0  0  0  0
 16 32  1  0  0  0  0
 16 33  1  0  0  0  0
 17 34  1  0  0  0  0
 17 35  1  0  0  0  0
 18 36  1  0  0  0  0
 21 37  1  0  0  0  0
M  END
> <POSIT::Probability>
0.05

> <POSIT::Method>
FRED

> <ReceptorTitle>
UCSF-P4661-REFINED_LIGAND-BOUND-STATE_A__DU__LA1_A-201(A)

> <OMEGA_C>
Dn8rwl7J68FqjOc/H/Aqws0J4sF0gpI/9IkwwuYu78HAng5AYkxHwtrK6cH7o75AH3xGwgSy6MEa
Y0tAwGsvwmSw28EoRWY/kwU1wn3V6MGi3f0/MN1LwiTc6sFDV6VAsHY0wgEW38GO1Kg/YOtBwr6g
58GM/H1AZlNCwmgt6MHOdatAK3VLwntP6sFyv3FAxLUuwsCN0cGA3U4+IDw6wtSa7MHRuhtA4B1R
wgya7MFuGbtArkY5wgZI2MGQBIc/Bo0pwjzEzsHQYDu+ruU8wiH65cHTIVZAp5MywmWqy8FA12W9
ve47wrlM9cH5xgBAYuk9wnwo58Fwu8RAswVRwvOX68EoKTFADAEowrG58MHa+P8/Nfwmwjd838FY
plI/POwwwoTL9sFpsC9AE5hHwkY56sEyUOFA0yZGwopB6ME+CwZA6hdTwqL45MGyKsJA55ZQwmjG
8MGir9lAWcNTwoFi8cGbt6ZARBg7wtdI2sEglrc9UDI4wqjJz8H8WII/20E8wsJ02cGE++s/s1Ym
wvKH08EA2lW8YM4owu3gx8EIsy+/dfk6wjEV38Fm/GVABgA/wkfD58HVj+JA

> <OMEGA_E>
Xd/VwA==

> <OMEGA_NBR>
     18919

$$$$
CACHE3HI_1702_46
  -OEChem-03092622543D

 45 47  0     1  0  0  0  0  0999 V2000
  -43.2425  -32.8116   -1.5283 C   0  0  0  0  0  0  0  0  0  0  0  0
  -43.4178  -27.1117    0.7867 C   0  0  0  0  0  0  0  0  0  0  0  0
  -44.9882  -28.7891    1.5335 C   0  0  0  0  0  0  0  0  0  0  0  0
  -44.4166  -26.5228    0.0112 C   0  0  0  0  0  0  0  0  0  0  0  0
  -45.9870  -28.2002    0.7581 C   0  0  0  0  0  0  0  0  0  0  0  0
  -42.3157  -32.2818   -0.6230 C   0  0  0  0  0  0  0  0  0  0  0  0
  -43.9955  -32.2016    1.1327 C   0  0  0  0  0  0  0  0  0  0  0  0
  -44.5411  -33.0450   -1.0990 C   0  0  0  0  0  0  0  0  0  0  0  0
  -43.7038  -28.2448    1.5480 C   0  0  0  0  0  0  0  0  0  0  0  0
  -45.7010  -27.0670   -0.0032 C   0  0  0  0  0  0  0  0  0  0  0  0
  -44.8859  -32.7165    0.2119 C   0  0  0  0  0  0  0  0  0  0  0  0
  -42.6898  -31.9812    0.6985 C   0  0  0  0  0  0  0  0  0  0  0  0
  -45.6693  -33.5623   -1.9462 C   0  0  0  0  0  0  0  0  0  0  0  0
  -46.7420  -34.0750   -0.9762 C   0  0  0  0  0  0  0  0  0  0  0  0
  -47.0543  -24.9816   -0.4381 C   0  0  0  0  0  0  0  0  0  0  0  0
  -42.6292  -28.8785    2.3840 C   0  0  0  0  0  0  0  0  0  0  0  0
  -46.7683  -26.4376   -0.8331 C   0  0  1  0  0  0  0  0  0  0  0  0
  -46.4660  -26.4961   -2.2527 N   0  0  0  0  0  0  0  0  0  0  0  0
  -41.6754  -29.6421    1.5671 N   0  0  0  0  0  0  0  0  0  0  0  0
  -47.3229  -31.9027    0.4484 O   0  0  0  0  0  0  0  0  0  0  0  0
  -46.5877  -34.0123    1.6766 O   0  0  0  0  0  0  0  0  0  0  0  0
  -40.1786  -31.7287    1.3612 O   0  0  0  0  0  0  0  0  0  0  0  0
  -41.9360  -31.6502    3.1572 O   0  0  0  0  0  0  0  0  0  0  0  0
  -46.5490  -33.1208    0.5380 S   0  0  0  0  0  0  0  0  0  0  0  0
  -41.5067  -31.3256    1.8042 S   0  0  0  0  0  0  0  0  0  0  0  0
  -42.9432  -33.0330   -2.5477 H   0  0  0  0  0  0  0  0  0  0  0  0
  -42.4205  -26.6800    0.7929 H   0  0  0  0  0  0  0  0  0  0  0  0
  -45.2197  -29.6726    2.1225 H   0  0  0  0  0  0  0  0  0  0  0  0
  -44.1848  -25.6398   -0.5786 H   0  0  0  0  0  0  0  0  0  0  0  0
  -46.9848  -28.6308    0.7532 H   0  0  0  0  0  0  0  0  0  0  0  0
  -41.2962  -32.1020   -0.9560 H   0  0  0  0  0  0  0  0  0  0  0  0
  -44.3004  -31.9791    2.1491 H   0  0  0  0  0  0  0  0  0  0  0  0
  -46.0679  -32.7359   -2.5456 H   0  0  0  0  0  0  0  0  0  0  0  0
  -45.3439  -34.3614   -2.6194 H   0  0  0  0  0  0  0  0  0  0  0  0
  -47.7565  -33.9607   -1.3634 H   0  0  0  0  0  0  0  0  0  0  0  0
  -46.5587  -35.1237   -0.7192 H   0  0  0  0  0  0  0  0  0  0  0  0
  -46.1564  -24.3587   -0.5156 H   0  0  0  0  0  0  0  0  0  0  0  0
  -47.8220  -24.5478   -1.0890 H   0  0  0  0  0  0  0  0  0  0  0  0
  -47.4078  -24.9117    0.5969 H   0  0  0  0  0  0  0  0  0  0  0  0
  -42.0679  -28.1158    2.9338 H   0  0  0  0  0  0  0  0  0  0  0  0
  -43.0588  -29.5624    3.1235 H   0  0  0  0  0  0  0  0  0  0  0  0
  -47.7168  -26.9923   -0.7282 H   0  0  0  0  0  0  0  0  0  0  0  0
  -47.2375  -26.0894   -2.7795 H   0  0  0  0  0  0  0  0  0  0  0  0
  -46.4046  -27.4703   -2.5457 H   0  0  0  0  0  0  0  0  0  0  0  0
  -40.8798  -29.1130    1.1897 H   0  0  0  0  0  0  0  0  0  0  0  0
  1  6  2  0  0  0  0
  1  8  1  0  0  0  0
  2  4  2  0  0  0  0
  2  9  1  0  0  0  0
  3  5  1  0  0  0  0
  3  9  2  0  0  0  0
  4 10  1  0  0  0  0
  5 10  2  0  0  0  0
  6 12  1  0  0  0  0
  7 11  1  0  0  0  0
  7 12  2  0  0  0  0
  8 11  2  0  0  0  0
  8 13  1  0  0  0  0
  9 16  1  0  0  0  0
 10 17  1  0  0  0  0
 11 24  1  0  0  0  0
 12 25  1  0  0  0  0
 13 14  1  0  0  0  0
 14 24  1  0  0  0  0
 15 17  1  0  0  0  0
 16 19  1  0  0  0  0
 17 18  1  0  0  0  0
 19 25  1  0  0  0  0
 20 24  2  0  0  0  0
 21 24  2  0  0  0  0
 22 25  2  0  0  0  0
 23 25  2  0  0  0  0
  1 26  1  0  0  0  0
  2 27  1  0  0  0  0
  3 28  1  0  0  0  0
  4 29  1  0  0  0  0
  5 30  1  0  0  0  0
  6 31  1  0  0  0  0
  7 32  1  0  0  0  0
 13 33  1  0  0  0  0
 13 34  1  0  0  0  0
 14 35  1  0  0  0  0
 14 36  1  0  0  0  0
 15 37  1  0  0  0  0
 15 38  1  0  0  0  0
 15 39  1  0  0  0  0
 16 40  1  0  0  0  0
 16 41  1  0  0  0  0
 17 42  1  0  0  0  0
 18 43  1  0  0  0  0
 18 44  1  0  0  0  0
 19 45  1  0  0  0  0
M  END
> <POSIT::Probability>
0.18

> <POSIT::Method>
HYBRID

> <ReceptorTitle>
UCSF-P4661-REFINED_LIGAND-BOUND-STATE_A__DU__LA1_A-201(A)

> <OMEGA_C>
W/gswgs/A8LpncO/36stwq7k2ME0ZEk/7fMzwgRQ5sEYS8Q/oaoxwqou1MFAxDc8q/I3whea4cGY
E0I/SkMpwoQgAcJKfx+/aPsvwnLOAMLg+5A/Fyoywh8uBMIvrIy/vNAuwmr14cFCJMY/0s02wkSJ
2MEARVO7JYszwrTdAsLQ71g+UMIqwobZ/8F+0zI/aK02wss/BsKbHvm/xPc6wsxMCMIe5nm/lTc8
wk3ax8HEVOC+R4QqwkQH58FqkxhAuRI7wiaA08FYR1W/ON05wg/408GeLBDAnbMmwvgi7cEZlcg/
sko9wq84/8HckOU+zVk6wpoMCMJ2m9Y/17YgwljU/cGAOq4/er4nwosz/cFoD0pAJjI6wqh7BMJc
uwk/0AYmwtya+sFX8OY/zsUrws0hBMIqDiPAl64pwrRw1cGM+Uo//uA0wpRh7cHt1gdASb0wwj4e
zcHGHRS/bPA7wvgL5cGA0EA/Si8lwnpoAMLlunS/pDMxwjfV/8ECiwlAiUU4woPxAsKw6iLAMGA1
wg5yCcKApCfAmwY/wsbXB8JGhK6/Ejw6wrZ+DMIRHDi/IaA4wrTewsEw/gO/v0k/wvRhxMHzYou/
jqE9wh9Lx8Fuzxg/fEUowizt4MFowztAQzwswrJ/7MHf5kdA+90+wlDw18EGbDq/LvM8whe30MGi
4jHAXJ45whbD28Fs7CLA4oQjwmTn6MGgSJg/

> <OMEGA_E>
WGBPwA==

> <OMEGA_NBR>
     20316

$$$$
CACHE3HI_1702_53
  -OEChem-03092622543D

 46 48  0     1  0  0  0  0  0999 V2000
  -42.4711  -28.2160    1.4022 C   0  0  0  0  0  0  0  0  0  0  0  0
  -44.6826  -34.4286   -2.3131 C   0  0  0  0  0  0  0  0  0  0  0  0
  -45.6088  -35.4588   -2.4758 C   0  0  0  0  0  0  0  0  0  0  0  0
  -42.4169  -29.5905    1.6610 C   0  0  0  0  0  0  0  0  0  0  0  0
  -45.5880  -33.9622   -0.1222 C   0  0  0  0  0  0  0  0  0  0  0  0
  -44.7153  -29.8749    0.9210 C   0  0  0  0  0  0  0  0  0  0  0  0
  -43.6432  -27.6750    0.8939 C   0  0  0  0  0  0  0  0  0  0  0  0
  -44.6724  -33.6801   -1.1362 C   0  0  0  0  0  0  0  0  0  0  0  0
  -46.5243  -35.7409   -1.4618 C   0  0  0  0  0  0  0  0  0  0  0  0
  -46.5141  -34.9924   -0.2848 C   0  0  0  0  0  0  0  0  0  0  0  0
  -44.7371  -28.5147    0.6856 C   0  0  0  0  0  0  0  0  0  0  0  0
  -43.5308  -30.4138    1.4197 C   0  0  0  0  0  0  0  0  0  0  0  0
  -43.8893  -26.2210    0.6046 C   0  0  0  0  0  0  0  0  0  0  0  0
  -45.1010  -26.1636   -0.3350 C   0  0  0  0  0  0  0  0  0  0  0  0
  -47.5060  -36.8489   -1.6594 C   0  0  0  0  0  0  0  0  0  0  0  0
  -47.4845  -35.2759    0.8144 C   0  0  0  0  0  0  0  0  0  0  0  0
  -42.7639  -32.4046   -2.1803 C   0  0  0  0  0  0  0  0  0  0  0  0
  -43.6681  -32.5627   -0.9596 C   0  0  2  0  0  0  0  0  0  0  0  0
  -42.8712  -32.7539    0.2604 N   0  0  0  0  0  0  0  0  0  0  0  0
  -47.0037  -27.3526    1.0974 O   0  0  0  0  0  0  0  0  0  0  0  0
  -46.4711  -28.2603   -1.2247 O   0  0  0  0  0  0  0  0  0  0  0  0
  -44.7696  -32.6364    1.9981 O   0  0  0  0  0  0  0  0  0  0  0  0
  -42.3921  -32.3237    2.7533 O   0  0  0  0  0  0  0  0  0  0  0  0
  -46.0822  -27.6309    0.0184 S   0  0  0  0  0  0  0  0  0  0  0  0
  -43.4278  -32.1264    1.7490 S   0  0  0  0  0  0  0  0  0  0  0  0
  -41.6066  -27.5900    1.5991 H   0  0  0  0  0  0  0  0  0  0  0  0
  -43.9731  -34.2161   -3.1085 H   0  0  0  0  0  0  0  0  0  0  0  0
  -45.6089  -36.0364   -3.3966 H   0  0  0  0  0  0  0  0  0  0  0  0
  -41.4978  -30.0176    2.0552 H   0  0  0  0  0  0  0  0  0  0  0  0
  -45.5789  -33.3780    0.7951 H   0  0  0  0  0  0  0  0  0  0  0  0
  -45.5827  -30.4953    0.7257 H   0  0  0  0  0  0  0  0  0  0  0  0
  -44.1180  -25.7080    1.5457 H   0  0  0  0  0  0  0  0  0  0  0  0
  -43.0202  -25.7416    0.1436 H   0  0  0  0  0  0  0  0  0  0  0  0
  -45.7068  -25.2660   -0.1949 H   0  0  0  0  0  0  0  0  0  0  0  0
  -44.7813  -26.2363   -1.3800 H   0  0  0  0  0  0  0  0  0  0  0  0
  -47.1048  -37.8039   -1.2978 H   0  0  0  0  0  0  0  0  0  0  0  0
  -47.7427  -36.9837   -2.7223 H   0  0  0  0  0  0  0  0  0  0  0  0
  -48.4354  -36.6338   -1.1192 H   0  0  0  0  0  0  0  0  0  0  0  0
  -48.4045  -34.6906    0.6925 H   0  0  0  0  0  0  0  0  0  0  0  0
  -47.0640  -35.0101    1.7925 H   0  0  0  0  0  0  0  0  0  0  0  0
  -47.7466  -36.3403    0.8247 H   0  0  0  0  0  0  0  0  0  0  0  0
  -42.1979  -33.3185   -2.3913 H   0  0  0  0  0  0  0  0  0  0  0  0
  -43.3478  -32.1564   -3.0739 H   0  0  0  0  0  0  0  0  0  0  0  0
  -42.0345  -31.6029   -2.0180 H   0  0  0  0  0  0  0  0  0  0  0  0
  -44.1992  -31.6150   -0.8109 H   0  0  0  0  0  0  0  0  0  0  0  0
  -41.8612  -32.8828    0.1241 H   0  0  0  0  0  0  0  0  0  0  0  0
  1  4  2  0  0  0  0
  1  7  1  0  0  0  0
  2  3  2  0  0  0  0
  2  8  1  0  0  0  0
  3  9  1  0  0  0  0
  4 12  1  0  0  0  0
  5  8  2  0  0  0  0
  5 10  1  0  0  0  0
  6 11  1  0  0  0  0
  6 12  2  0  0  0  0
  7 11  2  0  0  0  0
  7 13  1  0  0  0  0
  8 18  1  0  0  0  0
  9 10  2  0  0  0  0
  9 15  1  0  0  0  0
 10 16  1  0  0  0  0
 11 24  1  0  0  0  0
 12 25  1  0  0  0  0
 13 14  1  0  0  0  0
 14 24  1  0  0  0  0
 17 18  1  0  0  0  0
 18 19  1  0  0  0  0
 19 25  1  0  0  0  0
 20 24  2  0  0  0  0
 21 24  2  0  0  0  0
 22 25  2  0  0  0  0
 23 25  2  0  0  0  0
  1 26  1  0  0  0  0
  2 27  1  0  0  0  0
  3 28  1  0  0  0  0
  4 29  1  0  0  0  0
  5 30  1  0  0  0  0
  6 31  1  0  0  0  0
 13 32  1  0  0  0  0
 13 33  1  0  0  0  0
 14 34  1  0  0  0  0
 14 35  1  0  0  0  0
 15 36  1  0  0  0  0
 15 37  1  0  0  0  0
 15 38  1  0  0  0  0
 16 39  1  0  0  0  0
 16 40  1  0  0  0  0
 16 41  1  0  0  0  0
 17 42  1  0  0  0  0
 17 43  1  0  0  0  0
 17 44  1  0  0  0  0
 18 45  1  0  0  0  0
 19 46  1  0  0  0  0
M  END
> <POSIT::Probability>
0.33

> <POSIT::Method>
HYBRID

> <ReceptorTitle>
UCSF-P4661-REFINED_LIGAND-BOUND-STATE_A__DU__LA1_A-201(A)

> <OMEGA_C>
XOIpwni64cE+fLM/Bbsywte2CcKeChTAZW82wtrVDcIudB7A7aopwnK57MGMmtQ/Elo2wkbZB8LA
Lvq9btwywrT/7sEwyGs/pZIuwlxm3cHw2GQ/k7Aywnm4BsLIbpG/5Bg6wqn2DsJ8HLu/bg46wj74
C8JQ05G+w/IywjIe5MHYgi8/lB8uwoVP88EgurU/n44vwpvE0cEQyRo/a2c0wghP0cFAgau+HwY+
wkFlE8JoZtS/GfA9wnwaDcKgf1A/RA4rwlCeAcKIiQvAH6wuwjFAAsKgqHW/JHwrwvMDA8JQWYU+
wQM8wjrS2sHeeIw/bOI5whYV4sGowpy/CRQzwriLAsLEwf8/f5EpwnVLAcL5NTBAK1Q4wggM3cEA
+5Y8CbYtwnmBAMLI3d8/HW0mwmO43MFqrsw/euQvwlPdCML28EbAj282wkElEMIsYVnAwf0lwgsk
8MEjiQNAy1A2whODBcK8jks/rFQ2wnr288GAxjk/1Hgwwu6pzcF22MU/tBQswtjuzcEAFRM+u9M2
wtIgysFwike+GiAzwvbj0cH4orC/RWs8wio3F8I4Haa/i/g+wlLvE8LSOi7A0r1BwvaIEsKEQo+/
MJ5BwjnDCsLYRzE/gkE8wlIKDMIUcuU/hfw+wnVcEcIAHVM/m8oowiJGBcJ6CxnALmQtwiGgAMKw
ukTAUCMowqzS/MH0JgHA+8swwozr/ME4lU+/4nEnwv6HA8LAKf49

> <OMEGA_E>
+XNQwA==

> <OMEGA_NBR>
     21732

$$$$
CACHE3HI_1702_58
  -OEChem-03092622543D

 35 36  0     0  0  0  0  0  0999 V2000
  -45.6856  -34.8861   -2.8000 C   0  0  0  0  0  0  0  0  0  0  0  0
  -46.7250  -35.3238   -1.9625 C   0  0  0  0  0  0  0  0  0  0  0  0
  -44.6803  -34.0434   -2.2935 C   0  0  0  0  0  0  0  0  0  0  0  0
  -46.7568  -34.9221   -0.6153 C   0  0  0  0  0  0  0  0  0  0  0  0
  -45.0558  -29.4017    1.1567 C   0  0  0  0  0  0  0  0  0  0  0  0
  -43.0943  -27.9723    0.9423 C   0  0  0  0  0  0  0  0  0  0  0  0
  -44.6919  -33.6259   -0.9363 C   0  0  0  0  0  0  0  0  0  0  0  0
  -45.2122  -27.2970   -0.0859 C   0  0  0  0  0  0  0  0  0  0  0  0
  -45.7526  -34.0800   -0.0934 C   0  0  0  0  0  0  0  0  0  0  0  0
  -43.6938  -29.1550    1.4199 C   0  0  0  0  0  0  0  0  0  0  0  0
  -45.8181  -28.4761    0.4186 C   0  0  0  0  0  0  0  0  0  0  0  0
  -43.8481  -27.0407    0.2036 C   0  0  0  0  0  0  0  0  0  0  0  0
  -43.5916  -32.7342   -0.4533 C   0  0  0  0  0  0  0  0  0  0  0  0
  -46.0373  -26.2750   -0.8579 C   0  0  0  0  0  0  0  0  0  0  0  0
  -43.4074  -32.4587    0.8962 N   0  0  0  0  0  0  0  0  0  0  0  0
  -42.3409  -31.6512    1.3508 N   0  0  0  0  0  0  0  0  0  0  0  0
  -42.8001  -32.2561   -1.2608 O   0  0  0  0  0  0  0  0  0  0  0  0
  -41.4548  -29.7189    2.7501 O   0  0  0  0  0  0  0  0  0  0  0  0
  -43.6114  -30.8832    3.4417 O   0  0  0  0  0  0  0  0  0  0  0  0
  -45.8481  -33.7223    1.2165 O   0  0  0  0  0  0  0  0  0  0  0  0
  -42.7304  -30.3528    2.3914 S   0  0  0  0  0  0  0  0  0  0  0  0
  -47.5175  -28.8079    0.1545 Cl  0  0  0  0  0  0  0  0  0  0  0  0
  -43.0709  -25.5637   -0.3274 Cl  0  0  0  0  0  0  0  0  0  0  0  0
  -45.6586  -35.1970   -3.8339 H   0  0  0  0  0  0  0  0  0  0  0  0
  -47.4988  -35.9682   -2.3529 H   0  0  0  0  0  0  0  0  0  0  0  0
  -43.8877  -33.7088   -2.9463 H   0  0  0  0  0  0  0  0  0  0  0  0
  -47.5572  -35.2613    0.0256 H   0  0  0  0  0  0  0  0  0  0  0  0
  -45.5180  -30.3063    1.5234 H   0  0  0  0  0  0  0  0  0  0  0  0
  -42.0509  -27.7796    1.1442 H   0  0  0  0  0  0  0  0  0  0  0  0
  -46.4833  -25.5564   -0.1546 H   0  0  0  0  0  0  0  0  0  0  0  0
  -45.3881  -25.7396   -1.5664 H   0  0  0  0  0  0  0  0  0  0  0  0
  -46.8362  -26.7910   -1.4106 H   0  0  0  0  0  0  0  0  0  0  0  0
  -44.0464  -32.8420    1.5631 H   0  0  0  0  0  0  0  0  0  0  0  0
  -41.7007  -32.2451    1.8380 H   0  0  0  0  0  0  0  0  0  0  0  0
  -45.1184  -33.1587    1.4454 H   0  0  0  0  0  0  0  0  0  0  0  0
  1  2  1  0  0  0  0
  1  3  2  0  0  0  0
  2  4  2  0  0  0  0
  3  7  1  0  0  0  0
  4  9  1  0  0  0  0
  5 10  1  0  0  0  0
  5 11  2  0  0  0  0
  6 10  2  0  0  0  0
  6 12  1  0  0  0  0
  7  9  2  0  0  0  0
  7 13  1  0  0  0  0
  8 11  1  0  0  0  0
  8 12  2  0  0  0  0
  8 14  1  0  0  0  0
  9 20  1  0  0  0  0
 10 21  1  0  0  0  0
 11 22  1  0  0  0  0
 12 23  1  0  0  0  0
 13 15  1  0  0  0  0
 13 17  2  0  0  0  0
 15 16  1  0  0  0  0
 16 21  1  0  0  0  0
 18 21  2  0  0  0  0
 19 21  2  0  0  0  0
  1 24  1  0  0  0  0
  2 25  1  0  0  0  0
  3 26  1  0  0  0  0
  4 27  1  0  0  0  0
  5 28  1  0  0  0  0
  6 29  1  0  0  0  0
 14 30  1  0  0  0  0
 14 31  1  0  0  0  0
 14 32  1  0  0  0  0
 15 33  1  0  0  0  0
 16 34  1  0  0  0  0
 20 35  1  0  0  0  0
M  END
> <POSIT::Probability>
0.99

> <POSIT::Method>
SHAPEFIT

> <ReceptorTitle>
UCSF-P4661-REFINED_LIGAND-BOUND-STATE_A__DU__LA1_A-201(A)

> <OMEGA_C>
Fb42wlKLC8KSMjPAYeY6wpZLDcK1Mvu/qLgywmksCMIhyBLA9AY7wjywC8Ksgx2/JTk0wp4268HV
D5Q/hGAswjfH38G8PXE/jsQywuGABsKMtG+/U9k0wk5g2sEkA7C9sAI3wvVRCMKQUb+9ecYuwmo9
6cFyv7U/vEU3wvvO48F/TdY+emQvwm5T2MEzh1A+wF0uwsfvAsI3Fei+LCY4wi0z0sHSoFu/KaEt
wrLVAcJccGU/DF0pwpY1/cE656w/QTMrwjQGAcLfYKG/stElwlHA7cFAATBAC3IuwskQ98EFRFxA
gWQ3wpbjBsLot5s/9OsqwqHS8sH3CxlA+BE+wpN25sHrOh4+mEgswnuCzMFLoKe+cKI2wsDJDMIq
XnXAwP49wm/fD8KHlRbAAI0vwsnVBsL6jzzAjzo+wpYLDcIqc9E8bBI2wkBz8sEYAMM/JTQowp88
3sHhdJI/6u45woxzzMHdRh6+YY01wsfqzcFlf8i/QVg7wvVT1sF0j7S/iC8wwjteA8KRE8g/fc0m
wgD7AMIZROs/N3k0woqiBMLJArk/

> <OMEGA_E>
wHIDPQ==

> <OMEGA_NBR>
     22948

$$$$
CACHE3HI_1702_72
  -OEChem-03092622543D

 35 37  0     0  0  0  0  0  0999 V2000
  -48.5358  -35.4824    0.5690 C   0  0  0  0  0  0  0  0  0  0  0  0
  -48.2630  -35.9055   -0.7318 C   0  0  0  0  0  0  0  0  0  0  0  0
  -42.5749  -29.9634    1.8729 C   0  0  0  0  0  0  0  0  0  0  0  0
  -42.3022  -28.6320    1.5484 C   0  0  0  0  0  0  0  0  0  0  0  0
  -47.5570  -34.8134    1.3039 C   0  0  0  0  0  0  0  0  0  0  0  0
  -47.0120  -35.6595   -1.2979 C   0  0  0  0  0  0  0  0  0  0  0  0
  -44.8593  -29.7640    1.0273 C   0  0  0  0  0  0  0  0  0  0  0  0
  -43.8427  -30.5249    1.6144 C   0  0  0  0  0  0  0  0  0  0  0  0
  -43.3258  -27.9145    0.9733 C   0  0  0  0  0  0  0  0  0  0  0  0
  -46.3060  -34.5674    0.7378 C   0  0  0  0  0  0  0  0  0  0  0  0
  -44.5680  -28.4535    0.7168 C   0  0  0  0  0  0  0  0  0  0  0  0
  -46.0332  -34.9905   -0.5630 C   0  0  0  0  0  0  0  0  0  0  0  0
  -44.6416  -26.3815    0.0438 C   0  0  0  0  0  0  0  0  0  0  0  0
  -44.0957  -31.9148    1.9616 C   0  0  0  0  0  0  0  0  0  0  0  0
  -44.7733  -33.9793   -2.3239 C   0  0  0  0  0  0  0  0  0  0  0  0
  -43.3728  -26.6131    0.5501 N   0  0  0  0  0  0  0  0  0  0  0  0
  -45.3333  -33.8937    1.4868 N   0  0  0  0  0  0  0  0  0  0  0  0
  -45.0657  -32.5820    1.2128 N   0  0  0  0  0  0  0  0  0  0  0  0
  -45.0548  -25.3290   -0.4265 O   0  0  0  0  0  0  0  0  0  0  0  0
  -43.4571  -32.4653    2.8764 O   0  0  0  0  0  0  0  0  0  0  0  0
  -45.4340  -27.5405    0.1350 O   0  0  0  0  0  0  0  0  0  0  0  0
  -44.8181  -34.7585   -1.1348 O   0  0  0  0  0  0  0  0  0  0  0  0
  -45.2758  -32.7438   -2.1156 F   0  0  0  0  0  0  0  0  0  0  0  0
  -45.4434  -34.5847   -3.3277 F   0  0  0  0  0  0  0  0  0  0  0  0
  -43.4830  -33.8448   -2.7060 F   0  0  0  0  0  0  0  0  0  0  0  0
  -49.5093  -35.6744    1.0105 H   0  0  0  0  0  0  0  0  0  0  0  0
  -49.0250  -36.4272   -1.3034 H   0  0  0  0  0  0  0  0  0  0  0  0
  -41.7936  -30.5670    2.3297 H   0  0  0  0  0  0  0  0  0  0  0  0
  -41.3306  -28.1946    1.7442 H   0  0  0  0  0  0  0  0  0  0  0  0
  -47.7798  -34.4889    2.3172 H   0  0  0  0  0  0  0  0  0  0  0  0
  -46.8067  -35.9917   -2.3120 H   0  0  0  0  0  0  0  0  0  0  0  0
  -45.8379  -30.1843    0.8238 H   0  0  0  0  0  0  0  0  0  0  0  0
  -42.6109  -25.9486    0.6030 H   0  0  0  0  0  0  0  0  0  0  0  0
  -44.6820  -34.3982    2.0737 H   0  0  0  0  0  0  0  0  0  0  0  0
  -45.5658  -32.0996    0.4746 H   0  0  0  0  0  0  0  0  0  0  0  0
  1  2  1  0  0  0  0
  1  5  2  0  0  0  0
  2  6  2  0  0  0  0
  3  4  2  0  0  0  0
  3  8  1  0  0  0  0
  4  9  1  0  0  0  0
  5 10  1  0  0  0  0
  6 12  1  0  0  0  0
  7  8  2  0  0  0  0
  7 11  1  0  0  0  0
  8 14  1  0  0  0  0
  9 11  2  0  0  0  0
  9 16  1  0  0  0  0
 10 12  2  0  0  0  0
 10 17  1  0  0  0  0
 11 21  1  0  0  0  0
 12 22  1  0  0  0  0
 13 16  1  0  0  0  0
 13 19  2  0  0  0  0
 13 21  1  0  0  0  0
 14 18  1  0  0  0  0
 14 20  2  0  0  0  0
 15 22  1  0  0  0  0
 15 23  1  0  0  0  0
 15 24  1  0  0  0  0
 15 25  1  0  0  0  0
 17 18  1  0  0  0  0
  1 26  1  0  0  0  0
  2 27  1  0  0  0  0
  3 28  1  0  0  0  0
  4 29  1  0  0  0  0
  5 30  1  0  0  0  0
  6 31  1  0  0  0  0
  7 32  1  0  0  0  0
 16 33  1  0  0  0  0
 17 34  1  0  0  0  0
 18 35  1  0  0  0  0
M  END
> <POSIT::Probability>
0.18

> <POSIT::Method>
HYBRID

> <ReceptorTitle>
UCSF-P4661-REFINED_LIGAND-BOUND-STATE_A__DU__LA1_A-201(A)

> <OMEGA_C>
oyRCwu/tDcKkrBE/WQ1BwjKfD8IYWju/rUwqwhS178HQvO8/aDUpwkAO5cGKMMY/YDo+wu9AC8IK
5aY/TAw8wlGjDsLRIaa/8G8zwqoc7sEffoM/4F4vwucy9MEapc4/lk0twuxQ38HUKnk/Ujk5wg9F
CsJ+4Dw/rkUywtqg48GagTc/BCI4wkr2C8ICIxC/85AywjYN08FASjM9AmIwwoxR/8FAFvs/3Bcz
ws/qB8J8uxTAt30twonn1MFi0Qw/QFU1wi6TB8JGTr4/SkM0wu5TAsLWO5s/Izg0wtGhysFaYdq+
C9QtwoLcAcLrFjhAZ7w1wtxS3MG4MQo+wEUzwsAIC8KoQZG/aBo1wqj5AsKsZgfAEsY1wsdWCsJr
+VTAku4twhlhB8JBLy3AgAlGwouyDsJ0WYE/lBlEwm+1EcJT1Ka/nSwnwiSJ9MG0GRVAglIlwpOO
4cHaQd8/gx4/wpn0CcLSTRRADzo7wn/3D8JY9xPADVo3wnd58cE64lI/lXEqwrGWz8EmXRo/Wboy
wsyXCcIqtwRAXkM2wvFlAMLs/PI+

> <OMEGA_E>
Wh40wA==

> <OMEGA_NBR>
     24143

$$$$
CACHE3HI_1702_73
  -OEChem-03092622543D

 45 47  0     1  0  0  0  0  0999 V2000
  -43.1579  -27.0714    0.6049 C   0  0  0  0  0  0  0  0  0  0  0  0
  -42.6212  -28.2664    1.0988 C   0  0  0  0  0  0  0  0  0  0  0  0
  -44.8245  -29.2905    1.1658 C   0  0  0  0  0  0  0  0  0  0  0  0
  -44.5273  -26.9849    0.4015 C   0  0  0  0  0  0  0  0  0  0  0  0
  -45.3190  -28.1013    0.6694 C   0  0  0  0  0  0  0  0  0  0  0  0
  -43.4493  -29.3669    1.3789 C   0  0  0  0  0  0  0  0  0  0  0  0
  -45.2609  -25.8018   -0.1648 C   0  0  0  0  0  0  0  0  0  0  0  0
  -44.8761  -34.8010   -2.6716 C   0  0  0  0  0  0  0  0  0  0  0  0
  -45.3630  -35.7579   -1.5918 C   0  0  0  0  0  0  0  0  0  0  0  0
  -45.2580  -33.4133   -2.1762 C   0  0  0  0  0  0  0  0  0  0  0  0
  -45.9978  -34.8708   -0.5302 C   0  0  0  0  0  0  0  0  0  0  0  0
  -46.7365  -25.9831    0.2140 C   0  0  0  0  0  0  0  0  0  0  0  0
  -44.3316  -33.5943    1.4773 C   0  0  0  0  0  0  0  0  0  0  0  0
  -43.4684  -32.0631   -0.3613 C   0  0  0  0  0  0  0  0  0  0  0  0
  -44.1442  -33.3940   -0.0233 C   0  0  2  0  0  0  0  0  0  0  0  0
  -45.4232  -33.5320   -0.7208 N   0  0  0  0  0  0  0  0  0  0  0  0
  -42.3893  -31.7076    0.5710 N   0  0  0  0  0  0  0  0  0  0  0  0
  -47.7431  -28.0257    1.5847 O   0  0  0  0  0  0  0  0  0  0  0  0
  -47.3436  -28.3158   -0.9167 O   0  0  0  0  0  0  0  0  0  0  0  0
  -43.7691  -31.5686    2.7421 O   0  0  0  0  0  0  0  0  0  0  0  0
  -41.4974  -30.4948    2.6597 O   0  0  0  0  0  0  0  0  0  0  0  0
  -47.0009  -27.7569    0.3727 S   0  0  0  0  0  0  0  0  0  0  0  0
  -42.7480  -30.8417    1.9995 S   0  0  0  0  0  0  0  0  0  0  0  0
  -42.5067  -26.2307    0.3876 H   0  0  0  0  0  0  0  0  0  0  0  0
  -41.5487  -28.3334    1.2664 H   0  0  0  0  0  0  0  0  0  0  0  0
  -45.4788  -30.1282    1.3802 H   0  0  0  0  0  0  0  0  0  0  0  0
  -44.8640  -24.8887    0.2932 H   0  0  0  0  0  0  0  0  0  0  0  0
  -45.1470  -25.7300   -1.2509 H   0  0  0  0  0  0  0  0  0  0  0  0
  -43.7962  -34.8853   -2.8334 H   0  0  0  0  0  0  0  0  0  0  0  0
  -45.3764  -35.0260   -3.6213 H   0  0  0  0  0  0  0  0  0  0  0  0
  -46.1027  -36.4493   -2.0134 H   0  0  0  0  0  0  0  0  0  0  0  0
  -44.5440  -36.3553   -1.1775 H   0  0  0  0  0  0  0  0  0  0  0  0
  -44.4533  -32.6955   -2.4298 H   0  0  0  0  0  0  0  0  0  0  0  0
  -46.1815  -33.0516   -2.6640 H   0  0  0  0  0  0  0  0  0  0  0  0
  -47.0997  -34.8595   -0.6211 H   0  0  0  0  0  0  0  0  0  0  0  0
  -45.7591  -35.2686    0.4761 H   0  0  0  0  0  0  0  0  0  0  0  0
  -47.0021  -25.4808    1.1463 H   0  0  0  0  0  0  0  0  0  0  0  0
  -47.3872  -25.6338   -0.5946 H   0  0  0  0  0  0  0  0  0  0  0  0
  -44.9639  -32.8032    1.8942 H   0  0  0  0  0  0  0  0  0  0  0  0
  -43.3766  -33.5601    2.0126 H   0  0  0  0  0  0  0  0  0  0  0  0
  -44.8105  -34.5559    1.6872 H   0  0  0  0  0  0  0  0  0  0  0  0
  -43.0333  -32.0947   -1.3660 H   0  0  0  0  0  0  0  0  0  0  0  0
  -44.1956  -31.2441   -0.3329 H   0  0  0  0  0  0  0  0  0  0  0  0
  -43.5083  -34.2024   -0.4018 H   0  0  0  0  0  0  0  0  0  0  0  0
  -41.4503  -31.6227    0.1631 H   0  0  0  0  0  0  0  0  0  0  0  0
  1  2  2  0  0  0  0
  1  4  1  0  0  0  0
  2  6  1  0  0  0  0
  3  5  1  0  0  0  0
  3  6  2  0  0  0  0
  4  5  2  0  0  0  0
  4  7  1  0  0  0  0
  5 22  1  0  0  0  0
  6 23  1  0  0  0  0
  7 12  1  0  0  0  0
  8  9  1  0  0  0  0
  8 10  1  0  0  0  0
  9 11  1  0  0  0  0
 10 16  1  0  0  0  0
 11 16  1  0  0  0  0
 12 22  1  0  0  0  0
 13 15  1  0  0  0  0
 14 15  1  0  0  0  0
 14 17  1  0  0  0  0
 15 16  1  0  0  0  0
 17 23  1  0  0  0  0
 18 22  2  0  0  0  0
 19 22  2  0  0  0  0
 20 23  2  0  0  0  0
 21 23  2  0  0  0  0
  1 24  1  0  0  0  0
  2 25  1  0  0  0  0
  3 26  1  0  0  0  0
  7 27  1  0  0  0  0
  7 28  1  0  0  0  0
  8 29  1  0  0  0  0
  8 30  1  0  0  0  0
  9 31  1  0  0  0  0
  9 32  1  0  0  0  0
 10 33  1  0  0  0  0
 10 34  1  0  0  0  0
 11 35  1  0  0  0  0
 11 36  1  0  0  0  0
 12 37  1  0  0  0  0
 12 38  1  0  0  0  0
 13 39  1  0  0  0  0
 13 40  1  0  0  0  0
 13 41  1  0  0  0  0
 14 42  1  0  0  0  0
 14 43  1  0  0  0  0
 15 44  1  0  0  0  0
 17 45  1  0  0  0  0
M  END
> <POSIT::Probability>
0.42

> <POSIT::Method>
HYBRID

> <ReceptorTitle>
UCSF-P4661-REFINED_LIGAND-BOUND-STATE_A__DU__LA1_A-201(A)

> <OMEGA_C>
qaEswj6S2MFU2Bo/HXwqwqMh4sH8pow/QUwzwtpS6sFCOpU/6BsywhTh18F4jM0+m0Y1wnLP4MHc
Wis/FMwtwmzv6sEGgLA/Iws1wiVqzsGAwii+HoEzwkQ0C8Ir+yrAsXM1whAID8JwwMu/PAg1wjqn
BcL1RgvAwv03wqd7C8JQvge/NPI6wn3dz8HwLFs+lFMxwpBgBsKRGL0/pN8twqlAAMIYALm+opMw
wmqTBcKA0r68ZbE1wr4gBsKoiDi/sI4pwjap/cEELxI/9/g+wpw04MG82Mo/5V89wrqG4sE8q2q/
mRMvwnuM/ME+fy9AXP0lwlz188EqOCpA5QA8wjAO3sFg1b4+AP4qwre79sET7/8/0AYqwnrY0cGo
dsY+3TEmwsaq4sFTGaI/U+o1wnsG8cFQqbA/xXQzwvkbx8EQGZY+jpY0wg3XzcH8G6C/Vi8vwpeK
C8IYVzXAYoE1wqwaDMI2w2fAH2k4wh3MEcLu2gDAEi0yws1rEcJeuJa/KdAxwirIAsJ5ghvA37k4
ws00BMLAfyrADmY8whxwC8Jk/h6/Uwk3whQTDcL4x/M+MgI8wq3Yy8EIupI/g4w9wvIRzcFANhi/
BtszwoA2A8KWdvI/p4Etwo09BsLfzgBA8D0zwkc5CsJ699c/EiIswgBhAMKY166/S8gwwtzz+cEo
eKq+gwguwkXPCMI4tc2+Ic0lwlD7/MFADSc+

> <OMEGA_E>
OcWUwA==

> <OMEGA_NBR>
     25543

$$$$
CACHE3HI_1702_74
  -OEChem-03092622543D

 35 36  0     0  0  0  0  0  0999 V2000
  -43.9931  -28.5854    1.4267 C   0  0  0  0  0  0  0  0  0  0  0  0
  -45.2454  -28.7945    2.0045 C   0  0  0  0  0  0  0  0  0  0  0  0
  -49.8314  -29.7162    3.9085 C   0  0  0  0  0  0  0  0  0  0  0  0
  -48.4676  -29.1773    5.8286 C   0  0  0  0  0  0  0  0  0  0  0  0
  -50.9698  -29.7043    4.7145 C   0  0  0  0  0  0  0  0  0  0  0  0
  -49.6059  -29.1653    6.6346 C   0  0  0  0  0  0  0  0  0  0  0  0
  -43.3715  -29.6145    0.7195 C   0  0  0  0  0  0  0  0  0  0  0  0
  -45.8760  -30.0320    1.8750 C   0  0  0  0  0  0  0  0  0  0  0  0
  -45.2543  -31.0610    1.1677 C   0  0  0  0  0  0  0  0  0  0  0  0
  -48.5803  -29.4525    4.4657 C   0  0  0  0  0  0  0  0  0  0  0  0
  -50.8571  -29.4290    6.0774 C   0  0  0  0  0  0  0  0  0  0  0  0
  -44.0021  -30.8520    0.5900 C   0  0  0  0  0  0  0  0  0  0  0  0
  -47.1831  -30.2172    2.4911 C   0  0  0  0  0  0  0  0  0  0  0  0
  -52.9013  -30.4628    7.1285 C   0  0  0  0  0  0  0  0  0  0  0  0
  -45.9424  -32.3844    1.0361 C   0  0  0  0  0  0  0  0  0  0  0  0
  -52.5210  -31.2216    8.2266 N   0  0  0  0  0  0  0  0  0  0  0  0
  -47.4241  -29.4637    3.6472 N   0  0  0  0  0  0  0  0  0  0  0  0
  -51.9960  -29.4179    6.8832 N   0  0  0  0  0  0  0  0  0  0  0  0
  -47.9777  -31.0243    1.9848 O   0  0  0  0  0  0  0  0  0  0  0  0
  -53.9167  -30.7226    6.4886 O   0  0  0  0  0  0  0  0  0  0  0  0
  -43.1993  -32.0982   -0.2953 Cl  0  0  0  0  0  0  0  0  0  0  0  0
  -43.5034  -27.6213    1.5269 H   0  0  0  0  0  0  0  0  0  0  0  0
  -45.7201  -27.9842    2.5522 H   0  0  0  0  0  0  0  0  0  0  0  0
  -49.9312  -29.9307    2.8474 H   0  0  0  0  0  0  0  0  0  0  0  0
  -47.4976  -28.9718    6.2740 H   0  0  0  0  0  0  0  0  0  0  0  0
  -51.9399  -29.9107    4.2695 H   0  0  0  0  0  0  0  0  0  0  0  0
  -49.5062  -28.9493    7.6954 H   0  0  0  0  0  0  0  0  0  0  0  0
  -42.3959  -29.4351    0.2746 H   0  0  0  0  0  0  0  0  0  0  0  0
  -46.5732  -32.4121    0.1406 H   0  0  0  0  0  0  0  0  0  0  0  0
  -46.5943  -32.5749    1.8962 H   0  0  0  0  0  0  0  0  0  0  0  0
  -45.2019  -33.1883    0.9704 H   0  0  0  0  0  0  0  0  0  0  0  0
  -51.6758  -30.9787    8.7323 H   0  0  0  0  0  0  0  0  0  0  0  0
  -53.0746  -32.0155    8.5321 H   0  0  0  0  0  0  0  0  0  0  0  0
  -46.6710  -28.8439    3.9365 H   0  0  0  0  0  0  0  0  0  0  0  0
  -52.2118  -28.5396    7.3655 H   0  0  0  0  0  0  0  0  0  0  0  0
  1  2  1  0  0  0  0
  1  7  2  0  0  0  0
  2  8  2  0  0  0  0
  3  5  2  0  0  0  0
  3 10  1  0  0  0  0
  4  6  1  0  0  0  0
  4 10  2  0  0  0  0
  5 11  1  0  0  0  0
  6 11  2  0  0  0  0
  7 12  1  0  0  0  0
  8  9  1  0  0  0  0
  8 13  1  0  0  0  0
  9 12  2  0  0  0  0
  9 15  1  0  0  0  0
 10 17  1  0  0  0  0
 11 18  1  0  0  0  0
 12 21  1  0  0  0  0
 13 17  1  0  0  0  0
 13 19  2  0  0  0  0
 14 16  1  0  0  0  0
 14 18  1  0  0  0  0
 14 20  2  0  0  0  0
  1 22  1  0  0  0  0
  2 23  1  0  0  0  0
  3 24  1  0  0  0  0
  4 25  1  0  0  0  0
  5 26  1  0  0  0  0
  6 27  1  0  0  0  0
  7 28  1  0  0  0  0
 15 29  1  0  0  0  0
 15 30  1  0  0  0  0
 15 31  1  0  0  0  0
 16 32  1  0  0  0  0
 16 33  1  0  0  0  0
 17 34  1  0  0  0  0
 18 35  1  0  0  0  0
M  END
> <POSIT::Probability>
0.02

> <POSIT::Method>
FRED

> <ReceptorTitle>
UCSF-P4661-REFINED_LIGAND-BOUND-STATE_A__DU__LA1_A-201(A)

> <OMEGA_C>
9/gvwv2u5MGcnrY/Svs0wgxb5sHwSQBAZVNHwt267cFYJHpAyN5BwgNr6cHeg7pAFeFLwmCi7cEZ
3ZZAamxGwoFS6cHITtRAaHwtwmzq7MF4Mjg/DYE3wo1B8MGo/u8/bwQ1wgZ9+ME8eJU/M1JCws+e
68Hy5o5Aq21LwpRu68EHesJAKgIwwuzQ9sEACBc/fLs8wuC88cHebR9A75pTwtaz88ENHeRACsU3
wquJAcKEn4Q/hxVSwuLF+cFVoANBTrI9wqK168H0amlA5PtPwstX68HoQtxAKOk/wtYx+MFkD/4/
sqpXwtTH9cHHos9ADswswo5kAMIANJe+eQMuwoD43MHocMM/ZOE2wpzf38HUVyNAjLlHwgpy78FK
PDZAh/09wibG58HzxMhAbsJPwh5J78HXn4hAZgZGwiuY58F1QPZAYpUpwid768HQnIw+AUs6wvel
AcJg+w8+mGA6wrtMAsLItvI/vc40wsnABMIwang/BLROwlzU98F+twtBV0xUwuQPAMKIgwhBFa86
wkrA5sGq73tA6dhQwgZR5MEMsutA

> <OMEGA_E>
7P3gwA==

> <OMEGA_NBR>
     26730

$$$$
CACHE3HI_1702_75
  -OEChem-03092622543D

 39 40  0     0  0  0  0  0  0999 V2000
  -43.3185  -29.1964    1.5209 C   0  0  0  0  0  0  0  0  0  0  0  0
  -44.5640  -29.1542    2.1476 C   0  0  0  0  0  0  0  0  0  0  0  0
  -47.6549  -29.1628    6.0967 C   0  0  0  0  0  0  0  0  0  0  0  0
  -48.7280  -28.9645    6.9654 C   0  0  0  0  0  0  0  0  0  0  0  0
  -42.9988  -30.2597    0.6769 C   0  0  0  0  0  0  0  0  0  0  0  0
  -49.1719  -29.1274    4.2165 C   0  0  0  0  0  0  0  0  0  0  0  0
  -45.4897  -30.1749    1.9301 C   0  0  0  0  0  0  0  0  0  0  0  0
  -45.1699  -31.2383    1.0859 C   0  0  0  0  0  0  0  0  0  0  0  0
  -47.8770  -29.2444    4.7221 C   0  0  0  0  0  0  0  0  0  0  0  0
  -50.0229  -28.8475    6.4598 C   0  0  0  0  0  0  0  0  0  0  0  0
  -50.2450  -28.9291    5.0852 C   0  0  0  0  0  0  0  0  0  0  0  0
  -43.9245  -31.2805    0.4593 C   0  0  0  0  0  0  0  0  0  0  0  0
  -46.7810  -30.1007    2.6005 C   0  0  0  0  0  0  0  0  0  0  0  0
  -52.2142  -29.4576    7.5453 C   0  0  0  0  0  0  0  0  0  0  0  0
  -46.1728  -32.3272    0.8610 C   0  0  0  0  0  0  0  0  0  0  0  0
  -51.6331  -28.9133    3.1539 C   0  0  0  0  0  0  0  0  0  0  0  0
  -51.9896  -30.4074    8.5320 N   0  0  0  0  0  0  0  0  0  0  0  0
  -46.7876  -29.4474    3.8396 N   0  0  0  0  0  0  0  0  0  0  0  0
  -51.0866  -28.6475    7.3428 N   0  0  0  0  0  0  0  0  0  0  0  0
  -47.7689  -30.6239    2.0625 O   0  0  0  0  0  0  0  0  0  0  0  0
  -53.2895  -29.3846    6.9567 O   0  0  0  0  0  0  0  0  0  0  0  0
  -51.5023  -28.8173    4.5708 O   0  0  0  0  0  0  0  0  0  0  0  0
  -43.4898  -32.5773   -0.5945 Cl  0  0  0  0  0  0  0  0  0  0  0  0
  -42.5989  -28.4007    1.6898 H   0  0  0  0  0  0  0  0  0  0  0  0
  -44.8018  -28.3195    2.8023 H   0  0  0  0  0  0  0  0  0  0  0  0
  -46.6501  -29.2523    6.5019 H   0  0  0  0  0  0  0  0  0  0  0  0
  -48.5425  -28.9016    8.0348 H   0  0  0  0  0  0  0  0  0  0  0  0
  -42.0242  -30.2773    0.1956 H   0  0  0  0  0  0  0  0  0  0  0  0
  -49.3491  -29.1902    3.1451 H   0  0  0  0  0  0  0  0  0  0  0  0
  -46.8185  -32.0965    0.0063 H   0  0  0  0  0  0  0  0  0  0  0  0
  -46.8239  -32.4474    1.7343 H   0  0  0  0  0  0  0  0  0  0  0  0
  -45.6610  -33.2761    0.6698 H   0  0  0  0  0  0  0  0  0  0  0  0
  -52.6849  -28.8077    2.8759 H   0  0  0  0  0  0  0  0  0  0  0  0
  -51.0533  -28.1128    2.6881 H   0  0  0  0  0  0  0  0  0  0  0  0
  -51.2515  -29.8797    2.8166 H   0  0  0  0  0  0  0  0  0  0  0  0
  -51.0889  -30.4394    8.9978 H   0  0  0  0  0  0  0  0  0  0  0  0
  -52.7114  -31.0705    8.7952 H   0  0  0  0  0  0  0  0  0  0  0  0
  -45.8938  -29.0696    4.1456 H   0  0  0  0  0  0  0  0  0  0  0  0
  -51.0502  -27.8046    7.9236 H   0  0  0  0  0  0  0  0  0  0  0  0
  1  2  1  0  0  0  0
  1  5  2  0  0  0  0
  2  7  2  0  0  0  0
  3  4  2  0  0  0  0
  3  9  1  0  0  0  0
  4 10  1  0  0  0  0
  5 12  1  0  0  0  0
  6  9  2  0  0  0  0
  6 11  1  0  0  0  0
  7  8  1  0  0  0  0
  7 13  1  0  0  0  0
  8 12  2  0  0  0  0
  8 15  1  0  0  0  0
  9 18  1  0  0  0  0
 10 11  2  0  0  0  0
 10 19  1  0  0  0  0
 11 22  1  0  0  0  0
 12 23  1  0  0  0  0
 13 18  1  0  0  0  0
 13 20  2  0  0  0  0
 14 17  1  0  0  0  0
 14 19  1  0  0  0  0
 14 21  2  0  0  0  0
 16 22  1  0  0  0  0
  1 24  1  0  0  0  0
  2 25  1  0  0  0  0
  3 26  1  0  0  0  0
  4 27  1  0  0  0  0
  5 28  1  0  0  0  0
  6 29  1  0  0  0  0
 15 30  1  0  0  0  0
 15 31  1  0  0  0  0
 15 32  1  0  0  0  0
 16 33  1  0  0  0  0
 16 34  1  0  0  0  0
 16 35  1  0  0  0  0
 17 36  1  0  0  0  0
 17 37  1  0  0  0  0
 18 38  1  0  0  0  0
 19 39  1  0  0  0  0
M  END
> <POSIT::Probability>
0.02

> <POSIT::Method>
FRED

> <ReceptorTitle>
UCSF-P4661-REFINED_LIGAND-BOUND-STATE_A__DU__LA1_A-201(A)

> <OMEGA_C>
MUYtwjKS6cF0rsI/kEEywtc76cFocglAmZ4+wnZN6cEJGMNAf+lCwle358Hu5N5AzP4rwvUT8sGg
Ri0/+q9EwuYE6cGN7YZAbvU1wkJm8cGIDPc//600whTo+cEoAIs/CYI/woD06cGCG5dAbxdIwr3H
5sH7ts5A2vpIwsxu58H6uaJAqbIvwl8++sEwLOs+tB87wjrO8MHybSZAY9tQwjip68HncvFA+bA4
whdPAcLoalw/SIhOwlpO58FI2UlAUvVPwnFC88EGgwhBeiY7wjaU68FovHVAsFhMwicu5cEC+OpA
UhM/wsD99MEgAARAeChVwrET68EMnd5AWgJOwsyJ5sGnQ5JAlvUtwiVPAsLgMRi/UWUqwrY048H8
Sdg/AzUzwl6O4sEUWTNAtpk6wrQE6sGXD9BAeStCwmI258GqjgBBxBgowvQ38sEgP0g+dWVFwoaF
6cFqSUlAJEY7wsRiAMIAJM87t0s7wi3KAcIQ/d0/1qQ2wrQaBcLAeCs/Yr1SwiN25sE4DjhAijZM
wvHm4ME+CixAgAFNwqEJ78FYQzRAFVtMwuqD88H+9g9BdNhSwnKQ+MEruQxBSZM3wniO6MFeqIRA
cjNMwuJv3sG7jf1A

> <OMEGA_E>
Xr/cwA==

> <OMEGA_NBR>
     27997

$$$$
CACHE3HI_1702_85
  -OEChem-03092622543D

 32 34  0     0  0  0  0  0  0999 V2000
  -44.0592  -26.7265    0.3784 C   0  0  0  0  0  0  0  0  0  0  0  0
  -45.1443  -27.6029    0.3922 C   0  0  0  0  0  0  0  0  0  0  0  0
  -42.8207  -27.1432    0.8662 C   0  0  0  0  0  0  0  0  0  0  0  0
  -46.3732  -31.7713    0.0580 C   0  0  0  0  0  0  0  0  0  0  0  0
  -47.6559  -32.1246    0.4904 C   0  0  0  0  0  0  0  0  0  0  0  0
  -44.9910  -28.8956    0.8935 C   0  0  0  0  0  0  0  0  0  0  0  0
  -42.6674  -28.4360    1.3675 C   0  0  0  0  0  0  0  0  0  0  0  0
  -45.5428  -34.0290    0.4748 C   0  0  0  0  0  0  0  0  0  0  0  0
  -45.3256  -32.7156    0.0500 C   0  0  0  0  0  0  0  0  0  0  0  0
  -46.8164  -34.3402    0.8922 C   0  0  0  0  0  0  0  0  0  0  0  0
  -47.8470  -33.4251    0.9036 C   0  0  0  0  0  0  0  0  0  0  0  0
  -43.7525  -29.3123    1.3813 C   0  0  0  0  0  0  0  0  0  0  0  0
  -48.6766  -35.3006    1.6425 C   0  0  0  0  0  0  0  0  0  0  0  0
  -44.0032  -32.3158   -0.4056 C   0  0  0  0  0  0  0  0  0  0  0  0
  -47.3384  -35.5179    1.3567 N   0  0  0  0  0  0  0  0  0  0  0  0
  -43.0987  -31.7991    0.5956 N   0  0  0  0  0  0  0  0  0  0  0  0
  -49.4693  -36.1262    2.0784 O   0  0  0  0  0  0  0  0  0  0  0  0
  -43.6633  -32.4070   -1.5955 O   0  0  0  0  0  0  0  0  0  0  0  0
  -42.4480  -30.9465    2.9470 O   0  0  0  0  0  0  0  0  0  0  0  0
  -44.8723  -31.3970    2.4316 O   0  0  0  0  0  0  0  0  0  0  0  0
  -49.0362  -33.9692    1.3638 O   0  0  0  0  0  0  0  0  0  0  0  0
  -43.5577  -30.9511    2.0132 S   0  0  0  0  0  0  0  0  0  0  0  0
  -44.1786  -25.7201   -0.0120 H   0  0  0  0  0  0  0  0  0  0  0  0
  -46.1085  -27.2790    0.0117 H   0  0  0  0  0  0  0  0  0  0  0  0
  -41.9756  -26.4615    0.8553 H   0  0  0  0  0  0  0  0  0  0  0  0
  -46.1902  -30.7520   -0.2750 H   0  0  0  0  0  0  0  0  0  0  0  0
  -48.4619  -31.4003    0.4970 H   0  0  0  0  0  0  0  0  0  0  0  0
  -45.8427  -29.5706    0.8985 H   0  0  0  0  0  0  0  0  0  0  0  0
  -41.6981  -28.7505    1.7447 H   0  0  0  0  0  0  0  0  0  0  0  0
  -44.7492  -34.7676    0.4755 H   0  0  0  0  0  0  0  0  0  0  0  0
  -46.8284  -36.3854    1.4669 H   0  0  0  0  0  0  0  0  0  0  0  0
  -42.0948  -31.9529    0.4451 H   0  0  0  0  0  0  0  0  0  0  0  0
  1  2  1  0  0  0  0
  1  3  2  0  0  0  0
  2  6  2  0  0  0  0
  3  7  1  0  0  0  0
  4  5  2  0  0  0  0
  4  9  1  0  0  0  0
  5 11  1  0  0  0  0
  6 12  1  0  0  0  0
  7 12  2  0  0  0  0
  8  9  2  0  0  0  0
  8 10  1  0  0  0  0
  9 14  1  0  0  0  0
 10 11  2  0  0  0  0
 10 15  1  0  0  0  0
 11 21  1  0  0  0  0
 12 22  1  0  0  0  0
 13 15  1  0  0  0  0
 13 17  2  0  0  0  0
 13 21  1  0  0  0  0
 14 16  1  0  0  0  0
 14 18  2  0  0  0  0
 16 22  1  0  0  0  0
 19 22  2  0  0  0  0
 20 22  2  0  0  0  0
  1 23  1  0  0  0  0
  2 24  1  0  0  0  0
  3 25  1  0  0  0  0
  4 26  1  0  0  0  0
  5 27  1  0  0  0  0
  6 28  1  0  0  0  0
  7 29  1  0  0  0  0
  8 30  1  0  0  0  0
 15 31  1  0  0  0  0
 16 32  1  0  0  0  0
M  END
> <POSIT::Probability>
0.18

> <POSIT::Method>
HYBRID

> <ReceptorTitle>
UCSF-P4661-REFINED_LIGAND-BOUND-STATE_A__DU__LA1_A-201(A)

> <OMEGA_C>
kzwwwu3P1cEgusE+wJM0wrTS3MHwz8g+YEgrwkol2cFYwF0/K345woYr/sEAfW09rZ8+wpZ/AMLQ
Fvs+yPYzwkkq58GIumQ/aKsqwt9848GACa8/3Cs2wqodCMIAGPM+cU01wsjcAsIA/Uw9CEQ7wmRc
CcK4aWQ/S2M/wk2zBcLgUWc/hwIvwqJ/6sFsz7A/3LRCwtUzDcLsPtI/RQMwwmZDAcJgp8++g1o9
wloSDsLsqK0/F2Uswoxk/sGAdxg/jeBFwjCBEMIKBQVAOKcuwrqgAcIQOsy/x8opwmSS98HEmzxA
N30zwiAt+8EonxtADSVEwn3gB8JIkq4/ETsuwsGb98EK2QBA5LYwwtbCzcEAOEW8GG84wnQ72sEA
OEA8COcnwhmx08FQ9Vo/xMI4wgYE9sGAzoy++dhBwsAz+8Fgdv4+9143woOQ7MEoAWY/z8omwhYB
5sGYU98/Nf8ywgwSC8JAePM+PFA7wqiKEcIYxLs/GmEowqKf/8Gw6uM+

> <OMEGA_E>
ds6fwA==

> <OMEGA_NBR>
     29132

$$$$
CACHE3HI_1702_88
  -OEChem-03092622543D

 46 49  0     0  0  0  0  0  0999 V2000
  -44.0291  -29.3449    5.0987 C   0  0  0  0  0  0  0  0  0  0  0  0
  -43.5956  -28.1367    4.5527 C   0  0  0  0  0  0  0  0  0  0  0  0
  -46.3701  -25.6344   -0.4974 C   0  0  0  0  0  0  0  0  0  0  0  0
  -44.2912  -34.0142   -0.2668 C   0  0  0  0  0  0  0  0  0  0  0  0
  -45.0399  -25.4122   -0.1414 C   0  0  0  0  0  0  0  0  0  0  0  0
  -46.9255  -26.9063   -0.3587 C   0  0  0  0  0  0  0  0  0  0  0  0
  -44.4736  -30.3682    4.2617 C   0  0  0  0  0  0  0  0  0  0  0  0
  -44.9796  -35.0157   -0.9598 C   0  0  0  0  0  0  0  0  0  0  0  0
  -43.6064  -27.9519    3.1701 C   0  0  0  0  0  0  0  0  0  0  0  0
  -46.3722  -32.8344    0.2213 C   0  0  0  0  0  0  0  0  0  0  0  0
  -44.9817  -32.9328    0.3190 C   0  0  0  0  0  0  0  0  0  0  0  0
  -44.2653  -26.4615    0.3535 C   0  0  0  0  0  0  0  0  0  0  0  0
  -46.1509  -27.9556    0.1362 C   0  0  0  0  0  0  0  0  0  0  0  0
  -47.0153  -33.8375   -0.4667 C   0  0  0  0  0  0  0  0  0  0  0  0
  -44.4844  -30.1834    2.8790 C   0  0  0  0  0  0  0  0  0  0  0  0
  -46.3500  -34.8984   -1.0424 C   0  0  0  0  0  0  0  0  0  0  0  0
  -44.0509  -28.9753    2.3330 C   0  0  0  0  0  0  0  0  0  0  0  0
  -44.8207  -27.7335    0.4923 C   0  0  0  0  0  0  0  0  0  0  0  0
  -48.4684  -35.1950   -1.4624 C   0  0  0  0  0  0  0  0  0  0  0  0
  -44.2359  -31.9079    1.0327 C   0  0  0  0  0  0  0  0  0  0  0  0
  -42.8430  -26.2031    0.7285 C   0  0  0  0  0  0  0  0  0  0  0  0
  -46.7640  -29.3098    0.2775 C   0  0  0  0  0  0  0  0  0  0  0  0
  -48.3458  -34.0245   -0.7312 N   0  0  0  0  0  0  0  0  0  0  0  0
  -44.9365  -31.2331    2.0421 N   0  0  0  0  0  0  0  0  0  0  0  0
  -49.5105  -35.6846   -1.8797 O   0  0  0  0  0  0  0  0  0  0  0  0
  -43.0608  -31.6777    0.7044 O   0  0  0  0  0  0  0  0  0  0  0  0
  -47.2080  -35.7811   -1.6802 O   0  0  0  0  0  0  0  0  0  0  0  0
  -44.0532  -28.7743    0.9849 O   0  0  0  0  0  0  0  0  0  0  0  0
  -44.0201  -29.4883    6.1751 H   0  0  0  0  0  0  0  0  0  0  0  0
  -43.2491  -27.3402    5.2046 H   0  0  0  0  0  0  0  0  0  0  0  0
  -46.9726  -24.8180   -0.8839 H   0  0  0  0  0  0  0  0  0  0  0  0
  -43.2085  -34.0783   -0.1835 H   0  0  0  0  0  0  0  0  0  0  0  0
  -44.6155  -24.4180   -0.2542 H   0  0  0  0  0  0  0  0  0  0  0  0
  -47.9625  -27.0701   -0.6394 H   0  0  0  0  0  0  0  0  0  0  0  0
  -44.8099  -31.3049    4.6985 H   0  0  0  0  0  0  0  0  0  0  0  0
  -44.4506  -35.8472   -1.4103 H   0  0  0  0  0  0  0  0  0  0  0  0
  -43.2657  -27.0086    2.7516 H   0  0  0  0  0  0  0  0  0  0  0  0
  -46.9190  -32.0102    0.6652 H   0  0  0  0  0  0  0  0  0  0  0  0
  -42.7581  -25.9019    1.7801 H   0  0  0  0  0  0  0  0  0  0  0  0
  -42.4162  -25.3900    0.1278 H   0  0  0  0  0  0  0  0  0  0  0  0
  -42.2395  -27.1052    0.5740 H   0  0  0  0  0  0  0  0  0  0  0  0
  -46.6335  -29.9022   -0.6368 H   0  0  0  0  0  0  0  0  0  0  0  0
  -47.8437  -29.2390    0.4609 H   0  0  0  0  0  0  0  0  0  0  0  0
  -46.3030  -29.8505    1.1124 H   0  0  0  0  0  0  0  0  0  0  0  0
  -49.0963  -33.4109   -0.4394 H   0  0  0  0  0  0  0  0  0  0  0  0
  -45.8956  -31.5372    2.1935 H   0  0  0  0  0  0  0  0  0  0  0  0
  1  2  1  0  0  0  0
  1  7  2  0  0  0  0
  2  9  2  0  0  0  0
  3  5  2  0  0  0  0
  3  6  1  0  0  0  0
  4  8  2  0  0  0  0
  4 11  1  0  0  0  0
  5 12  1  0  0  0  0
  6 13  2  0  0  0  0
  7 15  1  0  0  0  0
  8 16  1  0  0  0  0
  9 17  1  0  0  0  0
 10 11  2  0  0  0  0
 10 14  1  0  0  0  0
 11 20  1  0  0  0  0
 12 18  2  0  0  0  0
 12 21  1  0  0  0  0
 13 18  1  0  0  0  0
 13 22  1  0  0  0  0
 14 16  2  0  0  0  0
 14 23  1  0  0  0  0
 15 17  2  0  0  0  0
 15 24  1  0  0  0  0
 16 27  1  0  0  0  0
 17 28  1  0  0  0  0
 18 28  1  0  0  0  0
 19 23  1  0  0  0  0
 19 25  2  0  0  0  0
 19 27  1  0  0  0  0
 20 24  1  0  0  0  0
 20 26  2  0  0  0  0
  1 29  1  0  0  0  0
  2 30  1  0  0  0  0
  3 31  1  0  0  0  0
  4 32  1  0  0  0  0
  5 33  1  0  0  0  0
  6 34  1  0  0  0  0
  7 35  1  0  0  0  0
  8 36  1  0  0  0  0
  9 37  1  0  0  0  0
 10 38  1  0  0  0  0
 21 39  1  0  0  0  0
 21 40  1  0  0  0  0
 21 41  1  0  0  0  0
 22 42  1  0  0  0  0
 22 43  1  0  0  0  0
 22 44  1  0  0  0  0
 23 45  1  0  0  0  0
 24 46  1  0  0  0  0
M  END
> <POSIT::Probability>
0.14

> <POSIT::Method>
HYBRID

> <ReceptorTitle>
UCSF-P4661-REFINED_LIGAND-BOUND-STATE_A__DU__LA1_A-201(A)

> <OMEGA_C>
wB0wwl/C6sHUKKNA4WEuwgIY4cEYsJFABHs5wkYTzcFArf6+LyoxwooOCMJgmYi+1ig0wjlMy8GA
xhC+ubM7wiJA18EAo7e+9eQxwhjy8sGYX4hAKOszwhYQDMIAtXW/6mwuwoqd38HM4kpAGn05wm9W
A8IAlGI+T+0zwju7A8IgT6M+ng8xwi2x08GAAbU+gJo4whal38GAgws+tA88wqRZB8Lg8O6+/u8x
wp938cHMQThAbmY5wgOYC8LwbIW/JzQwwl/N58EYUBVAX0gzwh/e3cEgC/w+qN9BwqbHDMLgMLu/
m/EwwlJD/8EgMIQ/R18rwgag0cHwfjo/Vg47wn166sFAGI4+ImJBwhQZCMIQLju/BL8zwnnd+cH0
sQJAygpGwga9DsKwmfC/Sj4swvxr/cFAVjQ/CNU8wuEfD8IgEde/hDYwwr8x5sEAIHw/iRQwwiDo
68FSmsVADf8swtO42sEGjKZA/eM7wl2LxsFQSmK/fNUswjVQCMJA4Tu+TnYywiNYw8EgIYK+j9k/
wpqP2MEwriO/Vj0zwoRw+sFeWpZAZ80xwo1jD8JIhLS/ChAtwogR2MHQGjBACK07wmkKAMIASSo/
TQgrwiM3z8Hg2uM/LKopwrsey8EA4QI+NvUownjX2MGw8RI/tYg6wsI378EQAyO/618/wo/p6cHA
9Os+OzY5wt7N7sHoY44/m2JEws2kBcLg8uC+DJU3wjZM/MG8YgxA

> <OMEGA_E>
hu5Svw==

> <OMEGA_NBR>
     30550

$$$$
CACHE3HI_1702_95
  -OEChem-03092622543D

 35 36  0     0  0  0  0  0  0999 V2000
  -44.7696  -34.0073   -2.2604 C   0  0  0  0  0  0  0  0  0  0  0  0
  -45.8760  -34.7400   -2.7153 C   0  0  0  0  0  0  0  0  0  0  0  0
  -46.8432  -34.6744   -0.4798 C   0  0  0  0  0  0  0  0  0  0  0  0
  -45.1651  -29.4474    1.0865 C   0  0  0  0  0  0  0  0  0  0  0  0
  -43.1668  -28.0623    0.8824 C   0  0  0  0  0  0  0  0  0  0  0  0
  -45.2757  -27.3029   -0.0831 C   0  0  0  0  0  0  0  0  0  0  0  0
  -44.6814  -33.5954   -0.9078 C   0  0  0  0  0  0  0  0  0  0  0  0
  -46.9225  -35.0568   -1.8308 C   0  0  0  0  0  0  0  0  0  0  0  0
  -45.7378  -33.9450   -0.0094 C   0  0  0  0  0  0  0  0  0  0  0  0
  -43.7940  -29.2346    1.3558 C   0  0  0  0  0  0  0  0  0  0  0  0
  -45.9042  -28.4808    0.3705 C   0  0  0  0  0  0  0  0  0  0  0  0
  -43.9056  -27.0965    0.1728 C   0  0  0  0  0  0  0  0  0  0  0  0
  -43.4999  -32.7964   -0.4851 C   0  0  0  0  0  0  0  0  0  0  0  0
  -48.0976  -35.8690   -2.3134 C   0  0  0  0  0  0  0  0  0  0  0  0
  -43.2532  -32.5628    0.8531 N   0  0  0  0  0  0  0  0  0  0  0  0
  -42.2869  -31.6528    1.3059 N   0  0  0  0  0  0  0  0  0  0  0  0
  -42.7437  -32.3188   -1.3254 O   0  0  0  0  0  0  0  0  0  0  0  0
  -41.6434  -29.7456    2.8481 O   0  0  0  0  0  0  0  0  0  0  0  0
  -43.7742  -31.0660    3.3023 O   0  0  0  0  0  0  0  0  0  0  0  0
  -45.7416  -33.5861    1.3047 O   0  0  0  0  0  0  0  0  0  0  0  0
  -42.8440  -30.4323    2.3557 S   0  0  0  0  0  0  0  0  0  0  0  0
  -47.6048  -28.7329    0.0634 Cl  0  0  0  0  0  0  0  0  0  0  0  0
  -43.1225  -25.6302   -0.3605 Cl  0  0  0  0  0  0  0  0  0  0  0  0
  -43.9766  -33.7545   -2.9486 H   0  0  0  0  0  0  0  0  0  0  0  0
  -45.9241  -35.0611   -3.7454 H   0  0  0  0  0  0  0  0  0  0  0  0
  -47.6374  -34.9431    0.2011 H   0  0  0  0  0  0  0  0  0  0  0  0
  -45.6481  -30.3507    1.4289 H   0  0  0  0  0  0  0  0  0  0  0  0
  -42.1141  -27.9051    1.0656 H   0  0  0  0  0  0  0  0  0  0  0  0
  -45.8430  -26.5609   -0.6254 H   0  0  0  0  0  0  0  0  0  0  0  0
  -47.8802  -36.9399   -2.1875 H   0  0  0  0  0  0  0  0  0  0  0  0
  -48.9907  -35.6050   -1.7281 H   0  0  0  0  0  0  0  0  0  0  0  0
  -48.2794  -35.6545   -3.3768 H   0  0  0  0  0  0  0  0  0  0  0  0
  -43.7886  -33.0661    1.5314 H   0  0  0  0  0  0  0  0  0  0  0  0
  -41.5801  -32.1713    1.7873 H   0  0  0  0  0  0  0  0  0  0  0  0
  -44.9491  -33.1012    1.5033 H   0  0  0  0  0  0  0  0  0  0  0  0
  1  2  2  0  0  0  0
  1  7  1  0  0  0  0
  2  8  1  0  0  0  0
  3  8  2  0  0  0  0
  3  9  1  0  0  0  0
  4 10  1  0  0  0  0
  4 11  2  0  0  0  0
  5 10  2  0  0  0  0
  5 12  1  0  0  0  0
  6 11  1  0  0  0  0
  6 12  2  0  0  0  0
  7  9  2  0  0  0  0
  7 13  1  0  0  0  0
  8 14  1  0  0  0  0
  9 20  1  0  0  0  0
 10 21  1  0  0  0  0
 11 22  1  0  0  0  0
 12 23  1  0  0  0  0
 13 15  1  0  0  0  0
 13 17  2  0  0  0  0
 15 16  1  0  0  0  0
 16 21  1  0  0  0  0
 18 21  2  0  0  0  0
 19 21  2  0  0  0  0
  1 24  1  0  0  0  0
  2 25  1  0  0  0  0
  3 26  1  0  0  0  0
  4 27  1  0  0  0  0
  5 28  1  0  0  0  0
  6 29  1  0  0  0  0
 14 30  1  0  0  0  0
 14 31  1  0  0  0  0
 14 32  1  0  0  0  0
 15 33  1  0  0  0  0
 16 34  1  0  0  0  0
 20 35  1  0  0  0  0
M  END
> <POSIT::Probability>
0.91

> <POSIT::Method>
SHAPEFIT

> <ReceptorTitle>
UCSF-P4661-REFINED_LIGAND-BOUND-STATE_A__DU__LA1_A-201(A)

> <OMEGA_C>
BhQzwnkHCMIWqhDA/4A3ws71CsL+xy3Ac187wpiyCsL4pfW+FKk0wjyU68F8Eos/1aoswoJ/4MHt
52E/Rxo1wlts2sFQP6q9tLkywqhhBsLeZGi/pLA7wjY6DMLFWOq/ePM2wq/HB8KA/hm8Gy0vwmbg
6cFpjK0/3J03wpjY48FAsr0+Yp8vwo7F2ME49jA+3P8twoQvA8IIYPi+5WNAwtx5D8JqDhTAPAMt
wlBAAsKFZ1o/wCUpwvY4/cFyJqc/gvkqwm1GAcJLqKm/1JImwhH37cHMRzZAxRgvwieH+MEkWVNA
ZPc2wh5YBsL9AKc/SWArwll188GkwxZARWs+whPd5cFAx4E9fX0swp0KzcHslLi+AegvwqQEB8JD
tjzATLI3woQ+DMKZtG/AqIw+wr3FC8KR4E0+o5c2winO8sF35bY/3nQowrQ938G+ZIg/MF83wsB8
1MHnFyC/VIU/woDCE8KS/wvAevZDwn9rDsK4Md2/JB5BwiqeDsKyHVjAiCcvwq1DBMIuBMQ/ElIm
wmSvAMLXxOQ/58szwqpnBMJGbcA/

> <OMEGA_E>
iCwkPg==

> <OMEGA_NBR>
     31766

$$$$
CACHE3HI_1704_12
  -OEChem-03092622543D

 49 51  0     1  0  0  0  0  0999 V2000
  -43.3553  -35.8727   -2.0702 C   0  0  0  0  0  0  0  0  0  0  0  0
  -44.5063  -36.6772   -1.9378 C   0  0  0  0  0  0  0  0  0  0  0  0
  -43.3321  -34.5657   -1.5739 C   0  0  0  0  0  0  0  0  0  0  0  0
  -45.6545  -36.1916   -1.3073 C   0  0  0  0  0  0  0  0  0  0  0  0
  -42.8125  -30.1356    0.5029 C   0  0  0  0  0  0  0  0  0  0  0  0
  -44.2469  -29.4666    2.3284 C   0  0  0  0  0  0  0  0  0  0  0  0
  -42.5780  -31.3565    1.1355 C   0  0  0  0  0  0  0  0  0  0  0  0
  -44.0125  -30.6874    2.9609 C   0  0  0  0  0  0  0  0  0  0  0  0
  -44.4775  -34.1075   -0.9551 C   0  0  0  0  0  0  0  0  0  0  0  0
  -45.6085  -34.8995   -0.8252 C   0  0  0  0  0  0  0  0  0  0  0  0
  -43.6472  -29.1907    1.0995 C   0  0  0  0  0  0  0  0  0  0  0  0
  -43.1777  -31.6324    2.3644 C   0  0  0  0  0  0  0  0  0  0  0  0
  -44.7602  -32.8091   -0.3444 C   0  0  0  0  0  0  0  0  0  0  0  0
  -46.6309  -34.1188   -0.1294 C   0  0  0  0  0  0  0  0  0  0  0  0
  -47.2233  -28.7617    1.1934 C   0  0  0  0  0  0  0  0  0  0  0  0
  -45.5482  -25.9772    0.0084 C   0  0  0  0  0  0  0  0  0  0  0  0
  -43.9017  -27.8682    0.4147 C   0  0  0  0  0  0  0  0  0  0  0  0
  -48.1737  -29.7215    0.4974 C   0  0  0  0  0  0  0  0  0  0  0  0
  -47.4718  -30.9009   -0.1771 C   0  0  0  0  0  0  0  0  0  0  0  0
  -46.7244  -31.7999    0.8014 C   0  0  0  0  0  0  0  0  0  0  0  0
  -45.2877  -27.2856    0.7354 C   0  0  2  0  0  0  0  0  0  0  0  0
  -46.0515  -32.8969    0.1183 N   0  0  0  0  0  0  0  0  0  0  0  0
  -46.3111  -28.2089    0.3060 N   0  0  0  0  0  0  0  0  0  0  0  0
  -43.9655  -31.8887   -0.2950 O   0  0  0  0  0  0  0  0  0  0  0  0
  -47.7418  -34.5373    0.1384 O   0  0  0  0  0  0  0  0  0  0  0  0
  -47.2571  -28.5326    2.3995 O   0  0  0  0  0  0  0  0  0  0  0  0
  -46.5871  -25.3325    0.0735 O   0  0  0  0  0  0  0  0  0  0  0  0
  -42.9485  -32.8238    2.9812 O   0  0  0  0  0  0  0  0  0  0  0  0
  -44.4975  -25.6036   -0.7679 O   0  0  0  0  0  0  0  0  0  0  0  0
  -42.4757  -36.2764   -2.5648 H   0  0  0  0  0  0  0  0  0  0  0  0
  -44.4971  -37.6897   -2.3331 H   0  0  0  0  0  0  0  0  0  0  0  0
  -42.4481  -33.9469   -1.6748 H   0  0  0  0  0  0  0  0  0  0  0  0
  -46.5384  -36.8103   -1.2056 H   0  0  0  0  0  0  0  0  0  0  0  0
  -42.3409  -29.9295   -0.4542 H   0  0  0  0  0  0  0  0  0  0  0  0
  -44.8987  -28.7361    2.8004 H   0  0  0  0  0  0  0  0  0  0  0  0
  -41.9269  -32.0889    0.6660 H   0  0  0  0  0  0  0  0  0  0  0  0
  -44.4826  -30.8964    3.9180 H   0  0  0  0  0  0  0  0  0  0  0  0
  -43.1181  -27.1696    0.7363 H   0  0  0  0  0  0  0  0  0  0  0  0
  -43.7699  -27.9836   -0.6698 H   0  0  0  0  0  0  0  0  0  0  0  0
  -48.9210  -30.0771    1.2158 H   0  0  0  0  0  0  0  0  0  0  0  0
  -48.7060  -29.1429   -0.2680 H   0  0  0  0  0  0  0  0  0  0  0  0
  -46.7714  -30.5350   -0.9369 H   0  0  0  0  0  0  0  0  0  0  0  0
  -48.2280  -31.5005   -0.6989 H   0  0  0  0  0  0  0  0  0  0  0  0
  -45.9575  -31.2207    1.3252 H   0  0  0  0  0  0  0  0  0  0  0  0
  -47.3940  -32.2266    1.5541 H   0  0  0  0  0  0  0  0  0  0  0  0
  -45.3731  -27.1251    1.8163 H   0  0  0  0  0  0  0  0  0  0  0  0
  -46.3546  -28.4548   -0.6783 H   0  0  0  0  0  0  0  0  0  0  0  0
  -42.3479  -33.3547    2.4269 H   0  0  0  0  0  0  0  0  0  0  0  0
  -44.6258  -24.7759   -1.2779 H   0  0  0  0  0  0  0  0  0  0  0  0
  1  2  1  0  0  0  0
  1  3  2  0  0  0  0
  2  4  2  0  0  0  0
  3  9  1  0  0  0  0
  4 10  1  0  0  0  0
  5  7  2  0  0  0  0
  5 11  1  0  0  0  0
  6  8  1  0  0  0  0
  6 11  2  0  0  0  0
  7 12  1  0  0  0  0
  8 12  2  0  0  0  0
  9 10  2  0  0  0  0
  9 13  1  0  0  0  0
 10 14  1  0  0  0  0
 11 17  1  0  0  0  0
 12 28  1  0  0  0  0
 13 22  1  0  0  0  0
 13 24  2  0  0  0  0
 14 22  1  0  0  0  0
 14 25  2  0  0  0  0
 15 18  1  0  0  0  0
 15 23  1  0  0  0  0
 15 26  2  0  0  0  0
 16 21  1  0  0  0  0
 16 27  2  0  0  0  0
 16 29  1  0  0  0  0
 17 21  1  0  0  0  0
 18 19  1  0  0  0  0
 19 20  1  0  0  0  0
 20 22  1  0  0  0  0
 21 23  1  0  0  0  0
  1 30  1  0  0  0  0
  2 31  1  0  0  0  0
  3 32  1  0  0  0  0
  4 33  1  0  0  0  0
  5 34  1  0  0  0  0
  6 35  1  0  0  0  0
  7 36  1  0  0  0  0
  8 37  1  0  0  0  0
 17 38  1  0  0  0  0
 17 39  1  0  0  0  0
 18 40  1  0  0  0  0
 18 41  1  0  0  0  0
 19 42  1  0  0  0  0
 19 43  1  0  0  0  0
 20 44  1  0  0  0  0
 20 45  1  0  0  0  0
 21 46  1  0  0  0  0
 23 47  1  0  0  0  0
 28 48  1  0  0  0  0
 29 49  1  0  0  0  0
M  END
> <POSIT::Probability>
0.14

> <POSIT::Method>
HYBRID

> <ReceptorTitle>
UCSF-P4661-REFINED_LIGAND-BOUND-STATE_A__DU__LA1_A-201(A)

> <OMEGA_C>
2WstwqN9D8LkfgTAfgYywnS1EsIQCvi/BVQtwkFDCsIwd8m/N542winEEMIIVKe/+T8rwrUV8cFQ
wAA/3vwwwou768EwBBVA1k8qwhba+sEQWJE/xAwwwtJ/9cEwgD1A7ugxwhRuCMLAfnS/Gm82wiKZ
C8LQQFO/tpYuwo6G6cEIvIw//rUswhQP/cEwUhdAbQozwnk8A8IgU7C+EIY6wqR5CMJAfAS+quQ8
wgoY5sEgwJg/VTE2wljRz8EA4Ag8Vpsvwvzx3sGgWdQ+47FAwrPF7cHgrv4+GuM9wv4098EATzW+
0+U6wkNm/sHwJk0/pyY1wthI2sGwQTw/tTQ4wm2WA8IAVfI9lj45wtOr4cGgq5w+s9wvwiEc/8EA
Bpe+p/c+wjkmCsJAtQ0+Ogc9wsdC5MG0kRlAKVk6wgqpysEAoZY9Q8srwpRLA8LAzD5AZ/0xwjLU
zMEwlES/G+cpwhQbEcLkJSTAEP0xwkTCFsJUURXA4copwqbJB8JoXta/TSc6wrk9E8KoUJq/CF0p
wo5v78Hgjei+PJgzwojj5cGsOTNAGrUnwgFbAMJgfio/N+4xwtsr98FcwHpA6XgswmJb2cEgfTw/
XhQvwnTe38HAdSu/Iq9DwuSd8MGgn5s/59JCwrAk6cGgNYm+9RU7wrpH9MGA2m+/gulAwg0B/MEQ
6zK/ddQ3whjE+cHwn6k/bJM9wg3oAMLw68Y/GX41wh8A2cFgfeg/FWs5woOj48HgoS2/P2Qpwjdr
BcIYUhtAx4AywhM1xsEgk6O/

> <OMEGA_E>
EZiGwA==

> <OMEGA_NBR>
     33242

$$$$
CACHE3HI_1704_14
  -OEChem-03092622543D

 46 48  0     0  0  0  0  0  0999 V2000
  -43.3923  -36.3286   -3.3466 C   0  0  0  0  0  0  0  0  0  0  0  0
  -44.5750  -36.9144   -3.7980 C   0  0  0  0  0  0  0  0  0  0  0  0
  -43.4348  -35.3439   -2.3597 C   0  0  0  0  0  0  0  0  0  0  0  0
  -44.7750  -32.5784   -1.1618 C   0  0  0  0  0  0  0  0  0  0  0  0
  -44.5850  -34.2786    0.5443 C   0  0  0  0  0  0  0  0  0  0  0  0
  -45.7999  -36.5160   -3.2624 C   0  0  0  0  0  0  0  0  0  0  0  0
  -46.1926  -27.3934    0.2496 C   0  0  0  0  0  0  0  0  0  0  0  0
  -44.7894  -31.5916   -0.1760 C   0  0  0  0  0  0  0  0  0  0  0  0
  -44.5994  -33.2919    1.5301 C   0  0  0  0  0  0  0  0  0  0  0  0
  -46.7664  -26.1971   -0.1808 C   0  0  0  0  0  0  0  0  0  0  0  0
  -44.7230  -25.0236    0.3532 C   0  0  0  0  0  0  0  0  0  0  0  0
  -44.6727  -33.9219   -0.8015 C   0  0  0  0  0  0  0  0  0  0  0  0
  -44.6597  -34.9455   -1.8241 C   0  0  0  0  0  0  0  0  0  0  0  0
  -45.8424  -35.5313   -2.2754 C   0  0  0  0  0  0  0  0  0  0  0  0
  -44.8838  -27.4047    0.7317 C   0  0  0  0  0  0  0  0  0  0  0  0
  -44.7017  -31.9483    1.1698 C   0  0  0  0  0  0  0  0  0  0  0  0
  -46.0318  -25.0123   -0.1289 C   0  0  0  0  0  0  0  0  0  0  0  0
  -44.1492  -26.2199    0.7836 C   0  0  0  0  0  0  0  0  0  0  0  0
  -44.2766  -28.6801    1.1900 C   0  0  0  0  0  0  0  0  0  0  0  0
  -47.1435  -35.1450   -1.7417 C   0  0  0  0  0  0  0  0  0  0  0  0
  -47.9334  -23.9059   -1.0328 C   0  0  0  0  0  0  0  0  0  0  0  0
  -44.7159  -30.8927    2.2230 C   0  0  0  0  0  0  0  0  0  0  0  0
  -45.1549  -29.6179    1.7155 N   0  0  0  0  0  0  0  0  0  0  0  0
  -43.0609  -28.8313    1.1028 O   0  0  0  0  0  0  0  0  0  0  0  0
  -47.6253  -34.0107   -1.7910 O   0  0  0  0  0  0  0  0  0  0  0  0
  -47.7965  -36.1892   -1.1660 O   0  0  0  0  0  0  0  0  0  0  0  0
  -46.5918  -23.8455   -0.5502 O   0  0  0  0  0  0  0  0  0  0  0  0
  -42.8912  -26.2191    1.2469 F   0  0  0  0  0  0  0  0  0  0  0  0
  -42.4387  -36.6392   -3.7636 H   0  0  0  0  0  0  0  0  0  0  0  0
  -44.5414  -37.6816   -4.5660 H   0  0  0  0  0  0  0  0  0  0  0  0
  -42.5034  -34.8973   -2.0196 H   0  0  0  0  0  0  0  0  0  0  0  0
  -44.8442  -32.2843   -2.2063 H   0  0  0  0  0  0  0  0  0  0  0  0
  -44.5059  -35.3219    0.8409 H   0  0  0  0  0  0  0  0  0  0  0  0
  -46.7139  -36.9818   -3.6223 H   0  0  0  0  0  0  0  0  0  0  0  0
  -46.7747  -28.3103    0.2051 H   0  0  0  0  0  0  0  0  0  0  0  0
  -44.8691  -30.5469   -0.4648 H   0  0  0  0  0  0  0  0  0  0  0  0
  -44.5303  -33.5793    2.5759 H   0  0  0  0  0  0  0  0  0  0  0  0
  -47.7865  -26.1938   -0.5553 H   0  0  0  0  0  0  0  0  0  0  0  0
  -44.1455  -24.1044    0.3960 H   0  0  0  0  0  0  0  0  0  0  0  0
  -48.2580  -22.9073   -1.3364 H   0  0  0  0  0  0  0  0  0  0  0  0
  -47.9715  -24.5768   -1.8945 H   0  0  0  0  0  0  0  0  0  0  0  0
  -48.5874  -24.2897   -0.2464 H   0  0  0  0  0  0  0  0  0  0  0  0
  -45.3856  -31.1667    3.0500 H   0  0  0  0  0  0  0  0  0  0  0  0
  -43.7183  -30.7447    2.6592 H   0  0  0  0  0  0  0  0  0  0  0  0
  -46.1416  -29.3925    1.8114 H   0  0  0  0  0  0  0  0  0  0  0  0
  -48.6739  -35.9399   -0.8037 H   0  0  0  0  0  0  0  0  0  0  0  0
  1  2  1  0  0  0  0
  1  3  2  0  0  0  0
  2  6  2  0  0  0  0
  3 13  1  0  0  0  0
  4  8  2  0  0  0  0
  4 12  1  0  0  0  0
  5  9  1  0  0  0  0
  5 12  2  0  0  0  0
  6 14  1  0  0  0  0
  7 10  2  0  0  0  0
  7 15  1  0  0  0  0
  8 16  1  0  0  0  0
  9 16  2  0  0  0  0
 10 17  1  0  0  0  0
 11 17  2  0  0  0  0
 11 18  1  0  0  0  0
 12 13  1  0  0  0  0
 13 14  2  0  0  0  0
 14 20  1  0  0  0  0
 15 18  2  0  0  0  0
 15 19  1  0  0  0  0
 16 22  1  0  0  0  0
 17 27  1  0  0  0  0
 18 28  1  0  0  0  0
 19 23  1  0  0  0  0
 19 24  2  0  0  0  0
 20 25  2  0  0  0  0
 20 26  1  0  0  0  0
 21 27  1  0  0  0  0
 22 23  1  0  0  0  0
  1 29  1  0  0  0  0
  2 30  1  0  0  0  0
  3 31  1  0  0  0  0
  4 32  1  0  0  0  0
  5 33  1  0  0  0  0
  6 34  1  0  0  0  0
  7 35  1  0  0  0  0
  8 36  1  0  0  0  0
  9 37  1  0  0  0  0
 10 38  1  0  0  0  0
 11 39  1  0  0  0  0
 21 40  1  0  0  0  0
 21 41  1  0  0  0  0
 21 42  1  0  0  0  0
 22 43  1  0  0  0  0
 22 44  1  0  0  0  0
 23 45  1  0  0  0  0
 26 46  1  0  0  0  0
M  END
> <POSIT::Probability>
0.18

> <POSIT::Method>
HYBRID

> <ReceptorTitle>
UCSF-P4661-REFINED_LIGAND-BOUND-STATE_A__DU__LA1_A-201(A)

> <OMEGA_C>
sZEtwn9QEcIsL1bAxUwywmSoE8JkEnPARb0twjNgDcL8BBfAmRkzwkFQAsKYtZS/EFcywj8dCcLQ
WAs/EjM3wl8QEsKIy1DANsU4wrMl28FAlX8+TigzwqW7/MEANTS+x2UywuAqBcIQ28M/zBA7wqGT
0cHAKTm+WuQywmIwyMHA2rQ+0LAywg2wB8JwLE2/kqMywi/IC8JQfOm/nl43wgkgDsLEoBHACYkz
wtA828FQUTs/kM4ywgeW/8EAvJU/lSA4wjYZyMFAAAS+0pgwwmXC0cGwm0g/PBsxwsNw5cFAUZg/
95I8wm6UDMLw7t6/zLs/wmE/v8EgM4S/H90ywick98HcRQ5Aqp40wnnx7MEwlds/YT4swnqm5sEo
Ko0/UYA+wvgKCMIwP+W/pC8/wsDBEMIAPpW/Bl46worDvsEA2Ay/l5ArwsvA0cHQm58/RcEpwoeO
EsJ43nDAayoywgC6FsLwHJLAhAMqws+WC8J0QAHAfmAzwhojAcI0NA3A/gUywpVJDcIgRlc/Dds6
wlXtE8KY02fAVxk7wnp74sGAAVI+/Hkzwhtg9MHA9+2+FB8ywjBRBsKI2yRAZCU/wvmM0cFQJw6/
BJUwwszVwMGAw8o+PAhBwi5Ct8FQEKu/2OI/wjOdxME4fvK/f1lCwkhRwsGAUXy+1Yo1wm1V+cEc
M0NAjt8uwi319cEOMSpAB5E4wuEj68HI3Oc/CrJCwnXCD8IgwU2/

> <OMEGA_E>
BK23vw==

> <OMEGA_NBR>
     34655

$$$$
CACHE3HI_1704_38
  -OEChem-03092622543D

 43 45  0     0  0  0  0  0  0999 V2000
  -48.4164  -31.5230    2.3872 C   0  0  0  0  0  0  0  0  0  0  0  0
  -50.3019  -29.4645    4.8352 C   0  0  0  0  0  0  0  0  0  0  0  0
  -49.3345  -28.5408    5.2312 C   0  0  0  0  0  0  0  0  0  0  0  0
  -49.9857  -30.4446    3.8946 C   0  0  0  0  0  0  0  0  0  0  0  0
  -48.0513  -28.5973    4.6870 C   0  0  0  0  0  0  0  0  0  0  0  0
  -45.3983  -30.3577    3.8300 C   0  0  0  0  0  0  0  0  0  0  0  0
  -46.0881  -28.8726    2.0535 C   0  0  0  0  0  0  0  0  0  0  0  0
  -44.1050  -30.3806    3.3079 C   0  0  0  0  0  0  0  0  0  0  0  0
  -44.7949  -28.8955    1.5313 C   0  0  0  0  0  0  0  0  0  0  0  0
  -44.0911  -32.0999    0.9858 C   0  0  0  0  0  0  0  0  0  0  0  0
  -48.7025  -30.5011    3.3503 C   0  0  0  0  0  0  0  0  0  0  0  0
  -46.3898  -29.6035    3.2027 C   0  0  0  0  0  0  0  0  0  0  0  0
  -47.7352  -29.5775    3.7463 C   0  0  0  0  0  0  0  0  0  0  0  0
  -43.8033  -29.6497    2.1586 C   0  0  0  0  0  0  0  0  0  0  0  0
  -43.0752  -31.6610    0.1617 C   0  0  0  0  0  0  0  0  0  0  0  0
  -44.9268  -33.0563    0.4467 C   0  0  0  0  0  0  0  0  0  0  0  0
  -43.7619  -33.0454   -1.5058 C   0  0  0  0  0  0  0  0  0  0  0  0
  -42.4549  -29.6736    1.6151 C   0  0  0  0  0  0  0  0  0  0  0  0
  -46.7912  -34.5258    0.5938 C   0  0  0  0  0  0  0  0  0  0  0  0
  -42.5113  -32.9925   -3.5282 C   0  0  0  0  0  0  0  0  0  0  0  0
  -48.1845  -32.3506    1.6074 N   0  0  0  0  0  0  0  0  0  0  0  0
  -42.8806  -32.1138   -1.0943 N   0  0  0  0  0  0  0  0  0  0  0  0
  -44.7911  -33.5532   -0.8005 N   0  0  0  0  0  0  0  0  0  0  0  0
  -42.1923  -30.6781    0.6729 N   0  0  0  0  0  0  0  0  0  0  0  0
  -41.6260  -28.8413    2.0186 O   0  0  0  0  0  0  0  0  0  0  0  0
  -45.9622  -33.5414    1.2011 O   0  0  0  0  0  0  0  0  0  0  0  0
  -43.5951  -33.5287   -2.7828 O   0  0  0  0  0  0  0  0  0  0  0  0
  -51.3005  -29.4208    5.2601 H   0  0  0  0  0  0  0  0  0  0  0  0
  -49.5806  -27.7779    5.9641 H   0  0  0  0  0  0  0  0  0  0  0  0
  -50.7518  -31.1568    3.5967 H   0  0  0  0  0  0  0  0  0  0  0  0
  -47.3100  -27.8693    5.0084 H   0  0  0  0  0  0  0  0  0  0  0  0
  -45.6179  -30.9326    4.7265 H   0  0  0  0  0  0  0  0  0  0  0  0
  -46.8503  -28.2791    1.5534 H   0  0  0  0  0  0  0  0  0  0  0  0
  -43.3395  -30.9717    3.8043 H   0  0  0  0  0  0  0  0  0  0  0  0
  -44.5708  -28.3219    0.6356 H   0  0  0  0  0  0  0  0  0  0  0  0
  -44.2306  -31.7220    1.9916 H   0  0  0  0  0  0  0  0  0  0  0  0
  -47.5735  -34.8280    1.2949 H   0  0  0  0  0  0  0  0  0  0  0  0
  -47.2514  -34.1003   -0.3011 H   0  0  0  0  0  0  0  0  0  0  0  0
  -46.1854  -35.3904    0.3128 H   0  0  0  0  0  0  0  0  0  0  0  0
  -42.4855  -33.4535   -4.5190 H   0  0  0  0  0  0  0  0  0  0  0  0
  -42.6515  -31.9140   -3.6341 H   0  0  0  0  0  0  0  0  0  0  0  0
  -41.5743  -33.1854   -3.0006 H   0  0  0  0  0  0  0  0  0  0  0  0
  -41.2428  -30.7046    0.3084 H   0  0  0  0  0  0  0  0  0  0  0  0
  1 11  1  0  0  0  0
  1 21  3  0  0  0  0
  2  3  1  0  0  0  0
  2  4  2  0  0  0  0
  3  5  2  0  0  0  0
  4 11  1  0  0  0  0
  5 13  1  0  0  0  0
  6  8  2  0  0  0  0
  6 12  1  0  0  0  0
  7  9  1  0  0  0  0
  7 12  2  0  0  0  0
  8 14  1  0  0  0  0
  9 14  2  0  0  0  0
 10 15  2  0  0  0  0
 10 16  1  0  0  0  0
 11 13  2  0  0  0  0
 12 13  1  0  0  0  0
 14 18  1  0  0  0  0
 15 22  1  0  0  0  0
 15 24  1  0  0  0  0
 16 23  2  0  0  0  0
 16 26  1  0  0  0  0
 17 22  2  0  0  0  0
 17 23  1  0  0  0  0
 17 27  1  0  0  0  0
 18 24  1  0  0  0  0
 18 25  2  0  0  0  0
 19 26  1  0  0  0  0
 20 27  1  0  0  0  0
  2 28  1  0  0  0  0
  3 29  1  0  0  0  0
  4 30  1  0  0  0  0
  5 31  1  0  0  0  0
  6 32  1  0  0  0  0
  7 33  1  0  0  0  0
  8 34  1  0  0  0  0
  9 35  1  0  0  0  0
 10 36  1  0  0  0  0
 19 37  1  0  0  0  0
 19 38  1  0  0  0  0
 19 39  1  0  0  0  0
 20 40  1  0  0  0  0
 20 41  1  0  0  0  0
 20 42  1  0  0  0  0
 24 43  1  0  0  0  0
M  END
> <POSIT::Probability>
0.24

> <POSIT::Method>
FRED

> <ReceptorTitle>
UCSF-P4661-REFINED_LIGAND-BOUND-STATE_A__DU__LA1_A-201(A)

> <OMEGA_C>
X6pBwicv/MFqyBhAGjVJwkC368E9uppAk1ZFwotT5MFVZqdAWvFHwoeO88GGQHlAlTRAwkzH5MHU
+5VA25c1wpLc8sF8H3VAOVo4wib75sHAawNAi2swwnEL88HctFNA9y0zwvwp58EIAsQ/Sl0wwlNm
AMK4Xnw/XM9CwkYC9MGAa1ZAKI85wvLT7MF2+UxA2PA+wqqe7MEaw29AnDYvwqYy7cEoJwpA+Ews
wqlJ/cEAlyU+CbUzwqo5BMLAtuQ+KgwvwnwuBMLQvcC/ztEpwm9j7cF8vM4/KSo7wncaCsJ4BBg/
hgsqwk/4A8JSzmHA+bxAwhBnAcLgvs0/sYUrwpV0AMJIEoy/FCozwn02BsI47ky/7sQowrhs9cGo
Qyw/CYEmwhK75sFoMQFAQtk3wm8qBsJ0vpk/VWEuwmodBsL+GDLAsjNNwsVd68FkUqhAglJGwiw5
3sHu2b5A3AFLwjdB+cH+L2ZAcD09wlH03sHARKBAr3g2wv1198EiP5dArGY7wrI74sFU1cY/nFst
whHG98HSeXNAiEgywj6T4sHgtiI/JewwwsHG/cHU6/4/TEs+wthPC8KIvqU/ewE9wrRmCMKwL5q+
4r04wtGPDcJQK6A+H/EpwmLQBcKrm5DAGJsqwvRP/8HwlGjAIEwmwti9BMLFCUDAq/gkwgmj9cHg
450+

> <OMEGA_E>
KhTCwA==

> <OMEGA_NBR>
     36004

$$$$
CACHE3HI_1704_42
  -OEChem-03092622543D

 45 47  0     1  0  0  0  0  0999 V2000
  -49.5645  -32.7357   -0.8407 C   0  0  0  0  0  0  0  0  0  0  0  0
  -46.0031  -25.6248   -0.8433 C   0  0  0  0  0  0  0  0  0  0  0  0
  -44.6997  -25.5894   -0.3476 C   0  0  0  0  0  0  0  0  0  0  0  0
  -46.8444  -26.6882   -0.5162 C   0  0  0  0  0  0  0  0  0  0  0  0
  -47.9663  -33.4722    0.8576 C   0  0  0  0  0  0  0  0  0  0  0  0
  -47.1869  -32.2000   -1.0428 C   0  0  0  0  0  0  0  0  0  0  0  0
  -44.2379  -26.6169    0.4753 C   0  0  0  0  0  0  0  0  0  0  0  0
  -46.3825  -27.7156    0.3066 C   0  0  0  0  0  0  0  0  0  0  0  0
  -46.6620  -33.5380    1.3477 C   0  0  0  0  0  0  0  0  0  0  0  0
  -45.8826  -32.2657   -0.5527 C   0  0  0  0  0  0  0  0  0  0  0  0
  -44.5477  -30.3656    3.1029 C   0  0  0  0  0  0  0  0  0  0  0  0
  -43.3102  -29.1180    1.6947 C   0  0  0  0  0  0  0  0  0  0  0  0
  -48.2286  -32.8030   -0.3377 C   0  0  0  0  0  0  0  0  0  0  0  0
  -43.2385  -30.1477    2.6071 C   0  0  0  0  0  0  0  0  0  0  0  0
  -45.0792  -27.6802    0.8024 C   0  0  0  0  0  0  0  0  0  0  0  0
  -45.6202  -32.9350    0.6426 C   0  0  0  0  0  0  0  0  0  0  0  0
  -45.3795  -29.4623    2.4787 C   0  0  0  0  0  0  0  0  0  0  0  0
  -43.1483  -32.4591    0.5724 C   0  0  0  0  0  0  0  0  0  0  0  0
  -41.9362  -32.7645    1.4331 C   0  0  0  0  0  0  0  0  0  0  0  0
  -41.9907  -30.9060    3.0048 C   0  0  1  0  0  0  0  0  0  0  0  0
  -50.6494  -32.6811   -1.2493 N   0  0  0  0  0  0  0  0  0  0  0  0
  -44.6166  -28.7094    1.6251 N   0  0  0  0  0  0  0  0  0  0  0  0
  -44.3158  -33.0014    1.1331 N   0  0  0  0  0  0  0  0  0  0  0  0
  -41.3119  -31.5466    1.8593 N   0  0  0  0  0  0  0  0  0  0  0  0
  -43.0688  -31.7903   -0.4533 O   0  0  0  0  0  0  0  0  0  0  0  0
  -46.6868  -29.2672    2.6009 O   0  0  0  0  0  0  0  0  0  0  0  0
  -41.1327  -29.9774    3.6738 O   0  0  0  0  0  0  0  0  0  0  0  0
  -46.3629  -24.8243   -1.4831 H   0  0  0  0  0  0  0  0  0  0  0  0
  -44.0444  -24.7609   -0.5998 H   0  0  0  0  0  0  0  0  0  0  0  0
  -47.8597  -26.7165   -0.9007 H   0  0  0  0  0  0  0  0  0  0  0  0
  -48.7675  -33.9469    1.4191 H   0  0  0  0  0  0  0  0  0  0  0  0
  -47.3766  -31.6745   -1.9758 H   0  0  0  0  0  0  0  0  0  0  0  0
  -43.2201  -26.5754    0.8558 H   0  0  0  0  0  0  0  0  0  0  0  0
  -47.0493  -28.5383    0.5534 H   0  0  0  0  0  0  0  0  0  0  0  0
  -46.4687  -34.0616    2.2807 H   0  0  0  0  0  0  0  0  0  0  0  0
  -45.0785  -31.7929   -1.1110 H   0  0  0  0  0  0  0  0  0  0  0  0
  -44.8536  -31.1010    3.8348 H   0  0  0  0  0  0  0  0  0  0  0  0
  -42.5413  -28.6472    1.0949 H   0  0  0  0  0  0  0  0  0  0  0  0
  -41.1978  -33.3414    0.8697 H   0  0  0  0  0  0  0  0  0  0  0  0
  -42.2481  -33.3225    2.3209 H   0  0  0  0  0  0  0  0  0  0  0  0
  -42.2337  -31.6724    3.7508 H   0  0  0  0  0  0  0  0  0  0  0  0
  -44.1873  -33.5079    2.0172 H   0  0  0  0  0  0  0  0  0  0  0  0
  -40.3414  -31.7346    2.1423 H   0  0  0  0  0  0  0  0  0  0  0  0
  -47.0731  -29.8957    3.2551 H   0  0  0  0  0  0  0  0  0  0  0  0
  -40.3322  -30.4672    3.9280 H   0  0  0  0  0  0  0  0  0  0  0  0
  1 13  1  0  0  0  0
  1 21  3  0  0  0  0
  2  3  1  0  0  0  0
  2  4  2  0  0  0  0
  3  7  2  0  0  0  0
  4  8  1  0  0  0  0
  5  9  2  0  0  0  0
  5 13  1  0  0  0  0
  6 10  1  0  0  0  0
  6 13  2  0  0  0  0
  7 15  1  0  0  0  0
  8 15  2  0  0  0  0
  9 16  1  0  0  0  0
 10 16  2  0  0  0  0
 11 14  1  0  0  0  0
 11 17  2  0  0  0  0
 12 14  2  0  0  0  0
 12 22  1  0  0  0  0
 14 20  1  0  0  0  0
 15 22  1  0  0  0  0
 16 23  1  0  0  0  0
 17 22  1  0  0  0  0
 17 26  1  0  0  0  0
 18 19  1  0  0  0  0
 18 23  1  0  0  0  0
 18 25  2  0  0  0  0
 19 24  1  0  0  0  0
 20 24  1  0  0  0  0
 20 27  1  0  0  0  0
  2 28  1  0  0  0  0
  3 29  1  0  0  0  0
  4 30  1  0  0  0  0
  5 31  1  0  0  0  0
  6 32  1  0  0  0  0
  7 33  1  0  0  0  0
  8 34  1  0  0  0  0
  9 35  1  0  0  0  0
 10 36  1  0  0  0  0
 11 37  1  0  0  0  0
 12 38  1  0  0  0  0
 19 39  1  0  0  0  0
 19 40  1  0  0  0  0
 20 41  1  0  0  0  0
 23 42  1  0  0  0  0
 24 43  1  0  0  0  0
 26 44  1  0  0  0  0
 27 45  1  0  0  0  0
M  END
> <POSIT::Probability>
0.14

> <POSIT::Method>
HYBRID

> <ReceptorTitle>
UCSF-P4661-REFINED_LIGAND-BOUND-STATE_A__DU__LA1_A-201(A)

> <OMEGA_C>
FEJGwlvxAsKAOVe/KgM4wq7/zMHw4Ve/i8wywiu3zMEQ87G+qWA7wl+B1cGQJQS/e90/wpHjBcLY
iVs/XL88wsDMAMIYeoW/kvMwwlzv1MGAVfM+sIc5wpC53cFQ/Zw+46U6wu8mBsJ8gKw/zYc3whkQ
AcL4fw2/5TAywtPs8sEslUZAmj0twrLx6MFC69g/HOpAwj42A8Jw6ay+LfQswpQu8cGT2iZAIFE0
wh5x3cH4Zk0/Ins2wnC9A8KAgSQ/o4Q1wtGy68Epox5A2pcswhTWAcJAiBI/tr4nwuIOA8IYcbc/
c/Ynwno/98HnTUBA+phKwn65AsKY6p+/Y3cywsis5cHOAtA/ZUMxwnQBBMLKCpE/Vj8lwlZf/MEE
/e0/cEYswohS/sGAEui+Ur86wjgj6sGmdSZA3Ickws7R78GIH2tAmXM5wjmYxsEQ1r2/cS0wwmIW
xsHojRm/WnA/wmS71cEQkma/8xFDwpXJB8KYpLU/noE9wndl/cFA6Py/b+EswoGa1MHIE1s/ejI8
woJO5MGYqA0//N85whU/CMJl9hFAb1A0ws9X/sHMNY6/EmozwuDO+MGrbHVAVSoqwoUt5cEoJ4w/
ksokwpddBcLYoV4/Af4owklKBcIOiRRAUu8owihh/cH8DHBA078wwg4IBsLDGQFAjl0hwl/g/cEC
HAlA5Uo8wloq78E7VFBAI1QhwsO888HSZHtA

> <OMEGA_E>
94ZtwA==

> <OMEGA_NBR>
     37401

$$$$
CACHE3HI_1704_54
  -OEChem-03092622543D

 40 42  0     0  0  0  0  0  0999 V2000
  -46.1869  -25.5670    0.0987 C   0  0  0  0  0  0  0  0  0  0  0  0
  -42.2111  -33.8532   -4.4051 C   0  0  0  0  0  0  0  0  0  0  0  0
  -42.8121  -32.7197   -3.8577 C   0  0  0  0  0  0  0  0  0  0  0  0
  -42.4384  -35.1061   -3.8358 C   0  0  0  0  0  0  0  0  0  0  0  0
  -46.2775  -27.9196    0.7606 C   0  0  0  0  0  0  0  0  0  0  0  0
  -44.1371  -26.8149    0.5703 C   0  0  0  0  0  0  0  0  0  0  0  0
  -43.6404  -32.8389   -2.7416 C   0  0  0  0  0  0  0  0  0  0  0  0
  -43.2667  -35.2254   -2.7197 C   0  0  0  0  0  0  0  0  0  0  0  0
  -45.6343  -29.1003    1.1321 C   0  0  0  0  0  0  0  0  0  0  0  0
  -43.4940  -27.9956    0.9417 C   0  0  0  0  0  0  0  0  0  0  0  0
  -45.6101  -34.0722    0.8785 C   0  0  0  0  0  0  0  0  0  0  0  0
  -45.5287  -26.7768    0.4799 C   0  0  0  0  0  0  0  0  0  0  0  0
  -43.8677  -34.0919   -2.1723 C   0  0  0  0  0  0  0  0  0  0  0  0
  -44.2428  -29.1384    1.2224 C   0  0  0  0  0  0  0  0  0  0  0  0
  -44.5285  -33.6275    0.1606 C   0  0  0  0  0  0  0  0  0  0  0  0
  -43.4236  -32.7269    0.5770 C   0  0  0  0  0  0  0  0  0  0  0  0
  -42.3854  -30.4684    2.2823 C   0  0  0  0  0  0  0  0  0  0  0  0
  -42.0471  -31.9342    2.4829 C   0  0  0  0  0  0  0  0  0  0  0  0
  -46.7213  -24.5845   -0.2110 N   0  0  0  0  0  0  0  0  0  0  0  0
  -46.3775  -34.8893    0.0958 N   0  0  0  0  0  0  0  0  0  0  0  0
  -45.8014  -34.9679   -1.0988 N   0  0  0  0  0  0  0  0  0  0  0  0
  -44.6930  -34.2108   -1.0582 N   0  0  0  0  0  0  0  0  0  0  0  0
  -43.6000  -30.3198    1.5937 N   0  0  0  0  0  0  0  0  0  0  0  0
  -43.0766  -32.7609    1.9247 N   0  0  0  0  0  0  0  0  0  0  0  0
  -42.8948  -31.9994   -0.2594 O   0  0  0  0  0  0  0  0  0  0  0  0
  -41.6730  -29.5686    2.7165 O   0  0  0  0  0  0  0  0  0  0  0  0
  -41.5671  -33.7604   -5.2747 H   0  0  0  0  0  0  0  0  0  0  0  0
  -42.6375  -31.7438   -4.3014 H   0  0  0  0  0  0  0  0  0  0  0  0
  -41.9720  -35.9897   -4.2616 H   0  0  0  0  0  0  0  0  0  0  0  0
  -47.3629  -27.9058    0.6952 H   0  0  0  0  0  0  0  0  0  0  0  0
  -43.5405  -25.9317    0.3546 H   0  0  0  0  0  0  0  0  0  0  0  0
  -44.1035  -31.9471   -2.3265 H   0  0  0  0  0  0  0  0  0  0  0  0
  -43.4350  -36.2083   -2.2863 H   0  0  0  0  0  0  0  0  0  0  0  0
  -46.2276  -29.9851    1.3494 H   0  0  0  0  0  0  0  0  0  0  0  0
  -42.4090  -28.0139    1.0080 H   0  0  0  0  0  0  0  0  0  0  0  0
  -45.8757  -33.8522    1.9019 H   0  0  0  0  0  0  0  0  0  0  0  0
  -41.9672  -32.1699    3.5476 H   0  0  0  0  0  0  0  0  0  0  0  0
  -41.1051  -32.1657    1.9772 H   0  0  0  0  0  0  0  0  0  0  0  0
  -44.0713  -31.1948    1.3354 H   0  0  0  0  0  0  0  0  0  0  0  0
  -43.6100  -33.3495    2.5644 H   0  0  0  0  0  0  0  0  0  0  0  0
  1 12  1  0  0  0  0
  1 19  3  0  0  0  0
  2  3  1  0  0  0  0
  2  4  2  0  0  0  0
  3  7  2  0  0  0  0
  4  8  1  0  0  0  0
  5  9  2  0  0  0  0
  5 12  1  0  0  0  0
  6 10  1  0  0  0  0
  6 12  2  0  0  0  0
  7 13  1  0  0  0  0
  8 13  2  0  0  0  0
  9 14  1  0  0  0  0
 10 14  2  0  0  0  0
 11 15  2  0  0  0  0
 11 20  1  0  0  0  0
 13 22  1  0  0  0  0
 14 23  1  0  0  0  0
 15 16  1  0  0  0  0
 15 22  1  0  0  0  0
 16 24  1  0  0  0  0
 16 25  2  0  0  0  0
 17 18  1  0  0  0  0
 17 23  1  0  0  0  0
 17 26  2  0  0  0  0
 18 24  1  0  0  0  0
 20 21  2  0  0  0  0
 21 22  1  0  0  0  0
  2 27  1  0  0  0  0
  3 28  1  0  0  0  0
  4 29  1  0  0  0  0
  5 30  1  0  0  0  0
  6 31  1  0  0  0  0
  7 32  1  0  0  0  0
  8 33  1  0  0  0  0
  9 34  1  0  0  0  0
 10 35  1  0  0  0  0
 11 36  1  0  0  0  0
 18 37  1  0  0  0  0
 18 38  1  0  0  0  0
 23 39  1  0  0  0  0
 24 40  1  0  0  0  0
M  END
> <POSIT::Probability>
0.23

> <POSIT::Method>
HYBRID

> <ReceptorTitle>
UCSF-P4661-REFINED_LIGAND-BOUND-STATE_A__DU__LA1_A-201(A)

> <OMEGA_C>
WL84wj2JzMFgJMo9LtgowrhpB8J89ozAlD8rwvbgAsI65XbA88ApwqlsDML9fXXAHBw5wltb38Gk
uEI/aowwwvyE1sEg/RE/vI8uwhBbA8Kddi/AHBEtwsTmDMJmDy7AiYk2wn3N6MEr55A/0/ktwv/2
38HMEXE/x3A2wvNJCMKQ5WA/WR02wvU21sEosvU+fngvwhFeCMKKBwvAmvgwwoQb6cEweZw/OR0y
womCBsIAdCQ+zrEtwk/oAsIEtxM/m4opwjO/88F1ERJAOzAowi55/8Fa6B5AoOI6whOtxMGwDli+
hoI5wrGOC8LAIsQ9mzQ3wibfC8JUpIy/rcUywtjXCMLAcoe/bWYuwvqO8sEE/ss/dE4swh4LA8KM
XPY/UpQrws/+/8HQy4S+HbEmwo6M7MFO2y1AqkQmwqEKB8I6yqjA2YwqwmDz/cH+pInAR+Mnwmr1
D8KwXojAj3M9wiI/38GQ+jE/eSkuwhB0z8HgjrU+82kwwpOT/8HW5BTAar0twk/VEMIYUhLADuk4
wm3h78G/t6w/3aIpwn8c4MEYB4E/tIA3wp1oB8IVcPM/cd4nwgOuAMJVDGNAp2skwrqpAMJPFv0/
DUkwwgqP+cEE7ao/mXAuwudlBcI4HyRA

> <OMEGA_E>
BeCpwA==

> <OMEGA_NBR>
     38694

$$$$
CACHE3HI_1704_63
  -OEChem-03092622543D

 42 43  0     0  0  0  0  0  0999 V2000
  -43.1121  -27.3349    0.9330 C   0  0  0  0  0  0  0  0  0  0  0  0
  -44.3345  -32.8735   -0.5735 C   0  0  0  0  0  0  0  0  0  0  0  0
  -45.7281  -33.8406    1.1474 C   0  0  0  0  0  0  0  0  0  0  0  0
  -43.6939  -26.2249    0.3608 C   0  0  0  0  0  0  0  0  0  0  0  0
  -44.5172  -33.2728    0.7505 C   0  0  0  0  0  0  0  0  0  0  0  0
  -44.1589  -28.1984    1.3405 C   0  0  0  0  0  0  0  0  0  0  0  0
  -45.3628  -33.0424   -1.5005 C   0  0  0  0  0  0  0  0  0  0  0  0
  -46.5737  -33.6101   -1.1036 C   0  0  0  0  0  0  0  0  0  0  0  0
  -46.7564  -34.0094    0.2203 C   0  0  0  0  0  0  0  0  0  0  0  0
  -45.3483  -27.5897    1.0054 C   0  0  0  0  0  0  0  0  0  0  0  0
  -43.3658  -30.5793    1.4997 C   0  0  0  0  0  0  0  0  0  0  0  0
  -46.0166  -25.4365   -0.0927 C   0  0  0  0  0  0  0  0  0  0  0  0
  -44.6341  -33.6111   -3.6920 C   0  0  0  0  0  0  0  0  0  0  0  0
  -48.4892  -32.6869   -2.1690 C   0  0  0  0  0  0  0  0  0  0  0  0
  -43.4175  -33.0938    1.7419 C   0  0  0  0  0  0  0  0  0  0  0  0
  -43.4505  -31.7433    2.4750 C   0  0  0  0  0  0  0  0  0  0  0  0
  -45.0535  -26.3910    0.4106 N   0  0  0  0  0  0  0  0  0  0  0  0
  -44.0298  -29.4552    1.9747 N   0  0  0  0  0  0  0  0  0  0  0  0
  -42.7382  -30.6935    0.4507 O   0  0  0  0  0  0  0  0  0  0  0  0
  -46.6058  -27.9809    1.1707 O   0  0  0  0  0  0  0  0  0  0  0  0
  -45.1716  -32.6457   -2.7898 O   0  0  0  0  0  0  0  0  0  0  0  0
  -47.5704  -33.7668   -2.0221 O   0  0  0  0  0  0  0  0  0  0  0  0
  -48.2431  -34.7141    0.7399 Cl  0  0  0  0  0  0  0  0  0  0  0  0
  -42.0488  -27.4989    1.0417 H   0  0  0  0  0  0  0  0  0  0  0  0
  -43.3917  -32.4303   -0.8850 H   0  0  0  0  0  0  0  0  0  0  0  0
  -45.8635  -34.1500    2.1815 H   0  0  0  0  0  0  0  0  0  0  0  0
  -43.2546  -25.3372   -0.0743 H   0  0  0  0  0  0  0  0  0  0  0  0
  -46.2544  -25.6373   -1.1427 H   0  0  0  0  0  0  0  0  0  0  0  0
  -45.6165  -24.4213   -0.0088 H   0  0  0  0  0  0  0  0  0  0  0  0
  -46.9548  -25.4951    0.4687 H   0  0  0  0  0  0  0  0  0  0  0  0
  -44.5320  -33.1662   -4.6852 H   0  0  0  0  0  0  0  0  0  0  0  0
  -43.6510  -33.9249   -3.3329 H   0  0  0  0  0  0  0  0  0  0  0  0
  -45.2969  -34.4783   -3.7362 H   0  0  0  0  0  0  0  0  0  0  0  0
  -49.2315  -32.9395   -2.9307 H   0  0  0  0  0  0  0  0  0  0  0  0
  -48.9932  -32.5163   -1.2147 H   0  0  0  0  0  0  0  0  0  0  0  0
  -47.9476  -31.7835   -2.4587 H   0  0  0  0  0  0  0  0  0  0  0  0
  -42.4459  -33.1878    1.2284 H   0  0  0  0  0  0  0  0  0  0  0  0
  -43.4301  -33.9088    2.4856 H   0  0  0  0  0  0  0  0  0  0  0  0
  -44.3944  -31.6369    3.0244 H   0  0  0  0  0  0  0  0  0  0  0  0
  -42.6479  -31.6778    3.2186 H   0  0  0  0  0  0  0  0  0  0  0  0
  -44.4668  -29.5234    2.8913 H   0  0  0  0  0  0  0  0  0  0  0  0
  -46.6415  -28.8619    1.6122 H   0  0  0  0  0  0  0  0  0  0  0  0
  1  4  2  0  0  0  0
  1  6  1  0  0  0  0
  2  5  1  0  0  0  0
  2  7  2  0  0  0  0
  3  5  2  0  0  0  0
  3  9  1  0  0  0  0
  4 17  1  0  0  0  0
  5 15  1  0  0  0  0
  6 10  2  0  0  0  0
  6 18  1  0  0  0  0
  7  8  1  0  0  0  0
  7 21  1  0  0  0  0
  8  9  2  0  0  0  0
  8 22  1  0  0  0  0
  9 23  1  0  0  0  0
 10 17  1  0  0  0  0
 10 20  1  0  0  0  0
 11 16  1  0  0  0  0
 11 18  1  0  0  0  0
 11 19  2  0  0  0  0
 12 17  1  0  0  0  0
 13 21  1  0  0  0  0
 14 22  1  0  0  0  0
 15 16  1  0  0  0  0
  1 24  1  0  0  0  0
  2 25  1  0  0  0  0
  3 26  1  0  0  0  0
  4 27  1  0  0  0  0
 12 28  1  0  0  0  0
 12 29  1  0  0  0  0
 12 30  1  0  0  0  0
 13 31  1  0  0  0  0
 13 32  1  0  0  0  0
 13 33  1  0  0  0  0
 14 34  1  0  0  0  0
 14 35  1  0  0  0  0
 14 36  1  0  0  0  0
 15 37  1  0  0  0  0
 15 38  1  0  0  0  0
 16 39  1  0  0  0  0
 16 40  1  0  0  0  0
 18 41  1  0  0  0  0
 20 42  1  0  0  0  0
M  END
> <POSIT::Probability>
0.14

> <POSIT::Method>
HYBRID

> <ReceptorTitle>
UCSF-P4661-REFINED_LIGAND-BOUND-STATE_A__DU__LA1_A-201(A)

> <OMEGA_C>
0nIswtut2sF01m4/gVYxwoB+A8IwzxK/iOk2wsRcB8Ko3pI/gsYuwn/M0cGwubg+phEywmMXBcKw
H0A/taIwwmKW4cE+lqs/inM1wmorBML4EMC/bEs6wstwBsIoQo2/mAY7wqwJCMKwm2E+n2Q1wsW3
3MGusYA/nXYtwoCi9MH29r8/+xA4wvZ9y8GA1729VIkywrxxBsLvSWzA/PRBwlq/AsJC0QrAhqst
whRgBMIw9d4/Tc0twlLy/cGqZh5AvDY0ws4g08FoNtI+jx4wwlGk68FmxPw/7vMqwj+M9cGgx+Y+
YWw6wvzY38Fu2ZU/rq80wjuVAsL4izLAIkg+wjcRB8JdaQHA8/hAwkfbCsIsbT0/9TEowsn928GA
VoU/HpEtwpi4AcJojGK/L3Q3wpWZCMIHnQtAqwQtwqayysGgH5i9jAQ5wkUZzcFGRJK/Q3c2wsRe
w8EAqA+8vtE7wvD1y8FA9+8+xyAywiSqBMJa7ZXApJouwhyzB8L+TlXACTA1wtPpCcKNHW/AEO1E
wgTCA8LSjzvADflDwqQQAsLeeZu/Uco/wo5E/sGHWh3An8gpwkXABMI0O50/eLgtwqiiB8L0Ex9A
4pMxwlgY/cGej0FAeJcqwhps/cEL/U1ABN4xwuYv7MFCCjlA3pA6wjXl5sEqW84/

> <OMEGA_E>
ybGAwA==

> <OMEGA_NBR>
     40025

$$$$
CACHE3HI_1704_67
  -OEChem-03092622543D

 43 44  0     1  0  0  0  0  0999 V2000
  -47.0814  -28.0586   -0.1820 C   0  0  0  0  0  0  0  0  0  0  0  0
  -46.1673  -27.1547   -0.7234 C   0  0  0  0  0  0  0  0  0  0  0  0
  -46.8078  -28.6814    1.0356 C   0  0  0  0  0  0  0  0  0  0  0  0
  -46.4721  -33.0855    1.5196 C   0  0  0  0  0  0  0  0  0  0  0  0
  -44.9800  -26.8734   -0.0471 C   0  0  0  0  0  0  0  0  0  0  0  0
  -45.6206  -28.4001    1.7119 C   0  0  0  0  0  0  0  0  0  0  0  0
  -46.7407  -34.0693    0.5679 C   0  0  0  0  0  0  0  0  0  0  0  0
  -45.3070  -32.3245    1.4254 C   0  0  0  0  0  0  0  0  0  0  0  0
  -44.6795  -33.5309   -0.5719 C   0  0  0  0  0  0  0  0  0  0  0  0
  -44.7065  -27.4962    1.1706 C   0  0  0  0  0  0  0  0  0  0  0  0
  -45.8446  -34.2919   -0.4778 C   0  0  0  0  0  0  0  0  0  0  0  0
  -44.4109  -32.5471    0.3797 C   0  0  0  0  0  0  0  0  0  0  0  0
  -42.7500  -30.8220    2.4141 C   0  0  0  0  0  0  0  0  0  0  0  0
  -40.9419  -31.6635    0.8738 C   0  0  0  0  0  0  0  0  0  0  0  0
  -47.3168  -35.9929   -1.2502 C   0  0  0  0  0  0  0  0  0  0  0  0
  -43.4224  -27.1923    1.9023 C   0  0  0  0  0  0  0  0  0  0  0  0
  -42.9194  -28.3668    2.7372 C   0  0  0  0  0  0  0  0  0  0  0  0
  -42.3621  -31.8690    1.3794 C   0  0  2  0  0  0  0  0  0  0  0  0
  -42.6281  -29.5281    1.9314 N   0  0  0  0  0  0  0  0  0  0  0  0
  -43.1100  -31.1191    3.5512 O   0  0  0  0  0  0  0  0  0  0  0  0
  -46.1073  -35.2518   -1.4064 O   0  0  0  0  0  0  0  0  0  0  0  0
  -43.2649  -31.7981    0.2879 O   0  0  0  0  0  0  0  0  0  0  0  0
  -48.0057  -28.2776   -0.7084 H   0  0  0  0  0  0  0  0  0  0  0  0
  -46.3804  -26.6694   -1.6713 H   0  0  0  0  0  0  0  0  0  0  0  0
  -47.5194  -29.3853    1.4572 H   0  0  0  0  0  0  0  0  0  0  0  0
  -47.1704  -32.9128    2.3333 H   0  0  0  0  0  0  0  0  0  0  0  0
  -44.2738  -26.1678   -0.4768 H   0  0  0  0  0  0  0  0  0  0  0  0
  -45.4167  -28.8895    2.6605 H   0  0  0  0  0  0  0  0  0  0  0  0
  -47.6499  -34.6592    0.6463 H   0  0  0  0  0  0  0  0  0  0  0  0
  -45.1030  -31.5594    2.1695 H   0  0  0  0  0  0  0  0  0  0  0  0
  -43.9809  -33.7040   -1.3867 H   0  0  0  0  0  0  0  0  0  0  0  0
  -40.8279  -30.6705    0.4240 H   0  0  0  0  0  0  0  0  0  0  0  0
  -40.2068  -31.7549    1.6796 H   0  0  0  0  0  0  0  0  0  0  0  0
  -40.7019  -32.3960    0.0955 H   0  0  0  0  0  0  0  0  0  0  0  0
  -47.4036  -36.7252   -2.0571 H   0  0  0  0  0  0  0  0  0  0  0  0
  -47.2934  -36.5135   -0.2897 H   0  0  0  0  0  0  0  0  0  0  0  0
  -48.1689  -35.3097   -1.2707 H   0  0  0  0  0  0  0  0  0  0  0  0
  -42.6515  -26.8811    1.1856 H   0  0  0  0  0  0  0  0  0  0  0  0
  -43.5917  -26.3284    2.5575 H   0  0  0  0  0  0  0  0  0  0  0  0
  -41.9888  -28.0918    3.2443 H   0  0  0  0  0  0  0  0  0  0  0  0
  -43.6460  -28.6665    3.4993 H   0  0  0  0  0  0  0  0  0  0  0  0
  -42.4633  -32.8638    1.8262 H   0  0  0  0  0  0  0  0  0  0  0  0
  -42.2813  -29.3767    0.9887 H   0  0  0  0  0  0  0  0  0  0  0  0
  1  2  1  0  0  0  0
  1  3  2  0  0  0  0
  2  5  2  0  0  0  0
  3  6  1  0  0  0  0
  4  7  1  0  0  0  0
  4  8  2  0  0  0  0
  5 10  1  0  0  0  0
  6 10  2  0  0  0  0
  7 11  2  0  0  0  0
  8 12  1  0  0  0  0
  9 11  1  0  0  0  0
  9 12  2  0  0  0  0
 10 16  1  0  0  0  0
 11 21  1  0  0  0  0
 12 22  1  0  0  0  0
 13 18  1  0  0  0  0
 13 19  1  0  0  0  0
 13 20  2  0  0  0  0
 14 18  1  0  0  0  0
 15 21  1  0  0  0  0
 16 17  1  0  0  0  0
 17 19  1  0  0  0  0
 18 22  1  0  0  0  0
  1 23  1  0  0  0  0
  2 24  1  0  0  0  0
  3 25  1  0  0  0  0
  4 26  1  0  0  0  0
  5 27  1  0  0  0  0
  6 28  1  0  0  0  0
  7 29  1  0  0  0  0
  8 30  1  0  0  0  0
  9 31  1  0  0  0  0
 14 32  1  0  0  0  0
 14 33  1  0  0  0  0
 14 34  1  0  0  0  0
 15 35  1  0  0  0  0
 15 36  1  0  0  0  0
 15 37  1  0  0  0  0
 16 38  1  0  0  0  0
 16 39  1  0  0  0  0
 17 40  1  0  0  0  0
 17 41  1  0  0  0  0
 18 42  1  0  0  0  0
 19 43  1  0  0  0  0
M  END
> <POSIT::Probability>
0.23

> <POSIT::Method>
HYBRID

> <ReceptorTitle>
UCSF-P4661-REFINED_LIGAND-BOUND-STATE_A__DU__LA1_A-201(A)

> <OMEGA_C>
Y1M8wvR34MHAZTq+Tqs4wsc82cGwLTm/PTs7wm5z5cH6j4Q/eOM5wplXBMKkgMI/iuszwrj81sHA
B0G9e3s2wlwz48GYHts/e/Y6wgFHCMIAXxE/ZTo1wlZMAcJ0dLY/yrcywqQfBsIIaxK/adMywkX4
28H81ZU/5GA3wvIqCcKwp/S+z6QxwkcwAsIgbMI+AwArwn6T9sEQgBpAi8QjwtRO/cEMsl8/XUQ9
wsT4D8JsBaC/lrAtwuaJ2cFpffM/gq0rwkLv4sGuLS9AwHIpwsbz/sGSj7A/JYMqwoU57MH6Nvc/
pnAswvzz+MECR2NA7G04ws0BDcJ8BbS/Tg8twnNi/sEQZpM+2wVAwpQ44sGAXDW/fYU5wtda1cFM
7dW/0xM+whwV68FAhbo/ca48wqumA8IXVRVAXBgxwq9X0cGgHfS+v6o1wsgd58FbRipAhJk+wgij
CsJYcyU/f2k0wr15/MFy2ApAauwvwtnQBsKQfrG/zU8jwi9d9cEAF9k+z9MgwhQK/sEc/dY/wc4i
woKVAcJAnMM9UZ09wpPmEsJ0pwPAbCw9wscNEsJAWJS+Aa1Awio9DcI4pqK/IJsqwpcM18FswZc/
6l0uwqig0sHarSNAgPQnwgi84MFbok9AdJUuwuVU5cHv9F9AYNopwox0A8KIv+k/FCApwnED68Hk
HX0/

> <OMEGA_E>
saZZwA==

> <OMEGA_NBR>
     41378

$$$$
CACHE3HI_1704_68
  -OEChem-03092622543D

 42 44  0     0  0  0  0  0  0999 V2000
  -41.8103  -29.4942    3.4488 C   0  0  0  0  0  0  0  0  0  0  0  0
  -47.1431  -29.8326    0.7377 C   0  0  0  0  0  0  0  0  0  0  0  0
  -41.1382  -30.6012    2.9306 C   0  0  0  0  0  0  0  0  0  0  0  0
  -47.2817  -28.5532    0.1995 C   0  0  0  0  0  0  0  0  0  0  0  0
  -43.0252  -29.0937    2.8929 C   0  0  0  0  0  0  0  0  0  0  0  0
  -45.9183  -30.2361    1.2692 C   0  0  0  0  0  0  0  0  0  0  0  0
  -41.6809  -31.3077    1.8571 C   0  0  0  0  0  0  0  0  0  0  0  0
  -46.1959  -27.6775    0.1928 C   0  0  0  0  0  0  0  0  0  0  0  0
  -46.1198  -34.2491    0.0008 C   0  0  0  0  0  0  0  0  0  0  0  0
  -46.0709  -35.4436   -2.0554 C   0  0  0  0  0  0  0  0  0  0  0  0
  -44.3346  -34.0242   -1.5545 C   0  0  0  0  0  0  0  0  0  0  0  0
  -43.5679  -29.8001    1.8194 C   0  0  0  0  0  0  0  0  0  0  0  0
  -44.8325  -29.3604    1.2625 C   0  0  0  0  0  0  0  0  0  0  0  0
  -42.8959  -30.9071    1.3013 C   0  0  0  0  0  0  0  0  0  0  0  0
  -46.7214  -35.1544   -0.8662 C   0  0  0  0  0  0  0  0  0  0  0  0
  -44.9038  -33.6688   -0.3424 C   0  0  0  0  0  0  0  0  0  0  0  0
  -44.9710  -28.0810    0.7242 C   0  0  0  0  0  0  0  0  0  0  0  0
  -43.4285  -31.6741    0.1810 C   0  0  0  0  0  0  0  0  0  0  0  0
  -48.0216  -35.7920   -0.5279 C   0  0  0  0  0  0  0  0  0  0  0  0
  -44.1689  -25.9222    0.1300 C   0  0  0  0  0  0  0  0  0  0  0  0
  -44.8889  -34.8997   -2.4227 N   0  0  0  0  0  0  0  0  0  0  0  0
  -44.2664  -32.7434    0.5202 N   0  0  0  0  0  0  0  0  0  0  0  0
  -43.1008  -31.3579   -0.9722 O   0  0  0  0  0  0  0  0  0  0  0  0
  -43.9256  -27.2055    0.7016 O   0  0  0  0  0  0  0  0  0  0  0  0
  -41.3877  -28.9445    4.2847 H   0  0  0  0  0  0  0  0  0  0  0  0
  -47.9893  -30.5133    0.7440 H   0  0  0  0  0  0  0  0  0  0  0  0
  -40.1925  -30.9133    3.3641 H   0  0  0  0  0  0  0  0  0  0  0  0
  -48.2359  -28.2382   -0.2126 H   0  0  0  0  0  0  0  0  0  0  0  0
  -43.5358  -28.2281    3.3087 H   0  0  0  0  0  0  0  0  0  0  0  0
  -45.8266  -31.2364    1.6859 H   0  0  0  0  0  0  0  0  0  0  0  0
  -41.1473  -32.1694    1.4639 H   0  0  0  0  0  0  0  0  0  0  0  0
  -46.3126  -26.6823   -0.2278 H   0  0  0  0  0  0  0  0  0  0  0  0
  -46.6003  -33.9975    0.9433 H   0  0  0  0  0  0  0  0  0  0  0  0
  -46.4918  -36.1424   -2.7716 H   0  0  0  0  0  0  0  0  0  0  0  0
  -43.3866  -33.6047   -1.8776 H   0  0  0  0  0  0  0  0  0  0  0  0
  -48.8702  -35.1966   -0.8943 H   0  0  0  0  0  0  0  0  0  0  0  0
  -48.1517  -35.8886    0.5597 H   0  0  0  0  0  0  0  0  0  0  0  0
  -48.0874  -36.7944   -0.9725 H   0  0  0  0  0  0  0  0  0  0  0  0
  -43.2557  -25.3230    0.1745 H   0  0  0  0  0  0  0  0  0  0  0  0
  -44.4688  -26.0485   -0.9131 H   0  0  0  0  0  0  0  0  0  0  0  0
  -44.9711  -25.4240    0.6793 H   0  0  0  0  0  0  0  0  0  0  0  0
  -44.4398  -32.8723    1.5144 H   0  0  0  0  0  0  0  0  0  0  0  0
  1  3  1  0  0  0  0
  1  5  2  0  0  0  0
  2  4  1  0  0  0  0
  2  6  2  0  0  0  0
  3  7  2  0  0  0  0
  4  8  2  0  0  0  0
  5 12  1  0  0  0  0
  6 13  1  0  0  0  0
  7 14  1  0  0  0  0
  8 17  1  0  0  0  0
  9 15  1  0  0  0  0
  9 16  2  0  0  0  0
 10 15  2  0  0  0  0
 10 21  1  0  0  0  0
 11 16  1  0  0  0  0
 11 21  2  0  0  0  0
 12 13  1  0  0  0  0
 12 14  2  0  0  0  0
 13 17  2  0  0  0  0
 14 18  1  0  0  0  0
 15 19  1  0  0  0  0
 16 22  1  0  0  0  0
 17 24  1  0  0  0  0
 18 22  1  0  0  0  0
 18 23  2  0  0  0  0
 20 24  1  0  0  0  0
  1 25  1  0  0  0  0
  2 26  1  0  0  0  0
  3 27  1  0  0  0  0
  4 28  1  0  0  0  0
  5 29  1  0  0  0  0
  6 30  1  0  0  0  0
  7 31  1  0  0  0  0
  8 32  1  0  0  0  0
  9 33  1  0  0  0  0
 10 34  1  0  0  0  0
 11 35  1  0  0  0  0
 19 36  1  0  0  0  0
 19 37  1  0  0  0  0
 19 38  1  0  0  0  0
 20 39  1  0  0  0  0
 20 40  1  0  0  0  0
 20 41  1  0  0  0  0
 22 42  1  0  0  0  0
M  END
> <POSIT::Probability>
0.33

> <POSIT::Method>
HYBRID

> <ReceptorTitle>
UCSF-P4661-REFINED_LIGAND-BOUND-STATE_A__DU__LA1_A-201(A)

> <OMEGA_C>
wD0nwi3068GauFxAk5I8whSp7sHw3Dw/fo0kwlTP9MEqjztAcyA9wvJs5MHAQUw+1RkswtS/6MHg
JTlAWKw3woDj8cGQc6I/Orkmwil2+sFItu0/jcg4wnJr3cFAcUU+rXo4whz/CMIAAFg6nUg4wkbG
DcJAjAPAmVYxwtQYCMIA+8a/kkUuwqpm7sGw4+g/c1QzwgHi6sGEmaE/XJUrwr5B98GkkKY/tOI6
wiaeDMKwv12/hJ0zwuKsBsLgSK++SOIzwvSl4MEgaDk/xbYtwohk/cHAUTk+IxZAwg0rD8KAIwe/
9qwwwp5gz8EAJgU+QY4zwkqZC8J0DRvAwhAxwjP5AsJQKgU/Mmcswujc+sFQ4Hi/xLMvwuqk2cHw
nTM//owlwmiO58FDHIlA//Q/wk4b9MFAdz4/HsUgwmZO98F2TVdAi/FAwuPn4cHAtVm+piQuwjnT
4cFMwlNAfU43whrk+cGQytc/zpYkwnutAMJcYbs/EkA5wmF11cGAPGm+s2Y6wm79B8KAfXE/oPc5
wsiREMIEYjHA64stwjBrBsIYVfC/DXtDwlbJDMJw7mS/XZtAwuiND8KgSg8/i1lAwm8tE8IA9Hi/
3AUtwpiVysFAtTI+AuAxwjpj0MHwvmm/cOIzwlxky8GA5C0/UMIxwjl9A8Kg1sE/

> <OMEGA_E>
VeNuwA==

> <OMEGA_NBR>
     42711

$$$$
CACHE3HI_1704_77
  -OEChem-03092622543D

 50 52  0     1  0  0  0  0  0999 V2000
  -47.2356  -36.3663   -1.2654 C   0  0  0  0  0  0  0  0  0  0  0  0
  -53.1068  -29.5842    8.3966 C   0  0  0  0  0  0  0  0  0  0  0  0
  -53.2436  -30.2054    7.1552 C   0  0  0  0  0  0  0  0  0  0  0  0
  -51.9246  -28.9159    8.7149 C   0  0  0  0  0  0  0  0  0  0  0  0
  -46.8774  -34.8136    0.5898 C   0  0  0  0  0  0  0  0  0  0  0  0
  -45.4778  -34.6695   -1.3744 C   0  0  0  0  0  0  0  0  0  0  0  0
  -48.6497  -29.7867    2.2107 C   0  0  0  0  0  0  0  0  0  0  0  0
  -47.4590  -29.6331    4.3074 C   0  0  0  0  0  0  0  0  0  0  0  0
  -47.4532  -29.6005    1.5183 C   0  0  0  0  0  0  0  0  0  0  0  0
  -46.2625  -29.4469    3.6151 C   0  0  0  0  0  0  0  0  0  0  0  0
  -52.1987  -30.1582    6.2322 C   0  0  0  0  0  0  0  0  0  0  0  0
  -50.8797  -28.8687    7.7919 C   0  0  0  0  0  0  0  0  0  0  0  0
  -46.1827  -33.7479    1.1621 C   0  0  0  0  0  0  0  0  0  0  0  0
  -44.7831  -33.6039   -0.8021 C   0  0  0  0  0  0  0  0  0  0  0  0
  -46.5248  -35.2742   -0.6787 C   0  0  0  0  0  0  0  0  0  0  0  0
  -48.6524  -29.8031    3.6054 C   0  0  0  0  0  0  0  0  0  0  0  0
  -46.2598  -29.4305    2.2203 C   0  0  0  0  0  0  0  0  0  0  0  0
  -51.0165  -29.4899    6.5505 C   0  0  0  0  0  0  0  0  0  0  0  0
  -45.1357  -33.1432    0.4664 C   0  0  0  0  0  0  0  0  0  0  0  0
  -49.8995  -29.9977    4.3277 C   0  0  0  0  0  0  0  0  0  0  0  0
  -44.9871  -29.2324    1.4831 C   0  0  0  0  0  0  0  0  0  0  0  0
  -43.3290  -31.3008    0.4914 C   0  0  0  0  0  0  0  0  0  0  0  0
  -41.7618  -30.7307    2.3664 C   0  0  0  0  0  0  0  0  0  0  0  0
  -42.8388  -30.2105    1.4293 C   0  0  2  0  0  0  0  0  0  0  0  0
  -47.8130  -37.2532   -1.7418 N   0  0  0  0  0  0  0  0  0  0  0  0
  -49.9550  -29.4418    5.6136 N   0  0  0  0  0  0  0  0  0  0  0  0
  -44.4227  -32.0494    1.0547 N   0  0  0  0  0  0  0  0  0  0  0  0
  -50.8134  -30.6453    3.7915 O   0  0  0  0  0  0  0  0  0  0  0  0
  -44.9234  -28.6943    0.3884 O   0  0  0  0  0  0  0  0  0  0  0  0
  -42.8450  -31.4848   -0.6191 O   0  0  0  0  0  0  0  0  0  0  0  0
  -43.9331  -29.7277    2.1918 O   0  0  0  0  0  0  0  0  0  0  0  0
  -53.9199  -29.6221    9.1156 H   0  0  0  0  0  0  0  0  0  0  0  0
  -54.1635  -30.7271    6.9075 H   0  0  0  0  0  0  0  0  0  0  0  0
  -51.8174  -28.4326    9.6815 H   0  0  0  0  0  0  0  0  0  0  0  0
  -47.6915  -35.2740    1.1445 H   0  0  0  0  0  0  0  0  0  0  0  0
  -45.1921  -35.0179   -2.3642 H   0  0  0  0  0  0  0  0  0  0  0  0
  -49.5733  -29.9183    1.6532 H   0  0  0  0  0  0  0  0  0  0  0  0
  -47.4504  -29.6444    5.3944 H   0  0  0  0  0  0  0  0  0  0  0  0
  -47.4619  -29.5899    0.4312 H   0  0  0  0  0  0  0  0  0  0  0  0
  -45.3390  -29.3146    4.1726 H   0  0  0  0  0  0  0  0  0  0  0  0
  -52.3170  -30.6472    5.2684 H   0  0  0  0  0  0  0  0  0  0  0  0
  -49.9628  -28.3451    8.0516 H   0  0  0  0  0  0  0  0  0  0  0  0
  -46.4662  -33.3963    2.1510 H   0  0  0  0  0  0  0  0  0  0  0  0
  -43.9684  -33.1409   -1.3531 H   0  0  0  0  0  0  0  0  0  0  0  0
  -42.1360  -31.5666    2.9682 H   0  0  0  0  0  0  0  0  0  0  0  0
  -41.4109  -29.9530    3.0523 H   0  0  0  0  0  0  0  0  0  0  0  0
  -40.9058  -31.1068    1.7964 H   0  0  0  0  0  0  0  0  0  0  0  0
  -42.4620  -29.3758    0.8297 H   0  0  0  0  0  0  0  0  0  0  0  0
  -49.1236  -28.9377    5.9133 H   0  0  0  0  0  0  0  0  0  0  0  0
  -44.7284  -31.7632    1.9782 H   0  0  0  0  0  0  0  0  0  0  0  0
  1 15  1  0  0  0  0
  1 25  3  0  0  0  0
  2  3  1  0  0  0  0
  2  4  2  0  0  0  0
  3 11  2  0  0  0  0
  4 12  1  0  0  0  0
  5 13  2  0  0  0  0
  5 15  1  0  0  0  0
  6 14  1  0  0  0  0
  6 15  2  0  0  0  0
  7  9  2  0  0  0  0
  7 16  1  0  0  0  0
  8 10  1  0  0  0  0
  8 16  2  0  0  0  0
  9 17  1  0  0  0  0
 10 17  2  0  0  0  0
 11 18  1  0  0  0  0
 12 18  2  0  0  0  0
 13 19  1  0  0  0  0
 14 19  2  0  0  0  0
 16 20  1  0  0  0  0
 17 21  1  0  0  0  0
 18 26  1  0  0  0  0
 19 27  1  0  0  0  0
 20 26  1  0  0  0  0
 20 28  2  0  0  0  0
 21 29  2  0  0  0  0
 21 31  1  0  0  0  0
 22 24  1  0  0  0  0
 22 27  1  0  0  0  0
 22 30  2  0  0  0  0
 23 24  1  0  0  0  0
 24 31  1  0  0  0  0
  2 32  1  0  0  0  0
  3 33  1  0  0  0  0
  4 34  1  0  0  0  0
  5 35  1  0  0  0  0
  6 36  1  0  0  0  0
  7 37  1  0  0  0  0
  8 38  1  0  0  0  0
  9 39  1  0  0  0  0
 10 40  1  0  0  0  0
 11 41  1  0  0  0  0
 12 42  1  0  0  0  0
 13 43  1  0  0  0  0
 14 44  1  0  0  0  0
 23 45  1  0  0  0  0
 23 46  1  0  0  0  0
 23 47  1  0  0  0  0
 24 48  1  0  0  0  0
 26 49  1  0  0  0  0
 27 50  1  0  0  0  0
M  END
> <POSIT::Probability>
0.24

> <POSIT::Method>
FRED

> <ReceptorTitle>
UCSF-P4661-REFINED_LIGAND-BOUND-STATE_A__DU__LA1_A-201(A)

> <OMEGA_C>
RvE8wiR3EcKA+KG/XG1Uwmis7MFiWAZBc/lUwqak8cEx9+RAzbJPwtJT58ElcAtBaoI7whdBC8Lw
+RY/OOk1wpytCsKY7K+/TJlCwixL7sGQew1ADNY9woQQ7cEf1olAEtA9wtfN7MHsVsI/2Aw5wjKT
68EMXWdAcstQwvND8cEObsdAzYRLwh3z5sEoV/lAH7s4wtv9BsJYv5Q/7iEzwmhqBsKwV02/aRk6
wtAYDcKAvi2/GpxCwsBs7sEwvmZAAwo5wppx68GCGQ5A2xBMwk3r68HhndFA74o0wqaSBMIgyO4+
FZlHwjb778G7fIpAv/IzwvTb6cH41b0/4lAtwhNo+sHglPs+HgwnwmDY9cFochdA8ForwjGv8cF8
87Y/hUA/wksDFcIg896/6NFHwteI68HNorNAz7AxwokyAMIU/4Y/+UBLwn0p9cEgqHJAjrEzwuuN
5cHQ1sY+QWErwt7g+8GQfB6/hLsvwlXS7cGmRQxA9q1Xwh367MFX2RFBcKdYwg3R9cEQCt1A+ERP
wgJ248GK5xpBFcQ+wosYDcLcf5I/sMQ0wlUSDMLAThfAGEtGwqVY78EUnNM/Ps09wrcn7cFEn6xA
B9k9whi47MHQwtw+Gls1wmSE6sHZhYVApkRRwoMt9cGBlqhA79lHwrnC4sGA0wBBZd05wtOVBcJs
qglAn98vwkeQBMJYMq2/PosownCI/MFA9z1AtqQlwrif78EYWUNAlp8jws3a+MFo8eU/G9kpwqEB
68EYZ1Q/nn5EwlKA58G1Ob1A1ekywhQb/sEsNf0/

> <OMEGA_E>
50/EwA==

> <OMEGA_NBR>
     44203

$$$$
CACHE3HI_1704_88
  -OEChem-03092622543D

 43 44  0     1  0  0  0  0  0999 V2000
  -47.0734  -24.5691   -0.3998 C   0  0  0  0  0  0  0  0  0  0  0  0
  -43.9374  -31.4688    1.9216 C   0  0  0  0  0  0  0  0  0  0  0  0
  -45.0399  -25.5212    0.5694 C   0  0  0  0  0  0  0  0  0  0  0  0
  -46.7922  -26.9909   -0.2095 C   0  0  0  0  0  0  0  0  0  0  0  0
  -50.5266  -30.0033    3.7576 C   0  0  0  0  0  0  0  0  0  0  0  0
  -49.0249  -29.2356    5.4877 C   0  0  0  0  0  0  0  0  0  0  0  0
  -44.2813  -26.6283    0.9498 C   0  0  0  0  0  0  0  0  0  0  0  0
  -46.0337  -28.0980    0.1708 C   0  0  0  0  0  0  0  0  0  0  0  0
  -49.4393  -30.2217    2.9116 C   0  0  0  0  0  0  0  0  0  0  0  0
  -47.9376  -29.4539    4.6417 C   0  0  0  0  0  0  0  0  0  0  0  0
  -46.2954  -25.7027   -0.0103 C   0  0  0  0  0  0  0  0  0  0  0  0
  -50.3192  -29.5104    5.0458 C   0  0  0  0  0  0  0  0  0  0  0  0
  -44.7781  -27.9165    0.7506 C   0  0  0  0  0  0  0  0  0  0  0  0
  -48.1450  -29.9469    3.3534 C   0  0  0  0  0  0  0  0  0  0  0  0
  -51.4524  -29.2830    5.9285 C   0  0  0  0  0  0  0  0  0  0  0  0
  -45.6943  -29.9717    2.7762 C   0  0  0  0  0  0  0  0  0  0  0  0
  -52.8427  -30.5688    8.4613 C   0  0  0  0  0  0  0  0  0  0  0  0
  -43.9565  -29.1148    1.1633 C   0  0  0  0  0  0  0  0  0  0  0  0
  -52.1417  -29.2504    8.2116 C   0  0  0  0  0  0  0  0  0  0  0  0
  -44.8096  -30.3287    1.5766 C   0  0  1  0  0  0  0  0  0  0  0  0
  -47.7055  -23.6486   -0.7161 N   0  0  0  0  0  0  0  0  0  0  0  0
  -43.2535  -32.3675    2.1918 N   0  0  0  0  0  0  0  0  0  0  0  0
  -47.0427  -30.1683    2.4950 N   0  0  0  0  0  0  0  0  0  0  0  0
  -52.5889  -28.9771    5.5441 O   0  0  0  0  0  0  0  0  0  0  0  0
  -45.2075  -29.5909    3.8379 O   0  0  0  0  0  0  0  0  0  0  0  0
  -51.1074  -29.4486    7.2421 O   0  0  0  0  0  0  0  0  0  0  0  0
  -44.6391  -24.5232    0.7319 H   0  0  0  0  0  0  0  0  0  0  0  0
  -47.7699  -27.1476   -0.6590 H   0  0  0  0  0  0  0  0  0  0  0  0
  -51.5302  -30.2215    3.4021 H   0  0  0  0  0  0  0  0  0  0  0  0
  -48.8514  -28.8508    6.4893 H   0  0  0  0  0  0  0  0  0  0  0  0
  -43.3044  -26.4780    1.4017 H   0  0  0  0  0  0  0  0  0  0  0  0
  -46.4284  -29.0982    0.0126 H   0  0  0  0  0  0  0  0  0  0  0  0
  -49.6124  -30.6066    1.9098 H   0  0  0  0  0  0  0  0  0  0  0  0
  -46.9336  -29.2356    4.9967 H   0  0  0  0  0  0  0  0  0  0  0  0
  -53.2948  -30.9510    7.5417 H   0  0  0  0  0  0  0  0  0  0  0  0
  -52.1382  -31.3137    8.8453 H   0  0  0  0  0  0  0  0  0  0  0  0
  -53.6255  -30.4517    9.2176 H   0  0  0  0  0  0  0  0  0  0  0  0
  -43.3049  -28.8096    1.9942 H   0  0  0  0  0  0  0  0  0  0  0  0
  -43.2748  -29.3905    0.3466 H   0  0  0  0  0  0  0  0  0  0  0  0
  -51.6919  -28.8738    9.1349 H   0  0  0  0  0  0  0  0  0  0  0  0
  -52.8469  -28.5069    7.8271 H   0  0  0  0  0  0  0  0  0  0  0  0
  -45.4436  -30.6423    0.7376 H   0  0  0  0  0  0  0  0  0  0  0  0
  -47.2811  -30.5286    1.5739 H   0  0  0  0  0  0  0  0  0  0  0  0
  1 11  1  0  0  0  0
  1 21  3  0  0  0  0
  2 20  1  0  0  0  0
  2 22  3  0  0  0  0
  3  7  2  0  0  0  0
  3 11  1  0  0  0  0
  4  8  1  0  0  0  0
  4 11  2  0  0  0  0
  5  9  2  0  0  0  0
  5 12  1  0  0  0  0
  6 10  1  0  0  0  0
  6 12  2  0  0  0  0
  7 13  1  0  0  0  0
  8 13  2  0  0  0  0
  9 14  1  0  0  0  0
 10 14  2  0  0  0  0
 12 15  1  0  0  0  0
 13 18  1  0  0  0  0
 14 23  1  0  0  0  0
 15 24  2  0  0  0  0
 15 26  1  0  0  0  0
 16 20  1  0  0  0  0
 16 23  1  0  0  0  0
 16 25  2  0  0  0  0
 17 19  1  0  0  0  0
 18 20  1  0  0  0  0
 19 26  1  0  0  0  0
  3 27  1  0  0  0  0
  4 28  1  0  0  0  0
  5 29  1  0  0  0  0
  6 30  1  0  0  0  0
  7 31  1  0  0  0  0
  8 32  1  0  0  0  0
  9 33  1  0  0  0  0
 10 34  1  0  0  0  0
 17 35  1  0  0  0  0
 17 36  1  0  0  0  0
 17 37  1  0  0  0  0
 18 38  1  0  0  0  0
 18 39  1  0  0  0  0
 19 40  1  0  0  0  0
 19 41  1  0  0  0  0
 20 42  1  0  0  0  0
 23 43  1  0  0  0  0
M  END
> <POSIT::Probability>
0.05

> <POSIT::Method>
FRED

> <ReceptorTitle>
UCSF-P4661-REFINED_LIGAND-BOUND-STATE_A__DU__LA1_A-201(A)

> <OMEGA_C>
Mks8wn2NxMF4uMy+6L8vwi3A+8GC9vU/zyg0wmorzMHsxhE/Pis7wlzt18Hgf1a+OxtKwtQG8MEX
fXBAfBlEwn7i6cH4mq9ABCAxwrUG1cFwI3M/giI4wpzI4MFA6y4+0sFFwgXG8cGkVzpAGMA/wqih
68GyiJRAdy45whqfzcEAhim830ZJwjoV7MFWd6FAyxwzwvdU38GQKUA/cJRAwkqT78HknlZAQs9N
wpFD6sFUtr1AAMc2wvTF78EWrTFA9l5Twt6M9MGcYQdBbdMvwjHr6MFc55Q/HpFQwt8A6sGnYgNB
FD0zwhah8sGOzMk/YtI+wj0wvcFcVTe/kQMtwl54AcIuRwxAuCs8wq5Y8cGkrh9A/1pSwjPR58H4
aLFAbtQ0whq67MEfoHVA+W1MwrSW68EUv+dAfI4ywosvxMHsXTs/VBQ/wjwu2cFUtSi/7B5OwrLF
8cE7vFlA0WdDwoTO5sFNqM9AvTctwt3S08HqarM/sLY5wgjJ6MEA4U48FXNGwlDa9MH4c/Q/BLw7
wpri6cEA5Z9A5C1VwpSb98HQVfFAiI1QwmWC+sEwhg1BfIBWwiOd88FTexNBLzgtwgx65sH+QP8/
YBktwsof68GIdLE+iMROwoH95sFnKBJBMGNTwiMO5MHKd/pAOMY1wmoj9cFU0Dw/2x89wpg69MEY
d8k/

> <OMEGA_E>
wNLjwA==

> <OMEGA_NBR>
     45553

$$$$
CACHE3HI_1707_24
  -OEChem-03092622543D

 45 46  0     1  0  0  0  0  0999 V2000
  -43.2704  -26.4965    0.7663 C   0  0  0  0  0  0  0  0  0  0  0  0
  -44.2961  -25.7575    0.1769 C   0  0  0  0  0  0  0  0  0  0  0  0
  -43.4616  -27.8479    1.0537 C   0  0  0  0  0  0  0  0  0  0  0  0
  -45.5126  -26.3696   -0.1254 C   0  0  0  0  0  0  0  0  0  0  0  0
  -44.6781  -28.4601    0.7515 C   0  0  0  0  0  0  0  0  0  0  0  0
  -45.5746  -34.4570   -0.5244 C   0  0  0  0  0  0  0  0  0  0  0  0
  -45.7038  -27.7211    0.1620 C   0  0  0  0  0  0  0  0  0  0  0  0
  -46.2610  -34.9327   -1.6578 C   0  0  0  0  0  0  0  0  0  0  0  0
  -46.5456  -34.3403    0.4402 C   0  0  0  0  0  0  0  0  0  0  0  0
  -43.8048  -32.6580   -0.4231 C   0  0  0  0  0  0  0  0  0  0  0  0
  -45.7050  -35.2382   -2.9880 C   0  0  0  0  0  0  0  0  0  0  0  0
  -46.4960  -33.8999    1.8445 C   0  0  0  0  0  0  0  0  0  0  0  0
  -42.7802  -30.5889    2.4395 C   0  0  0  0  0  0  0  0  0  0  0  0
  -46.8708  -29.7950    2.2626 C   0  0  0  0  0  0  0  0  0  0  0  0
  -44.1070  -34.1439   -0.3932 C   0  0  0  0  0  0  0  0  0  0  0  0
  -44.8444  -29.9272    1.0791 C   0  0  1  0  0  0  0  0  0  0  0  0
  -43.5216  -30.7206    1.1113 C   0  0  2  0  0  0  0  0  0  0  0  0
  -47.5664  -35.1063   -1.4351 N   0  0  0  0  0  0  0  0  0  0  0  0
  -47.7088  -34.7377   -0.1507 N   0  0  0  0  0  0  0  0  0  0  0  0
  -43.7806  -32.1237    0.8545 N   0  0  0  0  0  0  0  0  0  0  0  0
  -43.6156  -32.0260   -1.4592 O   0  0  0  0  0  0  0  0  0  0  0  0
  -45.4721  -30.0023    2.3627 O   0  0  0  0  0  0  0  0  0  0  0  0
  -47.2220  -28.4444   -0.2259 Cl  0  0  0  0  0  0  0  0  0  0  0  0
  -42.3233  -26.0197    1.0015 H   0  0  0  0  0  0  0  0  0  0  0  0
  -44.1473  -24.7051   -0.0469 H   0  0  0  0  0  0  0  0  0  0  0  0
  -42.6560  -28.4148    1.5132 H   0  0  0  0  0  0  0  0  0  0  0  0
  -46.3014  -25.7793   -0.5847 H   0  0  0  0  0  0  0  0  0  0  0  0
  -45.3692  -36.2873   -3.0682 H   0  0  0  0  0  0  0  0  0  0  0  0
  -44.8211  -34.6184   -3.2217 H   0  0  0  0  0  0  0  0  0  0  0  0
  -46.4514  -35.0663   -3.7821 H   0  0  0  0  0  0  0  0  0  0  0  0
  -46.6598  -32.8121    1.9474 H   0  0  0  0  0  0  0  0  0  0  0  0
  -45.5150  -34.1029    2.3110 H   0  0  0  0  0  0  0  0  0  0  0  0
  -47.2638  -34.4097    2.4517 H   0  0  0  0  0  0  0  0  0  0  0  0
  -43.4175  -30.9102    3.2715 H   0  0  0  0  0  0  0  0  0  0  0  0
  -42.4934  -29.5490    2.6305 H   0  0  0  0  0  0  0  0  0  0  0  0
  -41.8753  -31.2046    2.4612 H   0  0  0  0  0  0  0  0  0  0  0  0
  -47.3218  -29.8580    3.2564 H   0  0  0  0  0  0  0  0  0  0  0  0
  -47.0543  -28.8026    1.8439 H   0  0  0  0  0  0  0  0  0  0  0  0
  -47.3058  -30.5512    1.6051 H   0  0  0  0  0  0  0  0  0  0  0  0
  -43.7206  -34.5591    0.5459 H   0  0  0  0  0  0  0  0  0  0  0  0
  -43.5540  -34.6360   -1.2032 H   0  0  0  0  0  0  0  0  0  0  0  0
  -45.5393  -30.3906    0.3670 H   0  0  0  0  0  0  0  0  0  0  0  0
  -42.8660  -30.3942    0.2949 H   0  0  0  0  0  0  0  0  0  0  0  0
  -48.6324  -34.7843    0.2617 H   0  0  0  0  0  0  0  0  0  0  0  0
  -43.9825  -32.7159    1.6522 H   0  0  0  0  0  0  0  0  0  0  0  0
  1  2  1  0  0  0  0
  1  3  2  0  0  0  0
  2  4  2  0  0  0  0
  3  5  1  0  0  0  0
  4  7  1  0  0  0  0
  5  7  2  0  0  0  0
  5 16  1  0  0  0  0
  6  8  1  0  0  0  0
  6  9  2  0  0  0  0
  6 15  1  0  0  0  0
  7 23  1  0  0  0  0
  8 11  1  0  0  0  0
  8 18  2  0  0  0  0
  9 12  1  0  0  0  0
  9 19  1  0  0  0  0
 10 15  1  0  0  0  0
 10 20  1  0  0  0  0
 10 21  2  0  0  0  0
 13 17  1  0  0  0  0
 14 22  1  0  0  0  0
 16 17  1  0  0  0  0
 16 22  1  0  0  0  0
 17 20  1  0  0  0  0
 18 19  1  0  0  0  0
  1 24  1  0  0  0  0
  2 25  1  0  0  0  0
  3 26  1  0  0  0  0
  4 27  1  0  0  0  0
 11 28  1  0  0  0  0
 11 29  1  0  0  0  0
 11 30  1  0  0  0  0
 12 31  1  0  0  0  0
 12 32  1  0  0  0  0
 12 33  1  0  0  0  0
 13 34  1  0  0  0  0
 13 35  1  0  0  0  0
 13 36  1  0  0  0  0
 14 37  1  0  0  0  0
 14 38  1  0  0  0  0
 14 39  1  0  0  0  0
 15 40  1  0  0  0  0
 15 41  1  0  0  0  0
 16 42  1  0  0  0  0
 17 43  1  0  0  0  0
 19 44  1  0  0  0  0
 20 45  1  0  0  0  0
M  END
> <POSIT::Probability>
0.33

> <POSIT::Method>
HYBRID

> <ReceptorTitle>
UCSF-P4661-REFINED_LIGAND-BOUND-STATE_A__DU__LA1_A-201(A)

> <OMEGA_C>
2RQtwtf408HALkQ/Ki8xwkkPzsFAHTU+q9gtwoHI3sHg4IY/2ww2wgj10sFAZwC+XrYywj2u48Gg
YEA/XEw2wgTUCcLgQAa/qdA2ws3E3cHA6iU+SQs5whK7C8JUMdS/py46wm5cCcJgaOE+ITgvwsih
AsKgndi+6tE2wvbzDMImPD/A4/s5womZB8KoGOw/5R4rwhS29MEIIBxAuXs7wkFc7sHAzhBAh20w
wl2TCMKAU8m+tmAzwutq78EYH4o/KBYuwuPD9cFAP44/CkQ+wtdsDMKgsLe/y9U+wl7zCsLARBq+
TR8vwq9+AMKQv1o/Y3YuwqwaAMI4xrq/eeM1wqYE8MEINxdAYeM8wg+O48GAVWe+GkspwkEo0MGY
MIA/05YwwhekxcEAGEC9y58qwnZR48For8E/qjQ5wg08zsHwrxW/CHo1wi8mEcLgXUTA0kgzwj95
CsK4ME7AMs45wttDDMJWDXLAqqM6wpg/A8LYQ/k/XA82wmZpCMJ05xNAIQ49wpSjCcIw6RxAfKst
wiZI98EIYFFAQPkpwlNk7MFgWihAWYAnwhuj+cHohB1Af0k9wjrd7sE8aFBAmDc8wsdr5sHoA+w/
Kjk9wuNo9MFQcs0/5OEuwoo8CsLgvws/UzcuwkuLCsJ8A5q/PCg2wvof88Fg6rs+xnYrwmsn88Fg
/pY+m4dCwiojC8JA/YU+G+4vwh7dAsIQe9M/

> <OMEGA_E>
Ru6FwA==

> <OMEGA_NBR>
     46953

$$$$
CACHE3HI_1707_26
  -OEChem-03092622543D

 47 48  0     1  0  0  0  0  0999 V2000
  -46.0402  -26.2395   -0.0103 C   0  0  0  0  0  0  0  0  0  0  0  0
  -46.5447  -27.3901    0.5958 C   0  0  0  0  0  0  0  0  0  0  0  0
  -44.6662  -26.0999   -0.2052 C   0  0  0  0  0  0  0  0  0  0  0  0
  -45.6755  -28.4010    1.0065 C   0  0  0  0  0  0  0  0  0  0  0  0
  -43.7970  -27.1107    0.2055 C   0  0  0  0  0  0  0  0  0  0  0  0
  -44.3015  -28.2613    0.8115 C   0  0  0  0  0  0  0  0  0  0  0  0
  -46.4518  -36.0717   -1.4742 C   0  0  0  0  0  0  0  0  0  0  0  0
  -44.6252  -34.3612   -1.4577 C   0  0  0  0  0  0  0  0  0  0  0  0
  -45.8860  -34.8979    0.6517 C   0  0  0  0  0  0  0  0  0  0  0  0
  -44.1175  -33.0790   -0.8036 C   0  0  0  0  0  0  0  0  0  0  0  0
  -45.3568  -33.6080    1.2728 C   0  0  0  0  0  0  0  0  0  0  0  0
  -45.9808  -34.7829   -0.8743 C   0  0  0  0  0  0  0  0  0  0  0  0
  -45.1408  -29.5942    3.7293 C   0  0  0  0  0  0  0  0  0  0  0  0
  -43.9826  -28.6151    3.6170 C   0  0  0  0  0  0  0  0  0  0  0  0
  -42.8767  -29.1588    2.7059 C   0  0  0  0  0  0  0  0  0  0  0  0
  -43.3568  -29.3593    1.2577 C   0  0  1  0  0  0  0  0  0  0  0  0
  -44.0322  -33.2706    0.6740 N   0  0  0  0  0  0  0  0  0  0  0  0
  -44.0222  -30.6690    1.1149 N   0  0  0  0  0  0  0  0  0  0  0  0
  -45.8373  -36.7256   -2.3038 O   0  0  0  0  0  0  0  0  0  0  0  0
  -43.2838  -32.3169    2.9396 O   0  0  0  0  0  0  0  0  0  0  0  0
  -41.8082  -31.9930    0.9232 O   0  0  0  0  0  0  0  0  0  0  0  0
  -47.6625  -36.4181   -0.9734 O   0  0  0  0  0  0  0  0  0  0  0  0
  -43.1305  -32.0796    1.5157 S   0  0  0  0  0  0  0  0  0  0  0  0
  -46.7168  -25.4525   -0.3300 H   0  0  0  0  0  0  0  0  0  0  0  0
  -47.6146  -27.4992    0.7473 H   0  0  0  0  0  0  0  0  0  0  0  0
  -44.2732  -25.2040   -0.6769 H   0  0  0  0  0  0  0  0  0  0  0  0
  -46.0779  -29.2938    1.4779 H   0  0  0  0  0  0  0  0  0  0  0  0
  -42.7281  -26.9933    0.0484 H   0  0  0  0  0  0  0  0  0  0  0  0
  -44.7132  -34.2141   -2.5410 H   0  0  0  0  0  0  0  0  0  0  0  0
  -43.8901  -35.1639   -1.3104 H   0  0  0  0  0  0  0  0  0  0  0  0
  -45.2249  -35.7318    0.9231 H   0  0  0  0  0  0  0  0  0  0  0  0
  -46.8717  -35.1329    1.0712 H   0  0  0  0  0  0  0  0  0  0  0  0
  -43.1223  -32.8488   -1.1993 H   0  0  0  0  0  0  0  0  0  0  0  0
  -44.7832  -32.2383   -1.0304 H   0  0  0  0  0  0  0  0  0  0  0  0
  -46.0585  -32.7824    1.1078 H   0  0  0  0  0  0  0  0  0  0  0  0
  -45.2424  -33.7541    2.3524 H   0  0  0  0  0  0  0  0  0  0  0  0
  -46.7375  -34.0091   -1.1278 H   0  0  0  0  0  0  0  0  0  0  0  0
  -45.5690  -29.8102    2.7451 H   0  0  0  0  0  0  0  0  0  0  0  0
  -45.9321  -29.1756    4.3600 H   0  0  0  0  0  0  0  0  0  0  0  0
  -44.8139  -30.5384    4.1763 H   0  0  0  0  0  0  0  0  0  0  0  0
  -43.5786  -28.4217    4.6174 H   0  0  0  0  0  0  0  0  0  0  0  0
  -44.3604  -27.6625    3.2284 H   0  0  0  0  0  0  0  0  0  0  0  0
  -42.5021  -30.1023    3.1236 H   0  0  0  0  0  0  0  0  0  0  0  0
  -42.0342  -28.4542    2.7150 H   0  0  0  0  0  0  0  0  0  0  0  0
  -42.4781  -29.3601    0.6011 H   0  0  0  0  0  0  0  0  0  0  0  0
  -45.0093  -30.6602    1.4039 H   0  0  0  0  0  0  0  0  0  0  0  0
  -47.9910  -37.2600   -1.3563 H   0  0  0  0  0  0  0  0  0  0  0  0
  1  2  1  0  0  0  0
  1  3  2  0  0  0  0
  2  4  2  0  0  0  0
  3  5  1  0  0  0  0
  4  6  1  0  0  0  0
  5  6  2  0  0  0  0
  6 16  1  0  0  0  0
  7 12  1  0  0  0  0
  7 19  2  0  0  0  0
  7 22  1  0  0  0  0
  8 10  1  0  0  0  0
  8 12  1  0  0  0  0
  9 11  1  0  0  0  0
  9 12  1  0  0  0  0
 10 17  1  0  0  0  0
 11 17  1  0  0  0  0
 13 14  1  0  0  0  0
 14 15  1  0  0  0  0
 15 16  1  0  0  0  0
 16 18  1  0  0  0  0
 17 23  1  0  0  0  0
 18 23  1  0  0  0  0
 20 23  2  0  0  0  0
 21 23  2  0  0  0  0
  1 24  1  0  0  0  0
  2 25  1  0  0  0  0
  3 26  1  0  0  0  0
  4 27  1  0  0  0  0
  5 28  1  0  0  0  0
  8 29  1  0  0  0  0
  8 30  1  0  0  0  0
  9 31  1  0  0  0  0
  9 32  1  0  0  0  0
 10 33  1  0  0  0  0
 10 34  1  0  0  0  0
 11 35  1  0  0  0  0
 11 36  1  0  0  0  0
 12 37  1  0  0  0  0
 13 38  1  0  0  0  0
 13 39  1  0  0  0  0
 13 40  1  0  0  0  0
 14 41  1  0  0  0  0
 14 42  1  0  0  0  0
 15 43  1  0  0  0  0
 15 44  1  0  0  0  0
 16 45  1  0  0  0  0
 18 46  1  0  0  0  0
 22 47  1  0  0  0  0
M  END
> <POSIT::Probability>
0.18

> <POSIT::Method>
HYBRID

> <ReceptorTitle>
UCSF-P4661-REFINED_LIGAND-BOUND-STATE_A__DU__LA1_A-201(A)

> <OMEGA_C>
Lyk4wozq0cEASCi8yC06wgEf28EQhBg/LqoywpPM0MEAJlK+vrM2wjk148EQ1YA/IzAvwsri2MHA
clI+sTQxwjEX4sGwwE8/m845wnNJEMIQsby/KIAywtZxCcLIlrq/RYs3wniXC8LA1iY/X3gwwvBQ
BMJAuE2/V201wpxuBsKw6qI/UOw3wrchC8Lg0F+/JJA0wvzA7MHwrG5AJe4vwtDr5MEgfGdAtYEr
wlFF6cE6LS1AW20twsnf6sHM+6A/BSEwwhIVBcJgjCw/vhYwwiha9cHotI4/bVk3wgrnEsJQcRPA
nSItwnpEAcLwIjxAnTsnwsPx/8EAWmw/Y6Y+wiusEcLgMnm/oIUswndRAMJYAcI/Bd46wsKey8EA
+Ki+YHU+wlT+28FQTT8/uRcxwtqhycFQRy2/wU84wrdZ6sF4K70/jOkqwkPy18EAUEY9WNoywkjb
CML0niLAgI8vwuCnDMLAu6e/V+Y0wmDtDsLATWw/lnw7wguIDMJAHIk/Nn0swjNlA8Jggpm/9CEz
wgz0AMKo5IO/6zs4wjAhA8J4y40/O/g0wiYEB8IwjhZAJ/M6wksJCMJIW5C/s0Y2wlN77sE8sC9A
g7o3wrdn6cEohYtAckEzwp1O9MF1pIVAeVAuwplf48GPwZNADnExwuBM3cEInk5AIwIqwpPR8ME8
6UdACCMowkOi48HowS1AmekpwnHh6sHQ4xk/iAk0wi5I9cE4srM/w/Y/wjsKFcLYnK2/

> <OMEGA_E>
7peFwA==

> <OMEGA_NBR>
     48387

$$$$
CACHE3HI_1707_50
  -OEChem-03092622543D

 39 39  0     0  0  0  0  0  0999 V2000
  -43.3341  -32.1673   -0.0426 C   0  0  0  0  0  0  0  0  0  0  0  0
  -45.4614  -31.6395    1.0394 C   0  0  0  0  0  0  0  0  0  0  0  0
  -42.6887  -31.2052    0.7510 C   0  0  0  0  0  0  0  0  0  0  0  0
  -44.8188  -30.6609    1.8199 C   0  0  0  0  0  0  0  0  0  0  0  0
  -44.7141  -32.4008    0.1126 C   0  0  0  0  0  0  0  0  0  0  0  0
  -43.4283  -30.4521    1.6861 C   0  0  0  0  0  0  0  0  0  0  0  0
  -46.1926  -34.3476   -0.3129 C   0  0  0  0  0  0  0  0  0  0  0  0
  -45.6248  -35.9301   -2.2781 C   0  0  0  0  0  0  0  0  0  0  0  0
  -47.6519  -34.4139   -2.3500 C   0  0  0  0  0  0  0  0  0  0  0  0
  -47.6386  -36.4122   -0.8138 C   0  0  0  0  0  0  0  0  0  0  0  0
  -43.7880  -26.8715    1.6912 C   0  0  0  0  0  0  0  0  0  0  0  0
  -46.7613  -35.2821   -1.4211 C   0  0  0  0  0  0  0  0  0  0  0  0
  -44.4459  -26.8477    0.2956 C   0  0  0  0  0  0  0  0  0  0  0  0
  -45.3190  -33.3381   -0.7162 N   0  0  0  0  0  0  0  0  0  0  0  0
  -42.5843  -27.7498    1.7123 N   0  0  0  0  0  0  0  0  0  0  0  0
  -46.4432  -34.5453    0.8739 O   0  0  0  0  0  0  0  0  0  0  0  0
  -44.4434  -35.7945   -1.9747 O   0  0  0  0  0  0  0  0  0  0  0  0
  -41.1962  -29.6026    2.8307 O   0  0  0  0  0  0  0  0  0  0  0  0
  -43.4229  -28.9355    3.8625 O   0  0  0  0  0  0  0  0  0  0  0  0
  -45.9715  -36.6657   -3.3685 O   0  0  0  0  0  0  0  0  0  0  0  0
  -45.5082  -25.9996    0.3182 F   0  0  0  0  0  0  0  0  0  0  0  0
  -43.5522  -26.4129   -0.6330 F   0  0  0  0  0  0  0  0  0  0  0  0
  -44.8801  -28.0882   -0.0511 F   0  0  0  0  0  0  0  0  0  0  0  0
  -42.5966  -29.1856    2.6724 S   0  0  0  0  0  0  0  0  0  0  0  0
  -42.7711  -32.7291   -0.7733 H   0  0  0  0  0  0  0  0  0  0  0  0
  -46.5226  -31.8083    1.1483 H   0  0  0  0  0  0  0  0  0  0  0  0
  -41.6263  -31.0421    0.6452 H   0  0  0  0  0  0  0  0  0  0  0  0
  -45.3887  -30.0694    2.5212 H   0  0  0  0  0  0  0  0  0  0  0  0
  -48.0726  -35.0430   -3.1483 H   0  0  0  0  0  0  0  0  0  0  0  0
  -48.4699  -33.9701   -1.7635 H   0  0  0  0  0  0  0  0  0  0  0  0
  -47.0443  -33.6129   -2.7964 H   0  0  0  0  0  0  0  0  0  0  0  0
  -48.0234  -37.0524   -1.6214 H   0  0  0  0  0  0  0  0  0  0  0  0
  -47.0315  -37.0172   -0.1243 H   0  0  0  0  0  0  0  0  0  0  0  0
  -48.4820  -35.9670   -0.2656 H   0  0  0  0  0  0  0  0  0  0  0  0
  -43.4888  -25.8484    1.9629 H   0  0  0  0  0  0  0  0  0  0  0  0
  -44.5174  -27.2471    2.4240 H   0  0  0  0  0  0  0  0  0  0  0  0
  -45.1082  -33.2837   -1.6923 H   0  0  0  0  0  0  0  0  0  0  0  0
  -42.4137  -28.0324    0.7683 H   0  0  0  0  0  0  0  0  0  0  0  0
  -45.1877  -37.0048   -3.7846 H   0  0  0  0  0  0  0  0  0  0  0  0
  1  3  2  0  0  0  0
  1  5  1  0  0  0  0
  2  4  1  0  0  0  0
  2  5  2  0  0  0  0
  3  6  1  0  0  0  0
  4  6  2  0  0  0  0
  5 14  1  0  0  0  0
  6 24  1  0  0  0  0
  7 12  1  0  0  0  0
  7 14  1  0  0  0  0
  7 16  2  0  0  0  0
  8 12  1  0  0  0  0
  8 17  2  0  0  0  0
  8 20  1  0  0  0  0
  9 12  1  0  0  0  0
 10 12  1  0  0  0  0
 11 13  1  0  0  0  0
 11 15  1  0  0  0  0
 13 21  1  0  0  0  0
 13 22  1  0  0  0  0
 13 23  1  0  0  0  0
 15 24  1  0  0  0  0
 18 24  2  0  0  0  0
 19 24  2  0  0  0  0
  1 25  1  0  0  0  0
  2 26  1  0  0  0  0
  3 27  1  0  0  0  0
  4 28  1  0  0  0  0
  9 29  1  0  0  0  0
  9 30  1  0  0  0  0
  9 31  1  0  0  0  0
 10 32  1  0  0  0  0
 10 33  1  0  0  0  0
 10 34  1  0  0  0  0
 11 35  1  0  0  0  0
 11 36  1  0  0  0  0
 14 37  1  0  0  0  0
 15 38  1  0  0  0  0
 20 39  1  0  0  0  0
M  END
> <POSIT::Probability>
0.12

> <POSIT::Method>
SHAPEFIT

> <ReceptorTitle>
UCSF-P4661-REFINED_LIGAND-BOUND-STATE_A__DU__LA1_A-201(A)

> <OMEGA_C>
E1YtwlCrAMJAoi69e9g1wqwd/cEgC4U/M8EqwkWk+cHOPkA/dkYzwnNJ9cGJ8eg/PtsywmWaAcLw
oOY9nLYtwuud88G10Nc/PMU4wuljCcJRNKC+yX82wmK4D8KUyxHAjZs+wtenCcIyZhbA8o0+wh+m
EcLLVlC/5SYvwuP41sFDetg/kgs7wucgDcL95LW/m8gxwiPI1sFoXpc+nUY1wj5aBcI5Wze/SlYq
wpD/3cFTLNs/2MU5wm4uCsJ2uF8/FsYxwostD8Lyw/y/7cgkwi3S7MG4KTVABrEtwup758ECM3dA
3uI3wrapEsLqlFfAXAg2wjf/z8Ho8KI+aTUuwqRN08EVDiK/RYUzwoq04MHwVVG98GIqwhp86cFe
CStAmhUrwp7qAsIi9UW/GRc6wm93/sH2+5I/V4Emwj1W+MFQLCU/DI41wimO8MGNWiFAXEpAwgws
DML1fEnAL+FBwm3hB8LnuuG/Zi08wp5zBsLO9zLA/xdAwqM1FMLbiM+/OyA8wpURFMLRmP69iO1B
wj3eD8KS+oe+lfQtwp7JzsGDQfs/0REywgr62cFNIhtAzG40wosiBcL0m9i/q6cpwmtC4MFFskQ/
O8A0wugEFMKZNnLA

> <OMEGA_E>
2n+qPw==

> <OMEGA_NBR>
     49677

$$$$
CACHE3HI_1707_57
  -OEChem-03092622543D

 45 47  0     0  0  0  0  0  0999 V2000
  -49.3793  -29.0652    5.7683 C   0  0  0  0  0  0  0  0  0  0  0  0
  -50.4987  -29.4401    5.0253 C   0  0  0  0  0  0  0  0  0  0  0  0
  -49.0739  -29.9842    3.1513 C   0  0  0  0  0  0  0  0  0  0  0  0
  -47.9545  -29.6093    3.8944 C   0  0  0  0  0  0  0  0  0  0  0  0
  -48.1071  -29.1500    5.2027 C   0  0  0  0  0  0  0  0  0  0  0  0
  -50.3461  -29.8994    3.7169 C   0  0  0  0  0  0  0  0  0  0  0  0
  -44.4135  -26.4361    0.4120 C   0  0  0  0  0  0  0  0  0  0  0  0
  -43.3619  -26.9282    1.0768 C   0  0  0  0  0  0  0  0  0  0  0  0
  -45.6122  -27.2121    0.2444 C   0  0  0  0  0  0  0  0  0  0  0  0
  -45.6811  -28.4445    0.7593 C   0  0  0  0  0  0  0  0  0  0  0  0
  -43.4213  -28.3035    1.6596 C   0  0  0  0  0  0  0  0  0  0  0  0
  -46.2442  -30.5978    2.3324 C   0  0  0  0  0  0  0  0  0  0  0  0
  -53.5659  -27.3071    4.4770 C   0  0  0  0  0  0  0  0  0  0  0  0
  -53.3946  -28.3413    5.5727 C   0  0  0  0  0  0  0  0  0  0  0  0
  -52.7197  -27.8809    3.3519 C   0  0  0  0  0  0  0  0  0  0  0  0
  -53.4467  -29.6631    4.8183 C   0  0  0  0  0  0  0  0  0  0  0  0
  -44.7886  -30.3489    1.9823 C   0  0  0  0  0  0  0  0  0  0  0  0
  -44.6235  -29.0221    1.4654 N   0  0  0  0  0  0  0  0  0  0  0  0
  -52.9411  -29.3500    3.4491 N   0  0  0  0  0  0  0  0  0  0  0  0
  -46.6867  -29.6987    3.3144 N   0  0  0  0  0  0  0  0  0  0  0  0
  -42.4409  -28.7324    2.2661 O   0  0  0  0  0  0  0  0  0  0  0  0
  -46.9113  -31.4629    1.7737 O   0  0  0  0  0  0  0  0  0  0  0  0
  -52.0715  -31.7528    3.1130 O   0  0  0  0  0  0  0  0  0  0  0  0
  -51.5226  -29.9927    1.3958 O   0  0  0  0  0  0  0  0  0  0  0  0
  -47.0263  -28.7790    5.9457 O   0  0  0  0  0  0  0  0  0  0  0  0
  -51.7656  -30.3740    2.7760 S   0  0  0  0  0  0  0  0  0  0  0  0
  -49.5053  -28.7085    6.7870 H   0  0  0  0  0  0  0  0  0  0  0  0
  -51.4852  -29.3704    5.4750 H   0  0  0  0  0  0  0  0  0  0  0  0
  -48.9561  -30.3426    2.1312 H   0  0  0  0  0  0  0  0  0  0  0  0
  -44.3850  -25.4397   -0.0144 H   0  0  0  0  0  0  0  0  0  0  0  0
  -42.4524  -26.3543    1.2102 H   0  0  0  0  0  0  0  0  0  0  0  0
  -46.4432  -26.7795   -0.2998 H   0  0  0  0  0  0  0  0  0  0  0  0
  -46.5702  -29.0554    0.6500 H   0  0  0  0  0  0  0  0  0  0  0  0
  -54.6101  -27.1654    4.1855 H   0  0  0  0  0  0  0  0  0  0  0  0
  -53.1628  -26.3409    4.8034 H   0  0  0  0  0  0  0  0  0  0  0  0
  -52.4643  -28.2174    6.1339 H   0  0  0  0  0  0  0  0  0  0  0  0
  -54.2306  -28.2797    6.2799 H   0  0  0  0  0  0  0  0  0  0  0  0
  -53.0698  -27.5108    2.3818 H   0  0  0  0  0  0  0  0  0  0  0  0
  -51.6610  -27.6393    3.4768 H   0  0  0  0  0  0  0  0  0  0  0  0
  -52.7769  -30.4023    5.2698 H   0  0  0  0  0  0  0  0  0  0  0  0
  -54.4617  -30.0700    4.8029 H   0  0  0  0  0  0  0  0  0  0  0  0
  -44.4498  -31.0523    1.2169 H   0  0  0  0  0  0  0  0  0  0  0  0
  -44.1729  -30.4493    2.8809 H   0  0  0  0  0  0  0  0  0  0  0  0
  -45.9890  -29.0221    3.6435 H   0  0  0  0  0  0  0  0  0  0  0  0
  -47.3345  -28.4902    6.8234 H   0  0  0  0  0  0  0  0  0  0  0  0
  1  2  2  0  0  0  0
  1  5  1  0  0  0  0
  2  6  1  0  0  0  0
  3  4  1  0  0  0  0
  3  6  2  0  0  0  0
  4  5  2  0  0  0  0
  4 20  1  0  0  0  0
  5 25  1  0  0  0  0
  6 26  1  0  0  0  0
  7  8  2  0  0  0  0
  7  9  1  0  0  0  0
  8 11  1  0  0  0  0
  9 10  2  0  0  0  0
 10 18  1  0  0  0  0
 11 18  1  0  0  0  0
 11 21  2  0  0  0  0
 12 17  1  0  0  0  0
 12 20  1  0  0  0  0
 12 22  2  0  0  0  0
 13 14  1  0  0  0  0
 13 15  1  0  0  0  0
 14 16  1  0  0  0  0
 15 19  1  0  0  0  0
 16 19  1  0  0  0  0
 17 18  1  0  0  0  0
 19 26  1  0  0  0  0
 23 26  2  0  0  0  0
 24 26  2  0  0  0  0
  1 27  1  0  0  0  0
  2 28  1  0  0  0  0
  3 29  1  0  0  0  0
  7 30  1  0  0  0  0
  8 31  1  0  0  0  0
  9 32  1  0  0  0  0
 10 33  1  0  0  0  0
 13 34  1  0  0  0  0
 13 35  1  0  0  0  0
 14 36  1  0  0  0  0
 14 37  1  0  0  0  0
 15 38  1  0  0  0  0
 15 39  1  0  0  0  0
 16 40  1  0  0  0  0
 16 41  1  0  0  0  0
 17 42  1  0  0  0  0
 17 43  1  0  0  0  0
 20 44  1  0  0  0  0
 25 45  1  0  0  0  0
M  END
> <POSIT::Probability>
0.05

> <POSIT::Method>
FRED

> <ReceptorTitle>
UCSF-P4661-REFINED_LIGAND-BOUND-STATE_A__DU__LA1_A-201(A)

> <OMEGA_C>
Y4RFwnqF6MHjlbhApf5JwkeF68HrzqBAoktEwpbf78GFr0lAb9E/wsrf7MF1PXlAs21AwiIz6cGk
fKZAYmJJwvAx78EG4m1AZacxwhx908FQ99I+kHItwgJt18Fc1Yk/3nI2wkmy2cEgUHo+bbk2wlmO
48HIY0I/Zq8twpJt4sHebdQ/Gvo4wj3I9MHaRRVAc0NWwuZ02sGyQ49ADZRVwv664sFxU7JA9+BS
wiwM38FBhVZAeMlVwhVO7cGUL5pAkSczwpDK8sEAvP0/eX4ywjot6MFgkbs/t8NTwtfM6sHnvVxA
Ob86wuWW7cGtH1RAb8MpwgTc5cEzBxFAOKU7wvqz+8GkCeM/QElQwtMF/sHaOkdAHhdOwiLx78GY
qbI/9xo8wkw75sGNQ75A7w9Pwv/98sEDqjFAZgVGwuiq5cGzLtlA5PBNwpL26sF9M69ADtNDwpW9
8sESZQhAQooxwoKEy8EAbmy8Tc8pwqDV0sEE6Zo/1MU5wlE81sEQhJm+4kc6wopx6MEIZiY/w3Ba
wshS2cG274VAu6ZUwiS60sG4tZlAZdtRwke94cHDSMRAIuxYwtY84sHl9MhAcUdUwhUW3MG1bxhA
1KROwmId3cHng15AjBtTwtc388HUoahA1NhZwleP8MFLsZlAjMwxwitr+MEUwps/GLEwwiiY88HY
YDhAwfQ3wjQt6MF6L2lAhVY9wvLr48GTWdpA

> <OMEGA_E>
ZbrdwA==

> <OMEGA_NBR>
     51066

$$$$
CACHE3HI_1707_67
  -OEChem-03092622543D

 44 45  0     1  0  0  0  0  0999 V2000
  -44.9720  -33.9065   -2.0591 C   0  0  0  0  0  0  0  0  0  0  0  0
  -43.3302  -32.7489   -0.7162 C   0  0  0  0  0  0  0  0  0  0  0  0
  -43.7748  -33.1975   -1.9600 C   0  0  0  0  0  0  0  0  0  0  0  0
  -45.7243  -34.1670   -0.9138 C   0  0  0  0  0  0  0  0  0  0  0  0
  -44.0826  -33.0095    0.4290 C   0  0  0  0  0  0  0  0  0  0  0  0
  -45.2797  -33.7184    0.3300 C   0  0  0  0  0  0  0  0  0  0  0  0
  -42.9897  -32.9276   -3.1543 C   0  0  0  0  0  0  0  0  0  0  0  0
  -45.7211  -26.1804   -0.4002 C   0  0  0  0  0  0  0  0  0  0  0  0
  -45.6903  -30.8636    1.9770 C   0  0  0  0  0  0  0  0  0  0  0  0
  -43.6397  -29.8653    1.0562 C   0  0  0  0  0  0  0  0  0  0  0  0
  -46.1823  -29.4548    2.2764 C   0  0  0  0  0  0  0  0  0  0  0  0
  -44.2138  -28.4889    1.3959 C   0  0  1  0  0  0  0  0  0  0  0  0
  -47.0001  -34.9316   -1.0698 C   0  0  0  0  0  0  0  0  0  0  0  0
  -46.4539  -24.8815   -0.1980 C   0  0  0  0  0  0  0  0  0  0  0  0
  -43.7321  -27.4358    0.4080 C   0  0  0  0  0  0  0  0  0  0  0  0
  -44.1995  -30.8671    2.0115 N   0  0  2  0  0  0  0  0  0  0  0  0
  -44.6213  -26.2831    0.4244 N   0  0  0  0  0  0  0  0  0  0  0  0
  -43.2874  -33.2777   -4.3013 O   0  0  0  0  0  0  0  0  0  0  0  0
  -46.0885  -27.0107   -1.2280 O   0  0  0  0  0  0  0  0  0  0  0  0
  -42.0327  -32.2525    1.8440 O   0  0  0  0  0  0  0  0  0  0  0  0
  -44.0326  -33.2314    3.0230 O   0  0  0  0  0  0  0  0  0  0  0  0
  -45.6451  -28.5305    1.3285 O   0  0  0  0  0  0  0  0  0  0  0  0
  -41.8545  -32.2273   -2.8838 O   0  0  0  0  0  0  0  0  0  0  0  0
  -43.4653  -32.4135    1.9719 S   0  0  0  0  0  0  0  0  0  0  0  0
  -46.2260  -34.0496    1.7438 Cl  0  0  0  0  0  0  0  0  0  0  0  0
  -45.3184  -34.2569   -3.0289 H   0  0  0  0  0  0  0  0  0  0  0  0
  -42.3959  -32.1965   -0.6430 H   0  0  0  0  0  0  0  0  0  0  0  0
  -46.0816  -31.5576    2.7276 H   0  0  0  0  0  0  0  0  0  0  0  0
  -46.0244  -31.1822    0.9829 H   0  0  0  0  0  0  0  0  0  0  0  0
  -43.9126  -30.1623    0.0363 H   0  0  0  0  0  0  0  0  0  0  0  0
  -42.5480  -29.8461    1.1427 H   0  0  0  0  0  0  0  0  0  0  0  0
  -47.2734  -29.4156    2.2000 H   0  0  0  0  0  0  0  0  0  0  0  0
  -45.9062  -29.1387    3.2894 H   0  0  0  0  0  0  0  0  0  0  0  0
  -43.9182  -28.1876    2.4091 H   0  0  0  0  0  0  0  0  0  0  0  0
  -46.8280  -36.0104   -0.9761 H   0  0  0  0  0  0  0  0  0  0  0  0
  -47.4432  -34.7617   -2.0584 H   0  0  0  0  0  0  0  0  0  0  0  0
  -47.7211  -34.6237   -0.3046 H   0  0  0  0  0  0  0  0  0  0  0  0
  -46.0462  -24.1241   -0.8740 H   0  0  0  0  0  0  0  0  0  0  0  0
  -47.5177  -25.0209   -0.4126 H   0  0  0  0  0  0  0  0  0  0  0  0
  -46.3476  -24.5420    0.8367 H   0  0  0  0  0  0  0  0  0  0  0  0
  -42.7200  -27.1190    0.6756 H   0  0  0  0  0  0  0  0  0  0  0  0
  -43.6976  -27.8627   -0.5985 H   0  0  0  0  0  0  0  0  0  0  0  0
  -44.3857  -25.5286    1.0541 H   0  0  0  0  0  0  0  0  0  0  0  0
  -41.3174  -32.0394   -3.6834 H   0  0  0  0  0  0  0  0  0  0  0  0
  1  3  2  0  0  0  0
  1  4  1  0  0  0  0
  2  3  1  0  0  0  0
  2  5  2  0  0  0  0
  3  7  1  0  0  0  0
  4  6  2  0  0  0  0
  4 13  1  0  0  0  0
  5  6  1  0  0  0  0
  5 24  1  0  0  0  0
  6 25  1  0  0  0  0
  7 18  2  0  0  0  0
  7 23  1  0  0  0  0
  8 14  1  0  0  0  0
  8 17  1  0  0  0  0
  8 19  2  0  0  0  0
  9 11  1  0  0  0  0
  9 16  1  0  0  0  0
 10 12  1  0  0  0  0
 10 16  1  0  0  0  0
 11 22  1  0  0  0  0
 12 15  1  0  0  0  0
 12 22  1  0  0  0  0
 15 17  1  0  0  0  0
 16 24  1  0  0  0  0
 20 24  2  0  0  0  0
 21 24  2  0  0  0  0
  1 26  1  0  0  0  0
  2 27  1  0  0  0  0
  9 28  1  0  0  0  0
  9 29  1  0  0  0  0
 10 30  1  0  0  0  0
 10 31  1  0  0  0  0
 11 32  1  0  0  0  0
 11 33  1  0  0  0  0
 12 34  1  0  0  0  0
 13 35  1  0  0  0  0
 13 36  1  0  0  0  0
 13 37  1  0  0  0  0
 14 38  1  0  0  0  0
 14 39  1  0  0  0  0
 14 40  1  0  0  0  0
 15 41  1  0  0  0  0
 15 42  1  0  0  0  0
 17 43  1  0  0  0  0
 23 44  1  0  0  0  0
M  END
> <POSIT::Probability>
0.18

> <POSIT::Method>
HYBRID

> <ReceptorTitle>
UCSF-P4661-REFINED_LIGAND-BOUND-STATE_A__DU__LA1_A-201(A)

> <OMEGA_C>
UOMzwkOgB8KUxwPAHFItwuf+AsIgWTe/ZRkvwkXKBMLo4fq/vOU2wgmrCMKg8Wm/lVQwwrEJBMJA
q9s+dB41wqvfBsJA8qg+dfUrwuO1A8KI4EnAXOI2wntx0cEg7My+08I2wqno9sGQDv0/Fo8uwh3s
7sH4MYc/sbo4wluj68EksBFA+towwlHp48EArLI/EwA8wve5C8Kw74i/w9A5wkUNx8GAtkq+s+0u
wpB828Hg69A+QMwwwsLv9sF4vABAP3wywtlD0sFgTNk+QCYtwmEcBcIepInAqFo4wtoV2MEYL52/
ciEowpgCAcLAB+w/WCEwwv7sBMIUeUFAmpQ2wno+5MEYDKo//WonwrzoAMIgkDjAbtwtwninAcLQ
Zfw/Y+c4wswyCMJwNN8/CkY1whoHCcIK2UHAapUpwi3JAMIAmiS/klM4wvF1/MFokC5A8xg4wjR1
+cGAnHs/dKYvwlpM8cEAfxQ9LDEqwuDE7sH4QpI/9Bc9wg5T68EQzAxA7583wgAc6cEshlJASKwv
wiOA4cHYLhpA1k87wqAKEMJQ33m/0MU9wgYMC8I0vQPAbOI+wp9+CsKA85u+WC84wh3+wMHgvV+/
FhI+wtAqyMGgQ9O+92M5wgZWxMGgM1Y/ReEqwq7z2MEA8Sw/UMouwtrm3sGwNBm/74oxwqI6zMHA
7IY/AUUlwmIoAMKEvGvA

> <OMEGA_E>
L16QwA==

> <OMEGA_NBR>
     52444

$$$$
CACHE3HI_1707_80
  -OEChem-03092622543D

 43 45  0     1  0  0  0  0  0999 V2000
  -42.9024  -32.3410    0.1263 C   0  0  0  0  0  0  0  0  0  0  0  0
  -43.7931  -33.1670   -0.5646 C   0  0  0  0  0  0  0  0  0  0  0  0
  -43.3715  -31.4256    1.0817 C   0  0  0  0  0  0  0  0  0  0  0  0
  -45.1435  -33.0499   -0.2880 C   0  0  0  0  0  0  0  0  0  0  0  0
  -45.5988  -32.1435    0.6547 C   0  0  0  0  0  0  0  0  0  0  0  0
  -44.7368  -31.3229    1.3566 C   0  0  0  0  0  0  0  0  0  0  0  0
  -46.2824  -33.8217   -0.8329 C   0  0  0  0  0  0  0  0  0  0  0  0
  -43.3540  -27.7433    1.8644 C   0  0  0  0  0  0  0  0  0  0  0  0
  -43.4128  -26.2473    0.0783 C   0  0  0  0  0  0  0  0  0  0  0  0
  -44.4728  -28.1619    0.9272 C   0  0  2  0  0  0  0  0  0  0  0  0
  -44.7947  -26.8501    0.2393 C   0  0  2  0  0  0  0  0  0  0  0  0
  -47.4623  -33.0141   -0.2448 C   0  0  0  0  0  0  0  0  0  0  0  0
  -48.5135  -33.9399    0.3695 C   0  0  0  0  0  0  0  0  0  0  0  0
  -48.1136  -32.1130   -1.3023 C   0  0  0  0  0  0  0  0  0  0  0  0
  -46.8485  -28.6920    0.8148 C   0  0  0  0  0  0  0  0  0  0  0  0
  -45.6051  -28.7498    1.6248 N   0  0  1  0  0  0  0  0  0  0  0  0
  -44.2405  -29.9267    3.4955 O   0  0  0  0  0  0  0  0  0  0  0  0
  -46.5929  -30.6755    3.0614 O   0  0  0  0  0  0  0  0  0  0  0  0
  -46.9591  -32.1549    0.8186 O   0  0  0  0  0  0  0  0  0  0  0  0
  -42.6323  -26.6959    1.1947 O   0  0  0  0  0  0  0  0  0  0  0  0
  -45.4241  -27.0514   -1.0097 O   0  0  0  0  0  0  0  0  0  0  0  0
  -45.3170  -30.1881    2.5438 S   0  0  0  0  0  0  0  0  0  0  0  0
  -41.8365  -32.4116   -0.0723 H   0  0  0  0  0  0  0  0  0  0  0  0
  -43.4290  -33.8827   -1.2936 H   0  0  0  0  0  0  0  0  0  0  0  0
  -42.6558  -30.7983    1.6074 H   0  0  0  0  0  0  0  0  0  0  0  0
  -46.2905  -33.8464   -1.9268 H   0  0  0  0  0  0  0  0  0  0  0  0
  -46.2500  -34.8468   -0.4482 H   0  0  0  0  0  0  0  0  0  0  0  0
  -43.6980  -27.3814    2.8334 H   0  0  0  0  0  0  0  0  0  0  0  0
  -42.6513  -28.5640    2.0219 H   0  0  0  0  0  0  0  0  0  0  0  0
  -42.9124  -26.5502   -0.8473 H   0  0  0  0  0  0  0  0  0  0  0  0
  -43.4486  -25.1530    0.1252 H   0  0  0  0  0  0  0  0  0  0  0  0
  -44.0746  -28.9322    0.1952 H   0  0  0  0  0  0  0  0  0  0  0  0
  -45.4473  -26.1831    0.8471 H   0  0  0  0  0  0  0  0  0  0  0  0
  -49.3313  -33.3484    0.7753 H   0  0  0  0  0  0  0  0  0  0  0  0
  -48.0644  -34.5263    1.1682 H   0  0  0  0  0  0  0  0  0  0  0  0
  -48.9019  -34.6123   -0.3936 H   0  0  0  0  0  0  0  0  0  0  0  0
  -48.9360  -31.5630   -0.8533 H   0  0  0  0  0  0  0  0  0  0  0  0
  -48.4896  -32.7243   -2.1179 H   0  0  0  0  0  0  0  0  0  0  0  0
  -47.3764  -31.4120   -1.6859 H   0  0  0  0  0  0  0  0  0  0  0  0
  -47.6841  -29.1397    1.3604 H   0  0  0  0  0  0  0  0  0  0  0  0
  -47.0987  -27.6535    0.5802 H   0  0  0  0  0  0  0  0  0  0  0  0
  -46.7124  -29.2340   -0.1251 H   0  0  0  0  0  0  0  0  0  0  0  0
  -45.4911  -26.1797   -1.4292 H   0  0  0  0  0  0  0  0  0  0  0  0
  1  2  2  0  0  0  0
  1  3  1  0  0  0  0
  2  4  1  0  0  0  0
  3  6  2  0  0  0  0
  4  5  2  0  0  0  0
  4  7  1  0  0  0  0
  5  6  1  0  0  0  0
  5 19  1  0  0  0  0
  6 22  1  0  0  0  0
  7 12  1  0  0  0  0
  8 10  1  0  0  0  0
  8 20  1  0  0  0  0
  9 11  1  0  0  0  0
  9 20  1  0  0  0  0
 10 11  1  0  0  0  0
 10 16  1  0  0  0  0
 11 21  1  0  0  0  0
 12 13  1  0  0  0  0
 12 14  1  0  0  0  0
 12 19  1  0  0  0  0
 15 16  1  0  0  0  0
 16 22  1  0  0  0  0
 17 22  2  0  0  0  0
 18 22  2  0  0  0  0
  1 23  1  0  0  0  0
  2 24  1  0  0  0  0
  3 25  1  0  0  0  0
  7 26  1  0  0  0  0
  7 27  1  0  0  0  0
  8 28  1  0  0  0  0
  8 29  1  0  0  0  0
  9 30  1  0  0  0  0
  9 31  1  0  0  0  0
 10 32  1  0  0  0  0
 11 33  1  0  0  0  0
 13 34  1  0  0  0  0
 13 35  1  0  0  0  0
 13 36  1  0  0  0  0
 14 37  1  0  0  0  0
 14 38  1  0  0  0  0
 14 39  1  0  0  0  0
 15 40  1  0  0  0  0
 15 41  1  0  0  0  0
 15 42  1  0  0  0  0
 21 43  1  0  0  0  0
M  END
> <POSIT::Probability>
0.18

> <POSIT::Method>
HYBRID

> <ReceptorTitle>
UCSF-P4661-REFINED_LIGAND-BOUND-STATE_A__DU__LA1_A-201(A)

> <OMEGA_C>
F5wrwjBdAcIwSwE+JCwvwvyqBML4iBC/d3wtwrVn+8EgdYo/6JI0whAzBMLYbpO+N2U2wvSSAMJg
nSc/cvIywkqV+sFspq0/IyE5wmdJB8KgOlW/dGotwjPy3cHeo+4/vKYtwoT60cEAVqA9MOQxwntL
4cH0Xm0/xy0zwu/M1sHwFXU+Xtk9wn0OBMJwsHq+0Q1CwnPCB8I4Kr0+X3RAwrVzAMI0sKa/1mQ7
wi+J5cFMlFA/lWs2wo3/5cEc+M8/PPYwwutp78EGt19AH186wn9n9cHG7UNAKtY7wqSeAMJsjlE/
docqwk2R1cFM7Zg/T7I1wkZp2MG4PYG/l0Q1wj6B8cFszSJAh1gnwoalAcKAIJS9P7ctwu+HB8JC
k6W/lp8qwuFi9sG4v80/fSk5wrdiB8Iqofa//v84wiNjC8KwgOW+y8ouwg8N28E6VjVA8poqwgqD
5MHwZgFAV6Yrwrxm1MF06Vi/WMstwmE5ycFAKwA+a0wwwht158Fw5Ec+/8k1wuN20cEo3Vg/P1NF
wrZkBcKgfEY/6kFAwucaCsImh5U/jptDwgFzCsIwgcm+d75DwiCB/MHEcVq/ZvVBwrnlAsL1igfA
eYE9wtpL+8FozNe/f7w+wg4e6cHoIq4/EGU8wmw63cE0hhQ/dtk6wk3f6cGQJgC+4PY1wu9v0cGI
8La/

> <OMEGA_E>
iQKEwA==

> <OMEGA_NBR>
     53807

$$$$
CACHE3HI_1707_9
  -OEChem-03092622543D

 49 51  0     0  0  0  0  0  0999 V2000
  -49.3018  -34.2436    0.5570 C   0  0  0  0  0  0  0  0  0  0  0  0
  -48.3621  -33.9520    1.5414 C   0  0  0  0  0  0  0  0  0  0  0  0
  -45.8482  -33.8720   -2.8505 C   0  0  0  0  0  0  0  0  0  0  0  0
  -43.5524  -26.1903    0.7363 C   0  0  0  0  0  0  0  0  0  0  0  0
  -48.9162  -34.2982   -0.7833 C   0  0  0  0  0  0  0  0  0  0  0  0
  -47.0334  -33.7135    1.1895 C   0  0  0  0  0  0  0  0  0  0  0  0
  -47.1770  -34.1106   -2.4987 C   0  0  0  0  0  0  0  0  0  0  0  0
  -43.1811  -27.3543    1.4094 C   0  0  0  0  0  0  0  0  0  0  0  0
  -44.9090  -33.5800   -1.8655 C   0  0  0  0  0  0  0  0  0  0  0  0
  -44.7643  -26.1400    0.0478 C   0  0  0  0  0  0  0  0  0  0  0  0
  -45.2336  -28.4172    0.7057 C   0  0  0  0  0  0  0  0  0  0  0  0
  -47.5830  -34.0605   -1.1551 C   0  0  0  0  0  0  0  0  0  0  0  0
  -46.6274  -33.7638   -0.1541 C   0  0  0  0  0  0  0  0  0  0  0  0
  -44.0216  -28.4675    1.3942 C   0  0  0  0  0  0  0  0  0  0  0  0
  -45.2941  -33.5259   -0.5259 C   0  0  0  0  0  0  0  0  0  0  0  0
  -45.6048  -27.2532    0.0326 C   0  0  0  0  0  0  0  0  0  0  0  0
  -42.1132  -29.9290    2.1892 C   0  0  0  0  0  0  0  0  0  0  0  0
  -43.1603  -32.4380    0.2522 C   0  0  0  0  0  0  0  0  0  0  0  0
  -40.2910  -31.1253    1.0306 C   0  0  0  0  0  0  0  0  0  0  0  0
  -47.5988  -28.3777   -0.6131 C   0  0  0  0  0  0  0  0  0  0  0  0
  -43.6198  -29.7260    2.1227 C   0  0  0  0  0  0  0  0  0  0  0  0
  -42.3538  -32.3734    1.5362 C   0  0  0  0  0  0  0  0  0  0  0  0
  -44.3059  -33.2270    0.4200 N   0  0  0  0  0  0  0  0  0  0  0  0
  -41.6411  -31.1319    1.6113 N   0  0  0  0  0  0  0  0  0  0  0  0
  -41.3862  -29.0819    2.7178 O   0  0  0  0  0  0  0  0  0  0  0  0
  -42.8256  -31.8310   -0.7602 O   0  0  0  0  0  0  0  0  0  0  0  0
  -46.7879  -27.2037   -0.6386 O   0  0  0  0  0  0  0  0  0  0  0  0
  -50.3363  -34.4287    0.8314 H   0  0  0  0  0  0  0  0  0  0  0  0
  -48.6634  -33.9096    2.5840 H   0  0  0  0  0  0  0  0  0  0  0  0
  -45.5470  -33.9134   -3.8932 H   0  0  0  0  0  0  0  0  0  0  0  0
  -42.8980  -25.3238    0.7481 H   0  0  0  0  0  0  0  0  0  0  0  0
  -49.6677  -34.5281   -1.5357 H   0  0  0  0  0  0  0  0  0  0  0  0
  -46.3301  -33.4892    1.9883 H   0  0  0  0  0  0  0  0  0  0  0  0
  -47.8944  -34.3363   -3.2849 H   0  0  0  0  0  0  0  0  0  0  0  0
  -42.2350  -27.3852    1.9434 H   0  0  0  0  0  0  0  0  0  0  0  0
  -43.8770  -33.3968   -2.1548 H   0  0  0  0  0  0  0  0  0  0  0  0
  -45.0485  -25.2306   -0.4747 H   0  0  0  0  0  0  0  0  0  0  0  0
  -45.8912  -29.2831    0.6916 H   0  0  0  0  0  0  0  0  0  0  0  0
  -39.5475  -31.4047    1.7826 H   0  0  0  0  0  0  0  0  0  0  0  0
  -40.2336  -31.8343    0.1999 H   0  0  0  0  0  0  0  0  0  0  0  0
  -40.0485  -30.1291    0.6503 H   0  0  0  0  0  0  0  0  0  0  0  0
  -48.5129  -28.2032   -1.1865 H   0  0  0  0  0  0  0  0  0  0  0  0
  -47.0422  -29.2043   -1.0614 H   0  0  0  0  0  0  0  0  0  0  0  0
  -47.8470  -28.6276    0.4210 H   0  0  0  0  0  0  0  0  0  0  0  0
  -44.0735  -30.5868    1.6181 H   0  0  0  0  0  0  0  0  0  0  0  0
  -44.0205  -29.6875    3.1423 H   0  0  0  0  0  0  0  0  0  0  0  0
  -41.6211  -33.1842    1.5733 H   0  0  0  0  0  0  0  0  0  0  0  0
  -43.0271  -32.4384    2.3959 H   0  0  0  0  0  0  0  0  0  0  0  0
  -44.4369  -33.6334    1.3515 H   0  0  0  0  0  0  0  0  0  0  0  0
  1  2  1  0  0  0  0
  1  5  2  0  0  0  0
  2  6  2  0  0  0  0
  3  7  1  0  0  0  0
  3  9  2  0  0  0  0
  4  8  2  0  0  0  0
  4 10  1  0  0  0  0
  5 12  1  0  0  0  0
  6 13  1  0  0  0  0
  7 12  2  0  0  0  0
  8 14  1  0  0  0  0
  9 15  1  0  0  0  0
 10 16  2  0  0  0  0
 11 14  2  0  0  0  0
 11 16  1  0  0  0  0
 12 13  1  0  0  0  0
 13 15  2  0  0  0  0
 14 21  1  0  0  0  0
 15 23  1  0  0  0  0
 16 27  1  0  0  0  0
 17 21  1  0  0  0  0
 17 24  1  0  0  0  0
 17 25  2  0  0  0  0
 18 22  1  0  0  0  0
 18 23  1  0  0  0  0
 18 26  2  0  0  0  0
 19 24  1  0  0  0  0
 20 27  1  0  0  0  0
 22 24  1  0  0  0  0
  1 28  1  0  0  0  0
  2 29  1  0  0  0  0
  3 30  1  0  0  0  0
  4 31  1  0  0  0  0
  5 32  1  0  0  0  0
  6 33  1  0  0  0  0
  7 34  1  0  0  0  0
  8 35  1  0  0  0  0
  9 36  1  0  0  0  0
 10 37  1  0  0  0  0
 11 38  1  0  0  0  0
 19 39  1  0  0  0  0
 19 40  1  0  0  0  0
 19 41  1  0  0  0  0
 20 42  1  0  0  0  0
 20 43  1  0  0  0  0
 20 44  1  0  0  0  0
 21 45  1  0  0  0  0
 21 46  1  0  0  0  0
 22 47  1  0  0  0  0
 22 48  1  0  0  0  0
 23 49  1  0  0  0  0
M  END
> <POSIT::Probability>
0.33

> <POSIT::Method>
HYBRID

> <ReceptorTitle>
UCSF-P4661-REFINED_LIGAND-BOUND-STATE_A__DU__LA1_A-201(A)

> <OMEGA_C>
ETVFwm75CMJMmQ4/13JBwtzOB8KuS8U/jmQ3wvZ8B8IubzbApDUuwsuF0cFwfzw/OKpDwlgxCcLE
hUi/JyI8wpbaBsJQQpg/PrU8wjpxCMKC6h/AeLkswprV2sGIZ7Q/06IzwupRBsJiyO6/rw4zwrAe
0cEAuEM9PO80wlxW48EMpzQ//VQ+wu49CMJ425O/gII6wiQOB8IAyh2+JxYwwoW948GodrI/Li01
wnoaBsKMnwa/XWs2wp0G2sGAmwU94nMowopu78FVHAxAJ6QswoHAAcLAIIE+CCohwo0A+cEw6oM/
IGU+wpkF48EI8Ry/qnouwufO7cEa2gdAQ2opwlR+AcKWocQ/OzkxwnfoBMLYBdc+cpAmwg8O+cHG
P84/eoslwsin6MFH8C1AZ00rwtGl/sFonkK/yyY7wkah2cFwfSO/X1hJwgS3CcLY2FQ/V6dCwmOj
B8LaYCVAJTA2wlynB8IiKnnAg5crwi6XysEshj8/watGwtIcCsJIk8S//1E5wuz0BcIigv4/6pM/
wmxYCcLrO1LArPAows8U28E1wvg/EIIvwkqWBcJD6AnAnzE0wkbYycGACvO+jZA3wuFD6sHgDzE/
rDAews08+8FiLOQ/Lu8gwqGs/sHgtUw+nzEgwnEI8cEseiY/Kg1Cwjug4cEI35e/OCs8wlui6cHi
2oe/VWM/wkEF5cFok9c+Rkswwsix9ME3H88/+hQwwhqA7cFCG0lADXwmwpq8BMIiY8k/tRsswvXA
AcJxVhlAYb8xwo+IBsI7/qw/

> <OMEGA_E>
BByJwA==

> <OMEGA_NBR>
     55279

$$$$
CACHE3HI_1707_96
  -OEChem-03092622543D

 43 45  0     1  0  0  0  0  0999 V2000
  -48.7201  -35.6637    0.4362 C   0  0  0  0  0  0  0  0  0  0  0  0
  -48.6345  -35.6526   -0.9654 C   0  0  0  0  0  0  0  0  0  0  0  0
  -46.3517  -28.6827    1.2203 C   0  0  0  0  0  0  0  0  0  0  0  0
  -47.8261  -34.9191    1.2106 C   0  0  0  0  0  0  0  0  0  0  0  0
  -45.1192  -29.0932    1.7283 C   0  0  0  0  0  0  0  0  0  0  0  0
  -47.6570  -34.8945   -1.6120 C   0  0  0  0  0  0  0  0  0  0  0  0
  -46.4116  -27.6424    0.2931 C   0  0  0  0  0  0  0  0  0  0  0  0
  -44.0069  -27.4235    0.3821 C   0  0  0  0  0  0  0  0  0  0  0  0
  -46.8686  -34.1650    0.5574 C   0  0  0  0  0  0  0  0  0  0  0  0
  -43.9469  -28.4638    1.3092 C   0  0  0  0  0  0  0  0  0  0  0  0
  -46.7923  -34.1566   -0.8270 C   0  0  0  0  0  0  0  0  0  0  0  0
  -45.2393  -27.0130   -0.1260 C   0  0  0  0  0  0  0  0  0  0  0  0
  -43.0881  -31.3998    1.9050 C   0  0  0  0  0  0  0  0  0  0  0  0
  -45.7745  -33.3413    1.1172 C   0  0  0  0  0  0  0  0  0  0  0  0
  -45.3430  -32.6056   -0.1609 C   0  0  1  0  0  0  0  0  0  0  0  0
  -42.3151  -30.2114    3.9344 C   0  0  0  0  0  0  0  0  0  0  0  0
  -42.6202  -28.9064    1.8563 C   0  0  0  0  0  0  0  0  0  0  0  0
  -43.8383  -32.4075   -0.2395 C   0  0  0  0  0  0  0  0  0  0  0  0
  -43.4334  -31.2656    0.5694 N   0  0  0  0  0  0  0  0  0  0  0  0
  -42.7112  -30.1983    2.5327 N   0  0  0  0  0  0  0  0  0  0  0  0
  -43.1026  -32.4884    2.4868 O   0  0  0  0  0  0  0  0  0  0  0  0
  -45.7774  -33.3738   -1.3133 O   0  0  0  0  0  0  0  0  0  0  0  0
  -45.2978  -25.9984   -1.0314 O   0  0  0  0  0  0  0  0  0  0  0  0
  -49.4843  -36.2641    0.9226 H   0  0  0  0  0  0  0  0  0  0  0  0
  -49.3342  -36.2433   -1.5506 H   0  0  0  0  0  0  0  0  0  0  0  0
  -47.2642  -29.1726    1.5466 H   0  0  0  0  0  0  0  0  0  0  0  0
  -47.8819  -34.9411    2.2935 H   0  0  0  0  0  0  0  0  0  0  0  0
  -45.0813  -29.9045    2.4505 H   0  0  0  0  0  0  0  0  0  0  0  0
  -47.5852  -34.8868   -2.6937 H   0  0  0  0  0  0  0  0  0  0  0  0
  -47.3744  -27.3268   -0.0994 H   0  0  0  0  0  0  0  0  0  0  0  0
  -43.0950  -26.9306    0.0533 H   0  0  0  0  0  0  0  0  0  0  0  0
  -46.1085  -32.6432    1.8897 H   0  0  0  0  0  0  0  0  0  0  0  0
  -44.9830  -33.9855    1.5147 H   0  0  0  0  0  0  0  0  0  0  0  0
  -45.8415  -31.6283   -0.2197 H   0  0  0  0  0  0  0  0  0  0  0  0
  -41.2377  -30.3755    4.0280 H   0  0  0  0  0  0  0  0  0  0  0  0
  -42.5672  -29.2580    4.4072 H   0  0  0  0  0  0  0  0  0  0  0  0
  -42.8394  -31.0093    4.4675 H   0  0  0  0  0  0  0  0  0  0  0  0
  -41.8823  -28.9976    1.0524 H   0  0  0  0  0  0  0  0  0  0  0  0
  -42.2295  -28.1790    2.5755 H   0  0  0  0  0  0  0  0  0  0  0  0
  -43.3291  -33.3066    0.1218 H   0  0  0  0  0  0  0  0  0  0  0  0
  -43.5389  -32.2471   -1.2801 H   0  0  0  0  0  0  0  0  0  0  0  0
  -43.4035  -30.3520    0.1456 H   0  0  0  0  0  0  0  0  0  0  0  0
  -46.2293  -25.8474   -1.2750 H   0  0  0  0  0  0  0  0  0  0  0  0
  1  2  1  0  0  0  0
  1  4  2  0  0  0  0
  2  6  2  0  0  0  0
  3  5  2  0  0  0  0
  3  7  1  0  0  0  0
  4  9  1  0  0  0  0
  5 10  1  0  0  0  0
  6 11  1  0  0  0  0
  7 12  2  0  0  0  0
  8 10  2  0  0  0  0
  8 12  1  0  0  0  0
  9 11  2  0  0  0  0
  9 14  1  0  0  0  0
 10 17  1  0  0  0  0
 11 22  1  0  0  0  0
 12 23  1  0  0  0  0
 13 19  1  0  0  0  0
 13 20  1  0  0  0  0
 13 21  2  0  0  0  0
 14 15  1  0  0  0  0
 15 18  1  0  0  0  0
 15 22  1  0  0  0  0
 16 20  1  0  0  0  0
 17 20  1  0  0  0  0
 18 19  1  0  0  0  0
  1 24  1  0  0  0  0
  2 25  1  0  0  0  0
  3 26  1  0  0  0  0
  4 27  1  0  0  0  0
  5 28  1  0  0  0  0
  6 29  1  0  0  0  0
  7 30  1  0  0  0  0
  8 31  1  0  0  0  0
 14 32  1  0  0  0  0
 14 33  1  0  0  0  0
 15 34  1  0  0  0  0
 16 35  1  0  0  0  0
 16 36  1  0  0  0  0
 16 37  1  0  0  0  0
 17 38  1  0  0  0  0
 17 39  1  0  0  0  0
 18 40  1  0  0  0  0
 18 41  1  0  0  0  0
 19 42  1  0  0  0  0
 23 43  1  0  0  0  0
M  END
> <POSIT::Probability>
0.18

> <POSIT::Method>
HYBRID

> <ReceptorTitle>
UCSF-P4661-REFINED_LIGAND-BOUND-STATE_A__DU__LA1_A-201(A)

> <OMEGA_C>
b+FCwp6nDsKAW98+uolCwkmcDsLQJXe/G2g5whx25cFIMZw/800/wh6tC8IU9po/C3o0wtm+6MGI
Ot0/uKA+wvOTC8JsVc6/eaU5wpMj3cGQEJY+BAcwwklj28EgnMM+aXk7wvqoCMIosg4/oMkvwui1
48FYlac/RCs7wmigCMI4tlO/DvU0wqIa2MEACAG+MVoswrYy+8Ek2PM/EBk3wn9dBcKoAI8/PV81
whhsAsLguiS+qEIpwtqw8cGXzHtADHsqwmZA58Hkm+0/YFovwlShAcKgNHW+xrstwgQg+sEAwRE/
TtgqwgyW8cGpFyJAEGkswiL0AcJjJx9ABRw3ws5+BcK0Gqi/8zA1wq38z8GYBIS/7u9Fwm4OEcJ4
LGw/NlZFwjD5EMKoeca/gg49wpBh6cFo+MU/Goc/wrrDC8IqyRJATVM0wnw878H11BxARlc+whCM
C8JAZizAan89wlqd2sEAl8u9UGEsws5x18GANVo9JG84wp2SAsJo4vE/oO4zwhvxB8Kg4ME/sl03
wqgG/cGg9mC+b/MkwgkB88Fb5YBA0EQqwlsQ6sHAB41Ah1srwv8S+MGX9Y5AcIcnwhL758EAtIY/
++oowpRu4cGn1CRAAVEtwv45BcIAevk9yycuwgT9AMIw2aO/Jp0twtPQ8sGgIBU+1eo4wmHHzsH0
MaO/

> <OMEGA_E>
1rmRwA==

> <OMEGA_NBR>
     56636

$$$$
CACHE3HI_1708_36
  -OEChem-03092622543D

 45 47  0     1  0  0  0  0  0999 V2000
  -45.8572  -34.2246   -3.6855 C   0  0  0  0  0  0  0  0  0  0  0  0
  -47.0672  -33.8298   -3.1147 C   0  0  0  0  0  0  0  0  0  0  0  0
  -44.7665  -34.5240   -2.8693 C   0  0  0  0  0  0  0  0  0  0  0  0
  -47.1865  -33.7347   -1.7280 C   0  0  0  0  0  0  0  0  0  0  0  0
  -44.8858  -34.4289   -1.4827 C   0  0  0  0  0  0  0  0  0  0  0  0
  -43.1426  -27.3224    1.8949 C   0  0  0  0  0  0  0  0  0  0  0  0
  -42.4836  -28.1731    2.7825 C   0  0  0  0  0  0  0  0  0  0  0  0
  -43.9823  -29.2374    0.6845 C   0  0  0  0  0  0  0  0  0  0  0  0
  -43.3233  -30.0881    1.5720 C   0  0  0  0  0  0  0  0  0  0  0  0
  -46.0957  -34.0341   -0.9119 C   0  0  0  0  0  0  0  0  0  0  0  0
  -43.8918  -27.8547    0.8458 C   0  0  0  0  0  0  0  0  0  0  0  0
  -42.5740  -29.5558    2.6211 C   0  0  0  0  0  0  0  0  0  0  0  0
  -43.4316  -31.5432    1.3839 C   0  0  0  0  0  0  0  0  0  0  0  0
  -45.8519  -26.4940    0.0544 C   0  0  0  0  0  0  0  0  0  0  0  0
  -45.8652  -31.2821    1.6772 C   0  0  0  0  0  0  0  0  0  0  0  0
  -44.9732  -33.5712    1.4175 C   0  0  0  0  0  0  0  0  0  0  0  0
  -47.0323  -31.6881    0.7953 C   0  0  0  0  0  0  0  0  0  0  0  0
  -46.2252  -33.9307    0.5979 C   0  0  1  0  0  0  0  0  0  0  0  0
  -46.1914  -25.6049   -1.1155 C   0  0  0  0  0  0  0  0  0  0  0  0
  -44.7016  -32.1284    1.4316 N   0  0  0  0  0  0  0  0  0  0  0  0
  -44.5509  -27.0039   -0.0421 N   0  0  0  0  0  0  0  0  0  0  0  0
  -42.3775  -32.1451    1.1855 O   0  0  0  0  0  0  0  0  0  0  0  0
  -46.6675  -26.6935    0.9491 O   0  0  0  0  0  0  0  0  0  0  0  0
  -47.3232  -33.0760    0.9558 O   0  0  0  0  0  0  0  0  0  0  0  0
  -41.9227  -30.3696    3.4992 O   0  0  0  0  0  0  0  0  0  0  0  0
  -45.7642  -34.2986   -4.7650 H   0  0  0  0  0  0  0  0  0  0  0  0
  -47.9167  -33.5970   -3.7500 H   0  0  0  0  0  0  0  0  0  0  0  0
  -43.8243  -34.8312   -3.3136 H   0  0  0  0  0  0  0  0  0  0  0  0
  -48.1332  -33.4262   -1.2924 H   0  0  0  0  0  0  0  0  0  0  0  0
  -44.0307  -34.6653   -0.8550 H   0  0  0  0  0  0  0  0  0  0  0  0
  -43.0651  -26.2466    2.0305 H   0  0  0  0  0  0  0  0  0  0  0  0
  -41.9013  -27.7521    3.5977 H   0  0  0  0  0  0  0  0  0  0  0  0
  -44.5671  -29.6518   -0.1342 H   0  0  0  0  0  0  0  0  0  0  0  0
  -45.5549  -30.2543    1.4434 H   0  0  0  0  0  0  0  0  0  0  0  0
  -46.1537  -31.3100    2.7352 H   0  0  0  0  0  0  0  0  0  0  0  0
  -45.0605  -33.9774    2.4406 H   0  0  0  0  0  0  0  0  0  0  0  0
  -44.0747  -34.0432    0.9758 H   0  0  0  0  0  0  0  0  0  0  0  0
  -47.9292  -31.0962    1.0177 H   0  0  0  0  0  0  0  0  0  0  0  0
  -46.7804  -31.5217   -0.2577 H   0  0  0  0  0  0  0  0  0  0  0  0
  -46.5673  -34.9981    0.9385 H   0  0  0  0  0  0  0  0  0  0  0  0
  -46.6330  -26.1979   -1.9213 H   0  0  0  0  0  0  0  0  0  0  0  0
  -46.9118  -24.8434   -0.8044 H   0  0  0  0  0  0  0  0  0  0  0  0
  -45.2858  -25.1108   -1.4787 H   0  0  0  0  0  0  0  0  0  0  0  0
  -44.0208  -26.7119   -0.8709 H   0  0  0  0  0  0  0  0  0  0  0  0
  -41.4594  -29.8167    4.1536 H   0  0  0  0  0  0  0  0  0  0  0  0
  1  2  1  0  0  0  0
  1  3  2  0  0  0  0
  2  4  2  0  0  0  0
  3  5  1  0  0  0  0
  4 10  1  0  0  0  0
  5 10  2  0  0  0  0
  6  7  2  0  0  0  0
  6 11  1  0  0  0  0
  7 12  1  0  0  0  0
  8  9  1  0  0  0  0
  8 11  2  0  0  0  0
  9 12  2  0  0  0  0
  9 13  1  0  0  0  0
 10 18  1  0  0  0  0
 11 21  1  0  0  0  0
 12 25  1  0  0  0  0
 13 20  1  0  0  0  0
 13 22  2  0  0  0  0
 14 19  1  0  0  0  0
 14 21  1  0  0  0  0
 14 23  2  0  0  0  0
 15 17  1  0  0  0  0
 15 20  1  0  0  0  0
 16 18  1  0  0  0  0
 16 20  1  0  0  0  0
 17 24  1  0  0  0  0
 18 24  1  0  0  0  0
  1 26  1  0  0  0  0
  2 27  1  0  0  0  0
  3 28  1  0  0  0  0
  4 29  1  0  0  0  0
  5 30  1  0  0  0  0
  6 31  1  0  0  0  0
  7 32  1  0  0  0  0
  8 33  1  0  0  0  0
 15 34  1  0  0  0  0
 15 35  1  0  0  0  0
 16 36  1  0  0  0  0
 16 37  1  0  0  0  0
 17 38  1  0  0  0  0
 17 39  1  0  0  0  0
 18 40  1  0  0  0  0
 19 41  1  0  0  0  0
 19 42  1  0  0  0  0
 19 43  1  0  0  0  0
 21 44  1  0  0  0  0
 25 45  1  0  0  0  0
M  END
> <POSIT::Probability>
0.18

> <POSIT::Method>
HYBRID

> <ReceptorTitle>
UCSF-P4661-REFINED_LIGAND-BOUND-STATE_A__DU__LA1_A-201(A)

> <OMEGA_C>
x203wgHmCMJg32vAxEQ8wr1RB8KCVkfA4xAzwpwYCsJLozfA/b48wlrwBsJPMN2/G4szwjm3CcLf
yb2/+ZEswjqU2sHbjPI/Ku8pwoJi4cGuEzJA1O0vwjTm6cEyOy8/Dkstwnq08MF5Nsk/CWI4wvgi
CMJ+b2m/O5EvwnnW3sHahlg/xUsqwj1y7MHEwCdA9LktwnFY/MEuJLE/ZGg3wqvz08FAsV498HU3
ws9B+sHKrdY/jeQzwuhIBsKMcLU/EiE8wk6B/cEemUs/puY4wgO5B8LODRk/C8Q4wu7WzMHHyI6/
as4ywn2DAMKhPbc/GDQywukH2MEAWCy9kYIpwpSUAMLkvZc/eas6wjOM1cHW+XI/6ko9wtdNBMJ6
sHQ/3LAnwgj18sG08l9AjQ43wssxCcLMepjAqKo/wlxjBsJ3AHDAEkwvwi1TC8ISElTAaIhAwma0
BcJKbaW/dx8wwjupCsII4lq/nUIswgj50cHq8gFA+5onwjkE3sGsQGZAq0QywuA27cGgZgm+Pzg2
wtgI8sFdwLg/Xp04wut6+sG4DS9A6D00wtXoB8I3MxxAgEwwwkIsCMIqzXk/dLc/wgXF+MGAQ4I/
GR87wnks/MGI7oO+90Q6whD+C8KcPnA/NYg6wkqV0cE17PW/qKU7wly/xsEi602/niQ1wvHiyMHQ
Rb2/RRUwwvSx1cEQ8l6/a9YlwoyI7sGv6oRA

> <OMEGA_E>
ykKawA==

> <OMEGA_NBR>
     58033

$$$$
CACHE3HI_1708_52
  -OEChem-03092622543D

 35 37  0     0  0  0  0  0  0999 V2000
  -48.0557  -29.8133    1.6589 C   0  0  0  0  0  0  0  0  0  0  0  0
  -46.7047  -29.9013    2.0048 C   0  0  0  0  0  0  0  0  0  0  0  0
  -47.1466  -28.9690    4.2031 C   0  0  0  0  0  0  0  0  0  0  0  0
  -49.6679  -28.4099    4.5710 C   0  0  0  0  0  0  0  0  0  0  0  0
  -48.5141  -28.8711    3.8771 C   0  0  0  0  0  0  0  0  0  0  0  0
  -48.9363  -29.2944    2.6151 C   0  0  0  0  0  0  0  0  0  0  0  0
  -46.2552  -29.4863    3.2565 C   0  0  0  0  0  0  0  0  0  0  0  0
  -50.7478  -28.5596    3.7319 C   0  0  0  0  0  0  0  0  0  0  0  0
  -42.6580  -29.6584    3.4436 C   0  0  0  0  0  0  0  0  0  0  0  0
  -43.7897  -29.5113    2.7330 C   0  0  0  0  0  0  0  0  0  0  0  0
  -44.4028  -29.7941    4.9118 C   0  0  0  0  0  0  0  0  0  0  0  0
  -52.1165  -28.2364    3.9825 C   0  0  0  0  0  0  0  0  0  0  0  0
  -41.2429  -29.6534    3.0089 C   0  0  0  0  0  0  0  0  0  0  0  0
  -53.9053  -26.4545    3.8622 C   0  0  0  0  0  0  0  0  0  0  0  0
  -50.2969  -29.0936    2.5543 N   0  0  0  0  0  0  0  0  0  0  0  0
  -42.9922  -29.8304    4.7607 N   0  0  0  0  0  0  0  0  0  0  0  0
  -44.8990  -29.5861    3.5712 N   0  0  0  0  0  0  0  0  0  0  0  0
  -52.5602  -26.9385    3.6502 N   0  0  0  0  0  0  0  0  0  0  0  0
  -45.0398  -29.9136    5.9480 O   0  0  0  0  0  0  0  0  0  0  0  0
  -52.9033  -29.0683    4.5005 O   0  0  0  0  0  0  0  0  0  0  0  0
  -43.8955  -29.3173    1.3887 O   0  0  0  0  0  0  0  0  0  0  0  0
  -48.4055  -30.1368    0.6843 H   0  0  0  0  0  0  0  0  0  0  0  0
  -46.0028  -30.3012    1.2758 H   0  0  0  0  0  0  0  0  0  0  0  0
  -46.7938  -28.6458    5.1792 H   0  0  0  0  0  0  0  0  0  0  0  0
  -49.6992  -28.0115    5.5764 H   0  0  0  0  0  0  0  0  0  0  0  0
  -40.8366  -28.6378    3.0414 H   0  0  0  0  0  0  0  0  0  0  0  0
  -41.1546  -30.0317    1.9856 H   0  0  0  0  0  0  0  0  0  0  0  0
  -40.6400  -30.2919    3.6621 H   0  0  0  0  0  0  0  0  0  0  0  0
  -54.5093  -26.5899    2.9604 H   0  0  0  0  0  0  0  0  0  0  0  0
  -54.3772  -26.9981    4.6855 H   0  0  0  0  0  0  0  0  0  0  0  0
  -53.8882  -25.3912    4.1168 H   0  0  0  0  0  0  0  0  0  0  0  0
  -50.8762  -29.3104    1.7548 H   0  0  0  0  0  0  0  0  0  0  0  0
  -42.3302  -29.9638    5.5156 H   0  0  0  0  0  0  0  0  0  0  0  0
  -51.8815  -26.2745    3.2928 H   0  0  0  0  0  0  0  0  0  0  0  0
  -43.0201  -29.2950    0.9739 H   0  0  0  0  0  0  0  0  0  0  0  0
  1  2  2  0  0  0  0
  1  6  1  0  0  0  0
  2  7  1  0  0  0  0
  3  5  1  0  0  0  0
  3  7  2  0  0  0  0
  4  5  1  0  0  0  0
  4  8  2  0  0  0  0
  5  6  2  0  0  0  0
  6 15  1  0  0  0  0
  7 17  1  0  0  0  0
  8 12  1  0  0  0  0
  8 15  1  0  0  0  0
  9 10  2  0  0  0  0
  9 13  1  0  0  0  0
  9 16  1  0  0  0  0
 10 17  1  0  0  0  0
 10 21  1  0  0  0  0
 11 16  1  0  0  0  0
 11 17  1  0  0  0  0
 11 19  2  0  0  0  0
 12 18  1  0  0  0  0
 12 20  2  0  0  0  0
 14 18  1  0  0  0  0
  1 22  1  0  0  0  0
  2 23  1  0  0  0  0
  3 24  1  0  0  0  0
  4 25  1  0  0  0  0
 13 26  1  0  0  0  0
 13 27  1  0  0  0  0
 13 28  1  0  0  0  0
 14 29  1  0  0  0  0
 14 30  1  0  0  0  0
 14 31  1  0  0  0  0
 15 32  1  0  0  0  0
 16 33  1  0  0  0  0
 18 34  1  0  0  0  0
 21 35  1  0  0  0  0
M  END
> <POSIT::Probability>
0.02

> <POSIT::Method>
FRED

> <ReceptorTitle>
UCSF-P4661-REFINED_LIGAND-BOUND-STATE_A__DU__LA1_A-201(A)

> <OMEGA_C>
ATlAwqqB7sFKVdQ/ldE6wuk178FWTwBAG5Y8wm7A58Hsf4ZA96tGwntH48FLRZJAdg5CwhL45sHC
IXhAxr5DwuZa6sFyXSdAUAU5wtrj68EpalBAwP1KwgF65MEa125A1aEqwmxE7cE4ZFxArSgvwiQX
7MEy6S5Ad5wxwl9a7sGsLZ1ATHdQwi7k4cH24X5Avvgkwio67cEekUBACZ9XwtOi08GoLXdA+y9J
wsK/6MHWeSNACvgrwp6k7sHwV5hAkJgzwlGw7MFqjmRAmj1SwhuC18EYnWlAyyg0whRP78GeVb5A
A51TwsuL6MFHBJBA/JQvwryJ6sFov7E/QZ9BwiIY8cGELi8/6QI4wtxo8sEiTaM/1yw7wokq5cH/
u6VA9MtGwqAX4MG+cbJAtVgjwiAa5cH/pkJAWp4kwuBA8MHEKf4/WY8iwsdV8sFiX2pAiwlawjK4
1MF4dj1AOIJZwjP818Fl75VAkY1Xwighy8HcvINAOIFLwqt76sHQnOA/E1Ipwsy178EMgLBApYZP
wioy0sGkvVJAjxQswh1c6sEQUXk/

> <OMEGA_E>
gmANwQ==

> <OMEGA_NBR>
     59226

$$$$
CACHE3HI_1708_54
  -OEChem-03092622543D

 34 35  0     1  0  0  0  0  0999 V2000
  -49.4890  -29.2871    5.0872 C   0  0  0  0  0  0  0  0  0  0  0  0
  -48.3967  -28.5473    5.5649 C   0  0  0  0  0  0  0  0  0  0  0  0
  -49.3568  -30.1017    3.9599 C   0  0  0  0  0  0  0  0  0  0  0  0
  -47.1547  -28.6172    4.9304 C   0  0  0  0  0  0  0  0  0  0  0  0
  -48.1190  -30.1739    3.3430 C   0  0  0  0  0  0  0  0  0  0  0  0
  -47.0294  -29.4588    3.8376 C   0  0  0  0  0  0  0  0  0  0  0  0
  -43.6513  -26.3185    0.1584 C   0  0  0  0  0  0  0  0  0  0  0  0
  -47.7572  -30.9123    2.0947 C   0  0  0  0  0  0  0  0  0  0  0  0
  -46.2226  -30.7958    2.0753 C   0  0  0  0  0  0  0  0  0  0  0  0
  -42.7618  -25.3342   -0.5522 C   0  0  0  0  0  0  0  0  0  0  0  0
  -43.5748  -28.5047    1.3417 C   0  0  0  0  0  0  0  0  0  0  0  0
  -43.6244  -28.2715    2.8393 C   0  0  0  0  0  0  0  0  0  0  0  0
  -45.8895  -29.6498    2.9892 N   0  0  2  0  0  0  0  0  0  0  0  0
  -42.9503  -27.4145    0.6435 N   0  0  0  0  0  0  0  0  0  0  0  0
  -44.8631  -26.1425    0.2598 O   0  0  0  0  0  0  0  0  0  0  0  0
  -43.6336  -30.8375    3.3311 O   0  0  0  0  0  0  0  0  0  0  0  0
  -44.4815  -29.2503    5.1047 O   0  0  0  0  0  0  0  0  0  0  0  0
  -44.3538  -29.6368    3.7116 S   0  0  0  0  0  0  0  0  0  0  0  0
  -50.4493  -29.2131    5.5902 H   0  0  0  0  0  0  0  0  0  0  0  0
  -48.5227  -27.9051    6.4325 H   0  0  0  0  0  0  0  0  0  0  0  0
  -50.2085  -30.6526    3.5757 H   0  0  0  0  0  0  0  0  0  0  0  0
  -46.3250  -28.0234    5.2967 H   0  0  0  0  0  0  0  0  0  0  0  0
  -48.0770  -31.9579    2.1166 H   0  0  0  0  0  0  0  0  0  0  0  0
  -48.1947  -30.4107    1.2249 H   0  0  0  0  0  0  0  0  0  0  0  0
  -45.7736  -31.7191    2.4615 H   0  0  0  0  0  0  0  0  0  0  0  0
  -45.8446  -30.6099    1.0658 H   0  0  0  0  0  0  0  0  0  0  0  0
  -42.7075  -25.5926   -1.6138 H   0  0  0  0  0  0  0  0  0  0  0  0
  -43.1712  -24.3249   -0.4476 H   0  0  0  0  0  0  0  0  0  0  0  0
  -41.7564  -25.3500   -0.1210 H   0  0  0  0  0  0  0  0  0  0  0  0
  -44.5770  -28.6341    0.9224 H   0  0  0  0  0  0  0  0  0  0  0  0
  -42.9890  -29.4018    1.1201 H   0  0  0  0  0  0  0  0  0  0  0  0
  -42.6125  -28.1571    3.2404 H   0  0  0  0  0  0  0  0  0  0  0  0
  -44.2073  -27.3811    3.0932 H   0  0  0  0  0  0  0  0  0  0  0  0
  -41.9466  -27.4664    0.4738 H   0  0  0  0  0  0  0  0  0  0  0  0
  1  2  2  0  0  0  0
  1  3  1  0  0  0  0
  2  4  1  0  0  0  0
  3  5  2  0  0  0  0
  4  6  2  0  0  0  0
  5  6  1  0  0  0  0
  5  8  1  0  0  0  0
  6 13  1  0  0  0  0
  7 10  1  0  0  0  0
  7 14  1  0  0  0  0
  7 15  2  0  0  0  0
  8  9  1  0  0  0  0
  9 13  1  0  0  0  0
 11 12  1  0  0  0  0
 11 14  1  0  0  0  0
 12 18  1  0  0  0  0
 13 18  1  0  0  0  0
 16 18  2  0  0  0  0
 17 18  2  0  0  0  0
  1 19  1  0  0  0  0
  2 20  1  0  0  0  0
  3 21  1  0  0  0  0
  4 22  1  0  0  0  0
  8 23  1  0  0  0  0
  8 24  1  0  0  0  0
  9 25  1  0  0  0  0
  9 26  1  0  0  0  0
 10 27  1  0  0  0  0
 10 28  1  0  0  0  0
 10 29  1  0  0  0  0
 11 30  1  0  0  0  0
 11 31  1  0  0  0  0
 12 32  1  0  0  0  0
 12 33  1  0  0  0  0
 14 34  1  0  0  0  0
M  END
> <POSIT::Probability>
0.05

> <POSIT::Method>
FRED

> <ReceptorTitle>
UCSF-P4661-REFINED_LIGAND-BOUND-STATE_A__DU__LA1_A-201(A)

> <OMEGA_C>
uPRFwuxL6sFJyqJARZZBwtJg5MFGE7JAXW1Fwl/Q8MGBbn1AcJ48wv7v5MEYxp1A2XlAwilk8cH3
81VAGx48wpOr68EOm3VA9JouwlmM0sHYOyI+Zgc/wm5M98EdDwZA7eM4wuRd9sEb0QRAHAwrwmGs
ysHwXA2/jkwuwp4J5MGEu6s/bn8uwhAs4sGDtzVA1443wsQy7cFqTz9AEM0rwuFQ28EAvyQ/xXMz
wuIj0cH0/4Q+zYguwjGz9sF6MFVAGO0xwqsA6sGdWaNAQGoxwiQY7cGOim1AG8xJwly06cHM4rJA
NhdCwrg938FP181Ag9VIwpA49cF112RA2Ew5wtMv4MHjfqlAzU5AwuGp/8EZdgdAV8dAwg5J88Fb
yJw/LRg3wqbA/cGZiB1A22A3wg/h9MFBa4g/edQqwre9zMFfks6/Uq8swmCZwsEYMOW+hgYnwrjM
ysEQ2Pe92k4ywqQS5cHiI2w/u/Qrwtk268GYYI8/J3MqwsVB4cH6Yk9ATtQwwogM28FH9kVAWckn
wkS728H4m/I+

> <OMEGA_E>
mFANwQ==

> <OMEGA_NBR>
     60395

$$$$
CACHE3HI_1708_67
  -OEChem-03092622543D

 36 38  0     0  0  0  0  0  0999 V2000
  -43.7063  -26.1747    0.4881 C   0  0  0  0  0  0  0  0  0  0  0  0
  -44.9048  -26.5251   -0.1336 C   0  0  0  0  0  0  0  0  0  0  0  0
  -43.0445  -27.0988    1.2966 C   0  0  0  0  0  0  0  0  0  0  0  0
  -45.4413  -27.7992    0.0530 C   0  0  0  0  0  0  0  0  0  0  0  0
  -46.1191  -34.1298    0.3807 C   0  0  0  0  0  0  0  0  0  0  0  0
  -44.4450  -32.4376   -0.0348 C   0  0  0  0  0  0  0  0  0  0  0  0
  -44.5860  -34.3751   -1.4705 C   0  0  0  0  0  0  0  0  0  0  0  0
  -42.3249  -30.5713    2.0510 C   0  0  0  0  0  0  0  0  0  0  0  0
  -42.5993  -29.0896    3.6520 C   0  0  0  0  0  0  0  0  0  0  0  0
  -43.5810  -28.3729    1.4831 C   0  0  0  0  0  0  0  0  0  0  0  0
  -42.8741  -29.3039    2.3232 C   0  0  0  0  0  0  0  0  0  0  0  0
  -45.5140  -32.9198    0.7206 C   0  0  0  0  0  0  0  0  0  0  0  0
  -44.7795  -28.7233    0.8615 C   0  0  0  0  0  0  0  0  0  0  0  0
  -45.6550  -34.8574   -0.7151 C   0  0  0  0  0  0  0  0  0  0  0  0
  -43.9809  -33.1652   -1.1307 C   0  0  0  0  0  0  0  0  0  0  0  0
  -45.2474  -30.8428    2.1395 C   0  0  0  0  0  0  0  0  0  0  0  0
  -46.0138  -32.1347    1.9040 C   0  0  0  0  0  0  0  0  0  0  0  0
  -41.7452  -31.1228    3.1204 N   0  0  0  0  0  0  0  0  0  0  0  0
  -41.9284  -30.1980    4.0780 N   0  0  0  0  0  0  0  0  0  0  0  0
  -45.3434  -29.9925    1.0286 N   0  0  0  0  0  0  0  0  0  0  0  0
  -44.6432  -30.6198    3.1838 O   0  0  0  0  0  0  0  0  0  0  0  0
  -46.4002  -36.3506   -1.1351 Cl  0  0  0  0  0  0  0  0  0  0  0  0
  -42.6647  -32.5691   -2.0654 Cl  0  0  0  0  0  0  0  0  0  0  0  0
  -43.2884  -25.1830    0.3418 H   0  0  0  0  0  0  0  0  0  0  0  0
  -45.4203  -25.8058   -0.7632 H   0  0  0  0  0  0  0  0  0  0  0  0
  -42.1116  -26.8087    1.7741 H   0  0  0  0  0  0  0  0  0  0  0  0
  -46.3761  -28.0593   -0.4376 H   0  0  0  0  0  0  0  0  0  0  0  0
  -46.9517  -34.5017    0.9734 H   0  0  0  0  0  0  0  0  0  0  0  0
  -43.9764  -31.4941    0.2358 H   0  0  0  0  0  0  0  0  0  0  0  0
  -44.2255  -34.9422   -2.3263 H   0  0  0  0  0  0  0  0  0  0  0  0
  -42.3216  -31.1198    1.1192 H   0  0  0  0  0  0  0  0  0  0  0  0
  -42.8157  -28.2703    4.3235 H   0  0  0  0  0  0  0  0  0  0  0  0
  -47.0753  -31.8959    1.7628 H   0  0  0  0  0  0  0  0  0  0  0  0
  -45.9493  -32.7508    2.8097 H   0  0  0  0  0  0  0  0  0  0  0  0
  -41.5687  -30.3899    5.0046 H   0  0  0  0  0  0  0  0  0  0  0  0
  -45.8971  -30.3468    0.2424 H   0  0  0  0  0  0  0  0  0  0  0  0
  1  2  1  0  0  0  0
  1  3  2  0  0  0  0
  2  4  2  0  0  0  0
  3 10  1  0  0  0  0
  4 13  1  0  0  0  0
  5 12  1  0  0  0  0
  5 14  2  0  0  0  0
  6 12  2  0  0  0  0
  6 15  1  0  0  0  0
  7 14  1  0  0  0  0
  7 15  2  0  0  0  0
  8 11  1  0  0  0  0
  8 18  2  0  0  0  0
  9 11  2  0  0  0  0
  9 19  1  0  0  0  0
 10 11  1  0  0  0  0
 10 13  2  0  0  0  0
 12 17  1  0  0  0  0
 13 20  1  0  0  0  0
 14 22  1  0  0  0  0
 15 23  1  0  0  0  0
 16 17  1  0  0  0  0
 16 20  1  0  0  0  0
 16 21  2  0  0  0  0
 18 19  1  0  0  0  0
  1 24  1  0  0  0  0
  2 25  1  0  0  0  0
  3 26  1  0  0  0  0
  4 27  1  0  0  0  0
  5 28  1  0  0  0  0
  6 29  1  0  0  0  0
  7 30  1  0  0  0  0
  8 31  1  0  0  0  0
  9 32  1  0  0  0  0
 17 33  1  0  0  0  0
 17 34  1  0  0  0  0
 19 35  1  0  0  0  0
 20 36  1  0  0  0  0
M  END
> <POSIT::Probability>
0.23

> <POSIT::Method>
HYBRID

> <ReceptorTitle>
UCSF-P4661-REFINED_LIGAND-BOUND-STATE_A__DU__LA1_A-201(A)

> <OMEGA_C>
PdMuwuFl0cHs5fk+iZ4zwnwz1MEwxQi+kS0swkjK2ME29qU/7MM1wtxk3sFg5lg97Xk4wvCECMJE
5sI+qMcxwiHAAcJAog69ClgywiaACcLfOry/vUwpwgKS9MHSQwNAqWUqwpi36MGNuWlA9FIuwqr7
4sEO1r0/FX8rwm9u6sENrxRAVw42wuytA8IAeTg/NR4zwk7J5cFMilw/tp42wvFtC8KUEje/cewv
wi6pBMJBuZC/XP00whS+9sEj7ghAJw44wuKJAMKytPM/Ffsmwov7+MFhtEdAq7YnwpOV8cFEf4JA
rl81wqjw78HqqIM/mpIywmb19MHmwktA2Zk5whBnEcItS5G/r6gqwsNGAsLALgTAXictwsl2ycEs
/K4+aa41wjFyzsHQXkO/P3IowjZ41sHbFuM/FYE5woB54MFwDOC+jc47wsUBCsJkL3k/4Ocvwujz
+8HYeHE+9uYwwsrEC8KK4RTAWUkpwkP1+MEuQ48/TEMrwpsp4sEZWopAFU08wr4q/8FSouE/Dcw3
wscAA8J90jNAV0YmwoIe88HuJaBAnpY3wi7G8sGQLXg+

> <OMEGA_E>
vZnJwA==

> <OMEGA_NBR>
     61612

$$$$
CACHE3HI_1709_35
  -OEChem-03092622543D

 43 46  0     1  0  0  0  0  0999 V2000
  -52.8776  -29.2860    5.7163 C   0  0  0  0  0  0  0  0  0  0  0  0
  -46.8304  -35.5757   -2.1587 C   0  0  0  0  0  0  0  0  0  0  0  0
  -45.7796  -35.1833   -2.9879 C   0  0  0  0  0  0  0  0  0  0  0  0
  -50.3910  -29.0737    5.2116 C   0  0  0  0  0  0  0  0  0  0  0  0
  -51.0028  -29.5246    7.3314 C   0  0  0  0  0  0  0  0  0  0  0  0
  -51.4988  -29.2941    6.0670 C   0  0  0  0  0  0  0  0  0  0  0  0
  -46.1137  -33.9765   -0.4955 C   0  0  0  0  0  0  0  0  0  0  0  0
  -46.9973  -34.9723   -0.9124 C   0  0  0  0  0  0  0  0  0  0  0  0
  -45.0629  -33.5841   -1.3246 C   0  0  0  0  0  0  0  0  0  0  0  0
  -44.8960  -34.1876   -2.5710 C   0  0  0  0  0  0  0  0  0  0  0  0
  -49.2519  -29.1758    5.9793 C   0  0  0  0  0  0  0  0  0  0  0  0
  -46.2736  -33.3186    0.8262 C   0  0  0  0  0  0  0  0  0  0  0  0
  -47.8511  -29.0307    5.5580 C   0  0  0  0  0  0  0  0  0  0  0  0
  -48.4231  -29.2965    3.0875 C   0  0  0  0  0  0  0  0  0  0  0  0
  -46.2295  -29.9519    3.9249 C   0  0  0  0  0  0  0  0  0  0  0  0
  -47.6707  -29.9594    1.9801 C   0  0  1  0  0  0  0  0  0  0  0  0
  -46.3303  -30.3569    2.4919 C   0  0  2  0  0  0  0  0  0  0  0  0
  -47.3034  -31.4207    2.0484 C   0  0  0  0  0  0  0  0  0  0  0  0
  -48.1311  -35.4113   -0.0440 C   0  0  0  0  0  0  0  0  0  0  0  0
  -54.0023  -29.2793    5.4303 N   0  0  0  0  0  0  0  0  0  0  0  0
  -49.6357  -29.4501    7.2658 N   0  0  0  0  0  0  0  0  0  0  0  0
  -47.5371  -29.3872    4.2539 N   0  0  0  0  0  0  0  0  0  0  0  0
  -47.0744  -32.1712    0.8655 N   0  0  0  0  0  0  0  0  0  0  0  0
  -45.6945  -33.7861    1.8032 O   0  0  0  0  0  0  0  0  0  0  0  0
  -47.0521  -28.6141    6.3933 O   0  0  0  0  0  0  0  0  0  0  0  0
  -44.2141  -32.6263   -0.9209 F   0  0  0  0  0  0  0  0  0  0  0  0
  -43.6020  -33.7082   -3.6006 Cl  0  0  0  0  0  0  0  0  0  0  0  0
  -47.5135  -36.3521   -2.4931 H   0  0  0  0  0  0  0  0  0  0  0  0
  -45.6617  -35.6623   -3.9566 H   0  0  0  0  0  0  0  0  0  0  0  0
  -50.4188  -28.8613    4.1507 H   0  0  0  0  0  0  0  0  0  0  0  0
  -51.4941  -29.7339    8.2718 H   0  0  0  0  0  0  0  0  0  0  0  0
  -48.6072  -28.2388    2.8728 H   0  0  0  0  0  0  0  0  0  0  0  0
  -49.3725  -29.7969    3.3013 H   0  0  0  0  0  0  0  0  0  0  0  0
  -46.0160  -30.7956    4.5887 H   0  0  0  0  0  0  0  0  0  0  0  0
  -45.4722  -29.1758    4.0760 H   0  0  0  0  0  0  0  0  0  0  0  0
  -47.7543  -29.4706    1.0209 H   0  0  0  0  0  0  0  0  0  0  0  0
  -45.4496  -30.1544    1.9011 H   0  0  0  0  0  0  0  0  0  0  0  0
  -47.7744  -32.0193    2.8206 H   0  0  0  0  0  0  0  0  0  0  0  0
  -47.8313  -36.2387    0.6109 H   0  0  0  0  0  0  0  0  0  0  0  0
  -48.9751  -35.7696   -0.6464 H   0  0  0  0  0  0  0  0  0  0  0  0
  -48.4754  -34.5786    0.5800 H   0  0  0  0  0  0  0  0  0  0  0  0
  -49.0090  -29.5781    8.0486 H   0  0  0  0  0  0  0  0  0  0  0  0
  -47.4658  -31.8219   -0.0169 H   0  0  0  0  0  0  0  0  0  0  0  0
  1  6  1  0  0  0  0
  1 20  3  0  0  0  0
  2  3  2  0  0  0  0
  2  8  1  0  0  0  0
  3 10  1  0  0  0  0
  4  6  1  0  0  0  0
  4 11  2  0  0  0  0
  5  6  2  0  0  0  0
  5 21  1  0  0  0  0
  7  8  2  0  0  0  0
  7  9  1  0  0  0  0
  7 12  1  0  0  0  0
  8 19  1  0  0  0  0
  9 10  2  0  0  0  0
  9 26  1  0  0  0  0
 10 27  1  0  0  0  0
 11 13  1  0  0  0  0
 11 21  1  0  0  0  0
 12 23  1  0  0  0  0
 12 24  2  0  0  0  0
 13 22  1  0  0  0  0
 13 25  2  0  0  0  0
 14 16  1  0  0  0  0
 14 22  1  0  0  0  0
 15 17  1  0  0  0  0
 15 22  1  0  0  0  0
 16 17  1  0  0  0  0
 16 18  1  0  0  0  0
 17 18  1  0  0  0  0
 18 23  1  0  0  0  0
  2 28  1  0  0  0  0
  3 29  1  0  0  0  0
  4 30  1  0  0  0  0
  5 31  1  0  0  0  0
 14 32  1  0  0  0  0
 14 33  1  0  0  0  0
 15 34  1  0  0  0  0
 15 35  1  0  0  0  0
 16 36  1  0  0  0  0
 17 37  1  0  0  0  0
 18 38  1  0  0  0  0
 19 39  1  0  0  0  0
 19 40  1  0  0  0  0
 19 41  1  0  0  0  0
 21 42  1  0  0  0  0
 23 43  1  0  0  0  0
M  END
> <POSIT::Probability>
0.24

> <POSIT::Method>
FRED

> <ReceptorTitle>
UCSF-P4661-REFINED_LIGAND-BOUND-STATE_A__DU__LA1_A-201(A)

> <OMEGA_C>
qIJTwsFJ6sHQ67ZAWVI7woxNDsLQKArATx43wrq7DMLcOT/AYZBJwtuW6MFcxaZA1AJMwnAy7MGw
mupAy/5Nwkla6sGcJMJAdHQ4wvbnB8Lgrv2+Of07wp3jC8IAkWm/c0A0wiJWBsIAjKm/jJUzwhTA
CMJwiyTA6AFFwgpo6cE+Vr9AMhg5wkZGBcJAg1M/k2c/wtQ+6MHc2rFAP7FBwitf6sHgmEVA9+o4
wm6d78H4MXtA1q4+wsqs78GYcv0/OVI5wvDa8sHseh9AsjY9wqVd+8EoGQNAOYZAwjSlDcIAKDS9
YQJYwvY76sGoxK1AAItGwuKZ68EogehABSY+wgsZ68GcH4hAL0w8wk2vAMIgkl0/Lsc2wuwkB8IA
z+Y/ZjU8wqLp5MHQlcxANNswwkmBAsJgvWu/c2guwjXVBsIIcWbA2A0+woZoEcLsjh/Aj6U2wjSm
DsKwOH3A0axJwgXk5sHu0oRA8flNwhLf7cFgWQRBxG1Cwhjp4cFo3DdAe31FwgRg7sH8R1NAaxA4
wl1d9sFS1pJAi+M1wvVn6cHmboJAdAQ/wsLD68EgroI/Ysw1wko88cHwVvM/BBk/wr4TAMLsgzRA
R1M/wmT0EMKgZRw/euZDwhAUD8LweiW/w+ZBwnhQCsIQeRQ/RAlEwuOf7MH2xgBB79w9wkiT/sEA
XIq8

> <OMEGA_E>
1m6+wA==

> <OMEGA_NBR>
     62977

$$$$
CACHE3HI_1712_3
  -OEChem-03092622543D

 37 38  0     1  0  0  0  0  0999 V2000
  -48.5437  -28.4256    6.5982 C   0  0  0  0  0  0  0  0  0  0  0  0
  -44.0442  -28.1329    1.6533 C   0  0  0  0  0  0  0  0  0  0  0  0
  -47.7323  -28.2040    5.4855 C   0  0  0  0  0  0  0  0  0  0  0  0
  -42.8225  -28.6860    2.0369 C   0  0  0  0  0  0  0  0  0  0  0  0
  -49.7532  -29.1053    6.4544 C   0  0  0  0  0  0  0  0  0  0  0  0
  -44.9271  -30.3495    1.2731 C   0  0  0  0  0  0  0  0  0  0  0  0
  -49.3395  -29.3418    4.0855 C   0  0  0  0  0  0  0  0  0  0  0  0
  -45.0965  -28.9648    1.2712 C   0  0  0  0  0  0  0  0  0  0  0  0
  -48.1300  -28.6621    4.2293 C   0  0  0  0  0  0  0  0  0  0  0  0
  -42.6531  -30.0706    2.0388 C   0  0  0  0  0  0  0  0  0  0  0  0
  -50.1509  -29.5634    5.1983 C   0  0  0  0  0  0  0  0  0  0  0  0
  -43.7054  -30.9026    1.6567 C   0  0  0  0  0  0  0  0  0  0  0  0
  -47.5508  -28.8125    1.7823 C   0  0  0  0  0  0  0  0  0  0  0  0
  -52.8544  -29.1410    4.6867 C   0  0  0  0  0  0  0  0  0  0  0  0
  -46.4028  -28.3735    0.8606 C   0  0  1  0  0  0  0  0  0  0  0  0
  -46.3846  -26.9221    0.8471 N   0  0  0  0  0  0  0  0  0  0  0  0
  -47.3069  -28.4351    3.1008 N   0  0  0  0  0  0  0  0  0  0  0  0
  -48.5534  -29.3716    1.3450 O   0  0  0  0  0  0  0  0  0  0  0  0
  -51.5642  -31.2582    3.8351 O   0  0  0  0  0  0  0  0  0  0  0  0
  -52.0234  -31.0101    6.3008 O   0  0  0  0  0  0  0  0  0  0  0  0
  -41.4735  -30.5866    2.4126 F   0  0  0  0  0  0  0  0  0  0  0  0
  -52.5402  -28.4739    3.5461 F   0  0  0  0  0  0  0  0  0  0  0  0
  -51.6631  -30.4177    5.0199 S   0  0  0  0  0  0  0  0  0  0  0  0
  -43.5032  -32.6122    1.6574 Cl  0  0  0  0  0  0  0  0  0  0  0  0
  -48.2331  -28.0687    7.5758 H   0  0  0  0  0  0  0  0  0  0  0  0
  -44.1673  -27.0532    1.6561 H   0  0  0  0  0  0  0  0  0  0  0  0
  -46.7922  -27.6724    5.6090 H   0  0  0  0  0  0  0  0  0  0  0  0
  -42.0027  -28.0393    2.3356 H   0  0  0  0  0  0  0  0  0  0  0  0
  -50.3776  -29.2731    7.3279 H   0  0  0  0  0  0  0  0  0  0  0  0
  -45.7516  -30.9932    0.9743 H   0  0  0  0  0  0  0  0  0  0  0  0
  -49.6487  -29.7006    3.1064 H   0  0  0  0  0  0  0  0  0  0  0  0
  -53.8368  -29.6007    4.5614 H   0  0  0  0  0  0  0  0  0  0  0  0
  -52.8587  -28.4297    5.5147 H   0  0  0  0  0  0  0  0  0  0  0  0
  -46.6658  -28.6505   -0.1752 H   0  0  0  0  0  0  0  0  0  0  0  0
  -47.2945  -26.5746    0.5470 H   0  0  0  0  0  0  0  0  0  0  0  0
  -45.7140  -26.5976    0.1512 H   0  0  0  0  0  0  0  0  0  0  0  0
  -46.4434  -27.9316    3.2889 H   0  0  0  0  0  0  0  0  0  0  0  0
  1  3  1  0  0  0  0
  1  5  2  0  0  0  0
  2  4  2  0  0  0  0
  2  8  1  0  0  0  0
  3  9  2  0  0  0  0
  4 10  1  0  0  0  0
  5 11  1  0  0  0  0
  6  8  2  0  0  0  0
  6 12  1  0  0  0  0
  7  9  1  0  0  0  0
  7 11  2  0  0  0  0
  8 15  1  0  0  0  0
  9 17  1  0  0  0  0
 10 12  2  0  0  0  0
 10 21  1  0  0  0  0
 11 23  1  0  0  0  0
 12 24  1  0  0  0  0
 13 15  1  0  0  0  0
 13 17  1  0  0  0  0
 13 18  2  0  0  0  0
 14 22  1  0  0  0  0
 14 23  1  0  0  0  0
 15 16  1  0  0  0  0
 19 23  2  0  0  0  0
 20 23  2  0  0  0  0
  1 25  1  0  0  0  0
  2 26  1  0  0  0  0
  3 27  1  0  0  0  0
  4 28  1  0  0  0  0
  5 29  1  0  0  0  0
  6 30  1  0  0  0  0
  7 31  1  0  0  0  0
 14 32  1  0  0  0  0
 14 33  1  0  0  0  0
 15 34  1  0  0  0  0
 16 35  1  0  0  0  0
 16 36  1  0  0  0  0
 17 37  1  0  0  0  0
M  END
> <POSIT::Probability>
0.05

> <POSIT::Method>
FRED

> <ReceptorTitle>
UCSF-P4661-REFINED_LIGAND-BOUND-STATE_A__DU__LA1_A-201(A)

> <OMEGA_C>
wixCwpNn48GiJNNAQS0wwh0Q4cGAntM/3O0+wrWh4cEeia9ANUorwtl85cHdXAJAQANHwo7X6MGY
is5AU7UzwszL8sGH9KI/q1tFwgO86sHQvIJAyWI0wgC458Ect6I/IIVAwvxL5cGyVodAwZwqwqWQ
8MGTewJAg5pIwtSB7MEuWKZAWNIuwpA498EXD9Q/ADQ+wvx/5sE4IeQ/3mpTwtAg6cF4+ZVAcZw5
wtr84sFiU1w/2Ik5wn5g18FA2Vg/Qjo9wgx748EKdEZApDZCwhj56sGSKqw/wUFOwsgQ+sEccnVA
7BdQwpwU+MHyn8lA1OQlwmqx9MGWZxpALClSwn7K48Fw82JAD6dOwnZX88EWo6BASAMuwt1yAsKk
JdQ/rO5Awr+M4MH3bPJARaswwvps2MGU+dM/Lis7whlh3cGWfLNAwwIownJQ4MENehVAsoJJwlwv
6sFwfupApwE3whry98HyaXk/S5hGwr+a7cECz0ZA6FhXwjbO7MEF95FAWm9Twv5v48HOeLBAyKk6
wio05cHQZTO+jS09wrKY1MGYBgw/LNs2ws3H1MEg0Bo+EcY5wttz38GufFJA

> <OMEGA_E>
UYnRwA==

> <OMEGA_NBR>
     64207

$$$$
CACHE3HI_1712_49
  -OEChem-03092622543D

 38 39  0     0  0  0  0  0  0999 V2000
  -45.3303  -27.4182   -0.0579 C   0  0  0  0  0  0  0  0  0  0  0  0
  -44.0322  -27.0349    0.3136 C   0  0  0  0  0  0  0  0  0  0  0  0
  -45.7917  -28.7090    0.2540 C   0  0  0  0  0  0  0  0  0  0  0  0
  -43.2206  -27.9205    1.0471 C   0  0  0  0  0  0  0  0  0  0  0  0
  -47.2257  -35.5452   -1.6584 C   0  0  0  0  0  0  0  0  0  0  0  0
  -46.8870  -35.5838   -3.0211 C   0  0  0  0  0  0  0  0  0  0  0  0
  -44.9560  -29.6431    0.9210 C   0  0  0  0  0  0  0  0  0  0  0  0
  -46.4831  -34.7200   -0.8058 C   0  0  0  0  0  0  0  0  0  0  0  0
  -43.6777  -29.2169    1.3852 C   0  0  0  0  0  0  0  0  0  0  0  0
  -45.4799  -33.9041   -1.3846 C   0  0  0  0  0  0  0  0  0  0  0  0
  -44.9131  -32.7929   -0.6204 C   0  0  0  0  0  0  0  0  0  0  0  0
  -46.8496  -34.6327    0.6714 C   0  0  0  0  0  0  0  0  0  0  0  0
  -47.0443  -31.4834   -0.7974 C   0  0  0  0  0  0  0  0  0  0  0  0
  -45.4710  -31.0671    1.1544 C   0  0  0  0  0  0  0  0  0  0  0  0
  -45.8355  -34.8772   -3.4993 N   0  0  0  0  0  0  0  0  0  0  0  0
  -45.1345  -34.0443   -2.6858 N   0  0  0  0  0  0  0  0  0  0  0  0
  -42.1546  -31.6398    1.6148 N   0  0  0  0  0  0  0  0  0  0  0  0
  -45.7760  -31.8037   -0.0953 N   0  0  0  0  0  0  0  0  0  0  0  0
  -43.7145  -32.8275   -0.3808 O   0  0  0  0  0  0  0  0  0  0  0  0
  -43.4715  -30.7283    3.5968 O   0  0  0  0  0  0  0  0  0  0  0  0
  -41.3919  -29.5240    2.7694 O   0  0  0  0  0  0  0  0  0  0  0  0
  -42.6288  -30.2611    2.4860 S   0  0  0  0  0  0  0  0  0  0  0  0
  -45.9718  -26.7246   -0.5812 H   0  0  0  0  0  0  0  0  0  0  0  0
  -43.6564  -26.0609    0.0369 H   0  0  0  0  0  0  0  0  0  0  0  0
  -46.7972  -28.9944   -0.0178 H   0  0  0  0  0  0  0  0  0  0  0  0
  -42.2347  -27.6064    1.3565 H   0  0  0  0  0  0  0  0  0  0  0  0
  -48.0422  -36.1399   -1.2763 H   0  0  0  0  0  0  0  0  0  0  0  0
  -47.4744  -36.1865   -3.6980 H   0  0  0  0  0  0  0  0  0  0  0  0
  -46.2621  -35.3689    1.2396 H   0  0  0  0  0  0  0  0  0  0  0  0
  -46.6295  -33.6215    1.0444 H   0  0  0  0  0  0  0  0  0  0  0  0
  -47.9218  -34.8442    0.7962 H   0  0  0  0  0  0  0  0  0  0  0  0
  -47.5802  -30.6962   -0.2466 H   0  0  0  0  0  0  0  0  0  0  0  0
  -46.8210  -31.1313   -1.8153 H   0  0  0  0  0  0  0  0  0  0  0  0
  -47.6716  -32.3853   -0.8507 H   0  0  0  0  0  0  0  0  0  0  0  0
  -44.7037  -31.6272    1.7090 H   0  0  0  0  0  0  0  0  0  0  0  0
  -46.3898  -31.0096    1.7564 H   0  0  0  0  0  0  0  0  0  0  0  0
  -41.5837  -32.2210    2.1946 H   0  0  0  0  0  0  0  0  0  0  0  0
  -42.9665  -32.1490    1.3291 H   0  0  0  0  0  0  0  0  0  0  0  0
  1  2  1  0  0  0  0
  1  3  2  0  0  0  0
  2  4  2  0  0  0  0
  3  7  1  0  0  0  0
  4  9  1  0  0  0  0
  5  6  2  0  0  0  0
  5  8  1  0  0  0  0
  6 15  1  0  0  0  0
  7  9  2  0  0  0  0
  7 14  1  0  0  0  0
  8 10  2  0  0  0  0
  8 12  1  0  0  0  0
  9 22  1  0  0  0  0
 10 11  1  0  0  0  0
 10 16  1  0  0  0  0
 11 18  1  0  0  0  0
 11 19  2  0  0  0  0
 13 18  1  0  0  0  0
 14 18  1  0  0  0  0
 15 16  2  0  0  0  0
 17 22  1  0  0  0  0
 20 22  2  0  0  0  0
 21 22  2  0  0  0  0
  1 23  1  0  0  0  0
  2 24  1  0  0  0  0
  3 25  1  0  0  0  0
  4 26  1  0  0  0  0
  5 27  1  0  0  0  0
  6 28  1  0  0  0  0
 12 29  1  0  0  0  0
 12 30  1  0  0  0  0
 12 31  1  0  0  0  0
 13 32  1  0  0  0  0
 13 33  1  0  0  0  0
 13 34  1  0  0  0  0
 14 35  1  0  0  0  0
 14 36  1  0  0  0  0
 17 37  1  0  0  0  0
 17 38  1  0  0  0  0
M  END
> <POSIT::Probability>
0.42

> <POSIT::Method>
SHAPEFIT

> <ReceptorTitle>
UCSF-P4661-REFINED_LIGAND-BOUND-STATE_A__DU__LA1_A-201(A)

> <OMEGA_C>
OVI1wnFY28HAT229AyEwwnFH2MGYkqA+qyo3wvur5cFQD4I+5OEswjVd38HMBoY/Fec8wjwuDsJg
RdS/RIw7wtJVDsLsWUHA6NIzwiQl7cEUxWs/ue45wlDhCsIQTE6/97Uuwj+86cFaTbE/Yus1wsGd
B8IUPLG/BqczwvIrA8KE1B6/92U7wtuHCsI43ys/Xy08wujd+8FcIUy/SuI1wnCJ+MFUw5M/iVc3
wjmCC8I89V/AxIk0wlEtCMK05CvAW54owk4e/cHlsM4/mBo3wgFu/sFgPMO9stsuwlpPA8JA/sK+
zeItwnfT9cHDMWZAVpElwhUx7MG3PTFA2IMqwtAW8sEQGh9AJuM3wvbL1cFqxxS/KaAuws580MER
Exc9TzA7woT058Hx0JG8UPAowvHZ3MFuoK0/OytAwjyPEMIsX6O/wOU9wvy+EMJ1q2zAcAw5wsh5
DcJtqp4/mYQ6wnV8BsI8sIU/7a8/wn1gC8Lf0Us/FlI+wumR9cE6jny+sEg7wugM+cFNXOi/xa8+
wpiKAcIzylm/ldAywnsE/cFDwNo/KY85wp0T+ME10+A/sFUmwljiAMK3cwxAt90rwo2YAMKmIKo/

> <OMEGA_E>
1sNrPw==

> <OMEGA_NBR>
     65484

$$$$
CACHE3HI_1712_53
  -OEChem-03092622543D

 34 35  0     1  0  0  0  0  0999 V2000
  -43.2525  -32.6547   -1.9809 C   0  0  0  0  0  0  0  0  0  0  0  0
  -42.6741  -31.9456   -0.9281 C   0  0  0  0  0  0  0  0  0  0  0  0
  -44.3842  -33.4380   -1.7549 C   0  0  0  0  0  0  0  0  0  0  0  0
  -43.5007  -26.5865    1.0325 C   0  0  0  0  0  0  0  0  0  0  0  0
  -45.1449  -25.9085   -0.2697 C   0  0  0  0  0  0  0  0  0  0  0  0
  -44.3594  -32.8027    0.5763 C   0  0  0  0  0  0  0  0  0  0  0  0
  -43.2275  -32.0194    0.3503 C   0  0  0  0  0  0  0  0  0  0  0  0
  -44.9376  -33.5118   -0.4765 C   0  0  0  0  0  0  0  0  0  0  0  0
  -44.3410  -27.6238    0.7013 C   0  0  0  0  0  0  0  0  0  0  0  0
  -45.0108  -29.3534    2.4100 C   0  0  0  0  0  0  0  0  0  0  0  0
  -44.2472  -29.0754    1.1169 C   0  0  2  0  0  0  0  0  0  0  0  0
  -46.2401  -32.4361    1.9856 C   0  0  0  0  0  0  0  0  0  0  0  0
  -45.3619  -27.1954   -0.1092 N   0  0  0  0  0  0  0  0  0  0  0  0
  -44.0288  -25.4944    0.4032 N   0  0  0  0  0  0  0  0  0  0  0  0
  -42.8462  -29.5039    1.2342 N   0  0  0  0  0  0  0  0  0  0  0  0
  -41.0381  -31.3065    1.5778 O   0  0  0  0  0  0  0  0  0  0  0  0
  -43.1833  -31.4545    2.8804 O   0  0  0  0  0  0  0  0  0  0  0  0
  -44.8961  -32.8715    1.8291 O   0  0  0  0  0  0  0  0  0  0  0  0
  -46.3546  -31.1679    1.5211 F   0  0  0  0  0  0  0  0  0  0  0  0
  -47.0149  -33.2122    1.1848 F   0  0  0  0  0  0  0  0  0  0  0  0
  -42.4801  -31.1191    1.6513 S   0  0  0  0  0  0  0  0  0  0  0  0
  -46.3378  -34.4894   -0.2291 Cl  0  0  0  0  0  0  0  0  0  0  0  0
  -42.8220  -32.5966   -2.9762 H   0  0  0  0  0  0  0  0  0  0  0  0
  -41.7924  -31.3389   -1.1160 H   0  0  0  0  0  0  0  0  0  0  0  0
  -44.8242  -33.9844   -2.5853 H   0  0  0  0  0  0  0  0  0  0  0  0
  -42.6070  -26.5242    1.6364 H   0  0  0  0  0  0  0  0  0  0  0  0
  -45.7495  -25.2284   -0.8527 H   0  0  0  0  0  0  0  0  0  0  0  0
  -44.6341  -28.7524    3.2450 H   0  0  0  0  0  0  0  0  0  0  0  0
  -46.0782  -29.1344    2.2924 H   0  0  0  0  0  0  0  0  0  0  0  0
  -44.9100  -30.4060    2.6981 H   0  0  0  0  0  0  0  0  0  0  0  0
  -44.6768  -29.7083    0.3313 H   0  0  0  0  0  0  0  0  0  0  0  0
  -46.6090  -32.5176    3.0140 H   0  0  0  0  0  0  0  0  0  0  0  0
  -43.6619  -24.5524    0.4300 H   0  0  0  0  0  0  0  0  0  0  0  0
  -42.1668  -28.7676    1.4616 H   0  0  0  0  0  0  0  0  0  0  0  0
  1  2  2  0  0  0  0
  1  3  1  0  0  0  0
  2  7  1  0  0  0  0
  3  8  2  0  0  0  0
  4  9  2  0  0  0  0
  4 14  1  0  0  0  0
  5 13  2  0  0  0  0
  5 14  1  0  0  0  0
  6  7  2  0  0  0  0
  6  8  1  0  0  0  0
  6 18  1  0  0  0  0
  7 21  1  0  0  0  0
  8 22  1  0  0  0  0
  9 11  1  0  0  0  0
  9 13  1  0  0  0  0
 10 11  1  0  0  0  0
 11 15  1  0  0  0  0
 12 18  1  0  0  0  0
 12 19  1  0  0  0  0
 12 20  1  0  0  0  0
 15 21  1  0  0  0  0
 16 21  2  0  0  0  0
 17 21  2  0  0  0  0
  1 23  1  0  0  0  0
  2 24  1  0  0  0  0
  3 25  1  0  0  0  0
  4 26  1  0  0  0  0
  5 27  1  0  0  0  0
 10 28  1  0  0  0  0
 10 29  1  0  0  0  0
 10 30  1  0  0  0  0
 11 31  1  0  0  0  0
 12 32  1  0  0  0  0
 14 33  1  0  0  0  0
 15 34  1  0  0  0  0
M  END
> <POSIT::Probability>
0.18

> <POSIT::Method>
HYBRID

> <ReceptorTitle>
UCSF-P4661-REFINED_LIGAND-BOUND-STATE_A__DU__LA1_A-201(A)

> <OMEGA_C>
hAItwnKeAsIYjv2/UrIqwpqQ/8GUl22/dIkxwnrABcKYoOC/sgAuwjKx1MEIKYQ/V5Q0woREz8GX
HIq+/G8xwvY1A8JchxM/AukswuMTAMLWWrM+I8AzwhAMBsJo+PO+PF0xwpz93MGoiTM/EQs0wq/T
6sGsPRpAIv0wwnea6MFU9o4/5fU4wpO+AcL4KP4/jHI1wj6Q2cG4nN+9dB0wwov0y8E6cc4+iWIr
wuQH7MGH+p0/+iYkwp9z+sGE9sk/prsswuqi+8FIWThAqJUzwnZ8A8KXHuo/GGs5wuJX+cFNs8I/
Rg88wk7ZBMIaqJc/oOspwuTz+MHDXdM/51k5wij1CcLYmmq+ukkrwvhiAsI/ej7AaSsnwgK2+sEH
2Y6/+EszwgnwB8IxdiXAiW0qwpIx1ME/dtE/iv82wsrTycEtSFq/S4kywvoE5sFnrU9AF1A4wk0T
6cFythJA36Mzwng/88FTrixAELUywoqq7cEdnKk+kW86wgcSAsK75UBAy6Uuwl5rxMGKKNw+yKoo
wiAk5sHRFLs/

> <OMEGA_E>
A8F/wA==

> <OMEGA_NBR>
     66660

$$$$
CACHE3HI_1715_11
  -OEChem-03092622543D

 58 61  0     0  0  0  0  0  0999 V2000
  -44.2480  -35.5971   -3.8925 C   0  0  0  0  0  0  0  0  0  0  0  0
  -44.1147  -34.2108   -3.9713 C   0  0  0  0  0  0  0  0  0  0  0  0
  -44.4910  -36.2049   -2.6609 C   0  0  0  0  0  0  0  0  0  0  0  0
  -43.4287  -28.3350    0.4713 C   0  0  0  0  0  0  0  0  0  0  0  0
  -44.7937  -28.0648    0.5688 C   0  0  0  0  0  0  0  0  0  0  0  0
  -44.2246  -33.4325   -2.8188 C   0  0  0  0  0  0  0  0  0  0  0  0
  -44.6009  -35.4266   -1.5084 C   0  0  0  0  0  0  0  0  0  0  0  0
  -50.8316  -30.8494    2.8188 C   0  0  0  0  0  0  0  0  0  0  0  0
  -49.5045  -28.9375    3.4678 C   0  0  0  0  0  0  0  0  0  0  0  0
  -51.3185  -30.9530    4.1219 C   0  0  0  0  0  0  0  0  0  0  0  0
  -49.9914  -29.0411    4.7708 C   0  0  0  0  0  0  0  0  0  0  0  0
  -42.9378  -29.5863    0.8436 C   0  0  0  0  0  0  0  0  0  0  0  0
  -45.1767  -30.2970    1.4104 C   0  0  0  0  0  0  0  0  0  0  0  0
  -45.6676  -29.0456    1.0381 C   0  0  0  0  0  0  0  0  0  0  0  0
  -44.4676  -34.0404   -1.5871 C   0  0  0  0  0  0  0  0  0  0  0  0
  -49.9246  -29.8415    2.4919 C   0  0  0  0  0  0  0  0  0  0  0  0
  -50.8984  -30.0490    5.0978 C   0  0  0  0  0  0  0  0  0  0  0  0
  -43.8117  -30.5672    1.3129 C   0  0  0  0  0  0  0  0  0  0  0  0
  -52.3104  -31.1109    6.9114 C   0  0  0  0  0  0  0  0  0  0  0  0
  -47.1206  -28.7568    1.1414 C   0  0  0  0  0  0  0  0  0  0  0  0
  -52.4538  -30.8866    8.3983 C   0  0  0  0  0  0  0  0  0  0  0  0
  -51.9617  -29.4666    8.5965 C   0  0  0  0  0  0  0  0  0  0  0  0
  -50.9346  -29.2878    7.4973 C   0  0  0  0  0  0  0  0  0  0  0  0
  -49.4017  -29.7319    1.0994 C   0  0  0  0  0  0  0  0  0  0  0  0
  -44.5859  -33.2029   -0.3462 C   0  0  0  0  0  0  0  0  0  0  0  0
  -51.3965  -30.1549    6.4302 N   0  0  0  0  0  0  0  0  0  0  0  0
  -47.9674  -29.8525    1.0417 N   0  0  0  0  0  0  0  0  0  0  0  0
  -43.2872  -33.0135    0.3153 N   0  0  0  0  0  0  0  0  0  0  0  0
  -52.8783  -32.0226    6.3275 O   0  0  0  0  0  0  0  0  0  0  0  0
  -47.4928  -27.5954    1.2860 O   0  0  0  0  0  0  0  0  0  0  0  0
  -44.1130  -32.7314    2.7393 O   0  0  0  0  0  0  0  0  0  0  0  0
  -41.7936  -31.9719    2.1355 O   0  0  0  0  0  0  0  0  0  0  0  0
  -43.1960  -32.1336    1.7773 S   0  0  0  0  0  0  0  0  0  0  0  0
  -44.1625  -36.2031   -4.7897 H   0  0  0  0  0  0  0  0  0  0  0  0
  -43.9260  -33.7374   -4.9303 H   0  0  0  0  0  0  0  0  0  0  0  0
  -44.5946  -37.2843   -2.5993 H   0  0  0  0  0  0  0  0  0  0  0  0
  -42.7486  -27.5714    0.1056 H   0  0  0  0  0  0  0  0  0  0  0  0
  -45.1653  -27.0862    0.2758 H   0  0  0  0  0  0  0  0  0  0  0  0
  -44.1192  -32.3532   -2.8900 H   0  0  0  0  0  0  0  0  0  0  0  0
  -44.7913  -35.9093   -0.5535 H   0  0  0  0  0  0  0  0  0  0  0  0
  -51.1641  -31.5582    2.0652 H   0  0  0  0  0  0  0  0  0  0  0  0
  -48.7976  -28.1493    3.2218 H   0  0  0  0  0  0  0  0  0  0  0  0
  -52.0251  -31.7424    4.3656 H   0  0  0  0  0  0  0  0  0  0  0  0
  -49.6567  -28.3311    5.5230 H   0  0  0  0  0  0  0  0  0  0  0  0
  -41.8725  -29.7871    0.7636 H   0  0  0  0  0  0  0  0  0  0  0  0
  -45.8578  -31.0618    1.7764 H   0  0  0  0  0  0  0  0  0  0  0  0
  -53.4936  -31.0051    8.7127 H   0  0  0  0  0  0  0  0  0  0  0  0
  -51.8203  -31.6085    8.9235 H   0  0  0  0  0  0  0  0  0  0  0  0
  -52.7893  -28.7611    8.4538 H   0  0  0  0  0  0  0  0  0  0  0  0
  -51.5448  -29.3047    9.5945 H   0  0  0  0  0  0  0  0  0  0  0  0
  -50.8711  -28.2505    7.1547 H   0  0  0  0  0  0  0  0  0  0  0  0
  -49.9446  -29.6335    7.8149 H   0  0  0  0  0  0  0  0  0  0  0  0
  -49.8248  -30.5144    0.4545 H   0  0  0  0  0  0  0  0  0  0  0  0
  -49.6674  -28.7680    0.6437 H   0  0  0  0  0  0  0  0  0  0  0  0
  -44.9904  -32.2138   -0.5853 H   0  0  0  0  0  0  0  0  0  0  0  0
  -45.2654  -33.6661    0.3769 H   0  0  0  0  0  0  0  0  0  0  0  0
  -47.5840  -30.7762    0.8595 H   0  0  0  0  0  0  0  0  0  0  0  0
  -42.4611  -33.0479   -0.2943 H   0  0  0  0  0  0  0  0  0  0  0  0
  1  2  1  0  0  0  0
  1  3  2  0  0  0  0
  2  6  2  0  0  0  0
  3  7  1  0  0  0  0
  4  5  1  0  0  0  0
  4 12  2  0  0  0  0
  5 14  2  0  0  0  0
  6 15  1  0  0  0  0
  7 15  2  0  0  0  0
  8 10  2  0  0  0  0
  8 16  1  0  0  0  0
  9 11  1  0  0  0  0
  9 16  2  0  0  0  0
 10 17  1  0  0  0  0
 11 17  2  0  0  0  0
 12 18  1  0  0  0  0
 13 14  1  0  0  0  0
 13 18  2  0  0  0  0
 14 20  1  0  0  0  0
 15 25  1  0  0  0  0
 16 24  1  0  0  0  0
 17 26  1  0  0  0  0
 18 33  1  0  0  0  0
 19 21  1  0  0  0  0
 19 26  1  0  0  0  0
 19 29  2  0  0  0  0
 20 27  1  0  0  0  0
 20 30  2  0  0  0  0
 21 22  1  0  0  0  0
 22 23  1  0  0  0  0
 23 26  1  0  0  0  0
 24 27  1  0  0  0  0
 25 28  1  0  0  0  0
 28 33  1  0  0  0  0
 31 33  2  0  0  0  0
 32 33  2  0  0  0  0
  1 34  1  0  0  0  0
  2 35  1  0  0  0  0
  3 36  1  0  0  0  0
  4 37  1  0  0  0  0
  5 38  1  0  0  0  0
  6 39  1  0  0  0  0
  7 40  1  0  0  0  0
  8 41  1  0  0  0  0
  9 42  1  0  0  0  0
 10 43  1  0  0  0  0
 11 44  1  0  0  0  0
 12 45  1  0  0  0  0
 13 46  1  0  0  0  0
 21 47  1  0  0  0  0
 21 48  1  0  0  0  0
 22 49  1  0  0  0  0
 22 50  1  0  0  0  0
 23 51  1  0  0  0  0
 23 52  1  0  0  0  0
 24 53  1  0  0  0  0
 24 54  1  0  0  0  0
 25 55  1  0  0  0  0
 25 56  1  0  0  0  0
 27 57  1  0  0  0  0
 28 58  1  0  0  0  0
M  END
> <POSIT::Probability>
0.24

> <POSIT::Method>
FRED

> <ReceptorTitle>
UCSF-P4661-REFINED_LIGAND-BOUND-STATE_A__DU__LA1_A-201(A)

> <OMEGA_C>
//0wwm9jDsIiH3nAgHUwwubXCMJ8KX7AyPYxwtvREMLdSyrACbctwhqu4sGwUvE+xiwzwqWE4MH4
mRE/COYwwuy6BcJ6ZzTAUWcywuG0DcK2E8G/ilNLwp7L9sGkZzRAnARGwheA58ES8F1AHkZNwqmf
98FX5oNAJ/dHwhNU6MFCqphAU8ArwtWw7MHA91c/5rQ0wjhg8sGYhrQ/p6s2wmld6MEI34Q/1N4x
wmMpCMIwJ8u/zbJHwlm77sGueh9A65dLwmhk8MEMIaNAND8vwpmJ9MH4Dag/3D1Rwivj+MEZKt1A
hns8wgYO5sFYGpI/tNBRwr0X98FuXwZBz9hPwpe768FciwlBDL1LwnNN6sG56e9AVptFwvDa7cEo
uYw/+lcywsTPBMJwPbG+AJZNwkM98cHpw81AoN4/wtXR7sHEVoU/HiYtwtMNBMLwcaE+VYNTwhsX
AMKoespAqfg9wmzD3MHcmqQ/qnMwwvPsAsIMUC9ArCwnwn/G/8G6rAhAucgswsWIAMIAfeM/XKYw
wvPPEMIQRZnAL7QvwhDzBsIVxZ3A4mAywhgjFcIFWybAj/4qwjKS3MGgOtg9Sak0wouw2MHQO40+
FHowwqZpAcJq9jjATCozwhOjD8LYrw2/EKhMwh53/MFsLARAyzBDwrUx4cFCMU5AtxlQwmXw/cFR
s4tAeqBGwiim4sGhvLBAdX0nwu1L7sG8ekM/XG43wpZ++MEYYeM/dPlVwoQK+MFEZwtBB0hPwjLe
/MF0xg5BPihTwrMW5sGuQgdB1y1Owgpw6sFEgxlB+HtLwu8A4sE18+RASsdHwnQR7cGbE/pAlkxH
wpQd9MHwtug+ZatGwu8k5sHIyyQ/L/YzwuraAMLs1RW/vA81wgqqBsJA+sA++VU+wsI19sEwCFw/
JNgpwgAxBMKor5a+

> <OMEGA_E>
GWCowA==

> <OMEGA_NBR>
     68312

$$$$
CACHE3HI_1715_45
  -OEChem-03092622543D

 45 47  0     0  0  0  0  0  0999 V2000
  -44.1000  -27.2255    0.4823 C   0  0  0  0  0  0  0  0  0  0  0  0
  -49.2627  -29.2436    5.1180 C   0  0  0  0  0  0  0  0  0  0  0  0
  -43.3422  -28.2860    0.9790 C   0  0  0  0  0  0  0  0  0  0  0  0
  -45.4847  -27.2203    0.6492 C   0  0  0  0  0  0  0  0  0  0  0  0
  -47.9409  -29.1249    5.5476 C   0  0  0  0  0  0  0  0  0  0  0  0
  -49.5402  -29.7553    3.8505 C   0  0  0  0  0  0  0  0  0  0  0  0
  -43.9688  -29.3409    1.6427 C   0  0  0  0  0  0  0  0  0  0  0  0
  -46.1114  -28.2752    1.3129 C   0  0  0  0  0  0  0  0  0  0  0  0
  -46.8969  -29.5181    4.7100 C   0  0  0  0  0  0  0  0  0  0  0  0
  -48.4962  -30.1485    3.0130 C   0  0  0  0  0  0  0  0  0  0  0  0
  -45.3970  -35.2193   -2.0035 C   0  0  0  0  0  0  0  0  0  0  0  0
  -46.3309  -35.2346   -0.9675 C   0  0  0  0  0  0  0  0  0  0  0  0
  -44.4678  -33.1654   -1.1343 C   0  0  0  0  0  0  0  0  0  0  0  0
  -45.3536  -29.3357    1.8096 C   0  0  0  0  0  0  0  0  0  0  0  0
  -47.1744  -30.0299    3.4425 C   0  0  0  0  0  0  0  0  0  0  0  0
  -45.4017  -33.1806   -0.0983 C   0  0  0  0  0  0  0  0  0  0  0  0
  -44.4655  -34.1845   -2.0869 C   0  0  0  0  0  0  0  0  0  0  0  0
  -46.3332  -34.2155   -0.0149 C   0  0  0  0  0  0  0  0  0  0  0  0
  -46.4515  -31.6145    1.5749 C   0  0  0  0  0  0  0  0  0  0  0  0
  -44.0939  -33.2521   -4.6842 C   0  0  0  0  0  0  0  0  0  0  0  0
  -46.0240  -30.4633    2.5190 C   0  0  0  0  0  0  0  0  0  0  0  0
  -45.3779  -32.1303    0.8503 N   0  0  0  0  0  0  0  0  0  0  0  0
  -47.6225  -31.9784    1.5129 O   0  0  0  0  0  0  0  0  0  0  0  0
  -42.1404  -33.3813   -2.9629 O   0  0  0  0  0  0  0  0  0  0  0  0
  -43.1118  -35.5332   -3.8428 O   0  0  0  0  0  0  0  0  0  0  0  0
  -43.2955  -34.1639   -3.3828 S   0  0  0  0  0  0  0  0  0  0  0  0
  -47.5074  -34.2743    1.2510 Cl  0  0  0  0  0  0  0  0  0  0  0  0
  -43.6122  -26.4042   -0.0344 H   0  0  0  0  0  0  0  0  0  0  0  0
  -50.0755  -28.9374    5.7699 H   0  0  0  0  0  0  0  0  0  0  0  0
  -42.2639  -28.2900    0.8494 H   0  0  0  0  0  0  0  0  0  0  0  0
  -46.0750  -26.3948    0.2624 H   0  0  0  0  0  0  0  0  0  0  0  0
  -47.7247  -28.7268    6.5346 H   0  0  0  0  0  0  0  0  0  0  0  0
  -50.5692  -29.8476    3.5157 H   0  0  0  0  0  0  0  0  0  0  0  0
  -43.3700  -30.1629    2.0261 H   0  0  0  0  0  0  0  0  0  0  0  0
  -47.1907  -28.2617    1.4390 H   0  0  0  0  0  0  0  0  0  0  0  0
  -45.8703  -29.4218    5.0534 H   0  0  0  0  0  0  0  0  0  0  0  0
  -48.7224  -30.5470    2.0275 H   0  0  0  0  0  0  0  0  0  0  0  0
  -45.4039  -36.0189   -2.7396 H   0  0  0  0  0  0  0  0  0  0  0  0
  -47.0494  -36.0489   -0.9167 H   0  0  0  0  0  0  0  0  0  0  0  0
  -43.7408  -32.3589   -1.2014 H   0  0  0  0  0  0  0  0  0  0  0  0
  -43.4133  -33.1989   -5.5352 H   0  0  0  0  0  0  0  0  0  0  0  0
  -44.3217  -32.2518   -4.3138 H   0  0  0  0  0  0  0  0  0  0  0  0
  -45.0105  -33.7757   -4.9595 H   0  0  0  0  0  0  0  0  0  0  0  0
  -45.2843  -30.9397    3.1978 H   0  0  0  0  0  0  0  0  0  0  0  0
  -44.4624  -31.7192    1.0170 H   0  0  0  0  0  0  0  0  0  0  0  0
  1  3  1  0  0  0  0
  1  4  2  0  0  0  0
  2  5  1  0  0  0  0
  2  6  2  0  0  0  0
  3  7  2  0  0  0  0
  4  8  1  0  0  0  0
  5  9  2  0  0  0  0
  6 10  1  0  0  0  0
  7 14  1  0  0  0  0
  8 14  2  0  0  0  0
  9 15  1  0  0  0  0
 10 15  2  0  0  0  0
 11 12  2  0  0  0  0
 11 17  1  0  0  0  0
 12 18  1  0  0  0  0
 13 16  1  0  0  0  0
 13 17  2  0  0  0  0
 14 21  1  0  0  0  0
 15 21  1  0  0  0  0
 16 18  2  0  0  0  0
 16 22  1  0  0  0  0
 17 26  1  0  0  0  0
 18 27  1  0  0  0  0
 19 21  1  0  0  0  0
 19 22  1  0  0  0  0
 19 23  2  0  0  0  0
 20 26  1  0  0  0  0
 24 26  2  0  0  0  0
 25 26  2  0  0  0  0
  1 28  1  0  0  0  0
  2 29  1  0  0  0  0
  3 30  1  0  0  0  0
  4 31  1  0  0  0  0
  5 32  1  0  0  0  0
  6 33  1  0  0  0  0
  7 34  1  0  0  0  0
  8 35  1  0  0  0  0
  9 36  1  0  0  0  0
 10 37  1  0  0  0  0
 11 38  1  0  0  0  0
 12 39  1  0  0  0  0
 13 40  1  0  0  0  0
 20 41  1  0  0  0  0
 20 42  1  0  0  0  0
 20 43  1  0  0  0  0
 21 44  1  0  0  0  0
 22 45  1  0  0  0  0
M  END
> <POSIT::Probability>
0.24

> <POSIT::Method>
FRED

> <ReceptorTitle>
UCSF-P4661-REFINED_LIGAND-BOUND-STATE_A__DU__LA1_A-201(A)

> <OMEGA_C>
X2YwwsvN2cFs7/Y+Aw1Fwtjy6cF9xqNAXV4twsJJ4sFKnno/XfA1wiDD2cHyMyY/hMM/ws//6MGX
hbFAKilGwucK7sFFbnZADeAvwji66sGSQtI/DXI4wpYz4sFoDag/cJY7whYl7MG2uJZAF/xBwi4w
8cGG1EBAgpY1wpjgDMKuOQDA0FI5wjTwDMKSrne/EN8xwlypBMJmMJG/Gmo1woSv6sF2oOc/orI8
wi498MH7UVxAUps1wu64BMLcUcm9s9wxwu68CMJMjwXAL1U5wqPcCMJgiHS8V845wnjq/MGKlck/
K2AwwhwCBcIK5ZXAiBg4wuu088FeNyFA8II1wneFAMJqsFk/eX0+wrLT/8HqpcE/xY8owneGBcLL
oD3Ag3IswgYiDsK88HXAky4twtOnCMJagFjAjQc+wugYCcKqIaA/43Iuwtc708FgAw29Vk1IwuR/
58Epo7hALw4pwvNR4sF6c1k/xEw4wngo08GMW4Y+HOY+wobQ5cG9G9FA5kZKwurH7sHbAWFA7Xot
wqpN8cGeqwFAUsM8wgQY4sGmMLg/JHs3wthf68GqtaFAvONCwlpg9MHewgFAnp01wlATEMLRVC/A
njI8whIyEML+r2q/mvYuwopvAcJixpm/Pactwq3LBMKGILHAd0kxwtkBAcLQCorAuAo0wl4aB8IG
tJ7AFiM1woWE98EmqExAh9kxwvHA/cGBLYI/

> <OMEGA_E>
57j9wA==

> <OMEGA_NBR>
     69702

$$$$
CACHE3HI_1715_51
  -OEChem-03092622543D

 52 55  0     0  0  0  0  0  0999 V2000
  -48.5229  -28.7646    6.7838 C   0  0  0  0  0  0  0  0  0  0  0  0
  -49.8485  -28.7965    7.2132 C   0  0  0  0  0  0  0  0  0  0  0  0
  -44.3744  -25.7386    0.8033 C   0  0  0  0  0  0  0  0  0  0  0  0
  -48.2089  -29.0621    5.4565 C   0  0  0  0  0  0  0  0  0  0  0  0
  -50.8669  -29.1276    6.3195 C   0  0  0  0  0  0  0  0  0  0  0  0
  -44.6861  -32.5664   -0.0370 C   0  0  0  0  0  0  0  0  0  0  0  0
  -43.2337  -26.5320    0.9249 C   0  0  0  0  0  0  0  0  0  0  0  0
  -43.5338  -31.8877    0.3594 C   0  0  0  0  0  0  0  0  0  0  0  0
  -45.5745  -26.3048    0.3736 C   0  0  0  0  0  0  0  0  0  0  0  0
  -44.8397  -30.5747    1.9113 C   0  0  0  0  0  0  0  0  0  0  0  0
  -44.4930  -28.4575    0.1872 C   0  0  0  0  0  0  0  0  0  0  0  0
  -49.2314  -29.3879    4.5622 C   0  0  0  0  0  0  0  0  0  0  0  0
  -50.5535  -29.4253    4.9897 C   0  0  0  0  0  0  0  0  0  0  0  0
  -45.9152  -32.2493    0.5410 C   0  0  0  0  0  0  0  0  0  0  0  0
  -43.2929  -27.8913    0.6170 C   0  0  0  0  0  0  0  0  0  0  0  0
  -45.9920  -31.2535    1.5149 C   0  0  0  0  0  0  0  0  0  0  0  0
  -43.6105  -30.8919    1.3333 C   0  0  0  0  0  0  0  0  0  0  0  0
  -45.6338  -27.6641    0.0657 C   0  0  0  0  0  0  0  0  0  0  0  0
  -48.9853  -29.7127    3.1583 C   0  0  0  0  0  0  0  0  0  0  0  0
  -51.6114  -29.7886    4.0279 C   0  0  0  0  0  0  0  0  0  0  0  0
  -47.6057  -29.6816    2.6047 C   0  0  0  0  0  0  0  0  0  0  0  0
  -47.1332  -32.9929    0.0976 C   0  0  0  0  0  0  0  0  0  0  0  0
  -52.2195  -30.4620    1.7622 C   0  0  0  0  0  0  0  0  0  0  0  0
  -49.9036  -30.0412    2.3107 N   0  0  0  0  0  0  0  0  0  0  0  0
  -51.2023  -30.0845    2.7294 N   0  0  0  0  0  0  0  0  0  0  0  0
  -47.2316  -30.9164    2.1124 N   0  0  0  0  0  0  0  0  0  0  0  0
  -42.1158  -28.7078    0.7418 N   0  0  0  0  0  0  0  0  0  0  0  0
  -52.7783  -29.8158    4.4133 O   0  0  0  0  0  0  0  0  0  0  0  0
  -46.9786  -28.6349    2.6376 O   0  0  0  0  0  0  0  0  0  0  0  0
  -41.0250  -30.9045    1.5443 O   0  0  0  0  0  0  0  0  0  0  0  0
  -42.3569  -29.5562    3.1906 O   0  0  0  0  0  0  0  0  0  0  0  0
  -42.1674  -30.0435    1.8298 S   0  0  0  0  0  0  0  0  0  0  0  0
  -47.1152  -28.3625   -0.4632 Cl  0  0  0  0  0  0  0  0  0  0  0  0
  -47.7322  -28.5094    7.4836 H   0  0  0  0  0  0  0  0  0  0  0  0
  -50.0888  -28.5652    8.2470 H   0  0  0  0  0  0  0  0  0  0  0  0
  -44.3285  -24.6806    1.0442 H   0  0  0  0  0  0  0  0  0  0  0  0
  -47.1677  -29.0350    5.1510 H   0  0  0  0  0  0  0  0  0  0  0  0
  -51.8922  -29.1496    6.6781 H   0  0  0  0  0  0  0  0  0  0  0  0
  -44.6164  -33.3409   -0.7961 H   0  0  0  0  0  0  0  0  0  0  0  0
  -42.3038  -26.0806    1.2608 H   0  0  0  0  0  0  0  0  0  0  0  0
  -42.5809  -32.1427   -0.0971 H   0  0  0  0  0  0  0  0  0  0  0  0
  -46.4556  -25.6747    0.2840 H   0  0  0  0  0  0  0  0  0  0  0  0
  -44.8973  -29.7978    2.6705 H   0  0  0  0  0  0  0  0  0  0  0  0
  -44.5354  -29.5181   -0.0514 H   0  0  0  0  0  0  0  0  0  0  0  0
  -47.2941  -33.8896    0.7085 H   0  0  0  0  0  0  0  0  0  0  0  0
  -47.0356  -33.3273   -0.9426 H   0  0  0  0  0  0  0  0  0  0  0  0
  -48.0186  -32.3518    0.1774 H   0  0  0  0  0  0  0  0  0  0  0  0
  -52.6055  -29.5786    1.2454 H   0  0  0  0  0  0  0  0  0  0  0  0
  -51.7997  -31.1471    1.0203 H   0  0  0  0  0  0  0  0  0  0  0  0
  -53.0499  -30.9655    2.2647 H   0  0  0  0  0  0  0  0  0  0  0  0
  -47.9192  -31.6635    2.1867 H   0  0  0  0  0  0  0  0  0  0  0  0
  -41.6026  -28.8616   -0.1359 H   0  0  0  0  0  0  0  0  0  0  0  0
  1  2  1  0  0  0  0
  1  4  2  0  0  0  0
  2  5  2  0  0  0  0
  3  7  2  0  0  0  0
  3  9  1  0  0  0  0
  4 12  1  0  0  0  0
  5 13  1  0  0  0  0
  6  8  2  0  0  0  0
  6 14  1  0  0  0  0
  7 15  1  0  0  0  0
  8 17  1  0  0  0  0
  9 18  2  0  0  0  0
 10 16  1  0  0  0  0
 10 17  2  0  0  0  0
 11 15  2  0  0  0  0
 11 18  1  0  0  0  0
 12 13  2  0  0  0  0
 12 19  1  0  0  0  0
 13 20  1  0  0  0  0
 14 16  2  0  0  0  0
 14 22  1  0  0  0  0
 15 27  1  0  0  0  0
 16 26  1  0  0  0  0
 17 32  1  0  0  0  0
 18 33  1  0  0  0  0
 19 21  1  0  0  0  0
 19 24  2  0  0  0  0
 20 25  1  0  0  0  0
 20 28  2  0  0  0  0
 21 26  1  0  0  0  0
 21 29  2  0  0  0  0
 23 25  1  0  0  0  0
 24 25  1  0  0  0  0
 27 32  1  0  0  0  0
 30 32  2  0  0  0  0
 31 32  2  0  0  0  0
  1 34  1  0  0  0  0
  2 35  1  0  0  0  0
  3 36  1  0  0  0  0
  4 37  1  0  0  0  0
  5 38  1  0  0  0  0
  6 39  1  0  0  0  0
  7 40  1  0  0  0  0
  8 41  1  0  0  0  0
  9 42  1  0  0  0  0
 10 43  1  0  0  0  0
 11 44  1  0  0  0  0
 22 45  1  0  0  0  0
 22 46  1  0  0  0  0
 22 47  1  0  0  0  0
 23 48  1  0  0  0  0
 23 49  1  0  0  0  0
 23 50  1  0  0  0  0
 26 51  1  0  0  0  0
 27 52  1  0  0  0  0
M  END
> <POSIT::Probability>
0.24

> <POSIT::Method>
FRED

> <ReceptorTitle>
UCSF-P4661-REFINED_LIGAND-BOUND-STATE_A__DU__LA1_A-201(A)

> <OMEGA_C>
bhdCwtod5sH0FNlA32RHwixf5sF50uZAbH8xwprozcGipk0/9tVAwh9/6MG0m65Au3dLwmgF6cEu
OcpAkL4ywghEAsJwmRe9RO8swpZB1MHKxGw/lSIuwvIZ/8F4ALg+S0w2wihw0sE0Qr8+5FszwgqZ
9MFPpPQ/4vgxwgSp48F4vT8++uxEwlQa68GC/ZFAvjZKwg5n68Haq59ANKk3wkr/AMKAfQo/9Cst
wnMh38EO9h0/z/c3wiYH+sEW58E/L3EuwoQi98F2qKo/+og2wgZQ3cFokoY99/BDwoSz7cEaIUpA
EHJOwvlO7sFO5IBASWw+wvxz7cGKsyZAZog8wrD4A8JA/Mc9weBQwiay88H4j+E/S51Hwk5U8ME8
4hNAMc9Mwvqs8MH/rS5AIO08ws5U98EzMQdAjHYowpup5cGo6D0/+xxTwqyG7sGxOY1AGOo7wlAU
5cHDzShAlhkkwng898FArcU/cm0pwhZz7MElMkxAaqsowv1Y8MFPNeo/AXY8woDm4sH2I+2+0O0+
wlAT5MGJee9A+1pIwoCF5MGW8wNBb1AxwspxxcEyqIU/uas8wphH6MFg1aRAqJFPwlYy6cHIstVA
OncywhtdBcI5zku/IDcpwhal0MHTYqE/zlIqwhaSAMKQwsa9kdI5wrxlzcHEbpE+1ZYzwtlh7sEy
6ipAPyQywgsl7MEgcFK9JS09wu+OB8JGXjU/ayQ8whxPBcJFTnG/CBNAwkZoAcJorTU+CWxSwgGh
7MHAaZ8/4jJPwkAt+cHkmII/JjNUwnG598Ev8RBATa0/wvNO/cE28gtACWkmwnrk5sFAJgu+

> <OMEGA_E>
c432wA==

> <OMEGA_NBR>
     71235

$$$$
CACHE3HI_1716_62
  -OEChem-03092622543D

 41 44  0     1  0  0  0  0  0999 V2000
  -47.0432  -36.2625   -0.7287 C   0  0  0  0  0  0  0  0  0  0  0  0
  -46.0025  -36.2322   -1.6569 C   0  0  0  0  0  0  0  0  0  0  0  0
  -46.1740  -26.4032    0.4922 C   0  0  0  0  0  0  0  0  0  0  0  0
  -47.0628  -35.3561    0.3311 C   0  0  0  0  0  0  0  0  0  0  0  0
  -44.9714  -35.3005   -1.5212 C   0  0  0  0  0  0  0  0  0  0  0  0
  -47.1308  -27.3778    0.8552 C   0  0  0  0  0  0  0  0  0  0  0  0
  -45.4720  -29.1628    1.4413 C   0  0  0  0  0  0  0  0  0  0  0  0
  -44.5567  -28.1840    1.0772 C   0  0  0  0  0  0  0  0  0  0  0  0
  -44.8444  -26.8469    0.6161 C   0  0  0  0  0  0  0  0  0  0  0  0
  -46.0409  -34.4139    0.4572 C   0  0  0  0  0  0  0  0  0  0  0  0
  -44.9850  -34.3991   -0.4559 C   0  0  0  0  0  0  0  0  0  0  0  0
  -46.7924  -28.6922    1.3072 C   0  0  0  0  0  0  0  0  0  0  0  0
  -43.1979  -28.3185    1.0929 C   0  0  0  0  0  0  0  0  0  0  0  0
  -43.0968  -31.5849    0.5040 C   0  0  0  0  0  0  0  0  0  0  0  0
  -45.2893  -32.3991    1.3095 C   0  0  0  0  0  0  0  0  0  0  0  0
  -43.8866  -32.8071    0.8696 C   0  0  2  0  0  0  0  0  0  0  0  0
  -43.1221  -33.6056    1.9258 C   0  0  0  0  0  0  0  0  0  0  0  0
  -42.2748  -29.4432    1.4646 C   0  0  0  0  0  0  0  0  0  0  0  0
  -43.6865  -26.2094    0.3664 N   0  0  0  0  0  0  0  0  0  0  0  0
  -42.7298  -27.1119    0.6597 N   0  0  0  0  0  0  0  0  0  0  0  0
  -42.9725  -30.7047    1.5651 N   0  0  0  0  0  0  0  0  0  0  0  0
  -42.6462  -31.4177   -0.6267 O   0  0  0  0  0  0  0  0  0  0  0  0
  -46.1197  -33.5443    1.5127 O   0  0  0  0  0  0  0  0  0  0  0  0
  -43.9282  -33.5325   -0.3647 O   0  0  0  0  0  0  0  0  0  0  0  0
  -48.0850  -29.7701    1.7145 Cl  0  0  0  0  0  0  0  0  0  0  0  0
  -47.8396  -36.9955   -0.8306 H   0  0  0  0  0  0  0  0  0  0  0  0
  -45.9965  -36.9298   -2.4888 H   0  0  0  0  0  0  0  0  0  0  0  0
  -46.4498  -25.4139    0.1521 H   0  0  0  0  0  0  0  0  0  0  0  0
  -47.8690  -35.3965    1.0579 H   0  0  0  0  0  0  0  0  0  0  0  0
  -44.1701  -35.2776   -2.2541 H   0  0  0  0  0  0  0  0  0  0  0  0
  -48.1827  -27.0998    0.7821 H   0  0  0  0  0  0  0  0  0  0  0  0
  -45.2199  -30.1561    1.7871 H   0  0  0  0  0  0  0  0  0  0  0  0
  -45.2649  -31.8281    2.2456 H   0  0  0  0  0  0  0  0  0  0  0  0
  -45.7751  -31.7769    0.5512 H   0  0  0  0  0  0  0  0  0  0  0  0
  -43.6883  -34.4946    2.1971 H   0  0  0  0  0  0  0  0  0  0  0  0
  -42.9715  -32.9934    2.8131 H   0  0  0  0  0  0  0  0  0  0  0  0
  -42.1526  -33.9063    1.5309 H   0  0  0  0  0  0  0  0  0  0  0  0
  -41.4819  -29.5546    0.7175 H   0  0  0  0  0  0  0  0  0  0  0  0
  -41.7898  -29.2514    2.4274 H   0  0  0  0  0  0  0  0  0  0  0  0
  -41.7645  -26.8322    0.5389 H   0  0  0  0  0  0  0  0  0  0  0  0
  -43.4116  -30.9310    2.4525 H   0  0  0  0  0  0  0  0  0  0  0  0
  1  2  1  0  0  0  0
  1  4  2  0  0  0  0
  2  5  2  0  0  0  0
  3  6  2  0  0  0  0
  3  9  1  0  0  0  0
  4 10  1  0  0  0  0
  5 11  1  0  0  0  0
  6 12  1  0  0  0  0
  7  8  1  0  0  0  0
  7 12  2  0  0  0  0
  8  9  1  0  0  0  0
  8 13  2  0  0  0  0
  9 19  2  0  0  0  0
 10 11  2  0  0  0  0
 10 23  1  0  0  0  0
 11 24  1  0  0  0  0
 12 25  1  0  0  0  0
 13 18  1  0  0  0  0
 13 20  1  0  0  0  0
 14 16  1  0  0  0  0
 14 21  1  0  0  0  0
 14 22  2  0  0  0  0
 15 16  1  0  0  0  0
 15 23  1  0  0  0  0
 16 17  1  0  0  0  0
 16 24  1  0  0  0  0
 18 21  1  0  0  0  0
 19 20  1  0  0  0  0
  1 26  1  0  0  0  0
  2 27  1  0  0  0  0
  3 28  1  0  0  0  0
  4 29  1  0  0  0  0
  5 30  1  0  0  0  0
  6 31  1  0  0  0  0
  7 32  1  0  0  0  0
 15 33  1  0  0  0  0
 15 34  1  0  0  0  0
 17 35  1  0  0  0  0
 17 36  1  0  0  0  0
 17 37  1  0  0  0  0
 18 38  1  0  0  0  0
 18 39  1  0  0  0  0
 20 40  1  0  0  0  0
 21 41  1  0  0  0  0
M  END
> <POSIT::Probability>
0.23

> <POSIT::Method>
HYBRID

> <ReceptorTitle>
UCSF-P4661-REFINED_LIGAND-BOUND-STATE_A__DU__LA1_A-201(A)

> <OMEGA_C>
SSw8wtQMEcLYjjq/lQI4wr7tEMJUFtS/NrI4wtU508E4Avw+T0A8wqFsDcKggak+vuIzwrczDcJE
tsK/84U8wsoF28HY61o/VeM1wmFN6cGsfLg/DToywt544cEe4Yk/pmAzwmzG1sG0th0/6Sk4wtGn
CcKQGOo+n/AzwrWYCcIQaem+cis7wrGJ5cFcU6c/scoswjiM4sHY44s/J2Mswt+t/MFQCAE/Myg1
wq6YAcKonqc/3IsvwoE6A8LUn14/DX0swhlsBsIogfY/XRkpwrGL68GSdrs/9r4uwtKs0cFAk7s+
WesqwjLl2MGQ4yg/4eMrwiCj9cE0Vsg/tJUqwohX+8EgbyC/k3o4wmgtBsIIn8E/b7YvwlAhBsJA
tLq+CVdAwhwp7sEYdts/t1s/wmb7E8I4o1S/Yfw3wh+4E8K+Rx/An8w5wqhPy8EQxxs+2Xk/wgyW
DcICaYc/K64wwkocDcKEQhDAEbtAwlnM2MGwOEg/LuE0wsY/8cHqv+Q/Tw81wvKf/sEDuA9ArRk3
wv82/sFIHQ0/0sAuwoX6CcKMnAxA3OIrwkL5A8KcCTRAQJwowgugB8Kw9cM/g+0lws5v7MEAqzc/
vignws8C6sEBWhtA5A4nwmOo1sF09Qk/b6Utwrly98HN9RxA

> <OMEGA_E>
K/6ywA==

> <OMEGA_NBR>
     72557

$$$$
CACHE3HI_1717_25
  -OEChem-03092622543D

 51 55  0     0  0  0  0  0  0999 V2000
  -42.6829  -29.9939    3.4616 C   0  0  0  0  0  0  0  0  0  0  0  0
  -41.5570  -30.6318    2.9560 C   0  0  0  0  0  0  0  0  0  0  0  0
  -51.5444  -28.8267    5.6601 C   0  0  0  0  0  0  0  0  0  0  0  0
  -43.9178  -30.1905    2.8494 C   0  0  0  0  0  0  0  0  0  0  0  0
  -45.2945  -34.3067   -1.8969 C   0  0  0  0  0  0  0  0  0  0  0  0
  -43.0255  -33.6442   -2.3974 C   0  0  0  0  0  0  0  0  0  0  0  0
  -50.2918  -29.3411    5.2656 C   0  0  0  0  0  0  0  0  0  0  0  0
  -45.2899  -35.1560   -3.0034 C   0  0  0  0  0  0  0  0  0  0  0  0
  -43.0209  -34.4934   -3.5039 C   0  0  0  0  0  0  0  0  0  0  0  0
  -41.6683  -31.4652    1.8398 C   0  0  0  0  0  0  0  0  0  0  0  0
  -52.5466  -28.5736    4.7172 C   0  0  0  0  0  0  0  0  0  0  0  0
  -45.3362  -32.0778   -0.0151 C   0  0  0  0  0  0  0  0  0  0  0  0
  -44.0286  -31.0284    1.7266 C   0  0  0  0  0  0  0  0  0  0  0  0
  -44.1620  -33.5509   -1.5939 C   0  0  0  0  0  0  0  0  0  0  0  0
  -50.0203  -29.6116    3.9219 C   0  0  0  0  0  0  0  0  0  0  0  0
  -45.2591  -31.2442    1.0911 C   0  0  0  0  0  0  0  0  0  0  0  0
  -44.1534  -35.2493   -3.8069 C   0  0  0  0  0  0  0  0  0  0  0  0
  -42.8899  -31.6795    1.2083 C   0  0  0  0  0  0  0  0  0  0  0  0
  -51.0288  -29.3497    3.0233 C   0  0  0  0  0  0  0  0  0  0  0  0
  -52.2560  -28.8469    3.3983 C   0  0  0  0  0  0  0  0  0  0  0  0
  -44.1676  -32.6704   -0.4497 C   0  0  0  0  0  0  0  0  0  0  0  0
  -52.3233  -29.0926    1.2334 C   0  0  0  0  0  0  0  0  0  0  0  0
  -48.7023  -30.1537    3.5028 C   0  0  0  0  0  0  0  0  0  0  0  0
  -46.4990  -30.6209    1.5444 C   0  0  0  0  0  0  0  0  0  0  0  0
  -44.1489  -36.1584   -4.9890 C   0  0  0  0  0  0  0  0  0  0  0  0
  -42.9614  -32.4901    0.1336 N   0  0  0  0  0  0  0  0  0  0  0  0
  -51.0720  -29.5040    1.6633 N   0  0  0  0  0  0  0  0  0  0  0  0
  -48.7161  -30.9591    2.3803 N   0  0  0  0  0  0  0  0  0  0  0  0
  -47.5269  -31.4801    1.9272 N   0  0  0  0  0  0  0  0  0  0  0  0
  -52.7279  -29.0857    0.0775 O   0  0  0  0  0  0  0  0  0  0  0  0
  -47.6972  -29.8569    4.1443 O   0  0  0  0  0  0  0  0  0  0  0  0
  -46.6008  -29.3849    1.5913 O   0  0  0  0  0  0  0  0  0  0  0  0
  -53.1083  -28.6651    2.3200 O   0  0  0  0  0  0  0  0  0  0  0  0
  -42.6004  -29.3459    4.3288 H   0  0  0  0  0  0  0  0  0  0  0  0
  -40.5898  -30.4840    3.4274 H   0  0  0  0  0  0  0  0  0  0  0  0
  -51.7314  -28.6240    6.7113 H   0  0  0  0  0  0  0  0  0  0  0  0
  -44.7820  -29.6788    3.2659 H   0  0  0  0  0  0  0  0  0  0  0  0
  -46.1881  -34.2450   -1.2805 H   0  0  0  0  0  0  0  0  0  0  0  0
  -42.1354  -33.0604   -2.1747 H   0  0  0  0  0  0  0  0  0  0  0  0
  -49.5368  -29.5258    6.0265 H   0  0  0  0  0  0  0  0  0  0  0  0
  -46.1761  -35.7418   -3.2328 H   0  0  0  0  0  0  0  0  0  0  0  0
  -42.1308  -34.5597   -4.1239 H   0  0  0  0  0  0  0  0  0  0  0  0
  -40.7714  -31.9537    1.4631 H   0  0  0  0  0  0  0  0  0  0  0  0
  -53.5091  -28.1779    5.0193 H   0  0  0  0  0  0  0  0  0  0  0  0
  -46.2814  -32.2560   -0.5193 H   0  0  0  0  0  0  0  0  0  0  0  0
  -44.4998  -35.6412   -5.8917 H   0  0  0  0  0  0  0  0  0  0  0  0
  -44.8169  -37.0162   -4.8345 H   0  0  0  0  0  0  0  0  0  0  0  0
  -43.1362  -36.5361   -5.1767 H   0  0  0  0  0  0  0  0  0  0  0  0
  -50.3191  -29.8545    1.0846 H   0  0  0  0  0  0  0  0  0  0  0  0
  -49.5859  -31.1621    1.9001 H   0  0  0  0  0  0  0  0  0  0  0  0
  -47.3987  -32.4847    1.8720 H   0  0  0  0  0  0  0  0  0  0  0  0
  1  2  1  0  0  0  0
  1  4  2  0  0  0  0
  2 10  2  0  0  0  0
  3  7  2  0  0  0  0
  3 11  1  0  0  0  0
  4 13  1  0  0  0  0
  5  8  2  0  0  0  0
  5 14  1  0  0  0  0
  6  9  1  0  0  0  0
  6 14  2  0  0  0  0
  7 15  1  0  0  0  0
  8 17  1  0  0  0  0
  9 17  2  0  0  0  0
 10 18  1  0  0  0  0
 11 20  2  0  0  0  0
 12 16  2  0  0  0  0
 12 21  1  0  0  0  0
 13 16  1  0  0  0  0
 13 18  2  0  0  0  0
 14 21  1  0  0  0  0
 15 19  2  0  0  0  0
 15 23  1  0  0  0  0
 16 24  1  0  0  0  0
 17 25  1  0  0  0  0
 18 26  1  0  0  0  0
 19 20  1  0  0  0  0
 19 27  1  0  0  0  0
 20 33  1  0  0  0  0
 21 26  2  0  0  0  0
 22 27  1  0  0  0  0
 22 30  2  0  0  0  0
 22 33  1  0  0  0  0
 23 28  1  0  0  0  0
 23 31  2  0  0  0  0
 24 29  1  0  0  0  0
 24 32  2  0  0  0  0
 28 29  1  0  0  0  0
  1 34  1  0  0  0  0
  2 35  1  0  0  0  0
  3 36  1  0  0  0  0
  4 37  1  0  0  0  0
  5 38  1  0  0  0  0
  6 39  1  0  0  0  0
  7 40  1  0  0  0  0
  8 41  1  0  0  0  0
  9 42  1  0  0  0  0
 10 43  1  0  0  0  0
 11 44  1  0  0  0  0
 12 45  1  0  0  0  0
 25 46  1  0  0  0  0
 25 47  1  0  0  0  0
 25 48  1  0  0  0  0
 27 49  1  0  0  0  0
 28 50  1  0  0  0  0
 29 51  1  0  0  0  0
M  END
> <POSIT::Probability>
0.04

> <POSIT::Method>
HYBRID

> <ReceptorTitle>
UCSF-P4661-REFINED_LIGAND-BOUND-STATE_A__DU__LA1_A-201(A)

> <OMEGA_C>
Tbsqwn7z78Gwil1AYzomwvQN9cFULj1Agy1Owh2d5sFIH7VA3KsvwhaG8cF0XDZAhi01wg86CcIw
zvK/IRoswqSTBsLIbxnA1ypJwqe66sG6f6hA2ig1wr6fDMI0OEDAbRUswkn5CcJeQGDATqwmwsi4
+8Gkfus/rC9SwsyW5MF985ZARFg1wrdPAMIAFne8QR0wwj46+MFwAt0/66Uwwho0BsIsBsy/xBRI
wprk7MGw/3pAVwk1whH0+cF8qYs/D50wwkj/DMLmpHPAR48rwoxv/cHsqJo/hh1MwkTM6sFqfUFA
MAZRwmDG5sFOfllAoqswwoWuAsIARea+F0tRwqS96MFc350/Lc9CwsY68cGsLWBA7/45wqv39MFI
r8U/gJgwwjWiEMLtpZ/AcNgrwt/1AcKA0Qg+x0lMwh8I7MHE59Q/QN1Cwkms98F8VxhAixs+wj/X
+8Fgr/Y/V+lSwniv6MHAvJ498Mk+wtfa7sH6nYRAMWc6wlcU68Gorss/325UwjpS5cG0ehRA2WYq
wlPE6sGohYpA71siwjXf88HIWVtA/uxOwvz95MFew9ZAziAzwi9u7cHABFFAmcA4wub6CMJE6KO/
pYoowuM9BMKsLQvAsSVGwtI07MFm2cBAUrQ4wp/3DsIw5k7A9YUowiY9CsLe9oPA6BUjwiCh/8E4
SLs/UglWwkxs4cG4naBAKSA5wi8GAcII8QS/yP8xwouQDsLSiLzAdkQzwp8QFMIWtJrAd4sswvsk
EsJip6XAx0ZJwhjW7sGw0oo/8ldGwu1L+cEAOPM/Qpg9wlLwAcJonO8/

> <OMEGA_E>
setQwA==

> <OMEGA_NBR>
     74078

$$$$
CACHE3HI_1718_45
  -OEChem-03092622543D

 35 36  0     0  0  0  0  0  0999 V2000
  -47.9268  -28.5752    4.8506 C   0  0  0  0  0  0  0  0  0  0  0  0
  -48.9760  -28.6041    5.7694 C   0  0  0  0  0  0  0  0  0  0  0  0
  -50.0311  -30.3760    4.5105 C   0  0  0  0  0  0  0  0  0  0  0  0
  -47.9299  -29.4469    3.7618 C   0  0  0  0  0  0  0  0  0  0  0  0
  -50.0280  -29.5042    5.5994 C   0  0  0  0  0  0  0  0  0  0  0  0
  -48.9820  -30.3471    3.5918 C   0  0  0  0  0  0  0  0  0  0  0  0
  -43.7891  -30.2379    2.6144 C   0  0  0  0  0  0  0  0  0  0  0  0
  -46.8137  -29.3802    2.8265 C   0  0  0  0  0  0  0  0  0  0  0  0
  -52.4497  -29.3054    6.2902 C   0  0  0  0  0  0  0  0  0  0  0  0
  -43.1630  -28.2519    1.1812 C   0  0  0  0  0  0  0  0  0  0  0  0
  -52.5750  -29.7431    8.7520 C   0  0  0  0  0  0  0  0  0  0  0  0
  -45.0288  -30.6332    1.8677 C   0  0  0  0  0  0  0  0  0  0  0  0
  -43.2707  -30.8118    3.6756 N   0  0  0  0  0  0  0  0  0  0  0  0
  -42.1433  -30.0813    3.9791 N   0  0  0  0  0  0  0  0  0  0  0  0
  -41.9771  -29.0826    3.1206 N   0  0  0  0  0  0  0  0  0  0  0  0
  -43.0069  -29.1824    2.2688 N   0  0  0  0  0  0  0  0  0  0  0  0
  -51.0771  -29.5326    6.5187 N   0  0  0  0  0  0  0  0  0  0  0  0
  -53.1790  -29.4263    7.4775 N   0  0  0  0  0  0  0  0  0  0  0  0
  -46.5075  -28.3733    2.1782 O   0  0  0  0  0  0  0  0  0  0  0  0
  -52.9658  -29.0363    5.2082 O   0  0  0  0  0  0  0  0  0  0  0  0
  -46.1490  -30.5726    2.7568 O   0  0  0  0  0  0  0  0  0  0  0  0
  -49.0231  -31.4409    2.2561 Cl  0  0  0  0  0  0  0  0  0  0  0  0
  -47.1138  -27.8682    4.9951 H   0  0  0  0  0  0  0  0  0  0  0  0
  -48.9635  -27.9192    6.6136 H   0  0  0  0  0  0  0  0  0  0  0  0
  -50.8543  -31.0756    4.3815 H   0  0  0  0  0  0  0  0  0  0  0  0
  -43.7630  -27.3886    1.4879 H   0  0  0  0  0  0  0  0  0  0  0  0
  -43.6559  -28.7428    0.3363 H   0  0  0  0  0  0  0  0  0  0  0  0
  -42.1913  -27.8699    0.8512 H   0  0  0  0  0  0  0  0  0  0  0  0
  -52.5839  -30.8232    8.9240 H   0  0  0  0  0  0  0  0  0  0  0  0
  -51.5395  -29.3923    8.7770 H   0  0  0  0  0  0  0  0  0  0  0  0
  -53.1237  -29.2542    9.5618 H   0  0  0  0  0  0  0  0  0  0  0  0
  -45.2057  -29.9602    1.0221 H   0  0  0  0  0  0  0  0  0  0  0  0
  -44.9384  -31.6518    1.4738 H   0  0  0  0  0  0  0  0  0  0  0  0
  -50.8156  -29.7467    7.4874 H   0  0  0  0  0  0  0  0  0  0  0  0
  -54.1791  -29.2523    7.4555 H   0  0  0  0  0  0  0  0  0  0  0  0
  1  2  2  0  0  0  0
  1  4  1  0  0  0  0
  2  5  1  0  0  0  0
  3  5  2  0  0  0  0
  3  6  1  0  0  0  0
  4  6  2  0  0  0  0
  4  8  1  0  0  0  0
  5 17  1  0  0  0  0
  6 22  1  0  0  0  0
  7 12  1  0  0  0  0
  7 13  2  0  0  0  0
  7 16  1  0  0  0  0
  8 19  2  0  0  0  0
  8 21  1  0  0  0  0
  9 17  1  0  0  0  0
  9 18  1  0  0  0  0
  9 20  2  0  0  0  0
 10 16  1  0  0  0  0
 11 18  1  0  0  0  0
 12 21  1  0  0  0  0
 13 14  1  0  0  0  0
 14 15  2  0  0  0  0
 15 16  1  0  0  0  0
  1 23  1  0  0  0  0
  2 24  1  0  0  0  0
  3 25  1  0  0  0  0
 10 26  1  0  0  0  0
 10 27  1  0  0  0  0
 10 28  1  0  0  0  0
 11 29  1  0  0  0  0
 11 30  1  0  0  0  0
 11 31  1  0  0  0  0
 12 32  1  0  0  0  0
 12 33  1  0  0  0  0
 17 34  1  0  0  0  0
 18 35  1  0  0  0  0
M  END
> <POSIT::Probability>
0.05

> <POSIT::Method>
FRED

> <ReceptorTitle>
UCSF-P4661-REFINED_LIGAND-BOUND-STATE_A__DU__LA1_A-201(A)

> <OMEGA_C>
FrU/wgCa5MFQOJtAZedDwiDV5MEkn7hA1R9Iwv4B88FeVpBAO7g/wliT68G4wXBAthxIwpoI7ME6
LrNAjO1DwtPG8sHo32VAECgvwkDn8cGYUSdAQ0E7wqkK68H85DRAeMxRwnxx6sFwSclA36YswuUD
4sEAMJc/zkxSws3x7cFdCAxBgB00wssQ9cEAEu8/OhUtwqp+9sEAPWtAwJIowpmm8MGcqX5Ajugn
whSp6MGkuEdAFQcswoR16cFAMxFA9k5MwrFC7MEsmdBAWLdUwiVp68GwR+9Arwc6wm784sGwZwtA
9txTwmpK6MHKqaZAn5g4wqCU9MF0bzBArhdEwgWH+8FsYxBAinQ8wgvy3sG0159AndpDwoxa38HK
otNAxGpLwuGa+MGcNYxAWA0vwuYb28EodL4/qJ8uwlnx5cFgLaw+5cMowpb13sGg6Vk/7lVSwv6V
9sHKyA5BZyhOwmoj68GSbgxBn35UwoYI6sEu/RhBm9I0wmuu78GA1II/+cAzwtQ2/cFIprw/M0NL
wiz57cEGme9AbLdYwsoE6sHSk+5A

> <OMEGA_E>
FRgLwQ==

> <OMEGA_NBR>
     75265

$$$$
CACHE3HI_1718_87
  -OEChem-03092622543D

 54 55  0     0  0  0  0  0  0999 V2000
  -50.7464  -30.6896    3.8388 C   0  0  0  0  0  0  0  0  0  0  0  0
  -47.0246  -34.4928   -0.2681 C   0  0  0  0  0  0  0  0  0  0  0  0
  -45.8949  -32.3634   -0.1042 C   0  0  0  0  0  0  0  0  0  0  0  0
  -50.2434  -29.6801    4.6595 C   0  0  0  0  0  0  0  0  0  0  0  0
  -49.9050  -31.3349    2.9326 C   0  0  0  0  0  0  0  0  0  0  0  0
  -45.9817  -34.9850   -1.0528 C   0  0  0  0  0  0  0  0  0  0  0  0
  -44.8519  -32.8556   -0.8888 C   0  0  0  0  0  0  0  0  0  0  0  0
  -46.9810  -33.1819    0.2063 C   0  0  0  0  0  0  0  0  0  0  0  0
  -48.8994  -29.3162    4.5744 C   0  0  0  0  0  0  0  0  0  0  0  0
  -44.8955  -34.1665   -1.3632 C   0  0  0  0  0  0  0  0  0  0  0  0
  -48.5610  -30.9710    2.8475 C   0  0  0  0  0  0  0  0  0  0  0  0
  -48.0580  -29.9615    3.6682 C   0  0  0  0  0  0  0  0  0  0  0  0
  -48.0677  -32.6686    1.0252 C   0  0  0  0  0  0  0  0  0  0  0  0
  -46.0096  -29.0920    2.4728 C   0  0  0  0  0  0  0  0  0  0  0  0
  -48.3907  -28.2315    5.4679 C   0  0  0  0  0  0  0  0  0  0  0  0
  -43.1935  -29.4368    0.9575 C   0  0  0  0  0  0  0  0  0  0  0  0
  -46.9757  -33.6885   -3.7459 C   0  0  0  0  0  0  0  0  0  0  0  0
  -43.7066  -28.3263    1.8581 C   0  0  0  0  0  0  0  0  0  0  0  0
  -45.6823  -34.0573   -4.4521 C   0  0  0  0  0  0  0  0  0  0  0  0
  -47.7289  -31.6421    1.9180 N   0  0  0  0  0  0  0  0  0  0  0  0
  -46.7098  -29.5937    3.5852 N   0  0  0  0  0  0  0  0  0  0  0  0
  -43.8278  -34.6711   -2.1658 N   0  0  0  0  0  0  0  0  0  0  0  0
  -44.6721  -28.8461    2.8000 N   0  0  0  0  0  0  0  0  0  0  0  0
  -44.6278  -33.0637   -4.1507 N   0  0  0  0  0  0  0  0  0  0  0  0
  -49.1991  -33.1671    0.9089 O   0  0  0  0  0  0  0  0  0  0  0  0
  -46.4775  -28.8864    1.3556 O   0  0  0  0  0  0  0  0  0  0  0  0
  -42.5434  -32.5056   -2.7381 O   0  0  0  0  0  0  0  0  0  0  0  0
  -42.4510  -34.4164   -4.3643 O   0  0  0  0  0  0  0  0  0  0  0  0
  -43.1882  -33.6297   -3.3927 S   0  0  0  0  0  0  0  0  0  0  0  0
  -51.7927  -30.9727    3.9051 H   0  0  0  0  0  0  0  0  0  0  0  0
  -47.8658  -35.1396   -0.0334 H   0  0  0  0  0  0  0  0  0  0  0  0
  -45.8502  -31.3404    0.2603 H   0  0  0  0  0  0  0  0  0  0  0  0
  -50.9070  -29.1833    5.3624 H   0  0  0  0  0  0  0  0  0  0  0  0
  -50.3093  -32.1198    2.2983 H   0  0  0  0  0  0  0  0  0  0  0  0
  -46.0255  -36.0082   -1.4174 H   0  0  0  0  0  0  0  0  0  0  0  0
  -44.0103  -32.2095   -1.1247 H   0  0  0  0  0  0  0  0  0  0  0  0
  -48.0224  -28.6403    6.4166 H   0  0  0  0  0  0  0  0  0  0  0  0
  -49.1858  -27.5169    5.7140 H   0  0  0  0  0  0  0  0  0  0  0  0
  -47.5728  -27.6904    4.9789 H   0  0  0  0  0  0  0  0  0  0  0  0
  -44.0240  -29.8888    0.4062 H   0  0  0  0  0  0  0  0  0  0  0  0
  -42.7055  -30.2265    1.5387 H   0  0  0  0  0  0  0  0  0  0  0  0
  -42.4726  -29.0532    0.2274 H   0  0  0  0  0  0  0  0  0  0  0  0
  -47.3130  -32.6990   -4.0701 H   0  0  0  0  0  0  0  0  0  0  0  0
  -46.8411  -33.6594   -2.6594 H   0  0  0  0  0  0  0  0  0  0  0  0
  -47.7701  -34.4074   -3.9738 H   0  0  0  0  0  0  0  0  0  0  0  0
  -42.8706  -27.8794    2.4058 H   0  0  0  0  0  0  0  0  0  0  0  0
  -44.1693  -27.5402    1.2524 H   0  0  0  0  0  0  0  0  0  0  0  0
  -45.3516  -35.0477   -4.1229 H   0  0  0  0  0  0  0  0  0  0  0  0
  -45.8485  -34.1014   -5.5334 H   0  0  0  0  0  0  0  0  0  0  0  0
  -46.7578  -31.3395    1.8954 H   0  0  0  0  0  0  0  0  0  0  0  0
  -46.1634  -29.7040    4.4440 H   0  0  0  0  0  0  0  0  0  0  0  0
  -43.9535  -35.6524   -2.4666 H   0  0  0  0  0  0  0  0  0  0  0  0
  -44.3655  -29.0085    3.7542 H   0  0  0  0  0  0  0  0  0  0  0  0
  -45.0196  -32.2022   -3.7460 H   0  0  0  0  0  0  0  0  0  0  0  0
  1  4  1  0  0  0  0
  1  5  2  0  0  0  0
  2  6  2  0  0  0  0
  2  8  1  0  0  0  0
  3  7  1  0  0  0  0
  3  8  2  0  0  0  0
  4  9  2  0  0  0  0
  5 11  1  0  0  0  0
  6 10  1  0  0  0  0
  7 10  2  0  0  0  0
  8 13  1  0  0  0  0
  9 12  1  0  0  0  0
  9 15  1  0  0  0  0
 10 22  1  0  0  0  0
 11 12  2  0  0  0  0
 11 20  1  0  0  0  0
 12 21  1  0  0  0  0
 13 20  1  0  0  0  0
 13 25  2  0  0  0  0
 14 21  1  0  0  0  0
 14 23  1  0  0  0  0
 14 26  2  0  0  0  0
 16 18  1  0  0  0  0
 17 19  1  0  0  0  0
 18 23  1  0  0  0  0
 19 24  1  0  0  0  0
 22 29  1  0  0  0  0
 24 29  1  0  0  0  0
 27 29  2  0  0  0  0
 28 29  2  0  0  0  0
  1 30  1  0  0  0  0
  2 31  1  0  0  0  0
  3 32  1  0  0  0  0
  4 33  1  0  0  0  0
  5 34  1  0  0  0  0
  6 35  1  0  0  0  0
  7 36  1  0  0  0  0
 15 37  1  0  0  0  0
 15 38  1  0  0  0  0
 15 39  1  0  0  0  0
 16 40  1  0  0  0  0
 16 41  1  0  0  0  0
 16 42  1  0  0  0  0
 17 43  1  0  0  0  0
 17 44  1  0  0  0  0
 17 45  1  0  0  0  0
 18 46  1  0  0  0  0
 18 47  1  0  0  0  0
 19 48  1  0  0  0  0
 19 49  1  0  0  0  0
 20 50  1  0  0  0  0
 21 51  1  0  0  0  0
 22 52  1  0  0  0  0
 23 53  1  0  0  0  0
 24 54  1  0  0  0  0
M  END
> <POSIT::Probability>
0.05

> <POSIT::Method>
FRED

> <ReceptorTitle>
UCSF-P4661-REFINED_LIGAND-BOUND-STATE_A__DU__LA1_A-201(A)

> <OMEGA_C>
SPxKwkKE9cEsrnVANhk8wqj4CcJASom+V5Q3wih0AcIAWdW9OflIwtFw7cG2GpVAvp5Hwuet+sG4
rztAOu03wqzwC8JAwoa/YWgzwiJsA8KAiGO/juw7wkm6BMKANlM++ZhDwoeH6sFoYZJABZUzwoyq
CMKgfq6/fT5CwprE98EYPTZAaztAwkGx78Gew2pASEVAwq6sAsIoOYM/zgk4wna86MEoQx5AGZBB
wgTa4cFL+a5AHMYswnt+68EoIHU/Iuc7whPBBsKkvW/AldMuwkac4sFk1e0/tro2wqw6CMJyd47A
Zuo+whoj/cGogPU/4tY6wv6/7MHec2VAsE8vwkCvCsI8nArAQrAywuDE5sFEMzNA6YIywkZBBMJA
0oTA3stEwierBMIArmg/6+g5wl8X58Hsg60/ciwqwskFAsJIPS/Azc0pwmOqCcJ2qIvAusAswtGE
BsJsIlnAuStPwgbI98G87HlAnHY/wvCODMIApQi9o2Y3wjG5+sEASIU+z6BLwmN36cFvmKtArTxJ
wq16AMKIFhNAFBo4wmkIEML4brW/iQowwo7WAMLg9I+/9hZAwlEf5cEoVc1AOL5Ewpsi3MEM2bZA
gEo+wuyF3cE2U59AlBgwwjUc78EQ+88+edIqwtHP8cFE9cQ/6eMpwgZt6MGA5Wg+fkA9wsTLAsIi
PoLATl07wjKjBsLUMyrAoBQ/wjOhCcKUUn7Ah3srwvUI38HY+BlAZK0wwmpS3MGwT6A//mc1wtQw
DMKs7oPA3GQ3wtlnCMKUEbHACAg7wjS3+sFkm/I/Wqc4wsWh7cFcNY5AaNAvwgKcDsKE3R3AT3Yx
wlMR6MFURXBADhQ0wgPPAMLwvm/A

> <OMEGA_E>
DUfFwA==

> <OMEGA_NBR>
     76831

$$$$
CACHE3HI_1879_38
  -OEChem-03092622543D

 42 45  0     0  0  0  0  0  0999 V2000
  -48.0273  -34.3587   -3.8341 C   0  0  0  0  0  0  0  0  0  0  0  0
  -46.7951  -35.0004   -3.7090 C   0  0  0  0  0  0  0  0  0  0  0  0
  -48.3537  -33.3045   -2.9811 C   0  0  0  0  0  0  0  0  0  0  0  0
  -45.8894  -34.5880   -2.7315 C   0  0  0  0  0  0  0  0  0  0  0  0
  -47.4480  -32.8920   -2.0035 C   0  0  0  0  0  0  0  0  0  0  0  0
  -45.6292  -29.2261    1.4105 C   0  0  0  0  0  0  0  0  0  0  0  0
  -44.7322  -30.0426    2.1009 C   0  0  0  0  0  0  0  0  0  0  0  0
  -42.9064  -28.6329    1.3920 C   0  0  0  0  0  0  0  0  0  0  0  0
  -44.3313  -33.9035   -0.2091 C   0  0  0  0  0  0  0  0  0  0  0  0
  -46.2159  -33.5337   -1.8785 C   0  0  0  0  0  0  0  0  0  0  0  0
  -43.8048  -27.7977    0.7160 C   0  0  0  0  0  0  0  0  0  0  0  0
  -45.1720  -28.0991    0.7169 C   0  0  0  0  0  0  0  0  0  0  0  0
  -43.3716  -29.7467    2.0892 C   0  0  0  0  0  0  0  0  0  0  0  0
  -45.2818  -33.1076   -0.8709 C   0  0  0  0  0  0  0  0  0  0  0  0
  -43.7064  -33.0278    0.6389 C   0  0  0  0  0  0  0  0  0  0  0  0
  -44.0135  -25.6821   -0.5644 C   0  0  0  0  0  0  0  0  0  0  0  0
  -45.4619  -25.5614   -0.1667 C   0  0  0  0  0  0  0  0  0  0  0  0
  -42.5983  -33.1641    1.6434 C   0  0  0  0  0  0  0  0  0  0  0  0
  -45.2493  -31.8356   -0.4646 N   0  0  0  0  0  0  0  0  0  0  0  0
  -43.2814  -26.7005    0.0061 N   0  0  0  0  0  0  0  0  0  0  0  0
  -41.8183  -31.9252    1.7733 N   0  0  0  0  0  0  0  0  0  0  0  0
  -43.4904  -24.8254   -1.2821 O   0  0  0  0  0  0  0  0  0  0  0  0
  -42.9619  -31.4424    4.0307 O   0  0  0  0  0  0  0  0  0  0  0  0
  -41.0732  -29.9675    3.2703 O   0  0  0  0  0  0  0  0  0  0  0  0
  -44.2461  -31.7897    0.4958 O   0  0  0  0  0  0  0  0  0  0  0  0
  -46.3283  -27.1348   -0.2307 S   0  0  0  0  0  0  0  0  0  0  0  0
  -42.2486  -30.7673    2.9539 S   0  0  0  0  0  0  0  0  0  0  0  0
  -48.7326  -34.6800   -4.5950 H   0  0  0  0  0  0  0  0  0  0  0  0
  -46.5412  -35.8225   -4.3716 H   0  0  0  0  0  0  0  0  0  0  0  0
  -49.3130  -32.8046   -3.0783 H   0  0  0  0  0  0  0  0  0  0  0  0
  -44.9331  -35.0990   -2.6466 H   0  0  0  0  0  0  0  0  0  0  0  0
  -47.7174  -32.0682   -1.3466 H   0  0  0  0  0  0  0  0  0  0  0  0
  -46.6871  -29.4790    1.4290 H   0  0  0  0  0  0  0  0  0  0  0  0
  -45.1081  -30.8995    2.6522 H   0  0  0  0  0  0  0  0  0  0  0  0
  -41.8400  -28.4172    1.3708 H   0  0  0  0  0  0  0  0  0  0  0  0
  -44.1270  -34.9576   -0.3277 H   0  0  0  0  0  0  0  0  0  0  0  0
  -45.5192  -25.1767    0.8565 H   0  0  0  0  0  0  0  0  0  0  0  0
  -45.9486  -24.8383   -0.8300 H   0  0  0  0  0  0  0  0  0  0  0  0
  -43.0010  -33.4145    2.6305 H   0  0  0  0  0  0  0  0  0  0  0  0
  -41.9083  -33.9659    1.3607 H   0  0  0  0  0  0  0  0  0  0  0  0
  -42.2687  -26.6457   -0.0735 H   0  0  0  0  0  0  0  0  0  0  0  0
  -41.3263  -31.6111    0.9279 H   0  0  0  0  0  0  0  0  0  0  0  0
  1  2  1  0  0  0  0
  1  3  2  0  0  0  0
  2  4  2  0  0  0  0
  3  5  1  0  0  0  0
  4 10  1  0  0  0  0
  5 10  2  0  0  0  0
  6  7  2  0  0  0  0
  6 12  1  0  0  0  0
  7 13  1  0  0  0  0
  8 11  1  0  0  0  0
  8 13  2  0  0  0  0
  9 14  1  0  0  0  0
  9 15  2  0  0  0  0
 10 14  1  0  0  0  0
 11 12  2  0  0  0  0
 11 20  1  0  0  0  0
 12 26  1  0  0  0  0
 13 27  1  0  0  0  0
 14 19  2  0  0  0  0
 15 18  1  0  0  0  0
 15 25  1  0  0  0  0
 16 17  1  0  0  0  0
 16 20  1  0  0  0  0
 16 22  2  0  0  0  0
 17 26  1  0  0  0  0
 18 21  1  0  0  0  0
 19 25  1  0  0  0  0
 21 27  1  0  0  0  0
 23 27  2  0  0  0  0
 24 27  2  0  0  0  0
  1 28  1  0  0  0  0
  2 29  1  0  0  0  0
  3 30  1  0  0  0  0
  4 31  1  0  0  0  0
  5 32  1  0  0  0  0
  6 33  1  0  0  0  0
  7 34  1  0  0  0  0
  8 35  1  0  0  0  0
  9 36  1  0  0  0  0
 17 37  1  0  0  0  0
 17 38  1  0  0  0  0
 18 39  1  0  0  0  0
 18 40  1  0  0  0  0
 20 41  1  0  0  0  0
 21 42  1  0  0  0  0
M  END
> <POSIT::Probability>
0.23

> <POSIT::Method>
HYBRID

> <ReceptorTitle>
UCSF-P4661-REFINED_LIGAND-BOUND-STATE_A__DU__LA1_A-201(A)

> <OMEGA_C>
8htAwldvCcI3YXXAMi47wnQADMJJYG3ALWpBwtY3BcIVyj7Axo43whBaCsJK0C7AwMo9wnKRA8IQ
OgDAVoQ2wgrP6cH4i7Q/y+0ywkZX8MHMdQZAJ6ArwhcQ5cEALLI/P1Mxwi2dB8JgJFa+Cd04woQi
BsKIcfC/HTgvwsRh3sGoTDc/FLA0wuTK4MFQhTc/hnwtwjH57cHutQVAiSA1wiluBMKA8F6/UNMu
wm4cBMK4jiM/zQ0wwuJ0zcEofxC/89g1wrd9zMEAuiq+rmQqwgCoBMI4XNI/P/80wjqv/sHA4u2+
JCAtwpqa1cEA0Mc760Unwthm/8EM+uI/KfYtwl6axsEYHaS/+9grwgmK+8FD+4BA8Uokwoi978Es
TVFACfwwwjpR/sFw1/0+NFA5wv4T2cFAM2y+nP4owm8j9sF2DT1ANO5Cwk+4CsLrCZPAJio6wkZK
D8I65IvAi0BFwuw3A8LQAkXAdrszwlxlDMIRYinAlN4+wtFFAMLoW6y/lb86wgrV68F06LY/tm40
wkAy98E6vSlAJVwnwm5W48H8dK8/FIIwwpfUC8IAxqe+nxM2wtRpycHQQls/ass3ws60xsEYflS/
AgEswmqoBcI6WihAGqInwhLdB8I4Kq4/KBMpwmYq1cHAnJa9IU4lwpPj/MEoim0/

> <OMEGA_E>
VtFFwA==

> <OMEGA_NBR>
     78167

$$$$
CACHE3HI_1879_5
  -OEChem-03092622543D

 46 48  0     0  0  0  0  0  0999 V2000
  -45.9971  -28.2520    0.8414 C   0  0  0  0  0  0  0  0  0  0  0  0
  -43.2981  -27.7803    1.3700 C   0  0  0  0  0  0  0  0  0  0  0  0
  -44.1172  -34.9729   -0.4153 C   0  0  0  0  0  0  0  0  0  0  0  0
  -45.3810  -27.1005    0.3515 C   0  0  0  0  0  0  0  0  0  0  0  0
  -44.0317  -26.8645    0.6159 C   0  0  0  0  0  0  0  0  0  0  0  0
  -43.9143  -28.9318    1.8599 C   0  0  0  0  0  0  0  0  0  0  0  0
  -45.2635  -29.1678    1.5956 C   0  0  0  0  0  0  0  0  0  0  0  0
  -44.4573  -34.0533    0.5473 C   0  0  0  0  0  0  0  0  0  0  0  0
  -46.3193  -34.8234   -0.1722 C   0  0  0  0  0  0  0  0  0  0  0  0
  -46.8086  -36.7595   -2.1472 C   0  0  0  0  0  0  0  0  0  0  0  0
  -47.8933  -36.1078   -1.4325 C   0  0  0  0  0  0  0  0  0  0  0  0
  -45.5421  -36.4271   -1.8566 C   0  0  0  0  0  0  0  0  0  0  0  0
  -47.6833  -35.1712   -0.4762 C   0  0  0  0  0  0  0  0  0  0  0  0
  -46.1641  -26.1563   -0.4341 C   0  0  0  0  0  0  0  0  0  0  0  0
  -48.8590  -34.5387    0.2219 C   0  0  0  0  0  0  0  0  0  0  0  0
  -42.8013  -25.8347   -1.1399 C   0  0  0  0  0  0  0  0  0  0  0  0
  -43.5627  -33.2227    1.3672 C   0  0  0  0  0  0  0  0  0  0  0  0
  -43.2162  -31.8563    0.7432 C   0  0  0  0  0  0  0  0  0  0  0  0
  -45.8174  -33.9644    0.6938 N   0  0  0  0  0  0  0  0  0  0  0  0
  -45.3082  -35.4688   -0.8786 N   0  0  0  0  0  0  0  0  0  0  0  0
  -42.3277  -31.0954    1.5798 N   0  0  0  0  0  0  0  0  0  0  0  0
  -45.9709  -24.9383   -0.4867 O   0  0  0  0  0  0  0  0  0  0  0  0
  -43.8276  -30.8172    3.6618 O   0  0  0  0  0  0  0  0  0  0  0  0
  -41.8514  -29.2871    3.3900 O   0  0  0  0  0  0  0  0  0  0  0  0
  -47.1630  -26.7637   -1.1294 O   0  0  0  0  0  0  0  0  0  0  0  0
  -43.4124  -25.7453    0.1457 O   0  0  0  0  0  0  0  0  0  0  0  0
  -42.9346  -30.0562    2.8091 S   0  0  0  0  0  0  0  0  0  0  0  0
  -46.0723  -30.5773    2.1803 Cl  0  0  0  0  0  0  0  0  0  0  0  0
  -47.0498  -28.4310    0.6321 H   0  0  0  0  0  0  0  0  0  0  0  0
  -42.2469  -27.5906    1.5724 H   0  0  0  0  0  0  0  0  0  0  0  0
  -43.1635  -35.3079   -0.8001 H   0  0  0  0  0  0  0  0  0  0  0  0
  -47.0467  -37.5000   -2.9009 H   0  0  0  0  0  0  0  0  0  0  0  0
  -48.8986  -36.4140   -1.7073 H   0  0  0  0  0  0  0  0  0  0  0  0
  -44.6874  -36.8725   -2.3510 H   0  0  0  0  0  0  0  0  0  0  0  0
  -49.1652  -33.6537   -0.3271 H   0  0  0  0  0  0  0  0  0  0  0  0
  -48.5701  -34.2652    1.2320 H   0  0  0  0  0  0  0  0  0  0  0  0
  -49.6766  -35.2518    0.2598 H   0  0  0  0  0  0  0  0  0  0  0  0
  -42.3442  -24.8751   -1.3949 H   0  0  0  0  0  0  0  0  0  0  0  0
  -42.0296  -26.6079   -1.1139 H   0  0  0  0  0  0  0  0  0  0  0  0
  -43.5549  -26.1007   -1.8847 H   0  0  0  0  0  0  0  0  0  0  0  0
  -43.9823  -33.0467    2.3810 H   0  0  0  0  0  0  0  0  0  0  0  0
  -42.6075  -33.7555    1.5568 H   0  0  0  0  0  0  0  0  0  0  0  0
  -42.7148  -31.9782   -0.2226 H   0  0  0  0  0  0  0  0  0  0  0  0
  -44.1175  -31.2556    0.5847 H   0  0  0  0  0  0  0  0  0  0  0  0
  -41.3850  -30.8668    1.2006 H   0  0  0  0  0  0  0  0  0  0  0  0
  -47.6967  -26.1361   -1.6627 H   0  0  0  0  0  0  0  0  0  0  0  0
  1  4  2  0  0  0  0
  1  7  1  0  0  0  0
  2  5  2  0  0  0  0
  2  6  1  0  0  0  0
  3  8  2  0  0  0  0
  3 20  1  0  0  0  0
  4  5  1  0  0  0  0
  4 14  1  0  0  0  0
  5 26  1  0  0  0  0
  6  7  2  0  0  0  0
  6 27  1  0  0  0  0
  7 28  1  0  0  0  0
  8 17  1  0  0  0  0
  8 19  1  0  0  0  0
  9 13  1  0  0  0  0
  9 19  2  0  0  0  0
  9 20  1  0  0  0  0
 10 11  1  0  0  0  0
 10 12  2  0  0  0  0
 11 13  2  0  0  0  0
 12 20  1  0  0  0  0
 13 15  1  0  0  0  0
 14 22  2  0  0  0  0
 14 25  1  0  0  0  0
 16 26  1  0  0  0  0
 17 18  1  0  0  0  0
 18 21  1  0  0  0  0
 21 27  1  0  0  0  0
 23 27  2  0  0  0  0
 24 27  2  0  0  0  0
  1 29  1  0  0  0  0
  2 30  1  0  0  0  0
  3 31  1  0  0  0  0
 10 32  1  0  0  0  0
 11 33  1  0  0  0  0
 12 34  1  0  0  0  0
 15 35  1  0  0  0  0
 15 36  1  0  0  0  0
 15 37  1  0  0  0  0
 16 38  1  0  0  0  0
 16 39  1  0  0  0  0
 16 40  1  0  0  0  0
 17 41  1  0  0  0  0
 17 42  1  0  0  0  0
 18 43  1  0  0  0  0
 18 44  1  0  0  0  0
 21 45  1  0  0  0  0
 25 46  1  0  0  0  0
M  END
> <POSIT::Probability>
0.33

> <POSIT::Method>
HYBRID

> <ReceptorTitle>
UCSF-P4661-REFINED_LIGAND-BOUND-STATE_A__DU__LA1_A-201(A)

> <OMEGA_C>
A/03wiwE4sEgaFc/SDEtwhc+3sGzXa8/B3gwwkrkC8J4pdS+GYY1wsbN2MHc/LM+eiAwworq1sHc
qh0/NqgvwmJ058GMEe4/0w01wqBX6cFQO8w/UNQxwpc2CMJsGgw/60Y5wiFLC8LAUTC+DDw7wrUJ
E8IXawnAwpI/wmpuEMKYWre/Eis2wl+1EcKcpu2/urs+wkqvDMKw1fO+Bag4wiRA0cFQRt6+km9D
wpgnCsIQNWM+hjQrwn6tzsG45pG/QUAuwhHkBMIJAq8/Xt0swsvZ/sFQQT4/DUU3wovbB8LEnzE/
nDs1whfgDcKS6mC/nE8pwmHD+MFONso/PeI3wr2Bx8HEM/m+dE8vwqyJ9sGjWmpA1GcnwvlL6sEM
9VhA6KY8wvYb1sE/kZC/VaYtwmD2zcHAOhU+Ab0rwi5z8MHlyDNAEko4wlie9MGdiQtABTM8wrxy
48Fs1CE/1/wowom53MH5Qsk/bacswlc7DcIk1Ey/yy88wgIAFsLXpznAJZhDwvunEcJCitq/4b8y
wnB9E8KXdxbANqlEwmadBsKgf6e+yEdCwoQPCcK2sJ0/3rRGwt0BDcJYBoU+gGApwigAx8EUjLK/
WB4owu7c1MEKk46/NDguwiLO0MFmPfG/0+0vwt8vBMJ4YhhAD24qwpwFB8LSRcc/+tsqwkHT/8Go
82O+XngwwmwL+sFOsBU/O4olwizv9sGkrJk/cMk+wrwW0cFW1NS/

> <OMEGA_E>
m8FgwA==

> <OMEGA_NBR>
     79580

$$$$
CACHE3HI_1879_7
  -OEChem-03092622543D

 43 45  0     0  0  0  0  0  0999 V2000
  -43.8285  -27.4056   -0.2295 C   0  0  0  0  0  0  0  0  0  0  0  0
  -46.9205  -35.9337   -2.4305 C   0  0  0  0  0  0  0  0  0  0  0  0
  -47.9833  -35.5469   -0.2643 C   0  0  0  0  0  0  0  0  0  0  0  0
  -43.0909  -28.3495    0.5034 C   0  0  0  0  0  0  0  0  0  0  0  0
  -48.0284  -36.7058   -2.8299 C   0  0  0  0  0  0  0  0  0  0  0  0
  -49.0879  -36.3195   -0.6686 C   0  0  0  0  0  0  0  0  0  0  0  0
  -43.8479  -33.5777   -0.6783 C   0  0  0  0  0  0  0  0  0  0  0  0
  -45.1004  -28.9470    1.7535 C   0  0  0  0  0  0  0  0  0  0  0  0
  -44.6572  -34.3260   -1.4915 C   0  0  0  0  0  0  0  0  0  0  0  0
  -45.2080  -27.2280    0.0162 C   0  0  0  0  0  0  0  0  0  0  0  0
  -45.8500  -28.0010    1.0230 C   0  0  0  0  0  0  0  0  0  0  0  0
  -46.8841  -35.3427   -1.1408 C   0  0  0  0  0  0  0  0  0  0  0  0
  -43.7222  -29.1119    1.5056 C   0  0  0  0  0  0  0  0  0  0  0  0
  -49.1111  -36.8984   -1.9508 C   0  0  0  0  0  0  0  0  0  0  0  0
  -44.5770  -33.3914    0.5977 C   0  0  0  0  0  0  0  0  0  0  0  0
  -45.9304  -26.1994   -0.7563 C   0  0  0  0  0  0  0  0  0  0  0  0
  -47.3283  -27.8263    1.3406 C   0  0  0  0  0  0  0  0  0  0  0  0
  -44.0960  -32.6896    1.8425 C   0  0  0  0  0  0  0  0  0  0  0  0
  -45.7311  -34.0101    0.5156 N   0  0  0  0  0  0  0  0  0  0  0  0
  -45.7821  -34.5696   -0.7214 N   0  0  0  0  0  0  0  0  0  0  0  0
  -42.9471  -31.8062    1.5491 N   0  0  0  0  0  0  0  0  0  0  0  0
  -46.9376  -26.4977   -1.3884 O   0  0  0  0  0  0  0  0  0  0  0  0
  -43.4354  -30.5221    3.7353 O   0  0  0  0  0  0  0  0  0  0  0  0
  -41.3604  -29.9627    2.3664 O   0  0  0  0  0  0  0  0  0  0  0  0
  -45.4294  -24.9356   -0.7659 O   0  0  0  0  0  0  0  0  0  0  0  0
  -42.7778  -30.3442    2.4318 S   0  0  0  0  0  0  0  0  0  0  0  0
  -50.4834  -37.8546   -2.4512 Cl  0  0  0  0  0  0  0  0  0  0  0  0
  -43.3376  -26.8114   -0.9861 H   0  0  0  0  0  0  0  0  0  0  0  0
  -46.0934  -35.7904   -3.1099 H   0  0  0  0  0  0  0  0  0  0  0  0
  -47.9712  -35.1051    0.7211 H   0  0  0  0  0  0  0  0  0  0  0  0
  -42.0399  -28.4908    0.2987 H   0  0  0  0  0  0  0  0  0  0  0  0
  -48.0476  -37.1515   -3.8135 H   0  0  0  0  0  0  0  0  0  0  0  0
  -49.9182  -36.4681    0.0058 H   0  0  0  0  0  0  0  0  0  0  0  0
  -42.8669  -33.1967   -0.9209 H   0  0  0  0  0  0  0  0  0  0  0  0
  -45.5856  -29.5489    2.5076 H   0  0  0  0  0  0  0  0  0  0  0  0
  -44.4624  -34.6518   -2.5026 H   0  0  0  0  0  0  0  0  0  0  0  0
  -47.4483  -27.0592    2.1197 H   0  0  0  0  0  0  0  0  0  0  0  0
  -47.8638  -27.5132    0.4322 H   0  0  0  0  0  0  0  0  0  0  0  0
  -47.7413  -28.7807    1.6991 H   0  0  0  0  0  0  0  0  0  0  0  0
  -44.9178  -32.0847    2.2534 H   0  0  0  0  0  0  0  0  0  0  0  0
  -43.7893  -33.4428    2.5831 H   0  0  0  0  0  0  0  0  0  0  0  0
  -42.1174  -32.3418    1.7066 H   0  0  0  0  0  0  0  0  0  0  0  0
  -45.9734  -24.3829   -1.3147 H   0  0  0  0  0  0  0  0  0  0  0  0
  1  4  2  0  0  0  0
  1 10  1  0  0  0  0
  2  5  2  0  0  0  0
  2 12  1  0  0  0  0
  3  6  1  0  0  0  0
  3 12  2  0  0  0  0
  4 13  1  0  0  0  0
  5 14  1  0  0  0  0
  6 14  2  0  0  0  0
  7  9  2  0  0  0  0
  7 15  1  0  0  0  0
  8 11  1  0  0  0  0
  8 13  2  0  0  0  0
  9 20  1  0  0  0  0
 10 11  2  0  0  0  0
 10 16  1  0  0  0  0
 11 17  1  0  0  0  0
 12 20  1  0  0  0  0
 13 26  1  0  0  0  0
 14 27  1  0  0  0  0
 15 18  1  0  0  0  0
 15 19  2  0  0  0  0
 16 22  2  0  0  0  0
 16 25  1  0  0  0  0
 18 21  1  0  0  0  0
 19 20  1  0  0  0  0
 21 26  1  0  0  0  0
 23 26  2  0  0  0  0
 24 26  2  0  0  0  0
  1 28  1  0  0  0  0
  2 29  1  0  0  0  0
  3 30  1  0  0  0  0
  4 31  1  0  0  0  0
  5 32  1  0  0  0  0
  6 33  1  0  0  0  0
  7 34  1  0  0  0  0
  8 35  1  0  0  0  0
  9 36  1  0  0  0  0
 17 37  1  0  0  0  0
 17 38  1  0  0  0  0
 17 39  1  0  0  0  0
 18 40  1  0  0  0  0
 18 41  1  0  0  0  0
 21 42  1  0  0  0  0
 25 43  1  0  0  0  0
M  END
> <POSIT::Probability>
0.42

> <POSIT::Method>
SHAPEFIT

> <ReceptorTitle>
UCSF-P4661-REFINED_LIGAND-BOUND-STATE_A__DU__LA1_A-201(A)

> <OMEGA_C>
ZlAvwpg+28EEAWu+oa47whO8D8KGjBvA8e4/wv0vDsJrVIe+CF0swsnL4sFX3wA/GB1Awr7SEsI4
HTXA+llEwiZHEcJTKSu/RWQvwo1PBsJapy2/3GY0wnOT58EicuA/9aAywtxNCcJh6L6/+NQ0wgTT
2cGMoIQ8ZmY3wv0B4MFO8YI/Rok7wuteDcICBpK/keMuwirl6MEBucA/z3FEwgGYE8LZtPm/zU4y
ws6QBcKfBRk/wLg3wmWY0cGCnkG/IVA9wl2c3sHMl6s/T2IwwiTCAsJ21us/n+w2wkwKCMJj/wM/
4iA3wlFHCsJwqzi/0skrwhtz/sFqR8Y/I8A7wjb708HntrG/2b0twkEt9MHMD29AF3Elwp+z78Hx
chdArrc1wgR8x8HXE0S/cxwrwuDA8sFvohtAA+9JwihrF8IB4RzAv1ktwsF91sHDb3y/oV84wlQp
D8ITCUfAi+I/wqprDMIGnTg/2SgowkLt48GW75g+sTBAwiGbFMLjD3TASKxHwmLfEcIpGb07tXcr
wmPJBMK2vmu/pFc2wj1k7MGYfCBAhNkxwnWbCsIjKiDAEcs9wjR52MEiqQdAiHQ/wgQb3MFsSt0+
I/c+wuA+5sEUfdk/yKszwr5WAMKGNxBAPCgvwnjFBcLYUSVAQngowgFeAcJzcdo/xuQ3wjMQw8HZ
Rqi/

> <OMEGA_E>
BxOFPw==

> <OMEGA_NBR>
     80959

$$$$
CACHE3-HO_1690_33
  -OEChem-03092622533D

 38 40  0     0  0  0  0  0  0999 V2000
  -44.2229  -32.7497    2.1629 C   0  0  0  0  0  0  0  0  0  0  0  0
  -49.8468  -28.9432    3.2993 C   0  0  0  0  0  0  0  0  0  0  0  0
  -50.5597  -28.9087    4.5248 C   0  0  0  0  0  0  0  0  0  0  0  0
  -48.4337  -29.0156    3.2919 C   0  0  0  0  0  0  0  0  0  0  0  0
  -49.8685  -28.9429    5.7562 C   0  0  0  0  0  0  0  0  0  0  0  0
  -43.9277  -29.3070    6.0320 C   0  0  0  0  0  0  0  0  0  0  0  0
  -47.7729  -29.0558    4.5339 C   0  0  0  0  0  0  0  0  0  0  0  0
  -46.3480  -29.1330    4.8530 C   0  0  0  0  0  0  0  0  0  0  0  0
  -48.4653  -29.0184    5.7507 C   0  0  0  0  0  0  0  0  0  0  0  0
  -46.2391  -29.1440    6.2450 C   0  0  0  0  0  0  0  0  0  0  0  0
  -45.1953  -29.2424    4.0457 C   0  0  0  0  0  0  0  0  0  0  0  0
  -45.0015  -32.9717   -0.1452 C   0  0  0  0  0  0  0  0  0  0  0  0
  -46.4728  -31.9358    1.5806 C   0  0  0  0  0  0  0  0  0  0  0  0
  -44.3748  -30.6931    0.7006 C   0  0  0  0  0  0  0  0  0  0  0  0
  -44.0537  -29.7015    1.8419 C   0  0  0  0  0  0  0  0  0  0  0  0
  -45.0007  -32.0738    1.1134 C   0  0  0  0  0  0  0  0  0  0  0  0
  -43.6207  -33.2986    2.9973 N   0  0  0  0  0  0  0  0  0  0  0  0
  -45.0271  -29.2340    6.8235 N   0  0  0  0  0  0  0  0  0  0  0  0
  -43.9941  -29.3188    4.6744 N   0  0  0  0  0  0  0  0  0  0  0  0
  -47.5250  -29.0706    6.7780 N   0  0  0  0  0  0  0  0  0  0  0  0
  -45.2504  -29.3365    2.6542 N   0  0  0  0  0  0  0  0  0  0  0  0
  -50.3867  -28.9140    2.3644 H   0  0  0  0  0  0  0  0  0  0  0  0
  -51.6383  -28.8560    4.5165 H   0  0  0  0  0  0  0  0  0  0  0  0
  -47.8808  -29.0391    2.3645 H   0  0  0  0  0  0  0  0  0  0  0  0
  -50.4113  -28.9114    6.6893 H   0  0  0  0  0  0  0  0  0  0  0  0
  -42.9564  -29.3580    6.5015 H   0  0  0  0  0  0  0  0  0  0  0  0
  -45.5792  -32.4836   -0.9440 H   0  0  0  0  0  0  0  0  0  0  0  0
  -43.9669  -33.1284   -0.4843 H   0  0  0  0  0  0  0  0  0  0  0  0
  -45.4589  -33.9423    0.0972 H   0  0  0  0  0  0  0  0  0  0  0  0
  -47.0601  -31.4308    0.7996 H   0  0  0  0  0  0  0  0  0  0  0  0
  -46.8934  -32.9350    1.7670 H   0  0  0  0  0  0  0  0  0  0  0  0
  -46.5093  -31.3440    2.5071 H   0  0  0  0  0  0  0  0  0  0  0  0
  -45.0825  -30.1979    0.0195 H   0  0  0  0  0  0  0  0  0  0  0  0
  -43.4358  -30.9004    0.1665 H   0  0  0  0  0  0  0  0  0  0  0  0
  -43.3072  -30.1618    2.5058 H   0  0  0  0  0  0  0  0  0  0  0  0
  -43.6365  -28.7840    1.4014 H   0  0  0  0  0  0  0  0  0  0  0  0
  -47.7412  -29.0573    7.7543 H   0  0  0  0  0  0  0  0  0  0  0  0
  -45.9497  -30.0205    2.4467 H   0  0  0  0  0  0  0  0  0  0  0  0
  1 16  1  0  0  0  0
  1 17  3  0  0  0  0
  2  3  1  0  0  0  0
  2  4  2  0  0  0  0
  3  5  2  0  0  0  0
  4  7  1  0  0  0  0
  5  9  1  0  0  0  0
  6 18  2  0  0  0  0
  6 19  1  0  0  0  0
  7  8  1  0  0  0  0
  7  9  2  0  0  0  0
  8 10  2  0  0  0  0
  8 11  1  0  0  0  0
  9 20  1  0  0  0  0
 10 18  1  0  0  0  0
 10 20  1  0  0  0  0
 11 19  2  0  0  0  0
 11 21  1  0  0  0  0
 12 16  1  0  0  0  0
 13 16  1  0  0  0  0
 14 15  1  0  0  0  0
 14 16  1  0  0  0  0
 15 21  1  0  0  0  0
  2 22  1  0  0  0  0
  3 23  1  0  0  0  0
  4 24  1  0  0  0  0
  5 25  1  0  0  0  0
  6 26  1  0  0  0  0
 12 27  1  0  0  0  0
 12 28  1  0  0  0  0
 12 29  1  0  0  0  0
 13 30  1  0  0  0  0
 13 31  1  0  0  0  0
 13 32  1  0  0  0  0
 14 33  1  0  0  0  0
 14 34  1  0  0  0  0
 15 35  1  0  0  0  0
 15 36  1  0  0  0  0
 20 37  1  0  0  0  0
 21 38  1  0  0  0  0
M  END
> <POSIT::Probability>
0.81

> <POSIT::Method>
SHAPEFIT

> <ReceptorTitle>
UCSF-P4678-REFINED_LIGAND-BOUND-STATE_A__DU__LA1_A-201(A)

> <OMEGA_C>
ROQwwrb/AsI7bApAKmNHwraL58EkKFNAFj1KwhtF58E6y5BAFLxBwuIf6MFIr1JAZXlHwgOL58Fo
MrhA/LUvwsN06sHRBcFAfhc/wjpy6MGiFZFAXmQ5wmIQ6cEJTJtAc9xBwqUl6MEMBrhA1PQ4wvcm
6cET18dA+cc0woHw6cFMdoFAkQE0wgLjA8LgrRS+IeQ5wpp8/8GQUso/zX8xwoOL9cGAXTM/Azcw
wrGc7cGYw+s/qwA0wp1LAMK6hI4/jnsuwtExBcKI1D9Awxs0wlLf6cFyWtpA6fkvwumM6sH0lJVA
phk+woKQ6MGE5dhAZQA1whCx6sHw3SlAB4xJwu5P58GkUhdAqI1OwiXZ5sFBh5BA64U/widQ6MEB
VBdAJqVJwn1K58EmD9ZAZ9MrwjTd6sHyC9BADVE2wjPvAcIkq3G/Id4vwoKDBMJC/Pe+89U1wt/E
B8I1Kcc9hz08wj5y+8E7tEw/0pI7wna9A8LYLeI/kgk6wnLA+sGZdCBAc1Q0wlKV8cF8oZ88O74t
wu0z98E9iSo+hzotwlFL8cF7XyBAzosuwpVF5sHHX7M/8vY+wkF16MExI/hAc8w3wgwq8MEBlhxA

> <OMEGA_E>
uDSdPg==

> <OMEGA_NBR>
      1281

$$$$
CACHE3-HO_1690_42
  -OEChem-03092622533D

 41 43  0     0  0  0  0  0  0999 V2000
  -49.7874  -29.0697    3.2475 C   0  0  0  0  0  0  0  0  0  0  0  0
  -50.5152  -29.0836    4.4635 C   0  0  0  0  0  0  0  0  0  0  0  0
  -48.3749  -29.0837    3.2600 C   0  0  0  0  0  0  0  0  0  0  0  0
  -49.8390  -29.1101    5.7045 C   0  0  0  0  0  0  0  0  0  0  0  0
  -43.8860  -29.2456    6.0162 C   0  0  0  0  0  0  0  0  0  0  0  0
  -47.7284  -29.1155    4.5111 C   0  0  0  0  0  0  0  0  0  0  0  0
  -46.3082  -29.1458    4.8439 C   0  0  0  0  0  0  0  0  0  0  0  0
  -48.4333  -29.1293    5.7193 C   0  0  0  0  0  0  0  0  0  0  0  0
  -46.2052  -29.1914    6.2338 C   0  0  0  0  0  0  0  0  0  0  0  0
  -45.1579  -29.1443    4.0335 C   0  0  0  0  0  0  0  0  0  0  0  0
  -44.2796  -31.8986   -0.3304 C   0  0  0  0  0  0  0  0  0  0  0  0
  -45.9210  -31.8684    1.5559 C   0  0  0  0  0  0  0  0  0  0  0  0
  -43.5401  -30.7873    1.8460 C   0  0  0  0  0  0  0  0  0  0  0  0
  -44.1026  -29.3483    1.7277 C   0  0  0  0  0  0  0  0  0  0  0  0
  -43.8554  -33.2967    1.7153 C   0  0  0  0  0  0  0  0  0  0  0  0
  -44.4091  -31.9383    1.2102 C   0  0  0  0  0  0  0  0  0  0  0  0
  -44.9894  -29.2456    6.8113 N   0  0  0  0  0  0  0  0  0  0  0  0
  -43.9502  -29.1883    4.6552 N   0  0  0  0  0  0  0  0  0  0  0  0
  -47.4995  -29.1685    6.7569 N   0  0  0  0  0  0  0  0  0  0  0  0
  -45.2543  -29.1165    2.6394 N   0  0  0  0  0  0  0  0  0  0  0  0
  -43.9031  -33.3740    3.1424 O   0  0  0  0  0  0  0  0  0  0  0  0
  -50.3158  -29.0484    2.3058 H   0  0  0  0  0  0  0  0  0  0  0  0
  -51.5949  -29.0738    4.4418 H   0  0  0  0  0  0  0  0  0  0  0  0
  -47.8090  -29.0705    2.3402 H   0  0  0  0  0  0  0  0  0  0  0  0
  -50.3954  -29.1155    6.6301 H   0  0  0  0  0  0  0  0  0  0  0  0
  -42.9140  -29.2932    6.4844 H   0  0  0  0  0  0  0  0  0  0  0  0
  -43.2170  -31.9467   -0.6109 H   0  0  0  0  0  0  0  0  0  0  0  0
  -44.8126  -32.7570   -0.7653 H   0  0  0  0  0  0  0  0  0  0  0  0
  -44.7173  -30.9640   -0.7111 H   0  0  0  0  0  0  0  0  0  0  0  0
  -46.0496  -31.8945    2.6480 H   0  0  0  0  0  0  0  0  0  0  0  0
  -46.3449  -30.9340    1.1592 H   0  0  0  0  0  0  0  0  0  0  0  0
  -46.4402  -32.7270    1.1050 H   0  0  0  0  0  0  0  0  0  0  0  0
  -42.5557  -30.8023    1.3554 H   0  0  0  0  0  0  0  0  0  0  0  0
  -43.4200  -31.0119    2.9161 H   0  0  0  0  0  0  0  0  0  0  0  0
  -43.3040  -28.6345    1.9780 H   0  0  0  0  0  0  0  0  0  0  0  0
  -44.4323  -29.1812    0.6917 H   0  0  0  0  0  0  0  0  0  0  0  0
  -44.4607  -34.1114    1.2911 H   0  0  0  0  0  0  0  0  0  0  0  0
  -42.8119  -33.4047    1.3844 H   0  0  0  0  0  0  0  0  0  0  0  0
  -47.7247  -29.1788    7.7312 H   0  0  0  0  0  0  0  0  0  0  0  0
  -45.9350  -29.8087    2.3996 H   0  0  0  0  0  0  0  0  0  0  0  0
  -43.5595  -34.2130    3.4263 H   0  0  0  0  0  0  0  0  0  0  0  0
  1  2  1  0  0  0  0
  1  3  2  0  0  0  0
  2  4  2  0  0  0  0
  3  6  1  0  0  0  0
  4  8  1  0  0  0  0
  5 17  2  0  0  0  0
  5 18  1  0  0  0  0
  6  7  1  0  0  0  0
  6  8  2  0  0  0  0
  7  9  2  0  0  0  0
  7 10  1  0  0  0  0
  8 19  1  0  0  0  0
  9 17  1  0  0  0  0
  9 19  1  0  0  0  0
 10 18  2  0  0  0  0
 10 20  1  0  0  0  0
 11 16  1  0  0  0  0
 12 16  1  0  0  0  0
 13 14  1  0  0  0  0
 13 16  1  0  0  0  0
 14 20  1  0  0  0  0
 15 16  1  0  0  0  0
 15 21  1  0  0  0  0
  1 22  1  0  0  0  0
  2 23  1  0  0  0  0
  3 24  1  0  0  0  0
  4 25  1  0  0  0  0
  5 26  1  0  0  0  0
 11 27  1  0  0  0  0
 11 28  1  0  0  0  0
 11 29  1  0  0  0  0
 12 30  1  0  0  0  0
 12 31  1  0  0  0  0
 12 32  1  0  0  0  0
 13 33  1  0  0  0  0
 13 34  1  0  0  0  0
 14 35  1  0  0  0  0
 14 36  1  0  0  0  0
 15 37  1  0  0  0  0
 15 38  1  0  0  0  0
 19 39  1  0  0  0  0
 20 40  1  0  0  0  0
 21 41  1  0  0  0  0
M  END
> <POSIT::Probability>
0.83

> <POSIT::Method>
SHAPEFIT

> <ReceptorTitle>
UCSF-P4678-REFINED_LIGAND-BOUND-STATE_A__DU__LA1_A-201(A)

> <OMEGA_C>
SiZHwsqO6MGZ109AiQ9KwiCr6MG81I5A3H9BwnSr6ME8pFBAFltHwnDh6MFAi7ZATYsvwvr26cHs
hMBA7uk+wpTs6ME8W5BAoDs5wpQq6cGjAZtAu7tBwrsI6cHkBLdAJNI4wviH6cEGe8dAtqE0wo4n
6cEeEoFARR4xwmww/8FcLKm+J683wmzy/sGaJ8c/FikuwmBM9sHoSew/GGkwwkDJ6sELJt0/7Wsv
wt4vBcKej9s/56IxwqyB/8HR55o/LfUzwvj26cHi9dlA98wvwo2B6cFC95RAf/89wi1Z6cG2ONhA
aAQ1wpnu6MFY7ChAwpwvwvN+BcLjHUlAVENJwgZj6MHvkhNAMGFOwhGX6MHiIo5AZjw/wlGQ6MF2
xhVA55RJwp3s6MG1KdRA5acrwn9Y6sFYgM9AON4swsSS/8GhZRy/HUAzwiYHA8LE6UO/ft4ywlu2
98GoCja/yTI4wgUo/8GVeSlALGE5wuB498GWYZQ/y8I5wmnoAsIIco0/Bjkqwipr9sHtfq0/Fa4t
wmAY+MGIoTpARTctwl4T5cEdLv0/q7oxwi5z6cG2EDE/vdcxwhVyCMIgQ6U/ZD8rwmGeBcKoNbE/
DuY+wi1u6cHsZfdAfb03wih47sHMkxlA9DwuwhPaCMJASFtA

> <OMEGA_E>
JHrVPg==

> <OMEGA_NBR>
      2622

$$$$
CACHE3-HO_1696_44
  -OEChem-03092622533D

 37 39  0     0  0  0  0  0  0999 V2000
  -48.6445  -28.9794    3.2627 C   0  0  0  0  0  0  0  0  0  0  0  0
  -49.8749  -29.0071    3.8750 C   0  0  0  0  0  0  0  0  0  0  0  0
  -46.2722  -29.2633    6.6583 C   0  0  0  0  0  0  0  0  0  0  0  0
  -47.6381  -29.0648    4.3220 C   0  0  0  0  0  0  0  0  0  0  0  0
  -48.3169  -29.1419    5.5380 C   0  0  0  0  0  0  0  0  0  0  0  0
  -46.2336  -29.0706    4.3212 C   0  0  0  0  0  0  0  0  0  0  0  0
  -45.9383  -32.0989    1.8248 C   0  0  0  0  0  0  0  0  0  0  0  0
  -44.2479  -33.5879    1.5069 C   0  0  0  0  0  0  0  0  0  0  0  0
  -44.6372  -32.9766    0.1916 C   0  0  0  0  0  0  0  0  0  0  0  0
  -42.8987  -30.9877    2.6577 C   0  0  0  0  0  0  0  0  0  0  0  0
  -43.4904  -29.7380    1.9661 C   0  0  0  0  0  0  0  0  0  0  0  0
  -43.9394  -31.8863    3.3818 C   0  0  0  0  0  0  0  0  0  0  0  0
  -44.1007  -28.7498    2.9778 C   0  0  0  0  0  0  0  0  0  0  0  0
  -47.6308  -29.2348    6.6977 N   0  0  0  0  0  0  0  0  0  0  0  0
  -45.5699  -29.1795    5.4982 N   0  0  0  0  0  0  0  0  0  0  0  0
  -49.6759  -29.0983    5.2537 N   0  0  0  0  0  0  0  0  0  0  0  0
  -44.7956  -32.6272    2.4402 N   0  0  0  0  0  0  0  0  0  0  0  0
  -45.5584  -28.9700    3.1072 N   0  0  0  0  0  0  0  0  0  0  0  0
  -46.8555  -31.4942    2.3620 O   0  0  0  0  0  0  0  0  0  0  0  0
  -45.9083  -32.3829    0.4821 O   0  0  0  0  0  0  0  0  0  0  0  0
  -48.4562  -28.9081    2.2016 H   0  0  0  0  0  0  0  0  0  0  0  0
  -50.8314  -28.9654    3.3753 H   0  0  0  0  0  0  0  0  0  0  0  0
  -45.7290  -29.3564    7.5871 H   0  0  0  0  0  0  0  0  0  0  0  0
  -44.7016  -34.5813    1.6391 H   0  0  0  0  0  0  0  0  0  0  0  0
  -43.1553  -33.6677    1.6061 H   0  0  0  0  0  0  0  0  0  0  0  0
  -43.9074  -32.2163   -0.1235 H   0  0  0  0  0  0  0  0  0  0  0  0
  -44.7279  -33.7444   -0.5909 H   0  0  0  0  0  0  0  0  0  0  0  0
  -42.3952  -31.5962    1.8921 H   0  0  0  0  0  0  0  0  0  0  0  0
  -42.1616  -30.6505    3.4013 H   0  0  0  0  0  0  0  0  0  0  0  0
  -42.6898  -29.2276    1.4106 H   0  0  0  0  0  0  0  0  0  0  0  0
  -44.2757  -30.0586    1.2657 H   0  0  0  0  0  0  0  0  0  0  0  0
  -43.4026  -32.6088    4.0141 H   0  0  0  0  0  0  0  0  0  0  0  0
  -44.5771  -31.2497    4.0128 H   0  0  0  0  0  0  0  0  0  0  0  0
  -43.6245  -28.8965    3.9585 H   0  0  0  0  0  0  0  0  0  0  0  0
  -43.9197  -27.7212    2.6326 H   0  0  0  0  0  0  0  0  0  0  0  0
  -50.4054  -29.1280    5.9371 H   0  0  0  0  0  0  0  0  0  0  0  0
  -45.7458  -29.8247    2.6230 H   0  0  0  0  0  0  0  0  0  0  0  0
  1  2  2  0  0  0  0
  1  4  1  0  0  0  0
  2 16  1  0  0  0  0
  3 14  1  0  0  0  0
  3 15  2  0  0  0  0
  4  5  1  0  0  0  0
  4  6  2  0  0  0  0
  5 14  2  0  0  0  0
  5 16  1  0  0  0  0
  6 15  1  0  0  0  0
  6 18  1  0  0  0  0
  7 17  1  0  0  0  0
  7 19  2  0  0  0  0
  7 20  1  0  0  0  0
  8  9  1  0  0  0  0
  8 17  1  0  0  0  0
  9 20  1  0  0  0  0
 10 11  1  0  0  0  0
 10 12  1  0  0  0  0
 11 13  1  0  0  0  0
 12 17  1  0  0  0  0
 13 18  1  0  0  0  0
  1 21  1  0  0  0  0
  2 22  1  0  0  0  0
  3 23  1  0  0  0  0
  8 24  1  0  0  0  0
  8 25  1  0  0  0  0
  9 26  1  0  0  0  0
  9 27  1  0  0  0  0
 10 28  1  0  0  0  0
 10 29  1  0  0  0  0
 11 30  1  0  0  0  0
 11 31  1  0  0  0  0
 12 32  1  0  0  0  0
 12 33  1  0  0  0  0
 13 34  1  0  0  0  0
 13 35  1  0  0  0  0
 16 36  1  0  0  0  0
 18 37  1  0  0  0  0
M  END
> <POSIT::Probability>
0.87

> <POSIT::Method>
SHAPEFIT

> <ReceptorTitle>
UCSF-P4678-REFINED_LIGAND-BOUND-STATE_A__DU__LA1_A-201(A)

> <OMEGA_C>
+JNCwrrV58FKz1BA339HwnsO6MGMAHhAvhY5wjgb6sEdEdVAdY0+wsmE6MEETopAfURBwq4i6cFh
N7FAL+84wpCQ6MHmRopA2cA3wk9lAMLwk+k/4/0wwg1aBsKw48A/fIwywgvoA8KAMEQ+Tpgrwtnm
98GsFypANPYtwljn7cHQp/s/7sEvwh8X/8EScFhAEWcwwpj/5cGMlD5A6oU+wsrg6cE2U9ZAl0c2
wolv6cEO8a9AH7RGwmrJ6MFMHqhAvi4zwkCCAsKcLBxA0zs2wpHC58GS20ZADmw7wgf0+8EAKxdA
GKI3whmIAcJA1fY+JtNBwrpD58HJ5gxAVFNLwhi558FkBFhAd+o2wt/Z6sGjyfJAcc4ywjpTCsL7
ztE/Dp8swryrBsLSlc0/J6Evwn/dAMINBf29YOkywjr6BsJURhe/ppQpwhbF/MGKMPI/g6UowiU0
9cHFrllAYcIqwiHS6cHCjbQ/WRoxwg548MHHAqI/N5wtwmVvAsLmc4BA6k4ywlP/+cGtaIBAhX8u
wgws58FzWH1AyK0vwvjE3cElfChAG59JwjUG6cFo/L1At/s2wveY7sFh3ydA

> <OMEGA_E>
R8yAPw==

> <OMEGA_NBR>
      3883

$$$$
CACHE3-HO_1708_13
  -OEChem-03092622533D

 54 57  0     1  0  0  0  0  0999 V2000
  -52.3573  -28.4301    6.0195 C   0  0  0  0  0  0  0  0  0  0  0  0
  -53.7591  -28.4606    6.0804 C   0  0  0  0  0  0  0  0  0  0  0  0
  -53.8412  -29.2627    3.7627 C   0  0  0  0  0  0  0  0  0  0  0  0
  -46.2666  -29.4243    4.6407 C   0  0  0  0  0  0  0  0  0  0  0  0
  -50.2237  -29.2599    3.1579 C   0  0  0  0  0  0  0  0  0  0  0  0
  -43.9487  -29.1641    6.0272 C   0  0  0  0  0  0  0  0  0  0  0  0
  -51.7118  -28.8088    4.8277 C   0  0  0  0  0  0  0  0  0  0  0  0
  -50.3176  -28.8099    4.4536 C   0  0  0  0  0  0  0  0  0  0  0  0
  -52.4348  -29.2308    3.7111 C   0  0  0  0  0  0  0  0  0  0  0  0
  -54.5019  -28.8616    4.9491 C   0  0  0  0  0  0  0  0  0  0  0  0
  -45.0601  -29.2607    3.9692 C   0  0  0  0  0  0  0  0  0  0  0  0
  -46.2694  -29.3429    6.0487 C   0  0  0  0  0  0  0  0  0  0  0  0
  -44.3938  -32.9705    2.2462 C   0  0  0  0  0  0  0  0  0  0  0  0
  -45.3714  -33.8591    1.4675 C   0  0  0  0  0  0  0  0  0  0  0  0
  -46.0280  -32.9183    0.4727 C   0  0  0  0  0  0  0  0  0  0  0  0
  -44.9719  -31.8515    0.2786 C   0  0  0  0  0  0  0  0  0  0  0  0
  -49.7142  -30.0449    7.2721 C   0  0  0  0  0  0  0  0  0  0  0  0
  -49.2179  -28.3988    5.3727 C   0  0  0  0  0  0  0  0  0  0  0  0
  -43.2910  -30.7298    1.8701 C   0  0  0  0  0  0  0  0  0  0  0  0
  -43.8722  -29.3095    1.7588 C   0  0  0  0  0  0  0  0  0  0  0  0
  -48.7438  -29.6447    6.1518 C   0  0  1  0  0  0  0  0  0  0  0  0
  -43.9089  -29.1448    4.6716 N   0  0  0  0  0  0  0  0  0  0  0  0
  -45.1099  -29.2162    6.7194 N   0  0  0  0  0  0  0  0  0  0  0  0
  -51.5162  -29.5188    2.7053 N   0  0  0  0  0  0  0  0  0  0  0  0
  -44.3259  -31.7348    1.5923 N   0  0  0  0  0  0  0  0  0  0  0  0
  -45.0913  -29.1926    2.5817 N   0  0  0  0  0  0  0  0  0  0  0  0
  -47.4476  -29.3662    6.7738 N   0  0  0  0  0  0  0  0  0  0  0  0
  -43.7671  -33.3117    3.2424 O   0  0  0  0  0  0  0  0  0  0  0  0
  -55.8520  -28.8391    4.9994 F   0  0  0  0  0  0  0  0  0  0  0  0
  -51.7802  -28.1194    6.8779 H   0  0  0  0  0  0  0  0  0  0  0  0
  -54.2679  -28.1780    6.9902 H   0  0  0  0  0  0  0  0  0  0  0  0
  -54.4109  -29.5901    2.9056 H   0  0  0  0  0  0  0  0  0  0  0  0
  -47.1809  -29.6094    4.0964 H   0  0  0  0  0  0  0  0  0  0  0  0
  -49.3126  -29.3895    2.5926 H   0  0  0  0  0  0  0  0  0  0  0  0
  -43.0182  -29.1368    6.5748 H   0  0  0  0  0  0  0  0  0  0  0  0
  -44.8338  -34.6642    0.9452 H   0  0  0  0  0  0  0  0  0  0  0  0
  -46.1215  -34.2969    2.1426 H   0  0  0  0  0  0  0  0  0  0  0  0
  -46.2504  -33.4334   -0.4734 H   0  0  0  0  0  0  0  0  0  0  0  0
  -46.9542  -32.4899    0.8834 H   0  0  0  0  0  0  0  0  0  0  0  0
  -44.2444  -32.1586   -0.4871 H   0  0  0  0  0  0  0  0  0  0  0  0
  -45.4323  -30.8966   -0.0151 H   0  0  0  0  0  0  0  0  0  0  0  0
  -49.3284  -30.9344    7.7917 H   0  0  0  0  0  0  0  0  0  0  0  0
  -49.8099  -29.2151    7.9879 H   0  0  0  0  0  0  0  0  0  0  0  0
  -50.6998  -30.2717    6.8397 H   0  0  0  0  0  0  0  0  0  0  0  0
  -48.3819  -27.9845    4.7900 H   0  0  0  0  0  0  0  0  0  0  0  0
  -49.5866  -27.6382    6.0767 H   0  0  0  0  0  0  0  0  0  0  0  0
  -42.4725  -30.8434    1.1441 H   0  0  0  0  0  0  0  0  0  0  0  0
  -42.9024  -30.8827    2.8877 H   0  0  0  0  0  0  0  0  0  0  0  0
  -43.1252  -28.5826    2.1104 H   0  0  0  0  0  0  0  0  0  0  0  0
  -44.1214  -29.1001    0.7080 H   0  0  0  0  0  0  0  0  0  0  0  0
  -48.6467  -30.4852    5.4488 H   0  0  0  0  0  0  0  0  0  0  0  0
  -51.7489  -29.8602    1.7947 H   0  0  0  0  0  0  0  0  0  0  0  0
  -45.7020  -29.9250    2.2805 H   0  0  0  0  0  0  0  0  0  0  0  0
  -47.3244  -30.0600    7.4835 H   0  0  0  0  0  0  0  0  0  0  0  0
  1  2  1  0  0  0  0
  1  7  2  0  0  0  0
  2 10  2  0  0  0  0
  3  9  2  0  0  0  0
  3 10  1  0  0  0  0
  4 11  2  0  0  0  0
  4 12  1  0  0  0  0
  5  8  2  0  0  0  0
  5 24  1  0  0  0  0
  6 22  2  0  0  0  0
  6 23  1  0  0  0  0
  7  8  1  0  0  0  0
  7  9  1  0  0  0  0
  8 18  1  0  0  0  0
  9 24  1  0  0  0  0
 10 29  1  0  0  0  0
 11 22  1  0  0  0  0
 11 26  1  0  0  0  0
 12 23  2  0  0  0  0
 12 27  1  0  0  0  0
 13 14  1  0  0  0  0
 13 25  1  0  0  0  0
 13 28  2  0  0  0  0
 14 15  1  0  0  0  0
 15 16  1  0  0  0  0
 16 25  1  0  0  0  0
 17 21  1  0  0  0  0
 18 21  1  0  0  0  0
 19 20  1  0  0  0  0
 19 25  1  0  0  0  0
 20 26  1  0  0  0  0
 21 27  1  0  0  0  0
  1 30  1  0  0  0  0
  2 31  1  0  0  0  0
  3 32  1  0  0  0  0
  4 33  1  0  0  0  0
  5 34  1  0  0  0  0
  6 35  1  0  0  0  0
 14 36  1  0  0  0  0
 14 37  1  0  0  0  0
 15 38  1  0  0  0  0
 15 39  1  0  0  0  0
 16 40  1  0  0  0  0
 16 41  1  0  0  0  0
 17 42  1  0  0  0  0
 17 43  1  0  0  0  0
 17 44  1  0  0  0  0
 18 45  1  0  0  0  0
 18 46  1  0  0  0  0
 19 47  1  0  0  0  0
 19 48  1  0  0  0  0
 20 49  1  0  0  0  0
 20 50  1  0  0  0  0
 21 51  1  0  0  0  0
 24 52  1  0  0  0  0
 26 53  1  0  0  0  0
 27 54  1  0  0  0  0
M  END
> <POSIT::Probability>
0.78

> <POSIT::Method>
SHAPEFIT

> <ReceptorTitle>
UCSF-P4678-REFINED_LIGAND-BOUND-STATE_A__DU__LA1_A-201(A)

> <OMEGA_C>
5G1Rws5w48G2n8BASglXwjav48HuksJAYl1Xwhga6sHZ0HBABxE5wvBk68GEgJRAE+VIwkwU6sFl
GkpAecsvwgBQ6cHM3sBA7NhOwnp45sFyfJpAPkVJwpp65sHug45APr1RwqrY6cEHg21A7AFawqbk
5sFUX55Ajj00wvwV6sHVBn5A3hM5wla+6sFcj8FARpMxwsnhA8I+wQ9AT3w1wr1vB8JD17s/uRw4
wlysA8K0B/I+PeMzwuLP/sGsp44+UdtGwuBb8MFotehAFd9Ewqww48Hu7KtACSotworW9cG4Xu8/
GH0vwvR56sFrH+E/qflCwlwo7cHG28RArqIvwoYo6cH+fZVAgXA0wrS66cFEBddAlRBOwnQm7MEG
JC1AxE0xwurg/cFt0cs/hl00wnaK6cHTOSVAX8o9wg7u6sFew9hAhBEvwiM/BcKng09AdWhfwni2
5sHe+p9A9B5PwnD04MGUF9xAXRJZwnxs4cFxr99At6RZwnu47MEA9TlAPrk8whTg7MHWFYNAGkBF
wqMd68Fu7SVApBIswiMY6cFsZNJA3FUzwjCoCsLR93E/anw4wggwCcKhHwlAdQA5wtC7BcJ5Z/K+
FtE7wpz1AcKkKGI/PPowwmuiAMIKaPm+t7o1wlYs98GT2Xa8TVBFwpd598HOVflAYT1Hwm+46cGQ
nP9Ao8xKwlws8sGe3tpAC4dBwjPg38GrR5lAplhGwgob3cH4c8JA4OMpwla/9sFPcJI/EJwrwrAP
98E80DhAOYAswi2p5MFoEAdAR3wwwgbN6MEzQjU/PZZCwqPh88HsXK5A5P5Owq7h7sELuOU/2c42
wl1m78E08xFAKEw9wsx68MGQeO9A

> <OMEGA_E>
0CQ6Pw==

> <OMEGA_NBR>
      5491

$$$$
CACHE3-HO_1708_19
  -OEChem-03092622533D

 42 44  0     1  0  0  0  0  0999 V2000
  -49.8248  -28.9372    3.2784 C   0  0  0  0  0  0  0  0  0  0  0  0
  -50.5407  -28.8563    4.4988 C   0  0  0  0  0  0  0  0  0  0  0  0
  -48.4168  -29.0473    3.2831 C   0  0  0  0  0  0  0  0  0  0  0  0
  -49.8569  -28.8824    5.7362 C   0  0  0  0  0  0  0  0  0  0  0  0
  -43.9170  -29.3607    6.0039 C   0  0  0  0  0  0  0  0  0  0  0  0
  -47.7641  -29.0796    4.5312 C   0  0  0  0  0  0  0  0  0  0  0  0
  -46.3482  -29.2008    4.8557 C   0  0  0  0  0  0  0  0  0  0  0  0
  -48.4558  -28.9996    5.7437 C   0  0  0  0  0  0  0  0  0  0  0  0
  -46.2298  -29.1851    6.2439 C   0  0  0  0  0  0  0  0  0  0  0  0
  -45.2098  -29.2845    4.0378 C   0  0  0  0  0  0  0  0  0  0  0  0
  -43.8202  -32.9303    2.9302 C   0  0  0  0  0  0  0  0  0  0  0  0
  -43.2676  -30.2705    1.5926 C   0  0  0  0  0  0  0  0  0  0  0  0
  -44.1489  -29.0215    1.7682 C   0  0  0  0  0  0  0  0  0  0  0  0
  -44.0379  -31.4332    0.9269 C   0  0  0  0  0  0  0  0  0  0  0  0
  -45.3565  -33.5512    1.1150 C   0  0  0  0  0  0  0  0  0  0  0  0
  -46.4813  -33.1294    0.1532 C   0  0  0  0  0  0  0  0  0  0  0  0
  -45.0091  -29.2693    6.8099 N   0  0  0  0  0  0  0  0  0  0  0  0
  -43.9977  -29.3603    4.6442 N   0  0  0  0  0  0  0  0  0  0  0  0
  -47.5155  -29.0636    6.7758 N   0  0  0  0  0  0  0  0  0  0  0  0
  -45.3119  -29.2524    2.6514 N   0  0  0  0  0  0  0  0  0  0  0  0
  -44.7085  -32.4180    1.8481 N   0  0  1  0  0  0  0  0  0  0  0  0
  -47.1418  -34.2491   -0.2310 F   0  0  0  0  0  0  0  0  0  0  0  0
  -47.3415  -32.2899    0.7902 F   0  0  0  0  0  0  0  0  0  0  0  0
  -45.9886  -32.5376   -0.9675 F   0  0  0  0  0  0  0  0  0  0  0  0
  -50.3588  -28.9146    2.3399 H   0  0  0  0  0  0  0  0  0  0  0  0
  -51.6174  -28.7739    4.4837 H   0  0  0  0  0  0  0  0  0  0  0  0
  -47.8588  -29.1049    2.3603 H   0  0  0  0  0  0  0  0  0  0  0  0
  -50.4043  -28.8133    6.6646 H   0  0  0  0  0  0  0  0  0  0  0  0
  -42.9423  -29.4370    6.4626 H   0  0  0  0  0  0  0  0  0  0  0  0
  -44.3784  -33.6404    3.5581 H   0  0  0  0  0  0  0  0  0  0  0  0
  -42.9536  -33.4392    2.4829 H   0  0  0  0  0  0  0  0  0  0  0  0
  -43.4728  -32.0892    3.5481 H   0  0  0  0  0  0  0  0  0  0  0  0
  -42.4039  -30.0102    0.9631 H   0  0  0  0  0  0  0  0  0  0  0  0
  -42.9149  -30.5984    2.5816 H   0  0  0  0  0  0  0  0  0  0  0  0
  -43.5350  -28.2177    2.2005 H   0  0  0  0  0  0  0  0  0  0  0  0
  -44.5166  -28.7105    0.7792 H   0  0  0  0  0  0  0  0  0  0  0  0
  -44.8165  -30.9931    0.2864 H   0  0  0  0  0  0  0  0  0  0  0  0
  -43.3239  -31.9924    0.3044 H   0  0  0  0  0  0  0  0  0  0  0  0
  -45.7810  -34.2428    1.8576 H   0  0  0  0  0  0  0  0  0  0  0  0
  -44.5821  -34.0702    0.5312 H   0  0  0  0  0  0  0  0  0  0  0  0
  -47.7314  -29.0277    7.7515 H   0  0  0  0  0  0  0  0  0  0  0  0
  -45.6926  -30.1369    2.3817 H   0  0  0  0  0  0  0  0  0  0  0  0
  1  2  1  0  0  0  0
  1  3  2  0  0  0  0
  2  4  2  0  0  0  0
  3  6  1  0  0  0  0
  4  8  1  0  0  0  0
  5 17  2  0  0  0  0
  5 18  1  0  0  0  0
  6  7  1  0  0  0  0
  6  8  2  0  0  0  0
  7  9  2  0  0  0  0
  7 10  1  0  0  0  0
  8 19  1  0  0  0  0
  9 17  1  0  0  0  0
  9 19  1  0  0  0  0
 10 18  2  0  0  0  0
 10 20  1  0  0  0  0
 11 21  1  0  0  0  0
 12 13  1  0  0  0  0
 12 14  1  0  0  0  0
 13 20  1  0  0  0  0
 14 21  1  0  0  0  0
 15 16  1  0  0  0  0
 15 21  1  0  0  0  0
 16 22  1  0  0  0  0
 16 23  1  0  0  0  0
 16 24  1  0  0  0  0
  1 25  1  0  0  0  0
  2 26  1  0  0  0  0
  3 27  1  0  0  0  0
  4 28  1  0  0  0  0
  5 29  1  0  0  0  0
 11 30  1  0  0  0  0
 11 31  1  0  0  0  0
 11 32  1  0  0  0  0
 12 33  1  0  0  0  0
 12 34  1  0  0  0  0
 13 35  1  0  0  0  0
 13 36  1  0  0  0  0
 14 37  1  0  0  0  0
 14 38  1  0  0  0  0
 15 39  1  0  0  0  0
 15 40  1  0  0  0  0
 19 41  1  0  0  0  0
 20 42  1  0  0  0  0
M  END
> <POSIT::Probability>
0.83

> <POSIT::Method>
SHAPEFIT

> <ReceptorTitle>
UCSF-P4678-REFINED_LIGAND-BOUND-STATE_A__DU__LA1_A-201(A)

> <OMEGA_C>
pUxHwmF/58Et0VFAqylKwqXZ5sGG9o9A0KpBwuBg6MEGH1JAbW1Hwj4P58E4j7dACqsvwqLi6sGV
H8BAaA4/wgej6MHZ/5BAi2Q5wjqb6cEnYptAxNJBwiD/58FgzLdAUus4wv966cEBzsdA2NY0wqBG
6sH/NYFA50cvwqG4A8J9iDtA/hEtwg8q8sHw2cs/fJgwwiAs6MGqU+I/1yYwwhh3+8ErRm0/GW01
wmU0BsKQt44/1+w5wouEBMJ05Rw+Rgk0wnMn6sHy6tlAnv0vwtnh6sEUnZRA1g8+wjGC6MEq09hA
ZD81wvkE6sF1sClAgdUywhKsAcLwj+w/NJE8whf/CMI0mGy+sl09wtsoAcIrTEo/UfQ3wowmAsIL
q3e/ZG9JwgJR58GbwBVAQnhOwgIx5sFPeo9AZW8/wrzW6MGsDhdAB55JwpWB5sGQRNVA7MQrwuN+
68EGzs5Ab4MxwsiPBsKet2NAhdArwrPBBcKX5x5AIeQtwlpbAMLhFGNAkJ0pwuEU8MFwjnY/4qgr
wm7J9MEzOSVA0CMuwuO94cG21QxA9hAywjOv5cGMeEc/DkQzwtXx98HDnZI+sEstwnHw/8F43Zs+
vB83wpX4CMIjx+0/B1Qywt5HCMKG/Ac/Ae0+wqM46MFkDPhAMMU2wnUY8cHTbRhA

> <OMEGA_E>
jDLhPg==

> <OMEGA_NBR>
      6856

$$$$
CACHE3-HO_1715_12
  -OEChem-03092622533D

 47 50  0     0  0  0  0  0  0999 V2000
  -48.4452  -28.9909    3.3055 C   0  0  0  0  0  0  0  0  0  0  0  0
  -49.8452  -28.8245    3.3184 C   0  0  0  0  0  0  0  0  0  0  0  0
  -49.8383  -28.7485    5.7761 C   0  0  0  0  0  0  0  0  0  0  0  0
  -43.9224  -29.4432    5.9540 C   0  0  0  0  0  0  0  0  0  0  0  0
  -47.7773  -29.0422    4.5463 C   0  0  0  0  0  0  0  0  0  0  0  0
  -46.3626  -29.1818    4.8536 C   0  0  0  0  0  0  0  0  0  0  0  0
  -48.4456  -28.9258    5.7667 C   0  0  0  0  0  0  0  0  0  0  0  0
  -50.5379  -28.7044    4.5484 C   0  0  0  0  0  0  0  0  0  0  0  0
  -46.2220  -29.1871    6.2379 C   0  0  0  0  0  0  0  0  0  0  0  0
  -45.2511  -29.3216    4.0161 C   0  0  0  0  0  0  0  0  0  0  0  0
  -45.2529  -32.4462    2.6752 C   0  0  0  0  0  0  0  0  0  0  0  0
  -43.4807  -32.3011    0.8659 C   0  0  0  0  0  0  0  0  0  0  0  0
  -46.2892  -32.7778    1.6012 C   0  0  0  0  0  0  0  0  0  0  0  0
  -44.5679  -32.6653   -0.1606 C   0  0  0  0  0  0  0  0  0  0  0  0
  -44.0579  -31.5961    2.1286 C   0  0  0  0  0  0  0  0  0  0  0  0
  -46.5465  -34.1173   -0.4559 C   0  0  0  0  0  0  0  0  0  0  0  0
  -41.7468  -31.1877    2.9244 C   0  0  0  0  0  0  0  0  0  0  0  0
  -44.4426  -30.1105    1.7520 C   0  0  0  0  0  0  0  0  0  0  0  0
  -44.9971  -29.3359    6.7817 N   0  0  0  0  0  0  0  0  0  0  0  0
  -44.0288  -29.4117    4.5958 N   0  0  0  0  0  0  0  0  0  0  0  0
  -47.4948  -29.0240    6.7872 N   0  0  0  0  0  0  0  0  0  0  0  0
  -45.6110  -33.4879    0.4953 N   0  0  0  0  0  0  0  0  0  0  0  0
  -45.4319  -29.4826    2.6480 N   0  0  0  0  0  0  0  0  0  0  0  0
  -43.0886  -31.6488    3.2127 O   0  0  0  0  0  0  0  0  0  0  0  0
  -51.8802  -28.5523    4.5511 F   0  0  0  0  0  0  0  0  0  0  0  0
  -47.9022  -29.0762    2.3758 H   0  0  0  0  0  0  0  0  0  0  0  0
  -50.3915  -28.7885    2.3874 H   0  0  0  0  0  0  0  0  0  0  0  0
  -50.3694  -28.6469    6.7109 H   0  0  0  0  0  0  0  0  0  0  0  0
  -42.9422  -29.5583    6.3927 H   0  0  0  0  0  0  0  0  0  0  0  0
  -45.7482  -31.8798    3.4775 H   0  0  0  0  0  0  0  0  0  0  0  0
  -44.8560  -33.3880    3.0822 H   0  0  0  0  0  0  0  0  0  0  0  0
  -42.9705  -33.2235    1.1802 H   0  0  0  0  0  0  0  0  0  0  0  0
  -42.7561  -31.6264    0.3865 H   0  0  0  0  0  0  0  0  0  0  0  0
  -47.0733  -33.4201    2.0285 H   0  0  0  0  0  0  0  0  0  0  0  0
  -46.7415  -31.8491    1.2232 H   0  0  0  0  0  0  0  0  0  0  0  0
  -45.0219  -31.7446   -0.5560 H   0  0  0  0  0  0  0  0  0  0  0  0
  -44.1166  -33.2353   -0.9861 H   0  0  0  0  0  0  0  0  0  0  0  0
  -45.9778  -34.6253   -1.2487 H   0  0  0  0  0  0  0  0  0  0  0  0
  -47.1708  -34.8511    0.0751 H   0  0  0  0  0  0  0  0  0  0  0  0
  -47.1892  -33.3448   -0.9035 H   0  0  0  0  0  0  0  0  0  0  0  0
  -41.1241  -31.2829    3.8262 H   0  0  0  0  0  0  0  0  0  0  0  0
  -41.3160  -31.7962    2.1156 H   0  0  0  0  0  0  0  0  0  0  0  0
  -41.7807  -30.1336    2.6119 H   0  0  0  0  0  0  0  0  0  0  0  0
  -43.5258  -29.5031    1.7749 H   0  0  0  0  0  0  0  0  0  0  0  0
  -44.8562  -30.1119    0.7327 H   0  0  0  0  0  0  0  0  0  0  0  0
  -47.6968  -28.9833    7.7658 H   0  0  0  0  0  0  0  0  0  0  0  0
  -46.2687  -30.0207    2.5469 H   0  0  0  0  0  0  0  0  0  0  0  0
  1  2  2  0  0  0  0
  1  5  1  0  0  0  0
  2  8  1  0  0  0  0
  3  7  1  0  0  0  0
  3  8  2  0  0  0  0
  4 19  2  0  0  0  0
  4 20  1  0  0  0  0
  5  6  1  0  0  0  0
  5  7  2  0  0  0  0
  6  9  2  0  0  0  0
  6 10  1  0  0  0  0
  7 21  1  0  0  0  0
  8 25  1  0  0  0  0
  9 19  1  0  0  0  0
  9 21  1  0  0  0  0
 10 20  2  0  0  0  0
 10 23  1  0  0  0  0
 11 13  1  0  0  0  0
 11 15  1  0  0  0  0
 12 14  1  0  0  0  0
 12 15  1  0  0  0  0
 13 22  1  0  0  0  0
 14 22  1  0  0  0  0
 15 18  1  0  0  0  0
 15 24  1  0  0  0  0
 16 22  1  0  0  0  0
 17 24  1  0  0  0  0
 18 23  1  0  0  0  0
  1 26  1  0  0  0  0
  2 27  1  0  0  0  0
  3 28  1  0  0  0  0
  4 29  1  0  0  0  0
 11 30  1  0  0  0  0
 11 31  1  0  0  0  0
 12 32  1  0  0  0  0
 12 33  1  0  0  0  0
 13 34  1  0  0  0  0
 13 35  1  0  0  0  0
 14 36  1  0  0  0  0
 14 37  1  0  0  0  0
 16 38  1  0  0  0  0
 16 39  1  0  0  0  0
 16 40  1  0  0  0  0
 17 41  1  0  0  0  0
 17 42  1  0  0  0  0
 17 43  1  0  0  0  0
 18 44  1  0  0  0  0
 18 45  1  0  0  0  0
 21 46  1  0  0  0  0
 23 47  1  0  0  0  0
M  END
> <POSIT::Probability>
0.9

> <POSIT::Method>
SHAPEFIT

> <ReceptorTitle>
UCSF-P4678-REFINED_LIGAND-BOUND-STATE_A__DU__LA1_A-201(A)

> <OMEGA_C>
4MdBwkTt58HujFNAhmFHwouY5sHgYFRAZFpHwvj85cFw1bhAi7AvwqaL68Fsh75A7hs/wl5W6ME0
e5FAQ3M5wmR06cGBUJtAU8hBwhFo58EvibhA0iZKwqOi5cFTjJFAUeM4wjh/6cErncdAGgE1wrOS
6sElhIBA7QI1wvTIAcK0NStANuwtwlY0AcKuqF0/Hyg5wnYcA8K19Mw/j0UywjupAsL4fiS+Qjsw
wsnE/MEsOwhAqS86wiJ4CMICcem+uPwmwnqA+cHaKDtAO8UxwmDi8MERQeA/E/0zwgWw6sFLA9lA
dh0wwj5L68H9EJNAsvo9wg8x6MEDMdlAnXE2wqfzBcJYlv0+QLo1wl/c68G2eClAvFoswsow/cEu
nE1AX4VPwghr5MH8opFA3Js/wgGc6ME0DRhA5JBJwsNO5sHZyxhAOnpJwuks5cERwNZA3cQrwlB3
7ME+kcxAJf42wt8J/8Hhj15AlmwzwkWNBcJBQ0VAx+ErwurkBMLhEJc/NwYrwvMC/cEI5cU+HEs8
wieuBcLG0gFARfc6wt7K/sG4kpw/dxY0wgb1/cGIVw6/bncwwvjwBMJbcHy/Qek3wlqACsKF1J+/
2q48woFnC8KCtZk9tME8whZhBcLPSGe/HX8kwnFD+sHY33RAkEMlwqRe/sGIZQdAaB8nwpER8cEK
KidAbRouwmMG7MHkL+M/uGwzwijl8MGGkTs/gck+wr7d58FHgfhAHRM5wncq8MErASNA

> <OMEGA_E>
OKzpPg==

> <OMEGA_NBR>
      8319

$$$$
CACHE3-HO_1715_13
  -OEChem-03092622533D

 42 45  0     0  0  0  0  0  0999 V2000
  -48.3712  -29.2413    3.2787 C   0  0  0  0  0  0  0  0  0  0  0  0
  -49.7838  -29.2056    3.2448 C   0  0  0  0  0  0  0  0  0  0  0  0
  -49.8673  -28.9926    5.6919 C   0  0  0  0  0  0  0  0  0  0  0  0
  -43.9293  -29.1719    6.1191 C   0  0  0  0  0  0  0  0  0  0  0  0
  -47.7432  -29.1511    4.5359 C   0  0  0  0  0  0  0  0  0  0  0  0
  -46.3295  -29.1645    4.8944 C   0  0  0  0  0  0  0  0  0  0  0  0
  -48.4648  -29.0325    5.7281 C   0  0  0  0  0  0  0  0  0  0  0  0
  -50.5275  -29.0825    4.4467 C   0  0  0  0  0  0  0  0  0  0  0  0
  -46.2495  -29.0713    6.2836 C   0  0  0  0  0  0  0  0  0  0  0  0
  -45.1634  -29.2487    4.1125 C   0  0  0  0  0  0  0  0  0  0  0  0
  -45.7139  -33.5317    0.9360 C   0  0  0  0  0  0  0  0  0  0  0  0
  -44.4853  -32.9388    0.2287 C   0  0  0  0  0  0  0  0  0  0  0  0
  -45.9081  -32.1469    1.5697 C   0  0  0  0  0  0  0  0  0  0  0  0
  -44.3931  -31.8686    1.3485 C   0  0  0  0  0  0  0  0  0  0  0  0
  -44.0894  -30.4490    0.7874 C   0  0  0  0  0  0  0  0  0  0  0  0
  -43.4673  -32.2492    2.5538 C   0  0  0  0  0  0  0  0  0  0  0  0
  -43.9962  -29.3542    1.8665 C   0  0  0  0  0  0  0  0  0  0  0  0
  -45.0456  -29.0764    6.8870 N   0  0  0  0  0  0  0  0  0  0  0  0
  -43.9701  -29.2525    4.7613 N   0  0  0  0  0  0  0  0  0  0  0  0
  -47.5496  -28.9827    6.7796 N   0  0  0  0  0  0  0  0  0  0  0  0
  -45.2138  -29.3269    2.7213 N   0  0  0  0  0  0  0  0  0  0  0  0
  -43.5368  -33.6185    2.9404 O   0  0  0  0  0  0  0  0  0  0  0  0
  -51.8786  -29.0543    4.4075 F   0  0  0  0  0  0  0  0  0  0  0  0
  -47.7930  -29.3346    2.3712 H   0  0  0  0  0  0  0  0  0  0  0  0
  -50.3000  -29.2724    2.2985 H   0  0  0  0  0  0  0  0  0  0  0  0
  -50.4349  -28.8943    6.6054 H   0  0  0  0  0  0  0  0  0  0  0  0
  -42.9664  -29.1844    6.6079 H   0  0  0  0  0  0  0  0  0  0  0  0
  -46.5247  -33.8497    0.2641 H   0  0  0  0  0  0  0  0  0  0  0  0
  -45.4911  -34.3388    1.6494 H   0  0  0  0  0  0  0  0  0  0  0  0
  -43.6207  -33.6169    0.1775 H   0  0  0  0  0  0  0  0  0  0  0  0
  -44.6913  -32.5311   -0.7720 H   0  0  0  0  0  0  0  0  0  0  0  0
  -46.5785  -31.4806    1.0071 H   0  0  0  0  0  0  0  0  0  0  0  0
  -46.2156  -32.1702    2.6255 H   0  0  0  0  0  0  0  0  0  0  0  0
  -43.1301  -30.4875    0.2504 H   0  0  0  0  0  0  0  0  0  0  0  0
  -44.8915  -30.1756    0.0860 H   0  0  0  0  0  0  0  0  0  0  0  0
  -42.4278  -32.0233    2.2737 H   0  0  0  0  0  0  0  0  0  0  0  0
  -43.7566  -31.6328    3.4177 H   0  0  0  0  0  0  0  0  0  0  0  0
  -43.1188  -29.5505    2.5002 H   0  0  0  0  0  0  0  0  0  0  0  0
  -43.8823  -28.3766    1.3752 H   0  0  0  0  0  0  0  0  0  0  0  0
  -47.7903  -28.8964    7.7463 H   0  0  0  0  0  0  0  0  0  0  0  0
  -45.7172  -30.1648    2.5105 H   0  0  0  0  0  0  0  0  0  0  0  0
  -42.9513  -33.7714    3.6727 H   0  0  0  0  0  0  0  0  0  0  0  0
  1  2  1  0  0  0  0
  1  5  2  0  0  0  0
  2  8  2  0  0  0  0
  3  7  2  0  0  0  0
  3  8  1  0  0  0  0
  4 18  1  0  0  0  0
  4 19  2  0  0  0  0
  5  6  1  0  0  0  0
  5  7  1  0  0  0  0
  6  9  1  0  0  0  0
  6 10  2  0  0  0  0
  7 20  1  0  0  0  0
  8 23  1  0  0  0  0
  9 18  2  0  0  0  0
  9 20  1  0  0  0  0
 10 19  1  0  0  0  0
 10 21  1  0  0  0  0
 11 12  1  0  0  0  0
 11 13  1  0  0  0  0
 12 14  1  0  0  0  0
 13 14  1  0  0  0  0
 14 15  1  0  0  0  0
 14 16  1  0  0  0  0
 15 17  1  0  0  0  0
 16 22  1  0  0  0  0
 17 21  1  0  0  0  0
  1 24  1  0  0  0  0
  2 25  1  0  0  0  0
  3 26  1  0  0  0  0
  4 27  1  0  0  0  0
 11 28  1  0  0  0  0
 11 29  1  0  0  0  0
 12 30  1  0  0  0  0
 12 31  1  0  0  0  0
 13 32  1  0  0  0  0
 13 33  1  0  0  0  0
 15 34  1  0  0  0  0
 15 35  1  0  0  0  0
 16 36  1  0  0  0  0
 16 37  1  0  0  0  0
 17 38  1  0  0  0  0
 17 39  1  0  0  0  0
 20 40  1  0  0  0  0
 21 41  1  0  0  0  0
 22 42  1  0  0  0  0
M  END
> <POSIT::Probability>
0.93

> <POSIT::Method>
SHAPEFIT

> <ReceptorTitle>
UCSF-P4678-REFINED_LIGAND-BOUND-STATE_A__DU__LA1_A-201(A)

> <OMEGA_C>
D3xBwiXu6cGo1VFAoCJHwhml6cFAqk9AInhHwt3w58HYI7ZAorcvwv5f6cGCz8NAD/k+wls16cHi
JZFAZlE5wvpQ6cHSnpxA99tBwn1C6MHiTLdALRxKwg2p6MGQS45Aff84wv6R6MGcE8lASac0wmf9
6cH6mYNADNs2wncgBsLEnG8/9fAxwlzBA8JgK2o+3aE3wmyWAMJ46sg/i5Ixwury/sGwnKw/iFsw
wnSX88Eokkk/hd4twjf/AMIEcSNAI/wvwlzV6sFc6u4/qi40wm2c6ME2YtxAXuEvwhMF6sGEXJhA
xDI+wqzc58FG8thA7No0wn2d6sFIKS5AtyUuwl55BsIULzxAqINPwihv6MGCCo1AEiw/wi+t6sHT
wRdANjNJwvAt6sEjGhNAXb1JwpMn58GXX9NAlN0rwqB56cE1dNNAShk6wiJmB8LLMoc+7/Y1wuZa
CcILIdM/lnsuwrt3BsK8xTU+38MywuMfAsLuoUW/blA6wjHY+8HB6IA/ztw4wlauAMKdCChARYUs
wlnm88HLMYA+6JAzwqRn8cFEOLA9F7YpwtcXAMLNhBFAtwYvwggQ/cGqu1pArHkswn9n7MEFBCBA
eIcvwk0D48FVB7A/Syk/wsEr58HF4fdAaN42wptR8cHRqyBAHc4rwusVB8IQDWtA

> <OMEGA_E>
8FJ8Pg==

> <OMEGA_NBR>
      9683

$$$$
CACHE3-HO_1715_17
  -OEChem-03092622533D

 43 46  0     1  0  0  0  0  0999 V2000
  -48.3777  -29.1398    3.2457 C   0  0  0  0  0  0  0  0  0  0  0  0
  -49.7930  -29.1552    3.2420 C   0  0  0  0  0  0  0  0  0  0  0  0
  -49.8300  -29.0915    5.6978 C   0  0  0  0  0  0  0  0  0  0  0  0
  -43.8890  -29.3452    6.0087 C   0  0  0  0  0  0  0  0  0  0  0  0
  -47.7250  -29.1093    4.4934 C   0  0  0  0  0  0  0  0  0  0  0  0
  -46.3020  -29.1349    4.8275 C   0  0  0  0  0  0  0  0  0  0  0  0
  -48.4268  -29.1080    5.7036 C   0  0  0  0  0  0  0  0  0  0  0  0
  -50.5146  -29.1220    4.4640 C   0  0  0  0  0  0  0  0  0  0  0  0
  -46.2045  -29.2214    6.2157 C   0  0  0  0  0  0  0  0  0  0  0  0
  -45.1395  -29.0673    4.0338 C   0  0  0  0  0  0  0  0  0  0  0  0
  -45.7993  -33.7598    0.7782 C   0  0  0  0  0  0  0  0  0  0  0  0
  -45.3144  -32.4221    0.1834 C   0  0  0  0  0  0  0  0  0  0  0  0
  -44.7534  -34.3056    1.7737 C   0  0  0  0  0  0  0  0  0  0  0  0
  -43.8902  -32.0922    2.2364 C   0  0  0  0  0  0  0  0  0  0  0  0
  -44.9542  -31.4407    1.3190 C   0  0  1  0  0  0  0  0  0  0  0  0
  -44.4428  -30.1074    0.7039 C   0  0  0  0  0  0  0  0  0  0  0  0
  -44.0582  -29.0292    1.7411 C   0  0  0  0  0  0  0  0  0  0  0  0
  -44.9942  -29.3155    6.7976 N   0  0  0  0  0  0  0  0  0  0  0  0
  -43.9422  -29.2072    4.6565 N   0  0  0  0  0  0  0  0  0  0  0  0
  -47.4946  -29.1532    6.7389 N   0  0  0  0  0  0  0  0  0  0  0  0
  -45.1866  -28.7522    2.6756 N   0  0  0  0  0  0  0  0  0  0  0  0
  -44.4161  -33.3209    2.7788 O   0  0  0  0  0  0  0  0  0  0  0  0
  -46.1511  -31.2297    2.0715 O   0  0  0  0  0  0  0  0  0  0  0  0
  -51.8669  -29.1339    4.4575 F   0  0  0  0  0  0  0  0  0  0  0  0
  -47.8170  -29.1510    2.3227 H   0  0  0  0  0  0  0  0  0  0  0  0
  -50.3270  -29.1925    2.3040 H   0  0  0  0  0  0  0  0  0  0  0  0
  -50.3796  -29.0557    6.6268 H   0  0  0  0  0  0  0  0  0  0  0  0
  -42.9253  -29.4847    6.4757 H   0  0  0  0  0  0  0  0  0  0  0  0
  -46.7530  -33.6007    1.3027 H   0  0  0  0  0  0  0  0  0  0  0  0
  -45.9443  -34.4880   -0.0335 H   0  0  0  0  0  0  0  0  0  0  0  0
  -44.4255  -32.6010   -0.4394 H   0  0  0  0  0  0  0  0  0  0  0  0
  -46.1136  -31.9870   -0.4346 H   0  0  0  0  0  0  0  0  0  0  0  0
  -45.1632  -35.1976    2.2700 H   0  0  0  0  0  0  0  0  0  0  0  0
  -43.8424  -34.5794    1.2212 H   0  0  0  0  0  0  0  0  0  0  0  0
  -42.9832  -32.3070    1.6522 H   0  0  0  0  0  0  0  0  0  0  0  0
  -43.6427  -31.4041    3.0582 H   0  0  0  0  0  0  0  0  0  0  0  0
  -43.5549  -30.3290    0.0934 H   0  0  0  0  0  0  0  0  0  0  0  0
  -45.2367  -29.6986    0.0616 H   0  0  0  0  0  0  0  0  0  0  0  0
  -43.1915  -29.3812    2.3198 H   0  0  0  0  0  0  0  0  0  0  0  0
  -43.7940  -28.1013    1.2127 H   0  0  0  0  0  0  0  0  0  0  0  0
  -47.7185  -29.1389    7.7134 H   0  0  0  0  0  0  0  0  0  0  0  0
  -45.9773  -29.2404    2.3062 H   0  0  0  0  0  0  0  0  0  0  0  0
  -45.9751  -30.6282    2.7854 H   0  0  0  0  0  0  0  0  0  0  0  0
  1  2  1  0  0  0  0
  1  5  2  0  0  0  0
  2  8  2  0  0  0  0
  3  7  2  0  0  0  0
  3  8  1  0  0  0  0
  4 18  1  0  0  0  0
  4 19  2  0  0  0  0
  5  6  1  0  0  0  0
  5  7  1  0  0  0  0
  6  9  1  0  0  0  0
  6 10  2  0  0  0  0
  7 20  1  0  0  0  0
  8 24  1  0  0  0  0
  9 18  2  0  0  0  0
  9 20  1  0  0  0  0
 10 19  1  0  0  0  0
 10 21  1  0  0  0  0
 11 12  1  0  0  0  0
 11 13  1  0  0  0  0
 12 15  1  0  0  0  0
 13 22  1  0  0  0  0
 14 15  1  0  0  0  0
 14 22  1  0  0  0  0
 15 16  1  0  0  0  0
 15 23  1  0  0  0  0
 16 17  1  0  0  0  0
 17 21  1  0  0  0  0
  1 25  1  0  0  0  0
  2 26  1  0  0  0  0
  3 27  1  0  0  0  0
  4 28  1  0  0  0  0
 11 29  1  0  0  0  0
 11 30  1  0  0  0  0
 12 31  1  0  0  0  0
 12 32  1  0  0  0  0
 13 33  1  0  0  0  0
 13 34  1  0  0  0  0
 14 35  1  0  0  0  0
 14 36  1  0  0  0  0
 16 37  1  0  0  0  0
 16 38  1  0  0  0  0
 17 39  1  0  0  0  0
 17 40  1  0  0  0  0
 20 41  1  0  0  0  0
 21 42  1  0  0  0  0
 23 43  1  0  0  0  0
M  END
> <POSIT::Probability>
0.91

> <POSIT::Method>
SHAPEFIT

> <ReceptorTitle>
UCSF-P4678-REFINED_LIGAND-BOUND-STATE_A__DU__LA1_A-201(A)

> <OMEGA_C>
vYJBwkMe6cHmuE9A/ytHwu896cFYfU9A4VFHwlS76MGlVLZAYo4vwgrD6sGBR8BAcuY+wsbf6MHP
yY9ASTU5wi8U6cFDe5pADrVBwkDd6MEDhLZA9g5Kwu/56MFx2Y5AZNE4wmbF6cHz5sZA2Y40wsmJ
6MHNFIFAfDI3wgYKB8LoNkc/9EE1wkWwAcIg1Ds+eQMzwuU4CcJ8B+M/lY8vwmheAMKyIQ9AEdEz
wn+G+8FU1qg/Y8Uxwvbb8MHYMTQ/nzswwto76MF83N4/DPozwgyG6sGbhdlAxsQvwkCo6cEdApVA
gPo9wtg56cHlpNdAGr80wmsE5sEKPStAIaoxwqBIBcKe1zFAxJo4wn/W+cEqlARAqHdPwicS6cGh
o45An0Q/wj016cFuphRA3E5JwkiK6cGBdRNAvoRJwihy6MHEDtRAfrMrwr3g68FUOc9AFAM7wh5n
BsJWv6Y/6sY3wq3zCcJIBAm9vrMxwnhnAsJO9uC+VHQ4wl3l/8Ewgt6+Kqc0wk7KDMK2RxFAqF4v
wkNRCsLfUJw/2e4rwlQ6AcJvfNM/GpIuwqg7+8FtuUNAQzguwrmh8sFeSL89XvI0wqyW7cFBS3w9
EcQswqsM68E1dxRAEi0vwnvP4MEeO5s/s98+wnsc6cEw1PZAv+g3wkzs6cE3mBNAdeY3woEG9cFZ
RDJA

> <OMEGA_E>
9PraPg==

> <OMEGA_NBR>
     11071

$$$$
CACHE3-HO_1715_18
  -OEChem-03092622533D

 38 40  0     0  0  0  0  0  0999 V2000
  -48.3702  -29.1226    3.2602 C   0  0  0  0  0  0  0  0  0  0  0  0
  -49.7811  -29.0386    3.2470 C   0  0  0  0  0  0  0  0  0  0  0  0
  -49.8292  -28.9650    5.7034 C   0  0  0  0  0  0  0  0  0  0  0  0
  -43.8898  -29.3241    6.0298 C   0  0  0  0  0  0  0  0  0  0  0  0
  -47.7256  -29.1354    4.5122 C   0  0  0  0  0  0  0  0  0  0  0  0
  -46.3089  -29.2196    4.8488 C   0  0  0  0  0  0  0  0  0  0  0  0
  -48.4278  -29.0515    5.7188 C   0  0  0  0  0  0  0  0  0  0  0  0
  -50.5068  -28.9655    4.4639 C   0  0  0  0  0  0  0  0  0  0  0  0
  -46.2051  -29.1716    6.2384 C   0  0  0  0  0  0  0  0  0  0  0  0
  -45.1594  -29.3384    4.0467 C   0  0  0  0  0  0  0  0  0  0  0  0
  -44.0805  -32.1257    2.0459 C   0  0  0  0  0  0  0  0  0  0  0  0
  -45.7649  -33.7327    1.1450 C   0  0  0  0  0  0  0  0  0  0  0  0
  -44.9875  -31.8029   -0.2657 C   0  0  0  0  0  0  0  0  0  0  0  0
  -43.2193  -30.8385    1.9475 C   0  0  0  0  0  0  0  0  0  0  0  0
  -44.0409  -29.5266    1.7845 C   0  0  0  0  0  0  0  0  0  0  0  0
  -44.9915  -29.2306    6.8202 N   0  0  0  0  0  0  0  0  0  0  0  0
  -43.9550  -29.3737    4.6710 N   0  0  0  0  0  0  0  0  0  0  0  0
  -47.4964  -29.0742    6.7578 N   0  0  0  0  0  0  0  0  0  0  0  0
  -45.2390  -29.4538    2.6614 N   0  0  0  0  0  0  0  0  0  0  0  0
  -44.8337  -32.6039    0.9582 N   0  0  0  0  0  0  0  0  0  0  0  0
  -43.9905  -32.7982    3.0688 O   0  0  0  0  0  0  0  0  0  0  0  0
  -51.8569  -28.8975    4.4438 F   0  0  0  0  0  0  0  0  0  0  0  0
  -47.8055  -29.1753    2.3411 H   0  0  0  0  0  0  0  0  0  0  0  0
  -50.3097  -29.0300    2.3053 H   0  0  0  0  0  0  0  0  0  0  0  0
  -50.3826  -28.8988    6.6284 H   0  0  0  0  0  0  0  0  0  0  0  0
  -42.9188  -29.3606    6.5010 H   0  0  0  0  0  0  0  0  0  0  0  0
  -46.2598  -33.9624    0.1899 H   0  0  0  0  0  0  0  0  0  0  0  0
  -45.2065  -34.6153    1.4902 H   0  0  0  0  0  0  0  0  0  0  0  0
  -46.5230  -33.4622    1.8948 H   0  0  0  0  0  0  0  0  0  0  0  0
  -45.6082  -32.3525   -0.9887 H   0  0  0  0  0  0  0  0  0  0  0  0
  -45.4718  -30.8464   -0.0193 H   0  0  0  0  0  0  0  0  0  0  0  0
  -43.9974  -31.6102   -0.7045 H   0  0  0  0  0  0  0  0  0  0  0  0
  -42.6177  -30.7561    2.8647 H   0  0  0  0  0  0  0  0  0  0  0  0
  -42.5518  -30.9367    1.0787 H   0  0  0  0  0  0  0  0  0  0  0  0
  -43.3855  -28.6757    2.0220 H   0  0  0  0  0  0  0  0  0  0  0  0
  -44.3724  -29.4532    0.7382 H   0  0  0  0  0  0  0  0  0  0  0  0
  -47.7214  -29.0275    7.7311 H   0  0  0  0  0  0  0  0  0  0  0  0
  -45.7612  -30.2880    2.4841 H   0  0  0  0  0  0  0  0  0  0  0  0
  1  2  2  0  0  0  0
  1  5  1  0  0  0  0
  2  8  1  0  0  0  0
  3  7  1  0  0  0  0
  3  8  2  0  0  0  0
  4 16  2  0  0  0  0
  4 17  1  0  0  0  0
  5  6  1  0  0  0  0
  5  7  2  0  0  0  0
  6  9  2  0  0  0  0
  6 10  1  0  0  0  0
  7 18  1  0  0  0  0
  8 22  1  0  0  0  0
  9 16  1  0  0  0  0
  9 18  1  0  0  0  0
 10 17  2  0  0  0  0
 10 19  1  0  0  0  0
 11 14  1  0  0  0  0
 11 20  1  0  0  0  0
 11 21  2  0  0  0  0
 12 20  1  0  0  0  0
 13 20  1  0  0  0  0
 14 15  1  0  0  0  0
 15 19  1  0  0  0  0
  1 23  1  0  0  0  0
  2 24  1  0  0  0  0
  3 25  1  0  0  0  0
  4 26  1  0  0  0  0
 12 27  1  0  0  0  0
 12 28  1  0  0  0  0
 12 29  1  0  0  0  0
 13 30  1  0  0  0  0
 13 31  1  0  0  0  0
 13 32  1  0  0  0  0
 14 33  1  0  0  0  0
 14 34  1  0  0  0  0
 15 35  1  0  0  0  0
 15 36  1  0  0  0  0
 18 37  1  0  0  0  0
 19 38  1  0  0  0  0
M  END
> <POSIT::Probability>
0.93

> <POSIT::Method>
SHAPEFIT

> <ReceptorTitle>
UCSF-P4678-REFINED_LIGAND-BOUND-STATE_A__DU__LA1_A-201(A)

> <OMEGA_C>
FntBwir76MHup1BA5B9HwhNP6MEIz09AHFFHwk2458HrgbZALo8vwqqX6sHI88BACuc+wlAV6cGx
Y5BARjw5wtHB6cGTKZtAHrZBwn5p6MErALdA7QZKwk+558Hd145AEdI4wnhf6cHDoMdANKM0wv20
6sHlfoFAeVIwwrWAAMK27wJASw83wkPuBsJMkJI/NfMzwkNs/sFOCYi+meAswlG19sGURvk/3Ckw
wnE27MHIaeQ/V/czwkjY6cHfPtpA8tEvwlH96sGueJVAXfw9wvOX6MElQNhAvvQ0wmOh68GoVCpA
sFUzwlxqAsIoSnU/TfYvwlIxA8K+Z0RAdW1Pwgou58GrM45A2zg/wvhm6cEv1RVALj1JwoE96MFG
iRNA04dJwtAw58EAHNRAzqwrwnni6sFjCNBAAAo5wozZB8KOakI+b9M0whB2CsI9vb4/kBc6wkfZ
BcLDiPI/wm42wvNoAcKnGX2/KOM1woXF9sEbX568Vv0vwprh/MH3WTS/hXgqwnkM9sGAVjdAETUq
wmZ+98E6Eoo/wYotwsZn5cHfaAFAVX0xwhKg68F0+jw/ruI+wlg46MEVZfdAbgs3wt1N8sHM+x5A

> <OMEGA_E>
yBV8Pg==

> <OMEGA_NBR>
     12352

$$$$
CACHE3-HO_1715_26
  -OEChem-03092622533D

 31 34  0     0  0  0  0  0  0999 V2000
  -49.8488  -29.0582    3.2885 C   0  0  0  0  0  0  0  0  0  0  0  0
  -50.5500  -28.9067    4.5114 C   0  0  0  0  0  0  0  0  0  0  0  0
  -48.4384  -29.1618    3.2783 C   0  0  0  0  0  0  0  0  0  0  0  0
  -49.8498  -28.8629    5.7380 C   0  0  0  0  0  0  0  0  0  0  0  0
  -44.7738  -33.5580    2.0156 C   0  0  0  0  0  0  0  0  0  0  0  0
  -45.6020  -33.2555    0.9675 C   0  0  0  0  0  0  0  0  0  0  0  0
  -43.9212  -29.4373    5.9879 C   0  0  0  0  0  0  0  0  0  0  0  0
  -47.7677  -29.1160    4.5148 C   0  0  0  0  0  0  0  0  0  0  0  0
  -46.3441  -29.2248    4.8277 C   0  0  0  0  0  0  0  0  0  0  0  0
  -48.4484  -28.9769    5.7307 C   0  0  0  0  0  0  0  0  0  0  0  0
  -46.2222  -29.1618    6.2167 C   0  0  0  0  0  0  0  0  0  0  0  0
  -45.2039  -29.3876    4.0112 C   0  0  0  0  0  0  0  0  0  0  0  0
  -44.5227  -31.4297    1.5871 C   0  0  0  0  0  0  0  0  0  0  0  0
  -44.2121  -29.9690    1.7555 C   0  0  0  0  0  0  0  0  0  0  0  0
  -44.1224  -32.3909    2.3861 N   0  0  0  0  0  0  0  0  0  0  0  0
  -45.0066  -29.2630    6.7865 N   0  0  0  0  0  0  0  0  0  0  0  0
  -44.0005  -29.5044    4.6296 N   0  0  0  0  0  0  0  0  0  0  0  0
  -47.5000  -28.9961    6.7533 N   0  0  0  0  0  0  0  0  0  0  0  0
  -45.2787  -29.3872    2.6153 N   0  0  0  0  0  0  0  0  0  0  0  0
  -45.4316  -31.9375    0.7080 O   0  0  0  0  0  0  0  0  0  0  0  0
  -50.3958  -29.0947    2.3580 H   0  0  0  0  0  0  0  0  0  0  0  0
  -51.6268  -28.8241    4.5054 H   0  0  0  0  0  0  0  0  0  0  0  0
  -47.8940  -29.2725    2.3522 H   0  0  0  0  0  0  0  0  0  0  0  0
  -50.3841  -28.7436    6.6689 H   0  0  0  0  0  0  0  0  0  0  0  0
  -44.6503  -34.5295    2.4711 H   0  0  0  0  0  0  0  0  0  0  0  0
  -46.2621  -33.9353    0.4492 H   0  0  0  0  0  0  0  0  0  0  0  0
  -42.9500  -29.5268    6.4518 H   0  0  0  0  0  0  0  0  0  0  0  0
  -43.2309  -29.8456    2.2372 H   0  0  0  0  0  0  0  0  0  0  0  0
  -44.2045  -29.4701    0.7752 H   0  0  0  0  0  0  0  0  0  0  0  0
  -47.7053  -28.9046    7.7277 H   0  0  0  0  0  0  0  0  0  0  0  0
  -46.1198  -29.8755    2.3824 H   0  0  0  0  0  0  0  0  0  0  0  0
  1  2  1  0  0  0  0
  1  3  2  0  0  0  0
  2  4  2  0  0  0  0
  3  8  1  0  0  0  0
  4 10  1  0  0  0  0
  5  6  2  0  0  0  0
  5 15  1  0  0  0  0
  6 20  1  0  0  0  0
  7 16  1  0  0  0  0
  7 17  2  0  0  0  0
  8  9  1  0  0  0  0
  8 10  2  0  0  0  0
  9 11  1  0  0  0  0
  9 12  2  0  0  0  0
 10 18  1  0  0  0  0
 11 16  2  0  0  0  0
 11 18  1  0  0  0  0
 12 17  1  0  0  0  0
 12 19  1  0  0  0  0
 13 14  1  0  0  0  0
 13 15  2  0  0  0  0
 13 20  1  0  0  0  0
 14 19  1  0  0  0  0
  1 21  1  0  0  0  0
  2 22  1  0  0  0  0
  3 23  1  0  0  0  0
  4 24  1  0  0  0  0
  5 25  1  0  0  0  0
  6 26  1  0  0  0  0
  7 27  1  0  0  0  0
 14 28  1  0  0  0  0
 14 29  1  0  0  0  0
 18 30  1  0  0  0  0
 19 31  1  0  0  0  0
M  END
> <POSIT::Probability>
0.93

> <POSIT::Method>
SHAPEFIT

> <ReceptorTitle>
UCSF-P4678-REFINED_LIGAND-BOUND-STATE_A__DU__LA1_A-201(A)

> <OMEGA_C>
NWVHwih36MHfdlJANDNKwtRA58FcXZBA9MBBwm5L6cG5z1FAMmZHwlLn5sFonbdAXhgzwm87BsKZ
/wBAfGg2wqMFBcJsq3c/Q68vwqB/68EMnb9AGxI/wn7t6MGAeZBAXmA5wlrM6cG2fJpAIstBwqrQ
58GoYbdAgeM4wnJL6cGM78ZAy9A0wrgZ68FsW4BANRcywvRv+8FmJ8s/Jdkwwn7A78EKtOA/TX0w
wkKQAcLRtRhAzQY0wqQa6sGwKtlAhgAwwhYJ7MG8JZRA+P89wgT458FuG9hAZR01wgwZ68FVYCdA
8Lk1whCA/8FYQTU/RZVJwv7B6MG36BZA3oFOwqqX5sFwLJBAbZM/wicu6sEXihZAUYlJwt3y5cHK
Z9VA7pkywi8eCsJRJh5AXAw5wsq9B8Ji/+U+xswrwvo27ME7dc5Aa+wswt7D7sHmLg9Ab9EwwrnC
68GxcUY/RtI+wpc858GsSfdAoHo4whgB78HPeRhA

> <OMEGA_E>
HA+OPg==

> <OMEGA_NBR>
     13495

$$$$
CACHE3HI_1687_41
  -OEChem-03092622533D

 27 29  0     0  0  0  0  0  0999 V2000
  -43.6400  -27.6521    2.3417 C   0  0  0  0  0  0  0  0  0  0  0  0
  -43.4878  -27.7034    0.9456 C   0  0  0  0  0  0  0  0  0  0  0  0
  -48.3549  -29.3170    4.4762 C   0  0  0  0  0  0  0  0  0  0  0  0
  -48.2206  -29.2362    6.7257 C   0  0  0  0  0  0  0  0  0  0  0  0
  -47.0227  -29.3831    4.8136 C   0  0  0  0  0  0  0  0  0  0  0  0
  -46.9515  -29.3317    6.2177 C   0  0  0  0  0  0  0  0  0  0  0  0
  -43.4090  -28.9415    2.7425 C   0  0  0  0  0  0  0  0  0  0  0  0
  -44.7080  -29.4682    6.1532 C   0  0  0  0  0  0  0  0  0  0  0  0
  -45.8561  -29.4858    3.9759 C   0  0  0  0  0  0  0  0  0  0  0  0
  -50.5144  -29.1377    5.7299 C   0  0  0  0  0  0  0  0  0  0  0  0
  -43.3995  -29.6293    4.0775 C   0  0  0  0  0  0  0  0  0  0  0  0
  -43.1854  -28.9305    0.5132 N   0  0  0  0  0  0  0  0  0  0  0  0
  -45.7486  -29.3753    6.9290 N   0  0  0  0  0  0  0  0  0  0  0  0
  -49.0743  -29.2280    5.6470 N   0  0  0  0  0  0  0  0  0  0  0  0
  -44.6839  -29.5254    4.7525 N   0  0  0  0  0  0  0  0  0  0  0  0
  -45.9206  -29.5285    2.7526 O   0  0  0  0  0  0  0  0  0  0  0  0
  -43.1360  -29.7144    1.6595 O   0  0  0  0  0  0  0  0  0  0  0  0
  -43.8817  -26.8030    2.9633 H   0  0  0  0  0  0  0  0  0  0  0  0
  -43.5836  -26.9039    0.2258 H   0  0  0  0  0  0  0  0  0  0  0  0
  -48.8547  -29.3252    3.5166 H   0  0  0  0  0  0  0  0  0  0  0  0
  -48.5945  -29.1750    7.7389 H   0  0  0  0  0  0  0  0  0  0  0  0
  -43.7031  -29.5106    6.6046 H   0  0  0  0  0  0  0  0  0  0  0  0
  -50.9659  -30.1336    5.7919 H   0  0  0  0  0  0  0  0  0  0  0  0
  -50.9087  -28.6251    4.8469 H   0  0  0  0  0  0  0  0  0  0  0  0
  -50.8205  -28.5871    6.6254 H   0  0  0  0  0  0  0  0  0  0  0  0
  -43.1638  -30.6925    3.9621 H   0  0  0  0  0  0  0  0  0  0  0  0
  -42.6392  -29.1973    4.7365 H   0  0  0  0  0  0  0  0  0  0  0  0
  1  2  1  0  0  0  0
  1  7  2  0  0  0  0
  2 12  2  0  0  0  0
  3  5  2  0  0  0  0
  3 14  1  0  0  0  0
  4  6  2  0  0  0  0
  4 14  1  0  0  0  0
  5  6  1  0  0  0  0
  5  9  1  0  0  0  0
  6 13  1  0  0  0  0
  7 11  1  0  0  0  0
  7 17  1  0  0  0  0
  8 13  2  0  0  0  0
  8 15  1  0  0  0  0
  9 15  1  0  0  0  0
  9 16  2  0  0  0  0
 10 14  1  0  0  0  0
 11 15  1  0  0  0  0
 12 17  1  0  0  0  0
  1 18  1  0  0  0  0
  2 19  1  0  0  0  0
  3 20  1  0  0  0  0
  4 21  1  0  0  0  0
  8 22  1  0  0  0  0
 10 23  1  0  0  0  0
 10 24  1  0  0  0  0
 10 25  1  0  0  0  0
 11 26  1  0  0  0  0
 11 27  1  0  0  0  0
M  END
> <POSIT::Probability>
0.18

> <POSIT::Method>
HYBRID

> <ReceptorTitle>
UCSF-P4678-REFINED_LIGAND-BOUND-STATE_A__DU__LA1_A-201(A)

> <OMEGA_C>
X48uwn033cG83RVAe/Mtwqeg3cH8EnI/aWtBwk6J6sHVPI9A6uFAwrfj6cFKOddARBc8wpAQ68Er
CZpAS847wmyn6sFG98ZA16ItwjGI58FjhC9A+tQywu6+68G95sRAsWw3wgHj68EHdX5Avg5KwgMa
6cFCW7dAHZktwtoI7cGSeoJA3r0swrpx58GgYQM/lP42wpgA68GAut1ADExEwgfT6cGhtLRAVrwy
wvAz7MEcFJhAsa43wmY67MGsKjBAT4sswg637cF8adQ/0oYvwnds1sEopz1AlVUuwjM718FAQGc+
NGtDwv+Z6sEeEGFAvGBCwm5m6cENpfdA7c8uwssV7MEkWdNAGd1LwoQR8cGUV7lAi6JLwj0A5cEw
GptAOkhLwmSy5MGYA9RAxqcswjCK9cFpk31Ak44qwviT6cEWkZdA

> <OMEGA_E>
GGvxwA==

> <OMEGA_NBR>
     14526

$$$$
CACHE3HI_1689_36
  -OEChem-03092622533D

 39 41  0     0  0  0  0  0  0999 V2000
  -50.5432  -28.8630    4.6189 C   0  0  0  0  0  0  0  0  0  0  0  0
  -49.8253  -28.7710    5.8274 C   0  0  0  0  0  0  0  0  0  0  0  0
  -48.4516  -29.1836    3.3929 C   0  0  0  0  0  0  0  0  0  0  0  0
  -46.2461  -29.0139    6.3171 C   0  0  0  0  0  0  0  0  0  0  0  0
  -47.7408  -29.0927    4.6080 C   0  0  0  0  0  0  0  0  0  0  0  0
  -46.3224  -29.1609    4.9519 C   0  0  0  0  0  0  0  0  0  0  0  0
  -49.8586  -29.0861    3.4029 C   0  0  0  0  0  0  0  0  0  0  0  0
  -48.4240  -28.8926    5.8136 C   0  0  0  0  0  0  0  0  0  0  0  0
  -43.7713  -31.7821    1.7545 C   0  0  0  0  0  0  0  0  0  0  0  0
  -44.5493  -31.2109    0.7618 C   0  0  0  0  0  0  0  0  0  0  0  0
  -44.1339  -33.1131    2.2360 C   0  0  0  0  0  0  0  0  0  0  0  0
  -45.8997  -33.1398    0.5906 C   0  0  0  0  0  0  0  0  0  0  0  0
  -45.1666  -29.2803    4.0516 C   0  0  0  0  0  0  0  0  0  0  0  0
  -50.6266  -29.1613    2.1042 C   0  0  0  0  0  0  0  0  0  0  0  0
  -44.4309  -29.7363    0.4429 C   0  0  0  0  0  0  0  0  0  0  0  0
  -44.2808  -28.8930    1.7222 C   0  0  0  0  0  0  0  0  0  0  0  0
  -45.5834  -31.9371    0.1496 N   0  0  0  0  0  0  0  0  0  0  0  0
  -45.2191  -33.7413    1.6543 N   0  0  0  0  0  0  0  0  0  0  0  0
  -46.9385  -33.8238   -0.0128 N   0  0  0  0  0  0  0  0  0  0  0  0
  -45.3584  -29.2025    2.6785 N   0  0  0  0  0  0  0  0  0  0  0  0
  -43.5599  -33.6117    3.1947 O   0  0  0  0  0  0  0  0  0  0  0  0
  -44.0378  -29.3270    4.5288 O   0  0  0  0  0  0  0  0  0  0  0  0
  -47.5042  -28.8484    6.8313 O   0  0  0  0  0  0  0  0  0  0  0  0
  -51.6185  -28.7629    4.6217 H   0  0  0  0  0  0  0  0  0  0  0  0
  -50.3474  -28.6080    6.7587 H   0  0  0  0  0  0  0  0  0  0  0  0
  -47.9225  -29.3267    2.4622 H   0  0  0  0  0  0  0  0  0  0  0  0
  -45.3338  -29.0271    6.8949 H   0  0  0  0  0  0  0  0  0  0  0  0
  -42.9194  -31.2580    2.1619 H   0  0  0  0  0  0  0  0  0  0  0  0
  -50.7224  -28.1529    1.6753 H   0  0  0  0  0  0  0  0  0  0  0  0
  -50.0890  -29.8106    1.3976 H   0  0  0  0  0  0  0  0  0  0  0  0
  -51.6278  -29.5756    2.2939 H   0  0  0  0  0  0  0  0  0  0  0  0
  -43.5488  -29.5782   -0.1951 H   0  0  0  0  0  0  0  0  0  0  0  0
  -45.3347  -29.4130   -0.0944 H   0  0  0  0  0  0  0  0  0  0  0  0
  -43.3094  -29.1140    2.1886 H   0  0  0  0  0  0  0  0  0  0  0  0
  -44.3268  -27.8259    1.4589 H   0  0  0  0  0  0  0  0  0  0  0  0
  -45.5197  -34.6317    1.9962 H   0  0  0  0  0  0  0  0  0  0  0  0
  -47.3239  -33.2651   -0.7472 H   0  0  0  0  0  0  0  0  0  0  0  0
  -46.5955  -34.6829   -0.3927 H   0  0  0  0  0  0  0  0  0  0  0  0
  -46.2773  -29.3653    2.3192 H   0  0  0  0  0  0  0  0  0  0  0  0
  1  2  2  0  0  0  0
  1  7  1  0  0  0  0
  2  8  1  0  0  0  0
  3  5  1  0  0  0  0
  3  7  2  0  0  0  0
  4  6  2  0  0  0  0
  4 23  1  0  0  0  0
  5  6  1  0  0  0  0
  5  8  2  0  0  0  0
  6 13  1  0  0  0  0
  7 14  1  0  0  0  0
  8 23  1  0  0  0  0
  9 10  2  0  0  0  0
  9 11  1  0  0  0  0
 10 15  1  0  0  0  0
 10 17  1  0  0  0  0
 11 18  1  0  0  0  0
 11 21  2  0  0  0  0
 12 17  2  0  0  0  0
 12 18  1  0  0  0  0
 12 19  1  0  0  0  0
 13 20  1  0  0  0  0
 13 22  2  0  0  0  0
 15 16  1  0  0  0  0
 16 20  1  0  0  0  0
  1 24  1  0  0  0  0
  2 25  1  0  0  0  0
  3 26  1  0  0  0  0
  4 27  1  0  0  0  0
  9 28  1  0  0  0  0
 14 29  1  0  0  0  0
 14 30  1  0  0  0  0
 14 31  1  0  0  0  0
 15 32  1  0  0  0  0
 15 33  1  0  0  0  0
 16 34  1  0  0  0  0
 16 35  1  0  0  0  0
 18 36  1  0  0  0  0
 19 37  1  0  0  0  0
 19 38  1  0  0  0  0
 20 39  1  0  0  0  0
M  END
> <POSIT::Probability>
0.5

> <POSIT::Method>
SHAPEFIT

> <ReceptorTitle>
UCSF-P4678-REFINED_LIGAND-BOUND-STATE_A__DU__LA1_A-201(A)

> <OMEGA_C>
PSxKwmjn5sH+zZNAGE1Hwukq5sFuerpAaM5Bwvd36cGBJFlABvw4woUc6MFmJcpAiPY+wua96MGI
dJNAKUo5wmxJ6cG2dZ5AQG9HwkGw6MHryFlAM7JBwg8k58GyCLpAzRUvwshB/sE+kuA/dDIywvyv
+cGcBUM/IokwwshzBMJnGg9APpk3wiGPBMLsMRc/m6o0wvc96sHwpoFAooFKwmlK6cGFqwZANrkx
wuTj7cHYwuI+fh8xwtUk58EOcNw/YFU2wiN//8EQKRk+Z+A0whX3BsK+v9M/+sA7wpBLB8IAMFK8
/W41wr+e6cFbbCtATz0uwmdyBsIHdkxAqiYwwqWd6sG865BAWQQ+woDJ5sFmmtpAZXlOwnAa5sHC
5JNAyWNJwj3d5MEiR9hAr7A/wgWd6sEzlR1Az1U1wns36MEOo9xAca0rwnIQ+sH2WwpAvuNKwjc5
4cG3cNY/GVtIwjJ87sG247I/24JOwtia7MGPzxJA/TEuwhqg7MFmvke+slY1wtpN68ExSMG9yDwt
wmXp6MH8EQxArU4xwoab3sF3vro/JRQ2wtWGCsJ+g/8/uEs9woEPBcKsSD+/02E6wlS7CsJSC8m+
9xs5wjzs6sE/bhRA

> <OMEGA_E>
mvBAPw==

> <OMEGA_NBR>
     15827

$$$$
CACHE3HI_1691_65
  -OEChem-03092622533D

 42 44  0     1  0  0  0  0  0999 V2000
  -44.0216  -31.4510    0.8246 C   0  0  0  0  0  0  0  0  0  0  0  0
  -46.3921  -31.8308    0.5524 C   0  0  0  0  0  0  0  0  0  0  0  0
  -43.7538  -32.6393    0.1449 C   0  0  0  0  0  0  0  0  0  0  0  0
  -46.1243  -33.0191   -0.1273 C   0  0  0  0  0  0  0  0  0  0  0  0
  -46.1752  -29.1815    4.4937 C   0  0  0  0  0  0  0  0  0  0  0  0
  -44.1630  -29.3959    6.2587 C   0  0  0  0  0  0  0  0  0  0  0  0
  -45.3409  -31.0468    1.0282 C   0  0  0  0  0  0  0  0  0  0  0  0
  -44.8049  -33.4233   -0.3309 C   0  0  0  0  0  0  0  0  0  0  0  0
  -46.3809  -29.1010    5.8557 C   0  0  0  0  0  0  0  0  0  0  0  0
  -44.8685  -29.3794    4.0974 C   0  0  0  0  0  0  0  0  0  0  0  0
  -43.5055  -36.7597   -1.4610 C   0  0  0  0  0  0  0  0  0  0  0  0
  -43.7731  -35.7398   -0.3555 C   0  0  0  0  0  0  0  0  0  0  0  0
  -43.0205  -35.9606   -2.6622 C   0  0  0  0  0  0  0  0  0  0  0  0
  -48.8460  -29.3728    5.5846 C   0  0  0  0  0  0  0  0  0  0  0  0
  -45.6279  -29.7760    1.7544 C   0  0  0  0  0  0  0  0  0  0  0  0
  -45.3941  -29.2043    6.7701 N   0  0  0  0  0  0  0  0  0  0  0  0
  -43.8335  -29.4912    4.9561 N   0  0  0  0  0  0  0  0  0  0  0  0
  -44.5277  -34.6502   -1.0333 N   0  0  2  0  0  0  0  0  0  0  0  0
  -47.7091  -28.8983    6.3042 N   0  0  0  0  0  0  0  0  0  0  0  0
  -44.6199  -29.4661    2.7355 N   0  0  0  0  0  0  0  0  0  0  0  0
  -43.1558  -33.3426   -2.8506 O   0  0  0  0  0  0  0  0  0  0  0  0
  -45.1734  -34.7067   -3.5527 O   0  0  0  0  0  0  0  0  0  0  0  0
  -44.0306  -34.4866   -2.6907 S   0  0  0  0  0  0  0  0  0  0  0  0
  -43.1960  -30.8466    1.1915 H   0  0  0  0  0  0  0  0  0  0  0  0
  -47.4232  -31.5236    0.7069 H   0  0  0  0  0  0  0  0  0  0  0  0
  -42.7225  -32.9457   -0.0091 H   0  0  0  0  0  0  0  0  0  0  0  0
  -46.9506  -33.6231   -0.4931 H   0  0  0  0  0  0  0  0  0  0  0  0
  -46.9876  -29.0950    3.7812 H   0  0  0  0  0  0  0  0  0  0  0  0
  -43.3514  -29.4824    6.9707 H   0  0  0  0  0  0  0  0  0  0  0  0
  -42.7765  -37.5146   -1.1525 H   0  0  0  0  0  0  0  0  0  0  0  0
  -44.4387  -37.2766   -1.7174 H   0  0  0  0  0  0  0  0  0  0  0  0
  -44.3758  -36.1835    0.4427 H   0  0  0  0  0  0  0  0  0  0  0  0
  -42.8337  -35.3618    0.0636 H   0  0  0  0  0  0  0  0  0  0  0  0
  -41.9795  -35.6513   -2.5301 H   0  0  0  0  0  0  0  0  0  0  0  0
  -43.1352  -36.5039   -3.6024 H   0  0  0  0  0  0  0  0  0  0  0  0
  -48.5351  -29.8937    4.6745 H   0  0  0  0  0  0  0  0  0  0  0  0
  -49.4241  -30.0639    6.2045 H   0  0  0  0  0  0  0  0  0  0  0  0
  -49.4930  -28.5362    5.3066 H   0  0  0  0  0  0  0  0  0  0  0  0
  -45.6843  -28.9267    1.0595 H   0  0  0  0  0  0  0  0  0  0  0  0
  -46.5922  -29.8206    2.2791 H   0  0  0  0  0  0  0  0  0  0  0  0
  -47.8201  -28.3986    7.1629 H   0  0  0  0  0  0  0  0  0  0  0  0
  -43.6706  -29.3014    2.4145 H   0  0  0  0  0  0  0  0  0  0  0  0
  1  3  2  0  0  0  0
  1  7  1  0  0  0  0
  2  4  1  0  0  0  0
  2  7  2  0  0  0  0
  3  8  1  0  0  0  0
  4  8  2  0  0  0  0
  5  9  1  0  0  0  0
  5 10  2  0  0  0  0
  6 16  1  0  0  0  0
  6 17  2  0  0  0  0
  7 15  1  0  0  0  0
  8 18  1  0  0  0  0
  9 16  2  0  0  0  0
  9 19  1  0  0  0  0
 10 17  1  0  0  0  0
 10 20  1  0  0  0  0
 11 12  1  0  0  0  0
 11 13  1  0  0  0  0
 12 18  1  0  0  0  0
 13 23  1  0  0  0  0
 14 19  1  0  0  0  0
 15 20  1  0  0  0  0
 18 23  1  0  0  0  0
 21 23  2  0  0  0  0
 22 23  2  0  0  0  0
  1 24  1  0  0  0  0
  2 25  1  0  0  0  0
  3 26  1  0  0  0  0
  4 27  1  0  0  0  0
  5 28  1  0  0  0  0
  6 29  1  0  0  0  0
 11 30  1  0  0  0  0
 11 31  1  0  0  0  0
 12 32  1  0  0  0  0
 12 33  1  0  0  0  0
 13 34  1  0  0  0  0
 13 35  1  0  0  0  0
 14 36  1  0  0  0  0
 14 37  1  0  0  0  0
 14 38  1  0  0  0  0
 15 39  1  0  0  0  0
 15 40  1  0  0  0  0
 19 41  1  0  0  0  0
 20 42  1  0  0  0  0
M  END
> <POSIT::Probability>
0.19

> <POSIT::Method>
FRED

> <ReceptorTitle>
UCSF-P4678-REFINED_LIGAND-BOUND-STATE_A__DU__LA1_A-201(A)

> <OMEGA_C>
IRYwwqeb+8GsGVM/fpE5wpOl/sEcZw0/3gMvwp2OAsLgZRQ+R384wokTBMJgXwK+YrM4wrNz6cFV
zI9A3aYwwr8q68GnR8hAIV01wttf+MF0moM/PDgzwnmxBcKgaKm+E4Y5wvDO6MEvYrtAUXkzwgUJ
68EFHoNApwUuwu4JE8LEAbu/nxcvwpL1DsLgAra+9RQswpvXD8KDYSrAU2JDwnD76sFCtbJAAIM2
wi017sGkjuA/jJM1woCi6cF0pNhAi1Uvwu/t68EemJ5AahwywsSZCsIuRIS/J9Y+wsov58EvvMlA
vnoywou668GwEi9AfZ8swtNeBcIdcDbAkLE0wqjTCsJ4X2PASR8wwlTyCcL7MyzAu8gswunF9sHy
g5g/WbE9wl4w/MGA9zQ/1OMqwmHIA8IAZhS8as07wg5+BsKIe/y+S/M7wpTC6MFU/3FAzGctwv7b
68ELEN9AFxsrwu8OFsIWhJO/PMExwkUbFcJH09u/yoAxwvC7EMIwq+I+slUrwoRyDcIARoI9/eon
wvqaDsJZ7CHAdYoswvQDEsI8jmbA+SNCwl0m78FIlZVATbJFwtOC8MH9isZA2PhFwhlK5MHjz6lA
v7w2wvJp58HOnoc/b146wpiQ7sEE3BFAyUc/wlww48EtNuVApq4uwk1p6sGChxpA

> <OMEGA_E>
+IEcwQ==

> <OMEGA_NBR>
     17159

$$$$
CACHE3HI_1694_33
  -OEChem-03092622533D

 38 40  0     0  0  0  0  0  0999 V2000
  -48.8338  -28.1977    5.9358 C   0  0  0  0  0  0  0  0  0  0  0  0
  -48.7257  -28.4559    4.5772 C   0  0  0  0  0  0  0  0  0  0  0  0
  -47.7332  -28.4015    6.7647 C   0  0  0  0  0  0  0  0  0  0  0  0
  -47.5158  -28.9169    4.0606 C   0  0  0  0  0  0  0  0  0  0  0  0
  -43.7788  -32.6279   -0.1367 C   0  0  0  0  0  0  0  0  0  0  0  0
  -45.1895  -31.1975    1.1858 C   0  0  0  0  0  0  0  0  0  0  0  0
  -44.8859  -33.4347   -0.3471 C   0  0  0  0  0  0  0  0  0  0  0  0
  -46.2335  -32.0678    0.9163 C   0  0  0  0  0  0  0  0  0  0  0  0
  -43.9423  -31.4901    0.6455 C   0  0  0  0  0  0  0  0  0  0  0  0
  -46.5199  -28.8615    6.2583 C   0  0  0  0  0  0  0  0  0  0  0  0
  -46.4092  -29.1239    4.8805 C   0  0  0  0  0  0  0  0  0  0  0  0
  -44.3246  -29.4960    6.5366 C   0  0  0  0  0  0  0  0  0  0  0  0
  -44.2158  -29.7520    5.1953 C   0  0  0  0  0  0  0  0  0  0  0  0
  -42.7709  -30.5771    0.9064 C   0  0  0  0  0  0  0  0  0  0  0  0
  -42.8891  -29.8770    2.2628 C   0  0  0  0  0  0  0  0  0  0  0  0
  -42.9025  -30.8909    3.4058 C   0  0  0  0  0  0  0  0  0  0  0  0
  -46.1131  -33.1826    0.1612 N   0  0  0  0  0  0  0  0  0  0  0  0
  -45.4717  -29.0507    7.0786 N   0  0  0  0  0  0  0  0  0  0  0  0
  -45.2530  -29.5684    4.3578 N   0  0  0  0  0  0  0  0  0  0  0  0
  -43.2130  -29.7001    7.3843 N   0  0  0  0  0  0  0  0  0  0  0  0
  -42.9933  -30.2190    4.6635 N   0  0  0  0  0  0  0  0  0  0  0  0
  -49.7700  -27.8379    6.3510 H   0  0  0  0  0  0  0  0  0  0  0  0
  -49.5765  -28.3021    3.9204 H   0  0  0  0  0  0  0  0  0  0  0  0
  -47.8330  -28.1947    7.8286 H   0  0  0  0  0  0  0  0  0  0  0  0
  -47.4446  -29.1170    2.9934 H   0  0  0  0  0  0  0  0  0  0  0  0
  -42.8187  -32.8840   -0.5720 H   0  0  0  0  0  0  0  0  0  0  0  0
  -45.3485  -30.3177    1.7996 H   0  0  0  0  0  0  0  0  0  0  0  0
  -44.8120  -34.3336   -0.9498 H   0  0  0  0  0  0  0  0  0  0  0  0
  -47.2263  -31.8844    1.3137 H   0  0  0  0  0  0  0  0  0  0  0  0
  -41.8406  -31.1570    0.8599 H   0  0  0  0  0  0  0  0  0  0  0  0
  -42.7031  -29.8342    0.1019 H   0  0  0  0  0  0  0  0  0  0  0  0
  -43.8064  -29.2744    2.2895 H   0  0  0  0  0  0  0  0  0  0  0  0
  -42.0507  -29.1805    2.3950 H   0  0  0  0  0  0  0  0  0  0  0  0
  -43.7522  -31.5733    3.2968 H   0  0  0  0  0  0  0  0  0  0  0  0
  -41.9869  -31.4911    3.3876 H   0  0  0  0  0  0  0  0  0  0  0  0
  -42.3736  -30.0806    6.9999 H   0  0  0  0  0  0  0  0  0  0  0  0
  -43.3206  -29.5605    8.3673 H   0  0  0  0  0  0  0  0  0  0  0  0
  -42.1716  -30.0590    5.2131 H   0  0  0  0  0  0  0  0  0  0  0  0
  1  2  1  0  0  0  0
  1  3  2  0  0  0  0
  2  4  2  0  0  0  0
  3 10  1  0  0  0  0
  4 11  1  0  0  0  0
  5  7  2  0  0  0  0
  5  9  1  0  0  0  0
  6  8  1  0  0  0  0
  6  9  2  0  0  0  0
  7 17  1  0  0  0  0
  8 17  2  0  0  0  0
  9 14  1  0  0  0  0
 10 11  1  0  0  0  0
 10 18  2  0  0  0  0
 11 19  2  0  0  0  0
 12 13  2  0  0  0  0
 12 18  1  0  0  0  0
 12 20  1  0  0  0  0
 13 19  1  0  0  0  0
 13 21  1  0  0  0  0
 14 15  1  0  0  0  0
 15 16  1  0  0  0  0
 16 21  1  0  0  0  0
  1 22  1  0  0  0  0
  2 23  1  0  0  0  0
  3 24  1  0  0  0  0
  4 25  1  0  0  0  0
  5 26  1  0  0  0  0
  6 27  1  0  0  0  0
  7 28  1  0  0  0  0
  8 29  1  0  0  0  0
 14 30  1  0  0  0  0
 14 31  1  0  0  0  0
 15 32  1  0  0  0  0
 15 33  1  0  0  0  0
 16 34  1  0  0  0  0
 16 35  1  0  0  0  0
 20 36  1  0  0  0  0
 20 37  1  0  0  0  0
 21 38  1  0  0  0  0
M  END
> <POSIT::Probability>
0.23

> <POSIT::Method>
HYBRID

> <ReceptorTitle>
UCSF-P4678-REFINED_LIGAND-BOUND-STATE_A__DU__LA1_A-201(A)

> <OMEGA_C>
0FVDwvWU4cHk8b1AK+dCwr6l48EkeJJAwO4+wlI248GyeNhAMhA+wtxV58F28IFAdB0vwvSCAsIA
9Qu+FcI0wpKU+cF4x5c/NIszwha9BcLwu7G+EO84wnFFAMKglGo/3sQvwqbr+8FkQiU/YBQ6wkPk
5sEPRMhA/6I5wq396MEuLZxAXEwxwsX368HQK9FA/twwwgIE7sHiP6ZAXxUrwtad9MGYDGg/fI4r
whwE78H+0BBALpwrwnog98FV+VlA0HM4wva6BMKAESU+AuM1wsJn6MG1g+JAFgM1whSM7MHycotA
Htoswr6Z7cFdTOxAKvkrwm7A8cFxO5VAfhRHwgK03sGAO8tAVE5GwsZq4sF353pAC1U/wtCO4cGM
g/pAOcc9wrfv6MGnlD9AWEYrwiyJA8KUbhK/4GQ1wqyK8sHNWuY/fj8zwqZVCcLIJnO/v+c8wjgT
/8GSJ6g/ylwnwnJB+cEAJFw/BNAqwn6s7sGAyNA9yDkvwvYx6sHPhhJA9zMowqxx6cEIRxlAQQIv
whqW/MH7/VJAmfInwsbt+8GfzVhAiX4pwiul8ME2/99AQkgtwvx77MFq4AVBxK8owtJ48MGk0aZA

> <OMEGA_E>
aHgXwQ==

> <OMEGA_NBR>
     18412

$$$$
CACHE3HI_1694_50
  -OEChem-03092622533D

 31 33  0     0  0  0  0  0  0999 V2000
  -45.3196  -32.3176    1.8633 C   0  0  0  0  0  0  0  0  0  0  0  0
  -44.1851  -31.7886    2.4777 C   0  0  0  0  0  0  0  0  0  0  0  0
  -44.6917  -29.6034    1.5678 C   0  0  0  0  0  0  0  0  0  0  0  0
  -44.1110  -29.3196    6.3773 C   0  0  0  0  0  0  0  0  0  0  0  0
  -46.3773  -29.0293    6.2738 C   0  0  0  0  0  0  0  0  0  0  0  0
  -46.1393  -31.4835    1.0997 C   0  0  0  0  0  0  0  0  0  0  0  0
  -43.8717  -30.4370    2.3309 C   0  0  0  0  0  0  0  0  0  0  0  0
  -45.8334  -30.1177    0.9450 C   0  0  0  0  0  0  0  0  0  0  0  0
  -44.0682  -29.4742    5.0089 C   0  0  0  0  0  0  0  0  0  0  0  0
  -46.3343  -29.1838    4.9052 C   0  0  0  0  0  0  0  0  0  0  0  0
  -48.1825  -31.0821   -0.3607 C   0  0  0  0  0  0  0  0  0  0  0  0
  -47.7844  -29.8076   -0.4300 C   0  0  0  0  0  0  0  0  0  0  0  0
  -47.3550  -32.0289    0.4350 C   0  0  0  0  0  0  0  0  0  0  0  0
  -42.6560  -29.8803    2.9928 C   0  0  0  0  0  0  0  0  0  0  0  0
  -45.2659  -29.0944    7.0344 N   0  0  0  0  0  0  0  0  0  0  0  0
  -45.1795  -29.4092    4.2483 N   0  0  0  0  0  0  0  0  0  0  0  0
  -46.6705  -29.3005    0.1753 N   0  0  0  0  0  0  0  0  0  0  0  0
  -42.8377  -29.7021    4.4105 N   0  0  0  0  0  0  0  0  0  0  0  0
  -47.6696  -33.2081    0.5325 O   0  0  0  0  0  0  0  0  0  0  0  0
  -48.0893  -29.0728    3.7934 I   0  0  0  0  0  0  0  0  0  0  0  0
  -45.5461  -33.3723    1.9899 H   0  0  0  0  0  0  0  0  0  0  0  0
  -43.5484  -32.4391    3.0721 H   0  0  0  0  0  0  0  0  0  0  0  0
  -44.4410  -28.5503    1.4588 H   0  0  0  0  0  0  0  0  0  0  0  0
  -43.2240  -29.3699    6.9986 H   0  0  0  0  0  0  0  0  0  0  0  0
  -47.2964  -28.8483    6.8193 H   0  0  0  0  0  0  0  0  0  0  0  0
  -49.0730  -31.4449   -0.8572 H   0  0  0  0  0  0  0  0  0  0  0  0
  -48.3417  -29.0688   -0.9934 H   0  0  0  0  0  0  0  0  0  0  0  0
  -41.7904  -30.5418    2.8513 H   0  0  0  0  0  0  0  0  0  0  0  0
  -42.3806  -28.9033    2.5727 H   0  0  0  0  0  0  0  0  0  0  0  0
  -46.4549  -28.3194    0.0610 H   0  0  0  0  0  0  0  0  0  0  0  0
  -42.0189  -29.7457    5.0098 H   0  0  0  0  0  0  0  0  0  0  0  0
  1  2  1  0  0  0  0
  1  6  2  0  0  0  0
  2  7  2  0  0  0  0
  3  7  1  0  0  0  0
  3  8  2  0  0  0  0
  4  9  1  0  0  0  0
  4 15  2  0  0  0  0
  5 10  2  0  0  0  0
  5 15  1  0  0  0  0
  6  8  1  0  0  0  0
  6 13  1  0  0  0  0
  7 14  1  0  0  0  0
  8 17  1  0  0  0  0
  9 16  2  0  0  0  0
  9 18  1  0  0  0  0
 10 16  1  0  0  0  0
 10 20  1  0  0  0  0
 11 12  2  0  0  0  0
 11 13  1  0  0  0  0
 12 17  1  0  0  0  0
 13 19  2  0  0  0  0
 14 18  1  0  0  0  0
  1 21  1  0  0  0  0
  2 22  1  0  0  0  0
  3 23  1  0  0  0  0
  4 24  1  0  0  0  0
  5 25  1  0  0  0  0
 11 26  1  0  0  0  0
 12 27  1  0  0  0  0
 14 28  1  0  0  0  0
 14 29  1  0  0  0  0
 17 30  1  0  0  0  0
 18 31  1  0  0  0  0
M  END
> <POSIT::Probability>
0.18

> <POSIT::Method>
FRED

> <ReceptorTitle>
UCSF-P4678-REFINED_LIGAND-BOUND-STATE_A__DU__LA1_A-201(A)

> <OMEGA_C>
Qkc1wkBFAcIFge4/i70wwiZP/sH9kh5AWcQywqrT7MEwrcg/n3EwwpCO6sERE8xAXII5wgw86MHO
wshApY44wkre+8FAxIw/lXwvwg5/88ELLhVAWlU3whfx8MHs7XE/0UUwwhPL68ETSaBAXFY5wnR4
6cGf95xA37pAwgqo+MHkq7i+OiM/wgV27sGRJdy+gms9wqAdAMKMtt4+xZ8qwvEK78HMiT9ATRA1
wlTB6MEUGuFA2bc0wghG68HN8YdAl646wn5n6sEciTM+xFkrwtSd7cFrIo1Aoa0+whjVBMJIVAg/
Z1tAwhuV6MHaxnJANy82wjZ9BcKSs/4/kDEuwqHBAcL0nURAocMxwhpn5MG0ubo/WuUswn/16sFr
9N9AfS89wmfJ5sF7N9pAw0pEwiyP+8EgdFu/5l1BwviM6MESTn6/Uyknwo5V9MHgezZAuIUpwgI6
58EMpyRA1dE5wieO4sFgD3o9YRMowjf37cExUKBA

> <OMEGA_E>
cxQNwQ==

> <OMEGA_NBR>
     19522

$$$$
CACHE3HI_1694_59
  -OEChem-03092622533D

 44 46  0     0  0  0  0  0  0999 V2000
  -44.0579  -31.3817    2.2555 C   0  0  0  0  0  0  0  0  0  0  0  0
  -44.4597  -32.7104    2.1181 C   0  0  0  0  0  0  0  0  0  0  0  0
  -46.2267  -30.6472    1.4846 C   0  0  0  0  0  0  0  0  0  0  0  0
  -44.9415  -30.3501    1.9385 C   0  0  0  0  0  0  0  0  0  0  0  0
  -45.7449  -33.0074    1.6642 C   0  0  0  0  0  0  0  0  0  0  0  0
  -46.6286  -31.9758    1.3472 C   0  0  0  0  0  0  0  0  0  0  0  0
  -47.5543  -29.0303    4.3704 C   0  0  0  0  0  0  0  0  0  0  0  0
  -47.9099  -29.0543    5.6669 C   0  0  0  0  0  0  0  0  0  0  0  0
  -45.2920  -29.1092    4.8231 C   0  0  0  0  0  0  0  0  0  0  0  0
  -45.5966  -29.1350    6.3116 C   0  0  0  0  0  0  0  0  0  0  0  0
  -48.5867  -28.9536    3.2722 C   0  0  0  0  0  0  0  0  0  0  0  0
  -49.3334  -29.0379    6.1485 C   0  0  0  0  0  0  0  0  0  0  0  0
  -49.9807  -28.5584    3.7649 C   0  0  0  0  0  0  0  0  0  0  0  0
  -50.3454  -29.3160    5.0357 C   0  0  0  0  0  0  0  0  0  0  0  0
  -46.1442  -34.4418    1.5298 C   0  0  0  0  0  0  0  0  0  0  0  0
  -44.5066  -28.9131    2.0878 C   0  0  0  0  0  0  0  0  0  0  0  0
  -43.4771  -28.7137    3.1968 C   0  0  0  0  0  0  0  0  0  0  0  0
  -46.2495  -29.0596    3.9396 N   0  0  0  0  0  0  0  0  0  0  0  0
  -46.9344  -29.1057    6.6257 N   0  0  0  0  0  0  0  0  0  0  0  0
  -43.9647  -29.1407    4.4777 N   0  0  0  0  0  0  0  0  0  0  0  0
  -47.9436  -32.2556    0.8836 N   0  3  0  0  0  0  0  0  0  0  0  0
  -48.7061  -31.2988    0.6109 O   0  5  0  0  0  0  0  0  0  0  0  0
  -44.6724  -29.1793    7.1102 O   0  0  0  0  0  0  0  0  0  0  0  0
  -48.3011  -33.4512    0.7613 O   0  0  0  0  0  0  0  0  0  0  0  0
  -43.0549  -31.1599    2.6105 H   0  0  0  0  0  0  0  0  0  0  0  0
  -43.7642  -33.5071    2.3688 H   0  0  0  0  0  0  0  0  0  0  0  0
  -46.9122  -29.8385    1.2393 H   0  0  0  0  0  0  0  0  0  0  0  0
  -48.2697  -28.2301    2.5111 H   0  0  0  0  0  0  0  0  0  0  0  0
  -48.6404  -29.9330    2.7803 H   0  0  0  0  0  0  0  0  0  0  0  0
  -49.4755  -29.7809    6.9427 H   0  0  0  0  0  0  0  0  0  0  0  0
  -49.5408  -28.0542    6.5888 H   0  0  0  0  0  0  0  0  0  0  0  0
  -50.0102  -27.4790    3.9607 H   0  0  0  0  0  0  0  0  0  0  0  0
  -50.7194  -28.7603    2.9813 H   0  0  0  0  0  0  0  0  0  0  0  0
  -50.3723  -30.3925    4.8237 H   0  0  0  0  0  0  0  0  0  0  0  0
  -51.3498  -29.0321    5.3700 H   0  0  0  0  0  0  0  0  0  0  0  0
  -46.5914  -34.8164    2.4583 H   0  0  0  0  0  0  0  0  0  0  0  0
  -45.2750  -35.0750    1.3141 H   0  0  0  0  0  0  0  0  0  0  0  0
  -46.8719  -34.5576    0.7188 H   0  0  0  0  0  0  0  0  0  0  0  0
  -44.1094  -28.5444    1.1333 H   0  0  0  0  0  0  0  0  0  0  0  0
  -45.3926  -28.3022    2.3022 H   0  0  0  0  0  0  0  0  0  0  0  0
  -42.5817  -29.3074    2.9850 H   0  0  0  0  0  0  0  0  0  0  0  0
  -43.1754  -27.6655    3.2899 H   0  0  0  0  0  0  0  0  0  0  0  0
  -47.2137  -29.1226    7.6021 H   0  0  0  0  0  0  0  0  0  0  0  0
  -43.3164  -29.4783    5.1638 H   0  0  0  0  0  0  0  0  0  0  0  0
  1  2  2  0  0  0  0
  1  4  1  0  0  0  0
  2  5  1  0  0  0  0
  3  4  2  0  0  0  0
  3  6  1  0  0  0  0
  4 16  1  0  0  0  0
  5  6  2  0  0  0  0
  5 15  1  0  0  0  0
  6 21  1  0  0  0  0
  7  8  2  0  0  0  0
  7 11  1  0  0  0  0
  7 18  1  0  0  0  0
  8 12  1  0  0  0  0
  8 19  1  0  0  0  0
  9 10  1  0  0  0  0
  9 18  2  0  0  0  0
  9 20  1  0  0  0  0
 10 19  1  0  0  0  0
 10 23  2  0  0  0  0
 11 13  1  0  0  0  0
 12 14  1  0  0  0  0
 13 14  1  0  0  0  0
 16 17  1  0  0  0  0
 17 20  1  0  0  0  0
 21 22  1  0  0  0  0
 21 24  2  0  0  0  0
  1 25  1  0  0  0  0
  2 26  1  0  0  0  0
  3 27  1  0  0  0  0
 11 28  1  0  0  0  0
 11 29  1  0  0  0  0
 12 30  1  0  0  0  0
 12 31  1  0  0  0  0
 13 32  1  0  0  0  0
 13 33  1  0  0  0  0
 14 34  1  0  0  0  0
 14 35  1  0  0  0  0
 15 36  1  0  0  0  0
 15 37  1  0  0  0  0
 15 38  1  0  0  0  0
 16 39  1  0  0  0  0
 16 40  1  0  0  0  0
 17 41  1  0  0  0  0
 17 42  1  0  0  0  0
 19 43  1  0  0  0  0
 20 44  1  0  0  0  0
M  CHG  2  21   1  22  -1
M  END
> <POSIT::Probability>
0.42

> <POSIT::Method>
HYBRID

> <ReceptorTitle>
UCSF-P4678-REFINED_LIGAND-BOUND-STATE_A__DU__LA1_A-201(A)

> <OMEGA_C>
RzswwroN+8HuWRBAyNYxwmnXAsIMjwdAHug4wmQt9cHwBb4/GMQzwgXN8sEgIfg/zvo2wpoHBMLs
AtU/pIM6wl7O/8H4b6w/nDc+wgA+6MFG2otAyKM/wklv6MHjVrVA/io1wo3f6MHpVppA4mI2wnAU
6cHJ+MlA0lhCwhGh58G8a1FAcFVFwqFN6MFnwMRAQuxHwqN35MHg83BApGFJwkCH6sHTJKFAp5M4
wmnECcJo0MM/xAYywg5O58HkngVAgugtwsC15cEWmExAff84whZ66MHUIXxA07w7woTY6MHbBdRA
5Nsvwjkg6cGdSY9AM8Y/wsAFAcJANGI/DdNCwvtj+sHwZhw/krAywkJv6cEHh+NATDRBwv/NBcKA
5EI/MzgswmVH+cH4EidAkw4vwjwHBsLOmhdAH6Y7wjq17sFYoZ4/IBRBwlDX4cFatiBA0I9Cwtd2
78Gm8DFA8+ZFwlI/7sF8Kt5A0SlGwuxu4MHZ19JAfQpIwvDU28EUfH1AruBKwioV5sHgzD5ASH1J
wugj88HPW5pAJ2ZNwsFB6MGz1qtAoV06wgREC8JUVR1AlBk1wsNMDMLINag/0nw7wvg6CsLgAzg/
BHAwwt1a5MGQEJE/EpI1wtRq4sGMVhNAslMqwqh16sHWCT9AqLMswutS3cEAjlJA3do8wib76MGQ
RPNA/UMtwnbT68GrPaVA

> <OMEGA_E>
IVwnwQ==

> <OMEGA_NBR>
     20907

$$$$
CACHE3HI_1695_38
  -OEChem-03092622533D

 40 43  0     0  0  0  0  0  0999 V2000
  -41.6466  -30.1874    2.0391 C   0  0  0  0  0  0  0  0  0  0  0  0
  -42.6803  -29.5948    1.2920 C   0  0  0  0  0  0  0  0  0  0  0  0
  -47.4663  -29.2987    3.8967 C   0  0  0  0  0  0  0  0  0  0  0  0
  -48.8148  -30.8738    2.6564 C   0  0  0  0  0  0  0  0  0  0  0  0
  -48.4713  -29.1967    4.8586 C   0  0  0  0  0  0  0  0  0  0  0  0
  -49.8198  -30.7718    3.6183 C   0  0  0  0  0  0  0  0  0  0  0  0
  -41.7642  -30.3349    3.4234 C   0  0  0  0  0  0  0  0  0  0  0  0
  -47.6381  -30.1375    2.7957 C   0  0  0  0  0  0  0  0  0  0  0  0
  -43.8432  -29.1442    1.9205 C   0  0  0  0  0  0  0  0  0  0  0  0
  -49.6480  -29.9330    4.7194 C   0  0  0  0  0  0  0  0  0  0  0  0
  -42.9224  -29.8811    4.0194 C   0  0  0  0  0  0  0  0  0  0  0  0
  -43.9342  -29.3014    3.2883 C   0  0  0  0  0  0  0  0  0  0  0  0
  -51.9865  -29.4043    5.5155 C   0  0  0  0  0  0  0  0  0  0  0  0
  -44.9097  -28.5330    1.1465 C   0  0  0  0  0  0  0  0  0  0  0  0
  -46.1742  -29.0053    1.0516 C   0  0  0  0  0  0  0  0  0  0  0  0
  -46.5703  -30.2467    1.7735 C   0  0  0  0  0  0  0  0  0  0  0  0
  -50.4390  -30.0813    7.0966 C   0  0  0  0  0  0  0  0  0  0  0  0
  -51.8213  -30.0777    7.6957 C   0  0  0  0  0  0  0  0  0  0  0  0
  -44.5211  -29.3326    5.3710 C   0  0  0  0  0  0  0  0  0  0  0  0
  -50.6745  -29.8282    5.7023 N   0  0  0  0  0  0  0  0  0  0  0  0
  -52.5403  -29.0182    4.4955 O   0  0  0  0  0  0  0  0  0  0  0  0
  -46.0326  -31.3296    1.5694 O   0  0  0  0  0  0  0  0  0  0  0  0
  -43.2132  -29.9398    5.3474 O   0  0  0  0  0  0  0  0  0  0  0  0
  -44.9844  -28.9250    4.0671 O   0  0  0  0  0  0  0  0  0  0  0  0
  -52.6537  -29.4462    6.7177 O   0  0  0  0  0  0  0  0  0  0  0  0
  -40.7489  -30.5326    1.5334 H   0  0  0  0  0  0  0  0  0  0  0  0
  -42.5571  -29.4950    0.2156 H   0  0  0  0  0  0  0  0  0  0  0  0
  -46.5540  -28.7203    4.0164 H   0  0  0  0  0  0  0  0  0  0  0  0
  -48.9598  -31.5303    1.8024 H   0  0  0  0  0  0  0  0  0  0  0  0
  -48.3267  -28.5403    5.7130 H   0  0  0  0  0  0  0  0  0  0  0  0
  -50.7326  -31.3499    3.4989 H   0  0  0  0  0  0  0  0  0  0  0  0
  -40.9695  -30.7907    4.0029 H   0  0  0  0  0  0  0  0  0  0  0  0
  -44.6441  -27.6266    0.5901 H   0  0  0  0  0  0  0  0  0  0  0  0
  -46.9256  -28.4811    0.4736 H   0  0  0  0  0  0  0  0  0  0  0  0
  -49.8291  -29.2640    7.4984 H   0  0  0  0  0  0  0  0  0  0  0  0
  -49.9159  -31.0305    7.2495 H   0  0  0  0  0  0  0  0  0  0  0  0
  -52.1997  -31.0901    7.8684 H   0  0  0  0  0  0  0  0  0  0  0  0
  -51.8656  -29.5112    8.6301 H   0  0  0  0  0  0  0  0  0  0  0  0
  -45.2352  -30.0516    5.7887 H   0  0  0  0  0  0  0  0  0  0  0  0
  -44.4867  -28.4513    6.0218 H   0  0  0  0  0  0  0  0  0  0  0  0
  1  2  1  0  0  0  0
  1  7  2  0  0  0  0
  2  9  2  0  0  0  0
  3  5  2  0  0  0  0
  3  8  1  0  0  0  0
  4  6  1  0  0  0  0
  4  8  2  0  0  0  0
  5 10  1  0  0  0  0
  6 10  2  0  0  0  0
  7 11  1  0  0  0  0
  8 16  1  0  0  0  0
  9 12  1  0  0  0  0
  9 14  1  0  0  0  0
 10 20  1  0  0  0  0
 11 12  2  0  0  0  0
 11 23  1  0  0  0  0
 12 24  1  0  0  0  0
 13 20  1  0  0  0  0
 13 21  2  0  0  0  0
 13 25  1  0  0  0  0
 14 15  2  0  0  0  0
 15 16  1  0  0  0  0
 16 22  2  0  0  0  0
 17 18  1  0  0  0  0
 17 20  1  0  0  0  0
 18 25  1  0  0  0  0
 19 23  1  0  0  0  0
 19 24  1  0  0  0  0
  1 26  1  0  0  0  0
  2 27  1  0  0  0  0
  3 28  1  0  0  0  0
  4 29  1  0  0  0  0
  5 30  1  0  0  0  0
  6 31  1  0  0  0  0
  7 32  1  0  0  0  0
 14 33  1  0  0  0  0
 15 34  1  0  0  0  0
 17 35  1  0  0  0  0
 17 36  1  0  0  0  0
 18 37  1  0  0  0  0
 18 38  1  0  0  0  0
 19 39  1  0  0  0  0
 19 40  1  0  0  0  0
M  END
> <POSIT::Probability>
0.24

> <POSIT::Method>
FRED

> <ReceptorTitle>
UCSF-P4678-REFINED_LIGAND-BOUND-STATE_A__DU__LA1_A-201(A)

> <OMEGA_C>
IpYmwrZ/8cG6gAJAnrgqwi3C7MFAX6U/hN09wrBj6sEEZHlAWUJDwnL99sEmAypApuJBwsGS6cHf
eZtAdkdHwpEs9sH8kWdAkA4nwtmt8sEsGVtAd40+woIZ8cEE7DJAd18vwkMn6cHY0/U/iJdGwrJ2
78FwBZdAlbArwn4M78H/noBAnLwvwjdp6sEgc1JAOfJPwv4768GyfrBAj6MzwpBD5MEIwJI/ZLI4
wuwK6MEYmoY/Akg6wi/58cFsAOM/ksFJwm2m8MGoF+NAAklPwiif8MEgQ/ZAkBUywiKp6sHx3qtA
vLJKwiOg7sE5ebZASClSwj4l6MH92o9AXCE4wgWj+sFE48g/TNoswsuE78EcHqtA/O8zwmhm58Fh
JYJAYp1SwuGR68Ej99ZA2/4iwq5C9MHIRsQ/gDoqwrb168FgzVw+RTc6wivD5cFkhoBAzdZDwvU9
/MH8tOY/g05BwnFS5MHj0LZAL+5KwojM+sHI7l9Ay+AjwkZT9sGIF4BAhJMywlID3cEAERc/1LM7
wjnZ48FAe/I+BlFHwrkc6sEm8+9A1qlHwng++MEO/OdAeMxQwqC4+MHqyftAY3ZPwtsW7MH7FApB
z/A0wrVp8MHzPLlAYfIxwjmc48E5ssBA

> <OMEGA_E>
dpEAwQ==

> <OMEGA_NBR>
     22199

$$$$
CACHE3HI_1695_57
  -OEChem-03092622533D

 46 48  0     0  0  0  0  0  0999 V2000
  -47.4830  -28.2481    5.0968 C   0  0  0  0  0  0  0  0  0  0  0  0
  -47.3655  -28.4965    3.7293 C   0  0  0  0  0  0  0  0  0  0  0  0
  -48.6309  -28.6470    5.7814 C   0  0  0  0  0  0  0  0  0  0  0  0
  -49.5433  -29.5430    3.7312 C   0  0  0  0  0  0  0  0  0  0  0  0
  -46.4454  -33.2054    1.8801 C   0  0  0  0  0  0  0  0  0  0  0  0
  -48.3954  -29.1440    3.0466 C   0  0  0  0  0  0  0  0  0  0  0  0
  -49.6608  -29.2945    5.0987 C   0  0  0  0  0  0  0  0  0  0  0  0
  -46.9299  -32.0100    1.3918 C   0  0  0  0  0  0  0  0  0  0  0  0
  -44.8541  -31.4023    1.7519 C   0  0  0  0  0  0  0  0  0  0  0  0
  -52.1259  -29.8107    5.2960 C   0  0  0  0  0  0  0  0  0  0  0  0
  -48.3183  -31.7827    0.9559 C   0  0  0  0  0  0  0  0  0  0  0  0
  -48.9603  -30.6081    1.0456 C   0  0  0  0  0  0  0  0  0  0  0  0
  -48.2720  -29.4024    1.6208 C   0  0  0  0  0  0  0  0  0  0  0  0
  -42.6571  -30.9513    2.8385 C   0  0  0  0  0  0  0  0  0  0  0  0
  -50.8344  -29.9814    7.2081 C   0  0  0  0  0  0  0  0  0  0  0  0
  -52.1950  -30.5818    7.4489 C   0  0  0  0  0  0  0  0  0  0  0  0
  -41.2055  -30.7849    2.4524 C   0  0  0  0  0  0  0  0  0  0  0  0
  -43.8325  -28.2775    1.2875 C   0  0  0  0  0  0  0  0  0  0  0  0
  -43.3737  -29.6442    0.8090 C   0  0  0  0  0  0  0  0  0  0  0  0
  -46.0186  -30.9749    1.3176 N   0  0  0  0  0  0  0  0  0  0  0  0
  -50.8332  -29.7015    5.7991 N   0  0  0  0  0  0  0  0  0  0  0  0
  -43.6840  -30.6961    1.8445 N   0  0  0  0  0  0  0  0  0  0  0  0
  -52.5446  -29.5721    4.1718 O   0  0  0  0  0  0  0  0  0  0  0  0
  -47.6340  -28.6317    0.8878 O   0  0  0  0  0  0  0  0  0  0  0  0
  -42.9088  -31.3272    3.9867 O   0  0  0  0  0  0  0  0  0  0  0  0
  -52.9695  -30.2328    6.2972 O   0  0  0  0  0  0  0  0  0  0  0  0
  -44.7825  -33.0384    2.2635 S   0  0  0  0  0  0  0  0  0  0  0  0
  -46.6813  -27.7443    5.6287 H   0  0  0  0  0  0  0  0  0  0  0  0
  -46.4666  -28.1811    3.2057 H   0  0  0  0  0  0  0  0  0  0  0  0
  -48.7122  -28.4484    6.8471 H   0  0  0  0  0  0  0  0  0  0  0  0
  -50.3467  -30.0478    3.1987 H   0  0  0  0  0  0  0  0  0  0  0  0
  -46.9642  -34.1430    2.0255 H   0  0  0  0  0  0  0  0  0  0  0  0
  -48.8260  -32.6566    0.5546 H   0  0  0  0  0  0  0  0  0  0  0  0
  -49.9761  -30.4839    0.6902 H   0  0  0  0  0  0  0  0  0  0  0  0
  -50.7156  -29.0354    7.7489 H   0  0  0  0  0  0  0  0  0  0  0  0
  -50.0200  -30.6589    7.4835 H   0  0  0  0  0  0  0  0  0  0  0  0
  -52.1582  -31.6733    7.5216 H   0  0  0  0  0  0  0  0  0  0  0  0
  -52.6735  -30.1760    8.3446 H   0  0  0  0  0  0  0  0  0  0  0  0
  -40.8742  -29.7606    2.6438 H   0  0  0  0  0  0  0  0  0  0  0  0
  -41.0891  -30.9829    1.3821 H   0  0  0  0  0  0  0  0  0  0  0  0
  -40.5843  -31.5028    2.9944 H   0  0  0  0  0  0  0  0  0  0  0  0
  -43.3289  -28.0176    2.2239 H   0  0  0  0  0  0  0  0  0  0  0  0
  -44.9123  -28.2620    1.4703 H   0  0  0  0  0  0  0  0  0  0  0  0
  -43.5983  -27.5009    0.5514 H   0  0  0  0  0  0  0  0  0  0  0  0
  -43.8815  -29.8969   -0.1275 H   0  0  0  0  0  0  0  0  0  0  0  0
  -42.2967  -29.6272    0.6125 H   0  0  0  0  0  0  0  0  0  0  0  0
  1  2  2  0  0  0  0
  1  3  1  0  0  0  0
  2  6  1  0  0  0  0
  3  7  2  0  0  0  0
  4  6  2  0  0  0  0
  4  7  1  0  0  0  0
  5  8  2  0  0  0  0
  5 27  1  0  0  0  0
  6 13  1  0  0  0  0
  7 21  1  0  0  0  0
  8 11  1  0  0  0  0
  8 20  1  0  0  0  0
  9 20  2  0  0  0  0
  9 22  1  0  0  0  0
  9 27  1  0  0  0  0
 10 21  1  0  0  0  0
 10 23  2  0  0  0  0
 10 26  1  0  0  0  0
 11 12  2  0  0  0  0
 12 13  1  0  0  0  0
 13 24  2  0  0  0  0
 14 17  1  0  0  0  0
 14 22  1  0  0  0  0
 14 25  2  0  0  0  0
 15 16  1  0  0  0  0
 15 21  1  0  0  0  0
 16 26  1  0  0  0  0
 18 19  1  0  0  0  0
 19 22  1  0  0  0  0
  1 28  1  0  0  0  0
  2 29  1  0  0  0  0
  3 30  1  0  0  0  0
  4 31  1  0  0  0  0
  5 32  1  0  0  0  0
 11 33  1  0  0  0  0
 12 34  1  0  0  0  0
 15 35  1  0  0  0  0
 15 36  1  0  0  0  0
 16 37  1  0  0  0  0
 16 38  1  0  0  0  0
 17 39  1  0  0  0  0
 17 40  1  0  0  0  0
 17 41  1  0  0  0  0
 18 42  1  0  0  0  0
 18 43  1  0  0  0  0
 18 44  1  0  0  0  0
 19 45  1  0  0  0  0
 19 46  1  0  0  0  0
M  END
> <POSIT::Probability>
0.24

> <POSIT::Method>
FRED

> <ReceptorTitle>
UCSF-P4678-REFINED_LIGAND-BOUND-STATE_A__DU__LA1_A-201(A)

> <OMEGA_C>
o+49whP84cEwGaNAT3Y9wuz448GYrG5ACYZCwiAt5cGcAblAWixGwv5X7MFgzG5AI8g5wlDSBMJo
pvA/6pRBwu8m6cG4+kJAo6RGwiJb6sGsKKNANrg7wkcKAMIAJ7I/lWozwvQ3+8FgP+A/6IBQwkB8
7sEVealA8EVBwvdC/sFgtnQ/XtdDwnLd9MHY1YU/kBZBwgc468HgdM8/5aAqwlCc98FMqTVAdVZL
wt/Z78ElqeZAocdQwpyn9MEsXe5Ab9IkwmBH9sHQ8xxAe1Qvwj844sHwzaQ/rn4twkYn7cFgF08/
EhM4wn/M98FAp6g/O1VLwryc7cFYkrlAbbwuwrWR9cHYF+w/pi1SwsOT7MFgf4VAMok+wq0N5cHw
Q2M/nqIrwhme+sGwJn9AxOBTwrPc8cFwgslATiEzwkYnBML43BBAp7k6wk703cGHHrRAz905wvZy
4cEgKk1AQ9lCwk2W48EKG9tAA2NJwvxh8MHUt0xAYNs7wnGSCMLIoQFA3k1DwlGgAsIQ+g0/gedH
wgvf88HgrjA/ydxKwpFI6MHa9vdAdBRIwmRF9cHpeO9A+aFQwgJj/cEVsfBAtLFSwmNo8cF6gwVB
JH8jwrMV7sGANClARVskwufc98Hw6LA/WlYiwq0F/MGUoz9Av1AtwhMk4MEwVQ5AKaYzwqkY4sFg
Mbw/nGQuwuYB3MGgJw0/roYvws4s78HAjQK+1y8pwn0E7cHgzBw/

> <OMEGA_E>
uE4DwQ==

> <OMEGA_NBR>
     23608

$$$$
CACHE3HI_1695_91
  -OEChem-03092622533D

 46 48  0     0  0  0  0  0  0999 V2000
  -45.4945  -28.7019    3.4403 C   0  0  0  0  0  0  0  0  0  0  0  0
  -44.0935  -32.0914    1.7860 C   0  0  0  0  0  0  0  0  0  0  0  0
  -44.8191  -31.5819    2.8617 C   0  0  0  0  0  0  0  0  0  0  0  0
  -44.7575  -32.5362    0.6428 C   0  0  0  0  0  0  0  0  0  0  0  0
  -46.2113  -31.5154    2.7979 C   0  0  0  0  0  0  0  0  0  0  0  0
  -45.5137  -29.0198    4.8273 C   0  0  0  0  0  0  0  0  0  0  0  0
  -46.1593  -32.4737    0.5681 C   0  0  0  0  0  0  0  0  0  0  0  0
  -46.8894  -31.9609    1.6505 C   0  0  0  0  0  0  0  0  0  0  0  0
  -46.8776  -32.9011   -0.5433 C   0  0  0  0  0  0  0  0  0  0  0  0
  -46.6145  -28.9844    5.6483 C   0  0  0  0  0  0  0  0  0  0  0  0
  -44.4619  -29.4308    5.6680 C   0  0  0  0  0  0  0  0  0  0  0  0
  -48.2740  -31.9206    1.5268 C   0  0  0  0  0  0  0  0  0  0  0  0
  -46.2008  -33.4642   -1.7499 C   0  0  0  0  0  0  0  0  0  0  0  0
  -48.0579  -28.6304    5.3985 C   0  0  0  0  0  0  0  0  0  0  0  0
  -48.8050  -29.7662    4.6941 C   0  0  0  0  0  0  0  0  0  0  0  0
  -50.2593  -29.3831    4.4138 C   0  0  0  0  0  0  0  0  0  0  0  0
  -51.0174  -30.5337    3.7448 C   0  0  0  0  0  0  0  0  0  0  0  0
  -50.3937  -30.9527    2.4177 C   0  0  0  0  0  0  0  0  0  0  0  0
  -45.4787  -28.4426    2.3092 N   0  0  0  0  0  0  0  0  0  0  0  0
  -48.2247  -32.8439   -0.6218 N   0  0  0  0  0  0  0  0  0  0  0  0
  -48.9316  -32.3471    0.4274 N   0  0  0  0  0  0  0  0  0  0  0  0
  -44.8588  -29.6410    6.9258 N   0  0  0  0  0  0  0  0  0  0  0  0
  -46.1725  -29.3613    6.8822 N   0  0  0  0  0  0  0  0  0  0  0  0
  -43.1908  -29.5856    5.2107 N   0  0  0  0  0  0  0  0  0  0  0  0
  -49.0448  -31.4225    2.5698 N   0  0  0  0  0  0  0  0  0  0  0  0
  -43.0098  -32.1421    1.8385 H   0  0  0  0  0  0  0  0  0  0  0  0
  -44.2999  -31.2364    3.7510 H   0  0  0  0  0  0  0  0  0  0  0  0
  -44.1621  -32.9278   -0.1782 H   0  0  0  0  0  0  0  0  0  0  0  0
  -46.7438  -31.1113    3.6553 H   0  0  0  0  0  0  0  0  0  0  0  0
  -46.0848  -34.5521   -1.6682 H   0  0  0  0  0  0  0  0  0  0  0  0
  -45.1947  -33.0437   -1.8721 H   0  0  0  0  0  0  0  0  0  0  0  0
  -46.7842  -33.2418   -2.6509 H   0  0  0  0  0  0  0  0  0  0  0  0
  -48.1089  -27.7140    4.7969 H   0  0  0  0  0  0  0  0  0  0  0  0
  -48.5455  -28.3916    6.3516 H   0  0  0  0  0  0  0  0  0  0  0  0
  -48.7771  -30.6708    5.3140 H   0  0  0  0  0  0  0  0  0  0  0  0
  -48.3023  -30.0142    3.7508 H   0  0  0  0  0  0  0  0  0  0  0  0
  -50.2829  -28.4953    3.7702 H   0  0  0  0  0  0  0  0  0  0  0  0
  -50.7559  -29.1150    5.3544 H   0  0  0  0  0  0  0  0  0  0  0  0
  -52.0528  -30.2220    3.5603 H   0  0  0  0  0  0  0  0  0  0  0  0
  -51.0546  -31.3937    4.4250 H   0  0  0  0  0  0  0  0  0  0  0  0
  -50.3816  -30.1229    1.7050 H   0  0  0  0  0  0  0  0  0  0  0  0
  -50.9691  -31.7720    1.9759 H   0  0  0  0  0  0  0  0  0  0  0  0
  -46.7089  -29.4494    7.7365 H   0  0  0  0  0  0  0  0  0  0  0  0
  -42.9564  -29.4599    4.2204 H   0  0  0  0  0  0  0  0  0  0  0  0
  -42.4403  -29.9359    5.8154 H   0  0  0  0  0  0  0  0  0  0  0  0
  -48.6215  -31.3910    3.4945 H   0  0  0  0  0  0  0  0  0  0  0  0
  1  6  1  0  0  0  0
  1 19  3  0  0  0  0
  2  3  1  0  0  0  0
  2  4  2  0  0  0  0
  3  5  2  0  0  0  0
  4  7  1  0  0  0  0
  5  8  1  0  0  0  0
  6 10  2  0  0  0  0
  6 11  1  0  0  0  0
  7  8  2  0  0  0  0
  7  9  1  0  0  0  0
  8 12  1  0  0  0  0
  9 13  1  0  0  0  0
  9 20  2  0  0  0  0
 10 14  1  0  0  0  0
 10 23  1  0  0  0  0
 11 22  2  0  0  0  0
 11 24  1  0  0  0  0
 12 21  2  0  0  0  0
 12 25  1  0  0  0  0
 14 15  1  0  0  0  0
 15 16  1  0  0  0  0
 16 17  1  0  0  0  0
 17 18  1  0  0  0  0
 18 25  1  0  0  0  0
 20 21  1  0  0  0  0
 22 23  1  0  0  0  0
  2 26  1  0  0  0  0
  3 27  1  0  0  0  0
  4 28  1  0  0  0  0
  5 29  1  0  0  0  0
 13 30  1  0  0  0  0
 13 31  1  0  0  0  0
 13 32  1  0  0  0  0
 14 33  1  0  0  0  0
 14 34  1  0  0  0  0
 15 35  1  0  0  0  0
 15 36  1  0  0  0  0
 16 37  1  0  0  0  0
 16 38  1  0  0  0  0
 17 39  1  0  0  0  0
 17 40  1  0  0  0  0
 18 41  1  0  0  0  0
 18 42  1  0  0  0  0
 23 43  1  0  0  0  0
 24 44  1  0  0  0  0
 24 45  1  0  0  0  0
 25 46  1  0  0  0  0
M  END
> <POSIT::Probability>
0.18

> <POSIT::Method>
HYBRID

> <ReceptorTitle>
UCSF-P4678-REFINED_LIGAND-BOUND-STATE_A__DU__LA1_A-201(A)

> <OMEGA_C>
V/o1woyd5cFoLVxAtl8wwphdAMIOmuQ/yUYzwryn/MFIJTdAsAczwhIlAsI4jCQ/ZNg4wpof/MF7
EDNA+w02wowo6MGjeZpAK6M4wgvlAcLIcRE/vI47wgaw/8FGQ9M/q4I7wsKaA8KQEgu/R3U6wiXg
58F8vrRA8tgxwi5y68F+YLVAmBhBwnJd/8FsbcM/m804wl3bBcIc/N+/VDtAwg8L5cEqwKxAVzhD
wjIh7sG2NZZAjQlJwqAQ68HmPY1A3hFMwvdE9MFTqm9AMpNJwg6f98HcuxpALuo1woCK48GAyRNA
FuZAwjBgA8KAMB+/9blDwnNjAcKg19o+am8zwrsg7cF1oN1AorA4wgLk6sFWO9xAYMMswkKv7MFF
vqZA3S1Ewjxh+8EXeCRAAwoswoSRAMKEVOs/IDMxwiTk+cESEXBA+aUwwh22A8IAfza+ovk6wvXj
+MGu72lA2lY4wlY1CsI0idW/aMc0wrksBMLUn++/DSM7wpT3BMKipynAhW9Awkq23cGMgJlAji5C
whgi48ERQMtAtBtDwshd9cGYDKpAijVBwvwc8MF2DHBArSFJwnL248EHS3FAEQZLwnTr6MHdVqtA
HTZQwpzG8cGI3GNA9jdMwl4m+8FWmY1Au4ZJwrj78MHSO9o/Y+BLwgQt/sHi6Pw/7NU6wl6Y68Fh
kfdAZdMrwtSt68E1DYdA3sIpwsB878F7F7pAd3xCwtgg+8EDpl9A

> <OMEGA_E>
wET+wA==

> <OMEGA_NBR>
     25023

$$$$
CACHE3HI_1697_16
  -OEChem-03092622533D

 53 57  0     0  0  0  0  0  0999 V2000
  -41.5628  -30.3300    2.5767 C   0  0  0  0  0  0  0  0  0  0  0  0
  -41.9190  -30.6641    1.2701 C   0  0  0  0  0  0  0  0  0  0  0  0
  -42.5120  -29.7814    3.4391 C   0  0  0  0  0  0  0  0  0  0  0  0
  -43.2240  -30.4501    0.8260 C   0  0  0  0  0  0  0  0  0  0  0  0
  -43.8170  -29.5674    2.9950 C   0  0  0  0  0  0  0  0  0  0  0  0
  -50.2462  -28.9919    5.6900 C   0  0  0  0  0  0  0  0  0  0  0  0
  -48.8877  -29.1395    5.9702 C   0  0  0  0  0  0  0  0  0  0  0  0
  -45.3214  -34.8741    0.2056 C   0  0  0  0  0  0  0  0  0  0  0  0
  -49.7246  -28.6252    3.3596 C   0  0  0  0  0  0  0  0  0  0  0  0
  -46.0019  -35.7243   -0.6428 C   0  0  0  0  0  0  0  0  0  0  0  0
  -48.3662  -28.7728    3.6397 C   0  0  0  0  0  0  0  0  0  0  0  0
  -44.1731  -29.9015    1.6884 C   0  0  0  0  0  0  0  0  0  0  0  0
  -50.6645  -28.7345    4.3845 C   0  0  0  0  0  0  0  0  0  0  0  0
  -46.1955  -33.9166    0.7735 C   0  0  0  0  0  0  0  0  0  0  0  0
  -47.9478  -29.0301    4.9452 C   0  0  0  0  0  0  0  0  0  0  0  0
  -47.4937  -34.0574    0.3536 C   0  0  0  0  0  0  0  0  0  0  0  0
  -48.5827  -33.2050    0.7851 C   0  0  0  0  0  0  0  0  0  0  0  0
  -46.9334  -32.1273    2.0489 C   0  0  0  0  0  0  0  0  0  0  0  0
  -52.6397  -28.3258    2.8635 C   0  0  0  0  0  0  0  0  0  0  0  0
  -47.3777  -28.6573    2.5560 C   0  0  0  0  0  0  0  0  0  0  0  0
  -53.0591  -28.5949    5.1229 C   0  0  0  0  0  0  0  0  0  0  0  0
  -54.3512  -28.6373    4.3494 C   0  0  0  0  0  0  0  0  0  0  0  0
  -45.5781  -29.6709    1.2107 C   0  0  0  0  0  0  0  0  0  0  0  0
  -46.5826  -31.0220    3.0178 C   0  0  0  0  0  0  0  0  0  0  0  0
  -48.1840  -32.2163    1.6780 N   0  0  0  0  0  0  0  0  0  0  0  0
  -45.8800  -32.9344    1.6424 N   0  0  0  0  0  0  0  0  0  0  0  0
  -52.0523  -28.5832    4.0983 N   0  0  0  0  0  0  0  0  0  0  0  0
  -46.5550  -29.7809    2.3025 N   0  0  0  0  0  0  0  0  0  0  0  0
  -49.7430  -33.3313    0.4082 O   0  0  0  0  0  0  0  0  0  0  0  0
  -52.1127  -28.1576    1.7726 O   0  0  0  0  0  0  0  0  0  0  0  0
  -47.3577  -27.5876    1.9491 O   0  0  0  0  0  0  0  0  0  0  0  0
  -54.0046  -28.2492    3.0162 O   0  0  0  0  0  0  0  0  0  0  0  0
  -46.6450  -29.1734    5.2261 F   0  0  0  0  0  0  0  0  0  0  0  0
  -47.6781  -35.3485   -0.7346 S   0  0  0  0  0  0  0  0  0  0  0  0
  -40.5469  -30.4965    2.9225 H   0  0  0  0  0  0  0  0  0  0  0  0
  -41.1801  -31.0916    0.5986 H   0  0  0  0  0  0  0  0  0  0  0  0
  -42.2348  -29.5210    4.4564 H   0  0  0  0  0  0  0  0  0  0  0  0
  -43.4921  -30.7135   -0.1938 H   0  0  0  0  0  0  0  0  0  0  0  0
  -44.5498  -29.1405    3.6746 H   0  0  0  0  0  0  0  0  0  0  0  0
  -50.9696  -29.0788    6.4969 H   0  0  0  0  0  0  0  0  0  0  0  0
  -48.5613  -29.3394    6.9865 H   0  0  0  0  0  0  0  0  0  0  0  0
  -44.2586  -34.9479    0.3968 H   0  0  0  0  0  0  0  0  0  0  0  0
  -50.0508  -28.4246    2.3411 H   0  0  0  0  0  0  0  0  0  0  0  0
  -45.5992  -36.5486   -1.2144 H   0  0  0  0  0  0  0  0  0  0  0  0
  -52.9729  -27.6691    5.7032 H   0  0  0  0  0  0  0  0  0  0  0  0
  -52.9404  -29.4526    5.7925 H   0  0  0  0  0  0  0  0  0  0  0  0
  -54.7796  -29.6439    4.3150 H   0  0  0  0  0  0  0  0  0  0  0  0
  -55.0949  -27.9415    4.7481 H   0  0  0  0  0  0  0  0  0  0  0  0
  -45.6767  -28.6739    0.7688 H   0  0  0  0  0  0  0  0  0  0  0  0
  -45.8550  -30.3973    0.4396 H   0  0  0  0  0  0  0  0  0  0  0  0
  -47.3319  -31.0019    3.8032 H   0  0  0  0  0  0  0  0  0  0  0  0
  -45.6101  -31.2317    3.4519 H   0  0  0  0  0  0  0  0  0  0  0  0
  -44.9396  -32.7758    1.9913 H   0  0  0  0  0  0  0  0  0  0  0  0
  1  2  1  0  0  0  0
  1  3  2  0  0  0  0
  2  4  2  0  0  0  0
  3  5  1  0  0  0  0
  4 12  1  0  0  0  0
  5 12  2  0  0  0  0
  6  7  2  0  0  0  0
  6 13  1  0  0  0  0
  7 15  1  0  0  0  0
  8 10  2  0  0  0  0
  8 14  1  0  0  0  0
  9 11  1  0  0  0  0
  9 13  2  0  0  0  0
 10 34  1  0  0  0  0
 11 15  2  0  0  0  0
 11 20  1  0  0  0  0
 12 23  1  0  0  0  0
 13 27  1  0  0  0  0
 14 16  2  0  0  0  0
 14 26  1  0  0  0  0
 15 33  1  0  0  0  0
 16 17  1  0  0  0  0
 16 34  1  0  0  0  0
 17 25  1  0  0  0  0
 17 29  2  0  0  0  0
 18 24  1  0  0  0  0
 18 25  2  0  0  0  0
 18 26  1  0  0  0  0
 19 27  1  0  0  0  0
 19 30  2  0  0  0  0
 19 32  1  0  0  0  0
 20 28  1  0  0  0  0
 20 31  2  0  0  0  0
 21 22  1  0  0  0  0
 21 27  1  0  0  0  0
 22 32  1  0  0  0  0
 23 28  1  0  0  0  0
 24 28  1  0  0  0  0
  1 35  1  0  0  0  0
  2 36  1  0  0  0  0
  3 37  1  0  0  0  0
  4 38  1  0  0  0  0
  5 39  1  0  0  0  0
  6 40  1  0  0  0  0
  7 41  1  0  0  0  0
  8 42  1  0  0  0  0
  9 43  1  0  0  0  0
 10 44  1  0  0  0  0
 21 45  1  0  0  0  0
 21 46  1  0  0  0  0
 22 47  1  0  0  0  0
 22 48  1  0  0  0  0
 23 49  1  0  0  0  0
 23 50  1  0  0  0  0
 24 51  1  0  0  0  0
 24 52  1  0  0  0  0
 26 53  1  0  0  0  0
M  END
> <POSIT::Probability>
0.24

> <POSIT::Method>
FRED

> <ReceptorTitle>
UCSF-P4678-REFINED_LIGAND-BOUND-STATE_A__DU__LA1_A-201(A)

> <OMEGA_C>
VEAmwsKj8sHf6CRACa0nwhdQ9cEUk6I/RAwqwmZA7sHiGVxAVuUswsiZ88EwdlM/kUQvwheK7MHk
rT9AEfxIwlvv58GKFLZAAI1DwrUd6cGcC79AFkk1wgl/C8IIhVI+9+VGwlQA5cHkAldA/AE4wq7l
DsIgkCS/8XZBwqgu5sFT8GhAS7Ewwl8278HXHtg/bahKwlbg5cE0ToxAOcg4wpeqB8LWBUY/ico/
wrM96MHaPp5Alvk9wsQ6CMI4ELU+tFRCwuzRBMI8+kg/1rs7wmKCAMLrIQNACY9SwiWb4sHCQzdA
z4I9wjhC5cGElSNAijxUwlPC5MHD7qNAnmdZwi4Z5cFgLotAA1A2wgte7cHo+Jo/jFQ6wiQt+MEd
JEFAcLxAwnPdAMIZytY/KYU3wt28A8JGOdI/jDVQwmCq5MEOJYNATTg6wmA/7sEgXBNA0/hGwjlT
BcKYBdE+aXNQwshC4cES5OI/VW49wnCz3MHLe/k/swRYwmz+4cFMCUFAhZQ6wjNj6cGMPKdAXrY+
wtpkDcI8DDy/BTAiwtr488EaCjtAcbgkwpW7+MHIPxk/ePAowgwr7MGAmo5A5vctwju19cEAaEa+
8zIywrsf6cFULGtA4eBLwluh6MFa5s9A0T5CwiS36sFqkd9AwggxwrLKC8JkJss+/DNIwpVl48Hm
0xVAiGU2wr4xEsImcJu/TeRTwkpa3cHxgLZA9sJTwuee68FyXLlAWx5bwrkm7cGgFIpAKGFcwjqI
38EU8JdA6bQ2whZk5cH2zUQ/eWs3wsMt88FMDeE+01M9ws0D+MHqZnNAwXA2wora+cGG7FxAHMIz
wm0aA8J44/4/

> <OMEGA_E>
+CDmwA==

> <OMEGA_NBR>
     26580

$$$$
CACHE3HI_1700_1
  -OEChem-03092622533D

 41 44  0     1  0  0  0  0  0999 V2000
  -45.3353  -31.9226    0.5082 C   0  0  0  0  0  0  0  0  0  0  0  0
  -45.8901  -33.1723    0.6070 C   0  0  0  0  0  0  0  0  0  0  0  0
  -44.3756  -33.0115    2.2538 C   0  0  0  0  0  0  0  0  0  0  0  0
  -43.9508  -29.3270    6.0641 C   0  0  0  0  0  0  0  0  0  0  0  0
  -44.3544  -31.8152    1.5833 C   0  0  0  0  0  0  0  0  0  0  0  0
  -46.2808  -29.2098    4.7081 C   0  0  0  0  0  0  0  0  0  0  0  0
  -46.2905  -29.2870    6.1051 C   0  0  0  0  0  0  0  0  0  0  0  0
  -45.0800  -29.2056    4.0210 C   0  0  0  0  0  0  0  0  0  0  0  0
  -48.4937  -28.9457    5.6833 C   0  0  0  0  0  0  0  0  0  0  0  0
  -50.5586  -29.5285    6.8669 C   0  0  0  0  0  0  0  0  0  0  0  0
  -50.6573  -28.1208    4.8097 C   0  0  0  0  0  0  0  0  0  0  0  0
  -51.1291  -30.6968    6.0312 C   0  0  0  0  0  0  0  0  0  0  0  0
  -51.2320  -29.3073    4.0146 C   0  0  0  0  0  0  0  0  0  0  0  0
  -44.0208  -29.2841    1.7350 C   0  0  0  0  0  0  0  0  0  0  0  0
  -43.3861  -30.6813    1.8503 C   0  0  2  0  0  0  0  0  0  0  0  0
  -45.1144  -29.3552    6.7678 N   0  0  0  0  0  0  0  0  0  0  0  0
  -43.9154  -29.2513    4.7069 N   0  0  0  0  0  0  0  0  0  0  0  0
  -47.5816  -29.1624    6.6086 N   0  0  0  0  0  0  0  0  0  0  0  0
  -49.8317  -28.6631    5.9209 N   0  0  0  0  0  0  0  0  0  0  0  0
  -45.1639  -29.1339    2.6351 N   0  0  0  0  0  0  0  0  0  0  0  0
  -45.3030  -33.8204    1.6592 O   0  0  0  0  0  0  0  0  0  0  0  0
  -51.9371  -30.1872    4.9278 O   0  0  0  0  0  0  0  0  0  0  0  0
  -42.3521  -30.7470    0.8861 O   0  0  0  0  0  0  0  0  0  0  0  0
  -47.8450  -29.0280    4.0778 S   0  0  0  0  0  0  0  0  0  0  0  0
  -45.5771  -31.1652   -0.2227 H   0  0  0  0  0  0  0  0  0  0  0  0
  -46.6588  -33.5759   -0.0354 H   0  0  0  0  0  0  0  0  0  0  0  0
  -43.7642  -33.2700    3.1057 H   0  0  0  0  0  0  0  0  0  0  0  0
  -43.0170  -29.3664    6.6053 H   0  0  0  0  0  0  0  0  0  0  0  0
  -51.3749  -28.9683    7.3462 H   0  0  0  0  0  0  0  0  0  0  0  0
  -49.8735  -29.9102    7.6382 H   0  0  0  0  0  0  0  0  0  0  0  0
  -50.0333  -27.4986    4.1514 H   0  0  0  0  0  0  0  0  0  0  0  0
  -51.4785  -27.5134    5.2180 H   0  0  0  0  0  0  0  0  0  0  0  0
  -50.2977  -31.2926    5.6265 H   0  0  0  0  0  0  0  0  0  0  0  0
  -51.7551  -31.3314    6.6758 H   0  0  0  0  0  0  0  0  0  0  0  0
  -51.9282  -28.9358    3.2483 H   0  0  0  0  0  0  0  0  0  0  0  0
  -50.4128  -29.8583    3.5295 H   0  0  0  0  0  0  0  0  0  0  0  0
  -43.2646  -28.5269    1.9894 H   0  0  0  0  0  0  0  0  0  0  0  0
  -44.3596  -29.1307    0.6997 H   0  0  0  0  0  0  0  0  0  0  0  0
  -42.9720  -30.7966    2.8628 H   0  0  0  0  0  0  0  0  0  0  0  0
  -45.8149  -29.8437    2.3664 H   0  0  0  0  0  0  0  0  0  0  0  0
  -41.7329  -30.0425    1.0367 H   0  0  0  0  0  0  0  0  0  0  0  0
  1  2  2  0  0  0  0
  1  5  1  0  0  0  0
  2 21  1  0  0  0  0
  3  5  2  0  0  0  0
  3 21  1  0  0  0  0
  4 16  2  0  0  0  0
  4 17  1  0  0  0  0
  5 15  1  0  0  0  0
  6  7  2  0  0  0  0
  6  8  1  0  0  0  0
  6 24  1  0  0  0  0
  7 16  1  0  0  0  0
  7 18  1  0  0  0  0
  8 17  2  0  0  0  0
  8 20  1  0  0  0  0
  9 18  2  0  0  0  0
  9 19  1  0  0  0  0
  9 24  1  0  0  0  0
 10 12  1  0  0  0  0
 10 19  1  0  0  0  0
 11 13  1  0  0  0  0
 11 19  1  0  0  0  0
 12 22  1  0  0  0  0
 13 22  1  0  0  0  0
 14 15  1  0  0  0  0
 14 20  1  0  0  0  0
 15 23  1  0  0  0  0
  1 25  1  0  0  0  0
  2 26  1  0  0  0  0
  3 27  1  0  0  0  0
  4 28  1  0  0  0  0
 10 29  1  0  0  0  0
 10 30  1  0  0  0  0
 11 31  1  0  0  0  0
 11 32  1  0  0  0  0
 12 33  1  0  0  0  0
 12 34  1  0  0  0  0
 13 35  1  0  0  0  0
 13 36  1  0  0  0  0
 14 37  1  0  0  0  0
 14 38  1  0  0  0  0
 15 39  1  0  0  0  0
 20 40  1  0  0  0  0
 23 41  1  0  0  0  0
M  END
> <POSIT::Probability>
0.72

> <POSIT::Method>
SHAPEFIT

> <ReceptorTitle>
UCSF-P4678-REFINED_LIGAND-BOUND-STATE_A__DU__LA1_A-201(A)

> <OMEGA_C>
X1c1wnhh/8GgHAI/gY83wmywBMJmZxs/pIAxwskLBMKDPRBApM0vwsSd6sEGDcJA3WoxwnKF/sEi
qMo/lR85wpqt6cGSqJZAbik5wrxL6sFCXcNA31E0whil6cHIq4BAmPlBwteQ58F03bVAADxKwlQ6
7MFwvdtAH6FKwmb34MEi6ZlAL4RMwiCT9cHw/8BAle1MwmZ16sGWd4BAUBUwwuxF6sHSE94/W4st
wlRz9cHO1ew/GXU0wojX6sEkkthAZakvwqYC6sHanpZAlFM+woJM6cHAedNApFNHwg5O5cFkeL1A
y6c0wiIS6cFwpShAPzY1wiFIB8IyYtQ/mb9PwmZ/8cEqsJ1AkWgpwtL59cF01mI/O2E/wlI56MEC
fYJA9k42wlhS+cHjDmS+kqI6wrlNBsLX8RC9jg4vwn4UBcI4w0ZAbBEswmHu6sE5XtNA6n9Nwvy+
58EtFOtAg35HwhxI78FlbPRAGCJIwiX928Hc14RACOpNwm4b3MGq+aZAzjBJwjZX+sE5DLRAPQVP
wrSm+sHzn9VAerZPwnx858Fe409AqKZJwrfd7sEJ5GFA+w4twgU35MH9o/4/M3AxwrEL6cHLIjM/
XOMrwmRf9sGdODdAeUI3wvm/7sEtcxdAdu4mwvRW8MHpsYQ/

> <OMEGA_E>
Tu5APw==

> <OMEGA_NBR>
     27920

$$$$
CACHE3HI_1700_17
  -OEChem-03092622533D

 43 46  0     0  0  0  0  0  0999 V2000
  -43.4747  -32.8418   -0.6510 C   0  0  0  0  0  0  0  0  0  0  0  0
  -44.3928  -33.8812   -0.8259 C   0  0  0  0  0  0  0  0  0  0  0  0
  -43.1406  -29.4738    4.6181 C   0  0  0  0  0  0  0  0  0  0  0  0
  -44.8312  -31.8910    1.1195 C   0  0  0  0  0  0  0  0  0  0  0  0
  -43.4840  -29.3097    5.9444 C   0  0  0  0  0  0  0  0  0  0  0  0
  -47.4693  -34.6380    0.8125 C   0  0  0  0  0  0  0  0  0  0  0  0
  -43.6935  -31.8609    0.3099 C   0  0  0  0  0  0  0  0  0  0  0  0
  -45.5514  -33.9358   -0.0209 C   0  0  0  0  0  0  0  0  0  0  0  0
  -45.7493  -32.9380    0.9383 C   0  0  0  0  0  0  0  0  0  0  0  0
  -44.1960  -29.5494    3.7325 C   0  0  0  0  0  0  0  0  0  0  0  0
  -45.6971  -29.3122    5.4236 C   0  0  0  0  0  0  0  0  0  0  0  0
  -48.0809  -29.9219    5.1035 C   0  0  0  0  0  0  0  0  0  0  0  0
  -47.5035  -28.1624    6.7187 C   0  0  0  0  0  0  0  0  0  0  0  0
  -48.8928  -28.8772    4.3376 C   0  0  0  0  0  0  0  0  0  0  0  0
  -48.3224  -27.1795    5.8893 C   0  0  0  0  0  0  0  0  0  0  0  0
  -42.6896  -30.7478    0.4819 C   0  0  0  0  0  0  0  0  0  0  0  0
  -42.6268  -30.2171    1.9116 C   0  0  0  0  0  0  0  0  0  0  0  0
  -44.7569  -29.2247    6.3839 N   0  0  0  0  0  0  0  0  0  0  0  0
  -46.5454  -34.9024   -0.0807 N   0  0  0  0  0  0  0  0  0  0  0  0
  -45.4915  -29.4723    4.1020 N   0  0  0  0  0  0  0  0  0  0  0  0
  -47.0200  -29.2286    5.8404 N   0  0  0  0  0  0  0  0  0  0  0  0
  -43.8855  -29.7178    2.3608 N   0  0  0  0  0  0  0  0  0  0  0  0
  -49.3856  -27.8651    5.2205 O   0  0  0  0  0  0  0  0  0  0  0  0
  -47.2277  -33.2435    1.7733 S   0  0  0  0  0  0  0  0  0  0  0  0
  -42.5860  -32.8101   -1.2765 H   0  0  0  0  0  0  0  0  0  0  0  0
  -44.2114  -34.6422   -1.5796 H   0  0  0  0  0  0  0  0  0  0  0  0
  -42.1054  -29.5375    4.3069 H   0  0  0  0  0  0  0  0  0  0  0  0
  -45.0031  -31.1243    1.8696 H   0  0  0  0  0  0  0  0  0  0  0  0
  -42.7224  -29.2398    6.7136 H   0  0  0  0  0  0  0  0  0  0  0  0
  -48.3408  -35.2655    0.9397 H   0  0  0  0  0  0  0  0  0  0  0  0
  -48.7306  -30.4385    5.8101 H   0  0  0  0  0  0  0  0  0  0  0  0
  -47.6635  -30.6433    4.4032 H   0  0  0  0  0  0  0  0  0  0  0  0
  -46.6723  -27.6371    7.1929 H   0  0  0  0  0  0  0  0  0  0  0  0
  -48.1373  -28.5973    7.4959 H   0  0  0  0  0  0  0  0  0  0  0  0
  -48.2982  -28.4138    3.5412 H   0  0  0  0  0  0  0  0  0  0  0  0
  -49.7572  -29.3553    3.8659 H   0  0  0  0  0  0  0  0  0  0  0  0
  -48.7716  -26.4282    6.5422 H   0  0  0  0  0  0  0  0  0  0  0  0
  -47.7021  -26.6568    5.1558 H   0  0  0  0  0  0  0  0  0  0  0  0
  -41.6970  -31.0905    0.1626 H   0  0  0  0  0  0  0  0  0  0  0  0
  -42.9589  -29.9287   -0.1969 H   0  0  0  0  0  0  0  0  0  0  0  0
  -42.3436  -31.0235    2.5961 H   0  0  0  0  0  0  0  0  0  0  0  0
  -41.8942  -29.4102    2.0155 H   0  0  0  0  0  0  0  0  0  0  0  0
  -44.5984  -29.4669    1.7066 H   0  0  0  0  0  0  0  0  0  0  0  0
  1  2  1  0  0  0  0
  1  7  2  0  0  0  0
  2  8  2  0  0  0  0
  3  5  2  0  0  0  0
  3 10  1  0  0  0  0
  4  7  1  0  0  0  0
  4  9  2  0  0  0  0
  5 18  1  0  0  0  0
  6 19  2  0  0  0  0
  6 24  1  0  0  0  0
  7 16  1  0  0  0  0
  8  9  1  0  0  0  0
  8 19  1  0  0  0  0
  9 24  1  0  0  0  0
 10 20  2  0  0  0  0
 10 22  1  0  0  0  0
 11 18  2  0  0  0  0
 11 20  1  0  0  0  0
 11 21  1  0  0  0  0
 12 14  1  0  0  0  0
 12 21  1  0  0  0  0
 13 15  1  0  0  0  0
 13 21  1  0  0  0  0
 14 23  1  0  0  0  0
 15 23  1  0  0  0  0
 16 17  1  0  0  0  0
 17 22  1  0  0  0  0
  1 25  1  0  0  0  0
  2 26  1  0  0  0  0
  3 27  1  0  0  0  0
  4 28  1  0  0  0  0
  5 29  1  0  0  0  0
  6 30  1  0  0  0  0
 12 31  1  0  0  0  0
 12 32  1  0  0  0  0
 13 33  1  0  0  0  0
 13 34  1  0  0  0  0
 14 35  1  0  0  0  0
 14 36  1  0  0  0  0
 15 37  1  0  0  0  0
 15 38  1  0  0  0  0
 16 39  1  0  0  0  0
 16 40  1  0  0  0  0
 17 41  1  0  0  0  0
 17 42  1  0  0  0  0
 22 43  1  0  0  0  0
M  END
> <POSIT::Probability>
0.18

> <POSIT::Method>
HYBRID

> <ReceptorTitle>
UCSF-P4678-REFINED_LIGAND-BOUND-STATE_A__DU__LA1_A-201(A)

> <OMEGA_C>
H+YtwgBeA8LcpSa/RJIxwlCGB8J8a1O/AJAswm7K68Eux5NAJ1MzwtYg/8GMS48/pe8twjp66sFQ
OL5Ak+A9wlmNCsLwAFA/LMYuwhrj/sFQpZ4+rzQ2wk++B8IAJ6u8Pv82wo/AA8KgNHA/rsgwwiNl
7ME44W5Azsk2wlx/6sEijq1A0VJAwiRg78GMT6NAlAM+wppM4cGs/9ZAOpJDwngE58H/zYpALEpB
wqZv2cFWdbxALcIqwoX79cGQwPY+zoEqwq688cFIr/Q/CwczwibM6cH+SMxAiC46whicC8IAX6W9
T/c1wlrH68F2Q4NAehQ8wibU6cFg5LpAtYovwv+97cHsFxdA5opFwqrr3sF9DqdAJek8wlD5BMJA
+uI/C1gqwoo9A8IgZKO/dtgwwqSRCsIsL8q/8WsowtRM7MH60YlAJgM0wof++MFsUO8/tOMqwjTr
6cEd1tZAAF1BwtUPDcJYj3A/L+xCwhqC88EI7LlAdKc+woYl9cGn5oxAd7A6wroY3cE0LOZAjoxA
wk/H5MFs3u9AaDFBwo5P48GeomJAaAdHwpjX6sFIandAExZDwgdt08EIWtFA8c4+wjVB1cFJ/KRA
rskmwme5+MGAfSY+6tUrwvlt78GAnUm+zF8pwg0w+MHIJiZAsZMnwidI68Hw/QBAzGQywkS868Fw
cNo/

> <OMEGA_E>
iym9wA==

> <OMEGA_NBR>
     29276

$$$$
CACHE3HI_1700_36
  -OEChem-03092622533D

 52 55  0     1  0  0  0  0  0999 V2000
  -45.5400  -28.7568    4.0268 C   0  0  0  0  0  0  0  0  0  0  0  0
  -42.6504  -31.9098    2.6441 C   0  0  0  0  0  0  0  0  0  0  0  0
  -44.5274  -29.5630    6.4047 C   0  0  0  0  0  0  0  0  0  0  0  0
  -43.2079  -31.3528    1.5154 C   0  0  0  0  0  0  0  0  0  0  0  0
  -46.4078  -29.0198    5.1004 C   0  0  0  0  0  0  0  0  0  0  0  0
  -44.1771  -29.0370    4.1598 C   0  0  0  0  0  0  0  0  0  0  0  0
  -44.3805  -33.1949    2.1390 C   0  0  0  0  0  0  0  0  0  0  0  0
  -45.5128  -34.1821    2.0369 C   0  0  0  0  0  0  0  0  0  0  0  0
  -50.7222  -28.9892    4.6531 C   0  0  0  0  0  0  0  0  0  0  0  0
  -50.0753  -28.7765    6.0263 C   0  0  0  0  0  0  0  0  0  0  0  0
  -49.8718  -28.2877    3.5850 C   0  0  0  0  0  0  0  0  0  0  0  0
  -45.2072  -31.9419    0.1143 C   0  0  0  0  0  0  0  0  0  0  0  0
  -48.6752  -29.3986    6.0670 C   0  0  0  0  0  0  0  0  0  0  0  0
  -46.2046  -33.1093   -0.0131 C   0  0  0  0  0  0  0  0  0  0  0  0
  -48.4212  -28.8227    3.5330 C   0  0  2  0  0  0  0  0  0  0  0  0
  -42.9131  -30.0062    0.9067 C   0  0  0  0  0  0  0  0  0  0  0  0
  -48.4088  -30.1750    2.7599 C   0  0  0  0  0  0  0  0  0  0  0  0
  -43.7602  -28.9605    1.6405 C   0  0  0  0  0  0  0  0  0  0  0  0
  -43.4111  -33.0350    3.0116 N   0  0  0  0  0  0  0  0  0  0  0  0
  -45.8700  -29.4091    6.2868 N   0  0  0  0  0  0  0  0  0  0  0  0
  -43.6839  -29.4228    5.3544 N   0  0  0  0  0  0  0  0  0  0  0  0
  -44.2303  -32.1965    1.2098 N   0  0  0  0  0  0  0  0  0  0  0  0
  -47.8104  -28.9304    4.9329 N   0  0  2  0  0  0  0  0  0  0  0  0
  -43.3221  -28.9265    3.0687 N   0  0  0  0  0  0  0  0  0  0  0  0
  -46.5993  -33.5747    1.3000 O   0  0  0  0  0  0  0  0  0  0  0  0
  -47.0981  -30.6984    2.5593 O   0  0  0  0  0  0  0  0  0  0  0  0
  -45.9230  -28.3414    3.1064 H   0  0  0  0  0  0  0  0  0  0  0  0
  -41.7755  -31.5443    3.1612 H   0  0  0  0  0  0  0  0  0  0  0  0
  -44.1155  -29.8067    7.3729 H   0  0  0  0  0  0  0  0  0  0  0  0
  -45.1691  -35.0849    1.5108 H   0  0  0  0  0  0  0  0  0  0  0  0
  -45.8574  -34.4542    3.0455 H   0  0  0  0  0  0  0  0  0  0  0  0
  -50.7755  -30.0657    4.4335 H   0  0  0  0  0  0  0  0  0  0  0  0
  -51.7369  -28.5645    4.6539 H   0  0  0  0  0  0  0  0  0  0  0  0
  -49.9970  -27.6975    6.2255 H   0  0  0  0  0  0  0  0  0  0  0  0
  -50.7023  -29.2473    6.7978 H   0  0  0  0  0  0  0  0  0  0  0  0
  -50.3406  -28.4449    2.6024 H   0  0  0  0  0  0  0  0  0  0  0  0
  -49.8424  -27.2112    3.8092 H   0  0  0  0  0  0  0  0  0  0  0  0
  -44.6628  -31.8277   -0.8347 H   0  0  0  0  0  0  0  0  0  0  0  0
  -45.7609  -31.0169    0.3329 H   0  0  0  0  0  0  0  0  0  0  0  0
  -48.1931  -29.1229    7.0166 H   0  0  0  0  0  0  0  0  0  0  0  0
  -48.7724  -30.4928    6.0093 H   0  0  0  0  0  0  0  0  0  0  0  0
  -47.0954  -32.7681   -0.5608 H   0  0  0  0  0  0  0  0  0  0  0  0
  -45.7296  -33.9347   -0.5636 H   0  0  0  0  0  0  0  0  0  0  0  0
  -47.8200  -28.1045    2.9560 H   0  0  0  0  0  0  0  0  0  0  0  0
  -41.8451  -29.7697    1.0225 H   0  0  0  0  0  0  0  0  0  0  0  0
  -43.1731  -30.0144   -0.1621 H   0  0  0  0  0  0  0  0  0  0  0  0
  -48.9941  -30.9097    3.3324 H   0  0  0  0  0  0  0  0  0  0  0  0
  -48.8767  -30.0193    1.7767 H   0  0  0  0  0  0  0  0  0  0  0  0
  -43.6120  -27.9720    1.1814 H   0  0  0  0  0  0  0  0  0  0  0  0
  -44.8238  -29.2356    1.5833 H   0  0  0  0  0  0  0  0  0  0  0  0
  -42.8513  -28.0518    3.1842 H   0  0  0  0  0  0  0  0  0  0  0  0
  -47.1537  -31.5197    2.0851 H   0  0  0  0  0  0  0  0  0  0  0  0
  1  5  2  0  0  0  0
  1  6  1  0  0  0  0
  2  4  2  0  0  0  0
  2 19  1  0  0  0  0
  3 20  2  0  0  0  0
  3 21  1  0  0  0  0
  4 16  1  0  0  0  0
  4 22  1  0  0  0  0
  5 20  1  0  0  0  0
  5 23  1  0  0  0  0
  6 21  2  0  0  0  0
  6 24  1  0  0  0  0
  7  8  1  0  0  0  0
  7 19  2  0  0  0  0
  7 22  1  0  0  0  0
  8 25  1  0  0  0  0
  9 10  1  0  0  0  0
  9 11  1  0  0  0  0
 10 13  1  0  0  0  0
 11 15  1  0  0  0  0
 12 14  1  0  0  0  0
 12 22  1  0  0  0  0
 13 23  1  0  0  0  0
 14 25  1  0  0  0  0
 15 17  1  0  0  0  0
 15 23  1  0  0  0  0
 16 18  1  0  0  0  0
 17 26  1  0  0  0  0
 18 24  1  0  0  0  0
  1 27  1  0  0  0  0
  2 28  1  0  0  0  0
  3 29  1  0  0  0  0
  8 30  1  0  0  0  0
  8 31  1  0  0  0  0
  9 32  1  0  0  0  0
  9 33  1  0  0  0  0
 10 34  1  0  0  0  0
 10 35  1  0  0  0  0
 11 36  1  0  0  0  0
 11 37  1  0  0  0  0
 12 38  1  0  0  0  0
 12 39  1  0  0  0  0
 13 40  1  0  0  0  0
 13 41  1  0  0  0  0
 14 42  1  0  0  0  0
 14 43  1  0  0  0  0
 15 44  1  0  0  0  0
 16 45  1  0  0  0  0
 16 46  1  0  0  0  0
 17 47  1  0  0  0  0
 17 48  1  0  0  0  0
 18 49  1  0  0  0  0
 18 50  1  0  0  0  0
 24 51  1  0  0  0  0
 26 52  1  0  0  0  0
M  END
> <POSIT::Probability>
0.69

> <POSIT::Method>
SHAPEFIT

> <ReceptorTitle>
UCSF-P4678-REFINED_LIGAND-BOUND-STATE_A__DU__LA1_A-201(A)

> <OMEGA_C>
7ig2wtQN5sFA24BADpoqwlRH/8GqOSlAGRwywhqB7MGs88xA6NQswqHS+sF3+ME/mqE5wqMo6MHU
NqNAWbUwwstL6MEmHYVAnIUxwo/HBMKR5AhAFQ02wni6CMJoXAJAk+NKwuHp58FU5pRAE01Iwk82
5sFC18BAwnxHwkFN4sFAcGVAIdQ0wv+I/8EAGOo9XbNCwl0w68EiJcJAd9E4wuxvBMKA31a8Ra9B
wu2U5sEQHGJACacrwrcM8MFhIGg/kaJBwm9m8cHmojBAfQovwjKv58HQ+tE//qQtwswjBMLDvUBA
7no3ws9F68GgLclAVbwuwtph68F0V6tA3eswwj7JAMLr2Zo/1z0/wmZx58H52Z1A20ktwmdp58G0
ZURArmU6wn1MBsL1ZqY/aWQ8wlSW9cGuyyNAK7E3wjC74sF4zkZAJBonwrFa/MFkUEpATHYwwh50
7sHv7utANa00wvtWDMIZYcE/8203wiPRCcKq6EJAIRpLwp2G8MH73o1AofJOwhKE5MEC7ZRA9vxH
wo6U3cEON8dAIs9KwnX66cF2h9lA0FxJwiGP48EvjSZAn15Hwpaw2cFOynNAsKYywiWf/sEwr1W/
Lgs3wq8i+MFfeKo+vcVAwsj76MHDh+BA+RZDwjnx88FLTMBAt2E8wn8SA8KNjQ+/Ees2wiS9B8Kc
ShC/uUc/wgvW4MHLLz1AYWEnwmEo7sFb4YI/RLEswnod8MGS8iW+9flDwvpG98GeRVVAvYFDwoYn
8MGlauM/sXIuwpTG38GeOJc/h0szwovi6cHRqMo/wmcrwh9q4MH+yUtAZZ08wk8o/MG9cQVA

> <OMEGA_E>
hC5oPw==

> <OMEGA_NBR>
     30841

$$$$
CACHE3HI_1700_46
  -OEChem-03092622533D

 46 49  0     1  0  0  0  0  0999 V2000
  -46.6109  -29.1617    5.9818 C   0  0  0  0  0  0  0  0  0  0  0  0
  -45.8393  -29.1105    4.8159 C   0  0  0  0  0  0  0  0  0  0  0  0
  -47.8298  -29.0203    3.4164 C   0  0  0  0  0  0  0  0  0  0  0  0
  -44.2508  -32.1326   -0.3678 C   0  0  0  0  0  0  0  0  0  0  0  0
  -44.1786  -33.2845    1.5102 C   0  0  0  0  0  0  0  0  0  0  0  0
  -48.6198  -29.0706    4.5772 C   0  0  0  0  0  0  0  0  0  0  0  0
  -47.9962  -29.1391    5.8198 C   0  0  0  0  0  0  0  0  0  0  0  0
  -46.4371  -29.0416    3.5554 C   0  0  0  0  0  0  0  0  0  0  0  0
  -43.5358  -31.4696    0.6022 C   0  0  0  0  0  0  0  0  0  0  0  0
  -50.2002  -29.1262    6.0124 C   0  0  0  0  0  0  0  0  0  0  0  0
  -44.2327  -29.0014    2.3405 C   0  0  0  0  0  0  0  0  0  0  0  0
  -52.5862  -28.4746    6.1758 C   0  0  0  0  0  0  0  0  0  0  0  0
  -51.6763  -30.3051    7.5890 C   0  0  0  0  0  0  0  0  0  0  0  0
  -53.5979  -28.2144    7.2862 C   0  0  0  0  0  0  0  0  0  0  0  0
  -52.7396  -29.9436    8.6198 C   0  0  0  0  0  0  0  0  0  0  0  0
  -42.8476  -30.1262    0.5054 C   0  0  0  0  0  0  0  0  0  0  0  0
  -43.7324  -28.9337    0.8977 C   0  0  2  0  0  0  0  0  0  0  0  0
  -43.4944  -32.1915    1.7682 N   0  0  0  0  0  0  0  0  0  0  0  0
  -49.9893  -29.0635    4.7163 N   0  0  0  0  0  0  0  0  0  0  0  0
  -44.6563  -33.2933    0.2289 N   0  0  0  0  0  0  0  0  0  0  0  0
  -49.0315  -29.1737    6.7191 N   0  0  0  0  0  0  0  0  0  0  0  0
  -51.4047  -29.1503    6.7222 N   0  0  0  0  0  0  0  0  0  0  0  0
  -45.6333  -28.9920    2.4149 N   0  0  0  0  0  0  0  0  0  0  0  0
  -43.4481  -29.0412    3.2841 O   0  0  0  0  0  0  0  0  0  0  0  0
  -53.9032  -29.4202    7.9825 O   0  0  0  0  0  0  0  0  0  0  0  0
  -43.0153  -27.7263    0.6944 O   0  0  0  0  0  0  0  0  0  0  0  0
  -46.1495  -29.2163    6.9612 H   0  0  0  0  0  0  0  0  0  0  0  0
  -44.7548  -29.1272    4.9059 H   0  0  0  0  0  0  0  0  0  0  0  0
  -48.2956  -28.9656    2.4370 H   0  0  0  0  0  0  0  0  0  0  0  0
  -44.5014  -31.8962   -1.3918 H   0  0  0  0  0  0  0  0  0  0  0  0
  -44.3631  -34.0976    2.1978 H   0  0  0  0  0  0  0  0  0  0  0  0
  -53.0373  -29.1190    5.4107 H   0  0  0  0  0  0  0  0  0  0  0  0
  -52.3116  -27.5248    5.7014 H   0  0  0  0  0  0  0  0  0  0  0  0
  -50.7649  -30.6342    8.1022 H   0  0  0  0  0  0  0  0  0  0  0  0
  -52.0343  -31.1341    6.9655 H   0  0  0  0  0  0  0  0  0  0  0  0
  -53.2309  -27.4606    7.9933 H   0  0  0  0  0  0  0  0  0  0  0  0
  -54.5294  -27.8332    6.8555 H   0  0  0  0  0  0  0  0  0  0  0  0
  -53.0383  -30.8405    9.1720 H   0  0  0  0  0  0  0  0  0  0  0  0
  -52.3599  -29.2191    9.3504 H   0  0  0  0  0  0  0  0  0  0  0  0
  -42.4701  -29.9936   -0.5160 H   0  0  0  0  0  0  0  0  0  0  0  0
  -41.9613  -30.1503    1.1536 H   0  0  0  0  0  0  0  0  0  0  0  0
  -44.6020  -28.9068    0.2301 H   0  0  0  0  0  0  0  0  0  0  0  0
  -45.2084  -34.0249   -0.1982 H   0  0  0  0  0  0  0  0  0  0  0  0
  -48.9449  -29.2243    7.7253 H   0  0  0  0  0  0  0  0  0  0  0  0
  -46.1299  -28.9423    1.5178 H   0  0  0  0  0  0  0  0  0  0  0  0
  -42.2682  -27.7338    1.3153 H   0  0  0  0  0  0  0  0  0  0  0  0
  1  2  1  0  0  0  0
  1  7  2  0  0  0  0
  2  8  2  0  0  0  0
  3  6  2  0  0  0  0
  3  8  1  0  0  0  0
  4  9  2  0  0  0  0
  4 20  1  0  0  0  0
  5 18  2  0  0  0  0
  5 20  1  0  0  0  0
  6  7  1  0  0  0  0
  6 19  1  0  0  0  0
  7 21  1  0  0  0  0
  8 23  1  0  0  0  0
  9 16  1  0  0  0  0
  9 18  1  0  0  0  0
 10 19  2  0  0  0  0
 10 21  1  0  0  0  0
 10 22  1  0  0  0  0
 11 17  1  0  0  0  0
 11 23  1  0  0  0  0
 11 24  2  0  0  0  0
 12 14  1  0  0  0  0
 12 22  1  0  0  0  0
 13 15  1  0  0  0  0
 13 22  1  0  0  0  0
 14 25  1  0  0  0  0
 15 25  1  0  0  0  0
 16 17  1  0  0  0  0
 17 26  1  0  0  0  0
  1 27  1  0  0  0  0
  2 28  1  0  0  0  0
  3 29  1  0  0  0  0
  4 30  1  0  0  0  0
  5 31  1  0  0  0  0
 12 32  1  0  0  0  0
 12 33  1  0  0  0  0
 13 34  1  0  0  0  0
 13 35  1  0  0  0  0
 14 36  1  0  0  0  0
 14 37  1  0  0  0  0
 15 38  1  0  0  0  0
 15 39  1  0  0  0  0
 16 40  1  0  0  0  0
 16 41  1  0  0  0  0
 17 42  1  0  0  0  0
 20 43  1  0  0  0  0
 21 44  1  0  0  0  0
 23 45  1  0  0  0  0
 26 46  1  0  0  0  0
M  END
> <POSIT::Probability>
0.18

> <POSIT::Method>
FRED

> <ReceptorTitle>
UCSF-P4678-REFINED_LIGAND-BOUND-STATE_A__DU__LA1_A-201(A)

> <OMEGA_C>
hXE6wipL6cEJa79AbVs3wjbi6ME6HJpArlE/wo4p6MG/plpA3gAxwtCHAMI5T7y+2rYwwk4jBcJ0
T8E/sXpCwoaQ6MFNeJJAIPw/wvEc6cEoPLpAk785wjxV6MFEi2NAoSQuwqrB+8H8Kho/Dc1IwokC
6cHpZcBAVu4wwssC6MFeyhVAS1hSwurL48HSn8VAj7ROwuxw8sH32PJANmRWwgS34cEvKOlAU/VS
woyM78Gn6glB72Mrwo0C8cGkYwE/Bu4uwjR458G80mU/QPotwiHEAMLwVOI/DvVHwvuB6MEo7JZA
AaAywlcsBcKubmo+NSBEwrtj6cGGAtdAcZ5Nwswz6cExHNdAgYg2wobv58FqjRpA08otwlpU6MFD
L1JA1JxXwpdc68GdcP9ApA8swmfP3cGswzE/DJk4wvu66cEqwt5A8gQzwmwE6cEL/ZxAvS5BwqC5
58FX9xtAdAEywlor/8HyJrK/zHMxwvFjCMIJqAxALyZUwsbz6MEbJK1AHT9Rwt0y3MHKcbZARw9L
wtcS9cGXogFBKyNQwpUS+cEp5d5AZOxUwlKv28HuyP9AGB5awlaq3sE8YNtAPCdUwka59sFUwBJB
lXBRwrvA6cFnmxVBYOEpwtry78HcGAS/YdgnwsUz8cFMqJM/eWgywhNB58Hupms+adU0wowZCMIy
80q+icdDwnHL6cGVNfdACoU4wtWJ58EISMI/qxIpwsre3cFUW6g/

> <OMEGA_E>
g2sJwQ==

> <OMEGA_NBR>
     32260

$$$$
CACHE3HI_1702_80
  -OEChem-03092622533D

 36 38  0     0  0  0  0  0  0999 V2000
  -41.5414  -29.6008    2.2538 C   0  0  0  0  0  0  0  0  0  0  0  0
  -41.7103  -30.9804    2.1369 C   0  0  0  0  0  0  0  0  0  0  0  0
  -48.5171  -29.4800    2.6916 C   0  0  0  0  0  0  0  0  0  0  0  0
  -42.5591  -28.7373    1.8486 C   0  0  0  0  0  0  0  0  0  0  0  0
  -49.7967  -29.6757    3.2220 C   0  0  0  0  0  0  0  0  0  0  0  0
  -42.8967  -31.4966    1.6153 C   0  0  0  0  0  0  0  0  0  0  0  0
  -47.5933  -29.0577    4.9117 C   0  0  0  0  0  0  0  0  0  0  0  0
  -47.4246  -29.1739    3.5294 C   0  0  0  0  0  0  0  0  0  0  0  0
  -43.7454  -29.2534    1.3270 C   0  0  0  0  0  0  0  0  0  0  0  0
  -48.8651  -29.2574    5.3974 C   0  0  0  0  0  0  0  0  0  0  0  0
  -49.9391  -29.5572    4.5874 C   0  0  0  0  0  0  0  0  0  0  0  0
  -43.9144  -30.6330    1.2101 C   0  0  0  0  0  0  0  0  0  0  0  0
  -50.7027  -29.4899    6.6280 C   0  0  0  0  0  0  0  0  0  0  0  0
  -46.1067  -28.9762    2.9460 C   0  0  0  0  0  0  0  0  0  0  0  0
  -44.8300  -28.3083    0.8956 C   0  0  0  0  0  0  0  0  0  0  0  0
  -44.9954  -32.3943    0.0100 C   0  0  0  0  0  0  0  0  0  0  0  0
  -49.3457  -29.2151    6.6789 N   0  0  0  0  0  0  0  0  0  0  0  0
  -46.0603  -28.5300    1.6207 N   0  0  0  0  0  0  0  0  0  0  0  0
  -51.4697  -29.5400    7.5815 O   0  0  0  0  0  0  0  0  0  0  0  0
  -45.0819  -29.2183    3.6070 O   0  0  0  0  0  0  0  0  0  0  0  0
  -51.1167  -29.7141    5.3021 O   0  0  0  0  0  0  0  0  0  0  0  0
  -45.0666  -31.1535    0.7022 O   0  0  0  0  0  0  0  0  0  0  0  0
  -43.7963  -32.5487   -0.5904 F   0  0  0  0  0  0  0  0  0  0  0  0
  -45.9839  -32.4986   -0.9039 F   0  0  0  0  0  0  0  0  0  0  0  0
  -45.1461  -33.3987    0.9031 F   0  0  0  0  0  0  0  0  0  0  0  0
  -40.6178  -29.1990    2.6604 H   0  0  0  0  0  0  0  0  0  0  0  0
  -40.9174  -31.6528    2.4512 H   0  0  0  0  0  0  0  0  0  0  0  0
  -48.3717  -29.5672    1.6170 H   0  0  0  0  0  0  0  0  0  0  0  0
  -42.4185  -27.6638    1.9437 H   0  0  0  0  0  0  0  0  0  0  0  0
  -50.6371  -29.9111    2.5796 H   0  0  0  0  0  0  0  0  0  0  0  0
  -43.0218  -32.5724    1.5275 H   0  0  0  0  0  0  0  0  0  0  0  0
  -46.7649  -28.8228    5.5704 H   0  0  0  0  0  0  0  0  0  0  0  0
  -44.5242  -27.2696    1.0592 H   0  0  0  0  0  0  0  0  0  0  0  0
  -45.0460  -28.4195   -0.1720 H   0  0  0  0  0  0  0  0  0  0  0  0
  -48.7981  -29.0177    7.5072 H   0  0  0  0  0  0  0  0  0  0  0  0
  -46.9270  -28.4085    1.1074 H   0  0  0  0  0  0  0  0  0  0  0  0
  1  2  1  0  0  0  0
  1  4  2  0  0  0  0
  2  6  2  0  0  0  0
  3  5  2  0  0  0  0
  3  8  1  0  0  0  0
  4  9  1  0  0  0  0
  5 11  1  0  0  0  0
  6 12  1  0  0  0  0
  7  8  2  0  0  0  0
  7 10  1  0  0  0  0
  8 14  1  0  0  0  0
  9 12  2  0  0  0  0
  9 15  1  0  0  0  0
 10 11  2  0  0  0  0
 10 17  1  0  0  0  0
 11 21  1  0  0  0  0
 12 22  1  0  0  0  0
 13 17  1  0  0  0  0
 13 19  2  0  0  0  0
 13 21  1  0  0  0  0
 14 18  1  0  0  0  0
 14 20  2  0  0  0  0
 15 18  1  0  0  0  0
 16 22  1  0  0  0  0
 16 23  1  0  0  0  0
 16 24  1  0  0  0  0
 16 25  1  0  0  0  0
  1 26  1  0  0  0  0
  2 27  1  0  0  0  0
  3 28  1  0  0  0  0
  4 29  1  0  0  0  0
  5 30  1  0  0  0  0
  6 31  1  0  0  0  0
  7 32  1  0  0  0  0
 15 33  1  0  0  0  0
 15 34  1  0  0  0  0
 17 35  1  0  0  0  0
 18 36  1  0  0  0  0
M  END
> <POSIT::Probability>
0.18

> <POSIT::Method>
FRED

> <ReceptorTitle>
UCSF-P4678-REFINED_LIGAND-BOUND-STATE_A__DU__LA1_A-201(A)

> <OMEGA_C>
ZComwljO7MHPPhBAZNcmwujX98GcwwhAdhFCwhrX68GbQixAfzwqwvbl5cEqoOw/3C9Hwspn7cEU
NU5APJYrwvf4+8Euwc4/iV8+wiZ26MFkLJ1AwrI9whJk6cFQ4mFAVvsuwgQH6sEk2qk/1XVDwiMP
6sFGt6xApsFHwjJ17MGay5JAXqgvwnkQ9cFk45o/nM9KwmLr68GqGNRAP204wlvP58GcizxA31Ez
wm534sHcSGU/VfszwsiTAcIAoCQ89WFFwpi46cHEudVAxT04wnQ95ME8cs8/8OBNwthR7MHKm/JA
6VM0wha/6cFm2WZAeXdMwmi27cHzqqlAJkQ0wmc6+cHQxDM/Zi8vwtoxAsJAJBe/eu83wob+AcJA
aGe/l5U0wkmYBcKELmc/oHgiwp2X6cGzRCpAY6sjwto4/cG23xxAoHxBwoiJ7MEK+84/gKwpwnNP
3cHIyvg/ZIxKwudJ78GVGCVAUBYswiZKAsJOhsM/OQ87wgyV5sHiQLJAwhgywi4o2sFGlIc/Iy80
whpb48HALTC+NjFDwlok6MG0OvBAOLU7wopE48HgwI0/

> <OMEGA_E>
mLQQwQ==

> <OMEGA_NBR>
     33471

$$$$
CACHE3HI_1702_98
  -OEChem-03092622533D

 36 38  0     0  0  0  0  0  0999 V2000
  -42.7780  -33.3194   -1.5654 C   0  0  0  0  0  0  0  0  0  0  0  0
  -43.9699  -34.0138   -1.3581 C   0  0  0  0  0  0  0  0  0  0  0  0
  -44.3107  -29.2569    5.4685 C   0  0  0  0  0  0  0  0  0  0  0  0
  -42.5260  -32.1421   -0.8612 C   0  0  0  0  0  0  0  0  0  0  0  0
  -45.2480  -29.1830    6.5021 C   0  0  0  0  0  0  0  0  0  0  0  0
  -44.9094  -33.5312   -0.4468 C   0  0  0  0  0  0  0  0  0  0  0  0
  -46.0795  -29.5238    3.8031 C   0  0  0  0  0  0  0  0  0  0  0  0
  -44.7228  -29.4256    4.1302 C   0  0  0  0  0  0  0  0  0  0  0  0
  -43.4655  -31.6595    0.0501 C   0  0  0  0  0  0  0  0  0  0  0  0
  -46.5724  -29.2841    6.1429 C   0  0  0  0  0  0  0  0  0  0  0  0
  -46.9856  -29.4493    4.8385 C   0  0  0  0  0  0  0  0  0  0  0  0
  -44.6574  -32.3538    0.2573 C   0  0  0  0  0  0  0  0  0  0  0  0
  -48.7918  -29.3963    6.0577 C   0  0  0  0  0  0  0  0  0  0  0  0
  -43.7232  -29.4968    3.0755 C   0  0  0  0  0  0  0  0  0  0  0  0
  -43.1769  -30.3900    0.7988 C   0  0  0  0  0  0  0  0  0  0  0  0
  -46.8847  -31.5843    0.6542 C   0  0  0  0  0  0  0  0  0  0  0  0
  -47.7076  -29.2507    6.9080 N   0  0  0  0  0  0  0  0  0  0  0  0
  -44.0679  -30.2105    1.9225 N   0  0  0  0  0  0  0  0  0  0  0  0
  -49.9723  -29.4146    6.3828 O   0  0  0  0  0  0  0  0  0  0  0  0
  -42.6128  -28.9574    3.2221 O   0  0  0  0  0  0  0  0  0  0  0  0
  -48.3651  -29.5260    4.7233 O   0  0  0  0  0  0  0  0  0  0  0  0
  -45.5857  -31.8959    1.1432 O   0  0  0  0  0  0  0  0  0  0  0  0
  -47.4697  -32.6681    0.1014 F   0  0  0  0  0  0  0  0  0  0  0  0
  -46.8372  -30.5787   -0.2456 F   0  0  0  0  0  0  0  0  0  0  0  0
  -47.6532  -31.1798    1.6909 F   0  0  0  0  0  0  0  0  0  0  0  0
  -42.0464  -33.6955   -2.2746 H   0  0  0  0  0  0  0  0  0  0  0  0
  -44.1668  -34.9298   -1.9074 H   0  0  0  0  0  0  0  0  0  0  0  0
  -43.2523  -29.1817    5.7082 H   0  0  0  0  0  0  0  0  0  0  0  0
  -41.5945  -31.6080   -1.0292 H   0  0  0  0  0  0  0  0  0  0  0  0
  -44.9382  -29.0534    7.5320 H   0  0  0  0  0  0  0  0  0  0  0  0
  -45.8356  -34.0775   -0.2900 H   0  0  0  0  0  0  0  0  0  0  0  0
  -46.4087  -29.6537    2.7781 H   0  0  0  0  0  0  0  0  0  0  0  0
  -42.1500  -30.3912    1.1790 H   0  0  0  0  0  0  0  0  0  0  0  0
  -43.2811  -29.5168    0.1463 H   0  0  0  0  0  0  0  0  0  0  0  0
  -47.7370  -29.1393    7.9138 H   0  0  0  0  0  0  0  0  0  0  0  0
  -44.9641  -30.6842    1.8814 H   0  0  0  0  0  0  0  0  0  0  0  0
  1  2  1  0  0  0  0
  1  4  2  0  0  0  0
  2  6  2  0  0  0  0
  3  5  2  0  0  0  0
  3  8  1  0  0  0  0
  4  9  1  0  0  0  0
  5 10  1  0  0  0  0
  6 12  1  0  0  0  0
  7  8  2  0  0  0  0
  7 11  1  0  0  0  0
  8 14  1  0  0  0  0
  9 12  2  0  0  0  0
  9 15  1  0  0  0  0
 10 11  2  0  0  0  0
 10 17  1  0  0  0  0
 11 21  1  0  0  0  0
 12 22  1  0  0  0  0
 13 17  1  0  0  0  0
 13 19  2  0  0  0  0
 13 21  1  0  0  0  0
 14 18  1  0  0  0  0
 14 20  2  0  0  0  0
 15 18  1  0  0  0  0
 16 22  1  0  0  0  0
 16 23  1  0  0  0  0
 16 24  1  0  0  0  0
 16 25  1  0  0  0  0
  1 26  1  0  0  0  0
  2 27  1  0  0  0  0
  3 28  1  0  0  0  0
  4 29  1  0  0  0  0
  5 30  1  0  0  0  0
  6 31  1  0  0  0  0
  7 32  1  0  0  0  0
 15 33  1  0  0  0  0
 15 34  1  0  0  0  0
 17 35  1  0  0  0  0
 18 36  1  0  0  0  0
M  END
> <POSIT::Probability>
0.18

> <POSIT::Method>
HYBRID

> <ReceptorTitle>
UCSF-P4678-REFINED_LIGAND-BOUND-STATE_A__DU__LA1_A-201(A)

> <OMEGA_C>
tRwrwg9HBcJsXci/MeEvwh0OCMLo1q2/Hj4xwiMO6sGc/a5AoBoqwneRAMIUeVy//v00wst26cEe
EdBAP6Mzwu8fBsIoyOS+blE4wq8w7MHIZXNAMOQywqln68GWKoRArtwtwpRG/cEAC009KEo6wsdF
6sHgksRAO/E7wj+Y68Ha1JpAI6EywkpqAcJgvYM+1CpDwpor68ER2cFAm+Quwmr568FU1URAK7Us
wroe88GQfkw/8ok7wqas/MGwdyc/k9Q+wlgB6sG+Dt1AfkUwwhuv8cGIE/Y/qeNHwjFR68EaQMxA
jnMqwreo58GNN05A1XVBwjY17MGkJZdAvFc2wuIq/8EEVJI/8+A9wiasAsIAw889S1k7whqh9MHA
hXu+7Zw+wk9w+cFUbtg/hi8owjHIBsL3khHAy6owwh24C8IkJvS/UgItwi106cF8qbZAwGAmwhrd
/MGkvIO/tcAzwm9t6MFoBvFAnVc3wldPCMJAdZS+g6I5wto67cHKzDFAmpkowjIh88Gu6pY/5B8t
woIi7MGg0BU+qvI+wmId6cGxPf1AMtszwkR59cHi0PA/

> <OMEGA_E>
jub7wA==

> <OMEGA_NBR>
     34686

$$$$
CACHE3HI_1715_62
  -OEChem-03092622533D

 55 60  0     1  0  0  0  0  0999 V2000
  -50.9042  -29.4977    6.6950 C   0  0  0  0  0  0  0  0  0  0  0  0
  -45.1234  -33.4960    2.0525 C   0  0  0  0  0  0  0  0  0  0  0  0
  -44.4409  -32.7017    2.9736 C   0  0  0  0  0  0  0  0  0  0  0  0
  -49.5654  -29.4971    6.2367 C   0  0  0  0  0  0  0  0  0  0  0  0
  -44.2593  -32.1432    0.2514 C   0  0  0  0  0  0  0  0  0  0  0  0
  -51.6900  -29.6697    5.5792 C   0  0  0  0  0  0  0  0  0  0  0  0
  -47.2960  -29.0515    4.2502 C   0  0  0  0  0  0  0  0  0  0  0  0
  -48.4625  -29.7292    3.9700 C   0  0  0  0  0  0  0  0  0  0  0  0
  -48.3705  -30.4522    2.7468 C   0  0  0  0  0  0  0  0  0  0  0  0
  -45.0232  -33.2237    0.6912 C   0  0  0  0  0  0  0  0  0  0  0  0
  -43.6508  -31.6315    2.5380 C   0  0  0  0  0  0  0  0  0  0  0  0
  -43.5931  -31.3251    1.1715 C   0  0  0  0  0  0  0  0  0  0  0  0
  -49.6280  -29.6685    4.8735 C   0  0  0  0  0  0  0  0  0  0  0  0
  -47.1384  -30.3026    2.1349 C   0  0  0  0  0  0  0  0  0  0  0  0
  -49.3728  -31.2850    2.1041 C   0  0  0  0  0  0  0  0  0  0  0  0
  -47.6405  -31.6053    0.3931 C   0  0  0  0  0  0  0  0  0  0  0  0
  -47.3968  -35.6387    0.6382 C   0  0  0  0  0  0  0  0  0  0  0  0
  -45.9584  -35.5523    0.1281 C   0  0  0  0  0  0  0  0  0  0  0  0
  -41.8056  -29.1231    2.4586 C   0  0  0  0  0  0  0  0  0  0  0  0
  -48.0189  -34.2797    0.3514 C   0  0  0  0  0  0  0  0  0  0  0  0
  -41.7044  -30.4723    3.1534 C   0  0  0  0  0  0  0  0  0  0  0  0
  -42.9218  -29.0908    1.4266 C   0  0  0  0  0  0  0  0  0  0  0  0
  -45.7568  -34.0975   -0.3175 C   0  0  1  0  0  0  0  0  0  0  0  0
  -47.3680  -32.2919   -0.8969 C   0  0  0  0  0  0  0  0  0  0  0  0
  -46.7348  -30.8615    0.9595 N   0  0  0  0  0  0  0  0  0  0  0  0
  -48.9152  -31.8348    0.9062 N   0  0  0  0  0  0  0  0  0  0  0  0
  -47.1346  -33.7033   -0.6537 N   0  0  2  0  0  0  0  0  0  0  0  0
  -50.4936  -31.4818    2.5621 O   0  0  0  0  0  0  0  0  0  0  0  0
  -50.9196  -29.7742    4.4647 O   0  0  0  0  0  0  0  0  0  0  0  0
  -42.9936  -30.9537    3.5333 O   0  0  0  0  0  0  0  0  0  0  0  0
  -42.9128  -30.2685    0.6212 O   0  0  0  0  0  0  0  0  0  0  0  0
  -46.1043  -29.2898    3.0445 S   0  0  0  0  0  0  0  0  0  0  0  0
  -51.2534  -29.3865    7.7113 H   0  0  0  0  0  0  0  0  0  0  0  0
  -45.7223  -34.3312    2.4062 H   0  0  0  0  0  0  0  0  0  0  0  0
  -44.5116  -32.9352    4.0332 H   0  0  0  0  0  0  0  0  0  0  0  0
  -48.6714  -29.3849    6.8346 H   0  0  0  0  0  0  0  0  0  0  0  0
  -44.1980  -31.9221   -0.8122 H   0  0  0  0  0  0  0  0  0  0  0  0
  -52.7562  -29.7358    5.4188 H   0  0  0  0  0  0  0  0  0  0  0  0
  -47.0773  -28.4245    5.1041 H   0  0  0  0  0  0  0  0  0  0  0  0
  -47.9327  -36.4375    0.1130 H   0  0  0  0  0  0  0  0  0  0  0  0
  -47.4251  -35.8642    1.7095 H   0  0  0  0  0  0  0  0  0  0  0  0
  -45.2411  -35.8812    0.8886 H   0  0  0  0  0  0  0  0  0  0  0  0
  -45.8534  -36.2240   -0.7340 H   0  0  0  0  0  0  0  0  0  0  0  0
  -41.9896  -28.3308    3.1935 H   0  0  0  0  0  0  0  0  0  0  0  0
  -40.8424  -28.9050    1.9828 H   0  0  0  0  0  0  0  0  0  0  0  0
  -49.0459  -34.3793   -0.0144 H   0  0  0  0  0  0  0  0  0  0  0  0
  -48.0378  -33.6792    1.2696 H   0  0  0  0  0  0  0  0  0  0  0  0
  -41.1727  -31.2095    2.5366 H   0  0  0  0  0  0  0  0  0  0  0  0
  -41.1127  -30.3613    4.0690 H   0  0  0  0  0  0  0  0  0  0  0  0
  -43.9044  -28.9386    1.8940 H   0  0  0  0  0  0  0  0  0  0  0  0
  -42.7690  -28.2353    0.7590 H   0  0  0  0  0  0  0  0  0  0  0  0
  -45.1359  -34.0809   -1.2654 H   0  0  0  0  0  0  0  0  0  0  0  0
  -48.2212  -32.1657   -1.5694 H   0  0  0  0  0  0  0  0  0  0  0  0
  -46.4872  -31.8552   -1.3759 H   0  0  0  0  0  0  0  0  0  0  0  0
  -49.5531  -32.4333    0.3888 H   0  0  0  0  0  0  0  0  0  0  0  0
  1  4  1  0  0  0  0
  1  6  2  0  0  0  0
  2  3  2  0  0  0  0
  2 10  1  0  0  0  0
  3 11  1  0  0  0  0
  4 13  2  0  0  0  0
  5 10  2  0  0  0  0
  5 12  1  0  0  0  0
  6 29  1  0  0  0  0
  7  8  2  0  0  0  0
  7 32  1  0  0  0  0
  8  9  1  0  0  0  0
  8 13  1  0  0  0  0
  9 14  2  0  0  0  0
  9 15  1  0  0  0  0
 10 23  1  0  0  0  0
 11 12  2  0  0  0  0
 11 30  1  0  0  0  0
 12 31  1  0  0  0  0
 13 29  1  0  0  0  0
 14 25  1  0  0  0  0
 14 32  1  0  0  0  0
 15 26  1  0  0  0  0
 15 28  2  0  0  0  0
 16 24  1  0  0  0  0
 16 25  2  0  0  0  0
 16 26  1  0  0  0  0
 17 18  1  0  0  0  0
 17 20  1  0  0  0  0
 18 23  1  0  0  0  0
 19 21  1  0  0  0  0
 19 22  1  0  0  0  0
 20 27  1  0  0  0  0
 21 30  1  0  0  0  0
 22 31  1  0  0  0  0
 23 27  1  0  0  0  0
 24 27  1  0  0  0  0
  1 33  1  0  0  0  0
  2 34  1  0  0  0  0
  3 35  1  0  0  0  0
  4 36  1  0  0  0  0
  5 37  1  0  0  0  0
  6 38  1  0  0  0  0
  7 39  1  0  0  0  0
 17 40  1  0  0  0  0
 17 41  1  0  0  0  0
 18 42  1  0  0  0  0
 18 43  1  0  0  0  0
 19 44  1  0  0  0  0
 19 45  1  0  0  0  0
 20 46  1  0  0  0  0
 20 47  1  0  0  0  0
 21 48  1  0  0  0  0
 21 49  1  0  0  0  0
 22 50  1  0  0  0  0
 22 51  1  0  0  0  0
 23 52  1  0  0  0  0
 24 53  1  0  0  0  0
 24 54  1  0  0  0  0
 26 55  1  0  0  0  0
M  END
> <POSIT::Probability>
0.24

> <POSIT::Method>
FRED

> <ReceptorTitle>
UCSF-P4678-REFINED_LIGAND-BOUND-STATE_A__DU__LA1_A-201(A)

> <OMEGA_C>
3Z1Lwk7768HCPdZAXn40wvP7BcL0XANAgcMxwpHOAsJ1Tz5A9EJGwvr568HsksdAewkxwq2SAMKQ
vIA+isJOwoJb7cGgiLJAEy89wn5p6MGYAYhAlNlBwm7V7cEUFX5AXXtBwiOe88G4yy9AzBc0wgbl
BMIs8zA/a5ouwjoN/cH4bSJAYF8uwtGZ+sEK9JU/H4NGwiRZ7cGa85tAuI08wtFr8sHaoQhAyH1F
wplH+sFMqgZA5I8+wrvX/MEQQck+SJY9wgGODsLIYSM/W9U3woo1DsJwJgM+7jgnwhH86MHIWR1A
ZBNAwmQeCcKg7rM+V9EmwjzH88E40UlA9q8rwg+66MFGnLY/+AY3wsxjCMKQiaK+2Xg9wvQqAcJ4
nmW/dvA6wkfk9sEooXU/JqlDwr2t/sE4+mc/yYk8wjXQBsLEVSe/dflJwq7a+8EY+iNAo61LwoEx
7sE6345AZvkrwj2h98FzIWJAu6YrwtYl8sG8Ax8/02o4wn9R6sHW2EJAfQNNwpkX68Efw/ZAquM2
wiBTCcJq/xlA7Qsywpq9A8IsEIFAj69CwlwU68H5tNpAv8owwnxg/8GM6U+/XQZTwvfi7cHGZq1A
NE88wmFl48GdVKNAE7s/wgPAEcLgYOc9R7M9wvl0D8K80do/5/Y0wmKGD8LIeGM/7Wk3wlvlEMJ0
5Du/YPUnwnyl4sHxYUxApl4jwn8958GYzf0/Ay9EwnGECcIALmu8rCZAwna3BsKwgKI/37Akwiit
+cHwVyJAanMkwurj8sE1NYJAHp4vwjWC58GobvI/axMrwvLh4cFYTUI/I4s0wuRSCMKY96G/geJA
wqypAMKw48i/5vI5wn3X/sESHLC/ajZGwq+7AcLwE8c+

> <OMEGA_E>
knDxwA==

> <OMEGA_NBR>
     36293

$$$$
CACHE3HI_1715_72
  -OEChem-03092622533D

 37 40  0     0  0  0  0  0  0999 V2000
  -48.3644  -29.0608    3.2809 C   0  0  0  0  0  0  0  0  0  0  0  0
  -49.7749  -29.0105    3.2479 C   0  0  0  0  0  0  0  0  0  0  0  0
  -49.8583  -28.9595    5.7038 C   0  0  0  0  0  0  0  0  0  0  0  0
  -45.7460  -32.7440   -0.0110 C   0  0  0  0  0  0  0  0  0  0  0  0
  -43.9179  -29.2485    6.0999 C   0  0  0  0  0  0  0  0  0  0  0  0
  -44.8258  -33.5346    1.8313 C   0  0  0  0  0  0  0  0  0  0  0  0
  -47.7359  -29.0727    4.5420 C   0  0  0  0  0  0  0  0  0  0  0  0
  -46.3230  -29.1408    4.8969 C   0  0  0  0  0  0  0  0  0  0  0  0
  -48.4555  -29.0179    5.7395 C   0  0  0  0  0  0  0  0  0  0  0  0
  -50.5181  -28.9663    4.4541 C   0  0  0  0  0  0  0  0  0  0  0  0
  -46.2374  -29.1211    6.2878 C   0  0  0  0  0  0  0  0  0  0  0  0
  -45.1664  -29.2275    4.1025 C   0  0  0  0  0  0  0  0  0  0  0  0
  -42.9718  -30.1699    1.9076 C   0  0  0  0  0  0  0  0  0  0  0  0
  -43.3802  -31.5928    2.3652 C   0  0  0  0  0  0  0  0  0  0  0  0
  -44.1300  -29.1451    1.7660 C   0  0  0  0  0  0  0  0  0  0  0  0
  -45.7023  -33.8168    0.9012 N   0  0  0  0  0  0  0  0  0  0  0  0
  -45.0296  -29.1834    6.8814 N   0  0  0  0  0  0  0  0  0  0  0  0
  -43.9669  -29.2635    4.7372 N   0  0  0  0  0  0  0  0  0  0  0  0
  -44.8978  -31.8098    0.3607 N   0  0  0  0  0  0  0  0  0  0  0  0
  -47.5372  -29.0439    6.7915 N   0  0  0  0  0  0  0  0  0  0  0  0
  -44.3573  -32.2947    1.4965 N   0  0  0  0  0  0  0  0  0  0  0  0
  -45.2615  -29.3216    2.7141 N   0  0  0  0  0  0  0  0  0  0  0  0
  -51.8689  -28.9407    4.4128 F   0  0  0  0  0  0  0  0  0  0  0  0
  -47.7859  -29.0891    2.3694 H   0  0  0  0  0  0  0  0  0  0  0  0
  -50.2903  -29.0057    2.2988 H   0  0  0  0  0  0  0  0  0  0  0  0
  -50.4263  -28.9100    6.6210 H   0  0  0  0  0  0  0  0  0  0  0  0
  -46.3802  -32.6960   -0.8839 H   0  0  0  0  0  0  0  0  0  0  0  0
  -42.9519  -29.2901    6.5810 H   0  0  0  0  0  0  0  0  0  0  0  0
  -44.5372  -34.1447    2.6745 H   0  0  0  0  0  0  0  0  0  0  0  0
  -42.2571  -29.7714    2.6427 H   0  0  0  0  0  0  0  0  0  0  0  0
  -42.4790  -30.2592    0.9282 H   0  0  0  0  0  0  0  0  0  0  0  0
  -42.4687  -32.2067    2.4127 H   0  0  0  0  0  0  0  0  0  0  0  0
  -43.8199  -31.5109    3.3702 H   0  0  0  0  0  0  0  0  0  0  0  0
  -43.7128  -28.1390    1.9201 H   0  0  0  0  0  0  0  0  0  0  0  0
  -44.5290  -29.2240    0.7440 H   0  0  0  0  0  0  0  0  0  0  0  0
  -47.7755  -29.0120    7.7621 H   0  0  0  0  0  0  0  0  0  0  0  0
  -45.6199  -30.2374    2.5332 H   0  0  0  0  0  0  0  0  0  0  0  0
  1  2  1  0  0  0  0
  1  7  2  0  0  0  0
  2 10  2  0  0  0  0
  3  9  2  0  0  0  0
  3 10  1  0  0  0  0
  4 16  1  0  0  0  0
  4 19  2  0  0  0  0
  5 17  1  0  0  0  0
  5 18  2  0  0  0  0
  6 16  2  0  0  0  0
  6 21  1  0  0  0  0
  7  8  1  0  0  0  0
  7  9  1  0  0  0  0
  8 11  1  0  0  0  0
  8 12  2  0  0  0  0
  9 20  1  0  0  0  0
 10 23  1  0  0  0  0
 11 17  2  0  0  0  0
 11 20  1  0  0  0  0
 12 18  1  0  0  0  0
 12 22  1  0  0  0  0
 13 14  1  0  0  0  0
 13 15  1  0  0  0  0
 14 21  1  0  0  0  0
 15 22  1  0  0  0  0
 19 21  1  0  0  0  0
  1 24  1  0  0  0  0
  2 25  1  0  0  0  0
  3 26  1  0  0  0  0
  4 27  1  0  0  0  0
  5 28  1  0  0  0  0
  6 29  1  0  0  0  0
 13 30  1  0  0  0  0
 13 31  1  0  0  0  0
 14 32  1  0  0  0  0
 14 33  1  0  0  0  0
 15 34  1  0  0  0  0
 15 35  1  0  0  0  0
 20 36  1  0  0  0  0
 22 37  1  0  0  0  0
M  END
> <POSIT::Probability>
0.83

> <POSIT::Method>
SHAPEFIT

> <ReceptorTitle>
UCSF-P4678-REFINED_LIGAND-BOUND-STATE_A__DU__LA1_A-201(A)

> <OMEGA_C>
InVBwnB86MHk+lFAgBlHwn4V6MG73U9A4G5Hwhit58GthbZA3Ps2wuX5AsKAqTS88asvwtz86cEv
MsNAkk0zwnEjBsIJaOo/j/E+wtuU6MFyWJFAyEo5wkwg6cG/s5xAYtJBwrwk6ME5qrdAiBJKwuO6
58EiiI5ADPM4wg/46MFzNclAaao0wgHS6cGjR4NAJeMrwudb8cHuK/Q/XIUtwgS+/MHJXxdAI4Uw
wh0p6cEcDOI/Hc82wmJEB8LitWY/SR40wp536cGPNNxAE94vwrob6sGHl5dAUZczwnZ6/sHAsLg+
HCY+wgFa6MHEU9lA120xwsMtAcLRjL8/zAs1wo+S6sFcsy1AuXlPwp2G58HtNY1AzSQ/wpS26MF1
oxdAPSlJwroL6MHUHxNAjbRJwrNH58F239NASIU5wqvIAsITRmK/u84rwiNS6sFYl9JAFSYywiaU
CMKoKitAQwcpwu0r7sFjIilAhuopwsQS8sFfn20/+98pwqzTAMKnaRpAoEcvwmQW/MEjsVdA6dku
wqsc4cEKxfU/ux0ywrXK6cH7cz4/KBo/wpoY6MFoY/hA0no2wkbm8cFjICJA

> <OMEGA_E>
kIS8Pg==

> <OMEGA_NBR>
     37555

$$$$
CACHE3HI_1715_78
  -OEChem-03092622533D

 37 40  0     0  0  0  0  0  0999 V2000
  -48.4318  -28.9651    3.2952 C   0  0  0  0  0  0  0  0  0  0  0  0
  -49.8423  -28.8720    3.3044 C   0  0  0  0  0  0  0  0  0  0  0  0
  -49.8587  -28.9087    5.7618 C   0  0  0  0  0  0  0  0  0  0  0  0
  -43.9250  -29.3676    6.0025 C   0  0  0  0  0  0  0  0  0  0  0  0
  -47.7711  -29.0353    4.5369 C   0  0  0  0  0  0  0  0  0  0  0  0
  -46.3514  -29.1518    4.8524 C   0  0  0  0  0  0  0  0  0  0  0  0
  -48.4588  -29.0079    5.7547 C   0  0  0  0  0  0  0  0  0  0  0  0
  -50.5516  -28.8468    4.5329 C   0  0  0  0  0  0  0  0  0  0  0  0
  -46.2345  -29.1915    6.2417 C   0  0  0  0  0  0  0  0  0  0  0  0
  -45.2095  -29.2166    4.0326 C   0  0  0  0  0  0  0  0  0  0  0  0
  -44.3051  -32.9871    2.1743 C   0  0  0  0  0  0  0  0  0  0  0  0
  -45.1545  -31.8871    0.3520 C   0  0  0  0  0  0  0  0  0  0  0  0
  -45.9813  -33.1137    0.6352 C   0  0  0  0  0  0  0  0  0  0  0  0
  -43.4420  -30.6460    1.7961 C   0  0  0  0  0  0  0  0  0  0  0  0
  -44.1185  -29.2594    1.7418 C   0  0  0  0  0  0  0  0  0  0  0  0
  -45.0177  -29.3020    6.8076 N   0  0  0  0  0  0  0  0  0  0  0  0
  -44.0012  -29.3197    4.6436 N   0  0  0  0  0  0  0  0  0  0  0  0
  -47.5176  -29.0990    6.7801 N   0  0  0  0  0  0  0  0  0  0  0  0
  -44.4208  -31.7221    1.5920 N   0  0  0  0  0  0  0  0  0  0  0  0
  -45.3014  -29.1740    2.6414 N   0  0  0  0  0  0  0  0  0  0  0  0
  -43.5343  -33.3116    3.0698 O   0  0  0  0  0  0  0  0  0  0  0  0
  -45.1939  -33.8510    1.5835 O   0  0  0  0  0  0  0  0  0  0  0  0
  -51.9011  -28.7689    4.5346 F   0  0  0  0  0  0  0  0  0  0  0  0
  -47.8794  -28.9819    2.3672 H   0  0  0  0  0  0  0  0  0  0  0  0
  -50.3830  -28.8198    2.3710 H   0  0  0  0  0  0  0  0  0  0  0  0
  -50.3998  -28.8800    6.6960 H   0  0  0  0  0  0  0  0  0  0  0  0
  -42.9518  -29.4621    6.4612 H   0  0  0  0  0  0  0  0  0  0  0  0
  -44.4734  -32.0517   -0.4960 H   0  0  0  0  0  0  0  0  0  0  0  0
  -45.7920  -31.0146    0.1462 H   0  0  0  0  0  0  0  0  0  0  0  0
  -46.9552  -32.8381    1.0657 H   0  0  0  0  0  0  0  0  0  0  0  0
  -46.1385  -33.6998   -0.2823 H   0  0  0  0  0  0  0  0  0  0  0  0
  -42.6764  -30.7030    1.0084 H   0  0  0  0  0  0  0  0  0  0  0  0
  -42.9665  -30.7751    2.7796 H   0  0  0  0  0  0  0  0  0  0  0  0
  -43.3868  -28.4964    2.0456 H   0  0  0  0  0  0  0  0  0  0  0  0
  -44.4441  -29.0646    0.7093 H   0  0  0  0  0  0  0  0  0  0  0  0
  -47.7313  -29.0980    7.7570 H   0  0  0  0  0  0  0  0  0  0  0  0
  -45.8983  -29.9335    2.3826 H   0  0  0  0  0  0  0  0  0  0  0  0
  1  2  1  0  0  0  0
  1  5  2  0  0  0  0
  2  8  2  0  0  0  0
  3  7  2  0  0  0  0
  3  8  1  0  0  0  0
  4 16  1  0  0  0  0
  4 17  2  0  0  0  0
  5  6  1  0  0  0  0
  5  7  1  0  0  0  0
  6  9  1  0  0  0  0
  6 10  2  0  0  0  0
  7 18  1  0  0  0  0
  8 23  1  0  0  0  0
  9 16  2  0  0  0  0
  9 18  1  0  0  0  0
 10 17  1  0  0  0  0
 10 20  1  0  0  0  0
 11 19  1  0  0  0  0
 11 21  2  0  0  0  0
 11 22  1  0  0  0  0
 12 13  1  0  0  0  0
 12 19  1  0  0  0  0
 13 22  1  0  0  0  0
 14 15  1  0  0  0  0
 14 19  1  0  0  0  0
 15 20  1  0  0  0  0
  1 24  1  0  0  0  0
  2 25  1  0  0  0  0
  3 26  1  0  0  0  0
  4 27  1  0  0  0  0
 12 28  1  0  0  0  0
 12 29  1  0  0  0  0
 13 30  1  0  0  0  0
 13 31  1  0  0  0  0
 14 32  1  0  0  0  0
 14 33  1  0  0  0  0
 15 34  1  0  0  0  0
 15 35  1  0  0  0  0
 18 36  1  0  0  0  0
 20 37  1  0  0  0  0
M  END
> <POSIT::Probability>
0.99

> <POSIT::Method>
SHAPEFIT

> <ReceptorTitle>
UCSF-P4678-REFINED_LIGAND-BOUND-STATE_A__DU__LA1_A-201(A)

> <OMEGA_C>
HbpBwo+458Eg5FJAel5Hwun55sHse1NAWW9HwgxF58FCYLhAMrMvwuTw6sHFFMBAnRU/wjdI6MGQ
LpFAzmc5wss26cEgR5tAxdVBwkcQ6MHZJrhAzTRKwkTG5sFfDZFAGPA4wj2I6cHTu8dAhtY0wpu7
6cE0C4FAZDgxwsHyA8KsJwtAK540wroY/8EgOLQ+zew3wnJ0BMJKmiI/o8Qtwvgq9cGk5+U/U3kw
wlgT6sFT8t4/HRI0wpFq6sGe19lALgEwwrGO6sFfmJRABxI+wrLK6MFr9thA4K4xwuTG/cG9xss/
qjQ1wmNk6cGeDClAICMuwiE/BcKkd0RAisY0wm1nB8Jir8o/t5pPwrYm5sFBG5FAjoQ/wuPa58Gz
gBdAO4hJwvWO5sEdvxdAW5lJwlIK58HaRdZAps4rwlWy68Ezws5Ax+Qxwug0AMKE8/2+Cis3wvId
+MGivhU+LdI7wjlaA8IYaYg/3404wpXMBsIGjJC+obQqwqif9cFvEoE/ut0rwlQz9sE15TFADYwt
wpn448HN6wJAwMYxwleE6MHmkzU/5Ow+wrrI6MEdOfhA0pc3wst378EjfBhA

> <OMEGA_E>
gFPJPA==

> <OMEGA_NBR>
     38817

$$$$
CACHE3HI_1715_86
  -OEChem-03092622533D

 38 41  0     0  0  0  0  0  0999 V2000
  -48.4368  -29.0977    3.2984 C   0  0  0  0  0  0  0  0  0  0  0  0
  -49.8452  -28.9810    3.3072 C   0  0  0  0  0  0  0  0  0  0  0  0
  -49.8477  -28.8373    5.7607 C   0  0  0  0  0  0  0  0  0  0  0  0
  -44.6307  -32.1399    0.8757 C   0  0  0  0  0  0  0  0  0  0  0  0
  -43.9211  -29.3926    6.0022 C   0  0  0  0  0  0  0  0  0  0  0  0
  -47.7701  -29.0922    4.5389 C   0  0  0  0  0  0  0  0  0  0  0  0
  -46.3514  -29.2184    4.8545 C   0  0  0  0  0  0  0  0  0  0  0  0
  -48.4492  -28.9615    5.7548 C   0  0  0  0  0  0  0  0  0  0  0  0
  -50.5470  -28.8579    4.5336 C   0  0  0  0  0  0  0  0  0  0  0  0
  -45.1600  -33.2965    1.3691 C   0  0  0  0  0  0  0  0  0  0  0  0
  -46.2248  -29.1533    6.2420 C   0  0  0  0  0  0  0  0  0  0  0  0
  -45.2179  -29.3780    4.0355 C   0  0  0  0  0  0  0  0  0  0  0  0
  -46.3742  -33.9679    0.8051 C   0  0  0  0  0  0  0  0  0  0  0  0
  -43.1035  -30.4587    1.8598 C   0  0  0  0  0  0  0  0  0  0  0  0
  -44.1527  -29.3200    1.7258 C   0  0  0  0  0  0  0  0  0  0  0  0
  -45.0058  -29.2462    6.8070 N   0  0  0  0  0  0  0  0  0  0  0  0
  -44.0084  -29.4521    4.6452 N   0  0  0  0  0  0  0  0  0  0  0  0
  -44.4735  -33.6268    2.5538 N   0  0  0  0  0  0  0  0  0  0  0  0
  -43.6266  -32.6954    2.8367 N   0  0  0  0  0  0  0  0  0  0  0  0
  -47.5026  -28.9966    6.7793 N   0  0  0  0  0  0  0  0  0  0  0  0
  -43.7528  -31.7818    1.8464 N   0  0  0  0  0  0  0  0  0  0  0  0
  -45.3205  -29.4548    2.6467 N   0  0  0  0  0  0  0  0  0  0  0  0
  -47.3091  -32.9567    0.4282 O   0  0  0  0  0  0  0  0  0  0  0  0
  -51.8963  -28.7731    4.5352 F   0  0  0  0  0  0  0  0  0  0  0  0
  -47.8900  -29.1879    2.3714 H   0  0  0  0  0  0  0  0  0  0  0  0
  -50.3901  -28.9857    2.3748 H   0  0  0  0  0  0  0  0  0  0  0  0
  -50.3825  -28.7274    6.6926 H   0  0  0  0  0  0  0  0  0  0  0  0
  -44.8540  -31.6363   -0.0533 H   0  0  0  0  0  0  0  0  0  0  0  0
  -42.9456  -29.4650    6.4598 H   0  0  0  0  0  0  0  0  0  0  0  0
  -46.0945  -34.5636   -0.0763 H   0  0  0  0  0  0  0  0  0  0  0  0
  -46.8227  -34.6252    1.5646 H   0  0  0  0  0  0  0  0  0  0  0  0
  -42.3966  -30.3967    1.0193 H   0  0  0  0  0  0  0  0  0  0  0  0
  -42.5584  -30.3354    2.8073 H   0  0  0  0  0  0  0  0  0  0  0  0
  -43.6533  -28.3634    1.9391 H   0  0  0  0  0  0  0  0  0  0  0  0
  -44.5272  -29.3155    0.6915 H   0  0  0  0  0  0  0  0  0  0  0  0
  -47.7096  -28.9206    7.7547 H   0  0  0  0  0  0  0  0  0  0  0  0
  -45.7209  -30.3501    2.4512 H   0  0  0  0  0  0  0  0  0  0  0  0
  -48.0880  -33.3636    0.0672 H   0  0  0  0  0  0  0  0  0  0  0  0
  1  2  1  0  0  0  0
  1  6  2  0  0  0  0
  2  9  2  0  0  0  0
  3  8  2  0  0  0  0
  3  9  1  0  0  0  0
  4 10  2  0  0  0  0
  4 21  1  0  0  0  0
  5 16  1  0  0  0  0
  5 17  2  0  0  0  0
  6  7  1  0  0  0  0
  6  8  1  0  0  0  0
  7 11  1  0  0  0  0
  7 12  2  0  0  0  0
  8 20  1  0  0  0  0
  9 24  1  0  0  0  0
 10 13  1  0  0  0  0
 10 18  1  0  0  0  0
 11 16  2  0  0  0  0
 11 20  1  0  0  0  0
 12 17  1  0  0  0  0
 12 22  1  0  0  0  0
 13 23  1  0  0  0  0
 14 15  1  0  0  0  0
 14 21  1  0  0  0  0
 15 22  1  0  0  0  0
 18 19  2  0  0  0  0
 19 21  1  0  0  0  0
  1 25  1  0  0  0  0
  2 26  1  0  0  0  0
  3 27  1  0  0  0  0
  4 28  1  0  0  0  0
  5 29  1  0  0  0  0
 13 30  1  0  0  0  0
 13 31  1  0  0  0  0
 14 32  1  0  0  0  0
 14 33  1  0  0  0  0
 15 34  1  0  0  0  0
 15 35  1  0  0  0  0
 20 36  1  0  0  0  0
 22 37  1  0  0  0  0
 23 38  1  0  0  0  0
M  END
> <POSIT::Probability>
0.83

> <POSIT::Method>
SHAPEFIT

> <ReceptorTitle>
UCSF-P4678-REFINED_LIGAND-BOUND-STATE_A__DU__LA1_A-201(A)

> <OMEGA_C>
QL9Bwv3H6MGuGFNAcGFHwh7Z58GqqFNAEWRHwtOy5sHZV7hA0oUywj2PAMLIKmA/P68vwgIk68En
EsBAoBQ/wuS86MGTPpFAy2c5wl2/6cEtWJtA98tBwhqx58EbJ7hAKDBKwubc5sEvE5FA5KM0wpkv
BcI0P68/JeY4wvI56cGvvsdAGd80wh8G68GbIoFAJn85wiHfB8JcHE4/AGoswl6r88GYDu4/YZww
wmOP6sFk5tw/+AU0wjP46cFZ09lAkAgwwvid68E0pZRA6uQxwt2BBsKmcSNApIEuwiDIAsLgizVA
ngI+wvH458Hj79hA1gIvwhtB/sEsWOw/L0g1wnCj68G8YilAfjw9wqvTA8KQN9s+0pVPwjkv5sH5
H5FAYI8/wtqA6cHWxBdAf49Jwqvi58Et/BdAsYdJwrfR5cFyKdZAiGozwjgX/cHHU1q9Q8grwka4
68EHt85AyGA4wiFBCsIaS5y9eEo7wiuACsKlRMg/GJYpwoMs88HdeYI/0zsqwuSu8sFzqjNAAZ0u
wj7o4sEWNPg/4RsywiaG6sGzBjE/mdY+wktd58E4JvhALOI2wvDM8sGB4BxAE1pAwlZ0BcJ5sok9

> <OMEGA_E>
KGrVPg==

> <OMEGA_NBR>
     40099

$$$$
CACHE3HI_1716_42
  -OEChem-03092622533D

 37 40  0     1  0  0  0  0  0999 V2000
  -48.4539  -29.0293    3.3116 C   0  0  0  0  0  0  0  0  0  0  0  0
  -49.8602  -28.9059    3.3328 C   0  0  0  0  0  0  0  0  0  0  0  0
  -49.8517  -28.9054    5.7892 C   0  0  0  0  0  0  0  0  0  0  0  0
  -43.9257  -29.3044    5.9789 C   0  0  0  0  0  0  0  0  0  0  0  0
  -47.7861  -29.1450    4.5427 C   0  0  0  0  0  0  0  0  0  0  0  0
  -46.3665  -29.2860    4.8390 C   0  0  0  0  0  0  0  0  0  0  0  0
  -48.4555  -29.0376    5.7671 C   0  0  0  0  0  0  0  0  0  0  0  0
  -50.5566  -28.8608    4.5671 C   0  0  0  0  0  0  0  0  0  0  0  0
  -46.2278  -29.1622    6.2261 C   0  0  0  0  0  0  0  0  0  0  0  0
  -45.2362  -29.4964    4.0155 C   0  0  0  0  0  0  0  0  0  0  0  0
  -43.2468  -32.0682    2.7677 C   0  0  0  0  0  0  0  0  0  0  0  0
  -45.1747  -31.7865    1.1246 C   0  0  0  0  0  0  0  0  0  0  0  0
  -46.0762  -31.0573    2.1519 C   0  0  0  0  0  0  0  0  0  0  0  0
  -44.0583  -29.8373    1.8092 C   0  0  0  0  0  0  0  0  0  0  0  0
  -43.7773  -31.3161    1.5199 C   0  0  1  0  0  0  0  0  0  0  0  0
  -45.0068  -29.1876    6.7861 N   0  0  0  0  0  0  0  0  0  0  0  0
  -44.0220  -29.4513    4.6296 N   0  0  0  0  0  0  0  0  0  0  0  0
  -47.5009  -29.0541    6.7796 N   0  0  0  0  0  0  0  0  0  0  0  0
  -45.2960  -29.8478    2.6445 N   0  0  2  0  0  0  0  0  0  0  0  0
  -42.1719  -31.5491    3.4593 N   0  0  0  0  0  0  0  0  0  0  0  0
  -43.6705  -33.1771    3.0771 O   0  0  0  0  0  0  0  0  0  0  0  0
  -42.8240  -31.4281    0.4713 O   0  0  0  0  0  0  0  0  0  0  0  0
  -51.9030  -28.7484    4.5801 F   0  0  0  0  0  0  0  0  0  0  0  0
  -47.9088  -29.0347    2.3792 H   0  0  0  0  0  0  0  0  0  0  0  0
  -50.4082  -28.8454    2.4041 H   0  0  0  0  0  0  0  0  0  0  0  0
  -50.3803  -28.8387    6.7286 H   0  0  0  0  0  0  0  0  0  0  0  0
  -42.9430  -29.2798    6.4263 H   0  0  0  0  0  0  0  0  0  0  0  0
  -45.2680  -32.8786    1.2183 H   0  0  0  0  0  0  0  0  0  0  0  0
  -45.4197  -31.4846    0.0956 H   0  0  0  0  0  0  0  0  0  0  0  0
  -47.0117  -30.7341    1.6720 H   0  0  0  0  0  0  0  0  0  0  0  0
  -46.3080  -31.7263    2.9937 H   0  0  0  0  0  0  0  0  0  0  0  0
  -43.2214  -29.3831    2.3601 H   0  0  0  0  0  0  0  0  0  0  0  0
  -44.2253  -29.2831    0.8738 H   0  0  0  0  0  0  0  0  0  0  0  0
  -47.6994  -28.9968    7.7580 H   0  0  0  0  0  0  0  0  0  0  0  0
  -41.7519  -32.0752    4.1987 H   0  0  0  0  0  0  0  0  0  0  0  0
  -41.8129  -30.6467    3.2211 H   0  0  0  0  0  0  0  0  0  0  0  0
  -43.1425  -30.9692   -0.2972 H   0  0  0  0  0  0  0  0  0  0  0  0
  1  2  1  0  0  0  0
  1  5  2  0  0  0  0
  2  8  2  0  0  0  0
  3  7  2  0  0  0  0
  3  8  1  0  0  0  0
  4 16  1  0  0  0  0
  4 17  2  0  0  0  0
  5  6  1  0  0  0  0
  5  7  1  0  0  0  0
  6  9  1  0  0  0  0
  6 10  2  0  0  0  0
  7 18  1  0  0  0  0
  8 23  1  0  0  0  0
  9 16  2  0  0  0  0
  9 18  1  0  0  0  0
 10 17  1  0  0  0  0
 10 19  1  0  0  0  0
 11 15  1  0  0  0  0
 11 20  1  0  0  0  0
 11 21  2  0  0  0  0
 12 13  1  0  0  0  0
 12 15  1  0  0  0  0
 13 19  1  0  0  0  0
 14 15  1  0  0  0  0
 14 19  1  0  0  0  0
 15 22  1  0  0  0  0
  1 24  1  0  0  0  0
  2 25  1  0  0  0  0
  3 26  1  0  0  0  0
  4 27  1  0  0  0  0
 12 28  1  0  0  0  0
 12 29  1  0  0  0  0
 13 30  1  0  0  0  0
 13 31  1  0  0  0  0
 14 32  1  0  0  0  0
 14 33  1  0  0  0  0
 18 34  1  0  0  0  0
 20 35  1  0  0  0  0
 20 36  1  0  0  0  0
 22 37  1  0  0  0  0
M  END
> <POSIT::Probability>
0.79

> <POSIT::Method>
SHAPEFIT

> <ReceptorTitle>
UCSF-P4678-REFINED_LIGAND-BOUND-STATE_A__DU__LA1_A-201(A)

> <OMEGA_C>
wNBBwg886ME28VNAz3BHwjI/58F3TFVALGhHwk0+58HSQLlA8LMvwldv6sF1U79A/CQ/wuso6cHr
XZFAVnc5wqlJ6sHH2JpAY9JBwuxM6MFCjLhAADpKwtzi5sGAJZJAROk4widM6cHqO8dA1/E0wrD4
68EWf4BAvfwswt5FAMJkITFA6bI0wtdK/sEw8o8//E04wlB1+MEUuQlArzswwsGy7sENlec/8xsv
wk2H+sF3jMI/8gY0wjOA6cEAKNlAgBYwwjuc68HWJZRA4gA+wrZu6MGe8thAFy81wlnI7sFbPylA
E7Aown1k/MGNZF1Al64uwmC1BMJp7kRAwEsrwqts+8GQSvE+tZxPwsn85cEskJJAn6I/whlH6MFt
RRhABqJJwnjD5sGN3RlAeoVJwry15sGSUNdApsUrwvo86sHZo81AahI1wqiDA8Jo8Js/yK01wmLg
+8FqzMM99gs8wmrf9cGNA9Y/aDs5wnfP/cFnmT9AwuIswqQQ68G8CxdAsuYwwsJD6sGus18/OMw+
wob558HLQfhA8QEnwvVMAMLhW4ZAXkAnwlks9cH3Jk5A4ZEswuzA98GlJ5i+

> <OMEGA_E>
yIQmPw==

> <OMEGA_NBR>
     41368

$$$$
CACHE3HI_1716_54
  -OEChem-03092622533D

 40 42  0     1  0  0  0  0  0999 V2000
  -47.6797  -29.1158    4.3706 C   0  0  0  0  0  0  0  0  0  0  0  0
  -43.9681  -29.1806    6.2036 C   0  0  0  0  0  0  0  0  0  0  0  0
  -46.2980  -29.1720    4.8213 C   0  0  0  0  0  0  0  0  0  0  0  0
  -48.4594  -29.0298    5.4961 C   0  0  0  0  0  0  0  0  0  0  0  0
  -46.2996  -29.1537    6.2156 C   0  0  0  0  0  0  0  0  0  0  0  0
  -45.0832  -29.1916    4.1362 C   0  0  0  0  0  0  0  0  0  0  0  0
  -44.3181  -33.1517    1.9247 C   0  0  0  0  0  0  0  0  0  0  0  0
  -45.7352  -32.3395    0.3308 C   0  0  0  0  0  0  0  0  0  0  0  0
  -46.4070  -33.4458    1.0849 C   0  0  0  0  0  0  0  0  0  0  0  0
  -49.9596  -28.8894    5.5033 C   0  0  0  0  0  0  0  0  0  0  0  0
  -42.3002  -30.6120    2.7843 C   0  0  0  0  0  0  0  0  0  0  0  0
  -43.5801  -31.1020    0.6179 C   0  0  0  0  0  0  0  0  0  0  0  0
  -43.9736  -28.8758    1.8819 C   0  0  0  0  0  0  0  0  0  0  0  0
  -42.9801  -30.0164    1.5431 C   0  0  1  0  0  0  0  0  0  0  0  0
  -45.1352  -29.1812    6.8995 N   0  0  0  0  0  0  0  0  0  0  0  0
  -43.9279  -29.1484    4.8452 N   0  0  0  0  0  0  0  0  0  0  0  0
  -47.6257  -29.0806    6.6172 N   0  0  0  0  0  0  0  0  0  0  0  0
  -44.6165  -31.9877    1.1838 N   0  0  0  0  0  0  0  0  0  0  0  0
  -45.1088  -29.2657    2.7438 N   0  0  0  0  0  0  0  0  0  0  0  0
  -43.2917  -33.4193    2.5370 O   0  0  0  0  0  0  0  0  0  0  0  0
  -45.3405  -34.0576    1.8103 O   0  0  0  0  0  0  0  0  0  0  0  0
  -48.0252  -29.1375    3.3476 H   0  0  0  0  0  0  0  0  0  0  0  0
  -43.0372  -29.2068    6.7504 H   0  0  0  0  0  0  0  0  0  0  0  0
  -45.3870  -32.6875   -0.6528 H   0  0  0  0  0  0  0  0  0  0  0  0
  -46.4139  -31.4841    0.1979 H   0  0  0  0  0  0  0  0  0  0  0  0
  -47.1693  -33.0468    1.7703 H   0  0  0  0  0  0  0  0  0  0  0  0
  -46.8743  -34.1635    0.3946 H   0  0  0  0  0  0  0  0  0  0  0  0
  -50.4217  -29.8874    5.5234 H   0  0  0  0  0  0  0  0  0  0  0  0
  -50.2705  -28.3235    6.3939 H   0  0  0  0  0  0  0  0  0  0  0  0
  -50.2820  -28.3543    4.5979 H   0  0  0  0  0  0  0  0  0  0  0  0
  -41.8928  -29.8003    3.4048 H   0  0  0  0  0  0  0  0  0  0  0  0
  -43.0373  -31.1841    3.3669 H   0  0  0  0  0  0  0  0  0  0  0  0
  -41.4836  -31.2787    2.4704 H   0  0  0  0  0  0  0  0  0  0  0  0
  -44.0236  -30.5879   -0.2475 H   0  0  0  0  0  0  0  0  0  0  0  0
  -42.7508  -31.7406    0.2796 H   0  0  0  0  0  0  0  0  0  0  0  0
  -43.4150  -28.0790    2.3947 H   0  0  0  0  0  0  0  0  0  0  0  0
  -44.3814  -28.4879    0.9368 H   0  0  0  0  0  0  0  0  0  0  0  0
  -42.1755  -29.5436    0.9609 H   0  0  0  0  0  0  0  0  0  0  0  0
  -47.9385  -29.0664    7.5669 H   0  0  0  0  0  0  0  0  0  0  0  0
  -45.3010  -30.2223    2.5252 H   0  0  0  0  0  0  0  0  0  0  0  0
  1  3  1  0  0  0  0
  1  4  2  0  0  0  0
  2 15  1  0  0  0  0
  2 16  2  0  0  0  0
  3  5  1  0  0  0  0
  3  6  2  0  0  0  0
  4 10  1  0  0  0  0
  4 17  1  0  0  0  0
  5 15  2  0  0  0  0
  5 17  1  0  0  0  0
  6 16  1  0  0  0  0
  6 19  1  0  0  0  0
  7 18  1  0  0  0  0
  7 20  2  0  0  0  0
  7 21  1  0  0  0  0
  8  9  1  0  0  0  0
  8 18  1  0  0  0  0
  9 21  1  0  0  0  0
 11 14  1  0  0  0  0
 12 14  1  0  0  0  0
 12 18  1  0  0  0  0
 13 14  1  0  0  0  0
 13 19  1  0  0  0  0
  1 22  1  0  0  0  0
  2 23  1  0  0  0  0
  8 24  1  0  0  0  0
  8 25  1  0  0  0  0
  9 26  1  0  0  0  0
  9 27  1  0  0  0  0
 10 28  1  0  0  0  0
 10 29  1  0  0  0  0
 10 30  1  0  0  0  0
 11 31  1  0  0  0  0
 11 32  1  0  0  0  0
 11 33  1  0  0  0  0
 12 34  1  0  0  0  0
 12 35  1  0  0  0  0
 13 36  1  0  0  0  0
 13 37  1  0  0  0  0
 14 38  1  0  0  0  0
 17 39  1  0  0  0  0
 19 40  1  0  0  0  0
M  END
> <POSIT::Probability>
0.91

> <POSIT::Method>
SHAPEFIT

> <ReceptorTitle>
UCSF-P4678-REFINED_LIGAND-BOUND-STATE_A__DU__LA1_A-201(A)

> <OMEGA_C>
DLg+wiLt6MEZ3ItAYt8vwudx6cGxg8ZALzE5wkxg6cEFSJpAYNZBwgg96MEV4K9AvzI5wuA66cFF
5sZAJ1U0wnqI6cF9W4RAwkUxwlCbBMJcXfY/4/A2wppbAcIgZKk+zaA5wnbIBcIs3Yo/ntZHwmgd
58EhG7BAbzMpwmLl9MEaMjJA/FEuwtPQ+MEwMB4//+QvwrUB58GM4fA/o+srwqQh8MHshcU/a4o0
wgFz6cFbyNxAI7YvwtUv6cEZDJtAvIA+wiOl6MHpv9NATHcyws7m/8EEhpc/am80whIg6sHumS9A
vCotwlOtBcKuXSJAo1w1wvw6CMJEt+c/zhlAwqcZ6cH1PlZAGCYswo+n6cGRA9hAPow1wgDAAsI/
Hie/3qc5wlrf+8HUp0o+Wq08wuYvBMJumOI/RH87wnenCMJmCco+1q9JwlgZ78GMv7BA+RRJwoaW
4sHVmsxAwiBJwpTV4sERIpNALpInwvhm7sED6VlAKCYswhp5+cHUe1dAKO8lwtc6+sG3Gx5AMxgw
wvOz9MGDb32+zQArwq/s/cElJI8+66gtwsuh4MErQhlAl4Yxwjbn48Gg0W8/vLMowj5Z7MEP/HU/
CsE/wgiI6MH4I/JARTQ1wl/H8cFanCFA

> <OMEGA_E>
eDb8Pg==

> <OMEGA_NBR>
     42691

$$$$
CACHE3HI_1717_52
  -OEChem-03092622533D

 51 55  0     0  0  0  0  0  0999 V2000
  -43.5296  -28.4575    0.8980 C   0  0  0  0  0  0  0  0  0  0  0  0
  -42.7248  -35.7284   -2.5211 C   0  0  0  0  0  0  0  0  0  0  0  0
  -42.7950  -34.3299   -2.4628 C   0  0  0  0  0  0  0  0  0  0  0  0
  -42.7800  -29.6228    1.0592 C   0  0  0  0  0  0  0  0  0  0  0  0
  -44.8726  -28.4354    1.2737 C   0  0  0  0  0  0  0  0  0  0  0  0
  -43.6353  -36.5114   -1.8140 C   0  0  0  0  0  0  0  0  0  0  0  0
  -43.7770  -33.6945   -1.6959 C   0  0  0  0  0  0  0  0  0  0  0  0
  -49.5657  -30.1374    3.4519 C   0  0  0  0  0  0  0  0  0  0  0  0
  -50.8257  -30.1629    4.0593 C   0  0  0  0  0  0  0  0  0  0  0  0
  -43.3731  -30.7655    1.5963 C   0  0  0  0  0  0  0  0  0  0  0  0
  -48.5116  -29.3981    5.5263 C   0  0  0  0  0  0  0  0  0  0  0  0
  -45.4658  -29.5781    1.8108 C   0  0  0  0  0  0  0  0  0  0  0  0
  -44.6061  -35.8733   -1.0562 C   0  0  0  0  0  0  0  0  0  0  0  0
  -44.6797  -34.4805   -0.9952 C   0  0  0  0  0  0  0  0  0  0  0  0
  -49.7662  -29.4357    6.0900 C   0  0  0  0  0  0  0  0  0  0  0  0
  -48.4184  -29.7584    4.1794 C   0  0  0  0  0  0  0  0  0  0  0  0
  -50.8934  -29.8049    5.3881 C   0  0  0  0  0  0  0  0  0  0  0  0
  -44.7162  -30.7433    1.9721 C   0  0  0  0  0  0  0  0  0  0  0  0
  -51.5497  -29.3448    7.4153 C   0  0  0  0  0  0  0  0  0  0  0  0
  -46.8730  -29.4979    2.1862 C   0  0  0  0  0  0  0  0  0  0  0  0
  -46.1176  -32.7840    0.1296 C   0  0  0  0  0  0  0  0  0  0  0  0
  -45.6699  -36.5203   -0.2300 C   0  0  0  0  0  0  0  0  0  0  0  0
  -46.4093  -35.3091    0.3484 C   0  0  0  0  0  0  0  0  0  0  0  0
  -46.7476  -32.5924    1.4889 C   0  0  0  0  0  0  0  0  0  0  0  0
  -50.1793  -29.1467    7.3632 N   0  0  0  0  0  0  0  0  0  0  0  0
  -45.7487  -34.0899   -0.1618 N   0  0  0  0  0  0  0  0  0  0  0  0
  -47.1568  -29.7429    3.5352 N   0  0  0  0  0  0  0  0  0  0  0  0
  -52.2696  -29.1858    8.3931 O   0  0  0  0  0  0  0  0  0  0  0  0
  -47.7138  -29.2466    1.3106 O   0  0  0  0  0  0  0  0  0  0  0  0
  -45.9742  -31.8102   -0.6110 O   0  0  0  0  0  0  0  0  0  0  0  0
  -52.0404  -29.7669    6.1661 O   0  0  0  0  0  0  0  0  0  0  0  0
  -45.4275  -32.2395    2.6566 S   0  0  0  0  0  0  0  0  0  0  0  0
  -43.0675  -27.5680    0.4799 H   0  0  0  0  0  0  0  0  0  0  0  0
  -41.9547  -36.2040   -3.1222 H   0  0  0  0  0  0  0  0  0  0  0  0
  -42.0777  -33.7332   -3.0201 H   0  0  0  0  0  0  0  0  0  0  0  0
  -41.7342  -29.6401    0.7666 H   0  0  0  0  0  0  0  0  0  0  0  0
  -45.4456  -27.5208    1.1426 H   0  0  0  0  0  0  0  0  0  0  0  0
  -43.5817  -37.5940   -1.8587 H   0  0  0  0  0  0  0  0  0  0  0  0
  -43.8018  -32.6119   -1.6735 H   0  0  0  0  0  0  0  0  0  0  0  0
  -49.4796  -30.4146    2.4034 H   0  0  0  0  0  0  0  0  0  0  0  0
  -51.7082  -30.4538    3.5019 H   0  0  0  0  0  0  0  0  0  0  0  0
  -42.7696  -31.6625    1.7130 H   0  0  0  0  0  0  0  0  0  0  0  0
  -47.6404  -29.1038    6.1009 H   0  0  0  0  0  0  0  0  0  0  0  0
  -46.3325  -37.1285   -0.8531 H   0  0  0  0  0  0  0  0  0  0  0  0
  -45.2305  -37.1319    0.5638 H   0  0  0  0  0  0  0  0  0  0  0  0
  -47.4616  -35.3004    0.0434 H   0  0  0  0  0  0  0  0  0  0  0  0
  -46.3728  -35.3043    1.4435 H   0  0  0  0  0  0  0  0  0  0  0  0
  -47.2649  -33.5077    1.7551 H   0  0  0  0  0  0  0  0  0  0  0  0
  -47.4379  -31.7583    1.4257 H   0  0  0  0  0  0  0  0  0  0  0  0
  -49.5816  -28.8438    8.1219 H   0  0  0  0  0  0  0  0  0  0  0  0
  -46.3534  -29.9344    4.1294 H   0  0  0  0  0  0  0  0  0  0  0  0
  1  4  1  0  0  0  0
  1  5  2  0  0  0  0
  2  3  1  0  0  0  0
  2  6  2  0  0  0  0
  3  7  2  0  0  0  0
  4 10  2  0  0  0  0
  5 12  1  0  0  0  0
  6 13  1  0  0  0  0
  7 14  1  0  0  0  0
  8  9  2  0  0  0  0
  8 16  1  0  0  0  0
  9 17  1  0  0  0  0
 10 18  1  0  0  0  0
 11 15  1  0  0  0  0
 11 16  2  0  0  0  0
 12 18  2  0  0  0  0
 12 20  1  0  0  0  0
 13 14  2  0  0  0  0
 13 22  1  0  0  0  0
 14 26  1  0  0  0  0
 15 17  2  0  0  0  0
 15 25  1  0  0  0  0
 16 27  1  0  0  0  0
 17 31  1  0  0  0  0
 18 32  1  0  0  0  0
 19 25  1  0  0  0  0
 19 28  2  0  0  0  0
 19 31  1  0  0  0  0
 20 27  1  0  0  0  0
 20 29  2  0  0  0  0
 21 24  1  0  0  0  0
 21 26  1  0  0  0  0
 21 30  2  0  0  0  0
 22 23  1  0  0  0  0
 23 26  1  0  0  0  0
 24 32  1  0  0  0  0
  1 33  1  0  0  0  0
  2 34  1  0  0  0  0
  3 35  1  0  0  0  0
  4 36  1  0  0  0  0
  5 37  1  0  0  0  0
  6 38  1  0  0  0  0
  7 39  1  0  0  0  0
  8 40  1  0  0  0  0
  9 41  1  0  0  0  0
 10 42  1  0  0  0  0
 11 43  1  0  0  0  0
 22 44  1  0  0  0  0
 22 45  1  0  0  0  0
 23 46  1  0  0  0  0
 23 47  1  0  0  0  0
 24 48  1  0  0  0  0
 24 49  1  0  0  0  0
 25 50  1  0  0  0  0
 27 51  1  0  0  0  0
M  END
> <POSIT::Probability>
0.24

> <POSIT::Method>
FRED

> <ReceptorTitle>
UCSF-P4678-REFINED_LIGAND-BOUND-STATE_A__DU__LA1_A-201(A)

> <OMEGA_C>
TR4uwg+p48FI4WU/O+YqwtzpDsIcWiHAGi4rws9RCcLonR3Ath4rwnn77MFElYc/ln0zwqJ748Gu
CKM/gIouwrQLEsKUL+i/oRsvwh/HBsLEEtm/S0NGwl8Z8cGE7FxAjU1LwrNN8cEI5oFAEX4twrIf
9sEKVcw/4QtCwk4v68Eu17BA8Nw1wtmf7MF0yOc/mWwywk5+D8LcMoe/+rcywvzrCcKQxH6/jxBH
wmR868GW4cJAZqxBwi4R7sG8vYVA3JJLwldw7sGRa6xAaN0ywjfy9cFGbfw/3zJOwg7C6sF3Su1A
6X07wsv768Fv6wtAbXg4wtwiA8JgrgQ++a02wsUUEsJAiGu+HKM5wpA8DcLQZ7I+hf06wqteAsKo
k74/ordIwoIs6cE4n+tAn/42wgdcCMJAuCW+jqA8wmzx7cGzQGJACRRRwpJ86cFCSgZB89o+wgH5
6cGswqc/keU3wjl7/sHwahy/UylQwoUi7sGZUMVAvbU1wkT1AML1BCpAHEUswl2L3MGAtPU+qNEn
wtnQEMLC0UfAkU8owsLuBsKYSEHAzu8mwvQe7cEYQUQ/S8g1wp8q3MFUQpI/s1MuwkJgFsIs6e2/
ETUvwppyAsIINta/GutFwitR88GX0RlAKdVOwmSh88F7HmBAHhQrws1M/cH0RNs/uI8+woLU6MFy
OsNAgVQ5wp2DFMLwZ1q/BOw0whqHFMK4UhA/odg9wpgzDcKAkjE9yn05wps3DcKMxbg/RA89wukH
BsJ8peA/cMA9whkR/sGsfrY/llNGwgvA5sFw8wFB7Wk5wrV578HOI4RA

> <OMEGA_E>
8SgDwQ==

> <OMEGA_NBR>
     44208

$$$$
CACHE3HI_1879_23
  -OEChem-03092622533D

 54 57  0     1  0  0  0  0  0999 V2000
  -48.0191  -27.9781    4.5662 C   0  0  0  0  0  0  0  0  0  0  0  0
  -49.3445  -27.6611    4.2202 C   0  0  0  0  0  0  0  0  0  0  0  0
  -48.6876  -30.2784    5.0425 C   0  0  0  0  0  0  0  0  0  0  0  0
  -47.6792  -29.2982    4.9479 C   0  0  0  0  0  0  0  0  0  0  0  0
  -50.3478  -28.6475    4.2817 C   0  0  0  0  0  0  0  0  0  0  0  0
  -50.0217  -29.9592    4.7271 C   0  0  0  0  0  0  0  0  0  0  0  0
  -43.5785  -31.5046    2.0710 C   0  0  0  0  0  0  0  0  0  0  0  0
  -45.1408  -28.8471    3.1454 C   0  0  0  0  0  0  0  0  0  0  0  0
  -44.4849  -29.0027    6.8029 C   0  0  0  0  0  0  0  0  0  0  0  0
  -46.1614  -33.0036    0.2107 C   0  0  0  0  0  0  0  0  0  0  0  0
  -45.9613  -29.3660    6.7915 C   0  0  0  0  0  0  0  0  0  0  0  0
  -44.9349  -32.1068    0.0050 C   0  0  0  0  0  0  0  0  0  0  0  0
  -45.9539  -33.6042    1.5988 C   0  0  0  0  0  0  0  0  0  0  0  0
  -44.3090  -28.2425    5.4909 C   0  0  0  0  0  0  0  0  0  0  0  0
  -52.5373  -29.4238    3.7177 C   0  0  0  0  0  0  0  0  0  0  0  0
  -52.3541  -30.4641    4.8377 C   0  0  0  0  0  0  0  0  0  0  0  0
  -46.2460  -29.6687    5.3089 C   0  0  2  0  0  0  0  0  0  0  0  0
  -43.8854  -32.6056    1.0357 C   0  0  2  0  0  0  0  0  0  0  0  0
  -43.9232  -28.1886    2.4744 C   0  0  0  0  0  0  0  0  0  0  0  0
  -42.7150  -29.1530    2.4475 C   0  0  0  0  0  0  0  0  0  0  0  0
  -44.4940  -33.8027    1.6749 N   0  0  0  0  0  0  0  0  0  0  0  0
  -45.2329  -28.9010    4.5411 N   0  0  0  0  0  0  0  0  0  0  0  0
  -42.9795  -30.3329    1.6120 N   0  0  0  0  0  0  0  0  0  0  0  0
  -43.8261  -31.6741    3.2628 O   0  0  0  0  0  0  0  0  0  0  0  0
  -45.9545  -29.4420    2.4444 O   0  0  0  0  0  0  0  0  0  0  0  0
  -51.6388  -28.3058    3.9171 O   0  0  0  0  0  0  0  0  0  0  0  0
  -50.9877  -30.9417    4.8595 O   0  0  0  0  0  0  0  0  0  0  0  0
  -47.2581  -27.2122    4.5408 H   0  0  0  0  0  0  0  0  0  0  0  0
  -49.5939  -26.6583    3.9062 H   0  0  0  0  0  0  0  0  0  0  0  0
  -48.4353  -31.2798    5.3587 H   0  0  0  0  0  0  0  0  0  0  0  0
  -44.2413  -28.3647    7.6653 H   0  0  0  0  0  0  0  0  0  0  0  0
  -43.8558  -29.9047    6.8248 H   0  0  0  0  0  0  0  0  0  0  0  0
  -47.0882  -32.4121    0.1756 H   0  0  0  0  0  0  0  0  0  0  0  0
  -46.2010  -33.7929   -0.5544 H   0  0  0  0  0  0  0  0  0  0  0  0
  -46.1533  -30.2502    7.4171 H   0  0  0  0  0  0  0  0  0  0  0  0
  -46.5758  -28.5254    7.1462 H   0  0  0  0  0  0  0  0  0  0  0  0
  -44.5486  -32.2113   -1.0197 H   0  0  0  0  0  0  0  0  0  0  0  0
  -45.1912  -31.0540    0.1946 H   0  0  0  0  0  0  0  0  0  0  0  0
  -46.2977  -32.9122    2.3817 H   0  0  0  0  0  0  0  0  0  0  0  0
  -46.4863  -34.5618    1.6962 H   0  0  0  0  0  0  0  0  0  0  0  0
  -44.5762  -27.1832    5.6188 H   0  0  0  0  0  0  0  0  0  0  0  0
  -43.2706  -28.3186    5.1360 H   0  0  0  0  0  0  0  0  0  0  0  0
  -52.3213  -29.8941    2.7470 H   0  0  0  0  0  0  0  0  0  0  0  0
  -53.5756  -29.0607    3.7262 H   0  0  0  0  0  0  0  0  0  0  0  0
  -52.5922  -30.0005    5.8064 H   0  0  0  0  0  0  0  0  0  0  0  0
  -53.0323  -31.3118    4.6604 H   0  0  0  0  0  0  0  0  0  0  0  0
  -46.1004  -30.7448    5.1337 H   0  0  0  0  0  0  0  0  0  0  0  0
  -42.9603  -32.8834    0.5094 H   0  0  0  0  0  0  0  0  0  0  0  0
  -44.1866  -27.9133    1.4425 H   0  0  0  0  0  0  0  0  0  0  0  0
  -43.6486  -27.2838    3.0365 H   0  0  0  0  0  0  0  0  0  0  0  0
  -41.8418  -28.6192    2.0443 H   0  0  0  0  0  0  0  0  0  0  0  0
  -42.5004  -29.4841    3.4743 H   0  0  0  0  0  0  0  0  0  0  0  0
  -44.2020  -33.8740    2.6286 H   0  0  0  0  0  0  0  0  0  0  0  0
  -42.7117  -30.2922    0.6494 H   0  0  0  0  0  0  0  0  0  0  0  0
  1  2  1  0  0  0  0
  1  4  2  0  0  0  0
  2  5  2  0  0  0  0
  3  4  1  0  0  0  0
  3  6  2  0  0  0  0
  4 17  1  0  0  0  0
  5  6  1  0  0  0  0
  5 26  1  0  0  0  0
  6 27  1  0  0  0  0
  7 18  1  0  0  0  0
  7 23  1  0  0  0  0
  7 24  2  0  0  0  0
  8 19  1  0  0  0  0
  8 22  1  0  0  0  0
  8 25  2  0  0  0  0
  9 11  1  0  0  0  0
  9 14  1  0  0  0  0
 10 12  1  0  0  0  0
 10 13  1  0  0  0  0
 11 17  1  0  0  0  0
 12 18  1  0  0  0  0
 13 21  1  0  0  0  0
 14 22  1  0  0  0  0
 15 16  1  0  0  0  0
 15 26  1  0  0  0  0
 16 27  1  0  0  0  0
 17 22  1  0  0  0  0
 18 21  1  0  0  0  0
 19 20  1  0  0  0  0
 20 23  1  0  0  0  0
  1 28  1  0  0  0  0
  2 29  1  0  0  0  0
  3 30  1  0  0  0  0
  9 31  1  0  0  0  0
  9 32  1  0  0  0  0
 10 33  1  0  0  0  0
 10 34  1  0  0  0  0
 11 35  1  0  0  0  0
 11 36  1  0  0  0  0
 12 37  1  0  0  0  0
 12 38  1  0  0  0  0
 13 39  1  0  0  0  0
 13 40  1  0  0  0  0
 14 41  1  0  0  0  0
 14 42  1  0  0  0  0
 15 43  1  0  0  0  0
 15 44  1  0  0  0  0
 16 45  1  0  0  0  0
 16 46  1  0  0  0  0
 17 47  1  0  0  0  0
 18 48  1  0  0  0  0
 19 49  1  0  0  0  0
 19 50  1  0  0  0  0
 20 51  1  0  0  0  0
 20 52  1  0  0  0  0
 21 53  1  0  0  0  0
 23 54  1  0  0  0  0
M  END
> <POSIT::Probability>
0.25

> <POSIT::Method>
SHAPEFIT

> <ReceptorTitle>
UCSF-P4678-REFINED_LIGAND-BOUND-STATE_A__DU__LA1_A-201(A)

> <OMEGA_C>
ihNAwjvT38GmHpJAyGBFwupJ3cGlC4dAHMBCwj868sEpXKFAfbc+ws9i6sEJVZ5AI2RJwiEu5cEQ
BIlAMBZIwnys78EURJdAY1AuwmwJ/MGkiwRAJJA0wsPG5sFwTUlAj/Axwm8F6MGjsdlARqU4wroD
BMLWy1c+Xtg3wqnt6sEoVNlAW70zwlxtAMKABKM7w9A3wrNqBsI+pcw/cjwxwrjw4cEnta9ALiZS
wv9j68FY7m1ApWpRwn2288F6zppA9Ps4wnJZ7cGr4qlAmoovwidsAsIRk4Q/aLEvwkOC4cESXR5A
Mtwqwj856cHCoxxA3vkxwvs1B8JtYtY/c+40wlA158HxUJFABusrwrep8sE1Vc4/6k0vwqFk/cG0
0VBAX9E3wkKJ68F2cRxAFY5OwjZy4sGwsXpAbfNLwqyI98GfgJtARgg9wqKy2cFVTpFAJ2BGwiFE
1cH5/3lAwr1Bwg09+sHDeqtAHPcwwuTq4sEWSvVATmwvwtM878HmZNpARVo8wgOmAcIM1zM+yc04
wvArB8J27w2/Bp04wmwA8sEVWe1AmU06who05MGpreRAzzEywl7YAMIlhIK/wsM0wpxu+ME4T0c+
0DA5wiOmA8JbbhhA7fE5wlI/CsKLHdk/AU4ywh932cH5zLNAGxUtwmmM4sFaWqRA9khRwhwn78Ec
zy9AZk1Wwk186MGoeW5AbV5SwvMA8MH9zblAICFUwpZ++sHxIZVA3GY4wmX19cEWR6RAU9crwpyI
A8IIZgI/EL8wwoJO38HZo7g/LZguwk5F2sHNVkJAC14nwgX05MFx1QJAXQAqwoLf68EnWl5A3M4w
wvZ+B8KcOyhAv9gqwmxW8sFbPSY/

> <OMEGA_E>
h1qUPw==

> <OMEGA_NBR>
     45813

$$$$
CACHE3-HO_1715_36
  -OEChem-03092622523D

 38 41  0     0  0  0  0  0  0999 V2000
  -48.3832  -28.9214    3.3063 C   0  0  0  0  0  0  0  0  0  0  0  0
  -49.7888  -28.8529    3.2750 C   0  0  0  0  0  0  0  0  0  0  0  0
  -49.8691  -28.9029    5.7323 C   0  0  0  0  0  0  0  0  0  0  0  0
  -43.9406  -29.4577    6.0518 C   0  0  0  0  0  0  0  0  0  0  0  0
  -47.7531  -28.9828    4.5654 C   0  0  0  0  0  0  0  0  0  0  0  0
  -46.3465  -29.1145    4.9047 C   0  0  0  0  0  0  0  0  0  0  0  0
  -48.4659  -28.9813    5.7664 C   0  0  0  0  0  0  0  0  0  0  0  0
  -50.5286  -28.8443    4.4814 C   0  0  0  0  0  0  0  0  0  0  0  0
  -46.2462  -29.1953    6.2914 C   0  0  0  0  0  0  0  0  0  0  0  0
  -45.2142  -29.2047    4.0840 C   0  0  0  0  0  0  0  0  0  0  0  0
  -43.2085  -32.5848    2.8111 C   0  0  0  0  0  0  0  0  0  0  0  0
  -45.1471  -31.9337    1.5546 C   0  0  0  0  0  0  0  0  0  0  0  0
  -43.3714  -31.5403    0.5678 C   0  0  0  0  0  0  0  0  0  0  0  0
  -44.6219  -30.6219    0.8277 C   0  0  0  0  0  0  0  0  0  0  0  0
  -44.2833  -29.3926    1.7203 C   0  0  0  0  0  0  0  0  0  0  0  0
  -45.0342  -29.3619    6.8591 N   0  0  0  0  0  0  0  0  0  0  0  0
  -44.0107  -29.3828    4.6894 N   0  0  0  0  0  0  0  0  0  0  0  0
  -47.5408  -29.0933    6.8110 N   0  0  0  0  0  0  0  0  0  0  0  0
  -43.8282  -32.4636    1.5665 N   0  0  0  0  0  0  0  0  0  0  0  0
  -42.2395  -31.6864    3.2271 N   0  0  0  0  0  0  0  0  0  0  0  0
  -45.3472  -29.0944    2.6971 N   0  0  0  0  0  0  0  0  0  0  0  0
  -43.5760  -33.4603    3.5842 O   0  0  0  0  0  0  0  0  0  0  0  0
  -51.8776  -28.7896    4.4352 F   0  0  0  0  0  0  0  0  0  0  0  0
  -47.8055  -28.9266    2.3938 H   0  0  0  0  0  0  0  0  0  0  0  0
  -50.3044  -28.8068    2.3271 H   0  0  0  0  0  0  0  0  0  0  0  0
  -50.4376  -28.8876    6.6505 H   0  0  0  0  0  0  0  0  0  0  0  0
  -42.9731  -29.5995    6.5104 H   0  0  0  0  0  0  0  0  0  0  0  0
  -45.5666  -31.7538    2.5555 H   0  0  0  0  0  0  0  0  0  0  0  0
  -45.8606  -32.5212    0.9582 H   0  0  0  0  0  0  0  0  0  0  0  0
  -43.3300  -31.9631   -0.4468 H   0  0  0  0  0  0  0  0  0  0  0  0
  -42.4091  -31.0637    0.8060 H   0  0  0  0  0  0  0  0  0  0  0  0
  -45.1841  -30.3713   -0.0841 H   0  0  0  0  0  0  0  0  0  0  0  0
  -43.3509  -29.5990    2.2661 H   0  0  0  0  0  0  0  0  0  0  0  0
  -44.1425  -28.5145    1.0729 H   0  0  0  0  0  0  0  0  0  0  0  0
  -47.7713  -29.0996    7.7840 H   0  0  0  0  0  0  0  0  0  0  0  0
  -41.8517  -31.7591    4.1460 H   0  0  0  0  0  0  0  0  0  0  0  0
  -41.9278  -30.9651    2.6085 H   0  0  0  0  0  0  0  0  0  0  0  0
  -46.1090  -29.6947    2.4534 H   0  0  0  0  0  0  0  0  0  0  0  0
  1  2  1  0  0  0  0
  1  5  2  0  0  0  0
  2  8  2  0  0  0  0
  3  7  2  0  0  0  0
  3  8  1  0  0  0  0
  4 16  1  0  0  0  0
  4 17  2  0  0  0  0
  5  6  1  0  0  0  0
  5  7  1  0  0  0  0
  6  9  1  0  0  0  0
  6 10  2  0  0  0  0
  7 18  1  0  0  0  0
  8 23  1  0  0  0  0
  9 16  2  0  0  0  0
  9 18  1  0  0  0  0
 10 17  1  0  0  0  0
 10 21  1  0  0  0  0
 11 19  1  0  0  0  0
 11 20  1  0  0  0  0
 11 22  2  0  0  0  0
 12 14  1  0  0  0  0
 12 19  1  0  0  0  0
 13 14  1  0  0  0  0
 13 19  1  0  0  0  0
 14 15  1  0  0  0  0
 15 21  1  0  0  0  0
  1 24  1  0  0  0  0
  2 25  1  0  0  0  0
  3 26  1  0  0  0  0
  4 27  1  0  0  0  0
 12 28  1  0  0  0  0
 12 29  1  0  0  0  0
 13 30  1  0  0  0  0
 13 31  1  0  0  0  0
 14 32  1  0  0  0  0
 15 33  1  0  0  0  0
 15 34  1  0  0  0  0
 18 35  1  0  0  0  0
 20 36  1  0  0  0  0
 20 37  1  0  0  0  0
 21 38  1  0  0  0  0
M  END
> <POSIT::Probability>
0.91

> <POSIT::Method>
SHAPEFIT

> <ReceptorTitle>
UCSF-P4685-REFINED_LIGAND-BOUND-STATE_A__DU__LA1_A-201(A)

> <OMEGA_C>
YYhBwvJe58G9mlNAuydHwsvS5sGJmVFA+3lHwjI558H4brdALcMvwmip68G4qMFAJgM/ws/c58Eq
GJJA1WI5wnbq6MGH85xAEt1Bwp3Z58EMhrhATh1KwijB5sFuZ49AGvw4wvGP6cFrU8lATds0wkuj
6cG6r4JAitUswt9WAsKP6TNArpY0wjt4/8FU/sY/V3wtwpBS/MGoXRE/3nwywp759MEY4VM/ICIx
wvUj68H8Mtw/AyM0wkHl6sGRfdtA+gowwuUP68HED5ZAwik+wiS/6MGH89lAElAvwsPaAcIEgsg/
PvUowrl9/cG/iE5AgWM1wmTB6MF+nCxA1U0uwl/XBcJrY2VArYJPwh5R5sHk7I1A3jg/wrFp58EB
NBlAszdJwmd05sHJ7xRAEsBJwucZ58Gb0NRAf+Qrws/L7MGTVdBAO0Q2wr8H/sHEjCNATnE3wr4V
AsIMTXU/61EtwnO0/8GuxeS+7KIpwl6C+MH3Vk4/hLw0wob48sEqJay9TmctwrHK7MGaCBFA8JEw
wqAd5MH2VIk/wxU/wuzL6MHUFvlAH2gnwqcS/sG3q4RAGbYnwp+498Fv8SZAnG84wqqO7cELBR1A

> <OMEGA_E>
1BjTPg==

> <OMEGA_NBR>
      1284

$$$$
CACHE3HI_1687_47
  -OEChem-03092622523D

 26 28  0     0  0  0  0  0  0999 V2000
  -49.3822  -28.3485    4.6438 C   0  0  0  0  0  0  0  0  0  0  0  0
  -48.4380  -28.4191    5.6651 C   0  0  0  0  0  0  0  0  0  0  0  0
  -42.4310  -30.9338    3.2441 C   0  0  0  0  0  0  0  0  0  0  0  0
  -48.9932  -28.6862    3.3438 C   0  0  0  0  0  0  0  0  0  0  0  0
  -47.1683  -28.8220    5.3185 C   0  0  0  0  0  0  0  0  0  0  0  0
  -41.2101  -30.2543    3.3946 C   0  0  0  0  0  0  0  0  0  0  0  0
  -43.3427  -29.9286    3.0571 C   0  0  0  0  0  0  0  0  0  0  0  0
  -46.8776  -29.1346    4.0121 C   0  0  0  0  0  0  0  0  0  0  0  0
  -45.0688  -29.3893    5.3060 C   0  0  0  0  0  0  0  0  0  0  0  0
  -39.8766  -30.8340    3.6218 C   0  0  0  0  0  0  0  0  0  0  0  0
  -44.8270  -29.8996    2.8304 C   0  0  0  0  0  0  0  0  0  0  0  0
  -47.7454  -29.0843    2.9921 N   0  0  0  0  0  0  0  0  0  0  0  0
  -41.3532  -28.9291    3.3076 N   0  0  0  0  0  0  0  0  0  0  0  0
  -45.5448  -29.4929    4.0112 N   0  0  0  0  0  0  0  0  0  0  0  0
  -43.9326  -29.6256    5.6983 O   0  0  0  0  0  0  0  0  0  0  0  0
  -42.7110  -28.7268    3.0926 O   0  0  0  0  0  0  0  0  0  0  0  0
  -46.0896  -28.9592    6.1716 O   0  0  0  0  0  0  0  0  0  0  0  0
  -50.4005  -28.0377    4.8514 H   0  0  0  0  0  0  0  0  0  0  0  0
  -48.6973  -28.1662    6.6862 H   0  0  0  0  0  0  0  0  0  0  0  0
  -42.6223  -31.9967    3.2663 H   0  0  0  0  0  0  0  0  0  0  0  0
  -49.7074  -28.6410    2.5275 H   0  0  0  0  0  0  0  0  0  0  0  0
  -39.3460  -31.0470    2.6760 H   0  0  0  0  0  0  0  0  0  0  0  0
  -39.9260  -31.7966    4.1628 H   0  0  0  0  0  0  0  0  0  0  0  0
  -39.2387  -30.1542    4.2132 H   0  0  0  0  0  0  0  0  0  0  0  0
  -45.0807  -29.2031    2.0245 H   0  0  0  0  0  0  0  0  0  0  0  0
  -45.1987  -30.8867    2.5362 H   0  0  0  0  0  0  0  0  0  0  0  0
  1  2  1  0  0  0  0
  1  4  2  0  0  0  0
  2  5  2  0  0  0  0
  3  6  1  0  0  0  0
  3  7  2  0  0  0  0
  4 12  1  0  0  0  0
  5  8  1  0  0  0  0
  5 17  1  0  0  0  0
  6 10  1  0  0  0  0
  6 13  2  0  0  0  0
  7 11  1  0  0  0  0
  7 16  1  0  0  0  0
  8 12  2  0  0  0  0
  8 14  1  0  0  0  0
  9 14  1  0  0  0  0
  9 15  2  0  0  0  0
  9 17  1  0  0  0  0
 11 14  1  0  0  0  0
 13 16  1  0  0  0  0
  1 18  1  0  0  0  0
  2 19  1  0  0  0  0
  3 20  1  0  0  0  0
  4 21  1  0  0  0  0
 10 22  1  0  0  0  0
 10 23  1  0  0  0  0
 10 24  1  0  0  0  0
 11 25  1  0  0  0  0
 11 26  1  0  0  0  0
M  END
> <POSIT::Probability>
0.18

> <POSIT::Method>
FRED

> <ReceptorTitle>
UCSF-P4685-REFINED_LIGAND-BOUND-STATE_A__DU__LA1_A-201(A)

> <OMEGA_C>
XIdFwqXJ4sFLmpRAfMBBwlFa48FYSLVAS7kpwnZ498FBn09AEvlDwkx95cHaAFZAVqw8woWT5sEy
MapALdckwsoI8sFbQFlA6V4twuBt78EqqENAtII7wpIT6cFyY4BAbEY0wkcd68HcyqlArIEfwgCs
9sEcy2dA2E4zwnky78FFJTVAQfs+wpus6MFHfj9At2klwthu58EGr1NA1S02wo7x68EWXIBA/Lov
wisB7cErWLZAG9gqwnLQ5cEA7UVAvVs4wl6s58FjfcVAIZpJwktN4MFbPptAE8pCwnNU4cGD9dVA
MX0qwjz5/8GfC1FAZdRGwq4g5cGcwiFARmIdwi9g+ME5QytAL7Qfwnhf/sHdNYVAcPQcwuU78cHG
0oZAo1I0wt+f6cGukAFAeMs0wgAY98F0USJA

> <OMEGA_E>
gszVwA==

> <OMEGA_NBR>
      2291

$$$$
CACHE3HI_1689_34
  -OEChem-03092622523D

 44 45  0     0  0  0  0  0  0999 V2000
  -51.0132  -30.0007    3.6305 C   0  0  0  0  0  0  0  0  0  0  0  0
  -49.6620  -29.8969    3.3000 C   0  0  0  0  0  0  0  0  0  0  0  0
  -51.4253  -29.8037    4.9484 C   0  0  0  0  0  0  0  0  0  0  0  0
  -49.1354  -29.3989    5.6048 C   0  0  0  0  0  0  0  0  0  0  0  0
  -48.7232  -29.5959    4.2869 C   0  0  0  0  0  0  0  0  0  0  0  0
  -50.4865  -29.5027    5.9353 C   0  0  0  0  0  0  0  0  0  0  0  0
  -42.3004  -29.0345    1.9681 C   0  0  0  0  0  0  0  0  0  0  0  0
  -43.3170  -30.9452    0.7150 C   0  0  0  0  0  0  0  0  0  0  0  0
  -46.6749  -30.1618    2.9375 C   0  0  0  0  0  0  0  0  0  0  0  0
  -52.1310  -28.8025    7.7204 C   0  0  0  0  0  0  0  0  0  0  0  0
  -43.5610  -28.2291    1.7529 C   0  0  0  0  0  0  0  0  0  0  0  0
  -44.5732  -30.1325    0.5039 C   0  0  0  0  0  0  0  0  0  0  0  0
  -44.8039  -29.1008    1.6034 C   0  0  0  0  0  0  0  0  0  0  0  0
  -54.3457  -29.3726    9.9821 C   0  0  0  0  0  0  0  0  0  0  0  0
  -45.2151  -29.7510    2.9272 C   0  0  0  0  0  0  0  0  0  0  0  0
  -53.2878  -28.2874    9.8801 C   0  0  0  0  0  0  0  0  0  0  0  0
  -42.2961  -30.3065    1.4087 N   0  0  0  0  0  0  0  0  0  0  0  0
  -47.3534  -29.4901    3.9504 N   0  0  0  0  0  0  0  0  0  0  0  0
  -50.8994  -29.3052    7.2534 N   0  0  0  0  0  0  0  0  0  0  0  0
  -52.1533  -28.7587    9.1181 N   0  0  0  0  0  0  0  0  0  0  0  0
  -41.3297  -28.5598    2.5586 O   0  0  0  0  0  0  0  0  0  0  0  0
  -43.2024  -32.0799    0.2511 O   0  0  0  0  0  0  0  0  0  0  0  0
  -47.1356  -30.9737    2.1423 O   0  0  0  0  0  0  0  0  0  0  0  0
  -53.0753  -28.4438    7.0210 O   0  0  0  0  0  0  0  0  0  0  0  0
  -51.7441  -30.2354    2.8620 H   0  0  0  0  0  0  0  0  0  0  0  0
  -49.3517  -30.0524    2.2695 H   0  0  0  0  0  0  0  0  0  0  0  0
  -52.4807  -29.8873    5.1950 H   0  0  0  0  0  0  0  0  0  0  0  0
  -48.4034  -29.1639    6.3745 H   0  0  0  0  0  0  0  0  0  0  0  0
  -43.6806  -27.5372    2.5943 H   0  0  0  0  0  0  0  0  0  0  0  0
  -43.4116  -27.6287    0.8474 H   0  0  0  0  0  0  0  0  0  0  0  0
  -44.4762  -29.6320   -0.4670 H   0  0  0  0  0  0  0  0  0  0  0  0
  -45.4259  -30.8180    0.4406 H   0  0  0  0  0  0  0  0  0  0  0  0
  -45.6355  -28.4547    1.2930 H   0  0  0  0  0  0  0  0  0  0  0  0
  -53.9298  -30.2594   10.4706 H   0  0  0  0  0  0  0  0  0  0  0  0
  -54.7057  -29.6712    8.9918 H   0  0  0  0  0  0  0  0  0  0  0  0
  -55.2047  -29.0340   10.5714 H   0  0  0  0  0  0  0  0  0  0  0  0
  -44.5951  -30.6334    3.0939 H   0  0  0  0  0  0  0  0  0  0  0  0
  -45.0383  -29.0415    3.7384 H   0  0  0  0  0  0  0  0  0  0  0  0
  -53.7110  -27.4042    9.3907 H   0  0  0  0  0  0  0  0  0  0  0  0
  -52.9609  -27.9912   10.8822 H   0  0  0  0  0  0  0  0  0  0  0  0
  -41.4367  -30.8375    1.5213 H   0  0  0  0  0  0  0  0  0  0  0  0
  -46.8132  -28.8446    4.5226 H   0  0  0  0  0  0  0  0  0  0  0  0
  -50.2179  -29.5588    7.9771 H   0  0  0  0  0  0  0  0  0  0  0  0
  -51.3473  -29.1041    9.6300 H   0  0  0  0  0  0  0  0  0  0  0  0
  1  2  1  0  0  0  0
  1  3  2  0  0  0  0
  2  5  2  0  0  0  0
  3  6  1  0  0  0  0
  4  5  1  0  0  0  0
  4  6  2  0  0  0  0
  5 18  1  0  0  0  0
  6 19  1  0  0  0  0
  7 11  1  0  0  0  0
  7 17  1  0  0  0  0
  7 21  2  0  0  0  0
  8 12  1  0  0  0  0
  8 17  1  0  0  0  0
  8 22  2  0  0  0  0
  9 15  1  0  0  0  0
  9 18  1  0  0  0  0
  9 23  2  0  0  0  0
 10 19  1  0  0  0  0
 10 20  1  0  0  0  0
 10 24  2  0  0  0  0
 11 13  1  0  0  0  0
 12 13  1  0  0  0  0
 13 15  1  0  0  0  0
 14 16  1  0  0  0  0
 16 20  1  0  0  0  0
  1 25  1  0  0  0  0
  2 26  1  0  0  0  0
  3 27  1  0  0  0  0
  4 28  1  0  0  0  0
 11 29  1  0  0  0  0
 11 30  1  0  0  0  0
 12 31  1  0  0  0  0
 12 32  1  0  0  0  0
 13 33  1  0  0  0  0
 14 34  1  0  0  0  0
 14 35  1  0  0  0  0
 14 36  1  0  0  0  0
 15 37  1  0  0  0  0
 15 38  1  0  0  0  0
 16 39  1  0  0  0  0
 16 40  1  0  0  0  0
 17 41  1  0  0  0  0
 18 42  1  0  0  0  0
 19 43  1  0  0  0  0
 20 44  1  0  0  0  0
M  END
> <POSIT::Probability>
0.24

> <POSIT::Method>
FRED

> <ReceptorTitle>
UCSF-P4685-REFINED_LIGAND-BOUND-STATE_A__DU__LA1_A-201(A)

> <OMEGA_C>
gQ1MwmoB8MF2WmhA56VGws4s78HQMlNAgbNNwgJu7sFIWZ5AmopEwvow68HTWrNAkORCwmbE7MFm
LolAKfJJwpoF7MFG7r1AmTMpwptG6MHQ6fs/nEQtwr6P98FQCzc/F7M6wm5L8cEMADxAKIZQwoJr
5sEdDfdAcD4uwhzV4cGwXuA/+koywk4P8cEQAgE/Pjczwn7O6MGgO80/BWJZwgb76sG9th9BStw0
wvoB7sFKVztAqCZVwn9M4sHPFB5BNC8pwrVz8sHYULQ/7Gk9wqTr68G603xABJlLwvpw6sG4G+hA
/JxQwsAR5sHw4xFBmlElwnd65MGcwCNAT88swt1RAMJAkYA+0oo8wjDK98GgGglAIk1UwtKM48FG
rOBAAPpOwg7i8cGAKzdAHmhFwmpr8MEoQBFANOxRwkAZ78F6PaZACZ1BwsRP6cEM/MtA/LguwixM
3MGSCSZAhqUtwpwH3cGQ7lg/pucxwlIO7cGAIO++JLQ1wjSL9sHAmeE+zIo2wj6j48H4gaU/J7hX
wjgT8sGxhydBr9JawpRe7cFe3g9BotFcwqxF6MGfJClBbmEywigR9cFSAkZANic0wvJU6MG4QW9A
FNhWwsI728FKQBZB+NdTwgLu38GNHS5BOb8lwjaz9sEoucI/vkA7wtLB5sE6uZBAJ99Iwlt47MF6
RP9AqmNNwj/V6MFcFBpB

> <OMEGA_E>
B6QDwQ==

> <OMEGA_NBR>
      3657

$$$$
CACHE3HI_1689_95
  -OEChem-03092622523D

 42 44  0     1  0  0  0  0  0999 V2000
  -42.1789  -30.9944    0.5565 C   0  0  0  0  0  0  0  0  0  0  0  0
  -41.9595  -29.7777    1.2024 C   0  0  0  0  0  0  0  0  0  0  0  0
  -44.5486  -30.7915    0.9817 C   0  0  0  0  0  0  0  0  0  0  0  0
  -43.4737  -31.5013    0.4464 C   0  0  0  0  0  0  0  0  0  0  0  0
  -43.0345  -29.0679    1.7377 C   0  0  0  0  0  0  0  0  0  0  0  0
  -44.3292  -29.5748    1.6275 C   0  0  0  0  0  0  0  0  0  0  0  0
  -50.4873  -29.6495    5.0820 C   0  0  0  0  0  0  0  0  0  0  0  0
  -49.5869  -29.3303    6.0078 C   0  0  0  0  0  0  0  0  0  0  0  0
  -51.9049  -29.7979    5.4770 C   0  0  0  0  0  0  0  0  0  0  0  0
  -51.2507  -29.2724    7.6698 C   0  0  0  0  0  0  0  0  0  0  0  0
  -49.8550  -29.8040    3.7517 C   0  0  0  0  0  0  0  0  0  0  0  0
  -48.2319  -29.2299    5.4108 C   0  0  0  0  0  0  0  0  0  0  0  0
  -43.7087  -32.8019   -0.2447 C   0  0  0  0  0  0  0  0  0  0  0  0
  -42.7802  -27.7669    2.4245 C   0  0  0  0  0  0  0  0  0  0  0  0
  -47.6117  -29.1209    3.0430 C   0  0  0  0  0  0  0  0  0  0  0  0
  -46.1613  -29.5564    3.1442 C   0  0  0  0  0  0  0  0  0  0  0  0
  -52.2052  -29.5861    6.8214 N   0  0  0  0  0  0  0  0  0  0  0  0
  -49.9247  -29.1335    7.3073 N   0  0  0  0  0  0  0  0  0  0  0  0
  -48.4013  -29.8079    4.0532 N   0  0  2  0  0  0  0  0  0  0  0  0
  -51.4858  -29.0528    9.0023 N   0  0  0  0  0  0  0  0  0  0  0  0
  -52.7431  -30.0932    4.6304 O   0  0  0  0  0  0  0  0  0  0  0  0
  -45.3965  -28.8901    2.1477 O   0  0  0  0  0  0  0  0  0  0  0  0
  -41.3355  -31.5404    0.1424 H   0  0  0  0  0  0  0  0  0  0  0  0
  -40.9472  -29.3907    1.2842 H   0  0  0  0  0  0  0  0  0  0  0  0
  -45.5589  -31.1848    0.8972 H   0  0  0  0  0  0  0  0  0  0  0  0
  -50.1358  -30.7472    3.2738 H   0  0  0  0  0  0  0  0  0  0  0  0
  -50.1469  -28.9678    3.1052 H   0  0  0  0  0  0  0  0  0  0  0  0
  -47.9174  -28.1797    5.3831 H   0  0  0  0  0  0  0  0  0  0  0  0
  -47.4951  -29.8144    5.9704 H   0  0  0  0  0  0  0  0  0  0  0  0
  -43.6541  -33.6431    0.4587 H   0  0  0  0  0  0  0  0  0  0  0  0
  -42.9510  -32.9846   -1.0182 H   0  0  0  0  0  0  0  0  0  0  0  0
  -44.6980  -32.8091   -0.7188 H   0  0  0  0  0  0  0  0  0  0  0  0
  -42.8301  -26.9283    1.7185 H   0  0  0  0  0  0  0  0  0  0  0  0
  -41.7799  -27.7452    2.8756 H   0  0  0  0  0  0  0  0  0  0  0  0
  -43.5227  -27.6023    3.2144 H   0  0  0  0  0  0  0  0  0  0  0  0
  -48.0204  -29.3703    2.0592 H   0  0  0  0  0  0  0  0  0  0  0  0
  -47.7098  -28.0436    3.2087 H   0  0  0  0  0  0  0  0  0  0  0  0
  -45.7376  -29.3247    4.1268 H   0  0  0  0  0  0  0  0  0  0  0  0
  -46.0810  -30.6333    2.9673 H   0  0  0  0  0  0  0  0  0  0  0  0
  -49.1991  -28.8911    7.9712 H   0  0  0  0  0  0  0  0  0  0  0  0
  -52.4181  -29.1354    9.3359 H   0  0  0  0  0  0  0  0  0  0  0  0
  -50.7154  -28.8194    9.5842 H   0  0  0  0  0  0  0  0  0  0  0  0
  1  2  2  0  0  0  0
  1  4  1  0  0  0  0
  2  5  1  0  0  0  0
  3  4  2  0  0  0  0
  3  6  1  0  0  0  0
  4 13  1  0  0  0  0
  5  6  2  0  0  0  0
  5 14  1  0  0  0  0
  6 22  1  0  0  0  0
  7  8  2  0  0  0  0
  7  9  1  0  0  0  0
  7 11  1  0  0  0  0
  8 12  1  0  0  0  0
  8 18  1  0  0  0  0
  9 17  1  0  0  0  0
  9 21  2  0  0  0  0
 10 17  2  0  0  0  0
 10 18  1  0  0  0  0
 10 20  1  0  0  0  0
 11 19  1  0  0  0  0
 12 19  1  0  0  0  0
 15 16  1  0  0  0  0
 15 19  1  0  0  0  0
 16 22  1  0  0  0  0
  1 23  1  0  0  0  0
  2 24  1  0  0  0  0
  3 25  1  0  0  0  0
 11 26  1  0  0  0  0
 11 27  1  0  0  0  0
 12 28  1  0  0  0  0
 12 29  1  0  0  0  0
 13 30  1  0  0  0  0
 13 31  1  0  0  0  0
 13 32  1  0  0  0  0
 14 33  1  0  0  0  0
 14 34  1  0  0  0  0
 14 35  1  0  0  0  0
 15 36  1  0  0  0  0
 15 37  1  0  0  0  0
 16 38  1  0  0  0  0
 16 39  1  0  0  0  0
 18 40  1  0  0  0  0
 20 41  1  0  0  0  0
 20 42  1  0  0  0  0
M  END
> <POSIT::Probability>
0.24

> <POSIT::Method>
FRED

> <ReceptorTitle>
UCSF-P4685-REFINED_LIGAND-BOUND-STATE_A__DU__LA1_A-201(A)

> <OMEGA_C>
NrcowqD098EAeQ4/gdYnwsI47sFM55k/0DEywvNU9sE4T3s/CuUtwrYC/MFAi+Q+RyMswgCL6MEg
bN4/JVExwiqZ7MHsUdA/+PJJwiky7cEYoKJA9lhGwoSk6sE8QMBAoZ5PwiZi7sFmQ69AwABNwugt
6sHKbvVAgWtHwoBu7sHMG3BAcu1AwtzW6cGhJa1AvNUuwio1A8IAlnq+9B4rwq8i3sFDKhtAY3I+
woz36MFUwUJAMqU4wnRz7MHGOUlAJtJQwmaw7MFKSdpA37JHwm0R6cEL1elA5ZpBwpV27sHqs4FA
gPFNwhVs6MGcCRBB7PhSwtu+8MFILJRA/ZU1wuge58EQdAlAilclwqZS/MGg0hE++skjwjkg68HA
X6Q/SDw2woJ6+cFQrmU/CotIwl769cEUhlFAdJZIwhu+58FRvEZAYqs/whRw4cFSQqxA8Po9wvSD
7sGqDb9AyJ0uwoKSBsKQ3eo+180rwjnwA8IIU4K/tsoywow8A8JoADi/D1IrwjRt18GQ9ts/px4n
wiP23cFfCThAMhcuwpLR3MEiuE1A5hRAwm/26sF4yQNA4dY+wlBZ4MEFW01ARPM2wgyZ6sGWDoRA
+FI4wuwQ9cGs5z1A4stEwgwh58FQFP9ALqxRwlsV6cGlXxVBnNxKwjmO5sG2WBlB

> <OMEGA_E>
fvUTwQ==

> <OMEGA_NBR>
      4991

$$$$
CACHE3HI_1690_79
  -OEChem-03092622523D

 50 52  0     1  0  0  0  0  0999 V2000
  -46.3324  -34.3551    0.3678 C   0  0  0  0  0  0  0  0  0  0  0  0
  -49.1463  -28.5684    6.5779 C   0  0  0  0  0  0  0  0  0  0  0  0
  -50.4529  -29.9905    5.1259 C   0  0  0  0  0  0  0  0  0  0  0  0
  -48.0587  -28.6852    5.7124 C   0  0  0  0  0  0  0  0  0  0  0  0
  -49.3653  -30.1073    4.2605 C   0  0  0  0  0  0  0  0  0  0  0  0
  -46.5439  -33.2173    1.1527 C   0  0  0  0  0  0  0  0  0  0  0  0
  -44.2231  -33.4628   -0.3495 C   0  0  0  0  0  0  0  0  0  0  0  0
  -45.1703  -34.4797   -0.3809 C   0  0  0  0  0  0  0  0  0  0  0  0
  -44.4350  -32.3103    0.4276 C   0  0  0  0  0  0  0  0  0  0  0  0
  -50.3436  -29.2211    6.2844 C   0  0  0  0  0  0  0  0  0  0  0  0
  -48.1680  -29.4546    4.5539 C   0  0  0  0  0  0  0  0  0  0  0  0
  -45.6027  -32.1705    1.2158 C   0  0  0  0  0  0  0  0  0  0  0  0
  -44.9452  -35.6659   -1.1912 C   0  0  0  0  0  0  0  0  0  0  0  0
  -43.3648  -31.2487    0.4329 C   0  0  0  0  0  0  0  0  0  0  0  0
  -44.7057  -30.0909    2.1887 C   0  0  0  0  0  0  0  0  0  0  0  0
  -43.9115  -29.9072    0.9030 C   0  0  1  0  0  0  0  0  0  0  0  0
  -51.5071  -29.0956    7.2088 C   0  0  0  0  0  0  0  0  0  0  0  0
  -43.4815  -37.5181   -1.5334 C   0  0  0  0  0  0  0  0  0  0  0  0
  -43.2677  -27.6633    1.1480 C   0  0  0  0  0  0  0  0  0  0  0  0
  -46.9910  -29.5813    3.6186 C   0  0  0  0  0  0  0  0  0  0  0  0
  -46.9627  -30.9124    2.8724 C   0  0  0  0  0  0  0  0  0  0  0  0
  -45.8062  -31.0314    1.9958 N   0  0  3  0  0  0  0  0  0  0  0  0
  -45.6847  -36.0349   -2.1134 O   0  0  0  0  0  0  0  0  0  0  0  0
  -43.8111  -36.3288   -0.8082 O   0  0  0  0  0  0  0  0  0  0  0  0
  -42.8326  -29.0142    1.1564 O   0  0  0  0  0  0  0  0  0  0  0  0
  -47.0889  -35.1359    0.3503 H   0  0  0  0  0  0  0  0  0  0  0  0
  -49.0525  -27.9658    7.4774 H   0  0  0  0  0  0  0  0  0  0  0  0
  -51.3814  -30.5037    4.8900 H   0  0  0  0  0  0  0  0  0  0  0  0
  -47.1298  -28.1728    5.9489 H   0  0  0  0  0  0  0  0  0  0  0  0
  -49.4596  -30.7085    3.3601 H   0  0  0  0  0  0  0  0  0  0  0  0
  -47.4752  -33.1700    1.7117 H   0  0  0  0  0  0  0  0  0  0  0  0
  -43.3072  -33.5600   -0.9287 H   0  0  0  0  0  0  0  0  0  0  0  0
  -42.5451  -31.5592    1.0862 H   0  0  0  0  0  0  0  0  0  0  0  0
  -42.9873  -31.1500   -0.5886 H   0  0  0  0  0  0  0  0  0  0  0  0
  -44.0344  -30.4618    2.9705 H   0  0  0  0  0  0  0  0  0  0  0  0
  -45.1089  -29.1289    2.5238 H   0  0  0  0  0  0  0  0  0  0  0  0
  -44.5311  -29.4678    0.1338 H   0  0  0  0  0  0  0  0  0  0  0  0
  -52.1401  -28.2398    6.9397 H   0  0  0  0  0  0  0  0  0  0  0  0
  -51.1780  -28.9344    8.2439 H   0  0  0  0  0  0  0  0  0  0  0  0
  -52.1202  -30.0048    7.1767 H   0  0  0  0  0  0  0  0  0  0  0  0
  -42.5605  -37.9481   -1.1313 H   0  0  0  0  0  0  0  0  0  0  0  0
  -44.2956  -38.2387   -1.4237 H   0  0  0  0  0  0  0  0  0  0  0  0
  -43.3520  -37.2768   -2.5909 H   0  0  0  0  0  0  0  0  0  0  0  0
  -42.4181  -27.0043    1.3450 H   0  0  0  0  0  0  0  0  0  0  0  0
  -43.6864  -27.4306    0.1659 H   0  0  0  0  0  0  0  0  0  0  0  0
  -44.0362  -27.5225    1.9115 H   0  0  0  0  0  0  0  0  0  0  0  0
  -46.9933  -28.7480    2.9040 H   0  0  0  0  0  0  0  0  0  0  0  0
  -46.0688  -29.4745    4.2037 H   0  0  0  0  0  0  0  0  0  0  0  0
  -46.9041  -31.7393    3.5878 H   0  0  0  0  0  0  0  0  0  0  0  0
  -47.8587  -31.0560    2.2599 H   0  0  0  0  0  0  0  0  0  0  0  0
  1  6  1  0  0  0  0
  1  8  2  0  0  0  0
  2  4  2  0  0  0  0
  2 10  1  0  0  0  0
  3  5  1  0  0  0  0
  3 10  2  0  0  0  0
  4 11  1  0  0  0  0
  5 11  2  0  0  0  0
  6 12  2  0  0  0  0
  7  8  1  0  0  0  0
  7  9  2  0  0  0  0
  8 13  1  0  0  0  0
  9 12  1  0  0  0  0
  9 14  1  0  0  0  0
 10 17  1  0  0  0  0
 11 20  1  0  0  0  0
 12 22  1  0  0  0  0
 13 23  2  0  0  0  0
 13 24  1  0  0  0  0
 14 16  1  0  0  0  0
 15 16  1  0  0  0  0
 15 22  1  0  0  0  0
 16 25  1  0  0  0  0
 18 24  1  0  0  0  0
 19 25  1  0  0  0  0
 20 21  1  0  0  0  0
 21 22  1  0  0  0  0
  1 26  1  0  0  0  0
  2 27  1  0  0  0  0
  3 28  1  0  0  0  0
  4 29  1  0  0  0  0
  5 30  1  0  0  0  0
  6 31  1  0  0  0  0
  7 32  1  0  0  0  0
 14 33  1  0  0  0  0
 14 34  1  0  0  0  0
 15 35  1  0  0  0  0
 15 36  1  0  0  0  0
 16 37  1  0  0  0  0
 17 38  1  0  0  0  0
 17 39  1  0  0  0  0
 17 40  1  0  0  0  0
 18 41  1  0  0  0  0
 18 42  1  0  0  0  0
 18 43  1  0  0  0  0
 19 44  1  0  0  0  0
 19 45  1  0  0  0  0
 19 46  1  0  0  0  0
 20 47  1  0  0  0  0
 20 48  1  0  0  0  0
 21 49  1  0  0  0  0
 21 50  1  0  0  0  0
M  END
> <POSIT::Probability>
0.24

> <POSIT::Method>
FRED

> <ReceptorTitle>
UCSF-P4685-REFINED_LIGAND-BOUND-STATE_A__DU__LA1_A-201(A)

> <OMEGA_C>
Y1Q5wqZrCcL9S7w+2pVEwhyM5MH7fdJAyM9JwoXs78G8B6RAEjxAwj575cEazLZAEHZFwrDb8MHu
VYhA+Sw6woPeBMINjJM/buQwwufZBcIb9rK+Z640wjTrCcJDA8O+Z70xwsw9AcIt6to+z19JwsTE
6cHoGclAC6xAwgCj68HtuZFAKGk2wqSuAMLhn5s/4Mczwu2pDsJveZi/lHUtwj/9+cFNqN0+l9Iy
wh268MGlEwxAYqUvwuJB78E+Lmc/TAdOwtTD6ME4ruZAEe0two8SFsKrRcS/IBItwmhO3cHv8JI/
w/Y7wnCm7MGmlmdA19k7wp9M98F51TdAkTk3wlhA+MGJdf8/Fr02wrgjEMIPQgfAkj4vwrRQEcJe
406/jVQrwhgd6MGhA5Q/Als8wjSLDMIdVLM+vzVEwvS538GSRu9AlYZNwoQH9MHWepxA4IQ8wuth
4cFeXb5ApdZFwhCr9cFADFdAk+Y9whmuBMLnGNs/jTotwng9BsLuv22/Ii4qwlR5/MFrCIs/CvMr
wh8z+cH+sBa/NyMwwtGx88HrHD5AfW80whQI6cEBhiFA0x8ywiC+68Gq9wg+fI9QwjTr4cHHEd5A
S7ZMwqt558EJ5wNBD3tQwswJ8MGxp+VA6j0qwtHKF8IjzpC/pi4xwmz0GMLTPLa/b2gtwngbFcKv
0SXAJqwpwt4I2MGjKaw/574uwsZx28Ha6Sk+EiUwwgYu3MF5rPQ/G/k7wgD85cGf2zlAbUY4wrvL
68HlhIZAyp07wgzq/cGnnmVAS28/wpdy+ME/ohBA

> <OMEGA_E>
n9QbwQ==

> <OMEGA_NBR>
      6487

$$$$
CACHE3HI_1691_34
  -OEChem-03092622523D

 34 35  0     0  0  0  0  0  0999 V2000
  -42.8240  -31.1103    1.1938 C   0  0  0  0  0  0  0  0  0  0  0  0
  -44.2029  -30.9032    1.1341 C   0  0  0  0  0  0  0  0  0  0  0  0
  -42.7159  -30.1341    3.4294 C   0  0  0  0  0  0  0  0  0  0  0  0
  -44.0836  -29.9311    3.3637 C   0  0  0  0  0  0  0  0  0  0  0  0
  -42.0872  -30.7298    2.3315 C   0  0  0  0  0  0  0  0  0  0  0  0
  -44.7992  -30.3136    2.2296 C   0  0  0  0  0  0  0  0  0  0  0  0
  -44.9146  -29.3207    4.4199 C   0  0  0  0  0  0  0  0  0  0  0  0
  -47.1818  -28.9428    6.1775 C   0  0  0  0  0  0  0  0  0  0  0  0
  -49.6609  -29.1196    6.2865 C   0  0  0  0  0  0  0  0  0  0  0  0
  -52.4349  -30.7350    6.4085 C   0  0  0  0  0  0  0  0  0  0  0  0
  -47.4253  -28.7759    4.6911 C   0  0  0  0  0  0  0  0  0  0  0  0
  -52.0585  -29.3650    6.9457 C   0  0  0  0  0  0  0  0  0  0  0  0
  -46.2705  -29.3003    3.9483 N   0  0  0  0  0  0  0  0  0  0  0  0
  -48.3845  -29.1140    6.8686 N   0  0  0  0  0  0  0  0  0  0  0  0
  -50.6470  -29.3135    7.2515 N   0  0  0  0  0  0  0  0  0  0  0  0
  -44.5074  -28.9138    5.4928 O   0  0  0  0  0  0  0  0  0  0  0  0
  -46.0661  -28.9385    6.6913 O   0  0  0  0  0  0  0  0  0  0  0  0
  -49.8798  -28.9732    5.0852 O   0  0  0  0  0  0  0  0  0  0  0  0
  -47.2182  -31.2122    2.4576 O   0  0  0  0  0  0  0  0  0  0  0  0
  -46.8267  -28.9106    1.4355 O   0  0  0  0  0  0  0  0  0  0  0  0
  -40.7643  -30.9428    2.3606 F   0  0  0  0  0  0  0  0  0  0  0  0
  -46.4984  -29.9597    2.3761 S   0  0  0  0  0  0  0  0  0  0  0  0
  -42.3108  -31.5706    0.3538 H   0  0  0  0  0  0  0  0  0  0  0  0
  -44.7720  -31.1961    0.2595 H   0  0  0  0  0  0  0  0  0  0  0  0
  -42.1380  -29.8451    4.3005 H   0  0  0  0  0  0  0  0  0  0  0  0
  -52.2004  -31.5071    7.1480 H   0  0  0  0  0  0  0  0  0  0  0  0
  -51.8830  -30.9680    5.4916 H   0  0  0  0  0  0  0  0  0  0  0  0
  -53.5063  -30.7932    6.1878 H   0  0  0  0  0  0  0  0  0  0  0  0
  -47.5562  -27.7136    4.4628 H   0  0  0  0  0  0  0  0  0  0  0  0
  -48.3348  -29.3165    4.4126 H   0  0  0  0  0  0  0  0  0  0  0  0
  -52.2959  -28.5985    6.2009 H   0  0  0  0  0  0  0  0  0  0  0  0
  -52.6390  -29.1470    7.8481 H   0  0  0  0  0  0  0  0  0  0  0  0
  -48.3398  -29.2468    7.8752 H   0  0  0  0  0  0  0  0  0  0  0  0
  -50.3593  -29.4241    8.2187 H   0  0  0  0  0  0  0  0  0  0  0  0
  1  2  2  0  0  0  0
  1  5  1  0  0  0  0
  2  6  1  0  0  0  0
  3  4  1  0  0  0  0
  3  5  2  0  0  0  0
  4  6  2  0  0  0  0
  4  7  1  0  0  0  0
  5 21  1  0  0  0  0
  6 22  1  0  0  0  0
  7 13  1  0  0  0  0
  7 16  2  0  0  0  0
  8 11  1  0  0  0  0
  8 14  1  0  0  0  0
  8 17  2  0  0  0  0
  9 14  1  0  0  0  0
  9 15  1  0  0  0  0
  9 18  2  0  0  0  0
 10 12  1  0  0  0  0
 11 13  1  0  0  0  0
 12 15  1  0  0  0  0
 13 22  1  0  0  0  0
 19 22  2  0  0  0  0
 20 22  2  0  0  0  0
  1 23  1  0  0  0  0
  2 24  1  0  0  0  0
  3 25  1  0  0  0  0
 10 26  1  0  0  0  0
 10 27  1  0  0  0  0
 10 28  1  0  0  0  0
 11 29  1  0  0  0  0
 11 30  1  0  0  0  0
 12 31  1  0  0  0  0
 12 32  1  0  0  0  0
 14 33  1  0  0  0  0
 15 34  1  0  0  0  0
M  END
> <POSIT::Probability>
0.18

> <POSIT::Method>
FRED

> <ReceptorTitle>
UCSF-P4685-REFINED_LIGAND-BOUND-STATE_A__DU__LA1_A-201(A)

> <OMEGA_C>
yksrws7h+MEAzpg/0s8wwtQ598FwKpE/Ft0qwqIS8cEQfFtAoVUwwsxy78F8R1dAQVkowq/W9cGw
NxVAazIzwlqC8sFgsg5Agqgzws2Q6sEUcI1AK7o8wsqK58FmrsVAu6RGwvj06MHKKslAYb1Rwlfh
9cEUEs1AiLM9whw15sFSHZZA3jtQwnbr6sE4Q95AARU5wgpn6sHUsHxAsolBwmDp6MGQy9tAgZZK
wvaB6sFSDOhAjwcywmlP58Egxa9AtUM4wgaC58FgH9ZA5IRHwiDJ58G+uaJAad88woOy+cEkSR1A
hk47wvJI58Fovrc/pA4jwt+K98HEFBdAVP45wn6t78FYEhhAOj4pwpyQ/MHgJ7U+gBYzwoiR+cFg
4YQ+WI0owrbC7sG0nYlAOM1QwpwO/ME+vORAJ4hPwmm+98Fcu69AaAZWwmFY9sEwAsZAkjk+woq1
3cFuz45A3lZBwiyI6sHaM41A+y5RwrfJ5MFobcZATY5SwgUt6cGEI/tA/FtBwor56cHiAfxA8G9J
wqBk68GefwNB

> <OMEGA_E>
1qYQwQ==

> <OMEGA_NBR>
      7653

$$$$
CACHE3HI_1691_67
  -OEChem-03092622523D

 43 45  0     0  0  0  0  0  0999 V2000
  -47.8037  -29.4873    6.3980 C   0  0  0  0  0  0  0  0  0  0  0  0
  -49.1731  -29.5797    6.0893 C   0  0  0  0  0  0  0  0  0  0  0  0
  -47.3518  -28.7610    4.1082 C   0  0  0  0  0  0  0  0  0  0  0  0
  -42.0195  -32.0736    0.6937 C   0  0  0  0  0  0  0  0  0  0  0  0
  -42.3130  -33.1751   -1.3373 C   0  0  0  0  0  0  0  0  0  0  0  0
  -46.8830  -29.0698    5.4094 C   0  0  0  0  0  0  0  0  0  0  0  0
  -43.2224  -32.6246    1.1837 C   0  0  0  0  0  0  0  0  0  0  0  0
  -49.6339  -29.2651    4.7914 C   0  0  0  0  0  0  0  0  0  0  0  0
  -48.7167  -28.8562    3.7997 C   0  0  0  0  0  0  0  0  0  0  0  0
  -43.9024  -33.5380    0.3376 C   0  0  0  0  0  0  0  0  0  0  0  0
  -43.6335  -32.3634    2.5912 C   0  0  0  0  0  0  0  0  0  0  0  0
  -45.4463  -28.9331    5.7218 C   0  0  0  0  0  0  0  0  0  0  0  0
  -42.9177  -30.9398    4.5336 C   0  0  0  0  0  0  0  0  0  0  0  0
  -43.0696  -29.8603    2.6908 C   0  0  0  0  0  0  0  0  0  0  0  0
  -42.4683  -29.4729    4.1126 C   0  0  0  0  0  0  0  0  0  0  0  0
  -51.1109  -29.3440    4.4701 C   0  0  0  0  0  0  0  0  0  0  0  0
  -43.1549  -28.3102    4.8451 C   0  0  0  0  0  0  0  0  0  0  0  0
  -41.5884  -32.3470   -0.5517 N   0  0  0  0  0  0  0  0  0  0  0  0
  -43.4465  -33.7780   -0.9102 N   0  0  0  0  0  0  0  0  0  0  0  0
  -43.3641  -31.1460    3.2135 N   0  0  0  0  0  0  0  0  0  0  0  0
  -44.9874  -34.2766    0.7831 N   0  0  0  0  0  0  0  0  0  0  0  0
  -44.6114  -28.3978    4.7481 N   0  0  0  0  0  0  0  0  0  0  0  0
  -44.0208  -33.2913    3.2934 O   0  0  0  0  0  0  0  0  0  0  0  0
  -45.0076  -29.2625    6.8201 O   0  0  0  0  0  0  0  0  0  0  0  0
  -49.1361  -28.5541    2.5472 F   0  0  0  0  0  0  0  0  0  0  0  0
  -47.4557  -29.7351    7.3899 H   0  0  0  0  0  0  0  0  0  0  0  0
  -49.8753  -29.8926    6.8479 H   0  0  0  0  0  0  0  0  0  0  0  0
  -46.6517  -28.4496    3.3471 H   0  0  0  0  0  0  0  0  0  0  0  0
  -41.4357  -31.4225    1.3275 H   0  0  0  0  0  0  0  0  0  0  0  0
  -41.9738  -33.3627   -2.3453 H   0  0  0  0  0  0  0  0  0  0  0  0
  -42.0914  -31.5972    4.8417 H   0  0  0  0  0  0  0  0  0  0  0  0
  -43.7136  -30.9709    5.2923 H   0  0  0  0  0  0  0  0  0  0  0  0
  -43.9529  -29.2753    2.3948 H   0  0  0  0  0  0  0  0  0  0  0  0
  -42.3370  -29.8586    1.8703 H   0  0  0  0  0  0  0  0  0  0  0  0
  -41.3735  -29.3706    4.0823 H   0  0  0  0  0  0  0  0  0  0  0  0
  -51.5850  -28.3742    4.6816 H   0  0  0  0  0  0  0  0  0  0  0  0
  -51.2419  -29.5918    3.4064 H   0  0  0  0  0  0  0  0  0  0  0  0
  -51.5794  -30.1237    5.0886 H   0  0  0  0  0  0  0  0  0  0  0  0
  -42.8656  -28.3361    5.9061 H   0  0  0  0  0  0  0  0  0  0  0  0
  -42.8239  -27.3613    4.3979 H   0  0  0  0  0  0  0  0  0  0  0  0
  -45.2780  -34.9091    0.0651 H   0  0  0  0  0  0  0  0  0  0  0  0
  -44.7260  -34.7945    1.5976 H   0  0  0  0  0  0  0  0  0  0  0  0
  -45.0401  -28.0451    3.9164 H   0  0  0  0  0  0  0  0  0  0  0  0
  1  2  2  0  0  0  0
  1  6  1  0  0  0  0
  2  8  1  0  0  0  0
  3  6  2  0  0  0  0
  3  9  1  0  0  0  0
  4  7  1  0  0  0  0
  4 18  2  0  0  0  0
  5 18  1  0  0  0  0
  5 19  2  0  0  0  0
  6 12  1  0  0  0  0
  7 10  2  0  0  0  0
  7 11  1  0  0  0  0
  8  9  2  0  0  0  0
  8 16  1  0  0  0  0
  9 25  1  0  0  0  0
 10 19  1  0  0  0  0
 10 21  1  0  0  0  0
 11 20  1  0  0  0  0
 11 23  2  0  0  0  0
 12 22  1  0  0  0  0
 12 24  2  0  0  0  0
 13 15  1  0  0  0  0
 13 20  1  0  0  0  0
 14 15  1  0  0  0  0
 14 20  1  0  0  0  0
 15 17  1  0  0  0  0
 17 22  1  0  0  0  0
  1 26  1  0  0  0  0
  2 27  1  0  0  0  0
  3 28  1  0  0  0  0
  4 29  1  0  0  0  0
  5 30  1  0  0  0  0
 13 31  1  0  0  0  0
 13 32  1  0  0  0  0
 14 33  1  0  0  0  0
 14 34  1  0  0  0  0
 15 35  1  0  0  0  0
 16 36  1  0  0  0  0
 16 37  1  0  0  0  0
 16 38  1  0  0  0  0
 17 39  1  0  0  0  0
 17 40  1  0  0  0  0
 21 41  1  0  0  0  0
 21 42  1  0  0  0  0
 22 43  1  0  0  0  0
M  END
> <POSIT::Probability>
0.12

> <POSIT::Method>
SHAPEFIT

> <ReceptorTitle>
UCSF-P4685-REFINED_LIGAND-BOUND-STATE_A__DU__LA1_A-201(A)

> <OMEGA_C>
8jY/wvrl68FgvMxASLFEwk6j7MF428JAQmg9wpAW5sEQdoNA8BMowlNLAMLAlTE/iEApwlOzBMLg
K6u/Nog7wgqP6MEkGq1AvuMswpJ/AsJAgpc/IIlGwuge6sHAUplA5t1CwnTZ5sFQLnNAFpwvwvMm
BsIA1qw+tIguwiZ0AcKI1iVADsk1wgt358FkGbdAwqsrwqiE98EsE5FATEcsws7h7sHgNSxAiN8p
wpnI68GwmoNAknFMwnDA6sG0Co9App4swkJ74sFUC5tAf1omwl9jAcLAPQ2/LsktwrccB8LAAmm/
znQtwgsr+cG4qU1ADPMzwkgbCcLAeEg/HnIywsAu48G08JdAQhUwwksqBcJAx1JAygc0wpIZ6sH8
PdpAVotEwttu5MGgBCNAmtI9wpbh7cEJeuxATIBHwhok78HjIdtAVJs6wrKY48HlNlZANb4lwj5h
+8Hr7Kk/KuUnwmpzBcKcGRbAn10owinH/MF275pAsNouwmnE98HBWqlA0c8vwt4z6sGMRBlAFVkp
wnTe7sEKZe8/cn4lwv/26sGUooJACVdOwkz+4sF4z5VAt/dMwui77MHhAVpAWFFOwj/98MGT1aJA
anYrwlqw4sG4/rxAoEsrwvnj2sF3u4xAtxw1wvGiC8LjZIU9Zucywp0tC8Lrfsw/HSk0wmhc4MEG
pnpA

> <OMEGA_E>
dMqnPw==

> <OMEGA_NBR>
      9029

$$$$
CACHE3HI_1695_50
  -OEChem-03092622523D

 40 42  0     1  0  0  0  0  0999 V2000
  -50.4067  -30.1222    3.7999 C   0  0  0  0  0  0  0  0  0  0  0  0
  -49.6408  -30.4913    2.6980 C   0  0  0  0  0  0  0  0  0  0  0  0
  -46.3872  -28.6110    6.0882 C   0  0  0  0  0  0  0  0  0  0  0  0
  -49.7935  -29.5613    4.9212 C   0  0  0  0  0  0  0  0  0  0  0  0
  -48.2588  -30.3013    2.7130 C   0  0  0  0  0  0  0  0  0  0  0  0
  -47.7692  -28.8009    6.0731 C   0  0  0  0  0  0  0  0  0  0  0  0
  -45.6217  -28.9808    4.9859 C   0  0  0  0  0  0  0  0  0  0  0  0
  -42.1857  -31.4360    2.6817 C   0  0  0  0  0  0  0  0  0  0  0  0
  -48.4035  -29.3633    4.9533 C   0  0  0  0  0  0  0  0  0  0  0  0
  -47.6246  -29.7387    3.8328 C   0  0  0  0  0  0  0  0  0  0  0  0
  -46.2345  -29.5410    3.8649 C   0  0  0  0  0  0  0  0  0  0  0  0
  -45.7703  -28.4763    0.7585 C   0  0  0  0  0  0  0  0  0  0  0  0
  -45.3522  -29.9150    2.7143 C   0  0  0  0  0  0  0  0  0  0  0  0
  -43.5459  -30.9030    0.5487 C   0  0  0  0  0  0  0  0  0  0  0  0
  -42.8304  -29.5627    0.4357 C   0  0  0  0  0  0  0  0  0  0  0  0
  -42.2266  -32.3585    3.6153 N   0  0  0  0  0  0  0  0  0  0  0  0
  -43.2817  -33.1782    3.2810 N   0  0  0  0  0  0  0  0  0  0  0  0
  -43.8724  -32.7643    2.1666 N   0  0  0  0  0  0  0  0  0  0  0  0
  -43.1857  -31.6754    1.7939 N   0  0  0  0  0  0  0  0  0  0  0  0
  -44.9225  -28.7651    1.9648 N   0  0  1  0  0  0  0  0  0  0  0  0
  -43.0488  -27.1038    1.2902 O   0  0  0  0  0  0  0  0  0  0  0  0
  -42.4854  -28.9148    2.9419 O   0  0  0  0  0  0  0  0  0  0  0  0
  -43.2200  -28.4594    1.7776 S   0  0  0  0  0  0  0  0  0  0  0  0
  -51.4826  -30.2708    3.7876 H   0  0  0  0  0  0  0  0  0  0  0  0
  -50.1190  -30.9276    1.8258 H   0  0  0  0  0  0  0  0  0  0  0  0
  -45.9087  -28.1751    6.9605 H   0  0  0  0  0  0  0  0  0  0  0  0
  -50.4119  -29.2806    5.7712 H   0  0  0  0  0  0  0  0  0  0  0  0
  -47.6949  -30.6025    1.8332 H   0  0  0  0  0  0  0  0  0  0  0  0
  -48.3487  -28.5048    6.9452 H   0  0  0  0  0  0  0  0  0  0  0  0
  -44.5457  -28.8279    5.0094 H   0  0  0  0  0  0  0  0  0  0  0  0
  -41.4871  -30.6156    2.6067 H   0  0  0  0  0  0  0  0  0  0  0  0
  -45.3981  -27.5944    0.2291 H   0  0  0  0  0  0  0  0  0  0  0  0
  -45.7558  -29.3287    0.0736 H   0  0  0  0  0  0  0  0  0  0  0  0
  -46.8057  -28.2940    1.0595 H   0  0  0  0  0  0  0  0  0  0  0  0
  -44.4554  -30.4399    3.0647 H   0  0  0  0  0  0  0  0  0  0  0  0
  -45.8688  -30.5888    2.0204 H   0  0  0  0  0  0  0  0  0  0  0  0
  -44.6321  -30.7533    0.5028 H   0  0  0  0  0  0  0  0  0  0  0  0
  -43.2909  -31.5226   -0.3209 H   0  0  0  0  0  0  0  0  0  0  0  0
  -41.7420  -29.6701    0.4132 H   0  0  0  0  0  0  0  0  0  0  0  0
  -43.1448  -29.0484   -0.4776 H   0  0  0  0  0  0  0  0  0  0  0  0
  1  2  1  0  0  0  0
  1  4  2  0  0  0  0
  2  5  2  0  0  0  0
  3  6  1  0  0  0  0
  3  7  2  0  0  0  0
  4  9  1  0  0  0  0
  5 10  1  0  0  0  0
  6  9  2  0  0  0  0
  7 11  1  0  0  0  0
  8 16  2  0  0  0  0
  8 19  1  0  0  0  0
  9 10  1  0  0  0  0
 10 11  2  0  0  0  0
 11 13  1  0  0  0  0
 12 20  1  0  0  0  0
 13 20  1  0  0  0  0
 14 15  1  0  0  0  0
 14 19  1  0  0  0  0
 15 23  1  0  0  0  0
 16 17  1  0  0  0  0
 17 18  2  0  0  0  0
 18 19  1  0  0  0  0
 20 23  1  0  0  0  0
 21 23  2  0  0  0  0
 22 23  2  0  0  0  0
  1 24  1  0  0  0  0
  2 25  1  0  0  0  0
  3 26  1  0  0  0  0
  4 27  1  0  0  0  0
  5 28  1  0  0  0  0
  6 29  1  0  0  0  0
  7 30  1  0  0  0  0
  8 31  1  0  0  0  0
 12 32  1  0  0  0  0
 12 33  1  0  0  0  0
 12 34  1  0  0  0  0
 13 35  1  0  0  0  0
 13 36  1  0  0  0  0
 14 37  1  0  0  0  0
 14 38  1  0  0  0  0
 15 39  1  0  0  0  0
 15 40  1  0  0  0  0
M  END
> <POSIT::Probability>
0.18

> <POSIT::Method>
FRED

> <ReceptorTitle>
UCSF-P4685-REFINED_LIGAND-BOUND-STATE_A__DU__LA1_A-201(A)

> <OMEGA_C>
gKBJwkz68MEEMXNAOZBGwhzu88G7qyxAdow5wkbj5ME30sJAiixHwoJ97MGIep1A/AhBwipp8sE+
oi1AshM/wjho5sH4VsJAp3w2wqbY58FYjJ9AKL4owux8+8FDoCtAM51Bwvjn6sHGgZ5Aon8+wu7o
7cHwTHVAJfA4wuBT7MEcW3dAyhQ3wl7P48HHK0I/nWg1wtJR78FCty1A/y4uwmY598Eoegw/T1Ir
wlaA7MGBFN8+DugowhxvAcLiYGdAbSAtwoK2BMIN/FFAXX0vwp4OA8JWqgpAJr4swjZn/cEGnuU/
qLAzwuge5sFqf/s//zEswoHU2MGZJqU/GfEpwnBR58GASDxAPOEswsSs48H/h+M/Lu5NwoAq8sGC
Z3JA3nlIwqRr98FLtOk/fKI3wrBm4cFBvN5Ay6VJwqw+6sGprbhAoMc+wtjR9MHepOo/E2VBwuYJ
5MF1P95A0S4ywqCf5sFWTaBAx/Ilwrzs9MG/1CZAs5c1wlDB3MFcmmo+/AU3wkah6sFos5Y9ATk7
wixa4sFknIc/VtIxwtqE88G/JERApHk3wsS19MHbTQFASIcyws4G9sFitAA/6yktwj0u/MGqS6S+
xPcmwl5c7cEIjdM+R5QswhRj6MGAgfS+

> <OMEGA_E>
iYoOwQ==

> <OMEGA_NBR>
     10322

$$$$
CACHE3HI_1695_56
  -OEChem-03092622523D

 44 46  0     1  0  0  0  0  0999 V2000
  -46.6421  -31.9792    1.5790 C   0  0  0  0  0  0  0  0  0  0  0  0
  -47.0144  -33.1856    0.9832 C   0  0  0  0  0  0  0  0  0  0  0  0
  -44.4160  -32.1332    0.6087 C   0  0  0  0  0  0  0  0  0  0  0  0
  -45.3527  -31.4568    1.3930 C   0  0  0  0  0  0  0  0  0  0  0  0
  -46.0756  -33.8558    0.2173 C   0  0  0  0  0  0  0  0  0  0  0  0
  -44.7896  -33.3348    0.0321 C   0  0  0  0  0  0  0  0  0  0  0  0
  -47.9603  -28.9432    4.4656 C   0  0  0  0  0  0  0  0  0  0  0  0
  -49.6094  -29.0679    5.8773 C   0  0  0  0  0  0  0  0  0  0  0  0
  -44.9925  -30.1926    2.0161 C   0  0  0  0  0  0  0  0  0  0  0  0
  -46.2480  -35.1322   -0.5442 C   0  0  0  0  0  0  0  0  0  0  0  0
  -43.9833  -34.2141   -0.8699 C   0  0  0  0  0  0  0  0  0  0  0  0
  -44.7860  -35.5224   -0.8053 C   0  0  0  0  0  0  0  0  0  0  0  0
  -50.2997  -31.3259    2.9785 C   0  0  0  0  0  0  0  0  0  0  0  0
  -44.6886  -28.8865    4.1726 C   0  0  0  0  0  0  0  0  0  0  0  0
  -50.1289  -29.9239    2.4110 C   0  0  0  0  0  0  0  0  0  0  0  0
  -50.2990  -28.8369    3.4656 C   0  0  0  0  0  0  0  0  0  0  0  0
  -45.6354  -29.7510    3.3458 C   0  0  1  0  0  0  0  0  0  0  0  0
  -47.3502  -29.0542    5.6069 N   0  0  0  0  0  0  0  0  0  0  0  0
  -48.3631  -29.1345    6.5155 N   0  0  0  0  0  0  0  0  0  0  0  0
  -49.3179  -28.9431    4.5330 N   0  0  0  0  0  0  0  0  0  0  0  0
  -50.7041  -29.1130    6.4190 O   0  0  0  0  0  0  0  0  0  0  0  0
  -44.1481  -29.4462    1.4764 O   0  0  0  0  0  0  0  0  0  0  0  0
  -47.1430  -28.8050    2.9601 S   0  0  0  0  0  0  0  0  0  0  0  0
  -47.3676  -31.4427    2.1862 H   0  0  0  0  0  0  0  0  0  0  0  0
  -48.0149  -33.5821    1.1186 H   0  0  0  0  0  0  0  0  0  0  0  0
  -43.4203  -31.7307    0.4503 H   0  0  0  0  0  0  0  0  0  0  0  0
  -46.7681  -35.8996    0.0359 H   0  0  0  0  0  0  0  0  0  0  0  0
  -46.7809  -34.9430   -1.4816 H   0  0  0  0  0  0  0  0  0  0  0  0
  -43.9736  -33.8053   -1.8855 H   0  0  0  0  0  0  0  0  0  0  0  0
  -42.9598  -34.3565   -0.5120 H   0  0  0  0  0  0  0  0  0  0  0  0
  -44.4199  -36.1260    0.0371 H   0  0  0  0  0  0  0  0  0  0  0  0
  -44.6702  -36.1290   -1.7090 H   0  0  0  0  0  0  0  0  0  0  0  0
  -51.2829  -31.4238    3.4496 H   0  0  0  0  0  0  0  0  0  0  0  0
  -49.5381  -31.5379    3.7357 H   0  0  0  0  0  0  0  0  0  0  0  0
  -50.2262  -32.0858    2.1943 H   0  0  0  0  0  0  0  0  0  0  0  0
  -44.3919  -27.9851    3.6250 H   0  0  0  0  0  0  0  0  0  0  0  0
  -43.7755  -29.4446    4.4094 H   0  0  0  0  0  0  0  0  0  0  0  0
  -45.1322  -28.5778    5.1269 H   0  0  0  0  0  0  0  0  0  0  0  0
  -49.1405  -29.8430    1.9435 H   0  0  0  0  0  0  0  0  0  0  0  0
  -50.8744  -29.7718    1.6217 H   0  0  0  0  0  0  0  0  0  0  0  0
  -51.2941  -28.8753    3.9197 H   0  0  0  0  0  0  0  0  0  0  0  0
  -50.1699  -27.8500    3.0099 H   0  0  0  0  0  0  0  0  0  0  0  0
  -45.8942  -30.6300    3.9420 H   0  0  0  0  0  0  0  0  0  0  0  0
  -48.1647  -29.2285    7.5035 H   0  0  0  0  0  0  0  0  0  0  0  0
  1  2  2  0  0  0  0
  1  4  1  0  0  0  0
  2  5  1  0  0  0  0
  3  4  2  0  0  0  0
  3  6  1  0  0  0  0
  4  9  1  0  0  0  0
  5  6  2  0  0  0  0
  5 10  1  0  0  0  0
  6 11  1  0  0  0  0
  7 18  2  0  0  0  0
  7 20  1  0  0  0  0
  7 23  1  0  0  0  0
  8 19  1  0  0  0  0
  8 20  1  0  0  0  0
  8 21  2  0  0  0  0
  9 17  1  0  0  0  0
  9 22  2  0  0  0  0
 10 12  1  0  0  0  0
 11 12  1  0  0  0  0
 13 15  1  0  0  0  0
 14 17  1  0  0  0  0
 15 16  1  0  0  0  0
 16 20  1  0  0  0  0
 17 23  1  0  0  0  0
 18 19  1  0  0  0  0
  1 24  1  0  0  0  0
  2 25  1  0  0  0  0
  3 26  1  0  0  0  0
 10 27  1  0  0  0  0
 10 28  1  0  0  0  0
 11 29  1  0  0  0  0
 11 30  1  0  0  0  0
 12 31  1  0  0  0  0
 12 32  1  0  0  0  0
 13 33  1  0  0  0  0
 13 34  1  0  0  0  0
 13 35  1  0  0  0  0
 14 36  1  0  0  0  0
 14 37  1  0  0  0  0
 14 38  1  0  0  0  0
 15 39  1  0  0  0  0
 15 40  1  0  0  0  0
 16 41  1  0  0  0  0
 16 42  1  0  0  0  0
 17 43  1  0  0  0  0
 19 44  1  0  0  0  0
M  END
> <POSIT::Probability>
0.18

> <POSIT::Method>
HYBRID

> <ReceptorTitle>
UCSF-P4685-REFINED_LIGAND-BOUND-STATE_A__DU__LA1_A-201(A)

> <OMEGA_C>
gZE6wlzV/8FgHco/xg48whm+BMKwsXs/+6kxwluIAMKg0Rs/Imk1wpKn+8HATrI/YE04wlhsB8IA
fl4+iSgzwsxWBcIAqQM9Tdc/wrWL58H/5Y5A/29GwhmL6ME5E7xAXfgzwnSK8cGABwFA+/04wmKH
DMIgUgu/6+4vwkfbCMIgtF6/4CQzwvMWDsIgK06/7jJJwmab+sGGnz5AIcEywn8X58ElhoVA9YNI
wjBk78FUTRpALjJJwuKx5sHuy11AoYo2whMC7sEOIVZAmWY9whFv6MHra7NA0HNBwnYT6cFOf9BA
jkVFwpKL58ESDpFAC9FKwmrn6MHBaM1AqpcwwtyR68FA/Lw/dpI8wptw5sGEcT1AYng9wrKK+8GG
6gtARQ9AwghUBsK4Lo8/Xq4twnjY/cHAkuY+jRI7wiiZD8IAChM9rx87wq7FC8IYpL2//uQvwq04
B8LAVvG/1tYrwhttCcLwDwO/Aq4xwv2AEMIAFxg9Pq4ywh2EEMKYv9q/siFNwglk+8FAxlxADCdG
wotN/MEEFW9AoudIwtBXAMIQbwxARpExwm7h38GW/2dAIxovwoeO68GXGY1AZIc0wlyf5MHiD6RA
5o9Ewmm+7sGoxfg/Vn9Lwrgs7sHoks8/JS1Nwq8A58Gq23pAAq5IwrbM3sFcokBAtZM3wi0K9cEc
SnxAoqhAwv/T6cFXHPBA

> <OMEGA_E>
BPoRwQ==

> <OMEGA_NBR>
     11701

$$$$
CACHE3HI_1700_10
  -OEChem-03092622523D

 40 41  0     1  0  0  0  0  0999 V2000
  -47.2210  -28.9518    5.0458 C   0  0  0  0  0  0  0  0  0  0  0  0
  -44.8915  -29.2577    6.3459 C   0  0  0  0  0  0  0  0  0  0  0  0
  -46.0775  -29.3915    4.4109 C   0  0  0  0  0  0  0  0  0  0  0  0
  -47.0898  -28.6793    6.3920 C   0  0  0  0  0  0  0  0  0  0  0  0
  -43.3176  -28.2302    1.0291 C   0  0  0  0  0  0  0  0  0  0  0  0
  -45.5489  -30.5652    0.9662 C   0  0  0  0  0  0  0  0  0  0  0  0
  -47.4035  -30.1514    2.4317 C   0  0  0  0  0  0  0  0  0  0  0  0
  -47.0464  -30.3175    0.9612 C   0  0  1  0  0  0  0  0  0  0  0  0
  -45.0350  -29.6982    2.1267 C   0  0  1  0  0  0  0  0  0  0  0  0
  -51.3920  -29.3632    5.4279 C   0  0  0  0  0  0  0  0  0  0  0  0
  -44.6808  -28.2852    1.6648 C   0  0  0  0  0  0  0  0  0  0  0  0
  -49.5022  -28.0451    6.4388 C   0  0  0  0  0  0  0  0  0  0  0  0
  -50.2986  -29.3473    6.4862 C   0  0  1  0  0  0  0  0  0  0  0  0
  -44.8914  -29.5565    5.0327 N   0  0  0  0  0  0  0  0  0  0  0  0
  -45.9358  -28.8220    7.0767 N   0  0  0  0  0  0  0  0  0  0  0  0
  -46.1676  -29.6754    3.0606 N   0  0  3  0  0  0  0  0  0  0  0  0
  -48.2410  -28.2249    7.0810 N   0  0  0  0  0  0  0  0  0  0  0  0
  -42.5535  -29.1703    0.8696 O   0  0  0  0  0  0  0  0  0  0  0  0
  -43.0396  -26.9580    0.6443 O   0  0  0  0  0  0  0  0  0  0  0  0
  -50.9273  -29.4768    7.7594 O   0  0  0  0  0  0  0  0  0  0  0  0
  -47.3064  -29.1532    0.3097 F   0  0  0  0  0  0  0  0  0  0  0  0
  -48.1613  -28.8282    4.5208 H   0  0  0  0  0  0  0  0  0  0  0  0
  -43.9518  -29.3811    6.8703 H   0  0  0  0  0  0  0  0  0  0  0  0
  -45.3491  -31.6214    1.1827 H   0  0  0  0  0  0  0  0  0  0  0  0
  -45.0831  -30.3035    0.0116 H   0  0  0  0  0  0  0  0  0  0  0  0
  -48.2188  -29.4360    2.5763 H   0  0  0  0  0  0  0  0  0  0  0  0
  -47.6838  -31.1207    2.8602 H   0  0  0  0  0  0  0  0  0  0  0  0
  -47.6109  -31.1150    0.4692 H   0  0  0  0  0  0  0  0  0  0  0  0
  -44.1515  -30.1691    2.5642 H   0  0  0  0  0  0  0  0  0  0  0  0
  -52.0668  -28.5098    5.5402 H   0  0  0  0  0  0  0  0  0  0  0  0
  -51.9796  -30.2860    5.4841 H   0  0  0  0  0  0  0  0  0  0  0  0
  -50.9529  -29.3313    4.4245 H   0  0  0  0  0  0  0  0  0  0  0  0
  -45.4226  -27.9519    0.9345 H   0  0  0  0  0  0  0  0  0  0  0  0
  -44.6935  -27.6144    2.5277 H   0  0  0  0  0  0  0  0  0  0  0  0
  -50.0424  -27.2407    6.9487 H   0  0  0  0  0  0  0  0  0  0  0  0
  -49.3256  -27.7387    5.4033 H   0  0  0  0  0  0  0  0  0  0  0  0
  -49.6431  -30.2135    6.3441 H   0  0  0  0  0  0  0  0  0  0  0  0
  -48.1316  -28.0308    8.0555 H   0  0  0  0  0  0  0  0  0  0  0  0
  -42.1555  -26.8884    0.2256 H   0  0  0  0  0  0  0  0  0  0  0  0
  -51.4031  -30.3214    7.7469 H   0  0  0  0  0  0  0  0  0  0  0  0
  1  3  2  0  0  0  0
  1  4  1  0  0  0  0
  2 14  2  0  0  0  0
  2 15  1  0  0  0  0
  3 14  1  0  0  0  0
  3 16  1  0  0  0  0
  4 15  2  0  0  0  0
  4 17  1  0  0  0  0
  5 11  1  0  0  0  0
  5 18  2  0  0  0  0
  5 19  1  0  0  0  0
  6  8  1  0  0  0  0
  6  9  1  0  0  0  0
  7  8  1  0  0  0  0
  7 16  1  0  0  0  0
  8 21  1  0  0  0  0
  9 11  1  0  0  0  0
  9 16  1  0  0  0  0
 10 13  1  0  0  0  0
 12 13  1  0  0  0  0
 12 17  1  0  0  0  0
 13 20  1  0  0  0  0
  1 22  1  0  0  0  0
  2 23  1  0  0  0  0
  6 24  1  0  0  0  0
  6 25  1  0  0  0  0
  7 26  1  0  0  0  0
  7 27  1  0  0  0  0
  8 28  1  0  0  0  0
  9 29  1  0  0  0  0
 10 30  1  0  0  0  0
 10 31  1  0  0  0  0
 10 32  1  0  0  0  0
 11 33  1  0  0  0  0
 11 34  1  0  0  0  0
 12 35  1  0  0  0  0
 12 36  1  0  0  0  0
 13 37  1  0  0  0  0
 17 38  1  0  0  0  0
 19 39  1  0  0  0  0
 20 40  1  0  0  0  0
M  END
> <POSIT::Probability>
0.24

> <POSIT::Method>
FRED

> <ReceptorTitle>
UCSF-P4685-REFINED_LIGAND-BOUND-STATE_A__DU__LA1_A-201(A)

> <OMEGA_C>
ROI8wjGd58Eqd6FA3pAzwt8P6sHAEctAXE84wtoh68E4Jo1A81s8whtv5cEpi8xAOUUtwnzX4cE4
uYM/CDI2woCF9ME4Wnc/K509wiI28cHEoBtAjy88wkGK8sGwEnY/zyM0wtmV7cHgGwhAYZFNwu/n
6sE7sa1AL7kywiNI4sEgF9U/PQJGwmNc4MHKCs5AyDFJwkHH6sEUj89A0pAzwqJz7MGsC6FAQ743
wl2T5sE+dOJArKs4wiln7cEQ4UNAv/ZAwprM4cGIl+JAvDYqwrVc6cFwnV4/jCgswgCq18Gg8yQ/
lbVLwpDQ68E+TfhAvzk9ws056cFAlp4+MaVAwh6g5sG8qpBAsc4vwoAM68Ez2dtAfmU1wrb4/MGg
YZc/IVU0wqZt8sEAHj48F+BAwvZ868Fg4SRAP7w+wi33+MEQDjdAhHE+wobr+MEgQfA+K5swwmta
8cGQGyRAZkRQwhAU5MFkSbFAGOtPwrZJ8sHAfa9A0M9Lwomm6sFAlY1AyLA1wo+d38FwOW8/LMYy
wkHq3MEcxiFAbStIwvLs2cGbW95AcU1FwsLo3cH956xAjpJGwlm18cG4AstAyYZAwhQ/4MFc4wBB
SJ8ownUb18EABmc+wJxNwkSS8sGM5vdA

> <OMEGA_E>
jhcawQ==

> <OMEGA_NBR>
     13002

$$$$
CACHE3HI_1700_32
  -OEChem-03092622523D

 53 56  0     1  0  0  0  0  0999 V2000
  -56.0342  -27.8606    5.0952 C   0  0  0  0  0  0  0  0  0  0  0  0
  -55.7553  -26.9043    4.1160 C   0  0  0  0  0  0  0  0  0  0  0  0
  -55.0118  -28.6217    5.6737 C   0  0  0  0  0  0  0  0  0  0  0  0
  -54.4461  -26.6753    3.6791 C   0  0  0  0  0  0  0  0  0  0  0  0
  -43.5517  -29.4875    1.4048 C   0  0  0  0  0  0  0  0  0  0  0  0
  -42.1888  -30.1224    3.6296 C   0  0  0  0  0  0  0  0  0  0  0  0
  -53.6910  -28.4042    5.2469 C   0  0  0  0  0  0  0  0  0  0  0  0
  -53.4433  -27.4448    4.2692 C   0  0  0  0  0  0  0  0  0  0  0  0
  -43.7896  -30.6526    2.1048 C   0  0  0  0  0  0  0  0  0  0  0  0
  -42.5680  -28.6699    1.9220 C   0  0  0  0  0  0  0  0  0  0  0  0
  -51.5787  -28.4333    4.9334 C   0  0  0  0  0  0  0  0  0  0  0  0
  -48.3775  -29.4463    3.3326 C   0  0  0  0  0  0  0  0  0  0  0  0
  -46.6320  -32.9492    1.6648 C   0  0  0  0  0  0  0  0  0  0  0  0
  -44.4820  -32.5684    0.6549 C   0  0  0  0  0  0  0  0  0  0  0  0
  -45.8265  -33.2477    0.4072 C   0  0  2  0  0  0  0  0  0  0  0  0
  -46.1504  -31.5581    2.1095 C   0  0  2  0  0  0  0  0  0  0  0  0
  -43.2845  -26.7585    0.4877 C   0  0  0  0  0  0  0  0  0  0  0  0
  -50.1070  -28.7281    4.9841 C   0  0  0  0  0  0  0  0  0  0  0  0
  -46.9958  -30.4389    1.5030 C   0  0  0  0  0  0  0  0  0  0  0  0
  -43.1243  -31.0028    3.2252 N   0  0  0  0  0  0  0  0  0  0  0  0
  -41.8641  -28.9571    3.0369 N   0  0  0  0  0  0  0  0  0  0  0  0
  -52.5208  -29.0082    5.6478 N   0  0  0  0  0  0  0  0  0  0  0  0
  -52.0842  -27.4854    4.0886 N   0  0  0  0  0  0  0  0  0  0  0  0
  -44.7689  -31.4998    1.6182 N   0  0  3  0  0  0  0  0  0  0  0  0
  -42.2927  -27.4636    1.2324 N   0  0  0  0  0  0  0  0  0  0  0  0
  -49.6711  -29.5029    3.8447 N   0  0  0  0  0  0  0  0  0  0  0  0
  -48.2410  -30.2917    2.2416 N   0  0  0  0  0  0  0  0  0  0  0  0
  -47.4794  -28.7409    3.7900 O   0  0  0  0  0  0  0  0  0  0  0  0
  -46.4455  -32.6771   -0.7377 O   0  0  0  0  0  0  0  0  0  0  0  0
  -57.0615  -28.0167    5.4146 H   0  0  0  0  0  0  0  0  0  0  0  0
  -56.5702  -26.3279    3.6851 H   0  0  0  0  0  0  0  0  0  0  0  0
  -55.2397  -29.3619    6.4340 H   0  0  0  0  0  0  0  0  0  0  0  0
  -54.2265  -25.9341    2.9191 H   0  0  0  0  0  0  0  0  0  0  0  0
  -44.1019  -29.2313    0.5066 H   0  0  0  0  0  0  0  0  0  0  0  0
  -41.6390  -30.3785    4.5270 H   0  0  0  0  0  0  0  0  0  0  0  0
  -47.7126  -32.9777    1.4926 H   0  0  0  0  0  0  0  0  0  0  0  0
  -46.3786  -33.6807    2.4418 H   0  0  0  0  0  0  0  0  0  0  0  0
  -43.7853  -33.2842    1.1072 H   0  0  0  0  0  0  0  0  0  0  0  0
  -44.0390  -32.1589   -0.2586 H   0  0  0  0  0  0  0  0  0  0  0  0
  -45.7200  -34.3242    0.2355 H   0  0  0  0  0  0  0  0  0  0  0  0
  -46.1994  -31.4954    3.1986 H   0  0  0  0  0  0  0  0  0  0  0  0
  -44.2450  -27.2795    0.5369 H   0  0  0  0  0  0  0  0  0  0  0  0
  -43.4119  -25.7492    0.8891 H   0  0  0  0  0  0  0  0  0  0  0  0
  -42.9827  -26.6768   -0.5601 H   0  0  0  0  0  0  0  0  0  0  0  0
  -49.5277  -27.7990    5.0022 H   0  0  0  0  0  0  0  0  0  0  0  0
  -49.8499  -29.2894    5.8885 H   0  0  0  0  0  0  0  0  0  0  0  0
  -46.4366  -29.5002    1.5384 H   0  0  0  0  0  0  0  0  0  0  0  0
  -47.2097  -30.6671    0.4555 H   0  0  0  0  0  0  0  0  0  0  0  0
  -51.5538  -26.9147    3.4435 H   0  0  0  0  0  0  0  0  0  0  0  0
  -41.3559  -27.1194    1.2894 H   0  0  0  0  0  0  0  0  0  0  0  0
  -50.3549  -30.0906    3.3773 H   0  0  0  0  0  0  0  0  0  0  0  0
  -49.0438  -30.8306    1.9457 H   0  0  0  0  0  0  0  0  0  0  0  0
  -45.8871  -32.9019   -1.4992 H   0  0  0  0  0  0  0  0  0  0  0  0
  1  2  1  0  0  0  0
  1  3  2  0  0  0  0
  2  4  2  0  0  0  0
  3  7  1  0  0  0  0
  4  8  1  0  0  0  0
  5  9  2  0  0  0  0
  5 10  1  0  0  0  0
  6 20  2  0  0  0  0
  6 21  1  0  0  0  0
  7  8  2  0  0  0  0
  7 22  1  0  0  0  0
  8 23  1  0  0  0  0
  9 20  1  0  0  0  0
  9 24  1  0  0  0  0
 10 21  2  0  0  0  0
 10 25  1  0  0  0  0
 11 18  1  0  0  0  0
 11 22  2  0  0  0  0
 11 23  1  0  0  0  0
 12 26  1  0  0  0  0
 12 27  1  0  0  0  0
 12 28  2  0  0  0  0
 13 15  1  0  0  0  0
 13 16  1  0  0  0  0
 14 15  1  0  0  0  0
 14 24  1  0  0  0  0
 15 29  1  0  0  0  0
 16 19  1  0  0  0  0
 16 24  1  0  0  0  0
 17 25  1  0  0  0  0
 18 26  1  0  0  0  0
 19 27  1  0  0  0  0
  1 30  1  0  0  0  0
  2 31  1  0  0  0  0
  3 32  1  0  0  0  0
  4 33  1  0  0  0  0
  5 34  1  0  0  0  0
  6 35  1  0  0  0  0
 13 36  1  0  0  0  0
 13 37  1  0  0  0  0
 14 38  1  0  0  0  0
 14 39  1  0  0  0  0
 15 40  1  0  0  0  0
 16 41  1  0  0  0  0
 17 42  1  0  0  0  0
 17 43  1  0  0  0  0
 17 44  1  0  0  0  0
 18 45  1  0  0  0  0
 18 46  1  0  0  0  0
 19 47  1  0  0  0  0
 19 48  1  0  0  0  0
 23 49  1  0  0  0  0
 25 50  1  0  0  0  0
 26 51  1  0  0  0  0
 27 52  1  0  0  0  0
 29 53  1  0  0  0  0
M  END
> <POSIT::Probability>
0.24

> <POSIT::Method>
FRED

> <ReceptorTitle>
UCSF-P4685-REFINED_LIGAND-BOUND-STATE_A__DU__LA1_A-201(A)

> <OMEGA_C>
DSNgwnri3sEQDKNAbwVfwg0818EotoNAGQxcwkL55MFMj7VA2shZwhRn1cGEdmtA8zQuwmvm68EY
0bM/TsEowp368MH0S2hAlMNWwsE748HA5qdA7cVVwuyO28EMnYhAkigvwm049cHMtQZAl0Uqwv9b
5cFABPY/nlBOwnF348F03p1AmoJBwhyS68EUSVVANIc6wvDLA8LoFtU/mu0xwgxGAsIAqSc/YE43
wrD9BMKggtA+9pk4wux2/MHIAgdAWiMtwn8R1sHgt/k+lW1IwjzT5cEUfp9Asvs7wtaC88FgY8A/
S38swqMF+MFEak5A2XQnwiuo58GIXEJASBVSwrsQ6MEcu7RALVZQwiXi28H41YJAWRMzwqT/+8Fo
IM8/wispwom128GAwJ0/Pa9GwuwF7MEkD3ZA1fZAwl5V8sFAdg9A8+o9wk7t5cHcjnJAPsg5wlG1
AsJA3Dy/+z5kwjki4MEgRK1A3kdiwoCf0sFU2GtAf/Vcwjjl6sFo481A8OdYwgB5z8Gk0jpAX2gw
wsLZ6cEwsgE/WI4mwjIH88Hk3JBAtNk+wi3pA8IID78/tYM5whS5BsLwRRxAJCQvwgIjBcLguI0/
8icwwrOiAMIAa4S+TeE2wvNLCcLAJ3E+KMw4woz2+8F8tkxA6vowwoE82sHQcAk/vaUtwmP+zcEg
mmM/Ve4rwhBq1cHQZA+/aBxGwmhk3sHQEaBAQ2ZHwqZQ6sHEbrxAGr85wnMA7MEo6sQ/uNY8wkZW
9cEAOuk+GDdOwllR18HAYlxAfWwlwpX02MHwCqU/ZWtJwpa58MHwJFhA0SxEwv6k9sH4DPk/V4w3
wpWbA8I457+/

> <OMEGA_E>
nlEOwQ==

> <OMEGA_NBR>
     14565

$$$$
CACHE3HI_1700_70
  -OEChem-03092622523D

 45 48  0     1  0  0  0  0  0999 V2000
  -43.9497  -29.2706    6.0882 C   0  0  0  0  0  0  0  0  0  0  0  0
  -46.2513  -29.2482    4.6752 C   0  0  0  0  0  0  0  0  0  0  0  0
  -46.2840  -29.3199    6.0719 C   0  0  0  0  0  0  0  0  0  0  0  0
  -45.0363  -29.1497    4.0197 C   0  0  0  0  0  0  0  0  0  0  0  0
  -48.4986  -29.3466    5.5956 C   0  0  0  0  0  0  0  0  0  0  0  0
  -44.8887  -31.4225    0.7927 C   0  0  0  0  0  0  0  0  0  0  0  0
  -50.3228  -29.0811    7.2171 C   0  0  0  0  0  0  0  0  0  0  0  0
  -50.7509  -28.9198    4.6808 C   0  0  0  0  0  0  0  0  0  0  0  0
  -51.7917  -29.4736    7.3494 C   0  0  0  0  0  0  0  0  0  0  0  0
  -52.2027  -29.2851    4.9864 C   0  0  0  0  0  0  0  0  0  0  0  0
  -44.2517  -32.6232    2.7165 C   0  0  0  0  0  0  0  0  0  0  0  0
  -44.6834  -32.8512    1.2691 C   0  0  1  0  0  0  0  0  0  0  0  0
  -43.6975  -30.7080    1.4642 C   0  0  1  0  0  0  0  0  0  0  0  0
  -45.9341  -33.7470    1.1594 C   0  0  0  0  0  0  0  0  0  0  0  0
  -43.9429  -29.2125    1.7395 C   0  0  0  0  0  0  0  0  0  0  0  0
  -45.1262  -29.3205    6.7650 N   0  0  0  0  0  0  0  0  0  0  0  0
  -43.8865  -29.1745    4.7325 N   0  0  0  0  0  0  0  0  0  0  0  0
  -47.5838  -29.3561    6.5420 N   0  0  0  0  0  0  0  0  0  0  0  0
  -49.8604  -29.3069    5.8204 N   0  0  0  0  0  0  0  0  0  0  0  0
  -45.0887  -29.0061    2.6370 N   0  0  0  0  0  0  0  0  0  0  0  0
  -52.5518  -28.8284    6.3078 O   0  0  0  0  0  0  0  0  0  0  0  0
  -43.4216  -31.4369    2.6932 O   0  0  0  0  0  0  0  0  0  0  0  0
  -46.0969  -34.2001   -0.1837 O   0  0  0  0  0  0  0  0  0  0  0  0
  -47.8153  -29.2997    4.0054 S   0  0  0  0  0  0  0  0  0  0  0  0
  -43.0273  -29.3087    6.6487 H   0  0  0  0  0  0  0  0  0  0  0  0
  -44.8352  -31.3516   -0.3037 H   0  0  0  0  0  0  0  0  0  0  0  0
  -45.8502  -31.0161    1.1400 H   0  0  0  0  0  0  0  0  0  0  0  0
  -50.2053  -28.0176    7.4724 H   0  0  0  0  0  0  0  0  0  0  0  0
  -49.7190  -29.6921    7.9042 H   0  0  0  0  0  0  0  0  0  0  0  0
  -50.4278  -29.4503    3.7729 H   0  0  0  0  0  0  0  0  0  0  0  0
  -50.6777  -27.8345    4.5170 H   0  0  0  0  0  0  0  0  0  0  0  0
  -51.8906  -30.5650    7.2545 H   0  0  0  0  0  0  0  0  0  0  0  0
  -52.1703  -29.1552    8.3319 H   0  0  0  0  0  0  0  0  0  0  0  0
  -52.8631  -28.8067    4.2481 H   0  0  0  0  0  0  0  0  0  0  0  0
  -52.3237  -30.3771    4.9334 H   0  0  0  0  0  0  0  0  0  0  0  0
  -45.1305  -32.4644    3.3588 H   0  0  0  0  0  0  0  0  0  0  0  0
  -43.6783  -33.4859    3.0866 H   0  0  0  0  0  0  0  0  0  0  0  0
  -43.8567  -33.3115    0.7080 H   0  0  0  0  0  0  0  0  0  0  0  0
  -42.8296  -30.7922    0.7936 H   0  0  0  0  0  0  0  0  0  0  0  0
  -45.8191  -34.6153    1.8248 H   0  0  0  0  0  0  0  0  0  0  0  0
  -46.8218  -33.1705    1.4590 H   0  0  0  0  0  0  0  0  0  0  0  0
  -43.0434  -28.7834    2.2051 H   0  0  0  0  0  0  0  0  0  0  0  0
  -44.1409  -28.7022    0.7854 H   0  0  0  0  0  0  0  0  0  0  0  0
  -45.7935  -29.6437    2.3260 H   0  0  0  0  0  0  0  0  0  0  0  0
  -46.8690  -34.7505   -0.2413 H   0  0  0  0  0  0  0  0  0  0  0  0
  1 16  1  0  0  0  0
  1 17  2  0  0  0  0
  2  3  1  0  0  0  0
  2  4  2  0  0  0  0
  2 24  1  0  0  0  0
  3 16  2  0  0  0  0
  3 18  1  0  0  0  0
  4 17  1  0  0  0  0
  4 20  1  0  0  0  0
  5 18  2  0  0  0  0
  5 19  1  0  0  0  0
  5 24  1  0  0  0  0
  6 12  1  0  0  0  0
  6 13  1  0  0  0  0
  7  9  1  0  0  0  0
  7 19  1  0  0  0  0
  8 10  1  0  0  0  0
  8 19  1  0  0  0  0
  9 21  1  0  0  0  0
 10 21  1  0  0  0  0
 11 12  1  0  0  0  0
 11 22  1  0  0  0  0
 12 14  1  0  0  0  0
 13 15  1  0  0  0  0
 13 22  1  0  0  0  0
 14 23  1  0  0  0  0
 15 20  1  0  0  0  0
  1 25  1  0  0  0  0
  6 26  1  0  0  0  0
  6 27  1  0  0  0  0
  7 28  1  0  0  0  0
  7 29  1  0  0  0  0
  8 30  1  0  0  0  0
  8 31  1  0  0  0  0
  9 32  1  0  0  0  0
  9 33  1  0  0  0  0
 10 34  1  0  0  0  0
 10 35  1  0  0  0  0
 11 36  1  0  0  0  0
 11 37  1  0  0  0  0
 12 38  1  0  0  0  0
 13 39  1  0  0  0  0
 14 40  1  0  0  0  0
 14 41  1  0  0  0  0
 15 42  1  0  0  0  0
 15 43  1  0  0  0  0
 20 44  1  0  0  0  0
 23 45  1  0  0  0  0
M  END
> <POSIT::Probability>
0.5

> <POSIT::Method>
SHAPEFIT

> <ReceptorTitle>
UCSF-P4685-REFINED_LIGAND-BOUND-STATE_A__DU__LA1_A-201(A)

> <OMEGA_C>
dswvwicq6sHQ0sJAXgE5wjj86cGTm5VAyyI5wjeP6sGpTMJAISU0wqsy6cELoYBAkv5Bwr7F6sHB
DrNAE44zwkFh+8Gb8Eo/lEpJwhSm6MEl8uZA7QBLwsJb58FEyZVAsSpPwuPJ68EtLutAkM9QwtVH
6sGnkJ9AyAExwjB+AsJ32y1A1bsywq1nA8KgcKI/P8ouwguq9cHoars/hbw3wur8BsKkZ5Q/jcUv
wkOz6cEYp94/OIE0wk6Q6sEde9hAxIsvwmhl6cGAcJdA0FU+wjrZ6sEcWNFAFXFHwn506sH1QLpA
3Vo0wngM6MGXxChABTVSwnag5sFA2clAxa8twt1++8GbXSxANGM4wt/MCML0GDy+5EI/ws5l6sE+
LIBA7Rsswjp46sEvwtRAR1czwgXQ+sECe5u+j2Y3wgkh+MFJ6pE/P9JIwhck4ME+Hu9AQ+BGwl6J
7cHT7vxAF7ZJwiWa68H6d3FA/bVKwiCt3sFYi5BAAZBPwh+F9MGjJOhAX65QwsA96cFWTwVBxHNT
wil05sFk8IdAd0tRwlQE88FI3p1AqYU0woDbAcIy9lZAjrYuwo/xBcKFikVATW0vwv4+BcKlQjU/
i1ErwmJW9sEHKUs/wEY3whd2CsKck+k/gkk7wqGuBMLxvro/fSwswmxE5sFHIA1ASZAwwg6e5cEj
DUk/kSw3wkUm7cGL3BRA3Xk7wogAC8IDFne+

> <OMEGA_E>
hnRVPw==

> <OMEGA_NBR>
     15995

$$$$
CACHE3HI_1702_30
  -OEChem-03092622523D

 39 42  0     1  0  0  0  0  0999 V2000
  -42.3659  -31.0421    1.5359 C   0  0  0  0  0  0  0  0  0  0  0  0
  -43.7057  -31.2956    1.8062 C   0  0  0  0  0  0  0  0  0  0  0  0
  -41.9868  -29.7946    1.0531 C   0  0  0  0  0  0  0  0  0  0  0  0
  -44.6674  -30.3018    1.5929 C   0  0  0  0  0  0  0  0  0  0  0  0
  -47.4282  -28.9075    6.2663 C   0  0  0  0  0  0  0  0  0  0  0  0
  -46.8407  -28.6876    5.0176 C   0  0  0  0  0  0  0  0  0  0  0  0
  -48.9505  -29.1557    3.8761 C   0  0  0  0  0  0  0  0  0  0  0  0
  -42.9536  -28.8013    0.8538 C   0  0  0  0  0  0  0  0  0  0  0  0
  -44.3150  -29.0268    1.1168 C   0  0  0  0  0  0  0  0  0  0  0  0
  -48.7618  -29.2460    6.2701 C   0  0  0  0  0  0  0  0  0  0  0  0
  -47.5955  -28.8104    3.8325 C   0  0  0  0  0  0  0  0  0  0  0  0
  -49.5081  -29.3688    5.1179 C   0  0  0  0  0  0  0  0  0  0  0  0
  -43.3983  -26.4987    0.1769 C   0  0  0  0  0  0  0  0  0  0  0  0
  -50.8536  -29.8064    6.7763 C   0  0  0  0  0  0  0  0  0  0  0  0
  -47.5522  -28.6499    1.3197 C   0  0  0  0  0  0  0  0  0  0  0  0
  -44.7723  -26.6448    0.7860 C   0  0  0  0  0  0  0  0  0  0  0  0
  -46.5274  -28.3286    0.2474 C   0  0  0  0  0  0  0  0  0  0  0  0
  -42.5451  -27.5649    0.3337 N   0  0  0  0  0  0  0  0  0  0  0  0
  -49.6078  -29.5208    7.3113 N   0  0  0  0  0  0  0  0  0  0  0  0
  -45.2407  -28.0237    0.8567 N   0  0  1  0  0  0  0  0  0  0  0  0
  -46.9723  -28.5794    2.5828 N   0  0  0  0  0  0  0  0  0  0  0  0
  -43.0501  -25.4411   -0.3502 O   0  0  0  0  0  0  0  0  0  0  0  0
  -51.8634  -30.0997    7.4040 O   0  0  0  0  0  0  0  0  0  0  0  0
  -48.7238  -28.8956    1.0503 O   0  0  0  0  0  0  0  0  0  0  0  0
  -50.8255  -29.7180    5.3724 O   0  0  0  0  0  0  0  0  0  0  0  0
  -41.6206  -31.8152    1.6966 H   0  0  0  0  0  0  0  0  0  0  0  0
  -44.0090  -32.2695    2.1801 H   0  0  0  0  0  0  0  0  0  0  0  0
  -40.9394  -29.6038    0.8339 H   0  0  0  0  0  0  0  0  0  0  0  0
  -45.7020  -30.5529    1.8134 H   0  0  0  0  0  0  0  0  0  0  0  0
  -46.8547  -28.8146    7.1806 H   0  0  0  0  0  0  0  0  0  0  0  0
  -45.7878  -28.4183    4.9685 H   0  0  0  0  0  0  0  0  0  0  0  0
  -49.5420  -29.2523    2.9723 H   0  0  0  0  0  0  0  0  0  0  0  0
  -44.7397  -26.2142    1.7941 H   0  0  0  0  0  0  0  0  0  0  0  0
  -45.4648  -26.0472    0.1814 H   0  0  0  0  0  0  0  0  0  0  0  0
  -46.8383  -27.4571   -0.3352 H   0  0  0  0  0  0  0  0  0  0  0  0
  -46.4023  -29.1930   -0.4112 H   0  0  0  0  0  0  0  0  0  0  0  0
  -41.5732  -27.4518    0.0599 H   0  0  0  0  0  0  0  0  0  0  0  0
  -49.3567  -29.5136    8.2919 H   0  0  0  0  0  0  0  0  0  0  0  0
  -45.9859  -28.3314    2.6281 H   0  0  0  0  0  0  0  0  0  0  0  0
  1  2  1  0  0  0  0
  1  3  2  0  0  0  0
  2  4  2  0  0  0  0
  3  8  1  0  0  0  0
  4  9  1  0  0  0  0
  5  6  2  0  0  0  0
  5 10  1  0  0  0  0
  6 11  1  0  0  0  0
  7 11  2  0  0  0  0
  7 12  1  0  0  0  0
  8  9  2  0  0  0  0
  8 18  1  0  0  0  0
  9 20  1  0  0  0  0
 10 12  2  0  0  0  0
 10 19  1  0  0  0  0
 11 21  1  0  0  0  0
 12 25  1  0  0  0  0
 13 16  1  0  0  0  0
 13 18  1  0  0  0  0
 13 22  2  0  0  0  0
 14 19  1  0  0  0  0
 14 23  2  0  0  0  0
 14 25  1  0  0  0  0
 15 17  1  0  0  0  0
 15 21  1  0  0  0  0
 15 24  2  0  0  0  0
 16 20  1  0  0  0  0
 17 20  1  0  0  0  0
  1 26  1  0  0  0  0
  2 27  1  0  0  0  0
  3 28  1  0  0  0  0
  4 29  1  0  0  0  0
  5 30  1  0  0  0  0
  6 31  1  0  0  0  0
  7 32  1  0  0  0  0
 16 33  1  0  0  0  0
 16 34  1  0  0  0  0
 17 35  1  0  0  0  0
 17 36  1  0  0  0  0
 18 37  1  0  0  0  0
 19 38  1  0  0  0  0
 21 39  1  0  0  0  0
M  END
> <POSIT::Probability>
0.24

> <POSIT::Method>
FRED

> <ReceptorTitle>
UCSF-P4685-REFINED_LIGAND-BOUND-STATE_A__DU__LA1_A-201(A)

> <OMEGA_C>
pHYpwkpW+MGImMQ/nNIuwnpd+sGWMuc/dvInwmtb7sFSzIY/Xqsywhhq8sF85Ms/drY9wqhC58Ev
hchA6Vw7wj+A5cF4kKBAWc1DwvM+6cGqEXhAdtArwhRp5sFalFo/hkIxwto26MGs844/IQxDwsD3
6cH5pMhAzGE+wr575sHYR3VAUghGwl3z6sEdxqNA4pctwm7908GgJzU+DGpLwoxz7sGd19hAgDU+
whEz5cHh6qg/0BYzwnoo1cHRNkk/FRw6wuSg4sHMWX0+Ji4qwuqE3MGK16o+Wm5Gwp0q7MEt9ulA
f/Y0wnww4MH6UFs/luM7wpei5MG5TCVAVjMswlKHy8GySLO+HHRPwkHM8MGO7exAMeVCwkUq58Er
b4Y/TU1LwnW+7cHQ6qtAhHsmwnmF/sHUKdk/MAkwwvETAcJxhwtA78EjwpDU7MHmd1U/3842wmls
9MGmHOg/O2s7wjqE5sGAx+VAwCY3wrRY48FP/p5A+CpGwrcE6sGZOj5AaPUywri20cHio+U/7ts1
wrxg0MFEwjk+Y1o7wgyo28HUmqu+75s5wj6L6cG0h9K++Uomwl6d28Ggg3U9N21Fwsgb7MHKqwRB
hvE3wsym4sEfMyhA

> <OMEGA_E>
2aQKwQ==

> <OMEGA_NBR>
     17273

$$$$
CACHE3HI_1702_49
  -OEChem-03092622523D

 39 42  0     1  0  0  0  0  0999 V2000
  -45.3600  -33.2465    2.3087 C   0  0  0  0  0  0  0  0  0  0  0  0
  -46.2467  -32.3674    1.6976 C   0  0  0  0  0  0  0  0  0  0  0  0
  -44.1135  -32.7888    2.7205 C   0  0  0  0  0  0  0  0  0  0  0  0
  -45.8876  -31.0298    1.4989 C   0  0  0  0  0  0  0  0  0  0  0  0
  -49.1864  -29.3247    2.6546 C   0  0  0  0  0  0  0  0  0  0  0  0
  -50.4032  -29.6548    3.2608 C   0  0  0  0  0  0  0  0  0  0  0  0
  -48.1072  -29.0492    4.8272 C   0  0  0  0  0  0  0  0  0  0  0  0
  -43.7567  -31.4515    2.5069 C   0  0  0  0  0  0  0  0  0  0  0  0
  -44.6304  -30.5389    1.8930 C   0  0  0  0  0  0  0  0  0  0  0  0
  -49.3196  -29.3787    5.3880 C   0  0  0  0  0  0  0  0  0  0  0  0
  -48.0479  -29.0246    3.4313 C   0  0  0  0  0  0  0  0  0  0  0  0
  -50.4378  -29.6738    4.6381 C   0  0  0  0  0  0  0  0  0  0  0  0
  -42.0269  -29.7444    2.7325 C   0  0  0  0  0  0  0  0  0  0  0  0
  -51.0308  -29.8483    6.7286 C   0  0  0  0  0  0  0  0  0  0  0  0
  -46.5896  -28.6173    1.4191 C   0  0  0  0  0  0  0  0  0  0  0  0
  -42.8250  -28.8896    1.7772 C   0  0  0  0  0  0  0  0  0  0  0  0
  -45.1457  -28.2299    1.1572 C   0  0  0  0  0  0  0  0  0  0  0  0
  -42.5061  -31.0118    2.9636 N   0  0  0  0  0  0  0  0  0  0  0  0
  -49.6931  -29.4884    6.7009 N   0  0  0  0  0  0  0  0  0  0  0  0
  -44.2468  -29.2113    1.7475 N   0  0  1  0  0  0  0  0  0  0  0  0
  -46.8314  -28.6944    2.7874 N   0  0  0  0  0  0  0  0  0  0  0  0
  -40.9602  -29.3421    3.1998 O   0  0  0  0  0  0  0  0  0  0  0  0
  -51.7109  -30.0389    7.7289 O   0  0  0  0  0  0  0  0  0  0  0  0
  -47.3942  -28.7906    0.5091 O   0  0  0  0  0  0  0  0  0  0  0  0
  -51.5399  -29.9756    5.4231 O   0  0  0  0  0  0  0  0  0  0  0  0
  -45.6376  -34.2853    2.4593 H   0  0  0  0  0  0  0  0  0  0  0  0
  -47.2202  -32.7201    1.3687 H   0  0  0  0  0  0  0  0  0  0  0  0
  -43.4262  -33.4775    3.2052 H   0  0  0  0  0  0  0  0  0  0  0  0
  -46.6221  -30.3802    1.0290 H   0  0  0  0  0  0  0  0  0  0  0  0
  -49.1272  -29.3009    1.5685 H   0  0  0  0  0  0  0  0  0  0  0  0
  -51.2787  -29.8855    2.6656 H   0  0  0  0  0  0  0  0  0  0  0  0
  -47.2422  -28.8210    5.4401 H   0  0  0  0  0  0  0  0  0  0  0  0
  -42.6900  -27.8419    2.0720 H   0  0  0  0  0  0  0  0  0  0  0  0
  -42.3927  -29.0220    0.7784 H   0  0  0  0  0  0  0  0  0  0  0  0
  -44.9200  -27.2570    1.6023 H   0  0  0  0  0  0  0  0  0  0  0  0
  -44.9641  -28.1988    0.0790 H   0  0  0  0  0  0  0  0  0  0  0  0
  -41.9272  -31.6600    3.4898 H   0  0  0  0  0  0  0  0  0  0  0  0
  -49.0910  -29.3323    7.4996 H   0  0  0  0  0  0  0  0  0  0  0  0
  -46.0519  -28.4895    3.4095 H   0  0  0  0  0  0  0  0  0  0  0  0
  1  2  1  0  0  0  0
  1  3  2  0  0  0  0
  2  4  2  0  0  0  0
  3  8  1  0  0  0  0
  4  9  1  0  0  0  0
  5  6  2  0  0  0  0
  5 11  1  0  0  0  0
  6 12  1  0  0  0  0
  7 10  1  0  0  0  0
  7 11  2  0  0  0  0
  8  9  2  0  0  0  0
  8 18  1  0  0  0  0
  9 20  1  0  0  0  0
 10 12  2  0  0  0  0
 10 19  1  0  0  0  0
 11 21  1  0  0  0  0
 12 25  1  0  0  0  0
 13 16  1  0  0  0  0
 13 18  1  0  0  0  0
 13 22  2  0  0  0  0
 14 19  1  0  0  0  0
 14 23  2  0  0  0  0
 14 25  1  0  0  0  0
 15 17  1  0  0  0  0
 15 21  1  0  0  0  0
 15 24  2  0  0  0  0
 16 20  1  0  0  0  0
 17 20  1  0  0  0  0
  1 26  1  0  0  0  0
  2 27  1  0  0  0  0
  3 28  1  0  0  0  0
  4 29  1  0  0  0  0
  5 30  1  0  0  0  0
  6 31  1  0  0  0  0
  7 32  1  0  0  0  0
 16 33  1  0  0  0  0
 16 34  1  0  0  0  0
 17 35  1  0  0  0  0
 17 36  1  0  0  0  0
 18 37  1  0  0  0  0
 19 38  1  0  0  0  0
 21 39  1  0  0  0  0
M  END
> <POSIT::Probability>
0.24

> <POSIT::Method>
FRED

> <ReceptorTitle>
UCSF-P4685-REFINED_LIGAND-BOUND-STATE_A__DU__LA1_A-201(A)

> <OMEGA_C>
mHA1wnL8BMKgwRNAoPw4wj54AcJYSdk/M3QwwsYnA8J0HS5A5Iw3whI9+MEc3b8/2b5EwuiY6sFu
5SlA6JxJwhQ97cGisVBAvG1Awshk6MFEeJpA0AYvwsCc+8GocCBAkoUywq5P9MG0TPI/UEdFwpQH
68GgaqxAGTFAwncy6MHWmltASMBJwuRj7cG0a5RAghsownD07cH/4C5Agh9MwmnJ7sFaUNdAt1s6
wiXw5MEYpLU/x0wrwtMd58GgfOM/OJU0wtvW4cG2IJQ/OgYqwhEY+MH+qj1As8VGwj7o68G9bdZA
svwwwq6w6cGYrt8/YVM7whKO5cF1ZTJASdcjwrm86sEkykxA6tdOwrFP8MFiU/dAtZM9wjtT5sFI
VwI/6ChOwhfO78Fwiq1A6Iw2wiIkCcIoZR1AgOE8wlbhAsLQMa8/eLQtwvroBcJuIk1AB306wrYK
88Est4M/OoJEwjho6sHCxcg/cB1NwokV78FYmSpAAvg8wn6R5sFcFa5AlcIqwji83sHdmgRAI5Ip
wgst6MEkQ0c/HK4zwlkO2sGUF80/O9szwgyX4cGgtqE9arUnwqdH/cEmWF9AL11Ewn2o6sF2/O9A
KjU4wo/q48GmNFpA

> <OMEGA_E>
9KMYwQ==

> <OMEGA_NBR>
     18551

$$$$
CACHE3HI_1706_50
  -OEChem-03092622523D

 36 38  0     0  0  0  0  0  0999 V2000
  -50.4558  -29.5052    2.7851 C   0  0  0  0  0  0  0  0  0  0  0  0
  -51.8424  -29.5936    2.6471 C   0  0  0  0  0  0  0  0  0  0  0  0
  -52.1046  -29.4296    5.0461 C   0  0  0  0  0  0  0  0  0  0  0  0
  -49.8829  -29.3794    4.0552 C   0  0  0  0  0  0  0  0  0  0  0  0
  -50.7167  -29.3418    5.1853 C   0  0  0  0  0  0  0  0  0  0  0  0
  -52.6641  -29.5549    3.7747 C   0  0  0  0  0  0  0  0  0  0  0  0
  -48.4298  -29.2870    4.2164 C   0  0  0  0  0  0  0  0  0  0  0  0
  -50.1073  -29.2074    6.5365 C   0  0  0  0  0  0  0  0  0  0  0  0
  -47.9281  -29.1675    5.4507 C   0  0  0  0  0  0  0  0  0  0  0  0
  -46.4671  -29.0756    5.6234 C   0  0  0  0  0  0  0  0  0  0  0  0
  -44.4009  -29.6273    4.2198 C   0  0  0  0  0  0  0  0  0  0  0  0
  -46.0034  -28.7818    3.0815 C   0  0  0  0  0  0  0  0  0  0  0  0
  -44.4872  -28.9115    2.8631 C   0  0  0  0  0  0  0  0  0  0  0  0
  -45.3606  -31.2441    1.7175 C   0  0  0  0  0  0  0  0  0  0  0  0
  -44.9977  -32.5526    1.0552 C   0  0  0  0  0  0  0  0  0  0  0  0
  -48.7224  -29.1288    6.5684 N   0  0  0  0  0  0  0  0  0  0  0  0
  -45.7412  -29.1228    4.4688 N   0  0  0  0  0  0  0  0  0  0  0  0
  -50.8100  -29.1711    7.5419 O   0  0  0  0  0  0  0  0  0  0  0  0
  -45.9885  -28.9676    6.7496 O   0  0  0  0  0  0  0  0  0  0  0  0
  -44.8391  -32.4127   -0.2780 F   0  0  0  0  0  0  0  0  0  0  0  0
  -43.8292  -33.0183    1.5543 F   0  0  0  0  0  0  0  0  0  0  0  0
  -45.9338  -33.5007    1.2712 F   0  0  0  0  0  0  0  0  0  0  0  0
  -44.0706  -30.0054    1.4656 S   0  0  0  0  0  0  0  0  0  0  0  0
  -54.3727  -29.6630    3.5945 Cl  0  0  0  0  0  0  0  0  0  0  0  0
  -49.8336  -29.5366    1.8939 H   0  0  0  0  0  0  0  0  0  0  0  0
  -52.2694  -29.6914    1.6520 H   0  0  0  0  0  0  0  0  0  0  0  0
  -52.7505  -29.4004    5.9203 H   0  0  0  0  0  0  0  0  0  0  0  0
  -47.8035  -29.3188    3.3314 H   0  0  0  0  0  0  0  0  0  0  0  0
  -44.3675  -30.7212    4.2216 H   0  0  0  0  0  0  0  0  0  0  0  0
  -43.6476  -29.2280    4.9043 H   0  0  0  0  0  0  0  0  0  0  0  0
  -46.3959  -27.7718    2.9355 H   0  0  0  0  0  0  0  0  0  0  0  0
  -46.6541  -29.5137    2.5927 H   0  0  0  0  0  0  0  0  0  0  0  0
  -43.9629  -27.9489    2.8430 H   0  0  0  0  0  0  0  0  0  0  0  0
  -46.2987  -30.8599    1.3052 H   0  0  0  0  0  0  0  0  0  0  0  0
  -45.4984  -31.3912    2.7925 H   0  0  0  0  0  0  0  0  0  0  0  0
  -48.2676  -29.0368    7.4723 H   0  0  0  0  0  0  0  0  0  0  0  0
  1  2  1  0  0  0  0
  1  4  2  0  0  0  0
  2  6  2  0  0  0  0
  3  5  2  0  0  0  0
  3  6  1  0  0  0  0
  4  5  1  0  0  0  0
  4  7  1  0  0  0  0
  5  8  1  0  0  0  0
  6 24  1  0  0  0  0
  7  9  2  0  0  0  0
  8 16  1  0  0  0  0
  8 18  2  0  0  0  0
  9 10  1  0  0  0  0
  9 16  1  0  0  0  0
 10 17  1  0  0  0  0
 10 19  2  0  0  0  0
 11 13  1  0  0  0  0
 11 17  1  0  0  0  0
 12 13  1  0  0  0  0
 12 17  1  0  0  0  0
 13 23  1  0  0  0  0
 14 15  1  0  0  0  0
 14 23  1  0  0  0  0
 15 20  1  0  0  0  0
 15 21  1  0  0  0  0
 15 22  1  0  0  0  0
  1 25  1  0  0  0  0
  2 26  1  0  0  0  0
  3 27  1  0  0  0  0
  7 28  1  0  0  0  0
 11 29  1  0  0  0  0
 11 30  1  0  0  0  0
 12 31  1  0  0  0  0
 12 32  1  0  0  0  0
 13 33  1  0  0  0  0
 14 34  1  0  0  0  0
 14 35  1  0  0  0  0
 16 36  1  0  0  0  0
M  END
> <POSIT::Probability>
0.23

> <POSIT::Method>
HYBRID

> <ReceptorTitle>
UCSF-P4685-REFINED_LIGAND-BOUND-STATE_A__DU__LA1_A-201(A)

> <OMEGA_C>
vdJJwqoK7MGMPzJAqV5Pwp6/7MFEailAKGtQws9v68G3eaFACohHwhgJ68HOw4FA5d1Kwga86sFO
7qVADqhSwmBw7MH4lHFAKLhBwtVL6sF07IZA7W1IwrGo6cEpK9FAaLY/wgJX6cHCa65AS945wrya
6MGo8rNAhZoxwsYE7cG0CIdAiAM4wjZB5sFQN0VA8PIxwthK58HWPDdANXE1wuHz+cF81ds/ov0z
wtg1AsJoD4c/teNCwtUH6cEkMNJA8/Y2wmX76MErAI9AZD1LwoJe6cHaVvFAOPQ3wpy958Eg/ddA
N1szwqSmAcKAW46+D1EvwsgSBMLc9MY/Pbw3wq0ABsKUtaI/RkgwwvsK8MGcmLs/sX1Zwt5N7cHM
C2ZAp1VHwvxK7MGsa/I/1BNRwgmI7cGIc9M/fABTwvgz68FHc71AzjY/wumM6sH8NVVAXXgxwgnF
9cF4F4dAKpcuwtjS6cFU8JxAaZU5wqMs3sFM3ztAz506wvYb7MHY7iVA/NkvwlyX38Ew8zVA4TE5
wgrh9sHcEac/W/41wi4h+8FKuDJADRJBwmFL6MEKHe9A

> <OMEGA_E>
HJkQwQ==

> <OMEGA_NBR>
     19767

$$$$
CACHE3HI_1706_81
  -OEChem-03092622523D

 46 49  0     1  0  0  0  0  0999 V2000
  -47.2072  -34.9684    0.7926 C   0  0  0  0  0  0  0  0  0  0  0  0
  -46.6125  -35.9226   -0.0493 C   0  0  0  0  0  0  0  0  0  0  0  0
  -44.4828  -34.7504    0.1354 C   0  0  0  0  0  0  0  0  0  0  0  0
  -46.9952  -29.1850    6.8355 C   0  0  0  0  0  0  0  0  0  0  0  0
  -46.4471  -33.8994    1.3155 C   0  0  0  0  0  0  0  0  0  0  0  0
  -45.0729  -33.7804    0.9767 C   0  0  0  0  0  0  0  0  0  0  0  0
  -48.0623  -28.9946    5.9343 C   0  0  0  0  0  0  0  0  0  0  0  0
  -45.2458  -35.8259   -0.3621 C   0  0  0  0  0  0  0  0  0  0  0  0
  -47.7591  -28.9299    4.5588 C   0  0  0  0  0  0  0  0  0  0  0  0
  -45.5153  -29.3555    5.0328 C   0  0  0  0  0  0  0  0  0  0  0  0
  -50.4998  -28.7680    5.6320 C   0  0  0  0  0  0  0  0  0  0  0  0
  -50.4777  -29.1611    4.1486 C   0  0  0  0  0  0  0  0  0  0  0  0
  -43.1062  -30.6833    1.0004 C   0  0  0  0  0  0  0  0  0  0  0  0
  -44.3029  -31.4568    0.4707 C   0  0  0  0  0  0  0  0  0  0  0  0
  -43.9733  -32.1947    2.7060 C   0  0  0  0  0  0  0  0  0  0  0  0
  -43.2038  -30.8505    2.5234 C   0  0  2  0  0  0  0  0  0  0  0  0
  -47.1194  -32.9337    2.2687 C   0  0  0  0  0  0  0  0  0  0  0  0
  -43.9468  -29.6138    3.0763 C   0  0  0  0  0  0  0  0  0  0  0  0
  -45.7350  -29.3571    6.3724 N   0  0  0  0  0  0  0  0  0  0  0  0
  -46.5018  -29.0979    4.1451 N   0  0  0  0  0  0  0  0  0  0  0  0
  -49.3566  -28.8195    6.4240 N   0  0  0  0  0  0  0  0  0  0  0  0
  -44.3114  -32.6577    1.3200 N   0  0  1  0  0  0  0  0  0  0  0  0
  -44.2620  -29.7053    4.5337 N   0  0  0  0  0  0  0  0  0  0  0  0
  -51.5818  -28.6273    6.1849 O   0  0  0  0  0  0  0  0  0  0  0  0
  -48.9624  -28.5672    3.3481 S   0  0  0  0  0  0  0  0  0  0  0  0
  -44.5014  -37.0422   -1.3690 Cl  0  0  0  0  0  0  0  0  0  0  0  0
  -48.2546  -35.0530    1.0420 H   0  0  0  0  0  0  0  0  0  0  0  0
  -47.2045  -36.7294   -0.4555 H   0  0  0  0  0  0  0  0  0  0  0  0
  -43.4388  -34.6670   -0.1284 H   0  0  0  0  0  0  0  0  0  0  0  0
  -47.1838  -29.1935    7.8989 H   0  0  0  0  0  0  0  0  0  0  0  0
  -50.5241  -30.2569    4.0650 H   0  0  0  0  0  0  0  0  0  0  0  0
  -51.3493  -28.7177    3.6449 H   0  0  0  0  0  0  0  0  0  0  0  0
  -42.1657  -31.1080    0.6194 H   0  0  0  0  0  0  0  0  0  0  0  0
  -43.1700  -29.6220    0.7182 H   0  0  0  0  0  0  0  0  0  0  0  0
  -45.2322  -30.8804    0.5893 H   0  0  0  0  0  0  0  0  0  0  0  0
  -44.1677  -31.7207   -0.5885 H   0  0  0  0  0  0  0  0  0  0  0  0
  -43.3377  -32.9350    3.2138 H   0  0  0  0  0  0  0  0  0  0  0  0
  -44.8905  -32.0354    3.2920 H   0  0  0  0  0  0  0  0  0  0  0  0
  -42.2003  -30.9245    2.9679 H   0  0  0  0  0  0  0  0  0  0  0  0
  -47.0145  -33.3026    3.2997 H   0  0  0  0  0  0  0  0  0  0  0  0
  -46.6454  -31.9447    2.1833 H   0  0  0  0  0  0  0  0  0  0  0  0
  -48.1867  -32.8520    2.0154 H   0  0  0  0  0  0  0  0  0  0  0  0
  -43.3162  -28.7275    2.9122 H   0  0  0  0  0  0  0  0  0  0  0  0
  -44.8908  -29.4996    2.5231 H   0  0  0  0  0  0  0  0  0  0  0  0
  -49.4710  -28.7245    7.4129 H   0  0  0  0  0  0  0  0  0  0  0  0
  -43.5991  -29.1217    5.0025 H   0  0  0  0  0  0  0  0  0  0  0  0
  1  2  2  0  0  0  0
  1  5  1  0  0  0  0
  2  8  1  0  0  0  0
  3  6  1  0  0  0  0
  3  8  2  0  0  0  0
  4  7  1  0  0  0  0
  4 19  2  0  0  0  0
  5  6  2  0  0  0  0
  5 17  1  0  0  0  0
  6 22  1  0  0  0  0
  7  9  2  0  0  0  0
  7 21  1  0  0  0  0
  8 26  1  0  0  0  0
  9 20  1  0  0  0  0
  9 25  1  0  0  0  0
 10 19  1  0  0  0  0
 10 20  2  0  0  0  0
 10 23  1  0  0  0  0
 11 12  1  0  0  0  0
 11 21  1  0  0  0  0
 11 24  2  0  0  0  0
 12 25  1  0  0  0  0
 13 14  1  0  0  0  0
 13 16  1  0  0  0  0
 14 22  1  0  0  0  0
 15 16  1  0  0  0  0
 15 22  1  0  0  0  0
 16 18  1  0  0  0  0
 18 23  1  0  0  0  0
  1 27  1  0  0  0  0
  2 28  1  0  0  0  0
  3 29  1  0  0  0  0
  4 30  1  0  0  0  0
 12 31  1  0  0  0  0
 12 32  1  0  0  0  0
 13 33  1  0  0  0  0
 13 34  1  0  0  0  0
 14 35  1  0  0  0  0
 14 36  1  0  0  0  0
 15 37  1  0  0  0  0
 15 38  1  0  0  0  0
 16 39  1  0  0  0  0
 17 40  1  0  0  0  0
 17 41  1  0  0  0  0
 17 42  1  0  0  0  0
 18 43  1  0  0  0  0
 18 44  1  0  0  0  0
 21 45  1  0  0  0  0
 23 46  1  0  0  0  0
M  END
> <POSIT::Probability>
0.51

> <POSIT::Method>
SHAPEFIT

> <ReceptorTitle>
UCSF-P4685-REFINED_LIGAND-BOUND-STATE_A__DU__LA1_A-201(A)

> <OMEGA_C>
K9Q8wqTfC8Kg5Eo/LHM6wsKwD8KAy0m9Wu4xwnMAC8IApwo+G/s7ws966cE6vNpA0ck5wvqYB8Ko
Yag/pko0wiwfB8IgBno/zj9Awtr058GK5b1At/s0wrdND8JAZ7m+Rwk/wmVw58Fe4ZFAsQ82wgvY
6sHyDKFAyf9JwtUk5sEKObRALelJwt9J6cEawYRAt2wswlJ39cEEDIA/JTYxwp6n+8FQBPE+rOQv
wlrHAMKCLy1AqdAswsjN9sHOfyFAOno8wiS8A8KMMhFAjckvwvbo7MFo4URAo/A2wlLb6sGg6stA
5AE6wn3I6MH2pIRAJm1FwmGO5sFckc1A1D4xwomhAsI09Kg/UAwxwomk7cHAE5FAz1NOwsgE5cHA
6sVAhNlDwpWJ5MFUR1ZAbQEywkMrFMIgPK+/swRBwkc2DMIqX4U/b9E8wuLqEsLFNOm+VcEtwgar
CsIVdgO+MLw8wl+M6cFrw/xAsxhKwigO8sHYFIJAuGVNwt295cHQRWlAsakowjTd+MGrkB4/Hq4s
wtf57MH62jc/we00wvYK98F52RY/saswwhfE/cHRqha/zVktwnq9A8JYr01A5o8zwkokAMILsFJA
IM0owndl98HQ8j1A3w48wug1BcIPLlNA75Q6wtKO/8G9uwtAKL9AwmpoA8K5/ABA1UMtwunR5cF/
YTpAKJAzwjD/68FIeyFATuJFwrTL5cE6Nu1AdGUuwir56MGNFKBA

> <OMEGA_E>
nB+GPw==

> <OMEGA_NBR>
     21213

$$$$
CACHE3HI_1707_34
  -OEChem-03092622523D

 43 45  0     1  0  0  0  0  0999 V2000
  -44.6147  -34.0953    0.4571 C   0  0  0  0  0  0  0  0  0  0  0  0
  -44.7469  -33.1048   -1.7427 C   0  0  0  0  0  0  0  0  0  0  0  0
  -44.3944  -35.3460   -0.1200 C   0  0  0  0  0  0  0  0  0  0  0  0
  -44.5266  -34.3554   -2.3198 C   0  0  0  0  0  0  0  0  0  0  0  0
  -44.3590  -29.4708    6.1523 C   0  0  0  0  0  0  0  0  0  0  0  0
  -44.7908  -32.9747   -0.3545 C   0  0  0  0  0  0  0  0  0  0  0  0
  -44.3505  -35.4761   -1.5082 C   0  0  0  0  0  0  0  0  0  0  0  0
  -46.0894  -29.1000    4.8960 C   0  0  0  0  0  0  0  0  0  0  0  0
  -45.8042  -30.2834    1.9157 C   0  0  0  0  0  0  0  0  0  0  0  0
  -48.4211  -28.7119    3.9811 C   0  0  0  0  0  0  0  0  0  0  0  0
  -48.1954  -30.6912    2.6521 C   0  0  0  0  0  0  0  0  0  0  0  0
  -46.9345  -28.8847    3.6538 C   0  0  2  0  0  0  0  0  0  0  0  0
  -49.0045  -30.1126    3.8043 C   0  0  2  0  0  0  0  0  0  0  0  0
  -43.8997  -29.4100    3.6916 C   0  0  0  0  0  0  0  0  0  0  0  0
  -51.1684  -29.8218    4.6548 C   0  0  0  0  0  0  0  0  0  0  0  0
  -45.6713  -31.7143    1.4603 C   0  0  0  0  0  0  0  0  0  0  0  0
  -45.3996  -29.3365    6.9438 N   0  0  0  0  0  0  0  0  0  0  0  0
  -46.5007  -29.1004    6.1442 N   0  0  0  0  0  0  0  0  0  0  0  0
  -44.7474  -29.3293    4.8549 N   0  0  0  0  0  0  0  0  0  0  0  0
  -46.9054  -30.0096    2.7125 N   0  0  0  0  0  0  0  0  0  0  0  0
  -44.9626  -29.4449    1.5871 O   0  0  0  0  0  0  0  0  0  0  0  0
  -45.0090  -31.7416    0.2141 O   0  0  0  0  0  0  0  0  0  0  0  0
  -50.3815  -30.0389    3.4918 O   0  0  0  0  0  0  0  0  0  0  0  0
  -44.1389  -36.6774   -2.0614 F   0  0  0  0  0  0  0  0  0  0  0  0
  -44.6476  -34.0002    1.5390 H   0  0  0  0  0  0  0  0  0  0  0  0
  -44.8841  -32.2355   -2.3800 H   0  0  0  0  0  0  0  0  0  0  0  0
  -44.2567  -36.2189    0.5111 H   0  0  0  0  0  0  0  0  0  0  0  0
  -44.4931  -34.4573   -3.4006 H   0  0  0  0  0  0  0  0  0  0  0  0
  -43.3399  -29.6646    6.4550 H   0  0  0  0  0  0  0  0  0  0  0  0
  -48.5687  -28.3834    5.0187 H   0  0  0  0  0  0  0  0  0  0  0  0
  -48.8907  -27.9792    3.3147 H   0  0  0  0  0  0  0  0  0  0  0  0
  -47.9999  -31.7610    2.8024 H   0  0  0  0  0  0  0  0  0  0  0  0
  -48.6738  -30.5414    1.6775 H   0  0  0  0  0  0  0  0  0  0  0  0
  -46.5493  -27.9883    3.1087 H   0  0  0  0  0  0  0  0  0  0  0  0
  -48.8924  -30.7107    4.7318 H   0  0  0  0  0  0  0  0  0  0  0  0
  -43.8443  -30.4382    3.3185 H   0  0  0  0  0  0  0  0  0  0  0  0
  -42.8898  -29.0691    3.9401 H   0  0  0  0  0  0  0  0  0  0  0  0
  -44.2925  -28.7912    2.8782 H   0  0  0  0  0  0  0  0  0  0  0  0
  -52.2244  -29.7702    4.3774 H   0  0  0  0  0  0  0  0  0  0  0  0
  -51.0161  -30.6531    5.3475 H   0  0  0  0  0  0  0  0  0  0  0  0
  -50.8610  -28.8900    5.1349 H   0  0  0  0  0  0  0  0  0  0  0  0
  -46.6563  -32.1627    1.3684 H   0  0  0  0  0  0  0  0  0  0  0  0
  -45.0890  -32.2676    2.1916 H   0  0  0  0  0  0  0  0  0  0  0  0
  1  3  2  0  0  0  0
  1  6  1  0  0  0  0
  2  4  1  0  0  0  0
  2  6  2  0  0  0  0
  3  7  1  0  0  0  0
  4  7  2  0  0  0  0
  5 17  2  0  0  0  0
  5 19  1  0  0  0  0
  6 22  1  0  0  0  0
  7 24  1  0  0  0  0
  8 12  1  0  0  0  0
  8 18  2  0  0  0  0
  8 19  1  0  0  0  0
  9 16  1  0  0  0  0
  9 20  1  0  0  0  0
  9 21  2  0  0  0  0
 10 12  1  0  0  0  0
 10 13  1  0  0  0  0
 11 13  1  0  0  0  0
 11 20  1  0  0  0  0
 12 20  1  0  0  0  0
 13 23  1  0  0  0  0
 14 19  1  0  0  0  0
 15 23  1  0  0  0  0
 16 22  1  0  0  0  0
 17 18  1  0  0  0  0
  1 25  1  0  0  0  0
  2 26  1  0  0  0  0
  3 27  1  0  0  0  0
  4 28  1  0  0  0  0
  5 29  1  0  0  0  0
 10 30  1  0  0  0  0
 10 31  1  0  0  0  0
 11 32  1  0  0  0  0
 11 33  1  0  0  0  0
 12 34  1  0  0  0  0
 13 35  1  0  0  0  0
 14 36  1  0  0  0  0
 14 37  1  0  0  0  0
 14 38  1  0  0  0  0
 15 39  1  0  0  0  0
 15 40  1  0  0  0  0
 15 41  1  0  0  0  0
 16 42  1  0  0  0  0
 16 43  1  0  0  0  0
M  END
> <POSIT::Probability>
0.18

> <POSIT::Method>
FRED

> <ReceptorTitle>
UCSF-P4685-REFINED_LIGAND-BOUND-STATE_A__DU__LA1_A-201(A)

> <OMEGA_C>
cHUywpJhCMLgBuo+0PwywlRrBMLEEN+/4JMxwkRiDcKAsvW9QxsywvdrCcIAdxTAo28xwjXE68HT
38RAwykzwg7mA8JQf7W+7WYxwornDcIYDMG/l1s4wtLM6MEsrJxAfTc3wmlE8sFaNvU/MK9Bwg2y
5cHxyX5AHshAwquH9cE7vClA+rw7wuMT58Em12lAmAREwqrm8MEIenNAT5kvwrRH68H2Q2xAaqxM
wiST7sFU9JRAYK82wuq2/cEU6ro/MJk1wiSx6sFpM95AtgA6wpLN6MEXncRAXv0ywn6i6sEqW5tA
GZ87wqET8MGqmS1AutkzwiiP68EoJss/OQk0wsPu/cGgR1s+roZJwp1P8MGHeV9AM44wwqe1EsLo
7QPAGpcywi8ACMJe/cQ/R4kzwhrxAMJiURjA2AYxwizgEMLg2QI/4/gxwkLUCcIIpFnAGVwtwhxR
7cGqj85AXUZCwkAR48FNmaBAF5BDwmPV38FzI1RA8v8/wnkW/sEsWjNABLJCwsVU9MHGuNY/ejI6
whDo38Eh9EZAyJFDwnyv9cGnapdAh2AvwmqB88HfYlRAKo8rwoeN6MHIKXxAgSsxwmNU5sF1NDhA
yeVQwmMp7sFOE4xAhBBMwoI59cGeHqtAsXFLwp8e58F/UaRAGKA6wp+mAMKMKK8/LVs0wgcSAcLw
QgxA

> <OMEGA_E>
bx/8wA==

> <OMEGA_NBR>
     22568

$$$$
CACHE3HI_1708_88
  -OEChem-03092622523D

 35 37  0     1  0  0  0  0  0999 V2000
  -47.4920  -28.9685    6.8009 C   0  0  0  0  0  0  0  0  0  0  0  0
  -47.3930  -29.7164    4.1446 C   0  0  0  0  0  0  0  0  0  0  0  0
  -43.9578  -29.3448    6.3150 C   0  0  0  0  0  0  0  0  0  0  0  0
  -46.2540  -29.2168    6.2129 C   0  0  0  0  0  0  0  0  0  0  0  0
  -46.2036  -29.5977    4.8594 C   0  0  0  0  0  0  0  0  0  0  0  0
  -48.6756  -29.0900    6.0767 C   0  0  0  0  0  0  0  0  0  0  0  0
  -48.6272  -29.4653    4.7422 C   0  0  0  0  0  0  0  0  0  0  0  0
  -43.9077  -29.7159    4.9974 C   0  0  0  0  0  0  0  0  0  0  0  0
  -43.4102  -30.9583    0.8518 C   0  0  0  0  0  0  0  0  0  0  0  0
  -42.7739  -29.7017    0.2677 C   0  0  0  0  0  0  0  0  0  0  0  0
  -44.1940  -29.1466    2.1907 C   0  0  0  0  0  0  0  0  0  0  0  0
  -43.7199  -30.5975    2.3020 C   0  0  2  0  0  0  0  0  0  0  0  0
  -43.3714  -28.5330    1.0546 C   0  0  1  0  0  0  0  0  0  0  0  0
  -42.5017  -30.7436    3.2110 C   0  0  0  0  0  0  0  0  0  0  0  0
  -45.1253  -29.0930    6.9326 N   0  0  0  0  0  0  0  0  0  0  0  0
  -45.0259  -29.8447    4.2599 N   0  0  0  0  0  0  0  0  0  0  0  0
  -42.6775  -29.9592    4.4259 N   0  0  0  0  0  0  0  0  0  0  0  0
  -42.3189  -27.7327    1.5771 O   0  0  0  0  0  0  0  0  0  0  0  0
  -49.8533  -28.8458    6.6656 F   0  0  0  0  0  0  0  0  0  0  0  0
  -49.7565  -29.5858    4.0331 F   0  0  0  0  0  0  0  0  0  0  0  0
  -47.5458  -28.6730    7.8468 H   0  0  0  0  0  0  0  0  0  0  0  0
  -47.3686  -30.0098    3.0969 H   0  0  0  0  0  0  0  0  0  0  0  0
  -43.0701  -29.2332    6.9269 H   0  0  0  0  0  0  0  0  0  0  0  0
  -44.3150  -31.2540    0.2965 H   0  0  0  0  0  0  0  0  0  0  0  0
  -42.7030  -31.8043    0.7943 H   0  0  0  0  0  0  0  0  0  0  0  0
  -41.6738  -29.7438    0.3335 H   0  0  0  0  0  0  0  0  0  0  0  0
  -43.0438  -29.6141   -0.7994 H   0  0  0  0  0  0  0  0  0  0  0  0
  -45.2604  -29.1319    1.9426 H   0  0  0  0  0  0  0  0  0  0  0  0
  -44.0613  -28.5963    3.1278 H   0  0  0  0  0  0  0  0  0  0  0  0
  -44.5227  -31.2139    2.6668 H   0  0  0  0  0  0  0  0  0  0  0  0
  -43.9846  -27.8871    0.3990 H   0  0  0  0  0  0  0  0  0  0  0  0
  -42.3640  -31.7966    3.4761 H   0  0  0  0  0  0  0  0  0  0  0  0
  -41.6026  -30.4096    2.6834 H   0  0  0  0  0  0  0  0  0  0  0  0
  -41.8494  -29.5822    4.8597 H   0  0  0  0  0  0  0  0  0  0  0  0
  -41.8091  -27.4146    0.8159 H   0  0  0  0  0  0  0  0  0  0  0  0
  1  4  1  0  0  0  0
  1  6  2  0  0  0  0
  2  5  1  0  0  0  0
  2  7  2  0  0  0  0
  3  8  2  0  0  0  0
  3 15  1  0  0  0  0
  4  5  1  0  0  0  0
  4 15  2  0  0  0  0
  5 16  2  0  0  0  0
  6  7  1  0  0  0  0
  6 19  1  0  0  0  0
  7 20  1  0  0  0  0
  8 16  1  0  0  0  0
  8 17  1  0  0  0  0
  9 10  1  0  0  0  0
  9 12  1  0  0  0  0
 10 13  1  0  0  0  0
 11 12  1  0  0  0  0
 11 13  1  0  0  0  0
 12 14  1  0  0  0  0
 13 18  1  0  0  0  0
 14 17  1  0  0  0  0
  1 21  1  0  0  0  0
  2 22  1  0  0  0  0
  3 23  1  0  0  0  0
  9 24  1  0  0  0  0
  9 25  1  0  0  0  0
 10 26  1  0  0  0  0
 10 27  1  0  0  0  0
 11 28  1  0  0  0  0
 11 29  1  0  0  0  0
 12 30  1  0  0  0  0
 13 31  1  0  0  0  0
 14 32  1  0  0  0  0
 14 33  1  0  0  0  0
 17 34  1  0  0  0  0
 18 35  1  0  0  0  0
M  END
> <POSIT::Probability>
0.23

> <POSIT::Method>
HYBRID

> <ReceptorTitle>
UCSF-P4685-REFINED_LIGAND-BOUND-STATE_A__DU__LA1_A-201(A)

> <OMEGA_C>
yvc9wne/58G8oNlAcpI9wi277cEroIRAwNQvwhnC6sGOFMpAGgQ5wv+76cHAz8ZAh9A4wgvI7MFM
gJtAzrNCwku46MFWdMJANIJCwtu468HPv5dAdqEvwh267cFV6p9AD6Qtwpmq98HkEFo/cxgrwhqd
7cE4FYk+rcYwwjAs6cE0NAxAN+EuwqTH9MEJVBNAU3wtwq9D5MF6/YY/tQEqwtLy9cF6gU1AS4A0
wnu+6MEE2N1Agxo0wvbB7sG6UIhAt7Uqwlqs78EToY1AikYpwqTc3cGz3sk/v2lHwjjE5sG0TNVA
tQZHwryv7MGHD4FA8i4+wk5i5cEFGftAe3k9wigU8MGtM0ZAyEcswoTd6cHKqN1AmEIxwkEI+sEI
zZc+5M8qwi1v/sFwV0s/BLImwljz7cFQwKo+4Cwswpnp7MH4oky/qAo1wiYO6cH0pfg/uj4wwj/F
5ME3LUhANhcywgG2+cFyrCpANPAvwq4Y38F4Scw+snQpwoNf/sG0d15AC2kmwt1G88FTvCtA0WUn
wkSo7MGCgptAgTwnwgxR28Eg3VA/

> <OMEGA_E>
SkYewQ==

> <OMEGA_NBR>
     23768

$$$$
CACHE3HI_1712_25
  -OEChem-03092622523D

 48 50  0     1  0  0  0  0  0999 V2000
  -47.4593  -32.8080    1.3371 C   0  0  0  0  0  0  0  0  0  0  0  0
  -46.2413  -33.4861    1.3852 C   0  0  0  0  0  0  0  0  0  0  0  0
  -48.1791  -28.8545    5.1788 C   0  0  0  0  0  0  0  0  0  0  0  0
  -47.5426  -31.4920    1.7917 C   0  0  0  0  0  0  0  0  0  0  0  0
  -45.1068  -32.8484    1.8874 C   0  0  0  0  0  0  0  0  0  0  0  0
  -49.0143  -29.1335    6.2548 C   0  0  0  0  0  0  0  0  0  0  0  0
  -49.9028  -29.5937    3.7160 C   0  0  0  0  0  0  0  0  0  0  0  0
  -48.6239  -29.0860    3.8819 C   0  0  0  0  0  0  0  0  0  0  0  0
  -46.4082  -30.8543    2.2939 C   0  0  0  0  0  0  0  0  0  0  0  0
  -45.1902  -31.5323    2.3420 C   0  0  0  0  0  0  0  0  0  0  0  0
  -50.2754  -29.6389    5.9830 C   0  0  0  0  0  0  0  0  0  0  0  0
  -50.9844  -29.1363    8.3056 C   0  0  0  0  0  0  0  0  0  0  0  0
  -52.3537  -30.6524    6.9361 C   0  0  0  0  0  0  0  0  0  0  0  0
  -52.1871  -28.1887    8.4124 C   0  0  0  0  0  0  0  0  0  0  0  0
  -53.5317  -29.6812    7.0449 C   0  0  0  0  0  0  0  0  0  0  0  0
  -54.5915  -27.9985    8.4097 C   0  0  0  0  0  0  0  0  0  0  0  0
  -47.7554  -28.7961    2.7099 C   0  0  0  0  0  0  0  0  0  0  0  0
  -43.1131  -30.0528    1.4225 C   0  0  0  0  0  0  0  0  0  0  0  0
  -50.7425  -29.8769    4.7370 N   0  0  0  0  0  0  0  0  0  0  0  0
  -51.0984  -29.9130    7.0689 N   0  0  0  0  0  0  0  0  0  0  0  0
  -53.4602  -28.9174    8.3005 N   0  0  0  0  0  0  0  0  0  0  0  0
  -46.5237  -29.5458    2.7366 N   0  0  0  0  0  0  0  0  0  0  0  0
  -42.7620  -31.8601    3.3494 O   0  0  0  0  0  0  0  0  0  0  0  0
  -41.9531  -29.3746    1.5998 F   0  0  0  0  0  0  0  0  0  0  0  0
  -44.0040  -29.1814    0.8903 F   0  0  0  0  0  0  0  0  0  0  0  0
  -42.8751  -31.0090    0.4930 F   0  0  0  0  0  0  0  0  0  0  0  0
  -43.6992  -30.7479    2.9774 S   0  0  2  0  0  0  0  0  0  0  0  0
  -48.3424  -33.3053    0.9469 H   0  0  0  0  0  0  0  0  0  0  0  0
  -46.1767  -34.5112    1.0322 H   0  0  0  0  0  0  0  0  0  0  0  0
  -47.1847  -28.4562    5.3598 H   0  0  0  0  0  0  0  0  0  0  0  0
  -48.4980  -30.9750    1.7490 H   0  0  0  0  0  0  0  0  0  0  0  0
  -44.1662  -33.3925    1.9169 H   0  0  0  0  0  0  0  0  0  0  0  0
  -48.6749  -28.9558    7.2700 H   0  0  0  0  0  0  0  0  0  0  0  0
  -50.3045  -29.7941    2.7274 H   0  0  0  0  0  0  0  0  0  0  0  0
  -50.0692  -28.5456    8.3019 H   0  0  0  0  0  0  0  0  0  0  0  0
  -50.9651  -29.8062    9.1656 H   0  0  0  0  0  0  0  0  0  0  0  0
  -52.4247  -31.4093    7.7219 H   0  0  0  0  0  0  0  0  0  0  0  0
  -52.3986  -31.1568    5.9684 H   0  0  0  0  0  0  0  0  0  0  0  0
  -52.1342  -27.6836    9.3848 H   0  0  0  0  0  0  0  0  0  0  0  0
  -52.1104  -27.4110    7.6403 H   0  0  0  0  0  0  0  0  0  0  0  0
  -53.5388  -29.0119    6.1782 H   0  0  0  0  0  0  0  0  0  0  0  0
  -54.4571  -30.2640    7.0188 H   0  0  0  0  0  0  0  0  0  0  0  0
  -55.5374  -28.5415    8.3264 H   0  0  0  0  0  0  0  0  0  0  0  0
  -54.5671  -27.4820    9.3734 H   0  0  0  0  0  0  0  0  0  0  0  0
  -54.5464  -27.2480    7.6157 H   0  0  0  0  0  0  0  0  0  0  0  0
  -48.2645  -29.0375    1.7648 H   0  0  0  0  0  0  0  0  0  0  0  0
  -47.4850  -27.7309    2.6568 H   0  0  0  0  0  0  0  0  0  0  0  0
  -45.6929  -29.0901    3.0997 H   0  0  0  0  0  0  0  0  0  0  0  0
  1  2  1  0  0  0  0
  1  4  2  0  0  0  0
  2  5  2  0  0  0  0
  3  6  2  0  0  0  0
  3  8  1  0  0  0  0
  4  9  1  0  0  0  0
  5 10  1  0  0  0  0
  6 11  1  0  0  0  0
  7  8  2  0  0  0  0
  7 19  1  0  0  0  0
  8 17  1  0  0  0  0
  9 10  2  0  0  0  0
  9 22  1  0  0  0  0
 10 27  1  0  0  0  0
 11 19  2  0  0  0  0
 11 20  1  0  0  0  0
 12 14  1  0  0  0  0
 12 20  1  0  0  0  0
 13 15  1  0  0  0  0
 13 20  1  0  0  0  0
 14 21  1  0  0  0  0
 15 21  1  0  0  0  0
 16 21  1  0  0  0  0
 17 22  1  0  0  0  0
 18 24  1  0  0  0  0
 18 25  1  0  0  0  0
 18 26  1  0  0  0  0
 18 27  1  0  0  0  0
 23 27  2  0  0  0  0
  1 28  1  0  0  0  0
  2 29  1  0  0  0  0
  3 30  1  0  0  0  0
  4 31  1  0  0  0  0
  5 32  1  0  0  0  0
  6 33  1  0  0  0  0
  7 34  1  0  0  0  0
 12 35  1  0  0  0  0
 12 36  1  0  0  0  0
 13 37  1  0  0  0  0
 13 38  1  0  0  0  0
 14 39  1  0  0  0  0
 14 40  1  0  0  0  0
 15 41  1  0  0  0  0
 15 42  1  0  0  0  0
 16 43  1  0  0  0  0
 16 44  1  0  0  0  0
 16 45  1  0  0  0  0
 17 46  1  0  0  0  0
 17 47  1  0  0  0  0
 22 48  1  0  0  0  0
M  END
> <POSIT::Probability>
0.24

> <POSIT::Method>
FRED

> <ReceptorTitle>
UCSF-P4685-REFINED_LIGAND-BOUND-STATE_A__DU__LA1_A-201(A)

> <OMEGA_C>
WNY9wnA7A8JnJqs/FPc4wszxBcLxTbE/YLdAwu7V5sFruKVArCs+wrTv+8FyVeU/YW00wrtkA8K/
lvE/mA5EwmAR6cHyJshAeJxHwui/7MHI0m1A1H5CwhSw6MFdcXhA+KE5wpDV9sEbzxJAvcI0wixC
/MEU4xVABhpJwl4c7cEcdb9A++9LwjQX6cGl4wRBJWpRwgw49cFo9N1AoL9QwnSC4cEfmQZBbiBW
wiNz7cF7b+FAsF1awvr838ExjgZBfwU/wnZe5sGRbi1A1XMswihs8MH5FbY/WPhKwt4D78HClZdA
xmRMwsVN78GeNOJAPddVwtRW58GyzgRBShg6wrld7MF3JC9ATgwrwoTh/sGdXFZA+c8nwhz/6sGb
xsw/IgQwwphz6cFE6mM/EIArwnES+MFgbvw+AMwuwrr79cEsjj5Aql5Bwpo4BcKAZnI/9LQ4wnwL
CsI7HoQ/Lb08wjam48FAg6tA8P1Bws/M98FJ4N8/L6owwuGRBcJCXfU/D7NCwpOl58E/pOhAzDdJ
wjta7sH6jC5A4UZIwkpd5MGC1ARBUNxLwgJz7sFzphJB3bJRwkJG+8FzGfdAH5hRwjhB+cEi/b5A
dolQwhh43cE5KBZBE3FQwsRJ28E1ffRAwCdWwk8Y6MEGtMVABdRZwpIc8sH+meBARSZewu1U5MHA
OAVBs0Rawjjb28Fv+RVBgy9awu/72cHBs/NA0g5Bws9M6MGs5eE/qfA9wtjY3cHKCSpAgMU2wpy4
6MHRYUZA

> <OMEGA_E>
8kAGwQ==

> <OMEGA_NBR>
     25220

$$$$
CACHE3HI_1715_37
  -OEChem-03092622523D

 39 42  0     1  0  0  0  0  0999 V2000
  -48.8336  -28.8519    4.3298 C   0  0  0  0  0  0  0  0  0  0  0  0
  -48.6084  -28.8114    2.9539 C   0  0  0  0  0  0  0  0  0  0  0  0
  -47.7646  -29.0078    5.2115 C   0  0  0  0  0  0  0  0  0  0  0  0
  -47.3121  -28.9268    2.4506 C   0  0  0  0  0  0  0  0  0  0  0  0
  -44.4623  -35.1170   -0.1741 C   0  0  0  0  0  0  0  0  0  0  0  0
  -44.4126  -35.9419   -1.2737 C   0  0  0  0  0  0  0  0  0  0  0  0
  -44.2609  -33.8029   -0.6590 C   0  0  0  0  0  0  0  0  0  0  0  0
  -46.4676  -29.1233    4.7056 C   0  0  0  0  0  0  0  0  0  0  0  0
  -46.2329  -29.0835    3.3245 C   0  0  0  0  0  0  0  0  0  0  0  0
  -44.1026  -33.9180   -2.0204 C   0  0  0  0  0  0  0  0  0  0  0  0
  -44.2225  -32.5438    0.1108 C   0  0  0  0  0  0  0  0  0  0  0  0
  -43.5872  -30.7293    0.9589 C   0  0  0  0  0  0  0  0  0  0  0  0
  -45.2981  -29.2915    5.6143 C   0  0  0  0  0  0  0  0  0  0  0  0
  -43.9014  -29.3553    3.7691 C   0  0  0  0  0  0  0  0  0  0  0  0
  -43.8636  -32.9468   -3.0994 C   0  0  0  0  0  0  0  0  0  0  0  0
  -41.8681  -30.8037    3.5804 C   0  0  0  0  0  0  0  0  0  0  0  0
  -42.5071  -29.4772    3.2051 C   0  0  1  0  0  0  0  0  0  0  0  0
  -45.2307  -32.1112    0.8317 N   0  0  0  0  0  0  0  0  0  0  0  0
  -44.8124  -30.9176    1.3893 N   0  0  0  0  0  0  0  0  0  0  0  0
  -44.0337  -29.4015    5.0629 N   0  0  0  0  0  0  0  0  0  0  0  0
  -44.9218  -29.2024    2.8598 N   0  0  0  0  0  0  0  0  0  0  0  0
  -45.4976  -29.3269    6.8247 O   0  0  0  0  0  0  0  0  0  0  0  0
  -44.1942  -35.2185   -2.4031 O   0  0  0  0  0  0  0  0  0  0  0  0
  -43.1396  -31.7201    0.1403 O   0  0  0  0  0  0  0  0  0  0  0  0
  -42.5868  -29.3129    1.3968 S   0  0  0  0  0  0  0  0  0  0  0  0
  -49.8452  -28.7617    4.7152 H   0  0  0  0  0  0  0  0  0  0  0  0
  -49.4451  -28.6896    2.2719 H   0  0  0  0  0  0  0  0  0  0  0  0
  -47.9610  -29.0370    6.2793 H   0  0  0  0  0  0  0  0  0  0  0  0
  -47.1519  -28.8934    1.3760 H   0  0  0  0  0  0  0  0  0  0  0  0
  -44.6238  -35.4303    0.8478 H   0  0  0  0  0  0  0  0  0  0  0  0
  -44.5093  -37.0086   -1.4132 H   0  0  0  0  0  0  0  0  0  0  0  0
  -42.7862  -32.7781   -3.2803 H   0  0  0  0  0  0  0  0  0  0  0  0
  -44.2893  -31.9528   -2.8696 H   0  0  0  0  0  0  0  0  0  0  0  0
  -44.3094  -33.2855   -4.0511 H   0  0  0  0  0  0  0  0  0  0  0  0
  -42.4554  -31.6419    3.1890 H   0  0  0  0  0  0  0  0  0  0  0  0
  -40.8621  -30.8856    3.1524 H   0  0  0  0  0  0  0  0  0  0  0  0
  -41.7728  -30.9283    4.6657 H   0  0  0  0  0  0  0  0  0  0  0  0
  -41.9113  -28.6548    3.6015 H   0  0  0  0  0  0  0  0  0  0  0  0
  -44.7538  -29.1732    1.8614 H   0  0  0  0  0  0  0  0  0  0  0  0
  1  2  1  0  0  0  0
  1  3  2  0  0  0  0
  2  4  2  0  0  0  0
  3  8  1  0  0  0  0
  4  9  1  0  0  0  0
  5  6  2  0  0  0  0
  5  7  1  0  0  0  0
  6 23  1  0  0  0  0
  7 10  2  0  0  0  0
  7 11  1  0  0  0  0
  8  9  2  0  0  0  0
  8 13  1  0  0  0  0
  9 21  1  0  0  0  0
 10 15  1  0  0  0  0
 10 23  1  0  0  0  0
 11 18  2  0  0  0  0
 11 24  1  0  0  0  0
 12 19  2  0  0  0  0
 12 24  1  0  0  0  0
 12 25  1  0  0  0  0
 13 20  1  0  0  0  0
 13 22  2  0  0  0  0
 14 17  1  0  0  0  0
 14 20  2  0  0  0  0
 14 21  1  0  0  0  0
 16 17  1  0  0  0  0
 17 25  1  0  0  0  0
 18 19  1  0  0  0  0
  1 26  1  0  0  0  0
  2 27  1  0  0  0  0
  3 28  1  0  0  0  0
  4 29  1  0  0  0  0
  5 30  1  0  0  0  0
  6 31  1  0  0  0  0
 15 32  1  0  0  0  0
 15 33  1  0  0  0  0
 15 34  1  0  0  0  0
 16 35  1  0  0  0  0
 16 36  1  0  0  0  0
 16 37  1  0  0  0  0
 17 38  1  0  0  0  0
 21 39  1  0  0  0  0
M  END
> <POSIT::Probability>
0.18

> <POSIT::Method>
FRED

> <ReceptorTitle>
UCSF-P4685-REFINED_LIGAND-BOUND-STATE_A__DU__LA1_A-201(A)

> <OMEGA_C>
j1VDwpzQ5sFijYpACW9CwsF95sEKDD1A5w4/wggQ6MFHxKZAmD89whRq58GU1hxAZdkxwsh3DMJA
PDK+jaYxwnnED8LoCaO/KgsxwjI2B8I8syi/yd45wnT86MEelJZAiO44whqr6MEexFRAGGkwwgys
B8KWTQHA0uMwwt0sAsLA2eI9TVkuwoXV9cE4e3U/QzE1wgJV6sGFqLNA/povwpvX6sGeOHFASHQv
wpDJA8IUXUbA6ngnwgFu9sFoJWVAUgcqwlnR68ETIE1AQew0wutxAMKw61Q/8j8zwkBX98Fw1LE/
eSIwwlQ268GKA6JA8K8zwm6e6cGaBzdAif01wmWd6sHfY9pA18YwwsjfDMKAzBnA+44sws7C/cGA
rw8+2Vgqwt6A6sEyy7I/cmFHwggY5sFN45ZAzcdFwmKE5cGYZxFAC9g/wrRL6MHi78hAmJs8wrYl
58EsH7A/u34ywqy4DcLoCFk/fwkywtsIFMLo47S/GSUrwtAcA8If8VHAPigxwlyf/8HQpzfA3Twx
wlAkBcKGooHAYNIpwowi/cEoGUxA1HIjwp0V98GWwElAUBcnwiNt98GfTZVALKUnwh495cGufmZA
6AMzwqti6cG0Qe4/

> <OMEGA_E>
iE8DwQ==

> <OMEGA_NBR>
     26498

$$$$
CACHE3HI_1715_76
  -OEChem-03092622523D

 45 48  0     1  0  0  0  0  0999 V2000
  -48.4184  -28.9915    3.3198 C   0  0  0  0  0  0  0  0  0  0  0  0
  -49.8293  -28.8988    3.3267 C   0  0  0  0  0  0  0  0  0  0  0  0
  -49.8500  -28.9267    5.7840 C   0  0  0  0  0  0  0  0  0  0  0  0
  -43.9161  -29.3460    6.0395 C   0  0  0  0  0  0  0  0  0  0  0  0
  -47.7606  -29.0618    4.5626 C   0  0  0  0  0  0  0  0  0  0  0  0
  -46.3420  -29.1825    4.8803 C   0  0  0  0  0  0  0  0  0  0  0  0
  -48.4502  -29.0264    5.7793 C   0  0  0  0  0  0  0  0  0  0  0  0
  -50.5407  -28.8680    4.5540 C   0  0  0  0  0  0  0  0  0  0  0  0
  -46.2274  -29.2044    6.2708 C   0  0  0  0  0  0  0  0  0  0  0  0
  -45.1971  -29.2467    4.0635 C   0  0  0  0  0  0  0  0  0  0  0  0
  -43.9865  -32.4850    2.4154 C   0  0  0  0  0  0  0  0  0  0  0  0
  -42.9410  -31.3838    2.2269 C   0  0  0  0  0  0  0  0  0  0  0  0
  -44.5957  -31.2639    0.4942 C   0  0  0  0  0  0  0  0  0  0  0  0
  -43.5309  -30.4261    1.1899 C   0  0  1  0  0  0  0  0  0  0  0  0
  -46.6116  -35.2529   -0.3787 C   0  0  0  0  0  0  0  0  0  0  0  0
  -44.0975  -29.1019    1.7766 C   0  0  0  0  0  0  0  0  0  0  0  0
  -45.4825  -34.3009    0.0385 C   0  0  0  0  0  0  0  0  0  0  0  0
  -45.9928  -33.3275    1.1202 C   0  0  0  0  0  0  0  0  0  0  0  0
  -45.0113  -29.2957    6.8408 N   0  0  0  0  0  0  0  0  0  0  0  0
  -43.9900  -29.3067    4.6810 N   0  0  0  0  0  0  0  0  0  0  0  0
  -47.5113  -29.1117    6.8066 N   0  0  0  0  0  0  0  0  0  0  0  0
  -44.9838  -32.3130    1.4490 N   0  0  0  0  0  0  0  0  0  0  0  0
  -45.2818  -29.2583    2.6703 N   0  0  0  0  0  0  0  0  0  0  0  0
  -43.9283  -33.3716    3.2595 O   0  0  0  0  0  0  0  0  0  0  0  0
  -51.8897  -28.7808    4.5538 F   0  0  0  0  0  0  0  0  0  0  0  0
  -47.8644  -29.0079    2.3929 H   0  0  0  0  0  0  0  0  0  0  0  0
  -50.3686  -28.8511    2.3922 H   0  0  0  0  0  0  0  0  0  0  0  0
  -50.3925  -28.8952    6.7174 H   0  0  0  0  0  0  0  0  0  0  0  0
  -42.9425  -29.4207    6.5010 H   0  0  0  0  0  0  0  0  0  0  0  0
  -42.7621  -30.8582    3.1765 H   0  0  0  0  0  0  0  0  0  0  0  0
  -41.9958  -31.8110    1.8606 H   0  0  0  0  0  0  0  0  0  0  0  0
  -45.4651  -30.6399    0.2395 H   0  0  0  0  0  0  0  0  0  0  0  0
  -44.1871  -31.7149   -0.4221 H   0  0  0  0  0  0  0  0  0  0  0  0
  -42.7480  -30.1734    0.4597 H   0  0  0  0  0  0  0  0  0  0  0  0
  -46.2423  -35.9448   -1.1501 H   0  0  0  0  0  0  0  0  0  0  0  0
  -46.9496  -35.8267    0.4968 H   0  0  0  0  0  0  0  0  0  0  0  0
  -47.4526  -34.6697   -0.7818 H   0  0  0  0  0  0  0  0  0  0  0  0
  -43.2973  -28.6158    2.3541 H   0  0  0  0  0  0  0  0  0  0  0  0
  -44.3884  -28.4544    0.9363 H   0  0  0  0  0  0  0  0  0  0  0  0
  -44.6419  -34.8855    0.4406 H   0  0  0  0  0  0  0  0  0  0  0  0
  -45.1450  -33.7284   -0.8380 H   0  0  0  0  0  0  0  0  0  0  0  0
  -46.8984  -32.8245    0.7501 H   0  0  0  0  0  0  0  0  0  0  0  0
  -46.2357  -33.8979    2.0288 H   0  0  0  0  0  0  0  0  0  0  0  0
  -47.7268  -29.1071    7.7831 H   0  0  0  0  0  0  0  0  0  0  0  0
  -45.6941  -30.1364    2.4279 H   0  0  0  0  0  0  0  0  0  0  0  0
  1  2  2  0  0  0  0
  1  5  1  0  0  0  0
  2  8  1  0  0  0  0
  3  7  1  0  0  0  0
  3  8  2  0  0  0  0
  4 19  2  0  0  0  0
  4 20  1  0  0  0  0
  5  6  1  0  0  0  0
  5  7  2  0  0  0  0
  6  9  2  0  0  0  0
  6 10  1  0  0  0  0
  7 21  1  0  0  0  0
  8 25  1  0  0  0  0
  9 19  1  0  0  0  0
  9 21  1  0  0  0  0
 10 20  2  0  0  0  0
 10 23  1  0  0  0  0
 11 12  1  0  0  0  0
 11 22  1  0  0  0  0
 11 24  2  0  0  0  0
 12 14  1  0  0  0  0
 13 14  1  0  0  0  0
 13 22  1  0  0  0  0
 14 16  1  0  0  0  0
 15 17  1  0  0  0  0
 16 23  1  0  0  0  0
 17 18  1  0  0  0  0
 18 22  1  0  0  0  0
  1 26  1  0  0  0  0
  2 27  1  0  0  0  0
  3 28  1  0  0  0  0
  4 29  1  0  0  0  0
 12 30  1  0  0  0  0
 12 31  1  0  0  0  0
 13 32  1  0  0  0  0
 13 33  1  0  0  0  0
 14 34  1  0  0  0  0
 15 35  1  0  0  0  0
 15 36  1  0  0  0  0
 15 37  1  0  0  0  0
 16 38  1  0  0  0  0
 16 39  1  0  0  0  0
 17 40  1  0  0  0  0
 17 41  1  0  0  0  0
 18 42  1  0  0  0  0
 18 43  1  0  0  0  0
 21 44  1  0  0  0  0
 23 45  1  0  0  0  0
M  END
> <POSIT::Probability>
0.99

> <POSIT::Method>
SHAPEFIT

> <ReceptorTitle>
UCSF-P4685-REFINED_LIGAND-BOUND-STATE_A__DU__LA1_A-201(A)

> <OMEGA_C>
faxBwqru58E5d1RAKFFHwsIw58FY6FRAamZHwttp58HYFrlADKovwrDE6sHQQ8FA4Ao/wnh+6MGa
AJJALF45wtl16cHKK5xADs1Bwgg26MFC8LhApylKwr7x5sFiupFA4eg4woSi6cECqshA0ck0wkb5
6cFKCIJAOPIvwqvwAcJ6lhpAkMMrwhoS+8GlhQ5A/mEywl8c+sFUBP0+oB8uwqpo88HATpg/SXI6
wv8CDcJM6sG+0WMwwq7Q6ME0aeM/Gu41wig0CcJQvx09qPg3wlhPBcKPYo8/lws0wqFd6sF+59pA
xvUvwgx06sFvypVAiQs+wrzk6MF2z9lAcu8zwndAAcKyd7k/iiA1wukQ6sHP5SpAkbYvwoJ8BcJD
m1BAFo9Pwgo/5sGeuJFAHHU/wkQQ6MEPJRlAfXlJwhTP5sFoGhlA5pFJwl8p58HW9NZAHMUrwoRd
68GACNBAYQwrword9sFUS0tAufsnwvd8/sE9J+4/Qdw1wo8e9cFEQHU+jb8wwhy4/cENH9i+6P0q
whpj8cFJYes+Ivg4wm/HD8JmNpO/Xcw7wo1OD8IIW/4+gM89wrutCsItJUi/djAtwiPt5MG4qRZA
wo0xwrGi48H8sm8/UZEywr+KC8Llk+E+c5Q0wu7pBsK+iFa/7pc7wj5MA8J9B0A/UPE4wn2XB8Jg
2AFAM+g+wk/b6MHoDvlAzcY2wm4X8cGXYhtA

> <OMEGA_E>
ABn4PA==

> <OMEGA_NBR>
     27924

$$$$
CACHE3HI_1716_18
  -OEChem-03092622523D

 37 39  0     1  0  0  0  0  0999 V2000
  -47.7290  -29.1252    2.2175 C   0  0  0  0  0  0  0  0  0  0  0  0
  -49.1371  -29.3502    2.3325 C   0  0  0  0  0  0  0  0  0  0  0  0
  -46.8697  -28.9368    3.3171 C   0  0  0  0  0  0  0  0  0  0  0  0
  -49.8234  -29.4085    3.5664 C   0  0  0  0  0  0  0  0  0  0  0  0
  -47.5727  -28.9989    4.5130 C   0  0  0  0  0  0  0  0  0  0  0  0
  -48.9884  -29.2228    4.6837 C   0  0  0  0  0  0  0  0  0  0  0  0
  -47.0365  -28.8569    5.7607 C   0  0  0  0  0  0  0  0  0  0  0  0
  -43.0232  -30.7409    0.6799 C   0  0  0  0  0  0  0  0  0  0  0  0
  -44.5642  -29.2085    5.3826 C   0  0  0  0  0  0  0  0  0  0  0  0
  -44.5090  -30.4557    2.4378 C   0  0  0  0  0  0  0  0  0  0  0  0
  -43.7264  -29.1803    2.2011 C   0  0  1  0  0  0  0  0  0  0  0  0
  -44.7611  -32.5307    1.0353 C   0  0  0  0  0  0  0  0  0  0  0  0
  -45.6398  -28.6069    6.2665 C   0  0  0  0  0  0  0  0  0  0  0  0
  -43.0985  -28.6170    3.4617 C   0  0  0  0  0  0  0  0  0  0  0  0
  -49.2797  -29.2131    5.9969 N   0  0  0  0  0  0  0  0  0  0  0  0
  -48.0985  -28.9932    6.6070 N   0  0  0  0  0  0  0  0  0  0  0  0
  -44.1310  -31.2584    1.3135 N   0  0  0  0  0  0  0  0  0  0  0  0
  -44.1261  -28.2952    4.4444 N   0  0  0  0  0  0  0  0  0  0  0  0
  -42.3944  -31.2306   -0.2481 O   0  0  0  0  0  0  0  0  0  0  0  0
  -44.1572  -30.3614    5.5004 O   0  0  0  0  0  0  0  0  0  0  0  0
  -42.6887  -29.5467    1.2694 O   0  0  0  0  0  0  0  0  0  0  0  0
  -47.2987  -29.0987    1.2166 H   0  0  0  0  0  0  0  0  0  0  0  0
  -49.7103  -29.4840    1.4156 H   0  0  0  0  0  0  0  0  0  0  0  0
  -45.8072  -28.7679    3.2115 H   0  0  0  0  0  0  0  0  0  0  0  0
  -50.8895  -29.5801    3.6324 H   0  0  0  0  0  0  0  0  0  0  0  0
  -44.2087  -30.9790    3.3516 H   0  0  0  0  0  0  0  0  0  0  0  0
  -45.5893  -30.2848    2.4528 H   0  0  0  0  0  0  0  0  0  0  0  0
  -44.3485  -28.4187    1.7168 H   0  0  0  0  0  0  0  0  0  0  0  0
  -44.3225  -33.3201    1.6525 H   0  0  0  0  0  0  0  0  0  0  0  0
  -45.8329  -32.4755    1.2456 H   0  0  0  0  0  0  0  0  0  0  0  0
  -44.6300  -32.7948   -0.0177 H   0  0  0  0  0  0  0  0  0  0  0  0
  -45.4610  -27.5274    6.3469 H   0  0  0  0  0  0  0  0  0  0  0  0
  -45.5386  -29.0166    7.2794 H   0  0  0  0  0  0  0  0  0  0  0  0
  -42.4059  -29.3494    3.8908 H   0  0  0  0  0  0  0  0  0  0  0  0
  -42.5243  -27.7149    3.2228 H   0  0  0  0  0  0  0  0  0  0  0  0
  -48.0909  -28.9478    7.6181 H   0  0  0  0  0  0  0  0  0  0  0  0
  -44.5390  -27.3748    4.3933 H   0  0  0  0  0  0  0  0  0  0  0  0
  1  2  1  0  0  0  0
  1  3  2  0  0  0  0
  2  4  2  0  0  0  0
  3  5  1  0  0  0  0
  4  6  1  0  0  0  0
  5  6  1  0  0  0  0
  5  7  2  0  0  0  0
  6 15  2  0  0  0  0
  7 13  1  0  0  0  0
  7 16  1  0  0  0  0
  8 17  1  0  0  0  0
  8 19  2  0  0  0  0
  8 21  1  0  0  0  0
  9 13  1  0  0  0  0
  9 18  1  0  0  0  0
  9 20  2  0  0  0  0
 10 11  1  0  0  0  0
 10 17  1  0  0  0  0
 11 14  1  0  0  0  0
 11 21  1  0  0  0  0
 12 17  1  0  0  0  0
 14 18  1  0  0  0  0
 15 16  1  0  0  0  0
  1 22  1  0  0  0  0
  2 23  1  0  0  0  0
  3 24  1  0  0  0  0
  4 25  1  0  0  0  0
 10 26  1  0  0  0  0
 10 27  1  0  0  0  0
 11 28  1  0  0  0  0
 12 29  1  0  0  0  0
 12 30  1  0  0  0  0
 12 31  1  0  0  0  0
 13 32  1  0  0  0  0
 13 33  1  0  0  0  0
 14 34  1  0  0  0  0
 14 35  1  0  0  0  0
 16 36  1  0  0  0  0
 18 37  1  0  0  0  0
M  END
> <POSIT::Probability>
0.23

> <POSIT::Method>
HYBRID

> <ReceptorTitle>
UCSF-P4685-REFINED_LIGAND-BOUND-STATE_A__DU__LA1_A-201(A)

> <OMEGA_C>
gOo+wlwA6cE86w1AYIxEwiTN6sHwRhVAmHo7woF+58GUSlRAH0tHwrFE68HAP2RAfEo+wsH958Fs
apBAGvRDwjrI6cEQ4ZVAWyU8wvDa5sGwV7hAwhcswlft9cFwDC4/s0EywvWq6cE2PqxARAkywj+l
88GABBxAyucuwltx6cGY3wxAVgszwmofAsL4hYQ/II82wtba5MEUh8hA1WQswozv5MEojV1Aah5F
wnq06cHk5r9A0mRAwiry58EsbNNAK4YwwisR+sEAIKg/GIEwwp1c4sFcOI5A2pMpwjbY+cHAFn6+
BaEwwhjk8sGiA7BAMMEqwrBf7MHge6I/3TE9wirK6MEAuJs/TNdGwivf68EQM7U/nDo3wrwk5sHo
iE1A5o5LwgSk7MGIeWhAs9UwwvrU98FkgVZAels2wjNH8sHc+RxA6WQxwo5Z48Fwv9s/P0oxwsRH
BcIIhtM/4FQ3wvPmAcL4bp8/FoUywtQtA8IA1JC8Gtg1wiQ43MEYGstAjic2wvoh6MGg8OhAn58p
wqDL6sEAA3lA5hgqwi243cGYQU5ACF1AwgSV58HEx/NA+ycywo7/2sEwloxA

> <OMEGA_E>
TZkDwQ==

> <OMEGA_NBR>
     29163

$$$$
CACHE3HI_1718_92
  -OEChem-03092622523D

 46 46  0     0  0  0  0  0  0999 V2000
  -47.1753  -29.0435    5.0030 C   0  0  0  0  0  0  0  0  0  0  0  0
  -48.1146  -28.8861    6.0221 C   0  0  0  0  0  0  0  0  0  0  0  0
  -49.9015  -29.1287    4.4140 C   0  0  0  0  0  0  0  0  0  0  0  0
  -47.5993  -29.2436    3.6894 C   0  0  0  0  0  0  0  0  0  0  0  0
  -48.9622  -29.2860    3.3950 C   0  0  0  0  0  0  0  0  0  0  0  0
  -49.4776  -28.9285    5.7277 C   0  0  0  0  0  0  0  0  0  0  0  0
  -45.2471  -29.3826    2.8131 C   0  0  0  0  0  0  0  0  0  0  0  0
  -43.5205  -32.2520    2.4657 C   0  0  0  0  0  0  0  0  0  0  0  0
  -50.7373  -29.5523    1.6176 C   0  0  0  0  0  0  0  0  0  0  0  0
  -52.5654  -28.4994   -0.8104 C   0  0  0  0  0  0  0  0  0  0  0  0
  -41.3692  -30.4363    3.8600 C   0  0  0  0  0  0  0  0  0  0  0  0
  -44.8381  -32.1233    1.7376 C   0  0  0  0  0  0  0  0  0  0  0  0
  -44.8750  -30.9153    0.8022 C   0  0  0  0  0  0  0  0  0  0  0  0
  -51.9884  -29.8756   -0.5267 C   0  0  0  0  0  0  0  0  0  0  0  0
  -41.3554  -31.3180    2.6295 C   0  0  0  0  0  0  0  0  0  0  0  0
  -44.5425  -29.5874    1.4846 C   0  0  0  0  0  0  0  0  0  0  0  0
  -46.6281  -29.4012    2.6731 N   0  0  0  0  0  0  0  0  0  0  0  0
  -49.4112  -29.4842    2.0859 N   0  0  0  0  0  0  0  0  0  0  0  0
  -50.7651  -29.7626    0.2351 N   0  0  0  0  0  0  0  0  0  0  0  0
  -44.5986  -29.2386    3.8454 O   0  0  0  0  0  0  0  0  0  0  0  0
  -43.2835  -33.1034    3.3131 O   0  0  0  0  0  0  0  0  0  0  0  0
  -51.7519  -29.4454    2.3022 O   0  0  0  0  0  0  0  0  0  0  0  0
  -42.6526  -31.2963    2.0257 O   0  0  0  0  0  0  0  0  0  0  0  0
  -50.3786  -28.7769    6.7072 F   0  0  0  0  0  0  0  0  0  0  0  0
  -43.1910  -29.5072    1.6409 F   0  0  0  0  0  0  0  0  0  0  0  0
  -44.8691  -28.5824    0.6211 F   0  0  0  0  0  0  0  0  0  0  0  0
  -46.1162  -29.0088    5.2454 H   0  0  0  0  0  0  0  0  0  0  0  0
  -47.7850  -28.7304    7.0451 H   0  0  0  0  0  0  0  0  0  0  0  0
  -50.9664  -29.1601    4.1977 H   0  0  0  0  0  0  0  0  0  0  0  0
  -51.8460  -27.8984   -1.3754 H   0  0  0  0  0  0  0  0  0  0  0  0
  -52.7949  -27.9655    0.1180 H   0  0  0  0  0  0  0  0  0  0  0  0
  -53.4848  -28.5696   -1.4017 H   0  0  0  0  0  0  0  0  0  0  0  0
  -41.6148  -29.4034    3.5974 H   0  0  0  0  0  0  0  0  0  0  0  0
  -42.1022  -30.8003    4.5872 H   0  0  0  0  0  0  0  0  0  0  0  0
  -40.3937  -30.4522    4.3564 H   0  0  0  0  0  0  0  0  0  0  0  0
  -45.0571  -33.0416    1.1814 H   0  0  0  0  0  0  0  0  0  0  0  0
  -45.6116  -32.0232    2.5077 H   0  0  0  0  0  0  0  0  0  0  0  0
  -45.8411  -30.8479    0.2888 H   0  0  0  0  0  0  0  0  0  0  0  0
  -44.1250  -31.0758    0.0174 H   0  0  0  0  0  0  0  0  0  0  0  0
  -52.7133  -30.4704    0.0383 H   0  0  0  0  0  0  0  0  0  0  0  0
  -51.7887  -30.3965   -1.4689 H   0  0  0  0  0  0  0  0  0  0  0  0
  -41.1092  -32.3493    2.8988 H   0  0  0  0  0  0  0  0  0  0  0  0
  -40.6228  -30.9527    1.9030 H   0  0  0  0  0  0  0  0  0  0  0  0
  -46.9829  -29.5447    1.7300 H   0  0  0  0  0  0  0  0  0  0  0  0
  -48.6809  -29.5941    1.3755 H   0  0  0  0  0  0  0  0  0  0  0  0
  -49.8851  -29.8068   -0.2694 H   0  0  0  0  0  0  0  0  0  0  0  0
  1  2  2  0  0  0  0
  1  4  1  0  0  0  0
  2  6  1  0  0  0  0
  3  5  1  0  0  0  0
  3  6  2  0  0  0  0
  4  5  2  0  0  0  0
  4 17  1  0  0  0  0
  5 18  1  0  0  0  0
  6 24  1  0  0  0  0
  7 16  1  0  0  0  0
  7 17  1  0  0  0  0
  7 20  2  0  0  0  0
  8 12  1  0  0  0  0
  8 21  2  0  0  0  0
  8 23  1  0  0  0  0
  9 18  1  0  0  0  0
  9 19  1  0  0  0  0
  9 22  2  0  0  0  0
 10 14  1  0  0  0  0
 11 15  1  0  0  0  0
 12 13  1  0  0  0  0
 13 16  1  0  0  0  0
 14 19  1  0  0  0  0
 15 23  1  0  0  0  0
 16 25  1  0  0  0  0
 16 26  1  0  0  0  0
  1 27  1  0  0  0  0
  2 28  1  0  0  0  0
  3 29  1  0  0  0  0
 10 30  1  0  0  0  0
 10 31  1  0  0  0  0
 10 32  1  0  0  0  0
 11 33  1  0  0  0  0
 11 34  1  0  0  0  0
 11 35  1  0  0  0  0
 12 36  1  0  0  0  0
 12 37  1  0  0  0  0
 13 38  1  0  0  0  0
 13 39  1  0  0  0  0
 14 40  1  0  0  0  0
 14 41  1  0  0  0  0
 15 42  1  0  0  0  0
 15 43  1  0  0  0  0
 17 44  1  0  0  0  0
 18 45  1  0  0  0  0
 19 46  1  0  0  0  0
M  END
> <POSIT::Probability>
0.18

> <POSIT::Method>
FRED

> <ReceptorTitle>
UCSF-P4685-REFINED_LIGAND-BOUND-STATE_A__DU__LA1_A-201(A)

> <OMEGA_C>
hLM8wiJZ6MGiGKBAZHVAws8W58E0tcBAJJtHwoAH6cGUP41Ap2U+wvHy6cGKHmxARdlDws5J6sH6
RllAA+lFwqtt58FsSbdAE/00wqIP68EeCjRA9BQuwgcCAcIzzh1AB/NKwgdr7MEyDc8/AENSwrv+
48HhdE+/FXolwoJ988GkCXdAK1ozwj9+AMIuat4/938zwnpS98FkWk0/G/RPwj0B78Gp2Aa/6Gsl
wlyL+sH0SChAiisywvay7MHKBr4/MIM6wpU168FmEytABaVFwqPf68HSfgVAcw9LwtMZ7sHMwXA+
/GQywr7o6cFAGnZAVSItwuNpBMIFCVRA9wFPwh2Q68G3VhNAOZwqwsRe+sGzpQFAq4NJwhA35sHK
odZAmcMswrcO7MEuCtI/+3kzwrSo5MFnAh8/AXc4whgS6MGo2qdAyyM/wsjX5cEoceFAnd1LwudH
6cGCU4ZASWJPwtsv38FmDLC/+i1TwkK538EokvE9bvBVwqOO5MHsabO/iXUmwh8668EMPGZAsmgo
wu9m9sEGypJAJJMhwime88FmZ4tAczo0wpcqBMLKNpc/TXI2wrkXAMIifiBAUF03wpDI9sEu3ZM+
+X8wwjmb+MFgOI48ctpSwnfD88GQ5Bw9oSdPwhUs88FMA7y/3G8kwq9lAcIehjlAvn0iwjSf98GI
lfM/dO47woxb7MEyct0/PLlCwrDA7MEOELA/T4pHwmR07sE264m+

> <OMEGA_E>
2qjRwA==

> <OMEGA_NBR>
     30566

$$$$
CACHE3HI_1879_6
  -OEChem-03092622523D

 53 57  0     1  0  0  0  0  0999 V2000
  -47.8494  -36.1823   -2.7365 C   0  0  0  0  0  0  0  0  0  0  0  0
  -47.7999  -36.4627   -1.3710 C   0  0  0  0  0  0  0  0  0  0  0  0
  -47.5772  -34.8929   -3.1934 C   0  0  0  0  0  0  0  0  0  0  0  0
  -41.2494  -30.0292    3.4897 C   0  0  0  0  0  0  0  0  0  0  0  0
  -41.0679  -31.2550    2.8493 C   0  0  0  0  0  0  0  0  0  0  0  0
  -47.4780  -35.4542   -0.4626 C   0  0  0  0  0  0  0  0  0  0  0  0
  -47.2553  -33.8843   -2.2850 C   0  0  0  0  0  0  0  0  0  0  0  0
  -42.2440  -29.1548    3.0519 C   0  0  0  0  0  0  0  0  0  0  0  0
  -46.0764  -29.2491    5.2654 C   0  0  0  0  0  0  0  0  0  0  0  0
  -45.4203  -29.2257    4.0305 C   0  0  0  0  0  0  0  0  0  0  0  0
  -41.8808  -31.6065    1.7714 C   0  0  0  0  0  0  0  0  0  0  0  0
  -47.5429  -29.1148    2.8179 C   0  0  0  0  0  0  0  0  0  0  0  0
  -47.2058  -34.1647   -0.9195 C   0  0  0  0  0  0  0  0  0  0  0  0
  -43.0569  -29.5062    1.9741 C   0  0  0  0  0  0  0  0  0  0  0  0
  -47.4514  -29.2042    5.2372 C   0  0  0  0  0  0  0  0  0  0  0  0
  -48.1661  -29.1387    4.0447 C   0  0  0  0  0  0  0  0  0  0  0  0
  -46.1447  -29.1594    2.8200 C   0  0  0  0  0  0  0  0  0  0  0  0
  -42.8754  -30.7320    1.3336 C   0  0  0  0  0  0  0  0  0  0  0  0
  -46.8751  -33.1280    0.0146 C   0  0  0  0  0  0  0  0  0  0  0  0
  -46.3574  -31.1777    0.6012 C   0  0  0  0  0  0  0  0  0  0  0  0
  -49.6792  -29.1514    5.7629 C   0  0  0  0  0  0  0  0  0  0  0  0
  -43.4054  -32.3614   -0.3160 C   0  0  0  0  0  0  0  0  0  0  0  0
  -44.1223  -28.5518    1.5165 C   0  0  0  0  0  0  0  0  0  0  0  0
  -46.0297  -29.7251    0.4063 C   0  0  0  0  0  0  0  0  0  0  0  0
  -46.7709  -33.1616    1.3228 N   0  0  0  0  0  0  0  0  0  0  0  0
  -46.4305  -31.8785    1.7082 N   0  0  0  0  0  0  0  0  0  0  0  0
  -48.3600  -29.2128    6.2949 N   0  0  0  0  0  0  0  0  0  0  0  0
  -49.5270  -29.1057    4.3483 N   0  0  0  0  0  0  0  0  0  0  0  0
  -45.4438  -29.1380    1.5929 N   0  0  3  0  0  0  0  0  0  0  0  0
  -50.7274  -29.1401    6.3920 O   0  0  0  0  0  0  0  0  0  0  0  0
  -46.6270  -31.9012   -0.5196 O   0  0  0  0  0  0  0  0  0  0  0  0
  -43.6602  -31.0903    0.2792 O   0  0  0  0  0  0  0  0  0  0  0  0
  -48.1008  -36.9671   -3.4439 H   0  0  0  0  0  0  0  0  0  0  0  0
  -48.0109  -37.4669   -1.0150 H   0  0  0  0  0  0  0  0  0  0  0  0
  -47.6164  -34.6747   -4.2566 H   0  0  0  0  0  0  0  0  0  0  0  0
  -40.6167  -29.7559    4.3292 H   0  0  0  0  0  0  0  0  0  0  0  0
  -40.2926  -31.9353    3.1893 H   0  0  0  0  0  0  0  0  0  0  0  0
  -47.4443  -35.6887    0.5987 H   0  0  0  0  0  0  0  0  0  0  0  0
  -47.0453  -32.8844   -2.6577 H   0  0  0  0  0  0  0  0  0  0  0  0
  -42.3781  -28.2020    3.5573 H   0  0  0  0  0  0  0  0  0  0  0  0
  -45.5212  -29.2999    6.1944 H   0  0  0  0  0  0  0  0  0  0  0  0
  -44.3330  -29.2598    4.0108 H   0  0  0  0  0  0  0  0  0  0  0  0
  -41.7342  -32.5632    1.2775 H   0  0  0  0  0  0  0  0  0  0  0  0
  -48.1091  -29.0635    1.8944 H   0  0  0  0  0  0  0  0  0  0  0  0
  -44.1002  -32.5230   -1.1442 H   0  0  0  0  0  0  0  0  0  0  0  0
  -42.3806  -32.3778   -0.6945 H   0  0  0  0  0  0  0  0  0  0  0  0
  -43.5268  -33.1466    0.4337 H   0  0  0  0  0  0  0  0  0  0  0  0
  -44.1188  -27.6458    2.1316 H   0  0  0  0  0  0  0  0  0  0  0  0
  -43.9531  -28.2419    0.4800 H   0  0  0  0  0  0  0  0  0  0  0  0
  -45.3213  -29.5967   -0.4188 H   0  0  0  0  0  0  0  0  0  0  0  0
  -46.9275  -29.1501    0.1567 H   0  0  0  0  0  0  0  0  0  0  0  0
  -48.1213  -29.2555    7.2779 H   0  0  0  0  0  0  0  0  0  0  0  0
  -50.2813  -29.0572    3.6745 H   0  0  0  0  0  0  0  0  0  0  0  0
  1  2  1  0  0  0  0
  1  3  2  0  0  0  0
  2  6  2  0  0  0  0
  3  7  1  0  0  0  0
  4  5  1  0  0  0  0
  4  8  2  0  0  0  0
  5 11  2  0  0  0  0
  6 13  1  0  0  0  0
  7 13  2  0  0  0  0
  8 14  1  0  0  0  0
  9 10  2  0  0  0  0
  9 15  1  0  0  0  0
 10 17  1  0  0  0  0
 11 18  1  0  0  0  0
 12 16  1  0  0  0  0
 12 17  2  0  0  0  0
 13 19  1  0  0  0  0
 14 18  2  0  0  0  0
 14 23  1  0  0  0  0
 15 16  2  0  0  0  0
 15 27  1  0  0  0  0
 16 28  1  0  0  0  0
 17 29  1  0  0  0  0
 18 32  1  0  0  0  0
 19 25  2  0  0  0  0
 19 31  1  0  0  0  0
 20 24  1  0  0  0  0
 20 26  2  0  0  0  0
 20 31  1  0  0  0  0
 21 27  1  0  0  0  0
 21 28  1  0  0  0  0
 21 30  2  0  0  0  0
 22 32  1  0  0  0  0
 23 29  1  0  0  0  0
 24 29  1  0  0  0  0
 25 26  1  0  0  0  0
  1 33  1  0  0  0  0
  2 34  1  0  0  0  0
  3 35  1  0  0  0  0
  4 36  1  0  0  0  0
  5 37  1  0  0  0  0
  6 38  1  0  0  0  0
  7 39  1  0  0  0  0
  8 40  1  0  0  0  0
  9 41  1  0  0  0  0
 10 42  1  0  0  0  0
 11 43  1  0  0  0  0
 12 44  1  0  0  0  0
 22 45  1  0  0  0  0
 22 46  1  0  0  0  0
 22 47  1  0  0  0  0
 23 48  1  0  0  0  0
 23 49  1  0  0  0  0
 24 50  1  0  0  0  0
 24 51  1  0  0  0  0
 27 52  1  0  0  0  0
 28 53  1  0  0  0  0
M  END
> <POSIT::Probability>
0.18

> <POSIT::Method>
HYBRID

> <ReceptorTitle>
UCSF-P4685-REFINED_LIGAND-BOUND-STATE_A__DU__LA1_A-201(A)

> <OMEGA_C>
z2U/wqy6EMJnIy/AHDM/wtrZEcLufa+/DE8+wk+SC8LVYEzAaf8kwuQ78MHHV19Ag0UkwksK+sE/
WjZAeek9whjRDcK33ey+aQU9woyJB8KTPRLA0/kowg096cFvUkNANk44whn+6cEGfqhAWa41wlHO
6cG5+YBA7YUnwgja/MGwvuI/4Ss+wgnr6MEaWDRAtdI8wq+oCMJgZ2u/PToswskM7MEar/w/Ps49
wiii6cH7lqdAI6pAwiEc6cE9boFAKJQ4wolG6cFZejRAXoArwhXb9cEOtKo/HYA7wgeDBMIg1G48
7205wgVs+cFw6Rk/e7dGwgE26cFbabhAKJ8twgZyAcJ/yqG+OH0wwhdq5MGmHcI/Yh44whbN7cG5
BtA+YhU7wm+lBMI3Uak/yLg5wjoH/8FWp9o/rnBBwrez6cHmb8lArxtGwmPY6MEbJYtAfMY1wqwa
6cH85Ms/5uhKwuYe6cFgi8xABoI6wpY1/8GoAwW/FaQuwgK5+MFh9o4+LmdAwkveE8LhaFzALAtA
whPeFcKa7IG/MHc+wu6yCsIHNojAgXciwiUM7sHbiIpAlSshwpJ7/8EfHUxA9cY9wjXBDsLuRBk/
Yy48wqaJA8I3FyrAK4Mpwred4cEZqmNAsxU2whhm6sEhOMZAB1UxwhwU6sFqWIBAzu8mwrBAAsKq
hKM/s29AwvaB6MEue/I/mmYwwpgXAsKqdpK/r4UpwuGCAcJsyzG/dRsuwhWWBMJVE94+oXkwwqgq
3cGBbAhA988vwmbv4cGhxfU+Bkk1wg7G7MEfc9a+urU7wlgz6cFKgiA+QXxAwk4L6sGY5OhAEiBJ
wiB16MFrK2tA

> <OMEGA_E>
g63DwA==

> <OMEGA_NBR>
     32132

$$$$
CACHE3-HO_1690_23
  -OEChem-03092622523D

 35 37  0     1  0  0  0  0  0999 V2000
  -48.4250  -29.2130    3.8343 C   0  0  0  0  0  0  0  0  0  0  0  0
  -49.8387  -29.2267    3.9682 C   0  0  0  0  0  0  0  0  0  0  0  0
  -49.6478  -29.0899    6.4096 C   0  0  0  0  0  0  0  0  0  0  0  0
  -43.7038  -29.0157    6.2609 C   0  0  0  0  0  0  0  0  0  0  0  0
  -47.6543  -29.1469    5.0105 C   0  0  0  0  0  0  0  0  0  0  0  0
  -46.1952  -29.1437    5.2182 C   0  0  0  0  0  0  0  0  0  0  0  0
  -48.2517  -29.0783    6.2791 C   0  0  0  0  0  0  0  0  0  0  0  0
  -50.4451  -29.1711    5.2522 C   0  0  0  0  0  0  0  0  0  0  0  0
  -45.9995  -29.0385    6.6024 C   0  0  0  0  0  0  0  0  0  0  0  0
  -45.0699  -29.1891    4.3423 C   0  0  0  0  0  0  0  0  0  0  0  0
  -44.4572  -32.5820    1.0446 C   0  0  0  0  0  0  0  0  0  0  0  0
  -44.2841  -28.2776    2.1807 C   0  0  0  0  0  0  0  0  0  0  0  0
  -45.4088  -30.5626    2.2661 C   0  0  0  0  0  0  0  0  0  0  0  0
  -44.1114  -31.2590    1.7564 C   0  0  1  0  0  0  0  0  0  0  0  0
  -44.7582  -28.9794    7.1093 N   0  0  0  0  0  0  0  0  0  0  0  0
  -43.8381  -29.1121    4.9109 N   0  0  0  0  0  0  0  0  0  0  0  0
  -47.2417  -29.0130    7.2268 N   0  0  0  0  0  0  0  0  0  0  0  0
  -45.1326  -29.2482    2.9370 N   0  0  1  0  0  0  0  0  0  0  0  0
  -43.2281  -31.5150    2.8488 O   0  0  0  0  0  0  0  0  0  0  0  0
  -52.3450  -29.2214    5.4408 Br  0  0  0  0  0  0  0  0  0  0  0  0
  -47.9564  -29.2519    2.8620 H   0  0  0  0  0  0  0  0  0  0  0  0
  -50.4590  -29.2799    3.0856 H   0  0  0  0  0  0  0  0  0  0  0  0
  -50.1058  -29.0373    7.3862 H   0  0  0  0  0  0  0  0  0  0  0  0
  -42.7081  -28.9657    6.6761 H   0  0  0  0  0  0  0  0  0  0  0  0
  -43.5324  -33.0613    0.6909 H   0  0  0  0  0  0  0  0  0  0  0  0
  -44.9719  -33.2530    1.7480 H   0  0  0  0  0  0  0  0  0  0  0  0
  -45.1143  -32.3759    0.1869 H   0  0  0  0  0  0  0  0  0  0  0  0
  -44.4262  -28.4297    1.1005 H   0  0  0  0  0  0  0  0  0  0  0  0
  -44.5748  -27.2509    2.4477 H   0  0  0  0  0  0  0  0  0  0  0  0
  -43.2265  -28.4377    2.4374 H   0  0  0  0  0  0  0  0  0  0  0  0
  -46.0749  -30.3873    1.4085 H   0  0  0  0  0  0  0  0  0  0  0  0
  -45.9063  -31.2283    2.9868 H   0  0  0  0  0  0  0  0  0  0  0  0
  -43.6255  -30.5907    1.0302 H   0  0  0  0  0  0  0  0  0  0  0  0
  -47.3855  -28.9560    8.2148 H   0  0  0  0  0  0  0  0  0  0  0  0
  -43.0176  -30.6976    3.2847 H   0  0  0  0  0  0  0  0  0  0  0  0
  1  2  2  0  0  0  0
  1  5  1  0  0  0  0
  2  8  1  0  0  0  0
  3  7  1  0  0  0  0
  3  8  2  0  0  0  0
  4 15  2  0  0  0  0
  4 16  1  0  0  0  0
  5  6  1  0  0  0  0
  5  7  2  0  0  0  0
  6  9  2  0  0  0  0
  6 10  1  0  0  0  0
  7 17  1  0  0  0  0
  8 20  1  0  0  0  0
  9 15  1  0  0  0  0
  9 17  1  0  0  0  0
 10 16  2  0  0  0  0
 10 18  1  0  0  0  0
 11 14  1  0  0  0  0
 12 18  1  0  0  0  0
 13 14  1  0  0  0  0
 13 18  1  0  0  0  0
 14 19  1  0  0  0  0
  1 21  1  0  0  0  0
  2 22  1  0  0  0  0
  3 23  1  0  0  0  0
  4 24  1  0  0  0  0
 11 25  1  0  0  0  0
 11 26  1  0  0  0  0
 11 27  1  0  0  0  0
 12 28  1  0  0  0  0
 12 29  1  0  0  0  0
 12 30  1  0  0  0  0
 13 31  1  0  0  0  0
 13 32  1  0  0  0  0
 14 33  1  0  0  0  0
 17 34  1  0  0  0  0
 19 35  1  0  0  0  0
M  END
> <POSIT::Probability>
0.9

> <POSIT::Method>
SHAPEFIT

> <ReceptorTitle>
UCSF-P4710-REFINED_LIGAND-BOUND-STATE_A__DU__LA1_A-201(A)

> <OMEGA_C>
J7NBwiC06cE2ZXVA2FpHwkfQ6cFo9n1AT5dGwjC46MELG81AvtAuwjIg6MF9WchACp4+wsMs6cE6
VqBA7cc4wmUm6cFq+6ZAxQFBwk6g6MEN7shAzsdJwnJe6cHbEahAhP83ws1O6MF9RtNAlUc0wj+D
6cHE84pAIdQxwvlTAsJItYU/5yIxwpI44sElkAtAmqI1whyA9MFwCBFAEnIwwl4S+sGZ0uA/Yggz
wunV58G2f+NAMlovwpnl6MHmJZ1Adfc8wrEa6MH7QedA0oc0wkT86cHF9ztAm+kswroe/MHaUjZA
TWFRwn/F6cECG65AWtM/wvID6sFRKzdA/dVJwj896sEne0VAXGxIwlZM6MGdW+xAGtUqwsW558HV
otVAJiEuwrk+BMJ/3zA/M+Mzwh0DBcJmvt8/GHU0wuuAAcI2Zj8+YbQxwvFv48FG3ow/oEwywtIB
2sGgphxA8ucswnqA48Ej/htAs0w4wkEZ88HRSLQ/AqA3wpjT+cH0Jj9AgYAuwtC59MHI3oM/uIo9
wvKl58GvbwNB+hEswqKU9cHgN1JA

> <OMEGA_E>
oGWpPg==

> <OMEGA_NBR>
      1228

$$$$
CACHE3-HO_1690_39
  -OEChem-03092622523D

 44 46  0     1  0  0  0  0  0999 V2000
  -49.9764  -28.7347    4.0697 C   0  0  0  0  0  0  0  0  0  0  0  0
  -50.5214  -28.7853    5.3778 C   0  0  0  0  0  0  0  0  0  0  0  0
  -48.5771  -28.8175    3.8716 C   0  0  0  0  0  0  0  0  0  0  0  0
  -49.6749  -28.9214    6.5012 C   0  0  0  0  0  0  0  0  0  0  0  0
  -43.7470  -29.2909    5.9795 C   0  0  0  0  0  0  0  0  0  0  0  0
  -47.7572  -28.9567    5.0102 C   0  0  0  0  0  0  0  0  0  0  0  0
  -46.3014  -29.0586    5.1391 C   0  0  0  0  0  0  0  0  0  0  0  0
  -48.2847  -29.0076    6.3064 C   0  0  0  0  0  0  0  0  0  0  0  0
  -46.0122  -29.1759    6.4997 C   0  0  0  0  0  0  0  0  0  0  0  0
  -45.2632  -29.0663    4.1873 C   0  0  0  0  0  0  0  0  0  0  0  0
  -45.7041  -32.6580   -0.0872 C   0  0  0  0  0  0  0  0  0  0  0  0
  -46.5791  -30.3107   -0.0935 C   0  0  0  0  0  0  0  0  0  0  0  0
  -47.0229  -31.8183    1.8788 C   0  0  0  0  0  0  0  0  0  0  0  0
  -44.5151  -29.4231    1.8008 C   0  0  0  0  0  0  0  0  0  0  0  0
  -44.1852  -31.8290    2.6869 C   0  0  0  0  0  0  0  0  0  0  0  0
  -44.5768  -30.9490    1.4523 C   0  0  1  0  0  0  0  0  0  0  0  0
  -45.9594  -31.4153    0.8121 C   0  0  0  0  0  0  0  0  0  0  0  0
  -44.7350  -29.2957    6.9105 N   0  0  0  0  0  0  0  0  0  0  0  0
  -43.9878  -29.1700    4.6451 N   0  0  0  0  0  0  0  0  0  0  0  0
  -47.2187  -29.1428    7.1967 N   0  0  0  0  0  0  0  0  0  0  0  0
  -45.5177  -29.0087    2.8181 N   0  0  0  0  0  0  0  0  0  0  0  0
  -42.8856  -31.4957    3.1737 O   0  0  0  0  0  0  0  0  0  0  0  0
  -50.6334  -28.6322    3.2186 H   0  0  0  0  0  0  0  0  0  0  0  0
  -51.5904  -28.7194    5.5165 H   0  0  0  0  0  0  0  0  0  0  0  0
  -48.1512  -28.7754    2.8800 H   0  0  0  0  0  0  0  0  0  0  0  0
  -50.0906  -28.9588    7.4973 H   0  0  0  0  0  0  0  0  0  0  0  0
  -42.7242  -29.3873    6.3123 H   0  0  0  0  0  0  0  0  0  0  0  0
  -45.2645  -33.4649    0.5176 H   0  0  0  0  0  0  0  0  0  0  0  0
  -46.6564  -33.0003   -0.5184 H   0  0  0  0  0  0  0  0  0  0  0  0
  -45.0108  -32.3879   -0.8974 H   0  0  0  0  0  0  0  0  0  0  0  0
  -46.7756  -29.4106    0.5075 H   0  0  0  0  0  0  0  0  0  0  0  0
  -45.8769  -30.0644   -0.9037 H   0  0  0  0  0  0  0  0  0  0  0  0
  -47.5225  -30.6768   -0.5247 H   0  0  0  0  0  0  0  0  0  0  0  0
  -47.2286  -30.9596    2.5349 H   0  0  0  0  0  0  0  0  0  0  0  0
  -47.9510  -32.1242    1.3738 H   0  0  0  0  0  0  0  0  0  0  0  0
  -46.6396  -32.6557    2.4804 H   0  0  0  0  0  0  0  0  0  0  0  0
  -43.5111  -29.1940    2.1873 H   0  0  0  0  0  0  0  0  0  0  0  0
  -44.6939  -28.8477    0.8805 H   0  0  0  0  0  0  0  0  0  0  0  0
  -44.9202  -31.6671    3.4892 H   0  0  0  0  0  0  0  0  0  0  0  0
  -44.1949  -32.8878    2.3890 H   0  0  0  0  0  0  0  0  0  0  0  0
  -43.8080  -31.1259    0.6857 H   0  0  0  0  0  0  0  0  0  0  0  0
  -47.3075  -29.2066    8.1907 H   0  0  0  0  0  0  0  0  0  0  0  0
  -46.3243  -29.5786    2.6613 H   0  0  0  0  0  0  0  0  0  0  0  0
  -42.6764  -32.0444    3.9205 H   0  0  0  0  0  0  0  0  0  0  0  0
  1  2  1  0  0  0  0
  1  3  2  0  0  0  0
  2  4  2  0  0  0  0
  3  6  1  0  0  0  0
  4  8  1  0  0  0  0
  5 18  2  0  0  0  0
  5 19  1  0  0  0  0
  6  7  1  0  0  0  0
  6  8  2  0  0  0  0
  7  9  2  0  0  0  0
  7 10  1  0  0  0  0
  8 20  1  0  0  0  0
  9 18  1  0  0  0  0
  9 20  1  0  0  0  0
 10 19  2  0  0  0  0
 10 21  1  0  0  0  0
 11 17  1  0  0  0  0
 12 17  1  0  0  0  0
 13 17  1  0  0  0  0
 14 16  1  0  0  0  0
 14 21  1  0  0  0  0
 15 16  1  0  0  0  0
 15 22  1  0  0  0  0
 16 17  1  0  0  0  0
  1 23  1  0  0  0  0
  2 24  1  0  0  0  0
  3 25  1  0  0  0  0
  4 26  1  0  0  0  0
  5 27  1  0  0  0  0
 11 28  1  0  0  0  0
 11 29  1  0  0  0  0
 11 30  1  0  0  0  0
 12 31  1  0  0  0  0
 12 32  1  0  0  0  0
 12 33  1  0  0  0  0
 13 34  1  0  0  0  0
 13 35  1  0  0  0  0
 13 36  1  0  0  0  0
 14 37  1  0  0  0  0
 14 38  1  0  0  0  0
 15 39  1  0  0  0  0
 15 40  1  0  0  0  0
 16 41  1  0  0  0  0
 20 42  1  0  0  0  0
 21 43  1  0  0  0  0
 22 44  1  0  0  0  0
M  END
> <POSIT::Probability>
0.72

> <POSIT::Method>
SHAPEFIT

> <ReceptorTitle>
UCSF-P4710-REFINED_LIGAND-BOUND-STATE_A__DU__LA1_A-201(A)

> <OMEGA_C>
3udHwqPg5cHROoJA5hVKwk1I5sHzFqxA/k5Cwj6K5sHkx3dAJLNGwg9f58G0CdBA+vwuwshT6sG/
V79AaQc/wlSn58HRU6BAmTQ5wv936MEzc6RAjyNBwp0P6MH1zclAdww4wkRo6cGU/c9Ajg01wt2H
6MER/oVA/NA2wsehAsIynbK991A6wl988sEKkr+9dhc8wtuL/sESfvA/gA8ywnti68HLgOY/r70w
wtCh/sEG9itAr04ywoaX98H85bk/ctY3wpVS+8Fj6E8/sPAywq5d6sEGI91Ah/MvwjZc6cGVpJRA
8t88wmEk6cGeS+ZALRI2wscR6MFDWzRA54orwi73+8H0HUtAnYhKwtkO5cEI/k1AllxOwlLB5cEN
h7BA4ZpAwgc05sG5UThAwFxIwpqr58Ho6e9AiuUqwi0Z68G5/slA4g41wgTcBcKUfgQ/KKA6wkcA
BMLZtgS/EAs0wi2NAcKgu2W/PRo7wvtI68G86AE/9YE3wuqD8MHJVme/Dhc+wh5q9cEBUga/Deo8
wlat98EHPCJAzc0/wjZ/AMIn2K8//o46wmufAsL5vh5AVgsuwkuN6cGL/AtAhMYywiLI5sGoZmE/
Qq4zwjhW/cGbTl9AoMcwwiiNA8KX5BhAcTsvwtgB+cHEjC8/7jo9wg6n6cE7DQNBG0w5whKh7MGs
UipAnLQqwnUtAMK46HpA

> <OMEGA_E>
/NATPw==

> <OMEGA_NBR>
      2632

$$$$
CACHE3-HO_1690_40
  -OEChem-03092622523D

 41 43  0     1  0  0  0  0  0999 V2000
  -49.8104  -29.2422    3.8568 C   0  0  0  0  0  0  0  0  0  0  0  0
  -50.4495  -29.1167    5.1164 C   0  0  0  0  0  0  0  0  0  0  0  0
  -48.3979  -29.2476    3.7641 C   0  0  0  0  0  0  0  0  0  0  0  0
  -49.6846  -29.0075    6.2986 C   0  0  0  0  0  0  0  0  0  0  0  0
  -43.7269  -29.1617    6.2345 C   0  0  0  0  0  0  0  0  0  0  0  0
  -47.6609  -29.1357    4.9580 C   0  0  0  0  0  0  0  0  0  0  0  0
  -46.2145  -29.1405    5.1925 C   0  0  0  0  0  0  0  0  0  0  0  0
  -48.2818  -29.0282    6.2098 C   0  0  0  0  0  0  0  0  0  0  0  0
  -46.0269  -29.0606    6.5742 C   0  0  0  0  0  0  0  0  0  0  0  0
  -45.1010  -29.1964    4.3209 C   0  0  0  0  0  0  0  0  0  0  0  0
  -44.2869  -33.1071    0.5952 C   0  0  0  0  0  0  0  0  0  0  0  0
  -45.9077  -32.1541    2.2354 C   0  0  0  0  0  0  0  0  0  0  0  0
  -45.5603  -31.0273    0.0023 C   0  0  0  0  0  0  0  0  0  0  0  0
  -44.0678  -29.3811    2.0016 C   0  0  0  0  0  0  0  0  0  0  0  0
  -43.6829  -30.8759    1.7310 C   0  0  2  0  0  0  0  0  0  0  0  0
  -44.8527  -31.7731    1.1600 C   0  0  0  0  0  0  0  0  0  0  0  0
  -44.7817  -29.0685    7.0837 N   0  0  0  0  0  0  0  0  0  0  0  0
  -43.8653  -29.2116    4.8821 N   0  0  0  0  0  0  0  0  0  0  0  0
  -47.2813  -28.9748    7.1777 N   0  0  0  0  0  0  0  0  0  0  0  0
  -45.2272  -29.1923    2.9298 N   0  0  0  0  0  0  0  0  0  0  0  0
  -43.1446  -31.4512    2.9237 O   0  0  0  0  0  0  0  0  0  0  0  0
  -50.4062  -29.3344    2.9607 H   0  0  0  0  0  0  0  0  0  0  0  0
  -51.5280  -29.1047    5.1720 H   0  0  0  0  0  0  0  0  0  0  0  0
  -47.9020  -29.3347    2.8087 H   0  0  0  0  0  0  0  0  0  0  0  0
  -50.1709  -28.9094    7.2579 H   0  0  0  0  0  0  0  0  0  0  0  0
  -42.7315  -29.1980    6.6519 H   0  0  0  0  0  0  0  0  0  0  0  0
  -43.5317  -32.8891   -0.1742 H   0  0  0  0  0  0  0  0  0  0  0  0
  -43.8243  -33.6832    1.4101 H   0  0  0  0  0  0  0  0  0  0  0  0
  -45.1048  -33.6929    0.1504 H   0  0  0  0  0  0  0  0  0  0  0  0
  -46.3391  -31.2388    2.6669 H   0  0  0  0  0  0  0  0  0  0  0  0
  -46.7057  -32.7516    1.7705 H   0  0  0  0  0  0  0  0  0  0  0  0
  -45.4252  -32.7419    3.0302 H   0  0  0  0  0  0  0  0  0  0  0  0
  -45.9712  -30.0772    0.3745 H   0  0  0  0  0  0  0  0  0  0  0  0
  -44.8356  -30.8240   -0.7999 H   0  0  0  0  0  0  0  0  0  0  0  0
  -46.3768  -31.6509   -0.3906 H   0  0  0  0  0  0  0  0  0  0  0  0
  -43.1937  -28.8757    2.4379 H   0  0  0  0  0  0  0  0  0  0  0  0
  -44.3197  -28.9124    1.0389 H   0  0  0  0  0  0  0  0  0  0  0  0
  -42.8937  -30.8652    0.9648 H   0  0  0  0  0  0  0  0  0  0  0  0
  -47.4394  -28.8877    8.1613 H   0  0  0  0  0  0  0  0  0  0  0  0
  -45.8761  -29.9209    2.7106 H   0  0  0  0  0  0  0  0  0  0  0  0
  -42.9108  -32.3575    2.7610 H   0  0  0  0  0  0  0  0  0  0  0  0
  1  2  1  0  0  0  0
  1  3  2  0  0  0  0
  2  4  2  0  0  0  0
  3  6  1  0  0  0  0
  4  8  1  0  0  0  0
  5 17  2  0  0  0  0
  5 18  1  0  0  0  0
  6  7  1  0  0  0  0
  6  8  2  0  0  0  0
  7  9  2  0  0  0  0
  7 10  1  0  0  0  0
  8 19  1  0  0  0  0
  9 17  1  0  0  0  0
  9 19  1  0  0  0  0
 10 18  2  0  0  0  0
 10 20  1  0  0  0  0
 11 16  1  0  0  0  0
 12 16  1  0  0  0  0
 13 16  1  0  0  0  0
 14 15  1  0  0  0  0
 14 20  1  0  0  0  0
 15 16  1  0  0  0  0
 15 21  1  0  0  0  0
  1 22  1  0  0  0  0
  2 23  1  0  0  0  0
  3 24  1  0  0  0  0
  4 25  1  0  0  0  0
  5 26  1  0  0  0  0
 11 27  1  0  0  0  0
 11 28  1  0  0  0  0
 11 29  1  0  0  0  0
 12 30  1  0  0  0  0
 12 31  1  0  0  0  0
 12 32  1  0  0  0  0
 13 33  1  0  0  0  0
 13 34  1  0  0  0  0
 13 35  1  0  0  0  0
 14 36  1  0  0  0  0
 14 37  1  0  0  0  0
 15 38  1  0  0  0  0
 19 39  1  0  0  0  0
 20 40  1  0  0  0  0
 21 41  1  0  0  0  0
M  END
> <POSIT::Probability>
0.83

> <POSIT::Method>
SHAPEFIT

> <ReceptorTitle>
UCSF-P4710-REFINED_LIGAND-BOUND-STATE_A__DU__LA1_A-201(A)

> <OMEGA_C>
zT1HwgHw6cEe1XZAU8xJwhDv6MGDuaNAa5dBwhX76cGu53BAC71Gwk4P6MHjjclAVOguwjtL6cE/
gcdAt6Q+wuIV6cEHqJ5Apts4wtMf6cEPKaZAiCBBwqg56MFjtsZAlxs4wi186MHlX9JAcGc0wkeS
6cHzRIpA0SUxwqZtBMIYYRg/d6E3wsWdAMJsEQ9AuD02wtw3+MEAQBg7dkUwwo8M68FmGgBATLsu
wr4B98Hskt0/IWkzwmEv/sGIe5Q/cyAzwkiM6MFLreJAGHYvwmKx6cHfOZxACyA9wmbM58H7r+VA
rug0wsqJ6cFegTtAE5Qswhyc+8FWHTtA559Jwsus6sEZfD1AtRxOwlbW6MFlgaVAnJs/wo+t6sGd
wTNA9K5IwlxG58HYQOhABe0qwoWV6cGo3NRAbiAuwmaOA8IuZTK+D0wvwpi7BsKxfrQ/U2s0wpDF
BsJdCho+Q1s5wiPp+cFFrypAotI6wqMBA8LfoOI/XrM1wqv3AsIi70FAgOI3wh6e8MEyvr8+olcz
woCX9sE4w0y/2IE5wgs1/cHH+se+UMYswnEB58EVBxxAW0cxwqhM58Fi+YQ/M5Mrwunr9sH5/XY/
8cE9wgsa58G2lAJBLYE3wvld78Frei1AqaQrwhluAcLJszBA

> <OMEGA_E>
iCnCPg==

> <OMEGA_NBR>
      3976

$$$$
CACHE3-HO_1708_42
  -OEChem-03092622523D

 39 42  0     1  0  0  0  0  0999 V2000
  -49.7876  -29.1600    3.8393 C   0  0  0  0  0  0  0  0  0  0  0  0
  -50.4250  -29.0807    5.1032 C   0  0  0  0  0  0  0  0  0  0  0  0
  -48.3757  -29.1796    3.7464 C   0  0  0  0  0  0  0  0  0  0  0  0
  -49.6588  -29.0343    6.2890 C   0  0  0  0  0  0  0  0  0  0  0  0
  -43.6987  -29.1466    6.1996 C   0  0  0  0  0  0  0  0  0  0  0  0
  -47.6369  -29.1237    4.9433 C   0  0  0  0  0  0  0  0  0  0  0  0
  -46.1899  -29.1307    5.1725 C   0  0  0  0  0  0  0  0  0  0  0  0
  -48.2556  -29.0626    6.1990 C   0  0  0  0  0  0  0  0  0  0  0  0
  -45.9982  -29.0975    6.5559 C   0  0  0  0  0  0  0  0  0  0  0  0
  -45.0829  -29.1607    4.2897 C   0  0  0  0  0  0  0  0  0  0  0  0
  -44.2542  -33.3743    1.0365 C   0  0  0  0  0  0  0  0  0  0  0  0
  -44.4593  -32.5240   -0.2249 C   0  0  0  0  0  0  0  0  0  0  0  0
  -44.7090  -31.9084    1.1659 C   0  0  0  0  0  0  0  0  0  0  0  0
  -46.1720  -31.7026    1.5904 C   0  0  0  0  0  0  0  0  0  0  0  0
  -44.1277  -29.4187    1.9094 C   0  0  0  0  0  0  0  0  0  0  0  0
  -43.6561  -30.9061    1.7531 C   0  0  1  0  0  0  0  0  0  0  0  0
  -44.7505  -29.1105    7.0588 N   0  0  0  0  0  0  0  0  0  0  0  0
  -43.8426  -29.1577    4.8436 N   0  0  0  0  0  0  0  0  0  0  0  0
  -47.2525  -29.0497    7.1666 N   0  0  0  0  0  0  0  0  0  0  0  0
  -45.2410  -29.1957    2.8969 N   0  0  0  0  0  0  0  0  0  0  0  0
  -43.2154  -31.4132    3.0078 O   0  0  0  0  0  0  0  0  0  0  0  0
  -50.3843  -29.2058    2.9402 H   0  0  0  0  0  0  0  0  0  0  0  0
  -51.5033  -29.0556    5.1597 H   0  0  0  0  0  0  0  0  0  0  0  0
  -47.8809  -29.2356    2.7881 H   0  0  0  0  0  0  0  0  0  0  0  0
  -50.1442  -28.9779    7.2521 H   0  0  0  0  0  0  0  0  0  0  0  0
  -42.7001  -29.1676    6.6104 H   0  0  0  0  0  0  0  0  0  0  0  0
  -44.9548  -34.1897    1.2695 H   0  0  0  0  0  0  0  0  0  0  0  0
  -43.2388  -33.6639    1.3449 H   0  0  0  0  0  0  0  0  0  0  0  0
  -43.5910  -32.2044   -0.8197 H   0  0  0  0  0  0  0  0  0  0  0  0
  -45.3069  -32.7301   -0.8950 H   0  0  0  0  0  0  0  0  0  0  0  0
  -46.3886  -30.6258    1.6513 H   0  0  0  0  0  0  0  0  0  0  0  0
  -46.8378  -32.1690    0.8493 H   0  0  0  0  0  0  0  0  0  0  0  0
  -46.3368  -32.1659    2.5743 H   0  0  0  0  0  0  0  0  0  0  0  0
  -43.2628  -28.8205    2.2321 H   0  0  0  0  0  0  0  0  0  0  0  0
  -44.4709  -29.0661    0.9256 H   0  0  0  0  0  0  0  0  0  0  0  0
  -42.8028  -30.8980    1.0590 H   0  0  0  0  0  0  0  0  0  0  0  0
  -47.4085  -29.0119    8.1536 H   0  0  0  0  0  0  0  0  0  0  0  0
  -45.9033  -29.9241    2.7216 H   0  0  0  0  0  0  0  0  0  0  0  0
  -42.5751  -30.8198    3.3824 H   0  0  0  0  0  0  0  0  0  0  0  0
  1  2  1  0  0  0  0
  1  3  2  0  0  0  0
  2  4  2  0  0  0  0
  3  6  1  0  0  0  0
  4  8  1  0  0  0  0
  5 17  2  0  0  0  0
  5 18  1  0  0  0  0
  6  7  1  0  0  0  0
  6  8  2  0  0  0  0
  7  9  2  0  0  0  0
  7 10  1  0  0  0  0
  8 19  1  0  0  0  0
  9 17  1  0  0  0  0
  9 19  1  0  0  0  0
 10 18  2  0  0  0  0
 10 20  1  0  0  0  0
 11 12  1  0  0  0  0
 11 13  1  0  0  0  0
 12 13  1  0  0  0  0
 13 14  1  0  0  0  0
 13 16  1  0  0  0  0
 15 16  1  0  0  0  0
 15 20  1  0  0  0  0
 16 21  1  0  0  0  0
  1 22  1  0  0  0  0
  2 23  1  0  0  0  0
  3 24  1  0  0  0  0
  4 25  1  0  0  0  0
  5 26  1  0  0  0  0
 11 27  1  0  0  0  0
 11 28  1  0  0  0  0
 12 29  1  0  0  0  0
 12 30  1  0  0  0  0
 14 31  1  0  0  0  0
 14 32  1  0  0  0  0
 14 33  1  0  0  0  0
 15 34  1  0  0  0  0
 15 35  1  0  0  0  0
 16 36  1  0  0  0  0
 19 37  1  0  0  0  0
 20 38  1  0  0  0  0
 21 39  1  0  0  0  0
M  END
> <POSIT::Probability>
0.9

> <POSIT::Method>
SHAPEFIT

> <ReceptorTitle>
UCSF-P4710-REFINED_LIGAND-BOUND-STATE_A__DU__LA1_A-201(A)

> <OMEGA_C>
fSZHwq9H6cGstnVAPrNJwj+l6ME8TaNAw4BBwtVv6cGcxW9AlqJGwkFG6ME4P8lAbcsuwkcs6cG8
YsZAK4w+wnD96MEfL55AeMI4wrML6cF6haVAxAVBwiWA6MFaXsZALv43wqjH6MFVytFA3FQ0wgxJ
6cF9RYlATwQxwj5/BcIGrIQ/X9YxwokYAsJET2a+B9YywnVE/8FQPZU/ILA4wtme/cGukcs/wIIw
wn1Z68HwZ/Q/5Z8uwqQ/98EMZeA/hgAzwlXi6MFz4eFAz14vwuVC6cHH/ppAhwI9wuJl6MFwVOVA
xvY0wtiQ6cFvZzlAnNwswkJO+8Fnf0BAgolJwoWl6cH7LDxAWQNOwtBx6MFwHKVAF4Y/wpDi6cH2
bzJAoZNIwq3S58EjEehA5MwqwjpX6cGiiNNAttEzwjXCCMJsgKI/jvQswtSnBsJVJaw/Jl0uwkfR
AMIE2FG/Tjo1wqnrAsLXIWW/7Y05wrAB9cFcX9M/3Vk7wgutAMJ4a1k/7lg5wt+pAMLVwSRAGw0t
wlWQ5sEs2g5AKuIxwnSH6ME882w/HDYrwiwv98EljIc/Q6I9wloY6MEbdQJBAJ03wqJk78EaLy5A
8kwqwvKO9sEFelhA

> <OMEGA_E>
KK+dPg==

> <OMEGA_NBR>
      5283

$$$$
CACHE3-HO_1715_15
  -OEChem-03092622523D

 33 35  0     1  0  0  0  0  0999 V2000
  -48.3739  -29.2403    3.8342 C   0  0  0  0  0  0  0  0  0  0  0  0
  -49.7787  -29.2307    3.9477 C   0  0  0  0  0  0  0  0  0  0  0  0
  -49.6034  -29.1159    6.3972 C   0  0  0  0  0  0  0  0  0  0  0  0
  -43.6449  -29.0606    6.1316 C   0  0  0  0  0  0  0  0  0  0  0  0
  -47.6154  -29.1885    5.0219 C   0  0  0  0  0  0  0  0  0  0  0  0
  -46.1737  -29.1625    5.2223 C   0  0  0  0  0  0  0  0  0  0  0  0
  -48.2026  -29.1317    6.2876 C   0  0  0  0  0  0  0  0  0  0  0  0
  -50.3904  -29.1641    5.2230 C   0  0  0  0  0  0  0  0  0  0  0  0
  -45.9321  -29.1165    6.5920 C   0  0  0  0  0  0  0  0  0  0  0  0
  -45.1199  -29.1377    4.2999 C   0  0  0  0  0  0  0  0  0  0  0  0
  -44.6257  -31.6514    1.0212 C   0  0  0  0  0  0  0  0  0  0  0  0
  -43.3666  -29.4279    1.5851 C   0  0  0  0  0  0  0  0  0  0  0  0
  -43.3950  -30.9887    1.6800 C   0  0  1  0  0  0  0  0  0  0  0  0
  -44.6603  -29.0800    7.0401 N   0  0  0  0  0  0  0  0  0  0  0  0
  -43.8537  -29.0660    4.7825 N   0  0  0  0  0  0  0  0  0  0  0  0
  -47.1731  -29.1009    7.2349 N   0  0  0  0  0  0  0  0  0  0  0  0
  -45.3855  -29.2554    2.9412 N   0  0  0  0  0  0  0  0  0  0  0  0
  -43.2963  -31.4091    3.0376 O   0  0  0  0  0  0  0  0  0  0  0  0
  -44.5814  -28.7052    1.9201 O   0  0  0  0  0  0  0  0  0  0  0  0
  -52.2901  -29.1422    5.3599 Br  0  0  0  0  0  0  0  0  0  0  0  0
  -47.8935  -29.2858    2.8680 H   0  0  0  0  0  0  0  0  0  0  0  0
  -50.3908  -29.2743    3.0590 H   0  0  0  0  0  0  0  0  0  0  0  0
  -50.0742  -29.0675    7.3680 H   0  0  0  0  0  0  0  0  0  0  0  0
  -42.6283  -29.0400    6.4956 H   0  0  0  0  0  0  0  0  0  0  0  0
  -44.5604  -32.7434    1.1364 H   0  0  0  0  0  0  0  0  0  0  0  0
  -45.5426  -31.2857    1.5066 H   0  0  0  0  0  0  0  0  0  0  0  0
  -44.6505  -31.3965   -0.0485 H   0  0  0  0  0  0  0  0  0  0  0  0
  -42.5764  -29.0727    2.2629 H   0  0  0  0  0  0  0  0  0  0  0  0
  -43.1054  -29.1673    0.5489 H   0  0  0  0  0  0  0  0  0  0  0  0
  -42.5090  -31.3534    1.1396 H   0  0  0  0  0  0  0  0  0  0  0  0
  -47.3057  -29.0719    8.2256 H   0  0  0  0  0  0  0  0  0  0  0  0
  -45.4187  -30.2378    2.7576 H   0  0  0  0  0  0  0  0  0  0  0  0
  -42.5394  -31.0012    3.4417 H   0  0  0  0  0  0  0  0  0  0  0  0
  1  2  2  0  0  0  0
  1  5  1  0  0  0  0
  2  8  1  0  0  0  0
  3  7  1  0  0  0  0
  3  8  2  0  0  0  0
  4 14  2  0  0  0  0
  4 15  1  0  0  0  0
  5  6  1  0  0  0  0
  5  7  2  0  0  0  0
  6  9  2  0  0  0  0
  6 10  1  0  0  0  0
  7 16  1  0  0  0  0
  8 20  1  0  0  0  0
  9 14  1  0  0  0  0
  9 16  1  0  0  0  0
 10 15  2  0  0  0  0
 10 17  1  0  0  0  0
 11 13  1  0  0  0  0
 12 13  1  0  0  0  0
 12 19  1  0  0  0  0
 13 18  1  0  0  0  0
 17 19  1  0  0  0  0
  1 21  1  0  0  0  0
  2 22  1  0  0  0  0
  3 23  1  0  0  0  0
  4 24  1  0  0  0  0
 11 25  1  0  0  0  0
 11 26  1  0  0  0  0
 11 27  1  0  0  0  0
 12 28  1  0  0  0  0
 12 29  1  0  0  0  0
 13 30  1  0  0  0  0
 16 31  1  0  0  0  0
 17 32  1  0  0  0  0
 18 33  1  0  0  0  0
M  END
> <POSIT::Probability>
0.94

> <POSIT::Method>
SHAPEFIT

> <ReceptorTitle>
UCSF-P4710-REFINED_LIGAND-BOUND-STATE_A__DU__LA1_A-201(A)

> <OMEGA_C>
635BwhTs6cH5Y3VAcB1HwmrY6cGcp3xA4GlGwlnt6MEJtsxAaJQuwhV86MEFNsRAJXY+wheC6cFN
s6BA4bE4wspM6cHPHKdAcc9AwrEN6cEgNMlAuY9JwgpQ6cEXI6dAcro3woXu6MFh8dJA0Ho0wgga
6cGOmIlAsoAywv81/cEGuII/b3ctwnFs68F25co/gZQtwu/o98G8Cdc/K6QywsWj6MFHSOFAJmov
wi6H6MEOCplAQrE8wovO6MEZhOdAuYo1wvoK6sF8PDxAYi8twtFF+8GjaEJAXlMywjik5cHgxvU/
GSlRwigj6cEEhKtA+JI/wmNJ6sHvjTdAK5BJwqsx6sEUxkNA/UtIwimK6MGPxutAZIMqwulR6MGR
289A2j0ywjX5AsIOd5E/mis2wjVJ+sHK2cA/G5oywgIs+8EczUa9R04qwvSU6MHQ0xBA6msswpdW
6cGwgww/NwkqwtHT+sEB4JE/DDk9wkiT6MElnANBtKw1wgXn8cGAfDBAWCgqwl4C+MEZRFxA

> <OMEGA_E>
OD1wPg==

> <OMEGA_NBR>
      6469

$$$$
CACHE3-HO_1715_16
  -OEChem-03092622523D

 43 46  0     1  0  0  0  0  0999 V2000
  -49.6902  -29.2813    3.7339 C   0  0  0  0  0  0  0  0  0  0  0  0
  -50.3759  -29.2499    4.9738 C   0  0  0  0  0  0  0  0  0  0  0  0
  -48.2797  -29.2228    3.6964 C   0  0  0  0  0  0  0  0  0  0  0  0
  -49.6587  -29.1678    6.1895 C   0  0  0  0  0  0  0  0  0  0  0  0
  -43.6993  -29.0437    6.2868 C   0  0  0  0  0  0  0  0  0  0  0  0
  -47.5926  -29.1394    4.9230 C   0  0  0  0  0  0  0  0  0  0  0  0
  -46.1636  -29.0888    5.2049 C   0  0  0  0  0  0  0  0  0  0  0  0
  -48.2541  -29.1212    6.1551 C   0  0  0  0  0  0  0  0  0  0  0  0
  -46.0090  -29.0647    6.5900 C   0  0  0  0  0  0  0  0  0  0  0  0
  -45.0453  -29.0830    4.3539 C   0  0  0  0  0  0  0  0  0  0  0  0
  -43.9242  -28.3823    0.8558 C   0  0  0  0  0  0  0  0  0  0  0  0
  -42.8955  -28.3650    1.9980 C   0  0  0  0  0  0  0  0  0  0  0  0
  -44.0686  -29.3579    2.0275 C   0  0  0  0  0  0  0  0  0  0  0  0
  -44.0691  -33.4173   -0.0671 C   0  0  0  0  0  0  0  0  0  0  0  0
  -42.0172  -31.3287    3.3510 C   0  0  0  0  0  0  0  0  0  0  0  0
  -45.0327  -31.5569    1.1638 C   0  0  0  0  0  0  0  0  0  0  0  0
  -43.7808  -30.8553    1.7490 C   0  0  2  0  0  0  0  0  0  0  0  0
  -44.7717  -29.0428    7.1227 N   0  0  0  0  0  0  0  0  0  0  0  0
  -43.8166  -29.0587    4.9294 N   0  0  0  0  0  0  0  0  0  0  0  0
  -47.2839  -29.0714    7.1589 N   0  0  0  0  0  0  0  0  0  0  0  0
  -45.1901  -29.1029    2.9677 N   0  0  0  0  0  0  0  0  0  0  0  0
  -44.7455  -32.1452   -0.1236 O   0  0  0  0  0  0  0  0  0  0  0  0
  -43.3896  -31.5360    2.9611 O   0  0  0  0  0  0  0  0  0  0  0  0
  -50.2494  -29.3503    2.8125 H   0  0  0  0  0  0  0  0  0  0  0  0
  -51.4550  -29.2889    4.9902 H   0  0  0  0  0  0  0  0  0  0  0  0
  -47.7454  -29.2414    2.7580 H   0  0  0  0  0  0  0  0  0  0  0  0
  -50.1835  -29.1413    7.1330 H   0  0  0  0  0  0  0  0  0  0  0  0
  -42.7094  -29.0321    6.7185 H   0  0  0  0  0  0  0  0  0  0  0  0
  -44.6344  -27.5499    0.7430 H   0  0  0  0  0  0  0  0  0  0  0  0
  -43.6360  -28.7557   -0.1380 H   0  0  0  0  0  0  0  0  0  0  0  0
  -41.8717  -28.7272    1.8225 H   0  0  0  0  0  0  0  0  0  0  0  0
  -42.8701  -27.5214    2.7035 H   0  0  0  0  0  0  0  0  0  0  0  0
  -43.8935  -33.7855   -1.0886 H   0  0  0  0  0  0  0  0  0  0  0  0
  -43.1056  -33.2976    0.4500 H   0  0  0  0  0  0  0  0  0  0  0  0
  -44.6920  -34.1397    0.4809 H   0  0  0  0  0  0  0  0  0  0  0  0
  -41.8116  -31.8821    4.2791 H   0  0  0  0  0  0  0  0  0  0  0  0
  -41.3511  -31.6899    2.5536 H   0  0  0  0  0  0  0  0  0  0  0  0
  -41.8416  -30.2556    3.5174 H   0  0  0  0  0  0  0  0  0  0  0  0
  -45.3576  -32.3479    1.8557 H   0  0  0  0  0  0  0  0  0  0  0  0
  -45.8384  -30.8168    1.0487 H   0  0  0  0  0  0  0  0  0  0  0  0
  -42.9700  -30.9200    1.0085 H   0  0  0  0  0  0  0  0  0  0  0  0
  -47.4745  -29.0446    8.1402 H   0  0  0  0  0  0  0  0  0  0  0  0
  -45.8733  -29.8072    2.7748 H   0  0  0  0  0  0  0  0  0  0  0  0
  1  2  1  0  0  0  0
  1  3  2  0  0  0  0
  2  4  2  0  0  0  0
  3  6  1  0  0  0  0
  4  8  1  0  0  0  0
  5 18  2  0  0  0  0
  5 19  1  0  0  0  0
  6  7  1  0  0  0  0
  6  8  2  0  0  0  0
  7  9  2  0  0  0  0
  7 10  1  0  0  0  0
  8 20  1  0  0  0  0
  9 18  1  0  0  0  0
  9 20  1  0  0  0  0
 10 19  2  0  0  0  0
 10 21  1  0  0  0  0
 11 12  1  0  0  0  0
 11 13  1  0  0  0  0
 12 13  1  0  0  0  0
 13 17  1  0  0  0  0
 13 21  1  0  0  0  0
 14 22  1  0  0  0  0
 15 23  1  0  0  0  0
 16 17  1  0  0  0  0
 16 22  1  0  0  0  0
 17 23  1  0  0  0  0
  1 24  1  0  0  0  0
  2 25  1  0  0  0  0
  3 26  1  0  0  0  0
  4 27  1  0  0  0  0
  5 28  1  0  0  0  0
 11 29  1  0  0  0  0
 11 30  1  0  0  0  0
 12 31  1  0  0  0  0
 12 32  1  0  0  0  0
 14 33  1  0  0  0  0
 14 34  1  0  0  0  0
 14 35  1  0  0  0  0
 15 36  1  0  0  0  0
 15 37  1  0  0  0  0
 15 38  1  0  0  0  0
 16 39  1  0  0  0  0
 16 40  1  0  0  0  0
 17 41  1  0  0  0  0
 20 42  1  0  0  0  0
 21 43  1  0  0  0  0
M  END
> <POSIT::Probability>
0.95

> <POSIT::Method>
SHAPEFIT

> <ReceptorTitle>
UCSF-P4710-REFINED_LIGAND-BOUND-STATE_A__DU__LA1_A-201(A)

> <OMEGA_C>
u8JGwhtA6sHF925A4IBJwsL/6cFPKZ9AYB5BwlzI6cGAkmxAeqJGwrpX6cE6EMZADMwuwodZ6MHa
LclAyl4+wpcd6cGKiZ1Aiqc4wvC16MGEjqZAPARBwkz46MF39sRAPAk4wnuE6MGZ4dJAWy40wuWp
6MHgUotAbrIvwgMP48H0FVs/9JQrwoPr4sH3vP8/MkYwwuTc6sHowgFAxkYwwlyrBcJAV4m9oxEo
wi2h+sFCdlZAiSE0woh0/ME19pQ/ix8vwrfX9sFB398/QRYzwqJX6MEZ7eNALEQvwip46MF2vZ1A
wyI9wkqS6MGjFeVAssI0wqvS6MFu7j1AZfsywrKUAMIACv298Y4twsZJ/MFGgj1Aaf9IwoDN6sGM
ADRA8tFNwrpP6sGHr59ASPs+wnvu6cGkgzBA6btIwlsh6cGZQeRAYtYqwqpB6ME5/tZAmokywiJm
3MFpND4/TosuwpcL5sHHRA2+qHwnwljR5cFwSOk/83orwuMr3MGfBS1A/JIvwmUkB8JAWIu/L2ws
wrIwBcJAauY+osQywgGPCMLjN/Y+ET8nwn4O/8Gn7ohAgmclwvyE/cGDbiNAxV0nwpAL8sFeHWFA
LG41wj9kAcI5iO0/elo3wsqI9sGAPIY/QuErwhxc98GUFYE/6uU9wkVb6ME+PgJBP343wi117sHs
ljFA

> <OMEGA_E>
cKqFPg==

> <OMEGA_NBR>
      7856

$$$$
CACHE3-HO_1715_2
  -OEChem-03092622523D

 42 45  0     1  0  0  0  0  0999 V2000
  -49.7156  -29.2081    3.7607 C   0  0  0  0  0  0  0  0  0  0  0  0
  -50.3827  -29.1619    5.0085 C   0  0  0  0  0  0  0  0  0  0  0  0
  -48.3070  -29.1917    3.7072 C   0  0  0  0  0  0  0  0  0  0  0  0
  -49.6474  -29.1119    6.2157 C   0  0  0  0  0  0  0  0  0  0  0  0
  -43.6821  -29.0921    6.2187 C   0  0  0  0  0  0  0  0  0  0  0  0
  -47.5989  -29.1297    4.9260 C   0  0  0  0  0  0  0  0  0  0  0  0
  -46.1652  -29.1053    5.1893 C   0  0  0  0  0  0  0  0  0  0  0  0
  -48.2420  -29.1020    6.1661 C   0  0  0  0  0  0  0  0  0  0  0  0
  -45.9868  -29.0895    6.5705 C   0  0  0  0  0  0  0  0  0  0  0  0
  -45.0694  -29.1090    4.3125 C   0  0  0  0  0  0  0  0  0  0  0  0
  -44.0710  -32.7563    0.6542 C   0  0  0  0  0  0  0  0  0  0  0  0
  -45.1362  -31.8880    1.3417 C   0  0  0  0  0  0  0  0  0  0  0  0
  -43.2624  -31.4577    0.5394 C   0  0  0  0  0  0  0  0  0  0  0  0
  -43.9753  -30.9827    1.8409 C   0  0  0  0  0  0  0  0  0  0  0  0
  -43.1519  -28.4812    1.7779 C   0  0  0  0  0  0  0  0  0  0  0  0
  -41.9883  -31.2938    3.2747 C   0  0  0  0  0  0  0  0  0  0  0  0
  -44.3450  -29.4596    1.8459 C   0  0  2  0  0  0  0  0  0  0  0  0
  -44.7381  -29.0847    7.0783 N   0  0  0  0  0  0  0  0  0  0  0  0
  -43.8270  -29.0981    4.8607 N   0  0  0  0  0  0  0  0  0  0  0  0
  -47.2553  -29.0794    7.1577 N   0  0  0  0  0  0  0  0  0  0  0  0
  -45.2986  -29.1109    2.9323 N   0  0  0  0  0  0  0  0  0  0  0  0
  -43.4095  -31.4792    3.0918 O   0  0  0  0  0  0  0  0  0  0  0  0
  -50.2881  -29.2562    2.8461 H   0  0  0  0  0  0  0  0  0  0  0  0
  -51.4623  -29.1649    5.0389 H   0  0  0  0  0  0  0  0  0  0  0  0
  -47.7856  -29.2256    2.7620 H   0  0  0  0  0  0  0  0  0  0  0  0
  -50.1600  -29.0816    7.1658 H   0  0  0  0  0  0  0  0  0  0  0  0
  -42.6834  -29.0933    6.6299 H   0  0  0  0  0  0  0  0  0  0  0  0
  -43.6198  -33.5321    1.2902 H   0  0  0  0  0  0  0  0  0  0  0  0
  -44.3785  -33.2007   -0.3039 H   0  0  0  0  0  0  0  0  0  0  0  0
  -45.8399  -31.3950    0.6549 H   0  0  0  0  0  0  0  0  0  0  0  0
  -45.6976  -32.3961    2.1396 H   0  0  0  0  0  0  0  0  0  0  0  0
  -42.1738  -31.5848    0.6323 H   0  0  0  0  0  0  0  0  0  0  0  0
  -43.4863  -30.8547   -0.3530 H   0  0  0  0  0  0  0  0  0  0  0  0
  -43.5247  -27.4464    1.7873 H   0  0  0  0  0  0  0  0  0  0  0  0
  -42.4958  -28.6424    2.6460 H   0  0  0  0  0  0  0  0  0  0  0  0
  -42.5851  -28.6582    0.8520 H   0  0  0  0  0  0  0  0  0  0  0  0
  -41.6863  -31.7070    4.2484 H   0  0  0  0  0  0  0  0  0  0  0  0
  -41.4446  -31.8131    2.4717 H   0  0  0  0  0  0  0  0  0  0  0  0
  -41.7516  -30.2201    3.2429 H   0  0  0  0  0  0  0  0  0  0  0  0
  -44.8961  -29.3018    0.9071 H   0  0  0  0  0  0  0  0  0  0  0  0
  -47.4317  -29.0590    8.1418 H   0  0  0  0  0  0  0  0  0  0  0  0
  -46.0678  -29.7370    2.8045 H   0  0  0  0  0  0  0  0  0  0  0  0
  1  2  1  0  0  0  0
  1  3  2  0  0  0  0
  2  4  2  0  0  0  0
  3  6  1  0  0  0  0
  4  8  1  0  0  0  0
  5 18  2  0  0  0  0
  5 19  1  0  0  0  0
  6  7  1  0  0  0  0
  6  8  2  0  0  0  0
  7  9  2  0  0  0  0
  7 10  1  0  0  0  0
  8 20  1  0  0  0  0
  9 18  1  0  0  0  0
  9 20  1  0  0  0  0
 10 19  2  0  0  0  0
 10 21  1  0  0  0  0
 11 12  1  0  0  0  0
 11 13  1  0  0  0  0
 12 14  1  0  0  0  0
 13 14  1  0  0  0  0
 14 17  1  0  0  0  0
 14 22  1  0  0  0  0
 15 17  1  0  0  0  0
 16 22  1  0  0  0  0
 17 21  1  0  0  0  0
  1 23  1  0  0  0  0
  2 24  1  0  0  0  0
  3 25  1  0  0  0  0
  4 26  1  0  0  0  0
  5 27  1  0  0  0  0
 11 28  1  0  0  0  0
 11 29  1  0  0  0  0
 12 30  1  0  0  0  0
 12 31  1  0  0  0  0
 13 32  1  0  0  0  0
 13 33  1  0  0  0  0
 15 34  1  0  0  0  0
 15 35  1  0  0  0  0
 15 36  1  0  0  0  0
 16 37  1  0  0  0  0
 16 38  1  0  0  0  0
 16 39  1  0  0  0  0
 17 40  1  0  0  0  0
 20 41  1  0  0  0  0
 21 42  1  0  0  0  0
M  END
> <POSIT::Probability>
0.83

> <POSIT::Method>
SHAPEFIT

> <ReceptorTitle>
UCSF-P4710-REFINED_LIGAND-BOUND-STATE_A__DU__LA1_A-201(A)

> <OMEGA_C>
0dxGwkWq6cHRrnBA54dJwqhL6cGQRaBAVDpBwpmI6cGLQm1A7JZGwizl6MEI58ZAbbouwqi86MFA
/8ZAQ2U+wowJ6cH8oZ1AN6k4wpXX6MGQDqZAwvdAwvzQ6MGIUMVAg/I3wkG36MHMQdJAHUc0wj/f
6MGk/4lArUgwwm4GA8LQeSc/a4s0wpoa/8EIvqs/twwtwlOp+8EYFAo/qeYvwprc98FPo+s/lZss
wpXZ48G2keM//PMnwslZ+sGWlFFASGExwjyt68E/Rew/yPMywpGt6MG9geJAzU4vwurI6ME2i5tA
dwU9wpKi6MHgC+VAyDE1whPj6MGZqztAW6MtwnbV+8Hd4EVACidJwqAM6sE4JzZAYdlNwslR6cGv
PqFAeyQ/wvPN6cHhwzBAyqNIwg+n6MGMTuVAz7sqwgu/6MH2J9RArnouwuYgBsKmJaU/oIMxwn3N
BMLXlZu+C1w3wg4p+8G8pic/Yco2wqWVAcKE7ghA7LEowsKt/MHo3SE/+fEtwnzW9sHGvLS+TBku
wiuS28HWxeQ/vvspwqUj5cGBVylAHVcqwhVE5cEcGlo/0b4mwvOn/cEI84dAQ8clwj+B/sGKMB5A
ogEnwrfC8cHpik9AqJUzwi1q6sEDNWg/BLo9wr946MHmRAJBZUU4wmjl7cF9fDNA

> <OMEGA_E>
hMHsPg==

> <OMEGA_NBR>
      9221

$$$$
CACHE3-HO_1715_29
  -OEChem-03092622523D

 37 40  0     1  0  0  0  0  0999 V2000
  -49.8071  -28.8546    3.8869 C   0  0  0  0  0  0  0  0  0  0  0  0
  -50.4507  -28.8687    5.1499 C   0  0  0  0  0  0  0  0  0  0  0  0
  -48.3978  -28.9167    3.8017 C   0  0  0  0  0  0  0  0  0  0  0  0
  -49.6926  -28.9406    6.3408 C   0  0  0  0  0  0  0  0  0  0  0  0
  -43.7378  -29.2217    6.2446 C   0  0  0  0  0  0  0  0  0  0  0  0
  -47.6695  -28.9903    5.0044 C   0  0  0  0  0  0  0  0  0  0  0  0
  -46.2313  -29.0683    5.2372 C   0  0  0  0  0  0  0  0  0  0  0  0
  -48.2902  -28.9975    6.2583 C   0  0  0  0  0  0  0  0  0  0  0  0
  -46.0338  -29.1013    6.6178 C   0  0  0  0  0  0  0  0  0  0  0  0
  -45.1389  -29.1372    4.3509 C   0  0  0  0  0  0  0  0  0  0  0  0
  -44.1083  -28.1911    0.9174 C   0  0  0  0  0  0  0  0  0  0  0  0
  -43.0851  -28.1983    2.0666 C   0  0  0  0  0  0  0  0  0  0  0  0
  -44.1817  -29.2706    2.0002 C   0  0  0  0  0  0  0  0  0  0  0  0
  -44.8999  -31.5015    0.9940 C   0  0  0  0  0  0  0  0  0  0  0  0
  -43.7354  -30.6964    1.6111 C   0  0  2  0  0  0  0  0  0  0  0  0
  -44.7831  -29.1769    7.1121 N   0  0  0  0  0  0  0  0  0  0  0  0
  -43.8950  -29.2088    4.8916 N   0  0  0  0  0  0  0  0  0  0  0  0
  -47.2885  -29.0632    7.2287 N   0  0  0  0  0  0  0  0  0  0  0  0
  -45.3145  -29.1773    2.9657 N   0  0  0  0  0  0  0  0  0  0  0  0
  -44.3976  -32.4604    0.0628 O   0  0  0  0  0  0  0  0  0  0  0  0
  -43.2053  -31.3553    2.7590 O   0  0  0  0  0  0  0  0  0  0  0  0
  -50.3974  -28.7961    2.9844 H   0  0  0  0  0  0  0  0  0  0  0  0
  -51.5285  -28.8243    5.2026 H   0  0  0  0  0  0  0  0  0  0  0  0
  -47.8960  -28.9080    2.8454 H   0  0  0  0  0  0  0  0  0  0  0  0
  -50.1845  -28.9516    7.3022 H   0  0  0  0  0  0  0  0  0  0  0  0
  -42.7365  -29.2696    6.6465 H   0  0  0  0  0  0  0  0  0  0  0  0
  -44.8773  -27.4059    0.8707 H   0  0  0  0  0  0  0  0  0  0  0  0
  -43.7920  -28.4556   -0.1023 H   0  0  0  0  0  0  0  0  0  0  0  0
  -42.0374  -28.4692    1.8694 H   0  0  0  0  0  0  0  0  0  0  0  0
  -43.1227  -27.4194    2.8424 H   0  0  0  0  0  0  0  0  0  0  0  0
  -45.4451  -32.0232    1.7943 H   0  0  0  0  0  0  0  0  0  0  0  0
  -45.5822  -30.8130    0.4740 H   0  0  0  0  0  0  0  0  0  0  0  0
  -42.9484  -30.6055    0.8480 H   0  0  0  0  0  0  0  0  0  0  0  0
  -47.4465  -29.0805    8.2160 H   0  0  0  0  0  0  0  0  0  0  0  0
  -45.8947  -29.9716    2.7855 H   0  0  0  0  0  0  0  0  0  0  0  0
  -45.1215  -32.9495   -0.3103 H   0  0  0  0  0  0  0  0  0  0  0  0
  -42.9299  -32.2330    2.5219 H   0  0  0  0  0  0  0  0  0  0  0  0
  1  2  1  0  0  0  0
  1  3  2  0  0  0  0
  2  4  2  0  0  0  0
  3  6  1  0  0  0  0
  4  8  1  0  0  0  0
  5 16  1  0  0  0  0
  5 17  2  0  0  0  0
  6  7  1  0  0  0  0
  6  8  2  0  0  0  0
  7  9  1  0  0  0  0
  7 10  2  0  0  0  0
  8 18  1  0  0  0  0
  9 16  2  0  0  0  0
  9 18  1  0  0  0  0
 10 17  1  0  0  0  0
 10 19  1  0  0  0  0
 11 12  1  0  0  0  0
 11 13  1  0  0  0  0
 12 13  1  0  0  0  0
 13 15  1  0  0  0  0
 13 19  1  0  0  0  0
 14 15  1  0  0  0  0
 14 20  1  0  0  0  0
 15 21  1  0  0  0  0
  1 22  1  0  0  0  0
  2 23  1  0  0  0  0
  3 24  1  0  0  0  0
  4 25  1  0  0  0  0
  5 26  1  0  0  0  0
 11 27  1  0  0  0  0
 11 28  1  0  0  0  0
 12 29  1  0  0  0  0
 12 30  1  0  0  0  0
 14 31  1  0  0  0  0
 14 32  1  0  0  0  0
 15 33  1  0  0  0  0
 18 34  1  0  0  0  0
 19 35  1  0  0  0  0
 20 36  1  0  0  0  0
 21 37  1  0  0  0  0
M  END
> <POSIT::Probability>
0.95

> <POSIT::Method>
SHAPEFIT

> <ReceptorTitle>
UCSF-P4710-REFINED_LIGAND-BOUND-STATE_A__DU__LA1_A-201(A)

> <OMEGA_C>
gDpHwlHW5sFcw3hAh81JwjDz5sHKy6RAW5dBwmlV58EHT3NAMsVGwkyG58Hx58pAffMuwvzF6cH8
08dAkK0+whXs58HKI6BA0Ow4wviL6MHYlqdALClBwtL658FWRMhApCI4wmXP6MGixNNAQ440wgAZ
6cFHOotA8W4wwliH4cFc22o/MVcswjiW4cF4QgRAD7owwiEq6sHcAwBAeJkzwg4D/MHedH4/BPEu
wimS9cGjOc4/8SEzwklq6cEoluNAd5Qvwqir6cEIiJxAbCc9wnSB6MHJUedAEEI1wiNr6cHkzT1A
IpcxwnnXAcKApoA9NdIswpnX+sFBkzBA5pZJwnhe5sHy/z5AMB1OwhiY5sHMe6ZAeZU/wotD58FC
GzZA97xIwuec58GPq+lAK/Iqwj0o6sFUsNRAVYIzwj0/28EJ414/9iovwiil48FUnNG9TyYowufA
48ERR+8/rn0swvxa28Et6TVA08c1wscXAMKwquU/JlQ2wvGA9sFDrvI+H8srwhPY9MHIFlk/O8k9
wtek6MHRdANBI5Q3wvDF78FFRjJAcnw0wkLMA8KY5J6+Prgrwp7uAMIRZiFA

> <OMEGA_E>
HPOSPg==

> <OMEGA_NBR>
     10488

$$$$
CACHE3-HO_1715_5
  -OEChem-03092622523D

 42 45  0     1  0  0  0  0  0999 V2000
  -49.6515  -29.1170    6.2131 C   0  0  0  0  0  0  0  0  0  0  0  0
  -50.3799  -29.1818    5.0029 C   0  0  0  0  0  0  0  0  0  0  0  0
  -48.2970  -29.2139    3.7128 C   0  0  0  0  0  0  0  0  0  0  0  0
  -43.6893  -29.0634    6.2415 C   0  0  0  0  0  0  0  0  0  0  0  0
  -47.5968  -29.1374    4.9329 C   0  0  0  0  0  0  0  0  0  0  0  0
  -46.1654  -29.1063    5.2004 C   0  0  0  0  0  0  0  0  0  0  0  0
  -48.2462  -29.1027    6.1695 C   0  0  0  0  0  0  0  0  0  0  0  0
  -49.7047  -29.2392    3.7596 C   0  0  0  0  0  0  0  0  0  0  0  0
  -45.9941  -29.0796    6.5827 C   0  0  0  0  0  0  0  0  0  0  0  0
  -45.0648  -29.1069    4.3278 C   0  0  0  0  0  0  0  0  0  0  0  0
  -44.2308  -32.7492    0.6172 C   0  0  0  0  0  0  0  0  0  0  0  0
  -45.2265  -31.8526    1.3707 C   0  0  0  0  0  0  0  0  0  0  0  0
  -43.3951  -31.4734    0.4591 C   0  0  0  0  0  0  0  0  0  0  0  0
  -44.0083  -30.9938    1.8106 C   0  0  0  0  0  0  0  0  0  0  0  0
  -43.0866  -28.5348    1.8299 C   0  0  0  0  0  0  0  0  0  0  0  0
  -41.9709  -31.2193    3.1935 C   0  0  0  0  0  0  0  0  0  0  0  0
  -44.3232  -29.4593    1.8607 C   0  0  2  0  0  0  0  0  0  0  0  0
  -44.7487  -29.0618    7.0963 N   0  0  0  0  0  0  0  0  0  0  0  0
  -43.8277  -29.0771    4.8830 N   0  0  0  0  0  0  0  0  0  0  0  0
  -47.2646  -29.0707    7.1648 N   0  0  0  0  0  0  0  0  0  0  0  0
  -45.2822  -29.1091    2.9457 N   0  0  0  0  0  0  0  0  0  0  0  0
  -43.3713  -31.5365    3.0075 O   0  0  0  0  0  0  0  0  0  0  0  0
  -50.6980  -29.3717    2.1396 Br  0  0  0  0  0  0  0  0  0  0  0  0
  -50.1688  -29.0789    7.1603 H   0  0  0  0  0  0  0  0  0  0  0  0
  -51.4596  -29.1876    5.0271 H   0  0  0  0  0  0  0  0  0  0  0  0
  -47.7707  -29.2520    2.7705 H   0  0  0  0  0  0  0  0  0  0  0  0
  -42.6925  -29.0534    6.6572 H   0  0  0  0  0  0  0  0  0  0  0  0
  -43.7648  -33.5409    1.2222 H   0  0  0  0  0  0  0  0  0  0  0  0
  -44.6082  -33.1797   -0.3221 H   0  0  0  0  0  0  0  0  0  0  0  0
  -45.9500  -31.3288    0.7286 H   0  0  0  0  0  0  0  0  0  0  0  0
  -45.7599  -32.3494    2.1945 H   0  0  0  0  0  0  0  0  0  0  0  0
  -42.3067  -31.6315    0.4786 H   0  0  0  0  0  0  0  0  0  0  0  0
  -43.6603  -30.8551   -0.4112 H   0  0  0  0  0  0  0  0  0  0  0  0
  -43.4120  -27.4847    1.8689 H   0  0  0  0  0  0  0  0  0  0  0  0
  -42.4448  -28.7520    2.6965 H   0  0  0  0  0  0  0  0  0  0  0  0
  -42.5215  -28.7092    0.9023 H   0  0  0  0  0  0  0  0  0  0  0  0
  -41.6099  -31.6824    4.1237 H   0  0  0  0  0  0  0  0  0  0  0  0
  -41.3913  -31.6062    2.3425 H   0  0  0  0  0  0  0  0  0  0  0  0
  -41.8474  -30.1280    3.2554 H   0  0  0  0  0  0  0  0  0  0  0  0
  -44.8551  -29.2525    0.9203 H   0  0  0  0  0  0  0  0  0  0  0  0
  -47.4451  -29.0452    8.1480 H   0  0  0  0  0  0  0  0  0  0  0  0
  -46.0517  -29.7338    2.8128 H   0  0  0  0  0  0  0  0  0  0  0  0
  1  2  2  0  0  0  0
  1  7  1  0  0  0  0
  2  8  1  0  0  0  0
  3  5  1  0  0  0  0
  3  8  2  0  0  0  0
  4 18  2  0  0  0  0
  4 19  1  0  0  0  0
  5  6  1  0  0  0  0
  5  7  2  0  0  0  0
  6  9  2  0  0  0  0
  6 10  1  0  0  0  0
  7 20  1  0  0  0  0
  8 23  1  0  0  0  0
  9 18  1  0  0  0  0
  9 20  1  0  0  0  0
 10 19  2  0  0  0  0
 10 21  1  0  0  0  0
 11 12  1  0  0  0  0
 11 13  1  0  0  0  0
 12 14  1  0  0  0  0
 13 14  1  0  0  0  0
 14 17  1  0  0  0  0
 14 22  1  0  0  0  0
 15 17  1  0  0  0  0
 16 22  1  0  0  0  0
 17 21  1  0  0  0  0
  1 24  1  0  0  0  0
  2 25  1  0  0  0  0
  3 26  1  0  0  0  0
  4 27  1  0  0  0  0
 11 28  1  0  0  0  0
 11 29  1  0  0  0  0
 12 30  1  0  0  0  0
 12 31  1  0  0  0  0
 13 32  1  0  0  0  0
 13 33  1  0  0  0  0
 15 34  1  0  0  0  0
 15 35  1  0  0  0  0
 15 36  1  0  0  0  0
 16 37  1  0  0  0  0
 16 38  1  0  0  0  0
 16 39  1  0  0  0  0
 17 40  1  0  0  0  0
 20 41  1  0  0  0  0
 21 42  1  0  0  0  0
M  END
> <POSIT::Probability>
0.72

> <POSIT::Method>
SHAPEFIT

> <ReceptorTitle>
UCSF-P4710-REFINED_LIGAND-BOUND-STATE_A__DU__LA1_A-201(A)

> <OMEGA_C>
KptGwqHv6MFc0cZABoVJwl106cEnGKBAHDBBwiG26cGrnm1A0MEuwtOB6MGqusdAIGM+wm4Z6cGk
2p1AYak4wsnZ6MH7aaZAGvxAwmbS6MGebMVAqdFGwvLp6cFGnXBA+vk3wg+j6MEspdJAZUI0wvza
6MG6fYpAYuwwwjH/AsIgAR4/++c0whXS/sFxcq8/kJQtworJ+8FgDes+hggwwkzz98G8wec/oVgs
wjBH5MG1Oeo/P+InwgnB+cGSYkxA60oxwpys68EOK+4/n/4ywpF+6MH2FONAnU8vws+d6MF6QZxA
/w49wsuQ6MHOReVA9CA1wmHf6MEehjxALnwtwq5K/MFbe0BAw8pKwjP56sFl7whA5axIwo+h6MFx
IeVAp9ZNwiqA6cEh3qBAJhU/wiME6sEPUDFAJMUqwlFt6MHwB9VAKA8vwtopBsKYcpw/024ywhC4
BMIL5aS+1Mw3wlyh+sEfiDo/Ggo3wtVlAcLNcgxACTopwlcN/cGXBfU+HKQuwi3X9sHdg9K+8KUt
wsHg28EAN+8/f8cpwhEE5sE8kyxADBYqwlys5cH9/2Y/lnAmwnV1/cFF9YNAsJAlwnnZ/MHq6hVA
v2MnwhUG8cHbWFBApmszwh4F6sF4m2s/zsc9woRc6MFJXgJB6DQ4wsHe7cF4BTRA

> <OMEGA_E>
ON4EPw==

> <OMEGA_NBR>
     11853

$$$$
CACHE3HI_1689_55
  -OEChem-03092622523D

 33 35  0     0  0  0  0  0  0999 V2000
  -45.9716  -32.1427    1.7268 C   0  0  0  0  0  0  0  0  0  0  0  0
  -43.9307  -31.3264    0.7237 C   0  0  0  0  0  0  0  0  0  0  0  0
  -46.0326  -31.0028    2.5286 C   0  0  0  0  0  0  0  0  0  0  0  0
  -43.9918  -30.1866    1.5254 C   0  0  0  0  0  0  0  0  0  0  0  0
  -44.7016  -29.5768    6.7532 C   0  0  0  0  0  0  0  0  0  0  0  0
  -44.9205  -32.3043    0.8243 C   0  0  0  0  0  0  0  0  0  0  0  0
  -45.0429  -30.0250    2.4280 C   0  0  0  0  0  0  0  0  0  0  0  0
  -44.8562  -33.4834   -0.0040 C   0  0  0  0  0  0  0  0  0  0  0  0
  -45.1515  -29.1011    4.7712 C   0  0  0  0  0  0  0  0  0  0  0  0
  -45.0533  -35.2668   -1.0331 C   0  0  0  0  0  0  0  0  0  0  0  0
  -47.8417  -35.9929   -1.8828 C   0  0  0  0  0  0  0  0  0  0  0  0
  -45.1087  -28.8064    3.2854 C   0  0  0  0  0  0  0  0  0  0  0  0
  -45.5962  -36.5554   -1.4759 C   0  0  0  0  0  0  0  0  0  0  0  0
  -44.1256  -29.4219    5.5246 N   0  0  0  0  0  0  0  0  0  0  0  0
  -45.6629  -34.5121   -0.0735 N   0  0  0  0  0  0  0  0  0  0  0  0
  -46.2819  -29.0694    5.5263 N   0  0  0  0  0  0  0  0  0  0  0  0
  -43.9297  -34.7574   -1.5465 N   0  0  0  0  0  0  0  0  0  0  0  0
  -46.0192  -29.3718    6.8067 N   0  0  0  0  0  0  0  0  0  0  0  0
  -43.7953  -33.5495   -0.8504 O   0  0  0  0  0  0  0  0  0  0  0  0
  -46.9502  -36.7009   -1.0380 O   0  0  0  0  0  0  0  0  0  0  0  0
  -46.7509  -32.8957    1.8170 H   0  0  0  0  0  0  0  0  0  0  0  0
  -43.1049  -31.4383    0.0248 H   0  0  0  0  0  0  0  0  0  0  0  0
  -46.8554  -30.8850    3.2289 H   0  0  0  0  0  0  0  0  0  0  0  0
  -43.2164  -29.4298    1.4403 H   0  0  0  0  0  0  0  0  0  0  0  0
  -44.1270  -29.8486    7.6289 H   0  0  0  0  0  0  0  0  0  0  0  0
  -48.8660  -36.1225   -1.5239 H   0  0  0  0  0  0  0  0  0  0  0  0
  -47.5828  -34.9315   -1.8634 H   0  0  0  0  0  0  0  0  0  0  0  0
  -47.7523  -36.3685   -2.9047 H   0  0  0  0  0  0  0  0  0  0  0  0
  -44.2520  -28.1406    3.0787 H   0  0  0  0  0  0  0  0  0  0  0  0
  -45.9868  -28.1917    3.0183 H   0  0  0  0  0  0  0  0  0  0  0  0
  -45.5876  -36.6617   -2.5783 H   0  0  0  0  0  0  0  0  0  0  0  0
  -45.0214  -37.4156   -1.0789 H   0  0  0  0  0  0  0  0  0  0  0  0
  -46.7348  -29.4011    7.5276 H   0  0  0  0  0  0  0  0  0  0  0  0
  1  3  2  0  0  0  0
  1  6  1  0  0  0  0
  2  4  1  0  0  0  0
  2  6  2  0  0  0  0
  3  7  1  0  0  0  0
  4  7  2  0  0  0  0
  5 14  2  0  0  0  0
  5 18  1  0  0  0  0
  6  8  1  0  0  0  0
  7 12  1  0  0  0  0
  8 15  2  0  0  0  0
  8 19  1  0  0  0  0
  9 12  1  0  0  0  0
  9 14  1  0  0  0  0
  9 16  2  0  0  0  0
 10 13  1  0  0  0  0
 10 15  1  0  0  0  0
 10 17  2  0  0  0  0
 11 20  1  0  0  0  0
 13 20  1  0  0  0  0
 16 18  1  0  0  0  0
 17 19  1  0  0  0  0
  1 21  1  0  0  0  0
  2 22  1  0  0  0  0
  3 23  1  0  0  0  0
  4 24  1  0  0  0  0
  5 25  1  0  0  0  0
 11 26  1  0  0  0  0
 11 27  1  0  0  0  0
 11 28  1  0  0  0  0
 12 29  1  0  0  0  0
 12 30  1  0  0  0  0
 13 31  1  0  0  0  0
 13 32  1  0  0  0  0
 18 33  1  0  0  0  0
M  END
> <POSIT::Probability>
0.14

> <POSIT::Method>
HYBRID

> <ReceptorTitle>
UCSF-P4710-REFINED_LIGAND-BOUND-STATE_A__DU__LA1_A-201(A)

> <OMEGA_C>
4eI3whmSAMIQCd0/Erkvwnqc+sG0RDk/byE4wtEF+MHZ0yFAmPcvwiZ+8cGIP8M/as4ywkSd7MET
GthAmq4zwpI3AcJgA1M/5ys0wiQz8MErZBtAt2wzwvbuBcIAUIS7Ips0whTP6MFPrZhAmDY0wi4R
DcJkO4S/6l0/wrf4D8LY/vC/Um80wn5z5sH4Q1JAdmI2wrk4EsKs67y/lIAwwh5g68EoybBAyqY2
wlwMCsJAb5a9tiA5wiaO6MHO17BAB7gvwogHC8Jg88W/ohM4wnX56sGD0NlAVy4vwqkyBsKgtVm/
B807wrHNEsJ03YS/7wA7wjiVA8KIkug/cGsswqeB+8EA58o89Gs7wngU98Gopk5Apd0swixw68Fc
Wrg/BoIwwgXK7sG2H/RA1HZDwnF9EMIoD8O/v1Q+wuG5C8JUhe6/VAI/wll5EcKC5jnADwIxwu0f
4cHjCEVAd/I3wrGI4cEfK0FArlk2wp2lEsJcAiXA8RU0wp6pFcLAGYq/a/A6wn0168EU4vBA

> <OMEGA_E>
YbzCwA==

> <OMEGA_NBR>
     13008

$$$$
CACHE3HI_1689_74
  -OEChem-03092622523D

 34 35  0     0  0  0  0  0  0999 V2000
  -45.7892  -31.0889    0.6478 C   0  0  0  0  0  0  0  0  0  0  0  0
  -45.7115  -32.4432    0.3230 C   0  0  0  0  0  0  0  0  0  0  0  0
  -43.4900  -32.5434    1.2677 C   0  0  0  0  0  0  0  0  0  0  0  0
  -44.7172  -30.4620    1.2828 C   0  0  0  0  0  0  0  0  0  0  0  0
  -44.5621  -33.1704    0.6328 C   0  0  0  0  0  0  0  0  0  0  0  0
  -43.5677  -31.1892    1.5925 C   0  0  0  0  0  0  0  0  0  0  0  0
  -46.7188  -29.3242    4.0641 C   0  0  0  0  0  0  0  0  0  0  0  0
  -45.0419  -29.6670    5.5149 C   0  0  0  0  0  0  0  0  0  0  0  0
  -46.8583  -28.5141    6.1522 C   0  0  0  0  0  0  0  0  0  0  0  0
  -45.6199  -35.0691   -0.3331 C   0  0  0  0  0  0  0  0  0  0  0  0
  -44.8452  -29.0096    1.6119 C   0  0  0  0  0  0  0  0  0  0  0  0
  -47.3142  -29.5060    2.6954 C   0  0  0  0  0  0  0  0  0  0  0  0
  -45.5089  -29.8682    4.2724 N   0  0  0  0  0  0  0  0  0  0  0  0
  -47.4518  -28.6352    4.9538 N   0  0  0  0  0  0  0  0  0  0  0  0
  -45.6581  -29.0017    6.5051 N   0  0  0  0  0  0  0  0  0  0  0  0
  -43.7721  -30.2096    5.8098 N   0  0  0  0  0  0  0  0  0  0  0  0
  -47.5685  -27.8003    7.1421 N   0  0  0  0  0  0  0  0  0  0  0  0
  -44.4873  -34.4918    0.3151 O   0  0  0  0  0  0  0  0  0  0  0  0
  -46.5570  -28.4140    1.4712 S   0  0  0  0  0  0  0  0  0  0  0  0
  -42.0853  -30.3801    2.4556 Br  0  0  0  0  0  0  0  0  0  0  0  0
  -46.6898  -30.5322    0.4022 H   0  0  0  0  0  0  0  0  0  0  0  0
  -46.5496  -32.9262   -0.1721 H   0  0  0  0  0  0  0  0  0  0  0  0
  -42.5994  -33.1213    1.5038 H   0  0  0  0  0  0  0  0  0  0  0  0
  -45.4286  -36.1272   -0.5300 H   0  0  0  0  0  0  0  0  0  0  0  0
  -46.4905  -34.9739    0.3203 H   0  0  0  0  0  0  0  0  0  0  0  0
  -45.8119  -34.5422   -1.2706 H   0  0  0  0  0  0  0  0  0  0  0  0
  -44.4943  -28.8136    2.6342 H   0  0  0  0  0  0  0  0  0  0  0  0
  -44.2107  -28.4044    0.9502 H   0  0  0  0  0  0  0  0  0  0  0  0
  -47.1900  -30.5431    2.3655 H   0  0  0  0  0  0  0  0  0  0  0  0
  -48.3922  -29.3139    2.7224 H   0  0  0  0  0  0  0  0  0  0  0  0
  -43.3045  -30.7558    5.1162 H   0  0  0  0  0  0  0  0  0  0  0  0
  -43.4124  -30.1276    6.7382 H   0  0  0  0  0  0  0  0  0  0  0  0
  -48.4408  -27.3761    6.9031 H   0  0  0  0  0  0  0  0  0  0  0  0
  -47.1385  -27.6426    8.0299 H   0  0  0  0  0  0  0  0  0  0  0  0
  1  2  2  0  0  0  0
  1  4  1  0  0  0  0
  2  5  1  0  0  0  0
  3  5  2  0  0  0  0
  3  6  1  0  0  0  0
  4  6  2  0  0  0  0
  4 11  1  0  0  0  0
  5 18  1  0  0  0  0
  6 20  1  0  0  0  0
  7 12  1  0  0  0  0
  7 13  2  0  0  0  0
  7 14  1  0  0  0  0
  8 13  1  0  0  0  0
  8 15  2  0  0  0  0
  8 16  1  0  0  0  0
  9 14  2  0  0  0  0
  9 15  1  0  0  0  0
  9 17  1  0  0  0  0
 10 18  1  0  0  0  0
 11 19  1  0  0  0  0
 12 19  1  0  0  0  0
  1 21  1  0  0  0  0
  2 22  1  0  0  0  0
  3 23  1  0  0  0  0
 10 24  1  0  0  0  0
 10 25  1  0  0  0  0
 10 26  1  0  0  0  0
 11 27  1  0  0  0  0
 11 28  1  0  0  0  0
 12 29  1  0  0  0  0
 12 30  1  0  0  0  0
 16 31  1  0  0  0  0
 16 32  1  0  0  0  0
 17 33  1  0  0  0  0
 17 34  1  0  0  0  0
M  END
> <POSIT::Probability>
0.14

> <POSIT::Method>
HYBRID

> <ReceptorTitle>
UCSF-P4710-REFINED_LIGAND-BOUND-STATE_A__DU__LA1_A-201(A)

> <OMEGA_C>
LCg3whC2+MEM2SU/ntg2wtnFAcLwYqU+x/UtwnksAsKHRaI/aN4ywiOy88GEMqQ/kj8ywnyuBMJY
/SE/XEUuwmmD+cFz2Ms/COA6wvOX6sFXDYJA5Co0wuxV7cE4erBA7W47wtAc5MEY38RA0Xo2wsFG
DMIwjqq+hmEzwrkT6MFEUs4/sUE9wlQM7MG8gCxAJAk2winy7sEdt4hAq849wv0U5cHLhZ5A5KE2
wm8D6MEIKtBAnhYvwjKt8cGs6blAJEY+whVn3sE2jORA+vIxwqP3CcLIWKE+Vzo6wt5P48HITrw/
UVcowmUK88HiKB1AYcI6wvpB9MFo7c0+yjI6wmq0A8JgPTC+0WUqwjt8BMJYfcA/5bY1wjSCEMLM
rAe/TvY5wk/lC8I4/KM+bz83wjMrCsKso6K/M/oxwkWC5sEglyhAy9cwwkQ848FuQnM/iMI8wl5Y
9MGLZBdAkZFBwtSC6sEuOy5A2jctwtsL9sH5t6NAUqYtwkAF8cEKn9dAZsNBwlkC28HT5dxAxo08
wiAk3cGfegBB

> <OMEGA_E>
90nswA==

> <OMEGA_NBR>
     14179

$$$$
CACHE3HI_1690_16
  -OEChem-03092622523D

 43 46  0     1  0  0  0  0  0999 V2000
  -48.5105  -29.3868    3.8646 C   0  0  0  0  0  0  0  0  0  0  0  0
  -49.9172  -29.3669    4.0234 C   0  0  0  0  0  0  0  0  0  0  0  0
  -49.6665  -29.0257    6.4433 C   0  0  0  0  0  0  0  0  0  0  0  0
  -43.7190  -29.1572    6.0848 C   0  0  0  0  0  0  0  0  0  0  0  0
  -47.7168  -29.2167    5.0177 C   0  0  0  0  0  0  0  0  0  0  0  0
  -46.2648  -29.1927    5.1897 C   0  0  0  0  0  0  0  0  0  0  0  0
  -48.2728  -29.0390    6.2876 C   0  0  0  0  0  0  0  0  0  0  0  0
  -50.4904  -29.1879    5.3096 C   0  0  0  0  0  0  0  0  0  0  0  0
  -46.0019  -29.0069    6.5431 C   0  0  0  0  0  0  0  0  0  0  0  0
  -45.2084  -29.3867    4.2889 C   0  0  0  0  0  0  0  0  0  0  0  0
  -45.4311  -28.6758    1.8905 C   0  0  0  0  0  0  0  0  0  0  0  0
  -44.9127  -30.9726    2.4186 C   0  0  0  0  0  0  0  0  0  0  0  0
  -44.8682  -29.3885    0.6447 C   0  0  2  0  0  0  0  0  0  0  0  0
  -45.2451  -30.8434    0.9508 C   0  0  1  0  0  0  0  0  0  0  0  0
  -45.1176  -34.0873   -0.7357 C   0  0  0  0  0  0  0  0  0  0  0  0
  -43.3394  -29.1202    0.4840 C   0  0  0  0  0  0  0  0  0  0  0  0
  -45.1214  -33.1911    0.4959 C   0  0  0  0  0  0  0  0  0  0  0  0
  -44.7269  -28.9864    6.9815 N   0  0  0  0  0  0  0  0  0  0  0  0
  -43.9397  -29.3707    4.7610 N   0  0  0  0  0  0  0  0  0  0  0  0
  -47.2265  -28.9101    7.2011 N   0  0  0  0  0  0  0  0  0  0  0  0
  -45.4330  -29.7100    2.9750 N   0  0  1  0  0  0  0  0  0  0  0  0
  -42.6506  -28.9718    1.7311 O   0  0  0  0  0  0  0  0  0  0  0  0
  -44.6185  -31.8689    0.1669 O   0  0  0  0  0  0  0  0  0  0  0  0
  -52.3843  -29.1704    5.5319 Br  0  0  0  0  0  0  0  0  0  0  0  0
  -48.0604  -29.5275    2.8930 H   0  0  0  0  0  0  0  0  0  0  0  0
  -50.5571  -29.4884    3.1619 H   0  0  0  0  0  0  0  0  0  0  0  0
  -50.1047  -28.8927    7.4214 H   0  0  0  0  0  0  0  0  0  0  0  0
  -42.6996  -29.1217    6.4398 H   0  0  0  0  0  0  0  0  0  0  0  0
  -44.7905  -27.8264    2.1701 H   0  0  0  0  0  0  0  0  0  0  0  0
  -46.4532  -28.3169    1.6995 H   0  0  0  0  0  0  0  0  0  0  0  0
  -45.4172  -31.8419    2.8655 H   0  0  0  0  0  0  0  0  0  0  0  0
  -43.8272  -31.0585    2.5745 H   0  0  0  0  0  0  0  0  0  0  0  0
  -45.3998  -29.0442   -0.2547 H   0  0  0  0  0  0  0  0  0  0  0  0
  -46.3362  -30.9326    0.8437 H   0  0  0  0  0  0  0  0  0  0  0  0
  -45.5012  -35.0826   -0.4667 H   0  0  0  0  0  0  0  0  0  0  0  0
  -45.7585  -33.6452   -1.5127 H   0  0  0  0  0  0  0  0  0  0  0  0
  -44.0903  -34.1814   -1.1174 H   0  0  0  0  0  0  0  0  0  0  0  0
  -42.8933  -29.9648   -0.0616 H   0  0  0  0  0  0  0  0  0  0  0  0
  -43.2074  -28.1966   -0.0986 H   0  0  0  0  0  0  0  0  0  0  0  0
  -46.1500  -33.1026    0.8755 H   0  0  0  0  0  0  0  0  0  0  0  0
  -44.4817  -33.6387    1.2708 H   0  0  0  0  0  0  0  0  0  0  0  0
  -47.3388  -28.7689    8.1847 H   0  0  0  0  0  0  0  0  0  0  0  0
  -41.7287  -28.8114    1.5671 H   0  0  0  0  0  0  0  0  0  0  0  0
  1  2  2  0  0  0  0
  1  5  1  0  0  0  0
  2  8  1  0  0  0  0
  3  7  1  0  0  0  0
  3  8  2  0  0  0  0
  4 18  2  0  0  0  0
  4 19  1  0  0  0  0
  5  6  1  0  0  0  0
  5  7  2  0  0  0  0
  6  9  2  0  0  0  0
  6 10  1  0  0  0  0
  7 20  1  0  0  0  0
  8 24  1  0  0  0  0
  9 18  1  0  0  0  0
  9 20  1  0  0  0  0
 10 19  2  0  0  0  0
 10 21  1  0  0  0  0
 11 13  1  0  0  0  0
 11 21  1  0  0  0  0
 12 14  1  0  0  0  0
 12 21  1  0  0  0  0
 13 14  1  0  0  0  0
 13 16  1  0  0  0  0
 14 23  1  0  0  0  0
 15 17  1  0  0  0  0
 16 22  1  0  0  0  0
 17 23  1  0  0  0  0
  1 25  1  0  0  0  0
  2 26  1  0  0  0  0
  3 27  1  0  0  0  0
  4 28  1  0  0  0  0
 11 29  1  0  0  0  0
 11 30  1  0  0  0  0
 12 31  1  0  0  0  0
 12 32  1  0  0  0  0
 13 33  1  0  0  0  0
 14 34  1  0  0  0  0
 15 35  1  0  0  0  0
 15 36  1  0  0  0  0
 15 37  1  0  0  0  0
 16 38  1  0  0  0  0
 16 39  1  0  0  0  0
 17 40  1  0  0  0  0
 17 41  1  0  0  0  0
 20 42  1  0  0  0  0
 22 43  1  0  0  0  0
M  END
> <POSIT::Probability>
0.72

> <POSIT::Method>
SHAPEFIT

> <ReceptorTitle>
UCSF-P4710-REFINED_LIGAND-BOUND-STATE_A__DU__LA1_A-201(A)

> <OMEGA_C>
wApCwi0Y68EiVXdAMqtHwl/v6sF1v4BAfapGwrM06MHVL85AOOAuwgRC6cFptsJAA94+wsu76cFJ
kaBALQ85wrWK6cFtEqZAYxdBwvJP6MFXNMlAH/ZJwsOA6cFT6KlA+QE4whsO6MFNYdFAcNU0wgYY
68FZPolAerk1wvtn5cFU/fE/naYzwu7H98EayhpADHkzwpwb68HgByU/8Po0wj6/9sE4ZnM/bXg0
wm9ZCMJgVDy/klstwkT26MGw0/c+R3w0wqXDBMJw4v0+Yegywjvk58GhaN9APsIvwkr36sHZWZhA
7ec8wu9H58Exb+ZAX7s1wiyu7cEWZz5AP5oqwjLG58GslN0/XnkywpXz/sGA3So+e4lRwvFc6cFB
BbFA3D1Awmo47MFnJjlAgDpKwlLo68HxXEpAP2tIwjkk58FIfO1AZMwqwjD56MGvEs5Agykzwmic
3sFD4wpAHdA5wv6I4sGdiNk/O6s1wk68/sGfZDdADk8vwsR3+MFTxCRAZ5k1woJa6MG6aoK+Q1g5
wvV198ET/1c/NQE2wpBUDMK+7e6+tgg3wrmUBsI2oMG/cFwwwrW5CMIRCI+/wZIrwvK378FCMHy9
bdQswp+S4cHr5cm9kZk4wgVpBMKXImA/TO0xwgGOBsJxqaI/6lo9wqIm5sFa9AJBO+omws995sFF
lcg/

> <OMEGA_E>
XN4bPw==

> <OMEGA_NBR>
     15572

$$$$
CACHE3HI_1690_17
  -OEChem-03092622523D

 41 45  0     1  0  0  0  0  0999 V2000
  -48.3121  -29.1786    3.3286 C   0  0  0  0  0  0  0  0  0  0  0  0
  -49.7109  -29.1530    3.3670 C   0  0  0  0  0  0  0  0  0  0  0  0
  -49.6928  -28.9810    5.7904 C   0  0  0  0  0  0  0  0  0  0  0  0
  -43.8820  -29.0472    6.1783 C   0  0  0  0  0  0  0  0  0  0  0  0
  -47.5865  -29.1040    4.5363 C   0  0  0  0  0  0  0  0  0  0  0  0
  -46.1983  -29.1033    4.8633 C   0  0  0  0  0  0  0  0  0  0  0  0
  -48.2939  -29.0080    5.7379 C   0  0  0  0  0  0  0  0  0  0  0  0
  -50.3888  -29.0558    4.5807 C   0  0  0  0  0  0  0  0  0  0  0  0
  -46.1017  -29.0066    6.2447 C   0  0  0  0  0  0  0  0  0  0  0  0
  -44.9961  -29.1727    4.1583 C   0  0  0  0  0  0  0  0  0  0  0  0
  -45.5689  -28.2567    1.9053 C   0  0  0  0  0  0  0  0  0  0  0  0
  -45.7992  -30.8665    0.1848 C   0  0  0  0  0  0  0  0  0  0  0  0
  -44.9905  -31.6853    2.1832 C   0  0  0  0  0  0  0  0  0  0  0  0
  -44.5991  -30.0008    0.5560 C   0  0  2  0  0  0  0  0  0  0  0  0
  -44.3141  -30.3384    2.0208 C   0  0  1  0  0  0  0  0  0  0  0  0
  -44.8956  -28.5053    0.5584 C   0  0  2  0  0  0  0  0  0  0  0  0
  -42.9969  -27.8199    1.7628 C   0  0  0  0  0  0  0  0  0  0  0  0
  -44.9712  -28.9728    6.9708 N   0  0  0  0  0  0  0  0  0  0  0  0
  -43.8238  -29.1427    4.8320 N   0  0  0  0  0  0  0  0  0  0  0  0
  -47.3686  -28.9501    6.7568 N   0  0  0  0  0  0  0  0  0  0  0  0
  -44.9802  -29.2712    2.7806 N   0  0  3  0  0  0  0  0  0  0  0  0
  -46.1343  -31.6607    1.3272 O   0  0  0  0  0  0  0  0  0  0  0  0
  -43.6749  -27.7711    0.5160 O   0  0  0  0  0  0  0  0  0  0  0  0
  -52.2812  -29.0237    4.5950 Br  0  0  0  0  0  0  0  0  0  0  0  0
  -47.8037  -29.2543    2.3720 H   0  0  0  0  0  0  0  0  0  0  0  0
  -50.2583  -29.2109    2.4288 H   0  0  0  0  0  0  0  0  0  0  0  0
  -50.2086  -28.9041    6.7426 H   0  0  0  0  0  0  0  0  0  0  0  0
  -42.9254  -29.0271    6.6888 H   0  0  0  0  0  0  0  0  0  0  0  0
  -45.3846  -27.2397    2.2768 H   0  0  0  0  0  0  0  0  0  0  0  0
  -46.6525  -28.4285    1.8516 H   0  0  0  0  0  0  0  0  0  0  0  0
  -46.6801  -30.2936   -0.1199 H   0  0  0  0  0  0  0  0  0  0  0  0
  -45.5424  -31.5465   -0.6349 H   0  0  0  0  0  0  0  0  0  0  0  0
  -44.3313  -32.4922    1.8423 H   0  0  0  0  0  0  0  0  0  0  0  0
  -45.2959  -31.9095    3.2092 H   0  0  0  0  0  0  0  0  0  0  0  0
  -43.7415  -30.2391   -0.0835 H   0  0  0  0  0  0  0  0  0  0  0  0
  -43.2436  -30.3661    2.2645 H   0  0  0  0  0  0  0  0  0  0  0  0
  -45.5186  -28.1809   -0.2806 H   0  0  0  0  0  0  0  0  0  0  0  0
  -42.0674  -27.2486    1.6962 H   0  0  0  0  0  0  0  0  0  0  0  0
  -43.6367  -27.3822    2.5329 H   0  0  0  0  0  0  0  0  0  0  0  0
  -42.7803  -28.8592    2.0203 H   0  0  0  0  0  0  0  0  0  0  0  0
  -47.5933  -28.8780    7.7394 H   0  0  0  0  0  0  0  0  0  0  0  0
  1  2  2  0  0  0  0
  1  5  1  0  0  0  0
  2  8  1  0  0  0  0
  3  7  1  0  0  0  0
  3  8  2  0  0  0  0
  4 18  2  0  0  0  0
  4 19  1  0  0  0  0
  5  6  1  0  0  0  0
  5  7  2  0  0  0  0
  6  9  2  0  0  0  0
  6 10  1  0  0  0  0
  7 20  1  0  0  0  0
  8 24  1  0  0  0  0
  9 18  1  0  0  0  0
  9 20  1  0  0  0  0
 10 19  2  0  0  0  0
 10 21  1  0  0  0  0
 11 16  1  0  0  0  0
 11 21  1  0  0  0  0
 12 14  1  0  0  0  0
 12 22  1  0  0  0  0
 13 15  1  0  0  0  0
 13 22  1  0  0  0  0
 14 15  1  0  0  0  0
 14 16  1  0  0  0  0
 15 21  1  0  0  0  0
 16 23  1  0  0  0  0
 17 23  1  0  0  0  0
  1 25  1  0  0  0  0
  2 26  1  0  0  0  0
  3 27  1  0  0  0  0
  4 28  1  0  0  0  0
 11 29  1  0  0  0  0
 11 30  1  0  0  0  0
 12 31  1  0  0  0  0
 12 32  1  0  0  0  0
 13 33  1  0  0  0  0
 13 34  1  0  0  0  0
 14 35  1  0  0  0  0
 15 36  1  0  0  0  0
 16 37  1  0  0  0  0
 17 38  1  0  0  0  0
 17 39  1  0  0  0  0
 17 40  1  0  0  0  0
 20 41  1  0  0  0  0
M  END
> <POSIT::Probability>
0.55

> <POSIT::Method>
HYBRID

> <ReceptorTitle>
UCSF-P4710-REFINED_LIGAND-BOUND-STATE_A__DU__LA1_A-201(A)

> <OMEGA_C>
nD9BwtJt6cGtB1VA99dGwko56cFVfFdAbMVGwgfZ58EiS7lAMIcvwppg6MHptMVAilg+wunU6MFg
KZFAGMs4wqbT6MF3oJtA8SxBwnEQ6MEvnbdALo5JwjFy6MHOlJJAKWg4wokN6MGv1MdA/PszwqVh
6cEfEYVAhkY2wrYN4sEu4fM/WTI3wqzu9sFAOz0+SfYzwmd7/cFquQtAc2UywqoB8MGQVQ4/pkEx
whi18sFPVQFAIpUzwtIK5MH48w4/1vwrwiaP3sGkpOE/juIzwmPI58ExEd9Aj0svwkUk6cEmoJpA
enk9wsyZ58FUN9hAvOszwmAr6sGx9TFAh4k4wi1J/cGI4qk/EbMuwj0r3sHsFQQ/6B9Rwoow6MHX
CZNA/jY/wroI6sEXzhdAdAhJwuCv6cGhcRtAmNVIwrI758G4w9dAkrMrwnk36MH4CtZA14k1wunq
2cEDtxFAHpw6wn5t48GaAu0/cbg6wkZZ8sEAh/W9aSs2wktf/ME4hiK/QlMxwvj3AcI0z+s/Ai81
wrBG/8FBZE1AWPcuwqbp8cEAG6u9c/kswr7t8sFU7RBAFBM2woly4cHQr4++BkUowgr92cHYG9k/
7osuwqsO28FbGyJADh8rwrff5sEYTAFAf18+whIG58HvqPdA

> <OMEGA_E>
eYNAwQ==

> <OMEGA_NBR>
     16907

$$$$
CACHE3HI_1690_20
  -OEChem-03092622523D

 42 45  0     1  0  0  0  0  0999 V2000
  -48.6473  -29.3716    3.3911 C   0  0  0  0  0  0  0  0  0  0  0  0
  -50.0342  -29.2082    3.4835 C   0  0  0  0  0  0  0  0  0  0  0  0
  -49.8818  -28.8288    5.8785 C   0  0  0  0  0  0  0  0  0  0  0  0
  -44.0900  -29.4202    6.0354 C   0  0  0  0  0  0  0  0  0  0  0  0
  -47.8597  -29.2625    4.5566 C   0  0  0  0  0  0  0  0  0  0  0  0
  -46.4631  -29.3672    4.8258 C   0  0  0  0  0  0  0  0  0  0  0  0
  -48.4956  -28.9949    5.7721 C   0  0  0  0  0  0  0  0  0  0  0  0
  -50.6401  -28.9411    4.7097 C   0  0  0  0  0  0  0  0  0  0  0  0
  -46.2905  -29.1605    6.1875 C   0  0  0  0  0  0  0  0  0  0  0  0
  -45.3083  -29.6129    4.0819 C   0  0  0  0  0  0  0  0  0  0  0  0
  -45.2832  -29.4558    0.4003 C   0  0  0  0  0  0  0  0  0  0  0  0
  -44.6935  -28.9979    1.7312 C   0  0  0  0  0  0  0  0  0  0  0  0
  -46.1150  -30.9248    2.1008 C   0  0  0  0  0  0  0  0  0  0  0  0
  -45.6461  -30.9220    0.6389 C   0  0  2  0  0  0  0  0  0  0  0  0
  -44.1125  -32.6161    1.6948 C   0  0  0  0  0  0  0  0  0  0  0  0
  -44.7625  -32.8483   -0.7199 C   0  0  0  0  0  0  0  0  0  0  0  0
  -44.4632  -31.8624    0.4108 C   0  0  0  0  0  0  0  0  0  0  0  0
  -45.1276  -29.1728    6.8612 N   0  0  0  0  0  0  0  0  0  0  0  0
  -44.1067  -29.6375    4.7021 N   0  0  0  0  0  0  0  0  0  0  0  0
  -47.5203  -28.9380    6.7431 N   0  0  0  0  0  0  0  0  0  0  0  0
  -45.3689  -29.8314    2.7215 N   0  0  3  0  0  0  0  0  0  0  0  0
  -46.7155  -31.3073   -0.2132 O   0  0  0  0  0  0  0  0  0  0  0  0
  -52.5184  -28.7259    4.7976 Br  0  0  0  0  0  0  0  0  0  0  0  0
  -48.1954  -29.5787    2.4255 H   0  0  0  0  0  0  0  0  0  0  0  0
  -50.6298  -29.2944    2.5775 H   0  0  0  0  0  0  0  0  0  0  0  0
  -50.3411  -28.6203    6.8398 H   0  0  0  0  0  0  0  0  0  0  0  0
  -43.1117  -29.4480    6.5028 H   0  0  0  0  0  0  0  0  0  0  0  0
  -46.1516  -28.8437    0.1240 H   0  0  0  0  0  0  0  0  0  0  0  0
  -44.5246  -29.3626   -0.3904 H   0  0  0  0  0  0  0  0  0  0  0  0
  -43.6030  -29.1280    1.7511 H   0  0  0  0  0  0  0  0  0  0  0  0
  -44.9207  -27.9403    1.9266 H   0  0  0  0  0  0  0  0  0  0  0  0
  -47.2006  -30.7625    2.1877 H   0  0  0  0  0  0  0  0  0  0  0  0
  -45.8570  -31.8642    2.6146 H   0  0  0  0  0  0  0  0  0  0  0  0
  -44.9571  -33.2294    2.0259 H   0  0  0  0  0  0  0  0  0  0  0  0
  -43.8674  -31.9202    2.5037 H   0  0  0  0  0  0  0  0  0  0  0  0
  -43.2521  -33.2773    1.5439 H   0  0  0  0  0  0  0  0  0  0  0  0
  -45.6288  -33.4728   -0.4772 H   0  0  0  0  0  0  0  0  0  0  0  0
  -44.9755  -32.3232   -1.6570 H   0  0  0  0  0  0  0  0  0  0  0  0
  -43.9085  -33.5116   -0.8897 H   0  0  0  0  0  0  0  0  0  0  0  0
  -43.5896  -31.2632    0.1179 H   0  0  0  0  0  0  0  0  0  0  0  0
  -47.6890  -28.7595    7.7234 H   0  0  0  0  0  0  0  0  0  0  0  0
  -47.4621  -30.7302    0.0068 H   0  0  0  0  0  0  0  0  0  0  0  0
  1  2  2  0  0  0  0
  1  5  1  0  0  0  0
  2  8  1  0  0  0  0
  3  7  1  0  0  0  0
  3  8  2  0  0  0  0
  4 18  2  0  0  0  0
  4 19  1  0  0  0  0
  5  6  1  0  0  0  0
  5  7  2  0  0  0  0
  6  9  2  0  0  0  0
  6 10  1  0  0  0  0
  7 20  1  0  0  0  0
  8 23  1  0  0  0  0
  9 18  1  0  0  0  0
  9 20  1  0  0  0  0
 10 19  2  0  0  0  0
 10 21  1  0  0  0  0
 11 12  1  0  0  0  0
 11 14  1  0  0  0  0
 12 21  1  0  0  0  0
 13 14  1  0  0  0  0
 13 21  1  0  0  0  0
 14 17  1  0  0  0  0
 14 22  1  0  0  0  0
 15 17  1  0  0  0  0
 16 17  1  0  0  0  0
  1 24  1  0  0  0  0
  2 25  1  0  0  0  0
  3 26  1  0  0  0  0
  4 27  1  0  0  0  0
 11 28  1  0  0  0  0
 11 29  1  0  0  0  0
 12 30  1  0  0  0  0
 12 31  1  0  0  0  0
 13 32  1  0  0  0  0
 13 33  1  0  0  0  0
 15 34  1  0  0  0  0
 15 35  1  0  0  0  0
 15 36  1  0  0  0  0
 16 37  1  0  0  0  0
 16 38  1  0  0  0  0
 16 39  1  0  0  0  0
 17 40  1  0  0  0  0
 20 41  1  0  0  0  0
 22 42  1  0  0  0  0
M  END
> <POSIT::Probability>
0.5

> <POSIT::Method>
HYBRID

> <ReceptorTitle>
UCSF-P4710-REFINED_LIGAND-BOUND-STATE_A__DU__LA1_A-201(A)

> <OMEGA_C>
2ZZCwhz56sE5B1lAByNIwmaq6cHX8V5A/oZHwnyh5sGaHLxAIVwwwpRc68GvIcFAUXA/wq4Z6sGU
z5FANdo5wu7v6sGxbJpAh/tBwpj158FBtbhAfY9KwmCH58E2tpZAhCk5wsNI6cFSAMZArzs1wjbn
7MFUn4JA9SE1wnal68HQ8Mw+JsYywrD758FUlt0/zHU4wgpm98HucwZAlpU2wjBg98GQkCM/K3Mw
wuN2AsKQ79g/zgwzwqlkA8LYSzi/T9oxwjzm/sGATtI+r4I0wuRh6cE+j9tAQW0wwp4Z7cHhd5ZA
whQ+whqB58Hcx9dAt3k1ws2m7sHHLS5Aqtw6wmh1+sGgTVq+4hJSwqPO5cEJhplAHshAwiqh7MGJ
OxtA5oRKwv5a6sEM9SRAVl1Jwl725MH639pAaXIswpeV68HMFtBARJs4wuq/5sFA/f09LRkywq/m
6sGQ3se+gmkuwhIG6cEcI+A/0a4zwsSF38HEm/Y/as08wowZ9sGyAwxAj203wtjp/sFFVSdACdQz
wvTqBMICqAFANHgvwnhc/8HWPCBALwItwusbBcI4n8U/4oM2wijkBcIgWfS+5uYzwvJKAcKIGdS/
SKIvwt4LBsKgwWO/wlsuwgAb+sEAd/E9gcE+woIT5sEAJvdAJdk9woDX9cEAGN87

> <OMEGA_E>
XHlIwQ==

> <OMEGA_NBR>
     18256

$$$$
CACHE3HI_1690_54
  -OEChem-03092622523D

 35 38  0     1  0  0  0  0  0999 V2000
  -42.0709  -28.1505    1.7678 C   0  0  0  0  0  0  0  0  0  0  0  0
  -43.0550  -28.7273    1.3538 C   0  0  0  0  0  0  0  0  0  0  0  0
  -48.4053  -29.4690    3.8227 C   0  0  0  0  0  0  0  0  0  0  0  0
  -49.8156  -29.4416    3.9388 C   0  0  0  0  0  0  0  0  0  0  0  0
  -49.6382  -29.0692    6.3587 C   0  0  0  0  0  0  0  0  0  0  0  0
  -43.6862  -29.0331    6.1787 C   0  0  0  0  0  0  0  0  0  0  0  0
  -47.6439  -29.2894    4.9939 C   0  0  0  0  0  0  0  0  0  0  0  0
  -46.1947  -29.2496    5.2029 C   0  0  0  0  0  0  0  0  0  0  0  0
  -48.2402  -29.0797    6.2425 C   0  0  0  0  0  0  0  0  0  0  0  0
  -50.4277  -29.2497    5.2041 C   0  0  0  0  0  0  0  0  0  0  0  0
  -45.9822  -28.9815    6.5565 C   0  0  0  0  0  0  0  0  0  0  0  0
  -45.0967  -29.4975    4.3520 C   0  0  0  0  0  0  0  0  0  0  0  0
  -45.3960  -29.0619    1.9040 C   0  0  0  0  0  0  0  0  0  0  0  0
  -44.3395  -31.1259    2.6000 C   0  0  0  0  0  0  0  0  0  0  0  0
  -44.2758  -29.4173    0.9248 C   0  0  2  0  0  0  0  0  0  0  0  0
  -44.1459  -30.9367    1.0995 C   0  0  2  0  0  0  0  0  0  0  0  0
  -44.7278  -28.8827    7.0350 N   0  0  0  0  0  0  0  0  0  0  0  0
  -43.8498  -29.3565    4.8693 N   0  0  0  0  0  0  0  0  0  0  0  0
  -47.2253  -28.9092    7.1801 N   0  0  0  0  0  0  0  0  0  0  0  0
  -45.2301  -29.9969    3.0597 N   0  0  1  0  0  0  0  0  0  0  0  0
  -45.1881  -31.6372    0.4161 O   0  0  0  0  0  0  0  0  0  0  0  0
  -52.3277  -29.2419    5.3664 Br  0  0  0  0  0  0  0  0  0  0  0  0
  -41.2113  -27.6467    2.1295 H   0  0  0  0  0  0  0  0  0  0  0  0
  -47.9280  -29.6227    2.8662 H   0  0  0  0  0  0  0  0  0  0  0  0
  -50.4293  -29.5675    3.0590 H   0  0  0  0  0  0  0  0  0  0  0  0
  -50.1048  -28.9246    7.3219 H   0  0  0  0  0  0  0  0  0  0  0  0
  -42.6838  -28.8894    6.5541 H   0  0  0  0  0  0  0  0  0  0  0  0
  -45.2983  -28.0181    2.2372 H   0  0  0  0  0  0  0  0  0  0  0  0
  -46.3791  -29.2055    1.4317 H   0  0  0  0  0  0  0  0  0  0  0  0
  -44.8184  -32.0952    2.8028 H   0  0  0  0  0  0  0  0  0  0  0  0
  -43.3699  -31.0807    3.1176 H   0  0  0  0  0  0  0  0  0  0  0  0
  -44.5552  -29.1605   -0.1077 H   0  0  0  0  0  0  0  0  0  0  0  0
  -43.1464  -31.2767    0.7907 H   0  0  0  0  0  0  0  0  0  0  0  0
  -47.3680  -28.7571    8.1581 H   0  0  0  0  0  0  0  0  0  0  0  0
  -45.0812  -31.5287   -0.5216 H   0  0  0  0  0  0  0  0  0  0  0  0
  1  2  3  0  0  0  0
  2 15  1  0  0  0  0
  3  4  2  0  0  0  0
  3  7  1  0  0  0  0
  4 10  1  0  0  0  0
  5  9  1  0  0  0  0
  5 10  2  0  0  0  0
  6 17  2  0  0  0  0
  6 18  1  0  0  0  0
  7  8  1  0  0  0  0
  7  9  2  0  0  0  0
  8 11  2  0  0  0  0
  8 12  1  0  0  0  0
  9 19  1  0  0  0  0
 10 22  1  0  0  0  0
 11 17  1  0  0  0  0
 11 19  1  0  0  0  0
 12 18  2  0  0  0  0
 12 20  1  0  0  0  0
 13 15  1  0  0  0  0
 13 20  1  0  0  0  0
 14 16  1  0  0  0  0
 14 20  1  0  0  0  0
 15 16  1  0  0  0  0
 16 21  1  0  0  0  0
  1 23  1  0  0  0  0
  3 24  1  0  0  0  0
  4 25  1  0  0  0  0
  5 26  1  0  0  0  0
  6 27  1  0  0  0  0
 13 28  1  0  0  0  0
 13 29  1  0  0  0  0
 14 30  1  0  0  0  0
 14 31  1  0  0  0  0
 15 32  1  0  0  0  0
 16 33  1  0  0  0  0
 19 34  1  0  0  0  0
 21 35  1  0  0  0  0
M  END
> <POSIT::Probability>
0.72

> <POSIT::Method>
SHAPEFIT

> <ReceptorTitle>
UCSF-P4710-REFINED_LIGAND-BOUND-STATE_A__DU__LA1_A-201(A)

> <OMEGA_C>
okgowlI04cEMR+I/RzgswpLR5cH8SK0//p5BwnDA68Gip3RALENHwmmI68HAFHxAe41Gws6N6MGl
estAsr4uwrVD6MGtt8VAT5M+wqhQ6sElzp9AX8c4wkD/6cEnfqZAAvZAwi+j6MFbwsdA8LVJwnH/
6cEjiKZAvu03wjXa58FzztFA+WI0wtr668FRQ4tAipU1wsh+6MHstvM/nlsxwtsB+cEiZyZAahox
wo5W68GovWw/Y5Uwwlp+98Fku4w/PukywtkP58EXH+FAKGYvwiza6sGv0ZtAtOY8whBG58ELw+VA
ous0wpz578Fe0kNApcA0wv0Y/cHADNU+k09Rwnjv6cFBuatAZNgkwmws3cHwSAhAP7Y/wk777MHJ
bzdAlLdJwkiK7MEMx0NARWtIwoFl58E1TepAObwqwmsd58HjutFAdzE1wiYl4MEjLg9AJoQ5wu6k
6cEfQ7c/EEYzwnlhAMKfYDNAwHotwi+l+MFChkdAfDgywqVI6cHilty94pUswrU2+sFCaUo/13g9
wosO5sFvhwJBKFM0wtw6/MGBhwW/

> <OMEGA_E>
1roiPw==

> <OMEGA_NBR>
     19487

$$$$
CACHE3HI_1690_63
  -OEChem-03092622523D

 34 36  0     1  0  0  0  0  0999 V2000
  -44.7042  -34.0114    0.3256 C   0  0  0  0  0  0  0  0  0  0  0  0
  -44.2435  -32.8980    0.4682 C   0  0  0  0  0  0  0  0  0  0  0  0
  -49.6402  -29.1123    6.2354 C   0  0  0  0  0  0  0  0  0  0  0  0
  -50.3864  -29.2350    5.0432 C   0  0  0  0  0  0  0  0  0  0  0  0
  -48.3185  -29.3216    3.7179 C   0  0  0  0  0  0  0  0  0  0  0  0
  -43.6791  -29.1221    6.2118 C   0  0  0  0  0  0  0  0  0  0  0  0
  -47.6025  -29.1783    4.9220 C   0  0  0  0  0  0  0  0  0  0  0  0
  -46.1652  -29.1331    5.1737 C   0  0  0  0  0  0  0  0  0  0  0  0
  -48.2371  -29.1025    6.1665 C   0  0  0  0  0  0  0  0  0  0  0  0
  -49.7309  -29.3567    3.7932 C   0  0  0  0  0  0  0  0  0  0  0  0
  -45.9840  -29.0965    6.5547 C   0  0  0  0  0  0  0  0  0  0  0  0
  -45.0589  -29.1018    4.3059 C   0  0  0  0  0  0  0  0  0  0  0  0
  -43.7209  -31.5458    0.6329 C   0  0  0  0  0  0  0  0  0  0  0  0
  -44.1713  -29.4509    1.9854 C   0  0  0  0  0  0  0  0  0  0  0  0
  -44.1674  -30.9930    1.9941 C   0  0  2  0  0  0  0  0  0  0  0  0
  -44.7371  -29.0865    7.0648 N   0  0  0  0  0  0  0  0  0  0  0  0
  -43.8190  -29.1148    4.8577 N   0  0  0  0  0  0  0  0  0  0  0  0
  -47.2462  -29.0487    7.1476 N   0  0  0  0  0  0  0  0  0  0  0  0
  -45.2141  -28.9921    2.9284 N   0  0  0  0  0  0  0  0  0  0  0  0
  -43.3026  -31.4866    3.0222 O   0  0  0  0  0  0  0  0  0  0  0  0
  -50.7674  -29.5977    2.2134 Br  0  0  0  0  0  0  0  0  0  0  0  0
  -45.1066  -34.9841    0.2010 H   0  0  0  0  0  0  0  0  0  0  0  0
  -50.1416  -29.0270    7.1881 H   0  0  0  0  0  0  0  0  0  0  0  0
  -51.4656  -29.2362    5.0845 H   0  0  0  0  0  0  0  0  0  0  0  0
  -47.8073  -29.4020    2.7700 H   0  0  0  0  0  0  0  0  0  0  0  0
  -42.6828  -29.1578    6.6271 H   0  0  0  0  0  0  0  0  0  0  0  0
  -42.6221  -31.5682    0.5877 H   0  0  0  0  0  0  0  0  0  0  0  0
  -44.1079  -30.9016   -0.1704 H   0  0  0  0  0  0  0  0  0  0  0  0
  -43.1882  -29.0732    2.3031 H   0  0  0  0  0  0  0  0  0  0  0  0
  -44.3955  -29.0837    0.9731 H   0  0  0  0  0  0  0  0  0  0  0  0
  -45.1956  -31.3358    2.1826 H   0  0  0  0  0  0  0  0  0  0  0  0
  -47.4159  -28.9852    8.1311 H   0  0  0  0  0  0  0  0  0  0  0  0
  -46.0436  -29.5010    2.6983 H   0  0  0  0  0  0  0  0  0  0  0  0
  -43.5812  -31.1431    3.8629 H   0  0  0  0  0  0  0  0  0  0  0  0
  1  2  3  0  0  0  0
  2 13  1  0  0  0  0
  3  4  2  0  0  0  0
  3  9  1  0  0  0  0
  4 10  1  0  0  0  0
  5  7  1  0  0  0  0
  5 10  2  0  0  0  0
  6 16  2  0  0  0  0
  6 17  1  0  0  0  0
  7  8  1  0  0  0  0
  7  9  2  0  0  0  0
  8 11  2  0  0  0  0
  8 12  1  0  0  0  0
  9 18  1  0  0  0  0
 10 21  1  0  0  0  0
 11 16  1  0  0  0  0
 11 18  1  0  0  0  0
 12 17  2  0  0  0  0
 12 19  1  0  0  0  0
 13 15  1  0  0  0  0
 14 15  1  0  0  0  0
 14 19  1  0  0  0  0
 15 20  1  0  0  0  0
  1 22  1  0  0  0  0
  3 23  1  0  0  0  0
  4 24  1  0  0  0  0
  5 25  1  0  0  0  0
  6 26  1  0  0  0  0
 13 27  1  0  0  0  0
 13 28  1  0  0  0  0
 14 29  1  0  0  0  0
 14 30  1  0  0  0  0
 15 31  1  0  0  0  0
 18 32  1  0  0  0  0
 19 33  1  0  0  0  0
 20 34  1  0  0  0  0
M  END
> <POSIT::Probability>
0.9

> <POSIT::Method>
SHAPEFIT

> <ReceptorTitle>
UCSF-P4710-REFINED_LIGAND-BOUND-STATE_A__DU__LA1_A-201(A)

> <OMEGA_C>
D9EywqULCMLQsqY+ZfkwwoyXA8KotO8+kI9Gwv3l6MECiMdAqotJwlvh6cEwYqFAKEZBwrWS6sGd
8m1AYbcuwhj66MHqxsZA9Gg+wjdt6cFYgZ1AMqk4wq8Q6cHwjqVAzvJAwvzR6MGUU8VAZOxGwnza
6sFJxHJAmO83wp3F6MFMwNFASjw0wnXQ6MGuyYlAQOIuwrZd/MF0ByI/Ya8wwnyb68GyIv4/d6sw
wrvx98EyPf8/1vIywiqx6MFyEuJAs0Yvwgnr6MH+cZtAKPw8wrJj6MFoueRAQNs0wtfv58HRajtA
1TUtwozk+8H3akFA0xFLwgPI7MFnqA1AIW00wrHvC8Ll1E0+/5BIwk436MHkBOZAx9xNwsHj6cE+
tKJArDo/wkY368FzRzFAKbsqwkND6cFDEdRACX0qwqCL/MHFcxY/gm4wwnU298F9eC6+uMAswgCW
6MG2ZhNA9JQxwlyr6MGiG3k/P8g0wqGv+sFGrwtA2ak9wpzh58H1GAJBqSw4wiAC7MHAsSxAG1Mu
wgAl+cH5OXdA

> <OMEGA_E>
yCTzPg==

> <OMEGA_NBR>
     20689

$$$$
CACHE3HI_1694_90
  -OEChem-03092622523D

 40 42  0     0  0  0  0  0  0999 V2000
  -43.5814  -32.3717   -0.9800 C   0  0  0  0  0  0  0  0  0  0  0  0
  -43.7304  -31.5730    0.1539 C   0  0  0  0  0  0  0  0  0  0  0  0
  -44.4544  -33.4367   -1.2017 C   0  0  0  0  0  0  0  0  0  0  0  0
  -45.6251  -32.9040    0.8439 C   0  0  0  0  0  0  0  0  0  0  0  0
  -44.7521  -31.8390    1.0656 C   0  0  0  0  0  0  0  0  0  0  0  0
  -45.4762  -33.7027   -0.2900 C   0  0  0  0  0  0  0  0  0  0  0  0
  -47.3660  -29.2504    4.4427 C   0  0  0  0  0  0  0  0  0  0  0  0
  -47.6433  -29.1042    5.7503 C   0  0  0  0  0  0  0  0  0  0  0  0
  -45.0948  -29.4817    4.7852 C   0  0  0  0  0  0  0  0  0  0  0  0
  -45.3098  -29.3213    6.2809 C   0  0  0  0  0  0  0  0  0  0  0  0
  -48.4531  -29.1997    3.3970 C   0  0  0  0  0  0  0  0  0  0  0  0
  -49.0287  -28.9098    6.2991 C   0  0  0  0  0  0  0  0  0  0  0  0
  -49.7771  -28.6316    3.9131 C   0  0  0  0  0  0  0  0  0  0  0  0
  -50.1257  -29.2138    5.2775 C   0  0  0  0  0  0  0  0  0  0  0  0
  -43.3551  -29.4252    3.0344 C   0  0  0  0  0  0  0  0  0  0  0  0
  -44.4907  -29.6964    2.0647 C   0  0  0  0  0  0  0  0  0  0  0  0
  -46.0966  -29.4416    3.9518 N   0  0  0  0  0  0  0  0  0  0  0  0
  -46.6191  -29.1397    6.6578 N   0  0  0  0  0  0  0  0  0  0  0  0
  -43.7981  -29.6680    4.3782 N   0  0  0  0  0  0  0  0  0  0  0  0
  -44.3459  -29.3624    7.0313 O   0  0  0  0  0  0  0  0  0  0  0  0
  -44.8973  -31.0541    2.1798 O   0  0  0  0  0  0  0  0  0  0  0  0
  -46.6599  -35.1448   -0.5922 Br  0  0  0  0  0  0  0  0  0  0  0  0
  -42.7868  -32.1633   -1.6903 H   0  0  0  0  0  0  0  0  0  0  0  0
  -43.0467  -30.7454    0.3219 H   0  0  0  0  0  0  0  0  0  0  0  0
  -44.3247  -34.0497   -2.0900 H   0  0  0  0  0  0  0  0  0  0  0  0
  -46.4184  -33.1029    1.5606 H   0  0  0  0  0  0  0  0  0  0  0  0
  -48.1237  -28.5926    2.5448 H   0  0  0  0  0  0  0  0  0  0  0  0
  -48.6175  -30.2173    3.0208 H   0  0  0  0  0  0  0  0  0  0  0  0
  -49.1836  -29.5482    7.1775 H   0  0  0  0  0  0  0  0  0  0  0  0
  -49.1268  -27.8701    6.6371 H   0  0  0  0  0  0  0  0  0  0  0  0
  -49.7051  -27.5391    3.9886 H   0  0  0  0  0  0  0  0  0  0  0  0
  -50.5761  -28.8493    3.1957 H   0  0  0  0  0  0  0  0  0  0  0  0
  -50.2547  -30.3001    5.1885 H   0  0  0  0  0  0  0  0  0  0  0  0
  -51.0810  -28.8075    5.6289 H   0  0  0  0  0  0  0  0  0  0  0  0
  -43.0291  -28.3831    2.9630 H   0  0  0  0  0  0  0  0  0  0  0  0
  -42.5027  -30.0814    2.8330 H   0  0  0  0  0  0  0  0  0  0  0  0
  -45.3537  -29.0524    2.2630 H   0  0  0  0  0  0  0  0  0  0  0  0
  -44.1525  -29.5313    1.0372 H   0  0  0  0  0  0  0  0  0  0  0  0
  -46.8393  -29.0274    7.6430 H   0  0  0  0  0  0  0  0  0  0  0  0
  -43.1396  -29.9868    5.0636 H   0  0  0  0  0  0  0  0  0  0  0  0
  1  2  1  0  0  0  0
  1  3  2  0  0  0  0
  2  5  2  0  0  0  0
  3  6  1  0  0  0  0
  4  5  1  0  0  0  0
  4  6  2  0  0  0  0
  5 21  1  0  0  0  0
  6 22  1  0  0  0  0
  7  8  2  0  0  0  0
  7 11  1  0  0  0  0
  7 17  1  0  0  0  0
  8 12  1  0  0  0  0
  8 18  1  0  0  0  0
  9 10  1  0  0  0  0
  9 17  2  0  0  0  0
  9 19  1  0  0  0  0
 10 18  1  0  0  0  0
 10 20  2  0  0  0  0
 11 13  1  0  0  0  0
 12 14  1  0  0  0  0
 13 14  1  0  0  0  0
 15 16  1  0  0  0  0
 15 19  1  0  0  0  0
 16 21  1  0  0  0  0
  1 23  1  0  0  0  0
  2 24  1  0  0  0  0
  3 25  1  0  0  0  0
  4 26  1  0  0  0  0
 11 27  1  0  0  0  0
 11 28  1  0  0  0  0
 12 29  1  0  0  0  0
 12 30  1  0  0  0  0
 13 31  1  0  0  0  0
 13 32  1  0  0  0  0
 14 33  1  0  0  0  0
 14 34  1  0  0  0  0
 15 35  1  0  0  0  0
 15 36  1  0  0  0  0
 16 37  1  0  0  0  0
 16 38  1  0  0  0  0
 18 39  1  0  0  0  0
 19 40  1  0  0  0  0
M  END
> <POSIT::Probability>
0.25

> <POSIT::Method>
FRED

> <ReceptorTitle>
UCSF-P4710-REFINED_LIGAND-BOUND-STATE_A__DU__LA1_A-201(A)

> <OMEGA_C>
Z1MuwqB8AcIQ3nq/6OsuwouV/MFAmR0+VtExwim/BcJs0Zm/I4A2wridA8JQB1g/MAIzwka2/sEI
Z4g/n+c1wofPBsIwdpS+x3Y9wr4A6sHUKo5At5I+wnDV6MEWArhAC2E0wnba68GlIJlAOT01whOS
6sGG/chA889BwvKY6cHmaFlAbB1EwkBH58GVkslAvhtHwnoN5cHwcHpAvIBIwuK16cFp4ahAmGst
wtxm68EoM0JAfPYxwkyS7cEqJARA6WI4wluI68GY6XxA+Hk6whge6cFhDNVANjEvwgxY7cEQGoxA
LWIxwhjm6sEYAOFA3JYzwslu+MEkgQtAu6M6wkKUDMLImhe/sSUrwj2nAMLYXNi/yS8swqX29cFA
z6Q+hEwxwtsyCML8wQXAfKw5wmBpBMJQw8c/s35AwrC95MF+3iJAU3hCwu688cHYVEFACrxEwrxi
7MG1reVA1YFEwg723sH9YtRAAdJGwhNQ3MGeRX9A4k1KwnfL5sEUhkxAywRJwoxm8sEcCKZA+lJM
ws915sGiH7RAyx0swq0Q48EEoj1AzgIqwrKm8MFAUDVAJ2o1wk5r6MHQ1BBANpwwwjRA7MEkwoQ/
a1s7wh846MEMk/RA9o4swvHk78GhCKJA

> <OMEGA_E>
SbEswQ==

> <OMEGA_NBR>
     21981

$$$$
CACHE3HI_1700_76
  -OEChem-03092622523D

 43 46  0     1  0  0  0  0  0999 V2000
  -48.9366  -28.7968    5.4108 C   0  0  0  0  0  0  0  0  0  0  0  0
  -47.7364  -28.9592    4.7418 C   0  0  0  0  0  0  0  0  0  0  0  0
  -53.3263  -28.8103    6.0461 C   0  0  0  0  0  0  0  0  0  0  0  0
  -52.4053  -28.7457    5.0266 C   0  0  0  0  0  0  0  0  0  0  0  0
  -51.5348  -29.6376    6.8447 C   0  0  0  0  0  0  0  0  0  0  0  0
  -50.0513  -29.4309    4.8998 C   0  0  0  0  0  0  0  0  0  0  0  0
  -47.7302  -29.7440    3.6063 C   0  0  0  0  0  0  0  0  0  0  0  0
  -41.6709  -30.5729    2.0074 C   0  0  0  0  0  0  0  0  0  0  0  0
  -42.6312  -28.3047    2.4325 C   0  0  0  0  0  0  0  0  0  0  0  0
  -42.7530  -30.8371    0.9491 C   0  0  0  0  0  0  0  0  0  0  0  0
  -43.7163  -28.5616    1.3753 C   0  0  0  0  0  0  0  0  0  0  0  0
  -43.8108  -30.2908    3.0160 C   0  0  0  0  0  0  0  0  0  0  0  0
  -42.4016  -29.6983    3.0399 C   0  0  0  0  0  0  0  0  0  0  0  0
  -43.9755  -30.0781    1.5079 C   0  0  0  0  0  0  0  0  0  0  0  0
  -46.2651  -30.9890    2.0166 C   0  0  0  0  0  0  0  0  0  0  0  0
  -45.2971  -30.5280    0.9246 C   0  0  1  0  0  0  0  0  0  0  0  0
  -52.7784  -29.3661    7.1746 N   0  0  0  0  0  0  0  0  0  0  0  0
  -50.0162  -30.1935    3.7863 N   0  0  0  0  0  0  0  0  0  0  0  0
  -48.8367  -30.3527    3.1288 N   0  0  0  0  0  0  0  0  0  0  0  0
  -51.2628  -29.2795    5.5533 N   0  0  0  0  0  0  0  0  0  0  0  0
  -46.5292  -29.9064    2.9374 N   0  0  0  0  0  0  0  0  0  0  0  0
  -45.8692  -29.4224    0.2238 O   0  0  0  0  0  0  0  0  0  0  0  0
  -48.9837  -28.1864    6.3067 H   0  0  0  0  0  0  0  0  0  0  0  0
  -46.8360  -28.4780    5.1098 H   0  0  0  0  0  0  0  0  0  0  0  0
  -54.3557  -28.4835    6.0237 H   0  0  0  0  0  0  0  0  0  0  0  0
  -52.4674  -28.3782    4.0112 H   0  0  0  0  0  0  0  0  0  0  0  0
  -50.7968  -30.0886    7.4952 H   0  0  0  0  0  0  0  0  0  0  0  0
  -41.3470  -31.5179    2.4580 H   0  0  0  0  0  0  0  0  0  0  0  0
  -40.7917  -30.0785    1.5824 H   0  0  0  0  0  0  0  0  0  0  0  0
  -41.7225  -27.8799    1.9947 H   0  0  0  0  0  0  0  0  0  0  0  0
  -43.0039  -27.6071    3.1910 H   0  0  0  0  0  0  0  0  0  0  0  0
  -42.4520  -30.4772   -0.0403 H   0  0  0  0  0  0  0  0  0  0  0  0
  -42.9463  -31.9136    0.8723 H   0  0  0  0  0  0  0  0  0  0  0  0
  -44.6131  -27.9767    1.6103 H   0  0  0  0  0  0  0  0  0  0  0  0
  -43.3811  -28.2804    0.3715 H   0  0  0  0  0  0  0  0  0  0  0  0
  -43.8402  -31.3450    3.3125 H   0  0  0  0  0  0  0  0  0  0  0  0
  -44.5281  -29.7214    3.6169 H   0  0  0  0  0  0  0  0  0  0  0  0
  -41.9152  -29.6756    4.0170 H   0  0  0  0  0  0  0  0  0  0  0  0
  -45.8432  -31.8295    2.5773 H   0  0  0  0  0  0  0  0  0  0  0  0
  -47.2134  -31.3108    1.5756 H   0  0  0  0  0  0  0  0  0  0  0  0
  -45.1271  -31.3313    0.1948 H   0  0  0  0  0  0  0  0  0  0  0  0
  -45.7927  -29.2303    3.1011 H   0  0  0  0  0  0  0  0  0  0  0  0
  -45.9880  -28.7174    0.8774 H   0  0  0  0  0  0  0  0  0  0  0  0
  1  2  1  0  0  0  0
  1  6  2  0  0  0  0
  2  7  2  0  0  0  0
  3  4  2  0  0  0  0
  3 17  1  0  0  0  0
  4 20  1  0  0  0  0
  5 17  2  0  0  0  0
  5 20  1  0  0  0  0
  6 18  1  0  0  0  0
  6 20  1  0  0  0  0
  7 19  1  0  0  0  0
  7 21  1  0  0  0  0
  8 10  1  0  0  0  0
  8 13  1  0  0  0  0
  9 11  1  0  0  0  0
  9 13  1  0  0  0  0
 10 14  1  0  0  0  0
 11 14  1  0  0  0  0
 12 13  1  0  0  0  0
 12 14  1  0  0  0  0
 14 16  1  0  0  0  0
 15 16  1  0  0  0  0
 15 21  1  0  0  0  0
 16 22  1  0  0  0  0
 18 19  2  0  0  0  0
  1 23  1  0  0  0  0
  2 24  1  0  0  0  0
  3 25  1  0  0  0  0
  4 26  1  0  0  0  0
  5 27  1  0  0  0  0
  8 28  1  0  0  0  0
  8 29  1  0  0  0  0
  9 30  1  0  0  0  0
  9 31  1  0  0  0  0
 10 32  1  0  0  0  0
 10 33  1  0  0  0  0
 11 34  1  0  0  0  0
 11 35  1  0  0  0  0
 12 36  1  0  0  0  0
 12 37  1  0  0  0  0
 13 38  1  0  0  0  0
 15 39  1  0  0  0  0
 15 40  1  0  0  0  0
 16 41  1  0  0  0  0
 21 42  1  0  0  0  0
 22 43  1  0  0  0  0
M  END
> <POSIT::Probability>
0.24

> <POSIT::Method>
FRED

> <ReceptorTitle>
UCSF-P4710-REFINED_LIGAND-BOUND-STATE_A__DU__LA1_A-201(A)

> <OMEGA_C>
IL9Dwuhf5sFuJa1ACfI+wlys58EYvZdAF05Vwn975sH8ecFAAp9Rwjn35cGU2aBAnCNOwuAZ7cHc
B9tAgTRIwpFy68Eoy5xAv+s+wq7z7cE0zmZADa8mwkuV9MFQeQBAXIYqwh1w4sHsrRtADgMrwnSy
9sEg+HI/g90uwjh+5MGQCrA/QD4vwqJT8sFcBUFAMpspwjiW7cGAjkJA4uYvwumf8MEIBME/cg85
wnHp98GwDwFAMzA1wl859MGws2w/Ex1TwrTt6sGKluVAlBBIwk6M8cEYU3JAz1hDwlLS8sGAPkhA
IQ1NwnY86sF2tLFA7x06wmRA78GY/TtABno3wh9h68HAL2U+T+9Dws994cFQ0MlAClg7wgnT48Gc
g6NANWxZwkXe48HGwcBAl95RwoIG48GGW4BA8y9LwmK18MFG2O9AWmMlwrUk/MGETx1Aryojwtig
8MHYiso/z+MmwiMK38E4Uf8/BwQswlbb3MEAOkxAzs4pwjjR88EALiW9/8grwh5P/8HATV8/2HMy
wlHQ38EQHs4/Q4Ytwik+4sFgOL4+UVwvwo3C+sFgAFRA0hwywlbF7cHQe2dAJqknwrBn7cFui4BA
dl83wuui/sHw8SRAgto8woN8+sHQq8k/JII0wmim+sEAgEc+tSs3wqTX6cFYeEZAqvM3wiK95cEQ
mmA/

> <OMEGA_E>
McXTwA==

> <OMEGA_NBR>
     23337

$$$$
CACHE3HI_1707_1
  -OEChem-03092622523D

 42 44  0     1  0  0  0  0  0999 V2000
  -45.2744  -35.5444   -2.9508 C   0  0  0  0  0  0  0  0  0  0  0  0
  -44.8939  -34.2668   -3.3615 C   0  0  0  0  0  0  0  0  0  0  0  0
  -45.2039  -35.8926   -1.6020 C   0  0  0  0  0  0  0  0  0  0  0  0
  -44.4434  -33.3375   -2.4238 C   0  0  0  0  0  0  0  0  0  0  0  0
  -44.7533  -34.9633   -0.6643 C   0  0  0  0  0  0  0  0  0  0  0  0
  -47.9824  -28.8904    5.0485 C   0  0  0  0  0  0  0  0  0  0  0  0
  -49.1145  -30.2517    3.4045 C   0  0  0  0  0  0  0  0  0  0  0  0
  -46.7893  -29.0269    4.3389 C   0  0  0  0  0  0  0  0  0  0  0  0
  -47.9214  -30.3882    2.6949 C   0  0  0  0  0  0  0  0  0  0  0  0
  -44.3729  -33.6857   -1.0749 C   0  0  0  0  0  0  0  0  0  0  0  0
  -49.1451  -29.5029    4.5810 C   0  0  0  0  0  0  0  0  0  0  0  0
  -46.7587  -29.7758    3.1624 C   0  0  0  0  0  0  0  0  0  0  0  0
  -43.9078  -32.7257   -0.1069 C   0  0  0  0  0  0  0  0  0  0  0  0
  -43.4117  -32.0970    1.8867 C   0  0  0  0  0  0  0  0  0  0  0  0
  -50.4211  -29.3572    5.3391 C   0  0  0  0  0  0  0  0  0  0  0  0
  -42.7021  -29.7848    1.2979 C   0  0  0  0  0  0  0  0  0  0  0  0
  -44.6631  -28.8289    2.5549 C   0  0  0  0  0  0  0  0  0  0  0  0
  -43.8442  -28.7707    1.2700 C   0  0  1  0  0  0  0  0  0  0  0  0
  -43.5153  -31.5057   -0.2882 N   0  0  0  0  0  0  0  0  0  0  0  0
  -43.1997  -31.1013    0.9686 N   0  0  0  0  0  0  0  0  0  0  0  0
  -43.2378  -32.0872    3.0948 O   0  0  0  0  0  0  0  0  0  0  0  0
  -43.8787  -33.1666    1.1747 O   0  0  0  0  0  0  0  0  0  0  0  0
  -43.2978  -27.4551    1.1617 O   0  0  0  0  0  0  0  0  0  0  0  0
  -45.5871  -29.9095    2.4662 O   0  0  0  0  0  0  0  0  0  0  0  0
  -45.6251  -36.2677   -3.6810 H   0  0  0  0  0  0  0  0  0  0  0  0
  -44.9483  -33.9950   -4.4117 H   0  0  0  0  0  0  0  0  0  0  0  0
  -45.4988  -36.8876   -1.2815 H   0  0  0  0  0  0  0  0  0  0  0  0
  -44.1498  -32.3449   -2.7558 H   0  0  0  0  0  0  0  0  0  0  0  0
  -44.7025  -35.2459    0.3842 H   0  0  0  0  0  0  0  0  0  0  0  0
  -47.9966  -28.3052    5.9641 H   0  0  0  0  0  0  0  0  0  0  0  0
  -50.0157  -30.7323    3.0330 H   0  0  0  0  0  0  0  0  0  0  0  0
  -45.8866  -28.5475    4.7078 H   0  0  0  0  0  0  0  0  0  0  0  0
  -47.9041  -30.9727    1.7791 H   0  0  0  0  0  0  0  0  0  0  0  0
  -50.9875  -28.4791    5.0022 H   0  0  0  0  0  0  0  0  0  0  0  0
  -50.2335  -29.2216    6.4125 H   0  0  0  0  0  0  0  0  0  0  0  0
  -51.0483  -30.2473    5.2058 H   0  0  0  0  0  0  0  0  0  0  0  0
  -41.9284  -29.5127    0.5724 H   0  0  0  0  0  0  0  0  0  0  0  0
  -42.2439  -29.8261    2.2916 H   0  0  0  0  0  0  0  0  0  0  0  0
  -45.2368  -27.9077    2.7022 H   0  0  0  0  0  0  0  0  0  0  0  0
  -44.0214  -29.0032    3.4247 H   0  0  0  0  0  0  0  0  0  0  0  0
  -44.4967  -28.9244    0.4028 H   0  0  0  0  0  0  0  0  0  0  0  0
  -42.7359  -27.3284    1.9405 H   0  0  0  0  0  0  0  0  0  0  0  0
  1  2  1  0  0  0  0
  1  3  2  0  0  0  0
  2  4  2  0  0  0  0
  3  5  1  0  0  0  0
  4 10  1  0  0  0  0
  5 10  2  0  0  0  0
  6  8  2  0  0  0  0
  6 11  1  0  0  0  0
  7  9  1  0  0  0  0
  7 11  2  0  0  0  0
  8 12  1  0  0  0  0
  9 12  2  0  0  0  0
 10 13  1  0  0  0  0
 11 15  1  0  0  0  0
 12 24  1  0  0  0  0
 13 19  2  0  0  0  0
 13 22  1  0  0  0  0
 14 20  1  0  0  0  0
 14 21  2  0  0  0  0
 14 22  1  0  0  0  0
 16 18  1  0  0  0  0
 16 20  1  0  0  0  0
 17 18  1  0  0  0  0
 17 24  1  0  0  0  0
 18 23  1  0  0  0  0
 19 20  1  0  0  0  0
  1 25  1  0  0  0  0
  2 26  1  0  0  0  0
  3 27  1  0  0  0  0
  4 28  1  0  0  0  0
  5 29  1  0  0  0  0
  6 30  1  0  0  0  0
  7 31  1  0  0  0  0
  8 32  1  0  0  0  0
  9 33  1  0  0  0  0
 15 34  1  0  0  0  0
 15 35  1  0  0  0  0
 15 36  1  0  0  0  0
 16 37  1  0  0  0  0
 16 38  1  0  0  0  0
 17 39  1  0  0  0  0
 17 40  1  0  0  0  0
 18 41  1  0  0  0  0
 23 42  1  0  0  0  0
M  END
> <POSIT::Probability>
0.24

> <POSIT::Method>
FRED

> <ReceptorTitle>
UCSF-P4710-REFINED_LIGAND-BOUND-STATE_A__DU__LA1_A-201(A)

> <OMEGA_C>
8hg1wnEtDsJw2jzAY5MzwioRCcJnI1fAwdA0wgGSD8LKD82/CMYxwpRZBcK6HhvAZgMzwmvaC8Lk
DCq//u0/wp4f58E6jaFAR3VEwoMD8sHg4llANSg7whU36MF42IpAjq8/wgIb88FheSxA2H0xwi2+
BsLWlom/mJREwtcF7MG5l5JA5Qg7wsI07sFgZEpAlKEvwiPnAsKg7dq9jqUtwkpjAMKrfvE/Lq9J
wo/b6sEM2qpA+M4qwjZH7sGlIKY/AqcywpSh5sFSgyNAdmAvwmQq5sG4kKI/sg8uwqgL/MGwkJO+
hcwswozP+MH093c/gfMswkRZAMKCEUZAzIMvwpmqBMIiXZY/+TAtwvOj28Fzs5Q/KFk2wppG78GP
1h1AE4A2whwSEcIOlmvAA8szwtb6B8JlLI3Av/41wu+ME8KsCaS/bJkwwjZhAcJoXzDAVs8ywtX7
DMIEusQ+kPw/wgRx4sHG2b5AFxBIwtnb9cHDHEJA34s3wjNh5MFsppZAyJ0/whbI98FzueM/L/NL
wivV48GyEaBAFe9IwuXF6cGRM81AgjFMwmP68cGolaZAqLYnwgga7MHoiRI/wfkowu6b7sETqhJA
fPI0wvNC38FV8CxA3hUwwowG6MG9LltAnfwxwixl58HEOs4+lfEqwoyg2sE3Yvg/

> <OMEGA_E>
fuAGwQ==

> <OMEGA_NBR>
     24669

$$$$
CACHE3HI_1708_10
  -OEChem-03092622523D

 38 40  0     1  0  0  0  0  0999 V2000
  -47.9505  -30.4446    1.8682 C   0  0  0  0  0  0  0  0  0  0  0  0
  -46.5620  -30.3853    1.7357 C   0  0  0  0  0  0  0  0  0  0  0  0
  -44.0939  -32.1316    0.6270 C   0  0  0  0  0  0  0  0  0  0  0  0
  -46.3385  -29.3785    3.9486 C   0  0  0  0  0  0  0  0  0  0  0  0
  -44.0498  -33.0333    1.7073 C   0  0  0  0  0  0  0  0  0  0  0  0
  -43.2134  -31.1364    0.9752 C   0  0  0  0  0  0  0  0  0  0  0  0
  -48.4928  -29.9657    3.0442 C   0  0  0  0  0  0  0  0  0  0  0  0
  -47.7130  -29.4391    4.0749 C   0  0  0  0  0  0  0  0  0  0  0  0
  -45.7626  -29.8573    2.7667 C   0  0  0  0  0  0  0  0  0  0  0  0
  -49.9002  -29.9025    3.4521 C   0  0  0  0  0  0  0  0  0  0  0  0
  -48.5751  -29.0043    5.2107 C   0  0  0  0  0  0  0  0  0  0  0  0
  -51.0888  -29.0786    5.5177 C   0  0  0  0  0  0  0  0  0  0  0  0
  -41.7033  -30.7154    3.0076 C   0  0  0  0  0  0  0  0  0  0  0  0
  -43.6506  -29.2667    3.6876 C   0  0  0  0  0  0  0  0  0  0  0  0
  -42.1719  -29.2885    3.3105 C   0  0  1  0  0  0  0  0  0  0  0  0
  -43.2080  -32.6454    2.6689 N   0  0  0  0  0  0  0  0  0  0  0  0
  -42.7148  -31.4888    2.1948 N   0  0  0  0  0  0  0  0  0  0  0  0
  -49.9082  -29.3354    4.7216 N   0  0  0  0  0  0  0  0  0  0  0  0
  -50.8275  -30.2884    2.7643 O   0  0  0  0  0  0  0  0  0  0  0  0
  -41.4180  -28.7878    4.4165 O   0  0  0  0  0  0  0  0  0  0  0  0
  -44.4092  -29.8120    2.6101 O   0  0  0  0  0  0  0  0  0  0  0  0
  -48.5680  -30.8508    1.0756 H   0  0  0  0  0  0  0  0  0  0  0  0
  -46.0967  -30.7525    0.8242 H   0  0  0  0  0  0  0  0  0  0  0  0
  -44.6817  -32.1932   -0.2770 H   0  0  0  0  0  0  0  0  0  0  0  0
  -45.7225  -28.9711    4.7435 H   0  0  0  0  0  0  0  0  0  0  0  0
  -44.5959  -33.9573    1.8333 H   0  0  0  0  0  0  0  0  0  0  0  0
  -42.9086  -30.2295    0.4715 H   0  0  0  0  0  0  0  0  0  0  0  0
  -48.3735  -29.5746    6.1216 H   0  0  0  0  0  0  0  0  0  0  0  0
  -48.5126  -27.9266    5.3850 H   0  0  0  0  0  0  0  0  0  0  0  0
  -51.3242  -29.9423    6.1461 H   0  0  0  0  0  0  0  0  0  0  0  0
  -50.9285  -28.2093    6.1617 H   0  0  0  0  0  0  0  0  0  0  0  0
  -51.9445  -28.8731    4.8687 H   0  0  0  0  0  0  0  0  0  0  0  0
  -41.5045  -31.2571    3.9417 H   0  0  0  0  0  0  0  0  0  0  0  0
  -40.7572  -30.6974    2.4512 H   0  0  0  0  0  0  0  0  0  0  0  0
  -43.8410  -29.8775    4.5763 H   0  0  0  0  0  0  0  0  0  0  0  0
  -43.9985  -28.2440    3.8641 H   0  0  0  0  0  0  0  0  0  0  0  0
  -41.9896  -28.6193    2.4610 H   0  0  0  0  0  0  0  0  0  0  0  0
  -40.4892  -28.8049    4.1427 H   0  0  0  0  0  0  0  0  0  0  0  0
  1  2  2  0  0  0  0
  1  7  1  0  0  0  0
  2  9  1  0  0  0  0
  3  5  1  0  0  0  0
  3  6  2  0  0  0  0
  4  8  1  0  0  0  0
  4  9  2  0  0  0  0
  5 16  2  0  0  0  0
  6 17  1  0  0  0  0
  7  8  2  0  0  0  0
  7 10  1  0  0  0  0
  8 11  1  0  0  0  0
  9 21  1  0  0  0  0
 10 18  1  0  0  0  0
 10 19  2  0  0  0  0
 11 18  1  0  0  0  0
 12 18  1  0  0  0  0
 13 15  1  0  0  0  0
 13 17  1  0  0  0  0
 14 15  1  0  0  0  0
 14 21  1  0  0  0  0
 15 20  1  0  0  0  0
 16 17  1  0  0  0  0
  1 22  1  0  0  0  0
  2 23  1  0  0  0  0
  3 24  1  0  0  0  0
  4 25  1  0  0  0  0
  5 26  1  0  0  0  0
  6 27  1  0  0  0  0
 11 28  1  0  0  0  0
 11 29  1  0  0  0  0
 12 30  1  0  0  0  0
 12 31  1  0  0  0  0
 12 32  1  0  0  0  0
 13 33  1  0  0  0  0
 13 34  1  0  0  0  0
 14 35  1  0  0  0  0
 14 36  1  0  0  0  0
 15 37  1  0  0  0  0
 20 38  1  0  0  0  0
M  END
> <POSIT::Probability>
0.24

> <POSIT::Method>
FRED

> <ReceptorTitle>
UCSF-P4710-REFINED_LIGAND-BOUND-STATE_A__DU__LA1_A-201(A)

> <OMEGA_C>
Rc0/woaO88G3IO8/gz86wioV88EFKt4/L2AwwsKGAMLigyA/lVo5wkIH68HatXxA9jIwwhEiBMJv
h9o/hNoswk8X+cFiqXk/pPhBwtK578Ee1EJAHdo+wlGD68GvZYJA2gw3wqnb7sGcETFA05lHwkg4
78Hw7lxA7kxCws4I6MHdvaZA5lpMwu+g6MHrkLBAK9Amwia59cHAe0BAQ5ouwhwi6sE0AmxAEbAo
wsdO6sEI31NAAdUswuaUAsIK0CpA9dsqwvfo+8E4eAxACqJHwteu6sEnF5dAXE9LwqNO8sE06jBA
DKwlwnxN5sFGVI1AAaMxwvB+7sF4DCdAoUVCwl/O9sHNrok/+mI4wiMF9sFi/FI/CboywtXFAMJs
zo2+3uM2wsfE58GbypdAM2IywjrUB8LHquo/YqIrwv3V8cG8Z/E+cX5BwtGY7MEV5MNA4AxCwrtp
38E3UqxA9ktNwuKJ78EurcRAybZLwq6s4cGELMVAL8dPwgL85sEezJtAnQQmwocO+sEaRXxAVgcj
wmCU9cGy3xxAOl0vwggF78FQcZJAfP4vwrnz4cEYTXdAYfUnwlr05MFZgB1A6/QhwnZw5sHLkIRA

> <OMEGA_E>
cMoJwQ==

> <OMEGA_NBR>
     25922

$$$$
CACHE3HI_1708_4
  -OEChem-03092622523D

 39 41  0     1  0  0  0  0  0999 V2000
  -51.7207  -29.6310    5.5279 C   0  0  0  0  0  0  0  0  0  0  0  0
  -51.5529  -30.0986    4.2245 C   0  0  0  0  0  0  0  0  0  0  0  0
  -50.6410  -29.0732    6.2125 C   0  0  0  0  0  0  0  0  0  0  0  0
  -50.3060  -30.0082    3.6056 C   0  0  0  0  0  0  0  0  0  0  0  0
  -49.3940  -28.9828    5.5936 C   0  0  0  0  0  0  0  0  0  0  0  0
  -46.7692  -29.4135    4.4155 C   0  0  0  0  0  0  0  0  0  0  0  0
  -47.8499  -29.2119    2.2640 C   0  0  0  0  0  0  0  0  0  0  0  0
  -45.5222  -29.3246    3.7967 C   0  0  0  0  0  0  0  0  0  0  0  0
  -46.6030  -29.1230    1.6452 C   0  0  0  0  0  0  0  0  0  0  0  0
  -44.1551  -33.1893    1.7156 C   0  0  0  0  0  0  0  0  0  0  0  0
  -43.4249  -31.5905    0.5897 C   0  0  0  0  0  0  0  0  0  0  0  0
  -49.2263  -29.4504    4.2902 C   0  0  0  0  0  0  0  0  0  0  0  0
  -47.9330  -29.3570    3.6489 C   0  0  0  0  0  0  0  0  0  0  0  0
  -45.4390  -29.1795    2.4118 C   0  0  0  0  0  0  0  0  0  0  0  0
  -41.8180  -30.6348    2.3672 C   0  0  0  0  0  0  0  0  0  0  0  0
  -43.1615  -28.5115    2.5665 C   0  0  0  0  0  0  0  0  0  0  0  0
  -42.4374  -29.6168    3.3303 C   0  0  2  0  0  0  0  0  0  0  0  0
  -44.2676  -32.5922    0.4925 N   0  0  0  0  0  0  0  0  0  0  0  0
  -43.2957  -32.6196    2.5630 N   0  0  0  0  0  0  0  0  0  0  0  0
  -42.8428  -31.5995    1.8187 N   0  0  0  0  0  0  0  0  0  0  0  0
  -41.3891  -29.0215    4.0978 O   0  0  0  0  0  0  0  0  0  0  0  0
  -44.2142  -29.0925    1.8045 O   0  0  0  0  0  0  0  0  0  0  0  0
  -52.6912  -29.7017    6.0101 H   0  0  0  0  0  0  0  0  0  0  0  0
  -52.3938  -30.5322    3.6912 H   0  0  0  0  0  0  0  0  0  0  0  0
  -50.7714  -28.7093    7.2274 H   0  0  0  0  0  0  0  0  0  0  0  0
  -50.1915  -30.3779    2.5894 H   0  0  0  0  0  0  0  0  0  0  0  0
  -48.5623  -28.5448    6.1402 H   0  0  0  0  0  0  0  0  0  0  0  0
  -46.8173  -29.5264    5.4957 H   0  0  0  0  0  0  0  0  0  0  0  0
  -48.7483  -29.1660    1.6528 H   0  0  0  0  0  0  0  0  0  0  0  0
  -44.6186  -29.3695    4.3986 H   0  0  0  0  0  0  0  0  0  0  0  0
  -46.5445  -29.0092    0.5661 H   0  0  0  0  0  0  0  0  0  0  0  0
  -44.7184  -34.0663    1.9976 H   0  0  0  0  0  0  0  0  0  0  0  0
  -43.2065  -30.8543   -0.1710 H   0  0  0  0  0  0  0  0  0  0  0  0
  -41.0253  -31.2027    2.8719 H   0  0  0  0  0  0  0  0  0  0  0  0
  -41.3424  -30.1214    1.5215 H   0  0  0  0  0  0  0  0  0  0  0  0
  -43.6053  -27.7823    3.2525 H   0  0  0  0  0  0  0  0  0  0  0  0
  -42.4846  -27.9999    1.8752 H   0  0  0  0  0  0  0  0  0  0  0  0
  -43.1244  -30.1004    4.0351 H   0  0  0  0  0  0  0  0  0  0  0  0
  -40.7964  -28.5932    3.4628 H   0  0  0  0  0  0  0  0  0  0  0  0
  1  2  1  0  0  0  0
  1  3  2  0  0  0  0
  2  4  2  0  0  0  0
  3  5  1  0  0  0  0
  4 12  1  0  0  0  0
  5 12  2  0  0  0  0
  6  8  2  0  0  0  0
  6 13  1  0  0  0  0
  7  9  1  0  0  0  0
  7 13  2  0  0  0  0
  8 14  1  0  0  0  0
  9 14  2  0  0  0  0
 10 18  1  0  0  0  0
 10 19  2  0  0  0  0
 11 18  2  0  0  0  0
 11 20  1  0  0  0  0
 12 13  1  0  0  0  0
 14 22  1  0  0  0  0
 15 17  1  0  0  0  0
 15 20  1  0  0  0  0
 16 17  1  0  0  0  0
 16 22  1  0  0  0  0
 17 21  1  0  0  0  0
 19 20  1  0  0  0  0
  1 23  1  0  0  0  0
  2 24  1  0  0  0  0
  3 25  1  0  0  0  0
  4 26  1  0  0  0  0
  5 27  1  0  0  0  0
  6 28  1  0  0  0  0
  7 29  1  0  0  0  0
  8 30  1  0  0  0  0
  9 31  1  0  0  0  0
 10 32  1  0  0  0  0
 11 33  1  0  0  0  0
 15 34  1  0  0  0  0
 15 35  1  0  0  0  0
 16 36  1  0  0  0  0
 16 37  1  0  0  0  0
 17 38  1  0  0  0  0
 21 39  1  0  0  0  0
M  END
> <POSIT::Probability>
0.18

> <POSIT::Method>
FRED

> <ReceptorTitle>
UCSF-P4710-REFINED_LIGAND-BOUND-STATE_A__DU__LA1_A-201(A)

> <OMEGA_C>
8+FOwjQM7cHo5LBAODZOwtvJ8ME3L4dAWpBKwteV6MGbzMZAYDlJwsAQ8MGuwmZAgZNFwrzc58G8
/rJAnhM7wtRO68GbS41ASWY/wuax6cEa5RBAthY2wsiY6sGi/XJAcGk6wtr76MHMltI/zJ4wwtfB
BMK0mds/FLMtwj+5/MHI+BY/v+dEwlaa68FxSYlAb7s/whDb6sHRh2lAj8E1wp9v6cHuWhpAn0Un
whwU9cF1gBdAbaUswowX5MH0QSRA5r8pwiTv7MHoIlVA+hExwmteAsLwJPw+2C4twoR6AsLEByRA
+l4rwt7L/MHQyeg/eI4lwhks6MGCIYNAYNswwmm96MHs+uY/wcNSwiCd7cGmUsBASZNRwvFB9MFY
PGxA4BVLwqus5cF2RudAGMRIwggG88EGuCVAyD9Cwqxb5MEgfMRA9EQ7wio27MHw3K9APf5CwgxU
6cGYj9M/dHkywsf06sFEwYxAhi06wtUS6MEg7xA/nd8ywt1DCMKSsv8/etMswrDV9sFwEi++3Rkk
whqf+cEbzTdAq14lwpP48MFqv8I/1WsuwjdC3sFwKFBAO/Apws3/38F0BfA/bH8swojN8MGzH4FA
hi8jwvi+5MFxnl1A

> <OMEGA_E>
y/cWwQ==

> <OMEGA_NBR>
     27193

$$$$
CACHE3HI_1708_96
  -OEChem-03092622523D

 32 33  0     1  0  0  0  0  0999 V2000
  -48.4720  -27.9848    5.5882 C   0  0  0  0  0  0  0  0  0  0  0  0
  -48.2897  -28.1971    4.2296 C   0  0  0  0  0  0  0  0  0  0  0  0
  -47.4348  -28.2669    6.4741 C   0  0  0  0  0  0  0  0  0  0  0  0
  -47.0699  -28.6911    3.7701 C   0  0  0  0  0  0  0  0  0  0  0  0
  -44.0667  -29.4998    6.4115 C   0  0  0  0  0  0  0  0  0  0  0  0
  -46.2122  -28.7603    6.0250 C   0  0  0  0  0  0  0  0  0  0  0  0
  -46.0263  -28.9762    4.6472 C   0  0  0  0  0  0  0  0  0  0  0  0
  -43.8847  -29.7106    5.0702 C   0  0  0  0  0  0  0  0  0  0  0  0
  -44.4618  -29.4796    1.2225 C   0  0  0  0  0  0  0  0  0  0  0  0
  -42.1906  -30.0814    3.2768 C   0  0  0  0  0  0  0  0  0  0  0  0
  -42.6464  -30.9487    0.9575 C   0  0  0  0  0  0  0  0  0  0  0  0
  -42.6701  -31.2712    2.4475 C   0  0  2  0  0  0  0  0  0  0  0  0
  -45.2262  -29.0252    6.8996 N   0  0  0  0  0  0  0  0  0  0  0  0
  -44.8589  -29.4512    4.1789 N   0  0  0  0  0  0  0  0  0  0  0  0
  -42.6415  -30.2110    4.6269 N   0  0  0  0  0  0  0  0  0  0  0  0
  -44.0196  -31.5758    2.8042 O   0  0  0  0  0  0  0  0  0  0  0  0
  -43.1257  -29.6214    0.7636 O   0  0  0  0  0  0  0  0  0  0  0  0
  -49.4173  -27.6017    5.9603 H   0  0  0  0  0  0  0  0  0  0  0  0
  -49.0907  -27.9819    3.5290 H   0  0  0  0  0  0  0  0  0  0  0  0
  -47.5922  -28.0951    7.5371 H   0  0  0  0  0  0  0  0  0  0  0  0
  -46.9401  -28.8543    2.7020 H   0  0  0  0  0  0  0  0  0  0  0  0
  -43.2971  -29.7018    7.1472 H   0  0  0  0  0  0  0  0  0  0  0  0
  -44.7974  -28.4522    1.0592 H   0  0  0  0  0  0  0  0  0  0  0  0
  -45.1045  -30.1638    0.6632 H   0  0  0  0  0  0  0  0  0  0  0  0
  -44.5107  -29.7253    2.2858 H   0  0  0  0  0  0  0  0  0  0  0  0
  -41.0968  -30.0290    3.2778 H   0  0  0  0  0  0  0  0  0  0  0  0
  -42.5805  -29.1424    2.8701 H   0  0  0  0  0  0  0  0  0  0  0  0
  -43.2967  -31.6263    0.3941 H   0  0  0  0  0  0  0  0  0  0  0  0
  -41.6284  -31.0024    0.5579 H   0  0  0  0  0  0  0  0  0  0  0  0
  -42.0706  -32.1671    2.6465 H   0  0  0  0  0  0  0  0  0  0  0  0
  -42.0708  -30.6730    5.3086 H   0  0  0  0  0  0  0  0  0  0  0  0
  -44.0103  -31.7887    3.7491 H   0  0  0  0  0  0  0  0  0  0  0  0
  1  2  1  0  0  0  0
  1  3  2  0  0  0  0
  2  4  2  0  0  0  0
  3  6  1  0  0  0  0
  4  7  1  0  0  0  0
  5  8  1  0  0  0  0
  5 13  2  0  0  0  0
  6  7  2  0  0  0  0
  6 13  1  0  0  0  0
  7 14  1  0  0  0  0
  8 14  2  0  0  0  0
  8 15  1  0  0  0  0
  9 17  1  0  0  0  0
 10 12  1  0  0  0  0
 10 15  1  0  0  0  0
 11 12  1  0  0  0  0
 11 17  1  0  0  0  0
 12 16  1  0  0  0  0
  1 18  1  0  0  0  0
  2 19  1  0  0  0  0
  3 20  1  0  0  0  0
  4 21  1  0  0  0  0
  5 22  1  0  0  0  0
  9 23  1  0  0  0  0
  9 24  1  0  0  0  0
  9 25  1  0  0  0  0
 10 26  1  0  0  0  0
 10 27  1  0  0  0  0
 11 28  1  0  0  0  0
 11 29  1  0  0  0  0
 12 30  1  0  0  0  0
 15 31  1  0  0  0  0
 16 32  1  0  0  0  0
M  END
> <POSIT::Probability>
0.23

> <POSIT::Method>
HYBRID

> <ReceptorTitle>
UCSF-P4710-REFINED_LIGAND-BOUND-STATE_A__DU__LA1_A-201(A)

> <OMEGA_C>
V+NBwuTg38G+0rJAsyhBwrST4cHcWIdASb09wp0i4sEfLM9Ah0c8wlCH5cGdSHFAUkQwwqr/68HA
Ks1AVNk4whoV5sFozMBA5xo4wlDP58HItZRA+YkvwlKv7cFmP6JA7NgxwkjW68F1epw/IcMowqam
8MHht1FA3pUqwv2W98GOHHU/K64qwnMr+sEdpBxAp+c0wqYz6MFQydxAi28zwvyb68E+uYVA45Aq
wjiw8cHuD5RAEBQwwjSb/MG1eDNAwYAswpn47MFkeUM/VqtFwjHQ3MGcur5A5VxEwuTa38HS22FA
cl4+wsTC4MFHMPFAqcI7wpzV5sET7SxAODAtwmCd7cHZteRAjTAzwiee48F8koc/BGs0wm5P8cGS
xik/7woywmPN7cHcShJAKGMkwlU78MFNx1FAZ1IqwpMj6cECrzdA1S8twrYC/cFAzck+cYMmwtcE
+MGu0g4/UkgowhWrAMLYXylAh0gowjVi9cES4KlAfwowwjVP/sEL8m9A

> <OMEGA_E>
v54SwQ==

> <OMEGA_NBR>
     28326

$$$$
CACHE3HI_1715_89
  -OEChem-03092622523D

 40 43  0     1  0  0  0  0  0999 V2000
  -48.4103  -29.2204    3.8278 C   0  0  0  0  0  0  0  0  0  0  0  0
  -49.8188  -29.2161    3.9543 C   0  0  0  0  0  0  0  0  0  0  0  0
  -49.6284  -29.0920    6.4011 C   0  0  0  0  0  0  0  0  0  0  0  0
  -43.6785  -29.1315    6.1576 C   0  0  0  0  0  0  0  0  0  0  0  0
  -47.6458  -29.1566    5.0087 C   0  0  0  0  0  0  0  0  0  0  0  0
  -46.2000  -29.1438    5.2063 C   0  0  0  0  0  0  0  0  0  0  0  0
  -48.2307  -29.1046    6.2783 C   0  0  0  0  0  0  0  0  0  0  0  0
  -50.4236  -29.1443    5.2359 C   0  0  0  0  0  0  0  0  0  0  0  0
  -45.9674  -29.1120    6.5813 C   0  0  0  0  0  0  0  0  0  0  0  0
  -45.1258  -29.1621    4.2978 C   0  0  0  0  0  0  0  0  0  0  0  0
  -44.1463  -28.5214    0.7326 C   0  0  0  0  0  0  0  0  0  0  0  0
  -43.1178  -28.3598    1.8676 C   0  0  0  0  0  0  0  0  0  0  0  0
  -44.2062  -29.4357    1.9578 C   0  0  0  0  0  0  0  0  0  0  0  0
  -44.8112  -33.5583   -0.3150 C   0  0  0  0  0  0  0  0  0  0  0  0
  -44.9142  -31.8286    1.3726 C   0  0  0  0  0  0  0  0  0  0  0  0
  -43.7507  -30.9030    1.7888 C   0  0  2  0  0  0  0  0  0  0  0  0
  -44.7042  -29.1107    7.0474 N   0  0  0  0  0  0  0  0  0  0  0  0
  -43.8681  -29.1472    4.8101 N   0  0  0  0  0  0  0  0  0  0  0  0
  -47.2048  -29.0821    7.2224 N   0  0  0  0  0  0  0  0  0  0  0  0
  -45.3237  -29.2147    2.9185 N   0  0  0  0  0  0  0  0  0  0  0  0
  -43.1656  -31.3700    3.0006 O   0  0  0  0  0  0  0  0  0  0  0  0
  -44.7947  -32.1460   -0.0297 O   0  0  0  0  0  0  0  0  0  0  0  0
  -52.3229  -29.1242    5.4020 Br  0  0  0  0  0  0  0  0  0  0  0  0
  -47.9370  -29.2708    2.8583 H   0  0  0  0  0  0  0  0  0  0  0  0
  -50.4376  -29.2679    3.0707 H   0  0  0  0  0  0  0  0  0  0  0  0
  -50.0906  -29.0429    7.3760 H   0  0  0  0  0  0  0  0  0  0  0  0
  -42.6671  -29.1357    6.5363 H   0  0  0  0  0  0  0  0  0  0  0  0
  -44.9210  -27.7558    0.5789 H   0  0  0  0  0  0  0  0  0  0  0  0
  -43.8323  -28.9259   -0.2410 H   0  0  0  0  0  0  0  0  0  0  0  0
  -42.0690  -28.6495    1.7059 H   0  0  0  0  0  0  0  0  0  0  0  0
  -43.1576  -27.4794    2.5258 H   0  0  0  0  0  0  0  0  0  0  0  0
  -44.7161  -33.7149   -1.3997 H   0  0  0  0  0  0  0  0  0  0  0  0
  -43.9711  -34.0463    0.2008 H   0  0  0  0  0  0  0  0  0  0  0  0
  -45.7591  -33.9921    0.0362 H   0  0  0  0  0  0  0  0  0  0  0  0
  -44.8753  -32.7556    1.9635 H   0  0  0  0  0  0  0  0  0  0  0  0
  -45.8719  -31.3185    1.5534 H   0  0  0  0  0  0  0  0  0  0  0  0
  -42.9976  -30.9298    0.9874 H   0  0  0  0  0  0  0  0  0  0  0  0
  -47.3372  -29.0494    8.2130 H   0  0  0  0  0  0  0  0  0  0  0  0
  -45.9772  -29.9547    2.7596 H   0  0  0  0  0  0  0  0  0  0  0  0
  -42.8874  -32.2717    2.8915 H   0  0  0  0  0  0  0  0  0  0  0  0
  1  2  2  0  0  0  0
  1  5  1  0  0  0  0
  2  8  1  0  0  0  0
  3  7  1  0  0  0  0
  3  8  2  0  0  0  0
  4 17  2  0  0  0  0
  4 18  1  0  0  0  0
  5  6  1  0  0  0  0
  5  7  2  0  0  0  0
  6  9  2  0  0  0  0
  6 10  1  0  0  0  0
  7 19  1  0  0  0  0
  8 23  1  0  0  0  0
  9 17  1  0  0  0  0
  9 19  1  0  0  0  0
 10 18  2  0  0  0  0
 10 20  1  0  0  0  0
 11 12  1  0  0  0  0
 11 13  1  0  0  0  0
 12 13  1  0  0  0  0
 13 16  1  0  0  0  0
 13 20  1  0  0  0  0
 14 22  1  0  0  0  0
 15 16  1  0  0  0  0
 15 22  1  0  0  0  0
 16 21  1  0  0  0  0
  1 24  1  0  0  0  0
  2 25  1  0  0  0  0
  3 26  1  0  0  0  0
  4 27  1  0  0  0  0
 11 28  1  0  0  0  0
 11 29  1  0  0  0  0
 12 30  1  0  0  0  0
 12 31  1  0  0  0  0
 14 32  1  0  0  0  0
 14 33  1  0  0  0  0
 14 34  1  0  0  0  0
 15 35  1  0  0  0  0
 15 36  1  0  0  0  0
 16 37  1  0  0  0  0
 19 38  1  0  0  0  0
 20 39  1  0  0  0  0
 21 40  1  0  0  0  0
M  END
> <POSIT::Probability>
0.99

> <POSIT::Method>
SHAPEFIT

> <ReceptorTitle>
UCSF-P4710-REFINED_LIGAND-BOUND-STATE_A__DU__LA1_A-201(A)

> <OMEGA_C>
I6RBwlHD6cHn+XRAdkZHwqi66cHtE31Ae4NGwm+86MHm1cxA1bYuwj0N6cH2CsVAQ5U+wsRA6cFu
R6BA0Mw4wngm6cGumaZARuxAwjzW6MGO58hAvLFJwpEn6cEkjKdAl943wnTl6MEomtJA0oA0wgJM
6cFQh4lAxJUwwtUr5MHsiTs/lHgswuvg4sGGDe8/LtMwwmh868Gmmfo/sj4zwqk7BsKQTKG+JKgz
wvSg/sG6sq8/tAAvwk0598GO9uQ/JtEywsHi6MF2hOFA8ngvwnYt6cGa7JlAuNE8wjio6MG8HedA
e0s1wqC36cEnyTpAl6kswqr1+sElCUBAyi0zwnSVAMIAT/O8oUpRwkP+6MHk3KxAfL8/wowq6sFD
7jZAEcBJwpck6sHthURAwVxIwsRX6MELCOxAJKsqwtYV6cFJKdFAE68zwsoL3sHRNBQ/RlQvwjRo
58Fqxna+okYowj0y5cFcW9o/b6EswtPV28FJpyFAT90ywgfcBsJkKLO/c+IvwmEvCMIao00+Rgk3
wu33B8LBYRQ9TYAzwr0FA8J6VPs/zHw3wkeM+sEH1cY/jP0rwkhw98F0yHw/UFk9wjBl6MGWaANB
rug3wj2j78GinTBAu4wrwkMWAcIBDjlA

> <OMEGA_E>
AAg9PQ==

> <OMEGA_NBR>
     29652

$$$$
CACHE3HI_1715_90
  -OEChem-03092622523D

 37 40  0     1  0  0  0  0  0999 V2000
  -48.2339  -29.2003    3.8074 C   0  0  0  0  0  0  0  0  0  0  0  0
  -49.6413  -29.3119    3.8550 C   0  0  0  0  0  0  0  0  0  0  0  0
  -49.5971  -29.1954    6.3087 C   0  0  0  0  0  0  0  0  0  0  0  0
  -43.6545  -28.8899    6.3974 C   0  0  0  0  0  0  0  0  0  0  0  0
  -47.5410  -29.0905    5.0291 C   0  0  0  0  0  0  0  0  0  0  0  0
  -46.1094  -29.0149    5.3065 C   0  0  0  0  0  0  0  0  0  0  0  0
  -48.1984  -29.0842    6.2641 C   0  0  0  0  0  0  0  0  0  0  0  0
  -50.3185  -29.3145    5.1005 C   0  0  0  0  0  0  0  0  0  0  0  0
  -45.9599  -28.9324    6.6918 C   0  0  0  0  0  0  0  0  0  0  0  0
  -44.9855  -29.0694    4.4569 C   0  0  0  0  0  0  0  0  0  0  0  0
  -42.6483  -29.2352    2.3042 C   0  0  0  0  0  0  0  0  0  0  0  0
  -42.4563  -27.7148    2.4118 C   0  0  0  0  0  0  0  0  0  0  0  0
  -44.3971  -28.5227    0.8325 C   0  0  0  0  0  0  0  0  0  0  0  0
  -44.1396  -29.4893    1.9947 C   0  0  1  0  0  0  0  0  0  0  0  0
  -44.3500  -30.9564    1.5400 C   0  0  0  0  0  0  0  0  0  0  0  0
  -44.7281  -28.8604    7.2273 N   0  0  0  0  0  0  0  0  0  0  0  0
  -43.7651  -29.0133    5.0456 N   0  0  0  0  0  0  0  0  0  0  0  0
  -47.2315  -28.9751    7.2630 N   0  0  0  0  0  0  0  0  0  0  0  0
  -45.1476  -29.1254    3.0638 N   0  0  0  0  0  0  0  0  0  0  0  0
  -43.8118  -31.8604    2.5030 O   0  0  0  0  0  0  0  0  0  0  0  0
  -43.7333  -26.8915    1.3621 S   0  0  0  0  0  0  0  0  0  0  0  0
  -52.2148  -29.5029    5.1566 Br  0  0  0  0  0  0  0  0  0  0  0  0
  -47.7062  -29.1991    2.8651 H   0  0  0  0  0  0  0  0  0  0  0  0
  -50.2046  -29.3956    2.9373 H   0  0  0  0  0  0  0  0  0  0  0  0
  -50.1156  -29.1899    7.2561 H   0  0  0  0  0  0  0  0  0  0  0  0
  -42.6674  -28.8120    6.8286 H   0  0  0  0  0  0  0  0  0  0  0  0
  -42.0219  -29.6373    1.4943 H   0  0  0  0  0  0  0  0  0  0  0  0
  -42.3736  -29.7173    3.2540 H   0  0  0  0  0  0  0  0  0  0  0  0
  -42.5751  -27.3983    3.4585 H   0  0  0  0  0  0  0  0  0  0  0  0
  -41.4514  -27.4411    2.0578 H   0  0  0  0  0  0  0  0  0  0  0  0
  -43.8782  -28.8692   -0.0734 H   0  0  0  0  0  0  0  0  0  0  0  0
  -45.4759  -28.4478    0.6311 H   0  0  0  0  0  0  0  0  0  0  0  0
  -45.4270  -31.1488    1.4252 H   0  0  0  0  0  0  0  0  0  0  0  0
  -43.8449  -31.1123    0.5753 H   0  0  0  0  0  0  0  0  0  0  0  0
  -47.4218  -28.9336    8.2439 H   0  0  0  0  0  0  0  0  0  0  0  0
  -45.8967  -29.7739    2.9281 H   0  0  0  0  0  0  0  0  0  0  0  0
  -43.9484  -32.7538    2.2103 H   0  0  0  0  0  0  0  0  0  0  0  0
  1  2  1  0  0  0  0
  1  5  2  0  0  0  0
  2  8  2  0  0  0  0
  3  7  2  0  0  0  0
  3  8  1  0  0  0  0
  4 16  1  0  0  0  0
  4 17  2  0  0  0  0
  5  6  1  0  0  0  0
  5  7  1  0  0  0  0
  6  9  1  0  0  0  0
  6 10  2  0  0  0  0
  7 18  1  0  0  0  0
  8 22  1  0  0  0  0
  9 16  2  0  0  0  0
  9 18  1  0  0  0  0
 10 17  1  0  0  0  0
 10 19  1  0  0  0  0
 11 12  1  0  0  0  0
 11 14  1  0  0  0  0
 12 21  1  0  0  0  0
 13 14  1  0  0  0  0
 13 21  1  0  0  0  0
 14 15  1  0  0  0  0
 14 19  1  0  0  0  0
 15 20  1  0  0  0  0
  1 23  1  0  0  0  0
  2 24  1  0  0  0  0
  3 25  1  0  0  0  0
  4 26  1  0  0  0  0
 11 27  1  0  0  0  0
 11 28  1  0  0  0  0
 12 29  1  0  0  0  0
 12 30  1  0  0  0  0
 13 31  1  0  0  0  0
 13 32  1  0  0  0  0
 15 33  1  0  0  0  0
 15 34  1  0  0  0  0
 18 35  1  0  0  0  0
 19 36  1  0  0  0  0
 20 37  1  0  0  0  0
M  END
> <POSIT::Probability>
0.79

> <POSIT::Method>
SHAPEFIT

> <ReceptorTitle>
UCSF-P4710-REFINED_LIGAND-BOUND-STATE_A__DU__LA1_A-201(A)

> <OMEGA_C>
g+9Awiaa6cF0rHNAsJBGwrR+6sEPuHZAe2NGwiiQ6cHQ4MlAMZ4uwoQe58E4t8xACCo+wly56MG8
7qBAEHA4wm4e6MEyz6lAMMtAwmas6MFoc8hAMUZJwiaE6sFyN6NA6dY3wph158E8I9ZAHPEzwgiO
6MExn45A1Zcqwqjh6cGheBNANdMpwum33cGtWhpAqZYxwmQu5MGcHFU//o4wwi7q68E8Uf8/bmYx
wqym98FAHcU/iOkywiri5sFsRudAgw8vwigb6MGsdaFAGO08wgLN58HiauhAIZc0wuoA6cGMFURA
Qj8vwgri/sFuMCBA7u4uwrch18H4V64/9NtQwtoF7ME8A6VAKNM+ws+X6cG5XTdAg9FIwkUq68Fh
/TtAVnZIwuiE6cEgMuhAa6sqwuV+5sEqhNpAdRYowiIZ7cHERL8/h34pwhy97cGhQVBA6kwqwq8v
28GrWF1AM84lwmyH28ExswNAToMvwiL05sENYJa9Xuc1wgWV48HHjyE/ObU1wsUw+cF8brY/MWEv
wuXl+MHARhM/7689wg5458EF5wNBMpY3wucw7sHMZjtAHssvwuIDA8KPdQ1A

> <OMEGA_E>
2KEFPw==

> <OMEGA_NBR>
     30919

$$$$
CACHE3HI_1717_30
  -OEChem-03092622523D

 43 44  0     1  0  0  0  0  0999 V2000
  -47.6038  -29.1834    4.3490 C   0  0  0  0  0  0  0  0  0  0  0  0
  -43.8765  -29.3248    5.8246 C   0  0  0  0  0  0  0  0  0  0  0  0
  -46.2147  -29.2465    4.5674 C   0  0  0  0  0  0  0  0  0  0  0  0
  -46.0848  -29.2105    5.9444 C   0  0  0  0  0  0  0  0  0  0  0  0
  -45.0425  -29.3279    3.8237 C   0  0  0  0  0  0  0  0  0  0  0  0
  -45.4401  -35.1172   -0.1416 C   0  0  0  0  0  0  0  0  0  0  0  0
  -41.8890  -31.7337    2.3493 C   0  0  0  0  0  0  0  0  0  0  0  0
  -44.7246  -34.0005    0.6032 C   0  0  0  0  0  0  0  0  0  0  0  0
  -45.6281  -32.7806    0.7871 C   0  0  0  0  0  0  0  0  0  0  0  0
  -44.9119  -31.6720    1.5642 C   0  0  0  0  0  0  0  0  0  0  0  0
  -42.9250  -28.2605    1.8756 C   0  0  0  0  0  0  0  0  0  0  0  0
  -45.7646  -30.4174    1.7142 C   0  0  0  0  0  0  0  0  0  0  0  0
  -44.4300  -28.3052    1.6470 C   0  0  0  0  0  0  0  0  0  0  0  0
  -42.2305  -29.5662    1.5067 C   0  0  0  0  0  0  0  0  0  0  0  0
  -48.3027  -29.1139    5.4880 N   0  0  0  0  0  0  0  0  0  0  0  0
  -44.9429  -29.2459    6.6495 N   0  0  0  0  0  0  0  0  0  0  0  0
  -43.8530  -29.3680    4.4706 N   0  0  0  0  0  0  0  0  0  0  0  0
  -47.3521  -29.1324    6.4401 N   0  0  0  0  0  0  0  0  0  0  0  0
  -45.0805  -29.3688    2.4199 N   0  0  3  0  0  0  0  0  0  0  0  0
  -42.7560  -30.6085    2.3182 O   0  0  0  0  0  0  0  0  0  0  0  0
  -48.1406  -29.1856    3.4111 H   0  0  0  0  0  0  0  0  0  0  0  0
  -42.9073  -29.3577    6.3105 H   0  0  0  0  0  0  0  0  0  0  0  0
  -45.7736  -34.7652   -1.1219 H   0  0  0  0  0  0  0  0  0  0  0  0
  -46.3189  -35.4583    0.4147 H   0  0  0  0  0  0  0  0  0  0  0  0
  -44.7763  -35.9740   -0.2939 H   0  0  0  0  0  0  0  0  0  0  0  0
  -42.3238  -32.5129    2.9807 H   0  0  0  0  0  0  0  0  0  0  0  0
  -41.7670  -32.1169    1.3333 H   0  0  0  0  0  0  0  0  0  0  0  0
  -40.9149  -31.4333    2.7420 H   0  0  0  0  0  0  0  0  0  0  0  0
  -44.3985  -34.3727    1.5821 H   0  0  0  0  0  0  0  0  0  0  0  0
  -43.8236  -33.7170    0.0463 H   0  0  0  0  0  0  0  0  0  0  0  0
  -45.9354  -32.4007   -0.1945 H   0  0  0  0  0  0  0  0  0  0  0  0
  -46.5393  -33.0807    1.3180 H   0  0  0  0  0  0  0  0  0  0  0  0
  -44.6237  -32.0448    2.5544 H   0  0  0  0  0  0  0  0  0  0  0  0
  -43.9876  -31.4043    1.0380 H   0  0  0  0  0  0  0  0  0  0  0  0
  -42.7259  -28.0390    2.9315 H   0  0  0  0  0  0  0  0  0  0  0  0
  -42.4756  -27.4368    1.3061 H   0  0  0  0  0  0  0  0  0  0  0  0
  -46.6958  -30.6302    2.2496 H   0  0  0  0  0  0  0  0  0  0  0  0
  -46.0241  -30.0208    0.7270 H   0  0  0  0  0  0  0  0  0  0  0  0
  -44.9015  -27.3556    1.9200 H   0  0  0  0  0  0  0  0  0  0  0  0
  -44.6429  -28.5004    0.5918 H   0  0  0  0  0  0  0  0  0  0  0  0
  -41.1518  -29.5052    1.6809 H   0  0  0  0  0  0  0  0  0  0  0  0
  -42.4087  -29.8195    0.4572 H   0  0  0  0  0  0  0  0  0  0  0  0
  -47.6407  -29.0880    7.4094 H   0  0  0  0  0  0  0  0  0  0  0  0
  1  3  1  0  0  0  0
  1 15  2  0  0  0  0
  2 16  2  0  0  0  0
  2 17  1  0  0  0  0
  3  4  2  0  0  0  0
  3  5  1  0  0  0  0
  4 16  1  0  0  0  0
  4 18  1  0  0  0  0
  5 17  2  0  0  0  0
  5 19  1  0  0  0  0
  6  8  1  0  0  0  0
  7 20  1  0  0  0  0
  8  9  1  0  0  0  0
  9 10  1  0  0  0  0
 10 12  1  0  0  0  0
 11 13  1  0  0  0  0
 11 14  1  0  0  0  0
 12 19  1  0  0  0  0
 13 19  1  0  0  0  0
 14 20  1  0  0  0  0
 15 18  1  0  0  0  0
  1 21  1  0  0  0  0
  2 22  1  0  0  0  0
  6 23  1  0  0  0  0
  6 24  1  0  0  0  0
  6 25  1  0  0  0  0
  7 26  1  0  0  0  0
  7 27  1  0  0  0  0
  7 28  1  0  0  0  0
  8 29  1  0  0  0  0
  8 30  1  0  0  0  0
  9 31  1  0  0  0  0
  9 32  1  0  0  0  0
 10 33  1  0  0  0  0
 10 34  1  0  0  0  0
 11 35  1  0  0  0  0
 11 36  1  0  0  0  0
 12 37  1  0  0  0  0
 12 38  1  0  0  0  0
 13 39  1  0  0  0  0
 13 40  1  0  0  0  0
 14 41  1  0  0  0  0
 14 42  1  0  0  0  0
 18 43  1  0  0  0  0
M  END
> <POSIT::Probability>
0.42

> <POSIT::Method>
HYBRID

> <ReceptorTitle>
UCSF-P4710-REFINED_LIGAND-BOUND-STATE_A__DU__LA1_A-201(A)

> <OMEGA_C>
Vmo+wq536cFkK4tAkoEvwjqZ6sH/YrpA1ds4wsj46cFNKJJA1FY4wiav6cHiOL5AiSs0woaf6sHm
tnRArcI1wgl4DMKA9hC+V44nwpze/cHyWhZAAOYywogACMLQaxo/KIM2wlQfA8IYgkk/vqUzwkpg
/cGcN8g/OLMrwpEV4sFcEvA/+A43wuVW88GYa9s/Sbgxwvxw4sEA0dI/Auwowp6H7MGc3MA/ATZB
wivp6MFSna9AicUzwoz36cEPydRAhWkvwpzx6sEpD49AjGg9whAP6cF6Fc5AcFI0wlnz6sEA4BpA
LQYrwhze9MEkXhRA9I9AwgJ86cHoTlpAFqErwqTc6sHg78lANhg3wokPC8Jom4+/kUY5wlDVDcLw
VdQ++xozwljlD8Kwfpa+j0spwjYNAsJwwz5AcxEnwrV3AMKoqqo/z6gjwmp3+8HmfC9ACJgxwp59
CcKMgso/U0svwjDeBsKAqz094b03wlKaAcLgKUe+Rig6wqxSBMKItKg/t34ywuItAMI4eyNASvMv
wu47+8Gw3IQ/Sucqws9P4MH8nTtAAucpwnx+28GQLac/gsg6wpEK9cH4+Q9AsRg4wqEq8MHwHTo/
LZszwjHY2sEkwvU/TJIywrkA5MFYgRc/epskwpwK7MHMKNc/hqIpwlmO7sGAEuo+IJA+wiK06MGQ
Ge1A

> <OMEGA_E>
BDYxwQ==

> <OMEGA_NBR>
     32279

$$$$
CACHE3HI_1717_36
  -OEChem-03092622523D

 37 38  0     1  0  0  0  0  0999 V2000
  -47.7171  -29.2689    4.3875 C   0  0  0  0  0  0  0  0  0  0  0  0
  -44.0075  -29.1304    5.9072 C   0  0  0  0  0  0  0  0  0  0  0  0
  -46.3300  -29.2720    4.6268 C   0  0  0  0  0  0  0  0  0  0  0  0
  -46.2190  -29.0488    5.9877 C   0  0  0  0  0  0  0  0  0  0  0  0
  -45.1467  -29.4272    3.9129 C   0  0  0  0  0  0  0  0  0  0  0  0
  -46.0194  -33.0476   -0.0183 C   0  0  0  0  0  0  0  0  0  0  0  0
  -42.2206  -29.9815    1.7268 C   0  0  0  0  0  0  0  0  0  0  0  0
  -45.6213  -33.2882    1.4299 C   0  0  0  0  0  0  0  0  0  0  0  0
  -44.9421  -32.0587    2.0346 C   0  0  0  0  0  0  0  0  0  0  0  0
  -45.8316  -30.8234    1.9790 C   0  0  0  0  0  0  0  0  0  0  0  0
  -44.5390  -28.7153    1.6144 C   0  0  0  0  0  0  0  0  0  0  0  0
  -43.3792  -28.0193    2.3029 C   0  0  0  0  0  0  0  0  0  0  0  0
  -48.4322  -29.0622    5.4994 N   0  0  0  0  0  0  0  0  0  0  0  0
  -45.0860  -28.9645    6.7030 N   0  0  0  0  0  0  0  0  0  0  0  0
  -43.9653  -29.3544    4.5717 N   0  0  0  0  0  0  0  0  0  0  0  0
  -47.4940  -28.9322    6.4553 N   0  0  0  0  0  0  0  0  0  0  0  0
  -45.1653  -29.6554    2.5366 N   0  0  3  0  0  0  0  0  0  0  0  0
  -42.4268  -28.9885    2.7218 O   0  0  0  0  0  0  0  0  0  0  0  0
  -48.2413  -29.4085    3.4528 H   0  0  0  0  0  0  0  0  0  0  0  0
  -43.0443  -29.0769    6.4032 H   0  0  0  0  0  0  0  0  0  0  0  0
  -45.1399  -32.7923   -0.6156 H   0  0  0  0  0  0  0  0  0  0  0  0
  -46.7341  -32.2219   -0.0965 H   0  0  0  0  0  0  0  0  0  0  0  0
  -46.4781  -33.9412   -0.4535 H   0  0  0  0  0  0  0  0  0  0  0  0
  -41.4847  -30.7076    2.0820 H   0  0  0  0  0  0  0  0  0  0  0  0
  -43.1672  -30.4912    1.5314 H   0  0  0  0  0  0  0  0  0  0  0  0
  -41.8675  -29.5092    0.8073 H   0  0  0  0  0  0  0  0  0  0  0  0
  -46.5156  -33.5422    2.0105 H   0  0  0  0  0  0  0  0  0  0  0  0
  -44.9484  -34.1522    1.4753 H   0  0  0  0  0  0  0  0  0  0  0  0
  -44.6691  -32.2661    3.0762 H   0  0  0  0  0  0  0  0  0  0  0  0
  -44.0139  -31.8507    1.4895 H   0  0  0  0  0  0  0  0  0  0  0  0
  -46.7637  -30.9820    2.5315 H   0  0  0  0  0  0  0  0  0  0  0  0
  -46.0883  -30.5939    0.9404 H   0  0  0  0  0  0  0  0  0  0  0  0
  -44.1888  -29.2730    0.7405 H   0  0  0  0  0  0  0  0  0  0  0  0
  -45.2973  -27.9928    1.2976 H   0  0  0  0  0  0  0  0  0  0  0  0
  -42.8846  -27.3043    1.6374 H   0  0  0  0  0  0  0  0  0  0  0  0
  -43.7353  -27.4899    3.1920 H   0  0  0  0  0  0  0  0  0  0  0  0
  -47.7962  -28.7644    7.4067 H   0  0  0  0  0  0  0  0  0  0  0  0
  1  3  1  0  0  0  0
  1 13  2  0  0  0  0
  2 14  2  0  0  0  0
  2 15  1  0  0  0  0
  3  4  2  0  0  0  0
  3  5  1  0  0  0  0
  4 14  1  0  0  0  0
  4 16  1  0  0  0  0
  5 15  2  0  0  0  0
  5 17  1  0  0  0  0
  6  8  1  0  0  0  0
  7 18  1  0  0  0  0
  8  9  1  0  0  0  0
  9 10  1  0  0  0  0
 10 17  1  0  0  0  0
 11 12  1  0  0  0  0
 11 17  1  0  0  0  0
 12 18  1  0  0  0  0
 13 16  1  0  0  0  0
  1 19  1  0  0  0  0
  2 20  1  0  0  0  0
  6 21  1  0  0  0  0
  6 22  1  0  0  0  0
  6 23  1  0  0  0  0
  7 24  1  0  0  0  0
  7 25  1  0  0  0  0
  7 26  1  0  0  0  0
  8 27  1  0  0  0  0
  8 28  1  0  0  0  0
  9 29  1  0  0  0  0
  9 30  1  0  0  0  0
 10 31  1  0  0  0  0
 10 32  1  0  0  0  0
 11 33  1  0  0  0  0
 11 34  1  0  0  0  0
 12 35  1  0  0  0  0
 12 36  1  0  0  0  0
 16 37  1  0  0  0  0
M  END
> <POSIT::Probability>
0.33

> <POSIT::Method>
HYBRID

> <ReceptorTitle>
UCSF-P4710-REFINED_LIGAND-BOUND-STATE_A__DU__LA1_A-201(A)

> <OMEGA_C>
Vd4+wrAm6sGrZoxArAcwwhIL6cEbCL1A5VE5whot6sGkDpRAPuA4wu9j6MGem79APZY0wtlq68FK
bXpA1RM4wrUwBMKAhJW86OEowija78GuCN0/P3w2whQnBcIsBrc/rsQzwhQ8AMLeNgJAjVM3wjyW
9sFUUf0/8ScywgW55cH8pc4/WIQtwp4n4MFGYxNAlrpBwmh/6MFm+69AElg0wli358HxftZAedwv
wrrV6sEaS5JA4Pk9wi5158Fpkc5AOKk0wiw+7cGTVyJAFLUpwnro58EMMi5AGPdAwolE68FU+1xA
Wy0swmad6MEt58xAQ480wkkrA8L0mh2/uu86wjjjAMIglcW9l+k5wtbDB8JwNui+YfAlwjKp9cEm
PwVALqsswvLt88GIBMQ/S3gnwtoS7MEgqE4/ABA6wjgrBsLBrABAMMszwuSbCMJy1bw/Ha0ywoMQ
AcLP30RAMg4wwkDO/sE0p74/EA47wgrb98FsBCJAZFo4wj7A9MHUwHA/VMEwwgcv6sFYlD0/eDA1
wjbx38G6FqY/4YkrwkBv2sEcl9E//fAuwmfr28H8SExAXC8/wngd5sGSA+1A

> <OMEGA_E>
pgkrwQ==

> <OMEGA_NBR>
     33514

$$$$
CACHE3HI_1717_62
  -OEChem-03092622523D

 38 39  0     1  0  0  0  0  0999 V2000
  -47.4709  -29.3082    4.7373 C   0  0  0  0  0  0  0  0  0  0  0  0
  -43.7162  -28.9167    6.4701 C   0  0  0  0  0  0  0  0  0  0  0  0
  -46.0571  -29.1964    5.1204 C   0  0  0  0  0  0  0  0  0  0  0  0
  -46.0425  -29.0604    6.5043 C   0  0  0  0  0  0  0  0  0  0  0  0
  -44.8204  -29.2221    4.4298 C   0  0  0  0  0  0  0  0  0  0  0  0
  -44.7518  -33.1766   -1.1391 C   0  0  0  0  0  0  0  0  0  0  0  0
  -45.7080  -26.7175   -0.2484 C   0  0  0  0  0  0  0  0  0  0  0  0
  -45.0954  -31.5667    2.1961 C   0  0  0  0  0  0  0  0  0  0  0  0
  -44.0627  -30.4572    2.3880 C   0  0  0  0  0  0  0  0  0  0  0  0
  -45.3509  -28.2793    2.2093 C   0  0  0  0  0  0  0  0  0  0  0  0
  -44.6142  -32.5925    1.1765 C   0  0  0  0  0  0  0  0  0  0  0  0
  -44.2304  -27.5041    1.4933 C   0  0  0  0  0  0  0  0  0  0  0  0
  -48.1939  -29.2609    5.8380 N   0  0  0  0  0  0  0  0  0  0  0  0
  -44.8789  -28.9178    7.1707 N   0  0  0  0  0  0  0  0  0  0  0  0
  -43.6705  -29.0873    5.1256 N   0  0  0  0  0  0  0  0  0  0  0  0
  -47.3611  -29.1180    6.9225 N   0  0  0  0  0  0  0  0  0  0  0  0
  -44.7423  -29.3151    3.0447 N   0  0  3  0  0  0  0  0  0  0  0  0
  -44.9099  -32.1416   -0.1558 O   0  0  0  0  0  0  0  0  0  0  0  0
  -44.7752  -26.3760    0.8005 O   0  0  0  0  0  0  0  0  0  0  0  0
  -47.8507  -29.4110    3.7314 H   0  0  0  0  0  0  0  0  0  0  0  0
  -42.7892  -28.7742    7.0057 H   0  0  0  0  0  0  0  0  0  0  0  0
  -44.9903  -32.7761   -2.1354 H   0  0  0  0  0  0  0  0  0  0  0  0
  -43.7125  -33.5370   -1.1281 H   0  0  0  0  0  0  0  0  0  0  0  0
  -45.4312  -34.0099   -0.9067 H   0  0  0  0  0  0  0  0  0  0  0  0
  -46.0762  -25.7977   -0.7261 H   0  0  0  0  0  0  0  0  0  0  0  0
  -45.2027  -27.3433   -0.9988 H   0  0  0  0  0  0  0  0  0  0  0  0
  -46.5554  -27.2721    0.1809 H   0  0  0  0  0  0  0  0  0  0  0  0
  -45.2656  -32.0699    3.1594 H   0  0  0  0  0  0  0  0  0  0  0  0
  -46.0379  -31.1233    1.8425 H   0  0  0  0  0  0  0  0  0  0  0  0
  -43.2394  -30.8178    3.0221 H   0  0  0  0  0  0  0  0  0  0  0  0
  -43.6637  -30.1443    1.4118 H   0  0  0  0  0  0  0  0  0  0  0  0
  -45.9340  -27.5909    2.8387 H   0  0  0  0  0  0  0  0  0  0  0  0
  -46.0131  -28.7454    1.4649 H   0  0  0  0  0  0  0  0  0  0  0  0
  -43.5277  -32.7281    1.2819 H   0  0  0  0  0  0  0  0  0  0  0  0
  -45.1225  -33.5511    1.3572 H   0  0  0  0  0  0  0  0  0  0  0  0
  -43.4978  -27.1553    2.2360 H   0  0  0  0  0  0  0  0  0  0  0  0
  -43.7328  -28.1684    0.7714 H   0  0  0  0  0  0  0  0  0  0  0  0
  -47.6635  -29.0638    7.8741 H   0  0  0  0  0  0  0  0  0  0  0  0
  1  3  1  0  0  0  0
  1 13  2  0  0  0  0
  2 14  2  0  0  0  0
  2 15  1  0  0  0  0
  3  4  2  0  0  0  0
  3  5  1  0  0  0  0
  4 14  1  0  0  0  0
  4 16  1  0  0  0  0
  5 15  2  0  0  0  0
  5 17  1  0  0  0  0
  6 18  1  0  0  0  0
  7 19  1  0  0  0  0
  8  9  1  0  0  0  0
  8 11  1  0  0  0  0
  9 17  1  0  0  0  0
 10 12  1  0  0  0  0
 10 17  1  0  0  0  0
 11 18  1  0  0  0  0
 12 19  1  0  0  0  0
 13 16  1  0  0  0  0
  1 20  1  0  0  0  0
  2 21  1  0  0  0  0
  6 22  1  0  0  0  0
  6 23  1  0  0  0  0
  6 24  1  0  0  0  0
  7 25  1  0  0  0  0
  7 26  1  0  0  0  0
  7 27  1  0  0  0  0
  8 28  1  0  0  0  0
  8 29  1  0  0  0  0
  9 30  1  0  0  0  0
  9 31  1  0  0  0  0
 10 32  1  0  0  0  0
 10 33  1  0  0  0  0
 11 34  1  0  0  0  0
 11 35  1  0  0  0  0
 12 36  1  0  0  0  0
 12 37  1  0  0  0  0
 16 38  1  0  0  0  0
M  END
> <POSIT::Probability>
0.42

> <POSIT::Method>
SHAPEFIT

> <ReceptorTitle>
UCSF-P4710-REFINED_LIGAND-BOUND-STATE_A__DU__LA1_A-201(A)

> <OMEGA_C>
PuI9wi136sGYl5dAaN0uwoFV58FAC89AeDo4wk2S6cEU2qNAkSs4wqt76MFQI9BAIkgzwu3G6cGI
wI1AywEzwty0BMJ6zpG/8dQ2wom91cGgWH6+uWE0wquI/MHUjAxAQEAwwleo88HQ1BhAW2c1wv87
4sFiZQ1A8HQywsBeAsIYl5Y/7uswwk8I3MFMI78/i8ZAwkEW6sEs0bpA+oMzwo9X58GkduVAlK4u
wtGy6MGUBKRAwXE9wsPx6MEmhd1AF/gywkGF6sEU3EJAtaMzwgCRAMIgiB++2Bkzwh8C08HY7Ew/
EWc/wqFJ68Hwz25AMSgrwpox5sF4LuBADvYzwrQaA8IKqwjAnNkuwtwlBsI0ZpC/lrk1whoKCMLz
H2i/CE44wqZhzsFk4zm/hM80whS/2sGGsH+/sjg6wlQt2sFTSTk+/Q81wpNHAMLUMkpA3CY4wof8
+MGt1us/LPUswsaK9sGeakFArKcuwpcn8cFztrQ/Z7w3wh263ME7rTVAdA04wp325cF6gLs/Vxwu
wobpAsKYFKQ/dH00wl80BsLeua0/uv0twhE+2cFxGg9Ab+4uwshY4cGFd0U/Yac+wpOC6MEE+ftA

> <OMEGA_E>
XkRqPw==

> <OMEGA_NBR>
     34797

$$$$
CACHE3HI_1689_72
  -OEChem-03092622523D

 40 42  0     0  0  0  0  0  0999 V2000
  -46.3470  -25.7137   -0.8414 C   0  0  0  0  0  0  0  0  0  0  0  0
  -46.5939  -27.0832   -0.9384 C   0  0  0  0  0  0  0  0  0  0  0  0
  -45.2417  -25.2540   -0.1256 C   0  0  0  0  0  0  0  0  0  0  0  0
  -45.7357  -27.9926   -0.3201 C   0  0  0  0  0  0  0  0  0  0  0  0
  -44.3835  -26.1635    0.4927 C   0  0  0  0  0  0  0  0  0  0  0  0
  -44.6303  -27.5328    0.3957 C   0  0  0  0  0  0  0  0  0  0  0  0
  -46.1011  -29.0211    5.4910 C   0  0  0  0  0  0  0  0  0  0  0  0
  -45.5113  -29.0682    6.7324 C   0  0  0  0  0  0  0  0  0  0  0  0
  -46.4768  -29.7249    1.8679 C   0  0  0  0  0  0  0  0  0  0  0  0
  -45.5899  -28.9104    4.1035 C   0  0  0  0  0  0  0  0  0  0  0  0
  -48.4907  -29.1132    4.8011 C   0  0  0  0  0  0  0  0  0  0  0  0
  -47.9904  -28.5840    3.4595 C   0  0  0  0  0  0  0  0  0  0  0  0
  -44.0862  -29.0228    7.0861 C   0  0  0  0  0  0  0  0  0  0  0  0
  -45.3550  -30.7277    1.7578 C   0  0  0  0  0  0  0  0  0  0  0  0
  -44.3258  -30.2844    0.7352 C   0  0  0  0  0  0  0  0  0  0  0  0
  -46.4776  -29.1723    7.6996 N   0  0  0  0  0  0  0  0  0  0  0  0
  -47.6629  -29.1927    7.0970 N   0  0  0  0  0  0  0  0  0  0  0  0
  -47.4319  -29.0935    5.7810 N   0  0  0  0  0  0  0  0  0  0  0  0
  -46.6705  -29.1426    3.1234 N   0  0  0  0  0  0  0  0  0  0  0  0
  -47.1603  -29.4716    0.8725 O   0  0  0  0  0  0  0  0  0  0  0  0
  -43.4639  -30.2763    6.7936 O   0  0  0  0  0  0  0  0  0  0  0  0
  -43.3263  -25.7006    1.1760 F   0  0  0  0  0  0  0  0  0  0  0  0
  -43.5368  -28.7071    1.1844 S   0  0  0  0  0  0  0  0  0  0  0  0
  -47.0152  -25.0058   -1.3228 H   0  0  0  0  0  0  0  0  0  0  0  0
  -47.4547  -27.4412   -1.4957 H   0  0  0  0  0  0  0  0  0  0  0  0
  -45.0490  -24.1879   -0.0496 H   0  0  0  0  0  0  0  0  0  0  0  0
  -45.9454  -29.0559   -0.4076 H   0  0  0  0  0  0  0  0  0  0  0  0
  -45.2045  -27.9009    3.9219 H   0  0  0  0  0  0  0  0  0  0  0  0
  -44.7718  -29.6189    3.9555 H   0  0  0  0  0  0  0  0  0  0  0  0
  -49.3163  -28.4996    5.1752 H   0  0  0  0  0  0  0  0  0  0  0  0
  -48.8257  -30.1523    4.7131 H   0  0  0  0  0  0  0  0  0  0  0  0
  -48.7251  -28.7975    2.6768 H   0  0  0  0  0  0  0  0  0  0  0  0
  -47.8668  -27.4945    3.5016 H   0  0  0  0  0  0  0  0  0  0  0  0
  -43.5394  -28.2378    6.5299 H   0  0  0  0  0  0  0  0  0  0  0  0
  -43.9259  -28.8100    8.1609 H   0  0  0  0  0  0  0  0  0  0  0  0
  -44.9252  -30.8734    2.7489 H   0  0  0  0  0  0  0  0  0  0  0  0
  -45.8150  -31.6632    1.4353 H   0  0  0  0  0  0  0  0  0  0  0  0
  -44.7722  -30.1748   -0.2583 H   0  0  0  0  0  0  0  0  0  0  0  0
  -43.5376  -31.0415    0.6702 H   0  0  0  0  0  0  0  0  0  0  0  0
  -42.5339  -30.1833    7.0467 H   0  0  0  0  0  0  0  0  0  0  0  0
  1  2  1  0  0  0  0
  1  3  2  0  0  0  0
  2  4  2  0  0  0  0
  3  5  1  0  0  0  0
  4  6  1  0  0  0  0
  5  6  2  0  0  0  0
  5 22  1  0  0  0  0
  6 23  1  0  0  0  0
  7  8  2  0  0  0  0
  7 10  1  0  0  0  0
  7 18  1  0  0  0  0
  8 13  1  0  0  0  0
  8 16  1  0  0  0  0
  9 14  1  0  0  0  0
  9 19  1  0  0  0  0
  9 20  2  0  0  0  0
 10 19  1  0  0  0  0
 11 12  1  0  0  0  0
 11 18  1  0  0  0  0
 12 19  1  0  0  0  0
 13 21  1  0  0  0  0
 14 15  1  0  0  0  0
 15 23  1  0  0  0  0
 16 17  2  0  0  0  0
 17 18  1  0  0  0  0
  1 24  1  0  0  0  0
  2 25  1  0  0  0  0
  3 26  1  0  0  0  0
  4 27  1  0  0  0  0
 10 28  1  0  0  0  0
 10 29  1  0  0  0  0
 11 30  1  0  0  0  0
 11 31  1  0  0  0  0
 12 32  1  0  0  0  0
 12 33  1  0  0  0  0
 13 34  1  0  0  0  0
 13 35  1  0  0  0  0
 14 36  1  0  0  0  0
 14 37  1  0  0  0  0
 15 38  1  0  0  0  0
 15 39  1  0  0  0  0
 21 40  1  0  0  0  0
M  END
> <POSIT::Probability>
0.33

> <POSIT::Method>
HYBRID

> <ReceptorTitle>
UCSF-P4723-REFINED_LIGAND-BOUND-STATE_A__DU__LA1_A-201(A)

> <OMEGA_C>
VmM5wr21zcHIY1e/L2A6wlGq2MHIPHC/gPc0wicIysGglwC+V/E2wujw38HA6aO+qIgxwsBO0cHw
Q/w+d4Uywj1D3MEglco+jGc4wiAr6MFUtq9Aiws2wq+L6MGSb9dAS+g5wqnM7cHgGO8/Glw2wnFI
58HFT4NAfvZBws7n6MHmoplAJvY/whms5MHmaF1AR1gwwpgu6MFwweJAhms1wl/S9cGw/+A/q00x
wo1G8sGQNTw/Duk5wuZg6cFyY/ZA2qY+wr6K6cFTGuNAQLo9wo+/6MFV/rhAlq46wh4k6cHg5UdA
JqQ8wunF68GoWl8/D9stwuM18sFvZdlAKU4twtOazcGsh5Y/sSUuwjqo5cFImpc/kg88wt4LyMFg
Uqm/kdE9wqKH28FQdL+/OjI0wtSAwcEAV0u9H8g3woZy6MFQt9C+bdE0wvU038FUAHtARxYzwpjz
7MG2Jn1A5UNFwiX/48Fwm6VAhU1DwuA38cG90ZZAdOZCwjJh5sFCUStAmHc/wsX028EOGmBATSgu
wgvn4cGZ9NBAGrQvwt565sHqkgJBW7MzwrP89sGO7i9AkEI3wj5O/cHwtrc/vxYzwglm8cEwPYS+
gCYuwvNU+MEokys/tCIqwlR38cHofuFA

> <OMEGA_E>
Ff/LwA==

> <OMEGA_NBR>
      1293

$$$$
CACHE3HI_1690_53
  -OEChem-03092622523D

 42 44  0     1  0  0  0  0  0999 V2000
  -44.3694  -25.9989   -0.1293 C   0  0  0  0  0  0  0  0  0  0  0  0
  -45.7566  -26.2108   -0.1738 C   0  0  0  0  0  0  0  0  0  0  0  0
  -43.5119  -26.9955    0.3406 C   0  0  0  0  0  0  0  0  0  0  0  0
  -46.3070  -27.4211    0.2527 C   0  0  0  0  0  0  0  0  0  0  0  0
  -47.6800  -28.2821    5.1061 C   0  0  0  0  0  0  0  0  0  0  0  0
  -49.2326  -29.7718    4.6548 C   0  0  0  0  0  0  0  0  0  0  0  0
  -44.0636  -28.1977    0.7503 C   0  0  0  0  0  0  0  0  0  0  0  0
  -45.4492  -28.4083    0.7123 C   0  0  0  0  0  0  0  0  0  0  0  0
  -48.1777  -29.1064    4.0791 C   0  0  0  0  0  0  0  0  0  0  0  0
  -52.1073  -28.8026    5.5296 C   0  0  0  0  0  0  0  0  0  0  0  0
  -51.6061  -29.1119    6.7312 C   0  0  0  0  0  0  0  0  0  0  0  0
  -43.3548  -29.3935    1.3061 C   0  0  0  0  0  0  0  0  0  0  0  0
  -45.8068  -29.7680    1.2527 C   0  0  1  0  0  0  0  0  0  0  0  0
  -44.4310  -30.4822    1.1070 C   0  0  2  0  0  0  0  0  0  0  0  0
  -47.6714  -29.2321    2.6708 C   0  0  0  0  0  0  0  0  0  0  0  0
  -50.2561  -29.7321    6.9418 C   0  0  0  0  0  0  0  0  0  0  0  0
  -44.2147  -31.6928    2.0070 C   0  0  0  0  0  0  0  0  0  0  0  0
  -48.3625  -28.4103    6.2470 N   0  0  0  0  0  0  0  0  0  0  0  0
  -49.3001  -29.3231    5.9410 N   0  0  0  0  0  0  0  0  0  0  0  0
  -46.2810  -29.6660    2.6279 N   0  0  0  0  0  0  0  0  0  0  0  0
  -45.2520  -32.6182    1.7557 O   0  0  0  0  0  0  0  0  0  0  0  0
  -43.9601  -25.0520   -0.4713 H   0  0  0  0  0  0  0  0  0  0  0  0
  -46.4073  -25.4270   -0.5528 H   0  0  0  0  0  0  0  0  0  0  0  0
  -42.4409  -26.8264    0.3804 H   0  0  0  0  0  0  0  0  0  0  0  0
  -47.3792  -27.5765    0.2169 H   0  0  0  0  0  0  0  0  0  0  0  0
  -46.8487  -27.5918    5.0728 H   0  0  0  0  0  0  0  0  0  0  0  0
  -49.9245  -30.5074    4.2676 H   0  0  0  0  0  0  0  0  0  0  0  0
  -53.0885  -28.3492    5.4442 H   0  0  0  0  0  0  0  0  0  0  0  0
  -51.5540  -28.9956    4.6175 H   0  0  0  0  0  0  0  0  0  0  0  0
  -52.2008  -28.8902    7.6146 H   0  0  0  0  0  0  0  0  0  0  0  0
  -42.4689  -29.6065    0.7027 H   0  0  0  0  0  0  0  0  0  0  0  0
  -43.0727  -29.2610    2.3517 H   0  0  0  0  0  0  0  0  0  0  0  0
  -46.5382  -30.2060    0.6376 H   0  0  0  0  0  0  0  0  0  0  0  0
  -44.3519  -30.8752    0.0474 H   0  0  0  0  0  0  0  0  0  0  0  0
  -48.2690  -29.9579    2.1093 H   0  0  0  0  0  0  0  0  0  0  0  0
  -47.7400  -28.2757    2.1420 H   0  0  0  0  0  0  0  0  0  0  0  0
  -50.3618  -30.8239    6.9249 H   0  0  0  0  0  0  0  0  0  0  0  0
  -49.8602  -29.4922    7.9374 H   0  0  0  0  0  0  0  0  0  0  0  0
  -44.2451  -31.3797    3.0465 H   0  0  0  0  0  0  0  0  0  0  0  0
  -43.2543  -32.1463    1.7780 H   0  0  0  0  0  0  0  0  0  0  0  0
  -46.2012  -30.5769    3.0816 H   0  0  0  0  0  0  0  0  0  0  0  0
  -45.1016  -33.3849    2.3362 H   0  0  0  0  0  0  0  0  0  0  0  0
  1  2  1  0  0  0  0
  1  3  2  0  0  0  0
  2  4  2  0  0  0  0
  3  7  1  0  0  0  0
  4  8  1  0  0  0  0
  5  9  1  0  0  0  0
  5 18  2  0  0  0  0
  6  9  2  0  0  0  0
  6 19  1  0  0  0  0
  7  8  2  0  0  0  0
  7 12  1  0  0  0  0
  8 13  1  0  0  0  0
  9 15  1  0  0  0  0
 10 11  2  0  0  0  0
 11 16  1  0  0  0  0
 12 14  1  0  0  0  0
 13 14  1  0  0  0  0
 13 20  1  0  0  0  0
 14 17  1  0  0  0  0
 15 20  1  0  0  0  0
 16 19  1  0  0  0  0
 17 21  1  0  0  0  0
 18 19  1  0  0  0  0
  1 22  1  0  0  0  0
  2 23  1  0  0  0  0
  3 24  1  0  0  0  0
  4 25  1  0  0  0  0
  5 26  1  0  0  0  0
  6 27  1  0  0  0  0
 10 28  1  0  0  0  0
 10 29  1  0  0  0  0
 11 30  1  0  0  0  0
 12 31  1  0  0  0  0
 12 32  1  0  0  0  0
 13 33  1  0  0  0  0
 14 34  1  0  0  0  0
 15 35  1  0  0  0  0
 15 36  1  0  0  0  0
 16 37  1  0  0  0  0
 16 38  1  0  0  0  0
 17 39  1  0  0  0  0
 17 40  1  0  0  0  0
 20 41  1  0  0  0  0
 21 42  1  0  0  0  0
M  END
> <POSIT::Probability>
0.18

> <POSIT::Method>
FRED

> <ReceptorTitle>
UCSF-P4723-REFINED_LIGAND-BOUND-STATE_A__DU__LA1_A-201(A)

> <OMEGA_C>
QXoxwsz9z8GAYgS+xgY3wqiv0cEA9TG+Lgwuws7218GgYa4+ZDo5wmFe28HAZYE+Rbg+wslB4sH5
ZKNAL+5EwrMs7sFk9JRAJUEwwvqU4cGAE0A//cs1whxE48HwWDY/8bVAwvrZ6MEIiIJA2m1QwsFr
5sHS8rBAoGxOwkXl6MHsZddAUmstwuQl68EQLqc/IDo3wsck7sHgWKA/Xbkxwofb88EAs40/ja8+
wmbb6cFA7ipAMgZJwmvb7cFUI95A5tswwsKK/cFQcwBAKHNBwjpI48EL58dARDNFwp2V6sGoHL5A
vh85wvNT7cGsLyhADQI1whF5AsLwuuA/MdcvwolqyMHgSfG+C6E5wpZqy8Hwgw2/h8Mpwomc1sHA
ycI+QIQ9wqGc3MEAIF4+EGU7wg283ME7VKJAsbJHwisP9MHQj4hAnFpUwinL4sEON65ARjdOwgj3
58FEwpNApc1Qwicf58FwqvNAHOApwgva7MGg5DM/c0oswpUW6sGkgRZAESc6wu+l8cGwNiM/ZGgx
wnwA98EAPEI9eBNBwsCp78Eg/gZAxvU+wrc04sFUFglAeXJJwm6X9sG9mN1A4HBHwvnv68Ev//1A
AfswwpsJ+8Eg+kJAZAQtwtaVAMLwlOM/Dc44wn6d9MFkOEVAC2g0whiKBcKogxVA

> <OMEGA_E>
vwDlwA==

> <OMEGA_NBR>
      2629

$$$$
CACHE3HI_1690_74
  -OEChem-03092622523D

 47 49  0     1  0  0  0  0  0999 V2000
  -51.8277  -29.1373    5.3112 C   0  0  0  0  0  0  0  0  0  0  0  0
  -51.4420  -29.7417    6.5078 C   0  0  0  0  0  0  0  0  0  0  0  0
  -50.9373  -28.3061    4.6317 C   0  0  0  0  0  0  0  0  0  0  0  0
  -50.1662  -29.5152    7.0246 C   0  0  0  0  0  0  0  0  0  0  0  0
  -49.6615  -28.0796    5.1485 C   0  0  0  0  0  0  0  0  0  0  0  0
  -46.5343  -28.6596    4.9822 C   0  0  0  0  0  0  0  0  0  0  0  0
  -44.4923  -29.1862    6.6445 C   0  0  0  0  0  0  0  0  0  0  0  0
  -49.2758  -28.6839    6.3451 C   0  0  0  0  0  0  0  0  0  0  0  0
  -45.2568  -28.9051    4.5219 C   0  0  0  0  0  0  0  0  0  0  0  0
  -46.6944  -28.7021    6.3519 C   0  0  0  0  0  0  0  0  0  0  0  0
  -44.0115  -28.5957    1.0478 C   0  0  0  0  0  0  0  0  0  0  0  0
  -43.7797  -28.4779    2.5499 C   0  0  0  0  0  0  0  0  0  0  0  0
  -45.5095  -28.3662    0.9048 C   0  0  2  0  0  0  0  0  0  0  0  0
  -46.0989  -29.0722    2.1395 C   0  0  1  0  0  0  0  0  0  0  0  0
  -45.0520  -31.3559    2.0316 C   0  0  0  0  0  0  0  0  0  0  0  0
  -47.3858  -31.0871    2.9193 C   0  0  0  0  0  0  0  0  0  0  0  0
  -47.2470  -28.2996   -0.6769 C   0  0  0  0  0  0  0  0  0  0  0  0
  -46.3543  -30.5649    1.9205 C   0  0  0  0  0  0  0  0  0  0  0  0
  -44.2085  -29.1728    5.3280 N   0  0  0  0  0  0  0  0  0  0  0  0
  -45.6916  -28.9637    7.2161 N   0  0  0  0  0  0  0  0  0  0  0  0
  -45.0550  -28.8714    3.1549 N   0  0  3  0  0  0  0  0  0  0  0  0
  -47.9913  -28.4552    6.8653 N   0  0  0  0  0  0  0  0  0  0  0  0
  -45.9987  -28.8834   -0.3158 O   0  0  0  0  0  0  0  0  0  0  0  0
  -52.8212  -29.3130    4.9095 H   0  0  0  0  0  0  0  0  0  0  0  0
  -52.1353  -30.3893    7.0368 H   0  0  0  0  0  0  0  0  0  0  0  0
  -51.2376  -27.8355    3.7000 H   0  0  0  0  0  0  0  0  0  0  0  0
  -49.8771  -29.9906    7.9583 H   0  0  0  0  0  0  0  0  0  0  0  0
  -48.9752  -27.4302    4.6108 H   0  0  0  0  0  0  0  0  0  0  0  0
  -47.3586  -28.4469    4.3110 H   0  0  0  0  0  0  0  0  0  0  0  0
  -43.6686  -29.3985    7.3149 H   0  0  0  0  0  0  0  0  0  0  0  0
  -43.4295  -27.8652    0.4770 H   0  0  0  0  0  0  0  0  0  0  0  0
  -43.7300  -29.5910    0.6834 H   0  0  0  0  0  0  0  0  0  0  0  0
  -42.9591  -29.1203    2.8848 H   0  0  0  0  0  0  0  0  0  0  0  0
  -43.5440  -27.4389    2.8100 H   0  0  0  0  0  0  0  0  0  0  0  0
  -45.7271  -27.2896    0.9469 H   0  0  0  0  0  0  0  0  0  0  0  0
  -47.0384  -28.5864    2.4157 H   0  0  0  0  0  0  0  0  0  0  0  0
  -44.6154  -31.2467    3.0299 H   0  0  0  0  0  0  0  0  0  0  0  0
  -44.3162  -30.9982    1.3040 H   0  0  0  0  0  0  0  0  0  0  0  0
  -45.2179  -32.4233    1.8492 H   0  0  0  0  0  0  0  0  0  0  0  0
  -47.0267  -30.9697    3.9472 H   0  0  0  0  0  0  0  0  0  0  0  0
  -48.3350  -30.5485    2.8286 H   0  0  0  0  0  0  0  0  0  0  0  0
  -47.5826  -32.1509    2.7527 H   0  0  0  0  0  0  0  0  0  0  0  0
  -47.5895  -28.7254   -1.6236 H   0  0  0  0  0  0  0  0  0  0  0  0
  -47.9801  -28.5162    0.1039 H   0  0  0  0  0  0  0  0  0  0  0  0
  -47.1299  -27.2177   -0.7731 H   0  0  0  0  0  0  0  0  0  0  0  0
  -46.7553  -30.7024    0.9082 H   0  0  0  0  0  0  0  0  0  0  0  0
  -47.9846  -28.0317    7.7859 H   0  0  0  0  0  0  0  0  0  0  0  0
  1  2  1  0  0  0  0
  1  3  2  0  0  0  0
  2  4  2  0  0  0  0
  3  5  1  0  0  0  0
  4  8  1  0  0  0  0
  5  8  2  0  0  0  0
  6  9  1  0  0  0  0
  6 10  2  0  0  0  0
  7 19  1  0  0  0  0
  7 20  2  0  0  0  0
  8 22  1  0  0  0  0
  9 19  2  0  0  0  0
  9 21  1  0  0  0  0
 10 20  1  0  0  0  0
 10 22  1  0  0  0  0
 11 12  1  0  0  0  0
 11 13  1  0  0  0  0
 12 21  1  0  0  0  0
 13 14  1  0  0  0  0
 13 23  1  0  0  0  0
 14 18  1  0  0  0  0
 14 21  1  0  0  0  0
 15 18  1  0  0  0  0
 16 18  1  0  0  0  0
 17 23  1  0  0  0  0
  1 24  1  0  0  0  0
  2 25  1  0  0  0  0
  3 26  1  0  0  0  0
  4 27  1  0  0  0  0
  5 28  1  0  0  0  0
  6 29  1  0  0  0  0
  7 30  1  0  0  0  0
 11 31  1  0  0  0  0
 11 32  1  0  0  0  0
 12 33  1  0  0  0  0
 12 34  1  0  0  0  0
 13 35  1  0  0  0  0
 14 36  1  0  0  0  0
 15 37  1  0  0  0  0
 15 38  1  0  0  0  0
 15 39  1  0  0  0  0
 16 40  1  0  0  0  0
 16 41  1  0  0  0  0
 16 42  1  0  0  0  0
 17 43  1  0  0  0  0
 17 44  1  0  0  0  0
 17 45  1  0  0  0  0
 18 46  1  0  0  0  0
 22 47  1  0  0  0  0
M  END
> <POSIT::Probability>
0.33

> <POSIT::Method>
HYBRID

> <ReceptorTitle>
UCSF-P4723-REFINED_LIGAND-BOUND-STATE_A__DU__LA1_A-201(A)

> <OMEGA_C>
jU9PwkQZ6cGa9alAn8RNwvfu7cHAP9BAyL9LwvBy4sEgN5RAPapIwgcf7MGCyeBAZ6VGwv6i4MHl
wKRAICM6wt5G5cHhbZ9AF/gxwmB96cF0n9RAdhpFwp945cGrCstAAgc1wp0958GYs5BAFsc6wuKd
5cH8QstAxAswwu7D5MHEHIY/XR4vwrLS48EOMiNAtAk2wv/t4sHAoWc/Q2U4wuaT6ME47ghANTU0
wvzY+sEsBQJAHIs9wm6y+MFw1TpA7fw8wp5l4sFQSC2/1Wo5wvKE9MEs0vU/ddUwwuBh6cHwfqpA
L8Q2wr+158EF6uZAXDg0wqb45sGI6klAE/c/wkWk48GEsNtAtf43wh8R58GAtaG+70hTwhyB6sHb
Gp1Ag4pQwjgd88GcLeFAWfNMwi6v3sHAzGxAHYJHwsfs78E3qv5Am+ZDwiBx28G1i5NANW89wleT
48Hg84lApKwuwjow68HXE+pA2LctwtTr3sEgO/Q+jOsuwnW67MEY8S4/HtYrwnP26MH+oDhAFi0u
wsuC28EQ1zNAmOg2widR2sEQaHI/Tyc8wgKx5MHcmhpANnYywlH5+cHo6UFAvUMxwjz898F06qY/
JN80wn2xAcIYs+w/Yxs8wurB98HSnnxAFVdBwlpj9MF0BzVAlVQ+woyaAMJuLDBAols+wpvN5cEQ
0s+/k+s/wkAh5MGAyNQ9D4U8wvC92cHA50W/YgU7wnOe9cFgfmg/NvA/wvdA4MHlJflA

> <OMEGA_E>
trTpwA==

> <OMEGA_NBR>
      4073

$$$$
CACHE3HI_1691_30
  -OEChem-03092622523D

 40 42  0     0  0  0  0  0  0999 V2000
  -48.8997  -28.7526    6.4891 C   0  0  0  0  0  0  0  0  0  0  0  0
  -47.9748  -27.7268    6.2940 C   0  0  0  0  0  0  0  0  0  0  0  0
  -49.2845  -29.5572    5.4167 C   0  0  0  0  0  0  0  0  0  0  0  0
  -47.4346  -27.5058    5.0270 C   0  0  0  0  0  0  0  0  0  0  0  0
  -44.0896  -30.4482    2.6997 C   0  0  0  0  0  0  0  0  0  0  0  0
  -42.0631  -30.1841    3.6959 C   0  0  0  0  0  0  0  0  0  0  0  0
  -48.7442  -29.3362    4.1497 C   0  0  0  0  0  0  0  0  0  0  0  0
  -43.8599  -29.3650    1.8763 C   0  0  0  0  0  0  0  0  0  0  0  0
  -47.8193  -28.3105    3.9546 C   0  0  0  0  0  0  0  0  0  0  0  0
  -42.6471  -28.7301    2.0484 C   0  0  0  0  0  0  0  0  0  0  0  0
  -44.8729  -28.9467    0.8892 C   0  0  0  0  0  0  0  0  0  0  0  0
  -49.1563  -30.1950    3.0104 C   0  0  0  0  0  0  0  0  0  0  0  0
  -46.7670  -29.8293   -0.5841 C   0  0  0  0  0  0  0  0  0  0  0  0
  -45.8840  -31.3338    0.6594 C   0  0  0  0  0  0  0  0  0  0  0  0
  -47.2375  -31.1995   -0.0636 C   0  0  0  0  0  0  0  0  0  0  0  0
  -48.4624  -31.1727    0.8382 C   0  0  0  0  0  0  0  0  0  0  0  0
  -43.2099  -30.8867    3.6240 N   0  0  0  0  0  0  0  0  0  0  0  0
  -41.7217  -29.1140    2.9524 N   0  0  0  0  0  0  0  0  0  0  0  0
  -45.6797  -29.9265    0.3730 N   0  0  0  0  0  0  0  0  0  0  0  0
  -42.3521  -27.6102    1.2319 N   0  0  0  0  0  0  0  0  0  0  0  0
  -48.2022  -30.3760    2.0314 N   0  0  0  0  0  0  0  0  0  0  0  0
  -44.9505  -27.7547    0.6023 O   0  0  0  0  0  0  0  0  0  0  0  0
  -50.2910  -30.6645    2.9926 O   0  0  0  0  0  0  0  0  0  0  0  0
  -47.2935  -28.0882    2.7415 F   0  0  0  0  0  0  0  0  0  0  0  0
  -49.3201  -28.9246    7.4756 H   0  0  0  0  0  0  0  0  0  0  0  0
  -47.6750  -27.1001    7.1289 H   0  0  0  0  0  0  0  0  0  0  0  0
  -50.0058  -30.3538    5.5791 H   0  0  0  0  0  0  0  0  0  0  0  0
  -46.7144  -26.7072    4.8753 H   0  0  0  0  0  0  0  0  0  0  0  0
  -45.0121  -31.0180    2.6454 H   0  0  0  0  0  0  0  0  0  0  0  0
  -41.3393  -30.5130    4.4316 H   0  0  0  0  0  0  0  0  0  0  0  0
  -46.4415  -29.8145   -1.6290 H   0  0  0  0  0  0  0  0  0  0  0  0
  -47.4259  -28.9775   -0.3811 H   0  0  0  0  0  0  0  0  0  0  0  0
  -45.9258  -31.5404    1.7349 H   0  0  0  0  0  0  0  0  0  0  0  0
  -45.1681  -32.0040    0.1731 H   0  0  0  0  0  0  0  0  0  0  0  0
  -47.3607  -31.9318   -0.8626 H   0  0  0  0  0  0  0  0  0  0  0  0
  -49.3136  -30.7436    0.2975 H   0  0  0  0  0  0  0  0  0  0  0  0
  -48.7347  -32.1931    1.1316 H   0  0  0  0  0  0  0  0  0  0  0  0
  -43.0024  -27.3468    0.5243 H   0  0  0  0  0  0  0  0  0  0  0  0
  -41.4575  -27.1786    1.3128 H   0  0  0  0  0  0  0  0  0  0  0  0
  -47.3083  -29.9108    2.0743 H   0  0  0  0  0  0  0  0  0  0  0  0
  1  2  1  0  0  0  0
  1  3  2  0  0  0  0
  2  4  2  0  0  0  0
  3  7  1  0  0  0  0
  4  9  1  0  0  0  0
  5  8  1  0  0  0  0
  5 17  2  0  0  0  0
  6 17  1  0  0  0  0
  6 18  2  0  0  0  0
  7  9  2  0  0  0  0
  7 12  1  0  0  0  0
  8 10  2  0  0  0  0
  8 11  1  0  0  0  0
  9 24  1  0  0  0  0
 10 18  1  0  0  0  0
 10 20  1  0  0  0  0
 11 19  1  0  0  0  0
 11 22  2  0  0  0  0
 12 21  1  0  0  0  0
 12 23  2  0  0  0  0
 13 15  1  0  0  0  0
 13 19  1  0  0  0  0
 14 15  1  0  0  0  0
 14 19  1  0  0  0  0
 15 16  1  0  0  0  0
 16 21  1  0  0  0  0
  1 25  1  0  0  0  0
  2 26  1  0  0  0  0
  3 27  1  0  0  0  0
  4 28  1  0  0  0  0
  5 29  1  0  0  0  0
  6 30  1  0  0  0  0
 13 31  1  0  0  0  0
 13 32  1  0  0  0  0
 14 33  1  0  0  0  0
 14 34  1  0  0  0  0
 15 35  1  0  0  0  0
 16 36  1  0  0  0  0
 16 37  1  0  0  0  0
 20 38  1  0  0  0  0
 20 39  1  0  0  0  0
 21 40  1  0  0  0  0
M  END
> <POSIT::Probability>
0.05

> <POSIT::Method>
FRED

> <ReceptorTitle>
UCSF-P4723-REFINED_LIGAND-BOUND-STATE_A__DU__LA1_A-201(A)

> <OMEGA_C>
VJlDwkwF5sF6ps9AO+Y/woHQ3cGMaMlASSNFwiV17MFxVa1A/rw9wu8L3MFV3aBAxVswwtCV88FJ
yCxAqEAowhN58cFJimxADPpCwpOw6sE6yoRAlHAvwnzr6sHOK/A/+0Y/wt974sEkGH1AnZYqwkjX
5cGFGQNA0H0zwtOS58GCo2M/CKBEwkKP8cHvqUBAaRE7wmCi7sFkhRW/RIk3wqer+sFczyg/L/M8
wpmY+cFAPYK9gNlBwsdh+cH8lVY/6NYswgYY98Es72dA/uImwpHp6MFy8zxADrg2woFp78Hg974+
hGgpwrnh3MFvsJ0/Gs9AwiIC88EeAwJAUM0zwpwJ3sEkMRo/9ClJwvdQ9cE4hj9Ahiw9wq204MGB
dC9A0UdFwphl58H7N+9APLM+wgrN2MGUH+RA8wVIwpPU8sHsh7JAk9s6wlWo1cHWApxAaQw0wuIk
+MHsTilAelslwp0a9MG4z41AEsQ5wiyE7sEgg9C/G7Q9wgHS58EYIcO+/rM3wr1S/MEiEN4/GKw0
whoEAMIQQjE+YXE9wj10/8Fc1Fy/GkFFwuHy9cF4TJg+TfBCwrLFAMLk2JA/fwIswkTG2sGsNgY/
dNQlwq9t2cHnCqg/pjs9wmZJ78GMwQRA

> <OMEGA_E>
YesswQ==

> <OMEGA_NBR>
      5362

$$$$
CACHE3HI_1696_30
  -OEChem-03092622523D

 41 43  0     1  0  0  0  0  0999 V2000
  -48.2131  -29.1689    3.8409 C   0  0  0  0  0  0  0  0  0  0  0  0
  -44.8460  -29.3031    6.1376 C   0  0  0  0  0  0  0  0  0  0  0  0
  -46.9310  -29.2389    4.4720 C   0  0  0  0  0  0  0  0  0  0  0  0
  -49.2381  -29.0037    4.7467 C   0  0  0  0  0  0  0  0  0  0  0  0
  -45.6328  -29.3974    3.9758 C   0  0  0  0  0  0  0  0  0  0  0  0
  -47.0509  -29.1214    5.8503 C   0  0  0  0  0  0  0  0  0  0  0  0
  -45.7851  -26.0646   -0.1448 C   0  0  0  0  0  0  0  0  0  0  0  0
  -45.1136  -30.9561    0.6150 C   0  0  0  0  0  0  0  0  0  0  0  0
  -44.8330  -29.7153   -0.2244 C   0  0  0  0  0  0  0  0  0  0  0  0
  -44.7646  -30.7393    2.0861 C   0  0  0  0  0  0  0  0  0  0  0  0
  -45.1995  -28.2894    1.8278 C   0  0  0  0  0  0  0  0  0  0  0  0
  -45.5703  -28.5079    0.3560 C   0  0  1  0  0  0  0  0  0  0  0  0
  -50.6889  -28.8895    4.4831 C   0  0  0  0  0  0  0  0  0  0  0  0
  -43.7673  -24.8304   -1.0283 C   0  0  0  0  0  0  0  0  0  0  0  0
  -45.2725  -25.0089   -1.1072 C   0  0  0  0  0  0  0  0  0  0  0  0
  -44.5817  -29.4290    4.8227 N   0  0  0  0  0  0  0  0  0  0  0  0
  -46.0391  -29.1466    6.7388 N   0  0  0  0  0  0  0  0  0  0  0  0
  -45.4070  -29.5248    2.5993 N   0  0  2  0  0  0  0  0  0  0  0  0
  -45.2451  -27.3128   -0.4207 N   0  0  0  0  0  0  0  0  0  0  0  0
  -46.5789  -25.8208    0.7598 O   0  0  0  0  0  0  0  0  0  0  0  0
  -48.6670  -28.9323    6.3577 S   0  0  0  0  0  0  0  0  0  0  0  0
  -48.3752  -29.2363    2.7719 H   0  0  0  0  0  0  0  0  0  0  0  0
  -43.9849  -29.3317    6.7961 H   0  0  0  0  0  0  0  0  0  0  0  0
  -46.1735  -31.2263    0.5278 H   0  0  0  0  0  0  0  0  0  0  0  0
  -44.5379  -31.8026    0.2236 H   0  0  0  0  0  0  0  0  0  0  0  0
  -43.7520  -29.5266   -0.2457 H   0  0  0  0  0  0  0  0  0  0  0  0
  -45.1526  -29.8959   -1.2576 H   0  0  0  0  0  0  0  0  0  0  0  0
  -45.0929  -31.6158    2.6587 H   0  0  0  0  0  0  0  0  0  0  0  0
  -43.6758  -30.6582    2.1999 H   0  0  0  0  0  0  0  0  0  0  0  0
  -44.1501  -27.9769    1.9153 H   0  0  0  0  0  0  0  0  0  0  0  0
  -45.8230  -27.4851    2.2400 H   0  0  0  0  0  0  0  0  0  0  0  0
  -46.6428  -28.6435    0.2595 H   0  0  0  0  0  0  0  0  0  0  0  0
  -51.1867  -29.8732    4.4883 H   0  0  0  0  0  0  0  0  0  0  0  0
  -50.8931  -28.4470    3.4940 H   0  0  0  0  0  0  0  0  0  0  0  0
  -51.1792  -28.2596    5.2419 H   0  0  0  0  0  0  0  0  0  0  0  0
  -43.4696  -24.5376   -0.0168 H   0  0  0  0  0  0  0  0  0  0  0  0
  -43.4256  -24.0568   -1.7232 H   0  0  0  0  0  0  0  0  0  0  0  0
  -43.2471  -25.7614   -1.2812 H   0  0  0  0  0  0  0  0  0  0  0  0
  -45.5547  -25.3017   -2.1247 H   0  0  0  0  0  0  0  0  0  0  0  0
  -45.7670  -24.0584   -0.8778 H   0  0  0  0  0  0  0  0  0  0  0  0
  -44.6192  -27.4194   -1.2144 H   0  0  0  0  0  0  0  0  0  0  0  0
  1  3  1  0  0  0  0
  1  4  2  0  0  0  0
  2 16  1  0  0  0  0
  2 17  2  0  0  0  0
  3  5  1  0  0  0  0
  3  6  2  0  0  0  0
  4 13  1  0  0  0  0
  4 21  1  0  0  0  0
  5 16  2  0  0  0  0
  5 18  1  0  0  0  0
  6 17  1  0  0  0  0
  6 21  1  0  0  0  0
  7 15  1  0  0  0  0
  7 19  1  0  0  0  0
  7 20  2  0  0  0  0
  8  9  1  0  0  0  0
  8 10  1  0  0  0  0
  9 12  1  0  0  0  0
 10 18  1  0  0  0  0
 11 12  1  0  0  0  0
 11 18  1  0  0  0  0
 12 19  1  0  0  0  0
 14 15  1  0  0  0  0
  1 22  1  0  0  0  0
  2 23  1  0  0  0  0
  8 24  1  0  0  0  0
  8 25  1  0  0  0  0
  9 26  1  0  0  0  0
  9 27  1  0  0  0  0
 10 28  1  0  0  0  0
 10 29  1  0  0  0  0
 11 30  1  0  0  0  0
 11 31  1  0  0  0  0
 12 32  1  0  0  0  0
 13 33  1  0  0  0  0
 13 34  1  0  0  0  0
 13 35  1  0  0  0  0
 14 36  1  0  0  0  0
 14 37  1  0  0  0  0
 14 38  1  0  0  0  0
 15 39  1  0  0  0  0
 15 40  1  0  0  0  0
 19 41  1  0  0  0  0
M  END
> <POSIT::Probability>
0.42

> <POSIT::Method>
HYBRID

> <ReceptorTitle>
UCSF-P4723-REFINED_LIGAND-BOUND-STATE_A__DU__LA1_A-201(A)

> <OMEGA_C>
O9pAwtlZ6cGw0HVAUmIzws5s6sF0Z8RAYbk7wk/p6cFqGo9A2fNEwo8H6MHi5JdA+Yc2wtUt68Gw
c35AHTQ8wqX46MF2NbtA+yM3wkWE0MHgOhS+TXQ0wgGm98HYbx0/+lQzwgC57cEA1GW++A4zwgXq
9cEgggVAUsw0wrtQ4sHQ9Ok//Uc2wigQ5MGQQrY+bsFKwr8d58FudY9AshEvwrSkxsFwnoO/CBc1
wkASyMFMuo2/slMywqNu68HAU5pACSg4wkIs6cGYpNdAv6A1ws4y7MHcWiZA+fo0woqA2sFwade+
0lA6wheRzsHQgUI/96pCwmR158EgcstAL4BBwgLk6cFiZjFAkPAvwkKn6sHpedlAs7E4wnvP+cHY
Ggc/0yYywrhr/sFg9mQ+EAIvwpI27MEgjXu+P5w0wuMq78E8+aC/Gl80wiDt/MFoJypA/bMuwghE
9cE4ywxAu5kwwrHQ38FoKfU/u0o3wn3h28GkXA9AQJI6wv0l5cHw4IQ+Mr9MwlX87sFwoI9Ai5JL
wl+T48HcnV9AibdMwsAT4sEGvqdA4OAtwuhMxMEAlYm807MtwkF0wME8kty/Af0swmIXzsGM/6O/
Bjg2wuJpysFi+wfAaRE3wq53wMGwtmC/F3oywtda28EAcpu/

> <OMEGA_E>
znAFwQ==

> <OMEGA_NBR>
      6686

$$$$
CACHE3HI_1696_77
  -OEChem-03092622523D

 34 38  0     1  0  0  0  0  0999 V2000
  -45.9203  -33.2719    0.1874 C   0  0  0  0  0  0  0  0  0  0  0  0
  -45.0733  -33.1581    1.2964 C   0  0  0  0  0  0  0  0  0  0  0  0
  -46.6832  -32.1836   -0.2308 C   0  0  0  0  0  0  0  0  0  0  0  0
  -44.9816  -31.9545    2.0018 C   0  0  0  0  0  0  0  0  0  0  0  0
  -49.2266  -28.9124    6.9469 C   0  0  0  0  0  0  0  0  0  0  0  0
  -44.8494  -29.0359    6.3470 C   0  0  0  0  0  0  0  0  0  0  0  0
  -47.4106  -29.0699    5.6178 C   0  0  0  0  0  0  0  0  0  0  0  0
  -46.5861  -30.9963    0.4816 C   0  0  0  0  0  0  0  0  0  0  0  0
  -45.7434  -30.8600    1.6023 C   0  0  0  0  0  0  0  0  0  0  0  0
  -48.8288  -29.0476    5.6337 C   0  0  0  0  0  0  0  0  0  0  0  0
  -46.9885  -28.9464    6.9358 C   0  0  0  0  0  0  0  0  0  0  0  0
  -46.4130  -29.1803    4.6500 C   0  0  0  0  0  0  0  0  0  0  0  0
  -47.3090  -29.7068    0.1676 C   0  0  0  0  0  0  0  0  0  0  0  0
  -47.8419  -28.8038    2.5878 C   0  0  0  0  0  0  0  0  0  0  0  0
  -45.8513  -29.4272    2.1775 C   0  0  1  0  0  0  0  0  0  0  0  0
  -46.9613  -28.7392    1.3265 C   0  0  1  0  0  0  0  0  0  0  0  0
  -45.7175  -28.9224    7.3730 N   0  0  0  0  0  0  0  0  0  0  0  0
  -45.1140  -29.1621    5.0272 N   0  0  0  0  0  0  0  0  0  0  0  0
  -48.1015  -28.8522    7.7285 N   0  0  0  0  0  0  0  0  0  0  0  0
  -46.7172  -29.3082    3.3022 N   0  0  1  0  0  0  0  0  0  0  0  0
  -49.9728  -29.1766    4.1553 Br  0  0  0  0  0  0  0  0  0  0  0  0
  -45.9785  -34.2131   -0.3519 H   0  0  0  0  0  0  0  0  0  0  0  0
  -44.4808  -34.0131    1.6106 H   0  0  0  0  0  0  0  0  0  0  0  0
  -47.3342  -32.2664   -1.0946 H   0  0  0  0  0  0  0  0  0  0  0  0
  -44.3201  -31.8777    2.8595 H   0  0  0  0  0  0  0  0  0  0  0  0
  -50.2072  -28.8532    7.3985 H   0  0  0  0  0  0  0  0  0  0  0  0
  -43.7986  -29.0260    6.6158 H   0  0  0  0  0  0  0  0  0  0  0  0
  -46.9308  -29.3065   -0.7793 H   0  0  0  0  0  0  0  0  0  0  0  0
  -48.3895  -29.8630    0.0915 H   0  0  0  0  0  0  0  0  0  0  0  0
  -48.1798  -27.8378    2.9727 H   0  0  0  0  0  0  0  0  0  0  0  0
  -48.6763  -29.5108    2.5536 H   0  0  0  0  0  0  0  0  0  0  0  0
  -44.9200  -28.8638    2.2870 H   0  0  0  0  0  0  0  0  0  0  0  0
  -46.7298  -27.7198    0.9978 H   0  0  0  0  0  0  0  0  0  0  0  0
  -48.0942  -28.7530    8.7342 H   0  0  0  0  0  0  0  0  0  0  0  0
  1  2  1  0  0  0  0
  1  3  2  0  0  0  0
  2  4  2  0  0  0  0
  3  8  1  0  0  0  0
  4  9  1  0  0  0  0
  5 10  2  0  0  0  0
  5 19  1  0  0  0  0
  6 17  2  0  0  0  0
  6 18  1  0  0  0  0
  7 10  1  0  0  0  0
  7 11  2  0  0  0  0
  7 12  1  0  0  0  0
  8  9  2  0  0  0  0
  8 13  1  0  0  0  0
  9 15  1  0  0  0  0
 10 21  1  0  0  0  0
 11 17  1  0  0  0  0
 11 19  1  0  0  0  0
 12 18  2  0  0  0  0
 12 20  1  0  0  0  0
 13 16  1  0  0  0  0
 14 16  1  0  0  0  0
 14 20  1  0  0  0  0
 15 16  1  0  0  0  0
 15 20  1  0  0  0  0
  1 22  1  0  0  0  0
  2 23  1  0  0  0  0
  3 24  1  0  0  0  0
  4 25  1  0  0  0  0
  5 26  1  0  0  0  0
  6 27  1  0  0  0  0
 13 28  1  0  0  0  0
 13 29  1  0  0  0  0
 14 30  1  0  0  0  0
 14 31  1  0  0  0  0
 15 32  1  0  0  0  0
 16 33  1  0  0  0  0
 19 34  1  0  0  0  0
M  END
> <POSIT::Probability>
0.14

> <POSIT::Method>
HYBRID

> <ReceptorTitle>
UCSF-P4723-REFINED_LIGAND-BOUND-STATE_A__DU__LA1_A-201(A)

> <OMEGA_C>
Y643wmcWBcIg5D8+Eks0wuKhBMLO8KU/pLs6wgG8AMLAV2y+KO0zwsai/8GyHQBAEOhEwoJM58Gc
TN5AyWUzwpBJ6MGcGstAdKQ9whqP6MFCxbNALlg6wn7498HAjvY+Mfk2wljh9sEeF80/pVBDwpFh
6MGPR7RAPfQ7wkKS58G+8d1A86Y5wkxx6cG2zJRAaTw9wn2n7cEwqCs+Fl4/wjBu5sHiniVAxWc3
wtlq68G5XAtAUtg7wvjp5cHSyak/s942wgph58Gi7+tAuXQ0wu1L6cGT3qBA7GdAwj3R5sEFUPdA
Yt46wjJ36sGhVlNAI+RHwrtp6cHz94RAB+o3wkPaCMLELrS+WOwxwl8NCMJGKM4/QlY9wtEQAcLB
G4y/0UcxwngF/8EKAjdAKNRIwnPT5sHowOxAvTEvwk016ME8tNNAJLk7wrFz6sFSfke/1Y5BwnHn
7sHAWbs9HrhAwt6z3sFzQT5AiLRCwi0W7MFjbSNAIa4zwijp5sHsXhJAVOs6wjHC3cFUcn8/bGBA
wh8G5sE+vwtB

> <OMEGA_E>
yawmwQ==

> <OMEGA_NBR>
      7880

$$$$
CACHE3HI_1700_21
  -OEChem-03092622523D

 38 41  0     1  0  0  0  0  0999 V2000
  -44.8310  -25.2769   -0.7714 C   0  0  0  0  0  0  0  0  0  0  0  0
  -43.7200  -25.8422   -0.1200 C   0  0  0  0  0  0  0  0  0  0  0  0
  -45.9561  -26.0711   -1.0538 C   0  0  0  0  0  0  0  0  0  0  0  0
  -43.7298  -27.2006    0.2488 C   0  0  0  0  0  0  0  0  0  0  0  0
  -45.9696  -27.4295   -0.6877 C   0  0  0  0  0  0  0  0  0  0  0  0
  -44.2521  -29.3608    6.6608 C   0  0  0  0  0  0  0  0  0  0  0  0
  -48.8214  -28.9205    5.6504 C   0  0  0  0  0  0  0  0  0  0  0  0
  -44.8632  -28.0134   -0.0191 C   0  0  0  0  0  0  0  0  0  0  0  0
  -46.5837  -29.2518    5.2425 C   0  0  0  0  0  0  0  0  0  0  0  0
  -45.3419  -29.5007    4.5771 C   0  0  0  0  0  0  0  0  0  0  0  0
  -46.5617  -29.0922    6.6436 C   0  0  0  0  0  0  0  0  0  0  0  0
  -46.1739  -30.0313    0.8565 C   0  0  0  0  0  0  0  0  0  0  0  0
  -46.3855  -29.4722    2.2619 C   0  0  0  0  0  0  0  0  0  0  0  0
  -43.8195  -29.6053    2.5896 C   0  0  0  0  0  0  0  0  0  0  0  0
  -44.8539  -29.5370    0.2268 C   0  0  2  0  0  0  0  0  0  0  0  0
  -43.6906  -30.0526    1.1136 C   0  0  2  0  0  0  0  0  0  0  0  0
  -44.2066  -29.5402    5.3228 N   0  0  0  0  0  0  0  0  0  0  0  0
  -45.4047  -29.1502    7.3279 N   0  0  0  0  0  0  0  0  0  0  0  0
  -47.8897  -29.1186    4.7490 N   0  0  0  0  0  0  0  0  0  0  0  0
  -45.2128  -29.6987    3.1713 N   0  0  1  0  0  0  0  0  0  0  0  0
  -43.6699  -31.4769    1.0568 O   0  0  0  0  0  0  0  0  0  0  0  0
  -48.1637  -28.8497    7.2565 S   0  0  0  0  0  0  0  0  0  0  0  0
  -44.8198  -24.2347   -1.0541 H   0  0  0  0  0  0  0  0  0  0  0  0
  -42.8561  -25.2317    0.0981 H   0  0  0  0  0  0  0  0  0  0  0  0
  -46.8108  -25.6382   -1.5522 H   0  0  0  0  0  0  0  0  0  0  0  0
  -42.8682  -27.6283    0.7397 H   0  0  0  0  0  0  0  0  0  0  0  0
  -46.8333  -28.0353   -0.9187 H   0  0  0  0  0  0  0  0  0  0  0  0
  -43.3278  -29.3873    7.2188 H   0  0  0  0  0  0  0  0  0  0  0  0
  -49.8715  -28.8141    5.4216 H   0  0  0  0  0  0  0  0  0  0  0  0
  -46.1510  -31.1297    0.9117 H   0  0  0  0  0  0  0  0  0  0  0  0
  -47.0119  -29.7136    0.2187 H   0  0  0  0  0  0  0  0  0  0  0  0
  -46.5636  -28.3895    2.1842 H   0  0  0  0  0  0  0  0  0  0  0  0
  -47.2684  -29.9584    2.7023 H   0  0  0  0  0  0  0  0  0  0  0  0
  -43.1544  -30.2375    3.1962 H   0  0  0  0  0  0  0  0  0  0  0  0
  -43.4919  -28.5574    2.6576 H   0  0  0  0  0  0  0  0  0  0  0  0
  -44.7565  -30.0257   -0.7539 H   0  0  0  0  0  0  0  0  0  0  0  0
  -42.7489  -29.6492    0.7131 H   0  0  0  0  0  0  0  0  0  0  0  0
  -43.5908  -31.7571    0.1526 H   0  0  0  0  0  0  0  0  0  0  0  0
  1  2  1  0  0  0  0
  1  3  2  0  0  0  0
  2  4  2  0  0  0  0
  3  5  1  0  0  0  0
  4  8  1  0  0  0  0
  5  8  2  0  0  0  0
  6 17  1  0  0  0  0
  6 18  2  0  0  0  0
  7 19  2  0  0  0  0
  7 22  1  0  0  0  0
  8 15  1  0  0  0  0
  9 10  1  0  0  0  0
  9 11  2  0  0  0  0
  9 19  1  0  0  0  0
 10 17  2  0  0  0  0
 10 20  1  0  0  0  0
 11 18  1  0  0  0  0
 11 22  1  0  0  0  0
 12 13  1  0  0  0  0
 12 15  1  0  0  0  0
 13 20  1  0  0  0  0
 14 16  1  0  0  0  0
 14 20  1  0  0  0  0
 15 16  1  0  0  0  0
 16 21  1  0  0  0  0
  1 23  1  0  0  0  0
  2 24  1  0  0  0  0
  3 25  1  0  0  0  0
  4 26  1  0  0  0  0
  5 27  1  0  0  0  0
  6 28  1  0  0  0  0
  7 29  1  0  0  0  0
 12 30  1  0  0  0  0
 12 31  1  0  0  0  0
 13 32  1  0  0  0  0
 13 33  1  0  0  0  0
 14 34  1  0  0  0  0
 14 35  1  0  0  0  0
 15 36  1  0  0  0  0
 16 37  1  0  0  0  0
 21 38  1  0  0  0  0
M  END
> <POSIT::Probability>
0.83

> <POSIT::Method>
SHAPEFIT

> <ReceptorTitle>
UCSF-P4723-REFINED_LIGAND-BOUND-STATE_A__DU__LA1_A-201(A)

> <OMEGA_C>
8lIzwio3ysGGeEW/PuEuwr68zsG4qfW9DNM3wrOR0MHX4oa/XesuwsOa2cHAxn4+2OA3wo9v28HS
DjC/HQIxwgXj6sEvJdVAEElDwh9d58FK0LRA53Mzwokb4MFgfpy8ulU6wrUD6sFJwqdAE141wlsB
7MFKd5JAMT86wum86MFymNRAH7I4wi1A8MEZRls/t4o5wg/H68EwwxBANUcvwqPX7MFcvCVAWmoz
wrdL7MHUMWg+M8MuwqVr8MG8i44/j9MwwkdS7ME0VKpAYp41wokz6cHxfepACY8/wufy6MGZ95dA
6Nk0wvOW7cFM90pA8a0uwsfQ+8GiRoc/qadAwi7M5sF7NehAf0czwpXgwcGl7Ia/rWwrwo7aycGz
6sg9Qz47wvUazcGnrsa/B3krwtYG3cG7Wz0/SFU7wldI4MGnMGu/p08twjAZ68GvAOdAYHxHwjmD
5sHkfa1Ao5o4wqgJ+cGXYmk/Nww8woa17cEf8F8+HUE6wrEd48FqygtA4RI9wseq78Ek8yxAF54s
wmPm8cHjjUxAtvctwpd15MGGFSpAqwYzwrY08MHz/UC/3/4qwpQx7cHNizY//lwuwpwO/sFuNhw+

> <OMEGA_E>
ZHf5Pg==

> <OMEGA_NBR>
      9170

$$$$
CACHE3HI_1700_30
  -OEChem-03092622523D

 44 47  0     1  0  0  0  0  0999 V2000
  -47.6113  -29.3858    4.8011 C   0  0  0  0  0  0  0  0  0  0  0  0
  -48.5733  -29.2438    5.7948 C   0  0  0  0  0  0  0  0  0  0  0  0
  -49.3633  -29.5443    3.2002 C   0  0  0  0  0  0  0  0  0  0  0  0
  -45.9572  -29.9708    0.2844 C   0  0  0  0  0  0  0  0  0  0  0  0
  -48.0051  -29.5394    3.4765 C   0  0  0  0  0  0  0  0  0  0  0  0
  -45.1138  -29.8569    1.3696 C   0  0  0  0  0  0  0  0  0  0  0  0
  -49.9057  -29.2618    5.4153 C   0  0  0  0  0  0  0  0  0  0  0  0
  -47.0300  -29.6889    2.4221 C   0  0  0  0  0  0  0  0  0  0  0  0
  -52.8857  -28.6597    7.5079 C   0  0  0  0  0  0  0  0  0  0  0  0
  -42.9483  -28.9482    2.3577 C   0  0  0  0  0  0  0  0  0  0  0  0
  -42.9197  -31.2804    1.4330 C   0  0  0  0  0  0  0  0  0  0  0  0
  -52.2893  -29.1176    6.1769 C   0  0  0  0  0  0  0  0  0  0  0  0
  -50.5216  -28.9544    7.8290 C   0  0  0  0  0  0  0  0  0  0  0  0
  -42.8937  -29.5792    3.7428 C   0  0  0  0  0  0  0  0  0  0  0  0
  -42.7933  -31.7739    2.8733 C   0  0  0  0  0  0  0  0  0  0  0  0
  -43.5883  -29.8946    1.3199 C   0  0  0  0  0  0  0  0  0  0  0  0
  -51.8646  -29.1170    8.5400 C   0  0  2  0  0  0  0  0  0  0  0  0
  -50.3267  -29.4089    4.1391 N   0  0  0  0  0  0  0  0  0  0  0  0
  -45.7273  -29.6952    2.5963 N   0  0  0  0  0  0  0  0  0  0  0  0
  -50.8484  -29.1196    6.4123 N   0  0  3  0  0  0  0  0  0  0  0  0
  -42.1601  -30.8003    3.6996 O   0  0  0  0  0  0  0  0  0  0  0  0
  -52.0816  -30.4816    8.8811 O   0  0  0  0  0  0  0  0  0  0  0  0
  -47.5866  -29.8745    0.8099 S   0  0  0  0  0  0  0  0  0  0  0  0
  -46.5590  -29.3746    5.0738 H   0  0  0  0  0  0  0  0  0  0  0  0
  -48.2746  -29.1233    6.8311 H   0  0  0  0  0  0  0  0  0  0  0  0
  -49.7366  -29.6605    2.1867 H   0  0  0  0  0  0  0  0  0  0  0  0
  -45.7062  -30.1028   -0.7583 H   0  0  0  0  0  0  0  0  0  0  0  0
  -52.9636  -27.5662    7.5168 H   0  0  0  0  0  0  0  0  0  0  0  0
  -53.8788  -29.0902    7.6679 H   0  0  0  0  0  0  0  0  0  0  0  0
  -43.5414  -28.0189    2.4103 H   0  0  0  0  0  0  0  0  0  0  0  0
  -41.9362  -28.6539    2.0358 H   0  0  0  0  0  0  0  0  0  0  0  0
  -41.9209  -31.2653    0.9532 H   0  0  0  0  0  0  0  0  0  0  0  0
  -43.5165  -32.0165    0.8562 H   0  0  0  0  0  0  0  0  0  0  0  0
  -52.6171  -30.1361    5.9230 H   0  0  0  0  0  0  0  0  0  0  0  0
  -52.5802  -28.4462    5.3571 H   0  0  0  0  0  0  0  0  0  0  0  0
  -50.1147  -27.9445    7.9823 H   0  0  0  0  0  0  0  0  0  0  0  0
  -49.7780  -29.6941    8.1578 H   0  0  0  0  0  0  0  0  0  0  0  0
  -42.4372  -28.9029    4.4721 H   0  0  0  0  0  0  0  0  0  0  0  0
  -43.9053  -29.8090    4.0867 H   0  0  0  0  0  0  0  0  0  0  0  0
  -43.7902  -31.9659    3.2867 H   0  0  0  0  0  0  0  0  0  0  0  0
  -42.2322  -32.7167    2.9219 H   0  0  0  0  0  0  0  0  0  0  0  0
  -43.3094  -29.4736    0.3073 H   0  0  0  0  0  0  0  0  0  0  0  0
  -51.9212  -28.5193    9.4645 H   0  0  0  0  0  0  0  0  0  0  0  0
  -51.4061  -30.7150    9.5373 H   0  0  0  0  0  0  0  0  0  0  0  0
  1  2  1  0  0  0  0
  1  5  2  0  0  0  0
  2  7  2  0  0  0  0
  3  5  1  0  0  0  0
  3 18  2  0  0  0  0
  4  6  2  0  0  0  0
  4 23  1  0  0  0  0
  5  8  1  0  0  0  0
  6 16  1  0  0  0  0
  6 19  1  0  0  0  0
  7 18  1  0  0  0  0
  7 20  1  0  0  0  0
  8 19  2  0  0  0  0
  8 23  1  0  0  0  0
  9 12  1  0  0  0  0
  9 17  1  0  0  0  0
 10 14  1  0  0  0  0
 10 16  1  0  0  0  0
 11 15  1  0  0  0  0
 11 16  1  0  0  0  0
 12 20  1  0  0  0  0
 13 17  1  0  0  0  0
 13 20  1  0  0  0  0
 14 21  1  0  0  0  0
 15 21  1  0  0  0  0
 17 22  1  0  0  0  0
  1 24  1  0  0  0  0
  2 25  1  0  0  0  0
  3 26  1  0  0  0  0
  4 27  1  0  0  0  0
  9 28  1  0  0  0  0
  9 29  1  0  0  0  0
 10 30  1  0  0  0  0
 10 31  1  0  0  0  0
 11 32  1  0  0  0  0
 11 33  1  0  0  0  0
 12 34  1  0  0  0  0
 12 35  1  0  0  0  0
 13 36  1  0  0  0  0
 13 37  1  0  0  0  0
 14 38  1  0  0  0  0
 14 39  1  0  0  0  0
 15 40  1  0  0  0  0
 15 41  1  0  0  0  0
 16 42  1  0  0  0  0
 17 43  1  0  0  0  0
 22 44  1  0  0  0  0
M  END
> <POSIT::Probability>
0.05

> <POSIT::Method>
FRED

> <ReceptorTitle>
UCSF-P4723-REFINED_LIGAND-BOUND-STATE_A__DU__LA1_A-201(A)

> <OMEGA_C>
/nE+wjAW68E5oplAB0tCwlfz6cFUb7lAD3RFwsxa7MEo0ExANNQ3wk3E78FdnpE+RgVAwshQ7MFr
fl5AgHQ0wuHa7sGPTa8/bp9Hwi8Y6sHHSa1Avh48wvSC7cH/AhtAAotTwiBH5cESQfBAGMsrwuqV
58Hw5BZA0a0rwjM++sFDbLc/QihRwuvw6MFXqcVAHBZKwo2i58HXhvpAGZMrwkWi7MGSim9AXywr
wugw/sGQ4zdAdlouwhgo78ED86g/X3VPwojv6MHaowhBf05JwodF68GYc4RAv+g2wq2P7cE0KiZA
t2RLwvz06MFZMc1A8KMowvtm9sHNxmxAhlNQwl3a88EMGQ5Brlg+wg7/7sEOU08/aDw6wjj/6sFz
XKJAJRlBwpL86MH+l9pAUPJGwqpI7cFa8wtAHNM2woPS8MESI0K/x9pTwouH3MH/ifBA7INXwsi4
6MGwX/VAXiouwqIm4MHlQRpAtr4nwiA75cH9SgJACq8nwmwf+sGOA3Q/7xAuwtoQAMIOLls/9HdS
wq8W8cENib1AIlJSwr+R48GabatAenVIwk+O38ESb/9ApxxHwm6N7cFGhgJBt78pwio558EsG49A
DJ8vwu147sFexoJAJykvwiy6/8H8WFJAye0owtvdAsLwADtA2Twtwv7J68GNW50+T69Pwo8n5MGf
bhdB159Nwjq49cHcmBhB

> <OMEGA_E>
dzUGwQ==

> <OMEGA_NBR>
     10548

$$$$
CACHE3HI_1700_44
  -OEChem-03092622523D

 43 46  0     1  0  0  0  0  0999 V2000
  -43.9893  -29.8835    3.6764 C   0  0  0  0  0  0  0  0  0  0  0  0
  -48.0187  -28.3534    6.6482 C   0  0  0  0  0  0  0  0  0  0  0  0
  -47.0476  -28.2371    5.6458 C   0  0  0  0  0  0  0  0  0  0  0  0
  -49.2814  -28.8593    6.3478 C   0  0  0  0  0  0  0  0  0  0  0  0
  -47.3290  -28.6152    4.3276 C   0  0  0  0  0  0  0  0  0  0  0  0
  -47.3684  -28.8959    1.2814 C   0  0  0  0  0  0  0  0  0  0  0  0
  -48.7787  -29.9344   -0.7540 C   0  0  0  0  0  0  0  0  0  0  0  0
  -49.5414  -29.2371    5.0398 C   0  0  0  0  0  0  0  0  0  0  0  0
  -48.5909  -29.1049    4.0198 C   0  0  0  0  0  0  0  0  0  0  0  0
  -48.5953  -29.4986    1.4698 C   0  0  0  0  0  0  0  0  0  0  0  0
  -46.9133  -28.8612   -0.0206 C   0  0  0  0  0  0  0  0  0  0  0  0
  -50.8122  -29.7837    4.4848 C   0  0  0  0  0  0  0  0  0  0  0  0
  -44.6508  -29.8990    1.2828 C   0  0  0  0  0  0  0  0  0  0  0  0
  -42.7902  -28.4814    2.0168 C   0  0  0  0  0  0  0  0  0  0  0  0
  -50.3623  -30.2406    3.0853 C   0  0  0  0  0  0  0  0  0  0  0  0
  -43.4924  -29.8165    2.2935 C   0  0  1  0  0  0  0  0  0  0  0  0
  -44.4539  -28.7132    0.3388 C   0  0  2  0  0  0  0  0  0  0  0  0
  -43.8034  -27.6601    1.2253 C   0  0  2  0  0  0  0  0  0  0  0  0
  -44.3821  -29.9359    4.7674 N   0  0  0  0  0  0  0  0  0  0  0  0
  -49.3302  -30.0304    0.4709 N   0  0  0  0  0  0  0  0  0  0  0  0
  -47.5948  -29.3731   -1.0668 N   0  0  0  0  0  0  0  0  0  0  0  0
  -49.0924  -29.5540    2.7762 N   0  0  0  0  0  0  0  0  0  0  0  0
  -45.6842  -28.2636   -0.2517 N   0  0  0  0  0  0  0  0  0  0  0  0
  -43.1628  -26.6640    0.4515 O   0  0  0  0  0  0  0  0  0  0  0  0
  -47.7834  -28.0518    7.6649 H   0  0  0  0  0  0  0  0  0  0  0  0
  -46.0641  -27.8466    5.8938 H   0  0  0  0  0  0  0  0  0  0  0  0
  -50.0364  -28.9543    7.1206 H   0  0  0  0  0  0  0  0  0  0  0  0
  -46.5639  -28.5161    3.5640 H   0  0  0  0  0  0  0  0  0  0  0  0
  -46.7992  -28.4765    2.1032 H   0  0  0  0  0  0  0  0  0  0  0  0
  -49.3476  -30.3533   -1.5750 H   0  0  0  0  0  0  0  0  0  0  0  0
  -51.1927  -30.6225    5.0745 H   0  0  0  0  0  0  0  0  0  0  0  0
  -51.5665  -28.9932    4.4177 H   0  0  0  0  0  0  0  0  0  0  0  0
  -44.6297  -30.8450    0.7297 H   0  0  0  0  0  0  0  0  0  0  0  0
  -45.6242  -29.8432    1.7883 H   0  0  0  0  0  0  0  0  0  0  0  0
  -42.4595  -27.9535    2.9183 H   0  0  0  0  0  0  0  0  0  0  0  0
  -41.8923  -28.6506    1.4075 H   0  0  0  0  0  0  0  0  0  0  0  0
  -50.1998  -31.3302    3.0833 H   0  0  0  0  0  0  0  0  0  0  0  0
  -51.1323  -30.0239    2.3308 H   0  0  0  0  0  0  0  0  0  0  0  0
  -42.7887  -30.6412    2.1316 H   0  0  0  0  0  0  0  0  0  0  0  0
  -43.7581  -28.9955   -0.4815 H   0  0  0  0  0  0  0  0  0  0  0  0
  -44.5272  -27.1875    1.9012 H   0  0  0  0  0  0  0  0  0  0  0  0
  -45.6527  -27.4623   -0.8734 H   0  0  0  0  0  0  0  0  0  0  0  0
  -42.6814  -26.0870    1.0691 H   0  0  0  0  0  0  0  0  0  0  0  0
  1 16  1  0  0  0  0
  1 19  3  0  0  0  0
  2  3  1  0  0  0  0
  2  4  2  0  0  0  0
  3  5  2  0  0  0  0
  4  8  1  0  0  0  0
  5  9  1  0  0  0  0
  6 10  1  0  0  0  0
  6 11  2  0  0  0  0
  7 20  1  0  0  0  0
  7 21  2  0  0  0  0
  8  9  2  0  0  0  0
  8 12  1  0  0  0  0
  9 22  1  0  0  0  0
 10 20  2  0  0  0  0
 10 22  1  0  0  0  0
 11 21  1  0  0  0  0
 11 23  1  0  0  0  0
 12 15  1  0  0  0  0
 13 16  1  0  0  0  0
 13 17  1  0  0  0  0
 14 16  1  0  0  0  0
 14 18  1  0  0  0  0
 15 22  1  0  0  0  0
 17 18  1  0  0  0  0
 17 23  1  0  0  0  0
 18 24  1  0  0  0  0
  2 25  1  0  0  0  0
  3 26  1  0  0  0  0
  4 27  1  0  0  0  0
  5 28  1  0  0  0  0
  6 29  1  0  0  0  0
  7 30  1  0  0  0  0
 12 31  1  0  0  0  0
 12 32  1  0  0  0  0
 13 33  1  0  0  0  0
 13 34  1  0  0  0  0
 14 35  1  0  0  0  0
 14 36  1  0  0  0  0
 15 37  1  0  0  0  0
 15 38  1  0  0  0  0
 16 39  1  0  0  0  0
 17 40  1  0  0  0  0
 18 41  1  0  0  0  0
 23 42  1  0  0  0  0
 24 43  1  0  0  0  0
M  END
> <POSIT::Probability>
0.24

> <POSIT::Method>
FRED

> <ReceptorTitle>
UCSF-P4723-REFINED_LIGAND-BOUND-STATE_A__DU__LA1_A-201(A)

> <OMEGA_C>
EvUvwmIR78HeSWtAMRNAwsbT4sHCvdRAwjA8wpDl4cFeqrRAMiBFws/f5sHvIMtA7VA9wuzr5MGt
e4pASnk9wrsq58HJBaQ/Xx1DwsB578HoBkG/bCpGwoDl6cGuRaFAF11Cwr7W6MExooBAlmFCwjT9
68GCIbw/N6c7wsDj5sHg66i8qj9LwgFF7sF2g49Abpoywiox78EOM6Q/MykrwvDZ48HmEgFABnNJ
wqns8cGCdUVAMPgtwimI7sEqyRJAztAxwqy05cH+dK0+qTYvwtBH3cEP1pw/SIcxwtB878FHjphA
I1JFwi4+8MG+G/E+DmE+whr86sHii4i/nV5Ewphu7MGdrTFAqbw2wtYb4sHs4YC+vqYswtRP1cHG
Kuc+NSI/whpq4MHuRvVAqEE4wvDF3sG4mbxATSVIwm2i58FW3ONAbEE6wvAg5MHaF2RAazI7wvfP
48GXmgZA6GNFwo3T8sEcmcm/UcVMwuz69MF3YqJAJEROwg7y58FoXY1Aw4QywoDC9sFezTo/I382
wu++7sFf5+Q/j9YpwsCg38HAxTpAvJEnwmo05cGLKbQ/oMxIwj6k+sG7VEVAdYdMwugw8MEVKxVA
nCcrwhoh9cGMbAhAWAgvwtX258F4i/a+0xsywvp/2cHOWvM/XZw2wtiy28GUll+/xbkqwi+y0MFo
14g/

> <OMEGA_E>
aEgcwQ==

> <OMEGA_NBR>
     11910

$$$$
CACHE3HI_1700_8
  -OEChem-03092622523D

 56 59  0     1  0  0  0  0  0999 V2000
  -52.4733  -30.8174    4.7638 C   0  0  0  0  0  0  0  0  0  0  0  0
  -52.3518  -30.2204    6.0152 C   0  0  0  0  0  0  0  0  0  0  0  0
  -51.3993  -30.7976    3.8726 C   0  0  0  0  0  0  0  0  0  0  0  0
  -51.1563  -29.6009    6.3802 C   0  0  0  0  0  0  0  0  0  0  0  0
  -49.0979  -30.1480    3.3396 C   0  0  0  0  0  0  0  0  0  0  0  0
  -47.9023  -29.5285    3.7047 C   0  0  0  0  0  0  0  0  0  0  0  0
  -44.5494  -32.5454   -0.9490 C   0  0  0  0  0  0  0  0  0  0  0  0
  -48.8548  -28.9514    5.8473 C   0  0  0  0  0  0  0  0  0  0  0  0
  -45.4304  -33.2208   -1.7686 C   0  0  0  0  0  0  0  0  0  0  0  0
  -47.2112  -32.3631   -0.6452 C   0  0  0  0  0  0  0  0  0  0  0  0
  -50.1888  -30.1782    4.2237 C   0  0  0  0  0  0  0  0  0  0  0  0
  -50.0653  -29.5710    5.4961 C   0  0  0  0  0  0  0  0  0  0  0  0
  -47.7817  -28.9312    4.9562 C   0  0  0  0  0  0  0  0  0  0  0  0
  -45.1248  -31.7703    0.0368 C   0  0  0  0  0  0  0  0  0  0  0  0
  -42.1276  -30.9230    2.1153 C   0  0  0  0  0  0  0  0  0  0  0  0
  -43.5686  -28.8969    1.8348 C   0  0  0  0  0  0  0  0  0  0  0  0
  -43.2998  -31.8147    1.7058 C   0  0  0  0  0  0  0  0  0  0  0  0
  -44.7411  -29.7872    1.4263 C   0  0  0  0  0  0  0  0  0  0  0  0
  -42.5681  -29.6035    2.7549 C   0  0  0  0  0  0  0  0  0  0  0  0
  -46.4864  -28.2594    5.3506 C   0  0  0  0  0  0  0  0  0  0  0  0
  -43.1324  -29.8110    4.1625 C   0  0  0  0  0  0  0  0  0  0  0  0
  -44.0759  -28.7108    6.0753 C   0  0  0  0  0  0  0  0  0  0  0  0
  -45.5177  -29.2308    6.0429 C   0  0  1  0  0  0  0  0  0  0  0  0
  -46.7722  -33.1522   -1.6445 N   0  0  0  0  0  0  0  0  0  0  0  0
  -46.4571  -31.6554    0.2180 N   0  0  0  0  0  0  0  0  0  0  0  0
  -44.2638  -31.0689    0.8905 N   0  0  0  0  0  0  0  0  0  0  0  0
  -43.5259  -28.5345    4.7375 N   0  0  0  0  0  0  0  0  0  0  0  0
  -45.9383  -29.4343    7.3945 O   0  0  0  0  0  0  0  0  0  0  0  0
  -53.4042  -31.2996    4.4797 H   0  0  0  0  0  0  0  0  0  0  0  0
  -53.1882  -30.2371    6.7078 H   0  0  0  0  0  0  0  0  0  0  0  0
  -51.5183  -31.2698    2.8996 H   0  0  0  0  0  0  0  0  0  0  0  0
  -51.0843  -29.1395    7.3630 H   0  0  0  0  0  0  0  0  0  0  0  0
  -49.1708  -30.6068    2.3556 H   0  0  0  0  0  0  0  0  0  0  0  0
  -47.0711  -29.5168    3.0047 H   0  0  0  0  0  0  0  0  0  0  0  0
  -43.4783  -32.6284   -1.0825 H   0  0  0  0  0  0  0  0  0  0  0  0
  -48.7464  -28.4808    6.8231 H   0  0  0  0  0  0  0  0  0  0  0  0
  -45.0708  -33.8553   -2.5718 H   0  0  0  0  0  0  0  0  0  0  0  0
  -48.2848  -32.2891   -0.5229 H   0  0  0  0  0  0  0  0  0  0  0  0
  -41.4778  -31.4809    2.8128 H   0  0  0  0  0  0  0  0  0  0  0  0
  -41.5068  -30.7178    1.2266 H   0  0  0  0  0  0  0  0  0  0  0  0
  -43.0534  -28.5437    0.9267 H   0  0  0  0  0  0  0  0  0  0  0  0
  -43.9597  -27.9923    2.3311 H   0  0  0  0  0  0  0  0  0  0  0  0
  -42.9269  -32.6803    1.1416 H   0  0  0  0  0  0  0  0  0  0  0  0
  -43.7837  -32.1971    2.6142 H   0  0  0  0  0  0  0  0  0  0  0  0
  -45.3780  -29.9559    2.3039 H   0  0  0  0  0  0  0  0  0  0  0  0
  -45.3499  -29.2744    0.6700 H   0  0  0  0  0  0  0  0  0  0  0  0
  -41.6719  -28.9530    2.8472 H   0  0  0  0  0  0  0  0  0  0  0  0
  -46.0352  -27.8338    4.4462 H   0  0  0  0  0  0  0  0  0  0  0  0
  -46.7101  -27.4127    6.0124 H   0  0  0  0  0  0  0  0  0  0  0  0
  -43.9993  -30.4733    4.1102 H   0  0  0  0  0  0  0  0  0  0  0  0
  -42.3766  -30.2869    4.7912 H   0  0  0  0  0  0  0  0  0  0  0  0
  -44.0316  -27.7592    6.6186 H   0  0  0  0  0  0  0  0  0  0  0  0
  -43.4472  -29.4114    6.6380 H   0  0  0  0  0  0  0  0  0  0  0  0
  -45.5403  -30.2125    5.5535 H   0  0  0  0  0  0  0  0  0  0  0  0
  -42.7113  -27.9215    4.7894 H   0  0  0  0  0  0  0  0  0  0  0  0
  -45.3015  -30.0491    7.7869 H   0  0  0  0  0  0  0  0  0  0  0  0
  1  2  1  0  0  0  0
  1  3  2  0  0  0  0
  2  4  2  0  0  0  0
  3 11  1  0  0  0  0
  4 12  1  0  0  0  0
  5  6  2  0  0  0  0
  5 11  1  0  0  0  0
  6 13  1  0  0  0  0
  7  9  2  0  0  0  0
  7 14  1  0  0  0  0
  8 12  1  0  0  0  0
  8 13  2  0  0  0  0
  9 24  1  0  0  0  0
 10 24  2  0  0  0  0
 10 25  1  0  0  0  0
 11 12  2  0  0  0  0
 13 20  1  0  0  0  0
 14 25  2  0  0  0  0
 14 26  1  0  0  0  0
 15 17  1  0  0  0  0
 15 19  1  0  0  0  0
 16 18  1  0  0  0  0
 16 19  1  0  0  0  0
 17 26  1  0  0  0  0
 18 26  1  0  0  0  0
 19 21  1  0  0  0  0
 20 23  1  0  0  0  0
 21 27  1  0  0  0  0
 22 23  1  0  0  0  0
 22 27  1  0  0  0  0
 23 28  1  0  0  0  0
  1 29  1  0  0  0  0
  2 30  1  0  0  0  0
  3 31  1  0  0  0  0
  4 32  1  0  0  0  0
  5 33  1  0  0  0  0
  6 34  1  0  0  0  0
  7 35  1  0  0  0  0
  8 36  1  0  0  0  0
  9 37  1  0  0  0  0
 10 38  1  0  0  0  0
 15 39  1  0  0  0  0
 15 40  1  0  0  0  0
 16 41  1  0  0  0  0
 16 42  1  0  0  0  0
 17 43  1  0  0  0  0
 17 44  1  0  0  0  0
 18 45  1  0  0  0  0
 18 46  1  0  0  0  0
 19 47  1  0  0  0  0
 20 48  1  0  0  0  0
 20 49  1  0  0  0  0
 21 50  1  0  0  0  0
 21 51  1  0  0  0  0
 22 52  1  0  0  0  0
 22 53  1  0  0  0  0
 23 54  1  0  0  0  0
 27 55  1  0  0  0  0
 28 56  1  0  0  0  0
M  END
> <POSIT::Probability>
0.24

> <POSIT::Method>
FRED

> <ReceptorTitle>
UCSF-P4723-REFINED_LIGAND-BOUND-STATE_A__DU__LA1_A-201(A)

> <OMEGA_C>
sORRwv6J9sEycZhASGhRwnLD8cEcfMBA7ZhNwmdh9sFu2HdABqBMwrrO7MGcKsxAPGREwhEv8cGz
vFVA+ps/wlw67MGyGW1AnjIywnguAsI48nK/U2tDwmac58G8HLtAubg1wh/iBMIMYOK/QNg8ws5z
AcKYLSW/U8FIwvRs8cElKIdA5kJIwmaR7MFs4K9AfCA/wiVz58GZmZ5A2H80wqcp/sGA6xY9ooIo
wl5i98GmYAdAPEYuws4s58Hg2uo//DItwnqE/sHCV9o/1vYywiRM7sEIkbY/xkUqwubT7MHUTzBA
DvI5wlgT4sH/N6tAkocswuJ87sFMM4VAsU0wwqev5cEcacJAGBI2wp7Y6cE4X8FAvBY7wtGbBMLM
fdK/DtQ5wkg+/cGAMV8+Hg4xwhKN+MFo92M/ehouwpNG5MGCmZdA28A3wmV568EJoOxA351VwqFl
+sGjWY9AwMBUwp/l8cGAptZAwRJOwn4o+sEbkzlAXlZMwqcd6cG8netA465Ewrra9MHgwhZAz0g8
wn4i7MHFTEBAx+ktwn6DAsJkjoq/VPxCwr3Y48G8VtpAikg0wtlrB8LcmCTAoSNBwhIoAcLg3AW/
QuklwujY+8GGBTRA7AYmwhy+9cF4AZ0/uDYswpNZ5MHgPW0/vtYvwkPw38G1MBVALbUrwqS4AsLo
IJI/eSIvwuDJAMJmTidAFYM1wsil78EUcxNAUmY1wggy6sHghys/ELAmwsyf58EeODZAFCQ4wqSr
3sH/Ro5AHtc6wjRN28FHZcBARv8vwlbJ88FchoNAl4Epwn5L8sGzUZlAYyAwwtMS3sFEy9NA9ckt
woBK68GEatRARik2wjSz8cFVtrFAY9gqwiVf38G0QplAwzQ1wn5k8MF9LvlA

> <OMEGA_E>
xrn6wA==

> <OMEGA_NBR>
     13525

$$$$
CACHE3HI_1704_23
  -OEChem-03092622523D

 17 17  0     0  0  0  0  0  0999 V2000
  -47.1169  -29.2843    3.2373 C   0  0  0  0  0  0  0  0  0  0  0  0
  -47.3577  -28.8126    4.5278 C   0  0  0  0  0  0  0  0  0  0  0  0
  -48.1571  -29.8412    2.4935 C   0  0  0  0  0  0  0  0  0  0  0  0
  -49.6786  -29.4545    4.3303 C   0  0  0  0  0  0  0  0  0  0  0  0
  -48.6384  -28.8976    5.0742 C   0  0  0  0  0  0  0  0  0  0  0  0
  -49.4378  -29.9262    3.0399 C   0  0  0  0  0  0  0  0  0  0  0  0
  -51.1701  -29.6647    6.3192 C   0  0  0  0  0  0  0  0  0  0  0  0
  -50.9643  -29.5266    4.9123 N   0  0  0  0  0  0  0  0  0  0  0  0
  -48.8559  -28.4403    6.3156 F   0  0  0  0  0  0  0  0  0  0  0  0
  -50.8155  -30.6939    1.9830 Br  0  0  0  0  0  0  0  0  0  0  0  0
  -46.1196  -29.2181    2.8124 H   0  0  0  0  0  0  0  0  0  0  0  0
  -46.5485  -28.3789    5.1077 H   0  0  0  0  0  0  0  0  0  0  0  0
  -47.9496  -30.2036    1.4902 H   0  0  0  0  0  0  0  0  0  0  0  0
  -50.2122  -29.7028    6.8460 H   0  0  0  0  0  0  0  0  0  0  0  0
  -51.7473  -28.8181    6.7015 H   0  0  0  0  0  0  0  0  0  0  0  0
  -51.7243  -30.5832    6.5314 H   0  0  0  0  0  0  0  0  0  0  0  0
  -51.7453  -29.4767    4.2879 H   0  0  0  0  0  0  0  0  0  0  0  0
  1  2  1  0  0  0  0
  1  3  2  0  0  0  0
  2  5  2  0  0  0  0
  3  6  1  0  0  0  0
  4  5  1  0  0  0  0
  4  6  2  0  0  0  0
  4  8  1  0  0  0  0
  5  9  1  0  0  0  0
  6 10  1  0  0  0  0
  7  8  1  0  0  0  0
  1 11  1  0  0  0  0
  2 12  1  0  0  0  0
  3 13  1  0  0  0  0
  7 14  1  0  0  0  0
  7 15  1  0  0  0  0
  7 16  1  0  0  0  0
  8 17  1  0  0  0  0
M  END
> <POSIT::Probability>
0.02

> <POSIT::Method>
FRED

> <ReceptorTitle>
UCSF-P4723-REFINED_LIGAND-BOUND-STATE_A__DU__LA1_A-201(A)

> <OMEGA_C>
rHc8wj5G6sFyME9AUG49wkqA5sF+45BA1KBAwtK67sGSlR9A8LZGwuai68HikYpAw41CwkQu58G5
X6JAR8BFws5o78EEjkJAJq5MwkBR7cF9NspAfdtLwoQ27MHBMZ1AemxDwqqF48GMGcpAEENLwg2N
9cEA0/0/e3o4wq6+6cFw/jNAsTE6wuQH48EucqNAZMw/wgGh8cEkvr4/VNlIwm6f7cEiEttASf1O
wpCL5sGMctZAo+VOwk2q9MEFAdFAKPtOwlrQ68EkNolA

> <OMEGA_E>
lmipwA==

> <OMEGA_NBR>
     14347

$$$$
CACHE3HI_1705_49
  -OEChem-03092622523D

 43 45  0     0  0  0  0  0  0999 V2000
  -47.8917  -28.8766    4.6862 C   0  0  0  0  0  0  0  0  0  0  0  0
  -48.6839  -28.6953    5.7894 C   0  0  0  0  0  0  0  0  0  0  0  0
  -44.2853  -29.4493    6.6943 C   0  0  0  0  0  0  0  0  0  0  0  0
  -46.5156  -29.1535    5.1591 C   0  0  0  0  0  0  0  0  0  0  0  0
  -46.5703  -29.0477    6.5555 C   0  0  0  0  0  0  0  0  0  0  0  0
  -45.2628  -29.4769    4.5498 C   0  0  0  0  0  0  0  0  0  0  0  0
  -43.5859  -30.0424    1.1018 C   0  0  0  0  0  0  0  0  0  0  0  0
  -46.0286  -30.2325    0.8654 C   0  0  0  0  0  0  0  0  0  0  0  0
  -43.7084  -29.5898    2.5768 C   0  0  0  0  0  0  0  0  0  0  0  0
  -46.2920  -29.7058    2.2722 C   0  0  0  0  0  0  0  0  0  0  0  0
  -44.7840  -29.5773    0.2587 C   0  0  0  0  0  0  0  0  0  0  0  0
  -43.2875  -25.5329    0.0592 C   0  0  0  0  0  0  0  0  0  0  0  0
  -44.5963  -24.9033   -0.4670 C   0  0  0  0  0  0  0  0  0  0  0  0
  -45.4581  -25.8674   -1.3187 C   0  0  0  0  0  0  0  0  0  0  0  0
  -45.4651  -29.2023    7.3067 N   0  0  0  0  0  0  0  0  0  0  0  0
  -44.1718  -29.5938    5.3516 N   0  0  0  0  0  0  0  0  0  0  0  0
  -47.8850  -28.7987    6.9183 N   0  0  0  0  0  0  0  0  0  0  0  0
  -45.0965  -29.7216    3.1642 N   0  0  0  0  0  0  0  0  0  0  0  0
  -44.8362  -28.0978    0.3090 N   0  0  0  0  0  0  0  0  0  0  0  0
  -46.9142  -26.6368    0.7458 O   0  0  0  0  0  0  0  0  0  0  0  0
  -46.8458  -28.1069   -1.3377 O   0  0  0  0  0  0  0  0  0  0  0  0
  -46.1660  -27.2361   -0.3688 S   0  0  0  0  0  0  0  0  0  0  0  0
  -48.2131  -28.8267    3.6564 H   0  0  0  0  0  0  0  0  0  0  0  0
  -49.7469  -28.5047    5.7812 H   0  0  0  0  0  0  0  0  0  0  0  0
  -43.3958  -29.5351    7.3008 H   0  0  0  0  0  0  0  0  0  0  0  0
  -42.6648  -29.6187    0.6750 H   0  0  0  0  0  0  0  0  0  0  0  0
  -43.5335  -31.1406    1.0699 H   0  0  0  0  0  0  0  0  0  0  0  0
  -45.8760  -31.3209    0.9113 H   0  0  0  0  0  0  0  0  0  0  0  0
  -46.8983  -30.0108    0.2294 H   0  0  0  0  0  0  0  0  0  0  0  0
  -43.0210  -30.2002    3.1809 H   0  0  0  0  0  0  0  0  0  0  0  0
  -43.4095  -28.5329    2.6370 H   0  0  0  0  0  0  0  0  0  0  0  0
  -46.6485  -28.6684    2.1911 H   0  0  0  0  0  0  0  0  0  0  0  0
  -47.0742  -30.3274    2.7325 H   0  0  0  0  0  0  0  0  0  0  0  0
  -44.6570  -29.9187   -0.7792 H   0  0  0  0  0  0  0  0  0  0  0  0
  -42.7344  -24.7891    0.6516 H   0  0  0  0  0  0  0  0  0  0  0  0
  -43.5265  -26.4008    0.6915 H   0  0  0  0  0  0  0  0  0  0  0  0
  -42.6693  -25.8577   -0.7907 H   0  0  0  0  0  0  0  0  0  0  0  0
  -45.1942  -24.5750    0.3960 H   0  0  0  0  0  0  0  0  0  0  0  0
  -44.3369  -24.0319   -1.0862 H   0  0  0  0  0  0  0  0  0  0  0  0
  -46.2817  -25.2931   -1.7679 H   0  0  0  0  0  0  0  0  0  0  0  0
  -44.8263  -26.2870   -2.1154 H   0  0  0  0  0  0  0  0  0  0  0  0
  -48.2106  -28.7068    7.8593 H   0  0  0  0  0  0  0  0  0  0  0  0
  -44.7952  -27.8441    1.2754 H   0  0  0  0  0  0  0  0  0  0  0  0
  1  2  2  0  0  0  0
  1  4  1  0  0  0  0
  2 17  1  0  0  0  0
  3 15  2  0  0  0  0
  3 16  1  0  0  0  0
  4  5  2  0  0  0  0
  4  6  1  0  0  0  0
  5 15  1  0  0  0  0
  5 17  1  0  0  0  0
  6 16  2  0  0  0  0
  6 18  1  0  0  0  0
  7  9  1  0  0  0  0
  7 11  1  0  0  0  0
  8 10  1  0  0  0  0
  8 11  1  0  0  0  0
  9 18  1  0  0  0  0
 10 18  1  0  0  0  0
 11 19  1  0  0  0  0
 12 13  1  0  0  0  0
 13 14  1  0  0  0  0
 14 22  1  0  0  0  0
 19 22  1  0  0  0  0
 20 22  2  0  0  0  0
 21 22  2  0  0  0  0
  1 23  1  0  0  0  0
  2 24  1  0  0  0  0
  3 25  1  0  0  0  0
  7 26  1  0  0  0  0
  7 27  1  0  0  0  0
  8 28  1  0  0  0  0
  8 29  1  0  0  0  0
  9 30  1  0  0  0  0
  9 31  1  0  0  0  0
 10 32  1  0  0  0  0
 10 33  1  0  0  0  0
 11 34  1  0  0  0  0
 12 35  1  0  0  0  0
 12 36  1  0  0  0  0
 12 37  1  0  0  0  0
 13 38  1  0  0  0  0
 13 39  1  0  0  0  0
 14 40  1  0  0  0  0
 14 41  1  0  0  0  0
 17 42  1  0  0  0  0
 19 43  1  0  0  0  0
M  END
> <POSIT::Probability>
0.75

> <POSIT::Method>
SHAPEFIT

> <ReceptorTitle>
UCSF-P4723-REFINED_LIGAND-BOUND-STATE_A__DU__LA1_A-201(A)

> <OMEGA_C>
E5E/wloD58GH9ZVAVrxCwuGP5cFyQrlAKCQxwjWY68EDONZA8Q86wk866cFQF6VA/kc6wsFh6MFB
xtFAFQ01wpvQ68FUmJFAAVguwsBW8MFYB40/Rx04wkHc8cGqh10/XNUuwt637MHR6SRADys5wpOl
7cENaxFA2iIzwkee7MEIcIQ+YCYtwnZDzMEAoHI9nGIywvk5x8GYHO++EdU1wnfwzsEcyqi/RNw1
wlOe6cFY0OlA4a8wwhDA7MEaQKtANYo/wrNj5sFTYt1AyGI0wsPF7cGugkpAP1gzwmPI4MEgOJ4+
Jag7whQY1cEs7j4/FmI7wtXa4MEQO6u/8Kk4wobj2cFAzry+K9pAwhKd5sHAAWpA3vxGwo0J5MFY
/7hATpUtwvlH7MFJoOlAzagqwjHz7MH8zSw/TSIuwgog+cFt8og/CIE3wkqR+sHRTGk/0pc7wgcW
8MEC3mo+iRUswgqa8cGFk0tAT6MtwlZD5ME/xShADpg6ws5Y5cGcOgxAB0w8wnKe8sGy4C5AwKAy
wpdZ78GcfEe/EvAqwiVQxsHazyY/LxsuwsU008EsBDE/ZK0qwovczsERbUq/0cY0wpWZxMECv8o+
BlkxwlpBwMHeCIu/cyA5wkpYysFGS+K/Kk4zwstL0sFdYwfAotdAwnWn5cE1f/tAPi4zwr7A3sEr
QaM/

> <OMEGA_E>
xM4KPw==

> <OMEGA_NBR>
     15725

$$$$
CACHE3HI_1706_21
  -OEChem-03092622523D

 41 44  0     0  0  0  0  0  0999 V2000
  -43.5112  -26.9524    0.7280 C   0  0  0  0  0  0  0  0  0  0  0  0
  -43.8186  -28.1851    1.3039 C   0  0  0  0  0  0  0  0  0  0  0  0
  -44.4881  -26.2498    0.0227 C   0  0  0  0  0  0  0  0  0  0  0  0
  -50.4193  -29.0200    5.3104 C   0  0  0  0  0  0  0  0  0  0  0  0
  -45.1026  -28.7150    1.1749 C   0  0  0  0  0  0  0  0  0  0  0  0
  -45.7721  -26.7796   -0.1063 C   0  0  0  0  0  0  0  0  0  0  0  0
  -46.0795  -28.0123    0.4696 C   0  0  0  0  0  0  0  0  0  0  0  0
  -51.2244  -29.2351    6.4479 C   0  0  0  0  0  0  0  0  0  0  0  0
  -49.1454  -28.9072    5.8034 C   0  0  0  0  0  0  0  0  0  0  0  0
  -45.1593  -29.9569    3.2965 C   0  0  0  0  0  0  0  0  0  0  0  0
  -50.9923  -28.9384    3.9489 C   0  0  0  0  0  0  0  0  0  0  0  0
  -52.6897  -29.4317    6.3427 C   0  0  0  0  0  0  0  0  0  0  0  0
  -46.5106  -29.3763    5.4284 C   0  0  0  0  0  0  0  0  0  0  0  0
  -47.6235  -29.3251    3.6108 C   0  0  0  0  0  0  0  0  0  0  0  0
  -53.1689  -28.9233    4.9697 C   0  0  0  0  0  0  0  0  0  0  0  0
  -47.8072  -28.6479    4.9922 C   0  0  0  0  0  0  0  0  0  0  0  0
  -45.3922  -30.0480    1.8121 C   0  0  0  0  0  0  0  0  0  0  0  0
  -50.5260  -29.2663    7.5831 N   0  0  0  0  0  0  0  0  0  0  0  0
  -49.2625  -29.0614    7.1580 N   0  0  0  0  0  0  0  0  0  0  0  0
  -46.2587  -29.5859    4.0182 N   0  0  0  0  0  0  0  0  0  0  0  0
  -44.0609  -30.2060    3.7898 O   0  0  0  0  0  0  0  0  0  0  0  0
  -52.3459  -29.4461    3.9087 O   0  0  0  0  0  0  0  0  0  0  0  0
  -46.6987  -26.0905   -0.7878 F   0  0  0  0  0  0  0  0  0  0  0  0
  -46.6733  -30.4590    1.5922 F   0  0  0  0  0  0  0  0  0  0  0  0
  -44.6118  -31.0440    1.3048 F   0  0  0  0  0  0  0  0  0  0  0  0
  -47.6773  -28.6423    0.2928 Cl  0  0  0  0  0  0  0  0  0  0  0  0
  -42.5116  -26.5399    0.8285 H   0  0  0  0  0  0  0  0  0  0  0  0
  -43.0500  -28.7245    1.8514 H   0  0  0  0  0  0  0  0  0  0  0  0
  -44.2493  -25.2901   -0.4260 H   0  0  0  0  0  0  0  0  0  0  0  0
  -51.0051  -27.9006    3.5976 H   0  0  0  0  0  0  0  0  0  0  0  0
  -50.4029  -29.5302    3.2418 H   0  0  0  0  0  0  0  0  0  0  0  0
  -52.9017  -30.5044    6.4257 H   0  0  0  0  0  0  0  0  0  0  0  0
  -53.2242  -28.9127    7.1446 H   0  0  0  0  0  0  0  0  0  0  0  0
  -45.7722  -28.7452    5.9289 H   0  0  0  0  0  0  0  0  0  0  0  0
  -46.6404  -30.3158    5.9740 H   0  0  0  0  0  0  0  0  0  0  0  0
  -48.1903  -30.2452    3.4396 H   0  0  0  0  0  0  0  0  0  0  0  0
  -47.7109  -28.6593    2.7487 H   0  0  0  0  0  0  0  0  0  0  0  0
  -54.1972  -29.2538    4.7908 H   0  0  0  0  0  0  0  0  0  0  0  0
  -53.1576  -27.8272    4.9221 H   0  0  0  0  0  0  0  0  0  0  0  0
  -47.6291  -27.5178    4.9135 H   0  0  0  0  0  0  0  0  0  0  0  0
  -48.5240  -29.0375    7.8500 H   0  0  0  0  0  0  0  0  0  0  0  0
  1  2  1  0  0  0  0
  1  3  2  0  0  0  0
  2  5  2  0  0  0  0
  3  6  1  0  0  0  0
  4  8  1  0  0  0  0
  4  9  2  0  0  0  0
  4 11  1  0  0  0  0
  5  7  1  0  0  0  0
  5 17  1  0  0  0  0
  6  7  2  0  0  0  0
  6 23  1  0  0  0  0
  7 26  1  0  0  0  0
  8 12  1  0  0  0  0
  8 18  2  0  0  0  0
  9 16  1  0  0  0  0
  9 19  1  0  0  0  0
 10 17  1  0  0  0  0
 10 20  1  0  0  0  0
 10 21  2  0  0  0  0
 11 22  1  0  0  0  0
 12 15  1  0  0  0  0
 13 16  1  0  0  0  0
 13 20  1  0  0  0  0
 14 16  1  0  0  0  0
 14 20  1  0  0  0  0
 15 22  1  0  0  0  0
 17 24  1  0  0  0  0
 17 25  1  0  0  0  0
 18 19  1  0  0  0  0
  1 27  1  0  0  0  0
  2 28  1  0  0  0  0
  3 29  1  0  0  0  0
 11 30  1  0  0  0  0
 11 31  1  0  0  0  0
 12 32  1  0  0  0  0
 12 33  1  0  0  0  0
 13 34  1  0  0  0  0
 13 35  1  0  0  0  0
 14 36  1  0  0  0  0
 14 37  1  0  0  0  0
 15 38  1  0  0  0  0
 15 39  1  0  0  0  0
 16 40  1  0  0  0  0
 19 41  1  0  0  0  0
M  END
> <POSIT::Probability>
0.14

> <POSIT::Method>
HYBRID

> <ReceptorTitle>
UCSF-P4723-REFINED_LIGAND-BOUND-STATE_A__DU__LA1_A-201(A)

> <OMEGA_C>
eQsuwoqe18HQXTo/OkYvwhp74cGo5qY/1vMxwpL/0cHwQro8Yq1JwvQo6MGU7qlAB2k0wj245cEF
Y5Y/oxY3wrY81sGUqdm9alE4wiwZ4MEbcPA+v+VMwozh6cFmVc5A55REwtpB58FztblALKM0wtCn
78Eh+lJAIvhLwt+B58F1unxANsJSwhx068FO98pA2Ao6wpAC68F0ta1AeH4+wtqZ6sEiGGdA9axU
wuxi58H6B59Aijo/ws0u5cEGwJ9AmJE1wlRi8MG/8ec/nRpKwnch6sG1qPJA1AxFwsV96MGuDuVA
4gg5wgWw7MHElIBAYz4wwuql8cEOjHJANmJRwp6R68HeKHpAdcs6wkS50MEur0m/abE6wvar88EV
zcs/cHIywgxa+MFMBac/krU+wlUj5cEQ7JU+3gsqwqZR1MH2F1Q/MzMswr7L5cFM+ew/Tf8wwi5S
ysHSINq+PwVMwng038F4P2ZAhpxJwuI97MGYeU9AT5tTwu0I9MFMn81AnOVUwkJN58HNoORAxBY3
wkL25cF3ub1Ay486wtKG8sH0Kr9A6sJAwiL28cHPIVxA79c+wlRG5cFU6y9A48lYwsUH6sH4TZlA
b6FUwiye3sEngp1APYQ+woMk3MGLO51AkhhCwrxM6MHQMvtA

> <OMEGA_E>
yQ/bwA==

> <OMEGA_NBR>
     17044

$$$$
CACHE3HI_1708_45
  -OEChem-03092622523D

 35 37  0     1  0  0  0  0  0999 V2000
  -47.7877  -29.1341    4.5149 C   0  0  0  0  0  0  0  0  0  0  0  0
  -47.7027  -28.6844    7.2803 C   0  0  0  0  0  0  0  0  0  0  0  0
  -44.2529  -29.5082    6.6609 C   0  0  0  0  0  0  0  0  0  0  0  0
  -46.5303  -29.2011    5.1750 C   0  0  0  0  0  0  0  0  0  0  0  0
  -46.5234  -29.0273    6.5895 C   0  0  0  0  0  0  0  0  0  0  0  0
  -48.9531  -28.7723    5.2026 C   0  0  0  0  0  0  0  0  0  0  0  0
  -48.9107  -28.5280    6.5825 C   0  0  0  0  0  0  0  0  0  0  0  0
  -45.2720  -29.4586    4.5271 C   0  0  0  0  0  0  0  0  0  0  0  0
  -44.0561  -30.9563    1.3449 C   0  0  0  0  0  0  0  0  0  0  0  0
  -44.5606  -30.0565    0.1947 C   0  0  0  0  0  0  0  0  0  0  0  0
  -43.7708  -30.1471    2.6127 C   0  0  0  0  0  0  0  0  0  0  0  0
  -46.0466  -29.1208    2.0660 C   0  0  0  0  0  0  0  0  0  0  0  0
  -45.4299  -28.8554    0.6712 C   0  0  1  0  0  0  0  0  0  0  0  0
  -44.6434  -27.5122    0.6485 C   0  0  0  0  0  0  0  0  0  0  0  0
  -45.3937  -29.1912    7.3001 N   0  0  0  0  0  0  0  0  0  0  0  0
  -44.1713  -29.6069    5.3152 N   0  0  0  0  0  0  0  0  0  0  0  0
  -45.0531  -29.5531    3.1137 N   0  0  3  0  0  0  0  0  0  0  0  0
  -45.0798  -26.7149   -0.4570 O   0  0  0  0  0  0  0  0  0  0  0  0
  -50.1190  -28.6713    4.5242 F   0  0  0  0  0  0  0  0  0  0  0  0
  -50.0353  -28.1749    7.2431 F   0  0  0  0  0  0  0  0  0  0  0  0
  -47.8455  -29.3670    3.4619 H   0  0  0  0  0  0  0  0  0  0  0  0
  -47.6771  -28.5413    8.3505 H   0  0  0  0  0  0  0  0  0  0  0  0
  -43.3649  -29.6915    7.2478 H   0  0  0  0  0  0  0  0  0  0  0  0
  -44.8233  -31.7120    1.5693 H   0  0  0  0  0  0  0  0  0  0  0  0
  -43.1303  -31.4574    1.0257 H   0  0  0  0  0  0  0  0  0  0  0  0
  -43.6874  -29.6603   -0.3442 H   0  0  0  0  0  0  0  0  0  0  0  0
  -45.1645  -30.6723   -0.4880 H   0  0  0  0  0  0  0  0  0  0  0  0
  -43.3447  -30.8069    3.3828 H   0  0  0  0  0  0  0  0  0  0  0  0
  -43.0567  -29.3424    2.3833 H   0  0  0  0  0  0  0  0  0  0  0  0
  -46.5291  -28.1943    2.4108 H   0  0  0  0  0  0  0  0  0  0  0  0
  -46.8037  -29.9120    1.9625 H   0  0  0  0  0  0  0  0  0  0  0  0
  -46.2629  -28.7556   -0.0402 H   0  0  0  0  0  0  0  0  0  0  0  0
  -44.8245  -26.9668    1.5864 H   0  0  0  0  0  0  0  0  0  0  0  0
  -43.5680  -27.7201    0.5471 H   0  0  0  0  0  0  0  0  0  0  0  0
  -44.5978  -25.8964   -0.4675 H   0  0  0  0  0  0  0  0  0  0  0  0
  1  4  1  0  0  0  0
  1  6  2  0  0  0  0
  2  5  1  0  0  0  0
  2  7  2  0  0  0  0
  3 15  1  0  0  0  0
  3 16  2  0  0  0  0
  4  5  1  0  0  0  0
  4  8  2  0  0  0  0
  5 15  2  0  0  0  0
  6  7  1  0  0  0  0
  6 19  1  0  0  0  0
  7 20  1  0  0  0  0
  8 16  1  0  0  0  0
  8 17  1  0  0  0  0
  9 10  1  0  0  0  0
  9 11  1  0  0  0  0
 10 13  1  0  0  0  0
 11 17  1  0  0  0  0
 12 13  1  0  0  0  0
 12 17  1  0  0  0  0
 13 14  1  0  0  0  0
 14 18  1  0  0  0  0
  1 21  1  0  0  0  0
  2 22  1  0  0  0  0
  3 23  1  0  0  0  0
  9 24  1  0  0  0  0
  9 25  1  0  0  0  0
 10 26  1  0  0  0  0
 10 27  1  0  0  0  0
 11 28  1  0  0  0  0
 11 29  1  0  0  0  0
 12 30  1  0  0  0  0
 12 31  1  0  0  0  0
 13 32  1  0  0  0  0
 14 33  1  0  0  0  0
 14 34  1  0  0  0  0
 18 35  1  0  0  0  0
M  END
> <POSIT::Probability>
0.79

> <POSIT::Method>
SHAPEFIT

> <ReceptorTitle>
UCSF-P4723-REFINED_LIGAND-BOUND-STATE_A__DU__LA1_A-201(A)

> <OMEGA_C>
nCY/wqwS6cFqepBAi88+wo155cFY+OhA7QIxwtQQ7MFEJtVAEh86wt6b6cFBmaVA+Rc6wu436MEJ
3dJA/M9Dwpkt5sHQe6ZAiKRDwlg55MGOo9JAgxY1wiar68Gy3ZBAcTkwwpCm98GnJKw/Ej4ywrVz
8MFQbEc+RhUvwlEt8cFmNidAry84wmL36MEiOQRAL7g1wuHX5sH20ys/05IywvkY3MHiAyY/JZM1
wq6H6cEcmulAda8wwuXa7MF3FqpAZjY0wrZs7MGYRkdAu1E0wi241cHM9um+2nlIwtFe5cE8xpBA
ISRIwktm4cFmx+dAzWE/wojv6sE1kF1AVrU+woRU5MGbmwVBr3UtwjiI7cGf7edAHEszwhay/cFm
3cg/aoUswrOo+8G1S4M/2r8uwlpI7cG3OrC+bKg0wuRg9cGa2fm+82Atwot09sGMgFhAHDoswka9
6sFpiBhAwx06wgSO4cFpShpACDc7wr5L78FCNPs/Ng05wowL5sFtqiS9UUwzwvq718EeEMs/nUUu
wsDC3cENDAw/H2Qywsgrz8FwV+++

> <OMEGA_E>
1sMyPw==

> <OMEGA_NBR>
     18269

$$$$
CACHE3HI_1708_53
  -OEChem-03092622523D

 32 33  0     1  0  0  0  0  0999 V2000
  -47.1344  -30.7967    1.7271 C   0  0  0  0  0  0  0  0  0  0  0  0
  -46.2362  -28.5500    4.5732 C   0  0  0  0  0  0  0  0  0  0  0  0
  -47.4647  -28.4614    5.2279 C   0  0  0  0  0  0  0  0  0  0  0  0
  -48.4554  -29.9099    3.5672 C   0  0  0  0  0  0  0  0  0  0  0  0
  -47.2270  -29.9985    2.9125 C   0  0  0  0  0  0  0  0  0  0  0  0
  -46.1174  -29.3188    3.4155 C   0  0  0  0  0  0  0  0  0  0  0  0
  -48.5742  -29.1411    4.7250 C   0  0  0  0  0  0  0  0  0  0  0  0
  -43.9000  -30.8235    1.0599 C   0  0  0  0  0  0  0  0  0  0  0  0
  -44.7444  -29.5814    1.3440 C   0  0  0  0  0  0  0  0  0  0  0  0
  -43.6428  -29.1760    3.5402 C   0  0  0  0  0  0  0  0  0  0  0  0
  -42.7271  -31.0030    2.0456 C   0  0  2  0  0  0  0  0  0  0  0  0
  -42.4110  -29.6845    2.7741 C   0  0  2  0  0  0  0  0  0  0  0  0
  -41.5106  -31.5925    1.3292 C   0  0  0  0  0  0  0  0  0  0  0  0
  -47.0594  -31.4434    0.7664 N   0  0  0  0  0  0  0  0  0  0  0  0
  -44.8801  -29.3920    2.7846 N   0  0  3  0  0  0  0  0  0  0  0  0
  -41.3599  -29.8646    3.7194 O   0  0  0  0  0  0  0  0  0  0  0  0
  -50.0887  -29.0309    5.5349 Cl  0  0  0  0  0  0  0  0  0  0  0  0
  -45.3788  -28.0161    4.9749 H   0  0  0  0  0  0  0  0  0  0  0  0
  -47.5424  -27.8600    6.1300 H   0  0  0  0  0  0  0  0  0  0  0  0
  -49.3221  -30.4404    3.1772 H   0  0  0  0  0  0  0  0  0  0  0  0
  -44.5484  -31.7124    1.0934 H   0  0  0  0  0  0  0  0  0  0  0  0
  -43.5115  -30.7683    0.0301 H   0  0  0  0  0  0  0  0  0  0  0  0
  -44.2574  -28.7147    0.8858 H   0  0  0  0  0  0  0  0  0  0  0  0
  -45.7324  -29.6943    0.8853 H   0  0  0  0  0  0  0  0  0  0  0  0
  -43.7051  -29.6737    4.5208 H   0  0  0  0  0  0  0  0  0  0  0  0
  -43.5021  -28.1054    3.7550 H   0  0  0  0  0  0  0  0  0  0  0  0
  -43.0321  -31.7547    2.8092 H   0  0  0  0  0  0  0  0  0  0  0  0
  -42.0954  -28.9162    2.0585 H   0  0  0  0  0  0  0  0  0  0  0  0
  -41.1639  -30.8995    0.5661 H   0  0  0  0  0  0  0  0  0  0  0  0
  -41.7830  -32.5356    0.8611 H   0  0  0  0  0  0  0  0  0  0  0  0
  -40.7110  -31.7657    2.0469 H   0  0  0  0  0  0  0  0  0  0  0  0
  -41.2002  -28.9975    4.1224 H   0  0  0  0  0  0  0  0  0  0  0  0
  1  5  1  0  0  0  0
  1 14  3  0  0  0  0
  2  3  2  0  0  0  0
  2  6  1  0  0  0  0
  3  7  1  0  0  0  0
  4  5  1  0  0  0  0
  4  7  2  0  0  0  0
  5  6  2  0  0  0  0
  6 15  1  0  0  0  0
  7 17  1  0  0  0  0
  8  9  1  0  0  0  0
  8 11  1  0  0  0  0
  9 15  1  0  0  0  0
 10 12  1  0  0  0  0
 10 15  1  0  0  0  0
 11 12  1  0  0  0  0
 11 13  1  0  0  0  0
 12 16  1  0  0  0  0
  2 18  1  0  0  0  0
  3 19  1  0  0  0  0
  4 20  1  0  0  0  0
  8 21  1  0  0  0  0
  8 22  1  0  0  0  0
  9 23  1  0  0  0  0
  9 24  1  0  0  0  0
 10 25  1  0  0  0  0
 10 26  1  0  0  0  0
 11 27  1  0  0  0  0
 12 28  1  0  0  0  0
 13 29  1  0  0  0  0
 13 30  1  0  0  0  0
 13 31  1  0  0  0  0
 16 32  1  0  0  0  0
M  END
> <POSIT::Probability>
0.24

> <POSIT::Method>
FRED

> <ReceptorTitle>
UCSF-P4723-REFINED_LIGAND-BOUND-STATE_A__DU__LA1_A-201(A)

> <OMEGA_C>
ook8wq5f9sHNEN0/4PE4wmxm5MF+V5JA2ds9wviw48ENS6dAXNJBwoRH78HYTGRAa+g8wuv878GD
ZjpARHg4wt6M6sHGllpA/0tCwgch6cHqMpdAlJkvwoSW9sHbqoc/QPoywsCm7MESB6w/N5Iuwl9o
6cFWk2JAgegqwjgG+MHe6gJA6aQpwsh57cEcijFA2gomwmi9/MEtJKo/yTw8wiyM+8HuL0Q/QIUz
wuYi68FENzJAjXAlwsrq7sE0C25A01pIwlo/6MGTHbFA7oM1wuog4MHBMp9AdCs+wlbh3sFcKcRA
4ElFwvaF88FgV0tAlzEywgyz/cGg9Ys/vwsuwpEl9sGQZPY8nAcxwq235cF6wWI/+u02wgKO7cEM
pmI/DdIuwrJj7cFrqpBAJwIuwtvX4MFpUnBA5yAswosJ/sHgyTNAsGEowmRU58HAvQNA1KckwkMy
98GU7BA/wiEnwnIkAsIWclw/FdgiwkAg/sExAQNACM0kwtL658H66oNA

> <OMEGA_E>
IjMGwQ==

> <OMEGA_NBR>
     19405

$$$$
CACHE3HI_1708_84
  -OEChem-03092622523D

 32 34  0     1  0  0  0  0  0999 V2000
  -49.0868  -28.7990    5.0151 C   0  0  0  0  0  0  0  0  0  0  0  0
  -48.9973  -28.6899    6.3985 C   0  0  0  0  0  0  0  0  0  0  0  0
  -47.9286  -28.9622    4.2621 C   0  0  0  0  0  0  0  0  0  0  0  0
  -47.7492  -28.7455    7.0259 C   0  0  0  0  0  0  0  0  0  0  0  0
  -44.2968  -29.1192    6.1346 C   0  0  0  0  0  0  0  0  0  0  0  0
  -46.6776  -29.0167    4.9010 C   0  0  0  0  0  0  0  0  0  0  0  0
  -46.5736  -28.9083    6.2973 C   0  0  0  0  0  0  0  0  0  0  0  0
  -45.4819  -29.1784    4.2077 C   0  0  0  0  0  0  0  0  0  0  0  0
  -45.2629  -31.1431    1.2393 C   0  0  0  0  0  0  0  0  0  0  0  0
  -44.2604  -30.2417    0.5148 C   0  0  0  0  0  0  0  0  0  0  0  0
  -46.2266  -30.3651    2.1346 C   0  0  0  0  0  0  0  0  0  0  0  0
  -44.8695  -28.2771    1.9776 C   0  0  0  0  0  0  0  0  0  0  0  0
  -44.6829  -28.7748    0.5378 C   0  0  1  0  0  0  0  0  0  0  0  0
  -45.3822  -28.9591    6.9186 N   0  0  0  0  0  0  0  0  0  0  0  0
  -44.2726  -29.2329    4.7973 N   0  0  0  0  0  0  0  0  0  0  0  0
  -45.5075  -29.2940    2.8216 N   0  0  3  0  0  0  0  0  0  0  0  0
  -43.6784  -28.0005   -0.1094 O   0  0  0  0  0  0  0  0  0  0  0  0
  -50.0551  -28.7554    4.5258 H   0  0  0  0  0  0  0  0  0  0  0  0
  -49.8971  -28.5603    6.9929 H   0  0  0  0  0  0  0  0  0  0  0  0
  -48.0251  -29.0444    3.1827 H   0  0  0  0  0  0  0  0  0  0  0  0
  -47.7060  -28.6586    8.1101 H   0  0  0  0  0  0  0  0  0  0  0  0
  -43.3402  -29.1598    6.6410 H   0  0  0  0  0  0  0  0  0  0  0  0
  -45.8373  -31.7174    0.4951 H   0  0  0  0  0  0  0  0  0  0  0  0
  -44.7166  -31.8832    1.8430 H   0  0  0  0  0  0  0  0  0  0  0  0
  -43.2618  -30.3511    0.9723 H   0  0  0  0  0  0  0  0  0  0  0  0
  -44.1350  -30.5794   -0.5273 H   0  0  0  0  0  0  0  0  0  0  0  0
  -47.0276  -29.9536    1.5146 H   0  0  0  0  0  0  0  0  0  0  0  0
  -46.6770  -31.0420    2.8665 H   0  0  0  0  0  0  0  0  0  0  0  0
  -43.8953  -27.9882    2.4022 H   0  0  0  0  0  0  0  0  0  0  0  0
  -45.4742  -27.3575    1.9563 H   0  0  0  0  0  0  0  0  0  0  0  0
  -45.6162  -28.6512   -0.0222 H   0  0  0  0  0  0  0  0  0  0  0  0
  -43.6143  -28.3335   -1.0181 H   0  0  0  0  0  0  0  0  0  0  0  0
  1  2  1  0  0  0  0
  1  3  2  0  0  0  0
  2  4  2  0  0  0  0
  3  6  1  0  0  0  0
  4  7  1  0  0  0  0
  5 14  1  0  0  0  0
  5 15  2  0  0  0  0
  6  7  1  0  0  0  0
  6  8  2  0  0  0  0
  7 14  2  0  0  0  0
  8 15  1  0  0  0  0
  8 16  1  0  0  0  0
  9 10  1  0  0  0  0
  9 11  1  0  0  0  0
 10 13  1  0  0  0  0
 11 16  1  0  0  0  0
 12 13  1  0  0  0  0
 12 16  1  0  0  0  0
 13 17  1  0  0  0  0
  1 18  1  0  0  0  0
  2 19  1  0  0  0  0
  3 20  1  0  0  0  0
  4 21  1  0  0  0  0
  5 22  1  0  0  0  0
  9 23  1  0  0  0  0
  9 24  1  0  0  0  0
 10 25  1  0  0  0  0
 10 26  1  0  0  0  0
 11 27  1  0  0  0  0
 11 28  1  0  0  0  0
 12 29  1  0  0  0  0
 12 30  1  0  0  0  0
 13 31  1  0  0  0  0
 17 32  1  0  0  0  0
M  END
> <POSIT::Probability>
0.5

> <POSIT::Method>
HYBRID

> <ReceptorTitle>
UCSF-P4723-REFINED_LIGAND-BOUND-STATE_A__DU__LA1_A-201(A)

> <OMEGA_C>
3lhEwmNk5sHGe6BAO/1DwvyE5cG1wMxA6LY/wpOy58GEY4hAJ/8+wtH25cHE0+BA4C8xwhz06ME8
TsRA0rU6wkci6MGd1JxAYks6wiVE58Eyg8lAde01wmNt6cFPpYZANQ01whMl+cFAoJ4/mwoxwvTu
8cF4yQM/Fug4wtDr8sGInQhAY3ozwo034sEQIf0/RbsywsAy5sEwsAk/VYc1wkis58HEZN1AGRcx
wg7d6cEpg5lAuwc2whpa6sGnlTRApbYuwvIA4MEg+N+9ZDhIwh8L5sEi05BAl5ZHwn175MEnxt9A
sRlAwu1a6MGqsEtA59I+wthE5cEWwwFBYVwtwl5H6cE0g9RAaVk3wi69/cFQgP0+wN0ywr0Q/8G0
5us/IgwtwgHP8sFC6Hg/RYowwoWi9MEM/Qa/Rxw8wv6g78H53ME/SrU6whZW+MHwczdAw5QvwsXn
38HZvRlAlOU1wjbc2sGMaPo/BXc2wqo15cEAnbW8AXUuwgir4sHYUIK/

> <OMEGA_E>
JwoJwQ==

> <OMEGA_NBR>
     20548

$$$$
CACHE3HI_1712_37
  -OEChem-03092622523D

 50 53  0     1  0  0  0  0  0999 V2000
  -54.3991  -30.4696    6.2192 C   0  0  0  0  0  0  0  0  0  0  0  0
  -53.5453  -31.3067    6.9539 C   0  0  0  0  0  0  0  0  0  0  0  0
  -53.8886  -29.3761    5.5175 C   0  0  0  0  0  0  0  0  0  0  0  0
  -52.1716  -31.0596    6.9955 C   0  0  0  0  0  0  0  0  0  0  0  0
  -46.7689  -29.2201    4.0870 C   0  0  0  0  0  0  0  0  0  0  0  0
  -47.7540  -28.9056    5.0165 C   0  0  0  0  0  0  0  0  0  0  0  0
  -45.1712  -29.1933    5.8488 C   0  0  0  0  0  0  0  0  0  0  0  0
  -52.5265  -29.1407    5.5755 C   0  0  0  0  0  0  0  0  0  0  0  0
  -51.6795  -29.9665    6.3033 C   0  0  0  0  0  0  0  0  0  0  0  0
  -45.4504  -29.3685    4.5026 C   0  0  0  0  0  0  0  0  0  0  0  0
  -47.3721  -28.7512    6.3394 C   0  0  0  0  0  0  0  0  0  0  0  0
  -51.7326  -28.0757    4.9175 C   0  0  0  0  0  0  0  0  0  0  0  0
  -44.6254  -32.0794    1.9856 C   0  0  0  0  0  0  0  0  0  0  0  0
  -45.3977  -29.9961    0.9290 C   0  0  0  0  0  0  0  0  0  0  0  0
  -43.4860  -32.1089    0.9783 C   0  0  0  0  0  0  0  0  0  0  0  0
  -44.2270  -30.1102   -0.0358 C   0  0  0  0  0  0  0  0  0  0  0  0
  -50.2797  -29.4852    6.1479 C   0  0  2  0  0  0  0  0  0  0  0  0
  -48.3122  -27.2086    8.0408 C   0  0  0  0  0  0  0  0  0  0  0  0
  -49.5179  -29.3169    7.4506 C   0  0  0  0  0  0  0  0  0  0  0  0
  -46.1017  -28.8874    6.7807 N   0  0  0  0  0  0  0  0  0  0  0  0
  -45.0593  -30.6723    2.2131 N   0  0  0  0  0  0  0  0  0  0  0  0
  -48.3715  -28.4378    7.2601 N   0  0  3  0  0  0  0  0  0  0  0  0
  -43.2307  -30.6423    4.0253 O   0  0  0  0  0  0  0  0  0  0  0  0
  -43.7264  -28.5335    2.7388 O   0  0  0  0  0  0  0  0  0  0  0  0
  -50.4240  -28.1830    5.5247 O   0  0  0  0  0  0  0  0  0  0  0  0
  -43.8873  -31.4835   -0.2434 O   0  0  0  0  0  0  0  0  0  0  0  0
  -44.1910  -29.7642    3.3680 S   0  0  0  0  0  0  0  0  0  0  0  0
  -55.4652  -30.6781    6.1937 H   0  0  0  0  0  0  0  0  0  0  0  0
  -53.9576  -32.1565    7.4912 H   0  0  0  0  0  0  0  0  0  0  0  0
  -54.5464  -28.7320    4.9442 H   0  0  0  0  0  0  0  0  0  0  0  0
  -51.5131  -31.7151    7.5551 H   0  0  0  0  0  0  0  0  0  0  0  0
  -47.0387  -29.3470    3.0422 H   0  0  0  0  0  0  0  0  0  0  0  0
  -48.7857  -28.7890    4.7009 H   0  0  0  0  0  0  0  0  0  0  0  0
  -44.1611  -29.2962    6.2332 H   0  0  0  0  0  0  0  0  0  0  0  0
  -51.6362  -28.2482    3.8415 H   0  0  0  0  0  0  0  0  0  0  0  0
  -52.1255  -27.0750    5.1147 H   0  0  0  0  0  0  0  0  0  0  0  0
  -45.4689  -32.6721    1.6046 H   0  0  0  0  0  0  0  0  0  0  0  0
  -44.2992  -32.5107    2.9442 H   0  0  0  0  0  0  0  0  0  0  0  0
  -45.6237  -28.9383    1.1323 H   0  0  0  0  0  0  0  0  0  0  0  0
  -46.2875  -30.4642    0.4849 H   0  0  0  0  0  0  0  0  0  0  0  0
  -42.6256  -31.5568    1.3691 H   0  0  0  0  0  0  0  0  0  0  0  0
  -43.1586  -33.1345    0.7694 H   0  0  0  0  0  0  0  0  0  0  0  0
  -44.4534  -29.6430   -1.0020 H   0  0  0  0  0  0  0  0  0  0  0  0
  -43.3480  -29.6081    0.3803 H   0  0  0  0  0  0  0  0  0  0  0  0
  -49.7300  -30.1303    5.4530 H   0  0  0  0  0  0  0  0  0  0  0  0
  -49.1770  -27.1335    8.7063 H   0  0  0  0  0  0  0  0  0  0  0  0
  -47.4012  -27.1886    8.6456 H   0  0  0  0  0  0  0  0  0  0  0  0
  -48.3036  -26.3397    7.3769 H   0  0  0  0  0  0  0  0  0  0  0  0
  -50.1784  -28.8901    8.2126 H   0  0  0  0  0  0  0  0  0  0  0  0
  -49.1770  -30.2930    7.8114 H   0  0  0  0  0  0  0  0  0  0  0  0
  1  2  1  0  0  0  0
  1  3  2  0  0  0  0
  2  4  2  0  0  0  0
  3  8  1  0  0  0  0
  4  9  1  0  0  0  0
  5  6  2  0  0  0  0
  5 10  1  0  0  0  0
  6 11  1  0  0  0  0
  7 10  2  0  0  0  0
  7 20  1  0  0  0  0
  8  9  2  0  0  0  0
  8 12  1  0  0  0  0
  9 17  1  0  0  0  0
 10 27  1  0  0  0  0
 11 20  2  0  0  0  0
 11 22  1  0  0  0  0
 12 25  1  0  0  0  0
 13 15  1  0  0  0  0
 13 21  1  0  0  0  0
 14 16  1  0  0  0  0
 14 21  1  0  0  0  0
 15 26  1  0  0  0  0
 16 26  1  0  0  0  0
 17 19  1  0  0  0  0
 17 25  1  0  0  0  0
 18 22  1  0  0  0  0
 19 22  1  0  0  0  0
 21 27  1  0  0  0  0
 23 27  2  0  0  0  0
 24 27  2  0  0  0  0
  1 28  1  0  0  0  0
  2 29  1  0  0  0  0
  3 30  1  0  0  0  0
  4 31  1  0  0  0  0
  5 32  1  0  0  0  0
  6 33  1  0  0  0  0
  7 34  1  0  0  0  0
 12 35  1  0  0  0  0
 12 36  1  0  0  0  0
 13 37  1  0  0  0  0
 13 38  1  0  0  0  0
 14 39  1  0  0  0  0
 14 40  1  0  0  0  0
 15 41  1  0  0  0  0
 15 42  1  0  0  0  0
 16 43  1  0  0  0  0
 16 44  1  0  0  0  0
 17 45  1  0  0  0  0
 18 46  1  0  0  0  0
 18 47  1  0  0  0  0
 18 48  1  0  0  0  0
 19 49  1  0  0  0  0
 19 50  1  0  0  0  0
M  END
> <POSIT::Probability>
0.18

> <POSIT::Method>
HYBRID

> <ReceptorTitle>
UCSF-P4723-REFINED_LIGAND-BOUND-STATE_A__DU__LA1_A-201(A)

> <OMEGA_C>
rJhZwrXB88HgA8dAXS5Wwih0+sGBht5A+Y1XwkMC68G9j7BAva9QwiZ6+MF0299AYRM7wsDC6cET
yYJAGwQ/wsA+58EDh6BAQ680wtCL6cF+KbtAFhtSwiog6cHAarJA2bdOwmS778FjtMlAMc01wqDy
6sEbFZBAE309wn8C5sFH3MpALu5Owgmb4MEdXJ1AcoAywk9RAMJ6J/4/Spc1wu/378Ew1W0/o/Et
wo9vAML4bno/eugwwrPh8MGAyhK9dB5Jwpfh68HSu8RAqj9Bwh+r2cEipwBBVhJGwhaJ6sH1au5A
Hmg4wnQZ58Gr+9hAsTw0ws1g9cFjow1AY3xBwqaA48GfUuhARewswnYj9cF8z4BAy+cuwpxE5MHd
Ry9ANLJJwsN24cGHyrBAoYwvwk7e+8FgNHm+mMMwwgMd7sHIjVdAUtxdwqps9cH7MsZAiNRXwj2g
AMK+t+9AiS9awj3b5cHVNp5Abw1Owou4/cFUw/FAqSc8wpbG6sH9s0JAhyRDwshP5sFibZZA+qQw
wpde6sGkdsdAdItOwmj84cHi23VAioBQwq6Z2MHnq6NAK+A1wjGwAsJ0ZM0/ajIxwu0KAsLTbTxA
pX42wp6B58Gk8JA/YyY5wqi288FAQvg+l4Aqwjp0/MHcPa8/aKIswsOJBMLY+UQ/VNAxwswk7cHI
QIC/XmQtwmTd7MEAusI+i+tGwswK8cEJf65ARLVEwnIR2cHdTAtB3Zo9wlKC2cGGVApB8DZBwqK3
0sHZD+xAq7ZIwv4e58HUZgNBOrVEwipY8sFO9/lA

> <OMEGA_E>
tvk6wA==

> <OMEGA_NBR>
     22051

$$$$
CACHE3HI_1712_72
  -OEChem-03092622523D

 44 47  0     1  0  0  0  0  0999 V2000
  -51.0494  -29.9797    3.6417 C   0  0  0  0  0  0  0  0  0  0  0  0
  -51.1288  -29.4506    4.9281 C   0  0  0  0  0  0  0  0  0  0  0  0
  -49.8153  -30.1103    2.9950 C   0  0  0  0  0  0  0  0  0  0  0  0
  -49.9810  -29.0357    5.6086 C   0  0  0  0  0  0  0  0  0  0  0  0
  -46.5729  -29.1607    4.3893 C   0  0  0  0  0  0  0  0  0  0  0  0
  -43.0560  -29.2822    1.1909 C   0  0  0  0  0  0  0  0  0  0  0  0
  -48.6437  -29.6992    3.6618 C   0  0  0  0  0  0  0  0  0  0  0  0
  -47.2621  -29.6858    3.3207 C   0  0  0  0  0  0  0  0  0  0  0  0
  -48.7533  -29.1722    4.9503 C   0  0  0  0  0  0  0  0  0  0  0  0
  -43.8073  -27.3182    0.5296 C   0  0  0  0  0  0  0  0  0  0  0  0
  -44.8321  -28.2219    0.6880 C   0  0  0  0  0  0  0  0  0  0  0  0
  -46.6838  -31.7415    0.2537 C   0  0  0  0  0  0  0  0  0  0  0  0
  -46.9325  -31.6393    1.7463 C   0  0  0  0  0  0  0  0  0  0  0  0
  -47.3101  -30.4669   -0.2943 C   0  0  0  0  0  0  0  0  0  0  0  0
  -46.6522  -30.1595    2.0248 C   0  0  1  0  0  0  0  0  0  0  0  0
  -43.7756  -25.9066    0.1150 C   0  0  0  0  0  0  0  0  0  0  0  0
  -47.1350  -28.2790    6.6496 C   0  0  0  0  0  0  0  0  0  0  0  0
  -44.3580  -29.4419    1.0998 N   0  0  0  0  0  0  0  0  0  0  0  0
  -42.6759  -28.0122    0.8552 N   0  0  0  0  0  0  0  0  0  0  0  0
  -47.4807  -28.8536    5.3676 N   0  0  0  0  0  0  0  0  0  0  0  0
  -47.1852  -29.4647    0.8051 N   0  0  1  0  0  0  0  0  0  0  0  0
  -46.7412  -27.6801   -0.9969 O   0  0  0  0  0  0  0  0  0  0  0  0
  -46.9984  -26.9684    1.4063 O   0  0  0  0  0  0  0  0  0  0  0  0
  -46.5541  -27.9330    0.4185 S   0  0  0  0  0  0  0  0  0  0  0  0
  -51.9566  -30.2955    3.1329 H   0  0  0  0  0  0  0  0  0  0  0  0
  -52.0984  -29.3585    5.4112 H   0  0  0  0  0  0  0  0  0  0  0  0
  -49.7697  -30.5251    1.9921 H   0  0  0  0  0  0  0  0  0  0  0  0
  -50.0484  -28.6243    6.6100 H   0  0  0  0  0  0  0  0  0  0  0  0
  -45.5159  -28.9813    4.5352 H   0  0  0  0  0  0  0  0  0  0  0  0
  -42.3414  -30.0355    1.4899 H   0  0  0  0  0  0  0  0  0  0  0  0
  -45.6056  -31.7469    0.0531 H   0  0  0  0  0  0  0  0  0  0  0  0
  -47.1170  -32.6428   -0.1889 H   0  0  0  0  0  0  0  0  0  0  0  0
  -47.9737  -31.9027    1.9730 H   0  0  0  0  0  0  0  0  0  0  0  0
  -46.2830  -32.3018    2.3270 H   0  0  0  0  0  0  0  0  0  0  0  0
  -46.8099  -30.1433   -1.2117 H   0  0  0  0  0  0  0  0  0  0  0  0
  -48.3748  -30.6100   -0.5067 H   0  0  0  0  0  0  0  0  0  0  0  0
  -45.5417  -30.0145    2.0717 H   0  0  0  0  0  0  0  0  0  0  0  0
  -43.8704  -25.2160    0.9727 H   0  0  0  0  0  0  0  0  0  0  0  0
  -44.6060  -25.6530   -0.5691 H   0  0  0  0  0  0  0  0  0  0  0  0
  -42.8326  -25.6615   -0.4043 H   0  0  0  0  0  0  0  0  0  0  0  0
  -47.1469  -27.1848    6.6039 H   0  0  0  0  0  0  0  0  0  0  0  0
  -46.1360  -28.6094    6.9509 H   0  0  0  0  0  0  0  0  0  0  0  0
  -47.8543  -28.5786    7.4189 H   0  0  0  0  0  0  0  0  0  0  0  0
  -41.7302  -27.6536    0.8508 H   0  0  0  0  0  0  0  0  0  0  0  0
  1  2  2  0  0  0  0
  1  3  1  0  0  0  0
  2  4  1  0  0  0  0
  3  7  2  0  0  0  0
  4  9  2  0  0  0  0
  5  8  2  0  0  0  0
  5 20  1  0  0  0  0
  6 18  2  0  0  0  0
  6 19  1  0  0  0  0
  7  8  1  0  0  0  0
  7  9  1  0  0  0  0
  8 15  1  0  0  0  0
  9 20  1  0  0  0  0
 10 11  2  0  0  0  0
 10 16  1  0  0  0  0
 10 19  1  0  0  0  0
 11 18  1  0  0  0  0
 11 24  1  0  0  0  0
 12 13  1  0  0  0  0
 12 14  1  0  0  0  0
 13 15  1  0  0  0  0
 14 21  1  0  0  0  0
 15 21  1  0  0  0  0
 17 20  1  0  0  0  0
 21 24  1  0  0  0  0
 22 24  2  0  0  0  0
 23 24  2  0  0  0  0
  1 25  1  0  0  0  0
  2 26  1  0  0  0  0
  3 27  1  0  0  0  0
  4 28  1  0  0  0  0
  5 29  1  0  0  0  0
  6 30  1  0  0  0  0
 12 31  1  0  0  0  0
 12 32  1  0  0  0  0
 13 33  1  0  0  0  0
 13 34  1  0  0  0  0
 14 35  1  0  0  0  0
 14 36  1  0  0  0  0
 15 37  1  0  0  0  0
 16 38  1  0  0  0  0
 16 39  1  0  0  0  0
 16 40  1  0  0  0  0
 17 41  1  0  0  0  0
 17 42  1  0  0  0  0
 17 43  1  0  0  0  0
 19 44  1  0  0  0  0
M  END
> <POSIT::Probability>
0.24

> <POSIT::Method>
FRED

> <ReceptorTitle>
UCSF-P4723-REFINED_LIGAND-BOUND-STATE_A__DU__LA1_A-201(A)

> <OMEGA_C>
lDJMwnLW78GgEWlA3INMwuya68Gesp1A1UJHwuDh8MGgrj9AhuxHwjVJ6MFYebNAsko6whtJ6cFI
dYxAVTkswulB6sFocJg/MJNCwuSX7cFkWmpAXAw9woZ87cFwhlRAXQNDwsFg6cHqaJ5AqDovwruL
2sEYkQc/ClQzwnfG4cHgHzA/Qrw6wqzu/cFA54E+2Lo7wlcd/cFAht8/hz09why888Ggspa+4ps6
wp1G8cG0lQFALBovwqBAz8EAe+s9PIo8wlI74sG8ydRApG4xwuqI68G4xIw/KLQqwv0Y4MGw71o/
Oew9wkbU5sEQw6tAnL08wrK368GwHE4/Avc6wtNw3cH4NH+/af47wj2/18H8ALQ/bzc6wrB238Hg
SdY+l9NPwjJd8sFcgUhAxWRQwjDe6sF+KK1ANRRHwnIz9MGw/P4/kDFIwpf+5MEwhdNASxA2wsjZ
58EQIJFAkl0pwqVI8MHItL4/JWw2wpD5/cEApFk90Hc8wjeSAsLAdkG+FuU/wsI4/8GAivw/0CE5
wgo1AcIU7hRAWj07woUl8cHcGJu/039Bwlfh9MFguQG/tCo2wrQd8MGwlgRAUXsvwlS6ycHQAXk/
iGwywkA5zcFAsBG/jlQrwspKzcGA+s6+YpY8wnd62cHZUtNATos4whDg5MF8bd5Aw2o/wvag5MGJ
Z+1Ar+smwpY63cHgzFk/

> <OMEGA_E>
wogdwQ==

> <OMEGA_NBR>
     23433

$$$$
CACHE3HI_1715_2
  -OEChem-03092622523D

 44 47  0     0  0  0  0  0  0999 V2000
  -47.9370  -28.9556    4.7331 C   0  0  0  0  0  0  0  0  0  0  0  0
  -48.7079  -28.7728    5.8511 C   0  0  0  0  0  0  0  0  0  0  0  0
  -44.2727  -29.3942    6.6677 C   0  0  0  0  0  0  0  0  0  0  0  0
  -46.5459  -29.1857    5.1796 C   0  0  0  0  0  0  0  0  0  0  0  0
  -46.5688  -29.0501    6.5745 C   0  0  0  0  0  0  0  0  0  0  0  0
  -45.3033  -29.4917    4.5485 C   0  0  0  0  0  0  0  0  0  0  0  0
  -44.8004  -25.3270   -1.0158 C   0  0  0  0  0  0  0  0  0  0  0  0
  -43.7998  -25.7441    0.0686 C   0  0  0  0  0  0  0  0  0  0  0  0
  -46.1563  -25.9827   -0.7287 C   0  0  0  0  0  0  0  0  0  0  0  0
  -43.6474  -30.0568    1.1080 C   0  0  0  0  0  0  0  0  0  0  0  0
  -46.0765  -30.1712    0.8385 C   0  0  0  0  0  0  0  0  0  0  0  0
  -43.6408  -27.2714    0.0931 C   0  0  0  0  0  0  0  0  0  0  0  0
  -46.0229  -27.5130   -0.6727 C   0  0  0  0  0  0  0  0  0  0  0  0
  -43.7600  -29.6818    2.5957 C   0  0  0  0  0  0  0  0  0  0  0  0
  -46.3496  -29.6772    2.2573 C   0  0  0  0  0  0  0  0  0  0  0  0
  -44.8195  -29.4987    0.2709 C   0  0  0  0  0  0  0  0  0  0  0  0
  -45.4422  -29.1585    7.3023 N   0  0  0  0  0  0  0  0  0  0  0  0
  -44.1906  -29.5685    5.3273 N   0  0  0  0  0  0  0  0  0  0  0  0
  -47.8803  -28.8288    6.9630 N   0  0  0  0  0  0  0  0  0  0  0  0
  -45.1574  -29.7435    3.1626 N   0  0  0  0  0  0  0  0  0  0  0  0
  -44.9495  -27.9872    0.2730 N   0  0  0  0  0  0  0  0  0  0  0  0
  -48.2829  -28.9354    3.7102 H   0  0  0  0  0  0  0  0  0  0  0  0
  -49.7758  -28.6126    5.8644 H   0  0  0  0  0  0  0  0  0  0  0  0
  -43.3667  -29.4456    7.2533 H   0  0  0  0  0  0  0  0  0  0  0  0
  -44.9126  -24.2328   -1.0119 H   0  0  0  0  0  0  0  0  0  0  0  0
  -44.4342  -25.6546   -2.0000 H   0  0  0  0  0  0  0  0  0  0  0  0
  -42.8241  -25.2816   -0.1416 H   0  0  0  0  0  0  0  0  0  0  0  0
  -44.1641  -25.4020    1.0486 H   0  0  0  0  0  0  0  0  0  0  0  0
  -46.5355  -25.6184    0.2374 H   0  0  0  0  0  0  0  0  0  0  0  0
  -46.8638  -25.7116   -1.5262 H   0  0  0  0  0  0  0  0  0  0  0  0
  -42.7051  -29.6509    0.7115 H   0  0  0  0  0  0  0  0  0  0  0  0
  -43.6405  -31.1532    1.0195 H   0  0  0  0  0  0  0  0  0  0  0  0
  -45.9279  -31.2610    0.8564 H   0  0  0  0  0  0  0  0  0  0  0  0
  -46.9376  -29.9291    0.1983 H   0  0  0  0  0  0  0  0  0  0  0  0
  -43.1911  -27.5938   -0.8576 H   0  0  0  0  0  0  0  0  0  0  0  0
  -42.9740  -27.5427    0.9248 H   0  0  0  0  0  0  0  0  0  0  0  0
  -46.9852  -27.9350   -0.3473 H   0  0  0  0  0  0  0  0  0  0  0  0
  -45.7845  -27.8792   -1.6822 H   0  0  0  0  0  0  0  0  0  0  0  0
  -43.1269  -30.3731    3.1712 H   0  0  0  0  0  0  0  0  0  0  0  0
  -43.3865  -28.6544    2.7183 H   0  0  0  0  0  0  0  0  0  0  0  0
  -46.6844  -28.6308    2.2014 H   0  0  0  0  0  0  0  0  0  0  0  0
  -47.1492  -30.2953    2.6916 H   0  0  0  0  0  0  0  0  0  0  0  0
  -44.6884  -29.8354   -0.7681 H   0  0  0  0  0  0  0  0  0  0  0  0
  -48.1863  -28.7244    7.9093 H   0  0  0  0  0  0  0  0  0  0  0  0
  1  2  2  0  0  0  0
  1  4  1  0  0  0  0
  2 19  1  0  0  0  0
  3 17  1  0  0  0  0
  3 18  2  0  0  0  0
  4  5  1  0  0  0  0
  4  6  2  0  0  0  0
  5 17  2  0  0  0  0
  5 19  1  0  0  0  0
  6 18  1  0  0  0  0
  6 20  1  0  0  0  0
  7  8  1  0  0  0  0
  7  9  1  0  0  0  0
  8 12  1  0  0  0  0
  9 13  1  0  0  0  0
 10 14  1  0  0  0  0
 10 16  1  0  0  0  0
 11 15  1  0  0  0  0
 11 16  1  0  0  0  0
 12 21  1  0  0  0  0
 13 21  1  0  0  0  0
 14 20  1  0  0  0  0
 15 20  1  0  0  0  0
 16 21  1  0  0  0  0
  1 22  1  0  0  0  0
  2 23  1  0  0  0  0
  3 24  1  0  0  0  0
  7 25  1  0  0  0  0
  7 26  1  0  0  0  0
  8 27  1  0  0  0  0
  8 28  1  0  0  0  0
  9 29  1  0  0  0  0
  9 30  1  0  0  0  0
 10 31  1  0  0  0  0
 10 32  1  0  0  0  0
 11 33  1  0  0  0  0
 11 34  1  0  0  0  0
 12 35  1  0  0  0  0
 12 36  1  0  0  0  0
 13 37  1  0  0  0  0
 13 38  1  0  0  0  0
 14 39  1  0  0  0  0
 14 40  1  0  0  0  0
 15 41  1  0  0  0  0
 15 42  1  0  0  0  0
 16 43  1  0  0  0  0
 19 44  1  0  0  0  0
M  END
> <POSIT::Probability>
0.94

> <POSIT::Method>
SHAPEFIT

> <ReceptorTitle>
UCSF-P4723-REFINED_LIGAND-BOUND-STATE_A__DU__LA1_A-201(A)

> <OMEGA_C>
dr8/wiKl58G4dZdA2NRCwqIu5sGCPLtAPhcxwksn68EFXtVABC86wlV86cF3v6VAa0Y6wolm6MHu
YdJAjDY1whnv68EVjZFAmTMzwsOdysFjBYK/+jIvwtTzzcEZlIw9CaA4wp/cz8HbjTq//ZYuwl90
8MFJ1I0/Wk44wqde8cGxpVY/NpAuwugr2sGJmr49cBc4wpwa3MGpMyy/Nwovwkl07cHYHyZA9mU5
ws9q7cGudxBANUczwl3968Heroo+2MQ1wp9E6cFArOlAKsMwwluM7MEreapAZYU/wlyh5sE30d5A
KKE0wqvy7cFTZ0pAScwzwrDl38EkyYs+qSFBwq5758EUdG1AdBpHwqHm5MH3qLtAgnctwpKQ68FR
G+hAd6YzwrjcwcGZhIG/orwxwoU8zcGX//+/4EsrwsJAysG3+BC+FKgwwmE3y8G5N4Y/XCQ6wmTy
zMHzG3M+h3Q7wlKxzcFfWcO/CtIqwhI17cHEJDY/048uwtA5+cGYfoI/J7Y3wn4W+sFYPVs/J8A7
wshu78EsDEs+s8MswiDA3MGpjVu/WOUrwnhX3MHevGw/2/A7wtB638HqzbG+WSM3wp0I38HFUNe/
9IEswjP88sFn9UpA04stwjM85cFq+C1AzLw6wvIL5cHu4wxAvZg8wr5c8sFrQixA58Aywtuu7sFa
okS/xb5AwqfL5cEvGf1A

> <OMEGA_E>
6BY9Pg==

> <OMEGA_NBR>
     24833

$$$$
CACHE3HI_1715_21
  -OEChem-03092622523D

 42 46  0     1  0  0  0  0  0999 V2000
  -45.8201  -28.4195    0.6949 C   0  0  0  0  0  0  0  0  0  0  0  0
  -44.5332  -28.7297    0.2574 C   0  0  0  0  0  0  0  0  0  0  0  0
  -52.4661  -30.8974    7.8661 C   0  0  0  0  0  0  0  0  0  0  0  0
  -51.4725  -30.0246    8.2942 C   0  0  0  0  0  0  0  0  0  0  0  0
  -46.1324  -28.4687    2.0550 C   0  0  0  0  0  0  0  0  0  0  0  0
  -43.5501  -29.0837    1.1806 C   0  0  0  0  0  0  0  0  0  0  0  0
  -52.7608  -30.9981    6.5076 C   0  0  0  0  0  0  0  0  0  0  0  0
  -50.7628  -29.2644    7.3638 C   0  0  0  0  0  0  0  0  0  0  0  0
  -45.1523  -28.8384    2.9829 C   0  0  0  0  0  0  0  0  0  0  0  0
  -43.8636  -29.1324    2.5431 C   0  0  0  0  0  0  0  0  0  0  0  0
  -52.0638  -30.2286    5.5622 C   0  0  0  0  0  0  0  0  0  0  0  0
  -51.0244  -29.3757    5.9854 C   0  0  0  0  0  0  0  0  0  0  0  0
  -46.7110  -28.6561    4.9450 C   0  0  0  0  0  0  0  0  0  0  0  0
  -48.7484  -28.4582    5.2423 C   0  0  0  0  0  0  0  0  0  0  0  0
  -45.4085  -28.9133    4.4433 C   0  0  0  0  0  0  0  0  0  0  0  0
  -42.8316  -29.4753    3.5342 C   0  0  0  0  0  0  0  0  0  0  0  0
  -52.4308  -30.3711    4.1064 C   0  0  0  0  0  0  0  0  0  0  0  0
  -51.9733  -29.1838    3.2658 C   0  0  0  0  0  0  0  0  0  0  0  0
  -50.4975  -28.9118    3.5180 C   0  0  0  0  0  0  0  0  0  0  0  0
  -50.2502  -28.5161    4.9895 C   0  0  1  0  0  0  0  0  0  0  0  0
  -47.8380  -28.8809    4.3179 N   0  0  0  0  0  0  0  0  0  0  0  0
  -48.2408  -27.9928    6.3874 N   0  0  0  0  0  0  0  0  0  0  0  0
  -44.4725  -29.1990    5.3030 N   0  0  0  0  0  0  0  0  0  0  0  0
  -43.2252  -29.4640    4.8544 N   0  0  0  0  0  0  0  0  0  0  0  0
  -41.6888  -29.7445    3.1759 O   0  0  0  0  0  0  0  0  0  0  0  0
  -46.8610  -28.1264    6.1873 O   0  0  0  0  0  0  0  0  0  0  0  0
  -46.5829  -28.1374   -0.0253 H   0  0  0  0  0  0  0  0  0  0  0  0
  -44.2951  -28.6889   -0.8014 H   0  0  0  0  0  0  0  0  0  0  0  0
  -53.0140  -31.4949    8.5877 H   0  0  0  0  0  0  0  0  0  0  0  0
  -51.2497  -29.9320    9.3534 H   0  0  0  0  0  0  0  0  0  0  0  0
  -47.1443  -28.2218    2.3626 H   0  0  0  0  0  0  0  0  0  0  0  0
  -42.5505  -29.3124    0.8217 H   0  0  0  0  0  0  0  0  0  0  0  0
  -53.5440  -31.6807    6.1860 H   0  0  0  0  0  0  0  0  0  0  0  0
  -49.9985  -28.5777    7.7229 H   0  0  0  0  0  0  0  0  0  0  0  0
  -51.9886  -31.2819    3.6965 H   0  0  0  0  0  0  0  0  0  0  0  0
  -53.5178  -30.4631    4.0396 H   0  0  0  0  0  0  0  0  0  0  0  0
  -52.1413  -29.3912    2.2054 H   0  0  0  0  0  0  0  0  0  0  0  0
  -52.5685  -28.3039    3.5210 H   0  0  0  0  0  0  0  0  0  0  0  0
  -49.9058  -29.7916    3.2564 H   0  0  0  0  0  0  0  0  0  0  0  0
  -50.1732  -28.0931    2.8695 H   0  0  0  0  0  0  0  0  0  0  0  0
  -50.6273  -27.4358    5.0625 H   0  0  0  0  0  0  0  0  0  0  0  0
  -42.5563  -29.6836    5.5856 H   0  0  0  0  0  0  0  0  0  0  0  0
  1  2  1  0  0  0  0
  1  5  2  0  0  0  0
  2  6  2  0  0  0  0
  3  4  1  0  0  0  0
  3  7  2  0  0  0  0
  4  8  2  0  0  0  0
  5  9  1  0  0  0  0
  6 10  1  0  0  0  0
  7 11  1  0  0  0  0
  8 12  1  0  0  0  0
  9 10  2  0  0  0  0
  9 15  1  0  0  0  0
 10 16  1  0  0  0  0
 11 12  2  0  0  0  0
 11 17  1  0  0  0  0
 12 20  1  0  0  0  0
 13 15  1  0  0  0  0
 13 21  2  0  0  0  0
 13 26  1  0  0  0  0
 14 20  1  0  0  0  0
 14 21  1  0  0  0  0
 14 22  2  0  0  0  0
 15 23  2  0  0  0  0
 16 24  1  0  0  0  0
 16 25  2  0  0  0  0
 17 18  1  0  0  0  0
 18 19  1  0  0  0  0
 19 20  1  0  0  0  0
 22 26  1  0  0  0  0
 23 24  1  0  0  0  0
  1 27  1  0  0  0  0
  2 28  1  0  0  0  0
  3 29  1  0  0  0  0
  4 30  1  0  0  0  0
  5 31  1  0  0  0  0
  6 32  1  0  0  0  0
  7 33  1  0  0  0  0
  8 34  1  0  0  0  0
 17 35  1  0  0  0  0
 17 36  1  0  0  0  0
 18 37  1  0  0  0  0
 18 38  1  0  0  0  0
 19 39  1  0  0  0  0
 19 40  1  0  0  0  0
 20 41  1  0  0  0  0
 24 42  1  0  0  0  0
M  END
> <POSIT::Probability>
0.24

> <POSIT::Method>
FRED

> <ReceptorTitle>
UCSF-P4723-REFINED_LIGAND-BOUND-STATE_A__DU__LA1_A-201(A)

> <OMEGA_C>
vkc3wgxb48HY5jE//SEywmvW5cGQz4M+Ut1Rwvgt98FYt/tA1+NNwlEy8MEptQRBiIc4wvu/48Gq
hANATTMuwn+r6MEwHZc/DQtTwgb898GBPtBAJg1Lwngd6sEZpOtA/Zs0wg615sFi5z5AT3QvwhYP
6cFkwSJAUkFQwibU8cEj/bFACBlMwlsB68GbiL9AF9g6wqw/5cG0PZ5AV/5Cwluq48HLwKdATqI1
wl5O58HWL45AjFMrwnzN68HsMGJAF7lRwv/38sHqZ4NApuRPwl146cEiAlFAcv1JwkxL58E8JmFA
QABJwgYh5MHZqZ9AFlo/wgkM58ErLIpAiPZAwinx38GcZcxA3uMxwnSX6cFUsqlAl+YswjS268Hx
VptAT8EmwqT07cFOQUtAsXE7wuUC4cFS/sVA7lQ6wk0Z4cEA+s68Oy4xwu+C5cG4KE2/Tg5UwoL1
+8EtZwlBuv9MwrR078GypxVBxJM8wjPG4cEsNBdAwjMqwuF/6sFYWVI/BC1Wwh9y/cGs88VAb/5H
whuf5MHSIfdAUvRPwltB+sHgkmxAOBJWwl2088ECRIFAq5BQwkYh68GeJQ1AIUZSwmNu4sGYWGFA
kJ9Hwh1V7sHsaFBAXrFIwsC+4MHqpTdAWoJKwpt828Hn/6FAozkqwvN37cF2vbJA

> <OMEGA_E>
xWYBwQ==

> <OMEGA_NBR>
     26174

$$$$
CACHE3HI_1715_25
  -OEChem-03092622523D

 40 43  0     1  0  0  0  0  0999 V2000
  -47.8764  -28.9539    4.6578 C   0  0  0  0  0  0  0  0  0  0  0  0
  -48.6776  -28.7782    5.7581 C   0  0  0  0  0  0  0  0  0  0  0  0
  -44.2521  -29.3470    6.6598 C   0  0  0  0  0  0  0  0  0  0  0  0
  -46.5068  -29.2118    5.1420 C   0  0  0  0  0  0  0  0  0  0  0  0
  -46.5546  -29.0475    6.5320 C   0  0  0  0  0  0  0  0  0  0  0  0
  -45.2589  -29.5457    4.5417 C   0  0  0  0  0  0  0  0  0  0  0  0
  -45.4423  -25.6965   -0.8232 C   0  0  0  0  0  0  0  0  0  0  0  0
  -45.8906  -27.1563   -0.8951 C   0  0  0  0  0  0  0  0  0  0  0  0
  -43.8553  -29.9812    1.0005 C   0  0  0  0  0  0  0  0  0  0  0  0
  -46.3525  -29.2617    1.2537 C   0  0  0  0  0  0  0  0  0  0  0  0
  -43.7674  -29.7244    2.5264 C   0  0  0  0  0  0  0  0  0  0  0  0
  -46.2235  -30.3431    2.3203 C   0  0  0  0  0  0  0  0  0  0  0  0
  -44.1797  -25.7262    0.0589 C   0  0  0  0  0  0  0  0  0  0  0  0
  -45.0993  -29.3059    0.3224 C   0  0  0  0  0  0  0  0  0  0  0  0
  -44.7205  -27.9136   -0.2410 C   0  0  2  0  0  0  0  0  0  0  0  0
  -45.4358  -29.1254    7.2767 N   0  0  0  0  0  0  0  0  0  0  0  0
  -44.1513  -29.5688    5.3264 N   0  0  0  0  0  0  0  0  0  0  0  0
  -47.8771  -28.8384    6.8918 N   0  0  0  0  0  0  0  0  0  0  0  0
  -45.1012  -29.9018    3.1863 N   0  0  0  0  0  0  0  0  0  0  0  0
  -44.2199  -26.9948    0.7454 O   0  0  0  0  0  0  0  0  0  0  0  0
  -48.1910  -28.9110    3.6255 H   0  0  0  0  0  0  0  0  0  0  0  0
  -49.7460  -28.6205    5.7448 H   0  0  0  0  0  0  0  0  0  0  0  0
  -43.3505  -29.3471    7.2543 H   0  0  0  0  0  0  0  0  0  0  0  0
  -45.2072  -25.3116   -1.8264 H   0  0  0  0  0  0  0  0  0  0  0  0
  -46.2229  -25.0717   -0.3645 H   0  0  0  0  0  0  0  0  0  0  0  0
  -46.8240  -27.3109   -0.3339 H   0  0  0  0  0  0  0  0  0  0  0  0
  -46.0331  -27.4747   -1.9384 H   0  0  0  0  0  0  0  0  0  0  0  0
  -42.9439  -29.5861    0.5279 H   0  0  0  0  0  0  0  0  0  0  0  0
  -43.9141  -31.0668    0.8330 H   0  0  0  0  0  0  0  0  0  0  0  0
  -47.2600  -29.4392    0.6579 H   0  0  0  0  0  0  0  0  0  0  0  0
  -46.4177  -28.2753    1.7361 H   0  0  0  0  0  0  0  0  0  0  0  0
  -43.0518  -30.4333    2.9684 H   0  0  0  0  0  0  0  0  0  0  0  0
  -43.4172  -28.6957    2.6969 H   0  0  0  0  0  0  0  0  0  0  0  0
  -47.1528  -30.4228    2.9035 H   0  0  0  0  0  0  0  0  0  0  0  0
  -45.9957  -31.3153    1.8588 H   0  0  0  0  0  0  0  0  0  0  0  0
  -43.2748  -25.6535   -0.5622 H   0  0  0  0  0  0  0  0  0  0  0  0
  -44.1959  -24.8972    0.7817 H   0  0  0  0  0  0  0  0  0  0  0  0
  -45.3680  -29.9354   -0.5387 H   0  0  0  0  0  0  0  0  0  0  0  0
  -43.9498  -28.0660   -1.0109 H   0  0  0  0  0  0  0  0  0  0  0  0
  -48.2068  -28.7445    7.8312 H   0  0  0  0  0  0  0  0  0  0  0  0
  1  2  2  0  0  0  0
  1  4  1  0  0  0  0
  2 18  1  0  0  0  0
  3 16  1  0  0  0  0
  3 17  2  0  0  0  0
  4  5  1  0  0  0  0
  4  6  2  0  0  0  0
  5 16  2  0  0  0  0
  5 18  1  0  0  0  0
  6 17  1  0  0  0  0
  6 19  1  0  0  0  0
  7  8  1  0  0  0  0
  7 13  1  0  0  0  0
  8 15  1  0  0  0  0
  9 11  1  0  0  0  0
  9 14  1  0  0  0  0
 10 12  1  0  0  0  0
 10 14  1  0  0  0  0
 11 19  1  0  0  0  0
 12 19  1  0  0  0  0
 13 20  1  0  0  0  0
 14 15  1  0  0  0  0
 15 20  1  0  0  0  0
  1 21  1  0  0  0  0
  2 22  1  0  0  0  0
  3 23  1  0  0  0  0
  7 24  1  0  0  0  0
  7 25  1  0  0  0  0
  8 26  1  0  0  0  0
  8 27  1  0  0  0  0
  9 28  1  0  0  0  0
  9 29  1  0  0  0  0
 10 30  1  0  0  0  0
 10 31  1  0  0  0  0
 11 32  1  0  0  0  0
 11 33  1  0  0  0  0
 12 34  1  0  0  0  0
 12 35  1  0  0  0  0
 13 36  1  0  0  0  0
 13 37  1  0  0  0  0
 14 38  1  0  0  0  0
 15 39  1  0  0  0  0
 18 40  1  0  0  0  0
M  END
> <POSIT::Probability>
0.93

> <POSIT::Method>
SHAPEFIT

> <ReceptorTitle>
UCSF-P4723-REFINED_LIGAND-BOUND-STATE_A__DU__LA1_A-201(A)

> <OMEGA_C>
ZIE/wn6h58G2DJVA5LVCwtg55sH6QbhAJwIxwpTG6sFAHdVAAwc6wryx6cGYi6RA4zc6wkhh6MES
BtFAIQk1wphd7MHEVZFA7cQ1wlqSzcE3ulK//483whhA2cFuJmW/zWsvwpDZ78HVD4A/9Gg5wv4X
6sEseqA/zBEvwpDL7cHFryFA3uQ4wqq+8sGagBRADrgwwlTPzcGgcXE9umU0wm5y6sEgE6U+0eEy
whRP38FfyHa+TL41wtoA6cF+2uhA+5owwtqM7MEWcqpAGoI/wgi15sHYidxArWc0wvY278E57EtA
LeEwwlL118Hgzz4/mMNAws1J58HfCGhA3/tGwtv25MFX1bdA32YtwsrG6sF0I+hAItQ0wjB+ysEI
yem/ROQ4wvGSyMFdnLq+wUs7wqR82sHY9aq+2SE4whnM28FAHPi/mcYrwmCw7MFdIgc//6cvwtWI
+MFBPlU/NAo9wnqD68HDbCg/sas5wr8z4sEhON4/CzUswmt388Hr+T1AQ6stwrSQ5cHEmixAbpw8
wuhh88Gz0zlAovs3wqmF+sGZ7e0/ahktwnM6zcHA7A+/ocgwwm0tx8ERH0g/4Xg1wqR778Hu6Am/
m8wvwieH4MHZZYG/ydNAwrf05cE9mfpA

> <OMEGA_E>
MKJgPg==

> <OMEGA_NBR>
     27499

$$$$
CACHE3HI_1715_4
  -OEChem-03092622523D

 37 40  0     0  0  0  0  0  0999 V2000
  -47.9449  -28.9620    4.7209 C   0  0  0  0  0  0  0  0  0  0  0  0
  -48.7140  -28.8475    5.8527 C   0  0  0  0  0  0  0  0  0  0  0  0
  -44.2443  -29.2840    6.5905 C   0  0  0  0  0  0  0  0  0  0  0  0
  -46.5521  -29.1784    5.1520 C   0  0  0  0  0  0  0  0  0  0  0  0
  -46.5582  -29.0622    6.5480 C   0  0  0  0  0  0  0  0  0  0  0  0
  -45.3150  -29.4441    4.5000 C   0  0  0  0  0  0  0  0  0  0  0  0
  -44.8727  -27.9122   -0.0048 C   0  0  0  0  0  0  0  0  0  0  0  0
  -45.2619  -25.8465   -0.5898 C   0  0  0  0  0  0  0  0  0  0  0  0
  -46.4692  -29.4566    1.1009 C   0  0  0  0  0  0  0  0  0  0  0  0
  -43.9252  -30.0339    0.9724 C   0  0  0  0  0  0  0  0  0  0  0  0
  -46.2905  -30.3501    2.3228 C   0  0  0  0  0  0  0  0  0  0  0  0
  -43.8444  -29.6755    2.4747 C   0  0  0  0  0  0  0  0  0  0  0  0
  -45.1419  -29.3635    0.2745 C   0  0  0  0  0  0  0  0  0  0  0  0
  -46.0300  -24.6804   -1.1423 C   0  0  0  0  0  0  0  0  0  0  0  0
  -45.4132  -29.1279    7.2529 N   0  0  0  0  0  0  0  0  0  0  0  0
  -44.1813  -29.4500    5.2474 N   0  0  0  0  0  0  0  0  0  0  0  0
  -45.7368  -27.1415   -0.6063 N   0  0  0  0  0  0  0  0  0  0  0  0
  -44.0942  -25.8220    0.0069 N   0  0  0  0  0  0  0  0  0  0  0  0
  -47.8735  -28.9089    6.9576 N   0  0  0  0  0  0  0  0  0  0  0  0
  -45.1909  -29.7568    3.1304 N   0  0  0  0  0  0  0  0  0  0  0  0
  -43.8273  -27.1405    0.3906 O   0  0  0  0  0  0  0  0  0  0  0  0
  -48.2963  -28.9040    3.7013 H   0  0  0  0  0  0  0  0  0  0  0  0
  -49.7873  -28.7301    5.8795 H   0  0  0  0  0  0  0  0  0  0  0  0
  -43.3237  -29.2760    7.1552 H   0  0  0  0  0  0  0  0  0  0  0  0
  -47.2617  -29.8744    0.4627 H   0  0  0  0  0  0  0  0  0  0  0  0
  -46.7583  -28.4483    1.4319 H   0  0  0  0  0  0  0  0  0  0  0  0
  -43.0025  -29.6967    0.4775 H   0  0  0  0  0  0  0  0  0  0  0  0
  -44.0168  -31.1256    0.8729 H   0  0  0  0  0  0  0  0  0  0  0  0
  -47.2198  -30.3783    2.9108 H   0  0  0  0  0  0  0  0  0  0  0  0
  -46.0233  -31.3704    2.0104 H   0  0  0  0  0  0  0  0  0  0  0  0
  -43.1604  -30.3777    2.9738 H   0  0  0  0  0  0  0  0  0  0  0  0
  -43.4576  -28.6510    2.5778 H   0  0  0  0  0  0  0  0  0  0  0  0
  -45.3071  -29.8784   -0.6834 H   0  0  0  0  0  0  0  0  0  0  0  0
  -46.9927  -25.0312   -1.5424 H   0  0  0  0  0  0  0  0  0  0  0  0
  -46.2108  -23.9482   -0.3415 H   0  0  0  0  0  0  0  0  0  0  0  0
  -45.4489  -24.2072   -1.9475 H   0  0  0  0  0  0  0  0  0  0  0  0
  -48.1739  -28.8508    7.9096 H   0  0  0  0  0  0  0  0  0  0  0  0
  1  2  2  0  0  0  0
  1  4  1  0  0  0  0
  2 19  1  0  0  0  0
  3 15  2  0  0  0  0
  3 16  1  0  0  0  0
  4  5  2  0  0  0  0
  4  6  1  0  0  0  0
  5 15  1  0  0  0  0
  5 19  1  0  0  0  0
  6 16  2  0  0  0  0
  6 20  1  0  0  0  0
  7 13  1  0  0  0  0
  7 17  2  0  0  0  0
  7 21  1  0  0  0  0
  8 14  1  0  0  0  0
  8 17  1  0  0  0  0
  8 18  2  0  0  0  0
  9 11  1  0  0  0  0
  9 13  1  0  0  0  0
 10 12  1  0  0  0  0
 10 13  1  0  0  0  0
 11 20  1  0  0  0  0
 12 20  1  0  0  0  0
 18 21  1  0  0  0  0
  1 22  1  0  0  0  0
  2 23  1  0  0  0  0
  3 24  1  0  0  0  0
  9 25  1  0  0  0  0
  9 26  1  0  0  0  0
 10 27  1  0  0  0  0
 10 28  1  0  0  0  0
 11 29  1  0  0  0  0
 11 30  1  0  0  0  0
 12 31  1  0  0  0  0
 12 32  1  0  0  0  0
 13 33  1  0  0  0  0
 14 34  1  0  0  0  0
 14 35  1  0  0  0  0
 14 36  1  0  0  0  0
 19 37  1  0  0  0  0
M  END
> <POSIT::Probability>
0.9

> <POSIT::Method>
SHAPEFIT

> <ReceptorTitle>
UCSF-P4723-REFINED_LIGAND-BOUND-STATE_A__DU__LA1_A-201(A)

> <OMEGA_C>
mMc/wiSy58FQEZdALNtCwr7H5sEzSbtAJ/owwp5F6sFz5dJAXjU6wnRt6cEX3aRAoDs6wmR/6MHR
iNFAg0I1wpqN68EsAJBAnH0zwjJM38EAqZu7Mww1wrLFzsFC/Ra/b+A5wjan68G864w/Z7MvwoBF
8MEQ8Xg/gik5wgrN8sHeqBRAtWAvwnhn7cH6YB5ARJE0wnLo6sGIhow+rx44woJxxcFXNZK/Jac1
wu4F6cElGOhAqLkwwqCZ68H86qdAdvI2wrwh2cG2NRu/g2Awwm6TzsEAwOI7fX4/wlRF58GLpN5A
fcM0wgQO7sHqV0hANE8vws4f2cEo+sc+ZC9BwmM758GE4WxAMSZHwjjX5cHpJLxAgUstwiY16sGv
9+RAAgw9wrf+7sFc5uw+fwg7wgWW48FKSbc/lwIswuSS7cExePQ+JxEwwjcB+cEBd18/EeE8wrMG
88HlSTpA1hc4wo32+sGyqQBASqQswoQF88EjUj5AjdQtwjE15cEY+iRAejo1wg4H78EJ9C6/e/g7
wv4/yMGbbsW/5dc4wu6Vv8H43a6+qMs1wkuowcHVRvm/CbJAwm7O5sHaG/1A

> <OMEGA_E>
wJiuPg==

> <OMEGA_NBR>
     28758

$$$$
CACHE3HI_1715_50
  -OEChem-03092622523D

 37 40  0     0  0  0  0  0  0999 V2000
  -44.9207  -25.3937   -0.6520 C   0  0  0  0  0  0  0  0  0  0  0  0
  -47.9262  -28.8698    4.7208 C   0  0  0  0  0  0  0  0  0  0  0  0
  -46.0418  -26.2123   -0.8613 C   0  0  0  0  0  0  0  0  0  0  0  0
  -43.7902  -25.9568   -0.0370 C   0  0  0  0  0  0  0  0  0  0  0  0
  -48.7025  -28.7271    5.8418 C   0  0  0  0  0  0  0  0  0  0  0  0
  -44.2783  -29.4177    6.6556 C   0  0  0  0  0  0  0  0  0  0  0  0
  -46.5404  -29.1325    5.1646 C   0  0  0  0  0  0  0  0  0  0  0  0
  -46.5713  -29.0578    6.5645 C   0  0  0  0  0  0  0  0  0  0  0  0
  -45.2966  -29.4242    4.5272 C   0  0  0  0  0  0  0  0  0  0  0  0
  -44.8876  -28.0269    0.0806 C   0  0  0  0  0  0  0  0  0  0  0  0
  -46.0821  -30.1320    0.8229 C   0  0  0  0  0  0  0  0  0  0  0  0
  -43.6293  -30.0494    1.0935 C   0  0  0  0  0  0  0  0  0  0  0  0
  -46.3368  -29.5827    2.2277 C   0  0  0  0  0  0  0  0  0  0  0  0
  -43.7510  -29.6182    2.5668 C   0  0  0  0  0  0  0  0  0  0  0  0
  -44.7983  -29.5502    0.2196 C   0  0  0  0  0  0  0  0  0  0  0  0
  -46.0086  -27.5100   -0.4940 N   0  0  0  0  0  0  0  0  0  0  0  0
  -43.7875  -27.2607    0.3148 N   0  0  0  0  0  0  0  0  0  0  0  0
  -45.4507  -29.2080    7.2936 N   0  0  0  0  0  0  0  0  0  0  0  0
  -44.1888  -29.5348    5.3091 N   0  0  0  0  0  0  0  0  0  0  0  0
  -47.8827  -28.8405    6.9553 N   0  0  0  0  0  0  0  0  0  0  0  0
  -45.1485  -29.6545    3.1354 N   0  0  0  0  0  0  0  0  0  0  0  0
  -44.9273  -24.3575   -0.9561 H   0  0  0  0  0  0  0  0  0  0  0  0
  -48.2658  -28.8024    3.6978 H   0  0  0  0  0  0  0  0  0  0  0  0
  -46.9314  -25.8030   -1.3166 H   0  0  0  0  0  0  0  0  0  0  0  0
  -42.9209  -25.3454    0.1551 H   0  0  0  0  0  0  0  0  0  0  0  0
  -49.7687  -28.5559    5.8557 H   0  0  0  0  0  0  0  0  0  0  0  0
  -43.3756  -29.4951    7.2433 H   0  0  0  0  0  0  0  0  0  0  0  0
  -45.9875  -31.2265    0.8782 H   0  0  0  0  0  0  0  0  0  0  0  0
  -46.9324  -29.8696    0.1763 H   0  0  0  0  0  0  0  0  0  0  0  0
  -42.6904  -29.6456    0.6867 H   0  0  0  0  0  0  0  0  0  0  0  0
  -43.6046  -31.1483    1.0510 H   0  0  0  0  0  0  0  0  0  0  0  0
  -46.6396  -28.5291    2.1373 H   0  0  0  0  0  0  0  0  0  0  0  0
  -47.1544  -30.1615    2.6822 H   0  0  0  0  0  0  0  0  0  0  0  0
  -43.1209  -30.2882    3.1703 H   0  0  0  0  0  0  0  0  0  0  0  0
  -43.3761  -28.5875    2.6514 H   0  0  0  0  0  0  0  0  0  0  0  0
  -44.6729  -29.9762   -0.7868 H   0  0  0  0  0  0  0  0  0  0  0  0
  -48.1936  -28.7749    7.9035 H   0  0  0  0  0  0  0  0  0  0  0  0
  1  3  1  0  0  0  0
  1  4  2  0  0  0  0
  2  5  2  0  0  0  0
  2  7  1  0  0  0  0
  3 16  2  0  0  0  0
  4 17  1  0  0  0  0
  5 20  1  0  0  0  0
  6 18  2  0  0  0  0
  6 19  1  0  0  0  0
  7  8  2  0  0  0  0
  7  9  1  0  0  0  0
  8 18  1  0  0  0  0
  8 20  1  0  0  0  0
  9 19  2  0  0  0  0
  9 21  1  0  0  0  0
 10 15  1  0  0  0  0
 10 16  1  0  0  0  0
 10 17  2  0  0  0  0
 11 13  1  0  0  0  0
 11 15  1  0  0  0  0
 12 14  1  0  0  0  0
 12 15  1  0  0  0  0
 13 21  1  0  0  0  0
 14 21  1  0  0  0  0
  1 22  1  0  0  0  0
  2 23  1  0  0  0  0
  3 24  1  0  0  0  0
  4 25  1  0  0  0  0
  5 26  1  0  0  0  0
  6 27  1  0  0  0  0
 11 28  1  0  0  0  0
 11 29  1  0  0  0  0
 12 30  1  0  0  0  0
 12 31  1  0  0  0  0
 13 32  1  0  0  0  0
 13 33  1  0  0  0  0
 14 34  1  0  0  0  0
 14 35  1  0  0  0  0
 15 36  1  0  0  0  0
 20 37  1  0  0  0  0
M  END
> <POSIT::Probability>
0.95

> <POSIT::Method>
SHAPEFIT

> <ReceptorTitle>
UCSF-P4723-REFINED_LIGAND-BOUND-STATE_A__DU__LA1_A-201(A)

> <OMEGA_C>
1a4zwmImy8Hi6ia/crQ/wkj15sEbEZdAwSo4wtey0cFme1y/HikvwpOnz8FQXhe9Vc9CwiPR5cE0
8LpABx0xwmNX68Hc+tRAaCk6wlAP6cF2RKVA/Eg6wmx26MFEENJAuS81wt1k68Em35BA3IwzwgM3
4MF6HKU9BlQ4wkwO8cEWrFI/W4Quwjdl8MFz94s/31g5wm2p7MEIkw5A/AAvwh/y7MF2RiRAbzEz
wrZm7MF81GA+xwg4wm4U3MHw6Py+XSYvwtUV2sGDLKE+jc01wvip6cHTZOlAX8EwwjlH7MHg46lA
5Yc/wmi55sGdkd5ACpg0wlc87cF1qkhAgrUzwhfcwsG4xXS/IxBBwklr5sEJqWxAw7k7wnhszsFX
hqi/+K4rwlfDysGozx4+LRNHwn9y5MH3YbtAl4Atwuz168FyyedAOfM3wujP+cGH02A/xLo7wun0
7sHulDQ+/MIqwh0q7cGOyy8/EWsuwsQv+cExh4Y/9446wpw75MFpyQhAFp48wshK8cEsqStA1nss
wkZO8sGf5UpAKIEtwkGz5MElsSlAFLEywinP78FabUm/OMZAwv4y5sEm6fxA

> <OMEGA_E>
+MCOPg==

> <OMEGA_NBR>
     30020

$$$$
CACHE3HI_1715_70
  -OEChem-03092622523D

 39 42  0     1  0  0  0  0  0999 V2000
  -46.0313  -27.4446   -0.3434 C   0  0  0  0  0  0  0  0  0  0  0  0
  -45.9902  -26.1201   -0.6861 C   0  0  0  0  0  0  0  0  0  0  0  0
  -48.6581  -28.6344    5.7135 C   0  0  0  0  0  0  0  0  0  0  0  0
  -44.2917  -29.5316    6.6218 C   0  0  0  0  0  0  0  0  0  0  0  0
  -46.5199  -29.1997    5.0931 C   0  0  0  0  0  0  0  0  0  0  0  0
  -47.8987  -28.9641    4.6141 C   0  0  0  0  0  0  0  0  0  0  0  0
  -44.7390  -27.7703    0.3323 C   0  0  0  0  0  0  0  0  0  0  0  0
  -46.5613  -29.0414    6.4865 C   0  0  0  0  0  0  0  0  0  0  0  0
  -45.2711  -29.5026    4.4848 C   0  0  0  0  0  0  0  0  0  0  0  0
  -45.2951  -30.2617    0.8294 C   0  0  0  0  0  0  0  0  0  0  0  0
  -45.4548  -30.7357    2.2819 C   0  0  0  0  0  0  0  0  0  0  0  0
  -43.9219  -29.0029    2.4035 C   0  0  0  0  0  0  0  0  0  0  0  0
  -44.2526  -29.1154    0.8961 C   0  0  2  0  0  0  0  0  0  0  0  0
  -47.9723  -28.1116    2.2322 C   0  0  0  0  0  0  0  0  0  0  0  0
  -48.4904  -29.1475    3.2325 C   0  0  0  0  0  0  0  0  0  0  0  0
  -45.4575  -29.2185    7.2359 N   0  0  0  0  0  0  0  0  0  0  0  0
  -44.1776  -29.6481    5.2733 N   0  0  0  0  0  0  0  0  0  0  0  0
  -43.9965  -26.6809    0.3181 N   0  0  0  0  0  0  0  0  0  0  0  0
  -47.8495  -28.6752    6.8400 N   0  0  0  0  0  0  0  0  0  0  0  0
  -44.7449  -25.7206   -0.2775 N   0  0  0  0  0  0  0  0  0  0  0  0
  -45.1155  -29.5482    3.0930 N   0  0  2  0  0  0  0  0  0  0  0  0
  -46.8470  -28.1280   -0.5275 H   0  0  0  0  0  0  0  0  0  0  0  0
  -46.7575  -25.5299   -1.1649 H   0  0  0  0  0  0  0  0  0  0  0  0
  -49.7089  -28.3853    5.7013 H   0  0  0  0  0  0  0  0  0  0  0  0
  -43.4149  -29.6958    7.2307 H   0  0  0  0  0  0  0  0  0  0  0  0
  -44.9293  -31.0809    0.1929 H   0  0  0  0  0  0  0  0  0  0  0  0
  -46.2530  -29.8912    0.4357 H   0  0  0  0  0  0  0  0  0  0  0  0
  -46.4888  -31.0573    2.4753 H   0  0  0  0  0  0  0  0  0  0  0  0
  -44.7660  -31.5655    2.4989 H   0  0  0  0  0  0  0  0  0  0  0  0
  -43.0278  -29.5946    2.6496 H   0  0  0  0  0  0  0  0  0  0  0  0
  -43.7562  -27.9530    2.6868 H   0  0  0  0  0  0  0  0  0  0  0  0
  -43.3470  -29.4257    0.3542 H   0  0  0  0  0  0  0  0  0  0  0  0
  -48.4316  -28.2892    1.2486 H   0  0  0  0  0  0  0  0  0  0  0  0
  -48.2335  -27.1019    2.5818 H   0  0  0  0  0  0  0  0  0  0  0  0
  -46.8790  -28.1989    2.1473 H   0  0  0  0  0  0  0  0  0  0  0  0
  -48.2299  -30.1519    2.8673 H   0  0  0  0  0  0  0  0  0  0  0  0
  -49.5843  -29.0549    3.3018 H   0  0  0  0  0  0  0  0  0  0  0  0
  -48.1523  -28.4703    7.7708 H   0  0  0  0  0  0  0  0  0  0  0  0
  -44.4119  -24.7869   -0.4094 H   0  0  0  0  0  0  0  0  0  0  0  0
  1  2  2  0  0  0  0
  1  7  1  0  0  0  0
  2 20  1  0  0  0  0
  3  6  2  0  0  0  0
  3 19  1  0  0  0  0
  4 16  1  0  0  0  0
  4 17  2  0  0  0  0
  5  6  1  0  0  0  0
  5  8  1  0  0  0  0
  5  9  2  0  0  0  0
  6 15  1  0  0  0  0
  7 13  1  0  0  0  0
  7 18  2  0  0  0  0
  8 16  2  0  0  0  0
  8 19  1  0  0  0  0
  9 17  1  0  0  0  0
  9 21  1  0  0  0  0
 10 11  1  0  0  0  0
 10 13  1  0  0  0  0
 11 21  1  0  0  0  0
 12 13  1  0  0  0  0
 12 21  1  0  0  0  0
 14 15  1  0  0  0  0
 18 20  1  0  0  0  0
  1 22  1  0  0  0  0
  2 23  1  0  0  0  0
  3 24  1  0  0  0  0
  4 25  1  0  0  0  0
 10 26  1  0  0  0  0
 10 27  1  0  0  0  0
 11 28  1  0  0  0  0
 11 29  1  0  0  0  0
 12 30  1  0  0  0  0
 12 31  1  0  0  0  0
 13 32  1  0  0  0  0
 14 33  1  0  0  0  0
 14 34  1  0  0  0  0
 14 35  1  0  0  0  0
 15 36  1  0  0  0  0
 15 37  1  0  0  0  0
 19 38  1  0  0  0  0
 20 39  1  0  0  0  0
M  END
> <POSIT::Probability>
0.9

> <POSIT::Method>
SHAPEFIT

> <ReceptorTitle>
UCSF-P4723-REFINED_LIGAND-BOUND-STATE_A__DU__LA1_A-201(A)

> <OMEGA_C>
ASA4wnqO28E01q++AvY3wg720MEkoS+/7KFCwkET5cHt1LZAtSoxwsRA7MEM5tNAVhQ6wgmZ6cGt
+qJAQ5g/woK258FwppNAwPQywosp3sG0HKo+xD46wrhU6MEYkc9AoxU1wlQF7MG1g49AIy41wvUX
8sHmUlQ/q9E1wsfi9cE2ChJAArAvwusF6MGM0hlAsAIxwnDs6MEeZ2U/neM/wqPk4ME43A5AKvZB
whcu6cGw4E5AcdQ1wmO/6cE0jOdA1bUwwlsv7cEHv6hAbfwvwpVy1cEk3qI+5mU/wtlm5cFI4dpA
zvoywsfDzcGUFI6+SHY0wq5i7MEI9EVAU2M7wiwG4cEJCAe/tgc7wkY9zMGbG5W/89VGwhUV48HQ
cLZA36gtwhSR7cGNYedAlLczwral+MGxjUU+GAM5wikh78GWDt8+ffQ5wlt1+MHrax5AZxAzwi+G
/MHE7R9AeBwswqTB7MFnkilAXAYvwr2f38Gm9CtAXWMtwtFn68F9WrU++blBwlRQ4sG50Z8/Fe9A
wrTQ2MHeOyVAIoQ7wliX4cGybQlAXutAwhc38cGfgjdAUVZGwnNw6MHMUFNA7ptAwkHD48FCqvhA
0KUxwqNLxsG0l9G+

> <OMEGA_E>
IGvxPg==

> <OMEGA_NBR>
     31329

$$$$
CACHE3HI_1715_9
  -OEChem-03092622523D

 36 39  0     1  0  0  0  0  0999 V2000
  -43.7056  -26.0898    0.0783 C   0  0  0  0  0  0  0  0  0  0  0  0
  -44.7247  -25.3826   -0.5845 C   0  0  0  0  0  0  0  0  0  0  0  0
  -43.9208  -27.4178    0.4903 C   0  0  0  0  0  0  0  0  0  0  0  0
  -45.9637  -26.0025   -0.8317 C   0  0  0  0  0  0  0  0  0  0  0  0
  -47.8987  -28.9481    4.6438 C   0  0  0  0  0  0  0  0  0  0  0  0
  -48.6784  -28.7256    5.7524 C   0  0  0  0  0  0  0  0  0  0  0  0
  -44.2698  -29.4605    6.6144 C   0  0  0  0  0  0  0  0  0  0  0  0
  -46.5163  -29.1432    5.1098 C   0  0  0  0  0  0  0  0  0  0  0  0
  -45.1594  -28.0605    0.2315 C   0  0  0  0  0  0  0  0  0  0  0  0
  -46.1859  -27.3320   -0.4212 C   0  0  0  0  0  0  0  0  0  0  0  0
  -46.5566  -29.0481    6.5073 C   0  0  0  0  0  0  0  0  0  0  0  0
  -45.2690  -29.4050    4.4847 C   0  0  0  0  0  0  0  0  0  0  0  0
  -44.2175  -30.3491    0.9900 C   0  0  0  0  0  0  0  0  0  0  0  0
  -43.8823  -30.1129    2.4686 C   0  0  0  0  0  0  0  0  0  0  0  0
  -46.1755  -29.4475    2.0652 C   0  0  0  0  0  0  0  0  0  0  0  0
  -45.4552  -29.4891    0.7134 C   0  0  1  0  0  0  0  0  0  0  0  0
  -45.4414  -29.2108    7.2447 N   0  0  0  0  0  0  0  0  0  0  0  0
  -44.1683  -29.5522    5.2649 N   0  0  0  0  0  0  0  0  0  0  0  0
  -47.8655  -28.7844    6.8784 N   0  0  0  0  0  0  0  0  0  0  0  0
  -45.1105  -29.5425    3.0965 N   0  0  3  0  0  0  0  0  0  0  0  0
  -47.3932  -27.9014   -0.6548 F   0  0  0  0  0  0  0  0  0  0  0  0
  -42.7562  -25.6127    0.2715 H   0  0  0  0  0  0  0  0  0  0  0  0
  -44.5565  -24.3646   -0.9036 H   0  0  0  0  0  0  0  0  0  0  0  0
  -43.1375  -27.9521    1.0073 H   0  0  0  0  0  0  0  0  0  0  0  0
  -46.7468  -25.4574   -1.3377 H   0  0  0  0  0  0  0  0  0  0  0  0
  -48.2376  -28.9750    3.6187 H   0  0  0  0  0  0  0  0  0  0  0  0
  -49.7418  -28.5370    5.7498 H   0  0  0  0  0  0  0  0  0  0  0  0
  -43.3790  -29.5921    7.2107 H   0  0  0  0  0  0  0  0  0  0  0  0
  -43.3795  -30.0353    0.3502 H   0  0  0  0  0  0  0  0  0  0  0  0
  -44.4385  -31.4115    0.8100 H   0  0  0  0  0  0  0  0  0  0  0  0
  -43.6139  -31.0630    2.9537 H   0  0  0  0  0  0  0  0  0  0  0  0
  -43.0452  -29.4052    2.5600 H   0  0  0  0  0  0  0  0  0  0  0  0
  -46.7307  -28.5042    2.1742 H   0  0  0  0  0  0  0  0  0  0  0  0
  -46.8712  -30.2949    2.1544 H   0  0  0  0  0  0  0  0  0  0  0  0
  -46.0940  -29.9965   -0.0244 H   0  0  0  0  0  0  0  0  0  0  0  0
  -48.1794  -28.6554    7.8191 H   0  0  0  0  0  0  0  0  0  0  0  0
  1  2  1  0  0  0  0
  1  3  2  0  0  0  0
  2  4  2  0  0  0  0
  3  9  1  0  0  0  0
  4 10  1  0  0  0  0
  5  6  2  0  0  0  0
  5  8  1  0  0  0  0
  6 19  1  0  0  0  0
  7 17  2  0  0  0  0
  7 18  1  0  0  0  0
  8 11  2  0  0  0  0
  8 12  1  0  0  0  0
  9 10  2  0  0  0  0
  9 16  1  0  0  0  0
 10 21  1  0  0  0  0
 11 17  1  0  0  0  0
 11 19  1  0  0  0  0
 12 18  2  0  0  0  0
 12 20  1  0  0  0  0
 13 14  1  0  0  0  0
 13 16  1  0  0  0  0
 14 20  1  0  0  0  0
 15 16  1  0  0  0  0
 15 20  1  0  0  0  0
  1 22  1  0  0  0  0
  2 23  1  0  0  0  0
  3 24  1  0  0  0  0
  4 25  1  0  0  0  0
  5 26  1  0  0  0  0
  6 27  1  0  0  0  0
  7 28  1  0  0  0  0
 13 29  1  0  0  0  0
 13 30  1  0  0  0  0
 14 31  1  0  0  0  0
 14 32  1  0  0  0  0
 15 33  1  0  0  0  0
 15 34  1  0  0  0  0
 16 35  1  0  0  0  0
 19 36  1  0  0  0  0
M  END
> <POSIT::Probability>
0.99

> <POSIT::Method>
SHAPEFIT

> <ReceptorTitle>
UCSF-P4723-REFINED_LIGAND-BOUND-STATE_A__DU__LA1_A-201(A)

> <OMEGA_C>
ldIuwvq30MHAbaA9GuYywpkPy8H0pBW/8a4vwpdX28FeBPs+0No3wiAF0MF86lS/PZg/wsSV58FE
mpRAr7ZCwvDN5cEMFLhAOxQxwhGv68FaqdNAsxA6wkEl6cHgg6NAMKM0wvF74MG8C20+Xb44wvqn
2sEgote+/zk6wm5i6MGIO9BAdRM1wlg968EEg49Asd4wwtzK8sEmcX0/gocvwkDn8MF7/R1At7M4
woyU68G1LARAHtI1wqXp68FgpDY/BcQ1wq+v6cEw1OdATqwwwvVq7MFOeqhARHY/wohG5sEAHNxA
KXE0wv9W7MHXLUZAmJI9wvk138E8oSe/XgYrwsPmzMEIAYs+5TkywsPqwsErVWe/2YwswtWd38HR
8IA/tvw6ws+oy8EEOqu/TPNAwuXM58F+mWdAm/dGwq5L5MEE/rdAD4Qtwpq87MEtvuZAo4QtwkFI
8MHPSLM++sAxwrZK+8EZWk8/pXQuwgGB+MEaCT1ASy4swtg968Fe1yNASew6wqYI5MG+JQtAH3w7
wvhb8sFD4QlARGA4wu/478E4wse8rrdAwj4+5cHSNfpA

> <OMEGA_E>
QMXkPA==

> <OMEGA_NBR>
     32577

$$$$
CACHE3HI_1716_40
  -OEChem-03092622523D

 37 40  0     1  0  0  0  0  0999 V2000
  -44.6784  -25.6402   -0.6573 C   0  0  0  0  0  0  0  0  0  0  0  0
  -45.9627  -26.2009   -0.7672 C   0  0  0  0  0  0  0  0  0  0  0  0
  -47.8712  -28.8435    4.5677 C   0  0  0  0  0  0  0  0  0  0  0  0
  -44.1140  -27.2795    1.0639 C   0  0  0  0  0  0  0  0  0  0  0  0
  -48.6614  -28.6838    5.6798 C   0  0  0  0  0  0  0  0  0  0  0  0
  -44.2756  -29.4718    6.5726 C   0  0  0  0  0  0  0  0  0  0  0  0
  -46.4821  -29.0385    5.0277 C   0  0  0  0  0  0  0  0  0  0  0  0
  -45.4198  -27.8320    0.9898 C   0  0  0  0  0  0  0  0  0  0  0  0
  -43.7430  -26.2017    0.2312 C   0  0  0  0  0  0  0  0  0  0  0  0
  -46.3222  -27.3106    0.0239 C   0  0  0  0  0  0  0  0  0  0  0  0
  -46.5475  -29.0232    6.4340 C   0  0  0  0  0  0  0  0  0  0  0  0
  -45.2134  -29.2678    4.4122 C   0  0  0  0  0  0  0  0  0  0  0  0
  -45.7670  -30.3220    0.9914 C   0  0  0  0  0  0  0  0  0  0  0  0
  -43.8930  -30.3074    2.5179 C   0  0  0  0  0  0  0  0  0  0  0  0
  -45.8502  -29.0527    1.8402 C   0  0  1  0  0  0  0  0  0  0  0  0
  -44.3069  -30.7486    1.1073 C   0  0  2  0  0  0  0  0  0  0  0  0
  -45.4541  -29.2367    7.1871 N   0  0  0  0  0  0  0  0  0  0  0  0
  -44.1424  -29.4868    5.2232 N   0  0  0  0  0  0  0  0  0  0  0  0
  -47.8594  -28.7846    6.8062 N   0  0  0  0  0  0  0  0  0  0  0  0
  -44.9682  -29.3884    3.0188 N   0  0  1  0  0  0  0  0  0  0  0  0
  -43.5093  -30.0860    0.1281 O   0  0  0  0  0  0  0  0  0  0  0  0
  -42.4864  -25.7038    0.2847 F   0  0  0  0  0  0  0  0  0  0  0  0
  -47.5358  -27.8812   -0.1660 F   0  0  0  0  0  0  0  0  0  0  0  0
  -44.4103  -24.7804   -1.2534 H   0  0  0  0  0  0  0  0  0  0  0  0
  -46.6762  -25.7801   -1.4601 H   0  0  0  0  0  0  0  0  0  0  0  0
  -48.2060  -28.8291    3.5410 H   0  0  0  0  0  0  0  0  0  0  0  0
  -43.3987  -27.6872    1.7630 H   0  0  0  0  0  0  0  0  0  0  0  0
  -49.7272  -28.5093    5.6773 H   0  0  0  0  0  0  0  0  0  0  0  0
  -43.4024  -29.6556    7.1809 H   0  0  0  0  0  0  0  0  0  0  0  0
  -46.4347  -31.1015    1.3873 H   0  0  0  0  0  0  0  0  0  0  0  0
  -46.0306  -30.1103   -0.0553 H   0  0  0  0  0  0  0  0  0  0  0  0
  -43.8057  -31.1831    3.1780 H   0  0  0  0  0  0  0  0  0  0  0  0
  -42.9293  -29.7782    2.4815 H   0  0  0  0  0  0  0  0  0  0  0  0
  -46.8858  -28.9080    2.1817 H   0  0  0  0  0  0  0  0  0  0  0  0
  -44.2264  -31.8420    1.0189 H   0  0  0  0  0  0  0  0  0  0  0  0
  -48.1812  -28.6978    7.7489 H   0  0  0  0  0  0  0  0  0  0  0  0
  -42.6049  -30.3634    0.2153 H   0  0  0  0  0  0  0  0  0  0  0  0
  1  2  1  0  0  0  0
  1  9  2  0  0  0  0
  2 10  2  0  0  0  0
  3  5  2  0  0  0  0
  3  7  1  0  0  0  0
  4  8  2  0  0  0  0
  4  9  1  0  0  0  0
  5 19  1  0  0  0  0
  6 17  2  0  0  0  0
  6 18  1  0  0  0  0
  7 11  2  0  0  0  0
  7 12  1  0  0  0  0
  8 10  1  0  0  0  0
  8 15  1  0  0  0  0
  9 22  1  0  0  0  0
 10 23  1  0  0  0  0
 11 17  1  0  0  0  0
 11 19  1  0  0  0  0
 12 18  2  0  0  0  0
 12 20  1  0  0  0  0
 13 15  1  0  0  0  0
 13 16  1  0  0  0  0
 14 16  1  0  0  0  0
 14 20  1  0  0  0  0
 15 20  1  0  0  0  0
 16 21  1  0  0  0  0
  1 24  1  0  0  0  0
  2 25  1  0  0  0  0
  3 26  1  0  0  0  0
  4 27  1  0  0  0  0
  5 28  1  0  0  0  0
  6 29  1  0  0  0  0
 13 30  1  0  0  0  0
 13 31  1  0  0  0  0
 14 32  1  0  0  0  0
 14 33  1  0  0  0  0
 15 34  1  0  0  0  0
 16 35  1  0  0  0  0
 19 36  1  0  0  0  0
 21 37  1  0  0  0  0
M  END
> <POSIT::Probability>
0.91

> <POSIT::Method>
SHAPEFIT

> <ReceptorTitle>
UCSF-P4723-REFINED_LIGAND-BOUND-STATE_A__DU__LA1_A-201(A)

> <OMEGA_C>
qbYywg0fzcEJRSi/x9k3womb0cHWZkS/EXw/wpS/5sFjKpJAsnQwwoE82sFYL4g/TKVCwoZ45cFG
wbVAOxoxwkPG68F6UtJAqe05wsJO6MEa46BA6601wuan3sH5ZX0/2/guwiqd0cHctmw+80k5wjR8
2sEML8Q8pjA6wo0v6MFW481Ajdo0wokk6sHHMI1AcRE3wm6T8sGxzn0/ZJIvwqZ18sG2JSFAl2Y3
wtRr6MGWjOs/Tjoxwgz99cF2vI0/CdE1wrDk6cGr/OVA05Ewwgvl68HFJKdA/W8/wvFG5sEBzNlA
Z98zwlgb68HNNEFAiwkuwiew8MEQNgM+F/IpwnqhzcFixJE+qyQ+wpsM38Fc+Cm+IqQxwjg+xsGf
bqC/ebQ6wq49zsGe5Lq/79JAwvyh5sGVn2JAT5gtwlR/3cF+quE/rehGwhET5MFHrLVACJwtwr8+
7cHeyeVAHL05wsbP+MEAkrE/XR84wvbh8MGyomK9BTkvwux2+cEDZEtAnrcrwtY57sGj0B5ADos7
wqdD58HgoAtA4ucwwoG8/sHMa4I/kLlAwgGV5cFj9/dAbmsqwkvo8sHbbVw+

> <OMEGA_E>
8ALIPg==

> <OMEGA_NBR>
     33850

$$$$
CACHE3HI_1716_51
  -OEChem-03092622523D

 42 45  0     1  0  0  0  0  0999 V2000
  -44.8759  -25.3996   -0.8514 C   0  0  0  0  0  0  0  0  0  0  0  0
  -46.0857  -26.1027   -1.0032 C   0  0  0  0  0  0  0  0  0  0  0  0
  -43.7936  -25.9926   -0.1701 C   0  0  0  0  0  0  0  0  0  0  0  0
  -46.2093  -27.3994   -0.4766 C   0  0  0  0  0  0  0  0  0  0  0  0
  -43.9160  -27.2899    0.3626 C   0  0  0  0  0  0  0  0  0  0  0  0
  -47.8795  -28.8443    4.6581 C   0  0  0  0  0  0  0  0  0  0  0  0
  -48.6695  -28.6605    5.7667 C   0  0  0  0  0  0  0  0  0  0  0  0
  -44.2930  -29.5410    6.6526 C   0  0  0  0  0  0  0  0  0  0  0  0
  -46.5083  -29.1070    5.1292 C   0  0  0  0  0  0  0  0  0  0  0  0
  -45.1236  -28.0051    0.1966 C   0  0  0  0  0  0  0  0  0  0  0  0
  -46.5632  -29.0535    6.5293 C   0  0  0  0  0  0  0  0  0  0  0  0
  -45.2591  -29.3962    4.5118 C   0  0  0  0  0  0  0  0  0  0  0  0
  -47.0524  -30.6144    2.0288 C   0  0  0  0  0  0  0  0  0  0  0  0
  -44.0664  -30.2268    1.0234 C   0  0  0  0  0  0  0  0  0  0  0  0
  -43.7956  -30.0061    2.5123 C   0  0  0  0  0  0  0  0  0  0  0  0
  -45.3238  -29.4148    0.7180 C   0  0  1  0  0  0  0  0  0  0  0  0
  -46.1028  -29.4093    2.0524 C   0  0  2  0  0  0  0  0  0  0  0  0
  -47.9049  -31.7094    0.1296 C   0  0  0  0  0  0  0  0  0  0  0  0
  -45.4627  -29.2675    7.2745 N   0  0  0  0  0  0  0  0  0  0  0  0
  -44.1777  -29.6050    5.3039 N   0  0  0  0  0  0  0  0  0  0  0  0
  -47.8707  -28.7789    6.8971 N   0  0  0  0  0  0  0  0  0  0  0  0
  -45.0692  -29.5137    3.1216 N   0  0  3  0  0  0  0  0  0  0  0  0
  -46.9270  -31.5237    2.8439 O   0  0  0  0  0  0  0  0  0  0  0  0
  -48.0037  -30.6081    1.0590 O   0  0  0  0  0  0  0  0  0  0  0  0
  -44.7765  -24.4039   -1.2577 H   0  0  0  0  0  0  0  0  0  0  0  0
  -46.9159  -25.6471   -1.5225 H   0  0  0  0  0  0  0  0  0  0  0  0
  -42.8670  -25.4496   -0.0564 H   0  0  0  0  0  0  0  0  0  0  0  0
  -47.1396  -27.9369   -0.5869 H   0  0  0  0  0  0  0  0  0  0  0  0
  -43.0902  -27.7369    0.8960 H   0  0  0  0  0  0  0  0  0  0  0  0
  -48.2041  -28.8038    3.6288 H   0  0  0  0  0  0  0  0  0  0  0  0
  -49.7304  -28.4584    5.7606 H   0  0  0  0  0  0  0  0  0  0  0  0
  -43.4145  -29.7155    7.2561 H   0  0  0  0  0  0  0  0  0  0  0  0
  -43.2196  -29.8674    0.4203 H   0  0  0  0  0  0  0  0  0  0  0  0
  -44.2370  -31.2937    0.8168 H   0  0  0  0  0  0  0  0  0  0  0  0
  -43.4919  -30.9518    2.9850 H   0  0  0  0  0  0  0  0  0  0  0  0
  -43.0000  -29.2581    2.6445 H   0  0  0  0  0  0  0  0  0  0  0  0
  -45.9202  -29.9728   -0.0189 H   0  0  0  0  0  0  0  0  0  0  0  0
  -46.6757  -28.4755    2.1515 H   0  0  0  0  0  0  0  0  0  0  0  0
  -48.7067  -31.6309   -0.6193 H   0  0  0  0  0  0  0  0  0  0  0  0
  -46.9278  -31.6769   -0.3747 H   0  0  0  0  0  0  0  0  0  0  0  0
  -48.0045  -32.6594    0.6751 H   0  0  0  0  0  0  0  0  0  0  0  0
  -48.1923  -28.6804    7.8389 H   0  0  0  0  0  0  0  0  0  0  0  0
  1  2  1  0  0  0  0
  1  3  2  0  0  0  0
  2  4  2  0  0  0  0
  3  5  1  0  0  0  0
  4 10  1  0  0  0  0
  5 10  2  0  0  0  0
  6  7  2  0  0  0  0
  6  9  1  0  0  0  0
  7 21  1  0  0  0  0
  8 19  2  0  0  0  0
  8 20  1  0  0  0  0
  9 11  2  0  0  0  0
  9 12  1  0  0  0  0
 10 16  1  0  0  0  0
 11 19  1  0  0  0  0
 11 21  1  0  0  0  0
 12 20  2  0  0  0  0
 12 22  1  0  0  0  0
 13 17  1  0  0  0  0
 13 23  2  0  0  0  0
 13 24  1  0  0  0  0
 14 15  1  0  0  0  0
 14 16  1  0  0  0  0
 15 22  1  0  0  0  0
 16 17  1  0  0  0  0
 17 22  1  0  0  0  0
 18 24  1  0  0  0  0
  1 25  1  0  0  0  0
  2 26  1  0  0  0  0
  3 27  1  0  0  0  0
  4 28  1  0  0  0  0
  5 29  1  0  0  0  0
  6 30  1  0  0  0  0
  7 31  1  0  0  0  0
  8 32  1  0  0  0  0
 14 33  1  0  0  0  0
 14 34  1  0  0  0  0
 15 35  1  0  0  0  0
 15 36  1  0  0  0  0
 16 37  1  0  0  0  0
 17 38  1  0  0  0  0
 18 39  1  0  0  0  0
 18 40  1  0  0  0  0
 18 41  1  0  0  0  0
 21 42  1  0  0  0  0
M  END
> <POSIT::Probability>
0.93

> <POSIT::Method>
SHAPEFIT

> <ReceptorTitle>
UCSF-P4723-REFINED_LIGAND-BOUND-STATE_A__DU__LA1_A-201(A)

> <OMEGA_C>
6oAzwnIyy8Em9lm/wVc4wk3S0MHiaIC/sCwvwunwz8E4MS6+XtY4wgky28GsCfS+/6kvwq9R2sGY
obk+j4Q/wjnB5sEOD5VAj61Cwq5I5cEYibhAEywxwuNT7MFS4tRAgwg6wifb6MGSIqRAh340wokK
4MFAWkk+tkA6woRt6MHo79BARgk1wlEr68HOYJBApjU8wlXq9MEf1wFAAUQwwoPQ8cG2/4I/tC4v
wpMM8MEFyiBAkEs1woBR68GEzTc/PGk4wjJG68H+WgNAlp4/wsSs/cGotwQ+y9k1wuMj6sEcyehA
7bUwwh7X7MF4ualAnns/wj075sFwtdxA6EY0whgc7MH/yEdANrU7wnQw/MFtAjZAzANAwkvd9MGU
jIc/LhszwjY7w8FS/KC/26k7wkYtzcGx4MK/2XcrwsyYy8GX4Wa98448wsZ+38HbOxa/Wlwswijl
3cHdYmU/CtFAwh9u5sERP2hA7OtGwsWq48HBVrhAdqgtwlG57cGdMehA4eAswlvw7sE5Ntc+t/Iw
wnBZ+sF0GFE/vvctwmOd98E/Cj9A//8rwqIQ6sFqPylAP643wkrI78FPvZq84bM6wsnN48GksglA
ptNCwgwM/cFfjR6/FLY7wjFq/cFh1b++owRAwjCjAsIG0yw/9sRAwoZx5cEZ2PpA

> <OMEGA_E>
WPqQPg==

> <OMEGA_NBR>
     35223

$$$$
CACHE3HI_1717_8
  -OEChem-03092622523D

 29 31  0     1  0  0  0  0  0999 V2000
  -47.9815  -29.0240    4.6944 C   0  0  0  0  0  0  0  0  0  0  0  0
  -48.7129  -28.7618    5.8308 C   0  0  0  0  0  0  0  0  0  0  0  0
  -44.2707  -29.4656    6.5027 C   0  0  0  0  0  0  0  0  0  0  0  0
  -46.5848  -29.1900    5.1049 C   0  0  0  0  0  0  0  0  0  0  0  0
  -46.5551  -29.0314    6.4974 C   0  0  0  0  0  0  0  0  0  0  0  0
  -45.3845  -29.5143    4.4279 C   0  0  0  0  0  0  0  0  0  0  0  0
  -44.3034  -29.6737    1.1800 C   0  0  0  0  0  0  0  0  0  0  0  0
  -44.3231  -30.6096    2.4416 C   0  0  0  0  0  0  0  0  0  0  0  0
  -45.3334  -28.8063    2.0164 C   0  0  1  0  0  0  0  0  0  0  0  0
  -46.4244  -27.5961    0.0993 C   0  0  0  0  0  0  0  0  0  0  0  0
  -46.6630  -28.5392    1.2933 C   0  0  0  0  0  0  0  0  0  0  0  0
  -45.4045  -29.1723    7.1827 N   0  0  0  0  0  0  0  0  0  0  0  0
  -44.2453  -29.6404    5.1562 N   0  0  0  0  0  0  0  0  0  0  0  0
  -47.8479  -28.7668    6.9215 N   0  0  0  0  0  0  0  0  0  0  0  0
  -45.3587  -29.8106    3.0510 N   0  0  2  0  0  0  0  0  0  0  0  0
  -48.3658  -29.0943    3.6875 H   0  0  0  0  0  0  0  0  0  0  0  0
  -49.7772  -28.5826    5.8696 H   0  0  0  0  0  0  0  0  0  0  0  0
  -43.3476  -29.5645    7.0546 H   0  0  0  0  0  0  0  0  0  0  0  0
  -43.3398  -29.1877    0.9676 H   0  0  0  0  0  0  0  0  0  0  0  0
  -44.7015  -30.1183    0.2560 H   0  0  0  0  0  0  0  0  0  0  0  0
  -44.6290  -31.6435    2.2239 H   0  0  0  0  0  0  0  0  0  0  0  0
  -43.3781  -30.6176    3.0045 H   0  0  0  0  0  0  0  0  0  0  0  0
  -44.8660  -27.8676    2.3487 H   0  0  0  0  0  0  0  0  0  0  0  0
  -47.3778  -27.4071   -0.4157 H   0  0  0  0  0  0  0  0  0  0  0  0
  -46.0085  -26.6443    0.4613 H   0  0  0  0  0  0  0  0  0  0  0  0
  -45.7159  -28.0630   -0.6008 H   0  0  0  0  0  0  0  0  0  0  0  0
  -47.0794  -29.4904    0.9304 H   0  0  0  0  0  0  0  0  0  0  0  0
  -47.3719  -28.0716    1.9925 H   0  0  0  0  0  0  0  0  0  0  0  0
  -48.1189  -28.6038    7.8701 H   0  0  0  0  0  0  0  0  0  0  0  0
  1  2  2  0  0  0  0
  1  4  1  0  0  0  0
  2 14  1  0  0  0  0
  3 12  2  0  0  0  0
  3 13  1  0  0  0  0
  4  5  2  0  0  0  0
  4  6  1  0  0  0  0
  5 12  1  0  0  0  0
  5 14  1  0  0  0  0
  6 13  2  0  0  0  0
  6 15  1  0  0  0  0
  7  8  1  0  0  0  0
  7  9  1  0  0  0  0
  8 15  1  0  0  0  0
  9 11  1  0  0  0  0
  9 15  1  0  0  0  0
 10 11  1  0  0  0  0
  1 16  1  0  0  0  0
  2 17  1  0  0  0  0
  3 18  1  0  0  0  0
  7 19  1  0  0  0  0
  7 20  1  0  0  0  0
  8 21  1  0  0  0  0
  8 22  1  0  0  0  0
  9 23  1  0  0  0  0
 10 24  1  0  0  0  0
 10 25  1  0  0  0  0
 10 26  1  0  0  0  0
 11 27  1  0  0  0  0
 11 28  1  0  0  0  0
 14 29  1  0  0  0  0
M  END
> <POSIT::Probability>
0.79

> <POSIT::Method>
SHAPEFIT

> <ReceptorTitle>
UCSF-P4723-REFINED_LIGAND-BOUND-STATE_A__DU__LA1_A-201(A)

> <OMEGA_C>
Fe0/wh8x6MG2OJZABdpCwh8Y5sG8lbpALxUxwnu568FKFtBA1lY6wh6F6cESW6NAdTg6wmBA6MF2
6s9AwIk1wmId7MGosY1AuTYxwsVj7cH4Cpc/5koxwm/g9MH5QxxAXFU1wkhz5sHtDAFAkLI5wrjE
3MGgSMs98qY6wjBQ5MH6i6U/NJ41wvZg6cEG2eVAMvswwpof7cHq/6RAOmQ/wngi5sGefN1AVm81
wgN87sENRENAknZBwg/B6MHDAGxA4htHwhKp5MFs07tA82MtwiuE7MH9vuFA8FstwmGA6cEksnc/
UM4ywlDy8MHDDIM+HoQywvUl/cEaVQ5ALIMtwtLw9MEZSkBA0XYzwsDw3sFLUBZA64I9wtBB28ES
2dS+sgg4wm0n1cHYNew+Id02wh+B4MEyzBm/T1E8wmPs68GJLm4/4Hw9wrCS4MHUCv8/zXlAwoDU
5MHt1/tA

> <OMEGA_E>
PKcXPw==

> <OMEGA_NBR>
     36326

$$$$
