50172240
     RDKit          3D

 69 71  0  0  1  0  0  0  0  0999 V2000
    8.0506    8.0802  -18.3056 C   0  0  0  0  0  0  0  0  0  0  0  0
    7.0499    7.4590  -17.5372 C   0  0  0  0  0  0  0  0  0  0  0  0
    7.7220    8.6950  -19.5281 C   0  0  0  0  0  0  0  0  0  0  0  0
    6.1068    0.2285  -21.8582 C   0  0  0  0  0  0  0  0  0  0  0  0
    6.8044   -0.9496  -22.1718 C   0  0  0  0  0  0  0  0  0  0  0  0
    4.6140   -1.0482  -20.4040 C   0  0  0  0  0  0  0  0  0  0  0  0
    5.3846    8.0575  -19.2222 C   0  0  0  0  0  0  0  0  0  0  0  0
    5.0101    0.1778  -20.9760 C   0  0  0  0  0  0  0  0  0  0  0  0
    5.7141    7.4512  -17.9893 C   0  0  0  0  0  0  0  0  0  0  0  0
    6.3884    8.6933  -19.9930 C   0  0  0  0  0  0  0  0  0  0  0  0
    5.3134   -2.2337  -20.7041 C   0  0  0  0  0  0  0  0  0  0  0  0
    6.4185   -2.1770  -21.5947 C   0  0  0  0  0  0  0  0  0  0  0  0
    5.7726    1.4708  -18.4746 C   0  0  0  0  0  0  0  0  0  0  0  0
    5.5979    3.8425  -16.9157 C   0  0  0  0  0  0  0  0  0  0  0  0
    5.1932    2.3225  -19.6383 C   0  0  2  0  0  0  0  0  0  0  0  0
    5.0607    4.5046  -18.2049 C   0  0  1  0  0  0  0  0  0  0  0  0
    4.3095    3.4898  -19.1072 C   0  0  1  0  0  0  0  0  0  0  0  0
    3.1566   -3.3853  -17.3890 C   0  0  0  0  0  0  0  0  0  0  0  0
    4.9269   10.3643  -21.2183 C   0  0  0  0  0  0  0  0  0  0  0  0
    5.7027    8.2460  -22.3705 C   0  0  0  0  0  0  0  0  0  0  0  0
    4.3097    1.4487  -20.5728 C   0  0  0  0  0  0  0  0  0  0  0  0
    4.8717   -3.5500  -20.0628 C   0  0  0  0  0  0  0  0  0  0  0  0
    4.6437    6.7672  -17.1625 C   0  0  0  0  0  0  0  0  0  0  0  0
    4.6290   -2.9333  -17.5303 C   0  0  0  0  0  0  0  0  0  0  0  0
    5.4093   -3.7283  -18.6153 C   0  0  0  0  0  0  0  0  0  0  0  0
    6.0684    9.3331  -21.3415 C   0  0  0  0  0  0  0  0  0  0  0  0
    4.0875    5.5854  -17.8681 N   0  0  0  0  0  0  0  0  0  0  0  0
    7.8169    3.1082  -18.1358 O   0  0  0  0  0  0  0  0  0  0  0  0
    6.9880    1.7355  -16.1510 O   0  0  0  0  0  0  0  0  0  0  0  0
    7.1201   -3.2968  -21.9131 O   0  0  0  0  0  0  0  0  0  0  0  0
    3.7827    4.2056  -20.2278 O   0  0  0  0  0  0  0  0  0  0  0  0
    6.7140    2.5161  -17.3643 S   0  0  0  0  0  0  0  0  0  0  0  0
    9.0728    8.0854  -17.9570 H   0  0  0  0  0  0  0  0  0  0  0  0
    7.3047    6.9873  -16.5996 H   0  0  0  0  0  0  0  0  0  0  0  0
    8.4942    9.1709  -20.1142 H   0  0  0  0  0  0  0  0  0  0  0  0
    6.4103    1.1698  -22.2920 H   0  0  0  0  0  0  0  0  0  0  0  0
    7.6387   -0.9153  -22.8567 H   0  0  0  0  0  0  0  0  0  0  0  0
    3.7694   -1.0789  -19.7317 H   0  0  0  0  0  0  0  0  0  0  0  0
    4.3650    8.0360  -19.5778 H   0  0  0  0  0  0  0  0  0  0  0  0
    4.9469    1.0005  -17.9205 H   0  0  0  0  0  0  0  0  0  0  0  0
    6.4297    0.6903  -18.8858 H   0  0  0  0  0  0  0  0  0  0  0  0
    6.1359    4.5897  -16.3138 H   0  0  0  0  0  0  0  0  0  0  0  0
    4.7585    3.4368  -16.3320 H   0  0  0  0  0  0  0  0  0  0  0  0
    6.0252    2.7423  -20.2228 H   0  0  0  0  0  0  0  0  0  0  0  0
    5.9048    4.9277  -18.7693 H   0  0  0  0  0  0  0  0  0  0  0  0
    3.4852    3.0555  -18.5223 H   0  0  0  0  0  0  0  0  0  0  0  0
    2.6621   -2.7872  -16.6094 H   0  0  0  0  0  0  0  0  0  0  0  0
    2.6355   -3.2416  -18.3470 H   0  0  0  0  0  0  0  0  0  0  0  0
    3.1249   -4.4490  -17.1103 H   0  0  0  0  0  0  0  0  0  0  0  0
    4.7221   10.8050  -22.2051 H   0  0  0  0  0  0  0  0  0  0  0  0
    4.0207    9.8650  -20.8447 H   0  0  0  0  0  0  0  0  0  0  0  0
    5.2239   11.1579  -20.5169 H   0  0  0  0  0  0  0  0  0  0  0  0
    5.4742    8.7177  -23.3375 H   0  0  0  0  0  0  0  0  0  0  0  0
    6.5504    7.5553  -22.4908 H   0  0  0  0  0  0  0  0  0  0  0  0
    4.8227    7.6884  -22.0175 H   0  0  0  0  0  0  0  0  0  0  0  0
    4.0696    2.0257  -21.4780 H   0  0  0  0  0  0  0  0  0  0  0  0
    3.3797    1.1908  -20.0450 H   0  0  0  0  0  0  0  0  0  0  0  0
    3.7724   -3.5750  -20.0344 H   0  0  0  0  0  0  0  0  0  0  0  0
    5.2416   -4.3823  -20.6795 H   0  0  0  0  0  0  0  0  0  0  0  0
    5.0826    6.4405  -16.2082 H   0  0  0  0  0  0  0  0  0  0  0  0
    3.8311    7.4823  -16.9665 H   0  0  0  0  0  0  0  0  0  0  0  0
    4.6436   -1.8668  -17.7995 H   0  0  0  0  0  0  0  0  0  0  0  0
    5.1330   -3.0742  -16.5628 H   0  0  0  0  0  0  0  0  0  0  0  0
    5.3583   -4.7971  -18.3601 H   0  0  0  0  0  0  0  0  0  0  0  0
    6.4578   -3.3963  -18.5958 H   0  0  0  0  0  0  0  0  0  0  0  0
    6.9671    9.8569  -21.6993 H   0  0  0  0  0  0  0  0  0  0  0  0
    3.6774    5.9046  -18.7225 H   0  0  0  0  0  0  0  0  0  0  0  0
    6.7515   -4.0429  -21.4548 H   0  0  0  0  0  0  0  0  0  0  0  0
    3.2404    4.9222  -19.9199 H   0  0  0  0  0  0  0  0  0  0  0  0
  1  2  2  0
  1  3  1  0
  2  9  1  0
  3 10  2  0
  4  5  2  0
  4  8  1  0
  5 12  1  0
  6  8  2  0
  6 11  1  0
  7  9  2  0
  7 10  1  0
  8 21  1  0
  9 23  1  0
 10 26  1  0
 11 12  2  0
 11 22  1  0
 12 30  1  0
 13 15  1  0
 13 32  1  0
 14 16  1  0
 14 32  1  0
 15 17  1  0
 15 21  1  0
 16 17  1  0
 16 27  1  0
 17 31  1  0
 18 24  1  0
 19 26  1  0
 20 26  1  0
 22 25  1  0
 23 27  1  0
 24 25  1  0
 28 32  2  0
 29 32  2  0
  1 33  1  0
  2 34  1  0
  3 35  1  0
  4 36  1  0
  5 37  1  0
  6 38  1  0
  7 39  1  0
 13 40  1  0
 13 41  1  0
 14 42  1  0
 14 43  1  0
 15 44  1  6
 16 45  1  6
 17 46  1  1
 18 47  1  0
 18 48  1  0
 18 49  1  0
 19 50  1  0
 19 51  1  0
 19 52  1  0
 20 53  1  0
 20 54  1  0
 20 55  1  0
 21 56  1  0
 21 57  1  0
 22 58  1  0
 22 59  1  0
 23 60  1  0
 23 61  1  0
 24 62  1  0
 24 63  1  0
 25 64  1  0
 25 65  1  0
 26 66  1  0
 27 67  1  0
 30 68  1  0
 31 69  1  0
M  END
>  <OMEGA_C>  (1) 
dc8AQW9IAUHWcZLBlpjhQAqw7kAoTIzBuRr3QKMeC0F2OZzBumrDQGv9aT6m3a7BkL3ZQGsWc7/K
X7HB4aWTQJcrhr9hO6PBZU6sQF7rAEEqx5nBV1KgQC8SNj7uzqfBCNq2QD9w7kAN6o/BE27MQOsX
C0Gz8Z/BngeqQD30DsAGoqXBFWTNQBNUC8DjwazBALm4QCFEvD/wy5PB+SGzQF3rdUBeU4fByi6m
QKWjFEA+G53BdfGhQO0lkEC6o5HBCOeJQIpYX0B/25jB0gVKQEepWMCbHIvBzaidQA3UJUEFv6nB
6Hy2QHLvA0G09rLB2uiJQDNuuT8XlaTBIOWbQDgzY8COgKDBFpmUQLaM2EC2TInBDCGUQLm6O8Al
PozB0RitQOqcbsA37JTBCjDCQHpUFUFju6rBzcyCQIa7skD48Y7ByCP6QEntRkARFpHBqp3fQPkj
3j9MNYHBmNfjQFj+UsDwTa/BOBhyQF2UhkCI0qHBHdnWQCcHIUAA6orBUioRQdddAUHtp4/Bxr/p
QO2X30AQzITBYugHQQ+8EkHg6aDB6yDNQP28lT8eVrLBDHD0QPBNar+d2rbBDz1xQBIYir9x2p3B
+q2LQFSTAEFCn5zBpkyeQFgRgD8zXY/B5b/NQAe6MD8GFpfB/1jEQI7ekkCegoLBPkWYQLv0W0Db
p4LBNM7AQGCBL0BFyKHBRPS8QM6vnUCNJ5bBPw5fQOyNQ0CbLZTBK2AqQERiMsD734TBY6soQF12
T8CTxpLBHP5HQPVdjsDY4YjBVhuXQHXhLEEApLHBaamAQBrXHUHawabBUCqnQJeGMkGJIqTBoSyv
QKZ7C0FGs7rBopzRQLfE8UAc7bPBO1OaQEMH9kDnI7DBRjqCQB+lAUD30qvBg0xYQJprmD8iXKDB
gm5xQPTMZMBxRqDBVbunQCg8jMCpb6XB/aSiQGUYzkBpqoHBjTF1QPhu70B1u4fBZpiUQH3z7r9Z
ZY7Bw0GkQEq/RMCfgITBEnerQKiBmcBi4ZLBPabOQA9dWcA8xJTBPfLeQNa1HUEVmK3B7VlrQDDy
vECux5XBcgzYQHxfgcCEo6vBSGJPQM+CnUDgW5/Bru77QE3PA0ExKZTBKWTgQKtT8kA//YzBwPjr
QN+nC0Ed953BlSvFQOY4iT6Zma7BQM/bQCbtaL8o7LDBuAmSQM/1gr+OAqTBSvOkQGTi/ECOX5nB
jl+gQFmGWT6kG6jBW7O0QBJs7UDflI/B/GHAQOaTCEF9r6DB8CioQGq1DcBScabB0LbNQPVkCcD8
0KzBuQm4QDrJuj8CE5TBDTKzQF9AcUCmJYfBX/qlQFjrFUChQZ3B/+qhQOdDj0BHOJHBl+CJQH1z
YEAA2JjBty+fQJAzEcAtLofBBYnIQAc/B0Fxv7TBt6mrQHmUKEGws6vBBvGJQDp5vj8p7KTBLYqW
QAqUY8DciKLB0VWWQDRG1kBGL4jBfSqFQGY+TMD+iI7BebKiQM25eMCN1ZbBIv6tQOQCEEFBVavB
exyDQIUJsUD61Y3BQM35QAinRECLHZHB8iTfQLaH0z+0foHBcHrkQP0QUcACMK/BaYR0QP+4iECE
sKHBQ4XWQIKrHUAgC4vBJqIOQW72BUGEJpLBoqrsQILR5UDlioXBrH8AQc0DFEG/ZqPB+fHPQBFh
mz97yLHBJxz4QAo0Xr/I3rXB6+prQHBTh7/0+p7BI3aDQMQl+UDWSpvBd1qdQImvfT8Tuo/BdbLM
QKRNLT/RepfB+IjEQF7Uj0C1JYLBn1iYQFk2VkCakYLBz9nAQGovMUASzqHBc8e8QLnmnUDhkpXB
+bldQLNYREDgbZTBB6qJQCDX5L9hYIHBJmC3QFIQN8Dy4YLB4yyvQDuiv79bA4zBDaa6QOHSDEGF
VrzBvrHpQBMADUErFbTBPTrIQJZN60CVi7TBdlOeQP+uLUGIb7PBHQOXQAJbLkHOL6XBDf3LQBFH
L0GWvqrBVgGDQEbGBECTKazBio5XQNEQnj8Z3aDB995mQBrvYcBWJqPBrSqjQPI6i8Cdu6fBKfCn
QDD1ykDSG4HBZZR5QFlJ7EAfqYXBklVqQNNYfcDrqInBC+9ZQJ8ZJsBUypLBwXygQMkxn8DYsJXB
29HDQM+7Y8DWbJXBCkGNQBC2CUFaD6zBXI9oQHTyu0AHYZTBT2HXQG6jgMDJ6avB1hxSQDKUn0Ae
Hp/BnMX7QCGNA0F4PpTBLYXgQAea8UB4CY3BPRvrQP8nDEFV0J3BmWDFQGh9cD50FK/Blk3bQIJp
dr8JOLHBk8SSQOLqfb9F4KPBPwOkQE0A/0CF6pjB0vSgQHapXz5+cajBGnq0QKzc7UAjYo/BcAK/
QJj2CUHdNKDB1/WoQM93DMAQyKXBI27NQH4rC8Ahl6zBrnC4QO3kuj+QXpTB41+zQITecEAZU4fB
AsOmQB+LFkDrjJ3BzEyiQHVWj0AeYpHB1HeKQK68YED8F5nBi8cwQAPLZsBPN4zBRNrAQFzjBkEI
PbTBcPewQJ6aKkE5dKvBix+LQLN/wT8lbqXBnzWZQOEiX8DGd6DBa2qWQFDe1UCpFojBLR6EQJSP
OMBRrIzBcbykQNxZZMA2XJTBbeqrQJ0uEkGJnqrBb2qDQEH+sECY9I3BNin6QFGGREDdM5HB9gLf
QKk00j/Pr4HBtHHjQLv9U8BG3a7B16R1QKr4iEDU6aHBzK/WQC9YHUAeOYvBS7QOQUIzBUGJcJLB
L0btQFQO5EB+wYXBMv3/QBFsFEHMUaPBE2nQQMIBlT/vgrLBkOH2QBWMdL8BbbbBqjdtQM43f7/8
3Z7BaUmCQJsO/EBAp5rB5JOdQJaBfT8TGpDBWCzNQK3WLT/dw5fBy6nEQOyAj0BsRoLBDWuYQHO8
VUBny4LByNvBQHFUMkD+9qHByzu9QLwenkCMrZXBc+9eQGktREBAuJTB6gQGQBm3RMBKrIbBbQcU
QJW3Z8B5P5TBRxY6QLlslMBuZ4nBuMKyQEP6DEGetLvBLXnjQFIRCkHPN7TBnkm7QHoY60BdqbPB
YPqiQD02MEHfBrPBBGSgQOZKMkGetaTBRybTQCzHLkFfOKvB+H+FQEN1BkAruqzBvppYQJ7ooz9V
mqHBLmlsQFV/YsBmS6HBXuKnQK34isC/mKTBkTKoQO8KykDOF4HBznl5QLRy60BNa4XB77F9QH4E
7b/9ao/BZOCRQB2kN8DykoTB5PGmQGErlMDnJJLB7Q/EQPmVRcBLNpPBrIiJQDppDkEZrKrB2uBp
QIZbvED6f5TBrK3WQMN2gcDfPKvBvAdTQCC2n0AyUp/BPvz3QOj0BEHioJPBVibdQAUL80DgmIzB
bkfnQENvDUG3N53B7YvNQJxlez5cka/BPnngQA5bgr+OBrHBTXuTQJPYS7+uh6XB3u+gQO9z/kAA
tJjBtemmQD6psz6S0anBx3SxQE+p7UCHIY/BOJO7QI9lCkFv0Z/Bu2umQJ32A8DHw6bB1jTNQD35
CsBlnqzBYVC8QPZ1vz+3c5XBisuzQLHmbUBYjIfB9y6sQLfYHEDqbZ7BXU+jQF0Sj0D2fZHB7piN
QJ8CYkATvJnBXybUQICpV8B91pDB5C+/QIMBCEEB3LPBorirQG8RK0H53qrB5YyTQBji2D/lYqfB
Q8qOQPr+UcBVVKLBJxCUQKou1EAC+4fBUmKmQAhnecBrJ4/BMP6EQNzxSsCBJJbB6pioQImJEkG+
QarBvNKCQKr5rkCV/43BUJn8QN0hR0Cz7JDBb5rfQNg6yj8XSILBBXLgQK4dWMCqEa7Boh57QGjA
ikB4T6LBJ3HYQNnEHECskovByqsMQYs6B0G8rJHBOvbpQG2w5UDeTIXB1dX7QN1AFkF8laLBQYnc
QFt9kD+Y1bLBntT9QOS1jb90h7XBBkhrQEd+NL+4O6HBsf9+QEMl+kBwmprB7tSgQEXffT/PtpHB
U+7RQBlUPj/y6pjBdg/EQJORjUBgK4LBaaOYQItjUEAqVoPBDfjHQB4mPUDQBKLB8Uq+QJiDn0C7
XpXBrt9lQNwLQUDfupXBkmLqQLope8AJqIvBuXDdQGN7YMAAQZnBWljVQCozE8Atz47B7iaxQAEJ
DkFuWLvBBoDhQLPoC0GwpbPBgQ27QFkY7UB3cbPBIdudQLKkMEHJdrLBtAiaQDswMkGdJaTBboPN
QFvrL0FPcKrBVhiUQMiCE0CftK7BunlkQFUlxj++y6TBEK9gQFHzWMCVqKbBfq2iQJSJhcAgraPB
ggGmQCi5yED3+IDB6uZyQLOc6EBNUYXBFselQH78nsA8JJHBt66dQMKwcMBqsobBF4+EQCbdBsC3
55PBr7hKQGdCZ8DpmZTBkJCGQPcRDkHGgarBjfZnQNoSukAthZTBu/vPQLq+gcBJsKrBULJVQEb4
n0BNh5/BvDcAQYBPAkGJPpPB5nzhQDCU8EBSyozBCK70QBQvC0H3KZ3BXvTHQN0GmT7RbK/B5X/c
QF6La7/smLHBMBSVQNydXb/u6KPBeMeqQLnW/0AAOJrB5e2jQI1coj78q6jBI4i2QKZ67kAvNZDB
g97JQMgGCkFquqDBDZOpQNWxBcBW4aXBvGPNQCpwB8Co9azBYfm4QMmqvT88CpTB4quyQLDAc0An
AYfBwiipQGR3GUCTTp3B2vaiQAU6kEDXTZHBSuiLQKP7YUA4+pjBjy4BQW6HicBlApPBo52ZQHOL
I0Fiw6rByeWxQGvdAEFhXrPBvt2OQJdKzj9Qv6XBIEeXQMYGVcBGUaDBrmKVQAGv2EC+OYnBflXZ
QHsfXsByB5TB1xO5QHyxh8DAHJvBW0S+QDccE0Fdq6vB5n2DQJxeskAglo7BcPz6QKdIQ0BBFpDB
L0TcQKGf0j934oDBwGPiQHEfUcDEUq/BHM13QBdBiUBr06HBrwvWQHfjHUCYf4rBJ6IQQSEyA0Eh
lZDByqLqQBTH4kDbNIXBtEMGQZ3rEkGyE6LBG7jTQNWmmz+z6bLB3ff3QD0gcb901rbByjJzQJN5
Vb8qrZ7BlAOKQKqw/UDz6ZzBdUmdQIPbgT+RGJDBRAPOQLfwMj8eSpfBjcbDQK0ZkUDJ9YHBCA+X
QD8jWkCylYLBUhzFQEFjNkDDP6HBQpS+QJpbnkCRdpXB3ERiQPhTREBJoZTB28MMQZOJcMBQ+43B
kt36QP+WqMBaUY/BXBYIQaPBjsBd/5rBZeeRQKrUKUHlwLLBEFZ6QFu9G0FRWqfBTKKjQN3IMEG8
iKXB35ipQGyZB0HOOrvBOhHNQIig60D7PrTBeTOWQCpP8ECzH7DBMKuLQCueDkBw/azBDN1dQJ0x
sz+zdKLBHxGBQMmJP8CICprBmq+FQAPQesDCTKbBDnykQK3qzkAbqYHBNZd2QP5Y70DqjYfBkW7L
QKCpU8AJDYzBt73gQOf+H8AMu5fBRoioQDF8n8D1HZbBE+TKQA8mmMCffaHB7ITaQDRPG0GW8q7B
JRhrQM7pu0BOYZXBIBzVQJ2Yf8ALuKvBxOZTQBWKn0CSQp/Bw48AQV+uAUFqY5LBJCThQM5N70BZ
Q4zBfKb2QHxhC0HQNJzBJQjGQMoJcj5UYK7ButrbQFgIc78t8bDBjk+SQGJyhr/596PBYgSsQJXL
AEEp25nBUV6hQNKaPT6V1qfB7H62QAyK7kBX8o/BbBDMQIYcC0H4/J/B2+KnQCDOD8BhiKbBLC/N
QEUFDMBV/qzBkjy5QP4EvT/vupPB/ceyQBzrdUDIN4fBtuOmQHgTFUDUDp3BBOqhQOUukEApj5HB
pUKKQFJhX0Ac2JjBfIS8QK1gMcAH2YXBGpWcQMNpJUFQ3qnB3w+3QA/MA0GdDbPBlPiKQBJ2uj+G
naTBxX6WQOPvZMBWSqLBhz+UQLil2EA5U4nBjHnAQDWhXMCSzpDBS7uTQBcpZcDB95XB6M7BQMVI
FUEYyqrB8ZuCQEipskCA7I7BGjb6QMVYSEA/4ZDBja/fQJpR3z8zE4HBXJvjQLL1U8Cyba/BsSVz
QFCdhkDK06HBJu/WQC2vIUCjxorBFOIQQZDwAUHFjY/B7EDpQGJ34EBhuoTBQKkHQTwTE0E54KDB
EFbRQBWNlz9vaLHBU/j3QLZ1ab8h9bXB9RdsQPaCir/KAJ/BEX6LQKU1AEE7w5zBU76eQGM0gD9k
W4/BA3vOQCE0Mz9g/ZbBoJ/DQMXlkkBeVILBa9CXQHpoW0BwooLB6JrBQB1UMEBPqqHBaA+9QO/R
nUAmAZbBWJ9fQEE1Q0AoOpTBKW3cQIxyK8AENYLBRmeuQJq84r9I1YbBtt6nQFxDWMCqooDBHweW
QKNuLEErxbHB65x/QJIfHUGt86bBy2ClQOItMkFMOaTB+7mvQONJC0FYzbrBIKPSQCwF8kA59rPB
lSabQCY09UBSS7DBAZGDQAlYAkBF3KvB/RpaQN1bmT9Wd6DBh6VsQMaKb8Aim6XBCN6rQBt4jMAA
3qTBL0SiQJVlzkCtq4HBIFF0QAB670DozIfBVCXVQNy2NcCNApbBxJzOQPZNjsDvz4/BjGp/QCog
L8AqXpPBphWFQLzKkMAsU5PBnlPeQIP0HUGnla3Bl/JqQACtvECVxpXBgR7WQIAXgsD9QazB6AVQ
QJ1rnUDxYZ/BXPz3QCC1BkEKCpLBtTndQPtc9ECZcovBpHjnQFghEEEPcJvBiCDFQHAonb1kwbDB
xonVQMHZsb8FS7HBAsySQGCkS7/S/qLBuHOhQGfbAEFsi5fBx2qjQGjFYD74n6nBJcOxQKPD7kB3
OI7BSBK8QNveDEFjTJ7B43WkQEVSBsBMGqPBLZLFQM4lGcBha6rBM9i9QGP6wz8UTpbBMGq0QKaq
bkACR4jBlBGsQDwaHUB7RJ/BoSWjQLa9j0DkF5LB+V+NQKJdYkAVYJrBoB3GPyQnaMBVn4nBtqzD
QLZ6D0FTV7LB1+GkQM5uLkEluafBZ1iTQLGZ0j9uGKjBLDqXQHLCSsAk9prBIBiUQFlI00CXm4fB
3Fo7QEg2f8DeM47BLqxfQOu7McCgO5TBdeioQNP5FUEdhqjBCOCCQPuFr0BlSY7Bp/D8QMiKTEAs
+ZHBlBjiQF9J0D+rUIPB/2zXQMCSaMDbh6rBP/x4QDWzikDO36LB87TZQET3H0B3hozBs48MQZsW
CUG55I/BnenpQCqK5UD6UITBjef7QNnRGUEwcqDBHlHSQO/kMj+ayLXBfWfuQNhY0L+P+7bBUW5w
QEVhE7/Zwp3B5g+AQHPD/UAFi5nBeh2jQJVUgD+PcZLBdfPTQKZcTD9A2JnBzFTEQPfvjUCC1ILB
ybOZQBtpT0C0FYTBsxzHQJsuPkDCF6PBtsm9QIV5oEBgCpbBWklmQKa4QEBySJbB7peRP/3Dj8Du
SoXBEfjSP/i7McD+GITBr6xeP/eoVsDFMpDB5zC1QFQ+FkEcnbnBHnjkQHCeFUGHcrHB2H/EQDPc
+0Do+bLBrP+WQG++NEEyK6/BqwSQQG+VMkFE8qDBlsDEQHN6NUGNeqbBH6iWQGt4C0Cjvq/BDrdi
QH0ezT/p1KXBYNKPQCMNg8CmUZ/B20SyQIMMVsDwgZXBt8+lQLHxxUAfxoDBLcZyQBLy5kCtqITB
y85mQK1WiMDRoYfB7v00QC3NmsCYu5PB8HZyQFFwAMDvZ47B2vstQBfxF8CFkZnBW5aIQK5JD0EB
gqnBcJRpQBhYvEAft5TBVDDJQEYKhsDYfaXBr7BTQLzNn0AcA6DBZlT9QH6jA0HryI/BI7/dQAaz
70AXVorBGZ/yQJ8/D0EuD5nB823FQMCcM71917DB4S3WQEx0rL/SzrHBqtaUQK2WVL/V66LBDpqo
QD4pA0HKgJfBpkKkQBD8Vz60d6nByUqzQOo270D8LI7BfCvIQFw3D0EB8ZzBEM2mQCkvCMAle6PB
fQ3HQCmLGMAnIavBGl2+QADDxj8rIJbBDaWzQMKrckBHaojBDRqsQFLFHEC9MZ/BHbGiQK6xkEBz
dZLBiDCNQAAbYkCzeprBVI3ePwjHb8CSRInBLRyXQDeYKkEriaXBEVC0QGSWC0ETV7DBAQKTQHra
zj9sxafBS5OaQIInT8AzkJvB6GORQFQU1UC7eIjBJOxFQJQzg8DrX47B+nFpQBqEN8DINJTBeoy9
QINtG0FeLafBteyBQFslsUD6SI/BnNP8QAL8T0CV55HBEi/iQBLx2T9hGIPBjOrYQELCZ8A1xKvB
mVB3QOhdiUC8HqPBuKTZQDSKI0DQaozBM+oOQa3HA0Hr2IzB/gLmQGX43UCjNoPBSX8FQe05GEEv
Op3Bg/LRQE6cQT+HurXBbaruQEHrxr8prbfB9/N1QLvIIr/HZ53B0jKIQOfMAkGHgJrBLe2jQHX8
gT93N5LBTO3UQCu5Uz+Yk5nBCyDDQOiJkEAhDIPBU9+YQMaxU0DINoTBvNvGQF6GPUCSL6PBcpK9
QLGxoEBlfpbBRZxmQDijQECsOpbBhkmrP8gTlMBIFYXBYxHwP44sO8DYhYPBBlWEP7bLW8CXi4/B
ZFWQQNoeM0GtC63BpLl1QBY5IUGlKqPBUb2eQE4/NkECOZ/BmbKsQDaHFEFZrbfBF6rQQAeIAUHQ
ubHBD/yYQNZjAUExKK7BTpmUQG3MCUDUcK/BA+ZiQHblxD9wMKXBENWRQB1RhMBwJqDB9o62QF4w
XcB0hZbBhhWfQHnqx0AVEIHBg2ZsQJD86UA7fobBkRVzQC8ujcAWGojBYjc9QMN9ncDVH5TBMWN/
QMetCMB6PI7B+zY2QNUHG8ByFJnBZ4HZQMwiJUF5a6nBLYNrQHi8vUAx+5XBQFLLQLJwhsCAzKbB
9qVRQHiJnkDjXaDB

>  <OMEGA_E>  (1) 
3K/GPkBp0j7giNI+3KLtPvCR9D7wv8U+IMMTP7CyED8=

>  <OMEGA_NBR>  (1) 
     24144

$$$$
50172243
     RDKit          3D

 61 63  0  0  1  0  0  0  0  0999 V2000
    7.8545    8.2562  -18.4990 C   0  0  0  0  0  0  0  0  0  0  0  0
    7.0081    7.5660  -17.6071 C   0  0  0  0  0  0  0  0  0  0  0  0
    7.3323    8.7936  -19.6948 C   0  0  0  0  0  0  0  0  0  0  0  0
    6.0782    0.2079  -21.9758 C   0  0  0  0  0  0  0  0  0  0  0  0
    6.7720   -0.9864  -22.2398 C   0  0  0  0  0  0  0  0  0  0  0  0
    4.6278   -0.9845  -20.4109 C   0  0  0  0  0  0  0  0  0  0  0  0
    5.1208    7.9594  -19.1037 C   0  0  0  0  0  0  0  0  0  0  0  0
    4.9946    0.2061  -21.0741 C   0  0  0  0  0  0  0  0  0  0  0  0
    5.6364    7.4259  -17.9115 C   0  0  0  0  0  0  0  0  0  0  0  0
    5.9588    8.6353  -20.0039 C   0  0  0  0  0  0  0  0  0  0  0  0
    5.3430   -2.1749  -20.6452 C   0  0  0  0  0  0  0  0  0  0  0  0
    6.4074   -2.1765  -21.5783 C   0  0  0  0  0  0  0  0  0  0  0  0
    5.7686    1.4553  -18.5798 C   0  0  0  0  0  0  0  0  0  0  0  0
    5.6142    3.7482  -16.9379 C   0  0  0  0  0  0  0  0  0  0  0  0
    5.2065    2.3479  -19.7224 C   0  0  2  0  0  0  0  0  0  0  0  0
    5.0779    4.4716  -18.1894 C   0  0  1  0  0  0  0  0  0  0  0  0
    4.3308    3.5113  -19.1590 C   0  0  1  0  0  0  0  0  0  0  0  0
    6.0449    8.5059  -22.5124 C   0  0  0  0  0  0  0  0  0  0  0  0
    5.4728   10.6931  -21.3652 C   0  0  0  0  0  0  0  0  0  0  0  0
    4.3262    1.5064  -20.6943 C   0  0  0  0  0  0  0  0  0  0  0  0
    4.7020    6.6631  -17.0056 C   0  0  0  0  0  0  0  0  0  0  0  0
    5.0664   -3.3969  -19.7895 C   0  0  0  0  0  0  0  0  0  0  0  0
    5.3591    9.1606  -21.2994 C   0  0  0  0  0  0  0  0  0  0  0  0
    4.1109    5.5167  -17.7496 N   0  0  0  0  0  0  0  0  0  0  0  0
    7.8232    3.0609  -18.1800 O   0  0  0  0  0  0  0  0  0  0  0  0
    6.9761    1.6232  -16.2467 O   0  0  0  0  0  0  0  0  0  0  0  0
    7.1122   -3.3139  -21.8183 O   0  0  0  0  0  0  0  0  0  0  0  0
    3.8462    4.2885  -20.2576 O   0  0  0  0  0  0  0  0  0  0  0  0
    6.1180   -3.5385  -18.8329 O   0  0  0  0  0  0  0  0  0  0  0  0
    6.7153    2.4462  -17.4339 S   0  0  0  0  0  0  0  0  0  0  0  0
    8.9027    8.3737  -18.2668 H   0  0  0  0  0  0  0  0  0  0  0  0
    7.4071    7.1464  -16.6954 H   0  0  0  0  0  0  0  0  0  0  0  0
    7.9804    9.3261  -20.3750 H   0  0  0  0  0  0  0  0  0  0  0  0
    6.3749    1.1250  -22.4629 H   0  0  0  0  0  0  0  0  0  0  0  0
    7.5854   -0.9918  -22.9504 H   0  0  0  0  0  0  0  0  0  0  0  0
    3.7963   -0.9828  -19.7216 H   0  0  0  0  0  0  0  0  0  0  0  0
    4.0705    7.8487  -19.3297 H   0  0  0  0  0  0  0  0  0  0  0  0
    4.9329    0.9800  -18.0452 H   0  0  0  0  0  0  0  0  0  0  0  0
    6.4173    0.6786  -19.0108 H   0  0  0  0  0  0  0  0  0  0  0  0
    6.1561    4.4653  -16.3038 H   0  0  0  0  0  0  0  0  0  0  0  0
    4.7728    3.3214  -16.3722 H   0  0  0  0  0  0  0  0  0  0  0  0
    6.0479    2.7775  -20.2859 H   0  0  0  0  0  0  0  0  0  0  0  0
    5.9174    4.9397  -18.7243 H   0  0  0  0  0  0  0  0  0  0  0  0
    3.4837    3.0675  -18.6153 H   0  0  0  0  0  0  0  0  0  0  0  0
    5.6006    8.8957  -23.4401 H   0  0  0  0  0  0  0  0  0  0  0  0
    7.1200    8.7380  -22.4951 H   0  0  0  0  0  0  0  0  0  0  0  0
    5.9044    7.4157  -22.4686 H   0  0  0  0  0  0  0  0  0  0  0  0
    5.0345   11.0537  -22.3074 H   0  0  0  0  0  0  0  0  0  0  0  0
    4.9328   11.1375  -20.5161 H   0  0  0  0  0  0  0  0  0  0  0  0
    6.5325   10.9844  -21.3187 H   0  0  0  0  0  0  0  0  0  0  0  0
    4.1435    2.0926  -21.6070 H   0  0  0  0  0  0  0  0  0  0  0  0
    3.3673    1.2837  -20.2036 H   0  0  0  0  0  0  0  0  0  0  0  0
    5.2611    6.2863  -16.1365 H   0  0  0  0  0  0  0  0  0  0  0  0
    3.8979    7.3309  -16.6629 H   0  0  0  0  0  0  0  0  0  0  0  0
    4.1063   -3.2727  -19.2674 H   0  0  0  0  0  0  0  0  0  0  0  0
    5.0239   -4.2924  -20.4270 H   0  0  0  0  0  0  0  0  0  0  0  0
    4.2923    8.8935  -21.3222 H   0  0  0  0  0  0  0  0  0  0  0  0
    3.6568    5.8787  -18.5637 H   0  0  0  0  0  0  0  0  0  0  0  0
    6.7504   -4.0257  -21.3036 H   0  0  0  0  0  0  0  0  0  0  0  0
    3.3107    5.0015  -19.9299 H   0  0  0  0  0  0  0  0  0  0  0  0
    5.9538   -4.3018  -18.2917 H   0  0  0  0  0  0  0  0  0  0  0  0
  1  2  2  0
  1  3  1  0
  2  9  1  0
  3 10  2  0
  4  5  2  0
  4  8  1  0
  5 12  1  0
  6  8  2  0
  6 11  1  0
  7  9  2  0
  7 10  1  0
  8 20  1  0
  9 21  1  0
 10 23  1  0
 11 12  2  0
 11 22  1  0
 12 27  1  0
 13 15  1  0
 13 30  1  0
 14 16  1  0
 14 30  1  0
 15 17  1  0
 15 20  1  0
 16 17  1  0
 16 24  1  0
 17 28  1  0
 18 23  1  0
 19 23  1  0
 21 24  1  0
 22 29  1  0
 25 30  2  0
 26 30  2  0
  1 31  1  0
  2 32  1  0
  3 33  1  0
  4 34  1  0
  5 35  1  0
  6 36  1  0
  7 37  1  0
 13 38  1  0
 13 39  1  0
 14 40  1  0
 14 41  1  0
 15 42  1  6
 16 43  1  6
 17 44  1  1
 18 45  1  0
 18 46  1  0
 18 47  1  0
 19 48  1  0
 19 49  1  0
 19 50  1  0
 20 51  1  0
 20 52  1  0
 21 53  1  0
 21 54  1  0
 22 55  1  0
 22 56  1  0
 23 57  1  0
 24 58  1  0
 27 59  1  0
 28 60  1  0
 29 61  1  0
M  END
>  <OMEGA_C>  (2) 
QFj7QHkZBEHn/ZPBbULgQJoc8kBf24zBZ6LqQIWyDEHjjp3BRYDCQLrlVD5bzq/BnLTYQNSDfL8i
67HBMReUQOoJfL91SaPBl92jQKSz/kBV1JjBXNOfQAoVUz7Al6jBI120QFSh7UDBSo/BwK6+QBAq
CkEVCKDB6/mqQAcyC8BlKaXB0wnNQCtLC8BQoKzBQ5i4QLJIuj9no5TBMqezQLXib0DSgIfB4Zum
QIFDFkB4x53BMX6iQHoXj0DKg5HBjJWKQBy5YECURZnBum/BQAMYCEFnGbTB8yCvQAUXK0Hd66rB
HHCKQBXTwD/2jaXBq3aWQOQ31UCIC4jBKyCiQF1nWcDxUJ7B+32rQNmREkEgZarBKoyDQKSIsEAv
/43B2Ff6QJHmQ0CPcJHB9zvfQArFzz80+YHB9ZbjQBkXVMDpi67BVyh2QGw7iUCgD6LB4MbDQNN2
YsDLqZbBZ+PWQDyPHEC1eIvBj3EOQXv6BUGBIpLBFAftQECv5EBIkIXBwl//QNU3FUEKAKPBg//L
QGn+jz8dtLPBMbvyQNvkfb9hmrfBYfdyQJ6Ve7/rxZ3B1EGCQMEo+0A/o5rBtNqdQO7jej+MXJDB
j1rNQGW3LT8xFpjBKv/EQGzjjkAtboLB5LqYQC2SVEBS+oLBH4jBQK/CMUCSSaLBJVu9QLERnkB3
y5XBevVeQEFSREAS7JTB0jezQOxUDkFHhbvB1tbjQODOC0EP9rPB8vC8QM1N7UDEv7PBkxqhQPbb
MEGndbLBddmdQCwzMkHsIKTBHgrRQCXAL0G4jKrB45eEQNPtBUAp26zBHIFXQOFQpD/hoKHB7lqo
QFgpyUCAF4HB1HZ5QImW6kCqTYXBmWaDQCNzUcCKI5rB1cOgQBtbicCBaqPBblqJQOJLDkHdk6rB
UQlqQGEevEB9gpTB/wLYQJPSgMDCbarBpeJTQDUMoECAcJ/BPYW+QEyoicBnVZLBj0AAQbAOAkE6
JpHB637gQFGC7kA2XIvB6Rr2QMDdDEHkrprBfmy9QChFtT316q/BRebTQIrci7/qP7LBvHWXQMR7
iL9niKHBbIyrQKnjAUFCt5jBEoGeQMhuwz1fuafBI++1QAlg7kAyHo/BP47LQIv5DEEpf57Bkduv
QGGhDsDSZ6PBvvHMQM9DEMD2G6zBm2+6QMhuvT8UmJTBTLmzQPCpdEC8AYjBIgamQEp5E0Csz53B
NwSiQBvtj0DvNZLB8xuKQHLrXkAShZnBmNObQJk0KEEHpKfBxZm2QI6yB0F4uLHBbpeIQDLcsT/O
vaTBQoyTQL2W1kCB/IjBscarQJZuWsB/2JvBeTvBQOFLGEG0/6jBy4uCQFTvsUBrRo/BjaL6QHBS
SkBFE5LBEhjiQNDZ3z+yNILB+w7jQLCEWMC+lK7BNvxyQHpxhkD6f6LB9EWXQKjUj8ADJaHBWDbY
QHxCIkAe0IvBRYwQQakOAkFmRo7BEoXoQIQF3kBcCYTBFGUHQTIeFUGhGp/BJtnDQJdXfT/AZrTB
hpPqQM4mjr+fxLjB1KN+QOgjiL+VWZvBQg+LQPqdAUGiqJvBheugQLUXez9kCJDBy/rPQGAROT/G
BZjBqXDEQPA6kkBOFIPBQjCZQAbIWECqZIPB8p6/QBWRLUBL5aLBC7W8QLQXnkBpuZbBpBJfQGNi
Q0Af45TBODiVQKESMEFdVq/Bj0J+QMyHH0Ef96TBMXmkQERZNEEcpqHBmjSvQMj+D0H7QbnBUEDS
QPkk+kC/6rLBysGaQE1X/EAtNq/Bltp/QCun9j+RG6zBTNxWQL9BlD9bLKDBajqhQFx6ykDzdoHB
3VpyQLHE7EBIMIfBYtbLQJyVbsCIOpnBdbWYQLmIR8D91ZTB8qrdQIxSIUE4jqvBd3BsQKOavUCR
DpbB8iXbQPWLgsBFzqnBLMFQQKSUnUBGDaDBKNSUQL5ip8ARYZzBR0L+QDOHAkFjmZXB0oDjQP8n
8UCKAI7BlujsQME8CkEHR5/BZxjCQOANrj6YCq/Be+HZQOsPUL/berHBhaCSQF48fb9NuKPBXQWm
QJXp/EB4rZnBAE6eQNJ2gD61N6jBTDi3QFVn7UAIC5DBJJ7AQBvxB0EuZKHB+faqQNcLCcAC8KXB
rGzOQAlnA8Dy+azBAt60QJOJtz9+uJPB5KayQKJ9cECy3obBWOCjQJN2FUAu7pzBUweiQEYvj0An
+ZDBsceIQE9wYUCvhZjBt4XBQFW1AkGLU7XBgduxQIdDJ0HDdK3BsYyHQOngwD+huaTBPLKZQCJA
10AsP4jBtEufQEIAXcCqmaDBCPesQB75DkGk86vBlKuEQH4xskDglI3BZ3j4QNkDPkDhwJDBxuzb
QD0GzD+eF4HBIhLmQPLSScCnaa/BzA5zQLFqiUCgX6HBcliSQNOXjMD1f6jBSmPUQBoRGkCyr4rB
zQYQQZ4/BEETApTBYNPwQFDU5EBLpobBdLUAQeblEUHpFKXBLzvLQIKSpT+6ZLLBOPz0QHxeP7+b
0LbB3/FtQKchh7/GkJ7B4RSEQN84+kCTKZvBp6OZQDT3fj+WYY/BCavIQDb2ID+uGpfBWebEQFL6
jkDy74HBMmWXQI/BV0AdPYLB0U+/QJ9oL0CLY6HBmla9QHKvnEC4YZXB5ydbQNneRkAlCJTB7P2y
QLD2B0EN5rzBShzkQM/0BUHYgLXBKie8QNHi4kAyRbTBuHmjQJgJLEEOILXBBpOhQPmmL0Go4KbB
iQfUQG18K0GHcK3BKDaAQDyDB0DKz6vB2jFTQErFnT8KqKDBAUqsQLTWy0AzV4HBgByBQDru7UBl
gYXBDES7QPEDdsChRJzBdOCEQGleUsBa8JrBLpuKQCEpC0GIzKvBahFrQEUMvUAyFpTBI5/aQGo/
esAp0avBHt5RQFu4oECWzZ7BzAqLQD/hpsC5JaXB3tIAQViQAUFtIpLBOaDhQFSq7kCaGozBTjb3
QJOfC0Fu3ZvBGyLAQNDMSz7PXq/BpdPWQDnUeL8u6LHBtaWUQCd2h7//mqLBzIysQC0AAUHQnZnB
JMqeQCzUHD7YyqfBQ/y2QDQ17kAOzI/BbZ7MQFaIC0HapZ/B27KrQPa7DsCHAKXBYdDMQHnNC8Bx
u6zBsa24QDyUuz9C8ZPBhCyzQDJHdUBNeofBRIWlQDqzE0BAOp3B1NWhQFflj0BtxJHBt5mJQKj5
XkCM+ZjBDZOcQBXRJUHsZqnBYKe4QGnOBEEX1bLBDJGIQH1Otj9Je6TB7aKUQCQF2EBxRYnB0Suk
QManXsD6YJ7BlmrCQG8OFkHAXqrB6cqCQPx4skANBY/Bluz5QMI+R0D2ZJHBaD7gQKUN3j+/dYHB
lxXkQGbqUsDtDK/BzsRxQLBphkBG9KHBOSbEQJZlY8BFPpbBO/rWQNzsIEBPJIvBmiQRQWqzAUFn
S4/BTrTpQIxI30CXooTBFPUHQRB1E0FEd6DBuDvIQK3okD+bOLPB+fjvQMxdcb9V1LfBcUZ2QPMo
i7/ux5zB7weMQPOIAEFJiJzBP4qeQIW4fT/Gbo/B0rjNQMszMD91RpfBpVXEQJ2JkkCSpYLBI2iY
QFLwWkB5zoLBws+/QLfxLUCoEqLBl8e8QEdunUDGTpbBoT9eQA+nQ0DKSZTBDyCWQBUVLUHcQLHB
A/F/QHIpHUE3pqbBJqikQNpvMkFWnKPB1FixQGGJDEEwhrrBg6nUQAqh9EDQxrPBs/ucQA5+9kCc
PLDB/xCAQOBY/z/UsqvBXJJWQK9HlT8YDqDBTpyiQNUzzUAgqYHBt051QOPd7kDTpofBb0mEQLWv
W8A3q5rBLjCmQKzCi8DGiqPBurveQFwWH0HmAK3BHZhrQBv8vEB015XB0rDZQEbsgMAP+qrB4XtP
QO+GnUAcgZ/B1LW/QBmmisCoC5LBf+D5QCpWBkGxVJLBuWTeQHyl9EALrovBKf7pQPypD0Fx0pvB
xra6QE+VCr/iu6zB20/IQHNN8L+9eKvB8z+FQFZEYr8RvJ7B1kKjQIw7AUE28JfB0ISZQMi+Cb3t
OKbBKu6yQDSg70DjiY7B9GW+QNMHDUGjpp7BbZWTQChxDcCILJ3BL/W1QA5NLMAddaPBRrS6QMmc
vj+cwZTBqbe0QBYjdEAwAojB/K6oQKJcFUCvKJ7BzqaiQAszkEA7EpLBya2LQL7qX0DRypnB/13B
QD8tC0F2s7LBG/mwQLtnLkF/canB4ieOQHYQuj/4RqbBOmmUQDIX1UDn7YfBc3mDQIIaQsAoqJPB
5vmrQEHxFUHm/qjBbOmCQJwVsUAJhI7B5Iz7QCYTSUB24ZHBr0vhQH2z3T9FJ4LBQJDHQPAQesBT
T6HBZAl3QJafh0BdtKLBis8wQHoQLsBqypDBu33YQPp9IUD0y4vBTokNQRtlCEGjKJDBKYXqQJgs
5kB6cYTB1Q//QGLNGEGC7KDBEaLJQEw4uz3dqLLBytPgQKTTEcCvpbDB+udUQMzCA7+TJZrBQe+B
QB3D/kDGB5rB4vyfQGohgz93ZZDBVsbPQG9OND8B9pfB8NnFQIO6kUBSGYPBiziaQAujWEBxWIPB
q7fDQEP9MUBSg6LBlPm8QNHLn0AFbJbB99VhQMDDQkA0Y5XBwcizQGXAEUHEH7rBuQPkQCJCDkFA
gbLB2Je7QHem80AbaLLBZ3CjQDV0NEGg+7DB+/CfQMarNUEbp6LBdh7TQJGXMkERA6nBacCTQDLq
6z8vY67BsRNYQAi8xj/uQqTBxH+lQDXwx0BO+YDB7MBzQA5o6UBOKoXBtjuFQHQxg8DPwJXBWkKY
QO5dNcBLvIzBgpmJQKcvEkEeOqnBO/tqQFG1vUB6DpXBGMq3QNulisCoxpvBxNFTQNRKnkCsM6DB
pOwfQChIUMCt34rBLgz6QMzLBEFPNI/BCrLaQMsM8UCZ8InBmnDvQElbEEFtgJjBguPCQCAiyL4c
Zq/B8QjPQCAa4L/DOK/BaeqPQJqHUb92/6DBsuSlQDhtA0HnR5fBZxyjQBB6nz16R6jB4YywQOOT
70DQ+Y3BJkjFQJ7bD0H2kZzBcaGdQFIPCsDNZaDB1OS8QKhPKMBgoqfBtv3AQLNlxj+W35XBSia0
QEqGc0AddIjBG8CuQJJiGkBnJp/BySGjQHNkkEAplpLB4xSPQJLjX0B/sprBXKeUQORLK0FDQaXB
x1ixQPoKDEEh96/BP7qWQDmhxj9n2qfBT/6OQAEd1EDEiYjBDl6QQDKEQMBI75bBEte6QKf2G0HU
2abBZjmBQNn5r0Cai4/BEvX9QNzvU0ApypHBX2rkQN/Z4j/YzoLBopjLQNQVesAA16bBy/J8QCDI
h0Aqh6PBHvuzQOLDRcDAyY/BXk/bQCYoJkDHQozBciUNQWlYBUGDG4zBxeXiQC5X30Azz4LBktUD
QdenGUFSi5zB2trRQGN0lD4X97TBb0DmQCWjB8D75rTBcvJsQOHK8r7y1pvBL6aFQFPXAkFnYJrB
D6OmQFFegT9h8pHBUBbYQOl1Uz9fH5nBicTCQN5/kUCkFIPBgJCZQGJxU0DdToTByofJQFuHO0C9
FKPBI8O9QFomoUAtiJbBWZppQDdaPkBMnJbBS/yNQL++M0HmyqzBBYpwQDoRIkEr2aLBx3ucQHAB
N0G/+57BX96pQNnrFEF8VLfBrYnNQKDbAUH8UbHBFdyVQDP7AUHkv63BcnSdQEcf/z+BvK/B52do
QPpJzj+nNKbBKnKcQEQHx0DXF4HBMP1lQCoR6EDJpobBtuhpQAPiIsB815LBQXOHQOZ8gMCdrpnB
lfHWQJuIJUF6IKnBCulqQLODvEC+SpbBRjS8QGqzi8AAaKHBJ3RWQMP6nEBi+aDBCHGsQMGxZ8AQ
xYnB

>  <OMEGA_E>  (2) 
qvgHP3zcDz+kRBc/lKIDPwTjTz9gVEo/

>  <OMEGA_NBR>  (2) 
     30368

$$$$
50172250
     RDKit          3D

 63 65  0  0  1  0  0  0  0  0999 V2000
    7.8647    8.2483  -18.4917 C   0  0  0  0  0  0  0  0  0  0  0  0
    7.0106    7.5668  -17.6000 C   0  0  0  0  0  0  0  0  0  0  0  0
    7.3537    8.7702  -19.6998 C   0  0  0  0  0  0  0  0  0  0  0  0
    6.1069    0.2211  -21.9171 C   0  0  0  0  0  0  0  0  0  0  0  0
    6.8026   -0.9684  -22.1948 C   0  0  0  0  0  0  0  0  0  0  0  0
    4.6111   -1.0079  -20.4260 C   0  0  0  0  0  0  0  0  0  0  0  0
    5.1371    7.9471  -19.1162 C   0  0  0  0  0  0  0  0  0  0  0  0
    5.0056    0.2001  -21.0384 C   0  0  0  0  0  0  0  0  0  0  0  0
    5.6404    7.4295  -17.9128 C   0  0  0  0  0  0  0  0  0  0  0  0
    5.9854    8.5965  -20.0249 C   0  0  0  0  0  0  0  0  0  0  0  0
    5.3035   -2.2041  -20.6985 C   0  0  0  0  0  0  0  0  0  0  0  0
    6.4098   -2.1785  -21.5861 C   0  0  0  0  0  0  0  0  0  0  0  0
    5.7577    1.4593  -18.5369 C   0  0  0  0  0  0  0  0  0  0  0  0
    5.6249    3.7795  -16.9312 C   0  0  0  0  0  0  0  0  0  0  0  0
    5.2014    2.3405  -19.6897 C   0  0  2  0  0  0  0  0  0  0  0  0
    5.0761    4.4836  -18.1888 C   0  0  1  0  0  0  0  0  0  0  0  0
    4.3260    3.5096  -19.1418 C   0  0  1  0  0  0  0  0  0  0  0  0
    5.6244   -3.5698  -18.6028 C   0  0  0  0  0  0  0  0  0  0  0  0
    6.1883    8.5683  -22.5382 C   0  0  0  0  0  0  0  0  0  0  0  0
    5.3367   10.6349  -21.3403 C   0  0  0  0  0  0  0  0  0  0  0  0
    4.3235    1.4902  -20.6525 C   0  0  0  0  0  0  0  0  0  0  0  0
    4.9019   -3.4762  -19.9602 C   0  0  0  0  0  0  0  0  0  0  0  0
    4.6942    6.6780  -17.0105 C   0  0  0  0  0  0  0  0  0  0  0  0
    5.3908    9.0986  -21.3325 C   0  0  0  0  0  0  0  0  0  0  0  0
    4.1066    5.5295  -17.7553 N   0  0  0  0  0  0  0  0  0  0  0  0
    7.8248    3.0568  -18.1705 O   0  0  0  0  0  0  0  0  0  0  0  0
    6.9741    1.6567  -16.2110 O   0  0  0  0  0  0  0  0  0  0  0  0
    7.1146   -3.3091  -21.8558 O   0  0  0  0  0  0  0  0  0  0  0  0
    3.8386    4.2691  -20.2519 O   0  0  0  0  0  0  0  0  0  0  0  0
    6.7152    2.4620  -17.4108 S   0  0  0  0  0  0  0  0  0  0  0  0
    8.9102    8.3709  -18.2502 H   0  0  0  0  0  0  0  0  0  0  0  0
    7.4023    7.1523  -16.6828 H   0  0  0  0  0  0  0  0  0  0  0  0
    8.0060    9.3021  -20.3767 H   0  0  0  0  0  0  0  0  0  0  0  0
    6.4157    1.1486  -22.3760 H   0  0  0  0  0  0  0  0  0  0  0  0
    7.6403   -0.9555  -22.8763 H   0  0  0  0  0  0  0  0  0  0  0  0
    3.7734   -1.0158  -19.7444 H   0  0  0  0  0  0  0  0  0  0  0  0
    4.0865    7.8443  -19.3448 H   0  0  0  0  0  0  0  0  0  0  0  0
    4.9196    0.9993  -17.9928 H   0  0  0  0  0  0  0  0  0  0  0  0
    6.3987    0.6706  -18.9577 H   0  0  0  0  0  0  0  0  0  0  0  0
    6.1772    4.5060  -16.3171 H   0  0  0  0  0  0  0  0  0  0  0  0
    4.7880    3.3677  -16.3482 H   0  0  0  0  0  0  0  0  0  0  0  0
    6.0450    2.7626  -20.2555 H   0  0  0  0  0  0  0  0  0  0  0  0
    5.9095    4.9493  -18.7353 H   0  0  0  0  0  0  0  0  0  0  0  0
    3.4807    3.0734  -18.5895 H   0  0  0  0  0  0  0  0  0  0  0  0
    5.3207   -4.4932  -18.0880 H   0  0  0  0  0  0  0  0  0  0  0  0
    6.7121   -3.5823  -18.7666 H   0  0  0  0  0  0  0  0  0  0  0  0
    5.3567   -2.7004  -17.9844 H   0  0  0  0  0  0  0  0  0  0  0  0
    5.7395    8.9445  -23.4694 H   0  0  0  0  0  0  0  0  0  0  0  0
    7.2306    8.9127  -22.4683 H   0  0  0  0  0  0  0  0  0  0  0  0
    6.1647    7.4685  -22.5381 H   0  0  0  0  0  0  0  0  0  0  0  0
    4.9052   10.9823  -22.2906 H   0  0  0  0  0  0  0  0  0  0  0  0
    4.7121   10.9839  -20.5048 H   0  0  0  0  0  0  0  0  0  0  0  0
    6.3543   11.0381  -21.2307 H   0  0  0  0  0  0  0  0  0  0  0  0
    4.1247    2.0744  -21.5631 H   0  0  0  0  0  0  0  0  0  0  0  0
    3.3722    1.2547  -20.1530 H   0  0  0  0  0  0  0  0  0  0  0  0
    3.8150   -3.4675  -19.7907 H   0  0  0  0  0  0  0  0  0  0  0  0
    5.1704   -4.3494  -20.5730 H   0  0  0  0  0  0  0  0  0  0  0  0
    5.2428    6.3044  -16.1333 H   0  0  0  0  0  0  0  0  0  0  0  0
    3.8895    7.3514  -16.6804 H   0  0  0  0  0  0  0  0  0  0  0  0
    4.3610    8.7200  -21.4114 H   0  0  0  0  0  0  0  0  0  0  0  0
    3.6561    5.8898  -18.5721 H   0  0  0  0  0  0  0  0  0  0  0  0
    6.7375   -4.0391  -21.3789 H   0  0  0  0  0  0  0  0  0  0  0  0
    3.3026    4.9864  -19.9345 H   0  0  0  0  0  0  0  0  0  0  0  0
  1  2  2  0
  1  3  1  0
  2  9  1  0
  3 10  2  0
  4  5  2  0
  4  8  1  0
  5 12  1  0
  6  8  2  0
  6 11  1  0
  7  9  2  0
  7 10  1  0
  8 21  1  0
  9 23  1  0
 10 24  1  0
 11 12  2  0
 11 22  1  0
 12 28  1  0
 13 15  1  0
 13 30  1  0
 14 16  1  0
 14 30  1  0
 15 17  1  0
 15 21  1  0
 16 17  1  0
 16 25  1  0
 17 29  1  0
 18 22  1  0
 19 24  1  0
 20 24  1  0
 23 25  1  0
 26 30  2  0
 27 30  2  0
  1 31  1  0
  2 32  1  0
  3 33  1  0
  4 34  1  0
  5 35  1  0
  6 36  1  0
  7 37  1  0
 13 38  1  0
 13 39  1  0
 14 40  1  0
 14 41  1  0
 15 42  1  6
 16 43  1  6
 17 44  1  1
 18 45  1  0
 18 46  1  0
 18 47  1  0
 19 48  1  0
 19 49  1  0
 19 50  1  0
 20 51  1  0
 20 52  1  0
 20 53  1  0
 21 54  1  0
 21 55  1  0
 22 56  1  0
 22 57  1  0
 23 58  1  0
 23 59  1  0
 24 60  1  0
 25 61  1  0
 28 62  1  0
 29 63  1  0
M  END
>  <OMEGA_C>  (3) 
tqv7QPX4A0EK75PBjFbgQHQj8kC5zIzBwVHrQLNSDEFGmZ3BV2vDQOJcYj4pVq/B3q7ZQM3nd78C
j7HBxo2TQJcDgb92aKPBu2KkQJhO/kAB7pjBti2gQBzxTD66TqjBQX60QLW+7UBaTY/B/oe/QGeL
CUH9MqDBS7apQMYQDcCBlqXBaB3NQM5sC8BWsKzB4D64QAPKuj+PS5TB/v6zQO3jcUAwc4fByHGm
QGPKFUCLhJ3BfG+iQJt5j0CwgpHBd26KQMidYEB/IpnBSPuzQIh3ZMCL0pTBOwbGQJsXCUE1TrTB
acaqQJ0oKkHyuKrB31mKQNq9vj9aOKXBO9ycQN96XsBprp/BJjeWQGay1UCaFYjBXIGsQLSTEUEK
qarBnWmDQHjxsEDBCo7BamT6QI6iQ0AaXZHB2ivfQCYP1D8ksIHBvqrjQErIU8CY2K7Bwqt1QLOc
iEDxA6LB0OLWQOSRHUA4SYvBMJAOQTbvBUF+AJLBjt/sQGXf5EB6doXBgRgAQTfVFEFnA6PBQU3N
QIkGkz8QArPBgn30QK+edL+8ArfBKX9xQMQEgr9x9J3B2sSCQLoE+0AbwprBeW2dQI/Pfz9H8Y/B
zsHMQE2sKz9wqZfBZ6vFQFoxkEBniYLBATeZQEeIV0ATyYLBznDBQA3PMEAxC6LBThq9QF5gnkDy
4ZXBdMNeQPCxREA3t5TB6kKqQIDIj8BAtJDBYsnWQC1EZcAVIpbBX2qrQM/SLMAI4I/BV6q3QHsc
D0FOwbvBH2HnQG2aDkEmv7PBXEXFQBP+7kAfTrTBc/ecQK63L0EuU7LBjcmWQCe+L0HcCaTBb1bL
QNubMEF+2KnBNf2DQDHDBEAxgazBgtFXQDSZoD9DOaHBtyl0QNnqXcBqU57B3nOlQBwui8B3laTB
sMSnQNe9yUAHEYHBSO54QNc+60BmcYXBZY2LQAGFC0GWSqvBxv1pQBp5vECdk5TB3pnXQJRAgcAG
CKvBxl1TQHuQn0DveZ/Bz5AAQVf+AUFXKZLB0kzhQGNC70AgIIzBQpD2QH/eC0EK7pvBt8PCQIlF
WT6vJq/BigPZQLdGeL95m7HBXnmUQKP3hL+k+6LBZR2sQNzhAEEkr5nB+1OgQMdmMz674qfBr6+2
QN9V7kCK1I/BhgfMQHdzC0Hpvp/BYYqqQNOVDsAUa6XBASrNQI0EDMApwKzBEiO5QOyBvD9D8pPB
6iCzQJ1hdUCEaIfB83umQN7BFEBuPp3BzAqiQA0IkEAPtpHBySWKQKpXX0AX/ZjBM2y1QEzuZcDP
s5TBo1GcQO7DJUFoi6nB5Qu3QMhNBEFD0rLB8CCKQBy3uT+4s6TBaFeeQE+SYMAtkZ/B+32UQOcc
2EDbRInBlqzBQMu5FUGQg6rBOc+CQENzskAL/Y7B5Ev6QMqNR0AIKZHBlOHfQE3G3T/JVoHB6I/j
QIACVMBwLK/BGNxyQKiyhkDQ86HBFRDXQBYUIUDjBYvBGN0QQcFfAkHxS4/B34DpQL0I4EAnpYTB
Co8HQdfPE0GoiKDBtAnMQGKtkj9v0rLBK0DzQKgMcr9JOrfB8K10QE5Kh7/UVJ3Bb5yLQH0/AEFN
mpzBZ8SeQKkgfz+hiI/BNkzOQAJgMj9DQJfB7yXEQM2PkkCsiYLBFD6YQGfzWkDAyYLB7wrBQLOy
L0CT76HBUBS9QNm5nUDOL5bBDGJfQPpmQ0AnWpTB7TasQBC7kMCKm5DBPT3YQDBtZcAG/5XBRE+s
QH62LsDfvY/BmbKVQGzcLEH8bLHB5Dp/QP1hHUFlpqbBzAOlQBt8MkE03aPBMqKvQHjcC0G3jLrB
UbTSQGwp80AOw7PB5jabQNUM9kASFbDBqZKCQEalAUCZ9qvBoJ1YQJOMmT8Ze6DBshl3QDNKYcCg
O57B0nqnQHMAjMDIfKTBoY+iQJRxzUD7p4HBz9d0QLrd7kDNp4fB2B3eQMl7HkEmSq3Bl4FrQDrT
vEDz0JXBjgnYQGmSgcBkVavBuxNQQFSZnUCzfJ/BENf5QEzRBEFsPI7BkwTbQD7A70COLonBvJvu
QL8TEUGPQpfBf3fGQABMfTsPj7HBOJLYQN6Yo79Ws7LBZr6WQKr3XL8jr6PBdJalQJ9ZA0GkPZbB
VGqlQDAoWz5sDqrBT8qwQBpJ7kA8KY3BXWPEQI2IEEGfSZvBBvepQOMdCcDGe6TB787KQPzDFcDm
GqzBF8nAQH5bxz+D2pbBjJu0QHNgb0C+qojBdiqtQJ9DHUC7tJ/BVOmiQALcj0DigZLB2AeOQE1b
YUA+wprBhnJ2QLJyQMBgppTB0auRQFHGK0G9YaPBenqxQN1SDkGPzK7Bx42TQEozzj8oIqjBNNOe
QNEtU8Be3JzBb5uPQNoU0kAj0YfBbj25QA54HUGWQ6XB9kmBQJ78rkAaDY/BMNr9QN8eU0A1b5LB
wEHlQAbC1j+56IPBHt/eQFPaYsDDu6zBY8J4QB6oiUCyQ6PBA4/bQJVuI0AqBY3BeRQNQYJYBUH7
L4vBk7HjQP8A3UBQQYLBATMDQavyGkFXH5vBC9rRQNPQUj95abbBxQ/xQIF7ub8qpLjB/0d5QCRB
Nb/IKJ7BD2CFQHGgAkGNWZnBJhenQPC5ez+G+JLBUOTXQOZIXT8WgZrB0YvDQJaWjkDpH4PBPFGa
QPbpTUAsk4TBHDLHQEMNP0Ak3KPBmUi9QE8SoUBScJbBeWxoQCWcPkB0pZbBUtJrQLFiecDTpY/B
3eGEQAVmCsDyjY/BR/A6QKorMMCB45jBl4uKQCfZNEFvtarBsxNsQMmyIUHGTKHBKTuYQFP4NkHs
ypzB63ipQOjHF0EY8rXB1JbOQHzrBEFwVrDBzNWWQCp0A0FC66zBLtmTQEfgCUDSyK/B+MdkQFll
wT9IS6XBGZKUQFoAhcAEwKHB0vu7QA47ZMB1apjBWJedQKf3w0CFjYDBB4xnQELG5UBSoYXBXI3U
QHrdJ0F1NqfBqBVqQOtwvEDmoZXBqg3SQKTVhMD31qfBY9VSQDZ3nkChZaDB+rfzQMqRB0EUFpDB
1SnZQGLR80BxB4rBenTjQL7YEUEkSZnB1B7IQACIhrpXrbHBbKrZQFTXpb+yarLBDjOVQFJ6T79w
TaTBMSeeQIMEAUEkTpbBPdelQLDjez6lmKrBPDKuQGR67UD1KY3BJ324QKZiDkH3d5zB/8OnQEKM
BsDGsKTBqRjKQDVeFcAq1KvBo6HAQAgRxj8gSJfBQnC1QJpCbEAFz4jB3vStQFSTHkDFEKDBt1Kj
QJgej0DUbpLBSLmOQPAtYkAbBZvBzL5nQHjbO8DexJXBuW6/QCNiEUEWdbDB3dSkQNrvMEFwk6XB
ViiVQFjs1D+b3ajB+vmaQPGETsB/6pzBh8qQQASyz0ANIofB9NelQPRpGEF7iabBJ5SBQFLdrEBK
Y47B+Fj+QAApUEBOmpLBLM/kQFS4zj+ER4TBaOrdQOTkYsDU8avBn1R8QAZci0Ata6PBNLfbQJyR
IEAQUI3B50AKQWEqCkEGr43BrZ/lQPPU40DsB4PBqcT3QKBZHEES5p3BZN7UQFHXTD/7g7bBoxzz
QKNGv7/8CrjB5CB0QFIrIb+3Jp/BsGh6QF86/UCFnpjBOmqmQKIEfD9mg5PBRl3XQOdKWD+w9prB
Ps7EQBGVjECrOYPBJjmbQA2tSkC8s4TBcXzIQELxQEAm8KPBuUG9QCyNoUCOMpbBk7poQN0bP0Bi
LJfBuU1bQK1Cc8ArkZDBR690QBcoA8Boz5DBHG0vQF7QL8B81JrBS4uxQEXEGEHLprfBuvDgQPN+
FkEMmq/BjBu+QDi4/0DvNLHBQ0SXQOnXN0Hn7KzBV/CQQDWJNUGSsJ7B0ZHFQEj6NkEabKTBarOX
QHpbDUBle7DBTbBmQIrJzD8ueabB29aTQJ38g8CdraHB8He2QPNQW8CJqJfBIDOiQAiIwUCHWoDB
wzVqQMLQ4UCRIYTBWL6EQCy5EkETeKfB5DFnQE+RukBTt5TBndPPQGVHhMARIafBVlpWQMwEoECu
fqDB

>  <OMEGA_E>  (3) 
xDTyPsTN6j6wjC4/xBs1Pw==

>  <OMEGA_NBR>  (3) 
     40480

$$$$
50172241
     RDKit          3D

 66 68  0  0  1  0  0  0  0  0999 V2000
    7.8758    8.2239  -18.5177 C   0  0  0  0  0  0  0  0  0  0  0  0
    7.0199    7.5500  -17.6222 C   0  0  0  0  0  0  0  0  0  0  0  0
    7.3612    8.7612  -19.7172 C   0  0  0  0  0  0  0  0  0  0  0  0
    6.1529    0.2309  -21.8900 C   0  0  0  0  0  0  0  0  0  0  0  0
    6.8440   -0.9617  -22.1618 C   0  0  0  0  0  0  0  0  0  0  0  0
    4.6049   -1.0017  -20.4579 C   0  0  0  0  0  0  0  0  0  0  0  0
    5.1382    7.9629  -19.1203 C   0  0  0  0  0  0  0  0  0  0  0  0
    5.0271    0.2091  -21.0445 C   0  0  0  0  0  0  0  0  0  0  0  0
    5.6459    7.4293  -17.9250 C   0  0  0  0  0  0  0  0  0  0  0  0
    5.9855    8.6202  -20.0255 C   0  0  0  0  0  0  0  0  0  0  0  0
    5.3069   -2.2002  -20.6990 C   0  0  0  0  0  0  0  0  0  0  0  0
    6.4291   -2.1744  -21.5727 C   0  0  0  0  0  0  0  0  0  0  0  0
    5.7665    1.4619  -18.5442 C   0  0  0  0  0  0  0  0  0  0  0  0
    5.6113    3.7704  -16.9214 C   0  0  0  0  0  0  0  0  0  0  0  0
    5.2046    2.3483  -19.6914 C   0  0  2  0  0  0  0  0  0  0  0  0
    5.0689    4.4793  -18.1792 C   0  0  1  0  0  0  0  0  0  0  0  0
    4.3193    3.5052  -19.1324 C   0  0  1  0  0  0  0  0  0  0  0  0
    3.7965   -3.0286  -17.7098 C   0  0  0  0  0  0  0  0  0  0  0  0
    6.0606    8.4551  -22.5322 C   0  0  0  0  0  0  0  0  0  0  0  0
    5.5356   10.6697  -21.4143 C   0  0  0  0  0  0  0  0  0  0  0  0
    4.3391    1.4994  -20.6675 C   0  0  0  0  0  0  0  0  0  0  0  0
    4.8376   -3.4973  -20.0283 C   0  0  0  0  0  0  0  0  0  0  0  0
    4.7006    6.6830  -17.0164 C   0  0  0  0  0  0  0  0  0  0  0  0
    5.0472   -3.5028  -18.4873 C   0  0  0  0  0  0  0  0  0  0  0  0
    5.3924    9.1408  -21.3264 C   0  0  0  0  0  0  0  0  0  0  0  0
    4.1054    5.5321  -17.7509 N   0  0  0  0  0  0  0  0  0  0  0  0
    7.8200    3.0744  -18.1603 O   0  0  0  0  0  0  0  0  0  0  0  0
    6.9775    1.6517  -16.2140 O   0  0  0  0  0  0  0  0  0  0  0  0
    7.1206   -3.3074  -21.8672 O   0  0  0  0  0  0  0  0  0  0  0  0
    3.8161    4.2668  -20.2334 O   0  0  0  0  0  0  0  0  0  0  0  0
    6.7138    2.4644  -17.4077 S   0  0  0  0  0  0  0  0  0  0  0  0
    8.9253    8.3290  -18.2856 H   0  0  0  0  0  0  0  0  0  0  0  0
    7.4133    7.1282  -16.7092 H   0  0  0  0  0  0  0  0  0  0  0  0
    8.0168    9.2803  -20.4007 H   0  0  0  0  0  0  0  0  0  0  0  0
    6.4840    1.1610  -22.3279 H   0  0  0  0  0  0  0  0  0  0  0  0
    7.6966   -0.9499  -22.8246 H   0  0  0  0  0  0  0  0  0  0  0  0
    3.7352   -1.0109  -19.8176 H   0  0  0  0  0  0  0  0  0  0  0  0
    4.0862    7.8666  -19.3451 H   0  0  0  0  0  0  0  0  0  0  0  0
    4.9313    0.9904  -18.0055 H   0  0  0  0  0  0  0  0  0  0  0  0
    6.4149    0.6821  -18.9702 H   0  0  0  0  0  0  0  0  0  0  0  0
    6.1542    4.4954  -16.2972 H   0  0  0  0  0  0  0  0  0  0  0  0
    4.7728    3.3483  -16.3480 H   0  0  0  0  0  0  0  0  0  0  0  0
    6.0465    2.7838  -20.2497 H   0  0  0  0  0  0  0  0  0  0  0  0
    5.9067    4.9390  -18.7239 H   0  0  0  0  0  0  0  0  0  0  0  0
    3.4829    3.0571  -18.5760 H   0  0  0  0  0  0  0  0  0  0  0  0
    4.0041   -3.0538  -16.6299 H   0  0  0  0  0  0  0  0  0  0  0  0
    3.5456   -2.0008  -18.0110 H   0  0  0  0  0  0  0  0  0  0  0  0
    2.9502   -3.6939  -17.9360 H   0  0  0  0  0  0  0  0  0  0  0  0
    5.6217    8.8415  -23.4640 H   0  0  0  0  0  0  0  0  0  0  0  0
    7.1403    8.6648  -22.5211 H   0  0  0  0  0  0  0  0  0  0  0  0
    5.8973    7.3689  -22.4730 H   0  0  0  0  0  0  0  0  0  0  0  0
    5.1015   11.0254  -22.3603 H   0  0  0  0  0  0  0  0  0  0  0  0
    5.0070   11.1364  -20.5700 H   0  0  0  0  0  0  0  0  0  0  0  0
    6.6009   10.9409  -21.3749 H   0  0  0  0  0  0  0  0  0  0  0  0
    4.1533    2.0845  -21.5803 H   0  0  0  0  0  0  0  0  0  0  0  0
    3.3808    1.2639  -20.1816 H   0  0  0  0  0  0  0  0  0  0  0  0
    3.7654   -3.6294  -20.2354 H   0  0  0  0  0  0  0  0  0  0  0  0
    5.4008   -4.3376  -20.4604 H   0  0  0  0  0  0  0  0  0  0  0  0
    5.2520    6.3120  -16.1398 H   0  0  0  0  0  0  0  0  0  0  0  0
    3.8993    7.3603  -16.6860 H   0  0  0  0  0  0  0  0  0  0  0  0
    5.8862   -2.8342  -18.2445 H   0  0  0  0  0  0  0  0  0  0  0  0
    5.2909   -4.5273  -18.1696 H   0  0  0  0  0  0  0  0  0  0  0  0
    4.3204    8.8947  -21.3424 H   0  0  0  0  0  0  0  0  0  0  0  0
    3.6542    5.8885  -18.5691 H   0  0  0  0  0  0  0  0  0  0  0  0
    6.7356   -4.0430  -21.4055 H   0  0  0  0  0  0  0  0  0  0  0  0
    3.2744    4.9759  -19.9072 H   0  0  0  0  0  0  0  0  0  0  0  0
  1  2  2  0
  1  3  1  0
  2  9  1  0
  3 10  2  0
  4  5  2  0
  4  8  1  0
  5 12  1  0
  6  8  2  0
  6 11  1  0
  7  9  2  0
  7 10  1  0
  8 21  1  0
  9 23  1  0
 10 25  1  0
 11 12  2  0
 11 22  1  0
 12 29  1  0
 13 15  1  0
 13 31  1  0
 14 16  1  0
 14 31  1  0
 15 17  1  0
 15 21  1  0
 16 17  1  0
 16 26  1  0
 17 30  1  0
 18 24  1  0
 19 25  1  0
 20 25  1  0
 22 24  1  0
 23 26  1  0
 27 31  2  0
 28 31  2  0
  1 32  1  0
  2 33  1  0
  3 34  1  0
  4 35  1  0
  5 36  1  0
  6 37  1  0
  7 38  1  0
 13 39  1  0
 13 40  1  0
 14 41  1  0
 14 42  1  0
 15 43  1  6
 16 44  1  6
 17 45  1  1
 18 46  1  0
 18 47  1  0
 18 48  1  0
 19 49  1  0
 19 50  1  0
 19 51  1  0
 20 52  1  0
 20 53  1  0
 20 54  1  0
 21 55  1  0
 21 56  1  0
 22 57  1  0
 22 58  1  0
 23 59  1  0
 23 60  1  0
 24 61  1  0
 24 62  1  0
 25 63  1  0
 26 64  1  0
 29 65  1  0
 30 66  1  0
M  END
>  <OMEGA_C>  (4) 
Wwb8QDuVA0FFJJTBwqLgQIWZ8UBM+ozBNY/rQPktDEHTvJ3B8uTEQB93bD6+Hq/BBQLbQOwudr9X
S7HBf1uTQG83gL/LqaPB8mukQM/P/kBo9pjBWt6gQBsVVj46W6jBUqu0QPC87UB6Zo/B34i/QGvs
CUFHNKDBb9KpQFbQDMCel6XB2rrNQOwpC8DXlKzB1Ia4QMofuz+KWpTBoY+zQOdOcUACX4fBOIym
QAFKFkAPiJ3BjDSiQDdWj0D3bpHBbzeKQIdVYEAsD5nBiflyQHLUQcC+rY3BK/DBQEtIB0HyQbTB
iyOxQBW3KkFtUKvBANqKQFXtvz8HV6XBas2aQE3TX8DsOaDBtGuWQPfa1UCvIYjBh4KhQM4tYMAV
5pPBcY6sQNdAEkGOnKrBMF+DQFsHsUDoAY7Bij36QMrCREBiSJHBEUjfQFds0z8ttoHB1tvjQLmr
U8AJ8K7BEzt0QPaJiEDq3aHBgdfWQKW4HUDqQovBCs4OQYVDBUH9SJLB8jntQPIZ5EBfrIXB00QA
QUF8FEGZNKPBhXzPQECclD+Sn7LBmEr2QCsuc7/ImLbBGg5vQHZmgb99ip7BbsKCQNa6+0DSwprB
mc2dQG+JfT8vC5DB+EbNQPOfLj/twpfBH+/EQGnaj0CTYILBKLuYQMhJVkCyyILBkHzBQAMqMkBJ
/6HBDwS9QO4LnkCTypXBgOdeQECnQ0CTm5TBQiGAQHZxQ8AFCoXBfOpiQAkNAMBxFpDB/c88QM9o
bMADfY/BTuWzQM92DUEstrvBuH3kQAejCkEvK7TB47a8QGDO60CzyLPBYD+jQBJoMEH04bLBNTmg
QOYuMkFzj6TBlzrTQP8NL0Hg/6rBGeiEQHxoBUBppKzB1V5YQGDGoT/Zc6HBrvtwQDZIaMAZ4qHB
GtOsQFDNisDlrqPBBBCoQCj8yUBfHoHBx455QEaH60DwfIXBJ1y8QMpjNcDA9JHB506pQMjfkMBT
W5HBnUCKQNhQDkEmvarBeN5pQP9uvECNjZTB3YnXQN1fgcB4PqvBGZBRQFM6n0AFQp/Bha4AQX10
AUGSUZLBlGvhQGGm7kA1OYzBJsn2QDJpC0GFEJzBQ+vDQPYXaj5o6K7Blx7aQJhUdL87U7HBWbST
QH07hL8RSqPBsiOsQNnbAEEvtpnBdJugQPJLPz5t66fB37S2QLQ+7kBm3I/B0iXMQKFGC0Gdz5/B
viOqQHBADsA2haXBPYrNQF1QC8DBp6zBgMi4QE+EvD/S6JPB+1WzQCepdUATZIfBs2GmQMkPFUDB
Np3BKgCiQMEZkEA/rpHBDgOKQGRzX0D87pjBXMGDQEooQcBIA43BJTKcQMZvJUGoranB/Nm3QPsf
BEFc67LBWkaKQPEQuz+rxaTBjoubQFopYsBDV6DBaHiUQFk/2EDUQ4nB38CmQKg3aMA/Q5TBnuDB
QM+RFUGolKrB57+CQL99skCw747BP0D6QLXVRkDTNJHBddrfQH1s3T86VoHBQ8njQO4/U8DqMq/B
Pz9yQNXAhkAZ4KHBvALXQJjeIEC8BYvB9QYRQSWYAUFBhI/BvZzpQO9h30Bqv4TBxbUHQX8zE0Ho
tKDBWePNQJhMlT/aZLLBAur0QGecbb8px7bBctRwQCwwh7+9/Z3Bg5SLQHxbAEELmZzBN0qeQCyt
gD/ue4/B4rbNQCanMD/uM5fBcprEQLq1kkDwk4LBc4mYQPibW0C4tILBCxXBQPU5MECz1aHBse68
QLrUnUBgMJbBklJfQBtlQ0BARZTByGONQOc8R8BDlYTBBhx/QNc1+r/BAY/BFNBKQPRSY8CFSo7B
J7aVQL2GLEFmkbHBaRl/QB3qHEHJ2abBlnekQG8tMkFl+KPB/XywQHyrC0FZp7rBG8PTQHwb80Bm
0rPBPyWcQGZg9UBkPLDBfBCDQDiJAkDMCazBiYRYQPbVmj/po6DBQ0BxQGd4Z8CQOqHBnxyrQKrT
i8DNiKTBboOiQN66zUDRooHBCt90QJMU70Car4fBifHEQPTTRcCN2ZLBkcuqQP4FlsBRIpLBzDze
QAB4HkHFS63BKQxrQPbEvEC2wJXBiO3XQE5ogcAfgqvBAmpPQCmZnUCHY5/Bk9H4QDQNBUGsm47B
nszZQEGr8EAEfonBDALuQJTQEEG40pfBsEbMQIAjhjyyBrHB9avcQNPypL+YJbLBGf2YQBwFT7/J
2qPBTwilQB76AkFE5JbBedqpQIixgD7e+6nBQMyvQKme7kCfmY3BLAnEQIr4D0EE/pvBfKeqQNr8
BsCWe6TBmdbLQBU8FsBM9KvB6UTCQGa4yT94jpbBESm0QN5bcEDIdYjBqI+vQA7CHkBPg5/BTO6i
QPH7j0DaaJLBuiePQB79YEDzuprBP8hPQPjIgsAq6Y7BdX6RQF6PKkFbq6TBK9iyQPazDEGIja/B
s/yXQMYb0z9/WajB/jeZQLTkUcCKxZ3BIICOQI3O0kD2KIjBVJt8QGp/N8B/25PBEXe5QBJcHEGw
LKbBIL+AQOnNrkDiKo/BMlP+QKKGVUBc45HBeFLlQCz32j9IcYPBeD/cQIZRZsCXGK3BNQN7QFMj
iUCsTKPBce3bQA4wJUA7m4zB8HsMQZTJBUGadYvBYSfiQMqy3kD0aYLB4/cCQX+JGkHbuZvBef/Z
QPXtVD8CibXBxjX2QBKEvb8Nw7fBzV58QFALIL8Mmp7BKAmFQFb8AUGFHprBJDmoQD8egD+/1JLB
KcTZQHIzYj+qDprBgGbCQD5Wj0C03oLBicWZQCVfTkADeoTBDfrJQJ8jQkBTSqPBOW29QH5uoUDt
OJbBPgdrQC30PEAOuZbB1CoqQE86ccCa64fBkP8kQKtdkcCQ35TB+AuAQKRVmsAVZozBos2KQBY9
M0HhI6zBxMNrQJd0IEG4mqLB5k6XQMsaNkEjMJ7BND6rQC/BFUFO27bB8EfQQBxkA0HZ0bDBv0iY
QKHHAUEwra3Be4KaQMJ0DEBI96/ByzZsQA6gxz+lEqbBMO6EQDaOecAR+6LBi5y0QJ/xd8Aa9ZrB
kDOcQOeixUC5wIDBxOFkQK2R5kB2NIbBnv1LQKKOCMDRUpbBAIuTQJR+GsBW2Y3BPrzUQGPLJkG8
G6jBaZdoQCNhu0A61ZXBhLnNQFJEhsB1bqjB2ohTQGBhnUDEgaDBzOEEQQE080CEM5TBsqHoQBhI
5UAdYo3BUd//QCsbA0GEIZ7BoO6yQPNxLT5H/a/BKi7MQHUVar+nc7PB2n+fQHOPir+b85/Bbruz
QOYJ/UANeZrBuSGcQFb7pj22RqbBnHa9QDmd6kBofZDBrL3UQO+UBUGBUqHBkP65QOiVCcCtKKPB
irrPQNfcBMBBGa3Byhi0QJU3vj/XGZLBRBqyQGlRfEAOEIfBwGufQPXMD0AsrpvB5sieQPHMkEAY
eZHB9hqEQIstXkBs1ZfBlHeYQDb0rsAqcJXB1UiuQNcOJEGMdqrBxKmyQGk1/0D1ZLPBHqKCQBN/
oj9mNaLBlJe9QMygV8BD7JvBER6ZQD602kCKfonBTGOVQMcliMBh+JzBZADKQHnMD0GSFKzBDc6C
QNb7tUAgt47Bxdf2QNjhRUAYMJHBArneQCnG8T90OoDBg1ToQKEGR8AKn7DBQ1BkQJ7tg0A5BqHB
dHfUQOg3JUCFRIrBemAVQZdO70Ba0ZHB2zfwQBGR1kCSzIXBCqkMQe6CCEGCUKPBrgixQMeViD8B
xbTB5OTcQAkyW7/3/7rBKpqNQBr6k792lZjBGb+SQF0yAEEf6ZzBOZuaQBHSiD8+CI3BRh7IQAQ2
Kz+ZNJXBcobEQB4ll0AQ6oLBKyiYQFO3ZUBo1IHBJBi5QOZwJ0D07KDB2CK5QIHbm0BvnJbB0NRU
QMtRRkDgm5LBcyp3QL7IwsBDSZbBSNi0QEkLwsD8hJfBvi+bQDvJo8DbHo3BUt2mQOQyK0EVSrLB
61WQQEeuH0HKY6bBCvK/QOiyL0GhjqXB0TCrQEw9B0GYGbvBWmPHQDpJ40CYwrTBI8+UQPrP9EAa
hq/Be+ZpQJNx5z+ZE6nBWEVRQATsZz+oCZ3BtPXZQHQDfcD2OZ7BBd/AQKNqQsBtkpPBgRWmQKxD
0ECXvYHB0R2CQE/b9ED5N4jB/JaSQPp0k8A1RqXB49xxQNllasAU4JrBFgboQJWNFEEAA7DBU71q
QBuhwECDeJXB25vnQFUqdMByiKvB2gtDQHS/m0BpyZ7BVCzEQOHt7kAuWKvB39a1QMm02kC5A6LB
EErNQKtmDUEON6vBop61QAARCD4IILDBk9nNQPtkfL9kTrPBdkScQAFzjb+Ci6DB5tK6QP3wDkEB
OpjBj5KcQLZOkT2EwabBpgqxQJTk8UC8TZjBd1rIQINKGUFdraHBBF21QI3SDcBYfaPBsAnOQFwf
CsD4Aq3Bp+uzQAiMtT+xQpLBxGCyQF36d0AR74bBe4WhQPewDUB49pvBY6iiQE+/jkDhlZHBQxqH
QK/5XEDILJjBiyDKQOT+isCe94nBeC2yQM7ZPEF/S6nBJAoAQSHNNUGNjqTBH2mEQHNPpT9P5KLB
2oK1QPQvXMBDNpzBQ7eiQMQ03UBX0o3BykjKQKPeRsBHS5HBeQDRQDM8MUExjqHBhvuIQGjktUCQ
do/BcD/4QPrlPEBnY5DBwLzbQMEI4T9Tqn/BOhTmQNIJTsC7PLDBhNprQAzTg0DsZaHBlAvUQKdc
HkAv54nBejDIQOW93EBRn7LBVlCuQMP7uECWMqLB4B3YQDdAFUGja7LBoji2QFiwhD9k2rTBUV/g
QNhwcr8KmLrB5paIQMjek78gdJnBp/S3QEDzF0F845DB4zyZQEbQgT+2hI3BbLvHQMn8Fj+VQZXB
VKDEQAtKlEA1foLBWOOWQIAEY0AuGoLB1FW8QJ8xJED566DB1cG+QIVxl0BRa5bBCsRZQJYdRkC6
C5PB5v3YQPTTgsCVQYLBBPWoQHx6lcCPn4jBlFDcQEb6pMDtyI3BQL24QLAjTkHpIqnBm+y2QM26
NkGzdbHBQO6QQIzxOUHoy6bBb+cCQTMqR0GybqTBva4KQU/vLUGAwZ7BPkwDQe2ML0HGnqzBXNNx
QDHn7T/Y3KnBy9hRQGAgdz+rDZ7BJ1yUQKticcBt5ZrBAcTHQB/oh8C2FKDBNVK/QOzi1EBXIonB
oUuPQP519ECBV4nBpiS4QOUIE8B5b43BNoDrQHoIMsDWmJLBa0nLQGRQN0Hpa5nB5BZrQIK2ukDq
s5XBnA7jQGSDe8DgP6vBHpFLQLECnECULp/BsC+qQAci+0DR2KrBrMKaQJAJ6UAhVaHBvqLNQAli
C0HtmqrBAsG1QMAvCT5dDLDBJunNQMVpfL/fPbPBRA+cQPbPjb9NhqDBU2jTQFJXBkG7TJfBX5Sc
QPjekj0Hs6bBmxawQLSe8EBeipfB2L/hQPWhEEFIxaDBrgu1QFEpDsB1faPB5uDNQAxVCsCC/KzB
Ml2zQF49tz9IKpLBUgi0QKVvekB0NYfBqKOhQBE6DkAA8ZvBbbeiQNUpkEBXxJHBNZKHQMesXkB9
T5jB1UDJQK/oi8DuDorBPuYFQU8BLEGsmZXBIkcCQVSWMUH/X6nBcXWEQFrYpT841qLB9+e0QIre
XMBQRJzB4BmfQLQC3kCNHY3BeZbJQA1ISMAIUZHBaf8DQTRBIEHsgaDBvViHQJtotUC+7o7B6bb4
QKn2OkDolZDB8ZvbQJKJ4z/xtX/Bht7lQBRNTsBzObDBb/1uQDqBhEC8pqHBH1bUQGjFHkD+AorB
JM6aQGvS80B4XbLBV+l8QHk31UCNfKHBWrPZQHYTEkFF+rHBa4K2QGkLhT8SwbTBZYzgQCIGcr+p
grrBXE6IQAZblL9lcpnBhbvjQARLCUEt1I/BzmWYQD2hhz/oWo3BkHTGQIWvFD99DZXB/3PHQJdw
lUDGD4PBEwmZQNiGZ0CVFILBiLy8QG2fI0By4aDBXs+9QC/WmkD2tZbBu65ZQFH8SEBrRJPBWw7Y
QIL+g8DIUoLB9wqoQF1YlsAxwYjBlmrbQF3UpcC+6I3BdLMTQWXrNkGHy5XBSmzuQHE6NUGLGpTB
ySAIQUcwIEGsLI/B/CsQQaNZPEEV6KjBvu8BQdnPKUGQRLHBIwHnQEPfOkE9O6jBU8RxQHId7j8P
0KnB/AxSQOiheD/V+J3Beq+TQL/LccBO/prBBBXHQKI/iMCRKKDBADS6QG2t10BXuofB6nCJQHFj
9UAPYYnBkHi3QKiSFMCnbI3BL9jqQKiKM8A1lJLBJMYSQVcRF0EW1aHBLCBlQIAlukAr5pTBUbLi
QK/se8CKQ6vBKSNPQMUInUDQk5/B47fhQM6b8UA/7KLBe/2+QGF55EDlo5zB01wCQSUpA0HCJJ7B
Nwu0QOnHFD5jAbDBg+zMQAW4c786W7PB+tSeQBkojL8ADaDBAOziQHwI/0C5oozBZYqcQCimjT1h
ZKbBcALAQMPI6UDdZpHBl/YCQWepBkFf7ZLBAOu4QFFIC8BLJKPB1F7PQFRcB8Bc/KzBo9mzQGNQ
uj8OEpLBhX2xQFROekAU64bByhSgQAxoDkD3upvB5nGfQNV7j0C0cZHBx9iEQKLfXEAh+JfBHE2U
QGjxrsDuhJXBP5wqQQEtEUHjEZTBlWEZQcJvDUHQBoLBXFyDQC0eoj9Yb6LB8UO7QOhhWcCm45vB
cLKaQGwr20Dpc4rB34KSQMojiMB3E53B2UMVQQjFE0HR2o3BJPGDQKKOtUDQGo/ByPX2QDTbQkBB
w5DBpjvdQBae6z/v7H/BVJznQMBnSsDZZbDBUyJoQKPAg0AcPqHBaubTQMajIkA6BYrBxZHhQG/O
60CscKvBuU+jQKY61kCqZKDBRoUPQS6GCEF0D6PBTPeyQAychT+cyrTBgjLeQJ5DZ79j1LrBwWmM
QPoylL/kwZjBuQrjQDNAAkHDGoTBg9+ZQK9JhT+YJI3Bgu/HQLK3Ij9iGpXB0q/DQDMTlkAwr4LB
dQiXQIEWZEBL0oHB5ju6QJjKJUAC2KDBF4y6QOLHmUBDb5bBoBhVQCpgRUA16ZLBkBZuQDklwsAu
d5bB6F+wQJypwsAefZfBosaWQFDGo8BoMo3BLiU3QQPFGkF/LZDBb1wvQac6AEHpFJTBl3MoQcGv
FkF9W5zBR4QmQeIvF0Guj33BZ8oKQZo4EEHenHrB9r8dQd7Q+ECim4HBHR9tQFJV6D/hW6nBsndR
QLsXaj9uap3BmljXQGwBgMD2Fp7BuU2+QERCRMB3h5PBDQOnQIBf0kD0gYLB592DQLfE9UBEponB
o/SPQOZxk8CjYqXBurZsQDQdacDtF5vBr7sQQXzFJEFGDo7BJZJsQAPZvkDp9JXBQiLmQId7d8Co
T6vBLeJGQCqsm0CsEZ/B9HHiQFSS8EBF46LBiDi/QGZr5EAxppzByMMCQYKMAkGeF57BDPyzQL69
Fz4r46/Bi/zMQPSycb+gRbPBhzKeQOhqjr/iD6DBWDbjQDi+/kAfoYzBpECcQMxJfj0AUKbBhTLA
QLi46UC2aJHB/sECQf4kB0Ec+ZLBspK3QOoDDcBSV6PBlf3OQA2AB8CrBa3BOIyzQGPuuT8wApLB
SGCxQKpgekCi6YbB/uCfQDMeDkDorpvBYGqfQI59j0Bjc5HBOcOEQI/qXECQ95fBb/rnQJrwlcAQ
uY7BLp4OQRvxH0HLtIPBCdEfQcuOI0HEupXBThaDQPg1oT+3VaLBwqW6QHHpW8AQPJzBodOaQIAw
20BteIrB04bkQGnPWsCjqZXBPpoVQfVQE0GF043BBQCEQKiktUC6IY/Bgsj2QKRpQkB7u5DBJ/Pc
QC6t6z/d0H/BqpbnQJ8lSsBBZrDBtk9oQJq9g0C3Q6HBxq7TQOl6IkB0+4nBCp3iQFoo6kCoYKvB
FDmjQN701kA9b6DBtGUQQQX9BkFM6qLBVPqyQGWRhj9jnrTBCrDeQME9Yr9KrbrBoxyMQHN+lr+D
t5jB4vLjQBCIAUEjD4TBZYaZQHdthT/9Eo3BCpDHQI03IT84BZXBQ5/DQIoYlkC/r4LBqN6WQEhh
ZEAa0YHBSRC6QHAgJUAn0KDBio+6QCawmUB8cJbBiLxUQOm+RUCT6pLBDvcCQawElcAYG4rBaJ3M
QM1jl8D+MonB0tjnQKtkssBQ55PB0IUcQb1WKEGJUYDBdD8CQWarK0G25YXBgCEIQcvBFEHJeHvB
2CUtQevgK0FnxJHBRtUlQRP8GkE+zZzBsrITQWlPL0H5N5jBfThsQIQp5z+oP6nBNSxRQA8saD+h
Rp3BPzKfQFD2XMBTupbBzw66QNHLisAcR6HBIBenQHhZ0kD5hYLBAA+EQLrX9UBuq4nBT8HkQNES
IsAAdJDBufz/QIwUWMBSKJvBW+ghQb2kB0HoeYvB5t5sQKf2vkAY/pXBobLlQIW3d8D3Y6vB7jdH
QKvAm0DpHZ/BVxLyQEOiB0EE7I/B7I/XQMrh80BA3onBfvHhQGOtEUFYM5nB/r/LQADI57zrtbHB
YyrbQGfqrL9iYrLBBsmXQIBUPr/2SqTB+b+cQLm+AEGhPZbBjcipQPBMjT4ArqrBzqisQN5T7UCR
CY3B+j23QNzUDUFQgJzBnS+oQP4BBMDVlqTB3sbJQMoJF8AeyKvB63fDQKqPyj9aVpfBd/KzQAmv
akCLpIjB8eawQOcDIUAZIKDBlQ6jQED2jkAcS5LB5iuQQLFiYkAjL5vBkbY8QOVBfsAhSpDBp/HB
QLP3EkHrVrDB4T6dQAqTL0HGPqXBq++ZQF6L2j/DQ6nBGxeYQCvCSsCzDp3BCUmPQFJQz0DBEYfB
7ThnQDuXL8A+Y5XBG7GkQBVwF0EirqbBq72AQJ5KrEBMYI7BNnP+QO9RVkDG75HBXnHlQD4t0j8B
E4TBLtTaQIEhZ8A8AqzBpwyAQLyji0CmmqPBJz7cQPcFI0AJB43B21sJQatuCkGwdI3B///jQIwE
5ECp2YLBfCT2QBVKHEFYyJ3Bs+LZQJ++Pz++jrbBcV30QMbsy79x+LfBJER6QEmKA7/AG5/BcYJ3
QBjP/ECDh5jBiGqpQNLaez+c3JPBqWLbQJmzaT8Z8ZrBjW/BQDJ5i0AzsILBR4mZQBZPRkB/A4XB
o2bLQNJsRUBotaPBImy9QKfIoUB0vJXBNZJrQHt7PUC2oJfBnzYJQCNhacAQ44rBXcUhQC2ak8Ay
m5bBVrZsQINIkcBouYvBLdWzQM0QGkEHlLfB6KThQDoOGkFG5q7BFkPFQLaVAUG3cLHB9NiPQA1K
NkFtqKzB5raGQCg8MkHInZ7BKtm7QGB6N0FpbqPB4ueeQG2OD0B/2bDBIQ5vQBn/1T9abqfBVF+M
QKoMgMBL/6HBi0WzQC6YYMB0LZjBu4egQHhXwUA2PYDBL5dmQBAt4UDqJYTBROI2QHpuC8Bc6pnB
n+mAQCXLBsCSCI/BhIuFQCvXD0HaOKjBi+RlQMnUuUB4wJTBrrzLQJF2hcAdKafBAV1YQICen0A9
wKDB

>  <OMEGA_E>  (4) 
wJzgPozY1z6uHyY/iBIaP1wIVD80hEw/eD9MP97tSz+8VTg/

>  <OMEGA_NBR>  (4) 
     50210

$$$$
50172244
     RDKit          3D

 64 66  0  0  1  0  0  0  0  0999 V2000
    8.0407    8.1111  -18.2890 C   0  0  0  0  0  0  0  0  0  0  0  0
    7.0460    7.4670  -17.5316 C   0  0  0  0  0  0  0  0  0  0  0  0
    7.7064    8.7420  -19.5018 C   0  0  0  0  0  0  0  0  0  0  0  0
    6.1357    0.2180  -21.8714 C   0  0  0  0  0  0  0  0  0  0  0  0
    6.8261   -0.9705  -22.1641 C   0  0  0  0  0  0  0  0  0  0  0  0
    4.6382   -1.0247  -20.3946 C   0  0  0  0  0  0  0  0  0  0  0  0
    5.3776    8.0655  -19.2134 C   0  0  0  0  0  0  0  0  0  0  0  0
    5.0346    0.1871  -20.9939 C   0  0  0  0  0  0  0  0  0  0  0  0
    5.7114    7.4489  -17.9867 C   0  0  0  0  0  0  0  0  0  0  0  0
    6.3736    8.7312  -19.9693 C   0  0  0  0  0  0  0  0  0  0  0  0
    5.3272   -2.2207  -20.6742 C   0  0  0  0  0  0  0  0  0  0  0  0
    6.4273   -2.1887  -21.5729 C   0  0  0  0  0  0  0  0  0  0  0  0
    5.7822    1.4727  -18.5017 C   0  0  0  0  0  0  0  0  0  0  0  0
    5.5978    3.8292  -16.9275 C   0  0  0  0  0  0  0  0  0  0  0  0
    5.2072    2.3321  -19.6624 C   0  0  2  0  0  0  0  0  0  0  0  0
    5.0633    4.4996  -18.2139 C   0  0  1  0  0  0  0  0  0  0  0  0
    4.3163    3.4907  -19.1259 C   0  0  1  0  0  0  0  0  0  0  0  0
    4.8638   10.3751  -21.1768 C   0  0  0  0  0  0  0  0  0  0  0  0
    5.7396    8.3163  -22.3646 C   0  0  0  0  0  0  0  0  0  0  0  0
    4.3359    1.4653  -20.6130 C   0  0  0  0  0  0  0  0  0  0  0  0
    4.8222   -3.5194  -20.0407 C   0  0  0  0  0  0  0  0  0  0  0  0
    4.6444    6.7550  -17.1628 C   0  0  0  0  0  0  0  0  0  0  0  0
    4.9968   -3.5513  -18.5033 C   0  0  0  0  0  0  0  0  0  0  0  0
    6.0473    9.3923  -21.3059 C   0  0  0  0  0  0  0  0  0  0  0  0
    4.0890    5.5763  -17.8727 N   0  0  0  0  0  0  0  0  0  0  0  0
    7.8208    3.1105  -18.1498 O   0  0  0  0  0  0  0  0  0  0  0  0
    6.9932    1.7199  -16.1767 O   0  0  0  0  0  0  0  0  0  0  0  0
    7.1084   -3.3207  -21.8899 O   0  0  0  0  0  0  0  0  0  0  0  0
    3.7902    4.2136  -20.2423 O   0  0  0  0  0  0  0  0  0  0  0  0
    6.3514   -3.8240  -18.1544 O   0  0  0  0  0  0  0  0  0  0  0  0
    6.7187    2.5101  -17.3836 S   0  0  0  0  0  0  0  0  0  0  0  0
    9.0625    8.1216  -17.9395 H   0  0  0  0  0  0  0  0  0  0  0  0
    7.3046    6.9855  -16.6001 H   0  0  0  0  0  0  0  0  0  0  0  0
    8.4735    9.2374  -20.0784 H   0  0  0  0  0  0  0  0  0  0  0  0
    6.4480    1.1507  -22.3173 H   0  0  0  0  0  0  0  0  0  0  0  0
    7.6650   -0.9517  -22.8440 H   0  0  0  0  0  0  0  0  0  0  0  0
    3.7989   -1.0366  -19.7150 H   0  0  0  0  0  0  0  0  0  0  0  0
    4.3608    8.0292  -19.5755 H   0  0  0  0  0  0  0  0  0  0  0  0
    4.9544    0.9993  -17.9534 H   0  0  0  0  0  0  0  0  0  0  0  0
    6.4405    0.6944  -18.9153 H   0  0  0  0  0  0  0  0  0  0  0  0
    6.1317    4.5731  -16.3179 H   0  0  0  0  0  0  0  0  0  0  0  0
    4.7576    3.4165  -16.3498 H   0  0  0  0  0  0  0  0  0  0  0  0
    6.0421    2.7612  -20.2358 H   0  0  0  0  0  0  0  0  0  0  0  0
    5.9088    4.9274  -18.7727 H   0  0  0  0  0  0  0  0  0  0  0  0
    3.4923    3.0487  -18.5464 H   0  0  0  0  0  0  0  0  0  0  0  0
    4.6571   10.8315  -22.1560 H   0  0  0  0  0  0  0  0  0  0  0  0
    3.9723    9.8318  -20.8301 H   0  0  0  0  0  0  0  0  0  0  0  0
    5.1184   11.1623  -20.4519 H   0  0  0  0  0  0  0  0  0  0  0  0
    5.5057    8.8013  -23.3238 H   0  0  0  0  0  0  0  0  0  0  0  0
    6.6157    7.6627  -22.4884 H   0  0  0  0  0  0  0  0  0  0  0  0
    4.8777    7.7162  -22.0376 H   0  0  0  0  0  0  0  0  0  0  0  0
    4.1223    2.0410  -21.5256 H   0  0  0  0  0  0  0  0  0  0  0  0
    3.3916    1.2184  -20.1057 H   0  0  0  0  0  0  0  0  0  0  0  0
    3.7530   -3.6306  -20.2743 H   0  0  0  0  0  0  0  0  0  0  0  0
    5.3817   -4.3614  -20.4744 H   0  0  0  0  0  0  0  0  0  0  0  0
    5.0867    6.4236  -16.2117 H   0  0  0  0  0  0  0  0  0  0  0  0
    3.8303    7.4665  -16.9603 H   0  0  0  0  0  0  0  0  0  0  0  0
    4.7063   -2.5755  -18.0869 H   0  0  0  0  0  0  0  0  0  0  0  0
    4.3509   -4.3363  -18.0830 H   0  0  0  0  0  0  0  0  0  0  0  0
    6.9297    9.9591  -21.6376 H   0  0  0  0  0  0  0  0  0  0  0  0
    3.6780    5.8985  -18.7256 H   0  0  0  0  0  0  0  0  0  0  0  0
    6.7336   -4.0578  -21.4222 H   0  0  0  0  0  0  0  0  0  0  0  0
    3.2434    4.9251  -19.9302 H   0  0  0  0  0  0  0  0  0  0  0  0
    6.4382   -3.8394  -17.2085 H   0  0  0  0  0  0  0  0  0  0  0  0
  1  2  2  0
  1  3  1  0
  2  9  1  0
  3 10  2  0
  4  5  2  0
  4  8  1  0
  5 12  1  0
  6  8  2  0
  6 11  1  0
  7  9  2  0
  7 10  1  0
  8 20  1  0
  9 22  1  0
 10 24  1  0
 11 12  2  0
 11 21  1  0
 12 28  1  0
 13 15  1  0
 13 31  1  0
 14 16  1  0
 14 31  1  0
 15 17  1  0
 15 20  1  0
 16 17  1  0
 16 25  1  0
 17 29  1  0
 18 24  1  0
 19 24  1  0
 21 23  1  0
 22 25  1  0
 23 30  1  0
 26 31  2  0
 27 31  2  0
  1 32  1  0
  2 33  1  0
  3 34  1  0
  4 35  1  0
  5 36  1  0
  6 37  1  0
  7 38  1  0
 13 39  1  0
 13 40  1  0
 14 41  1  0
 14 42  1  0
 15 43  1  6
 16 44  1  6
 17 45  1  1
 18 46  1  0
 18 47  1  0
 18 48  1  0
 19 49  1  0
 19 50  1  0
 19 51  1  0
 20 52  1  0
 20 53  1  0
 21 54  1  0
 21 55  1  0
 22 56  1  0
 22 57  1  0
 23 58  1  0
 23 59  1  0
 24 60  1  0
 25 61  1  0
 28 62  1  0
 29 63  1  0
 30 64  1  0
M  END
>  <OMEGA_C>  (5) 
pqYAQRjHAUH2T5LB1njhQKjx7kC8QIzBiJr2QEffC0GpA5zBaFfEQNowXz6P+K7BPm/aQIhveL8Y
ULHBWmyUQL4pg78iKKPBgRWsQFwMAUECtZnB2BuhQOKZPz6J86fBdcO2QItd7kDY5I/B0/TLQPGy
C0ESwZ/BG3iqQOkfDsDYZKXBQ6zNQBMUDMA2lazBqQe5QDGAvD+DA5TBZyGzQOAQdUCVa4fBaaGm
QFhBFUClTJ3BvAaiQFn8j0AdtpHBwR6KQHVnX0DTAZnBEKSbQFoAJkETaqnBy6q3QJcPBUHM6rLB
6b+KQAqPuz9U56TBSU+aQI0+YcB0U6DBEJ+UQCop2EBeTYnBoOWfQHhIY8DDBpTBXoPBQNpGFkFl
cqrB79iCQHBxskBk+47BVkT6QM4RR0DiMpHBe8jfQPUm3D/taYHBznfjQDiGVMCJHq/BK5JyQATW
hkA08KHBWD7LQMW7dMAuPJHB2v/WQAelIEChEYvBCwARQfrxAUElhI/Bp7/pQJ+J30ABzYTBV5MH
QW/ME0GkoKDBIVbOQERKkz/FibLBmEf1QHmic7+NwLbBzCFzQHSuhL9RuJ3BsouLQLx3AEGzmpzB
V4qeQOfSfz98oI/BXxjOQOnGMT95UpfBpzbEQKRWkkAoi4LBmz6YQLqnWkBazILB2FjBQBG4MEAC
46HBlhS9QC+tnUBnLpbB9oFfQHIeQ0ASX5TBvQaVQP9NLUGRP7HBtzp+QBdPHUEZpKbB7smjQKmY
MkFwnaPB1y6wQC7SDEE+l7rBv7PTQCs19UA66LPBIRacQMDq9kAHTbDBq+mDQPWfAkBqNKzBMRBZ
QJz0mz922KDBbjFwQCNbaMDEMaLBizasQMOQi8CTy6PBSsaiQM+NzUCZsYHBxiN1QMDt7kCvrofB
IZqWQLrUJMDpsZDBfTqLQJ/CisD2qZDBP8DdQHZYH0HOGa3BM2RrQLvAvEDzzZXBtnnXQGbZgcCy
YKvBKpRPQECanUARcZ/BBgbOQOu4dcD+qonBCOn7QNitA0HWM5TBY5fgQInT8UCeA43BvFvrQOc9
DEHYy53BwzrEQDPrZT7wGq/BP2HaQEfYdr8xZLHBWuiTQKTogb+yX6PBW0CkQG0M/0Dw9JjBWbOg
QCyqST7YLajBXZe0QHH77UDQZ4/B+0u/QAoCCkGSOaDB5b2qQHNHDcAGWaXBXLvNQHZuC8BvmqzB
1l+4QADbuj9NKpTBLl6zQH+0cUC5S4fBjnOmQJiwFUA4ZZ3BDjOiQEBwj0D3Y5HB2UiKQBxrYEBB
BpnBx+DAQBqcBkEFP7TBO7qxQCiJKkErmavB3ZCKQELuvT9vHqXB30ucQBGvYMBi+5/BBGOWQKIT
1kBsIYjBJ5yWQBC2V8Ahu5PBBESsQE8nEkHdqKrBcV2DQL40sUDaAI7BzRL6QJPSREDgKZHBJR/f
QPUJ1T+ghoHBornjQPTSU8DhFK/BoWR1QFx6iEAK6aHBsW+9QDEjPMCbzo7BhK3WQE8FHkBHHovB
RMEOQUFfBUGOXZLB+UHtQNBX5EBYt4XBzyUAQeGAFEFqSqPBcWvOQAcMlD8bprLBDjT1QKezcr9+
1rbBX9NwQNDng7//I57BoY+CQHgD/EAjuprBSJ+dQAMUfj9G1o/Bux7NQEo+LT+xhpfBSavEQBMY
kEB1TILBbnOYQKTQVkCGuoLBmGvBQO7sMEBA6aHBehe9QCQUnkBEu5XB6n1eQL1dREA0nZTBNtSy
QN2mDEFcurvBO4/jQJaeCUGFQrTBxPq6QDud6kAnmbPBbcWjQOYTMEHfL7PBa1ehQCtoMkGg4KTB
kPvTQAmRLkFCZqvB5jGEQClBBEBAaazBwjpYQJYonz9IJaHBpQ17QGw7dMANfaPBI3a0QNUnicD1
jKHBcw6oQOg8ykBhHoHBznJ5QB6560BlfIXBn616QDN+KMBKF5LBRk+NQCYJi8CpX5DBENGJQKGJ
DkEerarBMglqQIqSvEC8kJTBetPXQBh4gcBGT6vBle1SQPZhn0DaYJ/B8T+5QA4ON8BrTofBTqgA
QRgGAkEuNJLBknPhQDdC70CpMYzBfcT2QPwLDEFb75vBWLfBQHiAVD6V7a7BHGbYQDGGdr93bLHB
37KTQN0Sib9S16LB40+sQK4DAUEKvpnBeUafQOy4HD4PrafBLdi2QHdr7kAk54/BIDzMQBa2C0Hp
wJ/BtX2qQHEBEMAjPqXBbQ/NQCEHDMDZnazBn8K4QKBWuz/N35PBglezQCxsdUACbofBqsWlQMu7
E0AdKp3BAA6iQLHpj0A0u5HBA9WJQI30XkAy7JjB6QmcQIbrJUHkganB+kO4QEzqBEEc7bLB8u2I
QLNgtj/cb6TBkcCdQD8mZMCw0Z/BUqaUQL8u2ED7VYnB3MGmQDbjY8AooZPBb/PBQH4zFkGMeqrB
VOyCQNV1skCqBY/BCSz6QEGLRkCyRpHB1/zfQFhY3T8sXIHBZwPkQGcFU8BELK/B9TFyQH9lhkBZ
5qHB+PV/QHBGWcC3to3BHQbXQNCiIEDUDYvBiPYQQaBQAkHgWI/BiKDpQObp30AfuoTBpasHQcQK
FEF5gqDBpKXKQD7Rkj/RjrLBkZ7yQCzSbL9EC7fBBYtyQJ9Kjb+TR53BItmLQPxZAEHdr5zBSIqe
QMWbfT9uYo/B0MjNQCdrLz9tMpfBkZfEQLmckkCWnoLBAoiYQH1mW0APv4LBgSPAQB34LUAd/KHB
SAK9QBJunUB3RZbBO71eQKujQ0AMO5TBDIaVQEEqLUEtXLHBDvl+QJ48HUFfvqbBLxakQCePMkEv
uaPBheWwQAOdDEFUn7rBjlTUQJDr9EAF3rPBr6ecQMql9kDMUbDBgZuAQJEc/z/QravBLhVXQBeZ
lT9CDKDByqh2QEnKbsDoFqHBMvyvQPtSjMCygaPBVL2iQBaTzUBcuIHBRCd1QNvw7kCuuofBrLa1
QJ9+kMChXZHBEKW8QL7mLsBcuZHBXjfeQOpCH0EgH63Bx7hrQBzGvEDg2pXBivvYQElxgcAzYqvB
keFPQEl/nUDIcp/BWSyGQNJIWcDqRYbBmeX+QLFrAkGFRZXBFPzjQCJg8EBfzI3BZZztQE7ECkH7
057BYom6QCCeXD5jUbDBhYjSQOngbb9N4LLBtXSZQEmvfb8Rf6HBZYamQPg+/kA8VJnBShydQBJR
Mz5WzKfBsZ63QH517UB81I/BDz3BQM3VCEE176DBWZ6zQM86B8BpiqPBddbOQB4wBsDRn6zBnJq1
QKi0uD9wv5PBO/GyQJpZcUDPGIfBGEOjQOfeE0Cy/5zB9tuhQKoyj0DpNZHBTlWIQMt0YEB9npjB
LJrBQPx6BEEv6rTBsfeyQM3FKEE9nKzBa0OGQFwmuD/SX6TB/rS1QCIhUMBxVZvB7LqZQLzn1kD+
NIjBiCKJQK8SccBAOJjBAoytQNR0EEHtYavBuqyEQCpMskC/xI3BSZz4QKOKP0BrDZHBycDcQPT4
zz/kQoHBpwfmQFlBTMCbcK/BDxhxQHJgiEAngaHBPVNkQJCqg8DPp6HBQNnUQE2KG0Dh4IrB5l4Q
QWneA0H2rZPBXT3xQD3+4kDojYbBbxwBQfOhEkFViqTBVKm+QEDXjz9+4LTBeejnQBsUar8YqrnB
vXGCQDwtg79LDpvBXoeEQNcx/EDYy5rB8fGaQPvKfT+CR4/B3MfJQKvdJT/zJJfBJB/FQMWyj0C4
O4LBV+mXQH5pWECHZoLBnP69QKdFLUA9w6HB+/C8QGiSnEDDupXBesJaQO47RkBAAZTBAQ6zQGEo
CkGQaLzBCkTkQL2EB0EIGrXBctG7QGhq5kCACrTBZIykQNb7LUEZNLTBjgGjQOTxMEFd6qXBBTzV
QEXMLEGclqzB2197QBNOAUBah6vBYwVSQHpXlT9h/Z/BZyjIQGKtgsCAyJ7Bh+zFQGCeOMDoGJTB
8QSsQILjykB1UIHB1CmBQKaB7UBQaoXBZGaMQBnnlMDSEpPB+HBvQCu7PsCq35PBnBqLQPHWDEGC
OavBt/ZrQNuzvUBDR5TBl2jgQGN1ecAvjqrBfidQQCbRn0Au9p7BsRgtQE/hjcBqw5/BJVz+QDOl
AUETP5bBasTjQEmn7UDa7Y7BhVnsQOhBDEHGHZ/B4Ra7QGC92j22WrDBH1HSQGvQh79xpbLBKV6Y
QBrNhL8Rb6HBeyulQJg4AUHpXpnB1GudQEbW5D114qfBiAS3QHmy7UCWdJDBPIO/QGbFC0FXzqDB
/ISxQDoLDMDHP6PBMnLNQPNdDcAnNqzBzwa3QIQitT/ID5TBq96zQFiLcEDNhYfBo/GkQBWFEUA2
ZJ3BDyyjQD+EjkDct5HBbhmKQL6lXkBbJZnBA8HFQA0HGEFfKbTBECWgQPHOLkEyWKbBc6CHQLqE
sz+AtaTB5u2xQMyzVMA/+prB7JKZQAJX1kBb4YjBvbSFQGb/fcC9TpnBLimqQIHMF0Gm86nBi2mF
QKJtsUD8do7BPfz5QPANPkDTPpHBAmbdQFm1zj+ldoHBwpDkQJ1YVMCBr67Bo9R1QK9Ch0CvIKLB
X+VWQGzdSsAifZLBx+7VQP5fGkDbJYvBeEsQQZnOAUGwDpXBIZLxQMwX3UAjLYjBeGAAQRbHFEEj
o6TBafu/QDmIfz+1E7XBEgPoQAY4ir+9XrnBpQ2BQDKWhL9ZDpvBYOuCQPAWAUHThZrBkD6cQLbq
dj/8oY/BGWPLQKaGHj+IYJfBHuHFQJ5tj0CwqILBIaiYQBnpV0D83YLBo8O/QA41KkDZLqLB/WC+
QAP4m0DpLJbB96BdQCD1REB7m5TB0+60QK3hIEGkf7rBXofkQMfcH0FgdbLBy4TLQLh/B0HG0bbB
TLWQQNGMN0GF76zBuoOKQFZhLkHCZ5/Bjg6+QMjwNkGPHKTB4qd/QHt2/D+j+qvBSvZTQM4tlT8f
XKDBLlfIQKgxg8Axtp3BOfa8QLumOsARSJPB/hGsQJahykAx/YHB93uAQNpX7ECpFIbBi6xrQC59
gsAsHaHBXvOJQN+8nsA9p5XBSbmLQDnMD0Hw1KvBcSxuQPyBvEBzD5XBmiveQIlOgMAsuqnBwfZU
QLXlnkCPr5/BxdUgQIHAZcBKmJHBwOfDQK3I7kCKaqvB55i1QHKh2kAHE6LBXfPMQD1WDUE5UKvB
5Fe1QL4B9z1VJ7DBEHjNQMl1f7/7YbPBo/udQDuBjL82SKDB6Xy6QC/0DkGiU5jBvDKdQJrKhz3p
oqbBgMSwQDzo8UCaYJjBgvvHQLdEGUEQyqHBw6W2QFmtDcCrVqPBxEbOQGGFCsDSBq3BZ1i0QNyS
tj9VLpLB6WeyQG2YeECA64bBFc2hQOK1DUCv55vB6aCiQG7ZjkCqlpHBBzKHQKPTXEAiJ5jB3qCx
QObFPEHQb6nBaJb/QKvRNUHTtqTBHdSEQKNKpD8DyqLBddK3QCzeW8Db/5vB3HGiQNNT3UAG4o3B
0JqKQG1UgMBZE5rBPYrQQH44MUH4saHBOtSIQA7ttUCgf4/BG2v4QMLiPUDfWJDB+QbcQHNE4z+u
iH/Blg/mQHGJTsDNVbDBs91rQN6Og0AAZaHBlyBtQE7fisAV/6PBTUXUQCU+H0De2YnBxfTHQO2H
3EC+rrLB8R2uQGvluECuPKLBZ7/XQDopFUFRh7LBhlW1QD5Xgj8c9bTBDXHfQPSUdr/ewbrBj3qL
QFg9kb+q/ZjBU5m3QL/+F0HN/5DBSbqZQBmIgj/ibY3BU0rIQPCNGT8gKJXBtIjEQA28lEDFfoLB
6/OWQDOBY0CIFYLBCIu8QJ1PJECb4aDB7LO+QP6Tl0B/bZbBiAxaQG/eRUDZA5PBZB+4QJcRTkGA
TKnBCVu2QDGfNkG/mLHBBmiQQPzXOUGW7KbBFKACQUEwR0EQnKTB1XYKQVb/LUEe6Z7B6gsDQVSK
L0HNxazBV0tyQE457D+DxKnBX+lSQBQxdD/m7J3B4N7LQFPDhsB1tp/B77/FQKofScDCQ5TBWgy/
QFcm1UDcLYnBQvCOQFSX9EDpbYnBwyGNQNFancAeI5XBKSRuQLi2UMAp35XB7tbKQNJTN0HckJnB
VcdqQH2dukB8vpXBy4jjQDLCe8BnS6vB4FhLQBGym0DGMp/BTKc1QKkflsAJq6LB9DQAQXgGBUG4
mZfB3knmQHDn9kBkv4/BVFbuQKgMDEE/VKHB4JyJQF6kk79mVJ3BvbieQHrUF8DKcJ/Bc7SuQAgr
7b0bWKzB1QOoQFxiAEEsRJvBci6SQAC3krzhvqPB7/S5QGVs8kAknZHB7+rBQB+LCUFONaPBl8DC
QGAkq78bsq7BoPi7QKpeHcCUAqjBAGe3QDydwz9mf5LBwEq4QD9rf0D4kIfB8cOhQIbVEUDU6ZvB
qUWlQNpdk0C405HBWh6KQFQ+ZUD9UpjBOJPAQEvIAkElArfBT6+yQH4LKEGNva/ByF1/QKZRqz+h
E6HBGkfhQKSfsr8KFrjBFwydQKLT3ECYnInB6jIHQXfje7/0jLTBdVmtQCnrD0G5wa3B0CGIQCoI
t0BSrI7BPxP7QLycRkDuIZLBXdHjQHwP9T94/oDBUbXRQIiNZ8CmvanBvt91QKfbh0B9u6HBK0IH
Qb45uT5Kt7DB0THZQNMYJ0A+/IrBlCIRQVb7BkEPK5bBuB/0QCu460AiV4jBLjEBQdRXE0EzWafB
MOZlQOkZi78j1JbBpICYQOwwT8CygZrBolO1QLTeQD+YMrHBkwCGQH6t/UCvlpzB73GeQBMNkD/A
MY3BlbDKQK5cMz8pt5XBD4vLQO/ul0DsXoPBZjSeQFqzaUCfUYLBAxW6QHJCIkCJ76HBsku/QIOV
n0Ck55bBenNdQIczUkAtVpPBy2qxQB6OB0Frlb7B5jjjQCbABUGtd7fBidO6QGJP40CwlLXBv5+j
QDJZLEHNZbfBU06jQLwEMUEcOKnB8/LUQGMJLEGRBbDBMIRnQIbn5j+0eKjBkAlKQAtzmj/wbZvB
4yziQIMAG8AmPrvBpxzWQMa3Nb8vYL7BoQywQH5D0kDYsILB0l6EQE6K80Cz8IbBTZgMQY3V07/k
Hq7BACoSQa9BiL9dZ7vBdOyKQAlcDEGYTq3BBwZyQCUgwUC3QZXBMPvjQAj6YMA9wq/B69JYQPJd
oUCfwZ/BB1QVQUmhGT8rkK7Bafz5QODrA0F+Oo3BlOfaQP7I7UA7VIjBj9juQDHmEEEYAZbBdMvF
QAA61jsZGbLBtPHXQLrco7+777LB0iOVQODUUb/uT6TBd1+lQGvFA0HwBpXBM6SkQGCoeT6sqqrB
3oewQFCA7UB4O4zBP27EQD8NEUHK6JnBf9mnQNThBsA46aTBh/3JQM18FMDDI6zBQJjAQHzOxz9i
VJfBKfC0QBrHbUCZzojBOcusQMihHkC7CaDBKoeiQCapj0DFd5LBNI6NQFCgYUAq1prBFmaSQENN
LUGOYKHBQ56wQAtjEEENY63BvpCTQMik0z9CuKjB00mbQOg3T8CsNZ3BbjWPQDaQ0ED3LofBqDFi
QLWRP8BDFpfBYFm5QMvIHkFXnqPBaOyAQCxqrkAdvY7BqpL9QJy7U0BV85LBmWDmQPwQ1D/GgYTB
fYPfQE8tYMC6DazB0bt2QA5FikAsLKPBdmJAQCM3h8B5QpPB99TbQDDpIkAkeo3B7zYNQXr2A0FP
QIrB+X3jQGL/2UAclIHBZG0DQb/JGkH2xJnBGDvRQL77Tj8MIbfB5pjwQJxDvL/Zy7jBy1l1QI/w
Jb9y7Z7BtP2EQG2ZA0FuC5jBgvumQHzmez+DcJPBRH3XQPrpXj+xGJvBVhXEQBR4jUDON4PBofya
QIBuS0CxsYTBC8TGQLOiQUAXDqTBoZW8QDhaoUDSZZbBVhxoQKnWPUBIvZbBqU6LQMDzNkEGhajB
2/hsQPhVI0ELZp/Bf6SZQDb2N0H4nJrB7amoQGdoGkGwV7TBIE7NQLbUBkFYK6/BkaeVQHGjBUEF
n6vB8giVQBQrDUBBUrDBYxpkQG0oyT8dHKbBE92XQINEhcAK36HBxyW1QGj4VsCAUZfBfwydQL1v
wUDFB4DB67RmQHb440DO24TBMpVuQPnZFMAGRJDBwHkzQLx6IcBffZzBkvXUQGsPKUEldqXB5nRp
QDzKvEAFNJXBfFnSQOQRg8DmHKfBor5QQDa3nkCgKKDB/IgMQGYAgsC5go/BDozzQM3SB0FYE5DB
skjZQMIF9EAHBorB+9PiQGpWEkHYJ5nBQvPHQAB0hbz7+7HB9yvZQNGWqL8Gn7LBZciVQGI7Sb8r
UqTBCaudQHVwAUHgEJbBSFGmQMhVgj6Nw6rBQC6uQIDH7UCVDo3B+qC3QMwQD0GtL5zBN6SnQLOM
BcCrsqTBA8XJQAOxFcBN2KvBjArBQOJbxj+/YZfByym1QGtZa0D+yojBB3SuQPMWH0DkI6DBbm6j
QMYHj0CsZ5LBnvqOQP0yYkBEDpvBL4q7QKQfEUG5N7DB2cGmQMviMUEebaXBPQiWQALQ1j9FEKnB
7hiaQElyTMCN45zByhSRQOSZz0C/DYfBZ3tgQCA2OsC7vpbBLYWkQJFXGUH6IabBfMuBQEjorEBD
W47Bm17+QIOgUEDsfpLBtcLkQJZAzT+OUYTBKbHdQLIdY8DNwKvBWm58QCRni0Dia6PB1aY9QDD+
g8BwtJLB2bzbQOVRIEAOT43BaDoKQV9aCkGVwo3BkxHmQC6740BBG4PBsPj2QOngHEEwy53BJnXU
QB5PRT/aAbfBAT3yQMEsxL9YULjBWFx2QO4jFr+yCp/BHkh5QH4X/kC9T5jBLM+mQBvCej+ysJPB
m/fXQFSXWj/7EZvBNjfEQPfpi0CMGoPBh9CaQCtASUDJzoTB4QTJQOH2QUDi7KPB65G9QFVfoUCc
G5bBY3ppQGOdPkBfO5fBvHWtQIyoGEFbWbfBLb3dQNQuFUFDv6/Bs+C3QFZO/0AZw7DBe8eYQJfu
OEGZsazBXryUQKFdN0GNYZ7BqlzIQJ/qNkEnsqTBNEaZQOBcDkCwqLDB8RRoQIv6zz9K0abBhc2V
QMz1g8A8eaHBJeqzQE4lVcC6AZfBib+iQHpHwUBNVoDBcshqQIJ54UB79oPB7/htQF+oDsBBCpDB
hv4xQOcqHMDKLpzBBaaCQE2sFEF9qqbBoetnQAfEukAKr5TBD7DPQL/9g8C706bB8jNWQITin0CD
eKDBaC4KQI8xfMD7747B

>  <OMEGA_E>  (5) 
0MDvPih68D6gke8+ekUNP5hYEz8scGI/JN5PPyjART9U0j8/

>  <OMEGA_NBR>  (5) 
     59716

$$$$
50172246
     RDKit          3D

 73 76  0  0  1  0  0  0  0  0999 V2000
    4.5753   -2.6512  -16.7768 C   0  0  0  0  0  0  0  0  0  0  0  0
    8.0642    8.1099  -18.4682 C   0  0  0  0  0  0  0  0  0  0  0  0
    5.9168   -2.9075  -16.4275 C   0  0  0  0  0  0  0  0  0  0  0  0
    4.1066   -3.0034  -18.0564 C   0  0  0  0  0  0  0  0  0  0  0  0
    7.1037    7.4933  -17.6455 C   0  0  0  0  0  0  0  0  0  0  0  0
    7.6795    8.6822  -19.6953 C   0  0  0  0  0  0  0  0  0  0  0  0
    6.2494    0.3133  -21.8035 C   0  0  0  0  0  0  0  0  0  0  0  0
    6.9482   -0.8615  -22.1322 C   0  0  0  0  0  0  0  0  0  0  0  0
    6.3012   -3.9174  -18.6103 C   0  0  0  0  0  0  0  0  0  0  0  0
    4.5919   -1.0138  -20.6049 C   0  0  0  0  0  0  0  0  0  0  0  0
    5.3671    8.0145  -19.2827 C   0  0  0  0  0  0  0  0  0  0  0  0
    6.7651   -3.5864  -17.3307 C   0  0  0  0  0  0  0  0  0  0  0  0
    4.9927   -3.5866  -18.9922 C   0  0  0  0  0  0  0  0  0  0  0  0
    5.0822    0.2355  -21.0192 C   0  0  0  0  0  0  0  0  0  0  0  0
    5.7518    7.4517  -18.0460 C   0  0  0  0  0  0  0  0  0  0  0  0
    6.3302    8.6408  -20.1102 C   0  0  0  0  0  0  0  0  0  0  0  0
    5.2576   -2.2012  -20.9655 C   0  0  0  0  0  0  0  0  0  0  0  0
    6.4742   -2.1163  -21.6942 C   0  0  0  0  0  0  0  0  0  0  0  0
    5.7827    1.4647  -18.4507 C   0  0  0  0  0  0  0  0  0  0  0  0
    5.6267    3.8305  -16.8782 C   0  0  0  0  0  0  0  0  0  0  0  0
    5.2309    2.3383  -19.6117 C   0  0  2  0  0  0  0  0  0  0  0  0
    5.0951    4.5011  -18.1644 C   0  0  1  0  0  0  0  0  0  0  0  0
    4.3401    3.4968  -19.0737 C   0  0  1  0  0  0  0  0  0  0  0  0
    8.2060   -3.8657  -16.9845 C   0  0  0  0  0  0  0  0  0  0  0  0
    4.8116   10.2705  -21.3130 C   0  0  0  0  0  0  0  0  0  0  0  0
    5.5241    8.1111  -22.4303 C   0  0  0  0  0  0  0  0  0  0  0  0
    4.6907   -3.5289  -20.4642 C   0  0  0  0  0  0  0  0  0  0  0  0
    4.3698    1.4884  -20.5835 C   0  0  0  0  0  0  0  0  0  0  0  0
    4.7203    6.7821  -17.1587 C   0  0  0  0  0  0  0  0  0  0  0  0
    5.9446    9.2334  -21.4617 C   0  0  0  0  0  0  0  0  0  0  0  0
    4.1341    5.5882  -17.8182 N   0  0  0  0  0  0  0  0  0  0  0  0
    7.8425    3.0782  -18.0943 O   0  0  0  0  0  0  0  0  0  0  0  0
    6.9918    1.7071  -16.1174 O   0  0  0  0  0  0  0  0  0  0  0  0
    7.2056   -3.2266  -21.9769 O   0  0  0  0  0  0  0  0  0  0  0  0
    3.8127    4.2245  -20.1866 O   0  0  0  0  0  0  0  0  0  0  0  0
    6.7308    2.4943  -17.3292 S   0  0  0  0  0  0  0  0  0  0  0  0
    3.9095   -2.1861  -16.0650 H   0  0  0  0  0  0  0  0  0  0  0  0
    9.0980    8.1441  -18.1578 H   0  0  0  0  0  0  0  0  0  0  0  0
    6.2962   -2.5849  -15.4692 H   0  0  0  0  0  0  0  0  0  0  0  0
    3.0745   -2.8291  -18.3228 H   0  0  0  0  0  0  0  0  0  0  0  0
    7.4019    7.0514  -16.7063 H   0  0  0  0  0  0  0  0  0  0  0  0
    8.4202    9.1556  -20.3228 H   0  0  0  0  0  0  0  0  0  0  0  0
    6.6062    1.2716  -22.1510 H   0  0  0  0  0  0  0  0  0  0  0  0
    7.8510   -0.8033  -22.7220 H   0  0  0  0  0  0  0  0  0  0  0  0
    6.9523   -4.4282  -19.3042 H   0  0  0  0  0  0  0  0  0  0  0  0
    3.6959   -1.0644  -20.0041 H   0  0  0  0  0  0  0  0  0  0  0  0
    4.3353    7.9670  -19.5983 H   0  0  0  0  0  0  0  0  0  0  0  0
    4.9444    1.0050  -17.9068 H   0  0  0  0  0  0  0  0  0  0  0  0
    6.4304    0.6758  -18.8608 H   0  0  0  0  0  0  0  0  0  0  0  0
    6.1718    4.5712  -16.2746 H   0  0  0  0  0  0  0  0  0  0  0  0
    4.7837    3.4312  -16.2952 H   0  0  0  0  0  0  0  0  0  0  0  0
    6.0770    2.7686  -20.1675 H   0  0  0  0  0  0  0  0  0  0  0  0
    5.9430    4.9213  -18.7251 H   0  0  0  0  0  0  0  0  0  0  0  0
    3.5175    3.0557  -18.4917 H   0  0  0  0  0  0  0  0  0  0  0  0
    8.2863   -4.8601  -16.5211 H   0  0  0  0  0  0  0  0  0  0  0  0
    8.8150   -3.8377  -17.9001 H   0  0  0  0  0  0  0  0  0  0  0  0
    8.5682   -3.1026  -16.2798 H   0  0  0  0  0  0  0  0  0  0  0  0
    4.5559   10.6792  -22.3017 H   0  0  0  0  0  0  0  0  0  0  0  0
    3.9259    9.7857  -20.8766 H   0  0  0  0  0  0  0  0  0  0  0  0
    5.1452   11.0859  -20.6544 H   0  0  0  0  0  0  0  0  0  0  0  0
    5.2481    8.5482  -23.4013 H   0  0  0  0  0  0  0  0  0  0  0  0
    6.3625    7.4125  -22.5680 H   0  0  0  0  0  0  0  0  0  0  0  0
    4.6614    7.5709  -22.0131 H   0  0  0  0  0  0  0  0  0  0  0  0
    5.1719   -4.3698  -20.9852 H   0  0  0  0  0  0  0  0  0  0  0  0
    3.6042   -3.5670  -20.6320 H   0  0  0  0  0  0  0  0  0  0  0  0
    4.1373    2.0923  -21.4730 H   0  0  0  0  0  0  0  0  0  0  0  0
    3.4349    1.2073  -20.0765 H   0  0  0  0  0  0  0  0  0  0  0  0
    5.2024    6.4722  -16.2198 H   0  0  0  0  0  0  0  0  0  0  0  0
    3.9168    7.5004  -16.9385 H   0  0  0  0  0  0  0  0  0  0  0  0
    6.8242    9.7418  -21.8834 H   0  0  0  0  0  0  0  0  0  0  0  0
    3.6941    5.8898  -18.6641 H   0  0  0  0  0  0  0  0  0  0  0  0
    6.7686   -3.9926  -21.6236 H   0  0  0  0  0  0  0  0  0  0  0  0
    3.2667    4.9349  -19.8709 H   0  0  0  0  0  0  0  0  0  0  0  0
  1  3  2  0
  1  4  1  0
  2  5  2  0
  2  6  1  0
  3 12  1  0
  4 13  2  0
  5 15  1  0
  6 16  2  0
  7  8  2  0
  7 14  1  0
  8 18  1  0
  9 12  2  0
  9 13  1  0
 10 14  2  0
 10 17  1  0
 11 15  2  0
 11 16  1  0
 12 24  1  0
 13 27  1  0
 14 28  1  0
 15 29  1  0
 16 30  1  0
 17 18  2  0
 17 27  1  0
 18 34  1  0
 19 21  1  0
 19 36  1  0
 20 22  1  0
 20 36  1  0
 21 23  1  0
 21 28  1  0
 22 23  1  0
 22 31  1  0
 23 35  1  0
 25 30  1  0
 26 30  1  0
 29 31  1  0
 32 36  2  0
 33 36  2  0
  1 37  1  0
  2 38  1  0
  3 39  1  0
  4 40  1  0
  5 41  1  0
  6 42  1  0
  7 43  1  0
  8 44  1  0
  9 45  1  0
 10 46  1  0
 11 47  1  0
 19 48  1  0
 19 49  1  0
 20 50  1  0
 20 51  1  0
 21 52  1  6
 22 53  1  6
 23 54  1  1
 24 55  1  0
 24 56  1  0
 24 57  1  0
 25 58  1  0
 25 59  1  0
 25 60  1  0
 26 61  1  0
 26 62  1  0
 26 63  1  0
 27 64  1  0
 27 65  1  0
 28 66  1  0
 28 67  1  0
 29 68  1  0
 29 69  1  0
 30 70  1  0
 31 71  1  0
 34 72  1  0
 35 73  1  0
M  END
>  <OMEGA_C>  (6) 
EmmSQGCtKcD2NobB0QYBQTXCAUH3vpPBjVa9QBoVOsB6a4PB/2iDQCk4QMCWc5DBsVHjQH/J70AO
Ko3Bz771QHPqCkH2j53BBvvHQPppoD6Gba7BQlfeQEiKXL+rDrHBZKPJQJe2esDV4ZTBPfGSQNTF
gb/a1qTBNL+rQDc7AEERQ5rBYnvYQCWIZcA3pYrBWMSfQJ2LZcD975fBOqGiQO4ucT5CJ6jBqg64
QAt07kAxXpDBMpHKQIdACkGw4aDBcD6oQB/gDMBuuafByizPQM5wB8DJja3BIQy5QLJ7uz8Fm5PB
BQ60QCMndUCNBofBZ2OnQE2nFUDY5JzB+gqjQD8JkECZUJHBVOKKQHjLX0DjlpjB9UsDQdhmd8A5
4IfB3PiZQMxTJEEbgarBI8WwQOzGAUFOcbPBBhqWQD3aYcChtqPBRdWLQIaCvj8Kq6TBYwyXQEMH
2UD3RInBzjm+QAi8E0GhsavBWEqEQIrSskCni47Bj/X6QJ8BRUA5wZDBCL3fQECC2j+G8IDBBpTm
QDWBTsDE0K/B4wJ0QNAuh0AefqHBT2LXQNahH0A6oorB2zR6QCXpC8AahYDBgpERQUdOAkE3Q5HB
snrJQKBuJcDDgXfBNMVEQEoQNcAFlZLBStzsQFyl4UBzpoXBBrkGQVZ9EkEllaLBG2bTQGDDoj9G
NbHBQDv7QPOmTb+qxrXBanneQCC0jcDobprBKopsQMw8iL9WCKDBy7qKQIjx/kBFyZzBKTieQEyj
gD81QY/BkMXNQCYCLT/44pbBPn/FQPxGkkBhMoLB5xOZQJCZW0CTXILB+3bCQFUxMUAUV6HBPi2+
QFJ7nUAOzZXBRh9hQNSPQ0Dv7pPBxZQEQbKFm8BLK4TBYwoNQUGcdcBlM4/BUxcJQSORRsD8PILB
GMqRQB3eKkH1abLBHUJ7QBiSHEFGA6fB1KWkQLdfMUE1PKXBLPCnQJbFCEHFNbvBvZnLQNcy7UAu
i7TBhiqVQM5E8kDEGrDBLIClQDHVi8Cg4afBp6tmQHtKZMBlDqXBsGSEQKHoBUCxyKvBktVbQLCJ
mj+8nKDBNHqmQGccz0ApwoHBmax6QJ0D8EAegofBil/aQGneG0FEEa/BymxsQDl5vED/T5XBbpjY
QPmGf8Ak/azBtBFRQO7qnUCY957BrlOuQMiSKsB/yYTBJ4wBQT/6AEEiCZPBXoiDQB59K8A5PIHB
GJW4QHjGScB4A4/BDhrjQDXH7kBNvIzBVWn4QJmHCkGW4JzBfBfBQCDkeT5S9K3Bse3YQEBcYL/H
JrHB7DFaQGqUasDWJ5LBG32TQKCpmL+9DKPBmY2tQM6zAEFMMZrB4ElGQAhET8DZtofB6qKXQI7q
ZcDU4pXBn5meQKCxuj0P0qbBiUC4QKmP7kDzRpDB1ZjNQK2UCkFhf6DBkeSrQKoAFcD+FqbB57bO
QFr9CcDgNa3BMMu3QE7KuT8avpLB+ruzQC6IeEBMB4fB2g+kQGT1D0DzLZzBCNShQOcJkEDFcZHB
/L2IQKA2XUA/NJjBMrbVPxhBU8D6voPBsVCeQCbkJEE/cqrBN3q3QIPNAkGTbLPB96+gQHr2bcCT
saHBFLuGQJQtqD+x7qLBRfGVQNCL2UA5gYnBORTDQNh9FEGLV6vBCWqDQGGBs0A+7o7BYY/5QGpu
RkAHDJHBg+HgQKFx5z9Xj4DBPQznQFCdTcBrU7DBAX9vQANAhECdWKHB3wDXQFSMIkDYcIrBODvH
QLHmEcCXTX/BNfMRQYYCAUFJUZDBq/d2QF64EMA/DnPBQojZQHM1TMAsmpHBiFzrQIw04ECiLYXB
1osIQYTcEUEGsKHB9TjJQIainD9G+LDBIEHzQAaYQb97qrbBTWEoQMKJgcCqTZfBQYBwQCD3p7+R
0Z3B1taMQCxfAEFF+ZzB7vKdQKCtgD+p843Bt23MQGBzJz8a7ZXBEWTFQNLDlEDTgYLBmTWZQLsN
YEBuHoLBRgW+QMIUKEAcTaHBsJW8QGRznEBKP5bBEeJcQKoRRECMRZPBBASTP82VF8Dv2YXBrOyT
P4jkhMBCf4fBAkbVPyxQW8D+AXbB85WXQMSzK0FhYrLBA3aBQEbiHEFmYqfB77GnQHTGMUHK7aTB
xPKvQAYVCkFANrvBYrrSQGSe70CDU7TBN3mbQK3D80DPgLDBJb+7QDbqjMBh9qLBozeEQJZzg8AE
06XBC3t1QAys7z9O5anB6SpXQJuZfT+Z9p3BIB6kQId4z0CV2oHBwZJ4QMne8ED1/IfBM6/fQBzh
HEENS67B7t9sQCNXvUBL0ZXBbI7cQJgzgMDhEq3BXPdNQJPrm0AtEp/BaWmqQJTQJsDeEYXBIG39
QFx9A0EVypTBbqJ+QO04J8Dvv4HBZIO1QAMsR8CnLo/Bp/bhQAh48kCWc43ByxvtQGdOC0F8kJ7B
5STCQG/Zgz6lFK7BM+/ZQKGUX7+4ELHBOpRUQJstaMCQq5LB69eSQO4PlL8/cKPBv+KlQFPn/UBw
l5nBoPE+QJS9S8BbVYjB9BuVQGO6Y8ArMJbBiL2eQPiY+T21NKfBjwK2QC1K7kCU24/BXTLBQAWu
CEG7EKHBcSWrQHdpE8BFSabBa7/OQFtzCcBeLq3Bmva2QPZKuD9TC5PBmFK0QFIidUCx9YbBQCKk
QIVREUDUaZzBdiSiQCSaj0DlJ5HBdQSJQG+JXkDnR5jBTKrFP6hFT8BMnYTBmT7HQCA+BkFvIrXB
r0WuQM6YKEGbVqzB7AmfQKcZbMCB8KHB8hmHQBIRrj+8d6PBI6iXQMyc10C5XojBv2iuQB8IEEFy
rqvBffODQJdBskAU7I3BTpz5QHr3QkD5DpHB/NjfQPCd3T+NxYDBGdbmQIzZTcClJrDB7ONxQCUs
hkAAVqHBMKrWQJAuH0DgkorBXOPCQEmlDcArsH/BmnsPQetcBUFv7ZLBiDxtQH1+C8C7R3TB6q3W
QA8tSsAClZHBUH3uQIkD5kB+BobB5w0BQfZLE0G1JKTBVgTLQIDCnT8CELHBbPv0QC/dQ7+WX7bB
D6ojQFivgMBW5pfBcS9uQPK4ob80XJ7B2yyEQKLq+kDFV5vBb6WcQAV5gD8TW47BKxbLQPQxIj8g
SpbBZYTGQP5vkkC3XILBfdWZQOGZXEDKCoLBqJC+QEfkKUDdWKHB15+8QGU3nUBS2ZXBAW9cQNsD
RUAXjZPBrsuDP7PVE8Aw6obB8iyFP18ag8CaXIjB7hrCP0JdVsBduXfBYiO5QJLDC0GptbzBgu7o
QFlIC0H+urTB3GjFQKJf6UCotrTBsZ2gQP2iLUE0DLTB8NiaQDMlL0E7xaXBkkLPQIWWLkEIqqvB
buu5QFxSjMDNEaPBLMCCQKMugsB1NabBq/h4QOkq9z9EgarBOhxWQGmdhj+XwZ7BFFqpQHlkzEB9
TIHBVbF8QHXn7UDt2YXBnBSNQLZxCkG3I6zBlOpqQEoKvUCHhpTBJqjbQCkkgMDC9KzBI7FQQKTO
nUDC9p7BXU0uQAX0X8BmR4rBj50AQWfaAkH4Z5LB5iFwQCwEQcBmmoPBWIpBQE2jd8CQ45TB117h
QAUN8UB/XIzBDsj2QLKBDEGnPJzBryvFQMJETj5VMK3BANbbQG8icr8vTbDBqc+sQCJvYcBaXJHB
1eaRQP+nmb8Sm6PBCm6sQAZLAUFkD5rBZfGiQCG5QcChM4fBDKWLQIfkdMCSf5jBcpagQFiToz2u
r6bBEty2QK6h70ClIpDBAlrMQC3jC0GYHaDB/PinQBmUF8DU8qbBubPNQLJTDsBSJK3Bcu24QNNm
vD/5xZLB51+zQEKHeUAqDIfBEK2lQEoQEUD0R5zBx/ShQNCFkEBQhJHBwrmJQPvWXUBCapjBlUjF
QJPjEcBRPIHBCRycQMWKJUFYOKrBQvq4QHQ9BEHPPrPBlwWWQN4jccDrQKTBTvqIQPySqT/TIKPB
TZGUQOuw2UDkh4nB/TjCQCTnFUEx9qrBGeuCQE2Is0CxFY/B3hT6QAzFSEA5yZDBbKXgQGud6j/V
bYDBlrbkQB7AU8AaQbDBJmByQFF/hEDVnqHBPD7XQLUyJEBxVYrBvmHbP+9zZcCZSYfBG+EQQf9f
A0Gpf4/BPgZhQDPEKMC6eHfBnBgPQGTihcCdO5rBBXnpQEJC4kDs0YTBFq0HQTJvFEF/16DB9MfP
QOSllj99x6/BR0f4QCsxWb+xJbXBGcHNQO7dasD3sJPB81prQHAxpb8FrJ7BxgeMQDB1AEG1CZ3B
Ad2eQIldgj8KGo7Bn/vNQLogLj/g35XBC4bEQB9dlUBjcILBE6SYQPZ8YEAbQYLBD9y/QD2ZKUCy
TKHBzN+8QAhdnUDrMJbByVleQNQfREAwnZPBnP3VQBX6PcDzlXfBTEzcQCfO7b/2+YbBF6i2QL+d
u79LKHnBj7qVQBBwLEFoKLLBZCp/QBzkHEE3aqfBQ9mjQKxxMkFZjqTBaLexQHmYC0H5B7vBgTLV
QE6t80BcCLTBXWudQPRW9UDKlbDBDg2uQLkXkcDRMabB7KJxQAHOfMD18ajBeDt8QBe17z9lQqrB
TylaQL4hgz9gVJ7BnYuiQPCRz0Bo3IHBct90QMGB8EDNCYjBp3PeQK/vHkG+pq3Bfo9sQH9ZvUAz
A5bBMZjXQO0eg8Cek63B0R9QQL4AnEBMaJ/BZcwgQGrKXcD4bYvB0vz8QKVuA0E6wJTBPz5eQCR3
PsAMKITBmAs6QCYedMBT45XBg3nhQBBa8kCabI3BD5nsQCaOC0EhdZ7Bz8vEQPESgD70Y63BSwbc
QJQdZb8ISLDBC6KnQKAaWcAkKZHB8KWQQJaBk7+hIaTBE0OlQMza/kDzdJnBANSaQHBlPMCjDYfB
WqmIQEz+bsBqzpjBnHqfQPgRAz4FKKfBwHO1QIGg7kAXzI/BgoHAQD5iCUFC3aDB5YSnQGliFMCf
L6fBRtXNQM8MC8D5JK3Buca2QKuWuT89+5LBGhy0QEkFdkDb9obBeamkQBIhEkBqa5zBszGiQB77
j0DZMpHBfmGJQHlfX0BRY5jB4j+7QPjiDsAPLoDBvAXDQGbbBUE75LTB1BayQL+nKUFZWazBwgiW
QNDobcBeYqTB9f6HQL4isD/ok6PB0QuXQBm/10DcX4jBAZKtQL86EUEtX6vB5LiDQKduskC3Ao7B
BKT5QG+xQkC63ZDBieTeQFqb3j8MnYDB+m/lQGxTUMAGB7DBqZBzQEuchkBzfqHB8E7WQI2OH0A5
dYrBhKG9P96hZMChAInBt04PQWwSBUEE75LBH4BKQKMIKMAvu3jBJfMKQFyFhMBUpZvBzwLuQEyO
5UAVCYbB5dcAQfpuE0E0DqTB6IvPQB/dnD+/8q/BKfX4QHG+S7+W8LTBnDzJQEBjXsBlEZPBp25n
QGJQn7+sdp/BXImDQMv8+0DiM5vBmh2cQO3lgj/dXI7B+9XKQO0aIz9AJZbBWVbGQM7hkkAUYILB
m3aZQFn2XUA4EILBRXC/QHuTKkDePqHBusO8QJrBnUCn1JXBRqpcQCnzRUAcvZPBJHbKQEYSPcBA
eHXBy8nTQHsG47+ET4XBwSurQKqlub8D9HbBXP20QLKzC0EParzBmpDlQKk9CUHN1LTBYNm9QDr/
6EDgOrTBKDukQC/+LkFD/LPBAxyhQDNqMUEnsKXBQSrUQDsILkHsEazBCByvQGAUj8CYtqXBVId0
QLpqfMCMeqnB8z98QEsQ+T96sKrBV/dWQBspij/l/p7BVJuoQBF+zEAiSYHB9h97QNDf7UDs34XB
+UaLQL5DDUFwd6vBA+lqQHdDvUDIo5TB/TPYQIFsgcANZa3B5itSQE5CnkCBLJ/B

>  <OMEGA_E>  (6) 
yFCJPrjjrT781LQ+KIe3PlAFwj4=

>  <OMEGA_NBR>  (6) 
     65729

$$$$
