50215905
     RDKit          3D

 50 53  0  0  1  0  0  0  0  0999 V2000
    7.2469    4.7206  -23.9254 C   0  0  0  0  0  0  0  0  0  0  0  0
    5.8623    4.7345  -23.6689 C   0  0  0  0  0  0  0  0  0  0  0  0
    8.1042    3.9168  -23.1510 C   0  0  0  0  0  0  0  0  0  0  0  0
    4.7131   -0.6515  -23.0644 C   0  0  0  0  0  0  0  0  0  0  0  0
    5.4965   -1.6915  -22.5376 C   0  0  0  0  0  0  0  0  0  0  0  0
    6.9032   -2.6916  -19.3693 C   0  0  0  0  0  0  0  0  0  0  0  0
    8.0132   -3.2256  -21.4794 C   0  0  0  0  0  0  0  0  0  0  0  0
    5.3350    3.9681  -22.6189 C   0  0  0  0  0  0  0  0  0  0  0  0
    7.5766    3.1245  -22.1213 C   0  0  0  0  0  0  0  0  0  0  0  0
    4.7335    0.6159  -22.4550 C   0  0  0  0  0  0  0  0  0  0  0  0
    7.7837   -3.5252  -18.6829 C   0  0  0  0  0  0  0  0  0  0  0  0
    8.9103   -4.0593  -20.7859 C   0  0  0  0  0  0  0  0  0  0  0  0
    6.2918   -0.1903  -20.7745 C   0  0  0  0  0  0  0  0  0  0  0  0
    7.0375   -2.5129  -20.7559 C   0  0  0  0  0  0  0  0  0  0  0  0
    6.2622   -1.4591  -21.3790 C   0  0  0  0  0  0  0  0  0  0  0  0
    6.1949    3.1744  -21.8196 C   0  0  0  0  0  0  0  0  0  0  0  0
    5.5474    0.8605  -21.3183 C   0  0  0  0  0  0  0  0  0  0  0  0
    8.8224   -4.1912  -19.3807 C   0  0  0  0  0  0  0  0  0  0  0  0
    6.3690    2.4425  -19.4031 C   0  0  0  0  0  0  0  0  0  0  0  0
    4.1627    2.8889  -19.1325 C   0  0  0  0  0  0  0  0  0  0  0  0
    5.6312    2.2654  -20.7442 C   0  0  1  0  0  0  0  0  0  0  0  0
    5.6339    2.9143  -17.0621 C   0  0  0  0  0  0  0  0  0  0  0  0
    9.6827   -5.0486  -17.2917 C   0  0  0  0  0  0  0  0  0  0  0  0
    5.3635    2.5743  -18.4660 N   0  0  0  0  0  0  0  0  0  0  0  0
    4.2620    2.6082  -20.4010 N   0  0  0  0  0  0  0  0  0  0  0  0
    3.0106    3.4582  -18.6258 N   0  0  0  0  0  0  0  0  0  0  0  0
    7.5534    2.6914  -19.1933 O   0  0  0  0  0  0  0  0  0  0  0  0
    9.7823   -4.9535  -18.7355 O   0  0  0  0  0  0  0  0  0  0  0  0
    7.6527    5.3295  -24.7198 H   0  0  0  0  0  0  0  0  0  0  0  0
    5.2061    5.3355  -24.2808 H   0  0  0  0  0  0  0  0  0  0  0  0
    9.1658    3.9102  -23.3493 H   0  0  0  0  0  0  0  0  0  0  0  0
    4.0970   -0.8245  -23.9344 H   0  0  0  0  0  0  0  0  0  0  0  0
    5.5114   -2.6596  -23.0162 H   0  0  0  0  0  0  0  0  0  0  0  0
    6.1158   -2.1818  -18.8340 H   0  0  0  0  0  0  0  0  0  0  0  0
    8.0723   -3.1336  -22.5539 H   0  0  0  0  0  0  0  0  0  0  0  0
    4.2736    3.9830  -22.4197 H   0  0  0  0  0  0  0  0  0  0  0  0
    8.2274    2.4736  -21.5562 H   0  0  0  0  0  0  0  0  0  0  0  0
    4.1234    1.4116  -22.8564 H   0  0  0  0  0  0  0  0  0  0  0  0
    7.6747   -3.6641  -17.6175 H   0  0  0  0  0  0  0  0  0  0  0  0
    9.6700   -4.6011  -21.3297 H   0  0  0  0  0  0  0  0  0  0  0  0
    6.8897   -0.0273  -19.8899 H   0  0  0  0  0  0  0  0  0  0  0  0
    4.6854    2.9640  -16.5071 H   0  0  0  0  0  0  0  0  0  0  0  0
    6.2796    2.1435  -16.6161 H   0  0  0  0  0  0  0  0  0  0  0  0
    6.1394    3.8900  -17.0120 H   0  0  0  0  0  0  0  0  0  0  0  0
   10.4992   -5.6780  -16.9080 H   0  0  0  0  0  0  0  0  0  0  0  0
    9.7574   -4.0430  -16.8521 H   0  0  0  0  0  0  0  0  0  0  0  0
    8.7156   -5.4967  -17.0198 H   0  0  0  0  0  0  0  0  0  0  0  0
    3.5005    2.6264  -21.0490 H   0  0  0  0  0  0  0  0  0  0  0  0
    2.2426    3.6589  -19.2341 H   0  0  0  0  0  0  0  0  0  0  0  0
    2.9445    3.6698  -17.6507 H   0  0  0  0  0  0  0  0  0  0  0  0
  1  2  2  0
  1  3  1  0
  2  8  1  0
  3  9  2  0
  4  5  2  0
  4 10  1  0
  5 15  1  0
  6 11  2  0
  6 14  1  0
  7 12  1  0
  7 14  2  0
  8 16  2  0
  9 16  1  0
 10 17  2  0
 11 18  1  0
 12 18  2  0
 13 15  2  0
 13 17  1  0
 14 15  1  0
 21 16  1  6
 17 21  1  0
 18 28  1  0
 19 21  1  0
 19 24  1  0
 19 27  2  0
 20 24  1  0
 20 25  2  0
 20 26  1  0
 21 25  1  0
 22 24  1  0
 23 28  1  0
  1 29  1  0
  2 30  1  0
  3 31  1  0
  4 32  1  0
  5 33  1  0
  6 34  1  0
  7 35  1  0
  8 36  1  0
  9 37  1  0
 10 38  1  0
 11 39  1  0
 12 40  1  0
 13 41  1  0
 22 42  1  0
 22 43  1  0
 22 44  1  0
 23 45  1  0
 23 46  1  0
 23 47  1  0
 25 48  1  0
 26 49  1  0
 26 50  1  0
M  CHG  1  25   1
M  END
>  <OMEGA_C>  (1) 
fubnQIUPl0A5Z7/BUJi7QCiBl0DZWb3BoaoBQUWtekBENbnBWNGWQO3IJr/Mg7jBNOOvQHCE2L/4
TLTByObcQOlCLMA89JrBCDYAQQZxTsDb1avBCLiqQOz1fUCO87TB1HPyQLr3R0Bi+LDBJHmXQFeu
HT/go7PBSBT5QL6cYcCfdpXByZAOQbrlgcBySabB0FbJQFzYQr4eMqbBDDPhQIvTIMAsDKbBPGTI
QIDDur88CKvBrDzGQCUpS0CSjq7BBISxQFdLXD/si6rBgygNQS4ehsCUC5vBBM/LQHtSHECmOZvB
jDSFQI/jOEBxD5nBaDK0QBz8EEAu9KXB4Ei0QOiDOkAgf4jBUuwaQSaOocByVYrBMKKrQB/BJEB0
upPB7GGIQG/tJkBWNaPBSK1AQLZTXUCeAZXBFLXxQGNALED6i5nBZIQcQSiDnsBb4pXBhOL0QO+K
qkAxwsXBUZimQMm8qkAnP8LB/aYSQUtBekB3y7rBqRqDQEQSU7+feb/BLF2wQDQ2KsBHIbjBjrTD
QJmiC8Duq5bBISgBQdKMSMBSbrTBVsGIQHzpfkCRW7PBb6MDQRVQHkAjc6zBKfODQPKutD/u2bbB
G5f1QGyBasCQ8IzBNrgaQW48k8BGo6rBiHjcQDD937yVHp/BNO+VQAKyPUCRDoTBc/LIQAwvCUCu
7YTB/HXEQIL1eECgGIjBmPwnQf+xtcCLQ4fBYB4cQXpggcAt0YbBMnMLQSrlr8B7KIjBbwhgQJsW
KEBoZKjBc4cPQMUqakBp35nB0nI8QFndakCJNI3BcCrpQJ8Al0BiE7/Bh1oBQQuGcECi4bnBHPC9
QBtZnEAsKbzBkMGYQBfsLb83b7jBJPmxQLr62b+W+7PBbl7+QPPSVMD0WqvBGJLjQL2IIcD2JprB
yg3xQPgAPkDLu7HBsEGsQJ12g0A47rPBFEWYQK0lGD9oqbPBd2sNQVvGhcA+7KXBpsv/QLtpV8C8
xpTB4FLJQJw5Mr5O5qXBNFPjQOuFHsB2aKXB7JLJQJaVub+SlKrBiAPGQIAHSkAJka7BgFqxQJlG
Wz9ic6rBRBgOQfM2hsBHm5rBoKfLQIMWHUAvYZvB9BmFQB6HOUCUEpnBQJKzQNfQEECc+qXBuPK0
QOuYPECSn4jB0GAeQbGXncCbDYrBwNGrQD4aJkBYzpPBHM2HQMhBJkBeMqPBaMxAQDJjXkCG/ZTB
YM3xQIgvLEBM8JnBAb0cQTzfoMCMnZXB6sX2QNqXqkDxU8XBTOQRQQ5PaEBjKrzBS2OqQICis0Ck
RMDBrNGFQEvyXr9nf7/BEkGzQE8zK8AIvLfBVkX9QMh4VMCm/bPBLrvNQN+c87//qJXBvi4CQafD
DUDs3K3BlB6LQDiHh0CAsrHBu6mEQOJKsD9aCbfBqeMXQdOOmsBFbKrBLgQAQbXFWMBgI4zBMMTb
QK3tLzxpvp7BYcmWQFokQECyG4TB+7vJQNt2C0CtDoXBvCvFQP4He0DGVIjBZHsqQUZPtMCbIIfB
oxcjQdStecCa2ofBWMwOQc8ipcCFa4bB62leQG1BJkCaUKjBYDEPQLaEakD3z5nBskE9QMDxbEBt
No3BiWvgQHYkm0D7O8DBBXe0QCrjkkCV777BdAn+QCirikD907jBB++4QChEKb+DtrnBQC+zQKwT
4L/O8bLBLMn6QMo+M8DCQajB/j3MQEzHSMBJwpjBAQWmQKzVdEDGMrbBl8/vQH6sY0AuI7DBTka8
QNCNHz8odLXBV4YNQTyzY8BLjKPBg+3sQPy1esB6B5TB4TC1QBC6i76TZKPBFczTQNJpI8DB06LB
mH23QLSzyb9/16fBZorDQOGtU0BHnK7BAt23QIovWj8iT6rBVoYKQeKFgsAJMpnBlsDLQBAjIUCf
ipvBiqmFQHYTSEDKwZnBd4q0QGrHEkBVFabBzKK2QL5jZEBzBYrB9ugvQdlxgsBmvpTBBaauQEak
TEAxNJXByK+HQAwAI0C7KaPBRBFAQPQnZUDgH5XBnGfwQAqhDEAEJpnB6g4bQbX6lsCe5pPBsmnr
QD0drkCp6cbBS8KdQFFan0DWp8TB4uEPQcgXkUBw0LnBwM66QL9hT7/yQcLBNHurQO00LsBhMbbB
+4v/QOJMGcAYLbDByQyuQNuBP8Cst5TBHTyEQG1jaEAcQbXBs2YDQd59SUAelKrBQlLCQO+Suj82
urrBj0EcQRimb8Bmz6fB2kvnQBmkjMDBaIzBZnaxQD0HDb4k35rBlJeaQM8ng0COz4bBLnq8QD5F
KkBcRoXBUtbSQMcwh0BMmInBsdE7QZ42lcB6RpDBIKc0QTmlgMDNNJ3B+gEvQa/oQ8BaY5HBeclc
QIX1E0BJsKfB1nQIQLJeXkD+/ZjBBG5BQMVzgEDl6o3B

>  <OMEGA_E>  (1) 
0J93P+jEdz+KClY/

>  <OMEGA_NBR>  (1) 
     52699

$$$$
50215905
     RDKit          3D

 50 53  0  0  1  0  0  0  0  0999 V2000
    7.2469    4.7206  -23.9254 C   0  0  0  0  0  0  0  0  0  0  0  0
    5.8623    4.7345  -23.6689 C   0  0  0  0  0  0  0  0  0  0  0  0
    8.1042    3.9168  -23.1510 C   0  0  0  0  0  0  0  0  0  0  0  0
    4.7131   -0.6515  -23.0644 C   0  0  0  0  0  0  0  0  0  0  0  0
    5.4965   -1.6915  -22.5376 C   0  0  0  0  0  0  0  0  0  0  0  0
    6.9032   -2.6916  -19.3693 C   0  0  0  0  0  0  0  0  0  0  0  0
    8.0132   -3.2256  -21.4794 C   0  0  0  0  0  0  0  0  0  0  0  0
    5.3350    3.9681  -22.6189 C   0  0  0  0  0  0  0  0  0  0  0  0
    7.5766    3.1245  -22.1213 C   0  0  0  0  0  0  0  0  0  0  0  0
    4.7335    0.6159  -22.4550 C   0  0  0  0  0  0  0  0  0  0  0  0
    7.7837   -3.5252  -18.6829 C   0  0  0  0  0  0  0  0  0  0  0  0
    8.9103   -4.0593  -20.7859 C   0  0  0  0  0  0  0  0  0  0  0  0
    6.2918   -0.1903  -20.7745 C   0  0  0  0  0  0  0  0  0  0  0  0
    7.0375   -2.5129  -20.7559 C   0  0  0  0  0  0  0  0  0  0  0  0
    6.2622   -1.4591  -21.3790 C   0  0  0  0  0  0  0  0  0  0  0  0
    6.1949    3.1744  -21.8196 C   0  0  0  0  0  0  0  0  0  0  0  0
    5.5474    0.8605  -21.3183 C   0  0  0  0  0  0  0  0  0  0  0  0
    8.8224   -4.1912  -19.3807 C   0  0  0  0  0  0  0  0  0  0  0  0
    6.3690    2.4425  -19.4031 C   0  0  0  0  0  0  0  0  0  0  0  0
    4.1627    2.8889  -19.1325 C   0  0  0  0  0  0  0  0  0  0  0  0
    5.6312    2.2654  -20.7442 C   0  0  1  0  0  0  0  0  0  0  0  0
    5.6339    2.9143  -17.0621 C   0  0  0  0  0  0  0  0  0  0  0  0
    9.6827   -5.0486  -17.2917 C   0  0  0  0  0  0  0  0  0  0  0  0
    5.3635    2.5743  -18.4660 N   0  0  0  0  0  0  0  0  0  0  0  0
    4.2620    2.6082  -20.4010 N   0  0  0  0  0  0  0  0  0  0  0  0
    3.0106    3.4582  -18.6258 N   0  0  0  0  0  0  0  0  0  0  0  0
    7.5534    2.6914  -19.1933 O   0  0  0  0  0  0  0  0  0  0  0  0
    9.7823   -4.9535  -18.7355 O   0  0  0  0  0  0  0  0  0  0  0  0
    7.6527    5.3295  -24.7198 H   0  0  0  0  0  0  0  0  0  0  0  0
    5.2061    5.3355  -24.2808 H   0  0  0  0  0  0  0  0  0  0  0  0
    9.1658    3.9102  -23.3493 H   0  0  0  0  0  0  0  0  0  0  0  0
    4.0970   -0.8245  -23.9344 H   0  0  0  0  0  0  0  0  0  0  0  0
    5.5114   -2.6596  -23.0162 H   0  0  0  0  0  0  0  0  0  0  0  0
    6.1158   -2.1818  -18.8340 H   0  0  0  0  0  0  0  0  0  0  0  0
    8.0723   -3.1336  -22.5539 H   0  0  0  0  0  0  0  0  0  0  0  0
    4.2736    3.9830  -22.4197 H   0  0  0  0  0  0  0  0  0  0  0  0
    8.2274    2.4736  -21.5562 H   0  0  0  0  0  0  0  0  0  0  0  0
    4.1234    1.4116  -22.8564 H   0  0  0  0  0  0  0  0  0  0  0  0
    7.6747   -3.6641  -17.6175 H   0  0  0  0  0  0  0  0  0  0  0  0
    9.6700   -4.6011  -21.3297 H   0  0  0  0  0  0  0  0  0  0  0  0
    6.8897   -0.0273  -19.8899 H   0  0  0  0  0  0  0  0  0  0  0  0
    4.6854    2.9640  -16.5071 H   0  0  0  0  0  0  0  0  0  0  0  0
    6.2796    2.1435  -16.6161 H   0  0  0  0  0  0  0  0  0  0  0  0
    6.1394    3.8900  -17.0120 H   0  0  0  0  0  0  0  0  0  0  0  0
   10.4992   -5.6780  -16.9080 H   0  0  0  0  0  0  0  0  0  0  0  0
    9.7574   -4.0430  -16.8521 H   0  0  0  0  0  0  0  0  0  0  0  0
    8.7156   -5.4967  -17.0198 H   0  0  0  0  0  0  0  0  0  0  0  0
    3.5005    2.6264  -21.0490 H   0  0  0  0  0  0  0  0  0  0  0  0
    2.2426    3.6589  -19.2341 H   0  0  0  0  0  0  0  0  0  0  0  0
    2.9445    3.6698  -17.6507 H   0  0  0  0  0  0  0  0  0  0  0  0
  1  2  2  0
  1  3  1  0
  2  8  1  0
  3  9  2  0
  4  5  2  0
  4 10  1  0
  5 15  1  0
  6 11  2  0
  6 14  1  0
  7 12  1  0
  7 14  2  0
  8 16  2  0
  9 16  1  0
 10 17  2  0
 11 18  1  0
 12 18  2  0
 13 15  2  0
 13 17  1  0
 14 15  1  0
 21 16  1  6
 17 21  1  0
 18 28  1  0
 19 21  1  0
 19 24  1  0
 19 27  2  0
 20 24  1  0
 20 25  2  0
 20 26  1  0
 21 25  1  0
 22 24  1  0
 23 28  1  0
  1 29  1  0
  2 30  1  0
  3 31  1  0
  4 32  1  0
  5 33  1  0
  6 34  1  0
  7 35  1  0
  8 36  1  0
  9 37  1  0
 10 38  1  0
 11 39  1  0
 12 40  1  0
 13 41  1  0
 22 42  1  0
 22 43  1  0
 22 44  1  0
 23 45  1  0
 23 46  1  0
 23 47  1  0
 25 48  1  0
 26 49  1  0
 26 50  1  0
M  CHG  1  25   1
M  END
>  <OMEGA_C>  (2) 
fubnQIUPl0A5Z7/BUJi7QCiBl0DZWb3BoaoBQUWtekBENbnBWNGWQO3IJr/Mg7jBNOOvQHCE2L/4
TLTByObcQOlCLMA89JrBCDYAQQZxTsDb1avBCLiqQOz1fUCO87TB1HPyQLr3R0Bi+LDBJHmXQFeu
HT/go7PBSBT5QL6cYcCfdpXByZAOQbrlgcBySabB0FbJQFzYQr4eMqbBDDPhQIvTIMAsDKbBPGTI
QIDDur88CKvBrDzGQCUpS0CSjq7BBISxQFdLXD/si6rBgygNQS4ehsCUC5vBBM/LQHtSHECmOZvB
jDSFQI/jOEBxD5nBaDK0QBz8EEAu9KXB4Ei0QOiDOkAgf4jBUuwaQSaOocByVYrBMKKrQB/BJEB0
upPB7GGIQG/tJkBWNaPBSK1AQLZTXUCeAZXBFLXxQGNALED6i5nBZIQcQSiDnsBb4pXBhOL0QO+K
qkAxwsXBUZimQMm8qkAnP8LB/aYSQUtBekB3y7rBqRqDQEQSU7+feb/BLF2wQDQ2KsBHIbjBjrTD
QJmiC8Duq5bBISgBQdKMSMBSbrTBVsGIQHzpfkCRW7PBb6MDQRVQHkAjc6zBKfODQPKutD/u2bbB
G5f1QGyBasCQ8IzBNrgaQW48k8BGo6rBiHjcQDD937yVHp/BNO+VQAKyPUCRDoTBc/LIQAwvCUCu
7YTB/HXEQIL1eECgGIjBmPwnQf+xtcCLQ4fBYB4cQXpggcAt0YbBMnMLQSrlr8B7KIjBbwhgQJsW
KEBoZKjBc4cPQMUqakBp35nB0nI8QFndakCJNI3BcCrpQJ8Al0BiE7/Bh1oBQQuGcECi4bnBHPC9
QBtZnEAsKbzBkMGYQBfsLb83b7jBJPmxQLr62b+W+7PBbl7+QPPSVMD0WqvBGJLjQL2IIcD2JprB
yg3xQPgAPkDLu7HBsEGsQJ12g0A47rPBFEWYQK0lGD9oqbPBd2sNQVvGhcA+7KXBpsv/QLtpV8C8
xpTB4FLJQJw5Mr5O5qXBNFPjQOuFHsB2aKXB7JLJQJaVub+SlKrBiAPGQIAHSkAJka7BgFqxQJlG
Wz9ic6rBRBgOQfM2hsBHm5rBoKfLQIMWHUAvYZvB9BmFQB6HOUCUEpnBQJKzQNfQEECc+qXBuPK0
QOuYPECSn4jB0GAeQbGXncCbDYrBwNGrQD4aJkBYzpPBHM2HQMhBJkBeMqPBaMxAQDJjXkCG/ZTB
YM3xQIgvLEBM8JnBAb0cQTzfoMCMnZXB6sX2QNqXqkDxU8XBTOQRQQ5PaEBjKrzBS2OqQICis0Ck
RMDBrNGFQEvyXr9nf7/BEkGzQE8zK8AIvLfBVkX9QMh4VMCm/bPBLrvNQN+c87//qJXBvi4CQafD
DUDs3K3BlB6LQDiHh0CAsrHBu6mEQOJKsD9aCbfBqeMXQdOOmsBFbKrBLgQAQbXFWMBgI4zBMMTb
QK3tLzxpvp7BYcmWQFokQECyG4TB+7vJQNt2C0CtDoXBvCvFQP4He0DGVIjBZHsqQUZPtMCbIIfB
oxcjQdStecCa2ofBWMwOQc8ipcCFa4bB62leQG1BJkCaUKjBYDEPQLaEakD3z5nBskE9QMDxbEBt
No3BiWvgQHYkm0D7O8DBBXe0QCrjkkCV777BdAn+QCirikD907jBB++4QChEKb+DtrnBQC+zQKwT
4L/O8bLBLMn6QMo+M8DCQajB/j3MQEzHSMBJwpjBAQWmQKzVdEDGMrbBl8/vQH6sY0AuI7DBTka8
QNCNHz8odLXBV4YNQTyzY8BLjKPBg+3sQPy1esB6B5TB4TC1QBC6i76TZKPBFczTQNJpI8DB06LB
mH23QLSzyb9/16fBZorDQOGtU0BHnK7BAt23QIovWj8iT6rBVoYKQeKFgsAJMpnBlsDLQBAjIUCf
ipvBiqmFQHYTSEDKwZnBd4q0QGrHEkBVFabBzKK2QL5jZEBzBYrB9ugvQdlxgsBmvpTBBaauQEak
TEAxNJXByK+HQAwAI0C7KaPBRBFAQPQnZUDgH5XBnGfwQAqhDEAEJpnB6g4bQbX6lsCe5pPBsmnr
QD0drkCp6cbBS8KdQFFan0DWp8TB4uEPQcgXkUBw0LnBwM66QL9hT7/yQcLBNHurQO00LsBhMbbB
+4v/QOJMGcAYLbDByQyuQNuBP8Cst5TBHTyEQG1jaEAcQbXBs2YDQd59SUAelKrBQlLCQO+Suj82
urrBj0EcQRimb8Bmz6fB2kvnQBmkjMDBaIzBZnaxQD0HDb4k35rBlJeaQM8ng0COz4bBLnq8QD5F
KkBcRoXBUtbSQMcwh0BMmInBsdE7QZ42lcB6RpDBIKc0QTmlgMDNNJ3B+gEvQa/oQ8BaY5HBeclc
QIX1E0BJsKfB1nQIQLJeXkD+/ZjBBG5BQMVzgEDl6o3B

>  <OMEGA_E>  (2) 
0J93P+jEdz+KClY/

>  <OMEGA_NBR>  (2) 
     52699

$$$$
50219791
     RDKit          3D

 42 44  0  0  0  0  0  0  0  0999 V2000
    4.7669   -5.3271  -20.5720 C   0  0  0  0  0  0  0  0  0  0  0  0
    5.7963   -4.5804  -19.9596 C   0  0  0  0  0  0  0  0  0  0  0  0
    3.8731   -4.7027  -21.4630 C   0  0  0  0  0  0  0  0  0  0  0  0
    5.9397   -3.2074  -20.2407 C   0  0  0  0  0  0  0  0  0  0  0  0
    3.9995   -3.3291  -21.7274 C   0  0  0  0  0  0  0  0  0  0  0  0
    3.9782   -0.3830  -21.5270 C   0  0  0  0  0  0  0  0  0  0  0  0
    6.4004   -0.5982  -21.7976 C   0  0  0  0  0  0  0  0  0  0  0  0
    4.0258    0.8999  -22.0745 C   0  0  0  0  0  0  0  0  0  0  0  0
    6.4461    0.6914  -22.3598 C   0  0  0  0  0  0  0  0  0  0  0  0
    5.0305   -2.5770  -21.1145 C   0  0  0  0  0  0  0  0  0  0  0  0
    5.1528   -1.1545  -21.4344 C   0  0  0  0  0  0  0  0  0  0  0  0
    5.2490    1.4253  -22.5300 C   0  0  0  0  0  0  0  0  0  0  0  0
    7.0220    3.4546  -20.0343 C   0  0  0  0  0  0  0  0  0  0  0  0
    5.9031    3.6023  -20.8199 C   0  0  0  0  0  0  0  0  0  0  0  0
    6.8544    3.2512  -18.6000 C   0  0  0  0  0  0  0  0  0  0  0  0
    4.4551    3.3225  -18.9554 C   0  0  0  0  0  0  0  0  0  0  0  0
    5.3464    3.0234  -16.6182 C   0  0  0  0  0  0  0  0  0  0  0  0
    5.2578    2.8066  -23.1488 C   0  0  0  0  0  0  0  0  0  0  0  0
    6.0908    3.7967  -22.3188 C   0  0  0  0  0  0  0  0  0  0  0  0
    4.6117    3.5444  -20.2521 N   0  0  0  0  0  0  0  0  0  0  0  0
    5.5582    3.1584  -18.0804 N   0  0  0  0  0  0  0  0  0  0  0  0
    3.1551    3.2444  -18.4633 N   0  0  0  0  0  0  0  0  0  0  0  0
    7.8505    3.1565  -17.8927 O   0  0  0  0  0  0  0  0  0  0  0  0
    4.6644   -6.3804  -20.3564 H   0  0  0  0  0  0  0  0  0  0  0  0
    6.4762   -5.0632  -19.2734 H   0  0  0  0  0  0  0  0  0  0  0  0
    3.0937   -5.2775  -21.9411 H   0  0  0  0  0  0  0  0  0  0  0  0
    6.7413   -2.6413  -19.7896 H   0  0  0  0  0  0  0  0  0  0  0  0
    3.3078   -2.8449  -22.4008 H   0  0  0  0  0  0  0  0  0  0  0  0
    3.0398   -0.7845  -21.1741 H   0  0  0  0  0  0  0  0  0  0  0  0
    7.3113   -1.1580  -21.6449 H   0  0  0  0  0  0  0  0  0  0  0  0
    3.1238    1.4893  -22.1486 H   0  0  0  0  0  0  0  0  0  0  0  0
    7.3914    1.1188  -22.6600 H   0  0  0  0  0  0  0  0  0  0  0  0
    8.0086    3.4886  -20.4723 H   0  0  0  0  0  0  0  0  0  0  0  0
    4.2684    2.9654  -16.4071 H   0  0  0  0  0  0  0  0  0  0  0  0
    5.8399    2.1082  -16.2593 H   0  0  0  0  0  0  0  0  0  0  0  0
    5.7742    3.8965  -16.1037 H   0  0  0  0  0  0  0  0  0  0  0  0
    5.6855    2.7412  -24.1602 H   0  0  0  0  0  0  0  0  0  0  0  0
    4.2235    3.1757  -23.2113 H   0  0  0  0  0  0  0  0  0  0  0  0
    5.7878    4.8207  -22.5826 H   0  0  0  0  0  0  0  0  0  0  0  0
    7.1540    3.6547  -22.5627 H   0  0  0  0  0  0  0  0  0  0  0  0
    2.5060    3.3763  -19.2126 H   0  0  0  0  0  0  0  0  0  0  0  0
    3.0087    2.3456  -18.0500 H   0  0  0  0  0  0  0  0  0  0  0  0
  1  2  2  0
  1  3  1  0
  2  4  1  0
  3  5  2  0
  4 10  2  0
  5 10  1  0
  6  8  2  0
  6 11  1  0
  7  9  1  0
  7 11  2  0
  8 12  1  0
  9 12  2  0
 10 11  1  0
 12 18  1  0
 13 14  2  0
 13 15  1  0
 14 19  1  0
 14 20  1  0
 15 21  1  0
 15 23  2  0
 16 20  2  0
 16 21  1  0
 16 22  1  0
 17 21  1  0
 18 19  1  0
  1 24  1  0
  2 25  1  0
  3 26  1  0
  4 27  1  0
  5 28  1  0
  6 29  1  0
  7 30  1  0
  8 31  1  0
  9 32  1  0
 13 33  1  0
 17 34  1  0
 17 35  1  0
 17 36  1  0
 18 37  1  0
 18 38  1  0
 19 39  1  0
 19 40  1  0
 22 41  1  0
 22 42  1  0
M  END
>  <OMEGA_C>  (3) 
UoqYQFd3qsBek6TBJXu5QGSSksBbrZ/BcuB3QCB8lsBJtKvBWhK+QEtGTcDe7KHBWPh/QF0QVcC0
0a3BDJt+QIoexL5eN6zBX9DMQHkhGb9yYa7BYNOAQAlfZj+cmLDBq0bOQHP+MD/W4LLBg/mgQNHs
JMBt6qjBVuOkQNjHk7+meavB8PenQOpwtj9YPbTBVrTgQMMXXUBKRqDBcua8QE+MZkASj6bB51bb
QNETUEC1zJTBJpCOQKWjVEC9pJfBghWrQGV/QUAQ8oTBRkCoQMueM0DOMLnBKOjCQK39ckD8jLLB
WJOTQDXYYkBjBKLBfdyxQBUjSkC1pJDBiuxJQPGjT0DstJPBEjf7QHkDSkBBJI/BLEOVQAcszMD3
2aLBYz3PQJ8FosDqL5rB7/5FQPzgqMBbh6/BYrjXQEQLKcAAUZ7BhbJTQB4TNsC9NLPB4ItCQCTX
SL+NZKnB+fXpQMo6lL/IKK3B5OxHQESgvj9KMLHBnYbsQG8zjz+9R7XBWCMAQdxEX0BKx6PBhZaI
QKjJPUDIQYPBSOC6QDPsBkAOE4LBDsa4QEtgeUBu1IDBye+1QC9wL0AMSMHBIieHQEQ/S0CrsLnB
TzW5QG9DmkApqbTBre3kQK/maUCAgLTB/2IgQAUVWEBjs5nB9I1AQAgfFkBuZpDBAxHBQFQCeMBE
PY3BOlWeQKClbMBqQJTB6orjQIglPsAqXY3B5VeeQHxnKMDGipvB36LjQPAe87+Mm5TBvcbqQICF
AL7KLKfBuBWdQABPar7COqnBubPsQMCrXz/E967BFBKfQMBwRz/3/7DBi1XBQBDj3b946JvBo+vC
QMCNLL9iG6TBisTGQLBRrj/8n7PBdlbXQGjxWkAuwaLBJ9iwQHBDbEAivKfBPqLWQKBmPEAispfB
bF+KQGgvWEBWoJfBBVetQJj7IEBA6YbBRCrIQCinKkB4yLnB4tutQHhGcUB87LPB36KKQFAnbUBC
26HBuN6vQNDpPkC6IJLBGLZGQHCFW0BeU5LBEQ/3QNDGHEAI1pPBeETBQCmqlsDdvYfBO6KDQKI/
jMDdBZTBfO/9QE+DRsCK4ofB7pCDQIGrH8Dj5KDBD+79QEtomb8gn5TBxu4DQZsq9r7CeaPBSkF9
QG/XKr/9I6fBRKUFQYvOoj/ha7HBFz6CQCfojT8k+LTBHkX1QFHAY0BN7qbBs1iMQJUgKEA0+oPB
ZcK2QDp0uj//gYbBcQvDQA5XR0AO6YHB753pQN/FP0AVg7rBLqC6QPV8IEBbzsHBzg+MQDesakCg
PbbBVtO5QHwamECafrbBAg8ZQHtWbkBFapfBplY4QGZ6IUBdeY/B

>  <OMEGA_E>  (3) 
cKMSP0B2Lz8=

>  <OMEGA_NBR>  (3) 
     35127

$$$$
