50220708
     RDKit          3D

 55 59  0  0  1  0  0  0  0  0999 V2000
    2.9428   -3.0276  -17.3167 C   0  0  0  0  0  0  0  0  0  0  0  0
    4.6055    5.5839  -27.6659 C   0  0  0  0  0  0  0  0  0  0  0  0
    4.5875    4.4228  -26.8817 C   0  0  0  0  0  0  0  0  0  0  0  0
    4.9751    6.8115  -27.0916 C   0  0  0  0  0  0  0  0  0  0  0  0
    5.6007   -4.4867  -19.5174 C   0  0  0  0  0  0  0  0  0  0  0  0
    4.6208   -4.3734  -18.5141 C   0  0  0  0  0  0  0  0  0  0  0  0
    5.9041   -3.3837  -20.3352 C   0  0  0  0  0  0  0  0  0  0  0  0
    4.9374    4.4866  -25.5248 C   0  0  0  0  0  0  0  0  0  0  0  0
    5.3264    6.8814  -25.7343 C   0  0  0  0  0  0  0  0  0  0  0  0
    4.2260   -2.0557  -19.1608 C   0  0  0  0  0  0  0  0  0  0  0  0
    5.0853    0.3859  -20.6845 C   0  0  0  0  0  0  0  0  0  0  0  0
    6.5395   -0.9709  -21.9624 C   0  0  0  0  0  0  0  0  0  0  0  0
    3.9316   -3.1574  -18.3392 C   0  0  0  0  0  0  0  0  0  0  0  0
    5.2266   -2.1536  -20.1562 C   0  0  0  0  0  0  0  0  0  0  0  0
    5.6069   -0.9665  -20.9485 C   0  0  0  0  0  0  0  0  0  0  0  0
    5.3175    5.7219  -24.9188 C   0  0  0  0  0  0  0  0  0  0  0  0
    5.6846    1.3457  -21.4573 C   0  0  0  0  0  0  0  0  0  0  0  0
    6.7281    3.5253  -19.2439 C   0  0  0  0  0  0  0  0  0  0  0  0
    4.3005    3.3680  -19.2037 C   0  0  0  0  0  0  0  0  0  0  0  0
    5.7546    5.8726  -23.4910 C   0  0  0  0  0  0  0  0  0  0  0  0
    6.5178    4.9719  -21.2777 C   0  0  0  0  0  0  0  0  0  0  0  0
    5.2953    3.4780  -22.6832 C   0  0  0  0  0  0  0  0  0  0  0  0
    6.6732    3.5515  -20.7618 C   0  0  2  0  0  0  0  0  0  0  0  0
    5.4436    2.8383  -21.3174 C   0  0  2  0  0  0  0  0  0  0  0  0
    5.5487    3.6078  -17.0498 C   0  0  0  0  0  0  0  0  0  0  0  0
    2.1363   -2.9109  -16.4832 N   0  0  0  0  0  0  0  0  0  0  0  0
    5.5341    3.4286  -18.5177 N   0  0  0  0  0  0  0  0  0  0  0  0
    5.7934    4.8487  -22.5485 N   0  0  0  0  0  0  0  0  0  0  0  0
    4.2370    3.1415  -20.4963 N   0  0  0  0  0  0  0  0  0  0  0  0
    3.1031    3.5585  -18.5280 N   0  0  0  0  0  0  0  0  0  0  0  0
    7.7851    3.8218  -18.6982 O   0  0  0  0  0  0  0  0  0  0  0  0
    6.1764    6.9654  -23.1236 O   0  0  0  0  0  0  0  0  0  0  0  0
    6.8386    0.6258  -22.5581 S   0  0  0  0  0  0  0  0  0  0  0  0
    4.3356    5.5352  -28.7105 H   0  0  0  0  0  0  0  0  0  0  0  0
    4.3040    3.4783  -27.3222 H   0  0  0  0  0  0  0  0  0  0  0  0
    4.9890    7.7057  -27.6971 H   0  0  0  0  0  0  0  0  0  0  0  0
    6.1209   -5.4224  -19.6596 H   0  0  0  0  0  0  0  0  0  0  0  0
    4.3972   -5.2178  -17.8790 H   0  0  0  0  0  0  0  0  0  0  0  0
    6.6576   -3.4754  -21.1035 H   0  0  0  0  0  0  0  0  0  0  0  0
    4.9190    3.5862  -24.9287 H   0  0  0  0  0  0  0  0  0  0  0  0
    5.6073    7.8319  -25.3053 H   0  0  0  0  0  0  0  0  0  0  0  0
    3.6855   -1.1296  -19.0315 H   0  0  0  0  0  0  0  0  0  0  0  0
    4.3134    0.5980  -19.9596 H   0  0  0  0  0  0  0  0  0  0  0  0
    7.0235   -1.8600  -22.3385 H   0  0  0  0  0  0  0  0  0  0  0  0
    5.9422    5.5796  -20.5640 H   0  0  0  0  0  0  0  0  0  0  0  0
    7.5036    5.4323  -21.4398 H   0  0  0  0  0  0  0  0  0  0  0  0
    5.8888    2.9281  -23.4284 H   0  0  0  0  0  0  0  0  0  0  0  0
    4.2385    3.4845  -22.9885 H   0  0  0  0  0  0  0  0  0  0  0  0
    7.5860    3.0997  -21.1775 H   0  0  0  0  0  0  0  0  0  0  0  0
    4.5274    3.4977  -16.6563 H   0  0  0  0  0  0  0  0  0  0  0  0
    6.2009    2.8482  -16.5943 H   0  0  0  0  0  0  0  0  0  0  0  0
    5.9290    4.6110  -16.8068 H   0  0  0  0  0  0  0  0  0  0  0  0
    3.3447    3.1736  -20.9467 H   0  0  0  0  0  0  0  0  0  0  0  0
    2.2366    3.5205  -19.0258 H   0  0  0  0  0  0  0  0  0  0  0  0
    3.1069    3.7337  -17.5435 H   0  0  0  0  0  0  0  0  0  0  0  0
  1 13  1  0
  1 26  3  0
  2  3  2  0
  2  4  1  0
  3  8  1  0
  4  9  2  0
  5  6  2  0
  5  7  1  0
  6 13  1  0
  7 14  2  0
  8 16  2  0
  9 16  1  0
 10 13  2  0
 10 14  1  0
 11 15  1  0
 11 17  2  0
 12 15  2  0
 12 33  1  0
 14 15  1  0
 16 20  1  0
 24 17  1  6
 17 33  1  0
 18 23  1  0
 18 27  1  0
 18 31  2  0
 19 27  1  0
 19 29  2  0
 19 30  1  0
 20 28  1  0
 20 32  2  0
 21 23  1  0
 21 28  1  0
 22 24  1  0
 22 28  1  0
 23 24  1  0
 24 29  1  0
 25 27  1  0
  2 34  1  0
  3 35  1  0
  4 36  1  0
  5 37  1  0
  6 38  1  0
  7 39  1  0
  8 40  1  0
  9 41  1  0
 10 42  1  0
 11 43  1  0
 12 44  1  0
 21 45  1  0
 21 46  1  0
 22 47  1  0
 22 48  1  0
 23 49  1  6
 25 50  1  0
 25 51  1  0
 25 52  1  0
 29 53  1  0
 30 54  1  0
 30 55  1  0
M  CHG  1  29   1
M  END
>  <OMEGA_C>  (1) 
DFY8QBHEQcCmiIrBKmCTQIOvskDcU93Bb8ySQJiHjUDGDdfByDOfQJj32UCTu9jBRjmzQNCSj8CJ
I5zBU92TQEbzi8DyHJTBq+68QPONWMB6rqLBff+dQBKSj0DAMszBq3GqQBo03EDL383BGDuHQBaR
A8A5SZnBzLqiQEmUxT7ieaXBPkPRQLmJeL/3sq/BgJ97QFISSsChtpLB5j+nQEXUCcD4P6HBImyz
QOFtd7+dlqfBOCmqQM4Zt0CzWcfBPei1QHI+rD+jqKvBakzXQDyeYUCQ85nBv52JQM+NV0AmoZnB
ySW4QELsu0Ca7bvB3JHQQIMZn0C4OKrBt3KpQHeXXkA7d7XBP4vVQB1LY0AZGKbB2zGuQIOmNUD7
iarBw46xQL3mZkAMZojBjLgIQFVMOsCZ3YPB8xaxQKluW0AoJJTBamO5QPAom0BRY7TBfZWHQJEN
SUBn+KPBnJlGQBy+Y0BuOZTBjx/5QLSXdEDUlZXB5KTFQMvk3kA4/bjBG9baQCY2ID8Pd7TBUb2K
QPMfsUAzr+XBKbqJQAmdXkDfk9rB46WfQLiU9kCrk93BhN7DQFSErcDPRp3BpbWMQH34psAoCI/B
QAvVQJRsXsDm06jBhWidQMqDZUD3bcfBTm+zQIme+kA9ccrB3d9rQByYkL+OQJjBDQeKQHYXGT8+
rZ/BfMDgQC8V7r9OtbLBKCa+QMiLskAdg6TBFx3wQI/VrUDEhKvBBXG8QExlO0BWbbvBuaGHQNQC
X0B/6LfBMcDyQMFgRkCBa6nBhOCQQKvaX0AOQIXB4m3GQG5INkAjwYTBA7q9QESNk0BbdIbBVBBW
QKocS0DOkqfBBCUPQP9PYUDQNJjBEdhGQE/0bkAeWYzBURs7QPoiQMCwjorBc3OVQI+ls0BvX93B
JnahQMa72kBMtNjB5CuTQGuYjkBIFdfBfryyQGelj8Dx+5vBqyiTQOu0i8DUBJTBi868QHITWcBF
j6LBwnCrQJrT3ECfxM3BTgudQMaAkEB0JczBzRqHQAMqA8BUTJnBfR2jQBOowT6wiKXB9ejRQKn0
e7/Kn6/Bcpx6QJRGScDXspLBT0+nQCMRCsBXNaHBd9OzQLOpeb+mkafBpb2pQFi/t0DHP8fB14e2
QCjrqj+5savBnrPXQPWCYUBK/5nBZgWKQNb6VkAqtpnBbyy3QN8kvEAyybvBfnDRQJqbnkD/VKrB
Z9WpQMvfXUBAibXBLCLWQAqNYkBJJabB2sGuQNT2NEBFmqrB3rKxQADQZkD+d4jBVV0HQPXnN8Ad
64PBTW2xQFFNW0CBNZTBB6W6QNeKmkDViLTBSBiIQJY6SEBHC6TB50JHQHnfYkChU5TBfXL5QPni
dECKnpXB/EvDQHZS30BlorjBbsTbQJCtHD+5ZbTBXPuNQBgnskDizOXBPQajQPBM90AZjd3BHc+J
QIMdYUBxqNrBEUbDQPewrcDxDJ3BX7CLQDqapsC37I7ByAvVQK13X8CNqqjBQ4m0QHgY+0DiRcrB
1wCbQFagZ0AwW8fBDOlrQH1Rj7/RU5jBcTWKQKPlFz/ry5/BFWnhQA8M8L90l7LBQN2+QOQ1skAL
sKTBrhHxQMs7rUAGk6vBTTO8QF7eOUBii7vBO+iHQK99X0CD37fBbVbzQE87RUDRaqnBZPiQQMe3
X0BpWoXBW4jGQLY+NkDyzITBm869QJqFk0AUhIbBiRxXQGz9SUDyp6fBFOAPQJwMYEDWUZjBtVVH
QK5DbkBVdIzBI2o0QA/oRMBE0ovB05zTQB/WGUHupMDBg3PMQPXpEEF4fLbBLSDOQFpNDUHR48nB
ih+yQAvkj8BCvJzBUkCRQHrkjMBSFZXBmES9QG8PWMAE56LBki/AQGnc9kAFkbXBz/rCQENH70Bo
+sjB8dmFQAt9BMDQ6pnBKgilQKYVyD4W3qTB/YvUQLDSb7+hD6/B/kF2QDgNTMD9r5PBc26nQP2m
CcDkeKHBaWG1QMZ3c7/rRKfBZMy8QO+33EBPx77BCAK6QLoJrj+Ed6rBt3fZQDWJbEDBr5nB4jqM
QPidW0Cx2ZjByfSwQOo6r0DrHL7BoKTPQC+Ln0A5MKvBaE2oQGXoVEA75rTB0yfXQGH8Z0Dq/qXB
zUiwQEfjNEBttqnBqRy1QO2fbUAG0ofBI4r9P7NzPsB3ZIXBueyzQKfTY0BhmpPBKN60QNH6lkAP
1rTB7t6JQM/BSEBGD6PBZQ1MQNEwZ0C0W5PBS8z7QA+HfUD5b5XB6oOiQCO2nUDLI8bBjIvgQHG7
Kz9IAbPBDVrdQM1aKkFiW8HBmGTQQMyYGkH2Za/B8H/SQL1dFEHkstHBFM/CQKTQrcAw3p3BRfqI
QNhlqMBCR5DBGpbWQPTNXMDfwKjBx0S5QMyX6UA7x63BYxu/QOoI3EDYFtDBt9RoQDWmkr+G8JjB
HVmLQBeaFj95Tp/B75DjQNcv6b9WSrLBTbG+QID4tEDDo6XBtEjuQFsnrkA2hK3BCa27QPu2MEA+
sLrBdTmGQNa2TkCN9rbBTKT0QCQPS0CBKanBDcKUQCWOZEBoi4TBetDKQEiAPUD/YYTBMKjAQMYM
l0AmyIXB5iBaQI+jR0BkiqbBbTwUQJETYUBzMpfBE9xMQCSjdUC6kIvB7hs5QL5NRcCFI4vBjqna
QFxPGkGprbzBX3jeQGuHDkEpPcbBx53HQDj/EEHxm7PBPkStQLtfkcAJ7Z3BfEKOQMQrjsDU0JXB
nTS5QBXeWcCTx6PBM67QQLFU8kBZo8bBjSy5QDeP90AiDLTB3rGGQBXYA8AudpnBo/2jQEwozT4q
+KTBRTLUQBh4br+B6a7BLg52QBDRTMChlpPBpyqmQHSvCcD7jqHB0I+0QMu9cb9tPKfBkDe/QET/
3kDfbL3B2BO5QMzmrj+tnKrB1QDYQPzpaUBZlJnB9pyKQEoDW0DCLpnBkO2yQOrasUDTvr3BojvQ
QFa7n0Cu+arBQmSpQAQMV0BXKbXBp6nWQCptZ0DA56XBQ9OvQPCmNUDy7qnBCDqyQB6SZ0A944fB
wOUHQJ+pPsBsLoTBB+2xQIIJYUA4tpPBppy1QDEfmED4t7TBOPmIQCEpSkBsdqPBryNIQF5WZkCD
1JPBMjz6QPS7d0BnG5XBp5SmQPJDokByOMbBJhLgQB0WLD+T9rLB02fmQJeLKkHCT7zB+QPsQPbw
FUFQRc3BlCHEQD0oGkHEVazBQeu7QG/mr8DDp5/BJTKFQCkyqsDKS5HBdgfRQIINX8BMAarBEXDT
QGxR4EC9+s3Bf2KpQK2W6UCHM63BTTJvQII9jr+VypfBiB2KQJo8Gj9jeZ/BaqHjQCCY6L83AbLB
uYK/QKY4tUAHZqXBbj7vQCLWrUBwMK3BK869QE8MNEBF17rBlbCHQHKqUECvkrfB5jb0QA0kSkAJ
+6jBPIeRQHLgXkDo0ITB2C7HQHSzNUASjYTBLjS+QMN+k0DRg4XBwwRZQLoXS0C5HafBHtYQQPSO
YUDfz5fBQ/NHQLpEc0DC/ovBnqE0QCv2Q8CDaYvB92v+QEy4EkGt6r/B8VsJQZ0YAEEzH7zBUtnT
QJPXEUEyn8PB+xqyQP/7j8BWQpzBwyeRQGi/jMBjopTBsZi9QHpnWMAfb6LBSSX8QJZo2UB237vB
GxO9QGr1/EAaQcPBaoOGQH/hA8B6eJnBjb2lQFZryj6Ot6TBnLTUQF2Hcr+o567B3rR2QAtkS8CL
QJPBHB6oQAyFCcDcB6HBVAm2QGXzc78Y/KbBmMzQQH4X2EBpDr/BYIS5QJwfrj/lr6rBetPYQOOf
akCcy5nBNLuLQLOnWECq7pjBWb+4QAY4sECUdL7BsojMQDWCoEAbwKrBS+ymQJVVWEChLLXBs8LV
QKFDaUCICKbBbmKvQB9qNUBy+qnBUey0QH+dakAl6YfBc7L9PzJ/PcATAIXBB32zQPxYYUALspPB
jqq6QCtWlkABdrXBbSmJQGV0R0BXMqPBQi1LQKV0YUC4WpPBg3H7QIk7ekCWmpXBOTykQPB6pEBV
S8bBYIjfQAXbKD8ASrPBs8MHQdO7IUFU/b/BwMEZQeC8AEFQarnBLbvEQN0RIEHpvsbBkZrCQHoG
rsCtXp3B45SIQLUyqMC414/B2u3WQPCpXcA5RqjBAPcFQZyEvEBpPrnBa5acQAJ4+0CPLcbBOsRq
QMHAkL9lepjBv9aMQGknGj929Z7BTRHkQIXS6r/W/bHBiCC1QLsEskAN2aXBGgnqQO2As0DXc6vB
1mm1QB5hLkDiPbvB90yEQLheXUDDobbByXjzQC89T0Cbc6nBQ6mUQDkmYUCOmITBQMvKQISAOkDF
iYTBSmTAQMaKlUCm14XBDoBYQIlnRkB8n6bBXU8TQIuyWkAvKpfBjhJMQDWObkBJhovBAULKQOrh
ssDT1pvBemWVQMLUsEABkN3BLB6TQMEsjEDUIdfBYzOhQAw82ECAB9nBX3d1QDvEQ8BmOZLB5euR
QK9ViMC+EJPBXHSEQHlR/b/7BJnBo9GcQNDKjkCtMczBxPCqQL8M20C4Fs7B6la8QLerU8AzjqHB
v/yiQMnn0j6lWqXBEbLQQLKPfL+rYa/BxY2yQDEyjMDiyJrBtLqlQDoIBsBIr6DBw8eyQArVcb9+
RqfBhT2pQE5ntkDaa8fBNt62QAVPrD+/nqvBBILYQKtWYUCrGprBZdqKQFdvVkD8vJnBS0K2QHe5
u0Df77vB2B7RQIcan0APZ6rB4XqqQI09XUDnlbXBKKrWQJ9sY0C1QqbBuGavQC1yNUBHparB0uOy
QLskY0C7gIjBGP3dQP9B0sAo2pzBHF+yQHzfWUCzRZTBfGu5QIjDmkBLgbTB8tCIQLGGSUDoGqTB
9wtJQIATYUCtSpTBK2X6QMWyc0CRupXBGvvBQIUy30Bf57jBg5TbQEg0GD/RTLTBihaOQE3LrkDj
/eXBmeOJQAXJW0AgmdrBVsqiQMZ/9EA5/N3B8v5CQOLKPcBNXozBvbqKQMfOosB0z43BxgllQCyS
h7/IZZjBE9yaQHO/ZEA/TcfBDtuzQIOS+UBDtMrBvVPVQElFWsCId6fB3U+KQIphJj+1nJ/BVHjf
QME+8r//SrLB59O+QOR5skDkpqTBUXjwQKAVrkAY0KvB5wi+QHqhOkCefLvBeb2IQCULXEDfFrjB
GOrzQMT1RkCXn6nB4zySQOFQW0BgXYXBgNrHQB77MUBEAoXB1Pm+QK+EkUA3YIbBWL5YQFlNTUBV
vafBuJARQKTDXkDkRJjB4klJQFgOa0C+Y4zBCIGhQPnQvsBmL6fB5IPXQB2xGUE1W7fBt9jzQNmx
C0EoqrzBh6OuQHh6EkEaN7TB691zQACyXMDPLpPB/mOBQNTHlcD+V5jBziOLQCl/EMDxbpfBSkrn
QJD67EBs3L7B2QmiQFyM+kBgZrbBoMarQIlxYsAx8aXBvqelQDMAlD50+KPBEFzcQDjTiL8SS6vB
kyyaQKAkl8BhxaHBVnGkQNMoE8Ccz6DBLHu3QHzNiL+iRaXBN0i+QNKY3kCJx7vBWn29QHrYnz86
NanBpz3ZQB1cc0AdspnBTcKLQN6+XkClqJnB+hiyQM+zsUBge73BWXPTQJbcnUCnu6vB7bCuQDfp
TEDvgrXBxUvZQI+rZkBP2KXBO4yzQIicL0AOxanBxZOwQAPihUCWtojBWKCnQMfz3sDpq6vBIjmy
QHsicUByHJTBDoO7QO3Uk0AQkrXBA6qLQDS1REBysKPBYIJIQEE5Z0CompTBfLf6QMxchEA+TpXB
lwefQOxvp0D4qMXBOerpQGj4Bj83dq/BmiLhQPLzKUHmsbXBmJUJQdU6EUHmC7/B4/+YQMAzHUEE
I7DBMQFOQAGmWsB89YvBe0doQBLpssDnFJXBx/6EQEQqqL/ihpPBfQX9QM1/10Du5cLBZs2CQJ1u
70Ap9rPBWQW/QHjMZMDRHK3B8ByJQDfNAT/ua5/BTpjuQMRJ+r9RL63BQETBQJh3tEDcv6bBh8Ty
QJbQq0ACuq3BlK/DQBsxJ0BWxbrBmk2NQBgIRkCbKbjBH5r3QJzYSECSUqjB/5mPQJDdgkB9uoXB
qd3FQHqQYkDW9YPBdA67QCtep0DGAYjBqQtfQCjAPkCVbKfBpacSQE28WUCIlZjBbKZFQCTMekDw
/ozB

>  <OMEGA_E>  (1) 
IPXAPvgwwj7IHv0+yMEAP7SpBT/gkBA/agxWPw==

>  <OMEGA_NBR>  (1) 
     12769

$$$$
50220705
     RDKit          3D

 55 59  0  0  1  0  0  0  0  0999 V2000
    2.9390   -2.9992  -17.3125 C   0  0  0  0  0  0  0  0  0  0  0  0
    5.0366    6.8830  -27.0719 C   0  0  0  0  0  0  0  0  0  0  0  0
    5.9141   -3.3678  -20.3239 C   0  0  0  0  0  0  0  0  0  0  0  0
    5.3896    6.9363  -25.7140 C   0  0  0  0  0  0  0  0  0  0  0  0
    4.6105    5.6734  -27.6466 C   0  0  0  0  0  0  0  0  0  0  0  0
    5.6209   -4.4636  -19.4957 C   0  0  0  0  0  0  0  0  0  0  0  0
    4.2223   -2.0435  -19.1644 C   0  0  0  0  0  0  0  0  0  0  0  0
    5.0756    0.3902  -20.7021 C   0  0  0  0  0  0  0  0  0  0  0  0
    4.8836    4.5644  -25.5043 C   0  0  0  0  0  0  0  0  0  0  0  0
    6.5438   -0.9658  -21.9633 C   0  0  0  0  0  0  0  0  0  0  0  0
    3.9340   -3.1386  -18.3319 C   0  0  0  0  0  0  0  0  0  0  0  0
    5.2275   -2.1425  -20.1557 C   0  0  0  0  0  0  0  0  0  0  0  0
    5.6053   -0.9601  -20.9549 C   0  0  0  0  0  0  0  0  0  0  0  0
    5.3243    5.7774  -24.9001 C   0  0  0  0  0  0  0  0  0  0  0  0
    4.5346    4.5147  -26.8601 C   0  0  0  0  0  0  0  0  0  0  0  0
    4.6403   -4.3505  -18.4935 C   0  0  0  0  0  0  0  0  0  0  0  0
    5.6764    1.3486  -21.4755 C   0  0  0  0  0  0  0  0  0  0  0  0
    6.7283    3.5087  -19.2541 C   0  0  0  0  0  0  0  0  0  0  0  0
    4.3002    3.3501  -19.2127 C   0  0  0  0  0  0  0  0  0  0  0  0
    5.7622    5.8993  -23.4724 C   0  0  0  0  0  0  0  0  0  0  0  0
    6.5400    4.9607  -21.2822 C   0  0  0  0  0  0  0  0  0  0  0  0
    5.2911    3.4916  -22.6936 C   0  0  0  0  0  0  0  0  0  0  0  0
    6.6766    3.5394  -20.7715 C   0  0  2  0  0  0  0  0  0  0  0  0
    5.4407    2.8411  -21.3321 C   0  0  2  0  0  0  0  0  0  0  0  0
    5.5513    3.5596  -17.0584 C   0  0  0  0  0  0  0  0  0  0  0  0
    2.1302   -2.8806  -16.4813 N   0  0  0  0  0  0  0  0  0  0  0  0
    5.5346    3.4032  -18.5283 N   0  0  0  0  0  0  0  0  0  0  0  0
    5.8394    4.8465  -22.5643 N   0  0  0  0  0  0  0  0  0  0  0  0
    4.2359    3.1450  -20.5084 N   0  0  0  0  0  0  0  0  0  0  0  0
    3.1027    3.5219  -18.5320 N   0  0  0  0  0  0  0  0  0  0  0  0
    7.7843    3.8046  -18.7062 O   0  0  0  0  0  0  0  0  0  0  0  0
    6.1632    6.9903  -23.0774 O   0  0  0  0  0  0  0  0  0  0  0  0
    4.1246    3.3453  -27.4036 F   0  0  0  0  0  0  0  0  0  0  0  0
    4.3907   -5.4091  -17.6887 F   0  0  0  0  0  0  0  0  0  0  0  0
    6.8390    0.6290  -22.5665 S   0  0  0  0  0  0  0  0  0  0  0  0
    5.0927    7.7755  -27.6774 H   0  0  0  0  0  0  0  0  0  0  0  0
    6.6671   -3.4611  -21.0925 H   0  0  0  0  0  0  0  0  0  0  0  0
    5.7150    7.8721  -25.2841 H   0  0  0  0  0  0  0  0  0  0  0  0
    4.3421    5.6361  -28.6920 H   0  0  0  0  0  0  0  0  0  0  0  0
    6.1497   -5.3958  -19.6287 H   0  0  0  0  0  0  0  0  0  0  0  0
    3.6735   -1.1208  -19.0468 H   0  0  0  0  0  0  0  0  0  0  0  0
    4.2970    0.6025  -19.9843 H   0  0  0  0  0  0  0  0  0  0  0  0
    4.8174    3.6675  -24.9063 H   0  0  0  0  0  0  0  0  0  0  0  0
    7.0343   -1.8548  -22.3315 H   0  0  0  0  0  0  0  0  0  0  0  0
    5.9550    5.5688  -20.5766 H   0  0  0  0  0  0  0  0  0  0  0  0
    7.5313    5.4158  -21.4242 H   0  0  0  0  0  0  0  0  0  0  0  0
    5.8522    2.9242  -23.4507 H   0  0  0  0  0  0  0  0  0  0  0  0
    4.2300    3.5358  -22.9803 H   0  0  0  0  0  0  0  0  0  0  0  0
    7.5850    3.0780  -21.1862 H   0  0  0  0  0  0  0  0  0  0  0  0
    4.5302    3.4455  -16.6654 H   0  0  0  0  0  0  0  0  0  0  0  0
    6.2024    2.7916  -16.6154 H   0  0  0  0  0  0  0  0  0  0  0  0
    5.9339    4.5580  -16.8003 H   0  0  0  0  0  0  0  0  0  0  0  0
    3.3449    3.1945  -20.9595 H   0  0  0  0  0  0  0  0  0  0  0  0
    2.2356    3.4871  -19.0289 H   0  0  0  0  0  0  0  0  0  0  0  0
    3.1071    3.6805  -17.5446 H   0  0  0  0  0  0  0  0  0  0  0  0
  1 11  1  0
  1 26  3  0
  2  4  2  0
  2  5  1  0
  3  6  2  0
  3 12  1  0
  4 14  1  0
  5 15  2  0
  6 16  1  0
  7 11  1  0
  7 12  2  0
  8 13  1  0
  8 17  2  0
  9 14  2  0
  9 15  1  0
 10 13  2  0
 10 35  1  0
 11 16  2  0
 12 13  1  0
 14 20  1  0
 15 33  1  0
 16 34  1  0
 24 17  1  6
 17 35  1  0
 18 23  1  0
 18 27  1  0
 18 31  2  0
 19 27  1  0
 19 29  2  0
 19 30  1  0
 20 28  1  0
 20 32  2  0
 21 23  1  0
 21 28  1  0
 22 24  1  0
 22 28  1  0
 23 24  1  0
 24 29  1  0
 25 27  1  0
  2 36  1  0
  3 37  1  0
  4 38  1  0
  5 39  1  0
  6 40  1  0
  7 41  1  0
  8 42  1  0
  9 43  1  0
 10 44  1  0
 21 45  1  0
 21 46  1  0
 22 47  1  0
 22 48  1  0
 23 49  1  6
 25 50  1  0
 25 51  1  0
 25 52  1  0
 29 53  1  0
 30 54  1  0
 30 55  1  0
M  CHG  1  29   1
M  END
>  <OMEGA_C>  (2) 
BRk8QEzzP8D8f4rBhCuhQDtB3EA5k9jBTUC9QLeKV8BXl6LBU3esQPD13UA5ts3BmYmTQFSMtUA5
LN3BAd6zQC3WjsAs95vBch2HQOvHAsCiUJnB6mqiQOnKxz77naXBPEacQOgPkkDDCMzBKWfRQHJB
d7/ntK/B4MV7QDbfSMCip5LBUkenQPEdCcDnPqHBYl6zQMrIdb+ro6fBs2CqQLPguEBiM8fBRhuR
QMx4kECC4dbBFX2UQCA3i8Cv8pPBYqW1QKqerD+6zavBXE7XQJWOYEBvCJrBe5uJQN9nVkCes5nB
tmO4QHbHvEBwx7vBgEfRQL29nkDxQarBp1CpQCp3X0CDjLXB5qbVQHyFYkAJLKbB2xmuQGHUNUAt
qKrB8KOxQMnPY0CCd4jB+1UIQF9cOMCs2YPBlRuxQBfOWUAKOpTBldy6QL0Wm0C3g7TB2YyHQA5H
SUAoEaTB4JJGQA5nYUB1QZTBRhn5QFJ/c0BfppXB7DjFQC2w30CInrjBgfyDQO0ZVkB9OtvBmICM
QC8XrcB7go3BSNnaQOIEIT89iLTBPfeiQNbQ+EBOa93BqFjVQBuDXcBpvajB8eC2QOHn+0DBRcrB
xPKKQCZbtEBOieXBv8rEQK2qrMCLB53BGRtrQMJ0j7/XX5jBS4GJQFA+Gj/r35/BUCiaQJG4akAo
QMfBrBjhQK1r7b/wprLBSo++QMszskDJnKTBTADxQBtOrUDPZKvB4ES7QCQmO0ASm7vBYVyHQJBK
YkCh17fBebjyQFD+REBHfanBdPeQQKyCXECwUoXBOXrGQCipMkBe7ITBmuK9QHfbkUDvZobBSRJW
QOtyTEAWrafBghQPQBEsX0AuO5jBUdtGQAyOa0BpW4zBMMk1QLhzRMBLxIvBNPbOQDzrDEFeqsnB
dwy7QJb2WMC3pqPBxVHFQFYX7kAb5cjBw1zPQM3AGUHfaMDBtYmvQHCskMDXrp3BugCHQHq6A8A1
tJnBoN2kQOZ7yj4v6aTBWCq6QNhC9kBFsLXBTbbVQBUpa78S0K7BPeJ2QLE2TMANwZPBjzynQLBc
CcCFnKHBc7S1QIoAcb9KPKfBG7O7QGjV20Cu177B9cjEQHzSEEH9a7bBuhCQQMGOjcAZrpXBe1O6
QBY9rz/EU6rBLjnZQPBmbUD0pZnBtA6MQJCaW0AXxpjBBM+wQINTrkB0O77Bfd7OQLD2n0CVNavB
UP+nQF1OVEDw1LTB9tXWQFYTaUDG9qXBlymwQAEzNUAloanBfAe1QP4/bUB6wYfB/XYAQJtzPcCu
TYXB9cWzQATnY0AWi5PBrBS0QCzClkA32LTBIbKJQN3KSECI+6LBPb5LQEwPZ0D4RJPBh6P7QLKt
fUBRZpXBTwWjQC+LnEBySsbBvq3DQL4jHUEBiq3BRhGGQC6lsMCT34/BXsbhQOH2MD9tp7LBcxTW
QLbpE0H3XNHBFRzTQEsRXsAJ0qnBAUHFQAdg2kCz/c/BV8zXQNR4KkEY+sDB1t++QCAEr8AKPJ/B
l3JuQPy2jr+nPZjBBoWKQNoeFj8miJ/B8LywQM3m6ECkE67By0blQPBZ5r/I8rHBTrm9QMVYtUAB
sKXBQFbtQLzXrkCYkq3BCY67QAAxMED9lrrBmvOFQGpETUDp4rbBhmb0QKaUTEBPJanBML2UQEyS
Y0DHd4TBjvDKQEVQPUAqXITBhFrAQAjolkD3roXBcchZQL6ER0C7dqbB7eUTQGPmYEDBGZfBQZtM
QIx3dUC6eYvBdEU2QHPgQsAbh4vB9azSQNMiEUF90cPBope7QBZxWcAxVKPBqEC8QEBS+0A9qMPB
DK78QCk3EkH6uL/BnrCvQALDkMBwVJ3BabiHQHMyA8CDeJnB32elQGcryD5R96TBX636QNRQ2EDY
0bvBGOHWQJJnbL9on67BF2p3QPNjS8A+gZPBTgyoQAFwCcDIXKHB/ay2QBQ+cr9zF6fBQ73PQM/A
1kCaP7/B/G4IQcA3/0AP1rvBqQKQQKxYjcA+YZXBeWi6QGoJrz89gKrBU4XYQBrMakCJp5nBYX6L
QF/kWEAz15jBnMq3QDwDr0A0f77BbS7LQNDFoEAUnarBttSmQBzjVkBLB7XBUXDVQHIyakBA56XB
qXyvQFc0NUBW0qnBz5O0QOSdaEATyIfBRA4BQJ5FO8B6D4XB8TSzQGSDYECwkpPBJ2y5QHgFlkCD
V7XBtw+JQPKuRkDcE6PBzbZKQICWZEAVWJPBOCr7QHSFeUCDbZXBAMOjQFByokBcVcbB4tgcQVBE
AEGYRLjBGXaFQH5UsMD7lY/B8EniQAb/MD+Qr7LBmL/DQFpKH0FlFMfBX8HTQAwjX8AKd6nBQkSc
QPFy+UBA5cbBMbQGQUZVIUF+kL/B4uW+QKE3r8Ag0p7B6mhwQKUIjb8QCJjBRvuKQHgGFT+RnJ/B
Az0FQWl0u0AYLbnBWvjmQLzO5r+wnLHB5mmzQGTCsUBYtKXBVjroQMBxtEAzVqvB5gW2QLppLUA+
CrvBejCEQAb+WUByirbBWFXzQBdaUUDRW6nB0lSUQKx3XkAefYTBvZHKQHlpOEC3eoTBrdy/QPB/
lEBMnIXBBllYQIRtREDxgabBFN4SQKsPX0ChMJfBBplLQOuKckCPiYvBDcvLQKskssCtx5vBGLyS
QBzojEDtIdfBaN2EQDNN/L8PE5nBFXCcQCZaj0B3MMzBFjuVQBClsUDYh93BfNd2QCAIQ8ATPpLB
K+28QLfIUsDrmqHB39OiQP/c2D7vWqXBi+GqQLCC20BdA87BhLzQQDyDdr8zcK/Bam6zQOG9i8A3
zJrByy6mQNtEBcAUuaDBt/WyQELgbb91TafBRiSpQJzYtkB0ZcfBSDGhQC/q2EBT7tjBHOeSQODJ
h8AIBpPBERu2QPBkrj98sKvB0TPYQKYZYUBzJ5rB+pKKQCydVUAan5nBEbS2QC4cvEBU9rvBIHbQ
QN11n0DKWKrBpVupQILOXkBsjLXBHvfVQFD4Y0ArTKbBx4WuQL5uNkAnpqrB1ESzQEqhX0BndYjB
NwbgQCRE0cAiqJzBKU6yQMp/WEBuP5TBZ9q4QChcm0DmdrTB8ymIQNg6SkAUA6TB2OhIQIgkX0BL
DZTBTjX6QDJoc0BZ1ZXBB/bDQIU230AkDbnBALOjQC2K/ED6/t7BCiiKQMRtqMD3QYzBRr/aQPar
Hj/YcLTBc1iJQFtwXUCQn9rBN1llQLsfh79Ef5jBpUOaQAfRZUDeT8fBbv2NQMTLr0Bb9+XBuEpE
QB0zPcAmZYzB2sjVQPFNWcBPjafBH1mKQB++Jz91i5/Bq9CzQJ33+UBEmMrBzubfQC6S7r8qU7LB
txy+QFCoskAakqTBt9DvQAd/rkC+tqvBfXK8QIr5O0AthrvBHoGHQJl8XkBw9bfBRBDzQCSER0Au
vqnB372SQEgpV0ATRIXBImPIQI3kLUC3J4XBEmi/QOOSj0D9LYbBAElXQMcAT0AQl6fBhBsRQLk0
XUA59pfBcsZJQBvyZ0DzIIzB

>  <OMEGA_E>  (2) 
8B3LPtyLBz9gJQ0/Ph0UPw==

>  <OMEGA_NBR>  (2) 
     18856

$$$$
50220715
     RDKit          3D

 52 56  0  0  1  0  0  0  0  0999 V2000
    2.8390   -3.0908  -17.4196 C   0  0  0  0  0  0  0  0  0  0  0  0
    5.5355   -4.5168  -19.5940 C   0  0  0  0  0  0  0  0  0  0  0  0
    4.5213   -4.4236  -18.6234 C   0  0  0  0  0  0  0  0  0  0  0  0
    5.8953   -3.3870  -20.3491 C   0  0  0  0  0  0  0  0  0  0  0  0
    5.1644    6.0188  -25.9561 C   0  0  0  0  0  0  0  0  0  0  0  0
    5.1393    5.1892  -24.8345 C   0  0  0  0  0  0  0  0  0  0  0  0
    4.2124   -2.0681  -19.1701 C   0  0  0  0  0  0  0  0  0  0  0  0
    5.1619    0.4055  -20.5742 C   0  0  0  0  0  0  0  0  0  0  0  0
    6.0735    7.7712  -24.5362 C   0  0  0  0  0  0  0  0  0  0  0  0
    6.6385   -0.9265  -21.8513 C   0  0  0  0  0  0  0  0  0  0  0  0
    3.8585   -3.1986  -18.4142 C   0  0  0  0  0  0  0  0  0  0  0  0
    5.2442   -2.1488  -20.1352 C   0  0  0  0  0  0  0  0  0  0  0  0
    5.6766   -0.9418  -20.8651 C   0  0  0  0  0  0  0  0  0  0  0  0
    5.6371    7.3283  -25.8030 C   0  0  0  0  0  0  0  0  0  0  0  0
    5.7807    1.3765  -21.3134 C   0  0  0  0  0  0  0  0  0  0  0  0
    5.6042    5.6833  -23.5875 C   0  0  0  0  0  0  0  0  0  0  0  0
    6.7753    3.6141  -19.1743 C   0  0  0  0  0  0  0  0  0  0  0  0
    4.3571    3.3822  -19.0865 C   0  0  0  0  0  0  0  0  0  0  0  0
    6.4736    5.0479  -21.2725 C   0  0  0  0  0  0  0  0  0  0  0  0
    5.2684    3.4183  -22.5893 C   0  0  0  0  0  0  0  0  0  0  0  0
    6.6967    3.6401  -20.7037 C   0  0  2  0  0  0  0  0  0  0  0  0
    5.4856    2.8555  -21.2078 C   0  0  2  0  0  0  0  0  0  0  0  0
    5.6358    3.5453  -16.9462 C   0  0  0  0  0  0  0  0  0  0  0  0
    2.0093   -2.9949  -16.6064 N   0  0  0  0  0  0  0  0  0  0  0  0
    6.0560    6.9534  -23.4600 N   0  0  0  0  0  0  0  0  0  0  0  0
    5.6323    4.8395  -22.4890 N   0  0  0  0  0  0  0  0  0  0  0  0
    5.5989    3.4638  -18.4235 N   0  0  0  0  0  0  0  0  0  0  0  0
    4.2824    3.1479  -20.3759 N   0  0  0  0  0  0  0  0  0  0  0  0
    3.1659    3.5352  -18.3899 N   0  0  0  0  0  0  0  0  0  0  0  0
    7.8630    3.7876  -18.6361 O   0  0  0  0  0  0  0  0  0  0  0  0
    5.6710    8.1598  -26.8647 F   0  0  0  0  0  0  0  0  0  0  0  0
    6.9694    0.6822  -22.3919 S   0  0  0  0  0  0  0  0  0  0  0  0
    6.0386   -5.4581  -19.7592 H   0  0  0  0  0  0  0  0  0  0  0  0
    4.2512   -5.2909  -18.0392 H   0  0  0  0  0  0  0  0  0  0  0  0
    6.6719   -3.4642  -21.0956 H   0  0  0  0  0  0  0  0  0  0  0  0
    4.8280    5.6603  -26.9177 H   0  0  0  0  0  0  0  0  0  0  0  0
    4.7687    4.1779  -24.9146 H   0  0  0  0  0  0  0  0  0  0  0  0
    3.6945   -1.1333  -19.0137 H   0  0  0  0  0  0  0  0  0  0  0  0
    4.3810    0.6062  -19.8557 H   0  0  0  0  0  0  0  0  0  0  0  0
    6.4290    8.7849  -24.4242 H   0  0  0  0  0  0  0  0  0  0  0  0
    7.1253   -1.8094  -22.2386 H   0  0  0  0  0  0  0  0  0  0  0  0
    5.9489    5.6819  -20.5426 H   0  0  0  0  0  0  0  0  0  0  0  0
    7.4332    5.5141  -21.5403 H   0  0  0  0  0  0  0  0  0  0  0  0
    5.9118    2.9061  -23.3199 H   0  0  0  0  0  0  0  0  0  0  0  0
    4.2155    3.3100  -22.8886 H   0  0  0  0  0  0  0  0  0  0  0  0
    7.6172    3.2128  -21.1280 H   0  0  0  0  0  0  0  0  0  0  0  0
    4.6214    3.4031  -16.5452 H   0  0  0  0  0  0  0  0  0  0  0  0
    6.2989    2.7610  -16.5523 H   0  0  0  0  0  0  0  0  0  0  0  0
    6.0148    4.5324  -16.6429 H   0  0  0  0  0  0  0  0  0  0  0  0
    3.3852    3.1662  -20.8171 H   0  0  0  0  0  0  0  0  0  0  0  0
    2.2925    3.4658  -18.8718 H   0  0  0  0  0  0  0  0  0  0  0  0
    3.1814    3.7148  -17.4063 H   0  0  0  0  0  0  0  0  0  0  0  0
  1 11  1  0
  1 24  3  0
  2  3  2  0
  2  4  1  0
  3 11  1  0
  4 12  2  0
  5  6  2  0
  5 14  1  0
  6 16  1  0
  7 11  2  0
  7 12  1  0
  8 13  1  0
  8 15  2  0
  9 14  2  0
  9 25  1  0
 10 13  2  0
 10 32  1  0
 12 13  1  0
 14 31  1  0
 22 15  1  6
 15 32  1  0
 16 25  2  0
 16 26  1  0
 17 21  1  0
 17 27  1  0
 17 30  2  0
 18 27  1  0
 18 28  2  0
 18 29  1  0
 19 21  1  0
 19 26  1  0
 20 22  1  0
 20 26  1  0
 21 22  1  0
 22 28  1  0
 23 27  1  0
  2 33  1  0
  3 34  1  0
  4 35  1  0
  5 36  1  0
  6 37  1  0
  7 38  1  0
  8 39  1  0
  9 40  1  0
 10 41  1  0
 19 42  1  0
 19 43  1  0
 20 44  1  0
 20 45  1  0
 21 46  1  6
 23 47  1  0
 23 48  1  0
 23 49  1  0
 28 50  1  0
 29 51  1  0
 29 52  1  0
M  CHG  1  28   1
M  END
>  <OMEGA_C>  (3) 
vLI1QILPRcBCW4vBzSKxQK+JkMB1wJzBtq6QQH6OjcDB/JTBEqa8QE3EWMDmyqLBLEOlQN6ZwEAf
ps/BanWkQNsNpkAorcbB0MuGQL9bBMBNXJnBbi6lQBuezz79l6TBRlrCQO6t+EAnSsTB+W7UQCYx
bb+Gz67BYfF2QN61TMBHUJPBPtCnQLiFCcDXFKHBwaa1QFoccb+m66bBY2O0QKGB6kCRbM7BX/u4
QJAvsD/qgarB/FWzQOPdtUAns7zBMM/YQDtOZ0DoZJnBlW2LQC92WEAysZjBdyfPQDKIoUAALqrB
vpaoQP3EWkD1trTBjUvWQLP3aEAeoaXBVoqvQL6/NkCAqanBGli0QKvlYkDXkYfBhZgAQEGsP8D2
2YTBbcrBQKGC3kAirrvB0ju0QB3dmkCR6bPBYCqzQJOvXUA6Y5PBQgmJQMJ3SUDkAaPB2Z5KQBNB
YkCaHpPBnZ37QFFockC9FpXBG3m1QHyOAkHf6tbBGwXfQKihLj+mIrPBBjzBQJ+orsDnEp7B4wmI
QM1OqcAyUJDB/n/VQJO1XcDRw6jBFn+aQGEhtUCGV9fBQ5mYQKexhUABUcfBIXNsQCERkb8bHJjB
BzGMQNctGz9z2J7BWLrNQN6ODEGwZMPBrALkQEyb57+O6LHBU12+QEnStUA8V6TB1NztQKVzsEBw
UqzBVC29QLL9OUAwj7rBAuWGQFvXU0DxG7fBTsDzQKCeTUA0BqnBO+KTQLHLWUCdXITBfJDJQAS0
MEAga4TB43jAQAkJkUCVJIXBm6ZYQCGjSkCEiabBwbcSQP3PXUCC+ZbB25xLQM+/bUAoQIvBpWI1
QAtiRcA55ovBko+wQNr2j8CsgJ3B9kWQQAI7jcCDr5XBuRW8QGchV8DIcqPBg57AQPbP90D8EsbB
qrDCQIgp30BHurzBnmWGQMltA8B13ZnBSOqkQJjs3T5ltaTBZX2kQJCPuUC5Zc/B2u3UQJWQX7+T
7q7BbkV2QPUhTMAy5pPBRWKnQD/7B8DzlqHBGIy1QMkwaL87MqfBGFOxQBq25ECHgs/BUUS5QIhp
tT/BVarBwOa0QDA/tEChG73Bxh7ZQGnBa0AmMZnB9LqLQMl7W0DtWpjBuzDQQNo8okCZQ6rBrcKn
QPVJXEDFc7TBJZXWQE8wa0DLcaXBnZSvQEgMOUCvYKnBoBa1QNN/ZEBXRofBjYgAQOkAP8DfXYXB
7TOmQOxjokANU8bB1c21QAbhmkD1DLTBQGGzQCdjZkCUIZPBq0uJQHVQS0Cqo6LBMftKQLlYYUCJ
v5LBxBf8QN1IdkDV8pTB+NauQP6h+0BUotjBIwPgQCKmPj/O5LLBxoPAQI0UrsC5757BH7WHQKMi
qcBaD5HBrtLUQPugW8CYdKnBfZjKQEdzDEHgB8bBmqDOQFHJ7ECXXrXB+pRrQFB2j7+/jJjBqHGL
QPaPHj/GD5/BAR+ZQNPVqkDErdbBPKLkQIXd37+pHrLBREC/QDU4t0Ckm6TBByvvQFSqsEDgX6zB
GHi6QBN3OEBSabrBL4+FQFaOWEASe7bBVOPzQMBuTkDPvKjB2GeUQMw0YEAWDYTBcrTHQGqSLECV
pYTBB2/EQAypj0DzVITB3+5YQD0+S0CEHKbBUEsTQA5XWUDaj5bBTJVLQHSTbUBd5YrB

>  <OMEGA_E>  (3) 
+HJqPkBUfj4=

>  <OMEGA_NBR>  (3) 
     20908

$$$$
50220718
     RDKit          3D

 51 55  0  0  1  0  0  0  0  0999 V2000
    2.8511   -3.0642  -17.4411 C   0  0  0  0  0  0  0  0  0  0  0  0
    5.4469   -4.5324  -19.7095 C   0  0  0  0  0  0  0  0  0  0  0  0
    4.4587   -4.4278  -18.7134 C   0  0  0  0  0  0  0  0  0  0  0  0
    5.8263   -3.3989  -20.4492 C   0  0  0  0  0  0  0  0  0  0  0  0
    4.2209   -2.0517  -19.1968 C   0  0  0  0  0  0  0  0  0  0  0  0
    5.1527    0.4051  -20.6192 C   0  0  0  0  0  0  0  0  0  0  0  0
    6.0266    7.7489  -24.5356 C   0  0  0  0  0  0  0  0  0  0  0  0
    5.1931    5.8975  -25.8522 C   0  0  0  0  0  0  0  0  0  0  0  0
    6.6520   -0.9191  -21.8770 C   0  0  0  0  0  0  0  0  0  0  0  0
    3.8454   -3.1858  -18.4592 C   0  0  0  0  0  0  0  0  0  0  0  0
    5.2214   -2.1460  -20.1931 C   0  0  0  0  0  0  0  0  0  0  0  0
    5.6710   -0.9391  -20.9096 C   0  0  0  0  0  0  0  0  0  0  0  0
    5.5981    7.2379  -25.7739 C   0  0  0  0  0  0  0  0  0  0  0  0
    5.8060    1.3817  -21.3169 C   0  0  0  0  0  0  0  0  0  0  0  0
    5.6436    5.6665  -23.5688 C   0  0  0  0  0  0  0  0  0  0  0  0
    6.7769    3.6226  -19.1393 C   0  0  0  0  0  0  0  0  0  0  0  0
    4.3609    3.3771  -19.0823 C   0  0  0  0  0  0  0  0  0  0  0  0
    6.5144    5.0459  -21.2512 C   0  0  0  0  0  0  0  0  0  0  0  0
    5.3079    3.4229  -22.5773 C   0  0  0  0  0  0  0  0  0  0  0  0
    6.7205    3.6392  -20.6721 C   0  0  2  0  0  0  0  0  0  0  0  0
    5.5128    2.8574  -21.1952 C   0  0  2  0  0  0  0  0  0  0  0  0
    5.6138    3.5410  -16.9254 C   0  0  0  0  0  0  0  0  0  0  0  0
    2.0403   -2.9548  -16.6108 N   0  0  0  0  0  0  0  0  0  0  0  0
    6.0500    6.9519  -23.4499 N   0  0  0  0  0  0  0  0  0  0  0  0
    5.2153    5.1361  -24.7468 N   0  0  0  0  0  0  0  0  0  0  0  0
    5.6736    4.8382  -22.4667 N   0  0  0  0  0  0  0  0  0  0  0  0
    5.5940    3.4562  -18.4034 N   0  0  0  0  0  0  0  0  0  0  0  0
    4.3009    3.1452  -20.3732 N   0  0  0  0  0  0  0  0  0  0  0  0
    3.1621    3.5452  -18.4024 N   0  0  0  0  0  0  0  0  0  0  0  0
    7.8471    3.8482  -18.5855 O   0  0  0  0  0  0  0  0  0  0  0  0
    7.0150    0.6953  -22.3784 S   0  0  0  0  0  0  0  0  0  0  0  0
    5.5701    8.2500  -27.1867 Cl  0  0  0  0  0  0  0  0  0  0  0  0
    5.9149   -5.4856  -19.9063 H   0  0  0  0  0  0  0  0  0  0  0  0
    4.1707   -5.2992  -18.1441 H   0  0  0  0  0  0  0  0  0  0  0  0
    6.5822   -3.4848  -21.2157 H   0  0  0  0  0  0  0  0  0  0  0  0
    3.7437   -1.1025  -19.0029 H   0  0  0  0  0  0  0  0  0  0  0  0
    4.3442    0.5997  -19.9300 H   0  0  0  0  0  0  0  0  0  0  0  0
    6.3368    8.7802  -24.4552 H   0  0  0  0  0  0  0  0  0  0  0  0
    4.8662    5.4815  -26.7937 H   0  0  0  0  0  0  0  0  0  0  0  0
    7.1337   -1.8011  -22.2725 H   0  0  0  0  0  0  0  0  0  0  0  0
    5.9957    5.6910  -20.5268 H   0  0  0  0  0  0  0  0  0  0  0  0
    7.4797    5.4993  -21.5205 H   0  0  0  0  0  0  0  0  0  0  0  0
    5.9563    2.9118  -23.3042 H   0  0  0  0  0  0  0  0  0  0  0  0
    4.2573    3.3182  -22.8859 H   0  0  0  0  0  0  0  0  0  0  0  0
    7.6456    3.2054  -21.0794 H   0  0  0  0  0  0  0  0  0  0  0  0
    4.5973    3.3847  -16.5350 H   0  0  0  0  0  0  0  0  0  0  0  0
    6.2840    2.7673  -16.5229 H   0  0  0  0  0  0  0  0  0  0  0  0
    5.9750    4.5341  -16.6201 H   0  0  0  0  0  0  0  0  0  0  0  0
    3.4081    3.1621  -20.8233 H   0  0  0  0  0  0  0  0  0  0  0  0
    2.2946    3.4878  -18.8967 H   0  0  0  0  0  0  0  0  0  0  0  0
    3.1660    3.7235  -17.4185 H   0  0  0  0  0  0  0  0  0  0  0  0
  1 10  1  0
  1 23  3  0
  2  3  2  0
  2  4  1  0
  3 10  1  0
  4 11  2  0
  5 10  2  0
  5 11  1  0
  6 12  1  0
  6 14  2  0
  7 13  2  0
  7 24  1  0
  8 13  1  0
  8 25  2  0
  9 12  2  0
  9 31  1  0
 11 12  1  0
 13 32  1  0
 21 14  1  6
 14 31  1  0
 15 24  2  0
 15 25  1  0
 15 26  1  0
 16 20  1  0
 16 27  1  0
 16 30  2  0
 17 27  1  0
 17 28  2  0
 17 29  1  0
 18 20  1  0
 18 26  1  0
 19 21  1  0
 19 26  1  0
 20 21  1  0
 21 28  1  0
 22 27  1  0
  2 33  1  0
  3 34  1  0
  4 35  1  0
  5 36  1  0
  6 37  1  0
  7 38  1  0
  8 39  1  0
  9 40  1  0
 18 41  1  0
 18 42  1  0
 19 43  1  0
 19 44  1  0
 20 45  1  6
 22 46  1  0
 22 47  1  0
 22 48  1  0
 28 49  1  0
 29 50  1  0
 29 51  1  0
M  CHG  1  28   1
M  END
>  <OMEGA_C>  (4) 
4Xg2QFocRMBlh4vB40yuQAcJkcAjrZ3BZ62OQDOwjcD6tJXBHnG6QMmGWcD4l6PB5BGHQB9PA8AU
k5nBteKkQFJuzz4Z9KTByNnAQLH290DiSMTB3y2mQK+4vEBh0c7BW93UQBBKa78tBK/BNxp2QGTk
S8BirJPBEBanQKlXCcBfi6HBN3m1QARpcL/dRqfBtCOzQIGc50D0MM7Basq5QBzcsD8ViarBgJi0
QOlTtUAAjbzBSNzYQAbZZ0BcHZnBMIyLQAYjWECXqJjB93XQQMN3oUBnAqrB/tmpQEwRW0BTnrTB
9g3XQArpaEBlYKXB6GiwQKzfNkDFj6nB+aOzQDSgYkBLZ4fBE5UCQMwaPcDq4oTB7ZnBQF123kBU
mbvBuOOmQONapEBl+cXBII61QKDSmkDMu7PBpAGzQLAyXUAlOpPB+qCJQG5LSUBM/KLBZV9KQMDj
YkApOJPB0xv7QOJIdkAvr5TBMnvgQLv8MT8EB7PB5D2yQDMABEFYftnBwUa9QPuJr8AOQJ/BvHaF
QG2TqcA4J5HByKHSQHYGX8DUuanBc5lvQGUdjb/YBZjB9AOLQKmIGT+vcJ/BFsfKQM17DEFIpMPB
kLebQEpor0CMWdbBQUfkQN6L5r8RLrLB0ty/QMgctkDYNqTB8FnvQA/6r0AWKqzBtJm+QOJaOkDs
brrBcjuIQO1cVEBqFrfBmqj0QFIlTUCpoqjBVB2TQHKfWEC2R4TB6hbJQH8bMUDNLoTBSjO/QKoX
kUD09YTBGh5aQCBgSkAflqbBgdsSQLs4X0BmLJfBjaBKQHdNbkABWYvBUp01QMFKRMBznIvBRqCv
QK+akMBWVZ3B7qaPQINbjcAjc5XBCW27QJHgWMDfVaPBa7qGQIJ2A8D6pJnBUOekQMh20T5T7KTB
jDulQFekvECA0c7BflnAQCjx90DFYMTBPCvVQM/wab/Q6a7BVU12QBjFS8CioZPBF02nQJgkCcDx
eaHBnZq1QE5ib78HOKfB7PixQCma50AcOs7BqOO5QNxwsT97fKrBI520QA9MtUBFmbzBZSLZQFkI
aEBWI5nBU9eLQIMCWEDlnpjBOXXQQB+ooUCEBqrBDeCpQLgqW0B5nLTBQy7XQDdOaUD4ZaXByYGw
QBUyN0B3jKnBBki0QO3RYECpZYfBc8kAQCmNPcCUFIXBHpKmQFBCpEC5+8XBr7XBQIxs3kDUsrvB
jay1QKjfmkAcxLPBOmWzQK2kXEBOOZPBW86JQA7XSUBy9aLBlhFLQClrYkBTJZPBkmv7QKF7dkAU
upTBtMbgQPVUMz8b7LLBOM2vQF4SBEGkfdnBniK/QNnxrsC9xp7BYdaGQHscqcDxy5DBxvHTQGox
XsBgY6nBpmBtQNBsjr/DSJjB0OmKQLtnGj+lcZ/BMHCaQLFJr0ADUdbBzUzKQJ95DEEKxsPBcrbk
QO7L5b8sDLLB07a/QAM5tkAvPaTBi07vQBBNsEARKazBLIm+QFs/OkBubbrBrDmIQEuIVECfDrfB
UMD0QCeeTUCxr6jBjdSTQO5kVkAtP4TBWNXJQNcGL0CfSYTBwNm/QPcSkEB13YTBh3daQMKbS0Da
jabBxngTQP0CX0DlFZfBnXxLQHlSbUBPQ4vB

>  <OMEGA_E>  (4) 
ONoXPtC7GD4=

>  <OMEGA_NBR>  (4) 
     22933

$$$$
50220719
     RDKit          3D

 51 55  0  0  1  0  0  0  0  0999 V2000
    2.8315   -3.0727  -17.4445 C   0  0  0  0  0  0  0  0  0  0  0  0
    5.4874   -4.5222  -19.6544 C   0  0  0  0  0  0  0  0  0  0  0  0
    4.4850   -4.4218  -18.6721 C   0  0  0  0  0  0  0  0  0  0  0  0
    5.8568   -3.3917  -20.4036 C   0  0  0  0  0  0  0  0  0  0  0  0
    4.2055   -2.0583  -19.1970 C   0  0  0  0  0  0  0  0  0  0  0  0
    5.1613    0.4085  -20.5972 C   0  0  0  0  0  0  0  0  0  0  0  0
    5.9851    7.7692  -24.5331 C   0  0  0  0  0  0  0  0  0  0  0  0
    5.1574    5.9190  -25.8550 C   0  0  0  0  0  0  0  0  0  0  0  0
    6.6510   -0.9210  -21.8616 C   0  0  0  0  0  0  0  0  0  0  0  0
    3.8423   -3.1889  -18.4468 C   0  0  0  0  0  0  0  0  0  0  0  0
    5.2268   -2.1460  -20.1722 C   0  0  0  0  0  0  0  0  0  0  0  0
    5.6741   -0.9383  -20.8901 C   0  0  0  0  0  0  0  0  0  0  0  0
    5.5417    7.2652  -25.7696 C   0  0  0  0  0  0  0  0  0  0  0  0
    5.8036    1.3817  -21.3113 C   0  0  0  0  0  0  0  0  0  0  0  0
    5.6585    5.6682  -23.5842 C   0  0  0  0  0  0  0  0  0  0  0  0
    6.7851    3.6192  -19.1453 C   0  0  0  0  0  0  0  0  0  0  0  0
    4.3697    3.3662  -19.0815 C   0  0  0  0  0  0  0  0  0  0  0  0
    6.5267    5.0430  -21.2587 C   0  0  0  0  0  0  0  0  0  0  0  0
    5.3070    3.4223  -22.5852 C   0  0  0  0  0  0  0  0  0  0  0  0
    6.7267    3.6369  -20.6783 C   0  0  2  0  0  0  0  0  0  0  0  0
    5.5141    2.8597  -21.1994 C   0  0  2  0  0  0  0  0  0  0  0  0
    5.6316    3.4916  -16.9284 C   0  0  0  0  0  0  0  0  0  0  0  0
    2.0073   -2.9683  -16.6268 N   0  0  0  0  0  0  0  0  0  0  0  0
    6.0436    6.9597  -23.4572 N   0  0  0  0  0  0  0  0  0  0  0  0
    5.2157    5.1447  -24.7595 N   0  0  0  0  0  0  0  0  0  0  0  0
    5.7188    4.8269  -22.4933 N   0  0  0  0  0  0  0  0  0  0  0  0
    5.6057    3.4363  -18.4072 N   0  0  0  0  0  0  0  0  0  0  0  0
    4.3057    3.1550  -20.3754 N   0  0  0  0  0  0  0  0  0  0  0  0
    3.1730    3.5190  -18.3939 N   0  0  0  0  0  0  0  0  0  0  0  0
    7.8546    3.8506  -18.5926 O   0  0  0  0  0  0  0  0  0  0  0  0
    5.4876    8.0614  -26.8572 F   0  0  0  0  0  0  0  0  0  0  0  0
    7.0070    0.6905  -22.3755 S   0  0  0  0  0  0  0  0  0  0  0  0
    5.9738   -5.4698  -19.8332 H   0  0  0  0  0  0  0  0  0  0  0  0
    4.2087   -5.2893  -18.0912 H   0  0  0  0  0  0  0  0  0  0  0  0
    6.6245   -3.4741  -21.1588 H   0  0  0  0  0  0  0  0  0  0  0  0
    3.7026   -1.1174  -19.0287 H   0  0  0  0  0  0  0  0  0  0  0  0
    4.3650    0.6070  -19.8952 H   0  0  0  0  0  0  0  0  0  0  0  0
    6.2787    8.8048  -24.4461 H   0  0  0  0  0  0  0  0  0  0  0  0
    4.8173    5.5085  -26.7943 H   0  0  0  0  0  0  0  0  0  0  0  0
    7.1340   -1.8041  -22.2532 H   0  0  0  0  0  0  0  0  0  0  0  0
    5.9853    5.6837  -20.5471 H   0  0  0  0  0  0  0  0  0  0  0  0
    7.4951    5.5037  -21.5036 H   0  0  0  0  0  0  0  0  0  0  0  0
    5.9281    2.8849  -23.3169 H   0  0  0  0  0  0  0  0  0  0  0  0
    4.2492    3.3484  -22.8778 H   0  0  0  0  0  0  0  0  0  0  0  0
    7.6490    3.1981  -21.0868 H   0  0  0  0  0  0  0  0  0  0  0  0
    4.6171    3.3260  -16.5369 H   0  0  0  0  0  0  0  0  0  0  0  0
    6.3047    2.7110  -16.5442 H   0  0  0  0  0  0  0  0  0  0  0  0
    5.9928    4.4789  -16.6048 H   0  0  0  0  0  0  0  0  0  0  0  0
    3.4136    3.1933  -20.8258 H   0  0  0  0  0  0  0  0  0  0  0  0
    2.3037    3.4667  -18.8854 H   0  0  0  0  0  0  0  0  0  0  0  0
    3.1805    3.6815  -17.4072 H   0  0  0  0  0  0  0  0  0  0  0  0
  1 10  1  0
  1 23  3  0
  2  3  2  0
  2  4  1  0
  3 10  1  0
  4 11  2  0
  5 10  2  0
  5 11  1  0
  6 12  1  0
  6 14  2  0
  7 13  2  0
  7 24  1  0
  8 13  1  0
  8 25  2  0
  9 12  2  0
  9 32  1  0
 11 12  1  0
 13 31  1  0
 21 14  1  6
 14 32  1  0
 15 24  2  0
 15 25  1  0
 15 26  1  0
 16 20  1  0
 16 27  1  0
 16 30  2  0
 17 27  1  0
 17 28  2  0
 17 29  1  0
 18 20  1  0
 18 26  1  0
 19 21  1  0
 19 26  1  0
 20 21  1  0
 21 28  1  0
 22 27  1  0
  2 33  1  0
  3 34  1  0
  4 35  1  0
  5 36  1  0
  6 37  1  0
  7 38  1  0
  8 39  1  0
  9 40  1  0
 18 41  1  0
 18 42  1  0
 19 43  1  0
 19 44  1  0
 20 45  1  6
 22 46  1  0
 22 47  1  0
 22 48  1  0
 28 49  1  0
 29 50  1  0
 29 51  1  0
M  CHG  1  28   1
M  END
>  <OMEGA_C>  (5) 
BDc1QE6mRMBSjovBc5ivQES2kMBHPJ3BUYWPQDJ/jcBdYJXB8mq7QPgQWcCqOqPBGZOGQCq7A8CC
k5nBoSmlQPkh0T4Jx6TBGIa/QOSc+EC7Q8TBfQmlQLtovUAO187B5dTUQLrGa7+S5K7BZuh1QCAW
TMAbk5PBNUKnQDRYCcDAYKHBapK1QHw1cL/mHqfB5lWxQN186EA2KM7B2La5QKDbsD96farBUxK1
QCJitUCArLzBjh/ZQOygZ0CrKZnBRtSLQBxwV0DSppjBu9rQQAZgoUDQEarBptKpQOUGW0CKrrTB
DEHXQALDaEBCbaXBcXOwQO8EN0BemKnBaTa0QDl2X0BgbYfBfHcAQHD4PcCuA4XB8GTBQBK23kA/
qLvBCOemQKehpECAE8bBLQC3QMp1mkAv8rPBimGzQCLtW0DbQZPB5MeJQNfqSUDPAKPBKBJLQB04
YUCoJpPB/Fj7QJJwdkCVvZTBiZqvQEv7AEGT29bBAzngQKzDMD8BAbPBRym/QIUIr8Beqp7Bw62G
QCpCqcC+upDBr/vTQFxYXsBBRanBjfdsQJYIj7+wOpjB2K2LQMlkGz9cKZ/B9OrIQKPgDEGbkcPB
kSeaQPBFsECxWtbBiEnkQNLr5r91BrLBy4e/QDXhtUCGYKTBqNfvQC0esEByB6zBZbO9QLqiOEAK
ibrBH/mHQNNMVkC5BbfBZMT0QPSsTEC0sajBU7+TQKjcVECNS4TBesDJQOGALUCSWoTBp8S/QIRT
j0Cb1oTBGXlaQLpfTEAym6bBvG8TQLPdXUBKFZfB4IxLQM6da0DsQYvBL9w0QHDWQ8DttYvBsA+w
QCRBkMDXMp3B8sKPQPEFjcAZZpXBJqO7QG14WMDgR6PBNSGGQPBjA8DW0ZnBoaSkQGic0T7PBaXB
V12mQKLmu0Bd5M7BHjrAQFDD90Duc8TBOU3VQO4nab8O6q7B7Yl1QJVqS8CrupPBzQanQKwFCcCQ
kaHBDWq1QC4Wb7+LTafBwwGzQAHm5kCSWs7B7/O5QBy2sT8NfKrBKEm0QCRPtUCWlLzB21XZQEQv
aECWJZnBsBSMQCVrV0DkjpjBHWvQQIDBoUCTB6rBHM2pQKc9W0A6lLTBFz7XQACAaUDfZ6XBVI2w
QAFNN0DFhqnBs8a0QKBTX0AfYIfBBT8AQDsaPcAwJ4XBa/mmQMrmo0D8/MXBdd7AQDeb3kBesrvB
P2C1QAH6mkB8urPBsbazQPYlXEBKNJPB1eiJQN3WSUAR6KLBHLdLQBIRYUDsBZPB3qD7QBYFd0B8
wpTBHGayQIqd/0CrMtfBtiLhQLWHND862bLB2/2/QOl3rsDkg57BLxKHQJatqMDQsZDB01rUQLfJ
XcBfSKnB5VxrQNDRjr+BlZjBkV6KQHwJGj/rn5/BfzicQAI1rkCZaNbBVtzJQIRvDEHW3sPBIfHk
QFFP5b8gCLLBpdW/QEVXtkD6N6TBMTjvQE5hsEA3N6zBKYe+QGePOkDNZrrBVCmIQGdHVED4BLfB
Esr0QADhTUA6t6jBUWKUQJGAVEBSNYTB6mzKQG5cLUBBWoTBFVLAQPQ9j0BRxYTBPp9aQPj+S0BU
fKbBFPkTQC6UXUD17ZbBjmdMQK+Aa0B0IYvB

>  <OMEGA_E>  (5) 
oKYVPsAoGT4=

>  <OMEGA_NBR>  (5) 
     24957

$$$$
50220716
     RDKit          3D

 53 57  0  0  1  0  0  0  0  0999 V2000
    2.8628   -3.0844  -17.3214 C   0  0  0  0  0  0  0  0  0  0  0  0
    4.8805    4.2202  -25.6327 C   0  0  0  0  0  0  0  0  0  0  0  0
    5.5400   -4.5366  -19.5008 C   0  0  0  0  0  0  0  0  0  0  0  0
    5.7217    7.8117  -25.5402 C   0  0  0  0  0  0  0  0  0  0  0  0
    4.5342   -4.4315  -18.5233 C   0  0  0  0  0  0  0  0  0  0  0  0
    5.2988    6.5522  -25.9727 C   0  0  0  0  0  0  0  0  0  0  0  0
    5.8896   -3.4172  -20.2763 C   0  0  0  0  0  0  0  0  0  0  0  0
    4.2135   -2.0842  -19.1044 C   0  0  0  0  0  0  0  0  0  0  0  0
    5.1149    0.3707  -20.5995 C   0  0  0  0  0  0  0  0  0  0  0  0
    6.1124    7.9813  -24.2039 C   0  0  0  0  0  0  0  0  0  0  0  0
    6.6463   -0.9752  -21.7952 C   0  0  0  0  0  0  0  0  0  0  0  0
    3.8702   -3.2047  -18.3270 C   0  0  0  0  0  0  0  0  0  0  0  0
    5.2754    5.4792  -25.0673 C   0  0  0  0  0  0  0  0  0  0  0  0
    5.2367   -2.1765  -20.0778 C   0  0  0  0  0  0  0  0  0  0  0  0
    5.6598   -0.9786  -20.8332 C   0  0  0  0  0  0  0  0  0  0  0  0
    5.7345    1.3293  -21.3588 C   0  0  0  0  0  0  0  0  0  0  0  0
    5.6875    5.7159  -23.7067 C   0  0  0  0  0  0  0  0  0  0  0  0
    6.7447    3.5861  -19.2599 C   0  0  0  0  0  0  0  0  0  0  0  0
    4.3316    3.3408  -19.1585 C   0  0  0  0  0  0  0  0  0  0  0  0
    6.4489    4.9747  -21.3803 C   0  0  0  0  0  0  0  0  0  0  0  0
    5.2245    3.3695  -22.7195 C   0  0  0  0  0  0  0  0  0  0  0  0
    6.6596    3.5844  -20.7946 C   0  0  2  0  0  0  0  0  0  0  0  0
    5.4398    2.8146  -21.3014 C   0  0  2  0  0  0  0  0  0  0  0  0
    5.6284    3.5064  -17.0213 C   0  0  0  0  0  0  0  0  0  0  0  0
    2.0438   -2.9786  -16.4986 N   0  0  0  0  0  0  0  0  0  0  0  0
    4.5571    3.2482  -26.1903 N   0  0  0  0  0  0  0  0  0  0  0  0
    6.0870    6.9577  -23.3272 N   0  0  0  0  0  0  0  0  0  0  0  0
    5.7670    4.7446  -22.6953 N   0  0  0  0  0  0  0  0  0  0  0  0
    5.5772    3.4232  -18.5006 N   0  0  0  0  0  0  0  0  0  0  0  0
    4.2471    3.1294  -20.4548 N   0  0  0  0  0  0  0  0  0  0  0  0
    3.1456    3.4835  -18.4498 N   0  0  0  0  0  0  0  0  0  0  0  0
    7.8239    3.8204  -18.7269 O   0  0  0  0  0  0  0  0  0  0  0  0
    6.9619    0.6211  -22.3808 S   0  0  0  0  0  0  0  0  0  0  0  0
    6.0447   -5.4787  -19.6559 H   0  0  0  0  0  0  0  0  0  0  0  0
    5.7473    8.6449  -26.2268 H   0  0  0  0  0  0  0  0  0  0  0  0
    4.2711   -5.2904  -17.9238 H   0  0  0  0  0  0  0  0  0  0  0  0
    4.9917    6.4048  -26.9975 H   0  0  0  0  0  0  0  0  0  0  0  0
    6.6605   -3.5042  -21.0277 H   0  0  0  0  0  0  0  0  0  0  0  0
    3.6939   -1.1489  -18.9579 H   0  0  0  0  0  0  0  0  0  0  0  0
    4.3145    0.5813  -19.9056 H   0  0  0  0  0  0  0  0  0  0  0  0
    6.4411    8.9543  -23.8697 H   0  0  0  0  0  0  0  0  0  0  0  0
    7.1593   -1.8605  -22.1410 H   0  0  0  0  0  0  0  0  0  0  0  0
    5.8145    5.5811  -20.7171 H   0  0  0  0  0  0  0  0  0  0  0  0
    7.4138    5.4815  -21.5290 H   0  0  0  0  0  0  0  0  0  0  0  0
    5.7635    2.7571  -23.4573 H   0  0  0  0  0  0  0  0  0  0  0  0
    4.1529    3.3839  -22.9675 H   0  0  0  0  0  0  0  0  0  0  0  0
    7.5755    3.1412  -21.2126 H   0  0  0  0  0  0  0  0  0  0  0  0
    4.6198    3.3534  -16.6098 H   0  0  0  0  0  0  0  0  0  0  0  0
    6.3042    2.7299  -16.6336 H   0  0  0  0  0  0  0  0  0  0  0  0
    5.9995    4.4979  -16.7226 H   0  0  0  0  0  0  0  0  0  0  0  0
    3.3490    3.1814  -20.8917 H   0  0  0  0  0  0  0  0  0  0  0  0
    2.2683    3.4244  -18.9261 H   0  0  0  0  0  0  0  0  0  0  0  0
    3.1690    3.6453  -17.4632 H   0  0  0  0  0  0  0  0  0  0  0  0
  1 12  1  0
  1 25  3  0
  2 13  1  0
  2 26  3  0
  3  5  2  0
  3  7  1  0
  4  6  2  0
  4 10  1  0
  5 12  1  0
  6 13  1  0
  7 14  2  0
  8 12  2  0
  8 14  1  0
  9 15  1  0
  9 16  2  0
 10 27  2  0
 11 15  2  0
 11 33  1  0
 13 17  2  0
 14 15  1  0
 23 16  1  6
 16 33  1  0
 17 27  1  0
 17 28  1  0
 18 22  1  0
 18 29  1  0
 18 32  2  0
 19 29  1  0
 19 30  2  0
 19 31  1  0
 20 22  1  0
 20 28  1  0
 21 23  1  0
 21 28  1  0
 22 23  1  0
 23 30  1  0
 24 29  1  0
  3 34  1  0
  4 35  1  0
  5 36  1  0
  6 37  1  0
  7 38  1  0
  8 39  1  0
  9 40  1  0
 10 41  1  0
 11 42  1  0
 20 43  1  0
 20 44  1  0
 21 45  1  0
 21 46  1  0
 22 47  1  6
 24 48  1  0
 24 49  1  0
 24 50  1  0
 30 51  1  0
 31 52  1  0
 31 53  1  0
M  CHG  1  30   1
M  END
>  <OMEGA_C>  (6) 
qjg3QCdnRcArkorBKi2cQHkLh0DLD83B3UexQIkrkcCeAZzB1Be3QIL5+UBAUszB+ReRQIXOjcCs
L5TBuo+pQOCr0UAIyM/ByHe8QBy0WsDnNaLBC9WGQBJkBcDJ1ZjBA62jQFTGvT7Ly6TB15jDQCBn
/0CXocHBb67UQA2meb+cXK7B1LF3QOgZTcCanZLBzM+oQMVVr0C+icjBr5KnQDZMC8A8n6DBKh21
QAmHer9wqqbBDIG3QNgnqj/O3qrB0v+1QJ3otkBAp73BVNTXQPWCZUA0FJrBwpyKQMvPVUCZRJnB
Kl3OQFYwn0DdCqvB/S6nQImmV0B0wbXBMBvVQFJmZUBaW6bBthKuQAQiNEBIaarBxRu0QKBpYECl
K4jBFc4CQMOhPsA4/YPBGNSRQCXiT0C0hdHB+MjCQFGl3kAKnrrB/4q4QHrTl0Dxj7XBtXiyQEMV
W0BSAZTB/OeHQF9ISEB9o6PB7VBJQJPxXkAfmZPBxF36QDmCdEC+0JXB4sfeQNABHz/6C7PB5m3B
QMhRr8A/P53BH+q3QJdRCkGH0NHBMK2IQE1LqcD2Y4/BA7yfQE30zED4+tfBySLVQBZEYMDEOKjB
GmhsQBYOk7/SqZfBgRCKQObMFD+2Pp/ByB3OQM5ED0En9b7B1RjlQIgj7r+zILHBnhC6QIqYskCu
vKXBpD3tQBdor0BoO6zBS264QJl0MECZqLvBqeSEQO2RWEBwvbfBgGryQMkJSUBUs6nBatWTQJud
VkDu4ITBxbvJQLK2LkCtEYXBGfy/QBHvj0Dux4XBulZWQGmbS0AxIqfBdCsRQBAqW0CfaJfBatBK
QBxMaUCrtIvBZis0QPLQRsDrgIzB5TzNQB5G+UDkkLXBvbmvQJpyj8CIXJ7BM62sQPDQ3EBYS9HB
Q1iPQLBRjcD7jpbBfTi7QHpc9EAAdcjB1Y27QB0IVcC4DqTBoPiFQJ6nAsACQ5rB0oukQKgR8z66
vqTBsleiQIZysUDB+s/BkfnVQHwDT7/2v67BUNd0QEBwTMCHipTBjUu/QIwT4ECadr7B3wynQJkD
BsA696HB2qG1QEI5XL8kRqfB8tm5QMpFvD/IAKrBuFW0QKIBtEAcnL3BoorZQLOWbUB24JjBeWeM
QAvUW0BP+JfB3zHQQL76o0CbHqrBhfmnQNG7XkDiJbTBbd/WQIWrbkBYM6XBtfCvQAlrPEC9EKnB
jBu2QJFUYEBe8IbBbTD/P+pKQcCq7IXB6bTYQKwHB0FgX67BEx2mQNY1nkDPYcbBAw22QBZEnEBI
ErTB9lK0QNdwYEDSx5LBOrWJQHcQT0AdUaLBoe5MQKWvY0AZRJLBjYX8QDHjdkBsl5TB6MLhQI7/
UD/xUbLBz4O/QOqArcD6+Z/BkXipQLDp60BkBtnBzoqGQH+iqcDbHpLBEDrDQNDmCkEJUsnB7GDU
QGeVWMBcDarB6wZrQDQdjr9UxZjBsSWKQC2+JT+/V5/B8jCXQJszn0BexNbBm/XlQFWw1r9J+bHB
qtG+QAfjuECFh6TB3CDvQFKpskDjKKzB5na6QP/6OUCuD7rBRbWFQN3XWkD4GbbBHx/0QFkDUkDL
iajB696VQAARVUCRsoPBiMHLQJ5FLUA+N4TBUAjCQI1Jj0CVG4TBm+lZQLHwUUB0z6XBF8AUQCKR
X0AZEJbBn3tOQIN2bUC+XIrB

>  <OMEGA_E>  (6) 
GAOfPpiswj4=

>  <OMEGA_NBR>  (6) 
     27037

$$$$
50220713
     RDKit          3D

 56 60  0  0  1  0  0  0  0  0999 V2000
    2.8711   -3.0623  -17.3630 C   0  0  0  0  0  0  0  0  0  0  0  0
    5.5452   -4.5192  -19.5447 C   0  0  0  0  0  0  0  0  0  0  0  0
    6.0774    7.8964  -24.5073 C   0  0  0  0  0  0  0  0  0  0  0  0
    4.5447   -4.4113  -18.5614 C   0  0  0  0  0  0  0  0  0  0  0  0
    5.8857   -3.4041  -20.3305 C   0  0  0  0  0  0  0  0  0  0  0  0
    6.0869    7.0483  -23.3926 C   0  0  0  0  0  0  0  0  0  0  0  0
    5.6455    7.3865  -25.7431 C   0  0  0  0  0  0  0  0  0  0  0  0
    4.2089   -2.0717  -19.1583 C   0  0  0  0  0  0  0  0  0  0  0  0
    5.1230    0.3792  -20.6224 C   0  0  0  0  0  0  0  0  0  0  0  0
    6.6155   -0.9606  -21.8719 C   0  0  0  0  0  0  0  0  0  0  0  0
    3.8751   -3.1868  -18.3712 C   0  0  0  0  0  0  0  0  0  0  0  0
    5.2288   -2.1658  -20.1350 C   0  0  0  0  0  0  0  0  0  0  0  0
    5.6488   -0.9689  -20.8901 C   0  0  0  0  0  0  0  0  0  0  0  0
    5.7470    1.3461  -21.3637 C   0  0  0  0  0  0  0  0  0  0  0  0
    5.6551    5.7150  -23.5467 C   0  0  0  0  0  0  0  0  0  0  0  0
    5.2355    6.0399  -25.8394 C   0  0  0  0  0  0  0  0  0  0  0  0
    6.7597    3.5619  -19.1827 C   0  0  0  0  0  0  0  0  0  0  0  0
    4.3413    3.3411  -19.1183 C   0  0  0  0  0  0  0  0  0  0  0  0
    6.5262    4.9963  -21.2697 C   0  0  0  0  0  0  0  0  0  0  0  0
    5.2840    3.4264  -22.6228 C   0  0  0  0  0  0  0  0  0  0  0  0
    6.6973    3.5819  -20.7116 C   0  0  2  0  0  0  0  0  0  0  0  0
    5.4745    2.8293  -21.2441 C   0  0  2  0  0  0  0  0  0  0  0  0
    5.6067    3.5084  -16.9668 C   0  0  0  0  0  0  0  0  0  0  0  0
    4.5320    4.1399  -27.1415 C   0  0  0  0  0  0  0  0  0  0  0  0
    2.0541   -2.9518  -16.5389 N   0  0  0  0  0  0  0  0  0  0  0  0
    5.2413    5.2427  -24.7454 N   0  0  0  0  0  0  0  0  0  0  0  0
    5.6669    4.8411  -22.4755 N   0  0  0  0  0  0  0  0  0  0  0  0
    5.5786    3.4074  -18.4435 N   0  0  0  0  0  0  0  0  0  0  0  0
    4.2717    3.1276  -20.4128 N   0  0  0  0  0  0  0  0  0  0  0  0
    3.1471    3.5055  -18.4298 N   0  0  0  0  0  0  0  0  0  0  0  0
    7.8270    3.8149  -18.6349 O   0  0  0  0  0  0  0  0  0  0  0  0
    4.8345    5.5577  -27.0748 O   0  0  0  0  0  0  0  0  0  0  0  0
    6.9396    0.6445  -22.4320 S   0  0  0  0  0  0  0  0  0  0  0  0
    6.0527   -5.4604  -19.6961 H   0  0  0  0  0  0  0  0  0  0  0  0
    6.3966    8.9243  -24.4183 H   0  0  0  0  0  0  0  0  0  0  0  0
    4.2904   -5.2665  -17.9530 H   0  0  0  0  0  0  0  0  0  0  0  0
    6.6518   -3.4928  -21.0865 H   0  0  0  0  0  0  0  0  0  0  0  0
    6.4194    7.4098  -22.4307 H   0  0  0  0  0  0  0  0  0  0  0  0
    5.6273    8.0226  -26.6157 H   0  0  0  0  0  0  0  0  0  0  0  0
    3.6845   -1.1382  -19.0173 H   0  0  0  0  0  0  0  0  0  0  0  0
    4.3307    0.5836  -19.9175 H   0  0  0  0  0  0  0  0  0  0  0  0
    7.1094   -1.8455  -22.2453 H   0  0  0  0  0  0  0  0  0  0  0  0
    6.0372    5.6462  -20.5290 H   0  0  0  0  0  0  0  0  0  0  0  0
    7.5022    5.4230  -21.5443 H   0  0  0  0  0  0  0  0  0  0  0  0
    5.9321    2.9238  -23.3558 H   0  0  0  0  0  0  0  0  0  0  0  0
    4.2346    3.3400  -22.9410 H   0  0  0  0  0  0  0  0  0  0  0  0
    7.6132    3.1325  -21.1230 H   0  0  0  0  0  0  0  0  0  0  0  0
    4.5918    3.3602  -16.5693 H   0  0  0  0  0  0  0  0  0  0  0  0
    6.2763    2.7366  -16.5593 H   0  0  0  0  0  0  0  0  0  0  0  0
    5.9733    4.5034  -16.6744 H   0  0  0  0  0  0  0  0  0  0  0  0
    4.2273    3.8772  -28.1652 H   0  0  0  0  0  0  0  0  0  0  0  0
    5.4256    3.5611  -26.8650 H   0  0  0  0  0  0  0  0  0  0  0  0
    3.7138    3.9065  -26.4442 H   0  0  0  0  0  0  0  0  0  0  0  0
    3.3774    3.1666  -20.8586 H   0  0  0  0  0  0  0  0  0  0  0  0
    2.2768    3.4596  -18.9202 H   0  0  0  0  0  0  0  0  0  0  0  0
    3.1572    3.6699  -17.4435 H   0  0  0  0  0  0  0  0  0  0  0  0
  1 11  1  0
  1 25  3  0
  2  4  2  0
  2  5  1  0
  3  6  2  0
  3  7  1  0
  4 11  1  0
  5 12  2  0
  6 15  1  0
  7 16  2  0
  8 11  2  0
  8 12  1  0
  9 13  1  0
  9 14  2  0
 10 13  2  0
 10 33  1  0
 12 13  1  0
 22 14  1  6
 14 33  1  0
 15 26  2  0
 15 27  1  0
 16 26  1  0
 16 32  1  0
 17 21  1  0
 17 28  1  0
 17 31  2  0
 18 28  1  0
 18 29  2  0
 18 30  1  0
 19 21  1  0
 19 27  1  0
 20 22  1  0
 20 27  1  0
 21 22  1  0
 22 29  1  0
 23 28  1  0
 24 32  1  0
  2 34  1  0
  3 35  1  0
  4 36  1  0
  5 37  1  0
  6 38  1  0
  7 39  1  0
  8 40  1  0
  9 41  1  0
 10 42  1  0
 19 43  1  0
 19 44  1  0
 20 45  1  0
 20 46  1  0
 21 47  1  6
 23 48  1  0
 23 49  1  0
 23 50  1  0
 24 51  1  0
 24 52  1  0
 24 53  1  0
 29 54  1  0
 30 55  1  0
 30 56  1  0
M  CHG  1  29   1
M  END
>  <OMEGA_C>  (7) 
FcA3QEH8Q8BZ54rBcXKxQD2dkMB9W5zBUHrCQF2v/EDfDsTBd26RQPsojcDCfZTBa1e8QHLcWcDW
pKLBgsfCQNeL4UD9I7vBuae0QNtd7EDH8c3BWq+GQEWXBMBNRJnB2++jQJ4owj65+qTBILLTQLHp
db+Z+a7BYgJ4QEX1S8BA+JLBN1KnQIqcCsCEFKHBlMK0QIMLeL/mHqfBTee3QEpMrD/X6KrBeva0
QCPhtkCpX7zBMomnQBpHwUAmt87By0/YQG/1Y0AndpnB5OuKQPbTVUBd8pjBcNbQQL/hn0BFKKrB
qhapQJ9KW0By+7TBilDWQBo9ZUBmsaXBdy+vQIgTNUDa86nB/GmzQFaJYEAOvIfBUwaRQDF6hECx
IdnBrnUDQHTqPMCiT4TBy7inQIXEp0Cu9sXBAFe1QHLqmkDIzbPBlIOyQO0SWkBcjJPBg7GIQMUq
SEByTaPBTGpJQH9aYEBPcJPB93b6QF8ndEBXFJXBO7SaQKDYsUA3mdjBfBHeQPb6JD+2dLPBtq/B
QNK7rsC2kZ3BJLHMQATKDkG+WMPB50qJQIuHqMCzn4/BVNvUQLeKX8A5sajB0WvNQBYd7UAjcrPB
FBO0QHZcAEHc7NTB7s5rQAOwkb92I5jBe5WKQORnFT8NV5/BRYDjQPw37L9v9rHB0TDBQOittEB9
O6TBvRHwQNOIrUC0WqzBhtO9QDQfO0C+2LrB7IGHQAbCVUAth7fBn5/zQBB7SEDa+6jBFvCSQLYN
V0DTjYTBM9fIQL0kL0CKeYTB4SS/QBEckEAlZYXBV0aHQO0jeEBpUuHB3p6tQOvoY0Ca69bBiq9t
QHEEekDNjdPBHCdYQA2pSkB03qbBV7cRQKRpXUCaXJfBUg9KQFrgakBJjIvBhX8rQB/fUsBrT4vB
fxq3QKHXj8Am7pnBytPFQCAQykASUs/Bw3eTQOgZj8CBDZPBKXTBQDjvVsDIBaDBmV7JQAE7rEDL
/8bBqo2xQPBJ8UAMRc3BOd6EQMUbCsCoOZjB99+oQDf4yz74CKPBji7JQODGjL9dS6/BY4V0QDSX
U8CCNpLBOWqoQP+sC8DvOJ/BLFqzQCFUgL9YxaXBZ6y3QFChpT82kqrBOk25QHnutkBlx7zBOpuh
QPoR+kB61MLBAWjcQDasaEDJ0pnBWlKOQPlHYkDCe5nBoRHZQOzKnUDHUKvBqImuQFPpWEC0jrXB
0AvbQIE9YkADD6bBY6iyQJsoNEC1LKrBG0O2QNw/f0ASbojBCgqGQIZYH0EcpcjBrunfP0KkUsD8
r4XBhWWmQKoV3UCB3rrBFR67QASmmUDjerTBJ9y1QKC3akDFCJTB+UuMQKrGTEDMrKPBPYdPQKh6
b0A3IpTBngr/QIU4dUCZdpXBmUeMQCnOD0EMM8DBKxzSQAJg5z4c67TBGIDKQGBYrMB5h5rBcnbS
QOkAw0CYKtfBDmeLQIcdq8CHaY7Bt6rcQO11WMBVWKXBJizYQA1+jUDgYMjBXRKuQIlVBEGnktPB
VK5jQHpuob8be5fBSI+XQPkxMD8n7ZvBsnfTQKkMAsCa0bLB1BLNQOSctUCEkqXB8Pv4QIVsp0D+
I67BkQzEQJU9N0CLG7vBymGNQGOjU0AxcLjBBqr3QP86QEAz66jBgVuVQAjJfUBDT4XBr9LJQEG/
T0DjJ4TBYerDQFG2n0AAO4fBvq9pQEZQLUEndMXB2FSlQNxwJEF3xMvBYGlmQA4XGEFZIs/BwFZf
QKDoTED1P6fB8QwYQPKPaEALB5jBq6lPQCfef0CBZozB

>  <OMEGA_E>  (7) 
gI7rPS5BBj8=

>  <OMEGA_NBR>  (7) 
     29201

$$$$
50220721
     RDKit          3D

 51 55  0  0  1  0  0  0  0  0999 V2000
    2.8379   -3.0708  -17.4515 C   0  0  0  0  0  0  0  0  0  0  0  0
    5.4936   -4.5234  -19.6604 C   0  0  0  0  0  0  0  0  0  0  0  0
    4.4914   -4.4230  -18.6778 C   0  0  0  0  0  0  0  0  0  0  0  0
    5.8613   -3.3933  -20.4113 C   0  0  0  0  0  0  0  0  0  0  0  0
    5.5640    7.2576  -25.7819 C   0  0  0  0  0  0  0  0  0  0  0  0
    4.2005   -2.0637  -19.2143 C   0  0  0  0  0  0  0  0  0  0  0  0
    5.1568    0.4051  -20.6072 C   0  0  0  0  0  0  0  0  0  0  0  0
    5.1743    5.9112  -25.8600 C   0  0  0  0  0  0  0  0  0  0  0  0
    6.0059    7.7603  -24.5436 C   0  0  0  0  0  0  0  0  0  0  0  0
    6.6560   -0.9194  -21.8652 C   0  0  0  0  0  0  0  0  0  0  0  0
    3.8434   -3.1918  -18.4582 C   0  0  0  0  0  0  0  0  0  0  0  0
    5.2253   -2.1496  -20.1855 C   0  0  0  0  0  0  0  0  0  0  0  0
    5.6730   -0.9404  -20.9001 C   0  0  0  0  0  0  0  0  0  0  0  0
    5.8054    1.3815  -21.3112 C   0  0  0  0  0  0  0  0  0  0  0  0
    5.6485    5.6691  -23.5804 C   0  0  0  0  0  0  0  0  0  0  0  0
    6.7816    3.6190  -19.1440 C   0  0  0  0  0  0  0  0  0  0  0  0
    4.3665    3.3687  -19.0802 C   0  0  0  0  0  0  0  0  0  0  0  0
    6.5095    5.0491  -21.2535 C   0  0  0  0  0  0  0  0  0  0  0  0
    5.3053    3.4233  -22.5814 C   0  0  0  0  0  0  0  0  0  0  0  0
    6.7205    3.6416  -20.6769 C   0  0  2  0  0  0  0  0  0  0  0  0
    5.5122    2.8588  -21.1970 C   0  0  2  0  0  0  0  0  0  0  0  0
    5.6297    3.4896  -16.9266 C   0  0  0  0  0  0  0  0  0  0  0  0
    2.0192   -2.9582  -16.6294 N   0  0  0  0  0  0  0  0  0  0  0  0
    5.2176    5.1415  -24.7586 N   0  0  0  0  0  0  0  0  0  0  0  0
    6.0493    6.9567  -23.4615 N   0  0  0  0  0  0  0  0  0  0  0  0
    5.6809    4.8382  -22.4775 N   0  0  0  0  0  0  0  0  0  0  0  0
    5.6025    3.4364  -18.4054 N   0  0  0  0  0  0  0  0  0  0  0  0
    4.3025    3.1484  -20.3729 N   0  0  0  0  0  0  0  0  0  0  0  0
    3.1703    3.5345  -18.3951 N   0  0  0  0  0  0  0  0  0  0  0  0
    7.8522    3.8458  -18.5915 O   0  0  0  0  0  0  0  0  0  0  0  0
    7.0158    0.6945  -22.3698 S   0  0  0  0  0  0  0  0  0  0  0  0
    5.9812   -5.4706  -19.8380 H   0  0  0  0  0  0  0  0  0  0  0  0
    4.2193   -5.2890  -18.0926 H   0  0  0  0  0  0  0  0  0  0  0  0
    6.6322   -3.4746  -21.1634 H   0  0  0  0  0  0  0  0  0  0  0  0
    5.5255    7.8943  -26.6534 H   0  0  0  0  0  0  0  0  0  0  0  0
    3.6900   -1.1257  -19.0535 H   0  0  0  0  0  0  0  0  0  0  0  0
    4.3535    0.6006  -19.9122 H   0  0  0  0  0  0  0  0  0  0  0  0
    4.8415    5.4959  -26.7998 H   0  0  0  0  0  0  0  0  0  0  0  0
    6.3113    8.7928  -24.4599 H   0  0  0  0  0  0  0  0  0  0  0  0
    7.1411   -1.8010  -22.2575 H   0  0  0  0  0  0  0  0  0  0  0  0
    5.9796    5.6883  -20.5319 H   0  0  0  0  0  0  0  0  0  0  0  0
    7.4739    5.5104  -21.5128 H   0  0  0  0  0  0  0  0  0  0  0  0
    5.9474    2.9059  -23.3094 H   0  0  0  0  0  0  0  0  0  0  0  0
    4.2528    3.3245  -22.8855 H   0  0  0  0  0  0  0  0  0  0  0  0
    7.6448    3.2102  -21.0886 H   0  0  0  0  0  0  0  0  0  0  0  0
    4.6153    3.3245  -16.5345 H   0  0  0  0  0  0  0  0  0  0  0  0
    6.3023    2.7078  -16.5440 H   0  0  0  0  0  0  0  0  0  0  0  0
    5.9921    4.4762  -16.6019 H   0  0  0  0  0  0  0  0  0  0  0  0
    3.4095    3.1758  -20.8220 H   0  0  0  0  0  0  0  0  0  0  0  0
    2.3012    3.4843  -18.8872 H   0  0  0  0  0  0  0  0  0  0  0  0
    3.1778    3.7041  -17.4097 H   0  0  0  0  0  0  0  0  0  0  0  0
  1 11  1  0
  1 23  3  0
  2  3  2  0
  2  4  1  0
  3 11  1  0
  4 12  2  0
  5  8  2  0
  5  9  1  0
  6 11  2  0
  6 12  1  0
  7 13  1  0
  7 14  2  0
  8 24  1  0
  9 25  2  0
 10 13  2  0
 10 31  1  0
 12 13  1  0
 21 14  1  6
 14 31  1  0
 15 24  2  0
 15 25  1  0
 15 26  1  0
 16 20  1  0
 16 27  1  0
 16 30  2  0
 17 27  1  0
 17 28  2  0
 17 29  1  0
 18 20  1  0
 18 26  1  0
 19 21  1  0
 19 26  1  0
 20 21  1  0
 21 28  1  0
 22 27  1  0
  2 32  1  0
  3 33  1  0
  4 34  1  0
  5 35  1  0
  6 36  1  0
  7 37  1  0
  8 38  1  0
  9 39  1  0
 10 40  1  0
 18 41  1  0
 18 42  1  0
 19 43  1  0
 19 44  1  0
 20 45  1  6
 22 46  1  0
 22 47  1  0
 22 48  1  0
 28 49  1  0
 29 50  1  0
 29 51  1  0
M  CHG  1  28   1
M  END
>  <OMEGA_C>  (8) 
NqA1QF6HRMCmnIvBPcuvQPS/kMB0SJ3BNbmPQGiJjcARbJXB/4+7QD0rWcBcSqPBQAyyQKo+6EBH
Qc7BLWqGQGcUBMDatpnBVgSlQPRszz5/26TB1pOlQHAovUBE4c7BvjDAQAhU+EBlWcTB9v3UQClf
a7/r667Byfp1QExGTMB0qpPBADanQKqTCcDde6HBkYm1QNS9cL9sM6fB7MW5QFbVsD9ofarBTsC0
QJtptUCxpLzBgwLZQASeZ0DjJpnBdbqLQNGYV0BUpJjBHU7QQJ6SoUASB6rBScWpQLoXW0DPprTB
GQ7XQGwQaUBQaqXBkmOwQMn1NkCDk6nBnya0QMRVX0CgaYfB1joBQNdSPcAKCYXBz/amQEqHpECl
EcbB0ZPBQPac3kAzsbvBlcm1QF7SmkDW0bPBtEezQF/tW0BVPpPBFa6JQOZ/SUCk+6LBq+VKQDs1
YkBDKZPBbkX7QN4hdkBsu5TBz4HgQBrJMT9q9bLB9mW/QNUOr8BFtJ7BPASHQKQ/qcCmvZDBuTrU
QKhfXsCTTqnBztCwQEue/EAsOtXBYShsQMgWkL+KbZjB6U+LQBLCGT9FTJ/Bku2aQMPer0D5ZdbB
cvbJQEevDEHjrcPBHoTkQBCH5r9JD7LBK1m/QLEGtkBKQaTB6ynvQG9VsEBOGqzBglG+QKb5OUCq
ebrBKBeIQGPEVECPFbfB66H0QBxzTUCAtajBtrCTQGXEVECcRoTBuazJQPBMLUALWoTBHb+/QMM8
j0C/0ITBxTRaQJlAS0CHk6bBNUYTQE3/XkAGGZfBXmFLQJQPbUD7RovBEmQ2QIvtRcDyfIvBFb+w
QEE7kMCQJ53BwaSQQFVijcC9TJXBRUa8QNvAV8A8HaPBmiayQPA/6ECMYs7BtTCHQBNqA8CsZ5nB
GfCkQAiP2j68rqTBG0fAQMx2+ECpfcTB2K2lQJImvUCb+c7B0w3VQPhtZb8MvK7BmJh3QIg7TMBU
dJPBHM+nQLlbCMASO6HBmbm1QI0Na78U+6bB+YS5QFSUsz9hXqrBFsW0QDqstUBkurzBLtDYQEFt
aUDjLpnBQ0GLQJZfXEAOrZjBkFDQQH8sokCgGarBupypQMgDXEDNorTBHefWQPVsakDBbaXBUiyw
QDNrOECbhqnB9LOzQAGzZECObYfBDhgBQI1pQMDz/4TBIZnBQLDh3kB0z7vBJAynQM6ipECZJMbB
2be1QFlGm0Ds3rPB9p+yQNWhZkDfSJPB43GJQIx+S0DL9aLBUlpJQCu3YkAxOZPBfM77QKU7bkAo
ypTBFErgQMk+Nz+w1LLBd5DAQE5nrsDUm57BLvyHQBxLqcDHr5DB0tvUQAB8XMBqKKnBO+6wQL6H
/EDPX9XB6vRtQDvVjr+6/5fBbTmLQLoeHz+zH5/BYhfKQETADEGN2cPBIQubQEzDr0DJe9bBfKXk
QBd747+23LHBW3i/QBXUtkAQWqTB9TfvQP7DsEAqNazBPyS+QAuGOkAgbrrBkO6HQEazVUCiEbfB
V2z0QA1xTkCktKjBis6SQLWeYkC0ToTBnTzFQL6RK0BNvYTBhODDQMQ8j0BlcITBXLFZQEpsS0Cm
jKbBvSESQAOFWkCtIpfByABJQK16b0BdYovB

>  <OMEGA_E>  (8) 
UCMiPkChIj4=

>  <OMEGA_NBR>  (8) 
     31224

$$$$
50220717
     RDKit          3D

 52 56  0  0  1  0  0  0  0  0999 V2000
    2.8760   -3.0797  -17.3845 C   0  0  0  0  0  0  0  0  0  0  0  0
    5.1828    6.0629  -25.9566 C   0  0  0  0  0  0  0  0  0  0  0  0
    5.4824   -4.5319  -19.6493 C   0  0  0  0  0  0  0  0  0  0  0  0
    5.6368    7.3783  -25.7840 C   0  0  0  0  0  0  0  0  0  0  0  0
    4.5055   -4.4285  -18.6423 C   0  0  0  0  0  0  0  0  0  0  0  0
    5.8401   -3.4013  -20.4039 C   0  0  0  0  0  0  0  0  0  0  0  0
    5.1804    5.2098  -24.8498 C   0  0  0  0  0  0  0  0  0  0  0  0
    4.2333   -2.0593  -19.1479 C   0  0  0  0  0  0  0  0  0  0  0  0
    5.1037    0.3937  -20.6362 C   0  0  0  0  0  0  0  0  0  0  0  0
    6.0796    7.7992  -24.5119 C   0  0  0  0  0  0  0  0  0  0  0  0
    6.6326   -0.9312  -21.8580 C   0  0  0  0  0  0  0  0  0  0  0  0
    3.8788   -3.1916  -18.3953 C   0  0  0  0  0  0  0  0  0  0  0  0
    5.2224   -2.1525  -20.1556 C   0  0  0  0  0  0  0  0  0  0  0  0
    5.6465   -0.9490  -20.8958 C   0  0  0  0  0  0  0  0  0  0  0  0
    5.7618    1.3698  -21.3334 C   0  0  0  0  0  0  0  0  0  0  0  0
    5.6460    5.6874  -23.5964 C   0  0  0  0  0  0  0  0  0  0  0  0
    6.7607    3.5987  -19.1697 C   0  0  0  0  0  0  0  0  0  0  0  0
    4.3437    3.3566  -19.0953 C   0  0  0  0  0  0  0  0  0  0  0  0
    6.4921    5.0320  -21.2731 C   0  0  0  0  0  0  0  0  0  0  0  0
    5.2706    3.4199  -22.6019 C   0  0  0  0  0  0  0  0  0  0  0  0
    6.6936    3.6228  -20.7014 C   0  0  2  0  0  0  0  0  0  0  0  0
    5.4775    2.8504  -21.2189 C   0  0  2  0  0  0  0  0  0  0  0  0
    5.6196    3.4678  -16.9475 C   0  0  0  0  0  0  0  0  0  0  0  0
    2.0526   -2.9816  -16.5653 N   0  0  0  0  0  0  0  0  0  0  0  0
    6.0838    6.9603  -23.4508 N   0  0  0  0  0  0  0  0  0  0  0  0
    5.6766    4.8300  -22.5072 N   0  0  0  0  0  0  0  0  0  0  0  0
    5.5834    3.4241  -18.4264 N   0  0  0  0  0  0  0  0  0  0  0  0
    4.2737    3.1479  -20.3895 N   0  0  0  0  0  0  0  0  0  0  0  0
    3.1496    3.5069  -18.4026 N   0  0  0  0  0  0  0  0  0  0  0  0
    7.8350    3.8196  -18.6220 O   0  0  0  0  0  0  0  0  0  0  0  0
    6.9840    0.6800  -22.3768 S   0  0  0  0  0  0  0  0  0  0  0  0
    4.8431    5.7173  -26.9218 H   0  0  0  0  0  0  0  0  0  0  0  0
    5.9584   -5.4818  -19.8429 H   0  0  0  0  0  0  0  0  0  0  0  0
    5.6475    8.0642  -26.6183 H   0  0  0  0  0  0  0  0  0  0  0  0
    4.2364   -5.2968  -18.0592 H   0  0  0  0  0  0  0  0  0  0  0  0
    6.5898   -3.4860  -21.1767 H   0  0  0  0  0  0  0  0  0  0  0  0
    4.8267    4.1940  -24.9471 H   0  0  0  0  0  0  0  0  0  0  0  0
    3.7486   -1.1133  -18.9563 H   0  0  0  0  0  0  0  0  0  0  0  0
    4.2770    0.5874  -19.9688 H   0  0  0  0  0  0  0  0  0  0  0  0
    6.4233    8.8148  -24.3825 H   0  0  0  0  0  0  0  0  0  0  0  0
    7.1245   -1.8134  -22.2402 H   0  0  0  0  0  0  0  0  0  0  0  0
    5.9558    5.6687  -20.5541 H   0  0  0  0  0  0  0  0  0  0  0  0
    7.4604    5.4922  -21.5194 H   0  0  0  0  0  0  0  0  0  0  0  0
    5.8949    2.8879  -23.3348 H   0  0  0  0  0  0  0  0  0  0  0  0
    4.2134    3.3425  -22.8960 H   0  0  0  0  0  0  0  0  0  0  0  0
    7.6130    3.1848  -21.1172 H   0  0  0  0  0  0  0  0  0  0  0  0
    4.6057    3.3112  -16.5506 H   0  0  0  0  0  0  0  0  0  0  0  0
    6.2859    2.6764  -16.5736 H   0  0  0  0  0  0  0  0  0  0  0  0
    5.9945    4.4483  -16.6188 H   0  0  0  0  0  0  0  0  0  0  0  0
    3.3799    3.1898  -20.8361 H   0  0  0  0  0  0  0  0  0  0  0  0
    2.2784    3.4546  -18.8907 H   0  0  0  0  0  0  0  0  0  0  0  0
    3.1609    3.6674  -17.4156 H   0  0  0  0  0  0  0  0  0  0  0  0
  1 12  1  0
  1 24  3  0
  2  4  2  0
  2  7  1  0
  3  5  2  0
  3  6  1  0
  4 10  1  0
  5 12  1  0
  6 13  2  0
  7 16  2  0
  8 12  2  0
  8 13  1  0
  9 14  1  0
  9 15  2  0
 10 25  2  0
 11 14  2  0
 11 31  1  0
 13 14  1  0
 22 15  1  6
 15 31  1  0
 16 25  1  0
 16 26  1  0
 17 21  1  0
 17 27  1  0
 17 30  2  0
 18 27  1  0
 18 28  2  0
 18 29  1  0
 19 21  1  0
 19 26  1  0
 20 22  1  0
 20 26  1  0
 21 22  1  0
 22 28  1  0
 23 27  1  0
  2 32  1  0
  3 33  1  0
  4 34  1  0
  5 35  1  0
  6 36  1  0
  7 37  1  0
  8 38  1  0
  9 39  1  0
 10 40  1  0
 11 41  1  0
 19 42  1  0
 19 43  1  0
 20 44  1  0
 20 45  1  0
 21 46  1  6
 23 47  1  0
 23 48  1  0
 23 49  1  0
 28 50  1  0
 29 51  1  0
 29 52  1  0
M  CHG  1  28   1
M  END
>  <OMEGA_C>  (9) 
hhA4QJoZRcCNE4vBaNmlQF8DwkA0p8/Bc2+vQCcFkcCrMZ3BgGC0QEob7EC0Rc7BJC2QQAW2jcB8
I5XBN+K6QMmuWcArO6PBu8WlQNm2pkBTzMbBN3eHQHPLA8DQLpnB2FGjQDSUyT7kFqXBQozCQLuS
+UBfGMTBJz7UQCFgbr8d3a7BxD14QB9DTMCNKZPB5x2nQC3CCcCnPqHB+K+0QGrwcr+wKqfBf2C4
QKxWrz/BqqrBBKy0QNP+tUBoxbzBSFfYQBZRZkB/W5nBT/+KQDbTVkA+w5jBpr/PQMUFoUA2L6rB
bKioQNffWkDF0LTBBTLWQEvbZ0B/nKXB6EevQHdtNkBQwKnB29OzQFbwXUBvlIfBb10DQPjSPsDM
hYTBd67CQBa73kA7m7vBuqa1QJ+PmkC+DrTBHauyQEgkW0A/aZPBxMGIQPd2SUCzHaPBjJJJQBRx
YECGOJPBoLj6QEN0dEDm+ZTB0XzfQDETLj/JA7PB5/qaQID0tkDwX9fB3Kq+QNpqr8Auvp7B/Le0
QMoGAUEx8tTBSpCHQAp/qcA/eZDBgN/SQM8aX8DdaanBVXSaQIA1hkC1k8fB1ulvQPyBjr+LppfB
Zt2IQMZgFj8PwJ/BW4vNQIkJDUFxD8PB3vvjQGsd6L/Z67HBKJa+QCBmtUDJbqTBUbvuQEDAr0DP
J6zB3qK8QInSOEC8rbrBS9SGQDjsVUD3KrfB6J3zQBvUS0AG8KjBNmKTQOHqU0CMZ4TB5SXJQBVK
K0C9loTBC9O/QK1YjkBd84TBaFBYQAAmTEBbsKbBmdARQAAYXUAtIJfB2UtKQAS3akA3U4vB0RE1
QJ2RRMD//YvBlmS/QCw+90BjYsbBOp+vQOUZkMAPvJ3BX8mwQMJC40BRyM/BfcWPQEcRjcCz0JXB
0xa7QMOyV8DVvaPBqhPBQKV330As3rzBhz6GQMAFA8AKAJrBab+kQHIK3D4k/KTBehCkQB4VuECt
b8/BIWfVQIlHYb/s+q7B1+l1QAeGS8DJ/pPBAdmmQBQrCMAd06HBUGS1QCd3ab/eZ6fBN0y6QDQp
tT/cTqrBGdqzQNtXtEAFDb3ByGjZQDFWa0A2DpnBqTuMQINtWUCqX5jBWBnQQOHKokCUJ6rBiVCp
QHnRW0BicLTBBzTXQFf8a0CfWKXBkpqwQG34OECcWqnBlDq1QIHmYEBBOofBGAIAQJs9PsA+fIXB
eo6lQFS2oUBxOcbBw0u1QLQ3m0Bo6bPBv+uzQI3fXkB0EJPB9P+JQNNGS0ALtaLBuBRMQPnBYkC6
z5LBuOD7QPXgeEA4sJTBnprhQCGJPT9RsbLB2yrJQNAxDEFHfcbBCEq/QK9XrsBjM5/BrVivQPXn
9EDnM9fBsUqHQP3aqMDTIpHBkW/TQOq2XMBp16nBzUvMQNvw7UBfirXBvuprQHITjr+mo5jBomaK
QPSkHT9ZmJ/BnPOYQGaoqEDOptbB8+vkQHTy4L+kMbLBUSy/QECOt0AhcqTBp9XuQIaPsUB+VqzB
5nq9QKbiOUDWRbrBbHqHQAUfVUAyt7bBPcX0QPZLUEDGoqjBQ+SUQGzjVUAUCYTBY+TKQM+QLkDz
ToTB5eLAQADhj0DNioTBWbBaQFjRTEBGQ6bBd0IUQHmfXkCzsJbBLehMQBqcbUCO7YrB

>  <OMEGA_E>  (9) 
GK1zPkirhz4=

>  <OMEGA_NBR>  (9) 
     33275

$$$$
50220728
     RDKit          3D

 55 59  0  0  1  0  0  0  0  0999 V2000
    2.8341   -3.0615  -17.4840 C   0  0  0  0  0  0  0  0  0  0  0  0
    5.5025   -4.5036  -19.6841 C   0  0  0  0  0  0  0  0  0  0  0  0
    5.9076    7.7566  -24.7657 C   0  0  0  0  0  0  0  0  0  0  0  0
    4.4971   -4.4060  -18.7045 C   0  0  0  0  0  0  0  0  0  0  0  0
    5.8597   -3.3758  -20.4432 C   0  0  0  0  0  0  0  0  0  0  0  0
    5.4528    7.1006  -25.9298 C   0  0  0  0  0  0  0  0  0  0  0  0
    6.0218    7.0253  -23.5698 C   0  0  0  0  0  0  0  0  0  0  0  0
    4.1864   -2.0527  -19.2555 C   0  0  0  0  0  0  0  0  0  0  0  0
    5.1626    0.4212  -20.6218 C   0  0  0  0  0  0  0  0  0  0  0  0
    6.6371   -0.9042  -21.9092 C   0  0  0  0  0  0  0  0  0  0  0  0
    3.8373   -3.1796  -18.4937 C   0  0  0  0  0  0  0  0  0  0  0  0
    5.2146   -2.1359  -20.2238 C   0  0  0  0  0  0  0  0  0  0  0  0
    5.6631   -0.9256  -20.9350 C   0  0  0  0  0  0  0  0  0  0  0  0
    5.8108    1.3989  -21.3236 C   0  0  0  0  0  0  0  0  0  0  0  0
    5.1106    5.7275  -25.8578 C   0  0  0  0  0  0  0  0  0  0  0  0
    5.6453    5.6681  -23.5803 C   0  0  0  0  0  0  0  0  0  0  0  0
    6.7891    3.6546  -19.1430 C   0  0  0  0  0  0  0  0  0  0  0  0
    4.3695    3.4058  -19.0873 C   0  0  0  0  0  0  0  0  0  0  0  0
    6.5685    5.0616  -21.2663 C   0  0  0  0  0  0  0  0  0  0  0  0
    5.3218    3.4439  -22.5631 C   0  0  0  0  0  0  0  0  0  0  0  0
    6.7425    3.6541  -20.6724 C   0  0  2  0  0  0  0  0  0  0  0  0
    5.5276    2.8773  -21.1909 C   0  0  2  0  0  0  0  0  0  0  0  0
    5.6221    3.5955  -16.9326 C   0  0  0  0  0  0  0  0  0  0  0  0
    4.6923    4.8976  -27.0568 C   0  0  0  0  0  0  0  0  0  0  0  0
    2.0197   -2.9533  -16.6570 N   0  0  0  0  0  0  0  0  0  0  0  0
    5.1954    5.0701  -24.6989 N   0  0  0  0  0  0  0  0  0  0  0  0
    5.7182    4.8577  -22.4674 N   0  0  0  0  0  0  0  0  0  0  0  0
    5.6021    3.5034  -18.4091 N   0  0  0  0  0  0  0  0  0  0  0  0
    4.3141    3.1644  -20.3749 N   0  0  0  0  0  0  0  0  0  0  0  0
    3.1661    3.5594  -18.4115 N   0  0  0  0  0  0  0  0  0  0  0  0
    7.8589    3.8806  -18.5890 O   0  0  0  0  0  0  0  0  0  0  0  0
    4.6612    5.6287  -28.1971 F   0  0  0  0  0  0  0  0  0  0  0  0
    3.4609    4.3669  -26.8265 F   0  0  0  0  0  0  0  0  0  0  0  0
    5.5752    3.8720  -27.2065 F   0  0  0  0  0  0  0  0  0  0  0  0
    7.0038    0.7107  -22.4036 S   0  0  0  0  0  0  0  0  0  0  0  0
    6.0007   -5.4469  -19.8530 H   0  0  0  0  0  0  0  0  0  0  0  0
    6.1642    8.8053  -24.7929 H   0  0  0  0  0  0  0  0  0  0  0  0
    4.2315   -5.2709  -18.1147 H   0  0  0  0  0  0  0  0  0  0  0  0
    6.6294   -3.4561  -21.1966 H   0  0  0  0  0  0  0  0  0  0  0  0
    5.3669    7.6379  -26.8627 H   0  0  0  0  0  0  0  0  0  0  0  0
    6.3885    7.4919  -22.6675 H   0  0  0  0  0  0  0  0  0  0  0  0
    3.6676   -1.1181  -19.1015 H   0  0  0  0  0  0  0  0  0  0  0  0
    4.3698    0.6164  -19.9149 H   0  0  0  0  0  0  0  0  0  0  0  0
    7.1119   -1.7861  -22.3133 H   0  0  0  0  0  0  0  0  0  0  0  0
    6.0709    5.7283  -20.5466 H   0  0  0  0  0  0  0  0  0  0  0  0
    7.5428    5.4877  -21.5478 H   0  0  0  0  0  0  0  0  0  0  0  0
    5.9512    2.9168  -23.2952 H   0  0  0  0  0  0  0  0  0  0  0  0
    4.2658    3.3599  -22.8594 H   0  0  0  0  0  0  0  0  0  0  0  0
    7.6636    3.2015  -21.0680 H   0  0  0  0  0  0  0  0  0  0  0  0
    4.6040    3.4515  -16.5419 H   0  0  0  0  0  0  0  0  0  0  0  0
    6.2844    2.8172  -16.5257 H   0  0  0  0  0  0  0  0  0  0  0  0
    5.9932    4.5865  -16.6321 H   0  0  0  0  0  0  0  0  0  0  0  0
    3.4222    3.1732  -20.8273 H   0  0  0  0  0  0  0  0  0  0  0  0
    2.3010    3.4848  -18.9076 H   0  0  0  0  0  0  0  0  0  0  0  0
    3.1645    3.7445  -17.4288 H   0  0  0  0  0  0  0  0  0  0  0  0
  1 11  1  0
  1 25  3  0
  2  4  2  0
  2  5  1  0
  3  6  2  0
  3  7  1  0
  4 11  1  0
  5 12  2  0
  6 15  1  0
  7 16  2  0
  8 11  2  0
  8 12  1  0
  9 13  1  0
  9 14  2  0
 10 13  2  0
 10 35  1  0
 12 13  1  0
 22 14  1  6
 14 35  1  0
 15 24  1  0
 15 26  2  0
 16 26  1  0
 16 27  1  0
 17 21  1  0
 17 28  1  0
 17 31  2  0
 18 28  1  0
 18 29  2  0
 18 30  1  0
 19 21  1  0
 19 27  1  0
 20 22  1  0
 20 27  1  0
 21 22  1  0
 22 29  1  0
 23 28  1  0
 24 32  1  0
 24 33  1  0
 24 34  1  0
  2 36  1  0
  3 37  1  0
  4 38  1  0
  5 39  1  0
  6 40  1  0
  7 41  1  0
  8 42  1  0
  9 43  1  0
 10 44  1  0
 19 45  1  0
 19 46  1  0
 20 47  1  0
 20 48  1  0
 21 49  1  6
 23 50  1  0
 23 51  1  0
 23 52  1  0
 29 53  1  0
 30 54  1  0
 30 55  1  0
M  CHG  1  29   1
M  END
>  <OMEGA_C>  (10) 
1mE1QBzvQ8Ar34vBkhSwQMgdkMAAeZ3BCAu9QAc2+EA3IMbBXOiPQPX9jMDaopXB8YK7QIgNWMC5
i6PBbn2uQF0440BRcM/B07LAQOTO4ED7jrzBAfeFQCpfA8BIC5rB9jOlQCCn1z6A+aTBA2PUQA97
Z78SRq/BOpZ1QOh9S8An85PB192mQB6zCMBbyqHBQDi1QITzbL/1eqfBL/K5QNENsz+plqrBuYmj
QAtIt0Cy3M7Bpqa0QFJhtUB8pLzBe0DZQD7kaUDfJJnBNNOLQPb3WUDDspjBSDHSQAL5oUBzIarB
NkyqQJhpXEAxgbTBL8LXQLzcaUAGYaXBWuKwQMAlOED+hqnBYOizQFwdZkDgdYfBlSeWQNG4nEBW
dNjBmEIBQBADPcCSQYXBUkCmQE8+okBsl8XBmPu2QKRym0A+vbPBvUSzQOA3YEDgRZPBwwyKQNiE
SkDk/6LBm6BKQGrMY0DBSpPB9Xv7QFRbeEA+tpTBTiiVQJ0etEC6k+HB/39dQJG9i0C+nNbBSGiy
QAzPd0DnptnBgR/gQALuNT+pOrPBfgXAQNVMrsDs0p7BdUHFQIjiDEH2V8bBumiHQNWqqMDi6pDB
1yPUQP8vXcCxkqnBa72rQAxq9EDn5tbBYW7MQKu970D/VrXBjblqQAEdj7/az5jBYdWLQG3PHT+0
UZ/BlJTjQOue5L+QgbLBBkXCQEVOt0CAX6TBpl7xQFubr0DqYazBGXC+QNasOkCSXLrBkIGIQPgH
V0Ac4LbBjjz1QOnkTEBTi6jBvVOTQNDlXEC7VYTBeBnJQGdMNECQNITBlMi/QKvEkkCYDoXBFQZb
QCYWS0A+nqbBcEMTQFUGX0C/QpfBlIdKQIWmb0AubovBtLLAQJgYtsCy9pjBZB4/QIEUYsC61JzB
esywQJ7twEDyMdDBr5ZyQK67lMDhUprBFQNlQPDwFcCSm6DBMhqtQO2L7EDNtM3BuWm2QOmXo0CD
2MfBx/G4QO4uWcCBfp/B3YKiQJOMoj6K5qTBO/bZQNIqh7/5p6vBQxWmQHxhksCNnJvB/VufQFFo
EcCTBqLBqs2zQDb0hb+hJ6bB7+S8QFGRoz+zSKnBFp6vQCTw+UAE4sLBNSy5QI66skD3Nr3B457a
QLn2bkC3C5nBHt6MQDfvXkDdQJnBDeTUQMxFn0BiqqrBq/SwQDjcUEBzFLXBjq/aQM0WZ0BqPqXB
oZ+0QI0FMkCwcanBodaxQJyrgUAAAIjBJkSqQMJ1FEHz3b/BqbnWQOT20sCa0ZbB8RW2QC8J3UCQ
8LrBg7a+QD3XlUCE47TBWW6zQJjhbEAIiZPBjMCMQHVOSED3aqPBaLNKQFZgaEC5O5TB91/8QKbJ
f0ATfJTBKvukQG0WIUF9osjB6obNQEI4G0E5d7rB9GOHQFy/FkFFdLnBrr7pQIvSCj/iOa/B8hL1
P6K7ZcBA25vBTVevQFottkD4ZdjB7HNVQHPXscCia5fBSYk9QO8pvr/2aqLBGF+oQAvkAUHs/dPB
hpy4QATBgUA5g8nBZjXbQFv4VcBgjKDB04eEQOQHCj9T/KDBetnrQECl+b8ZhK3BW0/BQKWLtEBw
paXBfiH0QJdSrkCSLazBc/3FQGcKK0BtUbrBg7ePQGeZS0CJ5rfBHN/4QCrgSUBB66fBSrWQQPIS
fkDJGYXBi2jGQIA8V0APdoPB6jq9QNWtokD544bB+H1hQPLsRUDPRqfBO7YUQGcSXkDrVJjBTfRH
QGp1eUD7h4zB

>  <OMEGA_E>  (10) 
4HCAPm7XMz8=

>  <OMEGA_NBR>  (10) 
     35411

$$$$
50220736
     RDKit          3D

 54 58  0  0  1  0  0  0  0  0999 V2000
    2.8627   -3.0434  -17.4581 C   0  0  0  0  0  0  0  0  0  0  0  0
    5.5128   -4.5111  -19.6642 C   0  0  0  0  0  0  0  0  0  0  0  0
    4.5159   -4.4026  -18.6770 C   0  0  0  0  0  0  0  0  0  0  0  0
    5.8592   -3.3937  -20.4428 C   0  0  0  0  0  0  0  0  0  0  0  0
    4.1898   -2.0607  -19.2603 C   0  0  0  0  0  0  0  0  0  0  0  0
    5.1433    0.3897  -20.6557 C   0  0  0  0  0  0  0  0  0  0  0  0
    6.0903    7.7044  -24.4813 C   0  0  0  0  0  0  0  0  0  0  0  0
    5.1650    5.8972  -25.8036 C   0  0  0  0  0  0  0  0  0  0  0  0
    6.6369   -0.9321  -21.9237 C   0  0  0  0  0  0  0  0  0  0  0  0
    3.8539   -3.1757  -18.4776 C   0  0  0  0  0  0  0  0  0  0  0  0
    5.2099   -2.1548  -20.2359 C   0  0  0  0  0  0  0  0  0  0  0  0
    5.6538   -0.9529  -20.9586 C   0  0  0  0  0  0  0  0  0  0  0  0
    5.6087    7.2264  -25.7138 C   0  0  0  0  0  0  0  0  0  0  0  0
    5.8094    1.3663  -21.3365 C   0  0  0  0  0  0  0  0  0  0  0  0
    5.6195    5.6416  -23.5306 C   0  0  0  0  0  0  0  0  0  0  0  0
    6.7740    3.6320  -19.1432 C   0  0  0  0  0  0  0  0  0  0  0  0
    4.3555    3.3960  -19.1047 C   0  0  0  0  0  0  0  0  0  0  0  0
    6.5418    5.0137  -21.2640 C   0  0  0  0  0  0  0  0  0  0  0  0
    5.3229    3.3986  -22.5755 C   0  0  0  0  0  0  0  0  0  0  0  0
    6.7314    3.6171  -20.6719 C   0  0  2  0  0  0  0  0  0  0  0  0
    5.5226    2.8373  -21.1989 C   0  0  2  0  0  0  0  0  0  0  0  0
    5.6284    8.1063  -26.9313 C   0  0  0  0  0  0  0  0  0  0  0  0
    5.5946    3.5804  -16.9415 C   0  0  0  0  0  0  0  0  0  0  0  0
    2.0576   -2.9226  -16.6239 N   0  0  0  0  0  0  0  0  0  0  0  0
    6.0868    6.9025  -23.4052 N   0  0  0  0  0  0  0  0  0  0  0  0
    5.1664    5.1297  -24.7056 N   0  0  0  0  0  0  0  0  0  0  0  0
    5.6524    4.8135  -22.4410 N   0  0  0  0  0  0  0  0  0  0  0  0
    5.5835    3.4862  -18.4173 N   0  0  0  0  0  0  0  0  0  0  0  0
    4.3053    3.1285  -20.3880 N   0  0  0  0  0  0  0  0  0  0  0  0
    3.1504    3.5859  -18.4423 N   0  0  0  0  0  0  0  0  0  0  0  0
    7.8345    3.8933  -18.5861 O   0  0  0  0  0  0  0  0  0  0  0  0
    7.0124    0.6829  -22.4079 S   0  0  0  0  0  0  0  0  0  0  0  0
    6.0128   -5.4550  -19.8238 H   0  0  0  0  0  0  0  0  0  0  0  0
    4.2585   -5.2599  -18.0726 H   0  0  0  0  0  0  0  0  0  0  0  0
    6.6232   -3.4815  -21.2011 H   0  0  0  0  0  0  0  0  0  0  0  0
    3.6673   -1.1264  -19.1173 H   0  0  0  0  0  0  0  0  0  0  0  0
    4.3313    0.5827  -19.9703 H   0  0  0  0  0  0  0  0  0  0  0  0
    6.4624    8.7152  -24.4013 H   0  0  0  0  0  0  0  0  0  0  0  0
    4.8261    5.4978  -26.7480 H   0  0  0  0  0  0  0  0  0  0  0  0
    7.1125   -1.8140  -22.3265 H   0  0  0  0  0  0  0  0  0  0  0  0
    6.0688    5.6838  -20.5310 H   0  0  0  0  0  0  0  0  0  0  0  0
    7.5082    5.4359  -21.5767 H   0  0  0  0  0  0  0  0  0  0  0  0
    5.9942    2.9093  -23.2966 H   0  0  0  0  0  0  0  0  0  0  0  0
    4.2798    3.2708  -22.9005 H   0  0  0  0  0  0  0  0  0  0  0  0
    7.6577    3.1716  -21.0635 H   0  0  0  0  0  0  0  0  0  0  0  0
    6.5915    7.9930  -27.4506 H   0  0  0  0  0  0  0  0  0  0  0  0
    4.8110    7.8151  -27.6073 H   0  0  0  0  0  0  0  0  0  0  0  0
    5.4970    9.1554  -26.6276 H   0  0  0  0  0  0  0  0  0  0  0  0
    4.5735    3.4404  -16.5570 H   0  0  0  0  0  0  0  0  0  0  0  0
    6.2516    2.8003  -16.5294 H   0  0  0  0  0  0  0  0  0  0  0  0
    5.9672    4.5705  -16.6402 H   0  0  0  0  0  0  0  0  0  0  0  0
    3.4139    3.1195  -20.8413 H   0  0  0  0  0  0  0  0  0  0  0  0
    2.2879    3.5169  -18.9438 H   0  0  0  0  0  0  0  0  0  0  0  0
    3.1447    3.7918  -17.4638 H   0  0  0  0  0  0  0  0  0  0  0  0
  1 10  1  0
  1 24  3  0
  2  3  2  0
  2  4  1  0
  3 10  1  0
  4 11  2  0
  5 10  2  0
  5 11  1  0
  6 12  1  0
  6 14  2  0
  7 13  2  0
  7 25  1  0
  8 13  1  0
  8 26  2  0
  9 12  2  0
  9 32  1  0
 11 12  1  0
 13 22  1  0
 21 14  1  6
 14 32  1  0
 15 25  2  0
 15 26  1  0
 15 27  1  0
 16 20  1  0
 16 28  1  0
 16 31  2  0
 17 28  1  0
 17 29  2  0
 17 30  1  0
 18 20  1  0
 18 27  1  0
 19 21  1  0
 19 27  1  0
 20 21  1  0
 21 29  1  0
 23 28  1  0
  2 33  1  0
  3 34  1  0
  4 35  1  0
  5 36  1  0
  6 37  1  0
  7 38  1  0
  8 39  1  0
  9 40  1  0
 18 41  1  0
 18 42  1  0
 19 43  1  0
 19 44  1  0
 20 45  1  6
 22 46  1  0
 22 47  1  0
 22 48  1  0
 23 49  1  0
 23 50  1  0
 23 51  1  0
 29 52  1  0
 30 53  1  0
 30 54  1  0
M  CHG  1  29   1
M  END
>  <OMEGA_C>  (11) 
NDc3QF3HQsA+qovBPGmwQNtakMBdUJ3B/4GQQGPijMCWapXBcn67QMQyWcDpiqPB3RKGQNLiA8AZ
FZrBGJakQLmDxz7GPqXBJOTCQKqK9kCp2cPBtkelQES2vECwbc7BG2HUQOCcbr+8Y6/BiKV2QEU/
S8A40pPBeLemQJHnCcA546HBhuu0QPbvc79Gq6fBQHqzQAY/50D0tc3Bgea5QKrjrj8+sarBLdOz
QK6HtECqPrzBjMTYQD1yaEA/JZnBQmCLQMJYWUB/1pjBklbRQFlwoEClHKrBXVWqQNiBWUCMmrTB
p2fXQEB+Z0D4X6XB8biwQDaWNUBgl6nBGxy0QImzAUFSc9fBjwazQMckZUA0iIfBUbADQFcLO8DG
/YTB/sbCQA7h3EDPPbvBXFOlQHkmpEAWpcXBFOC0QDIImkARh7PByquyQEEdX0CcVpPBrcSJQLo5
SECyGqPBzp9JQLR/ZUDqiZPB6LP6QM0reUBVsJTBlWXgQPzULj9xQ7PBCWnAQFiPrsArl57B7EWI
QNJQqMC3lJDBJfHTQKXQXsDim6nBaLRqQAIvkL8i8JjBppmKQHIrFT8yw5/B1cvOQFBxC0HQNcPB
Xm+aQP7tr0Dr+9XB9pnjQKQy6L+ynLLB7DPCQBHitUCRP6TBgEPwQB7zrUAAnazBttC/QDMyOkBg
X7rBb/SIQP9UUUBENLfBMQz1QMr6SkAggqjBW+3SQPPG/0DsmtvBePOZQKsV+kDC29zBP+evQFt8
EkFCBdXBJlqSQKMvXECndITB8AzIQNA4M0AdPITBGvO+QJ1BkkAqH4XBmX1aQOylR0DvuqbBeW0S
QCAUYUDPjJfBB0NJQEGsckDOtYvB6uk1QAxTQcA5yYvBESOxQL62j8DoBp3B4g+RQMwcjMDXK5XB
IQi8QOBaWMB4W6PBVyCGQB0GA8AYFJrB9MCkQBAJyz7FOqXB9VClQErKu0A+bs7BY93BQKhq9kDe
8MPBCxzUQJ7hbb9/eK/Beed2QNzxScB4vpPBQvimQBU5CcA60qHBJvi0QKZMcr8jrKfBQfCyQGCE
5kBNys3BA9u5QHl9rz9TvqrB4X+zQAODtEA4NrzB6FTZQHAgaUAeN5nBVfWLQGh9WED1wZjBawHS
QDlroECJOKrB6keqQG7iWUDpj7TBfcPXQMyDZ0Ayb6XBBuGwQFzmNUCFlqnBjr2zQGwZAUFEm9fB
1vSzQJxjaEChjofBpcYAQCYyOcALUoXBZXalQGuao0ArmMXBr+/BQGgR3UD4RbvBcKe0QDo8mkDl
drPBA2WzQCSoX0CjVpPB0B2KQByuSEDxDKPBg+BKQCSQYUDAV5PBjkL7QAQae0AP1ZTBCfXfQKQu
Lz+babPBJGjBQK/YrcAiMZ7BvgeJQI5Wp8AiPpDBVInUQOsyXsDsZ6nB0lpqQHK6jr/ZCZnBrP2K
QDZhFz9vr5/B09SaQN6TrkDD+NXBuT7NQJh7C0F2W8PBZzPjQEv/57+BtbLB3brDQHJEtkDgUKTB
IOzwQIVarUB86azBi7+/QPTbOkDDW7rBZ+KIQLx9UUAkI7fBLEX1QL51SkAFkqjBUheVQAigCUEw
WtjBEvLNQIbGDEH08dbBhMi4QDgT7kA5t97BY3GTQIbpXkBzZoTBAYbJQHsJOEDMHYTBE1W/QOlb
lEAZZIXBoRxbQIg/SUBxqKbBZ4YTQAkBXEBQTJfBIrxKQGOobUCofIvB

>  <OMEGA_E>  (11) 
qIoSPtBNFj4=

>  <OMEGA_NBR>  (11) 
     37519

$$$$
220608
     RDKit          3D

 51 54  0  0  1  0  0  0  0  0999 V2000
    4.5574   -2.3175  -20.1890 C   0  0  0  0  0  0  0  0  0  0  0  0
    7.1194   -0.6947  -22.3415 C   0  0  0  0  0  0  0  0  0  0  0  0
    6.3592   -1.6659  -21.6797 C   0  0  0  0  0  0  0  0  0  0  0  0
    6.8060    0.6589  -22.1847 C   0  0  0  0  0  0  0  0  0  0  0  0
    4.9529    0.0797  -20.6978 C   0  0  0  0  0  0  0  0  0  0  0  0
    5.2831   -1.2864  -20.8576 C   0  0  0  0  0  0  0  0  0  0  0  0
    5.7214    1.0673  -21.3694 C   0  0  0  0  0  0  0  0  0  0  0  0
    5.4296    7.3467  -25.4322 C   0  0  0  0  0  0  0  0  0  0  0  0
    6.0376    7.6862  -24.2046 C   0  0  0  0  0  0  0  0  0  0  0  0
    4.9722    6.0297  -25.6202 C   0  0  0  0  0  0  0  0  0  0  0  0
    5.7637    5.4883  -23.4869 C   0  0  0  0  0  0  0  0  0  0  0  0
    6.7244    3.2479  -19.1289 C   0  0  0  0  0  0  0  0  0  0  0  0
    4.2984    3.1373  -19.1082 C   0  0  0  0  0  0  0  0  0  0  0  0
    6.5590    4.7084  -21.1984 C   0  0  0  0  0  0  0  0  0  0  0  0
    5.2498    3.2073  -22.5914 C   0  0  0  0  0  0  0  0  0  0  0  0
    6.6874    3.2931  -20.6525 C   0  0  2  0  0  0  0  0  0  0  0  0
    5.4484    2.5661  -21.2171 C   0  0  2  0  0  0  0  0  0  0  0  0
    6.4777    9.1052  -23.9257 C   0  0  0  0  0  0  0  0  0  0  0  0
    5.5322    3.2504  -16.9347 C   0  0  0  0  0  0  0  0  0  0  0  0
    3.5419    4.4623  -26.7521 C   0  0  0  0  0  0  0  0  0  0  0  0
    4.0044   -3.2002  -19.6660 N   0  0  0  0  0  0  0  0  0  0  0  0
    6.1866    6.7494  -23.2484 N   0  0  0  0  0  0  0  0  0  0  0  0
    5.1621    5.1240  -24.6417 N   0  0  0  0  0  0  0  0  0  0  0  0
    5.9211    4.5209  -22.5207 N   0  0  0  0  0  0  0  0  0  0  0  0
    5.5243    3.1679  -18.4119 N   0  0  0  0  0  0  0  0  0  0  0  0
    4.2427    2.8756  -20.3934 N   0  0  0  0  0  0  0  0  0  0  0  0
    3.0976    3.3635  -18.4489 N   0  0  0  0  0  0  0  0  0  0  0  0
    7.8068    3.3528  -18.5629 O   0  0  0  0  0  0  0  0  0  0  0  0
    4.3033    5.6974  -26.7872 O   0  0  0  0  0  0  0  0  0  0  0  0
    5.2566    8.2747  -26.4011 F   0  0  0  0  0  0  0  0  0  0  0  0
    7.9456   -0.9900  -22.9713 H   0  0  0  0  0  0  0  0  0  0  0  0
    6.6002   -2.7116  -21.8009 H   0  0  0  0  0  0  0  0  0  0  0  0
    7.3996    1.4045  -22.6927 H   0  0  0  0  0  0  0  0  0  0  0  0
    4.1231    0.3694  -20.0701 H   0  0  0  0  0  0  0  0  0  0  0  0
    5.9272    5.3254  -20.5425 H   0  0  0  0  0  0  0  0  0  0  0  0
    7.5477    5.1790  -21.3036 H   0  0  0  0  0  0  0  0  0  0  0  0
    5.7068    2.5847  -23.3747 H   0  0  0  0  0  0  0  0  0  0  0  0
    4.1780    3.3352  -22.8036 H   0  0  0  0  0  0  0  0  0  0  0  0
    7.5974    2.8249  -21.0557 H   0  0  0  0  0  0  0  0  0  0  0  0
    6.8857    9.1695  -22.9062 H   0  0  0  0  0  0  0  0  0  0  0  0
    7.2525    9.3977  -24.6497 H   0  0  0  0  0  0  0  0  0  0  0  0
    5.6151    9.7814  -24.0187 H   0  0  0  0  0  0  0  0  0  0  0  0
    4.5024    3.1687  -16.5569 H   0  0  0  0  0  0  0  0  0  0  0  0
    6.1392    2.4296  -16.5250 H   0  0  0  0  0  0  0  0  0  0  0  0
    5.9613    4.2143  -16.6237 H   0  0  0  0  0  0  0  0  0  0  0  0
    3.0570    4.3020  -27.7263 H   0  0  0  0  0  0  0  0  0  0  0  0
    4.2174    3.6213  -26.5361 H   0  0  0  0  0  0  0  0  0  0  0  0
    2.7743    4.5270  -25.9668 H   0  0  0  0  0  0  0  0  0  0  0  0
    3.3492    2.8841  -20.8424 H   0  0  0  0  0  0  0  0  0  0  0  0
    2.2350    3.3236  -18.9532 H   0  0  0  0  0  0  0  0  0  0  0  0
    3.0953    3.5662  -17.4697 H   0  0  0  0  0  0  0  0  0  0  0  0
  1  6  1  0
  1 21  3  0
  2  3  2  0
  2  4  1  0
  3  6  1  0
  4  7  2  0
  5  6  2  0
  5  7  1  0
 17  7  1  6
  8  9  2  0
  8 10  1  0
  8 30  1  0
  9 18  1  0
  9 22  1  0
 10 23  2  0
 10 29  1  0
 11 22  2  0
 11 23  1  0
 11 24  1  0
 12 16  1  0
 12 25  1  0
 12 28  2  0
 13 25  1  0
 13 26  2  0
 13 27  1  0
 14 16  1  0
 14 24  1  0
 15 17  1  0
 15 24  1  0
 16 17  1  0
 17 26  1  0
 19 25  1  0
 20 29  1  0
  2 31  1  0
  3 32  1  0
  4 33  1  0
  5 34  1  0
 14 35  1  0
 14 36  1  0
 15 37  1  0
 15 38  1  0
 16 39  1  6
 18 40  1  0
 18 41  1  0
 18 42  1  0
 19 43  1  0
 19 44  1  0
 19 45  1  0
 20 46  1  0
 20 47  1  0
 20 48  1  0
 26 49  1  0
 27 50  1  0
 27 51  1  0
M  CHG  1  26   1
M  END
>  <OMEGA_C>  (12) 
h9aRQMFRFMATg6HBgdLjQHbXMb9Xu7LBt37LQKo61b//b63B2srZQAerKD8/erHBKX6eQPc9oz0P
laXBMQ+pQOCnpL9r3KbBbBW3QLmdiD+G9KrBUb+tQGoY60ARdcvBPzTBQCD19UAco8HBhByfQPHy
wEA79szBPHC4QI6gr0A15bvBZi7XQFDdT0D8B5nBq4yJQOvJSECx3ZjBT+PRQGGrlkBDlqnBCP6n
QJZDTUApu7TBTP/VQEHCUkBlOKXBVFmuQMA7JECqvKnBKknPQOmuEUHvZ7/B8wexQAsHUEBKeofB
5K5iQNnKjkBLBNbBcySAQHXQTMAHVJ3BwvjFQAn710C3/LnBADClQNz3o0BNIsXBQnm9QPKqkEBQ
KrTBO8ewQK+/SkCOS5PBiMSHQI0KOEDFJaPBAD9GQCFDV0BSl5PBHdH5QG2UVkDkgJTBhbSJQOxQ
tkAvTNbBKzaoQBhlBEFoNdPBfUL+QGxtfb8zxbfBkDTTQFKLLcBIaK7Bz8nsQFTFsz+wirXBtvCD
QOkdvT6Rj6DBj6u9QPZpqkAeV6TBtYbxQBC6pUC8barBXp62QKZrJUBM/7rBZbKFQAN0VUCvbbbB
Tx7zQHTKNEArcqjBVlfcQB62EkH0P7fBeBToQNxcFkGbMsXBrK6zQLaAHEEzJsDBiROQQBDMSkB7
dITBLXTEQLp+G0A6M4TBRcO+QPPbhkBf/YTBxKVDQDWqiUCPz93BlvSGQP3DZ0ADStTB244xQHHd
kEAXvM/Bq1lWQJWUOEA4vabBiwoPQDy2VEA9oJfByhlGQI88ZEDawYvBEnuQQDpzEcD3yKPBbYvn
QHo/FL/077LBHwXNQE6Byb/hra7BG/HeQOYpRD+AxbDBdl2gQIAECD7JL6bB9smpQAXEnL9oQKjB
AjC7QMNjkj8Fd6rBQwSpQOdp4UCFMc3BaUeaQHEBt0B588zB9Wy+QPnZ8UCqJsTBrVK3QJdDr0BK
1rvBlPXXQIpHV0ByGpjBgmKKQN5+TUDccJjBwLvTQD9UmkCmD6nBnT6rQO6dT0DW4LPB+UnYQJj3
WUDHW6TBN7KxQJaFKECo8qjBGnl8QMjypEBdutXBFd+vQK5aTkAvy4bB65bbQP+wFkHZbLrBSsJ5
QFQySsDdO6DBgZehQNYin0BfTMTBqM3FQEkM2EBllbvBxVi8QDiXk0DrTbPB6dGwQECKVEDenpLB
/yiKQM4oOkBepKLBNgpGQMjaWUDhh5PBrzT6QNjHVkD5UZPBc+/IQKFtDkE9JsTBPnihQGGF+kAf
zdXBLUYBQdV9Wb9P4LfByaDTQMlKJ8CsVbDBgNXzQHzFwz+58rPB/+yEQOEezD40YqHB40jBQIIN
r0BSpaPB2FfzQD2qqEC5hqrBgaC8QPpwKkA39bnB5vyIQDQUUUDC5LXBWRH2QNrhPEAkU6fBut1m
QAGvhEBDedPBp4pEQBrUuUB+39bBT56QQMo2o0BhON3BSnaOQHoETUAZB4TBrC7AQAleE0A+QYTB
AEfAQNgKg0AeUYPBKn7iQG7WJ0EaaLvB/QTFQOt3FEGtw7PBDXn5QIIPDkEnsbjBe+hbQKMQN0CM
ZqbBpRQQQPjmU0CRxJfBv0lDQKS1aEDCwYvBXX74QDmL5b8vEaHBiXuPQGwxkL+6mq7BbJqyQAfu
6L9lOqrBlmaOQAhYkD7uVa7B4kjTQD1imz4qIqXB/4rUQBEbjb+zgaXBlG2wQCKogT+Yp6nBIa+w
QDsY60BgjMvBytHGQOT880DQ+MHBDX6eQLYtwkAo6szBz064QB6YrkAbBLzBvIfXQHFFVUDI5JjB
blqJQAiYUUC/0JjBtXTUQMQllUAkEarBvtyqQMbaRkAGzLTBYpfWQNzxUECMH6XBdCKuQHkVI0DZ
X6nB1wHbQAqzD0GYGcDB6rOwQCQIa0DBl4fBwVVtQIIujkAmF9fBXf0KQfQjFsCGcZ3BJzXKQLaN
1UDkYLrB9MCiQGizpEAqEcXBSh+8QNKqj0A8IbTB+7KwQNzOV0AEOZPBILWHQA96PUASDKPBNk1F
QMFxYEBlmZPBlCH6QDHlXkCLaJTBL5eIQHLuuEAqSNbBzO+sQAicBEFeSdPBU7RqQIJp1r+MK7LB
j4ezQEyHOcA4farB8txmQJTbTj8oubHBgxftQFmwWD/0XqHB083DQH9tq0CKrKTBfdL0QChEoUCK
vKvBKga+QCULIEBaXLrBVVWJQKnDR0BIebfBbEjzQLJ2L0DHCKjBGK3qQFTlD0F1OLjBv+jyQHDZ
EkF9XcbBuBnCQCUgHEFSW8DBNaWPQLQ0akA+koTBFbXDQFN8OkBZWIPBKMW+QMJTlUD2PYbB8FlM
QF6pikCa0N7B7YiQQBjVbEBQhtbBkG4/QMQSiUCtitDB0chWQL36P0DOwqbBTi0OQNKqW0CcnpfB
vOBEQO7gb0Dj1YvBagH4QEVj5b/nkaHBdquOQBDFjb9x467BV9+xQMA557/hnKrBZqyNQAPNmT5z
ia7BfNHSQOXhnj5mdKXBV/vTQLMtjL/G6KXB6N+vQPg3gz9G4KnBeiewQO/W7EBYXMvBTKWdQJUZ
xEA628zBw4DGQBkF9UDXyMHB5HO3QGojr0ASHrzBKrPXQLE6VUBXGpnBB4iJQK7iUUC13ZjBFBjU
QL5dlUD9ParB5gyqQInVR0CE8LTB81jWQCFNUUC8VqXB6rKtQK/NI0Dzh6nBZ1mFQI+muUAUAdfB
cHSxQB1MakAetIfBKF3vQHduEUG+HbbBMsYKQcVjFsD5Bp7B7aehQID2pUA0M8XBv5vJQMbN1UCy
V7rB/3m7QAgEkEBFSbTB1g+xQC2oV0BSWZPBSoaHQAcxPkBrG6PBRwtGQMi9YECzj5PB5HX6QERo
XkD4rZTBg+nYQF5yDkH0LcDBfpGsQErEBUFx9tLB/tJoQAto07+2cLLBkLuyQKSpOMDm76rBGUZl
QGe9VD9W2LHBH8LsQE1CWT/4tKHBNJTDQECUq0BDzqTBkWv0QJuAoUCy86vBXuy8QMj9IECuj7rB
/GuIQMwMSUD6iLfBYOfyQC7KL0CUU6jBCkFzQLd+mEBSn9bBTxJUQIebz0B01NfB4bqaQDNEvUCo
793BRH6QQER2aUAKnoTBKorEQPd0OUAkiIPBc6K/QB7llEC6VIbBWX/8QNe+IUH9w7XBfvrYQAoJ
D0F1bq/Bjs8EQfLEBUH2hrXBwS9WQEgHQUDkwqbBBqUOQChIXEAsh5fBNCxGQJ/cb0CuyYvB

>  <OMEGA_E>  (12) 
uAAcPhDwuD4YGb4+lIQGPw==

>  <OMEGA_NBR>  (12) 
      6498

$$$$
220579
     RDKit          3D

 53 56  0  0  1  0  0  0  0  0999 V2000
    5.9811   -1.2470  -21.7258 C   0  0  0  0  0  0  0  0  0  0  0  0
    6.8012   -0.3535  -22.4366 C   0  0  0  0  0  0  0  0  0  0  0  0
    4.9695   -0.7530  -20.8822 C   0  0  0  0  0  0  0  0  0  0  0  0
    6.6147    1.0325  -22.3022 C   0  0  0  0  0  0  0  0  0  0  0  0
    4.7810    0.6351  -20.7418 C   0  0  0  0  0  0  0  0  0  0  0  0
    5.6028    1.5486  -21.4544 C   0  0  0  0  0  0  0  0  0  0  0  0
    6.3663    8.7514  -24.0645 C   0  0  0  0  0  0  0  0  0  0  0  0
    5.8275    7.6158  -24.7062 C   0  0  0  0  0  0  0  0  0  0  0  0
    6.7916    8.6298  -22.7334 C   0  0  0  0  0  0  0  0  0  0  0  0
    6.1463    6.3843  -22.7483 C   0  0  0  0  0  0  0  0  0  0  0  0
    6.7918    3.3264  -18.9801 C   0  0  0  0  0  0  0  0  0  0  0  0
    4.3651    3.4778  -19.0524 C   0  0  0  0  0  0  0  0  0  0  0  0
    6.9749    4.9816  -20.8519 C   0  0  0  0  0  0  0  0  0  0  0  0
    5.5318    3.9108  -22.4757 C   0  0  0  0  0  0  0  0  0  0  0  0
    6.8327    3.5166  -20.4897 C   0  0  2  0  0  0  0  0  0  0  0  0
    5.5359    3.0624  -21.1883 C   0  0  2  0  0  0  0  0  0  0  0  0
    5.3999    7.6907  -26.1542 C   0  0  0  0  0  0  0  0  0  0  0  0
    8.7737   10.4696  -20.2674 C   0  0  0  0  0  0  0  0  0  0  0  0
    5.5096    3.2162  -16.8430 C   0  0  0  0  0  0  0  0  0  0  0  0
    8.5802    9.4568  -21.3945 C   0  0  0  0  0  0  0  0  0  0  0  0
    5.7210    6.4466  -24.0332 N   0  0  0  0  0  0  0  0  0  0  0  0
    6.6621    7.4522  -22.1025 N   0  0  0  0  0  0  0  0  0  0  0  0
    6.1220    5.1969  -22.0421 N   0  0  0  0  0  0  0  0  0  0  0  0
    5.5577    3.2945  -18.3201 N   0  0  0  0  0  0  0  0  0  0  0  0
    4.3465    3.4503  -20.3674 N   0  0  0  0  0  0  0  0  0  0  0  0
    3.1547    3.6660  -18.3974 N   0  0  0  0  0  0  0  0  0  0  0  0
    7.8466    3.3979  -18.3588 O   0  0  0  0  0  0  0  0  0  0  0  0
    7.3204    9.7135  -22.0677 O   0  0  0  0  0  0  0  0  0  0  0  0
    6.4841    9.9332  -24.7130 F   0  0  0  0  0  0  0  0  0  0  0  0
    6.1275   -2.3122  -21.8273 H   0  0  0  0  0  0  0  0  0  0  0  0
    7.5756   -0.7330  -23.0867 H   0  0  0  0  0  0  0  0  0  0  0  0
    4.3361   -1.4402  -20.3411 H   0  0  0  0  0  0  0  0  0  0  0  0
    7.2494    1.7123  -22.8512 H   0  0  0  0  0  0  0  0  0  0  0  0
    4.0064    1.0078  -20.0879 H   0  0  0  0  0  0  0  0  0  0  0  0
    6.6349    5.6150  -20.0194 H   0  0  0  0  0  0  0  0  0  0  0  0
    8.0236    5.2164  -21.0866 H   0  0  0  0  0  0  0  0  0  0  0  0
    6.1449    3.4406  -23.2587 H   0  0  0  0  0  0  0  0  0  0  0  0
    4.5070    4.0542  -22.8490 H   0  0  0  0  0  0  0  0  0  0  0  0
    7.6813    2.9531  -20.9049 H   0  0  0  0  0  0  0  0  0  0  0  0
    5.0341    6.7059  -26.4805 H   0  0  0  0  0  0  0  0  0  0  0  0
    4.5962    8.4340  -26.2611 H   0  0  0  0  0  0  0  0  0  0  0  0
    6.2583    7.9869  -26.7750 H   0  0  0  0  0  0  0  0  0  0  0  0
    9.7289   10.2740  -19.7580 H   0  0  0  0  0  0  0  0  0  0  0  0
    8.7832   11.4867  -20.6861 H   0  0  0  0  0  0  0  0  0  0  0  0
    7.9482   10.3776  -19.5462 H   0  0  0  0  0  0  0  0  0  0  0  0
    4.4614    3.2011  -16.5100 H   0  0  0  0  0  0  0  0  0  0  0  0
    6.0138    2.2977  -16.5080 H   0  0  0  0  0  0  0  0  0  0  0  0
    6.0183    4.0915  -16.4128 H   0  0  0  0  0  0  0  0  0  0  0  0
    9.4060    9.5489  -22.1154 H   0  0  0  0  0  0  0  0  0  0  0  0
    8.5710    8.4398  -20.9755 H   0  0  0  0  0  0  0  0  0  0  0  0
    3.5006    3.6995  -20.8390 H   0  0  0  0  0  0  0  0  0  0  0  0
    2.3122    3.7744  -18.9252 H   0  0  0  0  0  0  0  0  0  0  0  0
    3.1258    3.6930  -17.3982 H   0  0  0  0  0  0  0  0  0  0  0  0
  1  2  2  0
  1  3  1  0
  2  4  1  0
  3  5  2  0
  4  6  2  0
  5  6  1  0
 16  6  1  6
  7  8  2  0
  7  9  1  0
  7 29  1  0
  8 17  1  0
  8 21  1  0
  9 22  2  0
  9 28  1  0
 10 21  2  0
 10 22  1  0
 10 23  1  0
 11 15  1  0
 11 24  1  0
 11 27  2  0
 12 24  1  0
 12 25  2  0
 12 26  1  0
 13 15  1  0
 13 23  1  0
 14 16  1  0
 14 23  1  0
 15 16  1  0
 16 25  1  0
 18 20  1  0
 19 24  1  0
 20 28  1  0
  1 30  1  0
  2 31  1  0
  3 32  1  0
  4 33  1  0
  5 34  1  0
 13 35  1  0
 13 36  1  0
 14 37  1  0
 14 38  1  0
 15 39  1  6
 17 40  1  0
 17 41  1  0
 17 42  1  0
 18 43  1  0
 18 44  1  0
 18 45  1  0
 19 46  1  0
 19 47  1  0
 19 48  1  0
 20 49  1  0
 20 50  1  0
 25 51  1  0
 26 52  1  0
 26 53  1  0
M  CHG  1  25   1
M  END
>  <OMEGA_C>  (13) 
+WS/QF2dn79gzq3BsqPZQJ/+tL4kfrPBcwafQJTFQL/NDqfBmqvTQLcnhD/+arLB3f2YQJCWIj8j
76XB2kmzQCY6xj+EoqvBebjLQKoFDEEnhMDB2Xq6QEG080BGpsXB/1TZQNcTCkH83bXBd67EQAtM
zECG/LXBsVbZQAzkVEAp15fBS6+LQL2TXkBba5jBoDLfQP5on0Cq0KbBIgSxQEtKekAvzrPB46Xa
QJsPYUDn6qPB3SWxQLj9Q0CwganBHcysQNsZ9kDeO9HBQWEMQWiDJ0GRI6LBAE+wQAbWTUB5vobB
qEgJQQxPF0EHKKvBpxK3QDVKzkAORMDBFzDVQJl47kAA0rDBnOfDQCVNpkA9VrDB8tixQMPYUkCN
j5LBbRaLQG3RXEB08KLBuuZJQGSfakD5LZPBaRf7QPB2WUDe3pLB30DqQFZqG0GQirDBV33PQHPu
HkFAtMXBzxTEQOH6E8A/nq7BpWvyQJykO7+ksbjBAsGKQAlZuL9+uqLBfvvnQKos2z8sz7bBnDSA
QA8AgT8GtKDB6VDUQCGus0ChJ6DBxGAAQWfspkB0sajBnaLEQD4zXEC9EbrBuzmQQBS8gUDYyrbB
Vc31QJX/PEBUPafBcxehQLuW1kAK2NPBIxSTQNzxBkHBFtLBI0TIQKOU/0BDM9bBf6kbQWhiJEFa
EJ7B9ocMQZDJN0ExfaXBrFf+QKwKJkG0XpzBccOOQILfTECMFITBa3HAQPQNE0BwEITBSJbAQHjt
gkBsTYPBB38WQT/IGEFR7LDB5yIJQVsJB0HUzafBFgpgQFXEbEBGtqbBlfsTQBmQcUC2ZpfBBw1I
QJZabECUL4vBZJa9QCFznb+3cq3B8v+cQHHmNb/15KbB/TfZQMxNt7428LLB9QSYQGVYLj8MzKXB
eV3UQB0thD/n3rHBZ6GzQGtYyT8iUavB/ArKQKRXDEFxgsDBSTC5QNg49EALsMXBql/YQEBMCkGg
6bXBXFnFQMpKzEANNLbBZFHZQI7GVUCYtJfBe5yLQBpbYECkaJjBdkbeQBmyoEDrhabBuvWxQLBc
ekAw0bPBt+baQBVcY0DdwaPBJbqxQDa/RUCQYqnBC0qrQKKw9kBvQtHBXxsMQVcPKkH1pqLBh1mv
QCnJSkDHtYbBcWoFQaoTFkE/zajBvQi3QOBzzkCwasDBjjHVQEWN7kCl/rDB5InGQDX+pUC/s7DB
7sOxQP9oWEBDbZLB45KLQGvlX0D97qLBGH5IQDNxZkB8TZPBzzX7QEX/U0BkxZLB90/qQLiLG0G7
p7DBQi3NQEFVH0GBpsXBKGPBQIkdE8B4Q67BYMCHQHzOsL/YsaLBWDPyQIXmQb9G+7fBrA1+QI5m
iT/cuKDBD8rpQEkj2T/qFbbBRb7PQIhYtECkMKDB2/v/QKnyqUAcj6fBU5rEQIy5WUBsEbrBQimR
QBCwgkAqs7bBp2z2QDGsQEA4HqfBfJKgQC7v1kAH89PBxs6QQDvWBkHhB9LBs2DGQG+iAEG7N9bB
7mcYQc/RJUGruZzBJqESQdTxNUGUQ6jB0Tf8QBDWMEE2iJ7BjtKNQMNCT0CrFoTBkQC8QAkDC0Ah
vYTBUXHCQGL3e0CBmoLBm24TQcBPD0Em6azBu9L9QPszCkHHLaPBQ+9hQDm/cUAUx6bBC70SQLhA
akBJnpfBPJJFQE8DZ0CzT4vBVE2+QIf0or/AnqzBoO/ZQJzh0b7GM7LBAxacQEaDPr+QqabByKrT
QFJaez9+wLHB+t6VQBb4JT9GH6bBj/yxQHxKxD9mkavBSbPNQAxRDEH3RMDBeqjaQD4UCkGTk7XB
MSy+QBlz9EDrtMXB8rrEQBh6zEADErbBcajZQPgRVUBNOpjBf+qLQNg9X0CrcpjBOUHdQGF4n0Cw
6qbBS9evQFh1eUCFDbTB+crZQIA3YUBiPaTBLxywQIuOQ0Awr6nBqcXyQOLMG0Ed56/BlKtSQNjm
/UCnD8/BC4eyQIr4V0Cl5IbBXSiPQOL35UDROdTBEBTWQFoi7kCdurDBwfK4QAPvzkB1c8DBnNzD
QP/epUDgsLDBcq2yQPC/VUDaupLBDoqKQJwJXUBE+aLBZuBKQDoaakBQDZPBhOD7QGhJW0BUfZPB
uyG3QFqB90C+jNDBY6/QQGxdH0E1WsXB5FnDQC3RFcCF6KzBmQX0QAEBUb8J2LbBp4aGQF05tL/R
faLB/rroQLeG0T+zKbbBawp3QJEHhj8QiKHBFFTQQA39skBYWKDBXt3+QAI+qEBXV6jBksfCQARV
WkBGXrrBQ/aOQKrfgUCN67bB+P/0QMJsPkDWvafBKc39QKkKFkHBDqjBzUQHQXCXIEGdwLTBs3rd
QICiKUFCyK7BbBQWQLUr8EDm8NHBTD1WQECq+kBOT8bB/K1VQCn8D0ERPtHBUE+RQIg3WEBb+4PB
azfDQGI1H0DHx4PB3fTCQLgRiUAYHoTBLoKNQK3ow0DcCtLBhjqNQL826UCf+dzBWX1eQLIPbUBN
o6bBLkcUQEPjb0CwKZfBPhNKQMcibECCDovB

>  <OMEGA_E>  (13) 
cNstPqDXMT7YWsA+

>  <OMEGA_NBR>  (13) 
      2966

$$$$
50220810
     RDKit          3D

 46 49  0  0  1  0  0  0  0  0999 V2000
    7.0737   -2.7106  -15.9159 C   0  0  0  0  0  0  0  0  0  0  0  0
    7.6195   -2.4822  -14.8562 C   0  0  0  0  0  0  0  0  0  0  0  0
    5.6053   -0.7287  -22.8519 C   0  0  0  0  0  0  0  0  0  0  0  0
    5.6729   -1.6890  -21.8294 C   0  0  0  0  0  0  0  0  0  0  0  0
    5.5779    0.6392  -22.5336 C   0  0  0  0  0  0  0  0  0  0  0  0
    6.3971   -1.9949  -18.1652 C   0  0  0  0  0  0  0  0  0  0  0  0
    5.6698    0.0910  -20.1608 C   0  0  0  0  0  0  0  0  0  0  0  0
    5.8377   -4.2340  -17.4095 C   0  0  0  0  0  0  0  0  0  0  0  0
    5.1923   -3.5761  -19.5653 C   0  0  0  0  0  0  0  0  0  0  0  0
    6.4329   -2.9786  -17.1653 C   0  0  0  0  0  0  0  0  0  0  0  0
    5.7031   -1.2855  -20.4747 C   0  0  0  0  0  0  0  0  0  0  0  0
    5.7648   -2.2925  -19.3913 C   0  0  0  0  0  0  0  0  0  0  0  0
    5.6386    1.0662  -21.1830 C   0  0  0  0  0  0  0  0  0  0  0  0
    5.3350    3.2900  -18.6930 C   0  0  0  0  0  0  0  0  0  0  0  0
    4.0244    3.3590  -19.3682 C   0  0  0  0  0  0  0  0  0  0  0  0
    5.4345    3.9117  -23.1274 C   0  0  0  0  0  0  0  0  0  0  0  0
    5.8916    4.9098  -22.0505 C   0  0  0  0  0  0  0  0  0  0  0  0
    6.2457    3.4226  -21.9157 C   0  0  0  0  0  0  0  0  0  0  0  0
    5.5673    2.5545  -20.8192 C   0  0  2  0  0  0  0  0  0  0  0  0
    8.2764   -2.2099  -13.5815 C   0  0  0  0  0  0  0  0  0  0  0  0
    5.5910    3.6832  -17.2568 C   0  0  0  0  0  0  0  0  0  0  0  0
    5.2338   -4.5128  -18.5891 N   0  0  0  0  0  0  0  0  0  0  0  0
    6.2405    2.8369  -19.5316 N   0  0  0  0  0  0  0  0  0  0  0  0
    4.1614    2.9228  -20.5944 N   0  0  0  0  0  0  0  0  0  0  0  0
    2.8487    3.8192  -18.7929 N   0  0  0  0  0  0  0  0  0  0  0  0
    5.5744   -1.0425  -23.8849 H   0  0  0  0  0  0  0  0  0  0  0  0
    5.7019   -2.7394  -22.0788 H   0  0  0  0  0  0  0  0  0  0  0  0
    5.5100    1.3718  -23.3243 H   0  0  0  0  0  0  0  0  0  0  0  0
    6.8458   -1.0266  -17.9994 H   0  0  0  0  0  0  0  0  0  0  0  0
    5.6682    0.4022  -19.1267 H   0  0  0  0  0  0  0  0  0  0  0  0
    5.8641   -4.9898  -16.6384 H   0  0  0  0  0  0  0  0  0  0  0  0
    4.7097   -3.8138  -20.5017 H   0  0  0  0  0  0  0  0  0  0  0  0
    4.3700    3.6500  -23.2190 H   0  0  0  0  0  0  0  0  0  0  0  0
    5.8947    3.9307  -24.1263 H   0  0  0  0  0  0  0  0  0  0  0  0
    6.6783    5.6437  -22.2795 H   0  0  0  0  0  0  0  0  0  0  0  0
    5.1536    5.3629  -21.3722 H   0  0  0  0  0  0  0  0  0  0  0  0
    7.2951    3.1684  -22.1255 H   0  0  0  0  0  0  0  0  0  0  0  0
    8.2078   -1.1356  -13.3552 H   0  0  0  0  0  0  0  0  0  0  0  0
    7.7823   -2.7847  -12.7843 H   0  0  0  0  0  0  0  0  0  0  0  0
    9.3344   -2.5045  -13.6441 H   0  0  0  0  0  0  0  0  0  0  0  0
    6.6543    3.5323  -17.0187 H   0  0  0  0  0  0  0  0  0  0  0  0
    5.3304    4.7424  -17.1148 H   0  0  0  0  0  0  0  0  0  0  0  0
    4.9744    3.0615  -16.5910 H   0  0  0  0  0  0  0  0  0  0  0  0
    3.4277    2.8513  -21.2701 H   0  0  0  0  0  0  0  0  0  0  0  0
    2.0039    3.8369  -19.3277 H   0  0  0  0  0  0  0  0  0  0  0  0
    2.8461    4.1332  -17.8435 H   0  0  0  0  0  0  0  0  0  0  0  0
  1  2  3  0
  1 10  1  0
  2 20  1  0
  3  4  2  0
  3  5  1  0
  4 11  1  0
  5 13  2  0
  6 10  2  0
  6 12  1  0
  7 11  2  0
  7 13  1  0
  8 10  1  0
  8 22  2  0
  9 12  2  0
  9 22  1  0
 11 12  1  0
 13 19  1  0
 14 15  1  0
 14 21  1  0
 14 23  2  0
 15 24  2  0
 15 25  1  0
 16 17  1  0
 16 18  1  0
 17 18  1  0
 19 18  1  6
 19 23  1  0
 19 24  1  0
  3 26  1  0
  4 27  1  0
  5 28  1  0
  6 29  1  0
  7 30  1  0
  8 31  1  0
  9 32  1  0
 16 33  1  0
 16 34  1  0
 17 35  1  0
 17 36  1  0
 18 37  1  0
 20 38  1  0
 20 39  1  0
 20 40  1  0
 21 41  1  0
 21 42  1  0
 21 43  1  0
 24 44  1  0
 25 45  1  0
 25 46  1  0
M  CHG  1  24   1
M  END
>  <OMEGA_C>  (14) 
+lviQFp6LcCCp37B0tLzQOLcHsATs23B416zQBiMOr+y0LbBV4i1QLYx2L+Soq7BPH6yQNmjIz/C
RLTBCbXMQOBZ/79mUpHB/m61QFlGuj1pSaHBL866QEB9h8CYRovBTSemQATeZMCwhZzBStrNQCqh
PsCZUonB/n+2QPSLpL8WzKPBN3m4QAi4EsB6IZvBLm+0QKx5iD/XdqnBi7iqQNyOUkBKi5XBnseA
QLX5VkAC8prBf+etQMNYekDXBLnBz4e8QLscnUBqZ7DBc9zHQFcMW0BHU6/BfieyQER9I0CfjabB
P2wEQa5uDcDDTVnBp+myQPK5a0DoDYrBrHunQHpokMCTtpTBTbLHQI2QNUDFQJzBIyqFQG8OO0A+
waTB61A2QHNtdEDbV5bBiGGyQIlvhb8vFL/BnnW2QOBSL8BJobDBT1KwQMyVrz8UmLrBbRDbQHto
g7/Q/o/BjGG1QHftzT5qA5nB1aa7QCysn8BoG4XB1rWWQMgVdMCPA6TBOdeLQFWZaUBuwLnBM6G8
QCuRe0CrAsHBoLTVQN+YtEB5PLLBpuqkQPScq0A8+qrBlXHpQLHHSkAHAbHBUFMDQShbkb/lrlXB
ogj5QLw3MsCOjEzBs1kVQSRJIMASTlrB1+/UQHEQYkBCJojBr5KqQPHBl0AF64jBoi6fQMzuQ0By
uoTBJmBbQDJ7NkAxKarBxj8AQKiPdUAdn5rBfiY2QM5ChEBtv47BAdLkQMF5LMAuBn/BcLv2QEFi
HcA8Nm7Bfi2xQEXWOr941rbBG4G0QDCf2L8ir67BXPSvQNdeIz+QQrTBuQTOQA4B/7/Ac5HBoA61
QIycqz3iT6HBp9q8QHtkh8DKRYvBGBOnQCBnZcC/dpzBdcnPQKosPsDwbInB9062QGtGpb/+16PB
Pjy5QLgEE8DCLZvBbQmzQArKhz/XdqnBS4CqQK7MUUCnhZXBQqiAQN91V0Cc8ZrBtGPqQNBxjUBn
QK3B++30QPlMRkBT4LLBoHLGQD7mWUCsn6/Bj7GxQB9VI0AJkabBRSUGQRVdC8BS/FnBk+OyQP2j
akDRCIrBJQupQKaOkMABopTBuDPHQJtgM0BIMZzBvTOFQLAEPkDk2qTBteo1QMagc0DzQJbB4Y6v
QJJahb93Gb/BvK+1QAF5L8BjtLDBDaWsQPuUrz8CjLrBflHcQEm7gr/RNZDByqa1QFNXyT4fCZnB
jS++QEx6n8DXFYXBojqXQJ0EdcDU46PBgu30QAHYkkDk9qTBAuXrQKu7q0AquLHBIwf+QPU/RkCS
YLvB0YcDQaJ4FEBMn67BK9qwQCI8a0D6ObbBoXwFQW+BjL++slbBakH8QGJfLsCT/UzBkfIWQTfo
H8AMBlvBWMTUQMtUX0DJG4jB4l6rQL1pl0At6YjBy6CeQLzdQ0Alt4TBLxxcQLvwPECWYKrBiuH/
P3rAdUBGi5rB8o01QPfmgkBRlY7B9YW8QA2jqcC+V5DB7tjRQPwwx8CDBI3BFNncQGhmFr/2XLXB
KozLQPwUyr+lpq7BmhrTQCNfRT88n7PBTbG1QAfxVMBTtZvBWwCnQNF1FT6ZY6TBtBV0QCQSf8DP
YJDBuipnQB5fA8BW0ZrBNt+jQFGphsAFOZTBX0WwQLHkmr/iJ6bBsHWdQEQEDsCI+p7BK9e3QDoC
lD+jG6vBUJCnQKOydUCSRLnBrKvNQK5jh0DE/7LB0V6hQAVnNkDJt5TBdwGKQDGMgkByNpnBKg2M
QGvGMkDM1p/BWSCpQP/KJ0Ad/6nBpIbrQGal6sCwAInBzHmcQM6ii0AGSsTBTElFQPlYO8C+upPB
FwKRQKilPUBry7PBhvbNQCzmYkCeDarBzp3rQIjvpUB8D7bBk6/xQJBsXr/N4LvB+B/TQAedJ8BV
/6/By4fgQKInwz8w0rjBXVzVQG7PX8Dg457BZp+SQBTM2D4Axp3Bet1YQOCIlcAbporBF3NBQMJa
mr+LX53BknbEQEWGNkAkCJTBt4aTQFuCEkAt/I3BdOtWQKnTjECarJXBlWWcQJ7VnkCRuJvBARNc
QKMRDkAIIaDB3JvjQGv2A8Hwd43BINcGQbQ648BPDIrBqq7kQAyM78BAdYDBuhF9QCiQeUCuDMfB
mmeYQAKSrkBF7sPBDHG2QHLCg0AU5cnBEKbjQImUaECdNqTBwBoCQX3brEBEPrHBe4/oQID7tEBY
FL3BJFi4QHZSr8Ch8ZLBrFTLQOhY0MCCFZHB/KXdQFZ0Fr+eG7XBLvzKQOUfx79bfq7B6hvWQBa0
Rj+2NrPB3gK0QED5VcBDZZzBJg6nQBDWVT6TcKTBWOtxQG8VgcCEDJHBSk1nQDBKAMCiXJrByN6h
QN7aiMC4YpXBRJivQADhlL+rF6bBeLecQMOjC8At8p7BiJ+7QCqZmj97oqrB1nWaQEDhbED6ErnB
TszFQDvWhUBHgrbBHPiAQKxsOkATWJfBkJKvQNgmKkAkv5PBCk6mQMYLV0AHeJ7B/luwQIYELkBY
vanB4OzhQBtL+MBt947BPOiBQE61gkCGBsPBoEFFQOK7OsCvlZPBAZOMQKqmO0BXRLHBtJfTQK4r
YkDvGq7BUtvbQE1fpUDODbzB2+HxQGEHZL/trbvB74/RQBWUJsAV06/BmLjkQIqIwT9tYLjBclbT
QPjAYMBiyZ/Bzm+QQMWRAD/pV57BvFFWQOsRmMDPmIvB1e5CQGxFj7+wUZzBDERZQJl1BEDBz5nB
Rq9aQNNuakCzLZPBBSu9QJ2dTkCzB43BZ3W8QMZI0T/BqZPB6BysQCA7jkDlQ57BFRz1QLfz9MDC
oofBkZbKQGwoCcGa7Y3Bjh73QPvA/8CSvZXBXwtEQHCiZ0D50sLBRfJ8QPa2pUBHXMPBM1uTQK0Q
b0ChI8rBIz7xQLRLZUAjH6vBNSj5QH0TrkCNr7nBo3LOQBZjs0C2asLBYSysQLxhPsCDEYDBXvy6
QNBHQMBAMW7BG5i5QORBHb+gybfB6UapQLpAvr/39K/B0x3LQLwzID+sybTB/NCrQOi4A8DUSpLB
6Kq8QEAE6z1JDaLBwpdxQIypcsDLio3BvkxwQEgCPMDJA5/B9NmaQCYZPMCMporBtvWqQNrVkL/U
AaXBPkGaQMhAA8AzspzBqdzLQEa9gT8F5qnB7mS2QJO8gEBsvZ/Bu0u/QOrgiUCCFqvBeNgTQXhM
SUDMHZ3BfsQPQf3L2D8lhJnBptsHQecEC0ACgaTBPSPfQNbEFkCBjabBPs/MQDatQsDQnFjBMVOc
QH7CnEC3XpjByD9QQNTuccDPipfBDcLIQLQxOUDuBJ3BYJbYQFA1WECX1K7BQN+vQDq8rEDtw7DB
Wqq4QN7GZb8yH8DB8mebQNWQG8DvT7LB/g7YQAp6pD+T0brBwOHFQDvHsr8gP5DBIZy+QDFIxD6O
spnBAnhXQFb7jsAEp4fB0R5VQBRHPMBu9abBfjILQflPfkABRJnBwiYkQVMtXkDgJ5/BbikdQS+3
ez+++5jBKjUEQeQgvj/fF5PBpBQRQcfl5j9HZavBs3PMQKviAcARu1HBOXm5QEyobcA1kk7BifDt
QPdQWsA5RVnBsxqbQMUxjkBQXZDB5zirQFmUvEA+1ZfBmEt3QIrvn0Ani5vBfmzlQDNYV0BkKLbB
vQS4QEG2sEAHcLjBBpqcQOjlwUAQMK3B4V/NQBZ+RsDhH5nBsIHWQCtRe8CYYpLBVcWQQMoLT0Dj
/JXBGCuZQCwa8z9Jq5jBqFWZQAE1iEA+X53B7iy8QMe3Sb+s5p3BUJSzQAPfJkBMJqrBpa6+QHhg
HsAM3avBTmmuQN51hr73krDBjavCQBivB8DA+6DBJB+qQLZ0yT+A1KLBJMKxQMQjJz7IyqXBEtmr
QJJPfUAdeafBpbG7QFvHlEDMU8HB9H/nQFwSlkBy7bzB8bzHQNcV30D9L6HBj2HPQIPP80C/H6zB
u46uQNVOz0BLBqvBfda3QA+9oUA8i6/BOYjhQLxencBsRYrBSMuwQJSkjEBE7szBZsO0QMroxr+B
arPBnNifQPqkm0Don7nBvh7lQFionEAGmrLBjmUGQUvLkEBkz8LBK7KDQMyTXkCvOo7BuqmSQHPJ
jj9785LBAMiRQO/0qEASXJvB2Ru/QEfV/b6cnZXBX9/AQCA0F0B14bHB5KTDQIghYMBiOK7BIJim
QLxF7D7urbbBBIzgQLKmykBomZ3BsEK3QBoa8UAz2ZrBdWTEQPpZCkHGoa3Bya3tQIxA7kD7YbDB
5cuMQPAx2UADVKvBD6jRQFjgu8DwJYzBtTQCQQYXosDcKorBCNnWQLoLksD2YILB6tiNQBlVjUBh
+M3BHny/QL2SpUD88NHBeCC9QPAyWkD9U8/B9gb+QPoFnkAxl63BuZ0UQUPikUANJ7/B8pwFQdPm
i0DTtMrB

>  <OMEGA_E>  (14) 
aO1sP3KZeD/JUog/lfqKPwubsD97k68/

>  <OMEGA_NBR>  (14) 
      5100

$$$$
50220806
     RDKit          3D

 41 44  0  0  1  0  0  0  0  0999 V2000
    6.8389   -0.5572  -22.6048 C   0  0  0  0  0  0  0  0  0  0  0  0
    6.2929   -1.5242  -21.7437 C   0  0  0  0  0  0  0  0  0  0  0  0
    6.5656    0.8091  -22.4056 C   0  0  0  0  0  0  0  0  0  0  0  0
    5.1791    0.2382  -20.4841 C   0  0  0  0  0  0  0  0  0  0  0  0
    3.5753   -2.0167  -19.2624 C   0  0  0  0  0  0  0  0  0  0  0  0
    5.6494   -3.2784  -19.3862 C   0  0  0  0  0  0  0  0  0  0  0  0
    3.9003   -4.1026  -18.0598 C   0  0  0  0  0  0  0  0  0  0  0  0
    5.4591   -1.1314  -20.6766 C   0  0  0  0  0  0  0  0  0  0  0  0
    4.8868   -2.1478  -19.7649 C   0  0  0  0  0  0  0  0  0  0  0  0
    5.7261    1.2304  -21.3468 C   0  0  0  0  0  0  0  0  0  0  0  0
    3.0757   -3.0147  -18.4108 C   0  0  0  0  0  0  0  0  0  0  0  0
    6.6772    4.3169  -22.1598 C   0  0  0  0  0  0  0  0  0  0  0  0
    5.5889    3.9638  -23.0932 C   0  0  0  0  0  0  0  0  0  0  0  0
    4.8237    2.9789  -18.5881 C   0  0  0  0  0  0  0  0  0  0  0  0
    4.1743    4.2094  -19.2413 C   0  0  0  0  0  0  0  0  0  0  0  0
    4.3192    2.9135  -20.0431 C   0  0  0  0  0  0  0  0  0  0  0  0
    5.3525    2.7275  -21.2094 C   0  0  1  0  0  0  0  0  0  0  0  0
    7.7584    5.3385  -22.4556 C   0  0  0  0  0  0  0  0  0  0  0  0
    5.1590   -4.2192  -18.5451 N   0  0  0  0  0  0  0  0  0  0  0  0
    6.5607    3.5905  -21.0635 N   0  0  0  0  0  0  0  0  0  0  0  0
    4.7423    3.1831  -22.4687 N   0  0  0  0  0  0  0  0  0  0  0  0
    5.4764    4.3873  -24.4130 N   0  0  0  0  0  0  0  0  0  0  0  0
    1.4447   -2.9145  -17.7987 Cl  0  0  0  0  0  0  0  0  0  0  0  0
    7.4719   -0.8642  -23.4243 H   0  0  0  0  0  0  0  0  0  0  0  0
    6.5122   -2.5702  -21.8996 H   0  0  0  0  0  0  0  0  0  0  0  0
    7.0008    1.5434  -23.0672 H   0  0  0  0  0  0  0  0  0  0  0  0
    4.5387    0.5393  -19.6683 H   0  0  0  0  0  0  0  0  0  0  0  0
    2.9670   -1.1647  -19.5278 H   0  0  0  0  0  0  0  0  0  0  0  0
    6.6490   -3.3937  -19.7785 H   0  0  0  0  0  0  0  0  0  0  0  0
    3.5201   -4.8594  -17.3896 H   0  0  0  0  0  0  0  0  0  0  0  0
    5.9036    2.9718  -18.3786 H   0  0  0  0  0  0  0  0  0  0  0  0
    4.2928    2.4310  -17.7957 H   0  0  0  0  0  0  0  0  0  0  0  0
    3.1789    4.5440  -18.9136 H   0  0  0  0  0  0  0  0  0  0  0  0
    4.7897    5.0847  -19.4965 H   0  0  0  0  0  0  0  0  0  0  0  0
    3.3847    2.3489  -20.1774 H   0  0  0  0  0  0  0  0  0  0  0  0
    8.4542    5.3934  -21.6053 H   0  0  0  0  0  0  0  0  0  0  0  0
    8.3080    5.0390  -23.3602 H   0  0  0  0  0  0  0  0  0  0  0  0
    7.2973    6.3242  -22.6161 H   0  0  0  0  0  0  0  0  0  0  0  0
    3.8296    2.9367  -22.7948 H   0  0  0  0  0  0  0  0  0  0  0  0
    4.6978    4.0936  -24.9677 H   0  0  0  0  0  0  0  0  0  0  0  0
    6.1740    4.9854  -24.8075 H   0  0  0  0  0  0  0  0  0  0  0  0
  1  2  2  0
  1  3  1  0
  2  8  1  0
  3 10  2  0
  4  8  2  0
  4 10  1  0
  5  9  2  0
  5 11  1  0
  6  9  1  0
  6 19  2  0
  7 11  2  0
  7 19  1  0
  8  9  1  0
 10 17  1  0
 11 23  1  0
 12 13  1  0
 12 18  1  0
 12 20  2  0
 13 21  2  0
 13 22  1  0
 14 15  1  0
 14 16  1  0
 15 16  1  0
 17 16  1  1
 17 20  1  0
 17 21  1  0
  1 24  1  0
  2 25  1  0
  3 26  1  0
  4 27  1  0
  5 28  1  0
  6 29  1  0
  7 30  1  0
 14 31  1  0
 14 32  1  0
 15 33  1  0
 15 34  1  0
 16 35  1  0
 18 36  1  0
 18 37  1  0
 18 38  1  0
 21 39  1  0
 22 40  1  0
 22 41  1  0
M  CHG  1  21   1
M  END
>  <OMEGA_C>  (15) 
NtjaQL+mDr+41rTBLF/JQBAaw78p863BGhnSQAwgTz+bPrPBM7ulQLL2cz6H36PBgNFkQEYSAcBm
GZrB6se0QHzRUcDdFpvBJp95QN1Ig8CBepDBSLGuQGzRkL+daaXB02CcQEl2CcB7Hp7B9ju3QJh9
nT8oxqrBnNdEQOHwQMBDSZPB+avVQEwkikA2R7HBWNiyQGiufUDdvrjBHlyaQJelPkB8tJTBiJOF
QJyzhkA07pnB8jaKQAJ2OkAsWKDBW0erQDePLkDNrKnBAEX4QLfUqkD/pLPBLRalQN8Dh8BWXJTB
3/DRQNnKZUAXgqjB6sCXQIS3S0D7v7PBSD6vQGZkjEDqTcPBi+y4Px2HOsDTY47B6hnvQIM6Xb/r
ZLvB4WPQQNt9JMBVMq/BgwbgQJaMxT+6ibjBxzyRQEENCj+jWJ3BS+M9QLYVlb8BOZzBosTUQFIy
WcBSOp7BGUphQMx/m8DPHYvBEeq8QEExPkBHB5PB1F6JQJ+VG0CJXY7BrHNLQEFokUAET5fBFEWZ
QBK2okDC+JvBVJ9YQMlUFkBUa6HBb0QHQXuWrEDA16zBeu0EQdg/oUCo4brBooPpQJ1fykC/7bTB
uxh1QAnzO0DaW7bBYlSWQAP/gkDYvcfBJ5HFQGCIn0CqdcbBIx/cQAgaEr/gV7TB4cLJQL5sxb+s
rq3BMIzSQIarSj/d5rLBM+SiQPIxVT7xRKTBNpJlQOjIAcDDjZnBq0i0QKJ/VMA9SJvBLHl7QLME
hMB/I5DBpW6tQCo+lL8jeKXBF+2bQIwyC8C3B57BpbG0QMaymj//CqvBcBJHQINMQcDhmJLBfCyA
QPCiS0B4bZrBxLmsQKNAS0BfjJbBUzHfQNvHg0BXyLXB6Hu3QFvqbUC7drzBaAq0QFRHeED9S7DB
Uz+sQATQLEBAKqjBW1szQCWmXkB/k5PBNTmlQBhUiMDkdJTBeNd+QLomN0B7n6TBeSjGQBjfPkBp
sZ7BSmS5QMy/VUARAIzBx3DBPwkVOcC6II3BDMrxQP35Xr+JobrBOVfRQEmAJcA72a7BUijiQP7j
wz/i2bfB28WMQPEyAD+QDp7Bb7Y+QJtTlb88cpvB2rfTQPaUXMBJup7BUyBkQM8vnMAasorBbI35
QN7HWUBwqLTByj3sQFdjpEDfXrbBR0SoQJJwjkCAzcHB6pO1QFTiLUARF8DBGemjQPLimUCa363B
jMXxP9PLWEAcbJjBer0wQN7nMEAb5YzBljg4QHgRkEB/Z5DBlh/mQBZXQUD9e57BkXfYQFUkVEAB
GorB3XOjQIftXkBiSobB

>  <OMEGA_E>  (15) 
9iV/P5Atcz8=

>  <OMEGA_NBR>  (15) 
     13071

$$$$
50220795
     RDKit          3D

 50 53  0  0  1  0  0  0  0  0999 V2000
    8.0734    3.9835  -22.6875 C   0  0  0  0  0  0  0  0  0  0  0  0
    3.1658    4.5535  -26.2519 C   0  0  0  0  0  0  0  0  0  0  0  0
    7.2870    4.4524  -23.7398 C   0  0  0  0  0  0  0  0  0  0  0  0
    3.9290    4.0616  -25.1989 C   0  0  0  0  0  0  0  0  0  0  0  0
    7.4816    3.2970  -21.6274 C   0  0  0  0  0  0  0  0  0  0  0  0
    5.3173    3.5480  -22.6720 C   0  0  0  0  0  0  0  0  0  0  0  0
    3.6082    5.7000  -26.8930 C   0  0  0  0  0  0  0  0  0  0  0  0
    5.4505    5.8596  -25.5290 C   0  0  0  0  0  0  0  0  0  0  0  0
    5.9091    4.2346  -23.7322 C   0  0  0  0  0  0  0  0  0  0  0  0
    5.0943    4.7210  -24.8243 C   0  0  0  0  0  0  0  0  0  0  0  0
    6.1037    3.0791  -21.6198 C   0  0  0  0  0  0  0  0  0  0  0  0
    5.2722    3.1669  -18.4439 C   0  0  0  0  0  0  0  0  0  0  0  0
    4.0039    3.3319  -19.0734 C   0  0  0  0  0  0  0  0  0  0  0  0
    6.6191   -1.8640  -20.6056 C   0  0  0  0  0  0  0  0  0  0  0  0
    6.5920   -1.0860  -21.9173 C   0  0  0  0  0  0  0  0  0  0  0  0
    5.4760   -1.4513  -19.6843 C   0  0  0  0  0  0  0  0  0  0  0  0
    6.5838    0.4222  -21.6769 C   0  0  0  0  0  0  0  0  0  0  0  0
    5.4646    0.0561  -19.4402 C   0  0  0  0  0  0  0  0  0  0  0  0
    5.4292    0.8432  -20.7575 C   0  0  0  0  0  0  0  0  0  0  0  0
    5.4742    2.3457  -20.4893 C   0  0  1  0  0  0  0  0  0  0  0  0
    5.5423    3.6068  -17.0446 C   0  0  0  0  0  0  0  0  0  0  0  0
    4.7348    6.3676  -26.5571 N   0  0  0  0  0  0  0  0  0  0  0  0
    6.1691    2.5953  -19.1927 N   0  0  0  0  0  0  0  0  0  0  0  0
    4.1044    2.8372  -20.2936 N   0  0  0  0  0  0  0  0  0  0  0  0
    2.9814    3.8868  -18.4548 N   0  0  0  0  0  0  0  0  0  0  0  0
    9.1463    4.1535  -22.6935 H   0  0  0  0  0  0  0  0  0  0  0  0
    2.2533    4.0561  -26.5600 H   0  0  0  0  0  0  0  0  0  0  0  0
    7.7630    4.9863  -24.5590 H   0  0  0  0  0  0  0  0  0  0  0  0
    3.6032    3.1637  -24.6798 H   0  0  0  0  0  0  0  0  0  0  0  0
    8.1015    2.9349  -20.8113 H   0  0  0  0  0  0  0  0  0  0  0  0
    4.2431    3.3744  -22.6601 H   0  0  0  0  0  0  0  0  0  0  0  0
    3.0491    6.1248  -27.7203 H   0  0  0  0  0  0  0  0  0  0  0  0
    6.3480    6.4212  -25.2859 H   0  0  0  0  0  0  0  0  0  0  0  0
    6.5566   -2.9383  -20.8127 H   0  0  0  0  0  0  0  0  0  0  0  0
    7.5766   -1.6913  -20.0989 H   0  0  0  0  0  0  0  0  0  0  0  0
    7.4627   -1.3572  -22.5250 H   0  0  0  0  0  0  0  0  0  0  0  0
    5.7010   -1.3686  -22.4915 H   0  0  0  0  0  0  0  0  0  0  0  0
    4.5205   -1.7556  -20.1291 H   0  0  0  0  0  0  0  0  0  0  0  0
    5.5649   -1.9784  -18.7277 H   0  0  0  0  0  0  0  0  0  0  0  0
    7.5422    0.7216  -21.2335 H   0  0  0  0  0  0  0  0  0  0  0  0
    6.5036    0.9411  -22.6395 H   0  0  0  0  0  0  0  0  0  0  0  0
    4.5946    0.3161  -18.8255 H   0  0  0  0  0  0  0  0  0  0  0  0
    6.3558    0.3343  -18.8630 H   0  0  0  0  0  0  0  0  0  0  0  0
    4.4828    0.6198  -21.2677 H   0  0  0  0  0  0  0  0  0  0  0  0
    5.3183    2.7958  -16.3508 H   0  0  0  0  0  0  0  0  0  0  0  0
    4.9218    4.4694  -16.7989 H   0  0  0  0  0  0  0  0  0  0  0  0
    6.5908    3.8883  -16.9398 H   0  0  0  0  0  0  0  0  0  0  0  0
    3.3157    2.8417  -20.9309 H   0  0  0  0  0  0  0  0  0  0  0  0
    3.0676    4.2195  -17.4946 H   0  0  0  0  0  0  0  0  0  0  0  0
    2.0822    3.9958  -18.9228 H   0  0  0  0  0  0  0  0  0  0  0  0
  1  3  2  0
  1  5  1  0
  2  4  2  0
  2  7  1  0
  3  9  1  0
  4 10  1  0
  5 11  2  0
  6  9  2  0
  6 11  1  0
  7 22  2  0
  8 10  2  0
  8 22  1  0
  9 10  1  0
 11 20  1  0
 12 13  1  0
 12 21  1  0
 12 23  2  0
 13 24  2  0
 13 25  1  0
 14 15  1  0
 14 16  1  0
 15 17  1  0
 16 18  1  0
 17 19  1  0
 18 19  1  0
 20 19  1  6
 20 23  1  0
 20 24  1  0
  1 26  1  0
  2 27  1  0
  3 28  1  0
  4 29  1  0
  5 30  1  0
  6 31  1  0
  7 32  1  0
  8 33  1  0
 14 34  1  0
 14 35  1  0
 15 36  1  0
 15 37  1  0
 16 38  1  0
 16 39  1  0
 17 40  1  0
 17 41  1  0
 18 42  1  0
 18 43  1  0
 19 44  1  0
 21 45  1  0
 21 46  1  0
 21 47  1  0
 24 48  1  0
 25 49  1  0
 25 50  1  0
M  CHG  1  24   1
M  END
>  <OMEGA_C>  (16) 
vywBQRHyfkD4f7XBOp1KQHy2kUDgA9LBwC7pQDx6jkAO673B2nR7QE74gUBal8nBPWnvQFgBU0Dk
BK3BDCeqQKQSY0BQYLXBAuxmQApmtkD1JNfBb2quQMaBu0BQO8zBUBe9QOyBh0CA273BZgSjQMIS
l0AimMbBzFHDQLUQRUBV9azBgrWoQFiuSkAPjZPBICCAQDM9VUBglpjBqs/TQDaW7r9e2KTBzfHS
QCQBi7+zVq/BmDuvQFjDub+EeZ3Brq7SQPQq2D42aq3BNN6uQGC5ZT18hZvBRrytQALbVz9DD6bB
Cy2vQEAgFkAQ6qPB1lqxQIzVZkBJW4jBfIOXQA/Dy0AJddTB+GjFQIIZJkCWipnBmVeDQB6UNUBY
WaLBRc8+QOvBeECIo5PBaFcSQZnphEBPjLXBtjUQQFjLgUDpetTBSWr4QIuPn0DmeMTBCJpmQKV5
SkA5cMXBq58BQaPUO0B/fabBbMeHQOX2V0DZR7XB4iRDQCv+w0A8w93BNCPLQGp6zUCXScrBec/R
QEsMPMBXgKbBT3PyQJp72L+ByqDBp87uQAS5rb8lM7TBu262QOgsr7+A7rPBJKiQQCC44L9UCKHB
+BOyQLc8/b9O0pXBFVrxQAK7OD9H3qnBwR3QQOLrcD/AHbXBwgaTQJDboT6wmpbB8WLLQPwoqz54
55bBB3OPQEqrHj9OJKrBXC+qQBjuMkBXzoLBZX+dQO8Ej0AXZIbBzufSQLfaeEC6hIfBSTRUQETe
NUB+cqfB1VJEQAYGh0Dm9IvBgUIFQCq7f0DRYZfB3HsHQYwViEAQS7TBeTmpQGC210BUP9TB9AP4
QCGdmEAH7bzB7a/AQDgKyECZpcvBhBL6QCytX0A2hKzBb0m3QBZLcUCPAbbBYAGGQIpawECenNfB
3LKQQCMWjUAHtcrBri7MQMTkkECFyL3BM2i0QPUKokDrvcbBPT3OQHA8UEC0X63B/jesQGr7SEAp
iJTB6hyFQOqCVEAcOZrBbnS4QOQ/87+izaHB29DgQDQhnL+W+qXBVhWQQN5Lnb9xD6bBVKrgQIhq
jj6kmKPBjMePQGzCiT4MsKPBLjm4QOKxdT/K7qfBcgK4QOdxHECGFKXBdkSxQNobYEBBBonB/TZy
QJBRm0BhC9PBEPrKQFtDKEDVOZrBwYKLQOKcOUDyG6TBTVNFQOaFdED9pZXBw4wYQbUbjkBToLPB
gj6yQOo/9UBnMtjBz2AEQTl3q0Be7MLBpHTcQP/G2UBy28jBMRgGQaolRkCP0KXBcBqVQDX+ZEDX
oLbBQENlQGkvy0CDSd7BqnKFQGSGXkByPcfBcJ24QA9IPcC9HKTBOE+4QMMo77/1B5nB1Bb9QNBg
17/9WKLBLVDjQAQhsL+IpK7B/OaNQAZxsb90uq7BA5pnQKxc2b96fKLBtefiQBQy3D766prBRzT9
QLjDPD+xI6fBP4hmQHinOD/eTKfB3S2NQOSk1z4OBJvBJWW4QIQ1YD9KsbDBRgypQFhyKUD4AITB
VU6cQBfOikApCofBt0jSQDPXckA3cIfBmalnQH9xO0CqpqnB/uBFQDQgg0DTy43BlPsNQHJEfEDh
25nBCmICQSeSmEB/ybDBj8psQGgukkDlCtLBPfDtQK6Xo0Dc+LnB4JuMQJZPhkB838jB3oDxQEIj
f0C15ajB0JmwQLg2eUDZYLPBOu2AQFDUuEB/zdbByli0QE4Fx0A9JsrBDt3DQCGclUDARLvBvDes
QJYMoUC4zMTBr23HQCQsY0CZMarB+i2gQNaHXkAX1JHB0EB0QDIyXEAvHJjBsUaaQBqBwb924qfB
6KGrQLhNjr8d8JzBZiGuQCpxLb90z7DBTySmQCx6xD7I35rBDa+oQL6YUT+9yK7Bble6QFAbnT9P
zaPB1/GyQOLILUA2x6HBtcOgQO5jfEAMf4bBUHCfQI2i00CAE9PBPznCQM4NREAy0ZbB1LeEQAKb
PkD/pKHBxIIpQBhldEBkR5TBgMMSQZp4o0BKx6/BzjQ7QPWwe0D3WdXBYGT9QBAdt0AWDcDB4++E
QGNJUEBd/cTBXcEBQRU+bkCVw6HBb8uPQOArY0BDV7TBkhhhQPqSw0BV+N3BpJnMQEZS3UDnYMfB
aaagQCrBJMAAUqnBBNNuQKcwsb/0+qfBeyibQCJB178sr5bBRqvNQPK4r78TcZzB1U7QQGT9ab9x
d7HBBmifQP93cb9derjBKuiDQOZbHT8gNprBfbW0QDB3Iz99KJPB2g+5QP2bsD+7HLXBbpuGQHLI
iT/MT6/BRATdQJ9Ehj8cxqPBMSKbQPyARkAYIoHBf+aHQOAslkC9QIXBtL2/QAN3jEDapITB3BVd
QHAVN0DrfafBLccjQEDnhEDDmozBBJznP7M+ckAm55jB63QEQV1Yh0AZcbDB2t6gQPS2y0DHitHB
umfxQInnlEAvTbnBaOC4QKgBv0Bvu8jB+qX0QJmSYkBrK6jBjmGxQJqubEArnrHBHqp7QAL2skAs
W9TBCbaJQITrg0DPisbBcqXFQJpmjED147nBQUutQM93mkCuFcPBsuPIQLeQUUAxwqjB2OanQNun
WEA31I/BIICAQAW0X0DPgZXByYbLQHSNqr8F467BXJOdQEP0Ub8Lhq7BnN7jQIolfL9Hr6TBftmb
QKWALT+rLazBKELiQCYfAz8VUKLB0A+0QF7vgz8u4KHBGVWzQM5wIkCc75/BPUCtQHPddkDvloTB
ODZjQFhFj0DbD8/Bs6XGQJRSNUAjR5XBaK+GQAECP0D/H5/BMww8QCbHgEBNKJHBZn4VQaT6jUDt
+6/BtFepQOAR6EAmEdbBNdQAQbYTpkCEr7/BTYTUQDzj0UAqXcbBDpkDQYqpTUAuS6HBR0KPQFcw
X0BDB7LByhtUQDN7u0BeKtvBZvx9QDg1TkCffMLB54PLQCnLGsDuC7DBrwvcQOoWZb9Cy7XBdriN
QPZgg7/SKrbBZbyLQDKBrr/3VqjBZhvWQHbkxL/M7p3B/KACQQBBp7+Ob6XBhpqpQGX/nD8M9rLB
dK10QKX4fT/1gqvBLWfyQHqCNT9cr5rBcDj0QDKfhj+TgKjBYcOjQEyxCz/lIJvBj5elQFY6Q0D3
FH7BWQSYQMxylkA/EIPBqjPOQECqhUCvRoPBZI5dQD/cPECKmqTBf/w8QDAEjECFf4nBIUcEQFIC
g0CtWpXBKOgGQftWTkCbWbbBMralQFv+BUH86rXBfhsCQd0gkkCFM7jBEUauQEz84EALB7TBgSH1
QIfVHkBjMq/BNEHJQOWSjUDWv6vBlMDHQIovE0EAkbjBmsn3QOXZ7kANh7fBJPDhQAhUpUAf57LB
PADYQGbi0UCo1LTBqNrSQNw7RUD95anB4F2oQJwuPUCf45HBQbODQJITTkDzVZjBvnSwQEfAA8Ds
95/BnDHbQPXyt78zIqPBdeGKQD8up79856TB5sncQAD6Uj2WbqDBkVOMQFg2Oz48N6LB9y+3QJZ+
UD84cqXBeIm4QIp4EkDYR6LBHBiqQJCVUUCsPYbBdbTwQHhsDEEDbLnBlAjIQIQpGkD+B5fBt7WM
QERXNECGJKLBdHFBQJQBcUBjY5TBrEEUQQJ1MEC1ebrBV22FQIU6DEG5U7XBfuELQZM6pECtzL3B
GB2UQGmiy0CW77HBhtL8QHTXtz+MzK3BhHeuQEFanECOl6fBgsrCQCMWJEEIHrrB5YIMQVYd5UAr
R7jB85ivQKTgRsDAf6LBPGKtQNRPA8DwOZfB9Ez1QESz+r8mB5/BgFvgQPBEyb8Fv6vBk2OLQIqb
t791nq3BcHNZQFQv3r/7CaLBcFPcQHxuMj75tJfB2Cv7QKT58D5oQ6PBn+ljQDquMT9rT6bB8wyH
QLTboD4pmZnBazG6QH5vQT/ZL67Bs8CeQIABG0C8mYHBTP2VQDh5hEBfhITBeufKQDBUYED354PB
QipuQOjQOUDQJqjBkJk9QJicgEDdf4zBvqcNQNmUfEBOIpnB

>  <OMEGA_E>  (16) 
8m1EwUEEP8E2jT3Bl15DwbKYQME=

>  <OMEGA_NBR>  (16) 
     17614

$$$$
50220799
     RDKit          3D

 46 49  0  0  1  0  0  0  0  0999 V2000
    4.4873    4.4723  -25.6780 C   0  0  0  0  0  0  0  0  0  0  0  0
    4.1922    3.2650  -25.0191 C   0  0  0  0  0  0  0  0  0  0  0  0
    5.3206    5.4253  -25.0623 C   0  0  0  0  0  0  0  0  0  0  0  0
    6.7671   -0.5809  -22.6392 C   0  0  0  0  0  0  0  0  0  0  0  0
    6.1664   -1.5638  -21.8360 C   0  0  0  0  0  0  0  0  0  0  0  0
    6.5962    0.7809  -22.3370 C   0  0  0  0  0  0  0  0  0  0  0  0
    4.7175    3.0140  -23.7397 C   0  0  0  0  0  0  0  0  0  0  0  0
    5.8735    5.1624  -23.7957 C   0  0  0  0  0  0  0  0  0  0  0  0
    5.1616    0.1789  -20.4594 C   0  0  0  0  0  0  0  0  0  0  0  0
    5.5387   -3.4099  -19.5768 C   0  0  0  0  0  0  0  0  0  0  0  0
    3.6113   -2.0216  -19.1269 C   0  0  0  0  0  0  0  0  0  0  0  0
    3.9082   -4.0704  -18.0418 C   0  0  0  0  0  0  0  0  0  0  0  0
    5.3688   -1.1900  -20.7320 C   0  0  0  0  0  0  0  0  0  0  0  0
    4.8235   -2.2192  -19.8219 C   0  0  0  0  0  0  0  0  0  0  0  0
    5.7790    1.1781  -21.2485 C   0  0  0  0  0  0  0  0  0  0  0  0
    5.5708    3.9613  -23.1188 C   0  0  0  0  0  0  0  0  0  0  0  0
    5.3352    3.2184  -18.6813 C   0  0  0  0  0  0  0  0  0  0  0  0
    4.0234    3.2664  -19.3530 C   0  0  0  0  0  0  0  0  0  0  0  0
    5.6099    2.6540  -20.8419 C   0  0  2  0  0  0  0  0  0  0  0  0
    5.5794    3.5352  -17.2294 C   0  0  0  0  0  0  0  0  0  0  0  0
    6.2645    3.7078  -21.7848 C   0  0  0  0  0  0  0  0  0  0  0  0
    5.0745   -4.3126  -18.6889 N   0  0  0  0  0  0  0  0  0  0  0  0
    3.1704   -2.9522  -18.2536 N   0  0  0  0  0  0  0  0  0  0  0  0
    6.2540    2.8280  -19.5322 N   0  0  0  0  0  0  0  0  0  0  0  0
    4.1936    2.9807  -20.6167 N   0  0  0  0  0  0  0  0  0  0  0  0
    2.8141    3.5427  -18.7345 N   0  0  0  0  0  0  0  0  0  0  0  0
    4.0745    4.6681  -26.6566 H   0  0  0  0  0  0  0  0  0  0  0  0
    3.5612    2.5301  -25.4968 H   0  0  0  0  0  0  0  0  0  0  0  0
    5.5355    6.3581  -25.5623 H   0  0  0  0  0  0  0  0  0  0  0  0
    7.3623   -0.8725  -23.4919 H   0  0  0  0  0  0  0  0  0  0  0  0
    6.3147   -2.6092  -22.0632 H   0  0  0  0  0  0  0  0  0  0  0  0
    7.0907    1.5298  -22.9377 H   0  0  0  0  0  0  0  0  0  0  0  0
    4.4702    2.0959  -23.2275 H   0  0  0  0  0  0  0  0  0  0  0  0
    6.5339    5.8843  -23.3383 H   0  0  0  0  0  0  0  0  0  0  0  0
    4.5234    0.4679  -19.6374 H   0  0  0  0  0  0  0  0  0  0  0  0
    6.4627   -3.5997  -20.1028 H   0  0  0  0  0  0  0  0  0  0  0  0
    3.0348   -1.1237  -19.2941 H   0  0  0  0  0  0  0  0  0  0  0  0
    3.5517   -4.7981  -17.3279 H   0  0  0  0  0  0  0  0  0  0  0  0
    6.6442    3.3884  -16.9956 H   0  0  0  0  0  0  0  0  0  0  0  0
    5.3012    4.5806  -17.0305 H   0  0  0  0  0  0  0  0  0  0  0  0
    4.9708    2.8680  -16.6013 H   0  0  0  0  0  0  0  0  0  0  0  0
    7.2888    3.3701  -22.0012 H   0  0  0  0  0  0  0  0  0  0  0  0
    6.3007    4.6636  -21.2415 H   0  0  0  0  0  0  0  0  0  0  0  0
    3.4785    2.9836  -21.3157 H   0  0  0  0  0  0  0  0  0  0  0  0
    1.9671    3.5338  -19.2660 H   0  0  0  0  0  0  0  0  0  0  0  0
    2.7886    3.7510  -17.7567 H   0  0  0  0  0  0  0  0  0  0  0  0
  1  2  2  0
  1  3  1  0
  2  7  1  0
  3  8  2  0
  4  5  2  0
  4  6  1  0
  5 13  1  0
  6 15  2  0
  7 16  2  0
  8 16  1  0
  9 13  2  0
  9 15  1  0
 10 14  2  0
 10 22  1  0
 11 14  1  0
 11 23  2  0
 12 22  2  0
 12 23  1  0
 13 14  1  0
 15 19  1  0
 16 21  1  0
 17 18  1  0
 17 20  1  0
 17 24  2  0
 18 25  2  0
 18 26  1  0
 19 21  1  6
 19 24  1  0
 19 25  1  0
  1 27  1  0
  2 28  1  0
  3 29  1  0
  4 30  1  0
  5 31  1  0
  6 32  1  0
  7 33  1  0
  8 34  1  0
  9 35  1  0
 10 36  1  0
 11 37  1  0
 12 38  1  0
 20 39  1  0
 20 40  1  0
 20 41  1  0
 21 42  1  0
 21 43  1  0
 25 44  1  0
 26 45  1  0
 26 46  1  0
M  CHG  1  25   1
M  END
>  <OMEGA_C>  (17) 
V5iPQNgcj0CabM3BjyaGQEX2UEAZJ8jBlEKqQLqbrUCqf8jBKYzYQBi3FL8XHbXBwFLFQOwryL8M
sK7BPBTTQCjoRz8UsrLBtPWWQNjlQEDw6r3B5PO7QLkypUCfXb7BKCylQGY4Nz7IrKPBZj2xQKc7
WsBHnZzB3h9nQIVhAcD3A5nBYSB6QIxAgsCbVZDBls2rQCpTmL8z26XBZ1qaQIMHDsAxk57BZe24
QIjMlj8F/anBA0SyQKWGfUA687jBLbqqQIf6TUBIc5XBGsCAQFYNUUDz0prBboSzQAXbKUAcvKbB
L4qyQPo/YkDe1YnBBHfIQMlMbUBDR67BE2KiQGwAisDagpXBCOdKQBHxPMBTB5LBaiDIQCn9NEDy
QZzBnzGGQIDDPkAP76TBOBo0QE28YkA24JXBamKCQNlglUC/QNXBT+tjQG3tIUBj+cvBhCKxQMx1
y0Cqf8zBNpjrQDFaX79v77vBaBLKQLL8JsCGgbDBEOfiQKbRwz+DgLfBIQyPQPAjBkDj0bnBehXR
QGBMvEDYtLrBt7+QQCeL7z53GZ3Bn87OQBJhZsB50qDB5DpCQArWj783WprBvk9jQDqKmcB2n4rB
6ZzUQMLaWED49ofBPKOpQKqUkkCPPojBuBCfQKWMN0CPz4TBsD3pQCavV0B6ArDBYp/JQD48lUCg
7qnB/55eQLvzPkCjhqrBSMr7P4MqYkDLIJrBKHkyQOsPcEDIDY7BMYeXQM3am0AlIczBGJ+2QKxO
tUBUB8fBjSuJQJ+ua0A9RcfBHEPWQHA0FL9MZrXB6PbDQOo0yL9q067B0fLQQHF9SD/88bLBZqLH
QAp8qEAVHL3BxZmZQIamUkClRr3BvLCkQOxgNT4BoKPBjQCzQGmPVsC885vBVGNjQFp/BcCAuJnB
Imd6QEZ8gsCOWpDBahGrQE98mL9Z5aXB9iOaQB9GDsDHl57BwVO4QBvulj8m9qnBm+u4QFK7gkD6
FrjBXUiqQJ5vSkBNEZXBvByBQEU2UUC5wJrB3tK0QBDBKUDFa6bBI/iwQPsGXEAWV4nBIVjNQHBP
bEA7eK3B9k+kQKQ1iMC31JTBWHtHQBtCQcBnvJLBURnIQAXAMEATuJvBFs2HQMfKQkCA6qTBPOkz
QAupYkD/A5bBFq+KQG2DpUBOx9PBc2XBQBqh0kBmucrBTv1iQDqCRECiOcvBWHvoQOFjXr+kXbzB
2PbIQBj9JsBmnLDBKrzfQDZGxD8H8bfBIxXgQHWcu0CuT7nBYlKOQGCLGECzirnBoZqQQK9y7T6F
+pzB2erRQD6lX8CzpJ/Bqas7QJ3Rnb9mk5vBIrFjQO/YmcCZp4rBoZ7SQG8CUEBiPYfBqPmoQPmX
j0DqnYfBxy+cQAy+MUCTmITBhhXtQHZfUUDDPa/BugvRQCaCk0Cms6jBLtljQIrsR0AYuKrB9Mb9
P8EVZUBMfJrBBXMwQAnSbEABIY7BoMLjQPm380CLmaPBeeL+QJo730C+/6rBjGO9QKwE4EBPcqDB
muTOQIjtGb/UarbBzGHAQLQ8yr/FOa/BsX/KQMDwQj9277PBjsT0QNsNtkDJzq7BJi+yQNgXuEDM
uqTBe4upQKaILT6M5qLBfwevQMfAYMBLf53BOQlzQO1I+r8oLJfB0oV7QJH9g8A9U5DBwRatQIiu
mb+GdaXBkIKcQMaADsCK/Z3BRGG4QAEklT+xBqrBbuvOQKFyoUBhaavBxuGpQHhaT0AHipXBOKh/
QIhiT0D6+5rBiE6zQFAsKUDZ1abBxDKxQF00akBWFIrBrsvFQMZzaEAhcK/B5HufQAkFjsASrZbB
nFVVQEAOOsBseZDBl/HHQMzxN0BaUZzBV4mFQDuxOUBAAqXBq90yQGo3aUBfcJbB/XXsQJ1FCUHH
WqDBPMENQXsl70D0wa3BMpeoQK6P70CLvprBg3vdQKfDZb/u4b3BzvnDQKIXKMD0KbHB//jUQJMJ
wT9DmrnBMwMFQcwtpkA2WLTBLkaTQCR0qkAv6aLBFUmbQEiF7D7cYpvBu8nJQD9acMAJm6LB7SVV
QGpRe7/aUZfBwTFjQEYNnMB764rBD5jTQHg6Z0ARP4jBvaWlQOoJlkBn8IjBPqyfQCXgPkDls4TB
FYWuQGoLbUC3A7bBC/DjQO5nTUC6ebLBg/tcQHAaNUCNh6rBee77PwB4bEBd7JrBpGwwQJSUeEDM
rY7BNYG1QO2K90BGxqbBHcOVQCxU4kB6yKzB37PaQAd/4UD3jaPBS/nPQBX1HL9tKbbBz3fAQMxS
zL9rJa/B7QfMQIwAPz98i7PBGkabQO0Yt0Aqna/BZkXgQNBAtkAlYabBwqaoQEIjEz6o06LBFyCv
QOPPYsCRmJ3BrqFyQHBWAMDmJpfBuk18QF3BhcDTbZDBV6GsQHbknL/Sa6XBCkOcQNjNEMDXA57B
Nku4QMYrkj/wz6nBG6vAQL4SoUAoeazBxrmpQCNNUkCMj5XBL/p/QNV1VEBFGpvBAg+zQGGWJ0Bw
sKbBptCwQG5ua0CbBorBcRzGQDnBZEDNU6/BU+CfQAZcj8CN0ZbB4pFVQJXYPcB2fpDBLIrHQFBp
N0AdMZzBvWKFQPYDOkCb86TBshczQErrbUB7jJbBZVGxQHNhDEEDoqTBRHhyQDI/80AxNq/B9ujy
QNTH8UBM7J7BTfneQBVCZ79Zl73Bv7TDQJsDKcC2L7HBRhnYQEWZvz9R+bjB9emCQPbFpkC0L7TB
o6/8QIVKpUB846PBMniZQBXc3D4EapvBp+nJQC+zccBkuqLB3ElUQGZ5hL8QO5fBhWtkQIUPnsCh
D4vBhNrSQB/QY0AI/4fBM1mnQEtOl0By4IjBE2WdQEAtQkCezYTBGNy1QGSXWEDc+7bBH3noQIwS
V0C9LLDBr3NcQD1oM0D2aKrBTbn6P5sEbUDH5JrBOmoxQHGVgEAK7I7B/BrXQMh68kDWiKTBj1Ku
QNxw5kDgU6jBTPb4QCSz1EAYhaTBQdnJQN4AJL+C/LbBsqW+QF9hz7/gdK/BvCjFQMMdOD+cfrTB
tVmnQOGfvEDcJ6zBKxbyQL75qkB8WqjBy8CqQPn4AD4iwaLBhA2TQF3PYsDa5qDBQM2jQISPAsDt
WZLB/QyKQOVBhsD3Go/BB6uuQDZln7/uTqXBZNWhQMz4EcDBeJ3BPSe2QHeUjz/5QarB2F/JQLT2
nkASP6zBiACsQA8hUkB37pXB7PaAQOykUkD5z5rBBGmxQOaHJkDcJafBUNu1QNuybECVk4rB2YjC
QNJXY0DBGrDBkVyHQPlSj8DQsJnB+vuXQD79P8DwWovBgzvIQOLJNkCx85zBqz6EQGZsOUDqxaTB
YOw2QM/BaUDMnJXBL2PcQEFNCUF5oqHBz2qUQAVR/UDIS6jBng4MQYTo3UAokqHBCxvWQJkdb79Z
t77BTD/CQBCdKsDLa7HBRAbNQPzHuz/saLrBZBaIQLZPs0BgAq/BGfsFQdgQlEC6UqjBDumeQCZD
1T4/+prBfReRQLXWcMAEWanBsM+uQBe0ir8Nbo/BH7OAQHSJnsAda4nBEVvYQNWuZUCnEInBEHys
QBH0l0CWZ4nBbOWjQBfdQ0AY/YTBDzqrQE5jZECasrbBNzvhQDwXSkDCCLPBfOtXQNHjM0DG76nB
JT7+P1v3Z0ADhpnBRq84QE0zfEB99I3B9nTMQGp090COR6rBaZLlQOa34kD7ErLB6tOqQHJg4UDJ
R6XBdHDkQByVIL/ud7LB4LTLQAMAzr8iU63B2TXcQLaWPD/gqbDBXWveQMxCt0CJf7TBAS6iQILm
tkAHKajBJXqiQK2hDD7dfKTBvt+JQNxQYcBP5aTBbgyAQCc+/r+UJ5bBIbpEQMkbhMByyZXBoPeq
QDSQnb/XI6bBRpGRQAAeEMBqXKDB0tS5QKGzkT9w+qnBZ0i9QB6OoEAZU6/BONWtQBvvWkA17ZbB
xneBQGKETEDPnprBb7WvQAPsJ0Dw2afBFqq5QGShgEDQPYzBA3O2QFiDYkDG97HBWsZkQA35jcCA
kJ/BbKZRQBpPO8BXCJHB6fvIQOVJRUC7hp7BMbiCQPLWMEDBfaTByjo5QKQUYEDM75TBdRHTQH8l
DEE6J6jBX2T+QGkw9ECuNLbBQrWXQNYM8UBAPp/BtNz9QI7Ya7/t07fBcbzRQNXuKcDV3a7BEzTw
QLr4vT+bZLTBpVLyQFFKp0AkU7rBgXeGQM/7pkAh36TBlbOJQJI42z537p7BLtaWQP6pcMD6q6zB
TUeFQE09g787b5LBBVQfQBnlm8CQnJHBaZ/cQLQ8hECjvovB52iqQGUtoEBMaIvBaZKuQOjiVkDO
yIXBp/uZQPgBXUAoGbfB/bHSQJdES0CJV7bByGhSQBPNI0A9CanBE8D/P6RVWUCHYpjBIHQ9QM/t
dEA7ZI3BkOSfQDgWuUBJ4r7BcxeHQD1uk0CGhr7BufLHQOSNukBqtbnB1C0CQdCaXjvz7ZDBKTjq
QEAakr/0eZDBsGz2QK4Ykz8idZbBnGGWQIJcXkALBbnBnUTXQFtZlkDDMLTBhEe0QLjFGLtdOZvB
kKO3QBdVacBFS5TBAiJyQCU8D8BA2JXBm6hlQK/skcDrnJTBgOnBQGNvk7+6opXBChWmQPh9FsDL
PpXByc7NQIfplD/8d5vBpqa+QPXaYECZ37PBrBqsQGFKikCDRpnBSLGEQBdLZkCzNpzBKVy+QMtc
GUCulaHBzHatQIMEtUDmqZPBmgbOQPFcFECHX63BOtSdQP1Kl8C8ApTBk2VAQEvQVcBagZXB67jN
QBiMaEAxXJzB/lqPQPWcH0ABHaHBkIg2QLrfgEBUNZrBzzKUQHXU1EBRIMPBTrtQQGhekkDReMLB
L+XaQCZw10BR+bnB4JcRQa1bHTs+Bo3BM/j0QMX/AMBSLIzB5GMFQQlOAUDd4JbBt02DQALGJEDf
urjBm+L1QD+Tl0DNMbDByvOVQK7qX7zHXZ/BdufZQDNjccA1ypPBGPVUQCyzob8nlJbBtiY9QEDp
rcAfX5TBy/TOQEHlvkCJjZLByKKcQBAJzUDYh5jBp8edQE5HskC50IvBOJrBQDWxsj+oB7HB1zfx
QNEOE0Ahda3BWbh1QOMb6T9rE6TBO84EQM08XkBNlpzBxYIsQGSHnEAgYpbBaVvZQPEq70BLBaHB
/H+7QAfl4kBu5ajBzuf1QGrD0ECbtpzBAKi1QGr6Fr8xjrfBlIytQMtOz78TMrDBg/q3QMw4Pj8S
ErTBuUa6QGo/uED0fazBBsj0QIsWpkCkUKDBNpKpQE6erzzWyqHBAD6tQB5nbcAoHp/Blw6FQNH/
CcDROZTBxa6MQHqZjMCANo/BEAynQD7zqL9aQ6XBDrWdQHqaGcAWf53BYzGzQBwEiD/pEqnBZRvX
QNPSmUDKQqjBg3CiQJMTSEASVJTBRg1+QPtIXUCRr5vBtga1QLUnIUDFI6XBH1eiQPWfWEA5bIjB
TcvUQJmXV0A8/KvBY5WkQNrdlcAT95fBLMR5QPXoScD1QI3BbAjCQI4zJUBcvJnBPqOJQHJNRUBJ
XqXB2ecxQNg4gkD1v5jBL1/aQJb2B0GJR57Bc5alQBEz+kCpKqzBzlEGQfs22kBdppbB4x26QCnD
Ur/A6r/BZEasQMJCKcB35bLBkHS9QI0ZxD9Bz7nB3EejQH/ErkCWfbLB3EoFQYPFjkAtAZ3BKBak
QM0Pgz6CeJnBnCrAQFa8e8AyH6bBb2BxQGw3lb+NtZLB8/GFQDbdpcAwkInBIdTAQMz6QkCM9ITB
2VieQFnIjkAj8obBHsOHQIRkNUD3sYTBICXKQMqMVkA1X7TB9OD0QOcEO0DtZavBdV1uQMa4SkBe
3qvBi0UFQKhbiEAzRp7B+aYnQAUzikDxG5HB

>  <OMEGA_E>  (17) 
aKDePqDeyD70+SU/JBYvPyTnYT+An1c/Po+HP0LYdT8=

>  <OMEGA_NBR>  (17) 
     24328

$$$$
50220801
     RDKit          3D

 59 62  0  0  1  0  0  0  0  0999 V2000
    6.0261   -5.1601  -17.9484 C   0  0  0  0  0  0  0  0  0  0  0  0
    6.7803   -5.9656  -17.4464 C   0  0  0  0  0  0  0  0  0  0  0  0
    6.9044   -0.5407  -22.6207 C   0  0  0  0  0  0  0  0  0  0  0  0
    6.3216   -1.5573  -21.8435 C   0  0  0  0  0  0  0  0  0  0  0  0
    6.6017    0.8071  -22.3564 C   0  0  0  0  0  0  0  0  0  0  0  0
    5.6763   -3.3031  -19.4847 C   0  0  0  0  0  0  0  0  0  0  0  0
    5.0965    0.1188  -20.5715 C   0  0  0  0  0  0  0  0  0  0  0  0
    5.1190    3.5587  -23.2074 C   0  0  0  0  0  0  0  0  0  0  0  0
    6.9045    4.4497  -21.8007 C   0  0  0  0  0  0  0  0  0  0  0  0
    3.8656   -3.9841  -18.0141 C   0  0  0  0  0  0  0  0  0  0  0  0
    3.5689   -2.0979  -19.3664 C   0  0  0  0  0  0  0  0  0  0  0  0
    5.1735   -4.1698  -18.5089 C   0  0  0  0  0  0  0  0  0  0  0  0
    5.4163   -1.2230  -20.8120 C   0  0  0  0  0  0  0  0  0  0  0  0
    4.8686   -2.2399  -19.9114 C   0  0  0  0  0  0  0  0  0  0  0  0
    5.6740    1.1431  -21.3360 C   0  0  0  0  0  0  0  0  0  0  0  0
    5.8148    3.5702  -21.9811 C   0  0  0  0  0  0  0  0  0  0  0  0
    5.5100    4.4096  -24.2534 C   0  0  0  0  0  0  0  0  0  0  0  0
    7.2911    5.3180  -22.8319 C   0  0  0  0  0  0  0  0  0  0  0  0
    6.5766    5.3206  -24.0529 C   0  0  0  0  0  0  0  0  0  0  0  0
    3.9541    3.1622  -19.2960 C   0  0  0  0  0  0  0  0  0  0  0  0
    5.3160    3.1690  -18.7287 C   0  0  0  0  0  0  0  0  0  0  0  0
    5.4208    2.5791  -20.9025 C   0  0  1  0  0  0  0  0  0  0  0  0
    7.6979   -6.9121  -16.8259 C   0  0  0  0  0  0  0  0  0  0  0  0
    4.7303    4.3826  -25.5545 C   0  0  0  0  0  0  0  0  0  0  0  0
    8.4393    6.2810  -22.5949 C   0  0  0  0  0  0  0  0  0  0  0  0
    2.7058    3.5275  -18.5370 C   0  0  0  0  0  0  0  0  0  0  0  0
    6.1618    7.4386  -25.0002 C   0  0  0  0  0  0  0  0  0  0  0  0
    3.0879   -2.9656  -18.4483 N   0  0  0  0  0  0  0  0  0  0  0  0
    4.0019    2.8037  -20.5588 N   0  0  0  0  0  0  0  0  0  0  0  0
    6.1537    2.7856  -19.6514 N   0  0  0  0  0  0  0  0  0  0  0  0
    5.6593    3.5224  -17.4335 N   0  0  0  0  0  0  0  0  0  0  0  0
    6.9212    6.2124  -25.0415 O   0  0  0  0  0  0  0  0  0  0  0  0
    7.5843   -0.7948  -23.4204 H   0  0  0  0  0  0  0  0  0  0  0  0
    6.5658   -2.5918  -22.0348 H   0  0  0  0  0  0  0  0  0  0  0  0
    7.0764    1.5885  -22.9313 H   0  0  0  0  0  0  0  0  0  0  0  0
    6.6627   -3.4495  -19.8993 H   0  0  0  0  0  0  0  0  0  0  0  0
    4.3967    0.3681  -19.7876 H   0  0  0  0  0  0  0  0  0  0  0  0
    4.2805    2.8916  -23.3428 H   0  0  0  0  0  0  0  0  0  0  0  0
    7.4427    4.4538  -20.8644 H   0  0  0  0  0  0  0  0  0  0  0  0
    3.4775   -4.6683  -17.2741 H   0  0  0  0  0  0  0  0  0  0  0  0
    2.9474   -1.2769  -19.6921 H   0  0  0  0  0  0  0  0  0  0  0  0
    7.5486   -7.9097  -17.2647 H   0  0  0  0  0  0  0  0  0  0  0  0
    8.7339   -6.5863  -17.0003 H   0  0  0  0  0  0  0  0  0  0  0  0
    7.5041   -6.9549  -15.7439 H   0  0  0  0  0  0  0  0  0  0  0  0
    3.8930    5.0936  -25.4956 H   0  0  0  0  0  0  0  0  0  0  0  0
    5.3935    4.6654  -26.3853 H   0  0  0  0  0  0  0  0  0  0  0  0
    4.3390    3.3690  -25.7264 H   0  0  0  0  0  0  0  0  0  0  0  0
    9.3836    5.8101  -22.9060 H   0  0  0  0  0  0  0  0  0  0  0  0
    8.2761    7.1973  -23.1812 H   0  0  0  0  0  0  0  0  0  0  0  0
    8.4907    6.5341  -21.5257 H   0  0  0  0  0  0  0  0  0  0  0  0
    1.8343    3.4482  -19.2035 H   0  0  0  0  0  0  0  0  0  0  0  0
    2.5801    2.8415  -17.6863 H   0  0  0  0  0  0  0  0  0  0  0  0
    2.7910    4.5596  -18.1662 H   0  0  0  0  0  0  0  0  0  0  0  0
    6.4891    8.1008  -25.8153 H   0  0  0  0  0  0  0  0  0  0  0  0
    5.0921    7.2115  -25.1196 H   0  0  0  0  0  0  0  0  0  0  0  0
    6.3249    7.9384  -24.0340 H   0  0  0  0  0  0  0  0  0  0  0  0
    7.1369    2.6540  -19.5253 H   0  0  0  0  0  0  0  0  0  0  0  0
    6.6162    3.4943  -17.1444 H   0  0  0  0  0  0  0  0  0  0  0  0
    4.9501    3.8056  -16.7878 H   0  0  0  0  0  0  0  0  0  0  0  0
  1  2  3  0
  1 12  1  0
  2 23  1  0
  3  4  2  0
  3  5  1  0
  4 13  1  0
  5 15  2  0
  6 12  2  0
  6 14  1  0
  7 13  2  0
  7 15  1  0
  8 16  2  0
  8 17  1  0
  9 16  1  0
  9 18  2  0
 10 12  1  0
 10 28  2  0
 11 14  2  0
 11 28  1  0
 13 14  1  0
 22 15  1  6
 16 22  1  0
 17 19  2  0
 17 24  1  0
 18 19  1  0
 18 25  1  0
 19 32  1  0
 20 21  1  0
 20 26  1  0
 20 29  2  0
 21 30  2  0
 21 31  1  0
 22 29  1  0
 22 30  1  0
 27 32  1  0
  3 33  1  0
  4 34  1  0
  5 35  1  0
  6 36  1  0
  7 37  1  0
  8 38  1  0
  9 39  1  0
 10 40  1  0
 11 41  1  0
 23 42  1  0
 23 43  1  0
 23 44  1  0
 24 45  1  0
 24 46  1  0
 24 47  1  0
 25 48  1  0
 25 49  1  0
 25 50  1  0
 26 51  1  0
 26 52  1  0
 26 53  1  0
 27 54  1  0
 27 55  1  0
 27 56  1  0
 30 57  1  0
 31 58  1  0
 31 59  1  0
M  CHG  1  30   1
M  END
>  <OMEGA_C>  (18) 
z9XAQG0fpcBClo/BEvjYQE7mvsBKkovBjvDcQB5sCr8a97TB0ErKQDJWx79uv67B/UDTQJifTj/S
2bLB5KO1QIJmU8Cr4JvB7hajQKlh8z1XkqTBtc6jQK3BY0DIqLnByvHcQA5kjkDMZ67BsGZ3QGf7
fsDTHJDBSmhkQANEBsBX7prBYY2lQP9uhcAyEpTBj1KtQNyMnL8Cf6bB6MubQAFaD8CjSp/BJZG1
QLpQkj8UsKrBCBO6QDl+ZEA32a/BJlKwQFQbjUADB8LB+VDpQLUsqkClp7bBNXPSQCxCqkBebMDB
ag99QDViSkAiXprB3RyqQKvQSkB51JXBe3etQAkQJUBVOKfBFlX2QEEw3cBqm4bBQF6XQJA+jECw
b8zBcgcHQZX9yEBzwrTBiCstQNbBYUCzS5TBLy3FQCcJ7kBvAMjBZqBFQNfLPcAGlpPBSA+AQDJv
M0B0eKTB/OrEQBNIMkAcNp3B1Bi1QGBvYUC/d4vBanrdQNLLxkDrVMjBL7LyQDV4S7/7XLvB1BrS
QEzgJcBLR7DBl3HiQLRTyz9Ec7fBvTTVQDPFXMDVMZ/BrbGMQP96vD76TJ7B7/mIQNIPOUAUvrrB
ySruQMeFjkAx6qbBno5eQBNjlcBtMYrBS6I8QOpwo79+iZ3Bb47xQIgc/cANHorBPb4LQd7C0sCE
AIjByCHwQGaO3sAj53vBiSZ5QOv+okAG98vBi5esQFxLlUAKFdPBJNmKQG2eV0DFz83BDyMWQb/s
uUB6P7fB02oEQRxQ5kAdc7nBFtoHQfsW0UCgNKzB08vqPxKwXEDZoJnB2SAlQF7aNUCPfY3BHaAy
QPnnkUBWVJHBT6bPQOucAUHBhc7Bj/KiQIjE5kDl9MjBamXKQL0H/kChRcDBwGHkQKrbKUDbM5zB
wrfTQBKiX0DHJ4nBAGeeQDyPc0CETYbBVQy9QLllq8DXX5HBkaTSQIQEysBv3Y7B4DDdQLqgDL8G
vrTBLoDKQPdWx784dK7BkrXTQA4ITT8Os7LBzQe1QH0NVcDY8ZvBK+GjQCqUBj5hR6TBE8LdQO9e
jkBFiK7BzI+kQIpqY0DpvLnBLTB1QHcfgcBXcZDBHgtlQNo6BcA5kZrBcx+kQHaLh8AmkJTBPtat
QDNTm7/8J6bBFQKcQPC1DsDp+57Be0W2QHrokj98g6rB3Ne6QNtzZEDE7q/Be+jpQE9JqkCtx7bB
2+GwQIz7jEDVHMLB0s/SQCdfqkAzhsDBi5l8QOxlSkC4hZrB+6apQMarS0CL3ZXBa/2tQIK4JUA7
PKfBe47sQIb97sAG9ovBfhQHQYilyUAO0LTBoq+XQGEsjEDAe8zBf/MrQOPvX0AcgJTBdNHEQMPJ
7kCNnMfB8iVFQFBoPsB/fZPBFGeAQH6xM0B7oKTB7fXEQH5RNEAKMZ3B+OezQNm5YUDMcIvBlOrc
QLqAx0CkX8jBJ9XyQD7dT793JLvBEgvSQMEIJsCZ9q/BwN3iQDC/yT8TX7fBYanUQP8zXsB3O5/B
QMyNQMGTxz5H9p3BCzLvQPtmjkCdEqfBtNqJQDNmOEAk0LrB429bQEGzl8B9v4rBe14+QH0rnr8N
6JzBHO31QA6b7MDef4PBR+TZQLY1BsFUM43B7bUEQVDf78Ak/pDBT1EWQQkeu0CCTbfBR0MEQcL+
5kBydrnBOssHQcmQ0UDoPqzBbKN5QN/QokCa88vBH7esQPhllUAjJ9PBhkGLQOtrV0Bw3s3BbRXp
PzHFWUC335nBkYwkQEK+M0CTto3BDdovQO4EkUAWg5HBd3TOQJBDAkGLGc7B/XKiQC2250CMTsjB
3izLQDER/kA+2L/BTH3kQCN8LUCNH5zBVWbSQDBzYEAtBYnBR9CcQL7rckAqVobB

>  <OMEGA_E>  (18) 
BHczP3a7Mz8=

>  <OMEGA_NBR>  (18) 
     39539

$$$$
50220826
     RDKit          3D

 44 47  0  0  1  0  0  0  0  0999 V2000
    6.7491   -0.6273  -22.5879 C   0  0  0  0  0  0  0  0  0  0  0  0
    3.0734   -3.0087  -18.2555 C   0  0  0  0  0  0  0  0  0  0  0  0
    6.1803   -1.5881  -21.7349 C   0  0  0  0  0  0  0  0  0  0  0  0
    3.5476   -2.0254  -19.1380 C   0  0  0  0  0  0  0  0  0  0  0  0
    6.5302    0.7430  -22.3600 C   0  0  0  0  0  0  0  0  0  0  0  0
    7.0080    4.5200  -21.9641 C   0  0  0  0  0  0  0  0  0  0  0  0
    5.1496    3.6403  -23.2826 C   0  0  0  0  0  0  0  0  0  0  0  0
    7.2437    5.4950  -22.9550 C   0  0  0  0  0  0  0  0  0  0  0  0
    5.3889    4.6148  -24.2723 C   0  0  0  0  0  0  0  0  0  0  0  0
    5.1235    0.1885  -20.4459 C   0  0  0  0  0  0  0  0  0  0  0  0
    3.8849   -4.1240  -17.9625 C   0  0  0  0  0  0  0  0  0  0  0  0
    5.5745   -3.3454  -19.3889 C   0  0  0  0  0  0  0  0  0  0  0  0
    5.3704   -1.1854  -20.6518 C   0  0  0  0  0  0  0  0  0  0  0  0
    4.8213   -2.1928  -19.7194 C   0  0  0  0  0  0  0  0  0  0  0  0
    5.9254    3.6118  -22.0960 C   0  0  0  0  0  0  0  0  0  0  0  0
    5.6993    1.1668  -21.2953 C   0  0  0  0  0  0  0  0  0  0  0  0
    6.4072    5.5709  -24.0869 C   0  0  0  0  0  0  0  0  0  0  0  0
    5.4012    3.1819  -18.7558 C   0  0  0  0  0  0  0  0  0  0  0  0
    4.0459    3.2064  -19.3315 C   0  0  0  0  0  0  0  0  0  0  0  0
    5.5281    2.6540  -20.9528 C   0  0  1  0  0  0  0  0  0  0  0  0
    5.7165    3.4386  -17.3018 C   0  0  0  0  0  0  0  0  0  0  0  0
    5.1075   -4.2763  -18.5246 N   0  0  0  0  0  0  0  0  0  0  0  0
    6.2746    2.9046  -19.6987 N   0  0  0  0  0  0  0  0  0  0  0  0
    4.1270    2.9358  -20.6077 N   0  0  0  0  0  0  0  0  0  0  0  0
    2.8811    3.4773  -18.6305 N   0  0  0  0  0  0  0  0  0  0  0  0
    6.5523    6.5864  -24.9702 F   0  0  0  0  0  0  0  0  0  0  0  0
    7.3576   -0.9428  -23.4226 H   0  0  0  0  0  0  0  0  0  0  0  0
    2.0965   -2.9118  -17.8053 H   0  0  0  0  0  0  0  0  0  0  0  0
    6.3635   -2.6381  -21.9089 H   0  0  0  0  0  0  0  0  0  0  0  0
    2.9481   -1.1569  -19.3673 H   0  0  0  0  0  0  0  0  0  0  0  0
    6.9984    1.4757  -23.0006 H   0  0  0  0  0  0  0  0  0  0  0  0
    7.6542    4.4641  -21.1006 H   0  0  0  0  0  0  0  0  0  0  0  0
    4.3685    2.9089  -23.4293 H   0  0  0  0  0  0  0  0  0  0  0  0
    8.0672    6.1852  -22.8465 H   0  0  0  0  0  0  0  0  0  0  0  0
    4.7921    4.6287  -25.1723 H   0  0  0  0  0  0  0  0  0  0  0  0
    4.4873    0.4991  -19.6303 H   0  0  0  0  0  0  0  0  0  0  0  0
    3.5232   -4.8736  -17.2743 H   0  0  0  0  0  0  0  0  0  0  0  0
    6.5467   -3.4852  -19.8380 H   0  0  0  0  0  0  0  0  0  0  0  0
    6.8019    3.3589  -17.1418 H   0  0  0  0  0  0  0  0  0  0  0  0
    5.3786    4.4485  -17.0263 H   0  0  0  0  0  0  0  0  0  0  0  0
    5.1985    2.6956  -16.6777 H   0  0  0  0  0  0  0  0  0  0  0  0
    3.3586    2.9226  -21.2474 H   0  0  0  0  0  0  0  0  0  0  0  0
    2.0006    3.4762  -19.1044 H   0  0  0  0  0  0  0  0  0  0  0  0
    2.9214    3.6738  -17.6508 H   0  0  0  0  0  0  0  0  0  0  0  0
  1  3  2  0
  1  5  1  0
  2  4  2  0
  2 11  1  0
  3 13  1  0
  4 14  1  0
  5 16  2  0
  6  8  2  0
  6 15  1  0
  7  9  1  0
  7 15  2  0
  8 17  1  0
  9 17  2  0
 10 13  2  0
 10 16  1  0
 11 22  2  0
 12 14  2  0
 12 22  1  0
 13 14  1  0
 20 15  1  6
 16 20  1  0
 17 26  1  0
 18 19  1  0
 18 21  1  0
 18 23  2  0
 19 24  2  0
 19 25  1  0
 20 23  1  0
 20 24  1  0
  1 27  1  0
  2 28  1  0
  3 29  1  0
  4 30  1  0
  5 31  1  0
  6 32  1  0
  7 33  1  0
  8 34  1  0
  9 35  1  0
 10 36  1  0
 11 37  1  0
 12 38  1  0
 21 39  1  0
 21 40  1  0
 21 41  1  0
 24 42  1  0
 25 43  1  0
 25 44  1  0
M  CHG  1  24   1
M  END
>  <OMEGA_C>  (19) 
//jXQK6YIL/ys7TBZ7JEQO2NQMBEC5LB3sTFQLZFy78t4a3BfQxjQKqgAcCGGpnBUffQQNg3Pj9G
4bLBKUHgQBWkkEBntq/BO8mkQMr6aEDYQrrBJsznQNXWr0Dxo7fB83GsQImsk0CWLcLBVvOjQC8I
QT5FkaPBcaF4QHz3g8A8s4/BJ2KyQGUaVsBgHJvB69mrQBe8l7/nNqXBeEiaQIpXDMBZwZ3BO529
QHUoZ0CuxLDBS2C2QAZblT/VXKrBfAfNQDVFskAOssDB+9asQHWjS0DaC5bBCXiBQP40TUDgpprB
g+awQKDaKUBZn6fB6O22QGQSXEAaaorB7HCjQNvXiMBXMpTBR8nIQLPkOUACl53BxxCEQEfkO0CD
3KTBFmQ4QNuLXkAqC5XBKKzRQB3E0kD3wsfBFHHrQGhZcb9tYbvBiSwGQLpbOsBRcY7BnaHLQMHW
KMBfRa/Bbq48QC0UlL8/8JrB2vLfQE/lvD8mAbjBUe/0QEfajkD2zajBCcuLQC4sOkArb7vBOxMB
QUvtxUC4xbbB5FiZQGoelEDRYMnBv5ePQCaF/z7jCp3BhHthQK70m8DXMYrBQH7RQOsMX8A0tJ7B
WanZQIH4VkB0IonBnx2sQEFajkDPNYjBJlqmQNeELEDWa4XBsfJWQCAMO0Cu+qnBPgkAQKt6XkDX
1ZjB9Pc6QDAfa0DJNI3BuGXXQJMTIr+Cv7TBVaNEQJ0ZQcD4CZLBzYDFQOOqy7/T2a3BlihjQBjb
AcBUC5nBxHLQQNH0PD9G8rLBVuikQNyTaUAPRbrBG1vgQMu/kEBDr6/B1mesQO9MlEBkHsLB7c3n
QMoysECijrfB2yKkQBf0QT6gfaPBK5R4QF9BhMC+tY/BC4GyQA4kVsCZCZvBZOurQOrAl7+LIqXB
Q2aaQONZDMDIqp3BaMG9QGBQZ0Cpx7DBs0i2QHw3lT8/XKrBYO3MQAntskD/lcDBtNisQGpDS0Cl
DpbBfX+BQBxYTUBorZrB+e2wQIjrKUAFpafBINy2QBcQWkDpYorBdn+jQGL/iMBDK5TBLs7IQKC1
OUDHmp3BkBqEQJo4PEBd5KTB4WM4QN1LXkDVD5XBDFbRQIHJ00CXjsfBWpbqQAqDc7/Pd7vBmfsF
QLYeO8DKd47Bw1nLQGYQKcCqOa/BkdI8QAFolL/T25rBRSffQA75uz84JLjB+AaMQCydOkBhfrvB
yBT1QFrKjkC5yajBtTqZQCX4lEABTsnBJhYBQZtAxkB0qrbBZBeQQNShAD/B6ZzBtkthQHtdnMAa
P4rBo6zRQITjXsD5mp7BiYnZQPnuU0CTFYnBdmusQCBZjUCHEojBeOilQNFYKkBEf4XBqxFXQBGo
O0BmBKrBDQcAQMIRXkAF2pjBfe86QHnAakClOI3BfazbQM8tGb9TrLTBLY6gQCvGh8CqPJTBqjrI
QKxzyb/5MK7B1TCyQNNeVcBQjpvB0PnTQDq8RD/hz7LBE1qlQHDDaEBIUrrBXinfQE5SkkCBgK/B
i2isQAIDlEAQKcLBrx/mQJjusUAtW7fBhSikQCKVOD5eIqTB0JtuQHwqgMB9F5DBBeFhQPB/AcC4
AZrBno6sQJcUmL/Xz6XBvjSaQFSnDMCtfJ7BqrK9QDgVaEB0wLDBFZS3QMkOlj81mqrBeuPLQGue
s0CShMDBjRWtQGQpSEDnDJbBkbCBQKHPSEBnp5rBnXGxQNizKUC4tKfBBvu2QOHtVUApW4rBloNA
QGm6OsCCBJPBeDXJQC8bOUDHpJ3BlHuEQPpxOkCW7qTB51c4QNAbVkC8+ZTBG/zPQH1S1EAii8fB
X53wQP9JZr80HLvB32ayQIK4o8BBzZHBEXrOQDW7J8A9oK/Bb57RQJwaYMDa457BuMzjQOSYwT/g
qrfB+TONQDZpOEA3nbvBEWPzQAglkUCSgKjBG7KZQBkHlECgbMnBE5//QJXpyEDbWbbBsZOOQO1e
9D5x0Z3BSYdTQLSWlsCadIrB5ac8QFoFlL/QN5zBibzZQMV4UUAyFInBFLSrQIbVikBu54fBFLSm
QGivJECtj4XBp/pXQO3IOkCDFKrBhfn/Pw0qVUDfw5jBvJE6QFClYEDwFo3BjwTbQO4wG7+UvbTB
a9SgQLbKh8A9OZTBaoDHQJYayr8oQK7BF0myQGYjVcBgiJvBm6nTQAX3Qj8U2LLB7rHfQL3nkUAU
hK/BWDulQAeZaUCcQbrBRUfmQMMGskDRQrfBO+GrQM71lEDV+sHBGAykQMrjNz4HG6TBKBZvQJpt
gMAGE5DBkLBhQCLjAcBr85nBDTKsQCZEmL+Lz6XBxRaaQDasDMBBc57BzvG9QB/gZ0CGv7DB9H+3
QHShlT/NmKrBYGPLQP1+tEDGSsDB7xatQKkZSEAPDpbBNbuBQBACSUCgr5rBKpOxQJ6EKUBttafB
nfa2QKO/VUDTWorBhqZAQLBnO8Cm+ZLBSkLJQKjgOEAiop3B452EQGWEOkBK9aTBjEQ4QPWcVkBj
DZXBD9HOQF/r1UAVIMfBKsDvQCP/aL8fNrvBbtWyQNWmo8B4zJHBQGrNQFEfKMDJua/BlL3RQDl5
X8Dk3p7BYpLjQMB1wD+Ms7fBR2z0QIwZkED/najBtR+NQDg8OUATl7vB7fr/QDfKyEDARbbBFNaY
QEFwlUBUMMnBX6iOQGZf9T64wZ3BUjhUQBz7lsBbdIrBqz08QDH1lL9YIpzBnbTZQLkIUUCYEYnB
kMqrQHTHikDB5ofBs5OmQCeaJEBKkYXBYFdYQH7sOkDGHqrBrwsAQKzOVUCT35jBnD46QMs7YUDG
Ko3B2P+ZQOvsb7/XyrHBMucbQQ2XXsDCJKXBVnLBQIPQyL8T3K/BXdMHQfRPOcCUBafBuACUQH8I
0D4x3a7Bj4bMQNp3P0DBS7rBzY66QCyRnUBDM6/Bk/3XQFugdkCatcLBeAnGQB0JuUABprfBkVfd
QONu/j6FKqjBwl0uQVnRKsCGbqXBm+8ZQUH9Qr9GRanBfYrjQAiaWr8fFavBfawGQbRjwb/2IKnB
IpG9QJ40YUBParDBZV61QDczkD8wzqnB4q/UQE7pp0C3Z8HBJGKsQGTTU0A/6JXBHaaAQI7DT0Bb
TZrBEcWvQAgjJ0DXHqfBAIW3QAqqbkDco4rBgC8tQe+bq7+Od6fB0wLIQIVNPUAiUJ3BhemCQHUm
OUBlWqTBrdc2QFOCYkB+vJTBCYffQElIwkA9isnBlkOAQC0rvr/EiLXBlTIdQeQekcCRfqPBqcDF
QJi/JsBqCLLBHPbyQMzTX8CN26bB0KFrQIlVZD9VerDB9xjPQAMb9j9XWLvBSV6vQPDfqkC3u6fB
L1rjQH16XECYL8rB6JvDQAFH20AAprbBEmT3QPXwhj9apqTBtM89QbSbR8AO/6PB6jsZQQ0WmT4J
3KrBlHDaQLR9bEAOkYnBZAWsQOQdmEDfOYnBLzOoQD3TQkD/6oTBuidUQNPINEBaXqnBbF38Pw48
X0AGb5jBftA5QOFMc0CGBo3B

>  <OMEGA_E>  (19) 
sFx+Pojwfz6cmYc+HLyHPmaQeD8=

>  <OMEGA_NBR>  (19) 
     43711

$$$$
50220827
     RDKit          3D

 37 39  0  0  1  0  0  0  0  0999 V2000
    6.9074   -0.5898  -22.6632 C   0  0  0  0  0  0  0  0  0  0  0  0
    5.0890   -4.2530  -18.6124 C   0  0  0  0  0  0  0  0  0  0  0  0
    6.3577   -1.5499  -21.7998 C   0  0  0  0  0  0  0  0  0  0  0  0
    5.6631   -3.3235  -19.4921 C   0  0  0  0  0  0  0  0  0  0  0  0
    6.6244    0.7729  -22.4739 C   0  0  0  0  0  0  0  0  0  0  0  0
    5.2217    0.2200  -20.5573 C   0  0  0  0  0  0  0  0  0  0  0  0
    3.7925   -4.0193  -18.1115 C   0  0  0  0  0  0  0  0  0  0  0  0
    3.6306   -2.0030  -19.2993 C   0  0  0  0  0  0  0  0  0  0  0  0
    5.5121   -1.1525  -20.7407 C   0  0  0  0  0  0  0  0  0  0  0  0
    4.9298   -2.1694  -19.8378 C   0  0  0  0  0  0  0  0  0  0  0  0
    5.7796    1.1980  -21.4201 C   0  0  0  0  0  0  0  0  0  0  0  0
    5.2922    3.8898  -23.2472 C   0  0  0  0  0  0  0  0  0  0  0  0
    6.4971    4.2877  -22.4882 C   0  0  0  0  0  0  0  0  0  0  0  0
    5.3865    2.6838  -21.3363 C   0  0  2  0  0  0  0  0  0  0  0  0
    4.9069    4.4272  -24.6085 C   0  0  0  0  0  0  0  0  0  0  0  0
    4.5796    3.0435  -20.0605 C   0  0  0  0  0  0  0  0  0  0  0  0
    3.0867   -2.9174  -18.4615 N   0  0  0  0  0  0  0  0  0  0  0  0
    4.6084    3.0073  -22.5506 N   0  0  0  0  0  0  0  0  0  0  0  0
    6.5747    3.5471  -21.4107 N   0  0  0  0  0  0  0  0  0  0  0  0
    7.3894    5.2883  -22.8533 N   0  0  0  0  0  0  0  0  0  0  0  0
    7.5492   -0.8993  -23.4748 H   0  0  0  0  0  0  0  0  0  0  0  0
    5.6348   -5.1385  -18.3218 H   0  0  0  0  0  0  0  0  0  0  0  0
    6.5820   -2.5962  -21.9457 H   0  0  0  0  0  0  0  0  0  0  0  0
    6.6502   -3.4888  -19.8979 H   0  0  0  0  0  0  0  0  0  0  0  0
    7.0562    1.5051  -23.1400 H   0  0  0  0  0  0  0  0  0  0  0  0
    4.5692    0.5259  -19.7528 H   0  0  0  0  0  0  0  0  0  0  0  0
    3.3518   -4.7349  -17.4333 H   0  0  0  0  0  0  0  0  0  0  0  0
    3.0595   -1.1252  -19.5633 H   0  0  0  0  0  0  0  0  0  0  0  0
    3.9618    3.9660  -24.9314 H   0  0  0  0  0  0  0  0  0  0  0  0
    4.7808    5.5184  -24.5496 H   0  0  0  0  0  0  0  0  0  0  0  0
    5.6981    4.1882  -25.3343 H   0  0  0  0  0  0  0  0  0  0  0  0
    4.3357    4.1161  -20.0705 H   0  0  0  0  0  0  0  0  0  0  0  0
    3.6496    2.4564  -20.0374 H   0  0  0  0  0  0  0  0  0  0  0  0
    5.1812    2.8126  -19.1691 H   0  0  0  0  0  0  0  0  0  0  0  0
    7.3215    3.5657  -20.7459 H   0  0  0  0  0  0  0  0  0  0  0  0
    8.1752    5.4945  -22.2703 H   0  0  0  0  0  0  0  0  0  0  0  0
    7.2458    5.8021  -23.6991 H   0  0  0  0  0  0  0  0  0  0  0  0
  1  3  2  0
  1  5  1  0
  2  4  2  0
  2  7  1  0
  3  9  1  0
  4 10  1  0
  5 11  2  0
  6  9  2  0
  6 11  1  0
  7 17  2  0
  8 10  2  0
  8 17  1  0
  9 10  1  0
 11 14  1  0
 12 13  1  0
 12 15  1  0
 12 18  2  0
 13 19  2  0
 13 20  1  0
 14 16  1  1
 14 18  1  0
 14 19  1  0
  1 21  1  0
  2 22  1  0
  3 23  1  0
  4 24  1  0
  5 25  1  0
  6 26  1  0
  7 27  1  0
  8 28  1  0
 15 29  1  0
 15 30  1  0
 15 31  1  0
 16 32  1  0
 16 33  1  0
 16 34  1  0
 19 35  1  0
 20 36  1  0
 20 37  1  0
M  CHG  1  19   1
M  END
>  <OMEGA_C>  (20) 
MwndQGv/Fr9ATrXBR9miQE4YiMAm5pTB+3HLQI5ixr8GZq7B5je1QIm0VMC775vBzfrTQMraRT+J
yrPBMxinQOZEYT5IdaTBD7lyQMqdgMBy5JDBGFtoQG4xAMDvZJrB/mKwQPSEk78F7aXB8MCdQHjX
CsDMs57BavK4QAxZmT9XXKvBWVmpQE/yeEBH+rnB/OfPQB81iUDu57PB/V2sQA7EK0CusKrB8gSd
QI+rjUBO3sTB54uSQCLIQkD2e6DB3otFQJO2OsA2sZPBv3eTQBB3QECHZ7TBEmTSQPcDY0AWSavB
5HXsQIY5qUCg07bBWJPxQKI7Zr9OzLvBMFC0QGtupMAjk5LBu5/SQCQoJsDhkK/BJM7UQDlJX8Du
Lp/BuszhQJemwD/LHrnBKzeSQAihBj/QBZ7Bn4RWQJqEl8Bwd4vBJ85DQOYGkL+dgZzBzI59QELS
fUBxc8fBXPyYQGCWsECcZcTB4Va2QGgFhkC+rMrBXL6KQLO2g0BZkKDBw5NpQBg1HUCHTKDBxcyl
QOkBNEA/WpnBvUnqQJM0ZECR96XBvs0CQSPTr0CXKbLBQ93nQOSquUDHl73BKeLdQLe4G78YHbXB
YX5GQJwNOMBqHJPBrRzLQPowxL9eG67BDf5mQODg87+nI5rBeX7VQAxIQz+A9LPBb8amQMqblD79
xqTBXXR5QBFdf8C9bJDB4mq0QIcRT8AkbpvBuLKvQFrWi7+P2KXBwOecQMo9BcCsZJ7BYsm5QFTV
nT+I0qvBJ3mvQAG3eECEJ7vBQ0TVQDaOiEB4ubTBGFquQLHFLkDRmKvBMsqlQFqWjEDBTMbBftKS
QChGSUCE0aHB72ekQHnxhMBskZTBSbOXQEPGQkDoq7XBozjVQCLlY0DZ5avByXXzQBsvp0BgjrfB
v9TyQOqrc7+AabvBZAkHQHFFMcDhyo/BAKfRQL6PJcBTCK/BxkJBQC0Thb9yP5zBCF7kQEfyuz9W
VrnB612RQDo1IT/gj57ByJ9gQFFSl8CA8IrB9frTQDinWMBOvZ7Bt66HQAu2fECYJsnB7KqiQD+k
r0D0H8bB//y/QHmSg0BSusvB//2LQLchh0DbNqLBxB5pQHRSJUBm5qHBsWKkQKYDO0BBZ5rBDPPr
QL1CZUDVRKbBn/QFQaySrUARprLBvbvwQBXVtkBBgL7BrK2MQKQ2UEA01ZbB+AqeQCQKBMBI9qfB
tCmWQEAo9j96lJnBWRqWQNhOQr9fWKTBrCmZQNbgiUCdl53BUbO5QOjCLEBqxanBuIrEQGDNFcDi
Zq3BRL7aQMBo3b125KvBmKesQODE0T/SGqPBlMa0QEBEeD5eYKbBkCGwQDZkgUDPIKfBjY61QE4a
k0BWoMDBzAfjQJZYkkBIc73Bism6QFbfpED7Nq/BFRulQI4Qh0AAlMvBTBq3QGbT0kCuoKrB1RPi
QMwWsL91O6/B2BGeQPqkn0Cve7jBJBvmQDz6nkC1f7PBqGICQT5phkAMAcTBs3R3QD3bXUDDf4/B
7uWGQIIwNsDyl6bBhDmMQKH6jj/vZJTBWvtxQMO1Br/jE6DBgzCRQDVyqkCPf5vBOUXLQCT3HkA5
ArHBeKLKQF0fVsCsLLDBymjyQGdcJz/xeK3BbBGCQIhdikBiwcvBqmGzQHlVnEAgndHBLOStQPlw
S0CxWM3BRza/QNQr6kDc5LDBbCeWQKdw2EAQ3qfBEFPNQDR41kAu3aPBFbAAQZvMo0B5fa/BQV4R
QcUGh0CMM8HBiiT/QKpfekDBiMvB

>  <OMEGA_E>  (20) 
OteHP9ELiD/8Oqk/

>  <OMEGA_NBR>  (20) 
     46033

$$$$
50220825
     RDKit          3D

 49 52  0  0  1  0  0  0  0  0999 V2000
    6.4689    5.8078  -23.9230 C   0  0  0  0  0  0  0  0  0  0  0  0
    7.3140    5.6319  -22.8094 C   0  0  0  0  0  0  0  0  0  0  0  0
    5.4050    4.9115  -24.1448 C   0  0  0  0  0  0  0  0  0  0  0  0
    6.6820   -0.6109  -22.6721 C   0  0  0  0  0  0  0  0  0  0  0  0
    6.1394   -1.5694  -21.7951 C   0  0  0  0  0  0  0  0  0  0  0  0
    7.0733    4.5856  -21.8942 C   0  0  0  0  0  0  0  0  0  0  0  0
    5.1634    3.8628  -23.2341 C   0  0  0  0  0  0  0  0  0  0  0  0
    6.4819    0.7648  -22.4450 C   0  0  0  0  0  0  0  0  0  0  0  0
    5.1544    0.2148  -20.4735 C   0  0  0  0  0  0  0  0  0  0  0  0
    5.5210   -3.3696  -19.4719 C   0  0  0  0  0  0  0  0  0  0  0  0
    3.6054   -1.9570  -19.0546 C   0  0  0  0  0  0  0  0  0  0  0  0
    3.8547   -4.0110  -17.9644 C   0  0  0  0  0  0  0  0  0  0  0  0
    5.3719   -1.1633  -20.6829 C   0  0  0  0  0  0  0  0  0  0  0  0
    4.8263   -2.1687  -19.7331 C   0  0  0  0  0  0  0  0  0  0  0  0
    5.9746    3.7056  -22.0813 C   0  0  0  0  0  0  0  0  0  0  0  0
    5.7040    1.1961  -21.3483 C   0  0  0  0  0  0  0  0  0  0  0  0
    5.3914    2.9924  -18.7670 C   0  0  0  0  0  0  0  0  0  0  0  0
    4.0435    3.0692  -19.3728 C   0  0  0  0  0  0  0  0  0  0  0  0
    5.5581    2.6912  -20.9942 C   0  0  1  0  0  0  0  0  0  0  0  0
    7.2046    2.9019  -17.0156 C   0  0  0  0  0  0  0  0  0  0  0  0
    5.0217    4.0256  -16.4873 C   0  0  0  0  0  0  0  0  0  0  0  0
    5.6864    2.8853  -17.2789 C   0  0  0  0  0  0  0  0  0  0  0  0
    5.0298   -4.2665  -18.5900 N   0  0  0  0  0  0  0  0  0  0  0  0
    3.1358   -2.8833  -18.1896 N   0  0  0  0  0  0  0  0  0  0  0  0
    6.2839    2.8715  -19.7264 N   0  0  0  0  0  0  0  0  0  0  0  0
    4.1623    2.9813  -20.6678 N   0  0  0  0  0  0  0  0  0  0  0  0
    2.8331    3.1805  -18.7107 N   0  0  0  0  0  0  0  0  0  0  0  0
    6.6364    6.6281  -24.6052 H   0  0  0  0  0  0  0  0  0  0  0  0
    8.1485    6.3001  -22.6560 H   0  0  0  0  0  0  0  0  0  0  0  0
    4.7738    5.0279  -25.0134 H   0  0  0  0  0  0  0  0  0  0  0  0
    7.2573   -0.9336  -23.5273 H   0  0  0  0  0  0  0  0  0  0  0  0
    6.3113   -2.6204  -21.9745 H   0  0  0  0  0  0  0  0  0  0  0  0
    7.7286    4.4531  -21.0460 H   0  0  0  0  0  0  0  0  0  0  0  0
    4.3530    3.1725  -23.4160 H   0  0  0  0  0  0  0  0  0  0  0  0
    6.9243    1.4910  -23.1109 H   0  0  0  0  0  0  0  0  0  0  0  0
    4.5579    0.5331  -19.6313 H   0  0  0  0  0  0  0  0  0  0  0  0
    6.4516   -3.5724  -19.9810 H   0  0  0  0  0  0  0  0  0  0  0  0
    3.0445   -1.0505  -19.2279 H   0  0  0  0  0  0  0  0  0  0  0  0
    3.4757   -4.7347  -17.2580 H   0  0  0  0  0  0  0  0  0  0  0  0
    7.3907    2.8233  -15.9343 H   0  0  0  0  0  0  0  0  0  0  0  0
    7.6754    2.0519  -17.5312 H   0  0  0  0  0  0  0  0  0  0  0  0
    7.6319    3.8424  -17.3937 H   0  0  0  0  0  0  0  0  0  0  0  0
    5.2561    3.9157  -15.4182 H   0  0  0  0  0  0  0  0  0  0  0  0
    5.4018    4.9926  -16.8484 H   0  0  0  0  0  0  0  0  0  0  0  0
    3.9317    3.9837  -16.6297 H   0  0  0  0  0  0  0  0  0  0  0  0
    5.2836    1.9299  -16.9113 H   0  0  0  0  0  0  0  0  0  0  0  0
    3.4209    3.0937  -21.3295 H   0  0  0  0  0  0  0  0  0  0  0  0
    1.9787    3.1973  -19.2301 H   0  0  0  0  0  0  0  0  0  0  0  0
    2.8129    3.2441  -17.7129 H   0  0  0  0  0  0  0  0  0  0  0  0
  1  2  2  0
  1  3  1  0
  2  6  1  0
  3  7  2  0
  4  5  2  0
  4  8  1  0
  5 13  1  0
  6 15  2  0
  7 15  1  0
  8 16  2  0
  9 13  2  0
  9 16  1  0
 10 14  2  0
 10 23  1  0
 11 14  1  0
 11 24  2  0
 12 23  2  0
 12 24  1  0
 13 14  1  0
 19 15  1  6
 16 19  1  0
 17 18  1  0
 17 22  1  0
 17 25  2  0
 18 26  2  0
 18 27  1  0
 19 25  1  0
 19 26  1  0
 20 22  1  0
 21 22  1  0
  1 28  1  0
  2 29  1  0
  3 30  1  0
  4 31  1  0
  5 32  1  0
  6 33  1  0
  7 34  1  0
  8 35  1  0
  9 36  1  0
 10 37  1  0
 11 38  1  0
 12 39  1  0
 20 40  1  0
 20 41  1  0
 20 42  1  0
 21 43  1  0
 21 44  1  0
 21 45  1  0
 22 46  1  0
 26 47  1  0
 27 48  1  0
 27 49  1  0
M  CHG  1  26   1
M  END
>  <OMEGA_C>  (21) 
0wDPQG/ZuUBJYr/B+gvqQLY4tEClebbBnfWsQEwrnUCZKMHBRNPVQMhmHL95YLXBj3XEQNHhyL9e
XK7BTVjiQGu9kkA9J6/BzzqlQEQ4d0B237nB+GvPQPLMQz9lj7PBtPCkQDj1Wz69yaPB5KuwQPCn
V8CIxpvBuL5mQEV/+r/Kb5jBarN2QPdZgMANt4/BU+arQMrllL+rdqXBznCaQBfMCsBa3Z3B1y+/
QOoobUB/prDBWIe2QMEamT9QyarBh4asQMqDP0DcIpbB9WOBQLJtREB4+5rBIdyxQJw8LEAa9KfB
eYzmQJK4OUABIIjBabGgQG/RgED05YPBFPe1QDSoOEAhO4rBe/SgQGaHiMBLuJTBTLBIQAmIOMBJ
hJHB0RXJQKDGN0C3z53BNTGFQJbNPkDBV6XB/lA1QMKMS0B7r5XBVl3UQL8Z1EBe18TBNGACQUaa
yUB8P7XBo8KYQGvkoEBwG8jBITzoQJkDb7/VN7zBYPbJQNm0J8C+y6/B7lD3QOd/jkA7XqjBpUuL
QKMKS0D8U7vBipPdQEfavj8c47jBs9qRQPx5CD/cDJ3BynPOQEWiZMAk2Z/BRNlCQJx2hr/I0pnB
FXFeQL6Cl8BuEIrBs4DsQLSxNEAA837BwJz1QMRRA0D/P4zByjj0QDHpdUBSJovBTjKoQPeaekDs
sHbBNtusQCnDn0CPyYbBLKF7QFz1fkCKCYXBlBOpQHMI9z9DSofBG/BaQKH/RUDHoqrBbUb9P96f
TEA+15nBUgc0QMaeT0ALtI3BEm/PQCImuUAWfb/BrF+tQPl0nECcOMHBaILqQOets0BJlLbBBizU
QFpPH7+ie7XB/F/DQH6wyb+cWK7B7qelQPAcdkBy5LnBOMjiQARkkkC+M6/BxFvOQCguQT8nnbPB
onalQDiWXT4PjKPBmdNmQGvU/L+kWJjBJE2xQEJpV8DTmpvByoB2QPaPgcCb54/BFOurQFPrlL8J
SaXBLMWaQBDiCsD/q53BppO/QEyDbEBLp7DBSJq2QJeumD9XqarBbh6sQIy+QUCeJpbBkkmBQAaK
RkBvDZvBUhayQCgzLEDs5afBTNXiQN62KkAgnofBqMumQCMOikAx9oTBIL6zQGLkPkDQLorBmkxI
QN7pOsACn5HBEmahQHn4iMCXuZTB3A7JQCKfOECltp3BKEmFQBwbP0CrY6XBlLY1QD6eTkCOoJXB
v8nUQOxK00CD+sTBeCeZQNQMoECYK8jBtqECQT8JyUCsZLXBS67lQHMRc78DdbzBXXfIQDwyKMAQ
0K/BhsGLQKzOSUAqU7vBEcP3QDRJjkDUaajB7RjcQBgXvT/sCbnBNCqTQND0CT/Ir5zBF91CQDSi
iL+DppnBwnfPQFg6Y8CtjZ/BwH1dQMVemcBgeorBMVfnQFMWKUD1yH3Bh17rQBo92D96CIvBpXb3
QOqBXECbGIvBUJCsQDVfiEDqlHjBcOu5QJ4tpEB0aojB46GEQKsekECTcYbBmsWfQObYC0Blv4bB
AFFbQIRKRUCYuqrBURX9PxYOT0BqrpnBUmM1QLkDVEDgp43BEv3PQITnuEAtUb/BpmvrQIaLskBH
g7bBlAStQLE4nUBf8MDBJrjUQPfeHr8gn7XBCpvDQPZqyr8Qla7B5jrjQCBRkUA6Ja/BpNukQGG7
d0A6oLnBvu7OQO1LQT/UqrPB4LylQOweTT77r6PBL6dnQCS2+7+uZ5jBvtGwQNWzWMCX6pvBSZl3
QKfSgMBdxI/BL/irQOSilr/thaXBNKmaQCCqC8Cf7J3BLje/QGVBbEBagLDB6Aa3QDo1lz8QtarB
fsCrQDM9QkDFH5bBAQmBQGFUR0BdD5vBnvaxQJ3YKkB016fBkjbhQEfoKkDcTYfBsCqqQAgbkEC9
+IXBTDazQOWORUBaKorBbcNJQKI7OcADfZHBGj6hQLgOicAN2JTBgsHIQNGFN0CIoZ3B6uqEQDlc
O0BIVaXBT9M1QGfbVECXq5XBIMTVQPry0kBDz8TBFWYDQWYpx0AuZrXBDG6YQOiNoUAiy8fB43Dm
QLD3cL/XlLzB0ZfIQPB7KMC+H7DBl3n4QAqJjEC1b6jBEUWKQCrvTEAj/LrBEMjcQN/rvT/GBbnB
vnSTQB50BD/bzpzBsP5DQMEqh7/ut5nBCGzOQJHSZcD9D6DBYXZfQP8JmMBhH4rByo7lQJQCLkD7
KH3B7f7mQDwz0j+EE4rB6fr3QHKNVkCONovBqaWvQAsVkUCTkHrBiKa/QDoBp0Dz8onBFbmIQHSw
mEDrrofB1PScQNzuGEDQPobBkwRaQIYoPUBJparBsyb9P6ECVkCdtJnB5QQ2QM94XUA9vo3B3TXN
QLeVuEAH07/BPUXmQPrftUBmfbbB2qitQAtumUCc38HBXDvaQDRXHb/DcLTBSvnHQCgVyb9Rka3B
wwHfQN3FlEDgDa/BGU2mQBx0cEAgdLrBnwjSQHmyQT+j9LLBwrijQPwGVD632qPBHGOyQORAVcCq
8JrByzVjQLj5AcCSMZnBJ1J0QPTPgcD1EpDBebKsQGaMlb/cKqXBIryaQPR+C8D6tJ3Bb0i+QNLj
a0D82rDBKEq2QOi+lz+5uarBkRmuQP9WR0CHeJbBgBuCQEZ7SECX4prB9hOxQOqSK0CKEqjBlJqq
QM+kj0BktYXBRPqoQEJW+z9y8ITBD/m6QEQyTECB3IrBReuhQEneh8AYI5TB4rhDQD1oPsD5hpLB
mX3JQPDlOEDNMJ7Byn2EQFA2PkAFO6XBF5I4QOIoUEARKpXBryjSQKl/0kDKZ8XBCRj/QGUyzUCz
BrXBYw+bQE36mkAuJcnB8LXuQJxrb78L6brBY97OQJOiJ8DOua7Bc3HyQLDIkkBo7afBpTGOQP+3
QEChGrzBwgThQEzrvT9lIbjBRGyOQFSyBT/eiJ3Bkt/RQOLzXsAcSp7BnUQ9QNJhlL+2EpvBn51a
QLN/mcAzqorBUWS0QJKkkEDEhHrB+Da4QDRQq0DZ84nBSnuHQGu4kEBCOobBPDeyQGmpAEB06XjB
29+FQL6M+j/0loXB2vm1QIPehT+5iojBmhjeQAf0SkA1TYrBaQxYQM1aQkBMXKrBvFkAQGv2TUAu
+pjB/zw6QOTkV0DHOY3BM1LKQI/XsEAKNcHBSXepQEhFkkDMO8LB+BPlQA5zsEADIbjBSG/dQDrY
E7/qfrTBIXPKQBwMx7+W7q3BWLiiQCX6Z0BQEbrBwWHeQBg0kkB97a/Bi5nVQANYSj/uo7LB2iWn
QNJqSz4QvaPBOlqyQBteVcDIaZvBAFJmQGLh+b/7wpnBLnxyQA/ifcDvdpDBI0+vQCc2lb83d6XB
jg2cQA9kCsCpP57B64S8QHJgaEDivbDBPYm5QGJBmD+IWKrB8aSsQGbDRUCh75XBNHOBQENLRkD5
lprBzcmxQA1qKkAomKfB41XfQCYRK0DxqobBbBK1QCE9mkBn7ofBiNK0QLfYU0ChKIrBYa+gQKPg
hsCOiZTBxK9EQK78NsDD+5LBCTnJQJ3KO0BDkp3BW42EQMgrOEDn2KTB5sQ3QBaWU0D07ZTBKwTP
QLKVyEDzX8fBf3aVQLYOkkByR8nBfsn+QBJjx0AHdLfBxR3yQLKlYL8R/brBDKbQQIWJJsC1X6/B
QK6JQGrSOECC6rrBmxfzQJ3mkUDkAqnB5AnlQLObxD+ZjrfBUXCSQDSF/T6uPZ3BZ6HRQAm7YcBU
v57BvJZCQHD3h7+5w5vBdvtWQFDWlcAv+4rB1FrkQCxoNkDHJXzBLU7eQNGOyz9FNIjBh8n5QEvP
R0CAOovBtwC7QI/Xn0DqvX7BU3vOQP6HqUDqq4zBe+iVQCT4p0BtKIrBPbWaQDVvNkAgi4XBDzlY
QLXnNkA8AqrB6fn+PyDWUkC2vJjB1to5QKjsXUD0CY3BIknXQFbWp0C2RcHBnfuyQMuGjUCuX8LB
b3ruQIkKqEDTnLfB6D3JQHvxF7/+M7fB0H+8QOt0yr9Z5a/BOZulQFV1Z0C2x7nB/ODhQKZ2jUB/
Fq/B/I3GQNxlQz/EaLTBhoapQGOnGT6w+6LBRbGRQCDvYMA6J6HBSEWlQEnrAcCgsZLButqLQCbw
hcBuUI/B1imtQHDOm7/VqaXB/zGhQPR7EMAOzJ3B6D69QMTyZUDuGLDBi6q1QPfNkz8/U6rBnMer
QKi1U0BC2JXBnkmAQEpUUkBheprBZtyvQDVcKEDyI6fBYJjmQPoeYkAnCYjBMrupQDMvpkChg4jB
amO2QN/jbUB6aYrBqTCHQIiZjsBk4ZnBN6SaQGPDP8CBo4vB5F/HQNicOUDzGJ3BstOCQEGaOEBD
aqTBQ5s1QARFZ0BzI5XBa1zhQJDju0DY18fBq2mhQGsmjUAy0MnBmwAFQd6lvECvvrbBKyPVQBSp
YL+J/b7BXGq+QP/0J8DsGLLB1iWJQMO9QECTj7rBNyj0QGE8jUBhwafBwmrRQDUlwj+5+LnB8U2d
QLC+3D51OJvB9DaOQFhYbsCWlanBGfKwQJQIir+i1Y/BKW+DQJFjnsAZlYnBU0ztQKR7dUBGfH/B
xl3vQM5/HkCgH4nBymv5QO7/hECXjY3BHYmxQCxEr0AxPYDBHHy7QPnQukAZGI7BRSqHQNwTqkCt
3InBFgekQNJqRUBL3YTBzQhUQCYmMUCTYanBILH6P3A3Y0AP65jBNdQ3QKhqekCLgo3BiKzPQP4Z
pkCajsLBQ6nwQMUSkkBmxLzBK+ekQOSJoUAnPL/B8MHiQL9cGb/aAbPBxr3KQHl+yr/MwK3BmuHm
QMrtc0D2lbPBxdiaQN2Rh0DwZbbB9fPaQCAfQj/7/bDBteajQHctID6bGKTB1OWIQFQTX8CswqXB
HwiAQCygAcA4gZbBg/dCQMEAhcB105bBJharQIL+mr9NQqbBd0uRQFe5D8CKy6DBq8i7QHK4ZUBK
h7DB/su6QO0UlT9unKnBhJSsQEvDXEC+IZbBBuyAQEOPUEC4XZrBPTGxQHG/KUB6GqfBKiTnQBb5
fUAjx4jBQASlQNdOrUBwr4nBQn22QDOHfkDz+IrBC1ViQEJsjcDQt6DBpvlQQEXiPsBsr5HBzLHI
QJ8wRUBjbp3BTL+DQBtNM0B4HaTBq/o1QLYYYEDj7pTBOCzXQJj4uEBvjMnB7LsIQR80lUBsXr/B
srmLQDIGskCZe8PBhVj7QBUjY7+/n7jBJHHQQLoTKMC0b6/B0jwAQRx0WUC80K7BRbFzQKpYg0Az
D7TBSaLtQA31wD/jGrXB842MQNgg4D7vIp7BSImVQMsDbMA9o63BJLOFQBcXi7+NeZLBJjYdQOI/
ncBE35LBwU7tQLRQi0BFroDBXFTzQHIfPEBdaYnB1m/3QHhhk0Bcro7B6F6sQIgeuUAZmoHBuxq0
QB5RwkBzp4/BiyWCQBY6rUAs44rBhbWmQHUxVUCLCoXBW8hVQAlyJUC52KjBD637Pz3EVEDhgJjB
23E3QLqfdkCGco3B5p7XQK2aqkCaIMHBiKaxQDyikkAQDsLBdAfyQFSLpUBFE7jBbrrBQF0dOr+C
r7XBiPm1QDBG0L/ln63BmXulQMUKbUADzbnBECbmQDofiUCx1a/B8lnAQOX/Jz/lwbPBij6mQDSV
bD6JrqHB8i+WQFRRT8A5DJrBVsnUQMhc/b9duJTB8AHMQC6BhsC3mo/BZMSpQFjBkr+sgqPB1YGu
QLrhA8CGmZrBHC+/QPb5Y0ByhLDBoZixQEi7kz88zqnBlBqrQLNbSEDvxZXBF0GAQAcmT0D/j5rB
brOvQK35KUCIWafB1HHdQKd+KED/lobBeAy1QGwpmkDUhofB9HSzQL4kVEDS+YnBajalQLxcicD5
cpTBrDrjQNKzQ8BDZI/BQm7HQMtuOEDTS53B/GGDQGJkQUCm06TBtus1QCXRYUAmCJXB+IHgQHvd
wEAEWsfB/9+dQFDRlUCHGMnBX7oHQWF+t0AEc7fBSN7LQPJhjL/GZb3BQkq2QM8gLMCCLa/BBU+I
QDl3SEDvirrBhMb6QMjyhEA3+6jBLpvKQOchrD995rnBjdWaQBBbFz9iDZrBr1tvQOFWU8BlE57B
8YzmQNfXhr+Be5TBMuvYQBOgosCcwYvBCZ/iQKA0MkDu8HvB0HnbQOUVxz+/S4jB2EX4QKCBREBx
FYvBESC7QJP2nkB24n3B/uDOQMoWqUB8MozBB0iWQM3qqEDvr4nBVPWYQEV5N0DHbIXBcvFWQCQN
RkCAHKrB5oL8PyW+ZUDs8pjBQMY3QAtca0DpH43BxA2+QAj5lECTP8XBrZuiQC4XY0CoCMTBT9vX
QKpaokAmobzBMO75QHAY6r7agavB+QToQAQlsr/Uc6TBDEGgQKo0OEC/IrrBAn3VQEYPjUBPtLLB
D+vnQMADUz+rfKzB5FyzQOAghT7i0p7BfH2gQFhlTcCuzqLBqMeEQFB6978g5JPBPrw6QNjwasCS
pJvB9fnCQLDRh78rlZ7BpAelQBBCCMCMoZvB2Pu4QK5VVEB0T7HBKG/EQHY1mT/wJabBbdGsQHzM
YUD5CZbBA/GBQF6fSkBn7pnBRk2zQChQKECsZqbBKQjkQOxde0BxzYfBadaqQD51tEDr0IvBxDa1
QPh/hEAGOovB3295QOwXfcACxKLBjepCQMKOLcCZBZTBoi3JQFxmVECEm53BHpOFQGZqLEC8oKPB
wGU4QLnCVEB7PJTBuVG/QJfdpUB6x8zB4l2PQIyiTUDhsMrBTIHtQKz+vEBHob3Bu9QKQXMSOb9l
NLDBHJT2QNpOF8B4g6PBCnCLQMR3AUDyRLnBGXPpQAdZl0ANI6zBH0f1QDmvwz+vHrLB4j6aQOcP
Dz9TZJnBH+u5QNwLXMBZXajBs1CIQLoTlb8o443BqHP/P4xlh8ANCpzBekXpQD1FjECVzX/BN9jq
QGdiNkDzXofB1HL5QJe1jECfsI3BLcqwQJtSw0Cx+oPBY0S/QPiyw0Co4pHBCwSJQC+5uEBIAo7B
sh6gQKPqakD0RIXBia5aQJv7GkBPYKjBf4wAQHk1REDqjJfBv885QI6fbECz0IzBwvefQDismUAY
ZsbBwZaGQGOUakAMZcTBpATAQGq6pUBPEb/Bsk3lQKwmKb+mNbHB6VnZQGLEwb8WxKjB3XeMQOVN
O0Dm6rrBa/bFQGQ1jkBfk7XBKQTXQNyoLT+5ZLHBi7yzQLgiqD6ySaDBdLq1QKd8RcCwe5XBL35w
QCoi678vyJvBv2phQIGkf8C5JZXB3FK/QFpIgr/cd6DB/eOkQCJC+L+iaJrB2IurQNXzVEBtT7PB
jVe9QEpXlj/e8qjB57+wQNm5ZEDpL5jBEmmEQEJ4SUBaMZrBznatQI6DJ0B0eKjBCHLDQHBmQUCX
aIXBjxnrQBKSm0B48Y7B666/QHQDhUDaro3BohGbQP7+gsB/zJLB9b89QLHTN8DaQ5nBvpfIQHpj
U0BNlKDBAAKCQPQjK0CI56PBlClGQFepTkA05pLBi9qaQP1UrEDbjs3BQ0RdQKQPV0DdH8rBFBPU
QPYSwUB1u8DBx3f5QL8RhL9UkbfBPQ7kQByZIsDHpqjBq11yQE4uA0AzcLnB/7jeQIVsl0BvAbDB
NavfQE53qT8w+bfB9SqjQCkGOj9NaJnByZbXQN9FSsBS3JPBXOpUQHKvbL+b3J7BQcM4QHIim8AV
qpPBc0/OQDjWW0C1b3vBrwekQE7NIkCxWITBMK7aQLGnEUBFQIjBuCP1QJLNqEBBL4fBpY8BQRto
hEAmvpHB1R3oQG+ltUCtzpTBtvSnQLthnEA11YrBO0NOQANQGUCHoafB98oLQDf9OUDR65TBIXVQ
QAEUZ0D+nYvB

>  <OMEGA_E>  (21) 
aKu5PpDVsj5YXK0+kDCoPkhFoz5cMR0/nKApP8hqMD8YX2M/8Kg4Pw==

>  <OMEGA_NBR>  (21) 
     54737

$$$$
50220814
     RDKit          3D

 43 45  0  0  1  0  0  0  0  0999 V2000
    7.4848   -0.4045  -21.8569 C   0  0  0  0  0  0  0  0  0  0  0  0
    2.8766   -3.1650  -18.8495 C   0  0  0  0  0  0  0  0  0  0  0  0
    6.8143   -1.4115  -21.1455 C   0  0  0  0  0  0  0  0  0  0  0  0
    3.5171   -2.1200  -19.5278 C   0  0  0  0  0  0  0  0  0  0  0  0
    6.9615    0.8954  -21.8929 C   0  0  0  0  0  0  0  0  0  0  0  0
    5.1121    0.1947  -20.4686 C   0  0  0  0  0  0  0  0  0  0  0  0
    3.6461   -4.2290  -18.3390 C   0  0  0  0  0  0  0  0  0  0  0  0
    5.6261   -3.2694  -19.1461 C   0  0  0  0  0  0  0  0  0  0  0  0
    5.6285   -1.1149  -20.4364 C   0  0  0  0  0  0  0  0  0  0  0  0
    4.9188   -2.1698  -19.6873 C   0  0  0  0  0  0  0  0  0  0  0  0
    5.7453    1.1953  -21.2368 C   0  0  0  0  0  0  0  0  0  0  0  0
    5.5468    3.5793  -19.1670 C   0  0  0  0  0  0  0  0  0  0  0  0
    4.1011    3.2552  -19.3358 C   0  0  0  0  0  0  0  0  0  0  0  0
    5.2771    2.6363  -21.1552 C   0  0  2  0  0  0  0  0  0  0  0  0
    5.3568    3.4097  -22.4928 C   0  0  0  0  0  0  0  0  0  0  0  0
    7.0975    5.4718  -18.8325 C   0  0  0  0  0  0  0  0  0  0  0  0
    5.3517    4.9165  -17.0457 C   0  0  0  0  0  0  0  0  0  0  0  0
    6.2970    4.3426  -18.1132 C   0  0  0  0  0  0  0  0  0  0  0  0
    4.9913   -4.2665  -18.4892 N   0  0  0  0  0  0  0  0  0  0  0  0
    6.2011    3.2235  -20.2353 N   0  0  0  0  0  0  0  0  0  0  0  0
    3.9436    2.8109  -20.5558 N   0  0  0  0  0  0  0  0  0  0  0  0
    3.0649    3.3969  -18.4190 N   0  0  0  0  0  0  0  0  0  0  0  0
    8.4041   -0.6311  -22.3766 H   0  0  0  0  0  0  0  0  0  0  0  0
    1.8045   -3.1552  -18.7194 H   0  0  0  0  0  0  0  0  0  0  0  0
    7.2063   -2.4178  -21.1401 H   0  0  0  0  0  0  0  0  0  0  0  0
    2.9485   -1.2907  -19.9218 H   0  0  0  0  0  0  0  0  0  0  0  0
    7.4903    1.6724  -22.4248 H   0  0  0  0  0  0  0  0  0  0  0  0
    4.2250    0.4353  -19.9014 H   0  0  0  0  0  0  0  0  0  0  0  0
    3.1514   -5.0337  -17.8156 H   0  0  0  0  0  0  0  0  0  0  0  0
    6.6992   -3.3135  -19.2605 H   0  0  0  0  0  0  0  0  0  0  0  0
    5.0003    4.4395  -22.3433 H   0  0  0  0  0  0  0  0  0  0  0  0
    6.3994    3.4299  -22.8429 H   0  0  0  0  0  0  0  0  0  0  0  0
    4.7275    2.9093  -23.2435 H   0  0  0  0  0  0  0  0  0  0  0  0
    7.6612    6.0534  -18.0882 H   0  0  0  0  0  0  0  0  0  0  0  0
    7.7969    5.0231  -19.5533 H   0  0  0  0  0  0  0  0  0  0  0  0
    6.3990    6.1351  -19.3635 H   0  0  0  0  0  0  0  0  0  0  0  0
    5.9372    5.4667  -16.2943 H   0  0  0  0  0  0  0  0  0  0  0  0
    4.6326    5.5992  -17.5218 H   0  0  0  0  0  0  0  0  0  0  0  0
    4.8085    4.0943  -16.5570 H   0  0  0  0  0  0  0  0  0  0  0  0
    7.0140    3.6682  -17.6222 H   0  0  0  0  0  0  0  0  0  0  0  0
    3.0695    2.6224  -21.0036 H   0  0  0  0  0  0  0  0  0  0  0  0
    2.1307    3.1523  -18.6786 H   0  0  0  0  0  0  0  0  0  0  0  0
    3.2541    3.7433  -17.5002 H   0  0  0  0  0  0  0  0  0  0  0  0
  1  3  2  0
  1  5  1  0
  2  4  2  0
  2  7  1  0
  3  9  1  0
  4 10  1  0
  5 11  2  0
  6  9  2  0
  6 11  1  0
  7 19  2  0
  8 10  2  0
  8 19  1  0
  9 10  1  0
 11 14  1  0
 12 13  1  0
 12 18  1  0
 12 20  2  0
 13 21  2  0
 13 22  1  0
 14 15  1  6
 14 20  1  0
 14 21  1  0
 16 18  1  0
 17 18  1  0
  1 23  1  0
  2 24  1  0
  3 25  1  0
  4 26  1  0
  5 27  1  0
  6 28  1  0
  7 29  1  0
  8 30  1  0
 15 31  1  0
 15 32  1  0
 15 33  1  0
 16 34  1  0
 16 35  1  0
 16 36  1  0
 17 37  1  0
 17 38  1  0
 17 39  1  0
 18 40  1  0
 21 41  1  0
 22 42  1  0
 22 43  1  0
M  CHG  1  21   1
M  END
>  <OMEGA_C>  (22) 
voPvQHwbz77q2q7BSBo4QCCQSsDdy5bBbA7aQOestL8SKqnB4BhhQE6uB8DoOJzBgsTeQAY5ZT+h
JK/B7JWjQOhnRz65v6PBVllpQL5Th8BdtpLBRAm0QDQ+UcAxK5nBSBy0QBe1jr+zfaPBcGadQCDe
CsCTf53Bvtm3QCUAmT8I5anBUH+xQNYSZUAFVpnBUDyDQLZVUEDEr5rBnN2oQKi5KEDoPanBwGqr
QOo3WkAt8bPBDB/jQMoYr0DuqJbBfEGrQPxTnUCZXYjBDIHJQHX2ikDc55DBXrifQOqGiMDK6ZPB
GG/GQGBNTkD74aHBmGN8QDzlM0BOcqTBPCdEQJZmWUAgWpPBEHcGQfCQIb8xA7PBafrmP7zuScBf
wZXBMJrmQNK9GsDrHqnBw7M8QDk1pb/NX5/BbbDvQIkS1j8VZrPBXTOHQA7l3j4oNp/BwK9JQEgU
ocBNho7BeF/WQKAPVMBzFZrBRQKgQGEQjkAQv7LBucfMQFSDW0A0vrbB3EeXQL4xOkDB8rnB8ij1
QNa1wUC6tJDBT4D5QJa9oEA0bZzBbMTMQKpSxECK6JrB0v29QNrurkDUWoLBCD6UQNwss0CrLIzB
JN+ZQI0Eg0CpdITBCnPgQGLEakA9+ozB7nJEQPDVJ0BbB6jBxFwIQLG/SUDQbZXB6UJQQDKSb0Bo
AIzBPE/iQCV2IL9MorLBG5d4QKlEOsDvaIzBrO3OQDLCzL/cHazB7JuPQERE9b8NsZLB5q3XQDRC
Oz98abHBH52mQMZ7Fz4++6LBrfFsQLNihsA+u5DBPt+VQO2HY8C1+aDBwxqxQJrlm78oLKTBf8Kc
QIwnD8AaM53Bsta4QDS6kD9LvanBvKOuQN4CaUCvO5jBSNWBQJPtUkDbxZrBz7SsQF8JJ0A8SKjB
KWWwQATGWkDy0LLBbnDEQJk3UkDUMIXBVKzlQFZOpUC/9Y/B/768QHu9ikCxBY7B5x+DQIcPkMBd
z5rBSdLHQGA8TkBl/J/BVbGAQNvaL0DtRKTBBao9QI4aYkDxNZTBYXD5QAdnbL9ambjBtwJkQGMt
LMAdWoTBi9jWQMEeKcBPLq3BQFmUQKrca787i4/BHB7nQHjCvD8ZWrbBtFmQQF7c5D5A0pzBsidP
QI7YnsAm5YvBVdifQEH4c8AU/ajBQWSnQAfkjkDXU7HBCJDRQBQeWECUvrXBs9qaQEMkP0DH27jB
kafOQMt/ckAymXvBsaCmQIfELkAIsIPBjITdQA1oJUBCyofBWUjvQAQYtUB6eIjB0oz/QC4TkEDs
rpLBfFrfQJKtvUAUHJbBvCKjQNlyoEC2YIvBim1MQFn1HUAvKqjBh+0CQNHBUUDHpJbBuvNFQBVj
fUBxDI3B6MjDQL4QNb/4EbbB+FxJQHxqY8COl5LBtJKwQMpl0r8DTq/BcHRWQJKhHMDBWpnBMoXE
QHDcJT8PNbPBVhWdQFCXBT5p0qLB1SiHQOCijcChX5DBoDq1QMhzS8BdJ5vBDxaeQAwNnr+blaXB
ujOUQN+LEcBOyZ3BMiGxQFgQiz8Yl6nB0DqnQN5XP0B+1ZTBNXSAQN2HVEAl/prBkjmzQB6YI0By
KqbB+mnNQNUkXkAlwa3BpFnOQJDvEEDZP4TB1iq0QMBdlED5dIbBiNGqQOIuSkAG4IjB54auQC0y
h8B0lJTB9tHFQOBkJ0CVZZvBceSHQGy5RUC1GqXB8L81QCC4dEA7sJbBnhLSQNSLg78Hgr3BKCEL
QHr/bsBbH4/Bh+uvQIrtK8A2jbHB/kIjQFyX4L88FZvBUAXUQMeYrj+WYrjBdieNQGNW5j69l5vB
m++BQHrKqMDqMIvBwLjUQLjPQcCBgJ7B/CHNQN8JkECtq6rB0pruQJT0RkC0L67B0RS/QDHoXEBb
yrXBWzbQQGkvGkCEE3fBjxLHQNf5mj/P/oXBMy3tQFAwIkDe6IfBjOS2QIvsmEDqg3vBoF3SQJHA
nUBjUorBrPCZQPFJqEDfj4nBaDSMQFGLOEALIoXBOMdmQCcCUEBGHKvBgHwEQChxgUB+epvBTMsw
QHfGfUAMy47BZ27eQAxSGL8aN7XBMp2kQAqdhcAcP5TB8ZjMQJiUxb+QP67BIla2QDd1UMBDe5vB
hr7TQNCFQz9vMbTBKsGkQO43az6rNKXBj/10QDijfsCIipDBr+hmQMA8AcBxuprBDLivQKf8kb8s
LabBJp6dQOqICcDKwJ7BPam2QIVWmT8APKzBgcC2QM2fgUAuDbrBnn7XQA86ikBRxbHBDf6qQI69
LEDXq6vBMD2JQNqDQUAh9aLBvlqSQLaKgkAkN8zBsqq2QH/CxUCvm8XBFq+3QEUplEDeb8XBBGBF
QIccO8DK05PBv9SbQFAdSUBVWbbBEXDRQANFYEBntanB3uz3QF96qEChc7LB+m/0QG4Fab+qYbvB
+Q23QI/FoMCIi5HB8vzUQKKGJcC3D6/BoWjWQBtZWcCXgJ7BFefhQHdFvj+qjLnBBJSOQHydCj/7
EJ/Bt8dZQGbplcAX9YrBB15AQLvglr+4OJ3B9nKCQNBLg0Ar/qLBaDxXQA/oHUC+oKTB9rKVQMHD
LkBvEZvBAtCTQMZQkEA2TtTBBN6UQJX7PkAnuszB+YhnQFVAi0CPccjBW2W3QHsR0UCN8M3BATiZ
QJUa0UCutcHB2anSQAxO0kApS8HBYLzVQJvliUCrO8nBLxrkQFYzXED0OqPBDHwGQUuSq0CGeazB
yTz6QMYru0BF67jBSuLcQP4TG7/dOrXBhpNEQFlVPMC/m5PBwMDKQMZdw79TFq7BaHBkQK6K+r/U
j5rBgzrTQC7nQj/pW7TB73akQLSglT6gLKXBdr95QA6SgMDOlZDB0Ai1QDXMTMAEJpvBPaOuQDpM
i7+8+KXBbGScQPlLBcDAcJ7BYaS2QEninT8DbazB8B27QNC6gUDAmrrB/jDbQIa4iUBvIbLBchus
QOHLL0A5HqzBQnaJQDUPR0Bbu6PBbG2ZQA5ngkA+G83B3xS/QMbdxECufsbBVFG+QEpIk0CHEcbB
IVelQK42hMCPV5TBFrKeQJXpS0B2+LbBZeXSQF3UYUCV76nB+iH9QN5IpkBbybLBfFfyQA77cr+4
a7vBxOcDQNglOMCZmpDBE1bSQP/gJMAkzK7Bgwk9QJVCj7+L5JzB7dLhQIhAuz840rnBMsWOQE2p
IT9DBZ/B/l5hQLeHmMC0J4vB1jzVQOniU8AaKJ7BS4aDQGw3hkB/7aPBuFFXQKm2JEAUmqXBiZyU
QBWFNECQtpvBZI2cQPd2j0CcPdXBqMuaQHSBPkDWbc3B/0B1QNJyjEBYqsnBz2PBQNxvz0Bq3s7B
FIWhQP+M0UAE7MLBSODaQILL0EBP/sHBZ4bcQK+uh0BViMnBikvkQNKPXkDyO6PBBc4IQdIWqUDS
razBZ4wAQX0MuEDPXbnBZKXeQAbdHb9dOLXBbHSkQJOehcBcHZTBRFfMQJwLyb8qXa7BRx62QJRS
UcDPdZvB0nrUQF2rPj+yC7TBZRelQNzATD4CKqXBnbN0QA5BfsBfapDBv2FmQGYdAsDX0prBc5Gv
QMuXlb/fQ6bB1ladQMDqCsDl157BlIm3QA7ulT+VCazBYTSxQP8FhEBqG7nB5bDUQJUljEBjYLHB
x1msQIqlKkDVPKvBIM6MQOLHP0ByA6LBnwPFQPa+v0AjpMbB0zycQPQtfECCiMzBxkSkQNJHnUCc
J8PBevxEQMokO8Bgz5PBUeqZQEYVSEDpcrXB2kXTQIq4XUC64qnB7CzzQDJ/rEDCqbHBUZX0QAv6
bb/CaLvBKOy2QHacoMBwUpHBa0rUQAJiJ8BkSa/BSS3WQMp9WsAfep7B+ujiQOqDvD9+T7nBgtaO
QIBSAj+ZCJ/BuZdZQBpolcD7vorBSsw/QBhHmb/GaZ3BjUuGQD17gkAl7aHBTmNdQL2sHECVPqPB
5xGbQOGoLEDqVJrB9z65QGcm0ECT2c3BZinJQHAq10BnJ8DBhenjQG1psEAfZcjBJv+SQKhQkEDZ
stPBfKO5QMrQV0A2Mc7BfFyCQDinT0CtYsrBXeSFQB+nrUAMa8HBTDzpQIc/VUAgKqTB2sMEQYE7
rkCS9KvBbsLyQOEKwkDAk7fBThrdQBhzHr9LWrXBOntEQFGCO8CCspPBvzvLQPSgxb/eL67BgB5l
QLRX+r9cr5rBsnrTQGqfPz/GaLTBbH6lQED8iT71GqXBQAJ5QN5GgMAXl5DB4hS1QDrITcDLJJvB
NVavQIDgjb/RA6bBD8WcQFwoBsDDgp7BGY23QClGmz+kUKzBps60QHrOg0Bm+bnB1D/ZQMBiikB3
dLLBb3+tQMIfLkDYu6vBVAeOQNreRUB8mqLBYk7LQNdrvkAti8fBUsWjQM6reEAVlc3BktqpQBA/
nECtSMTBjAOlQIRchMBmTJTB36ObQK2gS0CdB7bBxhTVQA5tX0A/b6rBNN36QMpDp0DtaLPByU7y
QESJdb/hm7vB178DQDqeNsDwupDBzNrSQNT4JcBv7a7BZUU+QJGljr/lFZ3BvZHhQLACuj+s7bnB
yBWQQOYxGz9u4Z7B0xFgQK38l8C0IYvBpUvVQPyRVcAVHp7BvFOIQG+rhUBKqaLBsxVfQGwGJEAW
z6PBXeabQF0QM0Bf3ZrBi/fAQORBzkAw987BIj3OQGRZ1kCdIcHBBnvqQM3trkDf2MjBC/CbQK72
jUB78dTBFYDBQFw4VEAxyM7BJ4qJQHdYTEBApsvBBS2LQOG8rEC+AsPBn7TpQHFJWUC7XaTB78kI
QaNyqEBLyK3BWFX8QJTbukBtubnBE4fxQArky75Jaa7BOK85QP5UU8CoY5fBYUHcQLw2uL9mAqnB
3gFiQJj4EMDqBZ3BO8DfQPAlZT9noq7BmTejQKjj1z39EaTBRu1rQO+BisBf5JLBNx61QPANVsCy
TJnB2dS0QETAmL8nzKPBtxKeQDrEEcCyBZ7BsUO4QA8llD9TganBVwetQEW5gECFLZzBBwGCQCL2
WkAzh5vBp+ikQHJQJEDK0qnB4vWcQNKAQEDEgrXBg7zSQK2diUBNrorBu3PfQF7LvkDTq5nBXV++
QG8woUAvQpTBoSGhQKzMisDe4pPBDa3BQAJGYUDQbaTBBq14QBo1KkBY5qPB9j5IQLRCakBripPB
x8cHQWCZF78KZbLBJdvpP78RVMBTgpbB7BHqQE9zG8B716jBNcA8QLEMvL+di6DB11bwQIl+2D8C
vrLBCjiFQDMumT7jEaDBGeJMQLoKpMApjY7Bj4vXQKh9V8DvCJrBxxqPQLSbgEBwl7XBqne7QK7C
QECZ5rnBJqiGQP6SE0DlW7nBlU3fQAwpoUBl8YTB0mW6QHdca0Diu4bBqwbtQARgakCfiY3B1pTr
QDQH1kADzJPBujL6QHd9q0BavpzB6CfQQJf2z0CEVaDB+rujQFfqtEAOTJHBXtNBQOOUDUA58qXB
44IOQPXMTkCW6JPB8epWQE9fiEDWao3BKJbzQLy2Ej+QGZ/BuCOeQD41jcD9SprBjDDfQMyNKL+Y
753BXE6xQH3OTcDSiZ3B8ELbQGy+3z+eWZ/B+JiZQPjG7j4ro53B2CpuQMzMi8DrqZTBYB9rQN8M
AsCIXJXBuCWyQHSKN7/vDZ3BkB+dQELh/7/S4ZrB4MOtQJCz2z/NjZ7BEresQB3UfUDeJq/BbF+/
QNY3k0B0i6XBxPOSQFQkP0AekKDBiMlLQBIgQEAeXZvBVDLpQIbpXEA9SrvB6H6eQDS2YkBRqMLB
Lla9QLXjhECuZLrBiMBGQLmhTMCRY5LBtKyPQMTlRUBCL6zB7EiqQPa9hUCGK53BVK3jQA+srEB/
SqXBw/8KQWHJHj8fzp/BrhmtQMaHq8CVFJzBOtHxQCCpyL9BtZ3B8u/OQJBHTsAa/KHB3E7rQAy+
LED4KaDBgjNuQNvY0T57YJ3B2f9QQGhnqcAnGZLBSjFLQD81jb9mfZPBJWgrQLqufEBdTZ3BW+Yl
QHY8CkDFd57BgCBSQCEiOkCuoZLBVtL1QNb2ZEBOccPB4pj/QJx3eUAfhLXB+W7lQExRGEAyjLnB
NWarQItabEB2wcrBn/KaQA/HHUBaG8HBYyt+QLIIgUAPBMLB7E7BQBI4p0DOELzBKCWqQAXxkkDj
4ZXBQsHvQHQ0tkDJRp7BPMvxQFGBtUBXH6zB

>  <OMEGA_E>  (22) 
yLtQP65FXj90VD8/fjGEP04MhD+dfYM/wBCDPxx8az+KXa0/

>  <OMEGA_NBR>  (22) 
     61916

$$$$
50220830
     RDKit          3D

 53 56  0  0  1  0  0  0  0  0999 V2000
    6.7106   -0.6130  -22.6724 C   0  0  0  0  0  0  0  0  0  0  0  0
    6.1501   -1.5828  -21.8208 C   0  0  0  0  0  0  0  0  0  0  0  0
    6.5158    0.7567  -22.4152 C   0  0  0  0  0  0  0  0  0  0  0  0
    5.1573    3.7083  -23.2050 C   0  0  0  0  0  0  0  0  0  0  0  0
    7.1160    4.4278  -21.9253 C   0  0  0  0  0  0  0  0  0  0  0  0
    5.4810    4.6191  -24.2205 C   0  0  0  0  0  0  0  0  0  0  0  0
    7.4378    5.3407  -22.9452 C   0  0  0  0  0  0  0  0  0  0  0  0
    5.1550    0.1821  -20.4754 C   0  0  0  0  0  0  0  0  0  0  0  0
    5.5392   -3.3650  -19.4746 C   0  0  0  0  0  0  0  0  0  0  0  0
    3.5914   -1.9775  -19.1169 C   0  0  0  0  0  0  0  0  0  0  0  0
    3.8644   -3.9953  -17.9721 C   0  0  0  0  0  0  0  0  0  0  0  0
    5.3712   -1.1874  -20.7118 C   0  0  0  0  0  0  0  0  0  0  0  0
    4.8239   -2.1877  -19.7727 C   0  0  0  0  0  0  0  0  0  0  0  0
    5.9613    3.6149  -22.0438 C   0  0  0  0  0  0  0  0  0  0  0  0
    5.7196    1.1672  -21.3192 C   0  0  0  0  0  0  0  0  0  0  0  0
    6.6138    5.4421  -24.0864 C   0  0  0  0  0  0  0  0  0  0  0  0
    5.3752    3.0663  -18.7389 C   0  0  0  0  0  0  0  0  0  0  0  0
    4.0305    3.1250  -19.3501 C   0  0  0  0  0  0  0  0  0  0  0  0
    5.5484    2.6421  -20.9436 C   0  0  1  0  0  0  0  0  0  0  0  0
    7.1765    3.0619  -16.9769 C   0  0  0  0  0  0  0  0  0  0  0  0
    5.1207    4.4719  -16.6711 C   0  0  0  0  0  0  0  0  0  0  0  0
    6.4184    7.6925  -24.7143 C   0  0  0  0  0  0  0  0  0  0  0  0
    5.6628    3.1538  -17.2519 C   0  0  0  0  0  0  0  0  0  0  0  0
    5.0517   -4.2471  -18.5773 N   0  0  0  0  0  0  0  0  0  0  0  0
    3.1292   -2.8859  -18.2323 N   0  0  0  0  0  0  0  0  0  0  0  0
    6.2689    2.8531  -19.6798 N   0  0  0  0  0  0  0  0  0  0  0  0
    4.1463    2.9171  -20.6306 N   0  0  0  0  0  0  0  0  0  0  0  0
    2.8279    3.3427  -18.6992 N   0  0  0  0  0  0  0  0  0  0  0  0
    6.8848    6.3720  -25.0544 O   0  0  0  0  0  0  0  0  0  0  0  0
    7.2932   -0.9214  -23.5278 H   0  0  0  0  0  0  0  0  0  0  0  0
    6.3162   -2.6319  -22.0160 H   0  0  0  0  0  0  0  0  0  0  0  0
    6.9745    1.4959  -23.0551 H   0  0  0  0  0  0  0  0  0  0  0  0
    4.2893    3.0742  -23.3093 H   0  0  0  0  0  0  0  0  0  0  0  0
    7.7477    4.3464  -21.0531 H   0  0  0  0  0  0  0  0  0  0  0  0
    4.8624    4.6886  -25.1030 H   0  0  0  0  0  0  0  0  0  0  0  0
    8.3152    5.9640  -22.8553 H   0  0  0  0  0  0  0  0  0  0  0  0
    4.5478    0.4867  -19.6357 H   0  0  0  0  0  0  0  0  0  0  0  0
    6.4806   -3.5617  -19.9659 H   0  0  0  0  0  0  0  0  0  0  0  0
    3.0167   -1.0869  -19.3239 H   0  0  0  0  0  0  0  0  0  0  0  0
    3.4888   -4.7080  -17.2529 H   0  0  0  0  0  0  0  0  0  0  0  0
    7.3576    3.1277  -15.8939 H   0  0  0  0  0  0  0  0  0  0  0  0
    7.5602    2.1029  -17.3551 H   0  0  0  0  0  0  0  0  0  0  0  0
    7.6924    3.8895  -17.4857 H   0  0  0  0  0  0  0  0  0  0  0  0
    5.3389    4.5158  -15.5938 H   0  0  0  0  0  0  0  0  0  0  0  0
    5.6025    5.3212  -17.1776 H   0  0  0  0  0  0  0  0  0  0  0  0
    4.0329    4.5212  -16.8270 H   0  0  0  0  0  0  0  0  0  0  0  0
    6.6653    8.3901  -25.5282 H   0  0  0  0  0  0  0  0  0  0  0  0
    5.3283    7.6701  -24.5689 H   0  0  0  0  0  0  0  0  0  0  0  0
    6.9054    8.0255  -23.7859 H   0  0  0  0  0  0  0  0  0  0  0  0
    5.1636    2.3156  -16.7436 H   0  0  0  0  0  0  0  0  0  0  0  0
    3.3975    2.9416  -21.2930 H   0  0  0  0  0  0  0  0  0  0  0  0
    1.9726    3.3470  -19.2173 H   0  0  0  0  0  0  0  0  0  0  0  0
    2.8147    3.4956  -17.7111 H   0  0  0  0  0  0  0  0  0  0  0  0
  1  2  2  0
  1  3  1  0
  2 12  1  0
  3 15  2  0
  4  6  2  0
  4 14  1  0
  5  7  1  0
  5 14  2  0
  6 16  1  0
  7 16  2  0
  8 12  2  0
  8 15  1  0
  9 13  2  0
  9 24  1  0
 10 13  1  0
 10 25  2  0
 11 24  2  0
 11 25  1  0
 12 13  1  0
 19 14  1  6
 15 19  1  0
 16 29  1  0
 17 18  1  0
 17 23  1  0
 17 26  2  0
 18 27  2  0
 18 28  1  0
 19 26  1  0
 19 27  1  0
 20 23  1  0
 21 23  1  0
 22 29  1  0
  1 30  1  0
  2 31  1  0
  3 32  1  0
  4 33  1  0
  5 34  1  0
  6 35  1  0
  7 36  1  0
  8 37  1  0
  9 38  1  0
 10 39  1  0
 11 40  1  0
 20 41  1  0
 20 42  1  0
 20 43  1  0
 21 44  1  0
 21 45  1  0
 21 46  1  0
 22 47  1  0
 22 48  1  0
 22 49  1  0
 23 50  1  0
 27 51  1  0
 28 52  1  0
 28 53  1  0
M  CHG  1  27   1
M  END
>  <OMEGA_C>  (23) 
37zWQDjsHL8YYbXBtc3EQCGYyr/1kK7BHoHQQGa2QT9jUrPBsgilQOtUbUDMo7nBVbbjQNmwjUDx
Zq/BBWSvQIPPk0CAw8HByALuQGTnqkDSj7fBpvWkQK55Oj6WzaPB/kCxQGtbV8Dky5vBKtplQAIe
/b9/75jB+1J3QD2yf8DXxo/BLOGrQB3+l7/VsaXBCV2aQNUDDMBsLp7B4MK+QMlZZ0CkWbDB9wa3
QFtmlT+vjarBTKTTQIAlrkDasMDBxgGsQFQ+REBG6ZXBgvmAQEb/R0D2zJrB2IyxQPkYKUBmjKfB
FqblQPD1Q0Ch0IfBkNyjQBEaj0BaXoXBi2PNQFsp9kDwtsXBizW1QBzXSUDQA4rBnqehQCboh8BI
npTBoEVIQPyyOMC+25HBCpvIQNqYNkAxcJ3Baa6EQOuxOkCPC6XBOPw0QJ/uVUABmJXBj1DcQLLn
y0Bub8jBAWLpQLnia78GObzBXx7KQE1xKMC3ILDByC7fQBx7vz/xcLjBMUKJQFy/RECDebrBXe33
QJMVi0C4bKjBnZibQBAJlkAA08jBMAsFQXjZvkC417bB5oeRQHEu+T7+FZ3BMWHPQHjyY8Alup/B
EBFBQP4di79Ll5rBrkhfQPanlsDbBYrBxXHrQLwrSEBTTX7BYe3xQEGVBkAz14rBDSj2QNDteEC5
4ovBiNiqQE2BkEBXgHnB7UezQHBHqkCha4nBdg2BQN2tkECfnYbB+knVQN89BkHYOczBXYGqQDNx
9UAPjcTBFPncQGdoAEGESb7BzzulQHQzFEDl8oXBdXBZQJVCPEAKWKrBdn38P501VkANvZnB/iM0
QAi4X0BFsI3BgoXXQJQ+Hr+6UbXB58bFQGZKy7/GeK7Bz3DRQNSLQD+OPbPBgH3jQGNFjkDYXK/B
yHGlQAGGa0BxnrnBviXtQHmuq0A/iLfBHzmvQPwAk0C5w8HBPOCmQHILNj65jqPBDfmwQE+3WMBV
zpvBHAFnQFwV+7+Q85jBXFh1QBl5f8Cf5Y/B6EStQJePmL8/iKXBsfuaQFo0DMCNIJ7Bkxm/QCH+
ZkBWTbDBsYS4QHnJlD9TX6rBTL3SQC9KrkCXrcDBPMmrQDGRREDa3JXBohOBQMxNSEA135rBzEyy
QHvFKEC3dKfBZSXjQCj8OUCWRofBKoGmQAaPkUAHvIXBUgDPQOL29kAXYsXBPbqzQBR3SkD87YnB
upegQD93iMBBtJTBKsNHQCmGN8Cq+JHBHODIQHeMN0CeSp3BqCOFQIW2OECqDqXBZlU1QFPgV0Al
tJXBVavaQFoVzEDlecjBWOfpQC9Ibb/JNLzBF+zKQJDNKMB5D7DB8M3fQI3gvj+warjBXcb3QP0a
jEBxY6jB6CeKQJekQUDxdLrB0mAEQa1EwECXz7bByYibQESSlEDD2sjB/CmUQPxU9z5kt5zBPgPP
QP5oZsBXuJ/BrXtDQIdph7/YlZrBAzdcQJhjlsB4LYrBAvrnQCCoPkA6KH3BBDLsQEYp8z8qBIrB
kST3QBDxaUDgVovBlm+sQI1Ak0AsJHrB2li5QPJjqkCM0onBHESEQNPAlkCzT4fBECvWQJqUBkFM
+cvBlZSsQBYe+ECJkMPBlljhQGorAEFuP77BmT6gQCiyGUBy3IXB+oRaQPDHN0CnYarBaR79P7Op
V0Bp15nB+aA0QAFWY0Bf1Y3BJsjXQNZdGr/nPbXBLMLFQH2Oyb9yda7ByHfRQPQpRD9nLbPB/i6l
QEKRbEC2ornBzLLjQCAFjkDPcK/BbF6vQNkzk0Dq0sHBSMbtQKsVq0Ckp7fBasmlQAwfQD4msqPB
2UpmQMut+78W/ZjBYByxQD6uV8C00pvBDTJ2QKxtf8A044/BAqusQOY8l78VnKXBnKuaQDq/C8B2
LZ7BwuK+QOyWZ0COVLDBrNa3QKxYlj/IbarBoGPTQIbfrUCPy8DBnMSrQCinQ0Dl1pXBDueAQKhc
R0DlxJrB0uCxQNyaKUDieafBVpHjQDKgOEDAXYfBVdamQGSwkEAEpoXBNM7NQBn79UDc0sXBIgy0
QITzSEC764nBptBHQLr/N8Bo+ZHBfxihQAAOiMB+spTBdLLIQDTRN0BrVp3B8taEQAJ8OkD+BKXB
/Ac1QMr1VEAlf5XBIs3bQJB1y0ComsjB847qQMPiaL9aEbzBBCLLQGLlJ8C5BrDB3zLgQJLewD+G
RrjBD42JQNGLQ0CabrrBVvv3QMCyi0AneKjB952bQJL+lEBL5sjB+tgEQUdEv0Ao+LbBe2KSQHsy
+z4o+JzBwRZCQFbqiL91o5rBoznPQObBZMD/u5/Bp5ddQAF3lsAeKIrBTKToQI3bPEAxWX3BKKPs
QD7b8D9vLYrBWF/3QC3taEDJbIvB3/6sQEk5kkBG/HnBz4O5QPGkqUCbvInBxIuEQFTWlUBwKYfB
CHTVQAcPBkGkZMzBUwirQHDU9UAmdcTBZT7eQFY5AEHQfr7BPb2gQMrnF0Ap2oXBvPNZQJflO0C0
WKrBzjb8PwhfVUBempnB+IY0QM5dXkBzlY3BTTTtQJj92L5ncLHBqRHXQGVZub+iCqzBMyTjQAml
bD83bK/BvWqkQJTgVUCuM7jBp27eQNcskkCfe6/BwsepQMrZgkDtbsHBybrjQIqrqkC13bjBO8Ss
QPzPYz6IpaLBcxa0QBx7U8CO6prBLh9nQILg/L8iG5zBNplpQH9XfsB8gZLB55i2QEhuj7/xoqTB
cyqfQP/GCcDSsZ7B0w6+QAQKZUDNKq/B8fvBQLA+oD+RJKjBvTnJQIBWo0AJ3sHBByGtQCiuWEBK
xZTBoXeCQHQ8T0AzypnBh+G1QM8+LEBiqKXBJ9DlQPjDgkB6vYfBYimcQDyaokAEn4bB9RGxQFS1
tUAJntPBA6u1QMyvc0C0WYnBnaGeQB03hsAP1ZTBiBU+QET3OMA4FZbB1xXLQNu2RkB90pvBS/GH
QB3QMkBEcaPB7kg1QHxtYEBVa5XBGdfOQBN/vECz3crBBPgCQateLL9LIrfBeureQCPhHsAvkK3B
t630QMnN2j/Ua7PB+UiMQMVwJEAz8rfBC83yQHR/l0CIoajB9t+VQPlSeUAhU8jBrhz8QBMhw0DB
L7nB6oyUQFaT8D4Hz5zB3UnVQH98XsDA4ZzB0jlFQAlnjb8/9p7BO0FIQFwylsCrl43BqpjrQAqM
jECV0n7BQDH4QJsmS0BMfonBzfnvQDWInECvK43Bc7WiQI//q0CMmXzBc8+lQJ2gvECBCIzB1X5z
QIZJnECNlYfBFuq4QJ+Ey0CLPdrB2XOzQFlmlEBxZtbB+kWQQLkNvEDR19DB49SrQEMLQEAP5oPB
zg9hQOjDI0DCj6jBPV8AQH38VkAdw5nBI7UwQBdHdkD3643BSYDCQLaOIL/r5LXBwS60QAmQyL+e
bK7BMT/BQFb8PD+iarPBzVqjQMSQakBY77jBXBPkQLIbiED/9q7BjVGxQLjXjUCbnMHBcYvxQOKd
oUBwmbfBSiKhQFADZj5MG6LBXz+cQG53XMAOXJ3BU8/CQH+L5r/q7JLBqHTMQPO2gsCXDpDBPVil
QLZikr+YUqTBLJWnQHSRBsAJlZvBD3W8QLR7ZEAVjK/BHjSvQIBGlz94nqnBx9zXQEfBpECD6MDB
XYaoQDS8SkBBHZXBbzl8QLz5VUAFCJrBqP6sQFogKkBNmKbB1B3aQFYGKkBt1oXBoJe1QBXSnECU
XofBTbbsQKv+6UAQjMbBlUWxQKAXWUDyYonBSPKuQG9bjcAuj5fB/DXVQBo1M8DkXI3BUpnEQPIh
NkBZgpzBm6KAQKCnQEC0FqTBXWMzQMiQckDW0JTBPxjjQKhTvkBAZcnBk4LOQFEmdL8pkL3B0ny0
QBCUJ8DeZLDBCRjOQKuouj96/7jBETGFQCYJSUB+Z7nBnd33QCM1hUA666fB2nieQM0uj0Cj2MjB
YrsHQbXQskCtIrfBJxuTQCjZCz82pJrBqqeEQF10bMA5WaPBcePIQI/dRb9Fw5DBxbLdQGcMnMAG
EIzBtbPfQGeYNUBninrBqkvWQKThyT9rPIfBhJD1QGPeQUCceIrBdvy7QD2AokCTqn3BUjHQQByW
qUAkK4zBKrGXQAb4rEAHqonBYVX1QNMQ/EDryM3BHXnQQDyw+ECUysLBOtUDQSSM6kCU48DBNB2W
QEmrQECPsYTBs3FQQGbQP0B5QqnBd574P8xReEBz05jBGOY1QBC5gECVCo3B

>  <OMEGA_E>  (23) 
IG1LPjB7TD6QNU0+cJHIPlgnJj8=

>  <OMEGA_NBR>  (23) 
     66665

$$$$
50220828
     RDKit          3D

 48 51  0  0  1  0  0  0  0  0999 V2000
    6.6814   -0.5398  -22.7803 C   0  0  0  0  0  0  0  0  0  0  0  0
    5.2701   -4.2778  -18.6132 C   0  0  0  0  0  0  0  0  0  0  0  0
    6.2014   -1.5235  -21.9003 C   0  0  0  0  0  0  0  0  0  0  0  0
    5.7643   -3.3124  -19.5100 C   0  0  0  0  0  0  0  0  0  0  0  0
    6.4588    0.8236  -22.5118 C   0  0  0  0  0  0  0  0  0  0  0  0
    3.9896   -4.1260  -18.0471 C   0  0  0  0  0  0  0  0  0  0  0  0
    5.1652    3.7384  -23.2958 C   0  0  0  0  0  0  0  0  0  0  0  0
    7.0293    4.5439  -21.9788 C   0  0  0  0  0  0  0  0  0  0  0  0
    5.2262    0.2171  -20.5017 C   0  0  0  0  0  0  0  0  0  0  0  0
    3.7225   -2.0118  -19.2268 C   0  0  0  0  0  0  0  0  0  0  0  0
    5.5194    4.6641  -24.2994 C   0  0  0  0  0  0  0  0  0  0  0  0
    7.3207    5.4515  -23.0188 C   0  0  0  0  0  0  0  0  0  0  0  0
    5.4829   -1.1468  -20.7487 C   0  0  0  0  0  0  0  0  0  0  0  0
    4.9931   -2.1677  -19.8094 C   0  0  0  0  0  0  0  0  0  0  0  0
    5.7103    1.2173  -21.3749 C   0  0  0  0  0  0  0  0  0  0  0  0
    5.9203    3.6762  -22.1030 C   0  0  0  0  0  0  0  0  0  0  0  0
    3.1944   -3.0099  -18.3773 C   0  0  0  0  0  0  0  0  0  0  0  0
    5.4060    3.1586  -18.7761 C   0  0  0  0  0  0  0  0  0  0  0  0
    4.0481    3.2009  -19.3458 C   0  0  0  0  0  0  0  0  0  0  0  0
    5.5234    2.6920  -20.9875 C   0  0  2  0  0  0  0  0  0  0  0  0
    5.7266    3.3618  -17.3146 C   0  0  0  0  0  0  0  0  0  0  0  0
    0.9604   -2.1537  -18.6485 C   0  0  0  0  0  0  0  0  0  0  0  0
    6.5717    5.5039  -24.1470 N   0  0  0  0  0  0  0  0  0  0  0  0
    6.2754    2.9103  -19.7303 N   0  0  0  0  0  0  0  0  0  0  0  0
    4.1215    2.9492  -20.6270 N   0  0  0  0  0  0  0  0  0  0  0  0
    2.8894    3.4644  -18.6314 N   0  0  0  0  0  0  0  0  0  0  0  0
    1.9015   -2.9540  -17.8869 O   0  0  0  0  0  0  0  0  0  0  0  0
    7.2240   -0.8311  -23.6675 H   0  0  0  0  0  0  0  0  0  0  0  0
    5.8738   -5.1365  -18.3588 H   0  0  0  0  0  0  0  0  0  0  0  0
    6.3830   -2.5680  -22.1064 H   0  0  0  0  0  0  0  0  0  0  0  0
    6.7326   -3.4467  -19.9690 H   0  0  0  0  0  0  0  0  0  0  0  0
    6.8609    1.5742  -23.1761 H   0  0  0  0  0  0  0  0  0  0  0  0
    3.6153   -4.8677  -17.3571 H   0  0  0  0  0  0  0  0  0  0  0  0
    4.3208    3.0803  -23.4384 H   0  0  0  0  0  0  0  0  0  0  0  0
    7.6486    4.5123  -21.0946 H   0  0  0  0  0  0  0  0  0  0  0  0
    4.6514    0.5018  -19.6328 H   0  0  0  0  0  0  0  0  0  0  0  0
    3.1456   -1.1218  -19.4304 H   0  0  0  0  0  0  0  0  0  0  0  0
    4.9391    4.7044  -25.2093 H   0  0  0  0  0  0  0  0  0  0  0  0
    8.1614    6.1212  -22.9132 H   0  0  0  0  0  0  0  0  0  0  0  0
    6.8119    3.2705  -17.1607 H   0  0  0  0  0  0  0  0  0  0  0  0
    5.3950    4.3631  -17.0024 H   0  0  0  0  0  0  0  0  0  0  0  0
    5.2061    2.5999  -16.7158 H   0  0  0  0  0  0  0  0  0  0  0  0
   -0.0263   -2.1864  -18.1634 H   0  0  0  0  0  0  0  0  0  0  0  0
    1.3140   -1.1130  -18.6903 H   0  0  0  0  0  0  0  0  0  0  0  0
    0.8803   -2.5550  -19.6696 H   0  0  0  0  0  0  0  0  0  0  0  0
    3.3477    2.9340  -21.2603 H   0  0  0  0  0  0  0  0  0  0  0  0
    2.0052    3.4729  -19.0984 H   0  0  0  0  0  0  0  0  0  0  0  0
    2.9379    3.6458  -17.6492 H   0  0  0  0  0  0  0  0  0  0  0  0
  1  3  2  0
  1  5  1  0
  2  4  2  0
  2  6  1  0
  3 13  1  0
  4 14  1  0
  5 15  2  0
  6 17  2  0
  7 11  2  0
  7 16  1  0
  8 12  1  0
  8 16  2  0
  9 13  2  0
  9 15  1  0
 10 14  2  0
 10 17  1  0
 11 23  1  0
 12 23  2  0
 13 14  1  0
 20 15  1  6
 16 20  1  0
 17 27  1  0
 18 19  1  0
 18 21  1  0
 18 24  2  0
 19 25  2  0
 19 26  1  0
 20 24  1  0
 20 25  1  0
 22 27  1  0
  1 28  1  0
  2 29  1  0
  3 30  1  0
  4 31  1  0
  5 32  1  0
  6 33  1  0
  7 34  1  0
  8 35  1  0
  9 36  1  0
 10 37  1  0
 11 38  1  0
 12 39  1  0
 21 40  1  0
 21 41  1  0
 21 42  1  0
 22 43  1  0
 22 44  1  0
 22 45  1  0
 25 46  1  0
 26 47  1  0
 26 48  1  0
M  CHG  1  25   1
M  END
>  <OMEGA_C>  (24) 
1s3VQAgyCr8SPrbB1KSoQCLkiMDZ55TB0HHGQIACw7/YM6/B9nS4QPT9U8CEFJzBxq7OQDHWUj8W
GLTBZVZ/QO4HhMB4YJDBKEmlQG1Cb0DeXbrBtO/gQH9nkUCK1K/BJj2nQOdYXj6GA6TB2zxuQEzB
AMBw0JnBQJ+wQClAlUAdZcLBPEPqQM5yrkBxJrjBFHSvQOLKkr9j/aXBNsefQPS6CsC7eZ7Btrq2
QBLSmz/D/6rBZnO9QIlGa0Di0rDBWnFMQNihQMCmBJPBoP2sQMgmSkBbNZbBMYqBQArcTEAmxJrB
0L+wQCRKLEB55qfBPkC3QMsnV0BmhIrBudx1P6vWCcAoMJXBokvSQJofsEAVLcHBTtDIQPVCOkCT
153BCuODQBC/PEAcBKXBx+s4QA24XUAoDZXByGPzP3AOPcBMGI/BsyrnQNnEVL8UV73BD/a7QA5e
pMDE3pLBkkHMQCtaJMDY2bDBpnHXQPOWXMCAwJ/BzYzbQKJ+yT+caLnBrmFnQELEm8BU24rB7EOK
QDYkRUDNgbvBi8H0QJNkkEC5wajBZdiUQGhzAD8CEJ3BuFBJQK6Wj79mcZvBIA2eQBSKlkCqrMnB
R5UCQXrgw0A5TrfBX/vZQCFQUUAhSYnBKqSsQH2ei0D1BIjBRpimQPFkJkAAuoXBu1/XvAfuC8CP
TpHBwTGoP0t1jr+4hZXBRFlhP3qFI8BEW53BNEBWQC/GO0ADFarBjVQAQJ9DXkCFyZjBZwY8QGVV
aUCdMY3B81LaQKryBb/BzLTB25U1QBzuLsBbLJPBUVTFQDPBvb+Ve67BmclYQPLY5783dJrB3cLT
QFMWWT8Q5bLB+RZkQJ5/eMBKRJDB0xngQDxNk0CAJrDBUw+mQDvNa0CdqbrB/BijQA4Zlz7ZU6TB
z5GrQAwJTsCDTZzB9cvoQHuNr0AprbjBT6KwQJTwkkDC4cLB8oKpQOJdib+NMKbBwP+UQL6YA8Cz
E5/BfF+3QHptoj/0uarB1sC9QIxIbEBPCbHBJvWaQGOcg8B2oZTBSF6tQHwFTUBEM5bBbNWBQMA+
TUBPvprBCmOxQMiyL0Be36fBVoO3QKP9WUDfgIrBa4bgQNtwnsD0NZDBdzfRQP8zr0DZxsHBGGPJ
QAE/P0Cd253BDX2EQCTaQEBbEaXB1bI4QE18WEB3+5TB07WyQAyppcCC3pDBVozvQMzdVr/jIbvB
kMTtPwfDI8Dj0I/BlHTKQNwxIsBW96/Bw881QOeIar8VhJzBQmrkQPF8yj+GrLfBpv9IQAPfksBo
rorBpojzQNH1k0DvAanBSP+LQAg0P0A1uLvBGVCOQKqqGz8N5Z3BpOjJQN6bW8CcE6DB2XEBQScF
xkCQ77fBXl6eQLGlkkBaN8rBXlPaQOMvVkCXSonB5PSrQG6hjED+8YfBeKOnQG/6J0Clv4XBIkzw
QLxou8A3I43BuxPtQCPxlsA1N5jBKezmQCV9g8D0x4rBJwJYQMm6QkCjNqrBBTQAQEZ8V0A1vZjB
wRw7QCiYYUDJEY3B7IbGQFB8B78cGbjBCB6CQN8sj8DzCZvBzYq6QH/OxL+u3rDBkgWOQCMZX8As
eKLBZEfDQNrQUj8bKLXBeL6GQFOYh8C//Y/BZt6gQAjngUBgA7jBBhXpQBDUfkCd/7DBOcanQEuB
Jz6PsqPBvpGjQGeRAcD1x5PBgvevQHpHnEDVU8DBz/H1QJbZmUBSi7nBDCarQDpRmb/Il6bBSb2e
QOISEMBp4J7BitazQACZlz8Y3qrBdpe9QJ+HZ0ANCrDBAnKXQIPKQMBZP4zBC4yrQLtjUkB39pXB
OA+AQLw7VED/iJrBKumuQHZfKUBVVKfBBZ62QPfCaUBckYrB+dmrQG02yL/6/HrBcqXZQITqp0C+
98DBN+jGQNC9OEDXR53BB/eBQC3rOUD2c6TBKnk2QIeLbEAbIpXBU1ObQPCYNcADQIHBwEbSQMhc
S78U8b/BEs1qQOBWrcAvz53Bfxm9QD7TJMBXLLPBa2OKQITnasAR76rBe5TMQCXtyz//wLrBxdp6
QNL/n8CPVYrB+Dl/QBAgcUBdvLfB7SAAQVtXaED8PKvBe8WbQHNM2j5x35vBiKmwQB0bi7+OA5HB
5s2ZQBh/p0CvVcbBdJELQfMeo0CQMbrBWD3ZQBAKYkCoTonBmoqtQINYlkBMDYnBYx+lQAaVP0BD
C4XBjimtQBqfyL+FZmnBOTTMQBshtL/ouYDBG7aWQAPAQL9uNoDB2LZRQK88MkCnUanBALD7P7rE
akCU2pjBrQM6QNbYf0DChI3Bd/nIQM2SFb+gD7fBkm9SQNiqYcBduJPBA++2QA5fx79FZrDBmlNe
QCyPH8DlRZvBrBrGQBHmRT9wTLTBOteMQFJXh8Din4/BKcLlQNOIiUAfcK/BnEemQBo5c0DoybnB
DRidQHS6PT4QVqTBDQy8QNDlO8AgFpvBqRTzQHPtpEAWxbfBNb+1QHUnlUCN2MHB/JuhQJjolr8i
9qbB78OYQIzODcAeC5/BgoevQOMPlz+JAKvBrEa+QIxyZ0CwUbDBOJq2QAzgecCSH5PBFAmrQHI7
SUAy6pXBqvh/QEqrUkBSlJrBeRSuQHT+KUC5kKfBHJK1QPgLVkA2PYrBl0rfQFnCiMCLU4PBUETb
QK9mqkDrucDBQjrGQPb2MkCYb53BgROCQEYYQkCxz6TBW6g2QI4xaUCYApXBDKXaQM1ej8A/u47B
Dh3ZQIu4YL/LVL7BsrASQEjhccCfEJHBRWO5QGmIJsBugrLBUlEoQMv59b/QIZ7BOT3VQDwDwj9C
TbnBhS2IQIyBoMCE0YnBTZL5QGdChUCgcKjBZDmIQBktUkCw2brB5pmLQHpv8j4bQJ3Bu6DbQHdT
L8BpOZ7BQH8IQebztUCH/bbB4ESjQBlnmUDSEcnBQtbXQAfZSUCY7IjB8PutQP8cjEDV6YfBII+i
QHVpKUBlXoXBDLv8QDN3mMAShoDBLh3hQP+CTMAUpYHB84zDQJqGlsBaSX7BNCxTQExTRUDb8anB
O279P0znbUDs2ZjBTrM5QHi8dECIJo3BbgXKQLXKGL8AqLbBHorJQN/vi8Aq7pfBWGq+QBifxr/l
Ba/BtwWxQLADXsAI753B98DFQPOMRD+eW7TBj0LkQNraecDnro/BF5OmQMYRa0DbXLrBR4HhQFCN
j0CNnq/ByxqnQJnaXz5X9aLBgfbLQFhw0L/6+5LB2y60QNjTkEC+q8LBntHsQESpqkDzL7jBgeGu
QKThkr9j6qTBOZS0QAhhBcAZ+ZvBWT2zQAr0mD/QlKrBYaK9QG6UaECLo7DB+7nkQLNuIsBu5IzB
qJmsQCdCTUD7BZbBkRGBQMD3T0AJj5rBp6SvQEWaK0Cam6fBok+3QDTzXEBWaYrB0cH4QAfAVb+D
BIDBu37WQB/eqkDZesHBoRLIQACoOUCemJ3BRzeDQO9AP0DZyaTBRuc3QGBJYUAk5ZTBj+D/QLlB
CcA/qYTBs0nWQOFLab/5VL7BAOjHQDjGrcDSo5nBdVbBQHuYJsBe3LDBH36bQFI9dcB+CaTBBKrQ
QIgkwD+TFbrBop/4QDwfk8BzcovBdqGKQKZKQ0AfbLvBDhr0QESfj0A9VqjBzs2XQBPUBT9zmpvB
8erKQOrIFb9yxJDBF9+iQPb5kEAPJsrBB/oDQezHv0CgUbfBFvnZQNV4VUBaMonB1KytQIAjj0CC
L4jBghSmQI6KLkByY4XB7i0IQVH2J7+PS3PBEzT8QDOfhr20P4bB1kvYQNv8Sb+qRHnBtgVVQKjK
P0Bu36nBAdL+P6SpYUB4p5jBANI6QPdobUBjDI3BBpvJQN6pFL/WxLbB07zKQDuOi8CgxZfBlu++
QMHJxL9MDq/BTWqyQBhsXMA8sp3BGy/FQAa+SD/1drTB7GTnQJMOesDL34/BnOLjQBtPjEDnHbDB
VmKkQBOjcEAIA7rBlp6oQPK3aj592aLBaGHRQMlwzr+lV5PBiPzuQLmsp0BeprjBMc+xQCm7k0Dj
UMLBFYewQMkKkb/Y2aTBu623QOPvA8By8pvByp6zQL5mmj+MkarBQ4S9QK3saEAJqbDBTUTqQId9
IcAMa43BR3CsQC5/TUDpB5bBNeOAQBCMT0BOjZrBCZ2vQOIdLEA9nqfB5RK3QO+DXEDOZ4rBad0R
QYBzOsCVtoDBhTbWQMQJq0DmgcHBDwDIQMTbOkCinp3BbhKDQG3ZPkDhx6TBxX83QCl2YEAp4JTB
HwsDQVGa/7+jzYXBGEPVQEfQZL/jgb7BUnnHQMNurcAWRpnB+7nBQIOrJcBX6bDBzrybQAXzcsCY
k6PBjzvPQFWCwj+PRbrBm077QBGxk8DEqIvB84n4QDyZiUD/OKnBrAeHQG+xTEC7yrrBVBeaQOXl
Bz8FZJvB7OfRQDE8EL/vTZHBLPkFQUBpukBqHLjBF6aeQCU0lkDbesnBEcPZQJh6VUBEMonB6i+t
QCnEjkCJG4jB3AOmQBd9LUCSb4XBRcsbQb5UF8DV2HXBwdgIQSTObMDnD3nBmTIcQXK8V8AV04bB
36xUQInZPkBF26nBT+79P0KHYEAhoJjBem46QOCZbECIB43B

>  <OMEGA_E>  (24) 
WJDrPixV7T7m6SE/mNoMP1bATT9SBFA/

>  <OMEGA_NBR>  (24) 
     71923

$$$$
50220829
     RDKit          3D

 44 47  0  0  1  0  0  0  0  0999 V2000
    6.5076    5.5093  -24.1351 C   0  0  0  0  0  0  0  0  0  0  0  0
    5.4475    4.5968  -24.3027 C   0  0  0  0  0  0  0  0  0  0  0  0
    7.2945    5.4642  -22.9675 C   0  0  0  0  0  0  0  0  0  0  0  0
    6.7584   -0.6122  -22.5807 C   0  0  0  0  0  0  0  0  0  0  0  0
    3.0701   -3.0243  -18.2664 C   0  0  0  0  0  0  0  0  0  0  0  0
    6.1763   -1.5767  -21.7412 C   0  0  0  0  0  0  0  0  0  0  0  0
    3.5276   -2.0409  -19.1585 C   0  0  0  0  0  0  0  0  0  0  0  0
    5.1548    3.6602  -23.2899 C   0  0  0  0  0  0  0  0  0  0  0  0
    7.0036    4.5303  -21.9514 C   0  0  0  0  0  0  0  0  0  0  0  0
    6.5290    0.7570  -22.3555 C   0  0  0  0  0  0  0  0  0  0  0  0
    5.0828    0.1933  -20.4734 C   0  0  0  0  0  0  0  0  0  0  0  0
    3.9022   -4.1207  -17.9592 C   0  0  0  0  0  0  0  0  0  0  0  0
    5.5789   -3.3256  -19.3911 C   0  0  0  0  0  0  0  0  0  0  0  0
    5.3441   -1.1798  -20.6728 C   0  0  0  0  0  0  0  0  0  0  0  0
    4.8050   -2.1910  -19.7368 C   0  0  0  0  0  0  0  0  0  0  0  0
    5.9142    3.6305  -22.0926 C   0  0  0  0  0  0  0  0  0  0  0  0
    5.6730    1.1766  -21.3092 C   0  0  0  0  0  0  0  0  0  0  0  0
    5.3994    3.1667  -18.7551 C   0  0  0  0  0  0  0  0  0  0  0  0
    4.0401    3.2049  -19.3224 C   0  0  0  0  0  0  0  0  0  0  0  0
    5.5085    2.6644  -20.9572 C   0  0  1  0  0  0  0  0  0  0  0  0
    5.7287    3.3994  -17.3003 C   0  0  0  0  0  0  0  0  0  0  0  0
    5.1290   -4.2552  -18.5165 N   0  0  0  0  0  0  0  0  0  0  0  0
    6.2646    2.8951  -19.7062 N   0  0  0  0  0  0  0  0  0  0  0  0
    4.1119    2.9531  -20.6032 N   0  0  0  0  0  0  0  0  0  0  0  0
    2.8791    3.4622  -18.6101 N   0  0  0  0  0  0  0  0  0  0  0  0
    6.7166    6.2421  -24.9004 H   0  0  0  0  0  0  0  0  0  0  0  0
    4.8584    4.6145  -25.2078 H   0  0  0  0  0  0  0  0  0  0  0  0
    8.1231    6.1469  -22.8500 H   0  0  0  0  0  0  0  0  0  0  0  0
    7.3853   -0.9238  -23.4031 H   0  0  0  0  0  0  0  0  0  0  0  0
    2.0903   -2.9417  -17.8198 H   0  0  0  0  0  0  0  0  0  0  0  0
    6.3665   -2.6257  -21.9141 H   0  0  0  0  0  0  0  0  0  0  0  0
    2.9126   -1.1858  -19.3971 H   0  0  0  0  0  0  0  0  0  0  0  0
    4.3449    2.9592  -23.4273 H   0  0  0  0  0  0  0  0  0  0  0  0
    7.6132    4.4992  -21.0605 H   0  0  0  0  0  0  0  0  0  0  0  0
    7.0086    1.4924  -22.9844 H   0  0  0  0  0  0  0  0  0  0  0  0
    4.4247    0.4995  -19.6737 H   0  0  0  0  0  0  0  0  0  0  0  0
    3.5531   -4.8698  -17.2640 H   0  0  0  0  0  0  0  0  0  0  0  0
    6.5542   -3.4523  -19.8374 H   0  0  0  0  0  0  0  0  0  0  0  0
    6.8145    3.3071  -17.1502 H   0  0  0  0  0  0  0  0  0  0  0  0
    5.4027    4.4084  -17.0075 H   0  0  0  0  0  0  0  0  0  0  0  0
    5.2086    2.6524  -16.6827 H   0  0  0  0  0  0  0  0  0  0  0  0
    3.3406    2.9565  -21.2396 H   0  0  0  0  0  0  0  0  0  0  0  0
    1.9955    3.4653  -19.0783 H   0  0  0  0  0  0  0  0  0  0  0  0
    2.9252    3.6446  -17.6279 H   0  0  0  0  0  0  0  0  0  0  0  0
  1  2  2  0
  1  3  1  0
  2  8  1  0
  3  9  2  0
  4  6  2  0
  4 10  1  0
  5  7  2  0
  5 12  1  0
  6 14  1  0
  7 15  1  0
  8 16  2  0
  9 16  1  0
 10 17  2  0
 11 14  2  0
 11 17  1  0
 12 22  2  0
 13 15  2  0
 13 22  1  0
 14 15  1  0
 20 16  1  6
 17 20  1  0
 18 19  1  0
 18 21  1  0
 18 23  2  0
 19 24  2  0
 19 25  1  0
 20 23  1  0
 20 24  1  0
  1 26  1  0
  2 27  1  0
  3 28  1  0
  4 29  1  0
  5 30  1  0
  6 31  1  0
  7 32  1  0
  8 33  1  0
  9 34  1  0
 10 35  1  0
 11 36  1  0
 12 37  1  0
 13 38  1  0
 21 39  1  0
 21 40  1  0
 21 41  1  0
 24 42  1  0
 25 43  1  0
 25 44  1  0
M  CHG  1  24   1
M  END
>  <OMEGA_C>  (25) 
7j3QQAdMsEC3FMHB/lGuQNQYk0AGbMLB3GzpQMvarkBXvbfBN0XYQAm6HL86pbTBJX1EQI6NQcCg
IZLBmKTFQHzQyb/s7a3BjsNhQJyeAsCCRJnBPPSkQGZBakCyUbrBeB3gQN73kECLnK/Bae3QQAHJ
QT/917LBLqaiQCDzRT59yaPBfb15QJTcg8B3rI/BVoayQDvWVMD4IJvB2QKrQEcDl7/xYaXBK8KZ
QN84DMDx5J3By0C9QFFZaECQvbDBBIm1QKSblj9CearBB8isQIurSkBYCpbBHUiBQMMcTUBPlJrB
yUWwQDGGKkBIqKfBelG3QOCPWUDuZorBhSCkQIAqiMC7IZTBz3fIQBVKOUBYpp3B1JSDQDgAPUBV
06TBjkM4QOaTXUBp4ZTBYu7WQIS/x0D8M8fBVHibQL6pk0CIqcnBTvgBQU6zxEDEzLbBVlTsQIB8
bL+RObvBR8cFQClEPMDyjo7BI7rLQLwKKMAAUK/BVWg6QKrHl79OLZvBDwmLQEJjPUAja7vBjJ/z
QND5j0Dhe6jBukbgQF0Fvz8J4LfBy5aNQEq//z63Y53BxmZjQF3Vm8CSHIrB2LvRQPjyXMDvsp7B
aRDaQAWoU0CtM4nBmeKsQEgRjUBVD4jBeKymQHHAKUAndoXBB8xVQEM3PUC26qnBJ23/P2jHXUBV
oJjBhjY7QE1BaUAABo3BlirQQI0KsECmLsHB123pQNfIrkDm2bfBU0euQMbFkkDNecLByi7XQA0d
Hb+xwrTBm8FFQMDLQMCX4ZHBXT3FQDKFyb9m5a3BooNjQG5WAcAx6ZjBdEPgQCf9kEB9sK/Bb/uk
QIj3aUDYU7rBRiDQQGSmQT8Z8rLBs3SjQBkgTj6skaPBp+B5QNkrhMAZr4/BLZKyQL6LVcAbJ5vB
sX2rQJQhlr8OMqXB9E+aQFS4C8Dmr53BbmC9QLxoaECMwrDBorW1QHMslz+oZarBW5ysQFSGSkCK
AJbBaTSBQL4XTUCUlprBwnCwQK/sKkAkoqfBIsS2QF0sWEBJUYrB7OqjQAHTiMBcRZTB/XvIQJAG
OkCpmp3BKbGDQFFEPUC+1qTBOv43QF6hXUBm6pTBtMXWQPtmx0DdVMfBFfMBQeu0xEDQ8bbBkmeb
QMklk0CDtsnBMX/qQAfcbb9hd7vBW4kHQJTdOsAgMY7BcSzLQKzxJ8BgSK/B2AA9QOE3k7/qoJrB
EefzQGYRkEBvlajBsAmLQMMWPUCvYbvBn/HeQH2Svj9WGrjBbSGPQDnnAj9GCZ3BJBxjQAdnnMBc
OIrB6pbRQD8cXsAlz57B4HnZQIA3UkDKDonByzesQA47jEAE44fBZP6lQJrKJ0AHfoXBNDFWQCKX
PUDQ9KnBBBz/PwEiXkD2r5jBbr86QNoOaUA9DY3Blm3OQBbAsUAc98DBJ4fnQEvqsEDLmrfBUJSt
QIhpk0BeZMLB3DbbQOi+Fr9GuLTBUq2gQDDzh8ACWpTBqeTHQAxYyL/LOa7BZzuyQMxNVcBqoZvB
1ivfQNN7kkAWiq/Buy2lQOjHaUCKWrrBF4vTQMojRz+v17LB+P2jQEAjQD6kHaTBhvFuQOpzgMCN
KpDBJBdiQPplAcBj8ZnBMGisQIwol79XzqXBaDmaQDZiDMBJep7BDF+9QP4KaUCLwbDBj0K3QKI1
lz+bm6rBzwqtQJaXSECFDJbBxYyBQC7DSEAomprBRh2xQMZjKkB9tqfB7zq3QNpIV0DgYorBY9hA
QJQQO8CCAJPBVQnJQCKxOUCgrJ3BtzOEQPTzOkBC5aTBqyg4QOBXVUAn4ZTBu1zUQHKcyUB1CcfB
pJ8AQT6mx0A7mrbB+NCaQLqHk0DVpcnB/gvwQFmlY79lLrvBG4yyQFD3o8Bd+pHBUhjOQAgqJ8Co
rq/B/p3RQJbdX8CX/57BmJnyQED4kUAmZajBIxeMQJEpO0BWhLvBk07jQMrYwj/itLfBkYWOQHel
9z7rxZ3B0+5TQLEPl8A+korBG+c8QHFck79/EpzBEgzaQNKnU0BxLInBU6+rQDR2i0DL+IfBMF+n
QBX8JUBmg4XBVEpXQB2PO0A6BqrBkmX/Py9FVEDppJjBXo46QAR+X0CG/IzBdEbOQHs1skDs2MDB
oVCtQPz8k0D0Q8LBlKfnQA4OsUDkiLfBjbPaQLGNFr9A1rTB8YagQIIviMADeZTB3onHQIYzyL/o
Tq7B5gmyQL62VcDWv5vBvxOlQEiTakAwQ7rBYHPfQMVwkkBogK/B9DLTQNlyRz/67rLB0UykQAA0
Qj6dEqTBLxlvQP52gMAdLZDBOnpiQAfoAMCe2pnBb2msQB3xlr800aXBzjeaQExNDMCLfZ7Bk4O9
QH5HaUBjtLDBSF63QPhslz+wmqrBqtusQAqyR0B4AJbBp3qBQNpfSED/nZrBIkexQJdzKkBwr6fB
y6u2QJQAVUAFS4rB5VBBQNKgOsBp6ZLBWAfJQEV8OUA/nJ3BtVKEQDDYOkAc6aTBUtc3QBYyVUCd
8ZTBdxXUQJk5ykBl48bBiliaQFFWlEC1fMnBfbwAQYGvx0B3i7bB0EjvQMihY7+XWLvB/EKyQKRm
pMA8L5LBmZbNQLwbJ8AUy6/BE0LRQM2aYMA4Mp/BHuyLQPIXPEDia7vBLxnzQG6rkUByZajB1Lzi
QGzwwj/q2LfBaTWPQCwm+T5fp53B4S9UQFwVl8CMk4rBMos9QCeqkb+h55vBu3DZQLYHUUB6A4nB
cCKrQN02ikBPyofBA5SmQIQ/I0CzioXBmLZXQDSJO0DuEKrBpxn/P3uLVEDbv5jBFe45QAsZX0Bh
C43B6ezUQDP1p0D1bsHBExvYQEexdkAGv8LB0TvGQCYOuUBnrrfBGu2ZQJjHcL8+vLHBBdobQfrF
XsDHDKXBdFjBQNZVyb9qyK/BzsYHQRV8OcDv7qbBwI7MQNR7P0BeVbrBt6e6QJ+VnUDOPK/B+vuT
QB8yzz4j2a7BZVPdQK/m/T5cKKjBCFIuQXoIK8BAWaXB7OYZQRj4Q78bOKnBhnnjQIVUW78QCKvB
U6IGQWjLwb8AEKnBbJu9QGE3YUDecrDBbl+1QLMlkD+Iz6nB9GmsQPDoU0Af7ZXBba2AQLfIT0AM
UZrB4cqvQJYqJ0B/JKfBv423QDDSbkBOqYrBtSUtQYQXrL8bZ6fB5wjIQD9gPUCIVZ3BE++CQFc0
OUCMXqTBA+I2QI1sYkBDv5TBAcHdQCQUvUAA6MfBwW7jQDaJXEC+OcrBvNfDQChM20A6rbbBICuA
QCCwvr/4dbXBzyMdQTM0kcCGY6PBt5rFQEgYJ8Cn67HBl9ryQNb3X8CiwabBNBDPQHoh9j/AY7vB
L26vQD7oqkCIxqfBp6JrQIMDZD9lerDBG2f3QInrhj/SqaTBPMM9QXfTR8D+56PBWTUZQZ/elj6M
1KrBv3naQKKxbED+lonBnwmsQDIxmEB/QInBlkCoQG3+QkBM74TBDTBUQJ/fNEAyYqnBSXD8PzwX
X0BdcZjBoNk5QH0yc0AhCY3BmaGLQNU5bkBgx47BlNO2QGfQcEBM+JHB0z5YQAFJUECd6ZXBj6Hk
QOmceL+YMLbB77uhQIM7h8Do6ZPBzRLSQOCR679qqq7BHNS1QHlNWcAJcZvBi5jCQPGKVUBNSpzB
G1VvQGQSNkBoTKDB96HZQFicyD7iQrbBhd2oQMBZgjyOVqfB3B1wQKNXesCxZ5DBna9rQPi/AMDc
YJvBL8qzQPBJrb+CNqfBTK6fQHvfEMCdS5/BcAqjQL9nOUDYo6PBlVW8QE+HaD8Vqa7B3JqcQAQY
XkBk9b3B+UPJQLPTdEAicrvBrkewQOJ9GUA1zK7BrNCDQOlXf0DZdMfBDdhFQH/FNMB+H5TBRfeN
QINtKEDou7bBjWjUQJJ6TUD6qbLBhj7jQHo/lUAnb8HBB6mCQK6agUCg24bBs/XOQAHhg0CVfYzB
NyMWQLJsTUBMapPBXWf7QBAErb+F7rvBFwmyQJQdo8D21pDBdfraQDSROMCPk67B67vVQLmXZ8Cr
PZ7Btd7jQFAOVkDQn57BkMU+QCdQH0DLv6XBR53nQPxohj/lJrzBtU2RQP70xj6/w6HBrEJRQMmt
kcBCnorB/TlJQMHpkr96Q57BoOBGQNa3Y0D1a8fB3puBQKDAokDh/MbBi1eUQM8MbUDQ4c7BbAHx
QCLyUUAjHq/BNqsAQVXhmkBXG7/B/eLXQPz3okCTFMjB

>  <OMEGA_E>  (25) 
EEKNPpiwjj7kGJY+cM+WPvz6fT8Y1oM/

>  <OMEGA_NBR>  (25) 
     76876

$$$$
50157432
     RDKit          3D

 50 54  0  0  1  0  0  0  0  0999 V2000
    6.6194    5.4667  -23.9902 C   0  0  0  0  0  0  0  0  0  0  0  0
    7.6220    5.1039  -23.0734 C   0  0  0  0  0  0  0  0  0  0  0  0
    5.3144    4.9650  -23.8389 C   0  0  0  0  0  0  0  0  0  0  0  0
    7.3193    4.2524  -21.9961 C   0  0  0  0  0  0  0  0  0  0  0  0
    5.0062    4.1158  -22.7613 C   0  0  0  0  0  0  0  0  0  0  0  0
    5.9999    3.7652  -21.8086 C   0  0  0  0  0  0  0  0  0  0  0  0
    6.3510    3.2555  -19.3303 C   0  0  0  0  0  0  0  0  0  0  0  0
    4.0888    3.4492  -19.0576 C   0  0  0  0  0  0  0  0  0  0  0  0
    7.2662   -1.3065  -20.4985 C   0  0  0  0  0  0  0  0  0  0  0  0
    4.8274   -1.4893  -21.1382 C   0  0  0  0  0  0  0  0  0  0  0  0
    6.5540   -0.9020  -22.8830 C   0  0  0  0  0  0  0  0  0  0  0  0
    5.6176    0.4128  -19.7041 C   0  0  0  0  0  0  0  0  0  0  0  0
    7.3470    1.0223  -21.4613 C   0  0  0  0  0  0  0  0  0  0  0  0
    4.9099    0.8341  -22.1064 C   0  0  0  0  0  0  0  0  0  0  0  0
    5.8127   -1.0805  -20.0201 C   0  0  2  0  0  0  0  0  0  0  0  0
    7.5457   -0.4777  -21.7736 C   0  0  1  0  0  0  0  0  0  0  0  0
    5.0985   -0.6646  -22.4180 C   0  0  2  0  0  0  0  0  0  0  0  0
    5.6527    2.8286  -20.6304 C   0  0  2  0  0  0  0  0  0  0  0  0
    5.8863    1.3014  -20.9711 C   0  0  1  0  0  0  0  0  0  0  0  0
    5.5390    3.9694  -17.0529 C   0  0  0  0  0  0  0  0  0  0  0  0
    5.3319    3.4724  -18.4184 N   0  0  0  0  0  0  0  0  0  0  0  0
    4.2291    3.0222  -20.2864 N   0  0  0  0  0  0  0  0  0  0  0  0
    2.8687    3.7759  -18.4869 N   0  0  0  0  0  0  0  0  0  0  0  0
    7.5478    3.2437  -19.0633 O   0  0  0  0  0  0  0  0  0  0  0  0
    6.8514    6.1303  -24.8101 H   0  0  0  0  0  0  0  0  0  0  0  0
    8.6268    5.4801  -23.1969 H   0  0  0  0  0  0  0  0  0  0  0  0
    4.5479    5.2322  -24.5512 H   0  0  0  0  0  0  0  0  0  0  0  0
    8.0983    3.9665  -21.3048 H   0  0  0  0  0  0  0  0  0  0  0  0
    4.0043    3.7264  -22.6570 H   0  0  0  0  0  0  0  0  0  0  0  0
    7.9620   -0.9971  -19.7047 H   0  0  0  0  0  0  0  0  0  0  0  0
    7.4137   -2.3739  -20.7198 H   0  0  0  0  0  0  0  0  0  0  0  0
    4.9550   -2.5588  -21.3615 H   0  0  0  0  0  0  0  0  0  0  0  0
    3.7971   -1.3058  -20.7993 H   0  0  0  0  0  0  0  0  0  0  0  0
    6.7471   -0.3091  -23.7892 H   0  0  0  0  0  0  0  0  0  0  0  0
    6.6943   -1.9698  -23.1067 H   0  0  0  0  0  0  0  0  0  0  0  0
    4.5842    0.5756  -19.3642 H   0  0  0  0  0  0  0  0  0  0  0  0
    6.3163    0.7049  -18.9062 H   0  0  0  0  0  0  0  0  0  0  0  0
    8.0547    1.3234  -20.6748 H   0  0  0  0  0  0  0  0  0  0  0  0
    7.5396    1.6086  -22.3719 H   0  0  0  0  0  0  0  0  0  0  0  0
    5.1109    1.4184  -23.0164 H   0  0  0  0  0  0  0  0  0  0  0  0
    3.8730    1.0059  -21.7819 H   0  0  0  0  0  0  0  0  0  0  0  0
    5.6212   -1.6807  -19.1184 H   0  0  0  0  0  0  0  0  0  0  0  0
    8.5776   -0.6532  -22.1117 H   0  0  0  0  0  0  0  0  0  0  0  0
    4.4008   -0.9705  -23.2114 H   0  0  0  0  0  0  0  0  0  0  0  0
    4.5688    4.0516  -16.5410 H   0  0  0  0  0  0  0  0  0  0  0  0
    6.1857    3.2702  -16.5025 H   0  0  0  0  0  0  0  0  0  0  0  0
    6.0179    4.9589  -17.0917 H   0  0  0  0  0  0  0  0  0  0  0  0
    3.4693    2.8489  -20.9130 H   0  0  0  0  0  0  0  0  0  0  0  0
    2.0279    3.6904  -19.0213 H   0  0  0  0  0  0  0  0  0  0  0  0
    2.8293    4.0971  -17.5407 H   0  0  0  0  0  0  0  0  0  0  0  0
  1  2  2  0
  1  3  1  0
  2  4  1  0
  3  5  2  0
  4  6  2  0
  5  6  1  0
 18  6  1  6
  7 18  1  0
  7 21  1  0
  7 24  2  0
  8 21  1  0
  8 22  2  0
  8 23  1  0
  9 15  1  0
  9 16  1  0
 10 15  1  0
 10 17  1  0
 11 16  1  0
 11 17  1  0
 12 15  1  0
 19 12  1  1
 13 16  1  0
 13 19  1  0
 14 17  1  0
 14 19  1  0
 18 19  1  0
 18 22  1  0
 20 21  1  0
  1 25  1  0
  2 26  1  0
  3 27  1  0
  4 28  1  0
  5 29  1  0
  9 30  1  0
  9 31  1  0
 10 32  1  0
 10 33  1  0
 11 34  1  0
 11 35  1  0
 12 36  1  0
 12 37  1  0
 13 38  1  0
 13 39  1  0
 14 40  1  0
 14 41  1  0
 15 42  1  1
 16 43  1  6
 17 44  1  6
 20 45  1  0
 20 46  1  0
 20 47  1  0
 22 48  1  0
 23 49  1  0
 23 50  1  0
M  CHG  1  22   1
M  END
>  <OMEGA_C>  (26) 
ANLTQF3vrkDr67/Bt+fzQGlTo0A6lrjB5w+qQE3hnkACtr7BnTfqQLYTiEDq96/BAjOgQPG0g0Af
F7bB+v6/QFL5cED4d67BZDvLQJpaUEB/pJrBw9eCQOi/XEDvdZjB6YToQDs8p78F/aPB/nmaQD2i
vr/8GqnBE7rRQNnnZr9cELfBqcOzQGBV0z7ooZ3BpBrrQJLbgj/AsKvBlB2dQNmFVT/x2bDBjgG6
QDRMir8lKaDBXHbxQOqP9L5uMK7BSSejQMUhKr8PWLPBpuK0QCcINUARC6XB+Vy8QH2Vpj/KxKfB
Lj+xQBwKfkBQbIjBjp6qQM47XkDXWJPBt1SHQJRrQUCQSqLBNJk3QKWocUAj5ZPB7YfxQG2ZT0Cx
gZjB3D7bQForxEARe8bBdwcKQWNdr0BAk7nBwoiRQIBup0DwaMTByJIBQbbbfUBUcKrBNyOAQHp9
bkByQbXBhsj+QJNCf786o53B9TztQPDtF8A6wqXBBo+eQAzEI8BQ5KrBhQNzQO0lp78KZabBWejX
QMQ8nr4xUL7BazfWQM0i/L9+2rjBnbGSQBFYEz/66ZrB5x7KQOdyND/mP5fBEOAAQVhlqT8XZqXB
qETxQETlzT+y+bLBO4yjQAePtT+nIbjBld53QGfBgD9TQa7B5uCzQAsi17+I8pjBCj4JQSY4J7+7
5LDBLNOMQHNweL8IsbnByjOSQFWmgUDhU4TBoPHFQH1LUUAzBYTB45LAQPGunkC2u4jBcgheQF9U
NkDaTafBZ8gBQD4wbECvK5jBaBM1QHgbg0BUU4zBgQHVQDoJr0Ai97/BRNH0QPJUo0DMkbjB2CWr
QL4in0Bq1L7BpcLqQNwgiEDF+K/BjeagQOgFhEBfOLbBd23AQBllcUCuiq7B+FPLQPUtUUD6uJrB
AuKCQId3XEAIepjB/2WaQGU6vr9U0KjBqbrQQJjLaL9WArfB/7ToQATCpb9w/aPB2micQLjxVD/b
srDBq0i0QCd22z4tjp3Bh7rqQM1fgz813qvBSWKiQMhcK78MIbPBmGu6QCKSiL+yAqDB2/3wQF/f
877vR67BnvS0QNa8NUA+HKXB/zy8QMGGpz+ExqfBenmxQGZkgEDPk4jB4sWqQHJ/X0DWbZPB62qH
QJnHQkDMYKLB8I43QGYvb0B8y5PB0ZrxQCy9T0BLkZjB+rTcQP04xECpg8bBR4UKQfpCr0CzfrnB
jdSSQArCp0AClMTBi78BQcPBfUAMZqrB4MKAQJNob0AHcbXB3ydzQN3Qpr9n/aXB6nieQMWiI8Co
jqrB+iHVQH1H/b+QwLjBcnXWQGlopb7eUL7BSlP/QBtHer9Lvp3BeGHtQFlLF8BXtKXBx1CiQCJ5
tD/HCbjBV8t2QOSFgD8z+a3B8l+TQGHOFz8NuZrB1wLLQIE8Oj9xRpfB7eIAQfPzqj9lsaXB/GPw
QNBXzT+HOLPB1a6LQARje79PX7nBA7y0QGd+1L+zvJjBtewIQYxcJ7+sGbHBj3uSQJcQg0B1dYTB
smfGQBjmVEDlG4TBLpLAQI8joEDBB4nBokheQAwyOUBrc6fB85sBQB5TaUAyCZjBzxU1QGBGgUAW
LYzBp1nWQABwrkDcwb/BiSb2QEoDokDabLjBPT6sQNVWn0D/kL7BTtbrQCT+hkDKza/B2rOhQD2N
hECA7bXBeCbBQCG9cUCGPK7B6/LKQOUuUUB1XprB6rSCQLzdW0BhT5jB9wmnQEWClL9L77TBCoPz
QGmThL+Li67BH5m4QG/l0b8yoKHBEhrMQHFMiD+khbPBThKRQIo27D4JlKbBZ6zdQCIvFj8KLqDB
GzPSQARD2r75QbbB6hOXQEAMhL/ASanBxdDjQCEoaL8X4KLB+kS1QBNGNUCq5aTBSQS8QL1moj/F
uqfBLVKwQMU8e0AgHojB1iOqQKNqW0C9D5PBktGHQNx+RkAFWaLBt9E2QE0Mb0BaxJPB6CXxQNnD
WEBeT5jBW0feQA2Sw0DQTMbBUksLQV1BrUAca7nBevqTQIBUqEAeS8TBp04CQYTUeUA0VarBvmSB
QC9ucUDtHrXBwEuPQNMpN7/bXrrB8EKrQH9WDsC86LbBaBf4QDFUBsAQfrDBSgsJQR2UAL+Cb6/B
EVWtQGm3xL9WVJnB4+i8QHElLcBchqPBbuXqQAmuyj9TgLTBO3C0QPqFvz8hDLnBr0hyQDvJYz/y
C6zBEZ2FQC9uDD9tSZ7BuJvSQG3HLD8Y25fB1Yz8QAwyjT/rEKHBJnbdQCn0Br9Xjr7BveBwQM3a
x7+GY6jBD5L7QB2arL8pbZ3BYk2RQARcfUBa94PBmyrGQEpAUEDeyYPBOiO+QGr5nUDmZYjBbeRf
QGROQkA9pqfBdLYBQFT4bEBcOZjBAzYzQM/3fkAWCIzB

>  <OMEGA_E>  (26) 
AAAAAAAAAACAnuc9

>  <OMEGA_NBR>  (26) 
      2839

$$$$
50157457
     RDKit          3D

 57 61  0  0  1  0  0  0  0  0999 V2000
    7.2469    3.9635  -22.1873 C   0  0  0  0  0  0  0  0  0  0  0  0
    4.8928    3.9590  -22.8379 C   0  0  0  0  0  0  0  0  0  0  0  0
    7.5353    4.8182  -23.2637 C   0  0  0  0  0  0  0  0  0  0  0  0
    5.1892    4.7888  -23.9262 C   0  0  0  0  0  0  0  0  0  0  0  0
    5.9125    3.5600  -21.9292 C   0  0  0  0  0  0  0  0  0  0  0  0
    6.5050    5.2337  -24.1255 C   0  0  0  0  0  0  0  0  0  0  0  0
    6.2834    3.0838  -19.4588 C   0  0  0  0  0  0  0  0  0  0  0  0
    4.0336    3.2715  -19.1385 C   0  0  0  0  0  0  0  0  0  0  0  0
    4.6456   -1.5095  -22.1220 C   0  0  0  0  0  0  0  0  0  0  0  0
    7.1121   -1.1721  -22.5292 C   0  0  0  0  0  0  0  0  0  0  0  0
    6.2774   -1.7845  -20.2246 C   0  0  0  0  0  0  0  0  0  0  0  0
    5.5524    0.7967  -22.5910 C   0  0  0  0  0  0  0  0  0  0  0  0
    4.7156    0.1908  -20.2682 C   0  0  0  0  0  0  0  0  0  0  0  0
    7.1785    0.5429  -20.6780 C   0  0  0  0  0  0  0  0  0  0  0  0
    5.6952   -0.7023  -22.9234 C   0  0  2  0  0  0  0  0  0  0  0  0
    4.8593   -1.3111  -20.6020 C   0  0  1  0  0  0  0  0  0  0  0  0
    7.3329   -0.9655  -21.0134 C   0  0  2  0  0  0  0  0  0  0  0  0
    5.5656    2.6357  -20.7395 C   0  0  2  0  0  0  0  0  0  0  0  0
    5.7548    1.0727  -21.0618 C   0  0  1  0  0  0  0  0  0  0  0  0
    6.0628    8.2938  -25.8519 C   0  0  0  0  0  0  0  0  0  0  0  0
    5.5310    3.8321  -17.1845 C   0  0  0  0  0  0  0  0  0  0  0  0
    6.7283    7.4835  -24.7422 C   0  0  0  0  0  0  0  0  0  0  0  0
    5.2881    3.2851  -18.5234 N   0  0  0  0  0  0  0  0  0  0  0  0
    4.1542    2.9049  -20.3895 N   0  0  0  0  0  0  0  0  0  0  0  0
    2.8248    3.5754  -18.5322 N   0  0  0  0  0  0  0  0  0  0  0  0
    7.4843    3.2268  -19.2530 O   0  0  0  0  0  0  0  0  0  0  0  0
    6.7694    6.1009  -25.1462 O   0  0  0  0  0  0  0  0  0  0  0  0
    8.0464    3.6114  -21.5523 H   0  0  0  0  0  0  0  0  0  0  0  0
    3.8792    3.6181  -22.6865 H   0  0  0  0  0  0  0  0  0  0  0  0
    8.5477    5.1560  -23.4294 H   0  0  0  0  0  0  0  0  0  0  0  0
    4.4076    5.0854  -24.6099 H   0  0  0  0  0  0  0  0  0  0  0  0
    3.6373   -1.1644  -22.3946 H   0  0  0  0  0  0  0  0  0  0  0  0
    4.7460   -2.5774  -22.3659 H   0  0  0  0  0  0  0  0  0  0  0  0
    7.2230   -2.2393  -22.7717 H   0  0  0  0  0  0  0  0  0  0  0  0
    7.8583   -0.5893  -23.0891 H   0  0  0  0  0  0  0  0  0  0  0  0
    6.4352   -1.6404  -19.1456 H   0  0  0  0  0  0  0  0  0  0  0  0
    6.3839   -2.8511  -20.4715 H   0  0  0  0  0  0  0  0  0  0  0  0
    6.3073    1.3611  -23.1581 H   0  0  0  0  0  0  0  0  0  0  0  0
    4.5468    1.1327  -22.8839 H   0  0  0  0  0  0  0  0  0  0  0  0
    3.6985    0.5175  -20.5306 H   0  0  0  0  0  0  0  0  0  0  0  0
    4.8794    0.3325  -19.1898 H   0  0  0  0  0  0  0  0  0  0  0  0
    7.3348    0.6871  -19.5987 H   0  0  0  0  0  0  0  0  0  0  0  0
    7.9350    1.1128  -21.2374 H   0  0  0  0  0  0  0  0  0  0  0  0
    5.5389   -0.8599  -24.0008 H   0  0  0  0  0  0  0  0  0  0  0  0
    4.1105   -1.8907  -20.0421 H   0  0  0  0  0  0  0  0  0  0  0  0
    8.3428   -1.3027  -20.7372 H   0  0  0  0  0  0  0  0  0  0  0  0
    6.0230    9.3535  -25.5596 H   0  0  0  0  0  0  0  0  0  0  0  0
    6.6444    8.1912  -26.7799 H   0  0  0  0  0  0  0  0  0  0  0  0
    5.0412    7.9203  -26.0163 H   0  0  0  0  0  0  0  0  0  0  0  0
    4.5801    3.8935  -16.6350 H   0  0  0  0  0  0  0  0  0  0  0  0
    6.2267    3.1758  -16.6411 H   0  0  0  0  0  0  0  0  0  0  0  0
    5.9687    4.8374  -17.2731 H   0  0  0  0  0  0  0  0  0  0  0  0
    7.7513    7.8521  -24.5764 H   0  0  0  0  0  0  0  0  0  0  0  0
    6.1482    7.5812  -23.8127 H   0  0  0  0  0  0  0  0  0  0  0  0
    3.3890    2.8178  -21.0274 H   0  0  0  0  0  0  0  0  0  0  0  0
    1.9749    3.5206  -19.0563 H   0  0  0  0  0  0  0  0  0  0  0  0
    2.8026    3.8494  -17.5708 H   0  0  0  0  0  0  0  0  0  0  0  0
  1  3  2  0
  1  5  1  0
  2  4  1  0
  2  5  2  0
  3  6  1  0
  4  6  2  0
 18  5  1  6
  6 27  1  0
  7 18  1  0
  7 23  1  0
  7 26  2  0
  8 23  1  0
  8 24  2  0
  8 25  1  0
  9 15  1  0
  9 16  1  0
 10 15  1  0
 10 17  1  0
 11 16  1  0
 11 17  1  0
 12 15  1  0
 19 12  1  6
 13 16  1  0
 13 19  1  0
 14 17  1  0
 14 19  1  0
 18 19  1  0
 18 24  1  0
 20 22  1  0
 21 23  1  0
 22 27  1  0
  1 28  1  0
  2 29  1  0
  3 30  1  0
  4 31  1  0
  9 32  1  0
  9 33  1  0
 10 34  1  0
 10 35  1  0
 11 36  1  0
 11 37  1  0
 12 38  1  0
 12 39  1  0
 13 40  1  0
 13 41  1  0
 14 42  1  0
 14 43  1  0
 15 44  1  6
 16 45  1  1
 17 46  1  1
 20 47  1  0
 20 48  1  0
 20 49  1  0
 21 50  1  0
 21 51  1  0
 21 52  1  0
 22 53  1  0
 22 54  1  0
 24 55  1  0
 25 56  1  0
 25 57  1  0
M  CHG  1  24   1
M  END
>  <OMEGA_C>  (27) 
rubnQJ6pfUCmf7HB6JGcQDpgfUD+s7bBiCHxQIcumkAWHLrB+A2mQJo9mUDGaL/BijO9QBbXY0AN
b6/BxCjQQGx6p0AOAcHBWBHJQMBcRUC3q5vB4RKBQKBfUUCuG5nBr6iUQIw4wb/0+bDBGZbjQEAG
lr/RO7TBKeDIQAJr5L/yy6HBhq2xQDr0Sz9EurTB2eWWQEhqQz5gJaLBnLblQOr5Cj+FbKXBrj62
QNnHM78rY7fBF3+bQK/Qp7/z0KTB/abqQMcpd79bG6jBMxmyQPyvKECP6qXBPie4QPdNiT+pfqjB
KgLCQFizBEHL0M7Bl/2wQBBBdUDleYnB903XQBp570AN8MXBhjipQMA+UkACMJTB3u6EQCrpOUC9
HaPBSsk0QLjSZEABQpTBL3/vQN6DTkA+BprBq57YQLg6w0CDK8nBOr4AQZchZ0Aza6zBiUV4QLqP
Z0ANfrXBUMMIQfj9pEBbb7vBBQuNQFu7okAY4cTB18loQPkLlb8mKLPBbd+XQN/0JMB17bLBtyLn
QPFPD8B1LLbBlnf7QJzeFr+CtrjBi+3NQIf30b8aKpnBBknMQBt5NsCVxaPBL9XJQGg5rj+9Q7nB
VH+RQOv7kD8oErfBN7RsQMZ9BD/FPqTBHCScQNpDqj6yhJnBlLbqQOzjLz80ypzBpOv9QBBxjj8h
5qnBYD6xQCggXL+iAcDBi4mDQAMB8r9MVqDBPHwFQRXApr/E5aXBorzAQNOnFUEBeszB2p7UQPsO
A0FVPdbBwFGhQGVz/UBUIdDByY+SQA4veUBoFIXBx0DHQPJAS0DvIIXBYv++QKbLmkBUL4rBBQv4
QB1E+0B0nMTB673EQIyZ8kB0gL7BQuVYQJtXNEA2OKjBAsj8P4pRYUA8c5jB4V0zQEJcdkDrkIzB
qzXnQDjmg0D9A7HBkQefQEKtcEDQ6bfB2FjvQCVLoECUdbnBgFKnQHGMlEDlXcDByWu+QLoIYUCP
8q/BpgfPQAhUqUDqBcHB0zbKQBq1SEBjGpzB1/uBQJRRV0CG3JnBCpzhQC1oyb+0TaPB1ueSQAan
17+Xm6fB/lTJQBpKpL+YU7bBNFCwQAD8kD5FfJ3BvV7mQH5pNT/HRazBmcCXQPppET8sr7DBqB20
QO4en78lMZ/BvI7qQPKBU7+f863BUImbQO53db8qW7LBMEezQOYZKUCzNKbBs6q4QGEsij9qJKjB
8IrKQJJnCUGXMMrBrt+wQFIyeUD1B4rBd6LmQIsq70DeqcXBgUuqQAQTZ0DXapXBNSSGQLbnOkBX
oKPBzGw1QASnYkCd65TBPBzwQG4uQUBZuZnB4kPVQD1/xkB4E8nBThAAQV+HeUDuTKvBCm+AQCy/
UECmc7fBWC4HQUlEr0CWLbrBOiuPQPFNmkBlYMbB2UP5QFeXob/hR53BBDzkQC0TKsCopqTBYUSV
QHNlMcCc0ajBvS1lQMdDt79NxKTBAzrPQBVBQr9P673BulbMQJGRF8AclLfBceaPQE/KAz/WmJrB
nO/HQFCrGD8ydpfBu0L+QESqhD+jXabBXC3sQGYrnD9Y7bPB3fKdQHrHiT8xVbjBL1NuQKUPTj+i
863B6TquQPE/4r8GmZfB4YAFQSZliL8CxrDB5gqEQHfJpL/nW7jB6kPXQJAGGUEQrcfBAHDKQJl5
CEE8+tLBA62pQAuNB0HCLcfBAtCSQJ9BiEAZgIbBzO+6QKtVPkA66YXBatLJQIIrlUBwIonBT8MD
QfWu8kAYrMjBosPmQNnV8ECe37zB/plbQGNRMkAgtajBR+n+P4DYVEDV25jB9rEyQA6keEBEao3B
MpvnQIMLhECXKrHBck+gQHpxbEAqYrjBlZ3vQB+toEAckrnBDoCoQKa3kkBMzMDBMha/QNyKX0Bx
M7DBdMvPQCiXqED3PsHBzmHKQK4HSkBqQZzBNBuCQI6iVECiz5nBLdu2QNCNr7+sFbbBmeLnQC1g
xL8mO6bBvC2YQDxH4L9Rj6PB4lfdQJ5AMj+sla/B5FiNQLyF6j7Z8azBJrq+QAD5mz66CZ3B8Ofg
QN7tVr9ZKrHBFsKQQEYxib9qia7BKBjCQKAinb9EmJ7BK0qzQIZXKUBXTqbBmGC3QCdvhz+k9KfB
Uv3KQJsECEFF0s7BPhGxQMqWdkA6+onBA7jAQNjW7kBoRMbBe0+qQNpMZEDNWJXBa3GGQLZPP0Cx
1qPBxqk1QPbHW0Apv5TBjaDwQCw1RkCvFprBcVTWQCxsx0AczsjBgDQAQeO2ekANY6vBXFaCQPUX
SkDyILjBAhoHQW+asED0IrrBPq+QQPndl0De7MbBgFixQF6eYb9Y173BZnm5QO1WHcDmRLfBFSHq
QO7CJ8Dqc6fB/uMCQYo+lb+do6LBHYZ6QEe7wr+4Mp7BDG+aQLnVNcCFqqTBa1v7QDcdiT+aGazB
dgLYQJ8hlj8iZ7fB6JaHQAe6bj+dwLTBfbNkQFX8Kz8ZkKfBtLWjQIIyBT/iqpfBNZLcQLt5Kz9K
ZpnBV937QGx9iL9thrbB0vtlQH/Vub8NHrLBkZ/HQJ5f27+70pbBtI26QCocF0Ge68zB5r7tQDHD
CkGnD8/BVhfAQDEpAkHlqNbBiZqSQBYVhUBdT4bBnhi9QCvOPEAI84XBrJbIQJFDlUBPIonBIaDL
QPGA+kDIbL7BkPidQPBM6UAGBsbBphFdQA8FPkBLJ6nBXnf/P7hVUEBNz5jBCuYyQJ5ibEBEB43B

>  <OMEGA_E>  (27) 
ngk2P5B3Nz8QEjk/

>  <OMEGA_NBR>  (27) 
     50849

$$$$
50158039
     RDKit          3D

 53 56  0  0  1  0  0  0  0  0999 V2000
    6.6872    5.3844  -23.9064 C   0  0  0  0  0  0  0  0  0  0  0  0
    7.6943    4.9387  -23.0335 C   0  0  0  0  0  0  0  0  0  0  0  0
    5.3750    4.8967  -23.7701 C   0  0  0  0  0  0  0  0  0  0  0  0
    7.3830    4.0342  -22.0029 C   0  0  0  0  0  0  0  0  0  0  0  0
    5.0576    3.9943  -22.7384 C   0  0  0  0  0  0  0  0  0  0  0  0
    6.0466    3.5864  -21.8068 C   0  0  0  0  0  0  0  0  0  0  0  0
    6.3367    3.2873  -19.3276 C   0  0  0  0  0  0  0  0  0  0  0  0
    4.0706    3.4556  -19.0498 C   0  0  0  0  0  0  0  0  0  0  0  0
    6.3184   -1.3762  -22.0816 C   0  0  0  0  0  0  0  0  0  0  0  0
    4.9551   -1.0318  -21.4639 C   0  0  0  0  0  0  0  0  0  0  0  0
    7.4558   -0.6883  -21.3069 C   0  0  0  0  0  0  0  0  0  0  0  0
    7.6374    2.6345  -14.8911 C   0  0  0  0  0  0  0  0  0  0  0  0
    4.7372    0.4882  -21.4518 C   0  0  0  0  0  0  0  0  0  0  0  0
    7.2525    0.8354  -21.2812 C   0  0  0  0  0  0  0  0  0  0  0  0
    6.6412    2.6491  -16.0306 C   0  0  0  0  0  0  0  0  0  0  0  0
    7.5851    4.0756  -14.3368 C   0  0  0  0  0  0  0  0  0  0  0  0
    5.8744    1.1992  -20.6632 C   0  0  0  0  0  0  0  0  0  0  0  0
    6.6714    4.1217  -16.4352 C   0  0  1  0  0  0  0  0  0  0  0  0
    5.6475    2.7508  -20.5653 C   0  0  2  0  0  0  0  0  0  0  0  0
    5.4675    4.5197  -17.2798 C   0  0  0  0  0  0  0  0  0  0  0  0
    5.3139    3.6512  -18.4541 N   0  0  0  0  0  0  0  0  0  0  0  0
    4.2271    2.9998  -20.2617 N   0  0  0  0  0  0  0  0  0  0  0  0
    2.8398    3.7356  -18.4756 N   0  0  0  0  0  0  0  0  0  0  0  0
    7.5416    3.2534  -19.1018 O   0  0  0  0  0  0  0  0  0  0  0  0
    6.6818    4.8198  -15.1908 O   0  0  0  0  0  0  0  0  0  0  0  0
    6.9205    6.1002  -24.6808 H   0  0  0  0  0  0  0  0  0  0  0  0
    8.7080    5.2911  -23.1543 H   0  0  0  0  0  0  0  0  0  0  0  0
    4.6080    5.2163  -24.4601 H   0  0  0  0  0  0  0  0  0  0  0  0
    8.1671    3.6752  -21.3527 H   0  0  0  0  0  0  0  0  0  0  0  0
    4.0523    3.6086  -22.6550 H   0  0  0  0  0  0  0  0  0  0  0  0
    6.4655   -2.4658  -22.0471 H   0  0  0  0  0  0  0  0  0  0  0  0
    6.3370   -1.0366  -23.1277 H   0  0  0  0  0  0  0  0  0  0  0  0
    4.1592   -1.5066  -22.0564 H   0  0  0  0  0  0  0  0  0  0  0  0
    4.9195   -1.4106  -20.4318 H   0  0  0  0  0  0  0  0  0  0  0  0
    7.4706   -1.0679  -20.2746 H   0  0  0  0  0  0  0  0  0  0  0  0
    8.4147   -0.9164  -21.7953 H   0  0  0  0  0  0  0  0  0  0  0  0
    7.3410    1.9074  -14.1207 H   0  0  0  0  0  0  0  0  0  0  0  0
    8.6464    2.3915  -15.2558 H   0  0  0  0  0  0  0  0  0  0  0  0
    4.7280    0.8602  -22.4869 H   0  0  0  0  0  0  0  0  0  0  0  0
    3.7720    0.7111  -20.9735 H   0  0  0  0  0  0  0  0  0  0  0  0
    8.0501    1.2953  -20.6793 H   0  0  0  0  0  0  0  0  0  0  0  0
    7.2997    1.2227  -22.3097 H   0  0  0  0  0  0  0  0  0  0  0  0
    6.9641    1.9979  -16.8562 H   0  0  0  0  0  0  0  0  0  0  0  0
    5.6394    2.3445  -15.6936 H   0  0  0  0  0  0  0  0  0  0  0  0
    7.2103    4.0701  -13.3026 H   0  0  0  0  0  0  0  0  0  0  0  0
    8.5877    4.5274  -14.3611 H   0  0  0  0  0  0  0  0  0  0  0  0
    5.8595    0.8032  -19.6371 H   0  0  0  0  0  0  0  0  0  0  0  0
    7.5936    4.3231  -17.0001 H   0  0  0  0  0  0  0  0  0  0  0  0
    4.5600    4.4475  -16.6624 H   0  0  0  0  0  0  0  0  0  0  0  0
    5.5984    5.5577  -17.6194 H   0  0  0  0  0  0  0  0  0  0  0  0
    3.4776    2.8395  -20.9040 H   0  0  0  0  0  0  0  0  0  0  0  0
    1.9996    3.5895  -18.9978 H   0  0  0  0  0  0  0  0  0  0  0  0
    2.7925    4.0837  -17.5393 H   0  0  0  0  0  0  0  0  0  0  0  0
  1  2  2  0
  1  3  1  0
  2  4  1  0
  3  5  2  0
  4  6  2  0
  5  6  1  0
  6 19  1  0
  7 19  1  0
  7 21  1  0
  7 24  2  0
  8 21  1  0
  8 22  2  0
  8 23  1  0
  9 10  1  0
  9 11  1  0
 10 13  1  0
 11 14  1  0
 12 15  1  0
 12 16  1  0
 13 17  1  0
 14 17  1  0
 15 18  1  0
 16 25  1  0
 19 17  1  6
 18 20  1  0
 18 25  1  0
 19 22  1  0
 20 21  1  0
  1 26  1  0
  2 27  1  0
  3 28  1  0
  4 29  1  0
  5 30  1  0
  9 31  1  0
  9 32  1  0
 10 33  1  0
 10 34  1  0
 11 35  1  0
 11 36  1  0
 12 37  1  0
 12 38  1  0
 13 39  1  0
 13 40  1  0
 14 41  1  0
 14 42  1  0
 15 43  1  0
 15 44  1  0
 16 45  1  0
 16 46  1  0
 17 47  1  0
 18 48  1  6
 20 49  1  0
 20 50  1  0
 22 51  1  0
 23 52  1  0
 23 53  1  0
M  CHG  1  22   1
M  END
>  <OMEGA_C>  (28) 
iP3VQJ1MrEBZQL/BgDf2QLcJnkCWRLjBzP+rQCyynEA2Kb7BdkHsQBwYgUDeBbDBENihQM+hf0A7
6LXBFH7BQFiIZUBRdK7BEsbKQJpiUkDvnprBDkKCQEcoXUDmZZjBajDKQGonsL8Op7DBP5CeQNIR
hL8LtqvB5pXuQP8yML+MdKrB7GX0QFOcKEDKQW7B5JaXQMb4+T40navBYBToQCveVT/8P6rBnoTU
QLOKKUCrPoDBwrjyQPdqgkB7Y2XBVPu7QG1/mT9CTqXBeHzVQFTlg0BEe4PBMri0QMkNMECshaTB
FvauQC2hkEAZPYrBQAuqQJmtaUD8oZPBSkSHQL78P0DrF6LBpr81QDoUb0AAzpPBpFTxQMU3UEBp
0JjB/NDVQHo7mkBZDXPBjHTdQI40w0AvcsXB5FMLQddQqUD6O7nBwXSTQBTspkA5rsPBc6wCQQ43
a0BT0qrBQayBQHzzZkBnPbXBp+XOQEXPHcCMYLDB/sjKQDiuhL9xBbnBGRiFQF7ZwL92c7DBxWyd
QOiNtL9HdKPBhQ/vQASyiL9mMqLBjKIGQRSWar/CXK7BTOnqQN0m9D937mHBeFcKQRIOGUCrF3TB
GUyXQAo3XD8y5bPBomdxQMMHNj/MyafBLs0AQTXNpT8+b6XBH5fpQCaAnD9berLB0dneQBW6/z+I
2YbBnXW0QAwMFkAbGXvBy7rmQJY+gkB511TBMWcJQRvgkEASx2XBTYG7QOqbTT/CGJ3Buv7yQJRW
ikAsAIjBieuRQOBRjkCxTIXB7iWzQOfYsUCZ9IzBUpFeQMq5NUBrO6fBZPP/P4+6ZUB/+5fBybcy
QEatgkB+UIzBuSLUQD9AtkB08L7BlQz1QCNTp0AGPbjBFRaqQNAep0AMlL3BGPrrQPFQiUBgLLDB
UsGgQE92iUBEcLXBworBQClOdUB+ga7BCbHMQCpwT0DsNZvBWSOEQCjWU0BYF5nBq5y1QIhQyb/G
uqnBR8HVQHn8fL9GvaHBz8GyQBflL79exrPB80GSQFZ9xUAJLX/BK2jIQAhP2z4ijp7BO/ilQM4p
QD+E3LDBtxq7QOWurkCaQnjBMeSZQHz8z0D8eYvBYHzFQEykrj8YlajBFj3KQPxQmkBCeIbBn4e3
QGekNEBckKXB4sexQKgoYECyfojBp6yrQMdWUkAY5pPBYWuJQOSwN0CW2KLBYTg6QGRoa0BOrZTB
JRHzQPTkUUCgJJnBKgrBQDNlukDwjY7BICLbQA9TzUASIcXBbKoKQSjtskDoSbnBPOiQQNJMskCF
y8LBq8cCQdqfekAZM6vB4W2AQNLEe0BAdbTBMQTAQLlFJcDED6zBMOeVQHSN0L+D76XBGMnWQCHQ
z79ij5rBs6r1QDADdb/dcaXBch7SQB4GLL/YxLfBHamaQMG1jb8/PbnBI5VsQHl1sEBjQ33B8nCN
QGXu4kCw1XXBhO2oQATbxj5foZrBpCzgQNN5Vj+G85jBYzamQLfurj/ZJrjB6o+FQMpUPj9Dba3B
eNzSQHyExUAQEnLB8GW0QJNMlkCaBGzBS/R9QDhVxEC1V5DBaFSdQEi/8kAvkIzBhGTlQI0gtT/X
RqzB4sjsQN7Kk0CNCIbBCD/EQAGKKkC4JYXBXlmSQJ5qY0DwjYTB92djQICiJkCMxqfBxcMEQNNm
Z0AlDJnBZXQ3QBsygECKII3BAOrYQA7+t0DAw77BpG/4QEmAnkAf2bnBBq6tQGwss0Al3rvB0s/s
QOxUgEBP/bHBeuqhQIsnlUDAAbTBrnbBQCY9d0Dz2q7BmvPLQPxfS0BonpvBWn2DQNRIVUBh8JjB
5Cq/QJlm0L+A8KbBkhTpQLvZU78LF6fBRnidQKhsc7+gGK7BxCvpQG114EA2PZDB5pPhQGKeHT8u
a6PBirKUQPMI+T4CUqrB7CjAQFvhxkCfXo/BjewFQXwevkD8eI/BMEa+QL3BrD+MIKrBqLzMQD0P
o0BIc4fBmiq1QFHFNUCtHKbBKjuzQDlscUBUzIjB2OyrQEKuWEBvFpTBlpiHQMh6QUA2FqPBPZo4
QFjnY0DKAJTBOqXyQGieTUCEDJrBfIP6QIc3nECtyIjBtOrhQEQ4z0DbwMTBOM0MQVgUokD+GrzB
hXiVQCyMxkD9rr/BYpACQSJEWUC2Uq7B2aKAQAN5kUDX3bHBc0rFQLdSKcBH6anB4AmzQEz71r9J
sJ7BpCIAQRdDp79OsaHBXfP1QCStUb/JR6/BGkepQC8Ubb9JYrbBLBt/QFi0w7+Vwa3BNubqQLd4
8UBP7pfBkuvrQMya90AVpYnBjZ3XQGdFGj+n+prBasX/QAwdlj/JMaTBjgx7QDz9cz/Eyq/BeyeH
QKnA5z7HM6LBPOmlQFmN2kBgLYzBSr+2QD+UuUCBK5fBar0JQUelsUAxepfBmngUQdl7y0DX0IvB
gwjKQB4Rtj+xZrLBdcPGQO7/rkCinX7BSSrFQPzAPUBr2ITBPe+TQAMZeUDn4oTB4R1eQLQPO0Cl
KKjBdm4CQN+EX0BQOpjB+mQ2QO/NckBTOozBZKTXQBh6uEDp5r7Bm//1QMt9rUC1F7fBcVqvQBJX
pEAi9L7Bp/rrQNTMjkC/SK/BgumkQJoFhkAPCLfBYJfCQBhud0CT267Bic3LQMjOS0BEh5vBOIeD
QH71VUCd+pjByOK9QBZU0L8xvKbB2yPoQHJYWL/wtabBr/WcQA8yb78FBq7B/n4QQSjQikAnP3vB
iwvhQGleGj97FqPBDp2UQM2BAj/HTarBGPoAQbJGWkDiAIPBQoUBQeBZp0AMIW7Bro2+QJRlrT+L
9KnBMxzdQNVEjED1x4XBZNC1QDKeNkC+DKbB7VOyQLxUakB2eYjBjderQHwWXkDyJJTBUyOIQHT9
RECSN6PBsjc4QIicX0A69JPBi3LyQBjJTEBOFJrBKCLZQHrTpUCOaHjBTDDfQNVW0EBB3MTBP4cK
QWemvECNF7fBflaYQN4qrEBDGMXBR/0BQQqEhUBIhKnBJwmGQLYEbUCBMLfBmL/DQGxtKcALsanB
3TOxQD5d1r/viJ7BwLv+QK2nqr8YNaHB7ZT1QIkOWL8E2K7BI0mpQCG+ar/jQ7bBoH59QJDAv7+p
yq3BlacbQTVackAe4XDBcZoZQRiWnUAZg4PBAHzWQKeAGD+DsZrBJI7/QJKjkj/Wu6PBSgh8QGI4
fD924K/BGoiGQPgT+D7BPaLBhusHQa1tPUDBPYrBQjX3QDhZJ0CZG3vBbV8AQXdUm0CKoF3BvI4H
QdlpyEDs8W3Bo+bKQMpktT9QLrLBBaXmQJpCoEDlnozBTWOyQLEvK0BllYTBVbCXQGtpiEB/UoXB
yexfQBAbQkAscqjB3CcCQGOnWUCjK5jBhpk1QC+CbED+H4zB6uPZQIlvt0DJx77B3yb5QOmhnUAq
3bnBmZWuQBD5skAJ6bvBFDLtQNYXf0CQBbLBJ32iQCIIlUBuELTBhsrBQLuEdkBP567BsPnLQF4O
TEDIn5vBQomDQKYSVEA975jB4iu+QK1m0b9WKafBkDjoQCvhVr/6BKfBJRCdQOSicb9eZ67BFF3k
QIFO40CtiobBIqTgQL01Gj/WP6PBz12UQOAa/D75karBG67bQH35u0CSM43Bpv7cQN6h0kCpYXbB
qiy+QCA4rD86IKrBYuy1QLFVp0BSO4fBBEK1QJOoNUDaIqbB7m+zQASubECHw4jBaeGrQOcdVUCE
CZTBtqiHQFSkQUDJIKPB2QI5QGbnYkB/75PBhJfyQGL7UEBK85nBo3O8QE1/sUAi/3fBOiXjQJaj
zkA5wMTBeC4NQT/poED0G7zBB5SWQLaQxkCLvL/BqKUCQbwqV0DcWq7BESmBQOKZkUD88bHBbmzE
QFaJKcCgNqrBU2ixQDua2b/3+Z7BAeX+QNEtqr9djKHB7cP1QIovUr/9I6/ByWKpQObfab+ypLbB
ywB+QIMBwr8sN67BX7YCQQyc7kAFnIfB6PfNQLhL/UDcgojBK9TVQCeNFD9t4JrBW/z+QM/vkz8s
yqPB6HJ7QNt2eD/qHbDBZjaGQPlF6D7YhKLBL8PSQIyXxEDwb5XBfZ33QCyRpkCNW43B0M76QN4s
xUAM4W/BKc3RQPOu7EC882vBIqzKQM1WtT8wVbLBuOqXQMXDtUA6ForBiMzRQBQBUEBTH4bBxw+Z
QHh/U0AG3IPBp1JeQIRUPEBpO6jB+rACQP3NX0DtJZjBDis3QHWscEBUIIzBlZzWQG3os0BMh7/B
pv71QGjco0BjibjBOcerQG/KpkAncb7B7YzqQL8Yh0CRYLDBJDOgQNjgiUCmUrbBOE+/QBSKdECE
CK/BK6DKQMTDRUA4w5vB99+CQKLcWUBYyZjBO4zXQHestb8jTqfBs2jjQDrsCr/J9bDBMCiqQCPn
ir8kcqPB6qqvQJTI30BjP4rB/ELhQB6ccj8bC67BGVWnQAojxz7nOKDB9TKfQJz2uEDQOYTBOe3O
QGhLzECLN5LBsU+0QMwoqz9HqKnBHzHEQEtjmECW+oTBciSyQLTqNUBtHabB/Vi0QPjNV0DNkYjB
PHyrQKKLU0BwGpTByaaFQNpcSUCxBqPBDxY5QGo2akBymJPBbr/wQFY8OkCX65nBa5/jQC1bqkDY
VYzBbWXfQEFNykBmu8XBxHgLQVOmrUC7b7nBXLyTQHvyskCJ2sPBO28BQZdMdUDUFavBPrl+QJ7v
fkA0obXB/fPYQHihHsC5pqnBwmbuQEsQnr/gxqDBEQ8CQdznSb9rjLPBBujMQBidPr8NiLfBb0CT
QOhIpL/U76nBzEeiQPZx279qgJzBxHeVQCV98EDkYY7BowHAQIMr9kCH0oTBlnb5QOW+lD9G46fB
FgjoQG/XxT+yO7XBBUCGQNd/HT9/0p3Bd/S8QFxBET84bZnBKV2YQBsNwUC9qnfBNRaCQIZCrEC1
BIjBadO9QDByv0C0NJnBBnLmQHM85ED/3pTB5/acQP3cmD+jJLDBAKTSQCgnlUCQ/XnBoQ/NQFot
KEAnnYbB+MSWQISZSECUMYTBZL9ZQKjfSUCYFqjBlyoCQF/GaUDks5fBMrI4QFhydkBAvovBbCfW
QOdxq0B/aMDBhN/zQJ7Wp0CkA7jBgQKvQOJSlUCW37/BfJnqQDUZjkBPF6/BOTWlQKNxeEDK3LbB
K6bCQBwucUA4Q67B9DrMQF4bVkAEb5rBVyyDQA71WEDSj5jBrw+2QBOlvr9orq3BTIO5QCf+jr8p
v6HBpQvRQGJnCL+rkbTBWuECQUmKgkCR3mfBBcKrQB39rj6P15/B0RvDQJxXbT9V2bLBxIrWQHtN
fkCraW3BUT4MQclkm0BN3HrBNCvGQNKIqz+P2KbBgWrYQOIvdEAfzoLB9/W3QG/aNUBtvqTBN+yt
QL6uhUCcc4jBO3+qQP3iZUBkXJPBYqaJQLq8PEBFWKLB6cM1QJ1GZkD0IpTB/L3yQIPNVUAClJjB
Wk76QMQAl0APJIbBfl/dQF0xv0DlQ8fBVPIIQfnhuEBmbLjBj3KYQLael0CVZMbB5AUBQdKfikCg
zajBYvqGQE0VV0Bge7bB1KfBQO8pIcCS0q7B/mGUQKlYtr/9L7DBjq+kQKxQ5L9bEZ3BQuDaQIYS
n7+WIJ/BCfHyQOooI78kWbLByO3MQPlsS7/QDb3BFTUFQSwllEC5zljBDTUKQQtLRUB6iWbBUqaJ
QAOf4z7y2qHBIZ2wQGTPFj+NWpfBZvfXQMDjyj/SmLfBqMuhQAFmhT/NibXBPrHHQAJNRkCpwWXB
GAXFQG4/nEC4ymjBBTcOQQRWvUCgonbBCNYbQaDijUC6cX/BGObnQGlwoD9HbaTBwejgQEe6MUDe
yITB5C+TQKFnc0DWkoPBZsSrQDa4qECKGonBwKhkQEPaLUBQf6fB9j8BQBRAWkB4dJjBglgwQIDg
e0DzoozBSOjQQNWHtkCO8b7Bqw3xQCYErUD+crfBIPioQLDzoUAFSb7Bm0zpQIQHj0CKSa/Bv+ig
QONChECPEbbBJ7fAQMK2dUDeVK7Bk5vMQPyBTkCoEJvBpNeDQDczV0DaJpnBOym5QOqXy79a6KnB
stbZQN8ke79QMaLBxqizQEOVMb+Tz7PBzxfqQKAV0EBvp3jBhUbLQCqq0z52uJ7BVu+lQFoCOj8J
obDB2jfRQDWspkDWQ3bBZZTdQPtC4ECGk4fBFiHGQCKIrj/onajBKYnQQHiql0CPkobBQoK3QKgA
NEBEaKXBVQewQJomaEAKbIjB+yerQJEeWkDb6JPBgmeJQMkPNkCwqKLByY05QG/6cEAl9pTBaRjz
QGVDTECBIJnBgdnGQFaOvUAJt4zBWN3WQJ6czUALM8XBgeAHQVbBvEBw9bfB/WiQQNv2qEAYG8TB
mTgBQag/h0ALsKnBajSCQAX5aEDCprXBYFzEQOlbJcCnc6zBWS6aQL5L2L9LzqXBztPcQGAW0L/4
GZvBYg35QGnKZ78XN6bBdkTSQN4wJL/wIrjBhBObQHWnkL+ODbnB7KvgQKNK50ClSWzBmF4GQWwz
ykD2pHfBVlasQDZ5qT5Pk5rBEzfjQGC2Vj9FPZnB0FekQKIGrT/V27fB/SSGQF+bLj8a3qzBnePh
QEfRj0CsymvB3bywQKlYrEBpGnDBrs/IQGaQ/EAK7obBRWv6QI+D6EBKLozBC2jlQGqCuD8Em6zB
NIPwQKm5i0DruIjB2U67QLfnLEBkmITB2geRQLO9ekDE9YTBqrtjQAYVIUDlZqfBjjAEQHa+akD9
TpnBIqI2QDbkhECImI3BTnPVQOhYrECrL8DBwaP1QCneoUD9xLjBmUysQK6ymkByF7/B8H3sQLyw
hkAgFrDBPh+jQKxCfkA+f7bBfrjCQHSra0DRpa7BojfMQOh1VUDzmprBtmKDQGjRWECSgJjBGd+8
QIHxtr+0Oa/BhOOiQGPzi792KaXBqz/mQFQDGb+FmK/BTfinQAJr7UCkAZHB9u6XQNzPzD5i7KTB
dRDcQBTvZz+Ncq/BwPWTQLFVykC3RorBfz7OQDzw1kCOB5bBARnBQG8doz/kfKXBw1y6QNnMrUD1
F4fBEQu3QA7hNEDvvKTBt+KwQMjuekAvN4jBcRCrQOauYEDOZpPBT0uJQNbaREBKiKLBxng2QEhy
YkBG7JPBRXvyQAwWVEAfaJjBeWLeQFIbu0Cqt43BaFbcQO3rwUBwtsbBC74KQWK4rkCyvbnBJrWT
QKJQokAZ28TBHr0CQe4wfUB8eKrB476DQNu+YUBQ2rXB6R7FQGDoH8DSI6/BdoGpQFd6mr/0WrbB
qReFQOXp1r/jLaXBcM61QI6HrL+SBp7BGhj6QL6WWL/CmqjBE+L3QNKqVr/P9rbBBJWRQDnZ+ECn
KpfBlDeyQBBABEG5AIzBx1qDQA1OIz/1zavBZMCGQB5eID+odZ3B0zT6QE6ivD/oRq/Bpf/JQFVJ
lT8StbbBqViEQITL10CqJIPBXNl4QHcMuEBR9Y7BQUnEQEs3xECoDZ3Bv77mQFJU7kAabJjBHHnU
QPr6gj+5a57BJO7BQLdEtEBFTn3Bkc/LQB+9VkAAzYTBZ3uTQPkLbED6v4PBB/hjQHfnQEC2/afB
AeMBQGEDWkAGXJjBbywxQPnRcUB7L4zBpU3VQO6itUCIDL/Bs5aqQDinqUCYJL3B4mD2QMrmo0A+
17jB8s2gQJBcjEAl87TBVcvsQIZQhkDetLDButPBQAx+dUDkga7B/q7MQHIYUEBSKZvBQzeEQO8T
UkCV+pjBTMCzQM6Xxr+XmKnBtT/UQEK5fL9Fm6HBRRSyQBzTLL/ntLPBQdznQCh7x0DITYvBh/TH
QPRf4T7kfp7B//6lQEZERT+857DBjAO6QBjJw0DRGo/BNqHjQPhOw0AkM37BAG7FQFa1rz9Si6jB
F1WmQOwCpUDG24bBdpi3QNYyNUDLhqXB3HaxQNSnakAumYjB2sGrQDacUUAAv5PBGJqJQDrdN0Bh
z6LB2Bk6QGdaaUD8oZTBRynzQBxrU0CTQ5nB1Da5QGj8sUD+uHnBsbDcQGZvzEAuRsXBqjyRQOH3
tkDy+sHBy5cLQTcDrUAsUrrBLOZ/QNg2g0A9jbPBqTUDQYiNcECTF6zBrja9QD60JMDl1KvBy+aT
QIRQyb9Y2qXBE7PUQBQrz7+jZprBOTj0QFWOe7/PSaXBYLDRQG2XLr8AlLfB7BKaQJLzir/8PbnB
lbf7QDecrUCBnY7BN671QKqb5kAuh43BGYuoQIMn2T7HhprB/R7gQL1xVj978ZjB5P6mQLrAsD/l
OLjBMWiFQMnWSD/FlK3BN92pQKkO40CJ947BD224QLpUtkASOpfBpl38QDuMrUCSAHjBmSbnQMjm
4kArpHbBYHLlQO+ytT+GLqzBxV2DQNEEqUC9tYbBXAPTQJzkX0CqTIbBXHOcQPgzQ0Doi4PBxNBj
QELXJ0DRzKfBmR4FQAaeZkCEG5nBgaE2QO/cfECgBo3B

>  <OMEGA_E>  (28) 
XkorPxwyKz/6uTM/DHEzP+ZeMz+MKy8/vBkvPzwJLj+k+S0/vCotPw==

>  <OMEGA_NBR>  (28) 
     13253

$$$$
50158048
     RDKit          3D

 56 58  0  0  1  0  0  0  0  0999 V2000
    6.6509   -0.5595  -22.6322 C   0  0  0  0  0  0  0  0  0  0  0  0
    6.4055    0.8095  -22.4070 C   0  0  0  0  0  0  0  0  0  0  0  0
    6.3321   -1.5075  -21.6455 C   0  0  0  0  0  0  0  0  0  0  0  0
    5.4506    0.2764  -20.2414 C   0  0  0  0  0  0  0  0  0  0  0  0
    5.8050    1.2484  -21.1962 C   0  0  0  0  0  0  0  0  0  0  0  0
    5.7434   -1.0758  -20.4408 C   0  0  0  0  0  0  0  0  0  0  0  0
    6.3278    3.0502  -19.5389 C   0  0  0  0  0  0  0  0  0  0  0  0
    4.1090    3.5059  -19.2399 C   0  0  0  0  0  0  0  0  0  0  0  0
    6.0024   -3.0817  -18.9897 C   0  0  0  0  0  0  0  0  0  0  0  0
    6.5671    4.7857  -24.5852 C   0  0  0  0  0  0  0  0  0  0  0  0
    7.4603    5.0942  -23.3727 C   0  0  0  0  0  0  0  0  0  0  0  0
    5.0873    4.7367  -24.1733 C   0  0  0  0  0  0  0  0  0  0  0  0
    7.2997    4.0324  -22.2773 C   0  0  0  0  0  0  0  0  0  0  0  0
    4.8524    3.6524  -23.1189 C   0  0  0  0  0  0  0  0  0  0  0  0
    5.7974    3.8395  -21.8903 C   0  0  0  0  0  0  0  0  0  0  0  0
    5.5592    2.7245  -20.8141 C   0  0  1  0  0  0  0  0  0  0  0  0
    5.6876    4.1550  -17.3691 C   0  0  0  0  0  0  0  0  0  0  0  0
    2.3961   -1.8224  -18.5131 C   0  0  0  0  0  0  0  0  0  0  0  0
    5.3040   -3.9508  -17.9190 C   0  0  0  0  0  0  0  0  0  0  0  0
    3.9712   -3.3327  -17.4053 C   0  0  0  0  0  0  0  0  0  0  0  0
    5.3732    3.4857  -18.6359 N   0  0  0  0  0  0  0  0  0  0  0  0
    4.1558    2.8599  -20.3803 N   0  0  0  0  0  0  0  0  0  0  0  0
    2.9628    4.0887  -18.7216 N   0  0  0  0  0  0  0  0  0  0  0  0
    5.3620   -1.9384  -19.4326 N   0  0  0  0  0  0  0  0  0  0  0  0
    7.5291    2.9149  -19.3325 O   0  0  0  0  0  0  0  0  0  0  0  0
    7.1393   -3.3598  -19.3538 O   0  0  0  0  0  0  0  0  0  0  0  0
    3.0237   -3.1304  -18.4909 O   0  0  0  0  0  0  0  0  0  0  0  0
    7.0858   -0.8814  -23.5669 H   0  0  0  0  0  0  0  0  0  0  0  0
    6.6764    1.5325  -23.1621 H   0  0  0  0  0  0  0  0  0  0  0  0
    6.5360   -2.5554  -21.8089 H   0  0  0  0  0  0  0  0  0  0  0  0
    4.9430    0.5812  -19.3381 H   0  0  0  0  0  0  0  0  0  0  0  0
    6.7047    5.5704  -25.3437 H   0  0  0  0  0  0  0  0  0  0  0  0
    6.8563    3.8122  -25.0080 H   0  0  0  0  0  0  0  0  0  0  0  0
    8.5108    5.1171  -23.6982 H   0  0  0  0  0  0  0  0  0  0  0  0
    7.1818    6.0764  -22.9632 H   0  0  0  0  0  0  0  0  0  0  0  0
    4.7961    5.7128  -23.7580 H   0  0  0  0  0  0  0  0  0  0  0  0
    4.4734    4.5173  -25.0593 H   0  0  0  0  0  0  0  0  0  0  0  0
    7.7012    3.0761  -22.6435 H   0  0  0  0  0  0  0  0  0  0  0  0
    7.8616    4.3489  -21.3862 H   0  0  0  0  0  0  0  0  0  0  0  0
    3.8078    3.7044  -22.7783 H   0  0  0  0  0  0  0  0  0  0  0  0
    5.0424    2.6672  -23.5699 H   0  0  0  0  0  0  0  0  0  0  0  0
    5.4878    4.7823  -21.4158 H   0  0  0  0  0  0  0  0  0  0  0  0
    4.7541    4.3969  -16.8401 H   0  0  0  0  0  0  0  0  0  0  0  0
    6.3006    3.4884  -16.7447 H   0  0  0  0  0  0  0  0  0  0  0  0
    6.2444    5.0816  -17.5725 H   0  0  0  0  0  0  0  0  0  0  0  0
    1.7005   -1.7633  -19.3632 H   0  0  0  0  0  0  0  0  0  0  0  0
    1.8431   -1.6652  -17.5753 H   0  0  0  0  0  0  0  0  0  0  0  0
    3.1691   -1.0467  -18.6174 H   0  0  0  0  0  0  0  0  0  0  0  0
    5.0873   -4.9370  -18.3553 H   0  0  0  0  0  0  0  0  0  0  0  0
    5.9868   -4.0698  -17.0648 H   0  0  0  0  0  0  0  0  0  0  0  0
    3.5251   -4.0113  -16.6634 H   0  0  0  0  0  0  0  0  0  0  0  0
    4.1857   -2.3628  -16.9328 H   0  0  0  0  0  0  0  0  0  0  0  0
    3.3619    2.5124  -20.8792 H   0  0  0  0  0  0  0  0  0  0  0  0
    2.1007    4.0304  -19.2250 H   0  0  0  0  0  0  0  0  0  0  0  0
    2.9981    4.5673  -17.8443 H   0  0  0  0  0  0  0  0  0  0  0  0
    4.5114   -1.7063  -18.9608 H   0  0  0  0  0  0  0  0  0  0  0  0
  1  2  2  0
  1  3  1  0
  2  5  1  0
  3  6  2  0
  4  5  2  0
  4  6  1  0
  5 16  1  0
  6 24  1  0
  7 16  1  0
  7 21  1  0
  7 25  2  0
  8 21  1  0
  8 22  2  0
  8 23  1  0
  9 19  1  0
  9 24  1  0
  9 26  2  0
 10 11  1  0
 10 12  1  0
 11 13  1  0
 12 14  1  0
 13 15  1  0
 14 15  1  0
 16 15  1  6
 16 22  1  0
 17 21  1  0
 18 27  1  0
 19 20  1  0
 20 27  1  0
  1 28  1  0
  2 29  1  0
  3 30  1  0
  4 31  1  0
 10 32  1  0
 10 33  1  0
 11 34  1  0
 11 35  1  0
 12 36  1  0
 12 37  1  0
 13 38  1  0
 13 39  1  0
 14 40  1  0
 14 41  1  0
 15 42  1  0
 17 43  1  0
 17 44  1  0
 17 45  1  0
 18 46  1  0
 18 47  1  0
 18 48  1  0
 19 49  1  0
 19 50  1  0
 20 51  1  0
 20 52  1  0
 22 53  1  0
 23 54  1  0
 23 55  1  0
 24 56  1  0
M  CHG  1  22   1
M  END
>  <OMEGA_C>  (29) 
NdTUQKw5D7+zDrXBdfnMQMg8Tz97QbPBcaDKQKL0wL8DKq3BEGuuQDyHjT5l7qHBV8K5QKrKnz/F
kanBP8q3QESzib/QhqPBKH3KQDY2Q0CpT5zBBH2DQOJgYEBP65nBXBPAQMA6RcD16pfBWSXSQDok
mUByrsTB5bruQJgDo0A/+7rBWcuiQFyTl0DxYsHBB5fpQMYJgUD+N7LBIkebQIDAaUBx87jB/YO5
QAy6dUBPH6/B9OSxQNpdLkAxg6bBIwG2QHX1hEAA9IrB9FkZQJBE6b/jGpTBO7qpQMTZfMAHWo/B
wyd+QMhKVcAmPovBXfGrQBwVX0BlFpXBY/yEQLsIN0DDCqPByJ49QKDWgkC/xZXBQJWrQOQd+L/4
dZvBre7wQCWNOkDnqJrBV3XkQPYGV8B81JrBr4NBQDpYSMBe7ZPB8r7iQG6gYb/ziLzB76TVQJMq
xD/+S7nBMSfRQFCLI8CQeK7BGC2eQO3GFD97tJrB2ozWQGJAskDbv8rBjGbbQJ/7c0BgEMjBRiwI
QVS/o0DTlb3Bd9HlQOVxwkCUtLfBZ3mZQDbPtkBhEL7BIiaPQMGNkEBsecjBLHD2QAHeRED6JbXB
iZL7QPopi0D+FqvBprJzQIYVbUD1ObbBOVuhQBu0KkAqj7zBu5uvQOIImUB8U6vBTSGYQHuzjEB9
uIbB1p7JQO9BX0An9YXBS9LHQGacokB6lIzBMKnZP62z4b/M55rBy+rrP4Il1b9GmozBE9JKQH/7
hb9+8JTB/8qiQPn7ncC015LBu5O/QMk7gsCrhIjBnZphQIJcgMCmToXBkfGFQOU3F8B6dofBJSlX
QITLIECXCKfBjHIGQCb5gEC/zJnBl+E/QLUnkkALwY7BQ12QQEpo2r+kr5fB24vRQI4RU7/5/7PB
F6fNQEj9Dz/lkLLBL8TAQJC72r8HXqzBbt+oQDmOPz45pKHBpHm5QKfkiz86SanBSG6rQLhKmr8w
PKPBNMXLQO0SPUCwn5zB322EQKZ9XkBwL5vBDEuLQMQ8VsAfiZzBPjvDQHbhuUA437/BI8u0QNze
jEBYaMPB0/vkQD8+t0A267bBMUakQIqCZUAB1bnBmZDTQIsinkAkQa3BA2nGQBZ6YECFsLDBvX+1
QKYmJ0CWIqfBJQK0QIgXgUADT4vB1TDqQI17lsAGrYjBt7h1QPwCgsBYfJLB9/WeQEcuhcBsIIrB
N/SsQPOoZUC+ZJbBjDaIQIGmO0A/t6TBIHo7QM91eEATvpbBqKCZQCgHAsDgYJvBj8PxQENNM0Dw
fJrBAkyIQJv0ecBJP6XBVy/DQKdim8AjsI7BhYXhQOsjm7+PAbvBuBvaQL76nT9zkrjBLyPEQIKY
McCVdq3BP/+ZQEvJET/Ld5rBahTRQGK5ykC1x8bBz0qnQP66y0Bt6rzBOwSbQDP/j0BbWcnBqh3Q
QCUWeEBmBsfBjNQAQab8pkBUAbrBN3ntQFLS10CBWbTBGyiHQLwIgkAosbbBTqycQC1EJECCibzB
dYTsQDMknEBOEafBzHS3QMrdrkAgAarB8/PiQHDOQEDD+7PBi6eWQPYbkEBPOojBxVC8QAPDSkCc
S4bBs1bOQN9wmEA9HovB9gwCQag8qMDxpYzBg7HyQN28aMA5PojBZJLlQPQWo8CMioDBfdw/QFO6
X8AaF4/BChZgQHtiosDoopTBMMWoQESdScBnsYfBpVeTQPnflsB5GIPBun5fQE11MEDOranB4hEF
QMQIcUAM2prBV0E6QBdHiUB1cI/B8NOWQLYj0b9xEpTB

>  <OMEGA_E>  (29) 
nOf3PhIJMT8=

>  <OMEGA_NBR>  (29) 
     64584

$$$$
50158051
     RDKit          3D

 53 56  0  0  1  0  0  0  0  0999 V2000
    6.0611   -0.7726  -22.4176 C   0  0  0  0  0  0  0  0  0  0  0  0
    7.2270   -4.9550  -15.7306 C   0  0  0  0  0  0  0  0  0  0  0  0
    5.8093    0.6026  -22.2480 C   0  0  0  0  0  0  0  0  0  0  0  0
    6.3425   -1.5821  -21.3010 C   0  0  0  0  0  0  0  0  0  0  0  0
    7.1134   -4.7150  -17.1633 C   0  0  0  0  0  0  0  0  0  0  0  0
    6.0648    0.3496  -19.8418 C   0  0  0  0  0  0  0  0  0  0  0  0
    7.7082   -3.7971  -15.1733 C   0  0  0  0  0  0  0  0  0  0  0  0
    5.8875    1.1978  -20.9589 C   0  0  0  0  0  0  0  0  0  0  0  0
    6.3267   -1.0171  -20.0067 C   0  0  0  0  0  0  0  0  0  0  0  0
    7.5198   -3.4219  -17.3743 C   0  0  0  0  0  0  0  0  0  0  0  0
    6.3881    3.1770  -19.4515 C   0  0  0  0  0  0  0  0  0  0  0  0
    4.1351    3.4890  -19.1871 C   0  0  0  0  0  0  0  0  0  0  0  0
    7.5196   -2.7115  -18.6504 C   0  0  0  0  0  0  0  0  0  0  0  0
    6.3463    6.1334  -23.5547 C   0  0  0  0  0  0  0  0  0  0  0  0
    5.2422    5.1111  -23.8841 C   0  0  0  0  0  0  0  0  0  0  0  0
    7.5800    5.4327  -22.9620 C   0  0  0  0  0  0  0  0  0  0  0  0
    4.8505    4.3020  -22.6364 C   0  0  0  0  0  0  0  0  0  0  0  0
    7.2037    4.6395  -21.7023 C   0  0  0  0  0  0  0  0  0  0  0  0
    6.0858    3.5952  -21.9998 C   0  0  0  0  0  0  0  0  0  0  0  0
    5.6697    2.7098  -20.7297 C   0  0  1  0  0  0  0  0  0  0  0  0
    5.6465    4.2155  -17.2775 C   0  0  0  0  0  0  0  0  0  0  0  0
    5.4083    3.7462  -18.6531 N   0  0  0  0  0  0  0  0  0  0  0  0
    4.2470    2.8905  -20.3547 N   0  0  0  0  0  0  0  0  0  0  0  0
    2.9227    3.8146  -18.5888 N   0  0  0  0  0  0  0  0  0  0  0  0
    6.5113   -1.7783  -18.8556 N   0  0  0  0  0  0  0  0  0  0  0  0
    7.5768    3.0547  -19.1700 O   0  0  0  0  0  0  0  0  0  0  0  0
    8.4330   -2.8882  -19.4501 O   0  0  0  0  0  0  0  0  0  0  0  0
    7.8737   -2.8774  -16.1715 O   0  0  0  0  0  0  0  0  0  0  0  0
    6.0382   -1.2069  -23.4061 H   0  0  0  0  0  0  0  0  0  0  0  0
    6.9803   -5.8676  -15.2083 H   0  0  0  0  0  0  0  0  0  0  0  0
    5.5548    1.2101  -23.1039 H   0  0  0  0  0  0  0  0  0  0  0  0
    6.5692   -2.6297  -21.4333 H   0  0  0  0  0  0  0  0  0  0  0  0
    6.7758   -5.4168  -17.9115 H   0  0  0  0  0  0  0  0  0  0  0  0
    5.9973    0.7614  -18.8457 H   0  0  0  0  0  0  0  0  0  0  0  0
    7.9199   -3.6392  -14.1261 H   0  0  0  0  0  0  0  0  0  0  0  0
    6.6378    6.6588  -24.4761 H   0  0  0  0  0  0  0  0  0  0  0  0
    5.9590    6.8600  -22.8252 H   0  0  0  0  0  0  0  0  0  0  0  0
    4.3569    5.6459  -24.2586 H   0  0  0  0  0  0  0  0  0  0  0  0
    5.6094    4.4221  -24.6590 H   0  0  0  0  0  0  0  0  0  0  0  0
    7.9978    4.7435  -23.7107 H   0  0  0  0  0  0  0  0  0  0  0  0
    8.3336    6.1898  -22.6997 H   0  0  0  0  0  0  0  0  0  0  0  0
    4.4068    4.9823  -21.8945 H   0  0  0  0  0  0  0  0  0  0  0  0
    4.1113    3.5395  -22.9229 H   0  0  0  0  0  0  0  0  0  0  0  0
    8.0954    4.1131  -21.3313 H   0  0  0  0  0  0  0  0  0  0  0  0
    6.8443    5.3390  -20.9332 H   0  0  0  0  0  0  0  0  0  0  0  0
    6.4844    2.8990  -22.7524 H   0  0  0  0  0  0  0  0  0  0  0  0
    4.7134    4.6240  -16.8622 H   0  0  0  0  0  0  0  0  0  0  0  0
    5.9863    3.3734  -16.6566 H   0  0  0  0  0  0  0  0  0  0  0  0
    6.4180    4.9994  -17.2861 H   0  0  0  0  0  0  0  0  0  0  0  0
    3.4731    2.5961  -20.9153 H   0  0  0  0  0  0  0  0  0  0  0  0
    2.0628    3.5936  -19.0489 H   0  0  0  0  0  0  0  0  0  0  0  0
    2.9108    4.2698  -17.6985 H   0  0  0  0  0  0  0  0  0  0  0  0
    5.8596   -1.6408  -18.1096 H   0  0  0  0  0  0  0  0  0  0  0  0
  1  3  2  0
  1  4  1  0
  2  5  1  0
  2  7  2  0
  3  8  1  0
  4  9  2  0
  5 10  2  0
  6  8  2  0
  6  9  1  0
  7 28  1  0
  8 20  1  0
  9 25  1  0
 10 13  1  0
 10 28  1  0
 11 20  1  0
 11 22  1  0
 11 26  2  0
 12 22  1  0
 12 23  2  0
 12 24  1  0
 13 25  1  0
 13 27  2  0
 14 15  1  0
 14 16  1  0
 15 17  1  0
 16 18  1  0
 17 19  1  0
 18 19  1  0
 20 19  1  6
 20 23  1  0
 21 22  1  0
  1 29  1  0
  2 30  1  0
  3 31  1  0
  4 32  1  0
  5 33  1  0
  6 34  1  0
  7 35  1  0
 14 36  1  0
 14 37  1  0
 15 38  1  0
 15 39  1  0
 16 40  1  0
 16 41  1  0
 17 42  1  0
 17 43  1  0
 18 44  1  0
 18 45  1  0
 19 46  1  0
 21 47  1  0
 21 48  1  0
 21 49  1  0
 23 50  1  0
 24 51  1  0
 24 52  1  0
 25 53  1  0
M  CHG  1  23   1
M  END
>  <OMEGA_C>  (30) 
WfTBQIXLRb8lV7PB60PnQEePnsBYsHvB0+W5QCFHGj/o+7HBevXKQFyDyr+FaKrBJqHjQGXhlsBt
TonBwxLCQAD5sj4EvJ7B16n2QCEDc8DmxXLBmma8QG1QmT+9q6fBenTKQBYvgr/SDaDBjqLwQO7/
WsCi/orBpWvMQEtTS0CjnJvBD1OEQCZLX0Amf5nBTKDwQJiILcAeNJXBghTLQOJExEAScLzB/r+n
QCeOo0ClEr/Bb4/yQFzYrUA0srfBZTebQP6piUBaF7XBT4TmQN92lEBknq3B577CQCUYZkCg/6/B
fG61QNZtLUB/1qXBCLC0QAblhkBUOIrBCRGtQM3Bb0CBOZXBx+eHQDL9OEBp1qLBTQ07QMYidEDY
tZTBbVzQQNmd47802JbBGXXyQBOAQ0AnXJnBnu0GQX7YOMDWmZvBuPX7QDEnOMBVX4HB3DjBQGx8
mr+9P7vBhl7fQBHDu8BJVXPB4MCxQBbmmj/M1LjB5zbSQMBNKMBzd6vBcdPYQKRWrcDYSo/BnOm/
QEnpQj/4w5bBxW/9QKPoaMB4BGLBAGnUQK0U1UAaz8PBILC+QPCE20AcmrbBjmuLQNiqtECtEcLB
aYCzQBKCjUCdRcXB/e3/QAbLl0CLr73BXlYFQTQTxkAJmbXB1QSNQM9un0D9J6/Bvo+DQJKGYkAo
YrfByYYBQZyeg0B9pqrBGgTbQCPZqkA+d6fBQIDPQMmJOUD+BLbBX9SWQML3k0DB5YbBf4+/QK3l
V0DJQIXBnmDNQGf7n0DoSYrBtkZeQAQnJkChUqfBdgQEQPD9ZUApZJjBHUo6QCCiiEB1lo3B14G7
QHkG0r+G4JDBJhyhQBHTb7/xwq7B9XVCQQlde8D+4ZjBojacQBXz4j56C63BKxrGQNG3zL9NNavB
W2owQVs8gsBpLaDBvETiQN4TAz+8iaTBLhg+QZNKNsDLeJLBcjy8QJ8Mlz+2mqfBQjXnQMyRX7/0
FabBREoiQbIwRMBQrZ3B7VvMQIGeSkC3PZvBcy+EQA6HXkDRUZnBUugNQZeUMMDY6qLBOdzMQHwg
wkB3a7zBnkioQKGqokCu577BtRD0QEfxqUClGbjBscObQIEYiUDT27TBI4joQMUpkEDrCq7BsLLC
QKDgYEDLAbDBu921QEYALEABj6XBheazQOUVh0By/4nBIausQL2qbkBa85TBAC+IQPwYOUCJrKLB
XlE6QLtec0DFqpTB+5gGQVeWuL+sMaLBZp/yQPPTSkBhBpnBAAIEQY41asAEW6fBgtAqQX4HFcBP
f5XBtk+IQPTRvr8j1bLBiI1QQZKlkcAblZjBXKh/QPQucj/Q5K/B1FHJQLOIKsARYqzB+IUuQX4s
msBCVqbBivr7QBDRiT828aDBgytIQdFUHsCjH4zBHNDVQKsv00DhyMPB9fjBQB9R2UCHYrbB/EqM
QM28tECSvsHBB8qyQHRRjEAULcXBsdr/QPnqk0DDTL7BcaQGQbklwUBvF7bBYziPQNJfn0Bpz67B
nsSCQFe8Y0DsBLfBm2QCQayJe0BQg6vBdFzfQLaUpkA+qKfB/mTNQGUpMkDVBbbB5smVQJPYk0A+
vobBFyi/QOk1WUDA7YTB/SvMQMmSoEAVI4rBnBdfQHmTJ0APSafB27IDQAXbZUCxepjB+MY4QMLw
h0DggY3B7VQQQbDVT7/MVZ7BYv6vQP51Ub9hkrLB2mEoQQ7qicCXbofB1WGpQIlsDj9SorDBWSPJ
QI6Myr/oe6vBhEQmQT3BecBQl5LBNYfSQB5QwT6SKqDBP5QXQUnTb8Bi/4HB19O7QDUulz8vjKfB
sljaQKiyeb+pQKLBDD8UQR+yR8C8KJPB3DzMQF+oS0CLY5vBfA6EQLTCXkDiV5nBQpEKQbmjHsCg
i5zB1WLNQBSowkCITLzBt0WoQBrCo0A2vb7BVVv0QK/sqUBfDbjBBaWbQF0yikCRsrTBY6ToQN5E
kEBbAK7BMmPCQJ8FYkAZ+a/Bkla1QOkfLEDHkqXB2Si0QAejhkBBAorBiq2sQMEBb0B5AZXB48uH
QA75N0AxpKLBr2M6QEyEdEBOqpTBjU7xQHFB2L+hoprBZZTyQKfGSEASQJnBlsoSQdj+JMCubaXB
/qMLQa3mQcDzGonBM8KhQNyQpL/8f7nB98s0QR/nncDVF4TBGyWWQEOHkT88G7bBjDDPQPcRKMBw
HK3Bq8swQQRChcA5HZnBlAHeQBKdUD9RzpjBFVsUQUKmdsC6GnPBQGTWQH2h00APrMPB2fzCQJX2
2UD+PLbB6neMQEZItkCLgsHB40OyQDRbjUDsDMXB6bX/QGvJk0AGR77B3fcGQUvDwEDbELbBlZWP
QDmHoECUma7B2UaCQF6uZkDJ1bbBt1gCQX4Ke0AxfqvBy8rfQEPBpkBHmqfBiLLMQDecM0A4EbbB
xiCWQIs7k0A1q4bB7oG/QLG8V0BWDIXB/nHMQGsdoECMF4rB3DVeQF34JEBQJKfBX4EDQCWxZkBc
ZpjBUlw5QAz/iEC9kI3ByxnnQOOo0L9lEZPBhvOvQCZQUb/8i7LBeigeQaobf8AufYPBpXupQIvL
Dj+Do7DB49vIQKihyr9HaqvBNcgOQam5SsBzS4nBImLSQAh1wT6SHqDBSQ8tQbzrjMDT0IrBHdy7
QGFUlz8Si6fBXgraQCs9er/fKaLB/FgVQcV9ScD6y5PBykHMQF3MS0BxaZvBRBGEQKPJXkCDXZnB
HaAKQRNYHsBsw5zBV1nNQP3TwkCPTLzBrj+oQCLso0Dqvr7BclX0QF4YqkC+D7jBgKWbQHVMikAP
trTBiaPoQCtikECFBK7BjWfCQBUyYkBf/q/B5F+1QHc+LEC/l6XBwCa0QIaWhkCDBYrB1a6sQA8L
b0BBBpXBr9OHQH4SOECrqqLBFmM6QB91dEAGsJTBGGTxQBfb2L+vl5rBPZnyQIXiSEAmRpnBe1sS
QaQsI8DyxKXB5KYnQWYLecAol5TB7cqhQMh8pL8jfLnBnuEdQUkBh8BLG3bB/miWQKzZkT/CI7bB
acXOQIAxKMCABa3BA+sAQeoBK8Ah/4XBIdfdQKMQUT89w5jBgLs6QeX5oMBYJonBDFfWQPXW00D+
qsPB3fHCQEQa2kA0O7bBXG6MQDtytkARgsHBsj6yQCaPjUC9EMXB0LH/QF7+k0A/S77BnvMGQcbv
wEC1EbbBcZSPQOCXoEAdm67BnEmCQHLiZkDt2rbBZFoCQQ1Le0Dog6vBjcbfQPzVpkDbnKfBQbjM
QNLSM0COF7bB8xyWQPomk0CJrYbBVIG/QMGVV0AqEoXBom3MQDYToED4F4rBxUpeQP8aJUBOLKfB
S4UDQOCeZkDwbJjBk1I5QBXxiECnlY3BFZnnQLx00r+j/JLB

>  <OMEGA_E>  (30) 
DJ5cP6ZkWD8ip1g/VLtYPw==

>  <OMEGA_NBR>  (30) 
     18324

$$$$
50158056
     RDKit          3D

 52 55  0  0  1  0  0  0  0  0999 V2000
    6.8423    5.7403  -23.8228 C   0  0  0  0  0  0  0  0  0  0  0  0
    9.2551    5.8481  -16.4262 C   0  0  0  0  0  0  0  0  0  0  0  0
    7.8090    4.9176  -23.2144 C   0  0  0  0  0  0  0  0  0  0  0  0
    5.4866    5.6115  -23.4685 C   0  0  0  0  0  0  0  0  0  0  0  0
    9.2337    4.4456  -16.2891 C   0  0  0  0  0  0  0  0  0  0  0  0
    8.0672    6.5469  -16.7264 C   0  0  0  0  0  0  0  0  0  0  0  0
    7.4224    3.9712  -22.2460 C   0  0  0  0  0  0  0  0  0  0  0  0
    5.0961    4.6722  -22.4960 C   0  0  0  0  0  0  0  0  0  0  0  0
    8.0226    3.7433  -16.4407 C   0  0  0  0  0  0  0  0  0  0  0  0
    6.8584    5.8427  -16.9045 C   0  0  0  0  0  0  0  0  0  0  0  0
    6.0636    3.8497  -21.8578 C   0  0  0  0  0  0  0  0  0  0  0  0
    6.8316    4.4383  -16.7566 C   0  0  0  0  0  0  0  0  0  0  0  0
    6.3718    3.2031  -19.4535 C   0  0  0  0  0  0  0  0  0  0  0  0
    4.1040    3.3306  -19.1175 C   0  0  0  0  0  0  0  0  0  0  0  0
    5.9230   -1.6363  -20.8754 C   0  0  0  0  0  0  0  0  0  0  0  0
    7.2403   -0.8460  -20.8477 C   0  0  0  0  0  0  0  0  0  0  0  0
    4.8987   -0.9402  -21.7893 C   0  0  0  0  0  0  0  0  0  0  0  0
    7.0073    0.5985  -20.3819 C   0  0  0  0  0  0  0  0  0  0  0  0
    4.6300    0.4978  -21.3137 C   0  0  0  0  0  0  0  0  0  0  0  0
    5.9394    1.3453  -21.2503 C   0  0  0  0  0  0  0  0  0  0  0  0
    5.6607    2.8419  -20.7601 C   0  0  2  0  0  0  0  0  0  0  0  0
    5.5631    3.6589  -17.0615 C   0  0  0  0  0  0  0  0  0  0  0  0
    5.3662    3.4585  -18.5196 N   0  0  0  0  0  0  0  0  0  0  0  0
    4.2369    3.0345  -20.3894 N   0  0  0  0  0  0  0  0  0  0  0  0
    2.8757    3.5025  -18.4897 N   0  0  0  0  0  0  0  0  0  0  0  0
    7.5849    3.2690  -19.2841 O   0  0  0  0  0  0  0  0  0  0  0  0
    7.1409    6.4698  -24.5611 H   0  0  0  0  0  0  0  0  0  0  0  0
   10.1820    6.3882  -16.3013 H   0  0  0  0  0  0  0  0  0  0  0  0
    8.8488    5.0125  -23.4907 H   0  0  0  0  0  0  0  0  0  0  0  0
    4.7439    6.2351  -23.9439 H   0  0  0  0  0  0  0  0  0  0  0  0
   10.1451    3.9101  -16.0679 H   0  0  0  0  0  0  0  0  0  0  0  0
    8.0834    7.6227  -16.8199 H   0  0  0  0  0  0  0  0  0  0  0  0
    8.1671    3.3321  -21.7950 H   0  0  0  0  0  0  0  0  0  0  0  0
    4.0531    4.5755  -22.2328 H   0  0  0  0  0  0  0  0  0  0  0  0
    8.0030    2.6707  -16.3155 H   0  0  0  0  0  0  0  0  0  0  0  0
    5.9536    6.3771  -17.1539 H   0  0  0  0  0  0  0  0  0  0  0  0
    6.1168   -2.6505  -21.2547 H   0  0  0  0  0  0  0  0  0  0  0  0
    5.5157   -1.6979  -19.8554 H   0  0  0  0  0  0  0  0  0  0  0  0
    7.9403   -1.3381  -20.1564 H   0  0  0  0  0  0  0  0  0  0  0  0
    7.6726   -0.8322  -21.8591 H   0  0  0  0  0  0  0  0  0  0  0  0
    5.2919   -0.9128  -22.8162 H   0  0  0  0  0  0  0  0  0  0  0  0
    3.9564   -1.5075  -21.7725 H   0  0  0  0  0  0  0  0  0  0  0  0
    6.6626    0.5809  -19.3374 H   0  0  0  0  0  0  0  0  0  0  0  0
    7.9588    1.1470  -20.4447 H   0  0  0  0  0  0  0  0  0  0  0  0
    3.9293    0.9781  -22.0125 H   0  0  0  0  0  0  0  0  0  0  0  0
    4.1807    0.4622  -20.3103 H   0  0  0  0  0  0  0  0  0  0  0  0
    6.3376    1.4118  -22.2735 H   0  0  0  0  0  0  0  0  0  0  0  0
    5.6257    2.6750  -16.5737 H   0  0  0  0  0  0  0  0  0  0  0  0
    4.7016    4.2129  -16.6604 H   0  0  0  0  0  0  0  0  0  0  0  0
    3.4731    2.9493  -21.0292 H   0  0  0  0  0  0  0  0  0  0  0  0
    2.0288    3.4011  -19.0116 H   0  0  0  0  0  0  0  0  0  0  0  0
    2.8391    3.7277  -17.5160 H   0  0  0  0  0  0  0  0  0  0  0  0
  1  3  2  0
  1  4  1  0
  2  5  2  0
  2  6  1  0
  3  7  1  0
  4  8  2  0
  5  9  1  0
  6 10  2  0
  7 11  2  0
  8 11  1  0
  9 12  2  0
 10 12  1  0
 11 21  1  0
 12 22  1  0
 13 21  1  0
 13 23  1  0
 13 26  2  0
 14 23  1  0
 14 24  2  0
 14 25  1  0
 15 16  1  0
 15 17  1  0
 16 18  1  0
 17 19  1  0
 18 20  1  0
 19 20  1  0
 21 20  1  6
 21 24  1  0
 22 23  1  0
  1 27  1  0
  2 28  1  0
  3 29  1  0
  4 30  1  0
  5 31  1  0
  6 32  1  0
  7 33  1  0
  8 34  1  0
  9 35  1  0
 10 36  1  0
 15 37  1  0
 15 38  1  0
 16 39  1  0
 16 40  1  0
 17 41  1  0
 17 42  1  0
 18 43  1  0
 18 44  1  0
 19 45  1  0
 19 46  1  0
 20 47  1  0
 22 48  1  0
 22 49  1  0
 24 50  1  0
 25 51  1  0
 25 52  1  0
M  CHG  1  24   1
M  END
>  <OMEGA_C>  (31) 
+PPaQFWwt0Aglb7B9BQUQUoju0DZaIPBp+P5QC5dnUAUt7nB05GvQLiRs0Bmv7vBGL0TQTdCjkAG
UILBJBMBQW+A0UCiz4XBsITtQGwnfkDp97HBBROjQKyClUDn97PBllwAQYCRb0CfhoPBu3fbQKT3
ukCAPIfBDAnCQD9idkC63K7BVJzaQEIGjkCWDYbBBebLQOv+TEDYoJvB3FODQL8nVUC58JjBRom9
QLdz0b/LAKfBjbDnQHGQWL//x6bBX8KcQLOycL9zUK7B9jvgQB45GT8XDqPBSCmUQH7b/j6LgqrB
TQ++QEMyrD+FAKrBiyS1QIzhNUDIFKbBvQSyQNgrakD/fYjBurerQHZXXUA7KJTBnJSHQOw0QkBu
HaPB8gs4QJcpYEDY6pPBrLfyQOM2UUDjRZrBJoLkQFkIz0AlfcTBRukiQVdszEAcaYLBnZQNQW9m
oEDp7LvBNM6XQBqGx0Acjb/BS1IiQVA+ekAWi4DBg1UBQY7t80Atj4bBl6wCQbJAVUA9XK7BMbOB
QONqkkCz3LHBHgwAQRjtKkAlhoLBgIO+QN8QzEBKO4nBoLzDQHOiKcCTCarB44CwQE5V2b/l157B
uRb+QINFq79AQKHB8YX1QB4LVb9Y367BXFepQFatab+rh7bBTTZ9QBr2wL/9La7B3jPVQLqyFD8X
s5rBT67+QJXPkj/LjqPBZ3l7QFFkej+OGbDBRsiFQGqi7D6Re6LB4s3KQHG2tD8OMLLBagW0QCsz
K0DwloTBmHOWQHjQhkBpSIXBDEheQJvAPEDiO6jBFdgBQOSqWUDOF5jBd7M1QFmTbkDeIIzBEcHV
QAQotUD1n7/BMtnyQGR29UBRAYbBOz70QLUerUAIm7fBdTGuQLqin0AycL/BMEsFQeYjz0CYv4XB
lebFQC4W9ECo+obBeijrQJLSj0AOYK/BhrakQE+8gkCzHbfBNVv1QHd6p0AbXobB2qewQCJjzECf
xIfBA7zCQOUSdkAL0q7B1FHIQMHppUCFY4fBUxfNQK1WUkB/JpvBfReEQMaUVUAK+5jBa9izQGHG
y7+v76jBUGPYQLyxeb+zXaLBJoiqQBNzPL/U6bLBw3bNQAaW7T76B5/B/aSfQCk2Nz9L0K/BzdfD
QMLUrz/w7ajBvuC3QMQLN0DrqaXBVdSxQFkrdkCpj4jBHOKrQPoJYEDx9JPBWMmJQEKNPkCn+6LB
kkU4QD92YEDvR5TBFWrzQPQsUkAhBpnBcavcQHfNy0AT68XBcIkBQeryCUG8dIXBvVcJQbZ3vUD4
w7fBQQiXQH9KpUBzscXBdoMWQZ4w0EDWE4XBbrmzQNW8CEH8HofB2JYBQUEFiUCJZqnB2VCGQFSW
ZEARDbfBXMYDQdEeikCvD4bBiEuOQGRpy0CAqYjB2wy9QHDDJsBVdqvBXd2WQBuL0r+g9aPBIKDd
QJqWyr+TJZvBTrv1QFx/d7/bOafBF+/GQGlGPL+ZHLjBzkaPQDv0lb8uQrfBRxqxQBbb4z420pnB
vLzoQC/HYj+xm5rB+EebQJIgpz/+KLfBC7yBQC/+Nz+JLKvBhPjgQDtYtT+/263BuDzFQPNAREA9
sYTBzVaSQNyseUBIp4TBIgFkQF1zM0DrJqjBcScDQLChVkAukpjBzOkzQD4eckBcnIzBJOf9QErp
90BDWovBAefLQPQjpL/4A7HBV74KQTwJ20DioZHB0ubQQDvZ9UCaQ4vB1q3XQBDG0b/lgabBPGOz
QNrA+b0O0rLB5g0AQZPQu0CHsZfBUEq7QFSq10DZp5HBKevLQKooUb+B053BWMGmQPc2Lj/ZHqrB
nKPSQMsrukB7ApjBvy60QMQmuj66nZ/B13XLQAquWED67ZzBxe6DQKMoYUC3sZjB1cPkQLdZoEBD
q8HBHVbqQELDyEB707rBScm5QHikikAGFL/B2cDoQC10vUCu5K7BdZC2QMR2fkDKIrPBFyq+QLeq
pkC0savBWIa7QCC3mUABYJ/BMRSoQGIooD+jL5bBZhSoQPcCLEDkFpnBtoWNQC+clkAkgJzBJTY3
QGJHSkAu8ZTB5EXvQHk7O0D7i57BtiMHQaPVB0HwmIbB3avVQDAF879nrbfBJP8bQSbY3EBvzJHB
Idu+QJjCBUERRYbBobzpQHu+IsABG6XBRUyqQH5XGz4d3brB1TwJQUWypEAJL5zB+7yYQK341kA6
uJHBuBXVQNKoi78RypXBmrCSQCGNxT/peavBHGzlQAowqUCBL8rB8Q3/QKH1iUCd9r/BP7MEQW6U
10APrLzBuXXQQFJy30CjrbzBFY6fQEOVoEDYKcHBkPC2QOpZWkDJ1sPBBNkBQQAPqEBLCK3Bp8jr
QDoY20AqNarBh2+WQB+sZECMi7HBqLjOQHNvTUAySrHB0PqjQC9rvUBnMK3BoN+HQDT2eD/aa5PB
8kC/QNaQiz9LsI/BU+9wQAh3rkB3Wp3BBn4HQH3rdEBSCpXBtPYsQJcxD0CwJZLBhFYCQd7i8kAa
K4jB6bHQQNpimr/E17DBds0FQbmnxkBiEYfBFRnpQCIfAUFPNJDBh9TVQK6i0L+UKabB5Em8QIaA
nDysErPBt0j3QJm/qUBwBY7BIbnUQGZk5UCUNZfBXkDHQFZpUb/1sZ3BbgCtQNDJUT9IoarB+hzc
QATAuEBBWJbBimmzQNyp1z4w4Z/BaovPQBKAVUAbqZvBOpCHQDuRakAwDZnBLxLCQHMlnECv88HB
XtbsQAGtkUBCd7zBwJGqQFXqv0Dj27vBPtzlQJyGhEAxwrDBd4OiQGraskCpJ7DBpfHMQGIip0DZ
O6rBx8fEQOXSmUASAZ7BTPOjQK4spT/tqJbBPgKpQCDALkBECJnBYq+WQCChm0DhLZvBbn05QJok
WUB785bBG5zyQL4jMkDGFJzBlD8KQcuIBEFl2oLBdmfcQLIM6b8JUbfBCEsQQXzeukDg3YDBxozj
QFsaEkEzAJHBFPPkQDD5JMBnd6TBJ2C4QN8wsD4OQbvBXFn8QDjKh0D+CI3B9kq/QD9g8UAjSp3B
6kLLQFJ3kr8hhZXB+lOcQMzF3j9WXKzBjEDIQBW5pkCnM8rBveytQH2SfkAvFMLBE2r8QOhmbkBk
w8DB4sYAQcgdrkB3t7zB8zW+QJge3UD6ArzBc7KLQEk1xkBkyL/BSoLTQM39TEDTlrDBHKACQbXf
fkBJ/KzBeiSTQFSwzUC886vBOh+NQDfnlkBTCLDBnufgQDIfxEA6F6rBVOmBQAoiij/+L5XBAp+2
QF/bhT8Odo/B212FQNiEtkAg7ZrBpoIOQPtHhEAdAJfB+OEmQFIxHUAmZJXBzQ4aQVnZpEBYlovB
AkXdQHQV2b/Km67BTdQaQb9GgUB2dJLBiewHQaCSv0BDjIvBtPy9QKuggb/Xn7TBikffQHMhw78C
bKPBsGoJQTkrcEB1LpnB69zsQKGBtkBtSZLBBZWgQFHmJL7JdK/BlQDCQCZ9K79iPJ7B0XHtQHIN
kkATCZnB9VKiQIBG/zswOqTBmvvBQKrvMUA9u6LBzMWGQEBcYEBbfJnBpfPMQAAYrEDN0sLBXCn0
QAqxtkAu17vBzjijQPlttUDzsbzB7mTzQOoenUBDVLHB9z+hQNhum0BJQLLB9NnIQKZRpEAv8arB
pNvGQJWviEB9ZKDBg06GQLYXhz+B3Z7BVaKaQPi4GUCHV57BtueeQMVwkkAcfprBJ1k+QE9qX0Ci
Z5TBKH/aQFyXBkB6I6jB1VwnQaatq0BaWIbBu7XzQPV5FsAlkrLBUdEoQSH7WUDYj5LBbGsHQVgd
20C2VYbBsI28QEAqkr/hMb3BxUP3QAoVA8Dw0p7BjTsKQbn2OUDlhp7B+2XRQAV8y0CxT5LB766I
QG4buj6CE7TBiMTDQABWCL9orZXBmuDNQA+/v0DbHsrBSNrNQM4DikDiA8XBcroIQSaurkAOSsDB
mwD0QGoX2UCy+bnB2MuhQLe/10COxbrBqsOHQBXMrEDOwsHBKIT2QEe6dUAmMrPB5UIHQcFKp0DX
VKzB7vmDQDQppEDj4K3Bk2WgQGxMckAFPLTBxbrHQP4yxkBVkqjBQIRQQOXjkT8XZqPBepZ+QF0K
OT+UqZbBZUSXQFhZr0CCpJfBZsYmQAicikClOpHBe/wcQJ7uKECG7ZPBdpgQQfXn0EALjIrBW4fZ
QLqPuL8ZtLDBIgkWQTgVqkDZgo/BEOX4QMGK40AQdIzBP4LSQDYY8L+PHKbBidzHQASzZr4DO7TB
xkkHQfyhlUDGQpbB+B3bQL8Hz0BxLpPB5o27QCIxiL8z4p7Bdw6vQPsUDD+GLK3B6xflQJwop0D/
+JfBaL+qQFzKMT7tTqLBqBnIQNLPQEC2CZ/B6Y+FQN5YZkCo1pjBY0XSQNVSmkCrvMLBDxH1QMFB
r0CRwbvBpaGlQLdnokDT7b3BPW7zQIYCnkAmOrDB+/GiQEUxkUAqarLBGlrGQHVhpEDsCKvBYBHE
QME2kUCOV5/BOaSUQLnYjD/bUZrBVhygQKQXIkCC4pvBe42YQBbel0BT5JrBNsM5QKLhXkCQa5TB
GkHnQM/UFUDMoaHBM9wbQfdy4ECXRYXBOnPsQOHBAsAOGrbB9pAlQWD3m0BwIo7BxsfwQBPXAEFI
vojBwb/eQAJKNcDBhqPBw1TNQIo/6D3lUbzBcbwLQdFpcEBqNZrB/na8QDHL3UASs5TBY9i2QNPi
sb8Bu5bBUyGfQNSetz+yErDBs5jTQCYIqEDh1crBtBDYQCNKb0C5KMPBe1YKQQ87qEADNb/B/vrv
QEoV0kCRnrvBP0qfQD8HxUC/3b3B/XONQAcxkkBC4MLB3v36QMlEd0BhVrDBILEFQXELr0ChYqvB
mmuDQNRomUAEFa/BA5mmQMJhXEBum7LBnJDAQOsCx0C+aKrBt51jQBrufT8cPpvBwQCeQI8PTT+E
LpLBCVeLQNaPtECcnZnBJkYYQMu2iUAjmJLBDMIgQKb3JEDREZPBQia8QPpD9kBMU4fBUu3PQBq8
wb8p1rPBiuiqQAIrzkAwjoTB+tTJQCjt/UCW3pHBut2lQEcquL/iy6/BHjTxQBZXTb9cxa7BjB6n
QNXLrUCfVYzB8jnGQFyl3UDeqZnBkBidQJiSKL/SqKbBsHjoQCtuprxao6XB6my0QCwRtUBHCJfB
aHO+QPgVLz1ke6HBAljIQPJ/UkD025vB+O+AQDAlMECUnJzBkH3dQFuek0ABQ8HBbM31QBDVrUBi
xrjBBOGsQLjPlEBFMb/B9CTrQBJ2nUDMhK3BsgOiQI10hEDU3rPBbty5QNAqn0DmPavBGPauQETM
kEAhW5/Bnvq0QFY0Yj8BpZfBpG6qQN+5EUBcjprB3CeCQFtjgUDftp7B+EQ3QGqK/z+OMpzBpK7u
QGQJTkA10JnBbd6+QIaPB0FnXIHBvqfWQAVmB8A/z7rB34+gQOs1yEAJ5XjBxCTXQNhVDkGU/ZPB
Q1qMQKFf/b/Is7PBMbIIQW8fW7/84rHBjO+ZQJkWj0DPIYrBkxPRQG+440CTuaHB3qJ5QPS8GL+b
nKPBMfgAQW8CCD/dz6HB1hXkQDUVoUA+OcnBWY3oQEhxZEAS+sDBQTYMQWfGqkACK7rBo3LsQFOr
z0CxarnBiX+hQPz1tUDvAcDBHbOcQKV2gEAmIMXBQyf2QE1QeEB0yKzBXNT7QCx4sUDamafBRZ9+
QAAlh0BNj7LBgberQOt1RUAzL7PBYJivQLupwECvGKzB2rCZQEzt4j5KWJPBFknRQB9zYj/raZLB
dq9QQP3Zk0AhvZ/B5j79P/eIG0Cji53B/UA6QM9rgj83jZrB0128QFTj9UBW0InB0VLUQFh0qr/i
5rLBNc3gQMw45UBD747Bh3SUQGia4UAPA4vBUe+oQDgtn7/u36/B0zz0QEBbOr++jqzB7QHdQJ5U
wUDOnJXBJXqQQEiqvUAgsZHBkXSdQACoDr+QeKbBk8/oQACJOb0aJKPBqYi0QFQ8rkAUZZfBJXe9
QABC6DzmBqDBp/3HQIAlSECMNZzB7YGAQJhBKUBgap3Bk3zUQNQvnUDWl8LBoyv4QIJ1nkCcJLrB
O7urQBwPs0DIZL7BPXrpQGgWikAmkK/BA3KcQJgfnkBR7rPBX+e/QPRWn0DEMKvBVz6wQODOi0BO
CaDB/yKxQKDPVT/EWJbBiW2oQKAnDUDOzJnBd5ODQDBQeEDKzaDBwpo1QKCt9D/sL53BNyfuQAiE
QECyHZrBEga/QMspCUES84TBKB/dQJJw7r+bGLrBLaj/QCUG9EDAuo3BgahxQEuu7UAAyobBO4iQ
QEbp2b/qxLTBYbUKQfYeSr+s7K7BtB75QLEwtEBmapnBUeNjQIzJrUCme5LBNm54QF8w9b7JMKTB
45kAQeo32D7TS57B/XDfQPzjrUDB1snBlDLNQOtNd0ATjcTBwwsKQRDLjECALb3BN5QAQQr5v0B8
qbjBr4uyQAAT1UAR57zBtVeSQO0/sEDMcsTBF1fjQI+yT0BG6bDBy4cBQULNjUAvl6nBziWAQOds
r0D7+7DBa9yTQKYyeUBlirXBfV7HQNc4wUCMtKnBz1OUQGRfzz5rpJLBP4XLQPfAVD+HhZDBuAtW
QGB/jUAljKPBt/L9P2rEFEBKup/Bvuc1QAVweD9xe5rBqRO9QHC490ALPIfBuYLQQOCOxL9siLPB
X3u/QFdszECdO4TBati1QJFSAUF4/JHBniblQKzY47/ssqnBk1SyQOJc/b4fX7TBdEO7QKIKrEAm
/YvBw4KxQMlr4kBDxJnBH/TbQEOKeb//uaDBms6oQCCGmj4yZavB62y1QHJotkCr9ZbBMSy+QP14
rD2djaHBUg3IQG5GU0Cq+JvBwDiAQL6SNECTJZzBb/HdQF4jlED/GMHBI2v1QK2or0DStLjBlU2t
QAcDlEDwDr/BVRzrQAInoEBZVq3BwSWjQBKvg0Cjs7PBcti5QMvFn0CQMavBhAavQCf4kUC0PJ/B
DFizQBi5aD/gqZfBNIapQEFrFECFRJrBqhSCQCOEg0BxVJ7Byjo1QL8eBUDyrpvBrX7uQDjVTEBO
H5rBpMfAQKdCCEHvSYHBudXXQDtZCcDJa7rBxJTEQOr8w0BI53fBrZuzQFjxEUGlSJTBhgn8QBRx
JcDECKnByHyiQH6bnb4w57vB6Xq8QPDiikDIkYnBTSKrQPYm60AU+aHBOLnrQJh9lb8BMpnBVxSR
QPelij9JBKzB5jTkQJFAoUDSHMnBGv7pQD04ZkCAqsDBChAMQV1brUCJDrrByzfrQBEu0UA5jLnB
QfCgQBzItEBY77/BQLedQGkDfkB98sTBO6v3QOQKf0ALUqzBPZT6QPymtUCJiqfBoV2AQEvzhEAA
Y7LBf0iuQCngREDy67LBFT2uQOvAwEAjNqzBSVCXQIG17D4MuJPBRdfOQGh0Yj9KLJLBaR5RQKt3
lkCuP5/BuNj5P697IUAjD53BknQ3QCdGjT91+ZnBLT/AQFBx90AAm4fBQ1DRQKQvyb9/frPB14nf
QIAQ8kDol4/BA/ScQEKP20CmJ4fBy+ziQAhG7r+LYKnB0561QABm8b58vLTBL2rbQGQH0UCGMJfB
+3KYQFjUukCbzI7BYwrZQNQDhr8pgqDBe5qrQEDKrj5u4qvByxC3QMjNtUBSHpfBa8G9QIA5jz1z
t6HBezzJQKzOUkAVWJvBA5mBQOAqNUCIO53BM7bSQLJmk0B/esLB7aH3QAzYlkB+Y7rBh7erQFZK
rUDyo77BqXzpQCzeh0BMOq/BAbScQOidnUATmLPBwz7BQIykoEAiI6vB90myQPCZkUC8c5/BURey
QNDdZT/y5JfBP9+pQFhAFEA1eZrBvwOFQJw7g0Dvvp/BVKI2QHjXB0AhT53BKyLvQFjmSkAk95jB
C1XDQAN6CEHy04HBeAzZQBdcDMCPSrrBRcT6QCaoA0H35Y/By0aFQCtJ30Ao7oDB3AT4QKlYLcCZ
aqjBEg6oQEmBgL4PfLzBIx/0QJBgzEAvHp3BUvB6QN5OpUAUWI7BCmLmQDuLo79BwZjB3/2VQIJ5
lj8m2KzBsWTdQIXun0CjQcrBWoLJQB42Y0A7WsPBPDMJQczCgkA+Hr3B/RIBQaxhuECd6LnB3Y+0
QEVKz0BnF77BDnmRQBF3qUAubcTBTNnhQBETS0A0l6/B7/oBQVoNjUAbk6nB2KGBQHd3sUAy8rDB
N1SSQD4seEDyQrTBpEDKQFmRwkDHearBYBqVQO9P8T5EQJTBBrDMQBp9WD8hJZLBIZFYQHAblkBr
nqHBfzQAQMgvJUA7X5/B7/01QHXJkz8gTZvB

>  <OMEGA_E>  (31) 
ZqsvP3TSKj+bkYw/o6iLP37Aij/yRIg/mhOEP25nhD+0LYU/K0KGPw==

>  <OMEGA_NBR>  (31) 
     27351

$$$$
50158059
     RDKit          3D

 52 55  0  0  1  0  0  0  0  0999 V2000
    6.3822   -1.3159  -21.9358 C   0  0  0  0  0  0  0  0  0  0  0  0
    7.3030   -0.7067  -21.0658 C   0  0  0  0  0  0  0  0  0  0  0  0
    5.2212   -0.6249  -22.3273 C   0  0  0  0  0  0  0  0  0  0  0  0
    7.0687    0.5962  -20.5932 C   0  0  0  0  0  0  0  0  0  0  0  0
    4.9806    0.6767  -21.8542 C   0  0  0  0  0  0  0  0  0  0  0  0
    7.8379    3.9072  -16.3284 C   0  0  0  0  0  0  0  0  0  0  0  0
    6.6906    6.0187  -16.7789 C   0  0  0  0  0  0  0  0  0  0  0  0
    9.0985    5.9905  -16.3707 C   0  0  0  0  0  0  0  0  0  0  0  0
    5.8954    1.3031  -20.9749 C   0  0  0  0  0  0  0  0  0  0  0  0
    6.6581    4.6176  -16.6283 C   0  0  0  0  0  0  0  0  0  0  0  0
    9.0637    4.5855  -16.2449 C   0  0  0  0  0  0  0  0  0  0  0  0
    7.9076    6.7091  -16.6173 C   0  0  0  0  0  0  0  0  0  0  0  0
    6.3117    3.1045  -19.2176 C   0  0  0  0  0  0  0  0  0  0  0  0
    4.0589    3.4730  -19.0244 C   0  0  0  0  0  0  0  0  0  0  0  0
    6.7203    5.0457  -24.1998 C   0  0  0  0  0  0  0  0  0  0  0  0
    7.8081    4.6854  -23.1670 C   0  0  0  0  0  0  0  0  0  0  0  0
    5.3571    5.2958  -23.5280 C   0  0  0  0  0  0  0  0  0  0  0  0
    7.3722    3.4970  -22.2935 C   0  0  0  0  0  0  0  0  0  0  0  0
    4.9411    4.1015  -22.6509 C   0  0  0  0  0  0  0  0  0  0  0  0
    6.0328    3.8338  -21.5812 C   0  0  0  0  0  0  0  0  0  0  0  0
    5.6275    2.7498  -20.5217 C   0  0  1  0  0  0  0  0  0  0  0  0
    5.4059    3.8520  -16.9415 C   0  0  0  0  0  0  0  0  0  0  0  0
    5.2958    3.5840  -18.3880 N   0  0  0  0  0  0  0  0  0  0  0  0
    4.2021    2.8743  -20.1775 N   0  0  0  0  0  0  0  0  0  0  0  0
    2.8422    3.8965  -18.5121 N   0  0  0  0  0  0  0  0  0  0  0  0
    7.5214    3.2570  -19.0870 O   0  0  0  0  0  0  0  0  0  0  0  0
   10.2056    3.8812  -16.0705 F   0  0  0  0  0  0  0  0  0  0  0  0
    7.9361    8.0579  -16.7206 F   0  0  0  0  0  0  0  0  0  0  0  0
    6.5661   -2.3145  -22.3036 H   0  0  0  0  0  0  0  0  0  0  0  0
    8.1911   -1.2401  -20.7603 H   0  0  0  0  0  0  0  0  0  0  0  0
    4.5130   -1.0956  -22.9930 H   0  0  0  0  0  0  0  0  0  0  0  0
    7.7857    1.0642  -19.9349 H   0  0  0  0  0  0  0  0  0  0  0  0
    4.0900    1.2031  -22.1644 H   0  0  0  0  0  0  0  0  0  0  0  0
    7.7987    2.8407  -16.1628 H   0  0  0  0  0  0  0  0  0  0  0  0
    5.7870    6.5601  -17.0170 H   0  0  0  0  0  0  0  0  0  0  0  0
   10.0368    6.5171  -16.2784 H   0  0  0  0  0  0  0  0  0  0  0  0
    7.0257    5.9562  -24.7362 H   0  0  0  0  0  0  0  0  0  0  0  0
    6.6185    4.2158  -24.9145 H   0  0  0  0  0  0  0  0  0  0  0  0
    8.7338    4.4197  -23.6986 H   0  0  0  0  0  0  0  0  0  0  0  0
    7.9931    5.5566  -22.5215 H   0  0  0  0  0  0  0  0  0  0  0  0
    5.4267    6.1957  -22.8991 H   0  0  0  0  0  0  0  0  0  0  0  0
    4.5962    5.4509  -24.3071 H   0  0  0  0  0  0  0  0  0  0  0  0
    7.2359    2.6081  -22.9270 H   0  0  0  0  0  0  0  0  0  0  0  0
    8.1466    3.2944  -21.5390 H   0  0  0  0  0  0  0  0  0  0  0  0
    3.9877    4.3289  -22.1516 H   0  0  0  0  0  0  0  0  0  0  0  0
    4.8207    3.2086  -23.2820 H   0  0  0  0  0  0  0  0  0  0  0  0
    6.1862    4.7751  -21.0332 H   0  0  0  0  0  0  0  0  0  0  0  0
    5.4245    2.8952  -16.3991 H   0  0  0  0  0  0  0  0  0  0  0  0
    4.5346    4.4402  -16.6176 H   0  0  0  0  0  0  0  0  0  0  0  0
    3.4481    2.5464  -20.7466 H   0  0  0  0  0  0  0  0  0  0  0  0
    2.0017    3.7493  -19.0336 H   0  0  0  0  0  0  0  0  0  0  0  0
    2.8051    4.3490  -17.6212 H   0  0  0  0  0  0  0  0  0  0  0  0
  1  2  2  0
  1  3  1  0
  2  4  1  0
  3  5  2  0
  4  9  2  0
  5  9  1  0
  6 10  2  0
  6 11  1  0
  7 10  1  0
  7 12  2  0
  8 11  2  0
  8 12  1  0
  9 21  1  0
 10 22  1  0
 11 27  1  0
 12 28  1  0
 13 21  1  0
 13 23  1  0
 13 26  2  0
 14 23  1  0
 14 24  2  0
 14 25  1  0
 15 16  1  0
 15 17  1  0
 16 18  1  0
 17 19  1  0
 18 20  1  0
 19 20  1  0
 21 20  1  6
 21 24  1  0
 22 23  1  0
  1 29  1  0
  2 30  1  0
  3 31  1  0
  4 32  1  0
  5 33  1  0
  6 34  1  0
  7 35  1  0
  8 36  1  0
 15 37  1  0
 15 38  1  0
 16 39  1  0
 16 40  1  0
 17 41  1  0
 17 42  1  0
 18 43  1  0
 18 44  1  0
 19 45  1  0
 19 46  1  0
 20 47  1  0
 22 48  1  0
 22 49  1  0
 24 50  1  0
 25 51  1  0
 25 52  1  0
M  CHG  1  24   1
M  END
>  <OMEGA_C>  (32) 
DDvMQDVuqL93fK/BgrLpQFjsNL/NhqjBVhSnQML5H79FnrLBHDPiQCKgGD/xvqTB/GCfQCM7LT9u
1a7BZND6QIwPekCLoILBzhnWQIGZwEAsO4bBWpMRQRayv0BC94LBXqe8QO7Lpj+tzKfBUA/VQBLD
k0C1BoXB3AQRQSW8kkCJ9YHB6gr9QKGw1kAp8ITBEPnJQOqwRkCNvZnByOKBQExGXkD/MZjBegzX
QK92oUAkmcHBNtz5QH3ulUAaVrnBEm2rQGN3qUBHObzBvujrQPzOX0AXWbLBrB2eQF4/g0AINbXB
UAzBQEBcdUBkpqzBghS0QEz9L0BhLKTBOP2sQJKHdkAviIfBEnepQPZgZUCWGpPB3neGQA70N0Cf
a6HBv+Y1QJBfeUDZGJTB6K7wQIRyUEAdspjB8kkjQfRleEB8kIDBhvT9QPXsAEHiw4XBlR3SQKog
FMDVbbLBpg4DQTC7nr8oFabBNWqQQO88jL+u8bfBHiT5QMk2iD+lep/Bd+GCQNb9mT+1ULHBzY75
QNHNNUB4TYHBJS+5QLrs0UDZIojB3ZYgQXOM0EA8OoLBRNLgQJSZvkCn48XBgcrTQCDohkD+UMfB
wr0LQR9ujUCklr3Bfcf/QADQsUAiLLTBhaetQO9CxkBvMbfBMRSTQCturkDwdMLB3YznQLzrJkCN
arfBVVgCQb3WUkDuT6zB+TZ/QCmGikBkNrHB90KaQEZaTUCQQbrBo/XFQFDNmEDwQ6jBkJWtQApL
OUBwMYPBnBuRQC4WjkDk8ITB2qxcQFn4IkAf+aXBFBwAQBv0b0DFRJjBrYYzQGQri0Aw+IzBM6DN
QD8gtL8Dw6zBDHjwQGhHCr86HKvBL3ejQFaSbL+X5avBaiXpQNwFTz8hiqjB4PSbQEpw2D6/SqnB
m+XrQBdSnUBfQnjBJ8PwQKxsr0D/DI/BNdgVQS/ewEDtLIPBhsK+QOC9pj8PdafBpabaQHAbm0CH
jIbBZu8JQWA2sUBo2HTBzR0NQTRWv0A5io3BUHrLQLiBRECJ+JnB+5+DQNr0YEBG2JjBPhq+QF8u
rUDtuMHBX0DVQETNgUCsDcLBExHDQEMewkBMoLbBQjTEQG1rR0DdSbnBPTiyQJZxpEDIuq3BeN7I
QEZ/b0BT363B6gy3QHAWMkDBxKTB3oWwQChig0D6c4jBkVGrQEqUaECwqpPB3zCJQBT3QkBElaLB
LOY3QDXrdUC3i5TB9dfwQIn7NkD7cpfBduERQdGrtEDTzGDB6YUYQUUazUB4EpbBSD7TQC98HMAw
sq7BJmcIQV4tab9L0avBic2IQOuTy78yPa3BPPoBQR7AvD/ZYKfB1BF3QOD4ST9yr6jBs4baQKnO
j0Cc72rB7n/hQLKpskCbwpbBRqElQRkAzkCQ64HBcevLQM5swkBx1MfBzOabQIpCqEDOZsPBjhDQ
QJDaZUBG7MnBhbX3QB34hkCazcDB8SDlQD/XyEApLbXBQuSwQNFB4EAuerbB0ymiQEZkOkCI07rB
6k7WQLIVC0AmkLnBjve3QP2zs0BF7qXBDKOPQPW4n0CK3q7BLCXrQKu+eUAqVazB7GKvQLbqTkBn
GoPBw+iVQKIdmUCmiobBgh5jQL/eOEDe06fB3tsCQKN0bkCl7JjByN4zQKI6hkBDE43BGnjKQAAk
yb9MQqrBl1btQNRoMb8kWqnB71qgQKw7ib83DarBxQXmQME/LT9p4qfB2+GYQNTtmj7moqjBJtv1
QGOGpEDB84jBfJ2vQILpxUBNEYfB3+jvQFck8kCCYYjBR7C7QHC5lz8XHqfB9AXJQIvVoEAYCojB
0ZcEQVMDzUA1cInBOzDDQA2O7kCYB4fBaXDMQH/BTEApcZzBt12EQC69W0BesZnBVsnGQDd1xkA7
a7XBunCbQEt3r0DaVrTBrhfpQEvfr0C4oa7B5n6fQBvRgEAYCbjB7dXtQFkZgUC5OrLBc+7CQOuy
T0Cc6rHBvMa0QBCkLEDVZqbBnVG0QDZNa0A/Y4nBFq2sQDZdW0BS35TBxbiHQPBSQkAJr6PBKmg8
QDAocUB4qZTBF8vyQEjMR0AmgZrBefMZQQ8O0EANDYvB4fiqQH8VCUEA7IXBN/jPQIF2KMAIHqvB
+dMGQT0yib/LyKnBdKuFQMrM37/0+6rBSm4AQTlDrT9qVKfBPBxxQFM0Lz+NtajB2LMEQSEOiEBO
R4nB60eNQAMww0DRWobBCsH+QFurCEG2mojBG7jQQEIyxkBq3L3BpWPDQAq750DprLLBeDWRQPUm
sEDE66vBD4GDQJnuv0DGTrnB2vADQTV3wECFn6/BqZPfQCm8sECAKabBGq2AQC1GYUACurbBZjan
QPeHgEAEn8DBXRv6QLO2gEANerrBxW8CQS44YkAV6azBALnIQLjRFUBStrbBbJDJQIpxOUAgKobB
JKyVQMoZakCyD4XBrVxeQAEePkB3yqjBfTMFQAfDbUDZr5jBG6s8QDP8gUD5A43BYkDLQA/3wL/w
uqvBAIPuQNUaJr+gY6rBUFyhQPJFf7+wCavBdOPnQLsQOD+UVKjBhJKaQExWvD794KjBqKn/QOYj
fEBkO4TBXI/bQL7cwkBMMIbBxJ8UQQ3nv0BB6YPB1M69QFv/nj+LX6fBeLjZQHi3lUCZ84XBFb8T
QfHgkkBqx4PB95cBQe7m10B914TBxMPLQKC1RECdV5rBZLaDQJ05X0A5D5nBXGe/QMV+tkCIQb/B
ROnEQOq5hkBNBMLBYoHVQJtcwUAzk7TBSH6zQJ0PVECC/LjBCCfEQOQspUCodqvBzkrJQKAoaUBq
Gq7BaNy2QCxGL0DM6qTBmgOwQHx3fEB3SYjBLHGrQEYDZkBWz5PBXFuJQNpzQ0CX5KLBLL43QBeK
c0ClzZTBukzyQB+jP0BvsZjBhvYlQbMVd0CRToPB+2sCQfmSAUHVnYTBlVLQQKK0I8BTSq3BAlQH
QR8Ohb+X8KrBsVWGQOzh07/TKqzBgYgBQftOsD9BeKfByax0QMuAQD+IXajBjQj+QHSJN0BmQoPB
gLW+QIBD1UDlZYfBUNojQRYN0ED4TIPB1anNQH32yUCfqcXBZBOdQFnWvUCZm77BRmazQFhof0An
csnBox/nQMS9f0BtLcPBTyP4QL73u0DqYrXBEJPPQKYt40A1orLBF8yQQOdMXkBgPLjB97m5QGew
EEBBArvBJOLVQNpsrECoFKTB8QOiQI1SrEBFRqrBVazrQMVTW0Ai3K7BhTivQLk1QUAyioPBbROV
QMngkkDu84XBzeljQO7bPECCSajBXBcDQDZLbUCoSJnBkRgzQEoyhEAhQ43BDHrLQMRCwb8qkavB
lGXdQGj/Yb/ZkKLB7E2wQIg5Sb/Jb7LBZGzUQIAa7z5nd6DBAKSnQKDXEj/OcLDBRFj4QHSTdkAN
LoDBYID6QMS+r0BGro7B5F8eQX7nmEBZF4bBVFa6QOhXnT+wjqfBUOLiQMp+k0CuE4jBAI0SQTDG
fUCbBn7B8rwTQZrasEBmB47BqNnJQGhgUED2GZzBaNaBQJSZXEAMs5jBvJfnQJpDuUAdt7vBNOe4
QFK+vkBl+7fBbHvxQN7ViUBqBb7BeOuvQDqUo0Ck8a3BMPjoQPgWXEDPFrTBJPG5QDSSZkA58K/B
QAqxQDx/LkBenqXBTH+zQB7/i0BpSorB9DurQPTlbUC4z5TBFBqEQKzSN0A/K6LBiF83QNQzb0B9
dJPB9PjwQKSSTkBXXZvBwr0cQRh5UUCEdm7BahYfQeZQyEBEJJXBkonSQKj9IsDTN63BaBLyQD82
uL89Q53BhguiQI48o7/DQ7nBuHLhQHIZbz+UY5nBWZiSQGlMjz/cuLXBXXvmQLwNTECuEnbBEP7p
QKd5xEAGOpTB8JUvQeF4mkB9bYXBJp7sQGIJzEB3DcPB7Dr9QMjjxEB5abXBWh2zQAKl4EBoG7bB
EkejQDeWtEDKcb7BPwvdQO52fUBToMTBh6cJQamzhkBhU8DB5wnEQOU5r0AJVqfB8vuNQN7upkAb
w6vBpW3uQMePGEBSK7bB9zb/QDomb0Dlsq3B51akQC7QT0D2RrbBmHmmQDIDb0A464PBegGjQJYX
q0DWMorB+JBVQA3KJECdcabBBNH+Pw2KYEA24JbBk344QEqehUDFQ4zBz5vLQAveuECZt8HBvu2p
QKFLnkAzTL7BAijsQFyAxEAzg7rBTKOoQKqLj0BbqbPBpgzrQN7KtUA34a/BOnubQCj2Nb1XeqzB
1zzNQEqWQL/ffJ7BG03VQBgizb9Rr7DB6fTIQLFcm0C1QKzBrCypQAACnzqOtaHBjWqxQNiRWb+m
8LPBtUTjQOabxr8m96XBimnHQI3bM0AeuKDB2CWHQMn1X0DVq5nB5W4UQdvvm0Db+obBPLn9QCJs
s0AQ2YXBfc8bQYE9m0Bwu5LBggDbQJznnkBR9ozBoKIKQXSQhkDrxpnBaTvpQM53nkCP3pjBMR7G
QHWkikB8oaDBCpiUQPEPez8q8ZnBjKCgQIjVGEBQVJzBQ3maQJ6ck0AzlZzBhwM+QEIGXUAV4ZTB
hsvjQK0PCEASuqTB3ESkQO8TZL/JP77BzwYDQSeXEMCF36LBenbMQO9QxEDU3cnBsgeRQOEzlUB2
18PBYQkDQdrI2EBiJr3BIsaOQBwIdkC9HLHBqSkCQUCnvkBva6rBxy6AQJfOCT/4/q7ByuzXQHgT
N7/TRpbBGhjmQP37DcBGaLbBfYwgQUN7rEBHHoLBT54SQdqwdUDaHoTBUFjzQC3xsUD/5HrBVvcA
QRYN1UCwOYjBAaceQW05vED4dJXBGLoqQbm7iEAIX5PBY2LVQOqre0A0S4rBETa9QJJqsUCzN4zB
3/0PQcV1h0AWKKLBxXYIQdg2SkBcRJfB/WbuQHLUv0BMXJvBkzRjQLMIYj9bfprBbwqfQBQVPD+z
xZHBum6NQIrGsEAjH5zB2wMeQNOgiUDdcpPBZUokQIauJEBH3ZLBasDLQBVoukDfeMHBlHa3QIdX
k0B1H7/BBzTeQAmj0kARMrnBDaO1QBlyhEB8grTBVNzcQO+qw0Ael67BrtGbQIATa7ylXqzBsLPN
QI+RPL8JdJ7BslXVQBjwyb8kr7DBgxLJQD7wm0B6E6zBi8GpQGgnvzyin6HBH36xQNeWUb8Q4bPB
PHzjQE5gxL/T+aXBohbIQIczNUDGbqDBSrmGQEmvX0At2ZnBQTPNQDd+pkC9moHBbey8QHjoxkAm
9YnBdxnZQGQ3dkAfnIbBuIfbQGELy0CUs5PBmgb6QLuUgUAhnI/BA43pQHJTn0AJyZjBX9bFQOo5
i0C+b6DBX2KVQCE3fj+CzZnBZa2gQA83GUBEb5zBndOZQG54k0DtwJzBPrA9QKebXEDT6pTBDnvm
QP7ACkCTrKPB8SCkQJJyWr8GLL7BvRgDQdjfD8BB7qLB3ybNQGvFxUDIn8nBW0GpQDO9gECzesXB
93HtQCXR8EAu/LrBfkelQH6lTUD6wLLBywXrQGiQ1kAjSKjBb4yAQOXFEj8o1a7B0H3YQBKxNL+y
P5bB6/TlQHxTDMC5cbbB5rXpQPLbs0CSV3vB3uyzQDhRoUBXPHfBJlydQLRjvEDX1IzBYee5QO5s
5kDFHIbB8+DmQMt5TEDHaoDB0im8QNAiWEAN7InBfDfLQHn03UAf55nBo3/4QDQI3EBpEJHB/IUL
QTLqj0DJJozBW/AAQQBLRECWDJPB6aUCQbtFpkAu6p3BmsxkQO0GYT9tI5rB+LWgQGBIQz9HrZHB
bD2MQLZssEAzf5zBt+8dQHlniUC9YpPBohskQDIyJECB55LBC6j1QN0uLj9EN23BtpgHQft2Sz+F
oX/BtAXJQJstVj/Ptm7BXC/8QNfhiT94vonBa8i1QBAojT+oTYHBdZLTQB4VfkBd+bDBxIOwQDPa
w0AlHrPBZdDVQCpXokBSL8LBOizPQDKSnj+HqYrBHoW7QGQJoUDNe6zB51XhQJm/f0AImLvBefy8
QCUQxEB0+r3Bt+jNQFTrOECDo5nBg4WFQG3sS0C5zJfBt1vFQIpYTb97z7PBMHWaQA/wTr+Wz63B
OKnqQNTGYr9H1avBTsyXQGJfvz6P8qXBqTDpQPLSiT62uaPBoUW9QMzyuD6tp53BO3y6QCRyyz+4
gpXB0BCwQAqNokDXk6DBfsGrQOFOb0AgrpvBBAyNQA8x/j/67ZPBZQw7QO7xckBOv5fBnenzQOyP
SkBKz5rB92H5QNhePkAlY7/By1+xQM3g5ECsYsTBaCUCQen88T5B613BUrcYQYhhKj8ahH7BHnS1
QMl7QD8liWDBpwYIQfwblj+3xZDBtnCTQLYrmj/P04HBj3XbQB6JR0AmDKzB+YaeQIBi3kBk46/B
kerfQF0Lo0ATcsrBxqXGQNFF1b8uP7nBqR3IQFXxAT6+eLjBpTGAQLPlOr/norPBEWiXQIEI4L9/
VKnBg7foQHSg6788fqfBWIQEQeOsVr/KQ7DBbyKZQGcVqD+Ug6rBwXtyQLU9oj5LmqHB32cBQdgu
9T2Yz53BwJTuQAxwmz9OBajBAvq5QI6ADr8v4JjBb1/JQLUetEAcUpzB0nuRQKmas0BarZ/BHQhu
QKrPtD8rYJDBEKcIQOxaVEAtopTBc+wzQPnLlkDJ0prBj0bMQM6iukBPrMHB0u7tQDARokDjZb3B
p7eoQJv7xECZRbvBGe7rQE6Tk0BlvrLBWnSmQKFltkDBo7DBd1KbQEwmDb0iXazBoNPNQJGUO796
gZ7B3E/VQOzvyb+Zu7DBRdPHQN3lnEDKRKzBS3upQMCxRjxxo6HB7CGxQBkFVb/K47PBurPjQKJR
w7/nC6bBpXLGQB4fNUC2K6HB95OGQIZjX0DawJnBA6zoQLk4gEASiILBqHHHQMUNoUDDf4bBHHb6
QPGYSEDApYvBn63YQKz9u0AbCJDBBfsFQVW1gEAc2pTBgwnqQFB2oEBng5nB8UPFQBxYi0A6vKDB
3TeVQIi+fT/P3ZnBwAWgQAY4GUDGopzBugiaQKV4k0DCVJzBWq89QIgXXEDFxJTBP8PjQF30CECq
qaTBbZKjQCpGX78fKr7BPl8DQdODDsD5C6PB577NQD+KxUAQ3cnBFKoEQU5SmkDOS8LBaxiPQMcr
2EBeh77BJw4DQTIzgUC1eK/BsSaLQL6ivkB0wqvB9oR/QJarCj9GzK7B5tbYQJ+ZMb92UpbBBAPm
QOcTDMBUgbbB0LABQSeLkUCbjX3BiWLZQBGXVkAWJ3nBkIaqQGHej0AmF4nBJ1W/QL+/tkDEvn/B
+kEKQWFgIEDrhojBhrrgQK+HH0Akw47BQ3++QHA10EBRCpPBIdLyQOhq0EBQF43Bz48TQeFnk0D6
xZHBjoALQRVjV0BzWZvBc4/7QHN+tkDgy57Bd4BkQExVXj/lGprBUuugQMF2Rj+nv5HBTUCNQAqW
sECtbpvBYOseQOgkiUCX8pLBk0kjQCuGI0ASAZPBiRLQQPLGt0CRzsDBW6+zQB6Rl0BNa73B+Wvo
QGJkzkC7OLnBOXmvQOYejkA0c7LBbX3kQCbmxEBTQq7B5c2tQOh6hL/Eu57BucrDQLDrWT9VtqnB
4XLPQCCSs7+aK7DBjbzHQN6opEAkq6rBf2myQCA2uD5Z+5/BtS+7QAB39L9C8abB7zLUQAAKg7yM
dbHBnUPOQKQMWEAwNZzBbRuGQHRzZ0AkKpnB7rsFQbKm0EBvPYPBubfbQEpE3EBGUYTBoo4QQVr6
zkBiS47BZ/bDQL5nvEDgnYvB/PcEQdrDrkBba5XBkULZQFJIukBq1JbB1X/BQEoVmkCQop7B3SGm
QAjCoz+CppbB9eWoQGxvLkDEJZnBg8aSQP6wmUAAfpzBWq44QKwtVEBzKZbBAXzxQHzCNkAeh53B
kQ+1QNByT8A466XBkQPoQMCv/T6nLLrB4yfTQCAev0DpNsnB9BahQFsNhkAQPcPBOjb+QJwg50AV
0bvB74KZQKLXakDb7K/B7IX3QMNK1kB4gajBKwOgQECVt7/Qe5fBmlfEQEo+9T+DJ6vBi0XbQCUO
BcCYObbBtcENQeHv6EBGlXzB+yoHQbQnsUDNwH7BD+XMQOjG20BlrHjBxf3YQLOS/ECXvofBOuQP
QczY7kAwBJLBWFshQQUxxUDuWI3BPdLEQFRvnEDX8IfBPoSiQFTGxkCYg4zBzKYMQcB4rkAYVp3B
UToGQQjRjkCFx5HB4W/XQNtY2kCAbprB1/+EQLuIhj+RTpTBm7i7QOyiiD/l6I/B7eh+QKTpskCW
cp3Bo3YLQGO0gEC7dJbBj9kpQN0XGUCWtZPB

>  <OMEGA_E>  (32) 
0EU8P6QiTz+mRE0//jZGP7TQRD8clYs/Z06LP+Ygiz/iN4s/+LqQPw==

>  <OMEGA_NBR>  (32) 
     36382

$$$$
50158053
     RDKit          3D

 60 63  0  0  1  0  0  0  0  0999 V2000
    6.3129   -1.2702  -21.8442 C   0  0  0  0  0  0  0  0  0  0  0  0
    7.2451   -0.6520  -20.9953 C   0  0  0  0  0  0  0  0  0  0  0  0
    5.1716   -0.5637  -22.2686 C   0  0  0  0  0  0  0  0  0  0  0  0
    7.0337    0.6670  -20.5646 C   0  0  0  0  0  0  0  0  0  0  0  0
    4.9536    0.7590  -21.8378 C   0  0  0  0  0  0  0  0  0  0  0  0
    5.8711    1.3897  -20.9646 C   0  0  0  0  0  0  0  0  0  0  0  0
    6.3076    3.1658  -19.2274 C   0  0  0  0  0  0  0  0  0  0  0  0
    4.0382    3.4137  -18.9751 C   0  0  0  0  0  0  0  0  0  0  0  0
   10.7908    4.7458  -14.7394 C   0  0  0  0  0  0  0  0  0  0  0  0
    6.8259    4.7384  -24.4284 C   0  0  0  0  0  0  0  0  0  0  0  0
    7.9291    4.4314  -23.3974 C   0  0  0  0  0  0  0  0  0  0  0  0
    5.5487    5.2429  -23.7299 C   0  0  0  0  0  0  0  0  0  0  0  0
    9.0108    5.1179  -16.5179 C   0  0  0  0  0  0  0  0  0  0  0  0
    8.5157    3.5956  -14.4982 C   0  0  0  0  0  0  0  0  0  0  0  0
    7.4379    3.4070  -22.3607 C   0  0  0  0  0  0  0  0  0  0  0  0
    5.0405    4.2199  -22.6958 C   0  0  0  0  0  0  0  0  0  0  0  0
    7.5055    5.1476  -16.8002 C   0  0  0  0  0  0  0  0  0  0  0  0
    7.0120    3.6331  -14.8560 C   0  0  0  0  0  0  0  0  0  0  0  0
    9.2706    4.8649  -15.0071 C   0  0  1  0  0  0  0  0  0  0  0  0
    6.1371    3.8952  -21.6393 C   0  0  0  0  0  0  0  0  0  0  0  0
    6.8734    3.7931  -16.3726 C   0  0  1  0  0  0  0  0  0  0  0  0
    5.6387    2.8606  -20.5492 C   0  0  1  0  0  0  0  0  0  0  0  0
    5.4066    3.6866  -16.8554 C   0  0  0  0  0  0  0  0  0  0  0  0
    5.2825    3.5101  -18.3318 N   0  0  0  0  0  0  0  0  0  0  0  0
    4.2078    3.0651  -20.2298 N   0  0  0  0  0  0  0  0  0  0  0  0
    2.7939    3.6449  -18.3972 N   0  0  0  0  0  0  0  0  0  0  0  0
   11.6049    5.3603  -15.4821 O   0  0  0  0  0  0  0  0  0  0  0  0
    7.5235    3.2488  -19.0937 O   0  0  0  0  0  0  0  0  0  0  0  0
   11.1980    4.0488  -13.7707 O   0  0  0  0  0  0  0  0  0  0  0  0
    6.4715   -2.2872  -22.1714 H   0  0  0  0  0  0  0  0  0  0  0  0
    8.1241   -1.1910  -20.6740 H   0  0  0  0  0  0  0  0  0  0  0  0
    4.4598   -1.0385  -22.9276 H   0  0  0  0  0  0  0  0  0  0  0  0
    7.7609    1.1408  -19.9220 H   0  0  0  0  0  0  0  0  0  0  0  0
    4.0798    1.2960  -22.1764 H   0  0  0  0  0  0  0  0  0  0  0  0
    7.1864    5.5116  -25.1228 H   0  0  0  0  0  0  0  0  0  0  0  0
    6.5918    3.8219  -24.9897 H   0  0  0  0  0  0  0  0  0  0  0  0
    8.8072    4.0234  -23.9195 H   0  0  0  0  0  0  0  0  0  0  0  0
    8.2090    5.3613  -22.8808 H   0  0  0  0  0  0  0  0  0  0  0  0
    5.7698    6.1912  -23.2182 H   0  0  0  0  0  0  0  0  0  0  0  0
    4.7670    5.4078  -24.4860 H   0  0  0  0  0  0  0  0  0  0  0  0
    9.4745    4.3122  -17.1059 H   0  0  0  0  0  0  0  0  0  0  0  0
    9.4531    6.0831  -16.8056 H   0  0  0  0  0  0  0  0  0  0  0  0
    8.6191    3.5357  -13.4047 H   0  0  0  0  0  0  0  0  0  0  0  0
    8.9682    2.7050  -14.9586 H   0  0  0  0  0  0  0  0  0  0  0  0
    7.2273    2.4556  -22.8711 H   0  0  0  0  0  0  0  0  0  0  0  0
    8.2264    3.2533  -21.6094 H   0  0  0  0  0  0  0  0  0  0  0  0
    4.1602    4.6349  -22.1833 H   0  0  0  0  0  0  0  0  0  0  0  0
    4.7585    3.2930  -23.2167 H   0  0  0  0  0  0  0  0  0  0  0  0
    7.0411    5.9656  -16.2299 H   0  0  0  0  0  0  0  0  0  0  0  0
    7.3367    5.3083  -17.8752 H   0  0  0  0  0  0  0  0  0  0  0  0
    6.5320    2.6962  -14.5370 H   0  0  0  0  0  0  0  0  0  0  0  0
    6.5316    4.4825  -14.3485 H   0  0  0  0  0  0  0  0  0  0  0  0
    8.8916    5.7320  -14.4464 H   0  0  0  0  0  0  0  0  0  0  0  0
    6.3810    4.8308  -21.1149 H   0  0  0  0  0  0  0  0  0  0  0  0
    7.4468    2.9876  -16.8546 H   0  0  0  0  0  0  0  0  0  0  0  0
    4.9378    2.8236  -16.3600 H   0  0  0  0  0  0  0  0  0  0  0  0
    4.8767    4.6067  -16.5681 H   0  0  0  0  0  0  0  0  0  0  0  0
    3.4631    2.9518  -20.8875 H   0  0  0  0  0  0  0  0  0  0  0  0
    1.9627    3.5477  -18.9445 H   0  0  0  0  0  0  0  0  0  0  0  0
    2.7309    3.9083  -17.4346 H   0  0  0  0  0  0  0  0  0  0  0  0
  1  2  2  0
  1  3  1  0
  2  4  1  0
  3  5  2  0
  4  6  2  0
  5  6  1  0
  6 22  1  0
  7 22  1  0
  7 24  1  0
  7 28  2  0
  8 24  1  0
  8 25  2  0
  8 26  1  0
  9 19  1  0
  9 27  1  0
  9 29  2  0
 10 11  1  0
 10 12  1  0
 11 15  1  0
 12 16  1  0
 13 17  1  0
 13 19  1  0
 14 18  1  0
 14 19  1  0
 15 20  1  0
 16 20  1  0
 17 21  1  0
 18 21  1  0
 22 20  1  6
 21 23  1  0
 22 25  1  0
 23 24  1  0
  1 30  1  0
  2 31  1  0
  3 32  1  0
  4 33  1  0
  5 34  1  0
 10 35  1  0
 10 36  1  0
 11 37  1  0
 11 38  1  0
 12 39  1  0
 12 40  1  0
 13 41  1  0
 13 42  1  0
 14 43  1  0
 14 44  1  0
 15 45  1  0
 15 46  1  0
 16 47  1  0
 16 48  1  0
 17 49  1  0
 17 50  1  0
 18 51  1  0
 18 52  1  0
 19 53  1  1
 20 54  1  0
 21 55  1  6
 23 56  1  0
 23 57  1  0
 25 58  1  0
 26 59  1  0
 26 60  1  0
M  CHG  2  25   1  27  -1
M  END
>  <OMEGA_C>  (33) 
owPKQO6Wor/3wK7B99fnQNPnJr9Q9qfBa32lQGJPEL8MJrLBtBPhQJjAKj9lhKTBz4OeQJxOQj/R
s67BxN+7QC3jsT9mt6fBk9fJQEidSkDL0ZnBVTmBQGd6WkD0zJfBN6csQaHdl0Bi1GvBg23aQFCh
l0BVbcPBP7v9QL3NjUDTLbvBCo+xQNXFp0DI1r3BJywQQR/Go0CnJITBXUAIQbQeZkCO+GfBAQPu
QFYMWkDP4rLBE0yhQJcJh0D/kLXB4SzwQEW5pEDIZobBtmLgQCuEaEArsm3BaVQUQRetm0AzHXDB
wGLEQO9KeUBhHa3B0/LbQM3CckAk+4LBAXC0QMwUN0C/ZKTBvwKtQBrxa0Dr14bBnQqpQMykYEB2
p5LBlKaGQDAqRECP1qHBBtAyQDlGaUCILZPB1a05QZCHq0CitnfBY8DwQFvsT0Dmv5jBBiszQcmP
gUDCVFzBuhbPQCZhEsAZX7HBQvwBQRdzmL9BZKXBkbaOQF3thL/Na7fBRln4QEsHkj9EYJ/BEo6C
QCDjpT8rabHBKPflQGdfsEBq+8jBoe/SQI+ZdEDv6sfBM+oMQci/gEAKW7/B51cDQSiQq0DzC7fB
mqK4QH8exkDuvrnBfouYQPYMrUBj48PBspcXQbP9iUDk2IjBDEAXQcWowkDecYbBu+cJQZtIYkCd
eVbBnX0PQRYeLUCFVm/BFUbnQKEoHUAa+LbBe58DQZo2UEAF4KzBCyCFQFtRlEBMd7HBbEWYQEfB
UkDRu7nBElHhQFnmvkDD1oHBlMbqQIzdqUB2AI/BGQbRQMWNLECvl2jB4wLRQM1wj0BFk2XBMkQO
QfJst0B+JGfBTDHMQCOWmkA+66jBN0zuQPM0P0BC1obBLQKeQMq1NEBJ4YLBLg6cQH5qk0B1i4TB
wqNdQFjqPECIGafBrzj7P8wMY0BdjpfBeMYuQDUiekAZeovBD5DKQO+ioL+ehK7BkBjqQKmPEL9/
u6jBIeKjQKgMHb92JLHBjxHjQEC4Qz8GmaXBHlmcQCwlNj951K3Bzqq7QOTltT/06afBvE3JQLEE
TkBzI5rBOO+AQGK6WkCwsJfBRz8uQQOHo0CvXXHBh2TiQPsylEBqb8PBdHz9QC9/m0BHWbnBW1ey
QH5Ll0CvyMDBcp0QQUf2qkCJOYbBQCMLQU5reUAIymrBGpLxQCWidkBfjrDBXNilQFjibUB0B7jB
JZvwQPcXqkBi5IfBTmnlQOxXeEA2GG/BO9sVQRNapUDLZ3TB2MbAQFX3ekCvpq3BsELeQM/NfUBw
pYPBflazQKkcOUAToqTBnsquQBDjcUCZDYfB0zOpQAZNZEBu1ZLBJpqFQMhzRUCV0aHBbQgzQH8B
ZkDIs5LB+u04QT57hkCUdnrBjybwQA+TT0AV6pjBYQ03QT6/v0AH+mXBhPvPQPu+EcDT87DBeOED
QTtCh7/AsabB7+CLQLXekb9Yt7XBk+T7QJMqpj+rXaHBo9l8QPaBmD/q0K/BBIzqQJehrEDpbsnB
2FfpQEZ0aEA7rsbBZsIPQW+gl0CaYLvB3eX3QLEnvECkYLbBix+rQJTXt0Cv9b3BgK6fQEGPkECj
DcjB0f8XQfPFkEAQzYrBHAEXQRjIyUCmB4nBdeMNQS12eEA6aFnBzmMSQRdGQEDoEnLBFij5QLes
NUBwXrPBATsCQTF1gkA3WanBEcGDQF0mdkCwGLbB2UKrQButLECWDrvB9d/hQM/PxEDfgIPBOGnp
QP42rUCNeJDBDnjXQKCqPEAl4mjBLzzWQBizl0CQLGfBj7YPQVBwwUCwwWvBUhu6QKjVnUBGnKrB
GNLwQLwMSkBNZYfBUMGhQMbvOUBY0oLBlc+cQAi7lUCCuITBObtaQIJ7PkAf+KbBTtX5PwPqXUAL
2pbBt4EwQFQzdkAV+IrB5ufJQJhzoL8XsK7B3inpQIXyFL8xqKjBf5ujQMLtGL+2bLHBUUTiQNSe
Pj+TY6XBCEacQAadOT9mBq7B4GG7QA1dtT+u5afB/lfJQPuvTkC3JJrBeuKAQB3QV0B8mZfBuSEt
QS/+T0AJw2nBuUrjQPJ9lEC2UsPBiZz+QPKdmkCuPLnBhE+zQNA5mEDDoMDBXWkLQXqmlEBZgm3B
IA0PQd1cGEBFYoDBYybyQAURdEARm7DBH0WmQOVPb0Cz97fBmgLmQDwxlEDL7HHBG5LtQHPBGUDO
NYLBqLUUQfT6TEB1jmzBLm/BQDGCekBCm63BWyLeQE8weEBqcYPBBG6zQIDpOEApnaTBIvKuQEcy
fEBJW4fBkQupQMHlXEA3lpLBQa6FQEUoRUCjzqHBH/cyQN11ZUCEspLBqZ44QfMxcECgSXjBhSrw
QB3AUkBX+ZjBeCA1Qe8xMUB671jB+EPPQANvEcCEOLHB90IDQfz8ir8biKbBn8OLQMgPjr/hJbbB
h8f6QHFwoT9U6qDBPVJ9QKDUmz/cGrDBVM3rQB8xrUCIOMnBD6jpQPdEaUADtsbBnEYQQbRHlkCW
TbvB6qP5QFsmu0B5HbbBlqqsQK6+uECMsr3B6HygQGgtkkCm6MfBH3kTQVBupkAIYnrB5V0OQYOm
pEAQHV7B3mMUQfCwqz8qmH7BxigXQbJONECsXofB1s/4QJA7M0CKmrPBabQCQTEQgEBNZanB4EeE
QHqieECV/7XBvQ6rQN41LkCAGLvBq03VQAzxg0BRvGTB6yDaQDw0tUD5WHPBA9vlQLyY6z+YhonB
SlvdQCUy+D+eq3bB3sUNQYR2LECEkl7BtZy7QGyvnUCngqrBURTyQFgWi0BsponBEUGbQLuDVEAz
AoLBgg6kQJCHn0D574bBTg1bQBvnP0BjA6fBSRb6P6FNYUCg+ZbBS0QwQFhsc0C35YrBqDbRQLgi
uEAy7cDBWBKxQOTFmkAUDr7BxHHsQHQFyUDuCLnBLEirQKRMj0DuQbPB6rznQHBpvEDETK7BchLG
QLBxoECAK6vBbqTMQAhQSkBg+J3BlqaEQNgIVUDLbZrB+ubbQOBv878EqrbBjE7gQOxb6kDaXITB
MJDjQDQK+0CS74/BtJPtQCTsukAanoPBUFPgQCB1tD5Mi63BSG7QQJDq1781NaLB4G7IQOhA30DU
epfB+l/TQHQLn0BcYIvBUPOvQOB7Mj8Trq3B7iagQHAtp79JD6LBUFHoQJibk79+UKzBeNvXQHjZ
r0A8FZfBwHOYQICeYj7baaPB/BW/QNwSk0A6XJ/BLJCmQIC8fz9/JZnBLDGoQMjMHUD8vZrB8NSQ
QFTAkUAc0ZzBoNg1QMBrPkDkypfBhgLeQBhGp78/jr/BVObxQBAfMkAs5p3B0kfRQJBSR8B2IbbB
UvTUQCquwUB8LcnBR8ucQL8AjUBdJcTBZIECQcq030DiN7vBYCWSQG9fckDkHLHByvL9QMQZyEA6
XKjBmHz1QMR//UCsbX7BGg6/QFus7UDbmIHB8+7XQNseDkEWPZDB0pcCQeD/+UAEh5LB+9wHQdYJ
uEA/oIXB/ULoQNyRr0D8yXbB6sPuQKEVMT/AGLXBLnvvQJ+5YD8HzqbBPsbfQJLbob9yC5vBKyrT
QPQhMsBBCqLBM7SmQLvU4EBi/pTB34vLQFNi60A5tJ/BMhPfQNzDe0De/IrBMHmxQOP6n0AWBYnB
916sQJfg5D+DXq7BUCWhQKNFWD4zp7TBN/qPQMnI6r+QoqjBEV6SQOf/z78BYJrBSGYFQTCnpr98
AavBG/75QNE0r0CTOZnBUuBrQEmLxD51jaTB4KaPQDmZRz9As5LBsJjGQEeHJj8yy5bBBuF6QCs0
q0BL5pzBu/cHQBsGa0CroJfBOrYnQHKOAUDLD5bB

>  <OMEGA_E>  (33) 
EsJjP3CWZT98y2U/CG6VPw==

>  <OMEGA_NBR>  (33) 
     40599

$$$$
50215519
     RDKit          3D

 46 49  0  0  1  0  0  0  0  0999 V2000
    6.9657   -0.5943  -22.4216 C   0  0  0  0  0  0  0  0  0  0  0  0
    6.3899   -1.5399  -21.5571 C   0  0  0  0  0  0  0  0  0  0  0  0
    6.7243    0.7771  -22.2248 C   0  0  0  0  0  0  0  0  0  0  0  0
    5.3381    0.2578  -20.2937 C   0  0  0  0  0  0  0  0  0  0  0  0
    5.6249   -3.2050  -19.1588 C   0  0  0  0  0  0  0  0  0  0  0  0
    3.6057   -1.8535  -19.1511 C   0  0  0  0  0  0  0  0  0  0  0  0
    3.6424   -3.8289  -17.9026 C   0  0  0  0  0  0  0  0  0  0  0  0
    5.5748   -1.1088  -20.4890 C   0  0  0  0  0  0  0  0  0  0  0  0
    4.9310   -2.0691  -19.5941 C   0  0  0  0  0  0  0  0  0  0  0  0
    5.8664    1.2109  -21.1816 C   0  0  0  0  0  0  0  0  0  0  0  0
    4.9752   -4.0939  -18.2780 C   0  0  0  0  0  0  0  0  0  0  0  0
    6.3415    3.1569  -19.7319 C   0  0  0  0  0  0  0  0  0  0  0  0
    4.1023    3.1789  -19.2391 C   0  0  0  0  0  0  0  0  0  0  0  0
    5.4348    4.9886  -22.3429 C   0  0  0  0  0  0  0  0  0  0  0  0
    6.8783    4.4889  -22.4931 C   0  0  0  0  0  0  0  0  0  0  0  0
    5.7265    3.4900  -22.2885 C   0  0  0  0  0  0  0  0  0  0  0  0
    5.5529    2.6895  -20.9546 C   0  0  1  0  0  0  0  0  0  0  0  0
    5.7014    3.5206  -17.3012 C   0  0  0  0  0  0  0  0  0  0  0  0
    7.0311   -5.1685  -17.6675 C   0  0  0  0  0  0  0  0  0  0  0  0
    2.9851   -2.7287  -18.3323 N   0  0  0  0  0  0  0  0  0  0  0  0
    5.3993    3.2337  -18.7127 N   0  0  0  0  0  0  0  0  0  0  0  0
    4.1517    2.8754  -20.5189 N   0  0  0  0  0  0  0  0  0  0  0  0
    2.9337    3.3606  -18.5118 N   0  0  0  0  0  0  0  0  0  0  0  0
    7.5588    3.1383  -19.5848 O   0  0  0  0  0  0  0  0  0  0  0  0
    5.5887   -5.2123  -17.7500 O   0  0  0  0  0  0  0  0  0  0  0  0
    7.5939   -0.9204  -23.2373 H   0  0  0  0  0  0  0  0  0  0  0  0
    6.5705   -2.5938  -21.7095 H   0  0  0  0  0  0  0  0  0  0  0  0
    7.1943    1.5036  -22.8712 H   0  0  0  0  0  0  0  0  0  0  0  0
    4.7437    0.5825  -19.4525 H   0  0  0  0  0  0  0  0  0  0  0  0
    6.6348   -3.3958  -19.4903 H   0  0  0  0  0  0  0  0  0  0  0  0
    3.0782   -0.9687  -19.4753 H   0  0  0  0  0  0  0  0  0  0  0  0
    3.1320   -4.5247  -17.2531 H   0  0  0  0  0  0  0  0  0  0  0  0
    5.1306    5.5223  -21.4305 H   0  0  0  0  0  0  0  0  0  0  0  0
    4.9081    5.4144  -23.2097 H   0  0  0  0  0  0  0  0  0  0  0  0
    7.3852    4.5535  -23.4672 H   0  0  0  0  0  0  0  0  0  0  0  0
    7.6077    4.6614  -21.6881 H   0  0  0  0  0  0  0  0  0  0  0  0
    5.4389    2.9304  -23.1908 H   0  0  0  0  0  0  0  0  0  0  0  0
    4.7683    3.5202  -16.7186 H   0  0  0  0  0  0  0  0  0  0  0  0
    6.3797    2.7493  -16.9074 H   0  0  0  0  0  0  0  0  0  0  0  0
    6.1823    4.5068  -17.2224 H   0  0  0  0  0  0  0  0  0  0  0  0
    7.4028   -6.1086  -17.2338 H   0  0  0  0  0  0  0  0  0  0  0  0
    7.4520   -5.0381  -18.6754 H   0  0  0  0  0  0  0  0  0  0  0  0
    7.3363   -4.3251  -17.0307 H   0  0  0  0  0  0  0  0  0  0  0  0
    3.3532    2.7833  -21.1138 H   0  0  0  0  0  0  0  0  0  0  0  0
    2.0453    3.2615  -18.9601 H   0  0  0  0  0  0  0  0  0  0  0  0
    2.9803    3.5904  -17.5397 H   0  0  0  0  0  0  0  0  0  0  0  0
  1  2  2  0
  1  3  1  0
  2  8  1  0
  3 10  2  0
  4  8  2  0
  4 10  1  0
  5  9  2  0
  5 11  1  0
  6  9  1  0
  6 20  2  0
  7 11  2  0
  7 20  1  0
  8  9  1  0
 10 17  1  0
 11 25  1  0
 12 17  1  0
 12 21  1  0
 12 24  2  0
 13 21  1  0
 13 22  2  0
 13 23  1  0
 14 15  1  0
 14 16  1  0
 15 16  1  0
 17 16  1  6
 17 22  1  0
 18 21  1  0
 19 25  1  0
  1 26  1  0
  2 27  1  0
  3 28  1  0
  4 29  1  0
  5 30  1  0
  6 31  1  0
  7 32  1  0
 14 33  1  0
 14 34  1  0
 15 35  1  0
 15 36  1  0
 16 37  1  0
 18 38  1  0
 18 39  1  0
 18 40  1  0
 19 41  1  0
 19 42  1  0
 19 43  1  0
 22 44  1  0
 23 45  1  0
 23 46  1  0
M  CHG  1  22   1
M  END
>  <OMEGA_C>  (34) 
V+feQHkkGL9qX7PBJnrMQEkcxb/4dKzBZS3XQCjuRj97zLHBU9GqQPD6gz53WaLByv6zQBceTcBC
RZnBVMRmQJhA7b+ENZnB+BxpQJIMdcBvOI/BcWSyQIjsjb+S6aPBAcudQIBrBMCzwJzBebm7QJz/
mj/hc6nBzTSfQEQBg8BiOZLBcO3KQJQKSkDs2p3B70WDQHBzS0Cf6ZnBEeqtQKKin0BXvrLBzxrc
QGKlj0D38bPB3T+3QKhcX0DfTrLBE7GxQKIgLEABo6fByHG2QEhRYUDLaIrBbP7gQEhkpcALV43B
SAw/QF+iLsCQqJLBPcesQKr0TkCqs5XB8NqEQFYGOECxJqTBUME7QGQTV0BAGJTBl+HxQGzZSEC6
rZzB39ayQDzLpsD4/43BNwHzQG2ha78W5rnBukHSQDEAJsD4rK3BnTfmQJt0wD8h+LbBDMyXQJUc
FT+gnpvBoFDUQKVUWcA17JvBbgBFQJ/7d79zzZvBD3NIQFvKkMBiBorB1y2kQBO3sEClcavBDw+d
QN9CrUBsrbnBjlPsQCa2kUDpvLvBVnLzQFoqlUAiga3BwwuuQNuLO0C9hrnBQ5aYQFFKYUCgv4XB
vybMQFT1L0BfQofBNNXFQF43kEBgx4nBf+PsQFN5w8DQ3onBGHfuQEI4ocAjZ5XBKMPqQD5nisDj
PojBz5pWQIUhMkD+6KjBCeYCQJ68UEBZrpfBt70+QK/JZUBjUYzBcbTYQOjNBb85xbTB8WHEQBf5
vb/mea7B8yrUQFVRVT+9QLLBjoWlQNq9iT7XQKPBGt9tQGYFBsCH9JjBZNW8QC0kSMA/UJvBk6yM
QNyAg8C9gY/BIjasQG7Qi7+Lf6XBkz2fQNotB8CL5J3BcA+5QBiwnz+bwqnBLBdaQIf4R8DZwZHB
tXLKQFCeQ0AEypzBAqWCQJlGWEC6cprBG9/BQH8ko0BS+7DBZSzqQF3Wh0Cqv7LB/B6+QJclZUCW
XLHBLAazQBqLLkBvOafBf3SxQARXZkBCAorBNbznP1pbicAy2YbBW3KzQLf3gsAMO5TBqzOqQEGp
T0B8SpXB3RSGQHucQEBWgaTBnhI6QObXc0BZqZXB0aDwQD27OkCW0JrBuCsJQKzuSMA3So3Bztbr
QHDSUr8EjbvBRTHHQIz2IcADfrDBPXvlQNhfyT9I0rbBO5aRQOJbED/2mZzBOltAQDmXp7/MpZrB
7dTbQG4rSMA5Ip/Bk2SFQIKVnMAb2YnB6U69QLYrtEBpXanBrfu0QHiXtkAikrfBOQ/6QIObh0Dw
mbrBOjEBQcAvhUA4ZazBHFSwQDzeS0Dg0LjBk4GSQETna0Dn34XBZ8nEQOk+NED6JobBt4HCQLjp
kUCxkInB+BpJP7z/hcCaw4PBCIvwPwRzpsCPxYvBINsgQCu3i8D9GoDBOxtbQAWUO0C7mqnBLP4D
QJC6dkCo7JnB5O85QAxqgkDL8o3BoTbZQDr4Db9lw7TBcSbJQLgCw78Ysq3BwZTSQBAeUD/dt7LB
0cypQDhSej5hxKLBmNFtQNtU/79wapnB0Yi5QAtgT8BW4JnBsKSAQNrAgcCtfo/BhdexQEb0j79m
mqTB1eOgQFZACMC1KZ3BXv+5QN5dnT8oyanB1+tLQMjIPsDvk5LB5tvKQFVUQ0Bt2JzBwhGDQJ/m
VUDRKJrBJ4yrQCKNYUDrYrvB/bSiQMqnmEDwqbTB1QbBQBo1a0DZXLDBTySzQJi6LUCgGKfB3fez
QIlbcUBvXIrB8NCEP+Z57r8PmZLB+mupQCZlhcBCF5PBE2arQH+IUkBTQpXBH/iFQDugO0DnH6TB
VZY6QBUyb0AYQZXB/rbxQMKCRECIf5vB13jwP17sPMCp3o7BE7vqQLNHXL8xzLvB3anOQOmfJMBK
O6/BAFXgQOCqxj9H/7fBZQqXQK0LCz9c6pvBJHRHQDKGkr+fvZvBNtHZQCt+VsBg1JzBcWpoQGvL
mcBkH4rBsTmSQDuMMUBejbzB4d6+QMaVZkAHt8LBibSvQN/Qt0AWJ7fBWA+DQBpMnUBt/bDB6Urj
QDJEe0D9hbDB5JaVQE8OeEDP/oXBzaPIQLY/Q0AWLYbBbBrEQHzsl0CrwIrB7Z8MPVbW+r/VEo/B
OXO9P2sUZ7+TLJDBJzJ2P5F4878RX5vBvBlaQJJaMkAKAqnBiJwDQKknbkAaWZnBkh47QGk7gUAx
oI3BfHvHQDeJCL9cm7bBwW66QJbav7+9Oa/Bk6jEQJFNUz/B/7PBPkGlQB76gz5+rqLBLLB1QE/K
DsArqZfB6szAQANYSsAhvJvBuUyVQO0GicAtfo/BaqCpQL5gjr94PqXBpIahQFBOCsCjUZ3Beae0
QEwInz+o56nBTEpoQE+oVcAdypDBdWzJQEwhOUCUn5vBxKmCQJqnXkB+9JrBkmG5QGhLiUAgIbjB
ptrNQJ9No0DfA6/BQUTQQJf3ZEA52K7B4dy1QNJ+LkB4pqbBQiKtQE/7aUDsvInBe/OkPxBaNcBJ
Bo/BSJu6QEjnhcAC4pTBydOnQOSCT0AE8pTB4daJQFk9TkDiH6XB+Nk3QHAie0Dk15bBbDLvQO3F
MEA/MZnBnnAcQMWoZMBhaIvBJb3TQECWVb9vUb7B0j69QJ0DI8DcLrHBOczOQP6OyD89v7nBHkaW
QKveDT/zQ5vB2KJFQOUou79XhJjBfX3eQCbCRsBrIqDBFrSQQAtoo8DQB4rBN1iWQJ6Eh0DJ2bjB
5czHQMCNiUAsKMDB1uLqQKRBtkD1iLDBKG65QII4tECSOqnBrMPvQEH/SUCO3LDB3ZyNQOwweEA+
P4bBp2y8QAgENkAWMoXB+FjBQP3FkUAtYonBdOTUPlDbRsAHI4rBO6m9P1Kq4L85PI7BqlCLPw3S
RMBqdZfB5uZoQLosVkDm/arB7QYGQAZFgkCQuZvBn98xQBMfg0ARAI/B

>  <OMEGA_E>  (34) 
ZJoJP/DXEj94kxg/NBsjPw==

>  <OMEGA_NBR>  (34) 
    148034

$$$$
50158052
     RDKit          3D

 57 59  0  0  1  0  0  0  0  0999 V2000
    6.7446    5.4335  -24.1712 C   0  0  0  0  0  0  0  0  0  0  0  0
    7.6766    5.0329  -23.1989 C   0  0  0  0  0  0  0  0  0  0  0  0
    5.4254    4.9442  -24.1233 C   0  0  0  0  0  0  0  0  0  0  0  0
    7.2885    4.1575  -22.1713 C   0  0  0  0  0  0  0  0  0  0  0  0
    5.0310    4.0680  -23.0928 C   0  0  0  0  0  0  0  0  0  0  0  0
    5.9493    3.6859  -22.0826 C   0  0  0  0  0  0  0  0  0  0  0  0
    6.2784    2.9468  -19.6636 C   0  0  0  0  0  0  0  0  0  0  0  0
    4.0612    3.4013  -19.2878 C   0  0  0  0  0  0  0  0  0  0  0  0
    6.5339   -1.6064  -21.2243 C   0  0  0  0  0  0  0  0  0  0  0  0
    7.0487   -0.6818  -22.3436 C   0  0  0  0  0  0  0  0  0  0  0  0
    5.0896   -1.2334  -20.8433 C   0  0  0  0  0  0  0  0  0  0  0  0
    6.9903    0.7951  -21.9130 C   0  0  0  0  0  0  0  0  0  0  0  0
    5.0095    0.2327  -20.3896 C   0  0  0  0  0  0  0  0  0  0  0  0
    5.5515    1.2201  -21.4689 C   0  0  0  0  0  0  0  0  0  0  0  0
    5.5015    2.7186  -20.9649 C   0  0  2  0  0  0  0  0  0  0  0  0
    6.3300   -1.6010  -15.7573 C   0  0  0  0  0  0  0  0  0  0  0  0
    7.4909   -1.0278  -16.5973 C   0  0  0  0  0  0  0  0  0  0  0  0
    7.7199    0.4841  -16.3408 C   0  0  0  0  0  0  0  0  0  0  0  0
    6.4645    1.3227  -16.6703 C   0  0  0  0  0  0  0  0  0  0  0  0
    6.7562    2.8411  -16.6133 C   0  0  0  0  0  0  0  0  0  0  0  0
    5.6375    3.6819  -17.2973 C   0  0  0  0  0  0  0  0  0  0  0  0
    5.3308    3.2722  -18.6965 N   0  0  0  0  0  0  0  0  0  0  0  0
    4.1174    3.0624  -20.5589 N   0  0  0  0  0  0  0  0  0  0  0  0
    2.8969    3.8060  -18.6428 N   0  0  0  0  0  0  0  0  0  0  0  0
    7.4757    2.7670  -19.4745 O   0  0  0  0  0  0  0  0  0  0  0  0
    7.0400    6.1159  -24.9544 H   0  0  0  0  0  0  0  0  0  0  0  0
    8.6920    5.3984  -23.2417 H   0  0  0  0  0  0  0  0  0  0  0  0
    4.7134    5.2415  -24.8790 H   0  0  0  0  0  0  0  0  0  0  0  0
    8.0159    3.8385  -21.4395 H   0  0  0  0  0  0  0  0  0  0  0  0
    4.0215    3.6846  -23.0724 H   0  0  0  0  0  0  0  0  0  0  0  0
    6.5589   -2.6488  -21.5747 H   0  0  0  0  0  0  0  0  0  0  0  0
    7.1807   -1.5010  -20.3408 H   0  0  0  0  0  0  0  0  0  0  0  0
    8.0902   -0.9469  -22.5780 H   0  0  0  0  0  0  0  0  0  0  0  0
    6.4248   -0.8200  -23.2390 H   0  0  0  0  0  0  0  0  0  0  0  0
    4.4370   -1.3773  -21.7171 H   0  0  0  0  0  0  0  0  0  0  0  0
    4.7528   -1.8843  -20.0230 H   0  0  0  0  0  0  0  0  0  0  0  0
    7.6813    0.9469  -21.0707 H   0  0  0  0  0  0  0  0  0  0  0  0
    7.3009    1.4245  -22.7601 H   0  0  0  0  0  0  0  0  0  0  0  0
    3.9585    0.4806  -20.1801 H   0  0  0  0  0  0  0  0  0  0  0  0
    5.6043    0.3513  -19.4719 H   0  0  0  0  0  0  0  0  0  0  0  0
    4.8957    1.1463  -22.3490 H   0  0  0  0  0  0  0  0  0  0  0  0
    6.2116   -2.6722  -15.9773 H   0  0  0  0  0  0  0  0  0  0  0  0
    6.5511   -1.4687  -14.6880 H   0  0  0  0  0  0  0  0  0  0  0  0
    5.3996   -1.0703  -16.0078 H   0  0  0  0  0  0  0  0  0  0  0  0
    8.4124   -1.5722  -16.3432 H   0  0  0  0  0  0  0  0  0  0  0  0
    7.2609   -1.1739  -17.6630 H   0  0  0  0  0  0  0  0  0  0  0  0
    7.9765    0.6299  -15.2811 H   0  0  0  0  0  0  0  0  0  0  0  0
    8.5531    0.8292  -16.9706 H   0  0  0  0  0  0  0  0  0  0  0  0
    6.1193    1.0643  -17.6823 H   0  0  0  0  0  0  0  0  0  0  0  0
    5.6756    1.0842  -15.9418 H   0  0  0  0  0  0  0  0  0  0  0  0
    6.8352    3.1473  -15.5597 H   0  0  0  0  0  0  0  0  0  0  0  0
    7.7100    3.0380  -17.1248 H   0  0  0  0  0  0  0  0  0  0  0  0
    4.7188    3.5833  -16.7003 H   0  0  0  0  0  0  0  0  0  0  0  0
    5.9561    4.7347  -17.3087 H   0  0  0  0  0  0  0  0  0  0  0  0
    3.3277    3.0398  -21.1720 H   0  0  0  0  0  0  0  0  0  0  0  0
    2.0354    3.8523  -19.1486 H   0  0  0  0  0  0  0  0  0  0  0  0
    2.9214    4.0505  -17.6735 H   0  0  0  0  0  0  0  0  0  0  0  0
  1  2  2  0
  1  3  1  0
  2  4  1  0
  3  5  2  0
  4  6  2  0
  5  6  1  0
  6 15  1  0
  7 15  1  0
  7 22  1  0
  7 25  2  0
  8 22  1  0
  8 23  2  0
  8 24  1  0
  9 10  1  0
  9 11  1  0
 10 12  1  0
 11 13  1  0
 12 14  1  0
 13 14  1  0
 15 14  1  6
 15 23  1  0
 16 17  1  0
 17 18  1  0
 18 19  1  0
 19 20  1  0
 20 21  1  0
 21 22  1  0
  1 26  1  0
  2 27  1  0
  3 28  1  0
  4 29  1  0
  5 30  1  0
  9 31  1  0
  9 32  1  0
 10 33  1  0
 10 34  1  0
 11 35  1  0
 11 36  1  0
 12 37  1  0
 12 38  1  0
 13 39  1  0
 13 40  1  0
 14 41  1  0
 16 42  1  0
 16 43  1  0
 16 44  1  0
 17 45  1  0
 17 46  1  0
 18 47  1  0
 18 48  1  0
 19 49  1  0
 19 50  1  0
 20 51  1  0
 20 52  1  0
 21 53  1  0
 21 54  1  0
 23 55  1  0
 24 56  1  0
 24 57  1  0
M  CHG  1  23   1
M  END
>  <OMEGA_C>  (35) 
FNTXQADfrUCYXsHBoKb1QGcNoUBMl7nBzZytQCY3nkCV/MDBxTvpQCcKhUDRXrHBl/2gQBYtgkAi
vrjBb2C+QDjla0AgqbDBCenIQKaXPEAHT53BuPWBQBauWUByTZrBxRXRQBefzb9Jy6nBi47hQAiN
Lr/Lv7LBtd2iQB7hnb8tv6bBobDfQKCMSz/sTa/BJ06gQOg/bj4AHqPBLqaxQB4tnD9kwKvB9guw
QDD+LUAOuKfBRY/KQBPtzL8ZHnzByLXvQK6Pg79Fx4TBbAn3QLTf9z7guYLB2NzOQK9PqT/UXIXB
8zLYQGXVNUD754TBOma0QPqka0DLYIrBj5WqQKxrUUBykpXBw8GDQOj+Q0CXeKTBwmY5QPaUc0CM
JJXBGDnvQLEWMUC4y5vB90fhQLa1w0CSosfBURILQU2/rEAA77nBy9OWQKq6p0ApCMfBEEEAQUWp
dUAAhKvBLLCAQJvQa0BJlLjBM+LRQOuFKcAEmazBLsjlQPohwL/huaLBcnEBQZ5mcr/Pn7TBu5fN
QEvoUb+H6bnBg/uNQE9LsL+SvK3B5RaYQOIw8b8gL6DBD831QExrcj/ZkKjBzaDpQHdUtj+qFLbB
zVh9QHMW9j7PcKHBWFazQB7hsz6IxpvBhqmcQFO5kj+nyrLBQMXGQPEFK8Avo3/BsqLRQCr9u7/g
AWvBMsmsQN4Aib/wD4DBNpkGQUQ9yb/XvoLB7FjoQPhAlr/XTY3BIT//QLw/IT9Gf3TBltkIQZNH
VD+4w4fBD9HDQL87iD9TdY3BrJ61QBPGij9vEX/B/LnaQJNsSUBv9HjBBrj2QDFuQkCI/4jBvwCX
QH5VZUAvmoXBkpi+QNKCl0AmeIrBV/lUQOKMQkA3YKnBs0QCQASMdkBCMJnBm/g6QBKegUBiY43B
CNjTQP5zsUBwfsDBfPXxQDmSpkBEnLjBPE2rQAXcnUAYicDBHGLnQA6KiECZsLDBYoqgQKaBf0C5
nrjBsAW+QAjIakBMcLDBejnJQAjsPEDxY53BSEmCQEwNXEB2nprBGFfSQFYt0L/xgarB3PzaQOTT
ML+mFrTB/J6oQPCVn7/qsaTB9incQICEST8onrDBxFupQCgJaj4aQaHBcLCxQIP3lj8+AqvBDH6w
QBIXLECSjqfBLPriQJiWEj6jq2bB+54DQdy7ez+9m3DB+VEBQejeH0DcWWvBQgbZQHr6SUBH0HPB
bO7VQGqPPEDS64XBWryzQGQUdUAxCIvBlMGqQPbNVkBZ7JXBgBKEQBoTQEBZeaTBUYI6QCygeEAn
p5XB+DDvQHhrLECc/ZvBX87bQGjfyEAbh8bBxpwIQcxLtUBopLjBm1yUQOH5pUC7q8bB/9X+QMy4
f0DkuarB5o+BQBrlYEBGyrjBhLfPQDNJKsALbq3Bwy3tQFnGxr8U2KTBDP35QISddL+orbfBMXPB
QCwYU7+jDLrBBGONQAmstL+7HKrBNgClQPyy8L8kj53BQPH2QCZxcD+JCavBnrfgQFj6tT8nt7fB
AVOKQCvp9z7io53Bye/CQFNyvj6LUZvBKpGXQMrngj++xbDBTpfnQOqNar9Dz2rBOHfjQGp2hD5o
K1XBGPzDQGmh+T6x72zBCgcTQVMUID8PUWrBe0kDQdKpWj+sCoHB4a4BQa1ZJ0C52lnBnAUPQWfA
QUAYcXLBli69QBuOLED08mvB05vZQJF5h0BHTHDBdRT1QHTBS0CnjYnB0vvNQOw/8j93e4fByEiW
QCQcckAMOobBNz6/QOXHm0CZWovBBmdVQCEsOUC/RanBSgwDQA+xeEAvpZnBwpI8QIKUhkCPFI7B
9TnSQIyDsEBy5cDB4ZXwQCojpkAJAbnB3KKpQOcPnUBNwcDBjT3mQAnMiEAT3rDBaDafQCAjf0Ap
qrjB3gG9QChza0BGebDBjqzIQMKNOECyMp3BIkmCQJpQWUDRh5rB1dvVQIhxyb8IpqrByTPdQI+f
JL/UT7TB7xarQEEjob+3GaXBKTbcQNRmVj/D+rDB5X6pQE+SWD5HqKHBv3WxQPnflz/OT6vBzy2w
QG/NK0Dzm6fBl+oPQcya0kDUbn/B2Gj1QIfE6UC5O4LBlW3kQE9930BdlY3BdQzcQIaer0ASp4/B
UKO4QG3xnEAqU4jBIlqyQIl5WUChRorBK1+pQCRmR0DVkJXBS9mDQAI7QECegaTBTP08QFD+fECl
uZXBX8TuQCycK0A3cpvB9xPaQBhpx0ArEMfBIfQHQXe5tECzMLnB5XOSQEPIpEB43cbBd8/9QD+4
gEBF4arBQDiAQOqNYEBPsbjBHXfVQHODJ8CPba3BthjwQFnot7+z4qTB+5P8QJl9Xr8R3rfBc+zD
QMNeUr85RLrB06iQQBPUur+1r6rB362nQFUi879m/53Br+32QMOGhD8TeavBy6LfQG+luz+fJrjB
6cqJQCpt2D4dOp7BJkPCQMYRxT5Uj5vBr16XQPzVhD8WGbHBoTEVQSwF20C5LW/BDH4NQfLNr0Du
PoDBcjAcQWJ33ECrhYXBTkHdQBbT30BAq3jBG6b6QEM+BkFdnIHBijPGQATr8EAEv47BEiz8QOm3
6kAqcZPBfS3SQOWQq0DdCZjBd+P5QEHVnUB/O47BScTBQD7/oUA913/BTVuaQIOkrUDb94nBnqfP
QOZhN0AT6IfBP1mXQMTPQkCqZIXBy/xUQPWQO0AZWqnB8C0HQJp6gkCx8JnBiiw/QF5hh0BjC47B
6OHUQB9ArkDLZsHBof/yQBZapEBGa7nBUvmrQCyAm0CgJcHBhiroQNoIiEDaHLHBGgmhQLkXfkAE
4bjBoaa+QGQ8a0C+n7DBBcvJQMfkPUByL53Bcm+CQN5mV0BlbZrBkP7OQMZFzr9dB6vBTbrUQLon
Lr/5wrTBU8+nQM2amr+1TKTB+WzYQPIaSz9QTbHBwZOqQM/FiD4q9KDBkU2wQJcwmz+l36rB2zix
QNWALkBNiqfB4QCzQEZJCkFPwVvBl9S7QL2x5EAmTF/BrgazQJuz2EBKuXbBRnG6QBe0qEBSNXrB
esGyQNBfnkC92YjBKMKyQO/7W0AOYorBmUyqQAITSkDelJXBgiaFQOGoRUA4mqTB7PU5QBqtcUBY
dJXBservQO/ZMUAYYZvBKSrdQFlDxEB0u8fBK0AJQSaHskCYq7nBP/GUQBj6okDHT8fBQJD/QKE5
gECeD6vBHs6BQOx+YEAn0bjBYq3KQBYvKcCZ4K3Bzc/rQGcax7/F/qXBYP/xQB7Ed78kE7nB3fC4
QPhtSr9MF7rBU52KQDkvrr+XD6nB5YCmQKEO67/IFZ3BLwb1QAI3az8/RazB/EDbQCXhtj9hc7jB
n/uMQIf1Cj/3upzBLhXGQBYjyz6pj5vBK0yUQKrEiD80FLDBKGS5QNtsDkEU80rBCPPHQAnLE0GO
OmbBhVmRQNvFDUHFjl/B93vdQHbK3UCYdlvBc+KmQBrA0UDPylTBpKSRQJ2Q4ECJr3rB06nIQBz0
6kCol4DBhYrbQM9yoEAI3nXBkx2kQPw9lkAzNnDBUaWTQKV6q0AMWIvBQFHMQMuwrEB0uo3BZB/S
QPOqQUDXHYjBE7WZQEDkPkA7YoXBDyFZQDaNR0C0t6nBUCIEQKfrd0AWtpnBf8s5QJJefkAJnY3B
rDvVQKrDrUD0dMHBWjLzQOwIpEBebbnBWUmsQMAWm0AONsHB1C3oQAzyh0DzFrHBcyWhQDvHfUBd
57jBbZ6+QIs1a0AJnLDB3LnJQObFPUCDL53BvmmCQIuAV0DWZZrBa1DPQNimzb+cHqvB58rUQGcK
LL9t1rTBZy+oQJDemr+GV6TB11TYQLHeTD/oWLHB/8WqQD6Chz6M+KDBbTuwQJxGmz9G4arBJxmx
QDKCLkCQh6fB28y4QPmrE0GCOH7B5djFQMmx+UAKVoLBToSwQJu52EDakHXB7Fe9QI44qkCXvHrB
Nm+yQGzynkC89IjB+AuzQLgIXUA+ZIrBEVKqQNw1SkBmkJXB4wyFQKawRUA1k6TB5fE5QMXBcUDb
apXBw9zvQJWuMUCsZpvBEajdQFaWw0Af0cfBYlwJQSQqskCWqrnBCWCVQFBtokD/acfBaHj/QOI+
gEDyAKvBMd+BQCZeYEDn17jBThPLQM3YKMAv/K3B6DPsQCxCxr/lHKbBnAvyQNlIdL8yLrnBv/O4
QDfQSL+ZJbrBGO+KQCvUrr9SE6nBkRenQHmX678MI53Blvj0QEVnbT9GVazBsADbQGYduD/pe7jB
ETGNQFrvCD82uJzBw1PGQN01yz4ImZvBayuUQJuriD9AELDBQBzIQA9AH0FghYTBxtGVQD1NFUGx
T3/BoyDDQI3LFkEMsG3Bz4e7QDOM80Ctm4rBrNboQNKI9kDby4HBPxu6QGvx30BFBWXB6JGNQFOv
20DFEHfB9P7fQL53pkBvR3jBhwKsQMFulEDP92/BUGOSQO8+q0DH54rBZyrKQCaTrUA1VI7ByqnS
QGG2Q0DjKojBAV6aQDKUP0CFT4XBwNpYQKWNR0DeranBmRIEQPDrd0DAqpnB/9c5QC2EfkD5k43B
FFzUQKgqrkDISsHB+FLyQA8upEChR7nBhV2rQE6Sm0CjEMHBfznnQAL6h0Cx97DBLSugQCFpfkCw
yrjB5J+9QKJba0C+g7DBsf/IQIz6O0C9QJ3BzimCQL0AW0CWd5rBum3UQBAKyb9uKqvBt8/YQAph
Ir/e5rTBBT+sQOwonr9Yj6TBSebZQJZtVz92c7HBmGasQBQHdD4qJqHBZxKxQFWjmT9lA6vBj06w
QNBVLUBeiqfB8RghQePd6kAsJYPBTjUSQVkfxEDHgYTBqJL5QBKvy0BRA33B3PrbQJEzpEDIxX3B
AKDLQE33m0BcP4rBJM+zQL+rYkBKlIrBORGqQBOqTkCGrpXBWQiEQAHRQkDjeKTBerI6QGgAeEBJ
cpXBzcjuQAvvK0C6dpvBqNDcQNwdxEBBn8fBjfMIQQYxskDugrnBMXWUQGUYo0A+QcfBbXr+QH0o
gEDN4arBrdyAQLUiYUCrv7jBxSvSQDkHJ8DH/q3BMt7wQJvour9RDqbBeaP2QMWWX79SKrnBUWO9
QHusSr/wRbrBfJyPQM5Ht79YbqnB4pKrQItw779RYJ3BYz32QIPigT8/a6zB76rbQOJVvT+fm7jB
tCyOQBjq7D4RA53B3F/HQJ/l0D4eqZvBu1GVQLH/gz81QbDBGC4wQdQB5UD3b4fBlE4ZQT/JA0Et
bYbBhnYkQSDF70CmMHXBRuoOQQZIv0D/EI3BOBIaQah6p0AlPIHBcVEAQSQ900CYMGzBOOroQNHi
5kBfOoLBZOvtQP39h0AuQ3jBFnnAQCWpqUClInPBCcm1QN7ktUDdnYzBjOHmQCfdmkAsz4/BbAPI
QCH+L0D+JIfBS/CVQPOlZ0Am94XBcKZVQEhbP0CdYanBirYDQP5ve0CXhJnB4ZQ8QEu9hEANwY3B
C23VQMnZr0AnAcHB3GjzQB27pEDtGrnBf3qsQLwZnUAd9sDBuk/oQGlPh0B6FbHB/CuhQCpWf0Ad
77jBJpK+QBxIakAhvrDBm6TJQET3P0Cvkp3BMNyCQIjjXUDXwJrBzS/PQDfg0L8LP6rBcaLYQFol
N7+n5LPBGa6lQNhmm798gaTBaO7aQDLaQz/8hrDBhXmnQIRGiD7LLqHB/cCwQGP5mD/G/6rBXLyw
QExgLUB+uKfBu+IPQeh4lz1zXWfB410GQeRQnj8rW3TBdUfjQI9Z4T+ViWnB4ljRQCizQEBU33TB
RxG9QLwQKkDDPIXBbG22QAIufEAAuYvBammsQBzhZUBYvpbBin+EQBpZQ0Drq6TBT5o6QFybb0CT
RpXBpxzvQDKGLkDSlJvB483dQN/NxkBYHcfBZ3wJQezNskAGNLnBEqmVQBRYpUBQHcfBDqn/QCHE
fEAiHqvBy96BQOYLYkAvBrnB/NXLQE29KsB9Fa3BTP/pQM4Ayb+8kKTBm3L3QEwFgb8jcrfBAwy/
QJ07Vr+U27nBrWiKQATUrr+I76nB4HqhQLD16r9TUp3B+bv1QLcYZz8k7qrBEBjgQIimsT85qrfB
XJCIQAfSDD9ko53BrATBQLQCzD6iOJvBGZ6WQKRshj9Ox7DBZ4seQVhZkr7qOG/BsLwTQXPC1z7D
HVfBPC4EQaHcPr+JdWbB9SASQWZnA0ALQnXBgZICQb3fYj/pTILBvvDKQMJjdz+W/GnBynbqQKYM
AUAlzVjBeem4QMdLXkDUlmrBZ5jrQDphbkCYiXfBSlzSQAwP/T/eponBoQWeQOujCkAZ6IPBhdOb
QAmOkEDARYjBAdPTQLRukUA0govB6VpWQNyaPkD4hqnB6BQCQCtHaEA96pjBoPQ8QDPbgUC3r43B

>  <OMEGA_E>  (35) 
xL5NP1jgTD8Ee0w/DqZHPwipRz9MhUo/+ItKPw==

>  <OMEGA_NBR>  (35) 
    133431

$$$$
50215544
     RDKit          3D

 45 48  0  0  1  0  0  0  0  0999 V2000
    6.8970   -0.5732  -22.5638 C   0  0  0  0  0  0  0  0  0  0  0  0
    6.3543   -1.5343  -21.6926 C   0  0  0  0  0  0  0  0  0  0  0  0
    6.6572    0.8010  -22.3522 C   0  0  0  0  0  0  0  0  0  0  0  0
    5.3220    0.2501  -20.4061 C   0  0  0  0  0  0  0  0  0  0  0  0
    5.6974   -3.1416  -19.1678 C   0  0  0  0  0  0  0  0  0  0  0  0
    3.6223   -1.8746  -19.2383 C   0  0  0  0  0  0  0  0  0  0  0  0
    3.7594   -3.7271  -17.8195 C   0  0  0  0  0  0  0  0  0  0  0  0
    5.5577   -1.1142  -20.6112 C   0  0  0  0  0  0  0  0  0  0  0  0
    4.9528   -2.0689  -19.6805 C   0  0  0  0  0  0  0  0  0  0  0  0
    5.8355    1.2345  -21.2781 C   0  0  0  0  0  0  0  0  0  0  0  0
    5.0882   -3.9831  -18.2243 C   0  0  0  0  0  0  0  0  0  0  0  0
    6.3138    2.9999  -19.6104 C   0  0  0  0  0  0  0  0  0  0  0  0
    4.0710    3.2066  -19.2246 C   0  0  0  0  0  0  0  0  0  0  0  0
    7.0022    4.1062  -22.7391 C   0  0  0  0  0  0  0  0  0  0  0  0
    5.6601    3.7234  -23.4138 C   0  0  0  0  0  0  0  0  0  0  0  0
    5.7448    3.8975  -21.8953 C   0  0  0  0  0  0  0  0  0  0  0  0
    5.5562    2.7105  -20.8908 C   0  0  1  0  0  0  0  0  0  0  0  0
    5.8779   -5.0942  -17.5812 C   0  0  0  0  0  0  0  0  0  0  0  0
    5.6165    3.5326  -17.2454 C   0  0  0  0  0  0  0  0  0  0  0  0
    3.0499   -2.6963  -18.3324 N   0  0  0  0  0  0  0  0  0  0  0  0
    5.3406    3.1417  -18.6329 N   0  0  0  0  0  0  0  0  0  0  0  0
    4.1446    2.8089  -20.4742 N   0  0  0  0  0  0  0  0  0  0  0  0
    2.9006    3.6000  -18.5934 N   0  0  0  0  0  0  0  0  0  0  0  0
    7.5307    3.0195  -19.4624 O   0  0  0  0  0  0  0  0  0  0  0  0
    7.5017   -0.8892  -23.4010 H   0  0  0  0  0  0  0  0  0  0  0  0
    6.5469   -2.5849  -21.8519 H   0  0  0  0  0  0  0  0  0  0  0  0
    7.1027    1.5299  -23.0130 H   0  0  0  0  0  0  0  0  0  0  0  0
    4.7306    0.5585  -19.5568 H   0  0  0  0  0  0  0  0  0  0  0  0
    6.7132   -3.3153  -19.4908 H   0  0  0  0  0  0  0  0  0  0  0  0
    3.0508   -1.0486  -19.6352 H   0  0  0  0  0  0  0  0  0  0  0  0
    3.2992   -4.3694  -17.0832 H   0  0  0  0  0  0  0  0  0  0  0  0
    7.8239    3.3762  -22.6935 H   0  0  0  0  0  0  0  0  0  0  0  0
    7.4164    5.1167  -22.8702 H   0  0  0  0  0  0  0  0  0  0  0  0
    5.1194    4.4618  -24.0242 H   0  0  0  0  0  0  0  0  0  0  0  0
    5.5269    2.7213  -23.8474 H   0  0  0  0  0  0  0  0  0  0  0  0
    5.2969    4.8361  -21.5369 H   0  0  0  0  0  0  0  0  0  0  0  0
    6.3873   -4.7113  -16.6846 H   0  0  0  0  0  0  0  0  0  0  0  0
    5.1973   -5.9099  -17.2959 H   0  0  0  0  0  0  0  0  0  0  0  0
    6.6253   -5.4727  -18.2940 H   0  0  0  0  0  0  0  0  0  0  0  0
    4.6735    3.5710  -16.6803 H   0  0  0  0  0  0  0  0  0  0  0  0
    6.2904    2.7957  -16.7841 H   0  0  0  0  0  0  0  0  0  0  0  0
    6.0927    4.5240  -17.2317 H   0  0  0  0  0  0  0  0  0  0  0  0
    3.3589    2.6030  -21.0576 H   0  0  0  0  0  0  0  0  0  0  0  0
    2.0354    3.5925  -19.0947 H   0  0  0  0  0  0  0  0  0  0  0  0
    2.9219    3.8912  -17.6370 H   0  0  0  0  0  0  0  0  0  0  0  0
  1  2  2  0
  1  3  1  0
  2  8  1  0
  3 10  2  0
  4  8  2  0
  4 10  1  0
  5  9  2  0
  5 11  1  0
  6  9  1  0
  6 20  2  0
  7 11  2  0
  7 20  1  0
  8  9  1  0
 10 17  1  0
 11 18  1  0
 12 17  1  0
 12 21  1  0
 12 24  2  0
 13 21  1  0
 13 22  2  0
 13 23  1  0
 14 15  1  0
 14 16  1  0
 15 16  1  0
 17 16  1  6
 17 22  1  0
 19 21  1  0
  1 25  1  0
  2 26  1  0
  3 27  1  0
  4 28  1  0
  5 29  1  0
  6 30  1  0
  7 31  1  0
 14 32  1  0
 14 33  1  0
 15 34  1  0
 15 35  1  0
 16 36  1  0
 18 37  1  0
 18 38  1  0
 18 39  1  0
 19 40  1  0
 19 41  1  0
 19 42  1  0
 22 43  1  0
 23 44  1  0
 23 45  1  0
M  CHG  1  22   1
M  END
>  <OMEGA_C>  (36) 
HbTcQA6+Er+rgrTBDFbLQBdjxL91iq3BBgjVQMMPTT840bLBGU6qQAgKgD7JP6PBtlC2QFUPScCi
V5nBgtRnQCLz778C6JnBPplwQEWIbsBEjo7BbdixQDuejr+u46TBCn2eQOpoBMC7cZ3Bu7y6QNMD
nj+MOarBWdKiQHTqfsBRy5HBuQrKQJn9P0Aj4pzBZEWCQAY5TUDmy5nBQhLgQKZlg0C86bXBKx+1
QHJMbkCCT7vBDtW3QOBveUCNKa/BO8yxQFl5LUBZIKfBjRe8QIYDo8BSpozBTbqzQMMVYkCK9onB
ODFDQPqQLMDPqJLBY+aqQHgRSUArEJXBU6CEQLLEM0Aqy6PBMqQ5QOhmZkBWv5TBPPvwQClAQUAT
s5vBCw7wQLGjY78vNbvBRYDRQMRvJcCs0K7BGUnjQI7Twz+lGrjB3mCXQOj6Dj9DdJzBQ9LWQKwt
VMAs7ZvBvEBDQF45hr/VFJ3BtyZTQB7Si8BfqojBQl36QBkUWEBFjLXBI1PtQFO8o0BB9rbBWdKj
QAfHjkB9McDBd9ywQIEpLkCCx77Bh4CpQC3BmkCWS6zB3GTMQPDClsAbeoXBgFCmQBAevcDtXYrB
zwLUQAwgr8ATWpLBTo2VQBSMZEBQcYXBH0vJQI7sMkDDRYbBlvfCQATFkEB02onBavhWQPGWJkDw
dajBx0MCQC3sZUDvwZjBhwA7QDMKeUCWGI3B1PnYQB32I788GLXBR4LIQG/9x7+rqa3B//3PQA8X
Oz/3BLTB1jGmQJr6hT73/qPBtdRtQKDv6L9ssJfBy0K0QIAqUcDEpJrBQxaAQKe9esB5Mo7B/f2u
QPXdjr/tB6XB6NWdQLPYBMC6D53BOba1QLnymD8WkavBaU1QQBWcL8CLEpDBVK2pQBnTWUC0/LTB
0XLiQDx8iEDqk6vB4dqEQJlHQUDoXJfByjZ5QNqXiUCr3J3BTTyDQH+ZPUB5q6PB1+2sQAKbLEDS
O6rBDKD3P+EmIcBnaIrBm6TVQFjNpUBsRb7BslelQMkShcBjY5PBxXLJQIIFjEDE47TByqfSQLZH
VUDwR6XBMCIDQQYHoUDZJanB+2eQQKXtSUDjOrzBIpXsQPSbfL/ypbvBumDPQJBcJ8BFja7B4Tfd
QCqotz8OrbnBbE+TQHwMHD8HUZ3BfolJQO4ibb/maZnB/xHSQNBGXsBSsp7BL9NoQLKGlMBefIjB
A32jQImcOEBxKpPBnNhVQKupJEB9m5LBTIs5QO6amED5vp3BXFaVQF2UokDuTZ7BHjRMQLS8IEDj
CqfBPmGPP0qWPcDYIo/Bjab7P4hUP8AbdoLBiyXhP9gNuL+LgonB8X/vQLX5u0BBDbzBL8PgQFCF
kEC5tMTBncS5QKIpuEC7EMHBC5jeQI6kRUDgHp7BKt8KQUCAnEDcPKLBiUYIQVE0t0BzT67Bx+7T
QJZLHr8pTLTBtTG/QBkwxr8Px63BCSHRQMXXPj+s57HB2euiQPzKgT6In6LB+JxkQFBsCsDUX5jB
NZS5QBLIR8BTEprBUUOIQPvohcDx+I7BhDioQMR4j78GtKTBaXCbQEJJCMBc5ZzB1Q63QAv5mT9n
W6nBGjxRQKQmTsAWW5HBRQ7KQAYBQkD2ppzBlYOCQOKJW0CNiJrBCSjCQBKWoUAD9LDB0dDqQJuR
hkAreLLBC9i+QAThYUBjQrHBPaiyQKCtLEBFEqfBvE7vP4y/WcBiI43BicywQCosZ0Bw9YnBzuav
QLm2g8AsOpPBib6pQI5JUUAPRZXBSfiFQPQkQkDzhKTBnDE6QHy9eUD655XBBwHwQJzaNkB8lJrB
LQ/mQJBGc79bKLvBDMXAQNxoJsDosq/BFADjQIimuj9BnbbBOKePQA+uFD8P8pvB3881QIV/s79f
OJrBeEbZQPwvRcD5f53B6oyAQJ/kn8CZnInBqtm8QDXNskCXZKnBAaG1QGG6tEArpLfBFlL7QNc+
hkDcPbrBYEUBQaxRhEBI/qvB/LexQAvSR0Axv7jBbMqkP+RngMBsyZLBWT/0P9oZesAfVIXBtw6y
P9bJGsCDN4zBlcGRQGvUb0Ak9IXBDpbCQCAwM0B7B4bBjFfDQMFukUBXb4nBvypbQFH8PUBQrKnB
TIQEQBNOfUByPZrBNO05QBz5hUCcPI7B

>  <OMEGA_E>  (36) 
wBbFPrEviD+ANAk/

>  <OMEGA_NBR>  (36) 
    158534

$$$$
50215905
     RDKit          3D

 50 53  0  0  1  0  0  0  0  0999 V2000
    7.2469    4.7206  -23.9254 C   0  0  0  0  0  0  0  0  0  0  0  0
    5.8623    4.7345  -23.6689 C   0  0  0  0  0  0  0  0  0  0  0  0
    8.1042    3.9168  -23.1510 C   0  0  0  0  0  0  0  0  0  0  0  0
    4.7131   -0.6515  -23.0644 C   0  0  0  0  0  0  0  0  0  0  0  0
    5.4965   -1.6915  -22.5376 C   0  0  0  0  0  0  0  0  0  0  0  0
    6.9032   -2.6916  -19.3693 C   0  0  0  0  0  0  0  0  0  0  0  0
    8.0132   -3.2256  -21.4794 C   0  0  0  0  0  0  0  0  0  0  0  0
    5.3350    3.9681  -22.6189 C   0  0  0  0  0  0  0  0  0  0  0  0
    7.5766    3.1245  -22.1213 C   0  0  0  0  0  0  0  0  0  0  0  0
    4.7335    0.6159  -22.4550 C   0  0  0  0  0  0  0  0  0  0  0  0
    7.7837   -3.5252  -18.6829 C   0  0  0  0  0  0  0  0  0  0  0  0
    8.9103   -4.0593  -20.7859 C   0  0  0  0  0  0  0  0  0  0  0  0
    6.2918   -0.1903  -20.7745 C   0  0  0  0  0  0  0  0  0  0  0  0
    7.0375   -2.5129  -20.7559 C   0  0  0  0  0  0  0  0  0  0  0  0
    6.2622   -1.4591  -21.3790 C   0  0  0  0  0  0  0  0  0  0  0  0
    6.1949    3.1744  -21.8196 C   0  0  0  0  0  0  0  0  0  0  0  0
    5.5474    0.8605  -21.3183 C   0  0  0  0  0  0  0  0  0  0  0  0
    8.8224   -4.1912  -19.3807 C   0  0  0  0  0  0  0  0  0  0  0  0
    6.3690    2.4425  -19.4031 C   0  0  0  0  0  0  0  0  0  0  0  0
    4.1627    2.8889  -19.1325 C   0  0  0  0  0  0  0  0  0  0  0  0
    5.6312    2.2654  -20.7442 C   0  0  1  0  0  0  0  0  0  0  0  0
    5.6339    2.9143  -17.0621 C   0  0  0  0  0  0  0  0  0  0  0  0
    9.6827   -5.0486  -17.2917 C   0  0  0  0  0  0  0  0  0  0  0  0
    5.3635    2.5743  -18.4660 N   0  0  0  0  0  0  0  0  0  0  0  0
    4.2620    2.6082  -20.4010 N   0  0  0  0  0  0  0  0  0  0  0  0
    3.0106    3.4582  -18.6258 N   0  0  0  0  0  0  0  0  0  0  0  0
    7.5534    2.6914  -19.1933 O   0  0  0  0  0  0  0  0  0  0  0  0
    9.7823   -4.9535  -18.7355 O   0  0  0  0  0  0  0  0  0  0  0  0
    7.6527    5.3295  -24.7198 H   0  0  0  0  0  0  0  0  0  0  0  0
    5.2061    5.3355  -24.2808 H   0  0  0  0  0  0  0  0  0  0  0  0
    9.1658    3.9102  -23.3493 H   0  0  0  0  0  0  0  0  0  0  0  0
    4.0970   -0.8245  -23.9344 H   0  0  0  0  0  0  0  0  0  0  0  0
    5.5114   -2.6596  -23.0162 H   0  0  0  0  0  0  0  0  0  0  0  0
    6.1158   -2.1818  -18.8340 H   0  0  0  0  0  0  0  0  0  0  0  0
    8.0723   -3.1336  -22.5539 H   0  0  0  0  0  0  0  0  0  0  0  0
    4.2736    3.9830  -22.4197 H   0  0  0  0  0  0  0  0  0  0  0  0
    8.2274    2.4736  -21.5562 H   0  0  0  0  0  0  0  0  0  0  0  0
    4.1234    1.4116  -22.8564 H   0  0  0  0  0  0  0  0  0  0  0  0
    7.6747   -3.6641  -17.6175 H   0  0  0  0  0  0  0  0  0  0  0  0
    9.6700   -4.6011  -21.3297 H   0  0  0  0  0  0  0  0  0  0  0  0
    6.8897   -0.0273  -19.8899 H   0  0  0  0  0  0  0  0  0  0  0  0
    4.6854    2.9640  -16.5071 H   0  0  0  0  0  0  0  0  0  0  0  0
    6.2796    2.1435  -16.6161 H   0  0  0  0  0  0  0  0  0  0  0  0
    6.1394    3.8900  -17.0120 H   0  0  0  0  0  0  0  0  0  0  0  0
   10.4992   -5.6780  -16.9080 H   0  0  0  0  0  0  0  0  0  0  0  0
    9.7574   -4.0430  -16.8521 H   0  0  0  0  0  0  0  0  0  0  0  0
    8.7156   -5.4967  -17.0198 H   0  0  0  0  0  0  0  0  0  0  0  0
    3.5005    2.6264  -21.0490 H   0  0  0  0  0  0  0  0  0  0  0  0
    2.2426    3.6589  -19.2341 H   0  0  0  0  0  0  0  0  0  0  0  0
    2.9445    3.6698  -17.6507 H   0  0  0  0  0  0  0  0  0  0  0  0
  1  2  2  0
  1  3  1  0
  2  8  1  0
  3  9  2  0
  4  5  2  0
  4 10  1  0
  5 15  1  0
  6 11  2  0
  6 14  1  0
  7 12  1  0
  7 14  2  0
  8 16  2  0
  9 16  1  0
 10 17  2  0
 11 18  1  0
 12 18  2  0
 13 15  2  0
 13 17  1  0
 14 15  1  0
 21 16  1  6
 17 21  1  0
 18 28  1  0
 19 21  1  0
 19 24  1  0
 19 27  2  0
 20 24  1  0
 20 25  2  0
 20 26  1  0
 21 25  1  0
 22 24  1  0
 23 28  1  0
  1 29  1  0
  2 30  1  0
  3 31  1  0
  4 32  1  0
  5 33  1  0
  6 34  1  0
  7 35  1  0
  8 36  1  0
  9 37  1  0
 10 38  1  0
 11 39  1  0
 12 40  1  0
 13 41  1  0
 22 42  1  0
 22 43  1  0
 22 44  1  0
 23 45  1  0
 23 46  1  0
 23 47  1  0
 25 48  1  0
 26 49  1  0
 26 50  1  0
M  CHG  1  25   1
M  END
>  <OMEGA_C>  (37) 
fubnQIUPl0A5Z7/BUJi7QCiBl0DZWb3BoaoBQUWtekBENbnBWNGWQO3IJr/Mg7jBNOOvQHCE2L/4
TLTByObcQOlCLMA89JrBCDYAQQZxTsDb1avBCLiqQOz1fUCO87TB1HPyQLr3R0Bi+LDBJHmXQFeu
HT/go7PBSBT5QL6cYcCfdpXByZAOQbrlgcBySabB0FbJQFzYQr4eMqbBDDPhQIvTIMAsDKbBPGTI
QIDDur88CKvBrDzGQCUpS0CSjq7BBISxQFdLXD/si6rBgygNQS4ehsCUC5vBBM/LQHtSHECmOZvB
jDSFQI/jOEBxD5nBaDK0QBz8EEAu9KXB4Ei0QOiDOkAgf4jBUuwaQSaOocByVYrBMKKrQB/BJEB0
upPB7GGIQG/tJkBWNaPBSK1AQLZTXUCeAZXBFLXxQGNALED6i5nBZIQcQSiDnsBb4pXBhOL0QO+K
qkAxwsXBUZimQMm8qkAnP8LB/aYSQUtBekB3y7rBqRqDQEQSU7+feb/BLF2wQDQ2KsBHIbjBjrTD
QJmiC8Duq5bBISgBQdKMSMBSbrTBVsGIQHzpfkCRW7PBb6MDQRVQHkAjc6zBKfODQPKutD/u2bbB
G5f1QGyBasCQ8IzBNrgaQW48k8BGo6rBiHjcQDD937yVHp/BNO+VQAKyPUCRDoTBc/LIQAwvCUCu
7YTB/HXEQIL1eECgGIjBmPwnQf+xtcCLQ4fBYB4cQXpggcAt0YbBMnMLQSrlr8B7KIjBbwhgQJsW
KEBoZKjBc4cPQMUqakBp35nB0nI8QFndakCJNI3BcCrpQJ8Al0BiE7/Bh1oBQQuGcECi4bnBHPC9
QBtZnEAsKbzBkMGYQBfsLb83b7jBJPmxQLr62b+W+7PBbl7+QPPSVMD0WqvBGJLjQL2IIcD2JprB
yg3xQPgAPkDLu7HBsEGsQJ12g0A47rPBFEWYQK0lGD9oqbPBd2sNQVvGhcA+7KXBpsv/QLtpV8C8
xpTB4FLJQJw5Mr5O5qXBNFPjQOuFHsB2aKXB7JLJQJaVub+SlKrBiAPGQIAHSkAJka7BgFqxQJlG
Wz9ic6rBRBgOQfM2hsBHm5rBoKfLQIMWHUAvYZvB9BmFQB6HOUCUEpnBQJKzQNfQEECc+qXBuPK0
QOuYPECSn4jB0GAeQbGXncCbDYrBwNGrQD4aJkBYzpPBHM2HQMhBJkBeMqPBaMxAQDJjXkCG/ZTB
YM3xQIgvLEBM8JnBAb0cQTzfoMCMnZXB6sX2QNqXqkDxU8XBTOQRQQ5PaEBjKrzBS2OqQICis0Ck
RMDBrNGFQEvyXr9nf7/BEkGzQE8zK8AIvLfBVkX9QMh4VMCm/bPBLrvNQN+c87//qJXBvi4CQafD
DUDs3K3BlB6LQDiHh0CAsrHBu6mEQOJKsD9aCbfBqeMXQdOOmsBFbKrBLgQAQbXFWMBgI4zBMMTb
QK3tLzxpvp7BYcmWQFokQECyG4TB+7vJQNt2C0CtDoXBvCvFQP4He0DGVIjBZHsqQUZPtMCbIIfB
oxcjQdStecCa2ofBWMwOQc8ipcCFa4bB62leQG1BJkCaUKjBYDEPQLaEakD3z5nBskE9QMDxbEBt
No3BiWvgQHYkm0D7O8DBBXe0QCrjkkCV777BdAn+QCirikD907jBB++4QChEKb+DtrnBQC+zQKwT
4L/O8bLBLMn6QMo+M8DCQajB/j3MQEzHSMBJwpjBAQWmQKzVdEDGMrbBl8/vQH6sY0AuI7DBTka8
QNCNHz8odLXBV4YNQTyzY8BLjKPBg+3sQPy1esB6B5TB4TC1QBC6i76TZKPBFczTQNJpI8DB06LB
mH23QLSzyb9/16fBZorDQOGtU0BHnK7BAt23QIovWj8iT6rBVoYKQeKFgsAJMpnBlsDLQBAjIUCf
ipvBiqmFQHYTSEDKwZnBd4q0QGrHEkBVFabBzKK2QL5jZEBzBYrB9ugvQdlxgsBmvpTBBaauQEak
TEAxNJXByK+HQAwAI0C7KaPBRBFAQPQnZUDgH5XBnGfwQAqhDEAEJpnB6g4bQbX6lsCe5pPBsmnr
QD0drkCp6cbBS8KdQFFan0DWp8TB4uEPQcgXkUBw0LnBwM66QL9hT7/yQcLBNHurQO00LsBhMbbB
+4v/QOJMGcAYLbDByQyuQNuBP8Cst5TBHTyEQG1jaEAcQbXBs2YDQd59SUAelKrBQlLCQO+Suj82
urrBj0EcQRimb8Bmz6fB2kvnQBmkjMDBaIzBZnaxQD0HDb4k35rBlJeaQM8ng0COz4bBLnq8QD5F
KkBcRoXBUtbSQMcwh0BMmInBsdE7QZ42lcB6RpDBIKc0QTmlgMDNNJ3B+gEvQa/oQ8BaY5HBeclc
QIX1E0BJsKfB1nQIQLJeXkD+/ZjBBG5BQMVzgEDl6o3B

>  <OMEGA_E>  (37) 
0J93P+jEdz+KClY/

>  <OMEGA_NBR>  (37) 
     52699

$$$$
50158057
     RDKit          3D

 57 60  0  0  1  0  0  0  0  0999 V2000
    6.5830    4.3922  -24.1766 C   0  0  0  0  0  0  0  0  0  0  0  0
    8.0220   11.6073  -20.4138 C   0  0  0  0  0  0  0  0  0  0  0  0
    6.2641    3.4310  -23.2005 C   0  0  0  0  0  0  0  0  0  0  0  0
    6.7687    5.7369  -23.8084 C   0  0  0  0  0  0  0  0  0  0  0  0
    8.1395   10.1629  -20.1213 C   0  0  0  0  0  0  0  0  0  0  0  0
    6.2085    5.1760  -21.5110 C   0  0  0  0  0  0  0  0  0  0  0  0
    6.9583   11.7778  -21.2704 C   0  0  0  0  0  0  0  0  0  0  0  0
    6.0960    3.8127  -21.8426 C   0  0  0  0  0  0  0  0  0  0  0  0
    6.6028    6.1352  -22.4656 C   0  0  0  0  0  0  0  0  0  0  0  0
    7.1495    9.5148  -20.8237 C   0  0  0  0  0  0  0  0  0  0  0  0
    6.4105    3.2275  -19.4046 C   0  0  0  0  0  0  0  0  0  0  0  0
    4.1333    3.3006  -19.1283 C   0  0  0  0  0  0  0  0  0  0  0  0
    6.9115    8.0762  -20.8775 C   0  0  0  0  0  0  0  0  0  0  0  0
    5.6305   -1.6376  -21.1243 C   0  0  0  0  0  0  0  0  0  0  0  0
    6.7788   -1.0032  -20.3182 C   0  0  0  0  0  0  0  0  0  0  0  0
    5.2576   -0.7655  -22.3388 C   0  0  0  0  0  0  0  0  0  0  0  0
    6.4296    0.4289  -19.8779 C   0  0  0  0  0  0  0  0  0  0  0  0
    4.8862    0.6524  -21.8817 C   0  0  0  0  0  0  0  0  0  0  0  0
    6.0716    1.3195  -21.1069 C   0  0  0  0  0  0  0  0  0  0  0  0
    5.7317    2.8157  -20.7206 C   0  0  2  0  0  0  0  0  0  0  0  0
    5.2773   10.2521  -22.3513 C   0  0  0  0  0  0  0  0  0  0  0  0
    5.5631    3.8801  -17.1114 C   0  0  0  0  0  0  0  0  0  0  0  0
    6.4548   10.5120  -21.4795 N   0  0  0  0  0  0  0  0  0  0  0  0
    5.3795    3.3797  -18.4842 N   0  0  0  0  0  0  0  0  0  0  0  0
    4.2989    2.9824  -20.3942 N   0  0  0  0  0  0  0  0  0  0  0  0
    2.8940    3.5129  -18.5344 N   0  0  0  0  0  0  0  0  0  0  0  0
    6.8098    7.4835  -22.1448 N   0  0  0  0  0  0  0  0  0  0  0  0
    7.6117    3.3784  -19.2032 O   0  0  0  0  0  0  0  0  0  0  0  0
    6.8587    7.4624  -19.8178 O   0  0  0  0  0  0  0  0  0  0  0  0
    6.6854    4.0972  -25.2105 H   0  0  0  0  0  0  0  0  0  0  0  0
    8.6574   12.3892  -20.0247 H   0  0  0  0  0  0  0  0  0  0  0  0
    6.1462    2.3959  -23.4853 H   0  0  0  0  0  0  0  0  0  0  0  0
    7.0395    6.4671  -24.5566 H   0  0  0  0  0  0  0  0  0  0  0  0
    8.8698    9.7004  -19.4739 H   0  0  0  0  0  0  0  0  0  0  0  0
    5.9879    5.4942  -20.5028 H   0  0  0  0  0  0  0  0  0  0  0  0
    6.5958   12.7050  -21.6891 H   0  0  0  0  0  0  0  0  0  0  0  0
    5.9455   -2.6304  -21.4780 H   0  0  0  0  0  0  0  0  0  0  0  0
    4.7499   -1.7426  -20.4735 H   0  0  0  0  0  0  0  0  0  0  0  0
    6.9704   -1.6159  -19.4249 H   0  0  0  0  0  0  0  0  0  0  0  0
    7.6829   -0.9750  -20.9442 H   0  0  0  0  0  0  0  0  0  0  0  0
    6.1158   -0.7126  -23.0249 H   0  0  0  0  0  0  0  0  0  0  0  0
    4.3994   -1.2157  -22.8592 H   0  0  0  0  0  0  0  0  0  0  0  0
    5.5680    0.3953  -19.1949 H   0  0  0  0  0  0  0  0  0  0  0  0
    7.2940    0.8659  -19.3565 H   0  0  0  0  0  0  0  0  0  0  0  0
    4.6439    1.2631  -22.7639 H   0  0  0  0  0  0  0  0  0  0  0  0
    4.0087    0.5991  -21.2204 H   0  0  0  0  0  0  0  0  0  0  0  0
    6.9439    1.3380  -21.7767 H   0  0  0  0  0  0  0  0  0  0  0  0
    5.0614    9.1736  -22.3649 H   0  0  0  0  0  0  0  0  0  0  0  0
    4.4046   10.7956  -21.9601 H   0  0  0  0  0  0  0  0  0  0  0  0
    5.4950   10.5953  -23.3734 H   0  0  0  0  0  0  0  0  0  0  0  0
    4.5916    3.9028  -16.5959 H   0  0  0  0  0  0  0  0  0  0  0  0
    6.2510    3.2157  -16.5680 H   0  0  0  0  0  0  0  0  0  0  0  0
    5.9841    4.8958  -17.1448 H   0  0  0  0  0  0  0  0  0  0  0  0
    3.5530    2.8682  -21.0503 H   0  0  0  0  0  0  0  0  0  0  0  0
    2.0582    3.4259  -19.0766 H   0  0  0  0  0  0  0  0  0  0  0  0
    2.8385    3.7527  -17.5652 H   0  0  0  0  0  0  0  0  0  0  0  0
    6.8967    8.1058  -22.9227 H   0  0  0  0  0  0  0  0  0  0  0  0
  1  3  2  0
  1  4  1  0
  2  5  1  0
  2  7  2  0
  3  8  1  0
  4  9  2  0
  5 10  2  0
  6  8  2  0
  6  9  1  0
  7 23  1  0
  8 20  1  0
  9 27  1  0
 10 13  1  0
 10 23  1  0
 11 20  1  0
 11 24  1  0
 11 28  2  0
 12 24  1  0
 12 25  2  0
 12 26  1  0
 13 27  1  0
 13 29  2  0
 14 15  1  0
 14 16  1  0
 15 17  1  0
 16 18  1  0
 17 19  1  0
 18 19  1  0
 20 19  1  6
 20 25  1  0
 21 23  1  0
 22 24  1  0
  1 30  1  0
  2 31  1  0
  3 32  1  0
  4 33  1  0
  5 34  1  0
  6 35  1  0
  7 36  1  0
 14 37  1  0
 14 38  1  0
 15 39  1  0
 15 40  1  0
 16 41  1  0
 16 42  1  0
 17 43  1  0
 17 44  1  0
 18 45  1  0
 18 46  1  0
 19 47  1  0
 21 48  1  0
 21 49  1  0
 21 50  1  0
 22 51  1  0
 22 52  1  0
 22 53  1  0
 25 54  1  0
 26 55  1  0
 26 56  1  0
 27 57  1  0
M  CHG  1  25   1
M  END
>  <OMEGA_C>  (38) 
/afSQKOMjEC+acHBDFoAQYe3OUF1T6PBKXPIQPuUW0CZmrnBiZnYQGiUt0CFd77BlDsCQTqbIkFf
+KDBHKzGQOyhpUCbFqzBnareQOJxPEHKKarBKxLDQNUDdECava7BG0rTQIdTxECdubPBe8jkQKM8
GEHllqbBuCLNQKaOTkC3PJvBY0SEQAY9U0DUBpnBDSvdQB84AUEfBafB6iy0QJyc0b+Q/qjBCuzY
QH1qgL+4i6LBkD6oQDD4Q7/1tbLB9b7NQOyY2z73BZ/BjFucQFEEJz+qDa/BqErCQKjkqD/j2qjB
82m3QO00NEDIw6XBP9+oQLEIJEFez7LBlgSyQM9TeEAo5IjB343OQFUxKEEI1qvB0iSsQBlNWECW
35PB9JCJQCPgPkBNJ6PBjTY5QPfTYECKRpTBRurZQJR470CMKLHBFJPzQDI4WEAzoJnBj3rbQNvL
7kDyip7BJu/VQF4cg0Ahr8nBpYQKQf45RkGkMqDBh63EQAtWGUDM4bvBLkPhQIbyzkDsc8TB5+oN
Qbc0G0GAypvBgZy/QGfQr0DNBaTBFBHTQK9HS0FGg63BMEG+QJFYKMD30qvBIP+XQJoM37+5yaPB
VA3fQGfVzr8/ZpvB+dn1QGubeb/RjafB9LTDQAlsNr8GM7jB/MeMQB+bm7+137bB7yyyQBdgyj4U
j5nBQmjpQGuqXT8w2prBiJqUQLmtoT93HLbBiUeAQGJcGT9uw6nB1DTeQBlFqz+4Nq7BTPehQAPH
EkFX67LBGPKMQOK6LEFKrq/BPNevQHCGKUG7/LrBc+6SQJTHeUBcxITB2AfIQH3NTUA7i4TB9X2/
QEyqnEB0KInBCWRjQDiQN0AFZ6jB17kDQJ9BW0DvnJjBO6k1QPwrcECFhYzBmLHcQHCxAUG0YbfB
JsHOQFOLi0BJvsHBXlH9QEynOkF74KrBPLbFQG6tW0Cln7nBdsTWQHZztkDmJ7/Byun9QAiPJUFz
PbDBYfLLQDhGpkCNPqzB+pr5QE4iN0FtDaDB+BDEQBA/dUCntq7BP4TWQOG6w0BfarTB4ur7QNIK
FkH0bKjBWRrNQIMlT0AxJ5vBsjSEQOuiUkAC/pjBw7D5QDOk/UAbEqrBxvWzQG9o0b9h+KjBqRrZ
QOazf7+1rKLBoQinQEP7Qb9OkbLBBTzOQLHs3j5jFJ/ByUObQJLLJz9mvK7B2OjBQGlGqj/F1KjB
uK63QLKxNUDOtaXBHlHyQMOZFkF5XpTBbamxQHyUdUBzuojBWnr4QBMwIUFJ6Z7BFv+rQIVyV0CA
zJPBdMmJQIIcQUA6MaPBgdc4QOEwXkCNN5TBkGDfQH+Y7kAYPbLBwYrzQMzdV0A6d5nB8IQHQbOj
5UCAa6TBjonPQPRRgUCH/snBiWv/QIsNSkHewq7Bruu/QM2UGUAHsrvBQSXdQDdYzUDGbcXB/pv/
QFXPIkFtwrjBUtnJQAQSsUCyDaTBm+73QEoCQ0EvypnB9Qa+QIjtJ8A96avBuT6YQIxG4L8QoKPB
ar3fQHpVzr8xj5vBu631QCNKeL/wzqfBM/zBQOv0Mb+2NLjBPEWLQL+fmr+MmrbBPiezQIBFzT75
dpnBg0PqQOYCXz90DpvBblqSQC5soj81sbXBRex/QHAjFz/PNKnBfjrdQOyzqz81Ya7BLIfyQEYh
BUHDbpXBDTIGQbdDG0HJ747B+HjTQF2UG0HD75DBwIKSQH8qdkCfoYTBEqnHQDpqSkDleYTBMw+/
QNZWm0AxzojBbTpkQD8pPEAZiqjBP4IDQB9JWUC0mJjBwfc0QEdna0CCZ4zB257RQAQ7AkHD9bbB
6UjKQBtbjEA4osHBpC4HQT5zNkETLqnBf4e8QFLZXEAS9rnBcBLZQHHctEAiYr7BPtP5QMTVIkGf
T63BpIjKQO8AokAg4KvBj20PQY/dMUEpPp/BLX6+QPDZcEBg5K7B2R3ZQJ4fwEDQc7PBlc/9QDEv
E0GXnaXBoMXJQIx1QECEl5vBAm2CQBxwWkAku5jBCuntQHpU+kCsZKbB5K7XQKG1wL/8VajBKT/n
QPLTCL/mErHBRIepQC4klr/V2KTBgDDkQLQzaj83IK3B49+lQAkdkT429KDBBDW1QKKwoj8cxKnB
VA6xQMA4MUBZEqbBA1QRQTVjEUHmgZPBfK+0QG7KbUC46YjBrnAKQTK0HEHpap3B8uOqQLpDUkD7
65PBmJCEQO5YRUC076LBOjo6QLhMc0BDhZPBJuTmQAhe6UAUpLDBlaTwQGi8P0AnOJrBB2zpQDLT
5UCOHZ7B4X7JQPQ8hECVB8rB9Q4IQY2tRUGGPa3BQWuwQKtjH0DngLzB3G7kQP5qy0DsR8TB+2zq
QG8TIUHn/rTBw5XIQH8kq0CrjqPBTP4XQSKTPEFe/JnBW5rYQNESIsCce6vBff7sQADPtr/8W6HB
Sl0EQcCoQ7+IErPBBDjTQGp/J78uP7jBtuWTQH/dqL+jsKvB8C6gQFKS7L8CTp7Bmmv5QJuUhT/F
LqbBCVbuQBatyz/ilbPBlkiEQEEIAD/b+Z7B4Mu5QNz10z5HxpnBLJegQKpBkT+k0LDBU6ALQTS+
AEEmvJPBnuUiQbqKEUE3/ZLB24wKQb+GGUGyeozBX6yWQAyid0B4e4TBadrHQHw5PEDZ5oTBg9rG
QO8HlUAnI4nBVOhWQBZBQ0Bj46fBnvwCQKEOdkCti5fBPNE7QFA1gUDdv4vBn2/sQANM/UCavrbB

>  <OMEGA_E>  (38) 
kNdlP4SHZT86N2M/

>  <OMEGA_NBR>  (38) 
     76480

$$$$
50222406
     RDKit          3D

 42 44  0  0  1  0  0  0  0  0999 V2000
    6.6209    5.4222  -24.1847 C   0  0  0  0  0  0  0  0  0  0  0  0
    7.5689    5.1169  -23.1916 C   0  0  0  0  0  0  0  0  0  0  0  0
    5.3437    4.8334  -24.1434 C   0  0  0  0  0  0  0  0  0  0  0  0
    7.2371    4.2357  -22.1470 C   0  0  0  0  0  0  0  0  0  0  0  0
    5.0074    3.9511  -23.1012 C   0  0  0  0  0  0  0  0  0  0  0  0
    5.9389    3.6650  -22.0722 C   0  0  0  0  0  0  0  0  0  0  0  0
    6.3092    2.9906  -19.6389 C   0  0  0  0  0  0  0  0  0  0  0  0
    4.0919    3.4642  -19.3176 C   0  0  0  0  0  0  0  0  0  0  0  0
    6.4778   -1.6279  -21.4474 C   0  0  0  0  0  0  0  0  0  0  0  0
    6.7192   -0.6619  -22.6268 C   0  0  0  0  0  0  0  0  0  0  0  0
    5.2339   -1.2259  -20.6305 C   0  0  0  0  0  0  0  0  0  0  0  0
    6.8251    0.7996  -22.1468 C   0  0  0  0  0  0  0  0  0  0  0  0
    5.3277    0.2394  -20.1658 C   0  0  0  0  0  0  0  0  0  0  0  0
    5.5423    1.2045  -21.3756 C   0  0  0  0  0  0  0  0  0  0  0  0
    5.5390    2.7122  -20.9322 C   0  0  2  0  0  0  0  0  0  0  0  0
    5.6271    3.7264  -17.3293 C   0  0  0  0  0  0  0  0  0  0  0  0
    5.3757    3.5164  -18.7597 N   0  0  0  0  0  0  0  0  0  0  0  0
    4.1560    3.0414  -20.5541 N   0  0  0  0  0  0  0  0  0  0  0  0
    2.9062    3.7946  -18.6804 N   0  0  0  0  0  0  0  0  0  0  0  0
    7.4809    2.7332  -19.3830 O   0  0  0  0  0  0  0  0  0  0  0  0
    6.8733    6.1089  -24.9791 H   0  0  0  0  0  0  0  0  0  0  0  0
    8.5531    5.5598  -23.2313 H   0  0  0  0  0  0  0  0  0  0  0  0
    4.6207    5.0594  -24.9131 H   0  0  0  0  0  0  0  0  0  0  0  0
    7.9745    3.9913  -21.3967 H   0  0  0  0  0  0  0  0  0  0  0  0
    4.0319    3.4880  -23.0850 H   0  0  0  0  0  0  0  0  0  0  0  0
    6.3325   -2.6442  -21.8424 H   0  0  0  0  0  0  0  0  0  0  0  0
    7.3581   -1.6132  -20.7880 H   0  0  0  0  0  0  0  0  0  0  0  0
    7.6557   -0.9412  -23.1317 H   0  0  0  0  0  0  0  0  0  0  0  0
    5.8817   -0.7459  -23.3349 H   0  0  0  0  0  0  0  0  0  0  0  0
    4.3377   -1.3479  -21.2565 H   0  0  0  0  0  0  0  0  0  0  0  0
    5.1566   -1.8786  -19.7484 H   0  0  0  0  0  0  0  0  0  0  0  0
    7.6959    0.9017  -21.4825 H   0  0  0  0  0  0  0  0  0  0  0  0
    6.9490    1.4600  -23.0178 H   0  0  0  0  0  0  0  0  0  0  0  0
    4.3951    0.5125  -19.6503 H   0  0  0  0  0  0  0  0  0  0  0  0
    6.1742    0.3417  -19.4709 H   0  0  0  0  0  0  0  0  0  0  0  0
    4.6911    1.0657  -22.0583 H   0  0  0  0  0  0  0  0  0  0  0  0
    4.7297    4.1531  -16.8575 H   0  0  0  0  0  0  0  0  0  0  0  0
    5.8686    2.7640  -16.8544 H   0  0  0  0  0  0  0  0  0  0  0  0
    6.4720    4.4195  -17.2036 H   0  0  0  0  0  0  0  0  0  0  0  0
    3.3676    2.9534  -21.1628 H   0  0  0  0  0  0  0  0  0  0  0  0
    2.0371    3.7149  -19.1686 H   0  0  0  0  0  0  0  0  0  0  0  0
    2.9198    4.1127  -17.7324 H   0  0  0  0  0  0  0  0  0  0  0  0
  1  2  2  0
  1  3  1  0
  2  4  1  0
  3  5  2  0
  4  6  2  0
  5  6  1  0
  6 15  1  0
  7 15  1  0
  7 17  1  0
  7 20  2  0
  8 17  1  0
  8 18  2  0
  8 19  1  0
  9 10  1  0
  9 11  1  0
 10 12  1  0
 11 13  1  0
 12 14  1  0
 13 14  1  0
 15 14  1  6
 15 18  1  0
 16 17  1  0
  1 21  1  0
  2 22  1  0
  3 23  1  0
  4 24  1  0
  5 25  1  0
  9 26  1  0
  9 27  1  0
 10 28  1  0
 10 29  1  0
 11 30  1  0
 11 31  1  0
 12 32  1  0
 12 33  1  0
 13 34  1  0
 13 35  1  0
 14 36  1  0
 16 37  1  0
 16 38  1  0
 16 39  1  0
 18 40  1  0
 19 41  1  0
 19 42  1  0
M  CHG  1  18   1
M  END
>  <OMEGA_C>  (39) 
IN7TQNqCrUAyesHBDjTyQH29o0BeiLnB8f+qQFOrmkCuJcHB95XnQJuKh0AVLbHBnDygQAbefEBW
z7jBGgu+QL6OakDtk7DBvuTJQLRmP0B0HJ3BO/GCQC62XUBhiprBUUrPQHpf0L9blKvB5gPXQJl0
Kb+nA7XBs3unQK7qnL8yC6XBXWfaQJa0TD++LLHBVnyqQPgodT6EU6HBy1qxQGEumj9JAavBID+x
QFaVLUAXdafBnBG0QHR9bkBroorBkAWsQFIMYUDwE5bBLv6EQN6lQkDCbqTBIv85QO7ackBjcZXB
NGPvQGztLkBfEJvBb/LbQNR7w0BD1cfBUNkIQdvpsUCf2bnBbtyTQD/moUAbTsfBwC7/QEByf0B5
LKvB+gSBQLU6X0ANrrjBdqPKQPU6KcA1va7Bl3XrQIN+zr/ITabBy/v0QFnxcL/IDbnByTa8QO70
Pr/xrbrBCs6KQL+IrL9aDarBzQKlQGx28L/C/J3Bq0T2QMTUZj8q3KvBmF7eQLTfuj+GJLjBvqSM
QO00Az/MM53BYZPFQCL1rj5kxJvBVx2WQEhoiD94d7DBA1qXQPXlhEAk3IbBK8u7QKLlMEDU1YbB
/xrPQFZsjUDroInBBYZXQEoEPUB3TanBhGACQLXAbUBRWZnBkd06QCObg0Dz243B

>  <OMEGA_E>  (39) 
jLoRPw==

>  <OMEGA_NBR>  (39) 
    224064

$$$$
50222500
     RDKit          3D

 54 58  0  0  1  0  0  0  0  0999 V2000
    6.9787    4.2116  -22.2623 C   0  0  0  0  0  0  0  0  0  0  0  0
    4.7210    3.8972  -23.1139 C   0  0  0  0  0  0  0  0  0  0  0  0
    7.1995    5.2169  -23.2266 C   0  0  0  0  0  0  0  0  0  0  0  0
    4.9437    4.8956  -24.0791 C   0  0  0  0  0  0  0  0  0  0  0  0
    5.7123    3.5751  -22.1524 C   0  0  0  0  0  0  0  0  0  0  0  0
    6.1771    5.5938  -24.1207 C   0  0  0  0  0  0  0  0  0  0  0  0
    6.1035    3.0928  -19.6774 C   0  0  0  0  0  0  0  0  0  0  0  0
    3.8547    3.2730  -19.3015 C   0  0  0  0  0  0  0  0  0  0  0  0
    6.5831   -1.6254  -20.5199 C   0  0  0  0  0  0  0  0  0  0  0  0
    4.1073   -1.6231  -20.9986 C   0  0  0  0  0  0  0  0  0  0  0  0
    5.7780   -1.3567  -22.8837 C   0  0  0  0  0  0  0  0  0  0  0  0
    5.1545    0.3175  -19.8106 C   0  0  0  0  0  0  0  0  0  0  0  0
    6.8168    0.6242  -21.7074 C   0  0  0  0  0  0  0  0  0  0  0  0
    4.3459    0.6034  -22.1945 C   0  0  0  0  0  0  0  0  0  0  0  0
    5.1925   -1.2139  -19.9847 C   0  0  2  0  0  0  0  0  0  0  0  0
    6.8648   -0.9247  -21.8764 C   0  0  1  0  0  0  0  0  0  0  0  0
    4.3796   -0.9388  -22.3648 C   0  0  2  0  0  0  0  0  0  0  0  0
    5.3451    2.6677  -20.9404 C   0  0  2  0  0  0  0  0  0  0  0  0
    5.4250    1.0845  -21.1675 C   0  0  1  0  0  0  0  0  0  0  0  0
    5.3779    3.5437  -17.3131 C   0  0  0  0  0  0  0  0  0  0  0  0
    5.3110    7.1728  -25.7428 C   0  0  0  0  0  0  0  0  0  0  0  0
    5.1302    3.4478  -18.7557 N   0  0  0  0  0  0  0  0  0  0  0  0
    3.9527    3.0092  -20.5784 N   0  0  0  0  0  0  0  0  0  0  0  0
    2.6503    3.3461  -18.6183 N   0  0  0  0  0  0  0  0  0  0  0  0
    7.2953    2.9438  -19.4291 O   0  0  0  0  0  0  0  0  0  0  0  0
    6.4375    6.6349  -25.0053 O   0  0  0  0  0  0  0  0  0  0  0  0
    7.7810    3.9221  -21.5998 H   0  0  0  0  0  0  0  0  0  0  0  0
    3.7800    3.3673  -23.1049 H   0  0  0  0  0  0  0  0  0  0  0  0
    8.1623    5.7032  -23.2805 H   0  0  0  0  0  0  0  0  0  0  0  0
    4.1694    5.1323  -24.7938 H   0  0  0  0  0  0  0  0  0  0  0  0
    7.3539   -1.3317  -19.7923 H   0  0  0  0  0  0  0  0  0  0  0  0
    6.6095   -2.7159  -20.6620 H   0  0  0  0  0  0  0  0  0  0  0  0
    4.1216   -2.7154  -21.1279 H   0  0  0  0  0  0  0  0  0  0  0  0
    3.1212   -1.3111  -20.6240 H   0  0  0  0  0  0  0  0  0  0  0  0
    5.9667   -0.8725  -23.8532 H   0  0  0  0  0  0  0  0  0  0  0  0
    5.8093   -2.4493  -23.0073 H   0  0  0  0  0  0  0  0  0  0  0  0
    4.1623    0.6058  -19.4333 H   0  0  0  0  0  0  0  0  0  0  0  0
    5.9236    0.6093  -19.0803 H   0  0  0  0  0  0  0  0  0  0  0  0
    7.5983    0.9332  -20.9977 H   0  0  0  0  0  0  0  0  0  0  0  0
    6.9991    1.0984  -22.6830 H   0  0  0  0  0  0  0  0  0  0  0  0
    4.5418    1.0761  -23.1683 H   0  0  0  0  0  0  0  0  0  0  0  0
    3.3503    0.9029  -21.8353 H   0  0  0  0  0  0  0  0  0  0  0  0
    5.0052   -1.7045  -19.0181 H   0  0  0  0  0  0  0  0  0  0  0  0
    7.8559   -1.2238  -22.2479 H   0  0  0  0  0  0  0  0  0  0  0  0
    3.6109   -1.2456  -23.0894 H   0  0  0  0  0  0  0  0  0  0  0  0
    4.4512    3.8412  -16.8004 H   0  0  0  0  0  0  0  0  0  0  0  0
    5.7099    2.5665  -16.9324 H   0  0  0  0  0  0  0  0  0  0  0  0
    6.1586    4.2952  -17.1244 H   0  0  0  0  0  0  0  0  0  0  0  0
    5.6564    7.9841  -26.4004 H   0  0  0  0  0  0  0  0  0  0  0  0
    4.8570    6.3763  -26.3506 H   0  0  0  0  0  0  0  0  0  0  0  0
    4.5647    7.5658  -25.0367 H   0  0  0  0  0  0  0  0  0  0  0  0
    3.1889    3.0350  -21.2233 H   0  0  0  0  0  0  0  0  0  0  0  0
    1.7897    3.1928  -19.1041 H   0  0  0  0  0  0  0  0  0  0  0  0
    2.6422    3.5522  -17.6398 H   0  0  0  0  0  0  0  0  0  0  0  0
  1  3  2  0
  1  5  1  0
  2  4  1  0
  2  5  2  0
  3  6  1  0
  4  6  2  0
 18  5  1  6
  6 26  1  0
  7 18  1  0
  7 22  1  0
  7 25  2  0
  8 22  1  0
  8 23  2  0
  8 24  1  0
  9 15  1  0
  9 16  1  0
 10 15  1  0
 10 17  1  0
 11 16  1  0
 11 17  1  0
 12 15  1  0
 19 12  1  1
 13 16  1  0
 13 19  1  0
 14 17  1  0
 14 19  1  0
 18 19  1  0
 18 23  1  0
 20 22  1  0
 21 26  1  0
  1 27  1  0
  2 28  1  0
  3 29  1  0
  4 30  1  0
  9 31  1  0
  9 32  1  0
 10 33  1  0
 10 34  1  0
 11 35  1  0
 11 36  1  0
 12 37  1  0
 12 38  1  0
 13 39  1  0
 13 40  1  0
 14 41  1  0
 14 42  1  0
 15 43  1  1
 16 44  1  6
 17 45  1  6
 20 46  1  0
 20 47  1  0
 20 48  1  0
 21 49  1  0
 21 50  1  0
 21 51  1  0
 23 52  1  0
 24 53  1  0
 24 54  1  0
M  CHG  1  23   1
M  END
>  <OMEGA_C>  (40) 
cFHfQL3FhkBGGbLBsxKXQHJreUBF6bjB8WHmQPrwpkAW0LnBhjKeQMmonEDnocDB1Mq2QMDNZEAd
OLHBtKrFQGIAs0Am98DBjE/DQFzwRUBfa53BArN2QEp4UUB1aZrBW6jSQFsO0L/RKKTB9m6DQJ7B
z78V/afBneW4QLWnrb/MEbfB+/GkQJyKoj4gfJ7BCyPaQHrJHz/OqK3BmRGLQE57Gj9ljrHB5yim
QI9hm7+R4J/BH6zbQFK4bL/HAq/BlSWMQN5ScL8d67LBAgurQCC7KkDkhafBQpmtQMvPij/xVqnB
ghesQHzLYkAtgYrBEfSpQC6H5UA08c3BvyqkQJqoXEC+C5bB/vh8QEqXQECFoKTBE54pQBYnVkBD
8pTBFXPpQMBnPEDQbpvB6f/NQFZR1EDWCsjBmP34QG4De0BwzKzBjutxQMaBV0DU1rjBtZgCQYSA
tkB7PrrBz2uFQKc7pEDFWcbBTVPrQJF0qr+YVp7B4oDTQGLRLcDHS6XBK+SDQJfILcAKBqnBLsJH
QObSp7/b/aTB1u6+QC1aX79d077B9+W5QNTAHMDhDrjBwDGFQGEWGz9kd5vB/Y29QMn9Gz9qpJjB
YSXzQO3lbj9L+6fB0PjfQAKajD/YdrXBnFaRQG+9iT+qWLnBsmpWQN0jZz+1rq7BTCqgQLAt2r8U
JZjB72P7QOOlnL/F+7HBsxlnQNFvn78Wt7jBYHCOQIHVdUBBZ4bBHre2QENBJECbdYfBmhPFQC1y
iUCu/ojBBQG1QHJ9/0AYNNPBdWybQLIKzEAgztLB/hGSQPka8kA/S8jBihZMQC8+QkBMyanBcBbl
P5BXTEAs1ZjB7RkpQChXY0BIHo3B

>  <OMEGA_E>  (40) 
SAEyPw==

>  <OMEGA_NBR>  (40) 
     45240

$$$$
50222475
     RDKit          3D

 49 51  0  0  1  0  0  0  0  0999 V2000
    6.7955    5.7563  -23.8351 C   0  0  0  0  0  0  0  0  0  0  0  0
    7.7762    4.9569  -23.2176 C   0  0  0  0  0  0  0  0  0  0  0  0
    5.4413    5.6025  -23.4851 C   0  0  0  0  0  0  0  0  0  0  0  0
    7.4052    4.0089  -22.2441 C   0  0  0  0  0  0  0  0  0  0  0  0
    5.0660    4.6600  -22.5098 C   0  0  0  0  0  0  0  0  0  0  0  0
    6.0475    3.8609  -21.8624 C   0  0  0  0  0  0  0  0  0  0  0  0
    6.3715    3.2015  -19.4652 C   0  0  0  0  0  0  0  0  0  0  0  0
    4.1083    3.3486  -19.1209 C   0  0  0  0  0  0  0  0  0  0  0  0
    5.9736   -1.6288  -20.8562 C   0  0  0  0  0  0  0  0  0  0  0  0
    7.2836   -0.8294  -20.8649 C   0  0  0  0  0  0  0  0  0  0  0  0
    4.9292   -0.9514  -21.7609 C   0  0  0  0  0  0  0  0  0  0  0  0
    7.0466    0.6158  -20.4126 C   0  0  0  0  0  0  0  0  0  0  0  0
    4.6510    0.4870  -21.2927 C   0  0  0  0  0  0  0  0  0  0  0  0
    5.9494    1.3502  -21.2601 C   0  0  0  0  0  0  0  0  0  0  0  0
    5.6583    2.8446  -20.7676 C   0  0  2  0  0  0  0  0  0  0  0  0
    6.2075    5.0999  -16.8063 C   0  0  0  0  0  0  0  0  0  0  0  0
    5.6148    3.6925  -17.0894 C   0  0  0  0  0  0  0  0  0  0  0  0
    7.6926    5.2723  -17.2145 C   0  0  0  0  0  0  0  0  0  0  0  0
    5.3763    3.4306  -18.5250 N   0  0  0  0  0  0  0  0  0  0  0  0
    4.2341    3.0295  -20.3883 N   0  0  0  0  0  0  0  0  0  0  0  0
    2.8828    3.5508  -18.4957 N   0  0  0  0  0  0  0  0  0  0  0  0
    7.5809    3.2012  -19.2707 O   0  0  0  0  0  0  0  0  0  0  0  0
    8.4923    4.1664  -16.7750 O   0  0  0  0  0  0  0  0  0  0  0  0
    7.0823    6.4870  -24.5768 H   0  0  0  0  0  0  0  0  0  0  0  0
    8.8149    5.0707  -23.4909 H   0  0  0  0  0  0  0  0  0  0  0  0
    4.6883    6.2092  -23.9660 H   0  0  0  0  0  0  0  0  0  0  0  0
    8.1612    3.3895  -21.7845 H   0  0  0  0  0  0  0  0  0  0  0  0
    4.0241    4.5428  -22.2511 H   0  0  0  0  0  0  0  0  0  0  0  0
    6.1673   -2.6470  -21.2248 H   0  0  0  0  0  0  0  0  0  0  0  0
    5.5856   -1.6787  -19.8281 H   0  0  0  0  0  0  0  0  0  0  0  0
    8.0014   -1.3072  -20.1819 H   0  0  0  0  0  0  0  0  0  0  0  0
    7.6954   -0.8244  -21.8849 H   0  0  0  0  0  0  0  0  0  0  0  0
    5.3078   -0.9275  -22.7934 H   0  0  0  0  0  0  0  0  0  0  0  0
    3.9937   -1.5289  -21.7266 H   0  0  0  0  0  0  0  0  0  0  0  0
    6.7283    0.6060  -19.3597 H   0  0  0  0  0  0  0  0  0  0  0  0
    7.9914    1.1715  -20.5049 H   0  0  0  0  0  0  0  0  0  0  0  0
    3.9318    0.9526  -21.9826 H   0  0  0  0  0  0  0  0  0  0  0  0
    4.2203    0.4545  -20.2810 H   0  0  0  0  0  0  0  0  0  0  0  0
    6.3247    1.4196  -22.2918 H   0  0  0  0  0  0  0  0  0  0  0  0
    5.6118    5.8401  -17.3606 H   0  0  0  0  0  0  0  0  0  0  0  0
    6.1239    5.2959  -15.7271 H   0  0  0  0  0  0  0  0  0  0  0  0
    6.3174    2.9361  -16.7096 H   0  0  0  0  0  0  0  0  0  0  0  0
    4.6571    3.6042  -16.5556 H   0  0  0  0  0  0  0  0  0  0  0  0
    7.7556    5.3452  -18.3102 H   0  0  0  0  0  0  0  0  0  0  0  0
    8.0821    6.1964  -16.7625 H   0  0  0  0  0  0  0  0  0  0  0  0
    3.4661    2.9240  -21.0200 H   0  0  0  0  0  0  0  0  0  0  0  0
    2.0342    3.4545  -19.0158 H   0  0  0  0  0  0  0  0  0  0  0  0
    2.8501    3.7925  -17.5259 H   0  0  0  0  0  0  0  0  0  0  0  0
    8.4704    3.4790  -17.4304 H   0  0  0  0  0  0  0  0  0  0  0  0
  1  2  2  0
  1  3  1  0
  2  4  1  0
  3  5  2  0
  4  6  2  0
  5  6  1  0
  6 15  1  0
  7 15  1  0
  7 19  1  0
  7 22  2  0
  8 19  1  0
  8 20  2  0
  8 21  1  0
  9 10  1  0
  9 11  1  0
 10 12  1  0
 11 13  1  0
 12 14  1  0
 13 14  1  0
 15 14  1  6
 15 20  1  0
 16 17  1  0
 16 18  1  0
 17 19  1  0
 18 23  1  0
  1 24  1  0
  2 25  1  0
  3 26  1  0
  4 27  1  0
  5 28  1  0
  9 29  1  0
  9 30  1  0
 10 31  1  0
 10 32  1  0
 11 33  1  0
 11 34  1  0
 12 35  1  0
 12 36  1  0
 13 37  1  0
 13 38  1  0
 14 39  1  0
 16 40  1  0
 16 41  1  0
 17 42  1  0
 17 43  1  0
 18 44  1  0
 18 45  1  0
 20 46  1  0
 21 47  1  0
 21 48  1  0
 23 49  1  0
M  CHG  1  20   1
M  END
>  <OMEGA_C>  (41) 
l3TZQDUzuEAxrr7B+tb4QLmenkC3vbnBNh+uQJxHs0B64bvBlvfsQJRIgEDp87HBDB2iQGselUAZ
FLTB9ITBQFUYd0Al5q7BAOPLQELlTECwuJvB7XaDQMdOVkCh95jB6Se/QHx90L+G2abB5hLpQDlR
VL9S66bBFrydQFiMc79JFq7B5n3hQGiiHT8PTaPBMtWUQCJV+T5hV6rBuWG+QObRrD+/FKrBuBC1
QGoONkAhJKbBpqPGQAIyo0BTc4bBv6yzQI5RbEAWt4jB5in2QEm2qEA+t4nBvgqsQBCPW0AZM5TB
m32HQITjQUAvG6PBqn84QN4/Y0Ah95PBipbyQEfhTEBUKprBd+AHQfZShUBCM4bBT6LiQFWVz0BC
ncTBvQkNQVZDokBg7bvBTwaWQF+xxkBsur/BOpQCQc7sWECbRq7BGcWAQERekUBGArLBjlrFQCFo
KcBjzKnBS72yQAHf1r8BoJ7BqQUAQSRRp7+edKHB9kD2QKoJU783FK/BsdmpQDNybb/fWLbBaZh/
QIi0w78m0K3BSU7XQLUjGz+84JrBkrn/QDH0lT8WCqTBEaN7QMvbcz9R3K/B8QyHQPiv6D6DP6LB
4GPKQKK0tT+fVbLBIpSzQP/hukCP4orBS/fDQNN3qUBkonvB9SfKQG7oO0AyrYXB+gaVQJerZkDY
cYTBiy34QNYLq0Bie5LBYFABQbRIxkCaGYbB0dRdQDQjO0D9KKjBzy8CQJ4WXUBsIJjBbGg2QLS3
ckD5NIzBrIYHQXynXkBucYvBkuXUQJf7tUDxF7/BtxP0QG6Wp0Di07fBPMaqQPhXpkCfb77B9ivp
QNzAiUAH3a/B/LufQGpjiEDAgbbBr5u+QIhndEAC/K7BmKXJQB7oQkBzz5vBMFaCQDxKV0DN7ZjB
0VvaQKHrtb/VGKfBa8nlQO4SC78XybDBLHWsQLlKkL/5baPBpE7iQOPKcj+D+63BGi2oQAXxsD7b
VaDB8N20QPFCpz+0xKnBOKaxQOIUNEA5O6bBG9zGQCtGgEDXlYPBhKOwQMB/NEAh24jBGNyqQPpQ
qEDNkITBlsepQKbsREDKOZTBzNCEQEhDRkD7KaPBrP07QN66c0C5pJPB8d7vQECcOUCn6ZnBTx6/
QFZdykD6J37BN0ndQK8KzUCFLcXBzToKQd13s0CLXbjBE9ySQNtcsUA5CMTBPq8AQWcffUCVXarB
/fF+QM8peEB9JLbBBvvcQJbNHsCeWqnB66bwQCtimr8IgqDB52IDQZLRQ78yS7PBLKzPQJAvRb8G
Y7fBrh+WQINArb90/KnBncSkQP664L+zd5zBrgP6QIwbmD9rxKfBVvboQNWXxT9rMbXB9MKGQBVQ
Cz/qEZ7BQDe9QHA3DD/ad5nB4u6dQJnzkj+OUrDBZFjMQMxWckAGJ3bBarrlQCEHhkD6j4fBYLvE
QONW9j/C7ofByI2RQOHCKUCI84TBK/KmQHnDsEBhDY3B0keLQNUjokB9/4DBH+NXQBahRUBoMqjB
35IFQJXHfEAPs5fBKwE+QHEvf0DUxovB7w2uQKNt40A0QH/BKtLNQIpauEDZ773BXS7wQBPgqUDB
o7fBNMKkQHS7pkCUh7zBzYPpQGLQiUAX76/B0cydQEMMh0AdurTBfAvAQARQcUBmNq7Ben7NQALN
UED2OZvBpeOEQC4xXkDNyZnBarq0QJABzL9WqarBgu/QQMgqi7+AdKHB7MG5QD/pL7/KhLTB85HE
QBzCsT6hdJ7B4F2tQLZgQj/x07HBbxLIQIOJpz9FRqjB83G4QGJkL0AmQ6XBExikQNrqfkCODILB
QvixQChJl0ClRozBxJq4QJqTJUDmMIHBZ5OsQLAqeUCl0ZXBmt2KQGInLUCmJqLBDj46QND+ckCM
nJXB9pHzQJj0TUDy2pjBGt3lQO6yK0CLToLBRvHSQDoB0UAF28PBZdgHQW5kt0CGubjBH4OKQFKR
sUBqdMHBfBgCQc5DfEAaSKvB/nJ8QKc9c0CRsbPBile+QLaZJ8AVxKzBlQ6TQP+ly7+oGKjBa5rM
QGu13r9rdJrBS6ryQLjqjb9P96PBDkfbQOc0Nr+ZMrfBt+qkQAFNh7+29rrB7mWjQIgOtT4dg5vB
CxzaQILtMz+FGpjBcROzQKQjsj+b4rjBIzeLQJSmSj8stq/Bz9TpQPD9rj/xuKrBX62tQK+BkkA9
GHbBnRSBQDS1d0CvIILBqGOeQHhTtEArJ43BYN/TQKtHoEBkiYvBm++wQOa2CUAxrnLB7sirQPJ+
+D+sjYfB1CloQCFlC0Dg26XBhRQFQOkUXEDTBZnBWgs2QL50jEAkMI/BcdbsQDX8NkB/kYnBEZjX
QDoUq0BcRcDBqlv4QFr1mECpAbrB2XOsQACio0C7o73ByAnuQAdFf0APDrHBN/ahQLA0ikAPvLTB
Sa7CQESJcEADPq7BJUXMQG9RVkBokJrBnz6DQCPlWkAgnZjBdnG2QCBDv79Gwa3BNLC6QPdpj79A
1qHBJinQQOewBb/0zbTB+oCsQHAtqj4c2p/B7YPBQIMYbj83/bLB1vfFQNxSqz/Q/abBJJG3QKYv
NUBnyqTBEzvRQDK6qkCHrIfBaTOwQJjnhUD/pIjBbH3WQJ1KuUByEXjBX9WqQGh3b0CG5ZPBiV+J
QKHIOkCqOKLBChE2QCehZUBSCpTBd6/yQDYdV0AqkJjBC675QBJU1kBCzHbBVpPfQCSzvkAPGcfB
nroMQdh9nkAYErzBxlmTQPd3sUCMd8LBUKcDQSJxY0DnS6zBG8qAQMxFhEBY0bLBWZjCQNT+IMDb
9a7BcYOUQBu1ub9iErDB+4KmQMjQ5b/rDp3BYU3cQCnPnb+QYp/B6FLyQKxiG7+wy7LBp1vLQIdJ
Sb8tQ73BYjOKQFNJ2D6NsKHBD/axQBboFD/mY5fBIFPVQA71zD+P5bfB6syfQFI/gz+PZrXBFPvn
QBoYoT800aTB0lbwQN+Dn0DFsIrBmEfGQN4CxkBkg4zBUTu7QAs7VUCH0YPBCiWRQMgdkUAomIXB
QBa5QEJkyUAWs3LBbrjcQK9anUAQ023BmMZjQCuEKED4JqfBapwBQGWOVECuGJjBT7EwQO1rfkAS
sozBdC/9QF2I30DyamjBxoHVQPyiskA2k7/B0LLzQMpFp0B8urfBIg+sQNYHoUATQb/B1WfoQOS0
ikBhgK/Ba5+gQO9lhEAEB7fBDl++QIEVc0Ax5a7BG7DJQDG6QUAli5vBF4CCQEMZXkBtupjBYdva
QMO7tr9e3qfBzwvoQDUoAL/WI7HBOGysQJk6kr8Fb6TBpIzjQBBPej/Y963BmEqnQKSXpD7S7KDB
RlC1QHZVqD+F7anBjWSxQDl4M0D4/6XB6h3eQFosk0A62YbBU660QME1cUBny4jBQwjfQKpCvkAn
+4zBTrOrQIeEX0BAOpTBp6eEQMnbRUCuy6LByB45QG9uckDBfZPB25vvQIWrM0AOv5nB5KbhQJoJ
uUBYUJjBzhveQI/WyEBo1sXBhs0JQQaAtEAbBbjBsvmUQLl8qUCoU8XBx+7/QGi6gUCFlanBkvCA
QJgzbUCH6bbBMHbdQD1fHsAUfarBYVDwQMn+oL+1BqHB9skEQQL1M7+tRbPBd2rTQDrXM7+4FbjB
ieWWQCilq792NqvB7PmjQHKf5r+utp3B5IX6QFeVmT+8iqfBgMDqQAI+zT90+rTBs3+FQO99AT+r
857B0ia7QMsm/j6qy5nB50OfQLDSlz+mtbDBxq7gQC3vmUD2eHzBLMD5QMDhf0CvaonBmfO3QMqs
M0A5mYTBRG+ZQApuikBBc4XBcZ/BQEcS0EBsGIvBVgL7QPSy0EDOSIrBNcJWQOiHQEAQqKfBJGQB
QCoJb0DfZpfBek06QLg4gkDm0IvBpxviQERY1EDYppvBrAjSQNp4tkC/ZL7BRRvyQD+xpkDlkLfB
PuKnQIP8pkCjiL3BGQDoQPmsh0Cd1K/B2pidQOXsh0AQzrXBIWK9QOvPcED8uK7BThXKQBU/RUAE
1JvBr6SDQNqYZECNYpnBLMrZQPM0v78NlajBXufkQDaSC78Y37HBtBOtQDEcl79zHaTBldniQDE3
bD/2Q67BRuGqQBJpjT5kVaDBKPe1QIfIoD+/pqnBsbaxQFWaL0Bq96XBdfKsQOclZkAdJYLBq9O3
QDS6j0BGwovBgjDCQGOvDUAcKIPBXm6tQBR7dUDq7ZXB5e6EQCdKPUBhoqLBZJA8QGWBeEAr8JPB
kEHvQFQwNEB/f5nBnFq6QC/Quj+8iHPBl73ZQIV8zkD7TMTBE0AJQZhnskAcRLjBH1mPQC3+skCg
08LBz2sAQcykdkDArarBwZJ6QLCyd0DzRLXBl2baQGUIIsDofavBTpzxQCGgr79PLaLB17gCQT23
RL9otrTBt/TNQEOjM78CbbjB5w+VQKnSq7/aaqrBfl2mQJuJ7L/2Up3Bai/7QC9WjD+WD6jBkETp
QLmYyT/gKrXBsFaKQPES+z73cp3Brt3BQIKc2D72xZnBOmieQAOziz9GDrDBrVe4QFucgkCOj3XB
ywiKQDrTXUCauYHBq2mlQCagrUC/JIvBnz/aQGoQl0Dym4vBBMy0QOSr1z/DG4rBZ+TkQGm7FUDu
O4TBNYJWQLwnK0DZ1abB5ckDQNeyaECyDpfBM3Y/QF9Vi0A95IzBtX3HQBFDGz/Nz3TBXvPZQB8v
t0Cazr7BqjT5QGRcnUBg5LnB66auQL3OskAC67vBOEDtQAK1fkCmB7LBK4+iQEzwlEByDbTBwNzB
QD9UdkDH467BTSTMQFQ3TEArk5vBjZSDQECFVECO65jBe/O9QP2p0b9TNqfBxgjoQPmqV7+6CKfB
D+KcQKclcb+Vca7BIH3gQFxFGT+GOaPBh0eUQGnb/D7ylKrBxCa+QL8brD98GqrBCl21QOueNUBg
GabBUjnLQIsNoUCY9obBKpizQCnKa0C6oojBQOGzQJYnx0CwNozB1QKsQOsrWECQD5TBGsWHQLuj
QUBmGaPBsLo4QB0yYkA29ZPB3bzyQG17UUDb4pnBPhuKQHX5y0APx4fBZzTjQK5VzkBWysTBCDQN
QWWQoEBdJ7zB1qaWQG1oxkBzvr/Bo6sCQVjAVkBWXa7B9jyBQNOQkUCu67HBKjHEQJKWKcC5SqrB
RyaxQJtN2r9YCJ/B36n+QOv4qr/FkaHBzp71QGowUr+AJq/BaTWpQEz4aL++rrbBaJJ9QK2Iwb8h
RK7B85XVQAXcEj8i3JrBntz+QH5Wkz8Au6PB8mZ7QDi3eT8xILDBNhSGQHUg6D5FiaLBXLfKQP1N
tT+5TbLBDeLNQIArp0A3pXzB9m3rQE6EnkA8dYrB/xHHQEc6OEDcJIXBL4mUQIPHbkDggoTBe1bG
QOeX5EBRzorBWC6xQMxwwUDj3pTBppNeQEIKPEAGNKjBg48CQCXTXUDpLpjBd3k2QJpncECgKYzB
7T94QCeE40BlFIvBAl3aQOTUtkCk277B23/5QAjRnEA+9bnBnhGvQMbBskAJ8LvBC3DtQC7ifUDX
ErLB0t2iQNsAlUCQDrTBlw7CQKIfdkDJ567B2RXMQG83TEDgi5vBP6KDQKZWU0B455jB33S9QBvl
0b/xTKfB2J3nQPnWWL9ME6fBpXicQFQCcL/ghK7BECjgQE4CGD+MN6PBZweUQJP8/j6ioKrBTwS+
QIX/qz81HarBGG61QKGiNUAPG6bB3TC2QEoMpkCiJYfBMxuzQCFQakDPpIjBmVm9QJPzsEBqhnbB
COKrQG6ZU0Bi9ZPButiHQNzeQUAJH6PBQS05QJs7YkAq65PB35nyQC9GU0Aw1pnBuV7AQCEy3kAD
53PBwLTjQGflzUB92sTBlFgNQTDFn0CKP7zBRiiXQJeAxkBwwL/BxLcCQQ6sVUANaq7BpIuBQNPY
kUB+57HBnKXDQKSdKcBOaqrBoZmwQFQH27/hIJ/B7yr+QJwnrL8ZnqHBXkP1QB6CUr9KL6/Bds6o
QB99Z7+4wbbB6518QIuJwL/aWq7B8hrVQG3OED9u3ZrBY5X+QPBrkj86rKPBixZ7QKn/ez8mK7DB
w8aFQIOv6T6GlqLB367KQPcNtT8aTrLBuSfRQP1nskCr4ovBzEmYQMcEtUDr5InBaiPRQKO5TEDZ
7IXBylWYQEfUUUCf0YPBJVGiQFLGpEDZCW3B+i3bQDjloUBu/XDBeNBeQFtdPUA0QajBX/YCQEzz
X0AWKZjBIzM3QJU7b0DbFozBE8jEQGC85EAdOWXBWUTVQIU8tEAhkr/B+ez1QBLdpkCulbjBw12r
QEu6pEDBOb7BIMHsQK4YikDnOrDB4PihQNVBiEC51LXBsnTCQO8cdkC1l67B6YjMQJGST0DO+JrB
8GiEQAZdTkCB8pjBW7OwQCbew78nw6nBh0DQQEgugb9oXqHBnt+yQBbZKL+R47PB323FQMzb3j4N
dp7BVt6nQD1mTT8xU7HBf8HFQERqsD+/gKjBDzW4QKQsNkAljaXBYiuoQEQ3j0A894LBa+iwQHY7
RkBK/4fBDUrCQP8is0B0SojBV42rQPD3RUCQqJPB1ACKQA4JOkB6/qLBz5E7QNHHZ0BAgpTBAbHy
QOBKV0CE4pjB1sCwQCf1vUBffpLBOl3cQLtjykDn9cXBnA8LQcKzskB+ornB/FySQLGwrkA6pcPB
oBQDQS3FfkBeBavBvsOBQM6ieEDS4LTBzfC4QOJbJMAv06vBAxCQQG6Sv787eqbBjD3OQFtn0b+F
J5rBTO7wQIPHhr/YnqTBnG3TQAsRNb/LNrfBNe6bQOukhb/Ez7nBsGSlQPY57D4Z0prBiSvdQI02
TT+bqZjBYnKrQE7Jsz9morjBn4mGQBo3Wz9Yh67BjpHmQGo5tD/4ravBYOyFQLealkC20YPBOIqw
QCrmjUBc2XTBZffRQINWM0BqHIbBQI+aQJqJF0C+goTBisbBQP6az0DvHYPBBYPjQFdMqECyWInB
uNRkQMezLkAVNqjBSjkHQB2Ta0BPFpnBXTM4QGBRdkCzuozBOEvBQEMj1EBlpJXB4oXbQKIit0DR
mr7BFVj6QEeznEAqurnBth+wQONGs0BBwrvBrdXtQAwmfUCR9LHB832jQDtflUC99LPBF1nCQDv0
dUBs1q7B/APMQHVXTEBOjZvBd6+DQFGEUkC42ZjBPfS8QNRY0r8dRKfB2SPnQOdVWr88BafB8hmc
QIItcL8Sgq7B/HLfQDVZFT8QJqPBS7+TQEMVAD+lqKrB/dG9QD6nqz+eGarB1le1QDZ/NUAQE6bB
ubDZQE8MSEBT4oLBAmayQNH0b0BDrYjBYjfbQATAyj+dX4PBuvirQKJ1UkAE2pPB092HQNjiQUDr
FqPB7/w4QCQgYkCB9JPBXpfyQORRVUCEH5rByxG1QNT4gT9jLn7BJi7lQPFdzkBAh8TBps8NQW2H
n0DZ8rvBVnSYQHdQx0Bykr/B4scCQeMPVEBxVq7BxhuCQPp1kkC417HBlxvDQKneKcBRYKrBQgOw
QH5c278QGp/B4ar9QJXurL/QjqHBYNr0QHdmU79PH6/BFIGoQHiqaL+JvbbB2r97QIIywL/jWK7B
buvTQJqtDD+q1prBTuv9QBD8kD8yeKPBWOp6QKLPfD9+PrDB2UuFQMAo7T7ao6LBzbXKQGqMtD8a
RbLBLPP2QN44YUA5oYbBdrbYQJN6W0Df23TBromVQNTAX0BZEITB3JO2QPPsmkBtzYjBTrzeQE9i
oj8QwovBp832QFEUnT+sbH3BhtteQBgOPkBnO6jBZyYDQFkCYUBFR5jBMnY2QEt3bkCQHIzBQba2
QJBBiz348X7B

>  <OMEGA_E>  (41) 
cDEkP2QlIT8kcSE/kAIiP+LRIj/KjCM/OJcjPwDSIz9cLxo/9OolPw==

>  <OMEGA_NBR>  (41) 
     91262

$$$$
50222480
     RDKit          3D

 63 67  0  0  1  0  0  0  0  0999 V2000
    7.2344    4.2579  -21.9005 C   0  0  0  0  0  0  0  0  0  0  0  0
    4.9470    3.9800  -22.7042 C   0  0  0  0  0  0  0  0  0  0  0  0
    7.5423    5.0115  -23.0371 C   0  0  0  0  0  0  0  0  0  0  0  0
    5.2676    4.6983  -23.8555 C   0  0  0  0  0  0  0  0  0  0  0  0
    5.9296    3.7374  -21.7182 C   0  0  0  0  0  0  0  0  0  0  0  0
    6.5657    5.2397  -24.0188 C   0  0  0  0  0  0  0  0  0  0  0  0
    6.3235    3.2283  -19.2756 C   0  0  0  0  0  0  0  0  0  0  0  0
    4.0729    3.5452  -19.0403 C   0  0  0  0  0  0  0  0  0  0  0  0
    7.3397   -1.2839  -20.5806 C   0  0  0  0  0  0  0  0  0  0  0  0
    4.9022   -1.5196  -21.2057 C   0  0  0  0  0  0  0  0  0  0  0  0
    6.5958   -0.8369  -22.9488 C   0  0  0  0  0  0  0  0  0  0  0  0
    5.6500    0.3646  -19.7219 C   0  0  0  0  0  0  0  0  0  0  0  0
    7.3477    1.0660  -21.4797 C   0  0  0  0  0  0  0  0  0  0  0  0
    4.9121    0.8252  -22.1074 C   0  0  0  0  0  0  0  0  0  0  0  0
    5.8845   -1.1119  -20.0840 C   0  0  2  0  0  0  0  0  0  0  0  0
    7.5851   -0.4162  -21.8360 C   0  0  1  0  0  0  0  0  0  0  0  0
    5.1386   -0.6554  -22.4639 C   0  0  2  0  0  0  0  0  0  0  0  0
    5.6133    2.7939  -20.5618 C   0  0  2  0  0  0  0  0  0  0  0  0
    5.8843    1.2896  -20.9618 C   0  0  1  0  0  0  0  0  0  0  0  0
    5.2503    9.6401  -23.4253 C   0  0  0  0  0  0  0  0  0  0  0  0
    5.5466    4.2164  -17.0987 C   0  0  0  0  0  0  0  0  0  0  0  0
    6.0461    8.6611  -24.3030 C   0  0  0  0  0  0  0  0  0  0  0  0
    5.0941    7.6646  -25.0007 C   0  0  0  0  0  0  0  0  0  0  0  0
    5.8838    6.6435  -25.8640 C   0  0  0  0  0  0  0  0  0  0  0  0
    5.3144    3.5767  -18.3977 N   0  0  0  0  0  0  0  0  0  0  0  0
    4.1907    2.9529  -20.2005 N   0  0  0  0  0  0  0  0  0  0  0  0
    2.8725    4.0095  -18.5266 N   0  0  0  0  0  0  0  0  0  0  0  0
    7.5183    3.1823  -19.0034 O   0  0  0  0  0  0  0  0  0  0  0  0
    6.9402    5.9795  -25.1222 O   0  0  0  0  0  0  0  0  0  0  0  0
    7.9955    4.0717  -21.1573 H   0  0  0  0  0  0  0  0  0  0  0  0
    3.9429    3.6073  -22.5654 H   0  0  0  0  0  0  0  0  0  0  0  0
    8.5348    5.4193  -23.1601 H   0  0  0  0  0  0  0  0  0  0  0  0
    4.5235    4.8422  -24.6249 H   0  0  0  0  0  0  0  0  0  0  0  0
    8.0334   -0.9749  -19.7848 H   0  0  0  0  0  0  0  0  0  0  0  0
    7.5153   -2.3407  -20.8302 H   0  0  0  0  0  0  0  0  0  0  0  0
    5.0587   -2.5787  -21.4581 H   0  0  0  0  0  0  0  0  0  0  0  0
    3.8699   -1.3749  -20.8546 H   0  0  0  0  0  0  0  0  0  0  0  0
    6.7630   -0.2126  -23.8389 H   0  0  0  0  0  0  0  0  0  0  0  0
    6.7647   -1.8933  -23.2049 H   0  0  0  0  0  0  0  0  0  0  0  0
    4.6150    0.4890  -19.3708 H   0  0  0  0  0  0  0  0  0  0  0  0
    6.3462    0.6536  -18.9208 H   0  0  0  0  0  0  0  0  0  0  0  0
    8.0574    1.3658  -20.6945 H   0  0  0  0  0  0  0  0  0  0  0  0
    7.5107    1.6824  -22.3760 H   0  0  0  0  0  0  0  0  0  0  0  0
    5.0908    1.4409  -23.0013 H   0  0  0  0  0  0  0  0  0  0  0  0
    3.8729    0.9586  -21.7722 H   0  0  0  0  0  0  0  0  0  0  0  0
    5.7185   -1.7432  -19.1986 H   0  0  0  0  0  0  0  0  0  0  0  0
    8.6186   -0.5538  -22.1866 H   0  0  0  0  0  0  0  0  0  0  0  0
    4.4420   -0.9583  -23.2594 H   0  0  0  0  0  0  0  0  0  0  0  0
    5.9428   10.3414  -22.9368 H   0  0  0  0  0  0  0  0  0  0  0  0
    4.5417   10.2014  -24.0520 H   0  0  0  0  0  0  0  0  0  0  0  0
    4.6965    9.0781  -22.6588 H   0  0  0  0  0  0  0  0  0  0  0  0
    4.5832    4.3880  -16.5964 H   0  0  0  0  0  0  0  0  0  0  0  0
    6.1739    3.5625  -16.4750 H   0  0  0  0  0  0  0  0  0  0  0  0
    6.0575    5.1787  -17.2502 H   0  0  0  0  0  0  0  0  0  0  0  0
    6.6003    9.2272  -25.0661 H   0  0  0  0  0  0  0  0  0  0  0  0
    6.7550    8.1040  -23.6729 H   0  0  0  0  0  0  0  0  0  0  0  0
    4.5211    7.1202  -24.2356 H   0  0  0  0  0  0  0  0  0  0  0  0
    4.4023    8.2229  -25.6486 H   0  0  0  0  0  0  0  0  0  0  0  0
    5.1832    5.8817  -26.2364 H   0  0  0  0  0  0  0  0  0  0  0  0
    6.3331    7.1759  -26.7153 H   0  0  0  0  0  0  0  0  0  0  0  0
    3.4230    2.6496  -20.7649 H   0  0  0  0  0  0  0  0  0  0  0  0
    2.0283    3.8996  -19.0513 H   0  0  0  0  0  0  0  0  0  0  0  0
    2.8505    4.4544  -17.6313 H   0  0  0  0  0  0  0  0  0  0  0  0
  1  3  2  0
  1  5  1  0
  2  4  1  0
  2  5  2  0
  3  6  1  0
  4  6  2  0
 18  5  1  6
  6 29  1  0
  7 18  1  0
  7 25  1  0
  7 28  2  0
  8 25  1  0
  8 26  2  0
  8 27  1  0
  9 15  1  0
  9 16  1  0
 10 15  1  0
 10 17  1  0
 11 16  1  0
 11 17  1  0
 12 15  1  0
 19 12  1  1
 13 16  1  0
 13 19  1  0
 14 17  1  0
 14 19  1  0
 18 19  1  0
 18 26  1  0
 20 22  1  0
 21 25  1  0
 22 23  1  0
 23 24  1  0
 24 29  1  0
  1 30  1  0
  2 31  1  0
  3 32  1  0
  4 33  1  0
  9 34  1  0
  9 35  1  0
 10 36  1  0
 10 37  1  0
 11 38  1  0
 11 39  1  0
 12 40  1  0
 12 41  1  0
 13 42  1  0
 13 43  1  0
 14 44  1  0
 14 45  1  0
 15 46  1  1
 16 47  1  6
 17 48  1  6
 20 49  1  0
 20 50  1  0
 20 51  1  0
 21 52  1  0
 21 53  1  0
 21 54  1  0
 22 55  1  0
 22 56  1  0
 23 57  1  0
 23 58  1  0
 24 59  1  0
 24 60  1  0
 26 61  1  0
 27 62  1  0
 27 63  1  0
M  CHG  1  26   1
M  END
>  <OMEGA_C>  (42) 
63/nQAhBiEA/NK/BH06eQFm4fkAborXB0FrxQGZeoEAKTLjB+o+oQMhYlkD9177Bo7+9QOswb0Db
vq3BeRrSQMqrp0COJsDBNVrKQKqcTkBtNJrBGFWCQNPkYkB5UpjBxt7qQPRWpL8VpaTBCt+cQNaB
wr9WpanBoRDTQPQ/Vr89l7fB4sy0QCKxuj6Hxp3BZiDrQIZyiD9n1qvBnC+dQGBDUz/927DB+E28
QBpTjr8HrKDBErnyQOgS1b4QsK7Bo2+kQGLFJ7/8tbPB0J+zQB/PMkCofqTBRky8QHwRpT/YsafB
fQKoQNE9GkH2ZrvBA36xQO7shkAlyojBX3nBQNCTCkGRbMLBnQKjQDJE9UB4AcjBTUi8QNCX1ECF
6c7BQQ+qQAzpZEBmLpPBkxqGQGz8PECRmqHB6NY3QLRNgECINpTBGJbwQC2rS0D8BpjBKxbeQDJY
v0A6+sjBPNv/QAZLgkApQqnB8Fh8QAveZkDdhbTBmo4IQdRqrUDLR7nBbsCQQIDzmkDM/8TB94gA
QQyWeb9UR57BAH3wQIjOFcA8pKbBpOChQCoKJcBDqqvBuat3QET+r7861qbB32rYQG2xWb4gtr7B
B3jYQOtW8r+xo7nBKq6TQDBa+j5Y95rBSRTLQNlRJz/YXZfB6eoAQSzSrj9UjqXBklfwQDNa1z8d
ArPBNOiiQPBvuD+eArjBCN53QLBpdT9dLa7B7f22QEQi37/NlpnBuOUJQRrIDb8lfrHBiiSOQAlW
db82E7rBMyu+QGB2JUF4frfBj1WRQAg5I0F8asDBWUmWQBRAEUE/RbXBaqmSQFBqjEBixYTBM5DF
QPj/Y0DYzIPBBtfBQE+4pUBcAIrBWzXTQNCiE0Fnh8jBJCnYQNupAUEqYr3BJK2QQEbY40CV4sHB
39+MQByRA0FPMM3B79ylQIk2vEA95NHBhajKQFih5UD8uNXBLxNbQIGSKUCZHqbBc88BQKGSeUD6
aJjB7W02QKaKjkD6DI3BRs7nQLEeiEDWP6/BlK2eQGJzfkBmubXBDsbxQIddoEAsULjBDgKpQPJh
lkA05r7BIP+9QBcTb0C4zq3BMIrSQB7yp0BHJcDBrGXKQMrdTkDXPprBqlaCQKRAYkBQTZjB4ADr
QFyro7+fq6TBKdicQIyOwr9wf6nB1IzSQD/UV789lLfB7Bu1QEcIvj66vp3B8OrqQKCTiD+w8qvB
R9GcQP41Uj/EyrDBRpC8QBShjb87m6DBEHzyQD4a1b4Qwq7BUAqkQL8pKb/rm7PBxKyzQPcEM0CV
iaTBNDu8QJZHpT+UtafBTcBOQPBLFUGXLsTB+oWxQHwkhkCSu4jBj8Z7QNWrBUGE2MvBxIKlQHDr
90AgbcbBQN+7QDjq10DDGc7BnBiqQAUaZEAHLJPBzCWGQIiKPUC8qKHB+cY3QExFf0AuIpTBCKjw
QNhYTEBjFpjBmBDeQOLuwEC7ycjBBxEAQQT9gUCZTqnBwy19QNw4ZkA2qrTBpMsIQe5IrUAvSbnB
/0qRQL71mkA7FMXBTLMAQTAfd7+EXJ7B3pnwQJGGFcBUpKbBdtGhQH4fJcDAfavBz8x3QHL8r7+0
n6bBK6XXQAsIZL7Au77BKezXQIRB87+ZmbnBFxWUQN3g/T5v3prB1pjLQAYKKj/XZJfBBesAQW2P
rz+juqXBOdnvQA711j9aJ7PB5EOiQOl3tz+o+bfBck53QLVddD/uCq7BLoS3QMj53b+nfZnByrsJ
QZHbDb+VoLHBT4yNQKDUd7+A6rnBzywWQNcjHEGMJcjBJL06QCCxDEGp7LzBBCd7QJ87IkHH/cHB
ZbWSQE0/i0DQrITBms7FQGZOYkBz0IPBWaPBQK0ZpUCn4InBAzFPQFmL8UCCCM7Bcc2HQCtQDkGg
GdPBrwC8QMfWCEHwVsTBNKabQAUE50CZHL/BeRKkQAPBwECZBNHB40fJQICz6UAn6tTBmihbQI8d
K0AJPabBAMMBQBemeEABWJjBnU42QEJqjUBj6ozB

>  <OMEGA_E>  (42) 
kNukPuCpoj4=

>  <OMEGA_NBR>  (42) 
     93615

$$$$
50222508
     RDKit          3D

 56 58  0  0  1  0  0  0  0  0999 V2000
    6.5534    5.7310  -23.7527 C   0  0  0  0  0  0  0  0  0  0  0  0
    7.6090    5.2095  -22.9846 C   0  0  0  0  0  0  0  0  0  0  0  0
    5.2418    5.2552  -23.5649 C   0  0  0  0  0  0  0  0  0  0  0  0
    7.3533    4.2116  -22.0307 C   0  0  0  0  0  0  0  0  0  0  0  0
    4.9762    4.2756  -22.5918 C   0  0  0  0  0  0  0  0  0  0  0  0
    6.0284    3.7587  -21.7978 C   0  0  0  0  0  0  0  0  0  0  0  0
    6.4065    3.3218  -19.4328 C   0  0  0  0  0  0  0  0  0  0  0  0
    4.1411    3.4824  -19.2148 C   0  0  0  0  0  0  0  0  0  0  0  0
    7.1725   -0.7600  -14.6815 C   0  0  0  0  0  0  0  0  0  0  0  0
    5.6644   -1.6027  -21.3442 C   0  0  0  0  0  0  0  0  0  0  0  0
    6.5336   -1.0790  -20.1907 C   0  0  0  0  0  0  0  0  0  0  0  0
    5.7755   -0.6763  -22.5670 C   0  0  0  0  0  0  0  0  0  0  0  0
    6.1313    0.3531  -19.8091 C   0  0  0  0  0  0  0  0  0  0  0  0
    5.3551    0.7543  -22.2034 C   0  0  0  0  0  0  0  0  0  0  0  0
    6.2170    1.3132  -21.0336 C   0  0  0  0  0  0  0  0  0  0  0  0
    5.7484    2.7594  -20.6692 C   0  0  2  0  0  0  0  0  0  0  0  0
    7.1191    0.3031  -15.7639 C   0  0  0  0  0  0  0  0  0  0  0  0
    6.2461    1.4927  -15.3164 C   0  0  0  0  0  0  0  0  0  0  0  0
    6.2617    2.4725  -16.4643 C   0  0  0  0  0  0  0  0  0  0  0  0
    5.3347    3.6734  -16.2728 C   0  0  0  0  0  0  0  0  0  0  0  0
    5.5271    4.6450  -17.4556 C   0  0  0  0  0  0  0  0  0  0  0  0
    5.3740    3.9587  -18.7514 N   0  0  0  0  0  0  0  0  0  0  0  0
    4.3225    2.7509  -20.2868 N   0  0  0  0  0  0  0  0  0  0  0  0
    2.9096    3.7193  -18.6225 N   0  0  0  0  0  0  0  0  0  0  0  0
    6.1091   -1.3527  -14.3561 O   0  0  0  0  0  0  0  0  0  0  0  0
    7.5925    3.2544  -19.1232 O   0  0  0  0  0  0  0  0  0  0  0  0
    8.2863   -1.0421  -14.1662 O   0  0  0  0  0  0  0  0  0  0  0  0
    6.7489    6.4978  -24.4877 H   0  0  0  0  0  0  0  0  0  0  0  0
    8.6148    5.5758  -23.1280 H   0  0  0  0  0  0  0  0  0  0  0  0
    4.4365    5.6441  -24.1705 H   0  0  0  0  0  0  0  0  0  0  0  0
    8.1714    3.7851  -21.4694 H   0  0  0  0  0  0  0  0  0  0  0  0
    3.9675    3.9168  -22.4497 H   0  0  0  0  0  0  0  0  0  0  0  0
    6.0024   -2.6117  -21.6228 H   0  0  0  0  0  0  0  0  0  0  0  0
    4.6152   -1.6449  -21.0164 H   0  0  0  0  0  0  0  0  0  0  0  0
    6.4052   -1.7344  -19.3166 H   0  0  0  0  0  0  0  0  0  0  0  0
    7.5884   -1.0860  -20.5025 H   0  0  0  0  0  0  0  0  0  0  0  0
    6.8172   -0.6679  -22.9202 H   0  0  0  0  0  0  0  0  0  0  0  0
    5.1203   -1.0531  -23.3662 H   0  0  0  0  0  0  0  0  0  0  0  0
    5.0982    0.3460  -19.4315 H   0  0  0  0  0  0  0  0  0  0  0  0
    6.8072    0.7168  -19.0212 H   0  0  0  0  0  0  0  0  0  0  0  0
    5.4829    1.4008  -23.0841 H   0  0  0  0  0  0  0  0  0  0  0  0
    4.2976    0.7518  -21.9007 H   0  0  0  0  0  0  0  0  0  0  0  0
    7.2647    1.3614  -21.3651 H   0  0  0  0  0  0  0  0  0  0  0  0
    8.1389    0.6607  -15.9694 H   0  0  0  0  0  0  0  0  0  0  0  0
    6.6925   -0.1340  -16.6787 H   0  0  0  0  0  0  0  0  0  0  0  0
    5.2182    1.1578  -15.1133 H   0  0  0  0  0  0  0  0  0  0  0  0
    6.6662    1.9566  -14.4118 H   0  0  0  0  0  0  0  0  0  0  0  0
    7.2894    2.8454  -16.5862 H   0  0  0  0  0  0  0  0  0  0  0  0
    5.9540    1.9407  -17.3766 H   0  0  0  0  0  0  0  0  0  0  0  0
    4.2895    3.3320  -16.2413 H   0  0  0  0  0  0  0  0  0  0  0  0
    5.5820    4.1846  -15.3307 H   0  0  0  0  0  0  0  0  0  0  0  0
    4.7768    5.4464  -17.3852 H   0  0  0  0  0  0  0  0  0  0  0  0
    6.5355    5.0808  -17.3993 H   0  0  0  0  0  0  0  0  0  0  0  0
    3.6010    2.2590  -20.7742 H   0  0  0  0  0  0  0  0  0  0  0  0
    2.0811    3.3193  -19.0146 H   0  0  0  0  0  0  0  0  0  0  0  0
    2.8501    4.2899  -17.8035 H   0  0  0  0  0  0  0  0  0  0  0  0
  1  2  2  0
  1  3  1  0
  2  4  1  0
  3  5  2  0
  4  6  2  0
  5  6  1  0
  6 16  1  0
  7 16  1  0
  7 22  1  0
  7 26  2  0
  8 22  1  0
  8 23  2  0
  8 24  1  0
  9 17  1  0
  9 25  1  0
  9 27  2  0
 10 11  1  0
 10 12  1  0
 11 13  1  0
 12 14  1  0
 13 15  1  0
 14 15  1  0
 16 15  1  6
 16 23  1  0
 17 18  1  0
 18 19  1  0
 19 20  1  0
 20 21  1  0
 21 22  1  0
  1 28  1  0
  2 29  1  0
  3 30  1  0
  4 31  1  0
  5 32  1  0
 10 33  1  0
 10 34  1  0
 11 35  1  0
 11 36  1  0
 12 37  1  0
 12 38  1  0
 13 39  1  0
 13 40  1  0
 14 41  1  0
 14 42  1  0
 15 43  1  0
 17 44  1  0
 17 45  1  0
 18 46  1  0
 18 47  1  0
 19 48  1  0
 19 49  1  0
 20 50  1  0
 20 51  1  0
 21 52  1  0
 21 53  1  0
 23 54  1  0
 24 55  1  0
 24 56  1  0
M  CHG  2  23   1  25  -1
M  END
>  <OMEGA_C>  (43) 
cLXRQLBkt0BxBb7BFn3zQDq0pkBv4LfBfrynQK0qqEDlhLzB3k3rQI/FhkDQPrDBwjyfQNXRiEAF
vLTBeOjAQEqOcED8Ya7B9AHNQLaYVEBvdpvBEoSEQGrgXkDbt5nBvoTlQPKOQr9o52rBZEK1QK4j
zb8FwarBEBPRQLQdir+HhqHBhtC4QEojLb8qibTBnjPEQGTGtD4JeZ7BMl2rQGUaQT9/oLHBpvHG
QCQWqD+5RKjB5PK3QKuaMECJWqXBDNDjQDozmz7uOHzBHuDHQFwRvz8IEHXB7F/IQBk+HkDRtoPB
sbWqQHQZa0CsLoLBAN6wQOmjlEAZpYvBKvirQDBbfUDZApbB91GKQPMNMEBWS6LBHjY6QE4IbkDy
+pTBmn3DQGQkrb+WsmXBmvXyQF5HUEBV/JjBe5QEQR9lhb/rqGLBuvbXQJTtz0Dk5sPBZNYJQZRs
skA8BrnBNviNQECctEBIXcHBIL4CQbQ+ckA9wavBZut9QAqsekD+mLPBTBPAQNIlJ8CQ+6zBnK+T
QHqL0r+nIajBivfMQDQA3r9iiJrBitTyQEYDi78MBaTBLibaQFL8Kr+ZXLfBatmjQEHMhr8E7rrB
QySjQLQpsT6mc5vB09TZQLt9Nz9UK5jBHHSvQNBNsz9ArLjByoWJQOF0QD+vNK/Bo3joQIxBrj/K
66rB6jgCQUskKT/Qgn/BBCnWQEkxCb4LboXBofumQNUylD/uz3HBLVHVQHxw+j+MlmbBgELpQNkb
NkBysITBU4e+QKRn+D9eA4vBUUOJQEtAVUAq7oHBq5+yQHvohUCYSnXB7NuYQItIrkDSFIvB1SLR
QEqWokDGMYvBVHdmQIyTEECMMabBKTAFQDZwVEDOHZjBcGc2QO5GiUCQbY7BlW/UQKDstUDLvb7B
t7n1QFSzpUCIWbjBKzqqQI55p0BSNr3BYNHsQBMmh0DyZ7DB9w+hQBJWiUASLrXBfTbCQE+yckCJ
jK7B2zDNQPx+VEBKZJvBgESEQH+CWUDFbJnBh3QWQZm6wUAK+HfBCVawQAIvxL/WNarBLkvLQK8W
hb95uaDB2oO4QHk0KL/7HLTBLmHAQEjR1T4GGJ7BnTStQA6HTj+KybHB8LnGQLOlrD/eBqjBK1e4
QAmfM0B0dKXBMIEHQSWbmkAX4HnBKTPjQKkjokAypW7B0a7FQOd5dEA6Pm/Bfem+QBDdT0BU4ILB
YSaxQMlKi0DVsorBprOrQOEIckAeNpXB3EOKQLm+NEDgtKLBEY45QIV3ZkDBnJTBvOIoQbxQv0AK
BoDBtVHzQFXNUkDcCJnBGVYQQTog40Bram7BgUTbQIB8zUC108TBzRALQb+3sECmi7nB1MyQQICR
s0DiOMLBz04DQR0kdEBNravBxZ2AQGWhfECLDrTBLQS5QMi2JMBsDKzBGDmOQHGsvb8uFKjB257E
QFF81b8HspnBNW7tQIhzjr8nyqLBkoPaQApfOb8PVLbBXK+kQGyGgr+ox7rBksyeQPnR8j6YfpvB
D1bVQN9JQz/KlZfBZOG0QB42tT8u3LjBj8KKQAY1YT9YErDBvfDoQFNPrj+nF6rBnKMEQUYAlEA4
doXBuV0PQd6qfUBEc3LBYyfpQJWvqkBg1V3BDMDSQPq/vEBrtnbB5BHUQKBgQkCaL2XBp0ymQJ1B
g0Crq2jByQPdQMQxM0CrsoXBsuGlQCVtHkC+kYLBeruSQOVcmUANAojB6+TJQClNpECv+4rBnfZl
QA7BHEB9TafBPhYEQAEPU0BxR5jBGRw2QCWbgUBGeo3BOgDSQNEntEDPYb/BclzzQGcXp0ATkbjB
wGKoQColpEAA2L3BfCvrQEAhikDFMLDBovifQCdzh0DtbbXB6C/BQDIOdUAdYK7BZh3NQEo/UUD9
7JrBuCKEQE74V0B0IpnBQHXZQM+LEUHlj5HBFCu0QATSw79seKrBJpLPQLrWgb91KqHB8L25QMmy
IL+2VrTBWsPCQCOI1j5uUJ7BmvysQBwrUj/wxrHBNhHHQBI8sD9vKqjBKCy4QHnhNECyRqXByir8
QCu0AEG86pPBJgf7QBsc3EDuzovBEtvQQKvcwkDWuYzBbE7TQLn3mUDixoXB8juvQPRSdECEZojB
sG6rQO6lYkDN95PBKjWKQEqPNUB2j6LBtLA4QNIybECv6pTBItnYQI2dGkHFjYjBnH3zQFSMTkC1
4JjBVLC+QJEeFkExwJjBkVbYQBV1ykAWysXBQaoJQX5Qs0DXw7nBYNmOQE3lrUBrIcPBeooCQVtn
f0A4GqvBwvZ/QOpHdkDhUrTB0x2+QCV4I8CtfqzBAFGSQMgMxL/wDqjB08bKQHq91L+WJ5rBUX7x
QGBFhL+ZgqPBoXHbQE5jJr9X37bBwGSlQCOYgL8G27rBW1KhQCWr2D5RkZvBjabXQH0iSD9Q2pfB
ww6zQHBuuT+q17jBxbWKQCQGWj82yq/Bhv/oQMN7tT/8e6rBVQP3QG2C9EC7AJzBkt8NQU9wCEFh
hpPBrgILQbpxxkDWaI3B6OH9QB8Y6UD8qIPBcjG2QIr41kDM8YnB8oXLQGbYuUCQIJXBM0nyQCc/
ikDNMYfBsdTQQIoio0Azm3rB2bu1QLPCN0D0N4TBvcGQQIGRh0CSi4XBq+NlQFLjHkAtRKfBwqkD
QJWLYEARJ5nBYFg0QLM3g0Deo43BamnXQBhitECUhb/Bt7P3QN5kpkAsgrjBPmetQE/gpEBeZL7B
zADuQF0giUDUUbDBpW2jQPwQiEDbH7bBxXPDQHk3dUCnza7BFzPNQKJwUkA5K5vB1Z+EQPZKT0BI
/JjB/rbJQNVy70D1g1TBvUiuQBDJxL/v1ajBDKTSQChMfb8O3aHBy7WpQEjAML/yCLPBFGnJQGLT
7D4TsJ7BdKigQLDfRj8YPrDBtbnDQHgzsD8ou6jBNF64QOxFN0DgqqXBTA6bQGCd50CgoFvBgdmX
QNkA2kDcSXPBjPuqQKUorUDTnHbBEwKpQAkTokDIJYfBREyxQPChZEDyj4jBpEasQEjFT0BkzZPB
TWKKQBY7P0BVH6PBAb85QLH8XECqU5TBug3kQOIiAEEOTGHBmWPzQLreWECqCZnBec7UQMMr5ECo
+UHBcN/eQKwIy0BwxsXBlf8LQVInskBParnB1sWUQLker0Ce4sPB5ZQDQbc4e0CgJKvB9CqDQLAo
eEDNVbXBBHK1QKv9JMCEDqvB7SKQQKh2wL8aTaTBon7VQJ45zb+kmJrB+NHwQJT2g790YabBqZTH
QKz2P7+KqrfBGByPQBvKir9Z3LfBx96rQBZZ/D6Q6JnB4EHkQGR3Vz8r35nBbaufQJCKrj+WrrfB
83eBQIcOVz/WMazBpjDiQAebsT99I63BhT+NQHUuzkC3m1HBK7uIQJqqAkEOY1nBRP1rQMyk2UCa
GnjBtXSpQBoe8UAiOX3B7XnMQDnfrECDM3HBR32YQMuPlUDeY23BjSWJQL0SqkAYT4rB7XzBQANr
tEBZgIvB7gTSQEcxVUCF9IXBIDmaQJXBP0CBxoPBuoxlQM8bOUDad6jBx8kEQBHSWkCNz5jBkXI1
QBcEaUDffIzBA0XTQAats0BxUb/BjDjyQPf9p0CFsLfBeNqpQIkwokB1xb7B+MLnQEMci0AZda/B
lUefQHA1hUAGk7bB1Nm9QDqWc0AMsK7B1IjJQLPEP0A2cJvB3GuCQL2pWUCdxpjB91j9QLzpDUH8
Sn/B+Q7cQEr0s7/BCKjBmoDmQP4n+r4zjrHBfVWuQAxSkr/xDqTBlYniQAIofT96X67BGrupQADI
oD7qi6DBFEW1QOAQpz+P0anBtJmxQEJ9MkAO7qXBO/byQLU47EAl8oDBHCjgQITU40CMKozBHmrZ
QC8OtECFPI7BHTy2QHqtoEA194bB+GqyQD8+YEB0mIjBWd6pQBpjS0AA0pPBisGEQDDXQkBS1qLB
6r87QJX9eEDx15PBtnfgQGmYG0HcVYHBt9vvQMgDN0CSnJnBb1YRQbBFE0Hs5XnBpkvbQEYNykDu
lsXBSwwJQTM4tUCUJrjBpyGSQF0Gq0BMp8TB6sv/QOAJgkCUranBQCN/QI4Ib0CxSLbBvNneQA0t
HcAlkKrBOcvyQLSumr8bgaHB6LUDQUetL7+uPbTBVRTQQFpaM7+eH7jBBY+XQJ3TrL90j6rBbm+n
QEnM5r+XO53BJq36QMXhmz9OPKjB+zboQLWyzj8BeLXBLnOIQGTf+z4bD57BZEi/QGVa/z5gv5nB
HN+dQCs6lD9jSbDBrDQIQbJc2UAH43/BI3/bQPms4kABrHXBbSzBQM9T9ED50ozBq1L2QJWQ8EAy
N5LBoALQQKSdr0DCpJbBSq/3QKgjo0BWuYzBblW+QJMgp0AdHH3BxWCXQNe+r0Bd5ojBZo7QQJqe
QUCFJIbBIwuYQMzOR0DUoYPBX0hXQOhCPUDcvqfBAJYFQEd1f0AWB5jBBTg9QMyNhECBGozB797S
QIhXs0ByVL/BA8bxQLASqEC3pbfBQIupQDikoUDjyb7Bll7nQPBYi0DUX6/BJgqfQPzLhECIjrbB
B5S9QHl9c0Bmoa7BrGvJQCV5P0ARZJvBP2OCQMh9WkCqxpjBIlwPQQCE20A/EXzBgIXcQDhxs798
JqjBNO3mQBKf9L7CobHBOLyuQCTYkr8ZL6TBsbriQG04fz8HZa7BC++pQLonnT4bnKDBUGO1QGTz
pj/a1anBenuxQNw1MkA546XB19ryQAlf70Cp5IDBRzHjQM3840DvT4zButHbQFLIs0AhFY7B61a3
QIWWoUAzB4fBC2SyQIIGYkAolIjB6s+pQD+KTEALzJPB15qEQKEtQkAvyaLBlOg7QALEekCl45PB
nUoTQbhC00C8umjB0KrvQEbANUD7iZnBXegcQbHR00BJRIXBnN7aQDaQyUBBo8XBp8gIQeB/tUA0
GbjByNeRQOs0qkBys8TBrVn/QAaggkAojKnBQM9+QLvbbUARRbbBf3bfQPzMHMDCt6rBSy/zQGFQ
mr9ImqHBuvIDQXZgK79ZTrTBmpfQQDNbML93OLjBSwiYQHAcrb+gtKrBid2nQD4H6L8VZJ3B1tD6
QJPlnD97PqjBxVXoQE1e0D84d7XB5Z6IQCVn9T7FH57BDm+/QC7S+j4pzJnBPAqeQE07lD/wULDB
YQPbQLbE40DvNXbBdYP1QFIxCUEZSIDBztbEQB3U9ECbxY3B8Fz7QM4F70CPFZLBgZTTQOmCrkA2
iZbBwZT5QAqcokAyLIzB8aa+QIIiqEB/J33BHyCZQPtjsUC2NonBXRzQQI0tQkArDYbB9aKXQCA0
S0BWn4PBm9hWQAdhO0ADpqfBsaoFQBBngEBOEZjBNJ09QG7/hUADMIzBe07SQOKWtEC5Jr/B9d3x
QAT1pkCl4rfBG0qoQNflpECCRL7B23nnQP/SiUA9sK/BfdCdQH+bh0ASIrbBgBm9QLoQdECaoK7B
R87IQKoUPUCYdJvBpEqCQKbOWUBd1pjBtJoAQeBi5EA9vJzBMbjeQN0usL/yzKfBO/nnQCQX9L7Y
frHB356wQD11lL+f8KPBHpTiQOxjgD/Hkq7BaWiqQPixlj7mlaDBaD21QI2CpT/c6KnBUACxQNCZ
MUBy+6XBPHYFQV6H50BxjZDBkorlQAgy2EAEW4nBMDLcQA18qUCM2IvBMLq2QN6El0CyXIXBriiw
QNQ7UEBXRYjBsL2oQA8ARUBI0ZPBBx6EQEFvQUCu2KLBNRg+QKjxfkAS9JPBNK4PQYM520BABqPB
QxrvQNxRM0DgqJnBr4rbQFxm6UAuK6DBN1faQIsSy0DnZcXBexcJQYDfskBBmLjBwweQQKxXr0AA
18PBJvH/QNfXfkAFK6rByy97QEeZdkAwl7XBHfviQAF/G8AfG6rB4wz1QPZYkL+uS6HBYoEEQRYh
Jr+/M7TB253RQPa8Or8n/LfBq0maQMdFs7+wdqrBxTyqQE2R6L+/EJ3BB876QIYNoz9lkajBrTzn
QFVqzj8wzrXB1d2IQAGW4T6pL57B+X+/QD08Aj+WwJnBWbGdQEJnkT8vVLDBqJcTQSO/00BdzY7B
afMIQX6RBEEpmo7B5JHuQKB920DS44DBB+jIQJaf60D794rBRYjUQHWhpkC1Z5TBoPP4QIKBlkAy
C4rBKsu9QEJTmkAninnBaHyZQBShqUCmO4fBQ+HMQEH7K0BC9YXByk6UQFqLN0DB3IPB46BVQAKK
OkDZqqfBrIMIQC9+hEAPJZjBJdZAQNTXh0BWPYzBSTLUQJpKtECpNb/BBlv1QPBnpUAAkrjBahWq
QLqupUCVpb3BkXPsQGERiEBhVbDB7fCgQLe3iED/WLXBt/jBQGQwdEDXc67B4KnMQMvcUEBP/5rB
m0+EQN9aUkCKCpnBGJQcQT8TskAcqXjBj8SxQCTHw7/wm6rBFnXMQFnHhL8YGKHBHFK5QFyTIb8z
arTB4rbAQKjP0D4tVp7BWy2tQPoCUz/677HB7ZDGQNeArj+7KajBeCO4QJGLNEDFZaXBCb8FQRen
t0Djy4DBM7joQEJnp0AE0HHBmfS6QM3Ds0DuCXnB+cavQHzlpEAH3YfBFa6wQBTtZ0ChnIjBxHir
QHEDUEA+tZPBie+JQB9NNkDDy6LBXOA6QOwra0Dxp5TB8wEsQRi2wEDqr4HBHOvyQOnTVUDT3ZjB
lp0fQdmEn0An/mbBvhLbQE7vykCggcXBWtoKQZSGsEDbzLnBpLuQQMq6sEA/1MLB3BcDQVIxeEBy
Z6vBgZGAQMAEe0BQNbTBTBa7QK7wI8DXkazBnqWPQOVxwL/5dKjBsyrGQGfy1r+MH5rBjp/uQCxT
i7/tK6PBIVXbQBjMLL+Zp7bBBqWlQCJ0fr8LHLvBcBafQN+94T6nv5vBPmvVQA/zQD+kx5fBvV60
QOBguT8z9bjBibqKQHMZYD/1LLDBPb7oQPxnsT/lQqrBj/YCQWbT2UD2YYLBRGkEQYWMpUBTUIjB
OdfqQJFUhEDGwnDBJ8LuQC5ytUBv9WHBHfijQNhKpUBH2G3Bxwi4QIfS1kBdbnjBeY2PQBpgsEAQ
8InB1i/HQEhHskAdhY3BCXfPQBS+T0CqmYXBLnGWQE/FTEDO04PBgvJkQIqhJECAxKfBcYMFQPdS
aEDoDpnB3Dk4QBDmf0AtGI3BsgXSQFYdtUBYFr/BEj3zQFfVp0C+QbjBW3yoQHSopEBKub3BJPjq
QHg/ikDaB7DBv/WfQEFsh0CKcLXBsgLBQA+wdEBMXK7BF13MQFCzT0BT+5rBrv+DQPgcVEBSGpnB
hwYaQQsOfUC7R27B6x62QBsWxb+u8arBmuXOQOrBg799K6HBw1i9QJL6HL/kmbTBAgHBQIoPyz5g
Z57BzwWvQKQSUj9HC7LB1h/HQL8Orz8nIqjBR7y3QLQJNEDjW6XB2j4IQXV8lkBNiXrBJPPlQOCl
mEANqG3BcLzCQKn+skCgKHnBczG6QAHDpEDHH4jB4GCwQElXaUAmp4jBSQKrQLaPUUAbvZPBmIWJ
QCioNEDUtKLBLuE6QM8YcEC12JTBfMYrQczucUC6bXfByqvyQE0dUUDL0ZjBvLkWQSlQYUDQnFvB
BGnYQP3vy0AtYMXBz5MJQTNgtECLVLnBmRmPQNB8rkD1C8PBN2UCQQ4hf0Bp8qrB5gWAQPeidUAk
dLTBszzBQPhfI8Bk9KzBkcSTQEDOyL8OCqnBrnnIQPsN2L98TprBG1zxQJqwhL/b9aLBA5bfQCyy
G7+IpLbBac6qQKw4fb9Dc7vBFgSfQPM+xj6fHZzBV1XUQHpMQj8SpZfBzsy1QGGouz8g97jBUW+M
QCr5Uj8IabDBN3bpQCyNtD/2CarBDbUNQR9Lt0CO1H3BVz0FQTzLhUBd3oTBrxTaQEi7b0CWO2vB
MHvsQDmAp0CsCV7B79GkQOvWr0DvBHDB7bDMQCDB1EBmZXnBf6ueQNWvtkDUSYvBhqPWQK+Rq0At
BY3BcgrLQFvyREDRJIXBTM+SQAGRW0AfM4TBWTtkQN8nIEC0hafB7nAFQMMZbUCbO5nBqsA4QMyg
g0C2ZI3BMHvRQB7vtEAlVr/Bja3yQHaLqECOZLjBRyWoQDf5o0AH+73BapnqQGBXi0ANELDBVdaf
QOIGh0CYnbXB2dvAQNufdUCubK7B55bMQGl2UEAs9ZrBth6EQGgWVUBuFJnB9KAjQeyEvEANyY/B
IT+2QCCOxL+Ma6rB6xbRQNH+f7/gGKHBxxy7QNX8IL/iSrTBWCzDQNyV2D7iTp7BlUStQFSeTz88
wbHBtRfHQP7xsD8AMajBps+3QOInNUAnXaXB0+0LQSsTx0DFFJLBj675QPVbtUDaWYnBGYLKQDfO
vkDnN4zBoT+rQFG7okAasYXBlmqvQBLtZEC/K4jBASCrQE5zU0DtqJPBP7qJQL34NUDRsaLB72Q6
QDd8b0Dw45TBwr0xQawlzkBjeJXBBPTyQFulTUCT7JjBQq4oQUh/o0CXRYjBuLvXQNlyy0DSs8XB
pjgJQUx6tUAldbnBqr+OQIQvrUBqXsPB8DMCQRlxgUBG4KrBPhKAQH3xc0C+prTBJRPBQBhHI8Co
cazBIGOUQPNiyL/NBqjBUJ3MQP4D078CFJrB2xDzQH72fr+nZaPBPtLcQMdVIL+d07bBQA6nQKnC
gr9izrrBFqehQNoDzz5loJvBxpbXQP59TT+W0JfBTMayQOmIuD8L1bjBHwKLQNhYUT8rvK/BbAHp
QJZUtz/ng6rBtA8KQdcK6kAod5LB+HEHQbXxuECm0pnBdjb+QLSNkkCdr4jBLbIAQf6UxEB2p4HB
w7fDQA+v4ECpiYrBP6DFQM5vuEBhyZTBQbGxQKG0p0C8QnrBv1eKQNjZrEDAhofBjfvOQH2NTkAY
doXBtDWWQEoVQkDv1oPBTJ1kQAm8IUAJhqfB20IFQERoa0AhUpnBPWc3QClMg0CEcI3B

>  <OMEGA_E>  (43) 
4rpMPxbwSz8cH0w/foZNP+J6Tz8+eFA/lsZSP0BLSj+6fEo/3IRKPw==

>  <OMEGA_NBR>  (43) 
    103146

$$$$
50157480
     RDKit          3D

 57 61  0  0  1  0  0  0  0  0999 V2000
    4.9177    4.1974  -22.8670 C   0  0  0  0  0  0  0  0  0  0  0  0
    5.1795    5.0580  -23.9448 C   0  0  0  0  0  0  0  0  0  0  0  0
    7.2085    4.4650  -22.0946 C   0  0  0  0  0  0  0  0  0  0  0  0
    5.9213    3.9085  -21.9106 C   0  0  0  0  0  0  0  0  0  0  0  0
    7.4739    5.3389  -23.1636 C   0  0  0  0  0  0  0  0  0  0  0  0
    6.4577    5.6553  -24.0948 C   0  0  0  0  0  0  0  0  0  0  0  0
    6.3265    3.4170  -19.4388 C   0  0  0  0  0  0  0  0  0  0  0  0
    4.0654    3.5311  -19.1321 C   0  0  0  0  0  0  0  0  0  0  0  0
    7.4255   -1.0910  -20.6121 C   0  0  0  0  0  0  0  0  0  0  0  0
    4.9903   -1.3958  -21.2162 C   0  0  0  0  0  0  0  0  0  0  0  0
    6.6577   -0.7294  -22.9875 C   0  0  0  0  0  0  0  0  0  0  0  0
    5.7087    0.5489  -19.7978 C   0  0  0  0  0  0  0  0  0  0  0  0
    7.3789    1.2340  -21.5865 C   0  0  0  0  0  0  0  0  0  0  0  0
    4.9423    0.9287  -22.1865 C   0  0  0  0  0  0  0  0  0  0  0  0
    5.9700   -0.9347  -20.1133 C   0  0  2  0  0  0  0  0  0  0  0  0
    7.6448   -0.2553  -21.8948 C   0  0  1  0  0  0  0  0  0  0  0  0
    5.1998   -0.5605  -22.5003 C   0  0  2  0  0  0  0  0  0  0  0  0
    5.6242    2.9623  -20.7281 C   0  0  2  0  0  0  0  0  0  0  0  0
    5.9158    1.4457  -21.0705 C   0  0  1  0  0  0  0  0  0  0  0  0
    8.8563    5.9527  -23.2935 C   0  0  0  0  0  0  0  0  0  0  0  0
    5.5289    4.1677  -17.1737 C   0  0  0  0  0  0  0  0  0  0  0  0
    5.6831    6.9746  -25.9766 C   0  0  0  0  0  0  0  0  0  0  0  0
    5.3163    3.6033  -18.5121 N   0  0  0  0  0  0  0  0  0  0  0  0
    4.2003    3.1060  -20.3630 N   0  0  0  0  0  0  0  0  0  0  0  0
    2.8465    3.8252  -18.5416 N   0  0  0  0  0  0  0  0  0  0  0  0
    7.5261    3.4449  -19.1857 O   0  0  0  0  0  0  0  0  0  0  0  0
    6.7676    6.5393  -25.1238 O   0  0  0  0  0  0  0  0  0  0  0  0
    3.9396    3.7505  -22.7660 H   0  0  0  0  0  0  0  0  0  0  0  0
    4.4023    5.2669  -24.6651 H   0  0  0  0  0  0  0  0  0  0  0  0
    7.9997    4.2150  -21.4032 H   0  0  0  0  0  0  0  0  0  0  0  0
    8.1166   -0.7438  -19.8300 H   0  0  0  0  0  0  0  0  0  0  0  0
    7.6223   -2.1509  -20.8312 H   0  0  0  0  0  0  0  0  0  0  0  0
    5.1693   -2.4578  -21.4404 H   0  0  0  0  0  0  0  0  0  0  0  0
    3.9570   -1.2650  -20.8622 H   0  0  0  0  0  0  0  0  0  0  0  0
    6.8083   -0.1304  -23.8977 H   0  0  0  0  0  0  0  0  0  0  0  0
    6.8455   -1.7899  -23.2112 H   0  0  0  0  0  0  0  0  0  0  0  0
    4.6739    0.6634  -19.4428 H   0  0  0  0  0  0  0  0  0  0  0  0
    6.4045    0.8763  -19.0113 H   0  0  0  0  0  0  0  0  0  0  0  0
    8.0855    1.5737  -20.8148 H   0  0  0  0  0  0  0  0  0  0  0  0
    7.5262    1.8235  -22.5034 H   0  0  0  0  0  0  0  0  0  0  0  0
    5.0966    1.5206  -23.1007 H   0  0  0  0  0  0  0  0  0  0  0  0
    3.9045    1.0493  -21.8423 H   0  0  0  0  0  0  0  0  0  0  0  0
    5.8210   -1.5405  -19.2073 H   0  0  0  0  0  0  0  0  0  0  0  0
    8.6786   -0.3828  -22.2484 H   0  0  0  0  0  0  0  0  0  0  0  0
    4.5053   -0.9013  -23.2823 H   0  0  0  0  0  0  0  0  0  0  0  0
    9.4904    5.3016  -23.9131 H   0  0  0  0  0  0  0  0  0  0  0  0
    8.7748    6.9426  -23.7664 H   0  0  0  0  0  0  0  0  0  0  0  0
    9.3053    6.0592  -22.2950 H   0  0  0  0  0  0  0  0  0  0  0  0
    4.5700    4.2098  -16.6364 H   0  0  0  0  0  0  0  0  0  0  0  0
    6.2339    3.5336  -16.6162 H   0  0  0  0  0  0  0  0  0  0  0  0
    5.9424    5.1829  -17.2655 H   0  0  0  0  0  0  0  0  0  0  0  0
    6.0708    7.6653  -26.7399 H   0  0  0  0  0  0  0  0  0  0  0  0
    5.2305    6.1011  -26.4687 H   0  0  0  0  0  0  0  0  0  0  0  0
    4.9230    7.4882  -25.3697 H   0  0  0  0  0  0  0  0  0  0  0  0
    3.4373    2.9044  -20.9772 H   0  0  0  0  0  0  0  0  0  0  0  0
    1.9995    3.7161  -19.0620 H   0  0  0  0  0  0  0  0  0  0  0  0
    2.8139    4.1465  -17.5952 H   0  0  0  0  0  0  0  0  0  0  0  0
  1  2  2  0
  1  4  1  0
  2  6  1  0
  3  4  2  0
  3  5  1  0
 18  4  1  6
  5  6  2  0
  5 20  1  0
  6 27  1  0
  7 18  1  0
  7 23  1  0
  7 26  2  0
  8 23  1  0
  8 24  2  0
  8 25  1  0
  9 15  1  0
  9 16  1  0
 10 15  1  0
 10 17  1  0
 11 16  1  0
 11 17  1  0
 12 15  1  0
 19 12  1  1
 13 16  1  0
 13 19  1  0
 14 17  1  0
 14 19  1  0
 18 19  1  0
 18 24  1  0
 21 23  1  0
 22 27  1  0
  1 28  1  0
  2 29  1  0
  3 30  1  0
  9 31  1  0
  9 32  1  0
 10 33  1  0
 10 34  1  0
 11 35  1  0
 11 36  1  0
 12 37  1  0
 12 38  1  0
 13 39  1  0
 13 40  1  0
 14 41  1  0
 14 42  1  0
 15 43  1  1
 16 44  1  6
 17 45  1  6
 20 46  1  0
 20 47  1  0
 20 48  1  0
 21 49  1  0
 21 50  1  0
 21 51  1  0
 22 52  1  0
 22 53  1  0
 22 54  1  0
 24 55  1  0
 25 56  1  0
 25 57  1  0
M  CHG  1  24   1
M  END
>  <OMEGA_C>  (44) 
b12dQN1QhkCG77bBJr6lQP3aoUAFj7/B8KvmQKfhjkCowbDBVXu9QM0kekDpSK/BZirvQDnYqkAh
T7nBu6XOQEr4tEAgwsDBWnLKQJmwWkC7gpvB6heCQLb9YUCNDpnBhZ3tQDyni7+g5aTBU7CfQN6q
sr/RuqnBSQzVQAe5Or9f5rfB8q22QEOGDD/vYZ7BFCDsQCb1nT8QsazBFieeQEy9bT/efbHBCgq/
QAxIb78a6KDBOKL0QBy4gr6aKK/BuGSmQAB9D7+VALTBLfmzQDaWPUA506XB3U29QBkLuT98kKjB
QLMNQeN8vkAkWbrBhOywQAVehUDKY4nBHdy1QKgv30Ad0M/BUx+qQASdZkCvGJTBQ2mGQPnHRkCG
56LBaiw2QE/QdEA/VZTBqNXwQNB4XEBAfJnBAZDYQKNB0UCI/cjB4yJ8QKAIcEC8ILbBfd+MQDyK
qEAVUsXBI/3/QAvhhkDUOavBlt0BQXFqPr+/o57BGerzQOunCcBYpqbBM2ulQAZMHcDphavBKkB9
QKvqob/c5abBrt3ZQGN+Bb6CLr/BEw7bQHgb5b+jsLnBnpCVQGvSKT/iipvB7/HMQBlXYD8SF5jB
CV4BQRxvyT++hKbBbNbwQP9n6T8PB7TBRBejQG2kwj8kzrjB6eJ5QN9Phj8Yva7B/EW6QAAuxb+X
qJnBm9sKQe34w76l/LHBWSuQQJW4Zr8oQrrB1dgXQcmmqUD8Tb/BnWUMQYMp3kCaIb7BleIUQVjl
wUA1XLLBCD2SQGy2hkBhF4XBK3zHQFEmYkAO7oTBXii+QDjapUC0H4rBDETCQNZJ9UBe69XBTGCn
QPM7w0Djv9PBcomdQKCf70AN9crB7/xbQG/hOUA+0afBj/D/P2rUbUD9fpjBRBc0QGawhED/wozB
VQmdQAvkhUAzzrbBdA+lQMrOoUC5YL/BP4XmQDtijkD4v7DBAmC9QNsheUCDN6/BRbHuQMueqkDY
Q7nBi+DNQNUbtUAQmcDBionKQAvQWUDacpvB3UeCQHDcY0DhJpnBPFnVQCnSOL+D/rfBOuftQJWg
jb8UA6XBAAKgQFTYs7/816nBOnvsQC/3nD/noqzB+XGeQC5KbD9HerHBkQe3QNXNBz/OYZ7Bh/L0
QKjvhL7LNq/BBrSmQOCrD7/LErTBiFu/QBqZc7+Q/qDBjB60QOd3PEA2waXB1J29QFVrtz+HhqjB
2WkNQad8vkAnV7rBtumwQIRQhkAaeYnBXZu1QAu/3UBnAtDBjCCqQKvEZkD3FJTBHouGQKPgRECc
0aLBdeU2QALKe0CjtZTB3e7wQLR8XEDzcpnBc4TXQLYr0kD1r8jB77F7QLS6bkB7/bXBbQGMQCai
qEA8FMXB4QUAQZUthkBeTKvBeR3aQFDp5L3yN7/BWmbbQN/D479C47nBnB30QFuKCsAj2KbBagkC
QXecRL9pvJ7B5eN9QDtlo78gAafBjbylQMnJHcCvsavB8oMBQQxfxz+ra6bBN0rxQIaT6T/Q67PB
VVejQCbJwj/wwbjBynt6QFMlhT/nta7Bee+VQGu3JD/4hZvBf1fNQHZLWj81FZjBbgMLQXIGxb77
DLLBX3uQQO6uZb+/WLrB75m6QMMpyL/Yx5nByoQXQQXzqUAgZb/BwfwLQZRQ3kDfB77B8bgUQdiZ
wUCDX7LBxDqSQF34h0AvLoXB/4DHQOPVZECN6YTByBq+QAPApkB2X4rBiNnBQFbG9EBa69XBmRWq
QKLqwEDzJ9TBlRSbQM9Y7ECYhcvBkkJcQIP5NEDtl6fB2PcAQFrFdUCI85jBHck0QEWJiUArQ43B
QkmdQIwAhkDo97bBn8ilQDxDoUBLo7/Bk3nmQIDvjkCZtrDBglS9QJUfekANR6/BCiDvQDV9qkAR
VLnBwLrOQA9RtEB+1cDB96LKQA5gXEBFk5vBkTuCQOwVZUDXIJnBY2WfQD0Isb+Z46nBW3DVQDWv
Nr9F6LfB6h7tQMJEjL8g26TBS46eQKm9cT+bjrHBZje2QI7LDT/+Y57BUWHsQPcdnj+WiazBAKqm
QMX4Cr9+HLTBn2++QBJ0br8+9qDBZrn0QPqdgb6sDq/BhvuzQB0APkAhzKXB3mS9QITuuT/ohajB
wroNQb7cvUBLZ7rBJUexQOexhEDxVYnBV1q2QFfX3UBwC9DB0nGqQJZadkDctZTBYnuGQHcuR0Bu
2qLB1T82QDiVcUD9IpTBJcXwQGmiWEDTTJnBwNbYQIxM0EBgHMnBYPt7QC5ob0AAKLbBNgCNQDDH
p0Bsb8XB66L/QJlNh0AsG6vBX3Z8QILin79PJKfBmQylQNF2HMDbtKvBAGHbQNTu4r+gwbnB+57a
QHbc272LIr/B+osBQXtiQr+1h57BHDjzQPb2CcDlpqbBxOKjQDMoxT8c1bjB+n56QIqpiD8l467B
2AOVQJQqLD88oJvB9kvMQDvGXz+4CJjBTGQBQdRvyD9YSabByoTxQAwy6j931LPBBqSQQHhSYL/R
b7rBUUW5QHs8xb8uwJnBhPMKQfe7xL6kzbHBd9gXQRWwqEAXSb/B/IQMQdZc3UCnSL7BxuMUQZ6W
wUA3a7LB18WSQDNMjkDCqIXBSJ+9QC0JUECARYXBKJLIQDfmnkCCjYjBbenCQNO980BRLdbBaRqo
QA+wwUDb8dPBAs2dQNVj7kAhScvBRwtcQHBxOEDVq6fB5e3/P+iAY0DJ/ZfBCho0QOdWhEA7rozB
kZ7nQJehkUCXmrDBIrvuQEYErUAVYLnBAg6fQOzPhUD9xbbBww+/QO+bfEDKE6/BzNGlQKZLoEBr
rr/BAkfOQDNOtUDO+sDBENjKQMClW0BlSZvBKTyCQNdqXkCF45jBZuieQHGUsL96kKnB9frSQNfP
Nr/wCbjBY0ntQC2Ei78/NKXBnT6dQAiYcz9HRLHBflK3QPG5Dz/VUp7Bg7DrQAQFnz9e3qzB3cik
QFc9Cr/l2LPB1SW/QP3ObL8E7aDBpILzQHdSf762eK/BexS1QORfP0CrraXBFGa9QDRpuz/7f6jB
PteAQIQho0Cxi8fBUv2vQJxKg0AWDYnBkD66QIxS50CgWM/BEBuqQDVHZEAQ35PBO1OHQJL7SEC5
6aLBQk81QLeTa0DSJpTBHDXxQGkFYUBvWZnBznDaQKS9z0D7ecnBrJoAQVBVi0CaA6vBWNIGQToC
vEATULrBZTyAQMdZbUBByrXBP0Z8QLB1n78GiabBwlSkQOw/HMAYa6vBgaLYQNUk47/O5rnBnCzX
QHYe5b3oU7/BaAsCQQiHQL+/EZ/BlybzQLubCcBsCafBeKehQDV5xT/wmrjB+qp4QGpNij/+Ua7B
83KWQFiJLj8CVJvBCR/OQKZdYT+MH5jBeXQBQfHPyD/oyqbBqP7vQEgt6z8LMbTBCeCNQGVVX7/y
+bnBCPm6QOoExL9+qJnBkyMKQZshxL6ygLLB+6ZXQL7pvUDATsXBE2yNQJtuqEAkqM/BVANdQFcX
hUAhXsfBayGRQA1Lg0BO0YTB+v3GQLB3XkCZqoTBpUW8QN03pEAyjYnBma/JQDA4+kAisNXBSmOj
QNPG0EBT9NLBTiupQOHl/ECT28nBwIleQEYsQECEEqjB0Zz/P6m6ZEAVdZjBpbkxQEnqe0ABbozB
Dq/nQEDSkUCegLDBfgTvQM4erUCUSbnBmuaeQFyXhkCQorbBlv2+QMRbfUDM+a7BjAKmQE/poEBw
jb/Bo4zOQCNvtUD/4MDBaNHKQKH3W0C0O5vBKB6CQIgrX0Dy35jBo4ftQEn5ir9iUqXBSDOfQBJq
sL/qq6nBJiLTQIWIMr9YIrjBOYG3QDpSDz/+WZ7B5rrrQN1CoD9C46zBcD+dQI5bdT8CQ7HBG2q/
QAT3bL/TBKHBD6jzQOnucr5hja/Bb/GkQADaB79L67PB3g21QBOcP0Bfn6XBS3S9QA4DvD+XfqjB
M6KBQMUDpEBwj8fBFNWvQJg+hEA0ConBi8q6QDws60AvOM7BC/upQAW9ZkAx5JPB20mHQCW5SEAa
3KLB1OU0QAO2a0CLKJTB9i7xQLwHYEBhP5nBY1LaQGyRzkDBnsnBQJoAQaBwi0Ay5qrBPwAHQcHz
u0BFPLrBzLp/QBrlb0DYnLXBvy0CQa1iQL8TLp/BNWzzQDw8CcDyNKfBZMCkQE0KHMDfkqvBXdh8
QJMUoL9coabB1T3XQPKLtb02ZL/Bmt7YQAC94L9cDrrBCKWWQD0jLT9fVpvBelPOQP9aYD8JJpjB
GHsBQXTHyT+ZzqbBnfTvQO8E7T9lMLTBUX2hQH8bxz9zk7jBpbd4QBpjij+RSK7BO1C7QBOxxL8C
xpnBHTYKQbisu766mLLBQgiOQAhfXL9ADrrBtY1ZQKwRv0ADcMXBzc2OQOQHqUDLn8/BkehdQEcv
hkD5bMfBqsOQQH41hUD46ITBT/DFQDHYXkAbl4TB7DG9QAzDpEDaeonBSxHJQD2K/ECi/dTBii2f
QGJ92EDRCtHB4y6wQLQZAUF1HcjBKoNeQHvrPkB8/6fBk/3+P4aSY0DRcpjBXxUxQNXkfECEd4zB
xE/nQF4CkkAogrDBGtHuQHQhrUA+ULnB3n+eQKfzhkC6qbbBJJa+QIfmfUCTAa/BMMqlQNMeoUDd
mr/BfnfOQMZitUBS8MDBgrnKQGE9XUCMU5vBCwuCQFtXYUCg75jBCBPTQNhUML9+HbjBzPbtQFlP
iL8XUqXBSpyfQFHAr7/Cj6nBTJrrQBs+oj/v9qzB1AidQHjedT+AMLHBtsi3QJgkEz+1UJ7BNrfz
QLY9Yr4zl6/B0PSkQFArB7/C1bPB3Oi/QHwtab+P9aDBcMW0QNA4QEApp6XBdGO9QGhbvT/PfajB
1ZaBQFAapEDLqsfBGhCwQOBVg0D5AInBYj+7QLi46kCpbc7BzOqpQEcAc0COX5TBSgmHQAssSUDg
3KLBmAg1QBouaUDN/ZPBfv/wQPZcXEBmK5nBOIjaQA8lzkCauMnBWV0AQZezi0Dk3qrBXuwGQU7g
u0CvQLrB8L1+QHoNcUBon7XBGOrWQGkup73hY7/Buu/YQFaY379mBrrBLAP0QHzmB8AoLafBXW4C
QQ0iOb/OOJ/Bfr19QIQmoL/9eqbB01ilQP2sG8CbcqvBDHoBQUaxzD8T8KbB3ILvQDGT7j9YS7TB
KPGgQIc2xz97hbjBBWt4QB3riT87J67BLfaWQMzeLz/sQ5vB0qrOQMTZZT/zJZjBbTcKQZN7sb5e
rbLBl/SNQIM1Xb8C7rnB3BG8QOeHwr+UsZnBIoRZQF5Ev0AfnsXBxPGOQFPeqEC2uM/BqahdQEFT
hkDygcfB1PuQQGjpikD4VIXBcDi+QN33TkBB84TBQ5vFQJP8nkBQM4jBNcHJQM7E+0BEONXBNJuf
QBwR2EDmPtHBQJ6wQDgDAUFcZMjBodpdQJscPkAw8KfBywr/P5kCXEAjD5jBCokxQNIAfECWW4zB
FpeeQIT8hUD2+rbBnE6nQBK5oEA/ur/BW13nQPYAkEACg7DB1ie+QGqIfEBIEq/BICXwQNI1q0CU
LrnBQBbQQJMjtEAO2MDBCCfKQGr/XUDFN5vBI8uBQGY4X0D6x5jBd5qxQC/9ab8vFbfBVSj4QLPY
Wr8qT63B87q0QAKlvL9oaaPBzt7VQCyMpD9TabPB6vyRQAGBKD87kqnBM7PYQFppOj/Uvp/B5End
QBGmSr6IOrbBEIOZQNcEU78FVazBX1HgQFnzQb+mgKLB1Gy0QJsHQECkpaXBpze9QFuouT+UhqjB
zycOQTsFv0CDLLrBX56vQE/ZgUAcy4jBtGO3QOmn30DKoM/BN5ypQGxfZED+wpPB3dGGQB7NTUBV
76LBcJM0QBzAakAz9JPB7VDwQJhKZ0DpO5nBJGfaQLNFz0BmRMnBWwd/QPJFbkADRLbBuNGOQMCO
pkC0pcXBujgAQX+IiEAt3qrBBFueQLO33r4kYL3BOdG2QKNW/L/6ILnBoZH9QD/n9L9zSa/BmY8L
Qfj4rL7Rq6zBR6OjQCxlsr/evpvBmge6QFA0IsDYVKXBoRD1QFL55D//xbLB2v7CQNF24D+H07nB
rDR9QKr0jj9A76/BN6SAQPorOD/77aHBnc/HQHRKSj9cCpjBfNT3QFgXnj+SF5/B0FvuQDqZi77A
5r3BGzl1QFgorL8w+azBOJnzQGJknb+gLpzBmIYYQbHLqUAY6L7B8eAMQQdD3kCALb7BqREVQcZf
w0CeJ7LBitKQQNAugUDgiITBvrvGQMF/WkBkm4TBvdC7QCfbokB7BInBOA3EQDaK9EAf99XBauil
QCbNxEA7RdPBRJChQL4V8kBxfMrBRK5dQG05SkCcNqjBsP79P7bZZUBUSZjBmSQxQFr4d0BhI4zB

>  <OMEGA_E>  (44) 
AAAAAAC7LzwAdTo8gKdUPYA+Xj0AnnA9QLXTPQ==

>  <OMEGA_NBR>  (44) 
      6855

$$$$
50157415
     RDKit          3D

 50 53  0  0  1  0  0  0  0  0999 V2000
    3.7517    5.0502  -24.8763 C   0  0  0  0  0  0  0  0  0  0  0  0
    6.3049   -0.5730  -22.7999 C   0  0  0  0  0  0  0  0  0  0  0  0
    4.9451   -4.2227  -18.5026 C   0  0  0  0  0  0  0  0  0  0  0  0
    5.8256   -1.5631  -21.9201 C   0  0  0  0  0  0  0  0  0  0  0  0
    5.4229   -3.3279  -19.4726 C   0  0  0  0  0  0  0  0  0  0  0  0
    6.1312    0.7922  -22.4967 C   0  0  0  0  0  0  0  0  0  0  0  0
    6.9026    4.2279  -22.1544 C   0  0  0  0  0  0  0  0  0  0  0  0
    7.1371    5.1601  -23.1822 C   0  0  0  0  0  0  0  0  0  0  0  0
    4.6241    3.9467  -22.9437 C   0  0  0  0  0  0  0  0  0  0  0  0
    4.9670    0.1725  -20.4470 C   0  0  0  0  0  0  0  0  0  0  0  0
    3.6978   -3.9781  -17.8908 C   0  0  0  0  0  0  0  0  0  0  0  0
    3.4035   -2.0139  -19.1354 C   0  0  0  0  0  0  0  0  0  0  0  0
    4.8456    4.8696  -23.9745 C   0  0  0  0  0  0  0  0  0  0  0  0
    5.1431   -1.1892  -20.7424 C   0  0  0  0  0  0  0  0  0  0  0  0
    4.6459   -2.1978  -19.7902 C   0  0  0  0  0  0  0  0  0  0  0  0
    5.6215    3.6453  -21.9988 C   0  0  0  0  0  0  0  0  0  0  0  0
    5.4622    1.1751  -21.3077 C   0  0  0  0  0  0  0  0  0  0  0  0
    6.1162    5.5225  -24.0888 C   0  0  0  0  0  0  0  0  0  0  0  0
    6.0495    2.9087  -19.5925 C   0  0  0  0  0  0  0  0  0  0  0  0
    3.8101    3.2368  -19.2384 C   0  0  0  0  0  0  0  0  0  0  0  0
    5.2939    2.6372  -20.8865 C   0  0  1  0  0  0  0  0  0  0  0  0
    5.3641    3.6780  -17.2949 C   0  0  0  0  0  0  0  0  0  0  0  0
    5.4665    7.3038  -25.6462 C   0  0  0  0  0  0  0  0  0  0  0  0
    2.8420    5.1829  -25.5926 N   0  0  0  0  0  0  0  0  0  0  0  0
    2.9499   -2.8961  -18.2148 N   0  0  0  0  0  0  0  0  0  0  0  0
    5.0758    3.1745  -18.6420 N   0  0  0  0  0  0  0  0  0  0  0  0
    3.8860    2.8317  -20.4812 N   0  0  0  0  0  0  0  0  0  0  0  0
    2.6321    3.6317  -18.6219 N   0  0  0  0  0  0  0  0  0  0  0  0
    7.2542    2.8065  -19.3894 O   0  0  0  0  0  0  0  0  0  0  0  0
    6.4840    6.4573  -25.0596 O   0  0  0  0  0  0  0  0  0  0  0  0
    6.8079   -0.8615  -23.7111 H   0  0  0  0  0  0  0  0  0  0  0  0
    5.5267   -5.0900  -18.2274 H   0  0  0  0  0  0  0  0  0  0  0  0
    5.9802   -2.6078  -22.1465 H   0  0  0  0  0  0  0  0  0  0  0  0
    6.3678   -3.5028  -19.9655 H   0  0  0  0  0  0  0  0  0  0  0  0
    6.5083    1.5470  -23.1709 H   0  0  0  0  0  0  0  0  0  0  0  0
    7.7027    3.9558  -21.4819 H   0  0  0  0  0  0  0  0  0  0  0  0
    8.1155    5.6067  -23.2796 H   0  0  0  0  0  0  0  0  0  0  0  0
    3.6650    3.4553  -22.8731 H   0  0  0  0  0  0  0  0  0  0  0  0
    4.4438    0.4570  -19.5460 H   0  0  0  0  0  0  0  0  0  0  0  0
    3.3307   -4.6695  -17.1467 H   0  0  0  0  0  0  0  0  0  0  0  0
    2.8037   -1.1488  -19.3766 H   0  0  0  0  0  0  0  0  0  0  0  0
    4.4223    3.8045  -16.7408 H   0  0  0  0  0  0  0  0  0  0  0  0
    6.0075    2.9601  -16.7651 H   0  0  0  0  0  0  0  0  0  0  0  0
    5.8791    4.6472  -17.3683 H   0  0  0  0  0  0  0  0  0  0  0  0
    5.9283    7.9746  -26.3856 H   0  0  0  0  0  0  0  0  0  0  0  0
    4.7097    6.6778  -26.1415 H   0  0  0  0  0  0  0  0  0  0  0  0
    4.9879    7.9023  -24.8570 H   0  0  0  0  0  0  0  0  0  0  0  0
    3.0976    2.6750  -21.0761 H   0  0  0  0  0  0  0  0  0  0  0  0
    1.7718    3.6172  -19.1316 H   0  0  0  0  0  0  0  0  0  0  0  0
    2.6429    3.9309  -17.6678 H   0  0  0  0  0  0  0  0  0  0  0  0
  1 13  1  0
  1 24  3  0
  2  4  2  0
  2  6  1  0
  3  5  2  0
  3 11  1  0
  4 14  1  0
  5 15  1  0
  6 17  2  0
  7  8  2  0
  7 16  1  0
  8 18  1  0
  9 13  1  0
  9 16  2  0
 10 14  2  0
 10 17  1  0
 11 25  2  0
 12 15  2  0
 12 25  1  0
 13 18  2  0
 14 15  1  0
 21 16  1  6
 17 21  1  0
 18 30  1  0
 19 21  1  0
 19 26  1  0
 19 29  2  0
 20 26  1  0
 20 27  2  0
 20 28  1  0
 21 27  1  0
 22 26  1  0
 23 30  1  0
  2 31  1  0
  3 32  1  0
  4 33  1  0
  5 34  1  0
  6 35  1  0
  7 36  1  0
  8 37  1  0
  9 38  1  0
 10 39  1  0
 11 40  1  0
 12 41  1  0
 22 42  1  0
 22 43  1  0
 22 44  1  0
 23 45  1  0
 23 46  1  0
 23 47  1  0
 27 48  1  0
 28 49  1  0
 28 50  1  0
M  CHG  1  27   1
M  END
>  <OMEGA_C>  (45) 
kxtwQJ6boUCmAsfB0cHJQA2yEr8sZrbBRz6eQPQfh8BpBZTBYmu6QAEVyL9jXK/BooitQM37VMDz
x5vBKDPEQDzOSj9I+bPBYeLcQL1Kh0BAPLHBz2LkQJAfpUAtdbnBWfiTQOCWfEDMjLfBp/GeQE6j
MD5lk6PBialsQKmYfsBKII/BitNZQM3jAMBSFZnBHg+bQGPTm0DGy7/BqpSkQD84mL9W8KXBBauU
QI2pDMBRUp7BOeOzQMpLaUCX/a/BZ8quQE1qlj9BdqrBRrjDQPm3sEDgtcDBhJXBQIAoOkCBvZzB
hdhzQHAnT0As6JnBr2epQL7HKECIF6fBsKarQApla0DrW4rBeO2uQA256UBmK83Bq+I1QIzapUCa
vczBe8s8QO5YOcDot5HB2WyiQNAqS0DQIpXB5LR4QFY6NUCX2aPBoXMoQINtaEC4+ZTBuyLoQEOe
M0CDHZvBI33PQDqizkAOesjB89nZQLeLXL8+sL3BvtqwQJvhosCk0ZHBb12/QNLlJsAGLLHBXMXL
QMEtYMBkuZ/Bo0PQQIYExj8GXrnBvnz2QJUsfUD62qvBQdkBQXFqs0CyPLrBjI5qQEYjXUAU/LbB
uzOOQHIB6j4/XpzBHSpVQClslcCCLInBXnAzQO4Kk79RA5vBd4ONQPJ8c0Ah7YXBSD3AQI9yPUD6
HobB8SG8QCi2lEBK8orBCrW9QPUv/0DBFdPBz7WWQKGw1UDVIdHBtJyfQGvf/EAm28bBUD9GQJMz
K0DVm6jB3criPx6AZ0CMDZnBACYpQMqTe0CsV43BFkVtQOFmpUAJSsbBix/FQBhjDb9mx7bBc9ZH
QLCpQsDQ65DBohC3QL4Nxr9lo6/ByZNeQOybA8DJY5jBPZXAQOQtTz/aJbTBEs3cQA26hUDFV7HB
TePkQFn4okAIqrnBYPCSQLkkgECTLbfBgbieQEzDNT6fT6PBq7B+QBiXhMASUo/BkmqvQOdNVsBp
P5zBIYCaQAFUnUDJe7/BwKOjQCZ2l79Y36XB+bWVQIp0DcBhLJ7BGSWzQJXyaUAg06/BLVmtQGjE
lz/DVKrBfiLEQBv/r0AjvsDBxOXAQAStOkAInJzBGBtzQAgoU0A8xZnBTmOoQEN4KUC66qbBH8mr
QEffb0A4V4rBVUixQJfr50A/xs3BjYQxQNurq0BUpcvB9TWkQCQBicD46pTBRA6iQFovTkAuBZXB
YeZ2QH8mNkDilqPB3rkoQF0XcED06JTBi2XnQPGjMkC0ApvBYebQQPQJzUDsosjBMXXTQHaPVb9o
T77BrvUMQHtAPcAycozBACW7QFTIJcATorHBzAM2QCY3mb/4rpnBDsfLQOW+yD+8nrnBo3r2QNgM
eEDoF6zBSmICQRm1r0CaqLrBdzlnQC3CY0CqZ7bBk4yPQJg96T6i35vB8IZtQL+inMBRf4nBO63M
QI+CXsDDuqDB2M+NQG3jeUBf5oXBNADAQNrcQUCNAIbBpdq8QBiRlkArHIvBgA7BQP+L/EAwt9PB
TVqZQLa000DPydHBYGShQLPw+0BSucfBqPtDQPo4KkCBM6jBzu3iP4+Yb0Df8ZjBBV4qQA65gkAJ
X43B

>  <OMEGA_E>  (45) 
MDc0PojYtD4=

>  <OMEGA_NBR>  (45) 
      5777

$$$$
50157426
     RDKit          3D

 52 55  0  0  1  0  0  0  0  0999 V2000
    6.4234   -0.5348  -22.7469 C   0  0  0  0  0  0  0  0  0  0  0  0
    4.9887   -4.2058  -18.4929 C   0  0  0  0  0  0  0  0  0  0  0  0
    5.9453   -1.5333  -21.8760 C   0  0  0  0  0  0  0  0  0  0  0  0
    5.4804   -3.3062  -19.4515 C   0  0  0  0  0  0  0  0  0  0  0  0
    6.1770    0.8250  -22.4719 C   0  0  0  0  0  0  0  0  0  0  0  0
    4.5722    3.9981  -22.9630 C   0  0  0  0  0  0  0  0  0  0  0  0
    4.8650    4.9176  -23.9826 C   0  0  0  0  0  0  0  0  0  0  0  0
    4.9465    0.1826  -20.4699 C   0  0  0  0  0  0  0  0  0  0  0  0
    6.8458    4.2005  -22.1294 C   0  0  0  0  0  0  0  0  0  0  0  0
    3.7260   -3.9728  -17.9086 C   0  0  0  0  0  0  0  0  0  0  0  0
    3.4401   -2.0134  -19.1596 C   0  0  0  0  0  0  0  0  0  0  0  0
    5.1972   -1.1729  -20.7341 C   0  0  0  0  0  0  0  0  0  0  0  0
    4.6982   -2.1849  -19.7874 C   0  0  0  0  0  0  0  0  0  0  0  0
    5.4300    1.1921  -21.3247 C   0  0  0  0  0  0  0  0  0  0  0  0
    5.5509    3.6578  -22.0033 C   0  0  0  0  0  0  0  0  0  0  0  0
    7.1460    5.1514  -23.1245 C   0  0  0  0  0  0  0  0  0  0  0  0
    6.1497    5.5141  -24.0708 C   0  0  0  0  0  0  0  0  0  0  0  0
    6.0149    2.8950  -19.6111 C   0  0  0  0  0  0  0  0  0  0  0  0
    3.7929    3.2842  -19.2304 C   0  0  0  0  0  0  0  0  0  0  0  0
    5.2291    2.6449  -20.8979 C   0  0  2  0  0  0  0  0  0  0  0  0
    5.3909    3.7018  -17.3099 C   0  0  0  0  0  0  0  0  0  0  0  0
    5.3928    7.0894  -25.7477 C   0  0  0  0  0  0  0  0  0  0  0  0
    8.5702    5.7031  -23.2169 C   0  0  0  0  0  0  0  0  0  0  0  0
    2.9757   -2.8978  -18.2482 N   0  0  0  0  0  0  0  0  0  0  0  0
    5.0670    3.2072  -18.6538 N   0  0  0  0  0  0  0  0  0  0  0  0
    3.8328    2.8455  -20.4663 N   0  0  0  0  0  0  0  0  0  0  0  0
    2.6407    3.7147  -18.5916 N   0  0  0  0  0  0  0  0  0  0  0  0
    7.2044    2.6807  -19.4010 O   0  0  0  0  0  0  0  0  0  0  0  0
    6.4817    6.4141  -25.0780 O   0  0  0  0  0  0  0  0  0  0  0  0
    9.2517    5.5202  -22.0537 F   0  0  0  0  0  0  0  0  0  0  0  0
    8.5650    7.0386  -23.4658 F   0  0  0  0  0  0  0  0  0  0  0  0
    9.2252    5.0537  -24.2131 F   0  0  0  0  0  0  0  0  0  0  0  0
    6.9812   -0.8126  -23.6290 H   0  0  0  0  0  0  0  0  0  0  0  0
    5.5716   -5.0684  -18.2054 H   0  0  0  0  0  0  0  0  0  0  0  0
    6.1508   -2.5734  -22.0815 H   0  0  0  0  0  0  0  0  0  0  0  0
    6.4387   -3.4708  -19.9216 H   0  0  0  0  0  0  0  0  0  0  0  0
    6.5574    1.5876  -23.1353 H   0  0  0  0  0  0  0  0  0  0  0  0
    3.5919    3.5478  -22.9121 H   0  0  0  0  0  0  0  0  0  0  0  0
    4.1055    5.1734  -24.7066 H   0  0  0  0  0  0  0  0  0  0  0  0
    4.3731    0.4561  -19.5965 H   0  0  0  0  0  0  0  0  0  0  0  0
    7.6225    3.8813  -21.4503 H   0  0  0  0  0  0  0  0  0  0  0  0
    3.3490   -4.6679  -17.1731 H   0  0  0  0  0  0  0  0  0  0  0  0
    2.8367   -1.1549  -19.4152 H   0  0  0  0  0  0  0  0  0  0  0  0
    4.4611    3.8726  -16.7475 H   0  0  0  0  0  0  0  0  0  0  0  0
    6.0060    2.9570  -16.7837 H   0  0  0  0  0  0  0  0  0  0  0  0
    5.9486    4.6464  -17.3915 H   0  0  0  0  0  0  0  0  0  0  0  0
    5.7969    7.7661  -26.5150 H   0  0  0  0  0  0  0  0  0  0  0  0
    4.7373    6.3453  -26.2237 H   0  0  0  0  0  0  0  0  0  0  0  0
    4.8153    7.6707  -25.0138 H   0  0  0  0  0  0  0  0  0  0  0  0
    3.0294    2.6716  -21.0358 H   0  0  0  0  0  0  0  0  0  0  0  0
    1.7661    3.7030  -19.0763 H   0  0  0  0  0  0  0  0  0  0  0  0
    2.6839    4.0371  -17.6459 H   0  0  0  0  0  0  0  0  0  0  0  0
  1  3  2  0
  1  5  1  0
  2  4  2  0
  2 10  1  0
  3 12  1  0
  4 13  1  0
  5 14  2  0
  6  7  2  0
  6 15  1  0
  7 17  1  0
  8 12  2  0
  8 14  1  0
  9 15  2  0
  9 16  1  0
 10 24  2  0
 11 13  2  0
 11 24  1  0
 12 13  1  0
 20 14  1  6
 15 20  1  0
 16 17  2  0
 16 23  1  0
 17 29  1  0
 18 20  1  0
 18 25  1  0
 18 28  2  0
 19 25  1  0
 19 26  2  0
 19 27  1  0
 20 26  1  0
 21 25  1  0
 22 29  1  0
 23 30  1  0
 23 31  1  0
 23 32  1  0
  1 33  1  0
  2 34  1  0
  3 35  1  0
  4 36  1  0
  5 37  1  0
  6 38  1  0
  7 39  1  0
  8 40  1  0
  9 41  1  0
 10 42  1  0
 11 43  1  0
 21 44  1  0
 21 45  1  0
 21 46  1  0
 22 47  1  0
 22 48  1  0
 22 49  1  0
 26 50  1  0
 27 51  1  0
 27 52  1  0
M  CHG  1  26   1
M  END
>  <OMEGA_C>  (46) 
44zNQCnpCL+W+bXBl6OfQDOWhsCF8ZPBMkC+QERCxL8QAq/BI1+vQDqZU8CqnJvBL6rFQEoxUz9h
xrPB0k+SQKDgf0AwtLfB362bQMVcnUBa3L/BW0meQNz9Oj5wwqPBBBHbQJxqhkAcCbHBcnduQO9B
fsDDRI/BTipcQJrbAMDlRpnBb0+mQK4hlr9W36XB3VeWQFTVC8CQTJ7BaMKtQOGWmD/7mKrBKaGx
QA8ZakDPBrDBtqvkQGXYpEAR/7jBtcrEQD9zsEDokMDBt3nAQKVHOUCM45zBZL9yQIwvUkDt15nB
2lSnQJFGKUDrLqfBGYKsQBTqbEC5eorBApKsQL7c4kBM+83BlB8JQYZ/tkArvLnBJ3E+QBR2OcBb
/JHB3SSiQIxDTUAFO5XBmUx1QA0dNkAEu6PBogApQAy+bUCEu5TB2IrmQCuRK0BWNZvB1WnPQPo/
zUDUn8jBCwcUQXGlsEDibbDBMwoJQRY84UAAurvBR5oTQc63oUBqtMHB+2XfQPkGUL8tCL3BXkqy
QDYwosCgpJHBJdPEQE6zJMD3prDBeQnOQAwhXsByX5/BetbRQG81yz8UFbnBheFlQOYPY0D2S7fB
RmCDQHOMpUAUp8XBL/CLQPCF6T62xZzBnevzQHFmeEA6mqvBWFVWQMVflcB4YonBzow1QCzUk79t
UpvBDMGOQA3Yd0D0+oXBQTHAQNg/PUD3RIbBTFu+QBevlEDRIYvBfYC5QC6E+EDHHtTBMJiXQMQM
y0AqytHBFReaQG529UBAHMjB0+FBQGH7KkBRSajBvw7iP4P+bEA7nJjB1cUrQIYvgUDZKo3BkmnN
QEQYH7/14LXBjhOfQNBWhsAEVJPB7py9QGGZzL+Qyq7BYceuQAxJVMC5IZvBOSnGQKqzPj8v2LPB
tzKTQDX6ekBQOrjBxbmbQPGEnEBaDsDByVeeQI/9Gz7ow6PBYDDcQL3Vg0DRo7HBe5BtQH3OfMD5
pI7BTWxbQAmnAMD/5pjBLtqlQDLXmr+jsqXBZdWVQI/ADMDt853BrkuuQGDSkT/du6rBmquyQOk9
ZUCflrDBiWLlQA56okBylbnB32/EQAOGsEBkj8DBeBnBQOLROECqW53Bazx0QAq7VEBMgprBCxyo
QOJVJkAvlafBjsSsQNg7bUDGAovBDLCtQM/B3UBUT8/BmBEJQTP7tUAJULrB6sQ9QGkdOMD8d5HB
YpWjQNf1WkA9TJbBneV2QMxkNECHMKTBPW4pQOFabEA7UpXB5XfmQN2fJkAwYpvBmHrNQMtl0kDO
bsfBfxEIQUvd30BHd7fBWX8QQaaZskCSf8TBBkkXQWEDokCJw7PBciXfQCXMa79/5bzBMqmxQH3a
ocBB7pDBOqrDQFZCKcAwT7DBrl/NQBCIX8Bl5Z7BW8jSQA4Avz+7ObnBw8toQNWoW0AjC7jBPSmD
QCM6pUD0usXBdgyMQIpa5T6405zBCj31QNPLckAsSqzB+WdVQCI7lMBDqojB6Pw0QE6dk78bCpvB
nw2QQJP6g0ClK4fBRQm2QOeyMUDw7IbBBRzHQAnejUDneYrB5lO5QLPf+EByG9TBo66nQOYzwkB8
k9TBs86PQMzY5kBFQMvB03dDQPcbJ0D5pqjBNerhP58VZUBV+ZjBgfUrQLlUgkBq7Y3BNE/JQIgj
B7/eZbbB9bhIQM85QsCIKJHBcvq6QAa9w79tWq/BtDRgQLlvA8DunZjBiobCQG5YVD+I97PB9O+R
QBe3gEBnkLfBwLybQIe1nUBMy7/B1jGeQCP+OT6fgaPBloDbQAhHhEBxVrHBdHp/QHVLhMCPbY/B
t5iwQCTZVcARLpzBE0KlQN50lr9g3aXBH/KWQMEhDcCXO57Bd7KsQIr6mD/kdqrBxGaxQP66aUBU
ArDBahvmQKOzoEC7rbnB+JnFQAzwrkDLysDB8QvAQM0kOkAlzZzB8k5yQELfVECYwpnBpLemQFa3
KUDJD6fBYI+sQBwFcEBDeIrBtHKtQAdr4kAXBc7BhcgJQU79skAFHbrBOfGkQNS6iMDy4ZTBGuGh
QAUCT0CdI5XBajd0QA3vNkAtkaPBA1QpQFJtc0DevJTBljnmQDx4LUBrKJvBFSXQQLE7zUCyhMjB
QAEYQVavmEBwJ7XBDdgJQdFm2UCvCrXBF74QQQQQuEBtVMTB4pPZQCpMTb/fsr3BdFkNQPm9PMC/
yYzB0ZjAQNdwJMCLNLHBzpE3QMtemb/DCJrBF/nNQIYZzD8gWrnBREFkQEvHZkAQArfBazKDQJH9
pkD4asXBVm6NQHY05z4ZRJzB5iP0QFkjdECs16vBGrJtQNxGnMAPnonBhSrOQMQDXsDGiKDBh/CO
QNN6e0Cz74XBLWPAQDrpQEBPNIbBKV6+QLQzlkBWRovBpY26QNhP+UCr2NPB9t2ZQN56ykD1ONLB
WH2ZQGiX80DuLcjB7IlAQMTNKkBGCajBNr/iP/SPc0D1npjBhKUsQCSqhEB2O43BUJW9QNZi9L6I
3LfBqCZ8QF/yjcDaTprBG1qxQMVgvr9NsLDBaMuHQJJOXcAv+6HBz2S7QDEGXz+HxLTBIDfVQDME
k0Cova7BiN/fQLTIrkBmJbfBDlafQLylUz4QYKPBkvGZQKmrbUAQU7nB6qSEQB3UhMBcYo/BHYid
QNCt/7+RZpPB3dGiQMSCk7/tUKbBrM+XQHSODcBAhZ7BJDGrQCDZnT+niarBSSayQA8fbUB3wK/B
hZilQABdkUCKAcLByFvIQMchrkCawsDBhl+/QEuHO0A4iJzB16twQM7BV0BvjJnBn3umQGjXLECh
5KbBXoerQDFCbUB59YnBIorEQEa/9EBxjsfB+euMQIInj0BkmczBUhSUQJgDPcDaG4zBJ+6hQENq
XEAHTZXBMLJzQJ5JPUDji6PB85AlQN0mbEBBJZTBTF3lQAOsLEBw45rBRLHTQE5pyUCg8MjBNH1c
QBmIYEC0dMzBKFuoQMQihkCnv9TBr+FyQDQ5tUBgjs7Bi7LIQFrPPL/vxb/BDWFjQES0rMCHvpzB
bAuzQMd6IcA5GbPBVBiDQPD2acC4ZKrBMR3GQGr40T9PNbrBPNXnQHNUk0BNdqfBokT6QDfMxEDH
PbbBL22TQNfV7T75h5vBvk98QFXvREDpALrBWWJ6QJP4nMBCfYnBHsGpQG7whb9ArZDBe+KOQFeK
g0DK/YXB/iG1QB5FMUBWB4bBE8DFQPv/jUBYYonBHN/OQIQxBEElY87B4mKhQE299EB3GsfBgtHR
QOENAUFhH8DBU35AQFlgNUA3PqjBw0PaP08TZ0B23ZfBewEoQO3jf0CoiozBife9QNVN977MprfB
wh+UQBonQcAo+IvBgfWxQJp8vr8/abDBsICeQLBF/r+2HpPBe6q7QOYvXj8yobTBYBPVQIcyk0CK
z67BtoXfQOXKrkCkRLfBduqfQGVRXD6dLaPB8NCZQLz3bEAfT7nBwEGEQN6Uh8BiA5DBOcuIQHgK
XcCtqKHBUpOjQLmtkr+mCqbBZsWYQIflDMBjMp7BW42rQPpMnj8CaKrByyCyQLkebUDNwK/BSUGl
QHfXkEBNCsLBfujHQAjKrUBw3cDBeK6/QGmfPEAngZzBdT1xQJ9lWEAifZnBPbKmQOQ1LUDL1abB
LvWrQBkcb0Cw9InBvcHDQHY39EAyxcfBenaMQP9DjkBanMzBILZ9QNv8jcBupZrBiUGiQOueXUDJ
RpXBMSN0QOV3PUDKd6PBLy4mQEu5bEBpEpTBrLjlQOElLkC64JrBkwnTQMnlyEDtGMnB/9FbQC6E
XkBJZczB09WnQMomhUBKxNTBdp1xQHM1tEDenM7BV/7IQEuyP78gj7/BiD6YQKtOOMBpdoPBB7az
QNmmIcBcxLLBNqyqQOaWhb9QNJDBDzvGQNQb0T/JHrrB/8PnQLfIk0Bsi6fBp9T5QJHxxEC5arbB
9gmUQE/v9D6rV5vBOzl8QN3zQ0DF77nBWm54QK71oMDxgIrBgmyEQHM+aMBHHarB206PQIhxhEB7
/IXBwry1QGxmM0CL/IXBMxbGQM8Mj0AScInB/e3NQJPbA0EmpM7BK5ygQDIa9ECOScfBQxfRQAvo
AEGNXsDBhdtAQBgjNUDRI6jBL1vbP5c6Z0APxJfBmLgoQIFqgEDSe4zB

>  <OMEGA_E>  (46) 
AFCWPYDOwT1A0I8+qDPsPoDS7T4=

>  <OMEGA_NBR>  (46) 
     14076

$$$$
50157435
     RDKit          3D

 51 54  0  0  1  0  0  0  0  0999 V2000
    4.8853    3.7160  -22.9407 C   0  0  0  0  0  0  0  0  0  0  0  0
    6.6603    0.8122  -22.1492 C   0  0  0  0  0  0  0  0  0  0  0  0
    5.1803    4.5242  -24.0527 C   0  0  0  0  0  0  0  0  0  0  0  0
    6.9311   -0.5449  -22.3992 C   0  0  0  0  0  0  0  0  0  0  0  0
    5.3017    0.1810  -20.2284 C   0  0  0  0  0  0  0  0  0  0  0  0
    7.0823    4.2055  -22.0047 C   0  0  0  0  0  0  0  0  0  0  0  0
    3.6579   -2.0671  -19.1394 C   0  0  0  0  0  0  0  0  0  0  0  0
    5.7907   -3.1996  -19.0006 C   0  0  0  0  0  0  0  0  0  0  0  0
    3.9464   -3.9306  -17.7642 C   0  0  0  0  0  0  0  0  0  0  0  0
    5.5776   -1.1740  -20.4660 C   0  0  0  0  0  0  0  0  0  0  0  0
    5.0032   -2.1695  -19.5483 C   0  0  0  0  0  0  0  0  0  0  0  0
    5.8219    1.1832  -21.0671 C   0  0  0  0  0  0  0  0  0  0  0  0
    5.8235    3.5781  -21.8888 C   0  0  0  0  0  0  0  0  0  0  0  0
    7.3934    4.9852  -23.1282 C   0  0  0  0  0  0  0  0  0  0  0  0
    6.4244    5.1797  -24.1418 C   0  0  0  0  0  0  0  0  0  0  0  0
    6.3947   -1.5412  -21.5618 C   0  0  0  0  0  0  0  0  0  0  0  0
    6.2643    3.0185  -19.4379 C   0  0  0  0  0  0  0  0  0  0  0  0
    4.0182    3.3447  -19.1487 C   0  0  0  0  0  0  0  0  0  0  0  0
    5.5296    2.6401  -20.7191 C   0  0  2  0  0  0  0  0  0  0  0  0
    8.7645    5.6238  -23.2072 C   0  0  0  0  0  0  0  0  0  0  0  0
    5.5274    3.8660  -17.1858 C   0  0  0  0  0  0  0  0  0  0  0  0
    6.5448    7.3787  -25.0153 C   0  0  0  0  0  0  0  0  0  0  0  0
    3.1486   -2.9517  -18.2585 N   0  0  0  0  0  0  0  0  0  0  0  0
    5.2505   -4.0633  -18.1154 N   0  0  0  0  0  0  0  0  0  0  0  0
    5.2936    3.5335  -18.5968 N   0  0  0  0  0  0  0  0  0  0  0  0
    4.1156    2.8005  -20.3385 N   0  0  0  0  0  0  0  0  0  0  0  0
    2.8163    3.6696  -18.5392 N   0  0  0  0  0  0  0  0  0  0  0  0
    7.4406    2.8110  -19.1569 O   0  0  0  0  0  0  0  0  0  0  0  0
    6.6954    5.9595  -25.2445 O   0  0  0  0  0  0  0  0  0  0  0  0
    6.6475   -2.8415  -21.8394 F   0  0  0  0  0  0  0  0  0  0  0  0
    3.9390    3.1981  -22.8885 H   0  0  0  0  0  0  0  0  0  0  0  0
    7.0916    1.5734  -22.7824 H   0  0  0  0  0  0  0  0  0  0  0  0
    4.4514    4.6428  -24.8408 H   0  0  0  0  0  0  0  0  0  0  0  0
    7.5531   -0.8239  -23.2369 H   0  0  0  0  0  0  0  0  0  0  0  0
    4.6808    0.4585  -19.3893 H   0  0  0  0  0  0  0  0  0  0  0  0
    7.8140    4.0840  -21.2197 H   0  0  0  0  0  0  0  0  0  0  0  0
    3.0337   -1.2783  -19.5326 H   0  0  0  0  0  0  0  0  0  0  0  0
    6.8268   -3.2988  -19.2886 H   0  0  0  0  0  0  0  0  0  0  0  0
    3.5260   -4.6345  -17.0613 H   0  0  0  0  0  0  0  0  0  0  0  0
    9.4587    4.9410  -23.7189 H   0  0  0  0  0  0  0  0  0  0  0  0
    8.6976    6.5672  -23.7689 H   0  0  0  0  0  0  0  0  0  0  0  0
    9.1330    5.8275  -22.1910 H   0  0  0  0  0  0  0  0  0  0  0  0
    4.5997    4.2564  -16.7419 H   0  0  0  0  0  0  0  0  0  0  0  0
    5.8412    2.9620  -16.6432 H   0  0  0  0  0  0  0  0  0  0  0  0
    6.3168    4.6288  -17.1149 H   0  0  0  0  0  0  0  0  0  0  0  0
    6.7784    7.9268  -25.9400 H   0  0  0  0  0  0  0  0  0  0  0  0
    5.5090    7.5934  -24.7137 H   0  0  0  0  0  0  0  0  0  0  0  0
    7.2324    7.6961  -24.2174 H   0  0  0  0  0  0  0  0  0  0  0  0
    3.3384    2.5321  -20.9076 H   0  0  0  0  0  0  0  0  0  0  0  0
    1.9524    3.4905  -19.0101 H   0  0  0  0  0  0  0  0  0  0  0  0
    2.8131    4.0832  -17.6287 H   0  0  0  0  0  0  0  0  0  0  0  0
  1  3  2  0
  1 13  1  0
  2  4  2  0
  2 12  1  0
  3 15  1  0
  4 16  1  0
  5 10  1  0
  5 12  2  0
  6 13  2  0
  6 14  1  0
  7 11  2  0
  7 23  1  0
  8 11  1  0
  8 24  2  0
  9 23  2  0
  9 24  1  0
 10 11  1  0
 10 16  2  0
 19 12  1  6
 13 19  1  0
 14 15  2  0
 14 20  1  0
 15 29  1  0
 16 30  1  0
 17 19  1  0
 17 25  1  0
 17 28  2  0
 18 25  1  0
 18 26  2  0
 18 27  1  0
 19 26  1  0
 21 25  1  0
 22 29  1  0
  1 31  1  0
  2 32  1  0
  3 33  1  0
  4 34  1  0
  5 35  1  0
  6 36  1  0
  7 37  1  0
  8 38  1  0
  9 39  1  0
 20 40  1  0
 20 41  1  0
 20 42  1  0
 21 43  1  0
 21 44  1  0
 21 45  1  0
 22 46  1  0
 22 47  1  0
 22 48  1  0
 26 49  1  0
 27 50  1  0
 27 51  1  0
M  CHG  1  26   1
M  END
>  <OMEGA_C>  (47) 
NVScQKLSbUCchrfBDiHVQHrrTz+MMbHBNcWlQOrFkED5a8DBn8vdQFp/C7+SMbPBMqepQPZbOT60
06HBB6LiQJuThkCkCbDBOhpqQAZMBMBlHZnBIU25QPTGTMAlAZjBOpF8QLGOe8AkHY7BnXuyQFJE
lr9cuqPBJRqgQBvZCsD/YpzBAU26QL1zlz9siajBNlq6QEz/ZEBMHK/B35bsQKWGn0CMBrnBvpTN
QHvApUBxIsHBO6HMQBJHxb+jfqzBGXXIQHkuQUDKgJvBQpWAQFUPVkB3MJnBWfKwQEP3KECtwKXB
NzsMQUL2s0BOqLnBSuCwQBptd0BufInBW2/RQB8e7EBXH8jB74JJQP7nPMBWEZLBEgSoQMoGgsBM
7JDBamWpQDEkYkA+xpTBKrODQP47M0A9taLBrj00QATbakBNUJTBGRnuQBPoM0BuQZnBFEHWQGe0
vkDN9MnBNrjUQITbNcABt67ByRh8QOqsTECUG7fBFe7iQHpkyT9pQrbBEHKOQOORlEDoucbBu7Lx
QO7nUr8z5bnBbsmVQCLD6j5eHZvB+Qv6QNGvgkDpwanB0ShCQDego7/QQpzBUHXaQM4fU8D7TprB
Y6lhQN9NlMB5fYjBo1YXQZocnkBMwL3BNikLQa4m0kCoJr7B8CASQYR6ukAeh7HBWDCTQB00iECD
74XB5eq6QCKSPUBWJYXBRiPKQPQelEA964jB0ejYQF2o/UAMhc/B5kmwQL388kCVtcXBcW/nQEpG
9kBRvcHBfahVQLMOIkDRQqfBHen5PwJkX0CWFJjBDwk0QC2pgkCiB43Bs7XkQH1RhUByDbDBlHHN
QIwxTT8XUbLB4NzuQB0ln0BI5rjB/rvUQKIJD7/of7TB7vKmQJYqPT5hGKLBPtWcQG+adUA4KLfB
MTpqQDe1A8BVJJjBePy4QKLjTcBawpjBrbqBQBlcfMCqlI3BCJmuQDhmlr+ZKqTB7aueQIHmCsD4
cJzBj3O2QDKhlz9pB6nBHyO7QK4vZ0AG/K7BzBunQL4AlEDbFcDBsA7QQFACp0C64MDBIs/FQM4+
xr+4a63BBPXGQPFoPUA+hJvBPxh+QLaWUkBLJpnB4KOvQOx6KUCD6aXB4JSFQPCwmkA4qcjBdOKv
QLd2ekDI0onBx4POQCRy60BJ/sjBO3FOQJ2yPMBV0ZDBySKqQAnCgsDxYZHB1lGnQOWVUkDVOpTB
61GCQPb/NUCD+aLBurcxQAu8akC5X5TBWyrtQEfONECIj5nBCSTbQIgav0ClrMnBxTzNQBpsNsAn
vK/Bt638QKPdfUBMCarB82HZQNU6xz/4ubfBwzMHQXABrUBslLnBSN/lQBRmWL/IpLvB3emUQE+x
7z4cFZvBCLZ6QDuCWUBfiLbBRLRAQOzhoL8iuJrBXhbZQP6+VMDM15vBcF9sQMzWlMDZuofB3NZk
QI0yt0CTvMbBGGOVQHQ8n0AEcdDBuiJhQD78fEBzCsnBB4SRQOhbgkD9j4XBiZ7EQORAUEBEDoXB
RvS/QCUqnEAiDIvBUoTYQONT/ECUTNDBnYirQC1/7UCHKMjBJ93dQIRQ+kAnAMLBvAtTQGNIKkCC
0KfBSM31P4bcZkB2eZjBknQxQJsCgEBV1IzBDdSbQMembkBxUbfBZknVQGGTUj9wGbHBMGilQObH
kECGSMDBNrzdQFdtCL9TNbPBOtqpQH2VNz5iw6HBhr3iQCbAhUC9EbDBnsG4QB7zTsATa5jBvphq
QCssA8A+7JjBppp8QDMwfMBdN47BqWOyQPdclr/cx6PBZ+yfQJU6C8C7fZzBqoG6QLf1lz8paqjB
pB26QCoiZUC0967Bed7sQAsfnkDzH7nBUZvNQGjvpEBBJMHBoV7MQDx5xL+0mazB6z3IQO1DQUBt
S5vBnziAQKYeU0Bj9pjBEOCwQGIPKUBimKXBRLQMQanxsECE77nBFHSwQID2e0AZhonBEB7UQO0f
60BwI8jBYZKnQMkug8CyV5HB6zRKQHjkO8A+4JHBS2eoQDSfVEBx/5PBOYKDQMYzMkBelKLBqB40
QOfbbUCJaJTBb5XuQLxqO0ARUpnBdFbWQNKGvUD0BcrB6xfUQFVSNcCO+K7BYoR6QCeuTkAMzLbB
1DfjQBI/yz9ZGrbBWeKNQELllEBsh8bBY6HxQMRtTr8E7bnBnDGWQA1S5z74/5rBY1n6QJmWgUCM
2KnBHpLZQD+OVsAN9ZrB2ilDQFfenr/O15vBcuphQE+blMC7kojBfk4XQZoumkClDb7Bsg8MQckM
z0Dte77BBOwSQeBIt0Bs27HB+u+RQIxUgkBJRoXB9YnFQHEqUkCuy4TBuO2/QANGnUDwporBDXjb
QNJV/EByl8/B/LezQE2q80DjcMXB7njrQH8R9EAa8sHB+YFVQJ+oIUBHNafB2tf6P+aUaEBXgpjB
dr8zQAY3g0CFBY3BXPzkQHMuhUBiJrDBc5/NQOVFTj97PrLBcQTvQL+8nkDXDrnBT33UQGoGDr+z
eLTBRlKnQDcwSD6B+aHBMQqdQCLGdEAhMbfBFda4QPibTcB5w5jBBgVqQOFFA8AnGZjBw36BQKSn
fMBYp43B5IyuQOY/lb+MGaTBKpGeQMZjCsCAZZzBTu+2QJasmD+46qjBbGu7QG0PZ0CiBq/B+R+n
QHhek0B2KcDBngrQQOh4pkC7AsHBmm/FQKd4xb+PZq3BukTHQOXwP0DvipvB5MF+QJ01VUCzOpnB
pwuwQLkmKkCd4aXB4B2FQKUlmkAHnsjBTMKvQJImeEBMm4nBVz7MQPe16kBwM8nBCPOpQC/HgsCn
bpHBwBNOQA66PMCn1pDBOzGoQHAxYUDC05TBYLqCQKO3NkAj9qLBHI4xQPS0ZkDKNZTBUw/tQKjq
M0BEXpnBztbaQJ/rvkD8xMnBOnjMQD4WNsD0w6/BowX9QGvufUCyI6rBZKnZQKKWxz8Mp7fBnkoH
QZZ8rEBrzrnBlmblQMvaV7/+pLvBx46VQOVq9j697JrBQUF7QHlyWEAih7bBI/DYQHliVMCJ2ZvB
1qJAQPlyn79Qn5rBqLtrQEEzlcCi3YfBgz9kQMGvtkDDnsbB4HuUQCeunkDvc9DB2Q1gQJj7e0AT
7cjBtgGSQGx+iEAOE4bBqy+6QJgcP0DlJ4XBT8XIQF/IlEB9LInBkiTWQJvr+0C1d9DBUSSpQJRB
60DPjsjBTFLaQKtQ+kA9JMLBGeRTQH68KUBewafBAs30P8QUXEBwC5jBaQsxQOLyfUCuwYzB

>  <OMEGA_E>  (47) 
EOrYPcAG2T0g09s9AC3hPQ==

>  <OMEGA_NBR>  (47) 
     30027

$$$$
50157441
     RDKit          3D

 52 55  0  0  1  0  0  0  0  0999 V2000
    6.4051   -0.5516  -22.7453 C   0  0  0  0  0  0  0  0  0  0  0  0
    4.9802   -4.2033  -18.4745 C   0  0  0  0  0  0  0  0  0  0  0  0
    5.9249   -1.5439  -21.8688 C   0  0  0  0  0  0  0  0  0  0  0  0
    5.4680   -3.3058  -19.4369 C   0  0  0  0  0  0  0  0  0  0  0  0
    6.1697    0.8103  -22.4733 C   0  0  0  0  0  0  0  0  0  0  0  0
    4.5827    3.9956  -22.9753 C   0  0  0  0  0  0  0  0  0  0  0  0
    4.8666    4.9241  -23.9908 C   0  0  0  0  0  0  0  0  0  0  0  0
    4.9416    0.1822  -20.4642 C   0  0  0  0  0  0  0  0  0  0  0  0
    6.8662    4.1945  -22.1543 C   0  0  0  0  0  0  0  0  0  0  0  0
    3.7171   -3.9724  -17.8905 C   0  0  0  0  0  0  0  0  0  0  0  0
    3.4262   -2.0155  -19.1458 C   0  0  0  0  0  0  0  0  0  0  0  0
    5.1829   -1.1763  -20.7252 C   0  0  0  0  0  0  0  0  0  0  0  0
    4.6841   -2.1860  -19.7745 C   0  0  0  0  0  0  0  0  0  0  0  0
    5.4309    1.1866  -21.3242 C   0  0  0  0  0  0  0  0  0  0  0  0
    5.5680    3.6510  -22.0204 C   0  0  0  0  0  0  0  0  0  0  0  0
    7.1540    5.1316  -23.1619 C   0  0  0  0  0  0  0  0  0  0  0  0
    6.1527    5.5171  -24.0826 C   0  0  0  0  0  0  0  0  0  0  0  0
    6.0243    2.9008  -19.6216 C   0  0  0  0  0  0  0  0  0  0  0  0
    3.7981    3.2724  -19.2380 C   0  0  0  0  0  0  0  0  0  0  0  0
    5.2404    2.6446  -20.9074 C   0  0  2  0  0  0  0  0  0  0  0  0
    8.5498    5.7219  -23.2502 C   0  0  0  0  0  0  0  0  0  0  0  0
    5.3913    3.6847  -17.3128 C   0  0  0  0  0  0  0  0  0  0  0  0
    5.3975    7.1075  -25.7425 C   0  0  0  0  0  0  0  0  0  0  0  0
    2.9637   -2.9002  -18.2328 N   0  0  0  0  0  0  0  0  0  0  0  0
    5.0735    3.2032  -18.6628 N   0  0  0  0  0  0  0  0  0  0  0  0
    3.8433    2.8510  -20.4794 N   0  0  0  0  0  0  0  0  0  0  0  0
    2.6397    3.6795  -18.5942 N   0  0  0  0  0  0  0  0  0  0  0  0
    7.2175    2.7045  -19.4150 O   0  0  0  0  0  0  0  0  0  0  0  0
    6.4874    6.4533  -25.0539 O   0  0  0  0  0  0  0  0  0  0  0  0
    6.9561   -0.8360  -23.6295 H   0  0  0  0  0  0  0  0  0  0  0  0
    5.5663   -5.0626  -18.1838 H   0  0  0  0  0  0  0  0  0  0  0  0
    6.1242   -2.5859  -22.0715 H   0  0  0  0  0  0  0  0  0  0  0  0
    6.4253   -3.4707  -19.9090 H   0  0  0  0  0  0  0  0  0  0  0  0
    6.5525    1.5681  -23.1409 H   0  0  0  0  0  0  0  0  0  0  0  0
    3.6044    3.5411  -22.9233 H   0  0  0  0  0  0  0  0  0  0  0  0
    4.1016    5.1882  -24.7059 H   0  0  0  0  0  0  0  0  0  0  0  0
    4.3718    0.4623  -19.5905 H   0  0  0  0  0  0  0  0  0  0  0  0
    7.6464    3.8860  -21.4742 H   0  0  0  0  0  0  0  0  0  0  0  0
    3.3420   -4.6668  -17.1532 H   0  0  0  0  0  0  0  0  0  0  0  0
    2.8215   -1.1580  -19.4016 H   0  0  0  0  0  0  0  0  0  0  0  0
    9.1729    5.0951  -23.9050 H   0  0  0  0  0  0  0  0  0  0  0  0
    8.4919    6.7396  -23.6638 H   0  0  0  0  0  0  0  0  0  0  0  0
    8.9962    5.7593  -22.2455 H   0  0  0  0  0  0  0  0  0  0  0  0
    4.4590    3.8487  -16.7525 H   0  0  0  0  0  0  0  0  0  0  0  0
    6.0052    2.9354  -16.7915 H   0  0  0  0  0  0  0  0  0  0  0  0
    5.9482    4.6307  -17.3827 H   0  0  0  0  0  0  0  0  0  0  0  0
    5.8019    7.8180  -26.4784 H   0  0  0  0  0  0  0  0  0  0  0  0
    4.7851    6.3536  -26.2589 H   0  0  0  0  0  0  0  0  0  0  0  0
    4.7757    7.6485  -25.0140 H   0  0  0  0  0  0  0  0  0  0  0  0
    3.0419    2.6916  -21.0559 H   0  0  0  0  0  0  0  0  0  0  0  0
    1.7656    3.6627  -19.0797 H   0  0  0  0  0  0  0  0  0  0  0  0
    2.6782    3.9898  -17.6443 H   0  0  0  0  0  0  0  0  0  0  0  0
  1  3  2  0
  1  5  1  0
  2  4  2  0
  2 10  1  0
  3 12  1  0
  4 13  1  0
  5 14  2  0
  6  7  2  0
  6 15  1  0
  7 17  1  0
  8 12  2  0
  8 14  1  0
  9 15  2  0
  9 16  1  0
 10 24  2  0
 11 13  2  0
 11 24  1  0
 12 13  1  0
 20 14  1  6
 15 20  1  0
 16 17  2  0
 16 21  1  0
 17 29  1  0
 18 20  1  0
 18 25  1  0
 18 28  2  0
 19 25  1  0
 19 26  2  0
 19 27  1  0
 20 26  1  0
 22 25  1  0
 23 29  1  0
  1 30  1  0
  2 31  1  0
  3 32  1  0
  4 33  1  0
  5 34  1  0
  6 35  1  0
  7 36  1  0
  8 37  1  0
  9 38  1  0
 10 39  1  0
 11 40  1  0
 21 41  1  0
 21 42  1  0
 21 43  1  0
 22 44  1  0
 22 45  1  0
 22 46  1  0
 23 47  1  0
 23 48  1  0
 23 49  1  0
 26 50  1  0
 27 51  1  0
 27 52  1  0
M  CHG  1  26   1
M  END
>  <OMEGA_C>  (48) 
sfbMQNE1Db9P9rXByV2fQJeBhsC/y5PB/Ji9QLifxb9l867BwvmuQJuRU8C+fpvBSG7FQKJyTz9Z
ybPB1aWSQGK3f0BuzbfBgLubQGOSnUA87b/BMCGeQJ2dOj69tqPByLfbQLU5hkAPPLHBv+RtQMA7
fsC7H4/BlUdbQBb+AMCEKpnBXtqlQOyRlr8kzaXBL+SVQCnnC8AcMp7BC8qtQCHjlz/6l6rBqiyy
QGeqaUCyKbDBOO3kQCE2pECCS7nBU+PEQMiLsEAnqcDB5sbAQM2mOUD3+JzBchRzQJBvUUBj55nB
/bCnQMZAKUBuQqfBD8wIQTYat0BgALrBOoWsQMjRa0CXgIrBSbisQGlw40Cf8M3BAq49QLKcOcDZ
3JHB11miQCUBTUB7TZXBuPh1QG52NkDT1aPBNvAoQFt8a0DkwJTBffXmQAIXLUD9UZvBt5jPQKKB
zkBSbsjBfZjeQPoDVr9GCb3BQB+yQNcAosBreJHBbPnDQO5+JcBkkrDBppvNQLcfXsCKRZ/BC67R
QPK2yD+eILnBMK5mQAWiYkD0YrfB7j+DQNwFpkCppcXBmuWLQLWv7D5ruZzBK6/0QK+0eEBCy6vB
ZONVQBRWlcDKOYnBkZM0QLg6lL9wNpvBCcQSQdQKo0CIPb/B3d4HQcmq10BdT73BjvAPQTBMuEDa
9rHByK+OQJlRdkAsBYbBSirAQCHeO0D2VIbBmFe+QKYulEC5D4vBEKm5QP8s+kDb09PB6B+ZQL5Q
y0BLEtLBwdKYQE7A9EClHMjBsq5CQHlDLECJcqjBiP7hP+ppakAto5jBIWcrQNpYf0CaJ43B5oXG
QMMgDb8u47bBZEKfQEwQh8CZSpTBNdy3QMoPxr860K/BlrytQEaRVMCgHZzBbPzBQNHxTz/JQbTB
6ELdQCv8h0DxCrHBDufkQHB9pUAYWrnBNvSeQJDQNz6mlqPBIVCUQKGQfkAXWrfB9FxvQCMSf8A2
M4/B8jNaQOVGAcDvEZnBF5ujQLQWl7+cKKbBhHOUQMiBDMDOgZ7BoVauQAEcmD8nfarBNTS0QEbc
akAQza/BtnubQH5hnECqtb/Bm0nEQIbZsECMqcDBKF3BQAgkOkDujpzBjjxzQPdnT0Bv2ZnBxHqp
QCeVKUAH+6bBgH9tQFWjokAWgsfB+N2qQOm0a0BjOIrBxoKwQNjv6kA918zBBqk+QOwTOsD2p5HB
8fmhQJhJS0CmAZXBqLZ4QOPlNUBvzKPBLXQnQFqGaECj/5TB1N3nQOJ6M0DX3prBdCnQQG9MzUAb
vcjBJlDVQFJgVb/dXL7BkDuyQP+yosCHMJLBwRy8QDrOJcCFxrHBoavLQANZX8DoN6DBDX7NQGEb
yT+qsLnB+8L2QFYBf0A+nKvBux8CQYews0DYJrrBB1iPQA5q6j5qNZzBIthqQJQEYEBisrbBFRJZ
QKHJlcCNNInBEjkzQDYjlL/f4ZrBtbFEQM0dvUARwMTB6piDQDg6qkBves/BrWJHQD8YhUCY8sfB
7JeMQJvZc0Dm2IXBplW/QDrZPUBP7oXBg1q7QI/elEDqyorBOQO/QO7o/kBlHdPBzXaVQJXq2EB5
ONDB7AKlQOl8/0DcTMbBUoRGQM0NLEA/m6jB2XbhP3THZ0BuJZnBv4knQGVhe0CKWo3BobLIQGwk
Cb9Qa7bBqvNGQLKOQcBkMJHBuYi6QJh6xL/2Uq/BS8heQOVPA8DHs5jBSRzCQEL1Uj+t/7PB2KCR
QHM1gUBJbrfB0xubQGOFnkC6n7/BYUieQDslOj4QdaPB4FbbQAk9hUBWNbHB+SZ+QBebg8CEPY/B
InKwQAHnVMDM5pvB/hKlQKOVlr/0z6XBEJqWQKbdDMBAKJ7BErOsQDK8mD9Fc6rBHFqxQLpMakBy
8K/BVAHlQNChokCAXrnBqdvEQNEAsED5lcDBtQPAQM9eOkAKzpzBjjFyQNmMVUAO1JnBsMamQHOq
KUAeDqfBCA8JQS5UtEAaPbrB+F+sQD1scUDLh4rBTrytQOGS4kAzFM7B9aKkQDL7h8DLi5TBw82h
QAIdUEAYMJXBrDx0QM6FNkCek6PB8wgpQGlwdEAf4ZTBUTfmQITxLUBiK5vBViHQQLxmzUAEcsjB
hq/YQF8hUL81wL3Btf0KQNYyPMCK8YzBPhbAQGTdJMCAKLHBqNc1QCslmr8BSJrBO2TNQCQbyz9K
bbnBh7xjQEyQZ0B12bbBs3mCQPvMp0DuOMXBn8iNQCXn6D7HL5zB4k/0QLKadUDx1avBnCRsQPNa
m8CTYYnBvkjOQHwBXcBCJKDBL54SQSyxn0Azh7/BVXkIQTbl1EDLkL3B2G0QQY07tUArQLLBUrOO
QP6RfUAbDIbBl+m/QNAvQkAvNIbBYHK+QBW9lkBBWovBLy67QGPJ+EBHBdTBKt6ZQCmKykBWKdLB
m/eZQLeB9EB1V8jBmqBAQEBzKUA0BKjBg0jiP4vwc0CfxpjBlSksQNGbhUDXaY3B/sbCQEwZCr8I
FLfBJFNKQDn1Q8Ax1pDB3Va1QNLoxL/q5q/BYFhfQDi4BMDCXJjB7My+QLwCUj92VbTBPFbdQKpE
hkDAMbHBM2HlQBxpo0BTj7nB4oueQGGNOD5IUqPBBK+TQEYbgEC6JLfBIDaBQNjLhMAeTI/B4S6w
QLCiVcByaJzBaPmiQAv8lr+h/6XBXdmVQKuSDcDSQ57BzNqsQFmnmD/9WarBl7azQCmVakCouK/B
cCWbQGEAnUBrh7/BGZ7EQDz7r0AztcDB4tPAQN2dOkADfZzBBMxyQHX7UkDftZnBwoyoQHD5KUCo
2KbBZGJrQEHkpEDKBMfBn1erQIyab0CJO4rB5eSxQNjP6UBpIs3BXtWlQFa8iMAdBJXBS9KhQKbf
TUD665TBFCR3QIZKN0DLlKPBRAMoQB3zbkCk2pTBr1rnQLCFM0CV3prBJgnRQBQxzEBbzMjBRjPQ
QKcYUb99ub7BQ9EPQNtaP8C+RYzB7hS5QIUjJcBf+bHBzNg1QPaxnL9jm5nBrXPJQLWDyj9e2bnB
LPX2QBe2eUAP5avBy5UCQXllsEA0iLrB6ASQQPhZ6D4ky5vBrs5oQKB8Y0DZXbbBeKFyQBLhnMBg
bInBvTvNQGEeXcBr/qDBSmtFQLMSwEDiD8TBa8uBQJUurEAnFM/BTuRCQEkgiECfV8fBJUqNQO5g
eUAW0YXBApa/QGO8QUAA4YXB4028QJh/lkAX/IrB4gPBQEp3/UBGYdPByAqXQMHK10A0nNDBlvWl
QNes/kCStMbB7HJEQKSXLEAvR6jBePDhP8S4bkCI75jBPCcpQPyqgUCpRY3B

>  <OMEGA_E>  (48) 
ACMsPADXaj2QxGc+fM6GPg==

>  <OMEGA_NBR>  (48) 
      3790

$$$$
50157458
     RDKit          3D

 51 54  0  0  1  0  0  0  0  0999 V2000
    6.3350   -0.5724  -22.7554 C   0  0  0  0  0  0  0  0  0  0  0  0
    5.8535   -1.5617  -21.8767 C   0  0  0  0  0  0  0  0  0  0  0  0
    6.1205    0.7915  -22.4766 C   0  0  0  0  0  0  0  0  0  0  0  0
    4.5820    4.0250  -22.9624 C   0  0  0  0  0  0  0  0  0  0  0  0
    4.8754    4.9606  -23.9701 C   0  0  0  0  0  0  0  0  0  0  0  0
    4.8964    0.1718  -20.4608 C   0  0  0  0  0  0  0  0  0  0  0  0
    6.8764    4.1684  -22.1623 C   0  0  0  0  0  0  0  0  0  0  0  0
    3.4140   -2.0560  -19.1051 C   0  0  0  0  0  0  0  0  0  0  0  0
    5.4412   -3.3299  -19.4459 C   0  0  0  0  0  0  0  0  0  0  0  0
    3.8107   -4.0326  -17.9252 C   0  0  0  0  0  0  0  0  0  0  0  0
    5.1280   -1.1908  -20.7238 C   0  0  0  0  0  0  0  0  0  0  0  0
    4.6527   -2.2058  -19.7637 C   0  0  0  0  0  0  0  0  0  0  0  0
    5.3962    1.1752  -21.3211 C   0  0  0  0  0  0  0  0  0  0  0  0
    5.5683    3.6481  -22.0203 C   0  0  0  0  0  0  0  0  0  0  0  0
    7.1759    5.1054  -23.1675 C   0  0  0  0  0  0  0  0  0  0  0  0
    6.1734    5.5264  -24.0700 C   0  0  0  0  0  0  0  0  0  0  0  0
    6.0140    2.8973  -19.6224 C   0  0  0  0  0  0  0  0  0  0  0  0
    3.7958    3.3078  -19.2458 C   0  0  0  0  0  0  0  0  0  0  0  0
    5.2275    2.6404  -20.9070 C   0  0  2  0  0  0  0  0  0  0  0  0
    8.5796    5.6772  -23.2591 C   0  0  0  0  0  0  0  0  0  0  0  0
    5.3950    3.7218  -17.3266 C   0  0  0  0  0  0  0  0  0  0  0  0
    5.4454    7.1275  -25.7356 C   0  0  0  0  0  0  0  0  0  0  0  0
    3.0092   -2.9744  -18.2029 N   0  0  0  0  0  0  0  0  0  0  0  0
    5.0121   -4.2211  -18.5266 N   0  0  0  0  0  0  0  0  0  0  0  0
    5.0672    3.2152  -18.6651 N   0  0  0  0  0  0  0  0  0  0  0  0
    3.8332    2.8602  -20.4782 N   0  0  0  0  0  0  0  0  0  0  0  0
    2.6474    3.7640  -18.6171 N   0  0  0  0  0  0  0  0  0  0  0  0
    7.2107    2.7200  -19.4201 O   0  0  0  0  0  0  0  0  0  0  0  0
    6.5222    6.4678  -25.0326 O   0  0  0  0  0  0  0  0  0  0  0  0
    6.8713   -0.8607  -23.6474 H   0  0  0  0  0  0  0  0  0  0  0  0
    6.0395   -2.6050  -22.0848 H   0  0  0  0  0  0  0  0  0  0  0  0
    6.5088    1.5460  -23.1448 H   0  0  0  0  0  0  0  0  0  0  0  0
    3.5950    3.5901  -22.9069 H   0  0  0  0  0  0  0  0  0  0  0  0
    4.1083    5.2506  -24.6728 H   0  0  0  0  0  0  0  0  0  0  0  0
    4.3277    0.4553  -19.5875 H   0  0  0  0  0  0  0  0  0  0  0  0
    7.6555    3.8417  -21.4895 H   0  0  0  0  0  0  0  0  0  0  0  0
    2.7878   -1.2037  -19.3237 H   0  0  0  0  0  0  0  0  0  0  0  0
    6.3906   -3.4788  -19.9386 H   0  0  0  0  0  0  0  0  0  0  0  0
    3.4786   -4.7556  -17.1948 H   0  0  0  0  0  0  0  0  0  0  0  0
    9.1890    5.0494  -23.9258 H   0  0  0  0  0  0  0  0  0  0  0  0
    8.5332    6.7004  -23.6603 H   0  0  0  0  0  0  0  0  0  0  0  0
    9.0337    5.6964  -22.2574 H   0  0  0  0  0  0  0  0  0  0  0  0
    4.4668    3.8953  -16.7622 H   0  0  0  0  0  0  0  0  0  0  0  0
    6.0137    2.9829  -16.7963 H   0  0  0  0  0  0  0  0  0  0  0  0
    5.9503    4.6669  -17.4182 H   0  0  0  0  0  0  0  0  0  0  0  0
    5.8633    7.8406  -26.4614 H   0  0  0  0  0  0  0  0  0  0  0  0
    4.8399    6.3775  -26.2656 H   0  0  0  0  0  0  0  0  0  0  0  0
    4.8130    7.6665  -25.0147 H   0  0  0  0  0  0  0  0  0  0  0  0
    3.0286    2.6914  -21.0476 H   0  0  0  0  0  0  0  0  0  0  0  0
    1.7758    3.7647  -19.1073 H   0  0  0  0  0  0  0  0  0  0  0  0
    2.6906    4.0922  -17.6736 H   0  0  0  0  0  0  0  0  0  0  0  0
  1  2  2  0
  1  3  1  0
  2 11  1  0
  3 13  2  0
  4  5  2  0
  4 14  1  0
  5 16  1  0
  6 11  2  0
  6 13  1  0
  7 14  2  0
  7 15  1  0
  8 12  2  0
  8 23  1  0
  9 12  1  0
  9 24  2  0
 10 23  2  0
 10 24  1  0
 11 12  1  0
 19 13  1  6
 14 19  1  0
 15 16  2  0
 15 20  1  0
 16 29  1  0
 17 19  1  0
 17 25  1  0
 17 28  2  0
 18 25  1  0
 18 26  2  0
 18 27  1  0
 19 26  1  0
 21 25  1  0
 22 29  1  0
  1 30  1  0
  2 31  1  0
  3 32  1  0
  4 33  1  0
  5 34  1  0
  6 35  1  0
  7 36  1  0
  8 37  1  0
  9 38  1  0
 10 39  1  0
 20 40  1  0
 20 41  1  0
 20 42  1  0
 21 43  1  0
 21 44  1  0
 21 45  1  0
 22 46  1  0
 22 47  1  0
 22 48  1  0
 26 49  1  0
 27 50  1  0
 27 51  1  0
M  CHG  1  26   1
M  END
>  <OMEGA_C>  (49) 
PLjKQDiIEr8eC7bBOlC7QDXlx794A6/BINvDQLWgSj8g0LPBJaCSQBHNgED9srfBmAOcQD29nkDe
wr/BVq+cQG3mLz6ur6PBlwvcQOxjhUBOTLHBV39aQNaVA8BN15jBSx6uQLkcVcAkkZvB0+FzQHgL
gcDNZo/BihikQGNsmL9myqXBwuKUQGgrDcD8G57Bw62sQIFtlj+dkarBLC+yQPp6aUCMKbDB0aDl
QEJfo0AGV7nBlIzFQEjYsEBhj8DBdnLAQOBsOUCt+pzBEu9yQEqzU0BU95nBhUenQBH8KECLQafB
JUYJQXertUChErrBdKOsQH0ybkDXnIrBm0CuQMYU5EBy4s3B1ZZAQO9bPsB+n5HBLGOgQFETh8Bz
NpTBnyaiQHHFTUAgUpXBZlJ1QNwMN0BI06PBkm4pQLbkcEDq75TBKr7mQNsULkBlXJvBq7XQQC74
zkC2QsjBaeHbQKhZXL/uLb3BQ0PBQGy4JsCurbDBA0jQQBXixT+FKLnBHxVmQOLEZUBNQbfBynaD
QAMFqEDkYcXBJHyKQJgd6T5Ms5zBL/r0QLDddUCL6qvBoGoyQNMTmr8Il5rBCoDMQJqkXsBLgp/B
/qBeQMwtmMDzjonBUAYTQbuUoUAQaL/B1IcIQWxp1kAzSL3B/IkQQYFItkAXD7LBT/COQPdMeUAK
GYbBDXDAQAXoPkDeXobB4Gi+QGNXlUCLWIvBOaC7QH3m+kDysNPBbuCaQMwUzEDcH9LBBwSaQL5T
9UAlHsjBH9VBQME/LEB/YajBAUzjP8rwcEDR25jBTDMsQILzgkBvY43BBX7LQGoyEL8OB7bB3UO8
QBktx785AK/B8i3EQBaUTD+Q0bPBwr6SQLRDgEDVxbfBB0GcQEYdnkDT17/BTyudQJR7Lz64saPB
kb/bQDvXhUAsH7HBS1KuQBowVcDekZvBYSlbQO0EA8Dz8pjB4gx0QBhngMBeWo/BkdGkQCc+mL9e
zaXBlU2VQEoWDcBlKp7BC9msQH+ylj/klKrBfAayQA+DaUDUHbDBx3blQPm+o0ALKrnB36TFQKKm
sEAuh8DBeTrAQCw/OUD295zBHoByQPA8VEDj/JnBPxinQEzuKECMPqfBGDkJQdTxtUCe2bnB7XWs
QJI8b0A1pIrB3YeuQIe04kAtJs7BP2mgQGTThsBYKpTBY/RAQLUmPcAnrJHBmv+hQIEwT0BBXpXB
Zd10QB3fNkCO0aPBqv4oQJ4BcUBy65TBV1DmQILQK0C7SZvBZOXQQIqWzkCVQ8jBS9vcQFcGWb+H
JL3BQ4bCQA5GJsAzprDBUV/QQMg1xz8oLLnBrphmQKUAZEBVarfBOeqDQJEBp0Bej8XBlwGLQJsM
5z5nsZzBHnr0QMmLd0DHoqvBMarMQDpPX8DegZ/BjjAzQPMpmb+uyZrBvr5eQHAvl8BTbYnB1goT
QbqeoUCDGL/BQI8IQXaQ1kD7I73B2VsQQY7XtkAWz7HBI7uOQInQe0AsM4bBZ4a/QKgQP0AaWIbB
W/q+QC1slUCUV4vBgPa7QL98+UDX9NPBSAacQDIZykAQatLByHCZQNHV80DwjcjByV9BQDWHK0Bt
WqjBLvThP5UwcECNyZjBx/8rQBdJg0CbZY3BDALEQOzeEL8E77bBNby1QOFAx78GxK/BS/W/QLSI
TD8kULTBpIfdQFDvhkDUKrHBZ4XlQF2apEBAbLnBLf6dQAULNz6kdqPBlTiUQF8MgEDiU7fBcySt
QEAUVcB0/ZvBIH5ZQL8lA8DmxZjBzLN0QELwgMDAc4/B71aiQNuSl7+ABKbBncWTQPXmDMBWTp7B
HyatQMtslz/WdqrB9Rm0QHmCakBq3K/BW6ObQD1/nUBmmb/BMOPEQDcSsUAQnsDBfOXAQDghOkDg
oJzBlLtyQLzSUUBO7JnBP9qoQCeNKUAqBafBf9hsQAlbpUCAKcfBswKrQI7rbkDmZorB4u6xQA2g
60DMyszBbzWgQB4Nh8BUi5TBm/xAQCUTPsCAfpHBErmhQG0ATUDOF5XB/Jp3QPHXNkC+0aPBO5Qn
QB/vbEB4FZXBAWXnQG8WM0DE9ZrBqzDRQJS9zUAOnsjBsSDSQAp+Wr8Der7BbaK5QOV7JsDOurHB
sjTLQNrWxj+X0bnB1Qz3QFVOe0C70qvBY5UCQXQSskBeRbrB8taOQIXd7D6qCZzBfDVqQAV5YkB+
rbbBNfvKQC/TXsDuLKDBqT0xQJfUmL/gXJrBesZgQDIHmMCLhonBvvlFQHgkwEAUKsTBrMiCQJI8
rUCjKc/BQBRFQEZfiEDco8fBauCMQNFTeEAiAobB/1q/QP9YQUCEB4bBUse7QOVDlkD/JYvB9eXA
QJep/0Ah/NLBKf+WQAzR2UCJS9DBCSimQH0LAEH7Q8bBxylFQJ2aLEDlkqjB9mThP1CZbED7MpnB
m0goQBRogEDmeo3BZTbCQAyDEL+oD7fBprW0QLjPxr/jya/Btoi+QF/xTD9NbLTBO8LdQG5Uh0Aa
HrHB38vlQJHxpEAAZLnBfiaeQBTtPT4VXqPBctiUQPfIfkA6gLfB4q5ZQLBVA8BStpjBG42tQCVm
VMAr4pvBOC51QIQjgcAjc4/BVj2iQKzOlr8/8KXBFvqTQEeEDMDZM57BsdOsQJQOmD/hc6rBa260
QLCUakCh5K/B2HecQBZ0nEBw17/BOVTFQDjUsEDVscDB9vfAQE1QOkBLm5zBmsZyQIymUUDh5pnB
P/eoQJQIKkAxBafBZu1vQHMto0CBrMfBg9WqQM6qbEAqRorB05axQHUz7EAYe8zB1DJBQG6oPsDf
e5HBDqKgQNHnhsBTe5TB5bahQLV8TEBnD5XBKvB3QC1IOECt3KPB4lcnQN6Ia0DQBpXByG/nQKrp
MkB165rByizRQMbdzUBJpcjBS3TPQGqNWr/zsr7BjX24QGZLJsASwLHB6TrJQAnZxj+dArrBeCf3
QNq/fECxs6vBU6cCQfDLskDVKbrBYZaPQHIb8T5G35vBwKZrQLWvYECo57bBnzsxQHN2mb/fSprB
d4XLQEqbXcB3B6DB0yphQI9wmMBllInBzHNHQBDEvUAH6MTBNAmFQBfUqkASns/BQFhJQKvNhUA6
LcjBIJ6MQFnJdUAM6IXB0Oy+QDYvPkCA+oXBos+7QF4VlUAI2YrBp/m/QHVNAEE3r9LBdzOWQD/B
2kCP4M/BBp6mQKogAEH9ycXBJqVFQDawL0AJsajBvSDhP0aDa0DTKZnBBr4nQHg3fkANYI3ByWKQ
QHm6Vb+tsbLBTuC3QJluvr9mTbHBA26LQBpIAT8Xeq/BIu7dQE+ngkAcuLHBxFLnQLTjn0Ar8LnB
DCHWQHm2Dz8v86nBIUeTQAsrgUCaZbfBJsYDQcVuNsBXianB1+UVQQMxO79bmqvBR/8oQcJrLMDV
Q6jBly3bQHz+Sb/Y9azB9ocCQRIHu79RaqvBj/+tQOxfmj8ouqrB8HGzQANEaEBvGLDBrb+cQKra
nUCDx7/BYsfGQPkgrkAR4MDBJ0HBQBR1PkA2j5zB5z1zQMLIUEBRZZnBzWWoQOBEKkAe7qbBvXVy
QPJxrECwPMfBCnisQIfYa0BO6InB2AfOQAUZ90C6n8XBru0WQb5sXMD++6fBg8UoQd6vrb9eCqrB
RvyiQM4CWkDmO5XB/iZ3QL0AOEC0bKPB4l4nQBGwYEDB8ZPBG9fnQIT/OkBjy5rBWI/QQO3SykBd
4cjBvJdrQAyErr/PPbbB4Ty7QMKaIcA7jrPBXjVaQJ1PgD8VorDBzkn3QJhSbkCcmazBKNEDQbp7
q0Ae8LrB32jxQJxhjj/P/6bBMj9mQIb3aUC3h7bBBabqQDVOXMDIVqnBLpYVQVklqz6OAa3BtDQ4
QaGwS8CDBafBII5TQI8lyUB46sPBiM2GQDP9s0BtIs/BX8lCQHHBkkAKEMjBSRSPQKxagECQ04XB
qLO4QP9yMUBWD4bBXrjEQPJYj0BrYInBckDWQOTrBUEAbszBv02tQJRN/kA37sLBSpvkQMLe/EA8
B7/BXAVEQBx0L0CpHajBuWbeP/ZiWUAhq5fBvPIoQKZuc0A2TIzB

>  <OMEGA_E>  (49) 
QGP7PaAw/T1goCI+4PImPvIxXT8=

>  <OMEGA_NBR>  (49) 
     27660

$$$$
50093273
     RDKit          3D

 55 59  0  0  1  0  0  0  0  0999 V2000
    6.2850   -1.3783  -21.7321 C   0  0  0  0  0  0  0  0  0  0  0  0
    6.7049   -0.3717  -22.6035 C   0  0  0  0  0  0  0  0  0  0  0  0
    7.4836    4.8414  -20.4062 C   0  0  0  0  0  0  0  0  0  0  0  0
    8.2208    5.8291  -21.0631 C   0  0  0  0  0  0  0  0  0  0  0  0
    5.5303    0.3149  -20.1638 C   0  0  0  0  0  0  0  0  0  0  0  0
    5.6627   -3.3545  -19.5923 C   0  0  0  0  0  0  0  0  0  0  0  0
    3.9556   -1.8105  -18.8491 C   0  0  0  0  0  0  0  0  0  0  0  0
    4.0461   -3.9934  -18.0335 C   0  0  0  0  0  0  0  0  0  0  0  0
    5.6414   -1.0343  -20.5309 C   0  0  0  0  0  0  0  0  0  0  0  0
    5.0862   -2.0716  -19.6521 C   0  0  0  0  0  0  0  0  0  0  0  0
    6.5067    0.9856  -22.2850 C   0  0  0  0  0  0  0  0  0  0  0  0
    6.6702    3.9288  -21.1277 C   0  0  0  0  0  0  0  0  0  0  0  0
    6.0266    1.3519  -20.9837 C   0  0  0  0  0  0  0  0  0  0  0  0
    6.5202    4.1285  -22.5206 C   0  0  0  0  0  0  0  0  0  0  0  0
    7.3498    5.0594  -23.2020 C   0  0  0  0  0  0  0  0  0  0  0  0
    8.1794    5.9382  -22.4699 C   0  0  0  0  0  0  0  0  0  0  0  0
    6.4004    2.7263  -18.9389 C   0  0  0  0  0  0  0  0  0  0  0  0
    4.2337    3.4133  -18.9758 C   0  0  0  0  0  0  0  0  0  0  0  0
    6.7079    1.9423  -23.4278 C   0  0  0  0  0  0  0  0  0  0  0  0
    5.7505    3.1219  -23.3204 C   0  0  0  0  0  0  0  0  0  0  0  0
    5.9256    2.7874  -20.3883 C   0  0  1  0  0  0  0  0  0  0  0  0
    7.3948    5.0692  -24.7330 C   0  0  0  0  0  0  0  0  0  0  0  0
    5.4314    3.4612  -16.7441 C   0  0  0  0  0  0  0  0  0  0  0  0
    9.5403    7.9447  -22.4147 C   0  0  0  0  0  0  0  0  0  0  0  0
    5.1357   -4.2940  -18.7827 N   0  0  0  0  0  0  0  0  0  0  0  0
    3.4540   -2.7745  -18.0536 N   0  0  0  0  0  0  0  0  0  0  0  0
    5.3986    3.3239  -18.2027 N   0  0  0  0  0  0  0  0  0  0  0  0
    4.5099    3.1551  -20.2334 N   0  0  0  0  0  0  0  0  0  0  0  0
    2.9720    3.7356  -18.5040 N   0  0  0  0  0  0  0  0  0  0  0  0
    7.4779    2.3019  -18.5324 O   0  0  0  0  0  0  0  0  0  0  0  0
    8.9395    6.8684  -23.1694 O   0  0  0  0  0  0  0  0  0  0  0  0
    6.4539   -2.4159  -21.9797 H   0  0  0  0  0  0  0  0  0  0  0  0
    7.1873   -0.6370  -23.5326 H   0  0  0  0  0  0  0  0  0  0  0  0
    7.5333    4.7707  -19.3296 H   0  0  0  0  0  0  0  0  0  0  0  0
    8.8274    6.5149  -20.4902 H   0  0  0  0  0  0  0  0  0  0  0  0
    5.0522    0.5674  -19.2289 H   0  0  0  0  0  0  0  0  0  0  0  0
    6.5280   -3.5860  -20.1957 H   0  0  0  0  0  0  0  0  0  0  0  0
    3.4915   -0.8356  -18.8725 H   0  0  0  0  0  0  0  0  0  0  0  0
    3.6323   -4.7583  -17.3932 H   0  0  0  0  0  0  0  0  0  0  0  0
    7.7427    2.3148  -23.4083 H   0  0  0  0  0  0  0  0  0  0  0  0
    6.5257    1.4151  -24.3759 H   0  0  0  0  0  0  0  0  0  0  0  0
    4.8258    2.8311  -22.8005 H   0  0  0  0  0  0  0  0  0  0  0  0
    5.5022    3.5181  -24.3161 H   0  0  0  0  0  0  0  0  0  0  0  0
    6.6418    5.7725  -25.1180 H   0  0  0  0  0  0  0  0  0  0  0  0
    8.3945    5.3827  -25.0683 H   0  0  0  0  0  0  0  0  0  0  0  0
    7.1808    4.0591  -25.1125 H   0  0  0  0  0  0  0  0  0  0  0  0
    4.5184    3.9710  -16.4026 H   0  0  0  0  0  0  0  0  0  0  0  0
    5.4887    2.4641  -16.2832 H   0  0  0  0  0  0  0  0  0  0  0  0
    6.3122    4.0516  -16.4512 H   0  0  0  0  0  0  0  0  0  0  0  0
   10.1076    8.5977  -23.0943 H   0  0  0  0  0  0  0  0  0  0  0  0
    8.7516    8.5291  -21.9182 H   0  0  0  0  0  0  0  0  0  0  0  0
   10.2190    7.5266  -21.6567 H   0  0  0  0  0  0  0  0  0  0  0  0
    3.8489    3.2019  -20.9824 H   0  0  0  0  0  0  0  0  0  0  0  0
    2.1988    3.7834  -19.1364 H   0  0  0  0  0  0  0  0  0  0  0  0
    2.8342    3.9206  -17.5309 H   0  0  0  0  0  0  0  0  0  0  0  0
  1  2  2  0
  1  9  1  0
  2 11  1  0
  3  4  1  0
  3 12  2  0
  4 16  2  0
  5  9  2  0
  5 13  1  0
  6 10  2  0
  6 25  1  0
  7 10  1  0
  7 26  2  0
  8 25  2  0
  8 26  1  0
  9 10  1  0
 11 13  2  0
 11 19  1  0
 12 14  1  0
 12 21  1  0
 13 21  1  0
 14 15  2  0
 14 20  1  0
 15 16  1  0
 15 22  1  0
 16 31  1  0
 21 17  1  1
 17 27  1  0
 17 30  2  0
 18 27  1  0
 18 28  2  0
 18 29  1  0
 19 20  1  0
 21 28  1  0
 23 27  1  0
 24 31  1  0
  1 32  1  0
  2 33  1  0
  3 34  1  0
  4 35  1  0
  5 36  1  0
  6 37  1  0
  7 38  1  0
  8 39  1  0
 19 40  1  0
 19 41  1  0
 20 42  1  0
 20 43  1  0
 22 44  1  0
 22 45  1  0
 22 46  1  0
 23 47  1  0
 23 48  1  0
 23 49  1  0
 24 50  1  0
 24 51  1  0
 24 52  1  0
 28 53  1  0
 29 54  1  0
 29 55  1  0
M  CHG  1  28   1
M  END
>  <OMEGA_C>  (50) 
DR/JQG5rsL9f263Bm47WQDpQvr7407TB2nnvQPXsmkDUP6PBcYgDQUuIukAsgajB/vewQH47oT6G
T6HBpzS1QO6wVsDuvJzBPih9QNa/57/oypbBd3mBQJKTf8CSRJDBHIa0QOpjhL9hP6TBhcKiQDuV
BMCPN53BADfQQFBOfD+6R7LBd3LVQN9we0CIBanBrdnAQEIMrT+Y3qfBfaXQQEcchEAvKrTBPjHr
QDjmoUDKnbnBsd4CQbAFvkBawrPBH9DMQD18LkDKgpfB33qHQPdyWkB0zpfBIKfWQEad+D8WbLvB
+wO4QJPMR0BBkLrBWJ69QPZjMkBOG6PBXKLsQJ42okBC3cXBas6tQPaEXUDi84XBKKUYQRU7/kA/
UbPBllekQCdoicDlQpbBxg1dQGWRMcC6bZDBcsGsQM66VEAmn5HB0lCQQGjsSUAT3qHBujQ+QMIU
b0AdCJTBEUvvQBpSE0BpQpTBPQgPQZTJ20AGW7nBkIbOQKSdGsBY1q/Bff7lQJkTI7/WQrzBwxDx
QHupmEAVo5rB9jwNQUR60ED266PB+quhQMVAET+91JnBAOXQQFSBZcC9kKHBY3VfQLHpVb/b+pbB
N3doQFJEmMAyJYvBYMT3QPQlFEBCRLvB6dLQQEshtT/BAcPBjmyaQP8wNUBtZ7bBXBKwQOcoYUBh
h8LBlYnUQJe4uEDB8cjByU8GQbI+rEDli8jBTMnlQEfkgUBs5sjBHJeQQIckfkCSOIPBTqOvQGSz
HUAPRILBdP3JQNCmgUAnnIPBj7ghQT6QCUEHwbjBjAYMQQN3CEGGWK/BCoEjQaHZ8EDkQK3BO1R2
QKjsTEDo26fB+bgMQL4ickBAF5nByWM1QOrrekBXP4zB

>  <OMEGA_E>  (50) 
6pIUPw==

>  <OMEGA_NBR>  (50) 
    133819

$$$$
50157456
     RDKit          3D

 52 55  0  0  1  0  0  0  0  0999 V2000
    6.3404   -0.5621  -22.7825 C   0  0  0  0  0  0  0  0  0  0  0  0
    4.9782   -4.2100  -18.4933 C   0  0  0  0  0  0  0  0  0  0  0  0
    5.8582   -1.5505  -21.9008 C   0  0  0  0  0  0  0  0  0  0  0  0
    5.4515   -3.2990  -19.4483 C   0  0  0  0  0  0  0  0  0  0  0  0
    6.1426    0.8038  -22.4966 C   0  0  0  0  0  0  0  0  0  0  0  0
    4.5802    4.0008  -22.9592 C   0  0  0  0  0  0  0  0  0  0  0  0
    4.8576    4.9294  -23.9766 C   0  0  0  0  0  0  0  0  0  0  0  0
    5.0089    0.1883  -20.4317 C   0  0  0  0  0  0  0  0  0  0  0  0
    6.8735    4.1861  -22.1638 C   0  0  0  0  0  0  0  0  0  0  0  0
    3.7218   -3.9917  -17.8944 C   0  0  0  0  0  0  0  0  0  0  0  0
    5.1708   -1.1736  -20.7257 C   0  0  0  0  0  0  0  0  0  0  0  0
    4.6594   -2.1813  -19.7734 C   0  0  0  0  0  0  0  0  0  0  0  0
    5.4637    1.1863  -21.3134 C   0  0  0  0  0  0  0  0  0  0  0  0
    5.5749    3.6492  -22.0163 C   0  0  0  0  0  0  0  0  0  0  0  0
    7.1551    5.1229  -23.1725 C   0  0  0  0  0  0  0  0  0  0  0  0
    6.1459    5.5168  -24.0810 C   0  0  0  0  0  0  0  0  0  0  0  0
    3.3940   -2.0281  -19.1372 C   0  0  0  0  0  0  0  0  0  0  0  0
    6.0339    2.9148  -19.6141 C   0  0  0  0  0  0  0  0  0  0  0  0
    3.8036    3.2620  -19.2416 C   0  0  0  0  0  0  0  0  0  0  0  0
    5.2590    2.6426  -20.9018 C   0  0  2  0  0  0  0  0  0  0  0  0
    8.5485    5.7182  -23.2631 C   0  0  0  0  0  0  0  0  0  0  0  0
    5.3820    3.6837  -17.3077 C   0  0  0  0  0  0  0  0  0  0  0  0
    5.3918    7.0463  -25.8021 C   0  0  0  0  0  0  0  0  0  0  0  0
    2.9567   -2.9243  -18.2218 N   0  0  0  0  0  0  0  0  0  0  0  0
    5.0743    3.1922  -18.6563 N   0  0  0  0  0  0  0  0  0  0  0  0
    3.8567    2.8259  -20.4775 N   0  0  0  0  0  0  0  0  0  0  0  0
    2.6439    3.6892  -18.6132 N   0  0  0  0  0  0  0  0  0  0  0  0
    7.2317    2.7515  -19.4065 O   0  0  0  0  0  0  0  0  0  0  0  0
    6.4771    6.4569  -25.0507 O   0  0  0  0  0  0  0  0  0  0  0  0
    2.5691   -1.0019  -19.4618 F   0  0  0  0  0  0  0  0  0  0  0  0
    6.8637   -0.8528  -23.6814 H   0  0  0  0  0  0  0  0  0  0  0  0
    5.5707   -5.0705  -18.2195 H   0  0  0  0  0  0  0  0  0  0  0  0
    6.0143   -2.5957  -22.1235 H   0  0  0  0  0  0  0  0  0  0  0  0
    6.4077   -3.4521  -19.9266 H   0  0  0  0  0  0  0  0  0  0  0  0
    6.5080    1.5576  -23.1783 H   0  0  0  0  0  0  0  0  0  0  0  0
    3.6000    3.5519  -22.8964 H   0  0  0  0  0  0  0  0  0  0  0  0
    4.0863    5.1979  -24.6832 H   0  0  0  0  0  0  0  0  0  0  0  0
    4.5253    0.4767  -19.5100 H   0  0  0  0  0  0  0  0  0  0  0  0
    7.6595    3.8725  -21.4928 H   0  0  0  0  0  0  0  0  0  0  0  0
    3.3605   -4.6927  -17.1565 H   0  0  0  0  0  0  0  0  0  0  0  0
    9.1708    5.0972  -23.9241 H   0  0  0  0  0  0  0  0  0  0  0  0
    8.4856    6.7380  -23.6705 H   0  0  0  0  0  0  0  0  0  0  0  0
    8.9989    5.7512  -22.2601 H   0  0  0  0  0  0  0  0  0  0  0  0
    4.4469    3.8239  -16.7457 H   0  0  0  0  0  0  0  0  0  0  0  0
    6.0165    2.9516  -16.7867 H   0  0  0  0  0  0  0  0  0  0  0  0
    5.9137    4.6440  -17.3801 H   0  0  0  0  0  0  0  0  0  0  0  0
    5.7966    7.7666  -26.5283 H   0  0  0  0  0  0  0  0  0  0  0  0
    4.8441    6.2559  -26.3361 H   0  0  0  0  0  0  0  0  0  0  0  0
    4.7085    7.5649  -25.1134 H   0  0  0  0  0  0  0  0  0  0  0  0
    3.0589    2.6433  -21.0522 H   0  0  0  0  0  0  0  0  0  0  0  0
    1.7743    3.6769  -19.1067 H   0  0  0  0  0  0  0  0  0  0  0  0
    2.6772    4.0098  -17.6666 H   0  0  0  0  0  0  0  0  0  0  0  0
  1  3  2  0
  1  5  1  0
  2  4  2  0
  2 10  1  0
  3 11  1  0
  4 12  1  0
  5 13  2  0
  6  7  2  0
  6 14  1  0
  7 16  1  0
  8 11  2  0
  8 13  1  0
  9 14  2  0
  9 15  1  0
 10 24  2  0
 11 12  1  0
 12 17  2  0
 20 13  1  6
 14 20  1  0
 15 16  2  0
 15 21  1  0
 16 29  1  0
 17 24  1  0
 17 30  1  0
 18 20  1  0
 18 25  1  0
 18 28  2  0
 19 25  1  0
 19 26  2  0
 19 27  1  0
 20 26  1  0
 22 25  1  0
 23 29  1  0
  1 31  1  0
  2 32  1  0
  3 33  1  0
  4 34  1  0
  5 35  1  0
  6 36  1  0
  7 37  1  0
  8 38  1  0
  9 39  1  0
 10 40  1  0
 21 41  1  0
 21 42  1  0
 21 43  1  0
 22 44  1  0
 22 45  1  0
 22 46  1  0
 23 47  1  0
 23 48  1  0
 23 49  1  0
 26 50  1  0
 27 51  1  0
 27 52  1  0
M  CHG  1  26   1
M  END
>  <OMEGA_C>  (51) 
LuTKQCLoD7+WQrbBHE2fQKW4hsA68pPBfHa7QMJ1xr++NK/BGHOuQAwjU8A1lpvBKJDEQNzITT/7
+LPBHpGSQNwGgEByrLfBa3GbQNK9nUAD0L/BmUigQJvIQD4QdKPB0PPbQFz0hUBlT7HBjjFuQK53
f8C3J4/BaXelQCc6lr9PzqXBlBmVQAGaC8D8L57B59auQObZlz/XgarB0WWyQDqNaUB4IbDBPPbk
QNDuo0A5YbnB1qrEQL6JsEDipcDBvDdZQAjMAcD/GJnB3hXBQJGLOkCU6ZzBLW5zQO3DUEC77pnB
10moQBggKUDtNqfBjsYIQZj7tkDHGrrBjTmsQEjCa0BCdorB8YmsQJ574UCfas7BSDs9QPgmO8As
xpHBaGCiQFdNTEAnQJXBF9R2QEfcNEAB0qPBcjYpQCEcbEDr55TBRmrnQAQZMECNQJvBn0TPQBaf
zkDrZ8jBkWskQFY/gL/bsZvBpaPbQK1TWr96c73BZkOyQDhBosCTwZHBcHXAQCQfJsDz/LDBEQzN
QDTvXMCcaZ/BTEHQQMdfxz8kbbnBymVmQAxSY0DKK7fB0MKCQChVpkBLd8XBoc+QQLAW9D6SFJzB
8xr1QIjWd0A88avByBJXQLoqlsCRQInBwLsSQeEbo0CNZL/B8cQHQf6d10A0Xb3BdvsPQfUJuECb
FLLB20yOQF27dEBF94XBeIfAQNXnPEA8S4bB4jy9QKOblEBhCovBJn65QNaH+EDmOdTBjAKbQK4w
yEBcsNLBWayWQLoT8kBX6MjBYcVDQBwrKUDRaqjBAhvjP6hRa0CB2pjBIlcrQOFPgEAsVY3Bc4vF
QHFXD7+O8LbBSQCgQK22hsBhNZTBHYK2QHBRxr/c2K/BCMStQPARU8BdAZzBfrTBQGhHTj8HT7TB
bozdQJnQh0DjH7HBZAjlQGyMpUAIY7nBwwGgQI0WPz7XcaPBnnOUQPzIfkAUWLfB/MJwQP8UgMBj
F4/B9AujQHNWlr/GGqbBbLyTQNIUDMDPaJ7BsueuQEEimD89darBkXq0QBe3akAm2a/BhXCbQJW4
nEB0qL/BQUfEQGcpsUBnosDBXOxXQEjZAsC4+5jB8ZjBQODFOkBLmpzBvJBzQIVtT0Bl7ZnBZ9ep
QJCXKUAMBKfBZOdsQMomo0DYYMfB/eOqQPaRbEDLTIrBnF2wQBbs6kAL68zB/mY+QHdnPMDViJHB
3B+iQKnSS0CZEpXBQEB5QK1dNUA/2qPBk7cnQEqIaEA0F5XBWBzoQB2gNEB155rBRCjQQL/RzUCu
qsjBAGgiQGNdgr9dVZvBRRXUQItoWb+wbb7BtJCzQO37ocDJJZLB2d65QIcIJsAI3bHBztbLQIls
XMBQGaDBtxbNQK2sxz+mzLnBQy33QDkqfkBBwavB9C8CQf69s0CcM7rByv2RQON18T4h4pvBtStr
QKomYEAUrrbBAbFbQFGNlsANFInBvj5EQAaNvUBsisTBAQ2DQGrxqkBxXM/BVMtGQPybhUCP08fB
GJSMQPaQdEB98IXB126/QHn9PkCa/IXB3T+7QOxclUAi5IrBCAG/QM0Y/0C5IdPB7tqVQAR32EAL
atDBcxKkQJhQ/0Dqb8bBbCdHQLXTKkBTp6jBE/LhP1NaZ0BmO5nBR8cnQKXPe0BVdo3BosLHQBSs
Cr81nLbBkIREQAKfQsAgnpHB3OC5QMFRxb80fa/B9mpeQHTFBMA2EZnBe8HBQMdSUT95GrTBeN6R
QNlDgUDUb7fBWGGbQGeTnkB7or/BA22fQGhlMT7CXKPBxZ3bQMUZhUCVPrHB6Ll7QLOng8BYP4/B
rualQNu1l79zw6XB83iXQEl1DcBRDJ7BpCatQG7Alz9icqrBHp6xQB8WakCz9q/BvUXlQNWnokD5
X7nBlSfFQH8FsEAam8DBUsWxQMkOVMD0PJvB1EXAQOzbOUBw1JzBYZpyQJMWVEBG1ZnB/RSnQO0w
KUAiFafBn0UJQSzrs0CbT7rBbYOsQFzIb0AhhYrBJSmuQOa84UCpU87BNKKkQP17h8A3/pPBBf6h
QOCFTkABL5XBQ8p0QO+XNUCMm6PB1XgpQEAHc0BA4pTBOH7mQD+TLUDDNJvBWHzQQNtWzUCRfMjB
ZKPZQCLoW8BoX5/BTBbXQD2KUb/YB77BcvIGQMypPcCXvY3BDYK+QEZPJcDIdrHB5lc1QEuUnr+z
9prBUt7MQB5fyj8mjLnB9R5kQETuZ0Cn1rbBrb6CQHPhp0DdOsXBvrWPQCWm5D4P/JvBmqD0QAQG
dUDY5qvBosFnQFh+m8DvgonBGKwSQT4Vn0Bxn7/Bkc4IQSt81ECGpL3BO7wQQUO0tEABWLLBWdWO
QGgAe0BkAIbBrW7AQNbvQEBsPIbB8Su+QCcrlkCpVIvBk6y7QM3090DsQdTB4f6aQBM7yUCBcdLB
IK6ZQLWL80AMucjBwEBBQBidKECVEKjBnlbjPygBc0ANzZjB1oYsQDGvhECRZY3B/gbCQH4lBr+h
JbfBPcdGQC2QQ8DcQpHBLbi0QIKjwr/F8a/B34pdQF37BMC/yJjBHWS+QEbKVT+TYbTB8ybdQD5I
h0B5G7HBP07lQO8+pEDXgbnB4/GeQDfZSz6oQaPBkv2TQDmCf0CVWrfBesB/QIS3g8CSK4/BEFaj
QF+zlL9k7KXBHFGWQCNgDMAgIJ7BDt6sQFDKmj8vW6rBeLuzQDtTa0B+zK/B7IqbQLeGnEDBwb/B
TMzEQLgUsECRz8DBEomxQNRIUsBxm5vBmenAQHOrPEDpnJzBbzVzQIMpVkAg1ZnB3o+oQMMhK0As
6KbBz+RsQCG1o0CbZcfBM3OrQLwLb0CcPorBlOuxQMWS6UA/T83BivqlQF/ghsAERZTBquuiQOA7
XkD3lpXBnGh3QBMVOUA0pKPB/i8nQI9aaUAHoJTBT6/mQO6zLUCjuprB/jXRQGI/zEDy6MjBfrjY
QF/5WMA7KqDBIhbPQK98Tb9Y1L7BrD8KQHHGP8DUHY3BE823QLABJMD2FLLBJy8zQHsMoL+0dJrB
vvvIQAJFzD+t6bnBvIT2QGEJfUDlqavBJnsCQbuosUC6YrrBE8OQQPPt8j4dsZvBYchpQF3cYUB1
q7bBijxuQOfEm8B4XYnBmdJFQAKxvkDxjcTBm+6CQKb4qkD/a8/B8D9FQGGnhkBWwMfBJo2OQAy/
hEABdobBlGC0QDb0MkBxPYbBtdTFQL2ljkC4hYnBRwLBQJpB/UDojdPB+0WXQMdM10AczdDBNrSl
QOxu/kC36cbBLJ1EQIvSLUDfTKjBEY7ePzslYUB3YZjBj0woQFtlf0CnHY3B

>  <OMEGA_E>  (51) 
ACTGPEDpkz2QwHY+KKqQPg==

>  <OMEGA_NBR>  (51) 
     23060

$$$$
50157489
     RDKit          3D

 55 58  0  0  1  0  0  0  0  0999 V2000
    5.0244   -4.1560  -18.4025 C   0  0  0  0  0  0  0  0  0  0  0  0
    5.5467   -3.2215  -19.3094 C   0  0  0  0  0  0  0  0  0  0  0  0
    6.2003    0.8908  -22.4179 C   0  0  0  0  0  0  0  0  0  0  0  0
    4.5691    3.9723  -22.9672 C   0  0  0  0  0  0  0  0  0  0  0  0
    6.4420   -0.4532  -22.7209 C   0  0  0  0  0  0  0  0  0  0  0  0
    4.8554    4.8612  -24.0169 C   0  0  0  0  0  0  0  0  0  0  0  0
    4.9643    0.2097  -20.4291 C   0  0  0  0  0  0  0  0  0  0  0  0
    6.8492    4.2086  -22.1453 C   0  0  0  0  0  0  0  0  0  0  0  0
    3.7031   -4.0014  -17.9376 C   0  0  0  0  0  0  0  0  0  0  0  0
    3.4123   -2.0640  -19.2282 C   0  0  0  0  0  0  0  0  0  0  0  0
    4.7234   -2.1659  -19.7542 C   0  0  0  0  0  0  0  0  0  0  0  0
    5.2228   -1.1448  -20.7098 C   0  0  0  0  0  0  0  0  0  0  0  0
    5.4393    1.2332  -21.2780 C   0  0  0  0  0  0  0  0  0  0  0  0
    5.5497    3.6733  -21.9928 C   0  0  0  0  0  0  0  0  0  0  0  0
    5.9446   -1.4775  -21.8920 C   0  0  0  0  0  0  0  0  0  0  0  0
    7.1448    5.0901  -23.1984 C   0  0  0  0  0  0  0  0  0  0  0  0
    6.1415    5.4518  -24.1262 C   0  0  0  0  0  0  0  0  0  0  0  0
    6.0297    2.9446  -19.5946 C   0  0  0  0  0  0  0  0  0  0  0  0
    3.8051    3.3207  -19.1948 C   0  0  0  0  0  0  0  0  0  0  0  0
    5.2321    2.6829  -20.8649 C   0  0  2  0  0  0  0  0  0  0  0  0
    6.2159   -2.9101  -22.3067 C   0  0  0  0  0  0  0  0  0  0  0  0
    8.5381    5.6835  -23.2994 C   0  0  0  0  0  0  0  0  0  0  0  0
    5.4120    3.6791  -17.2650 C   0  0  0  0  0  0  0  0  0  0  0  0
    5.3807    7.0104  -25.8131 C   0  0  0  0  0  0  0  0  0  0  0  0
    2.9266   -2.9690  -18.3451 N   0  0  0  0  0  0  0  0  0  0  0  0
    5.0880    3.2636  -18.6340 N   0  0  0  0  0  0  0  0  0  0  0  0
    3.8392    2.8817  -20.4298 N   0  0  0  0  0  0  0  0  0  0  0  0
    2.6491    3.7176  -18.5417 N   0  0  0  0  0  0  0  0  0  0  0  0
    7.2166    2.7066  -19.3945 O   0  0  0  0  0  0  0  0  0  0  0  0
    6.4728    6.3681  -25.1172 O   0  0  0  0  0  0  0  0  0  0  0  0
    5.6285   -4.9848  -18.0643 H   0  0  0  0  0  0  0  0  0  0  0  0
    6.5638   -3.3091  -19.6617 H   0  0  0  0  0  0  0  0  0  0  0  0
    6.5956    1.6673  -23.0560 H   0  0  0  0  0  0  0  0  0  0  0  0
    3.5932    3.5141  -22.9038 H   0  0  0  0  0  0  0  0  0  0  0  0
    7.0161   -0.7081  -23.5994 H   0  0  0  0  0  0  0  0  0  0  0  0
    4.0928    5.0963  -24.7446 H   0  0  0  0  0  0  0  0  0  0  0  0
    4.3934    0.4706  -19.5503 H   0  0  0  0  0  0  0  0  0  0  0  0
    7.6240    3.9366  -21.4437 H   0  0  0  0  0  0  0  0  0  0  0  0
    3.3007   -4.7221  -17.2411 H   0  0  0  0  0  0  0  0  0  0  0  0
    2.7833   -1.2431  -19.5394 H   0  0  0  0  0  0  0  0  0  0  0  0
    7.1664   -3.2461  -21.8666 H   0  0  0  0  0  0  0  0  0  0  0  0
    5.3990   -3.5555  -21.9513 H   0  0  0  0  0  0  0  0  0  0  0  0
    6.2787   -2.9686  -23.4033 H   0  0  0  0  0  0  0  0  0  0  0  0
    9.1688    5.0350  -23.9253 H   0  0  0  0  0  0  0  0  0  0  0  0
    8.4784    6.6842  -23.7522 H   0  0  0  0  0  0  0  0  0  0  0  0
    8.9770    5.7616  -22.2938 H   0  0  0  0  0  0  0  0  0  0  0  0
    4.4821    3.8725  -16.7102 H   0  0  0  0  0  0  0  0  0  0  0  0
    5.9785    2.8804  -16.7639 H   0  0  0  0  0  0  0  0  0  0  0  0
    6.0188    4.5962  -17.2942 H   0  0  0  0  0  0  0  0  0  0  0  0
    5.7825    7.7056  -26.5648 H   0  0  0  0  0  0  0  0  0  0  0  0
    4.7645    6.2475  -26.3116 H   0  0  0  0  0  0  0  0  0  0  0  0
    4.7634    7.5666  -25.0923 H   0  0  0  0  0  0  0  0  0  0  0  0
    3.0336    2.7068  -20.9959 H   0  0  0  0  0  0  0  0  0  0  0  0
    1.7690    3.6788  -19.0149 H   0  0  0  0  0  0  0  0  0  0  0  0
    2.6950    4.0429  -17.5972 H   0  0  0  0  0  0  0  0  0  0  0  0
  1  2  2  0
  1  9  1  0
  2 11  1  0
  3  5  2  0
  3 13  1  0
  4  6  2  0
  4 14  1  0
  5 15  1  0
  6 17  1  0
  7 12  1  0
  7 13  2  0
  8 14  2  0
  8 16  1  0
  9 25  2  0
 10 11  2  0
 10 25  1  0
 11 12  1  0
 12 15  2  0
 20 13  1  6
 14 20  1  0
 15 21  1  0
 16 17  2  0
 16 22  1  0
 17 30  1  0
 18 20  1  0
 18 26  1  0
 18 29  2  0
 19 26  1  0
 19 27  2  0
 19 28  1  0
 20 27  1  0
 23 26  1  0
 24 30  1  0
  1 31  1  0
  2 32  1  0
  3 33  1  0
  4 34  1  0
  5 35  1  0
  6 36  1  0
  7 37  1  0
  8 38  1  0
  9 39  1  0
 10 40  1  0
 21 41  1  0
 21 42  1  0
 21 43  1  0
 22 44  1  0
 22 45  1  0
 22 46  1  0
 23 47  1  0
 23 48  1  0
 23 49  1  0
 24 50  1  0
 24 51  1  0
 24 52  1  0
 27 53  1  0
 28 54  1  0
 28 55  1  0
M  CHG  1  27   1
M  END
>  <OMEGA_C>  (52) 
3segQJj9hMBVOJPBLX6xQEotTsCkeZrBlGjGQO0MZD/nV7PB9zWSQFY6fkC8vLfBOCXOQNMK6L5P
xLXBbl+bQKmOm0CjIsDBfdueQMi7Vj7ebqPBzCzbQNSshkCAKbHBsv9sQLQLgMA1gI/B0GNaQMEY
BMBN05nB9SWXQEqeCsCJCJ7BBCGnQCOJkr+oraXBpg6uQAPbnT9OOarBQpexQPAWa0BX8a/BYDq+
QFgevb/AIq/Ba6LkQGHiokBclrnBIYfEQMx0rkCGAsHB/PLAQEJ0PEC0wZzBjYdzQPKFVED0jpnB
F22nQO60K0Bf66bBUOjGQMY+OsAbdLLBB5wIQdPetUA1ZbrBKS+tQBp3a0C/HorBay6sQN9U4EA3
gc7BEE07QJYDPsCuwpLB7tCiQB7fUEB/EpXB3LR1QIZuOEAmcKPByIopQNDtbUBRVZTBO+7mQLA5
LUDeJ5vBVCHPQCjHy0AK8MjBAh20QMSDn8C5g5DBrwrSQNPHU8A2S53Bdw/TQGhr1T+ecrjBVfZl
QDHnYEDpOrfBvIPgQBFHNb+ky7zBOfiCQBYVo0D29MXBiZaMQIPx8D74ZpzBpvfzQKjxe0C5jKvB
lz5TQBwbl8C27YnB1SEyQJEen7+zUJzB11LlQFy/T8DW7q7B0sSsQIaMY8BTnK/Bb+vIQMH8PcAI
OrvBkrMSQc8eoUDwZr/Bf6cHQa3k1UB+BL7BwaEPQeJeuEC1WbLBM22PQO/Wd0BtroXB10+/QKFY
OEB4HIbBL5rAQMUTk0CMWorBjAq5QEuU9kDQhNTBJXeYQOPrx0AmftLBwG2YQMch8kAFvcjBFCdC
QAE8LUCa96fBxm7iP3Nxa0B2HpjBHXssQJVfgUD5xozBaNyDQN7Aa8C115HBLY2cQITpLMBo+5bB
mwbVQGosaT8fc7DBZbnRQLYRlkAI967BHIzdQJED375V9LLBsl7ZQCHDsEBMvrfBIM2dQBhrUT7H
4qPBPa2cQOAwXUBrTrnBgok6QH6Tg8D1nJbBhL9NQBhvKcAoFqXBZeKNQPqjC8DwxaDB12KmQOUH
kr+cVabBfEG0QBtanz+REanBJmWzQIs1aUAQoq/BQTTGQA0jvL+t9q3B2lSkQDlZiUDPM8LBlsPC
QLHnqkAXd8HBF0TDQFu1RUDfBpzBYpp2QMxUVUAVAZnBltmqQPJELUDzI6bB5PTPQJPbOsDns7DB
REyLQCRNgkCVe8zBZcOtQEXYfUAP3YnBmULoQNpS50BZTsnBz9EeQLsaZsAhCKDBEpykQD2RZEAL
+pTB5X57QGraOED+5KLBqjYqQBniYkBujpPBY/3pQIUDQUD8gJrBvzTJQIMLxUDDVcrBbEWOQMBm
g8BmVIrBYCS6QBahFsB7fpPBV5DnQDXm2D9SLLTBoibjQCgSm0D9m6fBjBL2QLeXLb9yubjBLr3w
QI8YykBYG7fBSMiFQLzo4z60+p3B8z+FQBGXKkAB5LnBkqUUQIHLm8A2q5LBiwU3QNVVD8DNkKzB
duroQJk5U8DpS6vB78OyQCd9YcD7xa/BwDzbQN3/PsDEBbnBn2JbQLVSlUCFRMzBSN2eQBhLjEC0
W9PB5DqDQH5cQEA0Q83BtxyQQDr6iUB3AobB1I+6QLOTRkBQc4XBxnfFQJfxmEBe04nBjQvqQC5B
+UCU3dDBPW7eQBQB/UDR0sLBGe0DQfyy2UA3csfByQlJQO20LEBlk6fB6rXkP9nWVkDJKJfBmSEr
QIaseEAFCYzB7sIKQMYiTMCWrJzBmhg5QP9dDMBBEaLBQdrVQPIxXD+p26/BYXDBQEKBnkDP+63B
WizdQBSZ9r4Yo7LBjKnJQGrQuUCHrbbBfbGaQJofOj5LZqTBp6iqQKNyTUDmZbrB2F43QBvuhMBC
mpbBbsGdQAAlTMD5BZvBDoOJQB7xDMB1VqHBBgajQPSrlb/GzKbBCzCzQAI1mz9OGKnBvgizQMBG
aEAiwq/BOJXDQEWbwL98Q67Bu9m0QA82gUBuI8PBMarDQOFNq0A2QMHBtePCQDK8Q0A7PpzBS711
QJQBU0BuBpnBzfypQMrhK0DgS6bBM57MQIujPMCRabHBXPKtQAWsYUAKdc7BXfCtQPL8fEDEDorB
NnOoQN/X4EBSwMzBWPSGQPt5hMD705XB4SykQO9rV0BulpTBFBp6QL7FOECaBaPBvrspQFm/ZUAx
u5PBheXpQCSCRUB+KJvBUUnMQI9pxkDAqMnB1I2LP/nuTcCIKp3ByXEYQKHGt7/hrabBLc7qQF+w
0D/g5bLBUSHGQBHkqUAm6aXBuoz2QJzyOr+jJ7jBR6LUQOsV2kBLQLXBJ0SBQIhS3T7i5p7B3Eic
QJmbD0BozrvBvLQTQACAncBXeZLBFzTAQAnoS8AeVJrBekLkQDc/WMCB4avBcsyuQBnqYcDNBLHB
6FHZQAeCPsC6nbnBUDCNQATrcECpDdHB3AHFQDQ7gEDg4NPBXKiyQGXrG0Aios7Bcg6QQAgZg0Az
jYXBnjDDQDKxUUALmIXByt+9QDGRnUDhKYvBLdKxQER/9UAme9PBJ5CNQDtUzEAYMc/BbKieQLLV
9EA678XByG9HQN/rLkCJwKfBz4zjPwyOX0AgiZfB0wkrQI9qeUDBHozB

>  <OMEGA_E>  (52) 
gIsePUJrCz/4xg8/

>  <OMEGA_NBR>  (52) 
     31669

$$$$
50157506
     RDKit          3D

 58 62  0  0  1  0  0  0  0  0999 V2000
    4.8592    4.3341  -22.7683 C   0  0  0  0  0  0  0  0  0  0  0  0
    5.1412    5.1675  -23.8661 C   0  0  0  0  0  0  0  0  0  0  0  0
    7.2098    4.3566  -22.1459 C   0  0  0  0  0  0  0  0  0  0  0  0
    5.8891    3.9424  -21.8735 C   0  0  0  0  0  0  0  0  0  0  0  0
    6.4719    5.5870  -24.1198 C   0  0  0  0  0  0  0  0  0  0  0  0
    7.5010    5.1313  -23.2766 C   0  0  0  0  0  0  0  0  0  0  0  0
    6.3099    3.4301  -19.4128 C   0  0  0  0  0  0  0  0  0  0  0  0
    4.0520    3.4898  -19.0787 C   0  0  0  0  0  0  0  0  0  0  0  0
    6.6870   -0.6500  -23.0282 C   0  0  0  0  0  0  0  0  0  0  0  0
    7.4099   -1.0827  -20.6480 C   0  0  0  0  0  0  0  0  0  0  0  0
    4.9870   -1.3570  -21.3043 C   0  0  0  0  0  0  0  0  0  0  0  0
    7.3875    1.2633  -21.5617 C   0  0  0  0  0  0  0  0  0  0  0  0
    4.9594    0.9909  -22.2140 C   0  0  0  0  0  0  0  0  0  0  0  0
    5.6865    0.5491  -19.8219 C   0  0  0  0  0  0  0  0  0  0  0  0
    7.6551   -0.2155  -21.9027 C   0  0  2  0  0  0  0  0  0  0  0  0
    5.2211   -0.4891  -22.5628 C   0  0  1  0  0  0  0  0  0  0  0  0
    5.9477   -0.9284  -20.1711 C   0  0  2  0  0  0  0  0  0  0  0  0
    5.6029    2.9849  -20.7004 C   0  0  2  0  0  0  0  0  0  0  0  0
    5.9126    1.4751  -21.0687 C   0  0  1  0  0  0  0  0  0  0  0  0
    5.5224    4.0853  -17.1143 C   0  0  0  0  0  0  0  0  0  0  0  0
    5.7715    7.0398  -25.9239 C   0  0  0  0  0  0  0  0  0  0  0  0
    9.3907    6.4292  -22.7565 C   0  0  0  0  0  0  0  0  0  0  0  0
    5.3075    3.5563  -18.4664 N   0  0  0  0  0  0  0  0  0  0  0  0
    4.1816    3.1066  -20.3235 N   0  0  0  0  0  0  0  0  0  0  0  0
    2.8342    3.7594  -18.4752 N   0  0  0  0  0  0  0  0  0  0  0  0
    7.5121    3.5111  -19.1853 O   0  0  0  0  0  0  0  0  0  0  0  0
    6.8351    6.4251  -25.1671 O   0  0  0  0  0  0  0  0  0  0  0  0
    8.8083    5.4117  -23.5855 O   0  0  0  0  0  0  0  0  0  0  0  0
    3.8490    3.9888  -22.6047 H   0  0  0  0  0  0  0  0  0  0  0  0
    4.3419    5.4887  -24.5176 H   0  0  0  0  0  0  0  0  0  0  0  0
    8.0067    4.0730  -21.4743 H   0  0  0  0  0  0  0  0  0  0  0  0
    6.8573   -0.0234  -23.9161 H   0  0  0  0  0  0  0  0  0  0  0  0
    6.8743   -1.7039  -23.2818 H   0  0  0  0  0  0  0  0  0  0  0  0
    7.6034   -2.1377  -20.8918 H   0  0  0  0  0  0  0  0  0  0  0  0
    8.0899   -0.7612  -19.8453 H   0  0  0  0  0  0  0  0  0  0  0  0
    3.9478   -1.2324  -20.9656 H   0  0  0  0  0  0  0  0  0  0  0  0
    5.1674   -2.4132  -21.5530 H   0  0  0  0  0  0  0  0  0  0  0  0
    8.0800    1.5791  -20.7675 H   0  0  0  0  0  0  0  0  0  0  0  0
    7.5567    1.8748  -22.4602 H   0  0  0  0  0  0  0  0  0  0  0  0
    5.1306    1.6070  -23.1091 H   0  0  0  0  0  0  0  0  0  0  0  0
    3.9158    1.1038  -21.8853 H   0  0  0  0  0  0  0  0  0  0  0  0
    4.6474    0.6582  -19.4776 H   0  0  0  0  0  0  0  0  0  0  0  0
    6.3729    0.8548  -19.0186 H   0  0  0  0  0  0  0  0  0  0  0  0
    8.6948   -0.3371  -22.2406 H   0  0  0  0  0  0  0  0  0  0  0  0
    4.5398   -0.8081  -23.3654 H   0  0  0  0  0  0  0  0  0  0  0  0
    5.7784   -1.5563  -19.2839 H   0  0  0  0  0  0  0  0  0  0  0  0
    4.5707    4.0811  -16.5628 H   0  0  0  0  0  0  0  0  0  0  0  0
    6.2546    3.4564  -16.5867 H   0  0  0  0  0  0  0  0  0  0  0  0
    5.9035    5.1151  -17.1799 H   0  0  0  0  0  0  0  0  0  0  0  0
    6.2015    7.6718  -26.7149 H   0  0  0  0  0  0  0  0  0  0  0  0
    5.1461    6.2577  -26.3790 H   0  0  0  0  0  0  0  0  0  0  0  0
    5.1557    7.6586  -25.2546 H   0  0  0  0  0  0  0  0  0  0  0  0
   10.4338    6.5989  -23.0616 H   0  0  0  0  0  0  0  0  0  0  0  0
    8.8200    7.3631  -22.8669 H   0  0  0  0  0  0  0  0  0  0  0  0
    9.3643    6.1054  -21.7056 H   0  0  0  0  0  0  0  0  0  0  0  0
    3.4162    2.9203  -20.9395 H   0  0  0  0  0  0  0  0  0  0  0  0
    1.9860    3.6645  -18.9963 H   0  0  0  0  0  0  0  0  0  0  0  0
    2.8035    4.0490  -17.5185 H   0  0  0  0  0  0  0  0  0  0  0  0
  1  2  2  0
  1  4  1  0
  2  5  1  0
  3  4  2  0
  3  6  1  0
 18  4  1  6
  5  6  2  0
  5 27  1  0
  6 28  1  0
  7 18  1  0
  7 23  1  0
  7 26  2  0
  8 23  1  0
  8 24  2  0
  8 25  1  0
  9 15  1  0
  9 16  1  0
 10 15  1  0
 10 17  1  0
 11 16  1  0
 11 17  1  0
 12 15  1  0
 19 12  1  6
 13 16  1  0
 13 19  1  0
 14 17  1  0
 14 19  1  0
 18 19  1  0
 18 24  1  0
 20 23  1  0
 21 27  1  0
 22 28  1  0
  1 29  1  0
  2 30  1  0
  3 31  1  0
  9 32  1  0
  9 33  1  0
 10 34  1  0
 10 35  1  0
 11 36  1  0
 11 37  1  0
 12 38  1  0
 12 39  1  0
 13 40  1  0
 13 41  1  0
 14 42  1  0
 14 43  1  0
 15 44  1  6
 16 45  1  6
 17 46  1  1
 20 47  1  0
 20 48  1  0
 20 49  1  0
 21 50  1  0
 21 51  1  0
 21 52  1  0
 22 53  1  0
 22 54  1  0
 22 55  1  0
 24 56  1  0
 25 57  1  0
 25 58  1  0
M  CHG  1  24   1
M  END
>  <OMEGA_C>  (53) 
iX6bQI6wikBkJbbBXoSkQMhbpUDW7b7BBbfmQEdpi0DDKrHBMHO8QHtQfEDX/K7BgxnPQFXIskBz
9cDBfQjwQEkzpEBgNrrB3erJQJyGW0BkTZvBS6qBQNhYX0AqoZjBSPzVQKdpJr++ObjBLR7tQFqV
ir8XL6XBGZWfQLyxrb8jb6rBi2bsQO+yoT9IfqzBZbOeQNSpfT9ftrHBc/e1QMiSDD88k57BRvb0
QLCiXL65OK/B5hKnQBpx+r6bgLTBSVO+QK6tbb9/XqHBvUqzQIkIP0BhmqXBTDS9QA7RvD+0jKjB
y7ewQA+7gkAe6ojBd7C4QG5G4UAaZM/BaEAWQUO8zUBbDbbBIdepQPKaY0BJu5PB4c+FQAjSRkB4
lqLB4WM1QH+acEAdzZPBRGPwQG+1YECGe5nBgrnaQIKazUBIVsnB0e4MQaIsrUAqr7zBO1Z2QA1J
f0Bn1rTBqPCKQCKjr0D8I8TBeBsAQbpVgkB3y6vBTG/bQOgIwLwpVL/B9fnbQCQa2r8RQbrBVE/z
QHnQCMBsIqfBQHABQSzcQr88w57BGal8QH6+nb+WuafBGVulQMBxGsCUbKzBjUcBQaIgyj/DI6bB
P9DxQIb67z+ArrPB9y2kQB6yzT9k37jBGpx6QPJKjT8MFa/B3reUQOeBKD8X0pvBLe/LQCvTWj8R
JpjB2x0LQZ6brL637LHBY0aRQJ7iTr9a7LrBB+m4QCY1x7+ARZrBI0OSQH2YgkCcgITBjSXIQOY0
XUChsYTBdOm8QDCvo0BwcInBwnLGQL9/9UAbuNXB06ykQHs/yEA0CNPBj/ukQN8S9UBkCcrBCvEm
QVYq00A/frjBuB4NQWqe60Bw77bBG9QVQXFfw0ASpa3BR6NaQEfmOkAIhKfBQzb+P/iGakBb+JfB
Jm0zQBSRgUDXJYzBRxqdQOj4h0Bq0rbBLiGlQKVCo0B3hL/B0yTnQK45j0C0DLHBMc29QNIJfECj
W6/BFVHOQLomtUB3AcHBOVTvQLkJq0ANybnB1tfKQE6rXEC3hpvB3z2CQJctYkCmGJnBnXLrQO8l
j7+HiKTB3z2eQFZ3rb+tKarBVmbWQHAlNr/SvLfB29C0QLt4ED8+dJ7BARftQBFNnD+HHazBQM2f
QOcXej9aybHBDXG8QD3+bL/P/aDBF9X0QMTci77boa7B5EunQMnPA78LTbTBOY60QJBMP0DG2KXB
Tri9QOCcuz8zgqjBMZewQDTFfkC974jBvwK2QBKA40A8Qc/BAEIbQY5eu0ACbrPBRkKqQAK5cEB0
cZTBA++GQBN1SECo/KLB18Q1QAZjbUCULZTBFw3xQHl9WkCfTZnBW8jYQBxH0ECxa8nB5nkLQXqA
vUB2yrvBRS97QM+/dECvzbXBBseLQB2hqkDDF8XBu2MAQcMVh0DNn6vBF24AQQ8CTb/sBp7B0g3x
QCmQC8D2VabBF3ajQB/XGsDX96vBfq95QFDlmb/pqqfBntfcQNS/173v5r7B8+7bQEX84r+6krnB
j2CTQKyCMz/J7pvBkFHKQByGXj+D7ZfB0mYBQQlIxD/Rp6XBK6TzQGOH6D+gVLPB+XCmQFgJyT+s
AbnBjX58QPhdjz/6Yq/BIwG2QM1RxL8p1pnBbyALQaIw2L6sH7HBE+GRQB9EVb/fzbrBkq+RQNLY
hkDRKIXBywu+QJWZREDLS4XBuMvGQP5EmkB2u4fB/enCQE4F+EC/otXBuAyiQMU8ykC1z9LB0H2i
QNXs9kAGxsnBlAsqQfEny0DIHLbBNiUVQQyky0DwP6zBGKYeQaysmUDbh7HB/lZdQI9/PEDi+6fB
g63/P7ufYUAZOpjBPekyQDmegEC3lIzB09+aQMs/i0DbD7bBTQqkQHjupUAc177B+jzmQMAPi0AP
MbHBAuq7QMKOfEDB+a7BX83OQAWpskCf8cDBhLHvQCZno0ANR7rBwenJQDloXUASaZvBsIWBQNDH
Y0AFw5jBEMifQN94rL8AiKrB3KjWQO0gJb+dN7jBKyTtQATeib8zIKXBTUSfQBcEgD990bHBTsG1
QP7NDj9+nZ7B4bnsQBE+oj+IcKzBf6anQKIZ9r69lrTBpju+QByNa79TZqHB4lb1QLZtWL63Jq/B
2wyzQFRfP0CYmqXBnF69QFq+vT94kKjBse2wQJODg0D7/YjBCvO4QC524UDzXM/BLmkWQQxjzUAk
MbfB9M2pQEYFdUAwYpTBmpqFQPGZRkAKh6LB8g81QJCYb0C2r5PBmUDwQNzdW0COU5nBQbjaQIwl
zUDMW8nB7dUMQRaOqkD+7rzB++l0QFqQgEA5tbTBfneKQBa9sEBT/MPBjK//QBjzgUDFzqvBjuN8
QI5LnL+75KfB35GlQMDbGcBSgazBv6bcQNGI2b/uObrBbGLcQHTin7wjUL/BRlwBQdqRQb87qp7B
LVbzQNp8CMD9DqfBVCGlQGXZzj/39bjB6YN7QCXJjj9oSa/BP2eUQIy1Kj+R8JvBGHrLQKQGXT/r
IpjB3V0BQVGgyj9YDabBFFfyQL1z8D8Ln7PBjAiSQNZ4TL8PDbvBGJC4QHIyxr8fUZrBS1kLQVP1
qr6qyLHBLV+SQOInjEACMoXBvyS+QIHPTUBKEoXBlJ7HQIk5nkCwLIjBhvPGQG1U9UBuutXBxk+k
QETTyEDn89LBg9ClQPe49UC8/MnBYycnQQkr0UAGvLnBJ4wNQSsK60Dm4LjBsN4VQUKrxkDVjq7B
ryVaQD8xN0A+SqfBWzv9P0qPYUD7gZfBjT8zQAYUg0AONIzBL8boQGaUjUBPg7HBsRbwQDX5qUCo
FLrBKmWeQDiFh0C707bBnVq/QMUYeUBsrK/Bn33OQBGOtkCl88DBePikQG39pEDqIL/BqT3LQHUS
XkDC7ZvBdaiCQM0lY0AGcZnBhiifQHxstL8+sajBtODRQKG9S7/UmbfBNMXtQEgejL+ly6TBRWSc
QKsTZD/H8bDBzy+4QEeiFD9VEZ7BiUbrQA6SmT+3Fq3B0gSkQOX2G7+UN7PBtPq/QJVpar+GU6DB
+A3zQPq7mL4zUa/Bqxi1QJANPkB7F6bBj1q9QNL8tz84g6jB2Q6xQAcXh0CD04nB5QW7QEY/3UBJ
ctHBSn5dQBXrkEDPRsvBFZ+qQC0Kd0BUFZXBuGGHQCUkSEAhQ6PByag2QPlra0AcZ5TBVonxQBNj
XUDQzJnBBTfZQNEr1EBS6sjB5XuBQMzasUAJuMTB03MBQcO5hEBFT6zBZfYHQYFRtkABarvBr5V+
QDzScUAI6LXB/DV9QGeeor/eiKXBs6qkQEKIHsDpTqrBV3bXQAZh7r9vPrnB1m3VQPKMYb4WDL/B
coQCQZN/Or9v4J7BiZrzQAtXCsCXXabBZe+fQN1iuj8UcbjBNIp3QGk2gz9T0a3BtYyXQA/2NT+v
8JrBonLPQKdvbT8BE5jBq4EBQaQExz+YPqfBotPuQGKj4T+omLTBQKOMQA/nd799IrnBRXK8QOcU
v78Z45jBLsoJQad44r6PerLBcySSQI64j0DINobBRNm+QGppV0DogIXB3wXHQDmFokAaUYnB39jI
QBca9UDT6tbBAyS0QESkv0CD4tXBYjGdQFLe6UBSAM7BZjYlQGDTnUDMds/BTGWGQLLahUC9LdHB
B91JQGfPa0AvMsbBzkBeQDXRO0B5P6jBpeoAQIhQXECcUJjBmbEzQEQ/gECj24zBCb/oQPwjjUBZ
obHBSiXwQBacqUDILbrB8M2dQP5eiUBzjrbB2BW/QOIGekAMo6/Bc2vOQCg0t0CH48DBRY+kQNTc
pkDx1r7BejXLQEyRXkCN95vBLLOCQL4jY0DGbZnBV/XRQF7BS78AkbfBrIntQHgBjL+/uqTBmfae
QCa1s7/HtajBlU3rQMSgmT9uDa3Bm3ucQFafZT9++7DBBve3QIjcFT8IE57BNgjzQFgqmb79QK/B
fwukQITHGr8fPLPB1q+/QIRjab/yT6DBGgG1QCBdPkB8GqbBdlW9QAyKuD+xhajBsiWxQLgoiECa
74nBXje6QMKr4EDW9NDBbPRiQHJZkkCWo8vBiaKqQHGJeECdKpXB3FOHQHn1R0CcPaPByPI2QCzp
aUCpT5TBnYPxQD+rXUAb2ZnBr8HZQGSu00C3EcnBjT6BQDwRs0CujcTBa4IBQfaHg0CbjqzBXBYI
QRU8tUCgn7vB0p98QFOmd0CIdrXBgK/VQAmhY75hBL/BoHvXQKF97r8iMLnBiFfzQFVRCsB9SKbB
ZVwCQVtYOr83yp7BYb18QH+Zob/dlaXB0WykQFA0HsDgUKrB5nwBQakPxz8AMafBoP/uQEp14T+I
kLTBTzKgQMUBuz/xerjB26J3QLFWhD895K3B8UqXQDHONz/w+ZrBGirPQAVubj8HEJjBjcwJQfsY
5L7LYbLBLbyMQOF3dr99LLnBMPy7QGVtvr9r35jBvkySQPwskUClWIbB17G+QPSbWUDLjYXBZVjH
QK1qo0A1e4nBPf7IQEbw9kAIr9bBLGyuQFVLxECJP9XBMFOfQMmd8ECe6czBZXEqQCVYnkAb8s/B
55KKQNfLiUBebdHB5zBRQIvKa0BY9cbBbxBeQPE5O0CvMqjBUkcBQBh/WUD0J5jBhgs0QEQ1f0Ce
xozBUDGeQKPehEBiKrfBNeinQCFTn0AB77/BMu7lQCdskEAdI7DB8Py8QMySe0CjBa/BmCTQQMWR
s0C2nsDBRYPvQC5hrED7rLjB7rfJQNAjXEA8NpvBtliBQGogZEByvZjBcNqtQB/xgb9wUbbB6mv5
QDN3Rr/rYq/BLQu+QM79vr9G46LBb9fOQLF0oj9Hd7TBAnGTQDdtDT+Q7qfBzFnfQIODST9DDKHB
Me3XQGGcVL4RSbfBklOcQOdhbb/JwKrBszPoQBiTML8YzaPBs1mzQGwoPkDzpKXBjR29QAW+tj87
tqjBOKawQE/FhkDSE4nBvVjMQM7A+UBQmcfBgakaQWzOu0AZ6rDBL3ipQJGOaUCT0pPB8qSFQKLR
SkDktaLBu5w0QDdjdUCQ35PBWQfwQEIuYkDfK5nBxv/YQIDJzUCJMMnBgXALQbf7wEC8nLnBBkN+
QOG9a0AkobbBU3eQQLwopECTKsbBm3H+QIYdiUDBU6rBVgOWQPaOGr+45LvBdhq0QNBaBMDBVLjB
N/z/QAzI6b/qZLHBQZMLQeAeRL65A7DBNsCxQNhOtb8CqprBEUXEQF0II8Df0qTB4rzsQHDZ6z/Y
MrXBcwO3QKVK1T8+HLrB1dx2QN1icz/Rha3BQ/WGQD9kGz8nt5/Bo4nTQAzdWD+rxZjBCWX9QDhC
rT/Uv6HBuznkQD6/jb4dg7/Bjhp9QNQYwb+cHarBIAcAQRLcjL/iOZ7BK/qRQPnWiEB7yoTByrTG
QNjxY0AHm4TBVaO+QB7wpkDKz4nB6m/UQNZIBkF8wc7BN6GpQPFF+0BMMsbBJFPdQKp2A0ERocDB
cFspQcy7zUDcv7LB1J4TQWcUyEC6dKnBqIYeQUmumUAk9K/BbU9aQLs7QUD8t6fBr2z8PwrAbkBN
AZjBmtMyQAs5hEBPPYzBTh/aQC3moECI6a3BjKvjQMpwu0CvorbBwZOnQAIxc0Ak8rjBkHm8QH13
fUAZ/q7ByKTQQP8KtEBRqMDBNguzQNtQkkAT+sHB1X/JQHGQWkC5VpvBFgGBQCPeY0DsypjBIfXE
QAXySr9Ti7jBUjH4QKIBbb/H8KjBo0+qQE5qwr+aVabBdITjQBCrqD/sg7DBX6GUQPA6Nj/Ryq3B
XBPIQBhlGT9+T57BdxztQOR2Ib4PULPB162eQOAuQb+sqrDB0fPRQJUnYL/6DaHBt6qyQLnCPkAk
rKXBwYa8QC0TuD/ImqjBNrWwQAd4hkApKonB4/e+QGMW80DLFMrBbUmIQHfQSUCUns3Bl1epQA53
aUCc65PBcCOFQIodSkDdwKLBcPgzQMMzdUBr6JPB4y/wQEELXUDIopnByMPaQIRazkC9G8nBR+2h
QG4xi0ATHczB7HbpQGd+pkAzTKbBoMT5QO631UBYprXB2UOOQPJ7REB9qrnBkaS8QECqa76W0L/B
8fLLQJU3678Wq7rBUVn/QOSu/L/+6qrBqi0KQevX7b6CKqXBQCqPQEcuvb/rvaDB+mWxQPVUJMAk
T6jBdPf/QKFx4T8WvazBMQDcQKya7j8R67fBWWiLQEnanz85HrXBe8pzQHNnOz/6EajBStmsQJrM
IT87vZjBrFrkQNHShT+OeZrBBB4EQXq0Vb4l6LjBG4WCQOXum7/VbLTBrijaQGUvtr86tJnBfwKS
QEYqiUBq6YTBszrGQNtTYkDKrYTBgWa/QB5VpkDK3YnB7PnIQD1DA0Ff+tDBcc6dQPRB6EBHQcvB
SfLAQOY5A0HOv8LBHO55QL3uRkCt8dXBFNabQLL1EEC538vB+kRZQLmHS0CxLcjB+EBZQGiMP0BG
uafBQvr6P+9DbkDdA5jBllIyQLJNhECJSYzB

>  <OMEGA_E>  (53) 
gLzSPSB32j1Q1Nw9GCMePphJHj7wD1U+QGJdPg==

>  <OMEGA_NBR>  (53) 
     74788

$$$$
50157513
     RDKit          3D

 60 64  0  0  1  0  0  0  0  0999 V2000
    4.8627    3.6672  -23.2182 C   0  0  0  0  0  0  0  0  0  0  0  0
    5.2176    4.5255  -24.2719 C   0  0  0  0  0  0  0  0  0  0  0  0
    6.5593    4.6941  -21.8152 C   0  0  0  0  0  0  0  0  0  0  0  0
    5.5639    3.6996  -21.9853 C   0  0  0  0  0  0  0  0  0  0  0  0
    6.8800    5.5957  -22.8421 C   0  0  0  0  0  0  0  0  0  0  0  0
    6.2214    5.4953  -24.0899 C   0  0  0  0  0  0  0  0  0  0  0  0
    6.0261    3.0073  -19.5669 C   0  0  0  0  0  0  0  0  0  0  0  0
    3.7878    3.2792  -19.1584 C   0  0  0  0  0  0  0  0  0  0  0  0
    5.5150   -0.9758  -23.4186 C   0  0  0  0  0  0  0  0  0  0  0  0
    7.1654   -1.3077  -21.5336 C   0  0  0  0  0  0  0  0  0  0  0  0
    4.7104   -1.7724  -21.1567 C   0  0  0  0  0  0  0  0  0  0  0  0
    6.6261    1.0165  -22.3401 C   0  0  0  0  0  0  0  0  0  0  0  0
    4.1414    0.5429  -21.9483 C   0  0  0  0  0  0  0  0  0  0  0  0
    5.7976    0.2266  -20.0762 C   0  0  0  0  0  0  0  0  0  0  0  0
    6.8259   -0.4522  -22.7759 C   0  0  2  0  0  0  0  0  0  0  0  0
    4.3538   -0.9186  -22.3939 C   0  0  1  0  0  0  0  0  0  0  0  0
    6.0064   -1.2416  -20.5065 C   0  0  2  0  0  0  0  0  0  0  0  0
    5.2411    2.6842  -20.8550 C   0  0  2  0  0  0  0  0  0  0  0  0
    5.4479    1.1524  -21.3054 C   0  0  1  0  0  0  0  0  0  0  0  0
    7.4048    7.6468  -21.4672 C   0  0  0  0  0  0  0  0  0  0  0  0
    5.3834    3.7331  -17.2344 C   0  0  0  0  0  0  0  0  0  0  0  0
    5.6584    7.4905  -25.2225 C   0  0  0  0  0  0  0  0  0  0  0  0
    7.9154    6.6780  -22.5558 C   0  0  0  0  0  0  0  0  0  0  0  0
    5.0714    3.2597  -18.5937 N   0  0  0  0  0  0  0  0  0  0  0  0
    3.8465    2.9291  -20.4251 N   0  0  0  0  0  0  0  0  0  0  0  0
    2.6109    3.5941  -18.4884 N   0  0  0  0  0  0  0  0  0  0  0  0
    7.2411    2.9566  -19.3924 O   0  0  0  0  0  0  0  0  0  0  0  0
    6.5328    6.3464  -25.1250 O   0  0  0  0  0  0  0  0  0  0  0  0
    4.0453    2.9734  -23.3483 H   0  0  0  0  0  0  0  0  0  0  0  0
    4.7181    4.4410  -25.2258 H   0  0  0  0  0  0  0  0  0  0  0  0
    7.0835    4.7597  -20.8732 H   0  0  0  0  0  0  0  0  0  0  0  0
    5.2626   -0.3514  -24.2883 H   0  0  0  0  0  0  0  0  0  0  0  0
    5.6608   -2.0163  -23.7442 H   0  0  0  0  0  0  0  0  0  0  0  0
    7.3185   -2.3524  -21.8423 H   0  0  0  0  0  0  0  0  0  0  0  0
    8.0856   -0.9243  -21.0685 H   0  0  0  0  0  0  0  0  0  0  0  0
    3.8884   -1.7189  -20.4276 H   0  0  0  0  0  0  0  0  0  0  0  0
    4.8590   -2.8176  -21.4656 H   0  0  0  0  0  0  0  0  0  0  0  0
    7.5542    1.3816  -21.8759 H   0  0  0  0  0  0  0  0  0  0  0  0
    6.3957    1.6250  -23.2270 H   0  0  0  0  0  0  0  0  0  0  0  0
    3.8605    1.1456  -22.8245 H   0  0  0  0  0  0  0  0  0  0  0  0
    3.3303    0.5749  -21.2059 H   0  0  0  0  0  0  0  0  0  0  0  0
    4.9721    0.2712  -19.3505 H   0  0  0  0  0  0  0  0  0  0  0  0
    6.7207    0.5944  -19.6045 H   0  0  0  0  0  0  0  0  0  0  0  0
    7.6467   -0.5149  -23.5056 H   0  0  0  0  0  0  0  0  0  0  0  0
    3.4331   -1.3031  -22.8569 H   0  0  0  0  0  0  0  0  0  0  0  0
    6.2571   -1.8532  -19.6273 H   0  0  0  0  0  0  0  0  0  0  0  0
    8.1653    8.4182  -21.2762 H   0  0  0  0  0  0  0  0  0  0  0  0
    6.4752    8.1253  -21.8092 H   0  0  0  0  0  0  0  0  0  0  0  0
    7.2096    7.0870  -20.5406 H   0  0  0  0  0  0  0  0  0  0  0  0
    4.4504    3.8535  -16.6643 H   0  0  0  0  0  0  0  0  0  0  0  0
    6.0291    2.9992  -16.7299 H   0  0  0  0  0  0  0  0  0  0  0  0
    5.9042    4.7002  -17.2935 H   0  0  0  0  0  0  0  0  0  0  0  0
    5.9701    8.1198  -26.0692 H   0  0  0  0  0  0  0  0  0  0  0  0
    4.6246    7.1493  -25.3804 H   0  0  0  0  0  0  0  0  0  0  0  0
    5.7137    8.0745  -24.2920 H   0  0  0  0  0  0  0  0  0  0  0  0
    8.8463    6.2048  -22.2103 H   0  0  0  0  0  0  0  0  0  0  0  0
    8.1119    7.2430  -23.4788 H   0  0  0  0  0  0  0  0  0  0  0  0
    3.0493    2.8397  -21.0222 H   0  0  0  0  0  0  0  0  0  0  0  0
    1.7363    3.5621  -18.9721 H   0  0  0  0  0  0  0  0  0  0  0  0
    2.6391    3.8527  -17.5228 H   0  0  0  0  0  0  0  0  0  0  0  0
  1  2  2  0
  1  4  1  0
  2  6  1  0
  3  4  2  0
  3  5  1  0
 18  4  1  6
  5  6  2  0
  5 23  1  0
  6 28  1  0
  7 18  1  0
  7 24  1  0
  7 27  2  0
  8 24  1  0
  8 25  2  0
  8 26  1  0
  9 15  1  0
  9 16  1  0
 10 15  1  0
 10 17  1  0
 11 16  1  0
 11 17  1  0
 12 15  1  0
 19 12  1  6
 13 16  1  0
 13 19  1  0
 14 17  1  0
 14 19  1  0
 18 19  1  0
 18 25  1  0
 20 23  1  0
 21 24  1  0
 22 28  1  0
  1 29  1  0
  2 30  1  0
  3 31  1  0
  9 32  1  0
  9 33  1  0
 10 34  1  0
 10 35  1  0
 11 36  1  0
 11 37  1  0
 12 38  1  0
 12 39  1  0
 13 40  1  0
 13 41  1  0
 14 42  1  0
 14 43  1  0
 15 44  1  6
 16 45  1  6
 17 46  1  1
 20 47  1  0
 20 48  1  0
 20 49  1  0
 21 50  1  0
 21 51  1  0
 21 52  1  0
 22 53  1  0
 22 54  1  0
 22 55  1  0
 23 56  1  0
 23 57  1  0
 25 58  1  0
 26 59  1  0
 26 60  1  0
M  CHG  1  25   1
M  END
>  <OMEGA_C>  (54) 
DpubQAazakDmvrnBO/amQNHQkED0LMLB+uXRQA82lkB3ha7BlQuyQA7HbEDp4a/B1SjcQCEQs0CU
vLbBTxXHQIbZr0AfuMDB1tXAQOx3QEAGiZzB6GpyQMLdUUBSRJnBwnqwQDfMeb9JWbvBDUvlQJRj
p7+9RKzBPruWQJXd4r/cQKnBRAnUQKcdgj9yuLLBA4aEQD75Cj8Zlq/BloW5QKwTaD4KnKDB4G3a
QIWF574lNbbBrlKLQJ8ma7/NJrPBHjTAQMrtnr9WDaTBPrenQKvJK0D41qbBflWuQByCkz96carB
uvPsQJiy9EDYvKvBvkSsQIPqbkD234nBtRG1QEey70C6x8nBnUr9QN2x1UA0crTBl0iiQB6fUEDX
v5TBySx2QLx1O0ChZqPBPhknQIwGZkBG6JPBKbfnQHA5PUCoI5vBBg3RQMoVy0AEAMnB1XKBQCNM
PkA4ybrBFPuWQGYcjkB1zsnB7qviQJpPmEBF/KbBLWeoQKHrs76JTsLBIyW1QIYLAcAG9L3BwzDq
QBiNFsAFva7Bdl4BQdicbL9KjKjBFdt4QM4D3L/Ra6PBIX2bQKtTNMB4uavBo7vxQI7ZsD/MAa/B
16nMQI0B0D/a0LnB2xF3QLqjkj+fmLbBWSNVQKkvEz+1panBhRufQKHeij7LzZrBYRDXQFcnGD/+
1ZzBkrH0QD7TA79/C7zBBLhbQCzNpr/42rbBJTrIQMM27b+kBJ3BEKUCQQCxBkGcNarBsjTPQDcB
AkEyea7BS7XmQBHJ4kAnU6TBjWmOQB2fdkBrUIXBOO7AQI7yP0DJ1oXB+O68QMJnlkAoWYrB4Qq/
QIrqAUHIjdDBFP2TQG3H5EASC8vB1ta2QB0xAUH6VcLBnooNQZiNxkCdrrHBUcoBQfbG50Co1LvB
WidDQKO9NUBmLajBWz7eP5f5Y0DtxpfB/eYoQGWTdkDHLozB8lrcQBqDiEDczrDBN87lQEu2pEC6
M7nBAsuTQC0pgEBEnrfBJtiyQOoPbUAtvK/BTDidQJkonEA1J8DBem/GQJzurkDP2cDBMPTAQORJ
QkCIaZzBHTtyQCZnUUClMJnBQfywQHPObL+DvrvB36PkQG5Hpr/EeazBKI+VQDf43L8616nBdpbU
QNx1hT+2v7LBS0aFQC+aHj80H7DBmdC4QGiEbT6Nx6DBhrraQILm2L6zX7bBaU2LQHlmWb+ou7PB
vwy/QOGcnb9yZaTB1k6oQIKOLEBeu6bBxb+uQIuklj+uhqrBGpxfQAwAekB48M7Bn4urQAL+bUAe
s4nBD83KQDNQ90CeOMbBlhd1QJ5wpUDrbMjBhBGiQB7BUEAopJTB8M12QGoLO0CTS6PBHVQmQCjL
ZEBb6pPBZKXnQMacPkBCzZrB4bHQQLDPykAk+8jBs/D0QI9cgEB5FqvBFKsCQaqoskA2zLnB0s1o
QFG3Y0CXF7fB88ypQGBXl77nu8LBIFC1QLLV+79GVr7BoknpQKXcFcDrB6/BHf8AQRrHbr86mqjB
F851QBUO1b9wHaTBK8yZQCtSMcDeZKzB5kfyQLGHsj9A9K7By43NQAfr1D80zLnBuR58QMOGnj9k
K7fBMdJUQInOKz9Sc6rBfAieQIDqjT6RFJvBk0LWQBM4FD9C1pzBL1/1QE5h+L6OGrzBWq9bQKzn
mr9tlrfBGUPGQERq7r83a53BjY4tQCmFhEDK1dTBJ7CMQF6aY0A7HtPBT5FIQNOSR0AbhMnBo4ON
QOtidEDkLYXBYWXAQIUVP0C6toXBHtK7QAUulkBXB4rBAp3TQLO/BUH4Fc3B1xOpQPP0/EB6IcTB
PTjfQDxg/0CdV7/BWgo7QCKLsED7SsTBrOyFQOiOvkAa5c3BegJEQPOONEARGKjBeU3dP0shYkCt
2JfBvGknQGJndUDWMIzB/2OTQBp8gECdJbjBLJGbQMDtoECnsr/BFxneQNB2gUAwy7LBACO0QA/D
Y0DlLrHBSbbmQAYdoUCigLrBNjHFQJqWskADusDBns7CQLPBRUC+lZ3B+EV2QLOZUkDFP5rBaKiy
QEvmqb8uA7jBotzaQLMSyb/hvqbB30WKQFuv3L+st6bBTcnWQMx9Mj/B9q/BESWGQMQZBj9HAbDB
86quQDwFjD6Kn57BpSDaQAAUV7+XrrHBASuJQBkogb/jubHBc6+xQIFtoL+JV6DB6JapQCMaKUBC
hafBaoetQGxfiD/Di6nBpOgMQWRx2EC/3bPBOyutQPugZECgl4rBeAWsQP4u6kAOw8zBFgMKQe40
skB+abvBE1KkQA/sXEAKFJbBepd6QAcVPUDdU6TB3dMpQH/zXEDoyJTBJUjpQL93PkD42JvBWiLP
QCLG00C0vsfB0qRnQM4eZUD2prfB6fiBQGxxrEBcvcTBvgH4QAq2aUDkBa7BQKmxQLeHUb9qz7/B
AgO1QD97GsAiQrnB0OTcQB76KcD+GajBken2QL5rnr9fJaLBhQtaQGiZvb9ZOaLBwB2MQHDzM8A4
86fB4QPzQLJ9hT81fqvBbsXVQBoQmT/RzbfB4R+FQGTBgj892bfBrlVRQHlAQD9IjavBnUeRQH8L
/j57HprBZafKQL/JGj9a/ZnBJXz3QBRiib8qKrbBN3laQDFzrb9+T7bBg7myQKPl4b8yjpjB/lgd
QQi25EAHjrTB9IYBQTPV8UCJDLbBwewJQdM5zkAJlKvBEsqPQPjDd0B0YIbBKEW4QAWiJkAEe4fB
IRjGQIGhikBSTonB8ay4QPepAUGtC9LB3eaYQBB700AZftHBxb2XQLvM+EAJkcbB3mgVQezZmECn
ObnBEQMNQUx1vEAnssPBJzlIQLV8OkCiQKnB6FjkP2fbU0BekZjBuE0qQDKEbUDBDo3B

>  <OMEGA_E>  (54) 
nCw9P5AgPT8GmTU/

>  <OMEGA_NBR>  (54) 
     41121

$$$$
50157520
     RDKit          3D

 52 55  0  0  1  0  0  0  0  0999 V2000
    4.9918   -4.1783  -18.4367 C   0  0  0  0  0  0  0  0  0  0  0  0
    5.4873   -3.2684  -19.3815 C   0  0  0  0  0  0  0  0  0  0  0  0
    4.5747    4.0059  -22.9485 C   0  0  0  0  0  0  0  0  0  0  0  0
    6.1398    0.8231  -22.4999 C   0  0  0  0  0  0  0  0  0  0  0  0
    4.8524    4.9273  -23.9723 C   0  0  0  0  0  0  0  0  0  0  0  0
    6.3427   -0.5380  -22.7949 C   0  0  0  0  0  0  0  0  0  0  0  0
    5.0353    0.1895  -20.4251 C   0  0  0  0  0  0  0  0  0  0  0  0
    6.8728    4.1835  -22.1642 C   0  0  0  0  0  0  0  0  0  0  0  0
    3.7090   -3.9767  -17.8914 C   0  0  0  0  0  0  0  0  0  0  0  0
    4.6842   -2.1754  -19.7637 C   0  0  0  0  0  0  0  0  0  0  0  0
    5.2011   -1.1714  -20.7247 C   0  0  0  0  0  0  0  0  0  0  0  0
    5.4721    1.1943  -21.3084 C   0  0  0  0  0  0  0  0  0  0  0  0
    5.5717    3.6551  -22.0077 C   0  0  0  0  0  0  0  0  0  0  0  0
    7.1562    5.1082  -23.1837 C   0  0  0  0  0  0  0  0  0  0  0  0
    6.1435    5.5062  -24.0861 C   0  0  0  0  0  0  0  0  0  0  0  0
    5.8764   -1.5369  -21.9165 C   0  0  0  0  0  0  0  0  0  0  0  0
    3.3984   -2.0310  -19.1667 C   0  0  0  0  0  0  0  0  0  0  0  0
    6.0369    2.9195  -19.6088 C   0  0  0  0  0  0  0  0  0  0  0  0
    3.8064    3.2686  -19.2332 C   0  0  0  0  0  0  0  0  0  0  0  0
    5.2593    2.6472  -20.8934 C   0  0  2  0  0  0  0  0  0  0  0  0
    8.5519    5.6964  -23.2849 C   0  0  0  0  0  0  0  0  0  0  0  0
    5.3900    3.7017  -17.3056 C   0  0  0  0  0  0  0  0  0  0  0  0
    5.3848    7.0660  -25.7761 C   0  0  0  0  0  0  0  0  0  0  0  0
    2.9421   -2.9233  -18.2565 N   0  0  0  0  0  0  0  0  0  0  0  0
    5.0796    3.2079  -18.6522 N   0  0  0  0  0  0  0  0  0  0  0  0
    3.8573    2.8233  -20.4659 N   0  0  0  0  0  0  0  0  0  0  0  0
    2.6463    3.6930  -18.6032 N   0  0  0  0  0  0  0  0  0  0  0  0
    7.2331    2.7435  -19.4017 O   0  0  0  0  0  0  0  0  0  0  0  0
    6.4741    6.4420  -25.0597 O   0  0  0  0  0  0  0  0  0  0  0  0
    6.0629   -2.8360  -22.2466 F   0  0  0  0  0  0  0  0  0  0  0  0
    2.5774   -1.0103  -19.5170 F   0  0  0  0  0  0  0  0  0  0  0  0
    5.5879   -5.0252  -18.1303 H   0  0  0  0  0  0  0  0  0  0  0  0
    6.4695   -3.4032  -19.8097 H   0  0  0  0  0  0  0  0  0  0  0  0
    3.5926    3.5620  -22.8791 H   0  0  0  0  0  0  0  0  0  0  0  0
    6.4930    1.5828  -23.1814 H   0  0  0  0  0  0  0  0  0  0  0  0
    4.0792    5.1966  -24.6766 H   0  0  0  0  0  0  0  0  0  0  0  0
    6.8593   -0.8191  -23.7007 H   0  0  0  0  0  0  0  0  0  0  0  0
    4.5621    0.4720  -19.4963 H   0  0  0  0  0  0  0  0  0  0  0  0
    7.6591    3.8728  -21.4922 H   0  0  0  0  0  0  0  0  0  0  0  0
    3.3285   -4.6793  -17.1648 H   0  0  0  0  0  0  0  0  0  0  0  0
    9.1681    5.0683  -23.9450 H   0  0  0  0  0  0  0  0  0  0  0  0
    8.4917    6.7139  -23.6985 H   0  0  0  0  0  0  0  0  0  0  0  0
    9.0074    5.7337  -22.2843 H   0  0  0  0  0  0  0  0  0  0  0  0
    4.4555    3.8510  -16.7449 H   0  0  0  0  0  0  0  0  0  0  0  0
    6.0185    2.9666  -16.7815 H   0  0  0  0  0  0  0  0  0  0  0  0
    5.9290    4.6576  -17.3809 H   0  0  0  0  0  0  0  0  0  0  0  0
    5.7887    7.7790  -26.5100 H   0  0  0  0  0  0  0  0  0  0  0  0
    4.7999    6.2945  -26.2982 H   0  0  0  0  0  0  0  0  0  0  0  0
    4.7365    7.5994  -25.0653 H   0  0  0  0  0  0  0  0  0  0  0  0
    3.0587    2.6303  -21.0359 H   0  0  0  0  0  0  0  0  0  0  0  0
    1.7747    3.6710  -19.0929 H   0  0  0  0  0  0  0  0  0  0  0  0
    2.6814    4.0212  -17.6592 H   0  0  0  0  0  0  0  0  0  0  0  0
  1  2  2  0
  1  9  1  0
  2 10  1  0
  3  5  2  0
  3 13  1  0
  4  6  2  0
  4 12  1  0
  5 15  1  0
  6 16  1  0
  7 11  1  0
  7 12  2  0
  8 13  2  0
  8 14  1  0
  9 24  2  0
 10 11  1  0
 10 17  2  0
 11 16  2  0
 20 12  1  6
 13 20  1  0
 14 15  2  0
 14 21  1  0
 15 29  1  0
 16 30  1  0
 17 24  1  0
 17 31  1  0
 18 20  1  0
 18 25  1  0
 18 28  2  0
 19 25  1  0
 19 26  2  0
 19 27  1  0
 20 26  1  0
 22 25  1  0
 23 29  1  0
  1 32  1  0
  2 33  1  0
  3 34  1  0
  4 35  1  0
  5 36  1  0
  6 37  1  0
  7 38  1  0
  8 39  1  0
  9 40  1  0
 21 41  1  0
 21 42  1  0
 21 43  1  0
 22 44  1  0
 22 45  1  0
 22 46  1  0
 23 47  1  0
 23 48  1  0
 23 49  1  0
 26 50  1  0
 27 51  1  0
 27 52  1  0
M  CHG  1  26   1
M  END
>  <OMEGA_C>  (55) 
Hr2fQMW0hcBkfpPBzZevQBouUcA/DZvB3WOSQH4wgEB/lrfBannEQHGzUj/h/7PBvkabQJusnUBA
x7/BJffKQJW4Cb/1W7bBCCGhQL4QQj6VZqPBQe7bQAffhUBYULHBumBtQK6CfsCGIY/BleSVQNU5
C8AnHJ7Bom+mQAvxlb86zKXBDBuvQEvemD+cd6rBDkuyQELtaUCsD7DB1f/kQB52o0AzeLnBipfE
QK0ysEBYsMDBKwu8QKe6xL/8VK/BHYBZQDT8AcBtVZnBii7BQEjYOkDO3pzBgptzQIwwUUCO3ZnB
MEyoQIJrKUDDJafBe9QIQf5ItkB/R7rBl3qsQGbobEDrcYrBh1CsQLQc4kBzNc7BGkw8QLwWO8BK
DZLBFYyiQFFOTUC4N5XBeN12QHGxNEAUuqPBvV0pQMVabEBb05TBfnXnQKqVL0CmNpvBpSvPQCol
zkA9esjBWwPCQGSBNcAK+bHBh/MkQPBRgb/KIpzB5s+yQILOoMDMCpHBcgbPQJLOWcBRep7BI+1l
QHn3Y0BoCLfBkcbPQLOZyj+Sc7nBqoiCQNhKpkCjacXBQ3/bQBCuUb8Qm73Br/yRQFKo8T5c+JvB
gRf1QHbcd0D776vBAgZVQDG9lcB9UYnBh7ASQYQvokBoj7/B4N0HQWbY1kCIlr3BQR4QQT56t0BZ
RrLBZJOOQEt3dkB59YXBRpfAQGvdPUCJQIbBXLq9QAgLlUAvDIvB/jy5QDjt+EBzFNTBbZiZQEps
yUCeYtLBipGXQBku80DIhcjBFsFDQONWKECPSajBlSnjPw7yakAqvpjBBZwrQGGtgEAURo3BI/+f
QP03hsAn9JPBL2yuQGkHUsCpqpvBwG/dQPlYiEDsC7HBQNnBQLhnVD/qRbTBierkQL23pUCsZbnB
o8/FQOjjB7+S/LbBrLCgQGOiQj6iZKPBQWeUQJrnfkDURrfBUoxvQCywf8DjII/BVEKUQIXbC8AW
Yp7BiN2jQL3Qlb9MG6bB6zmvQGClmT+HYqrBBm20QHl7a0BSwK/BF12bQI+DnEAHpr/B4SfEQB/o
sEC5r8DB9ia3QJQVxL8L86/BzvdXQPHhAsA0LZnBxLDBQLhCO0CGg5zB4rdzQHWCT0Cy0ZnBUeyp
QFkxKkDI6qbBRKlsQLP+okC/V8fBwQWrQBnIbEBwNIrBwziwQOoE60BC1MzBz1U9QOBPPMDuxJHB
STmiQBz5S0Cj+JTBLmd5QLODNUAPv6PBA9UnQHiEaECd+5TBDTboQFoINUDA1JrBNNDPQJ4KzUBa
2cjBKCa7QLkdNcDF2rLBQ9MiQGBngr8DpZvBCIazQIZRocBnvJHBlSXNQH2wWsDHeJ/BfgX3QP0C
gED3n6vBLgPNQO+Vyz/Du7nBrx0CQQzws0DPPrrBITLUQNdAT7/6hL7BHdWSQFuU7z7wy5vBCCNr
QJ8tYEC3lrbBemdZQG5ZlsAyL4nBkVNEQHCJvUAehMTBGd6CQAyZqkDOV8/BDUJGQKOJhUAZv8fB
p7yMQD98dEAW04XBY7e/QJdjP0Dv54XBiDq7QL+LlUARzorBv3u+QM+z/kC0MdPBkrCUQF1K2UCh
DtDBL3+lQIjS/0CaQcbBZVBHQCPCKkCKiqjBZzLiP+5OZ0BXIJnBj9snQFzBe0BUWo3BwvZDQMQP
QsBf7JHBoYFeQG7EBMBoaJnBwMqRQJpFgUD+VLfBV5/BQD5ZVz+OMbTBqESbQO5mnkCOkr/BrQbH
QLYWA79H6rbBKZCgQAznLj4vXqPBMJvbQHcnhUCJLrHBSwx7QNQ2g8B1YI/B+MuXQNWIDcDZPZ7B
sWumQE3Al79U96XBsrStQPrDmD/0aqrBKpuxQLdcakBu3K/BXzDlQLyRokDBV7nByxPFQKKvr0B+
mMDBsCe5QKxew7827K/BsTGyQCNfU8AaK5vBvFXAQJF2OkCLu5zBH5ByQJopVEDRx5nBV0GnQONk
KUDc/KbB5jIJQQLts0DCTbrBs0usQBwDcUAjd4rBty6uQFRf4kAdFc7BvaOkQPoBh8BS8JPBxvah
QAhUT0BHHpXB/v50QCkJNUAJhqPBYEYpQOQHc0DX25TB5ZLmQKeaLkAcF5vBkXjQQLaezEBWjcjB
KcK8QEpENMCuDrPBO6TaQLlhWsAe9Z7BZfwFQLHrPMAeJ47BmnU1QC4wn7+ncZvByfNjQA4IaEDV
srbBHK3MQDiAzj/ekLnB8pWCQKiup0BGKMXBwOvVQCJ4Rr/7a77BocGRQBIo3j6i2ZvB26n0QMA3
dUDi2KvBBWpmQHL0msD3ponBBKASQZ4Gn0CXlr/BgLAIQdFq1EDmrb3B46kQQUDstECgVrLB7YmO
QIRKfEAg+4XBITHAQBJlQkDVIobBn+m9QKrMlkBcS4vBNLa7QMYg+EACHtTBFoqZQJ2pykCOCtLB
Si6bQB/i9EBYTMjBeZVBQK8xJ0B29qfBSu3iP6x1ckD8xZjBljosQLzuhED3ZI3B

>  <OMEGA_E>  (55) 
YHcWPUCKqz2kXYI+

>  <OMEGA_NBR>  (55) 
     44037

$$$$
50168766
     RDKit          3D

 43 45  0  0  1  0  0  0  0  0999 V2000
    5.9270   -1.5823  -21.8668 C   0  0  0  0  0  0  0  0  0  0  0  0
    6.4200   -0.5816  -22.7274 C   0  0  0  0  0  0  0  0  0  0  0  0
    5.2016   -1.2253  -20.7155 C   0  0  0  0  0  0  0  0  0  0  0  0
    6.1932    0.7793  -22.4402 C   0  0  0  0  0  0  0  0  0  0  0  0
    4.9687    0.1320  -20.4276 C   0  0  0  0  0  0  0  0  0  0  0  0
    4.5775    3.9942  -22.9575 C   0  0  0  0  0  0  0  0  0  0  0  0
    4.8452    4.9421  -23.9611 C   0  0  0  0  0  0  0  0  0  0  0  0
    6.8578    4.2217  -22.1388 C   0  0  0  0  0  0  0  0  0  0  0  0
    5.4542    1.1509  -21.2901 C   0  0  0  0  0  0  0  0  0  0  0  0
    5.5711    3.6423  -22.0136 C   0  0  0  0  0  0  0  0  0  0  0  0
    7.1285    5.1793  -23.1337 C   0  0  0  0  0  0  0  0  0  0  0  0
    6.1248    5.5475  -24.0567 C   0  0  0  0  0  0  0  0  0  0  0  0
    6.0371    2.9070  -19.6208 C   0  0  0  0  0  0  0  0  0  0  0  0
    3.8132    3.2761  -19.2396 C   0  0  0  0  0  0  0  0  0  0  0  0
    5.2533    2.6222  -20.8967 C   0  0  2  0  0  0  0  0  0  0  0  0
    8.5167    5.7897  -23.2248 C   0  0  0  0  0  0  0  0  0  0  0  0
    5.4115    3.7398  -17.3318 C   0  0  0  0  0  0  0  0  0  0  0  0
    5.3969    7.1781  -25.6877 C   0  0  0  0  0  0  0  0  0  0  0  0
    5.0885    3.2172  -18.6645 N   0  0  0  0  0  0  0  0  0  0  0  0
    3.8557    2.8172  -20.4676 N   0  0  0  0  0  0  0  0  0  0  0  0
    2.6592    3.7101  -18.6056 N   0  0  0  0  0  0  0  0  0  0  0  0
    7.2371    2.7491  -19.4224 O   0  0  0  0  0  0  0  0  0  0  0  0
    6.4674    6.4357  -25.0677 O   0  0  0  0  0  0  0  0  0  0  0  0
    4.9902    8.1759  -24.8588 F   0  0  0  0  0  0  0  0  0  0  0  0
    5.8657    7.7185  -26.8382 F   0  0  0  0  0  0  0  0  0  0  0  0
    6.1061   -2.6235  -22.0910 H   0  0  0  0  0  0  0  0  0  0  0  0
    6.9746   -0.8589  -23.6116 H   0  0  0  0  0  0  0  0  0  0  0  0
    4.8243   -1.9913  -20.0543 H   0  0  0  0  0  0  0  0  0  0  0  0
    6.5839    1.5410  -23.0987 H   0  0  0  0  0  0  0  0  0  0  0  0
    4.4146    0.4023  -19.5409 H   0  0  0  0  0  0  0  0  0  0  0  0
    3.6037    3.5302  -22.9066 H   0  0  0  0  0  0  0  0  0  0  0  0
    4.0710    5.2112  -24.6643 H   0  0  0  0  0  0  0  0  0  0  0  0
    7.6433    3.9239  -21.4600 H   0  0  0  0  0  0  0  0  0  0  0  0
    9.1454    5.1751  -23.8859 H   0  0  0  0  0  0  0  0  0  0  0  0
    8.4430    6.8088  -23.6323 H   0  0  0  0  0  0  0  0  0  0  0  0
    8.9669    5.8275  -22.2219 H   0  0  0  0  0  0  0  0  0  0  0  0
    4.4822    3.9031  -16.7663 H   0  0  0  0  0  0  0  0  0  0  0  0
    6.0434    3.0154  -16.7972 H   0  0  0  0  0  0  0  0  0  0  0  0
    5.9514    4.6929  -17.4328 H   0  0  0  0  0  0  0  0  0  0  0  0
    4.5616    6.4944  -25.8993 H   0  0  0  0  0  0  0  0  0  0  0  0
    3.0535    2.6264  -21.0333 H   0  0  0  0  0  0  0  0  0  0  0  0
    1.7839    3.6849  -19.0884 H   0  0  0  0  0  0  0  0  0  0  0  0
    2.7022    4.0482  -17.6655 H   0  0  0  0  0  0  0  0  0  0  0  0
  1  2  2  0
  1  3  1  0
  2  4  1  0
  3  5  2  0
  4  9  2  0
  5  9  1  0
  6  7  2  0
  6 10  1  0
  7 12  1  0
  8 10  2  0
  8 11  1  0
 15  9  1  6
 10 15  1  0
 11 12  2  0
 11 16  1  0
 12 23  1  0
 13 15  1  0
 13 19  1  0
 13 22  2  0
 14 19  1  0
 14 20  2  0
 14 21  1  0
 15 20  1  0
 17 19  1  0
 18 23  1  0
 18 24  1  0
 18 25  1  0
  1 26  1  0
  2 27  1  0
  3 28  1  0
  4 29  1  0
  5 30  1  0
  6 31  1  0
  7 32  1  0
  8 33  1  0
 16 34  1  0
 16 35  1  0
 16 36  1  0
 17 37  1  0
 17 38  1  0
 17 39  1  0
 18 40  1  0
 20 41  1  0
 21 42  1  0
 21 43  1  0
M  CHG  1  20   1
M  END
>  <OMEGA_C>  (56) 
Tqq9QDWJyr88767BxHDNQB7jFL+d0bXBZnOmQIzVnL9tuaXBAy/GQO5+Rz+GhbPB+f+eQK4mBz7I
a6PBPHuSQKChf0DoqLfB9wubQJAlnkBHsL/BV3PbQE8Yh0AvHLHBIImuQKtQkz8ZUqrBv0ayQNIa
aUDGG7DBdhzkQL+8pUDnEbnBtf7DQHGFsUAvdMDBMzDBQJcLOkBO95zBDwx0QCSsUUCd6pnBYxuo
QJrSJ0BsLKfBQEQIQSRFuUBszLnBCCutQIJZb0COp4rBSrOsQCCz5UB6gM3BKNWiQJTmTUDVUJXB
lcR2QElNNECwvaPB+DAqQJFxbUA/2JTBu5bnQPrwL0AIYZvBI/XOQAfxzUCaisjBg6+fQFjQAkHP
3sbBBrS7QBv+9kCetNbB1mTDQK/nJ8BPurDBuy/fQBffW7+m5LzBpmCaQAXj/r8zb6DBC6/SQDI/
xT8byrjBtUSNQBT0zT66U5zBTKJmQGXuYUC7QLfBpUWCQG3CpkCIUMXBvpX0QNgge0ADrqvBY1MS
QamapUBcFr/BXxYHQUvh2UAMD73Bm3gPQS17ukB6xrHBf26PQD7MeUBdIYbB22PBQJT7QEC6YIbB
fHG+QGEslkBpdovBPviRQA7Sz0CqMc/BxmxDQC8XKEA9RKjB9FXkP0HVa0AItZjBwPAsQA6LgUDp
Uo3Bn8O7QFTlxL90TK/Bi33KQAo4Cb9RULbBenOmQGNKl796zaXBrUPEQLpNUz8n1rPB/xagQPwm
ND7nTqPB/CncQGfxiUB73bDBcvrjQJWYp0BcI7nBy/iTQKbNfkAmmbfBfOauQGUqmT9FSarBjYCz
QKJPbEA646/BiribQMwsnEDIA8DBZ+rDQFmdsUBqtMDBRnzBQGwJPUBUypzB4jV0QH4HVEAw5ZnB
nxCpQPPLKkBxBqfBCiFxQMxtoUCuRMjB1iesQNiSbEBLVYrB4PuzQPM98UBnmcvBDnejQLZqXUD/
tJXBHGJ4QBVnN0Beu6PBzDgoQNw+ZUCkk5TBnC/nQIorLUAC7JrB9XHPQIyyzEBfFMnBQ82cQPUo
6UCildTBoXCZQKHQ/EA6csPBjdXAQKoWJcC7NbHB3KHaQOTuT794oL3Bc/6aQGB7+b8KcKDBFs/P
QHg+yz+BO7nBNcKPQCXC4z4DAZzB20L1QK9BgkCgPqvBRnMBQZjdtkAls7nBzDhqQNcGYEA+B7fB
pGRGQJytu0AT2sXBct+GQHTeqEAiF9DBWjpMQDGLg0Ct2sjBfEqPQEIrg0D4dYbBCDS1QMPuL0BD
eobBx4DGQAJojUB4h4nB3VvJQGsxBkFlSM3BeJtFQKywK0BiYKjBqWbgP+TfW0BlQ5jBGnYpQDMH
e0BSDo3B

>  <OMEGA_E>  (56) 
6NflPkic+D4=

>  <OMEGA_NBR>  (56) 
     47027

$$$$
50168771
     RDKit          3D

 52 55  0  0  1  0  0  0  0  0999 V2000
    4.8110   -1.7891  -20.3084 C   0  0  0  0  0  0  0  0  0  0  0  0
    4.2147   -2.6026  -19.6366 C   0  0  0  0  0  0  0  0  0  0  0  0
    6.9911    4.8537  -22.1394 C   0  0  0  0  0  0  0  0  0  0  0  0
    6.7485    1.3488  -22.3970 C   0  0  0  0  0  0  0  0  0  0  0  0
    7.2147    5.6465  -23.2786 C   0  0  0  0  0  0  0  0  0  0  0  0
    7.0001    0.0149  -22.7680 C   0  0  0  0  0  0  0  0  0  0  0  0
    5.2006    0.5758  -20.6807 C   0  0  0  0  0  0  0  0  0  0  0  0
    4.8931    4.0909  -23.1003 C   0  0  0  0  0  0  0  0  0  0  0  0
    5.4625   -0.7550  -21.0419 C   0  0  0  0  0  0  0  0  0  0  0  0
    5.8232    1.6435  -21.3625 C   0  0  0  0  0  0  0  0  0  0  0  0
    5.8146    4.0757  -22.0385 C   0  0  0  0  0  0  0  0  0  0  0  0
    5.1136    4.8600  -24.2523 C   0  0  0  0  0  0  0  0  0  0  0  0
    6.2844    5.6778  -24.3398 C   0  0  0  0  0  0  0  0  0  0  0  0
    6.3576   -1.0412  -22.0944 C   0  0  0  0  0  0  0  0  0  0  0  0
    6.3431    3.3611  -19.6302 C   0  0  0  0  0  0  0  0  0  0  0  0
    4.0943    3.4757  -19.1876 C   0  0  0  0  0  0  0  0  0  0  0  0
    3.0765   -2.9990  -17.3911 C   0  0  0  0  0  0  0  0  0  0  0  0
    4.1542   -4.0792  -17.5429 C   0  0  0  0  0  0  0  0  0  0  0  0
    3.4610   -3.5129  -18.7868 C   0  0  0  0  0  0  0  0  0  0  0  0
    5.5660    3.0841  -20.9027 C   0  0  2  0  0  0  0  0  0  0  0  0
    4.0917    4.7159  -25.3660 C   0  0  0  0  0  0  0  0  0  0  0  0
    5.6787    3.9036  -17.2611 C   0  0  0  0  0  0  0  0  0  0  0  0
    5.5896    7.1933  -26.1007 C   0  0  0  0  0  0  0  0  0  0  0  0
    5.3841    3.4948  -18.6386 N   0  0  0  0  0  0  0  0  0  0  0  0
    4.1628    3.2461  -20.4757 N   0  0  0  0  0  0  0  0  0  0  0  0
    2.9065    3.6369  -18.4900 N   0  0  0  0  0  0  0  0  0  0  0  0
    7.5550    3.2749  -19.4643 O   0  0  0  0  0  0  0  0  0  0  0  0
    6.6383    6.4487  -25.4416 O   0  0  0  0  0  0  0  0  0  0  0  0
    6.6187   -2.3199  -22.4543 F   0  0  0  0  0  0  0  0  0  0  0  0
    5.9910    8.4740  -26.2829 F   0  0  0  0  0  0  0  0  0  0  0  0
    5.3468    6.6452  -27.3212 F   0  0  0  0  0  0  0  0  0  0  0  0
    7.7182    4.8388  -21.3409 H   0  0  0  0  0  0  0  0  0  0  0  0
    7.2626    2.1529  -22.9025 H   0  0  0  0  0  0  0  0  0  0  0  0
    8.1135    6.2418  -23.3429 H   0  0  0  0  0  0  0  0  0  0  0  0
    7.6883   -0.1994  -23.5723 H   0  0  0  0  0  0  0  0  0  0  0  0
    4.5155    0.7852  -19.8724 H   0  0  0  0  0  0  0  0  0  0  0  0
    3.9944    3.4965  -23.0272 H   0  0  0  0  0  0  0  0  0  0  0  0
    2.0972   -3.2554  -16.9608 H   0  0  0  0  0  0  0  0  0  0  0  0
    3.3573   -1.9811  -17.0829 H   0  0  0  0  0  0  0  0  0  0  0  0
    5.2081   -3.8361  -17.3424 H   0  0  0  0  0  0  0  0  0  0  0  0
    3.9480   -5.1104  -17.2203 H   0  0  0  0  0  0  0  0  0  0  0  0
    2.7295   -4.1742  -19.2743 H   0  0  0  0  0  0  0  0  0  0  0  0
    3.2987    5.4671  -25.2361 H   0  0  0  0  0  0  0  0  0  0  0  0
    4.5847    4.8675  -26.3376 H   0  0  0  0  0  0  0  0  0  0  0  0
    3.6515    3.7085  -25.3314 H   0  0  0  0  0  0  0  0  0  0  0  0
    4.7459    3.9314  -16.6788 H   0  0  0  0  0  0  0  0  0  0  0  0
    6.3738    3.1829  -16.8056 H   0  0  0  0  0  0  0  0  0  0  0  0
    6.1379    4.9032  -17.2657 H   0  0  0  0  0  0  0  0  0  0  0  0
    4.6818    7.1608  -25.4803 H   0  0  0  0  0  0  0  0  0  0  0  0
    3.3725    3.1885  -21.0858 H   0  0  0  0  0  0  0  0  0  0  0  0
    2.0320    3.5798  -18.9717 H   0  0  0  0  0  0  0  0  0  0  0  0
    2.9245    3.8101  -17.5053 H   0  0  0  0  0  0  0  0  0  0  0  0
  1  2  3  0
  1  9  1  0
  2 19  1  0
  3  5  2  0
  3 11  1  0
  4  6  2  0
  4 10  1  0
  5 13  1  0
  6 14  1  0
  7  9  1  0
  7 10  2  0
  8 11  2  0
  8 12  1  0
  9 14  2  0
 20 10  1  6
 11 20  1  0
 12 13  2  0
 12 21  1  0
 13 28  1  0
 14 29  1  0
 15 20  1  0
 15 24  1  0
 15 27  2  0
 16 24  1  0
 16 25  2  0
 16 26  1  0
 17 18  1  0
 17 19  1  0
 18 19  1  0
 20 25  1  0
 22 24  1  0
 23 28  1  0
 23 30  1  0
 23 31  1  0
  3 32  1  0
  4 33  1  0
  5 34  1  0
  6 35  1  0
  7 36  1  0
  8 37  1  0
 17 38  1  0
 17 39  1  0
 18 40  1  0
 18 41  1  0
 19 42  1  0
 21 43  1  0
 21 44  1  0
 21 45  1  0
 22 46  1  0
 22 47  1  0
 22 48  1  0
 23 49  1  0
 25 50  1  0
 26 51  1  0
 26 52  1  0
M  CHG  1  25   1
M  END
>  <OMEGA_C>  (57) 
mvOZQBIA5b+od6LBeN6GQE+QJsC4F53BXrffQINRm0BmHbHBYvPXQBOnrD/6LLPB7d7mQGewtECC
OrrBigDgQDDtczziJLbBqmumQE9pEz/+caXBYJScQAXpgkB2zbjBacyuQGVGQb+8VajBCVi6QLhe
0j9l5qrBJBG6QHdsgkDSTrDBxKKjQHCFm0CeBMLBehnJQFywtUDct8LB03HLQOJFhb88wbDBCPvK
QOgcV0CtCp3B3ASDQDpxXkA+gJnBHuZEQIbvP8ACIYvBD++EQOWIgsDcV4zBLoFdQMTTYMBVS5bB
thyyQCViRUDTOKfBj++CQPfolkCD7crBALi1QMfUeUC4ForB8d2yQHov5kBPztDBQ0qsQL+qX0Dp
G5XBmjWFQGq/T0A7zqPBAwQ6QCvCaECL65PBkcLxQKyXUUDrtpvBL23UQCNczkB9iMvBfMzTQBR5
FMBXorPBB7a/QI2VB0FqQ9LB5hirQF2l1EDBkdrBvPv2QEzXmkAxuqrBJWfoQLLICUBoOLfBDtEB
QQK9x0BUvrrBlgb2QAonTL7+k7zBRX+QQKL/SD/E+p7BsKR/QOrFX0C4N7jBazgGQLFXUMDFr4fB
id5WQI6T/b/XqYjBu6imQHWDdcBRvYrBV6t8QLCIo8BAw4nBU7AuQNmShcC9MZrBVB5TQJryrkCa
48nBwLWSQNXCm0Bes9LBYrJpQH5XbUCypsrBK96XQA+ce0A8boXBAPbLQPi0S0DZcYbBT2nEQPnm
nEARIIrBdNGVQJgl5UC918vBptdXQKYPTECkr6jB1wwCQGEbZUAfxpfBIis7QBnZc0DcCozBfcCc
QHlT6L9qT6PByrmIQMxcKMAeL57BsuOZQCpAhEBNArnBc9zaQPdBsz+t67LBGVyiQCcXnkCc+sHB
zqXlQFRnpz0+vrXBqBCnQMalDj9MAqbBI7PdQIYtmkD1DbHBIgqyQMYmQr9nxqjB48S6QBsm0z/p
I6vBvpG3QG4tgkC4dbDBwV/mQDyhs0DTAbrBVgzJQA2NtUDWjMLBz1PRQF1hgL81rrDBP2XKQJFf
V0AJVZ3BfhKDQBRaZECZo5nBfpU6QI6CO8A9KY3B4P6BQESGfMA0uozB+7peQJSJYcDFjZfB7aWw
QFhyRED3ZqfB0xEIQVENzEAGi7rBxd+2QHNEfEDbZIrB7ZuyQIWY5kDxA9DBOb2sQBddcUCDyJXB
jSyEQDIrTUDsuKPBAFw7QNlzbUD5x5PBUZDwQE2LSUD3y5vBHTrUQMVvzUB3ZcvB+GTcQHUYEcCJ
YbPBK2TDQH5uBkE/9NLBUemiQHRP0kBhxtjBJEN5QOnUY0DKo7jBbRnrQLOjDkBysrbBZWSLQKMG
oEC0asjBtpL9QIHFyr3WzrvBv0+PQO3gOz/75J/Bb2b0QMnomEAkjKrBYoz0P4vLTcC8Z4rB8YxG
QE7+779TKovBd0+iQNylZ8BCaYrBLVh4QCC5nsCsponBOTQ2QAaEiMCtnpvB+GMUQb3kt0ABTL7B
P9UFQfVI6UDYUL/BJioNQfG91ECkZ7LBDw6aQBSgiEBEE4bB+ALCQIj/PkCOEofBOinQQMlblkAt
gInByyiZQDY460AADMrBCrlUQGXdQkCXRajBTrsCQK8dYkCbOpfBjwo+QJVaf0CYG4zB

>  <OMEGA_E>  (57) 
AO5uPYA3cz0=

>  <OMEGA_NBR>  (57) 
     96819

$$$$
50168796
     RDKit          3D

 52 55  0  0  1  0  0  0  0  0999 V2000
    4.4234   -2.0512  -20.0217 C   0  0  0  0  0  0  0  0  0  0  0  0
    3.9543   -2.9254  -19.3360 C   0  0  0  0  0  0  0  0  0  0  0  0
    6.4502   -0.5024  -22.7215 C   0  0  0  0  0  0  0  0  0  0  0  0
    5.8552   -1.4842  -21.9118 C   0  0  0  0  0  0  0  0  0  0  0  0
    6.2572    0.8615  -22.4259 C   0  0  0  0  0  0  0  0  0  0  0  0
    4.5937    3.9844  -22.9720 C   0  0  0  0  0  0  0  0  0  0  0  0
    4.8740    4.8877  -24.0059 C   0  0  0  0  0  0  0  0  0  0  0  0
    4.9079    0.2497  -20.4907 C   0  0  0  0  0  0  0  0  0  0  0  0
    6.8831    4.1955  -22.1670 C   0  0  0  0  0  0  0  0  0  0  0  0
    5.0693   -1.0909  -20.8148 C   0  0  0  0  0  0  0  0  0  0  0  0
    5.4705    1.2432  -21.3061 C   0  0  0  0  0  0  0  0  0  0  0  0
    5.5826    3.6699  -22.0124 C   0  0  0  0  0  0  0  0  0  0  0  0
    7.1725    5.0952  -23.2023 C   0  0  0  0  0  0  0  0  0  0  0  0
    6.1614    5.4764  -24.1128 C   0  0  0  0  0  0  0  0  0  0  0  0
    6.0413    2.9481  -19.6022 C   0  0  0  0  0  0  0  0  0  0  0  0
    3.8047    3.2381  -19.2055 C   0  0  0  0  0  0  0  0  0  0  0  0
    3.9612   -3.9633  -17.0273 C   0  0  0  0  0  0  0  0  0  0  0  0
    4.8350   -4.7916  -17.9773 C   0  0  0  0  0  0  0  0  0  0  0  0
    3.6081   -4.0473  -18.5110 C   0  0  0  0  0  0  0  0  0  0  0  0
    5.2652    2.6888  -20.8890 C   0  0  2  0  0  0  0  0  0  0  0  0
    8.5729    5.6693  -23.3122 C   0  0  0  0  0  0  0  0  0  0  0  0
    5.3851    3.6137  -17.2666 C   0  0  0  0  0  0  0  0  0  0  0  0
    5.3981    6.9892  -25.8291 C   0  0  0  0  0  0  0  0  0  0  0  0
    5.0802    3.1669  -18.6305 N   0  0  0  0  0  0  0  0  0  0  0  0
    3.8636    2.8892  -20.4681 N   0  0  0  0  0  0  0  0  0  0  0  0
    2.6369    3.5876  -18.5454 N   0  0  0  0  0  0  0  0  0  0  0  0
    7.2401    2.7850  -19.4002 O   0  0  0  0  0  0  0  0  0  0  0  0
    6.4892    6.3976  -25.0955 O   0  0  0  0  0  0  0  0  0  0  0  0
    4.6761    7.8102  -25.0180 F   0  0  0  0  0  0  0  0  0  0  0  0
    5.9164    7.7141  -26.8481 F   0  0  0  0  0  0  0  0  0  0  0  0
    7.0542   -0.7925  -23.5685 H   0  0  0  0  0  0  0  0  0  0  0  0
    6.0002   -2.5318  -22.1303 H   0  0  0  0  0  0  0  0  0  0  0  0
    6.7079    1.6179  -23.0513 H   0  0  0  0  0  0  0  0  0  0  0  0
    3.6177    3.5264  -22.9080 H   0  0  0  0  0  0  0  0  0  0  0  0
    4.1073    5.1371  -24.7245 H   0  0  0  0  0  0  0  0  0  0  0  0
    4.3484    0.5280  -19.6098 H   0  0  0  0  0  0  0  0  0  0  0  0
    7.6635    3.9016  -21.4807 H   0  0  0  0  0  0  0  0  0  0  0  0
    3.3284   -4.4674  -16.2820 H   0  0  0  0  0  0  0  0  0  0  0  0
    4.3456   -3.0228  -16.6059 H   0  0  0  0  0  0  0  0  0  0  0  0
    5.8458   -4.4452  -18.2385 H   0  0  0  0  0  0  0  0  0  0  0  0
    4.8285   -5.8898  -17.9146 H   0  0  0  0  0  0  0  0  0  0  0  0
    2.7342   -4.6575  -18.7828 H   0  0  0  0  0  0  0  0  0  0  0  0
    9.1854    5.0223  -23.9573 H   0  0  0  0  0  0  0  0  0  0  0  0
    8.5223    6.6783  -23.7473 H   0  0  0  0  0  0  0  0  0  0  0  0
    9.0263    5.7239  -22.3114 H   0  0  0  0  0  0  0  0  0  0  0  0
    4.4506    3.7113  -16.6946 H   0  0  0  0  0  0  0  0  0  0  0  0
    6.0392    2.8770  -16.7772 H   0  0  0  0  0  0  0  0  0  0  0  0
    5.8946    4.5878  -17.3053 H   0  0  0  0  0  0  0  0  0  0  0  0
    4.7562    6.1869  -26.2220 H   0  0  0  0  0  0  0  0  0  0  0  0
    3.0688    2.7745  -21.0641 H   0  0  0  0  0  0  0  0  0  0  0  0
    1.7652    3.5836  -19.0354 H   0  0  0  0  0  0  0  0  0  0  0  0
    2.6661    3.8437  -17.5792 H   0  0  0  0  0  0  0  0  0  0  0  0
  1  2  3  0
  1 10  1  0
  2 19  1  0
  3  4  2  0
  3  5  1  0
  4 10  1  0
  5 11  2  0
  6  7  2  0
  6 12  1  0
  7 14  1  0
  8 10  2  0
  8 11  1  0
  9 12  2  0
  9 13  1  0
 20 11  1  6
 12 20  1  0
 13 14  2  0
 13 21  1  0
 14 28  1  0
 15 20  1  0
 15 24  1  0
 15 27  2  0
 16 24  1  0
 16 25  2  0
 16 26  1  0
 17 18  1  0
 17 19  1  0
 18 19  1  0
 20 25  1  0
 22 24  1  0
 23 28  1  0
 23 29  1  0
 23 30  1  0
  3 31  1  0
  4 32  1  0
  5 33  1  0
  6 34  1  0
  7 35  1  0
  8 36  1  0
  9 37  1  0
 17 38  1  0
 17 39  1  0
 18 40  1  0
 18 41  1  0
 19 42  1  0
 21 43  1  0
 21 44  1  0
 21 45  1  0
 22 46  1  0
 22 47  1  0
 22 48  1  0
 23 49  1  0
 25 50  1  0
 26 51  1  0
 26 52  1  0
M  CHG  1  25   1
M  END
>  <OMEGA_C>  (58) 
0IyNQKdGA8BsLKDB4hJ9QNM5O8AOsJrBR2jOQD2eAL+SxbXBnF27QDL5vb9kS6/BSzvIQNWMXD8r
aLPB2f+SQBkAf0CVxrfB0febQLlnnEAJDMDBHA2dQEi7fz707KPBdELcQKNBhkACVrHB8DeiQHyi
i7+ghKbB7g2vQLEinz/PcqrBBKWyQIffakBLGbDBfIXlQD4Mo0BInrnBkirFQIk+r0D65sDBcFLB
QOatPEBT0ZzBZYBzQNo8T0DepJnBqIN9QGamfcDiN4jBKbiaQLpUmcCV0Y/BJutmQF6DgcCRFpTB
OXyoQHwVLECXHKfBpCoJQQ5rtUBXf7rB1lKsQIZGZ0AGIorB5rysQKin30AHos7B8JCiQPutSkBL
C5XBAEV3QKToOECYvqPBVsIoQAWbZUDzXJTBu67nQBc9MkChM5vBZqfPQHK5zECuw8jBm6KVQA3t
+UDXJMjB7VK9QATa9kDhyNbB/LvhQJThSr9NjLzB4AHAQJEJIsDwCrHBhqfWQIoXzz8FabjBs4hn
QCaxYUCsQ7fBaW+DQO5ipEDNy8XBICaLQBMqBz/b4JzBBTv1QFezeUBi2KvBwwNVQMb0jsCNQYLB
bQ+LQOF0QcDO2ITB8RC7QMg+jsBm6JHBZoOaQB15vMAkUY/BzfwuQJ0KlcAXQ5bBhvcSQW+2oEB+
qL/BXlsIQey01UB0+r3BkWsQQfgpt0DPfbLBPGuOQKaFbUCkjoXByUDBQN4gOECvN4bBjKC8QFLP
kkBOcYrBzDKYQE/7xUCjxtHB8GdEQBuSMUA9g6jBBfHhPwhaZUCLSJjBuqEqQJv+dUAloozB27WQ
QIM6B8AVVqLBCh1/QHmDQMCUd53BtrjMQBafo77HkrfBsnq7QLslr798fLHBenLHQLOrgT+mMLTB
ELfcQNJQi0BYgbDBcvbkQDVupkAZRrnBTjugQA6Adz72f6TBH+iTQPsDgUCI6rbBPdukQEO7ib/o
D6jBu+qwQO0Dpz8amKrBPaizQMiAcUDrNq/BNuWbQPaBm0BTtL/BS7DEQIgkr0Cz48DB7JTBQEp/
PkAaMZzB1mJzQH8nUkCfdJnB2wlGQLXpcsAGm4vBF+GJQO0TlcCZko7Bk0JaQGm3gsBEV5fBkeSp
QFzcLkCYl6bBexpwQO3koED9u8fB7oyqQCkMaED2lonBHeu2QBLM7kAhpMvBh7OiQEmMWkAKCJXB
kUd5QF3jN0CRXqPB+GwmQGObYkDbUZTBvIfnQGlMMUCLU5rBJJnPQKbZx0CttsnBf7CZQPeA6EAY
jNPBxOuiQBWm/UC+sMLB/wfeQFLfCL/S2b7BrJK/QN4fGcBNB7TBzpnUQOfB6D856rjBlq/1QNmt
hEBlxKrBER4CQZKvtEDcLrrBk9iPQMRh4z4oEZ3B5GdpQNEwZUDMBbbBPdENQC42iMAOzofBrXZP
QNUmMsCuXIjBrXOqQBKAiMBOdY3B9aCJQNait8Cu5ozBsNkvQHB2mcDKdpvBz2VIQKiCvECOd8XB
fLCFQCdCpkBFvM/B62xIQBPSg0D81sfB9vSMQLxGfkALuIXBSNa0QAmBK0CC6IXBKMLDQAs+jECd
jojBHLHNQA6uA0GnWM7BHUdHQJGXK0DVHqjBHELeP1N/WkDJN5jB9j0mQMWTdkAfuIzB

>  <OMEGA_E>  (58) 
EKKmPhgbyz4=

>  <OMEGA_NBR>  (58) 
     49069

$$$$
50168798
     RDKit          3D

 48 50  0  0  1  0  0  0  0  0999 V2000
    4.9419   -1.8235  -20.1969 C   0  0  0  0  0  0  0  0  0  0  0  0
    4.4014   -2.6300  -19.4682 C   0  0  0  0  0  0  0  0  0  0  0  0
    4.8281    4.1098  -23.1522 C   0  0  0  0  0  0  0  0  0  0  0  0
    6.8100    1.3254  -22.3547 C   0  0  0  0  0  0  0  0  0  0  0  0
    5.0817    4.9446  -24.2574 C   0  0  0  0  0  0  0  0  0  0  0  0
    7.1316   -0.0073  -22.6699 C   0  0  0  0  0  0  0  0  0  0  0  0
    5.2200    0.5394  -20.6818 C   0  0  0  0  0  0  0  0  0  0  0  0
    6.9263    4.8203  -22.1347 C   0  0  0  0  0  0  0  0  0  0  0  0
    5.5511   -0.7918  -20.9810 C   0  0  0  0  0  0  0  0  0  0  0  0
    5.8257    1.6094  -21.3753 C   0  0  0  0  0  0  0  0  0  0  0  0
    5.7524    4.0403  -22.0808 C   0  0  0  0  0  0  0  0  0  0  0  0
    7.1809    5.6527  -23.2314 C   0  0  0  0  0  0  0  0  0  0  0  0
    6.2736    5.7076  -24.3079 C   0  0  0  0  0  0  0  0  0  0  0  0
    6.5035   -1.0698  -21.9893 C   0  0  0  0  0  0  0  0  0  0  0  0
    6.3322    3.3522  -19.6841 C   0  0  0  0  0  0  0  0  0  0  0  0
    4.1033    3.5660  -19.2300 C   0  0  0  0  0  0  0  0  0  0  0  0
    5.5288    3.0452  -20.9416 C   0  0  2  0  0  0  0  0  0  0  0  0
    8.4619    6.4589  -23.2650 C   0  0  0  0  0  0  0  0  0  0  0  0
    5.7190    3.9540  -17.3241 C   0  0  0  0  0  0  0  0  0  0  0  0
    3.7381   -3.5570  -18.5554 C   0  0  0  0  0  0  0  0  0  0  0  0
    5.5563    7.2430  -25.9879 C   0  0  0  0  0  0  0  0  0  0  0  0
    5.4047    3.7683  -18.7463 N   0  0  0  0  0  0  0  0  0  0  0  0
    4.1391    3.1963  -20.4880 N   0  0  0  0  0  0  0  0  0  0  0  0
    2.9336    3.7170  -18.5022 N   0  0  0  0  0  0  0  0  0  0  0  0
    7.5280    3.1525  -19.4925 O   0  0  0  0  0  0  0  0  0  0  0  0
    6.6177    6.4765  -25.4017 O   0  0  0  0  0  0  0  0  0  0  0  0
    6.8433   -2.3438  -22.2943 F   0  0  0  0  0  0  0  0  0  0  0  0
    3.2150   -2.8722  -17.5015 F   0  0  0  0  0  0  0  0  0  0  0  0
    6.0621    8.4470  -26.3565 F   0  0  0  0  0  0  0  0  0  0  0  0
    5.0824    6.5998  -27.0850 F   0  0  0  0  0  0  0  0  0  0  0  0
    3.9242    3.5195  -23.1211 H   0  0  0  0  0  0  0  0  0  0  0  0
    7.3149    2.1350  -22.8607 H   0  0  0  0  0  0  0  0  0  0  0  0
    4.3679    5.0030  -25.0658 H   0  0  0  0  0  0  0  0  0  0  0  0
    7.8628   -0.2172  -23.4365 H   0  0  0  0  0  0  0  0  0  0  0  0
    4.4927    0.7474  -19.9110 H   0  0  0  0  0  0  0  0  0  0  0  0
    7.6360    4.7750  -21.3219 H   0  0  0  0  0  0  0  0  0  0  0  0
    9.2566    5.8658  -23.7410 H   0  0  0  0  0  0  0  0  0  0  0  0
    8.2989    7.3821  -23.8405 H   0  0  0  0  0  0  0  0  0  0  0  0
    8.7609    6.7151  -22.2379 H   0  0  0  0  0  0  0  0  0  0  0  0
    4.8176    4.2877  -16.7893 H   0  0  0  0  0  0  0  0  0  0  0  0
    6.0663    3.0011  -16.8981 H   0  0  0  0  0  0  0  0  0  0  0  0
    6.5092    4.7121  -17.2193 H   0  0  0  0  0  0  0  0  0  0  0  0
    2.9300   -4.0792  -19.0887 H   0  0  0  0  0  0  0  0  0  0  0  0
    4.4688   -4.2920  -18.1867 H   0  0  0  0  0  0  0  0  0  0  0  0
    4.7544    7.3760  -25.2468 H   0  0  0  0  0  0  0  0  0  0  0  0
    3.3332    3.0393  -21.0589 H   0  0  0  0  0  0  0  0  0  0  0  0
    2.0493    3.5409  -18.9346 H   0  0  0  0  0  0  0  0  0  0  0  0
    2.9740    4.0021  -17.5445 H   0  0  0  0  0  0  0  0  0  0  0  0
  1  2  3  0
  1  9  1  0
  2 20  1  0
  3  5  2  0
  3 11  1  0
  4  6  2  0
  4 10  1  0
  5 13  1  0
  6 14  1  0
  7  9  1  0
  7 10  2  0
  8 11  2  0
  8 12  1  0
  9 14  2  0
 17 10  1  6
 11 17  1  0
 12 13  2  0
 12 18  1  0
 13 26  1  0
 14 27  1  0
 15 17  1  0
 15 22  1  0
 15 25  2  0
 16 22  1  0
 16 23  2  0
 16 24  1  0
 17 23  1  0
 19 22  1  0
 20 28  1  0
 21 26  1  0
 21 29  1  0
 21 30  1  0
  3 31  1  0
  4 32  1  0
  5 33  1  0
  6 34  1  0
  7 35  1  0
  8 36  1  0
 18 37  1  0
 18 38  1  0
 18 39  1  0
 19 40  1  0
 19 41  1  0
 19 42  1  0
 20 43  1  0
 20 44  1  0
 21 45  1  0
 23 46  1  0
 24 47  1  0
 24 48  1  0
M  CHG  1  23   1
M  END
>  <OMEGA_C>  (59) 
1yOeQGpp6b9Uk6HBEdiMQMBRKMD3vpvBf3+aQHWDg0CqN7nBk+vZQAanqT9e1rLBmZ2iQFQ6nkAY
D8LBYTbkQAA/8LvxW7XBgwqnQM4TCj9EdKXBoKTdQB1AmkDrE7HBNqKxQJizSr8g2afB+Wu6QBwA
zj+hAKvBghO4QO9JgUCKpbDBpcnlQA7jtEDS2bnBhMHIQPKktkCpdsLB0hzQQCDwiL8X6q/BoaHK
QBiKVkDyeJ3BGE6DQO44ZEAd15nBy+uwQP7jQkBeiKfB4GMHQZuvzkDSHrrBaAK3QKgNfUC/l4rB
UDxvQF+mY8BrcZTBW82xQIzG50BJ58/BdfOsQE4scUBe+JXBaXOEQPuQTEB556PB0MA7QMbjbUBu
BJTB/+TwQEfCSUCp8JvBisTTQH4/z0CnNsvBU/zaQJcBFsDCWrLB9MJNQAPSN8AYA4zBj/zBQNIm
B0Er2tLBZaOiQLAx00AartjBViZ7QO4+YUD697jBtBPqQHajCEC+4rbBK8aLQDIYoECshsjBSpz7
QEVwXr76fbvB18OPQIBWPz/LSZ/BXlr0QC/NmEA9k6rBIxsUQZu0u0Cp7b3BX8gEQXY67EBYub7B
oCwMQczh1kBD57HBnSmaQOM0iUCLUIbB6R7CQDYSQEA1L4fBGEvQQC7JlkAKwYnBPYU7QGqIgsCv
tZjBKwCPQOdXicBrfpHBMCSYQBQI7EB2+cnB5lJVQDyEQkCPeKjBfigDQNWeYkAXepfBlFU+QDwR
gEAmW4zB1tucQENy7b8e0aDBsNSMQAbmKcBPs5rB5hHgQO/WmUDeLLHBtpHXQE6znT+/G7PBqjfm
QFvqtEBAC7rBFLXfQPK56b06trXBqOymQKkHAT9xAaXBOp+cQIMkgkBhxrjBwoqvQOdRV786dafB
Eoa6QEYFxz+/zarBKrq6QABigEDmbrDBJo6iQCeWnEBVvMHBBsrHQLkpt0CPYsLBpPrLQMSgk78M
5a/BQFHLQBuGU0CSJ53BEmaDQIpNYEBB65nBVL6yQM+MQECAW6fB/jmBQHbPmECKhMrB9KS1QOAS
fUB8d4rB68xyQN0lZcCKEJPBCL2wQN+A6EBXXtDB5l+sQCueX0A6XJXBqsOFQIaBSkBvA6TBlMU6
QEmQckCVrJTBoBryQOuQT0BkwJvBaJ/SQJ0/0UBdBsvBBpHVQAgdHMCeSLLBrk1YQN/QOcDvNorB
Klq+QKdbCEHbkdLBCienQOdL1UDO1NnBBeX3QGl9mEDs7KrBs4bnQItUAUBBdbfBX18BQWdYyED1
errB7jH1QJJetL5+NLzBeQGRQKFcPT/hmJ7BwimAQOBEXUCoR7jBMh9PQF8+sEAOH8nBUkmQQIse
n0BQUNLBdVtnQAKlcEBKfMrBJ6iXQP2sgEC344XBEmHLQBF6T0DqiYbBRt3EQKI/nkBfzIrBooQ7
QDRagsDF0pbBKhmRQC7aisAmuJDBCmaUQBBf6UBMJ8vBRwVZQA/LQUDtzajB+jcDQJhwb0CPoJjB
zX07QNJtgUA08IzB

>  <OMEGA_E>  (59) 
sM+MPXDhmT0=

>  <OMEGA_NBR>  (59) 
    129805

$$$$
50168736
     RDKit          3D

 52 54  0  0  1  0  0  0  0  0999 V2000
    4.9689   -1.8633  -20.3232 C   0  0  0  0  0  0  0  0  0  0  0  0
    4.4463   -2.7812  -19.7284 C   0  0  0  0  0  0  0  0  0  0  0  0
    4.8057    4.1122  -23.1487 C   0  0  0  0  0  0  0  0  0  0  0  0
    6.8037    1.3603  -22.3719 C   0  0  0  0  0  0  0  0  0  0  0  0
    5.0707    4.9370  -24.2588 C   0  0  0  0  0  0  0  0  0  0  0  0
    7.1504    0.0410  -22.7030 C   0  0  0  0  0  0  0  0  0  0  0  0
    5.2278    0.5326  -20.7018 C   0  0  0  0  0  0  0  0  0  0  0  0
    6.9387    4.7595  -22.1624 C   0  0  0  0  0  0  0  0  0  0  0  0
    5.5821   -0.7863  -21.0288 C   0  0  0  0  0  0  0  0  0  0  0  0
    5.8180    1.6184  -21.3838 C   0  0  0  0  0  0  0  0  0  0  0  0
    5.7344    4.0313  -22.0823 C   0  0  0  0  0  0  0  0  0  0  0  0
    7.2134    5.5653  -23.2704 C   0  0  0  0  0  0  0  0  0  0  0  0
    6.2833    5.6720  -24.3213 C   0  0  0  0  0  0  0  0  0  0  0  0
    6.5414   -1.0351  -22.0351 C   0  0  0  0  0  0  0  0  0  0  0  0
    6.3183    3.3556  -19.6879 C   0  0  0  0  0  0  0  0  0  0  0  0
    4.0946    3.5827  -19.2205 C   0  0  0  0  0  0  0  0  0  0  0  0
    5.5067    3.0453  -20.9392 C   0  0  2  0  0  0  0  0  0  0  0  0
    8.5180    6.3329  -23.3207 C   0  0  0  0  0  0  0  0  0  0  0  0
    5.7299    4.0134  -17.3384 C   0  0  0  0  0  0  0  0  0  0  0  0
    3.1756   -2.8142  -16.9434 C   0  0  0  0  0  0  0  0  0  0  0  0
    3.8201   -3.8936  -19.0221 C   0  0  0  0  0  0  0  0  0  0  0  0
    5.5610    7.0570  -26.1410 C   0  0  0  0  0  0  0  0  0  0  0  0
    5.4005    3.7953  -18.7527 N   0  0  0  0  0  0  0  0  0  0  0  0
    4.1195    3.1935  -20.4740 N   0  0  0  0  0  0  0  0  0  0  0  0
    2.9335    3.7462  -18.4809 N   0  0  0  0  0  0  0  0  0  0  0  0
    7.5111    3.1398  -19.4956 O   0  0  0  0  0  0  0  0  0  0  0  0
    6.6321    6.4864  -25.3821 O   0  0  0  0  0  0  0  0  0  0  0  0
    4.0283   -3.7803  -17.5974 O   0  0  0  0  0  0  0  0  0  0  0  0
    6.8972   -2.3010  -22.3563 F   0  0  0  0  0  0  0  0  0  0  0  0
    5.9861    8.2545  -26.6152 F   0  0  0  0  0  0  0  0  0  0  0  0
    5.2581    6.2395  -27.1817 F   0  0  0  0  0  0  0  0  0  0  0  0
    3.8911    3.5392  -23.1102 H   0  0  0  0  0  0  0  0  0  0  0  0
    7.2901    2.1845  -22.8724 H   0  0  0  0  0  0  0  0  0  0  0  0
    4.3520    5.0103  -25.0617 H   0  0  0  0  0  0  0  0  0  0  0  0
    7.8857   -0.1471  -23.4714 H   0  0  0  0  0  0  0  0  0  0  0  0
    4.5003    0.7170  -19.9251 H   0  0  0  0  0  0  0  0  0  0  0  0
    7.6569    4.6939  -21.3585 H   0  0  0  0  0  0  0  0  0  0  0  0
    9.2877    5.7172  -23.8092 H   0  0  0  0  0  0  0  0  0  0  0  0
    8.3748    7.2620  -23.8918 H   0  0  0  0  0  0  0  0  0  0  0  0
    8.8391    6.5772  -22.2973 H   0  0  0  0  0  0  0  0  0  0  0  0
    4.8346    4.3615  -16.8023 H   0  0  0  0  0  0  0  0  0  0  0  0
    6.0797    3.0700  -16.8938 H   0  0  0  0  0  0  0  0  0  0  0  0
    6.5225    4.7720  -17.2594 H   0  0  0  0  0  0  0  0  0  0  0  0
    3.4012   -2.7945  -15.8670 H   0  0  0  0  0  0  0  0  0  0  0  0
    3.3537   -1.8176  -17.3735 H   0  0  0  0  0  0  0  0  0  0  0  0
    2.1224   -3.0948  -17.0921 H   0  0  0  0  0  0  0  0  0  0  0  0
    2.7399   -3.8901  -19.2299 H   0  0  0  0  0  0  0  0  0  0  0  0
    4.2586   -4.8381  -19.3765 H   0  0  0  0  0  0  0  0  0  0  0  0
    4.6844    7.1907  -25.4900 H   0  0  0  0  0  0  0  0  0  0  0  0
    3.3089    3.0219  -21.0340 H   0  0  0  0  0  0  0  0  0  0  0  0
    2.0439    3.5644  -18.9000 H   0  0  0  0  0  0  0  0  0  0  0  0
    2.9855    4.0461  -17.5283 H   0  0  0  0  0  0  0  0  0  0  0  0
  1  2  3  0
  1  9  1  0
  2 21  1  0
  3  5  2  0
  3 11  1  0
  4  6  2  0
  4 10  1  0
  5 13  1  0
  6 14  1  0
  7  9  1  0
  7 10  2  0
  8 11  2  0
  8 12  1  0
  9 14  2  0
 17 10  1  6
 11 17  1  0
 12 13  2  0
 12 18  1  0
 13 27  1  0
 14 29  1  0
 15 17  1  0
 15 23  1  0
 15 26  2  0
 16 23  1  0
 16 24  2  0
 16 25  1  0
 17 24  1  0
 19 23  1  0
 20 28  1  0
 21 28  1  0
 22 27  1  0
 22 30  1  0
 22 31  1  0
  3 32  1  0
  4 33  1  0
  5 34  1  0
  6 35  1  0
  7 36  1  0
  8 37  1  0
 18 38  1  0
 18 39  1  0
 18 40  1  0
 19 41  1  0
 19 42  1  0
 19 43  1  0
 20 44  1  0
 20 45  1  0
 20 46  1  0
 21 47  1  0
 21 48  1  0
 22 49  1  0
 24 50  1  0
 25 51  1  0
 25 52  1  0
M  CHG  1  24   1
M  END
>  <OMEGA_C>  (60) 
TQGfQOJ/7r/mlaLBVUiOQHD/McCt053BZciZQBeXg0CDMLnBl7fZQGkfrj+r+bLB1EKiQBX8nUAc
EsLBUtDkQCQDKD3Jn7XB40mnQIVVCD9dnaXBhwneQOVNmECKTLHB0aCyQMVMSb/qOqjBXC26QHgm
zz/3EavBI4C3QJgAgUCeqLDBYNTmQOQWskDeKbrBbxDJQMCAtUARksLBClPRQLp/hL/8R7DBfi/K
QCTCVkDUgJ3BLweDQDhKZUCZw5nBKzewQCvmQkB1g6fBrEkIQbumykC1kLrB/1q3QMBtgEAItYrB
pjxLQLEbNMAXjIfBtXx0QBwwecBPLZjBU/OxQFDT4UC3INHB19CsQNHlckBxBZbBB9ODQEpiTEDF
yqPB8707QHDCb0DU2JPBDVvwQFjySED59pvB1TnUQDWQz0CcDsvBmOeAQMzwccCIx4zBjbXcQI5D
E8DH2bLBB46/QI4SBEH269TBbkKoQMmpx0AKdNnBNgd5QPeBYkDA4bjBeEjpQEfPC0Cq+rbB80OL
QEFUoEBsfsjBSFf8QCapFr56xbvBygKQQB6KNz+1Zp/BHwX1QK40lkAi3qrBN5oUQaTztkAseb7B
Sv8FQWNi6EBaIr/B82wNQa140kD3YLLBAbWaQBGRi0Ava4bBl4zCQCJ7REB+JofB87fQQKG0mEBL
E4rBYK1ZQI/ZMsAe333BYqNWQMql6L/z/IrBpdUHQEARRsCYvIjB8lovQOT2eMDq1pnBpkaIQKbR
msAIA5vBU+aVQJka5kCY68vB0MVTQA1nQUCORajBfM8CQHIfZEAdM5fBQRI/QFN5gUDzOYzB4fyc
QFH97L+y6KLBlTSMQFKoMcAePZ7BjZ3fQCnlmkAjKLHBWTHZQCqYrz/bE7PBLofmQOlqtEAoRbrB
QB/iQDB4Rz0XIbbB7L2nQMyODT+TcqXBZn+bQEDlg0BbjrjBB+mwQBxORb9YeqjB/Ti7QDvV0T9d
1arBtp25QLORgkC2NrDBfUqiQBOgnEBbxcHBgDbIQNIMtkAtpcLBQALOQB4Sg7+937DBs/fKQKRW
WEDeD53BsyyDQD+PY0AUpZnBnCayQJ/FRECJK6fBpD6BQHUjmEBQmcrBt8+1QNqFfUCxOYrBKO5L
QD/cPMD9Y4fBUJhvQNL8eMD3tJjBoGWyQHRX5kAM5dDBjoesQAowcUDanpXBRUKFQKD+TEAUuKPB
TF86QAnda0DBAJTBBkbxQJLLTECyfJvB3qbTQHUtzkAZkcvBOFctQLb5WcDyqJHBGVTXQGi9EsBy
2bPBMBLBQEsTB0ESH9PBsh6oQGMw00DcUdrBkVX3QE3gmUDE4KrBK0HpQDcsDEAGCbfB0cEBQT4V
x0BR37rBFH/4QP5/FL58h7zBXbGRQG3xPT/v957BMNV8QIrdYkCj27fBxjtQQIRqsEAWiMnB7seQ
QG61nECIadLBcMZlQP8OcEDTQMrBIHKYQHORiEDBCYbBPKPBQG4vQUDIyYbBmVPOQJS/l0DNTInB
A5MVQD5xJsAKjYLBMhRsQDn0ccDjPIPBenp5QNT+B8AsjojBhzZTQFtKksDxop7BZfKPQAPOjcAc
/ZPBSCyWQBEM6EBHp8vBIsRXQEjBQkD9a6jBDX8CQFhdYEAdoZfBZnc7QH5ZfUD9TozBsS6eQES/
778brqLB3dmMQFuzMcDr4J3Bf0maQCqSgkAQTbnBOIXaQEQ2rD95y7LBmLmiQKP3nEAAMsLBInfl
QBCWzDy2dbXB3x2nQCbuBD+7qqXB8c/dQFJ2mECOQ7HBIFWyQHT+TL8PR6jB3H+6QFdizT9+BavB
/KC3QI6SgEA/r7DB/XjmQLBwskDOHLrB2/bIQGOKtUAImcLBrWbRQH6Phr+NPbDBukPKQI9lVkBD
gZ3BQBiDQMrLZUBH2JnBpmawQPcRQkBPg6fBXRcIQUAUy0DIfLrBflG3QOpwgUDPzorB/25KQPlX
MsDmWIfBxgJwQJJkd8DiHZjBWuOyQItO4kB4pdHBO92sQIGZc0A+GZbBS/eDQAhFS0D9zqPBxMk7
QNjKcUDu/ZPBDHLwQMHoSEBY8JvB30zUQEVX0EBbB8vBwId/QHh8cMB5wYzBJZ/cQCNUFMBv1rLB
T5GlQJbuxEAF6tjBcW2RQCMC8UA/tMvBDJp6QI2NX0BdDrnBtZPqQK/NCkC+r7bBGxqMQNWGnkAd
t8jBPVL9QP4sKL52hrvBYYiPQO6HND9rh5/Bpaj0QFivlkDby6rBgHMUQbFmt0DPXb7BHM4FQYfG
6EBfEr/BMCoNQe/30kCKS7LBV6maQNXqjEA+lIbBmGXCQCvjRkAyIYfB873QQGGvmUAOQYrBdX1a
QBtfMcBkj33Bpq5VQIgo5b88zYrBorAGQG7CQ8A0WIjBOKsqQO6wdMBAmZnBR7OEQAtrmsDlApvB
puPAQBmI/UBV/dXBYiNUQCgLP0ClQKjBKN4CQNoPZkCrV5fBMQo/QI4Wg0Bfa4zBT9CbQAW567+o
T6PBsf2LQN7jMcA6m57B45TfQCKNm0CtCLHBL/DZQFqesT8w57LBF7TmQPkYtUCMIrrBb/riQOIn
iD2S+rXB/2ymQGfcED9GxKXBjumbQHsFhECxn7jBMc6vQB+cQb+KzKjBDuW6QKiV0z8i6KrBqrW5
QMPvgkApNLDBAh6jQL2bnECL1MHBbbvIQMZLtkA6l8LBdPzNQO7jgL+d9bDBs9HKQJUzWEDDD53B
PAmDQJV+Y0DVpZnBkv6xQJ+JRUCFMKfBrcyCQKpBmECaysrBG6a1QAaSe0DILYrBoZVIQE2tOsAE
DYjBTC10QBXaesBp3pjBnBu2QFQt7EB7H9DB52SsQMudcEB8mJXB/R2FQNmjTkD/xqPBWhE6QC6Z
akC0/JPBQgTxQC9sS0DQd5vBJGXUQAFnzUDKqMvBO/GBQJZocsBTiI3BWafXQI6YEcAx5LPBTHeh
QLQB20AVr9jBS0KZQB/w+kAv1MjBnwL3QIC7mkCBr6rBHb7qQMA6DUBEp7bBx8EBQZ4RyEB9qbrB
Pxv6QEkRAL6cNrzBmHqPQOi6QD9Ne5/BCq19QF0GY0Cc/LfBLS5TQA6DsEAN0cnBeueSQJ7ynEAq
h9LBy9toQCFHcECrisrBlVKYQB+Mh0DJ94XBREPBQGW1PkCi14bBUVHOQKuPlkC1KInBHRtZQDvs
N8DPAX/B6k5MQDYW9L/5gYvBOygHQKebU8Df94jBxcMuQKWyfcBGS5rBiB+JQCgHm8C+ypvBTgvJ
QMXLA0EL9tLBZ4NXQDMURkCPiajBiDsCQFGHX0DhpJfBTRk7QGDKekCcP4zB76eeQO5M878bW6LB
sauPQLsjNsAOkJ3BbCbfQHeZmkC0/bDBYUrYQNWEqD/gN7PBRd3lQAHEtEAG/bnB0y3hQDGxFbx9
MLbBFdqnQBGnAj/jTKXB35icQFVhgUBk1rjBWEixQIc9Ub+SMajB8eS6QAzCyz/Z3KrBMOm5QC0I
gUDGS7DBnm+jQGOPmkAP+sHBsCnIQKvFtUB8f8LBYc3NQKHVib+etLDBKQPLQAmpVEDND53BFBWD
QFpqYkC50JnBjD2yQEQAQkD0O6fBmmeDQNyKlUAkBMvBfm61QH63e0BwPYrBDl1UQBI4QsAd34bB
enp8QFAugMAi85fBh5awQJY05kDTrdDBUSKsQCJQYkBDS5XBKlGFQBAzS0BC3aPBuys6QPJYdEAd
jJTBWaHxQOK7TECZnpvBHsvSQPT0z0CEHsvBXJiGQLrresDvmozBA1TXQPVIFsAukrPBihWWQNOx
+kCXuMnBsDrCQB/NAUEaUNfBs3D2QCgHmkD3m6rBXPHnQL5nCEC7UrfB6B0BQXxvyECnZbrBbvX2
QAfqVb5ktLzBzPaRQAjAND/DzJ7BMCyAQDqjW0DKWbjBurVSQKTdrEBnAMrB6H+TQNwsm0DzttLB
yklsQDHhaUAD48rBB0mXQL8XgUD4xIXB64zJQK+sSkCMbIbB/3HGQG2snEAhPIrBG4hlQMTsQcCy
rHzBX0ZaQNULAcC2HYrBJP4RQAp/WMAFzIfB6uo2QJ6HgcAGQ5nBJSuNQNlnncDlIZvB2UqeQEKq
zkBvW9XBLQhYQLQbQUDemKjBHnUCQNXWb0CfcZjB1hE7QCHlgkDa2YzB

>  <OMEGA_E>  (60) 
gH8zPpCKNj5AQEc+MD9OPqC4VT4=

>  <OMEGA_NBR>  (60) 
     56573

$$$$
50168805
     RDKit          3D

 54 56  0  0  1  0  0  0  0  0999 V2000
    4.9248   -1.8502  -20.4950 C   0  0  0  0  0  0  0  0  0  0  0  0
    4.3575   -2.7660  -19.9400 C   0  0  0  0  0  0  0  0  0  0  0  0
    4.8030    4.1285  -23.1177 C   0  0  0  0  0  0  0  0  0  0  0  0
    6.8530    1.4230  -22.3655 C   0  0  0  0  0  0  0  0  0  0  0  0
    5.0717    4.9308  -24.2410 C   0  0  0  0  0  0  0  0  0  0  0  0
    7.1992    0.1137  -22.7365 C   0  0  0  0  0  0  0  0  0  0  0  0
    5.2263    0.5470  -20.7720 C   0  0  0  0  0  0  0  0  0  0  0  0
    6.9150    4.8249  -22.1165 C   0  0  0  0  0  0  0  0  0  0  0  0
    5.5767   -0.7605  -21.1405 C   0  0  0  0  0  0  0  0  0  0  0  0
    5.8409    1.6516  -21.3972 C   0  0  0  0  0  0  0  0  0  0  0  0
    5.7261    4.0695  -22.0459 C   0  0  0  0  0  0  0  0  0  0  0  0
    7.1893    5.6175  -23.2362 C   0  0  0  0  0  0  0  0  0  0  0  0
    6.2795    5.6671  -24.3103 C   0  0  0  0  0  0  0  0  0  0  0  0
    6.5604   -0.9816  -22.1293 C   0  0  0  0  0  0  0  0  0  0  0  0
    6.3203    3.3569  -19.6627 C   0  0  0  0  0  0  0  0  0  0  0  0
    4.0917    3.5699  -19.2023 C   0  0  0  0  0  0  0  0  0  0  0  0
    5.5145    3.0636  -20.9196 C   0  0  2  0  0  0  0  0  0  0  0  0
    8.4877    6.3940  -23.2932 C   0  0  0  0  0  0  0  0  0  0  0  0
    3.0154   -2.6123  -17.1488 C   0  0  0  0  0  0  0  0  0  0  0  0
    5.7152    3.9583  -17.3015 C   0  0  0  0  0  0  0  0  0  0  0  0
    3.6777   -3.8684  -19.2700 C   0  0  0  0  0  0  0  0  0  0  0  0
    3.8380   -3.7738  -17.7383 C   0  0  0  0  0  0  0  0  0  0  0  0
    5.5729    7.1642  -26.0229 C   0  0  0  0  0  0  0  0  0  0  0  0
    5.3952    3.7689  -18.7215 N   0  0  0  0  0  0  0  0  0  0  0  0
    4.1248    3.1851  -20.4561 N   0  0  0  0  0  0  0  0  0  0  0  0
    2.9237    3.7441  -18.4766 N   0  0  0  0  0  0  0  0  0  0  0  0
    7.5150    3.1485  -19.4743 O   0  0  0  0  0  0  0  0  0  0  0  0
    6.6317    6.4122  -25.4161 O   0  0  0  0  0  0  0  0  0  0  0  0
    6.9080   -2.2380  -22.4933 F   0  0  0  0  0  0  0  0  0  0  0  0
    6.0895    8.3404  -26.4578 F   0  0  0  0  0  0  0  0  0  0  0  0
    5.0709    6.4731  -27.0775 F   0  0  0  0  0  0  0  0  0  0  0  0
    3.8888    3.5552  -23.0725 H   0  0  0  0  0  0  0  0  0  0  0  0
    7.3601    2.2614  -22.8199 H   0  0  0  0  0  0  0  0  0  0  0  0
    4.3580    4.9853  -25.0497 H   0  0  0  0  0  0  0  0  0  0  0  0
    7.9564   -0.0520  -23.4886 H   0  0  0  0  0  0  0  0  0  0  0  0
    4.4824    0.7083  -20.0058 H   0  0  0  0  0  0  0  0  0  0  0  0
    7.6198    4.7913  -21.2989 H   0  0  0  0  0  0  0  0  0  0  0  0
    9.2684    5.7707  -23.7537 H   0  0  0  0  0  0  0  0  0  0  0  0
    8.3442    7.3046  -23.8933 H   0  0  0  0  0  0  0  0  0  0  0  0
    8.7940    6.6712  -22.2737 H   0  0  0  0  0  0  0  0  0  0  0  0
    3.1563   -2.5789  -16.0583 H   0  0  0  0  0  0  0  0  0  0  0  0
    3.3523   -1.6631  -17.5911 H   0  0  0  0  0  0  0  0  0  0  0  0
    1.9501   -2.7652  -17.3762 H   0  0  0  0  0  0  0  0  0  0  0  0
    4.8145    4.2877  -16.7628 H   0  0  0  0  0  0  0  0  0  0  0  0
    6.0699    3.0080  -16.8758 H   0  0  0  0  0  0  0  0  0  0  0  0
    6.5015    4.7210  -17.2015 H   0  0  0  0  0  0  0  0  0  0  0  0
    2.6073   -3.8358  -19.5215 H   0  0  0  0  0  0  0  0  0  0  0  0
    4.1073   -4.8194  -19.6178 H   0  0  0  0  0  0  0  0  0  0  0  0
    4.9002   -3.6149  -17.5004 H   0  0  0  0  0  0  0  0  0  0  0  0
    3.4980   -4.7169  -17.2856 H   0  0  0  0  0  0  0  0  0  0  0  0
    4.7855    7.3460  -25.2766 H   0  0  0  0  0  0  0  0  0  0  0  0
    3.3181    3.0005  -21.0175 H   0  0  0  0  0  0  0  0  0  0  0  0
    2.0374    3.5741  -18.9073 H   0  0  0  0  0  0  0  0  0  0  0  0
    2.9674    4.0399  -17.5224 H   0  0  0  0  0  0  0  0  0  0  0  0
  1  2  3  0
  1  9  1  0
  2 21  1  0
  3  5  2  0
  3 11  1  0
  4  6  2  0
  4 10  1  0
  5 13  1  0
  6 14  1  0
  7  9  1  0
  7 10  2  0
  8 11  2  0
  8 12  1  0
  9 14  2  0
 17 10  1  6
 11 17  1  0
 12 13  2  0
 12 18  1  0
 13 28  1  0
 14 29  1  0
 15 17  1  0
 15 24  1  0
 15 27  2  0
 16 24  1  0
 16 25  2  0
 16 26  1  0
 17 25  1  0
 19 22  1  0
 20 24  1  0
 21 22  1  0
 23 28  1  0
 23 30  1  0
 23 31  1  0
  3 32  1  0
  4 33  1  0
  5 34  1  0
  6 35  1  0
  7 36  1  0
  8 37  1  0
 18 38  1  0
 18 39  1  0
 18 40  1  0
 19 41  1  0
 19 42  1  0
 19 43  1  0
 20 44  1  0
 20 45  1  0
 20 46  1  0
 21 47  1  0
 21 48  1  0
 22 49  1  0
 22 50  1  0
 23 51  1  0
 25 52  1  0
 26 53  1  0
 26 54  1  0
M  CHG  1  25   1
M  END
>  <OMEGA_C>  (61) 
FZidQCjS7L/b9aPBxXCLQF8FMcAYhZ/BxbGZQNIchEAa8bjB/0vbQJkltj+g7LLBPUuiQNPInUCT
7cHByV/mQETN6D1j5LXB3T2nQN4GDD/2LKbBo0fdQONlmkCE7rDBlnSyQC6uQr+3H6nBQui6QHRm
0z9lLavBhTy3QKA5gkAXXrDByg7mQPHCs0C+47nBD/LIQNxYtUCYe8LBC+/RQGpHe7/bCLHBsD/K
QKfWVkBPTZ3BHO+CQP94ZEBXnpnBoXawQM8SREBZW6fBn80HQb6bzEBvWLrBr/xAQKEvJ8C1MInB
/eK2QMVUfUBxaYrB0V5rQKaTd8D+KJrBb6J1QGSGccAA6I3BBVWyQNBA5UDtLtDBOqWsQCM2cUCu
xZXB9v2DQDvZS0ArpqPBxh07QNefb0Ai0JPBtXrwQLiBSUBSy5vBpTbUQMIwzUBFVMvBUQ7dQFE7
D8Av8rPBUd3CQCRyBUGfqdPBLkWiQJ8jz0DPntjBYOJ4QCWIY0BnlLjBLIbrQA66EEApj7bBcnSL
QMqHn0DVZcjB7Jr+QHj5VL2U6LvBrG+PQGNVNT/wC6DBzdXzQPRRmUAaZKrBLEsUQfepuECuB77B
wIEFQYq/6UCHJb/BVrQMQdt61UCTMLLBjABKQBMNJcCAd4DBVYtWQATh1L+KuozBOJ35P2n4MMCL
AovBBBCaQMg0iUBKGobBejzCQKqDQECkAYfBbwzQQH0Sl0CznInByt0mQI5+dcACLJzB2G6DQKk4
msBN8ZzBS86cQEFaZ8DQAIzB3t9fQBTxlsDSSIrB5iKZQCoS60B1NsrBXltUQA8IQEDxI6jBL2QC
QDm+ZEA9QpfBIek9QJBGgUDILYzBbk+bQOCt6L8/KKPBQ36KQNjvL8BGlZ7BQqnfQH7Fm0ASDbHB
kdLYQGh5sj8IILPBRd7mQHwCtUBdMrrBAUXhQGO1kD0vQbbBSuOmQJMaFT/XlKXBqvibQPQohEAZ
nbjBq6KvQOqjPb8+q6jBXM26QMot1T9P5KrBYLu5QO5Kg0DxLrDBrE+jQPRUnEDr4MHBJPPIQEcA
tkA9qsLBDKHMQJmff78WFbHBE9vKQPTpWEDXBZ3BTv+CQEksYkCzj5nBmwuyQMdmRkC8KafBdkeD
QJpBl0Be48rB+Mg/QNRCLcAZGYjBq4m1QECseEDRCYrB6rVtQDIVecDkOJnB/Jx4QJyzc8B/+YzB
1U22QFvS6kADdtDBpE6sQMMQb0CoeZXBwyKFQIiQT0AuwqPB+fo5QKnXZ0B+4JPBCjjxQA/ETUB+
fZvBtsvUQJzczECGwcvBrDjVQMYpEcDlLLTB1PKiQGLZ2EAcG9nB92+YQEJA+UCqYcnBixH3QKsV
m0BksqrBBEnpQL10DUD1ArfBgNsBQdXpx0BJwLrBIqn3QLPXAL5CpbzB2NCQQEsWRj+UHJ/BHqJ9
QP+ZY0DA77fBUNdTQPxwr0CBDsrBxJmTQPqLm0BgnNLBEh9qQOArbkBzisrBAkRJQGlaK8BPw37B
VUFRQILw3b9+kYvBTHL4P1YgO8Dg3InBFhCYQA87hUDCxYXB4L7BQIzGO0D/2IbBSL7NQDZ+lUCc
6YjBowMpQDVqesCkI5vBdAqGQBMbmsDRHpzBFPydQH9+ZcCcIYvB+e9mQErTmMD+bInBuuzIQMZD
A0FgQNPBpZ5XQD2LSECzkajBrCoCQIhwXUDGkZfB9Ps6QE1VdkDwFYzBqOGdQHv/7r9W2KPB9nuL
QKYtMsCkep/BNPaZQPNIg0BJA7nBIqLbQFpnsz+q4bLBg2uiQNMcnUCA/sHBr8fmQMhDuj2EzbXB
Cs2nQKiaBz+GDqbBRFPdQPnmmUD0+bDBw/yyQB1wR79d+qjBOU27QJn50D+eH6vB42m3QMiVgUBq
abDBh+PlQJGKs0Bu57nBrbrIQPxatUD9fsLBim/SQMBcgL9D5bDBB2HKQEL1VUAWSp3Biv+CQDw0
ZUAiuZnBc7WwQCT5QkDsXKfBpr8HQa9GzECYW7rBUps/QIAjK8BlKonBUpu2QNJne0AnYIrBg9dq
QOIoecC7RprBn2t0QB7adMBtAI7BwriyQL5z5kAMiNDBU6ysQB4xcEBaxZXB2TKEQAi/SkBdrqPB
OQU7QELtckAMDJTBSJDwQGhbSEDovpvBORfUQOwuzkBAQsvBt47dQHqnEMDKyLPBQqmfQO0AzkCI
INjB2BiVQLWu9UB0fMnB0715QJRZYUD9rbjB48LrQD9ID0CCj7bBabuLQA53nkC+gMjBGP3+QB5N
nb0z0rvBZCOQQHCAMT+t5Z/B3PvzQCS+mEB7darBDy8UQVtauECKGL7B5HUFQaOM6UDjG7/Bd7gM
QfHp1EB1MrLBCCVIQNZDKsBmboDB2G1VQJzY27+GjIzBrAj3P5GSNMCyEIvB4reZQEZHiEBMGYbB
+qjBQPA2PkCkA4fBfOXPQLPrlUC5eYnBX3QmQDd2dsCMVpzBTBWDQFvnmsBiKJ3BmCacQOgJa8Bu
BIzBr2NeQBbYmMCaiIrBCSPCQKPvAEETe9TBRORUQKuyPUAPJKjBJ1wCQLuYaEAeiZfBzpg9QPST
g0DLdozB0vGYQAgZ0780pqDBCVWFQN+kE8B0KZrBLBDiQIS7l0A+wbHBvmrYQK4FpT/GDrPBZ7bo
QB/vsUB9vLrBww7gQHDCjr2kd7XBpJumQKcaHj8jIaXBIaqaQJnxhkAlSrjB8kuuQN88Ob+YZqfB
fda6QFrF0T8I6arBka+6QL8mgkCRdbDB+KmgQIWIoUCpLsHB+GXIQJhUt0BpgcLB1QfLQM4Ai78A
pK/B2HfLQL7GV0A2M53B+3WDQGAwYUBLypnBvcuyQF0kRUC5Z6fBYs94QIrXo0BgOcnBefGeQNbD
osBOmJXBlq+1QJqXc0DpHYrB9rBcQDbERcAPOJLBPrhgQLxlksA7TJXBjjG1QMh57kBHGs/BSris
QHy2a0Bkl5XBUcmFQOWbT0AiAqTBRIQ6QCIBaEA5NZTBVN7xQMioTUDOnpvBBz/TQF9jzkAFlMvB
czbTQD6yGMBM47HBqJzKQHC5CUGH69DBh7aiQKjt4UBDb9jBvgb7QM0YlEBp2avByhbpQIYBBECn
arfBmXwDQVArwkAftbvBaw/2QGpsqr7uybvBwaGQQPtdYD93yp7BBsB5QH2Ka0Dqa7fB+oNNQBY+
vkDlFMfBxJaJQF9zqUAeQ9HBYCFVQKB/hUAyKsnBZzWfQKfRxMA30pfBQUOxQBVMkMAJhpvB+5Gt
QAjWnsCzpo3BugKYQHXigUBq1oXB/kjCQOqDNkAaFIfB5X/NQPkyk0Ce04jBh1V6QNSNPMATUorB
4H8ZQNHiMMBx7ZHB/t1DQIaYlsCAQZ3Bc3s8QHkipcAqYo/BVLacQKcb80Dz4sjBYQhZQOcBSkC/
3ajBFNYCQD1QX0Dq/5fBORs7QA+cdUAfZIzBOlKZQGBa0L/QiaDB0PCCQJq8CcBX1pnBYjybQGdd
gkAMSbnBw7PaQLRfpD9pqrLBir2iQDEtnUCRF8LBnGDkQKhIlL1frLTBMFCmQGerGj/qaaXByRvf
QFVtmEB1arHB5/GvQEWCO79fQqfBZcK6QLLQzz9aD6vBDiC5QNpugEA8zrDBufrmQHjAskDYPrrB
PsfIQMnutUCKl8LBnw/PQG7pi7958q7BChDLQO8eVkAkf53BAnGDQHLJY0AV9ZnBJKGxQN13Q0B4
oqfB4/EHQXCdzEBxmbrBnWqSQPQDmsBxKJDBV4q2QHQYdEAxZorBthNPQE7LKsB8X5HB0IJLQPJO
hsBv3ZHBVjKwQFma5EAH69DBgf+sQCbpbEAR3pXBW/OEQE0BT0BpHaTBDH47QFZwbkC5QpTB3DDx
QAAxSECd6pvBDuXSQPgK0UAlCMvBDSzZQLzoGMDFxLDB1RCfQJIhyEC469fBC56RQH1j9EB3OMrB
uhR9QPRIXkB6+7jB3ZbrQOgCBECo6bbB8ZSLQMX6nkBLfcjB4SD8QDhDqb6embrBroSOQJblWz8U
fZ/BgVL2QB+ElkBvCKvBg4cUQb/suUDsmb7BAiYFQedx6kCcDr/BGgcNQUNK1EBQZbLBTCSQQDob
vcCAjZDBlUOoQF2JjsDHbpbB17+eQCN4kMDURIjBommZQNWAg0B0D4bBuNbBQDr3NUDtX4fByofP
QH1YkkCuK4nB48xoQA76FsCkkInBcR4OQLTWEMBSXZLBDiYzQDoakMD1v5nBkx4gQP8IksAClovB
Rc29QBFp/0DwftXBb6lWQB3zR0CV06jB0RQDQHs3ZkCV5ZfBbYc9QO1XfkAKhIzBo5+ZQKgj1L+z
OqDBEdqCQMWFCsDWhZnBFqebQA7CgECncbnBiT7aQDYdnj9ZxbLBxtSiQL8unED9K8LB3UHjQEK+
/73B1LTBRqanQFZmEj9vCaXBYgLfQKyll0CEcLHBr2GwQPbTRL///abB72K7QOjJyj9R7KrBcVy5
QB5EfkDt5rDBVmTmQBvMskDpH7rBgjXIQKzxtUBteMLBVzXOQGjTkb9B967BwkPLQK2nVUA3hJ3B
3p6DQAHCZEAOJprBjA6yQIs+QUBkqKfBs7cHQXByzEAYfbrBMfeRQNKhl8AKAI7BmlC2QBK2d0Bx
jYrBzgFNQEj2KMB5F5HB8FdLQBdthcA835DB8rquQIDW30AZZtHBYROtQLtcbkCeBJbB3E2FQOcq
TEDPLKTBGb87QBQ/ckAkkpTBuGbxQLqcSEBL1pvBHIzRQLAL0kADtsrBikDXQDMYHMCM9rDBkI2P
QPv58kANfsvB46S+QJLd/ED7aNjBecx+QCy9WUCGQLnB987qQNGFAEAbKbfB9POLQCimnUAko8jB
UE76QFoZyL5F6LrBQx+RQHjhVT9O1Z7BVGH2QBN7lUABGavB1C4UQZnNuUCKmL7Bw+4EQfSC6kA7
2b7B1/QMQZ2v00DnSLLBXniQQEjMusAD5o3BAoapQKsrjcA0/pPB7ZKbQMHui8A/DobBAyGZQKnw
hUAAVIbBtU7BQHoNOkCBUIfBJ3DPQAYZlEDvbYnBqfRjQMUNEcDjU4nBiuoLQIniEMCakZLB92g4
QDpZkcBxzpjBz4IcQFAckMB93orBja2hQPoLxEDQs9XB6ndXQNoxQkAZ0qjBMGYDQPo2aUBDMZjB
fqM9QPaAgkAM7YzBWhKdQBil8b/p8qLBaaKMQEStNMCIVp7BM1HfQDeRmkDg9rDB1RfZQFriqj/K
K7PBtRnmQF6btEB5+rnBVgziQOhWQDyQN7bBY8GnQNADBD9/g6XBmx2cQDxSgkAhpbjBa/mwQKCl
Tr9KhqjBEiu7QCsBzT8e6qrB+My5QIVtgUCCMbDB5NeiQD+Om0A4xsHBJiHIQG7/tUBha8LBCwvO
QOzJh79U7rDBjOPKQM8YVECx/pzBDwyDQOCGYEDftZnB2DuyQNAvQkD4MafBeTGCQDELl0BTs8rB
BUpGQBAtM8AptofBqmq1QGsKeUDeKYrBqPNyQOozfsAZ8ZjByhJ/QLoYecC4tYzBoHixQMH/5kBi
W9DB4gGsQIgHXkAPJZXBgEGFQAOKSkBkzaPBtWs6QENMdEAHeJTBZKrxQKI0T0BfnpvB0zbTQJsq
z0BqKsvBEWTXQLQcFcCq5bPBcDG+QCsFCEFFxtHBroepQGmt1UCaItrBBsb2QOTBmUBSn6rBghfp
QFTWCUABJLfBXl0BQXvfx0DGc7rB9Fj4QAeFOr4PorzBWbWRQCV7ND/lCJ/BXOt+QFZBXkBpGLjB
mCZRQOnFrkBll8nBMOyRQDRtnEAHddLBptxoQJRObUCOhcrB5KVQQGhzMcAhBX7BAP5WQIRY6b9t
LovBJaUCQHNwQcDmX4nBKYKXQFP5e0ChiYXBNFXLQM3DSkBgbYbBkXvEQFpUnEC5SIrBmhIuQMTf
f8DBv5rBb62IQHiKnMDH6ZvBRkKhQLp+asDE94rBsStuQHahm8A9KYnBkImUQPnG5UDGWsvBCepX
QCjGQEDui6jBQNICQGc1ckAgbJjBc3I7QJxSgkA9vIzB

>  <OMEGA_E>  (61) 
oFg6PoD4TT44mE8+ILJyPkBRcz5gbnQ+CFM6Pg==

>  <OMEGA_NBR>  (61) 
    164850

$$$$
50168838
     RDKit          3D

 50 52  0  0  1  0  0  0  0  0999 V2000
    4.8475    4.0695  -23.1660 C   0  0  0  0  0  0  0  0  0  0  0  0
    6.8860    1.2981  -22.2421 C   0  0  0  0  0  0  0  0  0  0  0  0
    5.0942    4.9176  -24.2647 C   0  0  0  0  0  0  0  0  0  0  0  0
    7.2068   -0.0228  -22.5879 C   0  0  0  0  0  0  0  0  0  0  0  0
    6.9312    4.8012  -22.1373 C   0  0  0  0  0  0  0  0  0  0  0  0
    5.1269    0.4741  -20.7550 C   0  0  0  0  0  0  0  0  0  0  0  0
    5.7654    4.0042  -22.0887 C   0  0  0  0  0  0  0  0  0  0  0  0
    5.8265    1.5663  -21.3436 C   0  0  0  0  0  0  0  0  0  0  0  0
    7.1777    5.6485  -23.2258 C   0  0  0  0  0  0  0  0  0  0  0  0
    6.2728    5.7036  -24.3035 C   0  0  0  0  0  0  0  0  0  0  0  0
    5.4445   -0.8635  -21.1098 C   0  0  0  0  0  0  0  0  0  0  0  0
    6.4867   -1.0969  -22.0344 C   0  0  0  0  0  0  0  0  0  0  0  0
    6.3320    3.3545  -19.6816 C   0  0  0  0  0  0  0  0  0  0  0  0
    4.1053    3.5896  -19.2375 C   0  0  0  0  0  0  0  0  0  0  0  0
    5.5298    3.0178  -20.9320 C   0  0  1  0  0  0  0  0  0  0  0  0
    8.4476    6.4743  -23.2501 C   0  0  0  0  0  0  0  0  0  0  0  0
    5.7226    4.0354  -17.3447 C   0  0  0  0  0  0  0  0  0  0  0  0
    4.6010   -2.0959  -19.2088 C   0  0  0  0  0  0  0  0  0  0  0  0
    3.6957   -3.2934  -18.8337 C   0  0  0  0  0  0  0  0  0  0  0  0
    5.5392    7.2012  -26.0189 C   0  0  0  0  0  0  0  0  0  0  0  0
    5.4065    3.8072  -18.7602 N   0  0  0  0  0  0  0  0  0  0  0  0
    4.1414    3.1905  -20.4865 N   0  0  0  0  0  0  0  0  0  0  0  0
    2.9354    3.7538  -18.5130 N   0  0  0  0  0  0  0  0  0  0  0  0
    7.5316    3.1809  -19.4889 O   0  0  0  0  0  0  0  0  0  0  0  0
    4.7008   -1.9497  -20.6515 O   0  0  0  0  0  0  0  0  0  0  0  0
    6.6140    6.4950  -25.3842 O   0  0  0  0  0  0  0  0  0  0  0  0
    6.8114   -2.3601  -22.3909 F   0  0  0  0  0  0  0  0  0  0  0  0
    3.5481   -3.3344  -17.4820 F   0  0  0  0  0  0  0  0  0  0  0  0
    4.2372   -4.4692  -19.2546 F   0  0  0  0  0  0  0  0  0  0  0  0
    6.0266    8.3836  -26.4736 F   0  0  0  0  0  0  0  0  0  0  0  0
    5.0723    6.4776  -27.0679 F   0  0  0  0  0  0  0  0  0  0  0  0
    3.9525    3.4653  -23.1453 H   0  0  0  0  0  0  0  0  0  0  0  0
    7.4514    2.1156  -22.6644 H   0  0  0  0  0  0  0  0  0  0  0  0
    4.3846    4.9684  -25.0773 H   0  0  0  0  0  0  0  0  0  0  0  0
    8.0108   -0.2162  -23.2826 H   0  0  0  0  0  0  0  0  0  0  0  0
    7.6414    4.7569  -21.3249 H   0  0  0  0  0  0  0  0  0  0  0  0
    4.3476    0.6652  -20.0320 H   0  0  0  0  0  0  0  0  0  0  0  0
    9.2516    5.8976  -23.7307 H   0  0  0  0  0  0  0  0  0  0  0  0
    8.2717    7.4005  -23.8168 H   0  0  0  0  0  0  0  0  0  0  0  0
    8.7416    6.7249  -22.2202 H   0  0  0  0  0  0  0  0  0  0  0  0
    4.8238    4.3929  -16.8208 H   0  0  0  0  0  0  0  0  0  0  0  0
    6.0625    3.0939  -16.8887 H   0  0  0  0  0  0  0  0  0  0  0  0
    6.5185    4.7903  -17.2640 H   0  0  0  0  0  0  0  0  0  0  0  0
    4.1750   -1.1756  -18.7827 H   0  0  0  0  0  0  0  0  0  0  0  0
    5.6062   -2.2611  -18.7937 H   0  0  0  0  0  0  0  0  0  0  0  0
    2.7194   -3.1344  -19.3149 H   0  0  0  0  0  0  0  0  0  0  0  0
    4.7371    7.3743  -25.2863 H   0  0  0  0  0  0  0  0  0  0  0  0
    3.3358    3.0268  -21.0558 H   0  0  0  0  0  0  0  0  0  0  0  0
    2.0515    3.5646  -18.9408 H   0  0  0  0  0  0  0  0  0  0  0  0
    2.9750    4.0615  -17.5623 H   0  0  0  0  0  0  0  0  0  0  0  0
  1  3  2  0
  1  7  1  0
  2  4  2  0
  2  8  1  0
  3 10  1  0
  4 12  1  0
  5  7  2  0
  5  9  1  0
  6  8  2  0
  6 11  1  0
 15  7  1  6
  8 15  1  0
  9 10  2  0
  9 16  1  0
 10 26  1  0
 11 12  2  0
 11 25  1  0
 12 27  1  0
 13 15  1  0
 13 21  1  0
 13 24  2  0
 14 21  1  0
 14 22  2  0
 14 23  1  0
 15 22  1  0
 17 21  1  0
 18 19  1  0
 18 25  1  0
 19 28  1  0
 19 29  1  0
 20 26  1  0
 20 30  1  0
 20 31  1  0
  1 32  1  0
  2 33  1  0
  3 34  1  0
  4 35  1  0
  5 36  1  0
  6 37  1  0
 16 38  1  0
 16 39  1  0
 16 40  1  0
 17 41  1  0
 17 42  1  0
 17 43  1  0
 18 44  1  0
 18 45  1  0
 19 46  1  0
 20 47  1  0
 22 48  1  0
 23 49  1  0
 23 50  1  0
M  CHG  1  22   1
M  END
>  <OMEGA_C>  (62) 
qx6bQFM5gkD2U7nBUlrcQN0mpj/f77HBtQOjQNlcnUACHsLB/Z3mQFDburz3s7TBH8zdQLijmUAq
GbHBig+kQA298j4vCqbBR364QAoigECktbDBZXK6QMd8yD+qv6rBwa/lQBvAtEBuzrnBvbrIQJGD
tkCEbcLBMzmuQMINXb/r4KjBs5LPQENojL9wRrDB8Z/KQNywVkDpc53Bul6DQD28ZUB/5pnBJPSw
QBsjQUCzdKfBVykHQcctz0AtALrBPB+3QOwhgUABworBozuTQC8jBsC0q5nBQoZsQKjGUsBiq5bB
w0CxQIxw5kC8JtDBSQKtQLmoc0DPFJbBZYaEQHoxTEBb5KPByNw7QDM+cECOGpTBqwLxQBaTS0BL
6ZvBQm2WQAGQ+b85NqXB2qXTQAvXz0DCEsvBwfbZQC4MF8CpILPByRRjQAtmVcA624vB6ZaHQGQD
j8BnCZrBp9nAQBYjBkHXydPBrVCiQJtIz0Aii9jBSfZ8QADIXUCbKbnBzHHuQH9mB0DAULXB1E6M
QP38nkA2nsjBESwAQbRlXb68QrrBRIb0QFM4mEBXmarB4B+LQPZHKj+VQaDBYQYUQSG5vECG2L3B
z1gEQSjR7EDoiL7Blt0LQcMy10DhwrHBs1yaQGqSjEAUkYbBWwDCQG0CRkD2G4fBu5fQQF5KmUCl
HIrBvpmFQDt6lr8EQ5bBCmazQHS1EMCCWZbB8QouQFKaSMAEhZrBE5aXQJz660BiSsrBZH1VQHW2
QUBdcqjBQ0wDQJ0hZEDFhpfBVmY+QNr3gUCdf4zBnEyaQIH2gkCUMrnBr3nbQCuSpj/YVbLB9jmi
QCY6nkDT+sHB2CDmQKDYUrwrKbXB8cTdQDMJmUBtKrHB/bKmQLke5T53k6XBcxW4QF8SgED4rLDB
WO+6QBCjxj8du6rBkKHlQCVWtEC917nBf1bIQFHItkAnYcLBPE6xQAKaY7/XeKjByvrQQIOhjL/u
XLDBpY3KQGFHVkDwe53BcFiDQPOWZUDI6pnBENywQP4UQEDbc6fBPVIHQXMuzkA9GrrBMlC3QH5n
gkBC5YrByLmMQMUE+r/ObZnB2nh2QBlkVcBU+ZXBEjixQFoz50CNEtDBqwWtQIJEdECzKpbBYGmE
QLhhSUDAzaPB6gs8QExHckDQI5TBwffwQP+IS0Di8pvBYtGcQKg/AcBHVKTBYmLTQGkZ0EC0B8vB
z8HbQHq8FsChUbPBJ8o3QBdEb8DIzZzB0VxVQJ4LUMDo7IvBqjvBQJl1BkFGrtPBwvahQE9j0EDs
fNjBDqJ6QMRRYEAj+LjBGTjsQFk5CEDP/LXBujiLQHRioECpZ8jBdbn+QEQ8Rb66DrvBb9r0QJQJ
l0BRwarBaSCPQPtwID8wbJ/BrvUTQal6u0DdDr7Bmp4EQRgL7EC4j77BlkUMQT3M1UAR4LHB1Jea
QHIajkB3u4bBg1nCQH08SUCZGofBkLjQQLKvmkBRZ4rB67plQDK/mr90/5jB/tmmQAss1L/QBpTB
YQ+WQO96gcAnIJbB2aaXQCbx7EBcMsrBvjJVQKwWPED/OqjBZUsDQNS/ZUBofZfBuPE+QDH7g0At
n4zB4YPfQHZrmUATQbHBSJbVQJqwoT8bYrPBxEHmQDVxtECWHbrBECffQHAYa70dPLbBplCbQHmR
g0A3wLjB99GoQEqr4D6GtaTBB5S5QEGygECQc7DBfOa5QKaSxD9jtqrBBdShQIMfnkBAtsHBztPH
QKWVt0D0bcLBhGezQD1Zab9MbafB8GjOQJbtkL/ZU7DBXb3KQCoEVkAbVZ3BUU+DQA50ZUDs75nB
R5qxQOEtQEDeV6fBrFCAQBaSm0AqecrB8p62QCGvg0Cp5IrBl7qEQO45+r+yzJnB7kKDQKdFTcCi
cJLB7r+yQJ4Y6UCLpNDBAtWsQHzQdECkIZbBmOyEQLXbSUCk1KPBJE07QBzTcEAiPpTBSj/xQPrv
TEAy0JvBzoenQJxZA8BWhaHB5aXTQCfN0EDjLMvBQ3PZQPgUGcDwI7PBuz9zQFzRisALApjBNCZK
QAxhQcBPu4rBDFTBQFCXCEEWn9LBIaWpQLKP1kCTOdrB1GX3QNeCl0ADB6vBQnnjQIkeBUAd2LfB
U6MBQZ4gx0Auj7rBhZHzQDHCgL7xB73BOph8QDnRYUBLPbjBE7KTQNQNIj/EDJ7BRMxOQJzAs0Dq
BsnB5nqPQLWVoUBnRdLBgYtjQMoHd0DOecrBvaeZQHaAj0D024bBP73BQB6dTEDj64bBptLPQCEz
nED2d4rBYGVMQBCL77/KIJ7BN4KJQIaHh79c1pTBWwOjQG+6U8Bjuo7BFPOVQKQ/6kBll8vB46tW
QKMkPUAqXajBEwADQJG4Y0AbrZfBoko9QGIQg0D5s4zBLbHeQBrimkCF67DB0M/XQLbloj+fF7PB
QjPlQPQZtkAgwLnBX9HgQAQPPr3NJLbBxdGbQG7TgkD9vbjBXsmnQOpx3j7MI6XB5p25QM/SgEBl
UrDBNa66QEy3xD/qtKrBhFWiQOJWnUCQtcHBDHvHQMb/t0BoP8LB9QyxQNNlab9bMajBlJTNQCdQ
kL+ty7DB/+HKQMCvVUAGOp3BJliDQKabZUDW/ZnBTAWyQDfjP0AvRafBM2SCQDrqmEDKwsrBvTC2
QGQEhEAi3orBE9KKQIvX8r+o75jBW/14QPIuUcB5V5TB/IK1QPLb60CgldDBtMOsQGDRdEDRGpbB
20GFQLW2SEBt0aPBk/M6QNxGckBZb5TBQ2vxQEJlTUCVrpvBRJSfQAdeA8BHSqPBAiTUQOwO0EDx
IsvBmmjXQFfDGMBc47PBLZlSQODhRMAosYrB/HeeQFFEg8DI8JLBmRSlQBEK2EBEXNnBLpeVQFs5
+kChGsrBgRT2QGjZmUB0kKrBoj7nQO3yBUCvLbfBo74AQSDsyUCbB7rBabf2QPqUb75FqLzBF2V+
QE0PX0AiUrjBnEKSQFZTHz/BjJ7BwZlQQOwesEAgpsnBPYCSQKQdn0AdbtLBKF5qQNWScEAex8rB
AhaZQLXpj0BE6YbBlzjBQH6JTUBv0obBMlnPQJaTnEAtcIrBoR1dQA9CoL8i35nBQ2yhQAbWtr8Z
VJPBdFBLQHpibcABCZrBj63HQHXyA0GZW9PBpqNXQLOfOkBFV6jBD+ECQEomZUDQ7JfB6GQ8QGNF
hEDW74zBz0bgQKsAmkBCa7HBSYjRQBLGkD+qbrPB3nrmQJHjtUBRIrrBDuHYQBhLcr4Fa7XBgRWd
QIORgkAnNLnBDgupQMScBj86dqPB5iS7QGcKgECG27DBWM+4QHSMwz8kgarBIvaiQIwjnkDl+sHB
YDLIQHm4uEBefcLBcZ6xQA0hWL99IKXBlCnJQLy/nL/gWK7B02bLQO3KVkDLkZ3BiMeDQEhSY0AV
LJrB2W6yQAoCQUB/oKfBvYSBQIrOm0BRwcrBVIO2QLDpf0D624rBb6uKQHpUMMDazJ3BAQF8QLlp
VsDpsZLBJdaxQGGq60D2MNDByCGtQO4GckAVOZbBw7GFQGa8TUDeSKTBM+U7QHCKaUAxbZTBVeDx
QL1yTUAaBZzBT7qqQPxU27/ijJzBFE7TQLfi0kCcGcvBDGTTQCg7IcBNKLDBsjpcQF9iGMCLJIzB
/U+gQHMde8CYyo3BJQ3AQCoMCkHc3NHBYhioQD922kCs49nBuu33QONjmEDYIavBj8neQIk78D8Q
u7jBCHcBQVF5yUCkbrrBNrrqQLakCL+jbLzBx76AQCiqXUBp3rjBPPyVQJQ4Uj8Lp5zBEw9QQJ4z
s0BoIsnBYoWQQCQYo0ArgdLBMoFnQDzZdkA6/srBJlWZQMaqikDcuobBM8LBQKW5Q0BRQ4fBQX/P
QJaLmEBVD4rBq7aXQOidY8DT3qLBICNcQIgAFcCGoKHB841KQHyQg8BlKZTBK22VQNjl60D5/srB
VJZYQKHZRkDYEqnB4voDQMYzXUD9/5fBTT89QEFdekCwtYzBkkmbQLL3gUDkYLnBitvbQFXApD/V
7rHBWxejQHcXnUCkLcLB09zlQPhWEr2/rLTBwrPdQIj1mUBfHLHBZ7ykQEtj8j7fn6XB26S4QNoM
gEB/v7DBPYe6QGfsxz/7mKrB11vlQPpAtUD+zbnBvY/IQBuItkB8d8LBS5CuQPrWXb++dqjB0hvP
QGBvjb9IFbDB2MDKQFsSV0A7d53Bk3iDQBpzZUCZ55nB4RixQM8zQUCQcqfBPLUGQZyN0ECB6bnB
AiK3QKCugEAcvYrBU4STQM/fCMBkWpnBzF9zQBfrWsDPr5bBHsywQBmX6EACsc/B3hStQAJ4c0Av
E5bBbquEQM+FTECP6qPBSAY8QHZMb0AjGpTB7ifxQAsMTECL8JvBfFmWQEBc+b8Z3qTB3w7TQEG/
z0AAK8vBL7PYQH2WF8DQF7PBseOJQL7Bj8A4C5zB6+0fQHuXUMAxf5nBCayfQOpzAUFiJsjBPUnB
QKNxAEHtr9fBWXd9QP0EXUBzNrnB8bPtQOJ8BkAocbXBX3mMQIV2nkDCs8jBRyr/QOZ1cL4jV7rB
k2n0QMS1mEALm6rBu5GMQN6RKz/wpp/BB9MTQcCvvkCft73BC6QDQc0Y7kCecb7BzTMLQUi22EDq
prHBl1aaQAbxi0A0iIbBBQvCQCXoREAFJofBY5DQQF/bmECBCYrBvniDQP1por/cwZXBx/mzQArc
DsAbCJbBuGN4QMh6ZcBLAo7BuiuYQJ3U0kA/2NLB6tdVQHydQkCUgKjBcIQDQJkoY0C7iZfBInc+
QPhFgUCEeozB2SCdQJSFgUAHsrnBFXHbQF5zlT8SUrHBvyikQMCInUAUV8LBzETjQPhATr5kK7PB
307eQB1gm0AIJ7HBFCmhQDDTDj8DUqXBAWO6QATRf0DaC7HBCrW5QFa0xz+BearBZvLkQLLjt0BD
qbnBo4/IQP1guECBa8LBmzeoQEjTT78CI6fBVuLJQHXnmL/OLq7BQoXLQMLlV0CSnp3BlwCEQDKO
YkC3GprBXjOyQLh7QkCtrqfBTdYFQXkA1UBZhLnB0N62QGK4eUDyq4rBe3WZQJzIO8B1853BogaA
QLg0UsAZn5PBBrqxQELD7EAjC8/BpFutQDpLcEBgG5bBJa6FQLY4UUB7WaTBWow8QFThZUCsSpTB
w/HxQMhsTUAgEpzBl2yKQIk61787gqLBtenSQGXh0EBLOsvBEpPRQPCFH8DljLDBWUMqQK9MVMDL
gJXBt82HQC0SF8Am4IvBjv2sQDgZB0G6L8jBraS9QF7m+0Crw9jB7DuBQNc8WkAmqLnBwTDvQIok
9T8KIbXB7byNQLuCnkAc6cjBte/8QG77/b4BdLjBn+L0QBVomkCMnarBk0CIQMoJWz8n05/BiG4T
QQuxxEDaVr3B2y0CQY6a8kDQ6b3By/cJQYbf3EA1MbHBO7+ZQFHKhkDTZYbBjhzCQPMsPEADdIfB
auXPQK47lUAjl4nBW5+7QOPCNcAw+JvB2ByVQElQb8D82KPBKwOLQDfHiMC48JDB1qSTQGKq2kAO
r8/BV5tYQM1pTkDbNanBUJYEQA6yWkC26ZfBIRA+QL92c0DreYzBkM3gQFJTmkBVdLHBNxXaQOz0
mT/wrrHBe2TnQCumtUD0O7rBFqjhQI6RKL6Lo7PBByqdQLpBg0DVOLnB0+SgQGgyFz9kX6XB2FG7
QHH4gECl2bDBiEm5QGkOzD8xjKrBm7SjQAwvnkCLEcLBuQjJQNgouEBtjMLBytinQAQJR7+xQafB
D/fIQBhYlL/DeK7BwX/LQJbQWEAscp3Bn8aDQII7YUAu8pnBNn6yQBqLRECrjKfBnwaCQCFRnkBN
zsrBP0+2QJg/d0BebIrBmxqbQLrZOMDLzp3BkRqCQMZPUcCFepPBCje4QOZM9ECoRc7BLAWtQJLA
bkCr35XBQ8uFQIZzU0CaQ6TBLtg7QKqnYUDvJ5TBTebxQBBKTkAV5ZvB2emKQNEy07/dWqLBr7DT
QIpT0ED2c8vBRAbRQLA/HcCTwrDBU10uQKx7VMCcS5XBE6iJQOg2F8BPmIvBE8+nQGYy7UBeLdjB
IKeXQFy/+0A5QsfBaGP4QPupmEAeJ6vBM1PtQALS+T9morXBWAQCQTHuyEDYnLrBKJj6QEPq6b4P
JbnB4YiAQG3tX0Ai07jB7TKIQLDTYj84z5/BHXpTQFPDtkDGAsnBkziRQPyZpUAviNLBpGJlQClZ
fUDYNsvBNuiYQEyLhEAwIYbBlE7CQLPoOUDvUIfBELLOQPiOlEDOO4nBtii9QLXAMMA505vBZI6X
QAZ8bMA5uaPBfJqNQNBciMDN9ZDB+JbMQMR8CEHumM7B/URZQFIWU0AWNanBvyEEQN0DV0Cd3JfB
F/c8QHWZbEBsRozBhQibQCsJgkBmpbnBe3HUQKDHkT9EJ7PBKISiQI6WnkCdMMLBaRjeQLJsW76w
BrXBJSbfQG1+lkBzsbHBITypQM4H+D7cvKPBUxm5QGVffEAkNrHBQPO4QFQiwD9Lo6rBo5PmQEcU
s0CEHrrB/WfIQIqht0CcaMLBvjm0QPfvXr+ZS6XBZBzOQHb2m788La7BVsvKQOxeVUAp453BN7WD
QD9OZkA/VZrBWPCwQDl7PkDj2KfB3Z8HQQZ8zUAMKLrBTcO3QAIGg0CgXIvB5YeIQB4tKcA5up3B
s3J5QHAUTsD+iJLBhLevQPRr5UBusdDBQm6tQMXxdEAsn5bBipiEQL4qS0B7RKTBg/k8QCeacUAo
eJTBAgPxQG/USEDWQZzB7GetQJYV4r/Q75zBtH3SQFv000AzkcrBsQXaQFsYIMCw2K/ByoxdQK6b
DsBt74vBAhufQEvOdMAd6I3BpZaVQOwf/UB7UcrBtMzAQDw5/0CxTtjBcGZ8QJ35XUCdiLnBkAni
QGSf8z8sObjBoWKLQC9koUAsksjBBufxQJl7+b7YwrvBvd72QFP8kkCjeKvBnnqUQOv2QD+QLJ3B
MEYUQVj/u0Dlb77BoJ4EQb4w7EAnML7B/r0MQShy00Cg3rHBnjSbQKZdj0CyPofBXETCQN9rSkBY
fYfBcJHRQJ3lmkBW6orBSgeQQOVHXsAtMaPBGVZaQAXEBMD14KDBEg1GQLUtfcDjwpPB/7CdQAge
y0Bxa9TBJGNVQAWXQEByxqjBDCoEQJzWZEA3ypfBZhRAQAdCg0Ak64zB

>  <OMEGA_E>  (62) 
QOFHPji+Sj5INkw+uKhoPlAScz6weXk+QAh/PsRfgD6oLoU+

>  <OMEGA_NBR>  (62) 
    238916

$$$$
50157501
     RDKit          3D

 62 66  0  0  1  0  0  0  0  0999 V2000
    5.9443   -0.4864  -22.9639 C   0  0  0  0  0  0  0  0  0  0  0  0
    3.5370   -3.0138  -17.8608 C   0  0  0  0  0  0  0  0  0  0  0  0
    5.5756   -1.4925  -22.0572 C   0  0  0  0  0  0  0  0  0  0  0  0
    3.8112   -1.9862  -18.7755 C   0  0  0  0  0  0  0  0  0  0  0  0
    5.8561    0.8644  -22.5911 C   0  0  0  0  0  0  0  0  0  0  0  0
    4.7921    3.7182  -23.1760 C   0  0  0  0  0  0  0  0  0  0  0  0
    5.1587    4.5682  -24.2341 C   0  0  0  0  0  0  0  0  0  0  0  0
    4.9860    0.2087  -20.4110 C   0  0  0  0  0  0  0  0  0  0  0  0
    6.6569    4.5669  -21.8572 C   0  0  0  0  0  0  0  0  0  0  0  0
    4.2272   -4.2378  -17.9717 C   0  0  0  0  0  0  0  0  0  0  0  0
    5.4265   -3.4658  -19.8322 C   0  0  0  0  0  0  0  0  0  0  0  0
    5.1099   -1.1522  -20.7658 C   0  0  0  0  0  0  0  0  0  0  0  0
    4.7739   -2.2094  -19.7849 C   0  0  0  0  0  0  0  0  0  0  0  0
    5.3464    1.2300  -21.3152 C   0  0  0  0  0  0  0  0  0  0  0  0
    5.5544    3.6916  -21.9827 C   0  0  0  0  0  0  0  0  0  0  0  0
    7.0087    5.4498  -22.8949 C   0  0  0  0  0  0  0  0  0  0  0  0
    6.2585    5.4406  -24.0971 C   0  0  0  0  0  0  0  0  0  0  0  0
    5.9816    2.9329  -19.5742 C   0  0  0  0  0  0  0  0  0  0  0  0
    3.7654    3.3811  -19.1954 C   0  0  0  0  0  0  0  0  0  0  0  0
    9.8891    6.1551  -20.9244 C   0  0  0  0  0  0  0  0  0  0  0  0
    9.2608    7.5440  -20.8048 C   0  0  0  0  0  0  0  0  0  0  0  0
    9.5040    5.6831  -22.3356 C   0  0  0  0  0  0  0  0  0  0  0  0
    7.9093    7.3930  -21.5059 C   0  0  0  0  0  0  0  0  0  0  0  0
    8.1793    6.4183  -22.6845 C   0  0  0  0  0  0  0  0  0  0  0  0
    5.1958    2.6960  -20.8673 C   0  0  2  0  0  0  0  0  0  0  0  0
    5.3766    3.7399  -17.2594 C   0  0  0  0  0  0  0  0  0  0  0  0
    5.8833    7.5372  -25.1204 C   0  0  0  0  0  0  0  0  0  0  0  0
    5.1499   -4.4459  -18.9411 N   0  0  0  0  0  0  0  0  0  0  0  0
    5.0681    3.4609  -18.6725 N   0  0  0  0  0  0  0  0  0  0  0  0
    3.8045    2.9550  -20.4416 N   0  0  0  0  0  0  0  0  0  0  0  0
    2.5959    3.7047  -18.5155 N   0  0  0  0  0  0  0  0  0  0  0  0
    7.1691    2.7001  -19.3694 O   0  0  0  0  0  0  0  0  0  0  0  0
    6.5858    6.2759  -25.1407 O   0  0  0  0  0  0  0  0  0  0  0  0
    6.2962   -0.7518  -23.9498 H   0  0  0  0  0  0  0  0  0  0  0  0
    2.8049   -2.8688  -17.0802 H   0  0  0  0  0  0  0  0  0  0  0  0
    5.6479   -2.5304  -22.3467 H   0  0  0  0  0  0  0  0  0  0  0  0
    3.2948   -1.0400  -18.7090 H   0  0  0  0  0  0  0  0  0  0  0  0
    6.1781    1.6320  -23.2792 H   0  0  0  0  0  0  0  0  0  0  0  0
    3.9247    3.0822  -23.2736 H   0  0  0  0  0  0  0  0  0  0  0  0
    4.5958    4.5530  -25.1558 H   0  0  0  0  0  0  0  0  0  0  0  0
    4.6100    0.4717  -19.4334 H   0  0  0  0  0  0  0  0  0  0  0  0
    7.2401    4.5579  -20.9483 H   0  0  0  0  0  0  0  0  0  0  0  0
    4.0153   -5.0283  -17.2670 H   0  0  0  0  0  0  0  0  0  0  0  0
    6.1644   -3.6463  -20.5998 H   0  0  0  0  0  0  0  0  0  0  0  0
   10.9824    6.2116  -20.8175 H   0  0  0  0  0  0  0  0  0  0  0  0
    9.4807    5.4759  -20.1616 H   0  0  0  0  0  0  0  0  0  0  0  0
    9.1261    7.8239  -19.7496 H   0  0  0  0  0  0  0  0  0  0  0  0
    9.8815    8.2999  -21.3083 H   0  0  0  0  0  0  0  0  0  0  0  0
   10.2909    5.9500  -23.0563 H   0  0  0  0  0  0  0  0  0  0  0  0
    9.3511    4.5938  -22.3462 H   0  0  0  0  0  0  0  0  0  0  0  0
    7.1613    6.9716  -20.8183 H   0  0  0  0  0  0  0  0  0  0  0  0
    7.5565    8.3653  -21.8804 H   0  0  0  0  0  0  0  0  0  0  0  0
    8.3303    7.0048  -23.6029 H   0  0  0  0  0  0  0  0  0  0  0  0
    4.4857    4.1527  -16.7636 H   0  0  0  0  0  0  0  0  0  0  0  0
    5.6759    2.8074  -16.7585 H   0  0  0  0  0  0  0  0  0  0  0  0
    6.1992    4.4679  -17.2006 H   0  0  0  0  0  0  0  0  0  0  0  0
    6.1969    8.1461  -25.9812 H   0  0  0  0  0  0  0  0  0  0  0  0
    4.8000    7.3543  -25.1760 H   0  0  0  0  0  0  0  0  0  0  0  0
    6.1174    8.0722  -24.1882 H   0  0  0  0  0  0  0  0  0  0  0  0
    3.0005    2.8244  -21.0217 H   0  0  0  0  0  0  0  0  0  0  0  0
    1.7112    3.6194  -18.9737 H   0  0  0  0  0  0  0  0  0  0  0  0
    2.6398    4.0226  -17.5684 H   0  0  0  0  0  0  0  0  0  0  0  0
  1  3  2  0
  1  5  1  0
  2  4  2  0
  2 10  1  0
  3 12  1  0
  4 13  1  0
  5 14  2  0
  6  7  2  0
  6 15  1  0
  7 17  1  0
  8 12  2  0
  8 14  1  0
  9 15  2  0
  9 16  1  0
 10 28  2  0
 11 13  2  0
 11 28  1  0
 12 13  1  0
 25 14  1  6
 15 25  1  0
 16 17  2  0
 16 24  1  0
 17 33  1  0
 18 25  1  0
 18 29  1  0
 18 32  2  0
 19 29  1  0
 19 30  2  0
 19 31  1  0
 20 21  1  0
 20 22  1  0
 21 23  1  0
 22 24  1  0
 23 24  1  0
 25 30  1  0
 26 29  1  0
 27 33  1  0
  1 34  1  0
  2 35  1  0
  3 36  1  0
  4 37  1  0
  5 38  1  0
  6 39  1  0
  7 40  1  0
  8 41  1  0
  9 42  1  0
 10 43  1  0
 11 44  1  0
 20 45  1  0
 20 46  1  0
 21 47  1  0
 21 48  1  0
 22 49  1  0
 22 50  1  0
 23 51  1  0
 23 52  1  0
 24 53  1  0
 26 54  1  0
 26 55  1  0
 26 56  1  0
 27 57  1  0
 27 58  1  0
 27 59  1  0
 30 60  1  0
 31 61  1  0
 31 62  1  0
M  CHG  1  30   1
M  END
>  <OMEGA_C>  (63) 
Tje+QBYO+b4OtrfBul1iQLjiQMAC447BiWuyQM4Iv78OdbDBU+pzQOo8/r84NJbB+WS7QKNKXT+E
urTBoViZQDv2bUBeaLnB1ROlQF0ukkCB38HBcY2fQEO6VT7BSaPBQQXVQLgjkkCP267BDUWHQOab
h8ANxo/B0aWtQLrPXcBGqJ7Bg4SjQMh5k79ZIKbBu8OYQB1mDcCNR57BhxWrQPxwnT+IharBir2x
QKVDbECA3K/BUUfgQCtlrkDLKLfBcUXIQEsZrkDKxsDB92i/QMq0O0Dzl5zB8ftwQE5kWEAckJnB
sDkeQTD2xEBDZafBYywUQapo8UA9cKbBOBAYQbnbtUA5r7LBKRn9QNyT7EAeDKzBQN4CQR9jzUDy
ebXBFESmQDSLLEAy8KbBdQ2sQLRab0A1E4rB1kO8QJAw8UCZ9sjB18ukQPtEjsBah5fBIy6iQJd+
XUBNYZXBnn1zQD0fPUB8iKPBjiMmQI8ZbUCmH5TBm2nlQL/OLECA9JrB077SQHfUyEAwIMnB1HrJ
QEZ1QL9Fmb/BA4QzQK2ZN8AqpIjBg7u0QDDyIcALxrLBS91SQNQfhb8irJXB5rLFQG3m0D++O7rB
zi17QBBCRUBIMLrBKxGTQISykUAAP8nBtoSTQBKI8T6Id5vB7a7nQCLakUAJlqfBEH2AQMvnoMDb
IorBJEPFQH1cacBhzKTB+bcvQV/FxkBQiqbB/7AXQTo6r0D2SqHBhwQSQYtd+kAh/53BthoeQTrM
BEFQd6rBsqckQQlmvkBAc7jBOJ4VQVkAk0D5xLLB+yjlQDYX30D3i6bB9M7xQE/YBUEOC6/B80gF
Qfom4ECp0rzBoYqPQNbihEDgG4bBxqC1QKmsM0BaEYbBdl/GQFz5jkDimonB10zGQENWAkFy2c/B
vZmZQGVW60CBaMnB+cHDQLInAUGFgcHBhQhAQLbDNEB+LKjB0QjbP5ijZ0AqypfBLfMoQHS5gEAD
jIzB2NW7QHtf7L5AULjBX8WcQNyljsC3HJjBejWvQNMjvb91PLHBcW2oQJ7UXsBQoJ/B8qi5QJQl
Yj9HIrXBauKYQF2icEA8XbnBdlelQGZ7k0CwusHBBcqcQM+jTz6i3KPBvefUQE1ykUDbta7B0B57
QMvYhMAKWZDBr81qQMm2/b8CJZfBfCWgQFuHk78446bBAHeUQAPkDcAqMp/BFyWpQGLcnT8o6arB
th6xQMC6bEBF2a/BdLbgQKuBrkCYz7bBjWDJQMPXrkAylcDBqNm9QHLbOEDKqJzBaWhuQLWaWEDN
wpnBJh4cQUjI8kAKsqnBOgEOQWSDCkHND6/BO80OQdnvyUD1J6rBN7b5QJaI/EDUi7XBdnsDQQ74
zEBeIbXBpPekQAQyLECJGafB9G+qQN75a0BwIYrBU3W+QNUrykDCk9LBRxVVQLfgO8Cm9Y/B9ceg
QNOMW0DGepXBb/xwQJfYPUBGwKPBkakjQJWRbkD0YZTBj5PjQBjaJ0CB8JrB+8zWQD0oykBPtsjB
zTzHQD8AN7/WNsDB9o2rQDDhrcAURpjBkACxQPS3IMCos7PBtkjAQOJzbMAipKXBeJ3EQH881D+f
frrBlil5QLaLSUDMNLrBlmOTQPqdk0CrHMnBJJSQQM+Y6D6WCJzBYrHnQBjkj0AReKfBqzRpQA3w
nMBjkorBvwBMQHUhgr9evJbBDTcrQYW77kCPGq7BBpwfQfyQ+0DJWqHBs1gGQcieFEGU9ajBjLQX
QfWRFEGUabTB+xQZQXpprUAQwKnB3xIDQXgAyUBFmaPBAvDZQBV1AEHY67HBcxX5QOn1A0Ea373B
XFgPQSgCx0A2dbvBbx+OQPHEg0DHMobBYRWzQO5/L0CjLYbBcFTFQGyTjECyiYnBr67MQNgh4UBj
ONjBVQW/QOXwqUC2HNbB5C2dQGZx00Ct49DBPKQ9QF95NkDob6jB52DWP09/akC4HJjBcmImQLA3
gUASyYzB7mW8QJIS7r5hNrjB4OqbQFTbjsD5IpjBK3GvQA5svb8lKrHBiPanQJMoX8DBmZ/By2i6
QLQ1YT/lBLXBFaqZQA2HcECyPLnBF86lQLd6k0DEl8HBHxWdQApsTj5vyaPBzUjWQPb+kEAUya7B
Me54QHkGhcCpb5DBb65pQLfq/b8yMpfBWTmgQIq9k7/31KbBYyaUQK8ODsAsL5/BNs+pQJygnT/F
zqrBCyeyQHhtbEBcyq/BGdfhQJ1/rkAI07bBEr7JQEYWr0AYksDBa0G+QCxuOUAKkJzBGMZuQJpM
WEBZxZnB0VLmQHRoB0F9Da/BoOD4QOFcCkELabrBYPn9QLEU6EC0UarBl5oLQeFG7kCRLrzBoF0E
QYe9y0C2GbTBuLSlQPA9LEBLBqfB9gmqQDg6a0BVBYrBXm29QLjHyEAotdLB6y9TQOkUPMB2D5DB
rtGgQLFSW0CPZ5XBnylyQG/1PUC3xaPBcZMjQGbkbUB6dpTBVPPjQKWoKEC5x5rBP2TVQIViykAz
0sjBe+nHQAD/N78TGsDBRZaqQJ8krsC8SZjBcRmxQDvZIMANpLPB1wDAQI/UbMBfkaXBU5TFQJmf
0z/PXLrBWLF6QJdsSUBBCbrBuZaTQACEk0Bo78jBgcKQQBBS6D6M+JvBtqnpQDzYjkDZpqfB9mRm
QNQmncBDs4rBbSBLQEcVgr+Ty5bBzCrsQPLDFUFSLarBKrnDQOFEBEHAca/BJhDfQBBLCkGOZMDB
aVoFQQaAGUGf8rrBeLENQU1I8kBPNqbBDVHpQEy81kBUqqTB8SUKQUA/4kCCa8TBJUkcQUun90Aj
pLrBBCYSQfhZt0DTG7LBfX+NQEkVg0CcH4bB+sOyQHOlLkDSGobBTMDEQPBejEDOVInBwJ3KQHw8
4EBoYdjBJsK/QDN+qED8KdbBEaqbQLNh0EC9GdHB7zE/QInjNkCJh6jBZcXWPxDbaUBSQpjB17Ml
QPy5gECq2YzB

>  <OMEGA_E>  (63) 
mPX0PqiuxD6Mvr4+

>  <OMEGA_NBR>  (63) 
     52388

$$$$
270662
     RDKit          3D

 54 58  0  0  1  0  0  0  0  0999 V2000
    5.4874   -4.5228  -19.2212 C   0  0  0  0  0  0  0  0  0  0  0  0
    5.8963   -3.4512  -20.0293 C   0  0  0  0  0  0  0  0  0  0  0  0
    6.2218   -1.2940  -22.0367 C   0  0  0  0  0  0  0  0  0  0  0  0
    6.6354   -0.1974  -22.7927 C   0  0  0  0  0  0  0  0  0  0  0  0
    4.3838   -4.3723  -18.3584 C   0  0  0  0  0  0  0  0  0  0  0  0
    5.5428    0.2025  -20.2224 C   0  0  0  0  0  0  0  0  0  0  0  0
    4.0878   -2.0805  -19.1155 C   0  0  0  0  0  0  0  0  0  0  0  0
    5.6553   -1.0918  -20.7603 C   0  0  0  0  0  0  0  0  0  0  0  0
    5.2008   -2.2253  -19.9708 C   0  0  0  0  0  0  0  0  0  0  0  0
    5.9677    1.3022  -20.9665 C   0  0  0  0  0  0  0  0  0  0  0  0
    6.4769    1.0932  -22.2773 C   0  0  0  0  0  0  0  0  0  0  0  0
    3.6841   -3.1505  -18.3088 C   0  0  0  0  0  0  0  0  0  0  0  0
    5.5612    3.2859  -18.2287 C   0  0  0  0  0  0  0  0  0  0  0  0
    4.3184    3.5605  -18.9749 C   0  0  0  0  0  0  0  0  0  0  0  0
    8.3259    5.8563  -22.7436 C   0  0  0  0  0  0  0  0  0  0  0  0
    8.0140    4.7648  -23.7954 C   0  0  0  0  0  0  0  0  0  0  0  0
    6.5125    3.7027  -21.3012 C   0  0  0  0  0  0  0  0  0  0  0  0
    7.2569    6.9652  -22.7665 C   0  0  0  0  0  0  0  0  0  0  0  0
    5.5837    5.5727  -23.7906 C   0  0  0  0  0  0  0  0  0  0  0  0
    6.5151    4.3512  -23.8456 C   0  0  2  0  0  0  0  0  0  0  0  0
    6.1263    3.3499  -22.7581 C   0  0  1  0  0  0  0  0  0  0  0  0
    5.8392    2.7019  -20.3752 C   0  0  2  0  0  0  0  0  0  0  0  0
    5.7616    3.5320  -16.7561 C   0  0  0  0  0  0  0  0  0  0  0  0
    6.4537    2.7715  -19.0407 N   0  0  0  0  0  0  0  0  0  0  0  0
    4.4348    3.0641  -20.1775 N   0  0  0  0  0  0  0  0  0  0  0  0
    3.1971    4.1968  -18.4706 N   0  0  0  0  0  0  0  0  0  0  0  0
    6.7850    2.1329  -23.0974 O   0  0  0  0  0  0  0  0  0  0  0  0
    5.9226    6.4197  -22.6821 O   0  0  0  0  0  0  0  0  0  0  0  0
    2.3149   -2.9538  -17.2487 Cl  0  0  0  0  0  0  0  0  0  0  0  0
    6.0183   -5.4624  -19.2605 H   0  0  0  0  0  0  0  0  0  0  0  0
    6.7403   -3.5645  -20.6935 H   0  0  0  0  0  0  0  0  0  0  0  0
    6.3349   -2.2947  -22.4269 H   0  0  0  0  0  0  0  0  0  0  0  0
    7.0744   -0.3435  -23.7686 H   0  0  0  0  0  0  0  0  0  0  0  0
    4.0732   -5.1963  -17.7331 H   0  0  0  0  0  0  0  0  0  0  0  0
    5.1283    0.3443  -19.2353 H   0  0  0  0  0  0  0  0  0  0  0  0
    3.5483   -1.1455  -19.0835 H   0  0  0  0  0  0  0  0  0  0  0  0
    8.3470    5.3974  -21.7441 H   0  0  0  0  0  0  0  0  0  0  0  0
    9.3083    6.2988  -22.9647 H   0  0  0  0  0  0  0  0  0  0  0  0
    8.3021    5.1457  -24.7863 H   0  0  0  0  0  0  0  0  0  0  0  0
    8.6121    3.8728  -23.5573 H   0  0  0  0  0  0  0  0  0  0  0  0
    7.6044    3.6450  -21.1811 H   0  0  0  0  0  0  0  0  0  0  0  0
    6.1705    4.7203  -21.0615 H   0  0  0  0  0  0  0  0  0  0  0  0
    7.4222    7.6379  -21.9121 H   0  0  0  0  0  0  0  0  0  0  0  0
    7.3517    7.5330  -23.7039 H   0  0  0  0  0  0  0  0  0  0  0  0
    5.6823    6.1443  -24.7252 H   0  0  0  0  0  0  0  0  0  0  0  0
    4.5446    5.2297  -23.6785 H   0  0  0  0  0  0  0  0  0  0  0  0
    6.3500    3.8601  -24.8160 H   0  0  0  0  0  0  0  0  0  0  0  0
    5.0367    3.2044  -22.7963 H   0  0  0  0  0  0  0  0  0  0  0  0
    6.7735    3.2137  -16.4650 H   0  0  0  0  0  0  0  0  0  0  0  0
    5.6395    4.6044  -16.5438 H   0  0  0  0  0  0  0  0  0  0  0  0
    5.0179    2.9580  -16.1840 H   0  0  0  0  0  0  0  0  0  0  0  0
    3.6971    2.9517  -20.8433 H   0  0  0  0  0  0  0  0  0  0  0  0
    2.3846    4.3067  -19.0432 H   0  0  0  0  0  0  0  0  0  0  0  0
    3.1995    4.5464  -17.5337 H   0  0  0  0  0  0  0  0  0  0  0  0
  1  2  2  0
  1  5  1  0
  2  9  1  0
  3  4  2  0
  3  8  1  0
  4 11  1  0
  5 12  2  0
  6  8  2  0
  6 10  1  0
  7  9  2  0
  7 12  1  0
  8  9  1  0
 10 11  2  0
 10 22  1  0
 11 27  1  0
 12 29  1  0
 13 14  1  0
 13 23  1  0
 13 24  2  0
 14 25  2  0
 14 26  1  0
 15 16  1  0
 15 18  1  0
 16 20  1  0
 17 21  1  0
 22 17  1  6
 18 28  1  0
 19 20  1  0
 19 28  1  0
 20 21  1  0
 21 27  1  0
 22 24  1  0
 22 25  1  0
  1 30  1  0
  2 31  1  0
  3 32  1  0
  4 33  1  0
  5 34  1  0
  6 35  1  0
  7 36  1  0
 15 37  1  0
 15 38  1  0
 16 39  1  0
 16 40  1  0
 17 41  1  0
 17 42  1  0
 18 43  1  0
 18 44  1  0
 19 45  1  0
 19 46  1  0
 20 47  1  6
 21 48  1  1
 23 49  1  0
 23 50  1  0
 23 51  1  0
 25 52  1  0
 26 53  1  0
 26 54  1  0
M  CHG  1  25   1
M  END
>  <OMEGA_C>  (64) 
bpivQG+6kMAExZnBNK68QGDgXMD5O6DBWRnHQJ+ipb8cS7DBy1TUQO4YSr6NV7bBA0iMQCPqi8AS
3pLBmV6xQOhQTz6Fx6HBPs+CQHgnBcCW7JjB4Pe0QNO/i78aFabByWymQLZqDsBBxJ/Bk/e+QOqt
pj94u6fBCEPPQNvsiz/QN7LBC8lrQJaiScBkeJLBD/WxQKRLUkBl1JHBgjCKQIDfY0CZzJfBuDYF
QYZmu0Dy8rXBTDkAQRh5mED3XL7BT2bQQPb4bEDuaKrBhDjoQDLj3kDgIbbBAa6yQGlTskAmU77B
AHzQQOo8i0Dgw77BDQvEQKxkVkChELbBi9q6QJrrLEBgAKPBIl+4QAYNYkCMDIbBiITOQKxfMUBH
U5jBjemNQPAZREB8a6HBtZxMQN1LhkC/w5PBwB7ZQEKBCECTx7jBmoW9QFNuzUAEdbXBxicUQKwK
PcBf/YnBxJXAQC7MrsCMFZrBPLDXQCUgZMBfjKXB07fKQH/cEsA1arPBpGHiQJjhr74QJr7BdFeC
QO5HpsBq3Y3ByRqkQJ5HsD7b4ZnBQRdjQFyfkr8Dq5jBK40FQS23rEAC9K3B8e4UQfuPyUC9t7fB
NtUEQT+ppEBmSsbBGcsJQR7cd0BxdbzBHFfzQDpHaUDhcqnB23TFQN8Ml0DgfajBTYLtQA9q9EDj
S6/BN0HrQHoO8UCTob3BwtW1QGiexEA5zcXBkG2RQFRZp0CLbb3BDTPLQIcMd0Ash8bBdSyhQJ8V
TUDfXrbBa8DYQMSsTUBauIPBs3a0QIBXk0C/WYTB05KgQGxPPUDEeIHBxp1sQJPoPEAEv6bB+J0Y
QLbQiUBxWJjBlMRMQOF7kUD+RIzB

>  <OMEGA_E>  (64) 
eKMlPw==

>  <OMEGA_NBR>  (64) 
      1206

$$$$
270664
     RDKit          3D

 54 58  0  0  1  0  0  0  0  0999 V2000
    5.3971   -4.4803  -19.2453 C   0  0  0  0  0  0  0  0  0  0  0  0
    5.7867   -3.4138  -20.0696 C   0  0  0  0  0  0  0  0  0  0  0  0
    6.1289   -1.2611  -22.0592 C   0  0  0  0  0  0  0  0  0  0  0  0
    6.5917   -0.1794  -22.8063 C   0  0  0  0  0  0  0  0  0  0  0  0
    4.3657   -4.3015  -18.3036 C   0  0  0  0  0  0  0  0  0  0  0  0
    5.4152    0.2658  -20.2903 C   0  0  0  0  0  0  0  0  0  0  0  0
    4.0821   -2.0002  -19.0340 C   0  0  0  0  0  0  0  0  0  0  0  0
    5.5579   -1.0417  -20.7882 C   0  0  0  0  0  0  0  0  0  0  0  0
    5.1287   -2.1683  -19.9667 C   0  0  0  0  0  0  0  0  0  0  0  0
    5.8356    1.3550  -21.0530 C   0  0  0  0  0  0  0  0  0  0  0  0
    6.4743    1.1183  -22.2970 C   0  0  0  0  0  0  0  0  0  0  0  0
    3.7162   -3.0574  -18.1943 C   0  0  0  0  0  0  0  0  0  0  0  0
    5.6398    3.4298  -18.3821 C   0  0  0  0  0  0  0  0  0  0  0  0
    4.2712    3.5392  -18.9148 C   0  0  0  0  0  0  0  0  0  0  0  0
    5.0541    5.7272  -23.9389 C   0  0  0  0  0  0  0  0  0  0  0  0
    5.9320    4.5740  -24.5164 C   0  0  0  0  0  0  0  0  0  0  0  0
    5.8351    3.7469  -21.6357 C   0  0  0  0  0  0  0  0  0  0  0  0
    5.9129    6.8989  -23.4212 C   0  0  0  0  0  0  0  0  0  0  0  0
    7.9387    5.6197  -23.3395 C   0  0  0  0  0  0  0  0  0  0  0  0
    7.2596    4.3090  -23.7274 C   0  0  1  0  0  0  0  0  0  0  0  0
    7.0798    3.4083  -22.4856 C   0  0  2  0  0  0  0  0  0  0  0  0
    5.6076    2.7539  -20.5192 C   0  0  2  0  0  0  0  0  0  0  0  0
    6.0182    3.7434  -16.9581 C   0  0  0  0  0  0  0  0  0  0  0  0
    6.4484    3.0183  -19.3361 N   0  0  0  0  0  0  0  0  0  0  0  0
    4.2288    2.9137  -20.0555 N   0  0  0  0  0  0  0  0  0  0  0  0
    3.1970    4.1621  -18.3027 N   0  0  0  0  0  0  0  0  0  0  0  0
    6.9860    2.1108  -23.0697 O   0  0  0  0  0  0  0  0  0  0  0  0
    7.0207    6.4452  -22.6159 O   0  0  0  0  0  0  0  0  0  0  0  0
    2.4716   -2.8079  -17.0016 Cl  0  0  0  0  0  0  0  0  0  0  0  0
    5.8882   -5.4382  -19.3331 H   0  0  0  0  0  0  0  0  0  0  0  0
    6.5882   -3.5451  -20.7815 H   0  0  0  0  0  0  0  0  0  0  0  0
    6.2072   -2.2640  -22.4521 H   0  0  0  0  0  0  0  0  0  0  0  0
    7.0395   -0.3425  -23.7755 H   0  0  0  0  0  0  0  0  0  0  0  0
    4.0723   -5.1206  -17.6638 H   0  0  0  0  0  0  0  0  0  0  0  0
    4.9791    0.4267  -19.3154 H   0  0  0  0  0  0  0  0  0  0  0  0
    3.5639   -1.0549  -18.9688 H   0  0  0  0  0  0  0  0  0  0  0  0
    4.3874    6.0978  -24.7314 H   0  0  0  0  0  0  0  0  0  0  0  0
    4.4515    5.3332  -23.1073 H   0  0  0  0  0  0  0  0  0  0  0  0
    5.3356    3.6498  -24.5052 H   0  0  0  0  0  0  0  0  0  0  0  0
    6.1941    4.8286  -25.5540 H   0  0  0  0  0  0  0  0  0  0  0  0
    5.9693    4.7465  -21.1966 H   0  0  0  0  0  0  0  0  0  0  0  0
    4.9512    3.7498  -22.2905 H   0  0  0  0  0  0  0  0  0  0  0  0
    6.3063    7.4582  -24.2829 H   0  0  0  0  0  0  0  0  0  0  0  0
    5.2796    7.5611  -22.8125 H   0  0  0  0  0  0  0  0  0  0  0  0
    8.8130    5.4050  -22.7076 H   0  0  0  0  0  0  0  0  0  0  0  0
    8.2640    6.1457  -24.2491 H   0  0  0  0  0  0  0  0  0  0  0  0
    7.9376    3.7807  -24.4139 H   0  0  0  0  0  0  0  0  0  0  0  0
    7.9769    3.4856  -21.8538 H   0  0  0  0  0  0  0  0  0  0  0  0
    7.0966    3.5764  -16.8194 H   0  0  0  0  0  0  0  0  0  0  0  0
    5.7788    4.7943  -16.7381 H   0  0  0  0  0  0  0  0  0  0  0  0
    5.4553    3.0887  -16.2765 H   0  0  0  0  0  0  0  0  0  0  0  0
    3.4053    2.6000  -20.5282 H   0  0  0  0  0  0  0  0  0  0  0  0
    2.2980    4.1533  -18.7404 H   0  0  0  0  0  0  0  0  0  0  0  0
    3.3202    4.6209  -17.4227 H   0  0  0  0  0  0  0  0  0  0  0  0
  1  2  2  0
  1  5  1  0
  2  9  1  0
  3  4  2  0
  3  8  1  0
  4 11  1  0
  5 12  2  0
  6  8  2  0
  6 10  1  0
  7  9  2  0
  7 12  1  0
  8  9  1  0
 10 11  2  0
 10 22  1  0
 11 27  1  0
 12 29  1  0
 13 14  1  0
 13 23  1  0
 13 24  2  0
 14 25  2  0
 14 26  1  0
 15 16  1  0
 15 18  1  0
 16 20  1  0
 17 21  1  0
 22 17  1  6
 18 28  1  0
 19 20  1  0
 19 28  1  0
 20 21  1  0
 21 27  1  0
 22 24  1  0
 22 25  1  0
  1 30  1  0
  2 31  1  0
  3 32  1  0
  4 33  1  0
  5 34  1  0
  6 35  1  0
  7 36  1  0
 15 37  1  0
 15 38  1  0
 16 39  1  0
 16 40  1  0
 17 41  1  0
 17 42  1  0
 18 43  1  0
 18 44  1  0
 19 45  1  0
 19 46  1  0
 20 47  1  6
 21 48  1  1
 23 49  1  0
 23 50  1  0
 23 51  1  0
 25 52  1  0
 26 53  1  0
 26 54  1  0
M  CHG  1  25   1
M  END
>  <OMEGA_C>  (65) 
2rSsQOJej8BR9pnBziy5QDB8WsCXjqDBxB/EQDVqob81ebDBzu7SQES6N75Zc7bBKrSLQCWmicDQ
bZLBLEmtQOMQiD6NUqLBxKCCQLkDAMCSRZjBTtqxQPlXhb8jTqbBlh6kQP/FCsDAu5/BbL26QOlw
rT+bbKjBmi3PQDUkjz9EYLLBndVtQPKrQ8DhjZHB9ni0QGSCW0CHDpPBRK2IQMmBYkCYUZfBOLuh
QCBFt0Dfgr/B2tK9QPVdkkCoIcTBErm6QODNb0DpFa3Boja9QAjE3ECkXrvBbAn+QKjUs0BFt7rB
ok7oQLPjiUDI0b3Blo3iQFshWkBx4rPBPnGzQARAMEA7J6TBWpXAQBKUb0AZqofBeFnOQLIrQUBK
sJrBeFKHQHt6OkCycaDB05tMQEowhUDaa5LB+IzfQLgWB0CmjrjB9KngQBk/zkBP7bTBRy4eQPi0
M8BAA4jBAmy8QLcFrsAeqprBztLSQKDiYsB8QKbBR6HGQAflEMD3nbPBQUPhQA5fr74uNL7BilCC
QETco8B0T43BI1WfQOpx2j4ChprBdhZkQDgIh78wwJfBUWWMQDAhw0D72cXBlHKOQL6pqkCn27jB
F72qQJaVaUCPCsTBPTbGQI6DmkCFbszB1gS/QH3jl0CckqnBeHCeQMH8b0D3UrLBm83JQFip7kBT
Q8LBr/KoQF708UAPgLbBPAINQWb1rEAdqbXBNDkEQcapxEBA/sHBewD+QKX2cUCcT8PBEkP/QN8U
X0CV1K7BYBfjQIrjZEAyjobBKuy4QKRqmUCW54XBCpKuQCatRUBUNoLBIPFZQLdmJkDbOaTB8xET
QC3ohEBs7JXByH1UQLHek0CuYYvBidWGQOChjMBuN53BcdSVQG/7VcBgsqPBx5PHQDD/ob8FjK/B
cNXWQBRLTr4dzLXBp6WEQL10h8A8CZLBGRysQC/Zpj6wd6LBHZigQMfk+78WxJPBtWOyQJMTgb8W
xqXBptCiQLmtB8AIBJ/B06+6QMoPsz9Jx6jBdirRQCV6kD9yabLB7oKRQCcvQcBQUo3BA361QOgC
ZUCjA5TBM1WIQGNoYEDHcpfB5iClQCgHl0A8iMfBKpXTQLhfhkBqN8jBb+G6QLXOc0BYAa7BVPWj
QIMZxUDZAMPBcpTpQE+dvUBccrrByFbuQCMXjkBi0b3BHvnjQGM4XUBRZ7TBFvmyQDS/NEC29aTB
7G3EQDDqgUDoMonBjX3OQMSfSUC5v5vBxPGGQDKmP0AbD6HBjHlKQHCneEBnXpHB7njhQOfTB0CX
4LjBfe28QGiNyUDxVLnBHPOOQAPkM8DL7n7BEvt5QB91qsBZ0qDBXG+XQFMeXsBvRKzBrQrMQMki
EsCTNrLBlgfnQHVaz74QQb3BkzRyQGRLocCwE43BWOybQNfMBj8nAZvBvYuqQDMPhb+RHpDBie2W
QKzvlkCQlc/B1YOSQP3dgUB2QsLBmJnSQF2CR0ANysnBYanjQPmzlkBi5c7BGmm+QFgwmkCdnKrB
qU2fQPmjckDgeLPBWsOwQD8d20D6E8nBG4uCQEWZzUAtO8HBMN75QEx2wkB/vbLBvYD4QJMF0kDi
kcDBExEIQWkYiUCN8L/BBA//QJHIX0DZyq7BTYjnQHPef0AExojBBFO6QDhOo0DTBojBf0+2QEd7
W0AS6YLBO7ZYQIiEMEC0FqXBGFUPQAWKcUAzS5TBJQNTQPSfiECFD4rB

>  <OMEGA_E>  (65) 
2vArP/yPRD8=

>  <OMEGA_NBR>  (65) 
      3311

$$$$
270652
     RDKit          3D

 51 55  0  0  1  0  0  0  0  0999 V2000
    5.5218   -4.4927  -19.1921 C   0  0  0  0  0  0  0  0  0  0  0  0
    5.8743   -3.4061  -20.0085 C   0  0  0  0  0  0  0  0  0  0  0  0
    6.0644   -1.2747  -22.0481 C   0  0  0  0  0  0  0  0  0  0  0  0
    6.5018   -0.1948  -22.8155 C   0  0  0  0  0  0  0  0  0  0  0  0
    4.4394   -4.3779  -18.2992 C   0  0  0  0  0  0  0  0  0  0  0  0
    5.4287    0.2550  -20.2513 C   0  0  0  0  0  0  0  0  0  0  0  0
    4.0671   -2.0830  -19.0284 C   0  0  0  0  0  0  0  0  0  0  0  0
    5.5359   -1.0554  -20.7596 C   0  0  0  0  0  0  0  0  0  0  0  0
    5.1475   -2.1960  -19.9291 C   0  0  0  0  0  0  0  0  0  0  0  0
    5.8941    1.3442  -21.0064 C   0  0  0  0  0  0  0  0  0  0  0  0
    6.4226    1.1057  -22.3026 C   0  0  0  0  0  0  0  0  0  0  0  0
    3.7121   -3.1735  -18.2205 C   0  0  0  0  0  0  0  0  0  0  0  0
    5.5519    3.2211  -18.2314 C   0  0  0  0  0  0  0  0  0  0  0  0
    4.2981    3.5155  -18.9463 C   0  0  0  0  0  0  0  0  0  0  0  0
    6.6811    5.7774  -23.6914 C   0  0  0  0  0  0  0  0  0  0  0  0
    7.2521    4.3556  -23.6873 C   0  0  0  0  0  0  0  0  0  0  0  0
    6.5458    3.7639  -21.3252 C   0  0  0  0  0  0  0  0  0  0  0  0
    5.1882    5.7467  -24.0792 C   0  0  0  0  0  0  0  0  0  0  0  0
    4.9030    3.4942  -23.3079 C   0  0  0  0  0  0  0  0  0  0  0  0
    5.8265    2.7507  -20.4149 C   0  0  2  0  0  0  0  0  0  0  0  0
    6.3836    3.4137  -22.8308 C   0  0  1  0  0  0  0  0  0  0  0  0
    5.7603    3.3795  -16.7481 C   0  0  0  0  0  0  0  0  0  0  0  0
    6.4471    2.7751  -19.0801 N   0  0  0  0  0  0  0  0  0  0  0  0
    4.4321    3.1479  -20.1909 N   0  0  0  0  0  0  0  0  0  0  0  0
    3.1535    4.0571  -18.3860 N   0  0  0  0  0  0  0  0  0  0  0  0
    6.8936    2.1076  -23.1012 O   0  0  0  0  0  0  0  0  0  0  0  0
    4.4500    4.8527  -23.2183 O   0  0  0  0  0  0  0  0  0  0  0  0
    2.3646   -3.0268  -17.1245 Cl  0  0  0  0  0  0  0  0  0  0  0  0
    6.0802   -5.4154  -19.2492 H   0  0  0  0  0  0  0  0  0  0  0  0
    6.7012   -3.4947  -20.6975 H   0  0  0  0  0  0  0  0  0  0  0  0
    6.1306   -2.2785  -22.4410 H   0  0  0  0  0  0  0  0  0  0  0  0
    6.9013   -0.3619  -23.8049 H   0  0  0  0  0  0  0  0  0  0  0  0
    4.1659   -5.2145  -17.6733 H   0  0  0  0  0  0  0  0  0  0  0  0
    4.9879    0.4219  -19.2795 H   0  0  0  0  0  0  0  0  0  0  0  0
    3.5141   -1.1577  -18.9611 H   0  0  0  0  0  0  0  0  0  0  0  0
    6.7876    6.2154  -22.6880 H   0  0  0  0  0  0  0  0  0  0  0  0
    7.2338    6.3896  -24.4192 H   0  0  0  0  0  0  0  0  0  0  0  0
    7.2826    3.9773  -24.7197 H   0  0  0  0  0  0  0  0  0  0  0  0
    8.2717    4.3787  -23.2750 H   0  0  0  0  0  0  0  0  0  0  0  0
    6.1239    4.7639  -21.1460 H   0  0  0  0  0  0  0  0  0  0  0  0
    7.6170    3.7677  -21.0751 H   0  0  0  0  0  0  0  0  0  0  0  0
    4.7714    6.7606  -23.9876 H   0  0  0  0  0  0  0  0  0  0  0  0
    5.0935    5.4040  -25.1202 H   0  0  0  0  0  0  0  0  0  0  0  0
    4.8337    3.1516  -24.3509 H   0  0  0  0  0  0  0  0  0  0  0  0
    4.2758    2.8547  -22.6695 H   0  0  0  0  0  0  0  0  0  0  0  0
    6.7804    3.0631  -16.4848 H   0  0  0  0  0  0  0  0  0  0  0  0
    5.6201    4.4341  -16.4688 H   0  0  0  0  0  0  0  0  0  0  0  0
    5.0324    2.7570  -16.2072 H   0  0  0  0  0  0  0  0  0  0  0  0
    3.7054    3.1384  -20.8778 H   0  0  0  0  0  0  0  0  0  0  0  0
    2.3384    4.1948  -18.9487 H   0  0  0  0  0  0  0  0  0  0  0  0
    3.1421    4.3107  -17.4188 H   0  0  0  0  0  0  0  0  0  0  0  0
  1  2  2  0
  1  5  1  0
  2  9  1  0
  3  4  2  0
  3  8  1  0
  4 11  1  0
  5 12  2  0
  6  8  2  0
  6 10  1  0
  7  9  2  0
  7 12  1  0
  8  9  1  0
 10 11  2  0
 10 20  1  0
 11 26  1  0
 12 28  1  0
 13 14  1  0
 13 22  1  0
 13 23  2  0
 14 24  2  0
 14 25  1  0
 15 16  1  0
 15 18  1  0
 16 21  1  0
 20 17  1  6
 17 21  1  0
 18 27  1  0
 19 21  1  0
 19 27  1  0
 20 23  1  0
 20 24  1  0
 21 26  1  1
  1 29  1  0
  2 30  1  0
  3 31  1  0
  4 32  1  0
  5 33  1  0
  6 34  1  0
  7 35  1  0
 15 36  1  0
 15 37  1  0
 16 38  1  0
 16 39  1  0
 17 40  1  0
 17 41  1  0
 18 42  1  0
 18 43  1  0
 19 44  1  0
 19 45  1  0
 22 46  1  0
 22 47  1  0
 22 48  1  0
 24 49  1  0
 25 50  1  0
 25 51  1  0
M  CHG  1  24   1
M  END
>  <OMEGA_C>  (66) 
QLKwQE/Ej8CFiZnB8vm7QNz8WcBVEaDBXg/CQEIqo79uYrDBdg7QQECCR74ehrbBOA+OQAQYjMC4
ZJLByretQISUgj6TAqLBBCaCQDpPBcAzOpjBXCaxQCYYh7+2E6bBMrikQFaLDMC1bp/Bfpy8QLkP
rD8MDajBMobNQA2JjT+8a7LBO5JtQH4aS8CDw5HBkKmxQPYmTkDk2ZHB/ImJQIz9YEDukZfBmsvV
QH7guEDvh73BdhHoQFRhi0CAf73BGnfRQCLkcEAGmqrBgAWmQNTkt0AtosDBjOWcQByhX0CbdrrB
2HK6QCwLMEDPUaPBWEbMQAh6WkCDpbbBxlS4QF5JWEAz/IXByk7OQKqaMUAUpJjB1NONQKZ2SUAP
h6HBmtNJQArUgUCcFpPB+JfcQM7iBkBRz7jBjmaOQHVJm0Aav7nB1VUXQE62QcDy/ojB65DCQL5K
rcBP/pnB/W/WQIKoX8B6lKXB9i3EQH7TEcAhh7PBStfcQLJNub5dcL7BQ0+FQJPdpsDyYo3B+Jyf
QAUA2D5yPJrBQ+dgQMowlL9lsJfBVzTZQJfkxkD6gLXBIXvnQGR3zECdWsPBqArpQNiLfkDvwcXB
6FgEQa0ejEBAM7rBIffDQLNxmEADK6nBRr7zQKUhcUDamajBnK+YQIRW2ECn5r/BUP6iQHbtrEAS
9sjBEa6aQGm0SUCrzsLBNtOIQBazNkAhW7XBVfnYQAMKREDw4IPByNezQHvkjUArwIPBgwmhQG1y
MEBeqIHBPSVtQPDbSEDKBafBaqgVQNw7hkD2lpfBsRdJQNnwiUCoWYvBzNqxQBCOj8CoN5nBymS8
QGM1XMCRRKDBQLfCQAy7pL8BALHBBlzQQBgsNb4K+LbBlvGPQPqQisAZ45HBhoeuQGTYRz6GVqLB
gMGCQFilBcCGq5jB/rexQMahjL9XpKbBNPukQGD2DsDM9p/Bvg69QFChpj+rHajB3qPNQMzLjj+P
kbLB78VwQA9OSMC9o5HBCq2xQK44UEBO3ZHBNxiKQCI4ZECMxZfBELbeQLDdi0AJ2sfBPMrkQAk2
kUB3w7vBAr3QQMgMb0BZyanBepuuQNKFi0BhnsrBxu2aQA3KYkAMP7nB7ui5QGR6K0DNAaPBXsHK
QGgoXkAFwbXBYgW5QIUAYUAnLIbBZCXNQEJ2K0CxUJjBegqNQI3jQkBaS6HBLqhNQMOuh0C7zpPB
zOPbQDIRC0ANnLjBakmYQPlPVkDplcTB6YEcQGoJO8AFpIjB6cPDQMMZrcB5a5nBnlLWQOflY8AO
5qXBoDXFQBf+EcA6UbTBB/LcQKo6ob6F8L7BNAOIQGk8pMDXc4zBLrugQKfiqz4nf5rB6Q5hQM/d
lb/Hg5jBOVPuQGKcpkDgCMzBuj/tQEUBW0AvbMrBTXIDQbecjUAwx7nBAs7ZQC05sUBaWLnB7ZTD
QNs8l0CX2KfBvB7zQDrZbUD356fB29egQAEIq0AIvMjBjMGqQNzzhEDSNdPBq5mIQE9/MEDlIbXB
XrWNQH3tkEDbJ7fBoPLYQC6wSUAk4oPBjPK2QLIXk0DGoITBN4mgQFVuP0CbcYHBqBdqQG/DOkAu
fabBn6wZQO53i0CVYJjBT6pOQOd8k0B2X4zBl1mnQMQdkMCZ1ZnBEiy5QA0JXMDDpp/B10zNQM5p
or/BFK/BC+vZQCY4Q76PdrXBRDmDQNJDicCPU5PBjXKyQBmXkj51oaHB1CeCQKAk+b8SjJjBP2S4
QPZVhL9FP6XByLSmQJqiCcBBBp/BH8m9QMSHrz+uIajBVVDRQNStjz/GK7LBaophQHGMQMBtqpLB
vQK0QLA0WUA3z5LByMqIQO06YEAxWZfBjloNQVupnEA+rKzBkMAGQa1FXUDYV6/Bkwm8QHM5dEAN
EK3B0mILQb6EuECXyrbB+6ffQMJhjEBQYb7BB9W0QPH1MUC0JKTB477gQH4uW0CdxrTBctm+QCo6
aUBhOofB473OQGcxQ0DkcZrBu4GIQHV3OUCtkqDBnvRLQAvXg0B0npLBw6zaQCjQB0DeP7nB19Hr
QOCFtkBYALvBVswIQPKbLsDrg4rBvGK1QPGgr8A9W5rBrf7UQG6ZZsCImqTBf4rTQL/0EcDHq7HB
Kk7qQC0Svb5E77zBPVJrQFx+o8A91o7BCg+lQCWN7T4Qy5nBOzJnQB/hd79PIpjBH9ECQbBoqUC+
YqbBTwQeQecCnUBf16nBWaESQbc4QUAOz7TB2CoGQeiVN0B+6qfBRlCeQMp1ekAztrHBHebDQEsN
mUDXWqnBPkEPQZrj2UBUxLTBIKoWQbHSrECp4bzBmRX2QCQXgUATjMTBvxS/QHJSjUDRtMHBpl3h
QBCuX0A4+4XBUDq2QEyplUA6GYXBWtqsQClgPEDtJoLBhkVdQBSjJEDvfqTBgUITQEbyg0CPVJbB
cE9SQJ7+kUD+fIvB

>  <OMEGA_E>  (66) 
JLsRP3BJFj9MRig/

>  <OMEGA_NBR>  (66) 
      6177

$$$$
270654
     RDKit          3D

 51 55  0  0  1  0  0  0  0  0999 V2000
    6.1910   -1.2577  -21.9371 C   0  0  0  0  0  0  0  0  0  0  0  0
    5.7268   -3.3704  -19.8886 C   0  0  0  0  0  0  0  0  0  0  0  0
    6.6530   -0.2016  -22.7355 C   0  0  0  0  0  0  0  0  0  0  0  0
    5.2576   -4.4289  -19.0901 C   0  0  0  0  0  0  0  0  0  0  0  0
    5.4250    0.3466  -20.2673 C   0  0  0  0  0  0  0  0  0  0  0  0
    3.9693   -1.9247  -18.9999 C   0  0  0  0  0  0  0  0  0  0  0  0
    5.5762   -0.9932  -20.6932 C   0  0  0  0  0  0  0  0  0  0  0  0
    5.0864   -2.1079  -19.8501 C   0  0  0  0  0  0  0  0  0  0  0  0
    5.8680    1.4176  -21.0749 C   0  0  0  0  0  0  0  0  0  0  0  0
    6.5110    1.1321  -22.3116 C   0  0  0  0  0  0  0  0  0  0  0  0
    4.1464   -4.2381  -18.2466 C   0  0  0  0  0  0  0  0  0  0  0  0
    3.5022   -2.9844  -18.2015 C   0  0  0  0  0  0  0  0  0  0  0  0
    5.6518    3.5263  -18.4370 C   0  0  0  0  0  0  0  0  0  0  0  0
    4.2602    3.4837  -18.9223 C   0  0  0  0  0  0  0  0  0  0  0  0
    8.9982    4.8461  -21.4096 C   0  0  0  0  0  0  0  0  0  0  0  0
    8.5650    3.4177  -21.8074 C   0  0  0  0  0  0  0  0  0  0  0  0
    5.9764    3.8551  -21.7379 C   0  0  0  0  0  0  0  0  0  0  0  0
    9.0064    5.7622  -22.6524 C   0  0  0  0  0  0  0  0  0  0  0  0
    7.3505    4.4061  -23.7833 C   0  0  0  0  0  0  0  0  0  0  0  0
    5.6531    2.8576  -20.5989 C   0  0  2  0  0  0  0  0  0  0  0  0
    7.2110    3.4255  -22.5909 C   0  0  1  0  0  0  0  0  0  0  0  0
    6.0709    3.9401  -17.0458 C   0  0  0  0  0  0  0  0  0  0  0  0
    6.4651    3.1457  -19.3966 N   0  0  0  0  0  0  0  0  0  0  0  0
    4.2627    3.0541  -20.1578 N   0  0  0  0  0  0  0  0  0  0  0  0
    3.1383    3.8246  -18.1803 N   0  0  0  0  0  0  0  0  0  0  0  0
    6.9914    2.1132  -23.1586 O   0  0  0  0  0  0  0  0  0  0  0  0
    7.7230    5.7230  -23.3177 O   0  0  0  0  0  0  0  0  0  0  0  0
    3.7021   -5.2613  -17.4817 F   0  0  0  0  0  0  0  0  0  0  0  0
    2.1194   -2.7348  -17.1611 Cl  0  0  0  0  0  0  0  0  0  0  0  0
    6.3056   -2.2772  -22.2746 H   0  0  0  0  0  0  0  0  0  0  0  0
    6.5794   -3.5212  -20.5342 H   0  0  0  0  0  0  0  0  0  0  0  0
    7.1222   -0.4141  -23.6848 H   0  0  0  0  0  0  0  0  0  0  0  0
    5.7503   -5.3894  -19.1239 H   0  0  0  0  0  0  0  0  0  0  0  0
    4.9650    0.5537  -19.3124 H   0  0  0  0  0  0  0  0  0  0  0  0
    3.4730   -0.9662  -18.9641 H   0  0  0  0  0  0  0  0  0  0  0  0
    8.2929    5.2467  -20.6666 H   0  0  0  0  0  0  0  0  0  0  0  0
   10.0083    4.8125  -20.9754 H   0  0  0  0  0  0  0  0  0  0  0  0
    9.3437    2.9726  -22.4442 H   0  0  0  0  0  0  0  0  0  0  0  0
    8.4470    2.8133  -20.8960 H   0  0  0  0  0  0  0  0  0  0  0  0
    5.1008    3.9275  -22.3997 H   0  0  0  0  0  0  0  0  0  0  0  0
    6.1826    4.8400  -21.2935 H   0  0  0  0  0  0  0  0  0  0  0  0
    9.2209    6.7948  -22.3398 H   0  0  0  0  0  0  0  0  0  0  0  0
    9.7861    5.4206  -23.3491 H   0  0  0  0  0  0  0  0  0  0  0  0
    8.1249    4.0328  -24.4696 H   0  0  0  0  0  0  0  0  0  0  0  0
    6.3893    4.4688  -24.3143 H   0  0  0  0  0  0  0  0  0  0  0  0
    7.1654    3.8743  -16.9572 H   0  0  0  0  0  0  0  0  0  0  0  0
    5.7496    4.9754  -16.8590 H   0  0  0  0  0  0  0  0  0  0  0  0
    5.6026    3.2720  -16.3080 H   0  0  0  0  0  0  0  0  0  0  0  0
    3.4490    2.8859  -20.7143 H   0  0  0  0  0  0  0  0  0  0  0  0
    2.2280    3.7504  -18.5875 H   0  0  0  0  0  0  0  0  0  0  0  0
    3.2401    4.1445  -17.2383 H   0  0  0  0  0  0  0  0  0  0  0  0
  1  3  2  0
  1  7  1  0
  2  4  2  0
  2  8  1  0
  3 10  1  0
  4 11  1  0
  5  7  2  0
  5  9  1  0
  6  8  2  0
  6 12  1  0
  7  8  1  0
  9 10  2  0
  9 20  1  0
 10 26  1  0
 11 12  2  0
 11 28  1  0
 12 29  1  0
 13 14  1  0
 13 22  1  0
 13 23  2  0
 14 24  2  0
 14 25  1  0
 15 16  1  0
 15 18  1  0
 16 21  1  0
 20 17  1  6
 17 21  1  0
 18 27  1  0
 19 21  1  0
 19 27  1  0
 20 23  1  0
 20 24  1  0
 21 26  1  6
  1 30  1  0
  2 31  1  0
  3 32  1  0
  4 33  1  0
  5 34  1  0
  6 35  1  0
 15 36  1  0
 15 37  1  0
 16 38  1  0
 16 39  1  0
 17 40  1  0
 17 41  1  0
 18 42  1  0
 18 43  1  0
 19 44  1  0
 19 45  1  0
 22 46  1  0
 22 47  1  0
 22 48  1  0
 24 49  1  0
 25 50  1  0
 25 51  1  0
M  CHG  1  24   1
M  END
>  <OMEGA_C>  (67) 
dRzGQJv9oL8zf6/B6UG3QGS1V8DsG5/BLOXUQEZjTr5W4rXBKz6oQMK5jcBwuJjB6ZmtQFNwsT50
I6LBgQh+QPNd9r+5/5fBknCyQCNEfr+vi6XB38OiQDLnBsAPzZ7B38a7QOFztT9ZmajB+lnQQFbp
kD8mfrLBQ6+EQJeeh8D/+JHBoCRgQMj/PsCpnJHByNu0QJSuYUARf5PBOVOIQO30XkDmYJfBn/gP
QQMTm0DjRqvBawoJQT+8WkCXda7BUz6/QFe5dkAg563BJhoQQd9juEAcOLXBszfrQIv+jEAlRL7B
AOa0QI7iNkCcyqTBO8DmQKo7W0AsurTB3kTCQK4qfEDYXYjBzOHOQCZTSUBTLJvByGeIQGp2Q0Ad
Q6HBW9lIQPfFdEBDcZHBtrnfQN4+B0DTRLnBqiL3QIUit0CpirrBa+5sQERcqMCS2ovB36MHQHkH
L8DlSYnBj8fJQFi+EcBLMrLBY4rSQJ1bYcAHRqTB+ujjQKUD1L5jer3BbQK4QOd1rMCv/ZjBOeGe
QPW/DT/Of5rBeEVeQAdYd796tpfBpK8EQTnlp0BLVaXBHiIgQQ4AmkCyzafB2X8VQQY/PkDFjbPB
tyYHQcgNNEDsKqfBdDmjQANce0CpMrPBrNfFQPzgmkAbWarBsIgTQepu2UDZt7LB0ZMcQTF1rUDj
yrrBmv8BQd0MgUDDwcPBvnTMQCoAj0Cpg8LBlUrlQJ70d0BWqIfB6/y3QJY2n0As34bBe0izQBJp
UUDMdoLBBL1cQDayOEDYtqXB6pYOQBcGcEBFs5TBFl1PQGifhEAZ6InBCijGQOwCob9GhK/B506U
QColVMAOnqPB/gTVQNHYTb6t4rXBVGmFQD/vi8AQNZ3BoHWtQFuwsD6SK6LB9aKhQGPV/b8Vk5PB
3lOyQF+Sfr9wlaXBeJaiQAgEB8D52Z7Bzcq7QO9atT9DmqjBXnDQQDnvkD8OfbLBwpOEQGKih8AQ
/5HBo62SQDqsQsBTLo3BmdG0QMyEYUD/fZPBpkuIQNfeXkBtYZfBhfYPQYUkm0BlPqvB3BAJQTbY
WkDVbq7BcEa/QNGydkBN5a3BOBsQQeN0uECfL7XBfEvrQMsFjUDZPr7Bp+K0QEDUNkCxyqTBAdLm
QAlFW0CBtbTBQzTCQBvue0ChW4jB5NnOQGY0SUA5K5vBwWOIQFtzQ0ChRKHBRclIQI+vdEDjcZHB
LtvfQAlJB0D5QLnBHyn3QDQst0AghLrBJnVsQPZbqMDy44vB6uaRQDowN8Ayin7BoeLJQAa9EcCL
N7LBftyUQGT8WsDANqzB8h/kQLBX0743eL3B9jJ1QC5FqcCo46DBrZeeQA8vDT8bjJrBF3WsQCLE
iL8u3I/BYKcEQTnwp0DbTqXBlR0gQUEamkA2wqfBbYoVQRluPkAmhrPBMS0HQYwhNEDYJKfBu0ij
QLdWe0AvM7PBjtjFQGvcmkC5VarBVYYTQRyB2UApr7LBG5gcQUCJrUD4wLrBkA0CQdQagUAVu8PB
OYzMQAUBj0A4gMLBgjnlQHu1d0DrpIfBFey3QEgXn0Cm24bB7DOzQHUjUUA7doLBgbhcQKDCOEC+
uaXBY4gOQIL/b0CwtJTB60pPQCeMhEAD6InB

>  <OMEGA_E>  (67) 
cIkrP2RZQj8=

>  <OMEGA_NBR>  (67) 
      8188

$$$$
270668
     RDKit          3D

 54 58  0  0  1  0  0  0  0  0999 V2000
    5.5182   -4.5529  -19.3075 C   0  0  0  0  0  0  0  0  0  0  0  0
    5.8049   -3.4802  -20.1675 C   0  0  0  0  0  0  0  0  0  0  0  0
    5.9562   -1.2742  -22.1515 C   0  0  0  0  0  0  0  0  0  0  0  0
    6.3788   -0.1695  -22.8980 C   0  0  0  0  0  0  0  0  0  0  0  0
    4.5851   -4.3905  -18.2654 C   0  0  0  0  0  0  0  0  0  0  0  0
    5.4700    0.1910  -20.2570 C   0  0  0  0  0  0  0  0  0  0  0  0
    4.1969   -2.0921  -18.9587 C   0  0  0  0  0  0  0  0  0  0  0  0
    5.5061   -1.0954  -20.8248 C   0  0  0  0  0  0  0  0  0  0  0  0
    5.1456   -2.2433  -19.9942 C   0  0  0  0  0  0  0  0  0  0  0  0
    5.9226    1.2926  -20.9842 C   0  0  0  0  0  0  0  0  0  0  0  0
    6.3622    1.1076  -22.3198 C   0  0  0  0  0  0  0  0  0  0  0  0
    3.9307   -3.1565  -18.0894 C   0  0  0  0  0  0  0  0  0  0  0  0
    5.5252    3.2405  -18.2128 C   0  0  0  0  0  0  0  0  0  0  0  0
    4.3171    3.5566  -18.9998 C   0  0  0  0  0  0  0  0  0  0  0  0
    4.9355    4.2679  -25.1026 C   0  0  0  0  0  0  0  0  0  0  0  0
    6.4844    4.2087  -25.0279 C   0  0  0  0  0  0  0  0  0  0  0  0
    6.7055    3.6644  -21.1722 C   0  0  0  0  0  0  0  0  0  0  0  0
    4.3799    5.5410  -24.3965 C   0  0  0  0  0  0  0  0  0  0  0  0
    6.4702    5.8928  -23.2097 C   0  0  0  0  0  0  0  0  0  0  0  0
    6.9670    4.4889  -23.5853 C   0  0  1  0  0  0  0  0  0  0  0  0
    6.3581    3.4369  -22.6402 C   0  0  1  0  0  0  0  0  0  0  0  0
    5.8830    2.6748  -20.3457 C   0  0  2  0  0  0  0  0  0  0  0  0
    5.7001    3.5063  -16.7423 C   0  0  0  0  0  0  0  0  0  0  0  0
    6.4160    2.6628  -18.9819 N   0  0  0  0  0  0  0  0  0  0  0  0
    4.4915    3.1250  -20.2190 N   0  0  0  0  0  0  0  0  0  0  0  0
    3.1699    4.1618  -18.5141 N   0  0  0  0  0  0  0  0  0  0  0  0
    6.8110    2.1516  -23.0733 O   0  0  0  0  0  0  0  0  0  0  0  0
    5.0281    5.8474  -23.1297 O   0  0  0  0  0  0  0  0  0  0  0  0
    2.8059   -2.9288  -16.7786 Cl  0  0  0  0  0  0  0  0  0  0  0  0
    6.0136   -5.5026  -19.4454 H   0  0  0  0  0  0  0  0  0  0  0  0
    6.5285   -3.6010  -20.9601 H   0  0  0  0  0  0  0  0  0  0  0  0
    5.9739   -2.2616  -22.5886 H   0  0  0  0  0  0  0  0  0  0  0  0
    6.7165   -0.2998  -23.9155 H   0  0  0  0  0  0  0  0  0  0  0  0
    4.3710   -5.2139  -17.6001 H   0  0  0  0  0  0  0  0  0  0  0  0
    5.0907    0.3265  -19.2549 H   0  0  0  0  0  0  0  0  0  0  0  0
    3.6761   -1.1537  -18.8375 H   0  0  0  0  0  0  0  0  0  0  0  0
    4.6285    4.2819  -26.1588 H   0  0  0  0  0  0  0  0  0  0  0  0
    4.5192    3.3760  -24.6115 H   0  0  0  0  0  0  0  0  0  0  0  0
    6.8239    3.2086  -25.3356 H   0  0  0  0  0  0  0  0  0  0  0  0
    6.9089    4.9645  -25.7051 H   0  0  0  0  0  0  0  0  0  0  0  0
    7.7791    3.4888  -21.0089 H   0  0  0  0  0  0  0  0  0  0  0  0
    6.4544    4.6954  -20.8824 H   0  0  0  0  0  0  0  0  0  0  0  0
    4.5175    6.3985  -25.0716 H   0  0  0  0  0  0  0  0  0  0  0  0
    3.3065    5.3911  -24.2083 H   0  0  0  0  0  0  0  0  0  0  0  0
    6.8893    6.1897  -22.2370 H   0  0  0  0  0  0  0  0  0  0  0  0
    6.7792    6.6166  -23.9783 H   0  0  0  0  0  0  0  0  0  0  0  0
    8.0654    4.4492  -23.5400 H   0  0  0  0  0  0  0  0  0  0  0  0
    5.2639    3.4878  -22.7414 H   0  0  0  0  0  0  0  0  0  0  0  0
    6.6860    3.1419  -16.4181 H   0  0  0  0  0  0  0  0  0  0  0  0
    5.6291    4.5878  -16.5544 H   0  0  0  0  0  0  0  0  0  0  0  0
    4.9128    2.9838  -16.1792 H   0  0  0  0  0  0  0  0  0  0  0  0
    3.7990    3.1045  -20.9401 H   0  0  0  0  0  0  0  0  0  0  0  0
    2.3837    4.2992  -19.1166 H   0  0  0  0  0  0  0  0  0  0  0  0
    3.1278    4.4614  -17.5610 H   0  0  0  0  0  0  0  0  0  0  0  0
  1  2  2  0
  1  5  1  0
  2  9  1  0
  3  4  2  0
  3  8  1  0
  4 11  1  0
  5 12  2  0
  6  8  2  0
  6 10  1  0
  7  9  2  0
  7 12  1  0
  8  9  1  0
 10 11  2  0
 10 22  1  0
 11 27  1  0
 12 29  1  0
 13 14  1  0
 13 23  1  0
 13 24  2  0
 14 25  2  0
 14 26  1  0
 15 16  1  0
 15 18  1  0
 16 20  1  0
 17 21  1  0
 22 17  1  6
 18 28  1  0
 19 20  1  0
 19 28  1  0
 20 21  1  0
 21 27  1  0
 22 24  1  0
 22 25  1  0
  1 30  1  0
  2 31  1  0
  3 32  1  0
  4 33  1  0
  5 34  1  0
  6 35  1  0
  7 36  1  0
 15 37  1  0
 15 38  1  0
 16 39  1  0
 16 40  1  0
 17 41  1  0
 17 42  1  0
 18 43  1  0
 18 44  1  0
 19 45  1  0
 19 46  1  0
 20 47  1  6
 21 48  1  1
 23 49  1  0
 23 50  1  0
 23 51  1  0
 25 52  1  0
 26 53  1  0
 26 54  1  0
M  CHG  1  25   1
M  END
>  <OMEGA_C>  (68) 
KZWwQFuxkcC5dZrB5cG5QCO8XsD3VqHB/pi+QH4Yo79HNrHB+x7MQJ2WLb4NL7fBvriSQPp+jMCL
H5LBHAqvQKSOQz5CDqLBP02GQGTkBcCEq5fBUTKwQIQ2jL8hmabBXqikQLCRD8AZ9J/B3YW9QJ50
pT+v36fB6ZbLQObGjT/1jrLBTpB7QAoESsAet5DBWM6wQBNkT0DOs5HBoiWKQN6fY0CX/5fBhu+d
QAqTiEAp0sjBl4DPQHuthkAxOcjBpJPWQFCGakC1YKnB0CeMQKVPsUAhLMPBLwzPQBqSvECHrbnB
q/HeQLikj0DLrrzBgHXLQLj1W0AsH7XBPEG8QCsvK0Dvw6LBame2QHBnYEBV8IXB4U/NQPtqKkAE
25fBibqPQFb/R0BvwKHBX99KQM0thUD3HJTBZ/PZQLuzCUAKlrjBP+agQPodu0CHCbnBNpQzQINx
O8B9OobBAm/AQKoVsMAskJvBaenQQBx3ZsBCrqfBeSq/QGK+EMB1tbTBj+3WQKx6mb74Ur/Bmt+L
QInYpsAbzYzBBueiQOgupz7+CZrBxEVrQIGtk78us5bBxRyUQDEFiUBFRdHBlp2QQGUQWEBs5MTB
r13aQIFaTUBnr8rBCRbdQAbdnkAMpM3BD+74QCtJX0AwEqjBNYrOQAVBlkAyD6fBZY+QQK/AzECX
ksjBu51TQCqErECFqsHBe3XcQMQRxkBW5bHBNu/YQP2600Cd07/BrgsBQe9fjkABUrzBL3KoQFQ3
X0Bi7rXBG/TVQNYUSUA4WIPBkyG0QFDPkkBmb4TB2jWdQIT2PkACb4HBFSNzQMCvRkBLhafBBo4Y
QEqTiUDc7pjBsy1IQP7DjkDvfIzBATexQO69kMA1ypnBRVu9QELuXMC5XqDB/ojFQJKEpb+fhbDB
ET3SQAxwQ74IkbbBkjyOQPJBjMDvw5LBel6xQGQmQD7pwqHBVEuDQNmBBsCD55jB72S0QDzMjL/0
MqbBRo+mQH8mD8AE3Z/BD/O+QOwzpT/FqKfB/O3NQCYEjD8ESrLBTH1uQBQES8ClW5LBkA6xQDbx
UEC2pZHBLkeKQCJ2ZED26pfB9KW6QIeB0UAqvrXBCTq0QI8jskBQDr/B53/TQOARakD4+qnBKezq
QOVA20C8CbTBCcgAQQh+mkCrEr3BTdnSQJali0DJfL7BJzXFQM4TWED+urXBVtm7QEigK0A+xqLB
pu61QBRpYECNz4XBNwXOQE9VLkAa6ZfBlhePQGC4RUA+jqHBN+RLQOF0hkAYFpTB1unXQGXCCEBo
zrjBergCQbI/tUC+vLPBK3YXQG5XP8B+w4nBBarCQNiLrsCVG5rBigjYQHywY8AozKXBHM7IQGea
EsDrurPBjE3fQLcUqL5Qfb7BdwSFQCCepsDerI3BOJCkQJWipD7mzpnB+ENjQDFFlr9JoZjBq7ip
QBqH70AsiLfB3HqtQI5Vw0AXZK7B6RiTQLdFpkAH2r7BH9K5QEE+w0BynsbBzTz2QDeJYEC3NKnB
2VrLQKkalkCpwafBs/71QNK970AAo7rBO6HuQFtn7EDGaKzBuCoLQXuhfEAPJrzB37wFQS26rEAw
LsTB19jQQOSFdUBQMcbBAxyiQIbNUkCz17XBi6LVQCkySkB3LoPBRMOyQDegkkD7JYTBpvKcQEsW
PUC4dYHB1X5wQPjYQEDgH6fBEggZQElEikAf2ZjBWEhKQDVAkUDRjozB

>  <OMEGA_E>  (68) 
tlkoP+hJJj8=

>  <OMEGA_NBR>  (68) 
     10290

$$$$
270667
     RDKit          3D

 54 58  0  0  1  0  0  0  0  0999 V2000
    5.3007   -4.4142  -19.0560 C   0  0  0  0  0  0  0  0  0  0  0  0
    5.7588   -3.3630  -19.8717 C   0  0  0  0  0  0  0  0  0  0  0  0
    6.2277   -1.2643  -21.9431 C   0  0  0  0  0  0  0  0  0  0  0  0
    6.7047   -0.2011  -22.7251 C   0  0  0  0  0  0  0  0  0  0  0  0
    4.1694   -4.2310  -18.2373 C   0  0  0  0  0  0  0  0  0  0  0  0
    5.3770    0.3281  -20.3050 C   0  0  0  0  0  0  0  0  0  0  0  0
    3.9473   -1.9436  -19.0498 C   0  0  0  0  0  0  0  0  0  0  0  0
    5.5693   -1.0063  -20.7197 C   0  0  0  0  0  0  0  0  0  0  0  0
    5.0854   -2.1178  -19.8741 C   0  0  0  0  0  0  0  0  0  0  0  0
    5.8246    1.3998  -21.1000 C   0  0  0  0  0  0  0  0  0  0  0  0
    6.5301    1.1289  -22.3014 C   0  0  0  0  0  0  0  0  0  0  0  0
    3.4938   -2.9950  -18.2347 C   0  0  0  0  0  0  0  0  0  0  0  0
    5.6764    3.5803  -18.5080 C   0  0  0  0  0  0  0  0  0  0  0  0
    4.2628    3.5065  -18.9286 C   0  0  0  0  0  0  0  0  0  0  0  0
    5.7284    6.4509  -23.4324 C   0  0  0  0  0  0  0  0  0  0  0  0
    7.2103    5.9504  -23.3698 C   0  0  0  0  0  0  0  0  0  0  0  0
    5.8307    3.8056  -21.7647 C   0  0  0  0  0  0  0  0  0  0  0  0
    4.9602    5.8743  -24.6419 C   0  0  0  0  0  0  0  0  0  0  0  0
    6.5650    4.1254  -25.0088 C   0  0  0  0  0  0  0  0  0  0  0  0
    7.4065    4.4444  -23.7396 C   0  0  2  0  0  0  0  0  0  0  0  0
    7.1152    3.4624  -22.5538 C   0  0  2  0  0  0  0  0  0  0  0  0
    5.5854    2.8245  -20.6273 C   0  0  2  0  0  0  0  0  0  0  0  0
    6.1515    4.0620  -17.1585 C   0  0  0  0  0  0  0  0  0  0  0  0
    6.4518    3.1533  -19.4800 N   0  0  0  0  0  0  0  0  0  0  0  0
    4.2124    2.9982  -20.1318 N   0  0  0  0  0  0  0  0  0  0  0  0
    3.1712    3.8820  -18.1593 N   0  0  0  0  0  0  0  0  0  0  0  0
    7.0522    2.1209  -23.1034 O   0  0  0  0  0  0  0  0  0  0  0  0
    5.1817    4.4561  -24.7935 O   0  0  0  0  0  0  0  0  0  0  0  0
    2.0885   -2.7623  -17.2248 Cl  0  0  0  0  0  0  0  0  0  0  0  0
    5.8172   -5.3627  -19.0579 H   0  0  0  0  0  0  0  0  0  0  0  0
    6.6269   -3.5067  -20.4979 H   0  0  0  0  0  0  0  0  0  0  0  0
    6.3641   -2.2823  -22.2772 H   0  0  0  0  0  0  0  0  0  0  0  0
    7.2090   -0.4053  -23.6580 H   0  0  0  0  0  0  0  0  0  0  0  0
    3.8197   -5.0386  -17.6112 H   0  0  0  0  0  0  0  0  0  0  0  0
    4.8808    0.5297  -19.3672 H   0  0  0  0  0  0  0  0  0  0  0  0
    3.4252   -0.9982  -19.0473 H   0  0  0  0  0  0  0  0  0  0  0  0
    5.2137    6.1456  -22.5094 H   0  0  0  0  0  0  0  0  0  0  0  0
    5.7295    7.5484  -23.5057 H   0  0  0  0  0  0  0  0  0  0  0  0
    7.8062    6.5554  -24.0690 H   0  0  0  0  0  0  0  0  0  0  0  0
    7.5806    6.1028  -22.3453 H   0  0  0  0  0  0  0  0  0  0  0  0
    5.9301    4.8180  -21.3461 H   0  0  0  0  0  0  0  0  0  0  0  0
    4.9723    3.7756  -22.4519 H   0  0  0  0  0  0  0  0  0  0  0  0
    3.8844    6.0529  -24.4979 H   0  0  0  0  0  0  0  0  0  0  0  0
    5.2980    6.3867  -25.5548 H   0  0  0  0  0  0  0  0  0  0  0  0
    6.9500    4.7131  -25.8552 H   0  0  0  0  0  0  0  0  0  0  0  0
    6.6491    3.0530  -25.2385 H   0  0  0  0  0  0  0  0  0  0  0  0
    8.4644    4.3148  -24.0117 H   0  0  0  0  0  0  0  0  0  0  0  0
    7.9639    3.5239  -21.8568 H   0  0  0  0  0  0  0  0  0  0  0  0
    7.2488    4.0011  -17.1123 H   0  0  0  0  0  0  0  0  0  0  0  0
    5.8357    5.1051  -17.0097 H   0  0  0  0  0  0  0  0  0  0  0  0
    5.7158    3.4309  -16.3699 H   0  0  0  0  0  0  0  0  0  0  0  0
    3.3783    2.7659  -20.6321 H   0  0  0  0  0  0  0  0  0  0  0  0
    2.2445    3.7712  -18.5185 H   0  0  0  0  0  0  0  0  0  0  0  0
    3.3110    4.2635  -17.2456 H   0  0  0  0  0  0  0  0  0  0  0  0
  1  2  2  0
  1  5  1  0
  2  9  1  0
  3  4  2  0
  3  8  1  0
  4 11  1  0
  5 12  2  0
  6  8  2  0
  6 10  1  0
  7  9  2  0
  7 12  1  0
  8  9  1  0
 10 11  2  0
 10 22  1  0
 11 27  1  0
 12 29  1  0
 13 14  1  0
 13 23  1  0
 13 24  2  0
 14 25  2  0
 14 26  1  0
 15 16  1  0
 15 18  1  0
 16 20  1  0
 17 21  1  0
 22 17  1  6
 18 28  1  0
 19 20  1  0
 19 28  1  0
 20 21  1  0
 21 27  1  0
 22 24  1  0
 22 25  1  0
  1 30  1  0
  2 31  1  0
  3 32  1  0
  4 33  1  0
  5 34  1  0
  6 35  1  0
  7 36  1  0
 15 37  1  0
 15 38  1  0
 16 39  1  0
 16 40  1  0
 17 41  1  0
 17 42  1  0
 18 43  1  0
 18 44  1  0
 19 45  1  0
 19 46  1  0
 20 47  1  6
 21 48  1  1
 23 49  1  0
 23 50  1  0
 23 51  1  0
 25 52  1  0
 26 53  1  0
 26 54  1  0
M  CHG  1  25   1
M  END
>  <OMEGA_C>  (69) 
BZ+pQIZBjcDAcpjB6ke4QHs7V8A6+Z7BJEnHQInVob+Gi6/BCY3WQOjyTb72zLXBl2uFQHhkh8D2
5ZHBDBCsQIf/pz6rcKLBTaF8QHnI+L/sZZjBczeyQLHNgL/swaXBt7uiQGGKB8Ae/p7B/WK6QGks
sz/dzKjBzvbQQI5/kD8vabLB+JpfQHauP8Cw4JHBcaW1QGgjZUBjEJTBrWiIQG1qYEDNbZfBU0+3
QINtzkB5dbvBc7rmQJNpvkBq9brBfZW6QMuOc0AcHq7B3LmeQH/6u0CpIsXBexTSQKUDhEDuEcjB
5QHtQMg4jkCt6r3Bz6/jQHWYXUA8brTBRruyQA3FNEDLBKXBEtnEQLn7gUCuRInBMHXOQNnPSUAI
15vBNcyGQAjiP0DjDaHBzvRKQDxyeEA/RpHBVKvhQLi8B0DO07jBOdClQJuYjkAkWcbBLaoFQOnJ
MMB+zInBWia6QG2bq8B9dpjBmA/UQDBtYMCt+6PBqabLQI0QEsC2N7LBerDmQB9/z76gQ73BcnZ0
QM47ocCq44zBXi+cQNuaBz/x75rBMjdbQGiKf7/wYJjBn9amQJeoxEBCE7TBali3QKiM8UCuC7zB
QMz5QDDG0UA8jcDBLJTyQIBKw0A5w7LBtMO9QLssmkDPxKrBOx2fQGmjcUBtnbPBmZl4QIKxwUDH
+8PB6oipQIJfzEBTcMzBWGbeQFnRlkB7187BiMXUQE1kQ0Bw6MnBFG4HQY8SikD6F8DBldj+QN6G
YUCp2q7BevbnQKgIgEAR5ojBNr66QBddo0DdE4jBIui2QBqUW0CK9YLBOTZYQEYFMUCKDqXBRqYP
QI5acUDVJZTB/+ZTQEVuiEDm9onBGHCuQFQ/jsCZQJnBYr+7QOzAWMDt1J/BVdXGQI5uor9BM7DB
uzbVQO4VO74UL7bBUlaKQDFLicBdnJLBPNutQErXgz5MRKLBl6eAQH9LAcDoHZnB2VuzQMoihr+h
MKbBlO2kQJjVCsDwuZ/B5wW7QFzbrD8NXajB2+7PQFIGjz9UP7LBvPhmQEXdRMDAkJLBP6O0QPmY
XEBGG5PBVbiIQCjpYkBPTJfBbuvoQIKP0kCiGLbB5D4AQYm3sEDPsLzBLgW5QD7Ab0BgHK3BiZ+8
QFoN3EDuGrvBlMO4QKbRlUAhYsPBbcDkQK8HiUAuib7BK63gQIhCW0CyNLTBn/myQBy7L0D5I6TB
ySDBQGDDcUBQxYfBtEPOQDPVQUBqxJrBWgmHQKlMOEDXPKDBojpNQG9VhkCFh5LBxu7eQC4fB0BC
lrjBLqKjQJe3tUC41bzBu2YNQA2MN8ClbYrBJ9u/QMgYrMB+R5nB51TXQCg7YMDP86TBj5fKQE+M
EcCJN7PB6GTkQPnFr7611r3BtSiAQM9co8CLio3BEGmfQKxP1D7nhJrBrx1eQFuci7/9HZnBk4bk
QEi3xkDt4a3BGPn7QKgm8EBZ77XBEZUEQemLvkC0fMTBA9wOQeQwp0BYZ7jBiy29QNvil0DvmanB
0EOcQJw4b0CXL7LBSM+qQJtf8UCzs7XB3XTBQA4Z7EAN2MLB2sy9QJ7wokCSc8vBtVWkQBhzckAk
48PB1yf1QN5CakB2hsTByc/9QBKbY0AKYa/BTLPjQMN7Z0CGuobBqGC5QFaMmkB3FYbB1WqvQGQs
SEBeOILBolFZQCmqIUBQxqPBMIMTQKDEhUC9+5XB361VQKT6lUCSoYvBU5KGQJhqjMDMM53BGt2V
QPuuVcDdqKPBGh7IQOcXor91cq/BIFnXQNjJUL5yurXBbCSEQAc6h8CRBpLB/1KsQOVrpz6Pa6LB
gm6gQIJz+799tpPBGLuyQAXxgL8Es6XBR+miQJF/B8CQ9Z7B3cS6QN7lsj/Aw6jBGmjRQPxHkD8n
Z7LB6Q2RQJnXQMCMSo3Bv321QHUZZkD/J5TByjqIQI1dYECweZfBWP7pQMZ810Cq47PBg+kDQZmL
tkBZSbnBU1O5QAVpcUBscq7BD9nBQAEB4EC+17rBHonIQIADnEBMKcTB4//vQLMvjkCfbr3BVRrk
QOfiXECQPLTBcnKyQI/gNECkFKXBJZ7EQAh9gkAKWonBd1TOQPv7S0Da/pvBeJeGQNdPP0BlEqHB
2YxKQPdReEC/U5HBF1LhQLc8CEAA67jBzxmtQIPXuECAML7BqSuOQGmRM8Dy4H7BVl95QDEzqsBj
0qDBVaaXQH/UXcBQOqzBTsLMQJY9EsCUErLBr7jnQBzZ0b4WKL3Bzb5wQEgEocB3FY3BVSecQI92
Bz8f9ZrBEmmqQBLEhL9PDZDB9NzfQNALy0B7DqzB54P7QNGv9UBDxbLBu90LQYQZxkAUG8DB6QIQ
QTFdrECqbLPBnkS6QJPRmUC6eKvByLWeQNtXakBII7TBDPaqQFYc80AgKrbBa4nLQKwJ8kBdAMLB
ZazTQIhNrEDScsvB+Bq2QA29fkClYcbBrv0CQQl3ekC518LBTfv9QABCXkAdRq7BqsTnQJEogUA3
BonBxPC5QJmno0DSGYjBrCe3QEnOW0CGDoPBEMpXQNi2L0A6B6XBaT8PQJm8cECnLpTBknNTQEOW
iEAZCorBBOGGQMugjMB+L53B3aeVQG/qVcCar6PBwUTHQL7Yob/cka/ByqfWQDl7Tb5GzbXBxvaE
QF53h8BtAJLBzK2rQIyZpz4DgqLBk7ugQOy1+7/uxJPBsxCyQPnhgL++zKXBJqyiQPOTB8CnBZ/B
Vk+6QEIjsz/K0ajBoRTRQNiGkD8eZ7LBueGRQPYsQcCqTY3B7Yi1QMHmZEAMEJTBzlCIQNNgYEBf
cpfBXp63QLV+zkCVb7vBrwTnQEVvvkAt6LrBfay6QJWNc0CZHa7B5h6fQGYYvEBXIcXBanDSQP4S
hEDUCcjBO0rtQDg/jkCJ3r3B+N7jQMWgXUA5ZLTBx66yQA6/NEB+B6XBFLPEQH/KgUDMQYnBRV7O
QKGYSUCm1ZvBZLyGQJ8MQEBWFaHBlrtKQEZleEBNTJHBm/bhQJrDB0AxyrjBCyumQA21jkAwWMbB
WKuPQAH6M8DK4n7B7/x5QC13qsD6xqDBcBGXQLAIXsBGQqzBm6TLQG4OEsA6P7LBOeHmQNL0zr45
Qb3BASxzQG5UocDSBo3BUGGbQIxOBz+eD5vBjLeqQP3NhL8uI5DBmg+nQOy4xECHELTBVLG3QDee
8UBcBLzBDSr6QLvL0UDYe8DBBMnyQKBHw0C+s7LBLM29QJEqmkCPwqrBpEmfQJ+mcUCao7PByGB5
QPfYwUAxAMTB5QaqQCR+zECVbMzBldjeQPXclkB7zc7BUhvVQGKBQ0D038nBNZQHQYoUikB4B8DB
W/P+QHaeYUCjyq7BYM/nQAmYf0Bx4IjBBKG6QG0to0ASD4jBhbO2QL8pW0B59YLB4xtYQFZuMUCt
GqXBRnMPQJp1cUBpL5TBtqBTQJNSiECA+onB

>  <OMEGA_E>  (69) 
KJEtPzJeLT8CwUY/OBxEPw==

>  <OMEGA_NBR>  (69) 
     14188

$$$$
284490
     RDKit          3D

 57 62  0  0  1  0  0  0  0  0999 V2000
    5.2860   -4.5057  -19.2440 C   0  0  0  0  0  0  0  0  0  0  0  0
    5.7254   -3.4255  -20.0259 C   0  0  0  0  0  0  0  0  0  0  0  0
    6.1341   -1.2628  -21.9972 C   0  0  0  0  0  0  0  0  0  0  0  0
    6.5662   -0.1863  -22.7754 C   0  0  0  0  0  0  0  0  0  0  0  0
    4.2312   -4.3297  -18.3298 C   0  0  0  0  0  0  0  0  0  0  0  0
    5.4317    0.2822  -20.2515 C   0  0  0  0  0  0  0  0  0  0  0  0
    4.0401   -1.9925  -18.9883 C   0  0  0  0  0  0  0  0  0  0  0  0
    6.2577    5.1255  -21.0623 C   0  0  0  0  0  0  0  0  0  0  0  0
    7.3026    5.7347  -23.1698 C   0  0  0  0  0  0  0  0  0  0  0  0
    5.5589   -1.0342  -20.7302 C   0  0  0  0  0  0  0  0  0  0  0  0
    5.1010   -2.1625  -19.9079 C   0  0  0  0  0  0  0  0  0  0  0  0
    6.7445    6.1149  -21.9304 C   0  0  0  0  0  0  0  0  0  0  0  0
    5.8704    1.3667  -21.0279 C   0  0  0  0  0  0  0  0  0  0  0  0
    6.2987    3.7702  -21.4250 C   0  0  0  0  0  0  0  0  0  0  0  0
    6.4364    1.1286  -22.3065 C   0  0  0  0  0  0  0  0  0  0  0  0
    6.8302    3.3954  -22.6848 C   0  0  0  0  0  0  0  0  0  0  0  0
    7.3422    4.3846  -23.5400 C   0  0  0  0  0  0  0  0  0  0  0  0
    3.6151   -3.0710  -18.1971 C   0  0  0  0  0  0  0  0  0  0  0  0
    7.4946    8.4815  -22.0443 C   0  0  0  0  0  0  0  0  0  0  0  0
    6.6142    7.5354  -21.5490 C   0  0  0  0  0  0  0  0  0  0  0  0
    6.4282    2.8561  -19.1110 C   0  0  0  0  0  0  0  0  0  0  0  0
    4.2278    3.4416  -18.9011 C   0  0  0  0  0  0  0  0  0  0  0  0
    7.3872    9.9465  -21.6564 C   0  0  0  0  0  0  0  0  0  0  0  0
    5.4874    7.9505  -20.6003 C   0  0  0  0  0  0  0  0  0  0  0  0
    5.2316    9.4632  -20.6667 C   0  0  0  0  0  0  0  0  0  0  0  0
    5.7421    2.7572  -20.4637 C   0  0  2  0  0  0  0  0  0  0  0  0
    5.6245    3.4160  -16.7854 C   0  0  0  0  0  0  0  0  0  0  0  0
    5.4134    3.1443  -18.2124 N   0  0  0  0  0  0  0  0  0  0  0  0
    4.3362    3.0681  -20.1568 N   0  0  0  0  0  0  0  0  0  0  0  0
    3.0935    4.0148  -18.3469 N   0  0  0  0  0  0  0  0  0  0  0  0
    7.6164    2.6776  -18.8669 O   0  0  0  0  0  0  0  0  0  0  0  0
    6.8862    2.1042  -23.1654 O   0  0  0  0  0  0  0  0  0  0  0  0
    6.4876   10.1563  -20.5404 O   0  0  0  0  0  0  0  0  0  0  0  0
    7.8622    4.0376  -24.7402 F   0  0  0  0  0  0  0  0  0  0  0  0
    2.3281   -2.8415  -17.0442 Cl  0  0  0  0  0  0  0  0  0  0  0  0
    5.7577   -5.4720  -19.3444 H   0  0  0  0  0  0  0  0  0  0  0  0
    6.5425   -3.5597  -20.7193 H   0  0  0  0  0  0  0  0  0  0  0  0
    6.2408   -2.2720  -22.3666 H   0  0  0  0  0  0  0  0  0  0  0  0
    7.0037   -0.3682  -23.7459 H   0  0  0  0  0  0  0  0  0  0  0  0
    3.8938   -5.1613  -17.7290 H   0  0  0  0  0  0  0  0  0  0  0  0
    4.9938    0.4599  -19.2804 H   0  0  0  0  0  0  0  0  0  0  0  0
    3.5562   -1.0315  -18.8947 H   0  0  0  0  0  0  0  0  0  0  0  0
    5.8471    5.4099  -20.1048 H   0  0  0  0  0  0  0  0  0  0  0  0
    7.7004    6.4871  -23.8346 H   0  0  0  0  0  0  0  0  0  0  0  0
    8.2760    8.1712  -22.7223 H   0  0  0  0  0  0  0  0  0  0  0  0
    8.3865   10.3129  -21.3785 H   0  0  0  0  0  0  0  0  0  0  0  0
    7.0157   10.5151  -22.5217 H   0  0  0  0  0  0  0  0  0  0  0  0
    4.5669    7.4186  -20.8826 H   0  0  0  0  0  0  0  0  0  0  0  0
    5.7668    7.6791  -19.5715 H   0  0  0  0  0  0  0  0  0  0  0  0
    4.7656    9.7165  -21.6304 H   0  0  0  0  0  0  0  0  0  0  0  0
    4.5620    9.7605  -19.8462 H   0  0  0  0  0  0  0  0  0  0  0  0
    4.6563    3.6140  -16.3022 H   0  0  0  0  0  0  0  0  0  0  0  0
    6.0985    2.5433  -16.3123 H   0  0  0  0  0  0  0  0  0  0  0  0
    6.2771    4.2942  -16.6721 H   0  0  0  0  0  0  0  0  0  0  0  0
    3.5781    3.0047  -20.8058 H   0  0  0  0  0  0  0  0  0  0  0  0
    2.2838    4.1692  -18.9131 H   0  0  0  0  0  0  0  0  0  0  0  0
    3.0851    4.2739  -17.3811 H   0  0  0  0  0  0  0  0  0  0  0  0
  1  2  2  0
  1  5  1  0
  2 11  1  0
  3  4  2  0
  3 10  1  0
  4 15  1  0
  5 18  2  0
  6 10  2  0
  6 13  1  0
  7 11  2  0
  7 18  1  0
  8 12  2  0
  8 14  1  0
  9 12  1  0
  9 17  2  0
 10 11  1  0
 12 20  1  0
 13 15  2  0
 13 26  1  0
 14 16  2  0
 14 26  1  0
 15 32  1  0
 16 17  1  0
 16 32  1  0
 17 34  1  0
 18 35  1  0
 19 20  2  0
 19 23  1  0
 20 24  1  0
 26 21  1  1
 21 28  1  0
 21 31  2  0
 22 28  1  0
 22 29  2  0
 22 30  1  0
 23 33  1  0
 24 25  1  0
 25 33  1  0
 26 29  1  0
 27 28  1  0
  1 36  1  0
  2 37  1  0
  3 38  1  0
  4 39  1  0
  5 40  1  0
  6 41  1  0
  7 42  1  0
  8 43  1  0
  9 44  1  0
 19 45  1  0
 23 46  1  0
 23 47  1  0
 24 48  1  0
 24 49  1  0
 25 50  1  0
 25 51  1  0
 27 52  1  0
 27 53  1  0
 27 54  1  0
 29 55  1  0
 30 56  1  0
 30 57  1  0
M  CHG  1  29   1
M  END
>  <OMEGA_C>  (70) 
pyapQOMukMDK85nB1ja3QLQ7W8AeNaDB20rEQJmiob9b+q/BfB7SQEi+Pr4INLbB/2WHQNyMisBv
o5LBodCtQMR6kD4SA6LBLEiBQIIL/7/z55fB/z7IQLIDpECkf6jB8K7pQFqCt0CpW7nBYeKxQBhf
hL9y16XBgzujQF5mCsBXQ5/BtNLXQHytw0Bcca/BRdq7QGjxrj8wOajB047JQDxLcUBoZqvB1PbN
QMh2kD+jc7LBCZHaQKBOWUCOerXB7fLqQHZOjEDnUbzBHV5nQEmLRMCqk5HBDtTvQCK0B0HRWrDB
hqfTQPIh8UBEZKzBi7PNQOTKNkBU45jBzkmHQD5DXEBlNZfB0WPsQAElH0E2QK3B2pivQJZq/kBU
zaTBJGmnQBFpF0F3VaXBA7+3QMx1MECWtaPBp/uzQFCfWkB/SIbB1DqtQBo8SUDxspHBUsKKQGpb
REAwQaHBDvxFQEF5gECKxpLBd7nzQKBdK0Bw75bB9FvcQL6qBkC1UrnBJprPQCWAIkHWUqTBZZf7
QPczgUDs68XB7P4UQOzaNcCCWojBeD+4QNoar8BpwZrBZVzRQHnSY8AkwaXBvbTHQMloEcDZ7rLB
sh7gQNmIvL6b973BazN5QKYppcAU1Y3BQs2fQCV+6z5CPprBX5ljQL8IhL9cKJfBFhu7QB4erUCh
1qDBb2n2QFiWz0BCrb7BeGoEQSq9AkE7x7XBDS8GQZgBJUFCB6vBiYDgQMY9KEFZLLTBJySSQBFl
7UCqD6fBoom4QHi79UB7kpzB+X+YQOh2G0EUC63Bp/uRQPoqHEEaxZ7BkwCVQBFMZ0DwaoLBDyfD
QCPGIkCnf4LBK97IQLxpiUBrYIXBzv5kQMVMQEBHcqbBaykSQMdphUD7TZfBoHJFQKDDiECKDIvB

>  <OMEGA_E>  (70) 
oMk1Pw==

>  <OMEGA_NBR>  (70) 
     15438

$$$$
284493
     RDKit          3D

 58 63  0  0  1  0  0  0  0  0999 V2000
    5.4119   -4.4777  -19.1861 C   0  0  0  0  0  0  0  0  0  0  0  0
    5.8560   -3.3888  -19.9515 C   0  0  0  0  0  0  0  0  0  0  0  0
    6.6644    7.8808  -20.1874 C   0  0  0  0  0  0  0  0  0  0  0  0
    6.8958    8.5101  -22.5383 C   0  0  0  0  0  0  0  0  0  0  0  0
    6.2003   -1.2695  -21.9708 C   0  0  0  0  0  0  0  0  0  0  0  0
    6.6380    9.2378  -19.8295 C   0  0  0  0  0  0  0  0  0  0  0  0
    6.8874    9.8642  -22.1742 C   0  0  0  0  0  0  0  0  0  0  0  0
    6.6133   -0.1944  -22.7531 C   0  0  0  0  0  0  0  0  0  0  0  0
    4.2676   -4.3462  -18.3760 C   0  0  0  0  0  0  0  0  0  0  0  0
    5.4213    0.2782  -20.2532 C   0  0  0  0  0  0  0  0  0  0  0  0
    6.2849    5.1083  -21.0759 C   0  0  0  0  0  0  0  0  0  0  0  0
    7.3547    5.6836  -23.1812 C   0  0  0  0  0  0  0  0  0  0  0  0
    4.0140   -2.0323  -19.0872 C   0  0  0  0  0  0  0  0  0  0  0  0
    6.7958    7.5031  -21.5486 C   0  0  0  0  0  0  0  0  0  0  0  0
    5.5984   -1.0364  -20.7199 C   0  0  0  0  0  0  0  0  0  0  0  0
    5.1547   -2.1632  -19.9068 C   0  0  0  0  0  0  0  0  0  0  0  0
    6.8169    6.0811  -21.9382 C   0  0  0  0  0  0  0  0  0  0  0  0
    5.8521    1.3632  -21.0289 C   0  0  0  0  0  0  0  0  0  0  0  0
    6.2996    3.7549  -21.4324 C   0  0  0  0  0  0  0  0  0  0  0  0
    6.7729   10.2318  -20.8193 C   0  0  0  0  0  0  0  0  0  0  0  0
    6.4425    1.1180  -22.2973 C   0  0  0  0  0  0  0  0  0  0  0  0
    6.8191    3.3700  -22.6946 C   0  0  0  0  0  0  0  0  0  0  0  0
    7.3332    4.3424  -23.5609 C   0  0  0  0  0  0  0  0  0  0  0  0
    3.5714   -3.1222  -18.3271 C   0  0  0  0  0  0  0  0  0  0  0  0
    6.4127    2.8521  -19.1085 C   0  0  0  0  0  0  0  0  0  0  0  0
    4.2241    3.4820  -18.9024 C   0  0  0  0  0  0  0  0  0  0  0  0
    5.7269    2.7568  -20.4644 C   0  0  2  0  0  0  0  0  0  0  0  0
    6.7203   11.6937  -20.4371 C   0  0  0  0  0  0  0  0  0  0  0  0
    5.6042    3.3968  -16.7773 C   0  0  0  0  0  0  0  0  0  0  0  0
    5.4023    3.1642  -18.2131 N   0  0  0  0  0  0  0  0  0  0  0  0
    4.3230    3.0913  -20.1557 N   0  0  0  0  0  0  0  0  0  0  0  0
    3.1059    4.0799  -18.3398 N   0  0  0  0  0  0  0  0  0  0  0  0
    7.5917    2.6314  -18.8551 O   0  0  0  0  0  0  0  0  0  0  0  0
    6.8803    2.0824  -23.1640 O   0  0  0  0  0  0  0  0  0  0  0  0
    7.8281    3.9846  -24.7684 F   0  0  0  0  0  0  0  0  0  0  0  0
    2.1517   -2.9491  -17.3316 Cl  0  0  0  0  0  0  0  0  0  0  0  0
    5.9469   -5.4154  -19.2182 H   0  0  0  0  0  0  0  0  0  0  0  0
    6.7330   -3.4875  -20.5740 H   0  0  0  0  0  0  0  0  0  0  0  0
    6.5845    7.1214  -19.4236 H   0  0  0  0  0  0  0  0  0  0  0  0
    6.9789    8.2341  -23.5791 H   0  0  0  0  0  0  0  0  0  0  0  0
    6.3416   -2.2806  -22.3231 H   0  0  0  0  0  0  0  0  0  0  0  0
    6.5140    9.5204  -18.7946 H   0  0  0  0  0  0  0  0  0  0  0  0
    6.9689   10.6270  -22.9344 H   0  0  0  0  0  0  0  0  0  0  0  0
    7.0675   -0.3738  -23.7163 H   0  0  0  0  0  0  0  0  0  0  0  0
    3.9227   -5.1858  -17.7907 H   0  0  0  0  0  0  0  0  0  0  0  0
    4.9528    0.4521  -19.2958 H   0  0  0  0  0  0  0  0  0  0  0  0
    5.8605    5.4074  -20.1288 H   0  0  0  0  0  0  0  0  0  0  0  0
    7.7849    6.4221  -23.8413 H   0  0  0  0  0  0  0  0  0  0  0  0
    3.4828   -1.0929  -19.0459 H   0  0  0  0  0  0  0  0  0  0  0  0
    7.7384   12.0566  -20.2326 H   0  0  0  0  0  0  0  0  0  0  0  0
    6.2838   12.2733  -21.2638 H   0  0  0  0  0  0  0  0  0  0  0  0
    6.1002   11.8150  -19.5367 H   0  0  0  0  0  0  0  0  0  0  0  0
    4.6385    3.6255  -16.3030 H   0  0  0  0  0  0  0  0  0  0  0  0
    6.0343    2.4951  -16.3169 H   0  0  0  0  0  0  0  0  0  0  0  0
    6.2916    4.2439  -16.6363 H   0  0  0  0  0  0  0  0  0  0  0  0
    3.5616    3.0303  -20.8011 H   0  0  0  0  0  0  0  0  0  0  0  0
    2.2923    4.2434  -18.8978 H   0  0  0  0  0  0  0  0  0  0  0  0
    3.1134    4.3475  -17.3763 H   0  0  0  0  0  0  0  0  0  0  0  0
  1  2  2  0
  1  9  1  0
  2 16  1  0
  3  6  2  0
  3 14  1  0
  4  7  1  0
  4 14  2  0
  5  8  2  0
  5 15  1  0
  6 20  1  0
  7 20  2  0
  8 21  1  0
  9 24  2  0
 10 15  2  0
 10 18  1  0
 11 17  2  0
 11 19  1  0
 12 17  1  0
 12 23  2  0
 13 16  2  0
 13 24  1  0
 14 17  1  0
 15 16  1  0
 18 21  2  0
 18 27  1  0
 19 22  2  0
 19 27  1  0
 20 28  1  0
 21 34  1  0
 22 23  1  0
 22 34  1  0
 23 35  1  0
 24 36  1  0
 27 25  1  1
 25 30  1  0
 25 33  2  0
 26 30  1  0
 26 31  2  0
 26 32  1  0
 27 31  1  0
 29 30  1  0
  1 37  1  0
  2 38  1  0
  3 39  1  0
  4 40  1  0
  5 41  1  0
  6 42  1  0
  7 43  1  0
  8 44  1  0
  9 45  1  0
 10 46  1  0
 11 47  1  0
 12 48  1  0
 13 49  1  0
 28 50  1  0
 28 51  1  0
 28 52  1  0
 29 53  1  0
 29 54  1  0
 29 55  1  0
 31 56  1  0
 32 57  1  0
 32 58  1  0
M  CHG  1  31   1
M  END
>  <OMEGA_C>  (71) 
dC6tQLpJj8AZfZnBsmS7QLTiWMCknJ/BJEPVQOEv/EC2f6HBAqrcQGYpCEFyTrTBOmnGQP1/or8d
xK/BOWrUQBzOE0Heop7BYWXcQK7THUHFZLHB5p/TQNgGR75XBrbBYJCIQFkUi8AhApPBqXutQLBt
jj5+BqLBzR3JQPB2o0Bdm6jBcFnrQNjftUAAc7nB6HKAQCIRAsChspjBjHfZQA8Z8ECbY6zBLiaz
QDiphL9FwqXBDPOkQGNyCsAuQZ/BDSTaQDWYwkB8ga/BtUS7QBB8rj8/O6jBkpbJQDZQcECndavB
s7vYQKS1I0HxjabB4ijOQBQajz/XYLLBcjbaQKqtV0CKjrXBk6nqQJ/0ikDGfLzBVpFkQJLRR8Dm
nZLBtjTNQHiINkAt3pjBtSuHQNzZXkAMOJfBkEK3QMZuMEAit6PB2AzXQGYZO0Edf6PB3lWzQLxk
WUDhN4bBxd+sQAaDSkBitJHBzFWKQCDXRUDQPqHBoMdGQL+OgkAAuJLBNe/yQJBpKEAm15bBryvc
QDpFBUDpT7nBaX/6QJIDf0CmJcbBJLYJQHi+PMATp4rBO02+QLxKrcDWvpnB8XTXQOsyX8Cgl6TB
ObTSQMji40CRY5vBzlLfQAy/A0ETorzBq+7KQOP1EcCclbLBCXPQQL5TGEE/W5bBCAHfQCAIKkGj
ebfBXSniQFJnv74Lu73B5g17QPjxpcBnU47BbH2eQFx05z61XZrBU4m7QFQJrUDhB6HBPh75QPaB
zUAHu77BRuZeQIvji78UXpjB46D3QOnnQEFM3KHBiRTJQEZfREFPHKrBkDTDQHEKPUEiS5zBQG6U
QMQHaEB6bILBERnBQG2vH0DxiILBm1TJQEHOh0AVF4XBlfFjQMzvQUC4aKbBqrUSQLzJh0DALpfB
sUJHQKMei0C7AovB

>  <OMEGA_E>  (71) 
oP4wPw==

>  <OMEGA_NBR>  (71) 
     16705

$$$$
284491
     RDKit          3D

 57 62  0  0  1  0  0  0  0  0999 V2000
    7.5270    9.5407  -23.3125 C   0  0  0  0  0  0  0  0  0  0  0  0
    7.5690    8.1505  -23.4186 C   0  0  0  0  0  0  0  0  0  0  0  0
    7.1547    5.3331  -24.0067 C   0  0  0  0  0  0  0  0  0  0  0  0
    7.1954    3.9446  -24.1094 C   0  0  0  0  0  0  0  0  0  0  0  0
    6.5567   10.1499  -22.5171 C   0  0  0  0  0  0  0  0  0  0  0  0
    6.2586    5.1329  -21.7743 C   0  0  0  0  0  0  0  0  0  0  0  0
    5.6707    7.9789  -21.9338 C   0  0  0  0  0  0  0  0  0  0  0  0
    5.4211    0.4280  -20.1149 C   0  0  0  0  0  0  0  0  0  0  0  0
    5.9589   -1.3560  -21.6500 C   0  0  0  0  0  0  0  0  0  0  0  0
    6.6855    5.9276  -22.8393 C   0  0  0  0  0  0  0  0  0  0  0  0
    6.6411    7.3696  -22.7292 C   0  0  0  0  0  0  0  0  0  0  0  0
    5.4615   -0.9333  -20.4209 C   0  0  0  0  0  0  0  0  0  0  0  0
    6.2939    3.7311  -21.8621 C   0  0  0  0  0  0  0  0  0  0  0  0
    5.8766    1.3869  -21.0354 C   0  0  0  0  0  0  0  0  0  0  0  0
    6.7655    3.1480  -23.0428 C   0  0  0  0  0  0  0  0  0  0  0  0
    6.3726    0.9470  -22.2670 C   0  0  0  0  0  0  0  0  0  0  0  0
    6.4151   -0.4175  -22.5726 C   0  0  0  0  0  0  0  0  0  0  0  0
    5.6287    9.3690  -21.8278 C   0  0  0  0  0  0  0  0  0  0  0  0
    5.7738   -2.8913  -18.9373 C   0  0  0  0  0  0  0  0  0  0  0  0
    4.9754   -1.9292  -19.4368 C   0  0  0  0  0  0  0  0  0  0  0  0
    6.6518    3.1710  -19.4276 C   0  0  0  0  0  0  0  0  0  0  0  0
    4.4439    3.7164  -18.9973 C   0  0  0  0  0  0  0  0  0  0  0  0
    5.2862   -3.9161  -17.9537 C   0  0  0  0  0  0  0  0  0  0  0  0
    3.5323   -1.8612  -18.9961 C   0  0  0  0  0  0  0  0  0  0  0  0
    3.3108   -2.6378  -17.7003 C   0  0  0  0  0  0  0  0  0  0  0  0
    5.8484    2.8597  -20.7158 C   0  0  1  0  0  0  0  0  0  0  0  0
    6.1076    4.0676  -17.1122 C   0  0  0  0  0  0  0  0  0  0  0  0
    5.7119    3.6828  -18.4617 N   0  0  0  0  0  0  0  0  0  0  0  0
    4.4666    3.2465  -20.3151 N   0  0  0  0  0  0  0  0  0  0  0  0
    3.3037    4.1427  -18.3657 N   0  0  0  0  0  0  0  0  0  0  0  0
    7.8498    3.0169  -19.2532 O   0  0  0  0  0  0  0  0  0  0  0  0
    6.8432    1.7909  -23.2440 O   0  0  0  0  0  0  0  0  0  0  0  0
    3.8609   -3.9460  -17.8363 O   0  0  0  0  0  0  0  0  0  0  0  0
    6.8935   -0.8315  -23.7545 F   0  0  0  0  0  0  0  0  0  0  0  0
    4.4342   10.1215  -20.8436 Cl  0  0  0  0  0  0  0  0  0  0  0  0
    8.2506   10.1481  -23.8483 H   0  0  0  0  0  0  0  0  0  0  0  0
    8.3310    7.6899  -24.0429 H   0  0  0  0  0  0  0  0  0  0  0  0
    7.4922    5.9368  -24.8457 H   0  0  0  0  0  0  0  0  0  0  0  0
    7.5626    3.4865  -25.0241 H   0  0  0  0  0  0  0  0  0  0  0  0
    6.5369   11.2344  -22.4428 H   0  0  0  0  0  0  0  0  0  0  0  0
    5.8960    5.6067  -20.8638 H   0  0  0  0  0  0  0  0  0  0  0  0
    4.9464    7.3706  -21.3955 H   0  0  0  0  0  0  0  0  0  0  0  0
    5.0326    0.7488  -19.1501 H   0  0  0  0  0  0  0  0  0  0  0  0
    5.9984   -2.4123  -21.9042 H   0  0  0  0  0  0  0  0  0  0  0  0
    6.8203   -2.9459  -19.2285 H   0  0  0  0  0  0  0  0  0  0  0  0
    5.6041   -4.9128  -18.2751 H   0  0  0  0  0  0  0  0  0  0  0  0
    5.7223   -3.7276  -16.9662 H   0  0  0  0  0  0  0  0  0  0  0  0
    3.2178   -0.8213  -18.8484 H   0  0  0  0  0  0  0  0  0  0  0  0
    2.9113   -2.2884  -19.7939 H   0  0  0  0  0  0  0  0  0  0  0  0
    3.7616   -2.1323  -16.8374 H   0  0  0  0  0  0  0  0  0  0  0  0
    2.2388   -2.7389  -17.5032 H   0  0  0  0  0  0  0  0  0  0  0  0
    6.3963    5.1222  -17.0820 H   0  0  0  0  0  0  0  0  0  0  0  0
    5.2789    3.9106  -16.4161 H   0  0  0  0  0  0  0  0  0  0  0  0
    6.9555    3.4620  -16.7802 H   0  0  0  0  0  0  0  0  0  0  0  0
    3.6339    3.1877  -20.8965 H   0  0  0  0  0  0  0  0  0  0  0  0
    3.3772    4.4633  -17.4284 H   0  0  0  0  0  0  0  0  0  0  0  0
    2.4485    4.1146  -18.8695 H   0  0  0  0  0  0  0  0  0  0  0  0
  1  2  2  0
  1  5  1  0
  2 11  1  0
  3  4  2  0
  3 10  1  0
  4 15  1  0
  5 18  2  0
  6 10  2  0
  6 13  1  0
  7 11  2  0
  7 18  1  0
  8 12  2  0
  8 14  1  0
  9 12  1  0
  9 17  2  0
 10 11  1  0
 12 20  1  0
 13 15  2  0
 13 26  1  0
 14 16  2  0
 14 26  1  0
 15 32  1  0
 16 17  1  0
 16 32  1  0
 17 34  1  0
 18 35  1  0
 19 20  2  0
 19 23  1  0
 20 24  1  0
 26 21  1  1
 21 28  1  0
 21 31  2  0
 22 28  1  0
 22 29  2  0
 22 30  1  0
 23 33  1  0
 24 25  1  0
 25 33  1  0
 26 29  1  0
 27 28  1  0
  1 36  1  0
  2 37  1  0
  3 38  1  0
  4 39  1  0
  5 40  1  0
  6 41  1  0
  7 42  1  0
  8 43  1  0
  9 44  1  0
 19 45  1  0
 23 46  1  0
 23 47  1  0
 24 48  1  0
 24 49  1  0
 25 50  1  0
 25 51  1  0
 27 52  1  0
 27 53  1  0
 27 54  1  0
 29 55  1  0
 30 56  1  0
 30 57  1  0
M  CHG  1  29   1
M  END
>  <OMEGA_C>  (72) 
dt3wQLKmGEERgLrBVDXyQGBoAkE/WbvBivPkQN2oqkDGDcDB+EDmQA50fEAD4MDBFNDRQP1lIkEU
I7TBTkbIQJNApECqMa7BIna1QOBS/0BqeK/BWXmtQGgj2z5o66DBRq++QHuSrb8aM63B2O/VQAqv
vUDVtrbBwoPUQOvT60B11bXBOsSuQI7qbr8IXqPBZGfJQJTJbkCp5a7BTg28QMOGsT+NSKjB6n7Y
QIp4SUCfV7jBMuzLQHJwcj/gIrLB3kjNQPzH1b7DlLTBgh60QJLnFUFJn67BncK4QHAKOcCIf5fB
LzafQKXv9r+JfpvBMNvUQKfxSkDEa5vBjjSOQMrYbUCO+pfBkyipQCGiesAloY/BZRFiQEI87r8Z
+JfBxORTQP3RKMBBmo3B6CW7QJAEN0D6uaXB2HHDQPApgkDE5YjBqMe2QLWza0CIsZPBSe6OQIbG
T0BHhaLBM29TQA2RhEDp7JLBNjH7QAoVQUB/BprBuvvaQBI95T/O87nBTxl3QJyLfMDLsI7Bfpfc
QDrgVL9GCb7BBuWNQIPxIUG6v6bBfAIEQcBeIkE8yb7B5UsFQcYT9kDGV8DB7L/vQCD6vUD/w8bB
qgDyQGwjX0B1McjBRC7RQPi/M0HfirPB4qu8QMtps0D56KbBy0ieQM/b60DkKavBEAuhQE6zPz9t
M5nBpPK/QKBjGsDPO6/BkT/aQJCJPMAE1JnB7VSzQKY1ncBdM5LBPh23QECRbsDEuofB9/BNQLA/
Ur95yZbBw1I6QHx0EsDSWZ7BiL5wQPt2CMD7sobBeUgPQD5KL8CnBozBQa7MQFjpo0AAqIjBquyo
QMRGekAwVIPBSpPeQNGRXUDhPYbBhJFoQOUDTEAaLKfBySNYQILTjkBjbYvBhrQcQC2rg0C29JbB
gM4AQSn/DkE35rjB41z/QByA8UDxl7nBJhDrQCt2mEBODb7BV8boQPgNWEAvuL7BF9/jQAcqGkE1
u7LBr9vMQLd2lUA3S6zByqTBQLOu8UCd863ByAGlQPgUmT2qoZ7BWz6yQCWA4r+hparBuxTdQG8x
rUAY17TB6mLfQIxY20CsHrTBcuGiQBUSpb+W7aDB51rKQLRAUUCt16zBP4C2QBbNej8ZCabBanPY
QG5+KEAiKbbB5MXFQEAv9z78xa/BBbXDQNiRYr8BEbLBHOXDQEAWD0HwQa3BSvqmQOKnT8Csz5TB
6EiQQLKXDsDdA5nB6xjTQBryLUB1Q5nBY+iNQIWqXEBdLJbBc0KUQMzGhsBR5ozBq3REQB9OAsCF
sJXBNvswQOl2McCWRYvBvky5QNUTHUDco6PBTvPCQDMlbECD6YbBJP21QCBoVECXt5HBIw2OQChY
PUDeqKDBtbNUQF5ofkBoUZHBcM/4QNoFHkBYsZfBg3nXQHyxoj+DnbfBc1hNQILzg8CiJYzB9XXS
QC5Prb9mabvBpEmfQAbgHEH6n6XBgEUNQZCcF0EkJ73B6GELQaOH4ECzb77B3NH3QA5wqkAsyMTB
MbzzQJYQOEA48MXBnwvmQMd/K0FXQbLBEhbCQFLypUA3HKXBErCoQLxt4EBWranBnPuYQIxw4T4Y
AJfBetywQKYQNcAHkKzBq1nIQHDhWMD5/pbBHvKbQGmKp8BcUo/BKiyiQMpwgcC69oTBYbM1QDbK
eL8OqZTBbWYbQE4NG8BOG5zB7oZPQDLEEsA0XYTBDcXXP2ggMsC904nB3ObOQNv2lkDCvobBWMSn
QGocZ0AhcIHBijzcQBlnQUBuFITB/0JnQPBmPUAdaqXB4SRaQOqsiUCT2InBl4MeQHpOgEBEdZXB
SLPQQBLLD0GRWr/BdsXPQJz58kAvpb/BgLvhQCqtl0DToL/BGMDgQBxBVkAt5r/BFpfWQEBhGkFT
pLXBWOnEQNZIlkDvtq3BIKHaQFW38EAbhKzB4IqiQDJwAz5HmZ7BnbSwQECV4L/yJ6rB7MnTQHlE
rUB5ibbBSr3UQJaK20BtOrbB85ShQBGSn79CgaDBULzDQJ6vUkC73K3B5JyyQOcMgj/CVKbBRsbR
QBwvKEA6ELfBMKnBQIhg+z73/q/BpsPAQKgtY7/f5bHB7I7bQLypDkGSOazBMnOoQOkcScDo35PB
uHqQQAOoCsDhP5jBDWrOQNR0NUDfL5rBR8eIQPHfYEAq+ZbB0kCXQDLqgsCznIvBYwFFQHUwAMDf
wpTBMHk0QDTxLMDcGYrBLSW0QNMkIEAiXKTBqqW+QNrMd0AAC4jBpEexQNVEXEDSrJLBfKWIQKCj
PkD9UKHBNyhKQEDqgEBrGZLBcHX0QJw9KEA8upjBZgXSQKhSoT9rIrjBYFNTQERYgcALq4rBkEvP
QEIPsb8FLbvBDvLiQBy9G0EcQKDBwODMQF3oGEF0sMbBZiPLQBjr4kCeRsfBgnPtQKMQqUC9kcbB
SKzrQMLqNECVBsfBVErXQCjFK0HAibXB6ii6QPRwp0DdoKbBfoPeQN523kA5KqXBlreWQAsVBD+X
BJfBBjiwQAaoNMAIxavBD8nJQHX0UMAWLZbBIMKfQKTBo8DhyI3BeJClQGMaeMBzy4PBeFU0QPg2
cb85/pPB4M4bQB7xG8D495rBfA5TQGdrC8B8Z4PBikvfP1JBL8CWfYjBBprJQOcinUDON4jBL/Oj
QL+xckAXbILBasXYQItoT0DIJYXBDs1bQDbIO0A+8aXBvQdQQHiCjECgvIrBhlcTQDKggED4HZbB
dNn3QCCGEEGur7nBBkv5QCyP9EDEhLrBZ2vsQNBemkApQL/BHtLtQB7fW0BZDsDBHWbYQAlEGkHA
cbPB4q/OQMv/k0COf63Bm9m7QFgL70Dz3a7BCESzQHhOor3WSaDBikXFQJec7r8ofazB8NPcQNNp
rUAG+bXBMk3bQCaP20DsG7XBy8C0QCJruL9suKLBkOjPQFJHTkCjL67BUD/CQMIZYT/EmqfBXJXf
QHDsKEC+kbfBYLjSQNKn4D7FZLHB6UbUQIoQbb+M0rPBSmi6QATEDUHqCK7Behu+QBxoWcDJzJbB
BsSkQELsG8AD5prBgjfaQHmcKkA+qprBSFmTQExhTUC0fZfBDBOuQKx8jcB5+47BucJsQHqmF8Dr
i5fB4WddQP1JScCVM43BVSPBQB6MFkAWEKXBUqvHQBcZZEAyN4jBCaq7QENcS0D7DZPBbLiUQKw6
L0B9BqLBcxhdQFifaEDpk5LBQzwAQerYIEAVIJnBLjfiQHghpD/IKLnBXGqAQL59jsClNo7BZynk
QN2Zq79VN73BqLCTQEjMGUGaT6bBHZ4HQW0/GkHU473BrP4IQVzU5UDuar/Bg5j3QJesrUAZ7cXB
hAX6QOaGPkBxU8fBRrHXQDaeK0FZ3LLBHaLCQNIso0AcQ6bBsnCkQMqR20B3pKrBMV2mQPXedz6X
npjBqbHGQPDrOsB8gq7BlLvfQFvYXMAdAZnBkG+4QNNgrcDmgZHB2Iy7QGJoh8BeCIfBnGtYQJo3
qr8GaZbBJtBFQPcUM8CU/53BhWR5QPzYKMC8P4bBOp8YQBbTT8CWwIvBGtrQQNzOk0C78ofBPtOs
QIoHWkDMvoLB+KjiQA9sPUBEdIXBmbZ0QF5fK0CDxqbBz+FgQGg0fUD/EovBD9smQLy7ZkCutZbB
9HzTQEUGEUEjP7zBSfHUQBSP9UCiEr3BfrfrQKZtm0B2Eb7BHh3tQKz8XUCQ377B2LLXQB3MGkE/
RbLBsgDOQOYPlUBUUKzBONPeQMcq8EAd86nBipWyQIAHPL3EGZ/BmJLEQD9b6r9CTavB8CLcQFN5
rkAZyrTBVJ3aQLae3EAW7bPByhC0QPkmtL9GiKHBUjjPQHJnUEBTAK3BaY/BQHieaT8Ia6bBMuLe
QDgLK0CmYrbBhwXSQPCl8T5INbDBjZLTQHqSZL/7orLB5V7dQO1TDkG0H6nBhG29QHVFV8CknJXB
iBWkQPDIGcCEtZnBQozZQLu9LEAPe5nBPK+SQI+FT0BaTZbBlGatQLpqjMD5yo3BqWdrQBaBFcCi
WpbBghFcQH4jR8AbAozBC3XAQIetGEBz4KPBrQXHQIQ8ZkDEB4fBMAG7QE5/TUBR3pHBMwuUQA1e
MUAe1qDBkMdbQGrFakD3YpHBmM3/QM74IkCK8ZfBuoLhQJFeqD+g+bfBKXx/QOJqjcBfBY3BOHLj
QIpdp78ACLzBS6/iQEJnGkGR0pzBXB7PQPi5GkEhX8PBJZnRQHzH5kB158TBJ+P2QPK6rkChvsTB
Qk75QGijQEDTJMbBLozWQM8mLEHxv7HBNfXBQHM9pEC2E6XBt0HjQI+93EAhz6LB/bClQPUKjT5U
bpfBhP3FQHjLOMCGUq3B/AzfQC23WsCK0ZfByMG3QC1PrMCBUZDBqOK6QGFWhsAe2IXBeBJXQN3r
pb+mN5XBB3FEQFLvMMDtzZzBkhJ4QH2yJsCLDoXBhkkXQCKrTcCDjorBKjXQQGbglECLw4bB/C6s
QHAsXEDkjoHBswPiQKeOP0A/RYTBfVlzQGaDLUCxlaXBb5VfQP5af0Aa4onB4YclQIriaEBEhJXB
0KbwQHcLEEH3kLrBxnbvQPqH80CWJ7vBe/3/QMX5l0DTwbrBFLz+QAr1VkDhU7vBbNLuQHQwGkFS
o7DB7EjVQNGYlUAZrarBcqDqQIaO70CV46fBUL2lQDDesj0Ycp7Blz+8QKXs4r8eZanBFj7rQDgM
rUD+brLB3XTsQCtE20BP0bHB5NSlQDMWpL//nKDBSLzTQNlmUUBWI6vBQwy8QOJ4fD9eC6XBSKvo
QMvzJ0D/j7PBNmXSQNzb9D622K3BqYvSQKb6ZL/mAbDBhdDrQIwODkELTafBj6mhQHaWTcBxP5TB
CxSOQPSuDcBvj5nBvSPOQLaqMEDuapfByJiHQETEXUCvp5fB38yJQBqJhcCpMo3B9JY8QCFSAsBf
bpjBh6saQDqEMMCeiY7BDoG8QKXWHUCRw6LBFm6wQNuPcEBDQYbB0sOrQD4uV0Apa5HBJp+PQDs3
PUBQ46HB3sZBQEgPf0AolpTB3CTyQJkCIkAHHJTBoEXpQE0/oT+h2bTBitA4QDtRg8DOj47BvRXo
QFfer7+Lc7jBi67pQBuWGkGXDZvBYQrzQIl7GUFR1sHBI+fwQEor5EDE88LBuKIIQXa7qUAQ3cDB
PH8HQQhvNkD12cHB7dLvQGSQK0EkTbDBKTvFQN5YpkA2LqTBFknoQO6n3ECMmaDBJC6UQD5R7D4Q
jJfBcq68QFKHNcAhMqvBWh/EQKYdVsAh2JTBkIGTQIJTpsDWFY/BPpWRQNUQf8BUyITBiM0rQB9E
eb9z55fBnPIdQEloHMCHoJ/BdjEuQGySEMD/HIfB0kapP4z+McCFs47Bl667QJ5YmUD7roXBc7eR
QEpma0BnHILBy3HHQK3iRkApOILBHUtyQOv0O0AMxqfBCug7QNZ6ikCiKY3BL5MSQCoAgEBM55nB
y/oHQWxAC0ET+LfBoOUHQQ7e6UBU8rfBAg0BQYgAj0CtmrvBY/AAQQfcREDnjrvB2o3tQHx7FkFi
nLPBsOnXQFMyj0BpbavBItXKQPco6kADNa/Bhy2sQFA7Xr1nGJ3BusbDQHw5/L8BQafBkBjtQLZl
pUCGirPBIT3tQHSy00C9kLPBsT2tQPjNt7/0p57Ba2jXQIh8REBNRKvBZp7BQCVDUD9HIKTBppbs
QHJaGECQb7PB2RjYQA8Hhj6YvKzBkTjZQHjHj78SSq7Buv/KQK9lC0HKOq/BCt+qQL/yUcA+c5HB
omSWQPhpFcB6J5fBfb/SQBhGLEAPV5fBZbCLQArtVUACvpfBsO+TQDSnhsBA8InBHwtNQB7IC8Ct
AZbBtsUsQHxNNsBwxovBBgbBQD+lE0CpgKLB78W0QHhFckA2lYbB7hiwQE3IU0Bxi5HBSc+TQFNH
MUBnwKHBLV9JQPy5dkD705TBkAH3QHrFIEChApTB4i7uQKhHgT8AH7TB/+5MQDjKhcC2PIvBReHu
QH+G0r+cjbbBrJ6gQLBEGUGs06nBEXIVQePfE0HTXrvBHmsVQVDM2EBfYLvBDWUJQZ7Gn0A++8HB
syoJQcRCIkCe4cHBdiTuQNzfJ0F8rLPBhqbHQGT7oEC2I6XBadyvQP7k2EAwyavBuIiaQEpktT4W
VpbBy/XEQDfVQsB/lajBn2fNQKUhWcDYDpLBxFueQPCTp8AlZIvBQ8+bQJc9fcCJooHBubA6QPQb
kL917pXBxJ8uQGm2KcDh+pzBevM/QDKuEsBCmoTBIpPNPyR4OcAv24vBZEK/QCmHmkC3fYbBwT6W
QPSHbUCuWILBM2LMQNKES0BeUILBimJ6QCNhLEC2kqfBqmZDQBTeh0B7j43Brd0ZQDw5dEA0GJrB

>  <OMEGA_E>  (72) 
/qB0wYT0e8FuRnPBvE9ywTrpb8HjnnHBKHtywQ==

>  <OMEGA_NBR>  (72) 
     23539

$$$$
284492
     RDKit          3D

 58 63  0  0  1  0  0  0  0  0999 V2000
    7.9170    9.5704  -22.2615 C   0  0  0  0  0  0  0  0  0  0  0  0
    7.9945    8.1855  -22.4091 C   0  0  0  0  0  0  0  0  0  0  0  0
    4.8691   -1.8144  -17.8730 C   0  0  0  0  0  0  0  0  0  0  0  0
    4.5262   -3.2239  -19.8052 C   0  0  0  0  0  0  0  0  0  0  0  0
    7.7147    5.3881  -23.1528 C   0  0  0  0  0  0  0  0  0  0  0  0
    4.2883   -2.7881  -17.0604 C   0  0  0  0  0  0  0  0  0  0  0  0
    3.9455   -4.1976  -18.9927 C   0  0  0  0  0  0  0  0  0  0  0  0
    7.7906    4.0048  -23.2969 C   0  0  0  0  0  0  0  0  0  0  0  0
    6.8286   10.1410  -21.6018 C   0  0  0  0  0  0  0  0  0  0  0  0
    6.4937    5.0974  -21.0909 C   0  0  0  0  0  0  0  0  0  0  0  0
    5.4828    0.3271  -19.7446 C   0  0  0  0  0  0  0  0  0  0  0  0
    6.2728   -1.3941  -21.2418 C   0  0  0  0  0  0  0  0  0  0  0  0
    5.8957    7.9420  -21.2373 C   0  0  0  0  0  0  0  0  0  0  0  0
    4.9881   -2.0325  -19.2455 C   0  0  0  0  0  0  0  0  0  0  0  0
    7.0654    5.9348  -22.0500 C   0  0  0  0  0  0  0  0  0  0  0  0
    6.9841    7.3714  -21.8970 C   0  0  0  0  0  0  0  0  0  0  0  0
    5.5888   -1.0215  -20.0885 C   0  0  0  0  0  0  0  0  0  0  0  0
    6.5622    3.7002  -21.2216 C   0  0  0  0  0  0  0  0  0  0  0  0
    6.0586    1.3234  -20.5509 C   0  0  0  0  0  0  0  0  0  0  0  0
    3.8264   -3.9795  -17.6201 C   0  0  0  0  0  0  0  0  0  0  0  0
    7.2157    3.1654  -22.3367 C   0  0  0  0  0  0  0  0  0  0  0  0
    6.7418    0.9339  -21.7075 C   0  0  0  0  0  0  0  0  0  0  0  0
    6.8499   -0.4180  -22.0509 C   0  0  0  0  0  0  0  0  0  0  0  0
    5.8182    9.3269  -21.0897 C   0  0  0  0  0  0  0  0  0  0  0  0
    6.5552    3.0538  -18.7822 C   0  0  0  0  0  0  0  0  0  0  0  0
    4.3000    3.5629  -18.6735 C   0  0  0  0  0  0  0  0  0  0  0  0
    5.9609    2.7830  -20.1876 C   0  0  1  0  0  0  0  0  0  0  0  0
    3.2068   -5.0205  -16.7505 C   0  0  0  0  0  0  0  0  0  0  0  0
    5.6538    3.8589  -16.5462 C   0  0  0  0  0  0  0  0  0  0  0  0
    5.4725    3.5211  -17.9529 N   0  0  0  0  0  0  0  0  0  0  0  0
    4.5288    3.1423  -19.9882 N   0  0  0  0  0  0  0  0  0  0  0  0
    3.0711    3.9556  -18.2079 N   0  0  0  0  0  0  0  0  0  0  0  0
    7.7151    2.9039  -18.4333 O   0  0  0  0  0  0  0  0  0  0  0  0
    7.3427    1.8175  -22.5714 O   0  0  0  0  0  0  0  0  0  0  0  0
    7.5061   -0.7833  -23.1613 F   0  0  0  0  0  0  0  0  0  0  0  0
    4.4775   10.0316  -20.2726 Cl  0  0  0  0  0  0  0  0  0  0  0  0
    8.7046   10.2037  -22.6591 H   0  0  0  0  0  0  0  0  0  0  0  0
    8.8489    7.7552  -22.9262 H   0  0  0  0  0  0  0  0  0  0  0  0
    5.2242   -0.8911  -17.4217 H   0  0  0  0  0  0  0  0  0  0  0  0
    4.6110   -3.4080  -20.8737 H   0  0  0  0  0  0  0  0  0  0  0  0
    8.1663    6.0255  -23.9091 H   0  0  0  0  0  0  0  0  0  0  0  0
    4.1994   -2.6108  -15.9919 H   0  0  0  0  0  0  0  0  0  0  0  0
    3.5888   -5.1227  -19.4377 H   0  0  0  0  0  0  0  0  0  0  0  0
    8.2987    3.5840  -24.1608 H   0  0  0  0  0  0  0  0  0  0  0  0
    6.7822   11.2217  -21.4930 H   0  0  0  0  0  0  0  0  0  0  0  0
    5.9908    5.5337  -20.2296 H   0  0  0  0  0  0  0  0  0  0  0  0
    4.9484    0.6088  -18.8391 H   0  0  0  0  0  0  0  0  0  0  0  0
    6.3652   -2.4397  -21.5249 H   0  0  0  0  0  0  0  0  0  0  0  0
    5.1069    7.3078  -20.8372 H   0  0  0  0  0  0  0  0  0  0  0  0
    2.1220   -4.8742  -16.6639 H   0  0  0  0  0  0  0  0  0  0  0  0
    3.6148   -4.9831  -15.7317 H   0  0  0  0  0  0  0  0  0  0  0  0
    3.3905   -6.0208  -17.1618 H   0  0  0  0  0  0  0  0  0  0  0  0
    5.9194    4.9141  -16.4352 H   0  0  0  0  0  0  0  0  0  0  0  0
    4.7315    3.6688  -15.9900 H   0  0  0  0  0  0  0  0  0  0  0  0
    6.4502    3.2488  -16.1110 H   0  0  0  0  0  0  0  0  0  0  0  0
    3.7940    3.0943  -20.6902 H   0  0  0  0  0  0  0  0  0  0  0  0
    2.9971    4.2422  -17.2597 H   0  0  0  0  0  0  0  0  0  0  0  0
    2.3027    3.9384  -18.8365 H   0  0  0  0  0  0  0  0  0  0  0  0
  1  2  2  0
  1  9  1  0
  2 16  1  0
  3  6  2  0
  3 14  1  0
  4  7  1  0
  4 14  2  0
  5  8  2  0
  5 15  1  0
  6 20  1  0
  7 20  2  0
  8 21  1  0
  9 24  2  0
 10 15  2  0
 10 18  1  0
 11 17  2  0
 11 19  1  0
 12 17  1  0
 12 23  2  0
 13 16  2  0
 13 24  1  0
 14 17  1  0
 15 16  1  0
 18 21  2  0
 18 27  1  0
 19 22  2  0
 19 27  1  0
 20 28  1  0
 21 34  1  0
 22 23  1  0
 22 34  1  0
 23 35  1  0
 24 36  1  0
 27 25  1  1
 25 30  1  0
 25 33  2  0
 26 30  1  0
 26 31  2  0
 26 32  1  0
 27 31  1  0
 29 30  1  0
  1 37  1  0
  2 38  1  0
  3 39  1  0
  4 40  1  0
  5 41  1  0
  6 42  1  0
  7 43  1  0
  8 44  1  0
  9 45  1  0
 10 46  1  0
 11 47  1  0
 12 48  1  0
 13 49  1  0
 28 50  1  0
 28 51  1  0
 28 52  1  0
 29 53  1  0
 29 54  1  0
 29 55  1  0
 31 56  1  0
 32 57  1  0
 32 58  1  0
M  CHG  1  31   1
M  END
>  <OMEGA_C>  (73) 
8lf9QDsgGUGSF7LBItP/QMD3AkHkRbPBxM+bQAw/6L/v+47BtdaQQGpUTsAMcZ7Btt72QH5rrED6
OLnBFjqJQNdwMsDDe4jBVIJ8QMBShsD+8JfB1kz5QPwmgED+X7rBnYPaQHRBIkGI0KzB/MvPQC4e
o0AVuqjBFHOvQMh2pz7j9J3BDrvIQCZxsr9E76nBPqm8QA8l/kD05anBqZ6fQOwUAsDI9pnBHBji
QPjpvUB5ZrDB2H3fQDzi60AKLa/BxdeyQJvBgr9UtaDBgv3RQN/PbEDdxanB+N/BQFtmqT8laKTB
ROR0QFiwfsAI9ozBv+bmQHKWSkB8sbLBd7zXQBoRbz/4qK3BrjLbQCUK1r4+aLDBVi66QNE6FUGt
t6jBIsTRQPxwQ0D2QZbBUJmJQAoHZEBAY5XBab++QCQdMkBLgKHBiztNQKWnoMAcAYbBBuy0QPL3
dkCRXoTBjR6vQClZYUCFn4/BSeyQQMUbSUC855/B2IxEQE4ofUDFqZHBbOL2QPXZOUCAd5PBVvfq
QNOj6D8vkrTBMTLwQE+JSL9jSrnBAkiPQGiBIEE3LqLBJUYLQTtCI0HgRbXBMpUNQZIq+EDdaLfB
PiynQIYeZL+UX4vBeY2TQGwcWsBE/abBC6kCQZzQwEDWRb/BgmGGQPEXJ8C63n/BaK5lQBHto8BU
gJvBkMcEQY1gZUA9ScHBxgfZQCiMM0Gn8avByLS/QHUUsUBO1qHBjlmeQJrcGz9vtpbBaq/LQLgj
HMDwMqzB/mujQEPZ6UCksqbBes8HQHb5m8CwT4XBQFhnQGl1n8AVtXvBnf5YQBKqwMBiS4nB0Wu9
QKhAnUBWe4PB2GiXQJbNakAJ13/B8GfOQPnsT0BH44DBHdFyQKYIRkCOhaXB9tA/QOe/h0DqE4rB
mV8TQM4OfEAjsZbB

>  <OMEGA_E>  (73) 
gu5mwQ==

>  <OMEGA_NBR>  (73) 
     24799

$$$$
50093271
     RDKit          3D

 53 58  0  0  0  0  0  0  0  0999 V2000
    5.2551   -4.1459  -18.3834 C   0  0  0  0  0  0  0  0  0  0  0  0
    5.7512    9.1785  -21.5777 C   0  0  0  0  0  0  0  0  0  0  0  0
    5.7319   -3.2305  -19.3297 C   0  0  0  0  0  0  0  0  0  0  0  0
    5.8460    7.7810  -21.6189 C   0  0  0  0  0  0  0  0  0  0  0  0
    6.1454   -1.5415  -21.7733 C   0  0  0  0  0  0  0  0  0  0  0  0
    7.1501    5.2739  -23.8122 C   0  0  0  0  0  0  0  0  0  0  0  0
    6.7016   -0.5627  -22.6055 C   0  0  0  0  0  0  0  0  0  0  0  0
    7.5095    3.9229  -23.8187 C   0  0  0  0  0  0  0  0  0  0  0  0
    5.1300    0.1978  -20.4015 C   0  0  0  0  0  0  0  0  0  0  0  0
    5.4801    4.8296  -22.0982 C   0  0  0  0  0  0  0  0  0  0  0  0
    3.9592   -3.9763  -17.8534 C   0  0  0  0  0  0  0  0  0  0  0  0
    5.6349    9.8955  -22.7879 C   0  0  0  0  0  0  0  0  0  0  0  0
    3.6195   -2.0372  -19.1225 C   0  0  0  0  0  0  0  0  0  0  0  0
    5.7158    7.9206  -24.0484 C   0  0  0  0  0  0  0  0  0  0  0  0
    5.3812   -1.1587  -20.6534 C   0  0  0  0  0  0  0  0  0  0  0  0
    6.1182    5.7211  -22.9688 C   0  0  0  0  0  0  0  0  0  0  0  0
    4.9006   -2.1601  -19.7061 C   0  0  0  0  0  0  0  0  0  0  0  0
    5.8449    7.1469  -22.8761 C   0  0  0  0  0  0  0  0  0  0  0  0
    5.6771    1.1826  -21.2381 C   0  0  0  0  0  0  0  0  0  0  0  0
    5.8782    3.4835  -22.0605 C   0  0  0  0  0  0  0  0  0  0  0  0
    6.5107    0.8002  -22.3231 C   0  0  0  0  0  0  0  0  0  0  0  0
    6.8588    3.0132  -22.9714 C   0  0  0  0  0  0  0  0  0  0  0  0
    6.2693    3.0193  -19.6656 C   0  0  0  0  0  0  0  0  0  0  0  0
    4.0442    3.4326  -19.2900 C   0  0  0  0  0  0  0  0  0  0  0  0
    5.4671    2.6326  -20.8927 C   0  0  0  0  0  0  0  0  0  0  0  0
    5.6413    3.8065  -17.3520 C   0  0  0  0  0  0  0  0  0  0  0  0
    3.1684   -2.9403  -18.2243 N   0  0  0  0  0  0  0  0  0  0  0  0
    5.6081    9.2667  -23.9894 N   0  0  0  0  0  0  0  0  0  0  0  0
    5.3432    3.5120  -18.7610 N   0  0  0  0  0  0  0  0  0  0  0  0
    4.0736    2.8940  -20.4898 N   0  0  0  0  0  0  0  0  0  0  0  0
    2.8907    3.8779  -18.6621 N   0  0  0  0  0  0  0  0  0  0  0  0
    7.4888    2.9867  -19.5389 O   0  0  0  0  0  0  0  0  0  0  0  0
    7.2270    1.6885  -23.1026 O   0  0  0  0  0  0  0  0  0  0  0  0
    5.8725   -4.9721  -18.0632 H   0  0  0  0  0  0  0  0  0  0  0  0
    5.7669    9.7001  -20.6321 H   0  0  0  0  0  0  0  0  0  0  0  0
    6.7157   -3.3437  -19.7607 H   0  0  0  0  0  0  0  0  0  0  0  0
    5.9181    7.2044  -20.7086 H   0  0  0  0  0  0  0  0  0  0  0  0
    6.3019   -2.5880  -21.9894 H   0  0  0  0  0  0  0  0  0  0  0  0
    7.6646    5.9732  -24.4545 H   0  0  0  0  0  0  0  0  0  0  0  0
    7.2801   -0.8568  -23.4687 H   0  0  0  0  0  0  0  0  0  0  0  0
    8.2916    3.5779  -24.4787 H   0  0  0  0  0  0  0  0  0  0  0  0
    4.5143    0.4850  -19.5620 H   0  0  0  0  0  0  0  0  0  0  0  0
    4.6834    5.1764  -21.4568 H   0  0  0  0  0  0  0  0  0  0  0  0
    3.5876   -4.6905  -17.1335 H   0  0  0  0  0  0  0  0  0  0  0  0
    5.5654   10.9728  -22.7564 H   0  0  0  0  0  0  0  0  0  0  0  0
    2.9888   -1.2054  -19.3997 H   0  0  0  0  0  0  0  0  0  0  0  0
    5.7029    7.4289  -25.0099 H   0  0  0  0  0  0  0  0  0  0  0  0
    4.7351    4.1849  -16.8563 H   0  0  0  0  0  0  0  0  0  0  0  0
    5.9780    2.8881  -16.8488 H   0  0  0  0  0  0  0  0  0  0  0  0
    6.4342    4.5669  -17.2962 H   0  0  0  0  0  0  0  0  0  0  0  0
    3.2683    2.6915  -21.0470 H   0  0  0  0  0  0  0  0  0  0  0  0
    2.0075    3.7988  -19.1243 H   0  0  0  0  0  0  0  0  0  0  0  0
    2.9422    4.2781  -17.7471 H   0  0  0  0  0  0  0  0  0  0  0  0
  1  3  2  0
  1 11  1  0
  2  4  2  0
  2 12  1  0
  3 17  1  0
  4 18  1  0
  5  7  2  0
  5 15  1  0
  6  8  1  0
  6 16  2  0
  7 21  1  0
  8 22  2  0
  9 15  2  0
  9 19  1  0
 10 16  1  0
 10 20  2  0
 11 27  2  0
 12 28  2  0
 13 17  2  0
 13 27  1  0
 14 18  2  0
 14 28  1  0
 15 17  1  0
 16 18  1  0
 19 21  2  0
 19 25  1  0
 20 22  1  0
 20 25  1  0
 21 33  1  0
 22 33  1  0
 23 25  1  0
 23 29  1  0
 23 32  2  0
 24 29  1  0
 24 30  2  0
 24 31  1  0
 25 30  1  0
 26 29  1  0
  1 34  1  0
  2 35  1  0
  3 36  1  0
  4 37  1  0
  5 38  1  0
  6 39  1  0
  7 40  1  0
  8 41  1  0
  9 42  1  0
 10 43  1  0
 11 44  1  0
 12 45  1  0
 13 46  1  0
 14 47  1  0
 26 48  1  0
 26 49  1  0
 26 50  1  0
 30 51  1  0
 31 52  1  0
 31 53  1  0
M  CHG  1  30   1
M  END
>  <OMEGA_C>  (74) 
wimoQOuqhMA9EZPBrAm4QBDbEkERn6zBv2u3QCrATsAoo5rBRxK7QC7++EB686zBHafEQD5Qxb+z
L67Bgc3kQKDDqEBqf77BUXPWQAgOEL8T2LTB4k3wQCoRe0CajL7B0yikQLyDSj5ANqPBX12vQBOM
mkADybDB2GN9QC58fsC/047B71C0QPBTHkGMTbbBfKVnQDdhAsDh+pjBPei2QHZ1/UApY8DBqjKs
QJJQlL83OqXBScjDQFQTt0AdwLfBttGcQGo/CsAbpp3Bggm7QLmz5EBYArfB3qq1QFJflz+l56nB
cRq8QFbxXkDwe7DBoVfQQAvYTD+5lbLBWXvbQIDYQEB8xbfBWp7IQGc8QUANU53B5GmBQC2wW0Dw
UZrBjvKuQBR8KEBQJKfBeYW0QA6ec0DQ0IrBU8dKQGouPMBKy5HBZ3WzQEREFEFd6r/B3/uqQATF
YECYFpbBSFuCQCg3OUAR66PB0gE5QFAveEDyS5XBKKTvQGgmP0CiT5zBSUPnQFAg2D8Y0rjBneu7
QGkbn8BugZDBdYq4QNAzG0GiDqXBuObWQJj/VcDpFZ7BImG9QEuK5kAmq6XBNKnJQFmiJcBC6q/B
sUT1QKUkv0DcosPB/PboQJBVW7/9v7vBTaoEQQ38ZEB21MPB5HSQQGpV+D7vfpzBr96VQDmlpUB6
p6vBXptlQIIYlsBcEYnB7xeyQJKQL0ECDbbBREg/QAJMmr+XMpvBO362QGe57UBJFMjBFIaXQH7q
hUCr2YbBk0u/QJzWOEBlyobBCeXNQA0kkkCdXorBjyxRQFpBLEA+YKjBlHoAQKQfc0B8/pjBLE08
QN3liEAK+o3B91eoQDQmhcB7IZPBeRK3QGw7FkEGA77BErO3QPo8T8AToprBsTu7QAELAEEJQ7/B
9lXEQAzFxb+YNa7BUmfjQFjiqECK377BmfHUQGCXEb9PFLXBbADsQOQIekBmgL/BV2qkQHT7ST6K
LaPB+eyzQLA/nEB0xq/BntN9QEJxf8DT3Y7Buvu3QO4VH0HloLPBa3toQOiFAsBh4JjBUfi/QG9X
+kAf3avBwG+sQDR5lL9AK6XBswzHQFuIuEBuDbfBBzedQK5RCsCbj53BLfK/QGWg5kDVDbbB4Ru1
QNo8lz/fBarBki+9QIKCYEBcObDBmGPOQFLBSz9H8rLBdeHYQDCrQEDGS7jBFUPIQChQPkDSIJ3B
UjyBQDo9WUADQprByRmvQORgKEA6HqfBiyC0QN5odEAo0orB+3NLQOK5PMAnwJHBsUe8QOCiEkF8
z6rBR9KpQBq8UkByfJXBpG2CQNoFOkDJBqTB+tw5QBAde0AtepXBuVDvQBo+QEAKMJzBbi/jQPm9
1j/erbnBAAC8QFbFn8Cxo5DBYDazQDdwIEGp6sTBwCnXQAxyVsCdF57Bk9S6QB+/8UBWH8fBrNfJ
QAfdJcAE16/BOonyQIK+vkCvZMTB9enmQAi/Xb+0ELzBdsEAQRtAYkBZk8XBT1WRQH0w+T5MW5zB
cwWeQKxJqEDwzqnBAeplQC+9lsAgKInBODC1QG80MEG3rrLB+UZAQEQGmr+KCJvBJf7CQM285kDe
yaTBcl2WQARFf0CQUobBCDDIQAH3RUCTgobBKo/FQKybmECBpIvBqrdRQIfJL0DRqajBwpcCQFvj
fEArgZnB0so8QArhiEDzAI7BzzJUQP6QQsB0vJDBnI25QFIsFUFDSL/BCTBrQKDoA8AGOJjB6o67
QDS//UCzYsDBAz/DQAaAxr+BJa7B0vXmQFTup0BXQr7BPabUQNUlE78S3rTBKKrxQHsVeUCfPb7B
puaiQCRzQz7XJqPBVAawQNWumkA41rDB97uGQLsRg8C1jo7BeRm6QLc7HkGZ77TBQaK4QESOUMD4
z5rB4FK9QOC/+ECO76zBsGCrQAxzlb/IGKXBuHPFQMbRtkC6v7fBh3GdQCw6C8DQYJ3BD7y9QKiq
5EA1D7fBYwi0QGx1lj9776nBEf+7QHu4XkAtdbDBcrTOQO97ST/DmbLBYJHbQKWlP0C2n7fB0MbH
QBhcP0DrRp3BrRmBQKpyW0DyNprBJwOuQI9ZKEDTJKfBEMy0QPFwdkC684rB+iOtQBIMhsD6hZPB
8NC7QIznEUGQBazBBs+pQGMcVEAdi5XBJYuBQCi2OkBi6qPBt+I6QDeQf0C2YpXBed3uQO88QEBZ
Z5zBKlLmQP4Q1T9Pv7jBMEUXQP0rP8CorYzB/Zy3QLpNH0HTQ8bBdrxAQBpznr9p/JnBSm+7QJIE
70CXM8jBAxrIQEI+JsCT5K/BvWn4QBsFvkBURcPBLsHmQEzFXr9T1rvBXIkFQaQcYkBYWMPBLTOP
QB8J9T7Cb5zBomSWQAhJpkC/0avBN517QBktm8BiyIjB/R+5QPBsL0HsGbTB1z7XQA4JVsCFw57B
QDu+QI5T5UAAy6XBSlSXQFa/gEBiV4bBjSvJQIhMSECmrobB/CHGQJuemUDA5ovBBUxPQJrqL0Dw
aqjB1TUDQI76gEDWUZnBTSc/QP2Zi0By+I3BTrVVQAfORMA8x5DBynK6QABkE0F6ua3BHNBrQHza
BcBGRJjBYji9QHsF+kColq3BmxrDQNLsxr9ZMq7BIjLmQD+mp0CxVb7B1mnUQPhdE7/K5bTB6v/w
QGOjeEC5Tb7Bz/uiQPrhOz4sGKPB7MevQIuPmkANxbDBRPyHQFDAg8DclI7BxOe1QGEKHkH8nrfB
p4C5QLOXUMBT1prBOTW3QHE9+0BLB8HBG2arQKVhlr+nHKXBvd7EQJeBtkBsxbfBLdGdQAcRDMBp
aZ3BhyO8QGAd5ED5arfBhx60QAr0lT9r2anBGsa7QA16XkDmZbDBQI7OQNTfSD9EkrLBkifbQFVc
P0DvnrfBc+bHQN0wQEBdP53BFC2BQHiuX0B6W5rBUwOuQKU6KEDMDqfBSW60QPvAdUDE2IrBNHGu
QEQxhsBtipPBhgC0QFotE0GZAMHBAr+qQESqYkAdG5bBp5GBQDGQOkC1z6PBq8s5QBNRgEBAd5XB
muDuQBVVPECyN5zBevzlQIK81D/fvrjBzLIYQMhLQsDFuozBVsW7QIBgHEEnWqbBdJtAQPmfo7+6
C5rBYhzAQNjL6EASIqbBaebHQNpnJsCa+6/B9m33QLS5vUCpZcPBrWHmQB0aXr8Z5rvBcSMFQVig
YUAdcsPBT1uPQINX7z4HW5zBdmuWQLtBpkA0rqvBQc5+QDTzm8BTzIjBmOSzQD1KL0FIubfB/iXY
QNQ6VcDyyZ7BPvm1QNcw6kCiicjBUNuXQMZKiEDw84bB4PW9QAiJOkAwuobB/LvOQMw1kkAbb4rB
mydPQMHTLECPJqjBjhoBQJkGfUCVJpnBgS4+QHn/jUAxQY7BWsJ+QP4/i8CXWpnB+qreQHnOGEEX
0brBSouNQNpbWsDh5aDBeffjQD6gAkFK67vBmI6+QNPEw78Nva7BvkXdQAlLqEDk/MDBlTTNQATO
D79g+LXBzEbhQP2Md0Ah4MHBhBioQIOKdT71j6LB+g29QGZtn0DgX6/BfHOAQIKwgMDLZI7BAXi8
QDyxIEFUnLTByIGcQHjn8r+oI5LBFUilQB/R+0DvobDBA9yrQMGIkb9h9KTBLxzLQASMukAGt7fB
x3acQMIaCsAbSJ3BQdPGQHqX6UD0v7bBt4i2QPNnnD+/26nBKe/AQAruZEDxOLDBGmbJQGKkTz8/
qrPBXlPTQAEgQUDJmrnBUm/JQKnmQUA/tpzBn6aBQMdZXEBeZZrB+rGxQAWSLEDiB6fBJIGyQGcr
dkBca4rBnMmOQPtJNMD194rBs5mgQMRaE0FXq6/BKpqqQMkrYkBRxZXBi7uEQPJoQEDgUKTBEZg2
QFbvcUDObpXBgdbvQMakOUD++JrBeBXZQIAf1T9zcbvBQZBnQLAmqsBn6pvBsY30QIK4I0Ffrr7B
pwuNQFczacDkVanBw+r9QF52+EA3pcDBcpXBQJoBJcA3qLDB2hzoQL6uvECDasfBKp7bQGSUX7+2
ar3BuELvQC1LXEAWAcnBNAGaQJ+rCz/gD5vBJCmvQKs7rUCOQajBPCxrQPffl8A8l4jBpWO4QCPF
MUGVxrPBAcinQMDXcL/pSo/BgdyOQInw5kA0oqzBt++UQO5Vh0CfwYbB2Le8QH7PO0AwNobBBMXL
QJt5k0Db0InBOghYQDaQOUATU6nBpdH+PxaibEAVbpnBDKM2QFRgg0At3o3BTZaPQOWtNsB0b4rB
rFmhQF8kFEF6tLDBEeqdQMm/7r/li5HBKEykQP2F+0DFNbHBCMS+QCmdxL/gPa7BMsDbQKAkp0AO
XMHBWffMQJKLFL9+obXBgO3fQOYvdUBDGsLBupqoQEqIgT40OKLBeVS8QL4fn0Dxoa/BGzKBQPbY
gsDHhY7By3y/QFG2IEFORLbBMK2OQAjDWcBLIqDBJYLiQNQiAkG0sbzBEn6sQMlRkL8Qc6TB4tnJ
QDnUuUDJG7jBEY+dQBTMCMDpoJzBUXTFQN3o6EBpT7fByZi2QNWGnD+kq6nBzmHAQDpJZEB3VbDB
gxfJQGbeSz9zerPB3XHSQNSRP0B1s7nBntDJQLOeQ0C2yZzB7BOCQNK8XUAEU5rBZ6yxQHLjLEBj
AKfBZZCzQK7NeUCqh4rB1+WAQJsEi8C1KZnBFTzfQC6yF0HKGrzBKjerQFVxZECP0pXBlcmEQOWp
QEA5M6TBW8s3QM2Uc0DGS5XBuE7wQFvfO0B0I5vB7VDYQNyu0T8XZrvBqJWPQGf+KsB064HB+kGI
QLGoG0GPGqzBDQepQEVgab9tl47BGpWNQMGk50C4AK3BYtDBQNGgJcCsC7DBqUHmQM44u0AI4sfB
/hPbQPRyZ79/FL3BRK7tQJpCWUAKOMnBb8KaQI06Ej8/uZrBBreuQF9ErUCZhajBnExsQPUqm8BL
ConBiDS9QH7vMUHm3LXBXFKOQCi8Z8BZmKjBqfH7QExX9kC/ZMHBABuWQPk+iUDf1IbBfhO+QHQD
QEACP4bBI8HMQC1slUD1FIrBBb1XQJUFOUCpIKnBfEkAQBaVbUD/NJnBoWg4QC6khEA1xY3BbpmP
QEilNsA1bYrB0dTcQORkGEHrtLvBM+6dQM2u7r+giZHBS0biQOYxAkE/qbzBSby+QMuKxL9HPK7B
Rb/bQJ0dp0DXX8HBh+7MQIN0FL9PoLXBLObfQKwhdUAyHMLBC5uoQIb9gT5KNqLBoVm8QDQon0Bj
pK/BNC+BQErSgsCxg47B1tO6QMJjIEHxd7XBKKaOQJ2xWcA3IKDBoxykQDRb+0DaLLHBUnusQNk3
kL8VcaTBI+vJQKHWuUCbHrjBYY2dQNC+CMC+npzBxXjFQE7q6ECZULfBupa2QP+fnD94qqnBbmLA
QIZVZED8VbDBkBHJQJX3Sz92ebPBwG7SQPqRP0C3s7nBtNDJQMyyQ0CFyZzBFhSCQL/NXUB3UprB
4KuxQJH0LEAQAKfBLZCzQNDjeUBph4rBtN6AQAr8isCrJ5nBUEmfQNUjE0EoW7DBWDerQOmDZEAs
0pXBgcmEQGC+QEDcMqTBCMw3QLyfc0CnSpXB907wQN/yO0BXI5vBDErYQM2t0T+pZbvBoJyPQCn5
KsAi6YHBa3XyQEs9I0FBtb/BPhCpQIFOab8LlY7BYBT8QM5u90CXaMHBksXBQEmYJcAECrDBqzfm
QEwru0D558fBNAjbQERnZ7+KE73BNJ/tQEknWUAaOsnBMMeaQIJ/Ej/utprBsrauQMBSrUBwiajB
TERsQOYjm8BCCInBWaK2QDx7MUGFv7TBOUeOQFinZ8BYlqjBNvSNQDWf5kBrCq3BLRqWQN1IiUCt
1IbB8xS+QMYbQECNPobBlL/MQK54lUDrFIrB3LxXQHQeOUBnIKnBEkkAQDaebUCXM5nB02o4QF+o
hED5w43B

>  <OMEGA_E>  (74) 
dLorP7ClLD9oL0o/5FZKP8yJVD82OFU/qD5VPw==

>  <OMEGA_NBR>  (74) 
     52719

$$$$
288521
     RDKit          3D

 49 53  0  0  1  0  0  0  0  0999 V2000
    5.2717   -4.4694  -19.1336 C   0  0  0  0  0  0  0  0  0  0  0  0
    5.7087   -3.4044  -19.9439 C   0  0  0  0  0  0  0  0  0  0  0  0
    6.0832   -1.2478  -21.9691 C   0  0  0  0  0  0  0  0  0  0  0  0
    6.5014   -0.1822  -22.7785 C   0  0  0  0  0  0  0  0  0  0  0  0
    4.2360   -4.2674  -18.2011 C   0  0  0  0  0  0  0  0  0  0  0  0
    5.4912    0.3307  -20.2076 C   0  0  0  0  0  0  0  0  0  0  0  0
    4.0695   -1.9327  -18.8875 C   0  0  0  0  0  0  0  0  0  0  0  0
    5.5673   -1.0005  -20.6787 C   0  0  0  0  0  0  0  0  0  0  0  0
    5.1110   -2.1248  -19.8272 C   0  0  0  0  0  0  0  0  0  0  0  0
    5.9297    1.4126  -21.0055 C   0  0  0  0  0  0  0  0  0  0  0  0
    6.4165    1.1462  -22.3218 C   0  0  0  0  0  0  0  0  0  0  0  0
    3.6360   -2.9988  -18.0788 C   0  0  0  0  0  0  0  0  0  0  0  0
    5.2998    3.2101  -18.2335 C   0  0  0  0  0  0  0  0  0  0  0  0
    4.3857    3.3142  -20.3335 C   0  0  0  0  0  0  0  0  0  0  0  0
    6.7631    5.3020  -20.9493 C   0  0  0  0  0  0  0  0  0  0  0  0
    8.2583    3.8372  -20.9688 C   0  0  0  0  0  0  0  0  0  0  0  0
    5.8436    2.8463  -20.4540 C   0  0  2  0  0  0  0  0  0  0  0  0
    6.7170    3.7747  -21.3732 C   0  0  0  0  0  0  0  0  0  0  0  0
    6.4958    3.5029  -22.9153 C   0  0  0  0  0  0  0  0  0  0  0  0
    7.3950    4.3814  -23.8404 C   0  0  0  0  0  0  0  0  0  0  0  0
    5.0276    3.7472  -23.3713 C   0  0  0  0  0  0  0  0  0  0  0  0
    6.2914    2.9000  -19.0435 N   0  0  0  0  0  0  0  0  0  0  0  0
    5.4047    3.2934  -16.8539 N   0  0  0  0  0  0  0  0  0  0  0  0
    6.8488    2.1273  -23.2037 O   0  0  0  0  0  0  0  0  0  0  0  0
    4.1322    3.4213  -18.9282 O   0  0  0  0  0  0  0  0  0  0  0  0
    8.1537    5.2220  -20.7922 O   0  0  0  0  0  0  0  0  0  0  0  0
    2.3485   -2.7440  -16.9271 Cl  0  0  0  0  0  0  0  0  0  0  0  0
    5.7312   -5.4423  -19.2272 H   0  0  0  0  0  0  0  0  0  0  0  0
    6.5032   -3.5634  -20.6579 H   0  0  0  0  0  0  0  0  0  0  0  0
    6.1561   -2.2616  -22.3343 H   0  0  0  0  0  0  0  0  0  0  0  0
    6.8936   -0.3832  -23.7645 H   0  0  0  0  0  0  0  0  0  0  0  0
    3.9017   -5.0851  -17.5798 H   0  0  0  0  0  0  0  0  0  0  0  0
    5.0919    0.5241  -19.2229 H   0  0  0  0  0  0  0  0  0  0  0  0
    3.6054   -0.9623  -18.7911 H   0  0  0  0  0  0  0  0  0  0  0  0
    4.2537    4.2903  -20.8233 H   0  0  0  0  0  0  0  0  0  0  0  0
    3.7072    2.5795  -20.7915 H   0  0  0  0  0  0  0  0  0  0  0  0
    6.4404    5.9963  -21.7391 H   0  0  0  0  0  0  0  0  0  0  0  0
    6.2192    5.5257  -20.0197 H   0  0  0  0  0  0  0  0  0  0  0  0
    8.5047    3.2844  -20.0503 H   0  0  0  0  0  0  0  0  0  0  0  0
    8.9464    3.5374  -21.7729 H   0  0  0  0  0  0  0  0  0  0  0  0
    7.1871    4.1384  -24.8928 H   0  0  0  0  0  0  0  0  0  0  0  0
    7.1781    5.4446  -23.6599 H   0  0  0  0  0  0  0  0  0  0  0  0
    8.4539    4.1807  -23.6201 H   0  0  0  0  0  0  0  0  0  0  0  0
    4.9387    3.5422  -24.4484 H   0  0  0  0  0  0  0  0  0  0  0  0
    4.3546    3.0789  -22.8142 H   0  0  0  0  0  0  0  0  0  0  0  0
    4.7516    4.7935  -23.1734 H   0  0  0  0  0  0  0  0  0  0  0  0
    7.2288    2.7231  -18.7435 H   0  0  0  0  0  0  0  0  0  0  0  0
    4.6005    3.5188  -16.3040 H   0  0  0  0  0  0  0  0  0  0  0  0
    6.2847    3.1282  -16.4085 H   0  0  0  0  0  0  0  0  0  0  0  0
  1  2  2  0
  1  5  1  0
  2  9  1  0
  3  4  2  0
  3  8  1  0
  4 11  1  0
  5 12  2  0
  6  8  2  0
  6 10  1  0
  7  9  2  0
  7 12  1  0
  8  9  1  0
 10 11  2  0
 10 17  1  0
 11 24  1  0
 12 27  1  0
 13 22  2  0
 13 23  1  0
 13 25  1  0
 17 14  1  1
 14 25  1  0
 15 18  1  0
 15 26  1  0
 16 18  1  0
 16 26  1  0
 17 18  1  0
 17 22  1  0
 18 19  1  0
 19 20  1  0
 19 21  1  0
 19 24  1  0
  1 28  1  0
  2 29  1  0
  3 30  1  0
  4 31  1  0
  5 32  1  0
  6 33  1  0
  7 34  1  0
 14 35  1  0
 14 36  1  0
 15 37  1  0
 15 38  1  0
 16 39  1  0
 16 40  1  0
 20 41  1  0
 20 42  1  0
 20 43  1  0
 21 44  1  0
 21 45  1  0
 21 46  1  0
 22 47  1  0
 23 48  1  0
 23 49  1  0
M  CHG  1  22   1
M  END
>  <OMEGA_C>  (75) 
drGoQEoFj8CYEZnBUa22QM/hWcANjZ/B8anCQEa5n7/MwK/BuwvQQOSQOr5QOrbBVI2HQNyOiMDw
m5HB57evQEVVqT4QqaHBZTmCQNxh97+tGZfBISeyQAwRgL/obaXBfY2jQC78B8A0np7BA8C9QLXQ
tD9ZC6jBtlPNQMy1kj/2krLBtrRoQA/tP8B7oZDBy5epQHpyTUA23pHBAViMQIUcVEAQq6LBR2vY
QMOpqUAsmKfBISIEQVKVdUATwKfBd/66QEIqNkDAoaPBZPHWQIWUcUBK/KrBa93PQNouYEB2UrfB
2aPsQHU0jEAMub7BtOGgQPDSb0CG+LrBRlPJQMaZOUAaWZjBovOsQH3HUkDU1IbBkCnbQE4lCEAv
obnB1DqEQGD3WkD1bJfBwHUCQc8ap0CBVqbBcE4WQIydL8CuaofBvmW3QBknrsBQ0ZnBghrQQPgN
ZMBNQ6XB2v7EQHi+EMCfrLLBK5jcQP8wxL6sHb7BjbV5QCq5osBro4zBNPGiQK0rBj9uyJnBNb5m
QK9Xdr88VJbBsh6IQDJKiUAblqbBkENtQOAVJUAAVabBAxjOQHThv0DA6a3BkwPHQO7SsEBtKKDB
ZRMIQU00UkDrZqDBmyQPQTBlYkDvLq7BZPzlQHhthECBJMfB6rLlQDM6rkCIR73BFEMHQU3IhUAE
9rzBmQmeQGqzYkBXlsPB4liLQP0LRUCJg7bBAg2YQHZkmUAqY7nBd1LnQDlHLkDF8pXBZjeTQA40
YUCSboLBNhzJQLozSECuRIPB7r+EQKm9i8BK05zBr5eSQIxPU8CvUqPB9p3CQJuXn791wq/BgR7Q
QJ7LOb7wOLbBXYiHQNV9iMB+nJHB/3qvQPsyqj4TsKHBbBamQF8BAsDBWpPB/fWxQKi2f79pc6XB
sF+jQCjcB8BRo57ByLe9QL7ttD+oDKjB5mPNQF7Qkj/TkbLBjTKYQAo7RsC/4ozB2XSpQKN+TUDD
4JHBL0OMQDcfVEDHr6LBRVjYQCmyqUCxlqfBsBoEQYqydUDnuafBUOu6QE0yNkA2o6PBbOjWQEql
cUCq+qrBz+rPQJI5YEA4UbfBQrXsQBo/jEA1tb7B3/GgQHPLb0CO+7rBYjPJQEaKOUA0WZjBjsas
QDPkUkBc14bBu0nbQNk0CEC5nbnBcRyEQGEDW0ARcpfBaGsCQcUop0C9UKbBYMubQBLuPcDQ933B
jvdvQNloqMCvcaDBkGmQQBeKWMDF66vBiPfEQA2vEMCOrbLBtsTcQOfww76dGb7Br8d5QAaoosAO
oozB9YGiQLnEBj/a1JnBceOyQB25kb8gso/BTguIQGNJiUD9m6bBhiNtQDYSJUA4WqbBKgzOQCXo
v0Bg6a3BceTGQA3asEClKKDBagcIQeFTUkD3X6DBbiIPQVWGYkCwJq7B1xzmQOR0hEA4IcfBoLnl
QGJDrkDFRL3BNEsHQbPbhUDP7rzBOCeeQFGpYkCVmcPB0GaLQBv9REBaiLbBkxSYQC1fmUAqZ7nB
kyznQPIWLkCf8JXB8QaTQB5dYUD5coLBNevIQAtQSEBLRYPB

>  <OMEGA_E>  (75) 
6KQ+PxoqWT8=

>  <OMEGA_NBR>  (75) 
     35117

$$$$
50215543
     RDKit          3D

 43 46  0  0  1  0  0  0  0  0999 V2000
    6.6469   -0.5807  -22.7134 C   0  0  0  0  0  0  0  0  0  0  0  0
    6.1733   -1.5317  -21.7947 C   0  0  0  0  0  0  0  0  0  0  0  0
    6.4274    0.7886  -22.4833 C   0  0  0  0  0  0  0  0  0  0  0  0
    5.3107    0.2651  -20.3870 C   0  0  0  0  0  0  0  0  0  0  0  0
    5.6788   -3.2615  -19.3738 C   0  0  0  0  0  0  0  0  0  0  0  0
    3.7411   -1.8240  -18.9984 C   0  0  0  0  0  0  0  0  0  0  0  0
    3.9799   -3.8947  -17.7412 C   0  0  0  0  0  0  0  0  0  0  0  0
    5.4888   -1.1090  -20.6344 C   0  0  0  0  0  0  0  0  0  0  0  0
    4.9596   -2.0839  -19.6681 C   0  0  0  0  0  0  0  0  0  0  0  0
    5.7439    1.2272  -21.3197 C   0  0  0  0  0  0  0  0  0  0  0  0
    5.1863   -4.1638  -18.4142 C   0  0  0  0  0  0  0  0  0  0  0  0
    3.2623   -2.7200  -18.0287 C   0  0  0  0  0  0  0  0  0  0  0  0
    5.0284    3.3908  -22.3360 C   0  0  0  0  0  0  0  0  0  0  0  0
    7.1845    4.0324  -21.9520 C   0  0  0  0  0  0  0  0  0  0  0  0
    3.5531    4.0909  -19.8207 C   0  0  0  0  0  0  0  0  0  0  0  0
    3.2705    2.5986  -19.6480 C   0  0  0  0  0  0  0  0  0  0  0  0
    4.7224    3.0830  -19.7822 C   0  0  0  0  0  0  0  0  0  0  0  0
    5.5496    2.7293  -21.0667 C   0  0  1  0  0  0  0  0  0  0  0  0
    6.1325    4.7688  -24.1209 C   0  0  0  0  0  0  0  0  0  0  0  0
    6.0536    4.2206  -22.7608 N   0  0  0  0  0  0  0  0  0  0  0  0
    6.8720    3.3269  -20.8920 N   0  0  0  0  0  0  0  0  0  0  0  0
    8.4582    4.5055  -22.2229 N   0  0  0  0  0  0  0  0  0  0  0  0
    4.0083    3.1093  -22.9566 O   0  0  0  0  0  0  0  0  0  0  0  0
    6.0804   -5.6114  -18.0461 Cl  0  0  0  0  0  0  0  0  0  0  0  0
    1.8117   -2.3418  -17.1395 Cl  0  0  0  0  0  0  0  0  0  0  0  0
    7.1797   -0.9014  -23.5965 H   0  0  0  0  0  0  0  0  0  0  0  0
    6.3324   -2.5845  -21.9755 H   0  0  0  0  0  0  0  0  0  0  0  0
    6.7827    1.5144  -23.1998 H   0  0  0  0  0  0  0  0  0  0  0  0
    4.8362    0.5853  -19.4712 H   0  0  0  0  0  0  0  0  0  0  0  0
    6.6069   -3.4699  -19.8852 H   0  0  0  0  0  0  0  0  0  0  0  0
    3.1771   -0.9335  -19.2335 H   0  0  0  0  0  0  0  0  0  0  0  0
    3.6055   -4.5899  -17.0043 H   0  0  0  0  0  0  0  0  0  0  0  0
    3.2920    4.5946  -20.7631 H   0  0  0  0  0  0  0  0  0  0  0  0
    3.3945    4.7817  -18.9795 H   0  0  0  0  0  0  0  0  0  0  0  0
    2.9065    2.2174  -18.6825 H   0  0  0  0  0  0  0  0  0  0  0  0
    2.8040    2.0303  -20.4661 H   0  0  0  0  0  0  0  0  0  0  0  0
    5.3038    3.0809  -18.8484 H   0  0  0  0  0  0  0  0  0  0  0  0
    7.0324    5.3946  -24.2130 H   0  0  0  0  0  0  0  0  0  0  0  0
    6.1842    3.9435  -24.8464 H   0  0  0  0  0  0  0  0  0  0  0  0
    5.2396    5.3788  -24.3226 H   0  0  0  0  0  0  0  0  0  0  0  0
    7.4515    3.2146  -20.0848 H   0  0  0  0  0  0  0  0  0  0  0  0
    9.2080    4.3138  -21.5896 H   0  0  0  0  0  0  0  0  0  0  0  0
    8.6277    5.0387  -23.0517 H   0  0  0  0  0  0  0  0  0  0  0  0
  1  2  2  0
  1  3  1  0
  2  8  1  0
  3 10  2  0
  4  8  2  0
  4 10  1  0
  5  9  2  0
  5 11  1  0
  6  9  1  0
  6 12  2  0
  7 11  2  0
  7 12  1  0
  8  9  1  0
 10 18  1  0
 11 24  1  0
 12 25  1  0
 13 18  1  0
 13 20  1  0
 13 23  2  0
 14 20  1  0
 14 21  2  0
 14 22  1  0
 15 16  1  0
 15 17  1  0
 16 17  1  0
 18 17  1  1
 18 21  1  0
 19 20  1  0
  1 26  1  0
  2 27  1  0
  3 28  1  0
  4 29  1  0
  5 30  1  0
  6 31  1  0
  7 32  1  0
 15 33  1  0
 15 34  1  0
 16 35  1  0
 16 36  1  0
 17 37  1  0
 19 38  1  0
 19 39  1  0
 19 40  1  0
 21 41  1  0
 22 42  1  0
 22 43  1  0
M  CHG  1  21   1
M  END
>  <OMEGA_C>  (76) 
vrPUQPyqFL8gtbXBkIvFQCYOxL+JW67BbK3NQH7eST/f3bPB5fCpQBi3hz6bGKPBmLi1QNS8UMCJ
/ZrBgW5vQGZ36b+u/JfB3bZ+QElCecDm7Y3B8KOvQPryjb8zE6XBcrWeQC9eBcA0WJ3BKc63QEkU
nT+njqrBz/WlQMA9hcAvUJPBQ8pQQMkTLsDgOpDBluigQIoDWUAvsLLBPeflQHgJgUC+na/BjWZj
QJbogkDdkJ7BoVBRQJhPJkAXL53BJx6XQBBPRUABQp7BrJaxQBWtLkCniKjBej3EQPKZmECy98DB
NrfBQM4Oh0ASFrbBEufbQJnsVEC3IqfBr1QHQU4tkECJyLHBNUSAQFr+RkAxp7fBrZLCQGqQs8B9
XpDB8uXnP/jfFcCxHYnB67/lQOHEZr+RxbzBF6PKQD1oJcDFza/BDAzZQDPYwT8lmbnBy8GaQAzZ
FT8QxZvB3GvTQC0TXsDnFJ/BFVVLQG74br9D3pnBaMBmQCbgksDeCIjBobBSQE8Hk0DWGqbBDkBZ
QJ8DmUAO1pfBYAM6QGrpDUDYdZXB9HMzQMrwAUCguqPB+ripQDYuRUCYyZbBoQnhQNOgrEAltMHB
VeXFQEtifEBUxcbBE6unQB4frEC7lMLBpXLuQCG8TUCkraDB0VMTQawKikCOt6zBGQsKQWs9oUD0
abjB

>  <OMEGA_E>  (76) 
HPaGPw==

>  <OMEGA_NBR>  (76) 
    154856

$$$$
50215547
     RDKit          3D

 42 44  0  0  1  0  0  0  0  0999 V2000
    6.7859   -0.2932  -22.5912 C   0  0  0  0  0  0  0  0  0  0  0  0
    4.9622   -4.4051  -19.0333 C   0  0  0  0  0  0  0  0  0  0  0  0
    6.2804   -1.3069  -21.7663 C   0  0  0  0  0  0  0  0  0  0  0  0
    5.5736   -3.3556  -19.7420 C   0  0  0  0  0  0  0  0  0  0  0  0
    6.6102    1.0540  -22.2446 C   0  0  0  0  0  0  0  0  0  0  0  0
    3.7658   -4.1764  -18.3300 C   0  0  0  0  0  0  0  0  0  0  0  0
    5.4577    0.3735  -20.2066 C   0  0  0  0  0  0  0  0  0  0  0  0
    3.7953   -1.8385  -19.0330 C   0  0  0  0  0  0  0  0  0  0  0  0
    5.5977   -0.9840  -20.5730 C   0  0  0  0  0  0  0  0  0  0  0  0
    4.9932   -2.0635  -19.7549 C   0  0  0  0  0  0  0  0  0  0  0  0
    5.9494    1.4095  -21.0442 C   0  0  0  0  0  0  0  0  0  0  0  0
    3.1837   -2.8941  -18.3285 C   0  0  0  0  0  0  0  0  0  0  0  0
    6.5245    3.0979  -19.3045 C   0  0  0  0  0  0  0  0  0  0  0  0
    4.2780    3.2676  -18.9233 C   0  0  0  0  0  0  0  0  0  0  0  0
    5.7781    2.8803  -20.6148 C   0  0  1  0  0  0  0  0  0  0  0  0
    7.5895    4.2342  -21.9768 C   0  0  0  0  0  0  0  0  0  0  0  0
    5.7769    3.2362  -16.8860 C   0  0  0  0  0  0  0  0  0  0  0  0
    6.0893    3.9431  -21.7319 C   0  0  0  0  0  0  0  0  0  0  0  0
    5.5355    3.1107  -18.3303 N   0  0  0  0  0  0  0  0  0  0  0  0
    4.3746    3.1046  -20.2236 N   0  0  0  0  0  0  0  0  0  0  0  0
    3.0992    3.5335  -18.2441 N   0  0  0  0  0  0  0  0  0  0  0  0
    7.7316    2.9969  -19.1162 O   0  0  0  0  0  0  0  0  0  0  0  0
    1.6922   -2.6178  -17.4649 Cl  0  0  0  0  0  0  0  0  0  0  0  0
    7.3132   -0.5507  -23.4979 H   0  0  0  0  0  0  0  0  0  0  0  0
    5.4116   -5.3871  -19.0289 H   0  0  0  0  0  0  0  0  0  0  0  0
    6.4137   -2.3418  -22.0449 H   0  0  0  0  0  0  0  0  0  0  0  0
    6.4922   -3.5360  -20.2804 H   0  0  0  0  0  0  0  0  0  0  0  0
    6.9826    1.8278  -22.8995 H   0  0  0  0  0  0  0  0  0  0  0  0
    3.2934   -4.9843  -17.7910 H   0  0  0  0  0  0  0  0  0  0  0  0
    4.9701    0.6267  -19.2768 H   0  0  0  0  0  0  0  0  0  0  0  0
    3.3496   -0.8548  -19.0226 H   0  0  0  0  0  0  0  0  0  0  0  0
    7.6925    4.9865  -22.7726 H   0  0  0  0  0  0  0  0  0  0  0  0
    8.0448    4.6154  -21.0508 H   0  0  0  0  0  0  0  0  0  0  0  0
    8.0979    3.3073  -22.2807 H   0  0  0  0  0  0  0  0  0  0  0  0
    4.8164    3.2173  -16.3502 H   0  0  0  0  0  0  0  0  0  0  0  0
    6.4033    2.3988  -16.5450 H   0  0  0  0  0  0  0  0  0  0  0  0
    6.2919    4.1864  -16.6816 H   0  0  0  0  0  0  0  0  0  0  0  0
    5.6565    3.5794  -22.6755 H   0  0  0  0  0  0  0  0  0  0  0  0
    5.6034    4.8876  -21.4456 H   0  0  0  0  0  0  0  0  0  0  0  0
    3.6032    3.1293  -20.8595 H   0  0  0  0  0  0  0  0  0  0  0  0
    2.2392    3.6142  -18.7479 H   0  0  0  0  0  0  0  0  0  0  0  0
    3.1089    3.6447  -17.2504 H   0  0  0  0  0  0  0  0  0  0  0  0
  1  3  2  0
  1  5  1  0
  2  4  2  0
  2  6  1  0
  3  9  1  0
  4 10  1  0
  5 11  2  0
  6 12  2  0
  7  9  2  0
  7 11  1  0
  8 10  2  0
  8 12  1  0
  9 10  1  0
 11 15  1  0
 12 23  1  0
 13 15  1  0
 13 19  1  0
 13 22  2  0
 14 19  1  0
 14 20  2  0
 14 21  1  0
 15 18  1  6
 15 20  1  0
 16 18  1  0
 17 19  1  0
  1 24  1  0
  2 25  1  0
  3 26  1  0
  4 27  1  0
  5 28  1  0
  6 29  1  0
  7 30  1  0
  8 31  1  0
 16 32  1  0
 16 33  1  0
 16 34  1  0
 17 35  1  0
 17 36  1  0
 17 37  1  0
 18 38  1  0
 18 39  1  0
 20 40  1  0
 21 41  1  0
 21 42  1  0
M  CHG  1  20   1
M  END
>  <OMEGA_C>  (77) 
ZSbZQMgblr7KurTBwMqeQHD2jMAdRJjB9/jIQKRJp79IIa7Bj1qyQHjBVsCZ753B34bTQEzohj/X
9LHBEgJxQOSkhcDIo5LBlKWuQLA9vz4sp6HB2uZyQE1U67+KQ5jBkSCzQNTpe79ylaTBmcifQBcQ
BMATCp7BoGG+QLZptD+bWqjBZsJLQIU4OcDHoJLBq8jQQDdDRkCTb5rBIOWIQCEgUUDSYpfBCOa4
QNdWOEAO66TBcd3yQHx+h0Bt0K/BDty4QCEdT0B/FofB3NvCQFtcfEDn2q3B5SKxQL8VR0CNpJLB
e/yLQO+xRkDvyaHB5llGQJMlYkD885HBfWn3QBHNP0Dj7ZjBwJjYPx+KJ8AquIvBigXqQCn6DL+2
+7vBGSytQHNjrMBCO5jBRD3NQGvgFcDlW7DBY8DPQKRNYsA8PqLBFXHfQP/z6T9AMrfBg8ZSQKx/
n8AHVI7BrgqfQGduID/6NprBV2BWQNjVWr9YLpjBqCj2QMuRn0BPLrbBrrcAQayxk0AhaKjB9pAB
QRaqU0DYPrLBjx+aQLbnTUA2zYLBCejMQCGFGUARXITBp1fJQMH2hUDvc4XB/AG1QLoUZUBYZ7XB
bE+zQP5mnECgkKvBWJpmQLVGSEAy4KbBGk8PQMpPZ0DM+5XBF/hGQPpCaUDGAIrB8RvZQGzWub5a
OLXBxzGoQJJujsAtw5fBHzLHQET6r79Q6K7BgqS3QEBFWcAjGZ7BxGrWQMCOeT+b9LHBcO+CQJXV
iMBynJHB3YatQCXZmD5dPaLBrX55QKkg/b/kC5jBOR6yQLlsh78nPqXBIfShQDOiCcC8V57BDZm/
QMJhqj8WlKjBC49aQNuaQsDivZHBoJLQQAAfN0ANlpnB67mJQBAjXEB+kZjBTNa8QC6bMkAKrqTB
smG6QEnIgUA98bbBlSayQNl+TkByC4fBamrSQHH9dUCuMqzBhfquQME8SkDLwpLBmACQQMejS0A2
wqLBpnxGQFFLd0BQNZTBs/v0QGMTIkBoDpfB2DP8P2YjNcCIGYrBuAjpQGwuHb/dnrzBQ+y4QAOr
rMBenpfBiIPJQLjkGcBdcrHBDULUQGYWYsDj0KLBM+blQJcb3z+jorbBedVtQF3bosDFyIzBjRqc
QJrlDD8fDpvBUF5YQHvMg7+QEpjB8mTLQPPLmUAnxbvBXA+5QEWxRkDGWbvBoKiZQP0AjUDbULXB
77aSQGnpXkCjqIPB04G8QHYEEEBT7IPB/J3JQIe9f0CJx4TBtrnTQKvNmUA/9KfBcyDzQKJKYEAq
/a3Bv/pyQC6HT0BabKjB2XATQCKgf0CK65jBIwlCQMVFgUA/WozBZpLYQBjilr5Pz7TB5vNMQCxc
O8BBl5LBKCHIQGSxp7/KRq7BgAZzQCOJ7r8OP5jBanbTQGNxhj8F67HBFOVyQNORhsBgtpLB8mWu
QOwzuj4Hp6HBiKWyQDAGV8CEGZ7BOqayQB7Xfb+iqqTBfLGfQFnQBMAuHp7BRVK+QJdqsz/4TKjB
5pWfQH5hjcDodZjBMovQQIRfRUA4SJrBOq+IQDIbU0AVY5fBj964QKK3N0AY0KTBJt7yQOVJh0CV
qq/Bqv63QL6pTUDc94bBxuDCQGr6e0DVtq3BsqWwQAKpR0Atj5LBYeGLQK4jRkAdvqHBUA1GQM6X
ZkDSDZLBMg73QAzDPUCirJjBOFe3QG3fv8BPs5jBIT7pQKCBDL+TGbzBM5QSQDTVMMC1J47BxubL
QDb8FcBPmrDBhOpVQLhYYr+7GpjBl8bfQBfJ6T/rE7fBU4BVQByqoMCSZo7BIdieQN7xHD8IM5rB
yQDQQEzHYcDNdKLB5yz2QMh1n0CFArbBSroAQXZck0CAP6jB0o0BQWdNU0CjILLBxhCZQGVGTkB+
xILB6uHKQKc+FkAJS4TBL4zJQEB7hEAkK4XBmAO1QIP2ZEAjRrXBiVyzQAQxnEAAZavB62tmQNMP
RkCJ1qbBwzUPQBKxa0DTIJbBP5FGQNuMb0ALIorBfAzZQCCAL79N0rbBNYqHQHnjj8BFs5rBQ2vJ
QC/70r+On6/B+96WQIEBY8D6FKLBCAXSQB6iLj9J5rTB9QaEQIA9hcDDyY/BGImrQJYBAz6ziaTB
/1CfQHvz9r8tl5PBW9OyQJKkn7/LXKbBfOCiQFIvEMB5mJ7BDUe6QP+SjT+X2KvBxeaPQDZLOMCb
PYzBP5+uQIzXV0C5LbTBC4nqQOCqg0AOVKvBH3KzQPH/JkDfs6nB9RWDQAawjECjiaDB8O3ZQDVe
pUBlZb3B55aMQO4zOUCdFaLBOnTPQATliUCAMbTB0/vaQIXXSkB7G6XB5/AHQUFKmkCzL6nBXTST
QD/PTEC6ELvBWK+LQLeYHcDXa33B44HqQFpIf79M2b3BFup8QKdrr8BpaZ3BoK7OQJ2sLMCJK7HB
hnyZQPSic8BOcarBG9HeQKxRtT8KXrrBMXVwQJWVnMAWJIrBg2+aQHRU4D6cc53BKn+oQG9pcr+j
1JDBeC1PQKmKkED0IJvBO0afQK+EnECaDp3Bw0J3QBlGm0CgU6jBix31QK4pukBtV7vBm3jiQIxA
kUBqS8TBjQW+QD03uUBebr/Bve9fQAGKGkCie6XBuJyTQC4HHUCdNprB9y/oQK/cN0CVN57B3lsQ
QeHxk0APkqLBwvMMQYPnsED9Qq7BJajVQFWuL78GS7fB+gOpQGSPjsCCJpbBnp7GQPQs078oBrDB
9bq3QJRGYMClmZ3BOzzQQOTJLj+vH7XBi0mFQMRohcAHrY/Bdg+tQNS9Az7YTaTBP4l9QL1M/b9t
GZjBlE2yQP7On7+JcKbBFMGiQH5eEMA+o57Bgui6QI7djT/AtKvBaV9gQOCNO8A7p5DB5c6vQC6/
WUD9l7PBzf3tQDZJgkCeX6vB9ui1QM0qJ0CpSanBZd6IQFZpjUA/WZ/Be/jaQAy2pUDhFb3B48CQ
QIllOkD3MKHBcHbRQKLkiUCg4bPBB7/eQMcoSECpF6XBlywKQUyul0DUlqnBNPaSQCFEUUA8KrrB
DoIHQKyrJMCWq4jBpGvlQBePf7/CkL7Beii5QHj4rMBaZpXBCJjKQNzSLMCPw7HB6yTTQB6dbsDv
i6LBCWzcQOxftT/zrbrB6SN0QJ7HnMBB9onBFj+eQPDb4D5m55zBaOFcQA0JhL+H1pjBugVdQFCi
kUC+nJnBbxemQBA/nEAqI5zBsGSAQOy2nEAn/KbB2x33QFqSuUCYRrvBQpfhQDvbkUA1KcTB9Uy/
QEJ9ukAOs77BukFmQM67HUBUUKTBnNOYQBbMHEBXd5nB4O7sQH+KM0CYZp7BdxsTQahokEC9NKPB
jwgPQdRWrkBqsK7B

>  <OMEGA_E>  (77) 
rO0wP6gmBz+obDM/NLOeP45Rkz8=

>  <OMEGA_NBR>  (77) 
     40163

$$$$
50215555
     RDKit          3D

 45 47  0  0  1  0  0  0  0  0999 V2000
    6.7605   -0.5993  -22.5155 C   0  0  0  0  0  0  0  0  0  0  0  0
    3.0713   -2.9951  -18.2467 C   0  0  0  0  0  0  0  0  0  0  0  0
    6.1660   -1.5340  -21.6598 C   0  0  0  0  0  0  0  0  0  0  0  0
    3.5647   -2.0044  -19.1184 C   0  0  0  0  0  0  0  0  0  0  0  0
    6.6091    0.7741  -22.2714 C   0  0  0  0  0  0  0  0  0  0  0  0
    3.9009   -4.0620  -17.8456 C   0  0  0  0  0  0  0  0  0  0  0  0
    5.1982    0.2800  -20.3457 C   0  0  0  0  0  0  0  0  0  0  0  0
    5.7123   -3.1666  -19.2047 C   0  0  0  0  0  0  0  0  0  0  0  0
    5.4100   -1.0992  -20.5537 C   0  0  0  0  0  0  0  0  0  0  0  0
    4.8862   -2.0943  -19.6079 C   0  0  0  0  0  0  0  0  0  0  0  0
    5.7781    1.2385  -21.2178 C   0  0  0  0  0  0  0  0  0  0  0  0
    5.2241   -4.1426  -18.3211 C   0  0  0  0  0  0  0  0  0  0  0  0
    6.3267    3.0744  -19.6349 C   0  0  0  0  0  0  0  0  0  0  0  0
    4.0856    3.3864  -19.2991 C   0  0  0  0  0  0  0  0  0  0  0  0
    5.5789    2.7459  -20.9358 C   0  0  1  0  0  0  0  0  0  0  0  0
    4.8977    4.7832  -22.4886 C   0  0  0  0  0  0  0  0  0  0  0  0
    7.3341    4.3443  -22.0928 C   0  0  0  0  0  0  0  0  0  0  0  0
    5.5926    3.6265  -17.2746 C   0  0  0  0  0  0  0  0  0  0  0  0
    5.9378    3.6787  -22.1971 C   0  0  0  0  0  0  0  0  0  0  0  0
    5.3394    3.2945  -18.6857 N   0  0  0  0  0  0  0  0  0  0  0  0
    4.1668    2.9655  -20.5423 N   0  0  0  0  0  0  0  0  0  0  0  0
    2.9154    3.7998  -18.6781 N   0  0  0  0  0  0  0  0  0  0  0  0
    7.5209    2.9214  -19.4001 O   0  0  0  0  0  0  0  0  0  0  0  0
    6.2650   -5.4479  -17.8163 Cl  0  0  0  0  0  0  0  0  0  0  0  0
    7.3366   -0.9357  -23.3648 H   0  0  0  0  0  0  0  0  0  0  0  0
    2.0554   -2.9371  -17.8850 H   0  0  0  0  0  0  0  0  0  0  0  0
    6.2872   -2.5906  -21.8480 H   0  0  0  0  0  0  0  0  0  0  0  0
    2.9338   -1.1783  -19.4115 H   0  0  0  0  0  0  0  0  0  0  0  0
    7.1311    1.4869  -22.8927 H   0  0  0  0  0  0  0  0  0  0  0  0
    3.5217   -4.8177  -17.1736 H   0  0  0  0  0  0  0  0  0  0  0  0
    4.5901    0.6093  -19.5162 H   0  0  0  0  0  0  0  0  0  0  0  0
    6.7235   -3.2362  -19.5775 H   0  0  0  0  0  0  0  0  0  0  0  0
    5.2201    5.3700  -23.3614 H   0  0  0  0  0  0  0  0  0  0  0  0
    3.9215    4.3214  -22.6977 H   0  0  0  0  0  0  0  0  0  0  0  0
    4.8107    5.4447  -21.6140 H   0  0  0  0  0  0  0  0  0  0  0  0
    7.5129    4.9642  -22.9837 H   0  0  0  0  0  0  0  0  0  0  0  0
    7.3728    4.9758  -21.1930 H   0  0  0  0  0  0  0  0  0  0  0  0
    8.1076    3.5649  -22.0273 H   0  0  0  0  0  0  0  0  0  0  0  0
    4.6343    3.7474  -16.7482 H   0  0  0  0  0  0  0  0  0  0  0  0
    6.1689    2.8158  -16.8050 H   0  0  0  0  0  0  0  0  0  0  0  0
    6.1641    4.5645  -17.2156 H   0  0  0  0  0  0  0  0  0  0  0  0
    5.9613    3.0170  -23.0756 H   0  0  0  0  0  0  0  0  0  0  0  0
    3.3810    2.8138  -21.1420 H   0  0  0  0  0  0  0  0  0  0  0  0
    2.0517    3.7905  -19.1820 H   0  0  0  0  0  0  0  0  0  0  0  0
    2.9359    4.1071  -17.7266 H   0  0  0  0  0  0  0  0  0  0  0  0
  1  3  2  0
  1  5  1  0
  2  4  2  0
  2  6  1  0
  3  9  1  0
  4 10  1  0
  5 11  2  0
  6 12  2  0
  7  9  2  0
  7 11  1  0
  8 10  2  0
  8 12  1  0
  9 10  1  0
 11 15  1  0
 12 24  1  0
 13 15  1  0
 13 20  1  0
 13 23  2  0
 14 20  1  0
 14 21  2  0
 14 22  1  0
 15 19  1  6
 15 21  1  0
 16 19  1  0
 17 19  1  0
 18 20  1  0
  1 25  1  0
  2 26  1  0
  3 27  1  0
  4 28  1  0
  5 29  1  0
  6 30  1  0
  7 31  1  0
  8 32  1  0
 16 33  1  0
 16 34  1  0
 16 35  1  0
 17 36  1  0
 17 37  1  0
 17 38  1  0
 18 39  1  0
 18 40  1  0
 18 41  1  0
 19 42  1  0
 21 43  1  0
 22 44  1  0
 22 45  1  0
M  CHG  1  21   1
M  END
>  <OMEGA_C>  (78) 
B1bYQDdsGb+6H7TBkZBEQMmvP8BF+ZHBCFDFQMRaxL9VR63BlCNkQExIAMBm8pjB6H3TQA8sRj/r
K7LBvKh5QDH8gcDIw47BAFimQAJZjz7ww6LBRsu2QEmqSsAzo5nBuB6tQMqyjL8PbqTB9lucQEgJ
BsDs3JzBhOa4QOCFnj8RvqnBDSynQOWPhMCgkZLBGXTKQMbCREAyFJ3BpL2CQPm5WECPZJrBiYay
QDO9L0CHfKfBC7qcQPUPmUCo6LPB3bDqQB8Ei0D+vbDBLfayQF0YaEBYMorBJAK+QAVwa0DDk7HB
ltyqQM3YUkBVfJXBhFaFQAHKPUCsVqTBcZY6QGUwc0CnbJXBiqvwQIP3OkBoM5vBvHrIQFlVrsDa
h47BMsXqQAeNb78l67rB9IoDQLb5O8BzFI/B7zDJQMjLJcDOyK7BZMM7QPLRlr+tSpvB0zHkQDlS
vj8qJLfB9WNhQJ0qmsCJY4nBtOGSQHP9Gz8tIZzBKifXQEUeT8C/npzBtAqnQCjXq0Aa5LrBZPl6
QAdJikDZlLXB7/CZQNQ6rkCN6azBjWnwQMLankCL3rfBxu3rQL45n0Awi6nBz7gBQZ8nZEDfN7DB
4EuUQG7Vb0BY/IXB6GfFQI81NECdcIbBE0DFQG8QkkBzuYnBtsK+QC4XQUDJmrjBC2NYQE0VNEC+
IqnBiE8DQNqXckCsdJnBYeY7QB9tg0Aq0I3BZDHSQJkfHb+4CLXB1m2oQMw/hMC3UJLB78bDQJRn
xL+jaq3B2Fm4QDjfScCwWZnB5R/MQN0jQz8XbbPBY0V8QIZVgcDjgI7BeRSoQJoEmT4RjKLBDdhn
QHjB/L+Yk5jBgUGuQBe/ir/CNaTBWTGeQGxpBMAHeZzBO7u3QHz/nz8PB6rBp59HQDwOPsBqtZHB
/JnKQB2nP0DHpZzB5LyCQJjWVkB9d5rBnia0QPvpMECVXafB/hOhQECkg0C6objBaufZQNptoUC4
m6zBOFaxQBBbZEDM+YnBeSjFQE5lb0Cnn7DB4zCqQJQbTkBFRJXB2feGQF5iREBSraTBgQk5QLzB
bUBZk5XBZePwQJFrOEBdt5rBkWW7Pzn2OMAFXY3B7g7iQAWgdr+gLrzBxZ68QEx+nsBK14/B7SrJ
QEDQJcBVmq7BZqHYQJ3cTsCKX5zBiRnXQDwOuz+zabnB4bNjQEVomcBTHonBaEGXQLhHIz8IgZvB
Mu8/QGf4kb9u3JrBlv2tQOUEmUBG1b7BD5yUQBnATEAZZrzBoxGHQP77k0CbVbTBsoDkQIGitECU
fbPBvGfCQD/Bs0Cn7KfBr571QIazmUAAiqfBJ1OSQLw+bEBj7oXBG47DQObqMECvDobBCX3DQEZG
kEDcfYnBeKndQM++S0APGrXBEr1dQP6VQ0B+8KnBBzUDQAEjcUDM4ZnBB9M3QFjhekA+v43B

>  <OMEGA_E>  (78) 
XDcHPwTfBz8=

>  <OMEGA_NBR>  (78) 
    160379

$$$$
50215937
     RDKit          3D

 42 45  0  0  1  0  0  0  0  0999 V2000
    6.7795   -0.6404  -22.6345 C   0  0  0  0  0  0  0  0  0  0  0  0
    6.2649   -1.5617  -21.7049 C   0  0  0  0  0  0  0  0  0  0  0  0
    6.4986    0.7309  -22.5011 C   0  0  0  0  0  0  0  0  0  0  0  0
    5.1917    0.2630  -20.4982 C   0  0  0  0  0  0  0  0  0  0  0  0
    3.7135   -1.8186  -18.9597 C   0  0  0  0  0  0  0  0  0  0  0  0
    5.6312   -3.2669  -19.3271 C   0  0  0  0  0  0  0  0  0  0  0  0
    4.0011   -3.9144  -17.7696 C   0  0  0  0  0  0  0  0  0  0  0  0
    5.4673   -1.1147  -20.6263 C   0  0  0  0  0  0  0  0  0  0  0  0
    4.9304   -2.0741  -19.6303 C   0  0  0  0  0  0  0  0  0  0  0  0
    5.6771    1.1957  -21.4450 C   0  0  0  0  0  0  0  0  0  0  0  0
    3.2470   -2.7503  -18.0208 C   0  0  0  0  0  0  0  0  0  0  0  0
    5.3010    3.4035  -22.6241 C   0  0  0  0  0  0  0  0  0  0  0  0
    7.0754    4.2659  -21.4490 C   0  0  0  0  0  0  0  0  0  0  0  0
    4.1515    3.0226  -18.9205 C   0  0  0  0  0  0  0  0  0  0  0  0
    3.8936    4.3020  -19.7336 C   0  0  0  0  0  0  0  0  0  0  0  0
    4.1003    2.9642  -20.4587 C   0  0  0  0  0  0  0  0  0  0  0  0
    5.4029    2.6979  -21.2794 C   0  0  1  0  0  0  0  0  0  0  0  0
    6.6742    5.1812  -23.7858 C   0  0  0  0  0  0  0  0  0  0  0  0
    5.1668   -4.1548  -18.4162 N   0  0  0  0  0  0  0  0  0  0  0  0
    6.2937    4.3759  -22.6127 N   0  0  0  0  0  0  0  0  0  0  0  0
    6.5821    3.3338  -20.6612 N   0  0  0  0  0  0  0  0  0  0  0  0
    8.1950    5.0328  -21.1462 N   0  0  0  0  0  0  0  0  0  0  0  0
    4.5110    3.1547  -23.5291 O   0  0  0  0  0  0  0  0  0  0  0  0
    1.7424   -2.4712  -17.1782 Cl  0  0  0  0  0  0  0  0  0  0  0  0
    7.3923   -0.9873  -23.4534 H   0  0  0  0  0  0  0  0  0  0  0  0
    6.4798   -2.6143  -21.8151 H   0  0  0  0  0  0  0  0  0  0  0  0
    6.9120    1.4345  -23.2086 H   0  0  0  0  0  0  0  0  0  0  0  0
    4.6008    0.6114  -19.6640 H   0  0  0  0  0  0  0  0  0  0  0  0
    3.1513   -0.9200  -19.1666 H   0  0  0  0  0  0  0  0  0  0  0  0
    6.5610   -3.4740  -19.8360 H   0  0  0  0  0  0  0  0  0  0  0  0
    3.6415   -4.6304  -17.0455 H   0  0  0  0  0  0  0  0  0  0  0  0
    5.1089    2.8873  -18.3961 H   0  0  0  0  0  0  0  0  0  0  0  0
    3.3413    2.5759  -18.3255 H   0  0  0  0  0  0  0  0  0  0  0  0
    2.8988    4.7712  -19.7190 H   0  0  0  0  0  0  0  0  0  0  0  0
    4.6665    5.0826  -19.7897 H   0  0  0  0  0  0  0  0  0  0  0  0
    3.1897    2.5130  -20.8798 H   0  0  0  0  0  0  0  0  0  0  0  0
    7.4822    5.8744  -23.5089 H   0  0  0  0  0  0  0  0  0  0  0  0
    7.0215    4.5160  -24.5901 H   0  0  0  0  0  0  0  0  0  0  0  0
    5.8029    5.7548  -24.1349 H   0  0  0  0  0  0  0  0  0  0  0  0
    6.9555    3.0899  -19.7661 H   0  0  0  0  0  0  0  0  0  0  0  0
    8.6790    4.8918  -20.2826 H   0  0  0  0  0  0  0  0  0  0  0  0
    8.5162    5.7254  -21.7921 H   0  0  0  0  0  0  0  0  0  0  0  0
  1  2  2  0
  1  3  1  0
  2  8  1  0
  3 10  2  0
  4  8  2  0
  4 10  1  0
  5  9  2  0
  5 11  1  0
  6  9  1  0
  6 19  2  0
  7 11  2  0
  7 19  1  0
  8  9  1  0
 10 17  1  0
 11 24  1  0
 12 17  1  0
 12 20  1  0
 12 23  2  0
 13 20  1  0
 13 21  2  0
 13 22  1  0
 14 15  1  0
 14 16  1  0
 15 16  1  0
 17 16  1  1
 17 21  1  0
 18 20  1  0
  1 25  1  0
  2 26  1  0
  3 27  1  0
  4 28  1  0
  5 29  1  0
  6 30  1  0
  7 31  1  0
 14 32  1  0
 14 33  1  0
 15 34  1  0
 15 35  1  0
 16 36  1  0
 18 37  1  0
 18 38  1  0
 18 39  1  0
 21 40  1  0
 22 41  1  0
 22 42  1  0
M  CHG  1  21   1
M  END
>  <OMEGA_C>  (79) 
jfHYQHryI79vE7XBQXrIQEPlx7+Ko63BrPTPQDseOz9BArTBoyKmQPSshj5N/KPB2qltQFvH6L9d
rZfBfDK0QGMVUcDQnZrB/QiAQLeEesAaKI7BBvSuQPevjr+4AqXBKcadQGy+BMDuCp3BE6u1QEUM
mT9Yj6vBhc5PQAgFMMCCKpDBlKGpQDHTWUAl/rTBB2riQDSCiECNl6vB+diEQONxQUA4XZfBwDB5
QJapiUBl3p3B7DWDQKW0PUCBq6PBwOSsQPCqLEBCPKrB+ZLVQKXMpUBUSb7BblalQET0hMBQVJPB
tGXJQAgHjEDF5rTBnqDSQDNcVUAXSqXB0x4DQcUMoUBzK6nBx1mQQAXmSUCNO7zB6wbfP0MoHsD8
bInBcI3sQOS8fL+NoLvBZVrPQENRJ8Bjha7BHS/dQIuctz81q7nBsDmTQP2CHD/mT53B9K5JQJWD
a79MVZnBVPPRQLdVXsAfsJ7B/g1pQIoslMAvXYjBfXyjQAnKOEBIK5PBVNdVQHTbJECqmpLBSYY5
QL6tmECZwJ3B91OVQAmlokA3UZ7BLyRMQHrVIEC+CafBRm7vQMH6u0A7ErzB6a/gQAWDkEB6uMTB
J7G5QOsmuEBTFMHBTZPeQILBRUD+IJ7BX90KQUqJnEDFQqLBZUIIQa02t0AnVq7BIXXXQG4yFb+/
nrTBNgbGQHv5w7/Zk63BgrDRQH9ASz8rxbLB/F+nQAK2ij4u/KLBbPNlQH8Y/L86AZnBSCS2QPxp
TMDauJnBfE59QFGUgMBF9Y7BvCCuQCefjb9QqKTB6ducQEQhBsA7Cp3BZ8O4QCzGnz9aBKrB0GBH
QKLYPMDN8ZHBlt/JQJSzPkAihpzBAHCCQL51V0C5K5rBpC7nQEwhgkBOyrTBWpW8QJT5dUCX47rB
9P28QEoXfECEqq7BvHWyQJhwL0DR8abBtduyQMKNb0D7N4rBAwunQDzng8Bmy5LBCEKqQOIIUEAA
EZXBD0CFQEY1O0DxCaTByG86QArPdkBllZXB/qrwQI5oPED5FJvBj+m+P8B/NsCn64zB72/pQOCJ
ab8Tg7vBXfHKQIlyJcCdAK/B8WfgQN6CwT8FE7jB74+UQDKKFz8nNZzBRRM+QMlKkb+XS5vBR0nW
QLLZUsCxypzBUa1lQDqamMB4fonB5Bj/QE61UEDsYLTBx4/3QG07oUCTQLXBV6quQJwClUCRr7/B
dDO2QK1DOEDqz77BjuqwQF3TnEC8pavBwnCUQJAheED964XBXNzGQM/vQECI64XBu7vDQNiclkBt
rorB48JYQBh2L0Cu2qjBB1oEQMbreEBC2pnBVdI6QOOnhUBfAY7Bnt65QL06Eb/WY7bBZ5uzQG6a
xb87dq7BuCa7QH47Sz8fmrPBOgSvQKY1VD527aDBb8+1QEfc+b9sqZDBvP+SQHj1WcAAmp3B4e6Z
QJJZhMCH24vBVzWuQKuwlL/Sp6PBs6SnQOyPC8DbOpvBtoG2QBEFmT/YxqjBadmuQMZNPMCT6ojB
wBfJQHghOUAtYprBOPCCQDThZEBGh5rB4iO5QKDBgkCNyrfBC7fGQByCoUB9za7BJcLPQOzYYkCe
wK3BaYC2QMBXK0Awi6XBd9qqQPQyb0Dq24jBg3eMQMMyi8D2A5bB19CoQBItYECPfJTBW8+JQL5v
SEAxTKTB+603QO8HgkB86pbBjubsQADvJEAeQJfB7CTAQHSfLMCpjXfBA7W9QMr2XL/apL7BN+qy
QF6zJcCnoLDBrLS/QIkVxT8Jv7nBVtWpQC7fAD9xuJjBeb7FQMfMg79klI7BuC6IQA3aZcD1q6XB
6IWUQMOznMDA4IXBTgmXQBLDd0BoIbnBrQHKQHA8g0Cpg7/BpEbhQNMDuEAUGrDBRE6uQOyosEDT
t6nBzlrxQLX5T0Dp567BJ0yNQAR7h0C9MobBdUyuQBagMUBBroTB+n7GQM8bjEBNBIfBIn9nQAHE
RkC1FqrBkV4FQH7ugkAM25vBS8MxQE9XjED2YI/B

>  <OMEGA_E>  (79) 
dQSIP7rnAj8A80c/

>  <OMEGA_NBR>  (79) 
    181149

$$$$
50215700
     RDKit          3D

 39 41  0  0  1  0  0  0  0  0999 V2000
    6.6808   -0.5604  -22.5888 C   0  0  0  0  0  0  0  0  0  0  0  0
    5.1791   -4.1052  -18.2691 C   0  0  0  0  0  0  0  0  0  0  0  0
    6.1758   -1.5054  -21.6787 C   0  0  0  0  0  0  0  0  0  0  0  0
    5.7013   -3.1663  -19.1795 C   0  0  0  0  0  0  0  0  0  0  0  0
    6.4908    0.8156  -22.3623 C   0  0  0  0  0  0  0  0  0  0  0  0
    3.8632   -3.9630  -17.7874 C   0  0  0  0  0  0  0  0  0  0  0  0
    5.2533    0.2986  -20.3249 C   0  0  0  0  0  0  0  0  0  0  0  0
    3.6018   -1.9197  -19.0949 C   0  0  0  0  0  0  0  0  0  0  0  0
    5.4571   -1.0787  -20.5429 C   0  0  0  0  0  0  0  0  0  0  0  0
    4.9164   -2.0646  -19.5908 C   0  0  0  0  0  0  0  0  0  0  0  0
    5.7695    1.2596  -21.2272 C   0  0  0  0  0  0  0  0  0  0  0  0
    3.0724   -2.8757  -18.2091 C   0  0  0  0  0  0  0  0  0  0  0  0
    6.3377    3.0557  -19.6114 C   0  0  0  0  0  0  0  0  0  0  0  0
    4.0907    3.3830  -19.3063 C   0  0  0  0  0  0  0  0  0  0  0  0
    5.6030    2.7498  -20.9001 C   0  0  1  0  0  0  0  0  0  0  0  0
    6.0471    3.7188  -22.0276 C   0  0  0  0  0  0  0  0  0  0  0  0
    5.5803    3.5974  -17.2700 C   0  0  0  0  0  0  0  0  0  0  0  0
    5.3627    3.4724  -18.7184 N   0  0  0  0  0  0  0  0  0  0  0  0
    4.1996    3.0372  -20.5699 N   0  0  0  0  0  0  0  0  0  0  0  0
    2.8870    3.6238  -18.6597 N   0  0  0  0  0  0  0  0  0  0  0  0
    7.5303    2.8820  -19.3849 O   0  0  0  0  0  0  0  0  0  0  0  0
    1.4292   -2.7180  -17.6461 Cl  0  0  0  0  0  0  0  0  0  0  0  0
    7.2170   -0.8918  -23.4657 H   0  0  0  0  0  0  0  0  0  0  0  0
    5.7878   -4.9345  -17.9401 H   0  0  0  0  0  0  0  0  0  0  0  0
    6.3383   -2.5594  -21.8496 H   0  0  0  0  0  0  0  0  0  0  0  0
    6.7030   -3.2880  -19.5642 H   0  0  0  0  0  0  0  0  0  0  0  0
    6.8967    1.5360  -23.0571 H   0  0  0  0  0  0  0  0  0  0  0  0
    3.4603   -4.6873  -17.0950 H   0  0  0  0  0  0  0  0  0  0  0  0
    4.6965    0.6249  -19.4589 H   0  0  0  0  0  0  0  0  0  0  0  0
    3.0022   -1.0735  -19.3963 H   0  0  0  0  0  0  0  0  0  0  0  0
    5.8906    4.7577  -21.7016 H   0  0  0  0  0  0  0  0  0  0  0  0
    7.1130    3.5604  -22.2482 H   0  0  0  0  0  0  0  0  0  0  0  0
    5.4526    3.5251  -22.9326 H   0  0  0  0  0  0  0  0  0  0  0  0
    4.6544    3.9447  -16.7882 H   0  0  0  0  0  0  0  0  0  0  0  0
    5.8641    2.6186  -16.8561 H   0  0  0  0  0  0  0  0  0  0  0  0
    6.3857    4.3226  -17.0817 H   0  0  0  0  0  0  0  0  0  0  0  0
    3.4370    2.9781  -21.2142 H   0  0  0  0  0  0  0  0  0  0  0  0
    2.0250    3.5374  -19.1593 H   0  0  0  0  0  0  0  0  0  0  0  0
    2.8813    3.8837  -17.6941 H   0  0  0  0  0  0  0  0  0  0  0  0
  1  3  2  0
  1  5  1  0
  2  4  2  0
  2  6  1  0
  3  9  1  0
  4 10  1  0
  5 11  2  0
  6 12  2  0
  7  9  2  0
  7 11  1  0
  8 10  2  0
  8 12  1  0
  9 10  1  0
 11 15  1  0
 12 22  1  0
 13 15  1  0
 13 18  1  0
 13 21  2  0
 14 18  1  0
 14 19  2  0
 14 20  1  0
 15 16  1  6
 15 19  1  0
 17 18  1  0
  1 23  1  0
  2 24  1  0
  3 25  1  0
  4 26  1  0
  5 27  1  0
  6 28  1  0
  7 29  1  0
  8 30  1  0
 16 31  1  0
 16 32  1  0
 16 33  1  0
 17 34  1  0
 17 35  1  0
 17 36  1  0
 19 37  1  0
 20 38  1  0
 20 39  1  0
M  CHG  1  19   1
M  END
>  <OMEGA_C>  (80) 
/sjVQFd1D7/JtbTBgLulQAteg8AJJ5LBzZ/FQJOywL/0ba3BrXC2QLmkSsCab5nBU7TPQEDLUD8A
5rLB1z53QPyhfcCqTI7BHRuoQOPhmD5dmaLBjoRmQBy39b9swpjB7qCuQNoRir/uV6TBV1OdQB4j
BMAAupzB6p+4QDY6oT9H0anBnqJEQL8LOMA1rJHB087KQDSQQ0AP5JzB0OaCQNuCWEBXc5rBpkuz
QC78L0BOM6fBooHBQHUAbkB3OLDB7pGyQJw8ZkD9KIrB/ZqrQIM7XkA7v5XBymKGQPBgQkAdj6TB
9MM4QNXrZ0AdR5XBWPjwQClzOEBSFJvBsPC2P/jyLcAnK43B7vHmQMFMZL+9ubvB3DW5QFXnncBH
hY/Bi9PKQN7MI8Dyy67BUn/WQJhuUsCEg5zBZ7HcQB6bxD/hdLjBQnZdQHz+lcCJwojB90mWQB77
Hz/bq5vBvyNAQC1oib+hK5vBGYC8QNU+mED2nK3B1J3jQOzdY0Bh/LHBdnuuQBKbYUDvdbfB9/CU
QJ51fEA9TobBU6a7QMyWJ0BY2YbB4lfMQKpSikA9p4jBnfhbQJWYPkCVtqnBtpkBQP5jYkA7RpnB
xWc4QAWPeECPjY3B

>  <OMEGA_E>  (80) 
WBIIPw==

>  <OMEGA_NBR>  (80) 
    161338

$$$$
50215938
     RDKit          3D

 46 49  0  0  1  0  0  0  0  0999 V2000
    6.4781   -0.5705  -22.7387 C   0  0  0  0  0  0  0  0  0  0  0  0
    5.3540   -4.0855  -18.2672 C   0  0  0  0  0  0  0  0  0  0  0  0
    6.0435   -1.5296  -21.8068 C   0  0  0  0  0  0  0  0  0  0  0  0
    5.7972   -3.1562  -19.2272 C   0  0  0  0  0  0  0  0  0  0  0  0
    6.3282    0.8033  -22.4666 C   0  0  0  0  0  0  0  0  0  0  0  0
    4.0566   -3.9772  -17.7285 C   0  0  0  0  0  0  0  0  0  0  0  0
    5.2471    0.2556  -20.3540 C   0  0  0  0  0  0  0  0  0  0  0  0
    3.6525   -1.9929  -19.0877 C   0  0  0  0  0  0  0  0  0  0  0  0
    5.4152   -1.1155  -20.6156 C   0  0  0  0  0  0  0  0  0  0  0  0
    4.9496   -2.1024  -19.6336 C   0  0  0  0  0  0  0  0  0  0  0  0
    5.7331    1.2314  -21.2551 C   0  0  0  0  0  0  0  0  0  0  0  0
    3.2024   -2.9383  -18.1492 C   0  0  0  0  0  0  0  0  0  0  0  0
    6.3124    2.8868  -19.4974 C   0  0  0  0  0  0  0  0  0  0  0  0
    4.0838    3.3789  -19.3040 C   0  0  0  0  0  0  0  0  0  0  0  0
    6.0392    5.3267  -23.8339 C   0  0  0  0  0  0  0  0  0  0  0  0
    5.6806    3.9464  -24.3921 C   0  0  0  0  0  0  0  0  0  0  0  0
    5.3842    4.2810  -22.9267 C   0  0  0  0  0  0  0  0  0  0  0  0
    5.6413    2.7090  -20.8451 C   0  0  1  0  0  0  0  0  0  0  0  0
    5.5401    3.7567  -17.2672 C   0  0  0  0  0  0  0  0  0  0  0  0
    6.2981    3.7517  -21.8066 C   0  0  0  0  0  0  0  0  0  0  0  0
    5.3014    3.2413  -18.6203 N   0  0  0  0  0  0  0  0  0  0  0  0
    4.2338    3.0370  -20.5623 N   0  0  0  0  0  0  0  0  0  0  0  0
    2.8846    3.7963  -18.7456 N   0  0  0  0  0  0  0  0  0  0  0  0
    7.5172    2.8547  -19.2707 O   0  0  0  0  0  0  0  0  0  0  0  0
    1.5800   -2.8275  -17.5189 Cl  0  0  0  0  0  0  0  0  0  0  0  0
    6.9289   -0.8887  -23.6671 H   0  0  0  0  0  0  0  0  0  0  0  0
    6.0084   -4.8814  -17.9435 H   0  0  0  0  0  0  0  0  0  0  0  0
    6.1909   -2.5813  -22.0037 H   0  0  0  0  0  0  0  0  0  0  0  0
    6.7854   -3.2492  -19.6529 H   0  0  0  0  0  0  0  0  0  0  0  0
    6.6689    1.5338  -23.1854 H   0  0  0  0  0  0  0  0  0  0  0  0
    3.7165   -4.6909  -16.9927 H   0  0  0  0  0  0  0  0  0  0  0  0
    4.7401    0.5679  -19.4529 H   0  0  0  0  0  0  0  0  0  0  0  0
    3.0057   -1.1828  -19.3908 H   0  0  0  0  0  0  0  0  0  0  0  0
    7.0935    5.6022  -23.6835 H   0  0  0  0  0  0  0  0  0  0  0  0
    5.4703    6.2131  -24.1513 H   0  0  0  0  0  0  0  0  0  0  0  0
    4.8541    3.8413  -25.1103 H   0  0  0  0  0  0  0  0  0  0  0  0
    6.4773    3.2304  -24.6425 H   0  0  0  0  0  0  0  0  0  0  0  0
    4.3296    4.4481  -22.6622 H   0  0  0  0  0  0  0  0  0  0  0  0
    4.5769    3.9617  -16.7772 H   0  0  0  0  0  0  0  0  0  0  0  0
    6.0967    3.0090  -16.6831 H   0  0  0  0  0  0  0  0  0  0  0  0
    6.1261    4.6857  -17.3269 H   0  0  0  0  0  0  0  0  0  0  0  0
    7.1719    3.2769  -22.2769 H   0  0  0  0  0  0  0  0  0  0  0  0
    6.6278    4.6100  -21.2029 H   0  0  0  0  0  0  0  0  0  0  0  0
    3.4950    3.0039  -21.2355 H   0  0  0  0  0  0  0  0  0  0  0  0
    2.0619    3.8514  -19.3115 H   0  0  0  0  0  0  0  0  0  0  0  0
    2.8427    4.0422  -17.7772 H   0  0  0  0  0  0  0  0  0  0  0  0
  1  3  2  0
  1  5  1  0
  2  4  2  0
  2  6  1  0
  3  9  1  0
  4 10  1  0
  5 11  2  0
  6 12  2  0
  7  9  2  0
  7 11  1  0
  8 10  2  0
  8 12  1  0
  9 10  1  0
 11 18  1  0
 12 25  1  0
 13 18  1  0
 13 21  1  0
 13 24  2  0
 14 21  1  0
 14 22  2  0
 14 23  1  0
 15 16  1  0
 15 17  1  0
 16 17  1  0
 17 20  1  0
 18 20  1  6
 18 22  1  0
 19 21  1  0
  1 26  1  0
  2 27  1  0
  3 28  1  0
  4 29  1  0
  5 30  1  0
  6 31  1  0
  7 32  1  0
  8 33  1  0
 15 34  1  0
 15 35  1  0
 16 36  1  0
 16 37  1  0
 17 38  1  0
 19 39  1  0
 19 40  1  0
 19 41  1  0
 20 42  1  0
 20 43  1  0
 22 44  1  0
 23 45  1  0
 23 46  1  0
M  CHG  1  22   1
M  END
>  <OMEGA_C>  (81) 
7EzPQAsOEr/F6LXBtFOrQHK8gsAgI5LBTmTBQI7Lw79adK7B6IK5QFD/ScBi0ZnB/oDKQHmmTT+M
u7PBis+BQAGLfsDl043B5OenQCLbgj7s1KLB38JpQCoW/7+Ls5jBMkmtQMrJjr/L7KTBvmKeQC+N
BsCsEZ3BJnW3QN6dnT+KCqrBfvRMQLYMPMCLMZHBhv/JQJTBOECq+pvBLq6CQJRAWECPbprB5kDB
QIB0qkDKq77BWse1QKKRfED/IsPBVEusQEv+iEDnabfBdIW0QJdfLUC0wqbBbEixQGBtcEBBI4rB
ForJQCIbcED2c67B9KSpQAZyT0Bi9pTBenuHQMleQkCxf6TB/pw4QEj3ckD+9pXBNo3wQAyzNkBd
KprB2jzKP2b1NMDCJozBjrndQHB/Y784Vr3Bl0TAQFI0nMBfjI/B/RvGQIYzJcCPB7DBOSLZQCLz
T8A0OZ3B52fVQGVTxD+/e7nButptQNQblsD38IfB6q6XQMxeET+Vn5vB5V1AQIhml79bIJvBk/3i
QDRFs0Dkd73BkQyvQFHRxkD2NcHBqVSbQHbXdUDs4cjBq0XPQDy/TkDaI8XBG4yKQH9WjkBJTLXB
r3WSQDyNfUCkN4bByBfDQPqSQEADd4XB8gjEQA3xlUB9nYrB+H/lQCy5UUAaN7LBAxfUQIaFk0CU
n6nB5q5fQJNAQEBJ4qnBavYDQHx9dkDafZrBOu81QKVZgUC0N47BofvPQJbuFr8Eq7XBeqxOQLEg
O8BMgZDBxeG/QOQmxb/2dq7B2NpoQA/j/b/YNpjB0azMQN30Rz/3VbPBgd+CQLCEfsD4jo3Brful
QLiLgj7r8qLBx0e4QNgHS8A7O5rBIDerQIpEj78EB6XBKO+cQGnnBsC+Hp3BNky3QDZ/nD9v96nB
k12rQK8pg8D3aZLBRSTKQEIOOUAl+JvBKMCCQEwFWEB7hZrBKbaVQB/goEA9CrvBJB7CQE+OoEBr
WcDBvsWzQDDJdUAYbLnBwfq0QAEwLUAZw6bBD8GwQOFMbUD9B4rBLNzKQId2bEBAn67BT4WpQPBq
TkBA+pTBfz2IQH8xRkC8t6TBqEM4QDomcEAW8ZXB5JrwQCO+NkBwDprBHaTNQNSvrMB2vo7B3/He
QDlhab+TBL3BUk4QQPumNcAM2IzBRFLDQLMEJsBnJrDBdgU/QOdrlb9tYJrBvYnaQDOwwD8TurjB
ZNxxQOsclsCnkofBhpWUQOaZEj/97ZvBKSXXQNiWUcD1B57BqRqPQMXbtkBaXrTB5n5xQDNEnUB1
9b/Be/LEQAq1nEBhEcnBsE3bQJ1MtkBFer3B14erQPwjOkBOnr3B38iRQPG6eUDQJYbBKlzCQNyE
PEANdoXBoozDQChllEB6SIrBhZfrQG6qVUBqKLDB7yTMQMHmlUBiy6rBQ6NiQEAvSUCfSarBEMUD
QCIDdUA9eprB1Rs1QN2rfEA1G47BScXZQBbeE7+td7TBg1OjQEB/g8D5EJLB1Q7KQGDJxL9CQK3B
NVe2QAeYTMA3NZnBu1fRQJ83Sj/IzrLBcphwQJ9UfMCe8o7BI42qQNStdz7ahKLBfp9mQLxn+L/y
9pnBj8OxQEj8j7/UWKTBKWmeQNGcBsCwF53BLqi5QP97mz88vqnBvnBAQDZGN8DK+5LBf1PKQJgp
R0CKU53BKb+CQKwCW0ANQprBg4PnQOhQl0B/v77Bz73xQB5frkDbQLTBMWPjQOT3fkBPFLTB+/Cw
QFwlLEDBJqfBQdK0QPRzdEB3uYrBDTO1QBK4akBjtbDBwyWsQI5mZUBVH5bBFVKEQPBsNUBHoqPB
qkI6QIKKc0B/P5XBlZ3wQEccPEDKqZvB15KqP0W7KsD4Zo/BIl7sQE7hY7+mTrvBZ7m1QGMCnsBR
+Y7BepPQQLiAJcCChq7BAyPXQB9XVcA0tJvBwfvcQPCMwj+ZeLjBYJBTQJKRlMDbdYnB3SyZQNNI
DT9oeZvBZv9BQNpXjb9U85zBoaXKQJXpn0BgTcPB/bkAQcYSj0ASVMTB+YMJQf+ytkD8SrLBmDnc
QM+Jx0BJRLHBieL7QJyUTkDiP7LBLKmXQI4ohkD7zIbBFc++QK0mOEBr7obBNIDOQPUTkkAE6InB
3oSlQNqbk0Cgf67BPp2kQGxcTkAknbfBLJZVQCHhIUAmy6fBHukBQNvMaECby5jBI1Q8QJL9h0AC
Fo7B

>  <OMEGA_E>  (81) 
XBLYPnAl3D5Q5eI+

>  <OMEGA_NBR>  (81) 
    183827

$$$$
50215910
     RDKit          3D

 46 49  0  0  1  0  0  0  0  0999 V2000
    6.7357   -0.5472  -22.6048 C   0  0  0  0  0  0  0  0  0  0  0  0
    3.1051   -2.8621  -18.2087 C   0  0  0  0  0  0  0  0  0  0  0  0
    6.1959   -1.5061  -21.7298 C   0  0  0  0  0  0  0  0  0  0  0  0
    3.6096   -1.9290  -19.1334 C   0  0  0  0  0  0  0  0  0  0  0  0
    6.5514    0.8254  -22.3549 C   0  0  0  0  0  0  0  0  0  0  0  0
    3.9088   -3.9374  -17.7835 C   0  0  0  0  0  0  0  0  0  0  0  0
    5.2456    0.2781  -20.3725 C   0  0  0  0  0  0  0  0  0  0  0  0
    5.7131   -3.1681  -19.2348 C   0  0  0  0  0  0  0  0  0  0  0  0
    5.4534   -1.0937  -20.6044 C   0  0  0  0  0  0  0  0  0  0  0  0
    4.9151   -2.0814  -19.6548 C   0  0  0  0  0  0  0  0  0  0  0  0
    5.7808    1.2541  -21.2462 C   0  0  0  0  0  0  0  0  0  0  0  0
    5.2146   -4.0850  -18.2908 C   0  0  0  0  0  0  0  0  0  0  0  0
    6.3164    3.0271  -19.5952 C   0  0  0  0  0  0  0  0  0  0  0  0
    4.0786    3.3621  -19.2874 C   0  0  0  0  0  0  0  0  0  0  0  0
    5.2731    3.5261  -23.4447 C   0  0  0  0  0  0  0  0  0  0  0  0
    4.9248    4.7606  -22.6086 C   0  0  0  0  0  0  0  0  0  0  0  0
    5.5837    2.7405  -20.9041 C   0  0  1  0  0  0  0  0  0  0  0  0
    5.9633    3.7390  -22.0796 C   0  0  0  0  0  0  0  0  0  0  0  0
    7.4336    4.2239  -22.1116 C   0  0  0  0  0  0  0  0  0  0  0  0
    5.5697    3.6179  -17.2570 C   0  0  0  0  0  0  0  0  0  0  0  0
    5.3211    3.2403  -18.6548 N   0  0  0  0  0  0  0  0  0  0  0  0
    4.1695    2.9375  -20.5268 N   0  0  0  0  0  0  0  0  0  0  0  0
    2.9095    3.8132  -18.6929 N   0  0  0  0  0  0  0  0  0  0  0  0
    7.5127    2.8851  -19.3654 O   0  0  0  0  0  0  0  0  0  0  0  0
    6.2208   -5.3988  -17.7408 Cl  0  0  0  0  0  0  0  0  0  0  0  0
    7.2944   -0.8653  -23.4726 H   0  0  0  0  0  0  0  0  0  0  0  0
    2.1013   -2.7536  -17.8251 H   0  0  0  0  0  0  0  0  0  0  0  0
    6.3499   -2.5581  -21.9196 H   0  0  0  0  0  0  0  0  0  0  0  0
    2.9986   -1.0949  -19.4455 H   0  0  0  0  0  0  0  0  0  0  0  0
    6.9997    1.5559  -23.0119 H   0  0  0  0  0  0  0  0  0  0  0  0
    3.5239   -4.6491  -17.0682 H   0  0  0  0  0  0  0  0  0  0  0  0
    4.6688    0.5911  -19.5147 H   0  0  0  0  0  0  0  0  0  0  0  0
    6.7067   -3.2957  -19.6384 H   0  0  0  0  0  0  0  0  0  0  0  0
    4.5347    2.7198  -23.5663 H   0  0  0  0  0  0  0  0  0  0  0  0
    5.8500    3.6382  -24.3746 H   0  0  0  0  0  0  0  0  0  0  0  0
    5.2531    5.7576  -22.9376 H   0  0  0  0  0  0  0  0  0  0  0  0
    3.9378    4.8392  -22.1293 H   0  0  0  0  0  0  0  0  0  0  0  0
    7.8058    4.3356  -21.0826 H   0  0  0  0  0  0  0  0  0  0  0  0
    8.0509    3.4873  -22.6468 H   0  0  0  0  0  0  0  0  0  0  0  0
    7.4887    5.1932  -22.6286 H   0  0  0  0  0  0  0  0  0  0  0  0
    4.6105    3.7235  -16.7290 H   0  0  0  0  0  0  0  0  0  0  0  0
    6.1732    2.8386  -16.7685 H   0  0  0  0  0  0  0  0  0  0  0  0
    6.1120    4.5745  -17.2267 H   0  0  0  0  0  0  0  0  0  0  0  0
    3.3901    2.7710  -21.1308 H   0  0  0  0  0  0  0  0  0  0  0  0
    2.0571    3.8301  -19.2156 H   0  0  0  0  0  0  0  0  0  0  0  0
    2.9189    4.1216  -17.7417 H   0  0  0  0  0  0  0  0  0  0  0  0
  1  3  2  0
  1  5  1  0
  2  4  2  0
  2  6  1  0
  3  9  1  0
  4 10  1  0
  5 11  2  0
  6 12  2  0
  7  9  2  0
  7 11  1  0
  8 10  2  0
  8 12  1  0
  9 10  1  0
 11 17  1  0
 12 25  1  0
 13 17  1  0
 13 21  1  0
 13 24  2  0
 14 21  1  0
 14 22  2  0
 14 23  1  0
 15 16  1  0
 15 18  1  0
 16 18  1  0
 17 18  1  6
 17 22  1  0
 18 19  1  0
 20 21  1  0
  1 26  1  0
  2 27  1  0
  3 28  1  0
  4 29  1  0
  5 30  1  0
  6 31  1  0
  7 32  1  0
  8 33  1  0
 15 34  1  0
 15 35  1  0
 16 36  1  0
 16 37  1  0
 19 38  1  0
 19 39  1  0
 19 40  1  0
 20 41  1  0
 20 42  1  0
 20 43  1  0
 22 44  1  0
 23 45  1  0
 23 46  1  0
M  CHG  1  22   1
M  END
>  <OMEGA_C>  (82) 
NIvXQBsVDL+s1rTBMblGQEItN8Bpq5HB60TGQHHIwL+71q3BxgNnQJvp9r9FEZnBsqTRQAlOUz/E
1rLBECl6QKX9e8CYRI7ByNunQG5kjj7h+qLBFNK2QN7CSsD44JnBI4KuQEv9i7/b1aTBsEidQG02
BcANPZ3BtPy4QFmGoD81+KnBTd6mQAa4gsCeU5LBmh/KQDe8QUD7wpzBKYSCQFssV0CFTJrB2ryo
QCurYUDRjrvBAZidQA9XmEBu3rTBza2yQNBjL0CoO6fBGtO+QN5Lb0Ado7DBqt/tQPMph0Ck5LDB
OjuyQAuMZ0BeDorBy0aqQGJgT0AaPZXBz2yFQKoAPED5NqTBzDQ6QMILdEAXi5XBOWjwQCKmOEBg
7JrBqxDHQJ/CrMAj7Y3BzWvpQCiGXb/vx7vBGHwGQK46MMDQmY7BPzLLQPa3I8BpW6/Boeg/QKsm
jL9NkJvB6/3fQHkoxz9gGLjBVodhQH7FlMCei4jBFmeVQFZUFz8mHpzBop3WQMLsUsCKG53BqRyR
QKIQLkDCh7zBHDO7QB/YaEAZ/8LBJxmoQHc+uEA2gLfBZwV8QLjamkDfCLHBSsn5QD+9ikAoqajB
SdAAQa4vX0CgLLXBH6PvQAUvpkB0B7XBWYmTQMZNbkAQ1YXBiIrFQF+sNUD9JYbB55XDQABikkA3
0InBMfdYQPZXMUDRC6nBQKcDQCcgdUBzuZnBy886QCvkg0AB743BKHnXQFqRDL9HxLTBtRymQP0h
g8DPTpLB0KPGQKRkwL8lqK3BMde2QGPXSsCnrJnBA4nRQPw5Uz981rLBZQ54QBuxfMDico7Bmnqo
QGvNkz5S1aLBoF1nQObT9b/1FpnBdDavQFjeir/YnqTBAL+dQMeSBMBPC53BsT65QDBKoT+d7anB
cHdFQMxhN8CA6pHBlIbKQF16Q0AR5JzB7b2CQNTWV0B3U5rBV1CoQM9WYUCeprvBuM6cQHUbmEAJ
+rTBi8+yQEPwL0CuSafB1Xe+QDSib0CVwbDBbFbtQAnSh0AtE7HBUgSzQL6dbEDyPIrB9+eqQDPK
U0CiZJXBopyFQJcTPEDDNqTB+uQ5QKlkcUC7d5XBQrfwQKDsOEAVDJvBmHW4P6TPLMAWc43B7Avp
QC1QX78WvrvB2o25QFeZncCunY/BWKjLQLeTI8BXHq/BeeDWQBb4UsCMwJzBdJPfQLmdxj8hLrjB
Zk5eQMM8lcA31YjBJkCWQB9BGz928pvBWgBBQH32ib+WlJvBwPeQQFkwLUDalrzBcqK6QE/MaEBd
G8PBfOqmQKAauECRorfBk396QKVMmkAOHrHBglv5QHGci0C826jBj6EAQd7SYEC2XLXBh7PuQMfP
pkDTO7XBTFyUQGiSdUCYD4bBEofFQMUKOkAJO4bBWT/FQG5plED8EYrBnztZQOm3MEDKAKnBxdwC
QHRYb0Avi5nBeWs6QA7vgkBv443Bc3PTQORsEL96J7XBzPWoQKpig8D1OJLBvMbEQPjxwL/4r63B
4qO4QGDqScACi5nB2yfNQDpJTz/iWbPBaeJ9QL+Qf8B8P47BzDyoQPJylz6mrKLBnEVpQJYa+r86
qJjBn8quQHZVir+hdKTBT5ueQJqABMA1vZzB5Na3QNE9oT9DA6rB4mJJQNwgO8DPipHBdUzKQFU9
QEAdt5zBYYqCQMLkWEBKcZrByiTbQLqJoECV+a3B6gjxQIy4dUC+p7PB4CmzQPdSMEA1SafB11LB
QPtrb0D3jLDBlS6gQBA2eUDerbnBmAyyQHiSaUAzH4rBgmqqQHsZU0AZYJXBECWGQChiQkAkhqTB
msU4QNAFcEBljpXB32PwQHF5NUAtyJrBFlHAPxkBNMDE94zBh6TjQMEuZb8hULzBnyW9QPZ8ncB9
p4/BwFbKQKfaI8DxBK/B7Z3YQJtGUMAEuZzB2afYQN+Qwz/eILnB4KtlQCxAl8CWrIjB7h2XQEK2
Hj+hoZvB+IdBQMNfj79D/5rB62njQBQqqEDuoqXBa7DUQHNVvkCsX7LBnD76QKJhe0CCHrzBDnwE
QeYKT0DEYa/BpIOPQHH9O0DT6LrBHcmIQFNxlUB2hLfBs7OwQDrehUDHGMHBWESTQGhjdUAFHobB
cbjCQBmFNEBCHIbBNePFQB/RkUAutonBOVBbQIYOPkA2panB6FkCQIBCcEAmxJnBgjI4QC86gEAi
043BwAvUQKoDD79TN7XBXFlIQH34NcAMQJHBrLTEQDalwL9y163BUk9oQEzp87+8oZjB8PfNQB0O
UT+tYLPBpbJ7QL4/e8BX+43BtvKnQC4zmD754KLBpDq3QGXiScBGs5nBe1KuQKgRir8aqqTBJLed
QOzUA8A07JzBvRG4QBamoT8NHqrBGmqnQC96gsBnK5LBGVrKQL4lP0Daq5zBPJSCQBaYVkBuaZrB
wMzaQEo/oUBXr63BS8XxQIAteECdVrPBBXazQKxQMEAdTafBIOjBQF4lcEADd7DBCXShQABoeUCL
wbnBgRWyQCUoakDmL4rB2UqqQI2DT0CQSZXB2miGQCVJQkCckKTBDtg4QDSIbUB6g5XBQ53wQLDK
NkAtxJrBElfHQJsfrcCBAo7Bl5TkQK11Y79TVLzBS2gIQJLjLsA1F47BSBDKQPe6I8B2NK/BtEBB
QHp4iL8iBpvBWxPaQLiuxD/tD7nBpVZjQMF7lMD8QojB6ICWQN7zHj9S4pvBjODWQGEgUsDfA53B
KU3iQMW9qEAvS6XBdyvUQDUSv0AvDrLB1pD7QO+tfkBpwLvBRNkEQQ4FUkBp/a7B2GeRQFi4O0Bc
IbvBVXiJQMgUlUDIq7fBFW6yQBR4hkBtEcHBlVCTQBzackCvDYbB5+TEQK+wOECEDYbBBOTDQBJx
k0AxJIrBQiFcQE5kP0CUvqnBg68CQFxmb0ARxZnBYwA4QC4yfEAkuo3B

>  <OMEGA_E>  (82) 
JFLgPoho4T7wgOE+YDXjPg==

>  <OMEGA_NBR>  (82) 
    178631

$$$$
50215978
     RDKit          3D

 52 55  0  0  1  0  0  0  0  0999 V2000
    6.7737   -1.2708  -22.9202 C   0  0  0  0  0  0  0  0  0  0  0  0
    5.0567   -4.9298  -18.7872 C   0  0  0  0  0  0  0  0  0  0  0  0
    6.2474   -2.1972  -22.0037 C   0  0  0  0  0  0  0  0  0  0  0  0
    5.6141   -4.0244  -19.7101 C   0  0  0  0  0  0  0  0  0  0  0  0
    6.7548    0.1039  -22.6270 C   0  0  0  0  0  0  0  0  0  0  0  0
    3.9845   -4.5317  -17.9652 C   0  0  0  0  0  0  0  0  0  0  0  0
    5.7060   -0.3746  -20.4839 C   0  0  0  0  0  0  0  0  0  0  0  0
    4.0210   -2.3185  -18.9877 C   0  0  0  0  0  0  0  0  0  0  0  0
    5.6935   -1.7512  -20.7832 C   0  0  0  0  0  0  0  0  0  0  0  0
    5.1027   -2.7093  -19.8175 C   0  0  0  0  0  0  0  0  0  0  0  0
    6.2455    0.5721  -21.3889 C   0  0  0  0  0  0  0  0  0  0  0  0
    3.4668   -3.2258  -18.0659 C   0  0  0  0  0  0  0  0  0  0  0  0
    7.4076    2.7775  -21.7281 C   0  0  0  0  0  0  0  0  0  0  0  0
    5.4860    3.5867  -22.6901 C   0  0  0  0  0  0  0  0  0  0  0  0
    4.5969    4.9878  -18.9217 C   0  0  0  0  0  0  0  0  0  0  0  0
    6.0283    4.9922  -19.4875 C   0  0  0  0  0  0  0  0  0  0  0  0
    3.8102    3.7251  -19.3198 C   0  0  0  0  0  0  0  0  0  0  0  0
    6.7753    3.7195  -19.0548 C   0  0  0  0  0  0  0  0  0  0  0  0
    4.5936    2.4199  -19.0128 C   0  0  0  0  0  0  0  0  0  0  0  0
    6.0795    2.4070  -19.5309 C   0  0  0  0  0  0  0  0  0  0  0  0
    6.1978    2.0897  -21.0952 C   0  0  2  0  0  0  0  0  0  0  0  0
    7.6774    4.6535  -23.4047 C   0  0  0  0  0  0  0  0  0  0  0  0
    6.8893    3.6369  -22.6903 N   0  0  0  0  0  0  0  0  0  0  0  0
    5.0761    2.6396  -21.8761 N   0  0  0  0  0  0  0  0  0  0  0  0
    4.6363    4.3977  -23.4342 N   0  0  0  0  0  0  0  0  0  0  0  0
    8.5909    2.5707  -21.4781 O   0  0  0  0  0  0  0  0  0  0  0  0
    2.1327   -2.7301  -17.0524 Cl  0  0  0  0  0  0  0  0  0  0  0  0
    7.1941   -1.6163  -23.8531 H   0  0  0  0  0  0  0  0  0  0  0  0
    5.4522   -5.9317  -18.7094 H   0  0  0  0  0  0  0  0  0  0  0  0
    6.2665   -3.2524  -22.2331 H   0  0  0  0  0  0  0  0  0  0  0  0
    6.4356   -4.3348  -20.3388 H   0  0  0  0  0  0  0  0  0  0  0  0
    7.1318    0.8104  -23.3517 H   0  0  0  0  0  0  0  0  0  0  0  0
    3.5592   -5.2280  -17.2577 H   0  0  0  0  0  0  0  0  0  0  0  0
    5.2956   -0.0340  -19.5448 H   0  0  0  0  0  0  0  0  0  0  0  0
    3.6203   -1.3185  -19.0637 H   0  0  0  0  0  0  0  0  0  0  0  0
    4.6510    5.0385  -17.8242 H   0  0  0  0  0  0  0  0  0  0  0  0
    4.0637    5.8709  -19.3037 H   0  0  0  0  0  0  0  0  0  0  0  0
    5.9846    5.0319  -20.5859 H   0  0  0  0  0  0  0  0  0  0  0  0
    6.5655    5.8747  -19.1098 H   0  0  0  0  0  0  0  0  0  0  0  0
    2.8626    3.7083  -18.7614 H   0  0  0  0  0  0  0  0  0  0  0  0
    3.5993    3.7655  -20.3986 H   0  0  0  0  0  0  0  0  0  0  0  0
    7.7909    3.7496  -19.4764 H   0  0  0  0  0  0  0  0  0  0  0  0
    6.8345    3.7052  -17.9565 H   0  0  0  0  0  0  0  0  0  0  0  0
    4.6100    2.2786  -17.9221 H   0  0  0  0  0  0  0  0  0  0  0  0
    4.0596    1.5811  -19.4832 H   0  0  0  0  0  0  0  0  0  0  0  0
    6.5831    1.5784  -19.0116 H   0  0  0  0  0  0  0  0  0  0  0  0
    7.0274    5.1944  -24.1082 H   0  0  0  0  0  0  0  0  0  0  0  0
    8.1036    5.3628  -22.6800 H   0  0  0  0  0  0  0  0  0  0  0  0
    8.4907    4.1632  -23.9599 H   0  0  0  0  0  0  0  0  0  0  0  0
    4.1277    2.3326  -21.7973 H   0  0  0  0  0  0  0  0  0  0  0  0
    3.6457    4.2778  -23.3680 H   0  0  0  0  0  0  0  0  0  0  0  0
    5.0158    5.1008  -24.0355 H   0  0  0  0  0  0  0  0  0  0  0  0
  1  3  2  0
  1  5  1  0
  2  4  2  0
  2  6  1  0
  3  9  1  0
  4 10  1  0
  5 11  2  0
  6 12  2  0
  7  9  2  0
  7 11  1  0
  8 10  2  0
  8 12  1  0
  9 10  1  0
 11 21  1  0
 12 27  1  0
 13 21  1  0
 13 23  1  0
 13 26  2  0
 14 23  1  0
 14 24  2  0
 14 25  1  0
 15 16  1  0
 15 17  1  0
 16 18  1  0
 17 19  1  0
 18 20  1  0
 19 20  1  0
 21 20  1  1
 21 24  1  0
 22 23  1  0
  1 28  1  0
  2 29  1  0
  3 30  1  0
  4 31  1  0
  5 32  1  0
  6 33  1  0
  7 34  1  0
  8 35  1  0
 15 36  1  0
 15 37  1  0
 16 38  1  0
 16 39  1  0
 17 40  1  0
 17 41  1  0
 18 42  1  0
 18 43  1  0
 19 44  1  0
 19 45  1  0
 20 46  1  0
 22 47  1  0
 22 48  1  0
 22 49  1  0
 24 50  1  0
 25 51  1  0
 25 52  1  0
M  CHG  1  24   1
M  END
>  <OMEGA_C>  (83) 
D8LYQHypor+dXLfBoNChQJPAncA8TJbBs+rHQKWfDMCrB7DB2aazQI/HgMBIrp3BlSfYQBTN1D0p
BLXBygF/QKgDkcDJuI/BuZe2QGrOv74U36PBMqyAQK1hFMDD5pfBfjG2QOsm4L/5Q6bBTkmjQM9l
LcA8ip7BRtvHQAV4Ej9gHKvBv+BdQNByTsDkhpDB/wrtQNnCMUAP063BPI2vQP6LZUBJhbXBrxmT
QCGcn0CtX5fBF+jAQO+/n0B05pvB7NlzQNdobkDrjprBV8/YQMgLbkArcJjBJf+SQIzfGkBKGpjB
povCQBENGkBSP5zB+FPGQKG9BUAEw6jB5Kz1QB3plEDTPLvBxnTcQMLDaEC8hbXBzm+iQMjuKEBI
Aq/BR1yUQNy5jEA6ebvBJnQJQQWHJEAy06vBrn0IQKi5LsA/a4jBQzbmQM/hzr8t077BNniuQMTQ
vcDbrJXB1YbIQNknUMBw3bHBKPDNQMy2isDStaLBEjjkQOd3Tz820LrBzcljQOlLp8CrD4rBsHWp
QLtvC727W5zBTrJnQD/DqL+CgpjBYtWUQHk7oUABmI7B6QmCQDveu0D8bZrBnYG/QAMFoUABsKTB
NxjSQJj9u0D24JjBGjU3QPpUbUBAF5bBGFtmQJ39cEBlMKPBr075QCr6b0Ciz5vBorTaQMIhbUDU
po/Bt4STQAzVEUBlYI/BK+iBQANjyj+y3ZvBJKnSQIIIyj+7F5jBieDgQHU4pkCp3cDBg6gBQeWb
q0C2cLXBw9kHQVU5hUDVrb/BEBaEQL1JFUDRYK7B4lJpQOrjiECn8brBB4GgQNg5o0DESMDBukXx
QB80j79GQbTBNsOmQLfRj8DBtZPBxJbcQFXUAMCTSK3BGpe7QHi9Z8As2ZrBoIzmQDqJfD5oLrTB
2r54QCCPh8BJfpDBHwWxQGLmPL4WdabBzMV2QHnHDsDtlZvBAB68QKySxr9kVKbBUhSmQMO7HsAm
357BQjPHQGxvPT+MAa3BDndNQI2WRsBLbJTB4g7iQA/CRkBTCbDBHZisQFNoV0C0cbzB2l+nQPMY
i0BNuI3BL7CzQBLANkAwf43BkKeIQA7DlEDbE5fBpbLHQAnrG0A+NZjBOk2cQPE7h0CF36HBhXeo
QMXsLUDAw6HBEcW7QIR4D0CK1azBJ0LxQAzMlUDBWr/BA93UQDVhdECi+LjBJ/ycQPakH0B7kLXB
cImXQHtVckAmpsXBR5cCQbhuSkAgrqvBDHzIP4zRMcDpeZDBXb8EQXK5vb9KsLnB3VS3QAumq8AQ
spDBM4rlQA6XQ8CoPa3BQyPcQByadMCsRJ3B5lH2QPiabD/5obnBNO5YQNYHncCnA4vBAByXQFTP
Jz4Nd6HB0TdVQI3Err+Ymp7BupGXQEJ5k0APJIbBrIrEQM9wnkANqY7Bxe3KQJLHK0AKCIfBFNeW
QJImEEAbCIzBBTVVQDYeg0D51ZXBm/yBQAtRt0CiQ5fBjHLlQGk3QEC5cpnBxvvOQPskrj+X9JfB
LeKEQLz/jEB2SKjBxTq5QA9emkA8YKPBlQuLQP/2CEBNWqDBzgLfQDYmpEAj+MXBwk3+QANPr0A+
PrrB0tcFQfmOgkBtnsLBNjeAQDIMBEBcLLbB6R51QL4VW0A4Z8fBEV+lQP14jkCQg8rBUtfZQPAR
er8SzbfBkv6lQMzgjsAU8ZXBN7HIQNQe7L9UKLDBm7i2QJJLY8B8Zp3B6kfYQHA7zz60I7bBNxuC
QOizg8DBwY/BkkyyQMCDjD36W6XBstF/QLif9r85ZpjBwxC1QE7Bqr+q1abBkrijQDyeEcAgwJ7B
XxvFQLp2dT8P1qzBEU1eQJA4NsCc+JDBk1vuQKWwRUAPJq/BSoq9QC6LWkC8YLzB0AaPQMwYWUDg
nIvBwANuQJ9UekCpfpXBgtS/QBPrXkBwJY3Bm4yDQOwKR0BLa5/BxmvOQObfLUBQJZfB59a0QBLc
S0CGL6HBUFTDQGdeIECZ36vByDgFQU0Dc0A678DBBbnnQIt8akCiHbnBq8emQJ86P0D4ULTBukSu
QJgxXEDOwMbBPoIIQUwlOEAa36rBRQEFQPbfGsC0UYnBy0foQOm/r7+A+77BabS0QLHnrcCA9pTB
Q3XKQMFiOsAKY7HBn0TSQELBdMC0I6LBx/PlQOlfiD/sDrzBASpqQP4/msBpE4rBFbOhQAVT7T6b
eJ7BFc1iQFvNc7+hQJnBh9GFQA+zf0B+n4TBLyeGQDXeFUAtPIrBA7YoQGwTdEDvKJTBuix+QGUM
n0AFw5bBLvHIQOdKkUCq/I3B/b/PQJuLQ0AxFYbBIxR0QCDTA0ALVJ7BpS1mQIehYUCzc6bB+rjw
QF+eOUC8d5jBfwnJQOAE0j/U6JXB/EG8QJghiEBRIaLBxiX+QKfeiEAgO8jB1xgSQe05jUDZg73B
P4YLQfE7M0AV7MLBrc+GQFFdP0CK9rPBJZeQQJbiR0AZVsjBvuXAQDeycUAtrczBNZbcQLThd79n
XrfB9eFaQGziNcCibJHBWFfKQADt6r9m46/BfZp9QJTy9b8TxJjBPDfbQJBi0z6JpbXB4NaAQEk4
g8D1+I/BE2azQMBBnj1tI6XBGBS3QKCIYcA+LZ3BMwK2QARWqb/2qqbBM7ajQACrEMA3v57BXQDH
QCaWdz+/d6zB/7WlQIAIjsCQ2ZXBWHDrQHMtS0Cuvq/BBN+3QLuiUkCPgrzBGZ2RQD8qWECsNovB
GZpvQDoUeUDl1JTB4f7BQD5NYUCKLo3Bw6SDQBrJR0Cg+p7Bxa3PQEVTMEDpQJfBPsW0QCc8TUBI
GaHB0ozCQIOtIEAXzKvBoFoBQUqzdkAOBsLBl7bhQF3IakAk0bnBqXWjQJd4OECnAbTBriSnQDUa
TUBwuMbBsH0HQciqR0BrnKvB/h2+QDS7v8BiGZTB17brQCKIrr/odr7BDmYiQENEJcD+5YzBHMrL
QFLEOcBXKbHB0N5fQLendL+P1ZnBz9fpQEJwiT9da7vBudtmQPfJmcB0WorBCU6iQBMB8T4cUp7B
Om7TQPhYcsDkpaHBEc6IQIBbfUDiEoTBCfuJQJRCFED744nByOoqQPGmcECyNpPB2nV9QDe3nkDt
B5bBaNTJQO66kkCpMI7Bom7TQHKdR0CMPobBPtZ0QKRIBEBOBJ7B4sZkQFByY0Bb06XBtrrxQKXj
PEBf1pjBwOLKQM+/1j8t8ZXBS9S7QJfSiEDiMaLBv/bzQCcjiEDfWMnBn34NQYP3kUBdFr/B4fcI
QbzTOEDcysPBgaaDQNA6NUDkO7PBZAuKQHgVNEAt3MfBIyO4QOgdYkAv+MzBZTTVQPD2nr/o07jB
qMekQAXXlcCyqZXBUUzFQJn5B8C4BbHB7L60QELndMDUqp3BHCrUQD67Fj5QEbfBiE2DQPUjiMBv
8I7BAwq0QF2Jar4RlaXBWICBQGwhB8BCOZjBU2q0QMZtz7+/VqfBO0+jQO4EIsD/AZ/BzjnDQIqQ
LD/jb63BclZjQKj5PcBuOZDBxQrvQNnSMUC5TazB/krHQNbaakDd87nBm1KZQOBpikBa3I3Bniqt
QPzgOkBZ64zB/up4QJewjUBu1JfB3A3GQFCwJEA0IJfBD1WVQHNqgkCDHKLB+c+oQDCcKUD2TaHB
YMXBQPAHDUDqzqvB2QsKQUgIj0CUErjBIgzuQHF+b0ClRrTB64CtQBwBM0AQZbXBhAq9QBgHjUDW
BcPBlCQHQU8FHEA0BKfBLQ8QQDfLG8Bj7ofB2UHiQBjc0L/uMcDB9juyQIdttcAXrZTBdPzFQOAn
TMBubrLBfWfOQFgehcD0zaLB/mLgQPteUT+FHL3BXlBuQKAyncA/zIjB5+6nQMERID6UGZ7BUqZn
QERIkL+pNJnBCA+GQHrxkEDBrYbBQCKzQPY3okAIe47BExbDQEFeOUBSCYbBe4eTQJaWC0CeuovB
XuRCQMfMbkAf8pbBCH9gQBaZrkCWfZjBUa/gQKwiUkBPC5jBfNPSQLGyxj+NZJbBy8h+QCKyg0BD
/KjBNkWvQObDmUA3QqPBa0iOQFOK+D+cJqDB6VsFQV+bpUCfZ77BhjoRQdLFoECyX7HBtsQVQZQ4
cEArRrvB7zqQQH5JJEAnDbjBvHugQABTiUDzgsbBIznSQNO1oUA/D8bBf4HkQPu1pr9+4bbBA2yj
QM/vlMBe4ZTBns3RQKLbCsAzXq/BK2i3QCehc8D7W5zBSCjgQKEWuD1Iv7XBV7J6QLgDiMCOyY/B
0Ea3QE8Jf76nZqXBTBt+QHNtCcBhpZnBO3+6QIaz0r/LoqbBL3ClQJLSIsBTzJ7B/jXKQM+xIz9z
16zB8FZWQHrKP8DTLJLBxOPsQNvVN0AsL7DBu1GyQOQoYEB9C7rB+16SQNXAi0B6Fo/BhsDCQPCa
jUCjY5HBltd/QNzSPkBk4JHBebrMQPWOgUDiE53BiF2JQEXUKEBJoJ3BVca6QMOsKED33Z/BqyrF
QJv3CkBpxKvBu8H5QHAtkUAwEL/BbO/dQNcVb0BlDbjBg2+jQNEwJ0D+QbPBzciZQN6jg0Bs7sHB
7gEJQc1fLkASNq3Bpk/vPxOoH8Db6ovBFUf2QBt72r8VjL3B3FCxQJS3s8BnC5PBbUHVQC1AT8Cw
RbDBX5LUQIvjg8A9QKDBb6jtQCpDPz8At7vBpS9cQJXfnMDtDIrBpAKmQC/SGz7Jo57Bvv5hQIb5
l7/Ed5vBGeeMQGw6kkDzi4bBugiCQNc1pEAs7JPBIFDOQH9JrkDe3I/BqVXTQJI1bkBOCozBQKKO
QJJBDkDVrIzBKDA6QOxhP0DMmZDBEAq+QMtZmUBXbKLBDp7vQCOLgUCwPp7B96Z4QFET0j9gbJ/B
R+pzQLyqWECwzqLBUqTJQAdd9D9MZ5rBO+/lQBM8pECmjsTBRsUGQUGzpkBqKbrBcE0HQaqEd0AL
tsPBH0eFQH7MEUA6LbPBUZd1QNWFeEAIscLBsiCnQCkWmUDV18bBMcj1QNNvlb/1PLPBviGLQGjx
l8AAoJrBAtrfQOq4A8CYeqzBOGmhQBsSeMD3faHBdO3qQKywST4UXLPBP1x0QIOuiMB46JDBAo6y
QG2kbL5GW6bBh8iVQN7cAsCc4ZTBcRC+QDXny79f86XBP9WmQN/5IMDZsp7BXAnKQDAfMT/SoazB
IxZ/QPrcOsCRCI7B9yrlQO26Q0AHd6/BxSOyQCZhU0DSg7zBGvijQLIeikAg8o3Ba1GwQOXaNEDx
gY3B0QKHQGmAk0BoqpfBcFrGQFeXGUCZ85fBeKacQK68hUCbM6LByfOoQEYBK0AC4aHBw2S+QKVF
DEAWsKzBECX3QJX0k0ACqb7BYKPZQOfRcEA0lbjBfk+hQOTOG0DFyrXB+dmeQD+6bUCq+8XBLbQD
QUbrR0DusarBcHJVQMfrFMBj9YHBUIcHQdguxL/8WrjBTAiHQK4fucA70JzB7dnoQBBwRsCARqzB
AGyuQEPqh8DO7KjBqsf7QJB1Xz9xnrjBEyFSQDElnsDUqIvBzVmXQCXP6j1DzaHBteKZQGgzgb+S
pZLBU8CSQPujkkBqkobBkj7BQKWAnUDtko7B1FLGQMlJKkB0xIbB8EKTQNQzDkDrWozBSJFRQOPX
gUDtvpbBr1eAQG4KtkDV+5fBekXkQPXzPUDj3ZjBEaXNQAOUqT+Xj5fBq2eGQNk/i0B/4ajBaMK5
QN/umEDvZ6PBSVuLQMjjBUDiy6DBASbmQJwVokBZgsXBcI4BQZCirUAXcLnBUB0JQeG5gECYksHB
Hr6EQDjt/z+aurbBlEqCQAwuVkD2EcjBTYqtQKEcjECAtMrB

>  <OMEGA_E>  (83) 
MY6IP2DXiT+wR3c/VCd9P9iCgz+miYc/7wGPPw==

>  <OMEGA_NBR>  (83) 
     65624

$$$$
50215995
     RDKit          3D

 46 49  0  0  1  0  0  0  0  0999 V2000
    6.6540   -0.5169  -22.7217 C   0  0  0  0  0  0  0  0  0  0  0  0
    3.1193   -2.7981  -18.2676 C   0  0  0  0  0  0  0  0  0  0  0  0
    6.1746   -1.4701  -21.8064 C   0  0  0  0  0  0  0  0  0  0  0  0
    3.6272   -1.8784  -19.2034 C   0  0  0  0  0  0  0  0  0  0  0  0
    6.4648    0.8599  -22.4859 C   0  0  0  0  0  0  0  0  0  0  0  0
    3.9331   -3.8480  -17.8007 C   0  0  0  0  0  0  0  0  0  0  0  0
    5.2936    0.3264  -20.4241 C   0  0  0  0  0  0  0  0  0  0  0  0
    5.7532   -3.0831  -19.2365 C   0  0  0  0  0  0  0  0  0  0  0  0
    5.4787   -1.0464  -20.6583 C   0  0  0  0  0  0  0  0  0  0  0  0
    4.9454   -2.0206  -19.6946 C   0  0  0  0  0  0  0  0  0  0  0  0
    5.7839    1.3047  -21.3239 C   0  0  0  0  0  0  0  0  0  0  0  0
    5.2504   -3.9867  -18.2814 C   0  0  0  0  0  0  0  0  0  0  0  0
    6.3281    3.0301  -19.6142 C   0  0  0  0  0  0  0  0  0  0  0  0
    4.0866    3.4067  -19.3134 C   0  0  0  0  0  0  0  0  0  0  0  0
    6.5473    4.7676  -23.7081 C   0  0  0  0  0  0  0  0  0  0  0  0
    5.3268    3.9123  -23.3120 C   0  0  0  0  0  0  0  0  0  0  0  0
    7.2867    4.1407  -22.5045 C   0  0  0  0  0  0  0  0  0  0  0  0
    5.8853    3.9846  -21.8811 C   0  0  0  0  0  0  0  0  0  0  0  0
    5.5923    2.7873  -20.9155 C   0  0  1  0  0  0  0  0  0  0  0  0
    5.6009    3.7437  -17.3045 C   0  0  0  0  0  0  0  0  0  0  0  0
    5.3582    3.4550  -18.7224 N   0  0  0  0  0  0  0  0  0  0  0  0
    4.1804    2.9575  -20.5424 N   0  0  0  0  0  0  0  0  0  0  0  0
    2.8966    3.7951  -18.7191 N   0  0  0  0  0  0  0  0  0  0  0  0
    7.5346    2.9316  -19.4188 O   0  0  0  0  0  0  0  0  0  0  0  0
    6.2613   -5.2792  -17.6921 Cl  0  0  0  0  0  0  0  0  0  0  0  0
    7.1712   -0.8419  -23.6123 H   0  0  0  0  0  0  0  0  0  0  0  0
    2.1059   -2.6989  -17.9077 H   0  0  0  0  0  0  0  0  0  0  0  0
    6.3394   -2.5227  -21.9832 H   0  0  0  0  0  0  0  0  0  0  0  0
    3.0091   -1.0622  -19.5471 H   0  0  0  0  0  0  0  0  0  0  0  0
    6.8412    1.5817  -23.1956 H   0  0  0  0  0  0  0  0  0  0  0  0
    3.5475   -4.5474  -17.0737 H   0  0  0  0  0  0  0  0  0  0  0  0
    4.7650    0.6434  -19.5373 H   0  0  0  0  0  0  0  0  0  0  0  0
    6.7563   -3.2029  -19.6183 H   0  0  0  0  0  0  0  0  0  0  0  0
    6.9793    4.5244  -24.6900 H   0  0  0  0  0  0  0  0  0  0  0  0
    6.3899    5.8538  -23.6355 H   0  0  0  0  0  0  0  0  0  0  0  0
    4.3508    4.3989  -23.4559 H   0  0  0  0  0  0  0  0  0  0  0  0
    5.3023    2.9043  -23.7517 H   0  0  0  0  0  0  0  0  0  0  0  0
    7.8099    3.1970  -22.7184 H   0  0  0  0  0  0  0  0  0  0  0  0
    7.9633    4.8213  -21.9668 H   0  0  0  0  0  0  0  0  0  0  0  0
    5.5790    4.9275  -21.4045 H   0  0  0  0  0  0  0  0  0  0  0  0
    4.6616    4.0618  -16.8285 H   0  0  0  0  0  0  0  0  0  0  0  0
    5.9765    2.8384  -16.8051 H   0  0  0  0  0  0  0  0  0  0  0  0
    6.3469    4.5472  -17.2165 H   0  0  0  0  0  0  0  0  0  0  0  0
    3.4032    2.7594  -21.1397 H   0  0  0  0  0  0  0  0  0  0  0  0
    2.0403    3.7413  -19.2327 H   0  0  0  0  0  0  0  0  0  0  0  0
    2.8942    4.1291  -17.7765 H   0  0  0  0  0  0  0  0  0  0  0  0
  1  3  2  0
  1  5  1  0
  2  4  2  0
  2  6  1  0
  3  9  1  0
  4 10  1  0
  5 11  2  0
  6 12  2  0
  7  9  2  0
  7 11  1  0
  8 10  2  0
  8 12  1  0
  9 10  1  0
 11 19  1  0
 12 25  1  0
 13 19  1  0
 13 21  1  0
 13 24  2  0
 14 21  1  0
 14 22  2  0
 14 23  1  0
 15 16  1  0
 15 17  1  0
 16 18  1  0
 17 18  1  0
 19 18  1  6
 19 22  1  0
 20 21  1  0
  1 26  1  0
  2 27  1  0
  3 28  1  0
  4 29  1  0
  5 30  1  0
  6 31  1  0
  7 32  1  0
  8 33  1  0
 15 34  1  0
 15 35  1  0
 16 36  1  0
 16 37  1  0
 17 38  1  0
 17 39  1  0
 18 40  1  0
 20 41  1  0
 20 42  1  0
 20 43  1  0
 22 44  1  0
 23 45  1  0
 23 46  1  0
M  CHG  1  22   1
M  END
>  <OMEGA_C>  (84) 
VO3UQK5SBL8BxrXBQKJHQNwUM8AFJJLBB5bFQOUsvL9xc67BwiRoQMdt8L+CoJnBeN/OQC4hXD8m
47PB8Ld7QD5GdsDJZ47B6mSpQLQYpz6oZKPB9hm4QAlSRcBN5JnBhlGvQATyhb87RKXBzkCeQBJR
AcCJjp3BABa5QA4Bpz9vl6rBGQOoQK4mf8BfQJLBD4DKQNjsQUDd6ZzBlMWCQPAGWkDLgZrBE4PR
QNqPmEAuqr3B93SqQE9iekDifrrB0izpQNWAhEAxCbTBAlS8QAcDf0BpDK/B5fOyQIliMkDxUqfB
uDqzQGiYb0CSb4rBt3arQDUeXUCDx5XB8MWFQAxIPUDrVqTBtGI5QK7ickCswJXBtxvxQIifO0Cb
WZvBzVzIQALvqMBYiY3BWHrlQJmIV78I5rzBUcYGQGa7LMDxQo/BKNzKQGF0IcCA3a/BDZVAQP70
h79sYJzBN+vaQHZ0yj+pkLnB+QljQH2EkcDZlojBsHqYQNm0JD9oTJzBizPYQBD9TMBH8pzBy1bf
QP3HkEAphcXBa3rMQJxSu0CaFb3BHzqLQN3DjECqpbvBPqypQJXfOUB9A77Bher5QF+cTEBXv7XB
AdP+QO9HmkDwu6/BJoeyQOCtnUBmPKvBDyyVQI76gUDdoIbBsD+/QMSnNUDycIbBGBrLQAGDkUBf
u4nBq85ZQGqaMEAtHqnB95QCQBJyb0Cn3JnBYjo5QOohhEBUNo7B4DzVQHZvAL+jyLXBB2+qQBQ+
f8BBWZLBJaTFQOmbur81h67Btl65QF4+RcBJHprBuQ3PQPyNXz9+37PBb9WAQDp8dsCkJY7BGnKo
QAJwqj5CjqPBh6JqQPX/8L9sTZnBwASvQDcUhb/1YKXB3/aeQK47AcBvkJ3BvlG4QAE5qD93tKrB
KVRMQJiTM8D8s5HBpOfJQISbQkDFDJ3B6YCCQE5hXED9kZrBmwHUQLSAmECKjb3BBnusQGDpeUCy
1LrBx83pQOnvhEBsmrPBoxq8QHhbf0BQK6/BiCiyQJYKM0DmbqfBMluzQLwRckCqoorBB4CrQH53
YkDLC5bBYBuFQNi8PkBxYKTBY+o4QMhgckD8k5XBThvwQAb3NkCRVpvBvXnIP4pSKsDfyYzBIhbm
QLS0Ur814LzBa+G+QLc8mcC/m4/BQfzKQNSeIMC59q/BegrZQEHBTMBTcp3BNrzbQO6OzD8ycLnB
98JqQFiJkcDBMojBC+aWQCxjJT/li5zBAC5CQOPKiL8F4pvBKnfjQP+QkECuNMXBV6TOQAs/u0Dq
G73BAW6NQPtQjEAQZLzBS5KsQJo4OUBjTb7BSx77QI6sTUBaC7XBsmD+QIcGm0CVE6/BGk+xQGXZ
nUDrhqvB5hqWQLmohUC65IbBbHW8QOS0NUBZuIbByGfNQJxvkEArvYnBxhlYQFb0MUDUFqnBf2UB
QCwCbEAwepnBQYk5QDJPhEC6E47B

>  <OMEGA_E>  (84) 
fHSkPoDQpT4=

>  <OMEGA_NBR>  (84) 
    206749

$$$$
50216010
     RDKit          3D

 42 45  0  0  1  0  0  0  0  0999 V2000
    6.7795   -0.6404  -22.6345 C   0  0  0  0  0  0  0  0  0  0  0  0
    6.2649   -1.5617  -21.7049 C   0  0  0  0  0  0  0  0  0  0  0  0
    6.4986    0.7309  -22.5011 C   0  0  0  0  0  0  0  0  0  0  0  0
    5.1917    0.2630  -20.4982 C   0  0  0  0  0  0  0  0  0  0  0  0
    3.7135   -1.8186  -18.9597 C   0  0  0  0  0  0  0  0  0  0  0  0
    5.6312   -3.2669  -19.3271 C   0  0  0  0  0  0  0  0  0  0  0  0
    4.0011   -3.9144  -17.7696 C   0  0  0  0  0  0  0  0  0  0  0  0
    5.4673   -1.1147  -20.6263 C   0  0  0  0  0  0  0  0  0  0  0  0
    4.9304   -2.0741  -19.6303 C   0  0  0  0  0  0  0  0  0  0  0  0
    5.6771    1.1957  -21.4450 C   0  0  0  0  0  0  0  0  0  0  0  0
    3.2470   -2.7503  -18.0208 C   0  0  0  0  0  0  0  0  0  0  0  0
    5.3010    3.4035  -22.6241 C   0  0  0  0  0  0  0  0  0  0  0  0
    7.0754    4.2659  -21.4490 C   0  0  0  0  0  0  0  0  0  0  0  0
    4.1515    3.0226  -18.9205 C   0  0  0  0  0  0  0  0  0  0  0  0
    3.8936    4.3020  -19.7336 C   0  0  0  0  0  0  0  0  0  0  0  0
    4.1003    2.9642  -20.4587 C   0  0  0  0  0  0  0  0  0  0  0  0
    5.4029    2.6979  -21.2794 C   0  0  1  0  0  0  0  0  0  0  0  0
    6.6742    5.1812  -23.7858 C   0  0  0  0  0  0  0  0  0  0  0  0
    5.1668   -4.1548  -18.4162 N   0  0  0  0  0  0  0  0  0  0  0  0
    6.2937    4.3759  -22.6127 N   0  0  0  0  0  0  0  0  0  0  0  0
    6.5821    3.3338  -20.6612 N   0  0  0  0  0  0  0  0  0  0  0  0
    8.1950    5.0328  -21.1462 N   0  0  0  0  0  0  0  0  0  0  0  0
    4.5110    3.1547  -23.5291 O   0  0  0  0  0  0  0  0  0  0  0  0
    1.7424   -2.4712  -17.1782 Cl  0  0  0  0  0  0  0  0  0  0  0  0
    7.3923   -0.9873  -23.4534 H   0  0  0  0  0  0  0  0  0  0  0  0
    6.4798   -2.6143  -21.8151 H   0  0  0  0  0  0  0  0  0  0  0  0
    6.9120    1.4345  -23.2086 H   0  0  0  0  0  0  0  0  0  0  0  0
    4.6008    0.6114  -19.6640 H   0  0  0  0  0  0  0  0  0  0  0  0
    3.1513   -0.9200  -19.1666 H   0  0  0  0  0  0  0  0  0  0  0  0
    6.5610   -3.4740  -19.8360 H   0  0  0  0  0  0  0  0  0  0  0  0
    3.6415   -4.6304  -17.0455 H   0  0  0  0  0  0  0  0  0  0  0  0
    5.1089    2.8873  -18.3961 H   0  0  0  0  0  0  0  0  0  0  0  0
    3.3413    2.5759  -18.3255 H   0  0  0  0  0  0  0  0  0  0  0  0
    2.8988    4.7712  -19.7190 H   0  0  0  0  0  0  0  0  0  0  0  0
    4.6665    5.0826  -19.7897 H   0  0  0  0  0  0  0  0  0  0  0  0
    3.1897    2.5130  -20.8798 H   0  0  0  0  0  0  0  0  0  0  0  0
    7.4822    5.8744  -23.5089 H   0  0  0  0  0  0  0  0  0  0  0  0
    7.0215    4.5160  -24.5901 H   0  0  0  0  0  0  0  0  0  0  0  0
    5.8029    5.7548  -24.1349 H   0  0  0  0  0  0  0  0  0  0  0  0
    6.9555    3.0899  -19.7661 H   0  0  0  0  0  0  0  0  0  0  0  0
    8.6790    4.8918  -20.2826 H   0  0  0  0  0  0  0  0  0  0  0  0
    8.5162    5.7254  -21.7921 H   0  0  0  0  0  0  0  0  0  0  0  0
  1  2  2  0
  1  3  1  0
  2  8  1  0
  3 10  2  0
  4  8  2  0
  4 10  1  0
  5  9  2  0
  5 11  1  0
  6  9  1  0
  6 19  2  0
  7 11  2  0
  7 19  1  0
  8  9  1  0
 10 17  1  0
 11 24  1  0
 12 17  1  0
 12 20  1  0
 12 23  2  0
 13 20  1  0
 13 21  2  0
 13 22  1  0
 14 15  1  0
 14 16  1  0
 15 16  1  0
 17 16  1  1
 17 21  1  0
 18 20  1  0
  1 25  1  0
  2 26  1  0
  3 27  1  0
  4 28  1  0
  5 29  1  0
  6 30  1  0
  7 31  1  0
 14 32  1  0
 14 33  1  0
 15 34  1  0
 15 35  1  0
 16 36  1  0
 18 37  1  0
 18 38  1  0
 18 39  1  0
 21 40  1  0
 22 41  1  0
 22 42  1  0
M  CHG  1  21   1
M  END
>  <OMEGA_C>  (85) 
jfHYQHryI79vE7XBQXrIQEPlx7+Ko63BrPTPQDseOz9BArTBoyKmQPSshj5N/KPB2qltQFvH6L9d
rZfBfDK0QGMVUcDQnZrB/QiAQLeEesAaKI7BBvSuQPevjr+4AqXBKcadQGy+BMDuCp3BE6u1QEUM
mT9Yj6vBhc5PQAgFMMCCKpDBlKGpQDHTWUAl/rTBB2riQDSCiECNl6vB+diEQONxQUA4XZfBwDB5
QJapiUBl3p3B7DWDQKW0PUCBq6PBwOSsQPCqLEBCPKrB+ZLVQKXMpUBUSb7BblalQET0hMBQVJPB
tGXJQAgHjEDF5rTBnqDSQDNcVUAXSqXB0x4DQcUMoUBzK6nBx1mQQAXmSUCNO7zB6wbfP0MoHsD8
bInBcI3sQOS8fL+NoLvBZVrPQENRJ8Bjha7BHS/dQIuctz81q7nBsDmTQP2CHD/mT53B9K5JQJWD
a79MVZnBVPPRQLdVXsAfsJ7B/g1pQIoslMAvXYjBfXyjQAnKOEBIK5PBVNdVQHTbJECqmpLBSYY5
QL6tmECZwJ3B91OVQAmlokA3UZ7BLyRMQHrVIEC+CafBRm7vQMH6u0A7ErzB6a/gQAWDkEB6uMTB
J7G5QOsmuEBTFMHBTZPeQILBRUD+IJ7BX90KQUqJnEDFQqLBZUIIQa02t0AnVq7BIXXXQG4yFb+/
nrTBNgbGQHv5w7/Zk63BgrDRQH9ASz8rxbLB/F+nQAK2ij4u/KLBbPNlQH8Y/L86AZnBSCS2QPxp
TMDauJnBfE59QFGUgMBF9Y7BvCCuQCefjb9QqKTB6ducQEQhBsA7Cp3BZ8O4QCzGnz9aBKrB0GBH
QKLYPMDN8ZHBlt/JQJSzPkAihpzBAHCCQL51V0C5K5rBpC7nQEwhgkBOyrTBWpW8QJT5dUCX47rB
9P28QEoXfECEqq7BvHWyQJhwL0DR8abBtduyQMKNb0D7N4rBAwunQDzng8Bmy5LBCEKqQOIIUEAA
EZXBD0CFQEY1O0DxCaTByG86QArPdkBllZXB/qrwQI5oPED5FJvBj+m+P8B/NsCn64zB72/pQOCJ
ab8Tg7vBXfHKQIlyJcCdAK/B8WfgQN6CwT8FE7jB74+UQDKKFz8nNZzBRRM+QMlKkb+XS5vBR0nW
QLLZUsCxypzBUa1lQDqamMB4fonB5Bj/QE61UEDsYLTBx4/3QG07oUCTQLXBV6quQJwClUCRr7/B
dDO2QK1DOEDqz77BjuqwQF3TnEC8pavBwnCUQJAheED964XBXNzGQM/vQECI64XBu7vDQNiclkBt
rorB48JYQBh2L0Cu2qjBB1oEQMbreEBC2pnBVdI6QOOnhUBfAY7Bnt65QL06Eb/WY7bBZ5uzQG6a
xb87dq7BuCa7QH47Sz8fmrPBOgSvQKY1VD527aDBb8+1QEfc+b9sqZDBvP+SQHj1WcAAmp3B4e6Z
QJJZhMCH24vBVzWuQKuwlL/Sp6PBs6SnQOyPC8DbOpvBtoG2QBEFmT/YxqjBadmuQMZNPMCT6ojB
wBfJQHghOUAtYprBOPCCQDThZEBGh5rB4iO5QKDBgkCNyrfBC7fGQByCoUB9za7BJcLPQOzYYkCe
wK3BaYC2QMBXK0Awi6XBd9qqQPQyb0Dq24jBg3eMQMMyi8D2A5bB19CoQBItYECPfJTBW8+JQL5v
SEAxTKTB+603QO8HgkB86pbBjubsQADvJEAeQJfB7CTAQHSfLMCpjXfBA7W9QMr2XL/apL7BN+qy
QF6zJcCnoLDBrLS/QIkVxT8Jv7nBVtWpQC7fAD9xuJjBeb7FQMfMg79klI7BuC6IQA3aZcD1q6XB
6IWUQMOznMDA4IXBTgmXQBLDd0BoIbnBrQHKQHA8g0Cpg7/BpEbhQNMDuEAUGrDBRE6uQOyosEDT
t6nBzlrxQLX5T0Dp567BJ0yNQAR7h0C9MobBdUyuQBagMUBBroTB+n7GQM8bjEBNBIfBIn9nQAHE
RkC1FqrBkV4FQH7ugkAM25vBS8MxQE9XjED2YI/B

>  <OMEGA_E>  (85) 
dQSIP7rnAj8A80c/

>  <OMEGA_NBR>  (85) 
    217231

$$$$
50215968
     RDKit          3D

 49 52  0  0  1  0  0  0  0  0999 V2000
    6.7988   -0.9095  -22.8770 C   0  0  0  0  0  0  0  0  0  0  0  0
    5.2695   -3.9239  -18.2279 C   0  0  0  0  0  0  0  0  0  0  0  0
    6.2773   -1.7293  -21.8698 C   0  0  0  0  0  0  0  0  0  0  0  0
    5.8061   -3.0706  -19.2089 C   0  0  0  0  0  0  0  0  0  0  0  0
    6.6552    0.4820  -22.7864 C   0  0  0  0  0  0  0  0  0  0  0  0
    3.9374   -3.7556  -17.8032 C   0  0  0  0  0  0  0  0  0  0  0  0
    5.4030    0.2425  -20.7120 C   0  0  0  0  0  0  0  0  0  0  0  0
    3.6855   -1.8604  -19.3198 C   0  0  0  0  0  0  0  0  0  0  0  0
    5.5721   -1.1581  -20.7914 C   0  0  0  0  0  0  0  0  0  0  0  0
    5.0167   -2.0325  -19.7531 C   0  0  0  0  0  0  0  0  0  0  0  0
    5.9895    1.0852  -21.6853 C   0  0  0  0  0  0  0  0  0  0  0  0
    3.1438   -2.7312  -18.3575 C   0  0  0  0  0  0  0  0  0  0  0  0
    7.2021    3.2350  -22.0684 C   0  0  0  0  0  0  0  0  0  0  0  0
    5.6188    3.7839  -23.6217 C   0  0  0  0  0  0  0  0  0  0  0  0
    3.7497    3.8184  -18.6595 C   0  0  0  0  0  0  0  0  0  0  0  0
    5.1823    3.8336  -18.0681 C   0  0  0  0  0  0  0  0  0  0  0  0
    3.8704    3.2902  -20.1006 C   0  0  0  0  0  0  0  0  0  0  0  0
    6.0672    3.1064  -19.0837 C   0  0  0  0  0  0  0  0  0  0  0  0
    5.3670    3.4038  -20.4159 C   0  0  0  0  0  0  0  0  0  0  0  0
    5.8674    2.6234  -21.6774 C   0  0  2  0  0  0  0  0  0  0  0  0
    7.9268    4.7746  -23.9130 C   0  0  0  0  0  0  0  0  0  0  0  0
    6.9784    3.8503  -23.2853 N   0  0  0  0  0  0  0  0  0  0  0  0
    4.9887    2.9847  -22.7948 N   0  0  0  0  0  0  0  0  0  0  0  0
    5.0159    4.4438  -24.6801 N   0  0  0  0  0  0  0  0  0  0  0  0
    8.2415    3.2374  -21.4174 O   0  0  0  0  0  0  0  0  0  0  0  0
    1.4796   -2.5535  -17.8696 Cl  0  0  0  0  0  0  0  0  0  0  0  0
    7.3103   -1.3474  -23.7213 H   0  0  0  0  0  0  0  0  0  0  0  0
    5.8783   -4.7072  -17.8009 H   0  0  0  0  0  0  0  0  0  0  0  0
    6.4151   -2.7993  -21.9188 H   0  0  0  0  0  0  0  0  0  0  0  0
    6.8226   -3.2089  -19.5465 H   0  0  0  0  0  0  0  0  0  0  0  0
    7.0584    1.1079  -23.5687 H   0  0  0  0  0  0  0  0  0  0  0  0
    3.5236   -4.4121  -17.0521 H   0  0  0  0  0  0  0  0  0  0  0  0
    4.8248    0.6706  -19.9066 H   0  0  0  0  0  0  0  0  0  0  0  0
    3.0834   -1.0613  -19.7264 H   0  0  0  0  0  0  0  0  0  0  0  0
    3.1019    3.1562  -18.0663 H   0  0  0  0  0  0  0  0  0  0  0  0
    3.3301    4.8352  -18.6625 H   0  0  0  0  0  0  0  0  0  0  0  0
    5.5284    4.8689  -17.9321 H   0  0  0  0  0  0  0  0  0  0  0  0
    5.2018    3.3104  -17.1007 H   0  0  0  0  0  0  0  0  0  0  0  0
    3.5366    2.2439  -20.1624 H   0  0  0  0  0  0  0  0  0  0  0  0
    3.2776    3.9058  -20.7932 H   0  0  0  0  0  0  0  0  0  0  0  0
    7.0915    3.5073  -19.0759 H   0  0  0  0  0  0  0  0  0  0  0  0
    6.0950    2.0253  -18.8830 H   0  0  0  0  0  0  0  0  0  0  0  0
    5.5543    4.4667  -20.6282 H   0  0  0  0  0  0  0  0  0  0  0  0
    7.5173    5.1261  -24.8715 H   0  0  0  0  0  0  0  0  0  0  0  0
    8.0944    5.6351  -23.2485 H   0  0  0  0  0  0  0  0  0  0  0  0
    8.8810    4.2567  -24.0900 H   0  0  0  0  0  0  0  0  0  0  0  0
    4.0471    2.6680  -22.9092 H   0  0  0  0  0  0  0  0  0  0  0  0
    4.0381    4.3243  -24.8521 H   0  0  0  0  0  0  0  0  0  0  0  0
    5.5586    5.0396  -25.2722 H   0  0  0  0  0  0  0  0  0  0  0  0
  1  3  2  0
  1  5  1  0
  2  4  2  0
  2  6  1  0
  3  9  1  0
  4 10  1  0
  5 11  2  0
  6 12  2  0
  7  9  2  0
  7 11  1  0
  8 10  2  0
  8 12  1  0
  9 10  1  0
 11 20  1  0
 12 26  1  0
 13 20  1  0
 13 22  1  0
 13 25  2  0
 14 22  1  0
 14 23  2  0
 14 24  1  0
 15 16  1  0
 15 17  1  0
 16 18  1  0
 17 19  1  0
 18 19  1  0
 20 19  1  1
 20 23  1  0
 21 22  1  0
  1 27  1  0
  2 28  1  0
  3 29  1  0
  4 30  1  0
  5 31  1  0
  6 32  1  0
  7 33  1  0
  8 34  1  0
 15 35  1  0
 15 36  1  0
 16 37  1  0
 16 38  1  0
 17 39  1  0
 17 40  1  0
 18 41  1  0
 18 42  1  0
 19 43  1  0
 21 44  1  0
 21 45  1  0
 21 46  1  0
 23 47  1  0
 24 48  1  0
 24 49  1  0
M  CHG  1  23   1
M  END
>  <OMEGA_C>  (86) 
IpDZQBLTaL8TBLfBn5+oQGIhe8Cy0pHBmN/IQJtY3b9W9a7Bt8u5QK6ERMC8q5nBWvfUQBjI9j51
SrbBLv97QEBccMACbY7Bm+WsQJhZeD45sqXBst9rQA8h7r8Nj5rB0E6yQLs7lL/UVKbB8IigQIwU
AsBOBp7BQKq/QHbpij9xe63BQTNJQPzLLsBA3JLBxnfmQGsKT0AMjLDB3MyzQGArckAz+bzBavpv
QJJgdECtRpXBV9WlQApadUB9i5DBWLV3QOKSUkARzqDBZybCQNbPRkBhq5jB2L6rQDHXWUCqU6PB
jMG7QEHmJ0BYa63BjKj9QObJmEDdTb/BWk/fQExrdkBcSLrBt6OfQNoFP0CwW7bBRIKgQE0zjkDw
cMXBOt0DQdYwT0DXVqvBGmO9P/RsI8Dl9I7BYe7pQOx4rL9Txb3BtRq8QBKhlsA9aI7Bt0jNQOwn
M8DLWa/BxFLaQAFfTcBKX5zBCt7hQA3PjT/JjLzBCYNhQBcwjcC7aojBjGSaQHSvKz+tQJ/Bv1VF
QMrYh7+dz53BuYRGQOb/SUDHh5DB8yBVQFq6mkDeTJXBkuiwQKfNm0DedI/B63SmQCLdU0BJzojB
E1diQJWcD0CYTKHBiMRRQD34eUBwWKbBq+3iQLt3YEB6m5jBggrDQNedAUBWEJfBrryxQDXvjkCX
BqXBp43wQCgJpEDn+MbB2oIBQWlStEDs/LnBbxgOQaA2iEBGuMDBM4KBQNDAKkAURrfB4zeBQIhg
ikAj0cbByd+xQAtEoUB+LcrBk9nYQIQUaL+pMbfBqe5JQP+nKsAPgJLBFknIQM4d3b9NH6/Bbsls
QP6z57/XS5rBDZvUQGjv+D7sabbBPi97QCmTbsBfX47BwaGtQLC+fD59qqXBWeK4QDErRsAi/5nB
w2OyQFbNk794ZKbBsGWgQMmlAcAoFp7Bmtm/QHJ+iz93h63BO5GnQIsufMBpHZLBw0nnQPr6TkCA
UbDB7by1QGezckBwAr3BnKVuQMMRdEAVf5XB/G6kQHSRcEDkWpDBTo53QBwOUEDq36DBVzLCQKze
R0CnrZjBAZCrQOfUWUBtWaPBv0G8QOtPKEDEZ63BgeT/QB23mEBP877BAv3gQA6vdkCKErrBr8+g
QFJfQEAMcrbBUmWjQNBEjkBzo8XB+BwEQQwRTkBU/KrBfyPGQNgZqMAMCI3BXdroQKcbrL/JAL7B
s18JQGamIMCkrY/Bc0fMQLMdM8BXla/BuFBHQBASfb8kYZ3BvV3hQD1cjj+wsLzBxZBgQM0ejMC/
VYjBvgGcQPdDLT/5E5/Bve/YQBIXUcDY7JzBO35BQDLyTEB415DBfadXQHlIm0BLy5XBtHOvQBfE
mECuYI7BSrWjQB9kSUC5C4nBsklkQO1gDED8JaHBQJtQQDMHdUCQkKbBDgjiQPTeZUBtfZjB92fF
QAOhAkAlTpfBVb6wQGoMj0DtEKXBvmPzQPsfpECNqsbB4Y4CQfkptEAqmbnBPTEPQV3ph0BNP8DB
P42CQO4sLUDlc7fBdTaEQBufikCZL8fBzVa1QPMDoUDPUcrB

>  <OMEGA_E>  (86) 
vsp4P4xYeD8=

>  <OMEGA_NBR>  (86) 
    187404

$$$$
50215985
     RDKit          3D

 43 46  0  0  1  0  0  0  0  0999 V2000
    6.6828   -0.5541  -22.6601 C   0  0  0  0  0  0  0  0  0  0  0  0
    3.1046   -2.8136  -18.2060 C   0  0  0  0  0  0  0  0  0  0  0  0
    6.1742   -1.5054  -21.7595 C   0  0  0  0  0  0  0  0  0  0  0  0
    3.6092   -1.8970  -19.1471 C   0  0  0  0  0  0  0  0  0  0  0  0
    6.4988    0.8236  -22.4274 C   0  0  0  0  0  0  0  0  0  0  0  0
    3.9111   -3.8764  -17.7561 C   0  0  0  0  0  0  0  0  0  0  0  0
    5.2565    0.2946  -20.4074 C   0  0  0  0  0  0  0  0  0  0  0  0
    5.7168   -3.1311  -19.2199 C   0  0  0  0  0  0  0  0  0  0  0  0
    5.4519   -1.0801  -20.6288 C   0  0  0  0  0  0  0  0  0  0  0  0
    4.9167   -2.0546  -19.6622 C   0  0  0  0  0  0  0  0  0  0  0  0
    5.7778    1.2742  -21.2918 C   0  0  0  0  0  0  0  0  0  0  0  0
    5.2186   -4.0302  -18.2576 C   0  0  0  0  0  0  0  0  0  0  0  0
    6.3143    2.9601  -19.5556 C   0  0  0  0  0  0  0  0  0  0  0  0
    4.0747    3.3356  -19.2763 C   0  0  0  0  0  0  0  0  0  0  0  0
    7.2002    4.0722  -22.6726 C   0  0  0  0  0  0  0  0  0  0  0  0
    5.8033    3.9220  -23.3304 C   0  0  0  0  0  0  0  0  0  0  0  0
    5.9422    3.9744  -21.8087 C   0  0  0  0  0  0  0  0  0  0  0  0
    5.5979    2.7602  -20.8750 C   0  0  1  0  0  0  0  0  0  0  0  0
    5.5690    3.6911  -17.2630 C   0  0  0  0  0  0  0  0  0  0  0  0
    5.3160    3.2229  -18.6308 N   0  0  0  0  0  0  0  0  0  0  0  0
    4.1829    2.9485  -20.5261 N   0  0  0  0  0  0  0  0  0  0  0  0
    2.8916    3.7639  -18.6949 N   0  0  0  0  0  0  0  0  0  0  0  0
    7.5214    2.8826  -19.3544 O   0  0  0  0  0  0  0  0  0  0  0  0
    6.2264   -5.3300  -17.6775 Cl  0  0  0  0  0  0  0  0  0  0  0  0
    7.2195   -0.8817  -23.5382 H   0  0  0  0  0  0  0  0  0  0  0  0
    2.0988   -2.7017  -17.8289 H   0  0  0  0  0  0  0  0  0  0  0  0
    6.3369   -2.5586  -21.9343 H   0  0  0  0  0  0  0  0  0  0  0  0
    2.9964   -1.0710  -19.4767 H   0  0  0  0  0  0  0  0  0  0  0  0
    6.9104    1.5429  -23.1199 H   0  0  0  0  0  0  0  0  0  0  0  0
    3.5272   -4.5740  -17.0265 H   0  0  0  0  0  0  0  0  0  0  0  0
    4.6950    0.6132  -19.5417 H   0  0  0  0  0  0  0  0  0  0  0  0
    6.7111   -3.2647  -19.6198 H   0  0  0  0  0  0  0  0  0  0  0  0
    7.9158    3.2372  -22.7012 H   0  0  0  0  0  0  0  0  0  0  0  0
    7.7452    5.0248  -22.7472 H   0  0  0  0  0  0  0  0  0  0  0  0
    5.3554    4.7678  -23.8726 H   0  0  0  0  0  0  0  0  0  0  0  0
    5.5259    2.9802  -23.8265 H   0  0  0  0  0  0  0  0  0  0  0  0
    5.6356    4.9390  -21.3780 H   0  0  0  0  0  0  0  0  0  0  0  0
    4.6119    3.8227  -16.7370 H   0  0  0  0  0  0  0  0  0  0  0  0
    6.1817    2.9497  -16.7292 H   0  0  0  0  0  0  0  0  0  0  0  0
    6.1034    4.6520  -17.2975 H   0  0  0  0  0  0  0  0  0  0  0  0
    3.4147    2.8031  -21.1496 H   0  0  0  0  0  0  0  0  0  0  0  0
    2.0503    3.7914  -19.2348 H   0  0  0  0  0  0  0  0  0  0  0  0
    2.8793    4.0455  -17.7354 H   0  0  0  0  0  0  0  0  0  0  0  0
  1  3  2  0
  1  5  1  0
  2  4  2  0
  2  6  1  0
  3  9  1  0
  4 10  1  0
  5 11  2  0
  6 12  2  0
  7  9  2  0
  7 11  1  0
  8 10  2  0
  8 12  1  0
  9 10  1  0
 11 18  1  0
 12 24  1  0
 13 18  1  0
 13 20  1  0
 13 23  2  0
 14 20  1  0
 14 21  2  0
 14 22  1  0
 15 16  1  0
 15 17  1  0
 16 17  1  0
 18 17  1  6
 18 21  1  0
 19 20  1  0
  1 25  1  0
  2 26  1  0
  3 27  1  0
  4 28  1  0
  5 29  1  0
  6 30  1  0
  7 31  1  0
  8 32  1  0
 15 33  1  0
 15 34  1  0
 16 35  1  0
 16 36  1  0
 17 37  1  0
 19 38  1  0
 19 39  1  0
 19 40  1  0
 21 41  1  0
 22 42  1  0
 22 43  1  0
M  CHG  1  21   1
M  END
>  <OMEGA_C>  (87) 
z9nVQLDZDb/jR7XBWrJGQGYRNMDopZHB+5LFQIivwL90E67Bzv1mQNvP8r8+LZnB+/XPQFjVUj9P
a7PB6k56QAgXeMCQDI7BNDWoQFbRlj51QqPB6e+2QPdjSMBKwpnBCnauQAhAir/IB6XB6lWdQA1/
A8A6TJ3BcuO4QAIYoz+iVarB0P6mQBb3gMCOD5LB4Q7KQL9xPUDIcZzBn2OCQL95VUDzNZrBQmjm
QFNPgkCFYbXBSbS5QK8Be0CgpLrBGya+QHdcfkBJeK7BJCKzQEunMEDo/6bB9DSyQCM7bECuGorB
kxyqQINDTkDOC5XBPNqFQMG0PECONaTBUA85QDHkcEAXj5XBM6/wQPV7OEDd1ZrBYD7HQCuPqsCe
a43BBAbnQCW0Yb9OTrzBFVMGQBrpLMCJoY7BhMfKQLTAI8Beea/B4MQ/QPoXib9a0JvB5iHdQPB8
xT+T9bjBnL1hQAheksAsNojBIz2WQIj7HD9gVZzB+cDWQDzxUMBr9ZzB1U39QCYuT0D2m7XBwdj3
QPvKoEAw+rXBHF+rQOyRmED/+r7BMNSwQAe8PkDEnL7B6Fa0QFQMnkAVBqvBc5STQLGmdEB05YXB
QtDFQEDIPEB51YXBwE7DQNbclEBKYYrBYopaQKBmM0B2MqnBYjgDQPOlckDt4JnB/UU4QOV0gUAg
4o3B51HVQK+oDr9DYrXBCE2nQM24gsBlWpLBAPTFQHCfwb/HFq7BVKy3QBvVSsDh35nBES7PQL2r
UT/ufrPBQiR7QN/uesAwSo7BAAOpQAuBjz4/IKPBrqtpQEb387+ADZnBRH+vQPbdi79Z7aTBsYee
QOuPBMCWNp3BhMm4QGm8oT/mSKrB5IxIQP50NcC4s5HBNbzJQNzXPECfZJzB8UeCQMN+VkAvK5rB
/FjlQO4YgkANXLXBIXm4QKPjekAUi7rBeVC9QEHAfUAkYa7BPaayQMzOL0AH7abBoDayQPF9bEDj
EYrBM+SpQPUCTkDM+pTBTGCFQPMxO0CGEqTBJtE5QP6odUBLo5XBzGrwQPOhOECI1ZrB7rjAPw46
KcDq7IzBufrlQOJgYb+rf7zBQcC6QAw+ncDRso/BfVrLQNkhJMD8ga/B9XLXQCOaU8AeF53BCaLb
QGRWxT96HLnBX/RhQC8QlMCAj4jBEI6XQMwhGD/hGpzB2EBDQIMUiL/yhpvB1DT8QPy2TkArqrXB
l832QKKSoEBz87XBEwmqQPqcmECT0b7BUHCvQK3LPkBLiL7BdqSzQDGunUDj36rBTayTQEUldUCD
1IXBleTFQNM5PUDxyYXBA1PDQAj6lECraYrBQUZZQDzZL0DI8ajBNx4EQApZeEA0+pnBbJk5QPy5
hEC1B47BsEnZQNvWIL+1JLXBR2ClQFrKhcD4HJPB+QXJQJhEx78Gva3Buna1QEtBUcDwsprBXxDQ
QIOePT8yBbTBwrx8QDXUesDJ343BjpWmQN6Kgz7y+aPBK6ZuQMZ66r+0zpfBGpavQNs+j7/hD6XB
6peeQHRzBcA4HZ3Bb8S1QM4RmT9viqvBl7lOQEeiL8BAOZDBBSipQJbZWUBQ6rTBp73hQInPiEA4
fqvBIWqEQEIyQEAuTZfBsK53QKAHiUBPyJ3BtdKCQOqpPEDom6PBKpesQN15LED7LKrBRLrUQN8v
pkA4LL7BBrfIQCZAjECuzbTBXiXSQLqkVUCaNaXBnrICQRGRoUD3DKnBIvGPQBC0SUCFKbzB0Hzb
PwfFGsDSxonBBu3sQEW9d7/CtrvB9/u2QJ6josAET5HB7fvPQJfqJsBKrq7BhGTTQDtmXsDdsZ7B
AR7dQJWUuT8rqbnBtjFkQBDSk8AgDojBjsuTQMdKGT+lQp3BsRpLQFbbbr/QmJnB5xOjQDD3N0Cu
GpPBfzBVQGcXI0DajZLBSsU3QDjIl0BxqZ3BTV6UQB04okBFNp7Blp9LQI5gH0CT/abB627uQPmE
vECA8bvBI/3fQEcIkUBCnsTB37m4QMRguEAD9cDBBR7eQL0bRkCHDJ7BxXIKQVgXnUBWJKLB3sQH
QerYt0DlM67B

>  <OMEGA_E>  (87) 
XF/gPhDo4D74bYY/

>  <OMEGA_NBR>  (87) 
    199866

$$$$
50225042
     RDKit          3D

 46 49  0  0  1  0  0  0  0  0999 V2000
    6.1000   -1.1544  -22.2073 C   0  0  0  0  0  0  0  0  0  0  0  0
    6.6450   -0.0760  -22.9157 C   0  0  0  0  0  0  0  0  0  0  0  0
    5.2956    0.3783  -20.4979 C   0  0  0  0  0  0  0  0  0  0  0  0
    4.4163   -1.8883  -18.8830 C   0  0  0  0  0  0  0  0  0  0  0  0
    4.6769   -3.3352  -20.8175 C   0  0  0  0  0  0  0  0  0  0  0  0
    3.7344   -4.2104  -18.8590 C   0  0  0  0  0  0  0  0  0  0  0  0
    5.4124   -0.9347  -20.9897 C   0  0  0  0  0  0  0  0  0  0  0  0
    4.8324   -2.0588  -20.2239 C   0  0  0  0  0  0  0  0  0  0  0  0
    5.8777    1.4547  -21.1763 C   0  0  0  0  0  0  0  0  0  0  0  0
    6.5255    1.2286  -22.4150 C   0  0  0  0  0  0  0  0  0  0  0  0
    3.8501   -2.9694  -18.2044 C   0  0  0  0  0  0  0  0  0  0  0  0
    6.4305    2.7870  -19.1501 C   0  0  0  0  0  0  0  0  0  0  0  0
    4.2068    3.3081  -18.9729 C   0  0  0  0  0  0  0  0  0  0  0  0
    6.5277    3.8952  -21.4171 C   0  0  0  0  0  0  0  0  0  0  0  0
    5.8162    2.8351  -20.5385 C   0  0  1  0  0  0  0  0  0  0  0  0
    6.4472    3.5562  -22.9302 C   0  0  0  0  0  0  0  0  0  0  0  0
    7.3024    4.5643  -23.7135 C   0  0  0  0  0  0  0  0  0  0  0  0
    4.9880    3.6075  -23.4685 C   0  0  0  0  0  0  0  0  0  0  0  0
    5.5402    3.1522  -16.8172 C   0  0  0  0  0  0  0  0  0  0  0  0
    4.1475   -4.3756  -20.1373 N   0  0  0  0  0  0  0  0  0  0  0  0
    5.3828    3.0029  -18.2711 N   0  0  0  0  0  0  0  0  0  0  0  0
    4.4198    3.2245  -20.2686 N   0  0  0  0  0  0  0  0  0  0  0  0
    2.9878    3.6306  -18.3935 N   0  0  0  0  0  0  0  0  0  0  0  0
    7.5811    2.4715  -18.8666 O   0  0  0  0  0  0  0  0  0  0  0  0
    7.0246    2.2561  -23.1773 O   0  0  0  0  0  0  0  0  0  0  0  0
    3.2956   -2.7679  -16.5610 Cl  0  0  0  0  0  0  0  0  0  0  0  0
    6.2049   -2.1582  -22.5918 H   0  0  0  0  0  0  0  0  0  0  0  0
    7.1585   -0.2495  -23.8499 H   0  0  0  0  0  0  0  0  0  0  0  0
    4.7491    0.5579  -19.5838 H   0  0  0  0  0  0  0  0  0  0  0  0
    4.5348   -0.9345  -18.3904 H   0  0  0  0  0  0  0  0  0  0  0  0
    4.9897   -3.4808  -21.8410 H   0  0  0  0  0  0  0  0  0  0  0  0
    3.3067   -5.0489  -18.3296 H   0  0  0  0  0  0  0  0  0  0  0  0
    6.0517    4.8724  -21.2477 H   0  0  0  0  0  0  0  0  0  0  0  0
    7.5861    3.9468  -21.1220 H   0  0  0  0  0  0  0  0  0  0  0  0
    7.2518    4.3323  -24.7876 H   0  0  0  0  0  0  0  0  0  0  0  0
    6.9211    5.5814  -23.5399 H   0  0  0  0  0  0  0  0  0  0  0  0
    8.3467    4.5012  -23.3737 H   0  0  0  0  0  0  0  0  0  0  0  0
    4.9833    3.3610  -24.5405 H   0  0  0  0  0  0  0  0  0  0  0  0
    4.3700    2.8797  -22.9223 H   0  0  0  0  0  0  0  0  0  0  0  0
    4.5790    4.6182  -23.3230 H   0  0  0  0  0  0  0  0  0  0  0  0
    4.5547    3.3135  -16.3558 H   0  0  0  0  0  0  0  0  0  0  0  0
    5.9945    2.2405  -16.4022 H   0  0  0  0  0  0  0  0  0  0  0  0
    6.1895    4.0145  -16.6055 H   0  0  0  0  0  0  0  0  0  0  0  0
    3.7310    3.4004  -20.9719 H   0  0  0  0  0  0  0  0  0  0  0  0
    2.1938    3.8189  -18.9714 H   0  0  0  0  0  0  0  0  0  0  0  0
    2.9035    3.6747  -17.3980 H   0  0  0  0  0  0  0  0  0  0  0  0
  1  2  2  0
  1  7  1  0
  2 10  1  0
  3  7  2  0
  3  9  1  0
  4  8  2  0
  4 11  1  0
  5  8  1  0
  5 20  2  0
  6 11  2  0
  6 20  1  0
  7  8  1  0
  9 10  2  0
  9 15  1  0
 10 25  1  0
 11 26  1  0
 12 15  1  0
 12 21  1  0
 12 24  2  0
 13 21  1  0
 13 22  2  0
 13 23  1  0
 15 14  1  6
 14 16  1  0
 15 22  1  0
 16 17  1  0
 16 18  1  0
 16 25  1  0
 19 21  1  0
  1 27  1  0
  2 28  1  0
  3 29  1  0
  4 30  1  0
  5 31  1  0
  6 32  1  0
 14 33  1  0
 14 34  1  0
 17 35  1  0
 17 36  1  0
 17 37  1  0
 18 38  1  0
 18 39  1  0
 18 40  1  0
 19 41  1  0
 19 42  1  0
 19 43  1  0
 22 44  1  0
 23 45  1  0
 23 46  1  0
M  CHG  1  22   1
M  END
>  <OMEGA_C>  (88) 
+DLDQATDk797qLHB9aPUQLCNm710U7fBvHWpQL6xwT6f+6PB+VGNQNCz8b9PEJfBAamVQIR0VcBT
iqbB4ABvQDG7hsA135bBLDKtQJBFb7/s6qfBIqOaQDDEA8CRyqHBDBa8QAIzuj8paanBzNDQQOhB
nT/zUbPB32d2QCQKPsCWopHB8sbNQOhdMkBpM5nB6p2GQES4U0B2yJfB5OLQQKhLeUBRVqvBUR66
QJtyNUDITqTBTE/OQJqYY0AIcbfBVa3pQKYOkkBMtb3B6Z2fQAjhZkCQv7vBC0mxQGK+SUCqiYbB
i7iEQOQEjMA4GaHBhj+sQMgvQEBPK5LB2G6NQHdeTkAPJqLB0Dg/QB5caEDZJZPBX5jyQBYtHkDK
7pbBx8ngQGJjEEAla7nB5+pSQKolMcDWfITBIo7GQEYfCsD0u7TBwxLlQDJ2f76IzL7Bd/iXQGvQ
Dj+wq5zBPh2RQE88b7+BH5PBaKufQMfEXsBIuq7BFaFTQKKQocD3opLB56fBQGXqm0BS+6nBSsHy
QLiYfEDI+ajBFQ/oQDGiikD9TMbBBXrdQLKaskCoUbzBBowFQYUJkEBG/brBBHefQDcaV0ALU8TB
NteLQFxMOEDuYLfB8oaSQCDIk0CQlbrBK8CRQOUPVEC+2ILBo9K/QMdjD0ChN4PBdxDGQPl2gEAK
2ITBY8luQKqgWUCCxqfBnmYMQDRpdEBpxZfB0NI5QNwua0AmL4vB

>  <OMEGA_E>  (88) 
YNftPg==

>  <OMEGA_NBR>  (88) 
      3098

$$$$
50225097
     RDKit          3D

 47 50  0  0  1  0  0  0  0  0999 V2000
    6.1014   -1.3198  -21.9642 C   0  0  0  0  0  0  0  0  0  0  0  0
    6.5237   -0.2576  -22.7746 C   0  0  0  0  0  0  0  0  0  0  0  0
    5.3878    0.2667  -20.2579 C   0  0  0  0  0  0  0  0  0  0  0  0
    5.8246   -3.4292  -19.8930 C   0  0  0  0  0  0  0  0  0  0  0  0
    4.0586   -2.0931  -18.9222 C   0  0  0  0  0  0  0  0  0  0  0  0
    4.4273   -4.2996  -18.2387 C   0  0  0  0  0  0  0  0  0  0  0  0
    5.5273   -1.0686  -20.7001 C   0  0  0  0  0  0  0  0  0  0  0  0
    5.1288   -2.2017  -19.8351 C   0  0  0  0  0  0  0  0  0  0  0  0
    6.3996    1.0715  -22.3328 C   0  0  0  0  0  0  0  0  0  0  0  0
    5.8653    1.3421  -21.0488 C   0  0  0  0  0  0  0  0  0  0  0  0
    6.4271    2.7950  -19.1056 C   0  0  0  0  0  0  0  0  0  0  0  0
    4.2819    3.5626  -19.0029 C   0  0  0  0  0  0  0  0  0  0  0  0
    6.9731    2.1656  -23.2076 C   0  0  0  0  0  0  0  0  0  0  0  0
    6.5429    3.8193  -21.3737 C   0  0  0  0  0  0  0  0  0  0  0  0
    5.8190    2.7676  -20.4871 C   0  0  1  0  0  0  0  0  0  0  0  0
    6.3985    3.5603  -22.8888 C   0  0  0  0  0  0  0  0  0  0  0  0
    7.2412    4.6103  -23.6484 C   0  0  0  0  0  0  0  0  0  0  0  0
    4.9238    3.6705  -23.3613 C   0  0  0  0  0  0  0  0  0  0  0  0
    5.5391    3.3236  -16.8272 C   0  0  0  0  0  0  0  0  0  0  0  0
    5.4665   -4.4552  -19.0946 N   0  0  0  0  0  0  0  0  0  0  0  0
    3.7227   -3.1440  -18.1424 N   0  0  0  0  0  0  0  0  0  0  0  0
    5.4771    3.3795  -18.2913 N   0  0  0  0  0  0  0  0  0  0  0  0
    4.4314    3.1772  -20.2482 N   0  0  0  0  0  0  0  0  0  0  0  0
    3.0922    4.0364  -18.4747 N   0  0  0  0  0  0  0  0  0  0  0  0
    7.5319    2.3707  -18.7843 O   0  0  0  0  0  0  0  0  0  0  0  0
    6.2161   -2.3368  -22.3092 H   0  0  0  0  0  0  0  0  0  0  0  0
    6.9480   -0.4615  -23.7466 H   0  0  0  0  0  0  0  0  0  0  0  0
    4.9133    0.4694  -19.3091 H   0  0  0  0  0  0  0  0  0  0  0  0
    6.6486   -3.5470  -20.5811 H   0  0  0  0  0  0  0  0  0  0  0  0
    3.5066   -1.1679  -18.8466 H   0  0  0  0  0  0  0  0  0  0  0  0
    4.1483   -5.1300  -17.6070 H   0  0  0  0  0  0  0  0  0  0  0  0
    8.0631    2.1948  -23.0620 H   0  0  0  0  0  0  0  0  0  0  0  0
    6.7497    1.9270  -24.2579 H   0  0  0  0  0  0  0  0  0  0  0  0
    6.1224    4.8108  -21.1494 H   0  0  0  0  0  0  0  0  0  0  0  0
    7.6133    3.8092  -21.1203 H   0  0  0  0  0  0  0  0  0  0  0  0
    6.8509    5.6168  -23.4374 H   0  0  0  0  0  0  0  0  0  0  0  0
    8.2890    4.5471  -23.3193 H   0  0  0  0  0  0  0  0  0  0  0  0
    7.1840    4.4140  -24.7292 H   0  0  0  0  0  0  0  0  0  0  0  0
    4.5359    4.6720  -23.1237 H   0  0  0  0  0  0  0  0  0  0  0  0
    4.8737    3.5063  -24.4478 H   0  0  0  0  0  0  0  0  0  0  0  0
    4.3165    2.9108  -22.8473 H   0  0  0  0  0  0  0  0  0  0  0  0
    4.6765    3.8580  -16.4025 H   0  0  0  0  0  0  0  0  0  0  0  0
    5.5178    2.2739  -16.4991 H   0  0  0  0  0  0  0  0  0  0  0  0
    6.4700    3.7969  -16.4814 H   0  0  0  0  0  0  0  0  0  0  0  0
    3.7045    3.1647  -20.9348 H   0  0  0  0  0  0  0  0  0  0  0  0
    2.2789    4.1007  -19.0530 H   0  0  0  0  0  0  0  0  0  0  0  0
    3.0467    4.3141  -17.5152 H   0  0  0  0  0  0  0  0  0  0  0  0
  1  2  2  0
  1  7  1  0
  2  9  1  0
  3  7  2  0
  3 10  1  0
  4  8  2  0
  4 20  1  0
  5  8  1  0
  5 21  2  0
  6 20  2  0
  6 21  1  0
  7  8  1  0
  9 10  2  0
  9 13  1  0
 10 15  1  0
 11 15  1  0
 11 22  1  0
 11 25  2  0
 12 22  1  0
 12 23  2  0
 12 24  1  0
 13 16  1  0
 15 14  1  6
 14 16  1  0
 15 23  1  0
 16 17  1  0
 16 18  1  0
 19 22  1  0
  1 26  1  0
  2 27  1  0
  3 28  1  0
  4 29  1  0
  5 30  1  0
  6 31  1  0
 13 32  1  0
 13 33  1  0
 14 34  1  0
 14 35  1  0
 17 36  1  0
 17 37  1  0
 17 38  1  0
 18 39  1  0
 18 40  1  0
 18 41  1  0
 19 42  1  0
 19 43  1  0
 19 44  1  0
 23 45  1  0
 24 46  1  0
 24 47  1  0
M  CHG  1  23   1
M  END
>  <OMEGA_C>  (89) 
7D7DQILvqL++tq/BB8LQQHzog75pMrbB2WisQIaGiD4gEKLBvGK6QOt3W8DVJJ/BK+CBQAT2BcCq
YJfBXKyNQECWicDn6JHB0d+wQC3HiL/NmaXBhR+kQP3oDMAzrp7BzcnMQFQniT+oqbLBOLC7QMXK
qz/iY6jB+arNQNDhMkBL2JjBIgWJQDABZEDzBZjBySPfQPOZCkA7qbnBkF/RQClwdEBF/arBlDW6
QF8gMUB95aPBHsDMQHHbY0BXHLfBTrjnQGuHk0D0L73BfY+dQMLoakDp47rBr0CxQFu2VEABnobB
oe2uQCSRjsC+wZjBQUFuQI43ScCNI5HBv0SvQARJWECEVJLBBM6NQH1XS0BK/KHB6OZFQAIqgUBE
zJPBiQXxQIS5F0AvRpbBJurGQMWNFcBRebLBr1XeQOtH7L4f+b3BrjmdQBxZ8D4XeZrBYsHUQIkB
Y8AJpqTBwmxgQMV+lb/pxZbB976EQNQopMA524zBQgIBQdt2DEAMf7jB5P3XQLKm9j8/EMLB6urD
QMDxmUAFMqnBGaDzQNjJc0Bn9qjBeDrbQPO8s0Dlf7vBjp8EQXiBkUDtjbrB/OLlQLo/jUCB1cXB
YCaRQDGBlUBL/bjBmfWbQPBmYEAflcPBqiCKQMNKOkBSx7bBHaaVQB/pdkA+OIPBnpGwQG2HEUA9
/oPB9wnPQBcBc0Dk2YPBXhZtQOaJSkB9eqfBydkRQNI4g0CVbJjBufxCQEkNikAOH4zBS3HIQJUR
qr/fWa/BZqzTQBHsfb5+7LXBvZytQFKLZj4766HBa+m7QFsYXsCiAp/ByQKCQPPEB8BzDZjB5EqL
QObLisC8oZLBJIy0QLmyjL8QYqXBlzmmQKn9DsAAvp7BqGnLQJFpiT+Do7LBiWS4QJK1qD8Ii6jB
QfbMQB+uQEBOp5rBZtmHQEWzZUAGSpfBQ8jRQNquC0DstLrBJU61QKEmdUCzKa3BhvKwQIUfL0AZ
aaTBSXXYQNdGZECWjbXBCNoCQRYka0Bxn7DBnD7UQOQklECadr7BnSe6QFoLZEA/pIfBhDSuQD7+
j8AH8ZjBhTdqQLQdS8DdHpLBmYexQHlfZECGLpPBmeeFQK8qN0CB/J/BHYxJQCGXhkAsrpLB9zXx
QMELJkB+45jBPQjPQEuxFcAr7LHBWcPiQEuC3L7djr3B9umfQF+Jzz5fHprBI5bXQPbxZcBtF6TB
BCthQKZOmL/ArpfBlbSAQAFypcAbz43BpxXuQJPx+D/MlL/BW1e1QDuuDkDQ4L/B336WQFoxekAz
X7HBYoG8QKQgmUAsLqnBtecEQRdflUAR/qzBT9IEQRCaOUDGcqrBt+0OQeTwYUCG67bBhd3YQP42
tEBhBrvB46bsQL5XjkDaosTBwTa0QCkVkkB0E8LBN8afQPsGgkAdaIPBmue8QAyZIUAJ0YTBF0PY
QIccg0C5DIbBcLVWQDxsHUAoFaPBcawPQMl6g0CYAZbBj7ZQQFX4l0DpBYzB

>  <OMEGA_E>  (89) 
ELbePtqaGD8=

>  <OMEGA_NBR>  (89) 
     87927

$$$$
50225095
     RDKit          3D

 45 48  0  0  1  0  0  0  0  0999 V2000
    6.1102   -1.3722  -21.7984 C   0  0  0  0  0  0  0  0  0  0  0  0
    6.6563   -0.3723  -22.6132 C   0  0  0  0  0  0  0  0  0  0  0  0
    5.3923    0.3248  -20.2097 C   0  0  0  0  0  0  0  0  0  0  0  0
    5.6461   -3.2792  -19.5275 C   0  0  0  0  0  0  0  0  0  0  0  0
    3.7581   -1.8706  -18.9751 C   0  0  0  0  0  0  0  0  0  0  0  0
    4.0198   -3.9794  -18.0056 C   0  0  0  0  0  0  0  0  0  0  0  0
    5.4764   -1.0250  -20.5911 C   0  0  0  0  0  0  0  0  0  0  0  0
    4.9495   -2.0676  -19.7017 C   0  0  0  0  0  0  0  0  0  0  0  0
    5.9787    1.3436  -20.9948 C   0  0  0  0  0  0  0  0  0  0  0  0
    6.6074    0.9772  -22.2198 C   0  0  0  0  0  0  0  0  0  0  0  0
    6.4767    2.8227  -19.0436 C   0  0  0  0  0  0  0  0  0  0  0  0
    4.2347    3.2588  -18.9604 C   0  0  0  0  0  0  0  0  0  0  0  0
    6.6481    3.8524  -21.3172 C   0  0  0  0  0  0  0  0  0  0  0  0
    5.9144    2.7861  -20.4542 C   0  0  1  0  0  0  0  0  0  0  0  0
    6.5050    3.6730  -22.8419 C   0  0  0  0  0  0  0  0  0  0  0  0
    7.2431    4.8243  -23.5487 C   0  0  0  0  0  0  0  0  0  0  0  0
    5.0308    3.6429  -23.3155 C   0  0  0  0  0  0  0  0  0  0  0  0
    5.5000    3.2739  -16.7658 C   0  0  0  0  0  0  0  0  0  0  0  0
    5.1755   -4.2126  -18.6762 N   0  0  0  0  0  0  0  0  0  0  0  0
    3.3066   -2.8339  -18.1460 N   0  0  0  0  0  0  0  0  0  0  0  0
    5.3924    3.0231  -18.2084 N   0  0  0  0  0  0  0  0  0  0  0  0
    4.5079    3.1823  -20.2442 N   0  0  0  0  0  0  0  0  0  0  0  0
    2.9780    3.5193  -18.4359 N   0  0  0  0  0  0  0  0  0  0  0  0
    7.6445    2.6494  -18.7131 O   0  0  0  0  0  0  0  0  0  0  0  0
    7.3446    2.1339  -23.2990 S   0  0  0  0  0  0  0  0  0  0  0  0
    6.1756   -2.4082  -22.0964 H   0  0  0  0  0  0  0  0  0  0  0  0
    7.1188   -0.6399  -23.5517 H   0  0  0  0  0  0  0  0  0  0  0  0
    4.8708    0.5883  -19.3015 H   0  0  0  0  0  0  0  0  0  0  0  0
    6.5583   -3.4606  -20.0765 H   0  0  0  0  0  0  0  0  0  0  0  0
    3.2066   -0.9482  -19.0821 H   0  0  0  0  0  0  0  0  0  0  0  0
    3.6515   -4.7381  -17.3310 H   0  0  0  0  0  0  0  0  0  0  0  0
    6.2459    4.8412  -21.0514 H   0  0  0  0  0  0  0  0  0  0  0  0
    7.7190    3.8134  -21.0688 H   0  0  0  0  0  0  0  0  0  0  0  0
    7.1481    4.7073  -24.6383 H   0  0  0  0  0  0  0  0  0  0  0  0
    6.8021    5.7847  -23.2433 H   0  0  0  0  0  0  0  0  0  0  0  0
    8.3069    4.8039  -23.2692 H   0  0  0  0  0  0  0  0  0  0  0  0
    4.9986    3.5132  -24.4074 H   0  0  0  0  0  0  0  0  0  0  0  0
    4.5073    2.8054  -22.8313 H   0  0  0  0  0  0  0  0  0  0  0  0
    4.5392    4.5887  -23.0441 H   0  0  0  0  0  0  0  0  0  0  0  0
    4.4939    3.3981  -16.3387 H   0  0  0  0  0  0  0  0  0  0  0  0
    6.0010    2.4225  -16.2821 H   0  0  0  0  0  0  0  0  0  0  0  0
    6.0859    4.1892  -16.5956 H   0  0  0  0  0  0  0  0  0  0  0  0
    3.8533    3.3669  -20.9773 H   0  0  0  0  0  0  0  0  0  0  0  0
    2.2008    3.6644  -19.0482 H   0  0  0  0  0  0  0  0  0  0  0  0
    2.8487    3.5620  -17.4452 H   0  0  0  0  0  0  0  0  0  0  0  0
  1  2  2  0
  1  7  1  0
  2 10  1  0
  3  7  2  0
  3  9  1  0
  4  8  2  0
  4 19  1  0
  5  8  1  0
  5 20  2  0
  6 19  2  0
  6 20  1  0
  7  8  1  0
  9 10  2  0
  9 14  1  0
 10 25  1  0
 11 14  1  0
 11 21  1  0
 11 24  2  0
 12 21  1  0
 12 22  2  0
 12 23  1  0
 14 13  1  6
 13 15  1  0
 14 22  1  0
 15 16  1  0
 15 17  1  0
 15 25  1  0
 18 21  1  0
  1 26  1  0
  2 27  1  0
  3 28  1  0
  4 29  1  0
  5 30  1  0
  6 31  1  0
 13 32  1  0
 13 33  1  0
 16 34  1  0
 16 35  1  0
 16 36  1  0
 17 37  1  0
 17 38  1  0
 17 39  1  0
 18 40  1  0
 18 41  1  0
 18 42  1  0
 22 43  1  0
 23 44  1  0
 23 45  1  0
M  CHG  1  22   1
M  END
>  <OMEGA_C>  (90) 
CIfDQIOkr78eY67BHgDVQFKivr7c57TB0I2sQA5Mpj6QraHBPq20QMvdUcBQOJzBs4RwQFRv77/u
zJfB+qGAQKaufsB/C5DBxT6vQMwxg7+GuqTB9WGeQMhTBMAGnZ3Bc1G/QPb7qz9E9afBGHDTQL0m
ej83wrHBLUHPQIGnNEBAWZjBlYKHQC2QUED8rpfBcr3UQICOdkCbiarBZUK9QMxPMkAsoqPBlSjQ
QBgTa0ArvLbB2sfnQL5gmkCsY7zBlPygQCMlaUA+hrrBuP+vQA6IUUBfIIbBoZ2lQI7NhsDZaJXB
7p9TQOBeNcAOK5HB6o6sQBF6QUDbqpHBEEGQQCqqS0Ah9KHBVpc+QI47YUCrfJPBtZ/0QAuQKUCC
tJXBQwfrQBSRCEBUZLrBc57FQIEgGsBWxbDBZ83jQFjRI7/4abzBmd2bQPiaFj9iaZrB/t3RQAV7
XcCWnKDBBzlNQPe8cr8bqJjBF7JpQN+el8DnpYrBUd7HQM/qmkBCaajBDAL3QKsOdEDhjKjBbb3k
QByilkA4G8XBKKvZQPUbuUBS8rnB6OgEQeG5mUBbJ7rBSfSfQJfXYEBYQsPBvDuQQJKLM0B9prbB
NEGRQAPXkkBjWrjBAs6PQIB6WUCwtYLBKQjAQAcKG0CmQYLBEMDCQKENhkDFw4TB2px2QM57V0Bu
0afBatoMQFyFakDAYpjBx1E2QJ33Y0C7j4vBJMnNQNb9sL+G6azBrnzcQO1Cwr6M1bPBuHmwQFlI
oz64JqHBnoa2QCFgVMAmeJvBlal2QPax6b/o2ZfBY315QKw/f8CS4pDBPrm2QBkohL+/pqPBah2j
QHHnA8Ci25zBnja+QOl9qz8uHajBGk7UQDxpej96prHBzlbOQNLvRUC3W5rBnMKGQHGbU0AC/5bB
AnS6QA6ZdUB0d63B9iu1QFyHMUAqk6TBVkbiQBhNbkAOsrTBuUkGQU9re0Dcmq7BZlneQMTDmUBu
a73BnIW4QNCVX0CTNIfBXB2jQJpYiMAHeZXBdX1RQErDMsAs+JHB/vevQOFMXECHxZLBBpGIQHY6
OEAD5aDBhBdCQMmjZUDWo5HBpr/zQMZqNEBdX5jBmhXkQGOuB0AIhrvBrSLUQHrzGsAPrq7Br0bu
QPaaJr+Y6rrBadOgQLJJFT9avpnBnPTUQBHVYcA2NJ/Bj4dXQGgvXr89vZjBgfRaQLk3mMA5KozB
8BSeQO7ccUCKp7LBCoi7QPNWmkCrkanBjcwTQVFudUDGMbTBRnEGQe3CnUDV96rBFb0HQSevSkDE
S6jBnkv6QAgomEBLwcLBugHBQFxTlEAmFsLBqO7cQBuIuUBHpbnBxEabQJf8ckBg84LB+ZrCQMT2
H0DBZ4TBgxfSQKcgh0BInIXB5wReQDfLKUCmW6XBLtwJQK3vXUA3VpXBLddDQFheekAKE4rB

>  <OMEGA_E>  (90) 
4D1NPiQUyD4=

>  <OMEGA_NBR>  (90) 
    156067

$$$$
50225098
     RDKit          3D

 46 49  0  0  1  0  0  0  0  0999 V2000
    6.0527   -1.3710  -21.9482 C   0  0  0  0  0  0  0  0  0  0  0  0
    6.5090   -0.3417  -22.7735 C   0  0  0  0  0  0  0  0  0  0  0  0
    5.4093    0.2711  -20.2659 C   0  0  0  0  0  0  0  0  0  0  0  0
    3.9860   -2.0170  -18.9372 C   0  0  0  0  0  0  0  0  0  0  0  0
    5.7765   -3.4078  -19.8177 C   0  0  0  0  0  0  0  0  0  0  0  0
    4.3550   -4.2967  -18.1835 C   0  0  0  0  0  0  0  0  0  0  0  0
    5.5091   -1.0736  -20.6853 C   0  0  0  0  0  0  0  0  0  0  0  0
    5.0834   -2.1723  -19.8036 C   0  0  0  0  0  0  0  0  0  0  0  0
    5.9085    1.3225  -21.0725 C   0  0  0  0  0  0  0  0  0  0  0  0
    6.4564    0.9939  -22.3460 C   0  0  0  0  0  0  0  0  0  0  0  0
    3.6168   -3.0958  -18.1233 C   0  0  0  0  0  0  0  0  0  0  0  0
    6.4360    2.7928  -19.1151 C   0  0  0  0  0  0  0  0  0  0  0  0
    4.2764    3.5251  -19.0233 C   0  0  0  0  0  0  0  0  0  0  0  0
    6.5642    3.8353  -21.3722 C   0  0  0  0  0  0  0  0  0  0  0  0
    5.8439    2.7581  -20.5117 C   0  0  1  0  0  0  0  0  0  0  0  0
    6.3620    3.7072  -22.8952 C   0  0  0  0  0  0  0  0  0  0  0  0
    7.1262    4.8426  -23.5993 C   0  0  0  0  0  0  0  0  0  0  0  0
    4.8734    3.7478  -23.3161 C   0  0  0  0  0  0  0  0  0  0  0  0
    5.5594    3.4240  -16.8451 C   0  0  0  0  0  0  0  0  0  0  0  0
    5.4117   -4.4353  -19.0183 N   0  0  0  0  0  0  0  0  0  0  0  0
    5.4726    3.3717  -18.3103 N   0  0  0  0  0  0  0  0  0  0  0  0
    4.4424    3.1484  -20.2715 N   0  0  0  0  0  0  0  0  0  0  0  0
    3.0847    4.0004  -18.4972 N   0  0  0  0  0  0  0  0  0  0  0  0
    7.5571    2.4232  -18.7838 O   0  0  0  0  0  0  0  0  0  0  0  0
    7.1272    2.1667  -23.4439 S   0  0  0  0  0  0  0  0  0  0  0  0
    2.2455   -2.9510  -17.0566 Cl  0  0  0  0  0  0  0  0  0  0  0  0
    6.1171   -2.3969  -22.2797 H   0  0  0  0  0  0  0  0  0  0  0  0
    6.9062   -0.5755  -23.7502 H   0  0  0  0  0  0  0  0  0  0  0  0
    4.9463    0.5006  -19.3176 H   0  0  0  0  0  0  0  0  0  0  0  0
    3.4399   -1.0860  -18.9003 H   0  0  0  0  0  0  0  0  0  0  0  0
    6.6174   -3.5320  -20.4838 H   0  0  0  0  0  0  0  0  0  0  0  0
    4.0707   -5.1236  -17.5497 H   0  0  0  0  0  0  0  0  0  0  0  0
    6.1914    4.8227  -21.0620 H   0  0  0  0  0  0  0  0  0  0  0  0
    7.6427    3.7692  -21.1661 H   0  0  0  0  0  0  0  0  0  0  0  0
    6.9874    4.7590  -24.6873 H   0  0  0  0  0  0  0  0  0  0  0  0
    6.7404    5.8132  -23.2542 H   0  0  0  0  0  0  0  0  0  0  0  0
    8.1971    4.7674  -23.3596 H   0  0  0  0  0  0  0  0  0  0  0  0
    4.7983    3.6520  -24.4094 H   0  0  0  0  0  0  0  0  0  0  0  0
    4.3344    2.9169  -22.8375 H   0  0  0  0  0  0  0  0  0  0  0  0
    4.4292    4.7033  -23.0005 H   0  0  0  0  0  0  0  0  0  0  0  0
    4.6720    3.9343  -16.4427 H   0  0  0  0  0  0  0  0  0  0  0  0
    5.6073    2.4008  -16.4441 H   0  0  0  0  0  0  0  0  0  0  0  0
    6.4644    3.9758  -16.5510 H   0  0  0  0  0  0  0  0  0  0  0  0
    3.7193    3.1293  -20.9619 H   0  0  0  0  0  0  0  0  0  0  0  0
    2.2754    4.0749  -19.0798 H   0  0  0  0  0  0  0  0  0  0  0  0
    3.0347    4.2687  -17.5351 H   0  0  0  0  0  0  0  0  0  0  0  0
  1  2  2  0
  1  7  1  0
  2 10  1  0
  3  7  2  0
  3  9  1  0
  4  8  2  0
  4 11  1  0
  5  8  1  0
  5 20  2  0
  6 11  2  0
  6 20  1  0
  7  8  1  0
  9 10  2  0
  9 15  1  0
 10 25  1  0
 11 26  1  0
 12 15  1  0
 12 21  1  0
 12 24  2  0
 13 21  1  0
 13 22  2  0
 13 23  1  0
 15 14  1  6
 14 16  1  0
 15 22  1  0
 16 17  1  0
 16 18  1  0
 16 25  1  0
 19 21  1  0
  1 27  1  0
  2 28  1  0
  3 29  1  0
  4 30  1  0
  5 31  1  0
  6 32  1  0
 14 33  1  0
 14 34  1  0
 17 35  1  0
 17 36  1  0
 17 37  1  0
 18 38  1  0
 18 39  1  0
 18 40  1  0
 19 41  1  0
 19 42  1  0
 19 43  1  0
 22 44  1  0
 23 45  1  0
 23 46  1  0
M  CHG  1  22   1
M  END
>  <OMEGA_C>  (91) 
o6/BQLR9r7/xla/Be0nQQNH3rr4WMLbBGxmtQNLIij6EIKLB+Bp/QEAWAcB0f5fBzdi4QIoZWsCo
ip7BxFuLQHB+icDVd5HBb0qwQBprib+Be6XBPquiQI8HC8DZbZ7BnBK9QF1HqT95lKjBqprOQPZw
fj+jxLLBdnpnQN4hRsCG/JDBjvPNQPq8MkCk65jB89eIQAKbYUDAL5jB3A3SQEZ2dUBF+qrBMwG7
QDCEMED6F6TBJJXLQChCbUBWKbfBkgnkQFj2mkB0y7zBPvObQHrbb0B0h7rB/eaxQFoiW0DbwobB
uSytQAjujcCHJZjBfR+vQKrKV0B9e5LBSSiOQPJ/SUATLKLBt2tFQIMDgEA7+pPBCNTxQLQVG0BJ
RZbBUxLkQAirCkAYjbvBwLYPQLzcPMDsc4jBR7/DQG1mGcDPPLLBtP/cQIhUE79fAL7BukeeQHYn
AD9hiprBlyZcQNMBi7/nM5fBIsLTQH4MYsDh3qPB/0KCQKH0o8CvZYzBVCDGQIFTmkAOf6jB35D0
QFk7cUAkVKnB3pjfQHBJmECwf8XBjbHXQGwFukCCCLrBOycDQSuOmEBi4LrBi4uZQA+7aUBsRsPB
PbOKQI6uOkBAs7bB87uNQD6BlkD0ALjB7oCVQGzLe0CTioPB9G6zQMemGUCCjYPBwtzOQAJzfkCM
aITBTAhuQA5GSEALsqfBpJ8RQMplgkBqo5jBxTdCQG6ZiED8R4zBt7DIQMYvr7/nEa/Bu2vWQD0i
ob69iLXBjVmsQFY2cD4sPaLBss2AQBI0BMDU8ZfBNI66QJ5RXcBxuZ7BAgSLQHeCi8DPKpLBe4Oz
QPj/jL9vXqXB5eCkQKW6DcDulp7BriG5QNvTpz9l0ajBB/7OQMpjgj/Yi7LBTbVnQCarScAOrJHB
XBHNQEfaQEDiz5rBIMeHQGBiZEDOYpfBtdezQF5QdEDJba3BCTixQCnCLkAyp6TBJz3bQIqockAF
x7TB3IQCQaGfg0C0yK7BpBbUQBAIm0C/lb3B0Pu5QNFtY0Ciu4fBbo2tQMPkj8B7nZjBam+xQInM
Y0BSTZPB5gmGQNQvNkDfIqDBUXpJQKqlhUBNqJLBMXXwQPvsIkBdzJjBF/jgQNt/DUB9ubvB+RwO
QJ4xQMBaconBKFLOQPfsGMCzg7HBJ/fmQPYFB78q7bzBsdecQCs64D7fsJrBe/JeQHXekL89spfB
9CbWQOcXZcB31aPBsfuAQHg6psB3S43Br1SXQC+ubUC/hbLBkjmzQHd8mUCDa6nBfAgQQeWTgkBc
arTB0WgBQXTEo0CZPavBiwsFQefDV0AqaajBcMTvQIZam0BiBcPBxQG3QMYJk0BUH8LBIF/QQEDJ
ukBB57nBeWafQCNmgUCcgIPBqQ+9QGz9IEAl7YTBM+XXQAQbg0BxHYbB3BZXQHU0HEBKO6PB2mcP
QBOEgkB27ZXByvJQQInTlkAR+YvB

>  <OMEGA_E>  (91) 
eKHCPqAdDj8=

>  <OMEGA_NBR>  (91) 
     90852

$$$$
50225120
     RDKit          3D

 47 50  0  0  1  0  0  0  0  0999 V2000
    6.0599   -1.3595  -21.9388 C   0  0  0  0  0  0  0  0  0  0  0  0
    6.5467   -0.3376  -22.7536 C   0  0  0  0  0  0  0  0  0  0  0  0
    5.4129    0.2855  -20.2610 C   0  0  0  0  0  0  0  0  0  0  0  0
    5.7766   -3.3823  -19.8282 C   0  0  0  0  0  0  0  0  0  0  0  0
    3.9805   -1.9981  -18.9199 C   0  0  0  0  0  0  0  0  0  0  0  0
    4.2801   -4.2921  -18.1401 C   0  0  0  0  0  0  0  0  0  0  0  0
    5.5056   -1.0580  -20.6797 C   0  0  0  0  0  0  0  0  0  0  0  0
    5.0770   -2.1546  -19.7976 C   0  0  0  0  0  0  0  0  0  0  0  0
    5.9288    1.3306  -21.0639 C   0  0  0  0  0  0  0  0  0  0  0  0
    5.3779   -4.4463  -19.0073 C   0  0  0  0  0  0  0  0  0  0  0  0
    6.5022    0.9961  -22.3241 C   0  0  0  0  0  0  0  0  0  0  0  0
    3.5836   -3.0679  -18.0958 C   0  0  0  0  0  0  0  0  0  0  0  0
    6.4557    2.8108  -19.1199 C   0  0  0  0  0  0  0  0  0  0  0  0
    4.2839    3.4989  -19.0110 C   0  0  0  0  0  0  0  0  0  0  0  0
    6.5528    3.8518  -21.3816 C   0  0  0  0  0  0  0  0  0  0  0  0
    5.8552    2.7679  -20.5114 C   0  0  1  0  0  0  0  0  0  0  0  0
    6.3713    3.6892  -22.9038 C   0  0  0  0  0  0  0  0  0  0  0  0
    7.1010    4.8371  -23.6216 C   0  0  0  0  0  0  0  0  0  0  0  0
    4.8862    3.6663  -23.3418 C   0  0  0  0  0  0  0  0  0  0  0  0
    5.5680    3.3642  -16.8396 C   0  0  0  0  0  0  0  0  0  0  0  0
    5.4885    3.3704  -18.3058 N   0  0  0  0  0  0  0  0  0  0  0  0
    4.4525    3.1450  -20.2650 N   0  0  0  0  0  0  0  0  0  0  0  0
    3.0780    3.9175  -18.4701 N   0  0  0  0  0  0  0  0  0  0  0  0
    7.5681    2.4146  -18.7897 O   0  0  0  0  0  0  0  0  0  0  0  0
    6.0545   -5.6151  -19.0549 F   0  0  0  0  0  0  0  0  0  0  0  0
    7.1987    2.1661  -23.4036 S   0  0  0  0  0  0  0  0  0  0  0  0
    2.2215   -2.8795  -17.0229 Cl  0  0  0  0  0  0  0  0  0  0  0  0
    6.1082   -2.3849  -22.2743 H   0  0  0  0  0  0  0  0  0  0  0  0
    6.9608   -0.5754  -23.7223 H   0  0  0  0  0  0  0  0  0  0  0  0
    4.9430    0.5194  -19.3171 H   0  0  0  0  0  0  0  0  0  0  0  0
    6.6233   -3.5014  -20.4880 H   0  0  0  0  0  0  0  0  0  0  0  0
    3.4480   -1.0593  -18.8816 H   0  0  0  0  0  0  0  0  0  0  0  0
    3.9716   -5.1120  -17.5085 H   0  0  0  0  0  0  0  0  0  0  0  0
    6.1466    4.8326  -21.0935 H   0  0  0  0  0  0  0  0  0  0  0  0
    7.6303    3.8224  -21.1625 H   0  0  0  0  0  0  0  0  0  0  0  0
    6.9763    4.7283  -24.7091 H   0  0  0  0  0  0  0  0  0  0  0  0
    6.6775    5.7995  -23.2985 H   0  0  0  0  0  0  0  0  0  0  0  0
    8.1715    4.8047  -23.3704 H   0  0  0  0  0  0  0  0  0  0  0  0
    4.8272    3.5485  -24.4338 H   0  0  0  0  0  0  0  0  0  0  0  0
    4.3731    2.8244  -22.8540 H   0  0  0  0  0  0  0  0  0  0  0  0
    4.4029    4.6099  -23.0483 H   0  0  0  0  0  0  0  0  0  0  0  0
    4.6836    3.8674  -16.4217 H   0  0  0  0  0  0  0  0  0  0  0  0
    5.6034    2.3256  -16.4788 H   0  0  0  0  0  0  0  0  0  0  0  0
    6.4770    3.8947  -16.5195 H   0  0  0  0  0  0  0  0  0  0  0  0
    3.7296    3.1333  -20.9558 H   0  0  0  0  0  0  0  0  0  0  0  0
    2.2616    3.9649  -19.0456 H   0  0  0  0  0  0  0  0  0  0  0  0
    3.0247    4.1721  -17.5045 H   0  0  0  0  0  0  0  0  0  0  0  0
  1  2  2  0
  1  7  1  0
  2 11  1  0
  3  7  2  0
  3  9  1  0
  4  8  2  0
  4 10  1  0
  5  8  1  0
  5 12  2  0
  6 10  2  0
  6 12  1  0
  7  8  1  0
  9 11  2  0
  9 16  1  0
 10 25  1  0
 11 26  1  0
 12 27  1  0
 13 16  1  0
 13 21  1  0
 13 24  2  0
 14 21  1  0
 14 22  2  0
 14 23  1  0
 16 15  1  6
 15 17  1  0
 16 22  1  0
 17 18  1  0
 17 19  1  0
 17 26  1  0
 20 21  1  0
  1 28  1  0
  2 29  1  0
  3 30  1  0
  4 31  1  0
  5 32  1  0
  6 33  1  0
 15 34  1  0
 15 35  1  0
 18 36  1  0
 18 37  1  0
 18 38  1  0
 19 39  1  0
 19 40  1  0
 19 41  1  0
 20 42  1  0
 20 43  1  0
 20 44  1  0
 22 45  1  0
 23 46  1  0
 23 47  1  0
M  CHG  1  22   1
M  END
>  <OMEGA_C>  (92) 
/OrBQHIDrr+agq/BlH7RQD/VrL5bB7bBwTatQBIrkj56FqLBxNm4QLp3WMAkoJ7B/79+QM7A/7/7
W5fBx/aIQKRYicDlHpHB9y2wQJZsh7/3b6XBCHeiQKDkCcB6YZ7BArm9QDBSqj/KgqjBvxesQF1I
jsDmDpjBIhLQQCv9fj+pl7LB+VhlQLVXRMAzxJDBZZXOQLnjM0Cd9ZjB8hWJQJXtX0CAFpjBJbDR
QK2DdkCQDavBx127QIQkMUBJF6TBWeHLQLsbbEAKO7fBkTvjQGDJmkAJ+bzBcVucQBGlakDru7rB
cS2yQP9OV0Bot4bBKaKvQEW0V0BhcpLBNnuOQG1HSUC0HqLBT/5EQF+4ekDJwpPBJi7yQGmIGkBi
UZbBp77BQPeus8B5cJjBilvmQLehCkB5OrvBwCwOQC9JOMDgLojBiHbDQEWiGMDAMbLB+L7eQNdL
E787x73BWS2eQA35BD91iZrBIPLTQKMWYMBT56PBZKtcQNGVh7+EDZfBBC5+QKOVo8ByEYzB6rDE
QLCkmkBpv6jBZCv0QPyhdEC3TKnB3D3fQJdOl0A0rMXB3a3VQFuVuUBUY7rBTr4CQXnAmUCI9rrB
BHiaQGgaY0B+eMPBhfCLQL3CNED51LbBl+SMQECEk0DXYrjBR+CVQO+Dd0C+X4PBU0+zQGjXFECH
1IPBVkPPQNVCeUD7J4TBK7JuQEeHSECJpafBW70QQCfBfUBMXZjB55NBQHSBhUBECYzBbB/IQLgi
sb98BK/B5t/VQHHprb4RkbXBjfqtQACfcT4vCaLBtnS5QE9WXMCAgp7BlLh+QNZyAcC5CpjBB5eF
QMVMisCJyJHBW9GzQDr2jL8GOqXBASOkQNatDMDteZ7BvDC6QEa8pj/cwqjB+zWqQE79j8AkM5jB
FOXOQD1Nfz9xnrLBdntgQP4uRcD1s5HB04PNQEt/Q0AEEZvBbp+HQDcNYEBiR5fBQVOyQE+fckDE
tK3Be2yxQFFILkADxqTB7nvYQCtOcUBpeLXB0WQBQdtahUD5CLDB/43OQAy3mEDefb7BI8W6QCF/
YUBc0ofBV4CxQFR0YkBkW5PBzlCGQAt2M0CQJqDBIvJHQBpWgUCzUZLBdzTyQLxEK0CWVpnBAwm/
QFzetcDoSZjB4V3fQKoEC0AhE7zB5PMFQDxMNsC7wInBcA3NQNgiGsA8dbHB0RLmQADmD78L/bzB
o/GfQLq35T5yU5rBIZTVQAIzZcBuaKPB9sBdQF5lib+XAJjBOcNzQL5fpMAn7YzBLBCVQAalakCZ
frLBJvGxQB7gmED0z6nBBXIOQcpXhEDx7rXBifn/QBTzpUCryazBg98EQVK3XUCIfqnB7DfpQMos
mUBMPMTB4wOxQMsEj0A8nsLBhVPKQCvcuECsELvB0aifQDFvfUB7bYPB1Me/QAMgH0AeK4XBeNDX
QBmag0CIPYbBHgZYQOsIGUDUSaPBtt0NQOw+ekCggpXBTItOQHkMkkABjIvB

>  <OMEGA_E>  (92) 
+MipPpavAz8=

>  <OMEGA_NBR>  (92) 
     92752

$$$$
290128
     RDKit          3D

 58 61  0  0  1  0  0  0  0  0999 V2000
    5.1484   -2.2416  -19.8545 C   0  0  0  0  0  0  0  0  0  0  0  0
    6.4076   -1.3260  -21.7717 C   0  0  0  0  0  0  0  0  0  0  0  0
    6.9538   -0.2234  -22.4641 C   0  0  0  0  0  0  0  0  0  0  0  0
    5.3368    0.1745  -20.1582 C   0  0  0  0  0  0  0  0  0  0  0  0
    5.6246   -1.1269  -20.6065 C   0  0  0  0  0  0  0  0  0  0  0  0
    6.6992    1.0726  -21.9932 C   0  0  0  0  0  0  0  0  0  0  0  0
    5.8642    1.2531  -20.8797 C   0  0  0  0  0  0  0  0  0  0  0  0
    6.4560    2.8884  -19.1917 C   0  0  0  0  0  0  0  0  0  0  0  0
    4.2217    3.3390  -18.9393 C   0  0  0  0  0  0  0  0  0  0  0  0
    7.2640    2.4025  -22.3838 C   0  0  0  0  0  0  0  0  0  0  0  0
    5.6964    4.6312  -23.9398 C   0  0  0  0  0  0  0  0  0  0  0  0
    5.1894    3.8764  -22.7095 C   0  0  0  0  0  0  0  0  0  0  0  0
    7.1591    4.7163  -21.3379 C   0  0  0  0  0  0  0  0  0  0  0  0
    7.7287    5.3867  -22.5971 C   0  0  1  0  0  0  0  0  0  0  0  0
    6.5682    5.8223  -23.5096 C   0  0  1  0  0  0  0  0  0  0  0  0
    5.7510    2.7018  -20.5091 C   0  0  1  0  0  0  0  0  0  0  0  0
    6.3428    3.4603  -21.7302 C   0  0  2  0  0  0  0  0  0  0  0  0
    8.5812    6.5957  -22.1796 C   0  0  0  0  0  0  0  0  0  0  0  0
    6.3648    7.5996  -25.1143 C   0  0  0  0  0  0  0  0  0  0  0  0
    7.5070    3.8763  -14.6883 C   0  0  0  0  0  0  0  0  0  0  0  0
    5.6298    3.2317  -16.8672 C   0  0  0  0  0  0  0  0  0  0  0  0
    6.2432    4.6128  -16.6184 C   0  0  0  0  0  0  0  0  0  0  0  0
    4.7613   -3.1424  -19.2243 N   0  0  0  0  0  0  0  0  0  0  0  0
    5.4260    3.0701  -18.2875 N   0  0  0  0  0  0  0  0  0  0  0  0
    4.3554    3.0680  -20.2108 N   0  0  0  0  0  0  0  0  0  0  0  0
    3.0526    3.7840  -18.3415 N   0  0  0  0  0  0  0  0  0  0  0  0
    7.6391    2.6873  -18.9345 O   0  0  0  0  0  0  0  0  0  0  0  0
    7.1052    6.4444  -24.6853 O   0  0  0  0  0  0  0  0  0  0  0  0
    6.5175    4.7865  -15.2220 O   0  0  0  0  0  0  0  0  0  0  0  0
    6.5875   -2.3281  -22.1321 H   0  0  0  0  0  0  0  0  0  0  0  0
    7.5597   -0.3763  -23.3450 H   0  0  0  0  0  0  0  0  0  0  0  0
    4.7263    0.3377  -19.2824 H   0  0  0  0  0  0  0  0  0  0  0  0
    8.2930    2.5066  -22.0091 H   0  0  0  0  0  0  0  0  0  0  0  0
    7.2592    2.5142  -23.4781 H   0  0  0  0  0  0  0  0  0  0  0  0
    6.2940    3.9499  -24.5633 H   0  0  0  0  0  0  0  0  0  0  0  0
    4.8373    5.0001  -24.5193 H   0  0  0  0  0  0  0  0  0  0  0  0
    4.4844    4.5233  -22.1667 H   0  0  0  0  0  0  0  0  0  0  0  0
    4.6689    2.9674  -23.0452 H   0  0  0  0  0  0  0  0  0  0  0  0
    7.9868    4.4210  -20.6763 H   0  0  0  0  0  0  0  0  0  0  0  0
    6.5045    5.4265  -20.8115 H   0  0  0  0  0  0  0  0  0  0  0  0
    8.3616    4.6663  -23.1362 H   0  0  0  0  0  0  0  0  0  0  0  0
    5.9389    6.5374  -22.9595 H   0  0  0  0  0  0  0  0  0  0  0  0
    8.9932    7.0818  -23.0762 H   0  0  0  0  0  0  0  0  0  0  0  0
    7.9550    7.3130  -21.6288 H   0  0  0  0  0  0  0  0  0  0  0  0
    9.4055    6.2576  -21.5344 H   0  0  0  0  0  0  0  0  0  0  0  0
    6.8326    8.0214  -26.0161 H   0  0  0  0  0  0  0  0  0  0  0  0
    5.3288    7.3075  -25.3412 H   0  0  0  0  0  0  0  0  0  0  0  0
    6.3661    8.3539  -24.3137 H   0  0  0  0  0  0  0  0  0  0  0  0
    7.6535    4.0800  -13.6173 H   0  0  0  0  0  0  0  0  0  0  0  0
    7.1613    2.8404  -14.8204 H   0  0  0  0  0  0  0  0  0  0  0  0
    8.4589    4.0160  -15.2216 H   0  0  0  0  0  0  0  0  0  0  0  0
    6.3116    2.4510  -16.4989 H   0  0  0  0  0  0  0  0  0  0  0  0
    4.6660    3.1539  -16.3428 H   0  0  0  0  0  0  0  0  0  0  0  0
    7.1806    4.7021  -17.1870 H   0  0  0  0  0  0  0  0  0  0  0  0
    5.5379    5.3891  -16.9498 H   0  0  0  0  0  0  0  0  0  0  0  0
    3.6169    3.1040  -20.8842 H   0  0  0  0  0  0  0  0  0  0  0  0
    2.2293    3.9195  -18.8927 H   0  0  0  0  0  0  0  0  0  0  0  0
    3.0326    3.9695  -17.3590 H   0  0  0  0  0  0  0  0  0  0  0  0
  1  5  1  0
  1 23  3  0
  2  3  2  0
  2  5  1  0
  3  6  1  0
  4  5  2  0
  4  7  1  0
  6  7  2  0
  6 10  1  0
  7 16  1  0
 16  8  1  1
  8 24  1  0
  8 27  2  0
  9 24  1  0
  9 25  2  0
  9 26  1  0
 17 10  1  6
 11 12  1  0
 11 15  1  0
 12 17  1  0
 13 14  1  0
 13 17  1  0
 14 15  1  0
 14 18  1  0
 15 28  1  0
 16 17  1  0
 16 25  1  0
 19 28  1  0
 20 29  1  0
 21 22  1  0
 21 24  1  0
 22 29  1  0
  2 30  1  0
  3 31  1  0
  4 32  1  0
 10 33  1  0
 10 34  1  0
 11 35  1  0
 11 36  1  0
 12 37  1  0
 12 38  1  0
 13 39  1  0
 13 40  1  0
 14 41  1  6
 15 42  1  1
 18 43  1  0
 18 44  1  0
 18 45  1  0
 19 46  1  0
 19 47  1  0
 19 48  1  0
 20 49  1  0
 20 50  1  0
 20 51  1  0
 21 52  1  0
 21 53  1  0
 22 54  1  0
 22 55  1  0
 25 56  1  0
 26 57  1  0
 26 58  1  0
M  CHG  1  25   1
M  END
>  <OMEGA_C>  (93) 
yb+kQNZ2D8D+1Z7B+QrNQBS6qb9vLK7BI4XeQNjPZL6PtrPBx8aqQCCjMj73Q6HBrfyzQHw+kL8F
2qTB71/WQMZJiT8c8q/Bl6e7QH5loD+qCafBcZfOQILbOECEiJnBWRiHQNayVUCzg5fBs3LoQDbC
GUAaErPB/Ei2QMEylECphL/Bfg+mQJIXeED9rLXBexflQDjslkD1s6rBmFH3QHtfrED1xrTBdC7S
QK9QukDDE7zBMQi4QITpLECoEqTBnfjKQDZ2XUCB163Bn0wJQd4P00C9b7HBb6zLQNUv80Am6sjB
hjnwQH4VeEBWA2vBRie0QCjUTkD974bBmMjHQK+bk0B38oTBwlyYQIIdScBFy5nB5aGtQOZ7REDk
TJLBE1+LQHxaREDKr6HBmF1DQH4tckBau5LBTnP0QPL7K0DYeZfBdl3jQI04zkBve8XBbo/QQLkq
mUBsjXPBfszSQBb/FMCGDrHBuujxQD6mwL6SwrrB3D2XQKTprD5EQprB7q8EQZpsIECuErDBoEvo
QNjnIEA+07vBamjJQOXLfEClgcTBicuaQB8BoECaJ8TBWICPQM++kEBpVbHB1GeVQFfpPUCHXLjB
0pP/QIB4jUAFaaXB1iTQQCymrUDnfabBIskFQZJSlUDuFrnBegu+QLwy0UAQrbfBAuQPQcKd4kAh
nLjBk4/+QPwD6kC0B63BHX0WQY8+yECFRqzBfKTaQJ9XAEEPIdDB2IWqQCfX6UDQusrBNLfLQLip
BUGFgsLBoen0QLmPgkCK4FnBbynlQM/JNUCEIG3BzFcHQRCDgECBi3PB/PjJQFndHEDR/YPBiU+V
QAjZSUAUvoLBmsflQNZ3lkACf4nBdzaxQDlzrEA3mYfBVXtnQKyoRkDLEqfBKa0OQMDYekBSJJfB
PhZCQLAMfkBQ34rBaPqVQGJIC8BBgJ7BTKnBQFv/sr+Zsq3BwQvXQORcur6dMbPBuMKkQBgOVT6R
v6DB2kSpQGrVjr8/Z6TB/3zTQMblcj//Zq/BBtK5QCkbnD/Ha6bBkF3PQJZtPUB8Z5nBP2SIQAz5
XkDa3ZfBhsvpQGI9DUCGl7LBOuifQMWQp0AcQrXB+KqrQGB1cEDHhrbBlJbrQL1ikUBh5qrBxp7y
QOVFrEDo47TBthnIQLssxECqLbfBaAG5QA70K0At66PBp0XOQH7UVUCm763BF+MLQeGNy0BFQLPB
QO+wQOMW+UDq7MPBWHDsQB7YX0AON2nBJKS3QMyPfUDGHIjBZzC3QKigLEBxK4HB7HSGQE5pQsAu
kJnBWc+wQFYIZkCAM5PBBrmMQMS/SEAA6KHB73lDQAobcEAu15LBUqT0QI4xLkCv+5bBmhXJQE+A
0kABGMLBAyLBQFDkQUAGjGzBLeHDQL16GsAJl7DBQOTpQBXKFL+AObrBS6aRQOlY3z7myJnBAyUF
QXshD0B2N6/BupPrQNtiEkBmW7vBBQKHQEXyr0BxHbvBKbqTQFMbrUBwHq3BNM2OQLYiSUBObrXB
PrS4QJjPZUB3l77BOT4FQeiEhUCY56fBRAvcQGjWpEAFrqTBku/5QLwdl0BvrrvBaiPGQMXk30DV
xrHBBisOQaaq3kBnjbrBQD0IQTvw4EDUgKzBsJkaQaKGuUBphLHBbCezQOoIAUGIaszBBjiPQHWe
80B8zMHBqfy9QOeFCUEP9b7BdTbxQIqObkCGK1jBQpMBQQbVLUCtKW7BS+LxQD71jEDfyHLBJgSe
QBaFlEAYfoXB/cLWQNjojkAwTofBaz6XQGUxD0CihIHBEyHPQB1E/j9HN4TBAPhqQIXySkA2ZqfB
wrIMQFvTa0Be8ZbBs4pCQMhdgEC6HYvB6LOYQG99CsCRB57BEXXEQFI4sr9QPq3B5m/ZQIaztb51
zbLB2lKkQPDaZj6/4aDBGdSqQKxljb/OK6TBt0vUQF38dj+bSK/B2tK4QLLZnj84pKbBZgbPQGD7
OEDlVZnB9JOHQKX1WEAIpZfBuq/qQNucDkD0V7LBSgmeQB12pUAxGbbBcjmrQB2ebEBC0LbBqpLp
QCLpkkAiJavBxnLwQIuerEBQZbXBQXTFQHfawkDnLbjBNa+4QNdCLUBG/6PBl/LNQKt3VkA1BK7B
Yz8KQZpFzUDo87PBNX2tQKuK9EC8qcXBLQC1QF8rw0DQOYfB8UCxQO2hREBlbIbBaEzVQEE+fkAK
JILBsiyKQIpkQcBf3pjBNe6tQJEFSUD6LJLBmy+NQN49TUAW66HBzwZCQA+LcUA5F5PBC9/0QCxR
LEBsSZfBPsfGQDwrz0DMQsPB5AjZQGN6pkAsL4jBiPDHQLp3GsC66q/BXi3tQNAyE78hrLnBSCCQ
QAOC6T41HprB3E4FQQCHEUBHqK7BWcztQGtWE0DVFrvBg0WFQN4ZrEC5ILzBaTORQMcGrEADEq7B
iN2OQBwfREBokbXBtrC4QCj+X0Adyr7BDk0EQTWOiEAe5afBQ9rYQOOnpkCwLaXB9u/4QDyblkAu
7bvBAEfCQMx830CHH7PBSG0MQc5d30AIbLvBLBYGQTZz40COca3Bsy8ZQc13vEDg87HByRCwQCP4
+0CgPc7BzNCLQFhV7kB2n8PBrUi5QPbrB0Gs9MDBm8y6QKT430CbEozBg+GXQF4Es0AIFIrBKt6w
QChezEDgln3BWs+3QE8UAkCPEYTBH7WSQNljWUBD54LBfYPOQCMJh0CWeHPBfsTzQNo4W0DspILB
6jduQNNnWED2iafBF88OQKRge0BDupfBZ6M9QK9ueUCzK4vBneWhQHCLEsBfiZ/BTRTMQJtHrb+a
aq7BVl3eQJCjfr5curPBiDyqQCARCT48SqHBVpWyQJT2lL/aJ6XB/5zWQFQzhT/eyK/BF0C8QK6p
mz8UyqbBDuTOQMGfPkCgmZnBxCyIQHMCX0BxzZfBLZDoQGmfF0BC3bLBB4i1QDihkECNyb/BtUWl
QDeCckCnzrXB343jQPJelkCN8arBzRD2QIjdqkApELXBWjPRQPJMt0BhmbzBsua3QMXrKkCc8aPB
pzDKQAXAWkBk3q3BXzMIQZZc0kA82bHBGNLNQFp08EAia8nBniPFQMQSLz/3wnzBWqq4QJKphECA
m4jBzkaxQK2zP0CCvIDBv1+UQCwpTcCh3ZrBHz+xQHMAbEBlmZPBciKLQB13QEDrhaHB18VDQAVA
cECOoZLBtxv0QL+YLUD4TpfBC+LiQAzDyUA6IMbBeUzQQBop+z9zwoLBAYjRQFqEFsAybLHBNg7y
QLehyb6bu7rBv4uWQMD3kz5+TJrBOZIEQZkhH0DNqq/B6j/pQIdZHkBSn7vBK9XIQLbndEBcoMTB
6QOaQLTMm0AIg8TB1E+OQKcSjkC0orHBTRqVQONON0AnU7jBYdb9QCb1jUAde6XBTALOQHJErUBr
/KbBkoMFQZK3k0CbH7nBycC8QNXNzkCggLjBiPEOQVVj4UCZDrnB0p/7QI1p6UDxsa3BjkUVQaqO
yEBTfazBLQXdQGC5/EA4vdDBhdqrQF6+6UAgAcvB9nPQQOtCBEHnB8PBUGXeQIQ3N73oRoDBvsrB
QNjPRD9KS2vBs6emQOt8sT5S24HBQXeiQJL0nkBOwYbB0NHZQDMYkEDs2YfBS+O0QNw6V0C4+3DB
TdSQQLjWJUBl04HBqSNlQOnkOEDbj6bBtSoMQIJYZUCPWZbB5iREQIPLg0CjLovB

>  <OMEGA_E>  (93) 
NP1wPz7Bdj86enQ/anVxPw==

>  <OMEGA_NBR>  (93) 
     41443

$$$$
298703
     RDKit          3D

 57 60  0  0  1  0  0  0  0  0999 V2000
    5.1289   -2.2507  -19.8896 C   0  0  0  0  0  0  0  0  0  0  0  0
    6.3923   -1.3265  -21.8016 C   0  0  0  0  0  0  0  0  0  0  0  0
    6.9530   -0.2201  -22.4769 C   0  0  0  0  0  0  0  0  0  0  0  0
    5.3052    0.1632  -20.1891 C   0  0  0  0  0  0  0  0  0  0  0  0
    5.5983   -1.1342  -20.6422 C   0  0  0  0  0  0  0  0  0  0  0  0
    6.7049    1.0714  -21.9906 C   0  0  0  0  0  0  0  0  0  0  0  0
    5.8518    1.2447  -20.8895 C   0  0  0  0  0  0  0  0  0  0  0  0
    6.4484    2.8588  -19.1777 C   0  0  0  0  0  0  0  0  0  0  0  0
    4.2220    3.3069  -18.9325 C   0  0  0  0  0  0  0  0  0  0  0  0
    7.3067    2.4005  -22.3288 C   0  0  0  0  0  0  0  0  0  0  0  0
    5.2115    3.8203  -22.7039 C   0  0  0  0  0  0  0  0  0  0  0  0
    7.1120    4.7419  -21.3304 C   0  0  0  0  0  0  0  0  0  0  0  0
    5.7220    4.5222  -23.9654 C   0  0  2  0  0  0  0  0  0  0  0  0
    7.7158    5.3867  -22.5885 C   0  0  1  0  0  0  0  0  0  0  0  0
    6.6067    5.7384  -23.6043 C   0  0  1  0  0  0  0  0  0  0  0  0
    5.7505    2.6885  -20.5004 C   0  0  1  0  0  0  0  0  0  0  0  0
    6.3521    3.4493  -21.7108 C   0  0  2  0  0  0  0  0  0  0  0  0
    4.4979    4.9742  -24.7770 C   0  0  0  0  0  0  0  0  0  0  0  0
    8.4917    6.6489  -22.1775 C   0  0  0  0  0  0  0  0  0  0  0  0
    5.9695    4.7648  -16.7644 C   0  0  0  0  0  0  0  0  0  0  0  0
    5.6311    3.2744  -16.8761 C   0  0  0  0  0  0  0  0  0  0  0  0
    6.3743    5.0973  -15.3388 C   0  0  0  0  0  0  0  0  0  0  0  0
    4.7495   -3.1513  -19.2546 N   0  0  0  0  0  0  0  0  0  0  0  0
    5.4120    2.9843  -18.2715 N   0  0  0  0  0  0  0  0  0  0  0  0
    4.3574    3.0556  -20.2062 N   0  0  0  0  0  0  0  0  0  0  0  0
    3.0657    3.7988  -18.3464 N   0  0  0  0  0  0  0  0  0  0  0  0
    7.6433    2.7403  -18.9243 O   0  0  0  0  0  0  0  0  0  0  0  0
    7.2249    6.2123  -24.7947 O   0  0  0  0  0  0  0  0  0  0  0  0
    6.6312    6.4266  -15.2672 F   0  0  0  0  0  0  0  0  0  0  0  0
    5.3621    4.7765  -14.4885 F   0  0  0  0  0  0  0  0  0  0  0  0
    7.4945    4.3984  -15.0093 F   0  0  0  0  0  0  0  0  0  0  0  0
    6.5693   -2.3259  -22.1706 H   0  0  0  0  0  0  0  0  0  0  0  0
    7.5640   -0.3667  -23.3552 H   0  0  0  0  0  0  0  0  0  0  0  0
    4.6762    0.3213  -19.3255 H   0  0  0  0  0  0  0  0  0  0  0  0
    8.3125    2.4904  -21.8926 H   0  0  0  0  0  0  0  0  0  0  0  0
    7.3672    2.5299  -23.4195 H   0  0  0  0  0  0  0  0  0  0  0  0
    4.5046    4.4897  -22.1919 H   0  0  0  0  0  0  0  0  0  0  0  0
    4.6922    2.8975  -23.0020 H   0  0  0  0  0  0  0  0  0  0  0  0
    7.9188    4.4957  -20.6243 H   0  0  0  0  0  0  0  0  0  0  0  0
    6.4143    5.4489  -20.8578 H   0  0  0  0  0  0  0  0  0  0  0  0
    6.3119    3.8122  -24.5636 H   0  0  0  0  0  0  0  0  0  0  0  0
    8.4127    4.6751  -23.0553 H   0  0  0  0  0  0  0  0  0  0  0  0
    5.9671    6.5206  -23.1693 H   0  0  0  0  0  0  0  0  0  0  0  0
    4.8323    5.4838  -25.6927 H   0  0  0  0  0  0  0  0  0  0  0  0
    3.8922    4.0965  -25.0463 H   0  0  0  0  0  0  0  0  0  0  0  0
    3.8927    5.6660  -24.1728 H   0  0  0  0  0  0  0  0  0  0  0  0
    8.9284    7.1187  -23.0712 H   0  0  0  0  0  0  0  0  0  0  0  0
    7.8068    7.3572  -21.6886 H   0  0  0  0  0  0  0  0  0  0  0  0
    9.2952    6.3738  -21.4784 H   0  0  0  0  0  0  0  0  0  0  0  0
    6.8009    5.0020  -17.4444 H   0  0  0  0  0  0  0  0  0  0  0  0
    5.0876    5.3609  -17.0415 H   0  0  0  0  0  0  0  0  0  0  0  0
    6.4663    2.6696  -16.4932 H   0  0  0  0  0  0  0  0  0  0  0  0
    4.7218    3.0512  -16.2986 H   0  0  0  0  0  0  0  0  0  0  0  0
    3.6222    3.1053  -20.8821 H   0  0  0  0  0  0  0  0  0  0  0  0
    2.2603    3.9852  -18.9090 H   0  0  0  0  0  0  0  0  0  0  0  0
    3.0372    3.9670  -17.3610 H   0  0  0  0  0  0  0  0  0  0  0  0
    7.7732    6.9609  -24.5909 H   0  0  0  0  0  0  0  0  0  0  0  0
  1  5  1  0
  1 23  3  0
  2  3  2  0
  2  5  1  0
  3  6  1  0
  4  5  2  0
  4  7  1  0
  6  7  2  0
  6 10  1  0
  7 16  1  0
 16  8  1  1
  8 24  1  0
  8 27  2  0
  9 24  1  0
  9 25  2  0
  9 26  1  0
 17 10  1  6
 11 13  1  0
 11 17  1  0
 12 14  1  0
 12 17  1  0
 13 15  1  0
 13 18  1  0
 14 15  1  0
 14 19  1  0
 15 28  1  0
 16 17  1  0
 16 25  1  0
 20 21  1  0
 20 22  1  0
 21 24  1  0
 22 29  1  0
 22 30  1  0
 22 31  1  0
  2 32  1  0
  3 33  1  0
  4 34  1  0
 10 35  1  0
 10 36  1  0
 11 37  1  0
 11 38  1  0
 12 39  1  0
 12 40  1  0
 13 41  1  6
 14 42  1  6
 15 43  1  1
 18 44  1  0
 18 45  1  0
 18 46  1  0
 19 47  1  0
 19 48  1  0
 19 49  1  0
 20 50  1  0
 20 51  1  0
 21 52  1  0
 21 53  1  0
 25 54  1  0
 26 55  1  0
 26 56  1  0
 28 57  1  0
M  CHG  1  25   1
M  END
>  <OMEGA_C>  (94) 
SCCkQEILEMD4HZ/BeY3MQLfKqb+saa7Bm37eQHhmYb6d0LPB1MOpQNgmJz5Ng6HBgiWzQHEtkb8p
I6XBV47WQLskiT/F7K/BNkK7QOhRnz+nHafBAVnOQBX3NkDfa5nBnRqHQKKkU0C4dZfBMNDpQC6i
GUByobLBSsSmQA5/dECrobXBy5XjQMm9l0CPpKrBYRq3QHm1kEAVub/Br+f2QJ9frEBLtbTB62nT
QEOht0CR1bzBvQO4QIIQLEDeAKTBbUTLQL7BXECrr63BDe+PQPAsn0BAN8bBFN4HQXrD1ECXa7HB
LAa/QCp5mEBmHYbB0DG0QCqPUUA9AofBd/rLQOEco0DEa3XBtvuXQAyvScCDCZrBVi+tQP/9PkD7
K5LBOXCLQFaOQ0AzpqHB4zREQL4ec0BcxZLBmJX0QMphL0AMZZfBEDLnQDXLxkB3W8bBKDPUQPqm
zUCNRnTB8ZWrQEbZmEDD0GfB/9LvQJm/jEDkJXDBiDfSQELcFMBvXbHBsgzyQCPCu75x17rBiqOV
QMmGpD6dmprB0/8EQd1iH0AJJK/Bt7/rQDrpIUAwW7vB8CWQQNSrj0D6iLHBUSaWQCxwOUADBLjB
CGf9QOzcj0Ce/qTBK0LNQMJdrkDA3KbBefvJQFj7c0BSgsTBmZoGQRealUAxcbjBwvK+QIOo0ECj
WrnBbaKaQCB7r0Clis3BTxl5QB8Wg0DeXsjBTSF5QBZQtUDUYcHBsNoOQVfM40C/kbjBDtH5QIpu
60BJgq3B9LgUQR32y0C106vBEqHZQLsQoEAljovBOc2iQFmMq0AXVYjBPuzOQB7bKkD/8YPBWRmX
QBJGQ0CXY4LBINJnQEe9RkCWDqfB76gQQDEOf0CTRZfBbGFCQCDjfUBl44rBtL34QHq/3kArusTB
N2yjQE1kEcCJqJ7BC2XQQChVrb/q96zBVc7hQKj/hb5VnrLBi/CnQCC4Lj65aqHBY5yzQPxRkr8g
ZaTB6OfWQDTbhT8nk6/BRua5QKi7nz/5JKfBk6bOQOKOOEDbqpnB5jmHQB7qVECOfpfBmL7nQCZL
GECOObPBXbCmQMBee0CIh7XBZGXmQAOklkDMxarBiKq2QHYMlkD4Y7/Birj4QO42rEA82LTBienT
QLh/u0DwErzBiae3QOqTLUB+LaTB/lfLQKqeXUA6463BClKPQIxHp0B9ZcXBG38KQRQp0kDUgbHB
GgCzQDIZiECXV4HBtwOyQJpmOEA90IbBIjLaQM4Do0BzpoTBbr6WQAdYTcA1GZrBrLKtQDAmQUD2
XJLBbqKLQNCmSEC7waHBgRJDQKTrbkCzp5LBKrn0QE7WLEDLxpfBClnlQMSdzkDZb8XBUhPdQFZ9
xED/nnvBRJj+QIhJi0CK7oPBIwHWQOqKskDgx47BzRvZQHYdF8CHNK/Btlz3QJz/276fPLnBfNaR
QNePsD4s7JrB/p8EQcMWIECftbDBcKblQExRHUCc/LvB9AGRQHm8kkBRBLHBCw2VQFR4QkBUQLjB
pnQAQa2XjEDzjqXB+/7RQC6arUBdeabB1YXIQJ8cgEDZoMTBHycGQZ7klEDxQbnBIqrAQMP90kAI
oLfB+s+ZQHv5uECFiczBMaJ1QKdgjEAK1cfBzVp6QPTOvEBUHcDBqxQRQZet4UDor7jBRdcAQXJj
6UBC/azBgbAXQdWVxkDEc6zBHsiVQKqxmUBwhIPBn92zQAxNg0D/QHHBeu7PQDgzFkCOBIXB/rOW
QEKQE0BUtoPBbO1oQBKDUECuL6fBUOAOQOyFeUA1F5fB0NdAQC0Yd0C5uYrBmm33QBq/5UDgdsPB

>  <OMEGA_E>  (94) 
luB4PzwkeT8=

>  <OMEGA_NBR>  (94) 
     46972

$$$$
298712
     RDKit          3D

 58 62  0  0  1  0  0  0  0  0999 V2000
    4.7575   -2.5353  -20.4858 C   0  0  0  0  0  0  0  0  0  0  0  0
    6.3688   -1.5678  -22.0557 C   0  0  0  0  0  0  0  0  0  0  0  0
    7.0478   -0.4709  -22.5890 C   0  0  0  0  0  0  0  0  0  0  0  0
    5.1710   -0.1269  -20.5048 C   0  0  0  0  0  0  0  0  0  0  0  0
    5.4364   -1.3969  -21.0211 C   0  0  0  0  0  0  0  0  0  0  0  0
    6.7687    0.7866  -22.0795 C   0  0  0  0  0  0  0  0  0  0  0  0
    5.8417    0.9590  -21.0458 C   0  0  0  0  0  0  0  0  0  0  0  0
    6.5119    2.6478  -19.3137 C   0  0  0  0  0  0  0  0  0  0  0  0
    4.3152    3.2895  -19.0052 C   0  0  0  0  0  0  0  0  0  0  0  0
    7.3908    2.0932  -22.4740 C   0  0  0  0  0  0  0  0  0  0  0  0
    7.8482    1.9448  -16.4564 C   0  0  0  0  0  0  0  0  0  0  0  0
    7.4300    2.5923  -15.1658 C   0  0  0  0  0  0  0  0  0  0  0  0
    5.2640    3.4485  -22.9582 C   0  0  0  0  0  0  0  0  0  0  0  0
    7.0775    4.4649  -21.5469 C   0  0  0  0  0  0  0  0  0  0  0  0
    6.4261    2.3964  -16.2678 C   0  0  0  0  0  0  0  0  0  0  0  0
    5.7620    4.2176  -24.1924 C   0  0  2  0  0  0  0  0  0  0  0  0
    7.6140    5.2263  -22.7705 C   0  0  1  0  0  0  0  0  0  0  0  0
    6.4919    5.5072  -23.7840 C   0  0  1  0  0  0  0  0  0  0  0  0
    5.7682    2.4051  -20.6525 C   0  0  1  0  0  0  0  0  0  0  0  0
    6.3731    3.1382  -21.9065 C   0  0  2  0  0  0  0  0  0  0  0  0
    4.5842    4.5223  -25.1267 C   0  0  0  0  0  0  0  0  0  0  0  0
    8.3004    6.5189  -22.3135 C   0  0  0  0  0  0  0  0  0  0  0  0
    5.8938    3.5919  -17.0390 C   0  0  0  0  0  0  0  0  0  0  0  0
    4.2064   -3.4595  -20.0511 N   0  0  0  0  0  0  0  0  0  0  0  0
    5.5477    3.2054  -18.4018 N   0  0  0  0  0  0  0  0  0  0  0  0
    4.3882    2.8131  -20.3162 N   0  0  0  0  0  0  0  0  0  0  0  0
    3.1584    3.7564  -18.4346 N   0  0  0  0  0  0  0  0  0  0  0  0
    7.6800    2.4033  -19.0600 O   0  0  0  0  0  0  0  0  0  0  0  0
    7.0403    6.1009  -24.9604 O   0  0  0  0  0  0  0  0  0  0  0  0
    6.5774   -2.5592  -22.4523 H   0  0  0  0  0  0  0  0  0  0  0  0
    7.7741   -0.6055  -23.3833 H   0  0  0  0  0  0  0  0  0  0  0  0
    4.4608    0.0134  -19.6951 H   0  0  0  0  0  0  0  0  0  0  0  0
    8.3695    2.1808  -21.9882 H   0  0  0  0  0  0  0  0  0  0  0  0
    7.5245    2.1566  -23.5559 H   0  0  0  0  0  0  0  0  0  0  0  0
    8.4891    2.5123  -17.1198 H   0  0  0  0  0  0  0  0  0  0  0  0
    8.0442    0.8797  -16.4456 H   0  0  0  0  0  0  0  0  0  0  0  0
    7.3459    1.9613  -14.2896 H   0  0  0  0  0  0  0  0  0  0  0  0
    7.7911    3.5934  -14.9648 H   0  0  0  0  0  0  0  0  0  0  0  0
    4.4825    4.0578  -22.4849 H   0  0  0  0  0  0  0  0  0  0  0  0
    4.7766    2.5208  -23.2844 H   0  0  0  0  0  0  0  0  0  0  0  0
    7.9172    4.2774  -20.8673 H   0  0  0  0  0  0  0  0  0  0  0  0
    6.3736    5.1089  -21.0022 H   0  0  0  0  0  0  0  0  0  0  0  0
    5.6705    1.6324  -16.1297 H   0  0  0  0  0  0  0  0  0  0  0  0
    6.4524    3.5890  -24.7676 H   0  0  0  0  0  0  0  0  0  0  0  0
    8.3863    4.6193  -23.2614 H   0  0  0  0  0  0  0  0  0  0  0  0
    5.7699    6.2165  -23.3584 H   0  0  0  0  0  0  0  0  0  0  0  0
    3.8621    5.1465  -24.6080 H   0  0  0  0  0  0  0  0  0  0  0  0
    4.1095    3.5923  -25.4267 H   0  0  0  0  0  0  0  0  0  0  0  0
    4.9464    5.0444  -26.0088 H   0  0  0  0  0  0  0  0  0  0  0  0
    7.5758    7.1594  -21.8183 H   0  0  0  0  0  0  0  0  0  0  0  0
    8.7107    7.0368  -23.1762 H   0  0  0  0  0  0  0  0  0  0  0  0
    9.1035    6.2788  -21.6208 H   0  0  0  0  0  0  0  0  0  0  0  0
    5.0047    3.9881  -16.5380 H   0  0  0  0  0  0  0  0  0  0  0  0
    6.6478    4.3856  -17.0616 H   0  0  0  0  0  0  0  0  0  0  0  0
    3.5734    2.7532  -20.9224 H   0  0  0  0  0  0  0  0  0  0  0  0
    3.1922    4.0698  -17.4928 H   0  0  0  0  0  0  0  0  0  0  0  0
    2.3323    3.7630  -18.9852 H   0  0  0  0  0  0  0  0  0  0  0  0
    7.6516    5.4498  -25.3364 H   0  0  0  0  0  0  0  0  0  0  0  0
  1  5  1  0
  1 24  3  0
  2  3  2  0
  2  5  1  0
  3  6  1  0
  4  5  2  0
  4  7  1  0
  6  7  2  0
  6 10  1  0
  7 19  1  0
 19  8  1  1
  8 25  1  0
  8 28  2  0
  9 25  1  0
  9 26  2  0
  9 27  1  0
 20 10  1  6
 11 12  1  0
 11 15  1  0
 12 15  1  0
 13 16  1  0
 13 20  1  0
 14 17  1  0
 14 20  1  0
 15 23  1  0
 16 18  1  0
 16 21  1  0
 17 18  1  0
 17 22  1  0
 18 29  1  0
 19 20  1  0
 19 26  1  0
 23 25  1  0
  2 30  1  0
  3 31  1  0
  4 32  1  0
 10 33  1  0
 10 34  1  0
 11 35  1  0
 11 36  1  0
 12 37  1  0
 12 38  1  0
 13 39  1  0
 13 40  1  0
 14 41  1  0
 14 42  1  0
 15 43  1  0
 16 44  1  6
 17 45  1  6
 18 46  1  1
 21 47  1  0
 21 48  1  0
 21 49  1  0
 22 50  1  0
 22 51  1  0
 22 52  1  0
 23 53  1  0
 23 54  1  0
 26 55  1  0
 27 56  1  0
 27 57  1  0
 29 58  1  0
M  CHG  1  26   1
M  END
>  <OMEGA_C>  (95) 
0j2YQDJCIsD34qPBH83LQNasyL8AcrDB04fhQEwU8b5CtrTBdHilQO37Ab7RCaTBGvetQLrOsr82
K6jBMJnYQOZbST/NorDBGe+6QM6CdT/UXajBGWHQQDt2KUBsgprBIhaKQH2HUkCuCpjBP4HsQG72
BUCsyrPBQiT7QHzw+D+ypoPBNMLtQN7oJUAlp3LBx3KoQB20XEBUqrfB6nriQFDgjkAUYKzB76LN
QCVeGUCAJILBHWK4QIL2hkD3icHB4qXzQJA9p0AKKrbBoL3PQEI7sECsRb7B05S4QBLtGUBDOKXB
kPDLQNXXSECGQK/BIrKSQKy2kECGA8nBk84EQYqa0EAkgrLBTZq8QMnhZUDyT4jB75qGQAxoXcCb
aKDBdoaxQHklTUDXNpPBUGyMQPsJNECYh6LBcCNKQIFocEAfepPBdsL1QNDPGUDqepjB1EnhQM46
w0D+rsfBGHrSQGzJI8A4nrPBm8X4QCMEG78NEbvBv76OQOAkXDyBj53BmOkFQZKRC0Dn56/Basjw
QAQGCkCVcrzBadMHQTPJIEBb9YjB47QAQd4yYT+qkIPB2BHrQE0L+z8JomTBX1D5QMb5ZUDIb2/B
UXCPQJXZgUD+4LPBBNqYQCdUIUBqRrrBhFn9QHLgiEA48KbBr/TLQMx7o0BwBKjB/nS1QHTz0D+v
CYHBQHrOQPyxZUD2I8bBIy4GQV/Rk0BvF7rB3KK4QGrtxkAB3rrB4Cx3QFCwpEBI3cTBLYGDQJ/o
ZUDgacvBFUmeQBtsoUAQEtDB92zyQLQZ5UDbi67B8V4LQRQt4UDgaLnBBKgRQSTsyEB+96zBMSag
QCY9f0DPTYTBe7rUQHdWjEAlfojB67JkQPE0MEADYafB00xMQA48gkBF8YvB+0MVQPvUcECa4ZfB
ntn0QKJkrkD4sMrBrqKYQCw/GMD34qPB+jHMQMumtL8AcrDBruzhQCD8oL5CtrTBT92lQGGj8TzS
CaTB9VuuQK/Inr83K6jBC/7YQPxncT/NorDB9FO7QHLHjj/UXajB9MXQQEF5M0BsgprB/nqKQIOK
XECuCpjBGubsQHT5D0CtyrPBG4n7QEN7BkCypoPBDyfuQOTrL0Akp3LBo9eoQCO3ZkBUqrfBxd/i
QNLhk0AUYKzBygfOQCthI0CAJILB+ca4QAX4i0D4icHBvgr0QBI/rEAKKrbBeyLQQMY8tUCsRb7B
r/m4QBjwI0BDOKXBbFXMQNvaUkCGQK/B/RaTQC+4lUCGA8nBAQEFQQ2c1UAlgrLBKf+8QNDkb0Dz
T4jByv+GQAZlU8CcaKDBUeuxQH8oV0DXNpPBLNGMQAENPkCYh6LBJ+1KQIhrekAfepPBUyf2QNbS
I0DqepjBr67hQFE8yED/rsfB8t7SQGfGGcA4nrPBdyr5QBrw5b4OEbvBmSOPQKfyLT6Cj53BBhwG
QZiUFUDo56/BRS3xQAkJFECWcrzB2AUIQTjMKkBb9YjBUOcAQXufhD+rkIPBtHbrQKyIB0AJomTB
ObX5QMr8b0DIb2/BLtWPQBjbhkD+4LPB4D6ZQC1XK0BqRrrBX779QPThjUA48KbBilnMQE59qEBw
BKjB2dm1QH755D+vCYHBHN/OQAK1b0D2I8bBkWAGQeLSmEBwF7rBtwe5QOzuy0AC3rrBl/Z3QNOx
qUBJ3cTBCeaDQKXrb0DgacvB8a2eQJ5tpkAQEtDB0tHyQDgb6kDbi67BXpELQZgu5kDgaLnBcdoR
QabtzUB+96zBDIugQBaghEDPTYTBVx/VQPpXkUAmfojBo3xlQPc3OkADYafBihZNQJA9h0BG8YvB
sQ0WQADYekCa4ZfBeT71QCVms0D5sMrBrOuVQMESHMBD4KLBkTTJQAO2ub94Z6/B+5/eQL0fsb7n
orPBuniiQFCw2rzP86LBrlKrQGVppb9cH6fB8lbVQOouaD9kha/B4aC3QBWbiD8WP6fBR5nMQEZT
MEAlVpnB2CCGQOATWEBY2ZbBp+DoQBQdDkDDorLBz0POQAqQxkBeEInBgdijQFB3wUAhl47BMHGk
QHTGY0Cgd7bBwC/eQHa+kkAwJavBhiqvQD8OpUAeToXBzSi0QM7KikAQUcDBiyPvQEhpq0AD6bTB
RCfLQI02tEBrAr3Bid60QAG1IEDwDaTBHgXIQLtGUEBJEK7BH2OOQPxTlEA1yMfByF4CQY7o1EC9
NrHBAY+4QEjTa0AqHIfBlIuEQCmjV8BYbZ/B7JatQMI8U0AkBpLBIZmIQEr1OUAOWqHBgfZBQFkp
dUAZRZLB7QvyQAhFIUCQUJfBYIjcQBCDx0DxZsbBzyjQQMsVHMCdm7LBH+f1QJ028b69/rnBP7WL
QKyG1T1oeJzBBhYEQf8lFEBEv67BECPtQDyFEkAkSrvB3qfqQHtlvEBaVY3BrsbSQECB4kAsEITB
F+uLQFYA2kAUTI3Bd9SjQMDks0Drj5bBKUOLQBAbhUBxqbLBWBuVQOc1KEApG7nBrRv5QFrljEDQ
tqXBcHvHQIwVp0BrxKbBb9aeQMicqkAYk3vB6m3KQF7jbUAP8MTBqgIEQatEmEA827jBtdmzQMqm
ykAZlbnBijVuQMQIqEAAncPBfup+QM7ybEAFNsrBO9SZQJQ/pUCI0s7Bjl/tQGwj6UBaO63BX9wI
QRq05UBLGbjByEAPQeBdzUD+ravBOpLaQEBPX0CGtYXBlzKmQBAGRUAecYHBgxVdQMvRNUD4M6bB
+/JDQJiAhEDAuYrBdhYNQB5CdUCLrJbB0EbwQDjlskAcbsnBrOuVQMESHMBD4KLBkTTJQAO2ub94
Z6/B+5/eQL0fsb7norPBuniiQFCw2rzP86LBrlKrQGVppb9cH6fB8lbVQOouaD9kha/B4aC3QBWb
iD8WP6fBR5nMQEZTMEAlVpnB2CCGQOATWEBY2ZbBp+DoQBQdDkDDorLBz0POQAqQxkBeEInBgdij
QFB3wUAhl47BMHGkQHTGY0Cgd7bBwC/eQHa+kkAwJavBhiqvQD8OpUAeToXBzSi0QM7KikAQUcDB
iyPvQEhpq0AD6bTBRCfLQI02tEBrAr3Bid60QAG1IEDwDaTBHgXIQLtGUEBJEK7BH2OOQPxTlEA1
yMfByF4CQY7o1EC9NrHBAY+4QEjTa0AqHIfBlIuEQCmjV8BYbZ/B7JatQMI8U0AkBpLBIZmIQEr1
OUAOWqHBgfZBQFkpdUAZRZLB7QvyQAhFIUCQUJfBYIjcQBCDx0DxZsbBzyjQQMsVHMCdm7LBH+f1
QJ028b69/rnBP7WLQKyG1T1oeJzBBhYEQf8lFEBEv67BECPtQDyFEkAkSrvB3qfqQHtlvEBaVY3B
rsbSQECB4kAsEITBF+uLQFYA2kAUTI3Bd9SjQMDks0Drj5bBKUOLQBAbhUBxqbLBWBuVQOc1KEAp
G7nBrRv5QFrljEDQtqXBcHvHQIwVp0BrxKbBb9aeQMicqkAYk3vB6m3KQF7jbUAP8MTBqgIEQatE
mEA827jBtdmzQMqmykAZlbnBijVuQMQIqEAAncPBfup+QM7ybEAFNsrBO9SZQJQ/pUCI0s7Bjl/t
QGwj6UBaO63BX9wIQRq05UBLGbjByEAPQeBdzUD+ravBOpLaQEBPX0CGtYXBlzKmQBAGRUAecYHB
gxVdQMvRNUD4M6bB+/JDQJiAhEDAuYrBdhYNQB5CdUCLrJbB0EbwQDjlskAcbsnBQOmyQKw8F8DX
ZaTBEoPhQPK6nb9RSrHB6gfzQIBOkL2mqrXBKjS4QIBomT29iaTBpknEQNp8lL+ryajB4ovmQFxH
kz/2d7HBknzJQIjMnD9w+ajB8vvaQHf/PUDHNJvB/EuTQE15WEDsL5jBPLT1QEbzIEAdtrTByKzo
QKR/vUC5zH7BXDn8QFTkukBkXorBfiatQKdzaUDVA7jBWujkQPTfmkCVHa3BsJTPQK6RqkCEgojB
UEy5QN7vjkCt98HBEFHyQA73tEAz/rbB1rfMQA5WukAy0b7BXtHCQHHrKUDcvqXBxHfSQO+/XEBB
4q/BuO2RQCrglEAAJcnB9TECQfpP4EB4cbPBQnHGQCOwdUC904jB6s2kQJe+VcAZ1aDBoF67QOkN
W0DCqJPBvOeVQCfXOkCftaLBAgpbQIOObkDuU5PB7ZgAQR4BNkCTd5nBuBjbQH4fz0DmU8jB1v7q
QGqODMB2jrTB8ucEQexnA76KMrzBkO6hQHhnDz5B453B/IMKQe3TLEByDrHBtrT4QIMLJkBqZL3B
Egz1QEBEqEDClHLBai3fQJS/3EBOAHnBfNj/QFZm2ECm0o7BC9kKQSLro0DImovBRsGSQLSIhUAu
BLTBFFmgQElDK0C/jLrBPHIAQUaWl0C946fBiPDMQJgIrUAEkKjB9Eu1QK4xvUA5tovBTsLQQPdz
ekCQwsbBKTIGQQw0pEBNIbvBctizQASGzkCgNbvBndZyQCZZpkDwy8TB4Y+FQGl/a0D/eMvBauaa
QMDApkCwQtDBwLnrQDZM8kD+R6/BQnYHQY418kBZarrBibIPQTA720A7G67B+LPiQJU9UkCHJobB
6BWsQLFhZkDnYYPBLy13QC/RMUCAXafBe/dcQHhJgUBdyovBrFslQAmvaUB0iJfBGE7wQIhrvEBk
gsvBiNeXQF+SLMDXZaTBXI/KQPKP4L9RSrHBwIrgQClRK7+mqrXB3r2mQCphmL69iaTBhNitQEbv
yL+ryajBRvzYQP86Fz/2d7HBanG8QL3fRj9w+ajB6LTUQPchHEDHNJvB5jSPQL0iSEDsL5jB5Gzt
QBpm8T8dtrTBgvrtQMclqkC5zH7BFIcAQbIkpUBkXorBWumpQMeWUkDVA7jBXPXlQGNBiECVHa3B
drzSQHJ3mkCEgojBGDW5QFzNgUCt98HBsn32QLl8oEAz/rbBYtjRQHV3qkAy0b7B/nu7QIQvDkDc
vqXBOijOQDnBPEBB4q/B3t+SQFeQjEAAJcnBqeQGQUlEyUB4cbPBGsTDQNN5WEC904jBfPqFQEUc
Z8AZ1aDBpCG3QAXJQEDCqJPBdPaPQKsVKkCftaLBZitWQHdkZ0DuU5PBMiH6QPu/CkCTd5nBFq/i
QNtQvUDmU8jB+ifQQCXYL8B2jrTBWOv2QOGNUL+KMrzBBOaQQHRvFr5B453Bi58GQbJ5+T9yDrHB
HLjwQGwG+j9qZL3BUqH3QG2Mk0DClHLBHmvoQPlUykBOAHnBKiYEQRD6wUCm0o7BxL4LQUMyi0DI
movBHMyRQLl5ekAuBLTBslyZQDgLGEC/jLrBNKkAQTmIgUC946fBgmvQQB89nUAEkKjBAvW6QPIy
sEA5tovBTkzOQBSnWkCQwsbBiSUHQSehjEBNIbvB9qi7QCyTwUCgNbvBhW15QOruoEDwy8TB6sCC
QBlpXkD/eMvB5PydQMgxnUCwQtDBAon3QAMq3kD+R6/B5zkNQTq52UBZarrBR/oTQZHiwEA7G67B
Lp7dQJNPLkCHJobBQKqoQEXOT0DnYYPBY5RqQLejJ0CAXafBzI5aQIkEe0BdyovBSEwgQAEyaUB0
iJfBsGr1QDoiqEBkgsvBei5/QAKMLcBD4KLBzYW2QC0p+L94Z6/BaVLQQBLqbb/norPB2fyVQESn
vb7P86LBQIuZQOme1L9cH6fBeUjMQDx2sz5kha/BJnuvQI0PIT8WP6fBXD3LQJr6DUAlVpnBfeuH
QPiRR0BY2ZbBwBPlQK6FyT/DorLBCSDbQNpAtEBeEInBJmewQAqrtEAhl47BGrymQJBaS0Cgd7bB
tjvkQP6gfUAwJavBT/e3QAsJl0AeToXBG4i5QNSxeEAQUcDBajn4QBwXlUAD6bTBhqzVQEJ1okBr
Ar3BlLOyQBGcBEDwDaTBQMLIQArYLkBJEK7B2k2VQGCsikA1yMfBcn8JQcZ0u0C9NrHByjO7QFQm
TkAqHIfBpApVQDgiZMBYbZ/BYr2uQGSYOEAkBpLBdW2IQLQQKUAOWqHBbOpJQFb9bUAZRZLBjGfv
QEHJ6j+QUJfBdGXpQPFas0DxZsbBwVe5QFCTPMCdm7LBnePmQKHZkr+9/rnBnuh/QPhpGL5oeJzB
8D8CQUdaxT9Ev67ByJXpQNcQ0D8kSrvB6Pf1QPuCpkBaVY3BfjPjQHphz0AsEITBodabQFsV0EAU
TI3BMKOuQP81p0Drj5bBKD6QQDb2d0BxqbLBErCTQIw9FEApG7nBHC3+QLAWa0DQtqXBOVfQQHnp
lUBrxKbBgX2oQJ+mnkAYk3vBjw7NQF6WS0AP8MTBHzcHQVrMfUA827jBUnXBQKq2u0AZlbnBo8GA
QH03oUAAncPBj6aCQJz8XUAFNsrB9tSiQDD6mUCI0s7Bem7+QKSH0kBaO63BUwQRQQBwykBLGbjB
d8kVQdKnsED+ravBzh/cQOT3OECGtYXBSX6mQP9nLEAecYHB6KRcQP6tK0D4M6bBknFOQJ20gEDA
uYrBiX4VQAbndECLrJbBRFH6QIJdnEAcbsnBei5/QAKMLcBD4KLBzYW2QC0p+L94Z6/BaVLQQBLq
bb/norPB2fyVQESnvb7P86LBQIuZQOme1L9cH6fBeUjMQDx2sz5kha/BJnuvQI0PIT8WP6fBXD3L
QJr6DUAlVpnBfeuHQPiRR0BY2ZbBwBPlQK6FyT/DorLBCSDbQNpAtEBeEInBJmewQAqrtEAhl47B
GrymQJBaS0Cgd7bBtjvkQP6gfUAwJavBT/e3QAsJl0AeToXBG4i5QNSxeEAQUcDBajn4QBwXlUAD
6bTBhqzVQEJ1okBrAr3BlLOyQBGcBEDwDaTBQMLIQArYLkBJEK7B2k2VQGCsikA1yMfBcn8JQcZ0
u0C9NrHByjO7QFQmTkAqHIfBpApVQDgiZMBYbZ/BYr2uQGSYOEAkBpLBdW2IQLQQKUAOWqHBbOpJ
QFb9bUAZRZLBjGfvQEHJ6j+QUJfBdGXpQPFas0DxZsbBwVe5QFCTPMCdm7LBnePmQKHZkr+9/rnB
nuh/QPhpGL5oeJzB8D8CQUdaxT9Ev67ByJXpQNcQ0D8kSrvB6Pf1QPuCpkBaVY3BfjPjQHphz0As
EITBodabQFsV0EAUTI3BMKOuQP81p0Drj5bBKD6QQDb2d0BxqbLBErCTQIw9FEApG7nBHC3+QLAW
a0DQtqXBOVfQQHnplUBrxKbBgX2oQJ+mnkAYk3vBjw7NQF6WS0AP8MTBHzcHQVrMfUA827jBUnXB
QKq2u0AZlbnBo8GAQH03oUAAncPBj6aCQJz8XUAFNsrB9tSiQDD6mUCI0s7Bem7+QKSH0kBaO63B
UwQRQQBwykBLGbjBd8kVQdKnsED+ravBzh/cQOT3OECGtYXBSX6mQP9nLEAecYHB6KRcQP6tK0D4
M6bBknFOQJ20gEDAuYrBiX4VQAbndECLrJbBRFH6QIJdnEAcbsnB

>  <OMEGA_E>  (95) 
swKEwRj/g8FnpIPBZ6SDwThRgsFoIYHBiBt5wYgbecE=

>  <OMEGA_NBR>  (95) 
    102684

$$$$
50215530
     RDKit          3D

 44 47  0  0  1  0  0  0  0  0999 V2000
    2.0066   -2.5113  -17.3549 C   0  0  0  0  0  0  0  0  0  0  0  0
    5.1878   -4.1962  -18.4075 C   0  0  0  0  0  0  0  0  0  0  0  0
    6.7696   -0.6110  -22.6477 C   0  0  0  0  0  0  0  0  0  0  0  0
    3.9716   -3.9447  -17.7434 C   0  0  0  0  0  0  0  0  0  0  0  0
    5.6809   -3.2767  -19.3524 C   0  0  0  0  0  0  0  0  0  0  0  0
    6.2706   -1.5470  -21.7247 C   0  0  0  0  0  0  0  0  0  0  0  0
    6.4774    0.7559  -22.4969 C   0  0  0  0  0  0  0  0  0  0  0  0
    3.7349   -1.8494  -18.9717 C   0  0  0  0  0  0  0  0  0  0  0  0
    5.1961    0.2553  -20.4859 C   0  0  0  0  0  0  0  0  0  0  0  0
    3.2445   -2.7700  -18.0251 C   0  0  0  0  0  0  0  0  0  0  0  0
    4.9595   -2.0937  -19.6426 C   0  0  0  0  0  0  0  0  0  0  0  0
    5.4811   -1.1190  -20.6325 C   0  0  0  0  0  0  0  0  0  0  0  0
    5.6614    1.2019  -21.4285 C   0  0  0  0  0  0  0  0  0  0  0  0
    5.2533    3.4147  -22.5848 C   0  0  0  0  0  0  0  0  0  0  0  0
    7.0592    4.2482  -21.4369 C   0  0  0  0  0  0  0  0  0  0  0  0
    4.1348    2.9902  -18.8750 C   0  0  0  0  0  0  0  0  0  0  0  0
    3.8580    4.2734  -19.6759 C   0  0  0  0  0  0  0  0  0  0  0  0
    4.0725    2.9437  -20.4133 C   0  0  0  0  0  0  0  0  0  0  0  0
    5.3715    2.6993  -21.2464 C   0  0  1  0  0  0  0  0  0  0  0  0
    6.6622    5.1392  -23.7832 C   0  0  0  0  0  0  0  0  0  0  0  0
    0.9980   -2.2980  -16.8102 N   0  0  0  0  0  0  0  0  0  0  0  0
    6.2695    4.3628  -22.5945 N   0  0  0  0  0  0  0  0  0  0  0  0
    6.5485    3.3414  -20.6310 N   0  0  0  0  0  0  0  0  0  0  0  0
    8.2010    4.9897  -21.1549 N   0  0  0  0  0  0  0  0  0  0  0  0
    4.4416    3.1829  -23.4749 O   0  0  0  0  0  0  0  0  0  0  0  0
    5.7434   -5.0968  -18.1913 H   0  0  0  0  0  0  0  0  0  0  0  0
    7.3792   -0.9432  -23.4750 H   0  0  0  0  0  0  0  0  0  0  0  0
    3.5960   -4.6515  -17.0184 H   0  0  0  0  0  0  0  0  0  0  0  0
    6.6142   -3.4747  -19.8584 H   0  0  0  0  0  0  0  0  0  0  0  0
    6.4911   -2.5968  -21.8505 H   0  0  0  0  0  0  0  0  0  0  0  0
    6.8778    1.4708  -23.2005 H   0  0  0  0  0  0  0  0  0  0  0  0
    3.1744   -0.9518  -19.1876 H   0  0  0  0  0  0  0  0  0  0  0  0
    4.6134    0.5897  -19.6404 H   0  0  0  0  0  0  0  0  0  0  0  0
    5.0975    2.8603  -18.3590 H   0  0  0  0  0  0  0  0  0  0  0  0
    3.3336    2.5307  -18.2776 H   0  0  0  0  0  0  0  0  0  0  0  0
    2.8588    4.7326  -19.6500 H   0  0  0  0  0  0  0  0  0  0  0  0
    4.6227    5.0622  -19.7314 H   0  0  0  0  0  0  0  0  0  0  0  0
    3.1634    2.4868  -20.8314 H   0  0  0  0  0  0  0  0  0  0  0  0
    7.4884    5.8171  -23.5225 H   0  0  0  0  0  0  0  0  0  0  0  0
    6.9885    4.4524  -24.5781 H   0  0  0  0  0  0  0  0  0  0  0  0
    5.8029    5.7277  -24.1370 H   0  0  0  0  0  0  0  0  0  0  0  0
    6.9091    3.1182  -19.7254 H   0  0  0  0  0  0  0  0  0  0  0  0
    8.6885    4.8489  -20.2933 H   0  0  0  0  0  0  0  0  0  0  0  0
    8.5347    5.6639  -21.8138 H   0  0  0  0  0  0  0  0  0  0  0  0
  1 10  1  0
  1 21  3  0
  2  4  2  0
  2  5  1  0
  3  6  2  0
  3  7  1  0
  4 10  1  0
  5 11  2  0
  6 12  1  0
  7 13  2  0
  8 10  2  0
  8 11  1  0
  9 12  2  0
  9 13  1  0
 11 12  1  0
 13 19  1  0
 14 19  1  0
 14 22  1  0
 14 25  2  0
 15 22  1  0
 15 23  2  0
 15 24  1  0
 16 17  1  0
 16 18  1  0
 17 18  1  0
 19 18  1  1
 19 23  1  0
 20 22  1  0
  2 26  1  0
  3 27  1  0
  4 28  1  0
  5 29  1  0
  6 30  1  0
  7 31  1  0
  8 32  1  0
  9 33  1  0
 16 34  1  0
 16 35  1  0
 17 36  1  0
 17 37  1  0
 18 38  1  0
 20 39  1  0
 20 40  1  0
 20 41  1  0
 23 42  1  0
 24 43  1  0
 24 44  1  0
M  CHG  1  23   1
M  END
>  <OMEGA_C>  (96) 
zmwAQPS4IMDv1orBIwKmQJhHhsB7QpPBNqDYQMxsHL9rLrXBYC9+QM51fMCD8o3Bvsm1QFu1UcCv
0ZrBlqjIQE4Fxr9JzK3BtkbPQJ2FQT+n+bPBrwhvQIK57L/7xZfBq0amQLmxgj4l46PBcqZPQChI
McBmM5DBQ7SeQBb/BcAbJJ3B5WSvQMo8j79sD6XBHyq1QDrWmT+HbavBYxuoQCeLWkCjrbTBw+Th
QHPxh0DCfqvBcFCEQKZfP0AYAJfBJup2QAPAiEAtaJ3BBFKCQC9mPECETqPBLuOrQMnBLECP+KnB
6zDVQBB0pED+Q77B/3x/P1MSE8Aze4bBnZ/IQFGci0CawbTBW43RQPDZVUBSDKXBPjcDQfurn0BV
PanB8yGOQAq1S0CSzLvB38m3QKAYo8Czh5HBPiLsQI1ycb/EzLvBbCRmQHHZlMC0JYjBiKfTQH9h
XsAa3p7BTLfPQIYxJsDVza7BIhfcQDhDvD+WmrnB3SlLQLarc788gJnB8aCTQI35Fj94H53BEh+j
QMoPN0A/35LBSFpVQML2IUCHOJLBXfY2QGlxl0BGM53BHO2TQO39oUD+2Z3BpnVKQEsnH0CopqbB
qqDvQGQlukAlLrzB4qHfQFF6jkAHoMTBL7G5QFdJt0CGGMHBaxfdQF2RR0CazZ3BMgQLQSIqm0Ck
WKLBFY4IQeM+tUC3gq7B

>  <OMEGA_E>  (96) 
8N+KPw==

>  <OMEGA_NBR>  (96) 
    155897

$$$$
50225091
     RDKit          3D

 50 53  0  0  1  0  0  0  0  0999 V2000
    5.8514   -5.4314  -18.5746 C   0  0  0  0  0  0  0  0  0  0  0  0
    3.2634   -2.7585  -18.1287 C   0  0  0  0  0  0  0  0  0  0  0  0
    3.9555   -3.9756  -17.9823 C   0  0  0  0  0  0  0  0  0  0  0  0
    3.7556   -1.7739  -19.0026 C   0  0  0  0  0  0  0  0  0  0  0  0
    6.1367   -1.2884  -21.8231 C   0  0  0  0  0  0  0  0  0  0  0  0
    6.6747   -0.2664  -22.6226 C   0  0  0  0  0  0  0  0  0  0  0  0
    5.6263   -3.2285  -19.5958 C   0  0  0  0  0  0  0  0  0  0  0  0
    5.4218    0.3664  -20.1908 C   0  0  0  0  0  0  0  0  0  0  0  0
    5.1372   -4.2064  -18.7166 C   0  0  0  0  0  0  0  0  0  0  0  0
    4.9411   -2.0083  -19.7398 C   0  0  0  0  0  0  0  0  0  0  0  0
    5.4944   -0.9670  -20.6083 C   0  0  0  0  0  0  0  0  0  0  0  0
    6.5828    1.0781  -22.2105 C   0  0  0  0  0  0  0  0  0  0  0  0
    5.9843    1.3933  -20.9657 C   0  0  0  0  0  0  0  0  0  0  0  0
    6.4857    2.8794  -19.0433 C   0  0  0  0  0  0  0  0  0  0  0  0
    4.2401    3.3139  -18.9310 C   0  0  0  0  0  0  0  0  0  0  0  0
    7.1794    2.1561  -23.0871 C   0  0  0  0  0  0  0  0  0  0  0  0
    6.5813    3.8675  -21.3469 C   0  0  0  0  0  0  0  0  0  0  0  0
    5.8933    2.8180  -20.4350 C   0  0  1  0  0  0  0  0  0  0  0  0
    6.4974    3.5238  -22.8530 C   0  0  0  0  0  0  0  0  0  0  0  0
    7.2753    4.5999  -23.6392 C   0  0  0  0  0  0  0  0  0  0  0  0
    5.0290    3.5053  -23.3630 C   0  0  0  0  0  0  0  0  0  0  0  0
    5.5475    3.3614  -16.7551 C   0  0  0  0  0  0  0  0  0  0  0  0
    6.4440   -6.4293  -18.4697 N   0  0  0  0  0  0  0  0  0  0  0  0
    5.4210    3.1296  -18.1983 N   0  0  0  0  0  0  0  0  0  0  0  0
    4.4824    3.1756  -20.2142 N   0  0  0  0  0  0  0  0  0  0  0  0
    2.9914    3.5841  -18.3945 N   0  0  0  0  0  0  0  0  0  0  0  0
    7.6428    2.6239  -18.7282 O   0  0  0  0  0  0  0  0  0  0  0  0
    2.3559   -2.5817  -17.5705 H   0  0  0  0  0  0  0  0  0  0  0  0
    3.5818   -4.7320  -17.3080 H   0  0  0  0  0  0  0  0  0  0  0  0
    3.2287   -0.8375  -19.1119 H   0  0  0  0  0  0  0  0  0  0  0  0
    6.2144   -2.3187  -22.1377 H   0  0  0  0  0  0  0  0  0  0  0  0
    7.1600   -0.5117  -23.5557 H   0  0  0  0  0  0  0  0  0  0  0  0
    6.5278   -3.4123  -20.1614 H   0  0  0  0  0  0  0  0  0  0  0  0
    4.9273    0.6086  -19.2617 H   0  0  0  0  0  0  0  0  0  0  0  0
    8.2515    2.2484  -22.8593 H   0  0  0  0  0  0  0  0  0  0  0  0
    7.0518    1.8697  -24.1414 H   0  0  0  0  0  0  0  0  0  0  0  0
    6.0967    4.8415  -21.1843 H   0  0  0  0  0  0  0  0  0  0  0  0
    7.6420    3.9337  -21.0632 H   0  0  0  0  0  0  0  0  0  0  0  0
    6.8032    5.5812  -23.4839 H   0  0  0  0  0  0  0  0  0  0  0  0
    8.3157    4.6332  -23.2835 H   0  0  0  0  0  0  0  0  0  0  0  0
    7.2619    4.3521  -24.7109 H   0  0  0  0  0  0  0  0  0  0  0  0
    4.5663    4.4874  -23.1856 H   0  0  0  0  0  0  0  0  0  0  0  0
    5.0180    3.2841  -24.4405 H   0  0  0  0  0  0  0  0  0  0  0  0
    4.4634    2.7309  -22.8240 H   0  0  0  0  0  0  0  0  0  0  0  0
    4.5512    3.5348  -16.3223 H   0  0  0  0  0  0  0  0  0  0  0  0
    6.0048    2.4804  -16.2810 H   0  0  0  0  0  0  0  0  0  0  0  0
    6.1818    4.2428  -16.5796 H   0  0  0  0  0  0  0  0  0  0  0  0
    3.8042    3.2962  -20.9391 H   0  0  0  0  0  0  0  0  0  0  0  0
    2.1999    3.6868  -18.9970 H   0  0  0  0  0  0  0  0  0  0  0  0
    2.8818    3.6765  -17.4048 H   0  0  0  0  0  0  0  0  0  0  0  0
  1  9  1  0
  1 23  3  0
  2  3  2  0
  2  4  1  0
  3  9  1  0
  4 10  2  0
  5  6  2  0
  5 11  1  0
  6 12  1  0
  7  9  2  0
  7 10  1  0
  8 11  2  0
  8 13  1  0
 10 11  1  0
 12 13  2  0
 12 16  1  0
 13 18  1  0
 14 18  1  0
 14 24  1  0
 14 27  2  0
 15 24  1  0
 15 25  2  0
 15 26  1  0
 16 19  1  0
 18 17  1  6
 17 19  1  0
 18 25  1  0
 19 20  1  0
 19 21  1  0
 22 24  1  0
  2 28  1  0
  3 29  1  0
  4 30  1  0
  5 31  1  0
  6 32  1  0
  7 33  1  0
  8 34  1  0
 16 35  1  0
 16 36  1  0
 17 37  1  0
 17 38  1  0
 20 39  1  0
 20 40  1  0
 20 41  1  0
 21 42  1  0
 21 43  1  0
 21 44  1  0
 22 45  1  0
 22 46  1  0
 22 47  1  0
 25 48  1  0
 26 49  1  0
 26 50  1  0
M  CHG  1  25   1
M  END
>  <OMEGA_C>  (97) 
pD67QCXOrcDhmJTBc9tQQMyLMMCIB5HBVSZ9QI1vfsCq24/BbltwQPYP479tBZjBfl/EQMjqpL+4
la7B95bVQNhkiL4Z+7TBnQq0QNCfTsA3xJzBFX+tQN6auz68hqHBDGSkQO2ahsCfu5XBsh2eQIuI
AMAx653BF9KvQPmPd7+43aTBrabSQAQAij8Xr7HBLn+/QBBZsj+7uafBw4rPQCBIOEDAWJjByK6H
QG4XVECxcpfBSL3lQC/9CUBUsrjBm5nSQNOEd0B3xqrBwpW8QHlaNEDSeqPBT+rPQMuFYUDk0rbB
K8/oQAUyk0AXHb3BRe2gQMVWYEBr57rBMoWxQPsgV0BcCobBpjXOQJa8zcDrwZPBdHitQJ9KSEAj
lpHBb2+PQHM9S0CxtqHBs3M/QJdiZUDoJ5PBq5H0QHvtJ0B005XBBscWQHI6JcBbkIzBcztlQGls
l8DhdorBQKNOQOVmVr8q5ZjBXdzGQPtkFMDtGbHBGB/lQJ79Ar8QcrzB2ePQQPBiWsCJSqHBM6yd
QJXOGz/0F5rBUgYEQSDmD0DS37bBv6jhQOVQ7z+wIcHB+hfDQKvtmkBfeanB+Yr0QAbCe0BmgajB
j7PZQAeZskAf37vB8AwFQYpDlECiRLrB3WHoQJpEi0DYr8XBzB6SQHWYj0AzfLnBEZOgQFYvUkAa
hsPBhtSOQNjHLkB0l7bBgKORQGg6YkABlILBBCfAQFi+HkCCP4LBg9HFQPLEh0AZo4TBSXdzQOT0
UkBVg6fBkMsMQDL0a0DF+ZfBmm84QAZMa0APPYvB6OsHQCTHIMAD2orB+uakQJ26h8Ae0JXB3Pd+
QK7Xf8DK2I/BBaW0QOrMUMCq25zBU3HEQALapb9Eq67BQgLVQN4Hib7lHLXBat5yQEwC5b9f8ZfB
MNetQI6PtD7iiKHBzIFTQJJJMcCm7JDBPAqfQNj1AcCJ653B6GKwQHFse79p4aTB/P/RQIa9iT91
y7HBCFK/QKJdsT/sxafBUlvPQMkrN0CwVJjBIJuHQIFyU0AddpfBx/7kQPPuCUCr0LjBw9XSQKD8
dkABuarBdIi8QP6/M0CAe6PBGvjPQK0KYkBezLbB8YvpQGU9k0A+/7zBc/6gQEj1YkC737rB4nOx
QOTTV0AOGIbBAoKUP9b/EsAo5YXBhSetQETVRUC/j5HBF26PQE7gSkB5uqHBGJM/QOJXZkBJMpPB
H4v0QJ1DKEBR0ZXBiYi1QIXWpcB4+ZTB5d5mQLILmMBlcYrBH0PRQAIAXcCsdKHBxBDHQHXIFMB9
NbHBkx3kQCwOAr9bpLzBX3tRQE1lWb8dxpjBWT2eQBErFz9IEJrB0roDQeTTDkAYIrfBsTngQOZi
8D9KP8HBVanDQBjFmkARV6nBu9D0QIZaekAVd6jBrxLbQIPhskA0qrvBwm0FQXGDk0BZJ7rBrPLo
QBm1i0CGl8XBqcCSQNUWkUBOWrnBh4KgQCO1VUANhMPBr3WOQG2dMUDQo7bBCYmRQPkEYUDGkILB
fXvBQMm1IUBPJILBdJPEQNYfiUA8+YTB/5NzQBXuUkDxiKfBIEMNQBNmbkCMCZjB9Wg4QP7sa0AE
R4vBpmW2QNaWrMDgqJLBRuVIQIOcKsCMO5LBwLFyQIdGeMBqBJDB9k9vQIgf3r+GHpnBjcDLQJb/
qb8tza3Bv0/bQA7Ql778aLTBc5K0QP/mTsDLspvBN86vQIqeqj4TeqHB4UChQAcqhcBkypTBdQOg
QO7LAMB4y53BS7W0QIIrgL/1c6TB//bTQIUchz/ysbHB8fG9QELSrj80H6jBJpvOQBPBQkASC5rB
jQaHQNFpVUDcBJfBbtfeQD5SCECNxbnBGca9QAUCdkBNGa3B1sq1QPHuMUCxWqTBRYHjQNJZYkBE
vbTBpZQHQfASakDrAK/BXQXiQJhzkkDz3b3BWC24QKI8YEB2DYfBpurHQLPQzMC9/ZDBMCOwQP17
W0C/nZLBwReJQEBsOkAp7KDBvDhCQHUSaUCr2pHB+abzQOygLkDTAJjBQIQLQLfdHMCBpo7BGrhV
QDkQk8BhqYrBtUFPQC7ETb/p3ZrBGWrRQBAkF8B136/BrO7sQGE3Cr9HlbvB3AbTQO0vXcAoX5/B
VNygQA2JEj/R7JnBPkL9QDeq7j9+qL3BZD/FQFmfCkBqzr/Bn4GgQPGxe0Cc77HBMVbEQAmzmUDK
HanBGRcJQXcblUCddKvB66EIQSx4OUDDqKjBZY4UQTYDYECD0LTBv0blQGHQskClgLrB1Gv8QMli
jECQfMPBik7DQCDaj0DOHcLBRPCaQNt1dUDZ7oLBbX3BQO2tIECtEYTBtiLSQMYPh0DEfoXBKmtf
QMxkLUB2g6XB5XYKQDzsYkCftJXBmS5DQGxtfUBCRYrB

>  <OMEGA_E>  (97) 
sDnmPghP6D7Wdxo/

>  <OMEGA_NBR>  (97) 
    143616

$$$$
50215906
     RDKit          3D

 47 50  0  0  1  0  0  0  0  0999 V2000
    6.8047   -2.5248  -15.8365 C   0  0  0  0  0  0  0  0  0  0  0  0
    7.2649   -2.2782  -14.7409 C   0  0  0  0  0  0  0  0  0  0  0  0
    5.8720   -0.6059  -22.8757 C   0  0  0  0  0  0  0  0  0  0  0  0
    5.8618   -1.5635  -21.8478 C   0  0  0  0  0  0  0  0  0  0  0  0
    5.8045    0.7635  -22.5654 C   0  0  0  0  0  0  0  0  0  0  0  0
    6.2963   -1.8381  -18.1377 C   0  0  0  0  0  0  0  0  0  0  0  0
    5.6882    0.2203  -20.1932 C   0  0  0  0  0  0  0  0  0  0  0  0
    5.7048   -4.0766  -17.4064 C   0  0  0  0  0  0  0  0  0  0  0  0
    5.2214   -3.4449  -19.6124 C   0  0  0  0  0  0  0  0  0  0  0  0
    6.2655   -2.8122  -17.1288 C   0  0  0  0  0  0  0  0  0  0  0  0
    5.7722   -1.1550  -20.4973 C   0  0  0  0  0  0  0  0  0  0  0  0
    5.7636   -2.1536  -19.4060 C   0  0  0  0  0  0  0  0  0  0  0  0
    5.7366    1.1936  -21.2149 C   0  0  0  0  0  0  0  0  0  0  0  0
    6.2980    2.9985  -19.5169 C   0  0  0  0  0  0  0  0  0  0  0  0
    4.0548    3.4625  -19.3544 C   0  0  0  0  0  0  0  0  0  0  0  0
    5.3634    4.0134  -23.1613 C   0  0  0  0  0  0  0  0  0  0  0  0
    5.7836    5.0489  -22.1045 C   0  0  0  0  0  0  0  0  0  0  0  0
    6.2276    3.5868  -21.9620 C   0  0  0  0  0  0  0  0  0  0  0  0
    5.6223    2.6807  -20.8483 C   0  0  1  0  0  0  0  0  0  0  0  0
    7.8193   -1.9829  -13.4234 C   0  0  0  0  0  0  0  0  0  0  0  0
    5.4674    3.8194  -17.2717 C   0  0  0  0  0  0  0  0  0  0  0  0
    5.1977   -4.3726  -18.6270 N   0  0  0  0  0  0  0  0  0  0  0  0
    5.3011    3.5311  -18.7073 N   0  0  0  0  0  0  0  0  0  0  0  0
    4.2059    3.0007  -20.5786 N   0  0  0  0  0  0  0  0  0  0  0  0
    2.8340    3.8420  -18.8068 N   0  0  0  0  0  0  0  0  0  0  0  0
    7.4730    2.8079  -19.2201 O   0  0  0  0  0  0  0  0  0  0  0  0
    5.9317   -0.9225  -23.9065 H   0  0  0  0  0  0  0  0  0  0  0  0
    5.9226   -2.6142  -22.0898 H   0  0  0  0  0  0  0  0  0  0  0  0
    5.8044    1.4938  -23.3610 H   0  0  0  0  0  0  0  0  0  0  0  0
    6.7204   -0.8633  -17.9472 H   0  0  0  0  0  0  0  0  0  0  0  0
    5.5855    0.5328  -19.1645 H   0  0  0  0  0  0  0  0  0  0  0  0
    5.6795   -4.8253  -16.6284 H   0  0  0  0  0  0  0  0  0  0  0  0
    4.8162   -3.6964  -20.5814 H   0  0  0  0  0  0  0  0  0  0  0  0
    4.3145    3.6886  -23.2272 H   0  0  0  0  0  0  0  0  0  0  0  0
    5.8006    4.0480  -24.1701 H   0  0  0  0  0  0  0  0  0  0  0  0
    6.5207    5.8251  -22.3580 H   0  0  0  0  0  0  0  0  0  0  0  0
    5.0346    5.4657  -21.4150 H   0  0  0  0  0  0  0  0  0  0  0  0
    7.2855    3.3926  -22.1923 H   0  0  0  0  0  0  0  0  0  0  0  0
    7.2963   -1.1174  -12.9905 H   0  0  0  0  0  0  0  0  0  0  0  0
    7.6892   -2.8558  -12.7668 H   0  0  0  0  0  0  0  0  0  0  0  0
    8.8907   -1.7530  -13.5197 H   0  0  0  0  0  0  0  0  0  0  0  0
    4.5311    4.2337  -16.8695 H   0  0  0  0  0  0  0  0  0  0  0  0
    5.7164    2.8905  -16.7377 H   0  0  0  0  0  0  0  0  0  0  0  0
    6.2792    4.5492  -17.1360 H   0  0  0  0  0  0  0  0  0  0  0  0
    3.4622    2.8826  -21.2365 H   0  0  0  0  0  0  0  0  0  0  0  0
    1.9983    3.7720  -19.3516 H   0  0  0  0  0  0  0  0  0  0  0  0
    2.7919    4.1849  -17.8684 H   0  0  0  0  0  0  0  0  0  0  0  0
  1  2  3  0
  1 10  1  0
  2 20  1  0
  3  4  2  0
  3  5  1  0
  4 11  1  0
  5 13  2  0
  6 10  2  0
  6 12  1  0
  7 11  2  0
  7 13  1  0
  8 10  1  0
  8 22  2  0
  9 12  2  0
  9 22  1  0
 11 12  1  0
 13 19  1  0
 14 19  1  0
 14 23  1  0
 14 26  2  0
 15 23  1  0
 15 24  2  0
 15 25  1  0
 16 17  1  0
 16 18  1  0
 17 18  1  0
 19 18  1  6
 19 24  1  0
 21 23  1  0
  3 27  1  0
  4 28  1  0
  5 29  1  0
  6 30  1  0
  7 31  1  0
  8 32  1  0
  9 33  1  0
 16 34  1  0
 16 35  1  0
 17 36  1  0
 17 37  1  0
 18 38  1  0
 20 39  1  0
 20 40  1  0
 20 41  1  0
 21 42  1  0
 21 43  1  0
 21 44  1  0
 24 45  1  0
 25 46  1  0
 25 47  1  0
M  CHG  1  24   1
M  END
>  <OMEGA_C>  (98) 
EsDZQGCWIcBjYn3B43noQJPOEcDS2mvBD+e7QDUcG79oAbfB5ZO7QJIfyL82yK7Bt765QFJyQz/f
hbTBDHvJQI5F678MGpHB7gW2QAiKYT6ei6HBFY62QJRzgsBkQIvB9xWnQOR4XMBG5pzB337IQD/7
M8DYB4nBIra4QJ3Yk79z+qPBd2+4QCPUCcBqP5vBSpK3QPDGmD8NuKnB2IjJQMrmP0CfIpzBmsCB
QPGYXUDD1ZrBEaGrQOBtgEBnSrnBCRO5QM6QoUAF1rDBWUjHQEuOZUA1sq/BGuqzQHmQK0BeyabB
BTj6QG7O/b8sxlbBC/WuQC5xdEB0LIrBSlOmQBbsi8ApBJXB4qKpQGz9YUB8qJXBH5eGQM8KQED4
oKTBcGA1QGLjdUBrdJbBtSLvQOGzM0C7wpnBZNC9QB8qbL+FQL/Bw4W9QItPJ8D3t7DB2b25QDc1
vz9G47rBJw3XQDT+XL/Uk4/BOLyyQGxkCD/lUJnBJL61QIlomsAPB4XBah6aQIuRbMDEpqTBfhCK
QMASbEBK0bnBQZ65QHWJgUBxXMHBZqnQQB5nukAj3bLBoxuhQAnnrkD7UavB/yLpQIIgWUDnibHB
DXvpQGQHj78J2U/B0w32QGLFNsD8REzBckAOQbJi4L+/UFjB6v6QQCB6h0DK9IbB6+y2QP/9OEDf
5oXBK+/IQBiTkUCfFonBiZRdQCh9OEBz5KnB2sj/P2pocUD/z5rBwa4yQOLqhUCI8o7B

>  <OMEGA_E>  (98) 
wAFqPw==

>  <OMEGA_NBR>  (98) 
    167187

$$$$
50216014
     RDKit          3D

 43 46  0  0  1  0  0  0  0  0999 V2000
    2.0310   -2.5343  -17.3203 C   0  0  0  0  0  0  0  0  0  0  0  0
    6.7758   -0.6309  -22.6361 C   0  0  0  0  0  0  0  0  0  0  0  0
    6.2649   -1.5564  -21.7087 C   0  0  0  0  0  0  0  0  0  0  0  0
    6.4950    0.7398  -22.4957 C   0  0  0  0  0  0  0  0  0  0  0  0
    3.7234   -1.8252  -18.9564 C   0  0  0  0  0  0  0  0  0  0  0  0
    5.1967    0.2629  -20.4895 C   0  0  0  0  0  0  0  0  0  0  0  0
    4.0170   -3.9259  -17.7740 C   0  0  0  0  0  0  0  0  0  0  0  0
    5.6407   -3.2713  -19.3352 C   0  0  0  0  0  0  0  0  0  0  0  0
    3.2601   -2.7605  -18.0175 C   0  0  0  0  0  0  0  0  0  0  0  0
    5.4715   -1.1143  -20.6251 C   0  0  0  0  0  0  0  0  0  0  0  0
    4.9384   -2.0780  -19.6315 C   0  0  0  0  0  0  0  0  0  0  0  0
    5.6775    1.1997  -21.4343 C   0  0  0  0  0  0  0  0  0  0  0  0
    5.2952    3.4119  -22.6027 C   0  0  0  0  0  0  0  0  0  0  0  0
    7.0737    4.2706  -21.4310 C   0  0  0  0  0  0  0  0  0  0  0  0
    4.1599    3.0149  -18.8964 C   0  0  0  0  0  0  0  0  0  0  0  0
    3.8979    4.2974  -19.7032 C   0  0  0  0  0  0  0  0  0  0  0  0
    4.1030    2.9628  -20.4347 C   0  0  0  0  0  0  0  0  0  0  0  0
    5.4028    2.7010  -21.2614 C   0  0  1  0  0  0  0  0  0  0  0  0
    6.6635    5.1942  -23.7630 C   0  0  0  0  0  0  0  0  0  0  0  0
    1.0293   -2.3480  -16.7532 N   0  0  0  0  0  0  0  0  0  0  0  0
    5.1802   -4.1629  -18.4263 N   0  0  0  0  0  0  0  0  0  0  0  0
    6.2877    4.3845  -22.5914 N   0  0  0  0  0  0  0  0  0  0  0  0
    6.5838    3.3352  -20.6449 N   0  0  0  0  0  0  0  0  0  0  0  0
    8.1939    5.0370  -21.1294 N   0  0  0  0  0  0  0  0  0  0  0  0
    4.5019    3.1663  -23.5057 O   0  0  0  0  0  0  0  0  0  0  0  0
    7.3857   -0.9739  -23.4588 H   0  0  0  0  0  0  0  0  0  0  0  0
    6.4792   -2.6086  -21.8246 H   0  0  0  0  0  0  0  0  0  0  0  0
    6.9054    1.4465  -23.2017 H   0  0  0  0  0  0  0  0  0  0  0  0
    3.1599   -0.9264  -19.1592 H   0  0  0  0  0  0  0  0  0  0  0  0
    4.6097    0.6075  -19.6510 H   0  0  0  0  0  0  0  0  0  0  0  0
    3.6609   -4.6451  -17.0513 H   0  0  0  0  0  0  0  0  0  0  0  0
    6.5688   -3.4759  -19.8481 H   0  0  0  0  0  0  0  0  0  0  0  0
    5.1194    2.8783  -18.3761 H   0  0  0  0  0  0  0  0  0  0  0  0
    3.3523    2.5651  -18.3002 H   0  0  0  0  0  0  0  0  0  0  0  0
    2.9028    4.7657  -19.6830 H   0  0  0  0  0  0  0  0  0  0  0  0
    4.6699    5.0790  -19.7589 H   0  0  0  0  0  0  0  0  0  0  0  0
    3.1912    2.5126  -20.8541 H   0  0  0  0  0  0  0  0  0  0  0  0
    7.4723    5.8866  -23.4867 H   0  0  0  0  0  0  0  0  0  0  0  0
    7.0080    4.5319  -24.5709 H   0  0  0  0  0  0  0  0  0  0  0  0
    5.7907    5.7686  -24.1068 H   0  0  0  0  0  0  0  0  0  0  0  0
    6.9605    3.0882  -19.7521 H   0  0  0  0  0  0  0  0  0  0  0  0
    8.6812    4.8930  -20.2681 H   0  0  0  0  0  0  0  0  0  0  0  0
    8.5123    5.7323  -21.7738 H   0  0  0  0  0  0  0  0  0  0  0  0
  1  9  1  0
  1 20  3  0
  2  3  2  0
  2  4  1  0
  3 10  1  0
  4 12  2  0
  5  9  2  0
  5 11  1  0
  6 10  2  0
  6 12  1  0
  7  9  1  0
  7 21  2  0
  8 11  2  0
  8 21  1  0
 10 11  1  0
 12 18  1  0
 13 18  1  0
 13 22  1  0
 13 25  2  0
 14 22  1  0
 14 23  2  0
 14 24  1  0
 15 16  1  0
 15 17  1  0
 16 17  1  0
 18 17  1  1
 18 23  1  0
 19 22  1  0
  2 26  1  0
  3 27  1  0
  4 28  1  0
  5 29  1  0
  6 30  1  0
  7 31  1  0
  8 32  1  0
 15 33  1  0
 15 34  1  0
 16 35  1  0
 16 36  1  0
 17 37  1  0
 19 38  1  0
 19 39  1  0
 19 40  1  0
 23 41  1  0
 24 42  1  0
 24 43  1  0
M  CHG  1  23   1
M  END
>  <OMEGA_C>  (99) 
r/wBQOgxIsD9j4rBJNPYQMCCIb/JFrXBrXnIQA85x790q63BKtfPQJljPT8k97PBuExuQL6e6b+d
ppfBFEumQN+Vhj6Q6qPB6YqAQG5Be8AfMY7BaYC0QMpdUcB0rprBK6ZQQKqsMMDpI5DByRavQPyi
jr85AKXB+AaeQCn+BMBJDZ3BYK61QDuPmT+DeavBinKpQA9dWkBe0rTBq1viQLmoiEClcqvBlR2F
QGD0QEDJK5fBqHZ5QEOEiUAqoJ3Br0uDQPSdPUA8eqPBgOOsQG7cLEBGF6rBnjvVQL02pkCnGr7B
d7+DP8NFFsCkBobBFMSlQNQ2hcD8aJPBbzTJQP1NjEAlu7TBRq7SQFdzVUDIKKXBUBoDQUwvoUAE
CanBcg+QQBKkSkCUC7zBblfsQCZUeb+Rq7vB0lXPQNryJsDcmK7BGfncQD4ouT8enbnBMTxKQCMr
bb8iRpnBzoKTQA+DGz8/NZ3BZ0xqQLqklMD8aIjB2TPSQFR0XsD1yJ7BENKjQIY2OEBZApPBR4tW
QLEqJEDMZpLB0cY5QP6AmEDDdp3B1W+VQOmGokBPEp7BBTxMQKHOIEBD1abBdB3vQAJfvECr5LvB
xkHgQJkFkUBJkcTBok25QLiYuEDN2sDBdLzeQAalRUBXBJ7BMeYKQVmTnEAZJaLBfDIIQdJut0C7
MK7BjtHoP5clQMCpvI3BugvWQFciGL+QvrTB+IHEQJoIxb+Lt63Byq/QQD70Rz/B1bLBZ/ZlQFhk
AMCQzpjBKG2mQCJIhz4CBaPBIOiAQCrigcDB8I7BuMG2QCVlTMBi9ZnB58RJQKTBQMBmyJHB0N2s
QKqHjr91wqTBJpGcQBDeBsAFEp3Bjj24QFisnj/HAarBNt7JQOWGPUCgZJzBsH6CQArFV0AmM5rB
1gvoQAyNgECQ5rTBvra8QIlWdUDmxrrB/j++QD0ye0AtkK7BXMKyQCv2LkBe4KbB+nKyQFMTb0DR
JorB/Ho6P8S7QMDpcYrBYvuoQD4/hMBE+pLBhA6qQGkyT0Cz/pTBxI+FQMYbPEBgFqTBgYA6QHrB
d0DlsZXBCKzwQK5KPUD48JrBdsrnQMbEbL+0q7vB9SLJQA0DJsAbLa/Bvl7fQD2svz9YKLjBeOI8
QGerlr9W4ZrBUZiTQKUFFj9pP5zBFj5sQDAumsBZa4nB75vWQHOdUcAwP53BR0D/QPw1TEAxoLTB
7UH5QJQun0Akb7XBzSGvQLoelUCdfL/BJyC1QEkWOECqrb7BUVGzQFavnEAweKvBK/KTQF7md0CT
5oXBSFLGQDKMQEDrzIXBFmLDQKlWlkAboIrBg6dZQK6PMUAq/ajBO98EQIHRekA5C5rBSmU6QFfi
hUCZGI7BmbK5QK7MNcAJfX/BIaO1QPXPCb9VpbfBi/muQFqRw7/l16/BJwK4QLmrUD/pqrTBQy+y
QI1EAMAjIJLBRiqsQITtRz47DaLBAuuUQMe7hcD8i43BiLONQNfSWcA0KZ/Bk9uqQNVuQMBwfYrB
KEeqQFpNlb/o+KTBL1mjQFbCDMBdrZzBXxC0QF8EmT+5xqnB+2zIQHwvNkC+MJvBycOCQGQAZUCf
DpvBRSG4QKW+g0B3YbjB9sLGQF6IoUAoS6/B6sbOQDhjYkBre67Bqj61QGDVKkAEVabBCnqrQH/7
akATeInB+NfFQHrwLMDn/G3B3dWGQFGFi8CesZfBjNCoQEC+XUCgH5XBJfCIQO+zSUAL6KTBQlQ4
QEOugkBmRpfBxB/sQI38H0DSMZjBsfG4QNpvUb8n87/B6m+tQKVPJMDkJ7LBpN68QCQgyT8vt7rB
n+XCQDCSjL9X94/BlICnQDLr8z6dypnB1TiPQGNlnsAAqofB0V6CQNwJZMAPOafB0dOVQHBxe0Bo
qLnBy63IQDhphEBQJcDBysLhQM6Jt0BrkLDB0OiuQE7ZsECEE6rBuhrwQNszTkCsxK/B8WCOQH/O
hUA/qYbBvWuuQGitLEBRcIXB7KDHQNlDiUBBm4fBzkZlQGPbSUDcpKrB368FQHR/hEA8JZzBOHYz
QFd/jEBhr4/B

>  <OMEGA_E>  (99) 
QAWMPyyLFz9Y01U/

>  <OMEGA_NBR>  (99) 
    223059

$$$$
50225103
     RDKit          3D

 48 51  0  0  1  0  0  0  0  0999 V2000
    2.7842   -2.9199  -17.2924 C   0  0  0  0  0  0  0  0  0  0  0  0
    5.7763   -4.3594  -19.0247 C   0  0  0  0  0  0  0  0  0  0  0  0
    4.6636   -4.2373  -18.1725 C   0  0  0  0  0  0  0  0  0  0  0  0
    6.1434   -3.2891  -19.8570 C   0  0  0  0  0  0  0  0  0  0  0  0
    6.3324   -1.2377  -21.9900 C   0  0  0  0  0  0  0  0  0  0  0  0
    6.7199   -0.1813  -22.8181 C   0  0  0  0  0  0  0  0  0  0  0  0
    4.2844   -1.9660  -18.9811 C   0  0  0  0  0  0  0  0  0  0  0  0
    5.6239    0.3584  -20.2959 C   0  0  0  0  0  0  0  0  0  0  0  0
    3.9183   -3.0408  -18.1509 C   0  0  0  0  0  0  0  0  0  0  0  0
    5.3981   -2.0872  -19.8419 C   0  0  0  0  0  0  0  0  0  0  0  0
    5.7835   -0.9737  -20.7217 C   0  0  0  0  0  0  0  0  0  0  0  0
    6.0506    1.4378  -21.1036 C   0  0  0  0  0  0  0  0  0  0  0  0
    6.5923    1.1493  -22.3879 C   0  0  0  0  0  0  0  0  0  0  0  0
    6.4960    2.9077  -19.1360 C   0  0  0  0  0  0  0  0  0  0  0  0
    4.2548    3.3246  -18.9990 C   0  0  0  0  0  0  0  0  0  0  0  0
    6.5460    3.9856  -21.3831 C   0  0  0  0  0  0  0  0  0  0  0  0
    5.8992    2.8563  -20.5319 C   0  0  1  0  0  0  0  0  0  0  0  0
    6.3490    3.8690  -22.9078 C   0  0  0  0  0  0  0  0  0  0  0  0
    7.0748    5.0432  -23.5902 C   0  0  0  0  0  0  0  0  0  0  0  0
    4.8608    3.8687  -23.3264 C   0  0  0  0  0  0  0  0  0  0  0  0
    5.5736    3.3416  -16.8345 C   0  0  0  0  0  0  0  0  0  0  0  0
    1.8570   -2.8234  -16.5926 N   0  0  0  0  0  0  0  0  0  0  0  0
    5.4317    3.0975  -18.2751 N   0  0  0  0  0  0  0  0  0  0  0  0
    4.4737    3.1429  -20.2822 N   0  0  0  0  0  0  0  0  0  0  0  0
    3.0341    3.6861  -18.4511 N   0  0  0  0  0  0  0  0  0  0  0  0
    7.6790    2.7851  -18.8380 O   0  0  0  0  0  0  0  0  0  0  0  0
    7.1642    2.3652  -23.4971 S   0  0  0  0  0  0  0  0  0  0  0  0
    6.3479   -5.2756  -19.0389 H   0  0  0  0  0  0  0  0  0  0  0  0
    4.3800   -5.0610  -17.5341 H   0  0  0  0  0  0  0  0  0  0  0  0
    6.9977   -3.3843  -20.5107 H   0  0  0  0  0  0  0  0  0  0  0  0
    6.4543   -2.2576  -22.3236 H   0  0  0  0  0  0  0  0  0  0  0  0
    7.1214   -0.3900  -23.7987 H   0  0  0  0  0  0  0  0  0  0  0  0
    3.7145   -1.0488  -18.9605 H   0  0  0  0  0  0  0  0  0  0  0  0
    5.1684    0.5592  -19.3374 H   0  0  0  0  0  0  0  0  0  0  0  0
    6.1135    4.9435  -21.0586 H   0  0  0  0  0  0  0  0  0  0  0  0
    7.6273    3.9842  -21.1809 H   0  0  0  0  0  0  0  0  0  0  0  0
    6.9427    4.9731  -24.6799 H   0  0  0  0  0  0  0  0  0  0  0  0
    6.6535    5.9934  -23.2302 H   0  0  0  0  0  0  0  0  0  0  0  0
    8.1469    5.0021  -23.3475 H   0  0  0  0  0  0  0  0  0  0  0  0
    4.7871    3.7835  -24.4206 H   0  0  0  0  0  0  0  0  0  0  0  0
    4.3482    3.0161  -22.8571 H   0  0  0  0  0  0  0  0  0  0  0  0
    4.3878    4.8063  -22.9991 H   0  0  0  0  0  0  0  0  0  0  0  0
    4.5777    3.4581  -16.3820 H   0  0  0  0  0  0  0  0  0  0  0  0
    6.0910    2.4906  -16.3677 H   0  0  0  0  0  0  0  0  0  0  0  0
    6.1586    4.2593  -16.6741 H   0  0  0  0  0  0  0  0  0  0  0  0
    3.7707    3.1921  -20.9917 H   0  0  0  0  0  0  0  0  0  0  0  0
    2.2417    3.8270  -19.0447 H   0  0  0  0  0  0  0  0  0  0  0  0
    2.9456    3.8059  -17.4623 H   0  0  0  0  0  0  0  0  0  0  0  0
  1  9  1  0
  1 22  3  0
  2  3  2  0
  2  4  1  0
  3  9  1  0
  4 10  2  0
  5  6  2  0
  5 11  1  0
  6 13  1  0
  7  9  2  0
  7 10  1  0
  8 11  2  0
  8 12  1  0
 10 11  1  0
 12 13  2  0
 12 17  1  0
 13 27  1  0
 14 17  1  0
 14 23  1  0
 14 26  2  0
 15 23  1  0
 15 24  2  0
 15 25  1  0
 17 16  1  6
 16 18  1  0
 17 24  1  0
 18 19  1  0
 18 20  1  0
 18 27  1  0
 21 23  1  0
  2 28  1  0
  3 29  1  0
  4 30  1  0
  5 31  1  0
  6 32  1  0
  7 33  1  0
  8 34  1  0
 16 35  1  0
 16 36  1  0
 19 37  1  0
 19 38  1  0
 19 39  1  0
 20 40  1  0
 20 41  1  0
 20 42  1  0
 21 43  1  0
 21 44  1  0
 21 45  1  0
 24 46  1  0
 25 47  1  0
 25 48  1  0
M  CHG  1  24   1
M  END
>  <OMEGA_C>  (100) 
njAyQKrfOsDCVorBLte4QECAi8CGMpjBEzyVQMyXh8A5YZHBVZbEQGWAUsAY257BMqPKQPhtnr+D
66/BFQnXQMicOb5mi7bBlRmJQOym+7852ZfBoPazQOJ6tz7yXaLBqcV6QDOcQsAcNZHB77ysQPyU
BcA4vJ7BjBK5QF1Geb/4xaXBU57BQEIIuD8Y1KjBhvTSQK4akz9XGrPBXd/PQA4XOkCBFpnBoSeI
QMPGVED8/ZfBH3nRQEYTf0CVEKvBYMa8QMPNNkBfQaTB0yrLQC6dd0BCQ7fB0WTiQJ1hoUChuLzB
rYubQLiYd0B6nLrBn1qyQF/dVUAWrYbBlLPtPyazNMCevYTBsdCtQOQ8RkBRM5LBqyiPQCwlSUD/
QaLB7y1CQHDoa0Dym5PBI7r1QDI/MkBStJbBe0HlQLZfF0AJ+rvBByLLQMnRqMC9T5jBUSmMQJbz
ocDYRYzBXe3fQB6YWMD3FaTB4InOQEJ9EMDNlrLBO+LjQBivx762Y77BK7ttQMA/hr8Hr5fBWGOl
QAAlDz8Ms5rB1KHDQN4wnkDzd6jBtxL0QDj9fkBpcqnB8ireQF8jn0CGcMXBbenUQAXKv0CM17nB
xVkCQYgRoECbx7rBQzCZQGQlckBxXcPBZCSLQHUHQUBF27bB5GiMQFHNmUAX/rfBtXySQPNQXUBi
DoPB2+nCQK1lH0AO8YLBMBPFQMxLiECjZIXBDlNxQIRLTED77qfBGHgPQEjtdECTW5jBOYU8QPaT
c0DJsovB

>  <OMEGA_E>  (100) 
uMuXPg==

>  <OMEGA_NBR>  (100) 
     59703

$$$$
50249262
     RDKit          3D

 48 52  0  0  1  0  0  0  0  0999 V2000
    4.4103   -4.4141  -20.0023 C   0  0  0  0  0  0  0  0  0  0  0  0
    5.1210   -3.3490  -20.5646 C   0  0  0  0  0  0  0  0  0  0  0  0
    6.0051   -1.1455  -22.3241 C   0  0  0  0  0  0  0  0  0  0  0  0
    6.6353   -0.0724  -22.9567 C   0  0  0  0  0  0  0  0  0  0  0  0
    5.2677    0.3367  -20.5350 C   0  0  0  0  0  0  0  0  0  0  0  0
    3.1720   -4.1616  -19.3810 C   0  0  0  0  0  0  0  0  0  0  0  0
    5.2957   -0.9391  -21.1221 C   0  0  0  0  0  0  0  0  0  0  0  0
    4.5716   -2.0539  -20.4996 C   0  0  0  0  0  0  0  0  0  0  0  0
    5.8391    1.4312  -21.1955 C   0  0  0  0  0  0  0  0  0  0  0  0
    6.5408    1.2148  -22.4130 C   0  0  0  0  0  0  0  0  0  0  0  0
    3.3071   -1.8693  -19.8701 C   0  0  0  0  0  0  0  0  0  0  0  0
    6.4137    2.8739  -19.2324 C   0  0  0  0  0  0  0  0  0  0  0  0
    4.1883    3.3425  -18.9224 C   0  0  0  0  0  0  0  0  0  0  0  0
    7.5629    4.5037  -23.5448 C   0  0  0  0  0  0  0  0  0  0  0  0
    7.8470    5.8445  -22.8634 C   0  0  0  0  0  0  0  0  0  0  0  0
    6.4970    5.2322  -20.9365 C   0  0  0  0  0  0  0  0  0  0  0  0
    6.1209    3.8933  -21.6009 C   0  0  1  0  0  0  0  0  0  0  0  0
    7.3233    3.4485  -22.4613 C   0  0  1  0  0  0  0  0  0  0  0  0
    5.6880    2.8113  -20.5771 C   0  0  1  0  0  0  0  0  0  0  0  0
    5.6006    3.0720  -16.8432 C   0  0  0  0  0  0  0  0  0  0  0  0
    2.6457   -2.9150  -19.3231 N   0  0  0  0  0  0  0  0  0  0  0  0
    5.4387    3.2130  -18.2999 N   0  0  0  0  0  0  0  0  0  0  0  0
    4.2860    3.0622  -20.2014 N   0  0  0  0  0  0  0  0  0  0  0  0
    3.0054    3.7016  -18.2921 N   0  0  0  0  0  0  0  0  0  0  0  0
    7.5751    2.5573  -18.9998 O   0  0  0  0  0  0  0  0  0  0  0  0
    7.0974    2.2224  -23.1470 O   0  0  0  0  0  0  0  0  0  0  0  0
    6.7627    6.2023  -21.9728 O   0  0  0  0  0  0  0  0  0  0  0  0
    2.6887   -0.6606  -19.8651 F   0  0  0  0  0  0  0  0  0  0  0  0
    4.8063   -5.4180  -20.0440 H   0  0  0  0  0  0  0  0  0  0  0  0
    6.0756   -3.5169  -21.0410 H   0  0  0  0  0  0  0  0  0  0  0  0
    6.0607   -2.1342  -22.7550 H   0  0  0  0  0  0  0  0  0  0  0  0
    7.1957   -0.2348  -23.8655 H   0  0  0  0  0  0  0  0  0  0  0  0
    4.8034    0.4741  -19.5696 H   0  0  0  0  0  0  0  0  0  0  0  0
    2.6280   -4.9833  -18.9392 H   0  0  0  0  0  0  0  0  0  0  0  0
    6.6694    4.5925  -24.1801 H   0  0  0  0  0  0  0  0  0  0  0  0
    8.4248    4.2118  -24.1628 H   0  0  0  0  0  0  0  0  0  0  0  0
    8.7793    5.7659  -22.2849 H   0  0  0  0  0  0  0  0  0  0  0  0
    7.9566    6.6245  -23.6313 H   0  0  0  0  0  0  0  0  0  0  0  0
    5.6645    5.5805  -20.3075 H   0  0  0  0  0  0  0  0  0  0  0  0
    7.3949    5.0982  -20.3153 H   0  0  0  0  0  0  0  0  0  0  0  0
    5.2719    4.0768  -22.2758 H   0  0  0  0  0  0  0  0  0  0  0  0
    8.2155    3.3780  -21.8217 H   0  0  0  0  0  0  0  0  0  0  0  0
    4.6842    3.4102  -16.3375 H   0  0  0  0  0  0  0  0  0  0  0  0
    5.7876    2.0166  -16.5957 H   0  0  0  0  0  0  0  0  0  0  0  0
    6.4512    3.6835  -16.5080 H   0  0  0  0  0  0  0  0  0  0  0  0
    3.5131    3.0243  -20.8348 H   0  0  0  0  0  0  0  0  0  0  0  0
    2.1565    3.7595  -18.8174 H   0  0  0  0  0  0  0  0  0  0  0  0
    3.0018    3.9024  -17.3124 H   0  0  0  0  0  0  0  0  0  0  0  0
  1  2  2  0
  1  6  1  0
  2  8  1  0
  3  4  2  0
  3  7  1  0
  4 10  1  0
  5  7  2  0
  5  9  1  0
  6 21  2  0
  7  8  1  0
  8 11  2  0
  9 10  2  0
  9 19  1  0
 10 26  1  0
 11 21  1  0
 11 28  1  0
 19 12  1  1
 12 22  1  0
 12 25  2  0
 13 22  1  0
 13 23  2  0
 13 24  1  0
 14 15  1  0
 14 18  1  0
 15 27  1  0
 16 17  1  0
 16 27  1  0
 17 18  1  0
 17 19  1  0
 18 26  1  0
 19 23  1  0
 20 22  1  0
  1 29  1  0
  2 30  1  0
  3 31  1  0
  4 32  1  0
  5 33  1  0
  6 34  1  0
 14 35  1  0
 14 36  1  0
 15 37  1  0
 15 38  1  0
 16 39  1  0
 16 40  1  0
 17 41  1  6
 18 42  1  1
 20 43  1  0
 20 44  1  0
 20 45  1  0
 23 46  1  0
 24 47  1  0
 24 48  1  0
M  CHG  1  23   1
M  END
>  <OMEGA_C>  (101) 
NCGNQChAjcC1BKDBaN+jQGZWVsBUhKTB2inAQHWekr+2l7LBUFTUQOAvlL1ap7fBQpGoQMxkrD6a
R6TB2wJLQKIrhcBEDJvBQnapQEZocL8J+qjBXkqSQNlyA8Aj/6PBkNm6QCExtz94kKnBfk7RQFF/
mz/NTbPB7aZTQJBE778E9p7BEj3NQJLtN0Dp25nBsAaGQBDsVUAOYZfBYgPyQLUekEC0W7zBuBr7
QIsGu0A56LbBsOfPQPBtp0ALfqfBuN7DQPAreUC3zqzB2ljqQDi0XEDWsLPBaAS2QLjrM0DhnaTB
xDezQASbREDovobB31MpQNuPOsDHlZrB6AmuQFSiTUAwZpLB3iaJQJz7Q0BpnKHBoVhAQKDmbEAk
VpLBnmfyQKyqI0CB/5fBlh3jQDQ8DkANLbnBRGjYQNZ4xkBHyK/BVxQsQEQbKb+t657B08yZQGFg
rcAqWqDBomvCQEwVYcDnU6jB7vDBQNWWCMA/CrbBS0PmQP9ycL6Y7L7BtLWZQHq58j6CjpzB4jAo
QPp2n8Brg5fBamvVQP/1kkDtcMHBy8sGQfTGhkB5TcHBBXgMQZmCuEB3R7LBypz+QMz700DkDL3B
30O1QB6TskDZdaLB0qLsQNUko0C9haLBGrOoQIJ1gkDBNLLBj3IDQbswWEDYkq7BkeSVQF5BWkAq
s4LBojO5QB4QAUD/w4TBoXDOQES+a0BqEITBrdZgQGqNQUCdrabBPwQKQKKbcEAZipbBIx5AQO7A
eUDhf4rB

>  <OMEGA_E>  (101) 
8CpCPw==

>  <OMEGA_NBR>  (101) 
     10863

$$$$
284495
     RDKit          3D

 53 58  0  0  1  0  0  0  0  0999 V2000
    5.3236   -4.1863  -17.9238 C   0  0  0  0  0  0  0  0  0  0  0  0
    5.7950   -3.2338  -18.8334 C   0  0  0  0  0  0  0  0  0  0  0  0
    6.0960   -1.6943  -21.4207 C   0  0  0  0  0  0  0  0  0  0  0  0
    6.6069   -0.7305  -22.2912 C   0  0  0  0  0  0  0  0  0  0  0  0
    6.4259    7.8906  -23.3829 C   0  0  0  0  0  0  0  0  0  0  0  0
    5.1396    0.0655  -20.0284 C   0  0  0  0  0  0  0  0  0  0  0  0
    5.8557    4.7450  -21.5308 C   0  0  0  0  0  0  0  0  0  0  0  0
    7.2704    5.0727  -23.4842 C   0  0  0  0  0  0  0  0  0  0  0  0
    6.2729    7.6109  -20.9796 C   0  0  0  0  0  0  0  0  0  0  0  0
    3.9582   -4.1825  -17.5729 C   0  0  0  0  0  0  0  0  0  0  0  0
    6.3106    9.2759  -23.1918 C   0  0  0  0  0  0  0  0  0  0  0  0
    5.3628   -1.2940  -20.2913 C   0  0  0  0  0  0  0  0  0  0  0  0
    4.8866   -2.2968  -19.3540 C   0  0  0  0  0  0  0  0  0  0  0  0
    6.4015    7.0427  -22.2611 C   0  0  0  0  0  0  0  0  0  0  0  0
    6.5061    5.6010  -22.4298 C   0  0  0  0  0  0  0  0  0  0  0  0
    5.6649    1.0400  -20.8911 C   0  0  0  0  0  0  0  0  0  0  0  0
    6.0026    3.3578  -21.6521 C   0  0  0  0  0  0  0  0  0  0  0  0
    6.4122    0.6339  -22.0300 C   0  0  0  0  0  0  0  0  0  0  0  0
    6.7751    2.8259  -22.7180 C   0  0  0  0  0  0  0  0  0  0  0  0
    7.3838    3.6935  -23.6379 C   0  0  0  0  0  0  0  0  0  0  0  0
    6.1650    9.0058  -20.8607 C   0  0  0  0  0  0  0  0  0  0  0  0
    3.5275   -2.3432  -18.9655 C   0  0  0  0  0  0  0  0  0  0  0  0
    6.3308    2.8089  -19.2758 C   0  0  0  0  0  0  0  0  0  0  0  0
    4.1142    3.2154  -18.8687 C   0  0  0  0  0  0  0  0  0  0  0  0
    5.5269    2.4929  -20.5199 C   0  0  2  0  0  0  0  0  0  0  0  0
    5.7394    3.6150  -16.9636 C   0  0  0  0  0  0  0  0  0  0  0  0
    3.0905   -3.2789  -18.0919 N   0  0  0  0  0  0  0  0  0  0  0  0
    6.1821    9.8093  -21.9529 N   0  0  0  0  0  0  0  0  0  0  0  0
    5.4208    3.3224  -18.3674 N   0  0  0  0  0  0  0  0  0  0  0  0
    4.1426    2.8191  -20.1237 N   0  0  0  0  0  0  0  0  0  0  0  0
    2.9606    3.5167  -18.1608 N   0  0  0  0  0  0  0  0  0  0  0  0
    7.5495    2.7501  -19.1557 O   0  0  0  0  0  0  0  0  0  0  0  0
    7.0193    1.4872  -22.9192 O   0  0  0  0  0  0  0  0  0  0  0  0
    8.1170    3.2018  -24.6620 F   0  0  0  0  0  0  0  0  0  0  0  0
    6.0524    9.5543  -19.6304 F   0  0  0  0  0  0  0  0  0  0  0  0
    2.6311   -1.4798  -19.5046 F   0  0  0  0  0  0  0  0  0  0  0  0
    5.9966   -4.9147  -17.4962 H   0  0  0  0  0  0  0  0  0  0  0  0
    6.8337   -3.2189  -19.1287 H   0  0  0  0  0  0  0  0  0  0  0  0
    6.2638   -2.7435  -21.6145 H   0  0  0  0  0  0  0  0  0  0  0  0
    7.1547   -1.0365  -23.1702 H   0  0  0  0  0  0  0  0  0  0  0  0
    6.5317    7.4815  -24.3768 H   0  0  0  0  0  0  0  0  0  0  0  0
    4.5645    0.3619  -19.1636 H   0  0  0  0  0  0  0  0  0  0  0  0
    5.2406    5.1556  -20.7438 H   0  0  0  0  0  0  0  0  0  0  0  0
    7.7694    5.7362  -24.1750 H   0  0  0  0  0  0  0  0  0  0  0  0
    6.2573    6.9831  -20.1009 H   0  0  0  0  0  0  0  0  0  0  0  0
    3.5936   -4.9189  -16.8721 H   0  0  0  0  0  0  0  0  0  0  0  0
    6.3247    9.9309  -24.0504 H   0  0  0  0  0  0  0  0  0  0  0  0
    4.8463    4.0127  -16.4595 H   0  0  0  0  0  0  0  0  0  0  0  0
    6.0632    2.6915  -16.4611 H   0  0  0  0  0  0  0  0  0  0  0  0
    6.5478    4.3596  -16.9186 H   0  0  0  0  0  0  0  0  0  0  0  0
    3.3437    2.7493  -20.7211 H   0  0  0  0  0  0  0  0  0  0  0  0
    2.0675    3.4386  -18.6038 H   0  0  0  0  0  0  0  0  0  0  0  0
    3.0218    3.8121  -17.2074 H   0  0  0  0  0  0  0  0  0  0  0  0
  1  2  2  0
  1 10  1  0
  2 13  1  0
  3  4  2  0
  3 12  1  0
  4 18  1  0
  5 11  2  0
  5 14  1  0
  6 12  2  0
  6 16  1  0
  7 15  2  0
  7 17  1  0
  8 15  1  0
  8 20  2  0
  9 14  2  0
  9 21  1  0
 10 27  2  0
 11 28  1  0
 12 13  1  0
 13 22  2  0
 14 15  1  0
 16 18  2  0
 16 25  1  0
 17 19  2  0
 17 25  1  0
 18 33  1  0
 19 20  1  0
 19 33  1  0
 20 34  1  0
 21 28  2  0
 21 35  1  0
 22 27  1  0
 22 36  1  0
 25 23  1  1
 23 29  1  0
 23 32  2  0
 24 29  1  0
 24 30  2  0
 24 31  1  0
 25 30  1  0
 26 29  1  0
  1 37  1  0
  2 38  1  0
  3 39  1  0
  4 40  1  0
  5 41  1  0
  6 42  1  0
  7 43  1  0
  8 44  1  0
  9 45  1  0
 10 46  1  0
 11 47  1  0
 26 48  1  0
 26 49  1  0
 26 50  1  0
 30 51  1  0
 31 52  1  0
 31 53  1  0
M  CHG  1  30   1
M  END
>  <OMEGA_C>  (102) 
3FqqQOf1hcAHZI/BTXC5QCv2TsC4qpbB0hLDQPbf2L+RXavBcmvTQLj/Or9LVLLB4qDNQJJ//EAq
ELvBhHekQKAPhj0QOqDBQWK7QAPXl0AqP6zBtqboQNpTokCy37vBY7vIQECM80Ao1qfBsVN9QDLX
hcBSlYzBoPDJQD5qFEG2iLnB95urQMShpb+pVKLB+V6cQC3/EsAI1ZrBXNnMQLRd4UDMFrLBQDLQ
QHo7s0ArcLPBK0e1QDQehT/7IKfBkhXAQLfmVkCCN63BDDHNQPNGIj9ZPbDBps3YQFPcNEB1vrXB
EEjsQOhhbEBaGr3BBUjFQOUXEEGf4qbBacJhQJX2FcBsuZfBSpbKQFLEM0DZNJrBhaeDQLfITUAE
85bB+tuwQGOMH0DFKKTBd6m3QHJbZ0BatYfBh8tFQH7ZUcAvvJDBudPFQPPyHEGZn6/BaHetQGCi
VECB8JLBjZCEQHpsNEBB/aDB7no9QHoRYUBoSZHBr5XxQAwBMEDZPpnBWZ7gQHRcvj+LWrfBFt8B
QRHrTEDBS8XBoq3BQH3eGEEIC53BS2QoQNVpvb9bCZzB7uO/QGNFncBH+IvBiq3aQJcCTsCWB5nB
tnDIQEKVL8B26qzBGvPkQMashL96XLnBEQTRQEho70CsA8PBrhCSQBRJuT7+TpnBULOnQOX6pEBQ
86XBxp74QNSOt0BzZsHBHzzIQPF130CSzqDByP1lQNZnncAH+obBm2PKQBDlHkEhZ8DBqRSbQAho
gEATrYPB0QXCQFRCLEBFsIPBo4fRQP2Bi0BjWYfB4v9VQEL0L0C3xKXBkVEEQJgSXECJ1JTBRGVB
QNL4c0DMqInBOhSrQBavhsAZfY/BZuW5QHIAUMBov5bBWjHDQAdu2r+Oc6vB1oDTQAeVPL+vXrLB
IVzGQNB88kD5ZKfBEOSjQHB8KD0yU6DBak26QDwwl0DfG6zBvEDnQP98okDRwrvB+k7MQEyX/EDp
j7rBrLF+QPgch8DyuIzBZJnCQGuHD0G/TKbB+nerQHteqL/9bqLBkIWcQOzCFMCR8ZrBbCPLQNTw
4EAWt7HBCbvOQCbwskDUQ7PBUcW0QJXUgj+ZKafB97O/QHbsVUB1Fa3BfhbNQCAkID9rPLDB5Z3Y
QPijNEDon7XBvY3rQKTGbEBdAr3B8FPIQNJhFEEf5rjBOvthQC77GMD25ZfBqU/KQL7NMEBUEZrB
4r6DQO4WTUD1zpbBmYmwQLARHkBUEKTB2dq3QM5rZUBknYfBwoxGQAQwVcCz6pDBD4zDQOaiHEFq
767B4n6sQNDWQ0DCN5LBvFSEQIDsMkA70aDB6Oc/QE4nbUCxnZHB4WnxQILyMkCcTZnBKejgQLdE
vj/ZO7fBhYcBQYQETkCcPcXBC9/IQE6OIUFud8HBOgUoQER1xb9BSJzBqtnAQH67ncDWDIzBvCrb
QPgyTsAYE5nB8MrIQJA/MMChBq3BNiblQBGyhL95ZrnBZ5rFQJH83UD6cKDBfBqRQBFtqT4jdJnB
aVWmQBv6o0DR0qXBPrj2QOUBuECMTsHByjnQQA7870AJjMLB78xnQBDInsBTHYfBeeC+QBdcFkES
a57BUZWaQDctb0C+4YLBvsvMQGlxN0DXfYPBbrTIQNplkUDBh4jBgTJVQGToLUAHiKXBYCoIQKKe
cUDZgZXBdQdEQK3Of0AQ+4nBLcNJQOlYUMAzvI/BEjljQDQ3EMBR45bBfTu/QNya1r/+1avBrdLP
QE/PN7/rybLBuVrUQFq4/UDAerrB726jQOD3tD2bTKDBJYq+QMiJmEDvF6zBT/vrQIE2okAVurvB
Y9/OQIkx80ATUafBuqaCQPW6h8CRn4zBLCrSQHUEFUEcr7jBStGpQFAUo7/EeqLB6MObQPrZEcBi
zJrBZnvSQNrH4UC/qrHBTi3UQPyVs0D6ObPBa3O0QFashz/hO6fB/7bBQCAgWECNKq3BMWvLQFxm
JT9merDBT8XZQAYvNUC4vrXBvTDuQH7ua0C3Cr3Bo+XMQG/mD0GgGKbBpVu4QCdCUsCXPpfBCkTK
QKCzM0DmG5rB/0iDQJ2FTUDSFJfBjx6xQI0FIUCQNqTB+X62QEpeaUAtwofBTWWrQCO4h8BjUpDB
Q3bOQDQnHUH2rK7BIuWsQPPzVUD8/5LBsd2EQKrwN0A5QKHB5NY7QLPWW0CSXpHBfxzxQM70LUBw
75jBWL3fQEhjvj9lhrfBE4YCQaJLS0ABRsXBgarJQNk5GEGyJZzBDNLhQMf9UcBgdJrB0T8JQCV1
UcADo4zB5yM3QG5vvb+VVpnBu9HCQPCHLsDDoa3BGSXgQHyag78s/bnBzW3XQFJI8UD9gMLBi4GR
QLuGxz4oUZnBrVyrQDERpkBTwKXBbIb8QLYbt0A4OsHB1KPNQMt93kC8Z6DBEWhxQJSMoMAxJofB
sHXTQIjOH0HUbL/B4dSZQLHzgUDl34PBtTbAQEBbLkDHnoPBoqXQQBYxjEDUW4fBDaJXQDgvN0Br
OqbBYgkDQC3rVUDs+pTBecE+QAUVbEDUo4nBoi5LQKidUsC6/Y/B2MhjQBofEsBYHpfB5iG+QAOI
2b+OZqzBJ3DPQIzmOr/HGLPBY8m2QKZi9ECvV6rBJPWiQECdJT1zfqDBtL28QETHlkCQ4KvB2uPn
QG4goUBZ47vBgNn7QOQ09ECmLLPBpiWDQFKuicBfTo3BEF6+QKGRD0HgcafBHw6pQJsyqL+V9KLB
ZWibQBMLFcAqZ5vBmPrVQKW+3kA0ZrDB0ZzRQGjmsUCDD7PBwnC0QEffgj+NMafB2YvAQN4kVUCS
BK3BBMnLQPyGHz+Lb7DBLWnZQDU8M0ARirXBcKrsQPxaakDS8bzBFKAAQUNkD0HrFLDBt/63QEWY
VsDONZjBqXDKQA9XMUDs8ZnBEmqDQK5+TEAL0pbBluewQLAsHkAPAaTB2IK3QHStbkBi5ofBrWWr
QL0fisAsVJHBIN/iQB/KGUHfV6rBoX6sQNS8SEBVTZLBaq6EQE91NEBx6KDBwaM9QKZbZ0DJg5HB
5HjxQCPPNkCMM5nBWkvhQDwdvD+CIrfBSfgCQc0oS0CZ0MTBdvQSQfF1GUHqzbLB9DDhQCWaVsCd
pZvBpKkLQBrTUsCWlYzBgBI4QHjWvr/yRJnBO9/AQFOxL8C9cq7Bh7PfQIHZgr9qWrrBAKCZQOdx
5EDj+KfBuuqQQKBspj4xfJnBa7qpQCcApEDEdqXBPz71QMlgtkDk08HBQ0QKQfjz40Atp7fB+thy
QIDOosAG5YfBJqOmQPoMGEGzz6LB6w2aQFZAe0CSWIPBGOrLQP4OQkCNZIPBcNLIQG6PlUDuLInB
+ahWQBqvMUAHx6XBsqUFQEtraUCDYZXBWt1AQCCqeEDK0onBfp6cQMGNVMDKdYjBPD6sQLe9FcBf
eI/BTia+QNM+2r/XWavBgqLNQBj0P783lLLBsMjqQFuv/kBFg7jBZgGqQDDuoz1GC5/BhL/BQGO6
mUAF/avByAziQGDnoUD6mr3BxvarQNuU9kASX63B9+Z5QOr7hsBrFozBrpLmQGKsFUEMcrfBJlCs
QDJnpb/ljaHBQhCcQNbVEsA/+ZnBlArNQLmO40BRZLPBnlTQQOd+tEC3VbTBEsa4QGKphj/XZKbB
Pp/EQO5wWUBS1azBOArLQFJDID9LPbDB/o3WQG7HNEBpObbBbB7lQKiiakDwhL7B7qCpQNq9EUFU
pqzBT2B4QDlSTsAJG53BBkTMQMjWNkA3R5nBhqOEQGfNU0DgHpfBGq20QLnpIUCdoaPBQBO1QDAk
bUAgE4fBT4paQN8DhcDSL5bBwIzGQH56HkHAnrHBBHitQLJ3WECAa5LBmsuHQC9QN0CLA6HBIbA8
QJbuakDtPJLB5ozyQDdkLUCJeJfBwjvbQISuuz/FCLjBJB72QMBdSEBdhsfBKraJQGi+GkE856bB
RzJWQLWrSsDVD6fB/7KoQAXiWMAbYoDBiTTEQHoO0b+y24zBj+W/QCFiMMAAS63BS7vbQJ44ib/T
CLrBYEQCQeBP8UDWNL3BQt2cQGepyD7Xc5fBMTi0QOzZp0Bo3aTBd03tQDUZtkAaB8TBE5mUQCLc
4kAhWKnB3s5hQP0en8Dcr4bBt2b9QBEEIEGcXLvByYiXQB1Zg0ADg4PBFr++QPHZMkDjxYLBeKLO
QNqmjkBAeIbBklpeQLUGMUBdEKbBJ6MFQNloZkBbR5bB0K48QF0KgED6r4rB+A9eQKkgiMA4Q5fB
to97QGksUsC5fJ7Bfte+QKwS278VP6zBqInOQKflOr82OrPBPSnqQLAKAEGgTrfBM+ypQJpvAj0z
pZ/BNW7BQPuYmUD1gavBWWXiQDfGo0AV/LzBvPCqQPtn9kBpY6zBBhmAQNswicAS0ozB1oXlQEFM
FkFf/bXBsc+sQKyYqr98ZKLBdOOcQHk2F8CTApvBN27MQIc75EADbrLBESXQQJRNtUD4pbPBIei4
QH3Lgz/Ou6bB863EQIFtWUBmoazBOb7LQBtWIz+zmbDBIyjXQLTpNkCHFbbBj93lQJOjbkDEKr7B
7S+oQLuaEUFCaavB6cWsQLn1HMDVapDBaYzLQCCrMkCaK5nBmbiDQDP0TUC3GJfB1Xm0QD/VH0BZ
qaPBMsqzQDifaUDqCofBfVueQNjUWcCvlonBvBnFQDmxHkG0JrDB4KerQA1uSUDi75HBX2yHQMYt
NEAGGKHB9Ac7QIQoaEDHapLBkxLyQNQQLUA1b5fBGD3cQNXSwD/rJ7jBVGH3QAhyTkDjOsfBZd6H
QJ8zGkFnpqXBROPLQFnCzb+5C43Buc8tQPHsnsAbq5nBnwVjQLipT8DqjqbB85bAQD5TMMCYba7B
xPTcQLVRg7/etrrBJx0CQRRf80ChAbzBSSScQKKgoj4XD5jBA4SzQMvlpkDyVKTBar/tQGqwuEAL
QMPBOZSTQNkd4kAziqjBC5JpQBgdocBtQ4fBYFf8QKDqIEFtuLnBQiOVQH61dkCTCYPBLKjFQA0+
OUAdeILBqqjGQAJ5kkAZfYfBmiJeQHITL0BQPqbB1/kEQG81aEA8s5bBpyg6QM7xekAyxYrB

>  <OMEGA_E>  (102) 
BKEJP5DBCj8A1Co/lHYrP8BPOz/YIUA/

>  <OMEGA_NBR>  (102) 
      7548

$$$$
50216011
     RDKit          3D

 42 45  0  0  1  0  0  0  0  0999 V2000
    6.7898   -0.5630  -22.5732 C   0  0  0  0  0  0  0  0  0  0  0  0
    6.2708   -1.5167  -21.6827 C   0  0  0  0  0  0  0  0  0  0  0  0
    6.5632    0.8102  -22.3607 C   0  0  0  0  0  0  0  0  0  0  0  0
    5.2527    0.2721  -20.3849 C   0  0  0  0  0  0  0  0  0  0  0  0
    5.7666   -3.1408  -19.1611 C   0  0  0  0  0  0  0  0  0  0  0  0
    3.6269   -1.9845  -19.1676 C   0  0  0  0  0  0  0  0  0  0  0  0
    3.8740   -3.9051  -17.8439 C   0  0  0  0  0  0  0  0  0  0  0  0
    5.4992   -1.0997  -20.5814 C   0  0  0  0  0  0  0  0  0  0  0  0
    4.9602   -2.0865  -19.6298 C   0  0  0  0  0  0  0  0  0  0  0  0
    5.7726    1.2538  -21.2698 C   0  0  0  0  0  0  0  0  0  0  0  0
    5.2192   -4.0497  -18.2432 C   0  0  0  0  0  0  0  0  0  0  0  0
    6.3050    3.0000  -19.5988 C   0  0  0  0  0  0  0  0  0  0  0  0
    4.0708    3.3866  -19.2732 C   0  0  0  0  0  0  0  0  0  0  0  0
    7.1215    4.0913  -22.6725 C   0  0  0  0  0  0  0  0  0  0  0  0
    5.7725    3.8218  -23.3882 C   0  0  0  0  0  0  0  0  0  0  0  0
    5.8323    3.9388  -21.8641 C   0  0  0  0  0  0  0  0  0  0  0  0
    5.5519    2.7422  -20.8848 C   0  0  1  0  0  0  0  0  0  0  0  0
    5.5949    3.6226  -17.2617 C   0  0  0  0  0  0  0  0  0  0  0  0
    3.1050   -2.8892  -18.3055 N   0  0  0  0  0  0  0  0  0  0  0  0
    5.3501    3.4401  -18.6978 N   0  0  0  0  0  0  0  0  0  0  0  0
    4.1444    2.9043  -20.4924 N   0  0  0  0  0  0  0  0  0  0  0  0
    2.8928    3.7900  -18.6644 N   0  0  0  0  0  0  0  0  0  0  0  0
    7.5061    2.8474  -19.4042 O   0  0  0  0  0  0  0  0  0  0  0  0
    5.9774   -5.0513  -17.7437 F   0  0  0  0  0  0  0  0  0  0  0  0
    7.3669   -0.8852  -23.4273 H   0  0  0  0  0  0  0  0  0  0  0  0
    6.4632   -2.5674  -21.8422 H   0  0  0  0  0  0  0  0  0  0  0  0
    6.9961    1.5336  -23.0357 H   0  0  0  0  0  0  0  0  0  0  0  0
    4.6545    0.5853  -19.5419 H   0  0  0  0  0  0  0  0  0  0  0  0
    6.7861   -3.2478  -19.5012 H   0  0  0  0  0  0  0  0  0  0  0  0
    3.0110   -1.1661  -19.5102 H   0  0  0  0  0  0  0  0  0  0  0  0
    3.4477   -4.6196  -17.1554 H   0  0  0  0  0  0  0  0  0  0  0  0
    7.8918    3.3070  -22.6349 H   0  0  0  0  0  0  0  0  0  0  0  0
    7.6045    5.0758  -22.7593 H   0  0  0  0  0  0  0  0  0  0  0  0
    5.2963    4.6147  -23.9837 H   0  0  0  0  0  0  0  0  0  0  0  0
    5.5836    2.8459  -23.8593 H   0  0  0  0  0  0  0  0  0  0  0  0
    5.4409    4.8948  -21.4863 H   0  0  0  0  0  0  0  0  0  0  0  0
    4.6752    3.9790  -16.7748 H   0  0  0  0  0  0  0  0  0  0  0  0
    5.8973    2.6633  -16.8165 H   0  0  0  0  0  0  0  0  0  0  0  0
    6.3962    4.3624  -17.1176 H   0  0  0  0  0  0  0  0  0  0  0  0
    3.3587    2.6802  -21.0691 H   0  0  0  0  0  0  0  0  0  0  0  0
    2.0260    3.7222  -19.1585 H   0  0  0  0  0  0  0  0  0  0  0  0
    2.9096    4.1488  -17.7312 H   0  0  0  0  0  0  0  0  0  0  0  0
  1  2  2  0
  1  3  1  0
  2  8  1  0
  3 10  2  0
  4  8  2  0
  4 10  1  0
  5  9  2  0
  5 11  1  0
  6  9  1  0
  6 19  2  0
  7 11  2  0
  7 19  1  0
  8  9  1  0
 10 17  1  0
 11 24  1  0
 12 17  1  0
 12 20  1  0
 12 23  2  0
 13 20  1  0
 13 21  2  0
 13 22  1  0
 14 15  1  0
 14 16  1  0
 15 16  1  0
 17 16  1  6
 17 21  1  0
 18 20  1  0
  1 25  1  0
  2 26  1  0
  3 27  1  0
  4 28  1  0
  5 29  1  0
  6 30  1  0
  7 31  1  0
 14 32  1  0
 14 33  1  0
 15 34  1  0
 15 35  1  0
 16 36  1  0
 18 37  1  0
 18 38  1  0
 18 39  1  0
 21 40  1  0
 22 41  1  0
 22 42  1  0
M  CHG  1  21   1
M  END
>  <OMEGA_C>  (103) 
r0XZQOIeEL/QlbTBsarIQEgiwr8Zdq3BAQbSQJNnTz/D4rLBvxWoQElNiz45FKPBJ4i4QIYCScD0
SZnB5h5oQLsC/r9BV5nBoO93QJfsecBgwI7BFvmvQJXDjL+5pqTBBrqeQO6JBcDQCZ3BGLm4QDt9
oD+RKKrBDgSnQAiXgcAZ8pHBgMLJQAEAQEA+ypzB2kOCQDi+WEBrL5rBOePjQDzsgkBaYbXBPLi4
QMqYdEAcG7vBjqK6QA0VfEC96a7BEqmxQNOAL0AoFKfBwQmzQH3ZZ0DfF4rBi7hGQCfpOMCmcZLB
9TOrQPEpXEAalZXB8p6EQKbfOUCA8KPBQCM5QAuPckDFUJXBpjHwQBA7NkDmO5vBPke/QPSjocAu
843BZb3rQLSdYr8Ga7vBkdLOQLJPJMC/vK7BYeDfQDNOxD8dSbjBu/GUQLjTFT/mVZzBcyfZQOjb
T8CCApzBo7RAQFVClb/tFJzBfqZcQGjTk8ArPonB5on8QEmmU0AtFLXB51fzQAttokAOE7bBKnup
QG6rk0Cw3r/BKa2yQA4jNkDQ377B0huuQICinEAA5KvBMpuVQDCofkC0MobBRra8QM5yKkAqiIbB
tq3MQLSYi0DN8IjBO/VWQHeIK0BrjajBBqoBQEw5bkClRJnB/DY6QJDChEBs2Y3BMAPZQAj8Ib9f
JrXB4qXIQKz3xr/es63Bve/PQLrvPD+MFrTBRj+mQLG/iT6UC6TB0DBuQC5X6L/xt5fBDYa0QM6v
UMBhrZrBlW2AQA9TesBfNY7BmyKvQLHijb+JEaXB4QieQPJmBMBAGJ3By6+1QLrgmT//oKvB1XJQ
QA/gL8CcNJDBkXypQG0XWkC6ErXBzVrjQHiSh0Au5avBVCWFQBXvQUDuZJfBfZd5QKHiiUBp5p3B
kkyDQBwdPkC6sqPBx9+sQHsXLUAoTqrBgizXQAF+o0Btvr7BR7qlQNbKhMAPZJPBV0LKQKgbi0B5
MLXBR63SQNTWVUBNZqXB+gUEQQYXn0D0p6nBxY+PQDItS0DjM7zBYuQFQKMuIsCS+IrBvpzsQBiX
er+NtLvBlpfPQA3UJsDFlK7BchHdQPKLuD+vwrnBMVuTQK7iHT/GXZ3BSSBKQPHLar8LXpnBYkbS
QB3VXcBKwZ7Bn/NpQC8clMDJaojBo9qjQA5KOUAQO5PBOpdWQIVlJUCJmpLBiPA5QGvpmEDiwJ3B
SoeVQLDbokBpYZ7BJjVMQNk5IUC2CKfBsMLxQC4KuUAVr7zBEobhQB4yjUDoCsXBFuC7QNdytkCf
pMHBhBLeQDPVR0DJIZ7BHsALQVC1mkCvvKLBsX0JQdJitEDz9q7BtsPkQJD3GL84jLHBhA3QQDYV
yL9oRqvBesTaQFahQj9+RrDBvMOmQHQyQj7JdKLB4Z60QK6pU8DuPpnBKjFkQNL2AsBFRZnBpGlr
QE+agcAnjo/BWkmxQCpHlr/3mqPB9hWdQNTeC8Bwq5zBYL66QJlSlT848KjBWLKgQHPeh8BBmZLB
kObKQHKzS0AJMZ7BFSiEQJwrVkAQ9JnBD+SbQGjZRkAda7vBijWZQJvBj0BALbbB5OC4QHiJXECT
4LHBcaqwQDq+KUA4X6fBojS5QDhue0CmdovB8ng+QHoEPsAr5ZLBTvitQFT3VkCp5ZXBeEmEQArp
NUDfpaPBPrI/QBgtckDKnJTBjKTxQOz+V0AyG57Bwqi2QPh/qsBFK4/Bz238QMRPZr+1XLfBEqjX
QHn0JsD/T6zBjp7rQKRTwD9S7bTBYUuPQNj4+j5plpzB+3jVQHU6XMCbtJvBcdw/QBKhl78S0pvB
ibRMQG3hmMCMc4rBRHyBQJr2GEDcb7rBT7qpQP38P0DkdsPBJCOlQKMWrEC3drrBMcp5QHGTmECv
b7HBbr3aQMTzZ0DAz7PBJJmcQLlbfUB3V4bBzeLRQEmPU0DHpofBtZPFQGdfnkAlkYzBdDpUQKOn
J0BT5KfBwHIGQMJ4bkCtKJjBp5lEQLAIhUBWN43BOxXVQGNLGL+Q3bTB6kjEQKryxL+gtK3BiMvP
QOQhSD8H+bLBzRmnQDhgiT6J5KLBoCJmQJu7AMCq45jB5Sy3QOvMS8DEsZnBZHaAQLfvgcD19Y7B
MGGtQEgjjr9/o6TB6gCdQFSiBsDV8ZzBCEe4QNoJnz9q/6nBlgdJQH8UQcDD75HBbOPJQN/EPUCu
Z5zB4ICCQNAHWEDcOZrB7IHnQD2QgEBfKLXBC5G7QBh7dkCtx7rBTE6+QNqie0BXk67BKdOyQHND
L0BO5abBXVqyQAyybkCiJIrBvvCoQEQRhMCWyZLBjQmqQDBbT0B6A5XBLZ+FQBCAPEBfHqTBOGg6
QBypd0CutZXBdqvwQNOsPED/65rBi47vP6uwP8CtO47B0TPmQIh6bb8O4rvBZe3IQDL8JcCBJq/B
UtDdQPuMvz+Oa7jB+OGUQAuVFz/XBZzB3Bw9QLfYl79TE5vBvFTXQEuTUMDQzZzBsKdqQMBVmsDw
gonBGnz+QKfMS0AqEbXBb/L4QLQMn0BovrXBFMitQKTxlUC0XL/Bv1GzQIaWOUB3r77BEPyzQBTx
nEAqYKvBWtCTQKKMd0DG6IXB/hbGQCDWP0AZz4XBwGbDQCMZlkDJj4rBHtJZQBEXMkAwCKnBk74E
QMuNekDbDZrBQkE6QNXKhUB1G47B

>  <OMEGA_E>  (103) 
hM+pPsZKhz9IQAE/tK4BPw==

>  <OMEGA_NBR>  (103) 
    220502

$$$$
50093272
     RDKit          3D

 53 58  0  0  1  0  0  0  0  0999 V2000
    3.2026   -3.1380  -18.2220 C   0  0  0  0  0  0  0  0  0  0  0  0
    3.5950   -2.1824  -19.1665 C   0  0  0  0  0  0  0  0  0  0  0  0
    6.0662   -1.5799  -21.7635 C   0  0  0  0  0  0  0  0  0  0  0  0
    6.6134   -0.5933  -22.5906 C   0  0  0  0  0  0  0  0  0  0  0  0
    6.9212    8.1326  -23.1468 C   0  0  0  0  0  0  0  0  0  0  0  0
    5.1125    0.1474  -20.3321 C   0  0  0  0  0  0  0  0  0  0  0  0
    5.5344    4.8255  -21.9664 C   0  0  0  0  0  0  0  0  0  0  0  0
    7.2043    5.2515  -23.6782 C   0  0  0  0  0  0  0  0  0  0  0  0
    4.8553    7.7136  -21.9615 C   0  0  0  0  0  0  0  0  0  0  0  0
    4.1411   -4.0923  -17.7791 C   0  0  0  0  0  0  0  0  0  0  0  0
    6.7501    9.5038  -22.8875 C   0  0  0  0  0  0  0  0  0  0  0  0
    5.3589   -1.2064  -20.6051 C   0  0  0  0  0  0  0  0  0  0  0  0
    4.9157   -2.2159  -19.6484 C   0  0  0  0  0  0  0  0  0  0  0  0
    5.9666    7.2020  -22.6731 C   0  0  0  0  0  0  0  0  0  0  0  0
    6.1948    5.7376  -22.8172 C   0  0  0  0  0  0  0  0  0  0  0  0
    5.6399    1.1415  -21.1727 C   0  0  0  0  0  0  0  0  0  0  0  0
    5.8879    3.4628  -21.9589 C   0  0  0  0  0  0  0  0  0  0  0  0
    6.4547    0.7654  -22.2721 C   0  0  0  0  0  0  0  0  0  0  0  0
    6.8558    2.9839  -22.8741 C   0  0  0  0  0  0  0  0  0  0  0  0
    7.5369    3.8936  -23.6941 C   0  0  0  0  0  0  0  0  0  0  0  0
    4.7608    9.0988  -21.7166 C   0  0  0  0  0  0  0  0  0  0  0  0
    5.8167   -3.1914  -19.1525 C   0  0  0  0  0  0  0  0  0  0  0  0
    6.2660    2.9273  -19.5701 C   0  0  0  0  0  0  0  0  0  0  0  0
    4.0536    3.3477  -19.1656 C   0  0  0  0  0  0  0  0  0  0  0  0
    5.4563    2.5913  -20.8050 C   0  0  2  0  0  0  0  0  0  0  0  0
    5.6787    3.7288  -17.2546 C   0  0  0  0  0  0  0  0  0  0  0  0
    5.4156   -4.1057  -18.2398 N   0  0  0  0  0  0  0  0  0  0  0  0
    5.6943    9.9632  -22.1793 N   0  0  0  0  0  0  0  0  0  0  0  0
    5.3335    3.2434  -18.5968 N   0  0  0  0  0  0  0  0  0  0  0  0
    4.0680    2.8702  -20.3918 N   0  0  0  0  0  0  0  0  0  0  0  0
    2.9283    3.8547  -18.5318 N   0  0  0  0  0  0  0  0  0  0  0  0
    7.4873    2.9092  -19.4604 O   0  0  0  0  0  0  0  0  0  0  0  0
    7.1930    1.6520  -23.0278 O   0  0  0  0  0  0  0  0  0  0  0  0
    8.5427    3.4659  -24.4913 F   0  0  0  0  0  0  0  0  0  0  0  0
    3.7289    9.5736  -20.9821 F   0  0  0  0  0  0  0  0  0  0  0  0
    7.1188   -3.1826  -19.5325 F   0  0  0  0  0  0  0  0  0  0  0  0
    2.1935   -3.1442  -17.8373 H   0  0  0  0  0  0  0  0  0  0  0  0
    2.8985   -1.4354  -19.5176 H   0  0  0  0  0  0  0  0  0  0  0  0
    6.1859   -2.6239  -22.0127 H   0  0  0  0  0  0  0  0  0  0  0  0
    7.1601   -0.8775  -23.4776 H   0  0  0  0  0  0  0  0  0  0  0  0
    7.7793    7.7905  -23.7063 H   0  0  0  0  0  0  0  0  0  0  0  0
    4.5169    0.4254  -19.4751 H   0  0  0  0  0  0  0  0  0  0  0  0
    4.7490    5.1770  -21.3137 H   0  0  0  0  0  0  0  0  0  0  0  0
    7.7247    5.9365  -24.3311 H   0  0  0  0  0  0  0  0  0  0  0  0
    4.0834    7.0462  -21.6078 H   0  0  0  0  0  0  0  0  0  0  0  0
    3.8364   -4.8321  -17.0536 H   0  0  0  0  0  0  0  0  0  0  0  0
    7.4793   10.2065  -23.2629 H   0  0  0  0  0  0  0  0  0  0  0  0
    4.7576    3.9044  -16.6795 H   0  0  0  0  0  0  0  0  0  0  0  0
    6.2944    2.9765  -16.7399 H   0  0  0  0  0  0  0  0  0  0  0  0
    6.2430    4.6692  -17.3389 H   0  0  0  0  0  0  0  0  0  0  0  0
    3.2584    2.7189  -20.9589 H   0  0  0  0  0  0  0  0  0  0  0  0
    2.0506    3.8737  -19.0107 H   0  0  0  0  0  0  0  0  0  0  0  0
    2.9949    4.2010  -17.5961 H   0  0  0  0  0  0  0  0  0  0  0  0
  1  2  2  0
  1 10  1  0
  2 13  1  0
  3  4  2  0
  3 12  1  0
  4 18  1  0
  5 11  2  0
  5 14  1  0
  6 12  2  0
  6 16  1  0
  7 15  2  0
  7 17  1  0
  8 15  1  0
  8 20  2  0
  9 14  2  0
  9 21  1  0
 10 27  2  0
 11 28  1  0
 12 13  1  0
 13 22  2  0
 14 15  1  0
 16 18  2  0
 16 25  1  0
 17 19  2  0
 17 25  1  0
 18 33  1  0
 19 20  1  0
 19 33  1  0
 20 34  1  0
 21 28  2  0
 21 35  1  0
 22 27  1  0
 22 36  1  0
 25 23  1  1
 23 29  1  0
 23 32  2  0
 24 29  1  0
 24 30  2  0
 24 31  1  0
 25 30  1  0
 26 29  1  0
  1 37  1  0
  2 38  1  0
  3 39  1  0
  4 40  1  0
  5 41  1  0
  6 42  1  0
  7 43  1  0
  8 44  1  0
  9 45  1  0
 10 46  1  0
 11 47  1  0
 26 48  1  0
 26 49  1  0
 26 50  1  0
 30 51  1  0
 31 52  1  0
 31 53  1  0
M  CHG  1  30   1
M  END
>  <OMEGA_C>  (104) 
7fdMQHTVSMChxpHBMRVmQNysC8ACVZnBZh7CQEY6yr+7G67B6KDTQEPlF7+HubTBXnrdQEAfAkG0
LLnBipmjQMjkFj4iqKLB8xmxQOBqmkAiu6/Bh4nmQGEMqEDdbL3ByF6bQPnV9kAgsa/B4oOEQGD0
gsCJO47B1ADYQJ8PGEGiGbfBeHyrQMFrmr9Q16TBBE2dQLjRDcDpL53BKu6+QGN25kB7YrXBJjzG
QLeat0CqibbBY3q0QIMckj/GYanB4Gm8QBKeXUDaq6/BBI3OQGTwQz85LbLBBmPbQJL3PkAf/rbB
AS7xQGgxeUCQjb3B2ViYQOOUEUGGu63BByK6QEZATMBXOJnByoLIQCZYO0Coj5zBFLeBQJ5AVkA9
U5nBupmuQIzYJUCScKbBk7e1QKikbkCECYrBVkytQDFig8AJ65HBeTe2QEtpH0E8b7HBzquqQH6T
T0BTxpTB+yyCQBixN0BdIqPBPmk7QB6zdkAjQZTBPJjvQMQwOkDhrpvBsSzmQMV00z/qOLjBAK8I
QcTQXUBB7sPBOaZuQIYtGUFJ26fBAc3jQP6uS8CWQpzBCmIMQNY6ScDMso7BUoE5QLq8t78TJJzB
wPLFQGruJ8ARGrDBNB/lQNymYL8f0rvB2+/4QP5L+UCRpr3BpIqQQITL2T4OzZvB5/eXQLCppUBd
gqrB6jD3QKL3vUAlpsLBbauCQEZ64UDD3KzBfId1QJmgmsDMbYjBJFbvQO1NI0FuGrrB8j2YQBbh
eUCub4XBnmvJQDh/PkBZ64XB4sbHQD9qlUARtorBfYlQQFUCLkDjq6fBqz0DQDDrd0DwFZjBt6w/
QOluhkDBxIzBFJyrQBY5g8Bi6ZHBYtq5QCosTMCxopnBpADEQBwZyr9QDa7B4hPWQL81Fr8LkLTB
WI2xQFfH+0A1ZL/Bf86kQNjWED7sr6LBHmytQA+TmECfH7DBQu3kQHTyqEDwJL3BWmu5QBce90A1
IKzB2QmBQDulgMAIPI7Bv4itQNQ1FEG+Sb7BSSOsQKDYmr9n9qTBaBadQDbrDcCIZ53B7au3QK3s
4kCSKLbBALjBQMC5tUD+77bB9Mu1QEdfkT/hU6nBycC7QDYcXEDZrK/Bgo3QQGKxRT+YB7LBlH3c
QPoZQECGtbbBZ1HyQE6FfECPAb3B9ja2QFT0EUEUnavB/0VlQBYnDMBOaJnBqPXIQC7bO0AOj5zB
YBaCQOZeVUBpTJnB7veuQJLFJECPYKbBojy2QCoJc0BVNorB1P9KQP5kRcBt/JHBMDawQCDXHUFu
k7TByyGrQHYgUEBxw5TBA3WCQGK5NECB/6LB3xs8QH6ldkC0U5TBeRLwQOKnPEDbv5vBX4LoQNOr
1j904LfBzGYKQdL2ZEC618LBgry6QFrJG0F1CqLBFO8rQGTMpL+AL53B7/jAQH9im8COzo7BHjza
QBv6TsBJopzBCV3IQJPSJ8Dx/6/BXFDoQJ0QXr/LjLvB3/WvQHPv7EAOL8fBmPuRQOXm1T5nyZvB
M9SSQODBokBQOqvB26T1QKMRwEAKBcLBIyy9QCx55EBj6aTBbSxsQOogl8ByRYjBdDSoQE/jHUEk
UsXBUNmYQCl9fUBPjIXBIQjLQJ6IRUBV9oXB4yjHQOkdmEA1OYvBtPRQQKaOKEAbaqfBdOMDQC7S
dkBRJpjBZ2FAQLg6h0Cp64zB

>  <OMEGA_E>  (104) 
PIJHP4C/ST8=

>  <OMEGA_NBR>  (104) 
      8965

$$$$
284494
     RDKit          3D

 53 58  0  0  1  0  0  0  0  0999 V2000
    6.6663    9.3189  -21.5728 C   0  0  0  0  0  0  0  0  0  0  0  0
    6.8024    7.9246  -21.6569 C   0  0  0  0  0  0  0  0  0  0  0  0
    6.8537    5.2389  -24.0337 C   0  0  0  0  0  0  0  0  0  0  0  0
    6.9891    3.8495  -24.1546 C   0  0  0  0  0  0  0  0  0  0  0  0
    5.5527   -3.4813  -19.5264 C   0  0  0  0  0  0  0  0  0  0  0  0
    5.9305    4.9463  -21.7955 C   0  0  0  0  0  0  0  0  0  0  0  0
    5.2807    0.1891  -20.2367 C   0  0  0  0  0  0  0  0  0  0  0  0
    5.9765   -1.5691  -21.7730 C   0  0  0  0  0  0  0  0  0  0  0  0
    3.8606   -1.9526  -18.7156 C   0  0  0  0  0  0  0  0  0  0  0  0
    5.9028    9.9961  -22.5465 C   0  0  0  0  0  0  0  0  0  0  0  0
    5.0786   -4.4353  -18.6055 C   0  0  0  0  0  0  0  0  0  0  0  0
    6.3247    5.7911  -22.8523 C   0  0  0  0  0  0  0  0  0  0  0  0
    6.1824    7.2484  -22.7247 C   0  0  0  0  0  0  0  0  0  0  0  0
    4.9375   -2.2124  -19.5879 C   0  0  0  0  0  0  0  0  0  0  0  0
    5.4044   -1.1847  -20.5433 C   0  0  0  0  0  0  0  0  0  0  0  0
    6.0389    3.5410  -21.9201 C   0  0  0  0  0  0  0  0  0  0  0  0
    5.7190    1.1776  -21.1467 C   0  0  0  0  0  0  0  0  0  0  0  0
    6.5839    2.9916  -23.1129 C   0  0  0  0  0  0  0  0  0  0  0  0
    6.2947    0.7764  -22.3827 C   0  0  0  0  0  0  0  0  0  0  0  0
    6.4173   -0.5971  -22.6809 C   0  0  0  0  0  0  0  0  0  0  0  0
    3.4367   -2.9533  -17.8204 C   0  0  0  0  0  0  0  0  0  0  0  0
    5.4267    7.9886  -23.6682 C   0  0  0  0  0  0  0  0  0  0  0  0
    6.3213    2.9715  -19.4909 C   0  0  0  0  0  0  0  0  0  0  0  0
    4.0797    3.3790  -19.1811 C   0  0  0  0  0  0  0  0  0  0  0  0
    5.5710    2.6491  -20.7778 C   0  0  1  0  0  0  0  0  0  0  0  0
    5.6220    3.7763  -17.1949 C   0  0  0  0  0  0  0  0  0  0  0  0
    5.2984    9.3333  -23.5628 N   0  0  0  0  0  0  0  0  0  0  0  0
    4.0422   -4.1649  -17.7765 N   0  0  0  0  0  0  0  0  0  0  0  0
    5.3639    3.4696  -18.6130 N   0  0  0  0  0  0  0  0  0  0  0  0
    4.1678    2.9548  -20.4259 N   0  0  0  0  0  0  0  0  0  0  0  0
    2.8851    3.7062  -18.5477 N   0  0  0  0  0  0  0  0  0  0  0  0
    7.5237    2.8453  -19.2852 O   0  0  0  0  0  0  0  0  0  0  0  0
    6.7643    1.6426  -23.3560 O   0  0  0  0  0  0  0  0  0  0  0  0
    6.9593   -0.9907  -23.8588 F   0  0  0  0  0  0  0  0  0  0  0  0
    2.3997   -2.6988  -16.9914 F   0  0  0  0  0  0  0  0  0  0  0  0
    4.7823    7.3511  -24.6760 F   0  0  0  0  0  0  0  0  0  0  0  0
    7.1406    9.8668  -20.7720 H   0  0  0  0  0  0  0  0  0  0  0  0
    7.3714    7.3811  -20.9172 H   0  0  0  0  0  0  0  0  0  0  0  0
    7.1546    5.8846  -24.8454 H   0  0  0  0  0  0  0  0  0  0  0  0
    7.4093    3.4311  -25.0572 H   0  0  0  0  0  0  0  0  0  0  0  0
    6.3794   -3.7183  -20.1796 H   0  0  0  0  0  0  0  0  0  0  0  0
    5.5427    5.3749  -20.8831 H   0  0  0  0  0  0  0  0  0  0  0  0
    4.8454    0.4877  -19.2945 H   0  0  0  0  0  0  0  0  0  0  0  0
    6.0755   -2.6167  -22.0162 H   0  0  0  0  0  0  0  0  0  0  0  0
    3.3648   -0.9933  -18.7340 H   0  0  0  0  0  0  0  0  0  0  0  0
    5.7972   11.0689  -22.4806 H   0  0  0  0  0  0  0  0  0  0  0  0
    5.5523   -5.4048  -18.5592 H   0  0  0  0  0  0  0  0  0  0  0  0
    4.7010    4.1549  -16.7275 H   0  0  0  0  0  0  0  0  0  0  0  0
    5.9477    2.8628  -16.6757 H   0  0  0  0  0  0  0  0  0  0  0  0
    6.4104    4.5400  -17.1226 H   0  0  0  0  0  0  0  0  0  0  0  0
    3.3913    2.8535  -21.0478 H   0  0  0  0  0  0  0  0  0  0  0  0
    2.0190    3.6254  -19.0411 H   0  0  0  0  0  0  0  0  0  0  0  0
    2.8924    4.0223  -17.5990 H   0  0  0  0  0  0  0  0  0  0  0  0
  1  2  2  0
  1 10  1  0
  2 13  1  0
  3  4  2  0
  3 12  1  0
  4 18  1  0
  5 11  2  0
  5 14  1  0
  6 12  2  0
  6 16  1  0
  7 15  2  0
  7 17  1  0
  8 15  1  0
  8 20  2  0
  9 14  2  0
  9 21  1  0
 10 27  2  0
 11 28  1  0
 12 13  1  0
 13 22  2  0
 14 15  1  0
 16 18  2  0
 16 25  1  0
 17 19  2  0
 17 25  1  0
 18 33  1  0
 19 20  1  0
 19 33  1  0
 20 34  1  0
 21 28  2  0
 21 35  1  0
 22 27  1  0
 22 36  1  0
 25 23  1  1
 23 29  1  0
 23 32  2  0
 24 29  1  0
 24 30  2  0
 24 31  1  0
 25 30  1  0
 26 29  1  0
  1 37  1  0
  2 38  1  0
  3 39  1  0
  4 40  1  0
  5 41  1  0
  6 42  1  0
  7 43  1  0
  8 44  1  0
  9 45  1  0
 10 46  1  0
 11 47  1  0
 26 48  1  0
 26 49  1  0
 26 50  1  0
 30 51  1  0
 31 52  1  0
 31 53  1  0
M  CHG  1  30   1
M  END
>  <OMEGA_C>  (105) 
b1LVQBkaFUEPlazBHK3ZQBOW/UBrQa3BZFHbQMukp0D+RMDB9abfQHNedkCFPMHBk6+xQJDNXsD4
NZzB+Ma9QBtInkAYXa7BYvuoQESdQT7G5KHB3z+/QCbXyL8iL67BTxR3QP/t+b+QuZXB5eO8QB7w
H0EnX7TB/YOiQODtjcAL2JTBz2PKQA1RuUBy0bbBftbFQDnz50BEzLXBsf+dQG2YDcD3s5zBLvGs
QJGkl7+bWKTBnz7BQAagYkBxXK/B9gG3QLG6lj9zLKnBjq/SQLJ2P0Ah57jBYm7JQBC/Rj/eD7PB
QlrNQL3aGL+PcrXBoPJbQAsDPcA9kI7BTqetQMui/0B3WL3BHEjKQNUtPkBO7ZvBs4yCQDNBWEDl
cpnBcEWyQLuKKUDdOKbBm+ezQE2ucUAej4nBj4ypQD1VFUGrgLzB/FmBQBZHhcA2No7B9aSrQAIO
XkBZ55TBwF6FQOsaPUBWaKPBP6U4QPoybUCuYZTBd8LwQCsZNkAgSJrBW3XYQD0/0j8q2brBlrLe
QGOgfb/H3r7B/5QZQFy4LMBa7ofBsgiZQGs860BraMXBgX/kQGfeHUELLabBr+LrQCIy7EBgVqfB
gvLkQGBOvEBuw8bBoRjtQKuWW0AsdcjBYSTMQMr4bcDDb6HBwF2xQNP+q0CsEKfBXw2bQCGv+T4i
W5rBoGrCQEl3J8BEIbDBFFhXQNRJfr8k35XBo4K5QFMaMUFR2LPBKKyxQO/zrMBAeZTBy26WQLv0
hED70YXBulO+QC04N0DoZ4XBBCLNQGJHkUAs+4jB7QpZQPmeNkD3YajBFTgBQJIGaEAqVJjBiB05
QMa2gEC7yozBMvyaQDGQE0HAJbPBCwGeQGVw+kDH9rPBLxrdQOSxp0CSFcDBlx7hQM9udkAVFMHB
ma6xQCbGXsBENJzBGSO8QM0znkBDj67Bq+CoQGAEQj6H6KHBCmW/QKfLyL8hK67B3wd3QKXW+b8e
u5XBS3XAQLMGIEHmArTBM3eiQMfqjcDF15TBXZHKQABPuUDp0LbBGXbGQLn350AQwbXB2/+dQIyP
DcDBs5zBMvesQHyXl78wWKTBX5LAQCyPYkAFca/Bz+q2QCDBlj/GL6nB7STTQL14P0CR2rjBoKnJ
QAnORj94CbPBQZ3NQETJGL9Na7XB+dJbQBr2PMD/ko7Bf9/qQEhrAUHchbbB5DHKQIWQPkBh/pvB
unqCQE5EWECjb5nBbvmxQAGKKUDYQabBoA20QFbHcUCSl4nBFlPnQPfyFkGnn7XBNkaBQBdChcAa
OI7BpaSrQChEXkBH75TBaR2FQD+7PECOYaPBhao4QCxUbUBBV5TBvK3wQBZQNkBgXZrBtBvZQORK
0j9mxbrBth/fQKOWfb+O0r7BL2sZQICnLMAt84fBdycJQX2W8UA73LfBYap4QHQgG0Fs37HB79iB
QAid5kDBO7PBozToQB1rvEC8asbBaBnvQIaqW0CXPMjB2yrMQHXxbcCxa6HBsJOtQI3Tq0C3gKfB
OdaaQD31+T5HYprBxZDCQLNxJ8AUHbDBJlFXQB4Qfr9K4ZXBuyC+QC44MUFlX7PBupuxQH/yrMBc
eJTBKp6WQIjwhEB90oXBopO+QMBLN0CodYXBL0HNQDhckUD8BonBf05YQIPFNUCGT6jBzhsBQFDw
Z0AsQZjBtGA5QBbugECiw4zBWOuqQJ7kFUFOJ7zBW3SuQB5K/0BvX73BmwfbQIq1p0CaT8DB1oPf
QJB4dkC5QsHBQZaxQK7VXsD3N5zBS4y9QCBAnkDvZq7BAAGpQO47Qj4b5aHB8Vu/QI+/yL+rLK7B
cO12QOPN+b8bvpXBUJ+/QObqH0F0eLPBT1OiQFD0jcB23ZTBlFvKQElYuUDF1bbBdjvGQBMB6EBn
x7XB8PSdQHKRDcC/tZzB8vmsQJSRl79IWKTBNCzBQK6eYkDkYK/BNxG3QLrNlj/MK6nBnrjSQECE
P0Cg6LjB8JTJQK7wRj/HDLPBTobNQE6rGL9xbrXBZ6FbQCv2PMC0l47B5VDaQLUe/kBZQK3BnkrK
QFdRPkBr7pvBEoyCQCRAWEAYc5nBg0ayQHKRKUC9OabB5uOzQE2tcUD7jonBAczWQE6UFEGXQ6zB
QyOBQHdHhcAEPo7BJqSrQAwgXkDy55TBC16FQCIIPUDWZ6PBXKI4QKMubUDPYZTBrsLwQBwyNkBE
R5rBrK7YQGxf0j9o1LrBafDeQHB5fb9+2L7BZDUZQL+hLMCU+IfBw7LyQHGA6EBtGKbBzZGYQO45
H0GNy8HBlDufQJ0270DYAcTBv1jkQAxdvEC61cbBGfLsQIq0W0D9e8jBsRHMQN0IbsBLb6HBhtqw
QDzxq0CrIafB+wibQEwJ+j6tXJrBd4nCQFxrJ8CXHrDBeURXQM7hfb+g45XBF/O8QHwLMUETirLB
Q26xQPgArcB6f5TBYWmWQGjuhECC0YXBp1G+QGIxN0BNaYXBLRzNQHJIkUBb+YjB5AVZQO1wNkBW
YKjB/zMBQInxZ0CwU5jBNxs5QLK7gEB0y4zB507VQCESFUEoqazBcq7ZQFSG/UCYUq3BrU7bQPR4
p0AhTsDBRqffQAQDdkB+QMHBSrF2QPnE+b+znZXBRMW9QM48nkAqZa7BJcGoQIpERT4m3qHBUwC/
QNTAyL+9Ia7BRpixQAE3XsAMK5zBdtq8QFLiH0EWdLTBzBJcQKBPPcCMeI7BUGLKQLg1uUBV3LbB
a9XFQC/Y50BO27XBDMGdQFY6DcBwopzBL6WsQF8sl78aTaTBKj3BQHSIYkB+X6/Bl+i2QBvWlj/s
J6nB5bHSQP86P0CY57jBEGLJQPVJRj9nCLPBdT3NQGRlGb+bZrXBsq+iQJLQjcCR0pTBuZ+tQN97
/0BVaL3BqknKQJdIPkAQ75vBcZCCQOhoWED5cpnBTz+yQCWbKUALOabBLvOzQFTgcUBEkYnBIIGp
QO5BFUGBk7zBMIyBQNNZhcC9KI7BD6urQHM0XkDK6JTBN12FQOpMPUDLaKPBL7A4QJBTbUCmYJTB
LMTwQKIqNkD9SprB837YQLC70T/70rrBCaPeQHXtfr+Kz77ByAG2QKJ8tMC/Z5TB2P2YQP8I60DP
dcXBpXzkQNvaHUHCQqbBW+nrQOIq7EAEZ6fBfOzkQAYXvEApz8bBQhntQPwgW0CVd8jBicBWQEJf
fr+zuJXBiFuxQJQArEBWGqfBwsiaQLXJ/D5WV5rBQxjCQNB1J8CKELDBOwzMQG0BbcBvaaHBIXa5
QKoMMUGg77PBKFEnQGq4MMB3HYnBxHyWQLsRhUDC04XBQ1++QJhtN0BOaYXBYy/NQCBfkUDg/ojB
cwZZQA3sNkC/YqjBakABQFkpaECbUpjBMC05QHbDgEBnyYzBI0XPQES2GEG+Br3BUlzTQJF9AkGt
+L3BHJzbQD+op0AmDsDBjfHfQNFxdkCaHMHBH7h2QNPa+L//qJXBVkO9QDhMnUBSaa7BVNOoQKQB
RT7h5aHBYPq+QNCDyL9FL67B9JWxQGrSXcDbNpzBn4K9QHhmIUHlr7PBbCNcQMTIPMCVgY7Bgw/K
QKnpuUCvnrbB3YnFQBvo6UBzhbXBaL2dQGHmDMD5rpzB+aWsQJjplr9TWaTBoRfBQA19YUChca/B
Avu2QJF2lj97LqnBe9DSQI3xPkCU6LjBwHnJQDkhRj8UEbPBIEfNQP4CGb9gcrXB56+iQNSUjcC6
3ZTBX6+zQLeS/kCqRKzBM0vKQNsEPkAl8ZvBiIuCQLVXWEANc5nBmDSyQA3+KEA7PqbByga0QMWT
ckDumInBCzuwQMnMFEFumKvBxJGBQAoYhcBkMo7B9qyrQFEkXkB365TB/ECFQJqEPEA/Y6PBc804
QEcAbkCtYpTB69DwQNGeNkCuUJrBWqvYQA2h0T8q2rrBgaveQL3efb+Z3L7B5AG2QDM/tMCIdJTB
aASlQOIs6UA1p6PBsbLZQNARI0GbbsPB6QfhQDFE90C3IMXBvMDlQBdNvED6gMbB6pXtQEhAXEDs
V8jB8NBWQIZ3fL8XxZXBQRuwQFZCqkDMG6fBv+maQAGj/D5TXZrBAwDCQEBXJ8DoH7DBiwnMQEWg
bMA1daHB1mi6QLiMMkG/9rLBFHInQKYkMMB4JInB0oyWQBFqhUDk3IXBDJu+QNF3OEBgZIXB+irN
QBrXkUA8FonBFadYQLWLNUDmU6jBX0sBQBHdaEC/UJjBzns5QChagUDq0IzBlzvPQCrEGEGP9bzB
w0/TQOWLAkFE673Bm4jbQN7Hp0DZCMDB2dvfQIC0dkC1G8HB93aOQJNKXcDMYKDBcD29QGhRnUBj
Y67Bse+oQE2OQD6/76HB9eu+QNW7yL+DRK7BdVqeQLZq+7+dqpHBy4K9QLluIUFGnLPBO4mAQC8h
jcAd2pjBvATKQNT7uUDVlrbBSIPFQAP66UB9ebXBFrSdQHtSDcBixpzBxK6sQNaBl7+Da6TBrRHB
QNqGYUD3b6/BOw+3QNs9lj9lM6nBUMLSQPMZP0Cv6bjBAXHJQIxQRj+NGrPBZS7NQF2+GL+Xg7XB
K/iPQJiTPcA0lorB7rKzQGuZ/kARNqzBn1DKQF3VPUA/8ZvBwZOCQDE0WEDgcJnB/DayQIHiKEC1
PqbBYxW0QABOckAvl4nBrEGwQADQFEEOhqvBW3GBQHT9hMAdNo7BxLarQP7uXUAD6pTB90KFQKBY
PEAIYaPBu+c4QKHtbUAuX5TB+dbwQIFsNkDpUZrBL5zYQGD90T+n4LrBb7beQK3mfL9C677BgOCQ
QGxNLsD643/B7w+lQHUn6UCxmaPBBKTZQJEjI0FiXMPBj/TgQIdp90AnFcXBXqjlQAF2vEBLesbB
AXntQPWYXEAeWcjBz36NQGOXa8Dl06jBphmwQK08qkAuFKfBYBmbQIs3+T51Y5rBe+nBQOBoJ8CA
O7DBxMupQEJ1gr9XnY7BT2u6QJKUMkEn4LLBdLhpQLu0q8BboJvBiZ2WQHpGhUD12YXBWqm+QPkq
OEAcZIXBTDvNQEqykUADFInB16JYQEFQNUAMUKjBwF8BQIzRaEAXTJjBXKM5QElTgUCmzYzBMkew
QJoGFEG8Y6vBoWu0QNSf+0AXaazBvmbcQFxPpkB7PcDBYVDgQHIidECYEsHBzImOQHB/XcDFcaDB
aCq9QEgcnkCPlK7Bs7OoQMuMQj5x5aHB2eG+QB+OyL8vPa7BrlieQDSP/L91sJHBzta9QJJNIUGw
xbPB38OAQEBpjcC+8pjBFbfKQOfFuUD/97bBijvGQKXQ6UA64bXBWaadQHqIDcDGzJzBTo2sQF1j
l7+QZ6TBxvDAQCBLYkCkaq/Bqdy2QPPVlj9tI6nBJ9rSQM13PkCazrjBDmPJQDhJRj98AbPBdyzN
QFpPGL/yc7XBUx2QQFp8PsBApIrBTC/TQMu+A0H/B77BoT3KQImkPkDm75vBgYSCQPJ8WEATZZnB
PxKyQC6yKUCENabBHwu0QMq0cUAZiInBSMfOQNMfGUHZzbzBoLOBQFVwhcDpTI7BNqqrQJ1MXkAR
4ZTBTDSFQDJTPUCJW6PB+rc4QIttbUBkS5TBu77wQPq5NkB+UZrBrMfYQBsf0T95uLrBNNDeQBG+
e7+y277BJw2RQEWJL8Ay/X/BVnrkQNk/+0D0a8fBN8OiQMHeGkE1NqTBSxSqQKrh5kBoAKbBYwfn
QFtBukDaxsbBcvntQCaXWEArOcjBEI2NQNiAa8DO5qjBjauvQGHNq0CGZqfBjsSaQNHi+D5VWprB
z+bBQKpNJ8DINbDByrSpQNung78VnI7Br6S6QE5vMkFj+bLB72BqQBP8q8AnwJvBepmWQLDkhECR
w4XBKIy+QF8uN0DKZ4XBuz/NQMFQkUCG9IjBYpRYQCXfNkAOUKjB7C4BQIo+aECtN5jBu2U5QOLU
gECTtIzB

>  <OMEGA_E>  (105) 
BlFKPzJsSj80kko/6FJOP7imTj8Enls/VrJbPw==

>  <OMEGA_NBR>  (105) 
     52238

$$$$
284484
     RDKit          3D

 56 61  0  0  1  0  0  0  0  0999 V2000
    6.0122    9.2765  -23.0738 C   0  0  0  0  0  0  0  0  0  0  0  0
    6.0254    7.8961  -23.2396 C   0  0  0  0  0  0  0  0  0  0  0  0
    7.2746    5.0956  -23.6579 C   0  0  0  0  0  0  0  0  0  0  0  0
    5.8649   -1.6417  -21.5724 C   0  0  0  0  0  0  0  0  0  0  0  0
    7.2997    3.7104  -23.8019 C   0  0  0  0  0  0  0  0  0  0  0  0
    6.3809   -0.6833  -22.4415 C   0  0  0  0  0  0  0  0  0  0  0  0
    6.2672    4.8421  -21.4789 C   0  0  0  0  0  0  0  0  0  0  0  0
    5.2746    0.1035  -20.0125 C   0  0  0  0  0  0  0  0  0  0  0  0
    6.7143    9.8077  -22.0032 C   0  0  0  0  0  0  0  0  0  0  0  0
    6.7577    5.6618  -22.4965 C   0  0  0  0  0  0  0  0  0  0  0  0
    6.7298    7.1002  -22.3433 C   0  0  0  0  0  0  0  0  0  0  0  0
    5.3110   -1.2484  -20.3578 C   0  0  0  0  0  0  0  0  0  0  0  0
    6.2853    3.4432  -21.6091 C   0  0  0  0  0  0  0  0  0  0  0  0
    5.7908    1.0822  -20.8785 C   0  0  0  0  0  0  0  0  0  0  0  0
    6.8061    2.8887  -22.7829 C   0  0  0  0  0  0  0  0  0  0  0  0
    6.3423    0.6719  -22.0966 C   0  0  0  0  0  0  0  0  0  0  0  0
    7.3997    7.7283  -21.3057 C   0  0  0  0  0  0  0  0  0  0  0  0
    5.5215   -3.2528  -18.9189 C   0  0  0  0  0  0  0  0  0  0  0  0
    4.7623   -2.2653  -19.4297 C   0  0  0  0  0  0  0  0  0  0  0  0
    6.5111    2.8024  -19.1785 C   0  0  0  0  0  0  0  0  0  0  0  0
    4.2933    3.3725  -18.8424 C   0  0  0  0  0  0  0  0  0  0  0  0
    4.9709   -4.2987  -17.9923 C   0  0  0  0  0  0  0  0  0  0  0  0
    3.2995   -2.1894  -19.0613 C   0  0  0  0  0  0  0  0  0  0  0  0
    3.0018   -2.9999  -17.8021 C   0  0  0  0  0  0  0  0  0  0  0  0
    5.7692    2.5447  -20.5145 C   0  0  1  0  0  0  0  0  0  0  0  0
    5.8651    3.6363  -16.8662 C   0  0  0  0  0  0  0  0  0  0  0  0
    7.4099    9.0662  -21.1122 N   0  0  0  0  0  0  0  0  0  0  0  0
    5.5317    3.3005  -18.2452 N   0  0  0  0  0  0  0  0  0  0  0  0
    4.3751    2.9428  -20.1714 N   0  0  0  0  0  0  0  0  0  0  0  0
    3.1292    3.7988  -18.2556 N   0  0  0  0  0  0  0  0  0  0  0  0
    7.6962    2.6219  -18.9492 O   0  0  0  0  0  0  0  0  0  0  0  0
    6.8739    1.5373  -23.0222 O   0  0  0  0  0  0  0  0  0  0  0  0
    3.5412   -4.3114  -17.9486 O   0  0  0  0  0  0  0  0  0  0  0  0
    8.0898    6.9845  -20.4248 F   0  0  0  0  0  0  0  0  0  0  0  0
    5.4698    9.9174  -23.7594 H   0  0  0  0  0  0  0  0  0  0  0  0
    5.4830    7.4557  -24.0726 H   0  0  0  0  0  0  0  0  0  0  0  0
    7.6607    5.7193  -24.4605 H   0  0  0  0  0  0  0  0  0  0  0  0
    5.9017   -2.6906  -21.8566 H   0  0  0  0  0  0  0  0  0  0  0  0
    7.7041    3.2746  -24.7119 H   0  0  0  0  0  0  0  0  0  0  0  0
    6.8116   -0.9972  -23.3890 H   0  0  0  0  0  0  0  0  0  0  0  0
    5.8674    5.2935  -20.5727 H   0  0  0  0  0  0  0  0  0  0  0  0
    4.8425    0.4013  -19.0588 H   0  0  0  0  0  0  0  0  0  0  0  0
    6.7362   10.8786  -21.8301 H   0  0  0  0  0  0  0  0  0  0  0  0
    6.5807   -3.3141  -19.1580 H   0  0  0  0  0  0  0  0  0  0  0  0
    5.2920   -5.2901  -18.3265 H   0  0  0  0  0  0  0  0  0  0  0  0
    5.3582   -4.1451  -16.9787 H   0  0  0  0  0  0  0  0  0  0  0  0
    2.9913   -1.1498  -18.8989 H   0  0  0  0  0  0  0  0  0  0  0  0
    2.7148   -2.5842  -19.9019 H   0  0  0  0  0  0  0  0  0  0  0  0
    3.4142   -2.5261  -16.9027 H   0  0  0  0  0  0  0  0  0  0  0  0
    1.9198   -3.0913  -17.6629 H   0  0  0  0  0  0  0  0  0  0  0  0
    6.1686    4.6842  -16.7882 H   0  0  0  0  0  0  0  0  0  0  0  0
    4.9999    3.4723  -16.2177 H   0  0  0  0  0  0  0  0  0  0  0  0
    6.6853    3.0059  -16.5118 H   0  0  0  0  0  0  0  0  0  0  0  0
    3.5722    2.9168  -20.7956 H   0  0  0  0  0  0  0  0  0  0  0  0
    3.1602    4.0890  -17.3061 H   0  0  0  0  0  0  0  0  0  0  0  0
    2.3005    3.8011  -18.8024 H   0  0  0  0  0  0  0  0  0  0  0  0
  1  2  2  0
  1  9  1  0
  2 11  1  0
  3  5  2  0
  3 10  1  0
  4  6  1  0
  4 12  2  0
  5 15  1  0
  6 16  2  0
  7 10  2  0
  7 13  1  0
  8 12  1  0
  8 14  2  0
  9 27  2  0
 10 11  1  0
 11 17  2  0
 12 19  1  0
 13 15  2  0
 13 25  1  0
 14 16  1  0
 14 25  1  0
 15 32  1  0
 16 32  1  0
 17 27  1  0
 17 34  1  0
 18 19  2  0
 18 22  1  0
 19 23  1  0
 25 20  1  1
 20 28  1  0
 20 31  2  0
 21 28  1  0
 21 29  2  0
 21 30  1  0
 22 33  1  0
 23 24  1  0
 24 33  1  0
 25 29  1  0
 26 28  1  0
  1 35  1  0
  2 36  1  0
  3 37  1  0
  4 38  1  0
  5 39  1  0
  6 40  1  0
  7 41  1  0
  8 42  1  0
  9 43  1  0
 18 44  1  0
 22 45  1  0
 22 46  1  0
 23 47  1  0
 23 48  1  0
 24 49  1  0
 24 50  1  0
 26 51  1  0
 26 52  1  0
 26 53  1  0
 29 54  1  0
 30 55  1  0
 30 56  1  0
M  CHG  1  29   1
M  END
>  <OMEGA_C>  (106) 
RWTAQLBsFEELl7jBX9DAQACt/EC46rnBjsnoQPAOo0BwQ73BDK27QO4j0r9BlKzBjJfpQGF2bUA0
ar7BfDDMQO3tLr9HiLPBxozIQHzymkDN1KvBnMmoQCD20z2gGaDBRNvWQIXsHEGjBrDBZD/YQGMt
tUDf+LPB21rXQNQ040D7vrLB6POpQN3Kn7+/3KLBSyHJQNxcXECI36zBUk65QHaGij8lB6fBm8vZ
QCDgOEBrQ7bB7/PKQEADLD/XxbDBbMrsQFZO90AWcqrBCrCwQI4uUMD4WZfBbmSYQMj6EMABcJvB
SlvQQMJaM0CqbZnBiWKJQAzXV0BDvZbBwRGfQMmOicA+8I/BwSpTQLQeDMCIfZjBTR1AQPz+P8Cd
ao7BBJ24QADdIkC+HaTBuK67QPK4aEAP7obB/h3tQAQPEUG85ajB+wOxQLQ7U0A69pHBHAGMQOJW
PEAcX6HBMURIQOQfc0BeC5LBEEf2QATOJ0AFmJfBy/bbQHvFxD9wLbjBX6NiQD73icDOlo/Br28B
QcaA30DqZaPB7QivQMOtHkFaE77BqnSvQAuV7kCklMDBDCT1QGYEt0Apr8PB1Nq8QAcyLMBF2q7B
WIj2QLKSUUDnscXBlPjZQNRJf7+UHLvBdsG7QKBkqUDmlKTBGPaaQNh1zT5leJjB2Y7XQKkOLkEd
pK7BZ5XSQHMZVMCRQ5nBYlipQEFIqcC9nJLBB3arQAGlhMBu1IfBt3E/QB8rk7/3MJfB2r4tQAxk
JcAaN5/BrYFaQFqsIcCpOIfBHL31PzTXRcCwTY3BkGXFQDXllUA7TobBG/+fQO46XkDXvYHBEO7V
QLpgQEA5GITBsJ5kQDitOkBPXabBWkBKQObYgkD2corBxToTQK5Ec0A9a5bBya+2QJnHFkEyFKjB
gI66QLm6AEHrMKnBcSXtQPCLskCppLvBcIDDQNLHor9Rkq3B8ljxQHpzhkCn4rzBSTTWQGhliL6/
tLPBjRvDQHgSp0CSsqvBSMmlQPrnzT4kzqHBoknKQFmjI0ESq6/B9AHWQPjdwkDuDLPB7JHRQFSm
8ECXu7HBPEWrQEoDcL8On6TB7AvHQE4IdUBx16zBPHC4QFq/tj+W6afB41jeQCYsVUCmhrXBEqXQ
QGnMiT8h5bDBqPbjQJiJBkG547jBibmuQGI9PcCoL5nB3FuXQBhJAMA7EZ7B9HDDQGyYSUCJapnB
bF11QMxHZUBtdJnB1NGaQMuvgcAdppLBM3dOQCxlAcCB9pzBqGsyQCsEOMDadZPB2ByzQCY2OEBk
66TB/geiQPtDeUC/3IfBdObgQOAMHEGNErjBa/aeQMp5ZEDWNJPBQ6eEQDb4S0Dy5aPBxnEkQEtd
e0AUOJbBTA/oQEArQkDcJpbBMEzkQCbd/j8hd7fBhwVbQODJhMANFJTBZ1z6QFy+/UAVOsHB7Oqk
QA60HUH3e6HBPm+rQAad7EDHV6PB+BH8QE69x0AkcsHBpBvIQGbbE8Dl36/BxbgBQfzTc0A3nsPB
ohPpQBzCCL+SsLrB6iSxQN0etEDe/KTBvN6SQHFXJz9kxprBqjTIQOTvNEGbKq/BPHPRQEHfPMB/
xJnBNoioQHGFoMA3/ZTByr6hQPqEecC+JIrBQ101QIG4gL+29ZvBwGIzQGajG8CzXqTBgrxBQFN0
GcB4y4vBZjvaPwATQsA8tpPBdy+pQDqdnkAnxIbBrtmDQMSsakCI04PBsGW7QFKRU0AjG4TBneFc
QGAtSEA01KnBmekbQFZahkAypo7BGgvrPy8seUBmkZvBSLWsQMW5G0HEMafB65CzQGTrBUGYk6jB
YinlQAHkwUDebbzBLPzRQGv1Y7/yZ67B6EzsQIhQlkC98r3Bb8/fQARFKT4GzbTBRifCQMmCskA6
pqvBG6K0QJrBMD9ZyqHBzGS7QCF3KUHrFa/BfxHQQEv/z0DNR7PBcpfIQMU7/UB2rLHB5l+8QMfH
IL+H5qTBfxrJQIxzhkAQEa3BQl7CQL4T4j95J6jBNUveQC+AcUAET7bB/PvXQDxRvj+XsbHBzAbW
QHamDUFpGLnBMQHJQMRgKcDA3ZnBz6etQGrV37+oEZ7B0VHOQKCBX0D9u5nBef+EQFqib0CfEZjB
llu6QGDxcsAwDpPBH6Z8QJxl8b8n4pvBdQBsQAEbMsBSOJLBzZK6QPaBTEBF26TBxbmxQDowhED5
ZYfB5vHPQE31IkGnB7jBg1WrQKsPdEBEq5LBig6MQA/MWEBEv6LBe1A6QJQDf0CV4pPBEyj0QOSe
XUDcU5fBntHmQEAfHUBrjrjBBxiNQFcUgMCqd5PBlGbqQEMOB0EF+MHBBmicQBrMIUHLKqDBw0+o
QCOj9UDrf6LBiDXwQN5r2EBodMLBaUvYQHSt9L/L8bDBU8b8QDqCi0BdHcXB0qfwQEDNPr3RN7zB
RcOxQH3WvUCmgaTBU82jQEzMYj/+U5rBO9O2QCOeOkFbZK7BikDrQHp9I8DHOpvBBYLJQAwJl8Cf
05XBw/bDQHOyaMDLuIrBWGpfQGu1Z793dprBMGFeQDFpFMAuAqPBLHJ+QCgJE8D9sYrBZMsnQG+T
QcBOtZHBf5e2QFGVpkAQU4bBYM6VQHfBdEBcuoLBBb/NQJWAZkDCT4TBUfZnQBT7UUCPKKjBCQo2
QCOEh0DPNozBQvwHQOmMeUB5r5jBzEu3QKy3F0HXtqXBgyq7QMyqAUGQ06bBdMHtQBZstEBOR7nB
chzEQDhHm7/2NKvB9PTxQKFTiEBNhbrBTNDWQPjFVL5kV7HBkLfDQJ7yqEA3VanBSmWmQGTq6z7J
cJ/BpOXKQGyTJEG4Ta3B9p3WQB++xECTr7DB7i3SQHqG8kA8Xq/BQOGrQBcCYb+yQaLB76fHQJvI
eEAWeqrBPwy5QPQ/vj87jKXB5vTeQHTsWEBLKbPBFkHRQANNkT/Gh67BqpLkQKt5B0FehrbBjFWv
QBZ9OcBN0pbB3veXQJYR+b/gs5vB9wzEQLlYTUAvDZfBcpV2QBkIaUASF5fB1m2bQEqff8DCSJDB
Oa9PQL1J+78mmZrBrqMzQN5DNMCAGJHB27izQHT2O0AJjqLBAqSiQEgEfUBkf4XBdoLhQPP8HEEz
tbXBbpKfQBc6aEB715DBRkOFQIK4T0CXiKHBy6klQJgdf0C52pPBT6voQI3rRUCCyZPBMujkQOAu
A0DGGbXBjD1cQLnpgsCytpHBavj6QIKe/0C63L7B74alQCGkHkGcHp/BQAusQCx97kBs+qDB+q38
QHWdyUDJFL/BprfIQBkbEMCKgq3BxgYCQUqUd0DcQMHBpa/pQNCB8743U7jB7MCxQAP/tUCEn6LB
wHqTQKVYNj8JaZjBrNDIQPffNUFBzazBPg/SQPQeOcAkZ5fBOCSpQEulnsDcn5LBzVqiQK3EdcBj
x4fBSZU2QMxvcr9bmJnBxZo0QBrjF8BYAaLBh/RCQAa0FcAdbonBcKvcP7NSPsDhWJHBesupQGB9
oEDMZoTBsXWEQBFtbkAsdoHBswG8QKBRV0DIvYHBoxleQKztS0DZdqfBniEdQH06iEDYSIzBJnvt
P3zsfEAMNJnB73/AQL+EFUGaybvB42DEQOvH/kAVZrzBClvzQDC3p0AwjL3BB/HPQByFub9JYarB
oZH3QALAdkB/+b3BUH3gQILzAb/peLHBGULOQMZPoUAzr6zBUVG1QKufqz4PNZ/BBuzSQBrMH0HW
G7PBYK7eQH2xukBP57TBUT3aQDu96EBRbrTBVlW6QOCXg79HP6HBPj7SQBQWaUDs/6zBWNHFQN8Q
pj/USKbBaQznQM/ZQ0DovrXBeWXbQNjbWz8pcK/Bo4LrQKkfAEFWFazBCL3BQLMyO8CfpZTBqLio
QLW7AcABrZnB8ZfUQPZTSkAQMJnBKOeLQIh6ZUAeJpjB3SKwQKL9fMDgEo3BYR9yQARnAsCfq5fB
4URcQFPIMsBIao3BHvvAQIp4MUCcJKTBcUO4QKR/gkCdmIfBBGboQHqgFUFKN6vBou+xQLDsaEAc
m5LBnN2SQJaORUD+daLBwNRIQGFZfUCcZpTBHRz6QC4/RUDzjJbB6cnsQNhX2j9H7LbBxo6CQPQt
gsCVlo3Bg2sAQW7N60D9RaTB5ZevQIx0HkGz5sHBgjm2QFfu7UC8IsPBaSoAQagBu0DlBMTB5iXU
QKx4IMBZFqzBs90DQYmCWUB+wMTBO1HxQAbpV7/kl7jBTDe+QC9vsEBK8aXB83akQIS7Jz9WB5jB
ftLQQK8KMUHfQrLBfDHkQPABO8Ad4JXBKWS9QCfyncApCY/BhYS5QIyhbcD92ITBkhtZQC4Cgr/H
F5fBxvZSQPlsIcBVhJ7BpM9vQEBSD8DWPobBDhkXQGYrPcAq64zBpWu/QFq+pECcUofBNG2bQL7j
eEAs4ILBsNbSQDj/YUDP9IPBVfN1QMDQPUBs56fBCadEQFPAiUCo+IzB6eMWQFySd0AqQpnBTI2z
QOF2HkEN0KbB6OG3QCKjCEF5q6jBpfvjQN0XyEC0fL3BeGPFQDZoOL+ap7HBPpboQIZ7nEBee7/B
pabUQNRirz5mw7fBu0bBQP/et0C7t6zBn7mrQJRjVz9FZqTBhTnDQEZtLEEEfK7B7k7QQA/M1UAH
G7TBC3fLQLKIAUEuAbLBSuewQLQu8b7w+KfB8avFQH7Fi0Bsna7BXu+6QHRM9j9ZeKrBpHXZQAL3
fEAFFrjBs2TPQBs/1D8dMbTBWxDaQEbIEEHTLLnBVlOTQEg5MMCA4KXBbamgQAu6zL/PcaHBt+HK
QIw6Y0DAjpvBpD2CQMbPekBNeJnBJUWCQNpUecBmWJ/BosWeQB2Ot7+TcZXBdQ2bQJw1MsAx0o/B
o+m1QNknVkBlrKbBFqywQJiChEAJ5ojBp27WQBoeJkHqpbfBKP2oQIo3eUBNO5TBOPSHQITRZkBo
SaTBRlY2QOeQhkDABpXBlcLwQOhjXEDZVpnBE3rfQPeZKEAQzbrBUhFyQDz1YcBehpTB8hbtQIJi
CkHdRMLBqmmkQO1hJEHFl5/BT8+rQKW6+kDaxaLB3N7vQDb43kAZVMPBSLTJQBBI3r+PjbTBq/b3
QIL+kUD908bB/5rkQChYED4SUr/BtQKyQO3gwkDjY6XBKsKbQJRegz9wzZzB8J3AQBybPUGya63B
7feUQDGCOcCGfa7B+dBIQDdDiMD24aLBZiyZQFo4l8D0Wp/B6ka7QMfFab+CepLBK8+CQJC+UL+/
g5PBAuy4QLTpVsCAR5DBpo6TQK24KMBcWYfBZIO3QHhgpkB9f4fBSI+UQLXzdkDoM4TB2OfLQK8e
Y0A5HobBD8BeQL53ZEB6nanBvPYzQKZkjUCDRY3BFykDQPQFhkCEu5nBZkWdQMYwHUHt1qrBlBGi
QAp9B0GU+KzBNSXkQIMQxECOJ7rBYdzKQPJVYb+V1a7BoqDpQBSmmEC/RbzBhyfZQFFoTT5O47TB
hWnCQENnskAQWqnBd5iwQEKGJT/QZKHBiOrBQHOiKUH2SarBooTQQHnz0EDWsbDBqcPKQFEE/kA7
d67BNY+2QAxJKL87FqXBNLPHQIB9hkB/X6vB+NK+QAGm3z9caKfBmG3bQJYMdEDq67TB7hvTQOD7
wD8pMrHBXl7tQIDLDEEUwa3BCqmaQHeSPcCSHaPBDFmnQOcE578Gnp7BJyzOQJdbV0CbZZjB0V6F
QDGUa0AqHpbBJaWKQBn4g8A6pJzBgselQHb50799mZLBbTWjQM0DQcDUFI3BpfK4QEhGSkBue6PB
eDy0QCp4ekDqoYXB0/jpQAb2IUFusqvBxFCsQMRBa0DN95DBK+iKQBe5WEDk+KDBiYo8QKXRe0B4
kJHBDzL0QFsAUkCDRZbBEUTiQAMyIEBTwrfBt4yBQJnbccByxZHB7IkKQdUMBUH7K6/Bpb57QOEp
JEFhpKnBZ8uFQGrL+kBVc63BXVHvQMVu20Bc9r/Bo8fPQGrb8b+D07HBMvb4QLnMjkDircPBdPjo
QCqloDwhf7zBRS2zQE3GvEBu9qHBxcegQM6VTz8sv5nB0ui/QEqnOkFSp6jBSxecQKUURsBnvqvB
BtVZQLkSkMB3JKDBDh+iQGUDnsBoxZzBMwXCQP1Oj7+Xp4/BXnaJQLKUh7+yjpDBJHTBQFVcZMBC
p43BgOubQF2MOMDLlITBDmO6QDgvn0DKKITB3n+YQJbKZkDz5YDBDvrPQDGMVUA09oLBcFVkQLm6
VUCsP6bBOG86QI5khEA1yonBfQ8JQL/+eUD2NpbBCk3tQMwaIUH017TBzsnuQGxaC0GzJbfBX07x
QMQ3vUD1m7vBV6nBQJDHer/8SbDBFGjyQJ14kUAnur3B/VnTQLi5UD21V7bByvjNQFoHr0B4zqrB
q22sQMQuHz842aLBDq/aQAxYJ0F9RqvB+hHfQP0BzEA+JrLBbd3dQGVs+UCi66/BdC2uQKC6Mb+i
iqbBPtTOQITOgkDm06zBFB6+QD0P1j/E3KjBIzXhQNDZaEBSYLbBCojRQIZprz+QprLBz/HLQHGS
BEESk6bB2gWLQPSXOcD5kaTBNlybQPzl5L9tEqDBfpTSQHz2TkAC2pnBsCiLQC2vcUCRkpfBALhu
QK0vgMCiGJ7B7kaaQAxS0b/kDZTBA1uTQMi7PsA7iY7Bb868QOQzRkDV76TBAIm6QIEZd0BSFofB
LOrJQGOVGUExD6TBPuSxQHGNaUA0bJLB2riPQCHQXUBMbaLBKCRKQKvXhEDfBJPBkiT4QMkBQkDq
uZfBXM7jQFsMFEC6NrnBgdVeQD2UaMDaOZPBrF+7QA2W7UAocJ/BDEb6QMXRLEH8WrrBi0P9QKYP
BkHImb7BDsT+QAVZ00DEasHBD1HDQKjm/7/rR7PBf1YAQUkihkBJIsXBz4HiQPL3Nr6I873Bedq/
QCngukDVaqPBXzidQEy4VT+TM5vBTL/YQNoeOEE1GanBCAWMQJxYQsDPMq3B9yExQG8/icDemKHB
9xqMQBd0nMDQOZ7B5hi4QGRUmL/+G5HBqgSAQMDnc78ZA5LB9ayvQLH3Z8CqG4/BLYeMQALZNMAz
CYbBRA/EQCe2nEAxnYXBmfOdQIcVaUBbWoLB1kjUQMfMTECcaoTBzeltQPXLX0ATtKfBdVhJQBNm
i0CcPovBurwWQD6EhkBeq5fBoL+gQCgQIEG1pavBI8ymQPVsCkFevq3BSqrrQFaay0B0nbrBJ1LX
QAhLKb9UVa/BzWXyQHFVoEDksbzBaSXlQO4b3D7bVbXBtTvJQBAluUCA9KnBP+S6QCZzWD82BqLB
MbTEQJ74LEE/8qrBLhDXQGAE2EDnPrHBawLQQO92AkF+Dq/B9CvCQI5F6L5traXBCcfPQLVfjUBc
8KvBBqLIQChv+j+x/KfBynnkQPZhgUCIZbXBN8jdQPa23T8Er7HBdNjxQGCwEEFVNK7BNgeoQFrl
McCgzaPBUnSzQA5czr9FQ5/BUJ3VQCeaZUDP7ZjBcG6MQK4edkDq95bB5YSYQKICfcAuY53Bpu6w
QCBRu79UQZPBxRavQErANMAfvI3BxlXBQHxdV0ArGqTBRvG5QATBg0AESYbBtjrtQPPOJUEILazB
UQGzQK/Rd0CcppHBPPWSQHV6Y0BQy6HBwKdJQCsygkBelpLBWYr7QG8zYkB4o5bBPZPsQKJEL0DJ
MLjBp2SOQJxTZ8DPj5LBpAMNQVFzCUHsca/BJu2AQLuiJkEil6rBixWLQPTz/0C+Vq7BvqP2QH46
40CZYcDBj0TdQDpV1b8ES7LBmD4BQYbalkDyB8TBNKH1QB6DhT5k37zBiTq5QEImw0DioqLBemuq
QN16fz/RcprBtrfBQDX2PUG3VKnBJyqqQD5jOsAvbKzB5bV2QApgi8A0A6HBH6iwQFXxl8AzaJ3B
roTMQISBZ7+yMZDBJACUQMCdY7+OV5HBN8/NQA2MVsCSK47BRBunQNaZLMDWRIXBjB+/QMHapUD0
y4TBNCSeQEx0ckAjq4HBg/TVQPAHZEApfYPBYkR1QCUwX0AqLafBLiRGQEetiEAb0orB5+MWQLic
gEAcWZfB

>  <OMEGA_E>  (106) 
jyRywQ3pd8FGdYzBrICBwe4BdcEAjoHBy8V0wQR+ccFqZ3PB

>  <OMEGA_NBR>  (106) 
     45719

$$$$
50215516
     RDKit          3D

 42 45  0  0  1  0  0  0  0  0999 V2000
    6.7173   -0.7351  -22.2459 C   0  0  0  0  0  0  0  0  0  0  0  0
    5.1691   -4.3369  -18.0510 C   0  0  0  0  0  0  0  0  0  0  0  0
    6.1967   -1.6919  -21.3626 C   0  0  0  0  0  0  0  0  0  0  0  0
    5.6980   -3.3794  -18.9285 C   0  0  0  0  0  0  0  0  0  0  0  0
    6.4671    0.6294  -22.0345 C   0  0  0  0  0  0  0  0  0  0  0  0
    5.1387    0.0793  -20.0630 C   0  0  0  0  0  0  0  0  0  0  0  0
    3.8348   -4.2079  -17.6146 C   0  0  0  0  0  0  0  0  0  0  0  0
    3.5583   -2.2256  -18.8418 C   0  0  0  0  0  0  0  0  0  0  0  0
    5.4038   -1.2905  -20.2677 C   0  0  0  0  0  0  0  0  0  0  0  0
    4.8829   -2.3032  -19.3323 C   0  0  0  0  0  0  0  0  0  0  0  0
    5.6719    1.0560  -20.9418 C   0  0  0  0  0  0  0  0  0  0  0  0
    6.3327    2.8489  -19.3710 C   0  0  0  0  0  0  0  0  0  0  0  0
    4.1102    3.0788  -18.8743 C   0  0  0  0  0  0  0  0  0  0  0  0
    6.3593    4.8883  -21.6395 C   0  0  0  0  0  0  0  0  0  0  0  0
    7.2099    3.8021  -22.3150 C   0  0  0  0  0  0  0  0  0  0  0  0
    5.7813    3.4780  -21.8390 C   0  0  0  0  0  0  0  0  0  0  0  0
    5.5039    2.5450  -20.6127 C   0  0  1  0  0  0  0  0  0  0  0  0
    5.7472    3.3406  -16.9607 C   0  0  0  0  0  0  0  0  0  0  0  0
    3.0565   -3.1708  -18.0105 N   0  0  0  0  0  0  0  0  0  0  0  0
    5.4077    3.0116  -18.3515 N   0  0  0  0  0  0  0  0  0  0  0  0
    4.1294    2.8224  -20.1630 N   0  0  0  0  0  0  0  0  0  0  0  0
    2.9622    3.3323  -18.1402 N   0  0  0  0  0  0  0  0  0  0  0  0
    7.5511    2.7858  -19.2512 O   0  0  0  0  0  0  0  0  0  0  0  0
    7.3120   -1.0491  -23.0909 H   0  0  0  0  0  0  0  0  0  0  0  0
    5.7768   -5.1634  -17.7136 H   0  0  0  0  0  0  0  0  0  0  0  0
    6.4038   -2.7399  -21.5215 H   0  0  0  0  0  0  0  0  0  0  0  0
    6.7126   -3.4654  -19.2886 H   0  0  0  0  0  0  0  0  0  0  0  0
    6.8844    1.3610  -22.7105 H   0  0  0  0  0  0  0  0  0  0  0  0
    4.5242    0.3871  -19.2299 H   0  0  0  0  0  0  0  0  0  0  0  0
    3.4232   -4.9525  -16.9494 H   0  0  0  0  0  0  0  0  0  0  0  0
    2.9336   -1.3952  -19.1361 H   0  0  0  0  0  0  0  0  0  0  0  0
    6.6169    5.2388  -20.6292 H   0  0  0  0  0  0  0  0  0  0  0  0
    5.9713    5.7300  -22.2319 H   0  0  0  0  0  0  0  0  0  0  0  0
    7.4302    3.8656  -23.3909 H   0  0  0  0  0  0  0  0  0  0  0  0
    8.0757    3.3744  -21.7882 H   0  0  0  0  0  0  0  0  0  0  0  0
    5.0372    3.3965  -22.6450 H   0  0  0  0  0  0  0  0  0  0  0  0
    4.8255    3.4103  -16.3644 H   0  0  0  0  0  0  0  0  0  0  0  0
    6.3939    2.5537  -16.5453 H   0  0  0  0  0  0  0  0  0  0  0  0
    6.2769    4.3042  -16.9308 H   0  0  0  0  0  0  0  0  0  0  0  0
    3.3236    2.8166  -20.7552 H   0  0  0  0  0  0  0  0  0  0  0  0
    2.0694    3.3276  -18.5906 H   0  0  0  0  0  0  0  0  0  0  0  0
    3.0268    3.5198  -17.1600 H   0  0  0  0  0  0  0  0  0  0  0  0
  1  3  2  0
  1  5  1  0
  2  4  2  0
  2  7  1  0
  3  9  1  0
  4 10  1  0
  5 11  2  0
  6  9  2  0
  6 11  1  0
  7 19  2  0
  8 10  2  0
  8 19  1  0
  9 10  1  0
 11 17  1  0
 12 17  1  0
 12 20  1  0
 12 23  2  0
 13 20  1  0
 13 21  2  0
 13 22  1  0
 14 15  1  0
 14 16  1  0
 15 16  1  0
 17 16  1  6
 17 21  1  0
 18 20  1  0
  1 24  1  0
  2 25  1  0
  3 26  1  0
  4 27  1  0
  5 28  1  0
  6 29  1  0
  7 30  1  0
  8 31  1  0
 14 32  1  0
 14 33  1  0
 15 34  1  0
 15 35  1  0
 16 36  1  0
 18 37  1  0
 18 38  1  0
 18 39  1  0
 21 40  1  0
 22 41  1  0
 22 42  1  0
M  CHG  1  21   1
M  END
>  <OMEGA_C>  (107) 
3vPWQE8uPL+w97HB7GilQKHHisCHaJDBk0vGQJqR2L+q5qrB9lW2QI9IWMCQbZfB1/LOQDYiIT+V
RrDB3G+kQPx0oj0bgaDBHG51QPemhsCs6ozBFLtjQPpvDsDtu5bBLeysQJ0upb9CJKLBWkCcQH1n
E8CFqJrBlYC1QGcshz/biKfBmqXKQDhUNkDb95rBY4aDQHELRUCY/pbBoH/LQK1snEDDHa3B0rfm
QGtVc0A4hbLBywC5QDSXXkA/tq7B3x+wQFfhIkC85qTBGum3QGnMVUCCr4fBup1DQBPvSsCFFZDB
8wutQBy+QEDpz5LB+yOEQPGiNEDOTaHBCJU9QO1DVUAWH5HBZ6LxQLxKMkCMAprBUPzpQHxJhr89
urjBNtu4QNY6pcBftY3BBezMQAxbL8ABLKzBQM3WQNLIXcAPT5rBLk3cQKA2rj8Zr7XBGsaQQNox
xj7d1pnBEhVbQJp6nsBQmIfB9b87QACWsr+nFpnBb73TQFSkp0CVCKXBRRW/QHVct0Dr2rHB28Pt
QHxmd0CSILvBAjYBQTn2V0A8Tq7BnjChQIFfWUDcKLXBdGqaQONCWkBD6oLBnprMQI1vI0C3XITB
P9zIQBm8iUBHcofBnrZUQMJCNECyCqbBlnEEQLb3VECduZTBe7ZBQDVEYUDDR4nB8XDVQIwOPL9V
FLLBpABLQHDcVMAyio/B0GLEQIvl2b8DL6vBEkpkQMy2E8CfnZbB2bzNQCNiID/8MbDB2M+iQFbM
WD10iKDBHPCCQJzWisDWw4zBiqa3QJFGWcAvvJfB0i2rQGdqqL/LWqLBxO+bQAoMFsB+05rBFCO0
QBgRhT/lcKfBt6vJQFqaM0Acr5rBpyKDQLMXTUB7CZfBo8zKQC4OnEAHpqzBoE/mQKnRckBHAbLB
rV+4QHj4XUAQXq7BrRWvQLN8IUDOpaTBsFC3QPqPXEBirofBixyrQI13i8AW0pDBaSCsQLDYQ0DW
qpLBICSDQB93M0CQC6HBir8+QAstakB4kpHBTWnwQGLcKkCDl5nBrY3oQAzShL+B27jBURQLQPxU
VcDnQIzBB5TKQEDyL8B4o6zBR584QF0Awr/fxpjBi3LbQKoArz98d7XBXh2PQJhXsz4U2JnBf2Ry
QGy0o8D8R4fBKKjXQNNkW8Dc+5rBmpjSQDAYp0DkhaTBYKi+QHUZt0C/ZLHBx9XtQBFAd0BwlbrB
AeMAQYc9V0CVtq3BVeqgQMgHWUA45rTB6eSZQKqCZUA0+4LBYuHKQEDwKUDEAoTBW5DJQExgjECG
0ofB0fJRQOUQLUCFlKXBEgYGQJmxbEBqQ5XBFuJDQNqifEBp8InB

>  <OMEGA_E>  (107) 
yHcYPzIfMz8=

>  <OMEGA_NBR>  (107) 
     26123

$$$$
50168821
     RDKit          3D

 52 55  0  0  1  0  0  0  0  0999 V2000
    6.2602   -0.7120  -22.5451 C   0  0  0  0  0  0  0  0  0  0  0  0
    3.2294   -3.7396  -18.4356 C   0  0  0  0  0  0  0  0  0  0  0  0
    5.8442   -1.6966  -21.6318 C   0  0  0  0  0  0  0  0  0  0  0  0
    3.6053   -2.7689  -19.3774 C   0  0  0  0  0  0  0  0  0  0  0  0
    6.2016    0.6491  -22.1904 C   0  0  0  0  0  0  0  0  0  0  0  0
    5.1860    3.8895  -22.5851 C   0  0  0  0  0  0  0  0  0  0  0  0
    7.4654    3.8118  -21.7187 C   0  0  0  0  0  0  0  0  0  0  0  0
    5.6174    4.7062  -23.6399 C   0  0  0  0  0  0  0  0  0  0  0  0
    7.8934    4.6412  -22.7683 C   0  0  0  0  0  0  0  0  0  0  0  0
    5.3068    0.0411  -20.0026 C   0  0  0  0  0  0  0  0  0  0  0  0
    4.1994   -4.2460  -17.5445 C   0  0  0  0  0  0  0  0  0  0  0  0
    5.3672   -1.3170  -20.3616 C   0  0  0  0  0  0  0  0  0  0  0  0
    4.9429   -2.3355  -19.3989 C   0  0  0  0  0  0  0  0  0  0  0  0
    6.0966    3.4641  -21.5895 C   0  0  0  0  0  0  0  0  0  0  0  0
    5.7242    1.0406  -20.9084 C   0  0  0  0  0  0  0  0  0  0  0  0
    6.9714    5.1181  -23.7187 C   0  0  0  0  0  0  0  0  0  0  0  0
    5.8662   -2.8772  -18.4743 C   0  0  0  0  0  0  0  0  0  0  0  0
    6.3517    2.7655  -19.1618 C   0  0  0  0  0  0  0  0  0  0  0  0
    4.1334    3.2879  -18.8985 C   0  0  0  0  0  0  0  0  0  0  0  0
    5.6213    2.5134  -20.4822 C   0  0  1  0  0  0  0  0  0  0  0  0
    5.6538    3.6166  -16.8894 C   0  0  0  0  0  0  0  0  0  0  0  0
    6.5006    6.9783  -25.1906 C   0  0  0  0  0  0  0  0  0  0  0  0
    6.0263    7.9153  -24.0534 C   0  0  0  0  0  0  0  0  0  0  0  0
    5.4851   -3.8150  -17.5732 N   0  0  0  0  0  0  0  0  0  0  0  0
    5.4101    3.3333  -18.3139 N   0  0  0  0  0  0  0  0  0  0  0  0
    4.2176    2.8198  -20.1252 N   0  0  0  0  0  0  0  0  0  0  0  0
    2.9439    3.6754  -18.2914 N   0  0  0  0  0  0  0  0  0  0  0  0
    7.5122    2.4868  -18.8786 O   0  0  0  0  0  0  0  0  0  0  0  0
    7.4351    5.9758  -24.7033 O   0  0  0  0  0  0  0  0  0  0  0  0
    7.1543   -2.4565  -18.4803 F   0  0  0  0  0  0  0  0  0  0  0  0
    5.1406    8.8161  -24.5474 F   0  0  0  0  0  0  0  0  0  0  0  0
    6.6252   -1.0001  -23.5199 H   0  0  0  0  0  0  0  0  0  0  0  0
    2.2103   -4.0946  -18.3936 H   0  0  0  0  0  0  0  0  0  0  0  0
    5.8902   -2.7410  -21.9031 H   0  0  0  0  0  0  0  0  0  0  0  0
    2.8828   -2.3637  -20.0705 H   0  0  0  0  0  0  0  0  0  0  0  0
    6.5211    1.4014  -22.8963 H   0  0  0  0  0  0  0  0  0  0  0  0
    4.1517    3.5831  -22.5324 H   0  0  0  0  0  0  0  0  0  0  0  0
    8.1838    3.4362  -21.0051 H   0  0  0  0  0  0  0  0  0  0  0  0
    4.9146    5.0231  -24.3962 H   0  0  0  0  0  0  0  0  0  0  0  0
    8.9353    4.9144  -22.8464 H   0  0  0  0  0  0  0  0  0  0  0  0
    4.9384    0.3218  -19.0270 H   0  0  0  0  0  0  0  0  0  0  0  0
    3.9110   -4.9951  -16.8219 H   0  0  0  0  0  0  0  0  0  0  0  0
    4.7528    4.0641  -16.4446 H   0  0  0  0  0  0  0  0  0  0  0  0
    5.8948    2.6799  -16.3655 H   0  0  0  0  0  0  0  0  0  0  0  0
    6.4964    4.3174  -16.7940 H   0  0  0  0  0  0  0  0  0  0  0  0
    5.6259    6.4707  -25.6231 H   0  0  0  0  0  0  0  0  0  0  0  0
    6.9958    7.5807  -25.9664 H   0  0  0  0  0  0  0  0  0  0  0  0
    5.5421    7.3194  -23.2658 H   0  0  0  0  0  0  0  0  0  0  0  0
    6.8922    8.4465  -23.6314 H   0  0  0  0  0  0  0  0  0  0  0  0
    3.4366    2.6883  -20.7357 H   0  0  0  0  0  0  0  0  0  0  0  0
    2.0812    3.6062  -18.7922 H   0  0  0  0  0  0  0  0  0  0  0  0
    2.9513    4.0235  -17.3539 H   0  0  0  0  0  0  0  0  0  0  0  0
  1  3  2  0
  1  5  1  0
  2  4  2  0
  2 11  1  0
  3 12  1  0
  4 13  1  0
  5 15  2  0
  6  8  2  0
  6 14  1  0
  7  9  1  0
  7 14  2  0
  8 16  1  0
  9 16  2  0
 10 12  2  0
 10 15  1  0
 11 24  2  0
 12 13  1  0
 13 17  2  0
 20 14  1  6
 15 20  1  0
 16 29  1  0
 17 24  1  0
 17 30  1  0
 18 20  1  0
 18 25  1  0
 18 28  2  0
 19 25  1  0
 19 26  2  0
 19 27  1  0
 20 26  1  0
 21 25  1  0
 22 23  1  0
 22 29  1  0
 23 31  1  0
  1 32  1  0
  2 33  1  0
  3 34  1  0
  4 35  1  0
  5 36  1  0
  6 37  1  0
  7 38  1  0
  8 39  1  0
  9 40  1  0
 10 41  1  0
 11 42  1  0
 21 43  1  0
 21 44  1  0
 21 45  1  0
 22 46  1  0
 22 47  1  0
 23 48  1  0
 23 49  1  0
 26 50  1  0
 27 51  1  0
 27 52  1  0
M  CHG  1  26   1
M  END
>  <OMEGA_C>  (108) 
pFPIQJtENr9iXLTBAa9OQAFWb8AtfJPBmQO7QG8q2b/cDa3BwrxmQFA1McAEBZvBOHPGQGUrJj/4
hbHBV/OlQLjteEBdrrTB5uTuQH30c0Dsv63BvcGzQEOZlkCJHr3Bf5b8QHeElEBiJbbB/tCpQHM3
KD1eBaDBvWGGQHbfh8AWW4zB/b+rQBqUqL+c5KLBRSyeQOd4FcALMZvBPxfDQPGzXUBGt6zBeSy3
QAgyhT9SRKfBVhXfQBrHo0DMv73BBri7QPMjOMBky5PBxEDLQDf+MEBdS5nB50SEQItsUkAwMJfB
tuGzQEncIECh26PBVOy0QOR2Z0CMHYfBLwXQQFBO30BAhsnBs9fAQClK/UBzbcDBHoavQGEpdMD+
lYzBRh+tQHtVVUD3gpLB4PaGQFB3NEBPAKHBGWk8QI06a0C2VJLBOWTwQPYnH0BWB5fB8OvtQHA5
v0BhoMXBb/DkQOQ2HcCZ15PBdH+kQKIODUEbYcTBYQHUQNAEgL+0KLzBonUNQAAHg8AFJpPBHny8
QPRrL8B+Oa/BE4A4QHRGF8BQkKDBK63QQPhhsz+gK7fBedqEQAlSZUBBQrTBzvACQWfqW0BhCqjB
EESdQEK9oEBxK8PBCfcOQbVCnUB4xbbBQQeeQH+9pD43N5jBLk16QLfXn8BFk4bB1xaYQPsMgkCI
joPBi6K8QEuEK0By7ILBYeLPQOInikApWobBFwe0QAwQz0Ar/MzBkt3fQEmV8kAmu8/B1VixQMw4
6kBDILrBi4zcQPQkB0EHDb3B4vFbQK4MLECt4qXBoTEFQD7LZkBvVpbB9OE8QB/AgEDJ1IrB9j7G
QNIXQL8ntLPB2eWsQLejb8A1MIvB/lC5QHN02r9aHqzBkg67QOKFM8CRvpLBjt3EQDjNHj+7KLHB
5iilQHQGd0Bt37TBzoTuQCICckCMOK7BP6yyQK2blEADib3Bv+z7QFyCkkD517bBynKpQNJToT2a
ZZ/BV2uBQCMEhMBhIYvBcfGqQOQCpb+Z+KHBHTydQC68EcB2CJrBSK7CQETgXEBQ8KzBZ3a2QERr
hj8J7KbBKhXeQPlCoUBRbb7BsQ5kQHh0LMD9hpnBzODLQKgwNEBqaZnBezCFQJhWV0DRIpfBesKz
QCA6IkCP0qPBHvy2QMXnbkDuVYfBUdzOQC2120CwhcrBlKvAQD/R+kBSkMHBQOlJQPOfZsCCLZLB
eFquQBeFWkBuopLBNh6HQHo+N0DF2qDBCxs/QInZcUAfNpLBPxHxQHQXIkA/O5fBRK3sQEi1u0AJ
i8bBHfYpQMibC8Aic6DBmVSkQGvAC0F5lMXBsT/RQEipiL+pfbvBKQLDQF1yhcAJfYXBPWa6QBeJ
MMCtEK7BZyXcQBSlH8Cp9JLBxs7OQL3lrD+QBLfBn/+DQMszZEC2QLTBquACQT+2WkDVhqjB7eOb
QLtYnkAEj8PBHacOQSTYmkDFqLfBv0OeQBQPxz5om5fB1xVtQMA3m8A4VYXB+4SaQCVqhkDPwYPB
TrO+QMK4M0Bb+oLBpjHSQGaxjUDA1IbBXXKyQKVty0Dwv83BG3neQKci7kCH7NDBL3SxQPqZ6EC2
ELvBPsvcQHjwBUFgbr7BVI5bQJI8LkDHm6XBmVYHQPEMbUAjF5bBeb5AQFDbhECKyorB

>  <OMEGA_E>  (108) 
XodNP1DmNT8=

>  <OMEGA_NBR>  (108) 
     28166

$$$$
288408
     RDKit          3D

 42 45  0  0  1  0  0  0  0  0999 V2000
    6.9407    4.1829  -23.7554 C   0  0  0  0  0  0  0  0  0  0  0  0
    6.8928    5.5725  -23.5321 C   0  0  0  0  0  0  0  0  0  0  0  0
    6.1415    5.1906  -21.2527 C   0  0  0  0  0  0  0  0  0  0  0  0
    6.1496    3.7983  -21.4769 C   0  0  0  0  0  0  0  0  0  0  0  0
    6.5943    3.2842  -22.7280 C   0  0  0  0  0  0  0  0  0  0  0  0
    6.5039    6.0727  -22.2762 C   0  0  0  0  0  0  0  0  0  0  0  0
    4.1564    3.3620  -18.6853 C   0  0  0  0  0  0  0  0  0  0  0  0
    6.3765    2.9296  -19.1182 C   0  0  0  0  0  0  0  0  0  0  0  0
    4.0514    1.2175  -21.7532 C   0  0  0  0  0  0  0  0  0  0  0  0
    4.7607    0.4154  -19.9544 C   0  0  0  0  0  0  0  0  0  0  0  0
    6.6694    1.0582  -21.8215 C   0  0  1  0  0  0  0  0  0  0  0  0
    5.5672    2.8895  -20.4101 C   0  0  2  0  0  0  0  0  0  0  0  0
    5.4161    1.4484  -20.9745 C   0  0  0  0  0  0  0  0  0  0  0  0
    6.7245   -0.4146  -22.2969 C   0  0  0  0  0  0  0  0  0  0  0  0
    7.3001   -1.3294  -21.1846 C   0  0  0  0  0  0  0  0  0  0  0  0
    6.6062   -2.7093  -21.1341 C   0  0  0  0  0  0  0  0  0  0  0  0
    4.2674    3.4199  -19.9874 N   0  0  0  0  0  0  0  0  0  0  0  0
    2.9394    3.4848  -18.0380 N   0  0  0  0  0  0  0  0  0  0  0  0
    6.6818    1.9225  -22.9881 O   0  0  0  0  0  0  0  0  0  0  0  0
    5.3832    3.1188  -18.0935 O   0  0  0  0  0  0  0  0  0  0  0  0
    3.5907    0.4058  -20.7133 O   0  0  0  0  0  0  0  0  0  0  0  0
    5.2486   -2.6062  -21.1149 F   0  0  0  0  0  0  0  0  0  0  0  0
    6.9759   -3.4223  -22.2276 F   0  0  0  0  0  0  0  0  0  0  0  0
    6.9956   -3.3599  -20.0065 F   0  0  0  0  0  0  0  0  0  0  0  0
    6.3987    7.9460  -21.9710 Br  0  0  0  0  0  0  0  0  0  0  0  0
    7.2447    3.8042  -24.7200 H   0  0  0  0  0  0  0  0  0  0  0  0
    7.1551    6.2554  -24.3265 H   0  0  0  0  0  0  0  0  0  0  0  0
    5.8543    5.5778  -20.2862 H   0  0  0  0  0  0  0  0  0  0  0  0
    6.9196    1.9851  -18.9671 H   0  0  0  0  0  0  0  0  0  0  0  0
    7.0911    3.7658  -19.1298 H   0  0  0  0  0  0  0  0  0  0  0  0
    3.4602    2.1329  -21.9032 H   0  0  0  0  0  0  0  0  0  0  0  0
    4.1662    0.6937  -22.7137 H   0  0  0  0  0  0  0  0  0  0  0  0
    5.2737   -0.5566  -19.9083 H   0  0  0  0  0  0  0  0  0  0  0  0
    4.6319    0.8107  -18.9360 H   0  0  0  0  0  0  0  0  0  0  0  0
    7.5643    1.2546  -21.2127 H   0  0  0  0  0  0  0  0  0  0  0  0
    5.7081   -0.7503  -22.5504 H   0  0  0  0  0  0  0  0  0  0  0  0
    7.3659   -0.4825  -23.1880 H   0  0  0  0  0  0  0  0  0  0  0  0
    8.3732   -1.4810  -21.3730 H   0  0  0  0  0  0  0  0  0  0  0  0
    7.1651   -0.8311  -20.2133 H   0  0  0  0  0  0  0  0  0  0  0  0
    3.5663    3.7749  -20.6058 H   0  0  0  0  0  0  0  0  0  0  0  0
    2.8911    3.3966  -17.0431 H   0  0  0  0  0  0  0  0  0  0  0  0
    2.1083    3.6616  -18.5652 H   0  0  0  0  0  0  0  0  0  0  0  0
  1  2  2  0
  1  5  1  0
  2  6  1  0
  3  4  1  0
  3  6  2  0
  4  5  2  0
  4 12  1  0
  5 19  1  0
  6 25  1  0
  7 17  2  0
  7 18  1  0
  7 20  1  0
 12  8  1  1
  8 20  1  0
  9 13  1  0
  9 21  1  0
 10 13  1  0
 10 21  1  0
 11 13  1  0
 11 14  1  0
 11 19  1  0
 12 13  1  0
 12 17  1  0
 14 15  1  0
 15 16  1  0
 16 22  1  0
 16 23  1  0
 16 24  1  0
  1 26  1  0
  2 27  1  0
  3 28  1  0
  8 29  1  0
  8 30  1  0
  9 31  1  0
  9 32  1  0
 10 33  1  0
 10 34  1  0
 11 35  1  1
 14 36  1  0
 14 37  1  0
 15 38  1  0
 15 39  1  0
 17 40  1  0
 18 41  1  0
 18 42  1  0
M  CHG  1  17   1
M  END
>  <OMEGA_C>  (109) 
8hneQOvZhUAAC77BwpHcQLVRskCvQbzBgofEQMAZpkBwBarBUMnEQPkXc0CY0KvB1ATTQKwwUkDj
0rXBSiDQQC9TwkChNbLBZQGFQL8qV0B2e5XB5AvMQLR+O0AT8pjBxaSBQBTWmz+XBq7BwleYQJGq
1D6rop/B42vVQE90hz9lkq7BPSayQCfuOED8R6PBs1CtQL1luT/Ey6fB/C7XQEpD1L4cYLLBMJrp
QAgqqr8keqnBWWbTQNhkLcCMEqnBl46IQE3fWkA95p/B5h48QHsGX0DaTZDBOtHVQE8V9j+Q57fB
KEOsQO6aR0CBv5DBYs1lQLvBzz7GtKXBtvSnQKPLJsBk66jBgDrfQHwGW8AH0rHBp9vfQIUIV8BK
DaDBP8LMQMtF/kCYxK/BttTnQOx3c0ChwsXBufbkQE4syEDDnMLBC1a7QAN9skArSqLBrm3dQDAX
/j+0vJfBPOriQEECcUDGCZnBX3NdQF+BCECsOa/Bf1GFQHWXMT+gtbXBT8KoQNd8Dr9BRJ/BtDiU
QHWHTz/4fJfB8g7yQAyXoD+qs6nBoKi2QMsSQL8iZ7TBiLXrQHIG9775gLnBe/gFQT+Svb/t+6rB
tkjlQCLCVL/gtKHB8D1kQJuYcUCe2KTBjgc5QJ5iWUA4WIjB3+0GQABYakCdhZTBXU/eQEjZh0Da
2b3BZ2XbQNEYtEAm7bvB9p7BQGQEpkBe6qnBzxvEQGf9ckDuyKvBWR7TQCCoVEAA0bXBbfHMQK4Z
w0D29bHBrG6FQMjQVUBkqJXBgh/NQA+5P0CO1ZjBJ/iGQIWNWj+GL6zBNDOpQPBeiT5EkZ7B90TZ
QEs9iz8gEq/BJL6zQPz0NUB8OaPB5i+zQCADrz8mcKfBHgfbQOytvb42grPBsboDQShrgL8c9rHB
2EgIQbZ8tb84NqbBkLqIQB65UEAoEqDBzl89QPAtY0DqkJDBpmzWQL4V/T8oKrjBJcmsQGddS0C8
xpDBgDKDQCAifb0exaPB19kHQehluL5SXp/B8a7zQAqQFsAI7qLBliccQUKT+r9AzaXB9BzGQEvD
/kD6iK/BGzPpQFTleEAhisXBYETkQLONykClG8LBney2QC+zsUCHPKLB/i3gQNX3BUDgNpfBUWfi
QLq2d0BuOZnBcVFbQEgYzz8XWKzBG6qJQOlWxj6NILTBcKfAQOEUDb8pRZ7B26ekQG7oLT/8e5bB
iCf3QKf1oz9rr6rBhCTDQEone79xRq/BB3fTQB4xtL4TGrzBJ88EQUgK878gC7fBve4PQRJ+jL4L
dLTB1vdhQGFyXUBTMaXBR+E6QBwKZkCElIjB/90HQDH6aUBO35TB

>  <OMEGA_E>  (109) 
0HBnPxhJbz8=

>  <OMEGA_NBR>  (109) 
      8623

$$$$
288415
     RDKit          3D

 51 55  0  0  1  0  0  0  0  0999 V2000
    5.7999   -5.3757  -18.2366 C   0  0  0  0  0  0  0  0  0  0  0  0
    6.3770   -6.4203  -18.0266 C   0  0  0  0  0  0  0  0  0  0  0  0
    5.9869   -1.3301  -21.6969 C   0  0  0  0  0  0  0  0  0  0  0  0
    6.4516   -0.3358  -22.5744 C   0  0  0  0  0  0  0  0  0  0  0  0
    5.6109   -3.2195  -19.3812 C   0  0  0  0  0  0  0  0  0  0  0  0
    5.3156    0.3898  -20.1084 C   0  0  0  0  0  0  0  0  0  0  0  0
    3.9716   -3.8381  -17.6943 C   0  0  0  0  0  0  0  0  0  0  0  0
    3.7949   -1.7439  -18.7197 C   0  0  0  0  0  0  0  0  0  0  0  0
    5.1215   -4.1453  -18.4493 C   0  0  0  0  0  0  0  0  0  0  0  0
    5.4237   -0.9685  -20.4547 C   0  0  0  0  0  0  0  0  0  0  0  0
    4.9387   -1.9920  -19.5167 C   0  0  0  0  0  0  0  0  0  0  0  0
    5.7848    1.3949  -20.9761 C   0  0  0  0  0  0  0  0  0  0  0  0
    6.3913    1.0228  -22.2097 C   0  0  0  0  0  0  0  0  0  0  0  0
    4.2733    3.3240  -18.8030 C   0  0  0  0  0  0  0  0  0  0  0  0
    6.5162    3.0609  -19.2473 C   0  0  0  0  0  0  0  0  0  0  0  0
    7.3842    3.1906  -22.4483 C   0  0  0  0  0  0  0  0  0  0  0  0
    5.0746    4.2438  -22.7181 C   0  0  0  0  0  0  0  0  0  0  0  0
    6.2788    5.3220  -21.3908 C   0  0  0  0  0  0  0  0  0  0  0  0
    5.7111    2.8571  -20.5312 C   0  0  1  0  0  0  0  0  0  0  0  0
    6.1893    3.7761  -21.6983 C   0  0  0  0  0  0  0  0  0  0  0  0
    8.8279   -8.5963  -16.3758 C   0  0  0  0  0  0  0  0  0  0  0  0
    7.0724   -7.6669  -17.7479 C   0  0  0  0  0  0  0  0  0  0  0  0
    3.3300   -2.6576  -17.8391 N   0  0  0  0  0  0  0  0  0  0  0  0
    4.3454    3.2088  -20.1101 N   0  0  0  0  0  0  0  0  0  0  0  0
    3.0858    3.5081  -18.1119 N   0  0  0  0  0  0  0  0  0  0  0  0
    6.9688    1.9482  -23.0647 O   0  0  0  0  0  0  0  0  0  0  0  0
    5.5212    3.2108  -18.2216 O   0  0  0  0  0  0  0  0  0  0  0  0
    5.2555    5.5662  -22.3086 O   0  0  0  0  0  0  0  0  0  0  0  0
    8.0840   -7.4207  -16.7516 O   0  0  0  0  0  0  0  0  0  0  0  0
    6.0608   -2.3714  -21.9734 H   0  0  0  0  0  0  0  0  0  0  0  0
    6.8578   -0.6157  -23.5352 H   0  0  0  0  0  0  0  0  0  0  0  0
    6.4817   -3.4432  -19.9795 H   0  0  0  0  0  0  0  0  0  0  0  0
    4.8673    0.6658  -19.1654 H   0  0  0  0  0  0  0  0  0  0  0  0
    3.5956   -4.5610  -16.9855 H   0  0  0  0  0  0  0  0  0  0  0  0
    3.2803   -0.7995  -18.8181 H   0  0  0  0  0  0  0  0  0  0  0  0
    7.1548    2.1883  -19.0456 H   0  0  0  0  0  0  0  0  0  0  0  0
    7.1407    3.9637  -19.3187 H   0  0  0  0  0  0  0  0  0  0  0  0
    7.7196    3.8962  -23.2226 H   0  0  0  0  0  0  0  0  0  0  0  0
    8.2079    2.9996  -21.7447 H   0  0  0  0  0  0  0  0  0  0  0  0
    5.3263    4.0618  -23.7733 H   0  0  0  0  0  0  0  0  0  0  0  0
    4.0735    3.8407  -22.5052 H   0  0  0  0  0  0  0  0  0  0  0  0
    6.0249    5.5887  -20.3543 H   0  0  0  0  0  0  0  0  0  0  0  0
    7.2424    5.7782  -21.6613 H   0  0  0  0  0  0  0  0  0  0  0  0
    9.5769   -8.3294  -15.6157 H   0  0  0  0  0  0  0  0  0  0  0  0
    8.1399   -9.3493  -15.9638 H   0  0  0  0  0  0  0  0  0  0  0  0
    9.3346   -9.0080  -17.2611 H   0  0  0  0  0  0  0  0  0  0  0  0
    6.3572   -8.4134  -17.3723 H   0  0  0  0  0  0  0  0  0  0  0  0
    7.5436   -8.0413  -18.6687 H   0  0  0  0  0  0  0  0  0  0  0  0
    3.5759    3.3421  -20.7346 H   0  0  0  0  0  0  0  0  0  0  0  0
    3.0924    3.5687  -17.1138 H   0  0  0  0  0  0  0  0  0  0  0  0
    2.2226    3.5804  -18.6116 H   0  0  0  0  0  0  0  0  0  0  0  0
  1  2  3  0
  1  9  1  0
  2 22  1  0
  3  4  2  0
  3 10  1  0
  4 13  1  0
  5  9  2  0
  5 11  1  0
  6 10  2  0
  6 12  1  0
  7  9  1  0
  7 23  2  0
  8 11  2  0
  8 23  1  0
 10 11  1  0
 12 13  2  0
 12 19  1  0
 13 26  1  0
 14 24  2  0
 14 25  1  0
 14 27  1  0
 19 15  1  1
 15 27  1  0
 16 20  1  0
 16 26  1  0
 17 20  1  0
 17 28  1  0
 18 20  1  0
 18 28  1  0
 19 20  1  0
 19 24  1  0
 21 29  1  0
 22 29  1  0
  3 30  1  0
  4 31  1  0
  5 32  1  0
  6 33  1  0
  7 34  1  0
  8 35  1  0
 15 36  1  0
 15 37  1  0
 16 38  1  0
 16 39  1  0
 17 40  1  0
 17 41  1  0
 18 42  1  0
 18 43  1  0
 21 44  1  0
 21 45  1  0
 21 46  1  0
 22 47  1  0
 22 48  1  0
 24 49  1  0
 25 50  1  0
 25 51  1  0
M  CHG  1  24   1
M  END
>  <OMEGA_C>  (110) 
mpi5QKkFrMCL5JHBSRDMQHRzzcBoNpDBjJS/QBY/qr9Kk63BkHPOQEHzq75nmLTBzIyzQLwLTsCp
DJvBoxmqQLmSxz4M3qDBYC9+QI+jdcDwjY3BRN9yQAQ537/ewZXBoOOjQO+lhMAsmJPB6Y6tQGru
d79Eo6PB5QmeQDj4/r85IpzBbR25QICNsj8ez6fBt4XMQJHrgj9krbHBCL+IQAC8VEB1bJbB34TQ
QIfmQ0CQ+pnBQUvsQAQyTEAYlrPBxGKiQAvNh0CTvrXBq+vIQJZNqkBfIKvBrsG2QHraNkD3P6TB
3w7GQGiscUAJlq3B9T4NQW6KCcGNAYPBDVHiQOpW9cDK+43BIB9VQIUVKsBvto7B1w2LQElcTUBx
4aDBRn5FQFKFYEBB5ZDBWADfQKZf+T9zhLjB2q2wQM59TUDcxZHBZC2oQBweskAFeLLB+1cBQVV2
7cAwA4bBCvLBQMHFF8B+ya/BI3PbQJ6eHb8QSLzBdWrPQAZeXMAT1p/B78CbQNxwKj/OUpnB/B1m
QBf0kcBn4ofBoPBRQImsTL+Bi5bBUfTkQCwNDEB9XZjBzYDkQLGsfUC1jJrBpQb3QPNaeUD3x7nB
fFMDQXD5P0Ab9a3BOHGqQKb6gUCxL77BzVmCQJfNdUCcCrTBz8vAQMXWskCR1aLBIcLnQCTnuEBU
Sq3BIDsZQWVFBcHl2XnB6DwCQZaWFcHLa3/BbloVQaQgEMGqForB7G3LQE6dBsFv+orB12TxQDup
AMF9WZXBVttkQOXkVUBv4KXBuulFQJplZEAP6YjBdj8OQLolZUCH5JTB

>  <OMEGA_E>  (110) 
8p0sPw==

>  <OMEGA_NBR>  (110) 
      9771

$$$$
288427
     RDKit          3D

 42 46  0  0  1  0  0  0  0  0999 V2000
    5.9279   -1.3249  -21.7895 C   0  0  0  0  0  0  0  0  0  0  0  0
    6.3776   -0.3061  -22.6431 C   0  0  0  0  0  0  0  0  0  0  0  0
    5.3440    0.3362  -20.1067 C   0  0  0  0  0  0  0  0  0  0  0  0
    3.9144   -1.9430  -18.7524 C   0  0  0  0  0  0  0  0  0  0  0  0
    4.3369   -4.1470  -17.8286 C   0  0  0  0  0  0  0  0  0  0  0  0
    5.4524   -1.0172  -20.4964 C   0  0  0  0  0  0  0  0  0  0  0  0
    5.0578   -2.0997  -19.5617 C   0  0  0  0  0  0  0  0  0  0  0  0
    5.7838    1.3715  -20.9660 C   0  0  0  0  0  0  0  0  0  0  0  0
    6.3640    1.0343  -22.2220 C   0  0  0  0  0  0  0  0  0  0  0  0
    3.5484   -2.9818  -17.8845 C   0  0  0  0  0  0  0  0  0  0  0  0
    5.8116   -3.3030  -19.4488 C   0  0  0  0  0  0  0  0  0  0  0  0
    4.2590    3.3573  -18.7973 C   0  0  0  0  0  0  0  0  0  0  0  0
    6.4978    3.0375  -19.2225 C   0  0  0  0  0  0  0  0  0  0  0  0
    7.3764    3.2011  -22.4083 C   0  0  0  0  0  0  0  0  0  0  0  0
    5.0611    4.2292  -22.6921 C   0  0  0  0  0  0  0  0  0  0  0  0
    6.2380    5.3164  -21.3480 C   0  0  0  0  0  0  0  0  0  0  0  0
    5.6976    2.8317  -20.5078 C   0  0  1  0  0  0  0  0  0  0  0  0
    6.1729    3.7705  -21.6640 C   0  0  0  0  0  0  0  0  0  0  0  0
    5.4418   -4.2885  -18.5962 N   0  0  0  0  0  0  0  0  0  0  0  0
    4.3275    3.1678  -20.0951 N   0  0  0  0  0  0  0  0  0  0  0  0
    3.0800    3.6207  -18.1186 N   0  0  0  0  0  0  0  0  0  0  0  0
    6.9561    1.9748  -23.0524 O   0  0  0  0  0  0  0  0  0  0  0  0
    5.5024    3.2443  -18.2089 O   0  0  0  0  0  0  0  0  0  0  0  0
    5.2115    5.5496  -22.2660 O   0  0  0  0  0  0  0  0  0  0  0  0
    6.9546   -3.4778  -20.1543 F   0  0  0  0  0  0  0  0  0  0  0  0
    2.1191   -2.8381  -16.8944 Cl  0  0  0  0  0  0  0  0  0  0  0  0
    5.9458   -2.3516  -22.1241 H   0  0  0  0  0  0  0  0  0  0  0  0
    6.7367   -0.5540  -23.6310 H   0  0  0  0  0  0  0  0  0  0  0  0
    4.9215    0.5835  -19.1440 H   0  0  0  0  0  0  0  0  0  0  0  0
    3.3291   -1.0366  -18.8000 H   0  0  0  0  0  0  0  0  0  0  0  0
    4.0534   -4.9451  -17.1584 H   0  0  0  0  0  0  0  0  0  0  0  0
    7.1048    2.1486  -18.9959 H   0  0  0  0  0  0  0  0  0  0  0  0
    7.1531    3.9167  -19.3091 H   0  0  0  0  0  0  0  0  0  0  0  0
    7.7244    3.9208  -23.1638 H   0  0  0  0  0  0  0  0  0  0  0  0
    8.1906    2.9916  -21.6990 H   0  0  0  0  0  0  0  0  0  0  0  0
    5.3287    4.0643  -23.7462 H   0  0  0  0  0  0  0  0  0  0  0  0
    4.0654    3.8047  -22.4959 H   0  0  0  0  0  0  0  0  0  0  0  0
    5.9789    5.5735  -20.3103 H   0  0  0  0  0  0  0  0  0  0  0  0
    7.1947    5.7890  -21.6149 H   0  0  0  0  0  0  0  0  0  0  0  0
    3.5503    3.2424  -20.7199 H   0  0  0  0  0  0  0  0  0  0  0  0
    3.0912    3.7445  -17.1263 H   0  0  0  0  0  0  0  0  0  0  0  0
    2.2179    3.6871  -18.6210 H   0  0  0  0  0  0  0  0  0  0  0  0
  1  2  2  0
  1  6  1  0
  2  9  1  0
  3  6  2  0
  3  8  1  0
  4  7  2  0
  4 10  1  0
  5 10  2  0
  5 19  1  0
  6  7  1  0
  7 11  1  0
  8  9  2  0
  8 17  1  0
  9 22  1  0
 10 26  1  0
 11 19  2  0
 11 25  1  0
 12 20  2  0
 12 21  1  0
 12 23  1  0
 17 13  1  1
 13 23  1  0
 14 18  1  0
 14 22  1  0
 15 18  1  0
 15 24  1  0
 16 18  1  0
 16 24  1  0
 17 18  1  0
 17 20  1  0
  1 27  1  0
  2 28  1  0
  3 29  1  0
  4 30  1  0
  5 31  1  0
 13 32  1  0
 13 33  1  0
 14 34  1  0
 14 35  1  0
 15 36  1  0
 15 37  1  0
 16 38  1  0
 16 39  1  0
 20 40  1  0
 21 41  1  0
 21 42  1  0
M  CHG  1  20   1
M  END
>  <OMEGA_C>  (111) 
w7G9QKaVqb/4UK7BFRXMQCq1nL4YJbXBzwGrQBonrD6C2qDB9oR6QDiz+L/iBJbBmseKQKG0hMD+
oI7BrXmuQAAygr+b+KPBotmhQNxhBsBFfpzBJxW5QKqMrz9iuqfBmaXLQMBihD+qxrHBmRljQEvW
PsCOE4/B3Pi5QLtjU8AVl5vBVUmIQFDdVkD2YJbBqO3PQCtmQkDHx5nBmQvsQD3eTEAmRLPBLvSh
QNVVh0BuibXBoZ3HQMMfqkCgyKrBeFK2QE46NUD6D6TBLYjFQJZPcUDtT63B2yKuQL47icD+xJTB
FHuKQHu9SkDLwqDBhB5FQD26Z0Dc8pDBdZjeQNrF/D9Ta7jBqROwQN+iT0DLq5HBs8SmQJqWsUDC
ILLBeYzeQOCUXsAXPKHBFKAHQAijNcDCJ4fBJES+QJuAFsAj/rDBTZPXQETRDb9RDL3B8XydQINe
FT/lJpnBOg9VQKWuhL9wZpbBZ7WBQEI+nsBwRInBJVrjQC+CCUCD95fBlObkQNaqekAMeZrBqi73
QGnuekCDT7nB5wwDQbB1P0B4l63BuYSqQMUOgkBE+L3B4xeCQOmAc0CG97PBbFO/QDZaskB3e6LB
HDvmQM4/uUBf66zBczhjQIODT0BpwqXB/9ZFQF6mb0C+AonBJ/INQIH5a0DI95TB

>  <OMEGA_E>  (111) 
jHvFPg==

>  <OMEGA_NBR>  (111) 
     20708

$$$$
288429
     RDKit          3D

 41 45  0  0  1  0  0  0  0  0999 V2000
    5.9610   -1.3365  -21.7350 C   0  0  0  0  0  0  0  0  0  0  0  0
    6.4097   -0.3278  -22.6011 C   0  0  0  0  0  0  0  0  0  0  0  0
    5.3119    0.3490  -20.0990 C   0  0  0  0  0  0  0  0  0  0  0  0
    5.7849   -3.2957  -19.4908 C   0  0  0  0  0  0  0  0  0  0  0  0
    3.9701   -1.9415  -18.6428 C   0  0  0  0  0  0  0  0  0  0  0  0
    4.3537   -4.1012  -17.8313 C   0  0  0  0  0  0  0  0  0  0  0  0
    5.4397   -1.0082  -20.4653 C   0  0  0  0  0  0  0  0  0  0  0  0
    5.0616   -2.0842  -19.5244 C   0  0  0  0  0  0  0  0  0  0  0  0
    5.7706    1.3731  -20.9627 C   0  0  0  0  0  0  0  0  0  0  0  0
    6.3731    1.0201  -22.2046 C   0  0  0  0  0  0  0  0  0  0  0  0
    4.2620    3.3587  -18.8010 C   0  0  0  0  0  0  0  0  0  0  0  0
    6.5001    3.0465  -19.2337 C   0  0  0  0  0  0  0  0  0  0  0  0
    7.3827    3.1880  -22.4109 C   0  0  0  0  0  0  0  0  0  0  0  0
    5.0676    4.2129  -22.7149 C   0  0  0  0  0  0  0  0  0  0  0  0
    6.2381    5.3125  -21.3748 C   0  0  0  0  0  0  0  0  0  0  0  0
    5.6950    2.8373  -20.5155 C   0  0  1  0  0  0  0  0  0  0  0  0
    6.1750    3.7639  -21.6784 C   0  0  0  0  0  0  0  0  0  0  0  0
    5.4248   -4.2809  -18.6426 N   0  0  0  0  0  0  0  0  0  0  0  0
    3.6279   -2.9550  -17.8178 N   0  0  0  0  0  0  0  0  0  0  0  0
    4.3293    3.1875  -20.1016 N   0  0  0  0  0  0  0  0  0  0  0  0
    3.0805    3.5926  -18.1158 N   0  0  0  0  0  0  0  0  0  0  0  0
    6.9707    1.9516  -23.0417 O   0  0  0  0  0  0  0  0  0  0  0  0
    5.5084    3.2537  -18.2168 O   0  0  0  0  0  0  0  0  0  0  0  0
    5.2170    5.5375  -22.3009 O   0  0  0  0  0  0  0  0  0  0  0  0
    6.0149   -2.3706  -22.0419 H   0  0  0  0  0  0  0  0  0  0  0  0
    6.7858   -0.5890  -23.5792 H   0  0  0  0  0  0  0  0  0  0  0  0
    4.8607    0.6083  -19.1527 H   0  0  0  0  0  0  0  0  0  0  0  0
    6.6310   -3.4347  -20.1475 H   0  0  0  0  0  0  0  0  0  0  0  0
    3.4068   -1.0201  -18.6273 H   0  0  0  0  0  0  0  0  0  0  0  0
    4.0663   -4.9037  -17.1682 H   0  0  0  0  0  0  0  0  0  0  0  0
    7.1092    2.1588  -19.0078 H   0  0  0  0  0  0  0  0  0  0  0  0
    7.1540    3.9264  -19.3244 H   0  0  0  0  0  0  0  0  0  0  0  0
    7.7314    3.8992  -23.1742 H   0  0  0  0  0  0  0  0  0  0  0  0
    8.1947    2.9904  -21.6956 H   0  0  0  0  0  0  0  0  0  0  0  0
    5.3393    4.0376  -23.7663 H   0  0  0  0  0  0  0  0  0  0  0  0
    4.0711    3.7906  -22.5184 H   0  0  0  0  0  0  0  0  0  0  0  0
    5.9729    5.5783  -20.3409 H   0  0  0  0  0  0  0  0  0  0  0  0
    7.1963    5.7831  -21.6400 H   0  0  0  0  0  0  0  0  0  0  0  0
    3.5545    3.2827  -20.7265 H   0  0  0  0  0  0  0  0  0  0  0  0
    3.0917    3.6989  -17.1216 H   0  0  0  0  0  0  0  0  0  0  0  0
    2.2166    3.6550  -18.6157 H   0  0  0  0  0  0  0  0  0  0  0  0
  1  2  2  0
  1  7  1  0
  2 10  1  0
  3  7  2  0
  3  9  1  0
  4  8  2  0
  4 18  1  0
  5  8  1  0
  5 19  2  0
  6 18  2  0
  6 19  1  0
  7  8  1  0
  9 10  2  0
  9 16  1  0
 10 22  1  0
 11 20  2  0
 11 21  1  0
 11 23  1  0
 16 12  1  1
 12 23  1  0
 13 17  1  0
 13 22  1  0
 14 17  1  0
 14 24  1  0
 15 17  1  0
 15 24  1  0
 16 17  1  0
 16 20  1  0
  1 25  1  0
  2 26  1  0
  3 27  1  0
  4 28  1  0
  5 29  1  0
  6 30  1  0
 12 31  1  0
 12 32  1  0
 13 33  1  0
 13 34  1  0
 14 35  1  0
 14 36  1  0
 15 37  1  0
 15 38  1  0
 20 39  1  0
 21 40  1  0
 21 41  1  0
M  CHG  1  20   1
M  END
>  <OMEGA_C>  (112) 
ZcC+QMATq78x4a3BVxzNQBjXp74Az7TB//qpQD6usj7HyqDB1B25QJ7sUsAi7ZvB5hZ+QA6C+L9+
JJXBf1GLQCg9g8B5po7B8BGuQFMOgb/XuKPB7fihQA9kBcD5MZzBHKm4QAnDrz+Es6fBIfDLQAGS
gj/vorHBhGKIQHr0VkByaJbB6wDQQIP5QkCi3pnBXj/sQNQHTECHSbPB0ymiQNLPhkAnuLXB3p7H
QOL/qUCL/6rBTj22QFCWNUDGH6TBe5nFQCLkcEBgba3Bt5etQD79iMAfJJXBwS5oQA4ePcDNio7B
gomKQEP/S0D6z6DBdyZFQMXsZUA97ZDB2Q/fQPrN+T9mVbjBF0WwQNA8UED9u5HBgfGmQIIzsUBK
aLLB/3nAQMm3F8DdVbDBriXZQAXJFr8rorzBsYqbQHW8Gz+xOJnBBDHUQJ7RW8D9LaHByglaQOKT
gr+cBJXBuR6CQGzrnMBmWInBjX7jQLcpCkD7D5jBLu3kQD9Ke0BQmJrBimf3QKaMeUC3ZLnBsh0D
QU1jP0CokK3BMtuqQGM0gUB6Ib7BFkaCQNyZckC6JbTB9SG/QESBskARuqLBa0jmQEgPuUDOHq3B
sHxjQJoXUkD2z6XBId5FQCW7bED7+IjBxdwNQPTraUDg7JTB

>  <OMEGA_E>  (112) 
YHLkPg==

>  <OMEGA_NBR>  (112) 
     21696

$$$$
288449
     RDKit          3D

 47 51  0  0  1  0  0  0  0  0999 V2000
    6.0703   -1.2984  -21.6472 C   0  0  0  0  0  0  0  0  0  0  0  0
    6.4147   -0.2560  -22.5167 C   0  0  0  0  0  0  0  0  0  0  0  0
    5.2509    0.3258  -20.0255 C   0  0  0  0  0  0  0  0  0  0  0  0
    3.9264   -2.0767  -18.7733 C   0  0  0  0  0  0  0  0  0  0  0  0
    5.9386   -3.2800  -19.4135 C   0  0  0  0  0  0  0  0  0  0  0  0
    4.4157   -4.3174  -17.9696 C   0  0  0  0  0  0  0  0  0  0  0  0
    5.4968   -1.0138  -20.3938 C   0  0  0  0  0  0  0  0  0  0  0  0
    5.1290   -2.1216  -19.4979 C   0  0  0  0  0  0  0  0  0  0  0  0
    5.6169    1.3926  -20.8859 C   0  0  0  0  0  0  0  0  0  0  0  0
    3.5470   -3.2064  -18.0340 C   0  0  0  0  0  0  0  0  0  0  0  0
    6.2258    1.0840  -22.1372 C   0  0  0  0  0  0  0  0  0  0  0  0
    5.5960    2.9107  -18.1621 C   0  0  0  0  0  0  0  0  0  0  0  0
    5.0211    4.7477  -22.2737 C   0  0  0  0  0  0  0  0  0  0  0  0
    6.0221    5.3228  -21.2284 C   0  0  0  0  0  0  0  0  0  0  0  0
    4.0843    3.1652  -19.8471 C   0  0  0  0  0  0  0  0  0  0  0  0
    7.1172    3.2794  -22.3979 C   0  0  0  0  0  0  0  0  0  0  0  0
    5.4741    2.8570  -20.4199 C   0  0  2  0  0  0  0  0  0  0  0  0
    5.9892    3.8232  -21.5299 C   0  0  0  0  0  0  0  0  0  0  0  0
    2.4800   -2.8269  -15.8197 C   0  0  0  0  0  0  0  0  0  0  0  0
    2.2389   -3.2169  -17.2823 C   0  0  0  0  0  0  0  0  0  0  0  0
    5.5843   -4.3394  -18.6504 N   0  0  0  0  0  0  0  0  0  0  0  0
    6.3183    3.0688  -19.2486 N   0  0  0  0  0  0  0  0  0  0  0  0
    6.1420    2.6198  -16.9278 N   0  0  0  0  0  0  0  0  0  0  0  0
    6.6746    2.0564  -23.0123 O   0  0  0  0  0  0  0  0  0  0  0  0
    4.2440    2.9579  -18.4431 O   0  0  0  0  0  0  0  0  0  0  0  0
    6.2452   -2.3233  -21.9392 H   0  0  0  0  0  0  0  0  0  0  0  0
    6.8293   -0.4839  -23.4875 H   0  0  0  0  0  0  0  0  0  0  0  0
    4.7790    0.5413  -19.0783 H   0  0  0  0  0  0  0  0  0  0  0  0
    3.3076   -1.1916  -18.7853 H   0  0  0  0  0  0  0  0  0  0  0  0
    6.8620   -3.3189  -19.9723 H   0  0  0  0  0  0  0  0  0  0  0  0
    4.1412   -5.1681  -17.3636 H   0  0  0  0  0  0  0  0  0  0  0  0
    3.9450    4.7164  -22.0480 H   0  0  0  0  0  0  0  0  0  0  0  0
    5.1652    4.9505  -23.3452 H   0  0  0  0  0  0  0  0  0  0  0  0
    6.8751    5.9333  -21.5596 H   0  0  0  0  0  0  0  0  0  0  0  0
    5.6548    5.6992  -20.2623 H   0  0  0  0  0  0  0  0  0  0  0  0
    3.7939    4.2046  -20.0598 H   0  0  0  0  0  0  0  0  0  0  0  0
    3.3287    2.4813  -20.2612 H   0  0  0  0  0  0  0  0  0  0  0  0
    7.3730    4.0136  -23.1760 H   0  0  0  0  0  0  0  0  0  0  0  0
    8.0021    3.0820  -21.7749 H   0  0  0  0  0  0  0  0  0  0  0  0
    1.5244   -2.8357  -15.2749 H   0  0  0  0  0  0  0  0  0  0  0  0
    3.1719   -3.5466  -15.3577 H   0  0  0  0  0  0  0  0  0  0  0  0
    2.9173   -1.8185  -15.7765 H   0  0  0  0  0  0  0  0  0  0  0  0
    1.5465   -2.4971  -17.7432 H   0  0  0  0  0  0  0  0  0  0  0  0
    1.8011   -4.2252  -17.3244 H   0  0  0  0  0  0  0  0  0  0  0  0
    7.2915    3.2978  -19.2693 H   0  0  0  0  0  0  0  0  0  0  0  0
    5.5444    2.4220  -16.1507 H   0  0  0  0  0  0  0  0  0  0  0  0
    7.1351    2.6068  -16.8108 H   0  0  0  0  0  0  0  0  0  0  0  0
  1  2  2  0
  1  7  1  0
  2 11  1  0
  3  7  2  0
  3  9  1  0
  4  8  2  0
  4 10  1  0
  5  8  1  0
  5 21  2  0
  6 10  2  0
  6 21  1  0
  7  8  1  0
  9 11  2  0
  9 17  1  0
 10 20  1  0
 11 24  1  0
 12 22  2  0
 12 23  1  0
 12 25  1  0
 13 14  1  0
 13 18  1  0
 14 18  1  0
 17 15  1  1
 15 25  1  0
 16 18  1  0
 16 24  1  0
 17 18  1  0
 17 22  1  0
 19 20  1  0
  1 26  1  0
  2 27  1  0
  3 28  1  0
  4 29  1  0
  5 30  1  0
  6 31  1  0
 13 32  1  0
 13 33  1  0
 14 34  1  0
 14 35  1  0
 15 36  1  0
 15 37  1  0
 16 38  1  0
 16 39  1  0
 19 40  1  0
 19 41  1  0
 19 42  1  0
 20 43  1  0
 20 44  1  0
 22 45  1  0
 23 46  1  0
 23 47  1  0
M  CHG  1  22   1
M  END
>  <OMEGA_C>  (113) 
4j/CQK0wpr9qLa3BcEXNQEUSg74aIrTBpAeoQF3Ppj5KNKDBJkp7QF3oBMC1L5bBSAm+QFrrUcDt
TpvBKU2NQNInisDFwY/BouWvQHTDgb+aJqPBFSGkQKzHB8Cz+5vBQb2zQIRAsj87FqfBaAJjQPk1
TcCpRZDBkjnHQKfAij/oGLHBhRKzQABJOkD7S5HB2KygQGPtl0CUMLLBwrTAQBBUqkDa06nBjrKC
QBaSSkDfxp7BJsDjQJDhUUDYLrPB+iuvQKXYNkDnW6PB26e/QJ6udEAsPazBrrgeQPTrNMBOHX3B
WEkPQHDiTcAbQorBU7KyQF/cisACNJXBRi/KQMhmREAT/ZnBbovEQFaqJ0ASbIfBSpbVQOybA0BA
GbjBPM+HQPhNPUBni5PBANnHQC+xFMBvg6/BaInaQEe+97575rvBxO2YQJGUCj9boJjBVq9TQGmH
mL88SJbB3ZXbQPFoVMA9x5/BmoSEQG5hpcCy6IrBZXp8QMrslkA6YrDBaEmlQBhqnkAIw7rBtADc
QErdvUD/eazBfvS0QP1ftkAxGaLBe89yQDaMhkBleqDBFgpVQD/OHkAJF6LBY+/rQMhvgEBqaLnB
ZwgAQUJARUD8Mq7BtB/DP4B7NcAiZnTB5P9KQBr7YsASuXXBdLQ6QC/D6L+9bHzB4PPFP3HQH8Ah
8o3Bv4rmP/o0h8BMmIrBzVPpQHUOU0CTJ5rB72uxQGICG0C3NIHBhFLkQPLVJkCLfIbB5AfFQBTS
pr9emq3Bh5HPQJDIdb5ZdLTBNSOtQEy0lD5GMKDBzKe6QLS/VsCIU5zB6W2BQDqY+b90hpXBCZ+I
QDu0g8Acu47BeUqzQOC3hL8lc6PBDy6lQDsBCMDIXpzBkO+2QJlqrz+JAafB5QesQJuhi8BldJXB
DwnJQF0djD+SO7HBU2azQAhmM0AgMJHBMrWYQPJ6k0AcEbLBY6C3QIHAqUA6CKrBaryBQFxfP0Bu
bp7BiejfQIS3VkBSfbPBALOuQAwWNECSNKPBUU+7QIaZc0CBP6zBtlvtQHRjrcCJD47BE4XEQCr3
tMCYo5TBMslnQM6GO8AX547BBDXJQKTARkD825nB4pvGQCKiGkAfu4fB26HUQDAIBkD7ULjBkvSH
QEzHL0BrQ5PBNIDKQP6oFMCmGrDBJMzcQEQB5b4pQ7zB4aKgQIKf+j7pSpjBsuHVQCJ2YcAOeqHB
HyFhQFHwgL/dm5XBK797QB95nMB6VonB+phtQN8Dj0Bn/K/BrpabQHTCmUAYsrrB1mXQQGjTv0CE
+KzBppurQNMUtUDTQqLBJ35rQLhRgEAtz5/B0mtWQI7YEECw4aHBmkblQDJng0BdxrnB1EL9QDcZ
T0ALuq7BHnT/QHx5y8BHbY3BkpsAQRgQlcCDCZLBW6XkQOowosDUAYbByZiwQLNBzcCEq5DBkSrN
QOAgwMA0s5zBPPTmQL9NXkAdB5rBHsi0QCD3A0DRuIHBMFjmQMReH0CC5IbB

>  <OMEGA_E>  (113) 
qG8+P6BFYz8=

>  <OMEGA_NBR>  (113) 
     23592

$$$$
288461
     RDKit          3D

 44 48  0  0  1  0  0  0  0  0999 V2000
    6.0322   -1.3280  -21.7497 C   0  0  0  0  0  0  0  0  0  0  0  0
    6.3817   -0.2823  -22.6241 C   0  0  0  0  0  0  0  0  0  0  0  0
    5.5186    0.3031  -20.0190 C   0  0  0  0  0  0  0  0  0  0  0  0
    5.8577   -3.3432  -19.4990 C   0  0  0  0  0  0  0  0  0  0  0  0
    4.0919   -1.9370  -18.6308 C   0  0  0  0  0  0  0  0  0  0  0  0
    4.4442   -4.0884  -17.7927 C   0  0  0  0  0  0  0  0  0  0  0  0
    5.5768   -1.0360  -20.4464 C   0  0  0  0  0  0  0  0  0  0  0  0
    5.1694   -2.1144  -19.5253 C   0  0  0  0  0  0  0  0  0  0  0  0
    5.9017    1.3588  -20.8764 C   0  0  0  0  0  0  0  0  0  0  0  0
    6.2923    1.0616  -22.2066 C   0  0  0  0  0  0  0  0  0  0  0  0
    4.1923    3.3350  -18.7855 C   0  0  0  0  0  0  0  0  0  0  0  0
    6.4399    3.0036  -19.0103 C   0  0  0  0  0  0  0  0  0  0  0  0
    5.5869    5.3102  -21.1877 C   0  0  0  0  0  0  0  0  0  0  0  0
    7.5482    4.6189  -21.3051 C   0  0  0  0  0  0  0  0  0  0  0  0
    5.9060    3.3131  -22.9352 C   0  0  1  0  0  0  0  0  0  0  0  0
    5.7579    2.7987  -20.3819 C   0  0  1  0  0  0  0  0  0  0  0  0
    6.1636    3.8530  -21.4921 C   0  0  0  0  0  0  0  0  0  0  0  0
    6.3750    4.2405  -24.0835 C   0  0  0  0  0  0  0  0  0  0  0  0
    5.4902   -4.3074  -18.6287 N   0  0  0  0  0  0  0  0  0  0  0  0
    3.7416   -2.9284  -17.7847 N   0  0  0  0  0  0  0  0  0  0  0  0
    4.3399    2.9970  -20.0481 N   0  0  0  0  0  0  0  0  0  0  0  0
    2.9923    3.7221  -18.2176 N   0  0  0  0  0  0  0  0  0  0  0  0
    6.5846    2.0483  -23.1255 O   0  0  0  0  0  0  0  0  0  0  0  0
    5.3803    3.2647  -18.1001 O   0  0  0  0  0  0  0  0  0  0  0  0
    6.8633    5.7556  -20.8646 O   0  0  0  0  0  0  0  0  0  0  0  0
    6.1126   -2.3544  -22.0761 H   0  0  0  0  0  0  0  0  0  0  0  0
    6.7213   -0.5110  -23.6234 H   0  0  0  0  0  0  0  0  0  0  0  0
    5.1757    0.5277  -19.0198 H   0  0  0  0  0  0  0  0  0  0  0  0
    6.6810   -3.5143  -20.1766 H   0  0  0  0  0  0  0  0  0  0  0  0
    3.5461   -1.0051  -18.6235 H   0  0  0  0  0  0  0  0  0  0  0  0
    4.1591   -4.8707  -17.1048 H   0  0  0  0  0  0  0  0  0  0  0  0
    6.9884    2.0974  -18.7135 H   0  0  0  0  0  0  0  0  0  0  0  0
    7.1339    3.8562  -19.0486 H   0  0  0  0  0  0  0  0  0  0  0  0
    5.1465    5.8096  -22.0633 H   0  0  0  0  0  0  0  0  0  0  0  0
    4.8751    5.3442  -20.3497 H   0  0  0  0  0  0  0  0  0  0  0  0
    8.2094    4.1720  -20.5480 H   0  0  0  0  0  0  0  0  0  0  0  0
    8.1087    4.7670  -22.2399 H   0  0  0  0  0  0  0  0  0  0  0  0
    4.8222    3.1609  -23.0464 H   0  0  0  0  0  0  0  0  0  0  0  0
    6.1483    3.7698  -25.0515 H   0  0  0  0  0  0  0  0  0  0  0  0
    5.8506    5.2049  -24.0132 H   0  0  0  0  0  0  0  0  0  0  0  0
    7.4594    4.4059  -24.0014 H   0  0  0  0  0  0  0  0  0  0  0  0
    3.5862    2.8891  -20.6963 H   0  0  0  0  0  0  0  0  0  0  0  0
    2.9547    3.9723  -17.2502 H   0  0  0  0  0  0  0  0  0  0  0  0
    2.1622    3.7518  -18.7744 H   0  0  0  0  0  0  0  0  0  0  0  0
  1  2  2  0
  1  7  1  0
  2 10  1  0
  3  7  2  0
  3  9  1  0
  4  8  2  0
  4 19  1  0
  5  8  1  0
  5 20  2  0
  6 19  2  0
  6 20  1  0
  7  8  1  0
  9 10  2  0
  9 16  1  0
 10 23  1  0
 11 21  2  0
 11 22  1  0
 11 24  1  0
 16 12  1  1
 12 24  1  0
 13 17  1  0
 13 25  1  0
 14 17  1  0
 14 25  1  0
 15 17  1  0
 15 18  1  0
 15 23  1  0
 16 17  1  0
 16 21  1  0
  1 26  1  0
  2 27  1  0
  3 28  1  0
  4 29  1  0
  5 30  1  0
  6 31  1  0
 12 32  1  0
 12 33  1  0
 13 34  1  0
 13 35  1  0
 14 36  1  0
 14 37  1  0
 15 38  1  6
 18 39  1  0
 18 40  1  0
 18 41  1  0
 21 42  1  0
 22 43  1  0
 22 44  1  0
M  CHG  1  21   1
M  END
>  <OMEGA_C>  (114) 
LgjBQJf8qb9W/63BFjfMQByNkL4W/rTBGpiwQHgvmz7cJqDB5nG7QHb3VcD+/ZvBffCCQF/w97/s
C5XBwzaOQFzUgsByV47BD3WyQOmbhL80kqPBh2ulQIRRB8DMM5zBY9q8QAztrT/0AqfBplrJQLjh
hz8ip7HBOyeGQBZxVUC6SJbBuxPOQJ46QEAqFZjBmseyQGntqUBogKnBBYvxQLXNk0DkcKrByP28
QMAJVEBCe7fBVEC4QIIdM0AmDqPBGTzFQPCXdkDQ76vB3//LQEeyh0Aaq8DBbK+vQA7WicB6B5XB
FnZvQBBrO8AmR47B2uCKQITPP0CaYqDBHYI/QJw2bkCsvZHBL7XSQEoXA0AaAbnBDiusQC7wUEDo
zJDBAaDbQA0uuECy6qbBtZrDQLOtFsDzm7DBJRXXQDjTAr/R/LzBJZ+lQIYWBz+DKJjBFMvVQFXq
YMDCaaHBsfJiQI6ngL/0/JTBnheFQIfcm8CV1ojB3qDfQHo8BkBTtZXBnkjkQOzLdkCVY5jB/a+k
QCvouUCrgbDBzgCcQOkDq0AyzKLBn1kDQe6AhUBjYqTBab0BQUyLmEBh67HB20+aQOZLSkDtXrjB
nL7EQABEcUCMacjBMTi7QLWOpkAKG8DBMLPuQEX9jEDyAsDBmYNlQGPnOEAakqXBnhk9QGY6fkBT
AIrBRGEKQK4ccED1MZbB

>  <OMEGA_E>  (114) 
CM3aPg==

>  <OMEGA_NBR>  (114) 
     24636

$$$$
288463
     RDKit          3D

 44 48  0  0  1  0  0  0  0  0999 V2000
    6.1765   -1.3508  -21.7331 C   0  0  0  0  0  0  0  0  0  0  0  0
    6.5689   -0.3050  -22.5885 C   0  0  0  0  0  0  0  0  0  0  0  0
    5.4140    0.2797  -20.0981 C   0  0  0  0  0  0  0  0  0  0  0  0
    5.8714   -3.3338  -19.4678 C   0  0  0  0  0  0  0  0  0  0  0  0
    3.9742   -1.9884  -18.8033 C   0  0  0  0  0  0  0  0  0  0  0  0
    4.3237   -4.1115  -17.8979 C   0  0  0  0  0  0  0  0  0  0  0  0
    5.5853   -1.0591  -20.4856 C   0  0  0  0  0  0  0  0  0  0  0  0
    5.1408   -2.1355  -19.5839 C   0  0  0  0  0  0  0  0  0  0  0  0
    5.8249    1.3346  -20.9384 C   0  0  0  0  0  0  0  0  0  0  0  0
    6.4092    1.0391  -22.1972 C   0  0  0  0  0  0  0  0  0  0  0  0
    4.2355    3.4189  -18.7614 C   0  0  0  0  0  0  0  0  0  0  0  0
    6.4618    3.0135  -19.1898 C   0  0  0  0  0  0  0  0  0  0  0  0
    6.0397    5.3027  -21.1475 C   0  0  0  0  0  0  0  0  0  0  0  0
    4.6880    4.3286  -22.4143 C   0  0  0  0  0  0  0  0  0  0  0  0
    7.1159    3.3158  -22.5177 C   0  0  2  0  0  0  0  0  0  0  0  0
    5.6339    2.7636  -20.4545 C   0  0  1  0  0  0  0  0  0  0  0  0
    5.9458    3.7860  -21.6058 C   0  0  0  0  0  0  0  0  0  0  0  0
    7.4340    4.2575  -23.7116 C   0  0  0  0  0  0  0  0  0  0  0  0
    5.4560   -4.2998  -18.6217 N   0  0  0  0  0  0  0  0  0  0  0  0
    3.5796   -2.9808  -17.9797 N   0  0  0  0  0  0  0  0  0  0  0  0
    4.2592    2.9248  -19.9730 N   0  0  0  0  0  0  0  0  0  0  0  0
    3.0622    3.8232  -18.1475 N   0  0  0  0  0  0  0  0  0  0  0  0
    6.8104    2.0206  -23.0833 O   0  0  0  0  0  0  0  0  0  0  0  0
    5.5056    3.4787  -18.2205 O   0  0  0  0  0  0  0  0  0  0  0  0
    4.9672    5.6274  -21.9776 O   0  0  0  0  0  0  0  0  0  0  0  0
    6.3279   -2.3777  -22.0316 H   0  0  0  0  0  0  0  0  0  0  0  0
    6.9963   -0.5344  -23.5534 H   0  0  0  0  0  0  0  0  0  0  0  0
    4.9615    0.5043  -19.1435 H   0  0  0  0  0  0  0  0  0  0  0  0
    6.7651   -3.4799  -20.0564 H   0  0  0  0  0  0  0  0  0  0  0  0
    3.3957   -1.0785  -18.8658 H   0  0  0  0  0  0  0  0  0  0  0  0
    4.0016   -4.8953  -17.2283 H   0  0  0  0  0  0  0  0  0  0  0  0
    6.9409    2.0840  -18.8486 H   0  0  0  0  0  0  0  0  0  0  0  0
    7.2321    3.7770  -19.3737 H   0  0  0  0  0  0  0  0  0  0  0  0
    5.8413    5.4603  -20.0770 H   0  0  0  0  0  0  0  0  0  0  0  0
    6.9838    5.7960  -21.4219 H   0  0  0  0  0  0  0  0  0  0  0  0
    4.7629    4.1953  -23.5036 H   0  0  0  0  0  0  0  0  0  0  0  0
    3.7235    3.9340  -22.0621 H   0  0  0  0  0  0  0  0  0  0  0  0
    8.0201    3.2383  -21.8960 H   0  0  0  0  0  0  0  0  0  0  0  0
    8.2702    3.8429  -24.2937 H   0  0  0  0  0  0  0  0  0  0  0  0
    6.5468    4.3450  -24.3559 H   0  0  0  0  0  0  0  0  0  0  0  0
    7.7101    5.2519  -23.3307 H   0  0  0  0  0  0  0  0  0  0  0  0
    3.4443    2.6878  -20.5021 H   0  0  0  0  0  0  0  0  0  0  0  0
    3.0868    4.2019  -17.2223 H   0  0  0  0  0  0  0  0  0  0  0  0
    2.1903    3.7366  -18.6293 H   0  0  0  0  0  0  0  0  0  0  0  0
  1  2  2  0
  1  7  1  0
  2 10  1  0
  3  7  2  0
  3  9  1  0
  4  8  2  0
  4 19  1  0
  5  8  1  0
  5 20  2  0
  6 19  2  0
  6 20  1  0
  7  8  1  0
  9 10  2  0
  9 16  1  0
 10 23  1  0
 11 21  2  0
 11 22  1  0
 11 24  1  0
 16 12  1  1
 12 24  1  0
 13 17  1  0
 13 25  1  0
 14 17  1  0
 14 25  1  0
 15 17  1  0
 15 18  1  0
 15 23  1  0
 16 17  1  0
 16 21  1  0
  1 26  1  0
  2 27  1  0
  3 28  1  0
  4 29  1  0
  5 30  1  0
  6 31  1  0
 12 32  1  0
 12 33  1  0
 13 34  1  0
 13 35  1  0
 14 36  1  0
 14 37  1  0
 15 38  1  1
 18 39  1  0
 18 40  1  0
 18 41  1  0
 21 42  1  0
 22 43  1  0
 22 44  1  0
M  CHG  1  21   1
M  END
>  <OMEGA_C>  (115) 
EabFQAzorL9w3a3BuDTSQEolnL4xtbTBlj+tQM4xjz7SyKDBzuK7QOxcVcAOvpvBvFh+QOyD/r85
bZbB9luKQFiRg8DbLo/Bf7qyQMKRh7974qPBRYGkQFqsCMC8q5zBpWW6QLDTqj/kgafBPhjNQBQB
hT/Jk7HBJYmHQAnQWkBGF5bBysbOQPHdQEDNhJnBHUXBQPevqUAILqnBTwSWQPWDikB5ULPB2rXj
QPg1VEAsJLTB80i0QKHfMEC4oqPB7kO+QAZOckCt2KzBeuPtQJg9iEBNsb3BQpeuQOWXicAm+ZTB
BBhlQDDGPsB01o/BLUuIQEwwO0DMyJ/BgPtDQJWvdEAaLpHB1+7ZQChRAUCcqrjBni2wQCSjXkCq
w5HBDPOeQNATtEAZ0q/Bhn7KQJ4rGMC5QLDB1uHfQA/OCL9kbbzBj8SeQKIZAT/lJZnBcXvYQEu3
XsCIc6DB1FNZQCIMir8R7ZbBIA2AQCCmnMCX04nBjRveQMlgBUDdyZbBDG3nQAW6cUBq/ZrBEOy6
QMK6rkDKnaDBj3vfQIB4uUARYKvBxWmYQC9AhkBpB7zBhU5uQObGe0Aaf7DBbFIAQc5AT0AAK6/B
2lIEQYPxdUBmWcLBC3/RQHAKi0DQ2MLB3bj2QDQPqEAzpbrBJXBcQIgFLEBHBKTBYI1FQJ91hkBB
x4nBNS0MQAskb0DoCJXB

>  <OMEGA_E>  (115) 
jIjwPg==

>  <OMEGA_NBR>  (115) 
     25679

$$$$
288470
     RDKit          3D

 47 51  0  0  1  0  0  0  0  0999 V2000
    6.1184   -1.3685  -21.8113 C   0  0  0  0  0  0  0  0  0  0  0  0
    6.5029   -0.2917  -22.6365 C   0  0  0  0  0  0  0  0  0  0  0  0
    5.3865    0.2069  -20.1124 C   0  0  0  0  0  0  0  0  0  0  0  0
    5.8959   -3.3943  -19.5442 C   0  0  0  0  0  0  0  0  0  0  0  0
    4.0172   -2.0607  -18.8064 C   0  0  0  0  0  0  0  0  0  0  0  0
    4.4367   -4.1612  -17.8844 C   0  0  0  0  0  0  0  0  0  0  0  0
    5.5572   -1.1162  -20.5403 C   0  0  0  0  0  0  0  0  0  0  0  0
    5.1485   -2.2055  -19.6389 C   0  0  0  0  0  0  0  0  0  0  0  0
    5.7732    1.2864  -20.9245 C   0  0  0  0  0  0  0  0  0  0  0  0
    6.3611    1.0403  -22.1905 C   0  0  0  0  0  0  0  0  0  0  0  0
    4.2060    3.4553  -18.7370 C   0  0  0  0  0  0  0  0  0  0  0  0
    6.4087    2.9404  -19.1528 C   0  0  0  0  0  0  0  0  0  0  0  0
    5.7712    5.2518  -21.0255 C   0  0  0  0  0  0  0  0  0  0  0  0
    4.5262    4.1933  -22.3394 C   0  0  0  0  0  0  0  0  0  0  0  0
    7.0279    3.3645  -22.4060 C   0  0  2  0  0  0  0  0  0  0  0  0
    5.5557    2.6892  -20.3966 C   0  0  1  0  0  0  0  0  0  0  0  0
    5.8080    3.7421  -21.5206 C   0  0  0  0  0  0  0  0  0  0  0  0
    6.9682    4.0030  -24.9460 C   0  0  0  0  0  0  0  0  0  0  0  0
    7.3805    4.4184  -23.5178 C   0  0  0  0  0  0  0  0  0  0  0  0
    5.5311   -4.3516  -18.6646 N   0  0  0  0  0  0  0  0  0  0  0  0
    3.6758   -3.0414  -17.9478 N   0  0  0  0  0  0  0  0  0  0  0  0
    4.1927    2.8062  -19.8728 N   0  0  0  0  0  0  0  0  0  0  0  0
    3.0755    4.0559  -18.2119 N   0  0  0  0  0  0  0  0  0  0  0  0
    6.7999    2.0602  -23.0194 O   0  0  0  0  0  0  0  0  0  0  0  0
    5.4810    3.4905  -18.2012 O   0  0  0  0  0  0  0  0  0  0  0  0
    4.6619    5.4920  -21.8398 O   0  0  0  0  0  0  0  0  0  0  0  0
    6.2529   -2.3849  -22.1508 H   0  0  0  0  0  0  0  0  0  0  0  0
    6.9093   -0.4875  -23.6178 H   0  0  0  0  0  0  0  0  0  0  0  0
    4.9508    0.4002  -19.1432 H   0  0  0  0  0  0  0  0  0  0  0  0
    6.7605   -3.5407  -20.1746 H   0  0  0  0  0  0  0  0  0  0  0  0
    3.4231   -1.1603  -18.8582 H   0  0  0  0  0  0  0  0  0  0  0  0
    4.1606   -4.9349  -17.1834 H   0  0  0  0  0  0  0  0  0  0  0  0
    6.8415    2.0008  -18.7790 H   0  0  0  0  0  0  0  0  0  0  0  0
    7.2161    3.6552  -19.3700 H   0  0  0  0  0  0  0  0  0  0  0  0
    5.5720    5.3669  -19.9499 H   0  0  0  0  0  0  0  0  0  0  0  0
    6.6629    5.8355  -21.2978 H   0  0  0  0  0  0  0  0  0  0  0  0
    4.6414    4.1179  -23.4307 H   0  0  0  0  0  0  0  0  0  0  0  0
    3.5977    3.6893  -22.0330 H   0  0  0  0  0  0  0  0  0  0  0  0
    7.9024    3.2893  -21.7429 H   0  0  0  0  0  0  0  0  0  0  0  0
    7.2516    4.7949  -25.6550 H   0  0  0  0  0  0  0  0  0  0  0  0
    7.4795    3.0677  -25.2177 H   0  0  0  0  0  0  0  0  0  0  0  0
    5.8795    3.8500  -24.9834 H   0  0  0  0  0  0  0  0  0  0  0  0
    6.8688    5.3608  -23.2727 H   0  0  0  0  0  0  0  0  0  0  0  0
    8.4687    4.5785  -23.5070 H   0  0  0  0  0  0  0  0  0  0  0  0
    3.3736    2.4437  -20.3174 H   0  0  0  0  0  0  0  0  0  0  0  0
    3.1363    4.5786  -17.3615 H   0  0  0  0  0  0  0  0  0  0  0  0
    2.1978    3.9673  -18.6827 H   0  0  0  0  0  0  0  0  0  0  0  0
  1  2  2  0
  1  7  1  0
  2 10  1  0
  3  7  2  0
  3  9  1  0
  4  8  2  0
  4 20  1  0
  5  8  1  0
  5 21  2  0
  6 20  2  0
  6 21  1  0
  7  8  1  0
  9 10  2  0
  9 16  1  0
 10 24  1  0
 11 22  2  0
 11 23  1  0
 11 25  1  0
 16 12  1  1
 12 25  1  0
 13 17  1  0
 13 26  1  0
 14 17  1  0
 14 26  1  0
 15 17  1  0
 15 19  1  0
 15 24  1  0
 16 17  1  0
 16 22  1  0
 18 19  1  0
  1 27  1  0
  2 28  1  0
  3 29  1  0
  4 30  1  0
  5 31  1  0
  6 32  1  0
 12 33  1  0
 12 34  1  0
 13 35  1  0
 13 36  1  0
 14 37  1  0
 14 38  1  0
 15 39  1  1
 18 40  1  0
 18 41  1  0
 18 42  1  0
 19 43  1  0
 19 44  1  0
 22 45  1  0
 23 46  1  0
 23 47  1  0
M  CHG  1  22   1
M  END
>  <OMEGA_C>  (116) 
qMnDQI8rr79xfa7BGRjQQPhTlb6SF7XB912sQDjoUz4x5qDBV6u8QPw7WcCWWpzBBY2AQFLjA8CK
c5bBlfmNQIEohcBWE4/BT9SxQJfejr94UqTBrMCkQMomDcBhHJ3BQ764QHKopD9JZafBK47LQPUm
hT8rhrHBUZeGQFokXUBs5ZXBqhPNQBgwPEDqOJnBi624QJ0OqEBSNKjBqNaQQDYvhkD/trLB1+Tg
QIZTV0B0P7PBncixQIocLEAxLKPB/dq5QEJ/b0AsKqzBcPveQIIYgEBukcfB0SzsQLNjjUBqJLzB
p/6wQJ5Ai8ApUZXBBEBrQKKlQsADlY/BnSqGQBmZM0B1+57BWNVEQB7KgUDwsZHBq5jZQLzZA0DA
J7jBBWSvQKRjX0AlnJHBmS6VQBC+r0Det67BgBfIQOOhGMDmNLHBIBndQGuU+b4+8bzBAG2eQEvm
zD5gJZnBTVbYQOCaYsCiZaHBnRRbQBiFlL+L3ZbBeCOFQATrncCXd4nBK+3aQPAMAEBPO5bBR+rm
QGbuaUC79ZrBnU2yQI29q0BZmZ/BYDbVQHC8ukD0YarB+oWUQAPGg0AZcrvBP0BmQOIdbECDQ7DB
f+D8QBGEUkCA8a3B6wzoQJNvmUBgPc3Br1fvQMFUREDDvcnBFiW8QCNmdkDv3cfBDM3bQMyLq0B9
LrrB0n8HQRuDkkBRDrzBhOlXQFZlHEAKiqLBY7hIQK2DkkBc5IrBHagMQNrofUA3dpXB

>  <OMEGA_E>  (116) 
tKoOPw==

>  <OMEGA_NBR>  (116) 
     26766

$$$$
288483
     RDKit          3D

 40 44  0  0  1  0  0  0  0  0999 V2000
    6.1248   -1.2962  -21.6475 C   0  0  0  0  0  0  0  0  0  0  0  0
    6.5075   -0.2418  -22.4929 C   0  0  0  0  0  0  0  0  0  0  0  0
    5.3335    0.3166  -20.0098 C   0  0  0  0  0  0  0  0  0  0  0  0
    5.8741   -3.3644  -19.5021 C   0  0  0  0  0  0  0  0  0  0  0  0
    4.0513   -2.0507  -18.6138 C   0  0  0  0  0  0  0  0  0  0  0  0
    4.4546   -4.2287  -17.8598 C   0  0  0  0  0  0  0  0  0  0  0  0
    5.5356   -1.0285  -20.3951 C   0  0  0  0  0  0  0  0  0  0  0  0
    5.1498   -2.1513  -19.4963 C   0  0  0  0  0  0  0  0  0  0  0  0
    5.7385    1.3994  -20.8460 C   0  0  0  0  0  0  0  0  0  0  0  0
    6.3181    1.0999  -22.1100 C   0  0  0  0  0  0  0  0  0  0  0  0
    5.5410    2.7995  -18.1522 C   0  0  0  0  0  0  0  0  0  0  0  0
    5.8137    5.3768  -21.3183 C   0  0  0  0  0  0  0  0  0  0  0  0
    7.2419    4.7949  -21.2386 C   0  0  0  0  0  0  0  0  0  0  0  0
    4.1325    3.1385  -19.9158 C   0  0  0  0  0  0  0  0  0  0  0  0
    5.9846    3.3245  -22.9340 C   0  0  0  0  0  0  0  0  0  0  0  0
    5.5637    2.8745  -20.3877 C   0  0  2  0  0  0  0  0  0  0  0  0
    6.0339    3.8654  -21.5082 C   0  0  0  0  0  0  0  0  0  0  0  0
    5.5205   -4.3786  -18.6836 N   0  0  0  0  0  0  0  0  0  0  0  0
    3.7178   -3.0907  -17.8165 N   0  0  0  0  0  0  0  0  0  0  0  0
    6.3113    3.1142  -19.1599 N   0  0  0  0  0  0  0  0  0  0  0  0
    6.0484    2.1378  -17.0548 N   0  0  0  0  0  0  0  0  0  0  0  0
    6.7156    2.0816  -23.0036 O   0  0  0  0  0  0  0  0  0  0  0  0
    4.2058    2.9294  -18.4943 O   0  0  0  0  0  0  0  0  0  0  0  0
    6.2828   -2.3182  -21.9589 H   0  0  0  0  0  0  0  0  0  0  0  0
    6.9537   -0.4636  -23.4510 H   0  0  0  0  0  0  0  0  0  0  0  0
    4.8623    0.5293  -19.0616 H   0  0  0  0  0  0  0  0  0  0  0  0
    6.7175   -3.4815  -20.1665 H   0  0  0  0  0  0  0  0  0  0  0  0
    3.4747   -1.1383  -18.5757 H   0  0  0  0  0  0  0  0  0  0  0  0
    4.1810   -5.0483  -17.2119 H   0  0  0  0  0  0  0  0  0  0  0  0
    5.3211    5.7500  -20.4084 H   0  0  0  0  0  0  0  0  0  0  0  0
    5.5220    6.0013  -22.1756 H   0  0  0  0  0  0  0  0  0  0  0  0
    7.9668    5.0024  -22.0396 H   0  0  0  0  0  0  0  0  0  0  0  0
    7.7658    4.7512  -20.2724 H   0  0  0  0  0  0  0  0  0  0  0  0
    3.8258    4.1693  -20.1467 H   0  0  0  0  0  0  0  0  0  0  0  0
    3.4282    2.4334  -20.3815 H   0  0  0  0  0  0  0  0  0  0  0  0
    4.9379    3.1508  -23.2242 H   0  0  0  0  0  0  0  0  0  0  0  0
    6.4386    4.0555  -23.6193 H   0  0  0  0  0  0  0  0  0  0  0  0
    7.2482    3.4586  -19.0992 H   0  0  0  0  0  0  0  0  0  0  0  0
    5.4286    1.6898  -16.4104 H   0  0  0  0  0  0  0  0  0  0  0  0
    7.0362    2.1057  -16.9028 H   0  0  0  0  0  0  0  0  0  0  0  0
  1  2  2  0
  1  7  1  0
  2 10  1  0
  3  7  2  0
  3  9  1  0
  4  8  2  0
  4 18  1  0
  5  8  1  0
  5 19  2  0
  6 18  2  0
  6 19  1  0
  7  8  1  0
  9 10  2  0
  9 16  1  0
 10 22  1  0
 11 20  2  0
 11 21  1  0
 11 23  1  0
 12 13  1  0
 12 17  1  0
 13 17  1  0
 16 14  1  1
 14 23  1  0
 15 17  1  0
 15 22  1  0
 16 17  1  0
 16 20  1  0
  1 24  1  0
  2 25  1  0
  3 26  1  0
  4 27  1  0
  5 28  1  0
  6 29  1  0
 12 30  1  0
 12 31  1  0
 13 32  1  0
 13 33  1  0
 14 34  1  0
 14 35  1  0
 15 36  1  0
 15 37  1  0
 20 38  1  0
 21 39  1  0
 21 40  1  0
M  CHG  1  20   1
M  END
>  <OMEGA_C>  (117) 
B/7DQKLopb8bLq3BEz3QQFCed75c8bPBYKyqQDodoj4bFKDB7Pi7QOlSV8BeBJzBF6SBQFQ/A8AM
6ZTBAoyOQEJRh8D54I7BjyOxQCqlg78vKaPBR8ukQLavCcCC+JvBnqG3QEggsz+exKbB8C3KQNrJ
jD9D4bDBNFCxQFQrM0DCN5HBjwm6QHcOrED5i6rB+b3nQMhvmUC+6KnBNz2EQJzcSECiU5/B5oG/
QHjEVEDreLfBeQmyQGn4N0AWGqPBkhXBQDJjd0C+EKzBv6ewQMIdjMATeJXBpPBtQBfORcAjiI7B
a/bJQDJPR0B+R5nBGIzBQJ7RCEAhcIjBCObWQG44BUBdB7jBEJaGQJ17O0BM9JPB1AzJQLZcFMDC
q6/ByoTeQLhW7b6xm7vBx5ebQDR+Bz8ufpjBn/XWQLPRXsAYVaHBzGFeQC60kb8Qm5TBZsqFQGSL
ocAOsonBM0aqQDkAuEBhRKPBnbSwQIMKwECxZ7HBv+/+QNAToEAkUbDBVYH4QIYJmEDULaLBGNl0
QOJqhUB6LKHBzWdbQAK8G0BIDaPBCQOeQAunSUAhy7nB1AjOQLjGgUA/9LzBOfHnQJ9ZXUBAy5jB
uLatQOpK2D+TSIPBtijhQL/DBkD0OIfB/8jEQI0+qL83SK3B7pjQQG2Egr6KB7TBKoupQILjkj4N
P6DBAOS7QI/bWMACNJzBXoqCQPD9AsC06ZTBm/COQBcYh8BR1o7BNlKxQHSkhr9+TqPBbS2lQHG/
CsCBG5zBrZW0QDzSrj8GC6fBCnXJQK5/ij8T+LDBFHO1QIh3TUDgd5HBnqGOQH0VikAmlLPBPbap
QBoRqEASQKzBL2qAQEgGP0A25p3B1O7bQJxLWUBcwLPBNhSsQIFsNEB4bqPBCni0QBvNcECfH63B
T4WwQAKTjMD8kZXB3t1vQPCvRMBWa47BRpzJQBoRTEDnvJrBHf3IQGTKW0A4rYfBsvHWQFkmBEBj
D7jBr2eKQDu+PEAauZLB15rKQMhhFcCuuq/Bm1XfQPNP775OqLvBDeyaQJUl+z7JlpjBwYLWQHg5
YcDtnKHBIeBgQDZUkL/lmpTBciaGQGYYocA1lonBik1bQGyugUD9VLHBqeeQQJncjEA0VbzBZx6/
QLwTwEDT0q/Bg92bQJDltECc0qTBeztjQPt3fEDeFKDBGHZVQHdVCkCWD6DB9I7fQOOfg0ArW7rB
P4r4QHJrW0B2oa7BiqzoQAo/WUDyuZvB2qm3QBlWWkD784DBXGnoQFWUZ0DmVYfB

>  <OMEGA_E>  (117) 
UJA9P6DvST8=

>  <OMEGA_NBR>  (117) 
     28466

$$$$
288490
     RDKit          3D

 47 51  0  0  1  0  0  0  0  0999 V2000
    6.0071   -5.4593  -18.3605 C   0  0  0  0  0  0  0  0  0  0  0  0
    6.5646   -6.5339  -18.2962 C   0  0  0  0  0  0  0  0  0  0  0  0
    6.1129   -1.3086  -21.6575 C   0  0  0  0  0  0  0  0  0  0  0  0
    6.4405   -0.2916  -22.5712 C   0  0  0  0  0  0  0  0  0  0  0  0
    5.8304   -3.2409  -19.3614 C   0  0  0  0  0  0  0  0  0  0  0  0
    5.5265    0.3731  -19.9988 C   0  0  0  0  0  0  0  0  0  0  0  0
    4.2057   -3.9258  -17.6867 C   0  0  0  0  0  0  0  0  0  0  0  0
    4.0125   -1.7971  -18.6411 C   0  0  0  0  0  0  0  0  0  0  0  0
    5.3501   -4.2023  -18.4638 C   0  0  0  0  0  0  0  0  0  0  0  0
    5.6173   -0.9743  -20.3792 C   0  0  0  0  0  0  0  0  0  0  0  0
    5.1551   -2.0143  -19.4505 C   0  0  0  0  0  0  0  0  0  0  0  0
    5.8776    1.4010  -20.8947 C   0  0  0  0  0  0  0  0  0  0  0  0
    6.2878    1.0634  -22.2159 C   0  0  0  0  0  0  0  0  0  0  0  0
    4.1848    3.2706  -18.7988 C   0  0  0  0  0  0  0  0  0  0  0  0
    6.4306    3.1078  -19.1003 C   0  0  0  0  0  0  0  0  0  0  0  0
    5.8510    3.2871  -22.9884 C   0  0  0  0  0  0  0  0  0  0  0  0
    5.8675    5.3460  -21.3572 C   0  0  0  0  0  0  0  0  0  0  0  0
    7.6842    4.3290  -21.5187 C   0  0  0  0  0  0  0  0  0  0  0  0
    5.7346    2.8551  -20.4450 C   0  0  1  0  0  0  0  0  0  0  0  0
    6.1914    3.8171  -21.5897 C   0  0  0  0  0  0  0  0  0  0  0  0
    7.2277   -7.8298  -18.2335 C   0  0  0  0  0  0  0  0  0  0  0  0
    3.5577   -2.7422  -17.7870 N   0  0  0  0  0  0  0  0  0  0  0  0
    4.3277    3.1257  -20.1023 N   0  0  0  0  0  0  0  0  0  0  0  0
    2.9896    3.5591  -18.1618 N   0  0  0  0  0  0  0  0  0  0  0  0
    6.5232    2.0212  -23.1892 O   0  0  0  0  0  0  0  0  0  0  0  0
    5.3772    3.0608  -18.1422 O   0  0  0  0  0  0  0  0  0  0  0  0
    7.2279    5.6114  -21.2013 O   0  0  0  0  0  0  0  0  0  0  0  0
    6.2406   -2.3449  -21.9337 H   0  0  0  0  0  0  0  0  0  0  0  0
    6.8115   -0.5505  -23.5519 H   0  0  0  0  0  0  0  0  0  0  0  0
    6.7000   -3.4388  -19.9706 H   0  0  0  0  0  0  0  0  0  0  0  0
    5.1830    0.6250  -19.0064 H   0  0  0  0  0  0  0  0  0  0  0  0
    3.8397   -4.6732  -16.9984 H   0  0  0  0  0  0  0  0  0  0  0  0
    3.4917   -0.8533  -18.7078 H   0  0  0  0  0  0  0  0  0  0  0  0
    7.1780    2.3270  -18.8959 H   0  0  0  0  0  0  0  0  0  0  0  0
    6.9190    4.0935  -19.0939 H   0  0  0  0  0  0  0  0  0  0  0  0
    4.7637    3.1450  -23.0744 H   0  0  0  0  0  0  0  0  0  0  0  0
    6.1878    4.0081  -23.7479 H   0  0  0  0  0  0  0  0  0  0  0  0
    5.4092    5.8446  -22.2241 H   0  0  0  0  0  0  0  0  0  0  0  0
    5.2652    5.5457  -20.4587 H   0  0  0  0  0  0  0  0  0  0  0  0
    8.2840    3.8568  -20.7268 H   0  0  0  0  0  0  0  0  0  0  0  0
    8.2257    4.2686  -22.4743 H   0  0  0  0  0  0  0  0  0  0  0  0
    7.8284   -7.8907  -17.3140 H   0  0  0  0  0  0  0  0  0  0  0  0
    6.4716   -8.6287  -18.2309 H   0  0  0  0  0  0  0  0  0  0  0  0
    7.8838   -7.9486  -19.1084 H   0  0  0  0  0  0  0  0  0  0  0  0
    3.5831    3.1907  -20.7666 H   0  0  0  0  0  0  0  0  0  0  0  0
    2.9579    3.6260  -17.1645 H   0  0  0  0  0  0  0  0  0  0  0  0
    2.1581    3.7005  -18.6991 H   0  0  0  0  0  0  0  0  0  0  0  0
  1  2  3  0
  1  9  1  0
  2 21  1  0
  3  4  2  0
  3 10  1  0
  4 13  1  0
  5  9  2  0
  5 11  1  0
  6 10  2  0
  6 12  1  0
  7  9  1  0
  7 22  2  0
  8 11  2  0
  8 22  1  0
 10 11  1  0
 12 13  2  0
 12 19  1  0
 13 25  1  0
 14 23  2  0
 14 24  1  0
 14 26  1  0
 19 15  1  1
 15 26  1  0
 16 20  1  0
 16 25  1  0
 17 20  1  0
 17 27  1  0
 18 20  1  0
 18 27  1  0
 19 20  1  0
 19 23  1  0
  3 28  1  0
  4 29  1  0
  5 30  1  0
  6 31  1  0
  7 32  1  0
  8 33  1  0
 15 34  1  0
 15 35  1  0
 16 36  1  0
 16 37  1  0
 17 38  1  0
 17 39  1  0
 18 40  1  0
 18 41  1  0
 21 42  1  0
 21 43  1  0
 21 44  1  0
 23 45  1  0
 24 46  1  0
 24 47  1  0
M  CHG  1  23   1
M  END
>  <OMEGA_C>  (118) 
ZTrAQKOyrsBo4pLBYBHSQJoV0cCuXpLBPp3DQM+Ap7+dQq3BPRjOQAZJlb7akbTBzJK6QGNqT8Ak
5JrBI9mwQAoHvz6d/Z/BN5WGQI8/e8Blfo3BO2aAQDsG5r/9IJXBpjOrQG15hsDGtZPBhcCzQKNu
eb+sCKPBPPakQH7qAMCMmpvBixW8QLdTsz9OKKfBrTXJQIYciD8+urHB/emFQAlRUUDwY5bBx8fN
QPXmRkB6zZjBxzu7QGdgUkAp6LfBQcK7QAkSq0Ci26rBm+T1QHuHikBmJqzBn4G3QJu5NkBXj6PB
nB/GQLhKdECst6zBqknnQL+N+sAl3pHB57BjQK6AL8CwS47B23yKQDoLSEB20aDB01Q/QADIY0Bf
S5HBb77QQLBbAUBzg7nBARKsQMbkQ0BAI5HB4UrnQHSQs0BWnKnB+7LHQI8SFsAteK/B0ffZQALu
DL87arzBOmbWQNkUXMC+w5/BMtulQJMAID8VDZjBJL51QO+KlcC+/IfBRXhfQNZvWr+sqZXB0rHl
QHXtFEDbKpfBqGjdQKL9gkBowJjB8m+YQJxHSUBPmLjBhQLGQAZCgECk+73BbxitQPYGu0DhyrHB
z3yoQFx2sUBeq6PBE4sEQQLVdkB70KXBp5wDQT+YiEBQy7PBkYL6QP6A/MALg4rBbBfPQDUPCsH2
2JHBwEf8QAZb/sAI3pjBplFlQMszTED1IabBBE49QPYPaED9UInBDh4KQIbVbECwl5XB3b28QAew
rMCt5JLBSNbQQIOQzcDVvpHB7bK9QLPhqL/iuq3BMlPNQMtbqL4ep7TBlfezQGz7TcCEepvBdPao
QIiYyj485aDB7iqBQFOOesCK3o3BCT1zQO5C5b8FkZXBCailQH67hcDcKJTBkRKsQApTdr+evKPB
O6KdQIgbAMAMOpzBs6q4QLExsz9dyafBBmfMQLEogz+8nbHBy9OIQFkEVUAvcpbBtInQQJdGREAI
AJrBr0btQA+bS0DUW7PBLEijQBl+hkCaBbbB6oXIQItJqkCXX6vBiMu2QBpPN0ANQqTBEIDGQIFM
cUDjnq3BLCDpQOT49MCXTpDBnM5XQJRTL8C5pI7ByTyLQEYGT0AL66DB26tFQGbUYEB86pDBoCng
QJ1L+D+VVLjBQqWwQF/iS0DDx5HB0USoQEwcsUBc7LLBRiq/QH7xFsB0DrDBnCPaQC6QG79TXLzB
z5XPQAkfWsAqcqDB4m2aQLkALD/YX5nBwetrQGdKlcCwUojBnV5RQGzyWb8wBZbBK37lQBwIDUD6
epjBa/zjQLTSfkDWfZrBj7X4QKiIeEBRgLnBgYYDQZ5GP0Aoka3BJBOsQJcigEC0ZL7BbkqDQKqX
ckCCabTBP5q/QINQs0BPKqPB0VbnQG0kuUA4cq3BllrgQDH7BcF+mZbBBscFQZTu7cBC0JDBUc7h
QHdhAcF6a4jBrJ9lQC4xWUCE7aXBF+1FQBRHY0AA7IjB0pkOQFHnZkCp65TB

>  <OMEGA_E>  (118) 
4tIfP1xvID8=

>  <OMEGA_NBR>  (118) 
     30362

$$$$
361714
     RDKit          3D

 46 50  0  0  1  0  0  0  0  0999 V2000
    2.4895   -2.8205  -17.0631 C   0  0  0  0  0  0  0  0  0  0  0  0
    1.5094   -2.7408  -16.3544 C   0  0  0  0  0  0  0  0  0  0  0  0
    5.8955   -1.3522  -21.7519 C   0  0  0  0  0  0  0  0  0  0  0  0
    6.3534   -0.3492  -22.6144 C   0  0  0  0  0  0  0  0  0  0  0  0
    5.2527    0.3379  -20.1140 C   0  0  0  0  0  0  0  0  0  0  0  0
    4.4039   -4.1250  -17.8513 C   0  0  0  0  0  0  0  0  0  0  0  0
    5.7987   -3.2719  -19.4969 C   0  0  0  0  0  0  0  0  0  0  0  0
    3.6388   -2.9392  -17.8895 C   0  0  0  0  0  0  0  0  0  0  0  0
    5.3845   -1.0166  -20.4823 C   0  0  0  0  0  0  0  0  0  0  0  0
    5.7312    1.3568  -20.9700 C   0  0  0  0  0  0  0  0  0  0  0  0
    6.3400    0.9948  -22.2078 C   0  0  0  0  0  0  0  0  0  0  0  0
    5.0289   -2.0827  -19.5391 C   0  0  0  0  0  0  0  0  0  0  0  0
    4.2530    3.3592  -18.8066 C   0  0  0  0  0  0  0  0  0  0  0  0
    6.4844    2.9905  -19.2151 C   0  0  0  0  0  0  0  0  0  0  0  0
    7.4266    3.1215  -22.3736 C   0  0  0  0  0  0  0  0  0  0  0  0
    5.1509    4.2095  -22.7229 C   0  0  0  0  0  0  0  0  0  0  0  0
    6.3287    5.2770  -21.3630 C   0  0  0  0  0  0  0  0  0  0  0  0
    5.6936    2.8190  -20.5111 C   0  0  1  0  0  0  0  0  0  0  0  0
    6.2238    3.7319  -21.6629 C   0  0  0  0  0  0  0  0  0  0  0  0
    0.3342   -2.6594  -15.4981 C   0  0  0  0  0  0  0  0  0  0  0  0
    5.4788   -4.2709  -18.6514 N   0  0  0  0  0  0  0  0  0  0  0  0
    3.9671   -1.9305  -18.7202 N   0  0  0  0  0  0  0  0  0  0  0  0
    4.3347    3.2140  -20.1105 N   0  0  0  0  0  0  0  0  0  0  0  0
    3.0767    3.6531  -18.1346 N   0  0  0  0  0  0  0  0  0  0  0  0
    6.9798    1.9113  -23.0262 O   0  0  0  0  0  0  0  0  0  0  0  0
    5.4780    3.1516  -18.2039 O   0  0  0  0  0  0  0  0  0  0  0  0
    5.3419    5.5313  -22.3187 O   0  0  0  0  0  0  0  0  0  0  0  0
    5.9340   -2.3865  -22.0605 H   0  0  0  0  0  0  0  0  0  0  0  0
    6.7185   -0.6102  -23.5967 H   0  0  0  0  0  0  0  0  0  0  0  0
    4.7850    0.5980  -19.1759 H   0  0  0  0  0  0  0  0  0  0  0  0
    4.1261   -4.9209  -17.1763 H   0  0  0  0  0  0  0  0  0  0  0  0
    6.6520   -3.3786  -20.1503 H   0  0  0  0  0  0  0  0  0  0  0  0
    7.1002    2.1015  -19.0139 H   0  0  0  0  0  0  0  0  0  0  0  0
    7.1300    3.8796  -19.2674 H   0  0  0  0  0  0  0  0  0  0  0  0
    7.8193    3.8274  -23.1203 H   0  0  0  0  0  0  0  0  0  0  0  0
    8.2141    2.8850  -21.6429 H   0  0  0  0  0  0  0  0  0  0  0  0
    5.4336    4.0139  -23.7678 H   0  0  0  0  0  0  0  0  0  0  0  0
    4.1364    3.8258  -22.5396 H   0  0  0  0  0  0  0  0  0  0  0  0
    6.0430    5.5556  -20.3379 H   0  0  0  0  0  0  0  0  0  0  0  0
    7.3089    5.7152  -21.6024 H   0  0  0  0  0  0  0  0  0  0  0  0
   -0.1275   -1.6663  -15.6017 H   0  0  0  0  0  0  0  0  0  0  0  0
   -0.3895   -3.4329  -15.7945 H   0  0  0  0  0  0  0  0  0  0  0  0
    0.6319   -2.8177  -14.4510 H   0  0  0  0  0  0  0  0  0  0  0  0
    3.5747    3.3535  -20.7452 H   0  0  0  0  0  0  0  0  0  0  0  0
    3.0759    3.7286  -17.1375 H   0  0  0  0  0  0  0  0  0  0  0  0
    2.2289    3.7896  -18.6470 H   0  0  0  0  0  0  0  0  0  0  0  0
  1  2  3  0
  1  8  1  0
  2 20  1  0
  3  4  2  0
  3  9  1  0
  4 11  1  0
  5  9  2  0
  5 10  1  0
  6  8  2  0
  6 21  1  0
  7 12  1  0
  7 21  2  0
  8 22  1  0
  9 12  1  0
 10 11  2  0
 10 18  1  0
 11 25  1  0
 12 22  2  0
 13 23  2  0
 13 24  1  0
 13 26  1  0
 18 14  1  1
 14 26  1  0
 15 19  1  0
 15 25  1  0
 16 19  1  0
 16 27  1  0
 17 19  1  0
 17 27  1  0
 18 19  1  0
 18 23  1  0
  3 28  1  0
  4 29  1  0
  5 30  1  0
  6 31  1  0
  7 32  1  0
 14 33  1  0
 14 34  1  0
 15 35  1  0
 15 36  1  0
 16 37  1  0
 16 38  1  0
 17 39  1  0
 17 40  1  0
 20 41  1  0
 20 42  1  0
 20 43  1  0
 23 44  1  0
 24 45  1  0
 24 46  1  0
M  CHG  1  23   1
M  END
>  <OMEGA_C>  (119) 
C1QfQNODNMAngYjB8jTBPy1pL8DB1YLB4ae8QGgVrb/PA67B3k7LQO7Osr406rTBxhWoQKkDrT6I
6aDBFu2MQEQAhMCLz47Bzo65QB9mUcC3+ZvBc+FoQAkbPMC9HY/B5E2sQNwggr+226PBEma3QNeq
rT96wqfBPeHKQG+rfj95qbHB/uygQO1KBcAqUJzB8hiIQH79VkD2c5bBWIDPQL1kP0CfuJnB5qbt
QKnGR0A5/bLBJdSkQFa0hkCNyLXBj4TKQH3dqEBc56rBWDK2QENqNEC0FqTBSynHQDrXbkC3Ta3B
QCCrPuAyKsAv+HfBAFKvQAmriMAXNpXBmuV9QBQZ97/wwpXBQbaKQM2yTUBK4qDBlOhEQGPMaUC+
E5HB3VrfQN6l9D+aNbjBAUyvQCq0SUCroZHB6vCqQJ0AsUCvjLLBPeO9QPm7GMDPe7DB4/3WQLY2
HL8HxrzB2R6ZQLMYGT9IaJnBwQiEQFx4ncACaYnBytzUQGo6WMDmM6HB0DTjQIJ/BkBrHJjBSynk
QCtLeEC4I5rB3jf6QBH0dEBh9rjByWwDQXukOECZJK3BaOCtQPNxgEB8JL7BvV2EQCfZdEAVUbTB
jWDBQIXHsUD6s6LBHOLpQKTitkCk0azBZI8CvuBK1b+voHnBfHLHvvezW8AmtnzBzMYhP9NUNMB9
N2fBEcdkQD2gVkAT9qXBXNxEQIehbkCXGYnBt6UOQIqIckAkLZXB

>  <OMEGA_E>  (119) 
PL38Pg==

>  <OMEGA_NBR>  (119) 
     45161

$$$$
50097316
     RDKit          3D

 45 49  0  0  1  0  0  0  0  0999 V2000
    3.5967   -3.0699  -17.9232 C   0  0  0  0  0  0  0  0  0  0  0  0
    3.9866   -2.0248  -18.7712 C   0  0  0  0  0  0  0  0  0  0  0  0
    6.0437   -1.3375  -21.7501 C   0  0  0  0  0  0  0  0  0  0  0  0
    6.4047   -0.2731  -22.5911 C   0  0  0  0  0  0  0  0  0  0  0  0
    5.5008    0.2452  -19.9805 C   0  0  0  0  0  0  0  0  0  0  0  0
    4.3796   -4.2393  -17.8706 C   0  0  0  0  0  0  0  0  0  0  0  0
    5.5784   -1.0809  -20.4420 C   0  0  0  0  0  0  0  0  0  0  0  0
    5.1498   -2.1783  -19.5544 C   0  0  0  0  0  0  0  0  0  0  0  0
    5.8972    1.3175  -20.8034 C   0  0  0  0  0  0  0  0  0  0  0  0
    6.3039    1.0549  -22.1395 C   0  0  0  0  0  0  0  0  0  0  0  0
    5.8950   -3.3816  -19.4474 C   0  0  0  0  0  0  0  0  0  0  0  0
    4.1778    3.3399  -18.7619 C   0  0  0  0  0  0  0  0  0  0  0  0
    6.0780    5.2199  -20.9759 C   0  0  0  0  0  0  0  0  0  0  0  0
    6.7030    6.1323  -22.0392 C   0  0  0  0  0  0  0  0  0  0  0  0
    6.6890    4.3763  -23.6966 C   0  0  0  0  0  0  0  0  0  0  0  0
    6.4166    2.8727  -18.8738 C   0  0  0  0  0  0  0  0  0  0  0  0
    6.4720    3.7404  -21.2598 C   0  0  2  0  0  0  0  0  0  0  0  0
    6.0842    3.3672  -22.7075 C   0  0  2  0  0  0  0  0  0  0  0  0
    5.8023    2.7445  -20.2687 C   0  0  1  0  0  0  0  0  0  0  0  0
    5.5008   -4.3769  -18.6180 N   0  0  0  0  0  0  0  0  0  0  0  0
    4.3885    3.0754  -20.0335 N   0  0  0  0  0  0  0  0  0  0  0  0
    2.9766    3.7968  -18.2461 N   0  0  0  0  0  0  0  0  0  0  0  0
    6.6002    2.0612  -23.0359 O   0  0  0  0  0  0  0  0  0  0  0  0
    5.3011    3.0828  -18.0054 O   0  0  0  0  0  0  0  0  0  0  0  0
    6.2731    5.7125  -23.3515 O   0  0  0  0  0  0  0  0  0  0  0  0
    7.0501   -3.5438  -20.1363 F   0  0  0  0  0  0  0  0  0  0  0  0
    2.7070   -2.9797  -17.3176 H   0  0  0  0  0  0  0  0  0  0  0  0
    3.4057   -1.1160  -18.8243 H   0  0  0  0  0  0  0  0  0  0  0  0
    6.1220   -2.3548  -22.1044 H   0  0  0  0  0  0  0  0  0  0  0  0
    6.7616   -0.4751  -23.5902 H   0  0  0  0  0  0  0  0  0  0  0  0
    5.1333    0.4435  -18.9845 H   0  0  0  0  0  0  0  0  0  0  0  0
    4.0788   -5.0460  -17.2184 H   0  0  0  0  0  0  0  0  0  0  0  0
    6.4455    5.5121  -19.9811 H   0  0  0  0  0  0  0  0  0  0  0  0
    4.9829    5.3194  -21.0060 H   0  0  0  0  0  0  0  0  0  0  0  0
    6.3838    7.1703  -21.8642 H   0  0  0  0  0  0  0  0  0  0  0  0
    7.7994    6.0703  -21.9761 H   0  0  0  0  0  0  0  0  0  0  0  0
    7.7865    4.3140  -23.6555 H   0  0  0  0  0  0  0  0  0  0  0  0
    6.3461    4.1392  -24.7145 H   0  0  0  0  0  0  0  0  0  0  0  0
    6.9536    1.9526  -18.6002 H   0  0  0  0  0  0  0  0  0  0  0  0
    7.1079    3.7272  -18.8313 H   0  0  0  0  0  0  0  0  0  0  0  0
    7.5633    3.6481  -21.1572 H   0  0  0  0  0  0  0  0  0  0  0  0
    4.9883    3.3825  -22.8011 H   0  0  0  0  0  0  0  0  0  0  0  0
    3.6839    3.0965  -20.7428 H   0  0  0  0  0  0  0  0  0  0  0  0
    2.8844    3.9613  -17.2640 H   0  0  0  0  0  0  0  0  0  0  0  0
    2.2013    3.9622  -18.8557 H   0  0  0  0  0  0  0  0  0  0  0  0
  1  2  2  0
  1  6  1  0
  2  8  1  0
  3  4  2  0
  3  7  1  0
  4 10  1  0
  5  7  2  0
  5  9  1  0
  6 20  2  0
  7  8  1  0
  8 11  2  0
  9 10  2  0
  9 19  1  0
 10 23  1  0
 11 20  1  0
 11 26  1  0
 12 21  2  0
 12 22  1  0
 12 24  1  0
 13 14  1  0
 13 17  1  0
 14 25  1  0
 15 18  1  0
 15 25  1  0
 19 16  1  1
 16 24  1  0
 17 18  1  0
 17 19  1  0
 18 23  1  0
 19 21  1  0
  1 27  1  0
  2 28  1  0
  3 29  1  0
  4 30  1  0
  5 31  1  0
  6 32  1  0
 13 33  1  0
 13 34  1  0
 14 35  1  0
 14 36  1  0
 15 37  1  0
 15 38  1  0
 16 39  1  0
 16 40  1  0
 17 41  1  6
 18 42  1  1
 21 43  1  0
 22 44  1  0
 22 45  1  0
M  CHG  1  21   1
M  END
>  <OMEGA_C>  (120) 
yy9mQL94RMC1Yo/B9SR/QAmXAcBYK5bBCWbBQCk0q79OAK7B8/LMQCLRi76jurTBJwawQNUNez4G
2J/BEyaMQLqoh8Dk9o7BkIKyQCRbir9DiaPBkcukQAhpC8Bkb5zBsLW8QD2lqD9zbabBkLnJQBYI
hz+mHbHBh6O8QDVsWMA1lJvBr7CFQEPAVUBhGJbBNX/CQGYJp0CLzqfBw37WQKk7xEBNULDBMgzW
QEEKjECPkr3BiFTNQI7aN0Ci/ZbBPhrPQCxib0AiFKrBtbHCQL9/V0DkqLXBQ6y5QESmL0A4JqLB
7gawQM0PjMCo8ZTBam6MQP3TRECNRKDBeoA+QF3+ckAB+JHBJDXTQLjqA0B/SbjBPKKpQHVMRUD+
CpDB5LzIQH/MtkDIz7rBwJrhQDfOYsAeF6HB0z4tQKWzPsCKiorBv/ZZQKnXjr87mJbB1efDQES0
FsDi1bDBCl/YQLs6877KuLzBnUOkQN0Y4z4+4JfBrIWCQJt4ocBbv4nBtEHOQM5isEA72Z/BUnSf
QEc4qkA6DKjBuEfMQA5z5UDf6a7BvZT5QI0/wkD5zq/Bqir5QGoMikBtPr3BkRPLQFZ0hEBct8XB
EYTeQF3t+T80zZTBPHTjQOqKbkBsppbBRgbyQJt6aUAEQqnBFKCfQF16WECfaLbBwcVrQN4tRkBQ
8aXBtZo4QOGFfUC/HIrBjOIMQJyUfUBy2JbB

>  <OMEGA_E>  (120) 
AJgKPQ==

>  <OMEGA_NBR>  (120) 
     46227

$$$$
50097317
     RDKit          3D

 45 49  0  0  1  0  0  0  0  0999 V2000
    6.0935   -1.3491  -21.6953 C   0  0  0  0  0  0  0  0  0  0  0  0
    6.4305   -0.2904  -22.5533 C   0  0  0  0  0  0  0  0  0  0  0  0
    5.4615    0.2513  -19.9700 C   0  0  0  0  0  0  0  0  0  0  0  0
    4.0050   -2.0434  -18.7313 C   0  0  0  0  0  0  0  0  0  0  0  0
    5.9048   -3.3717  -19.4712 C   0  0  0  0  0  0  0  0  0  0  0  0
    4.4215   -4.2849  -17.9018 C   0  0  0  0  0  0  0  0  0  0  0  0
    5.5775   -1.0780  -20.4110 C   0  0  0  0  0  0  0  0  0  0  0  0
    5.1596   -2.1727  -19.5279 C   0  0  0  0  0  0  0  0  0  0  0  0
    5.8630    1.3164  -20.7980 C   0  0  0  0  0  0  0  0  0  0  0  0
    6.2848    1.0426  -22.1275 C   0  0  0  0  0  0  0  0  0  0  0  0
    3.6267   -3.1196  -17.9184 C   0  0  0  0  0  0  0  0  0  0  0  0
    4.1685    3.3661  -18.7616 C   0  0  0  0  0  0  0  0  0  0  0  0
    6.1087    5.2107  -20.9776 C   0  0  0  0  0  0  0  0  0  0  0  0
    6.7556    6.1049  -22.0416 C   0  0  0  0  0  0  0  0  0  0  0  0
    6.6844    4.3522  -23.7019 C   0  0  0  0  0  0  0  0  0  0  0  0
    6.4025    2.8697  -18.8741 C   0  0  0  0  0  0  0  0  0  0  0  0
    6.4683    3.7241  -21.2626 C   0  0  2  0  0  0  0  0  0  0  0  0
    6.0680    3.3546  -22.7082 C   0  0  2  0  0  0  0  0  0  0  0  0
    5.7836    2.7450  -20.2678 C   0  0  1  0  0  0  0  0  0  0  0  0
    5.5363   -4.3933  -18.6649 N   0  0  0  0  0  0  0  0  0  0  0  0
    4.3757    3.0968  -20.0327 N   0  0  0  0  0  0  0  0  0  0  0  0
    2.9660    3.8210  -18.2468 N   0  0  0  0  0  0  0  0  0  0  0  0
    6.5678    2.0415  -23.0367 O   0  0  0  0  0  0  0  0  0  0  0  0
    5.2933    3.1113  -18.0055 O   0  0  0  0  0  0  0  0  0  0  0  0
    6.3061    5.6981  -23.3510 O   0  0  0  0  0  0  0  0  0  0  0  0
    2.5057   -3.0417  -17.1666 F   0  0  0  0  0  0  0  0  0  0  0  0
    6.2294   -2.3706  -22.0184 H   0  0  0  0  0  0  0  0  0  0  0  0
    6.8033   -0.5001  -23.5450 H   0  0  0  0  0  0  0  0  0  0  0  0
    5.0613    0.4572  -18.9883 H   0  0  0  0  0  0  0  0  0  0  0  0
    3.4235   -1.1334  -18.7469 H   0  0  0  0  0  0  0  0  0  0  0  0
    6.7875   -3.4747  -20.0849 H   0  0  0  0  0  0  0  0  0  0  0  0
    4.1349   -5.1098  -17.2664 H   0  0  0  0  0  0  0  0  0  0  0  0
    6.4831    5.4944  -19.9829 H   0  0  0  0  0  0  0  0  0  0  0  0
    5.0163    5.3362  -21.0077 H   0  0  0  0  0  0  0  0  0  0  0  0
    6.4685    7.1519  -21.8644 H   0  0  0  0  0  0  0  0  0  0  0  0
    7.8500    6.0101  -21.9840 H   0  0  0  0  0  0  0  0  0  0  0  0
    7.7805    4.2634  -23.6740 H   0  0  0  0  0  0  0  0  0  0  0  0
    6.3238    4.1255  -24.7160 H   0  0  0  0  0  0  0  0  0  0  0  0
    6.9190    1.9397  -18.5942 H   0  0  0  0  0  0  0  0  0  0  0  0
    7.1130    3.7087  -18.8387 H   0  0  0  0  0  0  0  0  0  0  0  0
    7.5578    3.6087  -21.1645 H   0  0  0  0  0  0  0  0  0  0  0  0
    4.9721    3.3841  -22.7977 H   0  0  0  0  0  0  0  0  0  0  0  0
    3.6715    3.1273  -20.7421 H   0  0  0  0  0  0  0  0  0  0  0  0
    2.8729    3.9861  -17.2650 H   0  0  0  0  0  0  0  0  0  0  0  0
    2.1907    3.9843  -18.8570 H   0  0  0  0  0  0  0  0  0  0  0  0
  1  2  2  0
  1  7  1  0
  2 10  1  0
  3  7  2  0
  3  9  1  0
  4  8  2  0
  4 11  1  0
  5  8  1  0
  5 20  2  0
  6 11  2  0
  6 20  1  0
  7  8  1  0
  9 10  2  0
  9 19  1  0
 10 23  1  0
 11 26  1  0
 12 21  2  0
 12 22  1  0
 12 24  1  0
 13 14  1  0
 13 17  1  0
 14 25  1  0
 15 18  1  0
 15 25  1  0
 19 16  1  1
 16 24  1  0
 17 18  1  0
 17 19  1  0
 18 23  1  0
 19 21  1  0
  1 27  1  0
  2 28  1  0
  3 29  1  0
  4 30  1  0
  5 31  1  0
  6 32  1  0
 13 33  1  0
 13 34  1  0
 14 35  1  0
 14 36  1  0
 15 37  1  0
 15 38  1  0
 16 39  1  0
 16 40  1  0
 17 41  1  6
 18 42  1  1
 21 43  1  0
 22 44  1  0
 22 45  1  0
M  CHG  1  21   1
M  END
>  <OMEGA_C>  (121) 
Wv7CQI6urL/wj63BpsbNQPGplL48bbTB0MSuQK6rgD6Rwp/B2yiAQGLGAsCi2ZXByPO8QIXJV8AP
xZvBtXyNQCkeicDwNo/BpHqyQK36ib+tSaPBahulQAENC8AOOZzBnp27QEJ+qD9jYqbBSh3JQL5y
hT8PBbHBgRxoQDeoR8DiWI/Bc2SFQFJuV0DJF5bBo3rDQOi9pkAI0qfBNS7YQKRbw0BMVbDBw+bV
QFlFi0Bknb3BQuHMQOuoN0AX/pbBYPzOQOZXbkDfGarBKS3CQAWxVkB3qrXBWRO5QLOtL0CEJKLB
JymxQE+WjMCdUZXBZQWMQGkyRkABQ6DBitI9QOyKdECE+ZHBvyvSQEaoAkA9S7jBu2KpQBsgR0Ba
C5DBWcvJQBhXtkDxzrrBNV0gQPSqQsA7VYnBaVfHQBy4F8CvJbDBnLTZQGEEAL82XLzBUPahQO8b
6j7z55fBGxtbQJUSkb+3+ZXBFzPZQPxhXsDSraDBW1GEQNCDo8CAIYrBmnXPQHbSr0AA3Z/Bp4Wg
QMnBqkC3D6jBvP3OQFvc5EBc6q7BdjP7QOtSwEBV36/Bn/n4QIttiEBQZL3B7lzKQDEEhEB2usXB
rGjdQL1H+D//wJTB7J3jQNNabUCUtZbBtdnxQBj1ZkDfUKnBGBufQOKUWEDAYbbBvvlqQB4mSEDR
76XB9d03QFocf0CkHorBwTQMQL/+fkAk25bBkJXCQIb9q7+Yz63B4efOQNoqk74Cj7TB8RCvQPQy
hT7V+5/BCLq5QCdlVcCcvpvBJoV6QA0K+782SZbBEq2FQA6RgsAum47BL4axQAUyiL9vmaPBtYqi
QC6+CMDbkZzB9A29QN66qD+je6bBkQ/LQM/whT/JE7HB6TurQKP6icBHmJTB9DmGQDSFVUBAEpbB
FOLBQCa3pkDN1qfB0E7VQCsgxEBNW7DBpqPVQGzxi0B5oL3BPgfOQIqtN0CbE5fBPRjPQG0yb0AB
IqrBHRrDQOZvVkCItrXB5QC6QJlgL0BCMqLB9b1eQK4wO8BTio/B1b6MQEjmQ0CGO6DBVag+QEtc
b0BS3JHBk7rUQGlhA0DfPLjBwe+qQH46SkBOHpDBO3jHQFNntkD00rrBplLBQLrRrsAVb5PBdSnG
QOl2F8DxbrDBT1zbQAu1/74HcLzB7UyiQH3d7z4wIZjBGhLWQC7bX8ARg6DBhg5XQFPIhL8w5ZbB
+O50QNbsmsC8J4nB6qjNQDY3sEDB5J/B38ueQJtrqUApCqjB8K3KQLI15UD9867Bdm34QAGdwkAF
5q/BLcz4QDKvikAhVr3Bo7DKQI8yhEBWw8XBBa/dQOP79j//uZTBgJLlQJ3/a0A57ZbBRQnyQLcy
akBkRanB3AmgQMmEVUCLerbBhAJsQClkREBR3KXBoD45QI4be0CUBorBPuQLQApGdkClp5bB

>  <OMEGA_E>  (121) 
gPIoPEDBVz4=

>  <OMEGA_NBR>  (121) 
     48083

$$$$
50097318
     RDKit          3D

 47 51  0  0  1  0  0  0  0  0999 V2000
    2.3812   -2.8291  -17.0831 C   0  0  0  0  0  0  0  0  0  0  0  0
    5.4423   -4.3558  -18.6089 C   0  0  0  0  0  0  0  0  0  0  0  0
    4.2947   -4.1880  -17.8109 C   0  0  0  0  0  0  0  0  0  0  0  0
    5.8407   -3.3379  -19.4920 C   0  0  0  0  0  0  0  0  0  0  0  0
    6.0438   -1.3337  -21.7343 C   0  0  0  0  0  0  0  0  0  0  0  0
    6.4122   -0.2769  -22.5807 C   0  0  0  0  0  0  0  0  0  0  0  0
    3.9452   -1.9736  -18.7676 C   0  0  0  0  0  0  0  0  0  0  0  0
    5.4613    0.2670  -19.9912 C   0  0  0  0  0  0  0  0  0  0  0  0
    3.5438   -2.9983  -17.8937 C   0  0  0  0  0  0  0  0  0  0  0  0
    5.0977   -2.1411  -19.5674 C   0  0  0  0  0  0  0  0  0  0  0  0
    5.5378   -1.0583  -20.4475 C   0  0  0  0  0  0  0  0  0  0  0  0
    5.8839    1.3277  -20.8094 C   0  0  0  0  0  0  0  0  0  0  0  0
    6.3027    1.0545  -22.1399 C   0  0  0  0  0  0  0  0  0  0  0  0
    4.1847    3.3367  -18.7550 C   0  0  0  0  0  0  0  0  0  0  0  0
    6.0991    5.2186  -20.9873 C   0  0  0  0  0  0  0  0  0  0  0  0
    6.7281    6.1210  -22.0554 C   0  0  0  0  0  0  0  0  0  0  0  0
    6.6949    4.3632  -23.7095 C   0  0  0  0  0  0  0  0  0  0  0  0
    6.4311    2.8787  -18.8832 C   0  0  0  0  0  0  0  0  0  0  0  0
    6.4798    3.7376  -21.2699 C   0  0  2  0  0  0  0  0  0  0  0  0
    6.0898    3.3606  -22.7161 C   0  0  2  0  0  0  0  0  0  0  0  0
    5.8052    2.7532  -20.2740 C   0  0  1  0  0  0  0  0  0  0  0  0
    1.4343   -2.6958  -16.4166 N   0  0  0  0  0  0  0  0  0  0  0  0
    4.3958    3.0956  -20.0311 N   0  0  0  0  0  0  0  0  0  0  0  0
    2.9598    3.7041  -18.2232 N   0  0  0  0  0  0  0  0  0  0  0  0
    6.6074    2.0546  -23.0379 O   0  0  0  0  0  0  0  0  0  0  0  0
    5.3342    3.1667  -18.0122 O   0  0  0  0  0  0  0  0  0  0  0  0
    6.2874    5.7011  -23.3640 O   0  0  0  0  0  0  0  0  0  0  0  0
    6.0171   -5.2677  -18.5423 H   0  0  0  0  0  0  0  0  0  0  0  0
    3.9892   -4.9724  -17.1341 H   0  0  0  0  0  0  0  0  0  0  0  0
    6.7147   -3.4716  -20.1122 H   0  0  0  0  0  0  0  0  0  0  0  0
    6.1477   -2.3556  -22.0678 H   0  0  0  0  0  0  0  0  0  0  0  0
    6.7811   -0.4864  -23.5739 H   0  0  0  0  0  0  0  0  0  0  0  0
    3.3735   -1.0593  -18.8277 H   0  0  0  0  0  0  0  0  0  0  0  0
    5.0748    0.4726  -19.0039 H   0  0  0  0  0  0  0  0  0  0  0  0
    6.4728    5.5101  -19.9946 H   0  0  0  0  0  0  0  0  0  0  0  0
    5.0048    5.3273  -21.0135 H   0  0  0  0  0  0  0  0  0  0  0  0
    6.4202    7.1627  -21.8822 H   0  0  0  0  0  0  0  0  0  0  0  0
    7.8241    6.0481  -21.9973 H   0  0  0  0  0  0  0  0  0  0  0  0
    7.7923    4.2953  -23.6737 H   0  0  0  0  0  0  0  0  0  0  0  0
    6.3458    4.1263  -24.7254 H   0  0  0  0  0  0  0  0  0  0  0  0
    6.9199    1.9372  -18.5921 H   0  0  0  0  0  0  0  0  0  0  0  0
    7.1672    3.6958  -18.8621 H   0  0  0  0  0  0  0  0  0  0  0  0
    7.5704    3.6371  -21.1678 H   0  0  0  0  0  0  0  0  0  0  0  0
    4.9939    3.3751  -22.8091 H   0  0  0  0  0  0  0  0  0  0  0  0
    3.6924    3.1393  -20.7405 H   0  0  0  0  0  0  0  0  0  0  0  0
    2.8691    3.8641  -17.2403 H   0  0  0  0  0  0  0  0  0  0  0  0
    2.1660    3.8093  -18.8223 H   0  0  0  0  0  0  0  0  0  0  0  0
  1  9  1  0
  1 22  3  0
  2  3  2  0
  2  4  1  0
  3  9  1  0
  4 10  2  0
  5  6  2  0
  5 11  1  0
  6 13  1  0
  7  9  2  0
  7 10  1  0
  8 11  2  0
  8 12  1  0
 10 11  1  0
 12 13  2  0
 12 21  1  0
 13 25  1  0
 14 23  2  0
 14 24  1  0
 14 26  1  0
 15 16  1  0
 15 19  1  0
 16 27  1  0
 17 20  1  0
 17 27  1  0
 21 18  1  1
 18 26  1  0
 19 20  1  0
 19 21  1  0
 20 25  1  0
 21 23  1  0
  2 28  1  0
  3 29  1  0
  4 30  1  0
  5 31  1  0
  6 32  1  0
  7 33  1  0
  8 34  1  0
 15 35  1  0
 15 36  1  0
 16 37  1  0
 16 38  1  0
 17 39  1  0
 17 40  1  0
 18 41  1  0
 18 42  1  0
 19 43  1  6
 20 44  1  1
 23 45  1  0
 24 46  1  0
 24 47  1  0
M  CHG  1  23   1
M  END
>  <OMEGA_C>  (122) 
92QYQPEPNcA1qojBRieuQGxii8AR35TB122JQHwEhsCrfI7B+ua6QPWfVcCg75vBEmfBQCC1qr/a
363BzDDNQNTEjb47pbTBTH58QO6f/L8SJJbBGsOuQNCtiD4G7p/B3s1iQLDkP8BGJo/BFiCjQHII
CcAVipzBbDWxQCR3h79zlKPBh0i8QPvwqT+zeabBlK/JQBb6hj+ZHrHBM+mFQOCLVUAmCpbBAizD
QJL+pkDm5afBSkzXQGTfw0B9cbDB9TzWQJKfi0AXrb3BfcvNQDA8OEC2EJfBqFrPQCE0b0DNKKrB
49/CQN8TV0ClurXBEMS5QAA0MEAOMaLB4JW3P4mILMAsVYPBkqqMQNIdRkCYP6DB/Ww9QGsPbUAv
yZHBKnDTQFV/A0CvTbjBGLKqQImqSkAIGZDBoDLJQI5vtkB26brB4IvAQNuQqMC2VpTBTU9/QJUd
n8C8EonBq97WQGsvXsDQ5aDB/rnEQELCFsDbirDBof7YQPIG+b5Ol7zBFudXQL+Yh780n5bB5GSi
QDLz8T4NCJjBeSHPQAtTsED69J/BeSegQNd4qkCsG6jBFHLNQDo15UC3Dq/BCl/6QB2KwUBg+q/B
MFr5QCJziUDXY73BABHLQN0KhECYzcXBpG/dQH729z+QvJTB1VnlQMSHbECF5ZbBGUHyQM/FaECm
V6nBr82fQI8BWEDzeLbB/k9sQCXqSEB37KXBmp83QAFNd0Ae7InBsZ8KQB3Mc0D9k5bB

>  <OMEGA_E>  (122) 
yDNJPg==

>  <OMEGA_NBR>  (122) 
     49181

$$$$
361715
     RDKit          3D

 44 48  0  0  1  0  0  0  0  0999 V2000
    1.3398   -2.8992  -16.5074 C   0  0  0  0  0  0  0  0  0  0  0  0
    2.3589   -2.9656  -17.1622 C   0  0  0  0  0  0  0  0  0  0  0  0
    6.0159   -1.3631  -21.7361 C   0  0  0  0  0  0  0  0  0  0  0  0
    6.4300   -0.3447  -22.6064 C   0  0  0  0  0  0  0  0  0  0  0  0
    3.9206   -1.9814  -18.7716 C   0  0  0  0  0  0  0  0  0  0  0  0
    5.3585    0.3081  -20.0879 C   0  0  0  0  0  0  0  0  0  0  0  0
    4.3652   -4.1974  -17.8782 C   0  0  0  0  0  0  0  0  0  0  0  0
    5.8462   -3.2998  -19.4549 C   0  0  0  0  0  0  0  0  0  0  0  0
    3.5538   -3.0447  -17.9354 C   0  0  0  0  0  0  0  0  0  0  0  0
    5.4890   -1.0413  -20.4696 C   0  0  0  0  0  0  0  0  0  0  0  0
    5.0825   -2.1131  -19.5518 C   0  0  0  0  0  0  0  0  0  0  0  0
    5.8011    1.3395  -20.9447 C   0  0  0  0  0  0  0  0  0  0  0  0
    6.3619    1.0021  -22.2094 C   0  0  0  0  0  0  0  0  0  0  0  0
    4.2544    3.4268  -18.8054 C   0  0  0  0  0  0  0  0  0  0  0  0
    6.4876    3.0022  -19.1833 C   0  0  0  0  0  0  0  0  0  0  0  0
    7.3165    3.1749  -22.4554 C   0  0  0  0  0  0  0  0  0  0  0  0
    5.0363    4.3168  -22.5889 C   0  0  0  0  0  0  0  0  0  0  0  0
    6.3432    5.2784  -21.2696 C   0  0  0  0  0  0  0  0  0  0  0  0
    5.6985    2.7936  -20.4800 C   0  0  1  0  0  0  0  0  0  0  0  0
    6.1641    3.7518  -21.6322 C   0  0  0  0  0  0  0  0  0  0  0  0
    5.4875   -4.3072  -18.6267 N   0  0  0  0  0  0  0  0  0  0  0  0
    4.3198    3.0903  -20.0717 N   0  0  0  0  0  0  0  0  0  0  0  0
    3.0684    3.7506  -18.1656 N   0  0  0  0  0  0  0  0  0  0  0  0
    6.8716    1.9511  -23.0766 O   0  0  0  0  0  0  0  0  0  0  0  0
    5.5039    3.4135  -18.2186 O   0  0  0  0  0  0  0  0  0  0  0  0
    5.3427    5.6170  -22.1814 O   0  0  0  0  0  0  0  0  0  0  0  0
    0.4494   -2.8412  -15.9352 H   0  0  0  0  0  0  0  0  0  0  0  0
    6.1010   -2.3968  -22.0373 H   0  0  0  0  0  0  0  0  0  0  0  0
    6.8037   -0.5966  -23.5879 H   0  0  0  0  0  0  0  0  0  0  0  0
    3.3244   -1.0819  -18.8155 H   0  0  0  0  0  0  0  0  0  0  0  0
    4.9169    0.5556  -19.1339 H   0  0  0  0  0  0  0  0  0  0  0  0
    4.0848   -5.0092  -17.2234 H   0  0  0  0  0  0  0  0  0  0  0  0
    6.7370   -3.4039  -20.0566 H   0  0  0  0  0  0  0  0  0  0  0  0
    6.9713    2.0657  -18.8687 H   0  0  0  0  0  0  0  0  0  0  0  0
    7.2512    3.7829  -19.3153 H   0  0  0  0  0  0  0  0  0  0  0  0
    7.6157    3.8961  -23.2302 H   0  0  0  0  0  0  0  0  0  0  0  0
    8.1734    2.9665  -21.7980 H   0  0  0  0  0  0  0  0  0  0  0  0
    5.2167    4.1266  -23.6572 H   0  0  0  0  0  0  0  0  0  0  0  0
    4.0191    3.9914  -22.3251 H   0  0  0  0  0  0  0  0  0  0  0  0
    6.0993    5.5227  -20.2252 H   0  0  0  0  0  0  0  0  0  0  0  0
    7.3341    5.6854  -21.5196 H   0  0  0  0  0  0  0  0  0  0  0  0
    3.5294    3.0419  -20.6824 H   0  0  0  0  0  0  0  0  0  0  0  0
    3.0748    4.0013  -17.1976 H   0  0  0  0  0  0  0  0  0  0  0  0
    2.2062    3.7334  -18.6719 H   0  0  0  0  0  0  0  0  0  0  0  0
  1  2  3  0
  2  9  1  0
  3  4  2  0
  3 10  1  0
  4 13  1  0
  5  9  2  0
  5 11  1  0
  6 10  2  0
  6 12  1  0
  7  9  1  0
  7 21  2  0
  8 11  2  0
  8 21  1  0
 10 11  1  0
 12 13  2  0
 12 19  1  0
 13 24  1  0
 14 22  2  0
 14 23  1  0
 14 25  1  0
 19 15  1  1
 15 25  1  0
 16 20  1  0
 16 24  1  0
 17 20  1  0
 17 26  1  0
 18 20  1  0
 18 26  1  0
 19 20  1  0
 19 22  1  0
  1 27  1  0
  3 28  1  0
  4 29  1  0
  5 30  1  0
  6 31  1  0
  7 32  1  0
  8 33  1  0
 15 34  1  0
 15 35  1  0
 16 36  1  0
 16 37  1  0
 17 38  1  0
 17 39  1  0
 18 40  1  0
 18 41  1  0
 22 42  1  0
 23 43  1  0
 23 44  1  0
M  CHG  1  22   1
M  END
>  <OMEGA_C>  (123) 
v36rPwmNOcAVD4TBlvgWQIbMPcBHTInBV4LAQDJ6rr+J463B18LNQBCAsL702bTBaup6QJKe/b8r
LJbBc3irQCTAnT4ctKDBaa+LQBJRhsB2Bo/BDhS7QMUvU8Ceo5vBMHJjQMTcQsCbe4/BvaWvQBVK
hb+mwaPBIaSiQOA8B8ADapzBw6K5QKt0qz+7jqfBhZTLQHBFgD/RrLHBXSSIQHZQW0CIcZbBk5rP
QN0kQEBSd5nB9yDqQOkxS0C7pLPBVSmhQCQjikD6tbTBQ/vKQKjoqEAkKKrBKVq2QDLKMkAd16PB
hUDFQDsecEDTDq3B8pmvQNDUicBpA5XBpDuKQE3HRUDVkqDBVmBEQB8JcEAaU5HBZeTbQFq9+T/Y
nLjB0R+wQC52WkC1v5HBpPeqQFy+s0CBc7HB7BXmPuHWNcCE9n7BsjvDQGtkGcBkTLDB4bfZQEy7
GL8OtLzB6sJUQHZ8ir8phpbBmledQKc6Dj8zEpnB+raCQK9LoMB8yYnBK5XXQE3aWcD9c6DBMRXf
QMM0BEAq85bB3QnoQNYbckDWhZrBLLTzQFxaeUCE17nBYsYCQaXaPUBAYq7BF++mQC0NhEDhQb3B
4JyAQFdzf0DjmbLBUy3DQBa6sEAnzaHBp7DqQKzutUAgKKzBCOJhQLmuQkCcdaXBP8lEQOsKgECX
lInB5DINQLzvbkAjYJXBiKTVQCu7zMBi9I/BwurBQDDXq8DcdZHB78fDQIO6pr+QNa3BPF7OQCRw
k77nibTBklC6QGDSTcB1kZrBo8+wQFqVxT7NA6DBe8OFQE7qd8ClNo3Bl3t+QJAm478nVpXBEg6r
QNv5hMDjKpPBmJ2zQDykdr8UB6PBZlGkQNLP/7/am5vBXiS8QGmrtD+RM6fBPVPJQGvLiD+JwLHB
5yOGQKR5UEDQa5bBfAvOQGpCSEC385jBDuq6QOBRUkBsBbjBPji7QMdjq0DtEavBjov1QDw4i0Bw
Y6zBepO3QJ6aN0BpqaPBEeHFQOP1dEBz36zB0gxhQAAKLcB4Y47BM56KQPrxSEA536DBYWs/QK7d
X0CSQJHBYbbQQOyBAUCWkrnB/4ysQJwTREALPJHBmbjmQIg7tEAv6anBpuDmQOt36cCVo47BfgXI
QPO9FcB+X6/BbHLaQPLdDL9rW7zBKFDWQFsdW8BeWp/BEdKlQEojJD/+FJjBiNxzQHxsk8BAmofB
b5tcQEqfVr+gH5bBmGHmQAz9FkCUX5fBnDHdQBfng0D66JjBKySYQPOtSEBmqrjBbWzFQPkigED3
Jb7BdkCsQKMRu0DkALLB0RmoQGfSsUC726PB4XkEQZrceECuC6bBpmADQaYriUA+DLTBcZBlQE5G
TkD8KqbBs3A9QNyGYkBSQ4nB4eQJQMRRaEBAgpXB3UjNQFCqzcDWWpDB+pe6QKkrrMDp2pHB1+y/
QOstqr+Cmq3BVWfOQIxpqb6IpbTBnyu0QFceTsCrApvBjFCqQM6TxD7f3qDBEl9/QBoNdsBPio3B
DnRzQKNj4L+5y5XB8KukQFK9hMDTiJPB+uCtQFP0eL8QqKPBYnGeQDui/7+hJJzBlha5QAtBsj/q
zqfBEh/MQN6Qgz/Su7HBa4aIQHDWU0BgX5bBTFLQQJJvQkAU15nB0KDrQJqxTECYrrPBWc6hQBGy
iEDgYrXBLw7JQMxXqkCbxqrBs8e2QE9lNkAhK6TBCvXFQIMMckBWcK3Bvd9VQK61KsBGvo7BvAuL
QDOqTEBD0qDBJ+JEQM5nYUCm8pDBe87dQCkc+z+ZobjBNTWwQPPxSUATqJHBqvmmQN6FskD2sbHB
aZ3dQPjt6sBFC4/B4p3CQLC0F8C7zq/BhF3bQJmNG78HWLzBfBzQQLY1XMDQx5/Baw6cQJYYKD/9
TpnBnFtnQL4qksBU3ofBpTdSQF3FT7+5nJbB5BDlQLjXCkDJVpjBE/bjQB7FfEBPPprBwOn1QEc1
ekA54rnBPTcDQUHtP0CdNK7BV7qpQLRhhEBz5L3B0wmCQH76dUAmxLPBVWzCQGA1skAvXKLBzGXn
QLZEuUBvOK3B1PlkQKU1VUCB1qXB/55EQC23ZEBo9YjBXjEOQGfiZ0DzBZXB

>  <OMEGA_E>  (123) 
gAPXPmCkGj+i9Ro/

>  <OMEGA_NBR>  (123) 
     52852

$$$$
50248132
     RDKit          3D

 58 62  0  0  1  0  0  0  0  0999 V2000
    6.1487   -1.3250  -21.7047 C   0  0  0  0  0  0  0  0  0  0  0  0
    6.6740    5.6325  -23.3620 C   0  0  0  0  0  0  0  0  0  0  0  0
    6.5008   -0.2680  -22.5469 C   0  0  0  0  0  0  0  0  0  0  0  0
    6.8355    4.2743  -23.6353 C   0  0  0  0  0  0  0  0  0  0  0  0
    5.4485    0.2683  -19.9989 C   0  0  0  0  0  0  0  0  0  0  0  0
    5.9707    5.0949  -21.0925 C   0  0  0  0  0  0  0  0  0  0  0  0
    5.9155   -3.3418  -19.5164 C   0  0  0  0  0  0  0  0  0  0  0  0
    4.0176   -2.0319  -18.7774 C   0  0  0  0  0  0  0  0  0  0  0  0
    4.4030   -4.1784  -17.9489 C   0  0  0  0  0  0  0  0  0  0  0  0
    5.5969   -1.0553  -20.4385 C   0  0  0  0  0  0  0  0  0  0  0  0
    5.1727   -2.1496  -19.5750 C   0  0  0  0  0  0  0  0  0  0  0  0
    5.8432    1.3341  -20.8217 C   0  0  0  0  0  0  0  0  0  0  0  0
    6.1041    3.7282  -21.3654 C   0  0  0  0  0  0  0  0  0  0  0  0
    6.1947    6.0277  -22.1056 C   0  0  0  0  0  0  0  0  0  0  0  0
    6.3377    1.0603  -22.1260 C   0  0  0  0  0  0  0  0  0  0  0  0
    6.5281    3.3144  -22.6580 C   0  0  0  0  0  0  0  0  0  0  0  0
    4.1662    3.4518  -18.7273 C   0  0  0  0  0  0  0  0  0  0  0  0
    6.4027    2.9762  -18.9846 C   0  0  0  0  0  0  0  0  0  0  0  0
    5.6723    2.7435  -20.3117 C   0  0  2  0  0  0  0  0  0  0  0  0
    6.5691   10.3914  -22.1832 C   0  0  0  0  0  0  0  0  0  0  0  0
    8.0544   10.1789  -20.1532 C   0  0  0  0  0  0  0  0  0  0  0  0
    5.5717    9.7817  -19.9298 C   0  0  0  0  0  0  0  0  0  0  0  0
    5.8758    7.4496  -21.8503 C   0  0  0  0  0  0  0  0  0  0  0  0
    7.0692    8.1058  -21.1513 C   0  0  0  0  0  0  0  0  0  0  0  0
    6.8049    9.6056  -20.8616 C   0  0  0  0  0  0  0  0  0  0  0  0
    5.5223   -4.3366  -18.6991 N   0  0  0  0  0  0  0  0  0  0  0  0
    3.6473   -3.0521  -17.9801 N   0  0  0  0  0  0  0  0  0  0  0  0
    4.2651    2.9816  -19.9530 N   0  0  0  0  0  0  0  0  0  0  0  0
    2.9728    3.8418  -18.1400 N   0  0  0  0  0  0  0  0  0  0  0  0
    6.6662    2.0098  -23.0636 O   0  0  0  0  0  0  0  0  0  0  0  0
    5.4038    3.5373  -18.1200 O   0  0  0  0  0  0  0  0  0  0  0  0
    6.2992   -2.3457  -22.0240 H   0  0  0  0  0  0  0  0  0  0  0  0
    6.9159    6.3721  -24.1109 H   0  0  0  0  0  0  0  0  0  0  0  0
    6.9012   -0.4745  -23.5285 H   0  0  0  0  0  0  0  0  0  0  0  0
    7.1984    3.9598  -24.6026 H   0  0  0  0  0  0  0  0  0  0  0  0
    5.0289    0.4678  -19.0240 H   0  0  0  0  0  0  0  0  0  0  0  0
    5.6956    5.4258  -20.1019 H   0  0  0  0  0  0  0  0  0  0  0  0
    6.7995   -3.4593  -20.1257 H   0  0  0  0  0  0  0  0  0  0  0  0
    3.4304   -1.1259  -18.8053 H   0  0  0  0  0  0  0  0  0  0  0  0
    4.1000   -4.9850  -17.2977 H   0  0  0  0  0  0  0  0  0  0  0  0
    6.7812    2.0271  -18.5773 H   0  0  0  0  0  0  0  0  0  0  0  0
    7.2396    3.6773  -19.1188 H   0  0  0  0  0  0  0  0  0  0  0  0
    5.6817    9.9910  -22.6952 H   0  0  0  0  0  0  0  0  0  0  0  0
    6.4109   11.4555  -21.9537 H   0  0  0  0  0  0  0  0  0  0  0  0
    7.4484   10.2839  -22.8354 H   0  0  0  0  0  0  0  0  0  0  0  0
    8.2300    9.6295  -19.2166 H   0  0  0  0  0  0  0  0  0  0  0  0
    8.9298   10.0719  -20.8106 H   0  0  0  0  0  0  0  0  0  0  0  0
    7.8923   11.2435  -19.9288 H   0  0  0  0  0  0  0  0  0  0  0  0
    5.7361    9.2267  -18.9943 H   0  0  0  0  0  0  0  0  0  0  0  0
    5.4330   10.8491  -19.7032 H   0  0  0  0  0  0  0  0  0  0  0  0
    4.6737    9.3939  -20.4330 H   0  0  0  0  0  0  0  0  0  0  0  0
    5.6791    7.9612  -22.8040 H   0  0  0  0  0  0  0  0  0  0  0  0
    4.9865    7.5191  -21.2067 H   0  0  0  0  0  0  0  0  0  0  0  0
    7.2563    7.5857  -20.2003 H   0  0  0  0  0  0  0  0  0  0  0  0
    7.9547    8.0175  -21.7979 H   0  0  0  0  0  0  0  0  0  0  0  0
    3.4884    2.8094  -20.5588 H   0  0  0  0  0  0  0  0  0  0  0  0
    2.9707    4.2157  -17.2126 H   0  0  0  0  0  0  0  0  0  0  0  0
    2.1139    3.7492  -18.6438 H   0  0  0  0  0  0  0  0  0  0  0  0
  1  3  2  0
  1 10  1  0
  2  4  1  0
  2 14  2  0
  3 15  1  0
  4 16  2  0
  5 10  2  0
  5 12  1  0
  6 13  2  0
  6 14  1  0
  7 11  2  0
  7 26  1  0
  8 11  1  0
  8 27  2  0
  9 26  2  0
  9 27  1  0
 10 11  1  0
 12 15  2  0
 12 19  1  0
 13 16  1  0
 13 19  1  0
 14 23  1  0
 15 30  1  0
 16 30  1  0
 17 28  2  0
 17 29  1  0
 17 31  1  0
 19 18  1  1
 18 31  1  0
 19 28  1  0
 20 25  1  0
 21 25  1  0
 22 25  1  0
 23 24  1  0
 24 25  1  0
  1 32  1  0
  2 33  1  0
  3 34  1  0
  4 35  1  0
  5 36  1  0
  6 37  1  0
  7 38  1  0
  8 39  1  0
  9 40  1  0
 18 41  1  0
 18 42  1  0
 20 43  1  0
 20 44  1  0
 20 45  1  0
 21 46  1  0
 21 47  1  0
 21 48  1  0
 22 49  1  0
 22 50  1  0
 22 51  1  0
 23 52  1  0
 23 53  1  0
 24 54  1  0
 24 55  1  0
 28 56  1  0
 29 57  1  0
 29 58  1  0
M  CHG  1  28   1
M  END
>  <OMEGA_C>  (124) 
6MHEQAyZqb9Eo63Bj5HVQF49tEBf5brBewbQQJY5ib4kYLTBK7zaQBzHiEADFb3B+VmuQNpgiT7Z
/Z/BJBC/QKMJo0B0vajB/Uu9QNjfVcCnIZzBDJCAQPoKAsAgOJbBJuWMQCS1hcBKl4/BMBqzQN8U
h78BgqPBBoelQJeSCcCKmZzBsvu6QOTDqj/hkqbBLFXDQBSabkBp7KrBIzvGQBvjwEBQ2LDBes7K
QNa4hz8RArHBbObQQGgfVECCQ7XBVVGFQILpXECG0ZXBkOLMQG15PkCH4JfBYYO1QAyWL0BnfqLB
YzbSQEpDJkEwd7HBx94AQc3cIkHQOaHBdEuyQLiBHEEkcJ/BrAa8QDBj7kCDza7BCTfiQECxAUHs
NanBvcHZQGqwGUF/5KbBV7awQDXFisDRl5XBum1pQL9VQ8A814/B23uIQNfSPkC0n5/BqEI+QFjf
dUDIHpHBTFHVQO+gAEAzgrjBDuysQOJjYkC99ZDBbpPJQCMfFsA7MbDB4E7dQD3oy0Ap48DBYtbc
QGH28r5dOrzBQFnmQBhtfUAk0sTBBe2gQGeG7z4ZMZjBGUK2QNufrUDC0KDBhJXZQMpkXcBlAaHB
zItbQO8dkL8ucZbBjTODQCOFn8DIYYrBXv/YQIC7AUA8npTBZarnQAFZa0BR85jB0dC1QP/aH0HI
j7XBySXNQMJJN0Edoa/B8VjuQKmKJEH0rrbB+q0DQWMSGkGPu5nBnuAOQVYmIUEZfKbBFY78QG/l
M0FCbp/BEY63QL+gE0Ff9JfB7dqtQOuVLUEWoJ3BBY+VQIRNFkHFdqPB5bq1QFfC/kCvbrbBgpGf
QJuc8EBHp6nB2zPoQFi+8kAdmqHBPo3+QJ5HAEEZYq7B4kFfQKvNM0B7eKTBKSA+QO7mhkBbs4nB
xEoHQPjyb0BzJpXB

>  <OMEGA_E>  (124) 
QCjYPg==

>  <OMEGA_NBR>  (124) 
     54119

$$$$
50248146
     RDKit          3D

 57 61  0  0  1  0  0  0  0  0999 V2000
    3.5761   -3.0542  -17.9768 C   0  0  0  0  0  0  0  0  0  0  0  0
    3.9670   -1.9801  -18.7857 C   0  0  0  0  0  0  0  0  0  0  0  0
    6.1660   -1.3137  -21.6828 C   0  0  0  0  0  0  0  0  0  0  0  0
    6.5914   -0.2677  -22.5068 C   0  0  0  0  0  0  0  0  0  0  0  0
    6.8262    4.2577  -23.6985 C   0  0  0  0  0  0  0  0  0  0  0  0
    6.4676    5.6008  -23.5291 C   0  0  0  0  0  0  0  0  0  0  0  0
    5.4180    0.2982  -20.0176 C   0  0  0  0  0  0  0  0  0  0  0  0
    5.5440    5.0707  -21.3440 C   0  0  0  0  0  0  0  0  0  0  0  0
    4.3579   -4.2279  -17.9672 C   0  0  0  0  0  0  0  0  0  0  0  0
    5.8665   -3.3208  -19.5105 C   0  0  0  0  0  0  0  0  0  0  0  0
    5.5770   -1.0308  -20.4350 C   0  0  0  0  0  0  0  0  0  0  0  0
    5.1303   -2.1178  -19.5688 C   0  0  0  0  0  0  0  0  0  0  0  0
    5.8331    1.3523  -20.8453 C   0  0  0  0  0  0  0  0  0  0  0  0
    5.9154    3.7287  -21.4965 C   0  0  0  0  0  0  0  0  0  0  0  0
    6.4357    1.0661  -22.0996 C   0  0  0  0  0  0  0  0  0  0  0  0
    6.5478    3.3128  -22.6962 C   0  0  0  0  0  0  0  0  0  0  0  0
    5.8311    6.0145  -22.3480 C   0  0  0  0  0  0  0  0  0  0  0  0
    4.1858    3.4297  -18.7027 C   0  0  0  0  0  0  0  0  0  0  0  0
    6.4238    3.0753  -19.1133 C   0  0  0  0  0  0  0  0  0  0  0  0
    5.6146    2.7644  -20.3739 C   0  0  2  0  0  0  0  0  0  0  0  0
    8.0985    6.8493  -20.4958 C   0  0  0  0  0  0  0  0  0  0  0  0
    7.8335    9.1694  -21.4650 C   0  0  0  0  0  0  0  0  0  0  0  0
    7.2618    8.7114  -19.0426 C   0  0  0  0  0  0  0  0  0  0  0  0
    5.7328    7.9128  -20.8605 C   0  0  0  0  0  0  0  0  0  0  0  0
    7.2286    8.1397  -20.4807 C   0  0  0  0  0  0  0  0  0  0  0  0
    5.4779   -4.3440  -18.7205 N   0  0  0  0  0  0  0  0  0  0  0  0
    4.2229    2.9357  -19.9217 N   0  0  0  0  0  0  0  0  0  0  0  0
    3.0275    3.8709  -18.0826 N   0  0  0  0  0  0  0  0  0  0  0  0
    6.9055    2.0143  -22.9828 O   0  0  0  0  0  0  0  0  0  0  0  0
    5.4453    3.4683  -18.1384 O   0  0  0  0  0  0  0  0  0  0  0  0
    5.5501    7.3534  -22.1929 O   0  0  0  0  0  0  0  0  0  0  0  0
    2.6869   -2.9846  -17.3678 H   0  0  0  0  0  0  0  0  0  0  0  0
    3.3901   -1.0674  -18.8090 H   0  0  0  0  0  0  0  0  0  0  0  0
    6.2889   -2.3379  -22.0026 H   0  0  0  0  0  0  0  0  0  0  0  0
    7.0429   -0.4875  -23.4629 H   0  0  0  0  0  0  0  0  0  0  0  0
    7.3206    3.9456  -24.6065 H   0  0  0  0  0  0  0  0  0  0  0  0
    6.6807    6.3186  -24.3074 H   0  0  0  0  0  0  0  0  0  0  0  0
    4.9746    0.5112  -19.0561 H   0  0  0  0  0  0  0  0  0  0  0  0
    5.0318    5.3845  -20.4465 H   0  0  0  0  0  0  0  0  0  0  0  0
    4.0559   -5.0559  -17.3430 H   0  0  0  0  0  0  0  0  0  0  0  0
    6.7587   -3.4246  -20.1101 H   0  0  0  0  0  0  0  0  0  0  0  0
    6.9720    2.1837  -18.7748 H   0  0  0  0  0  0  0  0  0  0  0  0
    7.1346    3.8936  -19.3009 H   0  0  0  0  0  0  0  0  0  0  0  0
    7.6742    6.1123  -19.7980 H   0  0  0  0  0  0  0  0  0  0  0  0
    8.1109    6.4274  -21.5116 H   0  0  0  0  0  0  0  0  0  0  0  0
    9.1255    7.0960  -20.1886 H   0  0  0  0  0  0  0  0  0  0  0  0
    7.2234   10.0847  -21.4597 H   0  0  0  0  0  0  0  0  0  0  0  0
    8.8610    9.4120  -21.1561 H   0  0  0  0  0  0  0  0  0  0  0  0
    7.8464    8.7434  -22.4791 H   0  0  0  0  0  0  0  0  0  0  0  0
    6.6543    9.6274  -18.9975 H   0  0  0  0  0  0  0  0  0  0  0  0
    6.8547    7.9669  -18.3427 H   0  0  0  0  0  0  0  0  0  0  0  0
    8.3000    8.9461  -18.7653 H   0  0  0  0  0  0  0  0  0  0  0  0
    5.2888    7.2217  -20.1288 H   0  0  0  0  0  0  0  0  0  0  0  0
    5.2113    8.8802  -20.8144 H   0  0  0  0  0  0  0  0  0  0  0  0
    3.4163    2.7075  -20.4669 H   0  0  0  0  0  0  0  0  0  0  0  0
    3.0688    4.2512  -17.1587 H   0  0  0  0  0  0  0  0  0  0  0  0
    2.1506    3.8090  -18.5592 H   0  0  0  0  0  0  0  0  0  0  0  0
  1  2  2  0
  1  9  1  0
  2 12  1  0
  3  4  2  0
  3 11  1  0
  4 15  1  0
  5  6  1  0
  5 16  2  0
  6 17  2  0
  7 11  2  0
  7 13  1  0
  8 14  2  0
  8 17  1  0
  9 26  2  0
 10 12  2  0
 10 26  1  0
 11 12  1  0
 13 15  2  0
 13 20  1  0
 14 16  1  0
 14 20  1  0
 15 29  1  0
 16 29  1  0
 17 31  1  0
 18 27  2  0
 18 28  1  0
 18 30  1  0
 20 19  1  1
 19 30  1  0
 20 27  1  0
 21 25  1  0
 22 25  1  0
 23 25  1  0
 24 25  1  0
 24 31  1  0
  1 32  1  0
  2 33  1  0
  3 34  1  0
  4 35  1  0
  5 36  1  0
  6 37  1  0
  7 38  1  0
  8 39  1  0
  9 40  1  0
 10 41  1  0
 19 42  1  0
 19 43  1  0
 21 44  1  0
 21 45  1  0
 21 46  1  0
 22 47  1  0
 22 48  1  0
 22 49  1  0
 23 50  1  0
 23 51  1  0
 23 52  1  0
 24 53  1  0
 24 54  1  0
 27 55  1  0
 28 56  1  0
 28 57  1  0
M  CHG  1  27   1
M  END
>  <OMEGA_C>  (125) 
6N5kQCF4Q8CD0I/BzuJ9QOZ0/b82SZbB/k/FQBcoqL9Kdq3BFO3SQAwPib7dDbTB7W/aQOY+iEBv
lr3BM/bOQGw5s0CeO7zB+F+tQAK0mD74I6DBH2ixQNZCokCPwKrBEnSLQApLh8DYvI/BUbq7QGKH
VMCQFZzBsnayQD3xg7/NeqPBwSukQFqKB8DmjJzBCKm6QDMZrT8Vw6bBqEq9QA2jbkDt+KvBCfHN
QDJ3iD8FzLDBc4fRQJMEVEDSkbXBZpi6QNp2wEC2yLLBH/KFQHd/W0Atn5XBXo/NQJvRREAZ6JjB
Z6qzQHLsMECx/aLBW5MBQWYt20BO96PBC6z6QO+1EkFquKvBWGDoQApiC0E9V5jBdHO3QGw1/UA0
4qbBtVDnQAg8AkGP2KPBoEqvQLIBi8Cqw5XB9yGHQD3iO0COX5/B+MJBQD+9d0A4qZDBdPncQNTp
AEC83LfBjT+uQJ/4XUBkG5HBfZqxQCRP60AMi7HBg/YrQHwEP8A68YrBLPhYQG2fiL+8eJbBbD7J
QJ2gFcBeBbDBmV/hQG2e+b4StLvBNULqQKCEfEAe2sTB7sfVQOwxykCDdcLBwS+fQKvfAj/acpjB
dgShQOtNrEBkkqPB8smBQKTJocBmvorBhEfYQOssW8CP4aDBXhrfQEDCC0DgMpbBak7kQA0weUA1
aJrBVZP1QDOYw0A9Yp7BQ8YBQXOtzUCwF6zBDwISQXQS40A9gqHBRybnQAFbIUGGravBo8YNQXuX
FkHKP6nBrRX7QPrkC0E91bPBVvDUQN0JGkHx+pfBnVnbQKHw/kDBvZLB+cwEQWsjD0FgH5bBQT6p
QCQY50DSB6HBLsOmQEMVDkHxg6bBM6RaQGVILUBAvKPBsWZEQN8JiED3RInBn6IJQDzHc0AqeZTB
Q+FrQIZCR8C1Vo/BSHCBQDZ+AsAR6pXBZRfEQCCQq79KrK3BUKHOQNTejr7WeLTBxoXbQEodiUDY
lbzBKwPaQOB1tEAf8LnBqAKuQJklfj6D+5/Bc/PAQHKrokC2IKjB7UCPQI75iMAhbI/BStG9QHhs
V8B+KJzB9v+yQECRib8yd6PBefalQBTFCsBocpzBwP25QItqqD+tmqbBokjDQDjSbUBIp6rBhUzJ
QJVchj8WFbHBhEDQQOIRVEDeC7XBe+rLQCeTwUADr6/BBuyEQEFoXUDM6ZXBxSbMQOjQOkBKu5fB
F+W0QJEOLkCzaqLBYReqQBVEBEEq7sLBF06dQDZNHkHM4bPBiJPcQFYyI0FUPMDBM87dQIHtBUF1
kLLBZFrAQPSLEkEEZbrBFGCyQBR8jMBruJXBOPqHQO9BPkCvqJ/B6Oo+QLAAfkBVnZHBKC7TQP+7
AEBajbjBPsOrQBOZWkBxpJDBXNfGQEmd60AMmKzBNBM0QKAoQ8A3RIrB/3ddQCG/kL8B+5XBRAvJ
QPYGF8ADPrDBCPLaQKIp977wYLzBoXTlQLQDf0AsgcTBwqfjQMwozEAHv7/B2dugQIqF5D6+JpjB
RZC2QKhwrEDyQaDBXWyGQI95o8CoVYrBtsHZQE7MXcBNLqHBFCXZQFOQ+z/1yJTBx0bmQGCBaUDK
lJjBMIDCQKGO90AmpMfBh0mVQCEd8UCH6r7BJrqWQJxcDkFhRcjBpXasQCOAKEEMy63BSACKQJdG
KEEES7nBqY+IQIt4EkEq8K/B7JjsQHJ0LUHeT7rBDsr0QMjcGkGUE8XBvmjIQEscLUGPecXB7Df3
QCkk/EBqN7fBjjjsQCBJEUG/46zBVE1eQJgpM0Aig6TB5ag+QM7dikBVL4rBfRUJQNzNfUDg8JXB
w5aoQFtkjMC1XpbB3iq3QJ5PWMCUPJ3BG7HCQMRRp791C67BOk3QQDilgb5Hj7TBvw7XQK6eiEDN
jr3BWj/MQBtts0BW6bvBvDauQPgdkz5tPaDBk1W4QFFqo0CdianBpE2GQDO9g8DnXY/Bx4CAQIso
9r9OtpXBYWuxQIy/hL8G2qPB7deiQFQFCMDy65zBU7e7QG2hrD+FvKbBjUnBQLLPb0CpSKvBDNLM
QDyPiT+3BrHBVSnRQGIAVUC2ZLXBti29QIv8wEDN1bHB7j2GQAhDW0AVupXBSQ7OQAT6QEDTSJjB
+7i1QDBxMEBssKLB2a/QQIzsF0FXgqHBKPIBQS468kBeAqXBXtkGQaVQHEEGoa7B59nOQOiBBUFi
bLPBiy7sQJB9DEHRGarBvORlQNT8OcCEII/B+8+IQDAgPUAUh5/BgG9AQEiXc0Cl5pDBjJXaQM7j
AUCmJbjBzymuQGziYECWCJHBwtawQHB56kDjArDBu3W3QHuWq8Cgb5bBJHHRQGvzY8BSqKLB9WfF
QMfmFMD50LDBkJPdQDqc7L4fXLzBWQrkQNJOfUDiKsXBkWzPQGUzykCDXMLBsT+hQEkf+z7GZZjB
XK2tQEMIrkBMwqHB9WV2QIGlnMAvD4rBB5xhQGsfdr+BeZXBRjrcQOtgBUBrOJXB723nQLvAcEAc
hpnBBQPAQO6ZJUHAJ6XBcga5QNKiDEEkQZ7BZ4LlQLClHUFCBJvBl6sLQTAj4kCHJKvBNWUMQfaU
/UChhZ7BdE7sQDmP20CEwqHBypoQQeIyFEH4ubTBRTb9QMUOKkFxRLLBWT8RQSbxIUFAHKjB6fO8
QNp/E0GcVbbBMrjiQJ4g/kAX77nBJUFfQA2FMEBfNKTBVOBAQLOihUALeInB5R0JQJl3bUC72ZTB
hmuqQCQKi8CF8JXBxt64QINrVcAcyZzBRCvDQDqYpr/N363BGIDQQBxIg775gLTB2hjfQLIoiUAU
Mr3B+gfZQBDMtEBqM7vBZOmsQBCLnj76YaDB0AO2QPwgo0CKbqrBhh+HQC4Lg8DXNI/BbEWAQMLZ
9L/hu5XBGmOxQHxfgr+Bw6PBEmijQHZXBsCtuJzB2rW5QF5Wrj/ADKfBUpO+QEFsb0A3/qvBfhPM
QP69iT/hMLHBHoDSQCndVEBFn7XBiK3EQKoqwkDoxrHBeKCFQH0QWkBHo5XBpizNQClYQkBI8JjB
YnCzQOA5MUBLJaPBZq/nQDQ410Dx9JnBLHftQGopEkFuXp/BIlSzQNcrBkGDl5LB9lqtQDoN/EBo
MqbBKHvNQEUUAEGop5zBQ6FlQIKKOcCpK4/B2OaGQJHuPUBBkZ/BrYpAQBVTcECIVZDBlMLaQGUz
AUBvVLjB5DWuQKPNYEA9V5HBnBnBQDKy7UD/FLDB5CS6QK3PqcBF0JXBpOfTQBICYMCyAKLBWn3G
QFrSFMAOf7DBOUzeQFDi875AOrzBL5XtQNgIfkB3nsTBJArkQA84zEBQ7cDB14ifQIzvBT/9mZjB
NOujQHAbrUCpgaPBXv53QG0WnMAw8YnBscRfQNBKdr+gppXB+VrcQO0oB0CKDpbB7OTlQC4ac0B4
Y5rBUqrRQJ3ovEBm/ZfBI037QMMuzkDY56DB4aD8QNSf3UBIEZPBycDbQI/dIEFLUKHBIC8BQfAZ
FUFTcZjBQYUAQWhhDUHiR6bBpWKgQAKiFEFNPpTBebydQG7Z8UCLfJDBvUbJQFxICUHd44vBVFeU
QID25EAe9aPBUr6eQNfIDUF/nafBZS9aQCatMkAvFaTBAT5DQE+Jg0A43YjB2fcHQKygaUDO+pPB
wkyvQADMisDJK5XBcIy9QFJWVcCjHpzB8RPFQCmOqb897K3Bi+jPQLMqhb7WrbTB9VTaQBVPikA0
u7zBIjrYQIWTtUAeALrBGRWvQBd5hD6RM6DB+xvAQHXuokByLKjBDpiJQHo4hMDzLo/B9UGAQMEK
AMDwiJbB8LCzQNS2h7+CvqPBYb2lQKNICcB4x5zBmTO7QPXcqT8uxqbBDhbDQFSkbkBrx6rBgXfK
QDe8iD/CQ7HByfrPQJ2sVUAFNbXBomzKQPEswkDIra/BOZiFQNWJWkDS4ZXBSiXNQEyUO0AQ6pfB
nZ61QNJPLkCdjKLBMEuoQBxABUH4jcLBufGbQOrFHkGFQ7PBMQbbQNcDJEFwp7/BZ0/cQP9EBkE8
QrLB2sy+QKQ1E0GB7bnBrpdlQL76PsD08Y/B7K+IQAjEPECSsJ/B0Gs/QHRId0A8ZpHB4uDTQI9r
AkBAubjBadWsQBwSW0C+yJDBWT/FQMr+60AwcKzBgf/AQFZSqMD+ZpTBciHaQNwKXsBx2qDBkQjK
QIf9FcA3gbDB4YTcQO8F7L6nj7zBIwLkQMEVgUDdssTBhy7hQLqXzUDJy7/BzxiiQDyB6D47WZjB
lri1QGdQrEApRqDBmEJ9QMUencD92onBYBdcQO7iir8SDZfBdmzaQHmP/T+Y+JTBGBfnQPyYakDx
0pjBY5DAQBHP+UBPX8fB5oeTQP3Y8kAlnb7BZNqUQJmMD0Gex8fBRkirQE++KEHTG63BuI+IQBH0
KEFYj7jBOj2HQPfTEkHeZK/BHTXrQCALLkH1qLnBuBrzQB3QG0F7l8TBZNTGQF8jLkEWycTBoJf1
QLMU/UAQArfBLubqQBBhEUFdfazBhqtfQB6IMUCgh6TB4gk/QJpFh0BU8onBeBUJQB3IdEBanZXB
/8yvQJFIisDYCpXBUMO9QFBrVMCgCpzBkl/EQAGUqL+d5q3BeZ/OQAvEgr4Pu7TBeGbbQOHMiUAm
yLzBha/aQJf9tEB8B7rB+/SuQDIhiz5YJqDBiUPEQKcCo0DE/qfB/VeKQLCog8BI9o7BjriAQCcC
/r9mT5bBH36zQLs1hr96raPBP+ylQPheCMAAp5zBS9a6QBs6qz+AxKbBkMnEQFbWbkBKtqrBXknJ
QGdWiT8oU7HBuVnQQKJsVUDAO7XBCGrOQAvJwUBVn6/BrjuFQI2KWkDx65XB5tHMQEiqO0D2zJfB
XN+1QFxDL0BViqLB1HvZQDj4JUG+ga/B++gBQZIxDEE+7LrBFgrEQJxqH0GqwcLB1Vq2QFR7A0Hh
w7TBQiXWQET7FEHverjBuQ5nQLDYPcD8rI/B5eWIQIitP0Be2p/Bn6U9QKJjckDKQ5HBMATSQG9W
AkDh27jBFIKsQNyuXUAJ3JDBkm/JQKfJ60CkuKzBS4fBQKvNp8AeTpTBpyTaQAwxXcA42aDBwmHJ
QHGNFcDKdLDB5bLaQASy6r5bqbzBrITkQPlPgEBixcTB+Y3jQOfVzECH4L/BWjeiQMZG8D5+RpjB
lPW7QBerrECh9p/BDix/QHeHnMBumYnBNARdQAnFiL9jyZbBNN/YQLhx/D8vvZTBWJXnQB/paEDu
oJjBNXG5QK9NLEGetK3BzAbnQP6SHkFQRqjB213uQM4aM0GHKbLBVfIAQYcXAEFTS8HBq0gMQV9p
GUGfir3BI50IQY/hBEFpp7PB6rXBQMpNE0FHHcnBIBKkQLH+JUFnGcHB/3bZQKxfLEEVXMXBsrqZ
QEsyC0GJZbHB/SOtQHVI80AisLvBGLxgQF6LN0B446TBa5g8QEzWg0CquInBdDwHQHJSbkAzcpXB

>  <OMEGA_E>  (125) 
ZFvsPqg22j76ZBE/JCURPyh1Cz+g+go/

>  <OMEGA_NBR>  (125) 
     60040

$$$$
50248150
     RDKit          3D

 61 65  0  0  1  0  0  0  0  0999 V2000
    6.1612   -1.3371  -21.7398 C   0  0  0  0  0  0  0  0  0  0  0  0
    6.4658   -0.2710  -22.5870 C   0  0  0  0  0  0  0  0  0  0  0  0
    6.8773    4.2710  -23.5753 C   0  0  0  0  0  0  0  0  0  0  0  0
    6.8709    5.6210  -23.2359 C   0  0  0  0  0  0  0  0  0  0  0  0
    5.5084    0.2441  -20.0015 C   0  0  0  0  0  0  0  0  0  0  0  0
    4.0411   -1.9892  -18.8662 C   0  0  0  0  0  0  0  0  0  0  0  0
    6.0543    5.0793  -21.0166 C   0  0  0  0  0  0  0  0  0  0  0  0
    5.9568   -3.3442  -19.5054 C   0  0  0  0  0  0  0  0  0  0  0  0
    4.4277   -4.1901  -17.9459 C   0  0  0  0  0  0  0  0  0  0  0  0
    5.6550   -1.0715  -20.4579 C   0  0  0  0  0  0  0  0  0  0  0  0
    5.2185   -2.1497  -19.6048 C   0  0  0  0  0  0  0  0  0  0  0  0
    5.8493    1.3154  -20.8276 C   0  0  0  0  0  0  0  0  0  0  0  0
    6.1036    3.7121  -21.3350 C   0  0  0  0  0  0  0  0  0  0  0  0
    6.2940    1.0529  -22.1505 C   0  0  0  0  0  0  0  0  0  0  0  0
    6.4978    3.3087  -22.6387 C   0  0  0  0  0  0  0  0  0  0  0  0
    6.4281    6.0379  -21.9574 C   0  0  0  0  0  0  0  0  0  0  0  0
    3.6313   -3.0139  -18.0233 C   0  0  0  0  0  0  0  0  0  0  0  0
    4.1567    3.4519  -18.7380 C   0  0  0  0  0  0  0  0  0  0  0  0
    6.3867    2.9323  -18.9637 C   0  0  0  0  0  0  0  0  0  0  0  0
    5.6640    2.7159  -20.3003 C   0  0  2  0  0  0  0  0  0  0  0  0
    5.4305    8.2293  -24.3886 C   0  0  0  0  0  0  0  0  0  0  0  0
    5.0594    9.8983  -22.5420 C   0  0  0  0  0  0  0  0  0  0  0  0
    7.0528   10.1292  -24.0794 C   0  0  0  0  0  0  0  0  0  0  0  0
    2.1008   -3.8089  -16.3542 C   0  0  0  0  0  0  0  0  0  0  0  0
    7.0415    8.3413  -22.3285 C   0  0  0  0  0  0  0  0  0  0  0  0
    6.1431    9.1243  -23.3336 C   0  0  0  0  0  0  0  0  0  0  0  0
    5.5582   -4.3353  -18.6808 N   0  0  0  0  0  0  0  0  0  0  0  0
    4.2560    2.9466  -19.9499 N   0  0  0  0  0  0  0  0  0  0  0  0
    2.9723    3.9121  -18.1855 N   0  0  0  0  0  0  0  0  0  0  0  0
    6.5586    2.0136  -23.0901 O   0  0  0  0  0  0  0  0  0  0  0  0
    5.3840    3.4915  -18.1042 O   0  0  0  0  0  0  0  0  0  0  0  0
    2.4610   -2.8050  -17.3192 O   0  0  0  0  0  0  0  0  0  0  0  0
    6.3062    7.3546  -21.5713 O   0  0  0  0  0  0  0  0  0  0  0  0
    6.3133   -2.3551  -22.0667 H   0  0  0  0  0  0  0  0  0  0  0  0
    6.8353   -0.4648  -23.5832 H   0  0  0  0  0  0  0  0  0  0  0  0
    7.1772    3.9671  -24.5673 H   0  0  0  0  0  0  0  0  0  0  0  0
    7.2062    6.3557  -23.9531 H   0  0  0  0  0  0  0  0  0  0  0  0
    5.1302    0.4300  -19.0071 H   0  0  0  0  0  0  0  0  0  0  0  0
    3.4601   -1.0827  -18.9502 H   0  0  0  0  0  0  0  0  0  0  0  0
    5.7246    5.3901  -20.0363 H   0  0  0  0  0  0  0  0  0  0  0  0
    6.8525   -3.4689  -20.0958 H   0  0  0  0  0  0  0  0  0  0  0  0
    4.1240   -4.9883  -17.2848 H   0  0  0  0  0  0  0  0  0  0  0  0
    6.7560    1.9774  -18.5615 H   0  0  0  0  0  0  0  0  0  0  0  0
    7.2290    3.6295  -19.0847 H   0  0  0  0  0  0  0  0  0  0  0  0
    6.1828    7.6694  -24.9635 H   0  0  0  0  0  0  0  0  0  0  0  0
    4.7598    7.5232  -23.8772 H   0  0  0  0  0  0  0  0  0  0  0  0
    4.8447    8.8628  -25.0709 H   0  0  0  0  0  0  0  0  0  0  0  0
    5.5419   10.5388  -21.7890 H   0  0  0  0  0  0  0  0  0  0  0  0
    4.4756   10.5227  -23.2344 H   0  0  0  0  0  0  0  0  0  0  0  0
    4.3907    9.1831  -22.0407 H   0  0  0  0  0  0  0  0  0  0  0  0
    7.5662   10.7718  -23.3490 H   0  0  0  0  0  0  0  0  0  0  0  0
    7.7988    9.5787  -24.6714 H   0  0  0  0  0  0  0  0  0  0  0  0
    6.4403   10.7514  -24.7484 H   0  0  0  0  0  0  0  0  0  0  0  0
    1.1565   -3.5267  -15.8657 H   0  0  0  0  0  0  0  0  0  0  0  0
    1.9761   -4.7770  -16.8614 H   0  0  0  0  0  0  0  0  0  0  0  0
    2.8947   -3.8912  -15.5972 H   0  0  0  0  0  0  0  0  0  0  0  0
    7.8367    7.8310  -22.8918 H   0  0  0  0  0  0  0  0  0  0  0  0
    7.4918    9.0589  -21.6269 H   0  0  0  0  0  0  0  0  0  0  0  0
    3.4804    2.7475  -20.5488 H   0  0  0  0  0  0  0  0  0  0  0  0
    2.9693    4.3062  -17.2664 H   0  0  0  0  0  0  0  0  0  0  0  0
    2.1206    3.8501  -18.7058 H   0  0  0  0  0  0  0  0  0  0  0  0
  1  2  2  0
  1 10  1  0
  2 14  1  0
  3  4  1  0
  3 15  2  0
  4 16  2  0
  5 10  2  0
  5 12  1  0
  6 11  2  0
  6 17  1  0
  7 13  2  0
  7 16  1  0
  8 11  1  0
  8 27  2  0
  9 17  2  0
  9 27  1  0
 10 11  1  0
 12 14  2  0
 12 20  1  0
 13 15  1  0
 13 20  1  0
 14 30  1  0
 15 30  1  0
 16 33  1  0
 17 32  1  0
 18 28  2  0
 18 29  1  0
 18 31  1  0
 20 19  1  1
 19 31  1  0
 20 28  1  0
 21 26  1  0
 22 26  1  0
 23 26  1  0
 24 32  1  0
 25 26  1  0
 25 33  1  0
  1 34  1  0
  2 35  1  0
  3 36  1  0
  4 37  1  0
  5 38  1  0
  6 39  1  0
  7 40  1  0
  8 41  1  0
  9 42  1  0
 19 43  1  0
 19 44  1  0
 21 45  1  0
 21 46  1  0
 21 47  1  0
 22 48  1  0
 22 49  1  0
 22 50  1  0
 23 51  1  0
 23 52  1  0
 23 53  1  0
 24 54  1  0
 24 55  1  0
 24 56  1  0
 25 57  1  0
 25 58  1  0
 28 59  1  0
 29 60  1  0
 29 61  1  0
M  CHG  1  28   1
M  END
>  <OMEGA_C>  (126) 
hyjFQE0mq78G663BlufOQNi+ir5FsrTB7RLcQN6riEAtmrzBkd7bQHzfs0A247nBcESwQMPxeT4U
A6DBbVCBQJGe/r/s7ZbBEr3BQL2JokAYIqjBRJ6+QKQHVsACC5zBXq+NQIkVhsBLkY/B+PW0QLwl
ib/TqaPBTv6mQBWUCcC51pzBVy27QEdgqD/4nqbB5VDDQHqTbUAPrqrBamjJQJfEhj8/NLHBK+7P
QFfBU0AHHLXBw7LNQHc2wUC7qK/Bw2doQPHiQMDCL5DBEwSFQC/rXECE55XBKmDMQMmqO0CitZfB
3D+1QC7RLUAHZ6LBkMatQFyrA0HaG8PBXOahQItfHkEOVrTBvbDhQAMRIkGVosDBN3QGQEXFc8BS
1YLBRlThQOB1BUHXoLLBq5TEQPr8EUE0q7rBwtyxQM+6isBWcpXBZDGIQN+VPEBNmZ/B4jo+QD9f
ekDue5HBWeDRQFTeAECMuLjBc0msQEF1X0Bl1ZDBSYAdQH2FM8CxjYrBk8zJQP5Y60D8kazBLAbK
QLS6FsCNiLDB+LraQEz17b5aqrzBQavlQMLlfUDpicTB15jmQOFhy0Dmn7/BxCqkQHkq3D6IDpjB
fnFdQDCWir8bmpfB9y+3QJd7rEBSSqDB7kfbQO8BXsAixKDB4feDQBCgn8A7R4rBjzHYQD8b/T/t
fZTBpVPnQAJJaEBjrZjBr9nFQLNr9UAptcfBC1CYQBq+8ECHBL/BrgebQA/ODUE7kcjBAFexQLue
KEHcT67BQDiPQO9cKEES4LnBnYCMQO3tEkFeU7DB8x3yQGxZLEHDyrrBI5D5QIlCGUERX8XB/xbO
QLYFLEHQ/MXBnwiUP361YcDl2X3BGPH8P9vcmMA65IbBaEM5QLUJecA5jnnBpcb6QHqX+kBeIrfB
zrzvQCDxEEHWA63B475eQNvXL0D8Y6TBwwg+QAfMiUCvIYrBFLgHQClodkCBpZXB

>  <OMEGA_E>  (126) 
vOfwPg==

>  <OMEGA_NBR>  (126) 
     82662

$$$$
50248153
     RDKit          3D

 56 61  0  0  1  0  0  0  0  0999 V2000
    3.6866   -3.0731  -17.8232 C   0  0  0  0  0  0  0  0  0  0  0  0
    4.0587   -1.9996  -18.6463 C   0  0  0  0  0  0  0  0  0  0  0  0
    6.2095   -1.3314  -21.6512 C   0  0  0  0  0  0  0  0  0  0  0  0
    6.6293   -0.2791  -22.4794 C   0  0  0  0  0  0  0  0  0  0  0  0
    6.8949    4.2778  -23.7001 C   0  0  0  0  0  0  0  0  0  0  0  0
    6.6088    5.6410  -23.5210 C   0  0  0  0  0  0  0  0  0  0  0  0
    5.3760    0.2851  -20.0354 C   0  0  0  0  0  0  0  0  0  0  0  0
    5.5802    5.1271  -21.3767 C   0  0  0  0  0  0  0  0  0  0  0  0
    4.4090   -4.2812  -17.8973 C   0  0  0  0  0  0  0  0  0  0  0  0
    5.8269   -3.4057  -19.5465 C   0  0  0  0  0  0  0  0  0  0  0  0
    5.5810   -1.0570  -20.4173 C   0  0  0  0  0  0  0  0  0  0  0  0
    5.1496   -2.1615  -19.5290 C   0  0  0  0  0  0  0  0  0  0  0  0
    5.7908    1.3492  -20.8675 C   0  0  0  0  0  0  0  0  0  0  0  0
    5.9100    3.7607  -21.5215 C   0  0  0  0  0  0  0  0  0  0  0  0
    6.4318    1.0630  -22.1008 C   0  0  0  0  0  0  0  0  0  0  0  0
    6.5625    3.3312  -22.7081 C   0  0  0  0  0  0  0  0  0  0  0  0
    5.9717    6.0778  -22.3466 C   0  0  0  0  0  0  0  0  0  0  0  0
    4.1767    3.4983  -18.7253 C   0  0  0  0  0  0  0  0  0  0  0  0
    6.3867    3.0546  -19.1248 C   0  0  0  0  0  0  0  0  0  0  0  0
    8.5183    7.9496  -21.2226 C   0  0  0  0  0  0  0  0  0  0  0  0
    7.9515    9.0005  -19.5320 C   0  0  0  0  0  0  0  0  0  0  0  0
    5.5832    2.7766  -20.3980 C   0  0  2  0  0  0  0  0  0  0  0  0
    7.3102    7.7289  -20.2200 C   0  0  0  0  0  0  0  0  0  0  0  0
    7.4540    6.4520  -19.3645 C   0  0  0  0  0  0  0  0  0  0  0  0
    5.8908    7.9706  -20.8331 C   0  0  0  0  0  0  0  0  0  0  0  0
    5.4549   -4.4307  -18.7448 N   0  0  0  0  0  0  0  0  0  0  0  0
    4.1968    2.9677  -19.9328 N   0  0  0  0  0  0  0  0  0  0  0  0
    3.0226    3.8471  -18.0420 N   0  0  0  0  0  0  0  0  0  0  0  0
    6.9057    2.0176  -22.9883 O   0  0  0  0  0  0  0  0  0  0  0  0
    5.4555    3.7029  -18.2470 O   0  0  0  0  0  0  0  0  0  0  0  0
    9.0140    8.9764  -20.4303 O   0  0  0  0  0  0  0  0  0  0  0  0
    5.7533    7.4349  -22.1831 O   0  0  0  0  0  0  0  0  0  0  0  0
    2.8558   -2.9749  -17.1402 H   0  0  0  0  0  0  0  0  0  0  0  0
    3.5198   -1.0645  -18.6056 H   0  0  0  0  0  0  0  0  0  0  0  0
    6.3677   -2.3544  -21.9589 H   0  0  0  0  0  0  0  0  0  0  0  0
    7.1107   -0.5016  -23.4202 H   0  0  0  0  0  0  0  0  0  0  0  0
    7.3760    3.9496  -24.6096 H   0  0  0  0  0  0  0  0  0  0  0  0
    6.8785    6.3541  -24.2860 H   0  0  0  0  0  0  0  0  0  0  0  0
    4.8950    0.5028  -19.0932 H   0  0  0  0  0  0  0  0  0  0  0  0
    5.0202    5.4500  -20.5115 H   0  0  0  0  0  0  0  0  0  0  0  0
    4.1218   -5.1071  -17.2633 H   0  0  0  0  0  0  0  0  0  0  0  0
    6.6624   -3.5399  -20.2176 H   0  0  0  0  0  0  0  0  0  0  0  0
    6.7499    2.1157  -18.6815 H   0  0  0  0  0  0  0  0  0  0  0  0
    7.2411    3.7131  -19.3402 H   0  0  0  0  0  0  0  0  0  0  0  0
    9.1929    7.0847  -21.3051 H   0  0  0  0  0  0  0  0  0  0  0  0
    8.2100    8.2714  -22.2282 H   0  0  0  0  0  0  0  0  0  0  0  0
    7.3301    9.9055  -19.6008 H   0  0  0  0  0  0  0  0  0  0  0  0
    8.2490    8.8387  -18.4854 H   0  0  0  0  0  0  0  0  0  0  0  0
    6.5868    6.3595  -18.6942 H   0  0  0  0  0  0  0  0  0  0  0  0
    7.5031    5.5728  -20.0237 H   0  0  0  0  0  0  0  0  0  0  0  0
    8.3750    6.5135  -18.7661 H   0  0  0  0  0  0  0  0  0  0  0  0
    5.1430    7.4878  -20.1867 H   0  0  0  0  0  0  0  0  0  0  0  0
    5.7029    9.0540  -20.8652 H   0  0  0  0  0  0  0  0  0  0  0  0
    3.3825    2.7276  -20.4611 H   0  0  0  0  0  0  0  0  0  0  0  0
    3.0854    4.2767  -17.1412 H   0  0  0  0  0  0  0  0  0  0  0  0
    2.1270    3.6690  -18.4497 H   0  0  0  0  0  0  0  0  0  0  0  0
  1  2  2  0
  1  9  1  0
  2 12  1  0
  3  4  2  0
  3 11  1  0
  4 15  1  0
  5  6  1  0
  5 16  2  0
  6 17  2  0
  7 11  2  0
  7 13  1  0
  8 14  2  0
  8 17  1  0
  9 26  2  0
 10 12  2  0
 10 26  1  0
 11 12  1  0
 13 15  2  0
 13 22  1  0
 14 16  1  0
 14 22  1  0
 15 29  1  0
 16 29  1  0
 17 32  1  0
 18 27  2  0
 18 28  1  0
 18 30  1  0
 22 19  1  1
 19 30  1  0
 20 23  1  0
 20 31  1  0
 21 23  1  0
 21 31  1  0
 22 27  1  0
 23 24  1  0
 23 25  1  0
 25 32  1  0
  1 33  1  0
  2 34  1  0
  3 35  1  0
  4 36  1  0
  5 37  1  0
  6 38  1  0
  7 39  1  0
  8 40  1  0
  9 41  1  0
 10 42  1  0
 19 43  1  0
 19 44  1  0
 20 45  1  0
 20 46  1  0
 21 47  1  0
 21 48  1  0
 24 49  1  0
 24 50  1  0
 24 51  1  0
 25 52  1  0
 25 53  1  0
 27 54  1  0
 28 55  1  0
 28 56  1  0
M  CHG  1  27   1
M  END
>  <OMEGA_C>  (127) 
6vFrQJ+tRMDhlY7BFOGBQHvy/7+QK5XB5LPGQP9pqr+dNa3BlSPUQETijr631bPBUaPcQNvjiEDO
mb3BcnvTQAODtED7KrzBHgisQC79kT5rSKDByZCyQOQQpECQA6vBmRaNQKX/iMCXLY/B3nW6QIn3
WcBTX5zBZJeyQFNLh7+SVqPBr8mkQJZVCsB5O5zBIE65QGqzrD++8KbBch69QP6ucEACLKzBedHN
QLgQiD+EzrDBCQDSQDMyVUAxqrXB3xe/QLh9wkDXxbLB0qeFQNDkX0BdzZXBjF/MQM9+Q0CN/5jB
7UoIQQBj/kDJx6nBynL+QAwCEEGGQZzBpKmyQGe0MUARL6PByOzpQBZT90B2wqHBUYfuQKt2zkCK
6prBLoG8QHgP/0AXqqbBMI6uQDzIjcBL9ZXBk0yGQE3vPUBmdp/BonJBQEs2dkD2VZDBj/vcQP4f
AUD+57fBxJOuQIP7bEDb+ZHBWjkQQVifD0FYcaPB3xq4QIPq7UAUd7HB5MQ2QJFkPsA5H4nB20Rh
QG1CiL9V2JTB9sPLQDSvFsC/q6/B/IrjQL5mAL+NXLvBUgjsQCbGfECC4MTBXhzcQMJUy0CiScLB
56OcQCO2AD/avpjBtKWgQCFmrkCcF6TBreWDQAdto8BLG4rBNzLVQHOOYsCvvaHBjf/XQAJoB0Cw
c5XB17bnQGKjbUCquJrBMhYTQae14kDIcKrBRVwDQblXBEFs07HBGpDqQBl9HkFwzpzBxPsDQR5r
DUEh4pPBK8fSQNeAy0CfjZXBvBnwQC5UskChMKDB1v8FQbFu0EAFIZbBzZOkQE6c70BQfqHB7H22
QCrdEEHr66bBYXpYQG2RLkBusKPBGndFQArbiEAgIYnBgSEIQFXRakD/mJPB97ZkQObDQ8CT5I/B
pdR7QA2Q/78/lpbBuP3EQIi/qL/Zwq3BSBrUQJT5iL4lHrTBQf/eQPtmiED6JL3BcUzQQG+fskD1
TrzBCnqqQKIqkD7hrqDBI7qnQCInn0CUdqzBJhuMQODrhsA0rY/BfmC7QOgSVMA0SZzBRcWwQBKA
hb8m7aPBLQGjQLozCMAT65zB9oG4QIEcqz8rKKfBYIi5QG7/a0CbnqzBeP3OQD31hz/rx7DBLL7T
QMLEU0C7X7XB8eK0QKM/vkC04bPB2UaGQATrXEDimZXBlAbNQHJnQkDvi5nBX8/bQH22zkA3GpvB
Vuv6QA5M70BwLKfB+mOxQJJGL0DkWKPB7LTPQKbq+UDJ8qDBfwDSQNttEEFUdJnBS4+lQG43+UCJ
1afB5MqvQCp1isANxJXBgJOFQCSrOUCrKp/BXiZEQFxJekBoWJDB6vvhQJaGAUBnIbfB4omvQKq6
YkDssZHBlDv8QE/DxkD7gaLBr+qpQAfE6EB+wLLBBSYsQL+IP8Cz9IrBtLNVQP1cjL/05JbBwtLI
QAbEFcAxZLDBiMXjQHp09r5XoLvBaBTzQIh/fkARy8PBGAbaQLg3ykBxIsLB0sOaQIYn+z7fK5nB
N6mPQBAJp0BylabBuySDQD0qocBIhYrBi9zXQGhgWsBmHaHBdq/cQDvHB0CEpZbBNHzlQD+rckAG
dZvB9WXnQIIf00DO3ZLB8BTCQAixtkCQK5vBrXz3QGrO7kBI7q/BUf0KQar/AUEX9qTBj1DJQC34
HkFp6Z3BnZi7QD4xDkGawpLBq73yQIgOEkFsU5bBewiOQC8h5UCwoqPBD3mZQCQbDUFiWajBkv5V
QBNWKEA3D6PBoYtJQK8Pi0BdLInBfIcKQF6ic0DzuZPBQrauQAa9icD255TBbvu8QAnXU8DA8JvB
v57EQEzEqL+q5q3BF6rPQJgihL5arrTB0iXZQL9vikAE7LzBNzfWQCi7tUDnPbrBI5quQMKfiz7c
PqDBj0DBQLXAokDcI6jBK+yIQD/0gsBA947BcSt/QKJn/L/OgZbBUiGzQH4Lhr+GvqPBih2lQJDz
B8DZuJzB1fu6QJL0qj9c06bB3t7DQGubbkAPyqrB0mfKQOw9iT+hTLHB3SnQQKrJVUDiRrXBGWDK
QP7UwUBhva/BVH6FQJpCWUCB25XBNzXNQJY7O0Bm5pfB1zPnQN0CLkEaF7TBPVCtQDZXJUG3MK3B
Zty1QCnFLkBMlaLBGM7aQDdLGkE03KzBKTfwQJb6GUGztqHBUsvcQFMNBUFEu7LBbzBkQNSRPMD9
1o/BI+eIQN94PkAsy5/BEdY+QBkPdEAzR5HBVz/UQBJ+AkBrwbjBTYesQGG1V0DaqpDBQ0m9QK6F
NUE4trPBDS/GQFxM60DTfKzBkXXAQEAwp8AqCZTBS53ZQKfkXMARpaDBkn3JQIG1FcDBcrDBaEvc
QEZ97b6bjbzBuGHiQLg6gUBf7MTBAPncQN3uzUB5LMDBjHehQKcq8j6JapjBXhe4QKgirEBsJaDB
59V7QPykm8AilYnB9blaQIdWh79FHJfBzEPbQNks/T+LI5XBfIrmQCO5a0AVq5jBDK/+QE/bOEHz
Z7DBuAvyQD6YKUF0KrzBLFaUQJaKG0Gg/bDBz/OhQGPzKkEJWaXBp6nlQMe1C0HoSZ3BnpkJQeqQ
GUHWqaLBZwfnQPhwKEFqQZ3BRsHNQC6bBkFcprrBFlP+QFQOAEFssrPB+HJgQLXzNUAYxqTBWeI9
QG8UhEASr4nBMtAIQBNOc0AEkZXBYlSvQHFUisA6CpXBAHa9QJ/AVMA4DpzBwbnEQDVaqb/p+K3B
/oDPQFmMhL7bv7TBAZPaQBasikDwtLzBRG7YQB7utUAk6LnBxsKuQDv2hT7QRKDB/pDAQAi4okCg
E6jBE7OJQJ6hg8CdB4/BBzKAQDSb/r/KfJbBlmSzQGhQh7/KyaPBiJSlQDHTCMD5w5zB4tm6QHIH
qj9z2abBtGPDQHR/bkDiwqrBCBzKQAYFiT/xV7HBnTHQQPL0VUBrN7XBOL3KQGoZwkBbh6/BbmCF
QF92WUCr4JXB0/nMQMqmOkAz6ZfBewSbQLh+A0HqksDBia2VQKaZHEHQ17XBXIi1QHY0LkBHlaLB
YtO+QA1cEUHkpbrBphrZQMyrH0H7OMLBjzLbQLYrBkGoI7LBsrplQDbhPcBs1I/BfJaIQOFTPUBG
wp/BJxY/QORtdkDtYpHBp7HTQNO1AkCDybjBp2CsQGhRV0CZrJDByql1QPecD0Es57vB3+TEQEvA
60BDP6zBZhDBQITRp8C/PJTBTgDaQOahXcDCzKDB5K7JQMLpFcBfi7DBLQjcQCMQ7L49o7zBWkjk
QIujgUB4r8TBcDrhQA8mzkAsqr/B7cOhQMW26j5Ra5jBe2S2QOPkq0D/JKDBY6h9QHFnnMAxp4nB
e+hbQISEib/TCJfBI/zaQEjw+z+0JZXBOlvmQJQGa0AhspjBHhWcQBCtBEGaWcnBcaeaQDUX5UCg
NL7BlA2SQPttGkFIKK3B1TeTQPC1LUFlz7fBIfjwQEyrKEEkk73BLH/pQHSiFUF3LcjBEZ7DQBjv
KkGFVMbBu6n2QM2L/UAJN7bBMrrmQKlTEkE7d6zBFp9fQB6UM0A4rKTB5W4+QBzphUDU2InB7xkJ
QET0dUDNrpXBROGpQE6yjsAxTpbBLFu4QKDMW8D7D53BGH/FQKTcqr/0t63BBkLTQARqjL64NrTB
8z7dQD5/iUAbbr3BqoDUQC8dtUAx17vBjlGrQOyehz6OmKDBhWazQOf8o0Dkv6rB6tGGQKDyhsDN
eo/BOleAQDgNAcBUu5XBSoKxQPpjib9Iz6PBe1KjQBHdC8CU05zB7++4QJg1qz83H6fBqoS9QJJ3
cEBAEazBi2DNQGQmiD8wBbHBqEnSQBOzVUCOm7XB1D3AQHW9wkBUZbLBtOuFQPU2XkCJvZXBhn/M
QOy3QED/+ZjBySgJQQhJ/UBKLanBST8AQaglD0H7h5vBVLqyQDijMEBrMqPB/pPrQPMi9kCXL6HB
AsPvQEXVzEA6fprBXT6+QNWb/kCsEKbB7o1lQDMRQcA+Ro/BYmqGQKtMPUAndZ/BzCxCQJ+0dEAw
PpDBhNrcQHyyAUAPAbjBYOWuQDQAakBP4pHBeD4RQYLPDkFyuKLBpq+5QE4m7kCf7bDBpG+5QKqO
rcBfVZbBrSfTQDlKZsCrW6LBWjbKQGqxFsAeT7DBuZPiQP1a+b7qxLvBbZHsQCaLfkCRvcTBX1nd
QJMzzECi4MHBu/KbQPgP8j7MCZnB1ZOhQIQXrkCdyqPBSVx3QGE9oMC5SorBGSlgQL4wiL8neZXB
sM3XQEr9A0CeiZXBKg/oQNh9akCKnprBzdETQfZw4UBP76nB1EgEQQISBEFvL7HBTeTsQBa9HUEs
+ZvBt/oEQQdDDEHMLZPBO/nTQLrVyUDEJJXB6Q/xQFP/sECh3p/B7p4GQcs5zkBvspXBOiimQM4X
70D386DBIJO4QDWsEEHTMabBYpRYQFDjLkAjtqPBvG1GQDGth0Aj/YjB+MMIQHFJakC8h5PBjFmr
QIhnicDrgZXBanu5QIg0U8ABjZzBBRXDQIz7pr92Lq7BqsXRQLaAgb5GmbTBNT3fQNXAiUB+Br3B
/+XSQNeGtEAnq7vBOJWrQDIdlj7wvKDB0pasQGHdoEDZhavBAjeGQEk0gsDdWY/BKkx6QDY0+L90
vpbBN0+wQKaYg7+SLKTBsAqiQFynBsCRLJ3BtVW5QKqkrD9vOKfBxey7QCHZbUBBQqzBfrXNQLTM
iT9UI7HBVr7TQP9YVUD8abXBJmm5QKFBwECt47LB7zuGQKX6WUCTkpXBB2/NQAw6QUAvP5nBrWHd
QIzL0UCKjpnBfH/8QCtN9ED2T6XBaqeyQFW1L0DoQKPBQ+fPQH2Z/EACep/BeBbPQKy3EUGY65fB
zSWnQKNs+kDM0abBNbVfQNheOsBwCpDBwXSGQN5jOkC6VZ/BghVDQME5dUBoWZDBsVffQAZSAkBr
vbfBixevQBkSXkAFYpHB2IP/QEH3y0AVlqDB1HiuQD3A6kDKr7HBa7K8QH4op8DVypTBbrfVQFe7
XMCRY6HB2yHGQPrTFMBK5bDBDk7gQHti7r44QLzB3bLxQL+ZgEBE9sPB4frcQO90zEC7XsHBH0Od
QD/7/z75DJnB75KWQD04qUDdMqXBHad2QELdmsDA8YnBBY9WQLgcgr+5NZfBU4fdQIh8BkDFiZbB
TX3lQO4Ec0Cp1prB1yvnQFKH1kDuL5HBoxfFQPheuEB295nBoEz6QCZ880DBF67B2QILQRBFBUG0
5qLB95PFQHQSIEFHbJzByfi3QD/TDkF5cZHBJCLvQGgkFEGqfJTB18iPQCoX5UBP9qLBq6+ZQBNv
DUGEZKfBy25YQKCiK0CqhqPB1B1HQEAEh0Dv/YjBZx8KQNkRcEBw8JPBgT1qQEqyRcDzZY/BJF2A
QAiAAcCgGJbB01rDQIurqr9s0a3BQXzOQAroi77lk7TB+yHaQHWHiUAZyLzB6DnYQDretEDiH7rB
CaStQD5/gz7pHKDB6h7CQFuAokDQD6jBZtyOQNzmh8BjTo/B1Ee9QNDqVcDpHpzBmCmyQO5WiL8F
oKPBigelQD7aCcBFlJzBeS66QBozqT+Ur6bBGtDDQHDdbUDzr6rBDY7JQEEwhz/uKbHBOjLQQOaG
VECzJbXBpE7MQL9bwUB3p6/BexyFQHa9XEBY65XBrmrMQNLbOkCHxJfB95joQEqnLUHH+LTBv8eu
QH1EJUFr8q3BhUW1QNhDLkBNeKLBGWDcQLpYGkFYcq3BkcTxQHC+GkHpTKLB8ZveQP7GBEFyALPB
Ch+yQKJri8BUjpXBlVOIQCawPkDQt5/BJmQ+QPx0eUA1cJHBw6DTQE4yAUDBn7jBQlqsQFDnXUDe
0pDB356+QGgYNUFPtLTBJRjJQKD/6kCmbazByjEyQJSYQcAfXorBFrxaQBqPj7+bSpbByO7HQMei
FsCkaLDBUfHaQM4J9b68d7zBllHjQHYNgEBNxMTBsdXfQDrYzECZDMDBOWmgQLPU6T74SpjB5Nm4
QK8mrEB7GKDBrUCGQLAqosCSHorB9UzZQL5aXMArHaHB8DnYQKW++j8yqZTBu2DnQDiNZ0BBqZjB
tPz/QPHDOEEQdLHBjnnzQB3HKEFp+rzBOueVQKswG0GQmrHB+lijQE9QK0FGMabBN1bnQKW4DEFp
qp3B8mAKQZFaGkHFPaPBoHHoQMtxKUFqD57BdtvOQGa8BUFa27rBdR0AQeQGAEECE7TBQSBfQBxv
NEC9nqTBYQw+QAWOiEA7AYrBMP4HQNmIdkAWo5XBLnFpQGHCRsCPiY/BH5SAQHgEAsDZFZbBXErE
QMqvqr9spK3B+hrPQGK9i767cLTBlwTYQOvwiUAq3rzBy87UQOZgtUDMRbrBQz2uQDaygz4H+5/B
/U7CQKO4okCK/6fBaCqOQJqjiMCEe4/BCJy9QE+JVsAaAZzByvyyQFd7iL8wdaPBWJmlQE4gCsBr
cpzBRaO6QI9ZqT/GlabBX0TEQHw0bkB0nKrBleHJQNBnhz9OErHBDdzPQHL6VEA5ILXBKNvKQMfX
wUDhq6/B6yaFQH0uXEAZ7JXBApfMQDHNOkB+pZfBfSa0QIFyKEFSHa7BtLLaQF87KkGamLvBf7W1
QKhoLkDYZKLB0N/BQErHFkHge7bBjqicQBwQDkHbbb3B863fQNCrBUHrx7HB3MyxQA4KjMBHmpXB
gLKIQN68PkB1vJ/BVNo+QITDe0BypZHBSn/TQOByAUBjlLjBdKmrQJ3cV0COhZDB5djMQHOkN0HV
abPB1mTGQACE60A4YKzBreYwQKe/QsDMl4rBGYlbQFAZkL/lQZbByjPJQOCgFsBkM7DBRo3bQIpd
9b5vVLzBTNbgQAyRgEDl4sTBa+vZQIJjzUCwWsDBDfSgQF+P6j4MK5jByBW6QMM+rECD85/BtwWF
QKkmo8DsborBQPrZQLC9XMC74KDB2FDaQEsS/D/H0pTBrB3mQI7xakAMW5jBJauRQAH8K0FcHq7B
6MG+QAYlJUE/46XBCJ39QNYQKEFq3rvBtgPPQJXVLkFmksPBZQGpQNbpAUFr/8LBGkSEQG7QBkHC
OLjBB0iOQFhHG0EA/8HBUgzyQIUu/EC7QrjBntf1QL4oDUF+D6zB5ThgQJTVNEBvtKTBOqc9QP7I
iEBgIIrBRpYJQFbBfEBTFJbBe9tpQD6cRsDnfY/BrnqAQPXnAcCME5bBckvDQDucqr/QvK3BiLLN
QP5GjL5HlrTBRI3cQIuciUCgl7zBU8LbQFLrtECZy7nB+s+tQN8BhT4eCaDBid3DQLlsokC95qfB
YbuOQOlRiMDUY4/BFNu9QGuaVcAr9pvBzHqyQGUSiL+JgqPBdXilQNC4CcAWc5zBXhG6QJByqT/2
qabB9pnEQDTZbUBYoarBQrfIQPRIhz9FNLHBcarQQO6dVECxHrXBfCTOQP5NwUBndK/BAA6FQNVe
XUB//ZXB4kDMQLTiOkAPuZfBXH7hQFbRJEHvpLDBIagDQd8SDUFmVrfBg2C1QExyLkCpd6LBpw/W
QJXZEkGMErnB+WjLQMorG0FxXsTBT+S0QGjMAkE6xbTBl2ayQMiDi8BVgZXB+2+IQFZ0P0D5yp/B
m749QDr2d0C6c5HBAxLSQLBQAUBWvLjBF2WsQCKlYEBA9JDB+oUFQYkQHUGfqq/BO0rHQEAB60Ar
jazBC0AxQOL0QsAQjorB++1aQI5qkL9eRJbBUCbIQO6fFsD+SbDBeaHZQNaA9r4ghrzB11rmQLE4
gECzicTBIoflQGzjzEA/hb/BC7OgQOVi7D7kNJjByUG7QOf0q0BR4Z/B5taFQA/QosB8TorBSjja
QJB+W8C416DB8vvWQKkx+j/9d5TBrOrnQO/TZUDOnZjB0q7fQFAqNUF537PB0r/OQMnaI0EZNqnB
BGAGQdKu+UA6OLTBhKsNQayjD0G6db7BgezDQDeUDUEIo8nBcp6vQJjwJUHP8sPByxXnQMTwI0HT
lcfB+ZeZQAanC0HqabHBJsipQPMz8UAjYrvBUY5fQFqmNUDpvaTBORk9QIrGh0AHBIrBpUAHQIyS
c0CWnJXBaBlsQB6gRsB0R4/BmnyBQCbJAcA32ZXB2XLDQPGUqr8QsK3BvI7NQL4kjL4kjLTB6S3c
QBfxiEAUm7zB0hrcQPwetEDi1bnBn/qtQG18hD7r9Z/BMOzEQMRgokBW16fBUHCPQAuciMAgXo/B
nP69QCNlVsB4FZzBHc+yQKcyiL+ccKPBOAOmQPzqCcBmYZzBXuO5QBZsqT8AnKbBP+3EQPOlbUDh
jqrBzWbIQJ0Mhz9fKLHBvXPQQLACVEABE7XBQp/PQHj2wEBRc6/BcMKEQLkoXUAR95XBRAzMQNNs
OkAKn5fBd53AQH8FJEF5nMDBNLDUQKWMKEHY9LDBxFK1QAGNLkBcZ6LBUCXVQK8IFEF1ULjBQ1YB
QSdRDEFic7vB+Qu2QMuZAkFYirTBG5uyQEsDjMCBp5XBG2GIQFxPQECzz5/B8oA9QPUQekDIjZHB
+m7RQFzxAED6s7jBH5mrQDv1W0DUrpDBCRjCQA11NEFmILnBq4nKQJfj6kCWmKzBREc0QLaoQsA8
NYrBQ3hdQEV0j7/y6JXB6mLIQMmUFsCzPbDBU2XZQL5w9b4Kf7zB40/lQHivfkDrlcTBbp7lQJDf
y0C0pL/BoQKhQCj86j4gHZjBU5a8QHQmrEDt0Z/BZ6GGQFwoo8AOS4rBN/zZQFCRXMCyF6HBVhbY
QI2v+T+4mZTBO8vmQK/KZ0DAYJjBPXvUQA7iJkHDu8fBRQWgQNOjH0H8G8PBLHvAQG31JkGBy6nB
g7T0QAQmLkGNmq7BVWQHQe9FAUHPTbXB5KYAQSIGBEF7NMPBSBkMQUEwGkF8EbzBgHGZQPcgCkF3
DrHBK5+sQNY+8UBaZbvB0b1fQDaqN0Ac16TB4XA8QN0EiECOCorBlLAHQIn2eEDC4ZXB

>  <OMEGA_E>  (127) 
MBgOP4ZcEz8AMB4/SMweP7R1KD887Sk/JCoCP6RSAj8wtwI/MOkCPw==

>  <OMEGA_NBR>  (127) 
     92199

$$$$
