50176687
     RDKit          3D

 48 51  0  0  1  0  0  0  0  0999 V2000
    6.6171   -0.4046  -22.4575 C   0  0  0  0  0  0  0  0  0  0  0  0
    3.0418   -3.0015  -18.2593 C   0  0  0  0  0  0  0  0  0  0  0  0
    6.1107   -1.4134  -21.6202 C   0  0  0  0  0  0  0  0  0  0  0  0
    3.5390   -2.0152  -19.1208 C   0  0  0  0  0  0  0  0  0  0  0  0
    6.4439    0.9482  -22.1154 C   0  0  0  0  0  0  0  0  0  0  0  0
    5.2172    0.2833  -20.1166 C   0  0  0  0  0  0  0  0  0  0  0  0
    3.8976   -4.0369  -17.8336 C   0  0  0  0  0  0  0  0  0  0  0  0
    5.1437    3.9411  -22.8331 C   0  0  0  0  0  0  0  0  0  0  0  0
    7.0619    4.4896  -21.7016 C   0  0  0  0  0  0  0  0  0  0  0  0
    5.4160   -1.0675  -20.4421 C   0  0  0  0  0  0  0  0  0  0  0  0
    4.8781   -2.0998  -19.5475 C   0  0  0  0  0  0  0  0  0  0  0  0
    5.7265    1.3038  -20.9428 C   0  0  0  0  0  0  0  0  0  0  0  0
    5.9296    3.7260  -21.5950 C   0  0  0  0  0  0  0  0  0  0  0  0
    5.6892   -3.1610  -19.0745 C   0  0  0  0  0  0  0  0  0  0  0  0
    6.2924    2.9939  -19.1993 C   0  0  0  0  0  0  0  0  0  0  0  0
    4.0576    3.3587  -18.8872 C   0  0  0  0  0  0  0  0  0  0  0  0
    5.5497    2.7551  -20.5007 C   0  0  2  0  0  0  0  0  0  0  0  0
    7.4392    7.4716  -23.1090 C   0  0  0  0  0  0  0  0  0  0  0  0
    5.5648    3.6111  -16.8708 C   0  0  0  0  0  0  0  0  0  0  0  0
    7.9127    6.0526  -23.4473 C   0  0  0  0  0  0  0  0  0  0  0  0
    5.1903   -4.0998  -18.2353 N   0  0  0  0  0  0  0  0  0  0  0  0
    5.8065    4.7602  -23.6143 N   0  0  0  0  0  0  0  0  0  0  0  0
    6.9390    5.0701  -22.9375 N   0  0  0  0  0  0  0  0  0  0  0  0
    5.2998    3.1956  -18.2529 N   0  0  0  0  0  0  0  0  0  0  0  0
    4.1480    3.0009  -20.1460 N   0  0  0  0  0  0  0  0  0  0  0  0
    2.8914    3.8148  -18.2926 N   0  0  0  0  0  0  0  0  0  0  0  0
    7.5007    2.9211  -19.0032 O   0  0  0  0  0  0  0  0  0  0  0  0
    6.9988   -3.2273  -19.4157 F   0  0  0  0  0  0  0  0  0  0  0  0
    7.1400   -0.6688  -23.3647 H   0  0  0  0  0  0  0  0  0  0  0  0
    2.0153   -2.9688  -17.9254 H   0  0  0  0  0  0  0  0  0  0  0  0
    6.2532   -2.4523  -21.8784 H   0  0  0  0  0  0  0  0  0  0  0  0
    2.9066   -1.2046  -19.4518 H   0  0  0  0  0  0  0  0  0  0  0  0
    6.8581    1.7199  -22.7472 H   0  0  0  0  0  0  0  0  0  0  0  0
    4.6681    0.5427  -19.2236 H   0  0  0  0  0  0  0  0  0  0  0  0
    3.5140   -4.7987  -17.1712 H   0  0  0  0  0  0  0  0  0  0  0  0
    4.1846    3.4971  -23.0552 H   0  0  0  0  0  0  0  0  0  0  0  0
    7.8603    4.6065  -20.9837 H   0  0  0  0  0  0  0  0  0  0  0  0
    8.1674    8.2025  -23.4905 H   0  0  0  0  0  0  0  0  0  0  0  0
    6.4597    7.6522  -23.5759 H   0  0  0  0  0  0  0  0  0  0  0  0
    7.3504    7.5780  -22.0177 H   0  0  0  0  0  0  0  0  0  0  0  0
    4.6136    3.7005  -16.3255 H   0  0  0  0  0  0  0  0  0  0  0  0
    6.2006    2.8608  -16.3781 H   0  0  0  0  0  0  0  0  0  0  0  0
    6.0791    4.5834  -16.8726 H   0  0  0  0  0  0  0  0  0  0  0  0
    8.0017    5.9471  -24.5386 H   0  0  0  0  0  0  0  0  0  0  0  0
    8.8924    5.8729  -22.9804 H   0  0  0  0  0  0  0  0  0  0  0  0
    3.3739    2.9090  -20.7725 H   0  0  0  0  0  0  0  0  0  0  0  0
    2.0512    3.8865  -18.8299 H   0  0  0  0  0  0  0  0  0  0  0  0
    2.8904    4.0720  -17.3262 H   0  0  0  0  0  0  0  0  0  0  0  0
  1  3  2  0
  1  5  1  0
  2  4  2  0
  2  7  1  0
  3 10  1  0
  4 11  1  0
  5 12  2  0
  6 10  2  0
  6 12  1  0
  7 21  2  0
  8 13  1  0
  8 22  2  0
  9 13  2  0
  9 23  1  0
 10 11  1  0
 11 14  2  0
 17 12  1  6
 13 17  1  0
 14 21  1  0
 14 28  1  0
 15 17  1  0
 15 24  1  0
 15 27  2  0
 16 24  1  0
 16 25  2  0
 16 26  1  0
 17 25  1  0
 18 20  1  0
 19 24  1  0
 20 23  1  0
 22 23  1  0
  1 29  1  0
  2 30  1  0
  3 31  1  0
  4 32  1  0
  5 33  1  0
  6 34  1  0
  7 35  1  0
  8 36  1  0
  9 37  1  0
 18 38  1  0
 18 39  1  0
 18 40  1  0
 19 41  1  0
 19 42  1  0
 19 43  1  0
 20 44  1  0
 20 45  1  0
 25 46  1  0
 26 47  1  0
 26 48  1  0
M  CHG  1  25   1
M  END
>  <OMEGA_C>  (1) 
Z7/TQCkoz77fqLPBWq1CQLgYQMD4EpLBuIrDQBnqtL8m9qzBvH5iQNX4AMBz95jBEzTOQOq6cj9i
7LDBe/OmQIkIkT7j7qDBtXJ5QOItgcBFq47BI5mkQKY6fEA5qrbBxPrhQCKrj0DLnK3BsE+tQM6i
iL95iaPBuxmcQC9jBsAyYZzB1z+3QPLhpj/xiqfBUr+9QFh3bkCpwqzBTA62QAFOSsCXmJjBMFvJ
QCacP0A2mJnB0NeBQNz0VkDnGJfBg5exQMxTMEBlAaTBpw3uQIIX70Ax37jBjhKyQKIbZ0By94bB
8TT9QPOuwUADlLvBOhemQHwxg8Df4ZHBuc65QHlTmEAh6rzBgQzeQDY+okDmf7fBp5epQF2ETED5
BZLBAryEQPINQEAIK6HBDA05QOokdEAlV5LBuwXwQJzyOkCIBpjB5vXfQJSMTsBTU5vBKHvkQMU1
K7/86rrBDfoAQL8APsAmZ4/BPhrIQDbzHMD0Bq/BUgY6QH0xmr9FnZvBoXXbQH4m3D9T+rXBX2GV
QI7tCj/YyZnBe+VgQCCPmcCmXonB3+eFQBHQX0ACcbjBOof7QA5ok0Cf3qfBsq0CQUc9A0F/7LvB
tbXOQAHf9EBkm7zBezbrQBJ/8kBWJLDB86KTQC3VbECnmoLBjWvGQJ0XN0BIBoPB9ofCQEmrkkAZ
+4bB1QYAQWVOvkACT8TBOUcOQXbuu0Dz17fBae5XQCUtOkAFLqbBC0YDQMS8eEC7o5bBefw4QLhN
gkAQnIrB4vLXQAh0z74EVrPBd3amQHZwhMCSZZLBYnDGQAM+tr+b8KzBFeK2QMnoS8D3g5nB6w3R
QL6vcT9grbDBK6SmQLrxgj5QR6HBHJt3QMOygMAw3Y7BtYGkQP2/eUAys7bBdpjgQJFekECxWq3B
e3OtQGe3i79m7KPBDB+cQBTSCMCi6JzBydm3QLRjpD97oafBaTy9QI9CbUDAtKzB2XhiQOqfBcAK
KpnBBkXJQG+MPUC1mJnBMeqBQDfmVkBzKJfB93yxQDWELkDaAaTBqKrpQAm78EAyGrjBndSxQDyS
YkB84YbB56L6QAgwxEDYBLvBgTFEQNElQcCVRJLB6Au5QEg4mEC3yLzBJ4vcQO1Co0C9MbfBBn6p
QCQsS0D7DZLBtIaEQFRcPUADI6HBxuU5QHeGdkAhd5LBAervQMlROEDpBJjBReYrQMgIkb8lvZzB
7LfqQB3CKL/dTLrBoEi6QGiGnsBmpY/BVRzMQAVtHcAt7a7B5XbXQKJWUMDlV5zBQ/veQE6u3D/I
iLXByfmTQBxhAT9mSZrB/ZpeQA8FmMBdTonBb5CGQDD1WkA+prjBKqz5QG28lECVgqfBthYAQQug
BEH09rrBnUTKQEin9UCN4rvBp17mQMo980AQXa/B+kaTQD+UaUB+mYLB7wvFQJ4uMEBaDIPBvG7D
QALAj0CDnYbB++/9QCmzwUAPwsPBAgUNQapJv0CSPLfBvTpXQCY4NUDLDabB4AEEQEP6ekCkvpbB
RHg6QL5whEBBzYrBKD/JQHZt0b76w7XBhjGvQNKqgMCiMZLB2YK8QG6itr/sq67Bq1W6QG9SRsCV
KZrBWhTDQFcdcT+IA7PBRuuhQO6vgT54QKLB9COGQLNGfcDojI3Bp4PsQFvEg0ByUa3Bga6pQKa9
jUAedLTBPlCoQNTIi79O8KTBGDOcQAv+B8CCLJ3BhuCvQPynoz91F6nBmvi+QDDkbUD1wazBx7tm
QHVmB8AFMZjBsiDFQK0NNEByfprBpCJ/QMdjXEDB8JfBHPqsQOc4LUA1/6TBaSflQKae5EC0c8PB
zAKyQNuhZkAEDIjBHWe9QBLwz0B1Xr7BXUlSQHijQcCKmJDBw4fwQLD3oUDldrTBoprIQL/WqECJ
VbjBSKOoQF90WEBraZPBks6AQLY3Q0AB/KHB8eI1QLJSd0BPqZLBfdTpQG/IHEAclJjBZZkqQFy8
mr9RHZvBXsbXQI9EKr8pVb3B8tHFQMq0mMA2o4/BTTDCQLaWHcCnrLDBJnHZQPqqSMBV6p3BuPbM
QEZm3D9rdLjBfBWSQN41AT8a15rBijJ7QBRrlcD6aYfBnhUDQbG4bEAKmajBH5+IQHYPi0Bp4bbB
KZ/bQJ/FAEFj3cfBGBL8QL9Q7UDWIr3BDzj0QCnKzUCr/cjBqyqWQFA1gkB9KITBg/+4QIX4KEAv
LYTBPOjNQM2QiEDcSIfBknWuQHIK50Bm4bjBipumQN2Dx0A7vMTB2PBOQBGUP0CK2abB6pr7P8+I
eEApg5bBNSQ5QLDEhEDCAIvBpd/BQMTM8L5AsLXB5xhVQLspQ8CODY/BOKG2QDDTvL/wVa7BXD5n
QP6FBcAA35bBf2y9QDeRYj9O47LBMymgQEjZZz4qlqHBoliJQGwrgcB3uIzBBpHsQPuLf0Aucq3B
YLipQMKvjECyRLTBYtOlQDbVj7+JPaTB6TebQMQ/CcC6OpzBwBitQIzAnj/Rr6jB/oO+QEtAakDf
nqzBxAu5QI6oScDhY5nBe0DEQPTuMUDwP5rBMWd/QFT6YEDazZfB1rGrQIZlK0AAt6TB+nroQJTM
3EAyscTBTIezQMAIcUDyR4jBmDDAQAtBzECA9L7BMqOvQOBFgsCIzJHBtmvxQOmWnUBxqbTBbKfJ
QHPgpUBZc7jBKk2nQKIPUUDC5JLBAtZ/QNgEREDisKHBtLk5QE6pg0BU45LB4ifpQHRdG0AMc5jB
FH7gQOgHS8Cc453B8+/NQBJQPb9Nfr3B8KQYQJhEQsCT3YrBJNq6QGX4IMDeabDBo1o5QOMmqL/I
wJjBG3HGQL7o0z+3gbjBSr2RQF9G+z5jBprB8kGCQAUVmcBbvYbBAvoCQQ6KYkDb1qjBE1KIQI6y
i0B/ebbBD1HgQI5H+UCjccnBL3gAQZU95UDOub7BmwH1QHmzw0AzAsrBE8KWQIQUg0Dx84PBK1bD
QNKbPUDcwIPBYqrJQDilk0AcL4nB4smzQOKW5UDksLnBH9unQMcMxEBJ+cTBbXNMQGd0P0D6bKbB
nNUCQIVGh0Cw5pbBCVs+QH7gjUAnVIvB

>  <OMEGA_E>  (1) 
YAUJPhi1Dj7QPOs+sOb9Pg==

>  <OMEGA_NBR>  (1) 
      7112

$$$$
50176682
     RDKit          3D

 54 57  0  0  1  0  0  0  0  0999 V2000
    6.7244   -0.3262  -22.4206 C   0  0  0  0  0  0  0  0  0  0  0  0
    3.0545   -2.9894  -18.3128 C   0  0  0  0  0  0  0  0  0  0  0  0
    6.1656   -1.3548  -21.6454 C   0  0  0  0  0  0  0  0  0  0  0  0
    3.5380   -2.0056  -19.1843 C   0  0  0  0  0  0  0  0  0  0  0  0
    6.5365    1.0147  -22.0461 C   0  0  0  0  0  0  0  0  0  0  0  0
    5.1939    0.3013  -20.1423 C   0  0  0  0  0  0  0  0  0  0  0  0
    3.9185   -4.0210  -17.8947 C   0  0  0  0  0  0  0  0  0  0  0  0
    5.0744    3.9207  -22.7635 C   0  0  0  0  0  0  0  0  0  0  0  0
    7.0634    4.4036  -21.7236 C   0  0  0  0  0  0  0  0  0  0  0  0
    5.4132   -1.0387  -20.4940 C   0  0  0  0  0  0  0  0  0  0  0  0
    4.8726   -2.0886  -19.6258 C   0  0  0  0  0  0  0  0  0  0  0  0
    5.7442    1.3402  -20.9104 C   0  0  0  0  0  0  0  0  0  0  0  0
    5.8854    3.7358  -21.5392 C   0  0  0  0  0  0  0  0  0  0  0  0
    5.6913   -3.1480  -19.1627 C   0  0  0  0  0  0  0  0  0  0  0  0
    6.2837    3.0306  -19.1467 C   0  0  0  0  0  0  0  0  0  0  0  0
    4.0503    3.4232  -18.8463 C   0  0  0  0  0  0  0  0  0  0  0  0
    5.5356    2.7777  -20.4407 C   0  0  2  0  0  0  0  0  0  0  0  0
    8.4173    7.8179  -21.8762 C   0  0  0  0  0  0  0  0  0  0  0  0
    5.5601    3.7207  -16.8360 C   0  0  0  0  0  0  0  0  0  0  0  0
    7.3462    7.7809  -22.9812 C   0  0  0  0  0  0  0  0  0  0  0  0
    7.7675    6.8814  -24.1648 C   0  0  0  0  0  0  0  0  0  0  0  0
    8.1029    5.4442  -23.7306 C   0  0  0  0  0  0  0  0  0  0  0  0
    5.2051   -4.0844  -18.3147 N   0  0  0  0  0  0  0  0  0  0  0  0
    5.7835    4.5970  -23.6315 N   0  0  0  0  0  0  0  0  0  0  0  0
    6.9650    4.8430  -23.0160 N   0  0  0  0  0  0  0  0  0  0  0  0
    5.2936    3.2786  -18.2091 N   0  0  0  0  0  0  0  0  0  0  0  0
    4.1328    3.0046  -20.0855 N   0  0  0  0  0  0  0  0  0  0  0  0
    2.8868    3.9107  -18.2727 N   0  0  0  0  0  0  0  0  0  0  0  0
    7.4910    2.9444  -18.9491 O   0  0  0  0  0  0  0  0  0  0  0  0
    6.9987   -3.2098  -19.5138 F   0  0  0  0  0  0  0  0  0  0  0  0
    7.2981   -0.5655  -23.3038 H   0  0  0  0  0  0  0  0  0  0  0  0
    2.0323   -2.9579  -17.9656 H   0  0  0  0  0  0  0  0  0  0  0  0
    6.3114   -2.3865  -21.9297 H   0  0  0  0  0  0  0  0  0  0  0  0
    2.8993   -1.1985  -19.5115 H   0  0  0  0  0  0  0  0  0  0  0  0
    6.9961    1.8030  -22.6239 H   0  0  0  0  0  0  0  0  0  0  0  0
    4.5969    0.5360  -19.2734 H   0  0  0  0  0  0  0  0  0  0  0  0
    3.5458   -4.7800  -17.2227 H   0  0  0  0  0  0  0  0  0  0  0  0
    4.0681    3.5589  -22.9150 H   0  0  0  0  0  0  0  0  0  0  0  0
    7.8722    4.5486  -21.0227 H   0  0  0  0  0  0  0  0  0  0  0  0
    8.0768    8.4676  -21.0565 H   0  0  0  0  0  0  0  0  0  0  0  0
    8.5835    6.8005  -21.4926 H   0  0  0  0  0  0  0  0  0  0  0  0
    9.3573    8.2120  -22.2899 H   0  0  0  0  0  0  0  0  0  0  0  0
    4.6082    3.8451  -16.2989 H   0  0  0  0  0  0  0  0  0  0  0  0
    6.1755    2.9679  -16.3215 H   0  0  0  0  0  0  0  0  0  0  0  0
    6.0969    4.6806  -16.8576 H   0  0  0  0  0  0  0  0  0  0  0  0
    6.4096    7.3920  -22.5552 H   0  0  0  0  0  0  0  0  0  0  0  0
    7.1834    8.8035  -23.3525 H   0  0  0  0  0  0  0  0  0  0  0  0
    6.9416    6.8458  -24.8906 H   0  0  0  0  0  0  0  0  0  0  0  0
    8.6559    7.3210  -24.6417 H   0  0  0  0  0  0  0  0  0  0  0  0
    8.3306    4.8407  -24.6216 H   0  0  0  0  0  0  0  0  0  0  0  0
    8.9792    5.4620  -23.0660 H   0  0  0  0  0  0  0  0  0  0  0  0
    3.3546    2.8615  -20.6970 H   0  0  0  0  0  0  0  0  0  0  0  0
    2.0455    3.9577  -18.8112 H   0  0  0  0  0  0  0  0  0  0  0  0
    2.8885    4.2154  -17.3203 H   0  0  0  0  0  0  0  0  0  0  0  0
  1  3  2  0
  1  5  1  0
  2  4  2  0
  2  7  1  0
  3 10  1  0
  4 11  1  0
  5 12  2  0
  6 10  2  0
  6 12  1  0
  7 23  2  0
  8 13  1  0
  8 24  2  0
  9 13  2  0
  9 25  1  0
 10 11  1  0
 11 14  2  0
 17 12  1  6
 13 17  1  0
 14 23  1  0
 14 30  1  0
 15 17  1  0
 15 26  1  0
 15 29  2  0
 16 26  1  0
 16 27  2  0
 16 28  1  0
 17 27  1  0
 18 20  1  0
 19 26  1  0
 20 21  1  0
 21 22  1  0
 22 25  1  0
 24 25  1  0
  1 31  1  0
  2 32  1  0
  3 33  1  0
  4 34  1  0
  5 35  1  0
  6 36  1  0
  7 37  1  0
  8 38  1  0
  9 39  1  0
 18 40  1  0
 18 41  1  0
 18 42  1  0
 19 43  1  0
 19 44  1  0
 19 45  1  0
 20 46  1  0
 20 47  1  0
 21 48  1  0
 21 49  1  0
 22 50  1  0
 22 51  1  0
 27 52  1  0
 28 53  1  0
 28 54  1  0
M  CHG  1  27   1
M  END
>  <OMEGA_C>  (2) 
ji7XQCADp75mXbPBNH1DQOtSP8CngJLBsEzFQChrrb+4Ka3BFW5iQA9cAMBheZnBnCrRQB7jgT+C
XrDBljSmQC4/mj5eI6HB8cd6QA2sgMBGKI/BSmGiQE7sekCzG7bBsgfiQPHpjEDhya3BjjitQAT1
hL+r86PBiuybQDWsBcCmAZ3BGNC3QMqMqz+MSKfBeFW8QOsXb0BfUKzB0B62QCV5ScAeTZnBwhPJ
QL/1QUCILJnBrJuBQLgVW0AvxZbBeiOxQBjFMUCbhqPBEa0GQZ4s+kB+Aq/BlOyxQLwfbkAOsIbB
RBTrQH39+ECG2bfBAo/4QMc03ECaUcHBZKUBQTY3rkBS2L3BlpCmQMGzgsBshJLBcBK5QLgak0Ba
Db3BEOHeQID5mkCwILjBxGSpQDPVUUBRrJHBOECEQJZKQEAdr6DBCME4QLRIekB8LpLBWLbvQM9w
PEC9l5fBTvXfQKxsTcAsHJzBUIrpQE/HEL8fbrrByRECQCtOPcCUuY/BuPbJQAS8GMAdcK/B3o45
QB5omb+eF5zBI+DfQN7I5j+s/bTBKhqTQNc4CT/0L5rB3O5iQH31mMAcyInBCy6CQMXEY0AEUrfB
7ej7QH2OkUBnLqjBhzoBQWt7B0Gkc6jB4FUJQYCd2UDw8KvBVLcVQSlkA0HAUbLBj3aTQK0VdkA3
ZILBGp7FQMvyPUCCkoLB7BnDQE/HlUBc3IbBXxvNQHqL7EAbcbTBSN7lQCbbDEHs0brBtCHeQHkQ
20DvH8fBn34KQQpG6kA0IsXBFkoFQcvmmkAP+cTB8qoPQQvJrkA8h7jBKbJWQBUiN0Brk6XBJ+kC
QFxLfUBefZbB+Nw4QNnkhkDoj4rBU+3ZQADLqL7RO7PBAgymQMl0gsA8gZLBDeXHQFp1rr+SFK3B
ffS2QDe+SMAmqJnB87bSQMGggT+aZ7DBCFSnQKxjlD6qTaHBxhR2QPZ6fcCgO4/BMo6hQBrye0Bk
PbbB3/zgQGi6jECBya3BKUeuQKovhr+xIaTBCVycQC1IBsAtSp3B/KW4QB1bqj9pb6fBUWW7QGaZ
bkBgcqzBHGViQHC8AsCLwJnB/obJQFWOQUDIZpnBY+SBQCUwV0C/spbBGhixQAm9MEAfrqPB88nb
QHKLA0FdUL7BShKzQKtfa0CzxYbBf0/yQDlu9kDJMbTBVYAKQazR1ED45bbBVaEBQY3urkD9cL3B
NQxDQOTCPcAj35LBN3O4QC4nlECGEL3B1RfeQGDCm0ByBLjB5S6qQCRQUEAKypHBjESEQGq2PUB+
rKDBqds4QHS3ckAd35HBrETwQKDePEBl7pfBhK0sQBJiir/8a53Bpk/tQN4XEb9wIbrBhcG5QJo6
nMBah4/BS6LNQKRAGcBxMq/BRb/XQD1UTcDrUpzB6gbhQI4E5z/jD7XBI2eUQMKXBT/8UJrB2Dxc
QAPglcDAr4nBjVyBQLcOZUDOibfBtcv6QILTkED9IajBIG/DQNprD0H7DbzBjnvzQCMMC0HAocPB
JlnMQCc97ECrfsLBCcKUQNOTckAKZILBcgPHQLbgOkDtyoLByx7EQOJ6lEAm34bBF7wAQbbDCEGd
DLDBx1XaQEus50CI6a7B2TYXQel35EBLj7vBCDkRQSBsyEAEYa/BInH5QNZrukCTY8XB/DMOQc+P
lkA+Vr7BPmVWQEeCNEC4gqXBlj4CQEzrc0AqCpbBl2Q5QAmxgkA8OIrBY47aQDlip773J7PBXgCl
QL2tgcBWTpLBC0PIQDYFrr+GC63BpK+2QOCsR8D7Z5nB5v7TQHD0gT+fN7DB26aoQBiOlj7NGqHB
oCFzQHoPfMBkZY/BZGahQIJsd0AMC7bBntfgQM09jkB2Aa7BNv+uQFJ8hb+NC6TB52qcQGe9BcDV
UJ3Bk0G6QA/aqj+wMKfBRkW8QAFibkBDXKzB3rNhQG8tAsCRIJrBKnbKQLMlQ0D9LZnBno+CQBkC
V0D2o5bBlIyyQPcbMUBWe6PBJRsHQaiX+0CV8K7BTteyQGkqbEDqlobBTRLoQGCg+kCrubbBqhXy
QNwD4EBw08DBPM7+QKicsUDWOL7BzMVAQEnjPMC6UpPB03u2QM5nkkBQFb3BSDjcQA8QnEC5VrjB
pauqQNLvUECaoZHBP4OFQHYyPUCNlaDBNHk5QCwkckDY85HBWDDxQB+uP0C7ppfBChMtQPoEib/L
AZ7B+aPtQFNuEL/RGrrBrm+4QFQ1m8ByGI/B1ojNQPcJGcDSO6/B+cnXQPQ/TMBg0pvBx5DiQFo4
5z/N1bTB5f2VQEmGBj9rEprBKBBYQHX/lMDR5YnBvr+BQOkGXUCoHbfB7+b6QMsZlEDphajBIOgC
QU5nB0Eu36fBhAALQQzD2kAJb6zBwQsVQS/yBEEj87LBy0aUQK5mckBvS4LBBvjGQONAPEDpjoLB
JmvDQGQilUARoobBolPMQLt27ECboLLBHWrgQAbMDUG0JLnBc3vVQIyB30Ad9MXBGFIGQV5a70A6
JcXB8H8CQTtDoEB+uMXBg/oNQZS3sUA1SrnB82FZQKo2M0AGeqXBDEoDQBq9ckCXNZbBHhE5QOWP
gkAMUIrBX2TTQFa/tb4B0rPBXWxIQFLtQcDY2pHBXNHDQLBKsb+uQa3BQzJmQCx4AsB21JjBGwfN
QM2UfD+45LDBcp6mQNRoij7R7aDBQAWAQP9GgsAwzY7BajuiQIwifkC9NbbBA4fhQBY8i0CMbq3B
z7CtQIACib+FvqPBy16dQBbhB8A6rJzBHO21QOm5pz/+b6fBBi+7QGLYbUA9VKzBs623QGC1TMBF
UpnBAM7HQCoVP0C+UpnBfDOBQLCeX0DdC5fB4G2vQFDTL0CEqaPBl6nZQBcqAkHnMcDBHLaxQKQl
b0Dy64bBYRLsQMf/90BJM7XBGtwIQfUu2EC0PrbBX7ACQfOBr0Dlf7zBULqoQEN+hMAVf5LBwEe6
QPgHlUCr1bzBF8rfQJMYm0BZlbfBjZKoQKrxUkD24JHBaryCQNxSP0DIuaDBJZk6QEQRg0DCq5LB
iT7uQIbkNUBhspfBWe3gQHzqUcB5mZzBjkHkQJ0JGL+bHbvByqQHQBnVP8BR2o7BY8TIQF+wGsA8
fK/BHRI9QAufnL9tOJvBg7/ZQKBt4z/u2bXBIUKVQC0OAT8zspnBLTppQKmnmsCwYYnB486BQD5k
aUAds7fBCBj7QLATjkBzqafBXwe/QGt3DUHXHL/BltPyQLa3CUGPDcXBVvrNQDht50ADSMTBUXST
QIy8ekAdqoLBhATEQEQ+PUB+uoLBUYfEQKNOlUBgJ4fBIHz3QMWOCkFIKbHB4aLSQFUb6UC9Y7DB
mxkWQdEr6EDbcbrBJR4OQRzWzkCwLa7BdNT9QGgquEBh0cTBajMQQa/0mEBiZbzB8sRSQK8zM0DM
XaXBy74EQMBKhUAp9ZbBq6E8QJ69jkD/OYvBt27EQPELwb67frXBn4mtQIIhhcA455LBLdi4QFUf
s7+kYa7BwUi6QOaIScAf/5nBcg7BQERQdz+pVLLBobSlQD8miz5K66DBPmWDQOLkhMA53Y7B+LDp
QPjggUCzm6/Byu6jQIBThkBBM7XBpiWpQDe/ib/8IKTBP5WcQEyECcBmwZzBDvGxQFucpz/s66fB
/ba8QJkSbUBHCq3Brm5lQOy9DMCra5jBhuHGQOjWQUDx3JnBLAeAQKhSYkDFKJfBZQmuQA5gMUDp
LKTBMoC3QBjhEkEgLbvB0NOyQPtieECdeYfB8B+qQOp+9kBkxLvB+87AQOTi30DHNsXBTl60QJge
sEBK1cXB+9tNQKQ1TMARppHBBGbqQF/hlkBcs7jBQAnBQEF0mUCH6bvBkHqpQMgqZUDDyJLBpIWB
QFIWRUAhDKHBnVQ1QPgme0B49pHBs97sQHStM0APJJjBn2kqQE/Qor8wR5vBu/HPQD1oH7+tZr3B
a7jDQLPsncBAkJDBffG7QC27G8BjwbDBjEHaQFXWSMCnRp3BAgTKQBnW3z/Y2LfBDaGZQG28Aj95
DZnBgR1zQELbncAga4nBTaYCQaQ+dEBCyarBLqOBQCk3hEC4ILbBBBenQKmjGkFNbbTBn1PaQMXv
E0HRArrBY6uuQP/6GkGPq8LBIzqWQJfsiUCwqYPBgui7QMcVPUCoT4PBhVXNQMNHk0AkA4fBS++y
QJFz5kAgQLTBDkeHQAOK9EDe6LzB9Iy3QDi270DauczBy6TjQMFx4kDFH8TBIYaRQHdzrUAw48bB
kq3EQJJVoUAss8zBvglQQAZSPUDwx6XBJiz6P7Fgd0AywJXBjt03QPFiiECUcIrBfvXCQNse2L62
F7XBFklMQH5vTMD+xZDBV9S2QH3jtr/i5q3B5ahiQD8+CsBV05fBS0HAQK3xbD/pB7LBLlOkQKN4
iD6tk6DBgvGEQPZ3hcBmH47BRQXqQB80gEAumq/BY1ukQJsVhUDnPrXBJnunQGUHi78KpqPBHPSa
QFsjCcCcIJzBAiCxQPYEpT9wqqfBM+e8QDj4akCsBK3B/mu4QMmlScANG5nBALTGQExlQUAzxZnB
MASAQLyqY0BWJJfB7NGtQKKDMEDAEKTBNX25QPf3EUGcuLvButmyQN8nekCBeYfBt7CrQDDF9EBq
K7zBbDvCQPF53UChiMXBily1QFvMrUBkAsbBsBetQGhShMCqOJLBkAXrQBKxlEAnxLjBzLbBQACH
l0AMArzBkXWpQBIPZkDhwZLBV2qBQCSYRUCN/aDBdn01QCSpfUCi/pHB+pvsQA2eMkD3A5jBUCDh
QMC1R8Be2JzB9V3OQDviLr/5+bzBFawMQFd+T8Boao3BHDy5QPPfHcArNrDBdfI0QCtOsr/u6JnB
47/JQMk02T/Hl7fBjw2YQA56BT/vwpjBp6d4QNbvnsCpsYjB6cACQT/XcEBgvarBZwyCQKxJg0Al
L7bB/iupQMP4GUFiB7XBDlPcQO3lEkHci7rBd9uwQHvrGUH9RMPBamKWQJ1Pi0ATt4PBCpO7QGEP
P0DjN4PBpZzNQBrjk0AtEofBSU20QEYH5UBJmbTBstWIQGQS80BqUr3Bayy5QJQB7UBqGc3B2hTl
QDfF30B0b8TBa4GSQPdkq0BcFMfB4ZvFQM+DnkAe0czBTtFPQLgVPkC2uqXBS4b6PyAhekBHypXB
OiM4QCHwiUDXf4rB

>  <OMEGA_E>  (2) 
iOOJPlzciz6QDpY+NDSJPtwLBT+qcgg/

>  <OMEGA_NBR>  (2) 
     14903

$$$$
50176689
     RDKit          3D

 60 63  0  0  1  0  0  0  0  0999 V2000
    6.7042   -0.3134  -22.4245 C   0  0  0  0  0  0  0  0  0  0  0  0
    3.0691   -3.0326  -18.3523 C   0  0  0  0  0  0  0  0  0  0  0  0
    6.1622   -1.3428  -21.6438 C   0  0  0  0  0  0  0  0  0  0  0  0
    3.5421   -2.0320  -19.2093 C   0  0  0  0  0  0  0  0  0  0  0  0
    6.4971    1.0232  -22.0547 C   0  0  0  0  0  0  0  0  0  0  0  0
    5.1756    0.3067  -20.1384 C   0  0  0  0  0  0  0  0  0  0  0  0
    3.9498   -4.0495  -17.9320 C   0  0  0  0  0  0  0  0  0  0  0  0
    5.0429    3.9868  -22.7435 C   0  0  0  0  0  0  0  0  0  0  0  0
    7.1157    4.2061  -21.7888 C   0  0  0  0  0  0  0  0  0  0  0  0
    5.4096   -1.0295  -20.4927 C   0  0  0  0  0  0  0  0  0  0  0  0
    4.8840   -2.0839  -19.6299 C   0  0  0  0  0  0  0  0  0  0  0  0
    5.7110    1.3474  -20.9103 C   0  0  0  0  0  0  0  0  0  0  0  0
    5.8670    3.7195  -21.5420 C   0  0  0  0  0  0  0  0  0  0  0  0
    5.7226   -3.1225  -19.1589 C   0  0  0  0  0  0  0  0  0  0  0  0
    6.2622    3.0374  -19.1444 C   0  0  0  0  0  0  0  0  0  0  0  0
    4.0368    3.4626  -18.8319 C   0  0  0  0  0  0  0  0  0  0  0  0
    5.5010    2.7833  -20.4352 C   0  0  2  0  0  0  0  0  0  0  0  0
    7.6984    8.3379  -23.8545 C   0  0  0  0  0  0  0  0  0  0  0  0
    9.0354    8.5185  -21.7272 C   0  0  0  0  0  0  0  0  0  0  0  0
    6.8177    7.3772  -21.7046 C   0  0  0  0  0  0  0  0  0  0  0  0
    5.5592    3.7173  -16.8220 C   0  0  0  0  0  0  0  0  0  0  0  0
    8.9063    6.3096  -22.8833 C   0  0  0  0  0  0  0  0  0  0  0  0
    8.1686    5.2741  -23.7628 C   0  0  0  0  0  0  0  0  0  0  0  0
    8.0988    7.6088  -22.5518 C   0  0  0  0  0  0  0  0  0  0  0  0
    5.2448   -4.0788  -18.3300 N   0  0  0  0  0  0  0  0  0  0  0  0
    5.7984    4.5687  -23.6437 N   0  0  0  0  0  0  0  0  0  0  0  0
    7.0143    4.6991  -23.0606 N   0  0  0  0  0  0  0  0  0  0  0  0
    5.2815    3.3025  -18.2024 N   0  0  0  0  0  0  0  0  0  0  0  0
    4.1025    3.0274  -20.0680 N   0  0  0  0  0  0  0  0  0  0  0  0
    2.8858    3.9679  -18.2476 N   0  0  0  0  0  0  0  0  0  0  0  0
    7.4683    2.9344  -18.9467 O   0  0  0  0  0  0  0  0  0  0  0  0
    7.0392   -3.1406  -19.4810 F   0  0  0  0  0  0  0  0  0  0  0  0
    7.2792   -0.5485  -23.3080 H   0  0  0  0  0  0  0  0  0  0  0  0
    2.0424   -3.0254  -18.0173 H   0  0  0  0  0  0  0  0  0  0  0  0
    6.3204   -2.3741  -21.9228 H   0  0  0  0  0  0  0  0  0  0  0  0
    2.8908   -1.2369  -19.5409 H   0  0  0  0  0  0  0  0  0  0  0  0
    6.9376    1.8149  -22.6425 H   0  0  0  0  0  0  0  0  0  0  0  0
    4.5801    0.5354  -19.2668 H   0  0  0  0  0  0  0  0  0  0  0  0
    3.5832   -4.8251  -17.2760 H   0  0  0  0  0  0  0  0  0  0  0  0
    3.9970    3.7435  -22.8586 H   0  0  0  0  0  0  0  0  0  0  0  0
    7.9772    4.2032  -21.1375 H   0  0  0  0  0  0  0  0  0  0  0  0
    7.0309    7.6936  -24.4455 H   0  0  0  0  0  0  0  0  0  0  0  0
    7.1779    9.2744  -23.6053 H   0  0  0  0  0  0  0  0  0  0  0  0
    8.6016    8.5650  -24.4398 H   0  0  0  0  0  0  0  0  0  0  0  0
    9.3233    8.0037  -20.7986 H   0  0  0  0  0  0  0  0  0  0  0  0
    9.9370    8.7454  -22.3151 H   0  0  0  0  0  0  0  0  0  0  0  0
    8.5133    9.4548  -21.4805 H   0  0  0  0  0  0  0  0  0  0  0  0
    7.0832    6.8584  -20.7717 H   0  0  0  0  0  0  0  0  0  0  0  0
    6.3557    8.3466  -21.4662 H   0  0  0  0  0  0  0  0  0  0  0  0
    6.1065    6.7627  -22.2761 H   0  0  0  0  0  0  0  0  0  0  0  0
    4.6106    3.8625  -16.2844 H   0  0  0  0  0  0  0  0  0  0  0  0
    6.1510    2.9393  -16.3175 H   0  0  0  0  0  0  0  0  0  0  0  0
    6.1245    4.6609  -16.8296 H   0  0  0  0  0  0  0  0  0  0  0  0
    9.1685    5.8217  -21.9329 H   0  0  0  0  0  0  0  0  0  0  0  0
    9.8258    6.6068  -23.4088 H   0  0  0  0  0  0  0  0  0  0  0  0
    7.8187    5.7690  -24.6807 H   0  0  0  0  0  0  0  0  0  0  0  0
    8.8667    4.4656  -24.0253 H   0  0  0  0  0  0  0  0  0  0  0  0
    3.3167    2.8837  -20.6695 H   0  0  0  0  0  0  0  0  0  0  0  0
    2.0374    4.0168  -18.7747 H   0  0  0  0  0  0  0  0  0  0  0  0
    2.9038    4.2837  -17.2989 H   0  0  0  0  0  0  0  0  0  0  0  0
  1  3  2  0
  1  5  1  0
  2  4  2  0
  2  7  1  0
  3 10  1  0
  4 11  1  0
  5 12  2  0
  6 10  2  0
  6 12  1  0
  7 25  2  0
  8 13  1  0
  8 26  2  0
  9 13  2  0
  9 27  1  0
 10 11  1  0
 11 14  2  0
 17 12  1  6
 13 17  1  0
 14 25  1  0
 14 32  1  0
 15 17  1  0
 15 28  1  0
 15 31  2  0
 16 28  1  0
 16 29  2  0
 16 30  1  0
 17 29  1  0
 18 24  1  0
 19 24  1  0
 20 24  1  0
 21 28  1  0
 22 23  1  0
 22 24  1  0
 23 27  1  0
 26 27  1  0
  1 33  1  0
  2 34  1  0
  3 35  1  0
  4 36  1  0
  5 37  1  0
  6 38  1  0
  7 39  1  0
  8 40  1  0
  9 41  1  0
 18 42  1  0
 18 43  1  0
 18 44  1  0
 19 45  1  0
 19 46  1  0
 19 47  1  0
 20 48  1  0
 20 49  1  0
 20 50  1  0
 21 51  1  0
 21 52  1  0
 21 53  1  0
 22 54  1  0
 22 55  1  0
 23 56  1  0
 23 57  1  0
 29 58  1  0
 30 59  1  0
 30 60  1  0
M  CHG  1  29   1
M  END
>  <OMEGA_C>  (3) 
eIjWQIB5oL56ZbPBBmxEQKMVQsB70ZLBDzHFQKvhq7+TJq3ByrFiQLoMAsC9rJnBbujPQLz2gj/w
b7DBN56lQFYOnT5sG6HB2sh8QC6VgcDFdI/BzF+hQP4mf0Cq8rXBobPjQGuYhkBdT67BTxutQHDH
g7/38KPBikmcQMVeBcAeCp3BIcC2QNx4rD9ZSKfBpb67QB8MbkAYVqzBph+3QIvWR8B4RZnBJ2TI
QNxkQkDJJ5nBUi2BQICbXUDAp5bBCgiwQJohMkBge6PBj1n2QAdoBUHt1b7BJpEQQcRLCEE70a3B
kSraQAUS7EAYo63B1OSxQJ/nbUCNk4bBMYAOQQnoyUD+ELfBd7ICQavFqEAhGr7BlpQBQZV780AR
arTBqtWnQO+FgsDno5LBcYy5QAYzkkBlJr3B43TgQNZelkAGfLjBUQKpQIhbU0BsnpHBBEiDQK/A
QUA8i6DBlLA4QNHyfUAG+5HBt/zuQHLMO0DrkpfBbEHhQEcAScAd2ZvBaO/oQKZpDL+9drrBKbYC
QM+fQcCHI5DB1EDKQH3xF8DlYa/B6wI5QFxRnr+6U5zBwwDeQI9O6D/KI7XBfJCSQMsQCT+CIprB
WVJlQFhnmsA/NYrB9c5/QPeVb0B23rbBM0X/QNmAhkCHGanBWP3gQFYy9kB0kMPBrrHlQNVjFEGR
17zBTqAJQSIKCUHEhMPBECwVQVoPAEGTY6bBGf4eQfvsC0FNhbLBojYIQa5GF0Eb2KvB3KniQAt4
20B5LKbBomHLQJaLBUHbuqvBcmjDQAFo2EB6NbLBzYmTQJkzd0CBRoLBFNXEQJkdPEBTioLBjfvD
QOcllUDtoobB/rESQQlLukCgdq/BojYdQeFq00AgRbvBrDL6QKCbuEAncsXBB94NQXrmjkDeM8DB
jkRUQB6OOEAQW6XB72QCQGeJgECiMpbBVdg5QLETiUAeZIrB8eTWQAeGib5Jt7PBjFSpQJ19gsDC
CJPBVCzGQIY5qL/lf63BeOC4QITYRsALHJrBFlLPQPxDiD8hvLDB75alQNg8nz6FcaHB2tZ8QNtP
gMDAmY/BMO+hQAaGfEBUWLbBMazgQI57i0ANZ63BpFOtQGiQgr9IYKTBvQmdQCSeBcDUf53Bbu61
QOy6rj8BlKfBG++5QOdFcECHO6zBDj1kQM73BMAPyZnBvevHQKXjQED2UJnBX/qAQAJMXEASdpbB
pcuuQBp3MkBhj6PB3mC7QMqk9UC2UrnBAbf3QOItEkFcZ7/BdXIAQQ/k90Di7K7BwS+zQFNYbECI
pYbBctT/QKmO1UBh2sHB7pEDQf+JqUCwvrzBAt3sQMzG+EB2R7rBHIFHQALlQcB//ZLBKlS7QJ9E
kUB1OL3B5T3gQOSNmEDcxbfB6TqpQJ/uUUAuopHB0EGCQAD7QEAdY6DBgBE5QFAHfEDxi5HBmoTu
QLAoOEC25JfBsVUsQEAdkb+bO53B+InpQEhA+r47xrrB3Py9QE/Xm8AoPZDBxE/MQK/TFcDnsa/B
a5DZQJkAScDu5pzBI9fcQK8W7z/earXB1tqSQPd+Bj93Y5rBPQJlQL5BmMDzIIrBOzqBQCR4aUDn
zLfBZaz5QOd5j0B6hafBo6WyQGHO1kAwr7XBg3yvQAf2B0F0R7TBf/esQOD+90CGVMHBM1ENQXDA
E0F5L8DB6dvoQKguE0GoXcfB7WDrQEAlH0GWULrBJfcRQT0a+kAbka/Bv8L0QKSQCUHQP6rBty/4
QKLP2UAO6KrBzEGVQG7SdUA3K4LBZ2nGQDBnOkD4uYLBJV7FQIZOlECizobBuWcPQfss4UAU28TB
JZrpQLNk0UDBmMjBKOwIQTgck0AR+sLBow0QQYh8rEDclbbBbnhRQAKHN0DyEKXBn/wBQA4jf0AG
mpXBEo07QNnoh0Dw8YnBQGHUQATVl76G47PBdzlGQJFxSsAMkJPBEfbDQL/+q7+pqK3BscRhQH5j
CsBsmZrBjiHNQIZfhD/iz7DBpnCjQP4IjT7agKHB7yyBQIm4gsCVho/B0j6iQOExfkCXJrbBWkDh
QF6kiUCdHK3BaNSrQCnJhr95aqTBLlycQAvOB8Beep3BY/2zQO+gqj/0mqfB5u+5QHq9bkB6D6zB
Pwu5QKlsRMCGFpnBWK/GQAtqPUB/M5nBC5aAQN6lYUBEvZbBhLitQPCCMECBgaPBxlHAQPtt9kCx
V7jBrt/+QAmiEUF65b3BmMkCQew/9ED2y63BskqyQMQbcEBZy4bBycIBQfOS1EAkBMHBiXAEQZ+b
p0A/SbzB8u7xQHWI90A7K7nBlRerQL3UgMC8RZLBP0G8QIH4kUDH6LzBqVjhQJ6Xl0AoarfB3iqo
QE7wU0Dls5HBrU2BQFssQUBAbKDBiFw6QOx5hECwOJLBlu/sQNzpMECFopfBa4DjQJMfP8D3M5vB
jIvmQAplA78YCLvBqb0DQK6YTsDGQZHB5cfJQA6oF8Db7q/BvS41QNDtt794v53B0rraQHxi6z/L
drXB0SeQQL57+D5oiJrBRBVtQJJzm8CGG4rBo0qBQAtRbUAKrbfBM0v6QFJkjEB9MqfBNx+2QDuH
10Cr/LTBu2C1QLpACEExGrPBDlayQBV8+kDBWsDBj/YQQZx9EkHQk77BXG/wQBB/E0Ej3sXBCXrz
QL+BHkGTnbjBoVgUQaoG9UDtXa7BHH36QParB0H96KjBoXX7QBEN1kB6DKrBtHOUQJkifkDgd4LB
O93DQKgnPUApmoLBiCnGQOUTlUA3IofBlIIRQRpE30AK5cPBU0LtQB9G0kDrzsfB2EMJQeWYkUA4
t8LB1AERQaCfqEBzIbbBXzdPQH6nNUDk96TBCvwDQHfyhkAXZZbBb6M9QPIvkECnyYrBjPLZQIII
ob4aILPBF2+nQC3rg8CQ+5LB9DXIQDAbrb8DBK3BCBu4QEN/ScCj3JnBuWPSQM+ngj8pO7DBLxKn
QLYCkj4EKKHBpHF4QN9PgcB90Y/Byw6gQJrEfEAb07XBlVDiQFPMh0DXTq7BeoauQEY7hr87D6TB
9w+dQBo8B8BAVp3BfUa4QDeHqj9wOafB7xu7QO0lbUAIS6zBDo5jQE+7BcBa5pnBmxTJQHbjQUBt
IJnBQgGCQOr3XECToJbBjqCwQJG6MEAPaqPBY3HwQFh9BkEy077BC5oNQdjoCUEO1a3Bf03VQPVG
7UAin63ByoKyQF/xa0DkgIbBRn0MQeQkzUBvHrfBHxUBQbRjq0DXIL7BU//9QPvt9UAUbLTBJqRE
QBLlQsDqSZPB9ii3QOlUkkCQBb3ByhLeQIbCl0B7cLjBD6ypQH2pUUA2jpHB986DQAaVPkAGZqDB
TB07QGUPgEB2FpLBdcfvQHT1PEBMnJfBoCstQKB/kL+Abp3BDF3tQI/VCr9qCbrBYXW7QM6sncDL
IZDBvDTOQK9rGMDiKa/Bkg7ZQJdETMCucZzBwHrgQEPJ6D8Z3rTBO+qTQBbDAT/qL5rBr99eQKlU
mcDEfYrBidh9QM1oakDJsrbBLQr+QNCliEBzJ6nB357bQHfQ90BQjcPBZfreQEA6FUFwzrzBQosG
QeWKCkFNhcPBJnkSQQrIAUGsaqbBbuUbQT71DUHdjLLBX9cEQZmkGEH/1avB7lreQPDb3EB4LKbB
06bFQK3rBUG2r6vBDRK/QPoB2UCiMLLB/SWUQOU5dEBeLILBF9XFQOp8OkBahILBxjDEQL9olEDE
iIbBpf4QQVnAvUBCiK/BlAIbQV6E10CeXLvBYi72QLf3ukDCbcXBRp0MQelEkkAQT8DBdAtVQCyy
MkAlEqXBj+cEQEm3gUDlUZbB0ro8QOIVi0COlIrBVwXDQFGp1b70DbXBUnNMQLQPTcCs2ZDBTg23
QJN5tr9t3q3BguhiQIqXCsAd25fB2RfAQMvQbT9L/LHBHGakQGE+iD4ThaDBYgeFQG3NhcB6N47B
XSnqQFyQfEAZpq/BOm2kQCmRhUAvHrXBTKmnQNbzir94naPBEx+bQJlECcDQIJzBFw6xQN00pT/O
mafBGdu8QIeaakAY8KzB+Za4QLfTScDDIJnBTJ3GQJWrQUBrs5nBfwCAQBejZEC6G5fBWqytQICV
MEDY+6PBAbi1QH359EBQL7HBfUOwQKA0FEEYjMDBFwbvQHf39kDgrb/BPeCyQIGue0D1dYfBBryi
QP762UDFKMTBg4a2QC0BrUB6B8bBSTa+QOR9+kDfYb3BpjitQCSLhMCDSZLBeHDrQFS2kUAG7rjB
dCbCQN6OlkBSA7zBInOpQDf5ZkA8uZLBCVGBQCLfRUBn7KDBeZE1QLc9f0BP/ZHB9ITsQN3jMkCV
8JfBHFLhQFuzR8A52ZzBynnOQNgQLb9f8LzBncUMQIFNUMC9g43BRZy5QLKjHcBbLrDB9DI1QBDt
sr9h7ZnBO1jJQNvf2T+UjrfB/SiYQCupBD8LspjBH8J4QKdhn8D10ojBhcUCQexRbECuyKrBVgaC
QMAbhUBz77XByU+/QN6e1ECPrq7BIWbIQDBpBkHxs6zBxHCTQBeY+UAbja/BjuC1QJqqFkGlJcnB
WQeOQPJPFkHsyr7Bt/zCQBbtH0HC8bvBusz0QOXj+kDoTcjBdxEAQX8QCEF+QbvBs6b6QPti10BC
Gb3Bp3aWQNRLjEChuoPBZny7QKvHQED4JYPBXrnNQDKPlECPGYfBLQWdQI2F6ECAC8zBZASEQF2D
1UBtAsDBNyKfQKRMmUCQYsrBIZXTQA66sEB/6MrBpo9PQMkJPkDtpKXB/6X6P2uie0C1x5XB5Ew4
QJj8ikDZhIrBsJDrQG2xhr7qva7BMjA8QFKgPMBexpPBDrrUQKW4pb80w6nBuWJmQMCy9L8hMZnB
ySTiQBc5iT/TTazBgoKrQEKdsj7io5/BcLBoQHR5hMAykJHBMfafQPgYbkBOXLbB3KnhQEkLikBW
vq/BNFS1QFsfgL/p8KHB9lWeQOe/BcBuRJzBvLjAQJPEsj8sCaXBuqG8QHeNakDm7azB39ayQKFn
VMBTqZnBtrvLQJjsWkCNH5nBxR2DQACnZECUZpbB4XW0QPgGN0DE06LB9MT3QNssE0GVc7vBnWbl
QMtc+0AvD6vBNgO7QNBj8kC9E7zBEZqzQK1bjkAhoofBBKAFQQFf10Af6rrBpm/6QBtfrkDTisDB
B7ToQJzU+UA8drfB+LOdQKfUicDLepTByLWzQGNai0BjH77B+WHaQPzAlkD1FbrBhs+rQN2aekC+
cpLB6uWGQKX3P0AC1p/BHoc4QHbjc0DOTpHB5HPyQCjiXEBwi5fBMtLcQKUqYcBi1ZvBdTMCQZEx
/r7Ic7TBVaH0P+03NcDEU5HBshvbQNeYFMBX56vBKmFFQIxlfb+6/ZrBCHj0QJOM7j9g/K/B+YuT
QD2ZFD9NspnB1whIQMkVnsDdcI3BzBOAQBOlU0BCyLbB/uv9QL4sj0AL8KrBh1X6QOH/EkFIOsTB
rXXgQKZqH0GO/7jBzZkLQbrmFkGu9LfB+73aQLUM3ECwDKjBlHcCQZOGAUFap6fBOTHOQH8KCkE6
sqjBCgivQKoG00AIb7nB/26lQEHYBUHGMLnBZ0u8QEw180Bv3sTBKx2VQCS9mEAKFYTBIPbBQDqL
akCAnILBSo/JQDjMqUB1IYjBjTEOQeJGzUBmp7PBnd8QQdYd50CYa8DByJTrQGOmt0D0LMjBgtwK
Qc4GmUDdGcLB+6FcQNbFLEByXKTBD7UBQCehYkDX05TBx4A3QH0MiEDEIIrBiUzpQOClpL4/fK/B
hsSaQGpNjMBErJXB99fSQLDorL9hUarBLTCxQFAxV8Dz6JrBSELgQL5mgj9IC63BocCrQJwMnT7O
15/BrUNgQN0lhcCPgZLBHoWeQO3qbkAnKrbBiBPhQMr7iEDw06/B7MuzQJa4hb9Jc6LBKGWcQGyW
CMAu6JzB8zTAQMG2rD94aqXB0g+8QHTaaEBf7KzBuBRiQN0Z/r+Hj5nBeZ7MQNCvVUA8PZnB1j+E
QPrqX0DCIpbBXIS0QEPZM0AB7qLBt4v3QEIlE0EFqLrBQy3mQDDW+UAAcarBnD66QCL58kDIRbvB
hhO2QN4qikBDcIfB5iYFQUYb10A1t7rBNJ/4QPvbrkCWg8DBO2XoQDiG+UAq3bbBMVA4QEQQP8DT
dZTBKcSxQBlSjEBj6b3Bc/HYQJ/dlkC9CLrBAlOtQLt4dEBwUJLBpi6HQAQHPUCBsp/BB7Y7QMW7
bkCkzpDBu3LzQGWNVkDe05fBvwY1QId+XL/9ypvBV8QAQVaTD78NV7XBtQaqQFanqsCdFZTBt0jZ
QIxhGMCkWqzB5PLRQB/LYMDRYp3BadHxQDtG5z9w/7DBUZqVQLcHCz9pfJnB4uc9QE1JnsAna47B
U+h8QG5CVUA1erbBId79QCI8jUAbK6vBkln5QBdmE0GgccPBGLHgQMBdH0HS7LfB5KsLQfqMFkGP
SbfB73nbQF5U2kAjkqfB3AgDQQhyAEFGKafBB2vPQM5CCUGJzKfBbjCuQBZ300C8wrjBdCulQBQW
BkGHHLjBgcW6QBaq9EC6D8TBAPKXQCNmlEAbrYPBl6TEQCH/YECepILBEDDMQAaApUAH4IfB6vcN
QYUbzED0nLPBeD8QQWgz50BWPMDBiS3pQMgPuUDH/8fBSMgJQQ5zmUAcXcLBgV9cQJIqK0BoKqTB
0jcEQDiSXkAYPpTBJAc8QFPFhED/ionBd2LEQBK3vb51ebXBlZutQANXhcA4/pLBSfq4QPyDsr/R
Xa7BgWa6QNOuScBoCprBsdHAQDaSeD8KTLLBOcilQExziz5i3qDB0m+DQIEuhcDt+I7BVNnpQGz0
f0AZrK/BkPqjQNTkhkAAELXBEkqpQKuEib+2G6TBz7acQCqSCcBWxZzB0tmxQALzpz/t3KfBYKu8
QDfMbEDd9azBU6BlQH/3DMAddpjBVtvGQM4dQkCwzJnBMReAQKVTY0C7G5fBUuitQIKCMUD/F6TB
m020QMdE9kANwrDBKiauQIE/FUFR77/B7mPtQL+c+UCaSr/BJP6yQGi/eUDDc4fBEFGhQIUl3EDM
zsPBMn61QEJ2r0DI2MXBGJS8QGCK/EAB8bzBavdNQJewTMCtu5HBVtLqQArxk0BU4rjBXHPBQFGR
mEAd67vBOJGpQNUQZkCYvpLBhHWBQCJ5RUDC96DB9pk1QAS8fEA57ZHB8tjsQDPoM0DnFJjBZaIq
QBEao7/CTZvBu+bPQEQSHb+dYr3BZcbDQJ4tnsB6rJDBuDS8QChjG8BOv7DBoGTaQB7aSMCPTp3B
/oTJQFe04D9/0rfBucmZQLMdAj8Q/ZjBKSFzQBk/nsBfj4nBLK8CQRW0b0BO26rBmpKBQNglhkD4
2rXB3Ty+QG3f1UAJYK7Bw9DGQJUFB0GGNazBLgGSQAh4+kCvFK/BNJmzQHb5F0FthcjBR+aLQDgk
F0FII77B3LXAQMrtIEEfRLvB/AHzQGgR/kAs6MfBwlL+QGxYCUGyy7rB+1r5QHwB2kCT1LzBMniW
QP/VikALqIPBDfG7QGqQPkCTPoPBpJzNQOXXk0B0B4fBT16bQDIQ60B9o8vB37GCQHYr10Bypr/B
CjqeQCLJm0ClQMrB9XPSQBe4s0AJvMrBh9FPQDV1PUDbraXBp576PybreED5s5XBnEc4QFhoiUDi
bIrB

>  <OMEGA_E>  (3) 
mMSjPrTInD6ss6Q+1P6kPghNDD8K7xA/HDQKPyzsCD8=

>  <OMEGA_NBR>  (3) 
     22989

$$$$
50176692
     RDKit          3D

 54 57  0  0  1  0  0  0  0  0999 V2000
    6.7517   -0.3531  -22.4417 C   0  0  0  0  0  0  0  0  0  0  0  0
    5.2399   -4.0561  -18.2525 C   0  0  0  0  0  0  0  0  0  0  0  0
    6.2217   -1.3830  -21.6436 C   0  0  0  0  0  0  0  0  0  0  0  0
    5.7515   -3.1241  -19.1656 C   0  0  0  0  0  0  0  0  0  0  0  0
    6.5183    0.9921  -22.1018 C   0  0  0  0  0  0  0  0  0  0  0  0
    5.2088    0.2779  -20.1782 C   0  0  0  0  0  0  0  0  0  0  0  0
    3.8953   -3.9532  -17.8416 C   0  0  0  0  0  0  0  0  0  0  0  0
    5.0982    3.9455  -22.8142 C   0  0  0  0  0  0  0  0  0  0  0  0
    7.0131    4.4629  -21.6608 C   0  0  0  0  0  0  0  0  0  0  0  0
    5.4388   -1.0628  -20.5145 C   0  0  0  0  0  0  0  0  0  0  0  0
    4.9026   -2.1071  -19.6362 C   0  0  0  0  0  0  0  0  0  0  0  0
    5.7273    1.3153  -20.9665 C   0  0  0  0  0  0  0  0  0  0  0  0
    5.8651    3.7304  -21.5660 C   0  0  0  0  0  0  0  0  0  0  0  0
    3.5551   -2.0645  -19.1900 C   0  0  0  0  0  0  0  0  0  0  0  0
    6.2761    2.9785  -19.2036 C   0  0  0  0  0  0  0  0  0  0  0  0
    4.0454    3.3741  -18.8697 C   0  0  0  0  0  0  0  0  0  0  0  0
    5.5116    2.7469  -20.4915 C   0  0  2  0  0  0  0  0  0  0  0  0
    7.6021    7.7330  -21.9813 C   0  0  0  0  0  0  0  0  0  0  0  0
    6.6830    7.6897  -24.3319 C   0  0  0  0  0  0  0  0  0  0  0  0
    5.5933    3.6729  -16.8826 C   0  0  0  0  0  0  0  0  0  0  0  0
    8.0763    5.7380  -23.4984 C   0  0  0  0  0  0  0  0  0  0  0  0
    7.8552    7.2626  -23.4287 C   0  0  0  0  0  0  0  0  0  0  0  0
    3.0816   -2.9785  -18.3123 N   0  0  0  0  0  0  0  0  0  0  0  0
    5.8111    4.7060  -23.6094 N   0  0  0  0  0  0  0  0  0  0  0  0
    6.9504    4.9775  -22.9230 N   0  0  0  0  0  0  0  0  0  0  0  0
    5.3034    3.2499  -18.2570 N   0  0  0  0  0  0  0  0  0  0  0  0
    4.1126    2.9691  -20.1157 N   0  0  0  0  0  0  0  0  0  0  0  0
    2.8826    3.8223  -18.2634 N   0  0  0  0  0  0  0  0  0  0  0  0
    7.4789    2.8314  -19.0124 O   0  0  0  0  0  0  0  0  0  0  0  0
    2.7019   -1.1206  -19.6593 F   0  0  0  0  0  0  0  0  0  0  0  0
    7.3381   -0.5950  -23.3157 H   0  0  0  0  0  0  0  0  0  0  0  0
    5.8693   -4.8449  -17.8676 H   0  0  0  0  0  0  0  0  0  0  0  0
    6.4135   -2.4158  -21.8944 H   0  0  0  0  0  0  0  0  0  0  0  0
    6.7763   -3.1859  -19.5007 H   0  0  0  0  0  0  0  0  0  0  0  0
    6.9415    1.7813  -22.7056 H   0  0  0  0  0  0  0  0  0  0  0  0
    4.6251    0.5153  -19.3011 H   0  0  0  0  0  0  0  0  0  0  0  0
    3.5046   -4.6695  -17.1340 H   0  0  0  0  0  0  0  0  0  0  0  0
    4.1193    3.5446  -23.0322 H   0  0  0  0  0  0  0  0  0  0  0  0
    7.7839    4.6016  -20.9172 H   0  0  0  0  0  0  0  0  0  0  0  0
    8.4429    7.4246  -21.3426 H   0  0  0  0  0  0  0  0  0  0  0  0
    7.5106    8.8290  -21.9628 H   0  0  0  0  0  0  0  0  0  0  0  0
    6.6719    7.2811  -21.6063 H   0  0  0  0  0  0  0  0  0  0  0  0
    6.8705    7.3509  -25.3616 H   0  0  0  0  0  0  0  0  0  0  0  0
    5.7511    7.2376  -23.9614 H   0  0  0  0  0  0  0  0  0  0  0  0
    6.5898    8.7856  -24.3179 H   0  0  0  0  0  0  0  0  0  0  0  0
    4.6495    3.8225  -16.3378 H   0  0  0  0  0  0  0  0  0  0  0  0
    6.1887    2.8975  -16.3783 H   0  0  0  0  0  0  0  0  0  0  0  0
    6.1594    4.6158  -16.9010 H   0  0  0  0  0  0  0  0  0  0  0  0
    8.1968    5.4468  -24.5523 H   0  0  0  0  0  0  0  0  0  0  0  0
    8.9917    5.4884  -22.9420 H   0  0  0  0  0  0  0  0  0  0  0  0
    8.7670    7.7574  -23.7943 H   0  0  0  0  0  0  0  0  0  0  0  0
    3.3267    2.8325  -20.7188 H   0  0  0  0  0  0  0  0  0  0  0  0
    2.0275    3.8503  -18.7811 H   0  0  0  0  0  0  0  0  0  0  0  0
    2.8987    4.1178  -17.3082 H   0  0  0  0  0  0  0  0  0  0  0  0
  1  3  2  0
  1  5  1  0
  2  4  2  0
  2  7  1  0
  3 10  1  0
  4 11  1  0
  5 12  2  0
  6 10  2  0
  6 12  1  0
  7 23  2  0
  8 13  1  0
  8 24  2  0
  9 13  2  0
  9 25  1  0
 10 11  1  0
 11 14  2  0
 17 12  1  6
 13 17  1  0
 14 23  1  0
 14 30  1  0
 15 17  1  0
 15 26  1  0
 15 29  2  0
 16 26  1  0
 16 27  2  0
 16 28  1  0
 17 27  1  0
 18 22  1  0
 19 22  1  0
 20 26  1  0
 21 22  1  0
 21 25  1  0
 24 25  1  0
  1 31  1  0
  2 32  1  0
  3 33  1  0
  4 34  1  0
  5 35  1  0
  6 36  1  0
  7 37  1  0
  8 38  1  0
  9 39  1  0
 18 40  1  0
 18 41  1  0
 18 42  1  0
 19 43  1  0
 19 44  1  0
 19 45  1  0
 20 46  1  0
 20 47  1  0
 20 48  1  0
 21 49  1  0
 21 50  1  0
 22 51  1  0
 27 52  1  0
 28 53  1  0
 28 54  1  0
M  CHG  1  27   1
M  END
>  <OMEGA_C>  (4) 
BQ7YQMDEtL6PiLPBfK2nQGrLgcAOBZLBHBjHQKIGsb8MJq3BDgy4QDDxR8AoU5nBs5XQQCT8fT+V
0LDBv66mQCpNjj7ubKHBR015QNEBfcChu47BWiSjQOeCfEBrg7bBSWvgQFTQjkBJSa3BfgquQCAL
iL+cHaTBwuGcQN7aBsAEF53BGka3QMNcqD96u6fB0a67QHa+bkAvh6zBzIZjQJUgBMAThZnBA9bI
QKmfPkD4oJnB+XOBQOnwV0A39ZbBCF+wQNrML0Cd7qPBGkTzQNp090Cp2a/B79rVQKAR9kDQp8LB
DfyyQCAQa0CkD4fBXjgBQaidt0DH/LvBbl37QC5n6EDhbbvBrjhFQEygPsCtf5LBjfS5QKiXlkD9
37zBoWneQGRHn0BCYrfB1rWpQMH9T0BgDpLBFJqDQFUGPkDl7KDB43w4QB+hdEB9G5LB2FLvQE02
NUByGZjBkewsQExuj79XRp3B9dHqQPZRGL+ihrrBBdG7QBsJm8DA8I7BjzvNQLWcGsDLJ6/BidfY
QBTlS8BwAZzBiCDeQF0B5D8VpbXB5wCUQADoAz+VaJrBNUtgQDVslcBoEonBedGDQEDbYkDsQbjB
+xX5QDFAk0BVVqfB+hUHQfmV7UCnvarBu1bwQMhDDUHRs6/BZIDVQIT+6EDG2azBT9vbQPE660B2
5MrBIwm4QKOa50DrsL/Bet/SQNiRDEH2isLBmsiUQEOkdEDCs4LBfwnGQIhwOUDWBoPByxnFQLq0
k0BJNYfBFCYDQfRLrkAfa8TBK94PQaygr0BFibfBpUUMQZ88+EC8Wr7BruhUQCtINUAcwKXBIcMB
QOtrdkDLP5bB7IM5QNrEg0Awd4rBl5/TQJDBub7KrbPBXu9EQMhSQsD8G5LBewbDQLbVsL9sKK3B
XWNiQPx8AsAEEJnBnajNQCDLez8s1bDB+RulQE4ulj63HaHBC6N9QB2wgcAe1I7BaHSjQFZLfkCN
crbBcC/iQDiXjEAEiK3B1iCsQAmHhr+8y6PBgeCbQFgLBsA7o5zB/rK1QKxdqT+IjafBiC+8QDDG
bkC0hazB7ua2QM59SMB27ZjBjVfIQBqCP0Bpf5nBNS+BQC6kWkB15ZbBE+6vQKAAMUCF1aPBQCT6
QCLu8kB/3q/BhdPbQD7f9EAekcLBCzSyQOAAaUBj2IbBYZgCQaFzs0C4bLzBoHIAQTKD5EA5jrvB
egioQGS4gsBfMJLBnim7QO7elUA5+7zBg2PgQFHJnEDTqbfBLRapQMKpT0Aa6pHBk0mDQIpTQUDP
46DBMMM4QAbGeUDFFpLB7/TuQFJcOECs+pfB7NTgQOz4ScABsZvBqfbkQKcqHb+n4LrBBZUDQOyy
QcAJTI/BbsfHQHOwGsBATq/BBW84QGIWn79soZvBwljbQFDi4T9auLXB/NGSQP8ICj/JDZrBC9Rm
QAVnmsAogYnBg12DQOv6Z0A+CLjBDov7QN3Gj0Act6fBnVkKQYYp50Az5qrBPSD5QDkLC0HdhK/B
AMbbQFfT5UCd26zBgs3gQPKB6kBc4srBomq9QCTF50DJlL/B38TaQB8EDEEJPsLBj/CTQI7icUCM
fYLBJjTFQGjCNkC86oLBqVDEQDivkkDh04bBXMADQQuvqkB97cTBeUERQSZ0qUAHP7jBO2EPQX39
8kDifL7BtllUQIk7OkC1xKXBanECQOb9fUBTSZbBqfc5QJoChkAmbIrB5KLAQDYr3b6HObXB6GNM
QAf1TMAN0pDBS2+2QBvkt7+12a3B3S1jQHh2CsCczZfBbM68QPdeaj/nRbLB8QalQFmEhj42c6DB
6OuEQN3MhcC2Ko7BLwLqQLF5aUDoabHB18amQDSGkUCI+bLBL+anQJaGi79AiaPBI1ebQDE5CcBq
BpzBgmawQAFrpD80sKfBqgK+QPy4akCB5azBI7G4QOfpScCrBpnBtpHGQNXBQEASwZnB9dB/QC+F
Y0BQH5fB566tQK5iMEDmD6TBJ7f8QI+m7EAWEr/ByT+4QKRZ/UB3BrXBa7SyQJyAeUDBb4fBh/y4
QFEywEA9q8LBVjXLQDP27ECFsb/B3SytQNOYhMBYNJLBr/HqQOY3jUBJ7bnBPHLDQAjynkBmnbrB
aFOpQH5RZUAxuJLBSleBQHU+RkDDAaHB+UQ1QOp7fUDf+JHB1azsQFtrM0D0F5jBx2rhQNj4R8Aj
wJzBr2vLQLywMb8xKb3BTJkMQBgmUMCZhI3BybG5QC5zHsAnD7DBcZw1QJOEsr8t5ZnBuVjDQHjW
1z+8GbjBlROaQJiHBD9dg5jBwVN4QKtgn8DeyIjBcGQCQVUTRkDyNa7B68GFQOXxmkCU/rHBRPgE
QT/24EA8r8bB9S0EQXWnBkETjb3BUoEDQQJ310AAiLjBsBuVQN54/UCZiLXBCWjCQLIy6EA0d67B
TsHDQE0FD0FHfLPB4TSWQAjrikA3rYPBCoK7QAB3PkCGLYPBm2jNQP6gk0B1CYfBYvmVQGqmwkCA
VsPBVHjGQO5xtkBqbMrBqdDBQDa+AUH6CMbB9sRPQJm4P0ANyaXBzT/6P0SOekB1y5XBkNU3QG2J
iUCqcorB

>  <OMEGA_E>  (4) 
0MSAPngtfz4g5wI/

>  <OMEGA_NBR>  (4) 
     25985

$$$$
50176688
     RDKit          3D

 57 60  0  0  1  0  0  0  0  0999 V2000
    6.6334   -0.3319  -22.4722 C   0  0  0  0  0  0  0  0  0  0  0  0
    3.0962   -3.1427  -18.3860 C   0  0  0  0  0  0  0  0  0  0  0  0
    6.1154   -1.3675  -21.6816 C   0  0  0  0  0  0  0  0  0  0  0  0
    3.5299   -2.1394  -19.2614 C   0  0  0  0  0  0  0  0  0  0  0  0
    6.4159    1.0040  -22.1015 C   0  0  0  0  0  0  0  0  0  0  0  0
    5.1186    0.2721  -20.1725 C   0  0  0  0  0  0  0  0  0  0  0  0
    4.0272   -4.0868  -17.9073 C   0  0  0  0  0  0  0  0  0  0  0  0
    5.0569    4.0186  -22.7401 C   0  0  0  0  0  0  0  0  0  0  0  0
    7.0923    4.2317  -21.7000 C   0  0  0  0  0  0  0  0  0  0  0  0
    5.3689   -1.0617  -20.5250 C   0  0  0  0  0  0  0  0  0  0  0  0
    4.8825   -2.1218  -19.6470 C   0  0  0  0  0  0  0  0  0  0  0  0
    5.6404    1.3184  -20.9485 C   0  0  0  0  0  0  0  0  0  0  0  0
    5.8453    3.7108  -21.5244 C   0  0  0  0  0  0  0  0  0  0  0  0
    5.7697   -3.0938  -19.1259 C   0  0  0  0  0  0  0  0  0  0  0  0
    6.2216    2.9591  -19.1598 C   0  0  0  0  0  0  0  0  0  0  0  0
    4.0258    3.5146  -18.8679 C   0  0  0  0  0  0  0  0  0  0  0  0
    5.4530    2.7483  -20.4517 C   0  0  2  0  0  0  0  0  0  0  0  0
    6.8952    7.5614  -21.8548 C   0  0  0  0  0  0  0  0  0  0  0  0
    8.0338    9.1397  -23.4225 C   0  0  0  0  0  0  0  0  0  0  0  0
    5.5554    3.7152  -16.8545 C   0  0  0  0  0  0  0  0  0  0  0  0
    8.0426    6.7280  -24.0334 C   0  0  0  0  0  0  0  0  0  0  0  0
    8.2399    5.2696  -23.6147 C   0  0  0  0  0  0  0  0  0  0  0  0
    8.0775    7.7200  -22.8414 C   0  0  0  0  0  0  0  0  0  0  0  0
    5.3313   -4.0495  -18.2744 N   0  0  0  0  0  0  0  0  0  0  0  0
    5.8383    4.6424  -23.5879 N   0  0  0  0  0  0  0  0  0  0  0  0
    7.0387    4.7410  -22.9608 N   0  0  0  0  0  0  0  0  0  0  0  0
    5.2563    3.2954  -18.2279 N   0  0  0  0  0  0  0  0  0  0  0  0
    4.0620    3.0168  -20.0813 N   0  0  0  0  0  0  0  0  0  0  0  0
    2.9103    4.1188  -18.3104 N   0  0  0  0  0  0  0  0  0  0  0  0
    7.4158    2.7673  -18.9545 O   0  0  0  0  0  0  0  0  0  0  0  0
    7.0915   -3.0433  -19.4225 F   0  0  0  0  0  0  0  0  0  0  0  0
    7.1981   -0.5615  -23.3637 H   0  0  0  0  0  0  0  0  0  0  0  0
    2.0613   -3.1925  -18.0812 H   0  0  0  0  0  0  0  0  0  0  0  0
    6.2878   -2.3972  -21.9579 H   0  0  0  0  0  0  0  0  0  0  0  0
    2.8407   -1.3954  -19.6326 H   0  0  0  0  0  0  0  0  0  0  0  0
    6.8399    1.8003  -22.6952 H   0  0  0  0  0  0  0  0  0  0  0  0
    4.5218    0.4951  -19.3004 H   0  0  0  0  0  0  0  0  0  0  0  0
    3.6928   -4.8594  -17.2309 H   0  0  0  0  0  0  0  0  0  0  0  0
    4.0177    3.7717  -22.9003 H   0  0  0  0  0  0  0  0  0  0  0  0
    7.9210    4.2386  -21.0074 H   0  0  0  0  0  0  0  0  0  0  0  0
    6.9082    6.5484  -21.4260 H   0  0  0  0  0  0  0  0  0  0  0  0
    6.9897    8.3024  -21.0474 H   0  0  0  0  0  0  0  0  0  0  0  0
    5.9474    7.7208  -22.3898 H   0  0  0  0  0  0  0  0  0  0  0  0
    8.8673    9.2736  -24.1277 H   0  0  0  0  0  0  0  0  0  0  0  0
    7.0801    9.2909  -23.9494 H   0  0  0  0  0  0  0  0  0  0  0  0
    8.1223    9.8725  -22.6069 H   0  0  0  0  0  0  0  0  0  0  0  0
    4.6162    3.9246  -16.3217 H   0  0  0  0  0  0  0  0  0  0  0  0
    6.0997    2.9121  -16.3361 H   0  0  0  0  0  0  0  0  0  0  0  0
    6.1752    4.6237  -16.8758 H   0  0  0  0  0  0  0  0  0  0  0  0
    8.8428    7.0002  -24.7373 H   0  0  0  0  0  0  0  0  0  0  0  0
    7.0674    6.8183  -24.5340 H   0  0  0  0  0  0  0  0  0  0  0  0
    8.4580    4.6658  -24.5079 H   0  0  0  0  0  0  0  0  0  0  0  0
    9.0864    5.2081  -22.9150 H   0  0  0  0  0  0  0  0  0  0  0  0
    9.0211    7.5844  -22.2926 H   0  0  0  0  0  0  0  0  0  0  0  0
    3.2653    2.8475  -20.6615 H   0  0  0  0  0  0  0  0  0  0  0  0
    2.0657    4.1953  -18.8404 H   0  0  0  0  0  0  0  0  0  0  0  0
    2.9498    4.4783  -17.3781 H   0  0  0  0  0  0  0  0  0  0  0  0
  1  3  2  0
  1  5  1  0
  2  4  2  0
  2  7  1  0
  3 10  1  0
  4 11  1  0
  5 12  2  0
  6 10  2  0
  6 12  1  0
  7 24  2  0
  8 13  1  0
  8 25  2  0
  9 13  2  0
  9 26  1  0
 10 11  1  0
 11 14  2  0
 17 12  1  6
 13 17  1  0
 14 24  1  0
 14 31  1  0
 15 17  1  0
 15 27  1  0
 15 30  2  0
 16 27  1  0
 16 28  2  0
 16 29  1  0
 17 28  1  0
 18 23  1  0
 19 23  1  0
 20 27  1  0
 21 22  1  0
 21 23  1  0
 22 26  1  0
 25 26  1  0
  1 32  1  0
  2 33  1  0
  3 34  1  0
  4 35  1  0
  5 36  1  0
  6 37  1  0
  7 38  1  0
  8 39  1  0
  9 40  1  0
 18 41  1  0
 18 42  1  0
 18 43  1  0
 19 44  1  0
 19 45  1  0
 19 46  1  0
 20 47  1  0
 20 48  1  0
 20 49  1  0
 21 50  1  0
 21 51  1  0
 22 52  1  0
 22 53  1  0
 23 54  1  0
 28 55  1  0
 29 56  1  0
 29 57  1  0
M  CHG  1  28   1
M  END
>  <OMEGA_C>  (5) 
ukTUQP/oqb7+xrPB4yhGQKMhScB2FpPBe7HDQJsKr7/1c63BbelhQKvsCMBtF5rB+k7NQJGBgD/Z
z7DBPMujQARSiz5fYaHBKt+AQKnGgsA/Qo/BvNGhQEeYgECo67XBdPTiQNRph0CKma3BoM2rQFbm
h78+M6TBDz2cQNHLB8D1LJ3BBn60QDnBqD+BlqfByQy7QNl9bUDkMazBvqG4QKIBRsDqAZnBnhfH
QC9hPUAzR5nBOtOAQHXvYEBv8ZbBnH6uQNDkL0ARnaPB2aXcQKD28UCo1q7BdYoAQRc8EkFeYbvB
MsaxQHPFbUAd1obBn64AQY9L10BSRMDBvdYDQd2gqEDu6rzBfz0BQQAK90A/u7bB65mqQGiVgcD4
MZLBV9O6QF2OlEDts7zB5DzhQBy2l0DBr7fBTzOoQLjnUkDF0pHBi/uBQJkTQUBxpqDBDUI6QO/M
g0C5e5LBJk7tQB8cMUC6opfBW+3iQGDFQsBIYZvBelbmQCm/D7/U6LrBzewDQNdRTMBdppDB3TXJ
QHtsGcC+qa/Boc01QFCbsr+LD53Bc+DaQOhv5j+5j7XBubKQQP19/T5LZ5rB3FZsQE6Am8Dw2InB
MZGAQOljcUDHM7fBPHn9QGGih0A+D6jBzQ/dQOGM0UCGaKvBnqvfQKXWBEEQYajBeVG+QAAR90Bg
HrPBouANQbNgFEGRBcHBE5DiQGqnFEFYmL/BHPUBQY/1HUEI27TBjbeTQAkse0DnkoLBDzHDQD5f
OkBnsILBNZvFQIr1k0CNAYfBO3wNQWgB4EAU5sXB2yfiQMsv2kC7RcTBz1MHQUtOlUBBEMTB/2ER
QQGppkDVUbfBi1YQQZSz8kA9V7LBDvtQQEU9NkDRSqXBJTUEQK8/hkAruZbBiMk8QNlNj0BYBovB
iCzhQCJcnL4f9LHB6PGjQK9agsAQcJLB1NbNQFFJrL/4KKzB7ja3QKvpR8D+GpnB5o7YQDXvgz8G
Oq/BqIWpQNwNlD5N56DB66RvQC9RfsChOpDBxLudQBiBdUCumbXBgv7fQHONiUAEqK7BsK+xQKRH
hb+2rqPBjr2dQJr9BcDVUJ3BRtu7QP8Cqz+KuKbB0l26QN3Qa0AZQazBt9ViQP49A8Bj1prBwM7K
QEjLRUBoAJnB+EKDQLnrW0A+cZbBmluyQGqbMEDBI6PBsPzmQAiQA0GfRLzBrYUNQWNwA0E74qzB
ruWzQFLDc0DsiobBeEEMQVhvx0D5GbnBUPr8QOfrp0CPlL/BrGz9QBpC60DOyLPBd/A+QCLxPsAt
bJTBwK6yQHTbjkC1Jr3BCNTZQMnqlkCn/bjBVlGrQOdoVUDrbpHBCmWFQC0xO0AFE6DBHXU8QJZe
fUD7AZLBTpfxQKyMQkCPjJfB6aovQKS+i79sF5/Bbpr2QKgWCL9zfLjBPK62QAv7m8CuBY/BBH/U
QLMAGMDCL67B8+jYQNKgS8AN+JrB2cnnQBRa6j8em7PBod6UQLNsAj8vNJrBpRxSQG2VlsAuD4vB
Xyx6QH0xX0DUG7bBauD7QBCgjUBqp6nBCdHRQIz68kBWLMHBmfPTQOcEEEGQRLjBoS3/QPwhC0Fl
a8HBM3AVQQ+t8kCQ3KbBhrAZQVACC0Em/rHBgRMEQTvlD0FS16jBRYGVQGfvekDQMYLBi07IQLos
RUA+XILBQVTEQEX6mEDW5obBkLUUQQWXtUCLzbLBxP0XQbFU1kDuf77BGHjvQPiduEB6jcbB45QI
QXo9jUDBUMLBmgnlQOFi3EBOpK7BanxYQPDOK0COoaTB5AgGQAFqfUCoN5bBh2w9QKu7ikDxmIrB
fnjZQM6ujb5wbrPBaFepQMbvgMCpaJLBWrvIQEc7qb9RM63BqKO5QMMERcAEjZnBYtTQQDBchz+K
o7DBEmSmQJW0mz5Re6HB6+p7QJGBfcBmXI/BVNGgQEt7fUCNL7bBUlPgQGV+ikAIbK3BmOWuQCAi
g78KQqTB8gKeQNUXBcB1Yp3BEJS2QOh0rT+5oKfBvmm5QE1Ub0BtN6zB2TBlQOVRBMABDJrBNAnI
QFlKQEBLbJnB1h+BQPvgXECWnJbBWsSuQO1ZMUDnnaPB0HfdQMiS9EAIgrHBig//QHsXEEGuAcDB
gquzQGCCcECs64bBatEAQfpN0UCjD8LBOpEDQW82pUCoB73Bfi8BQW8b9kA8wrnBGw1HQPr+P8De
LpPBPPC5QFE7kkCkBb3BhJ7fQG+Sl0AVwrfBuIqpQHJDVEAM0ZHBsDyCQO9EP0BGbqDBGUI5QN6u
fEDovJHBJHDuQNPuNEDF8pfBPdEtQJo6kr8s8J3Bue3sQLDV/r57WbrBcsi9QLTPmcC+RI/BTZzP
QDBYFsA5P6/B3rLaQFkvR8D2DZzBNCjeQAlH7j8CWbXBPR+TQMj0BD/fhJrBN/diQAQ2lsDq1YnB
3/p/QJD1akCwk7fBhI75QKshjkCPlqfBB03fQK6N1kCK76zB4ETgQK/zB0GuAazBTZm+QOMu9kC1
t7XBlIgMQcrvEEEA7MXBlAfgQFnKEEFgJcTBk9kAQZamHUFYb7rBwc6VQO40fEBDf4LBZ1DGQIKW
PkAq04LB3n/GQJP2lUCtQ4fB++MNQS901kCVz8fBLMniQLQd0kAyS8bBIrYHQcn/jUDtT8PBSIcQ
QTyFpkDnFbfBzIkQQYVR9UDmdbXBoEtRQOT4M0ClBaXB6NwBQLACfkC1vZXB3/U7QGcoiUBjN4rB
jgDWQH0RkL7MBbTBeeeqQNZ8gsBw8ZLBJcvFQA+Lqr9awq3B1cS5QJGIR8CENJrB4kbOQPKPhj8H
A7HBhTelQNmtkT57pqHB1zeAQENggMDFVY/BemyiQNhTe0CyQbbB3xDfQEoCjkBUsKzBQi+tQCOj
hb+TlKTBSX6dQIETB8A4mZ3Bmie1QNnIqz8qzKfB6465QCLcb0ArCazBZKJlQEiNBsC9s5nBaTfH
QFk/PUA9WpnB+9aAQJbWXkCtw5bB7DauQNtrMEBQnqPBn03UQB2ICkHhXsfB3H/xQPU/BEFW0LTB
n+KyQJDKbkD+6obB8IL7QOPv0EBapsPB1kwDQdNZrUA1t7vBcG3dQHVT80C3xL7BAjhKQMbVQsBH
vJLBGqS7QOtxkkAfzbzBTGXfQP2Om0Cu/7bBca2oQFpSUkCqzJHBC66BQA4xP0AdfKDBXzg6QEAY
gkDxJpLBTprtQDS7MUAz4ZfBk+AsQDKtlb/eH53Ba1zoQIl4/r74IrvB/uq/QHqGm8A8I5DBUybM
QJHiFsCL9q/BukPaQHWkScB4Ip3B43XbQFPl7T/btbXBcpOSQIpW/T5wkprBgrBpQOsKmMCmt4nB
TmuCQLNRZUC8AbjBWq72QJFjk0CIhqbBsAPGQGfFAkE7as7BKPS9QEmKFkF4LsTBS2XyQMllEkFe
sMnBvt/3QD7z70BBtq7BdNgHQRYYDEGtEbfBxj/bQJY8EEHIj7HBYg+VQIV6e0CBhYLBVCjFQIyR
PEB6xoLBEBzGQCXYlEC9SofBZqoMQe2S4EAfN8bBzZXrQLSTwkDWoMrB8gMMQWTOk0BC67/B028N
QVWCukBkUbXBHCq/QMjw40COcbzBuA5QQOsaM0DaBaXBaZADQOEehECKSJbB+Uw9QESMjUAnsYrB
ugHEQMPfvL6zfLXB5pytQLZahcCIBJPB1sa4QMxDsr8nXa7Bt2W6QIiWScAyDJrBemfAQJjbeD/H
T7LBKculQINtjD6K16DBqW+DQJI/hcAkAI/BSxnqQDQ2fUD+56/BBA+kQJprh0Ab97TB7zupQAFB
ib+/F6TBGLKcQIp3CcD4wpzBF72xQL0vqD9Z2afB0dq8QHKjbEAa+KzBOZRlQOj3DMBFdZjBt9bG
QIpIQkAgyJnBkQmAQL4+Y0C4E5fBzuetQNSqMUCPFKTBN8bpQOe/EUGARcLBKazcQE7870CuWrPB
LeqyQA52eUAqaYfB4f3RQJwm2UDmZsfBxri0QKO0sUCAgMXB0ALOQMUn/UAvwL7B+u9NQL7OTMAu
v5HBpvbqQK5lkkA8J7nBFGfBQHYbmUCM2rvB84GpQIrzZUDJtZLBz3KBQKTNRUDz9KDBYHU1QDxj
fEBX4ZHBbdzsQNJaNEBlE5jBto0qQFYgo79LS5vBVmrPQG2eHL9saL3BEsrDQEQznsCDtZDBEAe8
QMVDG8DYvbDBUmTaQNOrSMD1T53BktjIQGba4D+L3LfBhvOZQPSGAj9n8pjB0yNzQBNdnsApmonB
9d0CQXGZa0BONavB6p2BQD8Oh0BirLXBMTTgQJjZFkHNWMrBjEHlQBcUH0EGo7zBfNQFQbb8DEGH
VsLBo3rJQJSi1EAJlrDBG6z+QNLn5kCZjLPBrkTYQEmLBUEY2a3BiFuWQM+UikACm4PBRPG7QMA9
PkC7OIPBfnnNQL/Dk0By+YbBjmbzQLYTzkBSh8fB18LJQPgL50CTOM/B2Y+TQLbOvEDPfsTBObC2
QNuOnEADhczBRmWsQPy9A0HgXb7BK9hPQF0oPkCKr6XBjVr6PwKyeEAsqZXBlRs4QG4TiUBDXYrB
KtPCQMOr1L6fDbXBYE5MQMQVTcDu4JDB4Pa2QIIotr9g263BD9FiQHd+CsD53JfB7Nq/QFI2bj9E
/bHBlHKkQH62iT5mfqDB3POEQGbUhcCUQI7BIZjqQLjPeUB+2a/BH72kQGcehkAvBrXBq6SnQB+T
ir8gmaPBzBibQIwXCcDPHpzBbwuxQCuIpT87lafBUDa9QCR7akDD76zBn464QACxScC9IZnB8KfG
QHXXQUAorJnBXQGAQJinZECbFpfBb8etQGnJMECW96PBcS/sQPZfEEF3ycLBfFLeQDYy7kB5tbPB
psWyQF1fe0B/aYfBcszTQGtZ1kBNsMfB7x62QGdKr0AusMXBkv/PQIHd+kDdKr/BiymtQP6IhMDF
T5LB7tPrQF4mkECXKrnBkmLCQHwdl0Cd8LvB0WypQCrlZkD2r5LB8WeBQL1LRkB37KDBzH41QKIL
f0B595HBopTsQGdKM0Bl6ZfB+0vhQG+CR8De2JzBjzrOQPWaLL8m8bzBm5gMQNVlUMCwjY3B74y5
QG59HcDLKbDBvx41QPytsr/17ZnB5+bIQPgP2j8blbfBgk+YQOBhBT/PqJjBuZF4QHlzn8DB34jB
wgYDQUoyaEBhFqvBEU+CQA0NhkDhxbXB/NziQGZLFUGO6MrBis/nQCThHUEuQL3Bm/0GQSV0C0GL
x8LBgNLKQIou00CG3rDBlR4AQX/K5EDX1LPBfRHaQD7SBEF5Ta7BrFCWQEINjEALroPBzme7QN1l
QEBBHoPBzJTNQKRxlEBnBofBWBr1QIT0ykCovMfBwNjLQFfj40CQkM/BZgyVQA7CukDQwsTBmAW4
QIy8mUAVoczBmXmuQKrDAkH8277B8NVPQJTbPkCpq6XBf5r6PyGZe0B0xZXBsyA4QCq7ikAQe4rB

>  <OMEGA_E>  (5) 
3MqZPkhOvj4cjZg+KH2aPth1Aj/ArgU/

>  <OMEGA_NBR>  (5) 
     38403

$$$$
50176700
     RDKit          3D

 48 51  0  0  1  0  0  0  0  0999 V2000
    6.6388   -0.4034  -22.4333 C   0  0  0  0  0  0  0  0  0  0  0  0
    3.0499   -3.0298  -18.2497 C   0  0  0  0  0  0  0  0  0  0  0  0
    6.1057   -1.4102  -21.6120 C   0  0  0  0  0  0  0  0  0  0  0  0
    3.5259   -2.0336  -19.1126 C   0  0  0  0  0  0  0  0  0  0  0  0
    6.4619    0.9482  -22.0926 C   0  0  0  0  0  0  0  0  0  0  0  0
    5.1796    0.2861  -20.1268 C   0  0  0  0  0  0  0  0  0  0  0  0
    3.9226   -4.0565  -17.8366 C   0  0  0  0  0  0  0  0  0  0  0  0
    5.1367    3.9382  -22.8270 C   0  0  0  0  0  0  0  0  0  0  0  0
    7.0734    4.4511  -21.7091 C   0  0  0  0  0  0  0  0  0  0  0  0
    5.3866   -1.0642  -20.4482 C   0  0  0  0  0  0  0  0  0  0  0  0
    4.8627   -2.0997  -19.5500 C   0  0  0  0  0  0  0  0  0  0  0  0
    5.7123    1.3046  -20.9400 C   0  0  0  0  0  0  0  0  0  0  0  0
    5.9257    3.7154  -21.5929 C   0  0  0  0  0  0  0  0  0  0  0  0
    5.6936   -3.1471  -19.0813 C   0  0  0  0  0  0  0  0  0  0  0  0
    6.2899    2.9931  -19.1994 C   0  0  0  0  0  0  0  0  0  0  0  0
    4.0561    3.3901  -18.8893 C   0  0  0  0  0  0  0  0  0  0  0  0
    5.5413    2.7547  -20.4968 C   0  0  2  0  0  0  0  0  0  0  0  0
    5.5679    3.6287  -16.8695 C   0  0  0  0  0  0  0  0  0  0  0  0
    7.9523    5.9761  -23.4684 C   0  0  0  0  0  0  0  0  0  0  0  0
    7.5656    7.4185  -23.1073 C   0  0  0  0  0  0  0  0  0  0  0  0
    5.2135   -4.0987  -18.2464 N   0  0  0  0  0  0  0  0  0  0  0  0
    5.8110    4.7399  -23.6150 N   0  0  0  0  0  0  0  0  0  0  0  0
    6.9538    5.0277  -22.9452 N   0  0  0  0  0  0  0  0  0  0  0  0
    5.3020    3.2402  -18.2593 N   0  0  0  0  0  0  0  0  0  0  0  0
    4.1423    3.0161  -20.1435 N   0  0  0  0  0  0  0  0  0  0  0  0
    2.8871    3.8335  -18.2905 N   0  0  0  0  0  0  0  0  0  0  0  0
    7.4946    2.8805  -18.9991 O   0  0  0  0  0  0  0  0  0  0  0  0
    7.0071   -3.1792  -19.4132 F   0  0  0  0  0  0  0  0  0  0  0  0
    8.4901    8.2583  -23.6334 F   0  0  0  0  0  0  0  0  0  0  0  0
    7.5336    7.5740  -21.7565 F   0  0  0  0  0  0  0  0  0  0  0  0
    6.3433    7.7211  -23.6214 F   0  0  0  0  0  0  0  0  0  0  0  0
    7.1847   -0.6681  -23.3267 H   0  0  0  0  0  0  0  0  0  0  0  0
    2.0264   -3.0111  -17.9052 H   0  0  0  0  0  0  0  0  0  0  0  0
    6.2460   -2.4492  -21.8712 H   0  0  0  0  0  0  0  0  0  0  0  0
    2.8800   -1.2307  -19.4360 H   0  0  0  0  0  0  0  0  0  0  0  0
    6.8979    1.7196  -22.7100 H   0  0  0  0  0  0  0  0  0  0  0  0
    4.6070    0.5461  -19.2487 H   0  0  0  0  0  0  0  0  0  0  0  0
    3.5536   -4.8283  -17.1775 H   0  0  0  0  0  0  0  0  0  0  0  0
    4.1680    3.5115  -23.0415 H   0  0  0  0  0  0  0  0  0  0  0  0
    7.8795    4.5525  -20.9974 H   0  0  0  0  0  0  0  0  0  0  0  0
    4.6148    3.7634  -16.3371 H   0  0  0  0  0  0  0  0  0  0  0  0
    6.1560    2.8416  -16.3750 H   0  0  0  0  0  0  0  0  0  0  0  0
    6.1327    4.5725  -16.8544 H   0  0  0  0  0  0  0  0  0  0  0  0
    8.0054    5.8787  -24.5628 H   0  0  0  0  0  0  0  0  0  0  0  0
    8.9350    5.7447  -23.0316 H   0  0  0  0  0  0  0  0  0  0  0  0
    3.3668    2.9227  -20.7679 H   0  0  0  0  0  0  0  0  0  0  0  0
    2.0410    3.8826  -18.8213 H   0  0  0  0  0  0  0  0  0  0  0  0
    2.8899    4.1044  -17.3279 H   0  0  0  0  0  0  0  0  0  0  0  0
  1  3  2  0
  1  5  1  0
  2  4  2  0
  2  7  1  0
  3 10  1  0
  4 11  1  0
  5 12  2  0
  6 10  2  0
  6 12  1  0
  7 21  2  0
  8 13  1  0
  8 22  2  0
  9 13  2  0
  9 23  1  0
 10 11  1  0
 11 14  2  0
 17 12  1  6
 13 17  1  0
 14 21  1  0
 14 28  1  0
 15 17  1  0
 15 24  1  0
 15 27  2  0
 16 24  1  0
 16 25  2  0
 16 26  1  0
 17 25  1  0
 18 24  1  0
 19 20  1  0
 19 23  1  0
 20 29  1  0
 20 30  1  0
 20 31  1  0
 22 23  1  0
  1 32  1  0
  2 33  1  0
  3 34  1  0
  4 35  1  0
  5 36  1  0
  6 37  1  0
  7 38  1  0
  8 39  1  0
  9 40  1  0
 18 41  1  0
 18 42  1  0
 18 43  1  0
 19 44  1  0
 19 45  1  0
 25 46  1  0
 26 47  1  0
 26 48  1  0
M  CHG  1  25   1
M  END
>  <OMEGA_C>  (6) 
1XDUQMiOzr5cd7PBKTFDQE7oQcBb/5HBsmHDQOmBtL9s5azBoahhQP4lAsCw5pjB38fOQNa8cj+r
vbDBFb+lQDJ+kj67A6HBlwx7QNbOgcBusY7BhV+kQKoLfEC/nbbBr1niQCNvjkA+rK3BU1+sQPs2
iL/9laPBN5ubQEhhBsBgZpzBUMu2QA/9pj8hhafBHp+9QKzIbUAtvqzB7zG2QHpqScB4ppjBh0bJ
QJyOP0BGmJnBM8uBQBj3WEAyHZfBoFKxQBhNMECL+aPBbSyyQEA9aEDD9IbBm3n+QAs8v0A5v7vB
nRnyQKBk7UDS27jBEdWmQIUog8Cb+JHBsfO5QD6tl0Bs67zBcoXeQLnioEDAj7fB7KmpQKRfT0AJ
E5LBWI2EQBwHQUDmJaHB+8U4QJBYdUAGU5LB4tPvQMxaOEAR/pfB/zngQIx4S8AmTpvBVNcHQf4h
BEEtEb3BDxPxQGRe8kBXDa7BhfzKQGgT90Cd+LzBOunlQBsKK78unbrBRLEBQHa1QMDyPY/BfN/H
QCTAHMAj+K7BDlI4QGeGnb/hfJvBn7vcQD4d3D8UrrXB4GyTQKjMCz9u/ZnByG1jQNaBmsCPa4nB
QGCFQIm8YEAWVbjBhCT8QAOukUDD+qfBnqyTQOnbcEBksoLBsP3EQEXcNUDz/4LBbT/EQDVSkkDj
1YbBTxYAQU0evECKgMTBz/UOQUPUt0CeQLjBJ3lXQKYNO0C6JKbB9J4CQDV8eEDskZbBs/Q4QBFX
g0CVn4rB2ozWQFNRzL5jq7PBwUOnQHlqg8CjNJLBaE/FQLUQtr+HRa3BYli3QB7ISsCOfpnBa07Q
QNKxcj841rDBKgunQIr0fj7jR6HBsfR4QAb+f8CWvY7Br0SkQP94eUDClrbB2ongQMilj0BvPa3B
YUGtQDYejL/wFqTB8jKcQOTsCMAGDZ3BlOy3QDD8oz9OoKfBGu68QIvHbECWlqzBU5liQKEFBsDO
U5nB9D3JQHZnPUDNg5nB5fKBQDnEV0C4J5fBym+xQDsCLkDh66PB4fixQIIQZ0DB8obB1H77QES7
wkAv2LrBJTTpQKvt70BtRbnBDctEQMP5QMBRU5LBs0e5QKuLl0DAtrzBb8HcQDJdokDBFLfBxIGp
QE2zTECZA5LBEHuEQOVsPECnDqHBHA46QHKLeEBtkpLBreLvQLRWOEBH7JfBuM0rQC66kr+M+JzB
ljMEQe1iBkEFbrvB6ZPbQCB49UCCBa/B8MzHQME79kDODsDBl5noQLDLJb+Yw7rB9G+7QKfonMD7
RY/BcHnKQKhBHcAJYq/BwO7XQJQAT8CkUpzBthjeQL2l3T9YrrXBxRWVQG5S/D5KKZrBrWBgQOEQ
l8CgFonBUBGGQP+VW0BkgrjBPKD5QH/Rk0DBY6fBvniTQJnxbkDPqoLBclnFQMzZNUCh7oLBbnTD
QHQVkkDB8obBfQMBQZeDvUCHZMPBULcMQbWuv0BbR7bBog5XQPPZMkC966XBfj0EQAdufEDt35bB
YJo6QPomhkCQ9orBBE7GQDLvwL4OOLbBhaiwQHrjgMBzl5LBlJS6QOVxtL/kJq/Blve6QOTARsD1
oZrBeI/AQP32dz9MO7PBc6ChQOwcez4qUKLBAw+IQFjcfcC9so3BOkLsQPGMhUBcNazBJM2rQGMx
ikD97LTBxKynQFX9i7/5OKXBWmycQI64CMBFeZ3BEL+uQOqFpD9+GanB3B2/QKgZbkBBVKzBcyho
QNxaCMDnQZjBYSHEQGpEMUAaLJrBnuZ9QKDvXECOyZfBE1OsQKYbLUBUv6TBMCKyQFgkbUDjHYjB
AVDFQC8zwUCP+cHBcDvTQOVS7kAeX77BwFtVQHp2QsBnlZDBYHbyQBg1n0CrSLTBlBfMQGeYokBb
MrnB2qGmQOB4TkBJ1pLB8TKAQJSzQ0CJ06HBuzc2QDiUfkDByZLBV9noQDjVGUCoTZjBH2srQDnW
nL9MA5vBJLjDQH+vBUG2ZsXBI7P+QAwg8UA2LL7BNJPDQC4690A2cbTBkrrTQIvtHb8G8r3BQZPH
QCTgmMB/K5DBLwvAQGY4HMBsU7HBs7nZQJvhSMAwkJ7BprXJQO0/4T9oprjBb66SQMD29T7ewJrB
/DCAQLGrlcAaf4fBWQwCQaK/eEBzY6bByjGLQMzlhkAJq7fBtwSVQGRqgEC104PBMhPCQPl2OUDn
qYPBlvDHQMEOkkAL04jBuDSjQASvwUDVJcTBfmXYQDdqt0Dy88jB3OZNQLpmQEBduabB9/n+PyiE
gkAg25bBgDs5QMgyiEAXHYvB4hrAQGju474L6bXBJzVXQEqsQsA9+I7BlIm1QNSdur+dkK7BBixo
QDVFBcAZ2pbBgsm7QEo6aD+7/7LBpJ6fQFzSaz4YpKHBZKSKQF3KgMDauozB6r7sQBU3gUCrd6zB
Uv2rQDnHiEDi6bTBVVilQNzXjr88Y6TBUFSbQFT2CMCNXpzB2h6sQK5BoD8os6jB2uW+QDBLakD5
UqzB0mq5QEgpScAkopnBYHHDQK1fMEDWCprBRrp+QCBXYkAQsZfBoCurQBrJK0AujaTBhXCzQFxF
ckAqNYjB+ILHQM9nvUDFWsLB77vZQH2d6UDlQb/BGJiwQDvlgcCW95HBJKzzQJoOmkBwqLTBKi7N
QGlHn0CFaLnBcN2mQOC2UUBhw5LBYxJ/QJWdRUBVl6HBPVQ5QE2LhEAHxJLBWNTnQAb2FkD4K5jB
LoPgQBSoSsDjUZ7BMTLNQBJaA0HlosbBtaMCQYFi6ECvCb/BDujKQDS89UAGd7XBRovLQESqNL/a
yr3B1ksbQKDQQcCIqYrBms65QBO4H8CMtbDBB+o5QNIAqL8/qpjB/2XEQL6E1z+dmrjBcXeRQGWM
+D4RB5rB+gWEQIyamMDdsIbBXUECQTItbkBbuqbBLROLQOL9hkB3grfBKOyWQKemhEBE7YPBNpfC
QBuaPkB9lYPBRj7KQKenk0AoM4nBczqlQF2GwEDtMMTBw4XYQKRCsUBpb8nB/9RLQDbwQUDHXKbB
qoQCQN5siEDIx5bBUhM+QLWjjkCPMovB

>  <OMEGA_E>  (6) 
WBc9PpATRT4sngU/lAgNPw==

>  <OMEGA_NBR>  (6) 
     45983

$$$$
