50213407
     RDKit          3D

 55 58  0  0  1  0  0  0  0  0999 V2000
    6.5449   -0.5674  -22.6529 C   0  0  0  0  0  0  0  0  0  0  0  0
    6.1053   -1.5554  -21.7525 C   0  0  0  0  0  0  0  0  0  0  0  0
    6.3461    0.7956  -22.3620 C   0  0  0  0  0  0  0  0  0  0  0  0
    5.2264    0.1788  -20.2857 C   0  0  0  0  0  0  0  0  0  0  0  0
    5.0097    3.8687  -22.9475 C   0  0  0  0  0  0  0  0  0  0  0  0
    7.1673    4.2258  -21.9206 C   0  0  0  0  0  0  0  0  0  0  0  0
    5.7436   -3.3071  -19.2811 C   0  0  0  0  0  0  0  0  0  0  0  0
    3.6842   -2.0661  -19.0147 C   0  0  0  0  0  0  0  0  0  0  0  0
    4.0609   -4.0465  -17.8364 C   0  0  0  0  0  0  0  0  0  0  0  0
    5.4340   -1.1816  -20.5693 C   0  0  0  0  0  0  0  0  0  0  0  0
    4.9498   -2.1958  -19.6222 C   0  0  0  0  0  0  0  0  0  0  0  0
    5.6870    1.1800  -21.1664 C   0  0  0  0  0  0  0  0  0  0  0  0
    5.8897    3.6293  -21.8716 C   0  0  0  0  0  0  0  0  0  0  0  0
    5.4044    4.7162  -24.0013 C   0  0  0  0  0  0  0  0  0  0  0  0
    7.5102    5.0503  -23.0090 C   0  0  0  0  0  0  0  0  0  0  0  0
    6.2093    2.9089  -19.4404 C   0  0  0  0  0  0  0  0  0  0  0  0
    3.9711    3.3180  -19.1942 C   0  0  0  0  0  0  0  0  0  0  0  0
    5.4954    2.6440  -20.7636 C   0  0  2  0  0  0  0  0  0  0  0  0
    4.9408    6.0046  -26.1512 C   0  0  0  0  0  0  0  0  0  0  0  0
    8.7498    7.1985  -22.6714 C   0  0  0  0  0  0  0  0  0  0  0  0
    5.4513    3.7156  -17.1765 C   0  0  0  0  0  0  0  0  0  0  0  0
    4.4457    4.9324  -25.1609 C   0  0  0  0  0  0  0  0  0  0  0  0
    8.8699    5.7146  -23.0490 C   0  0  0  0  0  0  0  0  0  0  0  0
    5.2909   -4.2105  -18.3861 N   0  0  0  0  0  0  0  0  0  0  0  0
    3.2549   -2.9985  -18.1395 N   0  0  0  0  0  0  0  0  0  0  0  0
    6.6347    5.2866  -24.0121 N   0  0  0  0  0  0  0  0  0  0  0  0
    5.2076    3.2309  -18.5409 N   0  0  0  0  0  0  0  0  0  0  0  0
    4.0795    2.8622  -20.4196 N   0  0  0  0  0  0  0  0  0  0  0  0
    2.7889    3.7794  -18.6363 N   0  0  0  0  0  0  0  0  0  0  0  0
    7.3863    2.6970  -19.1673 O   0  0  0  0  0  0  0  0  0  0  0  0
    7.0364   -0.8557  -23.5703 H   0  0  0  0  0  0  0  0  0  0  0  0
    6.2817   -2.5991  -21.9670 H   0  0  0  0  0  0  0  0  0  0  0  0
    6.6963    1.5502  -23.0507 H   0  0  0  0  0  0  0  0  0  0  0  0
    4.7076    0.4617  -19.3818 H   0  0  0  0  0  0  0  0  0  0  0  0
    4.0352    3.4033  -22.9634 H   0  0  0  0  0  0  0  0  0  0  0  0
    7.8788    4.0508  -21.1271 H   0  0  0  0  0  0  0  0  0  0  0  0
    6.7147   -3.4370  -19.7355 H   0  0  0  0  0  0  0  0  0  0  0  0
    3.0573   -1.2188  -19.2504 H   0  0  0  0  0  0  0  0  0  0  0  0
    3.7090   -4.7815  -17.1276 H   0  0  0  0  0  0  0  0  0  0  0  0
    4.2101    6.1176  -26.9656 H   0  0  0  0  0  0  0  0  0  0  0  0
    5.0553    6.9641  -25.6256 H   0  0  0  0  0  0  0  0  0  0  0  0
    5.9109    5.6974  -26.5691 H   0  0  0  0  0  0  0  0  0  0  0  0
    9.7442    7.6675  -22.7047 H   0  0  0  0  0  0  0  0  0  0  0  0
    8.0816    7.7050  -23.3834 H   0  0  0  0  0  0  0  0  0  0  0  0
    8.3371    7.2859  -21.6555 H   0  0  0  0  0  0  0  0  0  0  0  0
    4.4896    3.8964  -16.6739 H   0  0  0  0  0  0  0  0  0  0  0  0
    6.0217    2.9606  -16.6157 H   0  0  0  0  0  0  0  0  0  0  0  0
    6.0253    4.6531  -17.2177 H   0  0  0  0  0  0  0  0  0  0  0  0
    4.3277    3.9818  -25.7016 H   0  0  0  0  0  0  0  0  0  0  0  0
    3.4721    5.2484  -24.7581 H   0  0  0  0  0  0  0  0  0  0  0  0
    9.5404    5.2120  -22.3364 H   0  0  0  0  0  0  0  0  0  0  0  0
    9.2848    5.6310  -24.0643 H   0  0  0  0  0  0  0  0  0  0  0  0
    3.3097    2.6876  -21.0335 H   0  0  0  0  0  0  0  0  0  0  0  0
    1.9471    3.7779  -19.1762 H   0  0  0  0  0  0  0  0  0  0  0  0
    2.7778    4.1137  -17.6939 H   0  0  0  0  0  0  0  0  0  0  0  0
  1  2  2  0
  1  3  1  0
  2 10  1  0
  3 12  2  0
  4 10  2  0
  4 12  1  0
  5 13  2  0
  5 14  1  0
  6 13  1  0
  6 15  2  0
  7 11  2  0
  7 24  1  0
  8 11  1  0
  8 25  2  0
  9 24  2  0
  9 25  1  0
 10 11  1  0
 18 12  1  6
 13 18  1  0
 14 22  1  0
 14 26  2  0
 15 23  1  0
 15 26  1  0
 16 18  1  0
 16 27  1  0
 16 30  2  0
 17 27  1  0
 17 28  2  0
 17 29  1  0
 18 28  1  0
 19 22  1  0
 20 23  1  0
 21 27  1  0
  1 31  1  0
  2 32  1  0
  3 33  1  0
  4 34  1  0
  5 35  1  0
  6 36  1  0
  7 37  1  0
  8 38  1  0
  9 39  1  0
 19 40  1  0
 19 41  1  0
 19 42  1  0
 20 43  1  0
 20 44  1  0
 20 45  1  0
 21 46  1  0
 21 47  1  0
 21 48  1  0
 22 49  1  0
 22 50  1  0
 23 51  1  0
 23 52  1  0
 28 53  1  0
 29 54  1  0
 29 55  1  0
M  CHG  1  28   1
M  END
>  <OMEGA_C>  (1) 
hW/RQCBAEb8MObXBvV7DQPQWx78MBa7BURPLQI+sSz9R5bLBCD+nQKciNz4mSaLBEU+gQM2Yd0Bs
lLfByVrlQJ45h0BfXa/Bi8u3QFWoU8DCP5rBvslrQJc7BMARHpjBAPOBQAB9gcD0sI7BfuOtQDA9
l7/ojaTBkmSeQEaIDMA1+pzBz/u1QGgLlz/WVKnBnni8QB1GaEAP+a7BxvCsQGvrlkCQAsDBSVPw
QOqboUB1ErjBSrLGQNUqOkDlhZvBeiZ+QItZVEDKjZnBaNqvQIs3KUDIG6bBXBueQEclwECgNdHB
Cv8LQfJZ5kDzXrXBpXCuQPbMbUCNaYnBN0OOQDfWnUBzScnBEOsNQdrdtkBYZLjB5E6pQJS8hsCk
FpPB8U9QQOnnP8DJHZHBJU/UQJUrqUC9GMDB6qSmQH/GTkDaU5TBX4uCQAYvN0BHW6PBlnwyQIDh
cUAUF5XBYVzsQLabLEC5VpnBSSrhQHEQW7/oj7zB2APJQAlXJsBqvK/BL0jWQAhsxj/iZ7jBYqSW
QO1l7D7VDZvBfyCBQDjPWUACtbfB3h78QPufgUBMBKnB3t7WQCD4W8Bg4p3BhqtDQAQDnL/LAJrB
bWBtQB4CmcBqBYnBV7mGQD7Dw0COudfBs8ShQKvZ3kBAAc3BHya9QGpRtkCHjdTBPOgbQUZc9UAv
o7XBHU4BQSKP9kAuEbvB0GQFQUIm6UBePq3BJauPQOJeeUAwZIXBGrLAQD57PUD37ITBI8/AQP3l
lEDBvYnByXyKQHDVfkDjnM3BuzZeQPnyp0CbEMbBUKUYQVvIpkDisLLBnY4UQTwxtECyg8DB2tJT
QMcBLECwRKjBHzz5P7PJcUDcaJnBJccxQD2jg0AIjY3BaeDRQCLZEb86JrXB2n3DQNmcx78RAK7B
VE3LQMLlSj+S1bLB5LSmQNabLz7uVaLBBFjlQLYph0DRNq/BF3agQMAYeEDPiLfBhei3QAgsVMCV
UJrBQgJsQI4OBcDFBpjB7oeCQHXwgcAnpo7B15WtQMolmL/jlaTBdVKeQDUoDcAd/ZzBia61QCdV
lj+nVqnBenS8QJsmaEAp6a7Be3jwQJnsoUB91bfBm1GtQFNYl0Bo6b/BqnHGQLdSOUCzfZvBjst9
QPl7VEACjJnB5Z6vQPDTKEDfFqbBhu8LQa1R50DzAbbBkzKfQEF0wEA1MNHBTX2uQDPcb0Cjf4nB
AQoOQRIJt0BAD7jBWKiOQNPUnkBGK8nBeMGpQL0Nh8C/IJPBlzBRQM3bQMDf/5DBiq7UQMCeqUCx
57/Bbn6mQAYrT0AuVJTBxlSCQDUlN0AuWKPB9RwyQOy7cUCJDpXBTwjsQFYqK0BqSJnBNgTiQGUx
W7/2b7zBgjfJQPGRJsASuK/Bcr/WQAo1xj8vTbjBsbyVQEfL5z4uJ5vBvgL8QN9EgUBT3KjBpDuB
QNWFWkB4t7fBU9/WQAFMXMDyA57B4aRDQHDFnb+a2pnBb/9uQOWLmcA3+YjBQOIbQUEw9kAcMrbB
W88BQYu79UALPbzByZkEQTCe7EBjHq7BGcGHQNh3xEDurNfBZcSjQJ0w30DYDc3BGeO9QJ+0tUDP
jtTBvsqPQDwzfEBheoXBIMLAQOYqQEBg6YTBwevAQJvalUDH/YnB1zMYQZTAqEBJ07HBaGkVQe/d
sUDx8b/Bk/mJQORjgEAAbs3BvrVfQOPfqUAJ7cXBZ19TQLIQLEB8QajBgTz4P1xLcUDwWZnBh4Ux
QKCig0ARho3Bf7/SQAmEEL/AJLXBNRbEQMw2x7+TDK7BZPHLQEwHTD861rLB0YemQERJLz6ceKLB
QTzlQLR4h0DDNq/B2pmgQMQwd0DJlrfBwD5rQM8QBcArTZjBKNm3QESSU8AmVJrBDS+CQIBtgcDf
t47B1aOtQPgImL/EtaTBPyueQCUODcAOJZ3BWNC1QG6Hlj/eZ6nBuoG8QEEpaEBE7a7B5EfwQC0S
okDu37fBxUStQErjlkAy+r/Bo3PGQKr+OEDXe5vBywZ+QAtTVUAnpZnBg8CvQF3TKEBEHabBW6cL
QaUi50DvI7XBeC6eQNPuv0CwNNHBYd6tQFZ1a0ARVonBfNQNQbybt0AsEbjB5/qOQF8OnUBjXsnB
3kFQQK5jQMCzOZHBEZapQM2HhsCdGZPBk3nUQLCEqUBx9r/Bn02mQKDvTUDEU5TB/3GCQIE8N0Be
Z6PBu8UyQCHjdEArS5XBwAjsQLXrKkCtQpnB+EbjQPhCWb/7YbzB5ALKQAdUJsBawK/Bm5nXQE/8
xj/hQrjBSiKVQIlY5j6pWJvBfdX7QK7ygUAU06jBDo2BQAriWECUyrfBlalCQLq0nr+hQprBufXW
QKSrW8C9853B8jRuQE/RmMAa/ojBzoQbQf1b9kDjT7XBjBQBQSYL90B58brBDcwEQcoN6kCNEa3B
oBCHQCzowkDnzNfBdqWgQBSu3kBc98zBJLO9QHsft0BJctTBPgWPQJujd0B1YYXBnYC/QLkDOkC5
4oTBc8PAQJNrk0DbgYnBRnAYQWfSp0BpQrLBxbgUQcPPtEBVIsDBGWWMQFw1fUArvM3B165eQEYp
pkA+QcbBi6JTQM64K0AJTqjBA176P/6ldUCPqpnBPRMyQH5yhUAvyI3B79fRQMqbFL8/N7XBaW7D
QF35yL+eEa7BNXLLQO05SD/44LLBjummQEfdJT5VX6LBRImgQM3gdkDviLfBbHblQOwOh0D9R6/B
mJNrQHNcBcAKJ5jBQri3QDGaVMCsU5rBXzSCQCvSgcAxqI7B0p2tQH9hmb8WpaTBajCeQOKrDcBX
EJ3Bm/W1QLkLlT9wXanBA7C8QLx3Z0C07q7Bcf2sQH/LlkBE7b/B6zzwQLzVoUCq8LfBQKTGQIKC
OEDReZvBxxB/QJyiV0CaxpnBffivQJ4mKEAUGqbBeJidQF7Hv0DrJdHBOiELQeBN50D6GLXBAimu
QMtCbUAAb4nB63yOQJP/nEDmRcnBRKkNQTnyt0BlI7jBl5VQQObDQMD3FZHBX3epQJIVh8AkG5PB
lTPUQHlhqUB0+L/BY4CmQFV1TkCrXJTBHqaCQL6ONkAdY6PBwws1QHS1e0DjpJXBuzDsQPJEKkBt
PJnBGd7hQAgIXr/ehLzBthDJQHBEJ8Ddy6/BC+3WQLbaxD++V7jBXQWWQCoZ4z7bLZvB/XCBQHa8
WEDlr7fBJ0f8QJtcgUAh86jBUjhDQJaunr8iDZrBO7bWQNn1XMAxAZ7B7T5uQFE/mcDZ8IjBZlKG
QK/HwkAStdfBekKgQKSL3kDO7MzBOAG9QG7atkBQb9TBld4aQVoK90CGRLXBW2EAQdQU90B317rB
GVIEQaO16UBQAa3BOlmPQBIWekD9fYXBFsC/QI5EPEAv5YTBKyLBQLdBlEAXuYnBcbOLQNMNfUCE
n83BZ+ldQCA4pkACHcbBCXAYQQZEqEDnY7LBS38UQTejtUAOOsDB5s1TQLUWKUDrK6jBZ5n/P+6l
fUB0E5rB3uY0QAvliUBkO47B0jfRQIWRHb/F1bTBC4bCQCDjyb+Hf63B4ZfKQNZcQT+V6LLBnKik
QBA6Sj4wcKLBRG6lQBA3ckAHXrnBrMfhQEJskEDVyq7BzSi2QMTsVcAiQprBLvVsQKB3AsBq2JbB
tYeCQPAlgsBeCo7BYy6sQBi4lr9LOaTBxIOdQPYoDMACYpzB6iC0QHUglz+kr6nBe6q9QFKGakAu
1q/BB/+xQMgEl0BHWMHBNUzsQCCArUDLGbfBq2/GQCJtOUA+LpzBavd8QCzBTUB+z5nBsoKvQHg3
K0Ah1qbB2qdTQJK/nUDGaMrBHu8aQTJ8wkD1P7DB++WtQJDjXECMdYnBUVqaQPXDm0Cm3svBGiEG
QbVt0UC1dbXBoGmoQFlHiMCuGpPBr/lSQCbUPsDy0Y/Bwv3UQMJyr0CfG8DBc0ymQNawRkCRupTB
uHqCQFx0PUBRFqTBSVswQMA+YUAxwJTBHlzsQIrlLEBIMJrBULPhQD5Xbr9U/7vBnFvIQEINKMBS
967BTbfWQAFLvj9Kf7jBHN+SQAe4AT+odJvBwXmJQIy7SkA2krrBc0j1QBT4jkA2q6fBoynUQGeG
X8ADYJ7BF89FQK8rlb8WOpjB+LdvQJ7kmcCRW4jBZK40QGAuoUDXQ9LB2kw9QHEkgEBLjsbBSCJD
QP5YuUBVWsXBQcslQTPq3UDnSK/BjWsXQbyOtEB8XKjBl5IiQSM1qkCyWbXBow6PQBjKY0BiToXB
KbPAQC3mKUBKn4XBOqO/QLnLjEDYA4nB2QylQMRquUA0yc/BIiKiQDY2gEAp/dDB6O0JQduH30Cv
S73Bu439QHTh6UB5TrDBXZdUQP9rPUB9U6nBrxH0P+SjY0BX+JjBpngvQD/lbECc4ozB

>  <OMEGA_E>  (1) 
AD9APABdpzwAtaw8QFG5PGzCuz4=

>  <OMEGA_NBR>  (1) 
     16899

$$$$
50213410
     RDKit          3D

 55 58  0  0  1  0  0  0  0  0999 V2000
    6.5449   -0.5674  -22.6529 C   0  0  0  0  0  0  0  0  0  0  0  0
    6.1053   -1.5554  -21.7525 C   0  0  0  0  0  0  0  0  0  0  0  0
    6.3461    0.7956  -22.3620 C   0  0  0  0  0  0  0  0  0  0  0  0
    5.2264    0.1788  -20.2857 C   0  0  0  0  0  0  0  0  0  0  0  0
    5.0097    3.8687  -22.9475 C   0  0  0  0  0  0  0  0  0  0  0  0
    7.1673    4.2258  -21.9206 C   0  0  0  0  0  0  0  0  0  0  0  0
    5.7436   -3.3071  -19.2811 C   0  0  0  0  0  0  0  0  0  0  0  0
    3.6842   -2.0661  -19.0147 C   0  0  0  0  0  0  0  0  0  0  0  0
    4.0609   -4.0465  -17.8364 C   0  0  0  0  0  0  0  0  0  0  0  0
    5.4340   -1.1816  -20.5693 C   0  0  0  0  0  0  0  0  0  0  0  0
    4.9498   -2.1958  -19.6222 C   0  0  0  0  0  0  0  0  0  0  0  0
    5.6870    1.1800  -21.1664 C   0  0  0  0  0  0  0  0  0  0  0  0
    5.8897    3.6293  -21.8716 C   0  0  0  0  0  0  0  0  0  0  0  0
    5.4044    4.7162  -24.0013 C   0  0  0  0  0  0  0  0  0  0  0  0
    7.5102    5.0503  -23.0090 C   0  0  0  0  0  0  0  0  0  0  0  0
    6.2093    2.9089  -19.4404 C   0  0  0  0  0  0  0  0  0  0  0  0
    3.9711    3.3180  -19.1942 C   0  0  0  0  0  0  0  0  0  0  0  0
    5.4954    2.6440  -20.7636 C   0  0  2  0  0  0  0  0  0  0  0  0
    4.9408    6.0046  -26.1512 C   0  0  0  0  0  0  0  0  0  0  0  0
    8.7498    7.1985  -22.6714 C   0  0  0  0  0  0  0  0  0  0  0  0
    5.4513    3.7156  -17.1765 C   0  0  0  0  0  0  0  0  0  0  0  0
    4.4457    4.9324  -25.1609 C   0  0  0  0  0  0  0  0  0  0  0  0
    8.8699    5.7146  -23.0490 C   0  0  0  0  0  0  0  0  0  0  0  0
    5.2909   -4.2105  -18.3861 N   0  0  0  0  0  0  0  0  0  0  0  0
    3.2549   -2.9985  -18.1395 N   0  0  0  0  0  0  0  0  0  0  0  0
    6.6347    5.2866  -24.0121 N   0  0  0  0  0  0  0  0  0  0  0  0
    5.2076    3.2309  -18.5409 N   0  0  0  0  0  0  0  0  0  0  0  0
    4.0795    2.8622  -20.4196 N   0  0  0  0  0  0  0  0  0  0  0  0
    2.7889    3.7794  -18.6363 N   0  0  0  0  0  0  0  0  0  0  0  0
    7.3863    2.6970  -19.1673 O   0  0  0  0  0  0  0  0  0  0  0  0
    7.0364   -0.8557  -23.5703 H   0  0  0  0  0  0  0  0  0  0  0  0
    6.2817   -2.5991  -21.9670 H   0  0  0  0  0  0  0  0  0  0  0  0
    6.6963    1.5502  -23.0507 H   0  0  0  0  0  0  0  0  0  0  0  0
    4.7076    0.4617  -19.3818 H   0  0  0  0  0  0  0  0  0  0  0  0
    4.0352    3.4033  -22.9634 H   0  0  0  0  0  0  0  0  0  0  0  0
    7.8788    4.0508  -21.1271 H   0  0  0  0  0  0  0  0  0  0  0  0
    6.7147   -3.4370  -19.7355 H   0  0  0  0  0  0  0  0  0  0  0  0
    3.0573   -1.2188  -19.2504 H   0  0  0  0  0  0  0  0  0  0  0  0
    3.7090   -4.7815  -17.1276 H   0  0  0  0  0  0  0  0  0  0  0  0
    4.2101    6.1176  -26.9656 H   0  0  0  0  0  0  0  0  0  0  0  0
    5.0553    6.9641  -25.6256 H   0  0  0  0  0  0  0  0  0  0  0  0
    5.9109    5.6974  -26.5691 H   0  0  0  0  0  0  0  0  0  0  0  0
    9.7442    7.6675  -22.7047 H   0  0  0  0  0  0  0  0  0  0  0  0
    8.0816    7.7050  -23.3834 H   0  0  0  0  0  0  0  0  0  0  0  0
    8.3371    7.2859  -21.6555 H   0  0  0  0  0  0  0  0  0  0  0  0
    4.4896    3.8964  -16.6739 H   0  0  0  0  0  0  0  0  0  0  0  0
    6.0217    2.9606  -16.6157 H   0  0  0  0  0  0  0  0  0  0  0  0
    6.0253    4.6531  -17.2177 H   0  0  0  0  0  0  0  0  0  0  0  0
    4.3277    3.9818  -25.7016 H   0  0  0  0  0  0  0  0  0  0  0  0
    3.4721    5.2484  -24.7581 H   0  0  0  0  0  0  0  0  0  0  0  0
    9.5404    5.2120  -22.3364 H   0  0  0  0  0  0  0  0  0  0  0  0
    9.2848    5.6310  -24.0643 H   0  0  0  0  0  0  0  0  0  0  0  0
    3.3097    2.6876  -21.0335 H   0  0  0  0  0  0  0  0  0  0  0  0
    1.9471    3.7779  -19.1762 H   0  0  0  0  0  0  0  0  0  0  0  0
    2.7778    4.1137  -17.6939 H   0  0  0  0  0  0  0  0  0  0  0  0
  1  2  2  0
  1  3  1  0
  2 10  1  0
  3 12  2  0
  4 10  2  0
  4 12  1  0
  5 13  2  0
  5 14  1  0
  6 13  1  0
  6 15  2  0
  7 11  2  0
  7 24  1  0
  8 11  1  0
  8 25  2  0
  9 24  2  0
  9 25  1  0
 10 11  1  0
 18 12  1  6
 13 18  1  0
 14 22  1  0
 14 26  2  0
 15 23  1  0
 15 26  1  0
 16 18  1  0
 16 27  1  0
 16 30  2  0
 17 27  1  0
 17 28  2  0
 17 29  1  0
 18 28  1  0
 19 22  1  0
 20 23  1  0
 21 27  1  0
  1 31  1  0
  2 32  1  0
  3 33  1  0
  4 34  1  0
  5 35  1  0
  6 36  1  0
  7 37  1  0
  8 38  1  0
  9 39  1  0
 19 40  1  0
 19 41  1  0
 19 42  1  0
 20 43  1  0
 20 44  1  0
 20 45  1  0
 21 46  1  0
 21 47  1  0
 21 48  1  0
 22 49  1  0
 22 50  1  0
 23 51  1  0
 23 52  1  0
 28 53  1  0
 29 54  1  0
 29 55  1  0
M  CHG  1  28   1
M  END
>  <OMEGA_C>  (2) 
hW/RQCBAEb8MObXBvV7DQPQWx78MBa7BURPLQI+sSz9R5bLBCD+nQKciNz4mSaLBEU+gQM2Yd0Bs
lLfByVrlQJ45h0BfXa/Bi8u3QFWoU8DCP5rBvslrQJc7BMARHpjBAPOBQAB9gcD0sI7BfuOtQDA9
l7/ojaTBkmSeQEaIDMA1+pzBz/u1QGgLlz/WVKnBnni8QB1GaEAP+a7BxvCsQGvrlkCQAsDBSVPw
QOqboUB1ErjBSrLGQNUqOkDlhZvBeiZ+QItZVEDKjZnBaNqvQIs3KUDIG6bBXBueQEclwECgNdHB
Cv8LQfJZ5kDzXrXBpXCuQPbMbUCNaYnBN0OOQDfWnUBzScnBEOsNQdrdtkBYZLjB5E6pQJS8hsCk
FpPB8U9QQOnnP8DJHZHBJU/UQJUrqUC9GMDB6qSmQH/GTkDaU5TBX4uCQAYvN0BHW6PBlnwyQIDh
cUAUF5XBYVzsQLabLEC5VpnBSSrhQHEQW7/oj7zB2APJQAlXJsBqvK/BL0jWQAhsxj/iZ7jBYqSW
QO1l7D7VDZvBfyCBQDjPWUACtbfB3h78QPufgUBMBKnB3t7WQCD4W8Bg4p3BhqtDQAQDnL/LAJrB
bWBtQB4CmcBqBYnBV7mGQD7Dw0COudfBs8ShQKvZ3kBAAc3BHya9QGpRtkCHjdTBPOgbQUZc9UAv
o7XBHU4BQSKP9kAuEbvB0GQFQUIm6UBePq3BJauPQOJeeUAwZIXBGrLAQD57PUD37ITBI8/AQP3l
lEDBvYnByXyKQHDVfkDjnM3BuzZeQPnyp0CbEMbBUKUYQVvIpkDisLLBnY4UQTwxtECyg8DB2tJT
QMcBLECwRKjBHzz5P7PJcUDcaJnBJccxQD2jg0AIjY3BaeDRQCLZEb86JrXB2n3DQNmcx78RAK7B
VE3LQMLlSj+S1bLB5LSmQNabLz7uVaLBBFjlQLYph0DRNq/BF3agQMAYeEDPiLfBhei3QAgsVMCV
UJrBQgJsQI4OBcDFBpjB7oeCQHXwgcAnpo7B15WtQMolmL/jlaTBdVKeQDUoDcAd/ZzBia61QCdV
lj+nVqnBenS8QJsmaEAp6a7Be3jwQJnsoUB91bfBm1GtQFNYl0Bo6b/BqnHGQLdSOUCzfZvBjst9
QPl7VEACjJnB5Z6vQPDTKEDfFqbBhu8LQa1R50DzAbbBkzKfQEF0wEA1MNHBTX2uQDPcb0Cjf4nB
AQoOQRIJt0BAD7jBWKiOQNPUnkBGK8nBeMGpQL0Nh8C/IJPBlzBRQM3bQMDf/5DBiq7UQMCeqUCx
57/Bbn6mQAYrT0AuVJTBxlSCQDUlN0AuWKPB9RwyQOy7cUCJDpXBTwjsQFYqK0BqSJnBNgTiQGUx
W7/2b7zBgjfJQPGRJsASuK/Bcr/WQAo1xj8vTbjBsbyVQEfL5z4uJ5vBvgL8QN9EgUBT3KjBpDuB
QNWFWkB4t7fBU9/WQAFMXMDyA57B4aRDQHDFnb+a2pnBb/9uQOWLmcA3+YjBQOIbQUEw9kAcMrbB
W88BQYu79UALPbzByZkEQTCe7EBjHq7BGcGHQNh3xEDurNfBZcSjQJ0w30DYDc3BGeO9QJ+0tUDP
jtTBvsqPQDwzfEBheoXBIMLAQOYqQEBg6YTBwevAQJvalUDH/YnB1zMYQZTAqEBJ07HBaGkVQe/d
sUDx8b/Bk/mJQORjgEAAbs3BvrVfQOPfqUAJ7cXBZ19TQLIQLEB8QajBgTz4P1xLcUDwWZnBh4Ux
QKCig0ARho3Bf7/SQAmEEL/AJLXBNRbEQMw2x7+TDK7BZPHLQEwHTD861rLB0YemQERJLz6ceKLB
QTzlQLR4h0DDNq/B2pmgQMQwd0DJlrfBwD5rQM8QBcArTZjBKNm3QESSU8AmVJrBDS+CQIBtgcDf
t47B1aOtQPgImL/EtaTBPyueQCUODcAOJZ3BWNC1QG6Hlj/eZ6nBuoG8QEEpaEBE7a7B5EfwQC0S
okDu37fBxUStQErjlkAy+r/Bo3PGQKr+OEDXe5vBywZ+QAtTVUAnpZnBg8CvQF3TKEBEHabBW6cL
QaUi50DvI7XBeC6eQNPuv0CwNNHBYd6tQFZ1a0ARVonBfNQNQbybt0AsEbjB5/qOQF8OnUBjXsnB
3kFQQK5jQMCzOZHBEZapQM2HhsCdGZPBk3nUQLCEqUBx9r/Bn02mQKDvTUDEU5TB/3GCQIE8N0Be
Z6PBu8UyQCHjdEArS5XBwAjsQLXrKkCtQpnB+EbjQPhCWb/7YbzB5ALKQAdUJsBawK/Bm5nXQE/8
xj/hQrjBSiKVQIlY5j6pWJvBfdX7QK7ygUAU06jBDo2BQAriWECUyrfBlalCQLq0nr+hQprBufXW
QKSrW8C9853B8jRuQE/RmMAa/ojBzoQbQf1b9kDjT7XBjBQBQSYL90B58brBDcwEQcoN6kCNEa3B
oBCHQCzowkDnzNfBdqWgQBSu3kBc98zBJLO9QHsft0BJctTBPgWPQJujd0B1YYXBnYC/QLkDOkC5
4oTBc8PAQJNrk0DbgYnBRnAYQWfSp0BpQrLBxbgUQcPPtEBVIsDBGWWMQFw1fUArvM3B165eQEYp
pkA+QcbBi6JTQM64K0AJTqjBA176P/6ldUCPqpnBPRMyQH5yhUAvyI3B79fRQMqbFL8/N7XBaW7D
QF35yL+eEa7BNXLLQO05SD/44LLBjummQEfdJT5VX6LBRImgQM3gdkDviLfBbHblQOwOh0D9R6/B
mJNrQHNcBcAKJ5jBQri3QDGaVMCsU5rBXzSCQCvSgcAxqI7B0p2tQH9hmb8WpaTBajCeQOKrDcBX
EJ3Bm/W1QLkLlT9wXanBA7C8QLx3Z0C07q7Bcf2sQH/LlkBE7b/B6zzwQLzVoUCq8LfBQKTGQIKC
OEDReZvBxxB/QJyiV0CaxpnBffivQJ4mKEAUGqbBeJidQF7Hv0DrJdHBOiELQeBN50D6GLXBAimu
QMtCbUAAb4nB63yOQJP/nEDmRcnBRKkNQTnyt0BlI7jBl5VQQObDQMD3FZHBX3epQJIVh8AkG5PB
lTPUQHlhqUB0+L/BY4CmQFV1TkCrXJTBHqaCQL6ONkAdY6PBwws1QHS1e0DjpJXBuzDsQPJEKkBt
PJnBGd7hQAgIXr/ehLzBthDJQHBEJ8Ddy6/BC+3WQLbaxD++V7jBXQWWQCoZ4z7bLZvB/XCBQHa8
WEDlr7fBJ0f8QJtcgUAh86jBUjhDQJaunr8iDZrBO7bWQNn1XMAxAZ7B7T5uQFE/mcDZ8IjBZlKG
QK/HwkAStdfBekKgQKSL3kDO7MzBOAG9QG7atkBQb9TBld4aQVoK90CGRLXBW2EAQdQU90B317rB
GVIEQaO16UBQAa3BOlmPQBIWekD9fYXBFsC/QI5EPEAv5YTBKyLBQLdBlEAXuYnBcbOLQNMNfUCE
n83BZ+ldQCA4pkACHcbBCXAYQQZEqEDnY7LBS38UQTejtUAOOsDB5s1TQLUWKUDrK6jBZ5n/P+6l
fUB0E5rB3uY0QAvliUBkO47B0jfRQIWRHb/F1bTBC4bCQCDjyb+Hf63B4ZfKQNZcQT+V6LLBnKik
QBA6Sj4wcKLBRG6lQBA3ckAHXrnBrMfhQEJskEDVyq7BzSi2QMTsVcAiQprBLvVsQKB3AsBq2JbB
tYeCQPAlgsBeCo7BYy6sQBi4lr9LOaTBxIOdQPYoDMACYpzB6iC0QHUglz+kr6nBe6q9QFKGakAu
1q/BB/+xQMgEl0BHWMHBNUzsQCCArUDLGbfBq2/GQCJtOUA+LpzBavd8QCzBTUB+z5nBsoKvQHg3
K0Ah1qbB2qdTQJK/nUDGaMrBHu8aQTJ8wkD1P7DB++WtQJDjXECMdYnBUVqaQPXDm0Cm3svBGiEG
QbVt0UC1dbXBoGmoQFlHiMCuGpPBr/lSQCbUPsDy0Y/Bwv3UQMJyr0CfG8DBc0ymQNawRkCRupTB
uHqCQFx0PUBRFqTBSVswQMA+YUAxwJTBHlzsQIrlLEBIMJrBULPhQD5Xbr9U/7vBnFvIQEINKMBS
967BTbfWQAFLvj9Kf7jBHN+SQAe4AT+odJvBwXmJQIy7SkA2krrBc0j1QBT4jkA2q6fBoynUQGeG
X8ADYJ7BF89FQK8rlb8WOpjB+LdvQJ7kmcCRW4jBZK40QGAuoUDXQ9LB2kw9QHEkgEBLjsbBSCJD
QP5YuUBVWsXBQcslQTPq3UDnSK/BjWsXQbyOtEB8XKjBl5IiQSM1qkCyWbXBow6PQBjKY0BiToXB
KbPAQC3mKUBKn4XBOqO/QLnLjEDYA4nB2QylQMRquUA0yc/BIiKiQDY2gEAp/dDB6O0JQduH30Cv
S73Bu439QHTh6UB5TrDBXZdUQP9rPUB9U6nBrxH0P+SjY0BX+JjBpngvQD/lbECc4ozB

>  <OMEGA_E>  (2) 
AD9APABdpzwAtaw8QFG5PGzCuz4=

>  <OMEGA_NBR>  (2) 
     21755

$$$$
50219789
     RDKit          3D

 32 33  0  0  0  0  0  0  0  0999 V2000
    4.4713   -0.3669  -21.5599 C   0  0  0  0  0  0  0  0  0  0  0  0
    4.7031    0.8980  -22.1384 C   0  0  0  0  0  0  0  0  0  0  0  0
    5.5250   -1.2965  -21.4513 C   0  0  0  0  0  0  0  0  0  0  0  0
    7.0457    0.3061  -22.4840 C   0  0  0  0  0  0  0  0  0  0  0  0
    6.0051    1.2525  -22.5712 C   0  0  0  0  0  0  0  0  0  0  0  0
    6.8090   -0.9616  -21.9254 C   0  0  0  0  0  0  0  0  0  0  0  0
    6.8377    3.3453  -20.1959 C   0  0  0  0  0  0  0  0  0  0  0  0
    5.6647    3.6062  -20.8739 C   0  0  0  0  0  0  0  0  0  0  0  0
    6.7683    3.0928  -18.7522 C   0  0  0  0  0  0  0  0  0  0  0  0
    4.3639    3.3805  -18.9072 C   0  0  0  0  0  0  0  0  0  0  0  0
    5.3894    2.8800  -16.6687 C   0  0  0  0  0  0  0  0  0  0  0  0
    6.3190    2.6303  -23.1492 C   0  0  0  0  0  0  0  0  0  0  0  0
    5.6524    3.7960  -22.3815 C   0  0  0  0  0  0  0  0  0  0  0  0
    4.4345    3.6332  -20.2004 N   0  0  0  0  0  0  0  0  0  0  0  0
    5.5100    3.0766  -18.1339 N   0  0  0  0  0  0  0  0  0  0  0  0
    3.1038    3.4191  -18.3202 N   0  0  0  0  0  0  0  0  0  0  0  0
    7.8022    2.8898  -18.1257 O   0  0  0  0  0  0  0  0  0  0  0  0
    8.2399   -2.2128  -21.8006 Br  0  0  0  0  0  0  0  0  0  0  0  0
    3.4859   -0.6234  -21.2000 H   0  0  0  0  0  0  0  0  0  0  0  0
    3.8877    1.5971  -22.2517 H   0  0  0  0  0  0  0  0  0  0  0  0
    5.3486   -2.2641  -21.0052 H   0  0  0  0  0  0  0  0  0  0  0  0
    8.0310    0.5565  -22.8486 H   0  0  0  0  0  0  0  0  0  0  0  0
    7.7843    3.3273  -20.7154 H   0  0  0  0  0  0  0  0  0  0  0  0
    4.3277    2.8989  -16.3818 H   0  0  0  0  0  0  0  0  0  0  0  0
    5.8266    1.9093  -16.3919 H   0  0  0  0  0  0  0  0  0  0  0  0
    5.9249    3.6858  -16.1454 H   0  0  0  0  0  0  0  0  0  0  0  0
    7.4089    2.7768  -23.1241 H   0  0  0  0  0  0  0  0  0  0  0  0
    5.9693    2.6568  -24.1918 H   0  0  0  0  0  0  0  0  0  0  0  0
    4.6075    3.8813  -22.7144 H   0  0  0  0  0  0  0  0  0  0  0  0
    6.1906    4.7250  -22.6210 H   0  0  0  0  0  0  0  0  0  0  0  0
    2.4193    3.6447  -19.0135 H   0  0  0  0  0  0  0  0  0  0  0  0
    2.8938    2.5257  -17.9229 H   0  0  0  0  0  0  0  0  0  0  0  0
  1  2  2  0
  1  3  1  0
  2  5  1  0
  3  6  2  0
  4  5  2  0
  4  6  1  0
  5 12  1  0
  6 18  1  0
  7  8  2  0
  7  9  1  0
  8 13  1  0
  8 14  1  0
  9 15  1  0
  9 17  2  0
 10 14  2  0
 10 15  1  0
 10 16  1  0
 11 15  1  0
 12 13  1  0
  1 19  1  0
  2 20  1  0
  3 21  1  0
  4 22  1  0
  7 23  1  0
 11 24  1  0
 11 25  1  0
 11 26  1  0
 12 27  1  0
 12 28  1  0
 13 29  1  0
 13 30  1  0
 16 31  1  0
 16 32  1  0
M  END
>  <OMEGA_C>  (3) 
sxSPQFPUu77EeqzBeH+WQDzgZT9bG7HBBM2wQEPzpb8snKvBgHbhQFK3nD4j37PBHyrAQGpToD/J
kbTBn+PZQOYtdr8qZ6/BRs7aQKYYVkAhkaHBNEW1QFvLZkC8/abB6ZXYQCLxRUCXBJbBDqWLQPBZ
WED8QZfBLHasQC1ROEBoWYXBEjXKQIdWKECGMbnB1+C0QCDxckBJDbPBIueNQByGaEBnmqHBqVGw
QKHnREBHEpHBlKRGQPTRWkDAj5LB46v5QOPxOEBbAZHBctYDQa6eDcCnZ67BWBhfQKKXH7+rmanB
RtB4QPNszD9iA7LB8SerQHfnEMCuCqjB5n4AQTJ3Dj/cybbBPRn5QNfxVEApuaXBQXyKQBaHOUDV
DYPB33O6QFxi9D+uIoPB65i9QJjka0C8KYHBmhXtQEi3MUA0/rjBqwS/QE0JKkDKiMHBqHCTQJ1m
eEALt7XBKhnGQPMyl0DZ97TBitYaQJJCaUCQG5jBjDM5QEWlIUAsYo/BwzjaQEVagL/Qo6/BJ2ri
QBmdiT7BA7TB9EOxQNHUp78tqKvBGOOXQE3vZT9CArHBIprBQCJJnj8Qi7TB2CiQQHYKuL48TazB
U8XaQGSOVkBSjqHBFEq1QMNTZ0A+AKfBu5fYQGSAR0D7/ZXB1rWLQDe1WkBmOZfBAX6sQL+JOUAI
VoXBohbMQFK+J0CFA7nBZA61QKW2cUBEGbPBD9qNQOuwaEAboKHBGaOwQPnuS0AB7pDBeYlGQBlh
WkCylJLB+n35QIxGN0AQDZHBTo4yQC0HQ7/oe6bBfWHzQNcB37/aVq/BHf0AQXNRAT+i+7bB0jur
QEfEEcBqG6jB/QF8QN5kzT957LHBYgn5QF2QVEA5uKXBQdSKQGtoQEBn6YLByEG3QLKF7z+zuYPB
wlPAQFPLZkAexYDB/NLuQP3qMUA/X7jB1ZPCQOxwKUDZe8HBzKGTQM4ldEB317XB8ivFQNgVl0B8
H7XBm1YaQJ9qZUAmM5jBQrU7QD5hIUA5NI/BL0/ZQOE1hL8CCbDBULHiQL2xbz7wWLTBL2uwQNGw
pb/2zKvBJiKZQLSscD9cDLHBWibDQFo2nz88jrTBtmCQQKTunL41SazBn5uLQFNGa0BMOqLBNHiz
QCMXaEDn86bBN+iHQD++WkAkv5bBc/DUQMgdSEAEbpbBcp+rQMqnOUBtRoXBxqvPQGTFKEBdf7jB
BRW3QMoKc0CBB7PB7DDYQNSuV0DizKDBaB2tQHsjR0CtBJHBmH/6QMAaOECF1pDBf/dIQP8FXEAF
iJLBMn4zQGZyIr/SCqbBs33xQCf45r/Q+a/B3xkBQet03j6Kg7fBZqGpQAkhEMDcLqjBK6J/QB4g
1T8sB7LB3BhfQEDCeUCB76bBFfPLQMYFK0DVT4LBarafQJoGdEDUW4HBnBaWQFDsA0A/coPBiQ/y
QFXYMUBnALfB3nnJQLPsK0C0JsHBF6WWQF8YdkDobLbBfwTIQIanl0APsbTBqLIJQVobO0CB2ZXB
uwv+QLHkY0BIEovBKeWOQJzFqL5CE63Bh9eYQGpmbz8QYLHBEf2uQNLVp79EJqzBVBvjQIaedz6C
sbPBio3DQMyZnz9oR7TBveDYQNQbhL85qa/BeISLQH53a0AsNaLBrW6zQCaBaEAZ6KbBK9OHQNJN
W0AbtpbB/+LUQF6tSEDNY5bBAsKrQCbFPEClMIXB+IrQQJirKEAoObjBrla3QMD3ckCZ97LBJB7Y
QJwfWED5wKDB+hetQLJUSECR9pDBY3j6QDDzN0Bl15DBcsZIQKxFXEAPgJLBKwgCQUjJF8AE2q7B
7U9dQGvWC79DfarBgLt/QCSn1T9jdrLBGoCnQCGvEcDXwKjBLKYBQVrp5j66WrbB2+ZeQNJ7eUBW
76bBERrMQCReLkCOOILBOgWgQErbd0BFaYHBFyaWQL2DB0B0NIPB4sLyQNDaMUAngrbBDkPLQARi
K0DE6sDB+QWXQAsOdUBFcrbBXwTIQAm7l0CwqbTBxKQJQSR2OkDR4ZXBNFb+QLqtY0CdFIvB8KiK
QFoQb0CmvJXBLhSNQHbdd0Bh86DBM/6uQBp4VUAf3o/Be+bYQKoNUkC2UqDBjBu0QKxqaEAVWKbB
agbWQPRdRkAyL5XBuE3NQHDViz1dTrvBEWjEQM/djz9glbTBFozBQJPupL/12bfBOVimQLqZoL5b
cqfBo6OhQJzEMsCh16nBZ2u1QABVakDYnLLBgtzRQCa/IkD/sbfBNDexQFYdZD8gm6rBJvmsQIZ3
ub8p8K3BfdKTQKzC2L56Wp3BzcLJQBRmD8CFrr3B1X0DQZJhIEBcYI3BYthZQG/0e0Ddo5HBPBJi
QCQ7hUDybqXBCOmsQFtxTUBLTYfB0Ev3QP7xSUDOTqTBqZLcQAgbbz6M8cLBv+KRQJWBLMAGA6LB
6sCLQKNPUsDRfq/Bf92+QNBkWcDu+qjBs46UQCKxYkBAnrXBlA7CQOFrlECYJLXBQBvzQBezLECy
FbXBRQHQQFaSKEDtc8DBIcaRQK8/9z7DAprBZwptQEzbUL+RC57B

>  <OMEGA_E>  (3) 
8FZHPnCJSD5Gdxs/XPMbP8wbjD8=

>  <OMEGA_NBR>  (3) 
     33374

$$$$
50145434
     RDKit          3D

 40 42  0  0  0  0  0  0  0  0999 V2000
    8.0298   -0.3484  -21.4987 C   0  0  0  0  0  0  0  0  0  0  0  0
    4.3618   -4.6830  -19.3530 C   0  0  0  0  0  0  0  0  0  0  0  0
    7.5184   -1.5078  -20.8958 C   0  0  0  0  0  0  0  0  0  0  0  0
    7.1516    0.5983  -22.0512 C   0  0  0  0  0  0  0  0  0  0  0  0
    4.3689   -3.2561  -19.7512 C   0  0  0  0  0  0  0  0  0  0  0  0
    5.2392   -0.7241  -21.3145 C   0  0  0  0  0  0  0  0  0  0  0  0
    5.5910   -5.2140  -19.6687 C   0  0  0  0  0  0  0  0  0  0  0  0
    6.1235   -1.7123  -20.8233 C   0  0  0  0  0  0  0  0  0  0  0  0
    5.7495    0.4459  -21.9198 C   0  0  0  0  0  0  0  0  0  0  0  0
    5.6112   -2.9763  -20.2766 C   0  0  0  0  0  0  0  0  0  0  0  0
    6.6474    3.1586  -20.2299 C   0  0  0  0  0  0  0  0  0  0  0  0
    5.4293    3.2967  -20.8660 C   0  0  0  0  0  0  0  0  0  0  0  0
    6.7378    3.4616  -18.8021 C   0  0  0  0  0  0  0  0  0  0  0  0
    4.4012    4.1205  -18.9006 C   0  0  0  0  0  0  0  0  0  0  0  0
    5.6424    4.3331  -16.7228 C   0  0  0  0  0  0  0  0  0  0  0  0
    4.7870    1.4774  -22.5103 C   0  0  0  0  0  0  0  0  0  0  0  0
    5.2765    2.9401  -22.3338 C   0  0  0  0  0  0  0  0  0  0  0  0
    4.3093    3.7742  -20.1724 N   0  0  0  0  0  0  0  0  0  0  0  0
    6.3013   -4.1669  -20.2049 N   0  0  0  0  0  0  0  0  0  0  0  0
    5.6100    4.0006  -18.1676 N   0  0  0  0  0  0  0  0  0  0  0  0
    3.2538    4.6198  -18.2924 N   0  0  0  0  0  0  0  0  0  0  0  0
    7.7922    3.2562  -18.2092 O   0  0  0  0  0  0  0  0  0  0  0  0
    9.0965   -0.1843  -21.5378 H   0  0  0  0  0  0  0  0  0  0  0  0
    3.5384   -5.2121  -18.8963 H   0  0  0  0  0  0  0  0  0  0  0  0
    8.1932   -2.2450  -20.4865 H   0  0  0  0  0  0  0  0  0  0  0  0
    7.5493    1.4509  -22.5815 H   0  0  0  0  0  0  0  0  0  0  0  0
    3.5487   -2.5611  -19.6483 H   0  0  0  0  0  0  0  0  0  0  0  0
    4.1719   -0.8641  -21.2267 H   0  0  0  0  0  0  0  0  0  0  0  0
    5.9247   -6.2312  -19.5262 H   0  0  0  0  0  0  0  0  0  0  0  0
    7.5189    2.8321  -20.7780 H   0  0  0  0  0  0  0  0  0  0  0  0
    4.6674    4.7411  -16.4180 H   0  0  0  0  0  0  0  0  0  0  0  0
    5.8570    3.4239  -16.1421 H   0  0  0  0  0  0  0  0  0  0  0  0
    6.4271    5.0810  -16.5363 H   0  0  0  0  0  0  0  0  0  0  0  0
    4.6726    1.2740  -23.5852 H   0  0  0  0  0  0  0  0  0  0  0  0
    3.8123    1.3721  -22.0114 H   0  0  0  0  0  0  0  0  0  0  0  0
    4.5451    3.6208  -22.7938 H   0  0  0  0  0  0  0  0  0  0  0  0
    6.2495    3.0552  -22.8339 H   0  0  0  0  0  0  0  0  0  0  0  0
    7.2460   -4.2617  -20.5189 H   0  0  0  0  0  0  0  0  0  0  0  0
    2.5048    4.6358  -18.9548 H   0  0  0  0  0  0  0  0  0  0  0  0
    3.0039    4.0345  -17.5210 H   0  0  0  0  0  0  0  0  0  0  0  0
  1  3  2  0
  1  4  1  0
  2  5  1  0
  2  7  2  0
  3  8  1  0
  4  9  2  0
  5 10  2  0
  6  8  2  0
  6  9  1  0
  7 19  1  0
  8 10  1  0
  9 16  1  0
 10 19  1  0
 11 12  2  0
 11 13  1  0
 12 17  1  0
 12 18  1  0
 13 20  1  0
 13 22  2  0
 14 18  2  0
 14 20  1  0
 14 21  1  0
 15 20  1  0
 16 17  1  0
  1 23  1  0
  2 24  1  0
  3 25  1  0
  4 26  1  0
  5 27  1  0
  6 28  1  0
  7 29  1  0
 11 30  1  0
 15 31  1  0
 15 32  1  0
 15 33  1  0
 16 34  1  0
 16 35  1  0
 17 36  1  0
 17 37  1  0
 19 38  1  0
 21 39  1  0
 21 40  1  0
M  END
>  <OMEGA_C>  (4) 
DnoAQVBbsr5X/avBnJOLQBTblcD60prBfpbwQIH/wL+aKqfBotnkQGgnGT/CaLDB9M2LQPxjUMCC
Ap7BLKenQJRdOb8QhKrBcOmyQMLYpsBqWZ3B5PPDQCgs278XlqbBQvy3QMtK5D6sW6/BFo+zQEd8
PsCQNqLBmLfUQNclSkDl1qHBMr2tQPb8UkCU7abB8pvXQKyLXUCmapbBwNaMQAHbg0BiNJfBWI60
QAKpikBLyIXB8C6ZQGEavT8JFbTBSNmoQG0qPECzq7LBbOWJQLmMcUASYaHBoKTJQG1XhcC2o6HB
doWzQK8EgEBQV5HB1D1QQEDVk0DQVpLB8ln5QIdlUEB7rJHBeIsRQeS4PL5mTazBAXViQCLJpsC4
K5fBXBcDQXGuD8Br5KPBmZPxQBq3uT/YprTBix1jQNHoI8CiL53B83+FQL0zXb9Y0KnBd5e9QLhl
x8CVNZzBvZrwQMFANUBCOabB+lqVQAu3l0ASWIPBW2y7QMogW0AJI4HBFavNQOeXokBXSoTBAYaV
QLsRoz+RrrzBBfxzQKCgrz9uF7DBPXGRQJa7Z0C8WbbBFPzHQI6IQ0C/q7bBot/nQJ9fiMCpJqTB
Yk8gQEJYlECHo5fB4j9AQIkagUARK4zBFCotQLjIvj4+NqnBqzeeQOWtk8BTeZfBmLlCQDiEXL+g
h6TBNApsQIHdjz8kl67BFJONQEyXTsDEhZfBlDqrQAQFFr8hk6rBsC2vQMTYm8CBbaHBhW+LQKnL
rb9AeaXBChehQCUCLz+azK7Bf/SVQN1VLMBMcqHBshbgQBupb0DJuqDBIxm8QO+ZWkAPhqbBnS3b
QEGzgkAHX5XBV9yOQELkbED3cpfB4RyrQGKvi0BHaoXB31PEQA0hwj/WCrTBQNu/QJkYQ0CbTLLB
apCTQGT9WUDRqaHBPQaqQIKzbMCRC6fB9+CxQLuVgkAM8JDBdVlLQGc/aEDbO5PBlPz6QAbVi0C/
GJDBtcbYP75YPj8orqjBZjidQESxqcBp0ZDB+vgSQKertr9qOaDBD31aQCGrAkDzlLLBgn97QPiW
LsAm95DB9HDLQPHSd7/wP6vBJG69QLFIucBGOKTBhkD/QDcqcEDhdqTBLbyIQMkHikDtkYPBXmq8
QOnEZ0DplYDBPy63QFvkq0DTioPBqEXjQDksmT88uLDBGsXDQIHxqD8Es7zBygejQPKNWUBcf7bB
bjfcQIUGY0D1prXB9Ay0QKOFZcDUlq7B9nciQPxRVkB095jBUihKQHVvPUAGSo3BgdouQOJazT5A
6anB18atQPOumsBC4p/BZqREQA1/V78baaXBNLFtQGKolT9sIq/B6WmrQNJcbMD3aqfBGUGsQA5m
C7/0VqvBeWKbQFT3jcD2ZZbBsHKMQEmDqr8nZabBVfqhQIcTPD9IX6/BqAGXQIs9KsCBOaLBkEvg
QC1kcUBvuKDBnWe8QB3RXECClKbBRETbQFOWgkBnT5XBEgmPQG8QbEDJeZfBJxSrQMvxiUBSU4XB
4SjFQGJZyz+larTB8FPAQGdYR0D9abLBj9iTQCHhWkBMvKHBreKNQKVbScB6L5jBGPOxQI7YgUAk
5JDBTrFLQGo/ZkABSZPB1/76QAh6i0Dh+o/Bf+TbP5MSRD8XXKnB0nm7QDK3ucB5iaHB6uwUQCHC
tb/JNKHBbQlcQBghBkBh/LLBZ3+3QO00a8Ddgq/B8obMQLa4a7+yCqzBBDyYQLVkoMCoIY/BB3n/
QL3uckB+caTBTLSIQFLsh0DZf4PBa4K8QCi2Y0CRnYDBAvC2QC8QqkBASIPBrRfkQGQJoj+4GrHB
B9jEQPEqtT85G73Br3OjQFkaXkC8kLbB3ZjcQO07aEAmq7XB+FZ9QCK/JsByopLBxPciQMUCVUB2
EZnByrRKQE55OkBLc43BSUcCQUd4o759FKvBn+yoQCrDnMBgUpjBmYL0QLKSvb8HMqbB/FToQGWa
FT+8B7DBvAXAQDvJZsBflZjBqMKrQHeMUr8UJqvByLiUQJ7bocDBBaLBR0HIQExc4L9thKbBLIO7
QA7Dwj4Ej6/BTw64QP+AQcBYW6LBzVfVQFv7R0C3tqHBUHKuQPRGTkDn5qbBD4LXQBdrW0C2SJbB
ZjqMQPmygEAtQpfBpRWzQGSiiEDmvIXBR0ycQLKvsj95WLTB5oWqQK3DN0APsrLBbPeJQE/kakAK
cKHBQy6eQPugesDarqfBF8ayQB3ne0B8TJHBGttNQOW9j0B5e5LBsD35QDQnUEAedpHBVkMTQSrQ
9r13CKvBZxWoQN71ssD3s5HBOAEFQXJ9CsCwNKLBNPH0QLyRuD8UO7TBJo7TQPOATMASQpLBHtyJ
QKsDhL9lUavB1ZqBQPizvMC0n6TBLLrxQNP9NECVCKbBD3KTQPzSlECyX4PBx5S6QJJ9V0CMEoHB
/3fLQEZBoUDyMITB3piZQPUumj8n/LzBibV5QBsBoT8njLDB8LaSQNpGYkAiaLbB7sXJQNxGQUA7
kbbBjCWTQFPgb8A1Eq/B8UkeQDKTj0Cb1ZfBEG0+QPW3eUB5UYzB

>  <OMEGA_E>  (4) 
kHtkPyRvQj+KhT0//tltPw==

>  <OMEGA_NBR>  (4) 
     13175

$$$$
