50198747
     RDKit          3D

 45 47  0  0  1  0  0  0  0  0999 V2000
    6.5781   -0.4495  -22.0908 C   0  0  0  0  0  0  0  0  0  0  0  0
    6.4874    0.9409  -21.8895 C   0  0  0  0  0  0  0  0  0  0  0  0
    5.8224   -1.3318  -21.2988 C   0  0  0  0  0  0  0  0  0  0  0  0
    1.2606   -3.1102  -16.8513 C   0  0  0  0  0  0  0  0  0  0  0  0
    2.1671   -2.6508  -17.8114 C   0  0  0  0  0  0  0  0  0  0  0  0
    4.8665    0.5715  -20.1186 C   0  0  0  0  0  0  0  0  0  0  0  0
    2.6565   -5.0810  -16.5907 C   0  0  0  0  0  0  0  0  0  0  0  0
    5.6048    1.4709  -20.9166 C   0  0  0  0  0  0  0  0  0  0  0  0
    4.9776   -0.8135  -20.2918 C   0  0  0  0  0  0  0  0  0  0  0  0
    1.5098   -4.3417  -16.2322 C   0  0  0  0  0  0  0  0  0  0  0  0
    3.3073   -3.4346  -18.1346 C   0  0  0  0  0  0  0  0  0  0  0  0
    6.7546    3.3625  -19.7457 C   0  0  0  0  0  0  0  0  0  0  0  0
    4.1178    3.4293  -18.6757 C   0  0  0  0  0  0  0  0  0  0  0  0
    4.2807   -2.9260  -19.1179 C   0  0  0  0  0  0  0  0  0  0  0  0
    5.2877    3.2239  -17.7327 C   0  0  0  0  0  0  0  0  0  0  0  0
    5.5457    2.9827  -20.6409 C   0  0  1  0  0  0  0  0  0  0  0  0
    5.5597    3.7916  -21.9642 C   0  0  0  0  0  0  0  0  0  0  0  0
    7.7552    3.6887  -17.4823 C   0  0  0  0  0  0  0  0  0  0  0  0
    3.5259   -4.6277  -17.5248 N   0  0  0  0  0  0  0  0  0  0  0  0
    6.5862    3.5187  -18.3633 N   0  0  0  0  0  0  0  0  0  0  0  0
    4.2597    3.3558  -19.9790 N   0  0  0  0  0  0  0  0  0  0  0  0
    2.8412    3.5579  -18.1526 N   0  0  0  0  0  0  0  0  0  0  0  0
    4.1851   -1.5812  -19.4490 N   0  0  0  0  0  0  0  0  0  0  0  0
    7.8636    3.4980  -20.2540 O   0  0  0  0  0  0  0  0  0  0  0  0
    5.1774   -3.6512  -19.5355 O   0  0  0  0  0  0  0  0  0  0  0  0
    0.4009   -4.9526  -15.0352 Cl  0  0  0  0  0  0  0  0  0  0  0  0
    7.2312   -0.8402  -22.8571 H   0  0  0  0  0  0  0  0  0  0  0  0
    7.0955    1.6088  -22.4816 H   0  0  0  0  0  0  0  0  0  0  0  0
    5.8872   -2.3979  -21.4589 H   0  0  0  0  0  0  0  0  0  0  0  0
    0.3880   -2.5288  -16.5929 H   0  0  0  0  0  0  0  0  0  0  0  0
    2.0016   -1.7046  -18.3050 H   0  0  0  0  0  0  0  0  0  0  0  0
    4.2030    0.9588  -19.3595 H   0  0  0  0  0  0  0  0  0  0  0  0
    2.8453   -6.0293  -16.1095 H   0  0  0  0  0  0  0  0  0  0  0  0
    5.1599    3.8868  -16.8642 H   0  0  0  0  0  0  0  0  0  0  0  0
    5.2893    2.1763  -17.3973 H   0  0  0  0  0  0  0  0  0  0  0  0
    5.5167    4.8671  -21.7376 H   0  0  0  0  0  0  0  0  0  0  0  0
    6.4833    3.5706  -22.5192 H   0  0  0  0  0  0  0  0  0  0  0  0
    4.6889    3.5106  -22.5748 H   0  0  0  0  0  0  0  0  0  0  0  0
    7.4177    3.7947  -16.4407 H   0  0  0  0  0  0  0  0  0  0  0  0
    8.4095    2.8086  -17.5677 H   0  0  0  0  0  0  0  0  0  0  0  0
    8.3113    4.5895  -17.7809 H   0  0  0  0  0  0  0  0  0  0  0  0
    3.4689    3.5595  -20.5561 H   0  0  0  0  0  0  0  0  0  0  0  0
    2.0512    3.5931  -18.7647 H   0  0  0  0  0  0  0  0  0  0  0  0
    2.7098    3.6156  -17.1629 H   0  0  0  0  0  0  0  0  0  0  0  0
    3.4302   -1.0905  -19.0141 H   0  0  0  0  0  0  0  0  0  0  0  0
  1  2  2  0
  1  3  1  0
  2  8  1  0
  3  9  2  0
  4  5  2  0
  4 10  1  0
  5 11  1  0
  6  8  2  0
  6  9  1  0
  7 10  2  0
  7 19  1  0
  8 16  1  0
  9 23  1  0
 10 26  1  0
 11 14  1  0
 11 19  2  0
 12 16  1  0
 12 20  1  0
 12 24  2  0
 13 15  1  0
 13 21  2  0
 13 22  1  0
 14 23  1  0
 14 25  2  0
 15 20  1  0
 16 17  1  6
 16 21  1  0
 18 20  1  0
  1 27  1  0
  2 28  1  0
  3 29  1  0
  4 30  1  0
  5 31  1  0
  6 32  1  0
  7 33  1  0
 15 34  1  0
 15 35  1  0
 17 36  1  0
 17 37  1  0
 17 38  1  0
 18 39  1  0
 18 40  1  0
 18 41  1  0
 21 42  1  0
 22 43  1  0
 22 44  1  0
 23 45  1  0
M  CHG  1  21   1
M  END
>  <OMEGA_C>  (1) 
0n/SQDwh5r7uubDBjZjPQC3gcD+xHa/BBlG6QJV3qr/bY6rBglyhPzcOR8B7z4bBeLIKQIOmKcDH
fY7BerqbQBdQEj/a8qDBqQQqQHGXosCwuYTBRVqzQHxHvD8kVafBWkifQO1CUL+XVaLBxj/BPx7v
isCJ24HBKKpTQI7QW8C6E5HB1yXYQB8zV0BI953By8SDQIZ5W0DNZ5XBWfuIQEtEO8CF8ZjBgDSp
QKJUTkCi3I3BZHaxQMDkPkCjIKXBz+ixQKCpckC0tq/BZir4QO0SbECx24vBPahhQIEWlMDJMozB
9cHSQKoyYUAL6JLBwk+IQB3GVkDp1J/BwdU1QDG1Y0B9OJHBr+yFQGFmyr+hl5vB36L7QB7fX0BJ
CKLBF62lQKGtacCzSJzBYzzNPlN7nsAhkHDB4WXnQLoVV79W27bBiA7jQIzrzT9D2rPB5WO8QJ12
GcDfq6vB0qfGPlvXIcAvvoTBgBkAQJMv2r+5cJLByH6GQEF1dT9b4JrB8xg2QPHvwMBO4IDB2x2l
QKTAeEDr6YbBMEKpQGNIC0DDLYvBz4iwQKm/m0CQ5q3BcnfPQESEZEBKJ7TBeguWQKmtYEAombTB
cl3tQA7dckCZhoPBf40GQQjAM0CgiozBSPsEQQ7dkkBJP47BXQJeQNjOY0DmcqTBx0YDQB31ZUAh
HpbBnW0tQGRmZ0CtTYnB84dbQBKWi7/NHJjBiRrSQCSL5b4av7DB/EfPQEgncT/tJa/BJsm5QNjQ
qb8baqrB8OYmQK8spMC2d4TBsr5hQFm5lcCQHYzBJZebQP7pEz8w66DBYWSoP0X/RsBciYfBgEWz
QOCuvD8IUafBqbSeQCJbTr/wXaLB0Yy+P0G2isBrJ4LBaKxTQH/lW8B7N5HBHmzYQPUcVkCi253B
tx2EQMxrW0DIT5XBvheJQAQ5OsDd8pjBEF+pQDQ2S0Dmzo3Bp7SxQK38PkCFEKXBXn+yQIwec0D2
nq/Bp1n4QK7paECNt4vBKqYNQNeZK8Aa247Bk/3SQNeMXkD+yJLBlp2IQORiV0Cav5/B4sk2QDzm
ZEDAFpHBUqiEQFLFyb9py5vBv/f7QCTrXkAq46HBsVenQL48ZsAv65vBQG+mPpCPm8DaV3HBjwfn
QDl6V7823LbBqp3iQDzlzT+q7bPB/MW7QA4oGcBLsKvBrX0wQMpYwsCubYDBE56MQFjAqMDNF47B
nqqGQDmedz/gyZrB/o3mPn4VIMB/yIXBc4OlQJG/c0CprYbBtASpQFh0B0Dda4vBRFmxQDD0m0Bd
xa3BGBHQQCOyZECtCrTBraOWQOS3YUBrirTBnYftQJhzbkArX4PBX7oGQffvMECrhIzBEv0EQVqL
kUDj+43B6sReQLpHZUA1WqTBqi8EQHmKaEA395XBDZ0uQCYZaEAcKonB8ZFWQAaHjb+3spjB/iDM
QNRh3r77xrLBB/LMQJLKbz/GLbDBaySzQKT7qb9Qu6zBrid/PzsFbsAcx4rBJR/tP8muL8DFFI/B
wvCbQHJzAz9uZqHBKPo9QHSfncDawYTBibazQIpkuD/0pKfBLe2bQMpPXL9+2KPBVjXIP86DmsDw
loXBuxVQQLA6OcD+643B1uvYQP9FUUBK/JzBQwmEQIbBUUCpTpXBEoWEQCrz8r/IyJLBryynQLqY
M0AGz43Ba7WzQJvvPEDQ36TB2zS3QL7mdEAwKa/Bm1n0QKpZWkCiLorBxRtyQA/xfcBfz4jBhu3R
QAplSUAK8pHBRCWKQBN8VUB3uZ/BSsA3QGFdY0ATJpHBskiDQBsP4b+85p3BRr77QHWAaUARY6DB
YHmfQO6aqr+VP43BOnQKPx5twsDgPIDBQcPeQND1TL8PcLnB+PLgQOsNzj/muLTBmMmxQMHRF8B/
6a7BjUKavVKHZ8D+cIvB2Sa5P6Hj8b8GPZPBZpCJQKegXj8IqZrBUdJZQFEFucAVzoDBB82iQNdT
UkCd94XBtOOkQCpx2z/E5ozBOB+3QEGBnEAd76zBdiTVQHmgZUDIYLPB/NKbQKOMZ0DJbrTBiy7o
QMSFUEA+BILBRZgHQfRhLkBbq4vB62b/QKpojkAfEIvBqj1kQO54aUCCYaTBkI4HQLrFckAuDJbB
Tv4tQHapYEDeP4nBKDpeQNdWFsA77qHB

>  <OMEGA_E>  (1) 
AAAAANDHQT5Y0eE+

>  <OMEGA_NBR>  (1) 
      2635

$$$$
50198749
     RDKit          3D

 45 47  0  0  1  0  0  0  0  0999 V2000
    5.9125   -0.3876  -22.4782 C   0  0  0  0  0  0  0  0  0  0  0  0
    6.3588    0.8645  -22.0037 C   0  0  0  0  0  0  0  0  0  0  0  0
    5.1620   -1.2385  -21.6434 C   0  0  0  0  0  0  0  0  0  0  0  0
    0.9582   -3.7526  -17.4580 C   0  0  0  0  0  0  0  0  0  0  0  0
    1.8995   -3.1484  -18.3035 C   0  0  0  0  0  0  0  0  0  0  0  0
    5.2805    0.4226  -19.8690 C   0  0  0  0  0  0  0  0  0  0  0  0
    2.7739   -5.0400  -16.4838 C   0  0  0  0  0  0  0  0  0  0  0  0
    6.0821    1.2720  -20.6724 C   0  0  0  0  0  0  0  0  0  0  0  0
    4.8351   -0.8203  -20.3383 C   0  0  0  0  0  0  0  0  0  0  0  0
    1.4027   -4.7107  -16.5340 C   0  0  0  0  0  0  0  0  0  0  0  0
    3.2632   -3.5267  -18.2157 C   0  0  0  0  0  0  0  0  0  0  0  0
    5.5492    3.7539  -20.4548 C   0  0  0  0  0  0  0  0  0  0  0  0
    5.7786    2.8454  -17.7929 C   0  0  0  0  0  0  0  0  0  0  0  0
    4.2477   -2.8909  -19.1118 C   0  0  0  0  0  0  0  0  0  0  0  0
    4.4078    3.2733  -18.2868 C   0  0  0  0  0  0  0  0  0  0  0  0
    6.5805    2.6340  -20.1244 C   0  0  2  0  0  0  0  0  0  0  0  0
    7.9861    2.9868  -20.6959 C   0  0  0  0  0  0  0  0  0  0  0  0
    3.4871    5.0399  -19.8409 C   0  0  0  0  0  0  0  0  0  0  0  0
    3.6724   -4.4591  -17.3159 N   0  0  0  0  0  0  0  0  0  0  0  0
    4.4949    4.0023  -19.5630 N   0  0  0  0  0  0  0  0  0  0  0  0
    6.7516    2.5609  -18.6350 N   0  0  0  0  0  0  0  0  0  0  0  0
    5.9720    2.6528  -16.4338 N   0  0  0  0  0  0  0  0  0  0  0  0
    4.0127   -1.5762  -19.5073 N   0  0  0  0  0  0  0  0  0  0  0  0
    5.6767    4.4337  -21.4695 O   0  0  0  0  0  0  0  0  0  0  0  0
    5.2877   -3.4757  -19.4019 O   0  0  0  0  0  0  0  0  0  0  0  0
    0.2661   -5.4899  -15.4624 Cl  0  0  0  0  0  0  0  0  0  0  0  0
    6.1476   -0.6949  -23.4865 H   0  0  0  0  0  0  0  0  0  0  0  0
    6.9154    1.5181  -22.6591 H   0  0  0  0  0  0  0  0  0  0  0  0
    4.8394   -2.2051  -22.0013 H   0  0  0  0  0  0  0  0  0  0  0  0
   -0.0868   -3.4863  -17.5166 H   0  0  0  0  0  0  0  0  0  0  0  0
    1.5879   -2.3999  -19.0169 H   0  0  0  0  0  0  0  0  0  0  0  0
    5.0071    0.7403  -18.8737 H   0  0  0  0  0  0  0  0  0  0  0  0
    3.1152   -5.7714  -15.7661 H   0  0  0  0  0  0  0  0  0  0  0  0
    3.7841    2.3783  -18.4288 H   0  0  0  0  0  0  0  0  0  0  0  0
    3.9447    3.9271  -17.5331 H   0  0  0  0  0  0  0  0  0  0  0  0
    8.3144    3.9556  -20.2915 H   0  0  0  0  0  0  0  0  0  0  0  0
    8.7056    2.2063  -20.4072 H   0  0  0  0  0  0  0  0  0  0  0  0
    7.9312    3.0472  -21.7929 H   0  0  0  0  0  0  0  0  0  0  0  0
    2.7551    5.0699  -19.0204 H   0  0  0  0  0  0  0  0  0  0  0  0
    3.9824    6.0183  -19.9262 H   0  0  0  0  0  0  0  0  0  0  0  0
    2.9713    4.8065  -20.7840 H   0  0  0  0  0  0  0  0  0  0  0  0
    7.6396    2.2852  -18.2669 H   0  0  0  0  0  0  0  0  0  0  0  0
    6.8454    2.3001  -16.0981 H   0  0  0  0  0  0  0  0  0  0  0  0
    5.2380    2.8666  -15.7891 H   0  0  0  0  0  0  0  0  0  0  0  0
    3.1819   -1.1375  -19.1649 H   0  0  0  0  0  0  0  0  0  0  0  0
  1  2  2  0
  1  3  1  0
  2  8  1  0
  3  9  2  0
  4  5  2  0
  4 10  1  0
  5 11  1  0
  6  8  2  0
  6  9  1  0
  7 10  2  0
  7 19  1  0
  8 16  1  0
  9 23  1  0
 10 26  1  0
 11 14  1  0
 11 19  2  0
 12 16  1  0
 12 20  1  0
 12 24  2  0
 13 15  1  0
 13 21  2  0
 13 22  1  0
 14 23  1  0
 14 25  2  0
 15 20  1  0
 16 17  1  6
 16 21  1  0
 18 20  1  0
  1 27  1  0
  2 28  1  0
  3 29  1  0
  4 30  1  0
  5 31  1  0
  6 32  1  0
  7 33  1  0
 15 34  1  0
 15 35  1  0
 17 36  1  0
 17 37  1  0
 17 38  1  0
 18 39  1  0
 18 40  1  0
 18 41  1  0
 21 42  1  0
 22 43  1  0
 22 44  1  0
 23 45  1  0
M  CHG  1  21   1
M  END
>  <OMEGA_C>  (2) 
/DK9QDpwxr5D07PBKXvLQPZQXT+pB7DBIS+lQNyHnr+iJa3BF091P/AqcMACqovBWSPzP+V/ScCT
bZLBj/moQLRZ2D7A857BN4gxQLpHocDO3oPBuKDCQJbPoj8kYaXB1biaQGgAUr/ttKLBO42zP669
lsCnRYTBtNhQQN60YcDYuZHBMZOxQF0/cEBxo6PBPuq4QG0bNkDFV47BPu2HQDEEOcAM5ZjBYAyN
QBJ9UUBqS5LBWZPSQLGTKEDc/qDBho7/QCAnP0BJkaXB9ixfQI5GoUAvup7BEglrQEixjsDxhorB
FtaPQHwSgEDxgJzB5gzYQAzmI0B8FJXBQRq/QAvIKUB0eIPBZWiAQLe/yb8ID5zBk6e1QADhjUBz
wavBJzWpQCNyXsAAN5vB5UGIPt6sr8AgZnfB8LjEQO3hMb9M5LvBIUvdQHtPwj/DRbXBU9yaQJcf
DcDAArDBwLWxvegfX8AZIozB4T/LP4eXGcChIpjBOjqgQC6DPT9E/ZbB0V5HQGevuMAkQnzB5S5y
QGk2GEAfbpPBRnZ8QAtVe0C/Q4zByQcFQbcofUD1VKLBGEoLQac0DUAMQqPBlMz9QKkEQ0DfV67B
3VIwQGw8okDYKZjBdt9+QEyWwEDiaJ/BjCk+QCLPmUCxRabBR3f0QHxBEkClIpLBag3bQFU1E0Dh
yIDB0Z2nQGx2N0A6oHzBTKRLQOSYkb+7UZnBBFnJQM6m9L6pTbHBMmrKQATmZj9oCK/BRGexQB/s
rL960arBgtd2PwQPcMAblorBQ/PyP9NLScBFa5HByzydQOomBj/oeZ/BWkEvQLQFp8CYZITBeKGz
QBoBtz/ZLqbBi1ebQJisWL/x0aHBjz6yPy2mmcCZ+IPByR1PQKddZ8Cvi5HBfJaYQNHcWECPNJrB
BlXvQPvWh0DVK5vBoCOHQBfxPsCytJjB0rDOQF0Uo0DuZJXBeIK1QNS6PEBu06PBjtSmQOZ0cEBe
ya3BqjqNQFuVmEA3zonBNihoQI9YlMB6GIvBkCOoQGAkikAMy5LBmW/jQHTiUUDSp6HBiz4NQbcE
kUBA9pnBV52BQE9/0b9UOJvBKzNmQJyFQUCAspnBRAenQG8jZ8BIdpvB7IqJPoPHssDWqXbBQ/za
QDjmXb/vDLjBacbcQDcwyD/wFbTBeOWvQErUGcDQtqzBVFN/vZagWsBGa4rBudnMPyX9FMBXipbB
d0+NQN7SZT9QapjB2UxEQI+8wMBWgn7BF+jcQMU/r0Dc8I3Bj6jFQAEovkBAi5rBrFKoQPmpmkBT
AKzBnwG8QDDoYUCjk7TBssOFQPy+XkBL1q/ByiSfQPzCr0Av7YTB0TJgQJDZp0A38YzBuVmEQEnS
eUAo14TBQRj6QJpoL0DQTqXBCiwYQbwqgEDoAp7Bk98RQbp8qEBnCpXBT6RQQPaKl79c65fBduu9
QHEEkb5/WrLBZ53OQC/9Zz+K8K3BTuWkQBvxkr9DBqzBJDhyP6IVccBqF4vBDc7xP5NyScBAwJHB
kFqsQPe0wj7Y8JzB3UouQDrZpsBkooTB/2LGQHmGnz8uH6PBMQecQEHzTr8jTKHBrmqvPwQJmsCg
bYTBZexOQCBRZsAZrpHB25DJQLYBckAviKTBuzunQB65TkB2LpDBnQaHQCNYPMC6tZjB2YCJQENo
cECXzJjBEa7ZQGMTIkBSPp7BzqAFQRvRG0CibJ7BZwiQQESer0C9j6fBodtnQD68k8BGMIvBOuGi
QLYVjEAPaqHBeXnMQFYDLUCGxJLBTRKaQAx6T0A7loXBVWSBQBJXy78s65rBCwnfQP5GiEDM0avB
tOumQN59Y8D8tJvByYFsPvims8AVBHjB1FfEQNgMCL+Dm7rBYdDhQDkIyD9R17LBmZCYQN88BMBr
Xq/BHrytvUGAXMD2FovB+/nLPwVFFcCX5pbBXvikQGaOIz/8wZTBeyhDQAl2wMDq537BVD9tQI4w
O0AxGpzBB6hnQEQxkEC2UZXBNooMQTdRVkD09JrBC8MKQQkGyD+qtpnBTiYLQRiqFEBsu6bB6eJj
QJzCuUB1w6PBboumQLOrykBGuafBPYuJQBf2pEBEyq/Be2XgQMZJGkAK9ozBKdesQKBxNkCA03/B
ip97QJcNaUDxnoPBFQhQQFuvkb8ao5fB9hC9QFiy0r4qrLPB0brKQLRcXD9OKrDBhQWmQPcHob/L
vqzBl4UjQFGAqsDxvoXBoCNiQC/hmMCegozBZIipQCYX5T4o5J7BkaGiP4ovUsB63YfBJTDCQMug
pT8vkKXBw/qbQO6kUL/nV6LBbAO0P01HksC8b4PBfnpVQACyXsAtyJDBvY2vQPMncUB7PqTB7jS4
QLJSO0BazY7B4xaKQBfkN8BwMpjB1uyLQMYLVEAEvZLBr2LRQJdiK0DIeKHBYPT9QIXQQkC5N6bB
WstZQHXPoEDAa5/B9AQOQFbmMMDIV47BuOiNQFyAgED7E53BFVHXQBo7KUDPjZXBzNu+QMkvMUBC
6YPBfKyCQLSZx79wZZvBAuayQIaljUB7fqzB73KqQAjOXsDD6prBjI8dPg7jpsAHYXbBJFHEQF7R
PL8btbvBV9HbQGk+wT+Jl7XBySGcQEZID8AeY6/BZ70rQHESysBmYoLBSp6NQEHHqsA2bo7BQv+g
QD2SSD9V9pbB2vjHPjfXLMCNDIbBcSdxQJm3GUCTrZPB/qV5QCNHfkCYy4zB4fsDQb/ogEBVMaPB
BcYKQfY5EkAS0aPBhNX7QP7tREBq/67Bc2ErQOnooUBZz5jBpyB4QHZewEAcU6DBtZA4QDNKmEB7
4abB6AX0QGZvGUAnn5LBMh/bQB1EHECkOIHB0WSnQInLPkAyfX3BaGpRQOPyjb+wapjB

>  <OMEGA_E>  (2) 
zjdRP7rzVT8QGlg/erpbPw==

>  <OMEGA_NBR>  (2) 
      9316

$$$$
50198753
     RDKit          3D

 45 47  0  0  1  0  0  0  0  0999 V2000
    5.9125   -0.3876  -22.4782 C   0  0  0  0  0  0  0  0  0  0  0  0
    6.3588    0.8645  -22.0037 C   0  0  0  0  0  0  0  0  0  0  0  0
    5.1620   -1.2385  -21.6434 C   0  0  0  0  0  0  0  0  0  0  0  0
    0.9582   -3.7526  -17.4580 C   0  0  0  0  0  0  0  0  0  0  0  0
    1.8995   -3.1484  -18.3035 C   0  0  0  0  0  0  0  0  0  0  0  0
    5.2805    0.4226  -19.8690 C   0  0  0  0  0  0  0  0  0  0  0  0
    2.7739   -5.0400  -16.4838 C   0  0  0  0  0  0  0  0  0  0  0  0
    6.0821    1.2720  -20.6724 C   0  0  0  0  0  0  0  0  0  0  0  0
    4.8351   -0.8203  -20.3383 C   0  0  0  0  0  0  0  0  0  0  0  0
    1.4027   -4.7107  -16.5340 C   0  0  0  0  0  0  0  0  0  0  0  0
    3.2632   -3.5267  -18.2157 C   0  0  0  0  0  0  0  0  0  0  0  0
    5.5492    3.7539  -20.4548 C   0  0  0  0  0  0  0  0  0  0  0  0
    5.7786    2.8454  -17.7929 C   0  0  0  0  0  0  0  0  0  0  0  0
    4.2477   -2.8909  -19.1118 C   0  0  0  0  0  0  0  0  0  0  0  0
    4.4078    3.2733  -18.2868 C   0  0  0  0  0  0  0  0  0  0  0  0
    6.5805    2.6340  -20.1244 C   0  0  2  0  0  0  0  0  0  0  0  0
    7.9861    2.9868  -20.6959 C   0  0  0  0  0  0  0  0  0  0  0  0
    3.4871    5.0399  -19.8409 C   0  0  0  0  0  0  0  0  0  0  0  0
    3.6724   -4.4591  -17.3159 N   0  0  0  0  0  0  0  0  0  0  0  0
    4.4949    4.0023  -19.5630 N   0  0  0  0  0  0  0  0  0  0  0  0
    6.7516    2.5609  -18.6350 N   0  0  0  0  0  0  0  0  0  0  0  0
    5.9720    2.6528  -16.4338 N   0  0  0  0  0  0  0  0  0  0  0  0
    4.0127   -1.5762  -19.5073 N   0  0  0  0  0  0  0  0  0  0  0  0
    5.6767    4.4337  -21.4695 O   0  0  0  0  0  0  0  0  0  0  0  0
    5.2877   -3.4757  -19.4019 O   0  0  0  0  0  0  0  0  0  0  0  0
    0.2661   -5.4899  -15.4624 Cl  0  0  0  0  0  0  0  0  0  0  0  0
    6.1476   -0.6949  -23.4865 H   0  0  0  0  0  0  0  0  0  0  0  0
    6.9154    1.5181  -22.6591 H   0  0  0  0  0  0  0  0  0  0  0  0
    4.8394   -2.2051  -22.0013 H   0  0  0  0  0  0  0  0  0  0  0  0
   -0.0868   -3.4863  -17.5166 H   0  0  0  0  0  0  0  0  0  0  0  0
    1.5879   -2.3999  -19.0169 H   0  0  0  0  0  0  0  0  0  0  0  0
    5.0071    0.7403  -18.8737 H   0  0  0  0  0  0  0  0  0  0  0  0
    3.1152   -5.7714  -15.7661 H   0  0  0  0  0  0  0  0  0  0  0  0
    3.7841    2.3783  -18.4288 H   0  0  0  0  0  0  0  0  0  0  0  0
    3.9447    3.9271  -17.5331 H   0  0  0  0  0  0  0  0  0  0  0  0
    8.3144    3.9556  -20.2915 H   0  0  0  0  0  0  0  0  0  0  0  0
    8.7056    2.2063  -20.4072 H   0  0  0  0  0  0  0  0  0  0  0  0
    7.9312    3.0472  -21.7929 H   0  0  0  0  0  0  0  0  0  0  0  0
    2.7551    5.0699  -19.0204 H   0  0  0  0  0  0  0  0  0  0  0  0
    3.9824    6.0183  -19.9262 H   0  0  0  0  0  0  0  0  0  0  0  0
    2.9713    4.8065  -20.7840 H   0  0  0  0  0  0  0  0  0  0  0  0
    7.6396    2.2852  -18.2669 H   0  0  0  0  0  0  0  0  0  0  0  0
    6.8454    2.3001  -16.0981 H   0  0  0  0  0  0  0  0  0  0  0  0
    5.2380    2.8666  -15.7891 H   0  0  0  0  0  0  0  0  0  0  0  0
    3.1819   -1.1375  -19.1649 H   0  0  0  0  0  0  0  0  0  0  0  0
  1  2  2  0
  1  3  1  0
  2  8  1  0
  3  9  2  0
  4  5  2  0
  4 10  1  0
  5 11  1  0
  6  8  2  0
  6  9  1  0
  7 10  2  0
  7 19  1  0
  8 16  1  0
  9 23  1  0
 10 26  1  0
 11 14  1  0
 11 19  2  0
 12 16  1  0
 12 20  1  0
 12 24  2  0
 13 15  1  0
 13 21  2  0
 13 22  1  0
 14 23  1  0
 14 25  2  0
 15 20  1  0
 16 17  1  6
 16 21  1  0
 18 20  1  0
  1 27  1  0
  2 28  1  0
  3 29  1  0
  4 30  1  0
  5 31  1  0
  6 32  1  0
  7 33  1  0
 15 34  1  0
 15 35  1  0
 17 36  1  0
 17 37  1  0
 17 38  1  0
 18 39  1  0
 18 40  1  0
 18 41  1  0
 21 42  1  0
 22 43  1  0
 22 44  1  0
 23 45  1  0
M  CHG  1  21   1
M  END
>  <OMEGA_C>  (3) 
/DK9QDpwxr5D07PBKXvLQPZQXT+pB7DBIS+lQNyHnr+iJa3BF091P/AqcMACqovBWSPzP+V/ScCT
bZLBj/moQLRZ2D7A857BN4gxQLpHocDO3oPBuKDCQJbPoj8kYaXB1biaQGgAUr/ttKLBO42zP669
lsCnRYTBtNhQQN60YcDYuZHBMZOxQF0/cEBxo6PBPuq4QG0bNkDFV47BPu2HQDEEOcAM5ZjBYAyN
QBJ9UUBqS5LBWZPSQLGTKEDc/qDBho7/QCAnP0BJkaXB9ixfQI5GoUAvup7BEglrQEixjsDxhorB
FtaPQHwSgEDxgJzB5gzYQAzmI0B8FJXBQRq/QAvIKUB0eIPBZWiAQLe/yb8ID5zBk6e1QADhjUBz
wavBJzWpQCNyXsAAN5vB5UGIPt6sr8AgZnfB8LjEQO3hMb9M5LvBIUvdQHtPwj/DRbXBU9yaQJcf
DcDAArDBwLWxvegfX8AZIozB4T/LP4eXGcChIpjBOjqgQC6DPT9E/ZbB0V5HQGevuMAkQnzB5S5y
QGk2GEAfbpPBRnZ8QAtVe0C/Q4zByQcFQbcofUD1VKLBGEoLQac0DUAMQqPBlMz9QKkEQ0DfV67B
3VIwQGw8okDYKZjBdt9+QEyWwEDiaJ/BjCk+QCLPmUCxRabBR3f0QHxBEkClIpLBag3bQFU1E0Dh
yIDB0Z2nQGx2N0A6oHzBTKRLQOSYkb+7UZnBBFnJQM6m9L6pTbHBMmrKQATmZj9oCK/BRGexQB/s
rL960arBgtd2PwQPcMAblorBQ/PyP9NLScBFa5HByzydQOomBj/oeZ/BWkEvQLQFp8CYZITBeKGz
QBoBtz/ZLqbBi1ebQJisWL/x0aHBjz6yPy2mmcCZ+IPByR1PQKddZ8Cvi5HBfJaYQNHcWECPNJrB
BlXvQPvWh0DVK5vBoCOHQBfxPsCytJjB0rDOQF0Uo0DuZJXBeIK1QNS6PEBu06PBjtSmQOZ0cEBe
ya3BqjqNQFuVmEA3zonBNihoQI9YlMB6GIvBkCOoQGAkikAMy5LBmW/jQHTiUUDSp6HBiz4NQbcE
kUBA9pnBV52BQE9/0b9UOJvBKzNmQJyFQUCAspnBRAenQG8jZ8BIdpvB7IqJPoPHssDWqXbBQ/za
QDjmXb/vDLjBacbcQDcwyD/wFbTBeOWvQErUGcDQtqzBVFN/vZagWsBGa4rBudnMPyX9FMBXipbB
d0+NQN7SZT9QapjB2UxEQI+8wMBWgn7BF+jcQMU/r0Dc8I3Bj6jFQAEovkBAi5rBrFKoQPmpmkBT
AKzBnwG8QDDoYUCjk7TBssOFQPy+XkBL1q/ByiSfQPzCr0Av7YTB0TJgQJDZp0A38YzBuVmEQEnS
eUAo14TBQRj6QJpoL0DQTqXBCiwYQbwqgEDoAp7Bk98RQbp8qEBnCpXBT6RQQPaKl79c65fBduu9
QHEEkb5/WrLBZ53OQC/9Zz+K8K3BTuWkQBvxkr9DBqzBJDhyP6IVccBqF4vBDc7xP5NyScBAwJHB
kFqsQPe0wj7Y8JzB3UouQDrZpsBkooTB/2LGQHmGnz8uH6PBMQecQEHzTr8jTKHBrmqvPwQJmsCg
bYTBZexOQCBRZsAZrpHB25DJQLYBckAviKTBuzunQB65TkB2LpDBnQaHQCNYPMC6tZjB2YCJQENo
cECXzJjBEa7ZQGMTIkBSPp7BzqAFQRvRG0CibJ7BZwiQQESer0C9j6fBodtnQD68k8BGMIvBOuGi
QLYVjEAPaqHBeXnMQFYDLUCGxJLBTRKaQAx6T0A7loXBVWSBQBJXy78s65rBCwnfQP5GiEDM0avB
tOumQN59Y8D8tJvByYFsPvims8AVBHjB1FfEQNgMCL+Dm7rBYdDhQDkIyD9R17LBmZCYQN88BMBr
Xq/BHrytvUGAXMD2FovB+/nLPwVFFcCX5pbBXvikQGaOIz/8wZTBeyhDQAl2wMDq537BVD9tQI4w
O0AxGpzBB6hnQEQxkEC2UZXBNooMQTdRVkD09JrBC8MKQQkGyD+qtpnBTiYLQRiqFEBsu6bB6eJj
QJzCuUB1w6PBboumQLOrykBGuafBPYuJQBf2pEBEyq/Be2XgQMZJGkAK9ozBKdesQKBxNkCA03/B
ip97QJcNaUDxnoPBFQhQQFuvkb8ao5fB9hC9QFiy0r4qrLPB0brKQLRcXD9OKrDBhQWmQPcHob/L
vqzBl4UjQFGAqsDxvoXBoCNiQC/hmMCegozBZIipQCYX5T4o5J7BkaGiP4ovUsB63YfBJTDCQMug
pT8vkKXBw/qbQO6kUL/nV6LBbAO0P01HksC8b4PBfnpVQACyXsAtyJDBvY2vQPMncUB7PqTB7jS4
QLJSO0BazY7B4xaKQBfkN8BwMpjB1uyLQMYLVEAEvZLBr2LRQJdiK0DIeKHBYPT9QIXQQkC5N6bB
WstZQHXPoEDAa5/B9AQOQFbmMMDIV47BuOiNQFyAgED7E53BFVHXQBo7KUDPjZXBzNu+QMkvMUBC
6YPBfKyCQLSZx79wZZvBAuayQIaljUB7fqzB73KqQAjOXsDD6prBjI8dPg7jpsAHYXbBJFHEQF7R
PL8btbvBV9HbQGk+wT+Jl7XBySGcQEZID8AeY6/BZ70rQHESysBmYoLBSp6NQEHHqsA2bo7BQv+g
QD2SSD9V9pbB2vjHPjfXLMCNDIbBcSdxQJm3GUCTrZPB/qV5QCNHfkCYy4zB4fsDQb/ogEBVMaPB
BcYKQfY5EkAS0aPBhNX7QP7tREBq/67Bc2ErQOnooUBZz5jBpyB4QHZewEAcU6DBtZA4QDNKmEB7
4abB6AX0QGZvGUAnn5LBMh/bQB1EHECkOIHB0WSnQInLPkAyfX3BaGpRQOPyjb+wapjB

>  <OMEGA_E>  (3) 
zjdRP7rzVT8QGlg/erpbPw==

>  <OMEGA_NBR>  (3) 
     14501

$$$$
50198735
     RDKit          3D

 46 48  0  0  1  0  0  0  0  0999 V2000
    0.3841   -5.2889  -15.5939 C   0  0  0  0  0  0  0  0  0  0  0  0
    6.2647   -0.4792  -22.1584 C   0  0  0  0  0  0  0  0  0  0  0  0
    2.4748   -5.5488  -16.8686 C   0  0  0  0  0  0  0  0  0  0  0  0
    6.2636    0.9040  -21.8888 C   0  0  0  0  0  0  0  0  0  0  0  0
    5.5542   -1.3646  -21.3274 C   0  0  0  0  0  0  0  0  0  0  0  0
    3.4401   -4.9855  -17.7185 C   0  0  0  0  0  0  0  0  0  0  0  0
    4.8958    0.5070  -19.9181 C   0  0  0  0  0  0  0  0  0  0  0  0
    1.3079   -3.4173  -16.8944 C   0  0  0  0  0  0  0  0  0  0  0  0
    1.3925   -4.7528  -16.4532 C   0  0  0  0  0  0  0  0  0  0  0  0
    5.5528    1.4230  -20.7778 C   0  0  0  0  0  0  0  0  0  0  0  0
    4.8720   -0.8673  -20.1949 C   0  0  0  0  0  0  0  0  0  0  0  0
    3.2988   -3.6375  -18.1314 C   0  0  0  0  0  0  0  0  0  0  0  0
    4.6618    3.3701  -19.2932 C   0  0  0  0  0  0  0  0  0  0  0  0
    7.3487    4.2960  -19.4336 C   0  0  0  0  0  0  0  0  0  0  0  0
    4.2836   -3.0143  -19.0398 C   0  0  0  0  0  0  0  0  0  0  0  0
    6.3100    5.1263  -18.7135 C   0  0  0  0  0  0  0  0  0  0  0  0
    5.5718    2.9452  -20.4967 C   0  0  2  0  0  0  0  0  0  0  0  0
    5.0858    3.7308  -21.7458 C   0  0  0  0  0  0  0  0  0  0  0  0
    4.2797    4.7571  -17.2529 C   0  0  0  0  0  0  0  0  0  0  0  0
   -0.4404   -5.7238  -14.8937 N   0  0  0  0  0  0  0  0  0  0  0  0
    2.2445   -2.8867  -17.7117 N   0  0  0  0  0  0  0  0  0  0  0  0
    5.1271    4.3188  -18.3766 N   0  0  0  0  0  0  0  0  0  0  0  0
    6.9988    3.3148  -20.2348 N   0  0  0  0  0  0  0  0  0  0  0  0
    8.6901    4.6187  -19.2911 N   0  0  0  0  0  0  0  0  0  0  0  0
    4.1090   -1.6643  -19.3402 N   0  0  0  0  0  0  0  0  0  0  0  0
    3.5018    2.9721  -19.2195 O   0  0  0  0  0  0  0  0  0  0  0  0
    5.2531   -3.6520  -19.4393 O   0  0  0  0  0  0  0  0  0  0  0  0
    6.8134   -0.8612  -23.0066 H   0  0  0  0  0  0  0  0  0  0  0  0
    2.5619   -6.5739  -16.5401 H   0  0  0  0  0  0  0  0  0  0  0  0
    6.8098    1.5751  -22.5351 H   0  0  0  0  0  0  0  0  0  0  0  0
    5.5304   -2.4202  -21.5545 H   0  0  0  0  0  0  0  0  0  0  0  0
    4.2815   -5.5736  -18.0541 H   0  0  0  0  0  0  0  0  0  0  0  0
    4.4028    0.8757  -19.0308 H   0  0  0  0  0  0  0  0  0  0  0  0
    0.4780   -2.8054  -16.5731 H   0  0  0  0  0  0  0  0  0  0  0  0
    6.7483    5.5255  -17.7870 H   0  0  0  0  0  0  0  0  0  0  0  0
    6.0031    5.9597  -19.3626 H   0  0  0  0  0  0  0  0  0  0  0  0
    5.1047    4.8096  -21.5313 H   0  0  0  0  0  0  0  0  0  0  0  0
    5.7494    3.5145  -22.5960 H   0  0  0  0  0  0  0  0  0  0  0  0
    4.0591    3.4246  -21.9948 H   0  0  0  0  0  0  0  0  0  0  0  0
    4.8229    5.5010  -16.6517 H   0  0  0  0  0  0  0  0  0  0  0  0
    3.3553    5.2067  -17.6446 H   0  0  0  0  0  0  0  0  0  0  0  0
    4.0280    3.8905  -16.6239 H   0  0  0  0  0  0  0  0  0  0  0  0
    7.7186    2.7911  -20.6904 H   0  0  0  0  0  0  0  0  0  0  0  0
    9.3842    4.1058  -19.7963 H   0  0  0  0  0  0  0  0  0  0  0  0
    8.9632    5.3642  -18.6831 H   0  0  0  0  0  0  0  0  0  0  0  0
    3.3418   -1.2106  -18.8869 H   0  0  0  0  0  0  0  0  0  0  0  0
  1  9  1  0
  1 20  3  0
  2  4  2  0
  2  5  1  0
  3  6  2  0
  3  9  1  0
  4 10  1  0
  5 11  2  0
  6 12  1  0
  7 10  2  0
  7 11  1  0
  8  9  2  0
  8 21  1  0
 10 17  1  0
 11 25  1  0
 12 15  1  0
 12 21  2  0
 13 17  1  0
 13 22  1  0
 13 26  2  0
 14 16  1  0
 14 23  2  0
 14 24  1  0
 15 25  1  0
 15 27  2  0
 16 22  1  0
 17 18  1  6
 17 23  1  0
 19 22  1  0
  2 28  1  0
  3 29  1  0
  4 30  1  0
  5 31  1  0
  6 32  1  0
  7 33  1  0
  8 34  1  0
 16 35  1  0
 16 36  1  0
 18 37  1  0
 18 38  1  0
 18 39  1  0
 19 40  1  0
 19 41  1  0
 19 42  1  0
 23 43  1  0
 24 44  1  0
 24 45  1  0
 25 46  1  0
M  CHG  1  23   1
M  END
>  <OMEGA_C>  (4) 
xqvEPgw/qcDNgHnBXXjIQEZX9b5aRLHBK2MeQJaPscDf8obBzm/IQLdpZz9bHK/BqLuxQIOqrr+U
nqrBRCpcQEmJn8CRv43BG6qcQK/IAT9aWJ/B2minP3e0WsDKJ4fBnD6yPywXmMA6oIPBrLCxQIYl
tj8JOabBWeebQH8EXr8rj6HB+x9TQIPMaMA0DZHBui2VQCSwV0CFWJrBsSjrQD15iUAReJvBohOJ
QOzqQMCBUZjBZevJQOcKpEBVtZXBekyyQI19PEBV+aPB676iQDrGbkBO963B+PKIQD86mED0BYrB
BH3hvl4pt8CJTG7BIqUPQF/AOMCRsY3BehGkQNEzikBPA5PBxvXfQEMmVED24KHB2QoLQWjMk0Ai
VJrBVH2DQKQI1b+iuJrBEB1gQDg2PkB9wZnBhhmoQA+6acCog5vBAQfaQGx5XL9tDbjBDPYjQGxd
0sALUoTBCOrZQEqcyT/0R7TByPiwQAnkGsCjb6zBwAGJQCNbssDEbpDBG+SMQE8wYD8AP5jBSb70
Pt6KM8CllYTBMfLXQLrQsECzS47BLhnAQL+1vkCu5prB1VmjQP7nmUAJQKzB3vq3QJntYECNxLTB
2+OBQI8sW0BN9a/BF1WaQJMIsECpNoXBrrxWQP6cpkATKI3BgOWAQFf+eECp/YTBrP72QPqhMkAK
hqXBqCUWQQ5jg0DiXp7BYGkPQWKnq0DpdpXBVeBVQCb0mr9PGJfBCorxPr8oq8CYe3rBkQ+9QHpP
xr7H07PBWuV1P/Hyb8AFo4vBqGDLQJJYXT96CbDBGxelQDJ+nr+NI63BDoLzP7pYScBwZZLBBQCp
QL5V2D6I8Z7BY64xQFVGocC92YPB5bqzPzqzlsDHPoTBGJvCQPvOoj+7YaXBaLaaQEPzUb+GsaLB
zvxQQJ+lYcBUs5HBepKxQKA/cEDwoaPBlAu5QGkXNkAxV47Bc/mHQNf9OMD135jB1yaNQDh4UUCL
RpLBN5bSQPmRKEDzAKHBwon/QMEiP0AymKXBYz1fQNFHoUC3sZ7BgJCVvmnPu8AzHG/BqCprQM2u
jsAmgorBbeKPQEMUgEC5e5zBhCPYQKHkI0AaF5XBEky/QPS/KUCCeIPBMXKAQAiyyb/YCJzBO5m1
QLXgjUB3wKvBkDqpQIp1XsCDNZvB6oXEQJrLMb/H5bvBwjCsvdXMXsBeGozBeyfdQHxTwj+BSbXB
q7yaQIMYDcC0/6/B7rjLP6piGcBqGZjBHlGgQM50PT/N+ZbBUoVHQIazuMDdOnzB/2JyQOAwGEBC
aJPBNLp8QBNKe0AQPYzBuwgFQUwjfUDoXKLBSEkLQXouDUCHS6PBsLj9QEwBQ0CVXq7BY3swQBE/
okC0HpjBRu1+QG+XwECoYp/BUx4+QL7OmUA6O6bBF5P0QFtCEkAwKJLBP0PbQP4rE0C3y4DBgNen
QKtsN0C6m3zBfsRLQFOEkb9ISJnBlHzDPvfOosDST3nBseu8QJR00b7asrPBH7wjQC9mqsAHu4XB
iZ7KQCjoXD9gMbDBKfGlQCzHoL8Ew6zB8VJiQE3SmMDRgYzBAZKpQCO25T5Q557BPZOjP7CyUcDq
1IfBZpC0P08SksBYZ4PBbSzCQNjQpT+QlaXB6/6bQFpLUL9fWqLBXMVVQK6NXsDMxZDBko+vQM88
cUDQPqTB9mO4QFNQO0Crz47BJTCKQNXTN8D1M5jBTRSMQCQTVEDeuJLBaGnRQDZ1K0DQfqHBC/H9
QE/mQkBHQ6bBle9ZQJ7doECBYZ/BBY/svnpIsMCeV27BT3sOQM+YMMBfUY7BLPuNQOSIgEBTD53B
hXHXQKVCKUDBlJXBeyK/QBQbMUDR7IPB4cCCQCx2x79WZZvBlNWyQP2yjUC1fqzBxIGqQJfKXsDO
8JrB+hfEQA0KPL9RvbvBpd4rQHP7ycCFX4LBZ6nbQIKOwT9GoLXBtQecQK0lD8DRZq/BCqqNQFLF
qsDmcI7BbBehQPTKSD9G+JbB2dbMPjsvLMD+AIbBVW5xQITCGUCxp5PBxhF6QKBKfkC7xIzBx/0D
QcfxgEAnPaPBpcYKQSBMEkCZ4KPBer/7QG8NRUClCq/BLKErQLz1oUAUwpjBakl4QDxrwECDSaDB
DpQ4QHRfmEBy1abBJC30QNN2GUBIqpLBjWvbQPIpHECbQIHB67anQAavPkA0fX3BJKBRQOzRjb/h
ZpjB

>  <OMEGA_E>  (4) 
ZOFuP46yWj9QVWM/

>  <OMEGA_NBR>  (4) 
     18932

$$$$
50198736
     RDKit          3D

 48 50  0  0  1  0  0  0  0  0999 V2000
    6.3039   -0.5165  -22.1741 C   0  0  0  0  0  0  0  0  0  0  0  0
    6.3167    0.8750  -21.9521 C   0  0  0  0  0  0  0  0  0  0  0  0
    1.2563   -3.3609  -16.7448 C   0  0  0  0  0  0  0  0  0  0  0  0
    5.5823   -1.3653  -21.3151 C   0  0  0  0  0  0  0  0  0  0  0  0
    2.1897   -2.7730  -17.6077 C   0  0  0  0  0  0  0  0  0  0  0  0
    4.9413    0.5602  -19.9719 C   0  0  0  0  0  0  0  0  0  0  0  0
    2.5922   -5.3886  -16.8095 C   0  0  0  0  0  0  0  0  0  0  0  0
    5.6090    1.4391  -20.8613 C   0  0  0  0  0  0  0  0  0  0  0  0
    1.4544   -4.6949  -16.3358 C   0  0  0  0  0  0  0  0  0  0  0  0
    4.9038   -0.8221  -20.2016 C   0  0  0  0  0  0  0  0  0  0  0  0
    3.3087   -3.5254  -18.0500 C   0  0  0  0  0  0  0  0  0  0  0  0
    4.7324    3.4444  -19.4478 C   0  0  0  0  0  0  0  0  0  0  0  0
    7.4293    4.3374  -19.6090 C   0  0  0  0  0  0  0  0  0  0  0  0
    4.2898   -2.9213  -18.9765 C   0  0  0  0  0  0  0  0  0  0  0  0
    6.3966    5.2023  -18.9216 C   0  0  0  0  0  0  0  0  0  0  0  0
    5.6425    2.9695  -20.6325 C   0  0  2  0  0  0  0  0  0  0  0  0
    5.1690    3.7167  -21.9096 C   0  0  0  0  0  0  0  0  0  0  0  0
    4.3572    4.9041  -17.4575 C   0  0  0  0  0  0  0  0  0  0  0  0
    0.4732   -5.3946  -15.4021 C   0  0  0  0  0  0  0  0  0  0  0  0
    3.4860   -4.8082  -17.6429 N   0  0  0  0  0  0  0  0  0  0  0  0
    5.2041    4.4190  -18.5622 N   0  0  0  0  0  0  0  0  0  0  0  0
    7.0721    3.3332  -20.3778 N   0  0  0  0  0  0  0  0  0  0  0  0
    8.7734    4.6512  -19.4723 N   0  0  0  0  0  0  0  0  0  0  0  0
    4.1317   -1.5805  -19.3209 N   0  0  0  0  0  0  0  0  0  0  0  0
    3.5683    3.0603  -19.3647 O   0  0  0  0  0  0  0  0  0  0  0  0
    5.2549   -3.5794  -19.3532 O   0  0  0  0  0  0  0  0  0  0  0  0
   -0.5584   -4.5798  -15.0495 F   0  0  0  0  0  0  0  0  0  0  0  0
    1.1224   -5.7826  -14.2721 F   0  0  0  0  0  0  0  0  0  0  0  0
   -0.0378   -6.4929  -16.0199 F   0  0  0  0  0  0  0  0  0  0  0  0
    6.8504   -0.9332  -23.0073 H   0  0  0  0  0  0  0  0  0  0  0  0
    6.8713    1.5178  -22.6197 H   0  0  0  0  0  0  0  0  0  0  0  0
    0.3996   -2.8017  -16.3989 H   0  0  0  0  0  0  0  0  0  0  0  0
    5.5472   -2.4276  -21.5062 H   0  0  0  0  0  0  0  0  0  0  0  0
    2.0585   -1.7521  -17.9348 H   0  0  0  0  0  0  0  0  0  0  0  0
    4.4511    0.9642  -19.0986 H   0  0  0  0  0  0  0  0  0  0  0  0
    2.7520   -6.4101  -16.4972 H   0  0  0  0  0  0  0  0  0  0  0  0
    6.8357    5.6281  -18.0074 H   0  0  0  0  0  0  0  0  0  0  0  0
    6.1008    6.0163  -19.5998 H   0  0  0  0  0  0  0  0  0  0  0  0
    5.1981    4.8019  -21.7321 H   0  0  0  0  0  0  0  0  0  0  0  0
    5.8333    3.4646  -22.7493 H   0  0  0  0  0  0  0  0  0  0  0  0
    4.1400    3.4124  -22.1520 H   0  0  0  0  0  0  0  0  0  0  0  0
    4.9060    5.6626  -16.8798 H   0  0  0  0  0  0  0  0  0  0  0  0
    3.4390    5.3495  -17.8679 H   0  0  0  0  0  0  0  0  0  0  0  0
    4.0943    4.0622  -16.8002 H   0  0  0  0  0  0  0  0  0  0  0  0
    7.7881    2.7871  -20.8126 H   0  0  0  0  0  0  0  0  0  0  0  0
    9.4639    4.1145  -19.9572 H   0  0  0  0  0  0  0  0  0  0  0  0
    9.0519    5.4141  -18.8888 H   0  0  0  0  0  0  0  0  0  0  0  0
    3.3706   -1.1025  -18.8825 H   0  0  0  0  0  0  0  0  0  0  0  0
  1  2  2  0
  1  4  1  0
  2  8  1  0
  3  5  2  0
  3  9  1  0
  4 10  2  0
  5 11  1  0
  6  8  2  0
  6 10  1  0
  7  9  2  0
  7 20  1  0
  8 16  1  0
  9 19  1  0
 10 24  1  0
 11 14  1  0
 11 20  2  0
 12 16  1  0
 12 21  1  0
 12 25  2  0
 13 15  1  0
 13 22  2  0
 13 23  1  0
 14 24  1  0
 14 26  2  0
 15 21  1  0
 16 17  1  6
 16 22  1  0
 18 21  1  0
 19 27  1  0
 19 28  1  0
 19 29  1  0
  1 30  1  0
  2 31  1  0
  3 32  1  0
  4 33  1  0
  5 34  1  0
  6 35  1  0
  7 36  1  0
 15 37  1  0
 15 38  1  0
 17 39  1  0
 17 40  1  0
 17 41  1  0
 18 42  1  0
 18 43  1  0
 18 44  1  0
 22 45  1  0
 23 46  1  0
 23 47  1  0
 24 48  1  0
M  CHG  1  22   1
M  END
>  <OMEGA_C>  (5) 
krnJQDQ6BL+PZLHBsCLKQPn8Xz/0na/BKs+gP8AYV8Be9YXBKKKyQNrArr9kharBZyMMQDh4McB7
3IzBiB+eQK9oDz+Lxp/BPuYlQIpvrMDEeYbBtXyzQBU1uD8B5KbBcym6P5E8lsCgr4LB2eucQAx2
Ur/JnKHBoMFTQJSfYcBUZpDB6G+XQBVxXEAZlZvBi7ztQFnMikAm35zBA0aJQLn2OsDOz5fB9bDM
QDl5pkB6X5fBEo+0QJALPkByD6XBEWilQKLdbUDjRq/BNG6LQKzunEDcqIvBOk3yPpmgrMDkbnbB
zhpfQOfcmcC0JI3BRIimQI5ojUBpf5TBuk7iQIJTVUDABaPBzF8MQY7WlEA/x5vBRzeEQEJOyr8a
kZrBS15kQEPcQ0AB65rBISioQCcVZcBL05rBW/QOv2qNksCYynDBy6mPP9YKucC0WmTBY6gavfHF
z8DbKIDBijbbQDzjbr/bDrjBb+HbQHVIwj8N9bTBjpfMPlpOM8DeMIPBl4KxQGNeG8DMDKzBKr4D
QNlE4L+Beo/BBW+OQKTYdj/pyZjBNyAwQEEfzcBA+oPB9L3aQLgZtEAVD5DBojnDQCGFwEB1zJzB
nlamQMaomUBw263Bpaq6QBe8XUCR/rXBRnuEQENkWkBbN7HBvv2cQKEztUDiCYfB4hdcQFEvq0Bs
8Y7BXwSDQF39gUDOZobBXTj5QGJfMkAvgKbBNWwXQSOqg0BfqJ/BwdQQQQlArUBRHJfBY7hXQM0d
jb9OD5fB

>  <OMEGA_E>  (5) 
xBdiPw==

>  <OMEGA_NBR>  (5) 
     20033

$$$$
50198733
     RDKit          3D

 47 49  0  0  1  0  0  0  0  0999 V2000
    6.2505   -0.4292  -22.2093 C   0  0  0  0  0  0  0  0  0  0  0  0
    6.2715    0.9493  -21.9173 C   0  0  0  0  0  0  0  0  0  0  0  0
    5.5389   -1.3189  -21.3836 C   0  0  0  0  0  0  0  0  0  0  0  0
    4.9203    0.5381  -19.9371 C   0  0  0  0  0  0  0  0  0  0  0  0
    3.6935   -4.6929  -17.3492 C   0  0  0  0  0  0  0  0  0  0  0  0
    1.1523   -3.7084  -17.3401 C   0  0  0  0  0  0  0  0  0  0  0  0
    5.5836    1.4595  -20.7877 C   0  0  0  0  0  0  0  0  0  0  0  0
    4.8732   -0.8313  -20.2377 C   0  0  0  0  0  0  0  0  0  0  0  0
    3.3212   -3.6174  -18.1915 C   0  0  0  0  0  0  0  0  0  0  0  0
    1.5300   -4.7669  -16.4843 C   0  0  0  0  0  0  0  0  0  0  0  0
    4.7544    3.3959  -19.2522 C   0  0  0  0  0  0  0  0  0  0  0  0
    7.4489    4.2902  -19.4422 C   0  0  0  0  0  0  0  0  0  0  0  0
    4.3001   -2.9818  -19.0904 C   0  0  0  0  0  0  0  0  0  0  0  0
    6.4383    5.1223  -18.6855 C   0  0  0  0  0  0  0  0  0  0  0  0
    5.6299    2.9773  -20.4831 C   0  0  2  0  0  0  0  0  0  0  0  0
    0.4963   -5.4166  -15.5923 C   0  0  0  0  0  0  0  0  0  0  0  0
    5.1260    3.7887  -21.7085 C   0  0  0  0  0  0  0  0  0  0  0  0
    4.4382    4.7564  -17.1831 C   0  0  0  0  0  0  0  0  0  0  0  0
    2.0530   -3.1422  -18.1681 N   0  0  0  0  0  0  0  0  0  0  0  0
    2.7940   -5.2493  -16.5090 N   0  0  0  0  0  0  0  0  0  0  0  0
    5.2535    4.3245  -18.3327 N   0  0  0  0  0  0  0  0  0  0  0  0
    7.0676    3.3252  -20.2491 N   0  0  0  0  0  0  0  0  0  0  0  0
    8.7974    4.5940  -19.3265 N   0  0  0  0  0  0  0  0  0  0  0  0
    4.1007   -1.6374  -19.3990 N   0  0  0  0  0  0  0  0  0  0  0  0
    3.5903    3.0143  -19.1584 O   0  0  0  0  0  0  0  0  0  0  0  0
    5.2915   -3.6015  -19.4633 O   0  0  0  0  0  0  0  0  0  0  0  0
    6.7829   -0.8044  -23.0708 H   0  0  0  0  0  0  0  0  0  0  0  0
    6.8171    1.6238  -22.5606 H   0  0  0  0  0  0  0  0  0  0  0  0
    5.5019   -2.3708  -21.6253 H   0  0  0  0  0  0  0  0  0  0  0  0
    4.4412    0.8987  -19.0388 H   0  0  0  0  0  0  0  0  0  0  0  0
    4.7046   -5.0714  -17.3787 H   0  0  0  0  0  0  0  0  0  0  0  0
    0.1336   -3.3498  -17.3310 H   0  0  0  0  0  0  0  0  0  0  0  0
    6.9033    5.5018  -17.7637 H   0  0  0  0  0  0  0  0  0  0  0  0
    6.1269    5.9692  -19.3146 H   0  0  0  0  0  0  0  0  0  0  0  0
    0.9557   -6.2548  -15.0479 H   0  0  0  0  0  0  0  0  0  0  0  0
    0.1160   -4.6766  -14.8727 H   0  0  0  0  0  0  0  0  0  0  0  0
   -0.3354   -5.7908  -16.2074 H   0  0  0  0  0  0  0  0  0  0  0  0
    5.1643    4.8636  -21.4782 H   0  0  0  0  0  0  0  0  0  0  0  0
    5.7670    3.5768  -22.5770 H   0  0  0  0  0  0  0  0  0  0  0  0
    4.0898    3.4998  -21.9385 H   0  0  0  0  0  0  0  0  0  0  0  0
    5.0050    5.4841  -16.5837 H   0  0  0  0  0  0  0  0  0  0  0  0
    3.5110    5.2238  -17.5462 H   0  0  0  0  0  0  0  0  0  0  0  0
    4.1898    3.8837  -16.5613 H   0  0  0  0  0  0  0  0  0  0  0  0
    7.7698    2.7991  -20.7288 H   0  0  0  0  0  0  0  0  0  0  0  0
    9.4729    4.0800  -19.8552 H   0  0  0  0  0  0  0  0  0  0  0  0
    9.0940    5.3269  -18.7144 H   0  0  0  0  0  0  0  0  0  0  0  0
    3.3117   -1.1984  -18.9692 H   0  0  0  0  0  0  0  0  0  0  0  0
  1  2  2  0
  1  3  1  0
  2  7  1  0
  3  8  2  0
  4  7  2  0
  4  8  1  0
  5  9  2  0
  5 20  1  0
  6 10  1  0
  6 19  2  0
  7 15  1  0
  8 24  1  0
  9 13  1  0
  9 19  1  0
 10 16  1  0
 10 20  2  0
 11 15  1  0
 11 21  1  0
 11 25  2  0
 12 14  1  0
 12 22  2  0
 12 23  1  0
 13 24  1  0
 13 26  2  0
 14 21  1  0
 15 17  1  6
 15 22  1  0
 18 21  1  0
  1 27  1  0
  2 28  1  0
  3 29  1  0
  4 30  1  0
  5 31  1  0
  6 32  1  0
 14 33  1  0
 14 34  1  0
 16 35  1  0
 16 36  1  0
 16 37  1  0
 17 38  1  0
 17 39  1  0
 17 40  1  0
 18 41  1  0
 18 42  1  0
 18 43  1  0
 22 44  1  0
 23 45  1  0
 23 46  1  0
 24 47  1  0
M  CHG  1  22   1
M  END
>  <OMEGA_C>  (6) 
yAPIQMHB276/rLHB+6/IQGgEcz+pVq/BVz6xQM7QqL+YEavBxnKdQJLCCT8rf5/B02FsQKMslsAQ
y4rBwH+TP3xWbcCCuIrB9KyyQPPPuj9PTabBhfGbQP7MVL+45qHBB49UQFqDZ8A8iJHBXNjDP0+K
mMDB34PBwyOYQP9VWUCHBJrBuV3uQO5IiUCViZvBMpqJQO7VPsAiuZjBPgbOQLbpo0DRe5XB7ie0
QHaMPkBL3aPBOhf+PqRUrcAGennBWAikQF95ckAaq63BwwWOQLc0mEDpdonBR2QDQDcZScBXWJHB
ttEyQJD6p8BfEoTByByoQAxiikBvqZLBqSniQD7QVEAS/qHBCMIMQaoBk0ConJrBHzmDQNGW0b8T
MZvB5cdlQPPpQEB1RJnBvVOpQJ1/ZsDltJvBqg3ZQEbvTb8AkbjB8CXaQFnXzz8CfLTBYw+wQJa7
F8CjAK3BRh6OQGATZj+MT5jBrYuWQCNJosCIB4vB9NkIPm1jVsDbpYrB+ufcQOgOsEAEHI7BSw/E
QE8Dv0BThJrBs6d0P0knyMBJxHDB2JntPeqmlcBp9m3BG7SrvoVOucC0qIHBPUKlQHWim0BN06vB
d4u4QBTrZEC9nbTB5N+CQHP8X0D8ga/BJSmgQHF9r0Baq4TBIrRgQBspp0CoXozBwhKGQPSNeECW
fYTBMqL4QA4lM0CQ1KXB0JAXQT6PgkCB157BLIERQVZ2qkAAt5XBSvJTQC9mmb/3wJfB3pa8QDFP
xr5B2bPBKPjKQKhAXT8gEbDBusGkQLuhnr89I63BY+6oQM3X1j717p7BZMH0P7vLScD1LJLBbnow
QMIVocBS+4PBNGjCQKyUoj/cZaXBaZGaQJqmUr/8rKLBoLBRQCcHYsBbn5HB7ymyP9qllcCtvoTB
F2axQKghcEDymqPB/Vu5QF/MNUDsVI7BOCmIQJ0zOcCO0pjBBGGNQIw3UUAxM5LBLHrSQDtwKEAh
CKHBAt3BPk6lqcA3kXrBC1P/QPMSP0CDrqXBNhhfQOUuoUAVkZ7BVk1rQB78jsBbfIrBIk1+P8i9
bsC8xYvBTeGPQPD9f0CyZ5zBbkzYQFOoI0CsIJXBOd2/QEBiKUD/eIPBdmuAQNxNyr+Q/pvBLj21
QArbjUBbuavBDGepQE6KXsDqMpvBZeXDQHSHMb8t7rvBYqLcQB1iwj+GVbXBw1yaQGcmDcBQ/q/B
yGigQN1vPD+/85bBoGnNP+ggGcDty5fBhmFEQE6GuMDbR3zB28hyQJnzF0CMT5PBg3Z9QNP8ekDj
IozBtrYcv1+Qm8DMi33B+Z6sPspbzMClaH3B0IssPxCSo8BR42nBDfUEQc4OfUD1dKLBfzULQToe
DUCTa6PBVlD9QCgDQ0AadK7BLqYwQDciokA09ZfBxrd+QJeAwEC8R5/BcZ89QPC0mUBWFKbB08z0
QCX/EUCwPJLBsOTbQETMEkA314DBFoeoQHwDN0CXinzBwaBLQGaBkr//PJnB3US9QFdVkL7/ZrLB
ZxTOQFRAaD/bAq7B92ukQAvckr8ICazBXUmsQFpawj689JzBVFrzP1+lScDGgZHBCSMtQPtppsAG
uoTBUibGQC2Inz9+LaPBtdabQK4VT7+JSqHBI69PQF56ZsD2lZHBa9atP8eXmMBv3YTBMUXJQC0K
ckBNlKTBHo2nQPKdTkBIK5DBkzeHQBpmPMCZppjBD5CJQNBXcEBsupjBAZTZQA8SIkAKVJ7BStSw
PlIdrcBq+nrBJ5MFQZrbG0AKmp7BSaKPQECir0CtfafBnQFoQIzlk8BwJovBFg57Pxpdb8AeMYvB
2K2iQFUXjECPYqHB0rbMQAHtLEDm05LBRLSaQKZMT0DijIXBzF6BQP+Yy7/q35rBgoXeQHBSiEAt
56vB6g6nQG50Y8B9s5vBk3fDQD6GB78eq7rBpCPhQJs6yD808bLB1gGYQKQuBMA+Xa/BUyGlQP4w
Iz9FwpTBeDPOPxbNFMCmkZbBeBdAQEcHwMBe3X7BtTBtQPgiO0CmAJzBJPdnQAwkkEADNJXB3Vkg
v0gKncBk1HzBX/V1Ppowz8DkDn/BfYsvPz0NqsDjT2rB/4cMQSZaVkCvJ5vB38gKQdESyD8x6pnB
PvkKQafCFEAr7qbBylJjQCnDuUAWoqPBhyKmQOKwykCTsafBAeSIQPX9pEA+ta/Buc7gQPUoGkBu
D43BGqStQKQ6NkAK1H/BrgF9QKLcaECCh4PB+vZPQNc7kr81lJfB

>  <OMEGA_E>  (6) 
3GtsP/wOWD9q3V4/

>  <OMEGA_NBR>  (6) 
     22746

$$$$
50198734
     RDKit          3D

 45 47  0  0  1  0  0  0  0  0999 V2000
    6.6155   -0.4818  -22.0597 C   0  0  0  0  0  0  0  0  0  0  0  0
    6.5431    0.9080  -21.8533 C   0  0  0  0  0  0  0  0  0  0  0  0
    5.8348   -1.3540  -21.2848 C   0  0  0  0  0  0  0  0  0  0  0  0
    1.2618   -3.1347  -16.8533 C   0  0  0  0  0  0  0  0  0  0  0  0
    2.1633   -2.6757  -17.8181 C   0  0  0  0  0  0  0  0  0  0  0  0
    4.8821    0.5619  -20.1169 C   0  0  0  0  0  0  0  0  0  0  0  0
    2.6789   -5.0872  -16.5704 C   0  0  0  0  0  0  0  0  0  0  0  0
    5.6478    1.4549  -20.8981 C   0  0  0  0  0  0  0  0  0  0  0  0
    4.9820   -0.8272  -20.2895 C   0  0  0  0  0  0  0  0  0  0  0  0
    1.5240   -4.3563  -16.2205 C   0  0  0  0  0  0  0  0  0  0  0  0
    3.3122   -3.4495  -18.1311 C   0  0  0  0  0  0  0  0  0  0  0  0
    5.2690    3.2857  -17.7948 C   0  0  0  0  0  0  0  0  0  0  0  0
    6.5982    3.4130  -18.4289 C   0  0  0  0  0  0  0  0  0  0  0  0
    4.2785   -2.9405  -19.1202 C   0  0  0  0  0  0  0  0  0  0  0  0
    4.2421    3.4775  -20.0438 C   0  0  0  0  0  0  0  0  0  0  0  0
    5.6011    2.9786  -20.6405 C   0  0  2  0  0  0  0  0  0  0  0  0
    5.7838    3.7543  -21.9722 C   0  0  0  0  0  0  0  0  0  0  0  0
    2.7886    3.4018  -17.9857 C   0  0  0  0  0  0  0  0  0  0  0  0
    3.5441   -4.6339  -17.5084 N   0  0  0  0  0  0  0  0  0  0  0  0
    4.1214    3.2508  -18.5927 N   0  0  0  0  0  0  0  0  0  0  0  0
    6.7328    3.3383  -19.7347 N   0  0  0  0  0  0  0  0  0  0  0  0
    7.7235    3.6476  -17.6479 N   0  0  0  0  0  0  0  0  0  0  0  0
    4.1775   -1.5955  -19.4573 N   0  0  0  0  0  0  0  0  0  0  0  0
    5.1845    3.2104  -16.5729 O   0  0  0  0  0  0  0  0  0  0  0  0
    5.1769   -3.6655  -19.5347 O   0  0  0  0  0  0  0  0  0  0  0  0
    0.4192   -4.9661  -15.0193 Cl  0  0  0  0  0  0  0  0  0  0  0  0
    7.2745   -0.8793  -22.8174 H   0  0  0  0  0  0  0  0  0  0  0  0
    7.1767    1.5665  -22.4288 H   0  0  0  0  0  0  0  0  0  0  0  0
    5.8858   -2.4204  -21.4485 H   0  0  0  0  0  0  0  0  0  0  0  0
    0.3827   -2.5600  -16.6016 H   0  0  0  0  0  0  0  0  0  0  0  0
    1.9868   -1.7374  -18.3229 H   0  0  0  0  0  0  0  0  0  0  0  0
    4.2064    0.9556  -19.3720 H   0  0  0  0  0  0  0  0  0  0  0  0
    2.8773   -6.0285  -16.0796 H   0  0  0  0  0  0  0  0  0  0  0  0
    4.1518    4.5567  -20.2367 H   0  0  0  0  0  0  0  0  0  0  0  0
    3.4230    2.9449  -20.5491 H   0  0  0  0  0  0  0  0  0  0  0  0
    5.7487    4.8359  -21.7750 H   0  0  0  0  0  0  0  0  0  0  0  0
    6.7555    3.4943  -22.4175 H   0  0  0  0  0  0  0  0  0  0  0  0
    4.9769    3.4823  -22.6685 H   0  0  0  0  0  0  0  0  0  0  0  0
    2.0195    3.3472  -18.7702 H   0  0  0  0  0  0  0  0  0  0  0  0
    2.6251    2.5957  -17.2553 H   0  0  0  0  0  0  0  0  0  0  0  0
    2.7255    4.3753  -17.4776 H   0  0  0  0  0  0  0  0  0  0  0  0
    7.6280    3.5300  -20.1371 H   0  0  0  0  0  0  0  0  0  0  0  0
    8.6184    3.7569  -18.0806 H   0  0  0  0  0  0  0  0  0  0  0  0
    7.6383    3.7072  -16.6533 H   0  0  0  0  0  0  0  0  0  0  0  0
    3.4113   -1.1083  -19.0381 H   0  0  0  0  0  0  0  0  0  0  0  0
  1  2  2  0
  1  3  1  0
  2  8  1  0
  3  9  2  0
  4  5  2  0
  4 10  1  0
  5 11  1  0
  6  8  2  0
  6  9  1  0
  7 10  2  0
  7 19  1  0
  8 16  1  0
  9 23  1  0
 10 26  1  0
 11 14  1  0
 11 19  2  0
 12 13  1  0
 12 20  1  0
 12 24  2  0
 13 21  2  0
 13 22  1  0
 14 23  1  0
 14 25  2  0
 15 16  1  0
 15 20  1  0
 16 17  1  6
 16 21  1  0
 18 20  1  0
  1 27  1  0
  2 28  1  0
  3 29  1  0
  4 30  1  0
  5 31  1  0
  6 32  1  0
  7 33  1  0
 15 34  1  0
 15 35  1  0
 17 36  1  0
 17 37  1  0
 17 38  1  0
 18 39  1  0
 18 40  1  0
 18 41  1  0
 21 42  1  0
 22 43  1  0
 22 44  1  0
 23 45  1  0
M  CHG  1  21   1
M  END
>  <OMEGA_C>  (7) 
QLLTQDmq9r44erDBGmHRQBpyaD96067BRra6QFZRrb9BR6rBboGhPymeSMCo04bBzHIKQFg/K8Bs
i47BAjqcQHPWDz9r76DB6nIrQB3KosAwkITBprq0QIE5uj9aL6fBqGyfQATEU7//UKLBwxLDP5Rm
i8Cbw4HB4vtTQAPEXMBwDJHBopuoQNhIUkDJW47BSSTTQDpuWkBLbpPBmemIQHgxPMAs9pjBDL+H
QBiPXkCcWaDBnTyzQCyhPkCzH6XBShW5QOpGcEApx6/BOXkyQLe2WUCo4o/BWNJiQNZIlMBMEYzB
peKDQAANUEDDvZTBCnPXQGqnVUCf4J3BqSb3QP9yaUD3Lo3BsK2FQOY3zL+AqJvBy+elQKh3TUA/
lYTBFamlQHGXasAoR5zB/5/WPvbpnsALT3DBg8joQPAWYb8QirbBnKflQOKDyD88brPBEVi8QAXn
GsB5lqvBLevDPprXI8AQ0ITB31D+Pxpk3r9PlZLBvZqGQE+hdD/v+ZrBBSU4QJfpwMDzooDBj9uE
QCLQkUDP5KHBAxJbQJh4PECYZKTBdvW3QN+/mkAgM67BGi3YQEejX0AhV7PBkEKfQLbeXkApWbXB
QEABQEo4VkBkKZbBJAEoQJAfJkDbCorB7m0uQMMCjEAG0ovBYRj0QBvrYUC8GKHB7eQJQX1xcEAB
pZDB92z0QC5DbUAPOoXBE1NaQBLcjb8MTpjB

>  <OMEGA_E>  (7) 
AFsdPw==

>  <OMEGA_NBR>  (7) 
     23800

$$$$
