50216006
     RDKit          3D

 50 53  0  0  1  0  0  0  0  0999 V2000
    6.9881    5.1266  -23.8931 C   0  0  0  0  0  0  0  0  0  0  0  0
    5.6104    4.8841  -23.7387 C   0  0  0  0  0  0  0  0  0  0  0  0
    7.9168    4.4533  -23.0789 C   0  0  0  0  0  0  0  0  0  0  0  0
    6.6026   -0.9129  -22.7655 C   0  0  0  0  0  0  0  0  0  0  0  0
    4.9265   -4.5562  -18.5652 C   0  0  0  0  0  0  0  0  0  0  0  0
    6.0601   -1.8945  -21.9149 C   0  0  0  0  0  0  0  0  0  0  0  0
    5.4384   -3.6781  -19.5375 C   0  0  0  0  0  0  0  0  0  0  0  0
    5.1580    3.9757  -22.7644 C   0  0  0  0  0  0  0  0  0  0  0  0
    7.4693    3.5525  -22.0969 C   0  0  0  0  0  0  0  0  0  0  0  0
    6.4229    0.4543  -22.4783 C   0  0  0  0  0  0  0  0  0  0  0  0
    3.7056   -4.2715  -17.9217 C   0  0  0  0  0  0  0  0  0  0  0  0
    5.1326   -0.1408  -20.5036 C   0  0  0  0  0  0  0  0  0  0  0  0
    3.4970   -2.2308  -19.2305 C   0  0  0  0  0  0  0  0  0  0  0  0
    5.3063   -1.5072  -20.7861 C   0  0  0  0  0  0  0  0  0  0  0  0
    4.7330   -2.4994  -19.8604 C   0  0  0  0  0  0  0  0  0  0  0  0
    6.0826    3.3190  -21.9125 C   0  0  0  0  0  0  0  0  0  0  0  0
    5.6932    0.8512  -21.3290 C   0  0  0  0  0  0  0  0  0  0  0  0
    2.9752   -3.1010  -18.2595 C   0  0  0  0  0  0  0  0  0  0  0  0
    6.3514    2.4628  -19.5477 C   0  0  0  0  0  0  0  0  0  0  0  0
    4.1656    3.0653  -19.2365 C   0  0  0  0  0  0  0  0  0  0  0  0
    5.5969    2.3072  -20.8636 C   0  0  1  0  0  0  0  0  0  0  0  0
    5.7071    3.2129  -17.2319 C   0  0  0  0  0  0  0  0  0  0  0  0
    1.2768   -3.5718  -16.6022 C   0  0  0  0  0  0  0  0  0  0  0  0
    5.4455    3.0249  -18.6651 N   0  0  0  0  0  0  0  0  0  0  0  0
    4.2072    2.6138  -20.4689 N   0  0  0  0  0  0  0  0  0  0  0  0
    3.0105    3.5008  -18.6039 N   0  0  0  0  0  0  0  0  0  0  0  0
    7.4870    2.0807  -19.2845 O   0  0  0  0  0  0  0  0  0  0  0  0
    1.7635   -2.7443  -17.6819 O   0  0  0  0  0  0  0  0  0  0  0  0
    7.3324    5.8299  -24.6368 H   0  0  0  0  0  0  0  0  0  0  0  0
    4.8991    5.3963  -24.3696 H   0  0  0  0  0  0  0  0  0  0  0  0
    8.9746    4.6286  -23.2084 H   0  0  0  0  0  0  0  0  0  0  0  0
    7.1591   -1.2094  -23.6422 H   0  0  0  0  0  0  0  0  0  0  0  0
    5.4718   -5.4530  -18.3107 H   0  0  0  0  0  0  0  0  0  0  0  0
    6.2203   -2.9416  -22.1254 H   0  0  0  0  0  0  0  0  0  0  0  0
    6.3692   -3.9055  -20.0357 H   0  0  0  0  0  0  0  0  0  0  0  0
    4.1010    3.7774  -22.6645 H   0  0  0  0  0  0  0  0  0  0  0  0
    8.1869    3.0341  -21.4783 H   0  0  0  0  0  0  0  0  0  0  0  0
    6.8419    1.2022  -23.1351 H   0  0  0  0  0  0  0  0  0  0  0  0
    3.3239   -4.9455  -17.1691 H   0  0  0  0  0  0  0  0  0  0  0  0
    4.5584    0.1526  -19.6372 H   0  0  0  0  0  0  0  0  0  0  0  0
    2.9450   -1.3425  -19.4999 H   0  0  0  0  0  0  0  0  0  0  0  0
    4.8309    3.6780  -16.7566 H   0  0  0  0  0  0  0  0  0  0  0  0
    5.9029    2.2368  -16.7639 H   0  0  0  0  0  0  0  0  0  0  0  0
    6.5838    3.8644  -17.1016 H   0  0  0  0  0  0  0  0  0  0  0  0
    0.3155   -3.1770  -16.2415 H   0  0  0  0  0  0  0  0  0  0  0  0
    1.1378   -4.6015  -16.9635 H   0  0  0  0  0  0  0  0  0  0  0  0
    2.0068   -3.5674  -15.7793 H   0  0  0  0  0  0  0  0  0  0  0  0
    3.4085    2.4941  -21.0585 H   0  0  0  0  0  0  0  0  0  0  0  0
    2.1368    3.4826  -19.0901 H   0  0  0  0  0  0  0  0  0  0  0  0
    3.0514    3.8330  -17.6615 H   0  0  0  0  0  0  0  0  0  0  0  0
  1  2  2  0
  1  3  1  0
  2  8  1  0
  3  9  2  0
  4  6  2  0
  4 10  1  0
  5  7  2  0
  5 11  1  0
  6 14  1  0
  7 15  1  0
  8 16  2  0
  9 16  1  0
 10 17  2  0
 11 18  2  0
 12 14  2  0
 12 17  1  0
 13 15  2  0
 13 18  1  0
 14 15  1  0
 21 16  1  6
 17 21  1  0
 18 28  1  0
 19 21  1  0
 19 24  1  0
 19 27  2  0
 20 24  1  0
 20 25  2  0
 20 26  1  0
 21 25  1  0
 22 24  1  0
 23 28  1  0
  1 29  1  0
  2 30  1  0
  3 31  1  0
  4 32  1  0
  5 33  1  0
  6 34  1  0
  7 35  1  0
  8 36  1  0
  9 37  1  0
 10 38  1  0
 11 39  1  0
 12 40  1  0
 13 41  1  0
 22 42  1  0
 22 43  1  0
 22 44  1  0
 23 45  1  0
 23 46  1  0
 23 47  1  0
 25 48  1  0
 26 49  1  0
 26 50  1  0
M  CHG  1  25   1
M  END
>  <OMEGA_C>  (1) 
NJ7fQCINpED4JL/BvYizQDBKnEDx6L3BQFb9QIWBjkCeobjBIUjTQGKxab+pH7bBt6WdQH3MkcCO
hZTBJuzBQMB+8r+pUa/BTQeuQNVla8DBTJzB9g2lQO5xfkBpHbbBogTvQF1bY0CNxrDBBYjNQFiZ
6D6R07PBVShtQDewiMCWX4/BFT6kQBk0EL5dB6TBNc9fQP3FDsD615nB5cypQHrswL/pSabB1nSX
QFv2H8AL4p7BcqTCQEBrVEDfTK/Bhi62QPvmWT/koarBYmo+QNF2RsCNE5LBsz7LQBKfHUCsYZzB
ZUyFQFYuREBw5JnB4xmzQFypE0C16KbBbKC2QGefTUDZ2onBv26jP76YZMA10YTBvUGuQHWYQUAe
UpXBh6GGQIBIJ0BQwKPBa6tAQNINYEC51JTBjpXvQIYqBUCpRprBw7rhP1OiL8CNdI3BraLqQM+O
ukA0GMXBb8WcQGaurED99MLByJcPQeMdlEDHqrnBUBflQP3Lmr9TI73BxBivQBp/rsA6fJLBZAzH
QOhCPMDrALHBodDLQDLzecAwSaDBqTuDQGbAcUDRULXBsv0CQWIvQkB606vBt/DaQLfimT+5FLnB
D7tUQMZBnsA8WonBad6RQDBIHD4GGZ3BC3s8QMrXq7++/5vBgZaaQNJka0CHDYbBJuS8QHMnD0CG
HIbBOa7SQKBRd0AS0IjBO4yhPlxUS8Co7oHBpqSRPyI/k8AmtYfB3m4AQPlPZMDXd3zBMyRaQGqf
H0Ded6jBvcEIQDLjXkCIuJjB7UlDQF5QdUDXSo3BxkPfQAXMo0CpDr/BIhH9QAKQjkDYgLjBOjiz
QPLSm0Be073B6BTUQB69ab+RDbbBI46eQAK0kcDpa5TBo5nCQAkS878PT6/BI8quQLNza8D6PpzB
097uQGamY0BznLDBqt+kQLSJfUCNA7bB7BHOQIrN5z5JvbPBI6huQATCiMAUVI/BCk2kQCUEHL74
DKTBx0JgQAH2D8CV+ZnBpyCqQFYqwr+NU6bBwNqXQPy4IMCA8Z7B6YjCQP4XVECoKa/BJ1O2QB79
Vz9pl6rBo1I/QBs2R8DXIpLBzSvLQCphHEC/QZzBrW2FQC36REBR3ZnBUxizQOr3EkDqzabB4GW2
QCFQTECCuYnBbHWlPyQQZcAv3YTBtCWuQFkoQEB0MZXB0JWGQHFfJkDrpKPBpbhBQKOUZEBx+JTB
oIbvQMYDBEDsJprB4ZXjP+hPMMBIhY3B4zDqQMs5ukBECcXB0nEPQZZXlEAMibnB4WKcQAMLrEA6
48LBOC/mQGk8mr9SCL3BTjuwQKkrrsCSTpLBmebHQGt6PMDsALHBOLvMQMKmecDLLaDBovICQdMa
Q0BZnavBsBaDQHVocECKOrXBjZTbQC0gmj838rjBVHBWQDA4nsBDRYnB/6SRQP2ZCz52J53BHlA8
QA+Pr7/5PZzBZEaaQDPpaUC+8IXBar28QGTpDUDJ+IXBqV7SQDg2dkDzq4jB/p6pPhnES8AD/IHB
3rqTP4SEk8CSuofBfnkBQLCWZMCAkXzBxuJZQGl0HUBnTKjB9xoKQMb9ZEC87ZjBP5xEQEv0ekDk
e43BgXvjQEc6nkA8P7/Bk/D/QB2RhkAP2LjBIB23QFtgm0D7dr3Bl+TEQAdYR79bk7jBjTecQOno
hsCIFpLBloK7QLJC6b9ThrHBbxeTQLWSScB1H5nB7RnwQLyGWEDanbDB6RWnQPT5gECIRbXB9DvB
QBDDDD9dIbXBJa3GQC7/lcAh85DBn8uoQCz3Wb4nmaPBmRbfQHBxQsAZyZ3Bk3SuQG5Cxb/c/KbB
OMa0QIdmJcAFGJ/B33PDQGYAU0Dcoq7BPpGzQDuAWT/ej6rB/FzoQCiOgsBJspbB287JQGhxGkB/
xZvBVIGEQF5rRkAvtJnBrRCyQC13EkBbZabB6fi1QNUSV0B7xYnBjjQWQZl/csB7h47BeaCrQGWl
N0CCiZTBVKaFQIigJkD3aaPBMd9BQCS2bUAFP5XBsdfuQLAHBkCfwZnBLesIQaNMkcC02JXBHK7v
QM+TskCIh8XBnP0QQeWYiEDsPrrBP0uhQA+BrUBZZsLBH/DOQD3Kfr+zqMDBDLSCQOeQlcBQjo3B
EUi+QPk0NsCLKrTBarNlQDOAMcAy6pnB/QwDQToCNEAyw6vBRviEQFAmfUAyB7TBAuPIQN9arT9t
kbrBi1bNQG+AsMBAqYvBhUmcQJqhmLvVt5vBrZz4QLv3JMAsTKLBmF2YQONbakDTqoXBCcLFQPjw
I0DyL4XBS47LQDQ7h0DtZIrBiV0mQVwth8AfXI7BSSUXQeSFL8ALM5HBtTUPQVwBdcDWdYbBvjhY
QFV0HUCLGKjBsesLQLMpc0DPfpnBsYVEQC5MgkBLyI3BKA/hQOfNnkA7i7/BkUu1QOidlEAW2r7B
rAD+QEQFjkClBLjBLNnHQPbtRL/Za7jBxNmnQNbaisARE5PBNuW8QKOY5799dbHBTbuZQDBmVcB1
KJrBWk+mQM5ddEARjbbBbTTvQJzWZkAgu6/BQHnEQNPhDz+o/7TBUOzTQIjujsB9oJDBNvaoQMQe
Qr4bv6PB+PDjQNLiJsCTWZzBKKSuQEF4wr/jCafBv2y4QOz2H8AJ8p7B1/TCQBIDVEBMva7BC+S0
QD3gXT8hm6rBVi/yQF4+ZMBS+ZTBcHjKQLZTG0B9vZvBY9+EQPKlRUCls5nBleSyQDA7E0CrZ6bB
kfK1QNo4VkC5sInBy+0aQTJAGsASt5LBYgKsQNCNN0Dog5TBvFqGQKaKJkD6cKPB5uFBQEaEa0D9
O5XB8jTvQA5vBUD4n5nBY2MOQSi4aMD/yZHBJW3sQHaBs0AO2sXBrymfQAweoUCvtMTBrdIPQYuS
lUCjmrjBKOHSQLWufb86asDBP/mQQIN1oMBOgI/BomG/QPZ2NcBNFbTBsC5wQBdjTcCn3ZvBcb2E
QLdMZEDIH7bB4NYCQeEdTECpFKrBSc3NQGVlrj9IT7rBEYXeQO1KqMCmY4vBWnybQEZ6yjww+pvB
d8f6QNXe+L/QE6DBsCmYQAHIaEBOnYXBOMXFQO3qIkD6JIXBtl3LQCL4hkD6M4rBql8rQdU9JsAA
9o/BSTsbQZJxBcDhHpvB8qATQX/Tz79Lw43BNd9ZQBJNHUB3KajB/PQLQA1hcEDvf5nBgftDQGP7
gEBFv43B

>  <OMEGA_E>  (1) 
gAcWPAAAAAAE5Co/fBgxPw==

>  <OMEGA_NBR>  (1) 
     56386

$$$$
50215908
     RDKit          3D

 50 53  0  0  1  0  0  0  0  0999 V2000
    6.9881    5.1266  -23.8931 C   0  0  0  0  0  0  0  0  0  0  0  0
    5.6104    4.8841  -23.7387 C   0  0  0  0  0  0  0  0  0  0  0  0
    7.9168    4.4533  -23.0789 C   0  0  0  0  0  0  0  0  0  0  0  0
    6.6026   -0.9129  -22.7655 C   0  0  0  0  0  0  0  0  0  0  0  0
    4.9265   -4.5562  -18.5652 C   0  0  0  0  0  0  0  0  0  0  0  0
    6.0601   -1.8945  -21.9149 C   0  0  0  0  0  0  0  0  0  0  0  0
    5.4384   -3.6781  -19.5375 C   0  0  0  0  0  0  0  0  0  0  0  0
    5.1580    3.9757  -22.7644 C   0  0  0  0  0  0  0  0  0  0  0  0
    7.4693    3.5525  -22.0969 C   0  0  0  0  0  0  0  0  0  0  0  0
    6.4229    0.4543  -22.4783 C   0  0  0  0  0  0  0  0  0  0  0  0
    3.7056   -4.2715  -17.9217 C   0  0  0  0  0  0  0  0  0  0  0  0
    5.1326   -0.1408  -20.5036 C   0  0  0  0  0  0  0  0  0  0  0  0
    3.4970   -2.2308  -19.2305 C   0  0  0  0  0  0  0  0  0  0  0  0
    5.3063   -1.5072  -20.7861 C   0  0  0  0  0  0  0  0  0  0  0  0
    4.7330   -2.4994  -19.8604 C   0  0  0  0  0  0  0  0  0  0  0  0
    6.0826    3.3190  -21.9125 C   0  0  0  0  0  0  0  0  0  0  0  0
    5.6932    0.8512  -21.3290 C   0  0  0  0  0  0  0  0  0  0  0  0
    2.9752   -3.1010  -18.2595 C   0  0  0  0  0  0  0  0  0  0  0  0
    6.3514    2.4628  -19.5477 C   0  0  0  0  0  0  0  0  0  0  0  0
    4.1656    3.0653  -19.2365 C   0  0  0  0  0  0  0  0  0  0  0  0
    5.5969    2.3072  -20.8636 C   0  0  1  0  0  0  0  0  0  0  0  0
    5.7071    3.2129  -17.2319 C   0  0  0  0  0  0  0  0  0  0  0  0
    1.2768   -3.5718  -16.6022 C   0  0  0  0  0  0  0  0  0  0  0  0
    5.4455    3.0249  -18.6651 N   0  0  0  0  0  0  0  0  0  0  0  0
    4.2072    2.6138  -20.4689 N   0  0  0  0  0  0  0  0  0  0  0  0
    3.0105    3.5008  -18.6039 N   0  0  0  0  0  0  0  0  0  0  0  0
    7.4870    2.0807  -19.2845 O   0  0  0  0  0  0  0  0  0  0  0  0
    1.7635   -2.7443  -17.6819 O   0  0  0  0  0  0  0  0  0  0  0  0
    7.3324    5.8299  -24.6368 H   0  0  0  0  0  0  0  0  0  0  0  0
    4.8991    5.3963  -24.3696 H   0  0  0  0  0  0  0  0  0  0  0  0
    8.9746    4.6286  -23.2084 H   0  0  0  0  0  0  0  0  0  0  0  0
    7.1591   -1.2094  -23.6422 H   0  0  0  0  0  0  0  0  0  0  0  0
    5.4718   -5.4530  -18.3107 H   0  0  0  0  0  0  0  0  0  0  0  0
    6.2203   -2.9416  -22.1254 H   0  0  0  0  0  0  0  0  0  0  0  0
    6.3692   -3.9055  -20.0357 H   0  0  0  0  0  0  0  0  0  0  0  0
    4.1010    3.7774  -22.6645 H   0  0  0  0  0  0  0  0  0  0  0  0
    8.1869    3.0341  -21.4783 H   0  0  0  0  0  0  0  0  0  0  0  0
    6.8419    1.2022  -23.1351 H   0  0  0  0  0  0  0  0  0  0  0  0
    3.3239   -4.9455  -17.1691 H   0  0  0  0  0  0  0  0  0  0  0  0
    4.5584    0.1526  -19.6372 H   0  0  0  0  0  0  0  0  0  0  0  0
    2.9450   -1.3425  -19.4999 H   0  0  0  0  0  0  0  0  0  0  0  0
    4.8309    3.6780  -16.7566 H   0  0  0  0  0  0  0  0  0  0  0  0
    5.9029    2.2368  -16.7639 H   0  0  0  0  0  0  0  0  0  0  0  0
    6.5838    3.8644  -17.1016 H   0  0  0  0  0  0  0  0  0  0  0  0
    0.3155   -3.1770  -16.2415 H   0  0  0  0  0  0  0  0  0  0  0  0
    1.1378   -4.6015  -16.9635 H   0  0  0  0  0  0  0  0  0  0  0  0
    2.0068   -3.5674  -15.7793 H   0  0  0  0  0  0  0  0  0  0  0  0
    3.4085    2.4941  -21.0585 H   0  0  0  0  0  0  0  0  0  0  0  0
    2.1368    3.4826  -19.0901 H   0  0  0  0  0  0  0  0  0  0  0  0
    3.0514    3.8330  -17.6615 H   0  0  0  0  0  0  0  0  0  0  0  0
  1  2  2  0
  1  3  1  0
  2  8  1  0
  3  9  2  0
  4  6  2  0
  4 10  1  0
  5  7  2  0
  5 11  1  0
  6 14  1  0
  7 15  1  0
  8 16  2  0
  9 16  1  0
 10 17  2  0
 11 18  2  0
 12 14  2  0
 12 17  1  0
 13 15  2  0
 13 18  1  0
 14 15  1  0
 21 16  1  6
 17 21  1  0
 18 28  1  0
 19 21  1  0
 19 24  1  0
 19 27  2  0
 20 24  1  0
 20 25  2  0
 20 26  1  0
 21 25  1  0
 22 24  1  0
 23 28  1  0
  1 29  1  0
  2 30  1  0
  3 31  1  0
  4 32  1  0
  5 33  1  0
  6 34  1  0
  7 35  1  0
  8 36  1  0
  9 37  1  0
 10 38  1  0
 11 39  1  0
 12 40  1  0
 13 41  1  0
 22 42  1  0
 22 43  1  0
 22 44  1  0
 23 45  1  0
 23 46  1  0
 23 47  1  0
 25 48  1  0
 26 49  1  0
 26 50  1  0
M  CHG  1  25   1
M  END
>  <OMEGA_C>  (2) 
NJ7fQCINpED4JL/BvYizQDBKnEDx6L3BQFb9QIWBjkCeobjBIUjTQGKxab+pH7bBt6WdQH3MkcCO
hZTBJuzBQMB+8r+pUa/BTQeuQNVla8DBTJzB9g2lQO5xfkBpHbbBogTvQF1bY0CNxrDBBYjNQFiZ
6D6R07PBVShtQDewiMCWX4/BFT6kQBk0EL5dB6TBNc9fQP3FDsD615nB5cypQHrswL/pSabB1nSX
QFv2H8AL4p7BcqTCQEBrVEDfTK/Bhi62QPvmWT/koarBYmo+QNF2RsCNE5LBsz7LQBKfHUCsYZzB
ZUyFQFYuREBw5JnB4xmzQFypE0C16KbBbKC2QGefTUDZ2onBv26jP76YZMA10YTBvUGuQHWYQUAe
UpXBh6GGQIBIJ0BQwKPBa6tAQNINYEC51JTBjpXvQIYqBUCpRprBw7rhP1OiL8CNdI3BraLqQM+O
ukA0GMXBb8WcQGaurED99MLByJcPQeMdlEDHqrnBUBflQP3Lmr9TI73BxBivQBp/rsA6fJLBZAzH
QOhCPMDrALHBodDLQDLzecAwSaDBqTuDQGbAcUDRULXBsv0CQWIvQkB606vBt/DaQLfimT+5FLnB
D7tUQMZBnsA8WonBad6RQDBIHD4GGZ3BC3s8QMrXq7++/5vBgZaaQNJka0CHDYbBJuS8QHMnD0CG
HIbBOa7SQKBRd0AS0IjBO4yhPlxUS8Co7oHBpqSRPyI/k8AmtYfB3m4AQPlPZMDXd3zBMyRaQGqf
H0Ded6jBvcEIQDLjXkCIuJjB7UlDQF5QdUDXSo3BxkPfQAXMo0CpDr/BIhH9QAKQjkDYgLjBOjiz
QPLSm0Be073B6BTUQB69ab+RDbbBI46eQAK0kcDpa5TBo5nCQAkS878PT6/BI8quQLNza8D6PpzB
097uQGamY0BznLDBqt+kQLSJfUCNA7bB7BHOQIrN5z5JvbPBI6huQATCiMAUVI/BCk2kQCUEHL74
DKTBx0JgQAH2D8CV+ZnBpyCqQFYqwr+NU6bBwNqXQPy4IMCA8Z7B6YjCQP4XVECoKa/BJ1O2QB79
Vz9pl6rBo1I/QBs2R8DXIpLBzSvLQCphHEC/QZzBrW2FQC36REBR3ZnBUxizQOr3EkDqzabB4GW2
QCFQTECCuYnBbHWlPyQQZcAv3YTBtCWuQFkoQEB0MZXB0JWGQHFfJkDrpKPBpbhBQKOUZEBx+JTB
oIbvQMYDBEDsJprB4ZXjP+hPMMBIhY3B4zDqQMs5ukBECcXB0nEPQZZXlEAMibnB4WKcQAMLrEA6
48LBOC/mQGk8mr9SCL3BTjuwQKkrrsCSTpLBmebHQGt6PMDsALHBOLvMQMKmecDLLaDBovICQdMa
Q0BZnavBsBaDQHVocECKOrXBjZTbQC0gmj838rjBVHBWQDA4nsBDRYnB/6SRQP2ZCz52J53BHlA8
QA+Pr7/5PZzBZEaaQDPpaUC+8IXBar28QGTpDUDJ+IXBqV7SQDg2dkDzq4jB/p6pPhnES8AD/IHB
3rqTP4SEk8CSuofBfnkBQLCWZMCAkXzBxuJZQGl0HUBnTKjB9xoKQMb9ZEC87ZjBP5xEQEv0ekDk
e43BgXvjQEc6nkA8P7/Bk/D/QB2RhkAP2LjBIB23QFtgm0D7dr3Bl+TEQAdYR79bk7jBjTecQOno
hsCIFpLBloK7QLJC6b9ThrHBbxeTQLWSScB1H5nB7RnwQLyGWEDanbDB6RWnQPT5gECIRbXB9DvB
QBDDDD9dIbXBJa3GQC7/lcAh85DBn8uoQCz3Wb4nmaPBmRbfQHBxQsAZyZ3Bk3SuQG5Cxb/c/KbB
OMa0QIdmJcAFGJ/B33PDQGYAU0Dcoq7BPpGzQDuAWT/ej6rB/FzoQCiOgsBJspbB287JQGhxGkB/
xZvBVIGEQF5rRkAvtJnBrRCyQC13EkBbZabB6fi1QNUSV0B7xYnBjjQWQZl/csB7h47BeaCrQGWl
N0CCiZTBVKaFQIigJkD3aaPBMd9BQCS2bUAFP5XBsdfuQLAHBkCfwZnBLesIQaNMkcC02JXBHK7v
QM+TskCIh8XBnP0QQeWYiEDsPrrBP0uhQA+BrUBZZsLBH/DOQD3Kfr+zqMDBDLSCQOeQlcBQjo3B
EUi+QPk0NsCLKrTBarNlQDOAMcAy6pnB/QwDQToCNEAyw6vBRviEQFAmfUAyB7TBAuPIQN9arT9t
kbrBi1bNQG+AsMBAqYvBhUmcQJqhmLvVt5vBrZz4QLv3JMAsTKLBmF2YQONbakDTqoXBCcLFQPjw
I0DyL4XBS47LQDQ7h0DtZIrBiV0mQVwth8AfXI7BSSUXQeSFL8ALM5HBtTUPQVwBdcDWdYbBvjhY
QFV0HUCLGKjBsesLQLMpc0DPfpnBsYVEQC5MgkBLyI3BKA/hQOfNnkA7i7/BkUu1QOidlEAW2r7B
rAD+QEQFjkClBLjBLNnHQPbtRL/Za7jBxNmnQNbaisARE5PBNuW8QKOY5799dbHBTbuZQDBmVcB1
KJrBWk+mQM5ddEARjbbBbTTvQJzWZkAgu6/BQHnEQNPhDz+o/7TBUOzTQIjujsB9oJDBNvaoQMQe
Qr4bv6PB+PDjQNLiJsCTWZzBKKSuQEF4wr/jCafBv2y4QOz2H8AJ8p7B1/TCQBIDVEBMva7BC+S0
QD3gXT8hm6rBVi/yQF4+ZMBS+ZTBcHjKQLZTG0B9vZvBY9+EQPKlRUCls5nBleSyQDA7E0CrZ6bB
kfK1QNo4VkC5sInBy+0aQTJAGsASt5LBYgKsQNCNN0Dog5TBvFqGQKaKJkD6cKPB5uFBQEaEa0D9
O5XB8jTvQA5vBUD4n5nBY2MOQSi4aMD/yZHBJW3sQHaBs0AO2sXBrymfQAweoUCvtMTBrdIPQYuS
lUCjmrjBKOHSQLWufb86asDBP/mQQIN1oMBOgI/BomG/QPZ2NcBNFbTBsC5wQBdjTcCn3ZvBcb2E
QLdMZEDIH7bB4NYCQeEdTECpFKrBSc3NQGVlrj9IT7rBEYXeQO1KqMCmY4vBWnybQEZ6yjww+pvB
d8f6QNXe+L/QE6DBsCmYQAHIaEBOnYXBOMXFQO3qIkD6JIXBtl3LQCL4hkD6M4rBql8rQdU9JsAA
9o/BSTsbQZJxBcDhHpvB8qATQX/Tz79Lw43BNd9ZQBJNHUB3KajB/PQLQA1hcEDvf5nBgftDQGP7
gEBFv43B

>  <OMEGA_E>  (2) 
gAcWPAAAAAAE5Co/fBgxPw==

>  <OMEGA_NBR>  (2) 
     46886

$$$$
50145440
     RDKit          3D

 46 48  0  0  0  0  0  0  0  0999 V2000
    7.3146   -0.4582  -22.4134 C   0  0  0  0  0  0  0  0  0  0  0  0
    1.3086   -0.8841  -20.9695 C   0  0  0  0  0  0  0  0  0  0  0  0
    6.1325   -0.9645  -21.8562 C   0  0  0  0  0  0  0  0  0  0  0  0
    2.4571   -0.2998  -21.5380 C   0  0  0  0  0  0  0  0  0  0  0  0
    7.3680    0.8686  -22.8612 C   0  0  0  0  0  0  0  0  0  0  0  0
    1.4318   -1.8871  -19.9895 C   0  0  0  0  0  0  0  0  0  0  0  0
    5.0196    1.1745  -22.2574 C   0  0  0  0  0  0  0  0  0  0  0  0
    3.8568   -1.7269  -20.1381 C   0  0  0  0  0  0  0  0  0  0  0  0
    4.9739   -0.1573  -21.7593 C   0  0  0  0  0  0  0  0  0  0  0  0
    3.7443   -0.7263  -21.1376 C   0  0  0  0  0  0  0  0  0  0  0  0
    6.2379    1.7042  -22.7670 C   0  0  0  0  0  0  0  0  0  0  0  0
    2.7030   -2.3068  -19.5516 C   0  0  0  0  0  0  0  0  0  0  0  0
    6.8175    4.1385  -20.3848 C   0  0  0  0  0  0  0  0  0  0  0  0
    5.6077    4.0731  -21.0439 C   0  0  0  0  0  0  0  0  0  0  0  0
    6.8273    3.9681  -18.9272 C   0  0  0  0  0  0  0  0  0  0  0  0
    4.4219    3.6685  -19.0347 C   0  0  0  0  0  0  0  0  0  0  0  0
    5.5569    3.6125  -16.7948 C   0  0  0  0  0  0  0  0  0  0  0  0
    4.0177   -3.4450  -17.8624 C   0  0  0  0  0  0  0  0  0  0  0  0
    6.3768    3.1362  -23.2917 C   0  0  0  0  0  0  0  0  0  0  0  0
    5.5290    4.1941  -22.5533 C   0  0  0  0  0  0  0  0  0  0  0  0
    4.4152    3.8467  -20.3417 N   0  0  0  0  0  0  0  0  0  0  0  0
    5.6146    3.7062  -18.2740 N   0  0  0  0  0  0  0  0  0  0  0  0
    3.1974    3.4342  -18.4188 N   0  0  0  0  0  0  0  0  0  0  0  0
    7.8884    4.0455  -18.3182 O   0  0  0  0  0  0  0  0  0  0  0  0
    2.7544   -3.2707  -18.5507 O   0  0  0  0  0  0  0  0  0  0  0  0
    8.1854   -1.0915  -22.4978 H   0  0  0  0  0  0  0  0  0  0  0  0
    0.3282   -0.5610  -21.2871 H   0  0  0  0  0  0  0  0  0  0  0  0
    6.1054   -1.9824  -21.4965 H   0  0  0  0  0  0  0  0  0  0  0  0
    2.3543    0.4764  -22.2819 H   0  0  0  0  0  0  0  0  0  0  0  0
    8.2846    1.2543  -23.2826 H   0  0  0  0  0  0  0  0  0  0  0  0
    0.5447   -2.3384  -19.5701 H   0  0  0  0  0  0  0  0  0  0  0  0
    4.1284    1.7843  -22.2486 H   0  0  0  0  0  0  0  0  0  0  0  0
    4.8360   -2.0518  -19.8190 H   0  0  0  0  0  0  0  0  0  0  0  0
    7.7350    4.3107  -20.9279 H   0  0  0  0  0  0  0  0  0  0  0  0
    4.5239    3.4030  -16.4802 H   0  0  0  0  0  0  0  0  0  0  0  0
    6.2159    2.8009  -16.4530 H   0  0  0  0  0  0  0  0  0  0  0  0
    5.8884    4.5643  -16.3541 H   0  0  0  0  0  0  0  0  0  0  0  0
    3.9159   -4.2334  -17.1020 H   0  0  0  0  0  0  0  0  0  0  0  0
    4.7933   -3.7330  -18.5873 H   0  0  0  0  0  0  0  0  0  0  0  0
    4.3032   -2.5009  -17.3756 H   0  0  0  0  0  0  0  0  0  0  0  0
    7.4339    3.4282  -23.2069 H   0  0  0  0  0  0  0  0  0  0  0  0
    6.0789    3.1406  -24.3506 H   0  0  0  0  0  0  0  0  0  0  0  0
    4.4789    4.0769  -22.8594 H   0  0  0  0  0  0  0  0  0  0  0  0
    5.8861    5.1933  -22.8433 H   0  0  0  0  0  0  0  0  0  0  0  0
    2.4714    3.4395  -19.1066 H   0  0  0  0  0  0  0  0  0  0  0  0
    3.2183    2.5442  -17.9634 H   0  0  0  0  0  0  0  0  0  0  0  0
  1  3  2  0
  1  5  1  0
  2  4  2  0
  2  6  1  0
  3  9  1  0
  4 10  1  0
  5 11  2  0
  6 12  2  0
  7  9  2  0
  7 11  1  0
  8 10  2  0
  8 12  1  0
  9 10  1  0
 11 19  1  0
 12 25  1  0
 13 14  2  0
 13 15  1  0
 14 20  1  0
 14 21  1  0
 15 22  1  0
 15 24  2  0
 16 21  2  0
 16 22  1  0
 16 23  1  0
 17 22  1  0
 18 25  1  0
 19 20  1  0
  1 26  1  0
  2 27  1  0
  3 28  1  0
  4 29  1  0
  5 30  1  0
  6 31  1  0
  7 32  1  0
  8 33  1  0
 13 34  1  0
 17 35  1  0
 17 36  1  0
 17 37  1  0
 18 38  1  0
 18 39  1  0
 18 40  1  0
 19 41  1  0
 19 42  1  0
 20 43  1  0
 20 44  1  0
 23 45  1  0
 23 46  1  0
M  END
>  <OMEGA_C>  (3) 
LBHqQGWf6r6tTrPBpn+nPxFXYr+MwafBqj3EQJvmdr+H2a7B/EAdQI18mb7gTazB1sbrQNpdXj+5
47bB6kW3Px2O8b9m6p/B+KCgQKpUlj8YD7LB2dV2QIMJ3b/fGqHBySmfQO4bIb4dE67B3aFvQO7x
Ob/nGanBBp3HQGgj2j/VIrbBaf4sQL6iE8CpaZzBKCnaQDhuhEAEFKPBUnKzQA1XgkABWqjBFXna
QAr2fUDjapfB3H+NQADIakD4RpjB+NGxQJ0zZ0DaW4bBBJGAQJt7XMBI5o7Bkg7MQOu2SEBOVbrB
Re2wQCo2hkAabbTBmkmNQHAwdkDDu6LBkKqzQNEybUAuMZLBfKFMQE7JW0DKWZPBZm38QKR0gUCm
i5LBgUgwQEJTUcDFZ5TBc/cCQci0i7+S+7PB+wuoPr2fD78HTKrBJ1/DQCnA/b/S+KvBJKwWQB/o
8z5nQbLBqI0EQV6MoD/AQrrB/3MLP7SnFcB6j5zBoxuEQCNl5D8t/bHB5cCaQHNRA8A+jZ7BDoX3
QDHxiUBXbKfBnMOQQIDKWUB414PBDunGQIpBM0DEn4PBpG28QIsOkkAo1YLBY516QJ93h8D/0IjB
/mKZQLDpbsDcspTBELSJQEgOIMA8AYvBnuLtQHpnW0Cwp7nBtobCQPr+SEDwzcLBelOPQLl1gkAF
4LbBsFq8QG4vpkAWv7bBkyseQKcgXEBD2pjBAvlNQJXTIkD2tI/BqN7nQEp9Mb9hnLbBTQi/P/kO
6r5XnqPBVfTCQChHlL+eVrHBAx0nQA4S0Ly9e6nBiSXsQGosLD+rHrnBE1fLP1YCy7+88pzB7RWl
QLsIiz/F2LHBZvF7QLjk6r8M0KHBYGWhQAt8hr7evK7BSCx2QFUAN7/XqajBvPXKQG/NyT/WorbB
2KIzQItoEsBd/5vBv42KQMWYj0B1V6LB3dKrQHEKeEDUq6fBk/2FQDkziECmy5bBd1fDQIJ3MUBb
6pfBT7ifQBPCRkAPI4bBTcWCQF0jhMCwiZTB/ULRQLp8REBK/LjBmaqvQPTmgEDfzbPBL6nIQL/0
QkBxIqLBxeOhQGUzVkC+05HBEk3gQGPb8T+4Q5PBundTQOTqmkDg2JHBmYI1QDCLWcCKUZXBS30A
Qbtusb+uvLjBYcoOP4i1oD3bO6TBCTLAQO0CDcDDQ6/BVeYhQFkyVj+Epa7B0HYEQSy+gz9N9bzB
rA45P3yK9b/chJjBoYWKQJr/4D/XjLDBbB2cQFKeFsDw/qDBHZ5oQP/xo0DXkKbBaRS4QJlWF0BN
2oPBGq+lQPGHgUAT2YHB4I1/QOhtLkDYCITBTa99QPdEn8CaBI/BAN2LQOEhkMApfpzBbfKbQBdw
XcBIg5HBxRvxQCIAV0BfCbbBE+zPQD9kTUBatcHBuDiQQLaAdECDZLfBQgi5QCMUokBPlbXBg4n1
QDC/yz8twZjB8JrvQC0+FkAfRY3BwHfqQJWkjr6dQbLB/JimP/Zij7/ARqjB+vfFQLfDZr+D8a3B
lAQcQPuMA78DyazBfpvnQFYvgz9TcbbBGCm5Pwc0BcA+IqDBk3qbQM2iiT+QKrLBGJN3QPJ96L/+
4qDB4xueQK3dZb5A0K3BcvNuQL4jXL8AIqnB+xrAQOMP2z9pW7bBRpMuQCQ5HMDjX5zBXNCNQGhz
mEDDQ6HB6deoQLYBg0CbIqjBItaXQGuEmEDPx5XBY6XVQArOWEC14pnBJPnHQNcLgUCozIbBPhuE
QOy0ccBqopDBNoe9QBgbSUDZo7rBgSmfQAligkCcGrTBPErNQMnKW0DqMqTBz1a7QN/jgEBnO5LB
P935QLNbK0CkxJbBW/uAQAC/rEAenI/BMIwzQOaDWcBGVZTBwloEQdQdTb/KWrLBkeKhPjIhWb97
EKvByFPIQGNC87/0tqrBf6EUQEduYD4LELPB1NgBQXAywD/UurnBvOoRP0wKI8C/u5zBKyZ6QIRU
yz8HSrLBn0WbQBbJBMAm/J3BnLZjQNHbqECcQqTB31rkQCBmWUDesYXBQnfPQDf1oUCJTYTBN3et
QIM1aUB06oHBnzaBQNMskcBwUIrBtZuWQKoHhsBpW5fBtZeUQIgIOcAfbo3BjN/dQF7aZEBnfbrB
aumxQGKbRkDv8MLBTSB8QAGUbkDQO7XBx1miQD0po0AINrfBUSkEQZcwE0DoO53BHgEHQQ+QUkC7
8ZLB

>  <OMEGA_E>  (3) 
QLJRPSCCaz9oo1M/

>  <OMEGA_NBR>  (3) 
      8915

$$$$
50145430
     RDKit          3D

 46 48  0  0  1  0  0  0  0  0999 V2000
    7.0155   -1.0258  -22.2940 C   0  0  0  0  0  0  0  0  0  0  0  0
    4.9884   -4.3376  -18.0582 C   0  0  0  0  0  0  0  0  0  0  0  0
    6.4079   -1.9125  -21.3933 C   0  0  0  0  0  0  0  0  0  0  0  0
    5.5582   -3.4644  -18.9998 C   0  0  0  0  0  0  0  0  0  0  0  0
    6.6387    0.3255  -22.3127 C   0  0  0  0  0  0  0  0  0  0  0  0
    3.6647   -4.1441  -17.6253 C   0  0  0  0  0  0  0  0  0  0  0  0
    5.0325   -0.0893  -20.5260 C   0  0  0  0  0  0  0  0  0  0  0  0
    3.4710   -2.2042  -19.0916 C   0  0  0  0  0  0  0  0  0  0  0  0
    5.4146   -1.4529  -20.4991 C   0  0  0  0  0  0  0  0  0  0  0  0
    4.8045   -2.3879  -19.5241 C   0  0  0  0  0  0  0  0  0  0  0  0
    5.6390    0.8122  -21.4369 C   0  0  0  0  0  0  0  0  0  0  0  0
    2.8969   -3.0640  -18.1356 C   0  0  0  0  0  0  0  0  0  0  0  0
    6.6581    2.9580  -19.4289 C   0  0  0  0  0  0  0  0  0  0  0  0
    4.2362    2.9815  -19.3140 C   0  0  0  0  0  0  0  0  0  0  0  0
    6.5369    3.1216  -20.9482 C   0  0  0  0  0  0  0  0  0  0  0  0
    5.3052    2.3182  -21.4423 C   0  0  1  0  0  0  0  0  0  0  0  0
    4.9359    2.7675  -22.8745 C   0  0  0  0  0  0  0  0  0  0  0  0
    5.5556    3.0938  -17.1834 C   0  0  0  0  0  0  0  0  0  0  0  0
    1.1172   -3.4681  -16.5514 C   0  0  0  0  0  0  0  0  0  0  0  0
    5.4868    2.9658  -18.6580 N   0  0  0  0  0  0  0  0  0  0  0  0
    4.1261    2.6606  -20.5868 N   0  0  0  0  0  0  0  0  0  0  0  0
    3.0743    3.3079  -18.6259 N   0  0  0  0  0  0  0  0  0  0  0  0
    7.7691    2.9844  -18.9111 O   0  0  0  0  0  0  0  0  0  0  0  0
    1.5950   -2.7932  -17.7380 O   0  0  0  0  0  0  0  0  0  0  0  0
    7.7744   -1.3835  -22.9741 H   0  0  0  0  0  0  0  0  0  0  0  0
    5.5686   -5.1598  -17.6659 H   0  0  0  0  0  0  0  0  0  0  0  0
    6.7006   -2.9520  -21.3829 H   0  0  0  0  0  0  0  0  0  0  0  0
    6.5769   -3.6157  -19.3251 H   0  0  0  0  0  0  0  0  0  0  0  0
    7.1175    1.0030  -23.0041 H   0  0  0  0  0  0  0  0  0  0  0  0
    3.2306   -4.8189  -16.9024 H   0  0  0  0  0  0  0  0  0  0  0  0
    4.2723    0.2670  -19.8465 H   0  0  0  0  0  0  0  0  0  0  0  0
    2.8852   -1.3939  -19.4997 H   0  0  0  0  0  0  0  0  0  0  0  0
    6.4076    4.1855  -21.1961 H   0  0  0  0  0  0  0  0  0  0  0  0
    7.4465    2.7397  -21.4347 H   0  0  0  0  0  0  0  0  0  0  0  0
    4.6989    3.8417  -22.8727 H   0  0  0  0  0  0  0  0  0  0  0  0
    5.7855    2.5807  -23.5478 H   0  0  0  0  0  0  0  0  0  0  0  0
    4.0605    2.1996  -23.2225 H   0  0  0  0  0  0  0  0  0  0  0  0
    4.5381    3.0792  -16.7658 H   0  0  0  0  0  0  0  0  0  0  0  0
    6.1338    2.2546  -16.7693 H   0  0  0  0  0  0  0  0  0  0  0  0
    6.0463    4.0424  -16.9203 H   0  0  0  0  0  0  0  0  0  0  0  0
    0.0788   -3.1658  -16.3501 H   0  0  0  0  0  0  0  0  0  0  0  0
    1.1586   -4.5562  -16.7069 H   0  0  0  0  0  0  0  0  0  0  0  0
    1.7509   -3.1957  -15.6945 H   0  0  0  0  0  0  0  0  0  0  0  0
    3.2153    2.6452  -20.9992 H   0  0  0  0  0  0  0  0  0  0  0  0
    2.1929    3.2941  -19.0982 H   0  0  0  0  0  0  0  0  0  0  0  0
    3.1192    3.5566  -17.6584 H   0  0  0  0  0  0  0  0  0  0  0  0
  1  3  2  0
  1  5  1  0
  2  4  2  0
  2  6  1  0
  3  9  1  0
  4 10  1  0
  5 11  2  0
  6 12  2  0
  7  9  2  0
  7 11  1  0
  8 10  2  0
  8 12  1  0
  9 10  1  0
 11 16  1  0
 12 24  1  0
 13 15  1  0
 13 20  1  0
 13 23  2  0
 14 20  1  0
 14 21  2  0
 14 22  1  0
 15 16  1  0
 16 17  1  6
 16 21  1  0
 18 20  1  0
 19 24  1  0
  1 25  1  0
  2 26  1  0
  3 27  1  0
  4 28  1  0
  5 29  1  0
  6 30  1  0
  7 31  1  0
  8 32  1  0
 15 33  1  0
 15 34  1  0
 17 35  1  0
 17 36  1  0
 17 37  1  0
 18 38  1  0
 18 39  1  0
 18 40  1  0
 19 41  1  0
 19 42  1  0
 19 43  1  0
 21 44  1  0
 22 45  1  0
 22 46  1  0
M  CHG  1  21   1
M  END
>  <OMEGA_C>  (4) 
zH7gQCRMg78ZWrLBx6CfQPnNisBDd5DBnQ3NQPPM9L9yJavBIt2xQB+5XcCN/5fBCXDUQFyupj5p
gLLBXopqQEachMCZAI3BEgqhQEzgtr0uNaTBqiVeQEcRDcCHu5jBwUStQD76ub8X/qPBq76ZQKHS
GMBfMZzBWnK0QELpTz/IfqvBhmY5QC8ZRMC0FZHBWw/VQFpPPUBdbpvBOY+HQOfQPkACg5rB+i3R
QMzIR0D3lafBSsSpQDRdFEDoiavB5/KdQG8eMUDq/rbBasexQAAARkCqd4nBhf+OP870XcBNaYTB
HpSvQDPPPUCDQ5XBWQmEQMxHKkDVsaTBrMBEQGy0U0DZAZXBVZz4QM8AP0AESpfBLSrMPzLDMsBv
543BiMf4QJQXsb/lyrfBmTGyQNscpcDXU43BOGvWQDfuPMA5EKvBMnbSQDhnZ8C4mZrBzMLjQNpj
gD99CLjBQcJOQIQ0msAgOIfB7baIQMSwiD6txZ7B8aY4QNZpsr9P/5vBKQvNQNXvhUCGkanBzknu
QFJXL0BNeqvBml2WQJ/ddUA/+7bBnyK5QOIpJUDTYbzBa++BQPXFDECqx7nB7zeRQBkSRUBEIIbB
VUjEQBBMEEBvJ4bBSHvBQJNbgUDbXIfBhnWhPTCdSsALzYLBTU2UP6/MkcC0p4XBjxzgP3yGTMDQ
HHvBD8dNQE9LKUB0/qfBo1gMQBbSUkAKyZjBiqFHQNefY0BbRI3BMDDMQOCIlL/1hrXBMARYQDRA
PMCjc4zBkOK8QJRdBcAmCq7B0M1xQGSIBMAirpTBSHbKQMABWj6mRLPBoNF9QJLthsADxovBUC+s
QEAZiL4i0aHBFPmfQAxoeMArJp3BXIKqQEgm0L+3VKTBaNOUQORIIsC/3ZzBuNi7QGAcKz+MKqnB
gE6bQKpQlMB84pPBlKm8QMgQaUAieJXB3tSBQMjvbkDmN6LBLH7OQBwmGUDa+5rBAFm5QKiECUBS
M6bBmsTPQCqoQkCeqK7BqreJQAK8sUABiJTB9EDmQJqbncDRmJLBdEOXQH5ZiEAfNZnBAr+LQIY6
I0ByAqbBsJ9JQDrkj0Bb/afBbvXOQDZ9gUBbbI3BeHq7QIavsMAun5HBok7ZQPaFwL9lCL3BkPQn
QFq7KMDbvYbB3w6/QEcjScDzpa/B9zpbQJlqhr8DyZTBMlPUQANobT+CQrnBV39vQBrCm8CdHYXB
bDahQFSxjj12E5rBc/2rQHmVisCSaKTB3DLxQIsSIUC6EZzBm1jIQNduwj+S3ZXBFkzNQOIXg0Da
P6zBebLxQFmGMEDYQK/BZDfAQKDFOUCHebbBbe1XQMlwvECzZZjB7jWEQOjArUCU5YvBg+yiQAPB
yUDv0pXBBqf+QCjPtcBCsZDBSAPrQJ0dksBG1JrBoyLpQLaYgsAfAI3BCQRqQEt09z9ctqjBNJMw
QHdzhEDvxa7BNtg4QPPurECPXaXBmBi5QEiTrL9HebTBCsO1QH8ZdsCc4IrBQRC9QEkS/7+GiKrB
LY+xQD8FTsAb4pTBXVS0QJz/Sj3T/rTBExXJQNOnSsAxSoLBf2O2QCBEHz7Oj6HBXiDUQBMznL88
uI3BNxC8QDbAnr/3+aDB5qnAQLNJ87/NZ5bB3MeyQM7YUz/Lf6vB1oPYQGm767/VpYPBDrPWQL7k
QkAeApvBn36IQHY5QkACA5vB1SzWQE0xRUCsSKfBo5StQN7WF0AhxavBrTymQGvIOUCWULfBHdCv
QL41SUAafInB26jwQGqC4b9KcWLB8suvQHABSUAuYJXBShKHQBn5MEDrWaXBOzBDQAbmSkD+qpXB
/Ej5QBAMQEDVXpbBzBLsQBR9jr9bDnfBarW5QOfs9r+PwbvBDRqqQJZIm8CRxonBQuLAQE4uRMCj
M6rB/LeiQEnYb8D3cJvBnNOxQIv6CD8PsLzB0jLMQO3tacCfP3XBJb+0QJJcOj8rP5rB6r7fQBrV
Wb4C1Y7B71TWQHUehEC696nBkdnyQA13JED2VarBfb2iQFnRf0BlH7fBisXBQEqWKECtW7zBiwCJ
QFnyHEDMorrBE7yOQO9fTkC7i4bBJya+QFhkDUCjiYbBNZTCQJoBgECckYbBL0QAQZnHib/ZMVfB
V9vQQCHdAcCTOlzBWggCQe0JK8BiQmTBdrBVQKPiNECMFqnBqisMQLcQREAqqpnB0mFCQKX0V0A8
1o3B

>  <OMEGA_E>  (4) 
AAAAAHapcz9wFmc/

>  <OMEGA_NBR>  (4) 
      3517

$$$$
50145427
     RDKit          3D

 52 54  0  0  1  0  0  0  0  0999 V2000
    6.3813   -2.7343  -21.8977 C   0  0  0  0  0  0  0  0  0  0  0  0
    5.8431   -4.8195  -16.6760 C   0  0  0  0  0  0  0  0  0  0  0  0
    6.0831   -3.3304  -20.6632 C   0  0  0  0  0  0  0  0  0  0  0  0
    5.3494   -4.3585  -17.9101 C   0  0  0  0  0  0  0  0  0  0  0  0
    5.9518   -1.4234  -22.1635 C   0  0  0  0  0  0  0  0  0  0  0  0
    6.5774   -3.9547  -15.8358 C   0  0  0  0  0  0  0  0  0  0  0  0
    4.8971   -1.3123  -19.9664 C   0  0  0  0  0  0  0  0  0  0  0  0
    6.2523   -2.1403  -17.4243 C   0  0  0  0  0  0  0  0  0  0  0  0
    5.3934   -2.5980  -19.6747 C   0  0  0  0  0  0  0  0  0  0  0  0
    5.5623   -3.0176  -18.2878 C   0  0  0  0  0  0  0  0  0  0  0  0
    5.1701   -0.7297  -21.2177 C   0  0  0  0  0  0  0  0  0  0  0  0
    6.7966   -2.6015  -16.2137 C   0  0  0  0  0  0  0  0  0  0  0  0
    6.7561    3.6871  -18.8513 C   0  0  0  0  0  0  0  0  0  0  0  0
    4.3331    3.4754  -18.9919 C   0  0  0  0  0  0  0  0  0  0  0  0
    6.8036    3.8931  -20.3716 C   0  0  0  0  0  0  0  0  0  0  0  0
    5.6461    3.1033  -21.0229 C   0  0  1  0  0  0  0  0  0  0  0  0
    5.4917    3.5467  -22.4938 C   0  0  0  0  0  0  0  0  0  0  0  0
    5.4340    3.4060  -16.7403 C   0  0  0  0  0  0  0  0  0  0  0  0
    8.2342   -2.1977  -14.3003 C   0  0  0  0  0  0  0  0  0  0  0  0
    4.8039    0.7054  -21.4649 C   0  0  0  0  0  0  0  0  0  0  0  0
    5.9531    1.5834  -20.9332 C   0  0  0  0  0  0  0  0  0  0  0  0
    5.5093    3.5722  -18.2115 N   0  0  0  0  0  0  0  0  0  0  0  0
    4.3820    3.4161  -20.3043 N   0  0  0  0  0  0  0  0  0  0  0  0
    3.0794    3.4223  -18.3960 N   0  0  0  0  0  0  0  0  0  0  0  0
    7.8055    3.7075  -18.2181 O   0  0  0  0  0  0  0  0  0  0  0  0
    7.5663   -1.6997  -15.4842 O   0  0  0  0  0  0  0  0  0  0  0  0
    6.9398   -3.2821  -22.6422 H   0  0  0  0  0  0  0  0  0  0  0  0
    5.6596   -5.8389  -16.3701 H   0  0  0  0  0  0  0  0  0  0  0  0
    6.3816   -4.3501  -20.4698 H   0  0  0  0  0  0  0  0  0  0  0  0
    4.8106   -5.0281  -18.5641 H   0  0  0  0  0  0  0  0  0  0  0  0
    6.2211   -0.9462  -23.0941 H   0  0  0  0  0  0  0  0  0  0  0  0
    6.9747   -4.3227  -14.9014 H   0  0  0  0  0  0  0  0  0  0  0  0
    4.3107   -0.7771  -19.2342 H   0  0  0  0  0  0  0  0  0  0  0  0
    6.3633   -1.1012  -17.6973 H   0  0  0  0  0  0  0  0  0  0  0  0
    6.6955    4.9632  -20.6023 H   0  0  0  0  0  0  0  0  0  0  0  0
    7.7648    3.5288  -20.7632 H   0  0  0  0  0  0  0  0  0  0  0  0
    4.6685    2.9868  -22.9616 H   0  0  0  0  0  0  0  0  0  0  0  0
    5.2701    4.6235  -22.5307 H   0  0  0  0  0  0  0  0  0  0  0  0
    6.4268    3.3459  -23.0372 H   0  0  0  0  0  0  0  0  0  0  0  0
    4.3804    3.3348  -16.4323 H   0  0  0  0  0  0  0  0  0  0  0  0
    5.9643    2.4878  -16.4475 H   0  0  0  0  0  0  0  0  0  0  0  0
    5.9017    4.2720  -16.2491 H   0  0  0  0  0  0  0  0  0  0  0  0
    8.8013   -1.3819  -13.8281 H   0  0  0  0  0  0  0  0  0  0  0  0
    7.4859   -2.5820  -13.5916 H   0  0  0  0  0  0  0  0  0  0  0  0
    8.9230   -3.0079  -14.5816 H   0  0  0  0  0  0  0  0  0  0  0  0
    4.6699    0.8770  -22.5431 H   0  0  0  0  0  0  0  0  0  0  0  0
    3.8708    0.9499  -20.9360 H   0  0  0  0  0  0  0  0  0  0  0  0
    6.8572    1.3729  -21.5234 H   0  0  0  0  0  0  0  0  0  0  0  0
    6.1343    1.3238  -19.8797 H   0  0  0  0  0  0  0  0  0  0  0  0
    3.5495    3.5853  -20.8319 H   0  0  0  0  0  0  0  0  0  0  0  0
    2.2594    3.3421  -18.9627 H   0  0  0  0  0  0  0  0  0  0  0  0
    2.9969    3.4643  -17.4003 H   0  0  0  0  0  0  0  0  0  0  0  0
  1  3  2  0
  1  5  1  0
  2  4  2  0
  2  6  1  0
  3  9  1  0
  4 10  1  0
  5 11  2  0
  6 12  2  0
  7  9  2  0
  7 11  1  0
  8 10  2  0
  8 12  1  0
  9 10  1  0
 11 20  1  0
 12 26  1  0
 13 15  1  0
 13 22  1  0
 13 25  2  0
 14 22  1  0
 14 23  2  0
 14 24  1  0
 15 16  1  0
 16 17  1  6
 16 21  1  0
 16 23  1  0
 18 22  1  0
 19 26  1  0
 20 21  1  0
  1 27  1  0
  2 28  1  0
  3 29  1  0
  4 30  1  0
  5 31  1  0
  6 32  1  0
  7 33  1  0
  8 34  1  0
 15 35  1  0
 15 36  1  0
 17 37  1  0
 17 38  1  0
 17 39  1  0
 18 40  1  0
 18 41  1  0
 18 42  1  0
 19 43  1  0
 19 44  1  0
 19 45  1  0
 20 46  1  0
 20 47  1  0
 21 48  1  0
 21 49  1  0
 23 50  1  0
 24 51  1  0
 24 52  1  0
M  CHG  1  23   1
M  END
>  <OMEGA_C>  (5) 
NjPMQM/+LsCDLq/BlPq6QEw5msBfaIXBiqjCQKskVcAyTqXBYS6rQMx4i8DqR4/BInW+QGIwtr/B
TrHBDnrSQLkZfcCHX33BSbWcQLr4p79Iu5/BnRLIQPH5CMDqZIvBEpesQHFFJsDNZZ3BL/6xQI0g
QcBzTZLBq3GlQETLOr/nvanBwn3ZQMl+JsCytYHB/THYQIr5a0COz5bB2qiKQD9sXkB475fBFrfZ
QEgoeUD8+KLBgKy0QOSbRkDWLqjBNLyvQLf8YkBD87PBB+OtQJH7WUAh7IXBbb8DQcGmDMAuzmTB
R7mZQLCWND8XuKvBFoC+QKWtyj83d6fBUkywQGufZEA8sZHBAzmMQAehWkArb6LBlRRFQBIHW0D8
KpPBb8b5QOlHbUDFvpHBhR/yQJqO2b9Zv3fBwBLeQGQOUsBOI7XBSBu1QEbYusAF9oLBeTbMQPIz
i8AYwqPBYPCZQJbmoMAwg5TBUxPHQGI5cr/QwLjBgjDfQJ1TisAkbG7BmfGJQPvxRr+r35nBjKDL
QLr1jL8ElI3B4UHWQFrSnkB10aTBSHn4QNjXYUAPG6bBZmSVQP0nP0BjsbfB9qSoQKfzk0DTPrTB
najNQJYjVkAfTLjB8yuMQABtVUBbdYPBUdu+QPo3H0CTlIPBtNq8QDC0iEA6/oHBBdIMQRvjsL/V
P13BZYzvQO8/JcBad1nBsMQOQcCBQMANTmnBNXCVQI+EYD9YWLTBkrt3QP4pcz8CfafBJW7bQEy7
rz/7L6zBL0zEQJNyqT+6CZ/BRStjQK51ZUDEp6bBtZkQQNvkVUCes5fB3cw/QJu3XUDIM4vB6Jq0
QFB2HcC3rLDBuh/9QHV6s8CLso7B7BTCQGmbUsDnP6jBoxnwQE2VmMD3FJfB3ZytQPHri78m3a7B
/rHwQLmUqsAlH4TBZ7vBQO0Lsb+UIJzBTwHKQIfcVsDCSorByInIQHOhMMDl353BblvWQBu8aMAZ
+JTBgvm0QHgADL8UnKTBtezWQNVMhsBP0YHBIkTXQOmbYEAYV5fBWPiIQP9cYkDS/JfB5oPYQJOa
eEDHOKPBtg2wQGEoV0BHI6nBVparQMOMhEBIyrPBVvOtQC8DRUD3gIbBkZDWQFaol8BW1F3BIcms
QNwGZz+JLqLBioOzQCzy6z9Z7qvBv46vQPMUXEBzB5LB3/GIQGvPZ0ChiaLBzstCQNsJX0Av3ZLB
zib5QKb0UkCsrZLBvGTJQLdgd8DqHW/BYKCvQJgHOMChjbjB9GEIQZ8bz8DrYJDBMo3HQAvuisCv
s6nBWcz5QBiZn8DsL5/BE5+iQHZX676iTLXBGsz6QDpyv8BubXvB51TGQCK7d79LPJTBY3e2QDhv
H8Bhn4jBY/LZQE5Yn0CF+KPBtSj1QPYsXECL5qbB1RyPQAF2ckD+HrjBXkOoQCnrpkCMFLLBgDnI
QON4fkBTu7jBlnyMQDK7REBAxoPB3+q7QG4LBUC3W4XB7UTAQHstdEA42IHBTLXJQMqNi8Cjmk7B
PkbKQNEeuMBiwGDBQ7f5QG+JmMBvA13BEISLQETegD9+bp/BK7HCQOuMmz+jw5vBtBybQDWezT/F
+7HBvYfTQKCp0z8jQq/B/n5bQMCrd0AEQqbBg9kMQI7LYECsKZfBj/M/QGjlWkCC44rBAcC0QI16
HcD/rrDBsLLVQNgIu8AOc4zBuSTCQJCjUsC4QKjBDDvJQAoRoMBM35TBm7+tQLD4i7/F367BS4Pu
QF3zqsAT+oPBiLnBQJgjsb8LIZzB03LuQKXXSMCoV4zB/3nIQHG2MMDG3p3B8pHVQCsWacCD65TB
rRC1QAEVDL9DnqTBfx/7QMOVfsDE2IPB0E/XQHV0YEDDVZfBQwSJQPVhYkCa/JfBEpXYQG15eEAL
N6PBTx2wQGwXV0AlIqnBKq+rQNeFhEArybPBUPWtQB0VRUBhf4bBZHMQQdE+icAlL2bBka2sQHej
Zj/7L6LBs42zQJ7T6z9B7avBvZivQA0OXECABpLBvwCJQE7KZ0B4iaLBWuFCQJYuX0Ac3ZLB1y/5
QMG3UkAdrJLBN9kJQZmcWsC4eXfBpNevQIkHOMDZkLjBUzDMQKZC3MC7eozBQ6XHQJbwisDEtKnB
iB22QI6hrMBMWZvBdciiQK6M6779T7XBXQr4QCPnv8BHEHvBs0rGQPbnd799PJTB59H3QAZQBsAX
T4zBognaQK9Hn0Ax9qPBTjj1QBMEXECj5KbBwTSPQAB1ckCOHrjBDGOoQN3kpkBkE7LB8VLIQCRf
fkCWubjBaX2MQPDlRECExYPBNeO7QLwXBUC2V4XBwUvAQIE+dECv14HBmP8ZQa3rbcCEkFrBnjYC
QT5llsDyMV7BWyYaQZGZo8Apq2zB1lWLQHJCgD8xfJ/B3WfCQEyLmz+PvJvBSzebQLqlzT+M/7HB
WJrTQNRt0z8bO6/B3p9bQA2nd0CKQqbBZ/AMQH7+YEDFKZfBVQZAQLwSW0Bh44rBfMu0QEiSHcCg
rbDBgsHVQPHehMC7wIHB+x3CQJp8UsCfNajB4QPJQBGPVMBrPYrB27qtQLj/i78j6q7BujPvQIwg
qcCNv4PBNpTBQLHzr7/1KJzBImLvQK83mMDeypbBf1jIQHccMMBu2J3B67XVQHebZ8B62ZTB4ey0
QJINC79Mq6TBdkL8QMsUs8A3WI7BVUXXQExyYED/VZfBQfqIQORBYkDj/JfBv4nYQG+deECBNqPB
LxSwQJ5IV0CsJKnBUqCrQJi2hEDAx7PBuu+tQHPLRED7gIbBgjIRQcMC8sCRRIjBvousQA6SZz9r
QaLBN5KzQLZW7D9K+avBAY+vQJnsW0D9BpLBnPWIQKzQZ0CpiaLBP85CQEDgXkCB3ZLBsib5QIm+
UkBzrJLBT7cKQS021sAI8pDBIf6vQFtdOMA7jbjBmfvLQNblesAQWnPBGKLHQPrjisC6nqnBwXi1
QDz2HMA3qojB79CiQLlC7b7HYLXBi9r4QON7vcCGZHrBTCPGQOxgdL89SJTBukH5QHyIn8Ar3p7B
RfvZQA1bn0D+8aPBEC/1QIw5XEAy5abBHCiPQDnfckC/HrjB/kyoQMoQp0DQDLLB/0TIQIDkfkAM
ubjBWHiMQACHREC/xoPBiuO7QB7PBEDkXIXB0ELAQHLrc0D51oHBowQbQXEnBsFkcovBjJYaQbyX
38Cka4LBv+gCQTRB/8CoVoTBNiqLQD3OgD+glZ/B1i7CQEfwmz+vyJvBQFObQNJdzj90ErLBiKvT
QBMN1D88QK/BP4RbQFWud0BzQabBgNwMQPCsYEAIKpfB//Q/QG6mWkAC5IrB

>  <OMEGA_E>  (5) 
kOoeP2ZlNz9CZzc/SmY3Pw==

>  <OMEGA_NBR>  (5) 
      5433

$$$$
50145672
     RDKit          3D

 52 54  0  0  1  0  0  0  0  0999 V2000
    6.3813   -2.7343  -21.8977 C   0  0  0  0  0  0  0  0  0  0  0  0
    5.8431   -4.8195  -16.6760 C   0  0  0  0  0  0  0  0  0  0  0  0
    6.0831   -3.3304  -20.6632 C   0  0  0  0  0  0  0  0  0  0  0  0
    5.3494   -4.3585  -17.9101 C   0  0  0  0  0  0  0  0  0  0  0  0
    5.9518   -1.4234  -22.1635 C   0  0  0  0  0  0  0  0  0  0  0  0
    6.5774   -3.9547  -15.8358 C   0  0  0  0  0  0  0  0  0  0  0  0
    4.8971   -1.3123  -19.9664 C   0  0  0  0  0  0  0  0  0  0  0  0
    6.2523   -2.1403  -17.4243 C   0  0  0  0  0  0  0  0  0  0  0  0
    5.3934   -2.5980  -19.6747 C   0  0  0  0  0  0  0  0  0  0  0  0
    5.5623   -3.0176  -18.2878 C   0  0  0  0  0  0  0  0  0  0  0  0
    5.1701   -0.7297  -21.2177 C   0  0  0  0  0  0  0  0  0  0  0  0
    6.7966   -2.6015  -16.2137 C   0  0  0  0  0  0  0  0  0  0  0  0
    6.7561    3.6871  -18.8513 C   0  0  0  0  0  0  0  0  0  0  0  0
    4.3331    3.4754  -18.9919 C   0  0  0  0  0  0  0  0  0  0  0  0
    6.8036    3.8931  -20.3716 C   0  0  0  0  0  0  0  0  0  0  0  0
    5.6461    3.1033  -21.0229 C   0  0  1  0  0  0  0  0  0  0  0  0
    5.4917    3.5467  -22.4938 C   0  0  0  0  0  0  0  0  0  0  0  0
    5.4340    3.4060  -16.7403 C   0  0  0  0  0  0  0  0  0  0  0  0
    8.2342   -2.1977  -14.3003 C   0  0  0  0  0  0  0  0  0  0  0  0
    4.8039    0.7054  -21.4649 C   0  0  0  0  0  0  0  0  0  0  0  0
    5.9531    1.5834  -20.9332 C   0  0  0  0  0  0  0  0  0  0  0  0
    5.5093    3.5722  -18.2115 N   0  0  0  0  0  0  0  0  0  0  0  0
    4.3820    3.4161  -20.3043 N   0  0  0  0  0  0  0  0  0  0  0  0
    3.0794    3.4223  -18.3960 N   0  0  0  0  0  0  0  0  0  0  0  0
    7.8055    3.7075  -18.2181 O   0  0  0  0  0  0  0  0  0  0  0  0
    7.5663   -1.6997  -15.4842 O   0  0  0  0  0  0  0  0  0  0  0  0
    6.9398   -3.2821  -22.6422 H   0  0  0  0  0  0  0  0  0  0  0  0
    5.6596   -5.8389  -16.3701 H   0  0  0  0  0  0  0  0  0  0  0  0
    6.3816   -4.3501  -20.4698 H   0  0  0  0  0  0  0  0  0  0  0  0
    4.8106   -5.0281  -18.5641 H   0  0  0  0  0  0  0  0  0  0  0  0
    6.2211   -0.9462  -23.0941 H   0  0  0  0  0  0  0  0  0  0  0  0
    6.9747   -4.3227  -14.9014 H   0  0  0  0  0  0  0  0  0  0  0  0
    4.3107   -0.7771  -19.2342 H   0  0  0  0  0  0  0  0  0  0  0  0
    6.3633   -1.1012  -17.6973 H   0  0  0  0  0  0  0  0  0  0  0  0
    6.6955    4.9632  -20.6023 H   0  0  0  0  0  0  0  0  0  0  0  0
    7.7648    3.5288  -20.7632 H   0  0  0  0  0  0  0  0  0  0  0  0
    4.6685    2.9868  -22.9616 H   0  0  0  0  0  0  0  0  0  0  0  0
    5.2701    4.6235  -22.5307 H   0  0  0  0  0  0  0  0  0  0  0  0
    6.4268    3.3459  -23.0372 H   0  0  0  0  0  0  0  0  0  0  0  0
    4.3804    3.3348  -16.4323 H   0  0  0  0  0  0  0  0  0  0  0  0
    5.9643    2.4878  -16.4475 H   0  0  0  0  0  0  0  0  0  0  0  0
    5.9017    4.2720  -16.2491 H   0  0  0  0  0  0  0  0  0  0  0  0
    8.8013   -1.3819  -13.8281 H   0  0  0  0  0  0  0  0  0  0  0  0
    7.4859   -2.5820  -13.5916 H   0  0  0  0  0  0  0  0  0  0  0  0
    8.9230   -3.0079  -14.5816 H   0  0  0  0  0  0  0  0  0  0  0  0
    4.6699    0.8770  -22.5431 H   0  0  0  0  0  0  0  0  0  0  0  0
    3.8708    0.9499  -20.9360 H   0  0  0  0  0  0  0  0  0  0  0  0
    6.8572    1.3729  -21.5234 H   0  0  0  0  0  0  0  0  0  0  0  0
    6.1343    1.3238  -19.8797 H   0  0  0  0  0  0  0  0  0  0  0  0
    3.5495    3.5853  -20.8319 H   0  0  0  0  0  0  0  0  0  0  0  0
    2.2594    3.3421  -18.9627 H   0  0  0  0  0  0  0  0  0  0  0  0
    2.9969    3.4643  -17.4003 H   0  0  0  0  0  0  0  0  0  0  0  0
  1  3  2  0
  1  5  1  0
  2  4  2  0
  2  6  1  0
  3  9  1  0
  4 10  1  0
  5 11  2  0
  6 12  2  0
  7  9  2  0
  7 11  1  0
  8 10  2  0
  8 12  1  0
  9 10  1  0
 11 20  1  0
 12 26  1  0
 13 15  1  0
 13 22  1  0
 13 25  2  0
 14 22  1  0
 14 23  2  0
 14 24  1  0
 15 16  1  0
 16 17  1  6
 16 21  1  0
 16 23  1  0
 18 22  1  0
 19 26  1  0
 20 21  1  0
  1 27  1  0
  2 28  1  0
  3 29  1  0
  4 30  1  0
  5 31  1  0
  6 32  1  0
  7 33  1  0
  8 34  1  0
 15 35  1  0
 15 36  1  0
 17 37  1  0
 17 38  1  0
 17 39  1  0
 18 40  1  0
 18 41  1  0
 18 42  1  0
 19 43  1  0
 19 44  1  0
 19 45  1  0
 20 46  1  0
 20 47  1  0
 21 48  1  0
 21 49  1  0
 23 50  1  0
 24 51  1  0
 24 52  1  0
M  CHG  1  23   1
M  END
>  <OMEGA_C>  (6) 
NjPMQM/+LsCDLq/BlPq6QEw5msBfaIXBiqjCQKskVcAyTqXBYS6rQMx4i8DqR4/BInW+QGIwtr/B
TrHBDnrSQLkZfcCHX33BSbWcQLr4p79Iu5/BnRLIQPH5CMDqZIvBEpesQHFFJsDNZZ3BL/6xQI0g
QcBzTZLBq3GlQETLOr/nvanBwn3ZQMl+JsCytYHB/THYQIr5a0COz5bB2qiKQD9sXkB475fBFrfZ
QEgoeUD8+KLBgKy0QOSbRkDWLqjBNLyvQLf8YkBD87PBB+OtQJH7WUAh7IXBbb8DQcGmDMAuzmTB
R7mZQLCWND8XuKvBFoC+QKWtyj83d6fBUkywQGufZEA8sZHBAzmMQAehWkArb6LBlRRFQBIHW0D8
KpPBb8b5QOlHbUDFvpHBhR/yQJqO2b9Zv3fBwBLeQGQOUsBOI7XBSBu1QEbYusAF9oLBeTbMQPIz
i8AYwqPBYPCZQJbmoMAwg5TBUxPHQGI5cr/QwLjBgjDfQJ1TisAkbG7BmfGJQPvxRr+r35nBjKDL
QLr1jL8ElI3B4UHWQFrSnkB10aTBSHn4QNjXYUAPG6bBZmSVQP0nP0BjsbfB9qSoQKfzk0DTPrTB
najNQJYjVkAfTLjB8yuMQABtVUBbdYPBUdu+QPo3H0CTlIPBtNq8QDC0iEA6/oHBBdIMQRvjsL/V
P13BZYzvQO8/JcBad1nBsMQOQcCBQMANTmnBNXCVQI+EYD9YWLTBkrt3QP4pcz8CfafBJW7bQEy7
rz/7L6zBL0zEQJNyqT+6CZ/BRStjQK51ZUDEp6bBtZkQQNvkVUCes5fB3cw/QJu3XUDIM4vB6Jq0
QFB2HcC3rLDBuh/9QHV6s8CLso7B7BTCQGmbUsDnP6jBoxnwQE2VmMD3FJfB3ZytQPHri78m3a7B
/rHwQLmUqsAlH4TBZ7vBQO0Lsb+UIJzBTwHKQIfcVsDCSorByInIQHOhMMDl353BblvWQBu8aMAZ
+JTBgvm0QHgADL8UnKTBtezWQNVMhsBP0YHBIkTXQOmbYEAYV5fBWPiIQP9cYkDS/JfB5oPYQJOa
eEDHOKPBtg2wQGEoV0BHI6nBVparQMOMhEBIyrPBVvOtQC8DRUD3gIbBkZDWQFaol8BW1F3BIcms
QNwGZz+JLqLBioOzQCzy6z9Z7qvBv46vQPMUXEBzB5LB3/GIQGvPZ0ChiaLBzstCQNsJX0Av3ZLB
zib5QKb0UkCsrZLBvGTJQLdgd8DqHW/BYKCvQJgHOMChjbjB9GEIQZ8bz8DrYJDBMo3HQAvuisCv
s6nBWcz5QBiZn8DsL5/BE5+iQHZX676iTLXBGsz6QDpyv8BubXvB51TGQCK7d79LPJTBY3e2QDhv
H8Bhn4jBY/LZQE5Yn0CF+KPBtSj1QPYsXECL5qbB1RyPQAF2ckD+HrjBXkOoQCnrpkCMFLLBgDnI
QON4fkBTu7jBlnyMQDK7REBAxoPB3+q7QG4LBUC3W4XB7UTAQHstdEA42IHBTLXJQMqNi8Cjmk7B
PkbKQNEeuMBiwGDBQ7f5QG+JmMBvA13BEISLQETegD9+bp/BK7HCQOuMmz+jw5vBtBybQDWezT/F
+7HBvYfTQKCp0z8jQq/B/n5bQMCrd0AEQqbBg9kMQI7LYECsKZfBj/M/QGjlWkCC44rBAcC0QI16
HcD/rrDBsLLVQNgIu8AOc4zBuSTCQJCjUsC4QKjBDDvJQAoRoMBM35TBm7+tQLD4i7/F367BS4Pu
QF3zqsAT+oPBiLnBQJgjsb8LIZzB03LuQKXXSMCoV4zB/3nIQHG2MMDG3p3B8pHVQCsWacCD65TB
rRC1QAEVDL9DnqTBfx/7QMOVfsDE2IPB0E/XQHV0YEDDVZfBQwSJQPVhYkCa/JfBEpXYQG15eEAL
N6PBTx2wQGwXV0AlIqnBKq+rQNeFhEArybPBUPWtQB0VRUBhf4bBZHMQQdE+icAlL2bBka2sQHej
Zj/7L6LBs42zQJ7T6z9B7avBvZivQA0OXECABpLBvwCJQE7KZ0B4iaLBWuFCQJYuX0Ac3ZLB1y/5
QMG3UkAdrJLBN9kJQZmcWsC4eXfBpNevQIkHOMDZkLjBUzDMQKZC3MC7eozBQ6XHQJbwisDEtKnB
iB22QI6hrMBMWZvBdciiQK6M6779T7XBXQr4QCPnv8BHEHvBs0rGQPbnd799PJTB59H3QAZQBsAX
T4zBognaQK9Hn0Ax9qPBTjj1QBMEXECj5KbBwTSPQAB1ckCOHrjBDGOoQN3kpkBkE7LB8VLIQCRf
fkCWubjBaX2MQPDlRECExYPBNeO7QLwXBUC2V4XBwUvAQIE+dECv14HBmP8ZQa3rbcCEkFrBnjYC
QT5llsDyMV7BWyYaQZGZo8Apq2zB1lWLQHJCgD8xfJ/B3WfCQEyLmz+PvJvBSzebQLqlzT+M/7HB
WJrTQNRt0z8bO6/B3p9bQA2nd0CKQqbBZ/AMQH7+YEDFKZfBVQZAQLwSW0Bh44rBfMu0QEiSHcCg
rbDBgsHVQPHehMC7wIHB+x3CQJp8UsCfNajB4QPJQBGPVMBrPYrB27qtQLj/i78j6q7BujPvQIwg
qcCNv4PBNpTBQLHzr7/1KJzBImLvQK83mMDeypbBf1jIQHccMMBu2J3B67XVQHebZ8B62ZTB4ey0
QJINC79Mq6TBdkL8QMsUs8A3WI7BVUXXQExyYED/VZfBQfqIQORBYkDj/JfBv4nYQG+deECBNqPB
LxSwQJ5IV0CsJKnBUqCrQJi2hEDAx7PBuu+tQHPLRED7gIbBgjIRQcMC8sCRRIjBvousQA6SZz9r
QaLBN5KzQLZW7D9K+avBAY+vQJnsW0D9BpLBnPWIQKzQZ0CpiaLBP85CQEDgXkCB3ZLBsib5QIm+
UkBzrJLBT7cKQS021sAI8pDBIf6vQFtdOMA7jbjBmfvLQNblesAQWnPBGKLHQPrjisC6nqnBwXi1
QDz2HMA3qojB79CiQLlC7b7HYLXBi9r4QON7vcCGZHrBTCPGQOxgdL89SJTBukH5QHyIn8Ar3p7B
RfvZQA1bn0D+8aPBEC/1QIw5XEAy5abBHCiPQDnfckC/HrjB/kyoQMoQp0DQDLLB/0TIQIDkfkAM
ubjBWHiMQACHREC/xoPBiuO7QB7PBEDkXIXB0ELAQHLrc0D51oHBowQbQXEnBsFkcovBjJYaQbyX
38Cka4LBv+gCQTRB/8CoVoTBNiqLQD3OgD+glZ/B1i7CQEfwmz+vyJvBQFObQNJdzj90ErLBiKvT
QBMN1D88QK/BP4RbQFWud0BzQabBgNwMQPCsYEAIKpfB//Q/QG6mWkAC5IrB

>  <OMEGA_E>  (6) 
kOoeP2ZlNz9CZzc/SmY3Pw==

>  <OMEGA_NBR>  (6) 
      9221

$$$$
50145427
     RDKit          3D

 52 54  0  0  1  0  0  0  0  0999 V2000
    6.3813   -2.7343  -21.8977 C   0  0  0  0  0  0  0  0  0  0  0  0
    5.8431   -4.8195  -16.6760 C   0  0  0  0  0  0  0  0  0  0  0  0
    6.0831   -3.3304  -20.6632 C   0  0  0  0  0  0  0  0  0  0  0  0
    5.3494   -4.3585  -17.9101 C   0  0  0  0  0  0  0  0  0  0  0  0
    5.9518   -1.4234  -22.1635 C   0  0  0  0  0  0  0  0  0  0  0  0
    6.5774   -3.9547  -15.8358 C   0  0  0  0  0  0  0  0  0  0  0  0
    4.8971   -1.3123  -19.9664 C   0  0  0  0  0  0  0  0  0  0  0  0
    6.2523   -2.1403  -17.4243 C   0  0  0  0  0  0  0  0  0  0  0  0
    5.3934   -2.5980  -19.6747 C   0  0  0  0  0  0  0  0  0  0  0  0
    5.5623   -3.0176  -18.2878 C   0  0  0  0  0  0  0  0  0  0  0  0
    5.1701   -0.7297  -21.2177 C   0  0  0  0  0  0  0  0  0  0  0  0
    6.7966   -2.6015  -16.2137 C   0  0  0  0  0  0  0  0  0  0  0  0
    6.7561    3.6871  -18.8513 C   0  0  0  0  0  0  0  0  0  0  0  0
    4.3331    3.4754  -18.9919 C   0  0  0  0  0  0  0  0  0  0  0  0
    6.8036    3.8931  -20.3716 C   0  0  0  0  0  0  0  0  0  0  0  0
    5.6461    3.1033  -21.0229 C   0  0  1  0  0  0  0  0  0  0  0  0
    5.4917    3.5467  -22.4938 C   0  0  0  0  0  0  0  0  0  0  0  0
    5.4340    3.4060  -16.7403 C   0  0  0  0  0  0  0  0  0  0  0  0
    8.2342   -2.1977  -14.3003 C   0  0  0  0  0  0  0  0  0  0  0  0
    4.8039    0.7054  -21.4649 C   0  0  0  0  0  0  0  0  0  0  0  0
    5.9531    1.5834  -20.9332 C   0  0  0  0  0  0  0  0  0  0  0  0
    5.5093    3.5722  -18.2115 N   0  0  0  0  0  0  0  0  0  0  0  0
    4.3820    3.4161  -20.3043 N   0  0  0  0  0  0  0  0  0  0  0  0
    3.0794    3.4223  -18.3960 N   0  0  0  0  0  0  0  0  0  0  0  0
    7.8055    3.7075  -18.2181 O   0  0  0  0  0  0  0  0  0  0  0  0
    7.5663   -1.6997  -15.4842 O   0  0  0  0  0  0  0  0  0  0  0  0
    6.9398   -3.2821  -22.6422 H   0  0  0  0  0  0  0  0  0  0  0  0
    5.6596   -5.8389  -16.3701 H   0  0  0  0  0  0  0  0  0  0  0  0
    6.3816   -4.3501  -20.4698 H   0  0  0  0  0  0  0  0  0  0  0  0
    4.8106   -5.0281  -18.5641 H   0  0  0  0  0  0  0  0  0  0  0  0
    6.2211   -0.9462  -23.0941 H   0  0  0  0  0  0  0  0  0  0  0  0
    6.9747   -4.3227  -14.9014 H   0  0  0  0  0  0  0  0  0  0  0  0
    4.3107   -0.7771  -19.2342 H   0  0  0  0  0  0  0  0  0  0  0  0
    6.3633   -1.1012  -17.6973 H   0  0  0  0  0  0  0  0  0  0  0  0
    6.6955    4.9632  -20.6023 H   0  0  0  0  0  0  0  0  0  0  0  0
    7.7648    3.5288  -20.7632 H   0  0  0  0  0  0  0  0  0  0  0  0
    4.6685    2.9868  -22.9616 H   0  0  0  0  0  0  0  0  0  0  0  0
    5.2701    4.6235  -22.5307 H   0  0  0  0  0  0  0  0  0  0  0  0
    6.4268    3.3459  -23.0372 H   0  0  0  0  0  0  0  0  0  0  0  0
    4.3804    3.3348  -16.4323 H   0  0  0  0  0  0  0  0  0  0  0  0
    5.9643    2.4878  -16.4475 H   0  0  0  0  0  0  0  0  0  0  0  0
    5.9017    4.2720  -16.2491 H   0  0  0  0  0  0  0  0  0  0  0  0
    8.8013   -1.3819  -13.8281 H   0  0  0  0  0  0  0  0  0  0  0  0
    7.4859   -2.5820  -13.5916 H   0  0  0  0  0  0  0  0  0  0  0  0
    8.9230   -3.0079  -14.5816 H   0  0  0  0  0  0  0  0  0  0  0  0
    4.6699    0.8770  -22.5431 H   0  0  0  0  0  0  0  0  0  0  0  0
    3.8708    0.9499  -20.9360 H   0  0  0  0  0  0  0  0  0  0  0  0
    6.8572    1.3729  -21.5234 H   0  0  0  0  0  0  0  0  0  0  0  0
    6.1343    1.3238  -19.8797 H   0  0  0  0  0  0  0  0  0  0  0  0
    3.5495    3.5853  -20.8319 H   0  0  0  0  0  0  0  0  0  0  0  0
    2.2594    3.3421  -18.9627 H   0  0  0  0  0  0  0  0  0  0  0  0
    2.9969    3.4643  -17.4003 H   0  0  0  0  0  0  0  0  0  0  0  0
  1  3  2  0
  1  5  1  0
  2  4  2  0
  2  6  1  0
  3  9  1  0
  4 10  1  0
  5 11  2  0
  6 12  2  0
  7  9  2  0
  7 11  1  0
  8 10  2  0
  8 12  1  0
  9 10  1  0
 11 20  1  0
 12 26  1  0
 13 15  1  0
 13 22  1  0
 13 25  2  0
 14 22  1  0
 14 23  2  0
 14 24  1  0
 15 16  1  0
 16 17  1  6
 16 21  1  0
 16 23  1  0
 18 22  1  0
 19 26  1  0
 20 21  1  0
  1 27  1  0
  2 28  1  0
  3 29  1  0
  4 30  1  0
  5 31  1  0
  6 32  1  0
  7 33  1  0
  8 34  1  0
 15 35  1  0
 15 36  1  0
 17 37  1  0
 17 38  1  0
 17 39  1  0
 18 40  1  0
 18 41  1  0
 18 42  1  0
 19 43  1  0
 19 44  1  0
 19 45  1  0
 20 46  1  0
 20 47  1  0
 21 48  1  0
 21 49  1  0
 23 50  1  0
 24 51  1  0
 24 52  1  0
M  CHG  1  23   1
M  END
>  <OMEGA_C>  (7) 
NjPMQM/+LsCDLq/BlPq6QEw5msBfaIXBiqjCQKskVcAyTqXBYS6rQMx4i8DqR4/BInW+QGIwtr/B
TrHBDnrSQLkZfcCHX33BSbWcQLr4p79Iu5/BnRLIQPH5CMDqZIvBEpesQHFFJsDNZZ3BL/6xQI0g
QcBzTZLBq3GlQETLOr/nvanBwn3ZQMl+JsCytYHB/THYQIr5a0COz5bB2qiKQD9sXkB475fBFrfZ
QEgoeUD8+KLBgKy0QOSbRkDWLqjBNLyvQLf8YkBD87PBB+OtQJH7WUAh7IXBbb8DQcGmDMAuzmTB
R7mZQLCWND8XuKvBFoC+QKWtyj83d6fBUkywQGufZEA8sZHBAzmMQAehWkArb6LBlRRFQBIHW0D8
KpPBb8b5QOlHbUDFvpHBhR/yQJqO2b9Zv3fBwBLeQGQOUsBOI7XBSBu1QEbYusAF9oLBeTbMQPIz
i8AYwqPBYPCZQJbmoMAwg5TBUxPHQGI5cr/QwLjBgjDfQJ1TisAkbG7BmfGJQPvxRr+r35nBjKDL
QLr1jL8ElI3B4UHWQFrSnkB10aTBSHn4QNjXYUAPG6bBZmSVQP0nP0BjsbfB9qSoQKfzk0DTPrTB
najNQJYjVkAfTLjB8yuMQABtVUBbdYPBUdu+QPo3H0CTlIPBtNq8QDC0iEA6/oHBBdIMQRvjsL/V
P13BZYzvQO8/JcBad1nBsMQOQcCBQMANTmnBNXCVQI+EYD9YWLTBkrt3QP4pcz8CfafBJW7bQEy7
rz/7L6zBL0zEQJNyqT+6CZ/BRStjQK51ZUDEp6bBtZkQQNvkVUCes5fB3cw/QJu3XUDIM4vB6Jq0
QFB2HcC3rLDBuh/9QHV6s8CLso7B7BTCQGmbUsDnP6jBoxnwQE2VmMD3FJfB3ZytQPHri78m3a7B
/rHwQLmUqsAlH4TBZ7vBQO0Lsb+UIJzBTwHKQIfcVsDCSorByInIQHOhMMDl353BblvWQBu8aMAZ
+JTBgvm0QHgADL8UnKTBtezWQNVMhsBP0YHBIkTXQOmbYEAYV5fBWPiIQP9cYkDS/JfB5oPYQJOa
eEDHOKPBtg2wQGEoV0BHI6nBVparQMOMhEBIyrPBVvOtQC8DRUD3gIbBkZDWQFaol8BW1F3BIcms
QNwGZz+JLqLBioOzQCzy6z9Z7qvBv46vQPMUXEBzB5LB3/GIQGvPZ0ChiaLBzstCQNsJX0Av3ZLB
zib5QKb0UkCsrZLBvGTJQLdgd8DqHW/BYKCvQJgHOMChjbjB9GEIQZ8bz8DrYJDBMo3HQAvuisCv
s6nBWcz5QBiZn8DsL5/BE5+iQHZX676iTLXBGsz6QDpyv8BubXvB51TGQCK7d79LPJTBY3e2QDhv
H8Bhn4jBY/LZQE5Yn0CF+KPBtSj1QPYsXECL5qbB1RyPQAF2ckD+HrjBXkOoQCnrpkCMFLLBgDnI
QON4fkBTu7jBlnyMQDK7REBAxoPB3+q7QG4LBUC3W4XB7UTAQHstdEA42IHBTLXJQMqNi8Cjmk7B
PkbKQNEeuMBiwGDBQ7f5QG+JmMBvA13BEISLQETegD9+bp/BK7HCQOuMmz+jw5vBtBybQDWezT/F
+7HBvYfTQKCp0z8jQq/B/n5bQMCrd0AEQqbBg9kMQI7LYECsKZfBj/M/QGjlWkCC44rBAcC0QI16
HcD/rrDBsLLVQNgIu8AOc4zBuSTCQJCjUsC4QKjBDDvJQAoRoMBM35TBm7+tQLD4i7/F367BS4Pu
QF3zqsAT+oPBiLnBQJgjsb8LIZzB03LuQKXXSMCoV4zB/3nIQHG2MMDG3p3B8pHVQCsWacCD65TB
rRC1QAEVDL9DnqTBfx/7QMOVfsDE2IPB0E/XQHV0YEDDVZfBQwSJQPVhYkCa/JfBEpXYQG15eEAL
N6PBTx2wQGwXV0AlIqnBKq+rQNeFhEArybPBUPWtQB0VRUBhf4bBZHMQQdE+icAlL2bBka2sQHej
Zj/7L6LBs42zQJ7T6z9B7avBvZivQA0OXECABpLBvwCJQE7KZ0B4iaLBWuFCQJYuX0Ac3ZLB1y/5
QMG3UkAdrJLBN9kJQZmcWsC4eXfBpNevQIkHOMDZkLjBUzDMQKZC3MC7eozBQ6XHQJbwisDEtKnB
iB22QI6hrMBMWZvBdciiQK6M6779T7XBXQr4QCPnv8BHEHvBs0rGQPbnd799PJTB59H3QAZQBsAX
T4zBognaQK9Hn0Ax9qPBTjj1QBMEXECj5KbBwTSPQAB1ckCOHrjBDGOoQN3kpkBkE7LB8VLIQCRf
fkCWubjBaX2MQPDlRECExYPBNeO7QLwXBUC2V4XBwUvAQIE+dECv14HBmP8ZQa3rbcCEkFrBnjYC
QT5llsDyMV7BWyYaQZGZo8Apq2zB1lWLQHJCgD8xfJ/B3WfCQEyLmz+PvJvBSzebQLqlzT+M/7HB
WJrTQNRt0z8bO6/B3p9bQA2nd0CKQqbBZ/AMQH7+YEDFKZfBVQZAQLwSW0Bh44rBfMu0QEiSHcCg
rbDBgsHVQPHehMC7wIHB+x3CQJp8UsCfNajB4QPJQBGPVMBrPYrB27qtQLj/i78j6q7BujPvQIwg
qcCNv4PBNpTBQLHzr7/1KJzBImLvQK83mMDeypbBf1jIQHccMMBu2J3B67XVQHebZ8B62ZTB4ey0
QJINC79Mq6TBdkL8QMsUs8A3WI7BVUXXQExyYED/VZfBQfqIQORBYkDj/JfBv4nYQG+deECBNqPB
LxSwQJ5IV0CsJKnBUqCrQJi2hEDAx7PBuu+tQHPLRED7gIbBgjIRQcMC8sCRRIjBvousQA6SZz9r
QaLBN5KzQLZW7D9K+avBAY+vQJnsW0D9BpLBnPWIQKzQZ0CpiaLBP85CQEDgXkCB3ZLBsib5QIm+
UkBzrJLBT7cKQS021sAI8pDBIf6vQFtdOMA7jbjBmfvLQNblesAQWnPBGKLHQPrjisC6nqnBwXi1
QDz2HMA3qojB79CiQLlC7b7HYLXBi9r4QON7vcCGZHrBTCPGQOxgdL89SJTBukH5QHyIn8Ar3p7B
RfvZQA1bn0D+8aPBEC/1QIw5XEAy5abBHCiPQDnfckC/HrjB/kyoQMoQp0DQDLLB/0TIQIDkfkAM
ubjBWHiMQACHREC/xoPBiuO7QB7PBEDkXIXB0ELAQHLrc0D51oHBowQbQXEnBsFkcovBjJYaQbyX
38Cka4LBv+gCQTRB/8CoVoTBNiqLQD3OgD+glZ/B1i7CQEfwmz+vyJvBQFObQNJdzj90ErLBiKvT
QBMN1D88QK/BP4RbQFWud0BzQabBgNwMQPCsYEAIKpfB//Q/QG6mWkAC5IrB

>  <OMEGA_E>  (7) 
kOoeP2ZlNz9CZzc/SmY3Pw==

>  <OMEGA_NBR>  (7) 
      5433

$$$$
50145672
     RDKit          3D

 52 54  0  0  1  0  0  0  0  0999 V2000
    6.3813   -2.7343  -21.8977 C   0  0  0  0  0  0  0  0  0  0  0  0
    5.8431   -4.8195  -16.6760 C   0  0  0  0  0  0  0  0  0  0  0  0
    6.0831   -3.3304  -20.6632 C   0  0  0  0  0  0  0  0  0  0  0  0
    5.3494   -4.3585  -17.9101 C   0  0  0  0  0  0  0  0  0  0  0  0
    5.9518   -1.4234  -22.1635 C   0  0  0  0  0  0  0  0  0  0  0  0
    6.5774   -3.9547  -15.8358 C   0  0  0  0  0  0  0  0  0  0  0  0
    4.8971   -1.3123  -19.9664 C   0  0  0  0  0  0  0  0  0  0  0  0
    6.2523   -2.1403  -17.4243 C   0  0  0  0  0  0  0  0  0  0  0  0
    5.3934   -2.5980  -19.6747 C   0  0  0  0  0  0  0  0  0  0  0  0
    5.5623   -3.0176  -18.2878 C   0  0  0  0  0  0  0  0  0  0  0  0
    5.1701   -0.7297  -21.2177 C   0  0  0  0  0  0  0  0  0  0  0  0
    6.7966   -2.6015  -16.2137 C   0  0  0  0  0  0  0  0  0  0  0  0
    6.7561    3.6871  -18.8513 C   0  0  0  0  0  0  0  0  0  0  0  0
    4.3331    3.4754  -18.9919 C   0  0  0  0  0  0  0  0  0  0  0  0
    6.8036    3.8931  -20.3716 C   0  0  0  0  0  0  0  0  0  0  0  0
    5.6461    3.1033  -21.0229 C   0  0  1  0  0  0  0  0  0  0  0  0
    5.4917    3.5467  -22.4938 C   0  0  0  0  0  0  0  0  0  0  0  0
    5.4340    3.4060  -16.7403 C   0  0  0  0  0  0  0  0  0  0  0  0
    8.2342   -2.1977  -14.3003 C   0  0  0  0  0  0  0  0  0  0  0  0
    4.8039    0.7054  -21.4649 C   0  0  0  0  0  0  0  0  0  0  0  0
    5.9531    1.5834  -20.9332 C   0  0  0  0  0  0  0  0  0  0  0  0
    5.5093    3.5722  -18.2115 N   0  0  0  0  0  0  0  0  0  0  0  0
    4.3820    3.4161  -20.3043 N   0  0  0  0  0  0  0  0  0  0  0  0
    3.0794    3.4223  -18.3960 N   0  0  0  0  0  0  0  0  0  0  0  0
    7.8055    3.7075  -18.2181 O   0  0  0  0  0  0  0  0  0  0  0  0
    7.5663   -1.6997  -15.4842 O   0  0  0  0  0  0  0  0  0  0  0  0
    6.9398   -3.2821  -22.6422 H   0  0  0  0  0  0  0  0  0  0  0  0
    5.6596   -5.8389  -16.3701 H   0  0  0  0  0  0  0  0  0  0  0  0
    6.3816   -4.3501  -20.4698 H   0  0  0  0  0  0  0  0  0  0  0  0
    4.8106   -5.0281  -18.5641 H   0  0  0  0  0  0  0  0  0  0  0  0
    6.2211   -0.9462  -23.0941 H   0  0  0  0  0  0  0  0  0  0  0  0
    6.9747   -4.3227  -14.9014 H   0  0  0  0  0  0  0  0  0  0  0  0
    4.3107   -0.7771  -19.2342 H   0  0  0  0  0  0  0  0  0  0  0  0
    6.3633   -1.1012  -17.6973 H   0  0  0  0  0  0  0  0  0  0  0  0
    6.6955    4.9632  -20.6023 H   0  0  0  0  0  0  0  0  0  0  0  0
    7.7648    3.5288  -20.7632 H   0  0  0  0  0  0  0  0  0  0  0  0
    4.6685    2.9868  -22.9616 H   0  0  0  0  0  0  0  0  0  0  0  0
    5.2701    4.6235  -22.5307 H   0  0  0  0  0  0  0  0  0  0  0  0
    6.4268    3.3459  -23.0372 H   0  0  0  0  0  0  0  0  0  0  0  0
    4.3804    3.3348  -16.4323 H   0  0  0  0  0  0  0  0  0  0  0  0
    5.9643    2.4878  -16.4475 H   0  0  0  0  0  0  0  0  0  0  0  0
    5.9017    4.2720  -16.2491 H   0  0  0  0  0  0  0  0  0  0  0  0
    8.8013   -1.3819  -13.8281 H   0  0  0  0  0  0  0  0  0  0  0  0
    7.4859   -2.5820  -13.5916 H   0  0  0  0  0  0  0  0  0  0  0  0
    8.9230   -3.0079  -14.5816 H   0  0  0  0  0  0  0  0  0  0  0  0
    4.6699    0.8770  -22.5431 H   0  0  0  0  0  0  0  0  0  0  0  0
    3.8708    0.9499  -20.9360 H   0  0  0  0  0  0  0  0  0  0  0  0
    6.8572    1.3729  -21.5234 H   0  0  0  0  0  0  0  0  0  0  0  0
    6.1343    1.3238  -19.8797 H   0  0  0  0  0  0  0  0  0  0  0  0
    3.5495    3.5853  -20.8319 H   0  0  0  0  0  0  0  0  0  0  0  0
    2.2594    3.3421  -18.9627 H   0  0  0  0  0  0  0  0  0  0  0  0
    2.9969    3.4643  -17.4003 H   0  0  0  0  0  0  0  0  0  0  0  0
  1  3  2  0
  1  5  1  0
  2  4  2  0
  2  6  1  0
  3  9  1  0
  4 10  1  0
  5 11  2  0
  6 12  2  0
  7  9  2  0
  7 11  1  0
  8 10  2  0
  8 12  1  0
  9 10  1  0
 11 20  1  0
 12 26  1  0
 13 15  1  0
 13 22  1  0
 13 25  2  0
 14 22  1  0
 14 23  2  0
 14 24  1  0
 15 16  1  0
 16 17  1  6
 16 21  1  0
 16 23  1  0
 18 22  1  0
 19 26  1  0
 20 21  1  0
  1 27  1  0
  2 28  1  0
  3 29  1  0
  4 30  1  0
  5 31  1  0
  6 32  1  0
  7 33  1  0
  8 34  1  0
 15 35  1  0
 15 36  1  0
 17 37  1  0
 17 38  1  0
 17 39  1  0
 18 40  1  0
 18 41  1  0
 18 42  1  0
 19 43  1  0
 19 44  1  0
 19 45  1  0
 20 46  1  0
 20 47  1  0
 21 48  1  0
 21 49  1  0
 23 50  1  0
 24 51  1  0
 24 52  1  0
M  CHG  1  23   1
M  END
>  <OMEGA_C>  (8) 
NjPMQM/+LsCDLq/BlPq6QEw5msBfaIXBiqjCQKskVcAyTqXBYS6rQMx4i8DqR4/BInW+QGIwtr/B
TrHBDnrSQLkZfcCHX33BSbWcQLr4p79Iu5/BnRLIQPH5CMDqZIvBEpesQHFFJsDNZZ3BL/6xQI0g
QcBzTZLBq3GlQETLOr/nvanBwn3ZQMl+JsCytYHB/THYQIr5a0COz5bB2qiKQD9sXkB475fBFrfZ
QEgoeUD8+KLBgKy0QOSbRkDWLqjBNLyvQLf8YkBD87PBB+OtQJH7WUAh7IXBbb8DQcGmDMAuzmTB
R7mZQLCWND8XuKvBFoC+QKWtyj83d6fBUkywQGufZEA8sZHBAzmMQAehWkArb6LBlRRFQBIHW0D8
KpPBb8b5QOlHbUDFvpHBhR/yQJqO2b9Zv3fBwBLeQGQOUsBOI7XBSBu1QEbYusAF9oLBeTbMQPIz
i8AYwqPBYPCZQJbmoMAwg5TBUxPHQGI5cr/QwLjBgjDfQJ1TisAkbG7BmfGJQPvxRr+r35nBjKDL
QLr1jL8ElI3B4UHWQFrSnkB10aTBSHn4QNjXYUAPG6bBZmSVQP0nP0BjsbfB9qSoQKfzk0DTPrTB
najNQJYjVkAfTLjB8yuMQABtVUBbdYPBUdu+QPo3H0CTlIPBtNq8QDC0iEA6/oHBBdIMQRvjsL/V
P13BZYzvQO8/JcBad1nBsMQOQcCBQMANTmnBNXCVQI+EYD9YWLTBkrt3QP4pcz8CfafBJW7bQEy7
rz/7L6zBL0zEQJNyqT+6CZ/BRStjQK51ZUDEp6bBtZkQQNvkVUCes5fB3cw/QJu3XUDIM4vB6Jq0
QFB2HcC3rLDBuh/9QHV6s8CLso7B7BTCQGmbUsDnP6jBoxnwQE2VmMD3FJfB3ZytQPHri78m3a7B
/rHwQLmUqsAlH4TBZ7vBQO0Lsb+UIJzBTwHKQIfcVsDCSorByInIQHOhMMDl353BblvWQBu8aMAZ
+JTBgvm0QHgADL8UnKTBtezWQNVMhsBP0YHBIkTXQOmbYEAYV5fBWPiIQP9cYkDS/JfB5oPYQJOa
eEDHOKPBtg2wQGEoV0BHI6nBVparQMOMhEBIyrPBVvOtQC8DRUD3gIbBkZDWQFaol8BW1F3BIcms
QNwGZz+JLqLBioOzQCzy6z9Z7qvBv46vQPMUXEBzB5LB3/GIQGvPZ0ChiaLBzstCQNsJX0Av3ZLB
zib5QKb0UkCsrZLBvGTJQLdgd8DqHW/BYKCvQJgHOMChjbjB9GEIQZ8bz8DrYJDBMo3HQAvuisCv
s6nBWcz5QBiZn8DsL5/BE5+iQHZX676iTLXBGsz6QDpyv8BubXvB51TGQCK7d79LPJTBY3e2QDhv
H8Bhn4jBY/LZQE5Yn0CF+KPBtSj1QPYsXECL5qbB1RyPQAF2ckD+HrjBXkOoQCnrpkCMFLLBgDnI
QON4fkBTu7jBlnyMQDK7REBAxoPB3+q7QG4LBUC3W4XB7UTAQHstdEA42IHBTLXJQMqNi8Cjmk7B
PkbKQNEeuMBiwGDBQ7f5QG+JmMBvA13BEISLQETegD9+bp/BK7HCQOuMmz+jw5vBtBybQDWezT/F
+7HBvYfTQKCp0z8jQq/B/n5bQMCrd0AEQqbBg9kMQI7LYECsKZfBj/M/QGjlWkCC44rBAcC0QI16
HcD/rrDBsLLVQNgIu8AOc4zBuSTCQJCjUsC4QKjBDDvJQAoRoMBM35TBm7+tQLD4i7/F367BS4Pu
QF3zqsAT+oPBiLnBQJgjsb8LIZzB03LuQKXXSMCoV4zB/3nIQHG2MMDG3p3B8pHVQCsWacCD65TB
rRC1QAEVDL9DnqTBfx/7QMOVfsDE2IPB0E/XQHV0YEDDVZfBQwSJQPVhYkCa/JfBEpXYQG15eEAL
N6PBTx2wQGwXV0AlIqnBKq+rQNeFhEArybPBUPWtQB0VRUBhf4bBZHMQQdE+icAlL2bBka2sQHej
Zj/7L6LBs42zQJ7T6z9B7avBvZivQA0OXECABpLBvwCJQE7KZ0B4iaLBWuFCQJYuX0Ac3ZLB1y/5
QMG3UkAdrJLBN9kJQZmcWsC4eXfBpNevQIkHOMDZkLjBUzDMQKZC3MC7eozBQ6XHQJbwisDEtKnB
iB22QI6hrMBMWZvBdciiQK6M6779T7XBXQr4QCPnv8BHEHvBs0rGQPbnd799PJTB59H3QAZQBsAX
T4zBognaQK9Hn0Ax9qPBTjj1QBMEXECj5KbBwTSPQAB1ckCOHrjBDGOoQN3kpkBkE7LB8VLIQCRf
fkCWubjBaX2MQPDlRECExYPBNeO7QLwXBUC2V4XBwUvAQIE+dECv14HBmP8ZQa3rbcCEkFrBnjYC
QT5llsDyMV7BWyYaQZGZo8Apq2zB1lWLQHJCgD8xfJ/B3WfCQEyLmz+PvJvBSzebQLqlzT+M/7HB
WJrTQNRt0z8bO6/B3p9bQA2nd0CKQqbBZ/AMQH7+YEDFKZfBVQZAQLwSW0Bh44rBfMu0QEiSHcCg
rbDBgsHVQPHehMC7wIHB+x3CQJp8UsCfNajB4QPJQBGPVMBrPYrB27qtQLj/i78j6q7BujPvQIwg
qcCNv4PBNpTBQLHzr7/1KJzBImLvQK83mMDeypbBf1jIQHccMMBu2J3B67XVQHebZ8B62ZTB4ey0
QJINC79Mq6TBdkL8QMsUs8A3WI7BVUXXQExyYED/VZfBQfqIQORBYkDj/JfBv4nYQG+deECBNqPB
LxSwQJ5IV0CsJKnBUqCrQJi2hEDAx7PBuu+tQHPLRED7gIbBgjIRQcMC8sCRRIjBvousQA6SZz9r
QaLBN5KzQLZW7D9K+avBAY+vQJnsW0D9BpLBnPWIQKzQZ0CpiaLBP85CQEDgXkCB3ZLBsib5QIm+
UkBzrJLBT7cKQS021sAI8pDBIf6vQFtdOMA7jbjBmfvLQNblesAQWnPBGKLHQPrjisC6nqnBwXi1
QDz2HMA3qojB79CiQLlC7b7HYLXBi9r4QON7vcCGZHrBTCPGQOxgdL89SJTBukH5QHyIn8Ar3p7B
RfvZQA1bn0D+8aPBEC/1QIw5XEAy5abBHCiPQDnfckC/HrjB/kyoQMoQp0DQDLLB/0TIQIDkfkAM
ubjBWHiMQACHREC/xoPBiuO7QB7PBEDkXIXB0ELAQHLrc0D51oHBowQbQXEnBsFkcovBjJYaQbyX
38Cka4LBv+gCQTRB/8CoVoTBNiqLQD3OgD+glZ/B1i7CQEfwmz+vyJvBQFObQNJdzj90ErLBiKvT
QBMN1D88QK/BP4RbQFWud0BzQabBgNwMQPCsYEAIKpfB//Q/QG6mWkAC5IrB

>  <OMEGA_E>  (8) 
kOoeP2ZlNz9CZzc/SmY3Pw==

>  <OMEGA_NBR>  (8) 
      9221

$$$$
