50215521
     RDKit          3D

 45 48  0  0  1  0  0  0  0  0999 V2000
    6.6154    5.2508  -24.2412 C   0  0  0  0  0  0  0  0  0  0  0  0
    7.5761    4.9922  -23.2467 C   0  0  0  0  0  0  0  0  0  0  0  0
    5.3269    4.6963  -24.1375 C   0  0  0  0  0  0  0  0  0  0  0  0
    6.7009   -0.5590  -22.6550 C   0  0  0  0  0  0  0  0  0  0  0  0
    5.2454   -4.0458  -18.2446 C   0  0  0  0  0  0  0  0  0  0  0  0
    6.2090   -1.5296  -21.7623 C   0  0  0  0  0  0  0  0  0  0  0  0
    5.7756   -3.1586  -19.1941 C   0  0  0  0  0  0  0  0  0  0  0  0
    7.2489    4.1864  -22.1420 C   0  0  0  0  0  0  0  0  0  0  0  0
    4.9950    3.8898  -23.0357 C   0  0  0  0  0  0  0  0  0  0  0  0
    6.4961    0.8102  -22.3964 C   0  0  0  0  0  0  0  0  0  0  0  0
    5.2701    0.2341  -20.3701 C   0  0  0  0  0  0  0  0  0  0  0  0
    3.9127   -3.8791  -17.8115 C   0  0  0  0  0  0  0  0  0  0  0  0
    3.6344   -2.0019  -19.1863 C   0  0  0  0  0  0  0  0  0  0  0  0
    5.4830   -1.1302  -20.6210 C   0  0  0  0  0  0  0  0  0  0  0  0
    4.9588   -2.1167  -19.6695 C   0  0  0  0  0  0  0  0  0  0  0  0
    5.9445    3.6443  -22.0118 C   0  0  0  0  0  0  0  0  0  0  0  0
    5.7772    1.2177  -21.2431 C   0  0  0  0  0  0  0  0  0  0  0  0
    6.3153    2.9892  -19.5619 C   0  0  0  0  0  0  0  0  0  0  0  0
    4.0776    3.3690  -19.2827 C   0  0  0  0  0  0  0  0  0  0  0  0
    5.5836    2.6881  -20.8680 C   0  0  1  0  0  0  0  0  0  0  0  0
    5.5807    3.7992  -17.2946 C   0  0  0  0  0  0  0  0  0  0  0  0
    3.1331   -2.8771  -18.2849 N   0  0  0  0  0  0  0  0  0  0  0  0
    5.3213    3.2838  -18.6438 N   0  0  0  0  0  0  0  0  0  0  0  0
    4.1715    2.9052  -20.5048 N   0  0  0  0  0  0  0  0  0  0  0  0
    2.9004    3.8341  -18.7181 N   0  0  0  0  0  0  0  0  0  0  0  0
    7.5084    2.8498  -19.3143 O   0  0  0  0  0  0  0  0  0  0  0  0
    6.8674    5.8758  -25.0851 H   0  0  0  0  0  0  0  0  0  0  0  0
    8.5670    5.4135  -23.3319 H   0  0  0  0  0  0  0  0  0  0  0  0
    4.5924    4.8904  -24.9051 H   0  0  0  0  0  0  0  0  0  0  0  0
    7.2371   -0.8651  -23.5411 H   0  0  0  0  0  0  0  0  0  0  0  0
    5.8511   -4.8479  -17.8494 H   0  0  0  0  0  0  0  0  0  0  0  0
    6.3871   -2.5780  -21.9508 H   0  0  0  0  0  0  0  0  0  0  0  0
    6.7882   -3.2734  -19.5518 H   0  0  0  0  0  0  0  0  0  0  0  0
    7.9945    3.9791  -21.3887 H   0  0  0  0  0  0  0  0  0  0  0  0
    4.0093    3.4537  -22.9683 H   0  0  0  0  0  0  0  0  0  0  0  0
    6.8871    1.5515  -23.0774 H   0  0  0  0  0  0  0  0  0  0  0  0
    4.7104    0.5343  -19.4966 H   0  0  0  0  0  0  0  0  0  0  0  0
    3.5045   -4.5665  -17.0854 H   0  0  0  0  0  0  0  0  0  0  0  0
    3.0094   -1.1975  -19.5451 H   0  0  0  0  0  0  0  0  0  0  0  0
    4.6261    3.9493  -16.7690 H   0  0  0  0  0  0  0  0  0  0  0  0
    6.1957    3.0766  -16.7381 H   0  0  0  0  0  0  0  0  0  0  0  0
    6.1151    4.7580  -17.3649 H   0  0  0  0  0  0  0  0  0  0  0  0
    3.3939    2.7240  -21.1069 H   0  0  0  0  0  0  0  0  0  0  0  0
    2.0540    3.8284  -19.2507 H   0  0  0  0  0  0  0  0  0  0  0  0
    2.8974    4.1755  -17.7782 H   0  0  0  0  0  0  0  0  0  0  0  0
  1  2  2  0
  1  3  1  0
  2  8  1  0
  3  9  2  0
  4  6  2  0
  4 10  1  0
  5  7  2  0
  5 12  1  0
  6 14  1  0
  7 15  1  0
  8 16  2  0
  9 16  1  0
 10 17  2  0
 11 14  2  0
 11 17  1  0
 12 22  2  0
 13 15  2  0
 13 22  1  0
 14 15  1  0
 20 16  1  6
 17 20  1  0
 18 20  1  0
 18 23  1  0
 18 26  2  0
 19 23  1  0
 19 24  2  0
 19 25  1  0
 20 24  1  0
 21 23  1  0
  1 27  1  0
  2 28  1  0
  3 29  1  0
  4 30  1  0
  5 31  1  0
  6 32  1  0
  7 33  1  0
  8 34  1  0
  9 35  1  0
 10 36  1  0
 11 37  1  0
 12 38  1  0
 13 39  1  0
 21 40  1  0
 21 41  1  0
 21 42  1  0
 24 43  1  0
 25 44  1  0
 25 45  1  0
M  CHG  1  24   1
M  END
>  <OMEGA_C>  (1) 
QLHTQKIGqEDj7cHBxm/yQEfAn0Al+bnB9nWqQMFHlkCTGcHB/23WQDoZD79oPbXB6tmnQC13gcDm
9JHBRLDGQO3Iw78nGa7BwdG4QDYnSsCQjZnB5vbnQFD3hUDWIrHB8tafQHLyeEAOSbjB99/PQARm
Tz+7K7PB3qSoQHitbz7p9aLB1Gl6QORCeMD2fY7BCJpoQJofAMCcfZnBInWvQNOokL+196TBFa6e
QCZ4B8AlW53BFjm+QLo8aUAfGLDBNt+4QKbdmz/38anBphbKQKJOP0DEfpzB4HuCQPacV0AKQ5rB
wqyyQA4JLEC78abBNpWyQK4lc0BFW4rB6INIQMQiOMBtR5LBTUiqQDgpUkCOJpXBwnyFQE7vOUDq
CaTBJKA5QExidUDDvpXBuETwQHxjNkCag5rBkMHbQGcGvEBersjBPBIJQQc7rUCrp7rBmPSSQAB+
nECPPcfBppbnQFR3Xb8hVLzB/Tu7QMkhm8CNy47B+2LMQGj9JMBUm6/BqDjZQKp+UcAqapzBtdL/
QIapfkABHKvB0kuAQEYJXUALv7fBOGPcQA+Yxj+ZnrjBUbuWQOHECD8K+ZvBq0lgQPIgksD0rojB
VppAQJ9Imb9wXJzBBQmUQJvBfEABJ4bBikPGQOvmRECz54XBPq/DQOpBmEBn64rB6TRZQGVWLkDp
2qjBZnUDQIMEdUB+AZrB2245QHGdhUDHOY7BcHnUQGCbqEDd2sHBdCCrQJgSl0B/GsHB2P/yQAUH
oEBI3bnBD4zWQAI7DL8oP7XBGCKoQMAvgcDdBZLBs8HGQO9hwr8pHq7BXNa4QBmmScAZqZnB9zag
QHcgekB0WbjBVDDoQLonhkBbEbHBYMLPQPwUUj8iNbPBUf2nQARieT58FaPBMkV7QEGUd8AudI7B
uspoQI69/r93bJnBfiuvQOppj781CqXBuJmeQOThBsDqZp3BZ1u+QPLjaUC5HrDBh1y4QPcgnT8E
C6rBTtnJQNESP0AijJzBxjmCQOfOV0DjRprBC2ayQCGsLECWAqfBuH2yQHagckCwXorBATRJQBlS
N8CqK5LBoR2qQHOHUkBFNJXB/kSFQGyMO0DuHqTB18A4QMVsc0DZopXBhNPvQMaSM0Amh5rBaszc
QMmtvEDPksjB98KTQGeanUC/QcfBuGUJQfZWrUAbfbrBCe3nQMNrWr/GTbzBpZq7QCDhmsCs6I7B
c6/MQCVBJMAfmK/B5x7ZQO8VUcDimZzBsaGAQMxOXkD74rfB19j/QIG0fkDnAKvB/WXcQJL8xz9v
orjBOq+VQMT1Cj9SKJzB8YJhQNXKkcDrnojBGahAQKubl794PZzBjPOTQIHwfEAxMIbBUbzFQBqE
Q0Do8IXBlRPEQDy+l0Dg24rByNFYQGJ4MUCA/6jB5l4CQK2BckAz2pnBjIc4QO4hhEB7Eo7BClHW
QP58p0DTx8HBTb30QCBqnUCr4LnB2TysQJbgl0CR7cDBMrfRQIpQDr+XpbXBXr5RQMS0PsC6DZHB
EobCQOsJw7/Cba7BUh9rQM5qAMDyfJjBCBnpQIj/g0DMELHBoXigQMq4fECgJrjBtl3MQJwTUD8b
arPBxAmnQCbmeD6i5aLBal6FQNW+gMCPbI7BkCO5QDZ6TMA6RZrBjhutQATWj7+dBqXBe0SeQIa+
B8D4PZ3Bf4m+QMaSaUCa/6/Bb9y2QGzDnD9s+anBVCvJQGCIPkBBa5zBuwKCQHAOXEBDW5rBRcOx
QPaqLEAc6abBFgayQL6BdECyWYrB0KWsQLGgg8Ch9ZLBFn2pQBDdU0B+JpXBprOEQOjEPEAKEKTB
1rY5QL52fUDK95XBaSLvQBJSM0BBXZrB/0bfQHY6u0BlgsjBVowKQeE5qUCtlLrBYPWUQHeBn0DA
BcfBEIjhQB0kXb9h7LzB4j8TQBeQO8AdYo3B+z/HQPOyJMA5FbDB7yRBQCbyl7/ihZrBzFcAQWcE
eEBBE6vBA0qAQGHmY0BDnLfBq6vYQIq/xj+757jBpBSWQH2YCz90xJvBJkx3QJ+UmMCrqIjBUFfY
QEc6UsBM6p3BL4iTQFs3gEDSNobBWbTEQOb6REBB14XB0T7EQC9KmEBX5orBJnFXQG1tMUBx26jB
yMgDQOWtfkDcRZrBogk6QLAsikA6f47BJFDWQL6yqEAfvcHBfmisQJB4mEDNCcHBJH70QNLtnkDM
v7nBp9PSQF2TC7/mlLXBuudSQCjMPcA7G5HBwdvDQJxvwb/5UK7Buj5sQBQlAMBhn5jBQJegQKcW
fUDwVrjBBczoQEIbhUAJBLHBad3MQGzlUj89dLPB/16nQFYwhD7Z86LBRFeGQJYpf8DEM47B2Ya6
QHzWScAe65nBugauQAbujb/X+qTBUj+fQGaJBsASKZ3BIXK+QP5jakCVIbDB7fy2QE1knj8AE6rB
tHHJQKQ0QEAXrZzBaYuCQN1XYECXkZrB4LmxQMiGLUCgD6fBk/OyQMuxdkBxm4rBIACuQKQOgsBy
i5LB3HirQETAZUCHAZbBxtyEQKMsPkAnIqTBRDk5QB32eUDLypXB2hXuQExnK0D3S5rBClTfQESu
vEAIa8jBC1CVQFbxn0A1MMfBwlcKQfdIq0CzU7rBgvDiQIbRWr8a0LzB4tkTQE5AO8DQlI3B+BLJ
QOviI8Al4q/BwZRBQPS1mb/S4ZrB55CAQJdVY0BS6LfBsRUAQbO0ekAe9KrBJvzYQIgAyD8W+7jB
8x+WQGTMDz+y3pvBVD55QDoxl8AsYYjBUw7aQE3iTsBkZp3BQF2WQP9eikA4G4fBHJy5QJ4VOkCY
c4bBPn/OQDz5kEBquInBdFJXQIo6MUBVyqjBWroBQFDEckCUrJnBwv45QE3RiUD3do7BOiKIQHhA
gUCK94/BrF+0QGuhckDzuZDBlwVbQOEedEBC3ZjBL7LQQAA9gL89KLjBwnGOQPCCD8CVm4rBMUbA
QOGR4r9hrK/BGnCfQJHyub8m3JLBmifGQKygVUCLbJrBJjl+QDXfVkBGj6LBPDjQQBYVzj7AkrfB
psWuQMJojD4m+aXBc+F4QMvEX8D3Go3Bw4GLQPZyTcCTWJ/BhVGvQNl5kb8lfKbBcQeeQF4l+L9r
eZ3BaOKrQFRySUCgj6PB1yC/QKZghz+Efa7B7JapQJ4aTECa57fBKo3vQHBQeEB4dbfBBVO/QF8X
JkAVB67Bma3BQJx6lkDQ5sbBWml2QBtUfcDOSZfBuLrHQAvlgEAsirzBt9jrQOq1REBaMq/BjNAK
QV+Yj0BjibrBQbiFQBZVPEB4X7vBrEd1QCLajEBsj4jB9LjIQDG3fECH24nBawcXQMWLf0B3QJjB
KrTdQBbuvr8mI7/BoSePQIFO8r8mb4LBJZzAQOlINsDwLLDBDGGtQHwc+r6yIJHB9QjoQIuOSEBu
6ZrBcMdUQIeFSkC7TKnBr/7cQKlWfD88G77BR7WhQLRIQz+O/p7BxaZeQGJMg8DxwIbBzlqKQPH4
ZcA1a6fBcCLeQILQqUA3w8jBRfa8QEq6fEDkM83B4GelQI1hq0Bse8bBo/kBQcJaNEAiWarB1TYY
QXZEikBnX7bB9BsLQXnnokAZ6sDB

>  <OMEGA_E>  (1) 
QCn2PUDS9j1g7qQ+xF6oPrjAhz8=

>  <OMEGA_NBR>  (1) 
     12574

$$$$
50215542
     RDKit          3D

 45 48  0  0  1  0  0  0  0  0999 V2000
    4.6588    4.1024  -17.9338 C   0  0  0  0  0  0  0  0  0  0  0  0
    5.9096    3.5072  -18.1879 C   0  0  0  0  0  0  0  0  0  0  0  0
    3.6914    4.1699  -18.9545 C   0  0  0  0  0  0  0  0  0  0  0  0
    7.0562   -1.0137  -22.6833 C   0  0  0  0  0  0  0  0  0  0  0  0
    4.0117   -2.3785  -17.4815 C   0  0  0  0  0  0  0  0  0  0  0  0
    6.4720   -1.8122  -21.6852 C   0  0  0  0  0  0  0  0  0  0  0  0
    4.6006   -1.5419  -18.4428 C   0  0  0  0  0  0  0  0  0  0  0  0
    6.1952    2.9824  -19.4638 C   0  0  0  0  0  0  0  0  0  0  0  0
    3.9717    3.6460  -20.2308 C   0  0  0  0  0  0  0  0  0  0  0  0
    6.7682    0.3602  -22.7474 C   0  0  0  0  0  0  0  0  0  0  0  0
    5.2871    0.1375  -20.8219 C   0  0  0  0  0  0  0  0  0  0  0  0
    3.7845   -3.7345  -17.7936 C   0  0  0  0  0  0  0  0  0  0  0  0
    4.6950   -3.4581  -19.9370 C   0  0  0  0  0  0  0  0  0  0  0  0
    5.5800   -1.2430  -20.7464 C   0  0  0  0  0  0  0  0  0  0  0  0
    4.9524   -2.0854  -19.6986 C   0  0  0  0  0  0  0  0  0  0  0  0
    5.2305    3.0477  -20.5013 C   0  0  0  0  0  0  0  0  0  0  0  0
    5.9057    0.9587  -21.7956 C   0  0  0  0  0  0  0  0  0  0  0  0
    6.6636    3.2684  -22.5473 C   0  0  0  0  0  0  0  0  0  0  0  0
    4.7691    3.3779  -23.8419 C   0  0  0  0  0  0  0  0  0  0  0  0
    5.5545    2.4532  -21.8876 C   0  0  2  0  0  0  0  0  0  0  0  0
    6.8544    4.5362  -24.7244 C   0  0  0  0  0  0  0  0  0  0  0  0
    4.1232   -4.2500  -18.9995 N   0  0  0  0  0  0  0  0  0  0  0  0
    6.0923    3.8254  -23.6839 N   0  0  0  0  0  0  0  0  0  0  0  0
    4.4329    2.6020  -22.8343 N   0  0  0  0  0  0  0  0  0  0  0  0
    3.9175    3.7034  -24.8917 N   0  0  0  0  0  0  0  0  0  0  0  0
    7.8295    3.3754  -22.1803 O   0  0  0  0  0  0  0  0  0  0  0  0
    4.4418    4.5070  -16.9563 H   0  0  0  0  0  0  0  0  0  0  0  0
    6.6505    3.4530  -17.4041 H   0  0  0  0  0  0  0  0  0  0  0  0
    2.7318    4.6248  -18.7578 H   0  0  0  0  0  0  0  0  0  0  0  0
    7.7283   -1.4572  -23.4030 H   0  0  0  0  0  0  0  0  0  0  0  0
    3.7356   -1.9876  -16.5134 H   0  0  0  0  0  0  0  0  0  0  0  0
    6.7051   -2.8655  -21.6347 H   0  0  0  0  0  0  0  0  0  0  0  0
    4.7818   -0.4995  -18.2258 H   0  0  0  0  0  0  0  0  0  0  0  0
    7.1559    2.5269  -19.6532 H   0  0  0  0  0  0  0  0  0  0  0  0
    3.2246    3.6995  -21.0089 H   0  0  0  0  0  0  0  0  0  0  0  0
    7.2074    0.9642  -23.5276 H   0  0  0  0  0  0  0  0  0  0  0  0
    4.5825    0.5718  -20.1280 H   0  0  0  0  0  0  0  0  0  0  0  0
    3.3299   -4.3770  -17.0540 H   0  0  0  0  0  0  0  0  0  0  0  0
    4.9623   -3.8844  -20.8926 H   0  0  0  0  0  0  0  0  0  0  0  0
    6.1682    4.8776  -25.5135 H   0  0  0  0  0  0  0  0  0  0  0  0
    7.3614    5.4046  -24.2786 H   0  0  0  0  0  0  0  0  0  0  0  0
    7.6033    3.8573  -25.1584 H   0  0  0  0  0  0  0  0  0  0  0  0
    3.5372    2.1710  -22.7247 H   0  0  0  0  0  0  0  0  0  0  0  0
    2.9857    3.3409  -24.9104 H   0  0  0  0  0  0  0  0  0  0  0  0
    4.2368    4.2999  -25.6280 H   0  0  0  0  0  0  0  0  0  0  0  0
  1  2  2  0
  1  3  1  0
  2  8  1  0
  3  9  2  0
  4  6  2  0
  4 10  1  0
  5  7  2  0
  5 12  1  0
  6 14  1  0
  7 15  1  0
  8 16  2  0
  9 16  1  0
 10 17  2  0
 11 14  2  0
 11 17  1  0
 12 22  2  0
 13 15  2  0
 13 22  1  0
 14 15  1  0
 20 16  1  1
 17 20  1  0
 18 20  1  0
 18 23  1  0
 18 26  2  0
 19 23  1  0
 19 24  2  0
 19 25  1  0
 20 24  1  0
 21 23  1  0
  1 27  1  0
  2 28  1  0
  3 29  1  0
  4 30  1  0
  5 31  1  0
  6 32  1  0
  7 33  1  0
  8 34  1  0
  9 35  1  0
 10 36  1  0
 11 37  1  0
 12 38  1  0
 13 39  1  0
 21 40  1  0
 21 41  1  0
 21 42  1  0
 24 43  1  0
 25 44  1  0
 25 45  1  0
M  CHG  1  24   1
M  END
>  <OMEGA_C>  (2) 
GxWVQDBHg0B3eI/BWhu9QBl2YEDkgJHBBUBsQCRwhUDCopfBPMzhQBnAgb9wd7XBgV+AQIk5GMA2
2ovBVhrPQC/2578+e63B3DeTQNNbxb/RipPBwj7GQDHfPkDXtZvB3jB+QKpXaUCx2KHBTZXYQAhr
uD6s+rXBJzCpQO3XDD4ok6bBQDVyQHABb8BHWY7B0z2WQNdQXcD/fp/BsI+yQHEan7+M+KXBFnqe
QJJ2BcDOlp3B7F+nQOcNQ0CqAqTBuvu8QOJtdT95Xa7B6jvVQCUuUUDzYLTBFpyYQK8vWEBOvL7B
0b6xQDgBHUC4Ga/BUlfbQJYokUCoy8XBO/GDQPb/h8AB/5fBV/TCQCfUdECueL3B+9mNQJOHJkCV
rLbBCLh6QNMDbUAjIsfBiov6QJMGWEAvcbHBNiOOQJE5kEBwpofBH9HUQEP+XEB/O4vBCdYuQHn+
k0AHEJbB7033QBqFur9uObvBkRNvQN9p/r9iG4TBiJDWQKpkN8DfE63BZASZQMvA/756zpHBNv3k
QBW4IUC5OZ3BfWBOQE3EbEAsEqjB26LmQH7Ydj93OLzBFqSSQNpeEj8zBqHBpx1VQEoQjMCvbojB
Y8ueQEKZeMAiJKfBBWLFQHgVnECYG8zB95DrQL7yrECiOsLB7U3zQKTedkCARMnB5mFiQNrwCkAX
zLXBPBU/QEPRVUBrSMfB1pOHQMiYiUAiBs3B

>  <OMEGA_E>  (2) 
MHCMPw==

>  <OMEGA_NBR>  (2) 
    153829

$$$$
50157418
     RDKit          3D

 48 51  0  0  1  0  0  0  0  0999 V2000
    4.9121    3.7560  -22.9452 C   0  0  0  0  0  0  0  0  0  0  0  0
    7.1354    4.1993  -22.0339 C   0  0  0  0  0  0  0  0  0  0  0  0
    6.5396    0.8048  -22.2056 C   0  0  0  0  0  0  0  0  0  0  0  0
    5.2154    4.5426  -24.0656 C   0  0  0  0  0  0  0  0  0  0  0  0
    7.4366    4.9831  -23.1584 C   0  0  0  0  0  0  0  0  0  0  0  0
    6.7854   -0.5556  -22.4567 C   0  0  0  0  0  0  0  0  0  0  0  0
    5.2604    0.2011  -20.2200 C   0  0  0  0  0  0  0  0  0  0  0  0
    3.6504   -2.0617  -19.0515 C   0  0  0  0  0  0  0  0  0  0  0  0
    5.7754   -3.2156  -19.0348 C   0  0  0  0  0  0  0  0  0  0  0  0
    3.9725   -3.9821  -17.7615 C   0  0  0  0  0  0  0  0  0  0  0  0
    5.5169   -1.1610  -20.4585 C   0  0  0  0  0  0  0  0  0  0  0  0
    4.9770   -2.1603  -19.5182 C   0  0  0  0  0  0  0  0  0  0  0  0
    5.8568    3.5995  -21.9014 C   0  0  0  0  0  0  0  0  0  0  0  0
    5.7671    1.1959  -21.0827 C   0  0  0  0  0  0  0  0  0  0  0  0
    6.4707    5.1689  -24.1659 C   0  0  0  0  0  0  0  0  0  0  0  0
    6.2859   -1.5400  -21.5852 C   0  0  0  0  0  0  0  0  0  0  0  0
    6.2542    3.0229  -19.4389 C   0  0  0  0  0  0  0  0  0  0  0  0
    4.0002    3.3083  -19.1425 C   0  0  0  0  0  0  0  0  0  0  0  0
    5.5260    2.6664  -20.7320 C   0  0  1  0  0  0  0  0  0  0  0  0
    5.5015    3.8300  -17.1699 C   0  0  0  0  0  0  0  0  0  0  0  0
    6.5492    7.3826  -25.0139 C   0  0  0  0  0  0  0  0  0  0  0  0
    3.1667   -2.9771  -18.1862 N   0  0  0  0  0  0  0  0  0  0  0  0
    5.2621   -4.1085  -18.1630 N   0  0  0  0  0  0  0  0  0  0  0  0
    5.2569    3.3183  -18.5245 N   0  0  0  0  0  0  0  0  0  0  0  0
    4.1090    2.8563  -20.3686 N   0  0  0  0  0  0  0  0  0  0  0  0
    2.8003    3.6645  -18.5461 N   0  0  0  0  0  0  0  0  0  0  0  0
    7.4495    2.9065  -19.1905 O   0  0  0  0  0  0  0  0  0  0  0  0
    6.7409    5.9664  -25.2511 O   0  0  0  0  0  0  0  0  0  0  0  0
    6.5257   -2.8428  -21.8628 F   0  0  0  0  0  0  0  0  0  0  0  0
    7.4961    7.8620  -24.1628 F   0  0  0  0  0  0  0  0  0  0  0  0
    5.3114    7.6326  -24.5013 F   0  0  0  0  0  0  0  0  0  0  0  0
    6.6647    8.0275  -26.2002 F   0  0  0  0  0  0  0  0  0  0  0  0
    3.9519    3.2663  -22.8776 H   0  0  0  0  0  0  0  0  0  0  0  0
    7.8804    4.0520  -21.2660 H   0  0  0  0  0  0  0  0  0  0  0  0
    6.9407    1.5554  -22.8705 H   0  0  0  0  0  0  0  0  0  0  0  0
    4.4852    4.6676  -24.8515 H   0  0  0  0  0  0  0  0  0  0  0  0
    8.4091    5.4435  -23.2510 H   0  0  0  0  0  0  0  0  0  0  0  0
    7.3608   -0.8468  -23.3230 H   0  0  0  0  0  0  0  0  0  0  0  0
    4.6675    0.4895  -19.3647 H   0  0  0  0  0  0  0  0  0  0  0  0
    3.0199   -1.2516  -19.3871 H   0  0  0  0  0  0  0  0  0  0  0  0
    6.8001   -3.3101  -19.3626 H   0  0  0  0  0  0  0  0  0  0  0  0
    3.5706   -4.7124  -17.0748 H   0  0  0  0  0  0  0  0  0  0  0  0
    4.5411    3.9792  -16.6548 H   0  0  0  0  0  0  0  0  0  0  0  0
    6.1097    3.1053  -16.6086 H   0  0  0  0  0  0  0  0  0  0  0  0
    6.0373    4.7887  -17.2314 H   0  0  0  0  0  0  0  0  0  0  0  0
    3.3366    2.6662  -20.9746 H   0  0  0  0  0  0  0  0  0  0  0  0
    1.9445    3.5832  -19.0571 H   0  0  0  0  0  0  0  0  0  0  0  0
    2.7906    4.0027  -17.6051 H   0  0  0  0  0  0  0  0  0  0  0  0
  1  4  2  0
  1 13  1  0
  2  5  1  0
  2 13  2  0
  3  6  2  0
  3 14  1  0
  4 15  1  0
  5 15  2  0
  6 16  1  0
  7 11  1  0
  7 14  2  0
  8 12  2  0
  8 22  1  0
  9 12  1  0
  9 23  2  0
 10 22  2  0
 10 23  1  0
 11 12  1  0
 11 16  2  0
 19 13  1  6
 14 19  1  0
 15 28  1  0
 16 29  1  0
 17 19  1  0
 17 24  1  0
 17 27  2  0
 18 24  1  0
 18 25  2  0
 18 26  1  0
 19 25  1  0
 20 24  1  0
 21 28  1  0
 21 30  1  0
 21 31  1  0
 21 32  1  0
  1 33  1  0
  2 34  1  0
  3 35  1  0
  4 36  1  0
  5 37  1  0
  6 38  1  0
  7 39  1  0
  8 40  1  0
  9 41  1  0
 10 42  1  0
 20 43  1  0
 20 44  1  0
 20 45  1  0
 25 46  1  0
 26 47  1  0
 26 48  1  0
M  CHG  1  25   1
M  END
>  <OMEGA_C>  (3) 
7y+dQPdicEC6j7fBDVXkQEJghkBtRbDBtkTRQDgETj8cpbHBmuSmQFtdkUBbhsDB8vjtQDF1n0Bo
RLnBPCLZQK8+Dr9Cp7PBj1WoQBfoTT6OwqHB6J9pQBfyA8BkaZjB/c+4QGXMTcBWR5jB5T1+QCbb
fsCSF47BOoqwQAiclL/vqqPBjkOfQJlBCsBbJZzB1mq7QMFeZkD+Na/B4Iu4QPoTmT9UqajBuA/P
QO5npUC1U8HB+SXJQA4fxb+WrqzBHyLIQDZ3QUDdgpvBggGAQH+7U0C/I5nBBNWwQN+mKkAN26XB
IAywQBQedUDmW4nBZJPRQFY+7ECIHMjBlqpKQB+JPsBqfZHBOWOoQAt5g8DrTZHBdzioQElfVEAe
MpTB43yDQDnNNkDS8qLBhzczQEeHakB2XpTBhWLuQE4DOkArhpnBSrXXQGTsvkA4AsrBVtLQQGnw
NcAO567B3t/vQNaV+0B5TcHB+vapQF8+9ECmAsTB6ETVQKtwAEEJmtHBFex8QMEKUUBQBbfBTyz8
QESqgUDHIKrB4xneQOAYxz++9rbBuoaPQKNclUDRz8bB34sGQYkxrkAJArrBa4vrQFvJWL+WlbrB
IFyVQLak+j7S6prB3EVBQCU0oL/bGJvBZ5rZQLbYU8Ci5prBs4RkQN/LlsAvmYjBblCRQLWrfkD6
PIXBfoLDQKa9RkB33oTBozHBQLU8mUDZ2YnBkItVQE2iKkAQzKfBEOX4P99TZUDYdJjB9ZgyQOUV
gEA414zB4vfkQHd5hUDwXbDBmkWdQGSzcUB9frfBrR3RQLPuTj+6qbHBjsbuQKiLnkAFXLnBOiqn
QI/tkUDVdMDB1qPYQHE8Db9tvrPBugSoQNaqTz7RzqHBHVppQI7RA8DcWJjBH6W4QMfJTcA+dpjB
Tkp/QKFufsCnAo7BDO6vQE1wlL/TyKPBouOeQG1FCsDHPpzBGaa7QOJrZkC7NK/BL224QDlzmT9v
q6jBn6TPQFxIpUA2U8HBb2HIQDTIxL+f1KzBRwvIQBrLQUBDgZvBCL9/QNnGU0BjIpnBts6wQMHY
KkC+2aXBsgOwQEQIeEA9eonBp3DRQA8n7EBPHsjBVEhLQMs0PsDBVZHBZq6oQDlYg8DDZJHBkyKo
QL5lVUDbN5TBiW2DQMAdN0CS9KLBi9IyQAapaUADU5TB31DuQMLuOkAtg5nBQk7YQLXnvkAe/MnB
cLrPQDjBNcA0IK/Bxn3wQOEf/ECen8HBQlWqQD6680Awq8PBb0fTQD1DAEG7rdHBbvz8QMAPgEC0
TarBI5F8QK12U0DY57bBhTDeQOiyxz9S77bB5BQHQVSlrEBYKrrBPLCPQINjlkC3ssbBDADrQPt1
V7/Br7rBaSKVQIsJ+z5w8prB3apAQNQboL88+prBoz3ZQCwDVMDMOZvB5ExmQHR5lsBpb4jBPVCR
QIvogECmWYXB9bfDQKqwSkCw44TBVu3AQGnFmkAqJYrBuXtVQAcxK0CW0qfBpAL4P3H2Y0ArZJjB
SysyQGYjf0DlyYzBeQmdQN5TcUB3h7fBzVrkQN5GhkD4RbDB+n/RQK0tTz+Io7HBZ9CmQMvZkUBd
e8DB7hHuQMJpn0AeRLnB4ILZQFMaDb+vnLPBYhWoQPAEUz5l1KHBO4ppQOp5A8AwapjBC+i4QFHY
TMDMQJjBlI1+QIs5fsC2E47Bt3ewQG/Fk78GsaPBeDyfQJugCcDGJZzBWVG7QDWvZkClNK/BOmO4
QKKDmT+JuKjBAxjPQMWkpUCmTcHBZV7JQN9rxL/epqzBQQvIQP+4QEDSjJvBGs5/QNZnU0A5IZnB
96WwQKetKkCu46XBsUywQHNjd0ABgonBKS7RQChE7EAWSsjBhspKQOwLPsCleZHBR5GoQPEEg8A7
R5HBvkKoQJgfVUAjQpTBbFGDQCvnNkCh9aLBsfcyQDIAaUAcR5TBkBzuQImJNkA5h5nBgNfXQKrp
vkA9B8rB7jvRQPWZNcDz0a7BOq2pQFkq9ECrG8TBlizUQK4qAEHE39HBgabvQJlM/EDQocHBtmd8
QP9sUkDM+bbBcDj8QCdYgUCoJarB54HeQDKxxz8Z7rbBamePQCgOlkASwMbBTKMGQST1rUC1BLrB
ZiXsQDTVV7/mgLrBV+OUQKZ+/T71BpvBiwdBQD2bn79AHZvBBbzZQGqbUsAt25rBmO5kQNmJlsBZ
l4jBvqORQPH3gEAQZIXB6KrDQAd1SUD/64TBn6DBQG85mkCkJ4rBlCNVQPwPK0Bkz6fB5RT4P0sy
Y0C8UZjBgnwyQKBgfkDKvIzBjGadQIlscECYdrfBGknkQDYOh0CdF7DB6sTRQCJKUj8gm7HBLzOn
QCYWkUDwdsDBawHuQIXnn0CxILnBXKrZQO21Cb81qrPByn+oQDKGUz7szqHBMOG4QFBBTcC+XpjB
VetpQE0WA8BEgJjBkW1+QESnfcBEH47BCLuwQN6Zk78EwqPBml+fQDLACcDbQZzBMHq7QAAiZ0Al
Eq/Bks64QIJLmj/XpKjBj0fPQE9KpUA3QcHBMITJQKN0w78+wazBuh7IQPo9QUD/ZZvBW/F/QJNN
UkAbAJnBf+6wQKz6KkCNw6XBZhCwQOtZeECCc4nBJGbQQA6K60DJcMjB9W+oQBgLg8DYW5HBLPhK
QGRJPcD4h5HBOC2oQF0nU0AADZTBG42DQMSUNkAw3KLB8R4zQE/taEBYOZTBjm3uQKaPOkBGcJnB
ggnYQONDvkCdBcrBWULRQMkFNcCJAa/BWbeoQLvq8kAWTcTB1wbTQCoO/0BHGdLBL4PuQJWL/EAc
1cHBbmh9QF32UECJ7LbB3Pf7QCLBgkBu5KnB6MDeQJa8yT+t3bbBC/ePQOq8lECKy8bB64IGQfnf
rkAK2LnByTfsQIcZU7+RlbrBa2eVQPEq+z6D+ZrBnKTZQBCJU8BQAZvBhaFBQHyLnr/DNZvBzK9k
QI8TlsAvmYjBLnyRQDYUgEAENIXBlhfFQP+fTUCU1oTBGoq/QByUm0DcXYrBe8ZVQHrmKkBmvqfB
wur4P3COZEBPWZjB0l8yQI2dfUByp4zB5ILkQIoPhkBSQbDBVC2dQEVwcUAbiLfBPozRQCSpTz/e
pbHBr2HuQGAXn0AhP7nBdRSnQLXrkUBbesDBqIfZQNxpDL9dp7PBdGaoQNTXUD7XzqHBExG5QIFm
TcBZTpjBWkNqQIVOA8AcYpjB9QR/QF8MfsB/Co7BXbqwQE4RlL/ttKPBY4CfQNLjCcCBK5zB/2a7
QJycZkAtMq/B8o64QNt+mT/1s6jBFnXPQFuOpUBfR8HBG3bJQFZexL90tKzBcgDIQLf0QEDUiJvB
V7d/QK65U0CuKJnBR6+wQPiqKkD/4KXBIBmwQGg8d0C3fInBvlbQQBIk7EDJQsjBobeoQKgqg8A4
S5HB8nZLQNmmPcCOa5HBBiioQMw+VUC+QZTBfFSDQKrINkDN96LButQyQA2caUABV5TBphLuQGcL
N0Aff5nBzobYQKkBv0Cq8snB0DfRQL+FNcA27a7BmKvqQM86/EAxlMDB/9mmQAgF80CxZMXBQg3Y
QMJ+AEEfktHB0FH8QCEQgUBHHqrBeZt8QNasUkBm/rbBFH3eQMIcyD/M77bBOdkGQbJkrUAdAbrB
f7aPQJlAlkBAwMbBPhfsQIKTVr9MkLrBiVyVQLV++z4k+ZrB/c7ZQCeaU8Ds9ZrBwelBQPzhnr8E
EJvB72BlQG9YlsBfh4jBS2aRQNPfgEAFY4XBp2TDQFEnSUDZ54TB4nbBQEMjmkB2GYrBnThVQMSW
KkBt0KfB0ur3P/WuY0DhY5jBXUIyQCtRf0B+0IzB4xedQNP9cUBfe7fBO5LkQH7ChUAIO7DBhlHR
QD5uUD+brbHBOSWnQLghkkArbsDBq5buQEC7nkAkObnBd0TZQEqHC7/otrPBiAqoQAAIUD7u3qHB
RE65QAJgTMD6RZjBsdJpQHf4A8Bog5jBvbx/QFKifcBRA47BK2qwQGoBlL9DyqPBD2GfQGDYCcBM
PpzBD1G7QPGwZkDZJ6/B50i4QKyXmT9au6jBBKvPQHV3pUAKPsHBPyfJQHsfxL+/yazBx+DHQHp/
QEA1gpvBo4p/QJXCU0BlHpnB43+wQBOhKkAZ3KXBJyOwQOdld0DHeYnBUZbQQHUD7EDGQcjBRy+p
QPeTgsD4NZHBYYNLQBcgPsBIfpHBixioQL0rVUDuOpTBlymDQIrfNkDk7qLBS9EyQFEgakBGS5TB
F+TtQNHTNUArdpnBsuXYQOXfvkD76MnB2+fQQA9kNcCpBK/B7q7qQHUu/ECqiMDBywGnQFnc8kCF
d8XBnYrYQHVnAEEQkNHBojZ8QEOyU0CH77bBY2H8QHWMgEDjGqrBQ1HeQBCxyD+z8bbBTMiPQL+k
lkBFssbB4QEHQZTHrEDI/bnB/dTrQAU9Vb/loLrBKueUQIXx+T4jDJvBbSHaQBLzUcCh4prBxPBA
QOCkob/FR5vBmHhmQEsXlsAcdojBEXmRQAIagUAIX4XBEGLDQMZRSUBy4YTBwJfBQHYomkAiHorB
gtBUQEPLKkDBxafBeMz3P7SgZEATWJjBeWgyQOjAf0DMw4zBvITkQH6QhUB9P7DB8CqdQKOWckAb
pLfBwrTPQGO0Rz/u+bHBwIHuQArFn0DrA7nBCE6nQKVqk0B5Z8DBXKTXQDUdFb9p5LPBahKoQELQ
RT4z2aHBcEpqQAN1A8CkK5jB0im5QIFGTcDEIJjBbMd/QOOMfcA2vI3BiEOwQHi5lb+0rKPBlG2f
QEIZCsDHApzBnlC7QObHZUC/Vq/B3qu3QIHrlj8D56jBbLzPQEQnp0ABBcHBcFHIQN6Mx7/CwKzB
is3HQPbMP0A3zJvB8gSAQMs5VUC3Y5nBmkGwQLV+KUAvGKbB6rCwQEwzdkD2v4nB2hnNQHoS7UBd
d8jBu+tLQK56PcBiI5HBkgapQD/xgsBgC5HBTuyoQEvVYEC1BJXBnhGDQLuYNkBpIaPB7TUzQGKb
ZkClR5TBDGXtQFa2MUBSlpnBAIfZQOurwEDNn8nBfAzQQHdNN8AG367B6OuiQJQI8UCN5MXBdujT
QN5lAEGa+NHBslHlQApFAEES2MDBq1H8QBItf0AGKqrBJnN8QCP8U0AtObfBSfPbQHo3wz9bbrfB
P+UGQeZBrkATnrnB0BeQQNFlmEDfrsbBzpbpQFKbYb/V4LrBKZKVQPN++j4f8prBa7pBQDOcn78u
3ZrB6tnZQMh6U8Di0prBB4NmQF/xlcDuJ4jB5RiTQAKch0CvJ4bBD9e6QNdgPEAZa4XBT/jJQMSB
k0DHOonBzE9UQLfgKUCc5KfBzI/3P4vNW0BFC5jB/DszQCTyfUCt1IzB+gCdQPgycUAbj7fBK47k
QC6fhUCoXLDB2ZHRQIYGTD/Ym7HBAMemQBX6kUA2ecDB7kHuQG/3nkBlULnB4X/ZQPFkEL9Pj7PB
OJOoQI4eTz56taHB9N24QANPTsAtQZjBxmxqQKoyA8CINpjBolF+QKoXf8DmDo7BrdSwQDGVlL/p
j6PBrYqfQDgMCsBPBJzBPGm7QInoZUDSSK/BybS4QBmTmD+ZqajBMiXPQJuapUCmS8HBE27JQJSy
xb99kazBpiXIQEJkQkCpsJvBOk+AQKB7VkBmVJnBOMmwQAxiKkCy8KXBo36wQDS9d0AQq4nBFbvQ
QLt47EAuG8jBP02oQPfgg8DKV5HB5T9LQK72PcDUVJHBMCOpQMR6ZEBdA5XBvY2DQC6zNkCkAKPB
I3UzQCBHZkB0N5TBvJPtQA2aM0C4YZnBAsbXQHk/v0DG88nBFfrQQAtMNsBlxq7BcovSQIZfAEHu
rdHBsLHvQFyZ/EDrm8HBdpKpQGn180B8rcPB+Dh8QLqJUkC8/7bBWIH8QMFSgECFRqrBJnXeQObG
xT8x8bbBnE2PQO92lkDttsbBKsQGQeVZrUAcFLrBegbsQNrXW79FdrrBnKKVQHdh/T4c35rBQ5rZ
QBWoVMCb6JrBpW9CQDSYnb8i0JrBJ2BkQH8Dl8Bzm4jBEhWTQMkSiUDZIobBVGy5QDmwPEC/bYXB
LYHKQNVnk0Cd74jBnnJVQIy7KEDHvKfBqIX4P+9MWUA77ZfByAIzQDKlfkDC0YzB6aDkQLSZgUBq
5bDB9H2cQMZAdUDKL7jBNbbLQOTtOT+AqrLBz7jvQIfWnEAsT7nBBbenQJ8slkDNo8DBbCzTQCzE
I79KgbTBaSqmQAadMT5GJ6LBMMq4QM4KTsBYRZjBeJpqQCyZAsBWeZfBRMeBQCKge8BM94zB+xKu
QMzZmL9W4aPBEJaeQICrCsAy6JvBAG+6QMYYY0BM+6/BSfm0QFyIkj+ycKnBGDvRQLxlqED7/8DB
4b/EQCwCzb8hIq3B5b3GQNr9PUCKg5zBmvx+QNbpU0ABwJnB82iuQNa3J0ADuabBkJGxQDZXdkDH
e4rBikjAQDZO6EB34crBVgSqQPyvgsDl2ZDBhuxOQNZeO8DVHZDBA8qoQEolYkB8vpXBWZKBQF5F
N0BdnaPBj3IzQMg/YUBYK5TBKBfsQEZuLUCvTprBTtDdQIPIxUDLmsjBqAPMQGBHOsAMM6/BB2yk
QJb220BtndLBEZ3XQHHiBEGUk87BEneqQEyk9UABB8LBP3D8QNttcUB/CqvBSAh6QKHFWED587fB
2lXXQCbouj+VTLjBCPwHQegMqUCT47nBcMCQQABqnUCG1sbBghHkQBPkc789nbvBkoOUQJya9z7s
JpvB27/YQHRoVcBmbZvBSWdBQC2pnb+E+ZnBh2xsQGN4lMAfHofBH9iUQIY7iUC6zobBVkm6QGRh
O0B6MobBJirMQHsmkkArAorBkYtQQH1kLUDwWqjBE1/2Py7eVECEp5fBAj01QCo/d0D5qIzB

>  <OMEGA_E>  (3) 
gAfxPADC9TxAxQA9ICMCPcC6Az0AbAQ9ANULPUB4GT0wgcc9

>  <OMEGA_NBR>  (3) 
     17001

$$$$
50218462
     RDKit          3D

 41 43  0  0  1  0  0  0  0  0999 V2000
    6.8994   -1.1605  -22.1844 C   0  0  0  0  0  0  0  0  0  0  0  0
    4.4962   -4.2078  -17.8606 C   0  0  0  0  0  0  0  0  0  0  0  0
    6.2641   -1.9971  -21.2492 C   0  0  0  0  0  0  0  0  0  0  0  0
    5.2062   -3.4485  -18.8079 C   0  0  0  0  0  0  0  0  0  0  0  0
    6.5670    0.2042  -22.2560 C   0  0  0  0  0  0  0  0  0  0  0  0
    4.9496   -0.0972  -20.4599 C   0  0  0  0  0  0  0  0  0  0  0  0
    3.1597   -3.8692  -17.5612 C   0  0  0  0  0  0  0  0  0  0  0  0
    3.2112   -2.0885  -19.0840 C   0  0  0  0  0  0  0  0  0  0  0  0
    5.2734   -1.4741  -20.3874 C   0  0  0  0  0  0  0  0  0  0  0  0
    4.5622   -2.3517  -19.4215 C   0  0  0  0  0  0  0  0  0  0  0  0
    5.5894    0.7570  -21.3938 C   0  0  0  0  0  0  0  0  0  0  0  0
    6.6651    2.9490  -19.4285 C   0  0  0  0  0  0  0  0  0  0  0  0
    4.2401    2.9860  -19.3195 C   0  0  0  0  0  0  0  0  0  0  0  0
    6.5569    3.0586  -20.9529 C   0  0  0  0  0  0  0  0  0  0  0  0
    5.3061    2.2781  -21.4353 C   0  0  1  0  0  0  0  0  0  0  0  0
    4.9632    2.7176  -22.8773 C   0  0  0  0  0  0  0  0  0  0  0  0
    5.5552    3.0917  -17.1875 C   0  0  0  0  0  0  0  0  0  0  0  0
    2.5399   -2.8352  -18.1765 N   0  0  0  0  0  0  0  0  0  0  0  0
    5.4902    2.9709  -18.6627 N   0  0  0  0  0  0  0  0  0  0  0  0
    4.1318    2.6739  -20.5947 N   0  0  0  0  0  0  0  0  0  0  0  0
    3.0742    3.2873  -18.6252 N   0  0  0  0  0  0  0  0  0  0  0  0
    7.7730    2.9989  -18.9060 O   0  0  0  0  0  0  0  0  0  0  0  0
    7.6458   -1.5677  -22.8504 H   0  0  0  0  0  0  0  0  0  0  0  0
    4.9701   -5.0431  -17.3665 H   0  0  0  0  0  0  0  0  0  0  0  0
    6.5337   -3.0412  -21.1895 H   0  0  0  0  0  0  0  0  0  0  0  0
    6.2255   -3.6996  -19.0614 H   0  0  0  0  0  0  0  0  0  0  0  0
    7.0629    0.8376  -22.9767 H   0  0  0  0  0  0  0  0  0  0  0  0
    4.2032    0.3088  -19.7932 H   0  0  0  0  0  0  0  0  0  0  0  0
    2.6200   -4.4471  -16.8256 H   0  0  0  0  0  0  0  0  0  0  0  0
    2.7018   -1.2669  -19.5655 H   0  0  0  0  0  0  0  0  0  0  0  0
    6.4632    4.1164  -21.2396 H   0  0  0  0  0  0  0  0  0  0  0  0
    7.4582    2.6314  -21.4169 H   0  0  0  0  0  0  0  0  0  0  0  0
    4.7641    3.7993  -22.8939 H   0  0  0  0  0  0  0  0  0  0  0  0
    5.8106    2.4907  -23.5409 H   0  0  0  0  0  0  0  0  0  0  0  0
    4.0710    2.1753  -23.2234 H   0  0  0  0  0  0  0  0  0  0  0  0
    4.5360    3.0905  -16.7737 H   0  0  0  0  0  0  0  0  0  0  0  0
    6.1194    2.2424  -16.7747 H   0  0  0  0  0  0  0  0  0  0  0  0
    6.0588    4.0319  -16.9186 H   0  0  0  0  0  0  0  0  0  0  0  0
    3.2270    2.7024  -21.0195 H   0  0  0  0  0  0  0  0  0  0  0  0
    2.1919    3.2625  -19.0952 H   0  0  0  0  0  0  0  0  0  0  0  0
    3.1178    3.5287  -17.6558 H   0  0  0  0  0  0  0  0  0  0  0  0
  1  3  2  0
  1  5  1  0
  2  4  2  0
  2  7  1  0
  3  9  1  0
  4 10  1  0
  5 11  2  0
  6  9  2  0
  6 11  1  0
  7 18  2  0
  8 10  2  0
  8 18  1  0
  9 10  1  0
 11 15  1  0
 12 14  1  0
 12 19  1  0
 12 22  2  0
 13 19  1  0
 13 20  2  0
 13 21  1  0
 14 15  1  0
 15 16  1  6
 15 20  1  0
 17 19  1  0
  1 23  1  0
  2 24  1  0
  3 25  1  0
  4 26  1  0
  5 27  1  0
  6 28  1  0
  7 29  1  0
  8 30  1  0
 14 31  1  0
 14 32  1  0
 16 33  1  0
 16 34  1  0
 16 35  1  0
 17 36  1  0
 17 37  1  0
 17 38  1  0
 20 39  1  0
 21 40  1  0
 21 41  1  0
M  CHG  1  20   1
M  END
>  <OMEGA_C>  (4) 
BsjcQG2KlL+gebHB3uCPQAimhsCQ4o7BK3PIQFyi/79a/qnBRZmmQMKzXMCBdpbBoiTSQOAjUT5A
DLLB+WKeQHQOx734raPBITlKQKygd8BgfYzBLIRNQIqpBcD0q5jBpL+oQNqvvL9uGaPBKf2RQEqC
FsAxX5vBrtyyQC7JQT98JqvBxkjVQCi9PECqbZvBkq6HQO4aP0BPjprBe9LRQAjAQ0CTn6fBZ8up
QBzMEUB6e6vBhdKeQNjtLUCuBLfB+cOxQBLeRUAAgInBT40iQKx0NcCAaZHBoq+vQM4iPkBATZXB
5jeEQIogK0AMwqTB3L9EQHBiUkB8AJXBf7z4QGruP0ByP5fBEKr0QG+ryL+HzbbB5AqfQMhgocCv
7orBGRTRQJWjQsAWhKnBqDfHQJrGbMDAfZjBFAPiQE1rVj8u0LfB8oCGQNcfnj6IWJ7B7q0nQMxO
jsDumobB9+ksQOMpor89hpzBaNLOQNS5g0Cz6qnBY6nuQIRpKEDkVavBIHOYQFooc0CnJrfBePC5
QDpoH0DQU7zBSEWCQJk4C0CMybnBlCaRQETKRUCbMIbBxtHDQGyDD0CPMobB6eHBQEcFgUA3WYfB
h4ZOQMz0LEDsJ6jBhUcMQHDNUEDzwpjBrolHQFDWYUAVP43B+wLgQEDdiL9gx7HBYEo1QAaaSsCx
LZHBHZHLQOSZ+b+WsarB5PdXQGh+EMAYmZjB13/UQEpSkj77ArLBzkyfQNjk5710D6TBjB5oQONm
h8Atao3B/u2tQCrEYsBBBJjBjRCrQJJGvr/UvqPBKJmWQObqG8A9FpzBIQ60QC1qST/xNavBx3nV
QAgCQEApeJvB8+iHQKpGQUBPmZrBpcrRQMEJR0CvpKfBwyGqQJN0E0BpdqvBLOWeQIOKL0B0/rbB
cvqxQMKGSkDojonBjMCcQBECjcC82pDB6umvQEWSQUCIV5XBJ3OEQDtBK0C3uqTBDDhFQOv+VUBb
IpXB0fj4QF47Q0CzT5fBN7D4QEDMt7+rEbfBUJ7oP5gLQ8CnY47B/rnUQBhwP8Aai6rBkP4xQNzS
t7+MlZvBop7kQJ7DdD/2dLfBj2OGQC51gD7w057BkJBNQF6FncBhqofBLF7OQEfrbMC0tprB3RbO
QIhQhUBw7KnBP9XuQDffLECNY6vBteaXQFuIdEBqGLfBzSK6QFsmIkBXT7zBq6iCQGLkC0A8x7nB
912RQONiSkD1PobBijPEQFC8FEC3K4bBgOnBQDWOg0D6gIfB8rdOQGdrKkCKD6jBLtAMQPXfU0Ce
55jBcu1HQNUHZ0Ajbo3B

>  <OMEGA_E>  (4) 
sOeGPozmoT4=

>  <OMEGA_NBR>  (4) 
     25236

$$$$
408871
     RDKit          3D

 45 48  0  0  1  0  0  0  0  0999 V2000
    4.4395    3.4539  -17.7325 C   0  0  0  0  0  0  0  0  0  0  0  0
    3.5293    3.3457  -18.7998 C   0  0  0  0  0  0  0  0  0  0  0  0
    5.7955    3.1349  -17.9283 C   0  0  0  0  0  0  0  0  0  0  0  0
    6.6675   -1.3714  -22.9021 C   0  0  0  0  0  0  0  0  0  0  0  0
    4.5673   -4.3313  -18.3443 C   0  0  0  0  0  0  0  0  0  0  0  0
    6.1006   -2.1747  -21.8939 C   0  0  0  0  0  0  0  0  0  0  0  0
    5.2480   -3.6106  -19.3427 C   0  0  0  0  0  0  0  0  0  0  0  0
    3.9795    2.9505  -20.0715 C   0  0  0  0  0  0  0  0  0  0  0  0
    6.2484    2.7296  -19.1960 C   0  0  0  0  0  0  0  0  0  0  0  0
    6.5473    0.0295  -22.8469 C   0  0  0  0  0  0  0  0  0  0  0  0
    5.2574   -0.1723  -20.7893 C   0  0  0  0  0  0  0  0  0  0  0  0
    3.3282   -3.8540  -17.8664 C   0  0  0  0  0  0  0  0  0  0  0  0
    3.4248   -2.0038  -19.3018 C   0  0  0  0  0  0  0  0  0  0  0  0
    5.3628   -1.5805  -20.8460 C   0  0  0  0  0  0  0  0  0  0  0  0
    4.6772   -2.4126  -19.8239 C   0  0  0  0  0  0  0  0  0  0  0  0
    5.3542    2.6757  -20.2952 C   0  0  0  0  0  0  0  0  0  0  0  0
    5.8838    0.6487  -21.7623 C   0  0  0  0  0  0  0  0  0  0  0  0
    7.1918    2.8067  -22.0386 C   0  0  0  0  0  0  0  0  0  0  0  0
    5.6011    3.7567  -23.3722 C   0  0  0  0  0  0  0  0  0  0  0  0
    5.8290    2.1846  -21.6743 C   0  0  2  0  0  0  0  0  0  0  0  0
    7.9667    4.5945  -23.6365 C   0  0  0  0  0  0  0  0  0  0  0  0
    2.7763   -2.7173  -18.3516 N   0  0  0  0  0  0  0  0  0  0  0  0
    4.9422    2.7208  -22.7208 N   0  0  0  0  0  0  0  0  0  0  0  0
    6.9697    3.6467  -23.1205 N   0  0  0  0  0  0  0  0  0  0  0  0
    5.0328    4.6659  -24.1219 N   0  0  0  0  0  0  0  0  0  0  0  0
    8.2877    2.5592  -21.5466 O   0  0  0  0  0  0  0  0  0  0  0  0
    4.0969    3.7820  -16.7623 H   0  0  0  0  0  0  0  0  0  0  0  0
    2.4839    3.5665  -18.6419 H   0  0  0  0  0  0  0  0  0  0  0  0
    6.4896    3.2016  -17.1036 H   0  0  0  0  0  0  0  0  0  0  0  0
    7.1975   -1.8331  -23.7221 H   0  0  0  0  0  0  0  0  0  0  0  0
    4.9897   -5.2424  -17.9468 H   0  0  0  0  0  0  0  0  0  0  0  0
    6.2301   -3.2465  -21.9219 H   0  0  0  0  0  0  0  0  0  0  0  0
    6.1894   -3.9674  -19.7336 H   0  0  0  0  0  0  0  0  0  0  0  0
    3.2745    2.8552  -20.8841 H   0  0  0  0  0  0  0  0  0  0  0  0
    7.2845    2.4573  -19.3335 H   0  0  0  0  0  0  0  0  0  0  0  0
    6.9642    0.6355  -23.6377 H   0  0  0  0  0  0  0  0  0  0  0  0
    4.6908    0.2864  -19.9924 H   0  0  0  0  0  0  0  0  0  0  0  0
    2.8095   -4.4073  -17.0975 H   0  0  0  0  0  0  0  0  0  0  0  0
    2.9740   -1.0954  -19.6733 H   0  0  0  0  0  0  0  0  0  0  0  0
    7.5459    5.1392  -24.4946 H   0  0  0  0  0  0  0  0  0  0  0  0
    8.2368    5.3093  -22.8453 H   0  0  0  0  0  0  0  0  0  0  0  0
    8.8643    4.0447  -23.9559 H   0  0  0  0  0  0  0  0  0  0  0  0
    4.0200    2.3942  -22.9280 H   0  0  0  0  0  0  0  0  0  0  0  0
    5.5909    5.3623  -24.5732 H   0  0  0  0  0  0  0  0  0  0  0  0
    4.0402    4.6645  -24.2437 H   0  0  0  0  0  0  0  0  0  0  0  0
  1  2  2  0
  1  3  1  0
  2  8  1  0
  3  9  2  0
  4  6  2  0
  4 10  1  0
  5  7  2  0
  5 12  1  0
  6 14  1  0
  7 15  1  0
  8 16  2  0
  9 16  1  0
 10 17  2  0
 11 14  2  0
 11 17  1  0
 12 22  2  0
 13 15  2  0
 13 22  1  0
 14 15  1  0
 20 16  1  1
 17 20  1  0
 18 20  1  0
 18 24  1  0
 18 26  2  0
 19 23  1  0
 19 24  1  0
 19 25  2  0
 20 23  1  0
 21 24  1  0
  1 27  1  0
  2 28  1  0
  3 29  1  0
  4 30  1  0
  5 31  1  0
  6 32  1  0
  7 33  1  0
  8 34  1  0
  9 35  1  0
 10 36  1  0
 11 37  1  0
 12 38  1  0
 13 39  1  0
 21 40  1  0
 21 41  1  0
 21 42  1  0
 23 43  1  0
 25 44  1  0
 25 45  1  0
M  CHG  1  25   1
M  END
>  <OMEGA_C>  (5) 
IBCOQKoMXUAt3I3B5d9hQEEgVkDtZZbBdHS5QPeiSEAbbY/BWVzVQNKJr7+DN7fBpieSQBCaisAW
wZLBEDjDQKEtC8C4Jq/BOu+nQMMUZ8DTvZrBUK9+QOTUPEBxkqDBN/PHQAOxLkBbkZnBboPRQAiZ
8TyKxrbBPzyoQCdvML59UKbB8QFVQCeodsB67o7Bpy9bQCQ+AMAaaprBF5yrQBZPyr+ZxKbBv6uV
QG5nGsBLl57ByFWrQA8+K0CrXKLB1Ue8QBYOJj8mGa7BhSPmQHuhM0ADT7DBkDyzQG1ucEA8+rrB
xIa6QD3QC0AGZa3BP+/+QDoGk0CfF73Brq8xQAXpLcAq0JLBJiaeQO8hLkAoxLXBxAffQNxiaUDc
9rjBcwyhQFNPlUCv+cDBlJoEQWPJI0B3X6zByRmDQNkMckAeGYbB4/geQBxBZECvIpXBp6rPQLbm
TEAU1IjBrlHmQEqi6r/gxr3BvqufQF7Bp8AMk4/BvFzHQLzGT8AWYK/Bkg/GQDzpfcB03p3B6pBR
QFy8NkCpEqfBbxrpQO9EHUATq5rB/treQN6yIj/4Gb3BtRqWQKqckj598J/Bsc4zQE0IjcDEx4jB
QVU+QFA2jL/eYp3B/XfxQG50pEDf9MPB0MkDQSnmqUAlw7bBLtQNQe1tgUCupb/B46OAQDU6GUCN
bLfBruiyQKOXq0DRlcTBc0mBQMVDlUAg88HB9D6OQKEjXUCm2Y3BSKG5QOvkSEAJeI/BtMxhQG10
VUBbVJbBpF3WQGu4sL8ZJLfBzACSQCxhisC2qZLBlr7DQIv4C8AFKK/BrrqnQKduZ8CQu5rBluTH
QBhRLkCVm5nB2iJ+QLOXO0ASgKDB0FvSQMCUqDxntLbBjPynQNBQQL6SbqbBjuNUQCG0dcDH147B
h95aQJ16AMAWg5rBYIurQDkvzL8/3abB7HGVQEQhG8AksJ7BbgurQHgpKkDSWKLBtHu8QPreIj/W
G67Buj/lQPhtNEDYYbDBGCOxQCHicEBOwrrB4hy6QBf6CkAyZ63Bio78QOwnlEBtMb3BK50xQEo6
LcDLzpLBfDKdQJRjLEBrtrXByAvdQFsZbECjyLjBqfSdQPMllUBErsDBOlgEQX22JECapqzBa3aD
QJiYckCSF4bB7APQQKrFTUAi6ojBY+seQMJvY0ARBpXBOs/nQC6C67/Fob3B036fQOttp8AJa4/B
t/jHQMGMUMC5X6/BNtPFQHGWfsBO153BygjpQCT1HEDLvprB369QQIfuNEDU9KbBQxDgQCH8ID/b
97zBvlKVQCtuiT5yJKDBMM4zQOg+jMB8oIjBKe09QCtdjb+Hkp3BQ+7tQCxmpkBgxcPB04ADQUFV
qkDY4LbBYSsMQSNHgkDjOsDBlRiAQLOeFUCSb7fB0w+vQLwPrECnRcTBHmF8QMEslEB/ncHBCiuP
QKZGa0B6347B1Fa6QE63U0D9H5DBNgFlQAY7Y0C2f5fBmqHXQLXQpL8mnbfBWv49QFZ9PcBK4pLB
mp3EQA5GBsBfxK/BUNlgQMyUBcB+jprBMxzJQJybNUBkDprBCyyBQLSHRUBbdaHBW5nTQNBo3D1Z
FbfBVXyoQBCJ5L2n3KbB1rBrQK/kg8Aq+o/BrCitQHogZsCh8JvBw1ysQGXuwr+1Z6fBh1aYQHbW
GcCLNZ/BAPmsQGbnMEAT7aLBumm9QNKFNz9BhK7BAYbpQPRXNUDPNrDBRUW5QKh9eEAfGrvBy+u8
QCQ7EEBLx63BYVEDQT69kUCK97zB4hWcQAVzjcBNepTB1dKiQAg4NUCaarbBvGfjQIqAeEA2UbfB
K5epQGv8lkCWI8LB3iAGQSYtGkB0JK3BIwOEQEHJgUDFR4fBRSPQQKbFWEBFc4nBI28iQCLjc0Dl
dpbBeGrpQJK93r/CE77BRtEAQE6lL8D2QI/Boo7IQA3iSsDuH7DBIxs/QE47mL+x2ZzBYg/qQFP3
IUBa7prB8/lVQGJiPkDlBajBTZDhQELPOD/hRb3BR4eVQK1OrT5amaDBCx1RQBcsmcDjCIrB1IjL
QJajdsC7gZ/BlZ/5QNcqq0AGHMLBg2IOQS7Rn0BRGbfBa/ELQdOcdEBE68HBS6uFQM1FIUA2k7jB
7Di8QFbMrUAeRMXBq/mKQDCclEDPY8TBBPiLQBeTbUCNnI7BjKFgQBnRY0BTaJfBQGy3QHE6V0DA
i4/BZxzWQAZTn78mrLfBqbg/QNCvPcAel5LBXyHDQMhhBMC+6a/B9ORhQGwKBcB+OZrB1kiAQITB
RUBpOKHB9H7HQOGuOEATVZnBiwbTQCwIGj7O1LbB1dqoQMABwb2VeqbBctpsQOeMhMDSA5DBvtKs
QLUIZ8BnOJzBpvCrQPC8wL/ST6fBTT+YQBekGcCzKp/BlGWsQLx9MkDzZaLBUY+9QO3xPj84Fq7B
wIfqQCfsNUCsd6/BGpq7QJhjd0CQ27rBWnG9QAP7EUCqLq3B+a0EQetNkUDdQrzBthOcQH9HjsCN
y5TBJ8ajQA+KN0Du5rXBwqDmQJsYbEB+NrjBnEWsQE80mUDROMHB1zIGQa3JIECpRKvB26h/QJUf
g0ALIofBs5gdQP1vc0AZnpbBbHXMQEGMXUCGvIjB3SLnQCTm17/aTr7BPX0DQESPL8DDvI7BuUbG
QOoKScCHhbDBUo1AQGKAlb9/RZzB76pVQFBCPUAw6afBqqfoQC3WJUDQ8pnBMS7hQBenRj+267zB
962WQANfsT7tB6DB68tSQI4gmsCGGorBQbvKQDnKd8BgAqDBdPb9QASLo0BJOsPBpcEJQcacp0Dv
8bXBa04SQUJSekDFo77BXxWGQCr0JUCL67fBJAXAQAdErkD9q8TBZc+MQPOwmkCNosLB

>  <OMEGA_E>  (5) 
qvx0P3gQdT828ng/Wv95Pw==

>  <OMEGA_NBR>  (5) 
      3416

$$$$
50145431
     RDKit          3D

 41 43  0  0  0  0  0  0  0  0999 V2000
    7.6052    0.3318  -19.3771 C   0  0  0  0  0  0  0  0  0  0  0  0
    5.8016   -5.1215  -19.3678 C   0  0  0  0  0  0  0  0  0  0  0  0
    7.0597   -0.9501  -19.2077 C   0  0  0  0  0  0  0  0  0  0  0  0
    6.3273   -3.8248  -19.4703 C   0  0  0  0  0  0  0  0  0  0  0  0
    7.1146    1.1768  -20.3843 C   0  0  0  0  0  0  0  0  0  0  0  0
    5.4788   -0.5160  -21.0182 C   0  0  0  0  0  0  0  0  0  0  0  0
    4.4528   -5.3469  -19.7086 C   0  0  0  0  0  0  0  0  0  0  0  0
    4.1445   -3.0838  -20.2443 C   0  0  0  0  0  0  0  0  0  0  0  0
    6.0084   -1.3957  -20.0432 C   0  0  0  0  0  0  0  0  0  0  0  0
    5.4882   -2.7785  -19.9139 C   0  0  0  0  0  0  0  0  0  0  0  0
    6.0201    0.7754  -21.1916 C   0  0  0  0  0  0  0  0  0  0  0  0
    6.6313    4.7020  -20.4528 C   0  0  0  0  0  0  0  0  0  0  0  0
    5.6943    3.8207  -20.9518 C   0  0  0  0  0  0  0  0  0  0  0  0
    6.4025    5.2994  -19.1333 C   0  0  0  0  0  0  0  0  0  0  0  0
    4.3400    4.0174  -19.0188 C   0  0  0  0  0  0  0  0  0  0  0  0
    4.9425    5.5296  -17.1051 C   0  0  0  0  0  0  0  0  0  0  0  0
    5.4421    1.6640  -22.2981 C   0  0  0  0  0  0  0  0  0  0  0  0
    5.9330    3.1381  -22.2905 C   0  0  0  0  0  0  0  0  0  0  0  0
    3.6525   -4.3411  -20.1367 N   0  0  0  0  0  0  0  0  0  0  0  0
    4.5392    3.5062  -20.2188 N   0  0  0  0  0  0  0  0  0  0  0  0
    5.2598    4.9118  -18.4157 N   0  0  0  0  0  0  0  0  0  0  0  0
    3.1751    3.6441  -18.3554 N   0  0  0  0  0  0  0  0  0  0  0  0
    7.2150    6.1036  -18.6880 O   0  0  0  0  0  0  0  0  0  0  0  0
    8.4032    0.6682  -18.7318 H   0  0  0  0  0  0  0  0  0  0  0  0
    6.4236   -5.9378  -19.0314 H   0  0  0  0  0  0  0  0  0  0  0  0
    7.4444   -1.5998  -18.4355 H   0  0  0  0  0  0  0  0  0  0  0  0
    7.3581   -3.6294  -19.2140 H   0  0  0  0  0  0  0  0  0  0  0  0
    7.5743    2.1406  -20.5458 H   0  0  0  0  0  0  0  0  0  0  0  0
    4.6525   -0.8366  -21.6353 H   0  0  0  0  0  0  0  0  0  0  0  0
    4.0477   -6.3447  -19.6266 H   0  0  0  0  0  0  0  0  0  0  0  0
    3.4957   -2.2931  -20.5911 H   0  0  0  0  0  0  0  0  0  0  0  0
    7.5155    4.9469  -21.0226 H   0  0  0  0  0  0  0  0  0  0  0  0
    4.0140    5.0930  -16.7085 H   0  0  0  0  0  0  0  0  0  0  0  0
    5.7664    5.3401  -16.4014 H   0  0  0  0  0  0  0  0  0  0  0  0
    4.8119    6.6143  -17.2332 H   0  0  0  0  0  0  0  0  0  0  0  0
    5.7141    1.2203  -23.2672 H   0  0  0  0  0  0  0  0  0  0  0  0
    4.3472    1.6699  -22.1920 H   0  0  0  0  0  0  0  0  0  0  0  0
    5.3941    3.6942  -23.0718 H   0  0  0  0  0  0  0  0  0  0  0  0
    7.0112    3.1528  -22.5075 H   0  0  0  0  0  0  0  0  0  0  0  0
    2.6512    3.0147  -18.9293 H   0  0  0  0  0  0  0  0  0  0  0  0
    3.4116    3.1923  -17.4952 H   0  0  0  0  0  0  0  0  0  0  0  0
  1  3  2  0
  1  5  1  0
  2  4  2  0
  2  7  1  0
  3  9  1  0
  4 10  1  0
  5 11  2  0
  6  9  2  0
  6 11  1  0
  7 19  2  0
  8 10  2  0
  8 19  1  0
  9 10  1  0
 11 17  1  0
 12 13  2  0
 12 14  1  0
 13 18  1  0
 13 20  1  0
 14 21  1  0
 14 23  2  0
 15 20  2  0
 15 21  1  0
 15 22  1  0
 16 21  1  0
 17 18  1  0
  1 24  1  0
  2 25  1  0
  3 26  1  0
  4 27  1  0
  5 28  1  0
  6 29  1  0
  7 30  1  0
  8 31  1  0
 12 32  1  0
 16 33  1  0
 16 34  1  0
 16 35  1  0
 17 36  1  0
 17 37  1  0
 18 38  1  0
 18 39  1  0
 22 40  1  0
 22 41  1  0
M  END
>  <OMEGA_C>  (6) 
o13zQEThqT5EBJvB6Ka5QDfjo8A28ZrB5ujhQDk5c79aqZnBJXnKQH/JdMA8w5vB56rjQIuhlj/4
EqPBnVKvQAYXBL9YJajBWX2OQCYaq8A3q53BwZ+EQHBcRcBp9KHBg0TAQLansr9pWKDBEZ+vQLDT
McCpT5/BlaTAQFGBRj94iKnB2jPUQIV2lkBgn6PBAji2QLeFdEAxnafBr+HMQHuUqUAXEZnBkuGK
QCyOgECDJpjBrCieQOPysEBI14jBUSWuQJj+1D+LYrLBv9q9QCfXSEDyUrLBL8NpQCPqisDoF6HB
e0GRQBJmYEANwKHBXVCoQJctnUB0U5PBMjRLQMU4aUDY15LBD+HmQGBQw0DwgJXBZHMGQYMPKz+m
2pXBTY7NQIcCvsBYQJjBdzjuQIbHzL/6e5PBT3XrQDhIaMA+tpnB82DyQPv/CEDiXaTBReGUQJYu
Vr8LFa3BEoeBQB4Iy8BRA53Bx7hfQHfCEsCpuqTB6n7wQA9NnkBOLqjBgnKAQAz6okAZq4XBcIa4
QPzhqkAgNoPBL/uZQKOo00Cm3YnBCNq2QDQynD8uI7rBSRyLQB3A1T8wibHBfZysQMJtbEAMk7jB
AlzgQNPGSUBqD7TBrqwpQFzwQEAyb5fBBlhaQFZOTEAz9ovB0RnyQIyMlT6USpvBTn1nQNIDjcBq
UKHBmirgQHgDfL8GAJrB8EKCQHtgRcDFUaLBXqbiQMc4kz9dSqPBL6GtQIzEBL+fbqjB0FCQQFvv
rMDixZ3BUgDIQF4odsCKNpzBpkS+QHOatL/CrqDB7zCtQD2CMsBitZ/B3m2/QPttRD9SwanBs3nU
QHLOlUDOpKPBQyW2QOoYdECEqqfBB3TNQBW5qECRDZnBrwGLQBVpgEBYK5jBf/CeQPwusECtyojB
yzStQJO+1T8jjbLB4XK9QOjWSEC5arLBvH+5QGm6o8DJT5vBOB+RQG96YECRzKHBIcuoQI6UnEBm
UJPBDkdLQMJ6aUC03JLBUsTnQJ8RwkAUdpXB6ucFQW4/HT/+H5bBDQomQI4LlcDpO6PBD07sQKuE
0r9835PBOORZQByHE8BXC6XB5rPxQMcHB0CLiKTB4wyTQLRQU78AYa3BYxiFQIB6zcCEAZ3BVero
QFRuaMC+NprBbtHwQL9ynUAmNKjBARmBQLx1okCzoIXBYUe5QJOsqUBxL4PBXiSbQOX20kDLwYnB
hLS1QEFlnT+4VLrBKi6KQAcA2D9HsLHBNVysQHYpbUCyoLjBdPHfQLQWSUByK7TBlTopQIrQQUBF
epfB6TRaQNIITEA1AozB

>  <OMEGA_E>  (6) 
oKuOP5oYjj8=

>  <OMEGA_NBR>  (6) 
     10017

$$$$
50218462
     RDKit          3D

 41 43  0  0  1  0  0  0  0  0999 V2000
    6.8994   -1.1605  -22.1844 C   0  0  0  0  0  0  0  0  0  0  0  0
    4.4962   -4.2078  -17.8606 C   0  0  0  0  0  0  0  0  0  0  0  0
    6.2641   -1.9971  -21.2492 C   0  0  0  0  0  0  0  0  0  0  0  0
    5.2062   -3.4485  -18.8079 C   0  0  0  0  0  0  0  0  0  0  0  0
    6.5670    0.2042  -22.2560 C   0  0  0  0  0  0  0  0  0  0  0  0
    4.9496   -0.0972  -20.4599 C   0  0  0  0  0  0  0  0  0  0  0  0
    3.1597   -3.8692  -17.5612 C   0  0  0  0  0  0  0  0  0  0  0  0
    3.2112   -2.0885  -19.0840 C   0  0  0  0  0  0  0  0  0  0  0  0
    5.2734   -1.4741  -20.3874 C   0  0  0  0  0  0  0  0  0  0  0  0
    4.5622   -2.3517  -19.4215 C   0  0  0  0  0  0  0  0  0  0  0  0
    5.5894    0.7570  -21.3938 C   0  0  0  0  0  0  0  0  0  0  0  0
    6.6651    2.9490  -19.4285 C   0  0  0  0  0  0  0  0  0  0  0  0
    4.2401    2.9860  -19.3195 C   0  0  0  0  0  0  0  0  0  0  0  0
    6.5569    3.0586  -20.9529 C   0  0  0  0  0  0  0  0  0  0  0  0
    5.3061    2.2781  -21.4353 C   0  0  1  0  0  0  0  0  0  0  0  0
    4.9632    2.7176  -22.8773 C   0  0  0  0  0  0  0  0  0  0  0  0
    5.5552    3.0917  -17.1875 C   0  0  0  0  0  0  0  0  0  0  0  0
    2.5399   -2.8352  -18.1765 N   0  0  0  0  0  0  0  0  0  0  0  0
    5.4902    2.9709  -18.6627 N   0  0  0  0  0  0  0  0  0  0  0  0
    4.1318    2.6739  -20.5947 N   0  0  0  0  0  0  0  0  0  0  0  0
    3.0742    3.2873  -18.6252 N   0  0  0  0  0  0  0  0  0  0  0  0
    7.7730    2.9989  -18.9060 O   0  0  0  0  0  0  0  0  0  0  0  0
    7.6458   -1.5677  -22.8504 H   0  0  0  0  0  0  0  0  0  0  0  0
    4.9701   -5.0431  -17.3665 H   0  0  0  0  0  0  0  0  0  0  0  0
    6.5337   -3.0412  -21.1895 H   0  0  0  0  0  0  0  0  0  0  0  0
    6.2255   -3.6996  -19.0614 H   0  0  0  0  0  0  0  0  0  0  0  0
    7.0629    0.8376  -22.9767 H   0  0  0  0  0  0  0  0  0  0  0  0
    4.2032    0.3088  -19.7932 H   0  0  0  0  0  0  0  0  0  0  0  0
    2.6200   -4.4471  -16.8256 H   0  0  0  0  0  0  0  0  0  0  0  0
    2.7018   -1.2669  -19.5655 H   0  0  0  0  0  0  0  0  0  0  0  0
    6.4632    4.1164  -21.2396 H   0  0  0  0  0  0  0  0  0  0  0  0
    7.4582    2.6314  -21.4169 H   0  0  0  0  0  0  0  0  0  0  0  0
    4.7641    3.7993  -22.8939 H   0  0  0  0  0  0  0  0  0  0  0  0
    5.8106    2.4907  -23.5409 H   0  0  0  0  0  0  0  0  0  0  0  0
    4.0710    2.1753  -23.2234 H   0  0  0  0  0  0  0  0  0  0  0  0
    4.5360    3.0905  -16.7737 H   0  0  0  0  0  0  0  0  0  0  0  0
    6.1194    2.2424  -16.7747 H   0  0  0  0  0  0  0  0  0  0  0  0
    6.0588    4.0319  -16.9186 H   0  0  0  0  0  0  0  0  0  0  0  0
    3.2270    2.7024  -21.0195 H   0  0  0  0  0  0  0  0  0  0  0  0
    2.1919    3.2625  -19.0952 H   0  0  0  0  0  0  0  0  0  0  0  0
    3.1178    3.5287  -17.6558 H   0  0  0  0  0  0  0  0  0  0  0  0
  1  3  2  0
  1  5  1  0
  2  4  2  0
  2  7  1  0
  3  9  1  0
  4 10  1  0
  5 11  2  0
  6  9  2  0
  6 11  1  0
  7 18  2  0
  8 10  2  0
  8 18  1  0
  9 10  1  0
 11 15  1  0
 12 14  1  0
 12 19  1  0
 12 22  2  0
 13 19  1  0
 13 20  2  0
 13 21  1  0
 14 15  1  0
 15 16  1  6
 15 20  1  0
 17 19  1  0
  1 23  1  0
  2 24  1  0
  3 25  1  0
  4 26  1  0
  5 27  1  0
  6 28  1  0
  7 29  1  0
  8 30  1  0
 14 31  1  0
 14 32  1  0
 16 33  1  0
 16 34  1  0
 16 35  1  0
 17 36  1  0
 17 37  1  0
 17 38  1  0
 20 39  1  0
 21 40  1  0
 21 41  1  0
M  CHG  1  20   1
M  END
>  <OMEGA_C>  (7) 
BsjcQG2KlL+gebHB3uCPQAimhsCQ4o7BK3PIQFyi/79a/qnBRZmmQMKzXMCBdpbBoiTSQOAjUT5A
DLLB+WKeQHQOx734raPBITlKQKygd8BgfYzBLIRNQIqpBcD0q5jBpL+oQNqvvL9uGaPBKf2RQEqC
FsAxX5vBrtyyQC7JQT98JqvBxkjVQCi9PECqbZvBkq6HQO4aP0BPjprBe9LRQAjAQ0CTn6fBZ8up
QBzMEUB6e6vBhdKeQNjtLUCuBLfB+cOxQBLeRUAAgInBT40iQKx0NcCAaZHBoq+vQM4iPkBATZXB
5jeEQIogK0AMwqTB3L9EQHBiUkB8AJXBf7z4QGruP0ByP5fBEKr0QG+ryL+HzbbB5AqfQMhgocCv
7orBGRTRQJWjQsAWhKnBqDfHQJrGbMDAfZjBFAPiQE1rVj8u0LfB8oCGQNcfnj6IWJ7B7q0nQMxO
jsDumobB9+ksQOMpor89hpzBaNLOQNS5g0Cz6qnBY6nuQIRpKEDkVavBIHOYQFooc0CnJrfBePC5
QDpoH0DQU7zBSEWCQJk4C0CMybnBlCaRQETKRUCbMIbBxtHDQGyDD0CPMobB6eHBQEcFgUA3WYfB
h4ZOQMz0LEDsJ6jBhUcMQHDNUEDzwpjBrolHQFDWYUAVP43B+wLgQEDdiL9gx7HBYEo1QAaaSsCx
LZHBHZHLQOSZ+b+WsarB5PdXQGh+EMAYmZjB13/UQEpSkj77ArLBzkyfQNjk5710D6TBjB5oQONm
h8Atao3B/u2tQCrEYsBBBJjBjRCrQJJGvr/UvqPBKJmWQObqG8A9FpzBIQ60QC1qST/xNavBx3nV
QAgCQEApeJvB8+iHQKpGQUBPmZrBpcrRQMEJR0CvpKfBwyGqQJN0E0BpdqvBLOWeQIOKL0B0/rbB
cvqxQMKGSkDojonBjMCcQBECjcC82pDB6umvQEWSQUCIV5XBJ3OEQDtBK0C3uqTBDDhFQOv+VUBb
IpXB0fj4QF47Q0CzT5fBN7D4QEDMt7+rEbfBUJ7oP5gLQ8CnY47B/rnUQBhwP8Aai6rBkP4xQNzS
t7+MlZvBop7kQJ7DdD/2dLfBj2OGQC51gD7w057BkJBNQF6FncBhqofBLF7OQEfrbMC0tprB3RbO
QIhQhUBw7KnBP9XuQDffLECNY6vBteaXQFuIdEBqGLfBzSK6QFsmIkBXT7zBq6iCQGLkC0A8x7nB
912RQONiSkD1PobBijPEQFC8FEC3K4bBgOnBQDWOg0D6gIfB8rdOQGdrKkCKD6jBLtAMQPXfU0Ce
55jBcu1HQNUHZ0Ajbo3B

>  <OMEGA_E>  (7) 
sOeGPozmoT4=

>  <OMEGA_NBR>  (7) 
     25236

$$$$
