450347
     RDKit          3D

 53 56  0  0  1  0  0  0  0  0999 V2000
    5.6041   -0.9331  -22.0820 C   0  0  0  0  0  0  0  0  0  0  0  0
    6.3092   -0.1297  -22.9847 C   0  0  0  0  0  0  0  0  0  0  0  0
    3.2757   -4.8295  -16.9756 C   0  0  0  0  0  0  0  0  0  0  0  0
    4.1288   -4.2959  -17.9553 C   0  0  0  0  0  0  0  0  0  0  0  0
    5.3578    0.9755  -20.5819 C   0  0  0  0  0  0  0  0  0  0  0  0
    1.6868   -3.0671  -17.4989 C   0  0  0  0  0  0  0  0  0  0  0  0
    6.0345    1.8173  -21.5042 C   0  0  0  0  0  0  0  0  0  0  0  0
    5.1578   -0.3944  -20.8564 C   0  0  0  0  0  0  0  0  0  0  0  0
    2.0362   -4.2072  -16.7482 C   0  0  0  0  0  0  0  0  0  0  0  0
    6.5549    1.2224  -22.6967 C   0  0  0  0  0  0  0  0  0  0  0  0
    3.7223   -3.1437  -18.6727 C   0  0  0  0  0  0  0  0  0  0  0  0
    4.3999    4.8538  -20.5103 C   0  0  0  0  0  0  0  0  0  0  0  0
    4.5998   -2.5397  -19.6883 C   0  0  0  0  0  0  0  0  0  0  0  0
    5.6670    6.2620  -23.6801 C   0  0  0  0  0  0  0  0  0  0  0  0
    6.8958    6.4842  -21.4646 C   0  0  0  0  0  0  0  0  0  0  0  0
    6.2973    4.1792  -22.4562 C   0  0  0  0  0  0  0  0  0  0  0  0
    5.1730    7.7278  -23.5832 C   0  0  0  0  0  0  0  0  0  0  0  0
    6.8954    7.9729  -21.8902 C   0  0  0  0  0  0  0  0  0  0  0  0
    6.2651    3.3159  -21.1525 C   0  0  2  0  0  0  0  0  0  0  0  0
    5.8502    5.6376  -22.2693 C   0  0  0  0  0  0  0  0  0  0  0  0
    7.5942    3.4119  -20.3551 C   0  0  0  0  0  0  0  0  0  0  0  0
    2.5221   -2.5550  -18.4305 N   0  0  0  0  0  0  0  0  0  0  0  0
    5.1665    3.8109  -20.2552 N   0  0  0  0  0  0  0  0  0  0  0  0
    3.3632    5.1445  -19.6381 N   0  0  0  0  0  0  0  0  0  0  0  0
    4.4703   -1.1640  -19.9141 N   0  0  0  0  0  0  0  0  0  0  0  0
    5.4569   -3.2240  -20.2403 O   0  0  0  0  0  0  0  0  0  0  0  0
    4.5591    5.6703  -21.6072 O   0  0  0  0  0  0  0  0  0  0  0  0
    5.5830    8.3643  -22.3440 O   0  0  0  0  0  0  0  0  0  0  0  0
    1.1845   -4.6953  -15.8184 F   0  0  0  0  0  0  0  0  0  0  0  0
    7.2960    1.9108  -23.5941 F   0  0  0  0  0  0  0  0  0  0  0  0
    5.4014   -1.9661  -22.3232 H   0  0  0  0  0  0  0  0  0  0  0  0
    6.6677   -0.5533  -23.9112 H   0  0  0  0  0  0  0  0  0  0  0  0
    3.5665   -5.7011  -16.4079 H   0  0  0  0  0  0  0  0  0  0  0  0
    5.0832   -4.7582  -18.1594 H   0  0  0  0  0  0  0  0  0  0  0  0
    4.9902    1.3906  -19.6551 H   0  0  0  0  0  0  0  0  0  0  0  0
    0.7321   -2.5925  -17.3264 H   0  0  0  0  0  0  0  0  0  0  0  0
    4.9285    5.6707  -24.2412 H   0  0  0  0  0  0  0  0  0  0  0  0
    6.6311    6.2423  -24.2093 H   0  0  0  0  0  0  0  0  0  0  0  0
    7.8985    6.0665  -21.6380 H   0  0  0  0  0  0  0  0  0  0  0  0
    6.6528    6.4220  -20.3936 H   0  0  0  0  0  0  0  0  0  0  0  0
    7.3283    4.1829  -22.8397 H   0  0  0  0  0  0  0  0  0  0  0  0
    5.6327    3.7087  -23.1957 H   0  0  0  0  0  0  0  0  0  0  0  0
    5.5871    8.2977  -24.4280 H   0  0  0  0  0  0  0  0  0  0  0  0
    4.0744    7.7358  -23.6389 H   0  0  0  0  0  0  0  0  0  0  0  0
    7.1828    8.5961  -21.0305 H   0  0  0  0  0  0  0  0  0  0  0  0
    7.6193    8.1172  -22.7058 H   0  0  0  0  0  0  0  0  0  0  0  0
    7.7881    4.4616  -20.0896 H   0  0  0  0  0  0  0  0  0  0  0  0
    7.5155    2.8103  -19.4375 H   0  0  0  0  0  0  0  0  0  0  0  0
    8.4208    3.0315  -20.9732 H   0  0  0  0  0  0  0  0  0  0  0  0
    5.0046    3.3138  -19.4028 H   0  0  0  0  0  0  0  0  0  0  0  0
    2.7631    5.9242  -19.8170 H   0  0  0  0  0  0  0  0  0  0  0  0
    3.2151    4.5747  -18.8298 H   0  0  0  0  0  0  0  0  0  0  0  0
    3.8132   -0.6786  -19.3374 H   0  0  0  0  0  0  0  0  0  0  0  0
  1  2  2  0
  1  8  1  0
  2 10  1  0
  3  4  2  0
  3  9  1  0
  4 11  1  0
  5  7  1  0
  5  8  2  0
  6  9  2  0
  6 22  1  0
  7 10  2  0
  7 19  1  0
  8 25  1  0
  9 29  1  0
 10 30  1  0
 11 13  1  0
 11 22  2  0
 12 23  2  0
 12 24  1  0
 12 27  1  0
 13 25  1  0
 13 26  2  0
 14 17  1  0
 14 20  1  0
 15 18  1  0
 15 20  1  0
 16 19  1  0
 16 20  1  0
 17 28  1  0
 18 28  1  0
 19 21  1  1
 19 23  1  0
 20 27  1  0
  1 31  1  0
  2 32  1  0
  3 33  1  0
  4 34  1  0
  5 35  1  0
  6 36  1  0
 14 37  1  0
 14 38  1  0
 15 39  1  0
 15 40  1  0
 16 41  1  0
 16 42  1  0
 17 43  1  0
 17 44  1  0
 18 45  1  0
 18 46  1  0
 21 47  1  0
 21 48  1  0
 21 49  1  0
 23 50  1  0
 24 51  1  0
 24 52  1  0
 25 53  1  0
M  CHG  1  23   1
M  END
>  <OMEGA_C>  (1) 
DVWzQALibr/dp7DBCuXJQB3WBL6e4LfB06VRQGCLmsDzzYfBzB6EQMd3icBipI/BEnOrQGi8eT/A
p6TBJ+rXP01LRMCq/YvBSRrBQMyd6D+oCKzBSwylQJXryb4A2qbB3FACQA2hhsBf/IXB08HRQHl4
nD/GkrXB7TluQLIyScCjYZXBScyMQDRSm0AWFaTBvTGTQEOKIsCigZ3B31e1QI1iyEC/cL3BBKrc
QL9+z0CJt6vBr4PJQNO7hUA1prPBLomlQItK90BfqrzBYafcQGEi/0AnH6/Bm3vIQLg3VEA+OKnB
yDS7QAJntECWJ7LBtQPzQPtcWkA516LBd2khQBGFI8CwcZPBMVSlQN3lc0CwCqLB+j5XQL2fpEDp
Gp3BfwyPQJv+lL8nUJ/BuZ6uQA1WTsA07KHBv+ORQOlytUCI26zBQaiyQE/UBUF8wLLBPZ+XP4A/
lsBOGH3BDHnpQNqT9D+/wLzBMtisQL2q+7/dlbLBgV3VQHalDb8vSr/BG0JkQDVvtsBpQ4PBnqmi
QFZDmMBuRpHB0a+fQEL+sT+YPZ3BfG07P7/rJcCInIrBHLadQDh2tUAO7sHBzjHUQE/Bx0CsrMHB
TcD8QOMgwkCwGq3B9ePUQBSBzUAOJqPBT4HqQHXahUC1t7bBAT+0QL5abUC6kLnBjcmyQJDDBEGU
bMPBxWGCQOiL90BpHL3BYdnlQIiJCUFsPqjB9NDzQCLgAUGTpbXBODj5QNPFjkCFt6DBr37wQGvc
M0AZgJvBcrsGQZADQkAYyafB4yWgQFMVVEDdOJvBj9YwQKaSvUA8iZ7B9sRNQJJjkkCCo5bBlwt0
QJW2Lb8Ms5rB

>  <OMEGA_E>  (1) 
9HdcPw==

>  <OMEGA_NBR>  (1) 
     56688

$$$$
450354
     RDKit          3D

 49 52  0  0  1  0  0  0  0  0999 V2000
    5.8262   -0.9660  -22.0825 C   0  0  0  0  0  0  0  0  0  0  0  0
    6.6401   -0.0569  -22.7691 C   0  0  0  0  0  0  0  0  0  0  0  0
    3.1169   -4.9406  -17.2027 C   0  0  0  0  0  0  0  0  0  0  0  0
    3.9225   -4.4757  -18.2504 C   0  0  0  0  0  0  0  0  0  0  0  0
    5.1721    0.7884  -20.5284 C   0  0  0  0  0  0  0  0  0  0  0  0
    1.9235   -2.8245  -17.2619 C   0  0  0  0  0  0  0  0  0  0  0  0
    6.0066    1.7088  -21.1821 C   0  0  0  0  0  0  0  0  0  0  0  0
    5.0973   -0.5315  -20.9585 C   0  0  0  0  0  0  0  0  0  0  0  0
    2.1045   -4.1038  -16.7051 C   0  0  0  0  0  0  0  0  0  0  0  0
    6.7438    1.2722  -22.3273 C   0  0  0  0  0  0  0  0  0  0  0  0
    3.6912   -3.1831  -18.7706 C   0  0  0  0  0  0  0  0  0  0  0  0
    4.1600    4.3301  -19.6756 C   0  0  0  0  0  0  0  0  0  0  0  0
    4.5270   -2.6500  -19.8501 C   0  0  0  0  0  0  0  0  0  0  0  0
    6.9304    6.8193  -22.0272 C   0  0  0  0  0  0  0  0  0  0  0  0
    6.5002    6.3775  -20.6182 C   0  0  0  0  0  0  0  0  0  0  0  0
    5.4907    6.4616  -22.4717 C   0  0  0  0  0  0  0  0  0  0  0  0
    6.0003    4.0972  -21.7871 C   0  0  0  0  0  0  0  0  0  0  0  0
    6.1367    3.1205  -20.6067 C   0  0  2  0  0  0  0  0  0  0  0  0
    5.4830    5.4459  -21.3214 C   0  0  0  0  0  0  0  0  0  0  0  0
    7.5029    3.2297  -19.8799 C   0  0  0  0  0  0  0  0  0  0  0  0
    2.7062   -2.3881  -18.2695 N   0  0  0  0  0  0  0  0  0  0  0  0
    5.0784    3.3937  -19.5710 N   0  0  0  0  0  0  0  0  0  0  0  0
    3.1164    4.3218  -18.7622 N   0  0  0  0  0  0  0  0  0  0  0  0
    4.2667   -1.3470  -20.2262 N   0  0  0  0  0  0  0  0  0  0  0  0
    5.4814   -3.2852  -20.2878 O   0  0  0  0  0  0  0  0  0  0  0  0
    4.2142    5.3272  -20.6302 O   0  0  0  0  0  0  0  0  0  0  0  0
    1.3074   -4.5234  -15.7001 F   0  0  0  0  0  0  0  0  0  0  0  0
    7.5636    2.0912  -23.0243 F   0  0  0  0  0  0  0  0  0  0  0  0
    5.7579   -1.9922  -22.4122 H   0  0  0  0  0  0  0  0  0  0  0  0
    7.1900   -0.3787  -23.6411 H   0  0  0  0  0  0  0  0  0  0  0  0
    3.2716   -5.9246  -16.7853 H   0  0  0  0  0  0  0  0  0  0  0  0
    4.7087   -5.0964  -18.6542 H   0  0  0  0  0  0  0  0  0  0  0  0
    4.5820    1.1091  -19.6825 H   0  0  0  0  0  0  0  0  0  0  0  0
    1.1457   -2.1820  -16.8764 H   0  0  0  0  0  0  0  0  0  0  0  0
    7.1924    7.8838  -22.1189 H   0  0  0  0  0  0  0  0  0  0  0  0
    7.7217    6.2064  -22.4833 H   0  0  0  0  0  0  0  0  0  0  0  0
    7.2782    5.8588  -20.0388 H   0  0  0  0  0  0  0  0  0  0  0  0
    6.0515    7.1705  -20.0020 H   0  0  0  0  0  0  0  0  0  0  0  0
    4.7603    7.2780  -22.3719 H   0  0  0  0  0  0  0  0  0  0  0  0
    5.4137    6.0215  -23.4769 H   0  0  0  0  0  0  0  0  0  0  0  0
    6.9855    4.2329  -22.2573 H   0  0  0  0  0  0  0  0  0  0  0  0
    5.2980    3.6771  -22.5222 H   0  0  0  0  0  0  0  0  0  0  0  0
    7.6151    4.2397  -19.4587 H   0  0  0  0  0  0  0  0  0  0  0  0
    7.5473    2.4875  -19.0693 H   0  0  0  0  0  0  0  0  0  0  0  0
    8.3155    3.0392  -20.5964 H   0  0  0  0  0  0  0  0  0  0  0  0
    5.0733    2.8253  -18.7482 H   0  0  0  0  0  0  0  0  0  0  0  0
    2.4138    5.0325  -18.7993 H   0  0  0  0  0  0  0  0  0  0  0  0
    3.0664    3.6051  -18.0666 H   0  0  0  0  0  0  0  0  0  0  0  0
    3.3909   -0.9595  -19.9387 H   0  0  0  0  0  0  0  0  0  0  0  0
  1  2  2  0
  1  8  1  0
  2 10  1  0
  3  4  2  0
  3  9  1  0
  4 11  1  0
  5  7  1  0
  5  8  2  0
  6  9  2  0
  6 21  1  0
  7 10  2  0
  7 18  1  0
  8 24  1  0
  9 27  1  0
 10 28  1  0
 11 13  1  0
 11 21  2  0
 12 22  2  0
 12 23  1  0
 12 26  1  0
 13 24  1  0
 13 25  2  0
 14 15  1  0
 14 16  1  0
 15 19  1  0
 16 19  1  0
 17 18  1  0
 17 19  1  0
 18 20  1  1
 18 22  1  0
 19 26  1  0
  1 29  1  0
  2 30  1  0
  3 31  1  0
  4 32  1  0
  5 33  1  0
  6 34  1  0
 14 35  1  0
 14 36  1  0
 15 37  1  0
 15 38  1  0
 16 39  1  0
 16 40  1  0
 17 41  1  0
 17 42  1  0
 20 43  1  0
 20 44  1  0
 20 45  1  0
 22 46  1  0
 23 47  1  0
 23 48  1  0
 24 49  1  0
M  CHG  1  22   1
M  END
>  <OMEGA_C>  (2) 
RXC6QAROd7/4qLDB9nvUQMD5aL0IJ7bB2HtHQJoZnsAln4nBRgp7QMQ4j8DSAJLBe4GlQL7XST8R
OqTB0jT2P9XDNMBqGIrBJjbAQOi62j8BdanBZx2jQDkTCL/vqqfBMLAGQDRSg8D8o4XBf83XQNbX
oj9UnrLBlDxsQES4S8BJKpbBwR6FQDiQikC3Z53BC92QQOyZKcD6zJ7B/sXdQBg42kCnN7DB+QHQ
QF0UzEAg8qTBLLSvQE3FzkATxrPBkQLAQKUcg0AVTK7BB2DEQJy2R0CF2qTBVHSvQLdErkAykqrB
IBjwQCC0TkATCp/BxDEtQOnWGMDyJ5LBoYKiQDIzWUBUkZzBwnJHQBZMikAPGZbBIImIQAlqrL8/
z6HB4GevQEZBUsBtTaLBEduGQFZ4qkCsCqXBYVinP32/kMCkM3vBSwnyQNrVBUC7MbjBaUC4QFIA
/78/TLPBNBTmQOrlwb4JIb3Be2FRQG2WvcA7SIbBYa2WQJMVo8DbO5XBo5+SQMn3jT/cdZ3B5KSS
P8qlC8DdAofB8yfmQLtH/EB/87DBexj3QIyaxkDW3bPBIefoQFV7u0B5T6DBMqbBQNV05UAHBKDB
R1SYQBPl6ECu+bLBLz2tQBqwwECw0LvBOYnfQAp0h0DcDrLBj4mpQBVVa0BrLbTBla7zQIGrh0Bd
q5vBPoPxQBozH0DujZjBcQwFQbWBQkB4xaTBl1iiQF/SNEBh/JXBR3waQPIJoUDmZJbBnkBEQDS6
ZkBuiJDBxQNZQFuhdb9fgp/B

>  <OMEGA_E>  (2) 
BJgbPw==

>  <OMEGA_NBR>  (2) 
     62673

$$$$
450369
     RDKit          3D

 49 52  0  0  1  0  0  0  0  0999 V2000
    5.9260   -1.0305  -22.0913 C   0  0  0  0  0  0  0  0  0  0  0  0
    6.6634   -0.0973  -22.8301 C   0  0  0  0  0  0  0  0  0  0  0  0
    1.7694   -2.9001  -17.3298 C   0  0  0  0  0  0  0  0  0  0  0  0
    2.5959   -2.4299  -18.3516 C   0  0  0  0  0  0  0  0  0  0  0  0
    5.1340    0.7576  -20.6532 C   0  0  0  0  0  0  0  0  0  0  0  0
    3.1594   -4.8900  -17.2345 C   0  0  0  0  0  0  0  0  0  0  0  0
    5.8459    1.7256  -21.3852 C   0  0  0  0  0  0  0  0  0  0  0  0
    5.1626   -0.5864  -20.9995 C   0  0  0  0  0  0  0  0  0  0  0  0
    2.0547   -4.1477  -16.7647 C   0  0  0  0  0  0  0  0  0  0  0  0
    6.6385    1.2689  -22.4925 C   0  0  0  0  0  0  0  0  0  0  0  0
    3.6979   -3.2174  -18.7876 C   0  0  0  0  0  0  0  0  0  0  0  0
    4.0617    4.5217  -19.6828 C   0  0  0  0  0  0  0  0  0  0  0  0
    4.5874   -2.6971  -19.8372 C   0  0  0  0  0  0  0  0  0  0  0  0
    7.4721    6.5879  -22.5263 C   0  0  0  0  0  0  0  0  0  0  0  0
    7.1673    6.2885  -21.0496 C   0  0  0  0  0  0  0  0  0  0  0  0
    5.9438    6.5965  -22.7428 C   0  0  0  0  0  0  0  0  0  0  0  0
    5.9105    4.1895  -21.9897 C   0  0  0  0  0  0  0  0  0  0  0  0
    5.8203    3.1730  -20.8384 C   0  0  2  0  0  0  0  0  0  0  0  0
    5.8398    5.6506  -21.5351 C   0  0  0  0  0  0  0  0  0  0  0  0
    6.9723    3.2993  -19.8059 C   0  0  0  0  0  0  0  0  0  0  0  0
    3.9553   -4.4235  -18.2250 N   0  0  0  0  0  0  0  0  0  0  0  0
    4.5122    3.3759  -20.1281 N   0  0  0  0  0  0  0  0  0  0  0  0
    3.2076    4.5014  -18.5917 N   0  0  0  0  0  0  0  0  0  0  0  0
    4.3612   -1.3953  -20.2311 N   0  0  0  0  0  0  0  0  0  0  0  0
    5.5479   -3.3488  -20.2349 O   0  0  0  0  0  0  0  0  0  0  0  0
    1.2680   -4.6347  -15.7821 F   0  0  0  0  0  0  0  0  0  0  0  0
    7.3987    2.0769  -23.2602 F   0  0  0  0  0  0  0  0  0  0  0  0
    4.4087    6.0519  -20.4664 S   0  0  0  0  0  0  0  0  0  0  0  0
    5.9441   -2.0771  -22.3573 H   0  0  0  0  0  0  0  0  0  0  0  0
    7.2579   -0.4295  -23.6683 H   0  0  0  0  0  0  0  0  0  0  0  0
    0.9301   -2.3150  -16.9838 H   0  0  0  0  0  0  0  0  0  0  0  0
    2.3997   -1.4718  -18.8097 H   0  0  0  0  0  0  0  0  0  0  0  0
    4.5501    1.0683  -19.7995 H   0  0  0  0  0  0  0  0  0  0  0  0
    3.3745   -5.8521  -16.7937 H   0  0  0  0  0  0  0  0  0  0  0  0
    7.9705    7.5513  -22.7095 H   0  0  0  0  0  0  0  0  0  0  0  0
    8.0101    5.7897  -23.0586 H   0  0  0  0  0  0  0  0  0  0  0  0
    7.8657    5.5880  -20.5683 H   0  0  0  0  0  0  0  0  0  0  0  0
    7.0452    7.1787  -20.4150 H   0  0  0  0  0  0  0  0  0  0  0  0
    5.4653    7.5768  -22.6012 H   0  0  0  0  0  0  0  0  0  0  0  0
    5.6126    6.1613  -23.6972 H   0  0  0  0  0  0  0  0  0  0  0  0
    6.8654    4.0356  -22.5135 H   0  0  0  0  0  0  0  0  0  0  0  0
    5.0775    4.0020  -22.6833 H   0  0  0  0  0  0  0  0  0  0  0  0
    6.9858    4.3190  -19.3937 H   0  0  0  0  0  0  0  0  0  0  0  0
    6.8154    2.5767  -18.9915 H   0  0  0  0  0  0  0  0  0  0  0  0
    7.9324    3.0912  -20.3008 H   0  0  0  0  0  0  0  0  0  0  0  0
    3.9385    2.5697  -19.9835 H   0  0  0  0  0  0  0  0  0  0  0  0
    2.7983    5.3518  -18.2611 H   0  0  0  0  0  0  0  0  0  0  0  0
    3.0005    3.6363  -18.1348 H   0  0  0  0  0  0  0  0  0  0  0  0
    3.5037   -0.9877  -19.9171 H   0  0  0  0  0  0  0  0  0  0  0  0
  1  2  2  0
  1  8  1  0
  2 10  1  0
  3  4  2  0
  3  9  1  0
  4 11  1  0
  5  7  1  0
  5  8  2  0
  6  9  2  0
  6 21  1  0
  7 10  2  0
  7 18  1  0
  8 24  1  0
  9 26  1  0
 10 27  1  0
 11 13  1  0
 11 21  2  0
 12 22  2  0
 12 23  1  0
 12 28  1  0
 13 24  1  0
 13 25  2  0
 14 15  1  0
 14 16  1  0
 15 19  1  0
 16 19  1  0
 17 18  1  0
 17 19  1  0
 18 20  1  1
 18 22  1  0
 19 28  1  0
  1 29  1  0
  2 30  1  0
  3 31  1  0
  4 32  1  0
  5 33  1  0
  6 34  1  0
 14 35  1  0
 14 36  1  0
 15 37  1  0
 15 38  1  0
 16 39  1  0
 16 40  1  0
 17 41  1  0
 17 42  1  0
 20 43  1  0
 20 44  1  0
 20 45  1  0
 22 46  1  0
 23 47  1  0
 23 48  1  0
 24 49  1  0
M  CHG  1  22   1
M  END
>  <OMEGA_C>  (3) 
JaK9QCLng7/zurDBvzrVQNBWx70HpLbB7XviPzWbOcBmo4rBgiMmQBKEG8AJ0JLBH0qkQMHyQT+5
OaXBLjNKQKl6nMBX4InB4RG7QC7h3D/yFKvBNDSlQA4bFr8A/6fBGoADQCe6hMAPHobBqm7UQLpr
oj+f8LPBhKpsQDjpTcDqTJbBafmBQMKxkEBqdp3BJ8ySQK6dLMCMsp7BIxvvQGzQ0kDYNbTBilrl
QFA7yUCPZajB8DO+QMQW00BM8bXBgSK9QGwQhkAB66/Bkz+6QEgSS0AVtabBd9+6QF7RtEDRR6zB
Ix3fQDonU0CKcp7BJiR9QKmNjcDCzJHBqGOQQNUOWEBHBqHBiEhNQDsLkEC0u5TBDY+LQGaasr81
2aHBrIixQIJSVsD+4KHBwE2iP11PlMCmg3zBLsLsQErsBEDaFLrBzRONQI+pwUAcu6PBSja+QKLu
BMC427LB30DoQCPq2763WL3B6xtuP20pFMDm3ofBCJQZQNtjvL84epbBTpqRQGe/iD9PZZ7B5PdX
QNBEu8CDWYbBXw7/QPqj8UAJrbXBOCkAQeVEuUDqd7jBeLP7QEDRskDPi6TBr3LhQLi35UD5UaPB
c+OuQAd18kA2z7TBcZqzQAspxUDZk73BuLHbQP4jgUCwG7TB+XqiQEUQgEBsd7XBwovfQHM1ikBV
JpvBzRfaQGHpJECI7pfBgNb9QDzWRUD3Z6LBFBB8QON1JEAd3p/BHhczQBhCq0DOFpLBEghAQGm4
aEAZFJHBNz1gQAXcfL8lVp/BopC9QNZRhL/tuLDBpVHWQAzS572tc7bBR01FQJggnMD8TonBgY57
QHAYjsCMhJHBw8uiQKrzRD8nkaXBOH3wP8+iMcBSuYrB6ja7QFCB3D9LLavBJvyjQIrtE7/uOKjB
r68CQFcrgcCn6IXBp8/VQJJDoD9Wv7PBYIltQHXFSsDLGJbBpNaBQOuVkEDboZ3BNXySQA3EKsCH
rZ7B16nqQGOO0UC9wLXBXEfiQNx4yUAd0KnBKJW5QPsJ0UDpKLfBa3S5QIfihEARhrDBp+26QDBL
S0DD96bBmrO3QOvqs0D5P63BV2HiQBmkVUD5kZ/BqOssQLVYF8BFnJLBHs2TQFYZWEDaKqDB4IhK
QPx2kEA6KJXBdPmJQFtesb8QIqLBQW+xQB35U8AH1KHBaG6ZPzbljcD5M3zBJPbvQPQrA0A+gbnB
mG6KQAuuwEC/mqTBUxy+QLw6BcCGzrLBJv7pQHqT6L6nAr3BOYlOQA4du8AVqYXBGqiXQLgdosDh
TJTBzKmOQHMNjD/5Cp/BoISKP5QaCMAkEIjB/BL6QLBY8EDolLfBE737QMylt0Bs6LnBOVn5QNjr
s0C366XBfnXeQDiU5kAQ9aTBTv2pQNJX8EBSKbbBTlquQNINwkB5nL7BC0nWQNS8f0ALarXBYNmc
QLM+e0DTUbXBUVTjQCWki0ANZpzBYxjgQHL6J0CV5ZjBQ7v/QKT8SEDAKaTBUPyFQAg/I0DcQ53B
+wYsQGFiq0CtHZPBPcw/QIfqakDHFJHBRn5bQD/7f7+H+J/B

>  <OMEGA_E>  (3) 
pJArP4LCET8=

>  <OMEGA_NBR>  (3) 
     73595

$$$$
