300563
     RDKit          3D

 44 47  0  0  1  0  0  0  0  0999 V2000
    5.9790   -0.9188  -22.0030 C   0  0  0  0  0  0  0  0  0  0  0  0
    6.6897   -0.0301  -22.8184 C   0  0  0  0  0  0  0  0  0  0  0  0
    3.0293   -4.8584  -17.2301 C   0  0  0  0  0  0  0  0  0  0  0  0
    3.8954   -4.3692  -18.2175 C   0  0  0  0  0  0  0  0  0  0  0  0
    4.9914    0.9693  -20.8312 C   0  0  0  0  0  0  0  0  0  0  0  0
    1.8319   -2.7468  -17.3264 C   0  0  0  0  0  0  0  0  0  0  0  0
    5.6837    1.8922  -21.6524 C   0  0  0  0  0  0  0  0  0  0  0  0
    5.1299   -0.4132  -20.9977 C   0  0  0  0  0  0  0  0  0  0  0  0
    1.9831   -4.0364  -16.7820 C   0  0  0  0  0  0  0  0  0  0  0  0
    6.5456    1.3604  -22.6632 C   0  0  0  0  0  0  0  0  0  0  0  0
    3.6961   -3.0641  -18.7261 C   0  0  0  0  0  0  0  0  0  0  0  0
    4.3518    3.8887  -19.1730 C   0  0  0  0  0  0  0  0  0  0  0  0
    4.5907   -2.5185  -19.7587 C   0  0  0  0  0  0  0  0  0  0  0  0
    5.2117    4.2476  -22.6439 C   0  0  0  0  0  0  0  0  0  0  0  0
    6.4905    5.5871  -21.1564 C   0  0  0  0  0  0  0  0  0  0  0  0
    7.1477    3.7888  -19.4084 C   0  0  0  0  0  0  0  0  0  0  0  0
    5.5098    3.4173  -21.3780 C   0  0  2  0  0  0  0  0  0  0  0  0
    6.7889    4.1102  -20.8691 C   0  0  1  0  0  0  0  0  0  0  0  0
    2.6782   -2.2834  -18.2716 N   0  0  0  0  0  0  0  0  0  0  0  0
    4.3321    3.6501  -20.4666 N   0  0  0  0  0  0  0  0  0  0  0  0
    3.1329    3.9935  -18.5241 N   0  0  0  0  0  0  0  0  0  0  0  0
    4.3643   -1.2055  -20.1508 N   0  0  0  0  0  0  0  0  0  0  0  0
    5.5399   -3.1776  -20.1694 O   0  0  0  0  0  0  0  0  0  0  0  0
    5.6725    5.5992  -22.3623 O   0  0  0  0  0  0  0  0  0  0  0  0
    1.1285   -4.4782  -15.8343 F   0  0  0  0  0  0  0  0  0  0  0  0
    7.2425    2.1406  -23.5181 F   0  0  0  0  0  0  0  0  0  0  0  0
    7.8796    3.7891  -21.6117 F   0  0  0  0  0  0  0  0  0  0  0  0
    5.8104    4.1782  -18.2359 S   0  0  0  0  0  0  0  0  0  0  0  0
    6.0804   -1.9848  -22.1433 H   0  0  0  0  0  0  0  0  0  0  0  0
    7.3563   -0.4166  -23.5752 H   0  0  0  0  0  0  0  0  0  0  0  0
    3.1642   -5.8491  -16.8217 H   0  0  0  0  0  0  0  0  0  0  0  0
    4.7054   -4.9813  -18.5858 H   0  0  0  0  0  0  0  0  0  0  0  0
    4.3389    1.3424  -20.0557 H   0  0  0  0  0  0  0  0  0  0  0  0
    1.0249   -2.1170  -16.9822 H   0  0  0  0  0  0  0  0  0  0  0  0
    5.7520    3.8329  -23.5076 H   0  0  0  0  0  0  0  0  0  0  0  0
    4.1318    4.2490  -22.8531 H   0  0  0  0  0  0  0  0  0  0  0  0
    5.9413    6.0374  -20.3164 H   0  0  0  0  0  0  0  0  0  0  0  0
    7.4259    6.1417  -21.3224 H   0  0  0  0  0  0  0  0  0  0  0  0
    7.3765    2.7155  -19.3331 H   0  0  0  0  0  0  0  0  0  0  0  0
    8.0369    4.3736  -19.1305 H   0  0  0  0  0  0  0  0  0  0  0  0
    3.4294    3.6195  -20.8958 H   0  0  0  0  0  0  0  0  0  0  0  0
    3.1024    4.2274  -17.5523 H   0  0  0  0  0  0  0  0  0  0  0  0
    2.2834    3.8352  -19.0272 H   0  0  0  0  0  0  0  0  0  0  0  0
    3.5440   -0.7744  -19.7751 H   0  0  0  0  0  0  0  0  0  0  0  0
  1  2  2  0
  1  8  1  0
  2 10  1  0
  3  4  2  0
  3  9  1  0
  4 11  1  0
  5  7  1  0
  5  8  2  0
  6  9  2  0
  6 19  1  0
  7 10  2  0
 17  7  1  6
  8 22  1  0
  9 25  1  0
 10 26  1  0
 11 13  1  0
 11 19  2  0
 12 20  2  0
 12 21  1  0
 12 28  1  0
 13 22  1  0
 13 23  2  0
 14 17  1  0
 14 24  1  0
 15 18  1  0
 15 24  1  0
 16 18  1  0
 16 28  1  0
 17 18  1  0
 17 20  1  0
 18 27  1  6
  1 29  1  0
  2 30  1  0
  3 31  1  0
  4 32  1  0
  5 33  1  0
  6 34  1  0
 14 35  1  0
 14 36  1  0
 15 37  1  0
 15 38  1  0
 16 39  1  0
 16 40  1  0
 20 41  1  0
 21 42  1  0
 21 43  1  0
 22 44  1  0
M  CHG  1  20   1
M  END
>  <OMEGA_C>  (1) 
n1O/QNg1a78jBrDBJRLWQJjN9rwKjLbBOeBBQAl4m8BV14nBrk15QDrQi8ByvZHBOLmfQP4ieD9g
pqbBrHrqP9LLL8CEnIrBxeC1QP008j8eOK3BhiikQNOU075A+6fBPtX9P1cqgcB8QYbBiXXRQDIh
rj9JTrXBH41sQI8aRMATz5XBIEKLQGTgeEBbYpnBoeaSQPIuIcDgEZ7BHcamQG3sh0CdJrXBTrLP
QGXJskBRQKnBBbrkQLp7ckBRRJvBalCwQOi0WkAiBqvBgT7ZQK2Gg0D186bB1mYrQMcjEsAvLJLB
U6CKQMWaaUCmu6PBIYJIQBSVf0BLMZTBKaiLQHxNmr/vNKHB0EaxQEtdS8D7WqHBWIW1QIYss0D/
5bLB/nOQP7RNj8BSWX3BrsLnQJ3/CEAiJbzB+SX8QOeAckDL5KzBdu65QPWzhUAu45HBA5PCQKMO
/r9sJbHBo2brQJtP1b7smbzBiIJKQIIru8DqkobBaZKWQIRmn8Cur5TBJtiKQEzUqz8WcqDBmS+D
P598B8CI24fBVxC4QLFOdUCeD7zBdjeEQAb4h0An07bBbh++QKAywUACiKLBy6DtQH6IxEAzlKrB
YQzsQLvKLUAcqprBUJcAQev0i0A3C5nB4HpbQFmmZ0CjKqfBFo1GQDBHh0Afa4zBrSISQGlzdUC/
N5jBVNBiQC48Rr9VM57Bkfi/QPaZbb8Bqq/Bm0TWQJgiSL0EWbbBtXzePyCJNMDgC4rBPfAjQFaL
FMDBJ5LBCwqgQEhQeT8nhqbBCuBFQCnMmsAlDorB3QG2QFix8T8sPa3BE9GkQIcE1L5eqafBF8MA
QGf5gsBd5oXB7n/RQPnNqz+yR7XBCW1pQPCmRsDa8pXBzo+LQMfmekDEn5nBPvqRQHbQIsCMDJ7B
+2GoQAboh0AAUrXBnSDSQGDIskBNuKnBBb3kQFzWc0AjT5vBxvGwQPbaWkC6KavBhyzaQOhCg0D6
F6fBeXV4QOb9isC86ZHBDQ6LQP9Ia0BX+KPBPltJQHvKfEDXT5TB/5CMQGMvmr/Zy6DBT+2vQNQV
TsB9XKHBCiOzQLmTs0BRcrLBkWOfPw8Uk8Bl8HvB3v3nQHzuBkDULLzBeS/9QAPWbkCTz6zBi+q5
QJGxiUDVSpLBaI3DQGlr/78PorDB0GrrQHZW477iZ7zB1sloP/FID8DbC4fB1dkXQCUPrL9rhJXB
RxSLQICUrT9XX6DBVrdSQBBTusCT5obBNK28QECEeUDP8rvBYYeGQIqThUC/qLfBCibFQEJvw0Cz
raLBlhzwQIJFwkCQOKzBnWbqQDK9LkByZZrBjPQAQbCTi0BsIJnB+4lcQCYvakBHdqfBlDpHQGLi
hUDgiYzB5lUTQG4tb0DtP5jB+2xnQPv1Pr+OV53B

>  <OMEGA_E>  (1) 
wBy+PNC4TD4=

>  <OMEGA_NBR>  (1) 
     44494

$$$$
300565
     RDKit          3D

 45 48  0  0  1  0  0  0  0  0999 V2000
   -0.2263   -5.7073  -16.1383 C   0  0  0  0  0  0  0  0  0  0  0  0
    3.0399   -4.7033  -16.8432 C   0  0  0  0  0  0  0  0  0  0  0  0
    6.1216   -0.9398  -21.6424 C   0  0  0  0  0  0  0  0  0  0  0  0
    6.8557   -0.0913  -22.4851 C   0  0  0  0  0  0  0  0  0  0  0  0
    4.0709   -3.9784  -17.4650 C   0  0  0  0  0  0  0  0  0  0  0  0
    4.9970    1.0011  -20.6930 C   0  0  0  0  0  0  0  0  0  0  0  0
    1.4426   -3.4288  -18.1577 C   0  0  0  0  0  0  0  0  0  0  0  0
    5.7584    1.8886  -21.5010 C   0  0  0  0  0  0  0  0  0  0  0  0
    1.7076   -4.4256  -17.1991 C   0  0  0  0  0  0  0  0  0  0  0  0
    5.1834   -0.3883  -20.7513 C   0  0  0  0  0  0  0  0  0  0  0  0
    6.6777    1.3060  -22.4319 C   0  0  0  0  0  0  0  0  0  0  0  0
    3.7395   -2.9912  -18.4262 C   0  0  0  0  0  0  0  0  0  0  0  0
    4.4839    4.0712  -19.1376 C   0  0  0  0  0  0  0  0  0  0  0  0
    4.7868   -2.2249  -19.1316 C   0  0  0  0  0  0  0  0  0  0  0  0
    5.1042    4.0670  -22.7111 C   0  0  0  0  0  0  0  0  0  0  0  0
    6.3269    5.6936  -21.4836 C   0  0  0  0  0  0  0  0  0  0  0  0
    7.2490    4.1947  -19.5694 C   0  0  0  0  0  0  0  0  0  0  0  0
    5.5269    3.4326  -21.3680 C   0  0  2  0  0  0  0  0  0  0  0  0
    6.7757    4.2907  -21.0326 C   0  0  1  0  0  0  0  0  0  0  0  0
    2.4421   -2.7369  -18.7459 N   0  0  0  0  0  0  0  0  0  0  0  0
    0.6605   -5.1233  -16.6203 N   0  0  0  0  0  0  0  0  0  0  0  0
    4.3950    3.7073  -20.4020 N   0  0  0  0  0  0  0  0  0  0  0  0
    3.3184    4.1019  -18.3877 N   0  0  0  0  0  0  0  0  0  0  0  0
    4.3656   -1.1885  -19.9623 N   0  0  0  0  0  0  0  0  0  0  0  0
    5.9776   -2.4456  -18.9282 O   0  0  0  0  0  0  0  0  0  0  0  0
    5.4298    5.4837  -22.6157 O   0  0  0  0  0  0  0  0  0  0  0  0
    7.3862    2.0428  -23.3157 F   0  0  0  0  0  0  0  0  0  0  0  0
    7.8569    3.9868  -21.7939 F   0  0  0  0  0  0  0  0  0  0  0  0
    5.9583    4.6356  -18.3668 S   0  0  0  0  0  0  0  0  0  0  0  0
    3.2663   -5.4594  -16.1059 H   0  0  0  0  0  0  0  0  0  0  0  0
    6.2757   -2.0082  -21.6779 H   0  0  0  0  0  0  0  0  0  0  0  0
    7.5648   -0.5134  -23.1818 H   0  0  0  0  0  0  0  0  0  0  0  0
    5.1033   -4.1713  -17.2134 H   0  0  0  0  0  0  0  0  0  0  0  0
    4.2575    1.4059  -20.0180 H   0  0  0  0  0  0  0  0  0  0  0  0
    0.4194   -3.2133  -18.4279 H   0  0  0  0  0  0  0  0  0  0  0  0
    5.6576    3.6043  -23.5415 H   0  0  0  0  0  0  0  0  0  0  0  0
    4.0241    3.9346  -22.8714 H   0  0  0  0  0  0  0  0  0  0  0  0
    5.7982    6.2068  -20.6668 H   0  0  0  0  0  0  0  0  0  0  0  0
    7.1967    6.2928  -21.7909 H   0  0  0  0  0  0  0  0  0  0  0  0
    7.5707    3.1613  -19.3735 H   0  0  0  0  0  0  0  0  0  0  0  0
    8.1014    4.8764  -19.4326 H   0  0  0  0  0  0  0  0  0  0  0  0
    3.4696    3.6003  -20.7657 H   0  0  0  0  0  0  0  0  0  0  0  0
    3.3387    4.4365  -17.4456 H   0  0  0  0  0  0  0  0  0  0  0  0
    2.4573    3.7895  -18.7889 H   0  0  0  0  0  0  0  0  0  0  0  0
    3.3834   -1.0033  -19.9938 H   0  0  0  0  0  0  0  0  0  0  0  0
  1 21  3  0
  2  5  2  0
  2  9  1  0
  3  4  2  0
  3 10  1  0
  4 11  1  0
  5 12  1  0
  6  8  1  0
  6 10  2  0
  7  9  2  0
  7 20  1  0
  8 11  2  0
 18  8  1  6
  9 21  1  0
 10 24  1  0
 11 27  1  0
 12 14  1  0
 12 20  2  0
 13 22  2  0
 13 23  1  0
 13 29  1  0
 14 24  1  0
 14 25  2  0
 15 18  1  0
 15 26  1  0
 16 19  1  0
 16 26  1  0
 17 19  1  0
 17 29  1  0
 18 19  1  0
 18 22  1  0
 19 28  1  6
  2 30  1  0
  3 31  1  0
  4 32  1  0
  5 33  1  0
  6 34  1  0
  7 35  1  0
 15 36  1  0
 15 37  1  0
 16 38  1  0
 16 39  1  0
 17 40  1  0
 17 41  1  0
 22 42  1  0
 23 43  1  0
 23 44  1  0
 24 45  1  0
M  CHG  3   1  -1  21   1  22   1
M  END
>  <OMEGA_C>  (2) 
fsdnvtChtsA5G4HBOI5CQIqBlsDavobBwePDQLqZcL+8I63BC2LbQJMKu71w4bPBnESCQBmefsBa
uIvB1eefQAgjgD8zi6XB4qe4P5BxW8DtQpHB9kS4QC+98T8QAqzBOJTaP8eejcDGl4nBI96lQDrO
xr6rAqbBILDVQCkspz+bdLPBZ1NvQMZvP8DxaJPBbXyPQOtGgkDQGZnBEi2ZQBJlDsCSDZnB5lWj
QB0lgkA7sLXBVHbKQO4xtkBT3qvBn/fnQFs7hkAzjpzBndywQFOvW0Cc8arBotLYQK9NiUDSQqjB
kEscQCspL8Cl95XBkxYpPwnyo8Bc9oTBl6OMQOpEbUBUN6PBp2BUQNdCg0ASGpPByrKLQP8hmL/g
sp/BQ0i/QOuDHMD6bJfBTcGtQIx6r0Dr7LTB0FvsQJe9AkB3hrrBoWv7QGYof0D7Wa7BVaq+QItW
lEBB75LBrQpRQCazrsDz2IDBJ9LIQHyGAMBDbK3BrRLyQOhtA79tdLnBEk6jQHR7hcD/tInBST2I
QPvysz/bJKDB/b/WPvylTcBYbJPBBwu1QPqsZkAIVbzBHsWAQELRe0CN+LbBFIu5QB2exkCgVaXB
P0vmQOxeyUDDU67Bi0PyQFtSSkDW/JrBap8BQT8LnEDwdZvBAg5eQElrZkAYIKbB56xVQCb4jUCW
kIvBJUUdQISGckC7T5bBa4lYQJlrgL9E85/B

>  <OMEGA_E>  (2) 
jArfPg==

>  <OMEGA_NBR>  (2) 
     45560

$$$$
300564
     RDKit          3D

 47 50  0  0  1  0  0  0  0  0999 V2000
    5.9146   -0.8780  -21.8725 C   0  0  0  0  0  0  0  0  0  0  0  0
    6.6012    0.0092  -22.7020 C   0  0  0  0  0  0  0  0  0  0  0  0
    4.8764    1.0121  -20.7306 C   0  0  0  0  0  0  0  0  0  0  0  0
    3.9620   -4.5372  -18.2823 C   0  0  0  0  0  0  0  0  0  0  0  0
    1.6180   -3.2621  -17.7416 C   0  0  0  0  0  0  0  0  0  0  0  0
    5.5618    1.9416  -21.5653 C   0  0  0  0  0  0  0  0  0  0  0  0
    5.0640   -0.3801  -20.8664 C   0  0  0  0  0  0  0  0  0  0  0  0
    6.4382    1.3960  -22.5603 C   0  0  0  0  0  0  0  0  0  0  0  0
    3.6983   -3.2396  -18.7838 C   0  0  0  0  0  0  0  0  0  0  0  0
    1.8756   -4.5631  -17.2336 C   0  0  0  0  0  0  0  0  0  0  0  0
    4.4259    4.2312  -19.1134 C   0  0  0  0  0  0  0  0  0  0  0  0
    4.6728   -2.5261  -19.6259 C   0  0  0  0  0  0  0  0  0  0  0  0
    4.8422    4.1393  -22.6747 C   0  0  0  0  0  0  0  0  0  0  0  0
    7.1021    4.7849  -22.5284 C   0  0  0  0  0  0  0  0  0  0  0  0
    6.5654    5.4963  -20.2003 C   0  0  0  0  0  0  0  0  0  0  0  0
    5.3442    3.4952  -21.3670 C   0  0  2  0  0  0  0  0  0  0  0  0
    6.6929    4.2692  -21.1246 C   0  0  1  0  0  0  0  0  0  0  0  0
   -0.2873   -4.5862  -16.1465 C   0  0  0  0  0  0  0  0  0  0  0  0
    2.5266   -2.6287  -18.5012 N   0  0  0  0  0  0  0  0  0  0  0  0
    3.0497   -5.1748  -17.5176 N   0  0  0  0  0  0  0  0  0  0  0  0
    4.2703    3.7198  -20.3176 N   0  0  0  0  0  0  0  0  0  0  0  0
    3.3462    4.2443  -18.2441 N   0  0  0  0  0  0  0  0  0  0  0  0
    4.3449   -1.2224  -20.0173 N   0  0  0  0  0  0  0  0  0  0  0  0
    5.7525   -3.0464  -19.8912 O   0  0  0  0  0  0  0  0  0  0  0  0
    6.0004    4.5332  -23.4388 O   0  0  0  0  0  0  0  0  0  0  0  0
    0.9660   -5.2529  -16.4445 O   0  0  0  0  0  0  0  0  0  0  0  0
    7.1466    2.1538  -23.4143 F   0  0  0  0  0  0  0  0  0  0  0  0
    7.6535    3.4343  -20.6254 F   0  0  0  0  0  0  0  0  0  0  0  0
    5.9082    4.9888  -18.6075 S   0  0  0  0  0  0  0  0  0  0  0  0
    6.0351   -1.9435  -22.0014 H   0  0  0  0  0  0  0  0  0  0  0  0
    7.2656   -0.3755  -23.4617 H   0  0  0  0  0  0  0  0  0  0  0  0
    4.1975    1.3817  -19.9763 H   0  0  0  0  0  0  0  0  0  0  0  0
    4.8998   -5.0206  -18.5131 H   0  0  0  0  0  0  0  0  0  0  0  0
    0.6805   -2.7764  -17.5144 H   0  0  0  0  0  0  0  0  0  0  0  0
    4.2454    3.4128  -23.2457 H   0  0  0  0  0  0  0  0  0  0  0  0
    4.2258    5.0212  -22.4461 H   0  0  0  0  0  0  0  0  0  0  0  0
    7.3097    5.8642  -22.4835 H   0  0  0  0  0  0  0  0  0  0  0  0
    8.0007    4.2528  -22.8741 H   0  0  0  0  0  0  0  0  0  0  0  0
    7.5565    5.9519  -20.0585 H   0  0  0  0  0  0  0  0  0  0  0  0
    5.8865    6.2305  -20.6587 H   0  0  0  0  0  0  0  0  0  0  0  0
   -0.9102   -5.2394  -15.5178 H   0  0  0  0  0  0  0  0  0  0  0  0
   -0.0845   -3.6470  -15.6110 H   0  0  0  0  0  0  0  0  0  0  0  0
   -0.8176   -4.3662  -17.0847 H   0  0  0  0  0  0  0  0  0  0  0  0
    3.3408    3.4493  -20.5685 H   0  0  0  0  0  0  0  0  0  0  0  0
    3.4302    4.6824  -17.3492 H   0  0  0  0  0  0  0  0  0  0  0  0
    2.4834    3.8155  -18.5120 H   0  0  0  0  0  0  0  0  0  0  0  0
    3.4948   -0.8509  -19.6443 H   0  0  0  0  0  0  0  0  0  0  0  0
  1  2  2  0
  1  7  1  0
  2  8  1  0
  3  6  1  0
  3  7  2  0
  4  9  2  0
  4 20  1  0
  5 10  1  0
  5 19  2  0
  6  8  2  0
 16  6  1  6
  7 23  1  0
  8 27  1  0
  9 12  1  0
  9 19  1  0
 10 20  2  0
 10 26  1  0
 11 21  2  0
 11 22  1  0
 11 29  1  0
 12 23  1  0
 12 24  2  0
 13 16  1  0
 13 25  1  0
 14 17  1  0
 14 25  1  0
 15 17  1  0
 15 29  1  0
 16 17  1  0
 16 21  1  0
 17 28  1  1
 18 26  1  0
  1 30  1  0
  2 31  1  0
  3 32  1  0
  4 33  1  0
  5 34  1  0
 13 35  1  0
 13 36  1  0
 14 37  1  0
 14 38  1  0
 15 39  1  0
 15 40  1  0
 18 41  1  0
 18 42  1  0
 18 43  1  0
 21 44  1  0
 22 45  1  0
 22 46  1  0
 23 47  1  0
M  CHG  1  21   1
M  END
>  <OMEGA_C>  (3) 
u0S9QO3EYL/N+q7BcD3TQLwkFzzJnbXBiQucQP2MgT812KXBIZJ9QKgwkcAvQpLBEhvPP+zFUMDN
7o3BQfqxQGOG+D+5hazB8guiQF6bwr5q7qbB1AXOQNmusj+Ye7TBfLBsQElWT8AzRZbBGxLwP00F
ksBq3onB0aCNQFhmh0BR6JjBMIeVQO6qIcDEAZ3Be/OaQMd0hEDcZbXBmUTjQAQemUA7OrTBkBfS
QP3hr0AdmqHBSQOrQBmxX0Cd76rBdSzWQA2diEAp/6jBoheTvj7CksDwK4HBCbQhQJ08KMB+ApTB
5y5DQDGYpcAcJIzBDKaIQCURbkCIiqLBsyhWQAXRh0D/85HBpgmLQD14nL+GI6DBfRS4QLb4QsAw
IZ/BEQPAQM0PkUCbgrvBZUl3P8gXqMBkjoPBGrHkQJHYCUBwULvB2un0QMbKW0DqAKXBHhC9QOSj
n0AP3JTB3B/BQDPE+L/hArDBvn/oQK87wL6MsbvBAVKGQBHasD9xz5/BkMucQKGooMDJGpTB6Tcu
P/mvMcB4HYzBHtqHQIZrWkBL97nBEzqHQJGtoECkkbPBTOnpQJmnu0Ac3rPBugIAQckWiEAT/rbB
4s7xQEZ2vkDQd6DBfV68QBNgx0AYRaXB3gVpv3ypp8DeSHjB9xitvV9oacB6xnnBSFBRv+W3i8B/
rYjBwc9VQELBXEBGjKTB2odbQFLWlUAWy4rBl/AeQFkxdECRGJTBIKpfQJTRWb+PJ53B

>  <OMEGA_E>  (3) 
7LoWPw==

>  <OMEGA_NBR>  (3) 
     46652

$$$$
