50139668
     RDKit          3D

 77 79  0  0  1  0  0  0  0  0999 V2000
    7.1740   -1.1201  -21.6844 C   0  0  0  0  0  0  0  0  0  0  0  0
    7.6038    0.2181  -21.7796 C   0  0  0  0  0  0  0  0  0  0  0  0
    5.8683   -1.4133  -21.2430 C   0  0  0  0  0  0  0  0  0  0  0  0
    8.4428    0.4617  -14.7538 C   0  0  0  0  0  0  0  0  0  0  0  0
    7.8284    8.6643  -18.6254 C   0  0  0  0  0  0  0  0  0  0  0  0
    8.1537    1.4471  -15.7206 C   0  0  0  0  0  0  0  0  0  0  0  0
    7.7981   -0.7912  -14.8059 C   0  0  0  0  0  0  0  0  0  0  0  0
    6.7287    1.2627  -21.4326 C   0  0  0  0  0  0  0  0  0  0  0  0
    4.9951   -0.3698  -20.8827 C   0  0  0  0  0  0  0  0  0  0  0  0
    6.9640    8.0486  -17.6998 C   0  0  0  0  0  0  0  0  0  0  0  0
    7.3407    9.0697  -19.8838 C   0  0  0  0  0  0  0  0  0  0  0  0
    6.5771   -0.0786  -16.7930 C   0  0  0  0  0  0  0  0  0  0  0  0
    5.1174    8.2575  -19.2871 C   0  0  0  0  0  0  0  0  0  0  0  0
    7.2018    1.1877  -16.7366 C   0  0  0  0  0  0  0  0  0  0  0  0
    6.8793   -1.0721  -15.8418 C   0  0  0  0  0  0  0  0  0  0  0  0
    5.4262    0.9697  -20.9690 C   0  0  0  0  0  0  0  0  0  0  0  0
    5.6084    7.8468  -18.0279 C   0  0  0  0  0  0  0  0  0  0  0  0
    5.9864    8.8613  -20.2170 C   0  0  0  0  0  0  0  0  0  0  0  0
    6.8371    2.2209  -17.7312 C   0  0  0  0  0  0  0  0  0  0  0  0
    6.1641   -2.3654  -15.8887 C   0  0  0  0  0  0  0  0  0  0  0  0
    3.6036   -3.1891  -18.8226 C   0  0  0  0  0  0  0  0  0  0  0  0
    9.0163   -4.0901  -16.6120 C   0  0  0  0  0  0  0  0  0  0  0  0
    4.4952    2.0884  -20.5589 C   0  0  0  0  0  0  0  0  0  0  0  0
    4.6859    7.1969  -17.0219 C   0  0  0  0  0  0  0  0  0  0  0  0
    3.7255   -3.8126  -17.4238 C   0  0  0  0  0  0  0  0  0  0  0  0
    8.2340   -4.2072  -17.9319 C   0  0  0  0  0  0  0  0  0  0  0  0
    5.1659   -4.2937  -17.1502 C   0  0  0  0  0  0  0  0  0  0  0  0
    7.1843   -3.0808  -18.0911 C   0  0  0  0  0  0  0  0  0  0  0  0
    4.8949    4.9776  -18.0380 C   0  0  0  0  0  0  0  0  0  0  0  0
    5.1586    2.9812  -19.4879 C   0  0  1  0  0  0  0  0  0  0  0  0
    4.1663    4.0372  -18.9882 C   0  0  2  0  0  0  0  0  0  0  0  0
    5.6008    2.1264  -18.3697 N   0  0  0  0  0  0  0  0  0  0  0  0
    6.1267   -3.1651  -17.0526 N   0  0  0  0  0  0  0  0  0  0  0  0
    3.9864    6.0595  -17.6353 N   0  0  0  0  0  0  0  0  0  0  0  0
    7.6084    3.1412  -17.9829 O   0  0  0  0  0  0  0  0  0  0  0  0
    5.5258   -2.6970  -14.8955 O   0  0  0  0  0  0  0  0  0  0  0  0
    3.6613    4.7991  -20.0877 O   0  0  0  0  0  0  0  0  0  0  0  0
    5.2384    9.4687  -22.1704 I   0  0  0  0  0  0  0  0  0  0  0  0
    7.8462   -1.9225  -21.9500 H   0  0  0  0  0  0  0  0  0  0  0  0
    8.6045    0.4415  -22.1188 H   0  0  0  0  0  0  0  0  0  0  0  0
    5.5373   -2.4395  -21.1811 H   0  0  0  0  0  0  0  0  0  0  0  0
    9.1593    0.6672  -13.9723 H   0  0  0  0  0  0  0  0  0  0  0  0
    8.8655    8.8258  -18.3708 H   0  0  0  0  0  0  0  0  0  0  0  0
    8.6590    2.4010  -15.6861 H   0  0  0  0  0  0  0  0  0  0  0  0
    8.0068   -1.5369  -14.0531 H   0  0  0  0  0  0  0  0  0  0  0  0
    7.0522    2.2894  -21.5205 H   0  0  0  0  0  0  0  0  0  0  0  0
    3.9958   -0.5951  -20.5405 H   0  0  0  0  0  0  0  0  0  0  0  0
    7.3399    7.7310  -16.7384 H   0  0  0  0  0  0  0  0  0  0  0  0
    8.0047    9.5405  -20.5937 H   0  0  0  0  0  0  0  0  0  0  0  0
    5.8605   -0.2866  -17.5737 H   0  0  0  0  0  0  0  0  0  0  0  0
    4.0772    8.1089  -19.5366 H   0  0  0  0  0  0  0  0  0  0  0  0
    2.5680   -2.8567  -18.9875 H   0  0  0  0  0  0  0  0  0  0  0  0
    4.2821   -2.3268  -18.9000 H   0  0  0  0  0  0  0  0  0  0  0  0
    3.8736   -3.9375  -19.5823 H   0  0  0  0  0  0  0  0  0  0  0  0
    9.7474   -4.9092  -16.5445 H   0  0  0  0  0  0  0  0  0  0  0  0
    9.5433   -3.1250  -16.5827 H   0  0  0  0  0  0  0  0  0  0  0  0
    8.3173   -4.1520  -15.7649 H   0  0  0  0  0  0  0  0  0  0  0  0
    4.2542    2.7000  -21.4409 H   0  0  0  0  0  0  0  0  0  0  0  0
    3.5705    1.6571  -20.1480 H   0  0  0  0  0  0  0  0  0  0  0  0
    5.2762    6.8410  -16.1646 H   0  0  0  0  0  0  0  0  0  0  0  0
    3.9467    7.9349  -16.6770 H   0  0  0  0  0  0  0  0  0  0  0  0
    3.4496   -3.0601  -16.6704 H   0  0  0  0  0  0  0  0  0  0  0  0
    3.0411   -4.6708  -17.3527 H   0  0  0  0  0  0  0  0  0  0  0  0
    8.9437   -4.1513  -18.7705 H   0  0  0  0  0  0  0  0  0  0  0  0
    7.7177   -5.1783  -17.9527 H   0  0  0  0  0  0  0  0  0  0  0  0
    5.1786   -4.8524  -16.2028 H   0  0  0  0  0  0  0  0  0  0  0  0
    5.4798   -4.9558  -17.9706 H   0  0  0  0  0  0  0  0  0  0  0  0
    7.6900   -2.1076  -18.0066 H   0  0  0  0  0  0  0  0  0  0  0  0
    6.7172   -3.1664  -19.0833 H   0  0  0  0  0  0  0  0  0  0  0  0
    5.2204    4.4203  -17.1472 H   0  0  0  0  0  0  0  0  0  0  0  0
    5.7730    5.4044  -18.5447 H   0  0  0  0  0  0  0  0  0  0  0  0
    6.0265    3.4880  -19.9350 H   0  0  0  0  0  0  0  0  0  0  0  0
    3.3459    3.5387  -18.4511 H   0  0  0  0  0  0  0  0  0  0  0  0
    4.9655    1.4258  -18.0448 H   0  0  0  0  0  0  0  0  0  0  0  0
    3.3298    5.6952  -16.9749 H   0  0  0  0  0  0  0  0  0  0  0  0
    3.4988    6.3845  -18.4456 H   0  0  0  0  0  0  0  0  0  0  0  0
    3.2038    4.2232  -20.6890 H   0  0  0  0  0  0  0  0  0  0  0  0
  1  2  2  0
  1  3  1  0
  2  8  1  0
  3  9  2  0
  4  6  2  0
  4  7  1  0
  5 10  2  0
  5 11  1  0
  6 14  1  0
  7 15  2  0
  8 16  2  0
  9 16  1  0
 10 17  1  0
 11 18  2  0
 12 14  2  0
 12 15  1  0
 13 17  2  0
 13 18  1  0
 14 19  1  0
 15 20  1  0
 16 23  1  0
 17 24  1  0
 18 38  1  0
 19 32  1  0
 19 35  2  0
 20 33  1  0
 20 36  2  0
 21 25  1  0
 22 26  1  0
 23 30  1  0
 24 34  1  0
 25 27  1  0
 26 28  1  0
 27 33  1  0
 28 33  1  0
 29 31  1  0
 29 34  1  0
 30 31  1  0
 30 32  1  0
 31 37  1  0
  1 39  1  0
  2 40  1  0
  3 41  1  0
  4 42  1  0
  5 43  1  0
  6 44  1  0
  7 45  1  0
  8 46  1  0
  9 47  1  0
 10 48  1  0
 11 49  1  0
 12 50  1  0
 13 51  1  0
 21 52  1  0
 21 53  1  0
 21 54  1  0
 22 55  1  0
 22 56  1  0
 22 57  1  0
 23 58  1  0
 23 59  1  0
 24 60  1  0
 24 61  1  0
 25 62  1  0
 25 63  1  0
 26 64  1  0
 26 65  1  0
 27 66  1  0
 27 67  1  0
 28 68  1  0
 28 69  1  0
 29 70  1  0
 29 71  1  0
 30 72  1  6
 31 73  1  1
 32 74  1  0
 34 75  1  0
 34 76  1  0
 37 77  1  0
M  CHG  1  34   1
M  END
>  <OMEGA_C>  (1) 
S5HlQKNej7+Tea3BVVLzQLxOXz6ePK7BDsm7QOLmtL+q8anB0hUHQQRm7D6fD2zBk4L6QOagCkHb
AJXBZHUCQV46uT+5h3vB+4n5QLqJSr8J5WzBz1HXQJKhoT8IdqvB89efQABavb7ED6fB9NjeQATH
AEE0mY3BZOfqQKodEUEaEp/Bq3fSQMzgoL0UWIbBHcKjQNkeBEH1S5rBEHXmQP8HmD+K5IXBBSPc
QG07ib8OeH3BMqOtQHZBeD90wKfBsXezQKAY+0AZOZDBXZC/QPrHDUFWvKHBg8naQJ4jDkB32Y3B
UEDFQChiF8AmOH7BBKFmQJQaTMDJlJbBx0IQQcnhgsBb5YTBFtmPQCGoBUCreKTB9/KVQENN5kDE
LIjBaW9uQOQAdMD7Y4vBoL4DQaKhhsB0dI/BMk+lQK5licC0M4nBleXlQIQrRcCEupDBvaKcQB1I
n0DMTZDBlROlQEbLPkBI55vBPlKFQNQwgUDo55fBqDmzQCwXCEAr9ZLBjg3EQOqQSsC3a4jBiiF/
QFPnwUAbFY3BsXfzQMIJSUDs3I/Bp9OwQE6cLMDSU27BMFNqQCSSmUCts6DBo6CnQLd/F0HxXLHB
bxT7QHYU9r+uma/BH6wJQacH4j5K87DBrzGxQDsgHMD6cqnBiIwSQTzNKj9djl/BC9kNQWQ2DUFW
95LBNIsKQUSpGUA/+nrB/xsAQXC5xL+c2WDBb6vhQNuFEkD+KazB9Lt/QNlYGL/iUqTBreDqQLpk
90BR6IXBZRMAQcOlGEHxv6TB7Yi7QBe3kr4Kl4zBrHiCQOS9AUHuSpzBw1okQIzUNsBg5pfBpQaJ
QJrpFMBEM5fBrOl3QH//e8CEqJzBbvUbQc8XncAtW4TBhLEYQbv/R8BkqYTBsBMFQePchMACPXzB
ySKIQG7MLEDyhqvBbYNkQMYa1D8jL6HBOtaoQIfp2kAOUYHBvJZ8QOrq/UB6aoXBosVcQOXXQ8AS
XYXBBaJCQOV2lcBS0orBXBkPQV/XhMDsKZbBD/f2QGS0pcAKn4/BFbelQJ5Gm8BNn4HBn1qvQCGW
nsDTw4/B4BT2QBzjBsCGDZDBkvPWQPulSsChqpjBqg2nQApzjUB+LYnBO7y4QJfwrECGW5TBWdnA
QD47X0Dpep/BVSNWQHx6YkDpm5PBs+WeQEiAtj+yW5DBbhtVQE4/tkCOzIfBF+xfQM5NzECXkJPB
IAtNQKwkh0Agg6XBwoPmQIJVir9F6a3BxLDzQKuthz4CYa7B4SS9QEfVs7+TQKrBNW0HQURR3j7A
pWvBDOa+QCsZDkG6QaLBWBsDQTastj9TGXvBOZP5QKwjT7/Fj2zBDZnXQB6TpD/oI6vBtBGhQGYN
xb4E8abBlUGjQLiPBEGGv5rBwkfqQJJeEUFtq5/BiQvTQL6skL0zKobBE4jeQO9EAUGYHI7BSr7n
QOBslz9dsoXBTRrcQE0pib9mMH3BOWKuQLAcdj+URafBMR6zQGZS/EB6qJDBFAf6QA3zCkFImZXB
l1ncQEH1DUBWoo3Bf3PEQHtrFsAiJn7BvqBmQGDVTsDm6pbBEr0PQXU5gsBoH4XB8xuQQP2FA0DR
vqPB2MGVQL8N6EBihIjBudxtQJTWc8BWkovB+XgDQYYYhcAuxY/BK++kQGUcicDXL4nBptXkQLQA
Q8CI05DB9lqdQFazoEAmXZDBO46lQGOlPkAZapvBQ8SFQEI5gUA5iZfBAQS0QHnNCUBoXZLB04XD
QPjGScCrY4jBZbV/QAwfw0D9Q43B29j1QDiZRkBc/o/Boq+uQBP0KcCZkW7BixJpQBPyl0CjeaDB
EPwdQYgcEEFclpHBuib8QCXB7r9KXLDBlqwJQRM0Az8lObHBsfiyQMzwG8Do/KnBK+YSQbRUID+e
GF/B1dqyQHfmEkG0/anBYmwLQTXgF0DMfXrBIdH/QGq/x79SjGDBaIThQJ5kFEDMm6vBc1iBQL0t
Ir9XJqTBtPCBQJkjAkFDs5zBSXj/QL/KGEHgZaXBvvq7QHq+hr5zaYzBhrnqQKN5+EDBbYbBhXMk
QJbNOcAPXpjBjBaJQDvmF8AoupfBpxh4QD0lgMCHyZzBQ6gbQU0TnMBNuYTBg+MXQZQwRsDamoTB
LHAEQbRwhcA32XzBmsCGQLnFKUDPwKrBiPBmQCWNzD+MKqDBDKioQAZr3UDolYHBcrV7QHiu/0Dq
5oXB0gFcQNMeQsA4wYXBYe1BQIlBlcCY0IrBaO8OQUkQgsCgZ5bBIfj2QLNopMBiOZDB2fekQM+w
msAckIHBHmWvQFqHnsCKqY/BX6j0QMJZBMARJpDBH2zVQE9YSMCvtZjBT9+oQGQTkEBPKYnBiL24
QGdSrkA3uJTB1hzBQEilXkA6J5/BnkBYQNEuY0Dr8ZLBHjifQI/4vj/hXY/B4g9WQOmEt0Cm7YfB
qiVgQCDpzEDYx5PBh3BLQB+ThEAzA6XBZTbnQNsbir8mra3B54b0QLwzhz7OWK7BR9K9QBMRsr/3
96nB1fAJQax6/T49aWzBGb/5QM/3C0EVD5XBPTkFQUdiuz+SKXzB4NT8QAPfN79vvWvBH2/YQFbD
pT83U6vB1NWhQLmNub5EyqbBGXPeQPvvAUG4oI3B3+npQH0xEkHoJZ/BX8jTQMgQMrxRd4XBFUWj
QAWcBEGWVprBEurpQOg1nD+/uoXBxa7cQFOSeL+SEHvBNSWvQK6sez84cafBvjWzQJuJ/EDpQJDB
8a++QPd0DkFrzKHBhqLdQIGgD0CIwo3BtJ2/QN0XCMBOHXnB/fxUQBR3asDKF5fB2WwXQXnBf8A5
x5DB+CiRQFmqBUBKCKTB0f6VQKF250DYMIjBF3OQQJK4QMDnZpHB7ucAQRAuWsA9tI/BxSigQE0N
esBZKYjBsQLwQPo6dMA1xYTBC46dQNM6oED9JpDBEJGmQN6wP0DllJvBrXqGQH9cgUDgl5fBzH+1
QIPECUAjn5LB8SjFQHCJUcBY04LBRhiAQIbFwkA4Fo3B3DL2QM4vSkCiAJDB/+qcQNNI9r+wk3DB
tShrQE0NmUCgbKDBLyCmQAcDGEE/ZLHBzcX8QNV/779FArDB6SMKQcllAD/fLbHBYY6zQHX0GsCo
kKnBqGkWQeTlLj/z1WDBamkNQRnkDkGnBpPBkwkOQf0fGUDgi3zBqOQBQe24ub/Vh1/BEmjiQAXc
FECH+KvBDj+CQGlBGr/f26PByqXqQEwe+kCt64XBBOb+QHrUGUFi2qTB5rG7QEcCYL4vb4vBJROC
QEzoAUGwU5zBlU8/QHXgQMDqp53BkaxoQNNplMAJWprBlFwgQPi+c8A0XZHBHzAeQYbkbcD7lpjB
PKohQT58ZsAPW4rBUZsWQcrzosCSKJDB4p2IQBBuLECRD6vBHxJoQGGC0j9umKDBTgmpQKJc3EBa
VIHBIxh8QN3L/kCRcIXB3KmqQDxpN8CSKJfB3YGGQI5UAsC9K47B758BQTH+E8A9SZDBCSLtQIdp
c8DAFpbBQCSGQCBYgcBYVYLBdMWpQJVgnMBPXIvB023uQOE+ncA8YoTBj9wCQfV3XMC2Bn3BEzeo
QEkOj0Cq8ojBEHq5QCDgrUDUSJTB3/XBQH2RYECwRp/B+kxZQIxvYkCuLpPBbEShQEwfuz9p0I/B
LdNVQKIlt0B514fBVHVhQObazEDAopPBNSBOQJknhkC4JKXB

>  <OMEGA_E>  (1) 
oLB7PTCrZD5grKY+

>  <OMEGA_NBR>  (1) 
     10792

$$$$
50141631
     RDKit          3D

 85 87  0  0  1  0  0  0  0  0999 V2000
    7.0280   -1.3230  -21.5679 C   0  0  0  0  0  0  0  0  0  0  0  0
    7.4711    0.0097  -21.6751 C   0  0  0  0  0  0  0  0  0  0  0  0
    5.7062   -1.5970  -21.1621 C   0  0  0  0  0  0  0  0  0  0  0  0
    7.9330    8.2771  -18.0611 C   0  0  0  0  0  0  0  0  0  0  0  0
    6.5942    1.0677  -21.3735 C   0  0  0  0  0  0  0  0  0  0  0  0
    4.8336   -0.5405  -20.8396 C   0  0  0  0  0  0  0  0  0  0  0  0
    6.8937    7.7214  -17.2950 C   0  0  0  0  0  0  0  0  0  0  0  0
    7.6636    8.8043  -19.3391 C   0  0  0  0  0  0  0  0  0  0  0  0
    7.9709    1.3123  -15.8372 C   0  0  0  0  0  0  0  0  0  0  0  0
    7.7410   -0.9571  -14.9768 C   0  0  0  0  0  0  0  0  0  0  0  0
    6.4132   -0.2420  -16.8930 C   0  0  0  0  0  0  0  0  0  0  0  0
    5.3066    8.2310  -19.0843 C   0  0  0  0  0  0  0  0  0  0  0  0
    8.3424    0.3217  -14.9051 C   0  0  0  0  0  0  0  0  0  0  0  0
    7.0060    1.0397  -16.8265 C   0  0  0  0  0  0  0  0  0  0  0  0
    6.7805   -1.2449  -15.9725 C   0  0  0  0  0  0  0  0  0  0  0  0
    5.2751    0.7955  -20.9420 C   0  0  0  0  0  0  0  0  0  0  0  0
    5.5827    7.6944  -17.8062 C   0  0  0  0  0  0  0  0  0  0  0  0
    6.3543    8.7883  -19.8659 C   0  0  0  0  0  0  0  0  0  0  0  0
    9.3380    0.6341  -13.8525 C   0  0  0  0  0  0  0  0  0  0  0  0
    6.6122    2.0935  -17.7763 C   0  0  0  0  0  0  0  0  0  0  0  0
    6.0852   -2.5537  -15.9781 C   0  0  0  0  0  0  0  0  0  0  0  0
    3.0488   -2.7805  -18.4278 C   0  0  0  0  0  0  0  0  0  0  0  0
    8.4777   -4.7711  -17.1457 C   0  0  0  0  0  0  0  0  0  0  0  0
    4.8517    9.2285  -21.7207 C   0  0  0  0  0  0  0  0  0  0  0  0
    4.3336    1.9335  -20.5917 C   0  0  0  0  0  0  0  0  0  0  0  0
    4.4802    7.0656  -16.9866 C   0  0  0  0  0  0  0  0  0  0  0  0
    3.8239   -4.1070  -18.4639 C   0  0  0  0  0  0  0  0  0  0  0  0
    8.2789   -3.4613  -17.9271 C   0  0  0  0  0  0  0  0  0  0  0  0
    4.7451   -4.2814  -17.2261 C   0  0  0  0  0  0  0  0  0  0  0  0
    6.7987   -3.2058  -18.3072 C   0  0  0  0  0  0  0  0  0  0  0  0
    4.7067    4.8818  -18.0978 C   0  0  0  0  0  0  0  0  0  0  0  0
    4.9685    2.8532  -19.5277 C   0  0  1  0  0  0  0  0  0  0  0  0
    3.9922    3.9437  -19.0710 C   0  0  2  0  0  0  0  0  0  0  0  0
    9.9353   -0.3796  -13.1251 N   0  0  0  0  0  0  0  0  0  0  0  0
    5.3692    2.0177  -18.3873 N   0  0  0  0  0  0  0  0  0  0  0  0
    5.8471   -3.2795  -17.1643 N   0  0  0  0  0  0  0  0  0  0  0  0
    3.8152    6.0039  -17.7593 N   0  0  0  0  0  0  0  0  0  0  0  0
    9.6448    1.7952  -13.6056 O   0  0  0  0  0  0  0  0  0  0  0  0
    7.3743    3.0250  -18.0167 O   0  0  0  0  0  0  0  0  0  0  0  0
    5.6813   -2.9886  -14.9047 O   0  0  0  0  0  0  0  0  0  0  0  0
    3.5571    4.7017  -20.2003 O   0  0  0  0  0  0  0  0  0  0  0  0
    6.1711    9.3312  -21.1337 O   0  0  0  0  0  0  0  0  0  0  0  0
    7.7015   -2.1356  -21.7967 H   0  0  0  0  0  0  0  0  0  0  0  0
    8.4831    0.2191  -21.9886 H   0  0  0  0  0  0  0  0  0  0  0  0
    5.3625   -2.6188  -21.0985 H   0  0  0  0  0  0  0  0  0  0  0  0
    8.9392    8.2997  -17.6694 H   0  0  0  0  0  0  0  0  0  0  0  0
    6.9290    2.0898  -21.4717 H   0  0  0  0  0  0  0  0  0  0  0  0
    3.8261   -0.7528  -20.5139 H   0  0  0  0  0  0  0  0  0  0  0  0
    7.1008    7.3159  -16.3157 H   0  0  0  0  0  0  0  0  0  0  0  0
    8.4684    9.2259  -19.9229 H   0  0  0  0  0  0  0  0  0  0  0  0
    8.4303    2.2887  -15.7922 H   0  0  0  0  0  0  0  0  0  0  0  0
    8.0184   -1.7198  -14.2642 H   0  0  0  0  0  0  0  0  0  0  0  0
    5.6753   -0.4540  -17.6526 H   0  0  0  0  0  0  0  0  0  0  0  0
    4.2970    8.2176  -19.4676 H   0  0  0  0  0  0  0  0  0  0  0  0
    2.4124   -2.7026  -19.3217 H   0  0  0  0  0  0  0  0  0  0  0  0
    2.4196   -2.7480  -17.5261 H   0  0  0  0  0  0  0  0  0  0  0  0
    3.7594   -1.9411  -18.4095 H   0  0  0  0  0  0  0  0  0  0  0  0
    9.5437   -4.8971  -16.9052 H   0  0  0  0  0  0  0  0  0  0  0  0
    7.8937   -4.7345  -16.2142 H   0  0  0  0  0  0  0  0  0  0  0  0
    8.1376   -5.6189  -17.7586 H   0  0  0  0  0  0  0  0  0  0  0  0
    4.8552    9.6970  -22.7160 H   0  0  0  0  0  0  0  0  0  0  0  0
    4.5743    8.1683  -21.8156 H   0  0  0  0  0  0  0  0  0  0  0  0
    4.1229    9.7420  -21.0764 H   0  0  0  0  0  0  0  0  0  0  0  0
    4.1225    2.5204  -21.4978 H   0  0  0  0  0  0  0  0  0  0  0  0
    3.3947    1.5179  -20.1970 H   0  0  0  0  0  0  0  0  0  0  0  0
    4.9095    6.6338  -16.0705 H   0  0  0  0  0  0  0  0  0  0  0  0
    3.7424    7.8360  -16.7179 H   0  0  0  0  0  0  0  0  0  0  0  0
    3.1034   -4.9378  -18.4892 H   0  0  0  0  0  0  0  0  0  0  0  0
    4.4432   -4.1309  -19.3726 H   0  0  0  0  0  0  0  0  0  0  0  0
    8.6313   -2.6248  -17.3058 H   0  0  0  0  0  0  0  0  0  0  0  0
    8.8752   -3.5092  -18.8502 H   0  0  0  0  0  0  0  0  0  0  0  0
    4.1321   -4.1824  -16.3182 H   0  0  0  0  0  0  0  0  0  0  0  0
    5.1894   -5.2871  -17.2608 H   0  0  0  0  0  0  0  0  0  0  0  0
    6.7261   -2.2018  -18.7508 H   0  0  0  0  0  0  0  0  0  0  0  0
    6.5003   -3.9582  -19.0521 H   0  0  0  0  0  0  0  0  0  0  0  0
    4.9683    4.3313  -17.1821 H   0  0  0  0  0  0  0  0  0  0  0  0
    5.6231    5.2693  -18.5670 H   0  0  0  0  0  0  0  0  0  0  0  0
    5.8569    3.3337  -19.9634 H   0  0  0  0  0  0  0  0  0  0  0  0
    3.1364    3.4752  -18.5630 H   0  0  0  0  0  0  0  0  0  0  0  0
   10.6028   -0.1584  -12.4141 H   0  0  0  0  0  0  0  0  0  0  0  0
    9.6995   -1.3336  -13.3102 H   0  0  0  0  0  0  0  0  0  0  0  0
    4.7082    1.3570  -18.0315 H   0  0  0  0  0  0  0  0  0  0  0  0
    3.0511    5.6502  -17.2198 H   0  0  0  0  0  0  0  0  0  0  0  0
    3.4679    6.4004  -18.6091 H   0  0  0  0  0  0  0  0  0  0  0  0
    3.1109    4.1295  -20.8134 H   0  0  0  0  0  0  0  0  0  0  0  0
  1  2  2  0
  1  3  1  0
  2  5  1  0
  3  6  2  0
  4  7  2  0
  4  8  1  0
  5 16  2  0
  6 16  1  0
  7 17  1  0
  8 18  2  0
  9 13  2  0
  9 14  1  0
 10 13  1  0
 10 15  2  0
 11 14  2  0
 11 15  1  0
 12 17  2  0
 12 18  1  0
 13 19  1  0
 14 20  1  0
 15 21  1  0
 16 25  1  0
 17 26  1  0
 18 42  1  0
 19 34  1  0
 19 38  2  0
 20 35  1  0
 20 39  2  0
 21 36  1  0
 21 40  2  0
 22 27  1  0
 23 28  1  0
 24 42  1  0
 25 32  1  0
 26 37  1  0
 27 29  1  0
 28 30  1  0
 29 36  1  0
 30 36  1  0
 31 33  1  0
 31 37  1  0
 32 33  1  0
 32 35  1  0
 33 41  1  0
  1 43  1  0
  2 44  1  0
  3 45  1  0
  4 46  1  0
  5 47  1  0
  6 48  1  0
  7 49  1  0
  8 50  1  0
  9 51  1  0
 10 52  1  0
 11 53  1  0
 12 54  1  0
 22 55  1  0
 22 56  1  0
 22 57  1  0
 23 58  1  0
 23 59  1  0
 23 60  1  0
 24 61  1  0
 24 62  1  0
 24 63  1  0
 25 64  1  0
 25 65  1  0
 26 66  1  0
 26 67  1  0
 27 68  1  0
 27 69  1  0
 28 70  1  0
 28 71  1  0
 29 72  1  0
 29 73  1  0
 30 74  1  0
 30 75  1  0
 31 76  1  0
 31 77  1  0
 32 78  1  6
 33 79  1  1
 34 80  1  0
 34 81  1  0
 35 82  1  0
 37 83  1  0
 37 84  1  0
 41 85  1  0
M  CHG  1  37   1
M  END
>  <OMEGA_C>  (2) 
H+XgQAdYqb/8iqzBMhPvQACcHjyiZq3BX5m2QARpzL/zS6nBJ9v9QNRuBEE3fZDB2APTQOariD/4
/KrBOq2aQDRfCr+Xt6bB0JjcQLsV90AfXIrB3Dv1QHjeDEF3tprBxRH/QJL6pz85ZX3B/LX3QOgC
db/SoG/B5DjNQErXd77VJIfBYM+pQFmyA0GOrJjBeHoFQYu0pD5re27BBTHgQEEVhT+2nIbB1fnY
QC9an7+Oj3/Bl82oQLaiSz8wiafBR6WyQIA49kAic47BIVbLQLWcDEFS7Z7Bd2gVQaxTIj/Ko13B
BpfTQCj8BUD1NY7BQLrCQGNwI8A8pn/B2B5DQHjzMcAjbJPBjKQHQTatmMBcKonBYUGbQPenE0H7
w63BxKyKQB989z/Ou6TBhV2PQFkZ4kB95IfBFLt0QHFsg8D8tZPBP3YEQWOGXcC8ao/B3teXQG4B
icAkz4nBTo/ZQPorTcAgdZLBhJ2WQM83nEBXyJDBAv6eQD6aNkCoOJzBt39/QBdmfEB8kZjB0vYe
QWpXwr5VAFLBGNCrQIciAUBJGZPB0hu7QIvjUcBnUInBAyx0QDEgwEAkE47BKlEaQWnI5T+FsFnB
qfrrQKaZQUA2IpDBYs21QGpFP8DWeW7BvKdjQFZ0lkAfmqHBrHnFQKNMFUHFEanBx3L2QA6uCMC3
X67B97oHQRNnYD6p6K/BcpmrQKWaJ8CsyajBAgcPQY3LBEECW43BX7rdQPq/BUAOxqvBR950QMi0
QL9hHKTBrTnjQM0b6kB8hoLBs34HQWadE0EUYp/BX+IGQcl6EkDwrHzBOksAQUgh3L8lOmTBOpy1
QMl26L6AOI3B84CJQCV7A0G3vZvBjGUaQL33LMDVkprB5doaQD3fL8BkNYzBI5pwQIV0+L+pRpPB
0LIYQdi0nMDkPYfB0Jj8QCKBl8DFtoHBcDMCQb3Ns8CoEY7BjV2bQMYmG0FEurXBfmCSQGWxAkFI
hq7B1e6DQEzfG0F1nKjBduuDQOZNIUB1+6vBz0JZQCtKwj98k6HBWxqdQLpH1EBXkIDBxINvQLzA
+kBXvoXBrZ5GQIQCnsDm6ZPB9S6OQAcwhMAq+5rB4xkKQdn8J8BQcorB6wAOQRCWYMAyzZbBBDqE
QFXWhcCgi4LBKg+mQCwwqcAFForBeTzXQL7qDMCLAZbBYwLQQFRTfcCaapjB+vueQBCaikDydInB
NPCzQD+eqEBGiZTB3mu7QJtaVUAFtZ/B0rpIQKhpXkDzgJTBH6UpQYwrIr5OoEbBGDEbQUezqr9i
9lTBw6mWQGKyrT+MQJDBJEVDQKXOtEBAwonBrvFdQFrQzECI35TBVBlHQMskhEDqgabB

>  <OMEGA_E>  (2) 
gMqoPQ==

>  <OMEGA_NBR>  (2) 
      3480

$$$$
50141632
     RDKit          3D

 86 88  0  0  1  0  0  0  0  0999 V2000
    7.9789    8.2227  -18.1685 C   0  0  0  0  0  0  0  0  0  0  0  0
    6.9332    7.7182  -17.3767 C   0  0  0  0  0  0  0  0  0  0  0  0
    6.5301    1.1350  -21.3774 C   0  0  0  0  0  0  0  0  0  0  0  0
    4.8063   -0.4899  -20.7713 C   0  0  0  0  0  0  0  0  0  0  0  0
    7.7141    8.6991  -19.4669 C   0  0  0  0  0  0  0  0  0  0  0  0
    7.4195    0.0871  -21.6651 C   0  0  0  0  0  0  0  0  0  0  0  0
    5.6936   -1.5381  -21.0713 C   0  0  0  0  0  0  0  0  0  0  0  0
    7.9545    1.3050  -15.7868 C   0  0  0  0  0  0  0  0  0  0  0  0
    7.6780   -0.9539  -14.9062 C   0  0  0  0  0  0  0  0  0  0  0  0
    6.3605   -0.2217  -16.8239 C   0  0  0  0  0  0  0  0  0  0  0  0
    5.3497    8.1675  -19.1846 C   0  0  0  0  0  0  0  0  0  0  0  0
    8.3057    0.3133  -14.8462 C   0  0  0  0  0  0  0  0  0  0  0  0
    6.9813    1.0452  -16.7723 C   0  0  0  0  0  0  0  0  0  0  0  0
    6.7001   -1.2212  -15.8906 C   0  0  0  0  0  0  0  0  0  0  0  0
    5.2265    0.8481  -20.9136 C   0  0  0  0  0  0  0  0  0  0  0  0
    5.6206    7.6889  -17.8825 C   0  0  0  0  0  0  0  0  0  0  0  0
    7.0027   -1.2486  -21.5063 C   0  0  0  0  0  0  0  0  0  0  0  0
    6.4037    8.6777  -19.9906 C   0  0  0  0  0  0  0  0  0  0  0  0
    9.2961    0.6189  -13.7876 C   0  0  0  0  0  0  0  0  0  0  0  0
    6.5996    2.0956  -17.7314 C   0  0  0  0  0  0  0  0  0  0  0  0
    5.9578   -2.5024  -15.8931 C   0  0  0  0  0  0  0  0  0  0  0  0
    2.9109   -2.8426  -18.5130 C   0  0  0  0  0  0  0  0  0  0  0  0
    9.1218   -4.2705  -17.9873 C   0  0  0  0  0  0  0  0  0  0  0  0
    4.8864    9.1385  -21.8267 C   0  0  0  0  0  0  0  0  0  0  0  0
    4.2915    1.9755  -20.5418 C   0  0  0  0  0  0  0  0  0  0  0  0
    4.5114    7.1269  -17.0232 C   0  0  0  0  0  0  0  0  0  0  0  0
    3.7358   -4.1356  -18.4236 C   0  0  0  0  0  0  0  0  0  0  0  0
    7.6886   -4.4766  -17.5062 C   0  0  0  0  0  0  0  0  0  0  0  0
    4.5628   -4.1764  -17.1192 C   0  0  0  0  0  0  0  0  0  0  0  0
    6.7757   -3.3486  -18.0392 C   0  0  0  0  0  0  0  0  0  0  0  0
    4.7009    4.8944  -18.0379 C   0  0  0  0  0  0  0  0  0  0  0  0
    4.9468    2.8747  -19.4734 C   0  0  1  0  0  0  0  0  0  0  0  0
    3.9789    3.9644  -19.0090 C   0  0  2  0  0  0  0  0  0  0  0  0
    9.9249   -0.4002  -13.0952 N   0  0  0  0  0  0  0  0  0  0  0  0
    5.3525    2.0298  -18.3396 N   0  0  0  0  0  0  0  0  0  0  0  0
    5.6542   -3.1654  -17.0956 N   0  0  0  0  0  0  0  0  0  0  0  0
    3.8226    6.0336  -17.7249 N   0  0  0  0  0  0  0  0  0  0  0  0
    9.5634    1.7802  -13.4993 O   0  0  0  0  0  0  0  0  0  0  0  0
    7.3771    3.0099  -17.9871 O   0  0  0  0  0  0  0  0  0  0  0  0
    5.6179   -2.9859  -14.8186 O   0  0  0  0  0  0  0  0  0  0  0  0
    7.8661   -2.2600  -21.7718 O   0  0  0  0  0  0  0  0  0  0  0  0
    3.5452    4.7269  -20.1365 O   0  0  0  0  0  0  0  0  0  0  0  0
    6.2267    9.1648  -21.2815 O   0  0  0  0  0  0  0  0  0  0  0  0
    8.9867    8.2450  -17.7809 H   0  0  0  0  0  0  0  0  0  0  0  0
    7.1370    7.3532  -16.3808 H   0  0  0  0  0  0  0  0  0  0  0  0
    6.8424    2.1602  -21.5105 H   0  0  0  0  0  0  0  0  0  0  0  0
    3.8045   -0.7092  -20.4325 H   0  0  0  0  0  0  0  0  0  0  0  0
    8.5232    9.0855  -20.0690 H   0  0  0  0  0  0  0  0  0  0  0  0
    8.4205    0.3050  -22.0072 H   0  0  0  0  0  0  0  0  0  0  0  0
    5.3726   -2.5642  -20.9685 H   0  0  0  0  0  0  0  0  0  0  0  0
    8.4356    2.2713  -15.7509 H   0  0  0  0  0  0  0  0  0  0  0  0
    7.9480   -1.7210  -14.1955 H   0  0  0  0  0  0  0  0  0  0  0  0
    5.6206   -0.4261  -17.5836 H   0  0  0  0  0  0  0  0  0  0  0  0
    4.3402    8.1456  -19.5678 H   0  0  0  0  0  0  0  0  0  0  0  0
    2.3331   -2.8396  -19.4490 H   0  0  0  0  0  0  0  0  0  0  0  0
    2.2223   -2.7871  -17.6570 H   0  0  0  0  0  0  0  0  0  0  0  0
    3.5867   -1.9748  -18.4967 H   0  0  0  0  0  0  0  0  0  0  0  0
    9.7588   -5.0797  -17.6008 H   0  0  0  0  0  0  0  0  0  0  0  0
    9.1442   -4.2799  -19.0871 H   0  0  0  0  0  0  0  0  0  0  0  0
    9.4957   -3.3030  -17.6212 H   0  0  0  0  0  0  0  0  0  0  0  0
    4.8965    9.5508  -22.8464 H   0  0  0  0  0  0  0  0  0  0  0  0
    4.5223    8.1009  -21.8544 H   0  0  0  0  0  0  0  0  0  0  0  0
    4.2211    9.7437  -21.1932 H   0  0  0  0  0  0  0  0  0  0  0  0
    4.0705    2.5755  -21.4369 H   0  0  0  0  0  0  0  0  0  0  0  0
    3.3567    1.5563  -20.1414 H   0  0  0  0  0  0  0  0  0  0  0  0
    4.9388    6.7430  -16.0852 H   0  0  0  0  0  0  0  0  0  0  0  0
    3.7885    7.9246  -16.7972 H   0  0  0  0  0  0  0  0  0  0  0  0
    3.0544   -4.9990  -18.4445 H   0  0  0  0  0  0  0  0  0  0  0  0
    4.4189   -4.1866  -19.2842 H   0  0  0  0  0  0  0  0  0  0  0  0
    7.3189   -5.4459  -17.8722 H   0  0  0  0  0  0  0  0  0  0  0  0
    7.6704   -4.4689  -16.4064 H   0  0  0  0  0  0  0  0  0  0  0  0
    3.8896   -3.9865  -16.2702 H   0  0  0  0  0  0  0  0  0  0  0  0
    5.0085   -5.1769  -17.0169 H   0  0  0  0  0  0  0  0  0  0  0  0
    7.3497   -2.4136  -18.1186 H   0  0  0  0  0  0  0  0  0  0  0  0
    6.3854   -3.6245  -19.0299 H   0  0  0  0  0  0  0  0  0  0  0  0
    4.9410    4.3486  -17.1136 H   0  0  0  0  0  0  0  0  0  0  0  0
    5.6299    5.2606  -18.4993 H   0  0  0  0  0  0  0  0  0  0  0  0
    5.8345    3.3529  -19.9129 H   0  0  0  0  0  0  0  0  0  0  0  0
    3.1222    3.4984  -18.5001 H   0  0  0  0  0  0  0  0  0  0  0  0
   10.5834   -0.1830  -12.3747 H   0  0  0  0  0  0  0  0  0  0  0  0
    9.7208   -1.3542  -13.3150 H   0  0  0  0  0  0  0  0  0  0  0  0
    4.6911    1.3686  -17.9856 H   0  0  0  0  0  0  0  0  0  0  0  0
    3.0747    5.7076  -17.1468 H   0  0  0  0  0  0  0  0  0  0  0  0
    3.4504    6.3915  -18.5812 H   0  0  0  0  0  0  0  0  0  0  0  0
    7.4361   -3.0929  -21.6172 H   0  0  0  0  0  0  0  0  0  0  0  0
    3.0936    4.1584  -20.7492 H   0  0  0  0  0  0  0  0  0  0  0  0
  1  2  2  0
  1  5  1  0
  2 16  1  0
  3  6  2  0
  3 15  1  0
  4  7  1  0
  4 15  2  0
  5 18  2  0
  6 17  1  0
  7 17  2  0
  8 12  2  0
  8 13  1  0
  9 12  1  0
  9 14  2  0
 10 13  2  0
 10 14  1  0
 11 16  2  0
 11 18  1  0
 12 19  1  0
 13 20  1  0
 14 21  1  0
 15 25  1  0
 16 26  1  0
 17 41  1  0
 18 43  1  0
 19 34  1  0
 19 38  2  0
 20 35  1  0
 20 39  2  0
 21 36  1  0
 21 40  2  0
 22 27  1  0
 23 28  1  0
 24 43  1  0
 25 32  1  0
 26 37  1  0
 27 29  1  0
 28 30  1  0
 29 36  1  0
 30 36  1  0
 31 33  1  0
 31 37  1  0
 32 33  1  0
 32 35  1  0
 33 42  1  0
  1 44  1  0
  2 45  1  0
  3 46  1  0
  4 47  1  0
  5 48  1  0
  6 49  1  0
  7 50  1  0
  8 51  1  0
  9 52  1  0
 10 53  1  0
 11 54  1  0
 22 55  1  0
 22 56  1  0
 22 57  1  0
 23 58  1  0
 23 59  1  0
 23 60  1  0
 24 61  1  0
 24 62  1  0
 24 63  1  0
 25 64  1  0
 25 65  1  0
 26 66  1  0
 26 67  1  0
 27 68  1  0
 27 69  1  0
 28 70  1  0
 28 71  1  0
 29 72  1  0
 29 73  1  0
 30 74  1  0
 30 75  1  0
 31 76  1  0
 31 77  1  0
 32 78  1  6
 33 79  1  1
 34 80  1  0
 34 81  1  0
 35 82  1  0
 37 83  1  0
 37 84  1  0
 41 85  1  0
 42 86  1  0
M  CHG  1  37   1
M  END
>  <OMEGA_C>  (3) 
O1P/QCaQA0EoWZHB49zdQDr79kBnA4vBwfbQQMxGkT/XBKvBIc2ZQCfO+r6tK6bBj9n2QKUvC0Eu
vJvBsmztQOx4sj0XUq3BGzK2QK7gxL/0kajBLYv+QIAKpz+RlnzBQrL1QNwzdL/Mf27BT4nLQHIN
Y75ol4bBqzCrQESuAkEBepnBH+QEQcNmoD41im3B+WbfQH/IhT+7LYbBh2fWQFlRnL/8P37BXD+n
QDgfWT8NT6fBAtyzQNcL9kBOD4/B1hXgQJzQn7/dDKzBB+vMQNzXCkHM7J/B/7wUQQpwHj8cmlzB
QjDTQFgeBkDm2Y3BUqa+QEcnIMAOSn7B3Us6QKDsNcCVGpTBvvIRQeqniMAL5o/BCF2cQDU3EkH8
nK7B2FOJQNvd/D+dVaTBJV2QQLAP5EB8L4jBnhZvQARXhMBxY5PBxwj2QLdAj8C8DIzBsQKSQGul
hcAF9IjBftLYQKZOVsAyUJDB+22WQDifnECkTZDB70ueQLz6N0B5yZvB16V+QA+5fUBxEpjBOswe
Qe/ozL7PhVHBykerQAfoAUCCt5LB1u60QHuWSsDIw4jBRaZ0QCsTwUCJzI3BpQMZQeLc4z9K/VfB
XRHsQPuhQECe5Y/BcsWzQFIZP8DPGG3BNbf7QLGjEMCxLK7BTuRiQB1Dl0ChF6HBH0HHQASjEkGR
QKrBeskPQZfrA0E4P47BGGLkQKpN60DrC4PBSPXaQPlACkCRFazBpX1zQEePNb/RdaPB3V4IQR9e
EUE4jaDBN7oGQZwpnD7BDrDBueyrQHIbJMB6v6fBJvgGQYJcEUDQA3zBFFb+QD5I3L+aIGPBq9uz
QNcr2r45q4zB4eKKQHVUAkHJipzBD1EVQFe8NcCMl5vBszkOQJdgMsB7QY3BgIxlQJnG/L81+ZPB
HiQcQaeMosBwzozBf04SQQH1iMBLspjBYu4XQYljU8BJ+IzBfbCcQPDPGEF1xbbBcLaQQBadAUHc
1a7BThOHQAbmG0HGi6nBI0GCQMbUJEDCfqvBp9NWQMQzxz+IIaHBpQqeQGzG10BproDB+nVyQIOW
/UDCYIbB5ntDQIv3n8BgjpPBWWeNQOb4hcAaRprBazTqQI5ErsBO+o7BMnT1QFEBj8BMQIPBGu94
QJAif8BtKYLBwkWgQC2ppcC0IojB4jDrQO93GsDi8pDBzVTMQBr3Z8AsPZjBUxyeQG0ni0CX6IjB
iCi0QIlWqECK/pPBaLS6QHWWVkCWTZ/BuNJHQFXmX0AcAJTBz1UpQURqO768/kXBX4gbQR9Vrb9r
ClXBQR2WQEcurz994o/BFcdEQEuktkCVLInB1tNcQO6GzEBjppTBqPTtQIHxRcDv76zBS/5FQDoR
hUBN/qXB

>  <OMEGA_E>  (3) 
iLuIPg==

>  <OMEGA_NBR>  (3) 
      5193

$$$$
50169583
     RDKit          3D

 97 99  0  0  1  0  0  0  0  0999 V2000
   16.8145   10.5071  -18.2735 C   0  0  0  0  0  0  0  0  0  0  0  0
   15.5325   10.1506  -17.8070 C   0  0  0  0  0  0  0  0  0  0  0  0
   17.0122   11.7474  -18.9152 C   0  0  0  0  0  0  0  0  0  0  0  0
   15.0424   18.2884  -23.0658 C   0  0  0  0  0  0  0  0  0  0  0  0
   14.7168   19.4408  -22.3234 C   0  0  0  0  0  0  0  0  0  0  0  0
   14.4499   11.0379  -17.9733 C   0  0  0  0  0  0  0  0  0  0  0  0
   15.9294   12.6345  -19.0854 C   0  0  0  0  0  0  0  0  0  0  0  0
   14.4355   17.0543  -22.7613 C   0  0  0  0  0  0  0  0  0  0  0  0
   13.1851   18.1246  -20.9675 C   0  0  0  0  0  0  0  0  0  0  0  0
   13.7809   19.3652  -21.2648 C   0  0  0  0  0  0  0  0  0  0  0  0
   14.6479   12.2889  -18.6000 C   0  0  0  0  0  0  0  0  0  0  0  0
   13.4981   16.9591  -21.7109 C   0  0  0  0  0  0  0  0  0  0  0  0
    6.6886    8.7289  -15.3296 C   0  0  0  0  0  0  0  0  0  0  0  0
   13.4163   20.5684  -20.4651 C   0  0  0  0  0  0  0  0  0  0  0  0
    6.3130    7.3866  -15.8078 C   0  0  0  0  0  0  0  0  0  0  0  0
    9.4733   11.3958  -19.6120 C   0  0  0  0  0  0  0  0  0  0  0  0
    7.0683    9.2138  -19.3662 C   0  0  0  0  0  0  0  0  0  0  0  0
    5.0302    6.4367  -19.0931 C   0  0  0  0  0  0  0  0  0  0  0  0
   11.9856   15.3389  -20.4890 C   0  0  0  0  0  0  0  0  0  0  0  0
   10.4993    7.8047  -17.1163 C   0  0  0  0  0  0  0  0  0  0  0  0
   12.2469    7.2501  -18.8517 C   0  0  0  0  0  0  0  0  0  0  0  0
    4.6576    8.3480  -22.3213 C   0  0  0  0  0  0  0  0  0  0  0  0
    4.6495   10.4285  -20.8786 C   0  0  0  0  0  0  0  0  0  0  0  0
   13.4768   13.2325  -18.7977 C   0  0  0  0  0  0  0  0  0  0  0  0
   12.7915   12.9507  -20.1579 C   0  0  0  0  0  0  0  0  0  0  0  0
   10.8013    9.2907  -19.1964 C   0  0  0  0  0  0  0  0  0  0  0  0
    4.4847    5.8613  -16.6897 C   0  0  0  0  0  0  0  0  0  0  0  0
   10.4329   13.6951  -19.3295 C   0  0  0  0  0  0  0  0  0  0  0  0
    9.4240    9.9807  -19.0314 C   0  0  2  0  0  0  0  0  0  0  0  0
    6.1193    8.3975  -20.2423 C   0  0  2  0  0  0  0  0  0  0  0  0
    3.9352    5.9711  -18.1263 C   0  0  2  0  0  0  0  0  0  0  0  0
   10.8396    7.8419  -18.6261 C   0  0  0  0  0  0  0  0  0  0  0  0
    5.5105    9.2484  -21.3949 C   0  0  0  0  0  0  0  0  0  0  0  0
   11.5462   13.8610  -20.4184 C   0  0  1  0  0  0  0  0  0  0  0  0
    5.8083    9.8153  -15.2900 N   0  0  0  0  0  0  0  0  0  0  0  0
    7.8694    9.0736  -14.8878 N   0  0  0  0  0  0  0  0  0  0  0  0
    6.6310   10.8070  -14.7860 N   0  0  0  0  0  0  0  0  0  0  0  0
    7.8146   10.3807  -14.5530 N   0  0  0  0  0  0  0  0  0  0  0  0
   12.9265   15.6991  -21.4630 N   0  0  0  0  0  0  0  0  0  0  0  0
    4.9984    7.1617  -16.2183 N   0  0  0  0  0  0  0  0  0  0  0  0
   10.2328   12.3147  -18.9201 N   0  0  0  0  0  0  0  0  0  0  0  0
    8.4051    9.1929  -19.7127 N   0  0  0  0  0  0  0  0  0  0  0  0
    5.0813    7.7903  -19.4007 N   0  0  0  0  0  0  0  0  0  0  0  0
    3.4047    4.6572  -18.5517 N   0  0  0  0  0  0  0  0  0  0  0  0
   12.5762   20.4754  -19.5259 O   0  0  0  0  0  0  0  0  0  0  0  0
   13.9476   21.6797  -20.7312 O   0  0  0  0  0  0  0  0  0  0  0  0
    7.1496    6.4891  -15.8231 O   0  0  0  0  0  0  0  0  0  0  0  0
    8.8167   11.7147  -20.6009 O   0  0  0  0  0  0  0  0  0  0  0  0
    6.6564    9.8775  -18.4173 O   0  0  0  0  0  0  0  0  0  0  0  0
    5.8596    5.6415  -19.5279 O   0  0  0  0  0  0  0  0  0  0  0  0
   11.4899   16.1465  -19.7106 O   0  0  0  0  0  0  0  0  0  0  0  0
   11.0110   13.5105  -21.6982 O   0  0  0  0  0  0  0  0  0  0  0  0
   17.6453    9.8302  -18.1395 H   0  0  0  0  0  0  0  0  0  0  0  0
   15.3800    9.1977  -17.3222 H   0  0  0  0  0  0  0  0  0  0  0  0
   17.9934   12.0179  -19.2764 H   0  0  0  0  0  0  0  0  0  0  0  0
   15.7595   18.3515  -23.8709 H   0  0  0  0  0  0  0  0  0  0  0  0
   15.1832   20.3850  -22.5631 H   0  0  0  0  0  0  0  0  0  0  0  0
   13.4672   10.7611  -17.6211 H   0  0  0  0  0  0  0  0  0  0  0  0
   16.0795   13.5790  -19.5873 H   0  0  0  0  0  0  0  0  0  0  0  0
   14.6893   16.1754  -23.3354 H   0  0  0  0  0  0  0  0  0  0  0  0
   12.4750   18.0598  -20.1564 H   0  0  0  0  0  0  0  0  0  0  0  0
    9.4962    8.2265  -16.9555 H   0  0  0  0  0  0  0  0  0  0  0  0
   10.5204    6.7638  -16.7613 H   0  0  0  0  0  0  0  0  0  0  0  0
   11.2398    8.3972  -16.5589 H   0  0  0  0  0  0  0  0  0  0  0  0
   12.4886    7.2766  -19.9245 H   0  0  0  0  0  0  0  0  0  0  0  0
   12.9874    7.8426  -18.2944 H   0  0  0  0  0  0  0  0  0  0  0  0
   12.2680    6.2092  -18.4968 H   0  0  0  0  0  0  0  0  0  0  0  0
    5.2712    7.5112  -22.6864 H   0  0  0  0  0  0  0  0  0  0  0  0
    3.7978    7.9543  -21.7595 H   0  0  0  0  0  0  0  0  0  0  0  0
    4.2975    8.9388  -23.1764 H   0  0  0  0  0  0  0  0  0  0  0  0
    5.2578   11.0665  -20.2207 H   0  0  0  0  0  0  0  0  0  0  0  0
    4.2893   11.0207  -21.7327 H   0  0  0  0  0  0  0  0  0  0  0  0
    3.7896   10.0361  -20.3158 H   0  0  0  0  0  0  0  0  0  0  0  0
   12.7493   13.0849  -17.9860 H   0  0  0  0  0  0  0  0  0  0  0  0
   13.8392   14.2710  -18.7809 H   0  0  0  0  0  0  0  0  0  0  0  0
   13.5238   13.1212  -20.9607 H   0  0  0  0  0  0  0  0  0  0  0  0
   12.4666   11.8999  -20.1750 H   0  0  0  0  0  0  0  0  0  0  0  0
   11.0447    9.2500  -20.2683 H   0  0  0  0  0  0  0  0  0  0  0  0
   11.5578    9.8923  -18.6711 H   0  0  0  0  0  0  0  0  0  0  0  0
    3.6773    5.5296  -16.0203 H   0  0  0  0  0  0  0  0  0  0  0  0
    5.3013    5.1245  -16.6723 H   0  0  0  0  0  0  0  0  0  0  0  0
   10.7182   14.2840  -18.4454 H   0  0  0  0  0  0  0  0  0  0  0  0
    9.4860   14.0797  -19.7364 H   0  0  0  0  0  0  0  0  0  0  0  0
    9.1902   10.0450  -17.9585 H   0  0  0  0  0  0  0  0  0  0  0  0
    6.7055    7.5905  -20.7062 H   0  0  0  0  0  0  0  0  0  0  0  0
    3.1220    6.7118  -18.1336 H   0  0  0  0  0  0  0  0  0  0  0  0
   10.1052    7.2298  -19.1700 H   0  0  0  0  0  0  0  0  0  0  0  0
    6.3394    9.6627  -21.9876 H   0  0  0  0  0  0  0  0  0  0  0  0
   13.2327   14.9598  -22.0627 H   0  0  0  0  0  0  0  0  0  0  0  0
    4.3623    7.9329  -16.1913 H   0  0  0  0  0  0  0  0  0  0  0  0
   10.6773   12.0105  -18.0775 H   0  0  0  0  0  0  0  0  0  0  0  0
    8.6887    8.6062  -20.4712 H   0  0  0  0  0  0  0  0  0  0  0  0
    4.3699    8.3855  -19.0271 H   0  0  0  0  0  0  0  0  0  0  0  0
    2.6918    4.3630  -17.9151 H   0  0  0  0  0  0  0  0  0  0  0  0
    3.0188    4.7355  -19.4710 H   0  0  0  0  0  0  0  0  0  0  0  0
    4.1448    3.9848  -18.5571 H   0  0  0  0  0  0  0  0  0  0  0  0
   10.7305   12.6029  -21.6869 H   0  0  0  0  0  0  0  0  0  0  0  0
  1  2  2  0
  1  3  1  0
  2  6  1  0
  3  7  2  0
  4  5  2  0
  4  8  1  0
  5 10  1  0
  6 11  2  0
  7 11  1  0
  8 12  2  0
  9 10  2  0
  9 12  1  0
 10 14  1  0
 11 24  1  0
 12 39  1  0
 13 15  1  0
 13 35  1  0
 13 36  2  0
 14 45  1  0
 14 46  2  0
 15 40  1  0
 15 47  2  0
 16 29  1  0
 16 41  1  0
 16 48  2  0
 17 30  1  0
 17 42  1  0
 17 49  2  0
 18 31  1  0
 18 43  1  0
 18 50  2  0
 19 34  1  0
 19 39  1  0
 19 51  2  0
 20 32  1  0
 21 32  1  0
 22 33  1  0
 23 33  1  0
 24 25  1  0
 25 34  1  0
 26 29  1  0
 26 32  1  0
 27 31  1  0
 27 40  1  0
 28 34  1  0
 28 41  1  0
 29 42  1  0
 30 33  1  0
 30 43  1  0
 31 44  1  0
 34 52  1  6
 35 37  1  0
 36 38  1  0
 37 38  2  0
  1 53  1  0
  2 54  1  0
  3 55  1  0
  4 56  1  0
  5 57  1  0
  6 58  1  0
  7 59  1  0
  8 60  1  0
  9 61  1  0
 20 62  1  0
 20 63  1  0
 20 64  1  0
 21 65  1  0
 21 66  1  0
 21 67  1  0
 22 68  1  0
 22 69  1  0
 22 70  1  0
 23 71  1  0
 23 72  1  0
 23 73  1  0
 24 74  1  0
 24 75  1  0
 25 76  1  0
 25 77  1  0
 26 78  1  0
 26 79  1  0
 27 80  1  0
 27 81  1  0
 28 82  1  0
 28 83  1  0
 29 84  1  1
 30 85  1  6
 31 86  1  1
 32 87  1  0
 33 88  1  0
 39 89  1  0
 40 90  1  0
 41 91  1  0
 42 92  1  0
 43 93  1  0
 44 94  1  0
 44 95  1  0
 44 96  1  0
 52 97  1  0
M  CHG  3  35  -1  44   1  45  -1
M  END
>  <OMEGA_C>  (4) 
G4SGQUgdKEE4MJLB94R4QQVpIkG8dI7BBBmIQVn1O0FRUpfBf61wQZlOkkHFhrjBLHhrQdeGm0FP
lrLB8TJnQTybMEFOyY/Bo95+QR0nSkH6rpjBAPhmQTFviEE2F7bBLfZSQT//kEF4vafBZn5cQfXr
mkFAHqrBsV1qQYmfREGzzJTBI/hXQVSsh0Hsr63B3wjWQK2pC0H1RXXBT6lWQf2LpEF5uKPBtAPK
QEdf7EDW7HzBfJIXQT5VNkFr5ZzBvC/iQJtrE0Hw7ZrBVvegQDn5zUCmvpjBNsU/QTFsdUFg6aPB
HP0nQTDA+UAb7ojBSfNDQQgB6EBf0JbBdAuVQI2RBUEakrLBnMiUQArbJkFGB6fBJaFXQW24U0G0
YZbB96lMQQE2T0FJQ6HBG9IsQcqmFEEgkpnBh4KPQHePu0B0hIXBJO0mQfIeW0HooprBxcgWQc6w
H0FKQJjBWNHDQBZcBkEx8KHB4tp7QBcTv0C3ApHB+24tQQvx+kAsApXBzVWwQJX5E0HSKKvBTb04
QYjGXUH2WKPB2t25QFgLHUHRo3TBENL7QKYtEUE7NG7B5zDUQGbpLEF7k2zBIhH6QD4XJkEw2WjB
FtNOQZ0ve0EutKvBi/KfQP8s5UArv4HBtLkjQQEJRUFLXJfBfXsGQSoWE0Gis53BUZqiQOpJ+UCM
NJvB3+VZQMgHlUD7aZTBEjhJQafNo0EZNZzBUClfQQhwrUF52aXB3snkQBSnz0A4K33BBxENQY9v
O0GgzqTBQAHVQBoKHkGjVpPBBIK7QHCHtEA7OZzBfdY3QQ8sgUFkr53B9CwwQRMrWEH+la3BiymN
QZlIHUGhHZHBahR2QbApE0Hmk4rBkvKPQSxJQEH7NZrBuSZ8QdbPkkGf977BaO5yQYAUo0ErgbTB
yXlXQVEtLEH594zBwaKAQZdDWUHQspzBdQdrQTNngUHcrrrBqplHQWB6kEE6QKHBbvAXQeefA0HD
pIfBjFMoQb5w2EAxF4bBENYzQQ1bBkGreITBgdFHQdDZ6EBsZZ/BUsxPQeX2+kD6WpLBzUlEQYix
xkB/+ZPB6K2oQB1c8EDVfbXBSA9zQFCJ/kCKE67BwYSJQIIFD0FbabnBBUCoQIYQMUHpw6HB30GJ
QLNUMEGN3K3Bg4lyQNmTIEG8hqLBJf1LQdNbUUFK44/Bhm1dQe9VZEFeP5bBjGFYQW7wUUGbr6fB
TXdHQfRlPkFcZqHBPLcwQSMAFEF8JaLBn+w4QdRGHkF4XpXBj1hrQF7ysECIKYDBBKSpQIv7o0D2
YIXBzX0rQWqLZEEzkJPBwsYXQUdGYUEc5J3B9woTQVa4IEHtqo/BQJPWQHnl8kBCpqXB485HQLXG
1kCSEZHBvK4hQVJa50AtXJnBotzKQFiaGkGN5q/BQLlTQX9bb0F5gLDBVpiLQLfa/UDSh4HBQdYq
QeAqQEHBnpDB8gQLQfmyCUEXxaPB9tWLQOQqBkF8N5jBOkcsQOidi0ANUo/BjjNBQOOIl0CMxJvB
iKKEQEIHf0DtdJTBFbArQaGlSUHafq3BDn6GQUzhJ0FbPZLBR3d4QWQ3IkESgI7B0BaIQYO3O0ER
YJfBLMRcQYz+mkHDMKrBvZdrQRuZm0FRmLLBlitnQXJyMEEy04/BneB+QerxSUE6u5jBMvpSQRc5
kUH1qafB5OFmQTODiEGAArbBE9ZwQU1dkkEbmLjB4V1qQX11REEi15TBI+dXQb/Vh0E9la3BAPvV
QHakC0EvQ3XBLkuAQUgNk0EQfMHBu+bJQHdW7ECP5nzB0Z0XQT9RNkGH65zBrSTiQBFkE0GH7ZrB
i8igQIHyzUCwuZjB5tQ/QZyidUFz1qPBS+snQWWd+UCT8IjBJtpDQUm450AV05bBoeGUQPKEBUGE
i7LBKMKUQOjUJkHjBafB/alXQZafU0EHZZbBDLJMQQJLT0HFSqHBlsssQRWRFEFtlZnBSlKPQDSX
u0CPfoXBavYmQdcoW0Hbo5rBNcgWQS+qH0EbRZjBwLvDQLlRBkG57KHB63V7QEscv0Cd/JDBDVst
Qb/E+kDTBJXBND6wQFPsE0FSJqvBb8g4QXPsXUHsVKPBltu5QBgLHUHpo3TBf8j7QFojEUFCM27B
ojnUQAjmLEFilmzB8hX6QEsOJkEm3GjBKMpOQeV6e0GaoKvBy9GfQJsw5UDguoHBi8sjQWAGRUHO
Y5fBOnQGQXATE0HAt53BlIKiQLND+UCCLpvBDmBZQNcUlUA9YpTBg6OCQSfKikGLycbBtJeEQV3r
m0FvrcPBY6PkQF6Vz0CKJH3BJhoNQV5tO0GU06TBrf/UQEEBHkHKVJPBe0S7QPZztEBzNZzBsA04
QQlKgUHlkp3B9DcwQcxeWEG6lK3BDSGNQUMGHUGwK5HBdAB2QVj5EkH3norB2/CPQWYDQEFfRZrB
r+BYQTQVokE4pqXBogxzQREoo0FXf7TBXXFXQUYMLEFRAI3B7KaAQfoMWUFvv5zBcJtHQRrUkEF1
K6HBxM5qQT9tgUEfjLrB6uIXQT+YA0GjpofBWTgoQUVO2EApGYbBy8ozQR9DBkEGfITB97dHQVKJ
6EA6aJ/BQLlPQWSh+kBWXpLBziZEQWppxkB4+5PBPHeoQF448ECYdrXBcbxyQF5//kAiCq7BPVqJ
QOj2DkFjY7nB7UWoQE0KMUFYxaHBwDqJQFlMMEHd263Bd31yQCCVIEGcgqLBCAFMQas2UUH56Y/B
2YFdQYk4ZEHhNJbB3WtYQW0YUkEGtKfBtXhHQah9PkGSfaHBw7EwQQjnE0GaKKLBMes4QVQqHkGO
YZXB+vNqQIkFsUDYIoDBk2upQDj6o0DpWoXBAXwrQdSNZEHjjJPBTM4XQRlLYUFv5Z3BKQoTQc21
IEHlr4/Bg3bWQAvJ8kCyoaXB/npHQEPZ1kCpC5HBY5QhQfo650AhXpnBGMTKQMeFGkHt5q/BNapT
QaSzb0FTdrDB+3+LQEbl/UDGg4HBjfUqQZIhQEEKq5DBo/gKQWG2CUGDzKPB6M2LQL4tBkHALpjB
mb0rQOG1i0CWSY/BPatAQJOWl0CpvJvB0leEQDIQf0DqbJTBfL0rQX7YSUETg63B

>  <OMEGA_E>  (4) 
hq2NP7zvjT8=

>  <OMEGA_NBR>  (4) 
      7762

$$$$
50125053
     RDKit          3D

 94 96  0  0  1  0  0  0  0  0999 V2000
    6.1364   14.4219  -17.9394 C   0  0  0  0  0  0  0  0  0  0  0  0
    6.4233   15.2087  -19.0743 C   0  0  0  0  0  0  0  0  0  0  0  0
    7.1809   13.7758  -17.2475 C   0  0  0  0  0  0  0  0  0  0  0  0
   15.5370   18.9497  -21.0155 C   0  0  0  0  0  0  0  0  0  0  0  0
   15.0116   19.6723  -22.1040 C   0  0  0  0  0  0  0  0  0  0  0  0
    7.7553   15.3536  -19.5159 C   0  0  0  0  0  0  0  0  0  0  0  0
    8.5132   13.9262  -17.6828 C   0  0  0  0  0  0  0  0  0  0  0  0
   14.9771   17.7094  -20.6544 C   0  0  0  0  0  0  0  0  0  0  0  0
   13.3610   17.9166  -22.4654 C   0  0  0  0  0  0  0  0  0  0  0  0
   13.9165   19.1580  -22.8396 C   0  0  0  0  0  0  0  0  0  0  0  0
    8.8084   14.7263  -18.8122 C   0  0  0  0  0  0  0  0  0  0  0  0
   13.8856   17.1793  -21.3762 C   0  0  0  0  0  0  0  0  0  0  0  0
    6.6480    8.7081  -14.8750 C   0  0  0  0  0  0  0  0  0  0  0  0
   13.3460   19.9058  -23.9939 C   0  0  0  0  0  0  0  0  0  0  0  0
    6.1909    7.4135  -15.4082 C   0  0  0  0  0  0  0  0  0  0  0  0
    7.1722    9.0428  -19.6077 C   0  0  0  0  0  0  0  0  0  0  0  0
    9.5168   11.4995  -20.3546 C   0  0  0  0  0  0  0  0  0  0  0  0
    5.1488    6.6072  -18.8268 C   0  0  0  0  0  0  0  0  0  0  0  0
   12.3583   15.1640  -21.5250 C   0  0  0  0  0  0  0  0  0  0  0  0
   10.4084    8.1188  -17.5083 C   0  0  0  0  0  0  0  0  0  0  0  0
   12.0904    7.3067  -19.2095 C   0  0  0  0  0  0  0  0  0  0  0  0
    4.7056    8.2530  -22.5355 C   0  0  0  0  0  0  0  0  0  0  0  0
    4.9216   10.3786  -21.1702 C   0  0  0  0  0  0  0  0  0  0  0  0
   10.2467   14.8575  -19.3051 C   0  0  0  0  0  0  0  0  0  0  0  0
   10.7640    9.3939  -19.7187 C   0  0  0  0  0  0  0  0  0  0  0  0
    4.3153    6.0851  -16.4800 C   0  0  0  0  0  0  0  0  0  0  0  0
    6.1703    8.2374  -20.4421 C   0  0  2  0  0  0  0  0  0  0  0  0
    9.4226   10.1602  -19.6192 C   0  0  2  0  0  0  0  0  0  0  0  0
    3.9351    6.2518  -17.9636 C   0  0  2  0  0  0  0  0  0  0  0  0
   12.0432   13.8342  -20.8503 C   0  0  1  0  0  0  0  0  0  0  0  0
   10.7254    8.0009  -19.0207 C   0  0  0  0  0  0  0  0  0  0  0  0
    5.6470    9.0916  -21.6397 C   0  0  0  0  0  0  0  0  0  0  0  0
   10.5688   13.7847  -20.3791 C   0  0  1  0  0  0  0  0  0  0  0  0
    5.8817    9.8779  -14.9094 N   0  0  0  0  0  0  0  0  0  0  0  0
    7.8038    8.9273  -14.3056 N   0  0  0  0  0  0  0  0  0  0  0  0
    6.7364   10.7746  -14.2932 N   0  0  0  0  0  0  0  0  0  0  0  0
    7.8407   10.2291  -13.9467 N   0  0  0  0  0  0  0  0  0  0  0  0
   13.3771   15.9390  -20.9591 N   0  0  0  0  0  0  0  0  0  0  0  0
    4.9096    7.3260  -15.9522 N   0  0  0  0  0  0  0  0  0  0  0  0
    8.3708    9.3472  -20.2193 N   0  0  0  0  0  0  0  0  0  0  0  0
    5.0672    7.7540  -19.6040 N   0  0  0  0  0  0  0  0  0  0  0  0
   10.3418   12.4601  -19.8005 N   0  0  0  0  0  0  0  0  0  0  0  0
    3.3318    5.0015  -18.4686 N   0  0  0  0  0  0  0  0  0  0  0  0
   12.3759   19.4231  -24.6429 O   0  0  0  0  0  0  0  0  0  0  0  0
   13.8360   21.0202  -24.3207 O   0  0  0  0  0  0  0  0  0  0  0  0
    6.9280    6.4342  -15.3471 O   0  0  0  0  0  0  0  0  0  0  0  0
    6.9298    9.3776  -18.4500 O   0  0  0  0  0  0  0  0  0  0  0  0
    8.8566   11.7242  -21.3670 O   0  0  0  0  0  0  0  0  0  0  0  0
    6.1578    5.9061  -18.8134 O   0  0  0  0  0  0  0  0  0  0  0  0
   11.7111   15.4886  -22.5152 O   0  0  0  0  0  0  0  0  0  0  0  0
   12.3070   12.7821  -21.7835 O   0  0  0  0  0  0  0  0  0  0  0  0
    5.1165   14.3145  -17.6006 H   0  0  0  0  0  0  0  0  0  0  0  0
    5.6223   15.7009  -19.6059 H   0  0  0  0  0  0  0  0  0  0  0  0
    6.9604   13.1657  -16.3840 H   0  0  0  0  0  0  0  0  0  0  0  0
   16.3711   19.3477  -20.4566 H   0  0  0  0  0  0  0  0  0  0  0  0
   15.4456   20.6223  -22.3788 H   0  0  0  0  0  0  0  0  0  0  0  0
    7.9708   15.9451  -20.3934 H   0  0  0  0  0  0  0  0  0  0  0  0
    9.3118   13.4290  -17.1524 H   0  0  0  0  0  0  0  0  0  0  0  0
   15.3854   17.1595  -19.8193 H   0  0  0  0  0  0  0  0  0  0  0  0
   12.5216   17.5220  -23.0186 H   0  0  0  0  0  0  0  0  0  0  0  0
    9.4352    8.6138  -17.3746 H   0  0  0  0  0  0  0  0  0  0  0  0
   10.3731    7.1142  -17.0617 H   0  0  0  0  0  0  0  0  0  0  0  0
   11.1922    8.7122  -17.0147 H   0  0  0  0  0  0  0  0  0  0  0  0
   12.3145    7.2234  -20.2832 H   0  0  0  0  0  0  0  0  0  0  0  0
   12.8746    7.8999  -18.7163 H   0  0  0  0  0  0  0  0  0  0  0  0
   12.0555    6.3019  -18.7633 H   0  0  0  0  0  0  0  0  0  0  0  0
    5.2270    7.3420  -22.8645 H   0  0  0  0  0  0  0  0  0  0  0  0
    3.8074    7.9752  -21.9644 H   0  0  0  0  0  0  0  0  0  0  0  0
    4.4124    8.8453  -23.4148 H   0  0  0  0  0  0  0  0  0  0  0  0
    5.5970   10.9695  -20.5340 H   0  0  0  0  0  0  0  0  0  0  0  0
    4.6288   10.9749  -22.0470 H   0  0  0  0  0  0  0  0  0  0  0  0
    4.0238   10.1048  -20.5966 H   0  0  0  0  0  0  0  0  0  0  0  0
   10.3869   15.8571  -19.7424 H   0  0  0  0  0  0  0  0  0  0  0  0
   10.9314   14.7305  -18.4536 H   0  0  0  0  0  0  0  0  0  0  0  0
   11.0049    9.2463  -20.7818 H   0  0  0  0  0  0  0  0  0  0  0  0
   11.5499   10.0009  -19.2455 H   0  0  0  0  0  0  0  0  0  0  0  0
    3.4121    5.8424  -15.9008 H   0  0  0  0  0  0  0  0  0  0  0  0
    5.0436    5.2664  -16.3836 H   0  0  0  0  0  0  0  0  0  0  0  0
    6.7008    7.3696  -20.8611 H   0  0  0  0  0  0  0  0  0  0  0  0
    9.1971   10.3469  -18.5588 H   0  0  0  0  0  0  0  0  0  0  0  0
    3.1998    7.0661  -18.0436 H   0  0  0  0  0  0  0  0  0  0  0  0
   12.6921   13.7246  -19.9689 H   0  0  0  0  0  0  0  0  0  0  0  0
    9.9463    7.3891  -19.4989 H   0  0  0  0  0  0  0  0  0  0  0  0
    6.5151    9.3920  -22.2448 H   0  0  0  0  0  0  0  0  0  0  0  0
    9.9099   13.9378  -21.2465 H   0  0  0  0  0  0  0  0  0  0  0  0
   13.8037   15.5543  -20.1406 H   0  0  0  0  0  0  0  0  0  0  0  0
    4.3584    8.1597  -15.9863 H   0  0  0  0  0  0  0  0  0  0  0  0
    8.5294    8.9853  -21.1379 H   0  0  0  0  0  0  0  0  0  0  0  0
    4.2147    8.2766  -19.5922 H   0  0  0  0  0  0  0  0  0  0  0  0
   10.8144   12.2351  -18.9485 H   0  0  0  0  0  0  0  0  0  0  0  0
    2.5381    4.7639  -17.9087 H   0  0  0  0  0  0  0  0  0  0  0  0
    3.0436    5.1302  -19.4175 H   0  0  0  0  0  0  0  0  0  0  0  0
    4.0054    4.2639  -18.4219 H   0  0  0  0  0  0  0  0  0  0  0  0
   12.2530   13.1224  -22.6687 H   0  0  0  0  0  0  0  0  0  0  0  0
  1  2  2  0
  1  3  1  0
  2  6  1  0
  3  7  2  0
  4  5  2  0
  4  8  1  0
  5 10  1  0
  6 11  2  0
  7 11  1  0
  8 12  2  0
  9 10  2  0
  9 12  1  0
 10 14  1  0
 11 24  1  0
 12 38  1  0
 13 15  1  0
 13 34  1  0
 13 35  2  0
 14 44  1  0
 14 45  2  0
 15 39  1  0
 15 46  2  0
 16 27  1  0
 16 40  1  0
 16 47  2  0
 17 28  1  0
 17 42  1  0
 17 48  2  0
 18 29  1  0
 18 41  1  0
 18 49  2  0
 19 30  1  0
 19 38  1  0
 19 50  2  0
 20 31  1  0
 21 31  1  0
 22 32  1  0
 23 32  1  0
 24 33  1  0
 25 28  1  0
 25 31  1  0
 26 29  1  0
 26 39  1  0
 27 32  1  0
 27 41  1  0
 28 40  1  0
 29 43  1  0
 30 33  1  0
 30 51  1  0
 33 42  1  0
 34 36  1  0
 35 37  1  0
 36 37  2  0
  1 52  1  0
  2 53  1  0
  3 54  1  0
  4 55  1  0
  5 56  1  0
  6 57  1  0
  7 58  1  0
  8 59  1  0
  9 60  1  0
 20 61  1  0
 20 62  1  0
 20 63  1  0
 21 64  1  0
 21 65  1  0
 21 66  1  0
 22 67  1  0
 22 68  1  0
 22 69  1  0
 23 70  1  0
 23 71  1  0
 23 72  1  0
 24 73  1  0
 24 74  1  0
 25 75  1  0
 25 76  1  0
 26 77  1  0
 26 78  1  0
 27 79  1  6
 28 80  1  1
 29 81  1  1
 30 82  1  1
 31 83  1  0
 32 84  1  0
 33 85  1  6
 38 86  1  0
 39 87  1  0
 40 88  1  0
 41 89  1  0
 42 90  1  0
 43 91  1  0
 43 92  1  0
 43 93  1  0
 51 94  1  0
M  CHG  3  34  -1  43   1  44  -1
M  END
>  <OMEGA_C>  (5) 
KV3EQDnAZkH5g4/B1ovNQNpWc0EUmJjBrcnlQJlpXEHP+onBr5d4QemYl0GsH6jBjS9wQc5gnUEU
1bDBlCv4QHGodUF+IJzBRDYIQdDRXkFmdo3BI6JvQcisjUE1PKXBn8ZVQUZVj0ELubPBL6peQZND
mUF5t7bBS+8MQciea0Faf5bBnyteQUlviUGNAqvBeLzUQHJUC0EpAG7BTIlVQQM/n0Fx87/BGhzG
QHY77UAdiHbBUoLlQHGvEEF/3JzByUQYQQv+N0FJ1qLBOsOkQJJu00BLnZbBp7tFQdafckFDM6zB
2IgmQc/mAUHxEIzBO3JBQcLQ6UARrZnBbZSWQBkMBEGlSLTBx32dQLsOJkGWXKnBgvIjQV24bUHt
cJrBazksQXhNFkHev53BuRaKQOW4wkAA14PB0XLFQDbMA0FUiaPB4MIWQTWQIkER9JzBgth7QBwP
yEBitY/By7BAQcdYXUF+zabBOJsrQYADAEFbKpjBFLS0QC53EUEkHq3BzhkpQRmOXEFkCKPBvza8
QOQLHkHZjG7BBLn5QCXWDkGl42TBg5DXQLxkLEEhsWTB1Ob6QDyqI0HJJV/BhwhWQVEGf0E+rKfB
1BudQNVu6kA3PH/Bp+4FQUWOFUEfwaHBPSaiQNYg+EDo1JzB83clQalcR0FxZ57BljtVQKAMoEDC
v5PBlQNGQZhim0GSJMXBaWBdQW4pqEHUkMLB5LHdQEzlzUCmjXXBIsHdQLEKFkGSmZPBrrQNQViW
O0Ga76rBBg3FQGT+vEDggZbBiGA7QSHRd0EtH7TBgOlEQVyDTEGCRK7BuLqjQCIIZUEOzozBG+qz
QLs2e0HI2JzBibveQIGmUkF7EoPB9PeCQQPImkEIp6PBKSF3QXP6pEHdB7PBshD/QEgff0G0JaPB
S/0UQQvdVkEEOInBdip2Qa1GiUH1jZ7BglhIQRotjEEnJrjBf/YWQQ3SCUEy/4rBRPglQYKn40Bc
fojBTBMzQRJlC0EYHojBZAhFQTYm50D8Q6LBMv5NQdLL/ED7upXBKuNAQTCpyUA/G5bBvkOnQG7x
6kB56rbBNq1zQPE0/0ALt6/BhjKNQFqGDUFwUbvBshqzQOKCL0G0RaTBMx+UQDGZL0EsYLDBSMOA
QFCtIUHHxaTBvDAmQaK2fUFs8J3BDecuQe+va0ESoZPB+BMwQcvwE0EcQabBgcw4QdEDIEHZ9pnB
TWBaQDv1ukCoaX7BI2WhQCGGqECuEYPBBm3WQAzU60B/46bBeicTQfyMJUF/eJTBqMlMQD4d4kA1
WZDBuRJLQdeXW0FXwJ/B/yMfQUtz7EDN/ZvBbXvQQNBFFkFp9bHB/44eQTYBX0Hg+KnBJdxcQZHe
eEHvH6HB+HeLQAKOAkHwx3/BlXgIQfTDD0FyGqnBm96GQAFtBEHcvJzBzwctQQPDQ0FvlpfBgW8i
QB9ymEDuRI/BW8pCQJYqpEAbV5vB7CuAQA1yiEAWYJPBaQxEQX71UUGVWbXBksn1QFgJk0Huo63B
eKoLQamvk0FmIKbB7QzfQGxhiUGd7a7BH1JfQdmvdUHnwMrBnoBsQdCFY0GpvMvB8PgQQS62ikFz
1p/BCuLpQJ1egEFltqjBI2tSQWRdeEHVncHBjdxfQQi4VkFdbrrB3NxsQTzcU0HijcPBHI8FQS8H
gUHCEaHB9I1SQX3uaEELXbnB+bzUQEy1CkHJ/W3BdLB6QVWKQEH5csTBr/vFQC457EAevnbBMq3j
QJRIEUE59ZzByqUWQc0tOUG6v6LB3VOjQA7800ChtJbBquNCQRy2YEF/FKfBDwsmQTMxAkHcn4zB
iKpAQTC360CEhJrBC0KTQGYHBUHPILTBH5aaQGjFJkF3BqnBq5QLQVxmbkFskprBZEkrQUBwF0Hk
H57B8JuJQPwYwkAF6IPBO0LDQEB4BEGdlKPB7r0VQTFvI0FIIJ3Bc655QA4nyEDXto/BEqozQbLI
aUFmn57BTNsqQQrhAEGIxZjBnL6xQFdVEkFyAa3BSrocQST0YEGqeKDB/BS8QLViHUEfEG7BdPj5
QCQiDkGlGWXBQaDXQA+fK0H+LWTByC77QIXeIkEnCV/Bc1xFQRu8bEE7drDBrMCcQJmU6UB0Ln/B
Cs0EQSShFkEi/aHBCGCgQM0J+UCjyJzBuJobQfPUSkFJhZzBG7FSQDdeoEB41pPBVc16QXzIMkFl
DL3B8x+DQRf6PUFKnczBG63dQM3tzECmK3bB3IvcQDcsFkGgmZPByVgTQSa2OkHGaKzBNqHDQKOR
vUDHyZbB5q1LQQN4T0HKcKXByy07QU2fZEGdG5TB2oHtQMbvmUENabLBRnQUQeYQm0FeMKXBYFTF
QDLjiEGHrbTBIxtfQfLKgEGdBNHBtl92QZSHYUEMwtLBgMkdQS08i0GyEJrBnb/YQIDjcUHSyqnB
1FZIQUMqg0H46cDBIRFgQfnSSkEqKrTBQn4WQdcMCkHjYIvBOo8lQfvn40BxPYnBWqoyQbGAC0HV
oYjBdBVEQZbZ6UA1I6PBnUlNQV1W/kBhhpbBfS5AQfY8y0D+IZfBn+OjQFUe7UA97LbB+bxtQHZn
AEGqd6/BYFGJQHqpDkGjD7vBc3GwQOgmMEGj96PBsqiQQEV2MEFt8K/Bm2t8QEE0IkF0WKTBTPoR
QRmFc0GlyJLBcHX6QKGGZEEOUZnBQxEvQZd7FUHQqabBBdM3QSkVIUERRJrB6upZQJX6uUCTbX7B
wwGhQF/op0CRT4PBZxzUQMtk7UA+FafBBkMSQZv7JUEwmJTB6IZKQC054kAILpDBvRwzQVRFe0F2
lJ/BvlIeQWp67kDmopzB9CXNQD1UF0GB7rHBakcZQXBKYUFfGanBm2o8QV/5eUFO4rDBawaLQOob
AkFdY3/B9g8HQSZfEUGedanBOhyFQPLgBEGPhZzBTqQeQe9WSEH/w5TBvGEgQCp7mECTTY/BnXE/
QJ7spEDDYZvB2t19QBjDiEBIn5PBgLVFQeWyWUGUkJTB

>  <OMEGA_E>  (5) 
FnWMP0ILmD8=

>  <OMEGA_NBR>  (5) 
     10997

$$$$
50134549
     RDKit          3D

 96 99  0  0  1  0  0  0  0  0999 V2000
    8.5730   18.3307  -22.1903 C   0  0  0  0  0  0  0  0  0  0  0  0
    9.5865   18.3787  -21.2108 C   0  0  0  0  0  0  0  0  0  0  0  0
    7.8035   17.1606  -22.3533 C   0  0  0  0  0  0  0  0  0  0  0  0
   15.8830   11.3538  -23.2180 C   0  0  0  0  0  0  0  0  0  0  0  0
   16.1301   11.8953  -24.4897 C   0  0  0  0  0  0  0  0  0  0  0  0
    9.8245   17.2606  -20.3863 C   0  0  0  0  0  0  0  0  0  0  0  0
    8.0455   16.0395  -21.5354 C   0  0  0  0  0  0  0  0  0  0  0  0
   14.9332   11.9456  -22.3682 C   0  0  0  0  0  0  0  0  0  0  0  0
   14.4559   13.6231  -24.0732 C   0  0  0  0  0  0  0  0  0  0  0  0
   15.4154   13.0311  -24.9272 C   0  0  0  0  0  0  0  0  0  0  0  0
    9.0468   16.0914  -20.5400 C   0  0  0  0  0  0  0  0  0  0  0  0
   14.2108   13.0958  -22.7851 C   0  0  0  0  0  0  0  0  0  0  0  0
   15.6705   13.5929  -26.2686 C   0  0  0  0  0  0  0  0  0  0  0  0
    6.6230    8.6537  -14.8805 C   0  0  0  0  0  0  0  0  0  0  0  0
    6.2104    7.3522  -15.4326 C   0  0  0  0  0  0  0  0  0  0  0  0
    7.1375    9.0796  -19.6116 C   0  0  0  0  0  0  0  0  0  0  0  0
    9.4168   11.6360  -20.3228 C   0  0  0  0  0  0  0  0  0  0  0  0
    5.1974    6.5589  -18.8619 C   0  0  0  0  0  0  0  0  0  0  0  0
   12.8625   13.5006  -20.6755 C   0  0  0  0  0  0  0  0  0  0  0  0
   10.3969    8.2343  -17.5258 C   0  0  0  0  0  0  0  0  0  0  0  0
   12.1009    7.5005  -19.2400 C   0  0  0  0  0  0  0  0  0  0  0  0
    4.6963    8.2316  -22.5472 C   0  0  0  0  0  0  0  0  0  0  0  0
    4.8341   10.3471  -21.1574 C   0  0  0  0  0  0  0  0  0  0  0  0
    9.3059   14.8755  -19.6752 C   0  0  0  0  0  0  0  0  0  0  0  0
   10.7125    9.5539  -19.7152 C   0  0  0  0  0  0  0  0  0  0  0  0
    4.3806    5.9760  -16.5230 C   0  0  0  0  0  0  0  0  0  0  0  0
    6.1639    8.2465  -20.4547 C   0  0  2  0  0  0  0  0  0  0  0  0
    9.3496   10.2815  -19.6069 C   0  0  2  0  0  0  0  0  0  0  0  0
    3.9957    6.1503  -18.0045 C   0  0  2  0  0  0  0  0  0  0  0  0
   11.8334   14.4549  -20.0381 C   0  0  1  0  0  0  0  0  0  0  0  0
   10.7153    8.1497  -19.0399 C   0  0  0  0  0  0  0  0  0  0  0  0
    5.6072    9.0941  -21.6423 C   0  0  0  0  0  0  0  0  0  0  0  0
   10.3841   13.9584  -20.3107 C   0  0  1  0  0  0  0  0  0  0  0  0
   14.8226   14.4894  -26.9271 N   0  0  0  0  0  0  0  0  0  0  0  0
    5.8160    9.7959  -14.8960 N   0  0  0  0  0  0  0  0  0  0  0  0
   16.7147   13.3194  -27.0061 N   0  0  0  0  0  0  0  0  0  0  0  0
    7.7715    8.9047  -14.3092 N   0  0  0  0  0  0  0  0  0  0  0  0
   15.5066   14.6802  -28.1149 N   0  0  0  0  0  0  0  0  0  0  0  0
    6.6394   10.7126  -14.2669 N   0  0  0  0  0  0  0  0  0  0  0  0
   16.5963   14.0117  -28.1581 N   0  0  0  0  0  0  0  0  0  0  0  0
    7.7629   10.2012  -13.9302 N   0  0  0  0  0  0  0  0  0  0  0  0
   13.2576   13.7632  -21.9922 N   0  0  0  0  0  0  0  0  0  0  0  0
    4.9325    7.2287  -15.9773 N   0  0  0  0  0  0  0  0  0  0  0  0
    8.3197    9.4482  -20.2232 N   0  0  0  0  0  0  0  0  0  0  0  0
    5.0783    7.7141  -19.6219 N   0  0  0  0  0  0  0  0  0  0  0  0
   10.2256   12.6097  -19.7598 N   0  0  0  0  0  0  0  0  0  0  0  0
    3.4354    4.8869  -18.5266 N   0  0  0  0  0  0  0  0  0  0  0  0
    6.9808    6.3982  -15.3861 O   0  0  0  0  0  0  0  0  0  0  0  0
    6.8891    9.3791  -18.4457 O   0  0  0  0  0  0  0  0  0  0  0  0
    8.7505   11.8612  -21.3313 O   0  0  0  0  0  0  0  0  0  0  0  0
    6.2292    5.8917  -18.8581 O   0  0  0  0  0  0  0  0  0  0  0  0
   13.2839   12.5523  -20.0206 O   0  0  0  0  0  0  0  0  0  0  0  0
   12.0792   14.5509  -18.6312 O   0  0  0  0  0  0  0  0  0  0  0  0
    8.3861   19.1909  -22.8161 H   0  0  0  0  0  0  0  0  0  0  0  0
   10.1805   19.2728  -21.0923 H   0  0  0  0  0  0  0  0  0  0  0  0
    7.0288   17.1238  -23.1050 H   0  0  0  0  0  0  0  0  0  0  0  0
   16.4253   10.4787  -22.8916 H   0  0  0  0  0  0  0  0  0  0  0  0
   16.8685   11.4418  -25.1344 H   0  0  0  0  0  0  0  0  0  0  0  0
   10.6015   17.2977  -19.6371 H   0  0  0  0  0  0  0  0  0  0  0  0
    7.4647   15.1388  -21.6694 H   0  0  0  0  0  0  0  0  0  0  0  0
   14.7510   11.5231  -21.3911 H   0  0  0  0  0  0  0  0  0  0  0  0
   13.9040   14.4884  -24.4094 H   0  0  0  0  0  0  0  0  0  0  0  0
    9.4092    8.6970  -17.3836 H   0  0  0  0  0  0  0  0  0  0  0  0
   10.3929    7.2221  -17.0950 H   0  0  0  0  0  0  0  0  0  0  0  0
   11.1628    8.8435  -17.0237 H   0  0  0  0  0  0  0  0  0  0  0  0
   12.3266    7.4407  -20.3150 H   0  0  0  0  0  0  0  0  0  0  0  0
   12.8670    8.1097  -18.7380 H   0  0  0  0  0  0  0  0  0  0  0  0
   12.0971    6.4883  -18.8094 H   0  0  0  0  0  0  0  0  0  0  0  0
    5.2508    7.3446  -22.8875 H   0  0  0  0  0  0  0  0  0  0  0  0
    3.8099    7.9139  -21.9786 H   0  0  0  0  0  0  0  0  0  0  0  0
    4.3801    8.8230  -23.4191 H   0  0  0  0  0  0  0  0  0  0  0  0
    5.4873   10.9557  -20.5148 H   0  0  0  0  0  0  0  0  0  0  0  0
    4.5181   10.9421  -22.0270 H   0  0  0  0  0  0  0  0  0  0  0  0
    3.9479   10.0329  -20.5865 H   0  0  0  0  0  0  0  0  0  0  0  0
    9.6534   15.2060  -18.6852 H   0  0  0  0  0  0  0  0  0  0  0  0
    8.3705   14.3073  -19.5646 H   0  0  0  0  0  0  0  0  0  0  0  0
   10.9587    9.4299  -20.7801 H   0  0  0  0  0  0  0  0  0  0  0  0
   11.4800   10.1758  -19.2314 H   0  0  0  0  0  0  0  0  0  0  0  0
    3.4859    5.6950  -15.9481 H   0  0  0  0  0  0  0  0  0  0  0  0
    5.1361    5.1811  -16.4373 H   0  0  0  0  0  0  0  0  0  0  0  0
    6.7251    7.4033  -20.8837 H   0  0  0  0  0  0  0  0  0  0  0  0
    9.1167   10.4466  -18.5446 H   0  0  0  0  0  0  0  0  0  0  0  0
    3.2331    6.9400  -18.0739 H   0  0  0  0  0  0  0  0  0  0  0  0
   11.9479   15.4452  -20.5030 H   0  0  0  0  0  0  0  0  0  0  0  0
    9.9546    7.5224  -19.5276 H   0  0  0  0  0  0  0  0  0  0  0  0
    6.4625    9.4341  -22.2446 H   0  0  0  0  0  0  0  0  0  0  0  0
   10.2238   13.9340  -21.3987 H   0  0  0  0  0  0  0  0  0  0  0  0
   12.7977   14.5344  -22.4324 H   0  0  0  0  0  0  0  0  0  0  0  0
    4.3529    8.0434  -15.9991 H   0  0  0  0  0  0  0  0  0  0  0  0
    8.4825    9.1214  -21.1542 H   0  0  0  0  0  0  0  0  0  0  0  0
    4.2094    8.2087  -19.6011 H   0  0  0  0  0  0  0  0  0  0  0  0
   10.7311   12.3786  -18.9285 H   0  0  0  0  0  0  0  0  0  0  0  0
    2.6501    4.6150  -17.9705 H   0  0  0  0  0  0  0  0  0  0  0  0
    3.1434    5.0184  -19.4739 H   0  0  0  0  0  0  0  0  0  0  0  0
    4.1338    4.1721  -18.4892 H   0  0  0  0  0  0  0  0  0  0  0  0
   12.6686   13.8554  -18.3641 H   0  0  0  0  0  0  0  0  0  0  0  0
  1  2  2  0
  1  3  1  0
  2  6  1  0
  3  7  2  0
  4  5  2  0
  4  8  1  0
  5 10  1  0
  6 11  2  0
  7 11  1  0
  8 12  2  0
  9 10  2  0
  9 12  1  0
 10 13  1  0
 11 24  1  0
 12 42  1  0
 13 34  1  0
 13 36  2  0
 14 15  1  0
 14 35  1  0
 14 37  2  0
 15 43  1  0
 15 48  2  0
 16 27  1  0
 16 44  1  0
 16 49  2  0
 17 28  1  0
 17 46  1  0
 17 50  2  0
 18 29  1  0
 18 45  1  0
 18 51  2  0
 19 30  1  0
 19 42  1  0
 19 52  2  0
 20 31  1  0
 21 31  1  0
 22 32  1  0
 23 32  1  0
 24 33  1  0
 25 28  1  0
 25 31  1  0
 26 29  1  0
 26 43  1  0
 27 32  1  0
 27 45  1  0
 28 44  1  0
 29 47  1  0
 30 33  1  0
 30 53  1  0
 33 46  1  0
 34 38  1  0
 35 39  1  0
 36 40  1  0
 37 41  1  0
 38 40  2  0
 39 41  2  0
  1 54  1  0
  2 55  1  0
  3 56  1  0
  4 57  1  0
  5 58  1  0
  6 59  1  0
  7 60  1  0
  8 61  1  0
  9 62  1  0
 20 63  1  0
 20 64  1  0
 20 65  1  0
 21 66  1  0
 21 67  1  0
 21 68  1  0
 22 69  1  0
 22 70  1  0
 22 71  1  0
 23 72  1  0
 23 73  1  0
 23 74  1  0
 24 75  1  0
 24 76  1  0
 25 77  1  0
 25 78  1  0
 26 79  1  0
 26 80  1  0
 27 81  1  6
 28 82  1  1
 29 83  1  1
 30 84  1  6
 31 85  1  0
 32 86  1  0
 33 87  1  6
 42 88  1  0
 43 89  1  0
 44 90  1  0
 45 91  1  0
 46 92  1  0
 47 93  1  0
 47 94  1  0
 47 95  1  0
 53 96  1  0
M  CHG  3  34  -1  35  -1  47   1
M  END
>  <OMEGA_C>  (6) 
2ioJQUKlkkHMhbHBHWIZQZ8Hk0Gkr6nBFbb5QOpIiUGm07LBviB+QSWpNUGEvrnBagqBQQBTPkHq
6sPBFDEdQbEVikE8F6PBdroAQdNQgEFqSKzBPe5uQUEhP0EZ8rLBZktnQSL4WUHZlcDBX6V2QUd/
UEHzasfB4r8QQTu7gEHVUaTBVV9jQXKIUUH0R7bBjrp6QXF8WUEHJtLB/u/TQGt1CkFpFm7BhLvG
QEVF60Dx63bBrGbkQCNGEUGR5JzBTasWQQEtOkEllaLB5FCmQJXi0UAg5ZbByMxNQUcCWEFhZ6XB
u1kmQX6/A0HhNIzBbZ1BQTkE8ECL65nBdEiWQLO0A0GYYLTB5bCaQNCNJUFtQqnB6uQUQScCbkG2
Zp3BNWYrQZPcGEG3uJ3B3C2MQB87v0ALL4TBRT7FQLLxA0FAo6PByZcVQf2AJEHh2pzBnrl/QCXP
xEAgCZDBgVU9QWRHZ0H2TaDBBXIrQfxkAkGoUZjBxm2zQGaBEUFxI63BLyUmQYtVX0FFfKLBRylt
QYbUZ0GpatfBaRy6QCq8HEEZVm7BuLeFQWgcVUF3DNjBPbD4QM15DkGX8mTB3xp4QUDiakFU6+DB
5nXUQMRmK0FQRWTBRMWEQe4vYEG0Q+HBDWr4QEE4I0Er4l7BOB9UQTU2XEEK8K/BwdadQLtR50An
o3/BlB0FQa0rF0EvyaHBc4GiQP3Z9kCS+ZzBGpwjQWrBSUEfFJ7BUN5bQNZhnECFNpTBXmLfQKu9
zEBsLXbBUnPcQPYQFkHNkJPB7AEMQVzHPUGPpqrBRlXHQIeIvEBe3ZbB9opUQSDWSEErKqDBekRB
QZPQaEG3DJXBpi0GQfGGmUFUh7bBe+MiQcAumkH6vKjBFOzgQIz9iEH91rjB8GaDQcGoJ0EAIrfB
l/KGQaIRN0EuE8nBpJ8pQcVhikHfGJ3BMN/uQKo4ckHgWq3B9ANsQbVeOEEGIavB4HZeQX/QZ0Fp
RsPB84sWQf0mC0GuEYvBdUkmQcQb50CKwojB9poyQQJ/DUF1MIjBnjlFQe8Z7kAIhaLBbt9NQUzB
AUGC55XB7Y1BQVegz0CXeZbBzwaoQFsH60CdGbfBzNVzQGc+/UAf1K/BoymMQCYrDUE9WrvB7pev
QHhKL0FOHqTB/ZOQQLoSL0FRN7DBgKp8QMeGIEEzsaTBK3QaQfVLc0FGe5XBtO0FQbPqZEE1hJzB
tFYvQd3gFkGiPabBBK43QQ/QIkHb2ZnBfBhfQA09tkBdK3/B8VqkQEPLpUCRf4PBJTTXQBHo7EDS
EafBBt4RQVQlJ0FCW5TBQOtOQFUU3kBvl5DBfSo/Qa4fd0EyBqTBJkYfQW238EB8OJzB3szOQPLx
FkH59LHBq5QjQZfxXkF3MKvBZ8NMQf+MaEF/dbPB6UqLQJmxAEEz/H/BIrgHQUTxEUHbO6nBk7OG
QNJWA0Ebz5zBirIrQd4ORkGVbZfBbZspQA2uk0CIw4/BBC1JQF6WoECkypvBxEeEQByChUDn6ZPB
hbJKQZWvXUGo6ZLB

>  <OMEGA_E>  (6) 
VjqiPw==

>  <OMEGA_NBR>  (6) 
     14710

$$$$
50137578
     RDKit          3D

103107  0  0  1  0  0  0  0  0999 V2000
    6.3248   15.9035  -16.9011 C   0  0  0  0  0  0  0  0  0  0  0  0
    6.6424   16.6975  -18.0218 C   0  0  0  0  0  0  0  0  0  0  0  0
    7.2133   14.8934  -16.4767 C   0  0  0  0  0  0  0  0  0  0  0  0
   15.4891   12.0867  -17.5004 C   0  0  0  0  0  0  0  0  0  0  0  0
   16.4531   13.1139  -17.5266 C   0  0  0  0  0  0  0  0  0  0  0  0
    7.8505   16.4871  -18.7144 C   0  0  0  0  0  0  0  0  0  0  0  0
    8.4250   14.6833  -17.1675 C   0  0  0  0  0  0  0  0  0  0  0  0
   14.2968   12.2144  -18.2428 C   0  0  0  0  0  0  0  0  0  0  0  0
   15.0213   14.4052  -19.0162 C   0  0  0  0  0  0  0  0  0  0  0  0
   16.2157   14.2817  -18.2837 C   0  0  0  0  0  0  0  0  0  0  0  0
    8.7530   15.4915  -18.2810 C   0  0  0  0  0  0  0  0  0  0  0  0
   14.0534   13.3713  -19.0175 C   0  0  0  0  0  0  0  0  0  0  0  0
   17.2021   15.3795  -18.3328 C   0  0  0  0  0  0  0  0  0  0  0  0
    6.5227    8.6398  -14.8300 C   0  0  0  0  0  0  0  0  0  0  0  0
    5.4770    7.7237  -15.3156 C   0  0  0  0  0  0  0  0  0  0  0  0
    6.9913    9.3017  -19.8411 C   0  0  0  0  0  0  0  0  0  0  0  0
    9.1263   11.8172  -20.1672 C   0  0  0  0  0  0  0  0  0  0  0  0
    5.5765    6.5745  -18.8842 C   0  0  0  0  0  0  0  0  0  0  0  0
   12.3730   14.4505  -20.5861 C   0  0  0  0  0  0  0  0  0  0  0  0
   12.1059    6.9817  -16.4574 C   0  0  0  0  0  0  0  0  0  0  0  0
   12.3318    6.7191  -17.9613 C   0  0  0  0  0  0  0  0  0  0  0  0
   10.7181    7.6076  -16.2043 C   0  0  0  0  0  0  0  0  0  0  0  0
   12.1573    8.0154  -18.7788 C   0  0  0  0  0  0  0  0  0  0  0  0
   10.5261    8.8958  -17.0309 C   0  0  0  0  0  0  0  0  0  0  0  0
   10.7565    8.6319  -18.5459 C   0  0  0  0  0  0  0  0  0  0  0  0
    5.0221    7.6567  -22.8016 C   0  0  0  0  0  0  0  0  0  0  0  0
    4.5873    9.8869  -21.6847 C   0  0  0  0  0  0  0  0  0  0  0  0
   10.0441   15.2723  -19.0474 C   0  0  0  0  0  0  0  0  0  0  0  0
   10.6284    9.9429  -19.3741 C   0  0  0  0  0  0  0  0  0  0  0  0
    3.8225    7.1610  -17.1528 C   0  0  0  0  0  0  0  0  0  0  0  0
    6.2702    8.2167  -20.6528 C   0  0  2  0  0  0  0  0  0  0  0  0
    9.1735   10.4767  -19.4250 C   0  0  2  0  0  0  0  0  0  0  0  0
    4.4332    6.0252  -18.0107 C   0  0  2  0  0  0  0  0  0  0  0  0
   10.9880   14.2608  -21.2371 C   0  0  1  0  0  0  0  0  0  0  0  0
    5.6512    8.7943  -21.9607 C   0  0  0  0  0  0  0  0  0  0  0  0
    9.8486   14.2254  -20.1782 C   0  0  1  0  0  0  0  0  0  0  0  0
   16.9081   16.6765  -18.7754 N   0  0  0  0  0  0  0  0  0  0  0  0
    6.9395    9.7803  -15.5253 N   0  0  0  0  0  0  0  0  0  0  0  0
   18.4582   15.2845  -17.9898 N   0  0  0  0  0  0  0  0  0  0  0  0
    7.1745    8.5187  -13.7040 N   0  0  0  0  0  0  0  0  0  0  0  0
   18.1367   17.2923  -18.6399 N   0  0  0  0  0  0  0  0  0  0  0  0
    7.8921   10.2868  -14.6595 N   0  0  0  0  0  0  0  0  0  0  0  0
   19.0285   16.4924  -18.1914 N   0  0  0  0  0  0  0  0  0  0  0  0
    8.0291    9.5611  -13.6144 N   0  0  0  0  0  0  0  0  0  0  0  0
   12.8570   13.4244  -19.7580 N   0  0  0  0  0  0  0  0  0  0  0  0
    4.8493    8.0117  -16.5236 N   0  0  0  0  0  0  0  0  0  0  0  0
    8.3364    9.4851  -20.1020 N   0  0  0  0  0  0  0  0  0  0  0  0
    5.2608    7.5502  -19.8229 N   0  0  0  0  0  0  0  0  0  0  0  0
    9.7700   12.8924  -19.5751 N   0  0  0  0  0  0  0  0  0  0  0  0
    4.8974    4.9181  -17.1419 N   0  0  0  0  0  0  0  0  0  0  0  0
    5.1537    6.7478  -14.6459 O   0  0  0  0  0  0  0  0  0  0  0  0
    6.4003    9.9738  -18.9987 O   0  0  0  0  0  0  0  0  0  0  0  0
    8.5019   11.9450  -21.2182 O   0  0  0  0  0  0  0  0  0  0  0  0
    6.7316    6.1819  -18.7344 O   0  0  0  0  0  0  0  0  0  0  0  0
   12.9881   15.4876  -20.8104 O   0  0  0  0  0  0  0  0  0  0  0  0
   10.7180   15.3229  -22.1563 O   0  0  0  0  0  0  0  0  0  0  0  0
    5.4008   16.0687  -16.3670 H   0  0  0  0  0  0  0  0  0  0  0  0
    5.9591   17.4671  -18.3494 H   0  0  0  0  0  0  0  0  0  0  0  0
    6.9656   14.2805  -15.6226 H   0  0  0  0  0  0  0  0  0  0  0  0
   15.6637   11.1992  -16.9103 H   0  0  0  0  0  0  0  0  0  0  0  0
   17.3717   13.0082  -16.9686 H   0  0  0  0  0  0  0  0  0  0  0  0
    8.0873   17.0889  -19.5794 H   0  0  0  0  0  0  0  0  0  0  0  0
    9.1022   13.9057  -16.8462 H   0  0  0  0  0  0  0  0  0  0  0  0
   13.5637   11.4217  -18.2192 H   0  0  0  0  0  0  0  0  0  0  0  0
   14.8392   15.3036  -19.5873 H   0  0  0  0  0  0  0  0  0  0  0  0
   12.1749    6.0288  -15.9121 H   0  0  0  0  0  0  0  0  0  0  0  0
   12.8824    7.6701  -16.0924 H   0  0  0  0  0  0  0  0  0  0  0  0
   13.3513    6.3338  -18.1104 H   0  0  0  0  0  0  0  0  0  0  0  0
   11.6031    5.9725  -18.3100 H   0  0  0  0  0  0  0  0  0  0  0  0
    9.9408    6.8819  -16.4857 H   0  0  0  0  0  0  0  0  0  0  0  0
   10.6237    7.8501  -15.1355 H   0  0  0  0  0  0  0  0  0  0  0  0
   12.9253    8.7407  -18.4720 H   0  0  0  0  0  0  0  0  0  0  0  0
   12.2763    7.7856  -19.8479 H   0  0  0  0  0  0  0  0  0  0  0  0
    9.5013    9.2673  -16.8832 H   0  0  0  0  0  0  0  0  0  0  0  0
   11.2443    9.6540  -16.6855 H   0  0  0  0  0  0  0  0  0  0  0  0
    9.9955    7.9197  -18.8974 H   0  0  0  0  0  0  0  0  0  0  0  0
    5.7788    6.8825  -22.9963 H   0  0  0  0  0  0  0  0  0  0  0  0
    4.1797    7.2152  -22.2490 H   0  0  0  0  0  0  0  0  0  0  0  0
    4.6605    8.0643  -23.7572 H   0  0  0  0  0  0  0  0  0  0  0  0
    5.0363   10.6940  -21.0872 H   0  0  0  0  0  0  0  0  0  0  0  0
    4.2254   10.2957  -22.6397 H   0  0  0  0  0  0  0  0  0  0  0  0
    3.7446    9.4466  -21.1315 H   0  0  0  0  0  0  0  0  0  0  0  0
   10.3652   16.2260  -19.4916 H   0  0  0  0  0  0  0  0  0  0  0  0
   10.8178   14.9121  -18.3533 H   0  0  0  0  0  0  0  0  0  0  0  0
   11.2698   10.7116  -18.9184 H   0  0  0  0  0  0  0  0  0  0  0  0
   10.9670    9.7449  -20.4018 H   0  0  0  0  0  0  0  0  0  0  0  0
    3.1914    7.7896  -17.7983 H   0  0  0  0  0  0  0  0  0  0  0  0
    3.2045    6.7114  -16.3616 H   0  0  0  0  0  0  0  0  0  0  0  0
    7.0221    7.4707  -20.9497 H   0  0  0  0  0  0  0  0  0  0  0  0
    8.8166   10.6264  -18.3953 H   0  0  0  0  0  0  0  0  0  0  0  0
    3.6465    5.6449  -18.6789 H   0  0  0  0  0  0  0  0  0  0  0  0
   10.9875   13.2990  -21.7709 H   0  0  0  0  0  0  0  0  0  0  0  0
    6.4621    9.2475  -22.5498 H   0  0  0  0  0  0  0  0  0  0  0  0
    8.9005   14.4480  -20.6897 H   0  0  0  0  0  0  0  0  0  0  0  0
   12.2694   12.6186  -19.6839 H   0  0  0  0  0  0  0  0  0  0  0  0
    5.1123    8.8525  -16.9969 H   0  0  0  0  0  0  0  0  0  0  0  0
    8.7635    8.9050  -20.7957 H   0  0  0  0  0  0  0  0  0  0  0  0
    4.3019    7.8095  -19.9376 H   0  0  0  0  0  0  0  0  0  0  0  0
   10.2054   12.7503  -18.6861 H   0  0  0  0  0  0  0  0  0  0  0  0
    4.1335    4.5848  -16.5892 H   0  0  0  0  0  0  0  0  0  0  0  0
    5.2478    4.1734  -17.7098 H   0  0  0  0  0  0  0  0  0  0  0  0
    5.6244    5.2491  -16.5403 H   0  0  0  0  0  0  0  0  0  0  0  0
   11.4322   15.9491  -22.1360 H   0  0  0  0  0  0  0  0  0  0  0  0
  1  2  2  0
  1  3  1  0
  2  6  1  0
  3  7  2  0
  4  5  2  0
  4  8  1  0
  5 10  1  0
  6 11  2  0
  7 11  1  0
  8 12  2  0
  9 10  2  0
  9 12  1  0
 10 13  1  0
 11 28  1  0
 12 45  1  0
 13 37  1  0
 13 39  2  0
 14 15  1  0
 14 38  1  0
 14 40  2  0
 15 46  1  0
 15 51  2  0
 16 31  1  0
 16 47  1  0
 16 52  2  0
 17 32  1  0
 17 49  1  0
 17 53  2  0
 18 33  1  0
 18 48  1  0
 18 54  2  0
 19 34  1  0
 19 45  1  0
 19 55  2  0
 20 21  1  0
 20 22  1  0
 21 23  1  0
 22 24  1  0
 23 25  1  0
 24 25  1  0
 25 29  1  0
 26 35  1  0
 27 35  1  0
 28 36  1  0
 29 32  1  0
 30 33  1  0
 30 46  1  0
 31 35  1  0
 31 48  1  0
 32 47  1  0
 33 50  1  0
 34 36  1  0
 34 56  1  0
 36 49  1  0
 37 41  1  0
 38 42  1  0
 39 43  1  0
 40 44  1  0
 41 43  2  0
 42 44  2  0
  1 57  1  0
  2 58  1  0
  3 59  1  0
  4 60  1  0
  5 61  1  0
  6 62  1  0
  7 63  1  0
  8 64  1  0
  9 65  1  0
 20 66  1  0
 20 67  1  0
 21 68  1  0
 21 69  1  0
 22 70  1  0
 22 71  1  0
 23 72  1  0
 23 73  1  0
 24 74  1  0
 24 75  1  0
 25 76  1  0
 26 77  1  0
 26 78  1  0
 26 79  1  0
 27 80  1  0
 27 81  1  0
 27 82  1  0
 28 83  1  0
 28 84  1  0
 29 85  1  0
 29 86  1  0
 30 87  1  0
 30 88  1  0
 31 89  1  6
 32 90  1  1
 33 91  1  6
 34 92  1  6
 35 93  1  0
 36 94  1  6
 45 95  1  0
 46 96  1  0
 47 97  1  0
 48 98  1  0
 49 99  1  0
 50100  1  0
 50101  1  0
 50102  1  0
 56103  1  0
M  CHG  3  37  -1  38  -1  50   1
M  END
>  <OMEGA_C>  (7) 
GmXKQLZ0fkFgNYfBOI7UQHmUhUG6LJDBINPmQC5LbkFX0IPBSdN3QQBjQUHQAIzB6J+DQbDSUUFz
NozBnDf7QI7lg0Eet5XB9cwGQfbuakH1VonBmL9kQShuQ0FB8ZHBMFdwQa17ZkEvIZjBz7mBQdKB
ZEH+RJLBNAwMQWHdd0FsP5LB6NpgQeDwVUHHI5jB9Z2JQZwSdkGYqZLB/bnQQG08CkHRR23B7kOv
QCUo90DKDHXB/bjfQKfTFEF+up7BNQUSQSQTPUFeVqHBy3KyQAti0kDHEpfBq/dFQRw1Z0FVsKTB
zbFBQa5p30DIqIPBOE9FQbIC10CqsI/BUn0rQbNx80BsooHBPIRCQTc/AEHxOpbB7GooQQVVDkEy
P4jBzRosQTEcCkEUXpTBQrWgQOoD9UCvabbBD8uSQN0wHkE8eq3BmbQgQXFbdEEAYZjBzw0qQU8W
H0E3/prBRqN0QPMm5UDZOInBb6XIQKJ3A0EDOaXBlMYSQbOgJ0FVZpvBytyNQELOwEDuFZDBxc4v
QScsZEGR5anBZta0QHm1DEFvr6/B2ZMdQSObY0HqbKHB0UOHQWlphUENNJbBwRDeQCV8HEG9Z3jB
Z6qTQVCNdEEO64/B2ZXlQIlMCEGNQ1vB5xeRQapWikGUHpXBOIz8QJ6WJEEhjWrBRzqYQYfwg0EU
iJHBEncAQWL6GEHE1FnBErZNQXjKVkFlEJ7BeS2bQB8wAEFMMITB2GEFQQ/DF0H+0KDBsVioQFCb
8UBRlZ7B4FEcQS1HTkHFmZzBY7ecQGZhnUCMIonBfOukQL/t10CXVWrBJ8/MQNyUH0FK/ZfBowcI
QdIeP0HnvqnBEWnXQOzRxUAH4JXBZc9PQSXNd0Goe6bB+nwrQcAqdUEtQLHBR9OsQL6MgEGa74LB
VLG+QK68i0GIy5LBCObeQPx8ZEFR9nnBWp56QbsvM0FBSIfBR/mKQckhUEG4v4fBpGUBQQ22iEGS
opzBk6IRQd59XkEWxYbBuQRZQUG/NkHnwJHBV21tQX7bdEHCspzBkcxCQfbrwEAlmH7BJR5OQSRx
9UBLvYDB+55VQYWuykAS4pDBNKY5QRUfv0DMepLBfA0fQd843ECy4oPBwvopQfQz+0AYK3LBEs5O
QeHZC0GXxpPBk2tEQZgj+UCAyJ7BawUYQdBGFEHlEIfBu+gzQat2GkHje4XBl+0fQdJt/UD1LZfB
Quy4QCA93EBd+LfBI8CFQPDi5kDv/bHBliKVQDkHAUGzDr7BQCmhQLcaK0GQsqjBeTaHQA27JEEE
HrXBCqhvQEwlF0FBDanBAtglQenOgUG37pvBohUtQReYbkGm05LBSFE0QatiK0HaWJfB5ngvQTHr
G0HiNqPBqUBMQGhE+UDaYo7BvxVNQNjD1kCR5ILBH7XgQBYQ70DzmKfBrxANQaIFKkGQKZPBA2Bp
QPGitEBabpXBsMwvQb7IVEHmKq7BjsnOQJD1E0HtZbTBmGgOQe8qZ0F2hKXBkE9EQeHlSUGzeJ3B
IZijQLKjDUGg+YfBTzcMQRN7DkF+XabB3qiJQI7n+UArgJ/BH0kjQWcBTEEkfZXBBkaEQGi2kkC8
toTBG+6nQBiMhUCSrY3BR/uzQIn4p0CHUoTBIOo2QYMvf0GPFrHBcyLKQMptfkGiQIfB30TUQNmQ
hUGPOJDB3pnmQGVJbkGQ2oPB/veBQekOZUHtd5LB7NCDQfShUkFhU4zBYfD6QOrjg0HbwpXBgbEG
QV/xakHoYInBVfVwQdkkZ0F9ZJjBwPxkQW5bREEH4pHBCip4QYsxQkHU94vBbu0LQf3ed0EjSpLB
Uz9hQb60VkEkOZjBPBx8Qb7fLkFseYXBZb/QQNU+CkFjTm3BakuvQBAl90BDDnXB/KHfQB7aFEED
v57BsvwRQRQlPUEaX6HBL2uyQC5f0kBGEpfBoxRGQWSjZ0HwsqTB+7xBQUCf30AxsIPBEmdFQVtN
10ACuI/BWoYrQYaf80Abq4HBFY9CQcVjAEF1QZbBo3IoQXltDkEkRojBfR8sQSk0CkHsZJTBzIyg
QOHn9ECqZrbB2JSSQGgkHkGFe63BsZ8gQatrdEFfZpjBvQYqQeEqH0FSBpvBYZt0QJoY5UA3NonB
U4zIQPp3A0FCOqXBIrwSQbmwJ0FpbpvBw9yNQHzDwEDlE5DBl+kvQV9dZEGF6KnBm6q0QMutDEFt
sK/Bt50dQTGvY0FkdqHBcFBsQfRIIEEEYYLBtAneQG5/HEHWcHjB62iHQesPKUFvz4HB0qLlQHVS
CEHnS1vB7kZ4QePCEUF8FXnB/oT8QOieJEHtmGrB+g6GQdbDFkEegHjBWnkAQRYEGUFZ4FnB3gJO
QSBbV0GEFZ7BjCabQKUsAEFlL4TB8VUFQVfQF0F62KDBeEioQDGa8UCxk57B7V8cQT9UTkH4p5zB
c8ScQOdZnUAwIYnByf6kQMTp10DeVGrBKLrMQJOYH0FlAJjBSvEHQXs0P0FLw6nBJmTXQH7UxUBH
4ZXBMdNPQfdLeEF+eKbBvXcrQY5FdUGnSrHBfo6sQHWHgEE4+4LBkGG+QGS3i0Hs15LBXbLeQMp7
ZEGHCXrBut2HQZ+ucUEopJLBoSuLQdsGUUHW3IfBIj8BQQS0iEH6rpzBk4oRQf2DXkEwzobBS0du
QVhcdUETHp3B1RNZQc3aN0HejJHBd9VCQboZwUCCrX7B1CVOQZ6j9UCLv4DBOr1VQVkXy0Dr5pDB
5so5QWlXv0CyhZLBKRkfQVdk3ECC7YPBHwAqQU5b+0AOPHLB2NFOQXEFDEGPzJPBHHlEQSVx+UAb
z57BqQ0YQbpfFEGXFofBnfEzQV6OGkE4g4XBQPgfQQGO/UBEM5fBYsm4QKsm3EB19bfBFqGFQJXD
5kD/97HBSO2UQGDzAEG0C77Bse6gQJQTK0GitqjBqPOGQCCoJEF9H7XB605vQIoWF0HIC6nBZL0l
QeHZgUEB8JvBn/wsQQSubkFD1ZLBXEc0Qc17K0HOYpfBa3AvQZP+G0EbP6PBhShMQOMw+UB9X47B
Hx1NQL+x1kD74ILBGp7gQGsT70CJmqfB1QYNQccWKkGfMZPB+l5pQFaStEBYa5XBHQ8wQe3zVEE7
KK7BcpPOQKbvE0HIabTBXHcOQdQ2Z0E5lKXBe7dEQadlSkGcb53BpYSjQBeiDUHN+IfBOSoMQcqL
DkHGZqbBi5eJQDLn+UDMe5/B72wjQT8FTEF0kZXBp1iEQCypkkBStITBhf2nQEeHhUC5rI3BPgm0
QFv2p0AsUoTBIc42QSlkf0HbIrHBF/7vQHtxkkFufqTBWZAKQTnvkUFfGp7B8KnWQK87iUFGAKbB
mFVcQZtTWUFcd8jBKH1oQbB/RkGuScfBy2UQQfs7iEEJJpnBZ2/iQHsIf0HrHKHBQI1PQQzBYEHd
8r/BeLBaQUVLQkFlKrXBSqBnQefiOkFUm73B4aMDQYMHfkHklZrB4LNOQZRpVUHELbbBWx50QbAO
J0EjI7zB3svdQMa0DEFqE3bBX0zQQI6x7UCtvnvBxKXXQFbKEUFpmJvBEGMRQaE0NUGpRaDB36yZ
QK/syUCSFpbBJHY/QcvpVkF8YqPBNoZJQeMe1UBmrIbBL3xDQdJEwkAorpHBd483QYoz8kBXWoLB
kRA+QS8F5kCWwpnBji4yQaD2CkFhZ4rBMN8rQb2EAUENf5XBt4CCQFu5IkFkbqXBe/i5QANUF0FS
DbPBsPEJQRzyaEGWg5XBlWUnQXK0E0EZp53BAwiTQGNAu0B6OILBN2a2QCSSA0GGK6HByLoRQXvR
HkFXaZvBtKl2QKpwvEDdCY3BuOUwQco0ZEHDB5zBYUWcQEaOD0HZ8KnBUWAZQd1EXEH23ZzBQ2Zw
QVE2GEH48bPBPanBQJ8FHkFgSXTBmA6CQRb1IEHYH8LBj4cCQR6oEkFuCXLBIwWAQSktCUFFCrbB
mJzdQKdWLkGh827B2LOFQR43DkF6K77BoykCQaHOJ0HLn23BpuFBQeztXUG39q3B/+SkQC6e5UDM
F3/BjmYAQQ+6EUECuJ/BSnuZQIez9EDzIJnBsUgYQfS1RUHJtpnB7iFSQJ6ykUCUS4/BDx/rQEMp
0UBwMn3Bs+3NQFP0HEFo4JPB4eYLQSwwOEHclqnBMVKyQCzpr0A9IJrBYi5IQRDiRkEDw5/BKXQ4
QSPJYkFjPZHBV/PmQC7lmUGSPKjBdVEUQS/7mEEqAZ3Bwz66QK+giUHg5qrBrs5cQSQXYkGs6M/B
RHRyQVXzQEFCx83BEp4eQXDZh0ExQZTB9UHPQPXfcEGMW6LBglNGQb09b0Eg5sDB+uRZQcdDOUFH
z63BKTlMQajFukAW/4DBbkhYQeAD6EBjfofB1gtRQTWAr0ATwZTBJnk1QSBOrUCuvJDBVikpQfnH
3kAK7YDBU9I8QYthAEENknXBc2tMQaaf+UDwI5vBnPM4QXpi10AVWKHBPrskQQdzFEFuSYfBsUJA
QcJWFUEnZIvBv0gdQeK170DPjJTBmtpaQP8lHUEt9Z7Bob+YQFbTLkH0SKLB3hVeQLHPKUHf2avB
fjbMQF6wCUFHPLbBp42mQBpoHkF9e7nBWULQQL9rI0GS6q/BcO4RQf8bbEFn1Y3BHOz2QHtXX0Hb
HpTBFkc0QUGmH0GdHJ3BSxInQWjhDEE8w6XB5ut4QDOUsUDK1HfBokGtQP7Yo0D0sILBKq/HQPLi
7EBXIaXB384PQTRIIEHcsZLBj49CQC4D1EC1fozBQ2kxQar0dEF3uJ7BMFaFQJkeBEHPYq3BhQQU
QdcPXkGAM6XBzEY5QdvQakEI9a/B4oyQQKgt/kCfx33BposDQVU7CEF+9qXBjFCEQNQVBEHhnpXB
DtocQeTxQUEhSJLBir8qQG9CiUBMWonBd4YxQAKqkkDALJbBgLiAQGGNeEDN4o/B2JNCQUeAV0G/
sJDBD0DuQEKKkkHNoa3B38IGQXNUk0EwiaXB9+fYQAvDiEFPZa/BTgpaQS+WRkF76cXBwKBrQcfx
OkEO8cHBPJ4LQbFdikGsI5/BicXiQE2Of0EEDqnBKBNMQVEeUUE8yr7BLwdhQfALREFEvK/B3hdv
QWSXOUHRzLbBA88AQYKVgEGy1KDB835PQcgVUEG+oLPB16qAQS59LUGrX7LB29DSQIrhCUHiLW3B
ZfWuQOsR+UA4oXTBNwnhQM+NE0GH3J7BrysVQZ37OEFIeqHBapWtQAXI00A71pbBcvNAQc4TXUGq
z6HBpw9AQa/C0ECMP4TB1wBDQWPVx0B4TZDBm8AqQfcj6ED7EoLB8qNBQc2g8UDC1pbBShgpQSza
CEERrIjBJx8sQSliBEF30pTBrH2cQMII90BKKbbB+7aUQCe2H0EmRq3BkzYGQWGebUF6MJrBq3Qr
QRB5GUGJcZvBjdBvQDQJ60BRzIjBZ+DGQBcQA0HsLaXBHc8UQWF0I0ECuJvBmyuIQOAvxUBnsI/B
zTQvQXXoakFryJzBtdGzQFHzDEH7k6/BxfIYQRj5YEFiRp/BZ3CBQWMOJ0G5qafBppziQLmBG0H8
f3jBFRuJQWh3J0HavbfBXtfnQDE4B0G1TVvBdTiLQbbIHEEqqafBBlQBQax3IkGC6GrB86OPQRsO
HUG247DBUtwCQQ/MFkFtKFrB7UJBQZZnW0E/AK3BIhKbQO3XAUEW6oPBeCIGQWvaFEHzJ6HBY3al
QPGG80C/XJ7BMkMYQcP9SkHZLpvB+6uUQH/SoEA5wIjBD42iQC/Q2kAZxGnBm07QQF//HkHpCpjB
JCUTQXsROkHxPavBuYrRQINyxEC+wJXBi+9NQZs4VEGV7pvBN14yQXKcbEE8dJHB1aXmQHBumUEM
fLLB4wQPQavOmkFsPKTBBQDBQK8oiEEjm7XBhj9XQWxyR0F6bc7BVXF2QTkRM0HTaMfBV5oXQbH5
ikHu8ZjB2bnSQB2FcEGJe6rBvqU+QVwNWkFe5MHB06VjQYPeQkExN6fBGh1AQRgwskATxn/B3l9N
QYPQ5EDEa4HBI8FSQc8EuUANm5HBqWA2QZXRsUABAZPB82UdQQvn0kD4O4TBIcgpQe0Z8EAjCHPB
j9xOQW5uA0Eye5TBfQFDQV/96UDsZp/BVjwZQfsIEEHqYYfBT441QTUQFEE1/YXBVwcfQULp80DG
ipfBNJ+yQNZx3EBSybfBK9mAQMUY60BomrHB/2iRQEJkAkEcxr3BHlylQCsULEGAmKjBLqGJQEyb
JkGt4bTBtSJyQG3DGUH5tajB49MKQae9ckG1F5LB2B/wQIsyY0GMtpnBKpQ2QZMMJUFC1pfBkYIw
QQX5FUFssKPBJRRKQGFLAEGZ6Y3BcONGQBZR3kD4YYLBhtPcQJ1l7ECjnqfBt2wPQYP9JUHsb5PB
bp5bQJ7qukDU7JTBJtYvQV3nekGncKDBFXjOQO0jE0FFbLTBm7oWQXLRYEEdAajB5bI1QYhpY0Gc
0LDBqVKlQAjnDkHTwofBRAoMQYFHC0Fg2KbB63WHQI4u/kDOKp/BkCcaQS7XSEHwT5PBnoF3QCgk
mECpOYTBSrudQDEgiEBdTo3BcfqsQOGnqUAYCoTBKW8+QaZQZEFhao/BozHaQFPIkEHhI7bBmdfk
QMAFk0FxaKvBKdnVQIIYhkG5k7nBYyB6QfifYkGvypzBFgaCQc46bkFZCKXBDdjqQHWUikFiFaTB
tBfcQK9Le0E1SLLBaBRkQfDjZEFg55rB5qphQU9NfkGcqanBZ953QdsXfEEai6vB+CvmQBu7f0FC
fafBTZNXQcHmckHjTqHBbSaBQZAUhEH3QLTByiDSQBnZCkHYom3B8kyxQBNU90BOD3XBHTbdQOuH
FUFxGZ/BRQMPQSO/PkFJuqHBeVyzQPaK0kD7F5fBTM0zQTgkbkFQDpjB0alCQZ8q5kB6v4TBpudF
QYsI3kAw0ZDB3T4sQffJ+ED0fILBuTJCQVWrA0FeUZfBwEMoQUzpEEEdDInB9pQrQbfXDEE0NpXB
6sqdQNoz9ECFXLbBOnCOQJeYHUEXY63BMVntQGRmbUG2wp/B044oQaLCIUGrzJvBfph3QPqY40Cs
9YjBiazGQBvEA0E0a6XBjPYQQYM/KUHOBJzBy+6PQBPav0Ck6Y/BcFUcQWCxdUHOPJjB9FuxQMKk
DEFLxa/BaJwOQSbIZkGEeJ/BTGh3QYQLiUGXrLzBfuLdQCdGHUFd6XjBDXiLQYd/hUF1MLXB5srn
QDhFCUGu0lvBOSGEQXNXjUFmbcLBA1/8QGrgJUEyXWvBmC+NQSlWi0F2Gr7BMxABQVJfGkHsrFrB
F4NBQd9idkGy4Z/BlCucQNHc/0D+F4TBwOgDQUE3GUGqdqHBeqWnQBtP8UDIk57BNikQQW7gUEFG
ZJvBXXygQGj3nEDcB4nBaVyoQGLT10DROmrBgEPKQLTrH0GrOJjB39UMQQzLP0EMfKvBj8zYQJQx
x0CZE5bBkXs5QSssYUH+QJHB9B4UQXARdkG+i43BXF3VQEBCl0H2urvBmGboQAM2m0GRzKjBJrzN
QL5ihEG2zMHBgL2BQazpV0E+4pfBtIOKQY2LbEFlZKbB3wPzQE1NjEH03ZvBWivZQADsakHh8bTB
gpZcQTDrW0FNipTB7FBYQfhphEHgq67B7mxEQQ+/x0CxaIDBrdpOQVD0/EAe84HB1lhWQU260kDX
LpLBD4I6QexvxUARfpPBbxYgQSHQ4ECGn4TB5PYqQRA0AEFU13PBjzpOQYCkD0GY/ZTBl9hDQRsO
AEEL5J/BSb4XQdxWFkFIsYfBDHwzQQtjHUH7Y4bB3aYfQRYTAUHc5pfBtKG2QHAv3ED3CrjBybOD
QI9H5UAEyLHB1h+RQKBkAEH08b3B4WqcQEnBKkERtKjB18KBQKLoI0Et97TBla1oQMknFkE8zajB
yGXjQDVpckEws5fBHAbaQNOZX0E0T6LB8mQyQfV0LkFpM5jBHOMtQXTdHkF8D6TBsihNQNUK90C3
Bo7B3/hRQDyg1EA6iILBvz3fQJ1i8EBK6qfBiWULQeQgK0E+uZPBB3VtQAnYskDTH5XBQtobQZfz
gkETqJvBV2jKQO5FFEHforTB/AAVQa95Z0GRqafBVKo6Qe0RgEFGOKXB7W6jQO9/DUHA7IfBqL0K
QcJtEEHqNafBcqSIQMOh+EAfVZ/BDy4SQQriTkG8hJPBlMSIQF2NkUAse4TBRhSsQBt5hUDin43B
8Mq3QDZUqECpV4TBNYgdQdFxbkEl9IjBFXztQPyOkkHpwK3BpHYGQWtdk0FJs6XBh0TYQOjCiEEQ
gq/BTz11QWhaQEEvBLbBA+14QZntSUF7AsDBUnsLQW5likGGV5/BUXLiQE2Mf0EHNKnB+PVkQSUV
SEFlS6/Bo7ZbQYf7YkEip7zBeSNsQTRCW0GdaMPB1MAAQcOXgEHpB6HBagtYQVKjWUFNhrLBie5v
QecwZUGU9M3BTR7TQGv9CUGpQW3B8USvQNo3+UBrp3TBcuPgQAORE0Gu6p7BPQIVQU0IOUG5nqHB
fLGtQIjK00BG15bBuVFBQVFfXUHd1KHBIy5AQeI20UA6W4TB1wxDQSovyEDVaJDB290qQT2M6ECy
KYLBfJxBQUfo8UDR95bByiQpQY0HCUESx4jByBcsQSmCBEFm7ZTBpTqcQBPi9kAlK7bBy2mUQE+l
H0HSS63BZEQGQbSnbUFBZ5rBvl0rQSyRGUFXkZvBzjxwQBUD60CbxojBa7zGQKsMA0HTNqXBz7UU
QTKHI0FY1ZvBUmOIQEopxUA0qo/BEFAvQVvUakEqxpzBRI6zQMjnDEEdm6/BJhUZQS8CYUH4cp/B
m21hQWehckFmMtPBgM/iQFqeG0Hem3jBgpyAQQOcYkE9stPBOjroQBtcB0GlZlvBaIFsQWgqd0G2
gtzB/HEBQZadIkGHDmvBOM9+QdMFbkEyx9zB/QcDQSP2FkGvTFrBAqZHQTOcYkEPPqzBnUebQEng
AUFg64PBlwoGQSbkFEFqPaHBVW2lQL5580A9X57BeCAYQZoMS0EyWZvBugeVQKvcoEC6uIjB2vOi
QCf52kCQwWnB+THQQEgBH0EIF5jBjvUSQQ4XOkEIYqvBrrDRQAyGxEAtx5XBdCtJQYWcTkGdr5zB
dG8yQfb8a0GacZHBdqflQLBzmUGWlLLBuakOQefbmkF0Z6TBizjAQIoliEHgrrXBA/V+QbL9MkFN
fLPB2ciCQYQFREHwGsXBPYcXQdgEi0HPLZnBVnrSQLl8cEGBnqrBnz9iQV6gQEF+nqfBottRQeYt
cEEWRL/B8khAQf+uskAz9H/B6n5NQVJW5UD5j4HB9M1SQUJouUDIupHBp2w2QYQaskC1E5PBCIQd
QZJB00B3S4TBGvApQWaR8EC/NnPBCdZOQWKZA0HHpZTBWOtCQfIv6kBih5/BV0kZQd0zEEHwd4fB
spw1QXhDFEGcIIbB7/0eQfMc9EBOnZfBPmOyQCJS3EBKzLfBIqSAQADs6kD5l7HBEhGRQNFKAkFu
x73BiA6lQBIJLEHjoajBGz+JQEeEJkHV5rTBVaRxQHavGUFgt6jBEtcKQdPOckE5TpLBZU/wQCYu
Y0Gv7pnBbX02QdgrJUH6+5fBQGQwQe4JFkGX0KPB0VNKQLRAAEG+4o3BAHpHQPZI3kBNWILBj7Tc
QNZl7EBfqafBbloPQVkYJkG9jJPBsvxbQBnPukBX4ZTBZPQvQeT/ekHWO6DBGyXOQEUbE0HOd7TB
iw4XQf7qYEHEMKjBOlk/QddlbkFetq/BjHOlQDvvDkGox4fBG+8LQURPC0Hd7abBLGWHQAUQ/kCj
KZ/B4dgZQSjsSEFZd5PBCFl4QGEomEBnLYTB8heeQEQoiEALRo3BrV2tQEjFqUBJB4TBN7U8QYqe
YUGAUo/B

>  <OMEGA_E>  (7) 
yAiZP9YdmD9NqZ0/FkCWP8aFlz/0rZc/

>  <OMEGA_NBR>  (7) 
     24148

$$$$
50169576
     RDKit          3D

 95 97  0  0  1  0  0  0  0  0999 V2000
   14.2533   18.8526  -23.1519 C   0  0  0  0  0  0  0  0  0  0  0  0
   14.1738   19.1141  -21.7683 C   0  0  0  0  0  0  0  0  0  0  0  0
   13.5497   17.7637  -23.7069 C   0  0  0  0  0  0  0  0  0  0  0  0
   15.3281    9.2464  -20.5715 C   0  0  0  0  0  0  0  0  0  0  0  0
   15.7464    8.7655  -19.3155 C   0  0  0  0  0  0  0  0  0  0  0  0
   13.3834   18.2929  -20.9400 C   0  0  0  0  0  0  0  0  0  0  0  0
   12.7591   16.9413  -22.8798 C   0  0  0  0  0  0  0  0  0  0  0  0
   14.5024   10.3848  -20.6543 C   0  0  0  0  0  0  0  0  0  0  0  0
   14.5068   10.5573  -18.2254 C   0  0  0  0  0  0  0  0  0  0  0  0
   15.3367    9.4207  -18.1295 C   0  0  0  0  0  0  0  0  0  0  0  0
   12.6606   17.2159  -21.4973 C   0  0  0  0  0  0  0  0  0  0  0  0
   14.0855   11.0552  -19.4832 C   0  0  0  0  0  0  0  0  0  0  0  0
    4.9896    2.0934  -17.6685 C   0  0  0  0  0  0  0  0  0  0  0  0
   15.7680    8.9310  -16.7906 C   0  0  0  0  0  0  0  0  0  0  0  0
    4.5600    3.2902  -18.4028 C   0  0  0  0  0  0  0  0  0  0  0  0
    9.4065   11.4657  -19.7469 C   0  0  0  0  0  0  0  0  0  0  0  0
    5.2582    6.4418  -18.9981 C   0  0  0  0  0  0  0  0  0  0  0  0
    6.7051    9.2536  -19.5054 C   0  0  0  0  0  0  0  0  0  0  0  0
   12.7487   13.0547  -18.6620 C   0  0  0  0  0  0  0  0  0  0  0  0
    8.7305    8.8629  -16.1183 C   0  0  0  0  0  0  0  0  0  0  0  0
   10.8411    7.6419  -16.7708 C   0  0  0  0  0  0  0  0  0  0  0  0
    4.6318   10.2893  -21.3800 C   0  0  0  0  0  0  0  0  0  0  0  0
    6.5574    9.3682  -22.7421 C   0  0  0  0  0  0  0  0  0  0  0  0
   11.8165   16.3319  -20.6092 C   0  0  0  0  0  0  0  0  0  0  0  0
   12.6638   15.1583  -20.0612 C   0  0  0  0  0  0  0  0  0  0  0  0
   10.0547    9.5583  -18.2169 C   0  0  0  0  0  0  0  0  0  0  0  0
   10.6017   13.6646  -19.8748 C   0  0  0  0  0  0  0  0  0  0  0  0
    3.4436    6.6852  -17.2542 C   0  0  0  0  0  0  0  0  0  0  0  0
    8.8759   10.3439  -18.8470 C   0  0  2  0  0  0  0  0  0  0  0  0
    4.0620    5.7574  -18.3232 C   0  0  2  0  0  0  0  0  0  0  0  0
    6.0275    8.2939  -20.4926 C   0  0  2  0  0  0  0  0  0  0  0  0
    9.5948    8.3772  -17.3085 C   0  0  0  0  0  0  0  0  0  0  0  0
    5.4336    9.0126  -21.7426 C   0  0  0  0  0  0  0  0  0  0  0  0
   11.8432   14.2215  -19.1304 C   0  0  1  0  0  0  0  0  0  0  0  0
    5.3190    2.1033  -16.3093 N   0  0  0  0  0  0  0  0  0  0  0  0
    5.1051    0.8921  -18.1677 N   0  0  0  0  0  0  0  0  0  0  0  0
    5.6267    0.7722  -16.1014 N   0  0  0  0  0  0  0  0  0  0  0  0
    5.5053    0.0762  -17.1684 N   0  0  0  0  0  0  0  0  0  0  0  0
   13.2683   12.1899  -19.6401 N   0  0  0  0  0  0  0  0  0  0  0  0
    4.4526    4.4869  -17.7021 N   0  0  0  0  0  0  0  0  0  0  0  0
   10.0118   12.5480  -19.1337 N   0  0  0  0  0  0  0  0  0  0  0  0
    8.0657    9.4310  -19.6512 N   0  0  0  0  0  0  0  0  0  0  0  0
    4.9858    7.5363  -19.8069 N   0  0  0  0  0  0  0  0  0  0  0  0
   15.3939    9.5341  -15.7457 O   0  0  0  0  0  0  0  0  0  0  0  0
   16.5088    7.9146  -16.7047 O   0  0  0  0  0  0  0  0  0  0  0  0
    4.2988    3.2224  -19.6005 O   0  0  0  0  0  0  0  0  0  0  0  0
    9.2754   11.4193  -20.9682 O   0  0  0  0  0  0  0  0  0  0  0  0
    6.4045    6.0222  -18.8463 O   0  0  0  0  0  0  0  0  0  0  0  0
    6.0666    9.8180  -18.6196 O   0  0  0  0  0  0  0  0  0  0  0  0
   12.9357   12.9020  -17.4595 O   0  0  0  0  0  0  0  0  0  0  0  0
    4.4015    7.0282  -16.2508 O   0  0  0  0  0  0  0  0  0  0  0  0
   11.3928   14.9700  -17.9924 O   0  0  0  0  0  0  0  0  0  0  0  0
   14.8538   19.4869  -23.7871 H   0  0  0  0  0  0  0  0  0  0  0  0
   14.7189   19.9441  -21.3436 H   0  0  0  0  0  0  0  0  0  0  0  0
   13.6168   17.5602  -24.7654 H   0  0  0  0  0  0  0  0  0  0  0  0
   15.6412    8.7413  -21.4732 H   0  0  0  0  0  0  0  0  0  0  0  0
   16.3817    7.8941  -19.2571 H   0  0  0  0  0  0  0  0  0  0  0  0
   13.3304   18.4875  -19.8790 H   0  0  0  0  0  0  0  0  0  0  0  0
   12.2284   16.1011  -23.3026 H   0  0  0  0  0  0  0  0  0  0  0  0
   14.1858   10.7478  -21.6210 H   0  0  0  0  0  0  0  0  0  0  0  0
   14.1865   11.0573  -17.3233 H   0  0  0  0  0  0  0  0  0  0  0  0
    7.8419    9.3872  -16.4997 H   0  0  0  0  0  0  0  0  0  0  0  0
    8.4155    7.9974  -15.5169 H   0  0  0  0  0  0  0  0  0  0  0  0
    9.3205    9.5489  -15.4928 H   0  0  0  0  0  0  0  0  0  0  0  0
   11.4561    7.2962  -17.6148 H   0  0  0  0  0  0  0  0  0  0  0  0
   11.4302    8.3284  -16.1450 H   0  0  0  0  0  0  0  0  0  0  0  0
   10.5251    6.7769  -16.1691 H   0  0  0  0  0  0  0  0  0  0  0  0
    3.8332   10.0317  -20.6686 H   0  0  0  0  0  0  0  0  0  0  0  0
    5.3061   11.0281  -20.9223 H   0  0  0  0  0  0  0  0  0  0  0  0
    4.1872   10.7142  -22.2920 H   0  0  0  0  0  0  0  0  0  0  0  0
    7.1235    8.4600  -22.9965 H   0  0  0  0  0  0  0  0  0  0  0  0
    6.1149    9.7922  -23.6556 H   0  0  0  0  0  0  0  0  0  0  0  0
    7.2338   10.1060  -22.2859 H   0  0  0  0  0  0  0  0  0  0  0  0
   11.4305   16.9254  -19.7674 H   0  0  0  0  0  0  0  0  0  0  0  0
   10.9740   15.9307  -21.1916 H   0  0  0  0  0  0  0  0  0  0  0  0
   13.0434   14.5699  -20.9095 H   0  0  0  0  0  0  0  0  0  0  0  0
   13.5105   15.5692  -19.4918 H   0  0  0  0  0  0  0  0  0  0  0  0
   10.6769    9.1526  -19.0283 H   0  0  0  0  0  0  0  0  0  0  0  0
   10.6523   10.2537  -17.6092 H   0  0  0  0  0  0  0  0  0  0  0  0
    9.8538   14.4645  -19.9783 H   0  0  0  0  0  0  0  0  0  0  0  0
   10.9056   13.3153  -20.8726 H   0  0  0  0  0  0  0  0  0  0  0  0
    3.0881    7.6056  -17.7403 H   0  0  0  0  0  0  0  0  0  0  0  0
    2.5955    6.1701  -16.7794 H   0  0  0  0  0  0  0  0  0  0  0  0
    8.2676   10.7826  -18.0423 H   0  0  0  0  0  0  0  0  0  0  0  0
    3.2983    5.5632  -19.0907 H   0  0  0  0  0  0  0  0  0  0  0  0
    6.7931    7.5906  -20.8519 H   0  0  0  0  0  0  0  0  0  0  0  0
    9.0020    7.6765  -17.9148 H   0  0  0  0  0  0  0  0  0  0  0  0
    4.7469    8.3114  -22.2392 H   0  0  0  0  0  0  0  0  0  0  0  0
   13.0220   12.4130  -20.5833 H   0  0  0  0  0  0  0  0  0  0  0  0
    4.6525    4.4810  -16.7223 H   0  0  0  0  0  0  0  0  0  0  0  0
   10.0483   12.5688  -18.1346 H   0  0  0  0  0  0  0  0  0  0  0  0
    8.5306    8.8971  -20.3574 H   0  0  0  0  0  0  0  0  0  0  0  0
    4.0336    7.8182  -19.9248 H   0  0  0  0  0  0  0  0  0  0  0  0
    3.9966    7.5979  -15.6073 H   0  0  0  0  0  0  0  0  0  0  0  0
   11.7401   14.5801  -17.1987 H   0  0  0  0  0  0  0  0  0  0  0  0
  1  2  2  0
  1  3  1  0
  2  6  1  0
  3  7  2  0
  4  5  2  0
  4  8  1  0
  5 10  1  0
  6 11  2  0
  7 11  1  0
  8 12  2  0
  9 10  2  0
  9 12  1  0
 10 14  1  0
 11 24  1  0
 12 39  1  0
 13 15  1  0
 13 35  1  0
 13 36  2  0
 14 44  1  0
 14 45  2  0
 15 40  1  0
 15 46  2  0
 16 29  1  0
 16 41  1  0
 16 47  2  0
 17 30  1  0
 17 43  1  0
 17 48  2  0
 18 31  1  0
 18 42  1  0
 18 49  2  0
 19 34  1  0
 19 39  1  0
 19 50  2  0
 20 32  1  0
 21 32  1  0
 22 33  1  0
 23 33  1  0
 24 25  1  0
 25 34  1  0
 26 29  1  0
 26 32  1  0
 27 34  1  0
 27 41  1  0
 28 30  1  0
 28 51  1  0
 29 42  1  0
 30 40  1  0
 31 33  1  0
 31 43  1  0
 34 52  1  1
 35 37  1  0
 36 38  1  0
 37 38  2  0
  1 53  1  0
  2 54  1  0
  3 55  1  0
  4 56  1  0
  5 57  1  0
  6 58  1  0
  7 59  1  0
  8 60  1  0
  9 61  1  0
 20 62  1  0
 20 63  1  0
 20 64  1  0
 21 65  1  0
 21 66  1  0
 21 67  1  0
 22 68  1  0
 22 69  1  0
 22 70  1  0
 23 71  1  0
 23 72  1  0
 23 73  1  0
 24 74  1  0
 24 75  1  0
 25 76  1  0
 25 77  1  0
 26 78  1  0
 26 79  1  0
 27 80  1  0
 27 81  1  0
 28 82  1  0
 28 83  1  0
 29 84  1  1
 30 85  1  6
 31 86  1  6
 32 87  1  0
 33 88  1  0
 39 89  1  0
 40 90  1  0
 41 91  1  0
 42 92  1  0
 43 93  1  0
 51 94  1  0
 52 95  1  0
M  CHG  2  35  -1  44  -1
M  END
>  <OMEGA_C>  (8) 
og1kQQjSlkEiN7nB1cdiQavpmEGTJa7BnMtYQRYcjkGvp73BAUB1QXLxE0FhkqTBRPF7QZo/DEE1
hprBOSJWQfZXkkEdhafBTCVMQdGHh0HJCbfB7AloQVEoJkETPKXBuBtoQdTqKEGlzZHBFGN1QUm7
FkFDCZHB/5FKQSq6iUFu+qvBH15hQfvhMEGL3ZvBhKqfQMv5BUADWY3BrUl8QTPlDkEfU4bBJeuR
QDqSUkAJOZPBGIEWQVNzN0GX+Z3Bi0OoQAcjzkAl/JfBkZDWQM4OFEH9CpzB1fpLQfHfUEG4S5XB
JLALQXnODUFP8oDBBHUtQSiK9ECrKobBZzeUQAKhJEFACqvBbdbRQFDkFUHa77XBQxA9QcCngkG9
36TBxJ5KQXeIckFFfaDBKuAgQaPuGEFEvJHBp6ApQRyiWkF//57BpmRcQATt1UCCCIrBoAMOQYGA
JUGTxpbB0PuBQFY8uEDplZLBZeHAQAK0BEHT8KPBQIQZQS0JBkHed4rBO+CtQLQzEEG/8K3BpH09
QTCLY0EMC5nBgDWqQDudBkB7eYLB4VyjQOVdZD93V5HBmw20QJKsRT+lz4DBWSuwQFgFnD3dWInB
JUtUQfgJQ0H0Hp3BG3yOQJeUj0DhnY3BdzAgQaXESEHGEZnBOA0BQZPlFkGnNZ3BxoufQGAp8UBw
dJ7BY012QbuLGEFu7nvB7RGEQUtE/UBJo4XB74+JQPo7TkDCzZzBGmgUQZe1NkHivqfBvfHMQMC1
wEBKxZbBXyHCQJEWHUHw9JTBlfhOQYNuTkENrYvBDdmMQAfn4ECNAYLBF0k2QTSFb0FX8I/BF6lt
QR7lm0EMTL7Bt4BrQXCNn0HDv6rBVd5ZQV17jEGRH8bBM0J6QS3cC0E0yavByw2DQayc/ECfDprB
SElVQVLmk0EmCJ/Bf6dDQQfPgEGta7rB4fhiQR33K0G596zBGvxiQeLqMEETlorBmvD6QA0yFkFR
/4PBy6UGQQPr/0AoRXjBzyAVQUDIGEFV4nfBFUw3QbN66UAk64zB6uE2QQlBBUHyKIHB5WYoQZbc
2EBbWoHB7FN1QP6BIEFkWaXBxMupQPNyMEHnYKfBMP2FQHhtK0EOVrLB7vPjQFdcB0HR+LfB/KzD
QMesHEGgPr3BkHvnQEGyIUF5SbLBheM2QVFnh0GNI57BYZUvQfnjfkF/iKnBr7FQQSceaUGWRqfB
FStYQWQbeUEx75vBv9QqQQ1xEkHqOZjB3m8qQQsPJEGz34zBOqkdQbNuZ0GF05/BMH0uQYcLVUEW
+6bBRKNFQGJh80Am7I3B/xwmQN1xxUAiPIbB/kcEQXSFLEGbVpDBYBdTQP0FskDNuZjBAGHZQNfl
8kDH0KbBBggQQQim9UB5UY/BmeaXQGj7BEHn6bHBNFpQQcqbRkGLqqTBbuGUQDZkj0A9x4XB6sUg
QfEZSUGVE5HBaH0IQXJaDkEC3KLBkBOBQFcu+kAUZp/Blsd/QMkh80Cgt3nBUNc7Qf5HaUHylonB
0CpfQXn3l0Eu+LjB8kVeQUXsmUH63a3B0O5TQeg+j0FGZ73BcG1zQRcOGEFBv5HB48l5QfbYDUF1
O5vBJwlSQU80k0GYMqfB5rBHQTyEiEF8vrbBeBZmQawbKkElIJLBc1FlQSHcJ0E9mqXBFspyQT2c
FUHhRaXBTIFGQdSRikGxpKvBBeZeQRhLMkH0F5zBj9GdQNAgBkAIVY3BcYx5QcuwCkHvTa/BMFOP
QKT+UkCPCZPBUbQTQWRxOEF4uJ3B43CkQI7AzkBAnZfBSajRQGOnFEE+n5vBLGdJQc74UUGzRJXB
hzkKQcoTDkG62IDBH+0rQUnL9UDLeobBivqNQAxFJUEjOqrB2BHLQEgLF0GsebXBo205QUdWg0EU
fqTBllZHQZ7wc0EZT6DBYLkeQQ+7GUHAwZHBIqMmQeC3W0G0rp7BGqNWQMlm1UDIYonBP5gLQTdE
JkFpj5bBKIB9QDdFuECCG5LB8627QN1hBUE3gqPBQcIXQeCeBkHYiIrBPsanQG4FEUE0W63B6546
QSqjZEGR05jB4CGpQGIABkDrgYLBIY+hQEqoZj+6cpHB7nGzQPlXQz9HAYHBryWvQFE8nz1qlYnB
2qBRQRVeREHfMZ3BOvaLQJ6Cj0A5T43BoH8dQeWqSUFAypjBNQ39QF22F0HC95zB7/OaQNP68UAv
8p3BuztzQb+hEUHNPbjByMqCQZEB9UAh0a7BV0yGQKtbT0CxlZzBIz0RQYXyN0FTeafBl1HJQDCa
wUD/mZbBh5S9QBZvHUEZZZTBw7RMQeVBT0FLsYvBBXGKQJJK4EAsd4HBApgzQXFbcEFZm4/BS3do
QT8nnUHWFL7B2fhmQdCSoEHAearB5rVUQXO5jUFH5sXBBtN4QdH8EUHaHorBzAqCQX76/0D23JrB
CXpRQemolEGKr57B3jY/QRPKgUEEILrBFUJhQcPTMUFLyIrBw+FfQabgLUFgO63BoK/3QN1vFkGC
uIPBlHMFQRsWAEFLJHjBG8UTQcMAGUG1unfBTo81QVIt60B0WY3BpHQ1QezUBUG/foHBHSMnQYnU
2UCKs4HBbs1pQOLoIEEHc6TBt5yjQFgZMUHQl6bBSUB+QN8rLEGea7HBEUjdQEKjCEH/q7fBgEi8
QCXuHUFLrrzBE8XgQJ/bIkF+2rHBu2AzQS37h0FEqJ3BRd0rQW8YgEF2EanBVUpNQdW6akEpMafB
OfZUQaKSekER1ZvBoH8oQQh2E0GbXpjBHF8oQRbSJEG46ozB1Y8aQdxzaEGSWZ/BIUwrQW9XVkEz
u6bBK9I+QNTs8kAMJI3B+TEhQDaDxEC5g4XBDQgCQdsOLUHW/4/BJd1LQFUcskCoJ5jByinUQKqa
9EAijqbBBC0OQY/o9kDQXI/BgraRQN7LBUHFS7HBuHhNQSsISEEfs6TBMeySQBAIj0B/gIXBrmAe
QWzKSUFozZDBSdQFQaNgD0H7vKLBTa94QGTD+kAKu57BHGR7QNss8kC1a3jB3l85QZoEakFHVYnB

>  <OMEGA_E>  (8) 
oKGbP1NvkT8=

>  <OMEGA_NBR>  (8) 
     33774

$$$$
50169570
     RDKit          3D

 75 75  0  0  1  0  0  0  0  0999 V2000
   14.8808   10.1600  -18.1450 C   0  0  0  0  0  0  0  0  0  0  0  0
   15.2262    9.3347  -19.2403 C   0  0  0  0  0  0  0  0  0  0  0  0
   13.9994   11.2490  -18.3220 C   0  0  0  0  0  0  0  0  0  0  0  0
   13.8058   10.6694  -20.6825 C   0  0  0  0  0  0  0  0  0  0  0  0
   14.6914    9.5966  -20.5255 C   0  0  0  0  0  0  0  0  0  0  0  0
   13.4641   11.4922  -19.6073 C   0  0  0  0  0  0  0  0  0  0  0  0
   15.0383    8.7743  -21.7093 C   0  0  0  0  0  0  0  0  0  0  0  0
    9.1085   11.8320  -19.9812 C   0  0  0  0  0  0  0  0  0  0  0  0
    5.5991    6.4580  -18.6860 C   0  0  0  0  0  0  0  0  0  0  0  0
    6.8339    9.2318  -19.6152 C   0  0  0  0  0  0  0  0  0  0  0  0
   12.2118   13.6552  -19.3296 C   0  0  0  0  0  0  0  0  0  0  0  0
    9.9366    8.5353  -17.0079 C   0  0  0  0  0  0  0  0  0  0  0  0
   11.7211    7.7399  -18.5962 C   0  0  0  0  0  0  0  0  0  0  0  0
    4.3218    9.9124  -21.1336 C   0  0  0  0  0  0  0  0  0  0  0  0
    6.2049    9.3065  -22.7117 C   0  0  0  0  0  0  0  0  0  0  0  0
   10.3839    9.7878  -19.1954 C   0  0  0  0  0  0  0  0  0  0  0  0
    9.7936   14.2846  -19.7294 C   0  0  0  0  0  0  0  0  0  0  0  0
    4.7092    6.4609  -16.3219 C   0  0  0  0  0  0  0  0  0  0  0  0
    9.0009   10.4645  -19.2818 C   0  0  2  0  0  0  0  0  0  0  0  0
    4.5649    5.8642  -17.7294 C   0  0  2  0  0  0  0  0  0  0  0  0
    6.0831    8.1718  -20.4396 C   0  0  2  0  0  0  0  0  0  0  0  0
   11.2615   14.5050  -20.1719 C   0  0  1  0  0  0  0  0  0  0  0  0
   10.3360    8.4005  -18.4947 C   0  0  0  0  0  0  0  0  0  0  0  0
    5.2665    8.7811  -21.6077 C   0  0  0  0  0  0  0  0  0  0  0  0
    4.7775    4.4133  -17.6246 N   0  0  0  0  0  0  0  0  0  0  0  0
   12.5649   12.4810  -19.9497 N   0  0  0  0  0  0  0  0  0  0  0  0
    9.5442   12.9138  -19.2235 N   0  0  0  0  0  0  0  0  0  0  0  0
    8.1091    9.5708  -20.0232 N   0  0  0  0  0  0  0  0  0  0  0  0
    5.1701    7.4186  -19.5853 N   0  0  0  0  0  0  0  0  0  0  0  0
    4.7094    7.9362  -16.3492 N   0  0  0  0  0  0  0  0  0  0  0  0
   14.7229    9.1748  -22.8649 O   0  0  0  0  0  0  0  0  0  0  0  0
   15.6418    7.6805  -21.5551 O   0  0  0  0  0  0  0  0  0  0  0  0
    8.7869   11.9643  -21.1580 O   0  0  0  0  0  0  0  0  0  0  0  0
    6.7921    6.2006  -18.5494 O   0  0  0  0  0  0  0  0  0  0  0  0
    6.3261    9.7360  -18.6172 O   0  0  0  0  0  0  0  0  0  0  0  0
   12.4854   13.9371  -18.1673 O   0  0  0  0  0  0  0  0  0  0  0  0
   11.6366   15.8781  -20.1044 O   0  0  0  0  0  0  0  0  0  0  0  0
   15.2934    9.9562  -17.1679 H   0  0  0  0  0  0  0  0  0  0  0  0
   15.8996    8.5027  -19.0964 H   0  0  0  0  0  0  0  0  0  0  0  0
   13.7387   11.8853  -17.4892 H   0  0  0  0  0  0  0  0  0  0  0  0
   13.3782   10.8646  -21.6549 H   0  0  0  0  0  0  0  0  0  0  0  0
    8.9459    9.0077  -16.9352 H   0  0  0  0  0  0  0  0  0  0  0  0
    9.9017    7.5376  -16.5459 H   0  0  0  0  0  0  0  0  0  0  0  0
   10.6782    9.1563  -16.4840 H   0  0  0  0  0  0  0  0  0  0  0  0
   12.0055    7.6440  -19.6545 H   0  0  0  0  0  0  0  0  0  0  0  0
   12.4627    8.3610  -18.0723 H   0  0  0  0  0  0  0  0  0  0  0  0
   11.6862    6.7423  -18.1341 H   0  0  0  0  0  0  0  0  0  0  0  0
    3.6561    9.5291  -20.3463 H   0  0  0  0  0  0  0  0  0  0  0  0
    4.9191   10.7457  -20.7349 H   0  0  0  0  0  0  0  0  0  0  0  0
    3.7191   10.2667  -21.9828 H   0  0  0  0  0  0  0  0  0  0  0  0
    6.8721    8.4968  -23.0425 H   0  0  0  0  0  0  0  0  0  0  0  0
    5.6062    9.6595  -23.5644 H   0  0  0  0  0  0  0  0  0  0  0  0
    6.8062   10.1384  -22.3164 H   0  0  0  0  0  0  0  0  0  0  0  0
   10.7728    9.6525  -20.2155 H   0  0  0  0  0  0  0  0  0  0  0  0
   11.0610   10.4440  -18.6289 H   0  0  0  0  0  0  0  0  0  0  0  0
    9.5561   15.0024  -18.9305 H   0  0  0  0  0  0  0  0  0  0  0  0
    9.1358   14.4655  -20.5923 H   0  0  0  0  0  0  0  0  0  0  0  0
    3.8689    6.1164  -15.7013 H   0  0  0  0  0  0  0  0  0  0  0  0
    5.6560    6.1129  -15.8831 H   0  0  0  0  0  0  0  0  0  0  0  0
    8.6156   10.6159  -18.2627 H   0  0  0  0  0  0  0  0  0  0  0  0
    3.5542    6.0727  -18.1101 H   0  0  0  0  0  0  0  0  0  0  0  0
    6.8260    7.4831  -20.8682 H   0  0  0  0  0  0  0  0  0  0  0  0
   11.3449   14.1634  -21.2141 H   0  0  0  0  0  0  0  0  0  0  0  0
    9.5970    7.7678  -19.0081 H   0  0  0  0  0  0  0  0  0  0  0  0
    4.6468    7.9817  -22.0402 H   0  0  0  0  0  0  0  0  0  0  0  0
    4.1026    4.0213  -16.9995 H   0  0  0  0  0  0  0  0  0  0  0  0
    4.6773    3.9958  -18.5277 H   0  0  0  0  0  0  0  0  0  0  0  0
   12.0806   12.3119  -20.8081 H   0  0  0  0  0  0  0  0  0  0  0  0
    9.7035   12.7522  -18.2496 H   0  0  0  0  0  0  0  0  0  0  0  0
    8.4450    9.1805  -20.8805 H   0  0  0  0  0  0  0  0  0  0  0  0
    4.1899    7.6052  -19.6530 H   0  0  0  0  0  0  0  0  0  0  0  0
    4.8048    8.2872  -15.4177 H   0  0  0  0  0  0  0  0  0  0  0  0
    5.4740    8.2591  -16.9069 H   0  0  0  0  0  0  0  0  0  0  0  0
    3.8494    8.2623  -16.7417 H   0  0  0  0  0  0  0  0  0  0  0  0
   12.1870   16.0194  -19.3431 H   0  0  0  0  0  0  0  0  0  0  0  0
  1  2  2  0
  1  3  1  0
  2  5  1  0
  3  6  2  0
  4  5  2  0
  4  6  1  0
  5  7  1  0
  6 26  1  0
  7 31  1  0
  7 32  2  0
  8 19  1  0
  8 27  1  0
  8 33  2  0
  9 20  1  0
  9 29  1  0
  9 34  2  0
 10 21  1  0
 10 28  1  0
 10 35  2  0
 11 22  1  0
 11 26  1  0
 11 36  2  0
 12 23  1  0
 13 23  1  0
 14 24  1  0
 15 24  1  0
 16 19  1  0
 16 23  1  0
 17 22  1  0
 17 27  1  0
 18 20  1  0
 18 30  1  0
 19 28  1  0
 20 25  1  0
 21 24  1  0
 21 29  1  0
 22 37  1  0
  1 38  1  0
  2 39  1  0
  3 40  1  0
  4 41  1  0
 12 42  1  0
 12 43  1  0
 12 44  1  0
 13 45  1  0
 13 46  1  0
 13 47  1  0
 14 48  1  0
 14 49  1  0
 14 50  1  0
 15 51  1  0
 15 52  1  0
 15 53  1  0
 16 54  1  0
 16 55  1  0
 17 56  1  0
 17 57  1  0
 18 58  1  0
 18 59  1  0
 19 60  1  1
 20 61  1  6
 21 62  1  6
 22 63  1  6
 23 64  1  0
 24 65  1  0
 25 66  1  0
 25 67  1  0
 26 68  1  0
 27 69  1  0
 28 70  1  0
 29 71  1  0
 30 72  1  0
 30 73  1  0
 30 74  1  0
 37 75  1  0
M  CHG  2  30   1  31  -1
M  END
>  <OMEGA_C>  (9) 
1hduQUaPIkH0KJHBkp5zQQlbFUEd7JnBcv1fQer7M0Fek5LBbeRcQfK1KkHMdaXBzw9rQZqLGUEx
NKTBwmxXQRrgN0Gn25zBC51wQXxjDEGjrK3BTLwRQQdQPUGX2Z/BuyuzQK+nzkDkfJXB7K7aQGS1
E0Hx65zBV2NDQa17WkEKo5rBZ/weQYuQCEE2EIjBtok7Qamt90ADxZTBIUyKQGOZHkGXEanBoI7G
QDvnFEGasbXBbCQmQdOaHEE5kJnBjrIcQb+NZEHa1Z3BKLKWQLy/zkBRk4LBsgMQQYxuJ0EZQZrB
0xOSQLKnu0DZ1Y3BGqnCQMS/AkE+hKPBLi80QaIUaEH8X6HBPWAlQXxoBkER9ZPB6oaoQI5/DEGn
3KzBpuGYQAA6jUA0/4zB+glJQT2yR0HxmJ/B2LQYQcOeTkGuyZnB274BQcshGUGOL6DBFXGlQDtl
7UDFrpzBGLOWQBL1/UAfy4LBJZFrQffLEkFB67bBz0R6QefG9UDncKzBE5cMQaVtP0GOQ6nB+1jZ
QPZqxkAWZZTBFG/KQNPGG0Hw75TBXcRHQTb+XkGXVpHBii86QZMMfkG51aDBvrF0Qb9MH0HoV4nB
kWR+QesKCEGFxZjBstFbQVQqPkHU6YvBTg1WQYvVLUE6Pa3BeiIPQb0fEEFRe4fBgG0eQWU08UDu
XYTB2NkqQRyAEkFK34PBaBZAQXSb9EBZPJ3BBWdHQXXGBUEIlJDBrfo6QRbB10CsEpHBvPxpQB93
GEE7xaLB62idQG7uK0EW4aXBswVuQJNEJEHd3K/B7ufbQPfyB0H+VrjBXGazQCSNGkHNg7zBbszZ
QP42IkEFiLLBT10sQc9wGkFBuaHBt/kwQasaJ0H4B5XBxuUYQeIJcEGRcZfBTCwSQdhyZ0ERvaTB
T5x3QGq5w0CmOHvB0v20QMacw0AtIX7BfdkJQY3aKUHrGZLBtHdjQK5TwkCJ4ZDB827aQDl170AL
8qbBvIQ1QRadYkGGtqnBfI0ZQXKR+EB9EJjB3bKUQEJq/0A7UrDBk0iDQNyugEDn/ofBPKyVQKK6
f0DAOJTBOEpBQVr9REHpdqbBk0EbQTMJTEEY/5HB7B4HQXHjEkEvC6fB/BOGQGtd80BROZ3B3MCZ
QHuYBEHqrnbByCqvQC0lBEFrQYfB/lt2QDIyBEEA74XBGv5CQa8ngEGbvprB54drQbhPH0HX7ZDB
JTNxQTJPE0HEBZrBfbteQQCxMUG5+pHBIutcQQ7eK0FKPqXBa+RpQfKEGUGKSKTBBatXQbo8OEFv
P5zBjRhwQVBSDUEK/K3B+/UVQW1RN0EmrJ/Buv2wQEb+0UBOQJbBfXvdQBKcE0ECRpvBDiZFQQKQ
WkFpU5fBmeMeQYruAkEOKofBpx87Qbj450DJfJPBg+LCQCnZHEFw67PByxR2QBdFEUHAEq3BUn4o
Qd8rFkFOm5jBIwAhQT7wXUGxd6DBSyuZQHxM1EA+64LBKGETQRrKIkHyIpnB+dqSQPqevkDE143B
ll+/QOuWB0GwsaLBn9wzQWwkakHwTZvBA80lQekmAEFr9JLBBRaoQE6DGEGDwanB4yucQJa/kEB1
cozB5SdLQUxASkGuQZ7BstAbQWweSkFxjJrB/LEDQTM5FUFGbJ7B9YOiQHLT9EDdL5zBCpiTQAeK
AUGcoYPBMW5qQaDcE0HJGrfBR1B7QaZX+UDDEq3BuFYTQXnxNkG4ZqnByGDWQAwHxkBD0JbBp6vP
QPRsHUGLf5PBZDdNQQIUXUFkeY7B3dorQd+cdkGgrpLBqQdxQSRjGkH1HYnBWyt7QXRMBUGQK5nB
MktaQQ/NOkEg+4rBdO5WQT15MEGZA63Bg50PQeWmC0EJ1obBCe4cQe005kB9cYPB6DQrQRsEDEHC
0YLBbvQ/QWUe5ED45JvBCHxHQSEY+kBNKY/BKjU5QddEyEAHyY/BUjjjQDkMIkE3nLHB2A7FQKMc
DkFHs7jByHGzQFF4KUF8r7jB/4BPQFQmDkEa4aXBkXxXQCXqHUFD2rHBsrZ6QHiOAkEO3rHBZkgu
QY5xE0HkzaDBilQ0QcivH0HTKJTBkdUSQcNhaEEBhaDBXk8lQYm7WUGIvKjBkZWBQDhYx0DAfXrB
caq5QG5azUBGBIDB1B4OQWfNJkFV+5DBiAdjQAgCw0B6cZDBM27SQIlo+kDt9qfBgwI7QUigdEEY
Z6HBA3sZQenI7UBFNJfBY22lQG16J0EmLKXBj2eIQGhthEAn9obBpP2XQGCNgUDVaJPB1bpFQZWi
S0EowKXBTo4cQftFSkG8jpLBh3gIQauTDEFmt6TBSF6DQBsh/ED1AZzBNeiXQJoQCEFa0HjBlwmp
QKiSB0H0vojBxhtsQHjXBEEMOobBsQQ0QSfOc0FCbYzBOLltQR5YGkEoHJDBO8hyQd0YD0F8jJnB
nA5hQYv3LEGDkJDBaEpeQTjpKEFc6KPBGhBrQVpfFkG0jaPB6IZZQbV0NEE8lprBN3NwQZEQC0HD
oa3BZ3kSQUriOkG7S5/B/e+uQBP7z0Dw4pfBu7vYQCbcE0FjZZ3BQlZHQUXPVkG7EpXBf+YdQZqT
A0EhV4jBayw6QaCl70DlcpXBP9KLQJENI0HjwqnBMrPIQESdGUEUOrbBlMYlQaXTGUHsCZnBMbEl
QWvuXUEx4J/Bn3x4QE5u3UBaiojBJuQPQa5JJUF0lZnBYeiNQNyeu0C/XZDBHATAQO/GBEFf7KTB
DOc3QbobaEFZT5nBbFgkQWjpAkFaQZTB7F6oQCK8EEFLB67BJg2hQKfyl0C/QYrBZyNNQVG8RkFR
LpzBh4ccQdCTS0HjDJrBZoQBQXGrF0Gf0p/BY4ChQNQK8EBnx57BSv6eQNj28kCKi4LBm3FsQTzL
E0FTg7bBKxp5Qa6/8UC3RK3BPX0NQTvFPEEwvqjBb8LUQPhbxUClf5fBZujHQGKOG0ExZZXBEiRO
QTfTV0Ec5IvBcHMuQYCTc0GttZDBRpVzQV+pFEGjfojB7ZN8QXDiAEGtJZnBUxpdQeV+NUGhUInB
cAxYQRZXLkE/fqvBw0cOQcqEC0HwhIfB0NAcQSNQ5kAgOIXBBgQqQZGGDEHAyYPB37U+QfvC7kDS
8p3B1lBGQenCAEGz6JDBoB05QdTIzkATV5LBYrlpQBqaHEEs7KPBsfqfQPwzL0Hf3qXBMqF0QDJk
KkHLdLDB1eHcQAmADEGHObnBQE63QHbvIEHd8bzBWPjcQEC/JUHxW7LBJlEsQXywGEFGMKHBpJ4w
QYtoI0GfB5TBSR0ZQTztaUG1QqHBdQwsQVtrWEHpmqfBlZlUQIKZ9UAlGo3BVF1NQI2ezUAc0YLB
vqcJQc7NJ0GRc5HB1mJmQDtir0AiNpXBcF/XQG3e80ChqKjBjulAQU0Qc0EHhZ7B00AYQRqK80D0
uZjBSKWTQNkoBUHSKbLBDfuKQH4yi0CKa4XB0aKrQIuWgUDQVI/B4opHQYSQSEGmnqPB0p0dQakv
S0E8EpLBxIAHQWKXEEHeV6bBMDCCQJjX9UAqkJ/Bg2aSQLhNBEGwIHvB/GGvQOo83UBwrHzB66uy
QLbKAEHjr4fBsRY1Qa+Eb0E9LorB8SVsQYrnKEGPEZPBzB1yQWZ+GUFwwJrBuileQTujOUHk3pXB
eZBbQY8eK0GD8afBP9ppQRKNGkFhS6XBBRRWQULAOkF8Z6DBggBwQWijCkFYiq3Be0QTQW/vPUHi
Sp/B4MCzQIRT0EBbfpbBLf7eQPk4FEHkD5zBiwtFQX+dXkHgJKDBxxAiQSg2BkGfa4nB6ys9QYWR
9EDaFJfBs6yhQJzlBUGWg7XB4iqJQI/IIEHYvKfBjkYoQYwsHEHleJrBzKYdQQUkZUH/9ZzBsXKZ
QBUk1UDRV4PBHmoSQcCSJ0HKGZrBKImUQKgMvkAyII7BNe3EQBC6BUGhWKPBmx8xQSciakG5O6TB
XW8nQdtSBUEUfJXB56mvQOffE0E6D6zBLg2eQL6AkEDFKozBG0JHQQPKSUG/p6PBSH4cQf2BTkFA
eZnB2FwDQVL7GUF70Z/Bn0WmQHuf8UBBH53B32GSQIrDAUFKb4TBmJ1pQf3oDEHyDLfBVMd7QYgl
9kCqB6vBrm4KQTxfQUEX5afB0mXZQFkOxUDBaZbB7E7QQHV1G0F7tJPB5v1SQZT+Z0E2DpvBqM80
Qf5QgEHMtKTBN1NyQXLcJ0EtBIvBWQp9Qa/SDEGvlpjBhqdZQVyFRUFgBJDBYcFUQWrJK0Gb4K/B
PoESQaQdDkEzSYjBWVQhQYu060ACMobBuYsuQaFLD0FjMYXBNPpAQSRS80Dnqp/BlahJQXpdA0F7
25LBNXE8QT3Y00Aa3JPBmE69QKCY+UB8hLjBF52IQBRz9UAf37LByw2VQMojEEHj77vBbpaTQDK9
KkHs9qDBUvN4QAMbK0G+Hq7B6xFgQMSwFUH6DaXB6WAtQZXTGkEE3qLBUvszQSnQJUFbAZbBJKoe
QclRb0HAzJXBAfQOQVf4aEERaKHBQ/KBQFATyEAGVHvBzPe5QKOgz0AfRYDBj3INQXpHKUGgs5HB
pwJnQK/JwUAsBZHBoj3bQO2f9UC4aafB1IMtQcUVZEFHTKzBkgAbQegB+EAcnpnB0sfHQEtPH0EZ
9a7BvKSJQEvqhECCuobBBPeaQBwdgECl/pLB/Ng8QeABRUFrPanBhNsiQXfbSkFCXZLBB8cHQdpu
FEFi/abBmQSHQHUj+ECGqp3BP8yVQBXLCEEgmXrBDL2nQH7XB0Eij4nBlJ5pQLVoBEGrMIfBtxRC
QSPxgUEMYKHBrIprQcapFUEZKqPBpj9yQRxtEEG1xZjBrwZeQXBAJ0FKxqTB7dpdQdKTLkEgm5HB
rl9rQX7EHEFI6I/BpkxXQV/bM0GoFJzBagpyQc/nFkHz7YTBY8kSQWIcPEFOyJ7BSWuwQB4Ez0AI
sZfBuWzaQPodE0GhSJ7BcwxEQbudVkHnupjBmMsaQba3BkF61obBqQM5QVHR8kB7W5LBTlqPQBuh
HkGbVazBMU3QQOjUFEEIZLfBuEolQWXCGkHQ7JfBm/cdQV4AY0FXspvBVph1QLdQ4UAsVYnBqZEP
QdD7JUFEm5nBqFKNQNEzvUBrW5DB9JrEQGdjAkFeh6XBWMQ1QSkrZkFD0Z7BrREjQbiJBEHJb5LB
4pGuQMhuDEG5ba/BWhyeQNmomkBGdYnB8fJJQYLPREHOoZ7BIvkYQfXpTEGyK5jBaFMCQd8vGEH+
Z6DBedOkQCaY7ED9a5/BR1KcQGXw9UCFuoLBIjxsQRlCIkHaOHrBRGt9QbuDBkG0eoPBH2wPQTDf
PkG7WqjBcwzWQDjSxEDmb5bBN0zHQB0kG0HusZbBurxHQYMiWUFPKo/Bo7c8QViUe0Fm7pzBt8dw
QbErDEFl5KnBGrd8QZPnAkGhhpfBjLlYQcoqK0HxwqzBJI9YQecdOEH454rB+xgLQQqtDkFR4YbB
LToZQZB27UC0PYPB0iwmQWxLEEEKIoLBee0+QU6w70DZm5rBrmFEQcj9AkHUpY3BCW83QUjb0kB9
wY7BydZuQCl/GEEVqKbBZ1ahQMHGK0FMl6jBLDl+QHCOJEGxjrPBDFbmQK/MB0E5i7nBTzTAQLa8
GkFko77BIG7iQAb1IUH/q7PBZfYsQYKKGEFrxJ/BY2wvQV4GJUHH4ZLBRx4aQUcQbkHWIJXBPPkT
QW7LZkEMsKLBU0xYQGmb+UAJi47BPX5EQI7C00CyA4TBK9EHQdIeKEFVx5HBDtdmQCpmsEANYpXB
P2jdQAug7kAPaqjB1UQ3Qb6QYkHzZafB27gXQWZ+9UDeDJfBfQScQJWh/0DgcbPBsqeGQE+gj0Bd
xITBxzqpQNzcgkAPB47BH4JDQdUQREEf8qXB+ScaQQbRSUEnWJDBGv4IQZcNEkEWAKfBwMCFQDWS
8UB536DBNjGPQFuOBkGYlnzB5bSpQNsb4ECm3HvBerWyQPRBAUGigIfBPyhFQc8FfEFHnZbBerZr
QcHxLEFMQIzBQmlzQRkuGkE0I5HBMLBeQYwYO0GyCZLBCrlgQYaII0Ebk6HBsuxtQYVTFUFH3JvB
Mp9ZQeSHNkHl0JzBDC92QR7SAUE5JqHBrp0WQRzJN0HyWKLBQbWxQJKY0kCzwJXBcXLeQIuvE0Fu
MZzBzghJQT4hWUFDraHBdGIiQb4xA0E/OYrBrCs7QVDv5EA1uJfBtVi6QCrXG0HWG7TBEG1qQF3d
EEFPgqvBAvAoQUE3FUHGX5zBbmUhQfcaX0GJ1qHBB86gQLrO1EAzDYLB5FMUQXWxIkFnEJzBKwmW
QNSev0Bay4zBPQK9QCGAB0FWn6LBsIo2QWccYkEwIqjBVJImQcYv/0BDSJbB5mCjQI8jGEHDUKnB
BmWeQJR1kUAItovBEsZMQaGEQ0GwAqPBUhIfQQB6SUHnFp3BYDUDQfDPFUFvsKDBGD6iQLr+9UDS
RpvBALSWQEdxAUGUSoLBKKVxQSxb/ECR0KrBhf+AQSZZ6kBE/JvBqOsPQdBCOUEYjKvBdWfWQJin
xUDtJ5fBqYHUQNcaHUEk8JPBwBVUQb6yZEG0+JvBtEY6QU8teEH6W6rBu9RvQdZzMEGlC4TB05F9
QZ5oD0HGrozBhZFYQeZlSUHBRo7BWgpcQQHEH0HcrKnBAqUTQU+WDEHaMInB5ZggQQ1F50CANYbB
C/AvQYrrC0G9sIbB+Cc+QYfN30DuS6DBfLhIQfRj9kBHL5TBVWE5Qe7RxUAKtJPBOHDbQCkOIUEr
oLLBI6C6QLvYDEFpt7jB3FCpQMVAKEE5q7jBYyZJQD0vDkHs3qPB6rZIQBROHUE9F7DBd1VrQAnm
AUFsI7DBfvUsQS/SEUGAxaTBzvQ1QYh3HkEurZjBcOUgQRX7akEUWZvBV+wTQQHaYUHFVKfBbQKO
QBVqxUD5XXfBLCHDQN+q0EAUZoDBb40QQZB8JkFIrpPBMSRoQJYaxUB3p47Ben3NQCBB+UCCLqjB
ME41QcoYWUGbqq/BQA4ZQaVR7UBEuJnB8omiQHRXJ0H24qTB4jGMQAV2hUC52oXBPGmXQEG6gkBO
mJLBklRFQXx9PEGlKKnBHPQjQZZ3R0GaiZXBGCsGQZIRDkEZiKfBQMKDQP26/kALNJrBSvadQFQA
CEF/cnbBgMqnQPeICEEQDYjBAQBvQIRrA0G1w4PBWwJGQSgdfUG0NKbBG1RlQVfxE0GBKbDB0tRv
Qc0eCkFUhafBFvhYQb5oJkGpea7Bkz5hQfMVJUEAcpvBOuJtQZOpEkHLFJ3BRfpWQa5GL0EmK6TB
4ll5QaO+CEH58pPBno4VQfoGOEEAb5/Bu0SwQHhC0EDsVJbBumfcQMPGEkFiipvBpfZHQSV6T0Ei
kZrBNqQdQVhpBEGoqobB0g06QaGX6UB4qJLBr4rEQAdmGkF0f7TB/i94QGbPDkHAEq7Bm3knQZ+e
FkHKXJjBokIjQfUVXkFnWJ/B9feVQPyk1EAPRIPB918SQVY8I0FZKJnBJcORQNoSvUCQ/I3BYVW/
QHQmBkESBKPBh546QbXKY0E0WpzBLrEkQfj2AEGjZJLB1YmoQN+BFkFgfKrBaKucQE3qj0AZCozB
/itLQaY8QkGuY6PBeuwbQbFUSkEK9JnBDQEDQZPDFUEFxp7BLuuhQCY98kBEk5zBqX6JQI71AEEh
VITBtNF3QfDGEEEWuIrBgXGCQcUG8UDqg5XBm0ATQe0qOEGzL6nBUdvVQM/KxECoopbBCfXNQJyU
G0F2iZPBKCROQf0aS0EbhJHBH7k6QWWMcEFp6JLBYcJmQZlKDUGyGrjBQm15QeT+90Dx2ajBJutQ
QSjgLUGVJbXBLGJfQcN4K0GYeJPBDFoOQWMfDUHmgYbBkakbQQOa6UCSuYLBcuUpQQPDDUFla4LB
iAU/QZS+5EBJA5vBaFVGQfxD/EDha47Bhxk4QflXykANuo7BE3TkQAnrH0E8A7LBAKPHQIZmC0GI
CbnBc3O1QOSkJkG3kbnBu9JPQJL+C0GMAKfBtl1aQKMVG0ESKbPB0Lx+QIuu/0DjoLLBKl8tQSdk
E0HGfqDBOkMzQWxjIEFwBZTBZcMYQatja0EQ+JzBMUMiQWDCW0HHDajBmRqBQGAlxUChqXrBf2i3
QN/l0kB7jYDB8JcMQXr9JkGKD5HBlkJhQJ3Bv0Cw4ZDB1EHTQNUy90Dx/qfB6a9BQUHPbEFDCKPB
63EYQU/f7kCwi5bBJPakQF23JUEGJqbBXaaIQA2xg0AFmYbBpBCaQJDnfkBZ3pLB1wBEQU33RkGr
I6rB+oQbQRwfSkHe9JHBwOYHQcg5DkE6ZKXBfqqCQBwa+UByrZzBxoKMQCpECEHdgHrBkm+cQB4d
CEGAsYnB9yJWQOXcAUHNw4bBrBpCQT0uaUECYY3BDsNqQepUE0El9qHBm5BzQYbAE0GHm5fBo7Nc
QeKiI0G3OqXBPe1eQbzWM0EpkpPBH/1tQXxbJEGRbpDBhvpWQeIoNEE3G57BgxB5QfLaJkGRDobB
hkYUQV6MO0EOUJ/BnnayQGG+0ECld5bBOiTfQBxtE0HwU5zBLM9EQZIsWEGSjp3BJ/4dQbOhBkHc
EofBueE7QeWR8kAC2pLBelmrQDJ3A0FNubbBxpiMQGC7HkF+7KnBNQMoQa62GkE5PZjBlyseQXbi
YkH9GZ7B/sGPQEa52kCPXITBfFESQTQsJkGvUZnB0KiQQH+Yv0BemY7BIz7HQGl0BEFHx6PB7Ds0
QRwzZUEKmKPBjvolQapxBEFquZLBmf60QGj+EUEII63B/DybQNtxk0DHYIvBpqNJQRw+REF5/KHB
TLsaQRZXTUECh5nBb0gEQWjvF0F5Mp/B09qmQDgw8EBZ2Z3BZrSDQBSjA0HYwYbB/8Z2QYTyN0Ha
zIDB0/yCQb6uGEHi94LBMRoPQfwTPUEqwqjBUBDYQOAKxkDWcpXBcJHNQLQeHEH2sZTB0+1KQeRs
XkHlw5TB8sU6QSQSe0H25aPBOMtuQaaCBkFRZKfBsZV+QaVlB0HEIZXB2z9WQZV/I0GAPq3B7WlZ
QS6SP0GX243BPFAOQS6gDkGyBIfB63kcQZ5K7UCheIPBKoIpQZ0tEEHAb4LBfIFBQUuF70DBJ5vB
nm1HQVfRAkH9OY7BXmU6QRKS0kDeQo/BaFzIQDkH9UBi6rjBeMGRQGNU8EDblbTBFAChQLNLDUGl
jL3BCwCUQFQRKUG3C6PBqSKCQIKpKEHIs7DBG8hlQAGIE0H/vKfBTtQuQWR0GEH1RaDBfMsyQQXM
JEGlcpPBpg8dQYm+bkGFn5fBtJgRQcwDZkGLDqTBkqJwQAICzUDAhn3BxrSvQJZa2kAqq4DBd9IL
QbYxKUH8R5HBIPRhQGOFwEA1bZLBrpbeQIhk8kB6MqfBcvEyQZngXkH3x6vBxXkaQYFe9UDeQZfB
sr3NQLiHHUGGkK/BgxOFQMKsiEAXRobBwOmbQCGngEDi2ZHB1XpCQe4LQUG79ajBfj8dQaB2S0HQ
rpHBnxMKQaPuEEHzx6XBOtSHQJUS9kCHJJ/BZ1SDQJsmDEEL+H/B4/mYQMD5CUEJ04vB4z5NQMPo
A0GXF4rBQuFEQY6nfUHiXp7Bqcp0QYkUEkHAAJPBLiJ9QfLFCkEGx5zBDN9mQbW1I0F4vZLBmHZp
QRjPJkEdJ6bBWYZ3QeQFFUFoeabBQiVhQZ9hLkFYV5zB3zGAQVs5DUFZ0rDBfvQbQaO3MEGOTZrB
XE+rQFl6x0CmXZ7BfJfUQNHUEkEf25zB/JtIQazBSkGXipTB2DYqQb5/DEFodXfB5ToTQZygLUGQ
9XnBhluiQNtqCUFxJrnBjLSLQJA4JEFJEqvBa9oUQfLsEkGnmIzBjwkoQT8WVkEAQ5/BGE+SQMhL
jEB0vJHBqxkLQZMUI0FuppTB8JuFQLirq0DzsprBKo3CQFWXBkHWeKbBZBg6QSqoXUHUs5fBe2wh
QWDUHUGOW4PBPBexQDcmFkG0MK/BeJ5rQIh7k0AvDaTBdqtTQbBhQEGFy5zBJ5IZQYLVRkEE+pnB
rL3/QDWMF0HDE53BCryhQPr17kAq4KLBiEKfQPH+o0Aj/4fBkB57QaNBFkHvdLnB4paGQakx+0Az
57DBej8qQTsYKEGqfJ/BaFbQQBhuukB/vp3BFMC9QC0HGEHrSJXBNDpKQf+/RUEuF4vBre8wQc2T
Z0GXc47BYRt5QcsYCkF9povBHPKDQUCB+kB65JzBc31gQZosKUGiMIvBugllQZGxLkEChK3BvUw0
QR5FAUFzQYDB/84zQfwfFEHB02rBjsscQXnBA0FrKXDBZPYMQWj6OUHXaILBj9AFQffgJEF4qXLB
ANQcQXo/NUHOU23B7Oa8QIDg/kAcEbzB1CGHQCxD/kCv/bbBq42YQDGiFEEpeb/BlzSWQIFDLUEr
/qPBZuWBQG9xL0EzZLHBH/NgQNPwGUG56KjB/MkHQW9rCUEtG4nB1dYfQTNKCEEo9JDBproeQX8W
ZEE13aHBmkEvQXhLTkE/R6bBzqptQJlKb0BE1o/BMjqtQOPjcECnepTBa+H/QOyjLUGNW5DB4yBY
QL+0wEDospfBk/vcQFz3+kAyFarBIehDQc5kaUHMDZzBYfguQU21JkEFzYbBF1/LQKfNIEFLnrHB
3VE6QA0UgUAc2aHBuodYQIzyp0BLuKnBh7FRQZSzRkHnE6TBLC8NQWTDTEEM35XBJVQIQV+9EkGf
baPBCvqCQA8k90DbtKPBBmWnQDM3j0BOQ4LBzkm4QFLBtkCjr4nB59aGQEcHtkBJd4XBp4A1QQg3
YEH0NIjB

>  <OMEGA_E>  (9) 
IBhhP+RKZj8YN1c/0MJ6P/ARhj/EKIo/9j6KP6wJiz/KEqU/

>  <OMEGA_NBR>  (9) 
     47719

$$$$
50169569
     RDKit          3D

 76 77  0  0  1  0  0  0  0  0999 V2000
   11.5277   10.7589  -14.8025 C   0  0  0  0  0  0  0  0  0  0  0  0
   12.5457    9.7929  -14.8598 C   0  0  0  0  0  0  0  0  0  0  0  0
   10.1788   10.3740  -14.8722 C   0  0  0  0  0  0  0  0  0  0  0  0
   10.8601    8.0384  -15.0497 C   0  0  0  0  0  0  0  0  0  0  0  0
   12.2235    8.4206  -14.9841 C   0  0  0  0  0  0  0  0  0  0  0  0
    9.8295    9.0043  -14.9973 C   0  0  0  0  0  0  0  0  0  0  0  0
   13.0930   16.8187  -20.9606 C   0  0  0  0  0  0  0  0  0  0  0  0
   13.3042    7.3985  -15.0452 C   0  0  0  0  0  0  0  0  0  0  0  0
   12.1588   15.9473  -20.2384 C   0  0  0  0  0  0  0  0  0  0  0  0
    6.5324    8.0800  -18.8319 C   0  0  0  0  0  0  0  0  0  0  0  0
   11.3904   12.7839  -19.8045 C   0  0  0  0  0  0  0  0  0  0  0  0
    8.5932   10.4039  -19.5777 C   0  0  0  0  0  0  0  0  0  0  0  0
    7.3033    9.2425  -15.0921 C   0  0  0  0  0  0  0  0  0  0  0  0
    4.2793    8.2290  -20.8984 C   0  0  0  0  0  0  0  0  0  0  0  0
    5.7533    9.6751  -22.3449 C   0  0  0  0  0  0  0  0  0  0  0  0
   12.3294    9.6208  -20.4820 C   0  0  0  0  0  0  0  0  0  0  0  0
   11.0206    8.9254  -18.4322 C   0  0  0  0  0  0  0  0  0  0  0  0
    5.9346    7.5679  -16.4293 C   0  0  0  0  0  0  0  0  0  0  0  0
   12.6650   13.2623  -17.6713 C   0  0  0  0  0  0  0  0  0  0  0  0
    6.4789    9.1177  -19.9657 C   0  0  2  0  0  0  0  0  0  0  0  0
   11.8588   13.8800  -18.8368 C   0  0  1  0  0  0  0  0  0  0  0  0
   10.0307   10.6748  -20.0471 C   0  0  2  0  0  0  0  0  0  0  0  0
    5.9965    8.4211  -15.1395 C   0  0  2  0  0  0  0  0  0  0  0  0
    5.7452    8.5943  -21.2322 C   0  0  0  0  0  0  0  0  0  0  0  0
   10.9125    9.3931  -19.9036 C   0  0  0  0  0  0  0  0  0  0  0  0
   14.4743   16.6027  -20.9932 N   0  0  0  0  0  0  0  0  0  0  0  0
   12.7708   17.8845  -21.6428 N   0  0  0  0  0  0  0  0  0  0  0  0
   14.8911   17.6703  -21.7650 N   0  0  0  0  0  0  0  0  0  0  0  0
   13.9134   18.4064  -22.1391 N   0  0  0  0  0  0  0  0  0  0  0  0
    8.5074    8.5281  -15.0641 N   0  0  0  0  0  0  0  0  0  0  0  0
   12.6839   14.8766  -19.5243 N   0  0  0  0  0  0  0  0  0  0  0  0
    5.9605    8.4324  -17.6163 N   0  0  0  0  0  0  0  0  0  0  0  0
    7.8497    9.4913  -20.3074 N   0  0  0  0  0  0  0  0  0  0  0  0
   10.5727   11.7999  -19.2816 N   0  0  0  0  0  0  0  0  0  0  0  0
   13.0102    6.1773  -15.1653 O   0  0  0  0  0  0  0  0  0  0  0  0
   14.5115    7.7594  -14.9761 O   0  0  0  0  0  0  0  0  0  0  0  0
   10.9507   16.1615  -20.2800 O   0  0  0  0  0  0  0  0  0  0  0  0
    7.0723    6.9899  -19.0017 O   0  0  0  0  0  0  0  0  0  0  0  0
   11.7176   12.7874  -20.9892 O   0  0  0  0  0  0  0  0  0  0  0  0
    8.1170   10.9808  -18.6010 O   0  0  0  0  0  0  0  0  0  0  0  0
    7.2455   10.4672  -15.0502 O   0  0  0  0  0  0  0  0  0  0  0  0
   13.7947   12.5324  -18.1540 O   0  0  0  0  0  0  0  0  0  0  0  0
    4.8503    9.2773  -15.0756 O   0  0  0  0  0  0  0  0  0  0  0  0
   11.7836   11.8036  -14.7043 H   0  0  0  0  0  0  0  0  0  0  0  0
   13.5801   10.0991  -14.8087 H   0  0  0  0  0  0  0  0  0  0  0  0
    9.4033   11.1245  -14.8304 H   0  0  0  0  0  0  0  0  0  0  0  0
   10.6048    6.9930  -15.1410 H   0  0  0  0  0  0  0  0  0  0  0  0
    4.2624    7.4625  -20.1096 H   0  0  0  0  0  0  0  0  0  0  0  0
    3.7483    9.1266  -20.5487 H   0  0  0  0  0  0  0  0  0  0  0  0
    3.7846    7.8382  -21.7998 H   0  0  0  0  0  0  0  0  0  0  0  0
    6.7919    9.9421  -22.5899 H   0  0  0  0  0  0  0  0  0  0  0  0
    5.2548    9.2806  -23.2427 H   0  0  0  0  0  0  0  0  0  0  0  0
    5.2186   10.5690  -21.9916 H   0  0  0  0  0  0  0  0  0  0  0  0
   12.2502    9.9532  -21.5276 H   0  0  0  0  0  0  0  0  0  0  0  0
   12.8472   10.3906  -19.8910 H   0  0  0  0  0  0  0  0  0  0  0  0
   12.8986    8.6805  -20.4384 H   0  0  0  0  0  0  0  0  0  0  0  0
   10.0123    8.7641  -18.0231 H   0  0  0  0  0  0  0  0  0  0  0  0
   11.5890    7.9847  -18.3874 H   0  0  0  0  0  0  0  0  0  0  0  0
   11.5377    9.6948  -17.8400 H   0  0  0  0  0  0  0  0  0  0  0  0
    6.7994    6.8887  -16.4565 H   0  0  0  0  0  0  0  0  0  0  0  0
    5.0056    6.9788  -16.4300 H   0  0  0  0  0  0  0  0  0  0  0  0
   13.0147   14.0687  -17.0099 H   0  0  0  0  0  0  0  0  0  0  0  0
   12.0127   12.5809  -17.1053 H   0  0  0  0  0  0  0  0  0  0  0  0
    5.9401   10.0039  -19.5991 H   0  0  0  0  0  0  0  0  0  0  0  0
   10.9699   14.3730  -18.4164 H   0  0  0  0  0  0  0  0  0  0  0  0
    9.9990   10.9457  -21.1127 H   0  0  0  0  0  0  0  0  0  0  0  0
    5.9926    7.7367  -14.2783 H   0  0  0  0  0  0  0  0  0  0  0  0
    6.2640    7.6970  -21.6006 H   0  0  0  0  0  0  0  0  0  0  0  0
   10.4343    8.5888  -20.4819 H   0  0  0  0  0  0  0  0  0  0  0  0
    8.4137    7.5331  -15.0962 H   0  0  0  0  0  0  0  0  0  0  0  0
   13.6782   14.7815  -19.4771 H   0  0  0  0  0  0  0  0  0  0  0  0
    5.5378    9.3358  -17.5444 H   0  0  0  0  0  0  0  0  0  0  0  0
    8.2721    9.0667  -21.1083 H   0  0  0  0  0  0  0  0  0  0  0  0
   10.3343   11.8603  -18.3123 H   0  0  0  0  0  0  0  0  0  0  0  0
   14.2717   12.1641  -17.4196 H   0  0  0  0  0  0  0  0  0  0  0  0
    5.1332   10.1831  -15.0318 H   0  0  0  0  0  0  0  0  0  0  0  0
  1  2  2  0
  1  3  1  0
  2  5  1  0
  3  6  2  0
  4  5  2  0
  4  6  1  0
  5  8  1  0
  6 30  1  0
  7  9  1  0
  7 26  1  0
  7 27  2  0
  8 35  1  0
  8 36  2  0
  9 31  1  0
  9 37  2  0
 10 20  1  0
 10 32  1  0
 10 38  2  0
 11 21  1  0
 11 34  1  0
 11 39  2  0
 12 22  1  0
 12 33  1  0
 12 40  2  0
 13 23  1  0
 13 30  1  0
 13 41  2  0
 14 24  1  0
 15 24  1  0
 16 25  1  0
 17 25  1  0
 18 23  1  0
 18 32  1  0
 19 21  1  0
 19 42  1  0
 20 24  1  0
 20 33  1  0
 21 31  1  0
 22 25  1  0
 22 34  1  0
 23 43  1  0
 26 28  1  0
 27 29  1  0
 28 29  2  0
  1 44  1  0
  2 45  1  0
  3 46  1  0
  4 47  1  0
 14 48  1  0
 14 49  1  0
 14 50  1  0
 15 51  1  0
 15 52  1  0
 15 53  1  0
 16 54  1  0
 16 55  1  0
 16 56  1  0
 17 57  1  0
 17 58  1  0
 17 59  1  0
 18 60  1  0
 18 61  1  0
 19 62  1  0
 19 63  1  0
 20 64  1  1
 21 65  1  1
 22 66  1  6
 23 67  1  1
 24 68  1  0
 25 69  1  0
 30 70  1  0
 31 71  1  0
 32 72  1  0
 33 73  1  0
 34 74  1  0
 42 75  1  0
 43 76  1  0
M  CHG  2  26  -1  35  -1
M  END
>  <OMEGA_C>  (10) 
bHE4QZQkLEEO12zBHbtIQaSvHEHTwW3BfNwiQRD8JUGK9G3B38ItQWudAEFfy3DBXJNDQcK6BkEO
v2/BeUUdQZcREEH+9G/BxXxRQcOMhkFkr6fB3t1UQejA7ED8uHDBS4pCQU0of0FG6KHBNQnRQNxH
AUHEp5bBOj82QdGKTEG3b57BpH0JQTl2JkEvn5zBibTpQGvhE0EVeXHB1e+IQOCpA0HrL6fBTxu4
QBHNGkFwwrLBakVFQfvuGUEe26PBWlQwQULODkENdZPBDui9QBgs8kAvb4PBsaNKQWIyVEG+Xo3B
+VLPQCXiEUGzuZ/Bpr09QUgUXkHXsZbBrX0gQd7LKkFsYKDBTuO/QMi8BkEzO3LB0di3QGWCCUGL
26nBaJkuQU1KFkGdOp/B8JZnQT3ShEEd8qfBAVVMQYsTj0F4JK3B/UFuQchcjUHNHq7BS51eQTtA
k0HiHLHBaR4IQUdzCEFiBnHBJ/FKQaUGbkGvMZzBVLy+QAnrBkE77ozByDD7QDvcF0GodaLBxikp
QT7MPEGqQJrBqClQQa6sxUAMpXLBOy9oQVpN+EAEnm/B+zUvQblKgUFkPaLB+E/iQIyt30CHA5jB
PHs7QSiZTEHh6afBNt8BQSqxL0HxzpTBANvnQKt5J0GzzXDB/7ZcQcqESEFuO5HB/TWbQNdvFEF7
NXHBy4k8QV3bPEHBRGvBEEhZQf2VIUGH8GzB4XMWQfL9MUEqSW3BPa0pQczG30BrQXLBZWWIQPPM
7kBi4KDBcORvQLEGEkG9Y6TBLTZyQHzS+kADZq7BiVfZQOUSH0EPuLTBtCeoQFN9FEH58LnB1v6m
QMYaKUGz7q/B7ABEQTNAH0GCOKzBS45NQQJAJkGsIJ/BsGBOQYjjCkHHgaPBYzIgQdQ5DEFAL5DB
uGw5QYeC/0BvGZPBU5o4Qb4dG0FUuI7B35TZQCpw3ED3poPByS2gQJdS30C3cIPBSDxQQX8ZYUFY
FIjBGjRAQW9LSUGv14jBVRW+QAUQIEH4ypzB14QvQdv3ZUGzVJPBAvwfQbUhL0HY5qjBS8O/QLuS
90ADdGTBkXLIQAdO9kAEzqzBzPImQaZrCUHW2qPBkZ4GQd4O8UA6inHBAdpaQfOAbEEx0ZvBbDWx
QGFfFUH5WozBbVoEQT4REUHK3ajBVFklQcDDPUGQf5LBvlhkQSigQkFoW4vBj0OkQCnuIkESgnDB

>  <OMEGA_E>  (10) 
X2+4Pw==

>  <OMEGA_NBR>  (10) 
     56452

$$$$
50169577
     RDKit          3D

 81 82  0  0  1  0  0  0  0  0999 V2000
   15.3486    9.0873  -21.9414 C   0  0  0  0  0  0  0  0  0  0  0  0
   15.9811    8.5466  -20.8055 C   0  0  0  0  0  0  0  0  0  0  0  0
   14.4877   10.1941  -21.8111 C   0  0  0  0  0  0  0  0  0  0  0  0
   14.8802   10.2130  -19.4072 C   0  0  0  0  0  0  0  0  0  0  0  0
   15.7497    9.1074  -19.5261 C   0  0  0  0  0  0  0  0  0  0  0  0
   14.2492   10.7727  -20.5449 C   0  0  0  0  0  0  0  0  0  0  0  0
    6.9755    8.5997  -15.1638 C   0  0  0  0  0  0  0  0  0  0  0  0
   16.4137    8.5538  -18.3137 C   0  0  0  0  0  0  0  0  0  0  0  0
    6.8697    7.2556  -15.7549 C   0  0  0  0  0  0  0  0  0  0  0  0
   10.0837   10.9321  -19.3204 C   0  0  0  0  0  0  0  0  0  0  0  0
    6.9632    9.5006  -19.1342 C   0  0  0  0  0  0  0  0  0  0  0  0
    5.5863    6.3388  -19.0516 C   0  0  0  0  0  0  0  0  0  0  0  0
   12.9486   12.6229  -19.3858 C   0  0  0  0  0  0  0  0  0  0  0  0
   11.9475    8.9807  -15.6726 C   0  0  0  0  0  0  0  0  0  0  0  0
   10.6550   11.1374  -15.7091 C   0  0  0  0  0  0  0  0  0  0  0  0
    6.1566   10.2547  -21.9853 C   0  0  0  0  0  0  0  0  0  0  0  0
    4.5006    8.3542  -21.9699 C   0  0  0  0  0  0  0  0  0  0  0  0
   10.1282    9.2260  -17.4067 C   0  0  0  0  0  0  0  0  0  0  0  0
    5.3471    5.4561  -16.6919 C   0  0  0  0  0  0  0  0  0  0  0  0
   10.6462   13.2123  -20.2701 C   0  0  0  0  0  0  0  0  0  0  0  0
    9.2564   10.1382  -18.3050 C   0  0  2  0  0  0  0  0  0  0  0  0
    6.1721    8.5761  -20.0633 C   0  0  2  0  0  0  0  0  0  0  0  0
    4.6805    5.5738  -18.0762 C   0  0  2  0  0  0  0  0  0  0  0  0
   11.9529   13.7649  -19.6548 C   0  0  1  0  0  0  0  0  0  0  0  0
   11.2098    9.9851  -16.5841 C   0  0  0  0  0  0  0  0  0  0  0  0
    5.2844    9.3505  -21.0784 C   0  0  0  0  0  0  0  0  0  0  0  0
    5.8998    9.4860  -15.0545 N   0  0  0  0  0  0  0  0  0  0  0  0
    8.0570    9.1232  -14.6548 N   0  0  0  0  0  0  0  0  0  0  0  0
    6.5058   10.5715  -14.4503 N   0  0  0  0  0  0  0  0  0  0  0  0
    7.7431   10.3606  -14.2160 N   0  0  0  0  0  0  0  0  0  0  0  0
   13.3953   11.8890  -20.4951 N   0  0  0  0  0  0  0  0  0  0  0  0
    5.6092    6.7906  -16.1256 N   0  0  0  0  0  0  0  0  0  0  0  0
    9.9367   12.3153  -19.3438 N   0  0  0  0  0  0  0  0  0  0  0  0
    8.3331    9.3000  -19.0660 N   0  0  0  0  0  0  0  0  0  0  0  0
    5.3540    7.6999  -19.2157 N   0  0  0  0  0  0  0  0  0  0  0  0
    4.3934    4.2189  -18.5964 N   0  0  0  0  0  0  0  0  0  0  0  0
   16.1848    9.0620  -17.1803 O   0  0  0  0  0  0  0  0  0  0  0  0
   17.2069    7.5800  -18.4240 O   0  0  0  0  0  0  0  0  0  0  0  0
    7.8730    6.5606  -15.8839 O   0  0  0  0  0  0  0  0  0  0  0  0
   10.8125   10.3433  -20.1145 O   0  0  0  0  0  0  0  0  0  0  0  0
    6.3956   10.3641  -18.4699 O   0  0  0  0  0  0  0  0  0  0  0  0
    6.5159    5.7691  -19.6173 O   0  0  0  0  0  0  0  0  0  0  0  0
   13.3257   12.4179  -18.2370 O   0  0  0  0  0  0  0  0  0  0  0  0
   11.6521   14.4791  -18.4509 O   0  0  0  0  0  0  0  0  0  0  0  0
   15.5240    8.6524  -22.9143 H   0  0  0  0  0  0  0  0  0  0  0  0
   16.6451    7.7013  -20.9105 H   0  0  0  0  0  0  0  0  0  0  0  0
   14.0058   10.6039  -22.6865 H   0  0  0  0  0  0  0  0  0  0  0  0
   14.6929   10.6390  -18.4326 H   0  0  0  0  0  0  0  0  0  0  0  0
   12.3469    8.1565  -16.2820 H   0  0  0  0  0  0  0  0  0  0  0  0
   12.7755    9.4913  -15.1591 H   0  0  0  0  0  0  0  0  0  0  0  0
   11.2459    8.5786  -14.9270 H   0  0  0  0  0  0  0  0  0  0  0  0
   10.1264   11.8611  -16.3469 H   0  0  0  0  0  0  0  0  0  0  0  0
    9.9576   10.7282  -14.9633 H   0  0  0  0  0  0  0  0  0  0  0  0
   11.4872   11.6410  -15.1954 H   0  0  0  0  0  0  0  0  0  0  0  0
    6.7181   10.9667  -21.3626 H   0  0  0  0  0  0  0  0  0  0  0  0
    6.8612    9.6314  -22.5554 H   0  0  0  0  0  0  0  0  0  0  0  0
    5.5097   10.8079  -22.6820 H   0  0  0  0  0  0  0  0  0  0  0  0
    3.8772    7.7064  -21.3361 H   0  0  0  0  0  0  0  0  0  0  0  0
    3.8585    8.9128  -22.6667 H   0  0  0  0  0  0  0  0  0  0  0  0
    5.2099    7.7363  -22.5401 H   0  0  0  0  0  0  0  0  0  0  0  0
    9.4659    8.7003  -16.7032 H   0  0  0  0  0  0  0  0  0  0  0  0
   10.6361    8.4924  -18.0501 H   0  0  0  0  0  0  0  0  0  0  0  0
    4.6799    4.9015  -16.0157 H   0  0  0  0  0  0  0  0  0  0  0  0
    6.2987    4.9139  -16.7941 H   0  0  0  0  0  0  0  0  0  0  0  0
    9.9874   14.0565  -20.5215 H   0  0  0  0  0  0  0  0  0  0  0  0
   10.8930   12.6545  -21.1855 H   0  0  0  0  0  0  0  0  0  0  0  0
    8.6963   10.8383  -17.6678 H   0  0  0  0  0  0  0  0  0  0  0  0
    6.8865    7.9634  -20.6328 H   0  0  0  0  0  0  0  0  0  0  0  0
    3.7373    6.1286  -17.9643 H   0  0  0  0  0  0  0  0  0  0  0  0
   12.4086   14.4506  -20.3842 H   0  0  0  0  0  0  0  0  0  0  0  0
   11.9392   10.4103  -17.2892 H   0  0  0  0  0  0  0  0  0  0  0  0
    4.5699    9.9775  -20.5250 H   0  0  0  0  0  0  0  0  0  0  0  0
   13.0566   12.2065  -21.3808 H   0  0  0  0  0  0  0  0  0  0  0  0
    4.8300    7.4044  -15.9986 H   0  0  0  0  0  0  0  0  0  0  0  0
    9.3060   12.7282  -18.6866 H   0  0  0  0  0  0  0  0  0  0  0  0
    8.7160    8.5278  -19.5730 H   0  0  0  0  0  0  0  0  0  0  0  0
    4.5825    8.1068  -18.7265 H   0  0  0  0  0  0  0  0  0  0  0  0
    3.8033    3.7321  -17.9523 H   0  0  0  0  0  0  0  0  0  0  0  0
    3.9322    4.2923  -19.4807 H   0  0  0  0  0  0  0  0  0  0  0  0
    5.2506    3.7162  -18.7082 H   0  0  0  0  0  0  0  0  0  0  0  0
   12.1208   14.0865  -17.7237 H   0  0  0  0  0  0  0  0  0  0  0  0
  1  2  2  0
  1  3  1  0
  2  5  1  0
  3  6  2  0
  4  5  2  0
  4  6  1  0
  5  8  1  0
  6 31  1  0
  7  9  1  0
  7 27  1  0
  7 28  2  0
  8 37  1  0
  8 38  2  0
  9 32  1  0
  9 39  2  0
 10 21  1  0
 10 33  1  0
 10 40  2  0
 11 22  1  0
 11 34  1  0
 11 41  2  0
 12 23  1  0
 12 35  1  0
 12 42  2  0
 13 24  1  0
 13 31  1  0
 13 43  2  0
 14 25  1  0
 15 25  1  0
 16 26  1  0
 17 26  1  0
 18 21  1  0
 18 25  1  0
 19 23  1  0
 19 32  1  0
 20 24  1  0
 20 33  1  0
 21 34  1  0
 22 26  1  0
 22 35  1  0
 23 36  1  0
 24 44  1  0
 27 29  1  0
 28 30  1  0
 29 30  2  0
  1 45  1  0
  2 46  1  0
  3 47  1  0
  4 48  1  0
 14 49  1  0
 14 50  1  0
 14 51  1  0
 15 52  1  0
 15 53  1  0
 15 54  1  0
 16 55  1  0
 16 56  1  0
 16 57  1  0
 17 58  1  0
 17 59  1  0
 17 60  1  0
 18 61  1  0
 18 62  1  0
 19 63  1  0
 19 64  1  0
 20 65  1  0
 20 66  1  0
 21 67  1  1
 22 68  1  6
 23 69  1  1
 24 70  1  6
 25 71  1  0
 26 72  1  0
 31 73  1  0
 32 74  1  0
 33 75  1  0
 34 76  1  0
 35 77  1  0
 36 78  1  0
 36 79  1  0
 36 80  1  0
 44 81  1  0
M  CHG  3  27  -1  36   1  37  -1
M  END
>  <OMEGA_C>  (11) 
xZN1QaBlEUEFiK/BsbJ/QQu/CEGzcabBdM1nQScbI0Eufa7BKhVuQUtoI0H4QZvB9f57Qdy3EUGC
NZzByvxjQRtdLEEFXKTBBjffQFaYCUHonnLBPE+DQTLcCEFogpLBoNTbQCIu6EASFHzBBVchQQTq
LkEhkJrB6tLeQEUCGEHDEpnBNMOyQNHXykCtaZjBYy1PQYn3SUE4FpvBICk/QcGwD0EVw3rB0noq
QeEyMkFMWHvBAwPFQFkTJEHV4a/BNQWQQOGqBUFWwq/BGQ0iQaKdE0EEQYvBWBurQIaYrkD9iIXB
91YqQbplU0E4KaLBTBoUQQI2IkG1cJLB9IHFQKE3CUGWgaDB6saVQFhcskAYnJDB4j4/QeQ8XEH4
PJ3BdlszQfjCH0FSrITB1RmpQHibFUGToKjBacu8QIHGF0ET33DBT+kAQYL4EUHieWrB1S/QQNck
KUFWNGfBbsf3QC7FJUHIdGPBT1NWQUY5PkHt9aPBe36zQMlM2UA9AYHBo/weQawLRUEgwJrBc1QF
Qf3MFEEdh5jBylOrQFxl9kC4uZnBXZaMQAABh0BwxZTBdHqBQcn9EEFAcYnBw6eJQXiP8kBAZJPB
Yu/7QF7w0UBJJH7B1P8sQQt+JUFm6qDBnajMQIPTJUFUwpPBf4LQQD+cuEAs8JzBAzZVQZqvRkF0
5ZHB+m46QWiqZ0Fjm5PBKGJ4QURwCkF7ULfBFymFQT5x9kC6SKfB1hdgQWmpKUEHfrXBMRZrQUM5
KkH9dZPBxIxFQRSBAkGIQYLBXGhMQXrcF0GYi3LBJ+8zQcpBCUHf1G7BjgUiQQDHPUF8xoLBW1If
QbamK0GMaW/BkMs3QWZBOkFFIHPBAvvWQMh3L0Ga5qrB2o7bQEMaGkF8cbTB2k+wQFvtLEHWdLXB
rCR4QIWa9kBjsKrB/PB2QPOaDkFuVbXBfremQLWP90AUUrTBJ3QXQWg0C0EwoIXBbC0qQb7gB0GG
ZpDBacGVQDfZnEArIIDBzY7JQIw+nUBcWobBSswfQaDnYEEhLKTBj0kuQd14SkH0e6nBByQLQcRp
LUGlV43B8F3cQJLU/kADEKXBIDBvQFYdxEDkto/Be4lGQak1Z0HhEqPBGQc/Qa+QJkFaUIrBkzyS
QOWjH0EqM6TB5edQQa1NQ0HZC6vBLI+aQKvw7EA7+n/BiOUUQZumS0FAfpXBy3QLQQhyCEGHlZzB
+6OSQEu1AUHkz5XBy2hzQH7bbkBEno/Bl6l7QEFaiUB42JvB6wSoQPvWbUBkqpXBtO5BQWliYUE5
yo3BBs1OQXBcg0GPq4LBYtJcQcNjdUF3QYHB7oQ/Qfsxg0Eo6IrBrj1MQREqY0HUZ5DBLrZbQcNn
Y0E2HIjBABI+QSeMdEEZ5ZHBVw/XQGktC0F3mW3BmqxqQX4cUUHem4bBPG/HQDoZ7EDzj3TB9OgE
QeixSUHUf6HB3JjRQGlHH0GlDZzBWUGdQKx51kDkMZjB9gogQX7hgEHC453BiyMcQZOmI0HUG4XB
CPI9QZOiHEEWdY/BLRmGQH/YHUHpbKzBfhzPQK29FkFYcLTBHNkgQcMJM0FVB5jBrjGRQFyhwUCe
3oTBLDX6QGEBcUH04KPBeJ4IQStJN0HCl5nBy1bAQIO7CkF7OKHBKCx4QGihx0B27o/BJTkSQZ9o
e0G5k6fBdpIlQbnkH0FQX5DBbc6sQFtbDkE4kKzBJETFQPuVHkHkU3TB+/v2QF97DkESfmDBNo/e
QMMZLUGbYWnBcyn7QCLbI0GbAl7BAlcvQUfyckFZYJrBUYWkQNAJ6kBGMoHBEf4AQZPkXUGvUZ3B
D3f8QC/0I0HQo53BxdGgQMIPAUHz/5nB2qZQQNDcnkD9W5PBPOBpQSxFQUGt2YzBhDN4QTaWUUGt
O37BiNvYQCx2y0Bb+m3BnEQFQbyGRkE5MqvBqk26QHoLK0FrvpbBswm1QFClvECTnJzBZbscQZ17
iUGpd5nBdlINQe7shkHU263BdsZPQRgwikE2y3rB3YRoQVfKdUF5zHXBPs40QYbliUEF7ovB4UNL
QVd+VUHoqpXB5bwKQSj8JUF+uYXB53kfQWKsFUEnB4DBvnwjQU/4MUFAjIHBnbtEQdLzGUEQd5fB
7EFFQT72KkGq4ovBFD9BQVCqDkGQXYrBYYZbQD/YF0Hj0abBhsaQQLzPLUHQ26nBy4xwQCHiHkF3
gLTB64vqQCq3C0EfhbTBA1fBQAXGF0FchbzBJNfZQKCzJkG14LHB6PwnQbSJL0Ea4Z/BhT8oQTuH
QUFXrJTBXI5xQH5dt0CbJX7B4zqqQMH/qEBHdYXBGgDoQBOyfEEjIZ/Bz3rnQCplbEHc9qrBracB
Qb2yO0Fm0ZHBvFfbQHot/0BIIKLBiE5GQLxS4EBJPY/BLiUbQZK1b0H6Z6zBAWIeQRlYEUEkx5PB
UoWhQFCR/UDJia/B7t0vQXQ9ZUHDfp7BK+KXQOLBAkGFz4PBP84AQcCIX0GhXJXBwhcHQQmGGUHJ
yKHBeaiMQDzMCkHlI5bB3Z4lQOuPlUDB6Y3B1qMzQD4Bo0AhaprBjvt9QPpziEAKEpTBLkYQQaEz
jUG81anBlbJ6QXkRV0GsHKDBqQqAQVhjQUGiU6HB1+JmQbC8XkHfxqPBl6NdQSvfOkEI76nBwZ9x
QWoIM0HEQqbBqRRYQfCsUEGjv6jBptTTQL65CkHlkW3BTnh3QUoWHEFBlafB55uxQMuc+EBs9nTB
0joLQY08REFbJ6fBzeXeQGLzFUGAVp/Bi8GxQBDA00BcDZfBWZg6Qdlma0E15azBWJ0jQSQNGEF1
OI3BsJlBQc9jDkFD15nBsDycQDL29UCzI7bBI9eQQJbxHkFKNa3BUdslQVMcKUFU9Z/BFzd2QBRd
50D14YjBUJcSQSe6a0ERSanB0hoOQbIzMEHVIKDBxTnHQPYSBEFyXaXBLIyNQLi9wkAP2o/Bbi4k
QbRebUFc67HBksspQWejFEGkF5nBIeWxQIwiDUFetK/BNxfhQDnqHEHpzXjBkYLpQH+dCEEB0VvB
LksAQbO8JEGnXmvBDLgCQagUGUExt1rBoPJDQcEFV0EAr6zBbL6cQE0RAUHjBYTBorMTQfJgV0Ee
a6PBuSUBQQyfHkERX6TBdW+nQKcn80D1ep7BNoGcQA0dn0Dx+4jBq8hqQZpxD0G9O6zBTZmEQXpk
FUHXGKTBk12nQJN82UCiJmrB2u8AQfSFQ0Gbhq/BG0rTQDUAHEF7cpbB+pzWQEGZxkDVF5bBgA5D
QQhhe0HdE6nBER0iQaa8gEFgQLfBnOyCQZfmYUEJV5zB4qyHQbqjO0Feep7BdeRiQc1vb0FWzqLB
nn1SQV0FMEHJsa3BVp8SQd6CHEEjsIzBc1cmQeknCUFhvIjBNn4tQULpJEHIzInBAv1FQTf3C0G+
RqLB83pLQcw/G0HAa5bBMFREQeb8/kBZW5XBYtmzQEjO3EBH4rfBRdOBQDdZ6EDqa7HB2Z6PQGl0
AUGwsL3Bvm+gQFfMK0EqoqjBrDSEQJN5JUGivrTBMNJsQMUxGEHceajBufQqQUrVJUFMOKjB74Uv
QY49NkH5pJzBRYVNQObC+0A28I3BeVpPQEI+2UApc4LBUY4UQcj8eEFHlaPBp9kCQer1bEFgLK3B
oxIJQXX7M0EA6ZfBuxHfQBc+8EBi2qfBdXVnQHrstkCHDZXBPAEiQTIyYEEGp7fBDA4gQWqGB0FN
XpzBvj/LQCweFEE+trTB3gQ7QepGS0Fgx6/BlyKlQKt7DkE92IfBKgEbQSVPV0HpTJzBVGkFQbRs
GEGhbqvBhMmIQMjs+0BlLZ/BA1KEQNLRlEDJa4TBs++mQMYbh0A1lo3BhV20QCdcqUAoT4TB6kUt
QVNihUE9ArXB9lhrQWAgFkF77qXB7mZzQWcGEUHawpvBiKVdQd+0J0EKKafBStBfQSMkL0G3CZTB
Y61tQS97HUETvJLB2PxXQc1eNEHJS57BtZ7RQPBhC0ER92/BNyx2QTAiGEGuAojBKX+1QM/I80Af
7HbBwooTQR1ZPEFYr57B/YfcQAxeE0FUU53B0G6yQKOv0EDySZbBED1FQTwjV0G7TJrBGDEeQbDH
BkGAIIfBiaM7QVQM9ECBSZPBTyKPQMZVH0Hpa6rBHODNQLK0FUEuSrbBn/0mQdUmG0EQVZjBXHVz
QDNV3EBj44fBK84eQT5WY0Hi+JvBlgYRQW42JkFaaZnBpmLFQBTXAkGabKTBzA2PQF/Nu0BplY/B
pyQ2QQW2ZkFf15/BiY0lQQ/WBEEc4ZLBbaWtQDEtDUG5/q3B3dXPQOsmIEFtPnjBwkXvQPzZCUGe
VmHBSAbwQNH/KUFltGzBxAMBQTY0HUElhl/BkndKQTltRUHucKDBQoqXQEMd/EDXaIPBTWkaQa82
TUHzSJjBETYDQahTGEHg3J/BDl2mQPxU7UDvJ57BpzmgQBo/l0C/e4nBCaNwQecUI0H2/3/B8ImB
QbfHCEEJ/YbBDKW4QA9O0EB2sW7Bux0PQfALP0EyJ6jBQKvKQNxoG0EcjpXBKV3YQPARyUA4iJTB
hQ1KQSmGWUER2pDBVzs9QY8efEHoDp7BtLFvQbiJDEFvyKzB/wV+QfSGA0E30JrBRGFXQaKQK0FE
+q7BcjZbQQOgOEESMY3BnGQOQZCDDkE41YbBaSMdQZF57UDYi4PB2M0pQZ94EEGHoILB8OJAQUxG
8UB/qJvBxj9HQVK3A0FSyY7BV5U6Qff200CjtI/BKIpwQEAWGUE+gaTBl+ChQJReLEGQ0KbBnSZ7
QDV1JUE6aLHBtmPjQGWxCEF4xrjBKnm8QAbOG0EVTr3Bc8bgQGW3IkFrtrLB1tstQYkdGUHQXqDB
94kxQXRwJUHuhJPBYCxBQL157UCyT4zBbHdWQIx9ykBjOYHBR7QbQfphbkGETJXB/+sTQXoJZ0HJ
oqLBHRsKQeRMKEFKY5HBmZLdQGaa70C0pqfBDINsQNgEsEA8F5XBeY82QQdLY0GjeKjBu/oZQTPf
9UAhSpfBekOaQACxAEHh3bHBd1BDQafbREFxl6fBViCWQCD1DEF3TYbBKpQcQeklSkEhgpDBtFkJ
QdAFEkFWi6bBYS6HQNqL8UCTnJ/BPcqIQCr/iUCmKIXBMxmsQEiGgUCEjY7By3G3QG9soUAKmoTB
FG5GQVJ4fEGiApjB25NjQVSjFkFA1LLB0aFuQQEKDEEwl6rBKKRXQSolKUENj7DB+cBhQfuBJkEv
yp3B0MVtQZ/rE0H7+5/B/LdWQaFTMUE6EqbBn9rLQABKEEHQ3nHBkZ15QSYYCUEEO5fB3BqpQDr2
A0GEfXvBkU4UQYvdNkE0hZ/BnO/aQOPZEUG58pzBYjekQORw00CS25XBhXNHQQDpT0FfU5vBa8ke
QcgdA0EyKYfBCYo7QXWn6UAVW5PBoZSQQLdlIUGelqrBJMDNQAOhE0GZ67XB8HMnQUn3FUEKz5jB
9hGPQNTgvUCK1YLBK+ohQZv8XEFKKp/B18ERQXudIUF9iZnBquG/QCCFAkGWz6PB+Lx/QD51y0BC
A47BZRQ5QZmtY0EOT5zB/rclQc4gAEEc7JLB70arQFBzDUGMra3BrD7uQG7YBkH2J2fBvYrPQFMR
JUFTMHLB5c4CQf+yGEE1d2HBzAr0QB0MKkFC0mfBpiRLQW9GREGRpqTBR22uQGvR20BY1nzBG8kb
QTGhSEHd8pnBL/ACQRSZE0GaTp/Brq6dQCVX80BFS53ByBlJQHHxqUBEbZLBR9R4QXdwEEFY1Y3B
Bk2CQV1j8UDvQ5nBNkKJQHsdDUF0N4HBexoQQUP3N0EKGKnBv/XKQEcDHEHEi5XBrObEQKajvUA+
yZXBIlpNQRUZSkE9bpLBAx85QQdBb0E7fpLBYEJkQXiNEEGO6LrByM93Qeaq+0CIXKzBPhpPQZIp
MUFF6bbBnPVgQZqNLEGdtJXBqCoPQVQ1C0Ez5IbBGoMdQY/D5kAPRYPBN78qQa/iDEGI8ILBr2hA
QRR45UBMv5vBcYhHQbQo/UAPJo/BVEw6QeUmykCWeo/B3xlwQLHXHEHJs6TBir+lQI+aLUHwGKfB
mPyAQN7qJ0HLxbHBZ4vgQIJhBUFkEbjBbkm+QLUeGkH0IL3BYAzjQGbOH0EZdLLBa3QtQTQjE0Gg
9aDB78oyQY41IEFecZTBCYZmQP2DvEA95nrBZsmdQEL6nUDqYYPBM98WQcOiaUEyh5zBlLEgQYAI
W0G146fBFsULQafCJEGoaZHBu63UQF0G60CJqKbBn3BaQAYj6UCxNI3BEEU/QfbSbUGazKLBcsYZ
QUdZ7EDkC5fBBpqVQAvUAUHfdbHBu5JEQShXSkHoSKvB5d/JQCqZz0CYVHfB2hYdQRKWR0EM/pHB
kb4IQWrFCkGbUKXBeg+AQATU/kCbP57BdL8YQGEmpEDMY43BibgxQNh6s0Bhe5nB5WZrQAI7j0CX
b5PBy8hAQfVjZ0HVPI3BFfJsQROEKEGn55HBBsJzQYOuGUG+qZnBDONdQU9bOEGkj5TB+zpcQa5b
KkEswKbBxlRrQaZuGkHNKqTBj8RVQah+OUHZHJ/B6kDPQASwDkEepnHBukByQTvcCkFcbKzBB5Gu
QD6zAEHlznrB838QQSPbPEFWi5/BOKfZQKE8E0GPAZ3Bkw+uQKqVz0CHl5XBP4NBQdgPXEG3IZ7B
B8UfQe7LBkGC94jBjDg8QVwT90BkFpbBhsqIQFPUHkG0J6nBJXTFQCNcFUFdrrXBvQcmQSQyHEFB
JZrB9LOcQFQftUBHqYLBHjIaQTQeZEETU53BeKoPQcGYJkGfUZrBQ7bAQOqjAkH5pKPBaYiLQERh
wUDFv43BejQvQZTgZ0Gsk6PBveYlQVmbBUFB7JTB8g6nQKbADEFd/azB6ID0QFboBkFlBmjBXIHO
QA2LI0E2gHHBykQEQSjEGUEyb2LBaMXyQNY1KkH94mfBK9FGQV9uSEHOkKLBoo+4QFks1kC6aHzB
fQEYQfjcTUHGcpnBTE0BQfNfGEH/Q6DBPmiiQPLo7kCoy5zBrvVqQPp0nECYU5LB3X9qQRfWC0HO
urXBN+h/QdyM+UASGarBXaeMQPklCEHZq4DBOPYJQZugP0EQsqjBpdfJQGRnG0Fz/ZTBznTRQDuP
vkC30pXBaZxJQclFY0Fo85XBFRE0QdInfkFMJaTBpE9zQaG5J0HY4YnBM3h/QairDUFhl5fBxYlY
QeObQ0H5ko7B+4pVQUzsKkFgtq7BtssPQZoBDkF/KIjBxJkfQUUm7UDjjYXB0IwrQWCnEEHFq4TB
QYtAQS5s9UCcm57BhgVIQRJjBUEKzZHBexI8Qaid1kAor5LBsVxmQMqTGEGq86LB3N+bQEUKLEHJ
1KXBNKlrQPC1JEET9q/B+NbaQBJ0CEHHXbjB6peyQMY5G0EMgrzBLaPYQBuOIkHCYLLBUtIrQbi4
GkE2bKLBzu4wQWKRJkHqlJXBs3iBQIdGsEDQb3rBtfmuQGsql0B9W4PB7uEZQaj1bkHlZJbBJp4M
QQa/Z0Edn6LBnfcJQdRQKEGRCZLBC6rXQElB7kCEBKfBKy9pQPfH20DZwYzBNjQtQf1cYUHCsKvB
8CkaQXYV90BvIJnBtkGTQPkcAEE0mLDBs74+QT52REGALqnBjDnVQDHrzEC1AXfBRj0cQe/VSkEo
4pHBAKgGQX0BEkFIGafBTXGDQEOu9kD9V53BSEU9QHqZkkCvS43BnXtQQAq4pECST5nB1neKQADF
hEB/gpPBQhA/QWW7gEGnKp/B

>  <OMEGA_E>  (11) 
yl+VP3HpsD8JqZI/HrwtP7CgWz8kPzw/

>  <OMEGA_NBR>  (11) 
     64204

$$$$
50169567
     RDKit          3D

 78 79  0  0  1  0  0  0  0  0999 V2000
   14.8389    9.8456  -18.0807 C   0  0  0  0  0  0  0  0  0  0  0  0
   15.1286    9.0999  -19.2413 C   0  0  0  0  0  0  0  0  0  0  0  0
   14.0832   11.0318  -18.1668 C   0  0  0  0  0  0  0  0  0  0  0  0
   13.8877   10.7111  -20.5750 C   0  0  0  0  0  0  0  0  0  0  0  0
   14.6562    9.5343  -20.5028 C   0  0  0  0  0  0  0  0  0  0  0  0
   13.6150   11.4730  -19.4294 C   0  0  0  0  0  0  0  0  0  0  0  0
    6.6414    8.6569  -14.9678 C   0  0  0  0  0  0  0  0  0  0  0  0
   14.9819    8.7946  -21.7471 C   0  0  0  0  0  0  0  0  0  0  0  0
    5.7834    7.5733  -15.4606 C   0  0  0  0  0  0  0  0  0  0  0  0
    9.4812   11.3498  -19.9439 C   0  0  0  0  0  0  0  0  0  0  0  0
    6.8468    9.2493  -19.6380 C   0  0  0  0  0  0  0  0  0  0  0  0
    5.4889    6.6113  -18.8138 C   0  0  0  0  0  0  0  0  0  0  0  0
   12.3697   13.5754  -18.7837 C   0  0  0  0  0  0  0  0  0  0  0  0
    9.8994    8.6722  -17.1369 C   0  0  0  0  0  0  0  0  0  0  0  0
   10.9761    8.4499  -19.3970 C   0  0  0  0  0  0  0  0  0  0  0  0
    4.3799   10.1302  -21.2188 C   0  0  0  0  0  0  0  0  0  0  0  0
    6.3233    9.5571  -22.7314 C   0  0  0  0  0  0  0  0  0  0  0  0
    3.8083    6.9332  -16.9230 C   0  0  0  0  0  0  0  0  0  0  0  0
   10.2727   13.7328  -20.1778 C   0  0  0  0  0  0  0  0  0  0  0  0
    9.0887   10.1910  -19.0066 C   0  0  2  0  0  0  0  0  0  0  0  0
    6.0627    8.2906  -20.5529 C   0  0  2  0  0  0  0  0  0  0  0  0
    4.4017    5.9499  -17.9629 C   0  0  2  0  0  0  0  0  0  0  0  0
   11.3099   14.5344  -19.3631 C   0  0  1  0  0  0  0  0  0  0  0  0
   10.3231    9.4440  -18.4060 C   0  0  0  0  0  0  0  0  0  0  0  0
    5.3154    8.9988  -21.7116 C   0  0  0  0  0  0  0  0  0  0  0  0
    6.5090    9.9928  -15.3593 N   0  0  0  0  0  0  0  0  0  0  0  0
    7.6123    8.5184  -14.1068 N   0  0  0  0  0  0  0  0  0  0  0  0
    7.5116   10.5858  -14.6149 N   0  0  0  0  0  0  0  0  0  0  0  0
    8.1458    9.7391  -13.8965 N   0  0  0  0  0  0  0  0  0  0  0  0
   12.8828   12.6345  -19.6660 N   0  0  0  0  0  0  0  0  0  0  0  0
    4.7817    7.8896  -16.3706 N   0  0  0  0  0  0  0  0  0  0  0  0
    9.8114   12.5748  -19.3859 N   0  0  0  0  0  0  0  0  0  0  0  0
    8.2249    9.2575  -19.7405 N   0  0  0  0  0  0  0  0  0  0  0  0
    5.0977    7.5418  -19.7581 N   0  0  0  0  0  0  0  0  0  0  0  0
    4.9365    4.7541  -17.2858 N   0  0  0  0  0  0  0  0  0  0  0  0
   14.7291    9.3148  -22.8689 O   0  0  0  0  0  0  0  0  0  0  0  0
   15.5238    7.6595  -21.6778 O   0  0  0  0  0  0  0  0  0  0  0  0
    5.9509    6.4268  -15.0597 O   0  0  0  0  0  0  0  0  0  0  0  0
    9.3913   11.2298  -21.1620 O   0  0  0  0  0  0  0  0  0  0  0  0
    6.2697    9.9242  -18.7905 O   0  0  0  0  0  0  0  0  0  0  0  0
    6.6756    6.3422  -18.6420 O   0  0  0  0  0  0  0  0  0  0  0  0
   12.6518   13.6056  -17.5912 O   0  0  0  0  0  0  0  0  0  0  0  0
   10.6130   15.2160  -18.3275 O   0  0  0  0  0  0  0  0  0  0  0  0
   15.1981    9.5060  -17.1204 H   0  0  0  0  0  0  0  0  0  0  0  0
   15.7126    8.1944  -19.1677 H   0  0  0  0  0  0  0  0  0  0  0  0
   13.8622   11.6011  -17.2760 H   0  0  0  0  0  0  0  0  0  0  0  0
   13.5006   11.0334  -21.5303 H   0  0  0  0  0  0  0  0  0  0  0  0
    9.4332    9.3672  -16.4230 H   0  0  0  0  0  0  0  0  0  0  0  0
    9.1780    7.8875  -17.4088 H   0  0  0  0  0  0  0  0  0  0  0  0
   10.7852    8.2118  -16.6750 H   0  0  0  0  0  0  0  0  0  0  0  0
   11.2832    8.9867  -20.3067 H   0  0  0  0  0  0  0  0  0  0  0  0
   11.8582    7.9903  -18.9273 H   0  0  0  0  0  0  0  0  0  0  0  0
   10.2510    7.6660  -19.6611 H   0  0  0  0  0  0  0  0  0  0  0  0
    3.6631    9.7229  -20.4906 H   0  0  0  0  0  0  0  0  0  0  0  0
    4.9791   10.9193  -20.7412 H   0  0  0  0  0  0  0  0  0  0  0  0
    3.8330   10.5524  -22.0747 H   0  0  0  0  0  0  0  0  0  0  0  0
    6.9835    8.7476  -23.0761 H   0  0  0  0  0  0  0  0  0  0  0  0
    5.7804    9.9781  -23.5905 H   0  0  0  0  0  0  0  0  0  0  0  0
    6.9265   10.3451  -22.2569 H   0  0  0  0  0  0  0  0  0  0  0  0
    3.0025    7.5032  -17.4084 H   0  0  0  0  0  0  0  0  0  0  0  0
    3.3923    6.3457  -16.0913 H   0  0  0  0  0  0  0  0  0  0  0  0
    9.4150   14.3791  -20.4159 H   0  0  0  0  0  0  0  0  0  0  0  0
   10.7346   13.3781  -21.1110 H   0  0  0  0  0  0  0  0  0  0  0  0
    8.5175   10.6155  -18.1678 H   0  0  0  0  0  0  0  0  0  0  0  0
    6.7808    7.5863  -20.9982 H   0  0  0  0  0  0  0  0  0  0  0  0
    3.5872    5.6400  -18.6340 H   0  0  0  0  0  0  0  0  0  0  0  0
   11.8077   15.2530  -20.0307 H   0  0  0  0  0  0  0  0  0  0  0  0
   11.0748   10.1951  -18.1218 H   0  0  0  0  0  0  0  0  0  0  0  0
    4.6960    8.2471  -22.2226 H   0  0  0  0  0  0  0  0  0  0  0  0
   12.6959   12.8211  -20.6305 H   0  0  0  0  0  0  0  0  0  0  0  0
    4.7171    8.8404  -16.6736 H   0  0  0  0  0  0  0  0  0  0  0  0
    9.7332   12.6800  -18.3946 H   0  0  0  0  0  0  0  0  0  0  0  0
    8.6576    8.5912  -20.3478 H   0  0  0  0  0  0  0  0  0  0  0  0
    4.1217    7.7064  -19.9004 H   0  0  0  0  0  0  0  0  0  0  0  0
    4.2166    4.3328  -16.7343 H   0  0  0  0  0  0  0  0  0  0  0  0
    5.2582    4.0997  -17.9701 H   0  0  0  0  0  0  0  0  0  0  0  0
    5.6979    5.0188  -16.6940 H   0  0  0  0  0  0  0  0  0  0  0  0
   10.9922   14.9882  -17.4868 H   0  0  0  0  0  0  0  0  0  0  0  0
  1  2  2  0
  1  3  1  0
  2  5  1  0
  3  6  2  0
  4  5  2  0
  4  6  1  0
  5  8  1  0
  6 30  1  0
  7  9  1  0
  7 26  1  0
  7 27  2  0
  8 36  1  0
  8 37  2  0
  9 31  1  0
  9 38  2  0
 10 20  1  0
 10 32  1  0
 10 39  2  0
 11 21  1  0
 11 33  1  0
 11 40  2  0
 12 22  1  0
 12 34  1  0
 12 41  2  0
 13 23  1  0
 13 30  1  0
 13 42  2  0
 14 24  1  0
 15 24  1  0
 16 25  1  0
 17 25  1  0
 18 22  1  0
 18 31  1  0
 19 23  1  0
 19 32  1  0
 20 24  1  0
 20 33  1  0
 21 25  1  0
 21 34  1  0
 22 35  1  0
 23 43  1  0
 26 28  1  0
 27 29  1  0
 28 29  2  0
  1 44  1  0
  2 45  1  0
  3 46  1  0
  4 47  1  0
 14 48  1  0
 14 49  1  0
 14 50  1  0
 15 51  1  0
 15 52  1  0
 15 53  1  0
 16 54  1  0
 16 55  1  0
 16 56  1  0
 17 57  1  0
 17 58  1  0
 17 59  1  0
 18 60  1  0
 18 61  1  0
 19 62  1  0
 19 63  1  0
 20 64  1  1
 21 65  1  6
 22 66  1  6
 23 67  1  6
 24 68  1  0
 25 69  1  0
 30 70  1  0
 31 71  1  0
 32 72  1  0
 33 73  1  0
 34 74  1  0
 35 75  1  0
 35 76  1  0
 35 77  1  0
 43 78  1  0
M  CHG  3  26  -1  35   1  36  -1
M  END
>  <OMEGA_C>  (12) 
QGxtQY2HHUEupZDBuQ5yQRGZEUEn7pnB1VRhQRaCMEGFVZHB0zNeQaFgK0GImaTB5X9qQayMGEHB
BaTBI9dZQWCRN0F8b5vBk4bUQMKCCkEIfG/BurVvQZm2DEED+q3BqBG5QHlY8kDOXnfBGbMXQceY
NUEjjZ/BBhnbQPr8E0GgGp3BHKWvQMaP00CygpbBc+pFQd00WUEFRZbBxmMeQVDBCkFOGInBLZ4v
QcIyB0EXLZvBSyiMQC4VIkEhwKnBbVjKQNTpGEHu2bXB/btzQMfc3UBUYofBKV0kQbC5W0EybKHB
cGsRQW8OI0FvDZjBswHCQFCmBEFDbKTBD9uMQK5lvkDzs4/BZ/U0Qb6MaEGY55rBYCslQXUaF0GS
P5PB6heqQDz7D0FCsa3BFErQQIriH0Gjv3XBCpjzQGdLCEFCtWHBVV/wQFJfKUGV1mnBPlUCQXLT
G0HpV17BwR9OQeQmSkHgU53BwgOZQDh3/ED99oLBqfscQUgySUFrFpvBSJkDQbseFEGH7J3BmCCj
QJVW8UCoEJ7BJvidQMkhmEBrSYrBYaprQUkJFUFq87bBiWF4QVIa9UAqbK3BBm6+QHaozUBq9HDB
lkIWQXOtM0G1S6nBvqHIQLLJHkHtUpbB1Z7VQKfzykC9IpXBtm1KQYawWUG6uozBp84pQdl0c0G7
npLBcCtzQZ4YGEGY9ojB/GZ7QUQcA0F2V5nBectdQQieOUFKNYrBSQJYQQKJMEEJPqzBU+4WQR/g
FUFHYoPBG9kSQYVm/EAjRYvBJ5AsQZhjA0FYZoXB0Yc0QVnJD0E4dKLBRrs9QVWw/0AWa5fBOgQk
QatP9UDgSZ3BA3BqQNOQG0HQ7KPBMVWfQKO1LkHz7aXBxk91QJ/WKEENmbDBwnjfQPv1C0HQm7jB
9vi4QHamH0FFubzBRKbdQHmFJUEqDrLBPChAQH8a8EBlRIvBwxtZQKgPy0AEu4DB2qMWQawQZkGt
U6PBGMErQZEMVkFQ46jB2kcIQT7ZKUGjV5HBe/zYQA7D8kA4/KfBApVlQJB6tECIEpXBX+w8QXMM
dEHbPqDBVzIxQfgeI0Fy+ZDBPEWWQEr0A0H4x7HBgiJLQTkjTUEwC6XBr/KWQCByDUF5Y4XBHLsb
QWnhSkEcKJPBqIUKQYR1CUE+yKLBxeSDQIKa9kASNJ/Bh+6GQCSmikDm34XBKUOoQIkwg0DQwo/B
EFW2QDOaoEBMjYXB5d8vQanPb0H05IvBWGZsQbOrKkHiEJLBDzx0QdbeGkFAFJnBerxdQSIMOkHS
wJXBXWpeQeWYKUFQc6fBl1BtQQVBGkGw3aPBFeVWQRSTOUFihqDBJB3ZQA7IC0HeUnDBOJx1QQzh
CUFtYqvBo4TAQBl08UABcXbBMjcSQTbQOkHxAZ/BxKfXQDVHE0Hw0JzB3kSqQMAS0UDlspXBCuVD
Qe5eXEGTRqHB1eQiQQPoBUHgMJDBmUwuQXehEEFlv6LB8MOIQKVuIEEaaqnBa3vFQPKeFUE8rrXB
07F7QORA1UAMRoTB9QUdQZLrYUGA75zBI6EPQd3GJEFJcpnB8f29QHlAA0HApaPBOsOGQDYyvUAb
447B8w0vQatqZkGSHqXBdWIlQTf5GEG6/ZfBMsKlQEPDDUETG63BKXDOQFJ/IEFp3nbBI5X6QM8B
DEFL1mPBfMLtQMFRLEE4tGzBRJADQVeQIEFUx2HBbqZHQYCIR0GkiqTBzrqcQJEa90B9qIHBZQcc
QSJTS0G4W5nBXuwAQRgBF0Epj5/B7MyeQLtR8EDu9pzBaXKRQBVYkEC3jIzBP8VuQf5JCUFY4LTB
gNWBQTyo+UDUR6jBgjfKQNEnzkDsWW/B1uQJQQFEPkGou6fBY53HQOK5G0H+6JTBPpTPQMM1xUA9
zpTBD6tQQeidZkGP2JvBOskxQWTufEHvdabBDatxQUT5KkG11onBgZR/QRYpD0GuN5bB/LlXQeQq
RkGyYJDB+LxYQVcLKUErm6/B7Y0cQSGuC0GIgYjB4MYXQQo99ECboJPB55QyQVe4/EBd5Y7BOCEw
QRwTHkFPWqjBY/U9QckOCUEJaKHBXCcjQSPRBEFHI6bBU4RkQBamGkEmTKPBb66cQGhCLUFiBabB
MoBtQBOqJkF2TbDBOunZQLc8CEGsPrjBGqGzQAbTG0H+mbzBcI/ZQFtrIkHpUbLBEdY7QMHm40A4
1YTBF018QBq3vUBCdnvB7aofQeYZbEFR4ZXBR54NQU0TZkFUpqDBpNYIQTmQJ0HHcpHBVI/UQPr9
7kAO+abBMTRSQDfcvUB4n5PBeZMqQWUKX0EEyqzB4PowQYRPJEFJkpTBGjKRQHF+AUGPw7DBhF0+
QXb1QUE2bqrBL6SXQF8cCkEAuYTB9ekiQUSrR0E7X5LBdpUGQaTeD0EDI6bB1sF/QBEN+ECWrJ3B
q4V0QAlUg0A4GYjBcjeUQOIZgEBXaJPBLSStQK8Wj0DUjYjBUN0+QdyggEGAP6PB

>  <OMEGA_E>  (12) 
oj8CPzJQMD8=

>  <OMEGA_NBR>  (12) 
     66984

$$$$
50169585
     RDKit          3D

 78 79  0  0  1  0  0  0  0  0999 V2000
    5.2304    5.2652  -18.7044 C   0  0  0  0  0  0  0  0  0  0  0  0
    5.5078    5.5896  -17.3663 C   0  0  0  0  0  0  0  0  0  0  0  0
    5.3791    6.2301  -19.7145 C   0  0  0  0  0  0  0  0  0  0  0  0
    6.0910    7.8601  -18.0447 C   0  0  0  0  0  0  0  0  0  0  0  0
    5.9389    6.8918  -17.0199 C   0  0  0  0  0  0  0  0  0  0  0  0
    5.8148    7.5423  -19.3948 C   0  0  0  0  0  0  0  0  0  0  0  0
   17.8733   12.1679  -21.4239 C   0  0  0  0  0  0  0  0  0  0  0  0
    6.2144    7.2340  -15.5969 C   0  0  0  0  0  0  0  0  0  0  0  0
   16.6919   13.0398  -21.4373 C   0  0  0  0  0  0  0  0  0  0  0  0
    5.7663    8.5516  -21.7260 C   0  0  0  0  0  0  0  0  0  0  0  0
    8.8686   10.8651  -21.1697 C   0  0  0  0  0  0  0  0  0  0  0  0
   14.2379   14.1538  -19.5825 C   0  0  0  0  0  0  0  0  0  0  0  0
   11.4118   12.6103  -20.0606 C   0  0  0  0  0  0  0  0  0  0  0  0
   11.4682    8.6781  -18.1797 C   0  0  0  0  0  0  0  0  0  0  0  0
    9.5000    8.7640  -16.6078 C   0  0  0  0  0  0  0  0  0  0  0  0
   10.8505   16.2438  -18.7134 C   0  0  0  0  0  0  0  0  0  0  0  0
   10.2101   15.2816  -20.9678 C   0  0  0  0  0  0  0  0  0  0  0  0
    6.0470    9.8454  -22.5025 C   0  0  0  0  0  0  0  0  0  0  0  0
    9.2591    9.7869  -18.9051 C   0  0  0  0  0  0  0  0  0  0  0  0
    7.4919    9.8761  -23.0416 C   0  0  0  0  0  0  0  0  0  0  0  0
   15.7877   16.1454  -19.5255 C   0  0  0  0  0  0  0  0  0  0  0  0
    9.8997   10.6041  -20.0550 C   0  0  2  0  0  0  0  0  0  0  0  0
   15.3953   14.8634  -20.2901 C   0  0  1  0  0  0  0  0  0  0  0  0
   11.7443   13.9457  -19.3769 C   0  0  2  0  0  0  0  0  0  0  0  0
   10.2454    9.5109  -17.7275 C   0  0  0  0  0  0  0  0  0  0  0  0
   10.5486   14.9415  -19.4931 C   0  0  0  0  0  0  0  0  0  0  0  0
   18.8448   12.2073  -20.4189 N   0  0  0  0  0  0  0  0  0  0  0  0
   18.1716   11.2720  -22.3264 N   0  0  0  0  0  0  0  0  0  0  0  0
   19.7224   11.2353  -20.8603 N   0  0  0  0  0  0  0  0  0  0  0  0
   19.3364   10.6974  -21.9554 N   0  0  0  0  0  0  0  0  0  0  0  0
    5.9796    8.5714  -20.3410 N   0  0  0  0  0  0  0  0  0  0  0  0
   16.5529   13.9739  -20.4152 N   0  0  0  0  0  0  0  0  0  0  0  0
    8.4812    9.7875  -21.9566 N   0  0  0  0  0  0  0  0  0  0  0  0
   10.3908   11.8653  -19.5017 N   0  0  0  0  0  0  0  0  0  0  0  0
   12.9576   14.5359  -19.9433 N   0  0  0  0  0  0  0  0  0  0  0  0
    6.5366    8.4113  -15.2811 O   0  0  0  0  0  0  0  0  0  0  0  0
    6.1071    6.3465  -14.7065 O   0  0  0  0  0  0  0  0  0  0  0  0
   15.8568   12.9369  -22.3315 O   0  0  0  0  0  0  0  0  0  0  0  0
    5.4621    7.5437  -22.3543 O   0  0  0  0  0  0  0  0  0  0  0  0
    8.4541   11.9991  -21.3987 O   0  0  0  0  0  0  0  0  0  0  0  0
   14.4409   13.3096  -18.7121 O   0  0  0  0  0  0  0  0  0  0  0  0
   12.0322   12.2138  -21.0450 O   0  0  0  0  0  0  0  0  0  0  0  0
   16.2209   15.8453  -18.1971 O   0  0  0  0  0  0  0  0  0  0  0  0
    4.9009    4.2685  -18.9582 H   0  0  0  0  0  0  0  0  0  0  0  0
    5.3913    4.8405  -16.5971 H   0  0  0  0  0  0  0  0  0  0  0  0
    5.1607    5.9718  -20.7401 H   0  0  0  0  0  0  0  0  0  0  0  0
    6.4230    8.8558  -17.7902 H   0  0  0  0  0  0  0  0  0  0  0  0
   12.0006    9.2126  -18.9802 H   0  0  0  0  0  0  0  0  0  0  0  0
   12.1453    8.5279  -17.3260 H   0  0  0  0  0  0  0  0  0  0  0  0
   11.1282    7.7014  -18.5543 H   0  0  0  0  0  0  0  0  0  0  0  0
    8.6306    9.3566  -16.2867 H   0  0  0  0  0  0  0  0  0  0  0  0
    9.1597    7.7873  -16.9822 H   0  0  0  0  0  0  0  0  0  0  0  0
   10.1768    8.6138  -15.7538 H   0  0  0  0  0  0  0  0  0  0  0  0
   11.0901   15.9989  -17.6681 H   0  0  0  0  0  0  0  0  0  0  0  0
   11.7068   16.7573  -19.1750 H   0  0  0  0  0  0  0  0  0  0  0  0
    9.9692   16.9015  -18.7430 H   0  0  0  0  0  0  0  0  0  0  0  0
    9.9961   14.3540  -21.5188 H   0  0  0  0  0  0  0  0  0  0  0  0
    9.3283   15.9384  -20.9994 H   0  0  0  0  0  0  0  0  0  0  0  0
   11.0659   15.7943  -21.4314 H   0  0  0  0  0  0  0  0  0  0  0  0
    5.3477    9.9137  -23.3488 H   0  0  0  0  0  0  0  0  0  0  0  0
    5.8968   10.7047  -21.8324 H   0  0  0  0  0  0  0  0  0  0  0  0
    8.3966   10.3474  -18.5154 H   0  0  0  0  0  0  0  0  0  0  0  0
    8.9175    8.8225  -19.3090 H   0  0  0  0  0  0  0  0  0  0  0  0
    7.6353    9.0259  -23.7246 H   0  0  0  0  0  0  0  0  0  0  0  0
    7.6476   10.8170  -23.5896 H   0  0  0  0  0  0  0  0  0  0  0  0
   16.6047   16.6479  -20.0640 H   0  0  0  0  0  0  0  0  0  0  0  0
   14.9157   16.8140  -19.4756 H   0  0  0  0  0  0  0  0  0  0  0  0
   10.7376   10.0276  -20.4739 H   0  0  0  0  0  0  0  0  0  0  0  0
   15.0566   15.1558  -21.2950 H   0  0  0  0  0  0  0  0  0  0  0  0
   11.9107   13.7470  -18.3078 H   0  0  0  0  0  0  0  0  0  0  0  0
   10.6006   10.4753  -17.3354 H   0  0  0  0  0  0  0  0  0  0  0  0
    9.6656   14.4672  -19.0399 H   0  0  0  0  0  0  0  0  0  0  0  0
    6.2954    9.4449  -19.9704 H   0  0  0  0  0  0  0  0  0  0  0  0
   17.2796   14.0414  -19.7316 H   0  0  0  0  0  0  0  0  0  0  0  0
    8.9002    8.8980  -21.7744 H   0  0  0  0  0  0  0  0  0  0  0  0
    9.9612   12.2102  -18.6672 H   0  0  0  0  0  0  0  0  0  0  0  0
   12.8559   15.2560  -20.6298 H   0  0  0  0  0  0  0  0  0  0  0  0
   16.4556   16.6503  -17.7506 H   0  0  0  0  0  0  0  0  0  0  0  0
  1  2  2  0
  1  3  1  0
  2  5  1  0
  3  6  2  0
  4  5  2  0
  4  6  1  0
  5  8  1  0
  6 31  1  0
  7  9  1  0
  7 27  1  0
  7 28  2  0
  8 36  1  0
  8 37  2  0
  9 32  1  0
  9 38  2  0
 10 18  1  0
 10 31  1  0
 10 39  2  0
 11 22  1  0
 11 33  1  0
 11 40  2  0
 12 23  1  0
 12 35  1  0
 12 41  2  0
 13 24  1  0
 13 34  1  0
 13 42  2  0
 14 25  1  0
 15 25  1  0
 16 26  1  0
 17 26  1  0
 18 20  1  0
 19 22  1  0
 19 25  1  0
 20 33  1  0
 21 23  1  0
 21 43  1  0
 22 34  1  0
 23 32  1  0
 24 26  1  0
 24 35  1  0
 27 29  1  0
 28 30  1  0
 29 30  2  0
  1 44  1  0
  2 45  1  0
  3 46  1  0
  4 47  1  0
 14 48  1  0
 14 49  1  0
 14 50  1  0
 15 51  1  0
 15 52  1  0
 15 53  1  0
 16 54  1  0
 16 55  1  0
 16 56  1  0
 17 57  1  0
 17 58  1  0
 17 59  1  0
 18 60  1  0
 18 61  1  0
 19 62  1  0
 19 63  1  0
 20 64  1  0
 20 65  1  0
 21 66  1  0
 21 67  1  0
 22 68  1  6
 23 69  1  6
 24 70  1  1
 25 71  1  0
 26 72  1  0
 31 73  1  0
 32 74  1  0
 33 75  1  0
 34 76  1  0
 35 77  1  0
 43 78  1  0
M  CHG  2  27  -1  36  -1
M  END
>  <OMEGA_C>  (13) 
WF+nQHx8qECuopXBxD+wQAzeskAw7orB7CGsQLpcx0BEt53BbOnCQAaG+0CRW5DBLAu+QMKJ3EDW
KIjBvBK6QCha8UCiKJvBlfyOQbGvQkErZKvBPNzGQNx850D2jHnBFImFQdeiUEGWf6vBqIW4QIvT
CEHazq3BrOUNQZTXLUF4W6nBeM5jQcd1YkH0qJzBsJY2QfrDSUEGfKDBqH03QafZCkEQcJHB5P8X
QXI5DEG33ITBmJstQWbzgUELtZXBoFwjQaKBdEEVvqfBSIHBQM+GHUEaBbTBSCUUQQGXHEGUPZfB
cL3vQGoEHkEvVbjBhpp8QcMpgUE2NJzBKmUeQXCqKUGKcKDBSFN2QaTQbUEQUqLBsOg7QWwhX0HQ
A5vB+OwjQYosGEHk0Y3B5sYoQToQb0H08ZvBLsKWQSxRQ0H7WaPBcl+RQUJaNEFynLLBfMedQcfD
M0Hf4abB5LCaQbooK0GxpK/BSFm/QEgkCUFHuqLBS2yEQRKVX0E+UqPB5LIHQY+ZHEE1p6/BrEAm
QW7YPUGKA5zBbFJPQSeTaEHyi5/BHCzRQJ6UBkGAf3TBEG3DQOoWy0CmTWvBkLV9QVj9TkHWprLB
3MmuQN5l8UCU1bLBHEQHQXP8P0GdMKvB9A1nQS/0VEF4spXBwINAQdprQ0EgXKjBdcSBQT6GfUG2
k5HBXdScQFSXiEBjqpfBh4WsQPvkmkD1xoTBiySlQLoYv0DP66XB14jNQGqxDUFTUo7BnAJAQd1m
E0GE15fBPlNCQUtyCEGRm4rBAw0yQbtx9kBPb5TBJBcKQbm0FUEaS4LB+40SQWsx+UB124fBN9Qi
QSPSCUFsD3zB43AxQU37f0FWWI3B/047QfMOhkF/ZpnB0oEfQS42h0Gt8ZXBMfAfQeKpZUGZJqzB
lUAVQcYDf0G2/qfBwg0xQVC1fEGIc6vBpiCrQJ6eHkFwyrrBQrK8QI9GK0HLqK7BalgGQfyOJUF+
H5TB4a0OQcMoDUHheJrBLVT0QONpEEEQzL3BXLn0QIUSLUGat7zBhdaEQfAuhUH8gqDBqaZuQRyD
hkEJzpvBPM0rQRVxIEGjyqPB2edwQRh+ckESXKrBCJI+Qd/zW0FjdpLBIZwpQaGaJ0HQrorBMaYa
Qat5Z0G9UZjBtnPJQCkeF0Flw5/BrDyKQbOpYEFI2p3BXGcOQTleDkEJMq7B8WAfQRhdQ0FgVpXB
+LFNQWAYdEHQCaXBHaWDQc0zhUFHAY7B

>  <OMEGA_E>  (13) 
YxPJPw==

>  <OMEGA_NBR>  (13) 
     68572

$$$$
50169589
     RDKit          3D

 80 81  0  0  1  0  0  0  0  0999 V2000
   14.7658   10.0913  -18.0915 C   0  0  0  0  0  0  0  0  0  0  0  0
   15.1109    9.2842  -19.1970 C   0  0  0  0  0  0  0  0  0  0  0  0
   13.9358   11.2195  -18.2634 C   0  0  0  0  0  0  0  0  0  0  0  0
   13.7790   10.7114  -20.6425 C   0  0  0  0  0  0  0  0  0  0  0  0
   14.6211    9.5979  -20.4876 C   0  0  0  0  0  0  0  0  0  0  0  0
   13.4469   11.5297  -19.5556 C   0  0  0  0  0  0  0  0  0  0  0  0
    6.6205    8.6850  -15.0038 C   0  0  0  0  0  0  0  0  0  0  0  0
   14.9856    8.7905  -21.6776 C   0  0  0  0  0  0  0  0  0  0  0  0
    5.7608    7.5754  -15.4343 C   0  0  0  0  0  0  0  0  0  0  0  0
   12.2580   13.7244  -19.1659 C   0  0  0  0  0  0  0  0  0  0  0  0
    9.1384   11.8017  -19.9477 C   0  0  0  0  0  0  0  0  0  0  0  0
    6.8111    9.2582  -19.6772 C   0  0  0  0  0  0  0  0  0  0  0  0
    5.5284    6.5401  -18.7851 C   0  0  0  0  0  0  0  0  0  0  0  0
    9.9111    8.4491  -17.0184 C   0  0  0  0  0  0  0  0  0  0  0  0
   11.6890    7.6570  -18.6160 C   0  0  0  0  0  0  0  0  0  0  0  0
    4.3298   10.0077  -21.2252 C   0  0  0  0  0  0  0  0  0  0  0  0
    6.2351    9.4086  -22.7795 C   0  0  0  0  0  0  0  0  0  0  0  0
   11.2884   14.6537  -19.8982 C   0  0  0  0  0  0  0  0  0  0  0  0
   10.3820    9.7356  -19.1794 C   0  0  0  0  0  0  0  0  0  0  0  0
    9.8092   14.2524  -19.6610 C   0  0  0  0  0  0  0  0  0  0  0  0
    3.8277    6.8437  -16.9084 C   0  0  0  0  0  0  0  0  0  0  0  0
    9.0056   10.4266  -19.2663 C   0  0  2  0  0  0  0  0  0  0  0  0
    6.0532    8.2291  -20.5391 C   0  0  2  0  0  0  0  0  0  0  0  0
    4.4567    5.8597  -17.9266 C   0  0  2  0  0  0  0  0  0  0  0  0
   10.3141    8.3362  -18.5050 C   0  0  0  0  0  0  0  0  0  0  0  0
    5.2672    8.8743  -21.7068 C   0  0  0  0  0  0  0  0  0  0  0  0
    6.4856    9.9963  -15.4710 N   0  0  0  0  0  0  0  0  0  0  0  0
    7.5979    8.5969  -14.1433 N   0  0  0  0  0  0  0  0  0  0  0  0
    7.5112   10.6258  -14.7917 N   0  0  0  0  0  0  0  0  0  0  0  0
    8.1471    9.8236  -14.0256 N   0  0  0  0  0  0  0  0  0  0  0  0
   12.6286   12.6028  -19.8857 N   0  0  0  0  0  0  0  0  0  0  0  0
    4.7714    7.8388  -16.3737 N   0  0  0  0  0  0  0  0  0  0  0  0
    9.6359   12.8575  -19.1923 N   0  0  0  0  0  0  0  0  0  0  0  0
    8.1135    9.5520  -20.0332 N   0  0  0  0  0  0  0  0  0  0  0  0
    5.1142    7.4673  -19.7219 N   0  0  0  0  0  0  0  0  0  0  0  0
    5.0227    4.6950  -17.2215 N   0  0  0  0  0  0  0  0  0  0  0  0
   14.7170    9.2213  -22.8335 O   0  0  0  0  0  0  0  0  0  0  0  0
   15.5625    7.6811  -21.5280 O   0  0  0  0  0  0  0  0  0  0  0  0
    5.9218    6.4532  -14.9669 O   0  0  0  0  0  0  0  0  0  0  0  0
   12.5030   13.8875  -17.9760 O   0  0  0  0  0  0  0  0  0  0  0  0
    8.7745   11.9642  -21.1081 O   0  0  0  0  0  0  0  0  0  0  0  0
    6.2852    9.7738  -18.6947 O   0  0  0  0  0  0  0  0  0  0  0  0
    6.7210    6.2932  -18.6225 O   0  0  0  0  0  0  0  0  0  0  0  0
   15.1390    9.8441  -17.1087 H   0  0  0  0  0  0  0  0  0  0  0  0
   15.7504    8.4250  -19.0578 H   0  0  0  0  0  0  0  0  0  0  0  0
   13.6762   11.8398  -17.4183 H   0  0  0  0  0  0  0  0  0  0  0  0
   13.3798   10.9412  -21.6193 H   0  0  0  0  0  0  0  0  0  0  0  0
    8.9274    8.9351  -16.9406 H   0  0  0  0  0  0  0  0  0  0  0  0
    9.8593    7.4436  -16.5753 H   0  0  0  0  0  0  0  0  0  0  0  0
   10.6599    9.0489  -16.4802 H   0  0  0  0  0  0  0  0  0  0  0  0
   11.9747    7.5773  -19.6752 H   0  0  0  0  0  0  0  0  0  0  0  0
   12.4384    8.2565  -18.0783 H   0  0  0  0  0  0  0  0  0  0  0  0
   11.6378    6.6513  -18.1734 H   0  0  0  0  0  0  0  0  0  0  0  0
    3.6433    9.6162  -20.4601 H   0  0  0  0  0  0  0  0  0  0  0  0
    4.9308   10.8229  -20.7958 H   0  0  0  0  0  0  0  0  0  0  0  0
    3.7490   10.3900  -22.0776 H   0  0  0  0  0  0  0  0  0  0  0  0
    6.8964    8.5961  -23.1148 H   0  0  0  0  0  0  0  0  0  0  0  0
    5.6591    9.7894  -23.6358 H   0  0  0  0  0  0  0  0  0  0  0  0
    6.8408   10.2222  -22.3541 H   0  0  0  0  0  0  0  0  0  0  0  0
   11.4400   15.6816  -19.5368 H   0  0  0  0  0  0  0  0  0  0  0  0
   11.5000   14.6094  -20.9768 H   0  0  0  0  0  0  0  0  0  0  0  0
   10.7795    9.6156  -20.1980 H   0  0  0  0  0  0  0  0  0  0  0  0
   11.0595   10.3749  -18.5944 H   0  0  0  0  0  0  0  0  0  0  0  0
    9.3837   14.9279  -18.9043 H   0  0  0  0  0  0  0  0  0  0  0  0
    9.2616   14.3708  -20.6076 H   0  0  0  0  0  0  0  0  0  0  0  0
    3.0067    7.3793  -17.4074 H   0  0  0  0  0  0  0  0  0  0  0  0
    3.4268    6.2604  -16.0664 H   0  0  0  0  0  0  0  0  0  0  0  0
    8.6114   10.5676  -18.2491 H   0  0  0  0  0  0  0  0  0  0  0  0
    6.7929    7.5391  -20.9712 H   0  0  0  0  0  0  0  0  0  0  0  0
    3.6560    5.5120  -18.5960 H   0  0  0  0  0  0  0  0  0  0  0  0
    9.5677    7.7239  -19.0321 H   0  0  0  0  0  0  0  0  0  0  0  0
    4.6451    8.0934  -22.1684 H   0  0  0  0  0  0  0  0  0  0  0  0
   12.2390   12.5562  -20.8055 H   0  0  0  0  0  0  0  0  0  0  0  0
    4.6946    8.7765  -16.7126 H   0  0  0  0  0  0  0  0  0  0  0  0
    9.9003   12.6577  -18.2488 H   0  0  0  0  0  0  0  0  0  0  0  0
    8.4718    9.1399  -20.8709 H   0  0  0  0  0  0  0  0  0  0  0  0
    4.1339    7.6223  -19.8446 H   0  0  0  0  0  0  0  0  0  0  0  0
    4.3118    4.2628  -16.6667 H   0  0  0  0  0  0  0  0  0  0  0  0
    5.3696    4.0371  -17.8900 H   0  0  0  0  0  0  0  0  0  0  0  0
    5.7709    4.9950  -16.6298 H   0  0  0  0  0  0  0  0  0  0  0  0
  1  2  2  0
  1  3  1  0
  2  5  1  0
  3  6  2  0
  4  5  2  0
  4  6  1  0
  5  8  1  0
  6 31  1  0
  7  9  1  0
  7 27  1  0
  7 28  2  0
  8 37  1  0
  8 38  2  0
  9 32  1  0
  9 39  2  0
 10 18  1  0
 10 31  1  0
 10 40  2  0
 11 22  1  0
 11 33  1  0
 11 41  2  0
 12 23  1  0
 12 34  1  0
 12 42  2  0
 13 24  1  0
 13 35  1  0
 13 43  2  0
 14 25  1  0
 15 25  1  0
 16 26  1  0
 17 26  1  0
 18 20  1  0
 19 22  1  0
 19 25  1  0
 20 33  1  0
 21 24  1  0
 21 32  1  0
 22 34  1  0
 23 26  1  0
 23 35  1  0
 24 36  1  0
 27 29  1  0
 28 30  1  0
 29 30  2  0
  1 44  1  0
  2 45  1  0
  3 46  1  0
  4 47  1  0
 14 48  1  0
 14 49  1  0
 14 50  1  0
 15 51  1  0
 15 52  1  0
 15 53  1  0
 16 54  1  0
 16 55  1  0
 16 56  1  0
 17 57  1  0
 17 58  1  0
 17 59  1  0
 18 60  1  0
 18 61  1  0
 19 62  1  0
 19 63  1  0
 20 64  1  0
 20 65  1  0
 21 66  1  0
 21 67  1  0
 22 68  1  1
 23 69  1  6
 24 70  1  6
 25 71  1  0
 26 72  1  0
 31 73  1  0
 32 74  1  0
 33 75  1  0
 34 76  1  0
 35 77  1  0
 36 78  1  0
 36 79  1  0
 36 80  1  0
M  CHG  3  27  -1  36   1  37  -1
M  END
>  <OMEGA_C>  (14) 
k0BsQSp2IUFhu5DBa8ZxQeOLFEF3k5nB+PheQfKCM0F3G5LB9nZcQQdiK0HaI6XB5+9pQdSQGUGw
5qPBYCZXQYN5OEHScZzBatvTQNf1CkGLD3DBNMVvQf2lDEGta63Bvli4QNVp8kDX8nbB5iBEQUKX
W0G3U5nByzYSQanTPEHPlJ/BVfTZQJghFEHRap3B8eiwQGNI0UDYR5bBDJQeQXwvB0G2JYjBNgY7
QYUG9UB/7ZTBlI2KQJgfIEE5zanBqYXHQI+JFkFvPLbBVp00QcF1akGUL5/BiRwmQSbFG0GAb5nB
kvIcQfEJZEGxSZ3B1/l0QPH/2kB1RIfBGBcQQY7TJkFsIZrBu7PBQG6qA0ENUKTB85yOQLSCu0C3
aY/BtQYlQeNgBUEqCpTBTI2oQBP9DUGAp63B8onPQNbwH0EGiXfB/yHzQPaMCUEpS2LB/FvwQGsD
KkHOqmzBdVoCQYgtHUH4aGDBzA5KQQmlSUH9FZ/BY6+YQHzX+kBr/YLBrywaQUK4TUHjiZnBydAB
QeXUGEEARKDBk6ejQC307kBkxp3Bs7mgQCc9lkC3xYnBo3hrQXCKE0ECq7bB7P94QU3L9UBEOazB
lH+9QN2AzkA/eG/BIgxIQU8zXkHzzo/BWWQMQUBtP0Fe3ajBjyDJQGhhHEGsjpXBmBLXQLZhyUDb
+pTBcjlyQUqBHUGS3ojBtQF8QezMBkFZdpjBmNFaQcpvPUGxWIvBshNWQUEPL0Fp9KzBp9YOQSX2
DkFEhofB178dQTsy7kAumoTB7o4qQRrIEEF614PBb5g/QTh58kDZZp3BuANHQbUaBEFwoJDBoTQ6
QXLX1EAkY5HBhCtpQPrbGUE4rqPBycidQHYqLUHkXabBKPBvQKQ9JkHlnrDBJ6/cQGyJCUE067jB
Zhe1QHqhHEEdFr3BG+jaQEyOI0Ec1bLBWgo3QbDnekFxS5zB5v83Qe2/aUFz0KfB1HgsQW/ZGUGa
laHBu/MwQZT/JUFRwZTBjyMWQcvYbkHyO5fBoC8UQeTuZUFo3KTBM21AQJsj7EBOQovBklBbQBVV
yEAWiIDBSMgJQcsUKUEu/pHBI1/ZQPY/8UD/xKfBn/tpQDZisECExJTBMRUZQd4p90DFQZjBpaSU
QG5+AUHnWLHB+9JDQS3mSEG/cabB9jmWQIRsDEFws4XBv2ceQRWGSkGc/ZHBiIwHQSQ9EkGy96bB
N0mEQLPp80CywZ7BDfqJQPNoiEBbVYXBs9OrQLovgUC0Ho/BLqu4QKjWn0DSCYXBh0NvQQArHEEe
cZDB0llzQVnzEEF1+ZnBL2BiQbyTLkGwmZDBLiVdQXZXKkHMzqPBGUhqQcTtF0ECv6PBx45ZQfMN
NkF1RprBlAvTQJAXC0FMEnDBAKFuQc8yDEEa263BRZK3QOnw8kA7W3fBuR1GQTYLVkGS76HBxx4U
QVcvO0FEfp/BPXXfQD4NE0GW8pvB5BexQNG40kAcnJbBxHYfQUGxBUHFmYfBL188QUuJ8UClGJTB
ibuxQJEQCUG4SrfBjSmJQB1qHkF4Z6nBKYQ3Qb+HaEFQs57BTEsoQYCTGkHQoZjBM+kfQVvgYUEk
vp/B0EZzQM3a3EBZrofBJIcSQcMNJkHIQJnBVbbGQMBhBUHr1KPBfqKNQNmDvUCM5Y/B05QmQbQB
BEGxZpPB0te0QO+/FEFiiazBigTOQCRRIEH5sXbBwuzyQApWCUGlsmLBYVPvQIsdKkEs9mvBLTEC
QSbyHEG0YWDBfWJNQY7PSEHNs5nBOvKXQFwP/EDmKYPB4wgcQc80TUGsVJrBsU4EQZSuF0HQ657B
jQOmQIX58EDYT57Bq5GeQM+sl0BFM4rBd5BoQVzpE0H8rLbBI4h4QcZG9UBmla3BwOi8QOuuzkCi
WHDBdZdIQdokUkGRdqvBjPgNQX8sPEEH0KjBQnbOQFgfG0E7E5TBUtPWQNILykBg45TBywl2QXCg
FkH2/YjB+HV9QXfwAkEw15nBSzNfQZsRN0G1PonBAslVQeeEL0EOL6vBZtgPQVTCDUEiK4fBBR4e
QXga60BLKITB+VwrQfn2DkFTEYPBhFRBQeRB70BFhZzBdVNIQRIEAkFClo/BgRQ7Qas00UA5rZDB
IibRQG1OAkGvX7nBShKaQIku+EAfr7bBxLunQHlpFEF1ib3BRhaMQDS2JkGPraHBA+p9QOjeKUEK
lK/BDpdiQLSMEUG0uajBt9c6QYn9bEEMWpbBxpw6QbRSdkFg8aPB2qouQR7GGEEDyaDBulMzQcBo
JEFz2pPBkMIVQcs7bkFgEZzBfdYbQfdQYEGrRKjBcZ0/QLKa7kDfr4vB42pYQJLyyUCbD4HB05YM
QRE5KUFEH5HB+HPdQFb59ED5wqfB0URoQAkYs0D4X5XBP64aQQwd9UAs15fB9LjLQMb/IUGPc63B
O0tJQZhoTUFdUZLBlJiVQL8qDUEnsIXBxUofQQkjTEE+hJLBt/MJQfyXEEG9g6XBwieHQEdI9UCe
IqDBpjSHQFNEikDD4YXBQJypQJd5gkDmhI/B0Vu2QJOuoEC7WIXBJDWJQaV4UkEtfZrBrsOJQf3x
VEEFT4/BYN1+QS+PVUHO3Z/Bi3htQaKCXUEC4o7BWoGAQbyCWkEbaInB4TNsQXUhW0GYI5rBplHV
QOM6C0FtWW7BmPWAQR08XUEYKHvB/2vGQCY87UA3AHfBLbdEQZ9rY0GRl5zBF3AXQVYzOUFU46LB
ijvlQOdQEUH7GZ3Buk2kQOVr1EAV15bBE4UmQSQpAkEnnIzB8TdBQQA360ACaprB6z2VQKLfBEHw
W7TB7JucQEjCJkEgX6nBTmczQVG2ZUFIRKXB8xcsQSZdF0FaG57B4rYcQVoJYUFtCqHBKP6JQFs9
w0DVDITBJpIWQXt1I0E9M53BOuHEQA52BEGnvKPB7CR7QK78yEAS5I/BVXgrQfXLAEEdvpjBZbGz
QB03EkHBPa3BPuK8QGL6HUHgnW7BqHz6QC6bDkGkX2XBnnnYQJQyLEGHvmTB9d77QIJgI0H6cF/B
jU9ZQU3/XUE4FaDB6kedQIu66kCRjn/BFEobQa88S0E9spzB3qcFQRiaFkGlFaLBA7yhQNlb+UDS
+JzBnv9TQEApoUDQ95PBSj5xQYdCYkEH6XDBPLGJQbWIWkFbbXHBXurdQKHOzUBAPnbBWzhAQdRW
Z0E8PZPBEIcUQS+GOkHBlqzB9+bdQNxMFkFKxJPBGHnEQMzQvUBm1pbBwUqQQVgyTkH28p7BYkiR
QdKWUkG9N4vBKCJ+QZ6mU0EfcqjBF0ZfQduuYUHMa4rBzAMXQSUjCkHEaYvBZt8lQQrc40D7OInB
3ikzQWdhC0EKlYjBer1EQf9E6UC8BaPButtNQXmo/UBgYpbBQpFAQbbBykBQBpfB3c2lQAGn7EDR
E7fB+mlxQIdhAEHNuK/BlouLQGBtDkFGV7vBSWyyQMErMEELUaTBluySQLBdMEEHVrDB/RWAQNhR
IkGOt6TBCc8zQUYtdkGbXqjBDfs2QadwWkG5yKvBzgEwQfRgFUEBoabB65s4QW71IEEkM5rBi9EY
QQmRbEEPr5rBSDERQfW8YkFmo6fBRFVaQAV1u0CCx37B3TOhQCLrqEAVXYPBcf4SQZsWJkFIr5TB
NrjVQO817UATKafBwUJMQMMm40B2cpDBeOoeQXB47kCfo5zBsj/PQIsUF0GYJbLBx81aQezXW0GP
+afBErqLQLq8AkHf6n/B8jQdQbtGSUGM0JTBwwEIQdJDEUHBiKnBPZCGQD8fBUFJxpzBiV8hQHmJ
mUDJdY/BlDJBQFmFpUB3iZvB+e9+QFp2iUBQq5PBUTFnQQ3niUGufqnBnPVrQefNj0H2wbLB+BtS
QV2dhkElaqfBWVZGQdUtj0Ew77fBdZRbQdKAkkHSF7rBu2NBQWI/iUFnoq7BpEnRQJZ5CkFbKW3B
v6xgQXS6mEEs7MPBIemwQOaD90CN6nXByzwiQW29gEGYx6TB60YCQVwMS0HYWaDBOonhQJL5GUEV
qZ7B06W2QOHE2EAd8pfBNcYzQQlDG0FJRZXBpNFHQRpZI0FBWKbBKyikQGhxAEG7xbbBqK2TQNbX
IkHs4KzBNekJQSWtfUFms6XB19QkQT5xNkHO1qLB2OD/QI1TckGA7ZvBYYh6QPIJ50AzDorBb9MN
QVu5NUFENZ7B5sTLQBt2CEH8XaXBPkOSQP++xEC0TpHB+m0xQdIgIUGvQKHB6fW2QC9IEkERma/B
VdvdQA10HUGkPHfBoMblQBfqB0GDHVvBT437QHI+JUGiy2jBDBEAQc7eGEFYpVjBlNwrQfhIhkGU
OK3BqP2cQAMTAUF0jYTBxbkIQRe7XEEIeZrBx08CQZH3I0F8MKPB8wCsQPtN+UB6CJ/BJ9ihQHZk
oEBxxYrBLPxRQUkam0G0bcrBBbRzQXWYm0GEtcXB502nQEji1kB0HWzBgSEsQSkoe0Hq6ZzB7J7m
QGQwTEGNs6bBEZ7UQBPQHkHtsZXBO+HbQHLrzEBh15bBAs5zQQ/ih0HS8aPBGzh8Qc5LkkEKSrTB
CZpOQVsPgkEESaDBZrs5Qfg1kUHke73BqNAjQYWuGUE9pZHBKm08QegBDEFQh5TBrMA8QeztJ0F9
IJHBQCVGQZqDJ0GH2q7Bt8xQQTwEMEH6M6LBNXlQQTgYFEHNmqXBBE69QMN36UAMrrjBtOSJQOTE
8EDEhLLBC+OXQDKGB0HLOL7ByzKhQNV9L0ETx6fBj2OHQAr3KUH9ULTBccpyQEvTGkH2nKjBcwMC
QWOkhkFVrKbBz+4GQWvHc0HR0qzBi84jQXnPOUEUdqvB/qotQVZlQ0G+157B6EQDQYLVe0E8tpTB
hxPdQB0jcUERG53BJIJRQPyX+0ByB4/BaDBTQI3G1kDb/oPBDNMOQfEyM0Fwg5XBybPkQINu+kDi
AajBnHNzQC/yuECN4pbBY7soQdIwFEFQVqXBDzTQQECHGkFkI7TBRfshQUp3iEGdH7PB+LekQOwJ
D0Ew8ofBMQkUQSGmWkEn6ZTBNW4HQYe6HkFPTarB9CGNQI+FAEGU3Z/BVIiJQFMhlECbkYbBF/Wt
QBbbiUB3k4/BcpK4QJemqkDlwYXB7l9pQeQ6HEHErqfBQbZyQWXwEUEoz57BCZxcQVyPLkFlL6bB
bPFhQbrhK0Hk6JLBuSFvQS3SGUHrVZTBDyNZQUmHNkGmvJvBB33LQMaiEEEA3XHB/U55QRukD0Ex
7YrBgNKpQJrFA0HYvnvBaEtIQa+WWUGACKDBcAgVQQcvOEELq5/BpvncQAh4EkH46pzBYWeoQA9s
0kCBr5XBSTkfQYNCBUFmuYbBMmk8QRaz7UCllpLBM5qRQGE/IEGdsarBA7PPQP8nE0HW4rXBrVE2
QQeyaEGmnJzB5TAoQb2oF0G1bJjBL0QgQa8bX0F1bJ/BjGSSQM5wvECLxYLBv3ESQQQXI0ESf5nB
fPXCQEdxAkGdoKPBaKyDQKN+yEBjF47BZnomQRn3AUHFaZLB86itQCapDEFKmK3B6dztQLijB0HV
v2bBYj3OQI1yJUFuQHLBriACQfXDGUHz+GDBBSTyQGDhKkGVk2fBmyJMQVYDSEFLipnB2IWwQGCe
20ASw3zBmw8dQWD8SUHBU5rBPPIDQbytFEFQPZ/BZ06hQE+D8kAQCp3BrVVWQNX5pEBelZLBM251
QdetFkHTqoHBHgSDQU08AEG2QIzBUrWJQDJbDEHBjIHBZfVTQdtNXkEEkKfBKrgPQb1ROUG3GanB
5yzMQH7XHEG4tJXBxKjJQJWCvUD4lZXB9AFsQY4OFkH5pK/BV6J8Qfb9A0HY/p/Bc4BVQZ1/NkGo
/KzBC5ZeQU6UMUFt7YrBs4YPQUQ3DUHxnYbB1f0dQUJH60CAt4LB5/wqQSVFD0GkgYLBuIxBQR4J
6UCB7JrBuDBIQUDaAEF4YI7BpjE7QXdxzkBUlo7B57xyQDR+G0FDxaTBzOelQGjvLEEGUKfBepuB
QGM7JkF08LHBIX/jQEUtBUFy6LfB6s+/QDceGUGpJr3BPRzkQDzSH0E7hrLB/zw3QbJFa0E865PB
7zg4QUoWeEGzxaDBxpguQYisFEHpe6DBgDczQQglIkF3AJTBaK8TQYIXakG1pZzBsCMfQfk+XUH3
J6jBhW9sQCTIukCjBnvBwwqiQJPunECsD4PBLx8MQTuFJkEEd5HBepzYQFFe60AiW6bBuxFeQIPr
5EAdh43BN7waQZOT70COi5bBedGYQDSKAEESR7HBxq9EQc3pR0HMdZLBCDfMQJNu0EByBHfBgeIg
QSVqSEFMmZLBMPwJQRDoC0G6NaXBD4aDQLW3/UCk4p3BlJYlQOjgnUB7to3B4Y8/QIhTrUA1w5nB
bk58QLxmi0BlWpPB

>  <OMEGA_E>  (14) 
+G3UPujduz67aZY//HKUP8jRUj8=

>  <OMEGA_NBR>  (14) 
     75034

$$$$
50169586
     RDKit          3D

 94 96  0  0  1  0  0  0  0  0999 V2000
   11.5887   16.6479  -24.6519 C   0  0  0  0  0  0  0  0  0  0  0  0
   12.8446   16.4028  -24.0601 C   0  0  0  0  0  0  0  0  0  0  0  0
   10.4263   16.6700  -23.8547 C   0  0  0  0  0  0  0  0  0  0  0  0
   16.7278   11.7739  -21.9229 C   0  0  0  0  0  0  0  0  0  0  0  0
   17.9085   12.3695  -21.4485 C   0  0  0  0  0  0  0  0  0  0  0  0
   12.9394   16.1836  -22.6706 C   0  0  0  0  0  0  0  0  0  0  0  0
   10.5195   16.4523  -22.4652 C   0  0  0  0  0  0  0  0  0  0  0  0
   15.4747   12.2803  -21.5412 C   0  0  0  0  0  0  0  0  0  0  0  0
   16.5813   13.9942  -20.2031 C   0  0  0  0  0  0  0  0  0  0  0  0
   17.8487   13.4866  -20.5819 C   0  0  0  0  0  0  0  0  0  0  0  0
   11.7770   16.2125  -21.8651 C   0  0  0  0  0  0  0  0  0  0  0  0
   15.3892   13.4007  -20.6749 C   0  0  0  0  0  0  0  0  0  0  0  0
    6.5669    8.6251  -14.8526 C   0  0  0  0  0  0  0  0  0  0  0  0
   19.1009   14.1134  -20.0764 C   0  0  0  0  0  0  0  0  0  0  0  0
    6.1577    7.3256  -15.4121 C   0  0  0  0  0  0  0  0  0  0  0  0
    9.3743   11.6382  -20.2654 C   0  0  0  0  0  0  0  0  0  0  0  0
    7.1123    9.0660  -19.5773 C   0  0  0  0  0  0  0  0  0  0  0  0
    5.1688    6.5422  -18.8507 C   0  0  0  0  0  0  0  0  0  0  0  0
   12.8642   13.6455  -20.5768 C   0  0  0  0  0  0  0  0  0  0  0  0
   10.3594    8.2214  -17.4762 C   0  0  0  0  0  0  0  0  0  0  0  0
   12.0757    7.5003  -19.1833 C   0  0  0  0  0  0  0  0  0  0  0  0
    4.6922    8.2263  -22.5332 C   0  0  0  0  0  0  0  0  0  0  0  0
    4.8228   10.3382  -21.1370 C   0  0  0  0  0  0  0  0  0  0  0  0
   11.8771   15.9936  -20.3586 C   0  0  0  0  0  0  0  0  0  0  0  0
   10.6854    9.5572  -19.6561 C   0  0  0  0  0  0  0  0  0  0  0  0
    4.3352    5.9533  -16.5191 C   0  0  0  0  0  0  0  0  0  0  0  0
   10.3149   13.9736  -20.2479 C   0  0  0  0  0  0  0  0  0  0  0  0
    9.3179   10.2786  -19.5535 C   0  0  2  0  0  0  0  0  0  0  0  0
    6.1462    8.2348  -20.4310 C   0  0  2  0  0  0  0  0  0  0  0  0
    3.9612    6.1315  -18.0029 C   0  0  2  0  0  0  0  0  0  0  0  0
   10.6881    8.1472  -18.9887 C   0  0  0  0  0  0  0  0  0  0  0  0
    5.5979    9.0858  -21.6202 C   0  0  0  0  0  0  0  0  0  0  0  0
   11.7421   14.5010  -19.9271 C   0  0  1  0  0  0  0  0  0  0  0  0
    5.7604    9.7677  -14.8704 N   0  0  0  0  0  0  0  0  0  0  0  0
    7.7111    8.8736  -14.2719 N   0  0  0  0  0  0  0  0  0  0  0  0
    6.5798   10.6820  -14.2325 N   0  0  0  0  0  0  0  0  0  0  0  0
    7.7005   10.1689  -13.8890 N   0  0  0  0  0  0  0  0  0  0  0  0
   14.1828   13.9696  -20.2347 N   0  0  0  0  0  0  0  0  0  0  0  0
    4.8837    7.2043  -15.9663 N   0  0  0  0  0  0  0  0  0  0  0  0
   10.1309   12.6357  -19.6743 N   0  0  0  0  0  0  0  0  0  0  0  0
    8.2977    9.4403  -20.1788 N   0  0  0  0  0  0  0  0  0  0  0  0
    5.0546    7.6993  -19.6083 N   0  0  0  0  0  0  0  0  0  0  0  0
    3.4048    4.8696  -18.5324 N   0  0  0  0  0  0  0  0  0  0  0  0
   19.0395   15.1119  -19.3072 O   0  0  0  0  0  0  0  0  0  0  0  0
   20.2197   13.6411  -20.4196 O   0  0  0  0  0  0  0  0  0  0  0  0
    6.9274    6.3712  -15.3630 O   0  0  0  0  0  0  0  0  0  0  0  0
    8.7454   11.8439  -21.3014 O   0  0  0  0  0  0  0  0  0  0  0  0
    6.8551    9.3602  -18.4119 O   0  0  0  0  0  0  0  0  0  0  0  0
    6.2004    5.8747  -18.8419 O   0  0  0  0  0  0  0  0  0  0  0  0
   12.5789   12.7334  -21.3463 O   0  0  0  0  0  0  0  0  0  0  0  0
   11.9308   14.4531  -18.5081 O   0  0  0  0  0  0  0  0  0  0  0  0
   11.5172   16.8188  -25.7159 H   0  0  0  0  0  0  0  0  0  0  0  0
   13.7347   16.3830  -24.6715 H   0  0  0  0  0  0  0  0  0  0  0  0
    9.4638   16.8537  -24.3088 H   0  0  0  0  0  0  0  0  0  0  0  0
   16.7841   10.9222  -22.5846 H   0  0  0  0  0  0  0  0  0  0  0  0
   18.8675   11.9724  -21.7469 H   0  0  0  0  0  0  0  0  0  0  0  0
   13.9022   15.9930  -22.2200 H   0  0  0  0  0  0  0  0  0  0  0  0
    9.6272   16.4688  -21.8569 H   0  0  0  0  0  0  0  0  0  0  0  0
   14.5722   11.8148  -21.9087 H   0  0  0  0  0  0  0  0  0  0  0  0
   16.5256   14.8478  -19.5438 H   0  0  0  0  0  0  0  0  0  0  0  0
    9.3704    8.6825  -17.3376 H   0  0  0  0  0  0  0  0  0  0  0  0
   10.3532    7.2063  -17.0522 H   0  0  0  0  0  0  0  0  0  0  0  0
   11.1214    8.8277  -16.9647 H   0  0  0  0  0  0  0  0  0  0  0  0
   12.3089    7.4477  -20.2570 H   0  0  0  0  0  0  0  0  0  0  0  0
   12.8378    8.1066  -18.6719 H   0  0  0  0  0  0  0  0  0  0  0  0
   12.0695    6.4852  -18.7594 H   0  0  0  0  0  0  0  0  0  0  0  0
    5.2482    7.3398  -22.8723 H   0  0  0  0  0  0  0  0  0  0  0  0
    3.8019    7.9078  -21.9711 H   0  0  0  0  0  0  0  0  0  0  0  0
    4.3820    8.8203  -23.4056 H   0  0  0  0  0  0  0  0  0  0  0  0
    5.4724   10.9445  -20.4886 H   0  0  0  0  0  0  0  0  0  0  0  0
    4.5128   10.9356  -22.0070 H   0  0  0  0  0  0  0  0  0  0  0  0
    3.9327   10.0232  -20.5726 H   0  0  0  0  0  0  0  0  0  0  0  0
   12.8550   16.3654  -20.0187 H   0  0  0  0  0  0  0  0  0  0  0  0
   11.0764   16.5689  -19.8709 H   0  0  0  0  0  0  0  0  0  0  0  0
   10.9404    9.4409  -20.7199 H   0  0  0  0  0  0  0  0  0  0  0  0
   11.4467   10.1791  -19.1625 H   0  0  0  0  0  0  0  0  0  0  0  0
    3.4361    5.6713  -15.9514 H   0  0  0  0  0  0  0  0  0  0  0  0
    5.0896    5.1577  -16.4298 H   0  0  0  0  0  0  0  0  0  0  0  0
    9.5689   14.6590  -19.8193 H   0  0  0  0  0  0  0  0  0  0  0  0
   10.1824   13.9231  -21.3387 H   0  0  0  0  0  0  0  0  0  0  0  0
    9.0778   10.4381  -18.4919 H   0  0  0  0  0  0  0  0  0  0  0  0
    6.7115    7.3934  -20.8582 H   0  0  0  0  0  0  0  0  0  0  0  0
    3.1991    6.9214  -18.0758 H   0  0  0  0  0  0  0  0  0  0  0  0
    9.9316    7.5218  -19.4851 H   0  0  0  0  0  0  0  0  0  0  0  0
    6.4574    9.4266  -22.2161 H   0  0  0  0  0  0  0  0  0  0  0  0
   14.2801   14.7180  -19.5787 H   0  0  0  0  0  0  0  0  0  0  0  0
    4.3047    8.0193  -15.9901 H   0  0  0  0  0  0  0  0  0  0  0  0
   10.5790   12.4321  -18.8038 H   0  0  0  0  0  0  0  0  0  0  0  0
    8.4700    9.1143  -21.1084 H   0  0  0  0  0  0  0  0  0  0  0  0
    4.1852    8.1931  -19.5931 H   0  0  0  0  0  0  0  0  0  0  0  0
    2.6155    4.5962  -17.9826 H   0  0  0  0  0  0  0  0  0  0  0  0
    3.1194    5.0036  -19.4814 H   0  0  0  0  0  0  0  0  0  0  0  0
    4.1028    4.1547  -18.4920 H   0  0  0  0  0  0  0  0  0  0  0  0
   11.2571   14.9690  -18.0810 H   0  0  0  0  0  0  0  0  0  0  0  0
  1  2  2  0
  1  3  1  0
  2  6  1  0
  3  7  2  0
  4  5  2  0
  4  8  1  0
  5 10  1  0
  6 11  2  0
  7 11  1  0
  8 12  2  0
  9 10  2  0
  9 12  1  0
 10 14  1  0
 11 24  1  0
 12 38  1  0
 13 15  1  0
 13 34  1  0
 13 35  2  0
 14 44  1  0
 14 45  2  0
 15 39  1  0
 15 46  2  0
 16 28  1  0
 16 40  1  0
 16 47  2  0
 17 29  1  0
 17 41  1  0
 17 48  2  0
 18 30  1  0
 18 42  1  0
 18 49  2  0
 19 33  1  0
 19 38  1  0
 19 50  2  0
 20 31  1  0
 21 31  1  0
 22 32  1  0
 23 32  1  0
 24 33  1  0
 25 28  1  0
 25 31  1  0
 26 30  1  0
 26 39  1  0
 27 33  1  0
 27 40  1  0
 28 41  1  0
 29 32  1  0
 29 42  1  0
 30 43  1  0
 33 51  1  1
 34 36  1  0
 35 37  1  0
 36 37  2  0
  1 52  1  0
  2 53  1  0
  3 54  1  0
  4 55  1  0
  5 56  1  0
  6 57  1  0
  7 58  1  0
  8 59  1  0
  9 60  1  0
 20 61  1  0
 20 62  1  0
 20 63  1  0
 21 64  1  0
 21 65  1  0
 21 66  1  0
 22 67  1  0
 22 68  1  0
 22 69  1  0
 23 70  1  0
 23 71  1  0
 23 72  1  0
 24 73  1  0
 24 74  1  0
 25 75  1  0
 25 76  1  0
 26 77  1  0
 26 78  1  0
 27 79  1  0
 27 80  1  0
 28 81  1  1
 29 82  1  6
 30 83  1  1
 31 84  1  0
 32 85  1  0
 38 86  1  0
 39 87  1  0
 40 88  1  0
 41 89  1  0
 42 90  1  0
 43 91  1  0
 43 92  1  0
 43 93  1  0
 51 94  1  0
M  CHG  3  34  -1  43   1  44  -1
M  END
>  <OMEGA_C>  (15) 
UGs5QfguhUEFN8XBqYNNQQU5g0EVe8DB8NEmQRxchUFa1r7BftKFQb5hPEEaYq/BpUSPQVbpRUF7
lqvB2wdPQf13gUFrXbXBsE8oQWeeg0GxuLPBi5h3QQ18REFKVKzBd6aEQWXoX0H+n6HBGMqOQUzJ
V0Gip6TBbm48QUSzgUGl667BWDp2QRVpVkEmZqXBpCPSQE4ACkFnpG3Bjc6YQZnQYUGLnKDBRwzF
QIxr6kDQl3bBCv0VQeQ1OkGYH6LBPJjjQHUOEUE6npzBmmalQGNZ0UBFzpbBr9NNQSxUWkFenaTB
+r8lQaeKA0E5z4vB4TVBQSgC8EBqd5nBmSaWQBKfA0H0Q7TBMFSaQBtpJUGgGKnBiQg+Qajlf0Fg
3qLBjfcqQSXqGEHIP53Bx7mKQC6BvkAIJ4TB+AklQceTX0G5+6HBRhYVQSN1JEGIbZzBlK3EQN3B
A0G2cqPBhYR9QA81xEDrBZDBgAIrQflaAkHI6JfBvSGzQFdfEUE29qzB0N87Qf8DaEG0ap/BlFW4
QLBIHEE47W3BT8H2QCT6DUGYWWTBj43SQEvpKkFruGPBU2r2QLCzIkFTOV7BpOxiQVmDX0GT4KHB
E0ecQJ6J5kDZdX/BIRgiQdorSkH3ZJ3BbcMEQU4LF0EwbqHBW7+hQLNg9kDl3ZzBiOdZQCLUm0Bm
QpTB/lCYQV7KcUEkdZrB78GhQdxBWkFuW6PBlq3dQMDgy0DBznXBKu0LQWmAPUFGaarBv1zbQIvD
FUGcS5PBfWnGQDH9u0BPvJbBOENJQS68S0EmxarBq+Q+Qcc/Z0GBEJTBSkY4QeGMhkEWus3BPcFb
QXQQg0FKX8XBlWsXQWjUhkF1eMLBv0WGQSnBLkE9rbTBofCWQdCOP0G3+a3Bh29eQVTjf0GEwrHB
JAkaQSzAg0HV2q7BiSdpQXEJPUHwRK/BdzSEQbmQbUG/WZzB/+wVQXbrCkFSs4rBuqYlQWCa5kD/
aojBcfExQUo+DUHLt4fBVfFEQWhT7kBYDqLBh2dNQaO0AUETYJXB0BxBQROHz0BHE5bBOfGnQM7f
6kBg+rbBhVJzQMAM/UDexK/BdjmMQMkfDUGSPrvBkx2vQJ0cL0G46KPB4miQQGv4LkFqDrDBXLF7
QANfIEG1lKTB5a1NQVDsgkFNJqDBxDgxQSGNhEGg957BtgsvQcwNF0FFwqXBxiU3QYXdIkHXTJnB
ZelbQFd7tUAXOX/BI96iQDkMpUBRcIPBYxoZQRuLakHWjZ7BMOsiQf7EXkG5tarBhT4RQV0CJ0F8
75PBhcTWQAuX7ECb3abBqr5MQMt73UBVm5DBqeceQTiy8EB04ZvB/qLOQELTFkGQurHBSHtkQRp9
a0EfoZzBE8CJQAdPAEFQ13/Bj0MpQbbpRkE6bpbBSoUHQVXUEUHs3ajBxOyFQNkWA0GyvpzBWGQn
QOQTk0Bk3I/BmaRHQMEdoED82ZvBO0qDQKfzhECa75PBIR00QR2Bb0HVpZDBhGttQSGLkUEaR5XB
HAxfQapYjkEZMo3BeXVoQdaij0F4HaDBGOVoQSl3V0EwtMTBiuxgQYufYEHuKM7BEqpLQSNKiUH9
8o/BOBRVQQOUikEw4qLB/gReQQ9OWkFy+brBafdCQc2lb0HWI8TBgNtNQU/TbEGl/c3BYYhGQcNy
h0Giz5rBctxKQZN2ZkHulbrBvfXUQGf3CkFoFG7BjXFFQXl7dkF2CdjBhXfGQJy57ECz63bBjIUX
QWW5OUFAmKLB+VHlQLqkEUFIAZ3BJeWkQDaE1ED34ZbB8gdDQaiHY0E2rKbBeYsmQSKtAkFyb4zB
Lm1BQeOz7EAFNJrBJa2VQCFSBUGZU7TBJGKcQKIJJ0GwLqnBNpIxQSL8gUENwJ3B0xYsQQLoF0Gr
7Z3BpoOKQMR/wkADJoTBXsMcQfaNYUHN2J/BE4UWQRTjI0GbCp3BCCTFQBrMBEHxrqPBelp8QF2M
yEAZ/I/BZ5MrQV1bAUECkJjBn9SzQHCoEkHdIa3BzlgzQXkca0Ff0J3BYTe8QC2dHUHuPm7BpQL6
QEFtDkHTA2XB8ILXQIDfK0HAOWTBngP7QGUoI0GW7V7BJ/M+QfAbakGdNbHBNGmdQHgD6kC/j3/B
5ccbQVZGS0HBMJzBPacFQcYcF0FU/KHBoxWiQNaa+UDA85zBG+hVQJ22oECUKJTBGnU0QYKxgEFb
1tfBmVpPQfWwc0FAueDB4TfeQK17zUCnQHbBJpgUQbRwO0GlRqzBze/dQE13FkF+ppPBzD7FQGAr
vkAS55bBp4xSQbKYWEGOL6TB2cE6QXYmZEHifpPB5Tx8QaN0lUHtKpPBUuRiQcrFj0HV5ITBQoRz
QW0NkkGVTKbBuXd3QWEwTkF26sTBp2VpQXpWXkFKmtXBIrNAQV3QhkFFv4nBd1ZRQXYXiUHFL6vB
H0ZkQa8xU0FXv7PBKmo0QRj1eEF87sPBdPcWQaKFCkGWQovBzQMmQRfh5EC6DInBdRYzQT4ADEGf
Y4jBbAFFQQfS6kB0zqLBFPdNQRpb/0ClJ5bBbORAQbQ7zEDA0JbBpoGmQNPI7UCKGbfBFllyQGeg
AEEVuq/B3OKLQGj1DkFrRbvBagCyQMdxMEGdEqTBwZqSQFi7MEG8G7DB4Mh/QFdmIkFmkKTBIE0l
QfdVhEFJ5ZfBzrssQSWshEHpxaXB8ggwQX/uFUGGcqbBaYs4QQ2SIUEcBJrBeGlbQLlOukDQDH/B
9PGhQL1bqEBngIPB080QQTIMa0FieJvBEUAZQRglYkH6dqjBHt8SQb5eJkHGhZTBciXWQNMX7kBC
KafBxhRNQNCM4kCHgJDBTB8fQX9l70DUepzBxFrPQP64F0GX/7HBCJQxQe+qckETNLLBBqOLQP9O
AkEm2X/BxmgeQSWKSEEla5TBxvsHQeL4EUGxeKnB0suGQMUlBUEuu5zBwk0jQKi+mEAbr4/BajND
QHBBpUB0uZvBtZmAQIIriUAO5ZPBFJRHQUMnXEF2UZTBJuc5QRp5hEGRacXBgPNNQVdugkGPqcDB
o04nQU/LhEHlCb/BfKyOQSTyVUEn2KTBJh+PQcwRREFNr6vBx2xPQU2/gEGQiLXBUMEoQeQeg0FA
6bPBybaEQWBlXkHCtqHBekR3QUwJQ0E+NqzBJJKFQSd5OkHBb6/B4dM8QcgggUGTF6/BIzN2QSIP
VUFXXqXBWeLQQNA4CkHYUG3B7eCFQXGPJ0FlrLbBXkrDQC3v6kCXKXbBF7YVQSaVOUGhGqLB9i3i
QFfcEEFrepzBVB6jQBPB0UDxi5bBccxNQbhGWUF2nqTBafUkQWbnAkFrs4vBkTtAQcDn7UCvXZnB
OT+UQFWoA0GyDrTBiEKZQJKDJUEQ9qjBNV4+QWfvfkF3BaPBLVcqQVUVGEHFMJ3Bt2eIQBOFv0Aj
3IPB+BMlQTfWXkF6BKLBAJgUQafgI0GAXpzB1ufCQLKsA0E4Q6PBw8Z4QNcoxUDMuo/BICgqQSeR
AUEMzpfBppaxQJZOEUHjy6zBv/s7Qd4iZ0EdeZ/BkX23QKSlHEHOp23BVKH1QLAIDkFYFWTBixTS
QOQrK0Ezi2PBTMj1QGjJIkH7DF7BMPZiQeZLXkGj2qHBf3CaQE1t50Cr+X7BovshQRh2SUEfaJ3B
yhgEQdKaFkGbU6HB9NafQGK49kABpZzBFi9UQJronEDe6ZPBAIh6QTBdH0HAAbrBjMKOQfnLH0Em
drnBWpXbQHggzEARVnXBcakLQTLqPEE4ZKrBRSLaQNOwFUEkKZPB5+LDQFIGvECAeJbBAghJQT7N
SkGXzqrB5wI/QQh2ZkFRH5TB48o4QYfKhUHk7s3BMzBcQQQogkEYjcXBHfEXQclShkEUr8LBjPuV
QdsvXUGQ/qHBSMeWQUSnPUExFK7BOcteQSVTfkF36rHBw3oaQYZcg0F2DK/B5WyEQXkgbEHweZzB
XaRoQTG6O0EMAq/BSDkVQTl4CkEcl4rBcrAkQRJi5UBTR4jBEEcxQUN/DEHAo4fBKutDQdYC7EAw
9aHBo41MQY6LAEE5TpXBBfc/Qal6zUDM8ZXBarOlQKK06kCyv7bBrFxvQLiD/UBria/BYHqKQCgo
DUEqDbvBzEyuQIMkL0HhzaPB23+PQOgRL0HG76/Bo2d5QJyrIEEHbKTBiA9OQaVkgkEIUaDBjaEx
QQ8phEGcKp/BTFwuQcsbFkFns6XBEqY2QejtIUFmRpnBSSlXQFjjtkAbln7BnUWgQF7PpUBlIoPB
EzoZQTzmaUGcl57B3O4iQcYCXkH8varBRtEQQcKIJkGa4JPBtanUQBsq7EAHqabBIJBIQLSy3kB0
U5DBd+wdQWRU70BnvpvB6izNQDSRFkF8lrHBIphkQVg9akHsl5zBpDKIQFDaAEESY3/BwyspQQcq
RkHEc5bBJ8IGQQhOEUG3wajBaTOEQJdrA0FChpzB/40hQEKElEAOfo/BbeNBQEcroUBegZvBriyA
QMfJhUDUk5PBO000QcXVbkEbuZDBYhh+Qdd1jEHe6KXBgXxyQUj9jEGJP5zB+KJ0QeDvh0EmFq/B
pV1kQVpdR0EdccrByZB1QS+eOkEN7sbBGWxdQZn3iEFevZvB44ZfQVwIhEGon67BA9RWQVZZUUFD
8sLBqKFrQaXNQUEha7TBy1l5QQ3GN0F+2rvB4c1TQYiFhEFd86TBTEpaQaGpTkEK3bfBB23UQEVm
CkFqCW7BALmFQUlZKkHF+bfBKXXHQBIL60Bh1HbB8WEWQYiOOkGBpKLBrJjkQNI3EUES45zBuQin
QD1N0UCs05bBBpdMQfVyWkGmp6XBF5AmQX0fBEGxRIzBCdFBQYML8UB8A5rB42aWQOc7A0FFTrTB
P3GaQC8mJUEBO6nBHQs9QewkgEH+gaTB8GYrQUVKGUG0zJ3BeiCNQG+WvkAXGYTByvgkQagoYEFP
UKLBEYYVQVfQJEHZ6pzBuY/FQOu6A0EXmaPBbrKAQIkJxEBD8o/BZJorQaTOAkGtY5jBqW6zQBYt
EUGtGq3B4b07QdL2aEHdI6DByFy6QHmXHEGpSG7BICn5QBeMDkGZ8GTB2JHUQOxbK0ENRmTBdKb4
QM1MI0El6V7BNQhMQVn6WEGY27DB9o6eQFTO5kANgX/BufgiQdBdSkH8E57BXxsFQeRXF0Hz0qHB
Mv2iQE0+9kD055zBHu9dQBJ8m0DbGZTB0V+HQZdOKEFLD67Bz7eLQdgNIUFfn77Bhk/gQFetzEDY
FnbBesgLQSj/PUECv6rBnLjcQFjzFUFWjJPB/CjIQMwevEDqz5bBKxFaQbp1UUEoHaDBXz4/QWA/
aUHiypTBUh6HQduFj0HvRabB2rx5QQ17kEHJOZXBn5F9QRh3h0G2d7bBI41hQdl8SUFv5tLBt+d/
QTP8MkGetMzBv6RUQVxJiUH6TZTB3z1YQX2lgEFNsLXBhbFJQYEjW0EhssXBKWduQdyiP0Ge9avB
GrsWQfNzC0HJG4vBbJcmQZrZ50CX04jB/soyQTvsDUF/Q4jB3mVFQWQs70DlnaLBgwtOQa5SAkET
ApbB8ddBQYCm0EArkpbBglKoQBEx6kCEBrfBqlV0QA8i/EDQuq/B0g6MQFygDEG+SLvBaUKvQPj8
LkHLHaTB6BqQQO+YLkHPMLDB1m18QJsJIEHgoqTB7XUzQXpahUFCR5/BG1U2QbNEgEFZpKzB/VIv
QfxSF0FkUqbBI6M3QclQI0Hv8JnBAythQO1utUAX+H7BGHilQOxOpUBoaoPBgB8ZQauNakH8ZZ7B
VwgiQVTyX0FO/arBFdERQVFsJ0EPapTBv6/XQHCT7EAJBqfBJ0tQQGAq3UDif5DB3XYfQVZq8UCK
RpzBS6rOQKqxFkEO87HBxa8/QVZYYEF4XrTBadeLQERgAEET2X/BsjcrQdatRkGUeZfB0awHQYcx
EkHmSanBeByHQNz3AkFHuJzB1NUrQLaqkkAvo4/BGxZLQLmXn0BLrZvBqHGFQCi9hECrzZPBWypL
QVR0YEEaF5PB

>  <OMEGA_E>  (15) 
LsOVP8uflD+3TZM/pDiRPw==

>  <OMEGA_NBR>  (15) 
     81021

$$$$
50169588
     RDKit          3D

 97 99  0  0  1  0  0  0  0  0999 V2000
   16.8145   10.5071  -18.2735 C   0  0  0  0  0  0  0  0  0  0  0  0
   15.5325   10.1506  -17.8070 C   0  0  0  0  0  0  0  0  0  0  0  0
   17.0122   11.7474  -18.9152 C   0  0  0  0  0  0  0  0  0  0  0  0
   15.0424   18.2884  -23.0658 C   0  0  0  0  0  0  0  0  0  0  0  0
   14.7168   19.4408  -22.3234 C   0  0  0  0  0  0  0  0  0  0  0  0
   14.4499   11.0379  -17.9733 C   0  0  0  0  0  0  0  0  0  0  0  0
   15.9294   12.6345  -19.0854 C   0  0  0  0  0  0  0  0  0  0  0  0
   14.4355   17.0543  -22.7613 C   0  0  0  0  0  0  0  0  0  0  0  0
   13.1851   18.1246  -20.9675 C   0  0  0  0  0  0  0  0  0  0  0  0
   13.7809   19.3652  -21.2648 C   0  0  0  0  0  0  0  0  0  0  0  0
   14.6479   12.2889  -18.6000 C   0  0  0  0  0  0  0  0  0  0  0  0
   13.4981   16.9591  -21.7109 C   0  0  0  0  0  0  0  0  0  0  0  0
    6.6886    8.7289  -15.3296 C   0  0  0  0  0  0  0  0  0  0  0  0
   13.4163   20.5684  -20.4651 C   0  0  0  0  0  0  0  0  0  0  0  0
    6.3130    7.3866  -15.8078 C   0  0  0  0  0  0  0  0  0  0  0  0
    9.4733   11.3958  -19.6120 C   0  0  0  0  0  0  0  0  0  0  0  0
    7.0683    9.2138  -19.3662 C   0  0  0  0  0  0  0  0  0  0  0  0
    5.0302    6.4367  -19.0931 C   0  0  0  0  0  0  0  0  0  0  0  0
   11.9856   15.3389  -20.4890 C   0  0  0  0  0  0  0  0  0  0  0  0
   10.4993    7.8047  -17.1163 C   0  0  0  0  0  0  0  0  0  0  0  0
   12.2469    7.2501  -18.8517 C   0  0  0  0  0  0  0  0  0  0  0  0
    4.6576    8.3480  -22.3213 C   0  0  0  0  0  0  0  0  0  0  0  0
    4.6495   10.4285  -20.8786 C   0  0  0  0  0  0  0  0  0  0  0  0
   13.4768   13.2325  -18.7977 C   0  0  0  0  0  0  0  0  0  0  0  0
   12.7915   12.9507  -20.1579 C   0  0  0  0  0  0  0  0  0  0  0  0
   10.8013    9.2907  -19.1964 C   0  0  0  0  0  0  0  0  0  0  0  0
    4.4847    5.8613  -16.6897 C   0  0  0  0  0  0  0  0  0  0  0  0
   10.4329   13.6951  -19.3295 C   0  0  0  0  0  0  0  0  0  0  0  0
    9.4240    9.9807  -19.0314 C   0  0  2  0  0  0  0  0  0  0  0  0
    6.1193    8.3975  -20.2423 C   0  0  2  0  0  0  0  0  0  0  0  0
    3.9352    5.9711  -18.1263 C   0  0  2  0  0  0  0  0  0  0  0  0
   10.8396    7.8419  -18.6261 C   0  0  0  0  0  0  0  0  0  0  0  0
    5.5105    9.2484  -21.3949 C   0  0  0  0  0  0  0  0  0  0  0  0
   11.5462   13.8610  -20.4184 C   0  0  1  0  0  0  0  0  0  0  0  0
    5.8083    9.8153  -15.2900 N   0  0  0  0  0  0  0  0  0  0  0  0
    7.8694    9.0736  -14.8878 N   0  0  0  0  0  0  0  0  0  0  0  0
    6.6310   10.8070  -14.7860 N   0  0  0  0  0  0  0  0  0  0  0  0
    7.8146   10.3807  -14.5530 N   0  0  0  0  0  0  0  0  0  0  0  0
   12.9265   15.6991  -21.4630 N   0  0  0  0  0  0  0  0  0  0  0  0
    4.9984    7.1617  -16.2183 N   0  0  0  0  0  0  0  0  0  0  0  0
   10.2328   12.3147  -18.9201 N   0  0  0  0  0  0  0  0  0  0  0  0
    8.4051    9.1929  -19.7127 N   0  0  0  0  0  0  0  0  0  0  0  0
    5.0813    7.7903  -19.4007 N   0  0  0  0  0  0  0  0  0  0  0  0
    3.4047    4.6572  -18.5517 N   0  0  0  0  0  0  0  0  0  0  0  0
   12.5762   20.4754  -19.5259 O   0  0  0  0  0  0  0  0  0  0  0  0
   13.9476   21.6797  -20.7312 O   0  0  0  0  0  0  0  0  0  0  0  0
    7.1496    6.4891  -15.8231 O   0  0  0  0  0  0  0  0  0  0  0  0
    8.8167   11.7147  -20.6009 O   0  0  0  0  0  0  0  0  0  0  0  0
    6.6564    9.8775  -18.4173 O   0  0  0  0  0  0  0  0  0  0  0  0
    5.8596    5.6415  -19.5279 O   0  0  0  0  0  0  0  0  0  0  0  0
   11.4899   16.1465  -19.7106 O   0  0  0  0  0  0  0  0  0  0  0  0
   11.0110   13.5105  -21.6982 O   0  0  0  0  0  0  0  0  0  0  0  0
   17.6453    9.8302  -18.1395 H   0  0  0  0  0  0  0  0  0  0  0  0
   15.3800    9.1977  -17.3222 H   0  0  0  0  0  0  0  0  0  0  0  0
   17.9934   12.0179  -19.2764 H   0  0  0  0  0  0  0  0  0  0  0  0
   15.7595   18.3515  -23.8709 H   0  0  0  0  0  0  0  0  0  0  0  0
   15.1832   20.3850  -22.5631 H   0  0  0  0  0  0  0  0  0  0  0  0
   13.4672   10.7611  -17.6211 H   0  0  0  0  0  0  0  0  0  0  0  0
   16.0795   13.5790  -19.5873 H   0  0  0  0  0  0  0  0  0  0  0  0
   14.6893   16.1754  -23.3354 H   0  0  0  0  0  0  0  0  0  0  0  0
   12.4750   18.0598  -20.1564 H   0  0  0  0  0  0  0  0  0  0  0  0
    9.4962    8.2265  -16.9555 H   0  0  0  0  0  0  0  0  0  0  0  0
   10.5204    6.7638  -16.7613 H   0  0  0  0  0  0  0  0  0  0  0  0
   11.2398    8.3972  -16.5589 H   0  0  0  0  0  0  0  0  0  0  0  0
   12.4886    7.2766  -19.9245 H   0  0  0  0  0  0  0  0  0  0  0  0
   12.9874    7.8426  -18.2944 H   0  0  0  0  0  0  0  0  0  0  0  0
   12.2680    6.2092  -18.4968 H   0  0  0  0  0  0  0  0  0  0  0  0
    5.2712    7.5112  -22.6864 H   0  0  0  0  0  0  0  0  0  0  0  0
    3.7978    7.9543  -21.7595 H   0  0  0  0  0  0  0  0  0  0  0  0
    4.2975    8.9388  -23.1764 H   0  0  0  0  0  0  0  0  0  0  0  0
    5.2578   11.0665  -20.2207 H   0  0  0  0  0  0  0  0  0  0  0  0
    4.2893   11.0207  -21.7327 H   0  0  0  0  0  0  0  0  0  0  0  0
    3.7896   10.0361  -20.3158 H   0  0  0  0  0  0  0  0  0  0  0  0
   12.7493   13.0849  -17.9860 H   0  0  0  0  0  0  0  0  0  0  0  0
   13.8392   14.2710  -18.7809 H   0  0  0  0  0  0  0  0  0  0  0  0
   13.5238   13.1212  -20.9607 H   0  0  0  0  0  0  0  0  0  0  0  0
   12.4666   11.8999  -20.1750 H   0  0  0  0  0  0  0  0  0  0  0  0
   11.0447    9.2500  -20.2683 H   0  0  0  0  0  0  0  0  0  0  0  0
   11.5578    9.8923  -18.6711 H   0  0  0  0  0  0  0  0  0  0  0  0
    3.6773    5.5296  -16.0203 H   0  0  0  0  0  0  0  0  0  0  0  0
    5.3013    5.1245  -16.6723 H   0  0  0  0  0  0  0  0  0  0  0  0
   10.7182   14.2840  -18.4454 H   0  0  0  0  0  0  0  0  0  0  0  0
    9.4860   14.0797  -19.7364 H   0  0  0  0  0  0  0  0  0  0  0  0
    9.1902   10.0450  -17.9585 H   0  0  0  0  0  0  0  0  0  0  0  0
    6.7055    7.5905  -20.7062 H   0  0  0  0  0  0  0  0  0  0  0  0
    3.1220    6.7118  -18.1336 H   0  0  0  0  0  0  0  0  0  0  0  0
   10.1052    7.2298  -19.1700 H   0  0  0  0  0  0  0  0  0  0  0  0
    6.3394    9.6627  -21.9876 H   0  0  0  0  0  0  0  0  0  0  0  0
   13.2327   14.9598  -22.0627 H   0  0  0  0  0  0  0  0  0  0  0  0
    4.3623    7.9329  -16.1913 H   0  0  0  0  0  0  0  0  0  0  0  0
   10.6773   12.0105  -18.0775 H   0  0  0  0  0  0  0  0  0  0  0  0
    8.6887    8.6062  -20.4712 H   0  0  0  0  0  0  0  0  0  0  0  0
    4.3699    8.3855  -19.0271 H   0  0  0  0  0  0  0  0  0  0  0  0
    2.6918    4.3630  -17.9151 H   0  0  0  0  0  0  0  0  0  0  0  0
    3.0188    4.7355  -19.4710 H   0  0  0  0  0  0  0  0  0  0  0  0
    4.1448    3.9848  -18.5571 H   0  0  0  0  0  0  0  0  0  0  0  0
   10.7305   12.6029  -21.6869 H   0  0  0  0  0  0  0  0  0  0  0  0
  1  2  2  0
  1  3  1  0
  2  6  1  0
  3  7  2  0
  4  5  2  0
  4  8  1  0
  5 10  1  0
  6 11  2  0
  7 11  1  0
  8 12  2  0
  9 10  2  0
  9 12  1  0
 10 14  1  0
 11 24  1  0
 12 39  1  0
 13 15  1  0
 13 35  1  0
 13 36  2  0
 14 45  1  0
 14 46  2  0
 15 40  1  0
 15 47  2  0
 16 29  1  0
 16 41  1  0
 16 48  2  0
 17 30  1  0
 17 42  1  0
 17 49  2  0
 18 31  1  0
 18 43  1  0
 18 50  2  0
 19 34  1  0
 19 39  1  0
 19 51  2  0
 20 32  1  0
 21 32  1  0
 22 33  1  0
 23 33  1  0
 24 25  1  0
 25 34  1  0
 26 29  1  0
 26 32  1  0
 27 31  1  0
 27 40  1  0
 28 34  1  0
 28 41  1  0
 29 42  1  0
 30 33  1  0
 30 43  1  0
 31 44  1  0
 34 52  1  6
 35 37  1  0
 36 38  1  0
 37 38  2  0
  1 53  1  0
  2 54  1  0
  3 55  1  0
  4 56  1  0
  5 57  1  0
  6 58  1  0
  7 59  1  0
  8 60  1  0
  9 61  1  0
 20 62  1  0
 20 63  1  0
 20 64  1  0
 21 65  1  0
 21 66  1  0
 21 67  1  0
 22 68  1  0
 22 69  1  0
 22 70  1  0
 23 71  1  0
 23 72  1  0
 23 73  1  0
 24 74  1  0
 24 75  1  0
 25 76  1  0
 25 77  1  0
 26 78  1  0
 26 79  1  0
 27 80  1  0
 27 81  1  0
 28 82  1  0
 28 83  1  0
 29 84  1  1
 30 85  1  6
 31 86  1  1
 32 87  1  0
 33 88  1  0
 39 89  1  0
 40 90  1  0
 41 91  1  0
 42 92  1  0
 43 93  1  0
 44 94  1  0
 44 95  1  0
 44 96  1  0
 52 97  1  0
M  CHG  3  35  -1  44   1  45  -1
M  END
>  <OMEGA_C>  (16) 
G4SGQUgdKEE4MJLB94R4QQVpIkG8dI7BBBmIQVn1O0FRUpfBf61wQZlOkkHFhrjBLHhrQdeGm0FP
lrLB8TJnQTybMEFOyY/Bo95+QR0nSkH6rpjBAPhmQTFviEE2F7bBLfZSQT//kEF4vafBZn5cQfXr
mkFAHqrBsV1qQYmfREGzzJTBI/hXQVSsh0Hsr63B3wjWQK2pC0H1RXXBT6lWQf2LpEF5uKPBtAPK
QEdf7EDW7HzBfJIXQT5VNkFr5ZzBvC/iQJtrE0Hw7ZrBVvegQDn5zUCmvpjBNsU/QTFsdUFg6aPB
HP0nQTDA+UAb7ojBSfNDQQgB6EBf0JbBdAuVQI2RBUEakrLBnMiUQArbJkFGB6fBJaFXQW24U0G0
YZbB96lMQQE2T0FJQ6HBG9IsQcqmFEEgkpnBh4KPQHePu0B0hIXBJO0mQfIeW0HooprBxcgWQc6w
H0FKQJjBWNHDQBZcBkEx8KHB4tp7QBcTv0C3ApHB+24tQQvx+kAsApXBzVWwQJX5E0HSKKvBTb04
QYjGXUH2WKPB2t25QFgLHUHRo3TBENL7QKYtEUE7NG7B5zDUQGbpLEF7k2zBIhH6QD4XJkEw2WjB
FtNOQZ0ve0EutKvBi/KfQP8s5UArv4HBtLkjQQEJRUFLXJfBfXsGQSoWE0Gis53BUZqiQOpJ+UCM
NJvB3+VZQMgHlUD7aZTBEjhJQafNo0EZNZzBUClfQQhwrUF52aXB3snkQBSnz0A4K33BBxENQY9v
O0GgzqTBQAHVQBoKHkGjVpPBBIK7QHCHtEA7OZzBfdY3QQ8sgUFkr53B9CwwQRMrWEH+la3BiymN
QZlIHUGhHZHBahR2QbApE0Hmk4rBkvKPQSxJQEH7NZrBuSZ8QdbPkkGf977BaO5yQYAUo0ErgbTB
yXlXQVEtLEH594zBwaKAQZdDWUHQspzBdQdrQTNngUHcrrrBqplHQWB6kEE6QKHBbvAXQeefA0HD
pIfBjFMoQb5w2EAxF4bBENYzQQ1bBkGreITBgdFHQdDZ6EBsZZ/BUsxPQeX2+kD6WpLBzUlEQYix
xkB/+ZPB6K2oQB1c8EDVfbXBSA9zQFCJ/kCKE67BwYSJQIIFD0FbabnBBUCoQIYQMUHpw6HB30GJ
QLNUMEGN3K3Bg4lyQNmTIEG8hqLBJf1LQdNbUUFK44/Bhm1dQe9VZEFeP5bBjGFYQW7wUUGbr6fB
TXdHQfRlPkFcZqHBPLcwQSMAFEF8JaLBn+w4QdRGHkF4XpXBj1hrQF7ysECIKYDBBKSpQIv7o0D2
YIXBzX0rQWqLZEEzkJPBwsYXQUdGYUEc5J3B9woTQVa4IEHtqo/BQJPWQHnl8kBCpqXB485HQLXG
1kCSEZHBvK4hQVJa50AtXJnBotzKQFiaGkGN5q/BQLlTQX9bb0F5gLDBVpiLQLfa/UDSh4HBQdYq
QeAqQEHBnpDB8gQLQfmyCUEXxaPB9tWLQOQqBkF8N5jBOkcsQOidi0ANUo/BjjNBQOOIl0CMxJvB
iKKEQEIHf0DtdJTBFbArQaGlSUHafq3BDn6GQUzhJ0FbPZLBR3d4QWQ3IkESgI7B0BaIQYO3O0ER
YJfBLMRcQYz+mkHDMKrBvZdrQRuZm0FRmLLBlitnQXJyMEEy04/BneB+QerxSUE6u5jBMvpSQRc5
kUH1qafB5OFmQTODiEGAArbBE9ZwQU1dkkEbmLjB4V1qQX11REEi15TBI+dXQb/Vh0E9la3BAPvV
QHakC0EvQ3XBLkuAQUgNk0EQfMHBu+bJQHdW7ECP5nzB0Z0XQT9RNkGH65zBrSTiQBFkE0GH7ZrB
i8igQIHyzUCwuZjB5tQ/QZyidUFz1qPBS+snQWWd+UCT8IjBJtpDQUm450AV05bBoeGUQPKEBUGE
i7LBKMKUQOjUJkHjBafB/alXQZafU0EHZZbBDLJMQQJLT0HFSqHBlsssQRWRFEFtlZnBSlKPQDSX
u0CPfoXBavYmQdcoW0Hbo5rBNcgWQS+qH0EbRZjBwLvDQLlRBkG57KHB63V7QEscv0Cd/JDBDVst
Qb/E+kDTBJXBND6wQFPsE0FSJqvBb8g4QXPsXUHsVKPBltu5QBgLHUHpo3TBf8j7QFojEUFCM27B
ojnUQAjmLEFilmzB8hX6QEsOJkEm3GjBKMpOQeV6e0GaoKvBy9GfQJsw5UDguoHBi8sjQWAGRUHO
Y5fBOnQGQXATE0HAt53BlIKiQLND+UCCLpvBDmBZQNcUlUA9YpTBg6OCQSfKikGLycbBtJeEQV3r
m0FvrcPBY6PkQF6Vz0CKJH3BJhoNQV5tO0GU06TBrf/UQEEBHkHKVJPBe0S7QPZztEBzNZzBsA04
QQlKgUHlkp3B9DcwQcxeWEG6lK3BDSGNQUMGHUGwK5HBdAB2QVj5EkH3norB2/CPQWYDQEFfRZrB
r+BYQTQVokE4pqXBogxzQREoo0FXf7TBXXFXQUYMLEFRAI3B7KaAQfoMWUFvv5zBcJtHQRrUkEF1
K6HBxM5qQT9tgUEfjLrB6uIXQT+YA0GjpofBWTgoQUVO2EApGYbBy8ozQR9DBkEGfITB97dHQVKJ
6EA6aJ/BQLlPQWSh+kBWXpLBziZEQWppxkB4+5PBPHeoQF448ECYdrXBcbxyQF5//kAiCq7BPVqJ
QOj2DkFjY7nB7UWoQE0KMUFYxaHBwDqJQFlMMEHd263Bd31yQCCVIEGcgqLBCAFMQas2UUH56Y/B
2YFdQYk4ZEHhNJbB3WtYQW0YUkEGtKfBtXhHQah9PkGSfaHBw7EwQQjnE0GaKKLBMes4QVQqHkGO
YZXB+vNqQIkFsUDYIoDBk2upQDj6o0DpWoXBAXwrQdSNZEHjjJPBTM4XQRlLYUFv5Z3BKQoTQc21
IEHlr4/Bg3bWQAvJ8kCyoaXB/npHQEPZ1kCpC5HBY5QhQfo650AhXpnBGMTKQMeFGkHt5q/BNapT
QaSzb0FTdrDB+3+LQEbl/UDGg4HBjfUqQZIhQEEKq5DBo/gKQWG2CUGDzKPB6M2LQL4tBkHALpjB
mb0rQOG1i0CWSY/BPatAQJOWl0CpvJvB0leEQDIQf0DqbJTBfL0rQX7YSUETg63B

>  <OMEGA_E>  (16) 
hq2NP7zvjT8=

>  <OMEGA_NBR>  (16) 
     84336

$$$$
50169593
     RDKit          3D

 97 99  0  0  1  0  0  0  0  0999 V2000
   17.4142   11.2382  -21.6536 C   0  0  0  0  0  0  0  0  0  0  0  0
   16.8907   11.0838  -20.3533 C   0  0  0  0  0  0  0  0  0  0  0  0
   16.9567   12.2865  -22.4786 C   0  0  0  0  0  0  0  0  0  0  0  0
   11.8949   17.8739  -25.1205 C   0  0  0  0  0  0  0  0  0  0  0  0
   12.0684   19.1848  -24.6346 C   0  0  0  0  0  0  0  0  0  0  0  0
   15.9148   11.9815  -19.8746 C   0  0  0  0  0  0  0  0  0  0  0  0
   15.9804   13.1849  -22.0015 C   0  0  0  0  0  0  0  0  0  0  0  0
   11.8483   16.7882  -24.2243 C   0  0  0  0  0  0  0  0  0  0  0  0
   12.1492   18.3234  -22.3582 C   0  0  0  0  0  0  0  0  0  0  0  0
   12.1963   19.4180  -23.2440 C   0  0  0  0  0  0  0  0  0  0  0  0
   15.4683   13.0440  -20.6921 C   0  0  0  0  0  0  0  0  0  0  0  0
   11.9757   17.0027  -22.8343 C   0  0  0  0  0  0  0  0  0  0  0  0
    6.6037    8.6571  -14.8809 C   0  0  0  0  0  0  0  0  0  0  0  0
   12.3804   20.7933  -22.7044 C   0  0  0  0  0  0  0  0  0  0  0  0
    6.1803    7.3617  -15.4391 C   0  0  0  0  0  0  0  0  0  0  0  0
    9.4522   11.6076  -20.2880 C   0  0  0  0  0  0  0  0  0  0  0  0
    7.1535    9.0799  -19.6056 C   0  0  0  0  0  0  0  0  0  0  0  0
    5.1818    6.5861  -18.8774 C   0  0  0  0  0  0  0  0  0  0  0  0
   12.0045   15.8068  -20.5947 C   0  0  0  0  0  0  0  0  0  0  0  0
   10.3956    8.1956  -17.4961 C   0  0  0  0  0  0  0  0  0  0  0  0
   12.1064    7.4528  -19.2000 C   0  0  0  0  0  0  0  0  0  0  0  0
    4.7276    8.2753  -22.5649 C   0  0  0  0  0  0  0  0  0  0  0  0
    4.8830   10.3845  -21.1672 C   0  0  0  0  0  0  0  0  0  0  0  0
   14.4111   14.0028  -20.1820 C   0  0  0  0  0  0  0  0  0  0  0  0
   12.9894   13.4654  -20.4946 C   0  0  0  0  0  0  0  0  0  0  0  0
   10.7361    9.5181  -19.6798 C   0  0  0  0  0  0  0  0  0  0  0  0
    4.3427    6.0087  -16.5452 C   0  0  0  0  0  0  0  0  0  0  0  0
   10.4593   13.8983  -20.2927 C   0  0  0  0  0  0  0  0  0  0  0  0
    9.3767   10.2531  -19.5770 C   0  0  2  0  0  0  0  0  0  0  0  0
    6.1776    8.2634  -20.4608 C   0  0  2  0  0  0  0  0  0  0  0  0
    3.9699    6.1899  -18.0290 C   0  0  2  0  0  0  0  0  0  0  0  0
   10.7246    8.1121  -19.0081 C   0  0  0  0  0  0  0  0  0  0  0  0
    5.6425    9.1226  -21.6499 C   0  0  0  0  0  0  0  0  0  0  0  0
   11.8758   14.4165  -19.9504 C   0  0  2  0  0  0  0  0  0  0  0  0
    5.8102    9.8087  -14.8998 N   0  0  0  0  0  0  0  0  0  0  0  0
    7.7507    8.8934  -14.3005 N   0  0  0  0  0  0  0  0  0  0  0  0
    6.6397   10.7143  -14.2627 N   0  0  0  0  0  0  0  0  0  0  0  0
    7.7546   10.1891  -13.9188 N   0  0  0  0  0  0  0  0  0  0  0  0
   11.9253   15.8790  -21.9956 N   0  0  0  0  0  0  0  0  0  0  0  0
    4.9052    7.2542  -15.9937 N   0  0  0  0  0  0  0  0  0  0  0  0
   10.2449   12.5801  -19.7078 N   0  0  0  0  0  0  0  0  0  0  0  0
    8.3476    9.4288  -20.2031 N   0  0  0  0  0  0  0  0  0  0  0  0
    5.0793    7.7417  -19.6389 N   0  0  0  0  0  0  0  0  0  0  0  0
    3.3991    4.9341  -18.5576 N   0  0  0  0  0  0  0  0  0  0  0  0
   12.4843   20.9755  -21.4587 O   0  0  0  0  0  0  0  0  0  0  0  0
   12.4317   21.7734  -23.4950 O   0  0  0  0  0  0  0  0  0  0  0  0
    6.9393    6.3988  -15.3887 O   0  0  0  0  0  0  0  0  0  0  0  0
    8.8155   11.8295  -21.3162 O   0  0  0  0  0  0  0  0  0  0  0  0
    6.8964    9.3838  -18.4426 O   0  0  0  0  0  0  0  0  0  0  0  0
    6.2068    5.9085  -18.8662 O   0  0  0  0  0  0  0  0  0  0  0  0
   12.1418   16.7842  -19.8676 O   0  0  0  0  0  0  0  0  0  0  0  0
   11.9980   14.5095  -18.5232 O   0  0  0  0  0  0  0  0  0  0  0  0
   18.1659   10.5535  -22.0178 H   0  0  0  0  0  0  0  0  0  0  0  0
   17.2375   10.2775  -19.7240 H   0  0  0  0  0  0  0  0  0  0  0  0
   17.3542   12.4011  -23.4763 H   0  0  0  0  0  0  0  0  0  0  0  0
   11.7973   17.7010  -26.1821 H   0  0  0  0  0  0  0  0  0  0  0  0
   12.1041   20.0145  -25.3251 H   0  0  0  0  0  0  0  0  0  0  0  0
   15.5081   11.8570  -18.8819 H   0  0  0  0  0  0  0  0  0  0  0  0
   15.6237   13.9816  -22.6374 H   0  0  0  0  0  0  0  0  0  0  0  0
   11.7144   15.7855  -24.6025 H   0  0  0  0  0  0  0  0  0  0  0  0
   12.2473   18.4958  -21.2966 H   0  0  0  0  0  0  0  0  0  0  0  0
    9.4105    8.6657  -17.3601 H   0  0  0  0  0  0  0  0  0  0  0  0
   10.3806    7.1825  -17.0678 H   0  0  0  0  0  0  0  0  0  0  0  0
   11.1625    8.7977  -16.9869 H   0  0  0  0  0  0  0  0  0  0  0  0
   12.3392    7.3938  -20.2734 H   0  0  0  0  0  0  0  0  0  0  0  0
   12.8736    8.0548  -18.6910 H   0  0  0  0  0  0  0  0  0  0  0  0
   12.0917    6.4396  -18.7719 H   0  0  0  0  0  0  0  0  0  0  0  0
    5.2728    7.3820  -22.9035 H   0  0  0  0  0  0  0  0  0  0  0  0
    3.8324    7.9679  -22.0045 H   0  0  0  0  0  0  0  0  0  0  0  0
    4.4265    8.8736  -23.4374 H   0  0  0  0  0  0  0  0  0  0  0  0
    5.5393   10.9819  -20.5174 H   0  0  0  0  0  0  0  0  0  0  0  0
    4.5822   10.9865  -22.0373 H   0  0  0  0  0  0  0  0  0  0  0  0
    3.9880   10.0807  -20.6044 H   0  0  0  0  0  0  0  0  0  0  0  0
   14.5227   14.1183  -19.0938 H   0  0  0  0  0  0  0  0  0  0  0  0
   14.5436   14.9797  -20.6700 H   0  0  0  0  0  0  0  0  0  0  0  0
   12.8761   13.3719  -21.5848 H   0  0  0  0  0  0  0  0  0  0  0  0
   12.8722   12.4764  -20.0276 H   0  0  0  0  0  0  0  0  0  0  0  0
   10.9880    9.3956  -20.7436 H   0  0  0  0  0  0  0  0  0  0  0  0
   11.5046   10.1338  -19.1895 H   0  0  0  0  0  0  0  0  0  0  0  0
    3.4409    5.7372  -15.9769 H   0  0  0  0  0  0  0  0  0  0  0  0
    5.0883    5.2050  -16.4557 H   0  0  0  0  0  0  0  0  0  0  0  0
    9.7109   14.5983  -19.8928 H   0  0  0  0  0  0  0  0  0  0  0  0
   10.3520   13.8317  -21.3854 H   0  0  0  0  0  0  0  0  0  0  0  0
    9.1380   10.4154  -18.5156 H   0  0  0  0  0  0  0  0  0  0  0  0
    6.7319    7.4149  -20.8882 H   0  0  0  0  0  0  0  0  0  0  0  0
    3.2168    6.9883  -18.1023 H   0  0  0  0  0  0  0  0  0  0  0  0
    9.9626    7.4917  -19.5027 H   0  0  0  0  0  0  0  0  0  0  0  0
    6.5074    9.4526  -22.2441 H   0  0  0  0  0  0  0  0  0  0  0  0
   11.8174   15.0016  -22.4631 H   0  0  0  0  0  0  0  0  0  0  0  0
    4.3356    8.0757  -16.0189 H   0  0  0  0  0  0  0  0  0  0  0  0
   10.6954   12.3682  -18.8405 H   0  0  0  0  0  0  0  0  0  0  0  0
    8.5199    9.0935  -21.1293 H   0  0  0  0  0  0  0  0  0  0  0  0
    4.2145    8.2436  -19.6271 H   0  0  0  0  0  0  0  0  0  0  0  0
    2.6069    4.6699  -18.0075 H   0  0  0  0  0  0  0  0  0  0  0  0
    3.1152    5.0706  -19.5066 H   0  0  0  0  0  0  0  0  0  0  0  0
    4.0891    4.2113  -18.5168 H   0  0  0  0  0  0  0  0  0  0  0  0
   12.1173   15.4184  -18.2737 H   0  0  0  0  0  0  0  0  0  0  0  0
  1  2  2  0
  1  3  1  0
  2  6  1  0
  3  7  2  0
  4  5  2  0
  4  8  1  0
  5 10  1  0
  6 11  2  0
  7 11  1  0
  8 12  2  0
  9 10  2  0
  9 12  1  0
 10 14  1  0
 11 24  1  0
 12 39  1  0
 13 15  1  0
 13 35  1  0
 13 36  2  0
 14 45  1  0
 14 46  2  0
 15 40  1  0
 15 47  2  0
 16 29  1  0
 16 41  1  0
 16 48  2  0
 17 30  1  0
 17 42  1  0
 17 49  2  0
 18 31  1  0
 18 43  1  0
 18 50  2  0
 19 34  1  0
 19 39  1  0
 19 51  2  0
 20 32  1  0
 21 32  1  0
 22 33  1  0
 23 33  1  0
 24 25  1  0
 25 34  1  0
 26 29  1  0
 26 32  1  0
 27 31  1  0
 27 40  1  0
 28 34  1  0
 28 41  1  0
 29 42  1  0
 30 33  1  0
 30 43  1  0
 31 44  1  0
 34 52  1  1
 35 37  1  0
 36 38  1  0
 37 38  2  0
  1 53  1  0
  2 54  1  0
  3 55  1  0
  4 56  1  0
  5 57  1  0
  6 58  1  0
  7 59  1  0
  8 60  1  0
  9 61  1  0
 20 62  1  0
 20 63  1  0
 20 64  1  0
 21 65  1  0
 21 66  1  0
 21 67  1  0
 22 68  1  0
 22 69  1  0
 22 70  1  0
 23 71  1  0
 23 72  1  0
 23 73  1  0
 24 74  1  0
 24 75  1  0
 25 76  1  0
 25 77  1  0
 26 78  1  0
 26 79  1  0
 27 80  1  0
 27 81  1  0
 28 82  1  0
 28 83  1  0
 29 84  1  1
 30 85  1  6
 31 86  1  1
 32 87  1  0
 33 88  1  0
 39 89  1  0
 40 90  1  0
 41 91  1  0
 42 92  1  0
 43 93  1  0
 44 94  1  0
 44 95  1  0
 44 96  1  0
 52 97  1  0
M  CHG  3  35  -1  44   1  45  -1
M  END
>  <OMEGA_C>  (17) 
YlCLQbnPM0GeOq3BOSCHQRJXMUGa06LBR6eHQWeVREFA1LPBVlE+QbP9jkHC9sjBWxhBQXB6mUGf
E8XBLaN+QSK0P0E6/57B3q9/QT/1UkECA7DBppI9QTdOhkFqy8HB9GJCQVmWkkGu3bLB+CNDQSRY
m0Gw87nBEn53QRG0UEFeiaXBS5w/QZkFiEGfrLbBxFHTQG6DCkEcGG7BBxZGQaxYpkGgorXBIsXF
QEeT60BpBnfBGTwXQce4OUHGTaLBtOnkQHdHEUFO2JzBNdGlQJrB0kDeBJfBYxJAQZLofEEDwqTB
YlQmQS8hA0EN+IvBtLNBQR197kCVmZnBiUiXQMBnBEHShLTBh0GcQOEmJkFeVqnB45NmQYsLYEHV
dKHBqdRPQUxyV0EG9aPB3cYrQUdKGEFHcJ3BGveKQHhHwECEXITBJ1knQW5fXkF8V6LByQYWQa0M
JEHMnZzB1K7FQA03BEG0r6PB7BJ+QGETxkBoO5DBxpcrQR/LAUGmEJjBoI+0QBP2EUELM63BJQM+
QSOqZkGFmp/B0+y5QILwHEGIZW7BJAb4QDZLDkHazmTBPXjUQMxtK0EUNGTBsyX4QFsGI0Fos17B
JM4+QUUQfkHy9q/Bt/ecQDci6EBG5n/BHusjQUBISUGUqZ3B+I8FQU/cFkHrn6HB5omiQOS790CL
HJ3BootZQM/jnUDvdZTB1b9HQeDNp0Fbq6vBVehGQfgvrkG+9bvB2A7eQOPCzEBNOHbBNQwNQZRF
PUGgh6rBs6/cQNwjFkGEipPBJJ7GQMASvUDi7ZbB2ERCQQ1GhkG/8J7BAfg/QegmaEGSL5TBs1OR
QQ/bKEFoJLDBe+aJQYRwJEHIyp3BY9WKQehqRkFgz7vBusE8QcCbjUHvdNHBeqpBQZ8doEG4mcrB
DCF4QSC2PUEyDpfBtvp5QYy0X0FlGbXBIm47QVeRfEH/0cTB2vRDQVb3k0F0X6rBOZEWQaqmCkF1
4YrB+hYmQV/X5UDLiojBmpkyQWvDDEEd5YfBdG1FQSma7EAFMKLBIPpNQUTgAEE+h5XBgHdBQRIR
zkDsLJbB27qoQC857EBcOrfBUEV1QNP4/kA1CbDB4KWNQHj6DUHPf7vBS0KxQBG2L0GNI6TBHaGS
QKzIL0FcTLDByzt/QJ5KIUHC1aTB3VxoQaTkYUErwJjBj7JoQQutb0ETXKXBZwROQTDzVUGhrazB
gfRNQU6fR0GNOKDBxM4vQYVUFkHN8qXBphI4QQEkIkEwhJnB7DZcQNCWt0AwoX/BoNOiQGGPpkA/
pYPBr18bQYiSaUF7JJ/Bv6ElQYxOXUFkFavBYjUSQY2lJkHqH5TB+2vXQN5G7UAPG6fBQuBNQBKg
30CA0ZDB72YfQdW770BzBZzB4jzQQNM9F0Hn87HB/BM9QYEGcEFctLPBXb2KQA82AUGfJoDBdiAr
QU7kRUFyuZbBWlEIQeJ+EUHZCKnBRt2GQOPlA0FiBJ3BOdgmQMdvlUBID5DBGl9HQIJCokCbDZzB
09mCQFfDhkBiIpTBVeBBQZSxdkGGMJLB6tNtQYy0lUGWjMHBvGZxQeGzikGFScPBWgRlQT89mUFf
yLfBg8w7QRIsiUGe2W/BRcYtQffykUGV2m/BZkxsQUU8g0FpO7vBGuVfQTTIkUHiuK/BIHw+Qe36
gkHSMoHBJ/skQfJdjkG1nIrBwTMiQbmnlEG7RYHBkMljQTrGhkHoX7HBvg0zQX+ChUEdrYrB9NLV
QO97C0GKm27B8F8TQZ/6nUG/O4HB2gjHQHqQ7UCqF3fB6ZUXQcLFOEEHbaPB8cPkQB0QEUFEL53B
qmykQD3W00DezJbBVyxBQbBYbUHGp5bBVIAmQYhUAkGUwIzB5Q1BQccM60BdlJrB99aUQJo0BEEG
ZrTBVgycQKk9JkEShqnBg/FdQfV8fUGNyqjB1q1GQYCwdUHjc6rBkr8rQZQPF0GYYJ7Bsp6KQIsP
w0BL84PBsPgoQdziXEFHoKTBIkYWQY9UI0Hfc53BDorEQE8UBEEbyaPBws57QB9tyEB3yI/BBkUr
QfWlAEEU45jBwjyzQDOvEUHtVK3BmR9AQbNOZEE5MaLBuTm9QIUtHkFg8m7BUAr7QAQAD0FxvGXB
ycnYQFmGLEEqPWXB3038QHnQI0HF81/BVdQ0QaOAf0FSTpTBedOdQBzC6kB6i3/BWnQkQaelSEHA
IZ/BmWMFQf81FkG/LqLBSomhQGuU+EBJ/pzBRttUQPdpoECPxZPBARYJQXJdoEGIlYnBvCsRQbV2
o0GFp3HBRK7eQGdBzkCDS3bBZGANQcnYO0HfsKvBv3HdQAE9FkGD4JPB0LbEQBhmvUCPy5bBnsFM
QaaOZEGPEZDBJV5OQY5iUkGaTaPBZ9dxQextm0Gzs8fBNQx4QW//h0EyysrBdTFiQa+poUGperbB
g5BEQcEsh0ERgWHBOM8rQXuplkFHgWHBLuVuQR2bdUFKmLzBZv1YQXR8lEElR6jBiFFJQcR/eEGC
HoHBzjccQXpfkEGQyJHBHPkWQWRCCkFIjYvBCP4lQVBj5EB0P4nBUygzQZ66C0Hh1ojB2W1EQTWs
6EAeMqPBELdNQdLX/UBGq5bBxYxAQebFykDZE5fBfHqlQLJL60DVErfBALNwQB12/0Bkva/BLA+L
QFunDUGoaLvBNNOxQDnAL0E0gaTBeEeSQCK+L0FRhLDBmSN/QNXRIUEN2aTBeORoQfG8b0EJPqnB
rllfQTyKgkEb4qDBiM87QeO3gUFZo6nBeDlFQZfybkGCjLLBtngvQXTZFEEj6KbBhF84QQ64IEFo
mZrBHt9bQD1Gu0C7eH7BMPehQGvdqECOQIPBeaUdQeApaUFF2qHBCyAnQS6dWkGwTa3B4NUSQftc
JkHb9JTB3oHVQKxz7ED3K6fBrKtMQPd44kDMWZDB+bEeQbzi7UBBrZzBV7/OQISGFkFgQrLBOP8r
QXKJgkH2XZrBKCiMQF22AkF69n/BE/wqQacvRkHQ7pfB68YHQb+OEEEbkqnB8D6GQEajBEHa0ZzB
PHwiQJ7KmEAoOI/BC7VBQC6KpEDQVZvBfgKAQLDRiECMdpPBCUtVQZK7T0FGq5zBoXI7Qdv4o0Fp
4KzBP149QVCIn0HCjKLBC7oxQZALnkGfJ7XBZEmEQehmQEHQOJvBfbeFQWmpLkFxBaLBw3E1QYYw
lUEXeqDBicwpQR2zk0HLGLPBq0Z1QXgITEGxdJvBnKZnQSwgNEFkP6nBR+t6QSNiKEFRG6nBPWcr
QWBRj0HJt6jBCKBkQf0PRkGhe6LBDiXVQHcpDEGQ0nTBqpl9QfuyFUGHYbDBOr7JQIJO7UAJn3zB
upkVQe8JOEEgVJzBmcHgQDZmFEGYe5rBStygQHYFz0DinZjBXl4/QQ+NUEEZpKjBu98nQb6S/EC0
2IjB7/tDQZ877UBg2pbBhzmUQAR7BkFZTLLBJ9aSQBuJJ0Fgm6bBKBojQf40hEFbhqbBWxU1QeDB
d0E6WKjB0zYsQfQAF0GnLJnBIumPQDnNu0DlaYXBP8wjQZvBXUHzHpvBb+YVQRtjIUHGppfB+uDC
QJtOB0HZoaHBMEl8QB1ev0CC45DBKFEtQdIs/0Dw6ZTBhQmvQET0FEG1zarBoOssQfWSYEGNrabB
pW64QKBPHUFt/XPBw8/6QCnsEUFlym3B51DSQExSLUGs2mvB32/4QG/GJkFyQ2jBAeJRQTKEUkGo
XKLBZ8GfQDqP5UC2lIHBtqwiQfZWR0HRpZfBgOEFQbIyFEEpD53BQdqhQD5u+kDf+5rBbo1bQDQq
lUDsWpTBJqVuQe1hEEH1orbBoGyHQUs/C0GhR7DBoPTkQIIC0UCFA33BFB0JQUqsPEG9jKPBSP3S
QKQBH0GR9JLB6MG7QF4XtkDyJ5zB57M8Qak0QkGKNK/BelYcQdkJXUE3aK7BYm5BQX3sq0G8cq7B
hulEQcQPpEGGO5zBYFwwQSZwoUFAEr3BkZqKQUAZRUHG0JXBMSONQdjRJUEa1KHBMww3QbrAkUEp
l5jBEYAiQasfj0HOc7nBBjNzQSmfWUFzOJbBIPhaQYdbL0FInK7Bf7UXQYqwBEE4e4fBj38oQboA
20DoN4bBYI0zQfS9B0HBQ4TBnNFHQTQc70DFbZ/BQq1PQWMRAEFBR5LBcZ9EQZmny0BoO5TBYEeo
QGeX8kCxRbXB2rxxQCHI/0Db2K3Bd3eIQJD5D0GYGbnBceqlQPDNMUHhSKHB/BOHQC0KMUG6Z63B
5PVuQK70IEH9JqLBY48dQe65g0G0L57Bc64VQS17gkEz86vB7Bs7QUtfeUHEkrDBbiZCQcPkekFi
qaLBtQ4wQXPoFkENw6HB0B84QQmtIEHl3JTBCJpsQP+ksEAyD4DBZ2aqQHWfpECtVYXBnScuQQiM
ZkGfhpXBuZETQWONZEHP5JrBElkSQUI+IkEPC4/ByBHWQOg69UDbZKXB3INHQLKq1kAI45DBfbwh
QcGc60CZYpnB+WPJQBzgG0EIgK/BublRQeF4XkHLC53BSwiLQDDr/UAfT4HB6+orQWDRQkGEhZHB
PMAKQeKBCkHa8KLBcbmKQCSBBkEL/JfBBlYuQFNCi0CLQ4/BDKBCQGivl0BJspvBDMqFQGAEgEB0
c5TBV+4fQbcQUUEKu7LBtyNkQTNxnEGiobDB2lZTQW4+mEHI4bbB1mBvQYm/lUEvf6nBEMeCQeg1
LEHgb5HB0GSGQSy8NEHJsYfBe9tNQSNWjUGdDbbBEelpQXTWikHNp6jBtBp0QTh/NUEoxJbBgfJw
QcwSUEG+j4jBd0iBQYvDRkFsI4PBhU5ZQYWShkEDCa/BwpFpQU6bR0G4YJLB6q3UQOmYC0ENRXXB
MSaFQcy6T0Gbm3HBng/HQFit7EAx23zBWRMYQVFhNUFcFZ3B9PTgQMZUE0FD4prB0n6cQBPBz0Cx
ppjBQotNQeEWTUFg0KDBTWUmQbma9UAJJ4nBt+5BQfgP4kAZGZfBKFmSQD11BkFdarLBo4KUQFPQ
J0Hc8KbBmTBTQcPDdUE1B67B95tBQZkFc0GVZ6XBj0EsQazXEkEEopnB5bWKQLb6vUAeZ4XBpoYo
QQsvWkEZfpvBL6AWQSK9HkHNT5jBb6HBQGykBkEP2KHBrhtyQLElwkAU4JDBH+ArQSf59kBJOZXB
+MGuQPN4FEHfEqvB81s6QRtYW0GfJaTBRMS5QLt3HUHTlXTBZOj6QNFyEEGRT27BYkrVQJ3eLEFZ
n2zBMrP6QOliJUHl/GjB9QpYQbrtUUHMM5fBkLGcQFb55kD6poHBL6YkQbY2REGlvpfBPtkFQZCE
EkEIt53Bl9yfQP8E+0BxEJvBKedMQNHAmEAZQJTBB5CAQW3LX0F0hmnBdAONQXAxR0E4QGjBZczg
QCAHz0C5KX3B35YNQSJwOkFyAaXBoYHUQCccHkFwRpPB1OW1QCxRtUBMMpzBsJNSQWn6PUFui6bB
y8UxQTwdVEGhJ67B7mZoQa3JpEHdTrHBhKtKQepinUE2TrzBmS18QQr7mEEDraTBnrqGQbxwHkH3
2JTBzB2NQQB9LUFcp4PBmuNAQUQlikHeybrBDWtyQU68hUF6IaPBpqduQS/SLkFQQZ7BPwxpQRjW
XUFGJIXBF60WQfdAAkFF0YfBZvQlQQUk1ECCbobBlKoyQd+XA0GWoITBTNNFQVkJ40A3rZ/BJDRO
QeGk80C5kpLB9n1BQSmZwECmYJTBcgelQGB58UCBV7XBbB1tQLOjAEF53a3BKEOHQPUKEEGEQbnB
9ryoQD/AMUE2uqHB4GyJQK1pMUHDxq3B3HBxQGsCIkG4YqLBJB5NQUj7b0Hiw7XB9l5hQY9pbEH/
uavBrehHQTereEEfsJ3B46kzQZS+fEGqrqfBgUAwQbRFEkHFMqLBm6s4QdLbG0FIUpXBbDhhQFlK
tECbBIDBgvujQAt7pUC0S4XBJ1ktQfgQZEEgn5TBI5oZQVaHYEGS6Z7BOfcSQcgHIEF2uo/BAofT
QOPV8kCXi6XBads/QK3M2kBH55DBd7EfQbe05EA8o5nBoJDJQMOjGkEP36/BEj9SQRqEXkEhNJPB
2TqJQGUtAEGBZ4HBRIorQaesP0EF5JDBvxIKQQwJCUF0zaPBzv2JQOh0B0HLAJjBY88eQJk1kECz
II/BYyA0QN6ym0D4lpvBa6J6QEVegkBAUZTB3Jc5QYj+R0FOjbDBhRpkQQBxnEGLrbDBR0RTQT1D
mEHT6rbBcFdvQQ68lUE8jqnBxh2BQez0RkH1TYPBrEOGQaQHNUEdyofBC71NQbhcjUG9FbbBvdNp
QdTUikG1tajBWq5wQc1hUEEQk4jBG7RzQenzNUH0zpbByaWCQX5gLEFonJHBzy1ZQYSWhkEXE6/B
uTppQdH+R0GtYZLBG6zUQFuQC0HxSHXBCviHQRNwGUEQgpbB6fvGQEuj7EB14XzBL/MXQQBpNUEc
Hp3BNsjgQM5ZE0FV5JrB7T+cQJvUz0BKppjBJjRNQdBTTUFW2aDBwGAmQWSd9UBFOYnB7ORBQWUj
4kDgMJfBKwSSQIeEBkFAZbLBklOUQGTfJ0GI7KbBaf5SQQDUdUGKDa7BTldBQXUtc0HSc6XBji4s
QQLfEkHAs5nBX4iKQJAFvkDNZYXBMDwoQctLWkH/hZvBFY0WQT3BHkHPWZjBQmjBQI2sBkG516HB
mKlxQIU7wkCx3ZDBo9QrQY0D90B7TJXBvYCuQM+DFEGjEKvB0As6QVuGW0HxLqTB+cu5QHdyHUHw
j3TBv+76QNRjEEEfWm7BVWDVQAbULEFUm2zBJsj6QMtSJUEoAmnB8LBXQc48UkH3OJfB5JWcQDP8
5kAapYHBv3UkQTZLREEUxpfB58AFQVqHEkH8vJ3BLqqfQMQa+0AkDZvBqmBMQPXamEDHPZTBpJeE
QT74EUEiRZ/B6NiPQUnoEEHO4JHBcLDgQFv2zkCyOH3BxnUNQXlwOkEBC6XBR2LUQFggHkHURpPB
H5a1QApftUC4NpzBVS5SQYI8PkEYm6bBpngxQZ5IVEGTMa7BJGVoQYrIpEGoWrHBGZtKQUtqnUGt
VbzBGi18QbbzmEFpv6TBUeeDQex9TUF/nXfBEv6MQbPcLUELuYPBS75AQVUvikGfz7rB4VRyQeK3
hUGlMaPBL91oQTEgXkG1FoXBxR1uQapoL0ERTZ7B4acWQfo+AkHU4IfBm/QlQUMl1ECogYbB7aYy
QYGaA0EQtITBkMNFQT8j40CexZ/BrStOQZq680D2q5LBW3lBQduqwECNeZTBLKWkQKGR8UD5U7XB
e3lsQLS3AEG11a3BNOqGQL4bEEF6O7nBopuoQHTMMUHct6HB2jmJQBd6MUGPwa3BxRhxQA4WIkHK
W6LBD/VMQeEGcEEgy7XB7yFhQStybEF8t6vBEJlHQcXZeEFcu53BZG4zQbDqfEFNxKfB/SIwQSJQ
EkHHRaLB5Zw4QTzjG0EoZ5XBeOJgQLRatEDnAYDBGsajQJt9pUDpTIXB6QYtQegyZEGIp5TBX0cZ
QeiTYEHd757BhO4SQSEIIEE6w4/BV0TTQLPj8kAGjaXBi3E/QLvm2kBN4pDBAKUfQfm85EAztZnB
O0vJQHyqGkGa36/Br9lRQZTSXkH3PJPBmSWJQPIwAEFnYYHBTl8rQffHP0G165DBW/UJQWcJCUFV
06PB4NmJQFOCB0Eb+ZfByVAeQO5QkEAlHY/BpIszQIbSm0DCk5vBphR6QM50gkAVUZTBgk05QTIr
SEGXlrDB

>  <OMEGA_E>  (17) 
cjeXP4jelT9qrJg/gomLP70viT8=

>  <OMEGA_NBR>  (17) 
     91892

$$$$
50169591
     RDKit          3D

101104  0  0  1  0  0  0  0  0999 V2000
    7.7916   18.2028  -22.7943 C   0  0  0  0  0  0  0  0  0  0  0  0
    8.6202   17.5543  -23.7330 C   0  0  0  0  0  0  0  0  0  0  0  0
    8.0796   18.1117  -21.4175 C   0  0  0  0  0  0  0  0  0  0  0  0
   15.8298   12.2917  -18.4900 C   0  0  0  0  0  0  0  0  0  0  0  0
   16.1666   12.9860  -17.3164 C   0  0  0  0  0  0  0  0  0  0  0  0
    9.7370   16.8136  -23.2966 C   0  0  0  0  0  0  0  0  0  0  0  0
    9.2003   17.3786  -20.9800 C   0  0  0  0  0  0  0  0  0  0  0  0
   14.6960   12.6604  -19.2318 C   0  0  0  0  0  0  0  0  0  0  0  0
   14.2236   14.4308  -17.6210 C   0  0  0  0  0  0  0  0  0  0  0  0
   15.3673   14.0641  -16.8680 C   0  0  0  0  0  0  0  0  0  0  0  0
   10.0360   16.7292  -21.9189 C   0  0  0  0  0  0  0  0  0  0  0  0
   13.8774   13.7375  -18.8032 C   0  0  0  0  0  0  0  0  0  0  0  0
    6.5217    8.6353  -14.8281 C   0  0  0  0  0  0  0  0  0  0  0  0
   15.7278   14.7978  -15.6235 C   0  0  0  0  0  0  0  0  0  0  0  0
    5.4872    7.7008  -15.3019 C   0  0  0  0  0  0  0  0  0  0  0  0
    9.0117   11.8660  -20.1977 C   0  0  0  0  0  0  0  0  0  0  0  0
    6.9227    9.3049  -19.8506 C   0  0  0  0  0  0  0  0  0  0  0  0
    5.5678    6.5528  -18.8717 C   0  0  0  0  0  0  0  0  0  0  0  0
   12.1578   13.6979  -20.6728 C   0  0  0  0  0  0  0  0  0  0  0  0
   12.1134    7.0813  -16.5212 C   0  0  0  0  0  0  0  0  0  0  0  0
   12.3273    6.8206  -18.0271 C   0  0  0  0  0  0  0  0  0  0  0  0
   10.7169    7.6819  -16.2539 C   0  0  0  0  0  0  0  0  0  0  0  0
   12.1199    8.1120  -18.8448 C   0  0  0  0  0  0  0  0  0  0  0  0
   10.4916    8.9650  -17.0803 C   0  0  0  0  0  0  0  0  0  0  0  0
   10.7110    8.7040  -18.5979 C   0  0  0  0  0  0  0  0  0  0  0  0
    4.9478    7.6193  -22.7828 C   0  0  0  0  0  0  0  0  0  0  0  0
    4.4852    9.8428  -21.6638 C   0  0  0  0  0  0  0  0  0  0  0  0
   11.2319   15.9167  -21.4444 C   0  0  0  0  0  0  0  0  0  0  0  0
   10.5519   10.0118  -19.4268 C   0  0  0  0  0  0  0  0  0  0  0  0
    3.8229    7.1084  -17.1209 C   0  0  0  0  0  0  0  0  0  0  0  0
    9.7262   14.2871  -20.1689 C   0  0  0  0  0  0  0  0  0  0  0  0
    9.0871   10.5212  -19.4637 C   0  0  2  0  0  0  0  0  0  0  0  0
    6.2114    8.2052  -20.6507 C   0  0  2  0  0  0  0  0  0  0  0  0
    4.4444    5.9833  -17.9851 C   0  0  2  0  0  0  0  0  0  0  0  0
    5.5657    8.7696  -21.9513 C   0  0  0  0  0  0  0  0  0  0  0  0
   10.8867   14.4154  -21.2013 C   0  0  2  0  0  0  0  0  0  0  0  0
    6.9112    9.7820  -15.5288 N   0  0  0  0  0  0  0  0  0  0  0  0
    7.1871    8.5270  -13.7087 N   0  0  0  0  0  0  0  0  0  0  0  0
    7.8634   10.3062  -14.6732 N   0  0  0  0  0  0  0  0  0  0  0  0
    8.0239    9.5844  -13.6290 N   0  0  0  0  0  0  0  0  0  0  0  0
   12.7295   14.1775  -19.4859 N   0  0  0  0  0  0  0  0  0  0  0  0
    4.8414    7.9772  -16.5030 N   0  0  0  0  0  0  0  0  0  0  0  0
    9.6290   12.9460  -19.5876 N   0  0  0  0  0  0  0  0  0  0  0  0
    8.2590    9.5183  -20.1347 N   0  0  0  0  0  0  0  0  0  0  0  0
    5.2240    7.5220  -19.8074 N   0  0  0  0  0  0  0  0  0  0  0  0
    4.9383    4.8854  -17.1211 N   0  0  0  0  0  0  0  0  0  0  0  0
   15.0121   15.7593  -15.2290 O   0  0  0  0  0  0  0  0  0  0  0  0
   16.7496   14.4533  -14.9677 O   0  0  0  0  0  0  0  0  0  0  0  0
    5.1883    6.7199  -14.6281 O   0  0  0  0  0  0  0  0  0  0  0  0
    8.3729   11.9937  -21.2397 O   0  0  0  0  0  0  0  0  0  0  0  0
    6.3310    9.9635  -18.9979 O   0  0  0  0  0  0  0  0  0  0  0  0
    6.7314    6.1813  -18.7349 O   0  0  0  0  0  0  0  0  0  0  0  0
   12.5957   12.7274  -21.2821 O   0  0  0  0  0  0  0  0  0  0  0  0
   10.4769   13.8244  -22.4422 O   0  0  0  0  0  0  0  0  0  0  0  0
    6.9359   18.7695  -23.1304 H   0  0  0  0  0  0  0  0  0  0  0  0
    8.3987   17.6253  -24.7877 H   0  0  0  0  0  0  0  0  0  0  0  0
    7.4414   18.6037  -20.6984 H   0  0  0  0  0  0  0  0  0  0  0  0
   16.4462   11.4701  -18.8237 H   0  0  0  0  0  0  0  0  0  0  0  0
   17.0408   12.6951  -16.7528 H   0  0  0  0  0  0  0  0  0  0  0  0
   10.3649   16.3099  -24.0166 H   0  0  0  0  0  0  0  0  0  0  0  0
    9.4220   17.3121  -19.9251 H   0  0  0  0  0  0  0  0  0  0  0  0
   14.4455   12.1213  -20.1335 H   0  0  0  0  0  0  0  0  0  0  0  0
   13.6075   15.2523  -17.2864 H   0  0  0  0  0  0  0  0  0  0  0  0
   12.2061    6.1308  -15.9753 H   0  0  0  0  0  0  0  0  0  0  0  0
   12.8809    7.7846  -16.1658 H   0  0  0  0  0  0  0  0  0  0  0  0
   13.3520    6.4538  -18.1869 H   0  0  0  0  0  0  0  0  0  0  0  0
   11.6086    6.0602  -18.3665 H   0  0  0  0  0  0  0  0  0  0  0  0
    9.9503    6.9413  -16.5257 H   0  0  0  0  0  0  0  0  0  0  0  0
   10.6297    7.9243  -15.1845 H   0  0  0  0  0  0  0  0  0  0  0  0
   12.8781    8.8516  -18.5478 H   0  0  0  0  0  0  0  0  0  0  0  0
   12.2313    7.8822  -19.9148 H   0  0  0  0  0  0  0  0  0  0  0  0
    9.4615    9.3170  -16.9223 H   0  0  0  0  0  0  0  0  0  0  0  0
   11.1987    9.7373  -16.7434 H   0  0  0  0  0  0  0  0  0  0  0  0
    9.9590    7.9782  -18.9411 H   0  0  0  0  0  0  0  0  0  0  0  0
    5.7163    6.8589  -22.9857 H   0  0  0  0  0  0  0  0  0  0  0  0
    4.1205    7.1632  -22.2194 H   0  0  0  0  0  0  0  0  0  0  0  0
    4.5671    8.0186  -23.7345 H   0  0  0  0  0  0  0  0  0  0  0  0
    4.9264   10.6590  -21.0730 H   0  0  0  0  0  0  0  0  0  0  0  0
    4.1042   10.2433  -22.6149 H   0  0  0  0  0  0  0  0  0  0  0  0
    3.6576    9.3878  -21.0998 H   0  0  0  0  0  0  0  0  0  0  0  0
   12.0218   15.9762  -22.2076 H   0  0  0  0  0  0  0  0  0  0  0  0
   11.5989   16.3496  -20.5022 H   0  0  0  0  0  0  0  0  0  0  0  0
   11.1849   10.7919  -18.9787 H   0  0  0  0  0  0  0  0  0  0  0  0
   10.8834    9.8179  -20.4576 H   0  0  0  0  0  0  0  0  0  0  0  0
    3.1740    7.7255  -17.7596 H   0  0  0  0  0  0  0  0  0  0  0  0
    3.2215    6.6482  -16.3230 H   0  0  0  0  0  0  0  0  0  0  0  0
    9.8960   15.0103  -19.3576 H   0  0  0  0  0  0  0  0  0  0  0  0
    8.7779   14.5202  -20.6754 H   0  0  0  0  0  0  0  0  0  0  0  0
    8.7379   10.6609  -18.4300 H   0  0  0  0  0  0  0  0  0  0  0  0
    6.9728    7.4723  -20.9558 H   0  0  0  0  0  0  0  0  0  0  0  0
    3.6573    5.5884  -18.6443 H   0  0  0  0  0  0  0  0  0  0  0  0
    6.3609    9.2368  -22.5509 H   0  0  0  0  0  0  0  0  0  0  0  0
   12.2501   14.9461  -19.0622 H   0  0  0  0  0  0  0  0  0  0  0  0
    5.0844    8.8222  -16.9794 H   0  0  0  0  0  0  0  0  0  0  0  0
   10.0371   12.7996  -18.6865 H   0  0  0  0  0  0  0  0  0  0  0  0
    8.6852    8.9534  -20.8412 H   0  0  0  0  0  0  0  0  0  0  0  0
    4.2594    7.7647  -19.9103 H   0  0  0  0  0  0  0  0  0  0  0  0
    4.1869    4.5386  -16.5598 H   0  0  0  0  0  0  0  0  0  0  0  0
    5.2958    4.1467  -17.6925 H   0  0  0  0  0  0  0  0  0  0  0  0
    5.6659    5.2298  -16.5278 H   0  0  0  0  0  0  0  0  0  0  0  0
   11.0571   13.1034  -22.6569 H   0  0  0  0  0  0  0  0  0  0  0  0
  1  2  2  0
  1  3  1  0
  2  6  1  0
  3  7  2  0
  4  5  2  0
  4  8  1  0
  5 10  1  0
  6 11  2  0
  7 11  1  0
  8 12  2  0
  9 10  2  0
  9 12  1  0
 10 14  1  0
 11 28  1  0
 12 41  1  0
 13 15  1  0
 13 37  1  0
 13 38  2  0
 14 47  1  0
 14 48  2  0
 15 42  1  0
 15 49  2  0
 16 32  1  0
 16 43  1  0
 16 50  2  0
 17 33  1  0
 17 44  1  0
 17 51  2  0
 18 34  1  0
 18 45  1  0
 18 52  2  0
 19 36  1  0
 19 41  1  0
 19 53  2  0
 20 21  1  0
 20 22  1  0
 21 23  1  0
 22 24  1  0
 23 25  1  0
 24 25  1  0
 25 29  1  0
 26 35  1  0
 27 35  1  0
 28 36  1  0
 29 32  1  0
 30 34  1  0
 30 42  1  0
 31 36  1  0
 31 43  1  0
 32 44  1  0
 33 35  1  0
 33 45  1  0
 34 46  1  0
 36 54  1  6
 37 39  1  0
 38 40  1  0
 39 40  2  0
  1 55  1  0
  2 56  1  0
  3 57  1  0
  4 58  1  0
  5 59  1  0
  6 60  1  0
  7 61  1  0
  8 62  1  0
  9 63  1  0
 20 64  1  0
 20 65  1  0
 21 66  1  0
 21 67  1  0
 22 68  1  0
 22 69  1  0
 23 70  1  0
 23 71  1  0
 24 72  1  0
 24 73  1  0
 25 74  1  0
 26 75  1  0
 26 76  1  0
 26 77  1  0
 27 78  1  0
 27 79  1  0
 27 80  1  0
 28 81  1  0
 28 82  1  0
 29 83  1  0
 29 84  1  0
 30 85  1  0
 30 86  1  0
 31 87  1  0
 31 88  1  0
 32 89  1  1
 33 90  1  6
 34 91  1  6
 35 92  1  0
 41 93  1  0
 42 94  1  0
 43 95  1  0
 44 96  1  0
 45 97  1  0
 46 98  1  0
 46 99  1  0
 46100  1  0
 54101  1  0
M  CHG  3  37  -1  46   1  47  -1
M  END
>  <OMEGA_C>  (18) 
wFT5QEufkUGpWrbBPewJQTVvjEE+3b3B2kUBQcnkkEEPV6vBA0d9QfKqREGD65PBPFWBQXTGT0Hn
h4rBvcobQTmChkF5X7rBQDQTQWQHi0Ef16fBtiJrQe+QSkG/2pnB9pNjQXXkZkHd94zBiuB1QbkG
YUGj8YbBmJMgQXzVhUHaWa/BpAleQajMW0HybJbBgbHQQEYqCkHKP23BFaV7QfbDbEHJ+XnB05av
QNBs9kB+1HTB0C8QQS/bPUHalKHBcYbdQO/gFEEKzp7BeCuyQHaw0UA/+ZbBKIZCQXAqW0HrYaXB
adBBQQWa4kBuK4TBsDxFQfpB2kBsN5DBe3grQcfR9UASCILBUOtBQd/KAUEzwpbBlN0nQZFwD0F7
pIjBN2ArQahDC0GRyJTBcFSeQKzR80BDQ7bBuIaPQBx8HUGGT63BsrUzQaqqfkEujqvBwtQoQUow
IEEPapvBB6t0QPR340CK94jBUZ4bQfyXZEHqWaHB7WQRQbtWKEGdtZvBscPGQFRIA0GbNKXB4ziO
QB53v0CQ4Y/BXBqyQCxQDEFGnK/B3S8uQYalZkFOnKnBJyjdQDeDHEELdnjBj/zlQIhuCEHNVlvB
3qD7QGPmJEFlxWrB62EAQeJZGUE9EFrB4KtLQTPXYkEG45vBguyaQHZF/0A8BoTBNhAaQcAiT0Fo
s5zB4SQEQSVLGEHNE6HBPiunQEC08ECAdZ7BrAaeQORUnEDs94jBoTFwQTwmfEEwqnPBO/+FQeNA
Z0GIe2/BlQamQFEJ10DiDGrBQvcFQWXmP0Hd6qnB25fKQE9qH0Gl+5fBnGfXQPfMxUD+4JXB/4dJ
QZGjS0HFQarBhqEnQcYwXUGLibPByfLdQAEolkH2CrnBMmEGQaAAjUEzTcbBJiDuQEjUlEE6lqXB
05GDQViFN0HdlpbBkVOIQUMfS0GwBYbBn9YlQZx6gkEMIsDBbMAWQUR/ikGuZp/B3SBnQbXwQUFj
EaHBWLhZQU4JdEGkSorBQExDQaMvxED4mn/BFxhOQZkb+UCiU4HBrKFVQWeFzkDdfpHBorw5QfHs
wUCK7pLBYDQfQRAf3kCbNITBWxMqQSuU/UDo83LBtwxOQT+gDUH3YZTBSbNDQR47/EB1UZ/BSmIX
QWoSFUHLYIfBEy4zQdPLG0F08oXBC1gfQatN/0BLh5fBRey2QGd820Cf4rfBM9uDQJA45UBVwbHB
WCWSQBZMAEFA4L3BPaWdQEiLKkFrlajBiFWDQGfkI0E+67TBxxZqQJg0FkFUzKjBc1lAQWief0Ea
qbHBQJU5QevLgkFwBKTBTvUyQaCrLEFS1JfBjSIuQTYWHUEeqaPBqCJLQIg390C2E47Boi1OQFW+
1ECKlYLB1FUeQS4qcEFv3JrBQHIMQZxSaEEeZ6XBo84LQe6SKkGVcJPBlSHfQAgd70B0pafBQRFq
QD7UskCAJ5XBFozLQMnJE0E3aLTBcgBEQVEjb0FXf5jBs7OiQNsnDUHD1YfBAJggQRvLTEH0fZXB
vvYKQR5BD0G8uqbBAE2IQDp4+EBbSJ/B1/qFQM47kUBjeoTBUnepQLCxhEBBio3BK0+1QJhap0Du
OITB2OkwQZ6nUUFDQbXBJGwXQVt7mUFxt5LBQPYHQQcIlEG325jBQjMtQYCqlkEFkZPBz+6DQZ/H
V0HaCJTBO3yDQYhAW0Fi6ojBq0cOQTTNi0Hu45/BR4ozQSprjkFGk5rBEl51QXVfWkE9U5rBOglh
QQbjY0GtY4rBYnxzQfdXYUEYAITBtRwkQdr4iEHgzaDB9sphQeR1YEGck5XBjovSQOb6CUGS7GzB
lz9yQdYdZUHXg3DBZ5CvQLTe90B+H3TBRqQRQb+IOkGC4aHBxSreQERuE0EZ0Z7BrQSuQGUz0kD9
j5bBq9U6QRgxaEEE+5nB8o87QQDR20AbTYLBvUNFQei11kC2k43BKtcjQf/g6ECF+ILBV8tCQSUk
AEFzIJTBOgEhQWoVCUEOiInBywcrQe4RB0GL5pTB32OZQG3wIEHf2K3BmHHSQBpnDUHoZrjBmf4q
QZsigEHje6jBIpgpQf6NHEHyNpvBnZhwQOuu50BTW4jBovITQeOzYkFXJqDBiXMSQS1FJUH45pvB
LhrFQLVaAkFED6XBbYGJQMZiwkBWSY/BHFCwQMYvC0Fig6/BOfMqQTV1aUEKe6PBWYPgQH7vG0Hf
UnjBLk7oQIm8B0FzNlvB6EMAQXV3I0EiB2vB34ECQQTfF0EYTlrBWxpQQRzaYkGyYpzBttCaQNTP
AEHtmoPBMJkTQTT0TEEWxJvB46EEQS+UFUEBIKHB+XakQDpf8UCxJ57Bh6aXQH+KnkDOXojBvrJg
Qdx2akElDGjBtWKBQfD2YkE4JWXBM5qkQMc22UCWJmnBy+oOQXYuO0ECnKvBaZHMQHmqHkFsC5jB
H5LSQGFExEDMhZXB6IU0QVZEbEEA6ZDBM0AyQWkdW0EbpavBrpUSQZjQn0EsXI3B64ruQHQplkHk
LJjBvwg5QZrUmkE22I7BnWGLQQIfU0HuvZfBkZmKQShDWUGEHYTBDmkCQbqkh0FwmKTBZzlEQSZB
jEFcMJvB6iZ2QWivV0Ha2aLB0R9SQcSDaEHzr4bBLdo8Qd41vUBKAXzBUXlEQRCi9EDu3HvB1F5W
QeD8zkAc1IzBSgE9QXGFvEArw5HBx70aQRTxzkDhzYbB7LAdQQ0w7kB0qnXBqwBMQYD0DEGdOpDB
0gxJQa/s+kAIPpzB6c8PQUZ5DEGdWYrBUNEoQRZcFkFuRoXBJCwiQZGE9UB9XZnBFiOBQCJQH0F4
hafBIvuwQCIfLUGQfavBmcuJQJXRJUGEWbXBGaXiQGXn+0C3kLnBE+TCQJVEEkGK6b/BnBPqQCKS
GUGXDbbBePwfQdQlgEGfWa/BtU87QSvqgUHhQqvBYKczQVCGKEG5LJfBUJkvQd3nGUFDYaPBjMdI
QNiA/EAAao3BGFJJQP9L2kCJ3YHBQQIOQdrkbUGfCprB4nkJQV1YY0EjN6fBkLEMQev3J0FVspPB
OurbQGqh60BxbafBVH9eQGglt0ARbpTBRU+YQNYB/0BiN7LBJR5TQYFeYEG/JKTBxvCjQK4DDkGe
gYfB2NoUQQFIS0Gr1ZPBMg4LQb3rC0G4oqbBeRiGQKj3+kBu7p7BuZZ+QC0IlUAVwoPBgVWhQG4i
hkBq8YzBhuCvQGhFqECMvoPB1DUoQafUT0HjfqzBM0n3QH/bjkH3GbrBUPQPQZTBi0EN6b3BjE3t
QJ3JjUEtKK/BcVxMQYGFb0GnNWnBTGdeQYwHYkHql2nBR00fQQ6Wh0FeyLbBrQMGQbOsiUHgAqjB
ywpAQRl2ckH22HvB5M5XQZhyWkFpoofBK0NkQXFcV0H4snzB220aQY6XhkHwy6vBF6BFQRD1Z0Gr
h4fBZUXSQNdiCkFmg23BAUd3QVsHSUEhdn3BKe2vQOQC+EDT0nTBXIMRQambO0EN7KHBbMPeQCL+
E0HMFJ/B4kawQCsS0kAO5JbBjYs6QQq2Y0G1+prB8GhBQRml20BqhoTBYH1EQeHR0kA/k5DB9YEr
QWqx8EDNVYLBOutBQZVH/EDMKJfBzacoQS/zDEGi+ojB5s4rQReJCEGbIJXBaaycQG2a80CBPrbB
m/WQQJPPHUHycK3B0d4qQYz/gUGpHKTBV+ApQbR/HUEw0JvBUCdzQBSK5kCl04jB2QgTQW3GY0G8
yp/BI6oSQe8cJkEgGpzBom/GQGa3AkGsVKXBA9+LQO+HwUA+r4/BdhqyQCrwC0Gau6/BqsMpQUsk
a0GJTKPBMfrfQFRdHEHX9XjBcK/nQAdtCEGmqVvBKUX/QMRMJEEAd2vBnuEBQZfUGEESqFrBkq44
QTy6a0EyhpDBWFibQCChAEEuAoTBSekSQZXUTUGFp5vBu9oEQWSRFkEzc6HBCz6mQB4e8UAbdJ7B
S4qaQL4YnkAHtojBcC18QcWhP0GhVYfBLziBQYtQRkHq4WzBqVGlQH062UBW2mnBHjoPQZuKPEFQ
rKvBAd3MQPP5HkE/QpjBYBDVQLvSxEB+05XBADZIQWW3VkEQs53BH48uQdoIYkEgjq3Ba83fQBsO
kkEik7/BXsATQfCTjEGNTMbBpx7OQJkekEGVQKzBovZHQeWgd0HDmFrBsc1nQRHQX0GmQ1vBI80u
QR4mhUFWubnBMzICQYnfiEF9n5/BxTgyQYnTfEH1cXvB7jdcQTxeUkFQ8o7BWFZCQQo2vUCzIIDB
5ixOQa4v8UAYwIHBRZ1UQW69xUCX5ZHBtnc4QWlku0C+OJPBwb0eQUb62UCMcYTBoGIqQRKz+ECF
kXPBvo1OQSJ+CUH82pTBz2xDQQ+h9EBHt5/BqHAYQeFEE0GsqofByII0QaHZGEE7WobBq0ofQUC5
+kDgyJfBQT+0QIpG2kBz3LfB8tSBQJI35kB8o7HBxLKQQP1EAEF13L3BC0GgQEWuKkFi0KjBWvqE
QFBMJEGwDbXBEDlsQBwjF0G31KjBtO46QTBHhEEa5abBBAwoQTJnhUEAH5zB0Es0QZrBKUGYPpjB
0R0vQTA3GkFcDaTBk+BKQEzf+kBc843BCO1LQAHQ2EAcYILBgTgNQdaZbkHufZnB3UUIQcmiZEHq
vabBmzANQQloKEFP0ZPBpsbdQMzx7EAyw6fBDB5kQCSntUDy4JTBX+zLQETSEkHfn7TB408sQYaT
dUH6TI/BWQykQN7pDUGS5ofBwOgTQYTfS0HrupPBc0QLQVBLDUFHIKfBGKuHQO0E+kBlPp/BDTuC
QNkblEChJYTBXuykQA7bhUAePo3Bm2CyQORoqECsCYTB3rk6QRsAWUFN96zB5uH2QFXXjkE0E7rB
VMEPQdLBi0Hj5L3BcfXsQA3DjUHMIK/B20xkQXpnV0GciXzBAZdeQYvyYUEsiGnBvCEfQSmYh0E6
xrbBMt8FQTyoiUFs/afBNx5YQRxAWkFGmYfBfUBAQZZVckEc23vB6n5MQV2Lb0F392jBe0saQZmW
hkGByKvBgeRFQUHKZ0HzhofB1z7SQApmCkGVim3Bt4NGQRq2ekGUylTByPOvQFD590BK2XTBiG8R
QaKoO0Gq6qHBIqzeQNv/E0GcF5/BGlewQDoB0kDs5JbBgqk6Qf6xY0ER9JrBiW5BQUXn20DqiITB
VoFEQbAP00CIlZDBbYQrQWTk8EBeV4LBSOVBQSB//EBsLJfBEKEoQc8JDUEO/YjBt8YrQdudCEHi
IpXBFLicQPF180AKQbbBN86QQFy5HUGuc63BMM0qQTgCgkG1GaTBntApQQ6SHUEc05vBiDRzQENk
5kCl1IjBJg8TQd7MY0GUwJ/BsZgSQfknJkHVG5zBrGjGQG+yAkFkVqXBA/aLQNtowUDFr4/BgAuy
QATlC0GJva/BicopQfsla0GBRKPBh+DfQCdlHEFB+3jB+aznQEJzCEGlsVvB0Cf/QJlZJEEZfWvB
VNkBQbfgGEFtr1rB6eA4Qaija0Grf5DB0FObQK2XAEGiBITBH+gSQZ7aTUH0opvBvs0EQVybFkF3
dqHBRUCmQKYH8UBDdZ7B2K6aQCUBnkDatYjB7F82QaZqg0FgYVTB+aVRQY3+d0EoKkTBi2mlQJ4s
2UC532nBtB0PQfGePEFEqqvBBL3MQPn3HkH+RJjBcybVQCbSxEBQ1JXBRGJIQYW/VkGQqJ3BHIsu
QSIMYkEQh63BHVvfQCwIkkFzir/B5IgTQfqVjEG4SMbBAsbNQI8UkEHJNqzBZiJyQZgNTUH+zHzB
xxBoQdqpX0FoQ1vBraEuQcgrhUEFurnB4RECQfTZiEGrmZ/B3aRcQdoWUkHT3o7BNWgyQa6rfEEP
k3vB22JCQVB7vUA7IoDBRi9OQdt88UA9xIHBbaNUQR0HxkCC6JHBin84QUCXu0BYOZPByMMeQQYj
2kCbcYTB+2UqQQjp+EDylHPB24ROQfeeCUHT4JTBp2RDQRfU9EC/up/B8WcYQeFVE0FwrIfBWXg0
QTb1GEEbXobBIkUfQVza+kDXyZfBWVy0QLwx2kBq3rfBpueBQDgB5kC3prHB87iQQNYuAEFJ373B
vwagQBCdKkG00qjBcs2EQDMyJEG1ELXBSfhrQPkDF0Ej2KjBP9c6QXNPhEHv5abBs/snQX1qhUEy
HJzBeDk0QZ/XKUHBQpjB4gwvQZBJGkF6EKTBV9VKQFOt+kBe9I3BFw1MQMei2EBOYILBOUcNQcic
bkFXcJnBGUgIQQ60ZEHXsabBux4NQeFtKEG60pPB18rdQLjx7EBqxKfBdlZkQBZ8tUBg4ZTBLNbL
QLPPEkEqobTBhIcsQdh+dUEMPY/Bs/ajQPXiDUE96YfBr/ATQfPdS0Eet5PBjjkLQZRaDUEcJafB
e6mHQHLh+UBoP5/BKmOCQML7k0BvJYTB/xqlQGvGhUB8PY3Bm4CyQANcqECHCYTB4bo6QRcJWUFq
9KzB0IUXQbTrmUETspLBhj8IQX9olEG65ZjBI1YtQT8jl0EmZpPB+OdzQaJ/a0HM7oLBodeDQb8i
cUHYeIfBdcgOQSckjEGU1Z/BX+UzQTzcjkFdUprBiIFhQT0nakFlWInBfKV2QSY5dEF/9pjBz6SE
QRWHdUHSjJLBnaUkQUpXiUGsmqDBWrNiQfGWbkGKdZTBj4nSQGeiCkESdG3BDSSPQe5ae0ExXJfB
JeevQMb/+EDE5XTBzsQSQYMPO0FrxaHBx2fgQFAXFEGB/p7BfYSwQN8G00Di65bB9447QenmaUFi
SZnBD1pBQWCO2UC2JoTB2I9EQbew0ECtMJDBuY4rQYwt70AiCoLBKl1CQRI7+kDJxpbB8RMpQYI7
DEHUr4jBwFwsQXDKB0Gl0pTBFmGeQI7q9EBCUbbBkHKTQHmJHkF+hq3BTrQrQQh0gEFoMKjBTMcq
QS3JHEEdgpvBoHFzQK9O6EDq9YjBGOUUQYI1Y0Ge95/BY6wTQZerJUHj3JvBetDHQJIGA0EtUKXB
Ra2LQNYFw0Dyx4/BUSC0QLZrDEGYwK/BMwksQQ8+akG3+KLBJ+rgQK6FHEHr1XjBrJ7nQNqDCEGq
hVvBxxwAQVU6JEGZN2vB9xECQfS3GEFDZlrBqTdRQeN/bUGifJvBUrubQL1FAUEZFYTBNVYUQUxt
TUHQnZvBkMUFQbA8FkFyN6HBUiCnQCss8kBzgp7BuaKZQA5kn0Cox4jBF8mPQTxKf0G3PaHB7VyX
QY9LfEFbhZHBqLOkQChe2kDM92nBV5EQQYrPO0FbiKvBco/OQCdFH0EOPpjBuxfVQJBMxUD6x5XB
0as0QUYIZ0FQNZDBW1o0QbfNW0Ez1KrBo4MSQa9GoEHCZ43BoA/vQDmFlkFFVZjBjQc5QXdZm0Gt
oY7BStlyQf4uaEGG8HTB8d+KQYofckEfeoLBlgwDQVnuh0H6k6TBMJxEQR+6jEF81JrB7mFSQQO5
ZUEKzYXBe7N3QRaWd0HXa6HBPgJCQccVu0AEhH/BOzdOQSa/7kBrUoHBzJ5UQTAyw0CTc5HBKW44
QbeVuUBl45LBf6weQX7O2EDvMoTBUVwqQSQy90DS+3LBNxxPQbxMCEGpa5TBB/NDQa2Q8kAiVJ/B
Fe0YQcDCEkGNb4fBuAs1QXP5F0GgAobB9b4fQTOO+UCAh5fBjJ+1QH0920B747fB+C2DQG7s50Ds
xbHBp92SQNMGAUEV9b3BbPeiQJlIK0ET3KjBp+2HQOsfJUEfKbXB73twQE4PGEH3+ajBaZ0gQe9G
gEEwBa/BBO87QbNOgkFuC6vB7Uw1QXHpKEEI55fB4BQwQWpzGUFgu6PB7BBMQKjr/ECcH47BGnFL
QC7h2kBai4LBEIcOQSBSbkFW7pnB5NUKQSHUY0F7LqfBHSQOQekeKEFnmZPBGOLeQC0+7UAStKfB
QLFjQHeCt0BNBZXB7FHOQI0dE0G4lbTBOMRUQXebb0FON6PBy+ykQDJ+DkFQ9YfBYiQVQSu3S0Es
rJPBWzEMQde2DEFJyabB1LGIQGNz+0CZXp/BHw6BQAbClUBTQoTBucyjQIj/hkCoSo3B0XuxQNdd
qUCFEITBpisrQdqlW0GG4rDBz7EXQebhmUFqnZLBEmIIQRpmlEHR0ZjBFX8tQbMUl0EUV5PBCJKE
QWeUdUGRm5LB7tiDQZQmcUEolofBkd4OQZ0ljEH7yJ/B3gE0QYnRjkEeS5rBm8x2QTJKdEGmHJnB
RJVhQVTraUEMm4nBBdRzQdhNa0Hy/YLBPLgkQQ5ViUGElaDBENhiQRSEbkGFrZTBXIHSQMeXCkFY
b23BOPlxQd6SZkEatm7B9NyvQFry+EBs5nTBvNYSQSwIO0E7wqHBSHvgQH4XFEFr+p7BK4OwQGcM
00Ac7ZbBTKA7QYTgaUHMaZnB3VNBQahg2UA+IITBv41EQemJ0EBqKpDBxYkrQcgG70B1BILB22BC
QZ8Z+kC4vpbBhxUpQQgrDEHsqIjBkWEsQQW9B0GXy5TBF3ueQEQF9UArUrbBRpKTQGSVHkHFhK3B
FbYrQRt4gEHtN6jBR9IqQQ++HEHseZvBvWRzQB5U6EDB+IjBae8UQTEwY0FEAKDBbrkTQY2mJUFU
1pvBCOHHQGwLA0FsTqXB36OLQAsNw0Cuy4/BoDu0QIF1DEETv6/B3w4sQXI8akGADKPBxuvgQK17
HEEkzXjBqpHnQMBzCEEdgFvBwR0AQZYqJEHLK2vByQ4CQbCkGEFiXFrBslBRQb5kbUHJq5vBNLab
QDREAUFkFYTBfWoUQalrTUFUn5vBz9AFQVc4FkHGMKHBDCmnQA858kB1gp7B5oqZQD1jn0BvzIjB
HQlgQcy0YUHVx2bBCy2BQcd+Z0Fa+WLBXqCkQKRP2kC6+2nBSp8QQTfCO0EEhavBgaLOQJxFH0Ey
OpjBShPVQMZKxUBHyJXBia40QcM6Z0H1U5DB41Q0QXnQW0EQ7KrBVLkSQcU6oEFKTo3B9ljvQKKF
lkFFPJjBlDc5QTFEm0EIkY7BMiyMQR75eUGAE5bBZeWKQY03ckFXnoLB9xoDQWj1h0GMh6TBTbZE
QdqrjEG50ZrBpwB4QSe+d0FmjqHBamxSQf1HZUH4KobBhPdBQankukCyeX/BATJOQX2K7kDPSYHB
I5xUQUMHw0BYbJHBUWs4QaF0uUBZ35LBBqYeQTWu2EAuL4TBYVUqQXoG90AJ8HLBBiFPQeo4CEFw
YZTBEvlDQfl08kBHTJ/Bl+8YQT+1EkGMaYfB0A41Qa3lF0HL+YXBx8IfQWZ5+UBZgpfBsba1QKpV
20Bx5LfB70KDQGAI6EB/yLHBzv6SQIIXAUHz9b3BZhijQK1RK0Gt2KjBdxSIQFIvJUFRJ7XBMbFw
QP8bGEHe+ajBPpMgQVZTgEEKCK/Bqew7Qd5TgkEWGKvBclk1QQ/bKEE43ZfB2yEwQRlpGUHxsqPB
XhFMQPz3/EBRIo7By1dLQJnl2kCJj4LBtJcOQZhSbkH895nBctUKQdLDY0GYM6fBuy8OQaweKEFx
k5PB9e7eQFhE7UBAsqfBT6FjQJiTt0DVCpXB6HLOQL0mE0F8krTBO9BUQT9mb0GtaaPBfeykQNR9
DkHl84fBsEEVQTi+S0F2rZPBNj0MQfyuDEHvwKbBGr2IQBSI+0D4Xp/BOvCAQIfDlUDbSITBCrOj
QMH/hkAMUI3BUGKxQOlTqUCRE4TBYBwrQSqpW0Gq9rDByGoZQZpwmUHEtZLBiiAKQXgAlEEd+JjB
ay8vQWyLlkH7UpPB4nt0Qa6bYEHv14LBnwOEQRl8WkGge4fBj5sQQeizi0HM4Z/Brq81QfA6jkEJ
N5rB1TFiQeFNY0G6O4nB6P52QYatWUEHCZnBkMCEQeXuVkHko5LBv24mQXTLiEEGj6DB8ExjQe3g
X0Fzb5TBtQLSQA9QCkErWW3BeRyPQS11UEEVjJfB1RKvQGDC+EA70nTBElMTQTVDOkGSn6HBrYTg
QIiiE0Em7Z7BuImvQKKn0kBJ3pbBr6Q8QejOZ0FITpnBd8pAQZC31kAx+4PBrgBEQYXDzUA+BJDB
lR4rQQPc7EBF5YHBrRVCQUZa90B4m5bBhuwoQewZC0F9i4jBSTUsQaqfBkFKrZTBVCWeQMaW9ECO
R7bBZPiTQFB1HkG/ha3Bbn8tQeW/f0EAGKjB2OkqQaGlG0GxW5vB06xxQMyn6EDW84jBofsVQWpp
YkGx3J/BwusTQazUJEHqupvBKp/HQGiuAkHbQKXB12uKQGEgw0AwwI/BUUC0QEYmDEHytq/BsyQt
QXAFaUFD/aLB5N7gQJkZHEGtu3jBFffmQDEVCEGFZFvBSCYAQduhI0H9FWvB/u0BQWIeGEFYQFrB
xvBRQRhQYkH9c5vBGRybQKFAAUH6DoTBDVMVQUakTEFHepvBct0FQYuPFUHqHaHBaZ6mQObk8UC2
d57BSNuXQORan0DhuojB77CPQak7TUEXf6HBiUeXQcM7TkEMuJHBNHGjQH1L2kBo42nBt/gQQXMI
O0FmYKvBENbOQMXqHkH+MJjBxe3TQD58xEAPs5XBIBA2QQMFbEHFTJDBdbE0QXOKWkFPCqvBmXQU
QQ3Tn0GhcY3B+eLyQPYxlkGzd5jB++I6QROzmkEag47BX4VzQVtBY0Fco3TB3QCLQR16WEHygILB
0t4EQW6Nh0EZraTBeVxGQZIBjEFrpprBNzxTQc0AaEE4moXBX/R3QVH9VkF9jqHB1T5BQYE8uEDW
K3/BkcRNQcOZ60BrI4HBBPxTQQ/iv0BMQpHBzL43QSzztkBFupLBvhweQTnN1kBHEoTBye0pQUfn
9EDEsnLBSvVOQUW0BkFmPZTBGqhDQR2k70BQKJ/BC9kYQbnTEUHNT4fB1wU1QeyxFkGl2oXBrHcf
QdaK90BeZpfBLhq1QAyi2kDI07fBycCCQH/x50Adv7HB8NuSQBzoAEFh7r3BDLyjQD8hK0Fq26jB
za2IQE8WJUGJK7XBTCVxQPMmGEFF/KjBm74iQQu2f0FqD6/B9O49QQuWgUFJvKrB75M1QR+iJ0F9
vZfBZzMwQdpAGEEQlKPB7+dKQNd6/UBjIo7BMjdJQE1/20DQi4LBE+cPQYKkbUGUzpnBtcQLQbAf
Y0H/BKfBjmAOQdVRJ0GoeJPBEXHeQJpI7EDGnafBdQdhQHrot0DCAZXB2qTOQECtEkFoibTBUEpV
QUu6X0ETK6PBWqekQA5pDkFE74fB+GIWQc7wSkFuipPBFzYMQRL9C0HUr6bB/U+IQKGK+0CSWZ/B
sjV+QBcLlkC7OYTBecahQBfShkBROo3BjsSvQJ0OqUC8/4PBp5IqQQ9dT0EVAKzBQWZkQWpwi0Gt
RbXBNRpbQXwkkEE7IqzBNcVZQQUQg0G6orrBAgtNQRoFikFCWnPBqB5BQfu5kkGqn2vBvB9HQeWC
jEHXYKjBw8pFQe3YfkHs5LbBf4JGQdGQhEGw8ILBruEnQWyOkEGbjITBK2cuQfwalkEEbHbBNlM8
QYQvhEHUyq3BucIzQYvFh0Ebe4jBQu7QQBb6CUFeQ23BatUhQf5an0E2Nm7BmoWvQCer9kC4HXXB
NM0QQWhxPUHm4aDB1V3fQP0pFUH1uZ7BL4iyQFrL0kCmMJfB+Vo0QQAVdEG2e5fBEOJBQdq430Cb
54PBp3FFQYEX2EAs+Y/BVqgrQWd180AnxoHBE45CQeP7AEHBWpbBe30oQb6HDkEUN4jByiEsQb64
CkG4YJTBdlqgQNtE9kCieLbBYkaSQP2lHkHJY63BeL8mQfk+gEHtyqnBLdUpQRTrH0EY1prBqAF1
QJX/5EB8Q4nBpcYRQXFtZUEDL5/BDmgSQS7rJ0FXKpvBf2fIQF3gA0GRR6XBrxOOQDXqwEAfNZDB
8my0QBNDDUH5r6/BVbkoQSZMbUFh66HBliLeQMhTHEFEQnjBR9vlQFnuB0EUR1vB8Zj8QJRfJEHi
W2rByIwAQUukGEGsu1nBdBUsQXPMgkHT0JHBqFSbQCUSAEFWMYTBcuMRQbrQT0HFpZrBFzkFQccq
GEE6waDBqjyoQBkb8kAYqZ7BnyCdQG9VnUA8VYnBNi4RQdhYokGg7nfBXeonQbwrpEFgiV3Bpk6l
QIY910AWhGrBvNkOQbVVPkHgqKrBXFfMQHDCH0Ey8ZfBho/XQIFixkBhBZbB3ChEQdcJakGWi5TB
CHc0Qet2XEHXGafBGK1zQaZBjkE2KrjB0kxjQXeIlkFoAqjBlPBgQTTffkFDnMHBzU9bQaGBh0GM
AGvBj0RGQardlkE4W13B9w5AQVsYkEHmWqHB47A9QST3cUHZ/LrBks5PQTbKe0He3IXBX54ZQTcU
k0FVuYjBNxFDQS35wEAvU3/BVkhOQbuo9UDF6oDBTcRVQR/vy0BIPJHBp805QfJOwEC61pLB8j8f
QYtM3ECgGoTBfiwqQUyo+kBSYnLBLdROQcmLDEFD1ZPB+mhEQZQk+0AC8J7BkRQYQcthFEF694bB
q/QzQYqbGkEOXoXBDv0fQRK0/kA+QJfBEqO4QFWg3UDRF7jBHX6FQKbo50BkD7LBMKeUQAPBAUEW
Fb7BQZmgQHeDK0GxkajBWpGGQARJJUEa/7TBjtBuQFR8F0Fn+ajBwqIeQdTehkEnqKXBiR4dQcNx
e0GQtrDBnNczQZpGLEHkEJfB9lkvQVomHUG6E6PBSXJMQOk5+UDmYI7Blp5NQLZd1kAS9ILBepsK
QaF3cEGVV5nBMx4IQbZfZUFPiqbBM6kMQQfRKUHd5pLBCYjgQIYM8ECEt6fBtMBpQH/StEBljpXB
gEbOQNChFEFeY7TBE7weQVb7hUFE3pTBvKWjQNOXDUH97YfB5ckSQVA2TkFWs5LBBCgMQdcRD0FD
WabBTYCJQOU++kBUkJ/BC8aEQHJ2kkB76YTBHluoQOiqhUCT7Y3B3Wu0QAPbp0AIhYTBUYNAQR+4
WEHK3KLBhCJjQT3ZhUGiYsPBExBpQd3JhEHHjbjBwYJNQaLFhEHSaMbBoD59QTi7REGP15PBi1KB
QT/IT0FHcIrBe1tZQTK1gkG8u7DBncs9QYOrgkHKmr7BQxlrQeKrSkGdw5nBTZJjQUXwZkE02IzB
5t51QV8GYUFo1IbBFaFDQZqzgUERurPBFwFeQQfmW0H6T5bBM6jQQKEaCkHjOm3BU6Z7QRu1bEG+
t3nBOI6vQHtU9kBt2HTBajAQQc7wPUEzjqHBvJ7dQFnvFEHXxp7B0DmyQB3C0UDt/JbB64VCQbdf
W0HZRqXBRcxBQYKP4kCgJoTB3T9FQa5O2kAoM5DBxnIrQQ3C9UD0BILBgvRBQfLYAUEQuZbB3dwn
QZhwD0Hnm4jB0GgrQahSC0GawJTBI36eQCwM9EApRLbBo7CPQOiUHUEUTK3BVo4yQTkWf0GFUqvB
Zt8oQZdIIEEFXZvB0Kl0QBp340A//YjBtH4bQaK/ZEGtX6HB4W0RQRxtKEEhq5vB/+HGQP1aA0EO
MqXBWj6OQFWAv0Bu6Y/BQEOyQPdoDEHEma/B1CcuQWXPZkEvi6nBsiXdQCx4HEE+aHjBU+zlQN9W
CEGYUFvBeZv7QB3UJEFlsWrB/FoAQbtAGUFWAFrBYJpLQe/2YkFBwJvBcOiaQCw9/0DiB4TBIfMZ
QcxLT0HkrZzBNzIEQS5cGEFVCaHB5kKnQAzS8EDUdp7BhwOeQLBSnEBwAonBtjZwQaYWfEGfX3PB
J/+FQQwoZ0FIPG/BRfmlQB/o1kBaGGrBCgMGQXTrP0F26KnBLqnKQDNzH0GY85fBInTXQLHaxUA7
45XBV6BJQVLwS0GCMKrBG5wnQV5ZXUG3eLPBGCpvQWl8h0EpXsnBgqR5QTKShUGbP7bBHv1IQQSP
hUEQts7BtYyDQaeYN0FWiJbBWVCIQbcXS0Gq74XBm+xdQW/hgUETcajBgkAtQQjMgUFX8cDB4BRn
QTUVQkG//KDBobtZQS0VdEGFJorBpEVDQf8cxEAHmH/B2RFOQUoM+UAzSoHBE6VVQX2RzkCFeZHB
VMA5QYsBwkA675LBfjAfQWwU3kB9N4TBxAYqQfZv/UDu63LBtRVOQXSqDUHHU5TBhcFDQfFo/EAA
SZ/BkmAXQc8QFUGsWYfBNCszQaHIG0Hz44XB/WEfQRdz/0C1hJfB2hS3QI6220BB5LfBxwCEQFlw
5UBMxLHB+FSSQCNuAEG74L3B9M2dQPKgKkGWj6jBcIWDQNkBJEFq57TBfWJqQOJLFkH7yqjBt9Q3
QV0Ng0H+saPB6pUjQa1kg0G2463BaPsyQQHBLEGOwZfBVDQuQds4HUHlm6PBxylLQAM+90C0GI7B
DiJOQG+01ECInYLB2w0eQWVicEGA5ZrBImAMQSphaEEHf6XBYNQLQX6rKkHKZpPBT0LfQDJF70AZ
o6fBgCZqQObmskBQMpXB+7nLQBPkE0F2Y7TBmeBDQW8ub0EjUpjBlLCiQCwnDUE31IfB72UgQaQI
TUEYcpXBCQkLQSxQD0H5rabB+2WIQLKZ+ECeSp/BzfKFQJczkUB6h4TBdXepQEK2hEBxlo3B9Ee1
QKNPp0DuQITBrO4wQVnaUUGKM7XBPs6AQWIYc0EbIpjBbw14QfRbekHIrqHBRa52QcxyZEHhhZHB
r6AzQRWhnkH1fbTBScgyQWldnUHcpb/B3ppjQQjqckE5p6TBvzZiQXMGXUENeJTBzOoyQQmolUH+
v63BWHUwQRsDikEZXr3BlDMxQfIJk0EwOMTBrKFYQUofZEHuFJ7BtUwxQX44i0EnIrLBRGnTQKhH
CkHYSm3BsVswQTG9kUHtDNDBn3GvQMsB+kB+vHTB33UVQUr7OEErlKHBT9PhQAmsE0GH7J7Bbw6u
QFxl1EBq35bBOzAxQUWNgEFz2aDBzThAQTWq0EC+M4TBJSdDQRalx0B1QJDBs/YqQcZA6EBQC4LB
DONBQYJq8UD2zZbBwGgpQd3mCEHJp4jBdWssQWBjBEEEzZTBn0mdQNhs90DcPLbBhcyVQHX0H0GL
ZK3BI3pCQakRXEECN6HBwNMrQbx5GUHAb5vBsNxwQOQO7EBe3YjBEtYZQWPkYEH2f5/BlS8VQcR+
I0ExwpvBZJ/HQLM3A0G1PqXBQY2IQNEPxkCuuY/BN720QKscDUFVqa/BuQswQQQOakG5bpzByWrj
QATXG0FupHjBN1voQNCbB0EUZVvBxr0BQYXBIkEdCmvBBzEDQcEdF0GrQlrBtokwQRHTgUHi/KvB
jK6bQHtMAkFj/IPBPjYXQZouS0EtTJvBKIoGQa3hFEE/MKHBCRemQFgK9EASb57BVdyUQKC4oUBQ
wojB9vUuQYeDiEGvFtTB1Q8xQYfkmUG0/tXBUNeiQADi20AZ1mnBf2sUQePiOUGGYqvBaBzRQC0q
H0GJH5jBa/PRQILxxEDFwpXBkvwxQZ0ViEHdk5rBGcAxQRYxakEC+5DBO6eIQWvAeEHo4ZXBWDOA
QVzRgkHguabBb/19QcPpXkERM4rBm9Q0QauLpkFUFbHBqFczQT1RpEEWxcTBzU1cQW2FeEER96vB
kdNZQezhUUEjXo/BC5szQRO0lkE5LqXBXTsvQRoZgkGJx8DBFTNAQRgeskDEqH/B/JNNQemc5EDm
YIHBTd9SQR2vuEDoi5HBG3s2Qce5sUCO8pLBi5AdQWwg00ACNITBcv8pQZdD8EA8+nLB9SdPQWVF
A0EUdJTBMT1DQQ226UBOXZ/BjpUZQQkqEEFAX4fBQOw1QTAPFEFT+oXBF0gfQeAE9EBvg5fBBEyz
QEW23EDV1rfBII2BQL2p60DMr7HBSFWSQJeVAkHD3L3BRYamQD9NLEEJuKjBO9eKQD3YJkFSA7XB
Jh50QIQXGkFb1qjBbCtBQT5FXEFv/anB1KBAQQKRS0GRTJ7BpvA2QSoLJUHO0JfBne8wQb/zFUHa
q6PBGWFLQHbSAEHa/43BlMBHQIeA30CTcoLBV0UNQXU8a0GGJpzB32MYQZCCYEGcRKjBNsMPQSsY
JkH+fJPB/H3dQCCa7EBHqafBnlRcQPPZu0Dt9ZTBKHzPQJc3E0EJgLTBQFsvQcsRdkFbLbDBGRim
QExOD0F82YfB3aQWQW5bSUHXWpPBQnYMQfU8C0EC2KbB4R+IQIvC/kDnRJ/Bq8V3QJI0mUCqO4TB
99KdQKDuiEBzS43BqTCtQCx/qkBYDITBJr4yQUyJeEEuhI7B

>  <OMEGA_E>  (18) 
dNWRP9L0kT8tfJI/SbqSP77Ukj8X2JI/0FOTP8uxjT+s3o0/2qaPPw==

>  <OMEGA_NBR>  (18) 
    107018

$$$$
50169579
     RDKit          3D

100102  0  0  1  0  0  0  0  0999 V2000
   16.4680   13.5401  -22.8099 C   0  0  0  0  0  0  0  0  0  0  0  0
   16.2030   12.9618  -21.5513 C   0  0  0  0  0  0  0  0  0  0  0  0
   15.6738   14.6075  -23.2774 C   0  0  0  0  0  0  0  0  0  0  0  0
    9.4579   20.3653  -21.6628 C   0  0  0  0  0  0  0  0  0  0  0  0
    9.1692   20.4451  -23.0341 C   0  0  0  0  0  0  0  0  0  0  0  0
   15.1486   13.4554  -20.7562 C   0  0  0  0  0  0  0  0  0  0  0  0
   14.6187   15.1022  -22.4836 C   0  0  0  0  0  0  0  0  0  0  0  0
    9.7807   19.1317  -21.0780 C   0  0  0  0  0  0  0  0  0  0  0  0
    9.5251   18.0393  -23.2444 C   0  0  0  0  0  0  0  0  0  0  0  0
    9.1993   19.2834  -23.8413 C   0  0  0  0  0  0  0  0  0  0  0  0
   14.3630   14.5371  -21.2137 C   0  0  0  0  0  0  0  0  0  0  0  0
    9.8190   17.9509  -21.8646 C   0  0  0  0  0  0  0  0  0  0  0  0
    6.5043    8.5709  -14.7641 C   0  0  0  0  0  0  0  0  0  0  0  0
    8.8933   19.3758  -25.2949 C   0  0  0  0  0  0  0  0  0  0  0  0
    5.3913    7.7498  -15.2687 C   0  0  0  0  0  0  0  0  0  0  0  0
    9.3515   11.5310  -20.2263 C   0  0  0  0  0  0  0  0  0  0  0  0
    7.0916    9.2298  -19.8210 C   0  0  0  0  0  0  0  0  0  0  0  0
    5.4440    6.6208  -18.8375 C   0  0  0  0  0  0  0  0  0  0  0  0
   10.4635   16.3039  -20.0472 C   0  0  0  0  0  0  0  0  0  0  0  0
    3.7847    7.1925  -24.9009 C   0  0  0  0  0  0  0  0  0  0  0  0
   10.4163    8.4382  -17.1245 C   0  0  0  0  0  0  0  0  0  0  0  0
   12.3165    7.7551  -18.6438 C   0  0  0  0  0  0  0  0  0  0  0  0
   13.2266   15.0651  -20.3607 C   0  0  0  0  0  0  0  0  0  0  0  0
    4.4702    8.2885  -24.0639 C   0  0  0  0  0  0  0  0  0  0  0  0
   11.9110   14.2945  -20.6532 C   0  0  0  0  0  0  0  0  0  0  0  0
    5.0070    7.7027  -22.7431 C   0  0  0  0  0  0  0  0  0  0  0  0
    5.6904    8.7988  -21.8891 C   0  0  0  0  0  0  0  0  0  0  0  0
   10.7908    9.6337  -19.3756 C   0  0  0  0  0  0  0  0  0  0  0  0
    3.7183    7.3401  -17.1284 C   0  0  0  0  0  0  0  0  0  0  0  0
    9.4205   14.0484  -20.0897 C   0  0  0  0  0  0  0  0  0  0  0  0
    9.3606   10.2253  -19.4301 C   0  0  2  0  0  0  0  0  0  0  0  0
    6.2891    8.1875  -20.6037 C   0  0  2  0  0  0  0  0  0  0  0  0
    4.2453    6.1633  -17.9866 C   0  0  2  0  0  0  0  0  0  0  0  0
   10.8669    8.2837  -18.5988 C   0  0  0  0  0  0  0  0  0  0  0  0
   10.7308   14.8104  -19.7729 C   0  0  2  0  0  0  0  0  0  0  0  0
    7.0274    9.6742  -15.4476 N   0  0  0  0  0  0  0  0  0  0  0  0
    7.1273    8.3894  -13.6298 N   0  0  0  0  0  0  0  0  0  0  0  0
    8.0086   10.0922  -14.5667 N   0  0  0  0  0  0  0  0  0  0  0  0
    8.0672    9.3538  -13.5232 N   0  0  0  0  0  0  0  0  0  0  0  0
   10.1351   16.6785  -21.3577 N   0  0  0  0  0  0  0  0  0  0  0  0
    4.8034    8.0991  -16.4804 N   0  0  0  0  0  0  0  0  0  0  0  0
    9.4446   12.7071  -19.5051 N   0  0  0  0  0  0  0  0  0  0  0  0
    8.4544    9.2718  -20.0615 N   0  0  0  0  0  0  0  0  0  0  0  0
    5.2265    7.6308  -19.7651 N   0  0  0  0  0  0  0  0  0  0  0  0
    4.6015    5.0145  -17.1217 N   0  0  0  0  0  0  0  0  0  0  0  0
    8.9185   18.3376  -26.0114 O   0  0  0  0  0  0  0  0  0  0  0  0
    8.6096   20.4952  -25.8043 O   0  0  0  0  0  0  0  0  0  0  0  0
    4.9803    6.7987  -14.6115 O   0  0  0  0  0  0  0  0  0  0  0  0
    9.2638   11.5250  -21.4518 O   0  0  0  0  0  0  0  0  0  0  0  0
    6.5472    9.9939  -19.0266 O   0  0  0  0  0  0  0  0  0  0  0  0
    6.5569    6.1221  -18.6857 O   0  0  0  0  0  0  0  0  0  0  0  0
   10.5136   17.0964  -19.1131 O   0  0  0  0  0  0  0  0  0  0  0  0
   11.0637   14.6173  -18.3884 O   0  0  0  0  0  0  0  0  0  0  0  0
   17.2795   13.1653  -23.4160 H   0  0  0  0  0  0  0  0  0  0  0  0
   16.8079   12.1406  -21.1964 H   0  0  0  0  0  0  0  0  0  0  0  0
   15.8738   15.0463  -24.2438 H   0  0  0  0  0  0  0  0  0  0  0  0
    9.4314   21.2577  -21.0551 H   0  0  0  0  0  0  0  0  0  0  0  0
    8.9226   21.3993  -23.4758 H   0  0  0  0  0  0  0  0  0  0  0  0
   14.9410   13.0062  -19.7962 H   0  0  0  0  0  0  0  0  0  0  0  0
   14.0053   15.9136  -22.8463 H   0  0  0  0  0  0  0  0  0  0  0  0
   10.0015   19.0802  -20.0221 H   0  0  0  0  0  0  0  0  0  0  0  0
    9.5491   17.1469  -23.8523 H   0  0  0  0  0  0  0  0  0  0  0  0
    3.4083    7.6279  -25.8384 H   0  0  0  0  0  0  0  0  0  0  0  0
    4.5108    6.3989  -25.1310 H   0  0  0  0  0  0  0  0  0  0  0  0
    2.9452    6.7674  -24.3312 H   0  0  0  0  0  0  0  0  0  0  0  0
    9.3833    8.8149  -17.0938 H   0  0  0  0  0  0  0  0  0  0  0  0
   10.4651    7.4609  -16.6220 H   0  0  0  0  0  0  0  0  0  0  0  0
   11.0809    9.1483  -16.6106 H   0  0  0  0  0  0  0  0  0  0  0  0
   12.6352    7.6459  -19.6909 H   0  0  0  0  0  0  0  0  0  0  0  0
   12.9816    8.4650  -18.1303 H   0  0  0  0  0  0  0  0  0  0  0  0
   12.3659    6.7776  -18.1418 H   0  0  0  0  0  0  0  0  0  0  0  0
   13.4867   14.9437  -19.2988 H   0  0  0  0  0  0  0  0  0  0  0  0
   13.0759   16.1320  -20.5816 H   0  0  0  0  0  0  0  0  0  0  0  0
    5.3070    8.7125  -24.6384 H   0  0  0  0  0  0  0  0  0  0  0  0
    3.7413    9.0810  -23.8386 H   0  0  0  0  0  0  0  0  0  0  0  0
   11.6489   14.4265  -21.7134 H   0  0  0  0  0  0  0  0  0  0  0  0
   12.0701   13.2261  -20.4452 H   0  0  0  0  0  0  0  0  0  0  0  0
    4.1700    7.2723  -22.1737 H   0  0  0  0  0  0  0  0  0  0  0  0
    5.7397    6.9144  -22.9704 H   0  0  0  0  0  0  0  0  0  0  0  0
    6.4946    9.2664  -22.4762 H   0  0  0  0  0  0  0  0  0  0  0  0
    4.9460    9.5608  -21.6148 H   0  0  0  0  0  0  0  0  0  0  0  0
   11.1390    9.4649  -20.4052 H   0  0  0  0  0  0  0  0  0  0  0  0
   11.4512   10.3603  -18.8796 H   0  0  0  0  0  0  0  0  0  0  0  0
    3.1498    8.0226  -17.7773 H   0  0  0  0  0  0  0  0  0  0  0  0
    3.0550    6.9381  -16.3485 H   0  0  0  0  0  0  0  0  0  0  0  0
    8.5689   14.6073  -19.6745 H   0  0  0  0  0  0  0  0  0  0  0  0
    9.3070   13.9643  -21.1806 H   0  0  0  0  0  0  0  0  0  0  0  0
    9.0269   10.4328  -18.4027 H   0  0  0  0  0  0  0  0  0  0  0  0
    6.9737    7.3787  -20.8989 H   0  0  0  0  0  0  0  0  0  0  0  0
    3.4402    5.8556  -18.6700 H   0  0  0  0  0  0  0  0  0  0  0  0
   10.2084    7.5556  -19.0950 H   0  0  0  0  0  0  0  0  0  0  0  0
   10.1241   15.9352  -22.0265 H   0  0  0  0  0  0  0  0  0  0  0  0
    5.1394    8.9197  -16.9426 H   0  0  0  0  0  0  0  0  0  0  0  0
    9.5351   12.6359  -18.5118 H   0  0  0  0  0  0  0  0  0  0  0  0
    8.8399    8.6106  -20.7050 H   0  0  0  0  0  0  0  0  0  0  0  0
    4.3005    7.9949  -19.8649 H   0  0  0  0  0  0  0  0  0  0  0  0
    3.8040    4.7420  -16.5834 H   0  0  0  0  0  0  0  0  0  0  0  0
    4.8968    4.2475  -17.6914 H   0  0  0  0  0  0  0  0  0  0  0  0
    5.3445    5.2782  -16.5066 H   0  0  0  0  0  0  0  0  0  0  0  0
   11.0309   15.4515  -17.9350 H   0  0  0  0  0  0  0  0  0  0  0  0
  1  2  2  0
  1  3  1  0
  2  6  1  0
  3  7  2  0
  4  5  2  0
  4  8  1  0
  5 10  1  0
  6 11  2  0
  7 11  1  0
  8 12  2  0
  9 10  2  0
  9 12  1  0
 10 14  1  0
 11 23  1  0
 12 40  1  0
 13 15  1  0
 13 36  1  0
 13 37  2  0
 14 46  1  0
 14 47  2  0
 15 41  1  0
 15 48  2  0
 16 31  1  0
 16 42  1  0
 16 49  2  0
 17 32  1  0
 17 43  1  0
 17 50  2  0
 18 33  1  0
 18 44  1  0
 18 51  2  0
 19 35  1  0
 19 40  1  0
 19 52  2  0
 20 24  1  0
 21 34  1  0
 22 34  1  0
 23 25  1  0
 24 26  1  0
 25 35  1  0
 26 27  1  0
 27 32  1  0
 28 31  1  0
 28 34  1  0
 29 33  1  0
 29 41  1  0
 30 35  1  0
 30 42  1  0
 31 43  1  0
 32 44  1  0
 33 45  1  0
 35 53  1  1
 36 38  1  0
 37 39  1  0
 38 39  2  0
  1 54  1  0
  2 55  1  0
  3 56  1  0
  4 57  1  0
  5 58  1  0
  6 59  1  0
  7 60  1  0
  8 61  1  0
  9 62  1  0
 20 63  1  0
 20 64  1  0
 20 65  1  0
 21 66  1  0
 21 67  1  0
 21 68  1  0
 22 69  1  0
 22 70  1  0
 22 71  1  0
 23 72  1  0
 23 73  1  0
 24 74  1  0
 24 75  1  0
 25 76  1  0
 25 77  1  0
 26 78  1  0
 26 79  1  0
 27 80  1  0
 27 81  1  0
 28 82  1  0
 28 83  1  0
 29 84  1  0
 29 85  1  0
 30 86  1  0
 30 87  1  0
 31 88  1  1
 32 89  1  6
 33 90  1  6
 34 91  1  0
 40 92  1  0
 41 93  1  0
 42 94  1  0
 43 95  1  0
 44 96  1  0
 45 97  1  0
 45 98  1  0
 45 99  1  0
 53100  1  0
M  CHG  3  36  -1  45   1  46  -1
M  END
>  <OMEGA_C>  (19) 
fb6DQRekWEG1erbBuJ+BQaFjT0EPaazB7cd6QYW4aUEdOLrBg1MXQTLsokF2Ta3BGrUSQaWPo0HE
RbjBnWByQYJJV0GrDKbBQOZpQW+icUFX3rPBl30cQcUNmUHSn6jB2GYYQWlQkEGH9LnBTTATQXdE
mkH0ur7BC89lQR2YaEGqtanBmxodQWSbj0G46q7BgyPQQEYiCUG5OWzBw0oOQZ8Bm0H3W8rBNoWs
QBT+90C5THTBjJ8VQQZ/OEGIz6HBGu7iQGKtE0F9kZ7B4DSuQM7d00Ans5bBpWonQVhugkGfYKDB
2DdyQOoo5kAdNcfBPqkmQbkCB0Hz/ojBZxBFQa4p+EByJpXBNKBTQXIKcUG24qLBtguPQLGdBEHf
gsDBapM+QSG2ZEHIOaXBUjmgQOx89kDy8bXBuhe2QMHHDEHJHK/B/qYsQa8jGkEiAZvB/PhtQHri
6kAKB4nBLLoWQSLGYEGwt6DBNsUVQfmaI0HecJvBLUDJQOj/AkFf1KTBbNmHQOs5xUCX5I/By94t
QTSKBEFdypTBLbErQYT3bEHsLp7BaeDgQKbJGkFOKXfBiBLkQBg7BkHDE1rBYiMAQdl5IUEHEWnB
GRMBQUGpFUHyXljBQCkiQaRthUF73KrBwrWZQMyVAUHg14PBKB0XQVtQS0GICpzBYUUHQXxZFEHi
faDBlD+nQEov9EDgHp7BZT+TQIJ2oEBW+YjBCbIOQVKzkkFRF9DBxcAJQSz2o0Erb87Bh16fQNmO
2UDkyGnBWDgUQTRmOEFVnavBmILRQCTnH0FnNpjBI9LRQIrow0BpfJXB3jcoQXHFiEGe55jB8AQx
QXzgaUFbG5PBbzyKQd6kUkEPVLvBrXaGQcg/QkEtkqnBNvt9Qci9cEE688HBAucWQdgPqkHgcKjB
3MIOQb0xq0GJzrvBgw5vQZIZUEGmXp7BsBVgQUqefkFMxbbBHgYgQTKkmEFKLaDB98gYQeIsiUGB
0b7BGSFaQJ0X9ED3tM7ByliQQAjEzEA7DMnB9n08QJ2O2EBPpsLBACIWQdYJDUEPwIjBNnEnQVK/
7kDh+YTBQ0sxQVtfEkF34oTB0ylKQR2r9ED9hp3By7RPQZ9wB0HoCpHBvdpFQdrh2EBSIpHBqslX
QTwZb0H4Y5rB4TZRQWwOgUEvp6TBntKpQFRmC0FsG8XBnnFvQJ9LEUF/tb7BFGI6QfzSZkHztK3B
CB9BQRyeU0Gsj6PB73CFQLO26EDTY7HBnqu3QNlC3UB5w7fBaNPPQPtCFEEtz7PBWEWeQOD4GEE2
66zBNTkyQTtwF0HwPaPBCzg3QcrDJUGECZfBe5ZJQHhcAEEBOI7BW4RDQCcF3kCzyYLBIRoJQam3
aUFjZZ3BeukUQZVtX0HXcanBGW4QQeXsJkHDOJPBWCjfQBke7EALMafBmytcQCdhu0BDXJXBlVUj
Qc3H8UCmwpjBT/whQbD2fkFONrDBLnakQDu3DkFziofBwo8YQZgsSkEoGJTBb3ANQdXECUG+o6XB
4J2JQCfW/0BI657BxnRzQIi+l0DeqoTBu7KcQG/rh0AHiI3BvQWrQFTnqEB5DYTBon4wQVE5d0HU
eo/BThodQV8opkFERLbBIF8vQeeto0EnILDByJsLQdUJn0HDgrbB/zOCQS1bfkE5qJLBKeiAQfR8
e0FejofB4xwwQfAbmkF8LKrBK1IMQdp3lUFWkLDB4xdzQTnIekGQpJnBaKxcQW8zcUHNcYrB7dRt
QbDndEFCXIPB43geQa4Lk0FyR6rBTAlfQX87dEF8nJXBkvjPQFO4CUHMimzBsLNqQYfOcUGyTW/B
3fmsQHUf+ECSb3TBssgTQT31OEFXXqLB/PrhQB12E0Ezvp7BjV+vQK6j0kD6ppbBU/c4QVzAa0H0
M5vBo4dzQCZu4UBbNMfBg6AmQe65CEFjK4nBwEhFQe68/ED7SZXB9k8fQRK0iEGDAqTBRt+OQMWp
AkFCncDB5LcoQe1Df0GID6vBxISgQJB980Cl/7XBmo+1QL6wC0FgRK/ByQQsQSepG0GJSJvBQ2Jv
QMIF6UDcCInBs44TQe81YUEOIKLBqdkUQRhqJEH4vJvBmCfJQMFcAkED7qTBUWmJQKtuw0DZyY/B
eeAtQYY3BkGm9JTBlVYqQW1taUHhHqXBU9XfQPdvG0H8snfBMxLkQPNGB0EYX1rByO3+QOGrIkGQ
tGnBKrMAQdYVF0Gg3ljB9YJOQVrVcEGwCZ3BrdqZQLcwAUHw74PBYkMUQfgzTEH96ZzBEs0GQR9+
FEH1laDBAZmnQJZi8kDALJ7BD7eVQM9Jn0Chw4jBjKFYQd9CbEEWJmjBNSF6QfPNdEE4qmLBTpWg
QJ+i2UD4umnBLigSQVBGOEGXKKzB++TPQA24H0FBhZjBnF/TQBehw0DVZJXBgU4xQU3DaUEUOZLB
5Uo0QXp8WkEMO6zBzoIcQd+DrUFiybrBZsw8QbwdqUGy+6/B0lT7QJnroEFGQbvBaNqJQV6ngUGp
0ZXB546HQS9SfkEIOoLByio+QUktmEF+iKXBl/b9QED7j0GBz7DBuSx1QVsRfUG4JKLBzHRNQU/1
a0HWTIfBBb9aQAa57kC2vc7BhJmRQCSEyED0+cjB0X0+QHVm00AcmsLBBvIVQbJRDkF78YjBTtQn
QbRj8kD/EoXBj/YwQf5xFEG/HoXBNWlKQT0w+UAUqZ3BWKFPQaoVCkFYPpHBF39GQQ6r3UCYMpHB
2HopQV/OiUF36ZzBxAoPQWOAhkFQeqHBT06pQJuoCUE8QcXBZudtQMQZD0Fk4b7BxGEeQbU1fUHN
G7LBY9k4Qd8BgkGkqK3BFhWGQH5J5UBGZrHB7464QDXA2kADwLfB4fHOQHVcE0GRAbTBji2dQNim
F0GCJK3B+KMxQRH2GEErg6PBVz82QcOsJ0GDYpfBBu9JQP4p/kCKSY7BnZlFQML420Cdv4LBLg4M
Qdi/bEHqo5zBEu0JQS30X0G5dqnBqIAPQfHrJ0EnipPB4bDfQONI60B3OKfBv7lfQPy1uEBXN5XB
gaYjQRlo9EAq25jBZbVSQbw8ckHJuaTB5PSjQPFaDkHBt4fBFCUVQQ/ES0He7ZTBKk0NQXm1CUGR
haXBLq2JQGs4/UARBJ/BYd14QPIslkDma4TBs7ifQPbBhkBIQI3BCU+tQByHqEDO4IPBCqUrQbW5
WEEea7LB4vNPQe9EfkGmCWLBaRpAQT91hkFOnmjB9IRZQUR1cEHRGXHBi0tkQbdTLUHJT67BBzZu
QXPANkHTPLfBcuc5QdXshkFaSH7BeFRTQbpdcUEuY4PBGmRUQdeROEE2r6jBx7NXQXZSVkE2E7XB
+CxoQUWFS0GNlrrBza9DQc0ggEG7u4bBVZFNQdQBTUEWFazBeCzQQOMSCkHm6mzBQhNzQZYjVkEi
vcPB34SuQCTl9kCFh3TB/xwQQZXdO0ECpqLBE2beQJkOFEHVC5/BoGmxQIYc0UB1sJbB5KkzQeI6
a0E106fBj9pwQLAP3EArE8fBvKklQbHvC0GwqYnBrWtEQUWNA0HqGpbBY8w8QV2KgEGaWZLBp9eL
QLGWAEEulsDB854pQRbUcUFdQpTB0gifQL+A8ED+BbbBaVKyQEXRCkEwZa/BUl0pQY+GH0GwnZvB
xsNyQCSk5EDa44jBWoINQUhUZEHrwKHBKucRQbsdJ0HjJJzBNnvHQAsqAkFWHKXBNsOMQLr0v0BW
q4/B1ZYsQcULCkElg5XBX6whQRBzckGBGaDBAsLdQAMpHEHWO3jB7gHlQHxACEGg4VrB/WX8QPNI
JEGeemrBvkwAQUTYGEEioVnB6ys9QYEVV0EuNqbBKl+aQGLq/0BJ7oPBxPQPQYX0TkFo/pzBM8cE
QUmhFkE5H6HBUminQOEj8EDoO57BbXabQH+vnECzp4jBTcJtQZvaaEH9d8bBXuWAQSF6TEGTqMjB
1BSkQCrg10Clr2nBn9oOQexoO0GxdKzBAjrLQD6fH0FaspjBJ0jWQNE6xEB+iJXBkkI5QTKWd0FB
6a7BrV4bQSn6g0ETk6LBkcRUQbGgfUFddFHBb7Y4Qbi1i0HBDl3BbpdlQWouZUEgCGzBIuRoQXh1
HUEwx6vBC3V6QaEgLkHLi7vBB6ktQWx8jEEVpIHBroxaQZesZkGrIonBs0hNQVh3MUHIp6HBmrxS
Qav5ZUGRw7fBhMpVQD2G6EDTk87B6oWRQDR/xEA06cjBJfw9QJaizEC8XsLBSLMUQQaPEEGwQYnB
MugnQe3c+EAWp4XBl3YvQT0pGEGHp4XBe1BJQVg3AkEciJ7BEDxOQdrFD0EvGpLBq61GQSgW6EC9
GZLB0gk4QcnDiEFBYpTB+UBKQSYrfEGWdpfBkTGlQLFHCEEHVMXBc1NlQGJZDEGQyb7BZZQuQVJl
YUFaUJLBXmAcQVWddkEm+47BIrSFQKHe4ECPU7HB6Fu4QKYo2UDb1rfBDonKQKwpE0EsO7TBp7eY
QO0TFkFINq3Bhj8vQTp2HUFi2KPBANUyQeP0K0H9kJfB2IFKQG+j+EAeGY7BviNLQEaU1kC4hYLB
Em7/QOBPbEEnBZ7BD50KQQ6LYkE6Y6rBXToMQbEvKkHv9JPBU2vfQNdE7EDQcafB9xBnQIW6s0CD
/ZTBLOQiQUMx+0CDaJnBDHs3Qbu4TkFfA6DB4NSiQIpXDUE9xYfB+KMRQQweTkGdDJXBgb0LQV+l
DEGAUKbBA9mIQMsd+UBwAZ/BRvuCQExFkkCiNYTBz4ymQPSohEBrJ43BmMqyQAtQp0Dr3YPB+mAj
QRR9hkGWhqjBJ0UVQSxepkHQ9bXBNcQHQY/AoUG9MK7Bo0EjQQXbn0FP9bvBVBlgQTsOYEG0oH3B
xAJZQYG0a0GyxmvBFSUIQc6clkEyd6zBAKgjQQu3lEEuPrrB+6tUQcrWYEFfeYjBecg6QREMeUFF
TYDBMUNGQSFVeEEWDG3BiecVQSoOkEGIlrLBANZBQaBqbUGEVonBDdjPQMmKCUGon2zB3tE+QcRT
gkGIEVrB8SetQN0n90AAUXTBJkASQfSjOUFXeqLBUQbgQNhWE0Hy2J7B0COvQMN70UDelJbBTMg4
QQLMZUH8xZzB8qpuQFPd3kCO/MbBpDMmQfZ5CUFyhInBecJEQXc3/0BLy5XBIV4WQVsbhEFotLDB
RyOMQBaWAUE2esDBEQ4nQWBFgUFK/KfBCIGeQIXB8UDE5LXB6TazQJAKC0F9Pq/B4fEqQS2FHEFU
pZvBgC1vQG0F50AD2IjBEKYRQXfoYUFt5qHBMqUTQfzuJEGx+5vBWJDHQBX2AUE38aTBPbGJQKmv
wUBPn4/BHD4tQUgYB0GcV5XBePEnQd4aakG0n6XBWeTeQHRdG0Ea5XfBLGLkQB1OB0G0jFrB5gP+
QEPjIkGqEWrBrZoAQf1bF0GcOVnBa4A1QZAvb0H5tpLBd3+ZQDOAAEFl1oPBP9USQaXATEHq4JzB
Wr8FQf/fFEGv2aDBLpOmQLgR8UASGJ7Bh9+WQAHSnUCZm4jBzxIuQeHuh0F4QlvB3FRJQQ3qgUF8
2EjBPHqhQJ6E2ECYhGnBX0wQQdAtOUHMQazBWcfNQKJfH0HOi5jBKmzTQIoPw0DpZ5XBSLtHQWut
WUFYsZ7BVP4tQcceX0FiPK/BwOYUQfrlrkGsUbfB1Ub6QI/ApkEwkKnBd6otQYFoo0GA3sHB+Wlu
QaZxVkFnfXzByOthQTcGa0F3/FzBRtT7QMgVk0FLdqbBOHsuQci9j0GPyL7BFj9aQUzQV0FdS4/B
VnAsQThPgUGz2oDB1dhUQI/d60AdgM7BzHyPQE1PxkAwzcjBfXY6QAZ50EA8TsLBGXEVQdDPDkGi
M4nBaronQU7r80Bmb4XBznAwQe9YFUFphIXBLr9JQabX+0DwMJ7BDwFPQT96C0HVy5HBrEpGQe0t
4EDRtpHB2HEGQfltgUGXFK7BlqYaQaUHgEEZNLjBNSemQPPCCEFHMsXBT8tnQM/XDUFUs77Bgu82
QXTpg0F6tarB9NIiQa6BhUFQkaDBn36EQFss40CdN7HBXuG2QKpl2UD7r7fBoCHMQDnlEkHyD7TB
7IOaQInOFkEyE63BE3IwQSDsGUFH56PBLRI1Qb2sKEEWypfBdp5IQHbM+0DTD47BV1FGQPOp2UDW
gILBlAQLQYhUbUFmFZzBYQMHQTfxYEEe5ajBCF4OQdQvKEFOv5PBfHbeQC/c6kCgRKfBp0JgQCJ8
tkAt/JTB1B4jQRHf9UCWMpnBXYcoQax5eEH5HpLBSQGjQDS8DUFap4fBsCQUQSATTEGj6ZTB1U0M
QbNhCkEe7KXBFnSIQOJs+0DL3J7BdtJ7QBdQlEDaM4TBsSKhQPVshUDbGo3BcnuuQNiBp0Dsx4PB
GdQ6QbtYV0EyBq7Br3oVQYpjpkFK7LXB1PAHQXbGoUGvKq7B4XAjQeben0H57bvBLAhGQcZheEFK
VW3Bvr1YQf7ma0FO5WvBxT8IQe+hlkGZd6zB/MQjQe25lEFwPbrBc3Q6Qew9eUFdU4DBg0BUQdsZ
YUFDiojBav5fQXogYEFv1X3BX/cVQSUSkEECm7LBL3RBQQambUHhXonBntvPQIqKCUHInGzBfLtz
Qf3SUkEmsHzBkSitQPks90CoUHTBYkgSQbufOUHtfKLBSRTgQFVZE0Gw1p7BXyKvQCOJ0UD5lJbB
2ZE4QYniZUGi0pzBqbRuQCn83kBe/MbBnjwmQdB5CUHWgYnB78hEQZYl/0A2ypXBYFkWQYQfhEHG
v7DBWiOMQCKlAUHbeMDBd/cmQYtHgUGkBKjBmoSeQEHa8UBC5LXBEEGzQFMUC0E1Pa/BnPsqQVmB
HEENpJvBVylvQEoS50Cj14jBu4YRQb7mYUHo86HBO68TQc/tJEGU+pvB/5bHQHn8AUH776TB3ayJ
QHi/wUD9n4/BHkYtQTYVB0EQVZXBhs0nQQkjakEvrKXBJfTeQHdbG0He4HfBuV3kQEFMB0Gjh1rB
QBf+QOLbIkEdDGrBx50AQRxVF0HvMlnBgTE1QXJUb0ElxJLB04CZQC2FAEEj1oPBBsQSQbbCTEHU
55zBK8cFQS3dFEFU1qDB6ZamQFAj8UAgF57BYdaWQEjdnUDsnIjBduF5QURrSEGCcYbBP0V+QdQB
UkG+gmvB23ehQI+I2EDXhWnBQGEQQfAgOUHQRKzBz9jNQNBkH0E4ipjBbWjTQCQWw0DfaJXB+IRH
QTHIWUHVxJ7B1eYtQQUnX0FYR6/B8ScVQSXsrkHUQ7fBgq36QN7HpkHOh6nBZ+ItQQZso0GK08HB
sYxAQfOngEHJl1/BMZVhQY9Qa0GHD13BN//7QFQbk0GteKbB35MuQRu/j0GwyL7BYx4sQV5rgUGC
0YDBi7FZQa8dWEGCZo/BrNxUQN7+60BXf87BL4WPQOpyxkAZzsjBy4U6QBeR0EBgTsLBYnsVQcTT
DkECMYnBxb8nQRnr80BpbIXBznwwQbRWFUEygoXBEcNJQdPC+0AqMJ7BcQtPQe9uC0GAy5HBZ05G
QY4b4EC3tZHBt2YGQT51gUGBJq7Bd6gaQS0NgEFDP7jBrySmQG/VCEGDMMXBysRnQIXkDUHKsL7B
V942QdXpg0Gct6rBYbQiQdeChUE7mqDB64KEQEFF40DSNrHBCOK2QBN92UDQsLfB6y7MQFftEkFS
DrTBR5KaQEbaFkGaEa3BDXswQeLlGUHv5aPBZx01QbaoKEGiyZfB95dIQLbb+0CVDo7Bl1BGQPe0
2UBdgILBNdoKQY5UbUHmJpzBRugGQSXgYEGo86jBZWkOQagzKEF6vpPBBnjeQPvk6kDaQ6fBDjlg
QHGQtkBR/ZTBtyMjQbPb9UAVL5nBDTEoQW6WeEEiNZLB8wSjQAjBDUHdpofB9QkUQXUeTEH675TB
AVUMQbZZCkFL5qXB5XmIQC2F+0BL257BJL17QNlclECCNYTB7hahQJR4hUCrHI3BF3OuQIiIp0Dq
yIPBAL86QctmV0EzDq7BR7+DQXjQWEHYd7bBxqOBQYyGT0HKZ6zBqMJ6QVXjaUEKMbrBBDMTQXEZ
mkHvoL7BtbUSQZJlo0ERQ7jB22ZyQWlfV0E6CabB+95pQYbAcUEb1bPB1FwYQXslkEEaBLrB3Ycc
QZDJmEETr6jBoGMXQQDKokHEMq3B4sxlQRqqaEG4rqnBgBkdQTpkj0EJ/67BWDLQQNcgCUEBOmzB
H/4WQbZ9rEHPSabBTpasQM/590CnTXTBBpoVQQB2OEGfzKHBGfLiQEyyE0FIkZ7BnUOuQHzr00D6
tJbBXG8nQQBLgkH5YKDBJTxyQPZl5kBTOMfBJromQdcLB0EY/ojBXh1FQT9A+EBkKJXBapZTQecF
cUFg3KLBuw6PQHK4BEHcg8DBMpo+QaGQZEHbMaXBXzagQH6n9kCG87XBQRW2QB3ZDEEDHK/BpKss
QZknGkF+ApvBBhhuQMbd6kBpB4nB5LIWQUWuYEE2sqDBpccVQTSWI0E9b5vBxUDJQC8KA0Ha1aTB
7O2HQGY7xUAk5o/Bt+otQZORBEFDypTB5rIrQRDGbEG3KZ7BGOjgQEjLGkEwJ3fB5yXkQDM3BkGl
FVrBqicAQeF6IUEHD2nB6xoBQQqnFUFUX1jBkywiQYw+hUEu5arBt8GZQD6VAUGt14PBtgcXQdlA
S0E6BZzB/EcHQTZWFEFoe6DBakSnQIM79ECCIJ7BG16TQJN1oECn/IjBzycbQcW6q0FybZzByn8S
Qch0tUE+UarBiHafQHuF2UBMy2nBET0UQT9gOEHOmqvB1YjRQDTuH0HINpjBNuXRQCH/w0AMf5XB
DD4oQVabiEEr4pjBNwMxQdu0aUGKFJPBhj2KQY/ZUkFaU7vBJH6GQStlQkHhk6nBcPJ9QfrwcEGb
6sHBkpsPQaWamkGcEMfBkcAOQdkCq0Fd1bvBuRlvQZkoUEFJXJ7BGglgQYy7fkF9uLbBSbMYQVYM
iUFn8L7BKhsgQaZHmEEAP6DBji1aQMhb9EDBt87BKlmQQE4AzUAtEMnBUXw8QKDK2EDPqsLBADIW
QTgQDUGrvYjBn4YnQdXT7kAj+ITBJFwxQU1rEkGM44TBWDNKQR+/9EBkiZ3Bq8FPQcF+B0HEDpHB
JexFQb762EBbI5HBF8RXQZ0eb0GXXZrBeBRRQfwJgUG+oqTBt9ipQKSBC0EVG8XBantvQM1mEUG3
tb7B4mY6QXCdZkHDra3B6jpBQfZ9U0E/gqPB6WqFQN7f6EDMZrHBBqe3QMps3UDUxbfBBs/PQPpX
FEGbzbPBskKeQFUIGUHr56zBDDoyQQlzF0HZP6PBqjs3QejLJUFGDZfBYK1JQNpZAEGgN47B0KhD
QAz63UBSyoLBhhsJQXWsaUGRX53Bkt8UQZFWX0FDbKnBfHMQQf3lJkFwNpPB7ybfQBw17EBdNafB
PFVcQHVgu0CpXZXB4mEjQbzP8UBMwJjBAAUiQdmLfkH7N7DBtXukQCC5DkE+iYfBRWMYQd4bSkHh
EZTBl3INQXO8CUHFnqXBo5+JQKfa/0DQ7J7BE7lzQIu1l0DvrYTBsdScQHPvh0CWjI3BnySrQPzn
qEADEYTB8HowQYsPd0HLdY/BAYiAQU5hYEG0/p7BxuR5Qcy7dUH4qp/Bp3FyQcphT0GSRKDBsWQp
QWeWq0H7oJvBQL4fQRIFr0H9N6XBvB9kQdoZekHYraHBDK1cQeq3U0EpRqLB+AYpQa6woEFnyJjB
D0cVQX2snEGcFqnBgJkVQSOLp0FEC6zBJ39VQfYWaUGNHqPBivoeQRwfmUGqe5/BD1bQQH4VCkHQ
8GzBzUkLQUL2qkFMOrbBn9OuQOu19kCNg3TBdtsPQbioO0GfuaLBYDHeQIg4FEH3C5/B4HmxQP1M
0UBfs5bB7vMWQbVfhUE4XaHBNhJvQLt93ECPAsfBQikmQSq1DEGT3YnBm+tEQUYzBEEaSJbBFgM+
QZCzbUFFI6XB0tWKQPrUAEFdhMDB/98xQa62b0G2XprBBk2eQBUB8UB9+7XBrIuxQBgUC0H2WK/B
8awpQRa9H0F2C5zBBQ9zQHk+5EAu1IjB6FsNQZx3Y0H5HaLBUAgSQQgXJ0EkQ5zBvATHQLhjAkGD
G6XBFQ6NQO3Kv0AGqY/BMBQtQf6ICkHDt5XBoYwZQdT7dEEdwZvBWY/dQAw/HEGSPXjBOFrlQLpK
CEFN9FrBNDP8QHRyJEECiGrBaVsAQfL6GEFbuFnBjxYfQbxnjkEEIpzBj2iaQMe0/0CT44PBNEYQ
QSysTkHXG53Bu7sEQWKLFkEFGaHBcS2nQBNz8EC8MJ7Bwx2cQPWHnEDWsIjBeH4CQYEfpEF0O7zB
zGQLQbGztEG21LjBWr2kQHmK10DrsWnB+gAOQeQ0O0ELg6zByynLQLbkH0EWuJjB3m3WQDWSxEDl
m5XBqBcOQRnAhUEFHarBkDgQQZiodkEKVZHBbuCIQV0LXUEZgZ3BAIqCQWJfgUGGpJ7Bku13QbEI
P0GXtJ/BmRcxQXpUsUFUcpbBQBYgQdBit0GpXqfBKp9eQZw6hUGTHqLBPnhRQbivRkGUKqPBXnsw
QQQcnkGEbZHBiXwNQfTvlkEePq7BBp5TQIby6EC0fc7BN76QQLUYxUDX4sjBdIo8QIndzEAVSsLB
5ioVQfY4EUHteonB8YUoQb+p+kD2v4XBreIvQUQcGUHV8oXBIs1JQW+qAkGbs57BvqhOQVmZEEHc
XpLBAkxHQemj6UD8K5LB/H88QTHGfEEtnqnBMQk3QaiPYEHt1qnBKwSkQHefCEFQRsXBXRZjQOGB
DEGNrb7B/FQzQR14YEFiCJbBP1U5QfOQfEGDp5XBcCCFQKs14UA5RLHBfLO3QJLL2UAG17fBUZHJ
QHGFE0FjM7TBaOCXQOtBFkGYG63B9RcvQdNOHUEoVKTBqlUzQcVfLEG4RpjBJEtKQNwm+EAY/43B
YuZLQOrz1UCtcoLBL2r4QPZmZ0EKRqLBRowTQcDkYkGeWarBr8IMQVQeKkEIAZTBKuHeQDq/7EDg
gafBtKdnQEx2s0CI95TBhHkjQXy9+0Agf5nBBuslQbUHjUG/B5XBb5SiQMNLDUFkt4fBa7MSQfwd
TkHINJXBAKILQV5MDEGuLqbBpJWIQBxo+UDu457BtMeDQJ7hkUD0OoTBo02nQJilhECfOI3BtHGz
QC5Cp0CR6oPBLqARQS1iaUGaso3BoMc3QSVup0ESmrLB05szQcXbn0E0s7rBWcE9QS/8o0FcSKjB
emRGQc8IeEE0TG3BvQ1ZQTV9a0E7zmvBJ4k1QTvXlEHsgLjBJa4/Qbj3mEEiEqbBDtk6QZjmeEFe
UYDBVp5UQfWuYEGzfojBW09gQd2tX0H1t33BydQ7QdxekUH3N67BatZBQVJAbUGgWInBUsbPQIWK
CUHxl2zBEQB0QSJPUkGahnzBtf6sQHFJ90C7TXTBXGYSQbueOUHDjqLBRkTgQNlME0H20p7BKwKv
QHWJ0UAgkZbBGuE4QTEuZUE7v5zBdxVvQLn93kDJ/MbB8CYmQeRRCUEofYnB+rdEQWWk/kDAu5XB
LJM9QT+GhUFZ0qvBY3SMQGueAUGAesDBVKEnQWoZgUHzHqjBh7OeQB/I8UCn4rXBGYqzQAUGC0Ej
Pa/Bdw4rQbNpHEF5mpvBUOhuQE5Y50Dm2ojBHPMRQWYTYkEqIaLBOMYTQZ3vJEFE/ZvBqsDHQB3v
AUGe66TBtHCJQPXqwUDvno/B3zwtQTXxBkFvTpXBnnEoQfDOaUE2taXBUAXfQINRG0Hh3nfBVTvk
QDZHB0Hnf1rBPCn+QKrJIkGXBmrBs5gAQShFF0GRKlnBIJ01QSHqbkG8wJLBdnGZQBuYAEE014PB
kqwSQZvbTEFSCZ3B3N0FQZfXFEF31aDBAKOmQJgn8UChFZ7B0GiWQOwBnkBKmIjBmyJ6QXbbR0Ge
WYbBTYF+Qel4UUFgVGvBxCihQEW12ECLgWnBna8QQaoDOUHlV6zBSgrOQPZYH0GthpjBbDjTQAD2
wkCxX5XB9rFHQZfiWEEtpJ7B7VQuQfqsXkHsTK/BuWU2QXHfr0GkTbTBwe8uQY6AokFAlsLBkNtA
QdXJqUGVEqLB5etAQWmBgEFMlV/B4dphQa7gakGT8lzBLTIyQYkLj0GisL7BYxlEQQdVlkESJZ7B
zIssQblFgUGj1IDB/RVaQS+0V0EWWo/BbnBVQAcF7ED9gc7B3puPQFFWxkBTysjBirg6QAW30EDe
T8LB5msVQQXADkFlMInBupEnQQqP80Bca4XBWXAwQfcdFUEEd4XB1b1JQWJF+0ANIJ7BXwJPQfMd
C0EBtpHBwSNGQQGP30BZqpHBY65CQThEgUFjFrPBNHRJQXBGhEEic6XBiIymQIG8CEEvMcXB3plo
QNvsDUG6tr7BTrsiQcZZhUHO0KDBvsobQVSIgkEaea7BFZyEQBdU40BlNrHBEPu2QNlP2UC1qrfB
HI7MQLXOEkGyDbTB2e6aQMTZFkFyFq3BQp4wQV7RGUHd2aPB9TE1QaqEKEF0t5fB95ZIQC0x/EBc
FY7BgdtFQDcX2kAshYLB4VwLQXSpbUHOYZzBNXwHQcI6YUFFManBm3cOQTRJKEGPxJPBppjeQLi5
6kDcOafBsrtfQHXRtkBO/pTBLRIjQS2x9UCSLpnBRMEoQTBieEFvQZLBnxejQBrNDUGIqIfBH2oT
QdFGTEHeDJXBDGwMQQBUCkFA5aXBtpCIQKij+0DJ3Z7B+L56QG2flEAVM4TBJpigQG6OhUB1FY3B
5gauQGqZp0A9woPBLf46QZyjVkGFD67BpJw3QSpqp0Gvp7LB2nQzQVvVn0Etv7rBj5w9Qfj6o0Hr
VajB93BgQRiaX0EEh33BcFpZQSBNa0EdtmvBWGw1QXfRlEEni7jBBZQ/QSv3mEEmHqbB7AxVQVth
YEGwbojB3zM7QXSyeEEkT4DB86VGQYr8d0GECm3BV8A7QdhbkUFYQq7Bzz1CQSP9bEGNUonB3r7P
QOKNCUGymGzBNzc/QYsugkHGGFrBzPmsQIJJ90AvTHTBSV4SQfibOUFzjaLB1TDgQARGE0E81Z7B
+/uuQGZ90UDqjpbB/R85QaoPZUEKtZzBD+1uQMHP3kAU/MbBLiAmQVNSCUE6fonB2K9EQX+n/kCt
vZXBupU9QUeDhUHP26vBH1qMQDOKAUEiesDBdronQXoQgUEdE6jBN6SeQMal8UCT4rXBinGzQJf4
CkG3Pa/BrQIrQXJmHEECnZvBmdpuQCVM50AA2YjBVhgSQQQNYkFpFKLBvroTQenpJEFi/5vBSbHH
QEblAUFr7KTB3myJQAbewUASnI/BlTMtQSrwBkHiT5XBtZsoQSe7aUGWqaXB5PXeQIFVG0Fs4XfB
fzfkQMxNB0FIgVrBVRr+QBbRIkFGC2rBiJQAQRlOF0F9LlnBAPE1QUS5bkF2tZLBeGmZQMGUAEFo
1oPB8sESQWPSTEGOA53BNdMFQVzTFEHm2KDB+JemQP8S8UBoFZ7B22uWQHf5nUColIjBOYMuQSrR
h0HnVVvBGLFJQb7CgUFc2kjBUiehQFW32EDAfWnBQZkQQZkJOUEoVqzB6vbNQC1QH0EBiJjB9jPT
QCLvwkAEXZXBJvdHQSDJWEETlZ7BRHAuQSqcXkEJRK/B8zI2QeLar0GHXLTBDsQuQb93okFTosLB
Y7NAQTfKqUE2IaLBtbpuQYv0VUEIWXzB9TpiQZOdakHW5lzBvhYyQRQEj0F2ub7BQgNEQdtWlkHa
MJ7B7aFaQV1TV0HNPY/BKuYsQXEpgUH/4oDB1DlVQFDU60DSgM7BSY2PQNouxkB7ysjBO5w6QMCB
0EBwTsLBkmQVQYa+DkG4MInBzI0nQdSR80DCa4XBKWkwQWcgFUFJeYXBnrRJQexF+0ATIp7Bc/lO
QZ8hC0H8uJHBFx5GQUSU30B1q5HBj5pCQWVBgUHUI7PBbZBJQWRIhEGwh6XB8WumQN2rCEGnMcXB
iVloQE/VDUGctb7BhO0iQbxPhUEswKDBqckbQch8gkGLYa7BxJOEQBIp40CONbHBOfO2QKo12UBC
q7fBFG/MQPjEEkHhDrTBiM+aQJHIFkGtFq3BbJEwQY7MGUF03KPByyU1QSqDKEEcu5fBaoNIQMEg
/EDbE47Be9JFQOAL2kCxgoLB0I4LQeChbUHVUJzB8JwHQSxFYUFVI6nBrmsOQbQ/KEFdxpPB2Yve
QGSo6kCrOqfBZbVfQMy+tkDn+pTBmAkjQfuq9UDhLpnBKhgpQVIzeEGDLJLBWQyjQEzJDUGkqIfB
3YoTQWM0TEGMB5XBHmEMQf5SCkFy6qXBnIOIQDmI+0BO3p7Bw8l6QB2VlEDcLoTBup2gQKSFhUBa
EY3BowmuQFWWp0Auv4PBsRo7QXqRVkHTC67B

>  <OMEGA_E>  (19) 
DnCXPxtOmD+yXJg/HneYP1Z4mD+/SJc/OjObP8oVlT8VFpU/

>  <OMEGA_NBR>  (19) 
    120566

$$$$
50169572
     RDKit          3D

 91 92  0  0  1  0  0  0  0  0999 V2000
   14.4554   19.2680  -22.1995 C   0  0  0  0  0  0  0  0  0  0  0  0
   14.9093   18.3934  -21.1954 C   0  0  0  0  0  0  0  0  0  0  0  0
   13.2817   18.9695  -22.9186 C   0  0  0  0  0  0  0  0  0  0  0  0
   15.3849    9.6841  -18.1365 C   0  0  0  0  0  0  0  0  0  0  0  0
   15.5823    9.0046  -19.3514 C   0  0  0  0  0  0  0  0  0  0  0  0
   14.1836   17.2271  -20.9013 C   0  0  0  0  0  0  0  0  0  0  0  0
   12.5426   17.8127  -22.6140 C   0  0  0  0  0  0  0  0  0  0  0  0
   14.5386   10.8000  -18.0904 C   0  0  0  0  0  0  0  0  0  0  0  0
   14.1010   10.5775  -20.4803 C   0  0  0  0  0  0  0  0  0  0  0  0
   14.9471    9.4523  -20.5348 C   0  0  0  0  0  0  0  0  0  0  0  0
   12.9692   16.9525  -21.5830 C   0  0  0  0  0  0  0  0  0  0  0  0
   13.8831   11.2407  -19.2531 C   0  0  0  0  0  0  0  0  0  0  0  0
   15.1673    8.7549  -21.8235 C   0  0  0  0  0  0  0  0  0  0  0  0
    9.0268   11.7719  -20.0167 C   0  0  0  0  0  0  0  0  0  0  0  0
    5.5479    6.5155  -18.7046 C   0  0  0  0  0  0  0  0  0  0  0  0
    6.8571    9.2358  -19.6299 C   0  0  0  0  0  0  0  0  0  0  0  0
   12.1354   12.8967  -19.9718 C   0  0  0  0  0  0  0  0  0  0  0  0
   10.0575    8.6071  -16.9507 C   0  0  0  0  0  0  0  0  0  0  0  0
   11.8523    7.8582  -18.5509 C   0  0  0  0  0  0  0  0  0  0  0  0
    4.4237    9.9843  -21.2410 C   0  0  0  0  0  0  0  0  0  0  0  0
    6.3556    9.3292  -22.7322 C   0  0  0  0  0  0  0  0  0  0  0  0
   12.1560   15.7110  -21.2953 C   0  0  0  0  0  0  0  0  0  0  0  0
   12.1584   15.3834  -19.7965 C   0  0  0  0  0  0  0  0  0  0  0  0
   10.4264    9.8465  -19.1572 C   0  0  0  0  0  0  0  0  0  0  0  0
    9.8963   14.1272  -19.8794 C   0  0  0  0  0  0  0  0  0  0  0  0
    4.7689    6.6680  -16.3050 C   0  0  0  0  0  0  0  0  0  0  0  0
    9.0081   10.4459  -19.2532 C   0  0  2  0  0  0  0  0  0  0  0  0
    4.5162    6.0344  -17.6819 C   0  0  2  0  0  0  0  0  0  0  0  0
    6.1059    8.1950  -20.4682 C   0  0  2  0  0  0  0  0  0  0  0  0
   10.4453    8.4673  -18.4394 C   0  0  0  0  0  0  0  0  0  0  0  0
    5.3556    8.8255  -21.6708 C   0  0  0  0  0  0  0  0  0  0  0  0
   11.3770   14.1185  -19.4345 C   0  0  1  0  0  0  0  0  0  0  0  0
    4.6255    4.5755  -17.5289 N   0  0  0  0  0  0  0  0  0  0  0  0
   13.0556   12.3385  -19.0971 N   0  0  0  0  0  0  0  0  0  0  0  0
    9.2494   12.9377  -19.3026 N   0  0  0  0  0  0  0  0  0  0  0  0
    8.1666    9.4929  -19.9647 N   0  0  0  0  0  0  0  0  0  0  0  0
    5.1546    7.4789  -19.6215 N   0  0  0  0  0  0  0  0  0  0  0  0
    4.8728    8.1373  -16.3876 N   0  0  0  0  0  0  0  0  0  0  0  0
   14.8244    9.3069  -22.9051 O   0  0  0  0  0  0  0  0  0  0  0  0
   15.7000    7.6133  -21.8283 O   0  0  0  0  0  0  0  0  0  0  0  0
    8.9340   11.7880  -21.2402 O   0  0  0  0  0  0  0  0  0  0  0  0
    6.7246    6.1794  -18.5993 O   0  0  0  0  0  0  0  0  0  0  0  0
    6.3127    9.8136  -18.6930 O   0  0  0  0  0  0  0  0  0  0  0  0
   11.9532   12.5011  -21.1190 O   0  0  0  0  0  0  0  0  0  0  0  0
   11.3924   14.0832  -18.0028 O   0  0  0  0  0  0  0  0  0  0  0  0
   15.0078   20.1697  -22.4193 H   0  0  0  0  0  0  0  0  0  0  0  0
   15.8147   18.6183  -20.6514 H   0  0  0  0  0  0  0  0  0  0  0  0
   12.9488   19.6303  -23.7054 H   0  0  0  0  0  0  0  0  0  0  0  0
   15.8845    9.3466  -17.2404 H   0  0  0  0  0  0  0  0  0  0  0  0
   16.2226    8.1355  -19.3821 H   0  0  0  0  0  0  0  0  0  0  0  0
   14.5504   16.5380  -20.1550 H   0  0  0  0  0  0  0  0  0  0  0  0
   11.6465   17.5832  -23.1713 H   0  0  0  0  0  0  0  0  0  0  0  0
   14.3895   11.3237  -17.1578 H   0  0  0  0  0  0  0  0  0  0  0  0
   13.6184   10.9332  -21.3786 H   0  0  0  0  0  0  0  0  0  0  0  0
    9.0506    9.0430  -16.8729 H   0  0  0  0  0  0  0  0  0  0  0  0
   10.0653    7.6153  -16.4752 H   0  0  0  0  0  0  0  0  0  0  0  0
   10.7809    9.2626  -16.4435 H   0  0  0  0  0  0  0  0  0  0  0  0
   12.1266    7.7594  -19.6115 H   0  0  0  0  0  0  0  0  0  0  0  0
   12.5764    8.5133  -18.0445 H   0  0  0  0  0  0  0  0  0  0  0  0
   11.8609    6.8660  -18.0761 H   0  0  0  0  0  0  0  0  0  0  0  0
    3.7122    9.6219  -20.4844 H   0  0  0  0  0  0  0  0  0  0  0  0
    5.0261   10.8008  -20.8162 H   0  0  0  0  0  0  0  0  0  0  0  0
    3.8706   10.3540  -22.1170 H   0  0  0  0  0  0  0  0  0  0  0  0
    7.0162    8.5035  -23.0354 H   0  0  0  0  0  0  0  0  0  0  0  0
    5.8041    9.6984  -23.6094 H   0  0  0  0  0  0  0  0  0  0  0  0
    6.9596   10.1452  -22.3087 H   0  0  0  0  0  0  0  0  0  0  0  0
   11.1197   15.8760  -21.6251 H   0  0  0  0  0  0  0  0  0  0  0  0
   12.5864   14.8635  -21.8488 H   0  0  0  0  0  0  0  0  0  0  0  0
   13.2014   15.2500  -19.4733 H   0  0  0  0  0  0  0  0  0  0  0  0
   11.7128   16.2317  -19.2563 H   0  0  0  0  0  0  0  0  0  0  0  0
   10.8248    9.7195  -20.1747 H   0  0  0  0  0  0  0  0  0  0  0  0
   11.0665   10.5440  -18.5971 H   0  0  0  0  0  0  0  0  0  0  0  0
    9.4003   15.0382  -19.5132 H   0  0  0  0  0  0  0  0  0  0  0  0
    9.8346   14.0922  -20.9771 H   0  0  0  0  0  0  0  0  0  0  0  0
    3.9363    6.4072  -15.6351 H   0  0  0  0  0  0  0  0  0  0  0  0
    5.7080    6.2672  -15.8958 H   0  0  0  0  0  0  0  0  0  0  0  0
    8.6189   10.6160  -18.2385 H   0  0  0  0  0  0  0  0  0  0  0  0
    3.5073    6.3051  -18.0266 H   0  0  0  0  0  0  0  0  0  0  0  0
    6.8415    7.4803  -20.8656 H   0  0  0  0  0  0  0  0  0  0  0  0
    9.7250    7.7996  -18.9348 H   0  0  0  0  0  0  0  0  0  0  0  0
    4.7348    8.0429  -22.1313 H   0  0  0  0  0  0  0  0  0  0  0  0
    3.9522    4.2585  -16.8610 H   0  0  0  0  0  0  0  0  0  0  0  0
    4.4542    4.1343  -18.4098 H   0  0  0  0  0  0  0  0  0  0  0  0
   13.1333   12.8026  -18.2147 H   0  0  0  0  0  0  0  0  0  0  0  0
    8.9557   12.9729  -18.3474 H   0  0  0  0  0  0  0  0  0  0  0  0
    8.5624    8.9986  -20.7387 H   0  0  0  0  0  0  0  0  0  0  0  0
    4.1812    7.6919  -19.7064 H   0  0  0  0  0  0  0  0  0  0  0  0
    5.0367    8.5122  -15.4751 H   0  0  0  0  0  0  0  0  0  0  0  0
    5.6314    8.3844  -16.9905 H   0  0  0  0  0  0  0  0  0  0  0  0
    4.0208    8.5116  -16.7535 H   0  0  0  0  0  0  0  0  0  0  0  0
   10.9247   14.8367  -17.6620 H   0  0  0  0  0  0  0  0  0  0  0  0
  1  2  2  0
  1  3  1  0
  2  6  1  0
  3  7  2  0
  4  5  2  0
  4  8  1  0
  5 10  1  0
  6 11  2  0
  7 11  1  0
  8 12  2  0
  9 10  2  0
  9 12  1  0
 10 13  1  0
 11 22  1  0
 12 34  1  0
 13 39  1  0
 13 40  2  0
 14 27  1  0
 14 35  1  0
 14 41  2  0
 15 28  1  0
 15 37  1  0
 15 42  2  0
 16 29  1  0
 16 36  1  0
 16 43  2  0
 17 32  1  0
 17 34  1  0
 17 44  2  0
 18 30  1  0
 19 30  1  0
 20 31  1  0
 21 31  1  0
 22 23  1  0
 23 32  1  0
 24 27  1  0
 24 30  1  0
 25 32  1  0
 25 35  1  0
 26 28  1  0
 26 38  1  0
 27 36  1  0
 28 33  1  0
 29 31  1  0
 29 37  1  0
 32 45  1  1
  1 46  1  0
  2 47  1  0
  3 48  1  0
  4 49  1  0
  5 50  1  0
  6 51  1  0
  7 52  1  0
  8 53  1  0
  9 54  1  0
 18 55  1  0
 18 56  1  0
 18 57  1  0
 19 58  1  0
 19 59  1  0
 19 60  1  0
 20 61  1  0
 20 62  1  0
 20 63  1  0
 21 64  1  0
 21 65  1  0
 21 66  1  0
 22 67  1  0
 22 68  1  0
 23 69  1  0
 23 70  1  0
 24 71  1  0
 24 72  1  0
 25 73  1  0
 25 74  1  0
 26 75  1  0
 26 76  1  0
 27 77  1  1
 28 78  1  6
 29 79  1  6
 30 80  1  0
 31 81  1  0
 33 82  1  0
 33 83  1  0
 34 84  1  0
 35 85  1  0
 36 86  1  0
 37 87  1  0
 38 88  1  0
 38 89  1  0
 38 90  1  0
 45 91  1  0
M  CHG  2  38   1  39  -1
M  END
>  <OMEGA_C>  (20) 
eElnQe8kmkGkmLHBkoxuQZ0lk0FHkKnB8IFUQZfBl0FZWbfBgSh2QQjyGkF0F5HBClF5QewSEEGg
z5rBGPBiQTPRiUHwNafBrK5IQW2AjkF/6bTBSp5oQffMLEE8uZDB4p1hQUg9KUGl16PBaSdvQb48
F0FUR6TBu4FPQbqeh0EVqqzBFSFeQebZM0FiBprBXK1yQQ8UDEGMlq7B5G0QQahZPEFIIqDBkYix
QMF+0EDsopXBg23bQPvFE0ERCp3BfSpCQdFYTkEyxp/BuesgQc62CUEBm4fB5aI9Qbl2+0A0aJTB
AI+NQH2/H0F+7anBTmHLQEhEFUGM27XB8X5CQUVge0G+XKrB2ohCQXsidkEtX57Bg9ImQRqLHUEK
QpnBTFceQTEJYkH7CJ/BtJqYQPFf1UCqcILBDSEQQXgiJ0GiBprB6ISQQIAZwUCGdI3BrGPDQMse
A0HIvqPBxB8nQQh6B0HTg5PBNmGrQBg1DUHWXa3BSgg2QZDlYUHGeZvBQQSUQFBqkkA9O4zB3uNQ
QX5qRUHWxpjBXf0TQbYAT0HMa5rBRqoCQeriF0HNt5/BgvKkQGdT70DK+JzBRu6bQIEyAkHJGYPB
kzBtQeLoFEGYPbfBXzN7QXCg80ByoK7Bu/EOQcibPEEB7KnBEDDXQJy9xUBUy5TBwQHKQHYEHUFC
i5XBfEA/QWYESEHO86jBLEc2QfdUYUHLBZDB9B9wQY5boUGpWrPBHwl9QUrylEH5NaXBTi5PQdgK
nUGUpL3B5CZ+QbWLFUFZ7InB78eBQeEqAkF8DpvBb85oQelNhEF2PaHB9Fc6QX2qjEHrXrnBbDtm
QQYuNUEZQ4nBG+VZQWHuLkFbB6vBTM8QQUqwEEGm+4bBigshQSWw80AlzYPBhX4sQXIzFEFhjIPB
lAZCQUpN+EBq5JzBDTlJQZo2CEESW5DBEsY9QXS220DWm5DBPJRtQCjzGUEK4KPB5dWgQPrPLEGl
h6bB+Ld3QAWqJUGE77DBmoTgQFwOCEGJSLjBMLu5QKIsG0EQ4LzBGbXeQJdSIkExeLLBLuoxQTYE
fkFOAK3B+2FJQcDQbUFlyq7ByzhTQTEAdEFDyZvBi2c7QZbagUHsDJrBjTItQT2DG0G0ZaHBdhAx
QRu0KEHwxpTBtmcWQYaccEHwGpzBuVodQcB5YUEY0afBwut7QO4HzUByKXrBEqi2QBiNyEBEVX7B
8OYJQQbbKUGI6JHBYnhgQKXDyUCSNpDB3e3aQFBe70DS7KbBcZkbQaeW+UBlepfBS4OXQISvAEH6
DLHBpfB8QKpFiEBJ44bB2oiOQDhMhEBcR5PBISJSQVvXTEG5t5HBukoPQd2QT0Fkx5LBZv8IQWT6
D0Ht6KXBysyFQCgk9kDPpp3BziyhQOgxCEEJmnfB1DS0QE0mBkGG7IfBHKqAQJcvCEEmB4bBqssu
QfhibUHJS43BCUxkQTPgmkFgSLLB8txSQe4FlUFRWLbBG1JwQQ/SlkHbpqnB5ElzQaMMG0E+3ZDB
ZFF3QY9fEEGkjZrBcF5NQTMmi0FXv7HBDbdqQTz8jEGi86TBWXZlQfO4LEG9rJDBWvVfQVxtKUHw
66PB5bxtQVmJF0FqK6TB2PdYQRc2h0Ht1qjBjZhbQfPnM0HJIprB0gByQYJcDEH0aq7B/uIQQa7V
OUHPLZ/ByYSwQJHvzkCBtZXB6S/bQANUEkETHJ3BOXxAQbUVT0EodqDBfWchQbxkBkFFu4fB4cM9
QSYZ9UCIxJTBoPqMQCc7H0GuxKnB7cTKQF4UFUF1x7XBEUtTQVtNeUG5vKPBcLw6QS2AdkFWQ6PB
1BwnQVSAGkFuTJnBFMgbQa8lYEH7dp3ByyWYQAK000BkeILBnIYQQVYqJEFjs5nB/ZOPQI+4v0BI
fo3B52TCQO0jAkEt5KPBT1gnQQxeBEGLsZPBC5KqQOW+DEEZZq3BeS80QfUQY0EqlpzBpaSSQFb4
kEBBXIzBVwZOQV9pRUE/DpnBYIcVQd6FS0H58JjB778CQVChFUH+oJ/BM+SjQCWN7UAdGp3BW1Ga
QBpnAUH4C4PBIuBsQUQOFUFeKLfBta16QbNS9EBtUK7BdiIOQWFUO0HG4KjBzBzWQLfiw0Aw7JTB
CiLKQDq/G0H2nJXBAXQ+QUD7SEG5u6nBlyg5QUsnZ0FplJHBe3hoQf59okGtybXBt7hJQT0fmEFq
/bzBPtt9QaJEm0EVpKbBVdR6QcWmFUHpkonBU+SAQfufAkGLqZrB+EZAQR+MhkHGAbXBcAB0QVnc
iUGTXp7Bxl1iQfPfNEE2N4nBOrlYQWQhL0E6O6vBNFcRQedtDUGp/IbBEIkhQcHk7EApAoTBFx0t
QYG+EEE6r4PBwvJBQRZB8kAxSZ3BsX5JQSvkBEHfupDBquo9QRUw1UDODZHBIiNsQNw9GUHRy6PB
CGigQMARLEFTNqbB2912QJmGJUG3t7DBYb/fQNzoB0HCV7jBPkW5QNldG0HUvLzBWT7eQADpIUFw
O7LBZEJaQSw4bEGLe6jB0tFZQTfReEF1kZvBjaYzQXJ4gkHusJ/Bjp80QeZzdEGRc6vBqhItQama
GEEphqHBV6wxQfZ1JUET4ZTBTLcTQSgRbUESDpnBwAoXQXjCYEEk76XBGVp8QO+JykDn+nnBB8S2
QBx2x0AzyH7BNYsKQbQXJkEee5HB86BeQJXFyEAZMJDBNmvZQEIr7UA6MqfBe6sbQUqw80A6p5fB
QJGWQJx2AEE4PLHBnU96QA7jhkCy/obBYM+MQCIdg0ApbJPBcvxNQaEgTEFmy5HBpY8UQbIgSkGK
/JDBUPYIQQ6pDUHb1KXBq72EQPNO9ED/zp3BjOqfQE9XB0GcgHfB2/mxQMq3BUGO+4fBvw99QOUd
B0HIzIXBAZIxQTJzc0GROI/BAoNOQULNokEJxq/BoHBbQVAEnkFy3KfB1Bk6QVOSnkGIDrLB0OVd
QXdjDEHj8ZHBFiZnQb5PBUHBkpvBDOVTQSgLlUEGLKLBoosyQUSYlUGFY6zBXiFUQa+hIEH0cJHB
tjBcQfx4JkH8Q6TBMpxmQW97EkELyaTBNk8/QZjmkEE1V6TBjNZSQWa3LUH/oJrBRBlxQcytC0Gn
6K7B4MYWQcf4OUG+U53BjcWsQNcL0EBl0JbB1qTZQHimFUHsgZvBBNJEQQqUUUGaNKHB7nMJQSYf
FEFLUn7BpN0rQQtNAEE6wILBbyOnQNb1+0AWirXBMteSQLQKIEG+1KvB3io3QSRDh0GpSZ7BOos/
QX6weUFqhaPBllEgQZFHHUGMrI/BsIYfQbknYUHI2Z/B52yKQLQUvkD6/oTBTCUOQa+4KEEow5XB
FVaGQM83u0AlQ5HB1NjGQEn6BEHjGaPBnl4YQf9HC0FQ/4fB1Oi2QJJtD0Hzsa3B3qk3QUM2ZUEy
mZ3B7MeDQFnwjUBBkJTB5HNIQbl8QUGhkZnBgjkXQXfyTkHPpZnBSo8CQdMbGUEAMJzBadikQC5J
8kA6n53B8B2LQCpC60BQaoHBAKlwQUTJF0G//rbB2Kd6QVbg80AdU6/BhAwdQaNANUGAWKbBOFTR
QDuEw0Cw+ZTBggnDQPpOH0G2EpXBiFtKQaQuUEEZmKrBFMc6QZj3Z0FBUZLBO0BUQe62qUHzFrTB
Oh5rQVs6oUFvKabBYEIwQRo3okEPJ7jB0kteQS1HAkHl8IrBCbBuQWiP60DI8JvBFtddQdJVkUFo
KJzBN/wiQYRNkkFPM67B7Y1NQbA5JkHy9InBklhbQUBiMEGcVKvB8Rj3QBv0G0FB34LBNPcDQZPg
BkGjHHTB4T0SQWXRH0HFiXTB9YA2QdP+80BdA4nBqaA0QUgDDEF9tnvB/FkmQe0k5kBbSXvB+8bA
QFxr5EDK2bbBIPyKQHLN60DJIrLBOm2eQHhsBUHgNb3BjB6eQCxuLEGiQKbBQh6KQNiAJ0E4f7PB
UFptQBn7F0EibKjB4sc8QZ6ph0H59JXBypElQbc/h0HWa57BReo5QWUWeUGC2qvB+SNRQT3ueUE4
ZqPBhDwrQQIZFkGQkZXBAwUpQUpBKUHn6YrBtm0WQQyYb0H9sp3BiWwdQSjKXUGUbKjBIwZeQK+2
rUBxSoHBuEmoQLpcrkBdfoLBu0oDQQk1MEHg7o/B3BJSQEoKzEBpu5PB6ongQDtp80AhNKXBYYYP
QWuv/kDetozBdSnSQJy5F0FWabHBTI1VQFoHgEBV+5DBYiiAQJFHjEBQgJzBMsJCQYGdREEPQpLB
K4oRQQ3bUUH+T5LBJOcKQaFYEEEZbKHBAX+GQDIw+0Ca1p7BO8iNQARS7EAf5XLBSw2kQB1H+kD6
vITBOPdfQCqw+UAMpYPBkc4yQXf9c0H564/BblBiQSJBm0EpJ7PBqIJkQTQlkUF3CrjBCRhbQaYD
nEECfqjB4LZdQcx2CkFFzJHB8I1mQfe2A0EflZvBjppfQSLJh0G5P7LBsy5WQaCqkkH/sKLB+JJT
QZaAHkFEEZHBspFaQQXVJEHG9KPBOUZlQaQHEUHJuKTBQq5YQdaGiEFHg6fB2IhRQT+5K0HaK5rB
50dvQViVCkFDB6/Bm/4UQUyhNkHD+5vB6SCxQByA1UDP+pXBI1nYQBI6F0G2VJ3BWidCQecmT0Ej
gaDBEPwJQaDoD0Fbu3vBn+YsQSWC+kDd34HBVALSQBbEGUFElbXBZ2adQORc9kDOKbXBRiRTQWMG
fUHjT6HB8D07QWQ+d0F396LBnt0fQRIQGkGdjI7BPLscQc4IXkFvmp7BzQycQOQnsEBskYTBkg4N
QbgdJUHOWJTBNMCMQFIJwUANgY/BS0rFQPZfBUGDLaTBOdkYQaawB0GC3obB2nKwQPrxDUGBn67B
/tc0QdKeYkF8w5zBLtl1QCBdnUA02pXBC9dGQSlOP0EC5JjB3TUVQUGdS0FVR5jBknEBQcopFUHx
hprBI/KlQFcD9ECvlJ3BRB6rQEDn00CzgnvBzxZuQa7GFkFjELfB7yd5Qa4W8kDPqK/BMcgaQSYZ
MkEFG6XBAmTWQArLyUCFz5TB+ILCQLZvJkFTVZrB56xGQUCKTUETBarBDWs4QZ8OZkFnkZHBbypm
QalrokEqlLfBkvNpQSqTkEG1OMDBCFRZQTrDo0HdxaTB0LZeQYVBAEE62IrBiVduQWan6ECWH5zB
tiJhQV8MgEFJBLbB7oBQQcJBk0F7jZrB8UlNQZDTI0HmeInBsD9ZQUXkLkE486rBUGf3QJJXF0FW
a4HBZR0FQeVqAkE6iHHB7JESQT3PG0HJA3LBeXk3Qd/Q7kD2RYjBe3s1QTgoCUHuB3rB8wYoQcKH
30BejHnBo7zfQKMiJ0HFALHBPZ7rQMORDkH617fBC37CQOn6H0Fc2LzBl4aFQOhe5UCuSbDBtgKO
QDl4AUEobbzB6CK3QCYe4EDFbLfBDi5dQXe4b0HUI6TBriRWQXLFf0EawJjBKFExQbhOgkEmHqDB
XFY4QX6udEEKjavBEqwqQexQE0H5npTBtncoQegvJkGm1onBW3gTQUpEbEHmSZzBPiIaQX2kWkHb
I6fB9lqBQP7Jn0BQjIDB4Hi2QHFumUBFzoXBZG4CQWleLEF1V47BqoFnQPk42UBAJ47BRyTfQH6b
9ECVa6bB0zUQQccW90CzjIvBjKaWQJwnGUGohKzB7DhGQP6Dj0AHyJHBwG1fQEScqEBEzJzBl9BB
QXtvQkFedZHBnO0PQdlfTkG42pDB00YJQeYECEGg3ZzBDu6GQLLE+kCvl57B0Oq0QHBtyEC7Zm3B
v3LDQH/S4kCkX4HBASmTQBea6EAWMHnBUUQwQUwCckF2PI/Bx6pCQQVcmkEzbr3BFCEwQVANmkGx
ArfBwxdPQRoMkUFB2r7BIbxdQeQJC0Hm2JHBZ5dmQSxkBEFppZvB6fApQVxrkEGtD7LBhOxIQTpm
h0Gv57nB0WNTQYD5HkGUF5HBPwxaQR9PJUG+AaTBug1lQaGsEUERyaTBZzA2Qd4Nh0H1mrPBxB9R
QTsvLEFnMJrBhRRvQcNeC0GdHK/B6qYUQeQ7NkFtpJvBvX+xQI1z1EDK/JXB/RnYQAzVFkGXQZ3B
5bJBQXa3T0E4cqDBpxMKQcJGD0G/e3vB8SItQdHj+UCR1IHBFGXRQPqyGUEzfbXBxzudQM7V9UBR
IrXBgHcvQUKQeUEsQq7BWoo5Qfvtd0Hv5qLB08UfQTigGUFNb47BBJ0bQS2JXUHHEZ7Bnt+cQCek
rkDGmoTBFdUMQfePJEFLJJTBK1aNQBufv0CBgo/BtCLFQDkIBUEfJaTB6PIYQZkyB0FGxobB5hCw
QFyrDUEDjK7BL8gzQZnkYkH4wpzB6GR3QEbym0B345XBailGQaelP0GW5JjB+g4VQeIAS0FHspfB
nkkBQXmyFEEkZprBpASmQIYA80ArjZ3BFrurQHle0kBCg3vBVsttQT2eF0GYH7fBBBt5QdvX80AE
x6/Bb0AaQeIHMkF51qTBLdvWQDH+yECS2pTBUzXCQAUAJkHbOprBgYBHQXmyTkFQy6nB1Bk4QSaR
ZkEyp5HBd1xHQbu8oUEIRMHBGq8mQSozoUHx47XB41ZdQeZPkUEpvMPBxOBeQZrUAEFG5orB7JVu
Qfs46kBVMpzBIdMbQYIxkEFNFa3BEIJSQZVIgEEg7rrBtR5NQWs6JEFDe4nBRmdYQXpDL0FoBavB
1WX3QAyUFkFsRIHB6l4FQUK9AUGIRHHBpZYSQThBG0H7y3HBdLQ3QVdo7kBLQYjB8qY1QdfrCEGa
+XnBN28oQcPP3kAncnnBp/feQMgPJ0EP4LDBiyXrQOGfDkFHzLfBT7nBQBnyH0E0ubzB84aFQNeM
5ECPRbDBLbCNQAM9AUGJXrzBaRy3QJXV30CccbfB6OwdQQ83eUHyj63B/Nk0QWPsa0HeH7PBOQtL
QSa+eEFouqPB8OczQcbNgkFlIp7BM4sqQUL7EkHfjJTB41soQajGJUHAu4nBdioSQeB9a0FjiJvB
SmYYQRAhWkFajabBpliCQML8nUDLloDBfXW3QNolmEAC44XBUi8CQcebK0G8FY7Ba19oQJKb10Az
HY7BahHfQPwb9ECJcabBrWIQQfz69UD3covBrSCWQOnBGEHCY6zBbAxIQJXajUCg0ZHBZaxgQK0+
p0BD0JzBtLpAQaF9QkHygJHBa6QQQcNtTUF4GpDBhSEJQeyRB0GwwJzBzvGGQPOM+UCKiZ7BLbC1
QFvUxkC5cW3BkOjDQHOM4UDqXoHBzJ+TQHTb5kD7G3nBob8vQd5FckHgMI/BgsBBQYzWoUHat7DB
C+hLQWoXn0EgBqfBTB8xQUFim0HRxrTBSstdQe4nC0GD2ZHBvZ9mQfFvBEHVo5vBtldFQZXulUHN
VqHB/4gqQcU4kkH1Ga/BpIRTQasgH0EpH5HBsThaQW1kJUGrCqTBbCRlQeSwEUFly6TBrnU0Qd+Q
j0ELTaXBlUtRQStOLEEYPJrBDilvQZlHC0GcGq/BSeQUQSckNkGj5JvB8qaxQLjC1ECb3JXBplrY
QPPZFkGIQ53Bv9BBQXrWT0Haf6DBWDEKQQm/D0HhiXvBFzctQZGK+kAaxYHBf5bRQG+CGUHwfbXB
DlWdQHSK9UCDDrXBM2EtQZbDhUH8Np/Bnug5QZmXd0GrGKPB0fAfQXXGGUEugY7BHtcbQaqCXUEK
Yp7BVQqdQC9Tr0A+bYTBwgsNQX+mJEEASJTByn6NQPAUwEBfWo/By0nFQP8BBUGyGaTBew8ZQW59
B0HSw4bB7TuwQLSRDUGFhK7BiOszQfnyYkEew5zB4qt3QHJHnEDprpXBqWxGQX7PP0H08ZjBvi4V
QWHxSkHbD5jBJ24BQdq2FEF5cZrBjSqmQGEj80BBeJ3Bae6rQAcv00DOQHvBuN9tQb1zF0F7JLfB
3yp5QVCg80DNuq/Bk4caQRjLMUHGD6XBeAHXQF5OyUCYt5TBpInCQH4RJkFYQ5rBFQNHQdipTkE8
8anBRv03QRN9ZkH0nZHBRLhGQSflqEE7CrXB6bdYQSUDpEFP9aPB4HApQbV2nUE6O7zBeedeQXT6
AEGu44rBmY5uQRM/6kDBLJzBtjhNQWPIk0G19JnBoucdQQg7jUGsPbLBxUNNQXpwJEGOhInBc6dY
QX9YL0GPD6vBgKz3QHAGF0E9VIHBtHIFQSBNAkE6OHHBlbkSQQLIG0HS8HHBV8g3QfXN7kCQKojB
yL81QQVOCUE/8XnB5ngoQUWm30CnOHnBPzXfQLrnJkE56bDBik3rQPFkDkEQx7fBMuzBQBqzH0E+
vbzBGpyFQLZi5ECsK7DBgMqNQJMIAUEUTrzB2Su3QNV030DmV7fBaGMwQRH6hkEroZbBMyscQbV6
hEE7iKDBxlg2QQD7dEFgnavBGSFLQXGhekFfGaLB+LgqQXcAE0FvlJTBDogoQVP+JUGE2YnBajAS
QaNpa0Gf95vB6AwZQdoQWkE45qbBYYKCQLTFnkD9YoDBGpy3QNLJmECUroXB1W0CQSngK0GLQ47B
mrVoQO0a2ECa/I3BFyvfQCb380DzYKbB13kQQdxy9kA4ZIvBoFWWQH2yGEEHYqzBR1RIQIBHjkDN
l5HB6O9gQIRvp0A1n5zB0CpBQSq+QkFuiJHBHY4QQXZuTUFugZDBBToJQRGIB0ELwpzBRRiHQPqu
+UAOdp7BbeS1QKfIx0AoKG3B8hzEQLhF4kBSQ4HBBdeTQFe250Du5XjBXJgvQRUtckEoK4/B

>  <OMEGA_E>  (20) 
PDYQP1yyBT+Ulog/Aht8P2zGkD/ClpI/

>  <OMEGA_NBR>  (20) 
    129071

$$$$
50209337
     RDKit          3D

 92 94  0  0  1  0  0  0  0  0999 V2000
    5.9264   15.3093  -18.9428 C   0  0  0  0  0  0  0  0  0  0  0  0
    6.6330   16.0816  -19.8871 C   0  0  0  0  0  0  0  0  0  0  0  0
    6.6165   14.3903  -18.1252 C   0  0  0  0  0  0  0  0  0  0  0  0
    8.0303   15.9410  -20.0090 C   0  0  0  0  0  0  0  0  0  0  0  0
    8.0153   14.2511  -18.2434 C   0  0  0  0  0  0  0  0  0  0  0  0
   14.9722   17.7187  -20.6620 C   0  0  0  0  0  0  0  0  0  0  0  0
   13.3607   17.9277  -22.4805 C   0  0  0  0  0  0  0  0  0  0  0  0
   15.0053   19.6869  -22.1041 C   0  0  0  0  0  0  0  0  0  0  0  0
    8.7299   15.0388  -19.1757 C   0  0  0  0  0  0  0  0  0  0  0  0
   13.8840   17.1865  -21.3897 C   0  0  0  0  0  0  0  0  0  0  0  0
   15.5311   18.9631  -21.0166 C   0  0  0  0  0  0  0  0  0  0  0  0
   13.9203   19.1664  -22.8336 C   0  0  0  0  0  0  0  0  0  0  0  0
    6.6443    8.7066  -14.8718 C   0  0  0  0  0  0  0  0  0  0  0  0
    6.1873    7.4125  -15.4059 C   0  0  0  0  0  0  0  0  0  0  0  0
    7.1711    9.0447  -19.6055 C   0  0  0  0  0  0  0  0  0  0  0  0
    9.5097   11.5123  -20.3528 C   0  0  0  0  0  0  0  0  0  0  0  0
    5.1474    6.6070  -18.8253 C   0  0  0  0  0  0  0  0  0  0  0  0
   12.3688   15.1641  -21.5379 C   0  0  0  0  0  0  0  0  0  0  0  0
   10.4044    8.1232  -17.5075 C   0  0  0  0  0  0  0  0  0  0  0  0
   12.0869    7.3143  -19.2091 C   0  0  0  0  0  0  0  0  0  0  0  0
    4.7062    8.2511  -22.5343 C   0  0  0  0  0  0  0  0  0  0  0  0
    4.9201   10.3773  -21.1699 C   0  0  0  0  0  0  0  0  0  0  0  0
   10.2364   14.8850  -19.3307 C   0  0  0  0  0  0  0  0  0  0  0  0
   10.7608    9.4045  -19.7154 C   0  0  0  0  0  0  0  0  0  0  0  0
    4.3120    6.0847  -16.4790 C   0  0  0  0  0  0  0  0  0  0  0  0
    6.1704    8.2374  -20.4401 C   0  0  2  0  0  0  0  0  0  0  0  0
    9.4186   10.1706  -19.6167 C   0  0  2  0  0  0  0  0  0  0  0  0
    3.9329    6.2519  -17.9628 C   0  0  2  0  0  0  0  0  0  0  0  0
   12.0450   13.8387  -20.8482 C   0  0  1  0  0  0  0  0  0  0  0  0
   10.7222    8.0090  -19.0200 C   0  0  0  0  0  0  0  0  0  0  0  0
    5.6467    9.0907  -21.6385 C   0  0  0  0  0  0  0  0  0  0  0  0
   10.5667   13.7989  -20.3881 C   0  0  1  0  0  0  0  0  0  0  0  0
    5.8775    9.8760  -14.9052 N   0  0  0  0  0  0  0  0  0  0  0  0
    7.8001    8.9257  -14.3021 N   0  0  0  0  0  0  0  0  0  0  0  0
    6.7320   10.7725  -14.2885 N   0  0  0  0  0  0  0  0  0  0  0  0
    7.8364   10.2271  -13.9423 N   0  0  0  0  0  0  0  0  0  0  0  0
   13.3831   15.9429  -20.9732 N   0  0  0  0  0  0  0  0  0  0  0  0
    4.9064    7.3253  -15.9506 N   0  0  0  0  0  0  0  0  0  0  0  0
    8.3681    9.3554  -20.2178 N   0  0  0  0  0  0  0  0  0  0  0  0
    5.0666    7.7538  -19.6026 N   0  0  0  0  0  0  0  0  0  0  0  0
   10.3146   12.4857  -19.7895 N   0  0  0  0  0  0  0  0  0  0  0  0
    3.3292    5.0019  -18.4683 N   0  0  0  0  0  0  0  0  0  0  0  0
    6.9243    6.4332  -15.3450 O   0  0  0  0  0  0  0  0  0  0  0  0
    6.9290    9.3756  -18.4467 O   0  0  0  0  0  0  0  0  0  0  0  0
    8.8645   11.7266  -21.3769 O   0  0  0  0  0  0  0  0  0  0  0  0
    6.1564    5.9058  -18.8111 O   0  0  0  0  0  0  0  0  0  0  0  0
   11.7193   15.4943  -22.5248 O   0  0  0  0  0  0  0  0  0  0  0  0
   12.3097   12.7768  -21.7694 O   0  0  0  0  0  0  0  0  0  0  0  0
   16.8759   19.6096  -20.1081 Cl  0  0  0  0  0  0  0  0  0  0  0  0
   13.2555   20.0535  -24.1824 Cl  0  0  0  0  0  0  0  0  0  0  0  0
    4.8567   15.4213  -18.8455 H   0  0  0  0  0  0  0  0  0  0  0  0
    6.1038   16.7811  -20.5173 H   0  0  0  0  0  0  0  0  0  0  0  0
    6.0736   13.7926  -17.4080 H   0  0  0  0  0  0  0  0  0  0  0  0
    8.5681   16.5247  -20.7415 H   0  0  0  0  0  0  0  0  0  0  0  0
    8.5413   13.5422  -17.6211 H   0  0  0  0  0  0  0  0  0  0  0  0
   15.3789   17.1674  -19.8271 H   0  0  0  0  0  0  0  0  0  0  0  0
   12.5261   17.5365  -23.0434 H   0  0  0  0  0  0  0  0  0  0  0  0
   15.4339   20.6397  -22.3778 H   0  0  0  0  0  0  0  0  0  0  0  0
    9.4315    8.6185  -17.3731 H   0  0  0  0  0  0  0  0  0  0  0  0
   10.3681    7.1174  -17.0637 H   0  0  0  0  0  0  0  0  0  0  0  0
   11.1884    8.7146  -17.0119 H   0  0  0  0  0  0  0  0  0  0  0  0
   12.3121    7.2334  -20.2828 H   0  0  0  0  0  0  0  0  0  0  0  0
   12.8711    7.9056  -18.7137 H   0  0  0  0  0  0  0  0  0  0  0  0
   12.0508    6.3084  -18.7654 H   0  0  0  0  0  0  0  0  0  0  0  0
    5.2284    7.3403  -22.8628 H   0  0  0  0  0  0  0  0  0  0  0  0
    3.8080    7.9729  -21.9634 H   0  0  0  0  0  0  0  0  0  0  0  0
    4.4130    8.8429  -23.4139 H   0  0  0  0  0  0  0  0  0  0  0  0
    5.5947   10.9690  -20.5337 H   0  0  0  0  0  0  0  0  0  0  0  0
    4.6272   10.9730  -22.0471 H   0  0  0  0  0  0  0  0  0  0  0  0
    4.0223   10.1031  -20.5966 H   0  0  0  0  0  0  0  0  0  0  0  0
   10.6671   15.8451  -19.6515 H   0  0  0  0  0  0  0  0  0  0  0  0
   10.6717   14.5928  -18.3637 H   0  0  0  0  0  0  0  0  0  0  0  0
   11.0035    9.2591  -20.7784 H   0  0  0  0  0  0  0  0  0  0  0  0
   11.5456   10.0109  -19.2396 H   0  0  0  0  0  0  0  0  0  0  0  0
    3.4083    5.8422  -15.9005 H   0  0  0  0  0  0  0  0  0  0  0  0
    5.0400    5.2657  -16.3823 H   0  0  0  0  0  0  0  0  0  0  0  0
    6.7019    7.3699  -20.8583 H   0  0  0  0  0  0  0  0  0  0  0  0
    9.1921   10.3568  -18.5565 H   0  0  0  0  0  0  0  0  0  0  0  0
    3.1980    7.0664  -18.0431 H   0  0  0  0  0  0  0  0  0  0  0  0
   12.6879   13.7368  -19.9615 H   0  0  0  0  0  0  0  0  0  0  0  0
    9.9432    7.3985  -19.5000 H   0  0  0  0  0  0  0  0  0  0  0  0
    6.5148    9.3916  -22.2435 H   0  0  0  0  0  0  0  0  0  0  0  0
    9.9168   13.9451  -21.2635 H   0  0  0  0  0  0  0  0  0  0  0  0
   13.8134   15.5594  -20.1561 H   0  0  0  0  0  0  0  0  0  0  0  0
    4.3553    8.1591  -15.9847 H   0  0  0  0  0  0  0  0  0  0  0  0
    8.5266    8.9969  -21.1378 H   0  0  0  0  0  0  0  0  0  0  0  0
    4.2141    8.2765  -19.5914 H   0  0  0  0  0  0  0  0  0  0  0  0
   10.7539   12.2795  -18.9152 H   0  0  0  0  0  0  0  0  0  0  0  0
    2.5351    4.7646  -17.9087 H   0  0  0  0  0  0  0  0  0  0  0  0
    3.0416    5.1308  -19.4173 H   0  0  0  0  0  0  0  0  0  0  0  0
    4.0024    4.2640  -18.4213 H   0  0  0  0  0  0  0  0  0  0  0  0
   12.2600   13.1083  -22.6583 H   0  0  0  0  0  0  0  0  0  0  0  0
  1  2  2  0
  1  3  1  0
  2  4  1  0
  3  5  2  0
  4  9  2  0
  5  9  1  0
  6 10  2  0
  6 11  1  0
  7 10  1  0
  7 12  2  0
  8 11  2  0
  8 12  1  0
  9 23  1  0
 10 37  1  0
 11 49  1  0
 12 50  1  0
 13 14  1  0
 13 33  1  0
 13 34  2  0
 14 38  1  0
 14 43  2  0
 15 26  1  0
 15 39  1  0
 15 44  2  0
 16 27  1  0
 16 41  1  0
 16 45  2  0
 17 28  1  0
 17 40  1  0
 17 46  2  0
 18 29  1  0
 18 37  1  0
 18 47  2  0
 19 30  1  0
 20 30  1  0
 21 31  1  0
 22 31  1  0
 23 32  1  0
 24 27  1  0
 24 30  1  0
 25 28  1  0
 25 38  1  0
 26 31  1  0
 26 40  1  0
 27 39  1  0
 28 42  1  0
 29 32  1  0
 29 48  1  0
 32 41  1  0
 33 35  1  0
 34 36  1  0
 35 36  2  0
  1 51  1  0
  2 52  1  0
  3 53  1  0
  4 54  1  0
  5 55  1  0
  6 56  1  0
  7 57  1  0
  8 58  1  0
 19 59  1  0
 19 60  1  0
 19 61  1  0
 20 62  1  0
 20 63  1  0
 20 64  1  0
 21 65  1  0
 21 66  1  0
 21 67  1  0
 22 68  1  0
 22 69  1  0
 22 70  1  0
 23 71  1  0
 23 72  1  0
 24 73  1  0
 24 74  1  0
 25 75  1  0
 25 76  1  0
 26 77  1  6
 27 78  1  1
 28 79  1  1
 29 80  1  1
 30 81  1  0
 31 82  1  0
 32 83  1  6
 37 84  1  0
 38 85  1  0
 39 86  1  0
 40 87  1  0
 41 88  1  0
 42 89  1  0
 42 90  1  0
 42 91  1  0
 48 92  1  0
M  CHG  2  33  -1  42   1
M  END
>  <OMEGA_C>  (21) 
PaW9QL3ydEHeipfB5kHUQCqngEHdGJ/BobrTQJg+ZkFiAJHBFHwAQYcOf0FgEqDBzz4AQaEEZEFm
8pHB9o1vQfu/jUGyS6XBfsVVQe1rj0Ee2LPByBVwQc1+nUFF1bDBpq0LQfSecEHZZ5nBqyReQe99
iUEeHqvBXX94QXi0l0EEIqjBrrleQbZUmUEjq7bB1Z3UQEFOC0Hk8m3BfP7FQNcy7UC/fnbBZnnl
QPG2EEEK2JzBzCcYQU8yOEGW0qLBirekQKNs00A4mpbBieZFQS2gckGYTazBlHgmQaH4AUFjD4zB
FmRBQXMO6kBOrJnBgpmWQFgEBEFERrTBEXGdQIYJJkEAXKnBdsgjQRQpbkFBpZrBUCwsQal4FkEO
uZ3BufuJQLa1wkD81IPBtHPFQIbMA0FmhaPBcbIWQZy6IkEW75zBsrR7QDcPyEDWs4/BN7hAQR9r
XUEayabBEY4rQfwkAEH3KJjBzLG0QIFzEUG3G63BDhEpQRrIXEHSGqPBzBS8QDIEHkGZe27BCpr5
QIPPDkGZ1WTBW2zXQEZcLEGbnWTBD8T6QEGiI0F2E1/BTiFWQQEWf0E2yafB1QCdQAxp6kB2NX/B
juMFQbCvFUEWvqHBpSGiQEUf+EAY0pzBrwglQZPFR0HlUJ7B+xFVQKEPoEALv5PB2JPdQLjczUAa
hXXBprrdQHkCFkHWkpPB/dQNQfqfO0HWA6vBCAHFQGn8vEAVfZbBTII7Qc/od0HgMrTBl/REQaNt
TEG+J67B3wGHQW/gnEFg3aDBshZUQXhtoEGfdcHBzWmbQJm9dkGIw5bB81HDQJs/hkFWI6TBrVrC
QHSuXEGVQ4vB4BYJQZAyhEGE7qXBCqkIQeesWEH694zBBhB2QeJWiUHknZ7B6GpIQcNKjEHOWLjB
dfF2QQ8epUHUBbPBdecWQWzlCUEN/IrB1uMlQZTB40BggojBuQMzQQNvC0FfGIjBhf5EQQJ450Ap
Q6LB2O9NQaH6/ECZtZXB9M9AQS7eyUCZH5bB6U6nQMrj6kD55rbBCrdzQDwi/0Afta/B8jaNQF98
DUHBT7vBqgezQBuBL0EJRaTBuBGUQGWRL0FnYLDBS7aAQCSmIUHFxaTBQ6wqQWOFfUE4Np3BVr8q
QQ18aUHL6JLBbQ4wQWslFEEWOqbB8bo4QZUsIEHL6pnBSyJaQG3zukB2aH7BeUehQO2AqEDuDoPB
GnbWQGLW60Db3abB5RITQWS1JUHIc5TBi6xMQBog4kBWWJDBrgFLQb/JW0EgsZ/BPBcfQcDA7EAR
AJzB4njQQPJDFkGh8rHBEqseQQAfX0GOG6rBswNdQTXzeEGcP6HBWF6LQJGLAkFGwX/BJW0IQTTz
D0EnGqnBPNqGQHVsBEE5u5zB/w8sQaJ4REE+UpfBVD8iQPJ3mEAVRY/BrqlCQGkvpECrVpvB8ROA
QE5yiEDMXpPB5ShEQZi7UUEtRLXBsgSqQElmZkGXEarB3hzHQLtsdEFmE6/BDCG2QKdXW0GGt6DB
KU7wQK5hd0ELvarBJVbfQD9AXkHQXpzBA4GEQf54XUG0baLBFzN2QaPbQEHpyKvBaZmOQXVBQUEF
YKvBLW38QFJ6bEEoUaHBSYl1QXD5U0GNq6XBsmCOQWkrVEEnQqXB+/KEQdilN0Hen67BNHzSQJHb
CUGzpm3BKYjFQEIk6kCjqXbBaVrjQMg2EUHlp5zB8tYVQQtjOkGCMaLB65qlQPxU0UCw1JbBxEhN
QcGyWEEymKTBcswlQbnUA0HY6YvBOzpBQUjq8EB5oJnBJNCVQDubA0EOSbTBQKiZQMFEJUHiEanB
cIYUQeCtb0E8yJzBPtQqQXVAGUE7V53BpUaLQBIYvkAhLYTBgHvEQF7WA0FfeaPB5eoUQd+xJEFs
fpzB+Th+QH3vw0CqB5DB+AY8QeBwZ0Hts5/BYv0qQdOxAkGaBZjBXa2yQCNkEUFT+qzBX7skQcHu
X0G+3aHB5364QKsTHEHNz23BYCL3QK3jDUF6amTBS6XSQL26KkEGmWPBuqL2QNiWIkHiNF7BlpJi
Qds8XkHegaLBw7acQMsi5kChdX/B+5cEQdxHF0E2faHBs7WhQE1h9kAG35zB95chQe90SkFhU53B
EMxaQGmPm0ATS5TBJVHeQOi2y0DU/HXBNSbbQKvsFUHGVJPBhS8MQSiBPUFsnqrBmLfGQPEgvEA5
zJbBkCdIQS5xSUElN6rBodA/QcbPaEGvb5TBTVmaQZcUYEHvL6HB/RmFQZAxIEHhNbbBY3OKQNof
ZEF5Za3BddS9QKTnfEG4PLbBBsufQNSfUEFd4JzBwVUDQbcBgUHNoK7BZLHoQCidVUEUQ5XBVmCE
QbT8a0HlvZ3BaHVnQYtWOUHBRa7B9SiWQcUiOkGTka3BEvIVQS0hC0HExorBzcwlQeQq50Cyh4jB
MPgxQXWVDUHy1YfBZuZEQV1Q70BMOaLBZ2dNQUg1AkFJjZXBBDxBQYtq0EAJP5bBscOnQN8B60DC
CbfBoeJyQAvC/ECIx6/Bia6LQFYhDUEcPbvBG1iuQKsCL0F64KPBEYiPQDzXLkHQAbDBsJV6QOwW
IEE8jKTBHbsZQcEVgEE7a57BgBQUQa4CbUE2FpTB9eIuQdhuF0Hz2qXBCPs2QTM+I0EcZZnB7jld
QJXetECdPH/BqIqjQPi7pECbgoPB7avWQALW7ECa5qbBZBkRQZRAJ0HI/5PBXz5NQPgg3UAAkZDB
x+g9QeNmd0EvSqPBbOceQd9K8UBX+5vBnxHOQO/3FkHkv7HBNRIiQaOBX0H7j6rBcJRkQUx1a0FK
HZ7B8Q+KQNgQAEFgwH/By08HQcEfEkF28KjBTtSFQH8JA0HPt5zBVGMoQWo+R0FkQ5bBhngoQBak
kkDy4Y/BCExIQI3wn0CC35vBi9ODQDTDhEA8A5TBIlw1QSfTcUEoQZHBquUVQeqQdEGclHDBt2kJ
QRatY0GI1XjBkroeQYP4gUEJhH7BGNcFQRwUYkELhofBGvYaQTxCgUGeV4rBIYhCQZ9kaEHypMTB
sB9dQRLUU0HLvbrB+5pfQSONVkEKJs7BIowOQXCNcUErh47B82xKQY2zYEEExbrBcRJNQfhbY0FG
S87B65NnQeTPTkH9W8TBZYDUQEyfCkHYA27BBiHGQBoB7ED24HbBnJDkQAyDEUHe55zBkO4WQca2
OUEndaLB7oOkQDLk00Dg3ZbBhuJCQVazYEH52abBc0cmQYCbAkHnY4zB3TJBQXMX7UDcM5rBKxmV
QJIkBUFGRLTBgZKbQBHUJkHQFanBuW8LQSmFb0G4jprBlrErQcAMGEGf0J3B90yKQH2dwUCUIoTB
tIvEQJKhBEE5nqPBLQ8WQarpI0HN4pzBecJ7QL+2x0AJ94/BBuYzQXM1akFrWp7BUk0rQWdvAUES
hZjBeCezQFWAEkEEDq3BScYcQZCGYUGODaDBWaK7QBc7HUExI27BD4z5QEAiDkHY9mTBWd3WQNWG
K0FZH2TBJ2/6QLbcIkGq2l7BbjU/QSyeZkG6frHBEhCdQNoq6UCagH/Bv0cFQeEMF0Hn2aHBuYmh
QAoI+UD66JzB4HMbQYtfS0G+JZzB0ZtVQEvXn0CFKJTBkv3dQLfXzEDVPnbB4g/dQKdNFkGvjZPB
8vcTQWpHO0HtJKzBD/XEQFKtvUDZ55bBOIdRQbHkVEEJDaTBEcE7QcMLZUEP35PB/jlDQaEMbUGu
cdrBT5Z+QbH8PkHrCMTBNrEYQSS4dUEukV/Bs5UCQfr0V0GYIG7BHmEoQUlniEEMMnjB3OP4QEAG
VUHDrorBr5IhQY81h0HKqY/Br080QZE0ckFxzMTBB11jQWjXTUHTQrPBGa9nQS+tUkFUidXB1aoW
QQ9fCkHfMIvBQdMlQQSr5EDVC4nB3MgyQUPyC0HKUojBLMNEQbpt60Btz6LBW7RNQeXE/0DKIpbB
wb5AQWOLzEDV25bBSAemQMqB7UCDDbfB4TxxQP9hAEHQrK/ByEGLQPzKDkHZM7vBzB+xQFw/MEG2
9qPB/72RQFGJMEF1ALDBUDV+QFUgIkFseaTBj1v3QJlHaEFxD5zBefALQRWgf0H/GJ7BIKQvQW0z
FkE8V6bBeRo4QZ66IUEo4JnBbRhbQBZFuUC5A3/BldahQO+Pp0BdgoPBCrTVQLfh7UDZG6fB+WkS
QYldJkFTXZTBTEZMQP6f4UAtdpDBAYozQeWue0EbY5/BdeIeQSmI70CKdZzB1qbOQIWhF0HI6bHB
WYoZQVKdYUH3s6jBzdEyQVt4cEFNqbLBNS+LQO3ZAUGJwH/BCrAHQZfmEUFKVKnBNSqGQHDKBEGH
r5zBKwIeQdDcSEG/WZTBGRsjQKq5l0DCro/Bzs5CQAJrpEAeuJvBhIyAQF9iiED26ZPBJxZIQeQ+
XEE7fJTB

>  <OMEGA_E>  (21) 
oRSIPwUVlD9uVpU/

>  <OMEGA_NBR>  (21) 
    133603

$$$$
50164958
     RDKit          3D

 48 49  0  0  1  0  0  0  0  0999 V2000
    7.6475    3.8946  -19.8568 C   0  0  0  0  0  0  0  0  0  0  0  0
    8.2026    4.1504  -21.1262 C   0  0  0  0  0  0  0  0  0  0  0  0
    5.9764    4.0821  -22.1255 C   0  0  0  0  0  0  0  0  0  0  0  0
    5.4245    3.8747  -20.8495 C   0  0  0  0  0  0  0  0  0  0  0  0
    6.2525    3.6947  -19.7337 C   0  0  0  0  0  0  0  0  0  0  0  0
    7.3742    4.1778  -22.2670 C   0  0  0  0  0  0  0  0  0  0  0  0
    4.0894    3.5034  -19.1472 C   0  0  0  0  0  0  0  0  0  0  0  0
    7.5054    1.1075  -17.9731 C   0  0  0  0  0  0  0  0  0  0  0  0
    7.3255    6.0312  -16.0075 C   0  0  0  0  0  0  0  0  0  0  0  0
    4.9562    5.2261  -15.6249 C   0  0  0  0  0  0  0  0  0  0  0  0
    7.8984   -0.8416  -21.0623 C   0  0  0  0  0  0  0  0  0  0  0  0
    9.6625    0.8357  -20.3456 C   0  0  0  0  0  0  0  0  0  0  0  0
    6.1831    1.3292  -17.2784 C   0  0  0  0  0  0  0  0  0  0  0  0
    6.7201    3.6976  -16.5896 C   0  0  0  0  0  0  0  0  0  0  0  0
    6.1999    5.1389  -16.5361 C   0  0  0  0  0  0  0  0  0  0  0  0
    5.7277    2.7904  -17.3234 C   0  0  1  0  0  0  0  0  0  0  0  0
    8.5281   -0.0950  -19.8802 C   0  0  0  0  0  0  0  0  0  0  0  0
    4.1083    3.8093  -20.4233 N   0  0  0  0  0  0  0  0  0  0  0  0
    5.3943    3.3055  -18.7041 N   0  0  0  0  0  0  0  0  0  0  0  0
    2.9401    3.4005  -18.3772 N   0  0  0  0  0  0  0  0  0  0  0  0
    7.4510    0.6529  -19.2675 N   0  0  0  0  0  0  0  0  0  0  0  0
    8.5671    1.2937  -17.3859 O   0  0  0  0  0  0  0  0  0  0  0  0
    8.0826    4.2854  -23.8569 Cl  0  0  0  0  0  0  0  0  0  0  0  0
    8.2823    3.8514  -18.9842 H   0  0  0  0  0  0  0  0  0  0  0  0
    9.2637    4.3257  -21.2257 H   0  0  0  0  0  0  0  0  0  0  0  0
    5.3342    4.1673  -22.9896 H   0  0  0  0  0  0  0  0  0  0  0  0
    8.1989    5.9526  -16.6715 H   0  0  0  0  0  0  0  0  0  0  0  0
    6.9814    7.0755  -15.9764 H   0  0  0  0  0  0  0  0  0  0  0  0
    7.6051    5.7069  -14.9942 H   0  0  0  0  0  0  0  0  0  0  0  0
    4.1623    4.5778  -16.0241 H   0  0  0  0  0  0  0  0  0  0  0  0
    5.2221    4.8971  -14.6094 H   0  0  0  0  0  0  0  0  0  0  0  0
    4.5984    6.2658  -15.5916 H   0  0  0  0  0  0  0  0  0  0  0  0
    7.0936   -1.4962  -20.6965 H   0  0  0  0  0  0  0  0  0  0  0  0
    7.4837   -0.1145  -21.7760 H   0  0  0  0  0  0  0  0  0  0  0  0
    8.6664   -1.4496  -21.5629 H   0  0  0  0  0  0  0  0  0  0  0  0
   10.0917    1.3547  -19.4759 H   0  0  0  0  0  0  0  0  0  0  0  0
   10.4447    0.2411  -20.8403 H   0  0  0  0  0  0  0  0  0  0  0  0
    9.2620    1.5762  -21.0535 H   0  0  0  0  0  0  0  0  0  0  0  0
    5.4196    0.7077  -17.7691 H   0  0  0  0  0  0  0  0  0  0  0  0
    6.2833    1.0244  -16.2263 H   0  0  0  0  0  0  0  0  0  0  0  0
    7.6840    3.6811  -17.1193 H   0  0  0  0  0  0  0  0  0  0  0  0
    6.8589    3.3255  -15.5638 H   0  0  0  0  0  0  0  0  0  0  0  0
    5.9258    5.4631  -17.5509 H   0  0  0  0  0  0  0  0  0  0  0  0
    4.7929    2.8343  -16.7454 H   0  0  0  0  0  0  0  0  0  0  0  0
    8.9357   -0.8279  -19.1683 H   0  0  0  0  0  0  0  0  0  0  0  0
    2.1398    3.5945  -18.9445 H   0  0  0  0  0  0  0  0  0  0  0  0
    2.8692    2.4745  -18.0065 H   0  0  0  0  0  0  0  0  0  0  0  0
    6.6332    0.8466  -19.8094 H   0  0  0  0  0  0  0  0  0  0  0  0
  1  2  2  0
  1  5  1  0
  2  6  1  0
  3  4  1  0
  3  6  2  0
  4  5  2  0
  4 18  1  0
  5 19  1  0
  6 23  1  0
  7 18  2  0
  7 19  1  0
  7 20  1  0
  8 13  1  0
  8 21  1  0
  8 22  2  0
  9 15  1  0
 10 15  1  0
 11 17  1  0
 12 17  1  0
 13 16  1  0
 14 15  1  0
 14 16  1  0
 16 19  1  0
 17 21  1  0
  1 24  1  0
  2 25  1  0
  3 26  1  0
  9 27  1  0
  9 28  1  0
  9 29  1  0
 10 30  1  0
 10 31  1  0
 10 32  1  0
 11 33  1  0
 11 34  1  0
 11 35  1  0
 12 36  1  0
 12 37  1  0
 12 38  1  0
 13 39  1  0
 13 40  1  0
 14 41  1  0
 14 42  1  0
 15 43  1  0
 16 44  1  1
 17 45  1  0
 20 46  1  0
 20 47  1  0
 21 48  1  0
M  END
>  <OMEGA_C>  (22) 
cLj0QBtBeUDI2p7BDT4DQT7QhECHAqnBXj6/QJaggkADAbHBtJWtQIz7d0Dey6bBUhTIQKl2bECS
3p3B1vnrQHywhUC+IrLBftyCQIU4YECNLZnB5CvwQAjCjT/XyI/BTGrqQDz/wEBLD4DBjpmeQEw8
p0Bu/3nBFsD8QLByV7+mf6jBvJkaQXjtVT/Iw6LBMNzFQFoiqj84OorBrgrXQAGlbECat4TBTmXG
QL1xpED1SYTBgkm3QC+WMkBrlorBOHMIQYCRwr2jCp/BynaDQMzKc0ABY6PBNJ6sQLuNU0AOopXB
4yo8QIeiWUCXBJPBmG7uQLgjJz/II5rBwRIJQUqZpT9IFovBJFIBQTQiiUDp2r7BfoQEQTt9dkCX
35fBBjgUQUpsikAxzqnBZLGqQHVahUC96rfBqy4DQeJ7vkBJX4XBumffQH5q4kAkn3/BsVzzQLKe
tkBT6G/BkDGFQJ19kkBaMYDBVhunQEe1nEA6wGnBXyaTQBOByEAKd3nBE//iQHuCv799kqXBdXrv
QA+V6r1SNa7BsKkKQXKMub/AgKzBu3chQUVorT+wzpvBax0nQcnpdj4IuabB9TAUQVrAyT+bbajB
iG2tQPkpNT8vJ47BmRDJQIkegz9fz4HBf+P1QAKXa0BD9IjB+XvbQDXVVEB2BXnBPKC9QBvSrkAy
aIzBFV+ZQHFkNUCk9oXBvPgOQQXxU7/DWJnB+PEIQDgMZkBpjpfBr6E3QLFeHkA/DZDBY0PUQN63
WD/AeZ7BaIb1QNeFdUDd457BoH4DQdxlhECDBanB4nm/QPbug0C727DB1imuQH0kd0DjsKbBdtXI
QJrCaUD7z53BYR3sQGduh0A4D7LBlIODQKTrXkCoFJnBe/fsQJhHej/vkY/B8d2fQJQDm0Ao8HLB
iW/AQCnGvUAE4YnBvTEcQYDopzwIoZ3BAlr8QMDDHL8kHqrB0+HCQOZeoj8WG4rBzp7YQDVEZkCc
CoTBEIHIQO42n0AVaIDBs1G3QN/dMEAOYorBd68FQRCbzj6Iu6HBsxuEQJNfckA+SaPBC0ytQI1N
UkC3fJXBvEY9QGCRWUC27pLBlWXqQIDtwj4ZepnBlV0HQdIerz/WqovB9QkBQXDMjkB0w77B1xQF
QbjIb0A6/5fBk4EUQVx2iUB626nBQ62qQCmlh0AcsrfBgy2mQBUihUCAhGXBN+WWQI+pukCrrGzB
N42FQF9CjkD6u3zBGa7dQDBlwECRu47B5kGmQHEqsUCf2I7B5pm3QKGR3UD30IbBM3YhQXHyQD/x
npfB354bQTjker/U+5nBFYYnQcTEczz5XKTB/0/cQHVnqr7i/qzB/nEJQbmHHr9+4LDBjxX7QIKd
zr9Zf6bBGXapQFWKMz/FKY7BxQ/FQOkkcj/ltYHBsc70QADjb0BkLInBourhQASrQUDeyHnBgJTh
QC6erUBGx3bBmVSZQLKANkBP1IXBSncGQWg8sz8qb6XBbVAKQES7ZkDIe5fBxsQ3QPVqHkDH9I/B
/WzPQOPs6b3UKpvB5ir0QPBtfkDdmaHBPhEBQfJZiEBICKzBISK4QJl5h0D4UrLB+EaqQMk5fUDe
06fBXAfIQObRdEA7f5/BhkPkQM5YjEBIZbTBYvyEQPkYY0CBQZnB5oPuQAD9oD/E243BAIAIQTc1
zEBhPYjBO9TBQL9tzECk+YPBE14BQaDul7uT56nBzKEcQbOKpz+hYp/BKfTFQA567D+Vu4jBXWDo
QMgahkCXyofB93/lQHKktkDHiIrBHNe/QGdTV0CGA4vB/iwJQc7ptT6Pj57B0qKBQLtDcUAImKPB
WhuwQPvJZUBsTpbB7W1FQLrwU0A9b5LBizPuQKrYdD8YupjB91oHQUDJjD/gYIjB4kH2QEtWl0C4
T8HBw5EFQQq9d0BCM5vBIe4RQU9RjEBIo63BZymhQAiEikD8u7jBvxQVQadovEBv9YzBAKkHQXs8
7kCnc4rBB0EMQTNayUALWH/BQAejQBrOvEDurIXBRxrJQOySyUAYynbBOOq/QDN17kCuLIbBcxfn
QNKZLr9qWKnBPkb5QMy0aT+eJK7BXVoOQeNZAL/SUa7BTz0iQfqkyD/0TZfB0JgpQVaqTz/rzqPB
kuEXQUFuDkC3oaPBfgOqQLI8pz/64YvBmOTHQJf02T/PBYDB2xUCQeM4cUD6AYzBlgvtQPrngkAy
Nn7BGyHeQIIJukDmGJPBZhCmQAHXbECAqIXB2UYOQa0aEb8rf5rBkdIOQMyEVUAjmpbBRSZMQONm
GkClCI/B/ZrTQKzClD8j3JzBerL0QAbZeUDTUKHBVo0BQXNAhkDFtKvBPzK5QEr9h0APFrLBEuCq
QLbNfUDjo6fBgk3IQNJec0ByQp/BiHrlQMLdi0D+FLTB79SEQMgLY0BZM5nBdTTtQJbpmD+KGo7B
btgMQYewqECsE3bB5AfxQKpaUEBmdGnBhRQRQVSRgb/Tc5rBlQYCQRJ8OT5zlKrB5lTEQOOF4j/y
G4nBox3oQKEkhUD2HYjB0xvvQC/Ij0DGN3jB1FC/QC7UU0CU2IrBQ8EIQbyerT4byZ7BAP2BQPaD
ckBghaPBE9uvQNRgZEANIpbBY2ZEQMTAU0BvgJLBd/zrQEeLSz/6uZjBqUUHQV9elD8H7IjB5e73
QPxAl0Bc8cDBu7kFQY17cEA265rBEnwSQWkfiUADRq3BwnSiQCH1i0AohLjBF28MQT8KxUASQIDB
pAQPQQ7VskAsXWXBizkaQQPmk0D/1nrB1fXSQEUlLED4x2rBN/sFQWlSJ0CCRW7BoIz1QH4wZUCu
y1jBld0VQSY+Zb8gCZLBclYEQYk94r9VCZvBAfYeQYb1qr9BNJ/BOTr4QJV6kj8Uoq3BZOQPQZ17
EL7SWK/Bq4nqQO+uEr/mLavBRZioQPXGoT9RtozBj/fEQC34yD/udIDBGrvlQNmUo0ATf4zBZCQC
QRmXZkBF74rBjdPUQAaRpEB903LBheilQJ1TaUBjYYXBtaMVQbzyij/nQZ7BDS0OQE9eVkAZvZbB
HURKQCDAGUBuM4/B4cXPQI2wUT8if5zBwDT1QB2rbkC6BqHBUi8CQboJg0DnMKvBvd66QA1SikDw
mLHBh86rQOi7fkDxVafBSa7IQELObEBuB5/BP1bnQAqCjEDBeLPBH6mEQCgbYkDIKJnB9VLqQMLX
hz9NxI3BE2rRQFo+yUBigo/BoiQHQX57w0DTe4LBgPf1QCuLtb8VVKTBC0oTQXhYFD8EKaLBX2vC
QD8F2T+Wm4jBYmvmQMIAgEBwyYbBjdXhQNFKsUCifIXBD7S9QOFJTkCVo4rBmHcEQSoq077lRpzB
LY2CQE2+dUAdX6PBQZKvQIGjXkBnApbBfd5CQKnxU0BpnJLBg3TlQC95lj7b9pbBQuUGQUC7nz+h
0YnBP8D6QA8HmkCDG8DB3r4FQeEjXkADwZrBDDETQfPGhECPqKzBIo6kQP/9kEAL+7fBdsixQCi4
vECsxJHBxNLOQIye60D6uo3Bz/fnQAxvxEBlKJbBnT8NQXfOskCLuHbBh0cSQQCzvkA8MYnBAbUF
QYDi5UDQw4DBZeHgQOnTB8ANGKDB1m3jQBNSYL+SbKrBbQcIQROy/L9uN6jBHAIaQcGzpT/jYJzB
Y14gQXgh2DyXC6bB4A0KQY/pjz+7QKjBFO2lQE6QmD/k14vBsRvEQOTrwz+y1X/BoQQAQScndEA7
o4zBg8vvQDSZZUBj8n3Bs6nLQAmbt0BVrH3BemSjQPfgY0ATdIXBresNQcGIdr9jTZbBviYNQEIE
W0B43pbBoHdFQBeGGEAtqI/BDzXIQCWEXj7WJprBiJT2QLd2gUDBN5/BstwDQcsDhkDEiKnB4FfA
QFU5e0D5PLHBgCmvQPl6c0As3KbBtOLJQEuaeEAp3Z3BUr7sQK8ghEBNibLBBF6FQDpvY0DV05jB
5J7cQNWZvz83AY3BGv3EQK192ED9mZLBeoH+QI6n40AD5oTBoIqxQKZiLb8YTaPB/CD0QI7mNT8t
IqXBuorDQDEBGECME4XBhEDfQBJ0mUAHIobB/FHVQJxCykDLc4fBFGu6QG8vdEAhTYnBOljXQGyi
S739JZ3BVKCFQCL8ZEA6WKPBPsuuQE4MckAhC5XBGL5CQBlBVUDajZLB2lDFQGFFVT9S5ZTB7ukB
QY/4uT9epYzBVGgBQSOziEAmS7/B3rYFQeflgUDsU5jBqdYUQRj5ikDAkKrBzbGrQPU3d0D8JbjB
f5+nQN7JxkBIl5TBMhu+QAsC+0BNepLB6aXdQCHK0UBTp5jBh1kFQQMN2kAbAHrBpGsLQdXj3EAZ
B4vBkUz3QN8NA0ET2oTBJNCcQIBnnL/2rZ3B8fueQI2g7z07PqfBOOC9QE3pr7/dXqnBLJoHQYDD
lD8g06DBKiUAQd6fIjy7MqvBDGbhQJYowD8ZEqnB0L+kQCxn8T8JYoPBXDLWQMMeHUBQSHvB5i/7
QBDrkUANJYvB8irnQPaqk0DFXHvBYOu8QKnz0kBefoHBXMydQPlEhUDdAYXBxR/qQCURWr+PYJnB
qMoPQBt8TEAFRZfBuM1LQDsoIUAsDI7BSp2lQNIfeD8c8pTBcxn1QCYDgkAO2p3B8HoEQTpjhEC5
46fBr3TDQHDIdUBjnLDB8aOvQP3vcUC9hKbBjlnIQHNfd0BbP53B20fwQJIrgEClQbHB4QCDQJV6
Y0D3+ZjBodznQCk0vT/1AI/B9xDsQPTayUBMLnLBiXbOQJChg0DCYWTBUezUQLLUuL87+pXBzE7W
QJiB1r6UaqjBlePHQG+jAUAV24bBbZPXQKjDkUAxFobBXk/MQP40pUAednbBdJe3QP+NXUCoa4nB
bcjmQCD+mL7j35zBpBKFQKTwZ0CPeKPBWi6sQLNlaUDU35TBgrc7QDLDWUBx/pLByPfWQMAmcD/f
SJjBhgMHQYJksT/U0IzB9cwEQdbEgEAVqb3BNesDQez9hEBboZbBK4oVQY1viUAEcKjBboqwQKWz
cEBj0LfBGBfqQBpx4UA2NX/BtQ/kQMRq2UD36GLBy2AGQbPnvEDvW3HBAJa3QOFvU0DntGfBQQXv
QAy8bECof2PBYVPGQBfhkkCwDFXBV/XgQJJDrL/Fvo3BjMGxQK/Hsr9M75XBS0bfQN0nGsBOUpnB
lU/jQNF0zz4DQa3B9angQLapsL+l0qvBNiWzQLCGvL6kb6jBFCGsQGHLrD+Wm4bBAnTXQBvGAkCX
7X3BL1bXQJE/q0AmKIzBW8P3QHejg0C0noXBGbWrQJpnskD4J3fBt2CaQOJuZ0BTq4TBLvwEQR2a
p76Zz5zB+EQJQO6fVkC15pfBN2E/QDLlI0DIso7B5gW/QI5ytT/Q85vBjJ32QGqtckBjUp/BXtsD
QY7NgUAIfanBQKG/QKyog0BeCLHB6JGuQM/Ld0AqyKbB0rzJQCdvbkBz653BMFzsQJr2hkBMVrLB
drCEQFhEYkD545jBNg/iQFKmmD+pSo3BRHa5QHHpxkA10nnBFqrPQHG4zkD6M5DBCk/UQMNSzb93
Q6HBJYgCQT/HvT6qcKTBoJ/AQMHp9j/ueobBwsThQGj3iEB9iYXBynnbQKh7ukAXTIXBFLe6QFEk
W0A+eInBwqfvQPpgA7+v2ZvBKqSEQDZnbkCATKPB9M+uQNxJZECoIZXB+IpAQIHsVUBitJLB5JHT
QBY7kz5E7JTBcSQEQc9AuD/WOYzBNyABQVekkEAM8L7B9NYFQaboaEDwlJjBIfcUQRRchEBjharB
5KCqQMUNh0B817fBIcnBQAiQuEBRTGrBa2K4QG/z6UCCOnjBMfOZQNAXu0A1+n7B5d/nQHrnxUDi
MpbBYiOwQI3lwkDWxJLBnJLOQCvB8UD8ZI/BuibFQHK5DsBUGZvBb2m7QH2tkL9BMqbB/9roQKC5
DsAxXKbBC0EMQeu1kj+4hqDBl9gMQaEIgb7AiqnBnj/sQDcHWT/RYKnBqquhQF7ItT+SeYfBwpXK
QD6t7z+nGnzBxOn8QPUSgkA33orBLpvpQLUlfUDEuHrBuwb6QIGqyEC0vYLBY/2eQHC2cUD51oTB
UVoEQdbtfr+eBZfBc7EMQFO9V0COY5fBxOJDQPf8HEAyE4/BfPOzQPIcMj7ZwJXBa9j1QA71fEC4
4p/BphYDQfD1hEA6OarBC7K9QMg2gkCBjLHBDWutQDDpd0DRJqfBHijJQK0LdUBgVp7BwjrqQILs
hkDbC7PBn9GEQG3oYkBe/pjBNb7kQBQvqz+3o43BO5PDQLtbt0DxAW/BUcYJQbC6skDA7HPB0Bz2
QKAPr7+cmZzByALiQFKZvD4DdKrB9HLDQCk3A0CnlYbBkuLjQE8JjkCHQIfB7rzoQNFymkCCqHbB
S2a8QDVeYkAv24nBE6DzQNDeDT4nFZ/BruyDQF7Qa0DOdKPBwAuvQFWwaUD3bJXBZUZCQAsTVUBe
mJLB+jbXQCzkSz8BVZfB6UIFQcZ9qD8A9orBZCf/QMh4jkDX1r/BaqkFQa4IeUBxIpnBmx0UQWJy
iEAXaavByEOoQA9mg0AVUrjB/gulQE5BpkAY6nDBOkfIQK6Kv0BXDV7BkfrCQLfY1EAsnXjB8AwX
QTNRnkCbV3nBhmsJQVk50EA0hn3B2xEMQVDrukBf9mLBNl0BQXSywb+2d5TBXPHVQB2C57/IKJ3B
RbgFQXG/7b/mZqLBLnPgQB9ZuT9XF6zBsED3QB6B6b1XULDBgcHBQNSrhb05EqvBssqkQEkdwj+j
RIfBwXnOQNNLAUA9dnzBpv/gQGOuq0AX8YvBt3cAQXV5eUAns4nBEXPpQHxhekAk4WzBvbOhQONk
ekBd+ITBKvkJQa28ET8rj57BL9ANQIb8UkCAK5fBRstIQJSHHUCetI7BXxu4QPshXD9RI5nBWuT1
QEDrekDqzJ/BHC4DQRWAhEBqG6rBhOm9QP+KgkCBfLHBa4KtQHTYd0AZHqfB4SvJQMatc0AjTZ7B
anzqQGIZh0AY8bLBTcCEQPQBY0Ah/ZjBdNvkQAeaqj+luI3BSP0EQdcS1ECDg4fB99W5QFYP00Bm
qYTBi672QMHurr83tpzB1lLiQB9ovT5LiarBCFjDQMcBAkDCqYbBAyzjQFHqjEDLfIbBFt/fQMSB
vEBNKYrB8xm8QPw+YUD+yonBxvjzQOX9Dj6JK5/BmvSDQKQrbEDUcqPBYfWuQAZGaUDSZJXBG/9B
QMxFVUD2nJLBoHHXQKAlSj98aZfBvlIFQUZ7qT8xDIvBiIT/QPksj0CctL/B5KQFQQukdUAqDJnB
LjgUQTXth0DFQqvBWI6oQLMehECSRLjBKG8SQTjEw0CSd4vBxwMEQe1L9UBZYYrBWIUHQRH200BM
nH3B8gKcQC4KwkCWmIbBTrO+QO3x0kB05HfBK7C3QMlH9EBthYfB6KgBQUeYwb/tlJTB3pPWQM30
578qR53BUQoGQfUJ7b+FhaLBvZrgQEWTuT/vJ6zBqKL3QH7c3L25Z7DB4yHCQAuKi71eKavBRsmk
QFM7vz/kb4fBpDHOQNPd/j93mHzBmxoAQULvfUASCYrBMtXlQGdbjEBybXvBNufaQN00vUAZ35LB
Jt+gQBC5d0DM+YTBYhwKQZZKEz+nop7BTJkNQHJ6U0CGM5fBrEJIQNGcHUAkvo7BuFC4QJV/WD8X
NpnB

>  <OMEGA_E>  (22) 
BnQiP/zUHz+2dTA/MFwuP5TULT+ofys/gmsrP3jaKj9IFCY/hoUlPw==

>  <OMEGA_NBR>  (22) 
     64725

$$$$
50164876
     RDKit          3D

 48 49  0  0  1  0  0  0  0  0999 V2000
    7.6727    4.0769  -19.9100 C   0  0  0  0  0  0  0  0  0  0  0  0
    8.2102    4.1727  -21.2079 C   0  0  0  0  0  0  0  0  0  0  0  0
    5.9671    3.9478  -22.1634 C   0  0  0  0  0  0  0  0  0  0  0  0
    5.4371    3.8615  -20.8652 C   0  0  0  0  0  0  0  0  0  0  0  0
    6.2870    3.8766  -19.7554 C   0  0  0  0  0  0  0  0  0  0  0  0
    7.3622    4.0666  -22.3329 C   0  0  0  0  0  0  0  0  0  0  0  0
    4.1623    3.5274  -19.1057 C   0  0  0  0  0  0  0  0  0  0  0  0
    7.1050    1.2005  -17.7184 C   0  0  0  0  0  0  0  0  0  0  0  0
    6.2946    6.3249  -16.7940 C   0  0  0  0  0  0  0  0  0  0  0  0
    4.1471    6.2319  -15.4489 C   0  0  0  0  0  0  0  0  0  0  0  0
    6.5357   -0.8924  -20.7570 C   0  0  0  0  0  0  0  0  0  0  0  0
    8.6834    0.3364  -20.3065 C   0  0  0  0  0  0  0  0  0  0  0  0
    6.0579    1.8948  -16.8879 C   0  0  0  0  0  0  0  0  0  0  0  0
    5.1957    4.1069  -16.2029 C   0  0  0  0  0  0  0  0  0  0  0  0
    4.9572    5.5812  -16.5764 C   0  0  0  0  0  0  0  0  0  0  0  0
    6.0142    3.3759  -17.2670 C   0  0  2  0  0  0  0  0  0  0  0  0
    7.4724   -0.3676  -19.6569 C   0  0  0  0  0  0  0  0  0  0  0  0
    4.1387    3.6979  -20.4087 N   0  0  0  0  0  0  0  0  0  0  0  0
    5.4907    3.6072  -18.6624 N   0  0  0  0  0  0  0  0  0  0  0  0
    3.0213    3.3347  -18.3393 N   0  0  0  0  0  0  0  0  0  0  0  0
    6.6650    0.5361  -18.8461 N   0  0  0  0  0  0  0  0  0  0  0  0
    8.2927    1.3836  -17.4736 O   0  0  0  0  0  0  0  0  0  0  0  0
    8.0453    4.0255  -23.9360 Cl  0  0  0  0  0  0  0  0  0  0  0  0
    8.3142    4.1560  -19.0447 H   0  0  0  0  0  0  0  0  0  0  0  0
    9.2704    4.3272  -21.3435 H   0  0  0  0  0  0  0  0  0  0  0  0
    5.3132    3.9234  -23.0226 H   0  0  0  0  0  0  0  0  0  0  0  0
    6.8564    5.8403  -17.6061 H   0  0  0  0  0  0  0  0  0  0  0  0
    6.0922    7.3722  -17.0626 H   0  0  0  0  0  0  0  0  0  0  0  0
    6.8873    6.2919  -15.8679 H   0  0  0  0  0  0  0  0  0  0  0  0
    3.2019    5.6859  -15.3136 H   0  0  0  0  0  0  0  0  0  0  0  0
    4.7268    6.1984  -14.5146 H   0  0  0  0  0  0  0  0  0  0  0  0
    3.9317    7.2787  -15.7094 H   0  0  0  0  0  0  0  0  0  0  0  0
    5.6724   -1.3943  -20.2957 H   0  0  0  0  0  0  0  0  0  0  0  0
    6.1847   -0.0506  -21.3720 H   0  0  0  0  0  0  0  0  0  0  0  0
    7.0798   -1.6079  -21.3911 H   0  0  0  0  0  0  0  0  0  0  0  0
    9.3546    0.7125  -19.5204 H   0  0  0  0  0  0  0  0  0  0  0  0
    9.2267   -0.3795  -20.9408 H   0  0  0  0  0  0  0  0  0  0  0  0
    8.3317    1.1778  -20.9216 H   0  0  0  0  0  0  0  0  0  0  0  0
    5.0755    1.4376  -17.0776 H   0  0  0  0  0  0  0  0  0  0  0  0
    6.3088    1.7953  -15.8216 H   0  0  0  0  0  0  0  0  0  0  0  0
    5.7374    4.0652  -15.2465 H   0  0  0  0  0  0  0  0  0  0  0  0
    4.2228    3.6051  -16.0955 H   0  0  0  0  0  0  0  0  0  0  0  0
    4.3724    5.6229  -17.5071 H   0  0  0  0  0  0  0  0  0  0  0  0
    7.0429    3.7630  -17.2222 H   0  0  0  0  0  0  0  0  0  0  0  0
    7.8284   -1.2127  -19.0493 H   0  0  0  0  0  0  0  0  0  0  0  0
    2.2154    3.3484  -18.9312 H   0  0  0  0  0  0  0  0  0  0  0  0
    3.0778    2.4514  -17.8738 H   0  0  0  0  0  0  0  0  0  0  0  0
    5.7178    0.6866  -19.1290 H   0  0  0  0  0  0  0  0  0  0  0  0
  1  2  2  0
  1  5  1  0
  2  6  1  0
  3  4  1  0
  3  6  2  0
  4  5  2  0
  4 18  1  0
  5 19  1  0
  6 23  1  0
  7 18  2  0
  7 19  1  0
  7 20  1  0
  8 13  1  0
  8 21  1  0
  8 22  2  0
  9 15  1  0
 10 15  1  0
 11 17  1  0
 12 17  1  0
 13 16  1  0
 14 15  1  0
 14 16  1  0
 16 19  1  0
 17 21  1  0
  1 24  1  0
  2 25  1  0
  3 26  1  0
  9 27  1  0
  9 28  1  0
  9 29  1  0
 10 30  1  0
 10 31  1  0
 10 32  1  0
 11 33  1  0
 11 34  1  0
 11 35  1  0
 12 36  1  0
 12 37  1  0
 12 38  1  0
 13 39  1  0
 13 40  1  0
 14 41  1  0
 14 42  1  0
 15 43  1  0
 16 44  1  6
 17 45  1  0
 20 46  1  0
 20 47  1  0
 21 48  1  0
M  END
>  <OMEGA_C>  (23) 
74b1QBp2gkClR5/B3lwDQYyGhUDeqanBv/K+QFKofECpTrHBCv2tQD4id0Dd66bB3i7JQAkaeEAE
C57BH5frQM8hgkC4qbLB4jGFQEzBYUBp2JjB5FvjQGKrmT9Kv43Br23JQPBlykAbWobBLrWEQAps
x0C5LnfBdCTRQPB2ZL9hDqbBRO8KQZA8rD7Fc6LB6dnBQGSH8j98GofBf0OmQGhrg0Cgn4HBFaGe
QEqZskB0nITBoHTAQB0PWEC6IorBlx3vQKA5vL5aQZ3BKnCEQLaqbEAFRaPB3LOvQC3cZkCyTJXB
2lxBQPBqVUDmtpLB6UfVQJA7CT/AxJbB3K4EQVobsT/ayYvBdLkAQaXQgEDvfL/BBAcFQdP9hECj
W5jBu1MUQRd4ikBlv6rBcwWqQGgYe0AxLrjBlGfbQG/jukBM2YzBEvPCQHPp60BCgIjBl2TcQJhX
yUDY4n3BIutMQOrytUBZBHXB4EGXQF9ZxkD4O2jBtKB7QDrr6ECjWXvBSIS1QPl3sr+AXaLBVenF
QJBST73I+arBi43iQE/Qzb/+IKvBkawVQQtnNj/DKZzBraATQSlQwr63hqfBk04FQbDBlj+BX6fB
b2qiQAcDuD/snojB1eHJQBXN5T8mJX3B0Zi3QDYWgkB88XPBBCGHQFW5ZkCMw4DBl+qLQN7us0Ci
DozBm1/hQI3UcEAbx4nBUYL6QCo4m78CZZjB+cgNQHlMVkAXc5fB4fpEQKXjHECe/Y7B8fe2QPbB
Lz8wCJnBv9T0QEiEhECnsp/BItQCQXy2iEDdEqrBV+K9QEfwfkA3o7HBOTetQKumd0B/P6fB/bfI
QORUeUCcdZ7Bm2HqQMrehEDYB7PBAx2FQCezYUDSC5nBEVrlQO4QkT9uwI3BzqSnQIQZn0AEZmDB
NFbiQJrztUDw3XnBgMTcQBTPZ7/TsabBLl4OQVQLBD9YPKLB143BQMHL6j8c4IfBYYunQO6jg0DY
voLBLoHEQDTLkEAQ6XLBhxnBQGPEVEDF9YrBL+D3QEg5qL5fh53BgMSDQPQ3bEAIeaPBotCvQCiN
ZUCUx5XBFL1CQDt/VUDXnJLBHpzaQGBu8D7VDpfBhEcFQaKnpz8A9IrB6+7/QLCMhUDh37/B5bEE
QWtEh0B3yZjBTa8TQZvcjkCUMavBOOKoQM5OfEDZfbjB2a+SQKB4hEB/olvBFpS7QKe1qEA8tlLB
EfeTQHxkukBikWXB/9T2QGhBq0DHkYPBANzOQGFS0UC6H3/BBXn2QIyjv0CURGzBvX/CQHrrwL9D
W6PBIm/PQI/Np71qe6vBhfnwQNgjxb+4zqvBnRUYQaXxbT/hr5vBLHUYQSGq9L27WafB+68HQV1c
qz9tBqfBHseiQDMdsD9kEIrBoJLGQB513j8pZn7BvkONQLdOX0CIY3/BfkSaQJR5oEBCjIbBVAPY
QIedakAm1m3BJVXiQGfga0CIsorBMaoCQa2Wk7/BxZjBKfwNQKIJVkBFJJfBUG1HQPQoHUDB3I7B
Z0+8QLS7Cj+pkJnBEun1QG5kbUDEj5/BGGYDQUrSfEBt26nBFVS+QL33hEBKFrHBk7CtQBIcekB5
z6bBPyXJQF4VbEAxHZ7BMAzrQC6bhUDomrLBBmGEQGxVYkCG35jB53bqQMZMgz+jvY7BxNTGQNKf
KUAWw2HBihySQFG4kEAGe13BZ18DQRXq+r/4/5vB+SACQaCBQr3CVanBkqjBQLJdxz/leonBqZef
QIL9akDXYIHBlHO0QEDyekAGd2zB3DS+QGTaRkB+L4rB7WUEQfT83L6ddp3BcPGDQDrNc0AXKaPB
LvWuQPDtXkALTJXB6MA+QLgcVkBt65LBR5TlQFhJPD6heZfBhesGQZmsrz+WeYvB+QgAQfJgj0BG
Ur/B34YFQROyYkD025jB0oIUQSCifUDNDavBlwmpQFaAikAvwLfBTl7fQJ87DUAaMmzB10PVQIy0
OkDGSVLBpe2sQEIr9j/5Ll/B9J+EQG26rUDO0mTB8e9wQDRPckBS7FrBK86gQBD3mEAfB07BugcF
QXpADcDgdpPBKNTnQBBZFcCc9p7Bx3AQQb2hG8Cnh6DBuekCQVz4hT9rJ6rBRzAPQSatAb+e863B
KFPlQOQU0b6TYqzBdM+lQO94jj9HhY3B1aDBQBCeoT+RAIHBUEWFQDEMPUBbTYDBJ6mSQK4glEAz
RITBS3HOQH/llEBRZG7BWzzeQKAuYkBe5ojBWNoTQTQ7g70dc5rBXJ0LQFi4XECKqJfBPh4/QEFP
G0ASw4/BYr/HQFUQm7xc35nBtrv1QCb9g0C3ZZ/BDHgDQTdPh0CSu6nBgXm/QNVkekDuaLHB8Wmu
QFZ5dECTB6fBWW7JQKe2ekBKLp7BdunrQEiqg0AGurLBQb6FQIqkY0CdyJjBFT7eQNWluj+kZI3B
sOGWQDAZ4UArs3rBzzOzQPRo1UAs4Y/B4dTZQBYLur/nNZbBk1DFQEjPlL6LUKfBK4XCQDw0E0CB
5oXB+laoQJqmlUDzloLBNBG1QOhaxUB+J4TBhy3BQPBlb0AxIIrBKs7dQBARIL5esJzBuw2FQGYi
Z0DsTKPBxeKvQKsncUAZUpXBloRDQNleVEC2jZLB4a3KQDTgZz/JVJbB45MCQddStD/qIIzBO+QA
QYnthkBDg7/BdRoFQdZ8hkD1dpjBVGgUQYCljEDxzKrBpdOqQJYbdUCITrjBNc2XQEIj1kAv+2nB
dTOhQEdbAUGUgXvBvBVsQM9M3kC0cIDBI6TIQGLkwUC53pTB8TySQPCp0kBx45LBiWW9QK8T90CH
M5DBN2rrQEOtrL8Poo7B+OK3QLyd079HhJTBOFbnQNR2EsCM1prBOlPIQKyZJD8q6KvBEMfSQFzH
j79A+qvB0FOjQLvd+b77p6XBzuahQMmi8T8spoXB/1DQQJGHEkAenHvBFhavQNBijEDPiXTB2eaF
QA8rkkBuMITBPezVQKaoyUB2L4HBEmHiQC9Vg0AYa4rBmLv/QGMHYj3wT57BZYAQQBXNTEBaSpfB
sG1MQKBJH0DAOY7Be/6tQP2yoD+AgpjBLID1QE6Yg0DEWKDBY6gCQbJIh0Ds06rB1Zm8QFM2f0DW
5rHBNvesQPNKeECFYqfB3EXJQC1Fe0AdwJ7Bx/3oQMjHhEAVmbPBkUOGQO+RY0Cr4JjBJ2nfQF1L
sD91II3BkuGkQMLK30AHTnnBJIm7QI8l1EDKrI/BQs8JQRBARj5KEqDBKz/UQGBqqb9hw5vBtJ7B
QIrPDUC6QYbB9NWsQGYzlEDs34LBcF++QCVRwkB+I4TB4grDQMUHakDoj4rBIn3iQGBrtT0n4p7B
FxGEQCMTa0BxWaPB4dewQD5Fb0A6spXBdZxGQGUIUkBEYpLBr5nPQFS1gD/LGZfBY8cCQVq+qj/e
2orBoTT9QCpHh0Bqk8DBGn8FQcFOhUAgmJnBx48TQTQIjEDkK6zB/uCmQFSjfEAznbjBLaWmQDt2
00Dx12jBGHqyQN8eAEHl3HnBjkGDQMnL4EB3fH7B/6/NQLlLv0BVH5XBjtaZQD4w1UCCNJLBGA/J
QDSi9EC55I/BxCoOQatonD+JT6LBPnoRQXyshb0TbZjBRUQPQRJhAL+GUqbBkC+xQPTarL8QA5vB
c3TeQExIAsBE96HBZeDiQNa6zL/REZTBws6gQC9P6T+wxIbByFzMQMmHDECVwXvBn0WyQDF2iUDZ
NXXBeEuKQGtLlEDGkYTBex7gQKaSwkD3ooHBw+nkQHrdfEA0AYvBDojUQJ23nT7cxKbBKBQSQChJ
TECD5ZbBpcdQQN9gG0CPa47BZLizQHmntT/1NpnBYG71QJjcg0A2TJ/BEHoDQVq0hkDMm6nBeJG/
QOncekDnZLHB9zOuQIKbdUCICKfBQx/JQIIxekCFJZ7BWDPsQLLHgkDepLLBPVmFQAHOYkCX2ZjB
TsvhQOberT8hAI7Bz1alQIBR0UDo1I3BrpvmQByExUALNILBxh/aQEw5wb/qLZbBzH3VQDBAyb7A
PajBFqvBQCGkBEBk4IbBXZaqQIaKjUD/9oHBRcy1QDOvvUBcO4PB3S/BQOhgYkBFRIrB9MnmQOB9
jL4zyJzB7aaEQHCVaUDvWKPBwqmvQIZLbEA8W5XB6odCQB/OVED7nJLBzBbTQABcXj/3p5fBLg0E
QSwlsD9O1YvBJmEBQXK8g0AEYr/B2dUEQRPThkBnVZjBknAUQfnji0AOoKrBoQOrQHrEdkA2UrjB
HbSCQN+7y0COjI7BN7CrQNTw80Cf3Y3BSPC1QA09wkBLnZTBFkDyQCaMt0BCVnXB7Tv3QG5utkA5
+4jB3PvsQDYi6ECMO4LB3brmQMxztL97AI7Bxwm3QBaSy78x5JXB34jnQJhoGsD165nBws3eQBty
/j7Z26zBWuLiQFNcpb90DazBQWOyQOh08L6wBajBrK6hQEXo0D+c6ofBAWPLQLl2/j8r5HzBbD20
QIsPg0AB1nPBRMyHQHGiiUDr4YLBoR+mQO3wzkDrRnnBg8DiQCx+d0B5g4rBPesEQc33Mr4j85zB
g/EOQFfiUECPUpfBlWFJQBsfHkC9i47BHTO6QHBOqD9PMpvBkhz1QPI8hEBSX5/BqGIDQe4Hh0BK
p6nBB1u/QLdCfECVfLHBktitQLV6dkBhJ6fBkLbIQM4oe0DQR57B6wjsQMxng0DLsbLBlAKFQE+5
YkBR+pjBNlbjQNlZrz/65Y3B0raoQM+kvUCTS2bBgUvtQHpdtEDt4XrBU33eQDgZwL+Ir5bB+WrY
QNBxq75jfqjBuBPDQKYZBkAb2obB5qynQI5sjkDSB4PBsaLDQDK+nUDqSnPB143AQHYhY0CBp4rB
37TpQMAYbL7BAp3BdT2EQMiiaUDaeKPBwUCvQDgCbEAqlZXBbd9CQEHbVEAbi5LBDfXUQAwGYT8a
nJfBaqsEQfZZqz8ubovBTVcBQWuohEA+aL/BoJ0EQUIlh0CaYpjBp18UQbzxi0ASpqrBMOOqQBqu
eEAZb7jBuieLQNzvrUCX2WDB5Cu7QCeNyEAfVljBeoygQLRK2UDmZHDBA2cAQfjFnUDlGoLB3PXk
QHIJ0EAbd4LBR5X/QOZLv0Bw32zBGQHrQKEktb87fY7B84S7QOKRz799apbBh+jsQHkBGMAhoJrB
05/gQNkxFD9n8azB3dHmQB9cmr+je6zBSW61QDes577/RajB5H2jQNojzz93k4fBl5XNQCv9A0An
6nzB4jiMQIv/eEAlqH/BhhacQBOBqkACeofBfxnMQCFBgkB+JWnBEJfhQPlme0Axz4rBylAGQROZ
wr3hL53Bn3wOQGn1UED6HJfB+VlKQPUyHkDjfI7BeWW7QKLTpj+PBZvB1zj2QMjJfkCXmZ7BoSkE
Qa5SgkAo5KjBewHBQBTSekBF5bDBMiyvQAUudUCBmabBJ6XJQL3cc0ANlp3BX9PtQIsVgECfB7LB
zPSEQPrYYEB6wpjBRNTiQGyyjz8NrI3BUxrIQFIPx0C+j4XB1F+DQOblw0C+rHXBzxgLQQjsHb97
Qp7BQWnOQDhxK7+bcafBOBzBQPSQ5T+Q3obBkAqkQArFf0D9QIHBPAydQEaCr0BJ+IPB3/6+QKtm
UkBVvonBBszrQOA8ET7sBaDBBDiFQAjjbEC4KqPBkj6vQO8GY0Ac/JTBBVY/QKo+VkA935LBjVHU
QKDUrj6cCpbBbAUEQazxwD9KF43BkU8CQawlfkDswb7Bph8FQXZPgUATk5fBrjsVQdBHhkD8y6nB
/5isQOEOe0BF3rfB0PrZQJb1t0CgIozBCfXBQNXQ6EDohofBWQDbQO8qxUAMTnzBYNhJQLWyskBy
rnPBNuuVQJP9wUDpvmbBzL95QHmj5UCtfnnBFIkVQc1Y/7z78ZjBnL8HQSgFzL9YlJrB6x8TQRJa
RL+S/6XBPECwQHob/b0xq6jBfFreQATlUb9pMq/B35nHQKHK0r8ux6PBgtOhQCrBqT+YYojBLGzJ
QBNQ1z/HunzBJIa0QAQte0C9/3LBSLaEQDL3X0ANt4DBuV+KQHjEsUB2aIvBnbjfQBbpa0CsKYnB
x8HyQEVljj/Cx6PBLsIMQMdNWUBWwpfBGmZAQGw9HUDcPI/BGAm4QL0N670cN5XBlPf0QMCQhkAz
0aDBRc8BQRqpjEC7V6vBDtO6QAgUgkA1ILLBGGGsQC9DeEBXlqfBNmLJQNviekAXF5/BDLTmQNe/
iUAN/rPBwueGQANHYUCe9JjBDEfeQMpSqj9QcIzByNGpQP7p4kBG/nvBzBGiQLRT00AzhpHBqkvH
QGi4v775pabB5YMHQaRODT87o6HBUhDBQOxHEEBtGYbBOhmvQCZzlkC9m4PBxtK4QMY6xUBtD4fB
HCnEQAyDakBT94rB0q/lQGBKx72wNZ3BDuWDQBdQaUA+ZqPBmsaxQFP3a0Cx/5XBlZlIQMKKUkBj
PZLBHiLOQMoDRT+DxZXBaj4CQfdbpj9uP4rBnGj5QDZDj0A3DMHBkGoFQSLZiECQJprBHHwSQYuQ
k0CPz6zBTZWkQCTLgEAnu7jBnoS5QCCT2UDV8mzBsEiyQH8WAkFo5n/BoOmGQHM94EC0KXrB4Uis
QCSJvkBmJpjBF2x+QBHB0EDoe5DBHJWqQJuw9EBCWpPBO6+pQIIxVr99p6PB34+/QMxjEj90sqrB
Ze7WQD84h78UV6zB15YSQev6QT+6/5rBGyoPQSqLCb5qWqfB2XoDQcA4vz/KtaXB292fQIVf8j/A
k4bBKUfLQBTwEUBrXHvBGA67QC2okUBo1nbBfD+MQBmKkUCIwoPBMJbbQMLayEB3GojBnlPmQCHJ
ekCVjYvBeuLtQCEwhr+USpnBovASQOMuT0BblJbB6z9RQI9hG0BrVI7BdayvQEuNeT/Ql5fBvYP0
QM5ph0B/tqDBG9EBQf4njUB+MqvBlCe7QETfgUCoKrLBeiusQO0IeUBLqafBENnIQFKBfEB5Hp/B
LyDnQACgiUCD6rPBwWmGQC5GYUBaGZnBcXjgQPjXmT802IzB+HDlQA/uhUCYqWrB7qy4QIZXyUAq
rGzBqv7SQJgpSL+oDqbBEyELQUjD7j6ia6HBBFu/QJrDA0A4NYfBF/ytQBb/kEApEITB6GfPQMl2
pkBStHnBgGvDQH1vYEDrZIvBDEXvQCgylL6UyZzBwXqDQNUKakAkiKPB0EqxQLBMaUDtNpbBsYpI
QOoIU0AwM5LB8AbUQHqjET+LMJbBAwcDQeh9oj/hEYrB+H36QG92jkA968DBpAMFQRz7iUBM+5nB
hH8SQSpClEAzlqzBiUelQJUUgEAu17jBtYr1QHVqWkAuQ3TBni39QICalkBRsWDB8EbNQAKtbUB7
U2DB/jSpQKAp4ECGnXfBaFCgQAKMukAzWGLBFjfQQAFQ2kAJtmLBuCy3QPQRqb8S0qLBkvPHQN8l
pD10xqrB4aPlQHCAur9xNavB+1EVQdBcUj9L1ZrB7mMUQS0tWL6clKbBxosFQSm9qT+fJabBrhef
QGtF1j+g6YjBmA7FQHiBAkAQDX3BxA6WQK+9gED8GH7BlB6eQHmGqUAF+YjByu7nQDaLtUAt6oHB
qbjlQCn3b0DvwovBrov6QNahk79bIJjBDh0SQKF4UEBzZZbBQTlRQLKdG0A0WY7BxuW1QDnCNT8L
o5jB

>  <OMEGA_E>  (23) 
3qAfP3zwHj9AcDA/UAwwP8BmKj82fCk/GKwnPxhcJj+IUiU/WDEkPw==

>  <OMEGA_NBR>  (23) 
     81991

$$$$
