50253336
     RDKit          3D

 71 74  0  0  1  0  0  0  0  0999 V2000
   12.0114   -4.9172  -20.7080 C   0  0  0  0  0  0  0  0  0  0  0  0
   12.0640   -4.0535  -19.5963 C   0  0  0  0  0  0  0  0  0  0  0  0
   10.9556   -4.8192  -21.6321 C   0  0  0  0  0  0  0  0  0  0  0  0
   11.0581   -3.0907  -19.4016 C   0  0  0  0  0  0  0  0  0  0  0  0
    9.9510   -3.8583  -21.4447 C   0  0  0  0  0  0  0  0  0  0  0  0
    9.9939   -2.9886  -20.3248 C   0  0  0  0  0  0  0  0  0  0  0  0
    6.6828    3.7997  -19.7393 C   0  0  0  0  0  0  0  0  0  0  0  0
    4.4176    3.6128  -19.3869 C   0  0  0  0  0  0  0  0  0  0  0  0
    8.9216   -2.0066  -20.1241 C   0  0  0  0  0  0  0  0  0  0  0  0
    6.6420   10.5071  -22.0165 C   0  0  0  0  0  0  0  0  0  0  0  0
    5.2307   10.1323  -21.5298 C   0  0  0  0  0  0  0  0  0  0  0  0
    7.2302    9.4077  -22.9201 C   0  0  0  0  0  0  0  0  0  0  0  0
    4.4916   -0.6231  -21.7544 C   0  0  0  0  0  0  0  0  0  0  0  0
    5.2506    8.7865  -20.7979 C   0  0  0  0  0  0  0  0  0  0  0  0
    7.2435    8.0503  -22.2013 C   0  0  0  0  0  0  0  0  0  0  0  0
    4.8684    0.7856  -22.2399 C   0  0  0  0  0  0  0  0  0  0  0  0
    5.6989   -1.5630  -21.8425 C   0  0  0  0  0  0  0  0  0  0  0  0
    7.2879    0.3856  -21.6065 C   0  0  0  0  0  0  0  0  0  0  0  0
    5.8200    7.6830  -21.7092 C   0  0  0  0  0  0  0  0  0  0  0  0
    6.1001    1.3309  -21.4745 C   0  0  1  0  0  0  0  0  0  0  0  0
    6.8664   -0.9697  -21.0470 C   0  0  2  0  0  0  0  0  0  0  0  0
    5.9826    3.8500  -21.0952 C   0  0  2  0  0  0  0  0  0  0  0  0
    5.9166    3.6195  -17.3420 C   0  0  0  0  0  0  0  0  0  0  0  0
    6.4933    2.7219  -22.0075 C   0  0  0  0  0  0  0  0  0  0  0  0
    5.8191    6.3798  -20.9110 C   0  0  0  0  0  0  0  0  0  0  0  0
    6.2238    5.1918  -21.7991 C   0  0  0  0  0  0  0  0  0  0  0  0
    4.5591    3.6872  -20.7691 N   0  0  0  0  0  0  0  0  0  0  0  0
    5.6890    3.5790  -18.7925 N   0  0  0  0  0  0  0  0  0  0  0  0
    7.9786   -1.8751  -21.1238 N   0  0  0  0  0  0  0  0  0  0  0  0
    3.2702    3.5685  -18.7605 N   0  0  0  0  0  0  0  0  0  0  0  0
    7.8872    3.9072  -19.5359 O   0  0  0  0  0  0  0  0  0  0  0  0
    8.8484   -1.3475  -19.0903 O   0  0  0  0  0  0  0  0  0  0  0  0
   12.7847   -5.6575  -20.8513 H   0  0  0  0  0  0  0  0  0  0  0  0
   12.8790   -4.1312  -18.8919 H   0  0  0  0  0  0  0  0  0  0  0  0
   10.9184   -5.4821  -22.4838 H   0  0  0  0  0  0  0  0  0  0  0  0
   11.0990   -2.4305  -18.5479 H   0  0  0  0  0  0  0  0  0  0  0  0
    9.1418   -3.7803  -22.1557 H   0  0  0  0  0  0  0  0  0  0  0  0
    6.5875   11.4475  -22.5847 H   0  0  0  0  0  0  0  0  0  0  0  0
    7.2979   10.6434  -21.1440 H   0  0  0  0  0  0  0  0  0  0  0  0
    4.8664   10.9112  -20.8438 H   0  0  0  0  0  0  0  0  0  0  0  0
    4.5565   10.0624  -22.3962 H   0  0  0  0  0  0  0  0  0  0  0  0
    6.6190    9.3260  -23.8310 H   0  0  0  0  0  0  0  0  0  0  0  0
    8.2605    9.6800  -23.1931 H   0  0  0  0  0  0  0  0  0  0  0  0
    4.1521   -0.5670  -20.7096 H   0  0  0  0  0  0  0  0  0  0  0  0
    3.6795   -1.0173  -22.3831 H   0  0  0  0  0  0  0  0  0  0  0  0
    5.8786    8.8730  -19.8989 H   0  0  0  0  0  0  0  0  0  0  0  0
    4.2247    8.5194  -20.5042 H   0  0  0  0  0  0  0  0  0  0  0  0
    7.5972    7.2755  -22.8973 H   0  0  0  0  0  0  0  0  0  0  0  0
    7.9224    8.1047  -21.3375 H   0  0  0  0  0  0  0  0  0  0  0  0
    5.1026    0.7444  -23.3138 H   0  0  0  0  0  0  0  0  0  0  0  0
    4.0161    1.4615  -22.0761 H   0  0  0  0  0  0  0  0  0  0  0  0
    5.4310   -2.5444  -21.4239 H   0  0  0  0  0  0  0  0  0  0  0  0
    5.9952   -1.6819  -22.8951 H   0  0  0  0  0  0  0  0  0  0  0  0
    7.5691    0.2830  -22.6650 H   0  0  0  0  0  0  0  0  0  0  0  0
    8.1433    0.7768  -21.0361 H   0  0  0  0  0  0  0  0  0  0  0  0
    5.1622    7.5686  -22.5834 H   0  0  0  0  0  0  0  0  0  0  0  0
    5.8370    1.4240  -20.4105 H   0  0  0  0  0  0  0  0  0  0  0  0
    6.5539   -0.8417  -20.0001 H   0  0  0  0  0  0  0  0  0  0  0  0
    4.9728    3.4122  -16.8163 H   0  0  0  0  0  0  0  0  0  0  0  0
    6.6638    2.8605  -17.0669 H   0  0  0  0  0  0  0  0  0  0  0  0
    6.2841    4.6161  -17.0563 H   0  0  0  0  0  0  0  0  0  0  0  0
    7.5899    2.7827  -22.0686 H   0  0  0  0  0  0  0  0  0  0  0  0
    6.0623    2.8533  -23.0110 H   0  0  0  0  0  0  0  0  0  0  0  0
    6.5331    6.4668  -20.0787 H   0  0  0  0  0  0  0  0  0  0  0  0
    4.8097    6.2031  -20.5111 H   0  0  0  0  0  0  0  0  0  0  0  0
    7.2923    5.2784  -22.0453 H   0  0  0  0  0  0  0  0  0  0  0  0
    5.6306    5.2205  -22.7250 H   0  0  0  0  0  0  0  0  0  0  0  0
    3.8129    3.6379  -21.4330 H   0  0  0  0  0  0  0  0  0  0  0  0
    8.0750   -2.4393  -21.9438 H   0  0  0  0  0  0  0  0  0  0  0  0
    3.2474    3.5042  -17.7628 H   0  0  0  0  0  0  0  0  0  0  0  0
    2.4158    3.5989  -19.2792 H   0  0  0  0  0  0  0  0  0  0  0  0
  1  2  2  0
  1  3  1  0
  2  4  1  0
  3  5  2  0
  4  6  2  0
  5  6  1  0
  6  9  1  0
  7 22  1  0
  7 28  1  0
  7 31  2  0
  8 27  1  0
  8 28  1  0
  8 30  2  0
  9 29  1  0
  9 32  2  0
 10 11  1  0
 10 12  1  0
 11 14  1  0
 12 15  1  0
 13 16  1  0
 13 17  1  0
 14 19  1  0
 15 19  1  0
 16 20  1  0
 17 21  1  0
 18 20  1  0
 18 21  1  0
 19 25  1  0
 20 24  1  0
 21 29  1  0
 22 24  1  6
 22 26  1  0
 22 27  1  0
 23 28  1  0
 25 26  1  0
  1 33  1  0
  2 34  1  0
  3 35  1  0
  4 36  1  0
  5 37  1  0
 10 38  1  0
 10 39  1  0
 11 40  1  0
 11 41  1  0
 12 42  1  0
 12 43  1  0
 13 44  1  0
 13 45  1  0
 14 46  1  0
 14 47  1  0
 15 48  1  0
 15 49  1  0
 16 50  1  0
 16 51  1  0
 17 52  1  0
 17 53  1  0
 18 54  1  0
 18 55  1  0
 19 56  1  0
 20 57  1  1
 21 58  1  1
 23 59  1  0
 23 60  1  0
 23 61  1  0
 24 62  1  0
 24 63  1  0
 25 64  1  0
 25 65  1  0
 26 66  1  0
 26 67  1  0
 27 68  1  0
 29 69  1  0
 30 70  1  0
 30 71  1  0
M  CHG  1  30   1
M  END
>  <OMEGA_C>  (1) 
mi5AQQ9ancAFqqXBJgZBQXq2gcAuxZzBFUovQbo2msBxDq3BC+4wQRTORcCBNpvBKjcfQTPudsDM
jqvBLOcfQdtEP8A/maLB5tnVQMYtc0AD6p3BI12NQN04Z0BrGJvB774OQadrAMAl/qDBCIvUQEkd
KEHTIbDBpmGnQP8dIkEYPazBEl7nQCKGFkFrXLfB6LqPQM6DH78VCa7BhwSoQH2VDEEYYqbBEMvn
QCLOAEE5nLHBv8mbQJgdST8467HBbV22QDkRyL9ova7BcDbpQJdwxT4f2qzBYj26QOva9UB/rK3B
YzTDQAJaqj+ty6vBq7nbQB5BeL9EYKjBlHG/QKhmdkANw6jB3FS9QGSlZ0BvvIrB9cjPQGw0LkBt
D7DBPTa6QBEnzECpSafB/yjHQFcjpkCGZK7Bc+SRQMn7a0AeJ6bBqAy2QKEOZUAcV5bBEFH/QJwC
8L+M/ajBwUpRQLBiZEBrFZbBtGP8QDYQekB7SZzB65INQVF8rL/vuJjB+I1MQd0JtcBnz6bBQRBO
QZ0yhMCLIpfB5rEuQaNtr8De3rPBkJUxQS2NG8ATYpTBtUQSQZnwccDuPrHB3MzSQMUoN0GFrbTB
I4jpQHtLKkH6JqnB5bmbQG2ULkEcwKbBL8+RQHD/IEF9K7PBB8/TQHA3FUHypb7B6yoEQS7hGkFe
i7nBLd6EQN0oEb9OraXBvn1rQF42gr+kELPBRh28QK73DUELMZ/BtjCHQFZPCEGXCKTBUxzzQJvQ
6EDELbfBR4T9QOysAUEds6rBtEijQHaPPj+6grrB44OAQDgSuz/wm7DB/cqtQPLWIsApZKvBfNi/
QE9I179BKbfBVDbyQNrfkD7gUbXBxUoCQXDdRj/9SajBoTClQFIy8kDaqrTB5si6QCFGtj+cSKPB
sLnRQJB5V79DAKDBdiGfQDNhWkDgh4bBfD3VQOQRN0ABiYjB+hbJQGe3k0BIc4jBeODyQJUXMkCV
jLDBRf7BQBmcNkCUFrjBOQ/RQALwzkA0oaDBG+mZQI5/xkDTFqTB0FrpQF7oqEDdXLDB4S20QCoO
p0DUzLXBUwd0QMLTaEDLdqvBSDMBQUQeHMDNjK/BAdVPQENFYEAxGo7Bc5waQPZUZkDOO5rBHzZA
QSkEncBAuKXBxkkvQYL+mcBtGa3BCgpBQTpZgcDn1JzBfiofQYSudsARmKvBleYwQapFRcDHRJvB
gNUfQdL+PsCMo6LBXuTVQMRudUAG1Z3Bv1yNQMhIaUBpGZvBVp0OQRBsAMDgAaHBT6TVQOj+J0G1
KbDBcMSoQBVzIkHu66vBWznmQEx/FkETxrfBSVuPQI+IF788063BOSipQHy9DEGQP6bBF5bmQMSQ
AEEjPrLBKNKbQHzATz83vbHBhKC1QD3hxb/Rm67BAC/pQMIGxj6HyKzBMpy5QLEc9kBEyq3BmoXD
QFIsrD/rpavB/l7bQHRRd7/0TajB98O/QJhZd0DMuKjBhzG9QPqmZUDgu4rBWXjQQPLOLkDU66/B
SDa6QDuEzECIY6fB0VXHQPBspkB1cK7BnDSSQGLAbECHJ6bBXoa1QCoAc0AVNZbBS7f+QNz18L/g
8KjBeVtRQKbqX0DpMpbB4o38QF63d0D8LpzB9pENQZSgq79YxJjBfZ1MQQOitMAr36bB2bQuQRs6
r8AC6bPBihlOQSK8g8C1NJfBWjMSQTvfccAoRrHBeIwxQQT0GsDucZTBfSLUQB5JN0FCgbTBbMrr
QIWCKUGMXanBPoeeQDXfLkHOPKbBUi+SQHrTIUEsqrLBOkvRQMu6FUGy1r7BCHwDQXuJGkHzSrrB
l8yEQBAMCL+5caXB7BxqQP4Oer9KzLLBuTW+QMGtDUEaNp/BHnOIQDDHCEEuq6PBoCTwQLqF6EBJ
ELjB77D9QF7iAEEQm6vBzjGjQB0ZRD8PVrrB38qAQAWQvz/narDB/MusQMyTIcCtQKvBS9O+QLRg
1b8nDLfBXurxQP0MkT6aRLXBwWcCQZiJRD/jQqjBZjmjQM2/8kBsh7TB2U+7QEgsuD+uH6PBRpXR
QKK6Vb/A6p/Bzn6eQBNqZkDQbYbB8vrMQLl7J0AmhYnBO9zRQKCHjEDKqIfBi5fzQG+CMkDtR7DB
vyvDQMn3NkA+AbjBRTXRQJWpz0DbxaDBSw6aQL6ZxkAHIaTBAYXpQIVHqUC5abDB/Fq0QLgPp0BI
2bXBLfJ0QD6uaEAhf6vBLqwAQfFYHcB2cq/BMxxPQIQ3X0BMNI7BF4MbQE50WUBocprBsf0/QROS
ncCIi6XBoMFAQfkHgsBzoZzBNUsvQbwCmsB2Ca3BD8kwQbLJRcApKJvBmVgfQWDadcA1n6vBK/Uf
QWxbPsB/paLBFt3VQBUub0CuqZ3BAxuNQFFBZ0DMCJvBP+EOQRv0/b/jGqHB9s/FQHfiJUFy1LTB
vfToQMVlFUHiTrfBv++1QMajI0GtPKnBEouPQHabHr+aG67BrJLYQNMq/UAUXrXBtmamQKnTDEFX
+6bBWVqbQHiLSj/MBrLBJFa2QMwUx7+3yq7BR9XoQIVfzj7o8qzBqjfJQBEf+EBvoqnBuZ/CQLi/
qz9Y5qvBTbbbQOiVdL96dqjB7fK/QM/adkDShKjBSoO8QE29ZUAqkYrBuB3PQBVnL0BrFrDBlNO1
QK3sy0DTL6fBB8jKQAYWp0DWd63BPBmSQMPmbkDuD6bB2Za1QF+dYkB/LpbBtYz/QNZG7b/aGqnB
2WRQQCWRZEDfG5bBNln8QOuUdUCv7JvBOa8NQaWIqb+W1pjBlkRMQTKAtcBloabBtaNNQUDXhMBi
6pbBM8AuQWApr8BS3bPBh2ExQeyyG8BTT5TBFY4SQWQ6cMBtY7HBhsrSQHIUNkHZ/LXBDMWqQHBb
I0HNUbrBAKvyQH4CF0Fiur/B7VYCQdZpGEF1GbLBpVPQQNt+J0HyvaPBFVebQDLdLkGg66fBPq+E
QNvpD7/mv6XBMzprQKd/gr83ILPBK7S9QNed9kC3z7rBnJPyQLxG5kAA7bbBvPmdQMF9C0G5dp7B
ge+JQB+XCUEf5qvBmOOiQJy1Pz+nnbrB2e9/QCZKuz8gvLDBfeatQGNMIsBhaKvBe8a/QGm11r+P
NrfBStbxQBhKmj7FarXBDRACQfQFTT+LZKjB/LHkQE1Z/UC/SqTBqiW6QGnztj8zY6PBCdHRQDhc
VL/0E6DBCxGeQK7KWUAxaYbBzu3TQB+BNEAkRIjByL3IQESikkDJUojBaybyQG3HMkBj1LDBQmrA
QF8ZOUCv/bfB9qK5QP99xUBslp7BC5KTQD3KzEAWM6nBq7XtQAdxq0BCZa3BsSS/QKvNp0ByxbXB
l8R0QBL5bkD8bqvBtWIBQd1zGsCYr6/BFVFOQLGzXkCTJY7BbgoaQIRgaEA9TprBqrg/QcGsn8Cf
7KbB1X8tQZG1ncDzga3BbjxCQT5pgsBUcp7BSsodQdn4fMDYoKvBU4QyQZNDRsAjgpzBTC8gQefa
QcDAGqPBTeTTQIOccUD35ZzBc8OKQExUaEBQHJvBh5sPQXq3AMCuNKHB/F3MQOdFIkFTbbfBaiz1
QEx+F0FbFbPBAk+mQHOaH0G/rK/Bm+6PQMhCBb9AJa3B/dLsQCjS/0D0W7DBJHKeQADSB0FtGq3B
lNScQByqXD9/d7HBAbC1QEnRv7/kxq3BlyPqQIHa3D6FpazBeWPHQARB/EDeSqjB2YHEQFETsz9u
cavBJajcQAJTa7/Q5afBTbq/QMEZe0DO/KfB+/y2QPILZ0AGHYrBvefQQL8dNEAGfK/BmOW/QFI5
zkBnVKTBzYfIQI9wqkBiuKzBBbqRQFlgcUBYCabBhk2yQCZmZEA7zJXBOW7/QKl97r850ajB2ONJ
QO7yY0BgqZbBpA36QMMzd0Agt5rBK9YPQdC0qL8WGZnBFtBLQeOst8BVX6jByJcrQXYwtMAbALTB
7ERQQSD9g8Cma5nBZdEPQT3yecCosrDBVXU0QbWhGcCe+5XB3abSQLFwM0GAkLjBGAfEQAr5GkF9
KL/BNT0HQVBvGEG0LrnBlqD/QBDtH0GZ0KvBV02tQMM4KEE0NKjB6GKJQLlaJkGGYrPBYs6FQPIx
1753waTBqmxqQC60ab8S8LHBAJDkQJxY7kC0trfBa+oEQcvT8UDLzqzBKhOEQPVmBkFSUafB7giW
QHFx/kDpfLTBFGGkQLbyRj8DCbrBEgiCQPntxz+RX7DBbISsQOzzHMBpCqrB5QC+QAXO1b93N7bB
GibyQAu7nj4aKbXB2hMDQe0AUj94UqjBrfnPQD/ZB0EjR6HB+2m8QPy1vD9p5qLBKUfUQL07Rr/7
bZ/BL9CXQPqaWkCpVYbBlBDOQGPvNUDWkYfB1JvCQEJLk0ByrofBI/7zQPrTOEBI3q/B5mjDQKuP
PUCbhrfBrhbVQJKhyECWcZ3Ba1aeQP6Zy0CtwaHBsyrqQC4urED2Rq/Bi4mzQGl7r0Cnq7PBYfp1
QKlEcUBoqqvBJk0AQYhbHMANVK/BQbdEQF0jXUC/u47BCjwVQCJpZ0A1MJvB3qc/QVjNncAZhqbB
UiA/QeBEhsA46pzBNCEwQY+plsC/d67B2AIvQQg2T8DYMZvBrA4gQVoQcMCKz6zBVlYfQZyjQMBO
I6PBZwPWQO7tZEB/Z5rBvWmMQCZfaEBYMZrBSjcOQViBAcBycqHBGhO6QOU6JUFNo7LBdYm2QFD7
F0FH+7zB9RLbQIFKG0HICqvBilmUQOSFpb7LtbDBlcapQE/dAEEtebrBEOrOQOkoBEEoX6jBHNqk
QCPxij/cd7PBUDC5QFx6q7+YvrDBAVvuQFTK/z72jKzBdPzJQMkC7UA1vbLBQV7JQPtvvj90xavB
2xrdQEF4X79eOqnBFUvGQOKeeUAKkqXBgoyyQDCwX0BBZIjBlxPZQKxnO0CF9q3BMJa5QMGvv0Ax
grDBtS/TQAkvq0D0fqfBw5WXQKJgcUBk16TBGauxQPY3XEDnGZTBkzv/QFUw679zn6nBHiFKQNZt
akDKo5bBZ0H7QN47aUBaW5fBLuYMQXq0sb8gEJnB/AVMQfpltcAIy6fBGyBLQc/Ii8A72pbB0ZMw
QXG5qMCa1LXB/p0uQQFQK8Bi0JPBrywUQQ/zZMCH7bLB/wbEQK+fNUEpp7TBcLKaQPamJUHDp67B
ASueQCsyH0EvNcLB0qbVQHAFGEGsGMHBCbj6QON8G0ER5a7BXEPcQGyzJEGFnKPBbJeFQJPom77s
uKjBuKV4QJ8LIL+1q7bB+dKJQBPDAEEGyLbBZfyoQBs570DZ9MHBkBLoQDsu+kBJVaPBMGSwQPQa
BEEZ/aPBEuywQI+wiz8KvLvB43OKQKVO5z/ZuLLBFSmtQC06FMDjBq7BEeXFQNmnt7906rjBW176
QDhv6z7x0LTBEDMEQQPpTT/eJ6fBBVTpQCzt6kDstbbBuLu8QLkluj/nj6PB207QQJyWTb+YDKHB
Z+6RQGstV0BGQoXBUUfHQEJiLEATUYXBFRy/QGwOj0AKzoXBGjn8QGAVPUCghq3B9a/OQPU6T0BY
/7XBwaqXQEs8wUBYMK7Bxee8QJ0zrEBNyrfBa8vNQE2BvUCRGqDBq1z1QCQ0rECElqnBYTyDQDYl
ckDFA6vBZP4AQcHmGcDELLDBSXY+QNvfYkCs1I7B6J4ZQI2Oc0Bpu5vBu2FAQW/XncBseKfBITQt
QV4Jn8A+W63BA6ZDQVyYe8CCt5/BK0QdQW4/gMCPfKvBOrAzQcoPPsB9xZ3BZ10gQbc/QMBJo6PB
LPrQQAfzY0Dhg5nBItqHQBRfaUBqkprBTngPQSHBAMBUo6HBAATGQPA1JUEGl7TB4OrqQLpkGEGr
q7nBOPS4QITcG0GjqKnBVhqRQHjCvb4x/q3BMrbeQCK6AEHvzrrByN2tQLz8A0HnoKrBdsCgQPIq
hD/oULHBroi1QBRCs799sq7BpCXsQJWQ4j5MAKzBnIvTQFwU70Amz6/ByNXHQLteuT+be6rBwiLc
QLwRbb8UGqjB6rrEQAArekDq56TBqgypQMY2WUANLIjB1HPXQOYWOUDGCK3BUrTIQO5Pv0C23LDB
uq3UQJXdqkDOPabBSuqVQF8ZeEAd7KTB0F6rQMheaEA7tJPBfBX+QBJT878qBanBxnc/QK0JYEAp
2pfBem71QDTSXECc/ZXBrAAQQVjlpb+eqJnBNaBMQUiMtcCS5qjBX70qQfaat8CCTrPBanBSQc6x
ecBwQZvBh5gOQTAPgcAtDLDBJTM2QQIoDcDcy5fBsFnQQCTjNUE8erPBWzmqQMTDJEFo/LnBnAHy
QM4AH0GuocHBzLoDQV65GUFAkLTBN6vTQEXFHUE2AqTBvdOcQDyRJEGnpqbBykeFQARUqb7VtaXB
PvBtQHfuLb9+WLPB0dzCQKSI/kABJMDBrdX5QJad70DUNb7Bv46nQJnj+kDlnKLBeiWRQI0pAkFR
oq/Bj/OpQAE8gj8wz7nBxcOGQKMv4T9mHrDBP0eqQGtsF8DBjqvBlTK/QGmMwr/fGrfB5ev0QGp9
xD6qgrTBfxkEQVp1QD/dS6fB0q3vQLBL8kD2lKrBJBq+QCE5tj85B6LBD0PSQEInVb80sJ/Be8KH
QKZ8YED+dYXBszO0QCz4F0B5ZYbB1nO9QN7jg0Dh+4PBl5n6QCj1OkBKnazBlATNQJqySkA5JbXB
ClSmQBMdu0Dvb7LBDEjbQO7YsEBjZ7fBdAXHQENovkBrxJ/Bw8b3QKK2qkCJkqXBUDGDQGf/f0Cl
VavB89X9QG+OIcCDRq/B4ssvQFYUV0BPLZDBesERQArbYUBacp3B

>  <OMEGA_E>  (1) 
YDEFPlC/Cj4ghhM+0MFAPlgjwT6o+cM+

>  <OMEGA_NBR>  (1) 
     12812

$$$$
50253350
     RDKit          3D

 67 69  0  0  1  0  0  0  0  0999 V2000
    6.5985    3.6601  -19.7509 C   0  0  0  0  0  0  0  0  0  0  0  0
    4.3415    3.6385  -19.2980 C   0  0  0  0  0  0  0  0  0  0  0  0
    6.9347   -1.7006  -19.5934 C   0  0  0  0  0  0  0  0  0  0  0  0
    6.8586   10.3604  -22.1458 C   0  0  0  0  0  0  0  0  0  0  0  0
    5.4371   10.0705  -21.6288 C   0  0  0  0  0  0  0  0  0  0  0  0
    7.3917    9.1962  -23.0023 C   0  0  0  0  0  0  0  0  0  0  0  0
    5.4025    8.7535  -20.8417 C   0  0  0  0  0  0  0  0  0  0  0  0
    7.3431    7.8694  -22.2288 C   0  0  0  0  0  0  0  0  0  0  0  0
    6.0005    0.1675  -22.6821 C   0  0  0  0  0  0  0  0  0  0  0  0
    6.0233   -1.1448  -21.9126 C   0  0  0  0  0  0  0  0  0  0  0  0
    6.5498    0.6573  -20.4108 C   0  0  0  0  0  0  0  0  0  0  0  0
    5.9057    7.5902  -21.7178 C   0  0  0  0  0  0  0  0  0  0  0  0
    5.7475    1.1980  -21.5942 C   0  0  1  0  0  0  0  0  0  0  0  0
    5.8440    3.7424  -21.0743 C   0  0  2  0  0  0  0  0  0  0  0  0
    3.2418   -3.3801  -17.8363 C   0  0  0  0  0  0  0  0  0  0  0  0
    5.9241    3.6816  -17.3178 C   0  0  0  0  0  0  0  0  0  0  0  0
    6.6392   -3.2073  -19.7315 C   0  0  0  0  0  0  0  0  0  0  0  0
    6.1975    2.5973  -22.0571 C   0  0  0  0  0  0  0  0  0  0  0  0
    5.8409    6.3007  -20.8915 C   0  0  0  0  0  0  0  0  0  0  0  0
    6.1451    5.0773  -21.7788 C   0  0  0  0  0  0  0  0  0  0  0  0
    4.2134   -2.9976  -18.9598 C   0  0  0  0  0  0  0  0  0  0  0  0
    5.5839   -3.6583  -18.7035 C   0  0  0  0  0  0  0  0  0  0  0  0
    4.4302    3.6735  -20.6851 N   0  0  0  0  0  0  0  0  0  0  0  0
    5.6331    3.5704  -18.7535 N   0  0  0  0  0  0  0  0  0  0  0  0
    6.5427   -0.7998  -20.5762 N   0  0  0  0  0  0  0  0  0  0  0  0
    3.2181    3.6604  -18.6274 N   0  0  0  0  0  0  0  0  0  0  0  0
    7.8139    3.7145  -19.5983 O   0  0  0  0  0  0  0  0  0  0  0  0
    7.3766   -1.2768  -18.5308 O   0  0  0  0  0  0  0  0  0  0  0  0
    6.8379   11.2747  -22.7571 H   0  0  0  0  0  0  0  0  0  0  0  0
    7.5289   10.5090  -21.2864 H   0  0  0  0  0  0  0  0  0  0  0  0
    5.1177   10.8924  -20.9711 H   0  0  0  0  0  0  0  0  0  0  0  0
    4.7498    9.9975  -22.4846 H   0  0  0  0  0  0  0  0  0  0  0  0
    6.7750    9.1059  -23.9087 H   0  0  0  0  0  0  0  0  0  0  0  0
    8.4330    9.4077  -23.2869 H   0  0  0  0  0  0  0  0  0  0  0  0
    6.0470    8.8443  -19.9549 H   0  0  0  0  0  0  0  0  0  0  0  0
    4.3695    8.5478  -20.5247 H   0  0  0  0  0  0  0  0  0  0  0  0
    7.6561    7.0511  -22.8939 H   0  0  0  0  0  0  0  0  0  0  0  0
    8.0279    7.9260  -21.3698 H   0  0  0  0  0  0  0  0  0  0  0  0
    6.9631    0.3492  -23.1824 H   0  0  0  0  0  0  0  0  0  0  0  0
    5.1924    0.1741  -23.4284 H   0  0  0  0  0  0  0  0  0  0  0  0
    5.0096   -1.5648  -21.8359 H   0  0  0  0  0  0  0  0  0  0  0  0
    6.6846   -1.8710  -22.4079 H   0  0  0  0  0  0  0  0  0  0  0  0
    7.5796    1.0433  -20.4342 H   0  0  0  0  0  0  0  0  0  0  0  0
    6.0737    0.9401  -19.4604 H   0  0  0  0  0  0  0  0  0  0  0  0
    5.2386    7.4886  -22.5865 H   0  0  0  0  0  0  0  0  0  0  0  0
    4.6775    1.2194  -21.3400 H   0  0  0  0  0  0  0  0  0  0  0  0
    2.2649   -2.9089  -18.0194 H   0  0  0  0  0  0  0  0  0  0  0  0
    3.1225   -4.4733  -17.8112 H   0  0  0  0  0  0  0  0  0  0  0  0
    3.6414   -3.0327  -16.8721 H   0  0  0  0  0  0  0  0  0  0  0  0
    4.9911    3.5760  -16.7448 H   0  0  0  0  0  0  0  0  0  0  0  0
    6.6268    2.8881  -17.0237 H   0  0  0  0  0  0  0  0  0  0  0  0
    6.3728    4.6642  -17.1098 H   0  0  0  0  0  0  0  0  0  0  0  0
    6.2632   -3.4089  -20.7454 H   0  0  0  0  0  0  0  0  0  0  0  0
    7.5680   -3.7729  -19.5657 H   0  0  0  0  0  0  0  0  0  0  0  0
    7.2896    2.5814  -22.1880 H   0  0  0  0  0  0  0  0  0  0  0  0
    5.7156    2.8116  -23.0224 H   0  0  0  0  0  0  0  0  0  0  0  0
    6.5815    6.3528  -20.0798 H   0  0  0  0  0  0  0  0  0  0  0  0
    4.8335    6.1956  -20.4624 H   0  0  0  0  0  0  0  0  0  0  0  0
    7.2101    5.0978  -22.0532 H   0  0  0  0  0  0  0  0  0  0  0  0
    5.5306    5.1412  -22.6889 H   0  0  0  0  0  0  0  0  0  0  0  0
    3.8137   -3.3450  -19.9240 H   0  0  0  0  0  0  0  0  0  0  0  0
    4.3326   -1.9044  -18.9848 H   0  0  0  0  0  0  0  0  0  0  0  0
    5.4698   -4.7506  -18.7666 H   0  0  0  0  0  0  0  0  0  0  0  0
    5.9286   -3.3833  -17.6957 H   0  0  0  0  0  0  0  0  0  0  0  0
    3.6550    3.6547  -21.3166 H   0  0  0  0  0  0  0  0  0  0  0  0
    3.2316    3.6272  -17.6280 H   0  0  0  0  0  0  0  0  0  0  0  0
    2.3460    3.7102  -19.1142 H   0  0  0  0  0  0  0  0  0  0  0  0
  1 14  1  0
  1 24  1  0
  1 27  2  0
  2 23  1  0
  2 24  1  0
  2 26  2  0
  3 17  1  0
  3 25  1  0
  3 28  2  0
  4  5  1  0
  4  6  1  0
  5  7  1  0
  6  8  1  0
  7 12  1  0
  8 12  1  0
  9 10  1  0
  9 13  1  0
 10 25  1  0
 11 13  1  0
 11 25  1  0
 12 19  1  0
 13 18  1  0
 14 18  1  6
 14 20  1  0
 14 23  1  0
 15 21  1  0
 16 24  1  0
 17 22  1  0
 19 20  1  0
 21 22  1  0
  4 29  1  0
  4 30  1  0
  5 31  1  0
  5 32  1  0
  6 33  1  0
  6 34  1  0
  7 35  1  0
  7 36  1  0
  8 37  1  0
  8 38  1  0
  9 39  1  0
  9 40  1  0
 10 41  1  0
 10 42  1  0
 11 43  1  0
 11 44  1  0
 12 45  1  0
 13 46  1  1
 15 47  1  0
 15 48  1  0
 15 49  1  0
 16 50  1  0
 16 51  1  0
 16 52  1  0
 17 53  1  0
 17 54  1  0
 18 55  1  0
 18 56  1  0
 19 57  1  0
 19 58  1  0
 20 59  1  0
 20 60  1  0
 21 61  1  0
 21 62  1  0
 22 63  1  0
 22 64  1  0
 23 65  1  0
 26 66  1  0
 26 67  1  0
M  CHG  1  26   1
M  END
>  <OMEGA_C>  (2) 
vybTQMY/akDgAZ7BVO2KQB3daEA8YprBxejdQBqt2b9ev5zBinnbQCnEJUGYKrHBX/ytQMQgIUHR
B63B+4jsQNYjE0HMBLjBg+GsQDAODEHku6bByvrqQCXS+0B71LHB/gPAQFGNKz7wdLXBFr/AQC2I
kr8ATa/BCJjRQIFCKD9iSaPB0/u8QDvj8kAYvq3BSeu3QPtXmT/iwKzBuQG7QOyCb0ApmKjBLXpP
QJtTWMCosI7Bi5K9QPefa0DpiorBiHTUQANETcAp2p3BPFLGQEw6JkD0dLDBUui6QJqfyUDEIafB
paTEQOd4okDzOq7BDtSGQL7YP8C3rZfBha+yQFoiasCtoJXBV8SNQAAaa0Ame6XBukK0QMGBZEAY
B5bB3l3RQL/CTL8anKTBTPVNQF9DakDbBJXBnQv6QB27bUBqyZzBAQ3sQG9to78AP5TBDdDaQAdl
NEGDDrbBvuzwQO4kKEGESqrBasSjQB1HLkHYxKfBQ/6XQPD1H0Fu4LPB/szYQN6xEUEQRb/BpO0G
QQSGFkGbS7rB6YDBQESCDUG3o5/BvNKLQJ/DCEGvMqTBnP70QDyi4UCbJrfBSHIAQfuh/UBF9arB
ENLeQEzHsj6NdbnBMyimQLtKMj5cbbvBS06gQJVKyL/+r67BM+jVQCF9779fQ7PBCYzyQKCJhT9K
eaPB/lvCQPOncD/XrpvBe6KnQNWi70AesbTBta2VQBsVnD9UuKrB1/MQQCgrOsChJ5DBqNdHQIEl
j8BbfY7B7gxpQFkXQsAI+obBfbefQKTcZEBY9YXB1A7UQC3WOECPMIjBoe3LQFBBlUDm4IjBDmzI
QCArWsCW9qXBGi3yQGl2ccCZhpzBfUTpQG82JUD7gLHBh+a2QNrxM0DsLbjBd5vSQIRKy0CEo6DB
rauaQJtCxkANs6PBRLnmQEMho0D/bLDB6fqwQLOEpEDmgrXBphN0QM0UVsBDZJ/BdqSKQEfC87/w
4JfBPwivQMcEmMDzIZbBD7e9QKeIWMDKkI3BL+xpQDvmaUBjiKrB7NJOQGMkaEArBo3BjyUWQCd0
bUD06ZjBrO3SQA+qaUCV8J3BC7KKQPnsakC1aJrBrg7eQK0k179Mw5zB61vPQPZ9JEHkqrTBfJ/u
QBdhEkEolLfBBwe/QCcrIkG3HKnBZcTZQGLF+EB97bXBVq+qQEsnDEHXVqfBcj++QFe9QD5gWLXB
y77AQHmlj7/4PK/BepzSQNC6LT+yT6PBIjPKQNoC9EDrNarBw5W3QMjUmz+skKzBKi27QPCFcECB
jqjBUM5aQDY+WMCn0YvBhze9QLXlZ0DnforBAhnSQAd2SsAA/Z3B9MzFQL0nJ0BJb7DBT/myQOyV
yUATBqjB5VLHQBUjo0CE0q3BvhudQDknVsD4m47BEuqiQE6rWMAv15rBdsGNQDXObUAGg6XBS/ez
QH87bkCu/JXBiPrSQCBgRr9ytaTBclBNQMJOaED0F5XBI9r5QPXAaEDFsZzB1HzsQLJLo7+xO5TB
4OLfQPTxM0E+fLXB9+mzQLv7I0ECLLrBBA74QP0KFEEbBMDB1ZUFQYGUE0Exd7LBpA7aQAcfJEFs
j6PB0PymQL6iLkH4iqfBj0i+QJyO9UDrXbvBcVDxQEiS30AFsLfB7XahQKedCkGg4Z7BfguOQLe+
CkEXaKzB6hzcQNL6wj6hvbnBwS+jQFOaPT4K+brBgaqgQOicx7/VS67BOprVQH736r8/cbPBA1bz
QFhXij9AtaPBMhzEQGx2cj/1lZvBrxzmQEo19kCU4KTBG6uVQGyMnz/ZOKrBWf1SQEhuVsCIE4PB
j8k6QIh3IMD+ZY/B+xU+QLSqicD0+o7B8DyfQCtybUCy74XBJEPMQEy7KUBRyojBwBfTQPnhjUDV
JojBFcnWQG/+XcB1XKbBFr/mQH5GccCYxJjBXaboQA33JUA5qrHBXb61QMmWNEBpFbjB9qqzQItk
w0DcXJ/BWJWRQDa0zECUsqrBBFfqQMClpkBcoa3BL0m8QAnmokCjLbbBGGyrQO8PG8Bab4vBThKt
QOj2hsBRBIvByDiPQIsWJsA7ep7Bvm+YQIC5i8D51p3BqhlqQMv+bUCkmKrBqeNNQJCQaEANGI3B
86QVQKUMZkC0B5nBT6fSQHMIaUC1sJ3BJV+KQF5BaUAOMprBWn7bQK5u0b9o0JzB8ZDSQN3VH0HT
e7fB/i75QF0LFkEwlbHBacyoQHYFHUGCC7HBxsfwQAf6/EC2yq7B6O6gQFNMBUHdWK7BCNO+QNiV
iD4Zp7XBIaDAQPK9h78bmq/BwprUQAdjOT/KyKPBVXTHQNkd+UD1DajBfLG4QGwtpT/3yazBu+i6
QJZVdUAaPKjBTmF0QKwpDsDl65PBvZm8QHI1X0BeS4rBhgrSQEJOScCUFZ7BALbFQJ4DLkDmfLDB
g6a/QBkzy0BmKKTBsMvEQIKyp0Ai26zBD4KKQADPasAVXJTBU/C7QJddccD9IpTBu5mNQKqOcEBR
PqXBMJSzQGh/akBLu5XBeh7SQH5pO7/b9KTBQGZMQO7KZEBt9ZTBdJX5QOG3Z0Dfc5zBYvzrQDgi
nb+gh5TB0WjYQNIDMUGpt7jBvPvOQJXjF0HQSL/BoswKQdkTF0E6wLbB+ez+QJMQH0H+KarBXiyr
QKM0JkHJj6nBl8yNQCURI0FZ0LXB3B3tQN5t6kD+NrbB8voFQQFW8EDCLarBxsqDQJbRA0GBd6nB
PgWdQPY9+EDKyrXBTMvcQMDD5T5aCLrB2cWjQASGkT4WSLvBLGWgQKANv7+x2a7Bj6jVQB3c4r+5
xLPB8931QMiiiD8rpqTB4y3IQAJahD/K7pvBo4zLQNmzBkHB76DB9wGXQAxApj+EPKrB6/4tQEL4
DcAGG5TBl1eFQEVV378Df4zB8oyGQMDw1L8/2ZrBR42eQOoaY0CrvIXBhXjLQOFCIEDc/IjBkY3S
QNPliED+lYfBC/y8QDcVUsDfDKXBwHfwQNHvasAAd5/Bk3DoQCewLkCj67HBicu0QHtgPEBP/rfB
GojWQAt2xECyr53BFdSeQHRqyUB4AqHBG+HlQJIjqED626/Bf5muQOdTrkBUe7PBDkF7QFzehsBT
bo3Bw6t9QDtFhMCPyJvBjMnEQCe2msAguJPB/qfHQCEtUMA384zBmelpQL9HckCJV6rBq5JMQPXa
YUCX94zBz+sUQItRZEBk8pjBnhDSQAWuZkCUhp3BAXOJQBt/bUCBpZrBzqbeQFhf2L8ha5zBuFzJ
QNi8JEFUsLTBK4fiQN+FEkECEbrBf9bJQBg7IkE3dajB8y7QQI83+UBQ67bBcc63QCdjDEGpJaXB
5zW5QDZECz4Kp7TBHHq5QP+dk78fI67BES3SQAZuJj/BF6PByznQQIOw80DZm6rBT/21QB1mmj85
DazBLvy7QI8ucEAfWajBx3RKQIYVaMCthZvBqEm5QJFwYkDVTorBdnzJQN/lQ8AFP5vBL1DFQKBI
JUDfLLDBSJ66QBrXyUAxFqfBagPKQAqYokCHja3BYFKFQFMygMDOq5LB10KpQDn8PcAY3pHBsDeO
QGP2cUDQsKXBRwuyQFQJbUBN15XBaCjQQIAdTr9dLaTBwiFJQHXsa0DaspXBoKz4QJXZYEBs7pvB
xlPzQAaEoL9L2JTBjArYQIElNEFH1rbBRg2oQPtiJEEkh7fB8Y7gQGJgFEG7zcLB7hkCQR5jE0Fn
irfByffqQFSgI0FTkaXB+DS2QKfxLkEJ3KTBsyWvQNKs9kDK47nButjjQJDe30CIirrBzKW6QC6r
CkEDa5zBsuCVQNuQC0FadKfBwt/WQBbKeT6NT7nBcIWdQJTfLz4NFLrBdpuYQHWgvb89ZqzB+ofK
QJiQ+b8RdbLBMFLzQCZAgD+DBKTBHdfFQBkYdj9gPJvBEojxQJ7B80DPwqfBpLmUQJazpD8jP6nB
9ZoXQDNUjMCI75vB8g0uQNVYKcAJspnBPONrQLTeZMCWQaPBhdqaQESNakAVAYbBGxjGQDQQIkBj
v4jBgFrQQHthiUBLiIfB+5m4QK7EVMCUrKLB+9rhQHa9dMD4f5nBkBHoQOYLIkBwgrHBQg+1QN2y
MkB5zLfBd8zBQP1jxECElJ7BGNaXQGkqzUAxJ6jBNijtQIJIo0D0BK7B14C8QJ5bpEC6qrXBSslo
QATfgcCM94rBSk+TQPShn8Aah5TB1KG6QKYxSMAmUorBxeqaQChk+7+Y3ZHBHJZsQHrHdUBq+6rB
4ChHQIozakCRtI3BU7gSQJtxbED26JnB+aTQQIrVaUDKz57BfnCIQGVWaUAg85rB9bHfQGeA0L/5
MZvB6kjjQOVBJkFXKq7BW8CyQGjkIUEotK7Bbff8QNPRE0GgSbPBprqnQKNlDEGaW6nBr+TxQCVc
/ED3Dq7B0eaxQFgDijw5e7PB+yK0QLPpmr/1OKzBlTzUQI/YKD97NqPBgP/AQIef80Bbk67B/MCz
QJSzlD/7f6vBQRS4QJgjb0DTX6nBvxkjQXCzkMCWcKXBZAi8QMRvWkAIVIvBac3XQMk/ScCgppvB
S4jAQKypIEBWxbDBOH+1QF+zyUBfxKjB8WbDQOm5oUBjRa/BSVwTQV6/bsCGb57BjMz4QIg3dsBf
76LBbNqKQJaab0C4DKbBGRSyQAYFakDUrZbB8pnPQJQ4TL+AKaPB7BRJQKj7ZEByjZXBdqP3QCCB
ZkDyvZ3BVHL2QFk6lb8BGZTBMlvqQPMxNUFbeLLBFN/sQHjsJ0E3vaXBHqChQLDULkGxjKrBI7Co
QEZoIUEKIrfBoGD1QDsIE0Ei37vBOq0PQb71FkGnQLLB/+evQARBDUEuz6DBOz6FQJxXCUE5ParB
X3UBQT6p4kCZTrLBZBX8QGrn/EDqoqXBRDjNQCA/SD1jBrnBGt6TQN6SED1+EbjB1wSUQIJBvr/g
YKnBv2/CQLbyA8AAf7DB3+30QBGzcT98jKXBq//MQA1xiT+OQ5vBYGm3QBvy8EA4BLfBcVOUQIpe
oz/jpKfB5VgzQX27jcBgI6LBpGUeQfedssArkKXBDdMiQa3kg8Csoq3BEXSeQM0TXkBllIbBsk7K
QNd6GkBTcIrBB8nSQOeNhUDJfIjB9U3aQN7BY8DIhZPBEXm3QDkHVcAJzp7BDtjiQNCfHkAIuLLB
+uStQKeuKEAeK7jBj7nFQJwryUCM9aDBGaeSQByRyEA8jafBCjfmQBv2okAQibDBAQCzQGMfokCB
DrfBBbYTQQc5hMCoPpbBbiMYQXn/KsApUZ7BDVTwQPIrncCHmKPBXdH3QEOHWMAW6arB1I9jQEbF
c0BN/qrB6VFKQK+0YUCEkI3BQxIRQDnwZEBUbJnBdwHUQC9SaUD9Vp7Be2aLQIHFakBUApvBXg3a
QAC8178eV5vBet/VQMUcKEH/Oq7BENmpQC+vIEHdZLLBJ4v4QEABF0HpSbDB1xidQJ4uC0GOTq3B
w/PrQDhVAUEBUqvBZFm1QIwGqT2kE7TBBnO0QJMrlr+9Hq3BU4/TQPykIj/VIaPBo46/QIbN80CI
da/B9hu2QGE5mT/706vB9si8QPp8cEC5FqnBxAoWQafNDMDoSqjBNd68QAUUVkALFYvBPTnTQBDW
TMBRgpzB88XFQL3WIkDvk7DB0+2xQJbfyUCy9qnBfU/JQMajokABza7BhSALQSiyZcD4k6jBg8L9
QF+TfcD2K57BGSuPQC/qcECmFKbBp320QLMyaUD2bpbBkdjLQCXuTr8pPaPB7qhNQKn1Z0AY45XB
OLr6QOsTYkCf+5zBNW3wQDwwor8s/pPBz/LeQEL8NkE4WrLBhqLTQNkaK0Ggk6XBkaaRQBDOLEFW
XbDBAGerQI7LHkFwIrvBMqX8QAn6FEFA+LjBEXILQbJiHEG3u6zB4YaZQMNVDUFhnqTBUe18QDjh
BUF4vLDB5Q8CQX+T6kA2eq3BDKzqQNL9AkG6kKLBvCDSQBUw3D3XI7nBDKmYQDRsFj5NJrnBsUaT
QPlkur9hPavBF3rEQEaDAMB+N7HBHj71QEW2Wj8o/qTBombLQMbdhz+nR5vB667BQIVQ7kCeIrjB
J8yVQIG/qj9qg6jBrkgeQbY8AcC37q/Bjt0JQRgAtr9dBafByrshQUL7CsABuKHBGs2eQCI6WkAn
iYbBVxzKQLAbFUCgW4rBfPXTQDxPgkCa4IfBqazDQJ4OZcDBN5XB81m+QAaWWMDycKPBg3joQP+b
HkBC9rHBnE+1QNOoLUDYPLjBzpO5QN7zy0C/Y6HB0TiPQG6exUCN+arBEQrsQMtqp0BZAa7BkOTA
QNkUoEBOUrfBllr/QJBdZsC1Qq/Bh4sXQWMsi8BZ9anBM14JQQPYb8AHUZfBZZ/2QC0+ocBdap7B
F19tQOL9dED0NKvB6eRMQMFLZECZ5o3BSJ8WQFt6aUAs95nBFJbSQOL3aUCQLJ/BW+OKQHx9ZkBL
zJrBOg7kQGO1zb9VCpzBuJrfQGLGJkFUG67BcjGvQNP6IUFtUK7BKlT5QA6rFEHOgLPB6JClQJ1J
DEF//qjBY6XvQP2q/UBETa7BfLa1QMQ8ET10UrTB1/G6QO/Cm7+QdK3Byj3UQNprLj9ChaPB1N6+
QC4O9ECCe67B+si0QEVZlD8mIKzBJL64QK4ub0B5jKnBk24yQeoVZcDr+5PBEWfAQDWeWECrkYvB
HobvQOQiRcCGVZ7BgSbBQNDZIUCdIrHBU860QOKyyUDFsajBk5vCQKk8okBPZ6/BlrEaQQWjTMDt
j5PBJEwQQeqlUsCr0J7BIPOLQDyAbUBK56XBzfy0QAeSaEBa05bBBj7UQDRtSL8CGKTBPllPQAN/
YEBzJpXBFLf5QAllaEDAYp7BVb/tQHmujr9xYpPBrKLlQHLaNUFGY7LBNhzqQDJfKEHyvqXBbBme
QCuvLkGm+anBiCukQOOOIUE8q7bBq8TwQKH4E0EmCLzBK9oNQaIZGEH/s7LB+7SuQNMPDUE+gaDB
EhuDQDzwCEGto6nBfU8AQT5x5EBdvLLBdM/6QJQV/kDy9KXB7tjQQIcyHT722LnBhrKXQC8PJDoc
6bjByoabQNmLzL9u6qrB4wvMQAf//7/76rHB+nv0QHtriT9nI6XB1anJQFPrgT8kkJvBEFm0QGOD
8UAh27bBBIqUQOvynT/upajBbWI5QQFIYMAQ7IvBogc0QYiUk8D/6ZbBSOs6QfJdOcDza5nBs12j
QFjrWkBamobBhVPPQPodGUAG2orB7Q3XQPvyhEAZ2IjBADPiQK+EbcAO8ZfBW3nhQMDlV8DrDabB
FmvjQPiJIEDlI7PBFk+uQLj4KkD/erjBm/vFQMEmyUC3A6HBkiaSQMPmx0AdOKfBCzrlQBYlpEA0
7LDBs0axQBStokDpD7fBAFISQaZqeMCbFo7BpTUZQYmfCsCQmJDBNZkTQWonicDPMKLBDlkXQThA
IcAVAKTBlo5kQGDecEA7qarBFHxSQFfcXEA4LI3BknsWQAWPX0Ci0ZjBCbXWQOLxckCsQp7BOjWP
QMivYEA0U5rBsvXRQPLX178CPZzBPareQDXKJUGkYrHB+sKzQNGvI0FjYqvBlcDjQCLCE0EUq7nB
BhqwQOu6DUGt4KXB4q7gQMlt+0AcTrTBgoXBQLT1Yz40nLXBmh+8QFKaib9YWK/Bst/QQJQ8MD9A
SaPBNCe2QGpF9kAF9a3Bh0S6QK1hoz+yEq3B6ZO9QCTxc0AEyajBgTAQQXT3f8B2+6bBOmvDQHwj
YUCGuYrBdBXIQPS/S8DSCJ7BoEbLQMl/KkCTfrDBtyG1QF/Hy0AQpqfBIOfCQEMgpUAina7BVq8L
QRM8dsAy6prBKbPnQHlVg8BJApjBt8+QQEquaUAdZaXBdXi4QC7HbEATF5bBwkvLQLO0Q798ZqTB
KzZYQHoXUUBK7pTB4Ir9QDDfekD4NZ3Bck/eQPdYpr9TcZPBtKffQDVTNUGBg7XB3hb5QCviJEHa
lqvBaKyxQAFYMEG6SqXBp1KZQC99JUGoH7HB/kzKQHcwFUF5tL/BwZIBQblIFUEOk73BBdjIQESK
DEGMpZ/Bq0SQQLNZDEGaL6LBNEDiQF+F4kDIgrrBosD7QFCd90Dlwq7Bl9fhQEH0mT4iCrnBzaCp
QAb4mj5dCrzB+VCaQPjAsL9VNK/BMYjPQLo/8L8T6rLB5gfzQIBGdD9NTaPBCffBQOFChj+52pvB
/VCbQBaa9kClprPBKM6XQKySrT/iZavBYDshQeulc8DJjKjBVSYMQYiwoMBUiKnBLWUGQWLSUcCs
eavBzuOlQOc3XkDl8oXBrXTVQIk1JUDvuonBSBrXQFeli0D9AIjB9HOnQIwYWcDYL5vBZCPKQP2l
WcBdpabBuHDuQM/nJ0CUuLDBB/i+QNX/OECPibjBcQjLQOlazkAoyqDBH12UQABHxkBavqTBicLk
QPISqUBJz7DBCTGvQAGtpEBf57XBa64VQR0qksC4hpbBRO0PQYvFNMAQeJjBwp3jQFNAfMCqXY/B
/+/fQGLDpMA695nBr/JuQB08aUDtR6rBWi5aQIa7TEAE9IzBe6sgQO+MSUDMypjB

>  <OMEGA_E>  (2) 
jMiHPhRojT7ouqg+SBmuPowTAz9CZgM/rJ0DPyxwCj8=

>  <OMEGA_NBR>  (2) 
      8787

$$$$
50253358
     RDKit          3D

 70 72  0  0  1  0  0  0  0  0999 V2000
    6.6295    3.6893  -19.7213 C   0  0  0  0  0  0  0  0  0  0  0  0
    4.3779    3.6705  -19.2621 C   0  0  0  0  0  0  0  0  0  0  0  0
    6.7445   -1.6019  -19.3638 C   0  0  0  0  0  0  0  0  0  0  0  0
    6.7915   10.3974  -22.1619 C   0  0  0  0  0  0  0  0  0  0  0  0
    5.3811   10.0929  -21.6229 C   0  0  0  0  0  0  0  0  0  0  0  0
    7.3311    9.2330  -23.0131 C   0  0  0  0  0  0  0  0  0  0  0  0
    5.5330   -1.0007  -22.7452 C   0  0  0  0  0  0  0  0  0  0  0  0
    5.3770    8.7865  -20.8202 C   0  0  0  0  0  0  0  0  0  0  0  0
    7.3129    7.9161  -22.2244 C   0  0  0  0  0  0  0  0  0  0  0  0
    5.8043    0.4752  -22.9682 C   0  0  0  0  0  0  0  0  0  0  0  0
    6.6344   -1.5555  -21.8574 C   0  0  0  0  0  0  0  0  0  0  0  0
    6.7404    0.6098  -20.5664 C   0  0  0  0  0  0  0  0  0  0  0  0
    5.8864    7.6241  -21.6903 C   0  0  0  0  0  0  0  0  0  0  0  0
    5.7986    1.2530  -21.6345 C   0  0  1  0  0  0  0  0  0  0  0  0
    5.8736    3.7935  -21.0322 C   0  0  2  0  0  0  0  0  0  0  0  0
    4.0905   -3.6625  -17.2342 C   0  0  0  0  0  0  0  0  0  0  0  0
    5.9677    3.5929  -17.2932 C   0  0  0  0  0  0  0  0  0  0  0  0
    6.3581   -3.0996  -19.2963 C   0  0  0  0  0  0  0  0  0  0  0  0
    6.2382    2.6820  -22.0253 C   0  0  0  0  0  0  0  0  0  0  0  0
    5.8517    6.3468  -20.8484 C   0  0  0  0  0  0  0  0  0  0  0  0
    6.1705    5.1302  -21.7300 C   0  0  0  0  0  0  0  0  0  0  0  0
    3.8781   -2.8813  -18.5431 C   0  0  0  0  0  0  0  0  0  0  0  0
    4.8560   -3.3419  -19.6430 C   0  0  0  0  0  0  0  0  0  0  0  0
    4.4619    3.7133  -20.6477 N   0  0  0  0  0  0  0  0  0  0  0  0
    5.6697    3.7648  -18.7191 N   0  0  0  0  0  0  0  0  0  0  0  0
    6.6016   -0.8673  -20.5509 N   0  0  0  0  0  0  0  0  0  0  0  0
    3.2573    3.5846  -18.5930 N   0  0  0  0  0  0  0  0  0  0  0  0
    7.8463    3.6279  -19.5844 O   0  0  0  0  0  0  0  0  0  0  0  0
    7.2729   -1.0897  -18.3829 O   0  0  0  0  0  0  0  0  0  0  0  0
    6.7494   11.3048  -22.7823 H   0  0  0  0  0  0  0  0  0  0  0  0
    7.4707   10.5649  -21.3130 H   0  0  0  0  0  0  0  0  0  0  0  0
    5.0580   10.9180  -20.9711 H   0  0  0  0  0  0  0  0  0  0  0  0
    4.6840    9.9991  -22.4686 H   0  0  0  0  0  0  0  0  0  0  0  0
    6.7039    9.1232  -23.9100 H   0  0  0  0  0  0  0  0  0  0  0  0
    8.3651    9.4572  -23.3139 H   0  0  0  0  0  0  0  0  0  0  0  0
    4.5574   -1.1301  -22.2536 H   0  0  0  0  0  0  0  0  0  0  0  0
    5.5304   -1.5290  -23.7100 H   0  0  0  0  0  0  0  0  0  0  0  0
    6.0315    8.8974  -19.9431 H   0  0  0  0  0  0  0  0  0  0  0  0
    4.3515    8.5684  -20.4873 H   0  0  0  0  0  0  0  0  0  0  0  0
    7.6279    7.0943  -22.8844 H   0  0  0  0  0  0  0  0  0  0  0  0
    8.0089    7.9923  -21.3760 H   0  0  0  0  0  0  0  0  0  0  0  0
    6.7881    0.5907  -23.4464 H   0  0  0  0  0  0  0  0  0  0  0  0
    5.0257    0.8873  -23.6269 H   0  0  0  0  0  0  0  0  0  0  0  0
    6.4780   -2.6341  -21.7085 H   0  0  0  0  0  0  0  0  0  0  0  0
    7.6108   -1.3891  -22.3359 H   0  0  0  0  0  0  0  0  0  0  0  0
    7.7826    0.8701  -20.8032 H   0  0  0  0  0  0  0  0  0  0  0  0
    6.4802    1.0053  -19.5735 H   0  0  0  0  0  0  0  0  0  0  0  0
    5.2092    7.5022  -22.5484 H   0  0  0  0  0  0  0  0  0  0  0  0
    4.7735    1.2847  -21.2368 H   0  0  0  0  0  0  0  0  0  0  0  0
    3.3776   -3.3079  -16.4752 H   0  0  0  0  0  0  0  0  0  0  0  0
    3.9280   -4.7350  -17.4170 H   0  0  0  0  0  0  0  0  0  0  0  0
    5.1178   -3.5033  -16.8749 H   0  0  0  0  0  0  0  0  0  0  0  0
    5.0416    3.6986  -16.7092 H   0  0  0  0  0  0  0  0  0  0  0  0
    6.3945    2.5930  -17.1259 H   0  0  0  0  0  0  0  0  0  0  0  0
    6.6910    4.3582  -16.9750 H   0  0  0  0  0  0  0  0  0  0  0  0
    6.9803   -3.6576  -20.0116 H   0  0  0  0  0  0  0  0  0  0  0  0
    6.5498   -3.4685  -18.2779 H   0  0  0  0  0  0  0  0  0  0  0  0
    7.3323    2.6781  -22.1392 H   0  0  0  0  0  0  0  0  0  0  0  0
    5.7700    2.9260  -22.9903 H   0  0  0  0  0  0  0  0  0  0  0  0
    6.5983    6.4198  -20.0439 H   0  0  0  0  0  0  0  0  0  0  0  0
    4.8502    6.2266  -20.4094 H   0  0  0  0  0  0  0  0  0  0  0  0
    7.2377    5.1585  -21.9951 H   0  0  0  0  0  0  0  0  0  0  0  0
    5.5635    5.1910  -22.6453 H   0  0  0  0  0  0  0  0  0  0  0  0
    2.8473   -3.0419  -18.8917 H   0  0  0  0  0  0  0  0  0  0  0  0
    4.0371   -1.8102  -18.3496 H   0  0  0  0  0  0  0  0  0  0  0  0
    4.6211   -2.7933  -20.5670 H   0  0  0  0  0  0  0  0  0  0  0  0
    4.7083   -4.4193  -19.8085 H   0  0  0  0  0  0  0  0  0  0  0  0
    3.6866    3.6929  -21.2790 H   0  0  0  0  0  0  0  0  0  0  0  0
    3.2708    3.5820  -17.5931 H   0  0  0  0  0  0  0  0  0  0  0  0
    2.3869    3.5214  -19.0814 H   0  0  0  0  0  0  0  0  0  0  0  0
  1 15  1  0
  1 25  1  0
  1 28  2  0
  2 24  1  0
  2 25  1  0
  2 27  2  0
  3 18  1  0
  3 26  1  0
  3 29  2  0
  4  5  1  0
  4  6  1  0
  5  8  1  0
  6  9  1  0
  7 10  1  0
  7 11  1  0
  8 13  1  0
  9 13  1  0
 10 14  1  0
 11 26  1  0
 12 14  1  0
 12 26  1  0
 13 20  1  0
 14 19  1  0
 15 19  1  6
 15 21  1  0
 15 24  1  0
 16 22  1  0
 17 25  1  0
 18 23  1  0
 20 21  1  0
 22 23  1  0
  4 30  1  0
  4 31  1  0
  5 32  1  0
  5 33  1  0
  6 34  1  0
  6 35  1  0
  7 36  1  0
  7 37  1  0
  8 38  1  0
  8 39  1  0
  9 40  1  0
  9 41  1  0
 10 42  1  0
 10 43  1  0
 11 44  1  0
 11 45  1  0
 12 46  1  0
 12 47  1  0
 13 48  1  0
 14 49  1  1
 16 50  1  0
 16 51  1  0
 16 52  1  0
 17 53  1  0
 17 54  1  0
 17 55  1  0
 18 56  1  0
 18 57  1  0
 19 58  1  0
 19 59  1  0
 20 60  1  0
 20 61  1  0
 21 62  1  0
 21 63  1  0
 22 64  1  0
 22 65  1  0
 23 66  1  0
 23 67  1  0
 24 68  1  0
 27 69  1  0
 27 70  1  0
M  CHG  1  27   1
M  END
>  <OMEGA_C>  (3) 
nyTUQPAcbEBDxZ3ByBeMQLzoakDPGJrB19LXQCYKzb//6JrBAlTZQNxbJkGMS7HBUjKsQIl8IUGe
+6zBPJjqQIi6E0HEGrjBBg6xQFIWgL8V9rXBARCsQJ6VDEHBj6bBQgPqQNtQ/UCqy7HBdry5QE5O
8z7RvrfBEk3UQBAax7/d267BRrHXQFsaHD/qh6TBs128QGj480Cjha3BBo65QMpjoD+CE63BavS7
QOLIckDfQajBCuWCQJ5masCm34nBwve+QHHyZUB1WIrBxnXLQP1fRsDpXprBlZ/HQK+lK0DbM7DB
w0C7QNMYy0B+yabBenTFQEQqpED31q3BZDN4QE9nOMBPWJTBRGSbQEvhVcDIJJ3B4ceOQD6nbUBo
LqXBk261QCTzcECywJXBi0DTQJIHXr9XaKTB6nZQQGVpZUCNvpTBJRX7QE0vaEDBrJzBj7voQBx8
i79FEJPBrfrXQGfgNEEsQrbBuQ/vQPgJKUHygKrB0dqhQAqwLkHKxKfBpOOVQED8H0Gnv7PBP4bW
QHf4EUHCR7/Bj9cFQbVQF0HjgrrBodaRQCGokL9lB7LB5/iwQGm3w7/9rb3BsgHBQI9bDkFoi5/B
bD+LQAwYCUHv5aPBXRf0QOIE40AtE7fBSSQAQUPB/0AWAqvBGTjZQMs1Fz9GkrvBg9KgQBMpYz/+
A73BEEzPQOCUKMD8qq3Bu4vzQGXPsb/cr7LB4Ar5QMi+Xj/lbKbB013PQBmtgD9tlpzBgrGmQCES
8EArY7TBmMCYQJxwpD/j5KnBjCpYQAe1U8AzzYPBP2R7QAeFl8DxVYvBaMWjQC82YMC4/4bBvFSh
QM+1bEBjrIXBrJ/MQE3zJUDQAYnB6xzWQEV2i0DczIfBjF7fQFIWasCvF6DBlZfRQPr7XcAsOZLB
S6LqQEFmK0AdHbHBvqO4QDBEO0Aj7LfBbCXTQF9vzUD1WaDBNTWbQB9Ax0BnRqPB3JrnQLISpUAE
9q/B/geyQEccpkCaKbXBWjk2QC6uQsAlIpfB9S+BQJ+057/ry5LBqd+TQCbFMsA3iaTBPaqWQJpq
jcDod57BBvJrQNdXbEBZO6rBcFVRQDdAZUC/vozBRMMYQKJeYUDDppjBK2vSQB2HaUCyUJ3BEdWJ
QJHLakB0WJrBmtbcQHFYzr9L/5rByL7PQM1HJEEDFLXBhl/vQGpEEkEt07fBwJfBQOvVIkF3UanB
EDfDQM0rib93ObbB5lDbQBqY+EBho7XBdbOtQIjzDEGA6abBydy/QMS54z5S27fBt+auQH3PvL/G
qavBpVXQQKvQGz/ApqPBhZXMQH8S9UBzzKnBPtO4QIFfoD+gW63BXRK8QOOdckA4B6jBSq5CQLvY
WMBYJo/BaWq6QGllYkAJHYrB8L/WQB0NScC7r5nB35bIQBqcK0Da+K/B3gq1QHbyykCeUafBLxfJ
QBxjpEC5D63BUDiFQN7MRMDLGpfBdM+wQOLRXcCXOpLBR0mOQKyBb0BUaKXB4oyyQC14bUCrmZXB
gHfIQBPRWr9kBaPBT21KQEDdZkDiS5XBDCX5QIpXZUAb05vBkZbxQIKOhL8AEJTBRVHfQFLTM0FQ
crbBlXKzQPrlIkEiRLrB0wL4QLtcE0GXVsDBfygGQQ0UFEEu5rLBhpvdQKA1JUHBH6TBVs+pQHZn
L0H2tKfBSZuyQHzSyr9Bz7zBtyXlQI2drr/0MbbBFn6/QB8x9EA96rrBah/zQAGE30DBSLfB2g+m
QMUMDEFrVZ7BwyaQQGgwC0GznKvBva3dQIx2Sz9zmrvBAsekQNjwJD/tPr3BWq+NQH+Pjr+bTqvB
CUivQNt7JMAf1KrBde3yQL1/SD+afKTBhNHEQJhWij8sPpzBQ/ToQINI90BqnqTBglaWQEvvpD+E
nqvBlasEQJ7nRsApqZLBIMtCQAjdjsDJVI3BggZNQI9SNMAcvYfBmQ6cQAZiaEANuYXB5jfIQMKs
IkAGq4jB2+HQQETpiUClVYfB7qzQQFeCZcBEl6HBESH0QOeiZMCyR5bBCr3rQM62KUCrYbDBz5u7
QIQ+PUBo2bfB6TC2QCJExUCRo57BFIWTQM8LzkCD46nByiHsQEtfp0AxsKzBMba+QK6upEBJeLXB
IwCAQExSacCPg57B1B2FQJXV/7/h65jBlbqwQDGCkcD7m5DB0Re1QKKoOsA7rorBA5FsQBiYcEBJ
sqrB7TJJQKOAZUC5TI3B4KwTQK04ZUAOb5nBAnXSQO0La0AFXZ3B6emJQOJ+akD9LprBPrbYQLTs
2L8OrJrBEfvcQG3vJUEVkLHB5uavQO+qIUFNEK3BwsTsQCkJE0HpaLjBF0jIQPkPf7/pDbfBx/Ku
QHPADEGSoqbBgqzrQD0P/EDNBrLBvMO7QMpF8D4P/bfBCry2QFLLzL+v1KzBVHrUQMZ5Bj8INaTB
Hxa+QDWy80AEkq3BETW5QNTpmz8+GK3BC2O7QL2ycUAR/qfB+LJNQOoMNMCW6JXB5SS7QBZia0Af
FIrBmffJQLqCSsBSoZjBqAvIQF8iKkBLya/B6Wi8QBb0ykAlt6bB4LbFQK56o0Cipq3BIaSCQKMn
dMCOoo/BNNiwQPhVU8Dc/o3Bg9yNQPIcbUB9PqXB/tGyQJ2YZECtmJXB7v/KQBtjcL8LiaPBHOxK
QDHBbEBwC5XBLEn5QKrXbEBy+pvBsr7vQFoPlr/u6ZPBmRLcQCBwNEEci7bB5UrzQFxdKEGh3arB
lKSmQKUAL0G3zqfBABaZQAx9IEEfvbPBHAfYQJ9yEUG2eb/BeOgGQdUwFkEv/7rB41O7QDMPxr+s
8r3BpWLrQJrrib9yBLfBhS7EQKtMDkHAqJ/B2guOQNaxCUEV6KPBz+v0QG1x4UAGTbfBPDABQes1
/kC1UqvBoqPTQHf4eT8TBr3BuTGcQE2SBj+s2rvBPOOTQI6Rub/qgqzBQNy9QNlSK8BipazBTp72
QC1kKT8jDabB2yvNQJETfj/Yc5zBc/OnQIAD8EC0WbTBZJ2XQDvbnz8weqrBeMgMQIcxTsCU3ZbB
GXlKQC1g7r8SgZHBxidqQNv2KMBh1p3Bb++cQNUZZEB4p4XBapTRQELFOEBuo4fBGyzJQJwvlUD6
TYjBzj21QBjoXsA5RZ/B5F3mQPUDdMB5SpjBlzHrQD1RKUCrQLDBALi6QOKtOkAPqrfByX/UQCIk
zUCAUqDB/2KcQMbZx0AxJaPBV93nQF+do0CiyK/B2kuyQMWSpUDa+LTBY/JnQKcQf8CjwIfBiNCD
QLVrmMDyFZTBVPLBQDBKgMBTyIjBy3WvQNs9FMBzG4rBp0ZrQJYLbEBLeKrBkiZKQO4yakA4DY3B
evcTQIAJcUATHJnBOvTUQOWCb0CVCJ3BVg+MQKCtaECMg5rBstyhQHPhsb+PEZnBOh7aQGdeJkEO
abHBvhOtQFWyIUFG/qzBXjLqQMrHE0GQabjBdlvLQG9YkL/fprTBKKesQEClDEHpqabBGszpQII5
/UD6KrLBPGjLQEG7wD4HDrfBVG+nQIJfvL/U1qzBrDLFQL5jDD98qqLBIny8QEPe80CFqa3B7GW7
QPspnz+5i63BEmW/QOGncUCJ6qfBNScGQfdzIsCkm5zBYs+6QHkZcEC+8onBok7AQCsctr+jZ4/B
mvfPQNnBKEASLK/BAOe7QML7ykDy16bBQijIQEOyo0APpK3BainoQN+JW8BfOJjBZkXTQAZJNsD2
743BnpuRQLVhaUAFi6XBklW0QB+naEAQiZXBlDWvQOA0R79jkqLBo75NQMz8ZkA6t5XBNIP7QHzk
c0DDTZvBQlCFQJ3qDsD1ZpnBDgLZQJsMNUGiQbbBsFLwQBilKEF/rarBGlGjQGzcLkHFr6fBjm6W
QGd5IEHhs7PBX0/VQF5AEkFQdL/BuYsFQYg3F0H8B7vBkIvGQEij17/5JLzBM0bqQD6CtL+CGrHB
yLfBQO46DkF4qJ/Bf8yLQEpMCUEe/KPBFk7zQMsI40Cqi7fBIVEAQYRa/0AMfqvBK0vsQEaLLj8P
BrnBVXm2QKVYDz+/+b3B1paIQIuikr9iLrDBVrymQHfAI8Daf6vBbO3nQG4g0D4syqHBbDq5QGOb
lT8+C5zBI0mmQBfL70BEarTB/nyYQD4CrT/GRK7Bmu0MQR3UP8A32qPB0V//QCHTxb9nlZ7B4cAS
QbTSG8AphZbBuvqbQN89aEAm0YXBjSfRQPIkPkDHQYfBHirIQBbAl0DKFIjB5IjaQDEuNb8/uJDB
1YeuQGYfkr9vJojByI7yQHc6IkC5wq3BQGLKQLflO0BchrfBaOvSQEBjzkCAPaDBOJSbQAFRxkB5
j6PB5XzqQOOOpUAsh6/BW4W1QKR4pECSGrXBZ1nPQBoLYsCtaJ7BWHv1QB96jcBvWJbBAMfrQI+T
M8AeoYfBZFK5QHNzYcBscIvBbG50QDD4ZEBd+arB9b5KQDh/ZUAIuo3B9OEXQHkvZ0BbCZrBt1HT
QLY5cEDFiJ7ByMmLQPJIakA1TJrBapLZQBRpXr9S0pbBaSfbQH+yJkHEz7DBIT+vQHCAIkGboKvB
38nnQCNlFEGxbLjB9dOwQATen79WIbHB6QOvQErxDEE3wKXB0EfnQKp1/UCwnbLBLWG2QBpOQj79
jbXBf+zWQOzR1L/OAarBXTvlQO78Oj/RIKbBBt+6QL5E9UC5eK3BDW29QLpbmT/WTqzB5Lq5QMWH
ckAZ7ajB2pEHQaNHT7/RjmjBsT3AQK0tckD/54rBSZrYQP6VoD6JuI7BswrEQG9SKEB+3bDB4QG6
QKsty0DJL6fB1UjBQDRbpEBMpq7By/IEQbSGF79iXoDBVCPcQLKyyr016YLBTRGNQG0pbEA4aKXB
2rK1QLHSZ0DGSpbBLtrdQNaSHr9p2KHBCSxRQFTLakAmopTBDR/6QES4eUCkoZ3BNVPTQJ3aAMA6
oZPBQq/ZQMS9NUEvXbXBN3XzQCQWKEHfe6rBYj2oQAdcL0EW4aXBVoiWQPVOIkGU5LHBkvvQQDfe
E0FkH7/BCxcEQaRnF0HfhbvBH0WTQOaPpb9mXazBwnKuQNeL+b9j47fBNmnGQBFzDUFHLp/BoeGO
QLICCkG0eKLB8DvuQH/X40AzZbjBGuD/QKCI/UAMUqzBkjnSQK7JXD4Z77rB9HOZQF088j75BrrB
oc/PQOS6J8AYEabBZNrzQGhr4r+k8q7Ba3oAQeJkNj9ljKvB65DrQLFYtj/nfJ/BpLmiQBfD80AZ
3bPBEWyhQD93mD8C+qbBuOcXQZB6lL+yKmXBEbMEQWyGDT4TGmDBT/T3QIgXyL9WFGPB/kijQJFQ
aECJDobBF6jYQC/iQkBrnojBKq/MQPGLmUBFhYnB1oDzQNbzez8Sk5DBukG6QPjNWj8Ay4/B8bTl
QDl7LkBKUbPBRTyvQKecL0CU57fBa2TTQKPWy0CyF6HB4rOaQP7Yx0D9P6PBe3HiQO05pUA/mLHB
ZBirQLC5pkCKdLXBY5UQQQdMJD5iFYPBetwHQdQ+xb+EkoTBGqPUQLdWRD/7onvBRDrFQBeiaL/k
RoHBSSxnQKaUaUBYPKrBdD1UQLRZaUAGpYzB2UkYQJ2gbEDhSpjBApLUQFWmcEAbCp3BIrOLQClU
Z0AYb5rBntmqQIO/j79DQJjBpvjbQCbCJUG9xbHBhNOuQBuRIUFQTa3B1lDrQBftEkH3sbjBkGXI
QDuNjL91vrTBoNOtQGnADEHY0KbBdlnqQEXv+0AjU7LBVvXIQEyB0D5cf7fBlH6nQFeNsr/i8qvB
oFnKQK9eJT+6bqPBxvG8QHmj80DSta3BauS7QAqPpj/C5q3Bns2+QGEyc0BQ8qfBTp7PQE/5gsDI
JozBDrS6QPrTbUB044nB8H/QQA/ujL/zXZDBLCvPQGJsLEDhn6/BENq7QOdOy0CDwqbBrqPHQIE+
pEA1ka3BTqzkQAs1YMBpSJbBVC/0QGzxAsCCi5TB8vmQQGzYakDNeqXBKg60QKyXaEB7gJXBcDSy
QFatGr+yUqLBAV5NQMCdYkAbk5XBbij7QDqUc0BUUJvB4sKNQO8f97999JbBaFHbQK9bNEElr7bB
flTyQDD2J0HJEKvBs3+lQP/3LkGlGKjBNRmYQGhNIEHz/bPBlz3WQMFmEUHEs7/BdyEGQYIKFkG5
X7vBoQnAQF/i1b+t9bvBP1noQEYjs7+98rHBgQ7DQKVcDkHE15/Be+uMQI26CUHXFKTByzzzQL1M
4UC6obfBt7MAQaf//UDpsavB0H/pQNMmLz9qBLrBHH+yQOhFFj9aHr7BxlKHQFaAj7/oxK7BJTuo
QEzhHcB6+6nBLN7sQNAH3j5/uqPB8YLDQAXupz/4o5zBfIimQMGK70Ada7TB1s6YQIrisT8S0a3B
7ivFQBD2o8BFxI3BjenmQOcAg8DSjYXBbcWzQNXIXsDe6YnBa+qbQB9hZUBjwYXB0AHRQKw/O0AI
XYfBzS3IQAlklkDo2IfB6hPdQJyKnb3RtY/B15rFQNDBuL/MdYjBRgzyQGBXJ0C+n67BBtbHQDBt
QEA73LfBDfLSQB6ezkCSK6DBj4CbQOcNx0A2daPBRfLpQLbspUDTfa/BRd+0QBdKpUDvAbXB2ycA
QQcQhMBJeZjBlivNQBTnYMBU1ZzBqAAAQUu107/BN5zBFjkHQXqZA8CMr47B5MZyQBUhaEAH4KrB
IehKQD5/X0AOl43BH0EXQFsiYkCJ2JnB+3PSQElubECYaZ3Bh/uJQGcebEDTMJrBBbbdQLrtyb+9
zZnBpObbQCEkJkEgULHB2QauQIyZIUEDca3B+D3tQLR1E0GEErjB2LKtQDDHj7+ulrPBdEusQEyf
DEHhEqfB0lfrQAaY/EBN07HBvRy1QCfTsz4DIrbB0FHUQMIY1L8xfK3BvDjcQHxnFD9RMqTBCi69
QICo80Bx2q3BEw+6QKO5mD+Z1avB9ka7QImOcUDVEqjBf9hOQMsRXMDw9YvBEy+7QKfSbkCuG4rB
Do7IQNN0hb93kI/BDdTGQAR7J0A2rq/BvRC7QPDdykCmB6fB0XvFQEYso0Bh3a3BByaIQDpLJsBM
I5LBg2mrQFv5BsCKYIrBYMyNQHnwbUAZQaXBVuOyQPuzZUALnZXBcAfYQFjoZb+CdKPBRB5LQLue
b0DwDJXBtDz5QNSmcED7BZzB6x7rQJjZLsCB0pnBB9nbQEzHNEEJM7bBssXwQFRxKEEjUqrBAVSj
QJPVLkE2S6jBzLOYQEFWIEEQarTB69fZQC7zEUFiYL/BNVYHQTTOFkGsQrrBSsKQQIqHnb89p67B
b7GpQFUQ2L/bErvBeB7AQBU6DkGy2J/BxfiKQB5eCUGCwKTBW5/1QLFL4kB9FLfB7XYAQf+R/kBT
5KrBcmzSQBfr5D7c8brBkKyZQF9HOz+9urrBfc/PQDRpLsATtqvB/XfxQOwlw7+cTbLBfEv8QIhi
Uz/hPafBTiLYQNyfgT/5K5zBsj+oQKOm70Bw27TBvh2bQH0vnz+gqKfB/60cQD5ecsA6eJHBERpv
QHTMicC2WojBtMUxQBLaNMDJnoXB5RedQAXLZkBUp4XBTj/SQHm/PUDGi4fBYXDIQPNhl0D1gIjB
t6jhQAH1Qb8f1YnBTi+1QOgVI76Rk5HBGLXpQBhKKECf3LDBlcC2QB1GM0B9XrfBZmPSQPFIzUBw
d6DB56qaQCGLx0DhsKPBO8XnQLqso0Ax2q/BfIuyQOOjpED+RbXB3LGWQOV/TcBlepjBXA9wQB6C
3b94vpXBISu/QL0CPsBx/IfB6BycQHBB1r/PQYPB5/NqQLvxbECdc6rB/VtKQCrAbUD1DY3BSzEU
QHUqdEAMHpnB2FXUQD3meEBNJJ7BOqeMQHxbY0DUvZrBprDZQJQ9nL/vwpbBOoHiQN79JkHCGLHB
Uj63QK2IJEGfSavBXEnpQEDNFEGxPLnBc8SzQBB1lL8FkbLBrQO0QGWWDkHSv6XBbUfmQMaL/UDK
zLPBtmjGQBpXcj7BXLXB8R6oQM2gp7+Im6bBZTTPQAumUj8Kz6HBufS6QNQh+EAO0q3BZ6W7QMHE
oz8EqKzBmq+8QEmedkC62qjBl+ocQdvrLsA5b3zBy7K+QP7kakCYvIrB/sbrQPe0sr7nf43B2SHM
QFWaK0B2JrDBLhC5QJuHzUCJm6fBMoDCQMk/pkCB167BgUoUQfAf8b+jfofBX4L+QHLylr+BLoTB
7IiPQDyEa0DNz6XBUQa1QPMddEByNJbBZ8nHQD/pG79lzp/BTM1SQDgVUEAzmJXBK/H6QJBKgUAC
1pzBPDrYQCI2HMDEy5XBugnjQExrNkF6VLXBVXv8QLCWJkFmKavB5jq0QAA4MUHnO6XB8iqdQLYJ
JkGfJrHBCJjQQLjlFUEQfL/BMo8EQdSGFkGc5LzB/LCWQGPtqL/QW7fBvrDLQF5j9r8nnrTBvYvM
QJSZDUEtdZ/BihWUQJ75DEFcIqLBpBDpQD5w5ECg7bnBHVAAQTlY+kD5BK7BHmTpQLjmHj5QF7bB
L9i4QB4sEj+SB73BSzuIQB61YL9DNqXBi76nQCknGMDxfqTBr+LxQL9RgT/b8aHB5nrAQFfcsz9G
UJvBb+CgQEmv+ECwurPBmamYQJo5qj8CxavByNgrQcKCTsDXsIDB4RMgQfKBBcCyjm7BbwARQXKy
X8AoEHjBGqWgQCWlaED3KYbBab7QQBJeL0C/bInBvfLRQJfjkED5DIjBI58CQd1ylj67u5DB7r3R
QKRgjj41WorBSlPvQC2CKkAAC7DBZ+TAQMPxN0B5WLjBv+XQQA17zkDbIqHBjuKYQBvsyUD9J6TB
0rXjQBhiqEC9tbHBT4asQFTspkDKtrXB/EIgQb/yj79Mq4nBii8RQd8pIsAHbI7BIoYCQQWsAr9A
x3rBXAHnQOxl+L8dxYHBJ6ZtQLsPakA75KrB/B5TQEMXTEA2nI3BJrIcQOReRUD8ppnBSMzPQCd0
c0B9YZ/BgEeJQP9VYUAMe5rB1jbWQF3cGb9JGpXBwgruQGa1JEEK+a/B+LzEQMoAJEEiO6nBI2Tt
QFxuE0EXwrjB14euQCZjn78hyq/Bbhi+QDquDUFLT6TB+uHmQMgN+kAl8LPBwV20QJ9fIT6N7LTB
XsvSQFRJyr+8wKfB8ODfQO4oWD9DGKXB5W29QCIm+EBnD63BghS5QDLJnj91HazBKqC0QLZrdUC5
gqnB+EL7QOija8D2zXnBdAvBQFRdX0BJp4vBDvrnQCTR7b/zuI/BM7++QAuYKUCzRbHB+ma4QJSY
zEDub6fB4RC7QJsCpkBSS6/BzKjVQFcce8CvsITB95DEQDVBJ8BVqonB9H2IQAdLbkAAgqXBXAW0
QDEcYUCd95bBjybYQPSP6b4TQ6DBy0ZOQHJfVkDbi5TBMcL2QNn7fEAS4p7BsTjKQBD0pD5yW4/B
qN/wQDyNNEFPvbPBC9wEQQ71IUFktqrBIwzHQOniL0Hzw6LBS0KpQNnbJ0GzYa7B/Q/TQITYFkEH
WL7B5v8FQdvHE0G8Gb3BfLaPQIqCor+1iqvBeHiuQAApAMAOLLbBcl3YQIJaCkGKsZ7BiXOfQLhz
DUE1+5/BQG7kQPGQ4kC6drrB90IBQZQr8kCt267BcELRQLLsHT5D87nBoUWYQIkzxz5Y5LnBkmPK
QJVWH8DKRKPBldzwQHx0378YIqzB+c/8QK7KSz9yF6rBB2HkQPY4zD/Rw57B1aihQEd8/UD3TLLB
dAycQIJRnz+PI6fBfRADQaeZlMDON3PBm+YKQZ7VTMC2NoHB7aHwQGbYQcA+rWzBBEOlQDBST0DR
oobB3SnaQMDgLkCWhorBnnTNQDZMj0CVV4nBwZb1QNI8IcAz4JXBo5gAQbukyL/2CYrBPxngQM/a
L0Cs+bPB5impQFozLkA0M7jBJvvRQHpUyUB4cqHB+RiZQAnTy0AFa6PB+rjaQG8QpkBfJLPBbhWi
QEWaqUCibbXBt6XgQHWvksCKK4vBbXq7QNkwjcBzS4DBVCO4QAAF/L8GP4PBKpSqQK6+NsC1Ro/B
hiZcQMwkckA9/6nBqk5UQHCjTEDnrIzBNSYUQCq+V0C545fB

>  <OMEGA_E>  (3) 
tNKfPiBDpD4MFJw+LMcsPyggKT/Mbyg/xNgIP2j4OD8i3D0/

>  <OMEGA_NBR>  (3) 
     30356

$$$$
50253353
     RDKit          3D

 74 77  0  0  1  0  0  0  0  0999 V2000
    6.5793    3.5662  -19.3646 C   0  0  0  0  0  0  0  0  0  0  0  0
    4.2918    3.5670  -19.2055 C   0  0  0  0  0  0  0  0  0  0  0  0
    6.9163   -1.4994  -19.5802 C   0  0  0  0  0  0  0  0  0  0  0  0
    6.9626   10.1863  -22.0668 C   0  0  0  0  0  0  0  0  0  0  0  0
    5.5160    9.8519  -21.6319 C   0  0  0  0  0  0  0  0  0  0  0  0
    7.5111    9.1965  -23.1199 C   0  0  0  0  0  0  0  0  0  0  0  0
    3.1276   -3.2875  -19.1797 C   0  0  0  0  0  0  0  0  0  0  0  0
    3.7523   -4.5081  -18.4636 C   0  0  0  0  0  0  0  0  0  0  0  0
    5.5336   -0.4443  -22.9901 C   0  0  0  0  0  0  0  0  0  0  0  0
    3.8391   -2.0585  -18.5878 C   0  0  0  0  0  0  0  0  0  0  0  0
    4.7679   -3.9326  -17.4660 C   0  0  0  0  0  0  0  0  0  0  0  0
    5.3838    8.3782  -21.2021 C   0  0  0  0  0  0  0  0  0  0  0  0
    7.3404    7.7401  -22.6555 C   0  0  0  0  0  0  0  0  0  0  0  0
    5.3284    1.0419  -22.6645 C   0  0  0  0  0  0  0  0  0  0  0  0
    5.6246   -1.2889  -21.7108 C   0  0  0  0  0  0  0  0  0  0  0  0
    6.5506    0.7810  -20.5024 C   0  0  0  0  0  0  0  0  0  0  0  0
    5.1856   -2.5998  -18.0814 C   0  0  0  0  0  0  0  0  0  0  0  0
    5.8435    7.4782  -22.3701 C   0  0  0  0  0  0  0  0  0  0  0  0
    6.5547    1.5035  -21.8672 C   0  0  2  0  0  0  0  0  0  0  0  0
    5.9949    3.8872  -20.7179 C   0  0  2  0  0  0  0  0  0  0  0  0
    5.6215    3.5675  -17.0513 C   0  0  0  0  0  0  0  0  0  0  0  0
    6.2195   -2.8319  -19.2299 C   0  0  0  0  0  0  0  0  0  0  0  0
    6.6857    3.0617  -21.8492 C   0  0  0  0  0  0  0  0  0  0  0  0
    5.5418    5.9868  -22.1400 C   0  0  0  0  0  0  0  0  0  0  0  0
    6.2360    5.4114  -20.8941 C   0  0  0  0  0  0  0  0  0  0  0  0
    4.5656    3.6030  -20.5680 N   0  0  0  0  0  0  0  0  0  0  0  0
    5.5012    3.4222  -18.5040 N   0  0  0  0  0  0  0  0  0  0  0  0
    6.5011   -0.6995  -20.6621 N   0  0  0  0  0  0  0  0  0  0  0  0
    3.0953    3.6607  -18.6840 N   0  0  0  0  0  0  0  0  0  0  0  0
    7.7705    3.5869  -19.0741 O   0  0  0  0  0  0  0  0  0  0  0  0
    7.6596   -1.0313  -18.7241 O   0  0  0  0  0  0  0  0  0  0  0  0
    6.9765   11.1995  -22.4948 H   0  0  0  0  0  0  0  0  0  0  0  0
    7.6133   10.1538  -21.1804 H   0  0  0  0  0  0  0  0  0  0  0  0
    5.2384   10.4976  -20.7858 H   0  0  0  0  0  0  0  0  0  0  0  0
    4.8361   10.0408  -22.4758 H   0  0  0  0  0  0  0  0  0  0  0  0
    6.9654    9.3384  -24.0644 H   0  0  0  0  0  0  0  0  0  0  0  0
    8.5804    9.3991  -23.2803 H   0  0  0  0  0  0  0  0  0  0  0  0
    3.3009   -3.3474  -20.2643 H   0  0  0  0  0  0  0  0  0  0  0  0
    2.0464   -3.2380  -18.9834 H   0  0  0  0  0  0  0  0  0  0  0  0
    2.9763   -5.0798  -17.9336 H   0  0  0  0  0  0  0  0  0  0  0  0
    4.2571   -5.1615  -19.1903 H   0  0  0  0  0  0  0  0  0  0  0  0
    4.6855   -0.7991  -23.5940 H   0  0  0  0  0  0  0  0  0  0  0  0
    6.4655   -0.5602  -23.5629 H   0  0  0  0  0  0  0  0  0  0  0  0
    3.9944   -1.2902  -19.3595 H   0  0  0  0  0  0  0  0  0  0  0  0
    3.2547   -1.6328  -17.7588 H   0  0  0  0  0  0  0  0  0  0  0  0
    4.3027   -3.7786  -16.4812 H   0  0  0  0  0  0  0  0  0  0  0  0
    5.6342   -4.6024  -17.3615 H   0  0  0  0  0  0  0  0  0  0  0  0
    6.0148    8.1918  -20.3206 H   0  0  0  0  0  0  0  0  0  0  0  0
    4.3348    8.1574  -20.9554 H   0  0  0  0  0  0  0  0  0  0  0  0
    7.6910    7.0575  -23.4436 H   0  0  0  0  0  0  0  0  0  0  0  0
    7.9256    7.5736  -21.7391 H   0  0  0  0  0  0  0  0  0  0  0  0
    5.2424    1.6233  -23.5944 H   0  0  0  0  0  0  0  0  0  0  0  0
    4.4164    1.1740  -22.0638 H   0  0  0  0  0  0  0  0  0  0  0  0
    4.6122   -1.3986  -21.2951 H   0  0  0  0  0  0  0  0  0  0  0  0
    6.0210   -2.2799  -21.9772 H   0  0  0  0  0  0  0  0  0  0  0  0
    7.4655    1.0499  -19.9540 H   0  0  0  0  0  0  0  0  0  0  0  0
    5.6703    1.1073  -19.9291 H   0  0  0  0  0  0  0  0  0  0  0  0
    5.6089   -1.9321  -17.3164 H   0  0  0  0  0  0  0  0  0  0  0  0
    5.2825    7.7913  -23.2630 H   0  0  0  0  0  0  0  0  0  0  0  0
    7.4357    1.1307  -22.4102 H   0  0  0  0  0  0  0  0  0  0  0  0
    4.6384    3.4097  -16.5838 H   0  0  0  0  0  0  0  0  0  0  0  0
    6.3342    2.8232  -16.6663 H   0  0  0  0  0  0  0  0  0  0  0  0
    5.9828    4.5787  -16.8127 H   0  0  0  0  0  0  0  0  0  0  0  0
    5.6983   -3.2167  -20.1188 H   0  0  0  0  0  0  0  0  0  0  0  0
    6.9728   -3.5631  -18.9014 H   0  0  0  0  0  0  0  0  0  0  0  0
    7.7606    3.2901  -21.7988 H   0  0  0  0  0  0  0  0  0  0  0  0
    6.2778    3.4263  -22.8035 H   0  0  0  0  0  0  0  0  0  0  0  0
    4.4550    5.8645  -22.0220 H   0  0  0  0  0  0  0  0  0  0  0  0
    5.8808    5.4219  -23.0209 H   0  0  0  0  0  0  0  0  0  0  0  0
    5.8509    5.9327  -20.0054 H   0  0  0  0  0  0  0  0  0  0  0  0
    7.3182    5.5877  -20.9824 H   0  0  0  0  0  0  0  0  0  0  0  0
    3.9086    3.4612  -21.3085 H   0  0  0  0  0  0  0  0  0  0  0  0
    2.9790    3.6314  -17.6912 H   0  0  0  0  0  0  0  0  0  0  0  0
    2.2974    3.7616  -19.2782 H   0  0  0  0  0  0  0  0  0  0  0  0
  1 20  1  0
  1 27  1  0
  1 30  2  0
  2 26  1  0
  2 27  1  0
  2 29  2  0
  3 22  1  0
  3 28  1  0
  3 31  2  0
  4  5  1  0
  4  6  1  0
  5 12  1  0
  6 13  1  0
  7  8  1  0
  7 10  1  0
  8 11  1  0
  9 14  1  0
  9 15  1  0
 10 17  1  0
 11 17  1  0
 12 18  1  0
 13 18  1  0
 14 19  1  0
 15 28  1  0
 16 19  1  0
 16 28  1  0
 17 22  1  0
 18 24  1  0
 19 23  1  0
 20 23  1  6
 20 25  1  0
 20 26  1  0
 21 27  1  0
 24 25  1  0
  4 32  1  0
  4 33  1  0
  5 34  1  0
  5 35  1  0
  6 36  1  0
  6 37  1  0
  7 38  1  0
  7 39  1  0
  8 40  1  0
  8 41  1  0
  9 42  1  0
  9 43  1  0
 10 44  1  0
 10 45  1  0
 11 46  1  0
 11 47  1  0
 12 48  1  0
 12 49  1  0
 13 50  1  0
 13 51  1  0
 14 52  1  0
 14 53  1  0
 15 54  1  0
 15 55  1  0
 16 56  1  0
 16 57  1  0
 17 58  1  0
 18 59  1  0
 19 60  1  6
 21 61  1  0
 21 62  1  0
 21 63  1  0
 22 64  1  0
 22 65  1  0
 23 66  1  0
 23 67  1  0
 24 68  1  0
 24 69  1  0
 25 70  1  0
 25 71  1  0
 26 72  1  0
 29 73  1  0
 29 74  1  0
M  CHG  1  29   1
M  END
>  <OMEGA_C>  (4) 
54nSQPA8ZEDC6prBSVaJQB9KZEDxpJnBOFLdQP/qv78npJzB/M3eQPb6IkG9iLDB4IKwQFGhHUE1
Dq3BVFvwQPYkE0Gd9bjBYCpIQA1nUsD/b5nBASVwQPhBkMCHtZPBcxOxQIN5476i67fBxLN1QMe+
A8DUs5TBfJKYQBGwe8BNuovB5EesQEgNBkHfnanBJuTqQLGu90BdPrXBWYKqQCBdhT/uULXBAv2z
QMz7pL/Or63BZ57RQAzyRz/iBKTBv/ClQGRiJsCqppDBUf66QKJN70AP9rLBWMDRQP9zwD/9767B
mda/QGPHeEBMvqXBvOOzQPlRZEABaYjBUwbHQBg+NcDA1pnBT/HVQOzyQ0A4y67BilaxQMGTv0C/
HrHBo43HQAsqrUAvJ6fBSRmSQG+XZkA+i6TBxAmwQNoFW0A3CJTB7wjQQB4QM78CTKXBKhpGQCZJ
akDDeJXBJqj4QHOQZUC6l5jBuxv1QOkAhL/pypXBQD/fQBQxM0FY9bPBxp/zQNB1IkF0canBS6Gn
QFX2J0FKSabBIMGaQAenIEFgzrPBeuTeQDNqFUHgg8DBOEkJQbJiFkELPrrBgkJTQDo7VsBFHaLB
+/cCQLE6T8Do3ZfBEXs+QJSNosD8d4/BPzqIQEwrpcDMhZnBgu+VQDyTTL+FwLzBteXOQEZmD7+9
gLzBWqR/QKMjpb864JrB5UxQQHr+0L8UEo7BZ6+JQBjUccBs2YPBXEu0QLpGk8Be5IrBpnnAQJoR
A0GgkKLBsraKQIqEAkGepKfB6xz2QELX4UB1jLvB3J79QORa8kCo6a3B2cGnQKHHzz8/wbzBT1ON
QNZElj+4grDB1paTQMMGs79PXKrBG6zAQGvpEcA+0a/BIOXuQPpjhj/doZ/Bz3K1QJO6jT/ebp/B
43uzQH5P978TiIrB4QmpQHdS+UCWGrrBdvHtQGK6kD8DSLPB422UQCQ5WkCRq4TBfrHKQLWvNECG
VIXBTHO/QOmEkkBtgIbBIFi2QBzeTcBT86DBcCHfQNQJZMALNpfBcVb4QNqQUkDhY67BnuPIQKBI
W0CZbbbBhY+OQAOqu0ASLbDB4S+8QFKArUDSKrjBZDq7QBXZvUAVC6DB4i7qQHLOskD026fBUCd6
QO6DXUDDd6rB1ac+QE1paECOh43BHwgTQBW+cECnOZrBMoPUQDhZZ0AgDZvB9nGLQBgRZEDYbJnB
917aQLYvw781ep3BQnXcQCFgI0H1KLHB24GuQJLwHUGLcq3B0GjtQLyQE0Gfq7nB+i10QMOhZcAE
aInBVOs/QA90TMBlY5PBGFC2QBEcrr4gG7nBKXGpQEKeZMAUx4zB97qAQBdHMMDJv5vBTfGqQM9r
BkFV6KnBr7DoQKSV+EDz37XB5hKvQDk0kT/fcbbBavGzQD+BmL9w+a7BlwvPQC4HUD8fNaTB3Nmo
QIu8ZMAlCJnBfB25QCrl70ABRLPBG4PTQJ7byD+dAK/BQNjAQB74e0CIvaXB2YC3QGbkYUBkaojB
87bTQKNjRMDg7p3BL0jXQAISSEB3xa7BO0SwQGJHwEDJMbHBw2jHQMbNrkDVOafB/lGTQAZVaEC2
XKTBmbKyQJ15W0DHCZTBS0DOQC40Kr9u8qXB3ORKQOH6ZkDsCpXBId36QM7qZ0Cd+ZjBHa3oQO8X
h7+KJJXBH4HcQP2VM0FSlrTB2tvxQFHlIkFjLarB+PulQMBXKEE2rabB/zOYQKvHIEEIG7TBXSXb
QKC1FUHPHcHB97YHQRzvFkEoLbvBxi1pQMZLN8Do7ILBUMxhQBsBk8Bkr4bBjQIbQDrLgcCiVJbB
mQEUQCCLF8DWf5HB3Y6dQJ+vLL/Pwr7BfxLWQL9E6747x7zB2mq5QGrBKsCiv4nB2gy6QAnbjsCu
u4nBDMpqQGcBP8DZ36PBaj6HQKiV1r8OGJvBo8C/QGWfA0EJ86LBu5mJQKrIAkEywKfB/WXzQMC3
4kDiOrzBZzv8QPyE80B2qq7BjpOvQFMe3j+R0L3B7BGQQPCZoT/sZ7LBFl2SQC5Bnr8KXKzBMje/
QNYdDcC46bDBZVrqQAieiD/OCp/BuxyxQNtjjz8ESaDBk7GjQNlsk8BLxJvB1VOmQP9V+UC6UrrB
j0fxQLsNmj9HrbLBT3GYQCIFVkDmjITBZt3OQOAYMkDypoXBWtPCQIUxkUBKT4bBvbjUQA48WMBa
X6bBJS3uQMjgYsCNjpnBnJv5QHg3V0AWT67BXE3KQMaTX0C+Z7bBj5yNQBL0u0ApGLDBxuq6QPbi
rUCWNbjBffq6QJBnv0CQHaDBRd3pQPI+tUATCKjB98h7QK+dX0D7M6rBH89EQI3vYkBQGI3Bd+YW
QChAbUAgpJnBLOHUQGynakCxe53BC3iMQPWOaUDNFJrBKU7NQFrJhL9gSZzBgaLKQE3TIUEi4LbB
1C70QHSIFUGNXbTBIK+pQE/mH0Eruq3BNMgzQCFVXcAjEpPBbsNlQAEqicCssorBRRHlQBribr8C
f7TBxcV3QHWSL8BI0JnBoTCiQFewhMBtto3BbYrqQGxP/EBMhbHBBIqgQGJMCEFoBqvBkrngQBR1
Ez/t3rbBc5y7QGTXt7+jT6/B1nesQHBZQT8xVKfBovCjQDjzMMDnrpLBN7LKQG5L+kCCAqjBhKDT
QB5Msz9e1azBzTW9QFCad0DdDKjBtVa+QJp7X0BlIIrBDvPNQOZJIMCHsZjBgsDKQI7gNUC4t7DB
/6/CQEeCzEBY4qPBZoTEQH5dqUCinazBeP2PQBnAbUDkKKXB7Zi1QOysa0C+j5XBEme2QPVMKL+v
eKXBAW9QQF1uZECF4pTB4sX7QLAkakCwLZzBu6LYQGhARr6ZvpXBHGbSQNLSMkEoE7jBNIG8QBVJ
G0EEPr7B8poEQRD7FUFNa7vBmzECQbc4HUGRkK3Bwl62QMHxJ0FYkqbBT6+LQAasJ0HyMbDBMrMM
QLrNg8CsIpjBzCgKQNdmLsCIE4/B4nJaQJgBecAQnILBGhhSQEHwqsDYA4vBG8TqQEM+vb8xAbzB
7gcAQYKtjL+zAa/BtKmBQJcLUsBnWaHBEzZkQPbi2r9klZvBQ8u2QLWihsAkmIbBqcqrQGFpncCf
f5PBLWLcQC407EDMf7jBYzsEQXsX7EC5Rq/BIyGKQANtB0G6QKTBAl+SQBlSAEEaBrLBiqn/QMJf
cz83z7nBDjbIQFjYNj+mFr3B9kigQF+ror+ysrTB9i6+QDCFIMDtcK3Bsh6mQLXtoD9BqZ/BVTGQ
QN+oVz8LhqzBN06gQDyTAMDPWozBsv/YQA1JBkGsZKHBiJfuQPJEtT+mLafBizCgQKUvY0C0m4XB
+RnNQJ9dIEBi34jBJkrUQHvgiECyU4fBWjnQQLajSsA0s5/B02LpQFbAK8C6XpPBySToQL3gTUDF
hLTBKPewQMTFMkD1sbbBBxvbQOInxUB30Z3B58WiQDGby0C7LaDB5CvkQDllqkDKdLDBFJ6rQCED
sEAenLLB1jZvQEePakBEU6rBaVZQQGyWYUCL5IzB1hwZQA1bY0C555jBbxLUQLYja0DX5J3B1o+L
QJoAaEDljZrBvB/IQCHnlL/DPpzBwRHeQNRmJkFRQbDBKuexQAmLIkH6I6vBczPqQIIDFEES2LfB
akZNQBtpdcCbq5bBWE2FQLpEmsBLA5HBpdniQBOygr8UULTBgj9nQHrHG8DIyZLB8uKgQCf1fcAp
fonBguWwQOoTDUF4MKXB4RvpQLHf/ECN/bHBvpfeQKUa9T6jxrbBGAW5QKhKw79FUK/BdzqqQB7G
LT9RSKfBru+hQNgbJsAnyI7BdI+8QO069UDizKzB29zRQJ8kpz+Tv6zB2ne8QGgJc0A+gqjBn0q9
QJzwZEAAhYrBE+TCQOYGJsBuEJjBdPDJQCAfL0Bd17DBSRe7QKdYy0AqZabBfpbEQMxCpUCPxK3B
OSSPQLyFakAmo6XBxa+0QOnhYkAmEJbB7nayQGhNQL8se6XBh3NOQLqTZ0A2WpXBfur6QDacbUDV
jpzBJ3XYQADJrb4gOpbBYTTdQOp1NUEPzrTB60X2QNqUJ0GV5KnBtAurQFiGL0F5c6XBgmKZQJRr
IkFTdLHBZl/TQNeXE0EHir7BDVUFQcPJFkFA87rBmmtUQJEnesCgZ5/BSYoKQL+NgcCnc5TBzQFm
QMEQssDVaozBOI2ZQAS7qsAZ65bB9DjpQBcpyb9Yw7vBqGf9QKgEl799ra7BbVRkQETL2r/0ZZnB
dSc9QBh5BsC1QYzBaVCSQKcjesAff4HBolrBQJFPjMDx0ojBgwzIQF+IDUGNkJ7BxpCQQN5lCkFT
+qHBdLTvQLYS40C+vrfBMN8AQX6//EBstKvBfnf9QLVsWT/SybnB7efFQH0xHT9t9LzBCy+eQMfH
rr+t3LTB7p27QDM2JsAwba3BFFykQC7Alj8HlJ/BOg6OQJBsTD91eKzBXs2pQMga6L8x6ojByHCk
QCWt80CoMrPB1cLsQLQPqD+HEqfBqxqfQIULXUA0GobBlk/TQNunMECTaojBbevLQPhUkUCzY4jB
LWq3QNmgT8DLjp7BPuHhQH7LPcD4IZXB377nQG11RUBBmbTBx3ywQJW6K0DD57bBWi3TQASFzEAR
/J/ByhabQERyx0C83KLB42TmQIHYpkD2L7DBEhewQEPgp0BU5LTBq5NtQDIXZ0Aqz6rBoCpOQFdH
Y0DbXo3BvjIXQOmMa0DdW5nBjQPTQBPlbkD+LZ3BRFuKQBmcbkD3JJrB0SK3QHQhRL+cPpvBhkfX
QCeSH0EJH7jBcMH4QNN6GEGOzK/B1UmpQL7ZG0FKBrTBUw+VQPMIkcDzEovB7PFjQIavXsBD8YjB
rYrmQJrkVr+mKbLBcZecQMYJkMBnKpfBTwJaQD2LK8DpYZPB15rxQMcKAUHOnKzBu5miQAtcBEGq
y7DBPtnhQMqvIT+5l7XBCBG7QJaSsL+ckK7BLdaiQApLXT+5JqnB8SOUQDBeQ8CvMZrB5LHDQG9o
/ECfL6jBISzOQEQqvT/ieazBM0y8QFQzfUDu2KfBp/O6QJwvYUDd9YnBt528QNHyDMCmbJfBGN3J
QJ1TO0Bed7DBieu7QAYOz0BA8qPB7svFQNmaq0AaP6zB8a+OQBibdkB9MKXBwyCzQHIkbkDHbZXB
IU2rQArjAb853qXBE4JLQCrpZ0C3IpXBdMX5QDoua0AStpvB+nW+QEKFFT597ZTB3qHbQFe1MEHm
zbnBJgXcQLhWFkHehL/Ba3sMQb82GkHZPbPB0fj1QMikIkEHpqjB+JCjQBkiJkEDB63B2n2SQLv+
H0HHZrrBPpiyQHKviMD2w4bBozKKQAD0sMCti4jBVUcnQHlPfsAA3obBY1R3QP0KNMCDX4LBUkzy
QNGDt7+r9bjBZHD9QGigaL+CgKvBf7G9QK0umcDkGJnBXUeGQHybpcCNUZvBnIgeQH2dPcB+g5fB
z15ZQFzYzL/8tpHBaeL1QPx/7UCeq7PBxXMEQRQD+UAfa6bBzByCQItKAkHzka3BJ76mQFoR9ECn
2LfB4ssAQRtahD/GnbfBeuzMQDeyLz/Lp7zBN3GkQCqMrr8mTrXBE5O+QMJFGsBDoKvBSAWVQLpq
tz/HdKLBz4KMQEt8YD889K/B9KSMQF3OPcCaw6LBXN2/QHNeCUF8c6HB8fDjQJe3uj/7j6XBkWGc
QHl9Y0CNm4XB3x7KQPFyIkAYtojBWzrQQDb0iUAK+IbBArvYQApAKcBIXZvBk2zBQOsjDcD5tI7B
iQTpQJ1VT0DbtbPBq8KxQM1XPEDW4LbBqnPQQBYBykAn6ZzBuCGaQEhXzEAEk6HBdNfnQCJrrUCP
b67BiQSyQDcEsUAqZrPBhDVtQKOtd0CmdKrBk1ZKQMC7YUCfLI3B0LcUQKL3aECeRJnB4kLSQCK+
ZkCad53BBbSJQNDOUkAgYpvBL+mNQHPTUb8GEafBDkTkQFmZJUENnKvBh+qzQJfkIUHh3qnBjTv0
QDCjGUEBp7XBaIRLQA6yY8DHE4rBrSuVQAc6dsAhXIfBkQjrQBitq77UKLfBOmhLQE2gO8AbUpXB
5PyuQHnTW8BTSpHBygWqQC7dCUEr7qjBDpzqQFCLAUEm0LTBe1LpQPcrmT/72LjBw569QM9rcr9U
drfBcIidQI1znT/q5rHBjCyTQDOiF8B/qJbB1Ae6QLcW+0Ai97LBienKQNp16j8ofrDBf/O7QJ6Z
hEAmeKfB+oC6QOdwFEDAG43BDyigQAXpCMAIe6LBY+jKQBogWEDGtrHBBR+wQFyTykBAILLB+rDF
QFTZtED5SajB4j6OQNfofECdJqXBOTyyQL3WSEDQrZbBi62gQBSpYL7/GbDBlBpKQBkpOUDwaJfB
kAn5QBT7YUByCZzBF6NeQNigkL4oo6LBJyvqQD3VNkFYnazBAuD1QKe9H0FLk6TB9uKpQCX/KUHn
eKLBDSSiQGaRKEGRsbDBXgrkQJMpIEGZwLzBAH4LQZn0G0EAcLbBrUomQGK5j8BvDorBog4wQC7P
NsAsO4TBWTqfQNN5UMDdXoDB5baZQL9dncAproXBuYH+QJiiSb/qiL3BDLL5QEJtDL/dV6/BfPM9
QNZbbMDbcZvBBY4bQLgrCMBQ3JXBsDfOQNghQcAs+o7Bz9yzQI5licDcppbBlBC6QL9uA0GyyaHB
SjyHQP6qB0HNJ6jB3nj0QPZE80AYR7zBOr38QAWU9UCIEa7BV84EQWodzz/y5LfBwXPdQDf/tD+T
8sDB+/WwQPhHYb/rp7/BoE+/QAQsAMD4BrXBgnSHQCmh1j+0DazBR8yRQHWrtj8oDLrBvvGVQKEE
tr8RPZLB6beoQKrYA0EY87nBi5rWQIEpyj8McajBqQGcQBo/BUBTJYnBbY/KQCBxsT+WeY/BdyLP
QE80OEDGjYfB7hiUQDGWPsCfT6fBOUjDQHHIBsCZ/KLBuqTrQHTUbECHp7PBZlO1QFwfaUBOVbjB
EUSNQIJsxkD+d7HBe6a7QDq+ukAgcLnBYRe6QH6fxEDe+aDBRoroQEUVuUBJ76jB+0hsQAvph0Ak
2qnBG3hIQHkxG0AUWJDB0dQTQB2RQ0AAcpvB

>  <OMEGA_E>  (4) 
YMyEPgDjaD6IeLM+KOC1PgC59j6Q2ks/

>  <OMEGA_NBR>  (4) 
     37569

$$$$
50253348
     RDKit          3D

 71 74  0  0  1  0  0  0  0  0999 V2000
    6.6621    3.9788  -19.9702 C   0  0  0  0  0  0  0  0  0  0  0  0
    4.4523    3.7933  -19.3324 C   0  0  0  0  0  0  0  0  0  0  0  0
    6.3386   -2.5434  -20.9871 C   0  0  0  0  0  0  0  0  0  0  0  0
    6.7389    9.7249  -20.9432 C   0  0  0  0  0  0  0  0  0  0  0  0
    5.2693    9.2795  -20.7819 C   0  0  0  0  0  0  0  0  0  0  0  0
    7.6399    8.5535  -21.3937 C   0  0  0  0  0  0  0  0  0  0  0  0
    3.0039   -4.5018  -17.8965 C   0  0  0  0  0  0  0  0  0  0  0  0
    2.7669   -2.9812  -18.0589 C   0  0  0  0  0  0  0  0  0  0  0  0
    4.4159   -4.7732  -18.4452 C   0  0  0  0  0  0  0  0  0  0  0  0
    4.0454   -2.4223  -18.7075 C   0  0  0  0  0  0  0  0  0  0  0  0
    4.7410    8.6420  -22.0876 C   0  0  0  0  0  0  0  0  0  0  0  0
    7.0992    7.9006  -22.6893 C   0  0  0  0  0  0  0  0  0  0  0  0
    7.0710    0.9596  -19.9431 C   0  0  0  0  0  0  0  0  0  0  0  0
    6.9517   -0.5119  -19.5889 C   0  0  0  0  0  0  0  0  0  0  0  0
    6.1494   -0.1533  -21.8323 C   0  0  0  0  0  0  0  0  0  0  0  0
    4.6625   -3.6306  -19.4317 C   0  0  0  0  0  0  0  0  0  0  0  0
    5.6141    7.4479  -22.5596 C   0  0  0  0  0  0  0  0  0  0  0  0
    6.0125    1.1414  -21.0360 C   0  0  2  0  0  0  0  0  0  0  0  0
    5.8270    3.7293  -21.2240 C   0  0  2  0  0  0  0  0  0  0  0  0
    6.1785    4.0891  -17.4890 C   0  0  0  0  0  0  0  0  0  0  0  0
    6.1677   -3.4667  -19.7679 C   0  0  0  0  0  0  0  0  0  0  0  0
    6.2158    2.3965  -21.9311 C   0  0  0  0  0  0  0  0  0  0  0  0
    5.4394    6.2488  -21.5906 C   0  0  0  0  0  0  0  0  0  0  0  0
    5.9751    4.9249  -22.2033 C   0  0  0  0  0  0  0  0  0  0  0  0
    4.4464    3.6442  -20.7176 N   0  0  0  0  0  0  0  0  0  0  0  0
    5.7668    4.0504  -18.9027 N   0  0  0  0  0  0  0  0  0  0  0  0
    6.4608   -1.1709  -20.8135 N   0  0  0  0  0  0  0  0  0  0  0  0
    3.3834    3.7213  -18.5770 N   0  0  0  0  0  0  0  0  0  0  0  0
    7.8843    4.0742  -19.9175 O   0  0  0  0  0  0  0  0  0  0  0  0
    6.1617   -3.0038  -22.1096 O   0  0  0  0  0  0  0  0  0  0  0  0
    6.7892   10.5247  -21.6968 H   0  0  0  0  0  0  0  0  0  0  0  0
    7.1046   10.1065  -19.9785 H   0  0  0  0  0  0  0  0  0  0  0  0
    5.2035    8.5420  -19.9684 H   0  0  0  0  0  0  0  0  0  0  0  0
    4.6524   10.1557  -20.5333 H   0  0  0  0  0  0  0  0  0  0  0  0
    8.6557    8.9325  -21.5793 H   0  0  0  0  0  0  0  0  0  0  0  0
    7.6709    7.7968  -20.5960 H   0  0  0  0  0  0  0  0  0  0  0  0
    2.9452   -4.7864  -16.8355 H   0  0  0  0  0  0  0  0  0  0  0  0
    2.2557   -5.0685  -18.4701 H   0  0  0  0  0  0  0  0  0  0  0  0
    1.8971   -2.7965  -18.7065 H   0  0  0  0  0  0  0  0  0  0  0  0
    2.5994   -2.5130  -17.0777 H   0  0  0  0  0  0  0  0  0  0  0  0
    5.1593   -4.7557  -17.6345 H   0  0  0  0  0  0  0  0  0  0  0  0
    4.4549   -5.7459  -18.9575 H   0  0  0  0  0  0  0  0  0  0  0  0
    3.8023   -1.6220  -19.4220 H   0  0  0  0  0  0  0  0  0  0  0  0
    4.7331   -2.0338  -17.9418 H   0  0  0  0  0  0  0  0  0  0  0  0
    3.7154    8.2833  -21.9156 H   0  0  0  0  0  0  0  0  0  0  0  0
    4.7339    9.4081  -22.8769 H   0  0  0  0  0  0  0  0  0  0  0  0
    7.1745    8.6303  -23.5091 H   0  0  0  0  0  0  0  0  0  0  0  0
    7.7162    7.0206  -22.9240 H   0  0  0  0  0  0  0  0  0  0  0  0
    6.8521    1.5944  -19.0719 H   0  0  0  0  0  0  0  0  0  0  0  0
    8.0761    1.1937  -20.3240 H   0  0  0  0  0  0  0  0  0  0  0  0
    7.9319   -0.9188  -19.2994 H   0  0  0  0  0  0  0  0  0  0  0  0
    6.2381   -0.6525  -18.7637 H   0  0  0  0  0  0  0  0  0  0  0  0
    5.2094   -0.3943  -22.3502 H   0  0  0  0  0  0  0  0  0  0  0  0
    6.9637   -0.0751  -22.5677 H   0  0  0  0  0  0  0  0  0  0  0  0
    4.1044   -3.8221  -20.3600 H   0  0  0  0  0  0  0  0  0  0  0  0
    5.2628    7.1387  -23.5551 H   0  0  0  0  0  0  0  0  0  0  0  0
    5.0147    1.1853  -20.5751 H   0  0  0  0  0  0  0  0  0  0  0  0
    5.2862    4.1446  -16.8481 H   0  0  0  0  0  0  0  0  0  0  0  0
    6.7471    3.1789  -17.2477 H   0  0  0  0  0  0  0  0  0  0  0  0
    6.8100    4.9728  -17.3152 H   0  0  0  0  0  0  0  0  0  0  0  0
    6.5995   -4.4527  -19.9946 H   0  0  0  0  0  0  0  0  0  0  0  0
    6.6881   -3.0284  -18.9036 H   0  0  0  0  0  0  0  0  0  0  0  0
    7.2759    2.4511  -22.2197 H   0  0  0  0  0  0  0  0  0  0  0  0
    5.5955    2.2861  -22.8328 H   0  0  0  0  0  0  0  0  0  0  0  0
    5.9901    6.4591  -20.6619 H   0  0  0  0  0  0  0  0  0  0  0  0
    4.3699    6.1282  -21.3634 H   0  0  0  0  0  0  0  0  0  0  0  0
    7.0395    5.0526  -22.4496 H   0  0  0  0  0  0  0  0  0  0  0  0
    5.4103    4.7042  -23.1212 H   0  0  0  0  0  0  0  0  0  0  0  0
    3.6321    3.5016  -21.2802 H   0  0  0  0  0  0  0  0  0  0  0  0
    3.4594    3.8557  -17.5890 H   0  0  0  0  0  0  0  0  0  0  0  0
    2.4920    3.5320  -18.9888 H   0  0  0  0  0  0  0  0  0  0  0  0
  1 19  1  0
  1 26  1  0
  1 29  2  0
  2 25  1  0
  2 26  1  0
  2 28  2  0
  3 21  1  0
  3 27  1  0
  3 30  2  0
  4  5  1  0
  4  6  1  0
  5 11  1  0
  6 12  1  0
  7  8  1  0
  7  9  1  0
  8 10  1  0
  9 16  1  0
 10 16  1  0
 11 17  1  0
 12 17  1  0
 13 14  1  0
 13 18  1  0
 14 27  1  0
 15 18  1  0
 15 27  1  0
 16 21  1  0
 17 23  1  0
 18 22  1  0
 19 22  1  6
 19 24  1  0
 19 25  1  0
 20 26  1  0
 23 24  1  0
  4 31  1  0
  4 32  1  0
  5 33  1  0
  5 34  1  0
  6 35  1  0
  6 36  1  0
  7 37  1  0
  7 38  1  0
  8 39  1  0
  8 40  1  0
  9 41  1  0
  9 42  1  0
 10 43  1  0
 10 44  1  0
 11 45  1  0
 11 46  1  0
 12 47  1  0
 12 48  1  0
 13 49  1  0
 13 50  1  0
 14 51  1  0
 14 52  1  0
 15 53  1  0
 15 54  1  0
 16 55  1  0
 17 56  1  0
 18 57  1  1
 20 58  1  0
 20 59  1  0
 20 60  1  0
 21 61  1  0
 21 62  1  0
 22 63  1  0
 22 64  1  0
 23 65  1  0
 23 66  1  0
 24 67  1  0
 24 68  1  0
 25 69  1  0
 28 70  1  0
 28 71  1  0
M  CHG  1  28   1
M  END
>  <OMEGA_C>  (5) 
KjDVQDakfkDpwp/BWXmOQKfEckDNqJrBL9bKQJfHIsCo5afBPaXXQDqZG0G9i6fBGZ6oQPx4FEFA
QabB/nn0QFbbCEFPJqvBnEBAQCUPkMDyK4/BVxQxQMvLPsCpeJDBU0+NQCu+mMC3j5PB2XOBQMkG
G8DcqJXB9rWXQMFFCkFds7DB5yzjQM/R/EDJg7XB+UXiQFGndT+Di5/BnHTeQAwOA78ntpzBysfE
QML6HL5zqK7BJTOVQKNbaMAHdJvBf6azQJtV7kAlerTBj2bAQPwakj/ASajBGne6QJatbkDRyqnB
37XFQC3agkB16YvB2V3FQALeXcC9JJ7BJujGQOdgGUDkcq/BlA+uQGr2x0CcuazB3TO/QKKYnUBx
oLHBQUmOQOI5aUCWvaXBPYm4QKicgUDDOJfBF7/OQCTglb8SgqbBGolYQNopbkC8nZTB+Uv8QNxf
gkD1Vp/BnSzFQKs9QMB94LDBdkHZQCNlKEH6kq3BPFnjQD20IUEM1J/Bw4KmQCesCEE/v5/BjeCU
QLl9IkEiRKTB8n0KQXjrDkFhoqzByHf1QGF/+UCQxKTBu308QIAqmcAtr4bBMF4QQIwxosC/wpPB
HdTyP136MsD6ppXBb1wmQGzVIMAjn4jB6xilQNEumMCOE43Bho6OQBLet8DlqJfBilhzQEyfz78o
YJvBS3WXQL4pAsDeiI/BM8ltQI6IBEErU6/BcHyXQLKHFkHqA7fBXpXlQJEVCkGTErzB8+r2QCap
4EBAZLfBBkTbQEoUzD8sk5jBjTcBQYTMmD+ml6LB0dH9QDs2a79AZZrBoZ7HQEkMJ78dHJbBNbOm
QJPkyb48zbLBQtbeQEvhmb2dirTB8laDQMyddMBB4aLBIWmoQHRw5EDrcLzBm3igQJq4lz+5maTB
RSipQFKghEDkyIbB3ufXQHlzS0BZ+4nBouvZQIQhn0CghYrBPC/TQC98jsDy9J/BUQXWQOHQQcCi
OpfBEdToQDffHEALwrHBdA6zQEVQEkCEqbbB4K6/QDGxzkCbS6XBMdaLQI0axEBR6KrB3UPhQO2u
oUC2mLPBgyGtQP+IlkAf+LjBWnRoQK0ZYEDKParBBWZdQEbEdkBMtozBMHwfQDIMYkAD6ZfB3rLS
QPdlbEC46Z3BvMaJQPtUbkA8O5vBRpmAQKoYtL/8zaLBReDgQJx0JkGgwq/BrZqxQEMNIkH0Fa3B
1ED0QAoTFEHzXrbBh/5gQFG6WcBYd4rBnWB2QEPkmcCd347BAlKXQKHrIsDccI3BzfikQLTZlMAc
Z5XB0tysQO2wDEGBJ6fBMGvvQE0s/UA+i7DBnO/TQEsoGT6cebPBnQXFQDx5i7+wia3Bf9ChQN+8
Uz8xMKbBSNmmQGGcSsDFCJjBlM2/QKF39EDD1K3BYBTMQJhenz/mRqvBZPW8QJNLckBO0ajB7Pu4
QCs6ZUBNxorBTjaIQDxUOcCbnqHBQH7KQE3SKEA2grDBnI+6QPbvykBGdqfBNHjHQMPro0BkTa7B
DwqPQLcfb0DWSabBsyyyQL5QcEC0UZbBczygQH+KHr9CNqfBW25JQA0SbEBYXZbBllD5QMxfaUC3
OZzBrJlDQLs+ZL9cUp7BnxnjQM1jNUEdYrTBKAHzQOElKEHBQ6jBjFWlQIAHL0Fz/qfBPAifQHNt
IUEAjrTBzbbjQKgqE0EwIL7BFDoLQbpJF0HysbfBxpAmQKl4QMCqOY7BxHFYQNK/W8AovIHB3wCA
QAuPsMDXP4jBsU5CQFRnpcC6DJTBgg6OQB42v7/4kY7B40GwQCYXJ8CBQIfBqOTAQEaCnsB1npDB
97CjQPsbqMAIw5zBltm9QLulDUE0dp/Bs7eKQF6OCUEss6XBxXn7QP5e40Ast7XBfA4BQVwD/kAs
F6nBFgv2QDqBpD00lLXBFfnAQGOMoT7gxLrBmzm7QLoi8L+rLrPBR3PeQFPBvL86SqjBWfWgQBR3
jz/htZ3BIsCGQAILpT/PbarB5avHQCAqNsDL7JnBRbKtQPTG8UD5WLXBEpDlQOf8nD9HNaXB5Tqa
QARAa0Byj4bB5aHGQPZ9JUDaP4nBpTPPQMlQi0AP3ofBdvxSQDC5WcDGLqDB8bWWQGtLUsCZAanB
Y4jqQEuiN0DLpbPBz3KzQBmKJkCNJ7fB7wfPQO1EzECOT6DBd+uYQCCPx0CJA6XBOCHqQJVPpUA0
zK/BqzS2QGhspUBI9rXB9K1uQLzAbUBCqavBGeBGQKafa0AHX47BLVkTQBPKakCko5rBIA7QQOdg
gEBia6DBzriKQN62cECkaJrBpqnKQLDKHMAj2anBIWzxQBpvGEHXhqnBj8DEQLAiFUHDgKTBeFQA
QXkyBEHegq/BkkEzQM2tb8CxN5TB/gVrQIheacC+/4nBNiZyQCmbcMBDtZ3BTTOkQDy2Z8Bj4Y3B
wMejQA0JDkGKCq3BQ3bfQGRw+kDYAbjBqYrhQHlUhz9DcaHBbQbiQHpa2r7jCJ/BImnAQNGPV713
JbDBKCahQD3gRMD8RpnB9v+xQD5D80DzLrPBR1u8QPdLmz/1XKnBN0GzQN9dc0DnIqrBmfHEQHWX
gUAKYYzBP0zKQJdyVsDL5Z/BtJq+QA/hH0BsWLDBv6KvQIbty0CqoqvB4lu2QNj7oEBSsrHBNwOI
QGF4bEA6hqXBC021QFMXgUB8fZfBqlbPQFfsib+Zj6jBuz5UQF5yZ0A66JPB0wb3QKsnhUBnjaDB
FK3CQGkmO8DJqrLBwOTvQEfaJUFKNa/ByjkEQXQ0HEHeJKPB6eTGQB3ACEEHRp7Bvwy6QAVFJEEA
5aDB9qMPQb+iB0EOf7PBR40CQXBH7kBit6nBLikNQOdvlcClGpTB7jkIQBAmOMBJypTBnvRbQO1s
LsA5koXB/wNgQN6TkMB8z4TBrC2AQK5MmcCmNKDBMw1YQMynTMDkiKTB+r23QClaPcC904jBBQSy
QDE7lMDK2I3BvB+FQIq9CkHvCqnBwYyfQE8gG0HH07LBGmfdQBa7CUHOLL7BfFfqQIda3EByrbvB
7rjbQEEd0j8vIZrBKOz/QNcGsD9IFqXBc4ABQfZ1Rr/nvJ3BCKjOQP/MJL8w5ZfBq0ehQBqDqr5D
lrPBSszXQDJzuz0Ln7bB3rCbQKq//r9C9ZjBrIebQKYS7kDu1LnBcdKdQNxGmT+i/KTB5IupQDce
gkAE24bB8UPYQIqOSUCo44rBD7jYQJdAnkBMF4vBmtnKQPL6jMBZY6LBTaHmQBGxSMB995rB3lPf
QBoYJkBWfrPBtAOoQEziGECNCbfB35vIQCcMz0Che6XBDf2PQNRhy0D+yKfBSDfWQEpIoUBccLXB
37KdQGIRnkAB77fB8+hZQE/KZUCNtqnB1bpcQK7DbEBzAYzBOwkaQKgPW0Ch2ZbB

>  <OMEGA_E>  (5) 
OGEzP9DGCD94YyE/

>  <OMEGA_NBR>  (5) 
     41248

$$$$
50253516
     RDKit          3D

 71 73  0  0  1  0  0  0  0  0999 V2000
    6.6429    3.6277  -19.7570 C   0  0  0  0  0  0  0  0  0  0  0  0
    4.3960    3.5577  -19.2569 C   0  0  0  0  0  0  0  0  0  0  0  0
    6.7366   -1.4015  -19.3017 C   0  0  0  0  0  0  0  0  0  0  0  0
    6.5311   10.0521  -22.8069 C   0  0  0  0  0  0  0  0  0  0  0  0
    7.7455    9.4288  -22.0922 C   0  0  0  0  0  0  0  0  0  0  0  0
    5.2298    9.8449  -22.0019 C   0  0  0  0  0  0  0  0  0  0  0  0
    5.5361   -0.9877  -22.7514 C   0  0  0  0  0  0  0  0  0  0  0  0
    7.4929    7.9461  -21.7852 C   0  0  0  0  0  0  0  0  0  0  0  0
    4.9972    8.3529  -21.6957 C   0  0  0  0  0  0  0  0  0  0  0  0
    5.8357    0.4869  -23.0320 C   0  0  0  0  0  0  0  0  0  0  0  0
    6.5828   -1.5520  -21.7904 C   0  0  0  0  0  0  0  0  0  0  0  0
    6.7469    0.7029  -20.6616 C   0  0  0  0  0  0  0  0  0  0  0  0
    6.2116    7.7977  -20.9316 C   0  0  0  0  0  0  0  0  0  0  0  0
    5.7905    1.3131  -21.7301 C   0  0  1  0  0  0  0  0  0  0  0  0
    5.8566    3.8506  -21.0390 C   0  0  2  0  0  0  0  0  0  0  0  0
    4.0587   -2.6441  -19.5888 C   0  0  0  0  0  0  0  0  0  0  0  0
    5.0145   -2.9059  -17.2601 C   0  0  0  0  0  0  0  0  0  0  0  0
    5.2683   -4.7390  -18.9435 C   0  0  0  0  0  0  0  0  0  0  0  0
    6.0272    3.3824  -17.3223 C   0  0  0  0  0  0  0  0  0  0  0  0
    6.1734    2.7786  -22.1124 C   0  0  0  0  0  0  0  0  0  0  0  0
    5.9826    6.3511  -20.4718 C   0  0  0  0  0  0  0  0  0  0  0  0
    6.1366    5.2732  -21.5876 C   0  0  0  0  0  0  0  0  0  0  0  0
    5.2438   -3.2139  -18.7598 C   0  0  0  0  0  0  0  0  0  0  0  0
    4.4539    3.7514  -20.6300 N   0  0  0  0  0  0  0  0  0  0  0  0
    5.7005    3.4442  -18.7514 N   0  0  0  0  0  0  0  0  0  0  0  0
    6.5952   -0.7613  -20.5434 N   0  0  0  0  0  0  0  0  0  0  0  0
    3.2859    3.4919  -18.5683 N   0  0  0  0  0  0  0  0  0  0  0  0
    7.8640    3.6315  -19.6412 O   0  0  0  0  0  0  0  0  0  0  0  0
    7.0925   -0.7662  -18.3142 O   0  0  0  0  0  0  0  0  0  0  0  0
    6.5526   -2.7502  -19.2265 O   0  0  0  0  0  0  0  0  0  0  0  0
    6.7055   11.1309  -22.9320 H   0  0  0  0  0  0  0  0  0  0  0  0
    6.4184    9.5818  -23.7949 H   0  0  0  0  0  0  0  0  0  0  0  0
    8.6302    9.5178  -22.7397 H   0  0  0  0  0  0  0  0  0  0  0  0
    7.9252    9.9671  -21.1499 H   0  0  0  0  0  0  0  0  0  0  0  0
    5.3017   10.3989  -21.0543 H   0  0  0  0  0  0  0  0  0  0  0  0
    4.3808   10.2279  -22.5870 H   0  0  0  0  0  0  0  0  0  0  0  0
    4.5376   -1.0783  -22.2988 H   0  0  0  0  0  0  0  0  0  0  0  0
    5.5637   -1.5525  -23.6949 H   0  0  0  0  0  0  0  0  0  0  0  0
    7.3691    7.3939  -22.7285 H   0  0  0  0  0  0  0  0  0  0  0  0
    8.3503    7.5369  -21.2307 H   0  0  0  0  0  0  0  0  0  0  0  0
    4.0925    8.2403  -21.0803 H   0  0  0  0  0  0  0  0  0  0  0  0
    4.8710    7.7994  -22.6379 H   0  0  0  0  0  0  0  0  0  0  0  0
    6.8372    0.5726  -23.4788 H   0  0  0  0  0  0  0  0  0  0  0  0
    5.0860    0.8797  -23.7346 H   0  0  0  0  0  0  0  0  0  0  0  0
    6.3375   -2.5985  -21.5567 H   0  0  0  0  0  0  0  0  0  0  0  0
    7.5752   -1.5048  -22.2626 H   0  0  0  0  0  0  0  0  0  0  0  0
    7.7851    0.9290  -20.9460 H   0  0  0  0  0  0  0  0  0  0  0  0
    6.5258    1.1612  -19.6864 H   0  0  0  0  0  0  0  0  0  0  0  0
    6.3444    8.4142  -20.0302 H   0  0  0  0  0  0  0  0  0  0  0  0
    4.7640    1.3057  -21.3349 H   0  0  0  0  0  0  0  0  0  0  0  0
    4.2186   -2.8614  -20.6552 H   0  0  0  0  0  0  0  0  0  0  0  0
    3.1203   -3.1119  -19.2561 H   0  0  0  0  0  0  0  0  0  0  0  0
    3.9981   -1.5557  -19.4415 H   0  0  0  0  0  0  0  0  0  0  0  0
    5.8517   -3.3079  -16.6706 H   0  0  0  0  0  0  0  0  0  0  0  0
    4.9532   -1.8173  -17.1147 H   0  0  0  0  0  0  0  0  0  0  0  0
    4.0754   -3.3735  -16.9293 H   0  0  0  0  0  0  0  0  0  0  0  0
    6.1008   -5.1652  -18.3645 H   0  0  0  0  0  0  0  0  0  0  0  0
    4.3187   -5.1662  -18.5889 H   0  0  0  0  0  0  0  0  0  0  0  0
    5.4026   -4.9777  -20.0088 H   0  0  0  0  0  0  0  0  0  0  0  0
    5.1056    3.2313  -16.7411 H   0  0  0  0  0  0  0  0  0  0  0  0
    6.7170    2.5452  -17.1399 H   0  0  0  0  0  0  0  0  0  0  0  0
    6.5045    4.3245  -17.0144 H   0  0  0  0  0  0  0  0  0  0  0  0
    7.2551    2.8060  -22.3104 H   0  0  0  0  0  0  0  0  0  0  0  0
    5.6261    3.0441  -23.0289 H   0  0  0  0  0  0  0  0  0  0  0  0
    6.7097    6.1263  -19.6775 H   0  0  0  0  0  0  0  0  0  0  0  0
    4.9626    6.2793  -20.0663 H   0  0  0  0  0  0  0  0  0  0  0  0
    7.1629    5.3096  -21.9819 H   0  0  0  0  0  0  0  0  0  0  0  0
    5.4248    5.4914  -22.3974 H   0  0  0  0  0  0  0  0  0  0  0  0
    3.6651    3.8134  -21.2415 H   0  0  0  0  0  0  0  0  0  0  0  0
    3.3188    3.3473  -17.5794 H   0  0  0  0  0  0  0  0  0  0  0  0
    2.4043    3.5861  -19.0308 H   0  0  0  0  0  0  0  0  0  0  0  0
  1 15  1  0
  1 25  1  0
  1 28  2  0
  2 24  1  0
  2 25  1  0
  2 27  2  0
  3 26  1  0
  3 29  2  0
  3 30  1  0
  4  5  1  0
  4  6  1  0
  5  8  1  0
  6  9  1  0
  7 10  1  0
  7 11  1  0
  8 13  1  0
  9 13  1  0
 10 14  1  0
 11 26  1  0
 12 14  1  0
 12 26  1  0
 13 21  1  0
 14 20  1  0
 15 20  1  6
 15 22  1  0
 15 24  1  0
 16 23  1  0
 17 23  1  0
 18 23  1  0
 19 25  1  0
 21 22  1  0
 23 30  1  0
  4 31  1  0
  4 32  1  0
  5 33  1  0
  5 34  1  0
  6 35  1  0
  6 36  1  0
  7 37  1  0
  7 38  1  0
  8 39  1  0
  8 40  1  0
  9 41  1  0
  9 42  1  0
 10 43  1  0
 10 44  1  0
 11 45  1  0
 11 46  1  0
 12 47  1  0
 12 48  1  0
 13 49  1  0
 14 50  1  1
 16 51  1  0
 16 52  1  0
 16 53  1  0
 17 54  1  0
 17 55  1  0
 17 56  1  0
 18 57  1  0
 18 58  1  0
 18 59  1  0
 19 60  1  0
 19 61  1  0
 19 62  1  0
 20 63  1  0
 20 64  1  0
 21 65  1  0
 21 66  1  0
 22 67  1  0
 22 68  1  0
 24 69  1  0
 27 70  1  0
 27 71  1  0
M  CHG  1  27   1
M  END
>  <OMEGA_C>  (6) 
hZLUQDosaEBJDp7BrauMQDqxY0AQDprB3JHXQGxjs7/gaZrBA//QQD3VIEF+dLbBD9v3QIjcFkHQ
vLDBkVqnQJ+EHUHQA7DBqyexQAXcfL/RArbB78XvQEZG/kAESK7BY+mfQHalBUHMkK3BML66QPRG
+T6ZQbjBq6bSQOyoxr+nUq7BZubXQLLyMz/8SqXBbMXGQCqH+UDWc6fB/Uu5QJkTqD9V163BXmm7
QBZwdkDiT6jBr+CBQIc5KcDctZzB/XagQP75OcDHFIrBmpWoQL+ll8BCjJfBGd/AQJx5WEArlIrB
SYzFQKLUMUBD5rDBxnG/QCE8y0A4xqPB+F7EQKa9qEBzs6zBCc2nQOavTcAAFJbBhIaOQLAXcEBX
CqXBOWq2QK5tXEDkApbB6AvTQGfjQr/2WKTB9ExSQLh6X0Dqi5TBOab7QLBpaEAyIZ3BlfXiQBQl
RL+Ug5LBha7RQJQCMMDcz5nByZPWQDgYMkHEdLfBUmPNQDRPGUHzW77BgBUKQeVIGEHy6rXB8Jr9
QEZ5H0HsMqnBw6epQOBhJkEwb6jBTC+MQJmlI0E7srTB9DORQCAHir8HZLLBkgmyQIS5xr8nj73B
Rc/rQCKb7EDg07XB4ZoFQX8u8UBs2KnBrvWCQGzYA0FjpKjBY9+bQFmU+UBXGrXBmMraQISTEj+i
1LvBQsCiQP41YT9e4L3BjczKQG5OJsAKdKzBHGjyQKubwL+7GbLBxR/5QJ3VbT9/kafBJ9PQQPGg
lD+nfZ3BRgXLQIOgBkHxPaDB0HKYQIkipz/drarBzf6GQBwhN8DcPaXBPLNHQI4pR8CTDJrBZuF/
QNkhx79GiJvB70C7QBK0U8BZXYXB1YCeQAqc6L/36ojBwGmCQKfmV8BEb4fBwznDQLZJpcCU6pLB
ZzKKQFNRpcAFtpTB3+GsQIdJn8AWEqDBOGGjQDfOTkDd7YXBtfHWQJfkIkCTHonBnyTQQPFhikCJ
HYjBhynoQKuVM0Cse7LBpgi0QDLTQkA1O7jBnbXWQMgKxECBa53B7M2eQKXvyEC9h6DBNjblQBjo
qUDf2q/Bv5etQM65r0DILbPBipBqQPoNdECd7qnB6WdUQNc5VkCOoozBw+AZQPqCZUAVP5jBb1jU
QLSgaUBY1p7B+9CMQHgHZkCZeJrB5MbXQIeSsb8LOpnBJ3XcQFmKJkExGK/BoACvQM/tIUFE76rB
xufrQMG5FEE0rrbBDbGvQAdyk78X+rTBThytQEwGDEHoZqXBffHpQFR6/UCKM7HBSX65QJhNmz7J
w7fBnsnQQNS11b+A96zBJYXWQGb1JD8V46TBahO8QLBV9ECJD63BZPa3QMU0mD87qa3BJXW6QFof
cEBqHanBKkOAQBqIEcDosZnByBShQHLNTMD9zYjBmjigQBoJksCRoJnBLSbCQKo/W0DmPovBT4HE
QBD1J0A8OrHBzMW5QI2vyUClCKfBB+zCQAqOo0AQj67B1ValQGAsScDrFpXBXNGNQISeakDkkaXB
zNK2QKZzaUBMgpbBZ6XRQNZ6T791V6PBRYVTQGY8YUA9yJTBDXf7QKgRaECrGJ7Bsy/kQJF8NL8b
r5HB9NvQQDRNLsDv+ZfBYVXcQFbZNUGwb7PBsX3yQESaJ0GUQKjBK9ulQIlrLkEcLKXBZIaYQE0L
IkHjtLHBtV3XQJ19FEF7073BR5EGQYEJGEGeELnBcI6PQL/vm7/KbLHBbOewQEmj4b/1SbzB8QXC
QKI/DEEEU57BvvuLQFbJCEHp56LBNxPzQBGV5EAP/bbBii0AQbkN/UCgaqrBVZ3ZQKB0uj61VLvB
kaahQF9vKj+Sjb3BiGXIQDeXLMD3narBv5nwQGIq1b+pu7DB2bz3QH1FWz+wQKfBdWjPQDKvkz/+
Sp3BgSymQLMW80BU8bPBYRaXQC7/mT+VhKrBxQCDQFeGDsDOdaLBuLFCQPpLLsBlgpfBEkOCQFb9
oL8EXZbBdR67QKf0c8CHeIXBB/+iQNGcC8BYhIXB0hSCQCFqacC6qYbBnPW5QJGapsCRh5bBBwiB
QPIdn8BjMJfBNQCiQALnkMBRaaLBGBalQBxIXkCdS4bB4xPRQFDgG0C4X4rBqsfYQPJ4hkBRoYjB
kynnQOWcKEC/w7LBwjqzQItFNkDcrrjBlZ7RQF7XyUCej6DBR5KZQE/+xUD9maPBQqfkQMzYpECs
DbHBLDKuQL5CpkCwo7XBaWxoQD47akAcXqrBH+NWQP+vX0Cty4zBYY8aQNMeX0CPa5jBggrTQGhM
fUCENZfB0ZqKQD0AcED0PJrBSB3XQE/6AcCa953BD968QEBvIkFB4LfB+9vVQGqKD0G6u7zBcc7E
QMcaJEGcuqvBevCOQGivKL4RDa7BWnvKQOPC9EBqHbfBF/24QG4OD0F0DabBkf+mQFlQlD/vm6/B
tfeuQKLWqb9RfK7BvEzpQH1rGT7RHKfBQQbSQMvG90Dw0arBwcLJQGyRqz+mr6bBN/XLQF9mekBx
TaPBzIaWQGbbCcApVY7BA3bAQLa9isBUuYzB5ht7QBT0hsCb+pfB2RujQJaAeUAK54bBctfiQITH
KkAyPajBLEbDQHTGzkDQBaXB9S/cQGCBpkDcyqjBgsSlQIgwXMAxS5TBsCedQHfEdUD5T6TB5Qyr
QAQRckBCeJLBExjRQMFDj78FYKbBuLRCQJIAaUDujpjB8131QPCGg0CZm5LBA5vzQEUu7b+UWJfB
PUq+QH4NSsCs8p3BGk3HQDFdMUHivLvBNniaQB0LIEGrT7nBuOjNQFM2DkG3R8XB3Fv4QIuJEkHS
1bvBEtfmQEKYJ0FyUKrB+SOxQP8kMUHtcqjBM4N9QGsGJL59PKbBaxhuQEW9kb4lcbTBUZeoQJtb
7UCFm7jB+ZneQAMJ20DEZbrB87PAQMV8EEEQf53BZ3qWQI0oDEHuAKfBoKe2QPTxkz+efbfBkxuQ
QEUS/z8IMq/BUy+eQC9VEcBTz6zB4W+9QGrBr7/Nf7bBoCH7QFUfNT5gsq7Bmdr/QE4sYD4EYaDB
22T0QDKK/EDYVqnBhOS5QPuBrT/71J7Bgp6DQJ7Lw7/H0pPBv6yCQI0RHMBybofBmoyyQAory78V
iovBju3KQOmPp8CsC5HBYqjcQKLJccB67InBh8isQNUilMDX0IXBYWCHQDUzpMA5N5zBbVhUQJKd
j8Cj9ZDBnghVQLRrZcBmYZ3BPwiBQDDBbUDGQYXBCqK2QKoUSkCamoLBMLyrQCoenUC0MoTBdzMB
QdQFJEBMb6TBHf3mQH7XNUAf3rDBKlTIQOvn0kAXYJzBBf+gQOHmyUArnKbBDEr+QMvAqkA346bB
zUbYQIQgo0A/f7HBAA6NQC+jdkCnOavBEkssQFZyZEAqFpHB2isaQNQ3aECav57BCfXOQFoBcEDA
9ZzBImSIQHPEVEBGAJnBv7XYQFhqTr/m4JrBwNvIQJKCIUGn27bBIPnrQDTJE0EFOLzBZLXJQN4O
H0HpkqrB0z+uQOUTPb8No7XBAnvnQN0Y+EBHE7nBNhrFQFZ4B0EDcKfB9Aq0QC++Qz+ib7jB8MDT
QElio79Jxa7BhiXjQFxwgj/waqjB8qnoQMN580C0yazBnRu7QI+wyz87Fq7BToq0QOJLgUCmC6fB
tHCvQJWZDMATf4fBhroAQVLQFcB7l4jBmXXTQCHjhsAnYY/Bwza/QE4lO0ApTorBpzrAQC0aR0A+
r7DB9F7lQD5RxEDhYqnBbTi3QAprsUB2DarBDFvWQItbK8D3PY7B2UKIQE0fcUDPk6PB1c+yQJDL
T0AVX5XBmwjbQJ/iv77alaXBzCVMQDV4QECsiJPBXgr2QLWIc0Ac/ZvBFX3aQKT/2zx6qpPB2MPU
QFMlCsAQKpnB+B7OQAlrMkGw6rjBjGOpQDBkHEFl27nBeCTpQAtEFUGF9cTBxMcFQa+fGUFgqLnB
kkLoQAc9JUGie6fBbB2vQEA9KEEFFqfBrjuQQGDfXL8gJrHBipasQMuiqL+2G73B/t7IQCeq60Cn
HLzB0AEBQcq+5UBTmLzBm7PHQKr9BUFbsZ7BBJmlQFGdAUFBDarBA/XPQBvDYT/btr3BFzaXQEaH
kD+gjrzBO9TLQJYbEsAI06vBi+vwQBKNqb+orrPBztv+QALViT/60q3BDsHpQP/HzD8VIaHBd9sD
QaO8/0Bv/6nBSzOfQH8Luz9Y06jBMZORQL66HMDxsYvB1uivQERvLMD5S3/BI1OxQCXBjb+bX4bB
xyEOQZpULMBZjY3BjP0BQYBToL82eofBZkgBQXK4NcCXwIDBLrLuQL+NksBSIZTBMD3UQEevlcCx
ZYfBi1+1QAtsj8Ala5PB6zajQLnFIkCY7YXBcXLYQJgQCkD6YYrBX0LLQPAsdUAFVobBxbThQCkw
U0Af8rLBbyarQCf8VkBicrfByFD6QANMsUAyn67Bvn7wQDahwUB4EKHBQoirQGVItUD/S7LBCYei
QG2Fw0C9jqTBEFVcQLF8eECIHajB0aRRQHYYK0BKBozBcUgSQDNbRkAn35bBtUXSQNe5d0DIpJ3B
iZKKQBXXYUD4WZrB5z4AQS721b9Y8qTBg4XqQI1UJEF6tLLBomLHQJuGJEG8CqrBSbLhQDXXEkHC
FbvBa6STQFMnLL9lQ6fBhGzDQCWCDkFnnKTBLWbeQHaF+UCsw7XBv5iXQGfKOj/IMazBlUm1QMMp
zr+YLqzBi67mQOf9qT6hba/BFV+7QJXv+ECC6azBPZvFQFTWpT8FbqrBVqK6QNZ5d0BbXKjBrbXe
QIj6CsCff4/BqloVQduAQ8Dq1JHB8qTrQKo4k8DZupPBaay8QKb5YkBgVIrBFQXLQJkCLUDXi6/B
Ch+6QEvazUDG16bBSEjAQE+fpkAITq7Bj737QL9HSsA5ypXBV46NQG53bUBUXqXBXRazQJkVb0Cc
wJXBZ47gQBnDgr9r6KrBUxBOQGsaT0BJTJXBR+74QHYwgEBcUZzBdfERQeCkk79/8aPBhzL4QFz1
O8DwSqHBX07rQLUBNEFVs7bBptMEQUk7IUHa5q7BBHzPQCuXMEGU9qPBpJmoQIKoKEF6xq3BG2rD
QHtsFkG6Mr/BA/f7QMGhEkEZ8cDBfcCYQOq6G79Vkp7BIe5mQAUbib/R3KjBl0DhQNsOC0HHRKDB
nouoQErtDkHE7p7BxU3WQCqV4UDu47vBFnP9QP1y8UDGJLLBYQuRQA+sKz/n07TBwzeAQGVCsz+j
Y6jBxB20QClqJcAsGqjBGGuuQPLV37/qvbTBcC3iQIzZmD7bJrjBFpsDQc5mLz8Qm63BZQmcQFBS
/kA/sLDBUafLQBKErz8fyKHBZZG9QLx3EMATYpLBk93fQNiGGsCy64bB2ivqQElSkr+DvZDBe2wf
QSiQcMA2WJbBazcbQXrhAcDdFJPBSBAWQS0/U8AMQ4nB9tr/QIsMqsCxIJjBOEntQL87msCzHYvB
sVXKQBEnlsCdepbBnZSeQD7vXUDgzoXBGGrPQJT9J0CzRInB1jTPQPL4jECzXofBSDntQEBtN0Ck
KrHB6Rq5QAJRLkCaHrfBDM3TQLrIzUD/0qDB4fKaQMvuykA20qLBu7bgQAHKp0CYtrHBf5KoQItZ
qEBuy7TBkKhpQGLIbkCgcarBsClOQP7iSED5VY3BCb0XQJEGR0CtZ5nB8sjUQNjCcEDLCZzBnKyL
QIksZUCkLZrBk4z2QKiS27/3M6fBnqLNQPu2HUGs+rnBfS73QN9dFkGBZ7TBjQ+nQBCYHEEERrLB
vVmOQASr6L5J66nBgfnxQHBl/0CF26/BP6uhQFzXBUEMsK3BRsCWQBfjez9auK3BM9StQJ86tb8g
Ya/BL97kQIy80j7M47DB7kbLQIwT/UA6CajBKujFQLjwsj9COKvBf2LAQFRqfUBVCafB79H9QJfI
lr9eIZHBMuwNQcm/YcCi95PBNPvOQNs5TMCUeI7B/Py4QKFnUEB5fInBy7bPQNiJNkDi967BAvDF
QNHJz0ClOKPBqjnLQPpJq0D5navBvwv0QNimJ8DuSJXBV0mSQI0teUCS6KTBQS+zQJtJZ0BKz5TB
SGfaQCRfeL/aj63BvUZMQFzHVEB395XBoy77QIjKcUBFAJrBy6gOQcivyL+3UqjBtlTlQBA6KcDb
ZKDBhqHRQEZQLkGnurzBN3THQFNIE0Fo5cDBnMEIQfduFkGQPrrBIa/+QNl3IUGh1q3B2zKsQEjg
J0GCpKvBBNWJQBELIUG5pLbBBqCSQPNBAr/vMaHBDclaQM/uPb/A+6vBF7LsQBfh6EDSfbbB76cH
QQ989kD3iKvBVTiHQNTNBUGG4afBnE2aQBRo9UByP7TBCUKRQMu5hT8RZrbB0cOAQPWS1T+skanB
0aSpQGM6G8C/C6zB+1SnQIXUt7/UBrjBl0LhQLcmAT+knLnBegYDQUpOJT/noK7B2Y3RQD6yCUH6
aaHBIxPLQAvbqj+gh6LB/0XhQOviC7/QHpLBSUcDQapunL/wnIjBDkMMQS0YQL8zu5XBADoKQV8x
kcCw7JbBVVUbQf/2RsBDlJjBkFkSQUkoZcAAdovBpU7HQF+thsDYNJHB76rYQJMqTsClA4bBDJyy
QLolI8BWWI/BWpWZQNkETUC5iIXBHfPIQJ3REUAR7YjBq8jMQH+hgECwh4XBG4jyQNjePEDO/a/B
zL2/QOj7QEBgs7bBgCzeQHRry0AA75zBnMqlQFpizUDNr5/B0JnsQL0Kq0Coaa7Bpsy1QEXNsUAV
aLLBUnF2QCWMgUA7UKrBqlpHQOQNSECKJo7BYe8XQFH/VED7kZrBgYLSQKvibUBkjZ3BWnGKQDze
X0D+D5rB1u/LQG2BWr/2TJjBjCPgQJrKHUGHFrjBhLr6QKyEGEGgA67B6NKvQMa7GkET/LXBW4mp
QGfcbL8DtrPBlqTxQI6XAUE2LKrBL2ymQMXQA0ENKrLBE220QPbCBT+fPLfBSo/LQLaXvr+u7KvB
gZHfQFGcUD8wgqbByBbBQNPU/EDbCKjB2e+6QAtUtj+LR63BTDq6QFKFfEC0+KfB6LKYQKek9r/2
HYXBpM/pQHpmFsDrkITBvXK3QDzBg8DzQovBCdO9QPWTRkC6nIrB4urEQKm2OECYvrDBpJG3QLIV
z0BvAqTBsZPDQDqEq0BtQKzBVnS/QEnbJcBx14rBjvuMQGepdUB62KTBrhG0QFgFVkDs95XB39PS
QBUNB79MHqPBSf9MQOFwVUBd0pTB+2r5QCY0ckCkTpzBY4rOQDaEAD1Bg5HBgsXCQLmzCsDv/pXB
iAzmQA2ELkGTZbrBagfqQJYgE0Eyo77BfHoOQcoLGkGQ66/B7VjyQGrWI0EQnKfBdXGlQCAfJkEf
zK/BHQ+eQIXKHUEkbb3BQzaKQFbHbL9msq/BzRioQP/DyL8q17rB1xj8QBls7EAJW7DBc78BQSQ2
/UCovKLBIiyEQKRjAkFfQ7DBnayuQMT58EBak7jBb/rRQMVpAz9iBLzBYQCaQEToaz+FGLzBVTjA
QG1nHMBsmajB4rjpQCGN07+IRLDBFOv8QP+QQT8IWKvBXmzlQJPKuD8gcJ/BmaW3QBetCUFdsqHB
FFydQPLptT8jgqjBYrp2QMZlB8CevYnBZjqVQKiNFsDeGHrBkhqeQKCzV7/ogoTBA0ICQdg0NcBC
0IjB3drvQHJvor/E9IPBsfrmQHnYMcCW/HjBS3vSQEKMk8CQSI/ByFu0QIxEkMCZEoPB4cyZQPMr
isDKuY/Bh1SgQLSlNEAvXYbB00zVQIplEkDp8InBkiXLQESTgEDrCofBCTXnQHFIPUArprLBaP6x
QB14R0CG7rfB9fLJQDaZyUCAoZzBnieVQBGozEBNQ6LBS+vlQFz8rUDLFK7BFOuwQD6TsEAOm7PB
IfpnQMsmf0DFsqnBsBxOQPDEREBkGY3BwwYVQOknXkCUi5jBfMfUQAVBb0Dh35zB8bWLQISXbUDr
fprBLKb0QDL8478nE6nBdJTYQNcvJkEtZbHBjmiqQInnIEFQ/63BuYLsQGm2E0GD17fBZSmXQDu9
Nr89P6bB3QGpQEIFDEExkafBeBbrQMlu/UAke7HBQLyeQHhJSz/QgafBfu6qQLJ2vb8moq/BNGXg
QBiSgz5rKrPBEY+8QEn58kABEq7Bmb7NQA+SmD/FbqrBzcC/QCKHcUAx1afBcv/wQMu+vr9vYZLB
2MAHQZ3rcsDvYZXB6QDAQH2hYMB9ZZPBhQC6QI+VakCE14nB5O7PQKEAKEBhHK/BEJS6QMWNykBZ
LqfBaT3JQBYqo0CNoK3BNYHpQGTyN8CC85fBLLqRQLJmbEAsiaXB8b2zQFTrckBgb5XB5YDYQMOx
kL+rCrDBJNtMQMPAaEAoxJXBflP7QJMGb0DZDZvB9SoNQWIJuL/eoajB+6LkQFlzNsCMkKPB9lLY
QBe1NEEbXrbBBgHsQD8GKUHeMarB7+2dQEEFLkEJB6nBWGiWQOArH0HLL7XB5o3aQHWpEUFKV7/B
lwIHQVqlF0HzrrnB1uWlQMQzh79QvZ7BQRFpQGe2aL/TAabBh0y7QO0WDkHBHqDBhYuHQDMsCEET
oaXBQ233QKNK40CcgLbBGCf/QO1OAEFuS6rBDYSJQAXtlD9N4K3BOGWWQPUwpD9c55/BwzinQLAH
JMD4Y67BjyybQKZLmL/VJrfBab3QQJf97D6W37rBgoQBQWIs2z7r67PBdi2pQGsA7kByT7XBsMfh
QHxAkT82NqPBIADWQETzUb/LJ5TBbHLzQIdV0b/crYnBs2gHQVWMhb/5ZJXBjVMFQXO0mMDdP5nB
i5wWQQPUVcD3YpjBDu0IQZy4e8Daq4zBxmy6QG90j8BdQZfBvnPDQNDHacC6torBU7ikQD4ENsCQ
/ZTBJe2aQKu+b0BewoXBNW7IQDL4K0DFD4jBPVrPQP/kjkA/BIfBhJLxQKxhNUAkF7HBwaO8QBff
KEBueLbBC57PQE6RzkCYMqDB5neZQK6VxUDpdqTB+e/rQCyGpUB7/K7By324QCsVo0D9XbXBHPN0
QESpaEAXA6vBs1hJQEygaEA+x43BV2MXQKkuZUDlI5rBQKPSQH6vbkAni53BkpOKQGIpYEBDEJrB
Y4jLQFnaWr+vGpjBfd/fQFnYHUFaJbjBbnX6QIahGEEOEK7BGZGvQGe9GkGTDLbBNBiqQAdpbL+k
x7PBJ3bxQIe1AUEHNKrBlUSmQCXSA0EBOLLB/W+1QEzGBT87Q7fBSBbLQAMhvr9et6vBj6feQLAQ
Uj9OPabBZunAQOD3/EAbFKjBId+6QFThtj/sSa3BxVy6QH3UfEDI+KfBtw7oQPYqFsDZ/4PB7ygI
QabMMMDZaZXBZZTWQIw3i8AfY4/BLP69QDBJR0CLmorB2j3FQEXlOEA6uLDBpHu3QJ87z0CTCqTB
z5bDQLamq0C2RazBrDnkQExmN8AIrI/BOR2NQB/GdUAo2qTBWzW0QBDJVkDv9JXBDmPRQIFOBL+E
7aLBU0RNQKh/VUCF1JTBfJD5QD6YckCWUJzBqRjNQKQ8FjysIZHBmwXDQGX5CcBLnpXBLLflQLeR
LkFLd7rBVtTpQDIsE0GKr77BwFcOQS4wGkHl9q/BeAPyQG72I0E9q6fBWx6lQAQhJkGP3q/Blc6d
QP/CHUHEfr3BJEiKQDyya79sA7DBQoipQJ7tyL9F5rrBlgD8QKii7EBBX7DB6KQBQeyK/UA+wqLB
GgSEQG9aAkHTU7DBw5yuQC768EDenrjBZoPTQIigAj9z1bvBsZWbQMyqaz+xULzBSzm/QFriG8BB
bKjBebzpQCIU1L8h0q/BOY/8QID8QT+d2qrBgbjjQNLKuT+hJJ/B+GK3QHvACUFvwKHBdcKcQBbR
tj8/u6jBcMbIQGwUG8ABA4DBoa3/QGH5PMCtRX/B5nHyQP/Ppb85FYTB1KQGQTZ1SMC8qp3BfGYN
QR0z27+WiZXBWQQUQfCqV8AzF5HB8LzTQPJql8BtnJfB6cPuQJTzncDeCIvBIoW3QO4cjsBoT4vB
YoKgQJtWNUAcWobB93fVQCAZE0C+8InBn1PLQGjrgEAmCIfBI5/nQBQbPUB+iLLBpKmyQPDeR0Cx
9LfBstvJQGvSyUCOqJzB+RGVQPu8zECBTKLBduzlQK0zrkCUGq7B5emwQJecsEC6oLPBuz1oQBYJ
f0BBtqnBRWNOQJn6REA/Go3BakoVQLHhXUB0kJjBg6jSQH8taUBiHpzB8TiKQPfHWUADXpnBYEvK
QFnZeL+meZvBQmzsQM4LIUHaEbHBV8jAQIq2H0HWUavBkTTsQPKzE0GLd7vB7HarQMvPG78o/LbB
Bi21QM5QCEE846jBq5vgQDZv+EAOJbnBHxW3QJb3YD+S97jB42PMQGxApr+Tka/BICfgQM/VZT92
wafBVNu0QFZQ9UBNTrPBsYq8QC1rzz8oJ67BGcy7QFJsgUDwaabB60OUQB4lFMAx7InBpCXlQKx/
McDzI4nB10azQDT1jMCR75HBQY27QJmHL0C7GYrBXC/HQAvHR0ABHbDBCvaoQOcGxkA4B7HBwcDG
QDO0sEDyl6jBMpm7QMicOcBk8o/BjDOOQB+tekBgp6PBmj6zQJigSkBWL5XBeLXSQMR9975A06XB
KylLQA7SSkCQn5TBT2n5QGofa0DKhZrBSDDMQFfETL4h2JPBIYbAQLi4E8BUkJrB7zbzQIzaMUGQ
DbPBYL8CQRXmGkFOtqvB4X/CQO+3KEFlxaPBM/SnQCq6JkFyerDBUIXUQAF4GkFqB8HB5RUGQcdY
FEE5I7/BRqmLQOAKKb94PLPBbsWqQIJ1kb89tL7Bj+LMQPmkAUG7TaPB2zuVQOPBB0FgM6XBcr3e
QEvJ5kCWvsDBnZL5QAUx6kCCELTBzzbVQCwCbz++fr3Bv1udQKjGrT8GmL3BOnnAQHbZEsCITq3B
ow3rQPGKs79Ez7PBdxn+QFKjZz9bYazB8zjlQHJ+tD9+EqDBh0mcQHVVAUGLprjBGmCeQPruxj82
pqnBZApvQNjYGsCl7o7Bc5uPQNURN8AAX4LBCtyZQF0IoL+5M4jBpCQAQdl/TMBBnY3BTWDrQIwz
27/saYfBtR/hQG2nVMAzlYHBNLXOQNH2msAyMpbB2wCvQAFgncCnOYrBxjCWQM3GkMCczJbBCXmd
QK48GkBoYobB0q3SQBjq9D+ZGIrBjrnIQNGkZUAYiYXBfKvpQOqDTUDQubHBQAq1QDzGXUCGIrfB
FdyHQCLexECXDK7BmT+rQBvgs0DVi7jBevfDQP+NwkCGCqHBVOnnQHaAskAxg6vBaJ1rQCQxhUDd
cajBXCZKQIQMMkB4P43Bd0AUQCYtWED2YJjB

>  <OMEGA_E>  (6) 
7K3aPvDs0j6+2kc/EEhJP7TiUD+ciFM/iC01Pyj3NT8shzk/WDs7Pw==

>  <OMEGA_NBR>  (6) 
     52640

$$$$
50253512
     RDKit          3D

 69 71  0  0  1  0  0  0  0  0999 V2000
    6.5708    3.7360  -19.6413 C   0  0  0  0  0  0  0  0  0  0  0  0
    4.3003    3.7489  -19.2746 C   0  0  0  0  0  0  0  0  0  0  0  0
    6.6790   -1.6576  -19.3250 C   0  0  0  0  0  0  0  0  0  0  0  0
    6.8408   10.4020  -22.2604 C   0  0  0  0  0  0  0  0  0  0  0  0
    5.4162   10.1101  -21.7527 C   0  0  0  0  0  0  0  0  0  0  0  0
    7.4020    9.2167  -23.0681 C   0  0  0  0  0  0  0  0  0  0  0  0
    5.4202   -0.9944  -22.6292 C   0  0  0  0  0  0  0  0  0  0  0  0
    5.3888    8.8222  -20.9196 C   0  0  0  0  0  0  0  0  0  0  0  0
    7.3654    7.9201  -22.2455 C   0  0  0  0  0  0  0  0  0  0  0  0
    5.7175    0.4796  -22.8514 C   0  0  0  0  0  0  0  0  0  0  0  0
    6.5325   -1.5758  -21.7737 C   0  0  0  0  0  0  0  0  0  0  0  0
    6.7217    0.5812  -20.4676 C   0  0  0  0  0  0  0  0  0  0  0  0
    5.9264    7.6372  -21.7427 C   0  0  0  0  0  0  0  0  0  0  0  0
    5.7778    1.2601  -21.5164 C   0  0  1  0  0  0  0  0  0  0  0  0
    5.8716    3.8205  -20.9826 C   0  0  2  0  0  0  0  0  0  0  0  0
    3.9718   -3.3277  -17.0907 C   0  0  0  0  0  0  0  0  0  0  0  0
    5.8112    3.6856  -17.2414 C   0  0  0  0  0  0  0  0  0  0  0  0
    6.2629    2.6738  -21.9247 C   0  0  0  0  0  0  0  0  0  0  0  0
    5.8734    6.3818  -20.8663 C   0  0  0  0  0  0  0  0  0  0  0  0
    6.2145    5.1376  -21.7024 C   0  0  0  0  0  0  0  0  0  0  0  0
    3.7060   -3.7067  -18.5623 C   0  0  0  0  0  0  0  0  0  0  0  0
    4.4909   -2.8131  -19.5341 C   0  0  0  0  0  0  0  0  0  0  0  0
    4.4428    3.7698  -20.6561 N   0  0  0  0  0  0  0  0  0  0  0  0
    5.5710    3.8239  -18.6812 N   0  0  0  0  0  0  0  0  0  0  0  0
    6.5375   -0.8874  -20.4758 N   0  0  0  0  0  0  0  0  0  0  0  0
    5.9102   -2.7973  -19.1496 N   0  0  0  0  0  0  0  0  0  0  0  0
    3.1520    3.7017  -18.6495 N   0  0  0  0  0  0  0  0  0  0  0  0
    7.7814    3.6897  -19.4531 O   0  0  0  0  0  0  0  0  0  0  0  0
    7.5451   -1.3962  -18.5000 O   0  0  0  0  0  0  0  0  0  0  0  0
    6.8160   11.2940  -22.9037 H   0  0  0  0  0  0  0  0  0  0  0  0
    7.4968   10.5902  -21.3978 H   0  0  0  0  0  0  0  0  0  0  0  0
    5.0761   10.9502  -21.1295 H   0  0  0  0  0  0  0  0  0  0  0  0
    4.7423    9.9966  -22.6147 H   0  0  0  0  0  0  0  0  0  0  0  0
    6.7969    9.0828  -23.9769 H   0  0  0  0  0  0  0  0  0  0  0  0
    8.4429    9.4345  -23.3494 H   0  0  0  0  0  0  0  0  0  0  0  0
    4.4553   -1.1065  -22.1130 H   0  0  0  0  0  0  0  0  0  0  0  0
    5.3815   -1.5170  -23.5963 H   0  0  0  0  0  0  0  0  0  0  0  0
    6.0152    8.9559  -20.0253 H   0  0  0  0  0  0  0  0  0  0  0  0
    4.3535    8.6107  -20.6138 H   0  0  0  0  0  0  0  0  0  0  0  0
    7.7003    7.0825  -22.8749 H   0  0  0  0  0  0  0  0  0  0  0  0
    8.0379    8.0208  -21.3809 H   0  0  0  0  0  0  0  0  0  0  0  0
    6.6863    0.5744  -23.3636 H   0  0  0  0  0  0  0  0  0  0  0  0
    4.9259    0.9117  -23.4813 H   0  0  0  0  0  0  0  0  0  0  0  0
    6.3588   -2.6513  -21.6215 H   0  0  0  0  0  0  0  0  0  0  0  0
    7.5005   -1.4280  -22.2747 H   0  0  0  0  0  0  0  0  0  0  0  0
    7.7671    0.8160  -20.7167 H   0  0  0  0  0  0  0  0  0  0  0  0
    6.4875    0.9696  -19.4655 H   0  0  0  0  0  0  0  0  0  0  0  0
    5.2733    7.4885  -22.6152 H   0  0  0  0  0  0  0  0  0  0  0  0
    4.7652    1.3329  -21.0929 H   0  0  0  0  0  0  0  0  0  0  0  0
    3.3923   -3.9898  -16.4306 H   0  0  0  0  0  0  0  0  0  0  0  0
    5.0440   -3.4386  -16.8716 H   0  0  0  0  0  0  0  0  0  0  0  0
    3.6689   -2.2840  -16.9206 H   0  0  0  0  0  0  0  0  0  0  0  0
    4.8609    3.7951  -16.6984 H   0  0  0  0  0  0  0  0  0  0  0  0
    6.2392    2.6936  -17.0349 H   0  0  0  0  0  0  0  0  0  0  0  0
    6.5142    4.4643  -16.9107 H   0  0  0  0  0  0  0  0  0  0  0  0
    7.3610    2.6480  -21.9846 H   0  0  0  0  0  0  0  0  0  0  0  0
    5.8467    2.8981  -22.9179 H   0  0  0  0  0  0  0  0  0  0  0  0
    6.6005    6.4795  -20.0467 H   0  0  0  0  0  0  0  0  0  0  0  0
    4.8619    6.2728  -20.4481 H   0  0  0  0  0  0  0  0  0  0  0  0
    7.2921    5.1471  -21.9227 H   0  0  0  0  0  0  0  0  0  0  0  0
    5.6474    5.1810  -22.6440 H   0  0  0  0  0  0  0  0  0  0  0  0
    4.0062   -4.7531  -18.7199 H   0  0  0  0  0  0  0  0  0  0  0  0
    2.6310   -3.5985  -18.7689 H   0  0  0  0  0  0  0  0  0  0  0  0
    4.3924   -3.2081  -20.5560 H   0  0  0  0  0  0  0  0  0  0  0  0
    4.0895   -1.7896  -19.4963 H   0  0  0  0  0  0  0  0  0  0  0  0
    3.6943    3.7530  -21.3190 H   0  0  0  0  0  0  0  0  0  0  0  0
    6.3253   -3.6180  -18.7571 H   0  0  0  0  0  0  0  0  0  0  0  0
    3.1258    3.7181  -17.6500 H   0  0  0  0  0  0  0  0  0  0  0  0
    2.3005    3.6492  -19.1712 H   0  0  0  0  0  0  0  0  0  0  0  0
  1 15  1  0
  1 24  1  0
  1 28  2  0
  2 23  1  0
  2 24  1  0
  2 27  2  0
  3 25  1  0
  3 26  1  0
  3 29  2  0
  4  5  1  0
  4  6  1  0
  5  8  1  0
  6  9  1  0
  7 10  1  0
  7 11  1  0
  8 13  1  0
  9 13  1  0
 10 14  1  0
 11 25  1  0
 12 14  1  0
 12 25  1  0
 13 19  1  0
 14 18  1  0
 15 18  1  6
 15 20  1  0
 15 23  1  0
 16 21  1  0
 17 24  1  0
 19 20  1  0
 21 22  1  0
 22 26  1  0
  4 30  1  0
  4 31  1  0
  5 32  1  0
  5 33  1  0
  6 34  1  0
  6 35  1  0
  7 36  1  0
  7 37  1  0
  8 38  1  0
  8 39  1  0
  9 40  1  0
  9 41  1  0
 10 42  1  0
 10 43  1  0
 11 44  1  0
 11 45  1  0
 12 46  1  0
 12 47  1  0
 13 48  1  0
 14 49  1  1
 16 50  1  0
 16 51  1  0
 16 52  1  0
 17 53  1  0
 17 54  1  0
 17 55  1  0
 18 56  1  0
 18 57  1  0
 19 58  1  0
 19 59  1  0
 20 60  1  0
 20 61  1  0
 21 62  1  0
 21 63  1  0
 22 64  1  0
 22 65  1  0
 23 66  1  0
 26 67  1  0
 27 68  1  0
 27 69  1  0
M  CHG  1  27   1
M  END
>  <OMEGA_C>  (7) 
KETSQKgab0BKIZ3BzZuJQObtb0BnMprBr7rVQLAs1L+VmZrBkOfaQL9uJkFNFbLBl1GtQODCIUGf
Ba7BBN3sQMx3E0F0i7jBBXKtQO6Ofr+BCLXBunCsQMMnDUFSW6fBmbHrQNpx/UDd9rHBk/W2QO2R
9T7Az7bBGArRQK+yyb93MK7BdBjXQKbMFD+uvaPBcKW9QDJk9EAg8a3BW+O4QIVJoT+LIazBRuS7
QL2CdEBO3KfBADJ+QG74VMDHuYjBnvW5QB3ha0Bx7onBvGnIQLYfK0DBZa/BF/O7QJY3zEAs7qbB
ytzGQBFnpECXnq3ByC5tQFA6bcCRf5TBL7WPQPEJNMC/RZzBZCuOQNtDcUCgP6XBY0WyQCm7dEAy
c5XBJDPRQOAuY79yzqPBjiC9QEwGM8BMMpnBq7pJQNnobEA3MpXBRgH5QGIjbEDcn5vBo3HxQHW1
sr8VAJTBRRzaQD20NEGyOrfBE+bvQIxxKUGZLqvBNW+iQDI0L0E5CanBtcCXQOvxH0Hb6rTBY4DZ
QBFTEUG50L/BBhYHQajzFkGHy7rBvZGOQLahjb9g57DBkDWsQJgtwr8xxbzBp3zAQGtLD0HnM6DB
C1CLQEnFCUH+6KTBC2n2QKKj4kDi/7bBN5sAQSpVAEECDKvBgPbVQO0LEz+v6LrBRaGdQPZmaT/B
2bvB7HrLQC6uKcDv+KzBPATwQBvItr+nMrLBZoz4QETlUD+6u6XBVpnPQMo0eD8/uZvBvb6oQHeh
70D/67TBJnyYQIacqj9AvqjBCBxZQPBYf8DOcYPBrGihQD8SXMD7+IbBks5qQL8sEsBMXYfBfoyb
QNzickBRloXBz6fHQHljLEBsR4jBanTQQOLbjkAISYfBFI3rQFJ4KUBq4K/BJxi7QOF5OUDdV7fB
XjfTQHhYz0CTX6DBoZSbQGy6yECilaPBIlnpQFC1pECyYa/BMbe0QBHLpUDkJrXBZjKAQK4ZmMBW
wpXBBWIoQNxNZsCmJpbBqI6MQFhRTcCdcqTBUd2CQNAS5b9m+JvBEW9sQMEwcEBAjarB1mjKQBSO
Z8CMDpbBSQ1IQMP1bUAyM43BhDsTQASNaUCqXpnBsYHTQEdcaEA0qZ3BmguLQMfpakBId5rBidLW
QGIc179WSZrBI7jKQEA2JUEIV7TBmLXqQFy5E0GRrrfBqRa+QB/QIkEpgqjBJk/HQIhjhb/ny7bB
zRbYQHyk+kBCp7XBlASsQEJzDEFtSqbB99m4QGC20T5e47fBEjO2QDpo0L+Le6zBIUXUQO0SBT8t
PqTB8LTLQABt9UCItqnBmXO4QBoEmj+YI63BiJW8QAlocUB9SKjBWOZdQKLKScDQRJfBymW8QBkv
a0AzZorBIO3HQITZKEAXIrDBYBq2QEFJykBKK6fBbgbJQMEcpEDCZK3BsZqMQHSRSMBBaI3B1le6
QGkDacAR64/B8veOQB3obkAth6XBHuGzQCF3YkA05JXB/BrLQEIhcb9JYKPBRoXLQO/DQcDRqpnB
jGRNQHN0bkB1S5XByEj6QHstbEDLPJzB3GfuQI4Smb+ud5PBN4LZQAcANUGci7XBf9StQDHqI0Fi
U7nBOOrxQOBzFUGIQMDBHyoEQYeWFUH7BLPBiYjaQChgJUFQfKPB6aalQHPZLkGiiKbB5Ri7QNPy
z7/Jm73B3nvqQL6air+oubbBcG+7QKs09kCQpLrBYCbwQKdh4kB+xLfBLpelQLbmCkFkrJ3Bh/2N
QMV4CkFixqrBdbDOQJhpaz91dL3BSz+YQIZD1T5SNLvBpV6TQEMovb8YEazBflu9QLEWLcC7LKzB
mU32QBEvKD8xNKbB+knNQFh1fz8Pg5zBot7oQJ5L+EBl1qTBQj6XQI8Xoj/SQ6rBpR8eQE4pMsAt
/5TBPM54QF5vIMDMi53BNnpYQGnUhcDjTJrBGE+eQPoLZECV64XBuBvTQK1cOUCX3YfBpizKQI9X
lUCHy4jB3P7qQD7VJkAD2bDBINe5QI8sOUB477fBMrG5QDLww0Bdj57BF+mTQAzczEBwKKnBRRzs
QE/xpkAyc63BUfi8QL39pECUqLXBlcSOQDd4BsBVbYrBJDV9QKyxccBrLofB7HTPQPEiWcCaKYnB
nGG5QOdul8B7/JDBK29tQArpb0DzvqrBvUzPQGJpZsBUKKDBRr5MQHgRa0BvTo3BxXcWQIuMdEB6
VJnBYGvVQDm+aUDCp53BI0GNQFd8Y0BmAprB5x/XQAK5ub8+2JrBrkzPQBaDIEEiH7fB3Ib2QMMx
F0EkS7HBAdSlQPgkHUEDn7DBYAyvQKQmYL9Kp7bBlE/vQOoS/0A0i67B3z6fQM5XBUFy3q3B+kO9
QKvXED/leLjBlaTMQGLuxr8SlK7BvqTVQFEWMD8gIaXBrXLGQJQ6+kCLp6fBO/K5QLLarT8O+a3B
dfi8QN/dd0AmB6jBODdYQKvWd8CeH43Bsj/AQAm1XUB4PYrBWljIQAoQNED0k7DBY/W/QAkizEAx
taPByMjFQMNMqUCJeKzBkFuKQCTTXMDVJJbBcui4QBHrXMC6IpLBk96PQLnscECc96TBCbi2QP13
XkBBvJXBxifPQI2gR78LgKTBBvbTQNBqNcBVSprBurNSQAtOXEDCtZTBFWn8QGUgakCQipzBLjLj
QNvlVr8z45LB2j3UQNHDMUF9WLjB3e3LQNmNGEHh7L7BrGIJQXieGEExf7bBwvn7QNo6IEGX3anB
WtynQJ5nJkGuJ6nBLWqKQDLLIkEjXbXBvhmOQKH5Yb+KjrPBHTywQCYjtr/pR77BwJfrQJOc7EBz
+rXB9IIFQe/o8kDJDKrBa2CCQOKIA0Fv6qjBBICbQM8l+EBxSrXB0qHeQPs6Ez83RrvBUJioQJL8
gz94i77BhkfAQCjZI8D4z6zBL+DsQGZV0b/uDbLBVZP3QJ6LYj/426bBESvNQPXZkD95XJ3B0F/K
QK9aB0GYkKDBkV6YQEQDsD+5VavBhuMVQImNd8C4EpDBXBlpQO9QnMDAZ4rBDDFeQPq/SsAYaIbB
Sn2iQDC9U0BctYXBfc7WQC6OKUDcd4jBYpvOQDuhjUD37IfBa1HrQATkM0Bgk7HBQhu5QBAwR0BK
JLjBHD/XQNLqxUBnS53B20+fQLtqyUDzfKDBmdTmQF6hqkDJe6/BY2evQKPIr0AcEbPBZkSHQIL5
hMCm2pzBP9CBQCARHMD+2pjBgyW7QIU5OMB6pYrBfHPDQH+Oj8A4tpDB5PFtQOAtdUD+9qnB5iXk
QPIFWsDMdJ/BmLhTQDUyUkC7z4zBV8YaQDLsYEBpjpjBdljUQCEDZkD7Jp7BCCuMQNWiZ0BBe5rB
BMzbQCwmu79NKZrBmK/GQJQEJkGamLLBYNrYQJkeFEGptbnB+DPRQOPIIUEfx6bBMb2pQKCnib8Q
/7TBQw7HQLl7/EBxWLbBT52/QNX8C0EgP6PBmDe2QEq2uD7wtLfBzUfLQAD917+mlq3BsWLWQAG2
Gj9pHqXB0sTQQFuL80CvaKrB0lu3QKyUmz/7dq3ByEG8QIG7cEBpo6jBFvtnQPT/fMA3yorBt+6+
QEHJWUDFvYrBAYrFQPX+KEA52LDBfu27QJXZyUAelqbBtz3IQCuVo0DVv63B8oSQQLnwYcBvJ5TB
3Aq/QCI/WcDsVJDBy/2OQOO2b0CDh6XB9pC1QElpZ0DyHpbBvPjQQAgxW78/4qPB07LYQIuBNcAR
/5jBq2pQQKNMY0A0JpXBSk37QONXY0AyBp3BRjbqQBBuTb86tZLBMtDUQIFlNUFLA7XB+b2jQLOy
JkGLmbPBhfrPQKg/F0GUFMLB/ez7QFTqE0EJ+LjBIiP0QEPxIUGOs6XBOLfCQNpqLkHl1aHBkWqK
QFc+ir9D+7DBwNKnQMtK1b8+Z7zBLjWkQIoq/ECZlbfBRPDVQMBm40DPRbvBNVbJQOv2CEHR7JrB
h3qcQKVKDEFewaPB7w3WQByxuz7HdbvBK5+eQNBiSD/xS73Bb9zAQIp8LMBFNavBKPbpQCCh4L88
3rHBOnD3QHtxTj9grafB2YbQQHm9ij/0VZ3BfqHzQC8s8UC8WKnBcwaXQPbwoT9ZAqrBpnElQOyS
gcBwj43B6CB+QIFyncALpIfBq2FrQJxnTMDWb4TBHB6hQCkiXkBaGIbBVzLNQG0HGkBjpInBAoTV
QGZ9hUD89IfBekLoQHGUJ0D6R7LBpdu0QEI3OUDkUrjBnXTGQGhEw0AfWp7BPPKYQOK4zUCDu6bB
tQDrQA9EpECIH6/BOW+3QLuapkDLcbXBkMeOQPBGicARgZrB8meFQHoQJMDcTJfBW1zAQAx5LsCc
WYnBapTLQJJLjMD9HI7B9FlsQFAfdEDSjKrBRP7nQOpYXMCPE57Br0hRQCtaX0BKKo3B5JMYQIfu
Y0C9DpnBwIXTQEnuakBVx53B0UeLQB/haUAlSZrBriPWQHIO2L9+XJrBCBfaQN29JkEo+LDB0Rmt
QCvIIUH7lqzBFx3rQFIzFEG04rfBmJjKQJ8Xg7/G/bbBYhKtQJavDEEUSqbBvarqQOby/UAfqbHB
N1K7QKcu1j4wEbjBOpy4QFsU0b8F3qzB6XLUQH7CBT8tO6TBCB69QKpP9EAxXq3BBCS5QLNWmT+e
Qq3BF7m7QHNZcUCgTqjBX9FbQAOvR8BsVpjBuIi9QOvYakC4aYrB3N7HQBUTKUA3HrDBqP27QHvf
ykBbwabBK1HFQIjAo0Dt5q3BuxGKQAhaScDxNI7BgQu4QLcXasBXYZDBHW2OQBlvbEAXXKXBRHi0
QAUAY0Bh4pXBkdzLQKYOcr9diaPBO77KQCNFQsA16pnB/nlOQIcwbUCf+pTB52T6QCX+bkD4jJzB
TrXsQDqemr/sT5PB6JPYQLhVNUHH37XBdgrwQNJRKUE+NqrBLfuiQLDbLkFNRafB2o+WQKp4IEE+
UbPBi9XWQAmUEkFRCL/BTBIGQaLOF0ECVrrBmZy/QBtxzb8J8b3ByMPtQPp5hb/JprbBhDXCQBNJ
DkFXTJ/ByU+MQCstCUEml6PBlbv0QCrf40BXArfB0oIAQaMXAEHd4qrBmHPRQDMVcz9Qbr3BJx6b
QLZL0T6NnrvBiqaVQF7TwL9YuKzBAXXAQIAhLcCHlazB4pf2QEqqLT8K+KXBTHTMQIItfT8shJzB
RVGnQKXR8EDJOLTBkZaXQAEbnj/EnarBf54bQEb0L8APR5bBYvR4QKonHcCYVJ7BPrhWQExhhMAq
opvB+cWfQPoKYkAm2IXB6t7UQN2tOUBcCojB08TKQOpalUDuv4jB9/rqQLwzKED1vLDBUv65QOco
OUCO87fBvEvUQJOyzED8Z6DBYh6cQL9Ex0BwIaPBI1PnQFFYpEAOK7DB1mqxQKUFpkB9I7XBsg6M
QOICCMAK+IrBQeF1QNCdc8CcRYjBG0HMQFAZW8BTbInBjAS3QG/ql8BBjpHBsaxrQCkia0AUeqrB
u4vPQOmTZsCAZKDBpt1OQE7MakAX/IzB1PsWQIkcckCo6pjBrkbZQP40cEAo7p7BpGGRQLezX0Cc
UJvBdvXBQOkKmb9F3JbBgA/SQHMpKUHaS63BIwyjQAPNIUG2Da7BeHPwQBSsGEECeLLB+UixQIeJ
mb8sM7TBvUWdQJ+aC0Ey66jBcLLqQB9WAkGtcq3BIaO9QMchgD7pe7fB2jmeQIckpL8By6jBHBbS
QK5+GD8OIKTBp1q7QEvl9UC4LK7BY1S7QO+onT/+7a3Bbg7BQKp2ckDVjKnBDjGcQGORn8BmBpLB
TbDEQPRiWUDTkYvBNUzOQCF7J0AEKrHBIP+0QEOIykB2jqjBN0LIQNIEpUB0Iq/Bshq5QDashMBy
nIrBDOKlQDL7L8DBf4jBiNuTQKkfakAIW6bBjHa6QG2UaUCz45bBDly8QOHTKL/VGKHBYqahQBIu
/r9UfZLBtJVbQGG5UEBwF5bBPBoAQUnHc0BNv53BKzXjQIP7fL+Q45HB64jVQOGTOEHZc7HBFLba
QIQdK0GB0qTBIZSOQF1pLUEz3anBiaCZQMv6IEHLhbbBn4npQGC0F0F0FbvBTtsIQcPsHUHKSbHB
K3OZQMBDyr8j6rnBOSXOQBT66b/khrTB/62kQKqtDEEjVaDBFMp3QG1rBkGY9qnB5gn/QDyf7UDl
u7HB8VL0QOj1AkE9/aTBI4DeQDrDez76orrBX3+nQB7hFz89wL3BmPF+QKh8P78EkajBlCeZQAiK
FcB7n6bBiZzzQKLawj6/LqbByAbRQM8hpj9dW53B8ZyyQMSM8kBsqLbBw3CZQA5tsD8W3KvB4OKq
QGAdv8B9WJPBuDt5QDCzo8BtRo7BbXOYQCIOj8B6vZnBeeqmQMAJV0Be4obBzJbVQDXnG0C32IrB
jjbZQCGPhkBFhYjBVGjxQIl0IkAqILHBljrDQH3oNkDGSrnBi7nEQIScy0A9sKDB0YSSQP7jxEA6
e6fBcdnqQM1UqkB4FLDB9Pa4QNRLpED5DrfB4828QFWClcBH8ILBdaPYQEfdgMBUZ47B/hOGQEt3
N8Cm2ITB/u66QN3ODMDx+4LBMLV1QLK0a0AiWKvBW8mFQKNSAsAgZ5bBA3ZcQJE2S0A9H47BVWck
QM7OSkBzE5rByprUQNUtcEAJqp7Bdx6NQCuaakAHX5rBZQC7QB5Fkb8UXpnB5zXIQJDVI0EhGrXB
Af6uQHADI0EWeKrBSofxQBSPFkHyWLTBwte2QOEZmL/d0LPB4O2vQC7BDEE3IqXBGB/oQHNY/UAf
JrLB3C+9QGZylD78vrbBwcnXQMwSzL9OVqvBwCDZQGHJNz9G0KPBdB27QCPN9UBuK63BxVS6QKh1
mz9fy6zBReC6QOc3c0BV/qjBC9C2QI1zisC5spPBYA7CQHvsZ0BpDIvBttjFQKdNKUDVwrDBeDm5
QMgSy0CmOafByTfCQKzQpED+ua7BYfaGQN7FgMBEdJXBOpd4QOPTIsCFbJPB8UKOQA+mbEAQeqXB
vee2QCm5ckCUYJbBpYHTQGEWOL86/aHBbceSQFvz2L+bLJvBLDNUQN2qY0CqtJTBQbj7QOV3b0AR
4Z3B8YjLQC1Jk79XeZDBXBW0QDRhHUFij7vB/YHQQGmONEFA5rbBiAO9QM21LkHq56TBXHyNQHxR
J0H/F6zBE4kBQSruF0El8rvB0KsCQcDpHEH3za3BHGGWQP/Hqr/hnrDBIx27QJOh57+q/7rBfRHI
QKzZDEGiup7BETyQQI9tCUGCr6HBLAnqQMq860D0wLnBeDoAQWME8UBwlqzBZePcQDqm0j7/cbrB
V0SkQNzTFT+ZfrzBezDSQHfRKMDv7ajBtTf4QKq7v7/Pq67Bh2X6QOB5aT+lO6bBlCHSQDB7oT+6
XZzBSSujQCO39UCcnrPB30+ZQDwjmz/BvqnBIe28QBWRrMA8PJXBzhbKQMnXbcCxNZnBEJW/QHjD
gsApZYvBQu6kQCidbEA8JIbBwOPQQEXKKECK3InBdLfYQKoijUAWp4jBZIHoQDsoK0DRR7LBBYC0
QECrNEAPSbjBrknRQLdHy0CEzaDBFCeZQI5Bx0D1uaPBVKfjQLdwpkCLcrHBMrisQKfLpkBOrbXB
Qgd9QP3HiMBQwp3BxgNoQJGflMDI8Y/BTywzQEMkGcCmP5TBLVKGQMJLEcAtR4vBp4BpQIIOakC0
S6rBTWmEQIHcwL+FKaLBH01XQE3bY0AUt4zBcY0bQCktXkBoXZjBJ/XQQK1hckD+/ZzBtG+KQPSN
W0BGzZjBJn3UQML7s78IMJzBChfdQMzBJkGy4bDBcrO1QMMoHUFZRqvBT87qQB/rGEF8d7rBmve5
QE5AML+Lw7jBbge+QMruBUFd0afBiAv0QCPiAUGG57bBEArHQLf8Rz/Ok7nBknvUQJkksr9aJLDB
7sXXQHqBSz/FvqXBwHDMQI0M8EBPgbHBANe9QPuVvD/34q7Bwie2QC1MeECgIKfBRu5cQLTJIsBk
2ZXBojO/QPf/YUDAdYnBRs/HQB97P0BRSbDBvqrXQFwAwkC7I67BjiSvQEwcq0C5VqrBSjCKQLQ/
c8D+O5TBmeq5QLxhXcAumZLBqsiLQFWKW0Dq1qPBzGy0QHlqXkBx2pTBv7bRQI7pLb8DxqXBZCzL
QLc8McDbDZzBgPhNQLd7WEBPR5PBWvL3QKpgeUCVQJzB7ybjQFk+Yb+1HJTB7TbVQM/vNkEUu7PB
Aa/3QPGoJ0FPIqvB9SeuQOjMJkGIKKTBNmOaQP18HUHH0rDB9fTQQIfJGEGJcMDBmvEDQTLGH0F7
DL7B09aXQKiXQL+Hq7bBvme/QBgvl799g8DBO1HXQDu/BUF4sqHBOXGgQPBh/kBCcqTBRrH8QGZ3
8EBf8L3BQ2oHQXTvAUHgMbHBQGjpQH+0WT+nZbvBiJi0QIeAoj9Y+b/BWnDIQH+0GsAgHK/B0yH2
QPletr8mtrLBn/T5QJ9xgj/i1qbBJvPMQA46mT+hA57BwSayQLbt7kCxWbfB55CbQJ/Yrj8JE63B
B7wZQJvANcCy+ZbBjTViQE6j8r/CxI7BiEFzQL+X/7/99JzBLCajQPdAT0BPsITBDM/ZQJLcNUD0
zIfBI8HIQLjKkUDpVIfBF7/qQOGiR0D+n7DBb4y5QAwnVUCv3LfBMkrlQHa7sECMArXBnzHvQPjU
wkDkmKfB4IGXQI8ErEAg27DBIn6iQJlsvEAoXKPBeR59QALyisCEJY3BOhWHQB4vjsC/VZvBlT+9
QFWRM8BjkYvBi/vLQFtvjMDgRpHBsr9nQJ29SkBtuajBIXfQQHtfU8DKsKLBgx9QQPb4V0CISIvB
D4oVQJGkVkCgC5fB43LWQCMGXkD2gZrBdC+NQGPZUkC+AJnBQe7GQI8Kj7+djZ3BEjfQQMyNJEF7
07rBYSr2QEtkFkE3TbfBiEOqQEt+IkHN/7LB+uSsQHtSqr5rNbnBvmfoQDOq/UDmBLbBoUacQCf3
CkH34bHBIuy8QNX5kD+l17nBvKjJQD5Kmb+Q3rHB2YThQGQoWD9eI6jBQB3CQGen+UCrKa7BDxnB
QPVT3D9Fa67Bg8HCQONPgUAisaTBa+thQKS9QcCAA4PBMdO5QDtTE0DN/YnB0eDOQB8CTkB47q7B
pBSzQKe2ykBfTK3BKJbQQNfYsEADuKXBsAN4QDHhEMDWWY3Bx5mhQH60PMAkK5PBS16UQH3OfEC/
pKLBMci0QHK+O0CojZTBc6XQQKAzBb9We6fBDbGsQG+YD8DnIp3ByFtOQDgFQ0B3B5XBMsb8QCGW
WUAOb5jB8kzXQAJMMr97RZXBy7LaQCBZNUH5EbvBCMHFQFqSH0HJ2cLBu8kHQQdeF0EqX73BYzkB
QX5IHEFKma/B8vazQMyXKEHiG6vBhjSPQPn7K0GZBrbBCxaMQL7hrL5BBbbBaPisQPfgQ7/ITMHB
UubeQK708EC6373BTsUBQZ0I60C05rLB6EqCQDHoCUE5+KvBzL+QQCooBUF8rLnBQ1XcQDsMlD9A
z73Bk/SlQDTU3T/qd77BIAm6QCy6CsD1d7DBSLfoQN31rb8MzrXBbjwAQf5AVj/7U6zBjNTlQNwg
oD9qCKDBSIHMQLVHAkGUNabBjMWhQPNf1D/Fb6rBLkAsQB3VIcCb5X3BKbdPQFfsgcBQAoXBIgON
QJd3QsDHZXvBWmuaQEib+z/lEIfB/23PQF0HuD+RrIrBLmjHQC3zQUDrVoTBms/xQJ2vUED29a/B
tzW/QBfDa0D14LXBujWSQGcKykCmJ6rBEbazQGQHvEBgS7XB6rXPQJulv0DIvJ3BznLxQIL8sUAQ
3KjBIb8/QDspEMCLo5LBHweFQEiQnb8fVIvBiqu9QNQMPcDP243BQoiYQNTyfsDdGZXBLAp7QKjO
iUD3dqfBKbOgQPn5JcBqAaTBPcZIQI1TI0A5HY7BcPUZQMyjVkC06ZjBhtHUQLfVYUCQnprB23SL
QEMtWUBjJJnB0WHEQDjwjL8z/ZzB6pPSQLsgJEFnCbzBHgP4QM3PFUFbVLjBWXWsQMGzIkG8ObTB
Ab6qQKIurL7p8LjB/XfpQIbZ/EBV0rbB3q6dQIRYC0Gx4bLBABO7QPj8jz/Ir7nBMY3GQNbXmL8Q
T7HBMa3dQJGUXT+3v6fBXf/CQEob+kBI/K7B52O+QOjk3j/sVq7BNIHBQKSVgkBU66TBok1IQCYs
bMD16pfBHWm3QB8PHUB2y4nBXj/NQOKPTkClBa/B8CizQC2Dy0BF563B+SXQQHjGsUDeLabBuHKB
QAH2QsAVb4/BdBSxQIBzS8AUgZLBxxGTQC2TgEBS5KLBXtGyQH0bQkDHj5TBrFbMQAT++75D+qbB
BtC6QJhuHcBrfpzBR45KQMwRS0DVK5XBBxf7QJw8XEChhpjBg2rGQCbs5771ppTB2pvdQDvSNEE8
crzB3BDIQGXlHkFzBMTBhsUIQYVVFkHKYb7B6i4CQeLqG0H8rLDBykC2QEcLKUHyY6zB/8GRQLVJ
LEGoX7fBx6CJQAH6p74h9bXBp4arQIcvSb9X+MDBR+DfQP+n70Cinr7BCiACQTsK6kDZlLPB8ZeD
QFa+CkFX+6zBixCSQMRQBUE1n7rBztLaQH89kT9ZfL3B852kQCHq2z8qhr7BkKG2QJMuCsAP5a/B
CgfmQBsPr7/V/rTBmwf9QIxLVj8XvqvBYVfhQKsMpT8vrp/BbHPNQFe8AkHPE6fBuKaeQE+t2j8g
i6rBMwwFQC72ZMB4epXBikVSQIdhTMB/q5/BgsxXQE9LmMAcqZjBM9aXQD0KCUD60IbBz8nMQGdp
yj8MKYrBFQ3FQKI+TUBFXITBsDnwQNyET0CAALDB0BW+QDURbEA0DrbBQkCSQKejy0DWx6rBnZ+z
QB4xvEBH07XB7HXPQPc7wUBtRp7B2wzxQGIZskBBTqnBVb5yQBhd/b+tto7BTEV4QKPjYsBKtIfB
qsvEQDPRMMDJBIzBlMe4QEPOh8DakpPBMuh4QLrji0BGy6fBioi6QPifPsBaVaPBCk9EQCPqLECB
KI7B1Y0WQHd2XkCvJ5nB

>  <OMEGA_E>  (7) 
gOHEPuzRyz6sRfg+RPH4Poj2wz6wdzA/xJ0VP3hEAz8saVw/NBJcPw==

>  <OMEGA_NBR>  (7) 
     63784

$$$$
50253511
     RDKit          3D

 70 72  0  0  1  0  0  0  0  0999 V2000
    6.6585    3.6599  -19.7473 C   0  0  0  0  0  0  0  0  0  0  0  0
    4.4104    3.5933  -19.2463 C   0  0  0  0  0  0  0  0  0  0  0  0
    6.3991   -1.4636  -19.3943 C   0  0  0  0  0  0  0  0  0  0  0  0
    6.8512   10.3595  -22.1183 C   0  0  0  0  0  0  0  0  0  0  0  0
    5.4854   10.1156  -21.4508 C   0  0  0  0  0  0  0  0  0  0  0  0
    7.2174    9.2036  -23.0651 C   0  0  0  0  0  0  0  0  0  0  0  0
    7.0683   -1.1015  -22.5297 C   0  0  0  0  0  0  0  0  0  0  0  0
    5.4782    8.7782  -20.6956 C   0  0  0  0  0  0  0  0  0  0  0  0
    7.2028    7.8568  -22.3252 C   0  0  0  0  0  0  0  0  0  0  0  0
    6.8867    0.3919  -22.8164 C   0  0  0  0  0  0  0  0  0  0  0  0
    5.8208   -1.6092  -21.8068 C   0  0  0  0  0  0  0  0  0  0  0  0
    5.5243    0.5627  -20.6478 C   0  0  0  0  0  0  0  0  0  0  0  0
    5.8272    7.6141  -21.6443 C   0  0  0  0  0  0  0  0  0  0  0  0
    6.6238    1.2255  -21.5289 C   0  0  2  0  0  0  0  0  0  0  0  0
    5.8710    3.7331  -21.0448 C   0  0  2  0  0  0  0  0  0  0  0  0
    2.5794   -3.1658  -17.8779 C   0  0  0  0  0  0  0  0  0  0  0  0
    6.0334    3.6748  -17.3011 C   0  0  0  0  0  0  0  0  0  0  0  0
    6.2885   -2.9833  -19.0679 C   0  0  0  0  0  0  0  0  0  0  0  0
    6.2563    2.6368  -22.0637 C   0  0  0  0  0  0  0  0  0  0  0  0
    5.8075    6.3075  -20.8313 C   0  0  0  0  0  0  0  0  0  0  0  0
    6.0740    5.0964  -21.7444 C   0  0  0  0  0  0  0  0  0  0  0  0
    3.7422   -2.9086  -18.8402 C   0  0  0  0  0  0  0  0  0  0  0  0
    5.0787   -3.2689  -18.1547 C   0  0  0  0  0  0  0  0  0  0  0  0
    4.4730    3.5825  -20.6326 N   0  0  0  0  0  0  0  0  0  0  0  0
    5.7156    3.5560  -18.7288 N   0  0  0  0  0  0  0  0  0  0  0  0
    5.7689   -0.9004  -20.5245 N   0  0  0  0  0  0  0  0  0  0  0  0
    3.2970    3.6084  -18.5592 N   0  0  0  0  0  0  0  0  0  0  0  0
    7.8761    3.7396  -19.6294 O   0  0  0  0  0  0  0  0  0  0  0  0
    6.8572   -0.7353  -18.5212 O   0  0  0  0  0  0  0  0  0  0  0  0
    6.8079   11.2959  -22.6939 H   0  0  0  0  0  0  0  0  0  0  0  0
    7.6225   10.4438  -21.3386 H   0  0  0  0  0  0  0  0  0  0  0  0
    5.2797   10.9311  -20.7419 H   0  0  0  0  0  0  0  0  0  0  0  0
    4.7040   10.0968  -22.2248 H   0  0  0  0  0  0  0  0  0  0  0  0
    6.4889    9.1691  -23.8886 H   0  0  0  0  0  0  0  0  0  0  0  0
    8.2239    9.3785  -23.4730 H   0  0  0  0  0  0  0  0  0  0  0  0
    7.1980   -1.6483  -23.4753 H   0  0  0  0  0  0  0  0  0  0  0  0
    7.9533   -1.2529  -21.8942 H   0  0  0  0  0  0  0  0  0  0  0  0
    6.2202    8.8177  -19.8845 H   0  0  0  0  0  0  0  0  0  0  0  0
    4.4781    8.6095  -20.2698 H   0  0  0  0  0  0  0  0  0  0  0  0
    7.3960    7.0479  -23.0452 H   0  0  0  0  0  0  0  0  0  0  0  0
    7.9897    7.8593  -21.5566 H   0  0  0  0  0  0  0  0  0  0  0  0
    7.7993    0.7704  -23.2999 H   0  0  0  0  0  0  0  0  0  0  0  0
    6.0318    0.5176  -23.4971 H   0  0  0  0  0  0  0  0  0  0  0  0
    4.9211   -1.3889  -22.4001 H   0  0  0  0  0  0  0  0  0  0  0  0
    5.8931   -2.6940  -21.6393 H   0  0  0  0  0  0  0  0  0  0  0  0
    5.5391    1.0180  -19.6466 H   0  0  0  0  0  0  0  0  0  0  0  0
    4.5404    0.7277  -21.1112 H   0  0  0  0  0  0  0  0  0  0  0  0
    5.0561    7.5543  -22.4265 H   0  0  0  0  0  0  0  0  0  0  0  0
    7.5559    1.2926  -20.9486 H   0  0  0  0  0  0  0  0  0  0  0  0
    1.6306   -2.9077  -18.3710 H   0  0  0  0  0  0  0  0  0  0  0  0
    2.5673   -4.2283  -17.5933 H   0  0  0  0  0  0  0  0  0  0  0  0
    2.7049   -2.5465  -16.9775 H   0  0  0  0  0  0  0  0  0  0  0  0
    5.1141    3.5545  -16.7091 H   0  0  0  0  0  0  0  0  0  0  0  0
    6.7552    2.8937  -17.0201 H   0  0  0  0  0  0  0  0  0  0  0  0
    6.4694    4.6652  -17.1039 H   0  0  0  0  0  0  0  0  0  0  0  0
    6.1704   -3.5446  -20.0066 H   0  0  0  0  0  0  0  0  0  0  0  0
    7.2076   -3.3091  -18.5590 H   0  0  0  0  0  0  0  0  0  0  0  0
    7.1256    3.0074  -22.6267 H   0  0  0  0  0  0  0  0  0  0  0  0
    5.4028    2.5133  -22.7465 H   0  0  0  0  0  0  0  0  0  0  0  0
    6.5856    6.3531  -20.0551 H   0  0  0  0  0  0  0  0  0  0  0  0
    4.8221    6.1922  -20.3562 H   0  0  0  0  0  0  0  0  0  0  0  0
    7.1131    5.1524  -22.1008 H   0  0  0  0  0  0  0  0  0  0  0  0
    5.3885    5.1515  -22.6029 H   0  0  0  0  0  0  0  0  0  0  0  0
    3.6149   -3.5278  -19.7403 H   0  0  0  0  0  0  0  0  0  0  0  0
    3.7525   -1.8460  -19.1245 H   0  0  0  0  0  0  0  0  0  0  0  0
    5.0704   -4.3388  -17.8995 H   0  0  0  0  0  0  0  0  0  0  0  0
    5.1787   -2.6734  -17.2352 H   0  0  0  0  0  0  0  0  0  0  0  0
    3.6917    3.4875  -21.2494 H   0  0  0  0  0  0  0  0  0  0  0  0
    3.3260    3.5929  -17.5598 H   0  0  0  0  0  0  0  0  0  0  0  0
    2.4171    3.6354  -19.0336 H   0  0  0  0  0  0  0  0  0  0  0  0
  1 15  1  0
  1 25  1  0
  1 28  2  0
  2 24  1  0
  2 25  1  0
  2 27  2  0
  3 18  1  0
  3 26  1  0
  3 29  2  0
  4  5  1  0
  4  6  1  0
  5  8  1  0
  6  9  1  0
  7 10  1  0
  7 11  1  0
  8 13  1  0
  9 13  1  0
 10 14  1  0
 11 26  1  0
 12 14  1  0
 12 26  1  0
 13 20  1  0
 14 19  1  0
 15 19  1  6
 15 21  1  0
 15 24  1  0
 16 22  1  0
 17 25  1  0
 18 23  1  0
 20 21  1  0
 22 23  1  0
  4 30  1  0
  4 31  1  0
  5 32  1  0
  5 33  1  0
  6 34  1  0
  6 35  1  0
  7 36  1  0
  7 37  1  0
  8 38  1  0
  8 39  1  0
  9 40  1  0
  9 41  1  0
 10 42  1  0
 10 43  1  0
 11 44  1  0
 11 45  1  0
 12 46  1  0
 12 47  1  0
 13 48  1  0
 14 49  1  1
 16 50  1  0
 16 51  1  0
 16 52  1  0
 17 53  1  0
 17 54  1  0
 17 55  1  0
 18 56  1  0
 18 57  1  0
 19 58  1  0
 19 59  1  0
 20 60  1  0
 20 61  1  0
 21 62  1  0
 21 63  1  0
 22 64  1  0
 22 65  1  0
 23 66  1  0
 23 67  1  0
 24 68  1  0
 27 69  1  0
 27 70  1  0
M  CHG  1  27   1
M  END
>  <OMEGA_C>  (8) 
ZhLVQBg8akB/+p3B8yGNQL74ZUBg+JnBKcXMQEhWu7+OJ5vBwzzbQJvAJUE58rDBeoivQFTZIUE9
m6vBRfXmQPZBE0FXhbjBkC/iQLr+jL/NPLTBb02vQJNzDEGekKXB9HzmQIBq+0D7mbLBqV/cQPii
yD7jh7bBKUS6QKL5zb9WdK7BL8ewQIMKED+zLqXBHXi6QPKm80CSJ63Bj/bTQJXbnD8pO6zBQ9+7
QKzrbkDHW6jBAhUlQBqdSsDXBY/BThHBQHYva0C9aIrBODvJQKbtPsAki5jBojPIQJzAKECDgrDB
SNe5QFjXyUBnpqbBG17CQLsVo0Cc9K3Bnn9vQA4mOsCkuJbBcYSiQEo1UcDKPJHBICOPQEhIZUB3
D6XBFOa2QIqVY0CI1JXBkJq4QNyAZr8/MqTBlgJTQCbwZkBXeZTB3Qj8QORUb0AACZ3Bbm7bQGQ6
PL9kK5TBNtrZQOS7NEEqjbXBdOvzQL0ZJ0FdtarBqPOoQMPlLkFS76XBY4eWQHCMIUFozLHBeaXP
QKu0EkHRG7/BNZUDQUIOFkHFyLvBUVbmQPX50r9/zbvB04H+QMteoL9qJ6/BqgvHQDoVDUFwE5/B
h0yPQHLACUGSKKLBPKzsQMiI4UCoXLjB26v/QB9/+0D/c6zBnZP5QHk7RT9IZrrBoQTBQNWDBD8F
+rvBwnmdQJLGsb9kM7PB35O8QMBpLMBYHa3BIECxQDpPgj88LJ3BUUuRQOhLOj/G46jBUcuhQLu8
8UCDabPBI8rxQDJ1pT/ClqfBBrnQPzgXOsDR95LBYE8kQHVOh8ARv4zB/BwtQAf6IsDc0YfBxKaj
QPR8Y0BArIXBTCrYQAUzOUAkKYjBrgXPQC1JlUC11IjB/nPFQOvZYsBvDaDBgqTmQODIU8DEeJTB
4wTkQIt5QEB7A7XBYOOsQF3aIEDl+LXBn73SQJhMy0DJcKDBtE6aQGYmxkCT2aLB4p7jQA/gpECE
zrDBMG6sQOnYpEDM0rTBOltnQPnHYcA57J3B1ihwQC1K7L8D/5jB1UCiQMjXisA0Mo/By7elQCkZ
K8C64YnB9ERsQHQzX0DD/qnBFd1UQLvyZUByeozB/LEaQKqqaEDRRJjBTqnTQP4dbEA0tJ3BwGmL
QCLUaUAuCJrBEFLDQIK2ir85iJrB1ETeQF8TJUHPmrHB6zOzQFsHIkHz0qvBjV3nQPNZEkEdP7nB
DWHkQJzhh7+3prLBC4SyQLHLDEEQr6XB93HmQMXb+UBkQrPBRkDfQC2u1T5iuLXBmny6QBgyyL9d
xK3BbuqoQD+ALj+oyKbBLTG7QGDY80BNSq3BZhnRQCNRpD9KCqzBgmO7QApbcUDCQajBKh2CQCHR
esDzCYbBik++QKJQZUBwPIrBuqu/QLM1IsBp0ZbBYRfJQMJcLEB5cbDBg1S6QJ6eykDroKbBlbTC
QATXo0A71a3BJjiGQAfnh8C0ApLBnZmQQB9pP8A7b5jBXEiOQBrVaEAWJaXBT820QNyPbkCErpXB
UrGxQKhjOL8DZKTBb/hOQAeEZkApq5TBVZ/6QDq+a0AzjpzBR1fRQAGHd741TpTBPEXdQHkMNEEe
ObbBVwT4QJn9JUEun6vB+GauQHVJL0GPKabB5juZQJoJIkHBw7HB5eTOQCIkEkE5kr/BIZIDQTGP
FEEm3rzBVQHsQIVe07+t1LnBR2P+QBw9lb/Tx6zBJFHLQLQhDUH/cJ/BUu2SQJOwCkFg8qHBJZvq
QJii30BrCbnBr10AQVgo+UDMaK3BYhP+QIpRSz/ltrjB1fnGQGOV/z4hD7zBV1WgQKy9vL/7nLPB
/dK9QOtgJ8COUKvBs4ahQCOQnD+eWZ/BopeNQJmAQT/ETKzBMF2hQJJu8kA3QrPBnzTrQGy/qD/S
JKbB40Z1QIHMmsA5koHBV3egQFLtX8DPHIPBPJpQQOPhS8CK3YTBC26gQGGaaUCZnYXBRG/NQBLK
JkAbzYjBPTTUQIdPjEA5t4fBmTLVQGTmSsCckpvBZFTIQNzrJsALT47BCuHmQPBIQkBpP7TBjbOv
QCKgJ0BsgrbBPDfTQB5GzEAua6DBKcWaQPQ7x0AN06LBdyHkQOInpUB7krDBByutQE/IpUDJxrTB
5P2fQBh0n8AjIpPBVadPQGFulcDe4pTBq0h2QI6MC8C+25XBxl2LQAfHTMCK+aDBWDprQEM4Y0Ao
MarBlthPQCBCZ0B9q4zBUTAXQOE9Y0CvkZjB11HUQMquaUCw/pzBw8uLQCoOZ0CVupnB3wDHQNsV
mL/MhpzBVBjRQAsAH0HxG7jBo6X3QMWxFUHpAbLBVVynQL2zHEF0m7HBppLjQHbddb93L7TBoyjv
QCTB/EBqz67BNlufQHw0BUGSda7B8BjhQPzODj9EOLbB43i4QBG0uL+NwK/BjG2qQBdWOD8rG6fB
WcfFQAeq+UBb/qfBFLTSQBZPrj/TL6zBytW8QJX8dUCPkafB+pVaQAZ5gcD6oIbByk69QLaFY0Cq
qonBAgrEQDOPKsCebJnBdt7KQAPsM0D1GrDBy629QM0YzEB8uaPBH23EQEdfqEC2KqzB6GmXQLmG
gcAQ4IzB6QyXQDjlOMBj1ZTBw4mPQNcKbECsyqTB3dW0QEbcYECSNZXBfReyQGn1N7/2taXBO8RO
QFLrZUATkZTBNin7QPu7a0Cqn5vBmN7TQKjhz76orpXBRPHWQI0QMEEGsbnBKILNQPhsFkHevb/B
EBEKQfhbFkGNKrfBa0f9QIE/H0GNwKrBd9OpQLVvJkE7TarB51yMQNdrIkHvebbBx5LqQLGqvb/l
u7vBoAv9QPgKlr9lWq7BE2rrQIA86UDKErbB3DAFQXy48EC7HKrBXDCCQHgmBEGsj6nBkGSbQLT3
9kBVurXBF3gAQQbKaT/oqrjBzgzKQKDDPT8StbzB6o6eQHUsm78harXBYGC5QAy8IcBnR67BYRmk
QE50lz9cSJ/BPLSOQGuSXz9VY6zBCuTJQONqB0HpCaHBK9DsQHZ5rj/wSKbBZoRaQOQXnMAO34DB
FuhTQHH+RcAbToLBhMMkQLBHhcCMOIzBLiGfQFwAW0CGQ4XBpqPTQLDgL0DIhYfBoITLQOrXkEBj
j4fBLOjIQPEfU8BIg6DB2V7cQHfxOcDjXJPBEdjoQIUeS0CNsbPBh8CxQJ2PMUB5Q7bBFbPTQHJC
xkAeBJ3BK3ScQF9UykAn2qDB/3jlQMVJqkDbKK/BZfytQLWjrUBQ0bLBvV+yQN5Ze8DFTIfBdM2a
QGf1n8A2N5HBoWeMQF2z/L8LvJDBHNiAQE3WR8CpZpvB65duQKdLaUCuAKrB4TVOQHotYEBpmYzB
7KcXQNnKakCZlpjBHkDUQB7WakC5Yp3BDd6LQM5takDHAZrBY4C7QHlUpr/jUpvBwRrLQDINIkHG
3LbBI0n0QE8vFUEZsLTBIsWqQMYhIEF9lK3BJuTlQO6dgb9+mrLB1erpQOGQ+0AX+bHBou6gQJuF
CEF8B6vBAjbiQMw09j55S7XBLN+5QE+5wr9LIK/BcfSnQB+1Kj8P/abBhuDKQKey+UBrUajBxzDR
QJXppz/dt6vBr6G8QMh3dUA396fB0yw+QKgwVsAtAJfBvb69QJ4sYkB5CIrBsIa+QBZ1NcACQ5nB
lCDKQNoiMEBdKbDBI13CQAHpy0AMN6TBvEPEQFMFqECD06zBU9Z0QDY1OMAEco3BxkCqQKY3UcAW
hI7BgG+PQOqcbEAHFaXBCPu0QHrbbEDre5XBVJKuQPHeSb/EU6XBix1PQHLiZkDi0ZTBXSr7QObp
akD+GpzBX83FQJR9CL9wGpTB+Y/TQLMAM0FN7bfBThy8QE37G0EUOb7BnVcEQUKjFUEi27vBirgC
QbJ2HEGe663BeEi4QA3RJ0GPa6bB/+SMQKBDKEHk16/BC63wQAutyL/AtLnB+gT9QKu3k78bEazB
AtnaQO4u7EAl77jB+dUDQT2Y6kBa8q/B4AeLQB+iB0GIJ6TBd+eRQKnsAEGPBbLBzgQBQXXSWz+0
h7fBrSXMQD/MGT+HFbzBchiiQGmRqb//a7XB3za7QMN/JsBJgK3BY2ygQE8skj9GR5/BCTGNQHzJ
UT+SkqzBRhzaQA64BUGCvaHBLOfpQJperD8wdaXBiIv2P3+bQsB1xZXBT65WQCkPOcA4Z57B8JFB
QHUojsBhppfBjJqfQD5rZkDdhIXB8YjMQGVAI0Afp4jBnq7TQB5rikDHVofBseytQGP8VsDayp/B
qH3gQPTwR8ADOZnB4k3oQA4VRUDX27PBzAGxQF+SLEBYT7bBMG7aQFyUxEBtD57BT0SiQKZfy0DW
mqDBIf/jQD2bqEDcobDB+YGrQJxCrkBi4rLBf05wQM845L+524zBIDJbQCleVcDiGobBIOqsQM+Y
i8CP0Y3B7SS8QKm1MsCA94fBTihuQMXCaECUP6rBwdlOQLqnZUBH0ozBydwXQH1nZUBP2pjB83TR
QBQsaUAWq57BL8uJQFCRa0CQYZrB2RGRQKYE6b+WjaPBIWnfQLEkJkH07K/Bn3mxQERBIkEg66vB
uGbuQIDXE0HkRrfBLw7kQDRDkr/OoLHBCB+uQIeXDEF1LabBeOPqQCUc/EAWnrHBxBTSQO6xXz4X
lbXBF7/dQJIZqb+2fKXBWwmpQGhDFD8uZaTBOZK8QGNj9EBalq3BMBDLQBNDmj/iKKzBO6G3QMS+
b0B/AanB5INAQKJFhsA8UYjBC6i+QN6TakAbAovBMpNKQJGBwb8npp7BZK+/QJ9/JUC5BLHBQry4
QHsiykCDWafBOdXAQJkIo0DWqa7BlZtpQPgNScCIe4/BdzIpQKAQLsAaQpjBhwWLQIyDbECseKXB
1q2zQEz+ZEDKZ5bB2g6yQEwOYb95EqPB1RNNQBSvbkCRwZTBjIf4QJjta0BW0Z3BJwuYQGDxPMC3
+abBTFrgQG9HNUEGabTBYwv1QFYwJ0HmAKnBrZCoQAAVL0HfUabBz3ebQMNfIkFJybLBpFnaQJGf
E0FBgr7BafoHQUCfFkEPi7nBflzTQPFe+r9V1bXBuzoDQQgxmL/Rc7PB4KDCQMLWDEG7Bp/BhbGM
QCLlCUHSxaPBjqfzQLWZ4kB7RbfB4XUAQQiK+0CJwarBgOXoQCWeKT+hQ7vB4k6zQLHnOz0qoLnB
hcrhQHwyGMAoRaPBDgn1QNw1Nb8DE6HBs9uqQLH5iT+skJzBa9CIQLShNj9MxafBTAinQE8l80Bm
irTBS2XpQFPGpj+Cw6fBeCluQCPvj8CFEYLBs8AGQDXHccCBj4TBDvguQIVVosDrJ43BOlehQNeJ
ZUCYLYbB6ovUQDIVNkAT54jBMlLOQFEmlED8ZonBBnxQQMV0Jb+ORJnBFgUdQJJco7+cFqXBMEra
QMGwOEDmQbbBWniiQPF3HUDM0rXB8WjQQD8JykBh1qDBR1iYQF3Cx0DJ9KPBnYPiQL9qo0D7N7HB
+firQM+ZpUD3uLXBNCV7QNTkEMBsporBR66RQKnIY8DWPpPBxBLYP1zeHMCUd5TBcTIfQGgbZMD2
wZ3Bv/RiQGoya0CNSarBxMRPQNhabEC8xIzBd3kUQEhlc0BgcZjB

>  <OMEGA_E>  (8) 
sE7kPkzQCT9ApRA/7HERP4L1JD8=

>  <OMEGA_NBR>  (8) 
     69600

$$$$
50253515
     RDKit          3D

 72 74  0  0  1  0  0  0  0  0999 V2000
    6.5972    3.6910  -19.6239 C   0  0  0  0  0  0  0  0  0  0  0  0
    4.3239    3.6566  -19.2637 C   0  0  0  0  0  0  0  0  0  0  0  0
    6.8619   10.3547  -22.2671 C   0  0  0  0  0  0  0  0  0  0  0  0
    5.4427   10.0794  -21.7357 C   0  0  0  0  0  0  0  0  0  0  0  0
    7.3935    9.1627  -23.0830 C   0  0  0  0  0  0  0  0  0  0  0  0
    5.5670   -0.9642  -22.7393 C   0  0  0  0  0  0  0  0  0  0  0  0
    5.4140    8.7955  -20.8968 C   0  0  0  0  0  0  0  0  0  0  0  0
    7.3624    7.8721  -22.2534 C   0  0  0  0  0  0  0  0  0  0  0  0
    5.9076    0.4986  -22.9252 C   0  0  0  0  0  0  0  0  0  0  0  0
    6.5087   -1.5370  -21.6990 C   0  0  0  0  0  0  0  0  0  0  0  0
    6.5816    0.5909  -20.4527 C   0  0  0  0  0  0  0  0  0  0  0  0
    5.9301    7.6031  -21.7203 C   0  0  0  0  0  0  0  0  0  0  0  0
    5.7803    1.2716  -21.5975 C   0  0  1  0  0  0  0  0  0  0  0  0
    5.8971    3.7958  -20.9654 C   0  0  2  0  0  0  0  0  0  0  0  0
    3.1599   -3.4033  -17.6518 C   0  0  0  0  0  0  0  0  0  0  0  0
    5.8299    3.6690  -17.2255 C   0  0  0  0  0  0  0  0  0  0  0  0
    6.3124    2.6770  -21.9277 C   0  0  0  0  0  0  0  0  0  0  0  0
    5.8841    6.3540  -20.8338 C   0  0  0  0  0  0  0  0  0  0  0  0
    6.2288    5.1180  -21.6720 C   0  0  0  0  0  0  0  0  0  0  0  0
    4.6734   -3.1839  -17.7283 C   0  0  0  0  0  0  0  0  0  0  0  0
    5.1741   -3.4080  -19.1629 C   0  0  0  0  0  0  0  0  0  0  0  0
    6.6828   -3.0824  -19.2551 C   0  0  0  0  0  0  0  0  0  0  0  0
    6.9680   -1.5543  -19.2766 C   0  0  0  0  0  0  0  0  0  0  0  0
    4.4686    3.7276  -20.6431 N   0  0  0  0  0  0  0  0  0  0  0  0
    5.5941    3.5739  -18.6704 N   0  0  0  0  0  0  0  0  0  0  0  0
    3.1737    3.6630  -18.6405 N   0  0  0  0  0  0  0  0  0  0  0  0
    6.2765   -0.8660  -20.3960 N   0  0  2  0  0  0  0  0  0  0  0  0
    7.8074    3.7218  -19.4297 O   0  0  0  0  0  0  0  0  0  0  0  0
    6.8372   11.2468  -22.9101 H   0  0  0  0  0  0  0  0  0  0  0  0
    7.5348   10.5349  -21.4157 H   0  0  0  0  0  0  0  0  0  0  0  0
    5.1212   10.9257  -21.1108 H   0  0  0  0  0  0  0  0  0  0  0  0
    4.7542    9.9696  -22.5865 H   0  0  0  0  0  0  0  0  0  0  0  0
    6.7669    9.0308  -23.9774 H   0  0  0  0  0  0  0  0  0  0  0  0
    8.4298    9.3693  -23.3885 H   0  0  0  0  0  0  0  0  0  0  0  0
    4.5267   -1.0644  -22.3964 H   0  0  0  0  0  0  0  0  0  0  0  0
    5.6925   -1.5004  -23.6916 H   0  0  0  0  0  0  0  0  0  0  0  0
    6.0528    8.9274  -20.0110 H   0  0  0  0  0  0  0  0  0  0  0  0
    4.3808    8.5948  -20.5772 H   0  0  0  0  0  0  0  0  0  0  0  0
    7.6782    7.0284  -22.8846 H   0  0  0  0  0  0  0  0  0  0  0  0
    8.0525    7.9720  -21.4026 H   0  0  0  0  0  0  0  0  0  0  0  0
    6.9411    0.5830  -23.2923 H   0  0  0  0  0  0  0  0  0  0  0  0
    5.2194    0.9366  -23.6632 H   0  0  0  0  0  0  0  0  0  0  0  0
    6.3247   -2.6163  -21.5931 H   0  0  0  0  0  0  0  0  0  0  0  0
    7.5490   -1.3717  -22.0160 H   0  0  0  0  0  0  0  0  0  0  0  0
    7.6580    0.7284  -20.6330 H   0  0  0  0  0  0  0  0  0  0  0  0
    6.3082    1.0554  -19.4938 H   0  0  0  0  0  0  0  0  0  0  0  0
    5.2602    7.4519  -22.5796 H   0  0  0  0  0  0  0  0  0  0  0  0
    4.7203    1.3373  -21.3110 H   0  0  0  0  0  0  0  0  0  0  0  0
    2.8169   -3.2394  -16.6196 H   0  0  0  0  0  0  0  0  0  0  0  0
    2.6525   -2.6952  -18.3234 H   0  0  0  0  0  0  0  0  0  0  0  0
    2.9229   -4.4330  -17.9577 H   0  0  0  0  0  0  0  0  0  0  0  0
    4.8779    3.5429  -16.6890 H   0  0  0  0  0  0  0  0  0  0  0  0
    6.5321    2.8808  -16.9160 H   0  0  0  0  0  0  0  0  0  0  0  0
    6.2569    4.6544  -16.9878 H   0  0  0  0  0  0  0  0  0  0  0  0
    7.4113    2.6282  -21.9329 H   0  0  0  0  0  0  0  0  0  0  0  0
    5.9525    2.9459  -22.9317 H   0  0  0  0  0  0  0  0  0  0  0  0
    6.6132    6.4575  -20.0167 H   0  0  0  0  0  0  0  0  0  0  0  0
    4.8745    6.2408  -20.4122 H   0  0  0  0  0  0  0  0  0  0  0  0
    7.3061    5.1353  -21.8936 H   0  0  0  0  0  0  0  0  0  0  0  0
    5.6603    5.1639  -22.6126 H   0  0  0  0  0  0  0  0  0  0  0  0
    4.9066   -2.1542  -17.4195 H   0  0  0  0  0  0  0  0  0  0  0  0
    5.1770   -3.8920  -17.0538 H   0  0  0  0  0  0  0  0  0  0  0  0
    5.0105   -4.4583  -19.4457 H   0  0  0  0  0  0  0  0  0  0  0  0
    4.6177   -2.7525  -19.8491 H   0  0  0  0  0  0  0  0  0  0  0  0
    7.1914   -3.5229  -18.3848 H   0  0  0  0  0  0  0  0  0  0  0  0
    7.0829   -3.5279  -20.1778 H   0  0  0  0  0  0  0  0  0  0  0  0
    6.6250   -1.1173  -18.3272 H   0  0  0  0  0  0  0  0  0  0  0  0
    8.0519   -1.3985  -19.3815 H   0  0  0  0  0  0  0  0  0  0  0  0
    3.7211    3.7317  -21.3073 H   0  0  0  0  0  0  0  0  0  0  0  0
    3.1455    3.6052  -17.6426 H   0  0  0  0  0  0  0  0  0  0  0  0
    2.3228    3.7258  -19.1621 H   0  0  0  0  0  0  0  0  0  0  0  0
    5.2967   -0.9409  -20.2107 H   0  0  0  0  0  0  0  0  0  0  0  0
  1 14  1  0
  1 25  1  0
  1 28  2  0
  2 24  1  0
  2 25  1  0
  2 26  2  0
  3  4  1  0
  3  5  1  0
  4  7  1  0
  5  8  1  0
  6  9  1  0
  6 10  1  0
  7 12  1  0
  8 12  1  0
  9 13  1  0
 10 27  1  0
 11 13  1  0
 11 27  1  0
 12 18  1  0
 13 17  1  0
 14 17  1  6
 14 19  1  0
 14 24  1  0
 15 20  1  0
 16 25  1  0
 18 19  1  0
 20 21  1  0
 21 22  1  0
 22 23  1  0
 23 27  1  0
  3 29  1  0
  3 30  1  0
  4 31  1  0
  4 32  1  0
  5 33  1  0
  5 34  1  0
  6 35  1  0
  6 36  1  0
  7 37  1  0
  7 38  1  0
  8 39  1  0
  8 40  1  0
  9 41  1  0
  9 42  1  0
 10 43  1  0
 10 44  1  0
 11 45  1  0
 11 46  1  0
 12 47  1  0
 13 48  1  1
 15 49  1  0
 15 50  1  0
 15 51  1  0
 16 52  1  0
 16 53  1  0
 16 54  1  0
 17 55  1  0
 17 56  1  0
 18 57  1  0
 18 58  1  0
 19 59  1  0
 19 60  1  0
 20 61  1  0
 20 62  1  0
 21 63  1  0
 21 64  1  0
 22 65  1  0
 22 66  1  0
 23 67  1  0
 23 68  1  0
 24 69  1  0
 26 70  1  0
 26 71  1  0
 27 72  1  1
M  CHG  2  26   1  27   1
M  END
>  <OMEGA_C>  (9) 
hRzTQFM5bEDW/ZzBwV2KQDsGakAmHJrB/ZTbQNOsJUHtIrLBUSquQD9FIUG44q3BoJfsQIeaEkHn
qbjBFyWyQATWdr8n6rXBmj+tQHS6DEGtLKfBL5nrQGTo+0DtBrLBvgq9QGRI/z7FZrfB/UbQQHe7
xL+Tl63B35zSQNREFz8Wn6PBVMO9QElM80Azw63BQPi4QGfCoj+xx6zBX7W8QNTtckAquafBfzxK
QFvPWcDVNo3BU466QD3QakC8zYnBRP/JQKFUK0DUa6/B0Uq8QK1Ty0Coq6bBf1LHQAjHo0BMYK3B
t4yVQA7FS8CW043BVpKlQOgbWsCgTZnBNdnVQHlGRcBsCprB5PneQIbyxr+ENprBn/6OQK6RbkD+
JKXBtAKzQBy7ZED6XJXBoR5LQEtvakDJH5XBddnIQOCwXb/5KqPBRNb5QC4ybkAIcJvBcsraQNry
M0H0R7fB5RzxQBWPKEFbU6vBDeGjQHjPLkHb4qjBHyKYQGqDH0E2sbTBmIrYQCt+EEGr0b/BnOAG
Qa/oFUGiG7vBg9qQQB4/iL/HK7PBlCi2QCQMwL9giL3BPLDBQJ/WDkGZFqDBci+MQDaECUEanqTB
C7T1QIXo4ECZE7fBH9cAQUoa/0CFOKvBPx3eQFA8FT+KVrrBpwWnQPfFbz8tTr3BL2TKQH9xJ8C5
vqzBE5HxQJOSr7+zILDBcA71QEx6Oj9yEKXBFt3JQJgYhz9O85vBeFOoQPl17kAGo7TB1wyXQA8u
qz/ffKrBE0g0QD5ST8Dc9ITBtcIpQD5+LMBplpLBqxA7QMXajcBTqY/BeBecQJu/YkALg4XBwQbR
QD9fOEAMVIfBSTjIQD7xlED+5ofBfyntQD41KECIdq/BNXu+QKGJPEA3dLfBlp/TQAOkzkAwIqDB
pvubQMa0x0AmTKPB58vpQH1UpEAHJq/B+yC1QO4+pUCQ5rTBQgOdQKveCcAtW4vBPaqlQPgVecAX
bojBqlWgQIyqjsC0kJvBjcSTQLkpMMAAy57BrR/mQJl2YcAlFJPBAqfiQLzIYcA5bKHBwv/TQAgE
j78dnpLBZNQAQSECs79gDZvBYyZuQF3TbkBndarBD09JQNW7ZkAJJI3BGakUQBBzbkDhS5nBsH6p
QNDdcL+Or6HBSPrSQPBVakBG3ZzB9mWKQHmLbEDQFZrB987LQGHvI0EQSLbB9ajsQOFbEkHy6LjB
OQa+QA7WIkHXe6rB5CnRQK3XBL9vYLfBcoraQNo2+ECzVrbBb0asQCysDEGwwKfBMwGrQM6CzD44
uLXB5PfRQCkowr84Fq7BqpvOQC17Ej8dLKPB4urMQCO+9UA7bqrBJfSxQMV9oz/NqKvBJh69QJG5
c0Cgp6fB6O1FQAKSTsCEtI7Bbgu6QMyWZUDot4nBRLPGQPXgJ0DrMK/B1qa3QD8hy0DYbKfBoK/L
QC73o0An/KzB70+GQFUvOsDd1JbBGZyxQM7bWMBtYZLBwEfXQG0/RsC/8pnBOw3hQOdRyr9G05rB
7zqPQB2hdkDYD6XBuNSyQHwqcEDAO5XB/VVLQMscY0CfNZXBHKvIQE/aZ7/WaKPBW6H5QKoOZkCt
Q5vBWTzaQPasM0H927fBp3uvQJHQIUGvZbvBHqr0QO0jE0FxeMHBXt8EQV8DFUFdIrTBxeDZQLcn
JkGPXaXBwB2lQILrLkGjA6nBq+PNQNg/h7+EAr/Bh+buQNCSjj0ScrfBK4i+QKUU8kB+cbvBxzPz
QF3m30DC6bfBTNukQP8PDEHfJ5/BmNyOQGPxCUHcY6zB20CnQEEjhj/0w7zB6vKNQABCVL7CqbTB
rt25QEDVEsAbp6/Bk+7xQIno/L9kxK3BqlnwQGoTTj9/2aTB2BTGQClWcj9YLZvBJ3jpQHA7+kBc
aKXBjqGSQOHwvj9/B6jBe+MHQAHGOMD82JHBUqBDQNMFisAZUI3BHpZTQKSFLcD5H4fBqo6bQA0u
bUBibIXBmxjHQLZmJUDfKYjBs+fQQHMfi0CW7YbBe5bpQGntHkBdiK/BFaS6QAgEOEBtNbfBbXC6
QPPCxkCXuJ7B4aSVQCPIzECIqKnB1b/uQJ5QpkDOeqzBg9/BQJCzo0CUb7XBKRJ/QGc9W8AJap7B
+4OHQMlu6b/pOZjB+Yu3QHs+OMB0uYrBYtqvQNEsj8ClCpHBaurzQIMtZ8BE6JbBMWLPQGDbXsAG
9KHBiQXZQL9Njb8eJ5PBMbUBQSQuur94cZzBGOtuQBiMfkBKU6rBJ2pJQJWtXUDyPY3BYxcVQNFV
YUD4cpnBLrGpQP6eib/r7aHB+OHSQGsHa0AJ6ZzBaDaKQKTzaECH95nBAujPQIuyH0F7NrjBQF34
QMe0FUHAPLPB1ceoQLB8HUELwbDBIuy0QIYKY78KMLbBwDzwQKi7/EDk/a/BQT2hQGryBUGKpK3B
R13AQP0HFT/Qv7fBEIPQQG93ur9IQa3BflXTQIc0Nz/WAqTB97vJQJxD+kC/MqjB1RC6QFhnsD8s
Tq3B30m8QEOueEAmjafBlxaAQJOSf8CQhIjBx5u6QNa0ZUBTuInBAjfJQM9GNEBizq/BunbCQNLk
zECSx6PBuj/GQGb/qEAoRqzB7c50QM1YdcDSrpTBfkySQOyLJsB945jBgrbDQEAQMMCGCpjBLrfZ
QOmXsb/J0JnBua+OQAbxckA+8qTBXuKyQGgzYUD7SZXBmOZKQJRQZ0Aq95TB5pjHQMZGN786RqPB
y6L5QEQ5bEDoXpvBYdjVQMDHMEECubnB1/DIQJSRF0E+0r/B60EJQa45FkFFH7nBDcIAQQXyHkH6
GqzBIWKuQJnqJkHydKnBjTyMQE2aI0G65bTBMe2SQELceb8ZBbTBtPO6QBtbuL9bpL3BMzLpQPqw
6UA9LrfBTnUGQeTg70BSB6zB5gmGQF/mBEHxFKjB9z6aQIoL+UC/3bTBZwjiQA1dKD+lPrrBZ7Or
QEcWgT8AAb7BI+3IQGNfIcC1HazBe4TyQDbErL9NXK/Bvd/1QBFdTj+Fi6XBKGfLQC4TnD96cZzB
pwHRQLybB0FgXaHBXtaXQGfKsj/pQavBdiRdQOpJnMANyIXBWEmiQMlwg8DtpIbBB/RmQISMRsCs
boTBGU2cQCvvW0AOaoXBT4zRQDumM0B5ZYfBG8fHQFl1kkCNrYfBLlrsQKaTM0DQUrDBQri7QPvy
RkBnl7fBZF7aQMLfxkB1f53BFy2iQJWGy0CaSqDB9w3nQNXcqEDJdq/BiYuvQI+cr0DdyrLBj++G
QOJgl8DbspjBc0AwQLdsbsCafJbBY7iJQGHoHMB7VqHBBVuIQP3C3L+OM5TBsAjMQFRPSMCyC5DB
8eHOQO2JXcCjJp7BLb/UQIwbQb8zupLB/jP8QEbJxb9lC5vBelVtQNPCdUBxOKrB+TVJQCbyX0CB
BY3B5WIUQKlubUATFpnBX9SnQA8MPb9DVKLBS3HTQPPeZ0BgIp3BDM+KQJQTbUDjN5rBRQnFQPV1
JEHuSbXBmojeQE9bEkEMp7rBhmPHQN+eIkGzCqnBsd7XQLa3JL+1HbbBEvTNQDPH+EBpErfB2P22
QI3ADEEbTKXByDeyQB4kqD5zjbbBBcPSQPbMxL/QPqzBAZbKQC7sJj/0D6PB0K7PQF6N9EDCuarB
QjuyQPehoj/JpqzB4kG9QLAMckCQ6KfBkqNwQJgIgsBKwYjBT9y6QEWJY0CG54nBW+bGQBrbJ0D0
w6/B0I67QDWgykB3yKbBaBvLQGJmo0BSK63BF+xuQKr1gMA2EpXBfZSNQKyRMcAFWZnB56a+QKRo
NMDEiZfBQGzRQMlKtL9oqpjBF36PQJNZdEC+O6XBOXGzQBwZbUAOcJXBVO9LQCicaUDMRJXBQ6nC
QLxgTL/PsKLBvyH6QFETZEA1k5vBXHHSQEr2M0H0w7fBTmKjQEV1I0EH0rfBRULbQJ64E0FEY8PB
1zsAQXLXE0E+b7jBLNPoQM6VJEHxeKbBMKCzQBVFL0GwbqXBczLYQK/Job+zYb3B3Ab2QKi2pL1H
jrXBBKisQAXx9ECYwrnB2OrhQMKj30CgrrrB6xW7QD6JC0EElJzBA9WUQFNcC0HLTafBu6a0QMJd
bz9A3r3BNCmUQCu1eb6Tr7bBQgK8QGfhFcCIKa7BdBjyQJrB/L+3SKrB9BbtQJP4VT/5/qPBxFW/
QJKLjj8SlpvBjlDxQKq49UAOJajBiOKQQGjvuT89ParB83dQQNIxn8C/54XBjbSZQEXugcBq94XB
mEZPQPJ2S8A+mIXBQVucQExrakAimYXByHPIQMjkI0AtSojBYVjRQACQikAxLofBycnpQEjvHkAq
HbDBtfW6QMUmOkC3uLfBy/7DQLsZxkCaUJ7B0JSYQFcCzUDakqfB0D/uQLo6pEDwoK3B0p69QC3o
pED4SbXBqRGIQFZnncDVLJjB0QAsQIo0gcCpzZfBpjyHQOQ9LMBg+qHB63CAQH6I8r/LNZXB91nF
QFjzTMBHdo/BG2LNQJTdXsCag53Bwe3GQOtlSr/a35HBhpH0QD0SvL/st5jB6SBvQE01ekCSfqrB
uw5KQFWaZkDxR43BPHwVQJf3aUAGeZnBltuiQKOQaL+5x6LBYKnSQMApa0AAep3BLi+KQOR8bEDb
P5rBXRXcQF0MJkG2G7HB/LetQBJMIUGyr63B0OruQAVyE0E3rrfB9DPVQG3EK7+Pn7bBGFKrQCA/
DEEAZKfB6FPsQB6F/ECjebHBtoSuQD5JiD743rXBlp3WQPsmyr+gqKzBAPHMQMIADD/K1qLB5aG9
QFcq80BcDa7BeYOyQOiCmj8H+6vBgKO7QHd7cEDKKajB/TyqQAAh97+t3nrBM3C7QKRMZkCxKIrB
5ILGQP/XI0DBjK/BzM26QCNHykAIUafB6MHGQJFgokBT/q3Bjr2QQKuhK8AnEobB0YWuQHXCX8Cv
jI3BrNixQG0AOcA91JjB3/LMQEuEzb9RCpnBxwqOQMBOcEBXT6XBeSCzQNucb0Dcp5XBl4JLQD3F
aEAAHZXBeNrDQCd3Z7+zIKPBIoD5QJy9aUByGpzBUoHcQJisNEGJALbBS8fvQAR5KEGF6qnBXgyi
QGBwLkGenKjBmH2ZQKgHIEE43LTBUtTcQAreEUFAML/BRlEIQf/xFkHWgLnBu2zSQNBdpb+Q2r3B
97zyQLkwmb0LCrfB2++9QHbbDUEx95/BbbWJQHnTCEEjaqXBt9L3QFVa4kClnLbBsEsAQQKr/kCz
TKrB4L6sQNZWYD8ELr3BBTSRQPqeq76XG7XB11/EQKfPH8BsUK7BMh74QEhd67+n7qrBjkzvQAuG
OT97HqTBZVbDQFsmdz8sEJvBRfepQKcp70AcSLXB5h2SQI8RtD+v7qjBvBKUQALhrr/JmnDBhia8
QGXSKcDWFHHBCb/AQI4Xnr+ESIHBJjWdQCFmbEBIt4XB0I/JQOIGJ0B6mojBucnRQFs+jED7iYfB
14DpQMZYHEA5vK/BTdC6QAWfMkA7pLfBA/PQQHbrzEAdgqDBd+SZQBqoxkBXVKTB/1zpQJP8okCn
mK/ByCi1QNFyo0AsnLXBiWt0QPuuV8DKJYLBjpx9QLvQ+b/k44rBTbTOQDW5YcAg/onB8OOhQGGf
kMB7Oo7BxpzAQBlraMBGL57BXHCRQKfTKcBisZvBt2nEQD7edr9cN5LBLiXvQG4x7r9BnZjBj2Vr
QNSSckCgfqrBAN5KQP/tZ0BIHY3BRHYUQBDFZkCuL5nBkyykQNZdeb/+G6TBK4XTQGDEa0AgbZ3B
E+eKQP2cbEAAZ5rBLyvaQKRLJkGo/bDBYsKrQGEbIUEOxa3BzU/uQGrQE0GtZrfBbJfaQPFVTb/5
2rTB7capQKwhDEGUaafBUAXsQIha/UD2JbHBM7O4QPf1jT4k/LbB1+LNQBY00L968arBSp/FQOUi
HT9T1qLBBzW9QIw380C6863BdcyzQI79nj99P63Ba/y8QJaAcEBENajBDjPRQNkHisDMupDBom+7
QKZ2akD3JorBPr/JQDjgJUDTxq/BEGi6QN1QykCWOKfBCHDHQEXXokAD463Bf26iQHHpi8CY24zB
n7yLQCUTQMDH1ozBebeOQI9OEsCSr5fBcSS3QLo4tL+jTZjBPkWPQGOObUB/d6XBu52zQMw4cUD4
s5XBzXpMQJIoakBRW5XBuXu3QC2aSr/626LBK0f6QEMfa0AA6ZvBl1faQBvaNEHk77XB+zLtQLII
KUEtt6nBECmfQFMxLkF/zKjBJCKYQBiHH0E9CLXB9PTcQLH4EUFjAL/BmAQIQYChF0GKDLnBfOTc
QPa+u7/y17vBcML5QKEgpb59cLPB1t+7QG4CDkFV7J/BTTCIQNVnCEGEjaXBomv4QOhK40CzL7bB
a6X/QP0EAEG236nBY0PCQJdlXD/sDL7Ba8OZQHXGV75Ih7jBAYa4QLVXHMDBcq3BCvXqQP0qA8BW
UKfB8sboQPIhKz/xwKLBVcW4QMi5kT81zZvB5TWqQFbg7kDXR7XBaXKRQN1Ntz/1EqzBeinfQAlV
qsBShZDByyfSQFZge8Cu95jBxq3jQN5uacBbd4vB7ficQNblcEA/0YXBesjJQEXQK0CuWYjBrGzR
QEPOjkAeoofBVpLsQJO2HEB9M6/BIUXBQD47OEDzALjBnP7PQMAzzUDSTqDBzVSZQP4wxkBZZKTB
vhnqQL03pEADYa/B7jO2QHPGo0BljrXBmJOQQEyeocDUJ5LBkhmiQJClmMCBp4TBEI1TQADZScCu
34rBraWaQHBYF8B+tIbBpNyPQHp3QsAgGZ7BgJlkQIFI07/kv5jBcyW2QMTTIb/oEZLBG+rTQBy9
AcCIOZfBg1BuQKdpbEBduarBlRpLQGyOa0BHXI3BP9AVQG3iZkAif5nBC+eYQA7ORL9YNaXBzRbV
QGEQeECs8pvBECuMQEABa0DmNJrBcQ3aQLAeJUFQL7LBL5SsQPscIEEjKq7BE/XrQBSdEkFE/bjB
/surQGKyrr0yybjBMOSrQAQFC0GW6afBVFrrQCXl+kA6vbLB7AaZQPkHUj/mBrDBXbu5QC20tr++
yrPB26HbQBBw2Lx7C6bBNJG9QIXb8ED8xq7Bw8a8QK9IlT+D06fB7xbCQPYQb0C7D6fBC0ZFQCF1
WcAjkZDBv5G4QNY1a0CnSonBhbvUQLujG0CWBazBvMS8QD6syEAb1KfBvEjLQNO/n0Ca4a3BB/+G
QE3NNcCZhJfBuTKyQNCkWsAZvZPBawbZQC2EJ8A365fBPxbaQJtPIMAaNqTBHaKTQOPhaUArK6XB
qxCzQMtBeECz0pTBh0ZNQEf2X0BIyZXBvUHEQLewpb+lQajBUVD7QP2Te0DFxJnBnB3ZQGm8M0Hd
FLfBzibvQCOtJ0ECQqvBI8ShQBQmLUH456jB1eCWQOrSHkE1ELXBmEvYQGXdEEFlPMDBJ48GQaxY
FkGdRrvBLmeTQIH6ib7m9L7B5K7HQDiL0D4Hb7zB+re/QDq6DEEMsaDB7L6KQDpcB0EnlaXB61H2
QIvd4ECP/bfBGHQAQdJ7/UDjz6vBz8KMQLiF3z81qLPBBo19QF6Nlz6p7qvBgH+fQAjACcAprrTB
yS3WQASz5b/0D7jBKyD3QBLceT3PfqvBPwTnQIJayLzCt53Bpo2oQBIn7EAKvbXB/putQHtUtT9K
JKDBCNIHQK/2PsCSTJPBINRDQOfQj8BDP5HBthBQQJJYR8C7K4jBwzGZQH0NbkBoUYXBBzTHQC43
LEAY3IfBCnTNQLXIjkDWCobBS8v2QKWkFkBA5KnBonrRQM60HkCYxrTBzz/SQJOizUDm96DB1uSb
QNC9w0BN76TBe9LtQE27oUCDga/BUry5QDxpnUC+fLXB+4qBQKTpR8Br6Z/BRqmHQNBA37/j1ZbB
XNiyQCroWcDN8IrB99q0QHaBjsAXmZbBWcTXQKI9zb+yhZTBenb2QHulR8DDPpXBlq/7QMCTHsB/
06bBdkXKQM70WMCroKfBNEt6QAsqZkBt16rBTIpHQIGAYECY0Y3B0Z4ZQJj6VkDAX5rBYF+oQKjB
nb/wXKTBfEXSQB6ZbUCt0JzBAreJQH71aEAh5ZnBnjrVQIC7HkGq07jBLBn7QDzhFUGkTLLBbqWq
QOCyHEGXpbLByHqxQFlfUr9Z07XBhmvyQD9+/UDh2q7B9IeiQN1pBUHrL6/BlFy8QEvqJD+Qs7fB
tt3PQHJIr78Wbq3BKjfVQMiHTT8+YqTBXFjIQGg5+0CKUajBtDe5QBPwuD+0Ma3BmKe7QPG9e0CJ
dKfBiE6BQHPBb8CLJorBmg+6QMZUX0AqpYnB6sbHQNMTOEC+26/BtCLAQH1MzkAoy6PBlFzGQKQq
qkBQHKzB4sCvQEiLiMAVE4vBvovPQPyQSMBbhI3BGFPJQMODKMBF5ZjBbmjeQNbgob80PZrB1gGO
QArpdkDw0KTB5keyQCi5bED+GJXBe2lKQFiTXEAEBJXBnq/JQNG0Hb+IWaPBwAb5QLLRaUArWJvB
bSDbQLC3L0F8mbrBiLbSQPC5FUF3XMDBQxsMQQdXFkFmPbfBrLn/QArYH0FnI6vBhfurQAbqJkEY
favBlkGQQDT+IUF71bfBl0eQQPopab9V/bLBaje1QIhOsb9WU73BC3/vQEUq6UCAALbBJJAGQREJ
8kCj46nB/dSEQDGTBEFxe6rBxIKfQFNu9kDKUbbBCCrdQDvyNz9v1rrBtNOlQFFYiD8jkL3BChDJ
QNnYG8D8EKzBaRbxQEBnoL+kL7DBIzD3QNv2Yz/+k6bBYpzPQOeIqD/iupzB0pPLQMimCEE7g6HB
nbOXQHt/uz90gqrBdWNXQCDFksCwZ4jBc7x+QBhwQMAdp4PBMaFvQBGNUcCrvJHBjHubQKGVYUCc
S4XB4yvJQNh+IEAJbojBEGDPQBDviEAtn4bBJdPqQH/SN0DdrLDBQyu5QNqlSkBahbfBFWXWQPnO
yEC4HZ3BIQWfQHPxzEBg1KDBZujnQC8zqkC6xq7BsEuxQBdQsEDB/bLBpNa4QPTAl8BreIPBA0mx
QHFPoMD6jZHBKi/KQH1/E8Bi5IfBi2nwQFOrYMBSmIzBEvDXQP0fVsAXhJ7BpeSmQAwLI8B8l5rB
gNbZQPuQKb/z9pLBDmsAQdE9sb+8zJvBlM1rQBW2fEABB6rB7wFJQI6qVEA2FI3BEv8TQKMEW0Do
OJnBGUKqQBhHI7+O2qHBmCTTQMLTaUCgS53BzXeKQIAPaUBSMZrBQJHbQLpVJUEJr7HBdQmtQH1x
IEFEc67BNIfvQPWEEkGz3rfBbj7cQIilKb96QbXBL9CqQEjuC0EywqfB9CDtQHOX+0BXU7HBRsm3
QD/rqT6IZ7fB6vzRQD50vb+VH6vBBMPDQGKHPD+nZqPBDEm+QIQl8kB5+q3BasGxQAuRpz++zq3B
6U28QDVScUB1EKjBoNXsQC8agsCiHpbB7im7QHuba0B8+4nBQe3HQE0tKUBfGbDBoKK7QO1HykCa
66bB79DHQETjokDSkK3BKwLXQL8LX8AnB4zBzAbmQNuBAsBNZ4nBjKXkQO1wjb8pHJPBWZm4QFN+
nb/Ki5jBTJ2OQHevb0AYPaXB3kWzQI9iZEAcipXBab1LQO3EZ0DmG5XBf724QNAQLb+BRqPBgOX5
QPF+a0BGyJvBRAPcQBOsM0FXybbBQIjuQMxSKEEdbKrB/2agQB3fLUEYuKnBM5KZQH9oHkEVtrXB
whPeQFxLEEFRbr/BHKEIQWYwFkFwl7nBkI/fQK3Qq78ZILzBYlj6QKX95L3jE7TBKsK8QFdEDkFZ
R6DBlCyJQCdZCEHG4qXB8zb5QOvg4EDsMbbB7nsAQbH4/kARG6rBrly/QMDfaT8Sob7BX+OZQFMv
aL5hq7jBx1u/QIqaF8CEZ63BeSjwQGXD5b/LWqfBVLnmQLpnXD8ELaPBWmC1QHGGnz9xe5zBBDSr
QIDA7EDGP7XBVk2PQLz8vj9awazBwP7gQPW9osAokZfBKVnlQImfW8ALEJ3BDtgHQcb0gsAQ6JTB
xb2cQOIUZUCxoYXB50TRQBi4OED9cYfBKmbJQBw3lUBCOIjBprvqQCf0HkCizK/BCLm+QHNHPkBJ
LLjBh93RQPKJzUBkJaDBoMyaQAubxkDE4qPBOo3qQA17o0Cb+67B5t62QHZ3pEDPRLXBzzK0QAFF
XsCmVI3BwYneQIJHhMCrLIXBNhbRQIFS0L+yJIPBhY8DQbVHBcAIbYbBTKbpQE60iL1xfJDB8Ov9
QEWesb9dzZjBBN6vQOjZEsAF/5jBJsKgQHE7Mb/TtZPB5bZsQCXXckAAcarBaKtKQGIRY0C4IY3B
Vd8UQNd7a0CCM5nB+3GaQNw6Or+h0aXBqr7QQOlQbEDo6p7B4CGJQIBVa0D5bJrBH23hQGd5JkHK
ta7B1NWwQFInIkG5z67BC0n6QDX9E0HiCrTBeoLWQEsBRb8CerTBpYGmQOatDEFPW6nBKeXvQC2/
/EAEs67BE6esQIXN4jwZt7PBXGPgQF+Nub9WqqnBEGPQQDxZSD+rMqLBp/K+QPIT9EAWx67BL0Gw
QMoklD+6NKvBUq22QH8YcECsQKnBOLQPQVHMl8BcRn3BTPS+QBNGXECaSYvB7g++QLZKIECTibDB
6jO0QH4+ykDS1ajBhCrBQOj5oUCMYK/BFZ8DQZMEjMB37IjBVSsBQekNNsDu74nBrVfqQIobIcAr
UJTBiLjoQGy1fr/hMZbBqPiJQJM0cUAEiqXBCFqzQMtpbEDphZbBuARMQD/2ZkB/uJTBrA7RQJrC
Kr9sLaDBIN33QEqSaEAANp7Bo+/nQMRjNUHAFrPBpDfsQBEpKEFaYKbBp1ygQCYeL0HCg6rBAZKl
QJOoIUEbJbfB83bxQA0uE0FYjbzBuWcOQYsZF0HZUbPBp1XTQGv9xL8Xt7rBNdnwQAPDs73pjrbB
YeSvQByODUH34qDBz+eDQO+nCUEG7qnBLiIAQXD+4kDUFbPB0kb7QOxU/UCOX6bBxZ2lQOII9D7T
jbvBfIaSQDcoJ7+Fc7HBS8jQQKTfG8BOj6nBBp8BQXEByr9k/ajBfKLwQPaljT9Cl6TB3AfHQN+K
pj84zJrBHye0QClU8UAaILfBnoyQQKWmpj/8j6fBRUERQdvKusBvLXzBVLcfQTczicBzlX3B+MsG
QUvUi8AcU2/BEByiQEvtX0C3Q4bBPDrNQNAsHEDTkorBQTXWQNRThkDqoIjBBFXgQCF7HEBffbLB
z3+rQF7CKEBg8LfBZHPFQAbgyUAlKqHBSomRQGQxyUDsVKfB78TjQGEjo0Dg9rDBwaCvQEMPokDN
AbfB6ZEMQSYpmMDg3Y/BGk3nQDrKmsC0vIjB7S3wQMFnHcCaDoPBwBYRQV4RGMCSHYrBv936QL63
P8BwE5vB3HvJQFX1OcCnwZPBAI/YQKpZBL9SYI/BPcwEQa0tHL9G1pbB+nRgQBuBdUC6QqrBqXdP
QIv4Y0C3vYzBl/kSQAOeZkABWZjB2LKyQK6Pcb+7857B

>  <OMEGA_E>  (9) 
GqoHPwYhDj9QFBU/MOYXP/wyHj/o3R8/oBwjP4wxJT+mmzI/9Ps+Pw==

>  <OMEGA_NBR>  (9) 
     81120

$$$$
50253508
     RDKit          3D

 57 59  0  0  1  0  0  0  0  0999 V2000
    6.5598    3.8685  -19.6716 C   0  0  0  0  0  0  0  0  0  0  0  0
    4.2957    3.7859  -19.2856 C   0  0  0  0  0  0  0  0  0  0  0  0
    6.6461   10.6409  -21.7444 C   0  0  0  0  0  0  0  0  0  0  0  0
    5.2553   10.2878  -21.1877 C   0  0  0  0  0  0  0  0  0  0  0  0
    7.1353    9.5633  -22.7308 C   0  0  0  0  0  0  0  0  0  0  0  0
    6.2877   -1.2125  -21.9223 C   0  0  0  0  0  0  0  0  0  0  0  0
    5.2709    8.9013  -20.5235 C   0  0  0  0  0  0  0  0  0  0  0  0
    7.1496    8.1706  -22.0738 C   0  0  0  0  0  0  0  0  0  0  0  0
    6.1953    0.2151  -22.5188 C   0  0  0  0  0  0  0  0  0  0  0  0
    5.3315   -1.3755  -20.7301 C   0  0  0  0  0  0  0  0  0  0  0  0
    6.2493    0.8641  -20.0667 C   0  0  0  0  0  0  0  0  0  0  0  0
    5.7511    7.8131  -21.5150 C   0  0  0  0  0  0  0  0  0  0  0  0
    5.7456    1.2776  -21.4745 C   0  0  1  0  0  0  0  0  0  0  0  0
    5.8443    3.8886  -21.0160 C   0  0  2  0  0  0  0  0  0  0  0  0
    5.8172    3.6971  -17.2696 C   0  0  0  0  0  0  0  0  0  0  0  0
    6.2704    2.6873  -21.9237 C   0  0  0  0  0  0  0  0  0  0  0  0
    5.7638    6.4612  -20.7796 C   0  0  0  0  0  0  0  0  0  0  0  0
    6.1009    5.2575  -21.7136 C   0  0  0  0  0  0  0  0  0  0  0  0
    4.4256    3.7801  -20.6685 N   0  0  0  0  0  0  0  0  0  0  0  0
    5.5650    3.9098  -18.6998 N   0  0  0  0  0  0  0  0  0  0  0  0
    3.1561    3.7005  -18.6499 N   0  0  0  0  0  0  0  0  0  0  0  0
    5.7213   -0.4609  -19.6268 N   0  0  0  0  0  0  0  0  0  0  0  0
    7.7725    3.8848  -19.4909 O   0  0  0  0  0  0  0  0  0  0  0  0
    6.5900   11.6076  -22.2663 H   0  0  0  0  0  0  0  0  0  0  0  0
    7.3593   10.7155  -20.9102 H   0  0  0  0  0  0  0  0  0  0  0  0
    4.9628   11.0419  -20.4422 H   0  0  0  0  0  0  0  0  0  0  0  0
    4.5267   10.2851  -22.0119 H   0  0  0  0  0  0  0  0  0  0  0  0
    6.4632    9.5423  -23.6013 H   0  0  0  0  0  0  0  0  0  0  0  0
    8.1543    9.8148  -23.0603 H   0  0  0  0  0  0  0  0  0  0  0  0
    6.0218   -1.9446  -22.6991 H   0  0  0  0  0  0  0  0  0  0  0  0
    7.3184   -1.3948  -21.5841 H   0  0  0  0  0  0  0  0  0  0  0  0
    5.9508    8.9248  -19.6591 H   0  0  0  0  0  0  0  0  0  0  0  0
    4.2543    8.6543  -20.1838 H   0  0  0  0  0  0  0  0  0  0  0  0
    7.4408    7.4207  -22.8241 H   0  0  0  0  0  0  0  0  0  0  0  0
    7.8788    8.1676  -21.2502 H   0  0  0  0  0  0  0  0  0  0  0  0
    7.1853    0.4992  -22.9052 H   0  0  0  0  0  0  0  0  0  0  0  0
    5.4687    0.2046  -23.3446 H   0  0  0  0  0  0  0  0  0  0  0  0
    4.3066   -1.1391  -21.0522 H   0  0  0  0  0  0  0  0  0  0  0  0
    5.3727   -2.4146  -20.3715 H   0  0  0  0  0  0  0  0  0  0  0  0
    7.3480    0.8147  -20.0875 H   0  0  0  0  0  0  0  0  0  0  0  0
    5.9303    1.6273  -19.3416 H   0  0  0  0  0  0  0  0  0  0  0  0
    5.0390    7.7571  -22.3515 H   0  0  0  0  0  0  0  0  0  0  0  0
    4.6461    1.3071  -21.4581 H   0  0  0  0  0  0  0  0  0  0  0  0
    4.8718    3.7806  -16.7136 H   0  0  0  0  0  0  0  0  0  0  0  0
    6.2443    2.6948  -17.1178 H   0  0  0  0  0  0  0  0  0  0  0  0
    6.5250    4.4563  -16.9053 H   0  0  0  0  0  0  0  0  0  0  0  0
    7.3696    2.6494  -21.9409 H   0  0  0  0  0  0  0  0  0  0  0  0
    5.8943    2.8805  -22.9392 H   0  0  0  0  0  0  0  0  0  0  0  0
    6.5178    6.5052  -19.9798 H   0  0  0  0  0  0  0  0  0  0  0  0
    4.7703    6.2939  -20.3381 H   0  0  0  0  0  0  0  0  0  0  0  0
    7.1611    5.3167  -22.0008 H   0  0  0  0  0  0  0  0  0  0  0  0
    5.4729    5.3203  -22.6146 H   0  0  0  0  0  0  0  0  0  0  0  0
    3.6716    3.7127  -21.3219 H   0  0  0  0  0  0  0  0  0  0  0  0
    3.1384    3.7211  -17.6503 H   0  0  0  0  0  0  0  0  0  0  0  0
    2.3024    3.6145  -19.1634 H   0  0  0  0  0  0  0  0  0  0  0  0
    4.9155   -0.3006  -19.0567 H   0  0  0  0  0  0  0  0  0  0  0  0
    6.4292   -0.9129  -19.0840 H   0  0  0  0  0  0  0  0  0  0  0  0
  1 14  1  0
  1 20  1  0
  1 23  2  0
  2 19  1  0
  2 20  1  0
  2 21  2  0
  3  4  1  0
  3  5  1  0
  4  7  1  0
  5  8  1  0
  6  9  1  0
  6 10  1  0
  7 12  1  0
  8 12  1  0
  9 13  1  0
 10 22  1  0
 11 13  1  0
 11 22  1  0
 12 17  1  0
 13 16  1  0
 14 16  1  6
 14 18  1  0
 14 19  1  0
 15 20  1  0
 17 18  1  0
  3 24  1  0
  3 25  1  0
  4 26  1  0
  4 27  1  0
  5 28  1  0
  5 29  1  0
  6 30  1  0
  6 31  1  0
  7 32  1  0
  7 33  1  0
  8 34  1  0
  8 35  1  0
  9 36  1  0
  9 37  1  0
 10 38  1  0
 10 39  1  0
 11 40  1  0
 11 41  1  0
 12 42  1  0
 13 43  1  1
 15 44  1  0
 15 45  1  0
 15 46  1  0
 16 47  1  0
 16 48  1  0
 17 49  1  0
 17 50  1  0
 18 51  1  0
 18 52  1  0
 19 53  1  0
 21 54  1  0
 21 55  1  0
 22 56  1  0
 22 57  1  0
M  CHG  2  21   1  22   1
M  END
>  <OMEGA_C>  (10) 
JOrRQKSVd0BkX53BHHaJQF1MckDcSJrBH63UQDtBKkF19K3BbCuoQOqaJEF3gKnBxFTkQEoDGUGc
2LXBzTTJQKkzm7/1YK/Bc6uoQK1rDkEcMKTBp8nkQLG6AkEol7DBO0DGQMpIXD6YJrTBwpuqQPsP
sL8716XBh/rHQLgzXT+HiKDBOAm4QCIF+kDGHqzB5tu3QPyJoz/My6vBzQS7QBrfeEC/IKjBtSa6
QO2cbEARKIrBGKfIQJL8K0DOY6/BVXG4QHjCzkCePKbBiTrDQLE9qECBta3BLJ6NQLHtcUAbWaXB
xhSyQMo5ekA/mZXB0f1JQF7UbEAHM5XBCxW3QFr/676/A53BH7j4QEiheEBD7ZvBZOHSQLi4OUFX
IbLB+n7rQJ5yK0H/R6fBAs+eQLOrMEGxiaPB+9qQQJmPJEFFGLDBX9LOQD+tGEFfz7zB1XcCQXYJ
HUFte7jBmrLAQDbo+L/Il7XBUzDqQKeJsr85rKzBzmy+QNnLDkG/RZ3BBCOIQNp3CkFreKHBUhvu
QH127UCyl7bB+h78QICuAkFvAKrBFu7lQBWb/z7DPbfBtf+uQCZ5UT7HwbrB4s+JQDbOkb/VaqjB
Pu2rQJeIGsDe+KLBAyPrQKyOUD9Is6DBJ8W9QA1K0D+Fu5rBpj+hQPs5+ED3z7LB7qyUQEpOpz8r
qqvBZOWbQAr2cUBztYXBsdHHQOp3LEAu8YjBkszQQOiZjkAJPofB2NPrQGqPKUDyhq/B8Z28QP1Z
OECEg7fBu5HQQKYq0EC11p/BdKaYQHlnyUBvtKLBwyflQIoiqkCXAbDBWSKvQNY/qkCu6rTB6Ppq
QHOdbUBMk6rB+NtIQCImbkDIM43Bz1kTQPpTZ0C4TpnBKkydQGftmb4jdJjB2rvNQFayab8CrJjB
CoHSQMqzdkCuWJ3BMPWJQKRBcUAzcJrB5CTFQKSxKUEkGbHBZUHlQOL3GEHeSbXBstu3QGq+JEG2
gqXB/ynEQN6Gnr/TQ6/BIorSQGg2AkHrjrTBPk2mQIzjDUE1gqTByBfCQKBbRD51CLTBTnGnQIfG
rr/BVKXBUl3IQKCdVz8ke6DBxjfGQMgE+kAz4qjB96q2QGH/oj+XjavBcya8QAjdeEDDKqjByDC6
QPapbED3LIrBqMDIQBl5KkDGUa/BQ5mwQHP+zUCAq6fBxErHQC4zqEAAg63BQ26OQKywdEAHgKXB
pmmyQNDceEAOp5XBKdtKQFzJaUDra5XBoLC2QHR37L7QtZzBZTv5QMIAeUAEy5vBJxTUQAufOUFp
YbHB1oOoQDKPKUG5N7bBTdvsQNaOHEH9sL3Bm1QBQaTFGUHcd7DB8urTQHZzJkEsRKDB4PCeQPsj
MEEeB6PBJm65QEfL+r+uWLXB22jlQP0hu78P/qzBxuK1QFknAUFepLnBIpHqQOM77UBNV7fB/QOg
QLN5CkEcBZzBeD+IQAfBDEH8DanBcnrhQLwt3z58gbfB9JupQL2FVT6oWrrB6GyGQLI8jL+ZfKfB
YT6oQJjgGcAqcqLBVl/rQBHXQD+hD6HBsiXAQMEUzz+hlprBAE7jQOSl+kAY7qPBbJ6TQEO9rD8y
A6vBjbqbQJ1HcUDOzYXB32vIQO8sLUBU1YjBvEPQQKExj0AMSYfBWuHrQLMYJkCEdK/Bxd68QMaf
NkBidrfBREevQJxKxkDsFp/BdOCPQCKG0EDg2arB/R7qQBwcrUBgK63BsNi8QOaMp0Ds6bXBcc1s
QIFedEB5yKrBtWlJQEwhaUCMbI3B8m0UQBK7ZEAulZnB/AqeQL3Sir5o15fBLqbNQHrob7/jopjB
tlzSQPSteUDKIJ7B7NGJQOBQd0CHxJrBSU7FQFpbLEH6FbHBSq/nQATJG0FnIbTBT1OzQDgJKEEY
1aXB1ZWzQMvfEb+Q46LBFv3VQOLVBEE4V7PBw7aiQLgDEUHD0qTBPzGrQK5JbT+Tc6XBPi3KQHb2
pr8SHazBViTPQHKlLT/NrrfBIHbFQDZsAEGI3qfBFlzNQIiZwj/HOq3BeMu6QPqMgkDVrKjBJYa7
QAyFcUCxxIrB4b3FQI5bP0BjHLHBsoWxQOnx00CxTKbBqFnFQKbHr0DuMq3BH12NQLq2fkAazqXB
qfSyQNxIcUDDTZbB7CFLQE5PdEDBjZXBxTS+QKgrMr+MZ7bBsRX5QCaof0BuvZzBNJ/TQJ9uPEEY
QLHB1QWrQN+LK0Hq7LbBSD/yQCLJHkHKY7zBLIoBQRZuHUGHqq7BR9XMQB6XKkF455/Bv9iYQPMz
M0HTRKTBMNHHQJ0BIr+VtJvBtr6UQCMQiL+bVKHBZ327QFXpAkGEDbnBpZTvQG/H8kApR7XB57mY
QGMxDkH1gJzB+g+HQI37DkFNLKrB6W2LQBGjgj9ZK6nBmdirQKDTvz9x753BOgntQGuxnb/QCavB
nJDAQJg0F8BOFazB6Su8QJCcmD++2b3B1K7wQEaoHD+cTLrBEWzgQB8iAkHMRqLB89TsQJ9MvD/Y
TqnBP0SdQI7naUCeX4bBPifRQEJSPEDoxYjBfpfKQJdBl0A8gYjBKBjjQNERVEBvOLXBkhqrQDaa
PUD127bBOz+1QNIMy0AU1p3BuUePQEoT1kCNRKjBDU7oQEbfs0CHXq3Bm524QDguskCCYbXBc9Fp
QH2Nf0C69qrBshJLQJ0UbUDdmo3BmcATQJQ9eUAShJnB3rjJQKnsob/GUbzB6EeeQEHKKb9X4rbB
embSQAAQf0AneZ7BbCOKQLY2eUDf/prBwYzTQMb4LUFDp6zB4SunQIToJ0H9QqjBN/3iQOhvHUE5
8LTBGx+3QNATAL/FnqHBdtunQBdNEUG3a6PBhq7jQAi2BkG/KrDBtZ2uQHrofD+fF6TBWjiyQFZS
q7+3z6vBNwDIQMoRFz9+8LbBZRa3QISPAEEvtqvB7CjNQAVgwD8rDK3Bj3G6QAXlgkBCCanB4ia8
QI6+bUBQMovBFsHFQEDMPUApN7HBY623QFby1ECwO6bBxs3BQADTr0BHIq7BVVyNQHqYfUDdC6bB
gjKzQAsLgEAbfpbBpEJMQO7hbkCZ0pXBUU7PQG7WVL/yOrTB7VT5QDgmf0CFRZ3BYaHRQPTJPUGY
e7DBi4rqQGmWLkE6/6XBpuedQMhzM0FBCaLBprWPQKxlKEE80a7BdkDNQJGuHUHe27vBYr8BQVG2
IUFMjbfBy9bXQOguHb8JgZ7Btg+gQIl/Wb9alpvB9MG9QMkfEUEviJzBgWSHQJYaDUGJvqDBwsvs
QDiA9kDicbbB8UT7QN8cBkFRpKnB/0aNQGWWjT+5wKbBwtSzQOI5yj9sypzBCiy6QLLBGMCbCarB
vvaQQBY3o797pq7BLF6nQAQFND+lHLrBckffQLpKZT8zEr3BxhegQNolAEELX7LB403uQDhWtj/J
JqrBa2CeQAaockAVi4bB+DTJQAikLEB1corBoZjTQGYXjkDEIYjBB0/jQASTUUB9TrXBv1+rQOb1
OkDqB7fBFDnQQNk91UAV7Z/BJBmYQJ4hz0C0oKLBDXnjQC1VskCHn7DB2PasQJX8skCGLrXB54xp
QGx9e0ALKavBYFJMQAUfa0Aj1o3B8CEVQIy+akB42pnBmnXtQCIVb79ArrHBngPLQCKQsL/j1brB
lrnSQBFadkD04JvBFvaJQKiyd0CMrpnBiK7OQEHiKUEH/azBCHWiQN0TIUFKpKnBLNzhQOuCHUE2
j7bBOma7QOp0GL9EsbbBWvmjQPqtCEHp2afBzKLiQCQ2BUHWabTBMMXLQPbmWj9BlbfB0LPGQEqk
mL+ss6vBGMvEQGaxhj/4haPBbKO0QOIO+0CmJLLB3Oq5QPfx3D/IY67BDoq+QBePhUAXj6bBHHG3
QKw1aEAVDonByr7MQM07S0Ctf6/B5OywQLOjyUCmxrHBHNbKQED+tEDTqqjBUnqQQMClgUC3iqTB
yrOxQNjHeUD/d5TBn+FIQJYlbUABPpXB+BW1QGQ7sL6/FqPB6hf5QP9dbkACF5rBxCXLQEvOOkF8
Pa/Bq63kQBiSKEFQJqbBAHSYQPfoKEEpK6LBFh+LQLelJEHQ+6/Bs1vOQJClIEE4t73B22IBQXwa
I0EL8rfB5G+YQIadGr8WtrfBM07KQJMnmr/0AL3BJ5O5QOgNBUHCJKHB7qWDQDrLAkEU/aXBPljv
QKCk+UB1d7vBrxD3QMDVAUHocq3BSO/uQGmzWj8FMLfBkGvBQBKeoz9aSL/BFAu5QHUCDcDmEqvB
OrTpQMCqn7/w4KrB/7nnQHW0hj8icaLBF8G1QJhU0D97CJ3BNICgQOcVA0EBzrjBNemWQOVW5D/l
L6/BGZiYQBUeb0C954TBimrDQOCLJkCHAIjB8qPOQKPgikAIroXBW9zvQBWURkBYUa/BIn3CQO1W
ZUA4QrfB0gePQBUmwUBxtrDB6oK8QACyvED7bbnBWUXFQHJkx0CaS6HBRf3sQH9btkApxarBUgdz
QHz0gkCUGqrBuENEQOd7ZUAcUo3BpBwUQK69bEDAxJnBnTCVQLluq76ruqPBd2e9QF46Pb8mCpzB
CrPNQK93h0DPmZ3BesaHQEN6cEDMbpnBMGrJQKu7J0H+3rDBAc/nQJjOGEEi/LbB4iGkQCKNGkEz
V6zBDHzAQLoDN7+mp7XBsIP6QK+cB0GKZK/B2Jm0QEXZCEGtwaTBzHvQQNL1PD+P9rbBTLbIQHkw
nb9fM6rBDHbFQPTRij/9PqPBESHYQDGL80A1l6nB2Py6QE8K0j8Vi67BQ+KzQONUhEBz+afBLzi8
QFgld0C7DorBEfjIQNvZSECtIrDBeKHIQLhjz0BgWLHByDOmQPTHsEA4vqzBgqKKQPTWZkB6ZKTB
1Y2wQGP3gECOWJXBRTtIQEG5aUBlC5TBuL61QDXPnr5xNKLBGIP0QHkbjEACtZzBTNDaQGB7L0Fj
RqrBSe28QPoHNEFqVrbBaxPWQPffEEFUeL3BGBIBQX1HIkGyZrrBD4yOQCE3JUGB4afBII6SQJMa
E0Fl/rLBb+2dQIreP79bTrfBTnjRQOcyrr+DX7vBxYIHQXXE+UCnH7TBEPgGQQG9D0H6R6nB8e7B
QPyeEEFjmZ3BLiyZQHOo/UAec6LBBGbzQCdMRD+C3rXBxmPIQN3cjD+TBb/B4US6QG9jDsBeTKnB
CmzrQJzMpb8E16jBFFDoQGwCjT/MBKLBr961QLlN2z/7Kp3BmhPoQFrD40BLz6LBICOYQNX5yj/q
sq/BdROfQFrubUA3QoXBdhnRQGvjPkCFMonBMz7NQPJDmEBiQIfBge3rQPyvTEC9Oa/B/f+/QEez
XEB2RrjBVEO7QHC73kCThrjBkKTkQCoPvEBSl7PBW4CPQMAgqkB0QrPB+bqVQE1FwkDBT6bB9nBo
QLwDTUAcGqnBVGlIQOtLcUDKGYzBQnURQBD7XEAX3ZfBoPaVQPTznr5NI6PBPg29QBj2JL+045rB
rCrPQG/EgkAm2ZzBmLKHQOJ2c0DMeZnBlrW5QLR4KUGXlq/B5znLQLSQHUHofbnB4obOQJJNIUGu
LqXBmCe/QNyUE7+qmLbBVJLGQLQYBUErR7jB4OzJQGriCEHyNaTBfXzOQAwqYj9QwbfB9e7JQISE
kL8bZqvB/BjHQMzikj+w0qPBO0feQISp+0BJHa7BJMS6QBzr3z8f067Bcty2QPI3hkA0cKfBajS6
QNxFbUCosYnBEWjJQDgCT0CuJbDB2BPgQCBhykDaD63BXgS0QLyLtUD1CavBMxyLQByodEChi6TB
NkSwQNTxf0Ab7ZTBm7BHQGT/Z0BoSZTBHBi4QEBKgb6T+qLB/wb2QImcgEBEjJvBinLAQDupOkGi
cbDBH+uWQNv3JkGxHa/B5le5QFTIIkHKm8DBYUrtQMmGIUEMfbrBarbwQEF/JUGTN6XBEc6+QAfz
KEGmTJ7BFk6cQI9mHb/Xy7fB8A7PQI0Vmb9cr7zBTnykQMzmAEFeoLfBcnrUQCAx+kCRTb/BEUXa
QOhkA0GW6pzBYcqnQOGuBEF9wqPBMpbxQDC3aj9pJrfBCoDEQCEkoz+Wl7/BdTa8QKW/CMBfkarB
nebsQIFJl79Ve6rBjRvqQKv+lT9P7qLBQUW4QEZi3z+tbp3BsnL/QDSXA0GPu67BE7mXQBaF2z+B
m6/B7GycQGdCbEDyAIXB4QPKQK6ILkAuIonBM6PPQOaCj0DMhYbBTIvsQKAoUUCesq/Bmuu+QAXV
ZUBgDLjBMFPtQIsmvUCYg7TBK0/1QO5IwkBMV6bBfVuhQNYDt0DdfbLBH3ujQOPax0AZw6TBkQ9n
QCZuZ0DgsanBanpHQKmVZ0B2SYzBZgkRQA2jX0DyUJjBcS6YQDqphb6tkKPBZcrAQPH+HL9d15vB
Fo/UQK30eUA3vpzBtMGLQEKyd0CkTJrBijSeQLGaIEFIm6zBh4OUQFBuDUFf+LPBsjW5QG6UGUFe
8aLBbXe3QKA9j79o+LDBcke+QKRlAkH5obfBfBfjQBb/DkGMuabB1nfIQLKikT7CsbPBTCTDQJxJ
wL+aaKXBDnDEQDZHYD9PFqDBCtvaQIgI90DOEq7BMky4QESBqj/Yg6vBAFS/QEnVe0BstqfBizO6
QOQrcEAVvonBFWHMQB/KLEATna7BPnHHQG8j0UCvlafBehHMQGnhpkDi+q3BSmGRQCtjfEAXU6XB
xbyzQPkafkB+QJXB54BNQBcOb0D9hJXBAjezQHwO9L603p3BCB37QDl7eEAj8JrB5+yvQC7ILEEo
KbHBX8B/QElzJ0HavKnBLbuAQA7NAUGbl6/BLvWCQCoeE0E3DLvBseLAQCGrJ0G1B57BM9amQJkM
DkHhIp7BOHKUQN9XkL8K27HB/K3FQJXo7L8wf7bBZfi1QGUy6EARU7zBV23QQKGaDUGbrbzB7Af2
QH3iGkF5KavBGjL1QO+hCUGoq5/BzajrQBaJiD5Aj7PB1V69QA/6ED9BvLvBW4e0QLE+HsBEc6PB
PiPmQCYKyr9Kr6TBA4HnQCDmWj/iVp/BThu3QLwhyz/NQZrBrNf5QMp27EA6TrHBmkKVQHYZtD8j
HKzB7XabQFHldkB2iYXBDPzGQD5vL0D0a4jB/gHRQEHfj0AmpobBO1rvQNIMJkBwFK7Bs0LDQAdw
OkCx8LbBa3DYQPEbzkB36p/BKVelQOdr10BeEqbBkbPtQPGro0ACc7DB6pu3QIEPqUDDHrXBRspz
QFWdf0BcvqrBL5lKQA57bEDCiI3BZtoXQKsGa0Am2pnBF02TQL9O4r4nY57BKrG7QBavPb9+c5bB

>  <OMEGA_E>  (10) 
XH8QP9DiEj8ogiw/lB8vPwSYMD8StjM/jkozP3BHNj8=

>  <OMEGA_NBR>  (10) 
      7790

$$$$
50253509
     RDKit          3D

 57 59  0  0  1  0  0  0  0  0999 V2000
    6.5760    3.8302  -19.6598 C   0  0  0  0  0  0  0  0  0  0  0  0
    4.3029    3.7715  -19.2711 C   0  0  0  0  0  0  0  0  0  0  0  0
    6.6103   10.6455  -21.7672 C   0  0  0  0  0  0  0  0  0  0  0  0
    5.2158   10.2755  -21.2312 C   0  0  0  0  0  0  0  0  0  0  0  0
    7.1324    9.5662  -22.7350 C   0  0  0  0  0  0  0  0  0  0  0  0
    6.4385   -1.2340  -21.8817 C   0  0  0  0  0  0  0  0  0  0  0  0
    5.2386    8.8935  -20.5565 C   0  0  0  0  0  0  0  0  0  0  0  0
    7.1572    8.1788  -22.0639 C   0  0  0  0  0  0  0  0  0  0  0  0
    6.2453    0.1989  -22.4302 C   0  0  0  0  0  0  0  0  0  0  0  0
    5.5193   -1.5099  -20.6757 C   0  0  0  0  0  0  0  0  0  0  0  0
    5.4101    0.8931  -20.1765 C   0  0  0  0  0  0  0  0  0  0  0  0
    5.7537    7.8031  -21.5275 C   0  0  0  0  0  0  0  0  0  0  0  0
    6.4004    1.2598  -21.3087 C   0  0  2  0  0  0  0  0  0  0  0  0
    5.8534    3.8752  -21.0015 C   0  0  2  0  0  0  0  0  0  0  0  0
    5.8236    3.7943  -17.2423 C   0  0  0  0  0  0  0  0  0  0  0  0
    6.2127    2.6839  -21.9491 C   0  0  0  0  0  0  0  0  0  0  0  0
    5.7684    6.4551  -20.7778 C   0  0  0  0  0  0  0  0  0  0  0  0
    6.1052    5.2467  -21.7025 C   0  0  0  0  0  0  0  0  0  0  0  0
    4.4342    3.7784  -20.6517 N   0  0  0  0  0  0  0  0  0  0  0  0
    5.5802    3.7511  -18.6885 N   0  0  0  0  0  0  0  0  0  0  0  0
    3.1564    3.7446  -18.6430 N   0  0  0  0  0  0  0  0  0  0  0  0
    5.7004   -0.4610  -19.6567 N   0  0  0  0  0  0  0  0  0  0  0  0
    7.7845    3.9263  -19.4777 O   0  0  0  0  0  0  0  0  0  0  0  0
    6.5482   11.6064  -22.2992 H   0  0  0  0  0  0  0  0  0  0  0  0
    7.3078   10.7388  -20.9218 H   0  0  0  0  0  0  0  0  0  0  0  0
    4.9002   11.0304  -20.4960 H   0  0  0  0  0  0  0  0  0  0  0  0
    4.5014   10.2568  -22.0674 H   0  0  0  0  0  0  0  0  0  0  0  0
    6.4751    9.5265  -23.6162 H   0  0  0  0  0  0  0  0  0  0  0  0
    8.1526    9.8304  -23.0501 H   0  0  0  0  0  0  0  0  0  0  0  0
    6.2070   -1.9555  -22.6791 H   0  0  0  0  0  0  0  0  0  0  0  0
    7.4855   -1.3578  -21.5679 H   0  0  0  0  0  0  0  0  0  0  0  0
    5.9006    8.9338  -19.6789 H   0  0  0  0  0  0  0  0  0  0  0  0
    4.2190    8.6346  -20.2351 H   0  0  0  0  0  0  0  0  0  0  0  0
    7.4748    7.4269  -22.8014 H   0  0  0  0  0  0  0  0  0  0  0  0
    7.8708    8.1957  -21.2269 H   0  0  0  0  0  0  0  0  0  0  0  0
    6.9986    0.3887  -23.2090 H   0  0  0  0  0  0  0  0  0  0  0  0
    5.2386    0.2828  -22.8656 H   0  0  0  0  0  0  0  0  0  0  0  0
    4.4713   -1.5166  -21.0099 H   0  0  0  0  0  0  0  0  0  0  0  0
    5.7718   -2.4882  -20.2409 H   0  0  0  0  0  0  0  0  0  0  0  0
    5.5068    1.6235  -19.3597 H   0  0  0  0  0  0  0  0  0  0  0  0
    4.3835    0.9177  -20.5708 H   0  0  0  0  0  0  0  0  0  0  0  0
    5.0588    7.7292  -22.3769 H   0  0  0  0  0  0  0  0  0  0  0  0
    7.4236    1.1960  -20.9098 H   0  0  0  0  0  0  0  0  0  0  0  0
    4.8665    3.7126  -16.7062 H   0  0  0  0  0  0  0  0  0  0  0  0
    6.4770    2.9572  -16.9554 H   0  0  0  0  0  0  0  0  0  0  0  0
    6.3102    4.7455  -16.9807 H   0  0  0  0  0  0  0  0  0  0  0  0
    7.1548    2.9414  -22.4550 H   0  0  0  0  0  0  0  0  0  0  0  0
    5.4067    2.6038  -22.6934 H   0  0  0  0  0  0  0  0  0  0  0  0
    6.5234    6.5064  -19.9794 H   0  0  0  0  0  0  0  0  0  0  0  0
    4.7757    6.2904  -20.3336 H   0  0  0  0  0  0  0  0  0  0  0  0
    7.1649    5.3070  -21.9913 H   0  0  0  0  0  0  0  0  0  0  0  0
    5.4760    5.3044  -22.6030 H   0  0  0  0  0  0  0  0  0  0  0  0
    3.6791    3.7257  -21.3053 H   0  0  0  0  0  0  0  0  0  0  0  0
    3.1344    3.7052  -17.6440 H   0  0  0  0  0  0  0  0  0  0  0  0
    2.3016    3.7633  -19.1616 H   0  0  0  0  0  0  0  0  0  0  0  0
    5.0854   -0.6488  -18.8909 H   0  0  0  0  0  0  0  0  0  0  0  0
    6.6477   -0.4851  -19.3371 H   0  0  0  0  0  0  0  0  0  0  0  0
  1 14  1  0
  1 20  1  0
  1 23  2  0
  2 19  1  0
  2 20  1  0
  2 21  2  0
  3  4  1  0
  3  5  1  0
  4  7  1  0
  5  8  1  0
  6  9  1  0
  6 10  1  0
  7 12  1  0
  8 12  1  0
  9 13  1  0
 10 22  1  0
 11 13  1  0
 11 22  1  0
 12 17  1  0
 13 16  1  0
 14 16  1  6
 14 18  1  0
 14 19  1  0
 15 20  1  0
 17 18  1  0
  3 24  1  0
  3 25  1  0
  4 26  1  0
  4 27  1  0
  5 28  1  0
  5 29  1  0
  6 30  1  0
  6 31  1  0
  7 32  1  0
  7 33  1  0
  8 34  1  0
  8 35  1  0
  9 36  1  0
  9 37  1  0
 10 38  1  0
 10 39  1  0
 11 40  1  0
 11 41  1  0
 12 42  1  0
 13 43  1  1
 15 44  1  0
 15 45  1  0
 15 46  1  0
 16 47  1  0
 16 48  1  0
 17 49  1  0
 17 50  1  0
 18 51  1  0
 18 52  1  0
 19 53  1  0
 21 54  1  0
 21 55  1  0
 22 56  1  0
 22 57  1  0
M  CHG  2  21   1  22   1
M  END
>  <OMEGA_C>  (11) 
OW7SQFIidUBeR53BU7GJQGVgcUAzK5rBbofTQAdUKkFLI67BOuimQHZoJEFx2anBbTzkQBcPGUFW
4bXBTAjOQAf1nb++Da/B5aKnQKtLDkG+c6TB8wflQHHcAkHigrDBntnHQBeuSz4JcbPBJp6wQIdD
wb/eZ6XBsR+tQKqiZD+NaaHBeh64QNSy+UA+OKzB9c/MQKg/oT8eeKrBzU67QPEDeEAbA6jB3lq6
QFvVckAs8InBOc7GQOzEK0Cpl6/B8pa4QEOQzkDZOKbBsl3DQCXlp0DInq3Bl+SNQMnRcUDGNqXB
wJCyQKwRcED/gZXB3AJKQOSmb0DUJJXB+Wm2QCQH7L7uQJ3BYRr5QJFIe0BE0pvBrYrRQJ2zOUGp
ZLLB59npQEfSK0HtX6fBWM6cQKl8MEHe96PBhguQQM0bJEH4ibDBbTTPQJ1sGEH/7bzBI3ECQTxJ
HUG0ZrjBq5/GQAtO+r/dbrXBZInvQE/Mrb8fi6zBC9K8QNbwDkF9bp3BFQKHQFUnCkFi4aHBTTHv
QIKp7UAzabbBR937QGshA0Gz0KnBkfTfQBX+xj4LrLnB26KnQLXOkD6q7LbBGBWPQKcfwr9RFKjB
h7K4QHs/H8By7aHBgzewQIHNzz+l4JrBm0WMQH3taj8BkaTBheGhQE5V90DzA7PBu43tQK4VmT9R
R6fBkLqbQN2abUBZpoXBlkPPQBNCPUCnpIfB1ezJQC/bl0CH2IfBcPTkQKFAPEDco7PBAQStQDGl
JkAYjLXBw7/QQKM00EDS1Z/BVtKYQNtKyUAgq6LB7EblQKPSqUAZ7q/BMzuvQLW9qUDa0rTB8XZr
QDZxbkBMcarBPJpIQEQibUDpJo3BrU0TQNrZcEDuSpnBV7uiQBgWJr+ZIJfBxbnUQD9f+L5csprB
iMLRQBbxc0Dr1pzBmQyJQOz8ckBou5nBIcvGQOocKEGpvbPBXW/rQNfSF0HhCrXB4yKwQIh/JUHN
5KjBQpO8QFX4dL90abLBBXDbQDe0AEG2d7PBxJ6gQB9xDkGSUKfBt6bSQH5IyD7rnrTBPbrHQNjY
tr9zFqfBD8WuQHuzZD8TkaLBW/3FQFav/EAPWajBtd/PQOq7sD9v96rBy9i6QD7xe0CnjqfBdb65
QPBcdUAijInBRczFQD8aM0BYnK/BS+WzQCmlz0DayaXBg+fFQI4zqkD/kKzBrzqNQLE5d0A0yKTB
1eCxQIEbbkA9FpXBtPFIQBR8ckA+pJTBYzi2QE1DAb+K3p7BEVH4QFide0DLTZvBQATUQFFjOEEy
SLTBR16vQB6rJUHNMbrBugX5QHxhGUGAH73BwisCQcpAG0GzEK/BvKPGQIqZKUH2caLByHaUQMlb
MEGVlqjB67OZQH0EVr9MHrPBcqrHQNfu2b/NQbjB0gDEQHet+UA+vrnBGLX2QP5B60B0A7TB6VmS
QAXuDEFITp/BbVmIQFi/CkEvaq3Blpb0QFrATz4IaLbBGETDQArZWz+MmLvBuyy6QPeaG8AJ06XB
HL7qQMhsvL/UQabBWlmwQGDOxz+BlZvB+quOQA38cj+xJqbBQ/bdQJRNAkFEN6LB7XzvQMTHtT8Z
HKfBt1ebQBh8bkAlMoXBxP3PQPO1QkCaA4fBb87HQAkrmkAcyIfBlAPiQPrGR0CLMbTBV06qQOtC
LEAYCrXBIMm6QHy4yECJVZ3B2w2RQEqv0ECNA6fB+OboQJNhrUA8Eq3Bbxa4QD7aq0BMprTBdw9q
QEYWd0A9BKrBJuVHQEVPbkDhqIzBMRMSQGdGdkB7u5jBaUWaQMw1YL82WJzB+trKQOwl875wwpjB
BurRQA5dekAbJZ3BqI2JQMold0Br9pnBWsGvQJkpJUFgD6zB7AGdQPxnFEHlxrPBfnDHQBASGkHc
0qLBxrfCQJPDir+i0bDBtg3AQB8aBUEdCLjBwb3rQOgLDEHARafBkUbVQOK3nj6uNbPBN2HLQJuE
ub8NG6XBntaqQNEXVT/TOaLBEuTaQBpW9UC+867BZWbOQFTpqT+N3KnBRL26QPQXfECh6KfBoDq6
QNpjcEDL4InB8avEQMr7LEChKK/BUeLBQKwS0kD6nKjBS+XFQBfEpkDykK7BtFiNQAq7fEAAAaXB
9TiyQEasfkDGUZXBaeZKQJJIa0As35TBoSW1QFJ+A7+qpp3BJbj4QPpmekD7tJvB7EfGQEp3L0G5
cLDB+6GVQN36LkEqyqjBtaGEQOb6CkEMhq/BlBuOQJy0HEGslbrBkfzUQPpBJkEddJ3BiNOwQND8
D0EsWJ7Bjf+fQLS4ib8rRLLBsfDRQBfi6b/qErbBTJGwQD+n8EA9r7zBhbfVQJc6DkFPQb3BUzoB
QSxMFkFZn6vB1D/8QCk8BEGKjaDBNdf3QIFFVT49qbTBmqrFQGiyND/5brrBQOG/QNo4HsANnqPB
agnuQPZos78znaPBhVKnQMPIxj+topvBc5KMQOEZRD/4r6bBZr32QCbV5UC0r7LBwXXsQCKmtD8O
VaXBMB2cQJZmd0A2aIXBLPvGQLh2L0DDsIjBrJnRQEjNj0Cy94bB6bfgQK3GPUBfC7TBkMCoQJyz
I0APZLTBS3LPQCMBz0Boh6DBVfGfQMIb20B3CKjB2CfnQNqbo0BNVrHB106wQFq2p0BQg7XBYeVp
QP1JgEBqKKrBw4lKQJm/ZkBa5IzBaxQUQGzAZkAE9pjBZbaZQIEMcb/CXJvBoPLHQCu9wb64RJfB
+KPSQCR4f0AicZ7BgEqKQHIvdkD0GJvBZMzSQDn9LUHSYKzB5XCmQCF8J0HvIKjBUFvjQF+jHUFe
oLTBMhC2QLvBCb9DR6HBNamnQBbTEEFbWqPBI5rkQAjkBkFc4K/BgHjGQC4wZz8NP6PBDGivQKeV
qL/avavBpOfFQOgpDj+paLfBmey3QFJSAEFjpavB3fW2QI8Mvj8IKq7BFQG7QKxxgkApEKnBSzm8
QIjZcUBUFovBd2vIQBr1OkAwzrDB0eC4QAhX1EB9P6bBuBDDQK49r0B8L67BqbKNQCD7fEDyJqbB
X3CzQMy9dUDZm5bBEVxMQPCPb0Ac4JXBwdDNQGboWL8k87PB0mz5QPpigkCVHZ3BR3LQQILLPUFI
NLDBGGrpQJ3QLkHGpaXB9oCcQNbeMkEU5aHB1UKPQD/bJ0Gkv67BUwnOQJq3HUHloLvBOe0BQRo6
IkF2HLfBU5zNQKWCib8ZV5zBCV+XQLZl+L6U/ZzBuzG9QIrAEEFJZJzBcDWHQHFPDEF9zKDBl6Du
QOIY90AGH7bBPrX7QHd8BkGkPanBm726QGyHxj+HxJzBBqvpQPF4ZD8HLqPBv6q0QOjjGMCEQ6rB
Tn+OQA5+lL/Mma7BKgStQIplDD+rob3B1cPjQHn6dT/1wLrBdWShQGes/0ARZ7LBZseTQCyZwj9H
JK7BhfqdQET3aUDOsYbBul3RQPI2O0A7ZYnB2ezLQAC6lkCCiIjBI5TrQM2ON0ALyrDBxyS9QIv7
S0CO3bjBaonRQE6p1ED395/BfWWZQCxMzkDknKLBkdvkQJFxsUA7lrDBsIyuQFGeskBJSbXBr2Jq
QJ6MfEDvS6vBe69MQGp6aUBp6Y3B3s4UQPmUcECT2JnBSm/rQOrjZ79N9bDBWWrLQAPOuL+3V7rB
DJDRQK9PhUBRfZ7BfPaJQKAnekAvAJvB78DFQPK5KUFD6K/BLYzXQGNTF0EgtLbBVYiiQOITIUHd
gqjB6bu0QBeXBb8VY6LBaj/rQEHtBUFYfa/BTom0QEa8D0Gu7qDBVp3DQPLncj/FKqPBL9rGQIbM
q79CwqvBe0PJQHr3KD9nMrfB2CXMQJ8K+kBqt6bBzUy3QJfKxj/uMq7BkdK5QJ3ChEA5KanBTaW8
QK42cUC9TIvB0u/JQIb0PUBTV7DBI3irQBS42ECE+6rBUvjAQFVWr0CJi6/BfMeMQGQXf0A2HKbB
+6yyQFwIg0BigZbBBIRNQA7WakBBq5XBjzy6QDTwOr+pDrbB9Hn4QOQlhUADOZ3BsKPfQAisMEFC
D6vB0ky4QGQcNkGiLbXBBHG9QHZJEEFRcbvBYlXwQLaUHUHvHLzBu4qVQN1SLkFftqPBb9mIQNQU
GkFiaK3B7hPAQF+wc7/czJrB2pCRQE2mDr+goaLB4lb1QOoE8UBxmLTBYbADQc3FDEHadKvBVEHL
QMtsF0E5a5vBvLuZQI7zCEGXWJzBdju0QIlTxD+EyJzBs5LmQKjUfT85MqLB2vjpQGnurr/GMqvB
tEG6QNyOF8CEWqvBgpy+QAfphj83+L7Bjm7sQLinLD9o17bBBf3fQBLM6UAUsKDBvziUQBv3yz/F
2q7BMgCfQPmQcUAcjobBhGrLQJFkMUB05YrBkvzSQEiLkEDZEYjBttfsQGLGOUBKVa/Bz3TCQEuB
TkADsLjBbB+WQCp7z0CgYKTBxJaYQP6450CLZLHBD6jjQAontUCm56/BR4q0QKllqkBbr7fBzyxo
QJIFfEA2L6vBPQdPQNbBZkD+r43BEzAWQPc0Y0BIk5nB2ZrGQG49o79QArzB7k2aQFjzPL/+krbB
/8nPQOPYgEBk+ZzBbh+IQCF3ckALiZnB3J22QCa8KUHwCrDBl1PNQBAHHkG7UbnBNs7HQMRfIkHG
FqXBJsDgQGL3CL9db7TBNwzKQPyJBUEuDLjBqdzEQJ7pCUH6AKTBJqfaQNgadT9yJ7fBbvK4QB0p
jL9txq7B0/anQNm0kD9SkqfBf8PdQAHh/UDJQq3BxGXPQOdF4z8mC63BABW3QD6phkC8cKfB6Ke6
QOKMb0B0r4nB+R/IQMEwUUDnb7DBu3TgQOWzzED+/KvBkHO0QF+NtkBUv6rBMhOLQKcAd0B+maTB
lnixQCrkb0DvMZXBdjlIQOVvbUCSQZTBaZ2vQET5lr5dJKXBwL32QCPdgEBdvpvBzvW7QO0MO0Hi
4LDB8xuUQC5bJkFXcrDBgk2+QHW7IkH/68DBZknvQJCnIkEJZ7nBkHPpQHNOJ0GmT6TBQ8S0QJji
KUH2tZ7BzDXmQI2JjL8G37vBp6f8QGVoJb8eJa/BNDioQCCyAEHOR7jBp3zbQHxV+0C2mb7BpMTS
QCIBBUEYTZzBbhOjQAoEBUGkUqTBZHr4QCKsrD9on7rBF5DAQE5uhz+fAb3B8GydQMahhr8oQLTB
FNu+QPXtCMC+cazBzTmhQFNC1T9oEqDBizmMQP9Fmz/T8qzBK7D+QBknBUFDEa3BYKLqQG433j9g
eqfB/FmdQJucX0BbPIXBpnjTQPGTP0CF9IfBYgvGQAubl0DbO4fBy9/mQAr7akDSQbPBpdmwQHfw
UUDHCbfBJ1zwQBR6v0DKG7PB2rrzQFyRxUAP2KTB+YmjQGOUuEDMcrLBxh+iQILOx0CSmKTB+E9m
QKy+bEDMwanBBNlIQGIOZ0DfS4zBPn4QQHb4b0ArLZjBwISVQJIgK78im6HBpoPIQNF8ub5gJaDB
gsDTQCWegEAZBpzBzsuKQATKdUCpP5rB6DS/QISpKUHdgrPBXJDdQMS9GEE0QrjByBi6QB54JkGk
YafBpf/aQFVmJr4/ybbBjj3NQLf+AUEM8rXBnE6qQNy/D0HJ2aTB4grlQHqGbz62H6vB3mKrQOBl
BL8W8LfBzr2YQGHjaj/Kp6jBdurHQETn/EBWyqnBAIvHQLkisD+pLKfBDCfAQNqZf0DTIqfBlG63
QKw/bUDrYYnBEe/QQKkBL0CaNq3ByA20QHD/0EDkTafBBuPKQFGWqkBQ36zBZPWRQG2BekBlNaXB
Uu+xQJlDfkBc1pTBwnFKQCX4akDO15XBQqyQQI21GT9xBrTBfBn6QGyTgEDV8ZnBkGbMQB2xOUH8
CLXBPa6fQIA+KEFaXLfBOJ/fQIMOG0GJ98DBV4L9QO+vGkF1sbTBsjTZQAALKUFaeKPBOMaiQMQg
MkEuTqTB1KPiQHwoLj/VG7zBwIXuQBlhhL++BLnBWyCuQJ9v/0Bq5rnBo1nkQEOh7EDMGbnBtIKp
QLScDUE9HpzBNNuJQILEDUHqHKjBfXrgQNbtJL/b8qXBYUIDQYyBET9doqrBZRGkQGTfNL9FacDB
EGikQKjDtb8xObPBs/CSQOWkrTzMw6PBDA2DQG6B3D/kGKbBHojnQBbp/kBM9KXBOnDNQKBnxD98
l57BHweYQJk7bkDJaIXBR0rGQMkGLkDcSojBMB3MQPNbj0D/2YXBY7/zQBNWNUCwPq7BMnDBQEqP
LEDbG7XBNmG1QPrty0Aump7BKneSQCx10UAd76nBW7HtQJXAr0BqoqzBtzfAQN6wqEC0PrXBRZZ2
QAhvekAi26rBqxlFQLIPaEAU4Y3BxFQWQMeaZUAvcJrBpv+WQJ7FtD+Ra7jBg7tjQPIstD5o4bTB

>  <OMEGA_E>  (11) 
hjcUP+YLFT8INCo/PnEuP5weMz++YTo/gtdLPw==

>  <OMEGA_NBR>  (11) 
     14645

$$$$
50253340
     RDKit          3D

 73 76  0  0  1  0  0  0  0  0999 V2000
    6.5684    3.9732  -19.6894 C   0  0  0  0  0  0  0  0  0  0  0  0
    4.3009    3.8581  -19.3299 C   0  0  0  0  0  0  0  0  0  0  0  0
    6.6535   10.7628  -21.8206 C   0  0  0  0  0  0  0  0  0  0  0  0
    5.2738   10.4320  -21.2234 C   0  0  0  0  0  0  0  0  0  0  0  0
    7.1159    9.6621  -22.7917 C   0  0  0  0  0  0  0  0  0  0  0  0
    4.2519   -3.4505  -17.2209 C   0  0  0  0  0  0  0  0  0  0  0  0
    3.2441   -2.9607  -18.2588 C   0  0  0  0  0  0  0  0  0  0  0  0
    5.9304   -0.6534  -23.0600 C   0  0  0  0  0  0  0  0  0  0  0  0
    5.3017    9.0720  -20.5154 C   0  0  0  0  0  0  0  0  0  0  0  0
    7.1366    8.2908  -22.1013 C   0  0  0  0  0  0  0  0  0  0  0  0
    6.4016    0.8017  -23.0844 C   0  0  0  0  0  0  0  0  0  0  0  0
    5.6078   -2.8738  -17.6519 C   0  0  0  0  0  0  0  0  0  0  0  0
    4.0378   -2.9104  -19.5550 C   0  0  0  0  0  0  0  0  0  0  0  0
    6.2085   -1.2847  -21.6947 C   0  0  0  0  0  0  0  0  0  0  0  0
    6.0159    0.9687  -20.5802 C   0  0  0  0  0  0  0  0  0  0  0  0
    5.7489    7.9645  -21.4877 C   0  0  0  0  0  0  0  0  0  0  0  0
    5.7629    1.6331  -21.9490 C   0  0  1  0  0  0  0  0  0  0  0  0
    5.4617   -2.4793  -19.1327 C   0  0  0  0  0  0  0  0  0  0  0  0
    5.4938   -0.4657  -20.5972 C   0  0  2  0  0  0  0  0  0  0  0  0
    5.8657    4.0947  -21.0368 C   0  0  2  0  0  0  0  0  0  0  0  0
    5.8106    3.6875  -17.3047 C   0  0  0  0  0  0  0  0  0  0  0  0
    6.3715    3.0446  -22.0574 C   0  0  0  0  0  0  0  0  0  0  0  0
    5.7661    6.6395  -20.7176 C   0  0  0  0  0  0  0  0  0  0  0  0
    6.1193    5.4780  -21.6598 C   0  0  0  0  0  0  0  0  0  0  0  0
    4.4429    3.9337  -20.7130 N   0  0  0  0  0  0  0  0  0  0  0  0
    5.5654    3.9652  -18.7259 N   0  0  0  0  0  0  0  0  0  0  0  0
    3.1608    3.6980  -18.7088 N   0  0  0  0  0  0  0  0  0  0  0  0
    5.6920   -1.0226  -19.2479 N   0  0  0  0  0  0  0  0  0  0  0  0
    7.7785    3.9380  -19.4951 O   0  0  0  0  0  0  0  0  0  0  0  0
    6.5903   11.7174  -22.3636 H   0  0  0  0  0  0  0  0  0  0  0  0
    7.3858   10.8528  -21.0048 H   0  0  0  0  0  0  0  0  0  0  0  0
    4.9982   11.2113  -20.4976 H   0  0  0  0  0  0  0  0  0  0  0  0
    4.5280   10.4032  -22.0314 H   0  0  0  0  0  0  0  0  0  0  0  0
    6.4251    9.6237  -23.6469 H   0  0  0  0  0  0  0  0  0  0  0  0
    8.1287    9.9001  -23.1489 H   0  0  0  0  0  0  0  0  0  0  0  0
    3.9801   -3.0838  -16.2200 H   0  0  0  0  0  0  0  0  0  0  0  0
    4.2885   -4.5498  -17.2112 H   0  0  0  0  0  0  0  0  0  0  0  0
    2.4008   -3.6616  -18.3448 H   0  0  0  0  0  0  0  0  0  0  0  0
    2.8656   -1.9623  -17.9942 H   0  0  0  0  0  0  0  0  0  0  0  0
    4.8494   -0.6870  -23.2608 H   0  0  0  0  0  0  0  0  0  0  0  0
    6.4653   -1.2200  -23.8364 H   0  0  0  0  0  0  0  0  0  0  0  0
    6.0057    9.1181  -19.6714 H   0  0  0  0  0  0  0  0  0  0  0  0
    4.2943    8.8388  -20.1403 H   0  0  0  0  0  0  0  0  0  0  0  0
    7.3952    7.5182  -22.8405 H   0  0  0  0  0  0  0  0  0  0  0  0
    7.8918    8.3005  -21.3016 H   0  0  0  0  0  0  0  0  0  0  0  0
    7.4953    0.8233  -22.9691 H   0  0  0  0  0  0  0  0  0  0  0  0
    6.1259    1.2487  -24.0509 H   0  0  0  0  0  0  0  0  0  0  0  0
    5.8554   -1.9901  -17.0455 H   0  0  0  0  0  0  0  0  0  0  0  0
    6.3973   -3.6309  -17.5360 H   0  0  0  0  0  0  0  0  0  0  0  0
    4.0592   -3.9002  -20.0344 H   0  0  0  0  0  0  0  0  0  0  0  0
    3.6008   -2.1765  -20.2482 H   0  0  0  0  0  0  0  0  0  0  0  0
    5.8328   -2.3185  -21.6847 H   0  0  0  0  0  0  0  0  0  0  0  0
    7.2919   -1.2865  -21.5047 H   0  0  0  0  0  0  0  0  0  0  0  0
    7.0959    0.9617  -20.3718 H   0  0  0  0  0  0  0  0  0  0  0  0
    5.4948    1.5377  -19.7962 H   0  0  0  0  0  0  0  0  0  0  0  0
    5.0136    7.8919  -22.3026 H   0  0  0  0  0  0  0  0  0  0  0  0
    4.6782    1.6970  -22.1203 H   0  0  0  0  0  0  0  0  0  0  0  0
    6.2014   -3.0300  -19.7323 H   0  0  0  0  0  0  0  0  0  0  0  0
    4.4182   -0.4442  -20.8266 H   0  0  0  0  0  0  0  0  0  0  0  0
    4.8615    3.7404  -16.7511 H   0  0  0  0  0  0  0  0  0  0  0  0
    6.2423    2.6815  -17.1969 H   0  0  0  0  0  0  0  0  0  0  0  0
    6.5121    4.4327  -16.9014 H   0  0  0  0  0  0  0  0  0  0  0  0
    7.4598    2.9503  -21.9285 H   0  0  0  0  0  0  0  0  0  0  0  0
    6.1534    3.4262  -23.0658 H   0  0  0  0  0  0  0  0  0  0  0  0
    6.5161    6.6964  -19.9150 H   0  0  0  0  0  0  0  0  0  0  0  0
    4.7729    6.4619  -20.2795 H   0  0  0  0  0  0  0  0  0  0  0  0
    7.1847    5.5529  -21.9231 H   0  0  0  0  0  0  0  0  0  0  0  0
    5.5092    5.5685  -22.5706 H   0  0  0  0  0  0  0  0  0  0  0  0
    3.6971    3.8861  -21.3776 H   0  0  0  0  0  0  0  0  0  0  0  0
    3.1388    3.6411  -17.7107 H   0  0  0  0  0  0  0  0  0  0  0  0
    2.3112    3.6325  -19.2322 H   0  0  0  0  0  0  0  0  0  0  0  0
    5.0618   -0.5587  -18.6253 H   0  0  0  0  0  0  0  0  0  0  0  0
    6.6340   -0.8345  -18.9700 H   0  0  0  0  0  0  0  0  0  0  0  0
  1 20  1  0
  1 26  1  0
  1 29  2  0
  2 25  1  0
  2 26  1  0
  2 27  2  0
  3  4  1  0
  3  5  1  0
  4  9  1  0
  5 10  1  0
  6  7  1  0
  6 12  1  0
  7 13  1  0
  8 11  1  0
  8 14  1  0
  9 16  1  0
 10 16  1  0
 11 17  1  0
 12 18  1  0
 13 18  1  0
 14 19  1  0
 15 17  1  0
 15 19  1  0
 16 23  1  0
 17 22  1  0
 18 28  1  0
 19 28  1  0
 20 22  1  6
 20 24  1  0
 20 25  1  0
 21 26  1  0
 23 24  1  0
  3 30  1  0
  3 31  1  0
  4 32  1  0
  4 33  1  0
  5 34  1  0
  5 35  1  0
  6 36  1  0
  6 37  1  0
  7 38  1  0
  7 39  1  0
  8 40  1  0
  8 41  1  0
  9 42  1  0
  9 43  1  0
 10 44  1  0
 10 45  1  0
 11 46  1  0
 11 47  1  0
 12 48  1  0
 12 49  1  0
 13 50  1  0
 13 51  1  0
 14 52  1  0
 14 53  1  0
 15 54  1  0
 15 55  1  0
 16 56  1  0
 17 57  1  6
 18 58  1  0
 19 59  1  6
 21 60  1  0
 21 61  1  0
 21 62  1  0
 22 63  1  0
 22 64  1  0
 23 65  1  0
 23 66  1  0
 24 67  1  0
 24 68  1  0
 25 69  1  0
 27 70  1  0
 27 71  1  0
 28 72  1  0
 28 73  1  0
M  CHG  2  27   1  28   1
M  END
>  <OMEGA_C>  (12) 
STDSQLtIfkDLg53B96CJQNrrdkCdo5rBkenUQIc0LEGkkK7BxMKoQGnpJkFvyanBmbXjQBCYGkFy
VbbBbg+IQGPUXMBXxInBEKBPQGd7PcASEpLBk8W9QJxCJ7/xerjBwaepQPQmEUF6H6TBDF/kQO6m
BEF+z7DBytnMQE46TT/WrLjB+nKzQO7rN8ANN43BYzWBQIdDOsCmcJzBrKvGQDlxpL+ljq3BE4LA
QF36dz9XpKTBtfa3QBXd/kDU5qvBj2m4QO4J0T9+l6/BOMauQAStHsC6D5nB78yvQHlx7r4Tx6TB
cLO7QOIHg0BSS6jBn/C5QGQAbED9b4rBVuPLQIzaQkCRdbDBkYO4QDB31ECmvaXBZdHDQHxLr0Ax
R63BISyOQAHCe0BItKXBnBeyQEHFfUCbzpXBsUpKQEOsbECxq5XBfCS2QD7lgr/M+5nBqOn4QJ8I
fEAK9pvBxuPSQIR6O0GO6LLBpFjsQCKlLUHDCajB5/CfQIZhM0Ei+6PBM+WQQGVzJkFWQLDBZJrN
QMH6GUHOLL3BPA8CQdFmHkEEMbnBcLp+QMhdRcCOwoHBvDuJQAqYkcCQsInBRKYZQNtXasAVwpLB
xWY3QJcs+78k9I/BEi6bQJXgL78rFrrBBOTOQLsonL/usL7BfC7AQL3jEUH3Xp3B4GqJQNVrDUFB
H6HBzaXsQGuV8EBAubbBa4n8QMPOBEGUaarBl9nvQELDUj+vwLfBMQfEQJLUnz9IaMDBQV+7QEa6
/r8aXYjBybbMQIBgaMDFSYzBvuSBQECcecCIRqDBbnNmQIZMC8Bd/KHBIqa6QJhiFMBDeq3BcFfp
QI6qpL+MCazBzxHjQH8wdj9t+aLBY9WvQMDSxD+oXp7BUG+gQEyK/EDJa7LBv7OVQNg32T9i9rDB
AnLGQAPrQcDT253BkWGNQCtu477RnKbBn5GbQDVib0BPAobBvMDHQOKdK0BIk4nBfmPQQE3YjUAK
NofBDbfuQAHRPEChba/BkOjEQD1HW0CuhrjBs4PQQJlI1kDSUZ/BOruYQLHHzkBSPKLBAOnlQB+x
sUCHYq/BjEuwQDcxskCNkLTB651sQHq1eEA5BavB0eJIQJQHaUCCr43BB+sTQFF7aECL25nBNfqh
QCkKD7+RAJXBfEnUQJOkVb+lwpfBVXnRQMtne0C7RZ3BsNCIQOJ0d0BUiJrBhw7GQGXuKkH9k7LB
SDDoQMEQGkHkSrXBzZm1QBcpKEGyDqfBllOHQFhEQMDyr4jBUnpTQBl7WcB54JHBlHy8QOInH7+C
iLjBWo/WQLJiA0Foo7PBB62kQKNwEUHTMqXBicrLQCjSVD8WrrjBtrezQAtuPcCev43BWl54QG0o
LMA8q5vBzQHGQKhDor8LtK3Bn4fAQBgpez8xnKTBRvLGQFt7AEH/7afBQLu3QCn90z8Mga/B60+s
QEnvHcAtN5nBUSmwQBPX6b6suqTBGYK7QBqig0AjCqjBtZe4QGedaUD2PorBt+PKQLXUREBaaLDB
9hmzQHG91EBdmaXB7bjGQMx7sEDqVazBQrKNQHsHf0C/k6XBnzWxQCHAe0A3n5XBJGhIQG1qbUDF
nZXBohW4QJ85hb/JEprBfCf4QP+IeEAFq5vBiCHUQE/5OkHwbLPBhQ2rQAk9KUG7KLjBmunxQIj5
G0Exsr3BYw8CQa5pHEFFEbDBzvzPQC5IK0EtcqHBmpqbQAasM0E4nqXB+PN8QDUwAcBld4XBiR+G
QA4ucMAuP4LBJslTQA6ij8BiCZPB67ERQMDDQ8BHT5DBZsmZQP/hJb8N/7nBkBfNQPV4l7/o277B
dZK7QE++AEGeIbnByPPvQFpZ70D2U7XBaoGbQNe4D0H2vpzBNneIQDbVDkE6TKrBHNLuQJLoWD8b
07fBw8rCQD2ypD9CXsDBgpXIQNbWEMARX4nBuUbCQJSGfcD0x43BeLxwQCZEVMB+1qLBugtYQMzc
3L8t7ZzB8qy5QMQRE8CEpq3BmMroQBwPpL8PXKzBMS7jQODmej/AD6PBBBWwQHRexT8DQZ7BQHDi
QJvMAkHAjqLB5e+UQEFx2z+KwLDB1aK/QEdrRMCdx57BYoONQAL84b7ERqbBvh+aQHHcbUAP34XB
g+TFQD3PKEBEX4nBOU7PQEBKjEBG+IbBO9ftQNUcP0Bspa/BIeDCQFTLXUBeY7jBvf63QHxBzUB4
Fp3BDZuQQM1Q1kBDTqfBCrzpQFkdtEDAUazBNrS6QFk3s0AalLTB+eZrQNbhfkCi8KrBxsxGQOsI
aECrpY3B/AkSQPwea0DJ05nBwQqnQC72Br8QsZTBPkLXQF1fc78Da5jB7yfUQNAjgEBd8pzBP46L
QMd/dEAcSprBi3DSQBoDLEEHJq/BPJKmQAhvJkHZSarBztnhQOtGGkHNxLbB7Pi6QBzqTsBwgIvB
JkCLQFXHRcDqq4jBiALHQOmQKL8iYbjBy2SoQKHkEEEhbqTB4p3jQHCUBEErBbHB3pbVQJ2jTT+G
/rfBmqi7QEXWWMCzqJfB3zFpQE2UKcB3DJPBEGvJQFPOpb9oRK3B/Pq/QJlXbz9ub6TBB3q3QCIR
/kCSCKzBRR+9QAIL0D9RdK/B8z6YQGS7HMDPTZvBJWWtQMSR7765i6XBASO+QJydgkCO0KfBTxG7
QLM3cUDT14nBWbfQQA9TQkAgt6/Bc/O4QCku1EDZpaXBQBHFQCK/rkBV/6zB6YyQQO5SeEDaXKXB
KBe0QPvpcUBFdZXBhZJNQCyVcED0TpXBLWepQPWHib8G7prBaWD6QNJthUCNKpvBz7zPQDsaO0Fw
oLPBGePpQFHtLUHEp6jBhE6dQD4EM0GSlqTBG6mOQKN/JUHLurDBMJ/LQNIjGUF8kb3B3wEBQeVU
HkG6trnBDuHMQB+UFcCeC4nBIsnIQJ7Vg8DYmofB2al8QFuxgcBJ5YXB2+2GQDc6FcAtZILBRMml
QLOBM780RLvBp9bbQK3Cm7/j473BDN2+QIQfEkEyr53BhFCIQP3tDEHUZaHB23LsQB4p8ED+zrbB
/s77QI9KBUFDo6rBU/b3QAa3VD9XHLbBvh3QQNsvoT9/4r/BD8baQBJeRcAQ+prBicC0QDefjcAK
BJrBal48QLxdW8DGwJXB0jBGQKfE2r/SwJHB4oC9QKEVFcC5oK3B5sPqQM3fpb8ec6rBWJrhQMnK
Xz9I4KHBpIWtQILLwD9Vf57BSPmfQPKu+kCXh7LBzEebQIRY2D+w0bHBxg2NQC6pLcDcX6PBqFaN
QENtwr6aHKnBKJecQPhuZECEvYXBx0vSQB/rPkAJzIfBdo7HQEfkl0C/SYfBNRTzQKnwO0B6+63B
R3HMQLelW0BF27fBmObQQOQK10AUPZ/BqUyZQB4TzkDiHKLB4RDnQHvWsUBUJK/BRmaxQCucsEDb
R7TBZg9yQPElc0CZv6rB//dLQKE9a0C/Vo3BufcWQGTuckCEeJnB9sCVQNy+Ar+xgpbBfVbGQKCh
jL/FhJfBYszRQIJjfkC5xpzBmf6IQJoPdEC1dprBDUzYQECPJkHRdbPBdxHoQPG5IUFvB6jBXZOq
QHkGHkEuPLXBuwS7QLfPRMABXYrBBoOMQOpCLMCXnofBMzC/QN6vCr+y6rjBs0LlQGCWCUHml6XB
4TioQOAABkGgt7LBZbXPQKuaZz83qLjBmJ+6QF3xVsApY5bB3vFsQDHVF8CCXJLBikHFQHTLm7//
B67BbQHBQNy1gD/DvaTBQK62QCUEAkFxE6fBi7S6QAz83D9ll6/BDHmaQGWDFsC7p5rBV4+tQCh+
yb6ZdqXB94K8QAQshUAEn6fBV423QORIZ0DQ84nB6DPOQCrkSUD2ALDBCZawQOcj1UBmsqPBWqTD
QD2qs0B3l6vBEt+OQPrhe0DvdKXBadewQAy5ekBYUJXBcOhHQBPoZ0Cs1ZXBBqWvQHzwg79t8prB
/Vv4QCJOfUDe+JrBWHbYQLv5N0GburTBgvztQIHlHkFgPLnBlcQEQW30JkH9QKfB7RjUQEiFKkHe
RKLB7lyUQBGxJkHG9a/BIV6hQKmkIEGPoL3BSurQQBm6D8ABgojB1NLEQNgifsCw4YXBn4N4QOrn
YcDQn4PB6PmLQAaR578fXoLBPvGcQE1/Cb+O87rBjvnQQDeSjb/1Bb/BsUT6QAu/AEFtGavBrWnv
QOGhBkFBTJ3BqxiHQNpnAEGnurPBLVS9QPxk+kCwNrjBkIzyQLjhYz90aLfBVnvIQCw3sT/1XcDB
2XLaQHV5TMCJ6ZnBNSqwQOBvjMB8BpjBea89QJCIScAOWZTBigBNQFVVsr+t/ZHBMRK4QHYjD8D5
Sq7BU4znQD2Yob8yFKzBN2DjQHaGbT9N8qLBF/uwQLaWyT+1XZ7B6mSiQPPnC0Gu2qHB3i+YQM+I
5j9RNbHBAJGOQGGPKcA9lqLB4+KLQKT6l74y6KfBwKCYQJk7aEAZwIXBAyDGQOaCJ0BeKonBXvLM
QDTEi0A2bIbBhezwQBooREBNv67BdAnIQNNeZECyArjByQTAQPOs0EDr3ZvBkg2OQDT+zkBu9aLB
zjfmQLdtuUAWZazB9CS0QB59t0BQb7PBZpdvQKFAeEAP+6rB2HlEQKRwYkAd4I3BZbMSQJIUZEA0
QZrBf2ChQFih3b43npXBLWfOQA0Wk78a9JjBUW3OQF8bgEDZAJzBaBWFQHcLdUDuf5rBlNbiQIAb
I0FscrbB8874QE2IHkGQnqvBUheyQPZHH0HXwLXB3t6JQHiKisC/mJPBz7qPQFkLasC4l4jBQOCi
QEsVnb5DmrjB6YDvQCOOB0Fd5KfBVHKoQJ5QCEFHCrLBxni6QEVchT9bIbnBmFyXQCdzUsCs/pvB
0LKpQBy5GMB3vIrBFhyxQJyujr8Vv67BGdjBQMGagz9d96TBoo++QJGbA0HQJafBlKKyQKwR7D8N
x67Ba0ybQOrH+r+p5pXBxhqqQE35nb6OUaTBk8q6QJhpiEAyAafBjT2xQG0nV0CE2onB5IHJQIpC
TkAylq/BA9O0QDJc2UALN6PBiy/GQGXjtUAP2arBR26MQGluhUCNIaXBVz+sQJJqdUBA8JTB418+
QJ1qZEBEhZbBzX+6QAhqg78XyJrBHLL0QLBZfUCo15nBpLboQI/dM0Ecs7jBn2/wQK91GEHwkrzB
78kNQZ6cIEH3g6zB+bTsQNDYKUGLmKXBNiCkQHKlKkEmA7DBBcejQD3WIUHPsL3BJDieQD0qp8Cd
MJTBsmZQQBaok8DOxpTB9OlgQAzTWcBdGYXBoi6hQPhcisD9HoPBFDqAQKm6+72jHLjBXQKqQLde
Yr+K4L/Bkn39QDhw+EDlpK3Blvj9QFYLBUHy95/B46aFQMdcBkF0IrHBkVm0QGjx+UAiE7jBkf3c
QB19XD+vEbrBWJiuQOYNzz8LBMDBjkO2QPIhZMATlZ/Befl9QCRiTcDfT6LBrEaiQNrizb/2y4TB
EjvMQEBUJsBzmorBf2KeQPfdAsBMWK7BqEvTQGrfrb8Gha/B2mPkQM9NVj8tr6XBJ5i7QBiDzT8P
pJ3BSYCxQJLcDkHDOKHBLAyQQPRxAUC7+q3BHkR3QObUvb8XZJXBqKuHQNjk6b18XKPBKK+RQJkg
VEAQ+YXBOM6/QF0QF0Cy4YnBb/nFQNTTgUBSbIXBOR3sQCTbQ0C/o67B9xXDQMIqaUD9jrfBt5TD
QLQL1UB9TJvBy+yRQJ+o1UAyiaLBQznpQAG7uEBeTavBl1e4QCHHukCM2LLBAoJrQLJ0ikBMoqrB
aSs4QIEiVkDPwo7Bfb4KQG0CZkBoPpvBB8bCQANxsr42R5XBNVbUQClvxr/l9JzBjsvRQMKQfUBe
4pzBX02IQC5bdkDlf5vBBU7fQOEYHEFDAZbBK96vQF6CFkGqCpjB7Zj9QGwoC0FQ4JrB0IGFQI4E
icDqbJLBiKWLQOSJZMB0lofBy/GiQJLC2b73YLjBmkKnQHiSE0EsIaTBX3n0QAztB0Eh8abB9OO7
QIfQZT8gObnBCSGUQJpTUsB0D5vBocamQB87FcA5AYrB1ySwQNp4mr9nTK7BQdXCQISHdT9TD6XB
PcfEQL1kAkEgO6nBdKW0QEUx4D8sG6/B8Q6ZQIPr979wTZXBVL+pQESCtL4QGKTBTtO+QGZ0hkC9
AKjBAIGzQKcvWkCsporB787MQKANR0DKQrDB1Du4QCPE10DCE6XBVcnLQDSes0ALEazBk0mQQOaj
hEAxMqbBGUOvQIISdkBQ25XBGi9EQCaVaEB4iJfBrDa5QDJShr8DWprBwev3QGvpeEB2nprBkFLm
QFK+K0H3oZnBSdnkQD7tHEEdU43BiP+nQA2QB0EM1ZPBYZubQJyII0HV+pTByHIPQaV8EEGO25nB
6u74QEe590CxrpbBWBaZQIM9psBpwJLBLEVHQOhekcDPmJPB0gVZQG6/UcCPOITBV1ycQJdch8Bb
6oHBnnyAQAfiUr5D/bfBfqWpQGPxhL9Dfb/B1b6FQD6qDkGrO6XB1rqsQHDvIkENM6jB7qX8QFTC
FkEFN6vBjlAEQReL9UAu6KnBaDveQDsKLj86DrrB2r+wQDFGuj91R8DBPOCyQCKVZsArhJ7BCQJ4
QKiTTcDfcKHBueCfQL4ow7+DR4TByBrJQIuqJMCqwInBC3mcQJRpB8AUsK3BahTSQJxbvr+s9K7B
Qi/lQERaOz+4raXB6wW9QJ4myT885Z3BF+O/QOSzAkG48bHBfjmSQJBt+z8naK7BvZtzQKJct786
+ZTBoYGHQPn6973kPKPBscmTQK+ZWUCo1YbBGUjBQGxuGUBcaYrBX5/IQL1Yg0AxVobB2zvvQCMH
O0D3NK/BH/XGQOwDYECrW7jBSN3DQHAr1ED70ZzBGCmVQKLR1EApMqXBDt/uQIxZtkA83qvBynbA
QH93t0DZV7TBic9zQB91iUALyavBTTA9QHJRXEDuuo/B398QQK1WakBLT5zBYe/BQINzt74J/5TB
k6LSQM0tzb/MWZzB61XLQJSbf0Bnz53B7oqCQN37ckCZSZvBH7r2QApLKEFaoq3B82zSQJxQKEGT
RqXBjH7sQBzYGEHq3rbBMAjOQDUCfMAoMZTBtInYQPRATcC2n4nB9AmfQGbDD7+rVLfBSTzKQNaf
EUGE8qDBwfXkQGsVAkEzp7LBjzO1QKwpSz8nzrjBBmyiQHPJWMBcoJfBzY61QLsSCMCyOIjB6mOv
QKKxo7+dRa3BEDLAQFrPdD9j0KTBxKzAQF2UAUHGH6rBJw+uQA4b1j9N167BZjmiQOic+L8daJPB
QluqQKMXzr5hIaPBHlK1QMNBhUDypKjBxDCyQMeiYUCX9orBsdDCQEwWREDZ0LDBKi+7QEhH1kDn
HKXBLzy/QJipsUDlb63BV3eHQJaEgkDwHabBbbaqQHFLeEALPZbBnI87QPSdYUASu5bB45W+QOPu
g78yoZnB8wHyQBckgEAEHpzB5pD6QHSOOEG527DBZ1YKQU1AI0HkwanBym/bQIjXMkHEl57B8/e0
QBlZLkEgCKnBOYPPQEZjHkF/BrvBXMMDQY2nGEGlgbzBzG7mQJEMbsAvSprBcEDMQKrFoMAt5JLB
183XQP92esCA4YLBP1b4QHVNL8ATGYrB4bF4QB4yzb77k7bBI4SlQKRnmL+aXb7BqcHmQHIxDEEN
kJzB2KiuQEQUEkGYe5vBbfTbQH1V70AqYbnBlVsBQYtL+EDPAa/BfbjXQL58Ij+p97nBMNGnQO9U
pj/t3b/BljqfQA7PWcCiY6DBbU6IQMAhfsCOBJTB/P2cQMq4HcCEh4LBvK/DQPaRl7/cXIXBzhSd
QIdVDcCgLazBxnTRQGiWwr/mW67BDMfiQGe5TD8S4KXBp6a6QMkjyz8ovZ3BpnGiQL41BkH0/a3B
FnCLQBAz6D+Cua3B5l+BQLGtxr995pLBzROIQNHldr5/mqHBWXiTQP0OYED1q4bB0G3BQNhFIkC0
hYrBIUbHQHnRiECIRIfBYcflQFmlPEDcZrDBW665QFu+WUAo37jBVfHTQBHd0UCs9J7BOVmbQMhx
1ED5YqHBbSHgQBFtsUB8kbDBZrOoQPLXt0C8BLTBJDFfQD6ChkDMWavB5uY4QLx8VkAS3I7Bih8G
QBV/X0AMIJvBhWXIQO7smb53vpTBbt/XQCNzx78RIJzBaMTSQAm7fUBc/5vB8j6JQAbhdkDk25rB
laGoQDQaJUFY777BCs24QABpFEHuEsfB5fa6QF3DIEGerrPBWfqDQPcRisBnh5PBZXGJQFXxaMAA
hojByHSkQPqsr74KgbjB5uetQOoe+0CIXMPBz3mwQJvgCUGu66/BDsC9QIKUeT8z97jB9zuTQJG7
UsDc45vB9vikQDuJGcAIkIrBlOawQA9alL8IjK7B4WDDQDCMeD+ewaTBdLzAQN8U8kATHrjB3Ca2
QOX45T+Xr67BYRCYQP9w+7+i0pXBWfqpQMKcrL7AMKTBeoXAQMhIh0AJKafBomazQK0hVkDGAIrB
HzTPQJLMSECSba/BqRC0QEFfxEAxvbTBM3rNQNcNtUCNu6rBhOaRQJ8fhkARbaXBmNuvQAsCdUAf
GpXB9oZFQC1IaECTGpfB+rO4QIy1iL91jJrBFLz4QFCnd0Bfn5nBOaWyQFcjNUEij8HBYH2FQHhi
JEGBk77BTYqpQBNiF0EE3c7BbrfbQBPvFUHW48fB++rdQALMIkEN5rPBUAitQGJFLEHsAa7Bp4SX
QPBLp8Da9pPB6FdEQCc3ksD55JTB3DxUQGxyVsDfPYXBAZyZQNM8isBS6YLBiweCQDPK770BMrjB
dHGrQKYyb79dt7/BUeuKQLly90CDDsPBJ1W7QIgN5EA8GcnBKP6/QK4AB0FXJ6jBqZqNQI0/CEFn
Cq/BhBTgQFpNQD+wubnBvCazQC6Uxz9R77/BAB6yQCaPZsAST5/BsPN2QFtTTMBsVaLBnd2dQCQO
zr8RsoTBODvHQIJ6KcBnOYrBoRCdQOxEBMBnNK7BctXSQC2buL9EIa/BLrrlQOYXPT8WQaXB1R+9
QE7Rxz8kf53B69TjQAwb9EBYkbjBE8+TQPeoAUDPFa7BtspxQOIyur/YgpXBcbqHQFn40L14bKPB
bH2TQBEiVUB3SobBYeHAQBoZFUBH/InBlX3IQJqMgEBccYXB0E7xQERNO0C6DK7B/+nKQGfjYkDh
h7fBZqyRQIrZw0BW3rLB0Ji6QINlrkCqarvBz0vHQMxZy0DQGaTB8dPvQE8ytUBkp6zB0p53QA8g
jEAmBKvBkX89QLwGWkCgXo/BlNgSQBRna0A2+ZvBQTnBQM4Yy776A5XBCSPSQGdez7+6kJzB

>  <OMEGA_E>  (12) 
AFE4PEBQCz3wnxg+YIBYPhTmoD5EjAc/9lsNP+DEED8=

>  <OMEGA_NBR>  (12) 
     24041

$$$$
50253334
     RDKit          3D

 70 73  0  0  1  0  0  0  0  0999 V2000
   11.0509   -3.1612  -19.3900 C   0  0  0  0  0  0  0  0  0  0  0  0
    9.9890   -3.9230  -21.4297 C   0  0  0  0  0  0  0  0  0  0  0  0
   12.0471   -4.1350  -19.5938 C   0  0  0  0  0  0  0  0  0  0  0  0
   11.0156   -4.8744  -21.5676 C   0  0  0  0  0  0  0  0  0  0  0  0
    9.9995   -3.0481  -20.3208 C   0  0  0  0  0  0  0  0  0  0  0  0
    6.6711    3.8349  -19.7170 C   0  0  0  0  0  0  0  0  0  0  0  0
    4.4056    3.6340  -19.3828 C   0  0  0  0  0  0  0  0  0  0  0  0
    8.9273   -2.0565  -20.1384 C   0  0  0  0  0  0  0  0  0  0  0  0
    6.6575   10.5069  -22.0208 C   0  0  0  0  0  0  0  0  0  0  0  0
    5.2608   10.1630  -21.4741 C   0  0  0  0  0  0  0  0  0  0  0  0
    7.1640    9.4090  -22.9733 C   0  0  0  0  0  0  0  0  0  0  0  0
    4.4997   -0.5912  -21.7785 C   0  0  0  0  0  0  0  0  0  0  0  0
    5.2796    8.8077  -20.7600 C   0  0  0  0  0  0  0  0  0  0  0  0
    7.1785    8.0388  -22.2792 C   0  0  0  0  0  0  0  0  0  0  0  0
    4.9051    0.8103  -22.2584 C   0  0  0  0  0  0  0  0  0  0  0  0
    5.6914   -1.5555  -21.8565 C   0  0  0  0  0  0  0  0  0  0  0  0
    7.3075    0.3732  -21.5933 C   0  0  0  0  0  0  0  0  0  0  0  0
    5.7780    7.6975  -21.7062 C   0  0  0  0  0  0  0  0  0  0  0  0
    6.1269    1.3354  -21.4644 C   0  0  1  0  0  0  0  0  0  0  0  0
    6.8720   -0.9917  -21.0547 C   0  0  2  0  0  0  0  0  0  0  0  0
    5.9843    3.8606  -21.0802 C   0  0  2  0  0  0  0  0  0  0  0  0
    5.8846    3.6733  -17.3253 C   0  0  0  0  0  0  0  0  0  0  0  0
    6.5346    2.7322  -21.9752 C   0  0  0  0  0  0  0  0  0  0  0  0
    5.7986    6.3933  -20.9072 C   0  0  0  0  0  0  0  0  0  0  0  0
    6.2034    5.2028  -21.7936 C   0  0  0  0  0  0  0  0  0  0  0  0
   12.0176   -4.9679  -20.6621 N   0  0  0  0  0  0  0  0  0  0  0  0
    4.5601    3.6793  -20.7650 N   0  0  0  0  0  0  0  0  0  0  0  0
    5.6715    3.6101  -18.7772 N   0  0  0  0  0  0  0  0  0  0  0  0
    7.9786   -1.9198  -21.1372 N   0  0  0  0  0  0  0  0  0  0  0  0
    3.2531    3.6065  -18.7644 N   0  0  0  0  0  0  0  0  0  0  0  0
    7.8705    3.9729  -19.5029 O   0  0  0  0  0  0  0  0  0  0  0  0
    8.8670   -1.3788  -19.1162 O   0  0  0  0  0  0  0  0  0  0  0  0
   11.0923   -2.5087  -18.5303 H   0  0  0  0  0  0  0  0  0  0  0  0
    9.2001   -3.8619  -22.1648 H   0  0  0  0  0  0  0  0  0  0  0  0
   12.8543   -4.2202  -18.8814 H   0  0  0  0  0  0  0  0  0  0  0  0
   11.0043   -5.5450  -22.4142 H   0  0  0  0  0  0  0  0  0  0  0  0
    6.6051   11.4604  -22.5668 H   0  0  0  0  0  0  0  0  0  0  0  0
    7.3590   10.6044  -21.1792 H   0  0  0  0  0  0  0  0  0  0  0  0
    4.9493   10.9421  -20.7628 H   0  0  0  0  0  0  0  0  0  0  0  0
    4.5459   10.1218  -22.3091 H   0  0  0  0  0  0  0  0  0  0  0  0
    6.5019    9.3605  -23.8503 H   0  0  0  0  0  0  0  0  0  0  0  0
    8.1851    9.6581  -23.2981 H   0  0  0  0  0  0  0  0  0  0  0  0
    4.1520   -0.5300  -20.7367 H   0  0  0  0  0  0  0  0  0  0  0  0
    3.6862   -0.9698  -22.4148 H   0  0  0  0  0  0  0  0  0  0  0  0
    5.9498    8.8678  -19.8898 H   0  0  0  0  0  0  0  0  0  0  0  0
    4.2615    8.5638  -20.4225 H   0  0  0  0  0  0  0  0  0  0  0  0
    7.4675    7.2679  -23.0087 H   0  0  0  0  0  0  0  0  0  0  0  0
    7.9095    8.0584  -21.4574 H   0  0  0  0  0  0  0  0  0  0  0  0
    5.1628    0.7644  -23.3268 H   0  0  0  0  0  0  0  0  0  0  0  0
    4.0593    1.4987  -22.1144 H   0  0  0  0  0  0  0  0  0  0  0  0
    5.3996   -2.5307  -21.4394 H   0  0  0  0  0  0  0  0  0  0  0  0
    5.9909   -1.6811  -22.9075 H   0  0  0  0  0  0  0  0  0  0  0  0
    7.5992    0.2809  -22.6499 H   0  0  0  0  0  0  0  0  0  0  0  0
    8.1603    0.7494  -21.0090 H   0  0  0  0  0  0  0  0  0  0  0  0
    5.0690    7.5960  -22.5410 H   0  0  0  0  0  0  0  0  0  0  0  0
    5.8479    1.4157  -20.4034 H   0  0  0  0  0  0  0  0  0  0  0  0
    6.5610   -0.8742  -20.0062 H   0  0  0  0  0  0  0  0  0  0  0  0
    4.9393    3.4573  -16.8058 H   0  0  0  0  0  0  0  0  0  0  0  0
    6.6414    2.9304  -17.0332 H   0  0  0  0  0  0  0  0  0  0  0  0
    6.2329    4.6795  -17.0494 H   0  0  0  0  0  0  0  0  0  0  0  0
    7.6325    2.7969  -21.9927 H   0  0  0  0  0  0  0  0  0  0  0  0
    6.1431    2.8651  -22.9945 H   0  0  0  0  0  0  0  0  0  0  0  0
    6.5211    6.4889  -20.0832 H   0  0  0  0  0  0  0  0  0  0  0  0
    4.7953    6.2091  -20.4956 H   0  0  0  0  0  0  0  0  0  0  0  0
    7.2679    5.2982  -22.0538 H   0  0  0  0  0  0  0  0  0  0  0  0
    5.5984    5.2208  -22.7121 H   0  0  0  0  0  0  0  0  0  0  0  0
    3.8220    3.6012  -21.4351 H   0  0  0  0  0  0  0  0  0  0  0  0
    8.0621   -2.4897  -21.9546 H   0  0  0  0  0  0  0  0  0  0  0  0
    3.2224    3.5646  -17.7657 H   0  0  0  0  0  0  0  0  0  0  0  0
    2.4029    3.6276  -19.2903 H   0  0  0  0  0  0  0  0  0  0  0  0
  1  3  2  0
  1  5  1  0
  2  4  1  0
  2  5  2  0
  3 26  1  0
  4 26  2  0
  5  8  1  0
  6 21  1  0
  6 28  1  0
  6 31  2  0
  7 27  1  0
  7 28  1  0
  7 30  2  0
  8 29  1  0
  8 32  2  0
  9 10  1  0
  9 11  1  0
 10 13  1  0
 11 14  1  0
 12 15  1  0
 12 16  1  0
 13 18  1  0
 14 18  1  0
 15 19  1  0
 16 20  1  0
 17 19  1  0
 17 20  1  0
 18 24  1  0
 19 23  1  0
 20 29  1  0
 21 23  1  6
 21 25  1  0
 21 27  1  0
 22 28  1  0
 24 25  1  0
  1 33  1  0
  2 34  1  0
  3 35  1  0
  4 36  1  0
  9 37  1  0
  9 38  1  0
 10 39  1  0
 10 40  1  0
 11 41  1  0
 11 42  1  0
 12 43  1  0
 12 44  1  0
 13 45  1  0
 13 46  1  0
 14 47  1  0
 14 48  1  0
 15 49  1  0
 15 50  1  0
 16 51  1  0
 16 52  1  0
 17 53  1  0
 17 54  1  0
 18 55  1  0
 19 56  1  1
 20 57  1  1
 22 58  1  0
 22 59  1  0
 22 60  1  0
 23 61  1  0
 23 62  1  0
 24 63  1  0
 24 64  1  0
 25 65  1  0
 25 66  1  0
 27 67  1  0
 29 68  1  0
 30 69  1  0
 30 70  1  0
M  CHG  1  30   1
M  END
>  <OMEGA_C>  (13) 
i9AwQahQSsCmHpvB8dIfQZUSe8AfcKvB6cBAQdpRhMAbwJzB8T8wQXX7m8CEiqzBE/4fQf8TQ8D4
kKLBTnnVQKRudUBlvJ3BvvqMQKmSaEDsD5vBa9YOQRaeA8B4G6HBOwrVQDYcKEGdKrDBxlioQNSb
IkHzyqvB4D/lQDaLFkFCybfBaP2PQMBaF79YOq7BWvKoQITsDEGBFKbBa7blQPSeAEG/O7LBjvac
QORuTz8jEbLBtx+2QJcbx78t2q7BctfpQBwQvz4Uv6zBqeW4QDRS9kA2pq3B8w/EQLDuqj8Kt6vB
w+fbQKbhfb8JcKjBwn+/QHwUd0BSpKjBRE68QAcXa0BImorBQRvRQI3bLkA1za/BF465QNqVzEDl
QafBToLGQDh9pkBSWa7BHkhAQeb4nsAATKXBhOyRQKJ5a0C7HqbBSH21QBwMZ0DEN5bBalD/QLm7
9b/7GKnBGjNQQJHRZkB1HZbB3Nr7QGBDfkDiBZzBT98NQYZ9sL8E7pjB+nkxQXaOIMAhPpTBkDMT
QcIpd8B9UbHBQ6tNQakLh8APDZfBrREwQWRwscBHULPB+FzTQLFdN0HTiLTBDn3rQJOrKUHsbqnB
W2CeQNkSL0ElGqbBMniRQOHyIUH+eLLBMw/QQMfEFUFizb7BBvYCQW2HGkFrYrrBa92EQDurB7+0
5KXBwOprQGtFeL+QUbPBoGS+QJDiDUFdHp/B0l2IQEUFCUFXYaPBbPXuQIuS6EDNEbjB4hr9QB7v
AEHZqKvBXDWlQIuwQz8+nbrBBeaBQC7Wvz9G6rDBOMmsQDz2IcDwg6vBS7W/QNUt17+OQrfB6Szz
QGnQjz7/MrXBZ5ACQdzWPz+BEqjBdzWiQIgS80AEVLTBmyG7QEw2tT8sOqPBpPPRQF/KX7+hDKDB
Aw+eQKREXUBHcobBRIbUQIaLO0AXRIjBlHPHQMK+lUAwZYjBtD30QLb/MkAd8a/BYJTEQI1eN0DU
9LfBo6zQQMqkz0BzqqDB9XKZQKKwxkDq9qPB5ZLoQC2LqUAYbrDBbyazQKoQp0B3srXBcZt0QAd6
ZkAie6vBef4AQcNXH8ASo6/B6DtOQPEhZEA6II7BcsgZQOcpaECXUprBQREgQb0hesC7dqvBs+Qw
QaRHSsAJEJvBQZMwQTRRm8BEnKzB3+9AQY0KhMCEv5zBuBsgQSrLQsDihqLBQNPVQL69dUBX3J3B
c26NQEcSaUAd/ZrBgeYOQWWTA8C6CKHB9wzVQET5J0FAt7DBN1yoQKiIIkFtUazBp0DlQAdNFkGl
RrjBe5mPQLvUHb95uK3BUfaoQJnuDEFxiKbB1dnlQEd9AEFQn7LB3pCbQDWnSz8yiLHBABG2QDkX
yL+kpq7B2EjpQMo7vz7vtqzB9Q+5QKAh9kBtBa7BimvDQDthqj9ChKvBM+/bQHb0fb+JVKjBR1+/
QIhOd0BdtKjBhI29QFCjakBeqYrByATQQPcuLkBN2K/Bwd65QG+xzEB3hafB4snGQFFQpkBXg67B
TJZAQRZgnsBRW6XBLtuRQLz7bEANDqbBMCq2QCNYZ0BaQpbBv3//QOQB9b8fCanBP4tRQMC5ZkAK
8pXBBU78QLMifkBgQZzBQOoNQVzqsL/t1ZjBz3oTQXUGdsBYXLHBn3IxQb0YIcAWIZTBPXkwQRuQ
sMC/bLPBxdVNQfbRhsBcCpfB413TQAErN0ENI7XBXYLrQMegKUGK/anBQGeeQJ0TL0E8q6bBl3iR
QNvIIUE3/rLBbP3PQNVhFUEmRr/BxfACQcdFGkHq6brBI0aFQJ7YEb/qUKXBv3xqQGQUgL/FrbLB
+FC+QJkCDkHcjp/BHFyIQLUKCUFc2KPBXi3vQIEd6EASZrjBlDr9QLf1AEEwDKzBa4miQCipQz90
J7rBh2+AQDJqvD/aELDBmW6tQLcjI8D6ZavByRu/QBt41b9MHbfBsv3xQKTyjz6GNbXB3W0CQZVC
QT+/LKjBNWWiQEiI8kCDsbTBxnm7QJ52tj8e+qLB3TvSQGFvX7/H7J/BnXafQFr4XEA2bYbB97nV
QGWmOkCmcIjBlAPJQAxilUBxbojB1x/zQOAqMkC7QLDBRonCQNjSNUDj6rfBYxHRQJwT0ED99KDB
udCZQKvkxkDcL6TBkuvoQKQYqUCVjLDBmJyzQJu5pkBI5LXB/dtzQAhbaUAHWavBWioBQeZ0HsC0
na/BSUZQQC1fY0BC9Y3BoMMaQD9JaEDaE5rBeAoxQdTEScD0KJvBbIgfQf1Me8D4TavBhfJAQYUI
hMAl45zBge0vQTUYnMCbgKzBAgEgQTrIQsA1fKLBRlfVQEhdb0Cuqp3B0ICMQEeRaUB3H5vBRRAP
Qd1iAsAfCaHB2gfIQGH5JUEborTB2ujtQOpJFkHVS7XBkhGvQHNEI0E5HKrBMMyPQFUmHr9d763B
Pt7eQAQY/kBG4LPBcoKgQIgQDEHmnqjB+fabQOr3Rz8QCbLBxEu2QPSmyL97ka7BMljpQNA7xT4T
4qzBFPLGQMwb+UC4EqnBXiPDQF27qj805KvBfi3cQCoBer8qWajB16e/QMO+dkDkjqjBeYe7QKH/
aUAnl4rByn3PQPw/L0COFLDBio61QBjTy0AfwabBqADKQBF/p0CwZq3BJzVAQQLensDZZKXBOM2R
QArKbUA9K6bB69e0QG+aZEA8M5bBHrr/QOwG8799AqnBpO5OQE7yaUDrPpbB0Lv7QLLndkA+35vB
yYAOQUXZqr/S+5jBXeQxQf3aH8CLTZTBBbMSQVfGd8DOErHBxA5OQbCZhsCpS5fBgIUvQc65scDW
PLPBxkzUQJ1xNkH2GbXBlk2yQJP7IkGpZLvBAWT9QFfxF0H0J73BoYcCQRQsGkE49a7B9dHDQCDR
J0E7YKPB+MiSQGu9LUHSQ6rBXSqFQBGnCr91kaXBRDtrQI1ggr+73bLBHS3JQA6Q9UBfeLrBgc36
QB2u6EAr+bPBSKOQQIR8CkFIzqDBa82JQODoB0EQBK/B0sajQP4DOD/5mbrBXa+AQPIRuz/D5LDB
jIqtQLCNIsBNFavByH2/QK5I2r+t/bbB7WTyQN6Vjj4mWLXBjlECQVOOSD9SVKjBoTjdQPLjAEEN
naLBcoq6QM8Itj8hY6PB65rSQJ5zWL/z8Z/BcvecQPIuX0BvcIbBWcbSQLAEOUChGojB2N3HQJLr
lEDYh4jBx4ryQEQuM0BEubDB1BzBQLiROEAXB7jBQBS7QOnQxEDmPZ7BWvaSQEvqy0AkYajBq+vs
QE/oq0CSiq3BzXm9QGvZqEA5nrXBvpV0QL8pa0AglqvBGz4BQdrFHcDWkK/BhWFMQBd8ZkCMQ47B
49sYQLGybUDdf5rBKK4fQUhjesC3WavBg/gwQX5xScCuHpvB/x8wQeGJm8DPiqzB4O1AQQXFg8BC
15zB7AIgQa5MQsDofKLB0VXVQJitcED7wZ3BHXyMQC4tbEBOH5vBD/QOQX90AsBNAaHBfjnEQCjQ
JkHoH7TBSMrkQOD+FUGU8LfBK8O5QOPRI0EfM6jBCKSPQKGPHr8C463BtwPUQHt9/kBU8LXBCkmp
QNcnDUFWB6bBwqWbQIU5SD+N8rHB1Tm2QHhbyL8AkK7B0RLpQAjwxz5BzazBZmPJQEwV+ED976nB
B8/CQIgqqz9iz6vBAgncQNRfeb9tUqjBR5W/QBIwd0BqpKjBqey7QDqxZkDmpIrB5SjPQB4IL0D8
FrDBkBq1QH1azEA9jqfBxzXKQGc2p0BUtq3BJ1JAQetonsBQY6XB/bGRQC4ob0CNL6bBgsy0QDuX
cEBWMJbBu77/QCL18b9yBqnBXSJPQDkKaEAfN5bBO/z7QO20cEBPEpzBIBcOQbferb9Y1pjBwuoS
QcuxdsAWKLHBOrkxQSbMH8AHPJTBZ9MvQfkCscB6T7PBs/hNQUFqhsA0NpfB77jRQCbiNkFbWLXB
3KGmQPosJUGx0bjBWIDqQJ0jGEGIjsDBAn8BQbwyGEFbjrPBEuTWQAKUJkGTdKPBIg+hQL9xL0HO
2aXBgwyFQA1WDL+Sg6XBRfBqQEKYgr8i0rLBYeS2QINb+UBYtrrBtZvsQAE450BMWLjBa1KkQD0w
C0FOX53BvrCKQDbrCkHxO6rBJ2ejQNxsOT/NhLrBmE2AQDbEuj9CxrDB5ZKtQGeZIsCXHavBJ22/
QLIz2b+4/bbBDzbyQPmukz7DQrXBVyUCQUblST9TOKjBuhrnQBsh+0BLSKXB/kC6QG4ytz+fTqPB
G3fSQPV0Wb+S6Z/BGQidQITYaEBGb4bB8ZfLQKXiKEDQF4nBzX/QQKZ2jUAkwYfBPTTyQNm6MkB1
xrDB16fAQJXgN0AKCLjBAgm4QJb3xUDJ7p7BcQ6TQECuzUCtw6nBfB7tQLu4q0CNpa3Bz5e+QJx8
p0DVBLbBeDR0QP9NbEAnlKvBWmUBQbJ0HMDNo6/BaN1MQJzVZ0BrOI7Bg/YYQFsVZUCVdZrBI9Mw
QcBsS8BOKZvBKeMfQQijecAKm6vBkqdAQa0LhcCL4pzBjy8wQZ92m8Azy6zBrhsgQSiTQsAQpKLB
KsTUQOLSakBMmpzBOKWLQJguakDLuJrBBysPQQ4bAsDBMaHBG6DNQIt9GEHiZcLBWX/cQME8FUGY
07bBYUegQDxhD0F26cPBvRmRQNAUCr+OuK7BeQfdQFzC+kDxGrTB1GafQGPZ7kABZsHB7eGeQEDn
WT8tuLLBpe22QBC3wr8VAa/BoFLrQIZvzj7UPa3B74ywQFin5UDkFLbBz5nFQFyprj//LazBjAbd
QEBFc7+ctKjBh4rAQCE+dUDvgqfB0Ti4QDpPc0AX54nBWXXSQGINM0D7l6/BYeKyQDLntEAjDLXB
PMHIQHz4qEAFmarBoyhAQZcgn8CRiqXBObeSQASwaEA7oqXBuCCzQLlxZEC9ZZXB1QwAQSII8r9m
N6nBJYNLQPX5b0BWWZbBXNn6QFoedEAVh5rBE3IOQbypq7+2FZnBcH4xQVapIsAbMZTBT04TQaGw
dMDsfrHBkYBNQRFdiMC5KpfBIfQvQWuIsMA1pLPB6GfNQDKyKUHgP8TBbMzjQM03EEHD1sfB/er8
QG3TG0Fw4bXBSHDGQDiTHUGqYbHBvRyKQFrBF0FHgr7BvyyWQNrgEUGgP8zBP1uFQOlD6L4cdKbB
6aZuQCvHa7/Y4LPBRgj1QFu26kCII7nB6ajlQE/e9kAmoavBBnd8QExI40Di9cHBH1+zQIja3UDX
RMfBWOGnQM/ISD/TNbvBQgmEQOTZxj+2z7HBORKtQNGAHsDiZ6vBGpjAQO0V2L8gXLfBpz/0QO6E
lj59tbXBQXEDQeuOSD/hsKjBKbSZQPMo8kB8KbDBkxe8QPz0sj8KtqPB8SrTQKLXTr+uVaDBKjyZ
QEiNakDD34XBR5LPQO6PRUAQo4bB6bLDQKN+mkBHj4jBc4/1QNn3N0AC06/BsWHFQCd8QEDplrfB
xE+SQIeQp0AzJLXBbkPFQPC+p0Ady7vBPY68QEndvUC8NKTBznDrQN7MrUBFfKvBBcp4QG10YEDi
RavBhlUBQU0RHsAuta/BZKdFQPmncEANYo7BO2cXQKe6c0BI+JrB

>  <OMEGA_E>  (13) 
gNy8PABtvTxAUhA9QCY8PQRgxz4=

>  <OMEGA_NBR>  (13) 
      5823

$$$$
50253455
     RDKit          3D

 77 80  0  0  1  0  0  0  0  0999 V2000
   11.2831   -5.0648  -21.9973 C   0  0  0  0  0  0  0  0  0  0  0  0
   11.2989   -3.8867  -19.8566 C   0  0  0  0  0  0  0  0  0  0  0  0
   12.4527   -5.7442  -21.6329 C   0  0  0  0  0  0  0  0  0  0  0  0
   12.4633   -4.5712  -19.4921 C   0  0  0  0  0  0  0  0  0  0  0  0
   10.6994   -4.1346  -21.1178 C   0  0  0  0  0  0  0  0  0  0  0  0
   13.0387   -5.5040  -20.3785 C   0  0  0  0  0  0  0  0  0  0  0  0
    6.7106    3.8487  -19.6245 C   0  0  0  0  0  0  0  0  0  0  0  0
    4.4514    3.6609  -19.2422 C   0  0  0  0  0  0  0  0  0  0  0  0
    8.7848   -2.5438  -20.9496 C   0  0  0  0  0  0  0  0  0  0  0  0
    6.7034   10.4839  -22.1797 C   0  0  0  0  0  0  0  0  0  0  0  0
    5.3328   10.1691  -21.5530 C   0  0  0  0  0  0  0  0  0  0  0  0
    7.1739    9.3367  -23.0921 C   0  0  0  0  0  0  0  0  0  0  0  0
    4.3870   -0.5384  -21.2528 C   0  0  0  0  0  0  0  0  0  0  0  0
    5.3832    8.8502  -20.7735 C   0  0  0  0  0  0  0  0  0  0  0  0
    7.2223    8.0076  -22.3248 C   0  0  0  0  0  0  0  0  0  0  0  0
    4.7123    0.8649  -21.7797 C   0  0  0  0  0  0  0  0  0  0  0  0
    5.4604   -1.5306  -21.6960 C   0  0  0  0  0  0  0  0  0  0  0  0
    7.1812    0.3396  -21.7706 C   0  0  0  0  0  0  0  0  0  0  0  0
    5.8438    7.6973  -21.6863 C   0  0  0  0  0  0  0  0  0  0  0  0
    6.1170    1.3313  -21.3018 C   0  0  1  0  0  0  0  0  0  0  0  0
    6.8364   -1.0462  -21.2341 C   0  0  2  0  0  0  0  0  0  0  0  0
    5.9939    3.8831  -20.9702 C   0  0  2  0  0  0  0  0  0  0  0  0
    5.9756    3.6679  -17.2189 C   0  0  0  0  0  0  0  0  0  0  0  0
   13.9724   -7.0170  -18.8357 C   0  0  0  0  0  0  0  0  0  0  0  0
    6.4702    2.7230  -21.8681 C   0  0  0  0  0  0  0  0  0  0  0  0
    5.8891    6.4239  -20.8406 C   0  0  0  0  0  0  0  0  0  0  0  0
    6.2500    5.2040  -21.7070 C   0  0  0  0  0  0  0  0  0  0  0  0
    4.5750    3.7745  -20.6216 N   0  0  0  0  0  0  0  0  0  0  0  0
    5.7299    3.6241  -18.6656 N   0  0  0  0  0  0  0  0  0  0  0  0
    9.5675   -3.4832  -21.5877 N   0  0  0  0  0  0  0  0  0  0  0  0
    7.8144   -1.9798  -21.7329 N   0  0  0  0  0  0  0  0  0  0  0  0
    3.3111    3.5922  -18.6051 N   0  0  0  0  0  0  0  0  0  0  0  0
    7.9181    3.9519  -19.4384 O   0  0  0  0  0  0  0  0  0  0  0  0
    8.8795   -2.2610  -19.7597 O   0  0  0  0  0  0  0  0  0  0  0  0
   14.1529   -6.2157  -20.0219 O   0  0  0  0  0  0  0  0  0  0  0  0
   10.8274   -5.2558  -22.9577 H   0  0  0  0  0  0  0  0  0  0  0  0
   10.8574   -3.1710  -19.1789 H   0  0  0  0  0  0  0  0  0  0  0  0
   12.9028   -6.4508  -22.3143 H   0  0  0  0  0  0  0  0  0  0  0  0
   12.9211   -4.3850  -18.5319 H   0  0  0  0  0  0  0  0  0  0  0  0
    6.6230   11.4057  -22.7745 H   0  0  0  0  0  0  0  0  0  0  0  0
    7.4407   10.6290  -21.3763 H   0  0  0  0  0  0  0  0  0  0  0  0
    5.0537   10.9831  -20.8678 H   0  0  0  0  0  0  0  0  0  0  0  0
    4.5807   10.0880  -22.3517 H   0  0  0  0  0  0  0  0  0  0  0  0
    6.4756    9.2393  -23.9365 H   0  0  0  0  0  0  0  0  0  0  0  0
    8.1794    9.5691  -23.4727 H   0  0  0  0  0  0  0  0  0  0  0  0
    4.3467   -0.5136  -20.1538 H   0  0  0  0  0  0  0  0  0  0  0  0
    3.4115   -0.8578  -21.6483 H   0  0  0  0  0  0  0  0  0  0  0  0
    6.0890    8.9522  -19.9360 H   0  0  0  0  0  0  0  0  0  0  0  0
    4.3805    8.6231  -20.3825 H   0  0  0  0  0  0  0  0  0  0  0  0
    7.4895    7.1981  -23.0199 H   0  0  0  0  0  0  0  0  0  0  0  0
    7.9814    8.0753  -21.5316 H   0  0  0  0  0  0  0  0  0  0  0  0
    4.6942    0.8488  -22.8794 H   0  0  0  0  0  0  0  0  0  0  0  0
    3.9545    1.5717  -21.4108 H   0  0  0  0  0  0  0  0  0  0  0  0
    5.2524   -2.5157  -21.2530 H   0  0  0  0  0  0  0  0  0  0  0  0
    5.4514   -1.6125  -22.7929 H   0  0  0  0  0  0  0  0  0  0  0  0
    7.2038    0.3147  -22.8701 H   0  0  0  0  0  0  0  0  0  0  0  0
    8.1663    0.6480  -21.3906 H   0  0  0  0  0  0  0  0  0  0  0  0
    5.1050    7.5654  -22.4905 H   0  0  0  0  0  0  0  0  0  0  0  0
    6.1230    1.3780  -20.2028 H   0  0  0  0  0  0  0  0  0  0  0  0
    6.8582   -1.0224  -20.1346 H   0  0  0  0  0  0  0  0  0  0  0  0
    5.0398    3.4564  -16.6809 H   0  0  0  0  0  0  0  0  0  0  0  0
    6.7303    2.9134  -16.9522 H   0  0  0  0  0  0  0  0  0  0  0  0
    6.3413    4.6670  -16.9393 H   0  0  0  0  0  0  0  0  0  0  0  0
   14.9041   -7.5573  -18.6122 H   0  0  0  0  0  0  0  0  0  0  0  0
   13.7146   -6.3647  -17.9884 H   0  0  0  0  0  0  0  0  0  0  0  0
   13.1603   -7.7402  -19.0020 H   0  0  0  0  0  0  0  0  0  0  0  0
    7.5629    2.7898  -21.9753 H   0  0  0  0  0  0  0  0  0  0  0  0
    5.9977    2.8287  -22.8558 H   0  0  0  0  0  0  0  0  0  0  0  0
    6.6462    6.5420  -20.0513 H   0  0  0  0  0  0  0  0  0  0  0  0
    4.9030    6.2608  -20.3813 H   0  0  0  0  0  0  0  0  0  0  0  0
    7.3153    5.2609  -21.9752 H   0  0  0  0  0  0  0  0  0  0  0  0
    5.6399    5.2248  -22.6221 H   0  0  0  0  0  0  0  0  0  0  0  0
    3.8161    3.7810  -21.2728 H   0  0  0  0  0  0  0  0  0  0  0  0
    9.2808   -3.7281  -22.5139 H   0  0  0  0  0  0  0  0  0  0  0  0
    7.7824   -2.2282  -22.7010 H   0  0  0  0  0  0  0  0  0  0  0  0
    3.2994    3.5041  -17.6090 H   0  0  0  0  0  0  0  0  0  0  0  0
    2.4510    3.6277  -19.1140 H   0  0  0  0  0  0  0  0  0  0  0  0
  1  3  2  0
  1  5  1  0
  2  4  1  0
  2  5  2  0
  3  6  1  0
  4  6  2  0
  5 30  1  0
  6 35  1  0
  7 22  1  0
  7 29  1  0
  7 33  2  0
  8 28  1  0
  8 29  1  0
  8 32  2  0
  9 30  1  0
  9 31  1  0
  9 34  2  0
 10 11  1  0
 10 12  1  0
 11 14  1  0
 12 15  1  0
 13 16  1  0
 13 17  1  0
 14 19  1  0
 15 19  1  0
 16 20  1  0
 17 21  1  0
 18 20  1  0
 18 21  1  0
 19 26  1  0
 20 25  1  0
 21 31  1  0
 22 25  1  6
 22 27  1  0
 22 28  1  0
 23 29  1  0
 24 35  1  0
 26 27  1  0
  1 36  1  0
  2 37  1  0
  3 38  1  0
  4 39  1  0
 10 40  1  0
 10 41  1  0
 11 42  1  0
 11 43  1  0
 12 44  1  0
 12 45  1  0
 13 46  1  0
 13 47  1  0
 14 48  1  0
 14 49  1  0
 15 50  1  0
 15 51  1  0
 16 52  1  0
 16 53  1  0
 17 54  1  0
 17 55  1  0
 18 56  1  0
 18 57  1  0
 19 58  1  0
 20 59  1  1
 21 60  1  1
 23 61  1  0
 23 62  1  0
 23 63  1  0
 24 64  1  0
 24 65  1  0
 24 66  1  0
 25 67  1  0
 25 68  1  0
 26 69  1  0
 26 70  1  0
 27 71  1  0
 27 72  1  0
 28 73  1  0
 30 74  1  0
 31 75  1  0
 32 76  1  0
 32 77  1  0
M  CHG  1  32   1
M  END
>  <OMEGA_C>  (14) 
bYc0QXESosCO+q/BJ8g0QYq/eMA72p7BGT5HQTLQt8AjEK3BkGlHQTJHksDc75vBoTArQVlOhMAq
8ajBqp5QQXwgsMAmB6PBML3WQM9QdkAQ/5zBtHGOQM9MakAR8JnBo44MQRPNIsDNmKfBZYLWQPW9
J0EAcLHBgaaqQMm0IkGZbKzBMJDlQERjFUGIvLjBA2KMQE7VCb+6BarBI0OsQIWaDUE2MKbBsBzn
QEkfAEEcmbLBesuWQLpqXT/DPK7BwruuQDnpw79lka3BmszlQBHerT5IKq7BRAC7QOtP9kBzfa3B
ur7DQNRnqj/+aarBlcPaQFvphb9436nBIs6/QC2FeEDnwqfBSTi/QKm/akBGwInBv45fQaCL4MCV
r5bBwQvPQMRFLkDd8a7BzHO8QEWQzUCAuabB0//HQPqGpkD0p63BamaSQMuQcUD5+KTBc1u3QKbw
Z0AQU5XBhRQZQWDtXsCis6zBhg/6QJ5o/b8K3a3BcOhTQETmZUAx15TB/mD9QHHsfEDHgZvBgBIO
Qf20EMDqE57BGXJiQTHnxsDmLKDBCD0tQXwvqMBaqbfB1bctQUjxSsBabpnBCXJOQVdtzsCxg7LB
Bb1OQa5RjMBHQZTB3+/TQMN9NkEgMrbB5hnuQFcQKkGwAqvBrrehQK66L0Ex8abBfZWSQJNoIUEu
0LLBgjjPQFrUE0Hifb/B094CQT0bGUH+x7vBRxiLQDV5A78DO6HB8FVaQOKaW7+8L63BDdnCQA08
D0HzfJ/B2SyMQAz4CUFGD6PBmanvQOhW5kDTKLjBU2f/QFI0AUGgQKzBrzaWQMVKWT8DCbfBQRZ9
QIotyT84SavB2xOoQPMAIcAbBqrB33GuQKdmzr/cV7bBhIXmQEAfoT4I9rbBQakCQQvkJT/hH6vB
MlyjQPsX8kCR7LPBOu/DQCJisD9Cn6HBK3bbQHTcgr+kE6HBz0WhQCM1XUB+coXB1F7XQHd1OkAo
nofBr+vKQEdYlUDGg4fBWHduQQbV8cDh5ZTBJ29bQUmry8A96I/BgpBSQXOv98AKBJjBTwPyQEuM
MkCBza/B8uy/QHQJNUCv2LbBXa3UQHhY0UAVaaDBQuWcQIJYyEDvDKPBuBbqQPxYqEAmza/BHHq0
QE4xp0AM+rTByjt0QEj7cUCxLqrB/n0UQVWZbsB0HLTBZQn5QHmbDsC5m7XBsChTQI9DYEBK34zB
LN0cQLwraECH6ZjBx0AyQWARo8DQybDBrjo1QVsPfsAYhJ/BSbJEQb6susBuia7BeqlHQRnHlsDl
P53BGYcqQf0NhcCYYqnB94pPQT2+tMBjzqTButjVQJ7WcUD0rZzBqNOMQDGoakBOhprB81MNQUcW
H8DwSqfB+l3EQLcuJkGOnbTBiV7fQJV/FEHR37nBwH7EQLLYI0G4X6jBkgaNQIaUBb/d/afB9snO
QN6N/EBFubbBtCW0QAyzDUFkDaXBinSWQMrVVz/aGK3BcGuuQNHMxb+khqvBLwjlQOhqoD5iGK7B
EG3OQHVk90BAZ6rBvzfEQJU3qT+VF6rBaVjbQKIPhL8w6ajBnwzBQI7yd0AwsqfBPGC6QOJSaECl
wInBa75oQRFh0cBsOpjBXBHPQC37LEDE667BiWm6QP/ZzEA896bBSGvNQP9npkDtDa3B4giTQLuD
dUBjdKXBrLy0QM7oZUC4aJXBV5MYQZB4XcAvmazBRjL5QKY+/r8BDa3BLK5OQDmLZUBG6ZXBwD38
QPN9dUA/tprBAGcRQW9kBcBSPp7BfLNhQVzwzMDqKKPB2OgpQUvwp8B9QbjBjjIvQUdzUMBdxJnB
gKFKQVuM0cBGS7TBq+VPQYFIksDHvJXBwb7RQE3hNUGgxbbBWECjQAcNJUFhi7fB4qndQLg5FkEW
n8LB+2cAQRIeFkE6QLfBYljlQKz2JUEfZaXBYqmvQAkvMEFS36TBtuSNQA1W2b6VOp/B4itaQISd
XL+Ff6rBKQ6uQKOB+EAnzLnBmbjjQNz840BnPLrBu7e2QKIeDEG5T5zBwW6SQBwhDEHvdKfBRf+T
QHRnQT/62LXBsed9QH74yT+VNKrB1t6oQCGkH8CKTKfB66+rQKCv2r+lM7TBTtbiQHQNZT5L2bbB
ebYCQfpEJD+C3qvBTYvvQITh+ED0cafBI3fGQIbbsT+iU6HBN77eQPjQcL+sLqDBumSbQHQTXUDK
0YXBoSvRQANRNkBCU4fBHc3GQDqyk0CvYIfBGkR3QR495cCJ+JfByEVsQbSTscDp5JTBmA9cQdKz
4MC9epPBOeLxQMHUMED2H7DBrr6+QKwEM0BVrrbBSAvAQFdRyEB4Wp7BZseXQLEizkBagajB9X/w
QJBFqUA6KK3B1T7BQGuSpkCvT7XBLZt3QInRekCM6qrBfvQSQRrQbMDA1rPBQ0/1QDx5E8C0krTB
YrBKQKJ4XUCm/Y3B81sZQC+1aUASTprBjIUyQYCfosBgE7DBojs1QfgZd8DoN5/BMv5EQaiVucAL
gK3BXqdHQTXHksAqm5zBQpIqQVWQg8AqCKnBQMhPQa+VscBLuKPBJkvVQJCeekAcap3B2yiNQOsI
bECwXZrBUCENQa/VHMDthqfBgV7mQKNbIEHDDKzB4Y+9QGGAGkGQyqXB5vf8QOIdDEHQOLDBF5CM
QAd4DL/CoKfB3LyeQM+PDUGS26zBXH7eQFq3/kBleLfBVIeUQM02Vj8QjazB9eutQAHhxb/2pavB
CjLjQOSTrj5yWK7B6wW0QFPb8kCesLHBEY3CQO5Rqz+C/6nBI7jaQGOsgb+2OanBlFi+QNB+ekCK
K6jBBDK+QFjoZUAGQ4rBOCVtQV6J3sBT/qjBuwjMQC9cLUAgH6/Bij66QAXcz0D5CanBjUDIQDr4
pUAela7BU+aQQCaFdkA0XqXBCpK1QA0UdkB4opXB0nkYQeeKXMB+hqzB0C/5QEd5+b9OcK3Bp1pS
QHaOXEBRYJXB2xr8QPdTekC1+pvB+LsQQXgqA8Aebp7BbEpiQbmOxsCovaDBqVUqQVDUqMBHhrfB
YCgvQcQ1R8B3x5nBnhBLQfpz0cAk9rLBXqlPQWoAjcBYFpXBJ6zdQESTKkGa4LLBX0z8QJEdKUEM
vabB917GQDniEEEWwp7BlJGtQEVFKUENKaPBYr8MQVzGEEFB0rTBQVADQSIYAkEuZ6nBT6eOQGbn
877S3J7BSehYQDLQZb/v6KnB+z2DQJiJCEGc+KfBc46TQEHZF0GcbbPBBurWQEgSCUFVj77BJpbu
QBYR4UB7+7nBWIaQQC8HRj9+R7XBymB6QO1cxj9FQanBnV2pQFzFIMALmafBZUKqQNsc17+BVbTB
3ObfQA82hj6LFbfBFOABQUpSLT8+WqzB5BSeQIro5UAbw7fBz0DGQHORtT82RaHBkIfeQJNjbL+x
gaDBV9ufQHVoZUDCzIXBnSbOQBSPJ0CjX4nB/QzTQBxSjEDvF4fBiox7QY2i7cDCoKXBdWFiQUZr
98CuHqzBhMVxQfHRyMB7ha/Bwa7uQEHhMUARkbDBYeC6QAYDMUC1yrbBHAjTQNgK2kA9VaPBg/Kb
QH6hykD8wKTB4QHrQCtup0Cs7a/BkKm3QPzNo0AwU7bBsA9xQLarekDnhqrBLuQSQeOkbsAyrLPB
wBD2QGjPD8ACCbXBfLZRQMfKVkC+aI3BOP4bQKt9VkCbh5nBM9gyQXSfoMDx1q/BKbM0QdbKcsDv
+Z7BgxJFQa3Yt8Ch+6zBqOJGQSjZkMC/FZzB25AqQaRzgcBz6qjBqz9PQYUQsMCkBaPBmi3XQMwj
ckAKt5zBsMaOQEY0aEDX3pnB3nUMQcpTG8Bbk6fB1XLQQFWwIEG/0rfBk+T1QGM7GUFNt7DBY8ek
QG0WHEGdiLLBUkyLQOua8L6JyKnBcv7wQPd/AUF5v63B5YygQAw/BEGuqK/BQMeVQJrLaz+lUa7B
zDqtQCmIvb9tP63B3XbkQDH8wz4vkK7BYXzFQADq+0C8J6jBHQnDQAGRsT8Iu6rB5oXZQMY3fL9k
3KnBzX/AQBSPe0DxeqfBL+++QKATYUD3mInBXO1pQcB55cAd2KbBFF/OQAfyMkCsJq/BGnHAQP8n
zkAQ/qPBx3XJQC5VqkDCXKzB5gOTQAwXdUC8z6TBUxi3QGitb0BIBpXBS8wYQYaXV8A2q6zBmWH4
QEVq97/etq3ByNZUQFCbWUC2BZXBC/D9QHgVckBwLpvBwZAOQfWWBsDrKp7Bq0dhQX/FxcBHo5/B
shkrQSu1psB/abfBkmouQdWBQsDgppnBDWxLQXW8z8DYW7LBVolOQZvtisAQe5TBdWTTQBECMkF0
NLnBEwbSQAA0GEHWhb/BSxAKQbV2G0ECFbXB0mb2QJrdIkE7WqnBRuehQES0JUHUMqvB4g2LQLh7
IEGxH7jBHIKKQHHd1b7Y/qDB/q5XQMzNSr9dxqzBCnvyQIRn70CBDLXB24IFQY+e+UC5TqjBvciB
QL13AUGMnavBHw6iQDUZ9UA7/rbBkLiUQLTpYD+/G7fBb7F7QBUw0j/hbKvBobumQPXfHMCob6nB
d02sQKxHzL8M/7XBlA7kQHFjqD4gWrfBjTUCQevBMT9N16vB7VHEQPC/CEHKNaHBa8DDQFmrtj8t
8KHBDcXaQFepbL9yFKHBH1egQBsjYkBbP4XBxmLOQH1vIkC4f4jBsvfTQFLaiUASeobBPSZ4QVRI
9MAYN6PBZctdQaM5/sAJYajBFmxuQecS1sBkbq7BITTxQAuvNkClVLDBRBe+QPvbO0CP37bBQ7/W
QGHRyUCORZ3BBWGfQPhNykBmIaHBLirrQIUJrEAr3a7Buae0QIYer0DxW7PB9bV1QFFHeUD3B6rB
1E0UQZUpZsCqILTBlvD1QGLdD8BZSLXBpFVTQMycUkCMEo3BcL0eQDFwVUDKQ5nBLwgzQXI6o8Bx
8a/BhQg1QcfZecBI9Z7BVXJFQSY7usCqQK3BaGZHQfEklMA3PZzBjsAqQV19hMAQ5ajBDNZPQe+q
ssDwVqPB8NzWQLbYd0CTrp3B4X2OQJ6AcUAnpZrBQScNQYPcHsAefqfBcuWzQIANI0GrBavBDbOY
QCuQEUEOY7DB5gbYQPT+GEFXW6TBLpCMQHYID7/JrqfBBsm0QGTQAkGnZrfBpqn0QJQFC0FEf6vB
SJiUQNrPVD+VhazBHNitQM17x7+1wKvB7mDjQD5Moj5rUa7BXhnbQKpv8kDRJrHBg6TCQBcPqT+h
C6rBkrjaQPfkhL/bPanBxOK/QAYjekAIeajB0Bm/QGSiZUBYiorBWaRsQZoD4sCPJqjBYeHLQDRs
K0DyWq/B92nMQE1Rz0B4HKnB45DLQGmcpECyNa/BtXSSQE6+e0A0pqXBRwu3QMQIeEAZ5ZXBZrEY
QQdNXsCFeazBLDr5QKly/b+Mba3BoJBUQJsNZEBsqZXBtnr9QNUtcECtOpzBSrYQQV/mBMC2Z57B
bjtiQYy7x8CPMqDB7iQrQaUoqcB2fLfB8LQuQV+cSsBjgJnBgcVLQaDJ0cANurLBZyJPQfSRjsC9
o5TBm/DBQHZbLUGBO7HBalyfQIC4LEHrwaXBLwWJQBjpB0HQKKrB9TaAQLwrGUHXb7XBcW7rQKHH
JUGOvqDBOgTKQGAMD0GD/53BRqmOQJ7w/L7m6Z7BW9hYQEMoZ7+4+6nBwdygQCNB60BsbbrBsznB
QFMqDEEnLb7B798BQTM5FUGSmLHBkMsGQbebA0HGgqbBiUOQQJ5jRz+vPrXB5P96QHWqxT/FHqnB
VQWpQL3WIcA2yafBZE2qQAE217/nc7TBRGPgQHn4dD5qELfBXPEBQbyPJj9RQKzBwnnwQEUd40AY
ALfBM3jGQB55tT8CVaHBVFHeQKS1c7/Sg6DB0OSgQCzQaUCIDYbB0m/MQO3MJECZvInBowPWQKxB
ikA2VYfB2/p6QSLj8MClp6TBCY9hQWYj+8A62arBJFBxQcEIzsBFAq/BSVHuQAS5LkBOIbHBWZ25
QCWzLkDY3bbBxwrjQMVizUBFY6LBuEasQDja1kAcDqbBgIrrQKpSn0DKpLLBuPWzQNBop0Avs7XB
Y3B0QE2CgUAQy6rByU4TQXYTcMA+rLPBLBz2QPv9EcBQBLXBCNVTQK5jXUCwtI3BnPUdQJFwYEBP
z5nBdEcyQRMLo8DcOK/B4fAzQTLAcsBdup7BhXBEQRPxucBYD6zBvyRGQRgokMDvlpvBKvgpQROq
gsC+pajBt5VOQeRhsMAWL6LB+nPZQJDHckDbepzBUHKQQOz9akBLe5rB8DEMQWKqG8Bq3KfBBL6o
QKBeG0GfnbTB8JK7QCq5B0GTarrBJoyhQC7tFkF4n6jBBCKKQPMz3b4nJqrBdH/lQF2YAEGICLXB
jkTLQE8iD0FARKPBHAiXQFIddT+4R67BovuqQOUCvb9jn63BGvLkQDAVnT669a3B0MjeQHvx9kBy
AanBmm/EQKPorD9cSKrBNnDXQCwRiL9HvqnB4vvEQHKfekBehqfB7LS9QDg3XUBztonBdcJpQXJL
5cAQe6XBCoTSQL6jLkDqrq7BlhXCQPE+z0DgCKfB1jHTQJVep0Cf66zB0NqWQC62ekAMVKXBWgK4
QAq6bUCxMJXBGRkYQcRpW8BPlKzBCFL1QFa9AsAimK3BmDtWQM4CXkAeB5bBYNz/QCJ5ckCNeprB
YIQQQXT9878iQ5/BwqxgQTcvxcDDip7B5Z8qQbxPqsCGwLbBEHwtQRh3QcAkmpnBDr9KQUDo0sBt
IrHBIMJNQZ/siMAjDJTBsgu/QGbhKEH0dbXBgemJQDCGH0HSUbjBo1ikQO8G9UCeG7rBTw3CQIHo
C0Egz8LBZduWQJm7JUHpr6TBC8yIQASKCkGou6fB/XCIQJXM0b5rXKHBFTNVQM4UM78dbK3BdHTx
QNRZ5EAcGbnB7Tj9QAODDUHCxrXBZb7iQLM+HEFoaaPBa0DEQM/ECkGJ7JrBQu2WQMVecj9nFLfB
3Yx/QBWT2T8hY6vBw4iiQHzuHMBUJarBLRSrQCvFxr/DZrbBYAvmQECpkT73wLbBI2UCQRICED8+
0arBO1T+QPOO8EAccaXBbTHEQFnusT8MfaHBzo7XQJg5hb/z8aDBNUieQNRoXEDCv4XB5HzNQDXr
HkDjmYjBdKHRQD75h0BnMIbBlPx3QUpL88BCqaHBdNxdQe+P/sDj8abB2VpuQWKD1sAsIa3Bkpn1
QAj0LkBLZa/BhiPEQB9nN0AHpLbBcRzBQN+NyEAJZp7B1I+hQOw21kBO6qnBDl/2QMyeqECj/azB
Ai3HQC68p0DnMLXBYZR/QPA7gkDkvKrBpC0TQb79bcAy1LPBNj7wQKk6HcDvw7TBzhhSQGLdVEB3
II7BqU4hQG88XUBbhprBO5EzQb08psA426/B3tc2QS5ZcsC9CKDBH8ZGQUMeu8C1Ha3B9u9JQXLx
jcCZTp3BSmkrQUsShcDmW6nB1SVSQcsur8BJ1KPBS6fWQFQwdUBHCJzBL1SNQGN/a0DuoZrBxXEM
QYARI8DLo6fBdJylQCUvGEFzW8XBAM62QMrLBUGZYMzBH2O4QH4fF0El9bnB7DiJQDdAzr5LrajB
TbCtQCnV30BmLsfBU6CvQBo6AUFwubTBqvyWQOXxcT9Lbq3BzaaoQI2/wL9qAKzBlIXkQEAAaD4m
V63BmhvBQHNm3UB/yrvBkQfFQEUyqT+DranB67bWQDy1kb8Au6jBTNfDQDVZekBnUafBClq4QCzQ
XEAjgYnB53twQdHnt8C/8pfB2nPTQLvELEChNK7BQ4q2QBY2sUBN87bBcK7PQILGqEBDbKzBjXmV
QEKweECtbaXBkyC0QNODb0AC/5TBGT0YQamJY8Dyn6zB6zrzQL3gC8DAqazBdilOQFTxXkAun5bB
E8T8QGYcdEDyr5nBlvARQUxr/r9DWZ/BeQRlQWrBxMBuhKHBJQMrQW6rr8Cx+7bBeMgwQcDBP8Cc
/JrBmdZMQTJv1MDgJ7LBMXlSQRmKhMARLJbBC3quQHKPJ0FLBcnBoIuCQGv5FkFg4sTBbCinQAZv
BkHyQNTBwpDZQDC3B0GGYM3BfSrbQBK1GUGGX7rBv7KpQEe/I0EUDLXBwayIQCdNp74p5p/BFA9S
QPr3J79JmqvBh96KQKYZ20ByqsbBntG7QGh4xkAyKMzBmmK/QLSuAEE53KzBnOeMQCRm/kB3sbPB
/X6WQJJ6YD+JNrbBV4GAQLPO3D8CzarBZ4OfQLugHMC9EKjBIkWnQI9B0b/uu7TBSJ7kQGm1Mj5r
IbbBU28CQRMu8T5oearBvhLkQJ2k4ECNZrzBbVfFQMGdrz8l46DBLGrYQAV7i78J85/BhHSYQMHv
W0C6yIXBPLLHQOcEHkAEc4jB0hLMQD5Ah0CKsIXB+QN/QT14y8CNGJfB2PR0QXv0lcCKlJjBmitm
QVeKvMCM6ZDBL6D2QJ77LUCEg67BboLGQHq8M0C1V7bBnwyUQArIr0DDOrXBD+G+QDRFmEDAzLzB
e03IQPpswkCGr6bBdCbyQPb4qEDgNK7BIDJ+QLD4f0AFE6vBuycSQWhQecBMgbPBbw3rQG27KsAD
XrPBAdRGQEAAV0CbvI7BUCQbQJlOXUCCcpvB

>  <OMEGA_E>  (14) 
MO0nPug/SD5QUnU+aHt3PjAqhz7wt5s+gAUWPw==

>  <OMEGA_NBR>  (14) 
      8619

$$$$
50253432
     RDKit          3D

 77 81  0  0  1  0  0  0  0  0999 V2000
   14.4352   -7.2619  -21.0373 C   0  0  0  0  0  0  0  0  0  0  0  0
   13.7843   -7.4482  -22.2748 C   0  0  0  0  0  0  0  0  0  0  0  0
   13.9727   -6.2929  -20.1257 C   0  0  0  0  0  0  0  0  0  0  0  0
   12.6601   -6.6739  -22.6029 C   0  0  0  0  0  0  0  0  0  0  0  0
   11.3276   -3.8566  -19.9102 C   0  0  0  0  0  0  0  0  0  0  0  0
   12.8508   -5.5142  -20.4491 C   0  0  0  0  0  0  0  0  0  0  0  0
   12.1918   -5.7167  -21.6911 C   0  0  0  0  0  0  0  0  0  0  0  0
   10.6631   -4.0870  -21.1457 C   0  0  0  0  0  0  0  0  0  0  0  0
    6.6896    3.8443  -19.6687 C   0  0  0  0  0  0  0  0  0  0  0  0
    4.4347    3.6403  -19.2724 C   0  0  0  0  0  0  0  0  0  0  0  0
    8.8204   -2.4703  -20.9135 C   0  0  0  0  0  0  0  0  0  0  0  0
    6.7879   10.4704  -22.1651 C   0  0  0  0  0  0  0  0  0  0  0  0
    5.3712   10.1545  -21.6514 C   0  0  0  0  0  0  0  0  0  0  0  0
    7.3427    9.3171  -23.0208 C   0  0  0  0  0  0  0  0  0  0  0  0
    4.4405   -0.5568  -20.9712 C   0  0  0  0  0  0  0  0  0  0  0  0
    5.3626    8.8425  -20.8600 C   0  0  0  0  0  0  0  0  0  0  0  0
    7.3298    7.9972  -22.2398 C   0  0  0  0  0  0  0  0  0  0  0  0
    4.6728    0.8204  -21.6100 C   0  0  0  0  0  0  0  0  0  0  0  0
    5.5036   -1.5433  -21.4481 C   0  0  0  0  0  0  0  0  0  0  0  0
    7.1360    0.3659  -21.8229 C   0  0  0  0  0  0  0  0  0  0  0  0
    5.9008    7.6889  -21.7261 C   0  0  0  0  0  0  0  0  0  0  0  0
    6.1018    1.3430  -21.2882 C   0  0  1  0  0  0  0  0  0  0  0  0
    6.8924   -0.9750  -21.1564 C   0  0  2  0  0  0  0  0  0  0  0  0
    5.9582    3.8862  -21.0083 C   0  0  2  0  0  0  0  0  0  0  0  0
    5.9790    3.5574  -17.2661 C   0  0  0  0  0  0  0  0  0  0  0  0
    6.3806    2.7195  -21.9186 C   0  0  0  0  0  0  0  0  0  0  0  0
    5.8768    6.4188  -20.8818 C   0  0  0  0  0  0  0  0  0  0  0  0
    6.2430    5.1973  -21.7421 C   0  0  0  0  0  0  0  0  0  0  0  0
   12.4087   -4.5836  -19.5804 N   0  0  0  0  0  0  0  0  0  0  0  0
   11.1123   -5.0027  -22.0091 N   0  0  0  0  0  0  0  0  0  0  0  0
    4.5421    3.8040  -20.6477 N   0  0  0  0  0  0  0  0  0  0  0  0
    5.7041    3.7809  -18.6906 N   0  0  0  0  0  0  0  0  0  0  0  0
    9.5637   -3.3945  -21.5877 N   0  0  0  0  0  0  0  0  0  0  0  0
    7.8579   -1.8869  -21.6789 N   0  0  0  0  0  0  0  0  0  0  0  0
    3.3107    3.4186  -18.6413 N   0  0  0  0  0  0  0  0  0  0  0  0
    7.9036    3.8659  -19.4974 O   0  0  0  0  0  0  0  0  0  0  0  0
    8.9245   -2.2441  -19.7119 O   0  0  0  0  0  0  0  0  0  0  0  0
   15.2944   -7.8667  -20.7871 H   0  0  0  0  0  0  0  0  0  0  0  0
   14.1515   -8.1877  -22.9711 H   0  0  0  0  0  0  0  0  0  0  0  0
   14.4790   -6.1499  -19.1824 H   0  0  0  0  0  0  0  0  0  0  0  0
   12.1599   -6.8143  -23.5498 H   0  0  0  0  0  0  0  0  0  0  0  0
   10.9630   -3.0962  -19.2355 H   0  0  0  0  0  0  0  0  0  0  0  0
    6.7520   11.3845  -22.7759 H   0  0  0  0  0  0  0  0  0  0  0  0
    7.4538   10.6304  -21.3043 H   0  0  0  0  0  0  0  0  0  0  0  0
    5.0332   10.9725  -20.9982 H   0  0  0  0  0  0  0  0  0  0  0  0
    4.6880   10.0637  -22.5087 H   0  0  0  0  0  0  0  0  0  0  0  0
    6.7223    9.2076  -23.9225 H   0  0  0  0  0  0  0  0  0  0  0  0
    8.3768    9.5517  -23.3134 H   0  0  0  0  0  0  0  0  0  0  0  0
    4.4956   -0.4638  -19.8765 H   0  0  0  0  0  0  0  0  0  0  0  0
    3.4454   -0.9276  -21.2581 H   0  0  0  0  0  0  0  0  0  0  0  0
    5.9974    8.9529  -19.9685 H   0  0  0  0  0  0  0  0  0  0  0  0
    4.3323    8.6129  -20.5504 H   0  0  0  0  0  0  0  0  0  0  0  0
    7.6617    7.1821  -22.8997 H   0  0  0  0  0  0  0  0  0  0  0  0
    8.0142    8.0764  -21.3823 H   0  0  0  0  0  0  0  0  0  0  0  0
    4.5563    0.7366  -22.7006 H   0  0  0  0  0  0  0  0  0  0  0  0
    3.9314    1.5309  -21.2155 H   0  0  0  0  0  0  0  0  0  0  0  0
    5.3802   -2.4998  -20.9191 H   0  0  0  0  0  0  0  0  0  0  0  0
    5.3938   -1.7060  -22.5305 H   0  0  0  0  0  0  0  0  0  0  0  0
    7.0293    0.2671  -22.9133 H   0  0  0  0  0  0  0  0  0  0  0  0
    8.1483    0.7243  -21.5845 H   0  0  0  0  0  0  0  0  0  0  0  0
    5.2360    7.5556  -22.5923 H   0  0  0  0  0  0  0  0  0  0  0  0
    6.2108    1.4223  -20.1965 H   0  0  0  0  0  0  0  0  0  0  0  0
    7.0149   -0.8662  -20.0687 H   0  0  0  0  0  0  0  0  0  0  0  0
    5.0323    3.5505  -16.7061 H   0  0  0  0  0  0  0  0  0  0  0  0
    6.4876    2.5905  -17.1383 H   0  0  0  0  0  0  0  0  0  0  0  0
    6.6237    4.3638  -16.8863 H   0  0  0  0  0  0  0  0  0  0  0  0
    7.4589    2.8026  -22.1196 H   0  0  0  0  0  0  0  0  0  0  0  0
    5.8246    2.7923  -22.8649 H   0  0  0  0  0  0  0  0  0  0  0  0
    6.6029    6.5151  -20.0611 H   0  0  0  0  0  0  0  0  0  0  0  0
    4.8685    6.2795  -20.4648 H   0  0  0  0  0  0  0  0  0  0  0  0
    7.3140    5.2428  -21.9891 H   0  0  0  0  0  0  0  0  0  0  0  0
    5.6515    5.2233  -22.6691 H   0  0  0  0  0  0  0  0  0  0  0  0
    3.7757    3.8570  -21.2880 H   0  0  0  0  0  0  0  0  0  0  0  0
    9.2701   -3.5926  -22.5229 H   0  0  0  0  0  0  0  0  0  0  0  0
    7.8258   -2.1077  -22.6537 H   0  0  0  0  0  0  0  0  0  0  0  0
    3.3051    3.3332  -17.6449 H   0  0  0  0  0  0  0  0  0  0  0  0
    2.4569    3.3344  -19.1551 H   0  0  0  0  0  0  0  0  0  0  0  0
  1  2  2  0
  1  3  1  0
  2  4  1  0
  3  6  2  0
  4  7  2  0
  5  8  1  0
  5 29  2  0
  6  7  1  0
  6 29  1  0
  7 30  1  0
  8 30  2  0
  8 33  1  0
  9 24  1  0
  9 32  1  0
  9 36  2  0
 10 31  1  0
 10 32  1  0
 10 35  2  0
 11 33  1  0
 11 34  1  0
 11 37  2  0
 12 13  1  0
 12 14  1  0
 13 16  1  0
 14 17  1  0
 15 18  1  0
 15 19  1  0
 16 21  1  0
 17 21  1  0
 18 22  1  0
 19 23  1  0
 20 22  1  0
 20 23  1  0
 21 27  1  0
 22 26  1  0
 23 34  1  0
 24 26  1  6
 24 28  1  0
 24 31  1  0
 25 32  1  0
 27 28  1  0
  1 38  1  0
  2 39  1  0
  3 40  1  0
  4 41  1  0
  5 42  1  0
 12 43  1  0
 12 44  1  0
 13 45  1  0
 13 46  1  0
 14 47  1  0
 14 48  1  0
 15 49  1  0
 15 50  1  0
 16 51  1  0
 16 52  1  0
 17 53  1  0
 17 54  1  0
 18 55  1  0
 18 56  1  0
 19 57  1  0
 19 58  1  0
 20 59  1  0
 20 60  1  0
 21 61  1  0
 22 62  1  1
 23 63  1  1
 25 64  1  0
 25 65  1  0
 25 66  1  0
 26 67  1  0
 26 68  1  0
 27 69  1  0
 27 70  1  0
 28 71  1  0
 28 72  1  0
 31 73  1  0
 33 74  1  0
 34 75  1  0
 35 76  1  0
 35 77  1  0
M  CHG  1  35   1
M  END
>  <OMEGA_C>  (15) 
t/ZmQcph6MBvTKjBsoxcQZlX7sDRMrLBUpBfQbNfycBgAaHBrY9KQeuQ1cDN0rTBzz01QfDSdsAP
SJ/BAp1NQXZ0sMCtl6PBexFDQWjvtsBOh63B6ZsqQdzIgsBXKqnBYRHWQFoIdkCZWZ3BveiNQDT7
aEDmLZrBYSANQaoZHsDWTqfBIjbZQJKGJ0EwUrHBJeGrQNZ4IkEONq3Bm/fqQOoSFUGKKrjBxhiO
QN6HDr/4xKfBSJqrQLh6DUFM4abBvo3qQNXo/0AX67HBmYeVQPYFUj884azB3R2wQKuKxb/IlavB
2lnkQHRduz5fla7Bm9O8QJ0L9kAnz63B7EHDQPLmqz8yTqrBbI7cQCibeb9fQKnBfam+QHS3eEDu
EKjBJlS/QAatY0D1IIrBLC7MQCwMLkBJWa/BGg+8QMRmzUDcDafBw8bHQFpQpkDC763BKYpGQYOs
ksCupJzBJcwxQdoVoMCWErDBpViRQC50c0CVLqXBuYe2QNL6cUBbhpXBxAQZQdk/WcCys6zB4nP7
QE2F8b95bq3BMeJTQKXJWkBVIZXBgOr8QHZqd0Ce+pvBm8oOQZqfD8D5sZ3BrrV0QZm7+8DmS6bB
eWxiQa0AA8HIxLfB2KlnQf3LxMCndZnBDI9CQboO2sD5ZbzBWmgvQZknRsBd4pnBGRDYQAEnNkH9
NLbBNIXuQAsWKkFIb6rB8g+hQE6PL0Fd/KfBfgSWQM8EIUHcEbTBQR3XQChSE0FCYb/BXAcGQdPT
GEHxgbrB99uPQPx77b4PA5/BH4JcQPt0bb+NEKrBtOq/QPo+D0F0v5/BdaKKQE7OCUEvZ6TBjSz1
QH7T5UCMMrfBHToAQQ85AUHlDqvBF82RQP2SPD/HmrXBQpx7QCbzwz9kuanBVyqsQLr8H8BfWqfB
O5qsQKxf2r9oPrTB5e/gQGvHiD5nTrfBS18CQYZsOT8lrazBj42nQMPH8UAZvbTBFL/GQIcPtj9j
kqHBEXrgQNjBXb+zjKDBcwihQPs7Y0AEpoXBF5rPQAzKJUAnG4nBJfXTQA2ki0AnF4fBda/uQGZd
M0D09LDB2WK6QFW1MkBO67bBOEvTQAt80EAcfaDB5sqbQOTxyEDbt6PB6AvqQNLEp0Co6a/Byti0
QKAlp0BTWrXBMaVxQBfZdkC+TarBZFIUQcLsZcD+LrTByWz6QDbkBsDYOrXBPodTQLFSVUDYKI3B
Gz4dQKNmVUCePZnB7aBpQegCusCPjpbBvN9hQRxpl8DrbpDBLeleQQjuxsDJ7J/B6D1PQS65gcCk
mpPBly4xQR+WpsDVeq/Bd31MQfL3sMDDO6PBiKFEQT9qjsCL+pzBh28pQQuThMA1NanBkpLYQAXj
cUBORJzB6n6PQEKYaEDoZ5rBSAMNQUvlHcBUrafBXwu7QIv1JEHr6bTBKZfYQMZNFEHtJrrBzlm9
QMVcI0H2qajBQJ6MQEYn8b6WSKrBLzfMQNNC+0Awp7bBBUCxQE7YDEHy7KTB4X6ZQGzbZz9Dm67B
NV6uQPBnwL/xSq3Bc5TnQF34oD7Sfq3BN3XNQJ8/90CLTqrBrf/FQFxOqj/TLarB5FPaQB6thr8X
S6nBQnTEQKJJd0CHW6fBk+W7QEfSaEDXc4nBEvXTQLBLLUDtea7BUH68QOH/y0A2gKbBhfvPQCA2
pkD0s6zBaZlCQTSCvMDOYazBETgzQQIqcsDVD6DB0leWQC+pckDQT6XB7Re3QMMPZUDpH5XBnNcX
QZ31XcAz46zBsUH4QISM/79IXK3B2mtTQH4zY0Bf9ZXBa7L+QAQaeUCWIZrB0RERQZpeBMCcl57B
veR3QWG4ysCMCpTBSkdqQdqUjcCRS4nBs9hkQYmf4cCAiqTBByJJQUgIT8Ax347BkBgpQbkar8AC
0LbBXg7FQCAUNUEtaLfBfOqZQBcWIkGphLfBA8zVQOOIFUEW58LBj9n5QGV/F0HjwLfBKiXeQN/9
JkEKCKbB3A6nQAr/LkFQH6XBt86JQNfb175ChaHBbElbQPeaQ7+Uvq3B4aurQPEh9EBhfrnBcdni
QHw/5EDQKbrBk2y1QA7cC0GZM5zBMo2PQCzNCUFz9qbBuPuaQG7cXD9UZLfB5WyBQPvh0j+4J6zB
dS+mQGwMHsCgnqnB3UavQOJ7zr+zC7bBFunpQNANkT7GRbbBSmUDQZI6GD+YGarBLa7uQBIr+0Ci
kafB51TEQA/Mrz9FZaHBXYXaQHJ5hb9ofqDBs8mcQFp6XECIooXBmBnTQDUiOECm2obBDWrHQHhW
lEC3HofBVBz3QKYbL0BT3q7BG6jGQDLSNUDLjbbBVzXEQM0/yEBV953Bdo6ZQFN2y0D3kKfBHgHz
QPqtqUBP4KzBNIbDQKdZpkDr7rTBVeN+QKQwdkDo4arBolQSQabLbsDTGLTB0Sn0QPA9FcDD07TB
NVdOQO3LW0CiCY7BBrgeQEp7ZkCOeprBsbhpQWvy3sDx/qbB/GdgQcZ05cAPJbHBwUxgQbmTwsDJ
oJ/BUJhNQYunz8Cj+7PBXF8zQT65dcAod57B+aZNQVlXrMCLd6LBrVBEQVQIs8CUsazBwj4qQaZ1
gcDZwajBYGjXQI7ubUCJ55zBTZ2OQPYpaUAgR5rBP6YMQULrGsAOu6fBAwfFQBKtJUFLSrTBcaDe
QGn1E0Hh8bnB/mXHQEgWI0EDFKjBMhiLQGr2Cb9sXqjBuSjOQASI+0DEt7bBAhS3QFH+DEHmr6TB
qbyUQB5iVj+vR63Bm/SrQEAOyL9cLqzBFf3iQARykD5oq67BJObPQCjr9UAaa6rBbenCQJy/pT/X
bqrBWs/YQO6Yh7+8iqnB/nfBQCaWdUC3xqfBAu29QItJXEBY4YnBlh3OQOQbK0CKM6/B0eK7QMeb
y0Dj3abBz9jNQHMrpUBiIK3BhvREQUd4kMB1g5vBVMsyQbyWncBrmK/Bma+TQOYndEBRPaXBfeO2
QC7ka0CgU5XBkJEYQczOWMAOo6zBisb2QOjxAMB1hK3B7mlTQErKX0Dke5XBfwv+QOakakC/PpvB
2rYQQWBh+L/l7Z7BBS54QW7Y78Bj3aTBssJnQSlE+8CHv7bBbGNnQfD0vcBo1ZfBOlZGQRHj1MDF
trvB3h0sQVu3SMDOAJnBvFTSQIpYNUFPhrbBbWCjQFzHJEE81bbBC1fbQPjgFUFVp8LB8kYAQfFX
FUFotLfBEdToQMTqJEGoeqXBRZizQAV9L0HaRaTBMHCMQN8Y7r5bmJ/BLNZVQNitXL8u1KrBOuGs
QCbs90B5cLnBQDTiQHbk4kC3grrBhCu7QPA1C0EK/pvBs+2UQASwC0Hrt6bBrY+RQLk9Rj+UB7bB
9Xt7QKJGyT+sJarBuVumQKJ3IcB3HqjBguqoQE6r2b/74LTBGzPgQPH8UT6Ta7fBCtcBQTB3Fz+b
i6zBwYXxQKrT9kD+0qfB8czFQKzLrD95rKHBp+PbQAwKd7/ozqDB2BSfQN/4XUA0pYXBw9fMQMge
HUBYyojBoCPTQD4Jh0BdoIbB0NXwQOfULUARnLDBRBy9QKeEMkC22bbBgXjCQCrlxkCCTZ7BLBqZ
QH87zUBNJ6jB5/DwQHqep0BKba3BNuvAQJ+4pUBxT7XBVtR3QNIgekD7iqrBetQTQeWZacDp+7PB
QT7yQH+TGcBR0LTBq/hQQOq7WUCUho3B1WsdQAKuXkDtxpnB/1dsQYLJssBD35fB1PVjQdapkcCL
c5HBNERhQYe8wMDqCqHB8mVQQUO/fMCyJpTBBJ0xQf/upMAora/BpOdNQfoXrcAn5KPBwoBFQUTa
i8BuX53BsYYpQdfCg8BpOqnBtXXWQHGwdEDKhJzBpcKNQNcSZkCsTJrBxfYMQdjHHMC/mKfByVva
QM+gJkEtgLHBALetQD3gIUE53qzBGwzqQFocFEEYm7jBDTuLQIJpAr+sAqrBoAOuQCzdDEHWjKbB
plLqQJzh/UC2Y7LBHACYQM4TXD+Yd67BiBetQH45xb/n66zBLirmQMYakj65Ga3BWHW9QL5/9EDo
pa3B+jLEQAR+pj+y96nBjPzYQFDgir8j6KjBUnjBQBQEdkC7iafBJXC7QFenaEAGjonBwsDRQG0P
K0Aia67BU8O9QCIVzEBSx6bBQrPKQMrXpEADeK3B27JDQWFVucB05azBwWkzQXM/cMA0IKDBRqGT
QC6fb0AyP6XBxse1QAjAZUBZNZXBT64XQW5QXcAfyKzBTsn2QG/6AcC2Aa3Bdt1QQLfwXUDNrZXB
wLv8QDx1fEBrlprB59cRQTvG/r/vzJ7BDl97QZGPwcAevZXBu5lsQZcfh8DCcorBrKVnQQdv2sD0
26XBE8xJQWnISsAgLY/BR0ApQYQHrsAl47bB7sXYQL1UNUFIUrbBdxHxQHjoKEHa36rBt0GkQFYF
L0Hsg6fBqY6WQKeZIEH4drPBLp/UQDGREkGNi7/BW1kFQeChF0HsYbvBf2iIQMnU5L7GQKHB15NY
QIaUT7+Uca3BrqLDQNZ8DkFNp5/BkmyNQA5sCUFptKPBIWLzQJC940CD1LfBdd8AQdn+/0CG16vB
luSZQN7ITD/OPbfBiVt/QHD+zD8kLazBdeekQOJHIMDwM6nBvCWuQABF1L/JqrXBqhHpQP+9fz6o
3bXBdIwCQfzSEj8Gl6nBW6ymQGww8EDDRLTBFzDCQHYHrj/QMaHBfjLZQHr5ib9sG6DBD8acQG6Q
WkDom4XBiF/TQGfJOEC1I4fBPmvGQE5llEC0LofBnuj0QJizLUAatq7BcMrEQH/3MUDvjbbBpsXU
QBUy0EDjMqDBFJKdQMnmxkCidqPBZybtQPSkpkAMOK/BIZG4QK4bpUDPArXBzn94QLjJcUDIs6rB
mdsRQQpbb8A14rPBuILxQEslGsDIS7TB/DZNQF2aVkCpvo3BrG4bQAkPX0B/FJrBXHttQRLZ08Do
cJ/B3hVtQVMUq8Dam5rBlohcQbTo4MBEH6bBa69bQW1Hj8CHZpzBqIkqQejrtsDDL7DBqx9LQRc6
xcBL+6fB+KRKQc8znMBcDaPB1MUpQXSEjsDEKKvBbpDOQBvQiEBeFZ7BUUmHQGEEdEB2L5vB9qcQ
Qd1vJcCrOKfBdCzxQA4CG0GLO6nBjf3FQDA5GEE5WqPBd1P9QNLkBkH3va/BcQKbQEbVtL46EKDB
qeihQNFJEUFnJqvBrxzZQOEMAUFHn7fB5/CbQCP5Xz+lTqfB9au4QE1Itr9Jm6TB7frnQPam2D6A
rKzBtOGtQMI++kCtyLHBtvHJQM/YvT+dyqfB4nbmQL44YL/iA6bBXzi5QMVxgUAT8qjBQGm1QEpM
iECU14rBinnMQL6JMkAKl67BCLauQLeQ0kCCW6rBn5y9QPpHqUC3MbDBCQs7QSDQ0cCgeK7B1u45
QaahgcDysqTBc+2LQMeyd0B8RqbBykCvQM85gUD+X5bBcjoYQVYJacAHWq3BlUX/QPFg8r/YlKvB
o4ZGQGAvYkBcSpbBbufzQGI2k0B8h5zBPH8XQZgNFcBrPJ7B3M16QUAc6cDFBJ7B+CN6QXIhocAo
hpXB7uJcQc4RAMF20anB+WdbQWsvYMALrpjBpbodQQdrwMBVerXBtLvuQGK5KEGGtq7BNS8FQQQb
HkEdSaPBV6LJQFLuC0HoHp3BGhG9QMyGJ0E5n5/BBGwNQfATCkGdQ7TBcFMBQabe8kDqOqrBR86l
QEkilr0K/pfBF1p0QNMIP7/1pJ/BbfCEQILFDUGEeKbBlGObQAqPHkEpsrDB2QTVQMhBDkEtWb3B
CCXiQCrU5EDr9LvBnPiRQOdTFT8Ha6/BPLCFQJC20D9bJ6TBnXe5QGn/EcA8GJ/BlGasQPYW4L8C
bqzBKsjdQMD9Uj5W6rTB6HQEQQu5Tz9LvqzBy/SUQLpK9UB637fBP5DUQDiM2j9xmJ/B2VX0QIpj
Lr8dFJ7BqeOXQFrBf0BeiYbBb97PQApKaEDc9YfBjRe9QDIqqkB3Z4nBo1HuQGmJP0DCYbDBieu6
QEz9J0BLGrbBA8HEQJv22ECEr6PBzUSOQDlFzUDENafB8lnfQK33rED9hrLBz+epQCqwpEAZZbfB
UxxoQDlfc0BIk6vB6jEQQYXIdcCRFbTBDwv3QL7iBsDWHrPBpw1FQJW0XUDtT47BSA0RQKoQWUAd
iZrBrzV2QSDErcBcB6DBM0RwQdDxisBYf5nBFeJnQfClvcBlx6fBJfhbQW66b8CCsZrBnJAyQQGA
p8CGjbHBNJBTQfu3qsA1BanB/ZBNQY6Xh8Bsb6LBKIMsQRKWhMBCDKvBGfnOQJISbUCnPZvBE1qF
QBdJd0B0uZvB22gOQQbGI8DXNafBgUXNQCf7JUEJTrTBk27bQDfyEkEyS7vBXBLcQBgLI0GCoKjB
FhaMQOVqAr9B0qLBFM3KQGhH+0AJvLbBPjLLQDnZDUFH+qPBnsaUQNhASj8UBKnBl+qpQAHS0L8i
rqbBA4XhQBHN0D0gMqzBBzHZQLkQ9UCT7arBQGfEQA7xmj/bwqfBeEbZQIbOmb8a9aXB0yPBQN1a
dECl7qbBXheoQNUkXUC/oInBCQrPQDzaI0DVbK3B6bDFQHEuzEBZD6bBlAPUQIYSo0BXEazBLetF
QfINusDVdrDByCg6QU1iasClkKPBX1iSQK3ye0DUX6bBbLKpQKKvcEA/I5XBATcYQct5ZsAktqzB
zG3zQD1pEcBJaKrBb6A6QAqAeEAzmZjBQ5HzQAd7YUDu/ZfB0i8XQQpg9r+aBaDBM+OCQVxMvMAR
F5/Bpkl7QWy9fcAnkZPBv3lsQR5U2MB+xKzBanNXQZloOsBYrpXBxYcnQaiCs8A7fLfBoFDbQBXH
NEHHhrfB/iiqQI0sJ0EKfbTB37vOQKQYFUE0bsPBp5n+QAx5EkEvlbvByEH/QPX0IkE4YKjBSunP
QBlqMEF5x6PBpYyRQDzTqr4RPprB40xVQIdZUL+oGaTBCaGnQGwk+0BfFbfB72rXQGrG4EBcl7vB
1uLXQPrLC0Fw1ZvB7gioQHJuDkGyr6PBh66NQBVwIT9cirHB+RmAQJ5Zyz9S3qXBh/ikQChhIcAE
qaHB8zeiQH/U77+uC6/BmXHaQFNfab3OuLTB1psBQdzIyz7xRKvBBkr8QFuK8kCWs6rBuirLQF/i
qT8ALZ/BUJHhQGo/hb+PgJ3B2RiHQLaxZEDrtYbBKbOyQNneGkBVS4jBu0m9QDqghEAKRoXBM9Px
QEn+JkButq7BeYm+QPwKJUBcMrXBB9DPQBW7yUBmp53BvJqiQIqKzkCDcqbBcSX3QGYOoUDg26vB
1CrJQNkQpUC4bLTBFrh9QLengUAvp6zBZ6IPQSVygMDzmbLB/5XmQISlNcDMKrDB2n0sQLR+dEDk
z5DBj60LQJJufUAQAJ7B9LReQaE49MDnxZrBWrZUQb5A3sCrR5LBQW9ZQf5O6sD+c6XB22VFQQhJ
vsBxb5TBV282Qf1yosCr4LPBBSJKQedhysD0qqfBKQxAQVY9tMAbGp/BN1ksQfxfjMBHaKvB0mfM
QCeKgEBVqZ3BD4OEQChXdED01ZnBu3sRQSiKJsDtSafBRgftQHZ7JUGNWbLBZyjCQJ2nJUGzPazB
Pd7uQFO3EkF6UrrBgIyfQOUzCr/1MJ/BT8S6QGw/EEGucKbBsJnnQIxn+kBYobTBhMyZQHmrNT9w
O6bBZaC/QLtFwr+pTaTBpErkQOpE2T7qwK3BHpi8QGxI+kCEWa7Bk57FQITfsj9+KKjBIKLqQIy1
UL9zp6bB2OSzQJ7YfEBKPajBfmK4QLu8c0BoKYrBotvBQMgkLUBF467Bb622QBDF0EBv2qfBJGi7
QDTHp0A1zK7B7SJFQf8IwcDy6bHB1lsxQSyplcDOIKHBadiGQIZxd0BX96TBJ9ytQDMffkAuj5XB
a0EdQTetWsC8Hq7BC6kDQZ1q3L+ASKzBieVBQDrFaUBQbpTB/mrzQJ5OgkCtn5zB5/YSQdNEKcC/
fZ3BKG5qQedZBsEbF5nB08xYQf7v5cCkG4rBCh9hQQ4u+8DO8KvBx8M9Qfx9rcBa643BulAyQU+5
msAPC7zBInnwQO2dNEEbwrbBkrQDQczhI0FQlKzBsJ7CQOqpMkGhUKbBteynQPNaKEF+87HBw+fV
QFHvFEEwbcDBoz0HQcWFEkHkML7BdoSrQJjub77nSJfBYnaAQIJ9hb9URZ7BOq3TQOwkDkHpT6DB
TSCbQDOPEEFVlqLBI+zmQMCv4EDmorrB5AYBQTS79EAuAK/B2/KLQIrL0z7T963BSSKEQEwatT+s
MqLBQzvFQNjLFsAuyJ7BIC6yQGgw87/m1qvBlKnWQAu39T0/frXBpqcBQdrhaj/OEq/BBBOiQD1F
/UB2FrTB8UzTQB561D+oU6DB8x35QDC7AL9tCJ/BOLqaQPNgc0AEbIXBcn7JQFXvNkCm/IjB1dDM
QLqQlECKjYfBoDrhQP+jOkBKgbLBIBiqQIShIkDOPrXB5+rOQDvsz0DSeaHB4omWQPn50ECpQ6TB
w+nbQLrnpkC0KrLBpuOjQHEJqUB9VrXBQpJbQBEwdkBP8KnBVJEaQbKsUsBT8bXBy38DQZZ72r8q
SLTB/EhDQJQNaECIb4zBh0EKQO9sY0C5TZjBkV9rQTOp08A2xJrB+WtkQaJvtcD5JJPBRlpgQecy
2MAbiqTBFWxSQaCem8DBRJXBmqMyQRsgqsAnCLLBl1ZOQWV+vsBRt6bB5lRHQRQBoMDQB5/BjZgr
QU3Ji8BFb6rBfmPTQElyekAkQp7BiimKQM5Kf0ClEpzBYagPQb8IKMBE8abB3u2jQLyWH0EO8qXB
Dh+QQGDPDkFcj63BKPTJQFE8FkGMmp/BoLaVQKK73L4t7KDBDVWyQCL/BEGhFbXBFx7sQA01DUF1
TafBfoeXQI+xUT8cF6jB4mCzQBY1xL/IQ6XBMb3iQIA6dT4W5K3B+YzZQB/R90Ay6q7Bq0DGQK2X
qj/gAKnBBHbhQDbLgL9FqqbBVca+QLEvfEArXqnBXra3QHmYckB4TIvBDCPKQOg9KUA2vK/BBQbO
QCobz0AueajBws7MQFqlpkB5sK/BKtdDQbP8wsACF7DBMBs2QcI7h8CRB6HB67KQQMC6gEC+GafB
khKyQDAqf0CB4JbBP6QZQZPLZsAcD63B3ZH7QLEbA8AclKvBgNFIQH1/fUA7gJfBDsD5QGTNc0BY
VJzBSwMWQf0PEsDSDZ7Beix5Qe5g58CoHJnB1OdsQcoPssAzqovBYLZlQVtg78B6XKrBlyBNQdd8
hMCza4/BTyAqQWR2rcAVgbnBezuvQCNKLUEZsarBXUaLQHb+JEGYRqDBhqOBQP/yAUElxKjBtIZu
QNmQFkHGb7LBklvYQLTtIkFQr5rBZ1m+QBtOCUHUYprBSOWfQAx7JL4OyJjBulZpQJYoT7/NtKDB
FYKjQD3h70ArrbnBlou9QLN+EUEgnLrBLQH5QMhpGkFtJazBrwUDQbYHBkHOjaLB+4iLQPmTED8I
HLDBMGSDQGLYzT8yl6TBPaezQGUTGMBxnZ/Bpj6nQCbv779sD63Be9vWQFaMprzT6LXBy+oBQVM8
Gz9jf67BQF3yQKlc70CjybTBs/bRQG0Fxj884qDBfHHuQP5nPr9vwp7BeaiYQDOXeUCrP4fBLYDE
QPwbMkAezYnBNzXOQGdXkUDwL4jBvkrrQCzLLkC6m7LB/Fa0QFxiJEBHnrbBliHmQExiykC4K6LB
U1yuQCGK00C8yqTB5/HsQFQyoUDVArPBngW2QJ4brECjQbbBMj1zQIf0gkA2nazBnCUTQQNlcsCf
ObTBUf7yQN60F8DU17LBJTREQLrVe0BBho/BGdkTQPTKfUCW/ZvBIChnQRtu38AszJrBBx1aQebB
0cAxQJLBNv1hQQbv08BIY6XBFedHQeNauMDaQZTB91I5QTEOmMAMfLPBO8RPQRKuusAZdafBsqxC
QdybrMCQ1Z7Bp30sQUVKicA/9arBdCPQQGKAdkC6TZ3BLuaGQFHOeEC1FpvBlYoPQZNHKcA696bB
4q3HQJsWKkGOzbDBcf22QMdtGUH16rjBn+DuQK6FIUEIp6rBEtyUQDiPA7+EpKDBOHysQAAGBEEW
Y7PBIRjkQN1RDEFrBKXBCfeVQLP6QD+LnqfBQSCzQNtqy79hJqXBW37hQJnSaj57fq3BfdPTQKL0
9kCnJa3B2WTEQFCzpT8Mc6jBLOzgQGGAhL8Od6bBlnK7QINSeUAMZqjBXKe0QAtRa0C/WorBjIrH
QETuJ0Bh+q7BfV3IQE3KzUAmD6fBKMHIQJPzpUA4fK7BhtJKQQYlsMBCorHB4E0xQToBlMDau6DB
PFmNQAiifEDJHKbBw9auQEc0eUB555XBqqcaQUBLYcBKka3BGZ/7QGkFA8DAk6vBWWFCQHlFdUDQ
gpbBHJP2QMQbcUCkZ5vBFscVQeCWFcAK+Z3BYiJ1QSTA8sBPOZnBpBReQUvD2sAFJorBff5rQcl5
3sC066vB3vQ9QULkrcCtsY3BdQ81QfXuj8CEm7vBgdvQQEq4OEE8H7XBdxOuQLHTLUF+D6vBb9aZ
QGeqH0EbvbzBK6fPQB6uFkFbC7/BR6YEQT/aHkHLT7DBNa34QGJiLUF5oaTBP+eeQFupg75gdpjB
1w9oQOEJab+Ve6DBJs6RQHBzBkHKxq3BkiejQJZx8EALfLnBIYIAQXEqBkFeDqHBQxXLQIA2D0EY
/57BuRyKQIAVAz8vra/BOWSBQHT9wj95AKTBv9qzQO2EHMBboZ/BoC6nQOSP9b9i/6zBqcfVQOau
jrzqjbXBKTABQUqvHT8jCa7BRpvtQIfn70Cl37LB+/jPQKx9vz8ETKDBK83tQPdKSb9ahZ7BDJOV
QCDMcEC3R4bBTvbBQDwPK0AN/ojB9sjKQA7ajUBXJ4fBxKPoQG8eL0DO1bHBJcmxQPhnI0B137XB
usnfQEj0yEA7mqDB0zKoQARY0UD9mKPBqzzpQMSioUATs7HBaT+yQF9Lq0BBHrXBpGhsQLl6gEBN
nKvBkDoVQRfnZsCLD7XBb7LzQHwzFcDC/LLBauA9QD1+ckDTiY7BEF0NQJhadUAD/prBMbFkQej4
1sBatpXBwxZbQYMXu8D9QI7BxjxdQUhm2MB1WaDBoPtJQRyKoMCCZ5HByK40QcfapcD/rLDB1yJM
QWjvvcBNjqPBsnNCQb/UocBHCJzB3/8qQQneicDbPanBcdvVQI9bg0B/h5/BHhyPQLwScUAzF5vB
sjAOQSafJcA7IKfBtnnMQC1cH0GUPKLB5GieQGh3FkHjy6HBz0/sQCGPDkGvlabBqFWQQI5F675R
zaXBaEmQQI0mDkFE5azBoMfdQFz0BUGCnbHBmjSWQJIIWD/GH6zB4TmxQCivwL/abanBgfbkQGUt
vT4dkK7BF1SvQGz3+UDbarHBCVPEQOI6tD9ri6rBVCvfQA5rdL8AbajBaB28QPOXf0As6anB96fE
QMONeUBD04vBaijLQDqcMECfh7DB842rQLJB0EAtyarBOkfAQKxyqUBIlbDBzw1FQVttv8Bkwa3B
0xQyQatZiMDSAp/BOtKPQEN2dUDwNabBiH+4QAJ2gEDrKZfBLCoaQf/XYMAT5azBsbj8QEc/+L+h
3azBFkxZQDDlYUANbJXBr8f8QCxzh0DDxJ7BGz4RQSQpFsAPnJ3BkspxQUhI68DFRJPBJdpgQSgV
usDLHIbBXKFkQWPG7cBKC6bBlqVCQYE2i8ARrovBVeUuQVfKpsBC0LjBGAfNQEt4LUGwfqfBPVrW
QP4KJEEGH5rB4iKdQCU8CUGfAJzBj4iIQMNFI0GxPZ/BngQGQav/FUEGbKfBvETuQKMmAUHA56DB
aLyUQDhDg75COZ3BicFfQN5NWb8nLqfBVGZgQPsPB0GiKqzBAiOPQBy3G0HNfrLBTlTfQOcTE0Fj
d7fBnqfzQIUi8kBHEbTBeNyQQIkgJT/mrLTB16l9QHEWyz9BTKnBlheuQOrIGcD9ZqTBywOrQNuJ
4r8g1LHBse3fQH8HRj5kKLfBUMkCQS72Pz+PQK3Bp8GlQNzb8kCAsrnBJZzJQKyDyT9Z8qHBlF3m
QFPlSL9x65/BEqKnQMcCdkCZ3YbB2dnXQAxJP0B6qIrBh5XXQMvtmEAWeonB83PtQHXbN0AUS7LB
pgG5QF/dLkD9ELjBpLS7QNz11EBJDqPBX3uJQIhVyUCYaanB6WfiQFA6sEA16rHBV0OwQGTKpEAk
VbjBTzNsQB82ckDm86rB9DkWQazJZ8CWmbTBhd/5QA5cCsD7obTB86JcQHfMYEAkb43BEmAhQIhp
V0DYFZnB

>  <OMEGA_E>  (15) 
2Fu5PrCkwz7M/8Y+/EK2PsaaND+MYSw/VE0sPxCtJD+OsBY/CqAVPw==

>  <OMEGA_NBR>  (15) 
     20764

$$$$
50253354
     RDKit          3D

 78 82  0  0  1  0  0  0  0  0999 V2000
   14.5136   -6.0788  -18.8099 C   0  0  0  0  0  0  0  0  0  0  0  0
   13.9954   -5.0637  -17.9791 C   0  0  0  0  0  0  0  0  0  0  0  0
   13.9155   -6.3542  -20.0528 C   0  0  0  0  0  0  0  0  0  0  0  0
   12.1756   -5.8969  -21.6875 C   0  0  0  0  0  0  0  0  0  0  0  0
   12.8786   -4.3140  -18.3899 C   0  0  0  0  0  0  0  0  0  0  0  0
   11.0593   -5.1443  -22.0503 C   0  0  0  0  0  0  0  0  0  0  0  0
   12.7925   -5.6178  -20.4601 C   0  0  0  0  0  0  0  0  0  0  0  0
   12.2723   -4.5920  -19.6270 C   0  0  0  0  0  0  0  0  0  0  0  0
   10.5974   -4.1398  -21.1832 C   0  0  0  0  0  0  0  0  0  0  0  0
    6.7062    3.8721  -19.6165 C   0  0  0  0  0  0  0  0  0  0  0  0
    4.4449    3.6227  -19.3013 C   0  0  0  0  0  0  0  0  0  0  0  0
    8.8321   -2.4524  -20.9203 C   0  0  0  0  0  0  0  0  0  0  0  0
    6.6700   10.5084  -22.1337 C   0  0  0  0  0  0  0  0  0  0  0  0
    5.2296   10.1126  -21.7629 C   0  0  0  0  0  0  0  0  0  0  0  0
    7.3753    9.3838  -22.9153 C   0  0  0  0  0  0  0  0  0  0  0  0
    4.3929   -0.5066  -21.1307 C   0  0  0  0  0  0  0  0  0  0  0  0
    5.2204    8.8099  -20.9572 C   0  0  0  0  0  0  0  0  0  0  0  0
    7.3555    8.0657  -22.1282 C   0  0  0  0  0  0  0  0  0  0  0  0
    4.7318    0.8626  -21.7306 C   0  0  0  0  0  0  0  0  0  0  0  0
    5.4586   -1.5218  -21.5234 C   0  0  0  0  0  0  0  0  0  0  0  0
    7.1926    0.3392  -21.6793 C   0  0  0  0  0  0  0  0  0  0  0  0
    5.9027    7.6826  -21.7539 C   0  0  0  0  0  0  0  0  0  0  0  0
    6.1329    1.3423  -21.2520 C   0  0  1  0  0  0  0  0  0  0  0  0
    6.8408   -1.0215  -21.0957 C   0  0  2  0  0  0  0  0  0  0  0  0
    6.0267    3.8892  -20.9822 C   0  0  2  0  0  0  0  0  0  0  0  0
    5.9143    3.5919  -17.2403 C   0  0  0  0  0  0  0  0  0  0  0  0
    6.5069    2.7125  -21.8513 C   0  0  0  0  0  0  0  0  0  0  0  0
    5.8657    6.4189  -20.9005 C   0  0  0  0  0  0  0  0  0  0  0  0
    6.3172    5.1984  -21.7223 C   0  0  0  0  0  0  0  0  0  0  0  0
   11.1977   -3.8799  -20.0000 N   0  0  0  0  0  0  0  0  0  0  0  0
    4.5985    3.7895  -20.6718 N   0  0  0  0  0  0  0  0  0  0  0  0
    5.6863    3.8079  -18.6741 N   0  0  0  0  0  0  0  0  0  0  0  0
    9.5140   -3.4187  -21.6128 N   0  0  0  0  0  0  0  0  0  0  0  0
    7.7808   -1.9535  -21.6206 N   0  0  0  0  0  0  0  0  0  0  0  0
    3.3089    3.3514  -18.7122 N   0  0  0  0  0  0  0  0  0  0  0  0
    7.9129    3.9045  -19.4012 O   0  0  0  0  0  0  0  0  0  0  0  0
    9.0913   -2.0935  -19.7734 O   0  0  0  0  0  0  0  0  0  0  0  0
   15.3742   -6.6477  -18.4901 H   0  0  0  0  0  0  0  0  0  0  0  0
   14.4577   -4.8614  -17.0243 H   0  0  0  0  0  0  0  0  0  0  0  0
   14.3181   -7.1278  -20.6898 H   0  0  0  0  0  0  0  0  0  0  0  0
   12.5547   -6.6740  -22.3347 H   0  0  0  0  0  0  0  0  0  0  0  0
   12.4891   -3.5293  -17.7583 H   0  0  0  0  0  0  0  0  0  0  0  0
   10.5555   -5.3314  -22.9871 H   0  0  0  0  0  0  0  0  0  0  0  0
    6.6437   11.4152  -22.7557 H   0  0  0  0  0  0  0  0  0  0  0  0
    7.2343   10.7123  -21.2117 H   0  0  0  0  0  0  0  0  0  0  0  0
    4.7780   10.9141  -21.1599 H   0  0  0  0  0  0  0  0  0  0  0  0
    4.6445    9.9725  -22.6838 H   0  0  0  0  0  0  0  0  0  0  0  0
    6.8598    9.2362  -23.8758 H   0  0  0  0  0  0  0  0  0  0  0  0
    8.4195    9.6757  -23.1007 H   0  0  0  0  0  0  0  0  0  0  0  0
    4.3531   -0.4249  -20.0345 H   0  0  0  0  0  0  0  0  0  0  0  0
    3.4151   -0.8390  -21.5094 H   0  0  0  0  0  0  0  0  0  0  0  0
    5.7612    8.9644  -20.0118 H   0  0  0  0  0  0  0  0  0  0  0  0
    4.1803    8.5237  -20.7421 H   0  0  0  0  0  0  0  0  0  0  0  0
    7.7930    7.2678  -22.7463 H   0  0  0  0  0  0  0  0  0  0  0  0
    7.9477    8.1836  -21.2088 H   0  0  0  0  0  0  0  0  0  0  0  0
    4.7320    0.7858  -22.8280 H   0  0  0  0  0  0  0  0  0  0  0  0
    3.9726    1.5931  -21.4143 H   0  0  0  0  0  0  0  0  0  0  0  0
    5.2487   -2.4808  -21.0272 H   0  0  0  0  0  0  0  0  0  0  0  0
    5.4435   -1.6623  -22.6143 H   0  0  0  0  0  0  0  0  0  0  0  0
    7.2201    0.2751  -22.7771 H   0  0  0  0  0  0  0  0  0  0  0  0
    8.1766    0.6588  -21.3058 H   0  0  0  0  0  0  0  0  0  0  0  0
    5.3341    7.5073  -22.6790 H   0  0  0  0  0  0  0  0  0  0  0  0
    6.1265    1.4200  -20.1548 H   0  0  0  0  0  0  0  0  0  0  0  0
    6.8946   -0.9796  -19.9978 H   0  0  0  0  0  0  0  0  0  0  0  0
    4.9492    3.5821  -16.7124 H   0  0  0  0  0  0  0  0  0  0  0  0
    6.4234    2.6283  -17.0912 H   0  0  0  0  0  0  0  0  0  0  0  0
    6.5414    4.4034  -16.8426 H   0  0  0  0  0  0  0  0  0  0  0  0
    7.6013    2.7686  -21.9466 H   0  0  0  0  0  0  0  0  0  0  0  0
    6.0472    2.7991  -22.8468 H   0  0  0  0  0  0  0  0  0  0  0  0
    6.5386    6.5441  -20.0394 H   0  0  0  0  0  0  0  0  0  0  0  0
    4.8387    6.2541  -20.5425 H   0  0  0  0  0  0  0  0  0  0  0  0
    7.3988    5.2722  -21.9083 H   0  0  0  0  0  0  0  0  0  0  0  0
    5.7796    5.1941  -22.6820 H   0  0  0  0  0  0  0  0  0  0  0  0
    3.8545    3.8342  -21.3386 H   0  0  0  0  0  0  0  0  0  0  0  0
    9.1841   -3.6202  -22.5351 H   0  0  0  0  0  0  0  0  0  0  0  0
    7.6592   -2.2600  -22.5646 H   0  0  0  0  0  0  0  0  0  0  0  0
    3.2716    3.2571  -17.7174 H   0  0  0  0  0  0  0  0  0  0  0  0
    2.4778    3.2383  -19.2567 H   0  0  0  0  0  0  0  0  0  0  0  0
  1  2  2  0
  1  3  1  0
  2  5  1  0
  3  7  2  0
  4  6  2  0
  4  7  1  0
  5  8  2  0
  6  9  1  0
  7  8  1  0
  8 30  1  0
  9 30  2  0
  9 33  1  0
 10 25  1  0
 10 32  1  0
 10 36  2  0
 11 31  1  0
 11 32  1  0
 11 35  2  0
 12 33  1  0
 12 34  1  0
 12 37  2  0
 13 14  1  0
 13 15  1  0
 14 17  1  0
 15 18  1  0
 16 19  1  0
 16 20  1  0
 17 22  1  0
 18 22  1  0
 19 23  1  0
 20 24  1  0
 21 23  1  0
 21 24  1  0
 22 28  1  0
 23 27  1  0
 24 34  1  0
 25 27  1  6
 25 29  1  0
 25 31  1  0
 26 32  1  0
 28 29  1  0
  1 38  1  0
  2 39  1  0
  3 40  1  0
  4 41  1  0
  5 42  1  0
  6 43  1  0
 13 44  1  0
 13 45  1  0
 14 46  1  0
 14 47  1  0
 15 48  1  0
 15 49  1  0
 16 50  1  0
 16 51  1  0
 17 52  1  0
 17 53  1  0
 18 54  1  0
 18 55  1  0
 19 56  1  0
 19 57  1  0
 20 58  1  0
 20 59  1  0
 21 60  1  0
 21 61  1  0
 22 62  1  0
 23 63  1  1
 24 64  1  1
 26 65  1  0
 26 66  1  0
 26 67  1  0
 27 68  1  0
 27 69  1  0
 28 70  1  0
 28 71  1  0
 29 72  1  0
 29 73  1  0
 31 74  1  0
 33 75  1  0
 34 76  1  0
 35 77  1  0
 35 78  1  0
M  CHG  1  35   1
M  END
>  <OMEGA_C>  (16) 
vDdoQeyFwsCpepbBF+1fQb4JosAn1Y/B1aVeQfhVy8ASbKDBLM9CQdCzvMD9f63BlA5OQW4MisB1
HpPBCvMwQXyepMATZ7DB+61MQWzFs8BJrqPBPFtEQdjxksArBJ3BFI8pQXZ5hMBHd6nBZpnWQEjQ
d0CH7pzBAD2OQOnZZ0AmaZrBMFANQZ30HMDNXKfB3XDVQDkiKEG7EbHBzFinQBnNIUFrGq7BPQLs
QAMkFkGVUrfBvJKMQKCtAb+3C6nB4w2nQDv1DEFEqKfBeGDrQAcNAUGhBrHBqGqXQPzRXD9Z2K3B
CK2uQEDKwr//L6zBeSnmQEStrT4vb63BvuK8QCjY9UDjB67BpEDEQGDRqz8hBKrBOOjaQK/Bgr8S
xKjBitrAQBHoeECc26fBtEG9QMzhZUAh7InBrTjQQEyaLUBmz67BzLO7QJRnzUBKNKfBQSbKQPxY
pkBCx63B1CkzQfFQeMDp/5/BsSaTQJqGckDlX6XBGPa1QFm0c0CUZJXBgTkYQUjMWsAX56zBaPz4
QLEK+r/z9qzBxsVTQNt8VkCYspXBiDb9QNDieUCtNZvBGnYRQW78BcDbL57Bj/x1QbG51MCk65PB
4lJnQUCQm8CrMYjB6hZlQT0X5MDMhKXBEOBIQYOR1cBorbLBQNNHQVvfYcAMEY7BZeMoQYSaqsCj
5bfBepnUQLSkNkGmC7bBJH/nQMZlK0GMsanBVOWYQCugLkF5R6nBkZ+UQFqPH0FieLXBFIPbQKDH
E0GVAb/BULYGQZXPGkFGzrjBmkyLQCGH2b6eRqDB/pBaQKHGVr83E6zBk1u4QAhuD0EiGKDBF8WF
QEJhCEHW76XB+V/5QM+R6EB5+LXBxVP+QALwAkGWq6nBTGyXQOUoST+mn7bB0z9+QE3ryz+TUKvB
APWnQJHFHsDIN6jBUjGuQMDH1L8e6rTBcgvnQH7bjD5yN7bBbNMCQUupKD9RcqrB87CqQKY78ECr
brXBZQzEQF/CtT/9PKHBQ6DcQKvJer+Y+5/BOmCeQEVBZUAUs4XBsYzNQCw2KEC7uojBH1PRQJro
jECMvYbBND7zQC4wMUC5kq/BnILBQJgkM0BTxrbBzjvRQEtp0UCkUKDB1daaQJwhyEAWV6TBH8Ps
QHe1qEAoRK/BKvK4QAo2pkCndLXBqrB2QAtkdUBjtarBDfISQYmxZ8DZR7TBCxj1QFOjEMBkhLTB
l2JRQN9zUEAnvY3BxJQeQM0/T0CuDZrB0Y1lQcdk68DPt6bBTNZZQTae9MDQFLDB19xfQRRnyMCr
O6DBHtdHQbsUjcCKeZzBjWhIQX3I2sAOCbPBye01QWamasAcfZ/BlzFOQTIUr8CjC6PBmXtCQc84
uMBDgKzBQdcqQZicgMAh/qjBWW/YQBORc0B99ZzBb++PQFS0Z0CnPJrBv1IMQUgQHsBudKfB6o3S
QM0EKEG1kbDBugikQMbKIEHZxq7BJO/sQGV9FkGGMbbBZ1CLQMWVBb+N9KnBYbaiQHXfC0HpZajB
B2HrQK9gAUFu6q/BrgCXQBk4XT9CVq7Byu2sQHI9xb+GWa3B2mTlQOxtlD5tFq7BlW68QIai9EDz
La7BdjzEQHj+pj+ocarBR/XYQAofib83oKnB30TCQD9OdkA51qfBxIe/QNPMZUCr1YnBjS7RQAaf
K0BF9a7BU+a5QFEGzEDTbKfB4XfLQH5gpUCbq63BVlwxQTH3oMCnQ6/Bpq+UQCPTb0C9PKXBTH+4
QF2cZEB6cpXB+hAZQd4uV8DvvazBD233QDUZAcApea3BHhtWQJvfYkAjVJXBJ/v+QENUeUCvRZvB
0Q8OQRH3C8BV8J3B0/hyQTZO/8CDg6TBEUZeQYLPB8ED/7TB5gZpQQ0VwcD6I5nBnpJQQat0hcBa
RJXBzqA/QTx54cBXSbrBBJMwQfd3NcCoqZrBupvSQOWCNkHyj7XBQULhQNidK0Fex6jB38aSQBJH
LUEmUqrB9oaUQONMHkH1k7bBmtjfQMHUE0HvQL7BPzIHQTTPG0E907bBTOOJQGii9b5AK6HBIdVX
QMS/Ur+OHq3BopewQJCWDkEGbaDBy0WBQNqkBkFSjafBA3L8QKbY6UBRcLTBrOb6QCOhA0EjGajB
y8iWQGJKVD/iIbfBImN+QJE+zD8BjavBu5qlQJcCIcAYtanBos6sQBur0b+EHbbBNSDmQLYDfz4v
4bbBpJQCQTCwEz9bEqvBaq6tQHWB7kBxBbbBtSjEQNFPrT8hp6HBs3TZQL3zg78p1aDBLjyhQDsW
WEDZsYXBQl/XQILsNEBmsYfBA0TLQJWkkkAdaofB+0H0QNgGLkDkoa/B7NLCQO0fM0AU8LbBW+PM
QNdw0EAXGaDBoE+YQArvxUA8R6XBa0fuQN4IqUADmq7BFU68QANvpEDFm7XBl4J5QIoNcUDIi6rB
ROsUQYT8Y8AKTbTB1Tf0QN9BF8B977TBhxhUQAdKXEAFYI3BPbcfQJfDZUCGh5nBJhBqQZAvtcBA
i5XBI6RhQWU6ksBVyI/BJv5fQZCEw8Af9Z7BTl9DQRw4vMBTEKzBTgZPQeAUe8D2YZPBYR8xQTQ3
psDrbK/BAXhNQYLErsBfnaLBQ/JEQR3Di8DcxpzBCHopQQz8g8BNNanB+O7YQC8KckDvYpzBbPOP
QImMZ0BpXprBmbIMQYEOHsCVsKfBxSm8QHU2JUGezLTBvRHZQEZiFEE5H7rBsIi+QMJsI0EdjqjB
LSeMQOzl6r44fqrB4RfMQCCI+0C3q7bBzMqxQCfyDEEZ4qTBSF2ZQKGVaT81267BItKtQCqcv784
bK3B/1bnQGbZoD5pgq3BZILNQDw+90APVarB2K7FQMi/qj88UKrBzb7ZQBm0hr8oWqnBIGrEQCFn
d0CUbqfBZvW8QHsIaEB7g4nBFNLTQI55LUCela7BAzG8QEkQzECek6bBFqjPQExNpkBWy6zBGFQz
QRjtbsCzHqDBCF+WQJWGckBAR6XB3763QP6wZEDpLJXB7rgXQaetXcBE5azBYaH3QOMUAMBQZK3B
qLhUQLOUYEAC2pXBoyL/QJsreUCOVZrBCHkQQXpaBcBdip7BwVR4Qa4PxcAAt5LBK4RpQdlWh8AB
l4jBentmQRBT3sAdV6PBJ41JQcbf1sAGnbDBlIFIQbTBRcCz9I7BJ/8oQfFdr8ACs7bBKLTGQHZH
NUHHPbfBqumaQPqpIkEUZLfB/B7WQLC7FUF03cLBm3n6QNZLF0HfwrfBVXXfQHzFJkEw7qXBZaCo
QPAsL0HI9aTBxSuJQHqezr5fvKHBbWhaQCTRP79t+63BI2WrQITx9EBte7nB/lHiQM1D5EAKPbrB
SPi1QG/QC0HqKZzBPgGQQCMqCkEP7KbB+USbQNalXD9TorfBjkWBQEVh1D95hKzByF6lQL2AHcCu
v6nB1fauQHv/zb8ILLbBSyfqQIS8kD4UR7bBWjEDQTl6Fz+uAarBZdLuQLvA+kDNoKfBcpzDQMeD
sD88iaHBGLzZQLXRhb9njaDBsQKeQAlPW0BjooXB+lfUQEBrN0Ay/4bB3XDIQNjwk0D4KofBRfr2
QKoLL0D1+K7BZIzGQG1HNkAJqbbB+7HDQCQnyEDhCJ7BzUaZQCy6y0D1sKfBcKnyQLzjqUCNBK3B
+wLDQM5fpkDBAbXBK4J+QE55dkC7yarBg0ASQdjjbsBbGbTBtIDzQIvXFcAZ2LTBNkpQQPtSWEAU
8I3BtasfQIWCY0DET5rBErVlQQOv6sBF7KbBfwZaQVif88CPULDBeeJfQfQYyMDyU6DBLNpHQWfQ
jMA5fJzBZXJIQdUC2sAuKbPBBu01QdMEasAZeJ/BBitOQRnKrsBUFKPBBmxCQXvRt8CAh6zBo8Iq
QWBVgMC/8qjBHPXYQKfNb0DozZzBMSiQQHjuZ0BjTJrB91AMQcQQHcDPdafBxai+QG1mJUGxl7TB
J8bbQHKUFEFS2LnBXPe/QBZaI0E1WajBPSOLQN0PAr/R/KnBBg/OQJTf+0AtnLbBiIayQBXaDEFW
3KTB29mWQKEfYT8GXa7BTK6sQJDzw7/LY63BgjXlQIR6lj60Oa7BajPOQCbm9kDQSKrB9TLEQF7Z
pz9vjarBEcbYQPUXiL+GsKnBKVHDQMdzdkBEtqfBDwS/QM+0Y0BCxYnBUS7RQOk7LEAjCK/BTde7
QMC9y0CPyabBTOnOQPXfpUAJD63BjTwxQYOqoMCeO6/BNHmVQLUDc0BKQKXBLHm4QBtjYkD7ZZXB
AAMZQe2JVsDytKzBHj33QJ3QAMDgeq3BSBtWQFQVY0AyfpXBIWr/QAd3dUAB/prBABYOQcaVCsAI
9Z3BVjNzQfF//sDJx6TBvJpeQeIcB8EFVbXB1vxoQR0TwcBpMpnB/55QQZs+hcDtSJXB8p8/QQCX
4MDaZ7rBa6AwQRLCNMA8pJrBuKDJQDV6NUEb5bbBPpqdQPIFI0F7X7fBHbHZQLsnFkEemMLBKv78
QFxIF0FfRLfBBbjgQIx/JkHJiKXBGfepQBwgL0HpzqTB1L6JQGra7r5jM6HBWGxXQA67Tr9YJa3B
WZetQFS79UCepLnBYGzkQACW5EBzHbrBwxi2QNOCC0G+IZzBjNGQQFlOCkHFDafBn1iWQBoeWT+u
KLfB7HN+QFFuzj+8gqvBMlGlQN9LIMDiu6nBL32sQDiQ0L+BJ7bBbrDlQCk5fj5bBLfBHYoCQWSe
FD+VRqvBz0vvQH+z+UDBXqfB3U/EQL3hrT+3wqHBIkPZQD/vgb8Z5qDBQGmgQJJfV0CptIXBJkPW
QDHzMUDTiYfBGErLQPdkkUA/WofBOjH0QCoELkD26a/BcRnCQH/BNEBW6bbBvrHCQKkox0BrO57B
cwGZQH4rzEDRC6jB4fHxQEgmqUAGTq3BGizCQAMtpkAKQ7XBYpt7QLDed0C1marBF9cUQQCaY8Bs
QbTBqufzQHm3F8BT57TB32RTQF2hWkD+kY3BYRYgQHHUZ0DqvZnB9UVnQXsjxMAr35XBTqFeQc0S
pMDnNY/BeSteQep4zMAK85/B0BJDQYHjvMDAWa3Br9NMQQQgjMDSmZLBBF0xQaudpMC0Y7DBMFtM
Qfa/tMCMWKPBj6JDQT11lMDwpZzBBYEpQfknhcB9YqnBh1HZQOIUd0BW95zBOV6QQFR7bEAx75rB
gSoNQZCSHsBqYafBPb2cQHzpHUG9bq3Bs3uVQH1oCkGZw7TBk0W5QGIaGEEc1aPB9/uMQA6n9b43
ZqnBv5DAQIu1AEHCabjBez7kQIbSDkHAsqfBO36YQGm8Zz+j263BvNKuQJRAwL8lpKzBCQnnQPyC
qT4AcK3B1e7dQNvO9UCD0a7BkIrFQOG5rD+Z/6nBzwDbQDTyg78k9KjBAMLEQOg7e0BhBqjByZ69
QIRlZUCQHorB5WrSQL1oLUAT0a7Bo0jMQH3qz0A9EKjBrQjSQHjjpUDhTq7BZ5QyQecXe8AQwZ/B
KbyWQNjhe0ADyaXBKzW4QAHDZ0B6yZXBOkQYQb35W8Dz6KzBjR75QAPd+7+bFq3B+sdVQH0JY0CI
apbBf7D/QIQDekD59JrBF98QQeYHCcCAGp7Be/R0QSpk1sBsOJPB2rRlQRbkncA0e4fBe9lkQZX7
5MARC6XBOHdJQQFN1cCUkLLBzUFGQUDzZsBsg43B98YpQavvqcCdCbjBJEysQAixKkFIEbLBCjt7
QD6bI0HBd6rBFDyDQEVn/ECwXLDB1TiDQCh5D0Ef2bvBq1i/QCySJkGiDp/BysmoQIYjDEGH3Z7B
2EuLQCfC2r6UnqDBRHNbQG0sSr+mmKzB9yC6QLM45EDGDr3BwDjRQFhqDEEff73BlEb1QCgjG0Hk
UqzB23/3QHhRCkEvr6DB7UGYQD0pXT/MprbBn5+AQPR80T84GqvBoHSnQJkcHsDX5ajB1MquQNqW
zr88ZbXBHTToQDS+jz4zObbB7UkDQfQwIT/IWKrBFVj9QI9d7EAoA7LByV/FQJW5tj+DOKHB4Ajc
QKFCgL8VKaDBu5meQNUlWEDJTYbBTofUQMy6MkC+/YfBS8zJQL3FkUCfUofBFHL1QHa1LkCMq6/B
zHrDQEEvM0CSwLbB6+PdQMT9zUBkdaDBSxaqQCcY1UB6babBmvzzQKvGokDcfrDBMX++QBGhp0CD
nbXBV0R/QOvkgkBELqvB+DkTQcNWaMD/V7TBEJf1QFUyEcCDqrTBE8lRQB1AV0ChkY7BV38gQDCb
Z0CIz5rBXiJmQbxY3cCdAZnBjfJcQSIqwsDxQpHB1EheQXpZ3cBWk6PB7y9FQXSuwcAI6LDB7N5L
QajkpsD3DZTBkTM0Qc0MpsC8VrPBVjRNQUQZwsDdZqbBMupDQfmwpsADnZ7BuZwrQYyJi8D+RKvB
ICTSQFvPd0Cx15rBeVaIQDNIeEDHuprBWYMPQeCNKMBYtqfBGJa8QCTEJkENerfBoIXXQKiLFEFp
VLzBiSC/QAyKJkHKJ6vBLKqUQHyl3r78xqPBipvJQHpL/UCW5rfBQOewQF28EEE4qKbBuOWaQK/G
az9LWKnBC8WzQAguvb89VqjBd1joQOcDwT5jIa3BxcPLQMpy/EAjdqvBGvPJQJQctD8ZGKjBkVri
QKDner9Cj6fBkJXCQJPff0D4ZqbBRhCuQIYuW0CxGInBrD7SQGcSM0BsTK3Bo6W6QNPy0UBW3abB
AzLSQDtXqkBzfKvBJIczQZxOjMC6JqHBV8OTQO9PgECEc6XB9p+tQM4adEBfdJTBJ7caQYKNYcAm
Kq7BuT/+QJ7D+b8Hv6zBq39BQCc3dECZTZfBHFD3QFPvbUCK7ZfBAKQTQZzMHMCQNp7B5jVzQcYz
8sCW1ZbBNwJjQTs9wsCjK4nBi1VlQRIu8sAlgKnBxPdLQY411sBm+bbB4d5EQVIgksDaGY7B47gt
QQIOpcA3WLvBjLLIQIUwNkGUcbrBXwabQLTEJEFs77nBK3DTQIiUFEH+EcXBgGr5QI81F0ETXbrB
O1TgQL+qKUG1r6jBZiCqQIweM0G88afBF5yaQJvpor5xJ5vBujhnQDIsR7+jDKXBAouoQB7I9kA6
cbrBOvLeQL5q5EArHLvBIPC0QJrPEEFJ6p3B7PuOQGwpDkFAoKjBWWGTQALsUD+d5rHB3UKFQHeb
1D9wuKXBsZGwQG92GsAIx6PBt9SrQB/o1L/qx7DBqhLhQEmJjD6Qs7XBr9AEQep7Nj8UJKzBYU3t
QCM6AEHW+6jBOzPRQAKUvT/RgJ/Bcg7rQJfVYL9iEp/BBUuNQIhiXUBL5YXB4sO6QEPQGUDdU4jB
2HjCQPDbg0D6k4TBNOD0QBcWOkCkm67BtofBQLIpNUDoCbXBZte+QAJG0kCvIJ7Bm2WYQFBQz0AK
yajB7q70QKzNrUDa86nBj4fMQP3+qEA1KrTBIYN+QBogg0BejavBsBcWQUmIZMB70LXBwVL5QDvO
CMBTgrTBMZY1QOdzbUAOfY/B+AARQCfgd0DogJzBFIlmQQU438DEmpnBoPZYQTix0MBdW5HBkhVi
QQmd1MCvVKTBAkxLQZblsMDHerHBtfFGQYdWt8BfzJPB0Cw5QTLhl8CUlLPBLwlQQRZiu8BBz6bB
dWNCQWtvrMBPg57BHW0sQYlCicCsA6vBnTfQQEd9dkAEUJ3Bg/2GQFK9eEAYEpvBIYQPQQsfKcC6
BKfBe6fHQI4XKkGLzbDBRO62QLpuGUGd6bjBn+DuQCyGIUF/qarB3t+UQNGLA79UpKDByXCsQIYH
BEH+YLPBMB3kQDVSDEFyBqXB0POVQA8YQT8fnafBwRqzQNVhy7+VKqXBXHLhQF94az56hK3B8M7T
QKP29kDMJq3BSmLEQCvApT+WdajBM+LgQH5vhL9AfqbBUHW7QGNWeUBYZqjBFNa0QKIza0CrWorB
44HHQML2J0Bh/K7Bt13IQKjLzUAUEKfBvbfIQPP2pUCVfa7B4RYxQRrTk8C9uaDBamCNQK+jfECI
GKbBCPWuQHwjeUCs5pXBaZsaQYcnYcDSn63Bhon7QKv1AsC7navBTJ1CQFAidUAbe5bB8Kn2QK8T
cUB8bZvB88YVQVNUFcBxCJ7BE1x0QaF/8sBNspfBgGBcQZQB2cBpJYnBCnlsQQfI38A3parBd2hV
Qfbiu8DI7LfBWZw8QYw+rMD6c43Blfw0QdXTj8Cqt7vBOtHQQAG5OEHvH7XBOhOuQBrVLUHXDavB
EcSZQLOrH0EZurzB9JHPQFiuFkFzC7/BcKMEQdbaHkHtU7DBbbP4QJZiLUFupKTBLvieQHn7g77Z
dpjBMRZoQCv1aL+3eKDBFMqRQMd1BkGZwq3BHBOjQAR18EAtebnBpoYAQTcqBkFvEqHB+yDLQNQ2
D0Fl/57BNg2KQIFXAz/nqq/BmWeBQCMJwz9l/KPB4tyzQBSJHMD4pp/Bnh2nQKht9b8EA63B5LHV
QLgAhLxbk7XBhCoBQTG/HT8BEa7B6Y/tQNTp70C64rLBjwLQQO58vz93T6DBhc3tQONQSb9JjZ7B
MMeVQGelcEDcRIbBQSnCQDTyKkBKAInBUPrKQB3LjUBKKIfBgJfoQLIkL0B/2rHBKbexQCt3I0Cv
37XBo9DfQE/zyEDKnKDB6DaoQAla0UC6l6PBRC7pQHqooUDGt7HB7yqyQIFOq0BIHbXBd2ZsQMGA
gEC+lavB4i0VQdm2ZsAkHrXBKY7zQK8vFcBLBbPBgDI+QEVLckADgo7BxIwNQGE5dUAJ9JrBpk9t
QWd14sDxMrDB/aBjQahF3sCMVbrBe6ZjQU4B0MBoHqfBdWVGQe3fpsAPM5/BqkJQQbuSx8DBbbvB
bjUzQXJqkMCgnqDB60hQQVo/ucAzL6jBA4JGQa7rtMA5YrLB+noqQThZjMC0CqvB2kzRQP0sgUCY
SpvBckGIQNpjcEDNKZzBqnUOQeh6K8By/qbB8OLRQB6BKkGDZ6/Bqh2mQPaCIUEs57LBfBX2QIU1
GkEheLHB8KSRQBcow76ZK6PBGMKcQJ80DEHgN63BfunsQEa+BEGg3qvB086cQHVCYz9qTqnBsVeu
QHvGwb+q+abB9LbpQObiUD57AKvB69fAQPR890DFWa/BGP3LQHgQqj/d86bB+OTdQNxakr/7qaXB
A5vEQCgzfEAUFqfB1H6pQLXjekAsrYnBO9HYQL5aK0CKbazB9EO2QItSzkBcOanBQyTRQEt7p0Cy
Kq3Bif8zQU0In8AVlrPBXeCVQO+WdkCfv6bB3AusQHeydEAAZ5XBHI8XQe5ybMA7D63BxBT2QADf
DcAFp6rBj6dAQAC6ZED1S5nBz2/1QPAIh0BqwJfBub4XQYPBB8Bekp/Bxyh8QXTX88AFZa/BzhFr
QWp97MBjRsHBQRBrQeBI08CAW5/BsHJNQZYAqsC3WZfBTuFIQf51xMDEM8PBQCMrQSlUgsAT15nB
Po3YQP40OUEI8rPB1MXQQGQ6LkHezqbBafGMQLYeLUHe3bDB3mKmQDHeHkFZmrvB4eH4QPd0F0H/
IbrBWC0KQQLEIEE6Zq7BraCWQKuOXL58j5rBZOxfQCPMJL9coKTBQlWaQKYQD0FvjqTB5Y58QOS4
BUFXMrDByQYDQe9i8kDLAq7BCePsQCs1B0EFKKPBJTuZQOobMz8z7rHBo+WGQCWy2D993qbBa3+n
QCWbGsB4PKLB/r6nQGSH27/ad6/BiU3mQGIS4D1KurPBZIcFQZa66T6aCKnB3dfBQHVm8ECA97fB
MwTQQIyJtz9EQJ7BgIHlQHIEi7+dFZ3BnpaIQP0ybUAMEIfBAoG/QCs8TECcDIbBYH+yQH/vnUCy
JYfBdNr7QC2VMUA5F6zBN2zOQAscKUCt1LTB19e8QNN/00AvraDBuR6UQHH9xkD/UqrBTEbzQBkj
rkD+zavBPHTLQAjFokBYxbXBqqWCQNgfd0CGJK3BZ5QPQbd7fcCdqLPBCbPpQF92KcBkLLHBys8x
QGbQXUAdkJHBtZQSQO29YkAC2J7BAl1eQcMf88ApipnBMOVTQUIt3MBXW5HBN6tZQSp+6sCGWqTB
QJZFQanYwcCpurHBhrBEQbCEvMC39JPBkVc2QQYsosBm9LPBt3ZKQa3XysB0/KbBLOM/QS+us8Dv
wZ7BllUsQVs5jMDFcqvBYmPMQPeHgEASr53BxYOEQI46dEBC1pnB5HYRQZFEJsARVqfB6NLsQKF8
JUH8XrLBVfrBQOekJUHuP6zByaTuQFO6EkFBWbrBl5CfQEFLCr9SNZ/B45+6QPM6EEEEdKbBP23n
QL9q+kCUqLTBZcSZQGaWNT+3PqbBoqG/QPU3wr9LVaTBUjbkQPLe2T5Gy63BXXK8QBpD+kDjXa7B
MZLFQC3psj8oL6jBwJjqQIpEUL9vsqbBI9SzQAPTfEA0QajBzHe4QK+Zc0DLLYrBxcXBQF4oLUDX
6K7BlJS2QHG/0EDH3qfB9027QN3Dp0C40K7BJTwxQZI6lcCcGqHB78uGQM1gd0Df96TBRuGtQAUP
fkB6kpXBSz0dQbpmWsB/Kq7BxKIDQRUO3L8YVazBx/ZBQBmTaUD4a5TB3GfzQFNPgkCYqJzBSfIS
QQ7gKMCiiZ3B1/9pQcStBcEKhJfBJYlXQQrf4sAEFInB7LJhQaQU/MBAnarBoWpNQQj40sDdIbjB
ybQ8QdYBq8C9qo3Bb0YyQeOZmsDKIrzBTzzwQFmgNEHfxrbB5p0DQQnjI0HAm6zBOXXCQG2lMkHo
UabBt7enQOZYKEGn87HB56XVQPLxFEHZccDBdB4HQbOLEkE1Or7BJZGrQJRscL4BTpfBcn2AQH2Y
hb+cR57B243TQIsgDkGFVKDBqf6aQOeHEEEvmKLBP73mQNK04ECeqrrBH/QAQafA9EBOCa/BjOGL
QGul0z4X+q3BVx2EQJsEtT/pM6LBO0rFQNvEFsCt0J7B3iayQMAn87903avByYnWQDwJ+D1Qh7XB
3psBQepBaz8iIK/BpOahQCw9/UACGbTBY0vTQBJ71D9cW6DBcRv5QN4zAL91FJ/BQdaaQCI3c0DJ
bYXB8ZTJQN3JNkAWBInBP+rMQMd8lEBjkofBaCDhQI+tOkDfiLLBrvupQMmlIkDaQrXBstjOQM/p
z0C4f6HBrXSWQHfv0EDyRaTB88zbQKXnpkDbMLLBD8SjQIADqUDRWbXBdW1bQCMgdkD67qnBl40a
QZ5rUsA1/bXBIXcDQewn2r/BVLTB9W5DQD/SZ0BHbYzBQ0oKQJ0zY0BISZjBZuNuQYWYtMD5jZfB
MDJmQdhkk8BzRZHBck5kQQUOwsDG7KDBoz5GQfs9u8C6V63BN+RSQc4Mf8BvVZTBkyAzQbyKpsBk
G7DBK/5QQU08rsCHBKTB3DJIQejDjMAmtJ3BuicrQWFzhcAeiKnB003WQNW5dUA3C5zBnfaMQD+5
a0BFtZrB+8MMQTV5I8B6iqfBpIelQNAdGEG/fcXBmt22QD+2BUGYeszBeSO4QAYcF0GlErrBbJaJ
QA6rzb4mlajBab2tQLyw30ATRcfBhWCvQFE5AUFr1LTBDEmXQK/icD+/b63BYEOpQAuiwL+hwavB
7e/kQFH0bj7xL63BewbBQJlf3UBg3bvBWSzFQF/PqT+boqnB1VjXQNiCkL/tfajBdKbDQASfekDw
WKfBnMK3QGpuXUAFionBoHXTQDYGLUCkM67BFHm2QKwzsUBrA7fBK3fPQIHmqEBldazBcrQ1QRSP
csC/h6DBK0GVQK25eEA9gKXBUK2zQFX9b0CgCZXBphYYQSkEZMAEuKzBGcXzQBwrC8DgcqzB2FRN
QN0YX0CXupbBZGL8QDi+dEC0qpnBs84SQe5iAcBVNp/B8K19QWK8w8CgLpXBy1huQe8oicBmGIrB
vvhqQWZ/28DDuqXBl5NMQa+j1MACRrLBjEdMQVw/TMA+f4/BCIoqQabdr8CbO7fBeWquQNl7J0Es
KcnBxHWCQJvjFkGqDMXBjFKnQAtPBkFtXtTBZ6LZQKWmB0GRc83BBeraQCW5GUE3dbrB0VSpQKG8
I0HNL7XBD82IQHxcoL430J/B5ANTQHflKb9xiavBn+uKQO/q2kA/x8bBO/a7QO5OxkAQOczBxgW/
QCO4AEFq86zByaWMQCFX/kAj1LPBiwmXQMdQXD95NrbBh6WAQL5p3D+z6arBii6gQEk3HMB+uqfB
awKoQOP/0r+9ebTBHy3lQABuLz4b+bXBhJgCQcCg+T4pT6rB+P3jQKGt4EC2crzB2EDFQGQZsT/V
2KDBdiPZQB+/ib+mtp/BFtCXQM52XECy2IXBhCfHQFa2HkC1dYjBpWDLQBifh0A3t4XBqaH2QEyB
LkD1f67B34rGQFOrM0B2WLbBbvWTQN+2r0BGU7XBM/S+QKc7mECx17zBKu/HQG6SwkBcvabBMvbx
QCUrqUBONa7B4ud9QPe/f0CkK6vB1cYRQYQrecD4k7PBvGLrQO+OKcCIK7PBgMdFQNFIV0BT2I7B
IHUaQEhHXUDRk5vB

>  <OMEGA_E>  (16) 
cE6aPgxtnj44b6c+EPCpPhT/1z7s3wE/cHQJP3AGGT9wfCE/oMYqPw==

>  <OMEGA_NBR>  (16) 
     33033

$$$$
50253451
     RDKit          3D

 77 80  0  0  1  0  0  0  0  0999 V2000
   12.2672   -6.0259  -21.9280 C   0  0  0  0  0  0  0  0  0  0  0  0
   12.9890   -5.9492  -20.7292 C   0  0  0  0  0  0  0  0  0  0  0  0
   11.1396   -5.2116  -22.1207 C   0  0  0  0  0  0  0  0  0  0  0  0
   12.5730   -5.0690  -19.7197 C   0  0  0  0  0  0  0  0  0  0  0  0
   10.7082   -4.3056  -21.1271 C   0  0  0  0  0  0  0  0  0  0  0  0
   11.4340   -4.2429  -19.8955 C   0  0  0  0  0  0  0  0  0  0  0  0
    6.6317    3.9062  -19.5713 C   0  0  0  0  0  0  0  0  0  0  0  0
    4.3598    3.7464  -19.2848 C   0  0  0  0  0  0  0  0  0  0  0  0
    8.8786   -2.5040  -20.9104 C   0  0  0  0  0  0  0  0  0  0  0  0
    6.7333   10.5250  -22.1439 C   0  0  0  0  0  0  0  0  0  0  0  0
    5.3104   10.1925  -21.6606 C   0  0  0  0  0  0  0  0  0  0  0  0
    7.3107    9.3805  -22.9968 C   0  0  0  0  0  0  0  0  0  0  0  0
    4.3966   -0.5267  -21.1591 C   0  0  0  0  0  0  0  0  0  0  0  0
    5.2985    8.8758  -20.8751 C   0  0  0  0  0  0  0  0  0  0  0  0
    7.3005    8.0551  -22.2203 C   0  0  0  0  0  0  0  0  0  0  0  0
    4.7236    0.8668  -21.7075 C   0  0  0  0  0  0  0  0  0  0  0  0
    5.4630   -1.5322  -21.5950 C   0  0  0  0  0  0  0  0  0  0  0  0
    7.1943    0.3289  -21.6792 C   0  0  0  0  0  0  0  0  0  0  0  0
    5.8692    7.7246  -21.7275 C   0  0  0  0  0  0  0  0  0  0  0  0
    6.1260    1.3372  -21.2262 C   0  0  1  0  0  0  0  0  0  0  0  0
    6.8521   -1.0660  -21.1419 C   0  0  2  0  0  0  0  0  0  0  0  0
    5.9768    3.9096  -20.9490 C   0  0  2  0  0  0  0  0  0  0  0  0
    5.7945    3.7410  -17.2010 C   0  0  0  0  0  0  0  0  0  0  0  0
   12.0557   -2.6765  -18.2047 C   0  0  0  0  0  0  0  0  0  0  0  0
    6.4855    2.7263  -21.8065 C   0  0  0  0  0  0  0  0  0  0  0  0
    5.8502    6.4570  -20.8707 C   0  0  0  0  0  0  0  0  0  0  0  0
    6.2699    5.2225  -21.6941 C   0  0  0  0  0  0  0  0  0  0  0  0
    4.5443    3.8133  -20.6606 N   0  0  0  0  0  0  0  0  0  0  0  0
    5.5959    3.9206  -18.6446 N   0  0  0  0  0  0  0  0  0  0  0  0
    9.5718   -3.5597  -21.4986 N   0  0  0  0  0  0  0  0  0  0  0  0
    7.8141   -2.0314  -21.6446 N   0  0  0  0  0  0  0  0  0  0  0  0
    3.2027    3.5683  -18.7012 N   0  0  0  0  0  0  0  0  0  0  0  0
    7.8348    3.9031  -19.3349 O   0  0  0  0  0  0  0  0  0  0  0  0
    9.1862   -1.9484  -19.8637 O   0  0  0  0  0  0  0  0  0  0  0  0
   11.0219   -3.4579  -18.8444 O   0  0  0  0  0  0  0  0  0  0  0  0
   12.5779   -6.7109  -22.7030 H   0  0  0  0  0  0  0  0  0  0  0  0
   13.8633   -6.5662  -20.5831 H   0  0  0  0  0  0  0  0  0  0  0  0
   10.5908   -5.2795  -23.0483 H   0  0  0  0  0  0  0  0  0  0  0  0
   13.1284   -5.0197  -18.7947 H   0  0  0  0  0  0  0  0  0  0  0  0
    6.7019   11.4432  -22.7487 H   0  0  0  0  0  0  0  0  0  0  0  0
    7.3817   10.6837  -21.2696 H   0  0  0  0  0  0  0  0  0  0  0  0
    4.9510   11.0040  -21.0106 H   0  0  0  0  0  0  0  0  0  0  0  0
    4.6457   10.0992  -22.5320 H   0  0  0  0  0  0  0  0  0  0  0  0
    6.7032    9.2686  -23.9070 H   0  0  0  0  0  0  0  0  0  0  0  0
    8.3461    9.6264  -23.2750 H   0  0  0  0  0  0  0  0  0  0  0  0
    4.3639   -0.4858  -20.0604 H   0  0  0  0  0  0  0  0  0  0  0  0
    3.4170   -0.8472  -21.5434 H   0  0  0  0  0  0  0  0  0  0  0  0
    5.9107    8.9911  -19.9686 H   0  0  0  0  0  0  0  0  0  0  0  0
    4.2636    8.6350  -20.5905 H   0  0  0  0  0  0  0  0  0  0  0  0
    7.6520    7.2472  -22.8790 H   0  0  0  0  0  0  0  0  0  0  0  0
    7.9716    8.1389  -21.3528 H   0  0  0  0  0  0  0  0  0  0  0  0
    4.7128    0.8330  -22.8070 H   0  0  0  0  0  0  0  0  0  0  0  0
    3.9639    1.5801  -21.3552 H   0  0  0  0  0  0  0  0  0  0  0  0
    5.2441   -2.5114  -21.1443 H   0  0  0  0  0  0  0  0  0  0  0  0
    5.4502   -1.6221  -22.6913 H   0  0  0  0  0  0  0  0  0  0  0  0
    7.2260    0.2993  -22.7783 H   0  0  0  0  0  0  0  0  0  0  0  0
    8.1763    0.6386  -21.2922 H   0  0  0  0  0  0  0  0  0  0  0  0
    5.2199    7.5748  -22.6027 H   0  0  0  0  0  0  0  0  0  0  0  0
    6.1261    1.3956  -20.1278 H   0  0  0  0  0  0  0  0  0  0  0  0
    6.8802   -1.0425  -20.0425 H   0  0  0  0  0  0  0  0  0  0  0  0
    4.8232    3.7932  -16.6873 H   0  0  0  0  0  0  0  0  0  0  0  0
    6.2559    2.7601  -17.0137 H   0  0  0  0  0  0  0  0  0  0  0  0
    6.4538    4.5349  -16.8201 H   0  0  0  0  0  0  0  0  0  0  0  0
   11.6177   -2.0904  -17.3832 H   0  0  0  0  0  0  0  0  0  0  0  0
   12.8283   -3.3490  -17.8038 H   0  0  0  0  0  0  0  0  0  0  0  0
   12.5082   -1.9952  -18.9403 H   0  0  0  0  0  0  0  0  0  0  0  0
    7.5805    2.7980  -21.8825 H   0  0  0  0  0  0  0  0  0  0  0  0
    6.0422    2.8087  -22.8099 H   0  0  0  0  0  0  0  0  0  0  0  0
    6.5479    6.5817  -20.0295 H   0  0  0  0  0  0  0  0  0  0  0  0
    4.8327    6.3010  -20.4831 H   0  0  0  0  0  0  0  0  0  0  0  0
    7.3491    5.2819  -21.8990 H   0  0  0  0  0  0  0  0  0  0  0  0
    5.7157    5.2236  -22.6443 H   0  0  0  0  0  0  0  0  0  0  0  0
    3.8150    3.7981  -21.3446 H   0  0  0  0  0  0  0  0  0  0  0  0
    9.1789   -3.8502  -22.3711 H   0  0  0  0  0  0  0  0  0  0  0  0
    7.6965   -2.3722  -22.5774 H   0  0  0  0  0  0  0  0  0  0  0  0
    3.1441    3.5470  -17.7032 H   0  0  0  0  0  0  0  0  0  0  0  0
    2.3768    3.4535  -19.2531 H   0  0  0  0  0  0  0  0  0  0  0  0
  1  2  2  0
  1  3  1  0
  2  4  1  0
  3  5  2  0
  4  6  2  0
  5  6  1  0
  5 30  1  0
  6 35  1  0
  7 22  1  0
  7 29  1  0
  7 33  2  0
  8 28  1  0
  8 29  1  0
  8 32  2  0
  9 30  1  0
  9 31  1  0
  9 34  2  0
 10 11  1  0
 10 12  1  0
 11 14  1  0
 12 15  1  0
 13 16  1  0
 13 17  1  0
 14 19  1  0
 15 19  1  0
 16 20  1  0
 17 21  1  0
 18 20  1  0
 18 21  1  0
 19 26  1  0
 20 25  1  0
 21 31  1  0
 22 25  1  6
 22 27  1  0
 22 28  1  0
 23 29  1  0
 24 35  1  0
 26 27  1  0
  1 36  1  0
  2 37  1  0
  3 38  1  0
  4 39  1  0
 10 40  1  0
 10 41  1  0
 11 42  1  0
 11 43  1  0
 12 44  1  0
 12 45  1  0
 13 46  1  0
 13 47  1  0
 14 48  1  0
 14 49  1  0
 15 50  1  0
 15 51  1  0
 16 52  1  0
 16 53  1  0
 17 54  1  0
 17 55  1  0
 18 56  1  0
 18 57  1  0
 19 58  1  0
 20 59  1  1
 21 60  1  1
 23 61  1  0
 23 62  1  0
 23 63  1  0
 24 64  1  0
 24 65  1  0
 24 66  1  0
 25 67  1  0
 25 68  1  0
 26 69  1  0
 26 70  1  0
 27 71  1  0
 27 72  1  0
 28 73  1  0
 30 74  1  0
 31 75  1  0
 32 76  1  0
 32 77  1  0
M  CHG  1  32   1
M  END
>  <OMEGA_C>  (17) 
ckZEQX3UwMB+bK/BCNNPQeFfvsBU1aXB3TsyQRnFpsAu97DBMStJQYc1osDpwZ3Bw1QrQYTHicBh
BKnBhfE2QanFh8AKKp/BQDfUQAz/eUD5kZzBnIOLQObEb0BfR5rB7Q4OQQZCIMB+SKfBR3fXQDxm
KEGjJrHBhO6pQKQUI0HhSK3B7PDpQHoWFkGM+bfBoLCMQLrVBr/nRanBFY2pQDMDDkFHAKfBG57p
QKXhAEE/w7HBECiXQJDpXT8Eqa3BltCuQAUexL+gwqzBWTfmQLRjqD71bq3BzNC7QJQv90Dy0a3B
+AfEQDYqqz9Qz6nBEETbQDZziL+nIqnBRUK/QFw3ekCdl6fByWy5QOVrb0CMm4nBAORAQUxLK8A1
o5HBVInPQEx7LkDDc67BrjS7QOKfzkBG96bBWaPIQAYfp0B2ja3BjWqRQN0MdEDVSKXBWBGzQATr
ekALKJXBEiYZQaHRY8Ak/avBBw36QOgBAsAyKK3BWPlMQIRfZEAinJXBv7b6QO/LeUDYrZrBq/oS
Qbtl+b/t6J7BilkwQTROXcBDwZbBRT9JQbS/1sC+n7XBBdBdQZ0e0sA3qqTBx3MpQefxqMAFY7jB
8Q1SQUKhoMCaW5bBN3bWQGgXN0FW/bXB+DbsQKDwKkEdKKrBtm6eQC4QMEG2FajBL6mUQC2WIUGf
QbTBbYDWQFFMFEGgQb/BqYkFQa0FGkE9M7rB7qSLQJq8+L6ne6DBga9aQKDgWL/uWKzBcCS9QI/b
D0Gcv5/BOG+IQOIoCkFiuaTBJ930QBPp50AjCLfBGxf/QBM5AkFv0qrBO8+WQDg9VT+jdLbB9LB9
QDA/yj9b16rBRc+nQL+6IMB5J6nBRGiuQHufz7+9h7XBDjvnQKNBmT4COrbBBtICQeF5Iz99VqrB
CgmnQCNl8kBA0rTB2gjEQDWjsj+wBaHB5yrcQFxxhb8bV6DBwleaQEXEckCkf4XBATDIQEalMEAP
HIjBIYXOQAkekUCIj4bBMeI5Qb/JBcDjEIvB3kBNQapVVsAxbo7BxiFIQQ9j/7+lhZfB0JPyQEUS
M0BID6/BulnBQGXCM0CWerbBlojRQIad0kCEPKDBF6WaQIGhyUBW3aPBgivrQDYFqUANMa/BNOe2
QJMnp0BuJ7XBbih0QHATc0C9warBo9wSQT9qdsDu97LBXkn2QF7RF8B5nrTBbDlJQL8CY0AeoI3B
1BwYQBQGXUByBprBPvxDQW6Tw8DvbK3B/v1QQdOsucDDnKTBwhUyQf0DqsAMyq/B2lFMQcy3lcDp
TZ7BntcsQY4zhsAXbanBu3o6QZoCd8DoqKDBcgfVQOeqdUCIp5zBUD+MQLzYb0B/HZrBjrcNQVLR
I8DVhqfBmafFQHI4JkHcUbXBWC3lQKrcFEHLDrnBfEu9QAhqJEHXO6nBgkmNQExaDr/nd6jBVAvU
QHPt/EBDZrbBRaOsQKgXDkELV6bBSAaWQFl6WD9tAq3BUDCvQOaoxr8/WqzBNwjlQN2jqT60La7B
emTLQKyy+EA1ParB1MHDQC8Nqj8m+6nBthLcQDRVhr/kb6nBwXu/QOaAeUARlqfBLRW7QIA6ckDO
lYnBJ1IzQfh+P8Bico/BhgvOQG47LkBTva7BdLu2QKa8zUB3QqfBxRDLQKBKp0BYFa3BEKCRQOyV
dUDcI6XBGoa0QMFfa0AuL5XB0sIaQaA1XsBo16zB9YD7QKCA/r/En63BW1xOQFcCb0AjQJXBIWH7
QAqwfUAT15rBqvwNQfyhGMCz1J3BrH03QVKRLsCGoZrBnLpHQXDX3sDHZLLB141eQZiqzcAAsaLB
CC4oQanqscB3lrbBS3RWQTD6jcBGlJfBojvTQAQTNkE7E7fBFDunQNpOJEElpLnB1ajpQMU0FkGf
wsHB8AgCQd41F0GjAbXBc1PbQNVkJ0FE5KTBn1ilQNttMEE/46bBXwOOQN70Ar9trZ/BGQxbQOXB
ZL+jIavBBQy2QGOG90AgzbrBBdPrQJTX5EDr0LjBnV6pQIn1DEGrmJ3B2yuNQOa7C0GQGqrBihqT
QGGHUD+OxrXBpMZ8QLtwxj96u6nBha2pQCjJIcBQiKjBU8asQBZ01L/hFrXBLBHjQA0njz5+9LbB
oaACQegqKT8D0KvBc+/pQCDS+0BU76XBNDPGQP8ZsT+dNqHBsL/eQNLOfb/BrKDBloScQNGAZ0Bq
boXBHnfSQOzaQUDb/obBBzHHQPA7mUANo4fBlB0xQdCXAsA0LIvB17wkQR5yZsB/sY7BJvBAQUJZ
YsDD94vBrtzwQPHzMkBP5K/B4969QGDVM0ArhrbB5y66QMvmyED6lZ7BKo6UQHYQz0DsVqnBGRDu
QO0Pq0B9EK3BS2q/QPKOpkCoYrXBswB0QMbWdkC4iKrB84cWQb5JacB3brTB+tj5QIXrDsCcXrXB
iMNLQAPeakAfRo3BU0sYQM2CckBGgpnBuWFFQW6evsAV4q7B7JFRQe0ZucBzlaXBk+cyQYzkpcB1
f7DBjx9LQR5Dm8CV2p3BjwAsQe2Ph8CO26jBsiw4Qce0gsC0M5/BhFbXQJa6eEC19ZzB5FOOQA4U
dEA34prBLfgMQSGRIsDZO6fBwcWkQBeJIEFMBa/BaqajQJ3CDUGDA7fBryK0QO0GGUF/86PBVUeL
QOHv9r6hFqnBn8zPQLa9AkFzy7fBDZrgQLmLDkEN2qTBoIyWQAmOaj/nVq3BwSSsQLJFwr/h2qzB
TgvlQHddkj6uzq3BYsDgQKrp9kB+tazB0G7EQJA5qz8z8anBHSTZQEc/jL92WanBzdjCQAmQfECj
CajB1Jq7QLUQZ0B2IorBwK02QcHcZcDSVozBULnQQFy/LUCwya7B7enGQHwA0UDD56fBF1/QQCZF
p0BaHq7BUcuUQIfyfUDL1KXB8+61QJKId0D+npXB9x4ZQYGYY8As5KvB+mv3QEVYBsDfKq3Bzc1R
QK46akDbWZbBBML9QI9heEDZ+ZrBh5oQQf3EAcC9iJ7BngkyQQxFTcBcQJfBljBKQWve1cBxzrTB
3OZfQeTJy8C0XqTBAcEpQeMnqsDEv7fBWbhUQXPclsDowJbBuL+6QGHlLEHSB7LBWGqEQHpMJ0FJ
RK7B9ciLQLH9AUHhU7TBxp6aQPDcE0H6877Brw62QHDfJkEvip7B6UCdQM1QDUHduKDBcvaKQPiq
6r50SqDBqdJWQBSsRL9SC6zBm+vMQIlE6UDQAb3BFMzmQOERDkE2TbvBfJ33QA2ZGkFNr6fBAFfq
QFPPCEF65ZzBR56UQNZiaD8+ILbBVPd+QNZp0j8zIarBg3CkQNXFH8BkVKnBkRSrQHezy7+XobXB
l9bkQPqpfz45mrbBFZkCQdYRED8L/qrB+wgBQRBS7EAhu63BedHFQHvCsz9KKqHBVhLaQGSihr89
j6DBplacQByqaUD0GobBi9LJQDBOJ0AyAInBZ+nQQDzyi0CJsobBefswQQ7AM8CN2obBO4kuQehB
kcDif4rB5wxIQT4MbsBqXYvBWrrzQAO3L0COrq/BZJ3BQAPxMkCatbbBNf3PQKu1zECHeJ/BaYSk
QJov2ECVbKjBjfnyQO6dpUCXra/BL/m+QExUqECRw7XB2HV7QCBvgkATT6vBkjETQfu+d8DW4bLB
YPPyQE8yH8BYdLTB2pNNQD5YZEAFZ47BJ9UcQGqWaEAB1prB+IxMQWSTrcAggK3B2qRLQV0awsCG
hKPB0xE8QVuQkcBHkrDBAyQ6QZQvu8DeqZzBOZkqQRBzicCPsanBrzgpQSFAn8CQq5/BoO3TQGUD
f0AiVJvBrVeLQFGQaUCvepnBGc4NQRbHIsAg76fB9vTXQPpGHUH2/LrBY+LuQDPiG0GmELDBRv6n
QLi3F0Hq6rnBczKQQF5Tu755sqjBalzpQKKGBUHHIKvBRiGiQG1bAUGS/LTBG7mZQB2egz9fPK3B
yCGyQNQxr78JfKzBY+boQILVBT/I0q3BNzq5QNW+/0Cq/6nB+fnGQH57wT+hqqnBlmnfQGgLY7/S
eKnBNnW/QG0EgkDqaqbB3+i4QOL3XkC9sIjBCWkXQfKCq8ChoI7BjjzRQINAPECb063B0DyzQOI5
00CU26TBhFLHQCUerkC9iqvBmJ6RQP54eUCxUKTBUZKyQKyickB4F5TBJeAaQezwWsDanq3ByoD+
QO5k6b/i863Bq2VMQCbAVkB9N5XBZjj6QJQvgkDhRZnB+oQQQXo3EsCSbZ7B2eQWQSvimsChbJnB
c+JZQc1Ns8BjzrLBHmxYQQZC18D3GKHBlMQ8QXUMgsCtSLjB7Io5QS9Jy8AyBpXBfxXbQJWlLUHu
H77B7grnQEn3EUGVk8DB/pcIQXEeH0EwMrHBwS/hQIvkJ0F9nqrBQGmYQBOmI0GtwLTBOx2ZQFID
GEE15MHBAXaQQH3to76u55/BhfdgQG7dMb/WdqvBau/4QKQ/80C+T7DBaGb4QDNDBUE4LKPB0pB/
QNR//EB22bPBPaGvQGaa6kATcLrBY4CYQLu+fD9ABrbBIIGBQMZa3j/BTKrBdCGsQCr1FcCyr6jB
gASwQOu+vL9KOrXBxRboQCroAD+jnrbBZmQEQWDqVz8QHqvBc5eqQI3GC0HTpaTBcBfIQJnewj8S
36DBzTfiQBmFXr97s6DBzZyZQIhEWEA/wITB5eTKQOjFIkAT6YfBRvnKQCeUiUBV4oTBw+QHQem2
pcBHvIrBe5oaQZIdzsCB2o7B1SEkQQVbm8DhFIrBfC/0QE1gQ0CcYa7BPwHDQFLKQ0Dm0bXBuFfC
QEuB00DT6JzB17+QQMsVzUDb/qPBrQfqQE5vs0BrKazBPBa5QFBarkAKl7PB2+l0QGMifUDj0KnB
acYYQTVyW8AQjbXBOL/+QILZ+b/U4rXBUKVHQFU7TUD7U43BLncYQCTqUUBk2pnB

>  <OMEGA_E>  (17) 
8NgzPgAaQD7QWo8+UI7NPg==

>  <OMEGA_NBR>  (17) 
     38130

$$$$
50253462
     RDKit          3D

 73 76  0  0  1  0  0  0  0  0999 V2000
   12.3777   -5.8257  -21.7009 C   0  0  0  0  0  0  0  0  0  0  0  0
   13.0860   -5.6314  -20.5065 C   0  0  0  0  0  0  0  0  0  0  0  0
   11.1996   -5.1019  -21.9394 C   0  0  0  0  0  0  0  0  0  0  0  0
   12.5975   -4.7364  -19.5410 C   0  0  0  0  0  0  0  0  0  0  0  0
   10.6957   -4.1838  -20.9915 C   0  0  0  0  0  0  0  0  0  0  0  0
   11.3990   -4.0243  -19.7487 C   0  0  0  0  0  0  0  0  0  0  0  0
    6.6830    3.7933  -19.6102 C   0  0  0  0  0  0  0  0  0  0  0  0
    4.4144    3.6564  -19.2686 C   0  0  0  0  0  0  0  0  0  0  0  0
    8.8189   -2.4531  -20.9697 C   0  0  0  0  0  0  0  0  0  0  0  0
    6.7857   10.4760  -22.0534 C   0  0  0  0  0  0  0  0  0  0  0  0
    5.3941   10.1593  -21.4768 C   0  0  0  0  0  0  0  0  0  0  0  0
    7.2790    9.3396  -22.9674 C   0  0  0  0  0  0  0  0  0  0  0  0
    4.3094   -0.5518  -21.2428 C   0  0  0  0  0  0  0  0  0  0  0  0
    5.4140    8.8280  -20.7155 C   0  0  0  0  0  0  0  0  0  0  0  0
    7.2935    7.9971  -22.2216 C   0  0  0  0  0  0  0  0  0  0  0  0
    4.6552    0.8483  -21.7681 C   0  0  0  0  0  0  0  0  0  0  0  0
    5.3553   -1.5688  -21.7034 C   0  0  0  0  0  0  0  0  0  0  0  0
    7.1125    0.2606  -21.8035 C   0  0  0  0  0  0  0  0  0  0  0  0
    5.8955    7.6845  -21.6312 C   0  0  0  0  0  0  0  0  0  0  0  0
    6.0782    1.2835  -21.3121 C   0  0  1  0  0  0  0  0  0  0  0  0
    6.7482   -1.1224  -21.2496 C   0  0  2  0  0  0  0  0  0  0  0  0
    5.9911    3.8496  -20.9684 C   0  0  2  0  0  0  0  0  0  0  0  0
    5.9003    3.6364  -17.2180 C   0  0  0  0  0  0  0  0  0  0  0  0
    6.4542    2.6790  -21.8690 C   0  0  0  0  0  0  0  0  0  0  0  0
    5.9122    6.3957  -20.8059 C   0  0  0  0  0  0  0  0  0  0  0  0
    6.2836    5.1798  -21.6814 C   0  0  0  0  0  0  0  0  0  0  0  0
    4.5651    3.7688  -20.6454 N   0  0  0  0  0  0  0  0  0  0  0  0
    5.6809    3.5912  -18.6690 N   0  0  0  0  0  0  0  0  0  0  0  0
    9.4936   -3.5836  -21.3985 N   0  0  0  0  0  0  0  0  0  0  0  0
    7.7038   -2.1141  -21.7018 N   0  0  0  0  0  0  0  0  0  0  0  0
    3.2622    3.6158  -18.6509 N   0  0  0  0  0  0  0  0  0  0  0  0
    7.8864    3.8960  -19.3990 O   0  0  0  0  0  0  0  0  0  0  0  0
    9.2070   -1.7093  -20.0800 O   0  0  0  0  0  0  0  0  0  0  0  0
   10.8361   -3.1050  -18.3687 Cl  0  0  0  0  0  0  0  0  0  0  0  0
   12.7381   -6.5307  -22.4355 H   0  0  0  0  0  0  0  0  0  0  0  0
   14.0057   -6.1692  -20.3295 H   0  0  0  0  0  0  0  0  0  0  0  0
   10.6670   -5.2497  -22.8672 H   0  0  0  0  0  0  0  0  0  0  0  0
   13.1492   -4.5914  -18.6240 H   0  0  0  0  0  0  0  0  0  0  0  0
    6.7295   11.4071  -22.6364 H   0  0  0  0  0  0  0  0  0  0  0  0
    7.4972   10.6048  -21.2245 H   0  0  0  0  0  0  0  0  0  0  0  0
    5.0962   10.9644  -20.7890 H   0  0  0  0  0  0  0  0  0  0  0  0
    4.6680   10.0935  -22.3006 H   0  0  0  0  0  0  0  0  0  0  0  0
    6.6090    9.2608  -23.8362 H   0  0  0  0  0  0  0  0  0  0  0  0
    8.2983    9.5712  -23.3103 H   0  0  0  0  0  0  0  0  0  0  0  0
    4.2848   -0.5302  -20.1433 H   0  0  0  0  0  0  0  0  0  0  0  0
    3.3220   -0.8488  -21.6259 H   0  0  0  0  0  0  0  0  0  0  0  0
    6.0951    8.9136  -19.8560 H   0  0  0  0  0  0  0  0  0  0  0  0
    4.3989    8.6012  -20.3577 H   0  0  0  0  0  0  0  0  0  0  0  0
    7.5768    7.1977  -22.9221 H   0  0  0  0  0  0  0  0  0  0  0  0
    8.0281    8.0458  -21.4043 H   0  0  0  0  0  0  0  0  0  0  0  0
    4.6177    0.8386  -22.8675 H   0  0  0  0  0  0  0  0  0  0  0  0
    3.9186    1.5685  -21.3825 H   0  0  0  0  0  0  0  0  0  0  0  0
    5.1263   -2.5517  -21.2660 H   0  0  0  0  0  0  0  0  0  0  0  0
    5.3348   -1.6421  -22.8008 H   0  0  0  0  0  0  0  0  0  0  0  0
    7.1079    0.2305  -22.9031 H   0  0  0  0  0  0  0  0  0  0  0  0
    8.1132    0.5482  -21.4487 H   0  0  0  0  0  0  0  0  0  0  0  0
    5.1807    7.5689  -22.4593 H   0  0  0  0  0  0  0  0  0  0  0  0
    6.1027    1.3200  -20.2130 H   0  0  0  0  0  0  0  0  0  0  0  0
    6.7589   -1.0726  -20.1508 H   0  0  0  0  0  0  0  0  0  0  0  0
    4.9507    3.4447  -16.6969 H   0  0  0  0  0  0  0  0  0  0  0  0
    6.6354    2.8688  -16.9345 H   0  0  0  0  0  0  0  0  0  0  0  0
    6.2795    4.6295  -16.9354 H   0  0  0  0  0  0  0  0  0  0  0  0
    7.5483    2.7299  -21.9706 H   0  0  0  0  0  0  0  0  0  0  0  0
    5.9882    2.7959  -22.8586 H   0  0  0  0  0  0  0  0  0  0  0  0
    6.6520    6.4960  -19.9981 H   0  0  0  0  0  0  0  0  0  0  0  0
    4.9146    6.2343  -20.3716 H   0  0  0  0  0  0  0  0  0  0  0  0
    7.3565    5.2274  -21.9194 H   0  0  0  0  0  0  0  0  0  0  0  0
    5.6993    5.2202  -22.6125 H   0  0  0  0  0  0  0  0  0  0  0  0
    3.8183    3.7910  -21.3101 H   0  0  0  0  0  0  0  0  0  0  0  0
    9.0349   -4.0671  -22.1439 H   0  0  0  0  0  0  0  0  0  0  0  0
    7.5471   -2.5689  -22.5785 H   0  0  0  0  0  0  0  0  0  0  0  0
    3.2315    3.5307  -17.6550 H   0  0  0  0  0  0  0  0  0  0  0  0
    2.4120    3.6699  -19.1745 H   0  0  0  0  0  0  0  0  0  0  0  0
  1  2  2  0
  1  3  1  0
  2  4  1  0
  3  5  2  0
  4  6  2  0
  5  6  1  0
  5 29  1  0
  6 34  1  0
  7 22  1  0
  7 28  1  0
  7 32  2  0
  8 27  1  0
  8 28  1  0
  8 31  2  0
  9 29  1  0
  9 30  1  0
  9 33  2  0
 10 11  1  0
 10 12  1  0
 11 14  1  0
 12 15  1  0
 13 16  1  0
 13 17  1  0
 14 19  1  0
 15 19  1  0
 16 20  1  0
 17 21  1  0
 18 20  1  0
 18 21  1  0
 19 25  1  0
 20 24  1  0
 21 30  1  0
 22 24  1  6
 22 26  1  0
 22 27  1  0
 23 28  1  0
 25 26  1  0
  1 35  1  0
  2 36  1  0
  3 37  1  0
  4 38  1  0
 10 39  1  0
 10 40  1  0
 11 41  1  0
 11 42  1  0
 12 43  1  0
 12 44  1  0
 13 45  1  0
 13 46  1  0
 14 47  1  0
 14 48  1  0
 15 49  1  0
 15 50  1  0
 16 51  1  0
 16 52  1  0
 17 53  1  0
 17 54  1  0
 18 55  1  0
 18 56  1  0
 19 57  1  0
 20 58  1  1
 21 59  1  1
 23 60  1  0
 23 61  1  0
 23 62  1  0
 24 63  1  0
 24 64  1  0
 25 65  1  0
 25 66  1  0
 26 67  1  0
 26 68  1  0
 27 69  1  0
 29 70  1  0
 30 71  1  0
 31 72  1  0
 31 73  1  0
M  CHG  1  31   1
M  END
>  <OMEGA_C>  (18) 
MgtGQR1susCEm63BOmBRQXA0tMBoDaTBwDEzQWJCo8DVg6/BRY9JQcKQl8DlU5zBiyErQf7hhcCD
7qfBQ2I2QRfHgMBi/Z3BPNvVQD7GckC+4ZzB2UKNQCwCakALJprBZhoNQTsAHcAHwqfBJiTZQJqd
J0FubbDBD5ysQGKMIkFz0KvBxO3oQCNvFUFAvbfBqOaJQFRADb9A8anBtz+tQJI/DUFHuaXBZGTp
QBzo/0DGxbHBIveUQCwpWT8qJa7BqV6rQO7NyL+poK3BP5njQElohT6Kba7Boae8QJrn9UCmDK3B
lYDCQE9KpD8pf6rB9fDXQG6qj785/6nBMbe/QC5fdkBAv6fBDc+8QBq6aECEvonB6ojOQC11K0DA
867ByjC9QJ2pzECUcqbBPBPJQA3BpUB+c63B+RSSQAI0cUC/KaXBj8m1QOHWZUAJWpXBxuUXQStZ
ZcAIMKvB24X2QFpNB8BGna3BXMdQQIBpZ0AENZXBy138QMBYeUA8MZvB708TQanL2r/fo6DBvmAt
QTe4RsAO85LBEc9LQVr70MDge7PBWxdgQbJpxcC9oqLB4asqQYv9p8Dx77bBUWNSQV/sksDc/ZTB
9lfXQHeDNkFdF7XBvujvQA+tKUG0y6nBPxSjQBhuL0HJT6bBpGCVQAB/IUGHZ7LBtHzTQBosFEGN
sL7BrcUEQYUjGUFpe7rB2RyJQAO8B79zJaHBfptUQMtJWb/nAa3BYgvDQCueDkH/2J7BfcOMQKae
CUGK3KLB73TyQIBT5kByYLfBQXMAQW67AEH9O6vBeMSTQKWwVj+T8LbBMcp6QP3EyD9ZD6vBpwqk
QIxPI8C8IKrBF7eqQHwv0r8QaLbBKXTjQKsAbD56ObfBes8BQQhUDD/glqvBosilQMM08kCtrLPB
gknDQPn0qD8ptKHBO0nYQJJMib/WNKHBFWyeQEl1XEBNk4XBglXUQKyaN0DDeYfBlfHIQMMklECm
e4fB6IvxQNW2LkDVw6/BuJ+/QAnwMkBb3rbBC93UQHrfz0AM/J/BGkSdQEF/x0AM+aLBV2jrQK9G
p0DuWq/BzWC2QDYMp0Bs5rTBbl50QBegckADe6rByY4QQQ8mgsC8JrHBcoHxQHhpJMCuoLTBJ9BO
QIX2YUBsPY3BhV0aQFHgakB1ZZnBS+NHQVXms8Afta3BAoJRQQOrr8DZnKPBsqw0QfJXnsDg66/B
jJZHQRnPlsDEqJvBoaQqQVexhMAsGajB8PMzQS8agsCfqZ3BHgjVQJoAcUAnaZzB1DWMQDquakCA
7JnBKkkNQRA0GsCMB6jBiwrVQIsiIUHfDLfB58L5QEVXGEGLGLDBshapQNeHHUHutrHBffyJQFOg
776U9qnBBUbyQEOsAEGrW63BnDqiQCu0BUE+Dq/Bwl2VQHjRaj+ua67BFG+rQFIKwL8CYq3BH+3j
QJkPqT4xbK7BKpzGQNwN/EDktKfBdJDCQKzXrT8OoKrBbk3YQPQDh7+v4KnBQ2S/QALBekCNS6fB
SgG7QATXYkBKX4nB0EPOQPS9MUBI4q7BTT+/QHgkzkACwqPBpeXIQMsoqkD3FKzBUKWRQCjWdEBZ
4aTB7Um0QMixbkC35ZTBuj8XQejZZMDcWavB+Cv2QMQhBMBglq3BNUBOQC6DYUAdNpXBLaP7QHgD
ckCrqJrB/VgVQXBEzr/0xqHBJiknQbWfVsD/j5LBvz9PQZyxx8AxwrPBpIJgQdN9v8Cy9aHBHXYt
Qc9xocD4u7fBfxlPQeuIk8Di65PB6uHZQFRmMkHfQbjBPXLVQJ3yGEHq1r7BWQoMQULlGUGPf7TB
FY/7QKajIUFFo6jBZ4KnQCTrJkEOSKrBM7yPQDDcIkHuNLfBeu+IQCqf1r4BLaHB2OJUQEY/Rb9m
B63BeHjyQNNU7kB3w7TBqfQFQYgY9kA8BqjBSlWDQBOoA0EO96rBllmiQKWP+EDsfLbBnOGUQJfd
YD/cNrfBrTF7QBwF0z81nKvBkeqjQBL8HcAWp6nB8MCqQDeKzb8CJLbBlP/jQHGxkz5dN7fBYuwB
QV4FID91j6vB5tjGQMCCCEFuo6DBysfCQPhlsT8E1KHBghrZQIQfgL8rF6HB7e6bQON5Y0DlPIXB
Z/zKQCMkJUBw9YfBiyTPQMCBi0CwR4bBlTjxQOyrNUA6y6/BG+6+QH3KOkBJubbBoOzTQAnayECS
wpzBu4KdQAdCy0BGWqHBBtPqQBDKq0AkZK7Bn760QJoOr0A8MbPBnxF0QA2pd0C2RKrBTVcPQXDo
gsAT9LDBbgnwQPD9IcC+frTB1SNLQDeaXECUPo3B5qYYQJtpX0BBk5nBsAdNQTe+qsBpLK7BNVFP
QQYxusBdq6PB2yA7QTC3kcB26LDBjZQ/QcMJscAU85vBkWorQVR/h8DPLqnBiIItQdA2mMAZm57B
dGnRQHmugEDb4Z7BT5uKQMJFbECVeJrBAQgOQfzuIcDBSqfBRoQBQTDXFUEjz6fBQlzaQFFlFEHo
zKDB8q8DQa9gAkGhWK/BU/WNQJmnB794baXBf6SxQE/YEEFusafBJcXeQHLn/0DkSLbBFKqSQGuF
Sj9DlKvBgSevQE2Zxr/rVKnBRYrhQChBtT5yea7Br621QKe/+kB/Xq/B05nAQOFDrz9CNKrBA9Pc
QPTWer+La6jBG3y3QJrhfEBQQqnBJy7AQAvGc0AEMYvB0AvGQCHELkBFGbDB4dm0QJKk0ECxyqjB
z0a8QMpAqEAIyq/BrBiLQPM5dEDVkaXBsgm0QBaBe0A1hpbBpO0ZQQPrXsC7z6zBcbn6QIEB+r+B
66zBFKdQQAMNW0Aj0pTBOUf4QKNWhUBAJJ7BIGwTQbRyBcB/jJ7B854ZQZPfksBOyJTBQP5YQf4S
ssDzIbTBpCRdQeoRzcAoh6HBDV85QSEthsA0AbnBR11BQaAnvcBC6JPBobYAQQGAJEGRqazBSqEP
QcCEFkH4j6LBGtLdQOXvBkE4MpvBBNDWQNBhI0GnRZzBb6MRQWquBEEAlrTBveoFQbud50B2iarB
GdOSQA/Qr74+15zBDkFbQLrwbr9MuqbB3U6WQBkiDkEiUaLBieSrQIpOH0F/f6zB6VbbQK5DDkF4
VbvBBFTiQHB540CUZbvBq4mMQE5aHD+3H7TBmJF2QBczwj/CfajBzsmsQKuLHcCubKTBvJCoQGZy
5r9vvrHBePvbQNZRPz57D7fBgwQBQUjaPz99Rq3BodmZQNbQ+kAEwrTBdYrGQCGVwz+xn6HBHjLk
QH/RT7/A65/BxiajQCtAcEDXO4bBeEzTQN5fOUBaDIrBXC7TQD71lUDM0YjBogfoQDMCN0DHJbLB
t96yQHo6LUDJebfBUR/OQPEr0kCLraLBM3qVQLrRzUBa3aTBQcXcQN+TqUAWKLPBeLqkQBkSqEBy
VLbBm4BiQN4QdEBqSarBWWcVQTfiacCLXLTBCNL2QGIJDsDDkbTBb2VUQB+zV0B12IzBPp0YQB5E
UUCJfJjBLbE1QYbF28AcyazBKdNHQZ5f08C5cKbBWlMnQcKFusCjPK/B8JtLQWCxqcAYkqLBYbgq
QaXpkMBqMqvBai09QX5FiMDy6qTBCYjPQDw2gUAhoZ3B50+HQFLadUAzLZrBr3wRQXuGKsB9fafB
QAjfQLS6KEGtS7DBAiGvQArAJUHiu63BCvXvQNUbFkEcLLfBi8efQEDwBL/y6J/BrDGnQN8yEEGZ
G6jBsUfoQBxzAEFUp7HB+u6bQJNWPz+V0abB24e/QPCzwb9u7aTBAh3nQJ4W1z5ox63BCiq4QLl+
+kAy5q7BDIbIQG9StD+GTajBT3DrQACVWL+F3KbBwt23QKXyfUDNVKjBAe25QJdSckB+QYrBtq3G
QH20LkD+7a7B9/ewQNDj0ED9hqjB/3G/QIJ4qEAjza7BC52KQKOyd0CQS6XBT1iwQESffkBKrpXB
6UMcQRxbYsDLQK7B1NcDQV6S4r/keKzBPWVGQC3cbEDS9pTBJHf2QCw4gkAYX5zBRFYSQf5yMMDD
sZ3BoVxDQbu3KMA6jaDBa9AyQYCx+8B2xK/Bb9dSQS7j7MB4iaTBvZsZQankwMB9PrTBL6JZQaNN
o8BQyJ3BrGHjQFPTN0Hdr7TBnS/xQOhYKUE2w6jBW4OkQCzQMkGqd6jBjbqcQDwzJkGGO7XBNVvf
QHMyFkGb7r7BdkEJQapCGEG6dbjBDB6rQOO9db5a4pfBYSyAQIE0f7+aRZ/Bv6u3QHo/EEHbVKDB
/JmEQDImDkHQ16bBkabyQOkO50CICbfB/Rv7QP6s/0CMOarBy+WOQPRc9D6+s67BmUWGQADmuj9i
3qLBO7TDQAWYF8BYfp/BZaOyQP/e7r8snazBxlLaQEDFFz4Gr7XBaVwDQeqRYz/tva7BHcqlQGbe
+EDhZLbBDmPVQP/W0j8tVqDBDnD5QFb/Eb8rGJ/BB+WbQFOjcUCEqoXBVr3KQIUdNUANJYnBLVHO
QGuCk0CQaofB5tXmQETFO0BQHbLBFzKwQAWBJUAzmrXBvUjDQC230kC5BqHB6auOQOfvzUCOsKbB
/sfhQGBCq0AEnLDB+jutQLWdpkBbUbbBxQRkQCspdUCGZqrBT2AZQQR3XMBKFrbB0KgDQbjd4L+T
eLTBWlBGQCW9a0Aj94zBxF4PQMoeZ0Bx/JjB

>  <OMEGA_E>  (18) 
oLfFPcD/Pz7wW7k+OCHdPg==

>  <OMEGA_NBR>  (18) 
     43020

$$$$
