330377
     RDKit          3D

 50 53  0  0  1  0  0  0  0  0999 V2000
    4.5040    0.1929  -20.6606 C   0  0  0  0  0  0  0  0  0  0  0  0
    6.4495   -1.1767  -22.1560 C   0  0  0  0  0  0  0  0  0  0  0  0
    5.4758    0.9369  -21.3776 C   0  0  0  0  0  0  0  0  0  0  0  0
    4.5065   -1.2076  -20.6909 C   0  0  0  0  0  0  0  0  0  0  0  0
    6.4483    0.2286  -22.1452 C   0  0  0  0  0  0  0  0  0  0  0  0
    5.4866   -1.8943  -21.4275 C   0  0  0  0  0  0  0  0  0  0  0  0
    5.5210    7.3450  -25.3577 C   0  0  0  0  0  0  0  0  0  0  0  0
    6.1669    7.6380  -24.1363 C   0  0  0  0  0  0  0  0  0  0  0  0
    4.9624    6.0658  -25.5392 C   0  0  0  0  0  0  0  0  0  0  0  0
    5.7401    5.4663  -23.4199 C   0  0  0  0  0  0  0  0  0  0  0  0
    4.3450    3.1963  -19.0895 C   0  0  0  0  0  0  0  0  0  0  0  0
    6.7016    4.5314  -21.2528 C   0  0  0  0  0  0  0  0  0  0  0  0
    5.3173    3.1094  -22.6661 C   0  0  0  0  0  0  0  0  0  0  0  0
    6.8009    3.0709  -20.8304 C   0  0  2  0  0  0  0  0  0  0  0  0
    5.4654    2.4725  -21.2986 C   0  0  2  0  0  0  0  0  0  0  0  0
    6.7398    9.0120  -23.8731 C   0  0  0  0  0  0  0  0  0  0  0  0
    5.4746    3.1601  -16.8487 C   0  0  0  0  0  0  0  0  0  0  0  0
    3.5163    4.5320  -26.7020 C   0  0  0  0  0  0  0  0  0  0  0  0
    6.2618    6.6899  -23.1843 N   0  0  0  0  0  0  0  0  0  0  0  0
    5.0881    5.1539  -24.5595 N   0  0  0  0  0  0  0  0  0  0  0  0
    3.1931    3.4286  -18.5103 N   0  0  0  0  0  0  0  0  0  0  0  0
    4.3270    2.9963  -20.4706 N   0  0  0  0  0  0  0  0  0  0  0  0
    5.8786    4.4688  -22.4872 N   0  0  0  0  0  0  0  0  0  0  0  0
    5.5305    3.1739  -18.3325 N   0  0  0  0  0  0  0  0  0  0  0  0
    7.3070    1.4044  -18.8706 O   0  0  0  0  0  0  0  0  0  0  0  0
    7.9970    3.8500  -18.6302 O   0  0  0  0  0  0  0  0  0  0  0  0
    4.2834    5.7662  -26.7095 O   0  0  0  0  0  0  0  0  0  0  0  0
    3.5561   -1.8890  -20.0124 F   0  0  0  0  0  0  0  0  0  0  0  0
    7.3907    0.8616  -22.8839 F   0  0  0  0  0  0  0  0  0  0  0  0
    5.4997   -3.2451  -21.4469 F   0  0  0  0  0  0  0  0  0  0  0  0
    5.4183    8.2795  -26.3299 F   0  0  0  0  0  0  0  0  0  0  0  0
    7.0346    2.8334  -19.0760 S   0  0  0  0  0  0  0  0  0  0  0  0
    3.7530    0.7125  -20.0842 H   0  0  0  0  0  0  0  0  0  0  0  0
    7.1955   -1.7083  -22.7280 H   0  0  0  0  0  0  0  0  0  0  0  0
    6.2057    5.1340  -20.4776 H   0  0  0  0  0  0  0  0  0  0  0  0
    7.6968    4.9506  -21.4624 H   0  0  0  0  0  0  0  0  0  0  0  0
    5.8845    2.5480  -23.4231 H   0  0  0  0  0  0  0  0  0  0  0  0
    4.2591    3.1585  -22.9626 H   0  0  0  0  0  0  0  0  0  0  0  0
    7.6403    2.5784  -21.3431 H   0  0  0  0  0  0  0  0  0  0  0  0
    7.1835    9.0382  -22.8669 H   0  0  0  0  0  0  0  0  0  0  0  0
    7.5145    9.2357  -24.6213 H   0  0  0  0  0  0  0  0  0  0  0  0
    5.9381    9.7623  -23.9397 H   0  0  0  0  0  0  0  0  0  0  0  0
    6.4694    2.9185  -16.4460 H   0  0  0  0  0  0  0  0  0  0  0  0
    5.1622    4.1498  -16.4844 H   0  0  0  0  0  0  0  0  0  0  0  0
    4.7506    2.4016  -16.5162 H   0  0  0  0  0  0  0  0  0  0  0  0
    3.0239    4.3997  -27.6767 H   0  0  0  0  0  0  0  0  0  0  0  0
    4.1898    3.6830  -26.5133 H   0  0  0  0  0  0  0  0  0  0  0  0
    2.7545    4.5788  -25.9098 H   0  0  0  0  0  0  0  0  0  0  0  0
    3.2913    3.5744  -17.5259 H   0  0  0  0  0  0  0  0  0  0  0  0
    3.4801    3.2219  -20.9521 H   0  0  0  0  0  0  0  0  0  0  0  0
  1  3  2  0
  1  4  1  0
  2  5  2  0
  2  6  1  0
  3  5  1  0
 15  3  1  6
  4  6  2  0
  4 28  1  0
  5 29  1  0
  6 30  1  0
  7  8  2  0
  7  9  1  0
  7 31  1  0
  8 16  1  0
  8 19  1  0
  9 20  2  0
  9 27  1  0
 10 19  2  0
 10 20  1  0
 10 23  1  0
 11 21  2  0
 11 22  1  0
 11 24  1  0
 12 14  1  0
 12 23  1  0
 13 15  1  0
 13 23  1  0
 14 15  1  0
 14 32  1  0
 15 22  1  0
 17 24  1  0
 18 27  1  0
 24 32  1  0
 25 32  2  0
 26 32  2  0
  1 33  1  0
  2 34  1  0
 12 35  1  0
 12 36  1  0
 13 37  1  0
 13 38  1  0
 14 39  1  6
 16 40  1  0
 16 41  1  0
 16 42  1  0
 17 43  1  0
 17 44  1  0
 17 45  1  0
 18 46  1  0
 18 47  1  0
 18 48  1  0
 21 49  1  0
 22 50  1  0
M  END
>  <OMEGA_C>  (1) 
GiGQQG5/RT73SKXBNGLOQPOelr9jP7HB4jmvQInWbz9CBavB6DSQQGSTmr8Mh6XBtVjOQI4aaj5H
KbHBP5KvQPV28r+Ua6vBZ6ywQJIK60Cf3MrBNFfFQGBq9EAxF8HBOcyeQOoawkAwUMzBv663QK/r
rkAEXLvBLwqLQOqQTEA4t5jBWXPWQIUBkUDFBarBKieqQJMAR0AWVLXBpaDZQOuJREC9pKbB5eSu
QJ88HkB6Y6rBJqzXQDsxEEEG/L7BGzCvQE4+SkAfyobBywphQAsGkUCZndXBYGDIQGMT1kBnebnB
1dGiQInspEDQecTB81pMQOFuW0AeFZTB43aKQNzCP0C+w6PBYB28QL4Aj0DR5bPBsPmwQOMhS0Dj
qJLBnNLpQDPCsz8X95bBvef/QNZldkCUCpXBVhGJQHqEuEAZrdXB8pZjQNnK8b9UGaDBx4DsQBOU
XD8wErfBe/2vQEOvT8Avk6vB6mKtQP14BEGzo9LBwBvhQDZWNUCsm5jBlzBwQHBpNj+GrKDBxUHm
QOWp2r/y0rXBXpXGQAVKpEAQ0qPB7kv2QDhrnkDtsqvBB068QKQSI0ByYrvB5kqIQKklSkBgs7fB
+Hz0QPsDJUClvqrBjN/lQIScEEFj77bBbXbwQE3FE0Fh+MTBFgW+QGIyHEGXhL/BJgXPQDXJOkB+
kYPBWjClQFHLhEAB4IPB1ASYQNOzGUBBIYTBvYdBQFXKjEDQad3BohKGQO+1a0A2G9TBW0kwQDWF
kkBTR8/BOaVSQIzCZEABNYzBurpeQPAzTkD6nafBdSbPQMJjpz6v4LDBhm+SQL8Spr+YrabB6cCt
QGdVcD+79qrBh5bSQJ1wiL/qi7HBIJuOQFouzj1b96XBmV60QHO78L/QYazBzlewQBG86kCHxsrB
Gg/FQHr880CmAcHBr+KeQDWqwUD4TMzB4Ba4QDIwrkBhZrvBAo+KQA/gTkBzkpjBrmrWQBFMkEAt
CKrBx8epQPDzRUBpQbXBFqXYQJgsQ0AAmKbBdlKtQAhwHkBaNqrBTCDXQHwDEEFI2L7B+CGvQKYy
SkCetYbB+1dkQKG7j0Bjy9XBboLIQDBr1UBhdbnBymCjQGQ5pECiicTB0ZJLQNfIXEDm2JPBKqGJ
QJXfQkDCo6PBQfC7QCJxjkD337PBUK2wQOaFTEB1k5LBMePnQDqAsD/I5pbBYRIAQYSSc0DzHJXB
lNSIQCRTuEA9odXBpB3zQI2kzr/IK7fBORFZQNycFT/FhqDBdZK3QFN1TsDv9qzB5K2sQJZtBEFT
fdLBC17gQJwVNECKlZjB81bmQJNKcj/V77TBRCN2QE3i9r+ezaLBywLHQAERpEBb2qPBxID2QJUG
nUA+wavBw168QLQKIUA7IrvBfiuIQO9NSUAX1rfB0/7yQChDIkAuu6rBNYnlQDNcEEFg0bbBv7Pv
QLDGE0GG28TB4Ei9QFvuG0HuSb/BOL7OQN4YOEBckYPB4FCmQP/nhEDUpoPB5i6XQIX3GkA3HYTB
9O9DQJbSi0Cai93BDxiJQCXbakB6odTBTJg0QLw0j0BNVM/BPjRSQBu/ZEDr84vBnd1dQNgEVECs
fqfB

>  <OMEGA_E>  (1) 
YJFOPuAnXD4=

>  <OMEGA_NBR>  (1) 
    132374

$$$$
330374
     RDKit          3D

 50 53  0  0  1  0  0  0  0  0999 V2000
    6.5534    0.4750  -22.0850 C   0  0  0  0  0  0  0  0  0  0  0  0
    4.6030    0.2733  -20.6286 C   0  0  0  0  0  0  0  0  0  0  0  0
    6.6526   -0.9236  -22.1509 C   0  0  0  0  0  0  0  0  0  0  0  0
    4.7053   -1.1267  -20.6985 C   0  0  0  0  0  0  0  0  0  0  0  0
    5.5338    1.0924  -21.3149 C   0  0  0  0  0  0  0  0  0  0  0  0
    5.7297   -1.7242  -21.4557 C   0  0  0  0  0  0  0  0  0  0  0  0
    5.4694    7.3287  -25.4652 C   0  0  0  0  0  0  0  0  0  0  0  0
    6.1144    7.6583  -24.2541 C   0  0  0  0  0  0  0  0  0  0  0  0
    4.9247    6.0388  -25.6140 C   0  0  0  0  0  0  0  0  0  0  0  0
    5.6945    5.5047  -23.4746 C   0  0  0  0  0  0  0  0  0  0  0  0
    4.2760    3.1729  -19.0477 C   0  0  0  0  0  0  0  0  0  0  0  0
    7.0989    4.3953  -21.7466 C   0  0  0  0  0  0  0  0  0  0  0  0
    5.2950    3.1967  -22.6369 C   0  0  0  0  0  0  0  0  0  0  0  0
    6.8277    3.2358  -20.7764 C   0  0  2  0  0  0  0  0  0  0  0  0
    5.4627    2.6230  -21.2391 C   0  0  2  0  0  0  0  0  0  0  0  0
    6.6723    9.0449  -24.0244 C   0  0  0  0  0  0  0  0  0  0  0  0
    5.4331    2.9815  -16.8360 C   0  0  0  0  0  0  0  0  0  0  0  0
    3.5587    4.4298  -26.7695 C   0  0  0  0  0  0  0  0  0  0  0  0
    6.2195    6.7350  -23.2802 N   0  0  0  0  0  0  0  0  0  0  0  0
    5.0456    5.1561  -24.6053 N   0  0  0  0  0  0  0  0  0  0  0  0
    3.1206    3.3402  -18.4549 N   0  0  0  0  0  0  0  0  0  0  0  0
    4.2976    3.1202  -20.4365 N   0  0  0  0  0  0  0  0  0  0  0  0
    5.8426    4.5506  -22.4960 N   0  0  0  0  0  0  0  0  0  0  0  0
    5.4630    3.0631  -18.3179 N   0  0  0  0  0  0  0  0  0  0  0  0
    8.0253    3.1408  -18.4328 O   0  0  0  0  0  0  0  0  0  0  0  0
    6.6238    5.2086  -18.9790 O   0  0  0  0  0  0  0  0  0  0  0  0
    4.2601    5.7015  -26.7818 O   0  0  0  0  0  0  0  0  0  0  0  0
    5.8246   -3.0699  -21.5183 F   0  0  0  0  0  0  0  0  0  0  0  0
    5.3532    8.2396  -26.4582 F   0  0  0  0  0  0  0  0  0  0  0  0
    6.8374    3.7556  -19.0401 S   0  0  0  0  0  0  0  0  0  0  0  0
    7.2600    1.0873  -22.6257 H   0  0  0  0  0  0  0  0  0  0  0  0
    3.8120    0.7266  -20.0497 H   0  0  0  0  0  0  0  0  0  0  0  0
    7.4363   -1.3836  -22.7345 H   0  0  0  0  0  0  0  0  0  0  0  0
    3.9956   -1.7455  -20.1696 H   0  0  0  0  0  0  0  0  0  0  0  0
    7.3386    5.3161  -21.1946 H   0  0  0  0  0  0  0  0  0  0  0  0
    7.9285    4.1483  -22.4254 H   0  0  0  0  0  0  0  0  0  0  0  0
    5.8637    2.6135  -23.3762 H   0  0  0  0  0  0  0  0  0  0  0  0
    4.2351    3.2258  -22.9296 H   0  0  0  0  0  0  0  0  0  0  0  0
    7.6175    2.4771  -20.8794 H   0  0  0  0  0  0  0  0  0  0  0  0
    7.1159    9.1005  -23.0194 H   0  0  0  0  0  0  0  0  0  0  0  0
    7.4444    9.2588  -24.7782 H   0  0  0  0  0  0  0  0  0  0  0  0
    5.8624    9.7845  -24.1090 H   0  0  0  0  0  0  0  0  0  0  0  0
    6.3605    3.4080  -16.4260 H   0  0  0  0  0  0  0  0  0  0  0  0
    4.5699    3.5469  -16.4552 H   0  0  0  0  0  0  0  0  0  0  0  0
    5.3466    1.9289  -16.5286 H   0  0  0  0  0  0  0  0  0  0  0  0
    3.0719    4.2695  -27.7429 H   0  0  0  0  0  0  0  0  0  0  0  0
    4.2758    3.6175  -26.5801 H   0  0  0  0  0  0  0  0  0  0  0  0
    2.7970    4.4390  -25.9760 H   0  0  0  0  0  0  0  0  0  0  0  0
    3.2118    3.3753  -17.4597 H   0  0  0  0  0  0  0  0  0  0  0  0
    3.4865    3.4331  -20.9308 H   0  0  0  0  0  0  0  0  0  0  0  0
  1  3  2  0
  1  5  1  0
  2  4  1  0
  2  5  2  0
  3  6  1  0
  4  6  2  0
 15  5  1  6
  6 28  1  0
  7  8  2  0
  7  9  1  0
  7 29  1  0
  8 16  1  0
  8 19  1  0
  9 20  2  0
  9 27  1  0
 10 19  2  0
 10 20  1  0
 10 23  1  0
 11 21  2  0
 11 22  1  0
 11 24  1  0
 12 14  1  0
 12 23  1  0
 13 15  1  0
 13 23  1  0
 14 15  1  0
 14 30  1  0
 15 22  1  0
 17 24  1  0
 18 27  1  0
 24 30  1  0
 25 30  2  0
 26 30  2  0
  1 31  1  0
  2 32  1  0
  3 33  1  0
  4 34  1  0
 12 35  1  0
 12 36  1  0
 13 37  1  0
 13 38  1  0
 14 39  1  1
 16 40  1  0
 16 41  1  0
 16 42  1  0
 17 43  1  0
 17 44  1  0
 17 45  1  0
 18 46  1  0
 18 47  1  0
 18 48  1  0
 21 49  1  0
 22 50  1  0
M  END
>  <OMEGA_C>  (2) 
k7XRQJA38z4drrDBtkuTQIzuiz5wB6XBLOLUQDBwbL8dNbHBdpGWQJs2kL+NlqXBORWxQBjTiz/4
hKrB41m3QNKz3L9JpavB+gSvQAuF6kCzuMvBwqjDQHEQ9UBQCMLB15adQPQ9wUBi6czBDzm2QFUm
sED4y7vBH9WIQLwQS0C1YZjBOyrjQG2mjED6+K3Bz3CpQCWXTEBdGLXBIXzaQGcXT0AHNqbBFs6u
QBvfJ0CU6anBWYPVQP63EEERMsDBKtytQHTQPkA5sIbBNMFjQNfAjUAIKNbB/gXHQFmF10DXPbrB
fHWhQHb+pECy18TBC7hHQKfFVUCvo5PB8IWJQA+yR0D+faPBjva6QByekUC197PBCtGuQBAJREAE
i5LBrWcAQUECSUBNdpPBYvbTQDOtpkAB1ZfBFFOIQPBytkAqQdbBTWO6QJZ4RMCHJazBzE2rQFzV
A0FlqtPB4MvaQDRbcEAmUpjBv1HoQP8riz9nAbXBaPdzQGsFOj/DZaDBPPbtQLoZsb9b4LXBd7d/
QDdt379MW6HB6NXqQG8dqkB4jqnBF7b9QIe+hEAqZ7PBTKO7QAtEJ0BdArvBqIWHQMNyTkC9b7fB
RsLzQFGJHkABCafBM7XjQHabEUG0J7jBVTjuQAwkFEG7OcbBDpm7QFWNHEFS38DB4ojLQA8dWkCH
aIPBSzySQFYAY0AupIPBFherQEPl9j+GOoTBw5pEQNOfiEB08d3BJdOIQHGEZ0AgpNTBEgIzQPQL
jkDEzs/Bs41NQEcEWEB6rYvBWCNfQDO4W0A1cqfBf/nNQDaNmj7FLbHBGPOPQOuBMj4GUKXBYOzP
QHCzjL9rgbHB5gKSQBUYnb87rKXBkC6uQNtUdD/kA6vBNRCyQCJ07r8UuKvBrMCwQNfS6kBA4crB
kY3FQGAv9EAVIcHBwf+eQDTcwUCCV8zBNXy3QBHLrkDVWLvBvMWKQB74TED8oJjBx03WQL2hkECV
E6rBpbqpQIPQRkAATLXB1uzYQBKTQ0D4uabBj8atQOqaHkCuU6rBFEnYQDoGEEHxFb/Bes2vQEU+
S0BC0IbB0HVfQPShkUC5mtXBMWHIQMvp1UBJfLnB1/iiQOWrpEBbgcTBejdMQBV6W0BI4pPBVZqJ
QEocQEALrKPBkNm6QKw0j0AGwrPBnRGxQGHhS0BOr5LBL7XoQK7QsD9MEpfBTDcAQYj/c0CUPJXB
ZnmJQLZRuEC2u9XBviS0QLt9TcA7+avBslqtQHpbBEECqNLBD9jgQCoqNEBquJjBE9zkQJb1Yj+v
p7XBeYVuQK7bKD+CraDBBFPoQBmVy7/sMbbBmex1QBm76L96TaHBQofHQIAypEAiw6PBDDb2QPZp
nUA6+avB7cG8QHZmI0AhO7vBdRaIQKrNSEDi37fBYV7zQPVGI0D75qrBI5PmQFF1EEHdC7fBGhPx
QNtwE0FnGMXBM9W+QPAhHEGfob/BHaHPQL6rOkA4rYPBHoSmQLp+hUB444PBCFCYQDeaG0CfE4TB
BYlAQNVjjUA8cN3Bz1iEQKzTa0Bj6tPBQSYuQGdIlEDXW8/BvTpTQPDSZEC1BIzB9a9cQKJ1TkCF
dafBO8qPQD3xOz5YWKXBYljOQIpBnD7DCrHBe3GRQBrpm7+zzaXBZ9zPQD46jL9zebHB82quQA3Z
dT9c8KrBG3SxQH+a7b/j2KvBb7mwQKHG6kCH68rBM27FQBwr9EAQKMHBPwufQA3KwUDIYszBcwK4
QBOWrkDFbrvBKq6KQFqETEB9mZjB0JvWQB+wkEDdC6rB/DqqQNuVRkBSTbXBxCbZQM/KQ0C7pabB
wRCuQCnyHkDESKrBamvWQMFIEEEQ6b7BmmSvQLYOSkB4vIbBaWhfQJRlkUDgjdXBw2/IQH3Z1UC7
h7nBqlCjQDOApEAIk8TB7tNLQNdgWkDu3pPB3dCJQOLWQEB7q6PB0hm8QObUjkDg5rPBqdawQDTi
SkAynJLB2u3oQGHCsD9QBJfBCwoAQWUydEAhDpXB5cmIQBeCuEA4sNXBlNGyQM4OTcAhTqzBVvSs
QM5jBEEDqdLB9cjgQIIYNEABn5jBpj1uQLrJKz8FuKDBeqvlQC9WYz/gY7XBfjl0QBFO57/bgqHB
lljoQLtfy79UH7bBVBXHQNhCpEDZ2KPBZJz2QA6mnUA8wqvBZ928QAEQIkCPNbvB5JKIQKyISUBO
2rfBHaHzQK5aI0DdyqrBNL3jQNLXEEEAxbbBK6XvQNAzFEEUusTBGTy8QOv2G0Fbmr/BAT7PQHz+
OUCGkoPBBcmlQL3MhEB1zoPBqhGYQOv4GUA9CITBqRs/QIlejUDoTt3BG+6EQALba0AEGdTBvj8v
QLVBk0D5Js/BF4pSQJHYYkBU/IvBPqBdQFFZUED5f6fB

>  <OMEGA_E>  (2) 
8Nc4PlCpRT64Bkc+

>  <OMEGA_NBR>  (2) 
    122185

$$$$
330375
     RDKit          3D

 50 53  0  0  1  0  0  0  0  0999 V2000
    5.4764   -1.9067  -21.4219 C   0  0  0  0  0  0  0  0  0  0  0  0
    6.4517   -1.1945  -22.1397 C   0  0  0  0  0  0  0  0  0  0  0  0
    4.5028    0.1888  -20.6622 C   0  0  0  0  0  0  0  0  0  0  0  0
    5.4828    0.9279  -21.3744 C   0  0  0  0  0  0  0  0  0  0  0  0
    4.5002   -1.2128  -20.6884 C   0  0  0  0  0  0  0  0  0  0  0  0
    6.4616    0.2123  -22.1269 C   0  0  0  0  0  0  0  0  0  0  0  0
    5.5231    7.3384  -25.3608 C   0  0  0  0  0  0  0  0  0  0  0  0
    6.1737    7.6345  -24.1422 C   0  0  0  0  0  0  0  0  0  0  0  0
    4.9534    6.0624  -25.5317 C   0  0  0  0  0  0  0  0  0  0  0  0
    5.7312    5.4705  -23.4096 C   0  0  0  0  0  0  0  0  0  0  0  0
    4.3415    3.2016  -19.1054 C   0  0  0  0  0  0  0  0  0  0  0  0
    6.7055    4.5315  -21.2467 C   0  0  0  0  0  0  0  0  0  0  0  0
    5.3421    3.1012  -22.6708 C   0  0  0  0  0  0  0  0  0  0  0  0
    6.8078    3.0682  -20.8266 C   0  0  2  0  0  0  0  0  0  0  0  0
    5.4765    2.4658  -21.3021 C   0  0  2  0  0  0  0  0  0  0  0  0
    6.7861    8.9957  -23.9007 C   0  0  0  0  0  0  0  0  0  0  0  0
    5.4609    3.2078  -16.8580 C   0  0  0  0  0  0  0  0  0  0  0  0
    3.5216    4.5137  -26.6935 C   0  0  0  0  0  0  0  0  0  0  0  0
    6.2639    6.6915  -23.1839 N   0  0  0  0  0  0  0  0  0  0  0  0
    5.0733    5.1569  -24.5454 N   0  0  0  0  0  0  0  0  0  0  0  0
    3.1865    3.4421  -18.5359 N   0  0  0  0  0  0  0  0  0  0  0  0
    4.3318    2.9925  -20.4851 N   0  0  0  0  0  0  0  0  0  0  0  0
    5.8732    4.4720  -22.4766 N   0  0  0  0  0  0  0  0  0  0  0  0
    5.5228    3.1821  -18.3411 N   0  0  0  0  0  0  0  0  0  0  0  0
    7.2865    1.3945  -18.8667 O   0  0  0  0  0  0  0  0  0  0  0  0
    7.9998    3.8325  -18.6196 O   0  0  0  0  0  0  0  0  0  0  0  0
    4.2760    5.7559  -26.7016 O   0  0  0  0  0  0  0  0  0  0  0  0
    3.5541   -1.8915  -20.0031 F   0  0  0  0  0  0  0  0  0  0  0  0
    7.4197    0.8400  -22.8495 F   0  0  0  0  0  0  0  0  0  0  0  0
    5.4317    8.2643  -26.3425 F   0  0  0  0  0  0  0  0  0  0  0  0
    7.0296    2.8263  -19.0722 S   0  0  0  0  0  0  0  0  0  0  0  0
    5.4772   -2.9866  -21.4341 H   0  0  0  0  0  0  0  0  0  0  0  0
    7.1993   -1.7308  -22.7053 H   0  0  0  0  0  0  0  0  0  0  0  0
    3.7493    0.7128  -20.0928 H   0  0  0  0  0  0  0  0  0  0  0  0
    6.2153    5.1328  -20.4669 H   0  0  0  0  0  0  0  0  0  0  0  0
    7.6993    4.9507  -21.4624 H   0  0  0  0  0  0  0  0  0  0  0  0
    5.9352    2.5530  -23.4176 H   0  0  0  0  0  0  0  0  0  0  0  0
    4.2892    3.1299  -22.9881 H   0  0  0  0  0  0  0  0  0  0  0  0
    7.6518    2.5797  -21.3354 H   0  0  0  0  0  0  0  0  0  0  0  0
    7.2501    9.0179  -22.9036 H   0  0  0  0  0  0  0  0  0  0  0  0
    7.5513    9.1942  -24.6656 H   0  0  0  0  0  0  0  0  0  0  0  0
    6.0024    9.7655  -23.9575 H   0  0  0  0  0  0  0  0  0  0  0  0
    6.4546    2.9801  -16.4450 H   0  0  0  0  0  0  0  0  0  0  0  0
    5.1442    4.2061  -16.5217 H   0  0  0  0  0  0  0  0  0  0  0  0
    4.7376    2.4565  -16.5083 H   0  0  0  0  0  0  0  0  0  0  0  0
    3.0295    4.3765  -27.6677 H   0  0  0  0  0  0  0  0  0  0  0  0
    4.2041    3.6717  -26.5058 H   0  0  0  0  0  0  0  0  0  0  0  0
    2.7603    4.5524  -25.9005 H   0  0  0  0  0  0  0  0  0  0  0  0
    3.2787    3.5960  -17.5521 H   0  0  0  0  0  0  0  0  0  0  0  0
    3.4874    3.2130  -20.9732 H   0  0  0  0  0  0  0  0  0  0  0  0
  1  2  2  0
  1  5  1  0
  2  6  1  0
  3  4  1  0
  3  5  2  0
  4  6  2  0
 15  4  1  6
  5 28  1  0
  6 29  1  0
  7  8  2  0
  7  9  1  0
  7 30  1  0
  8 16  1  0
  8 19  1  0
  9 20  2  0
  9 27  1  0
 10 19  2  0
 10 20  1  0
 10 23  1  0
 11 21  2  0
 11 22  1  0
 11 24  1  0
 12 14  1  0
 12 23  1  0
 13 15  1  0
 13 23  1  0
 14 15  1  0
 14 31  1  0
 15 22  1  0
 17 24  1  0
 18 27  1  0
 24 31  1  0
 25 31  2  0
 26 31  2  0
  1 32  1  0
  2 33  1  0
  3 34  1  0
 12 35  1  0
 12 36  1  0
 13 37  1  0
 13 38  1  0
 14 39  1  6
 16 40  1  0
 16 41  1  0
 16 42  1  0
 17 43  1  0
 17 44  1  0
 17 45  1  0
 18 46  1  0
 18 47  1  0
 18 48  1  0
 21 49  1  0
 22 50  1  0
M  END
>  <OMEGA_C>  (3) 
jD6vQDsN9L8DYKvBd3TOQJHmmL8KHrHBnBaQQPtXQT47TKXB93KvQP6NbT/V/qrB0QGQQJk7m7/G
gaXBGsXOQPpfWT7fA7HBfL2wQMrT6kD74srBpY7FQLhN9EAjI8HBjYKeQGj/wUAFQczBlWW3QFUO
r0DpRrvBye2KQLnmTEDQ15jBepPWQOsBkUA9+anBVfKqQBB6RkDXXbXBc9nZQK5dREDLnKbBlz+v
QEzPHUDGaqrBjyfZQE3uD0GfNL/Brr+uQBVNTUBI3YbBO2JhQERwkEBAjNXB7XHIQIUg1kCreLnB
JliiQLIFpUD7XMTBx+9LQB1LXEBxSZTBXp6KQPmEP0Br4aPBh/G7QO8aj0D7z7PBDbuwQG+nS0B8
upLBZyvpQIh9sj/17pbBKP7/QEJHdUAL9ZTBANWIQGswuED4nNXBw3VjQM4d8r9LBqDB5G3tQDIL
Vz/dy7bBwdCtQJE6BEGEvdLBofLgQOniNEDmk5jBmUWvQDEkP8AXeavBeWDmQLaL3b94pLXBAfVv
QD95Nj8lvqDBcePGQPA/pEA4vKPB/WD2QEhsnkADs6vBee29QM5kI0A8V7vBTkGJQNtQSECc57fB
29v0QP4ZJUD3rqrBvgDoQF9JEEGSOrfBB6TxQJ8bE0EbU8XBrRPAQHo/HEEFqb/BeIzOQEK5PkBs
j4PBKp2kQGqYhkBqLITBbpqXQAY3HUACEYTBAeRBQJYMjEBjV93BpoeGQHz8akDLC9TBLqgwQJmt
kUA0NM/B59ZRQFMkZkCsaozBYTFfQIeiTUAcyafBP0W0QKB68r+icazBrV2SQDuqp7+ku6bBB1jP
QNSBoT5g1bDB8+mtQAi3bT/a76rBAaDSQJgVir/libHBoa6OQNZptz1Q+KXByrKwQAW06kDBxsrB
S0bFQF3d80AT/MDBIB6fQL6xwUCxUszBZ9K3QHkirkBTYbvBDaiKQK5dTkAxkZjB7TTWQBY6kECO
B6rBaM+pQM1vRUBXQ7XB1arYQP8GQ0CmmqbBPWatQPDoHUBiNarB09vWQKYDEEFzu77BKlivQC7h
SkDMtIbB44NiQFKJkEDDt9XBaz/IQIdZ1UAJabnBVFmjQAU3pEANjsTBSPhLQChIXUBc15PBN6+J
QLE9QkASoqPBidu7QPlDjkA+47PB7MSwQGx8S0CXk5LBp7DoQEDksD/l75bB7vT/QKRldEDPI5XB
2+6IQKuMuEATpdXB7RPzQBHR0L84JrfBDUhZQGTsEj/GhKDBwQmtQE14BEGcdtLBj5LgQN8YNEAf
mpjB2/m2QHwLPsDe6azBA8x1QOZn+L/646LBYa3mQEgcbz+b2bTBVZ7GQFzgo0Dy2qPByjz2QFUm
nUD5uavBBnS8QMicIECkI7vBRjKIQMuYSEBL2LfBahDzQL9iIkCqwarB1InkQHdrEEFhoLbBh+vv
QMrYE0Fnm8TBGem8QOXYG0GiU7/BhifPQBGEOkCyioPBV+ulQPNJhUDdyoPBW+SXQPwZG0CV/IPB
VBFCQIa1jEDzd93BQn+HQKZsa0BdeNTBKKIyQIrikEBsRM/BL8RSQN6JZUAn9IvBdOVdQDE1U0DD
e6fBv/mpQE3u5r9JsK7BFMPLQKAkir9uTbPBhAuOQGCOeD6m0qbBrvuvQI5Wfj/1W6vBug+LQP3m
kb8xgKjBPPrOQHzUnj5LvrHBg1msQP+n5kC6rcvBV+ibQI/kvEAlLszBSgbDQJVy80APdsLB8264
QClMr0CaRrvBX1eLQIDzSkCdXJjBFWjXQChTk0Bgc6nB9cmrQCQGS0DBwbTB497aQGYwSECMH6bB
B3GwQHRxIUChAKrB+yp+QHeGrkCCNtXBl9WtQJZRO0BsZIbBm87oQFmPFEHnbbjBSESiQJpZokCg
/MPBlOHIQFcn10BXVrrBMipMQBY0WEDi2ZPBlK+LQPLWQUBWb6PB1Re8QK9vkUDRObPBosawQLAk
R0C+J5LBrdHrQP+3tj9jtJbBfgP/QHrEeEC5HZTB/1vRQCinDkEq8MHBRfdTQKzJ6b83O6TB1Jzv
QHatdD/vqrbBiKqlQKQ7AUG7ytPBHJ/hQD6DNkDcDpjB9cSnQEfDN8DV5a/BtG3jQEnIy78pFLjB
C2RsQE4PPj+9A6LBTRXIQC5/pkCCJKPB1Rn3QITEoEDOSKvBz9q+QGvjKECuzLrBlQaKQI4jTEDU
PbfBDAP2QO2DKUCoNarBwPJlQHMtjkBchNPBEf5HQMzOxEAw9NXB7lCRQDgmrkBqvdzBHFbNQHvA
KECqOYPB2ZWjQCOgd0DqpILB22OWQGfSCEA/l4TBkGbyQMJ1JUGL9rjBzF/UQOA+EkGUW7HB88AC
Qf93CkHmuLfBtBJRQJeeXkBD6ovBDh9iQB9cUkDpXKfBOVSvQMJv5b+Iiq/BQXiOQCIqnr8BTKnB
4iPPQKAb0T4omLHB6EiuQBiOfj9zUKvBUILPQKBjd7/PvrPB11aNQNiuFj5xOafBPfWrQNln5kBU
q8vBJk+cQGdfvECCOczBuGLCQKdt80A6b8LByMi4QF/8rkDkS7vBY9aKQPDbTEB7MZjB3TDXQPWK
kkAabKnBm7mqQGDsSkDIrbTB4pzZQNo6RkAZKqbBGHmuQOSgIUDQ3qnB5ux/QBqcrUDiT9XBEwuu
QC6YO0DIVYbBIWXmQMz1FEEaSLjBlSGjQKPJoUDHEMTB+K/IQBcY10AsU7rBFZ9LQLT0WUAVj5PB
J5iKQBagRECcR6PBqay7QFNDkUCvK7PB546wQLxiR0DYGZLB3O7oQNChrT9y8JbBDNP/QGwcckCC
PpTBedjPQBrJDkEo4MHBhJ/uQOtovr8W/bnBLqNXQFTFHD/neaHB8MSkQGQcAUGSwdPB17/gQFTr
MkBzKJjBodOvQOKwNsCYGrHBuqdrQCYJ8L/oDabBFE3oQOpChD9uxbTBQ2LIQOfxpUDJFKPBiSP3
QLBTn0B3RqvBGtS9QM3gJ0DPobrBWhuJQC37TEBFRrfBYRf0QK1XJkAhYKrBkxVpQHH1jECMrtPB
x81IQNdOw0DpC9bBdlOSQI7VrUDH0dzByVLNQJZ3JkCNSIPBKDilQIOaeEDNiYLBI7aVQJH6CkBI
doTB1ljvQFXzJUFsy7jBhJXRQGB4EkFeS7HBY7gBQR4pC0ExcbfBhzBRQHwBX0BCnYvBcYhgQH2t
V0BKJ6fB

>  <OMEGA_E>  (3) 
YD1WPlAXZz6AtdA+SC7WPg==

>  <OMEGA_NBR>  (3) 
    130391

$$$$
330378
     RDKit          3D

 50 53  0  0  1  0  0  0  0  0999 V2000
    4.4949    0.1893  -20.6701 C   0  0  0  0  0  0  0  0  0  0  0  0
    4.5113   -1.2125  -20.6806 C   0  0  0  0  0  0  0  0  0  0  0  0
    6.4615   -1.1834  -22.1357 C   0  0  0  0  0  0  0  0  0  0  0  0
    5.4730    0.9324  -21.3829 C   0  0  0  0  0  0  0  0  0  0  0  0
    5.4975   -1.8982  -21.4059 C   0  0  0  0  0  0  0  0  0  0  0  0
    6.4573    0.2219  -22.1337 C   0  0  0  0  0  0  0  0  0  0  0  0
    5.5254    7.3389  -25.3589 C   0  0  0  0  0  0  0  0  0  0  0  0
    6.1818    7.6314  -24.1425 C   0  0  0  0  0  0  0  0  0  0  0  0
    4.9558    6.0631  -25.5321 C   0  0  0  0  0  0  0  0  0  0  0  0
    5.7319    5.4697  -23.4107 C   0  0  0  0  0  0  0  0  0  0  0  0
    4.3396    3.2024  -19.1032 C   0  0  0  0  0  0  0  0  0  0  0  0
    6.7013    4.5302  -21.2475 C   0  0  0  0  0  0  0  0  0  0  0  0
    5.3312    3.1055  -22.6719 C   0  0  0  0  0  0  0  0  0  0  0  0
    6.8008    3.0669  -20.8305 C   0  0  2  0  0  0  0  0  0  0  0  0
    5.4671    2.4686  -21.3054 C   0  0  2  0  0  0  0  0  0  0  0  0
    6.7585    9.0046  -23.8831 C   0  0  0  0  0  0  0  0  0  0  0  0
    5.4617    3.1737  -16.8580 C   0  0  0  0  0  0  0  0  0  0  0  0
    3.5150    4.5206  -26.6923 C   0  0  0  0  0  0  0  0  0  0  0  0
    6.2644    6.6899  -23.1826 N   0  0  0  0  0  0  0  0  0  0  0  0
    5.0761    5.1563  -24.5476 N   0  0  0  0  0  0  0  0  0  0  0  0
    3.1873    3.4457  -18.5296 N   0  0  0  0  0  0  0  0  0  0  0  0
    4.3252    2.9950  -20.4836 N   0  0  0  0  0  0  0  0  0  0  0  0
    5.8707    4.4722  -22.4782 N   0  0  0  0  0  0  0  0  0  0  0  0
    5.5225    3.1772  -18.3415 N   0  0  0  0  0  0  0  0  0  0  0  0
    7.2765    1.3851  -18.8774 O   0  0  0  0  0  0  0  0  0  0  0  0
    8.0009    3.8191  -18.6239 O   0  0  0  0  0  0  0  0  0  0  0  0
    4.2754    5.7594  -26.7010 O   0  0  0  0  0  0  0  0  0  0  0  0
    5.5161   -3.2480  -21.4051 F   0  0  0  0  0  0  0  0  0  0  0  0
    7.4116    0.8521  -22.8598 F   0  0  0  0  0  0  0  0  0  0  0  0
    5.4231    8.2704  -26.3339 F   0  0  0  0  0  0  0  0  0  0  0  0
    7.0254    2.8188  -19.0777 S   0  0  0  0  0  0  0  0  0  0  0  0
    3.7296    0.7100  -20.1137 H   0  0  0  0  0  0  0  0  0  0  0  0
    3.7644   -1.7650  -20.1299 H   0  0  0  0  0  0  0  0  0  0  0  0
    7.2106   -1.7171  -22.7018 H   0  0  0  0  0  0  0  0  0  0  0  0
    6.2107    5.1310  -20.4675 H   0  0  0  0  0  0  0  0  0  0  0  0
    7.6959    4.9487  -21.4613 H   0  0  0  0  0  0  0  0  0  0  0  0
    5.9183    2.5547  -23.4215 H   0  0  0  0  0  0  0  0  0  0  0  0
    4.2773    3.1407  -22.9852 H   0  0  0  0  0  0  0  0  0  0  0  0
    7.6424    2.5774  -21.3423 H   0  0  0  0  0  0  0  0  0  0  0  0
    7.1934    9.0354  -22.8731 H   0  0  0  0  0  0  0  0  0  0  0  0
    7.5409    9.2199  -24.6257 H   0  0  0  0  0  0  0  0  0  0  0  0
    5.9609    9.7580  -23.9619 H   0  0  0  0  0  0  0  0  0  0  0  0
    6.4530    2.9261  -16.4505 H   0  0  0  0  0  0  0  0  0  0  0  0
    5.1567    4.1685  -16.5013 H   0  0  0  0  0  0  0  0  0  0  0  0
    4.7300    2.4238  -16.5230 H   0  0  0  0  0  0  0  0  0  0  0  0
    3.0213    4.3860  -27.6660 H   0  0  0  0  0  0  0  0  0  0  0  0
    4.1936    3.6753  -26.5054 H   0  0  0  0  0  0  0  0  0  0  0  0
    2.7546    4.5629  -25.8985 H   0  0  0  0  0  0  0  0  0  0  0  0
    3.2831    3.5970  -17.5458 H   0  0  0  0  0  0  0  0  0  0  0  0
    3.4793    3.2167  -20.9686 H   0  0  0  0  0  0  0  0  0  0  0  0
  1  2  2  0
  1  4  1  0
  2  5  1  0
  3  5  2  0
  3  6  1  0
  4  6  2  0
 15  4  1  6
  5 28  1  0
  6 29  1  0
  7  8  2  0
  7  9  1  0
  7 30  1  0
  8 16  1  0
  8 19  1  0
  9 20  2  0
  9 27  1  0
 10 19  2  0
 10 20  1  0
 10 23  1  0
 11 21  2  0
 11 22  1  0
 11 24  1  0
 12 14  1  0
 12 23  1  0
 13 15  1  0
 13 23  1  0
 14 15  1  0
 14 31  1  0
 15 22  1  0
 17 24  1  0
 18 27  1  0
 24 31  1  0
 25 31  2  0
 26 31  2  0
  1 32  1  0
  2 33  1  0
  3 34  1  0
 12 35  1  0
 12 36  1  0
 13 37  1  0
 13 38  1  0
 14 39  1  6
 16 40  1  0
 16 41  1  0
 16 42  1  0
 17 43  1  0
 17 44  1  0
 17 45  1  0
 18 46  1  0
 18 47  1  0
 18 48  1  0
 21 49  1  0
 22 50  1  0
M  END
>  <OMEGA_C>  (4) 
DNaPQF3PQT5tXKXB8FyQQHMzm7/OcaXBhMTOQJ56l7/hFbHBJCOvQOKxbj8oEKvBr+uvQPv48r9N
P6vBCaLOQLo4Yz7MEbHB4s+wQC/Y6kDv3srBLtHFQDM09EDiI8HBspWeQN8EwkC1QczBY2u3QKYH
r0AkSbvBUd6KQF/zTEBJ05jBVnHWQJ73kEDk+qnBHZmqQO7ARkAWYLXB/Z/ZQIpIREDepKbBIPKu
QNL8HUBdcarB0UXYQO0SEEGGEL/BWsauQJ8dS0A13YbBn/VgQP6okEDOidXBP3bIQH4T1kAKdrnB
Vm+iQKMApUCPYcTBevxLQJuFXECZPJTBFGiKQOStP0BZ3qPB5ty7QEYcj0Bj07PBdriwQPBXS0BO
u5LB39joQFdLsT/UBJfBuAMAQblsdEDE/ZTBVNCIQMZMuECpm9XB6IOwQMnfT8CQPavBmyvtQHwg
Wj/k4LbBN4qtQIZTBEHkq9LBUtDgQMBmNEAPn5jB/bFuQE/DNT/l6KDBRexwQHrs4b8PCqHB1bzm
QPjI279enbXBA77GQP4wpEB/vaPBzkT2QNVbnkDFsKvBFGO9QCSAI0AuX7vB4N+IQAMBSUCq4bfB
5470QCf0JEAWvarBDTDmQCiREEEv/LbBEE/xQKiEE0F+AcXB0r++QN0gHEHksb/B8X7OQP9FO0CU
moPBEASlQKtkhUCfAoTB/VuXQMEfG0AFL4TBoVxBQA9ajED5U93BrjGGQNk3a0ALC9TB2EswQC4D
kkAsMM/B/R1SQFk1ZkC4XYzBMKxeQAPeTUCkv6fBTD7PQMDXnz5K7LDB/FTSQNWYir98nrHBsF+S
QA+9pr+Jq6bBav+tQBgbbj/c96rB5v+zQEjs8b89dazBReKOQKIsxD0O6KXByWCwQDmi6kBtxMrB
mL3EQBcL9EB49sDBF+SeQJKWwUBJR8zB/qW3QEZGrkDPUrvBAbGKQLEoT0CFopjBm73WQCAVkEBq
DqrBFS2qQFl2RUCeR7XBWejYQK+sQkAOmqbBpp+tQIn3HUCaO6rB6lHXQHH3D0FN4b7BkAavQNeJ
SkAqv4bBDElhQMG9kEDrodXBgAXIQEyM1UCZYrnBLgijQPxEpEBMecTBRMFLQFl3XUDb8pPBqt+J
QFKiQkCGsaPBpP67QONTjkC+27PBrLywQEPWTEBsnJLBl7PnQALLrz8u25bBWCsAQWkCc0A3GpXB
aGGJQKYUuEC7q9XBT/a2QLX5TsDKIa3BB1laQOAxFT+2V6DBbvesQI1NBEF3htLBFXHgQOfFM0Ci
k5jBNormQKF3bT/a+7TBOgbsQCmMxL81H7bBPvl1QK0n979TxaLBIpLHQMrto0A326PB/dP2QKSv
nECc1avBEAi9QKrcIECqIrvB55yIQMRXSEBP6LfBC03zQNuwIUCPtqrB0urlQHBQEEHT37bBeNbv
QIaKE0Gl78TBt7i9QPgDHEEhUb/B2YjOQFsIOEATlIPBcF+mQC0ihUBgsoPBxuOWQE+eG0DaK4TB
/iJCQGOIjEAtdN3BJQOGQLfxakBlE9TBfzcwQGlpkkAJVs/BVjRSQEy8ZUCJDozBZmReQImNU0CL
kqfB

>  <OMEGA_E>  (4) 
EMo6PgAmTz4=

>  <OMEGA_NBR>  (4) 
    134357

$$$$
