50491831
     RDKit          3D

 50 53  0  0  1  0  0  0  0  0999 V2000
    6.3942    0.2947  -21.8575 C   0  0  0  0  0  0  0  0  0  0  0  0
    6.1628   -1.1415  -21.6721 C   0  0  0  0  0  0  0  0  0  0  0  0
    5.4314    7.3230  -25.4025 C   0  0  0  0  0  0  0  0  0  0  0  0
    5.4575    1.0660  -21.2081 C   0  0  0  0  0  0  0  0  0  0  0  0
    5.8833    7.6753  -24.1141 C   0  0  0  0  0  0  0  0  0  0  0  0
    5.0246    5.9979  -25.6280 C   0  0  0  0  0  0  0  0  0  0  0  0
    5.0647   -1.3980  -20.8885 C   0  0  0  0  0  0  0  0  0  0  0  0
    5.7433    5.4450  -23.4730 C   0  0  0  0  0  0  0  0  0  0  0  0
    6.7491    3.2229  -19.1352 C   0  0  0  0  0  0  0  0  0  0  0  0
    4.3168    3.2788  -19.0892 C   0  0  0  0  0  0  0  0  0  0  0  0
    6.7380    4.6015  -21.2832 C   0  0  0  0  0  0  0  0  0  0  0  0
    5.3960    3.1055  -22.6371 C   0  0  0  0  0  0  0  0  0  0  0  0
    6.7227    3.1981  -20.6688 C   0  0  2  0  0  0  0  0  0  0  0  0
    5.4300    2.5773  -21.2186 C   0  0  2  0  0  0  0  0  0  0  0  0
    7.5932    9.4485  -23.7661 C   0  0  0  0  0  0  0  0  0  0  0  0
    5.5787    3.2540  -16.9257 C   0  0  0  0  0  0  0  0  0  0  0  0
    3.4667    4.5766  -26.7576 C   0  0  0  0  0  0  0  0  0  0  0  0
    6.1027    9.1188  -23.7281 C   0  0  0  0  0  0  0  0  0  0  0  0
    6.0753    6.7204  -23.1859 N   0  0  0  0  0  0  0  0  0  0  0  0
    5.1802    5.0841  -24.6489 N   0  0  0  0  0  0  0  0  0  0  0  0
    4.2612    3.0992  -20.4659 N   0  0  0  0  0  0  0  0  0  0  0  0
    5.9056    4.4789  -22.5085 N   0  0  0  0  0  0  0  0  0  0  0  0
    5.5486    3.2068  -18.4054 N   0  0  0  0  0  0  0  0  0  0  0  0
    3.1958    3.5178  -18.4564 N   0  0  0  0  0  0  0  0  0  0  0  0
    7.8327    3.3422  -18.5742 O   0  0  0  0  0  0  0  0  0  0  0  0
    4.4095    5.6743  -26.8224 O   0  0  0  0  0  0  0  0  0  0  0  0
    5.3143    8.2486  -26.3824 F   0  0  0  0  0  0  0  0  0  0  0  0
    4.2890    0.0696  -20.3769 S   0  0  0  0  0  0  0  0  0  0  0  0
    4.5205   -2.9910  -20.4411 Cl  0  0  0  0  0  0  0  0  0  0  0  0
    7.2086    0.7015  -22.4386 H   0  0  0  0  0  0  0  0  0  0  0  0
    6.7859   -1.9109  -22.1034 H   0  0  0  0  0  0  0  0  0  0  0  0
    6.3024    5.3350  -20.5887 H   0  0  0  0  0  0  0  0  0  0  0  0
    7.7644    4.9032  -21.5388 H   0  0  0  0  0  0  0  0  0  0  0  0
    6.0435    2.5066  -23.2945 H   0  0  0  0  0  0  0  0  0  0  0  0
    4.3695    3.1031  -23.0323 H   0  0  0  0  0  0  0  0  0  0  0  0
    7.5871    2.6276  -21.0394 H   0  0  0  0  0  0  0  0  0  0  0  0
    7.7439   10.5009  -23.4838 H   0  0  0  0  0  0  0  0  0  0  0  0
    8.1304    8.7989  -23.0594 H   0  0  0  0  0  0  0  0  0  0  0  0
    7.9795    9.2828  -24.7827 H   0  0  0  0  0  0  0  0  0  0  0  0
    4.5500    3.2329  -16.5367 H   0  0  0  0  0  0  0  0  0  0  0  0
    6.1334    2.3849  -16.5424 H   0  0  0  0  0  0  0  0  0  0  0  0
    6.0753    4.1793  -16.5985 H   0  0  0  0  0  0  0  0  0  0  0  0
    3.0370    4.4023  -27.7551 H   0  0  0  0  0  0  0  0  0  0  0  0
    3.9851    3.6678  -26.4179 H   0  0  0  0  0  0  0  0  0  0  0  0
    2.6620    4.8257  -26.0503 H   0  0  0  0  0  0  0  0  0  0  0  0
    5.5673    9.7703  -24.4345 H   0  0  0  0  0  0  0  0  0  0  0  0
    5.7183    9.2865  -22.7112 H   0  0  0  0  0  0  0  0  0  0  0  0
    3.4203    3.3250  -20.9578 H   0  0  0  0  0  0  0  0  0  0  0  0
    3.2001    3.6542  -17.4658 H   0  0  0  0  0  0  0  0  0  0  0  0
    2.3353    3.5640  -18.9638 H   0  0  0  0  0  0  0  0  0  0  0  0
  1  2  1  0
  1  4  2  0
  2  7  2  0
  3  5  2  0
  3  6  1  0
  3 27  1  0
 14  4  1  6
  4 28  1  0
  5 18  1  0
  5 19  1  0
  6 20  2  0
  6 26  1  0
  7 28  1  0
  7 29  1  0
  8 19  2  0
  8 20  1  0
  8 22  1  0
  9 13  1  0
  9 23  1  0
  9 25  2  0
 10 21  1  0
 10 23  1  0
 10 24  2  0
 11 13  1  0
 11 22  1  0
 12 14  1  0
 12 22  1  0
 13 14  1  0
 14 21  1  0
 15 18  1  0
 16 23  1  0
 17 26  1  0
  1 30  1  0
  2 31  1  0
 11 32  1  0
 11 33  1  0
 12 34  1  0
 12 35  1  0
 13 36  1  6
 15 37  1  0
 15 38  1  0
 15 39  1  0
 16 40  1  0
 16 41  1  0
 16 42  1  0
 17 43  1  0
 17 44  1  0
 17 45  1  0
 18 46  1  0
 18 47  1  0
 21 48  1  0
 24 49  1  0
 24 50  1  0
M  CHG  1  24   1
M  END
>  <OMEGA_C>  (1) 
jp3MQKTglj433K7BdzXFQJcbkr9yYK3B682tQBZW6kBhOMvBtKOuQIpziD8qqqnBx0O8QMmb9UC+
6cDBmMmgQBjvv0ATBs3BYRKiQF/xsr+zG6fBXMm3QG09rkDByLvB/PjXQE1DTkDfFJnBnCOKQGLX
UUC0tpjBV53XQI0/k0D9Q6rBTqysQKDARkC4GLXBXiDXQPqsTECkWaXBKMKtQIDyJECnv6nB4/vy
QAAtF0ECIb7BjISyQJFBUEDNZ4fBKN9dQDRzkkCjD9bBR0nDQMLmEUEd073BFWnCQDsN10C/fLnB
McSlQACxokAIMcXBaluIQJRYRkAYuqPBZfq8QCBTj0B4EbTBWY6xQGE8TUAtPpPB5YdMQKkjYUDB
ppPBW6X6QBnnVUDdl5TBdhqNQMWTtUA2lNbBiw6qQGr6A0E2D9PB0T+JQHR9jj3dA6PBTKiQQKBs
P8BYh6PBvKzmQNGXMz9ZgrPBYSbZQGOZ9L+y07DB8qzJQEC4qkDCtaTBVXb4QOXmnEBiT6zB+mPB
QGFsIEATW7rB8dKLQI6ZRkAxQrjB6MnyQDcrKECoUKjByc33QM8DKEHr3rvBTBYCQX3IDEGNebjB
1Vf/QCmGFEHkQsbBdZmRQFDnTkAYS4TB5UTEQK6hGEDnVoTBPmnCQDW9hUCzyYTB+15CQGnfjEB+
Ct7BMQx/QM+8akDyV9PBbF4qQIVsmkAHZ9DBnSeyQClTHEHLecPBYPy2QH2VFEFzsLXBOOZaQLLM
VEB8qafBMs5MQDbeaUDpuYvBcHUVQDAYZEDPtZfBgWKUQKwDJz6vOqXBxaKfQCkDnr+mgqfBVout
QArc6UBrAsvBehmwQDFlhj+s/KnBqCS+QBBy9EBi2cDBTiugQAqSv0D328zBJhPDQL8prL918q3B
rnC3QOlzrUBSrrvBOhnXQJz/TkCA5pjBCmiJQDzDVUBxi5jBUR3WQIQak0DYFarBd72qQGTQRkBe
0rTB1hLWQPSsTEDSKaXB/fCsQOSyI0BViqnB5BPzQIq/F0Fx6sLBk9exQDL8W0DvQ4fBrAFZQFu5
k0AcvtXBr4vIQGIKEUF5473Bb+HDQDnB1UCie7nBi02lQCIXokBzF8XBdS6HQBTaQkAXZ6PBhyG7
QOEkj0B7zrPBFMewQHCeUkDgDpPBAt1LQFz/akAno5PBsvH5QCQ6VEA2cZTBDBqMQFeFtUCsYtbB
fo6oQL79A0EwrtLBiczXQNbiVD6VN7HBqfDYQCpPNsDoVLLB/dtyQId56z4JX6DBTv2NQG80BcBp
dqTBZlDIQKGFqkCGfqTBJ9X2QI/knECsN6zBrd++QO/vIEA8RbrBR5KJQIwHR0CNxLfBu/DxQJm4
KEAwHajBzUj6QBxlKEHhssDBuV4GQb42DUFz/r/B19HwQDd1FkGHrMvBo++QQDqXXUCgJYTBUBLD
QIl2JUAOvYPBI1LCQK/ti0BlJ4XBahA9QOFAjkABtN3Bm7p3QO5HbEBa6tLBuDYmQCsZnUAzHtDB
z/euQG2fG0FI0MDBaePKQPRgEkE0IrXBq5tWQHRsSkD+NqfB7d1MQAdjeUDY14vBErAUQFTSbEA/
r5fBDCbOQDDjvT6XJ6/BJTnHQHuFib/BDa7BWxasQMzS5kAxd8zBQ7GvQEZljj9K2anBoJeeQLYO
vEB/F83BqXS/QBw49UDg+MLBBuijQOk8r78W9afBxEC4QBhYsECgyLvB4Q/XQJcCTkAbyJjB/zCJ
QDfNT0AslpjBPUPWQOxOlkA7rKnB0gOtQCspTEDyz7TBnbfWQGflUEDhEKXBf/qtQEMpKECZoanB
IJtCQOo5kEDLCdTBHMuwQN/2SECwMofByqHaQD+IF0GXXbjBnG2JQOggqkBFCtfBEJmlQKrOoUBX
0sTBM0fFQByH2UASrrrBwgGIQEMBR0DxoaPBCRO8QGa4kkALmLPBqGSwQC8tSkD3CpPB6ABKQPfP
XECQkJPBRKT5QHcfUUBDK5TBp9DLQLjWD0FMkcLBuYumQLj6AEEJytTBb3uKQIB4lz2MhqPBMbuS
QHLnPsBq6KTBPT/oQGr4TT+jobPBG5/bQIZB6b8to7HBTnjHQHO/rEB4/aPBlOz2QE4PoUAJjqvB
9H7CQFfiJ0B9G7rBilGMQMenSkD5ELjBF97yQJ+WLkDSJqjB2b4kQP54g0CCV9vBdttUQIEla0Ai
w87B/tcUQMAdpUCW3M/B472PQD7jRUD+MYTBTazCQGKgEECpZITBSUbAQFW9gUBZNITBE3rjQAaD
KEHSDbnBuwPBQO/BFUFbZbLBirr2QOgzDkHu2LXBmiuAQNOvxEDhVNzBVi2gQNQklUBtO9vBemla
QOelVUAhmqfBRW1JQB4GY0BRmovBGE0TQKWJYEDwsJfBKO+TQEA7QT6xiqXBbqWeQOrimr/D6qfB
hXOrQCdH6ECXbsvBtWywQIEDiT/xEqrBCdaeQLKGvUDZ2MzBtSC8QLKi9EBuesHBxG3CQHzyqb/v
OK7Bvcq4QO/yrUBrw7vBu+rWQK+iTkBE05jBAjOJQBkCVkARp5jBESrWQI1AlEB63KnBOv2rQBKA
SEDDzbTBaV7WQL8hTkD5FKXBIYOtQEgVJUDpkanBs5VMQIzai0BcZNTBtfuwQM8PWkB8RIfBpXnp
QM0xF0GLZ73BM6iGQOvMr0Cjz9bB+cSmQKACoUDwDsXBJFnDQKMh10Dn0bnBbXWHQGAqRECZiqPB
ngG8QPs2kEAqt7PBlVuwQEIHUkDIEpPBvg9LQNbgakCIzpPBf5/5QERNUUBxRJTBf8a+QDiwD0HK
Jr/BmrClQAvUAkEyPtPBNEHYQKgoYj7HNLHBbqDXQDeNNcDasbLBSYpxQH0q+z7+xqDB2GWMQE9j
A8A8BqXBHY/HQJMuq0B3RaTBd+L2QNumnkBUzavBI6HAQMkKI0DALbrBUQaLQJhJSEDF47fB+HHy
QHj4KkDBDqjBMgUrQJLegkBSy9vBi7NuQIitX0CxMtHBjtYdQBYyl0BTdM7BAPaPQI2vW0AhOoTB
sOzBQLb1IkBty4PBZorBQOzAikDhAoXBoMjoQPppKEGzl7vBA773QMV+DkESo7bB57r8QIZwFEEm
pMTBRKFqQFGRy0BiC9rBIb+dQP81pEDAydzBv6dXQMNzTED+cKfBUmhLQHNmeEDL/IvBwEAUQClK
bUAt7ZfB

>  <OMEGA_E>  (1) 
kLpTPoAXiD7wMbQ+BFXOPg==

>  <OMEGA_NBR>  (1) 
     10191

$$$$
50491801
     RDKit          3D

 55 59  0  0  1  0  0  0  0  0999 V2000
    2.8805   -3.0774  -17.3380 C   0  0  0  0  0  0  0  0  0  0  0  0
    5.5453   -4.5193  -19.5399 C   0  0  0  0  0  0  0  0  0  0  0  0
    4.5527   -4.4160  -18.5485 C   0  0  0  0  0  0  0  0  0  0  0  0
    5.8830   -3.3991  -20.3193 C   0  0  0  0  0  0  0  0  0  0  0  0
    4.2165   -2.0712  -19.1277 C   0  0  0  0  0  0  0  0  0  0  0  0
    5.1045    0.3850  -20.6153 C   0  0  0  0  0  0  0  0  0  0  0  0
    6.0829    7.8405  -24.4305 C   0  0  0  0  0  0  0  0  0  0  0  0
    6.5911   -0.9592  -21.8677 C   0  0  0  0  0  0  0  0  0  0  0  0
    3.8864   -3.1917  -18.3457 C   0  0  0  0  0  0  0  0  0  0  0  0
    5.2281   -2.1611  -20.1132 C   0  0  0  0  0  0  0  0  0  0  0  0
    5.6344   -0.9639  -20.8762 C   0  0  0  0  0  0  0  0  0  0  0  0
    5.6464    7.3868  -25.6890 C   0  0  0  0  0  0  0  0  0  0  0  0
    5.7113    1.3465  -21.3790 C   0  0  0  0  0  0  0  0  0  0  0  0
    5.2457    6.0452  -25.8283 C   0  0  0  0  0  0  0  0  0  0  0  0
    5.6753    5.7245  -23.5494 C   0  0  0  0  0  0  0  0  0  0  0  0
    6.7305    3.5418  -19.1875 C   0  0  0  0  0  0  0  0  0  0  0  0
    4.3122    3.3283  -19.0851 C   0  0  0  0  0  0  0  0  0  0  0  0
    6.5056    4.9993  -21.2664 C   0  0  0  0  0  0  0  0  0  0  0  0
    5.2816    3.4374  -22.6476 C   0  0  0  0  0  0  0  0  0  0  0  0
    6.6628    3.5777  -20.7200 C   0  0  2  0  0  0  0  0  0  0  0  0
    5.4426    2.8311  -21.2729 C   0  0  2  0  0  0  0  0  0  0  0  0
    5.6149    3.4442  -16.9522 C   0  0  0  0  0  0  0  0  0  0  0  0
    4.5220    4.1587  -27.1426 C   0  0  0  0  0  0  0  0  0  0  0  0
    2.0595   -2.9780  -16.5165 N   0  0  0  0  0  0  0  0  0  0  0  0
    6.0965    6.9995  -23.3776 N   0  0  0  0  0  0  0  0  0  0  0  0
    5.2664    5.2442  -24.7468 N   0  0  0  0  0  0  0  0  0  0  0  0
    4.2387    3.1435  -20.4601 N   0  0  0  0  0  0  0  0  0  0  0  0
    5.6681    4.8502  -22.4843 N   0  0  0  0  0  0  0  0  0  0  0  0
    5.5592    3.3772  -18.4306 N   0  0  0  0  0  0  0  0  0  0  0  0
    3.1909    3.4835  -18.4275 N   0  0  0  0  0  0  0  0  0  0  0  0
    7.8042    3.7852  -18.6481 O   0  0  0  0  0  0  0  0  0  0  0  0
    4.8310    5.5757  -27.0657 O   0  0  0  0  0  0  0  0  0  0  0  0
    5.6170    8.2288  -26.7447 F   0  0  0  0  0  0  0  0  0  0  0  0
    6.8965    0.6398  -22.4511 S   0  0  0  0  0  0  0  0  0  0  0  0
    6.0488   -5.4608  -19.7025 H   0  0  0  0  0  0  0  0  0  0  0  0
    4.3017   -5.2746  -17.9434 H   0  0  0  0  0  0  0  0  0  0  0  0
    6.6459   -3.4835  -21.0791 H   0  0  0  0  0  0  0  0  0  0  0  0
    3.6957   -1.1374  -18.9758 H   0  0  0  0  0  0  0  0  0  0  0  0
    4.3229    0.5934  -19.8998 H   0  0  0  0  0  0  0  0  0  0  0  0
    6.4071    8.8634  -24.3083 H   0  0  0  0  0  0  0  0  0  0  0  0
    7.0887   -1.8445  -22.2351 H   0  0  0  0  0  0  0  0  0  0  0  0
    6.0051    5.6442  -20.5291 H   0  0  0  0  0  0  0  0  0  0  0  0
    7.4867    5.4267  -21.5213 H   0  0  0  0  0  0  0  0  0  0  0  0
    5.9411    2.9365  -23.3715 H   0  0  0  0  0  0  0  0  0  0  0  0
    4.2380    3.3579  -22.9862 H   0  0  0  0  0  0  0  0  0  0  0  0
    7.5787    3.1298  -21.1330 H   0  0  0  0  0  0  0  0  0  0  0  0
    4.6065    3.2932  -16.5396 H   0  0  0  0  0  0  0  0  0  0  0  0
    6.2867    2.6592  -16.5748 H   0  0  0  0  0  0  0  0  0  0  0  0
    5.9932    4.4300  -16.6440 H   0  0  0  0  0  0  0  0  0  0  0  0
    4.2069    3.9066  -28.1658 H   0  0  0  0  0  0  0  0  0  0  0  0
    5.4159    3.5739  -26.8798 H   0  0  0  0  0  0  0  0  0  0  0  0
    3.7094    3.9221  -26.4400 H   0  0  0  0  0  0  0  0  0  0  0  0
    3.3516    3.2229  -20.9149 H   0  0  0  0  0  0  0  0  0  0  0  0
    3.2080    3.6406  -17.4400 H   0  0  0  0  0  0  0  0  0  0  0  0
    2.3173    3.4450  -18.9126 H   0  0  0  0  0  0  0  0  0  0  0  0
  1  9  1  0
  1 24  3  0
  2  3  2  0
  2  4  1  0
  3  9  1  0
  4 10  2  0
  5  9  2  0
  5 10  1  0
  6 11  1  0
  6 13  2  0
  7 12  2  0
  7 25  1  0
  8 11  2  0
  8 34  1  0
 10 11  1  0
 12 14  1  0
 12 33  1  0
 21 13  1  6
 13 34  1  0
 14 26  2  0
 14 32  1  0
 15 25  2  0
 15 26  1  0
 15 28  1  0
 16 20  1  0
 16 29  1  0
 16 31  2  0
 17 27  1  0
 17 29  1  0
 17 30  2  0
 18 20  1  0
 18 28  1  0
 19 21  1  0
 19 28  1  0
 20 21  1  0
 21 27  1  0
 22 29  1  0
 23 32  1  0
  2 35  1  0
  3 36  1  0
  4 37  1  0
  5 38  1  0
  6 39  1  0
  7 40  1  0
  8 41  1  0
 18 42  1  0
 18 43  1  0
 19 44  1  0
 19 45  1  0
 20 46  1  6
 22 47  1  0
 22 48  1  0
 22 49  1  0
 23 50  1  0
 23 51  1  0
 23 52  1  0
 27 53  1  0
 30 54  1  0
 30 55  1  0
M  CHG  1  30   1
M  END
>  <OMEGA_C>  (2) 
IFo4QEf0RMBMtIrB3nKxQMGdkMCdUZzBj6+RQL1PjcBKY5TB5UG8QFyLWcABjqLBzu2GQJuOBMCf
BZnBXVijQMQixT4U7KTB4qbCQKbl+kCSccPBHurSQPqKdb8Z8a7BgLp4QJtETMDlw5LBp0ynQMVP
CsDj56DBDE20QAHCdr+EAqfBjK+0QLJg7EAog83BysK2QDtZrD9CCKvBJ92nQIBywUBVoM7BMpy1
QDgvt0AeZbzB6l/XQDasYkDmf5nBMf2JQNQCVUBVrpjBHi7QQIv6n0CPIarBnwKpQD/+W0A1LrXB
mTXVQD/4ZECawqXBoCmuQHIwNUDfLqrBQK2zQKBtXEAlnofBlbSQQAYUhUD4I9nBZc8DQDSYPsC3
IYTBtxbDQM/730BVBbvBbIaoQGXQp0Bx+cXBD6OHQEEvSUAzrqPBvGC1QKg0m0Dd37PBAOWxQAQk
WEDacZPByTdMQNzxXkB+a5PB97v5QJNAckA8L5XBqpeaQApsskCChtjB176zQEipA0Ew9dXB7q/c
QBHNIz/Pm7PBn4/BQJK+rsCnnp3BmKeJQODJqMAYjI/Ba6vUQMfxXsASoqjBY4ZsQFGVkb9nzpfB
2FSKQBnsFz+8Mp/B3wbNQK3QDUFOd8LBUNbiQGoY7L+G4bHBKCrAQF+dtECDO6TBtZLvQFKnrUCL
K6zBux2+QBbwO0Dg+LrBx52HQBXoVkC147fBsYTyQFFPSEB3EKnBS2iTQEzDUkAFUYTB6SzJQJ4w
KkApmYTBfsi/QLTCjUDbJoXBpJ6GQLIFekCnU+HBxE6tQDi6ZEDGCdfBCWdtQHkDe0AKhdPBYIFW
QPVDTkDKUafBTlBNQDz/aEA3hYvBcE4UQAt7XED0TJfBX+s5QDgaRsCiWovBJxiuQPhckMDPPp7B
KV6PQJyhjcC4DpbB14G5QFxbV8BsEqTBOQmHQH25AsD0j5nB2OujQCBC4D411aTBVWqmQD3ZvECa
487BfevSQE5IYL/oRa/B/5R3QLQ+TMDqvZPBiEemQLCWB8DRuqHBwi20QP4hZ78JYKfBLty1QEDm
5kBLVs7B4Vy4QG9FtT8afarBDIDFQA0q9kAOgMTBcSu1QOz5tEBLqLzB9wrXQCr0akDW9ZjB1pyJ
QBYEW0DqN5jBRiXPQIswokC59KnBgp+oQDi0XEDZmbTBsDzVQKrYakDgPqXBYM2uQHC6OECVjKnB
oquyQK78ZUBWFofBI/G1QKxDHEHCqrzBudIHQP7FQMBReoTBnhemQMufpEAZBMbBvDjFQFvH3ECR
07vB0OqHQHg8S0A5IqPBSrO0QBNSm0D9vrPB6BWxQAaXZkBT85LB5HdKQCo/X0CrDZPBtN35QJ5I
dUBRoZTBWsPRQGkAEEEfh8PBIu6zQJRhAEFB+dbBc2TeQB66PD8wNLPByvC8QDy4rsBhDqDB9ciG
QPrTqcDAi5HBBxHRQGzcW8BCXqrBeJVvQPSijL9mzJfB+qmKQKD1ID/lIp/BVuKaQPwMsEAVYdbB
OvThQPm/4L+JlrLB71u+QJ0Wt0CZQKTB/DXuQIV8sECeCqzBAE69QDRvO0CcYbrBYgOHQBCaVkAy
GrfB2uryQFbCTkCuaqjBEPKRQEBaYkCx4IPBAiHFQDQuLkAJWoTBtB/CQLp9kEBGPITBv3zBQOXd
LEGZOLzBmkOVQGoUHEHR77/BP9a1QB8zFUFsm7TBtP5WQElfTEDQzqbBNglKQKzrakATMIvB+VET
QArOVkAs+ZbB

>  <OMEGA_E>  (2) 
gOkcPMhfgD4=

>  <OMEGA_NBR>  (2) 
     14904

$$$$
50491798
     RDKit          3D

 48 51  0  0  1  0  0  0  0  0999 V2000
    4.6899   -2.6246  -20.2875 C   0  0  0  0  0  0  0  0  0  0  0  0
    6.1662   -1.1108  -21.5910 C   0  0  0  0  0  0  0  0  0  0  0  0
    6.3644    0.3193  -21.8473 C   0  0  0  0  0  0  0  0  0  0  0  0
    5.1013   -1.3455  -20.7557 C   0  0  0  0  0  0  0  0  0  0  0  0
    5.5294    7.3036  -25.4613 C   0  0  0  0  0  0  0  0  0  0  0  0
    5.4375    1.1005  -21.1953 C   0  0  0  0  0  0  0  0  0  0  0  0
    6.0884    7.6542  -24.2139 C   0  0  0  0  0  0  0  0  0  0  0  0
    5.0152    6.0053  -25.6319 C   0  0  0  0  0  0  0  0  0  0  0  0
    5.7006    5.4865  -23.4584 C   0  0  0  0  0  0  0  0  0  0  0  0
    6.7334    3.2481  -19.1455 C   0  0  0  0  0  0  0  0  0  0  0  0
    4.2986    3.3309  -19.0890 C   0  0  0  0  0  0  0  0  0  0  0  0
    6.7247    4.6267  -21.2944 C   0  0  0  0  0  0  0  0  0  0  0  0
    5.3623    3.1423  -22.6317 C   0  0  0  0  0  0  0  0  0  0  0  0
    6.6999    3.2241  -20.6776 C   0  0  2  0  0  0  0  0  0  0  0  0
    5.4035    2.6090  -21.2188 C   0  0  2  0  0  0  0  0  0  0  0  0
    6.5352    9.0715  -23.9363 C   0  0  0  0  0  0  0  0  0  0  0  0
    5.5617    3.2871  -16.9293 C   0  0  0  0  0  0  0  0  0  0  0  0
    3.5082    4.5158  -26.7632 C   0  0  0  0  0  0  0  0  0  0  0  0
    4.3458   -3.6649  -19.8909 N   0  0  0  0  0  0  0  0  0  0  0  0
    6.1550    6.7382  -23.2292 N   0  0  0  0  0  0  0  0  0  0  0  0
    5.1152    5.1214  -24.6207 N   0  0  0  0  0  0  0  0  0  0  0  0
    4.2370    3.1285  -20.4619 N   0  0  0  0  0  0  0  0  0  0  0  0
    5.8317    4.5297  -22.4792 N   0  0  0  0  0  0  0  0  0  0  0  0
    5.5366    3.3311  -18.4116 N   0  0  0  0  0  0  0  0  0  0  0  0
    3.1697    3.5094  -18.4505 N   0  0  0  0  0  0  0  0  0  0  0  0
    7.8267    3.2724  -18.5915 O   0  0  0  0  0  0  0  0  0  0  0  0
    4.3851    5.6701  -26.8185 O   0  0  0  0  0  0  0  0  0  0  0  0
    5.4451    8.2081  -26.4635 F   0  0  0  0  0  0  0  0  0  0  0  0
    4.3142    0.1244  -20.2885 S   0  0  0  0  0  0  0  0  0  0  0  0
    6.7858   -1.8895  -22.0105 H   0  0  0  0  0  0  0  0  0  0  0  0
    7.1484    0.7146  -22.4761 H   0  0  0  0  0  0  0  0  0  0  0  0
    6.3437    5.3718  -20.5805 H   0  0  0  0  0  0  0  0  0  0  0  0
    7.7460    4.8993  -21.5988 H   0  0  0  0  0  0  0  0  0  0  0  0
    6.0318    2.5690  -23.2899 H   0  0  0  0  0  0  0  0  0  0  0  0
    4.3392    3.1137  -23.0348 H   0  0  0  0  0  0  0  0  0  0  0  0
    7.5591    2.6475  -21.0510 H   0  0  0  0  0  0  0  0  0  0  0  0
    6.8743    9.1518  -22.8929 H   0  0  0  0  0  0  0  0  0  0  0  0
    7.3627    9.3339  -24.6119 H   0  0  0  0  0  0  0  0  0  0  0  0
    5.6938    9.7602  -24.1023 H   0  0  0  0  0  0  0  0  0  0  0  0
    4.5350    3.3652  -16.5422 H   0  0  0  0  0  0  0  0  0  0  0  0
    6.0070    2.3374  -16.5983 H   0  0  0  0  0  0  0  0  0  0  0  0
    6.1620    4.1262  -16.5478 H   0  0  0  0  0  0  0  0  0  0  0  0
    3.0651    4.3434  -27.7552 H   0  0  0  0  0  0  0  0  0  0  0  0
    4.0866    3.6302  -26.4613 H   0  0  0  0  0  0  0  0  0  0  0  0
    2.7079    4.6982  -26.0309 H   0  0  0  0  0  0  0  0  0  0  0  0
    3.3896    3.3371  -20.9503 H   0  0  0  0  0  0  0  0  0  0  0  0
    3.1721    3.6500  -17.4605 H   0  0  0  0  0  0  0  0  0  0  0  0
    2.3050    3.5051  -18.9529 H   0  0  0  0  0  0  0  0  0  0  0  0
  1  4  1  0
  1 19  3  0
  2  3  1  0
  2  4  2  0
  3  6  2  0
  4 29  1  0
  5  7  2  0
  5  8  1  0
  5 28  1  0
 15  6  1  6
  6 29  1  0
  7 16  1  0
  7 20  1  0
  8 21  2  0
  8 27  1  0
  9 20  2  0
  9 21  1  0
  9 23  1  0
 10 14  1  0
 10 24  1  0
 10 26  2  0
 11 22  1  0
 11 24  1  0
 11 25  2  0
 12 14  1  0
 12 23  1  0
 13 15  1  0
 13 23  1  0
 14 15  1  0
 15 22  1  0
 17 24  1  0
 18 27  1  0
  2 30  1  0
  3 31  1  0
 12 32  1  0
 12 33  1  0
 13 34  1  0
 13 35  1  0
 14 36  1  6
 16 37  1  0
 16 38  1  0
 16 39  1  0
 17 40  1  0
 17 41  1  0
 17 42  1  0
 18 43  1  0
 18 44  1  0
 18 45  1  0
 22 46  1  0
 25 47  1  0
 25 48  1  0
M  CHG  1  25   1
M  END
>  <OMEGA_C>  (3) 
fROWQBj6J8DfTKLBNlHFQIoujr9luqzB/KjLQCl1oz5Kx67BPT6jQMg5rL+/C6bBfPCwQEa36UC7
sMvBz/+tQCzdjD8QkKnB9tPCQPbu9EAZtsHBI3ygQHgrwEA0Ds3BKGu2QCuRr0DUqrvB0XfXQHHh
T0DsKZnB142JQMotVUBXtpjB2TDXQKcNlEDfWqrBvZerQHYbSUDSDbXBt2XWQNxXTkDSa6XBuOms
QIz5JkAtwKnBjiDRQLUkEUF5fb/BPvmxQKVgUkA5b4fBb4ZgQDKBkEAWG9bBtxCLQGiNasCWIJ/B
DPbEQFCf10Bq1bnB3q+jQEHio0A398TBhZWHQMs5SEAHsqPBmJ26QEzzkEBa1bPB/yuxQEAxVUAP
S5PBhdxKQFSZYECxmpPBUHT6QLtuUUB9u5TBrFKMQGRxtUBbjNbBhz6uQEJUA0EytdPBtA2KQAze
/j3kTqLBWiXZQJHc8b+OFbDBAsDkQHLuNj8Kz7PBOf/KQOnlq0D0pKTBJt/3QOvGnEBVyqzBfATB
QDVrJECjUbrBndqKQIVHR0BXR7jBHeTxQF5xKUBpaKjBbvrbQOFtEkG3JLfBLJvrQKNXFUEW5cTB
ijO2QPspHEF90cDBnx6RQERfV0CBVoTBTjnAQEmXFUBAyYTBEC/FQCgKhEDpYYTBDipEQE79ikCP
Ct7BvMWCQAlVaEC7sNPBfE4tQF9XlkBUP9DB8u9YQESSVUA1mqfBYQNLQBSZaUALr4vB5oUTQMNS
YEB6n5fBxTCTQN7uJcCyZqTBJMvFQIRthb89YK3BkS/OQJJOyT5LYa7BISGiQN5Ypr8jTKfBiE2o
QK9S4kAnu8zBf0CwQOjfkz/hEanBAOecQNfltkBTLs3BRsu7QE8y8kCTX8PBX125QPV2rUCfEbzB
BBnYQJ6JVED9RpjBizyKQDR6U0ASB5jB+jbXQHsHl0CvnKnBlaGtQFasSkBySLTBv8jXQIzmU0AB
lqTBVfeuQCJnKkBl+6jB/0CBQNJypUAKHNbB1dCxQJT6TUA8rYbBL2fcQGclFkHg0rnBP9uGQMFM
acAb3KHBaM+lQCSJnUBA4MTBRYrEQAcg10ClKLvBeBSJQHaqSkC6EKPBsxC+QAVWkUAIprPByX6x
QO70TkALhJLBSRhMQNLJX0Ct+ZLBYnr6QPIUXUCNrZPB6IjCQPfqDkH9qcLBqHafQFvW/ECT/dTB
4cqJQIBbID738KLBMV7ZQLuO579a/rDBI9DoQBaNTj9syLLBl4bHQIsdrkAnQKTB8uX3QLr6oUBl
ZavB8g/CQLNFI0D4fLnBdqaMQEgwSkCDW7fBrOTzQN+gMECHhafB2jBwQApFhEBRRNTBp5BIQCIy
uUDQ49bBpkeTQLUzpkBsqt3BacmQQAFfSUBlsIPBAljEQO6QFkDY2IPBFpHAQAqjhEBPsYPBRWzf
QLqrJ0EtILrB9SrNQEtvEUGfP7LBV1z8QOXXDkGJWbrB1vpcQFovWkA+EqfB4rFLQAw7ZkAeBIvB
MzkVQFK/YkCJE5fBvAPWQCTRIsB+3bDBmbOgQMoDm7+3zabBeM2UQCSePD4XzaTBGUbDQHrUqL/T
ha3Bs+mxQKq36ECknsvBqCGvQJiqiD9eE6rB4pvFQJhV80AK0MHBjzWgQBWgv0Dy28zB0+e2QD7F
rkDmi7vBd77WQLwjTkDn+5jBGviIQIQzUUBfdJjBq/bVQOJgk0DnE6rBRsipQNo2SUCJzrTBD3bV
QAjATEB+PqXBSSKsQLSfJEAMoKnBC23WQIL7D0GOzL/BG9uxQBjBVUC/QofBUI5bQMk9kUAxktXB
44XlQPjvYsCWnrPBxnDHQCsp1kCo57nBNl2jQG1fo0DMw8TB1peGQEy2QkBJZaPBwXa5QESqkEDP
jbPBUYywQBjbTUA6EJPBaeNKQORWY0ADY5PBiG35QDLYWECBmZTBKdOKQHddtUCmN9bByd6uQKXk
AkFLmdPBDhbWQKqUaT74f7HBgCmQQNGuA8BOYqPB1NF0QNvh9z4GxJ/BsanJQOPsqkD3TaTBJZr2
QPZanECxfazBqFC+QMzcJEADU7rBvqiIQCa/SEDCyLfBFyDxQI6CKEA1QqjBjpPiQAcWEUHyjrfB
Dn/wQE13E0EQc8XBjXG8QOyjG0Ej7cDBlQ+RQHpEVEC2EYTB0k7EQHw6IECb4oPBoy7BQGJRiUBQ
D4XBHFk9QGcKjECoad3Bjmp/QO3UaEB5PtPBAtopQNrel0A9kM/BDLdVQK/PTEBJLqfBRw5MQIot
b0CzhovBtXMTQOpaZUBiYJfB

>  <OMEGA_E>  (3) 
wOvIPAhneT6Auo4+

>  <OMEGA_NBR>  (3) 
      2763

$$$$
50491830
     RDKit          3D

 53 56  0  0  1  0  0  0  0  0999 V2000
    6.4603    0.3838  -21.9028 C   0  0  0  0  0  0  0  0  0  0  0  0
    6.2155   -1.0591  -21.8165 C   0  0  0  0  0  0  0  0  0  0  0  0
    5.4433    7.2725  -25.4780 C   0  0  0  0  0  0  0  0  0  0  0  0
    5.5233    1.1178  -21.2113 C   0  0  0  0  0  0  0  0  0  0  0  0
    6.0529    7.6322  -24.2668 C   0  0  0  0  0  0  0  0  0  0  0  0
    4.9563    5.9710  -25.6198 C   0  0  0  0  0  0  0  0  0  0  0  0
    5.1138   -1.3581  -21.0536 C   0  0  0  0  0  0  0  0  0  0  0  0
    5.7198    5.4778  -23.4619 C   0  0  0  0  0  0  0  0  0  0  0  0
    6.7288    3.2692  -19.0790 C   0  0  0  0  0  0  0  0  0  0  0  0
    4.2932    3.2914  -19.0702 C   0  0  0  0  0  0  0  0  0  0  0  0
    6.6891    4.6989  -21.2164 C   0  0  0  0  0  0  0  0  0  0  0  0
    5.4208    3.1648  -22.5921 C   0  0  0  0  0  0  0  0  0  0  0  0
    6.7237    3.2825  -20.6158 C   0  0  2  0  0  0  0  0  0  0  0  0
    5.4603    2.6266  -21.1839 C   0  0  2  0  0  0  0  0  0  0  0  0
    7.0431   10.8800  -22.5154 C   0  0  0  0  0  0  0  0  0  0  0  0
    5.5155    3.1698  -16.8883 C   0  0  0  0  0  0  0  0  0  0  0  0
    3.2102    4.7466  -26.6646 C   0  0  0  0  0  0  0  0  0  0  0  0
    6.6088    9.0167  -24.0975 C   0  0  0  0  0  0  0  0  0  0  0  0
    6.6262    9.4177  -22.6196 C   0  0  0  0  0  0  0  0  0  0  0  0
    6.2051    6.7194  -23.2870 N   0  0  0  0  0  0  0  0  0  0  0  0
    5.0949    5.0945  -24.6035 N   0  0  0  0  0  0  0  0  0  0  0  0
    4.2654    3.1040  -20.4454 N   0  0  0  0  0  0  0  0  0  0  0  0
    5.8549    4.5560  -22.4484 N   0  0  0  0  0  0  0  0  0  0  0  0
    5.5164    3.2958  -18.3663 N   0  0  0  0  0  0  0  0  0  0  0  0
    3.1482    3.4553  -18.4572 N   0  0  0  0  0  0  0  0  0  0  0  0
    7.8095    3.2642  -18.4999 O   0  0  0  0  0  0  0  0  0  0  0  0
    4.3454    5.6218  -26.8028 O   0  0  0  0  0  0  0  0  0  0  0  0
    5.3041    8.1664  -26.4844 F   0  0  0  0  0  0  0  0  0  0  0  0
    4.3504    0.0782  -20.4439 S   0  0  0  0  0  0  0  0  0  0  0  0
    4.5556   -2.9730  -20.7166 Cl  0  0  0  0  0  0  0  0  0  0  0  0
    7.2835    0.8217  -22.4479 H   0  0  0  0  0  0  0  0  0  0  0  0
    6.8322   -1.8031  -22.2986 H   0  0  0  0  0  0  0  0  0  0  0  0
    6.2285    5.4091  -20.5139 H   0  0  0  0  0  0  0  0  0  0  0  0
    7.7037    5.0398  -21.4699 H   0  0  0  0  0  0  0  0  0  0  0  0
    6.1077    2.6057  -23.2445 H   0  0  0  0  0  0  0  0  0  0  0  0
    4.4016    3.1131  -23.0027 H   0  0  0  0  0  0  0  0  0  0  0  0
    7.6114    2.7503  -20.9884 H   0  0  0  0  0  0  0  0  0  0  0  0
    7.0600   11.1825  -21.4580 H   0  0  0  0  0  0  0  0  0  0  0  0
    8.0459   11.0070  -22.9492 H   0  0  0  0  0  0  0  0  0  0  0  0
    6.3242   11.5061  -23.0643 H   0  0  0  0  0  0  0  0  0  0  0  0
    4.4810    3.2127  -16.5167 H   0  0  0  0  0  0  0  0  0  0  0  0
    5.9682    2.2090  -16.6020 H   0  0  0  0  0  0  0  0  0  0  0  0
    6.0969    3.9942  -16.4498 H   0  0  0  0  0  0  0  0  0  0  0  0
    2.7933    4.5263  -27.6584 H   0  0  0  0  0  0  0  0  0  0  0  0
    3.5265    3.8092  -26.1838 H   0  0  0  0  0  0  0  0  0  0  0  0
    2.4436    5.2357  -26.0457 H   0  0  0  0  0  0  0  0  0  0  0  0
    7.6357    9.0438  -24.4909 H   0  0  0  0  0  0  0  0  0  0  0  0
    5.9830    9.7276  -24.6569 H   0  0  0  0  0  0  0  0  0  0  0  0
    7.3442    8.7881  -22.0736 H   0  0  0  0  0  0  0  0  0  0  0  0
    5.6225    9.2872  -22.1888 H   0  0  0  0  0  0  0  0  0  0  0  0
    3.4226    3.2947  -20.9487 H   0  0  0  0  0  0  0  0  0  0  0  0
    3.1260    3.5878  -17.4662 H   0  0  0  0  0  0  0  0  0  0  0  0
    2.2957    3.4480  -18.9798 H   0  0  0  0  0  0  0  0  0  0  0  0
  1  2  1  0
  1  4  2  0
  2  7  2  0
  3  5  2  0
  3  6  1  0
  3 28  1  0
 14  4  1  6
  4 29  1  0
  5 18  1  0
  5 20  1  0
  6 21  2  0
  6 27  1  0
  7 29  1  0
  7 30  1  0
  8 20  2  0
  8 21  1  0
  8 23  1  0
  9 13  1  0
  9 24  1  0
  9 26  2  0
 10 22  1  0
 10 24  1  0
 10 25  2  0
 11 13  1  0
 11 23  1  0
 12 14  1  0
 12 23  1  0
 13 14  1  0
 14 22  1  0
 15 19  1  0
 16 24  1  0
 17 27  1  0
 18 19  1  0
  1 31  1  0
  2 32  1  0
 11 33  1  0
 11 34  1  0
 12 35  1  0
 12 36  1  0
 13 37  1  6
 15 38  1  0
 15 39  1  0
 15 40  1  0
 16 41  1  0
 16 42  1  0
 16 43  1  0
 17 44  1  0
 17 45  1  0
 17 46  1  0
 18 47  1  0
 18 48  1  0
 19 49  1  0
 19 50  1  0
 22 51  1  0
 25 52  1  0
 25 53  1  0
M  CHG  1  25   1
M  END
>  <OMEGA_C>  (4) 
HrvOQBR7xD4IOa/BROXGQL2Rh78iiK7BxC+uQAS46EAB08vB9L6wQOYUjz+7sKnBWrHBQDg79EBk
IsLB+JmeQHQSv0BG9czBUqSjQNnUrb+wbajBAAm3QIRKr0AMsrvBglLXQMg5UUDGoZjBuGGJQHyl
UkCrj5jBBA3WQDxdlkAdu6nBDnetQLSMSkCuvLTBqijXQDAUUkA+7aTBxrquQAQbKECQeKnBvmDh
QFUULkGiH7TBuH6wQOjdSkAkG4fBk3RNQFLkl0AoUdXB9HrTQE9EEEG9x8DBcgnUQLmuFkEA9bTB
JpDGQOwE10DYS7rByAmjQHoGo0AC1MTBJH6IQGynRkBFkKPBOFu7QGnKkUBglrPBFIawQMTtUkAq
7pLBEXxJQDAjXUBLqJPBROf5QFDpUEDG/5PBoA2LQG7ls0AzbNbB4rqpQJepAkEg4NPBMjaLQBA0
oD0pjaPBNseRQDZFPsCWu6XBZRLpQFJYUj8/lbPBqaHaQADN5r+hY7LB1E/HQAEXrUBmHKTBAIX2
QPVFoUBUwqvB/3HDQGDDJkCl9LnBuNmMQM88R0B2BbjBjpDzQFUEMEAm6KfB0evhQIXrMkH+qavB
H7wAQZgcMEHpl7fB31/KQMkYOEG5g7jBYmSPQFacTUA4IoTBq/u+QLdgDUDi0ITBqBnDQHChf0Ah
mYPBrcUyQG7XkEB0RN3BRrJhQO3Jc0BgeNHBw2McQNWKp0ChXdDBelf0QEGzEEFD7cPBmHS/QGGk
G0FsQcXBwwPrQD2cDEHOlrDBY+uzQG+YFEGegrHBgQtbQNnbUkD6lqfB6hBIQLueZUDeuovBnewS
QEyrXEC31pfBtEzMQICKqD56Ba/BJEbFQLQ3jr/Cyq3BwVuoQGdJ60COT8rBdiquQNYuij9urqnB
tzi4QILI9ECLAsDBneOfQGtswEBL5czB7EiiQCw2sr8ai6fBVsO7QNUKrEBmULzBUYTXQJzPT0Dj
EZnBgLmJQCEKUkALh5jBC2rWQCX3kkCyRarBb8uqQOGAR0DyG7XBHkvWQBIuTUA7UqXBFcusQNPB
JUBVr6nBg/cCQQlcFkEgSMHBWIqyQIhHUECmUofBwcJbQEdNk0Dp7dXBUbi4QFEHEUFktbvBw1rY
QHyBH0Hcr8HBf8bCQMbc1ECMVbnB0bapQFpyoUAfzMXBM4uHQIuHRkDtiaPB9hzDQAo0jECL+bTB
iVGxQNbhTUCKJ5PBYRlMQMnVYEBVWpPBC0D6QGuSWUCfrJTBb/WKQCpKt0AgW9bBKXmeQFhJBUHd
W9HBoj+JQLDFbz0KIaPByjaRQFP4P8A1TaTBKjvmQE9CQT86m7PBH1nZQMDe7r/RZLHB0A3DQJJM
qUBDfqXB6Tz3QKBbn0CE+6rBDYi5QOieGUCqrLrBIGqJQMwiU0BmfrfBNd7xQE19KEA+TajBE+gN
Qd4QIUECoMXBxScIQdcEFUFL5rjBUioDQZZvBkFZB8XBVrORQCQ/TkA/KoTBwZPEQAHFGEBPVITB
hEPCQHnNhUCOrYTB4eg9QMO/jkBA0d3Bflp/QFiBbED5ttPBfcwpQPmImUC67c/BEmiYQKbUF0HS
fbzBZ83BQFiMEEG+NbPBhT/YQFZzL0EW9r3BnkTOQBXeIEEkF8rB6s1YQH6QVEB1ZafB/BZNQAF0
aUA7bYvB654UQBOEY0DLU5fBRQ7QQDBCrT5Q/K7B0InKQHTLjb8Dqq3BFg21QJSw50DVt8vBG/Ow
QEa0hz9Xv6nBrq3MQI5J70DyScLBAXCeQML4wEBXqszBPJunQEehtb+ne6fBzri1QKI/rkBkgbvB
z2fWQCukUUAX4ZjBMY6IQO+TUEA115jByy/WQE7qk0DQKqrBCVisQIXmRkAp87TBwGbWQFawTkCe
I6XBce6tQGI1JED5rqnB0UamQDztI0Fj377BU7avQB3+U0ATYYfBmdpZQGJKk0Aq8dXBxa7mQAS1
C0GtqMDBE6DOQPZOG0HkUbnBkoXLQNbx0kAfR7rBiVqfQPzEpECiecTBRo6HQFcfQkB6yaPBDQ25
QNY3kECnjrPBdaKvQF9+T0DcNJPB9EpIQAsLX0BA/ZPBFbT4QJvmWkAQQpTBgnGIQCiJuECODNbB
m7mzQBZ4AkFzsNPBRdCMQACN/zt7QaPBGySYQPNrQsClHaTBh6PpQDl3ST+xjbPB85HfQE4v7L83
KLHBbP/JQEPDq0DpdKTBRpf2QOIFnUDovazBJOrCQEfHJEBiL7rBXtyLQJAkQkCUSbjBQ8DyQLBa
K0AA6qfB5JSVQI0ML0GSernBHm+vQI9hLEFUPsbB7e2QQFaEFkGV38DB8ZmOQFVyUUDgaITBd+TB
QBacHUC4IITBWba+QDciiEDYzoTBF4o6QGzjj0AMx93BhiiAQNEmbUB4RdTB+94oQJkWl0Bwsc/B
mMMCQWCCB0Gl+bzB2lvsQItkE0GBcsjBgMvjQAnJKEFbULfBT0rFQM/rEkGc8bHB3KNYQOoaTEAU
zKfB2DhHQBWraUD2GYzBsbsRQAt4X0C7K5jByKiTQCyFLj7gcqXBZB6eQGwSnb8S7qfB4kasQMK2
6UBuzcrBeRWwQCqBhj/IAarBWZe7QDVG9EANgsDBFmGgQFovv0Dg1czBKqPBQEDwq78VVa7BhDy4
QF+9rEBUvbvBYj/XQAsbT0Aq2JjBG5KJQOqbVkCnl5jB5pTWQIHXkkBdDqrBPTyrQEA4RkDL0bTB
jnHWQAdcTECjG6XBF0mtQCCqI0CEhKnB4TQGQU2BE0GhwcHBtJ6xQIzjW0BLQofBTUxYQDH/k0AW
rdXB0Cm+QPIREUFatbzBjCzgQHUGHkFdtcLB/dPCQPFE1UB/VLnBuz+mQABnoUCcLMXBdH6HQK5e
Q0CFcKPB8rG8QIRZjkDu8bPBZc6wQLjjUkDdDZPBeTRMQP7GbED3vpPBj/n5QEVhVUAyWZTBhvuL
QKyEtUAeVtbB0a2lQMUCBEHBVtLBq5bXQC3mTz6NQ7HBKGLWQHhLNsDzALPBaXVxQPqN8T6VmaDB
NuSLQPmDBMADCqXBZO7HQHUzqkAElqTBKmn3QHbznEBV+qvBJ7u+QLf5HkARQ7rBPf+JQO/oR0Bi
tbfBzE7yQAYwKECxBKjBMBASQbchHUE6IcbBy8wKQa+JEkFvRrnBopoFQZpNA0EpLsXBiqWQQOuw
XUDgL4TB66XCQAIcJUC6u4PBZC7CQHrGi0B4GIXBxcw7QJrLjkD6nd3Br7F2QHp3bECe6dLBWv4l
QMN4nUBl/s/BlNOeQMq0GEGW7b3BlwvGQEEdEUHDIbTB+6fhQJw8LkF9Tb/Bp0PXQIcAH0E2NcvB
+2dXQBQUS0BlSafBSQdNQJJ8e0D39YvBzDgVQE7+bkC11JfBFLiXQDSSBj4fx6XB6gylQNRTn78y
J6jBPEa4QNlm5EDhI8zBkriyQEYRiD/9OarBnBXPQIwD7UAmo8LBNtmeQGRiv0Cmo8zBgkLJQEr0
pb8KXa7BbomzQLYOr0AgH7vBsPrVQAu3UUDXvZjBFkGIQGNnVEDIq5jBQpPUQO6tlEBZ56nBNKyq
QEgjSUAEorTBBKDVQIK0T0BX/6TBLHOtQLr7I0CYhanBFk+yQHV2IEFXQrrBQoevQMGiXUBqQ4fB
4dNXQBh7kkDhrNXBltztQEkUCUH0usHB9O3WQNzHHkEOb8LB3ifLQFLT0kBgOLrBbCmdQAUnpUAB
EcTBaMqGQFDuPkDvcaPBnue1QDuWkUC3AbPBkk+vQJLkU0D/C5PBqpRIQNI1aUBt95PB4Ij4QJx7
V0BIJ5TBFjaJQB9NtkCqCdbBPtW6QES+/kD0sdTBMijcQGtClD4pV7HBHIPhQNzxMMCgu7LB2b93
QFYWxD59EqHBYDyUQJqpB8D6U6XBxmDJQJtArECR/6PBbIr0QHbhnUBHyKzBs4PBQJW7KUCSDrrB
wRqKQDndQkDS4LfBWTfyQLKhLUDL3KfBJLqiQEcsMEFaArvBE72aQGzBE0G6yrvBK0O/QFyoHkFo
ILLBTGuOQPfwXUCiRoTBJhrBQJT0J0BlpIPBuDy/QBEgjUDaHYXBM305QPhsjkAfjd3BHip7QKpq
akB4ldPBiEYmQAqRmEDDnM/B3IP+QFMOCEGO/rnB2KwCQe8CCEFBQ8jBxbHJQLayIEESiMrB3jfu
QKaZK0G/3cDBgGdVQLKuQUAnQ6fBpVhIQJ8veUBGOIzBaOIRQMgfaUDSHpjB

>  <OMEGA_E>  (4) 
iCp3PqDQej6ApYU+GLKUPkDdrT4=

>  <OMEGA_NBR>  (4) 
     18465

$$$$
50491792
     RDKit          3D

 49 52  0  0  1  0  0  0  0  0999 V2000
    5.1201   -2.0409  -20.9850 C   0  0  0  0  0  0  0  0  0  0  0  0
    6.4545   -0.3051  -22.1706 C   0  0  0  0  0  0  0  0  0  0  0  0
    6.5975    1.1553  -22.2268 C   0  0  0  0  0  0  0  0  0  0  0  0
    5.4651   -0.6969  -21.3016 C   0  0  0  0  0  0  0  0  0  0  0  0
    6.2619    8.9312  -24.0173 C   0  0  0  0  0  0  0  0  0  0  0  0
    5.7001    1.8002  -21.4050 C   0  0  0  0  0  0  0  0  0  0  0  0
    5.7487    7.7558  -24.6034 C   0  0  0  0  0  0  0  0  0  0  0  0
    6.7366    8.8710  -22.6945 C   0  0  0  0  0  0  0  0  0  0  0  0
    6.2296    6.5972  -22.6370 C   0  0  0  0  0  0  0  0  0  0  0  0
    6.8739    3.4331  -18.8845 C   0  0  0  0  0  0  0  0  0  0  0  0
    4.4479    3.5682  -18.9574 C   0  0  0  0  0  0  0  0  0  0  0  0
    7.0139    5.2257  -20.6652 C   0  0  0  0  0  0  0  0  0  0  0  0
    5.7254    4.1271  -22.4019 C   0  0  0  0  0  0  0  0  0  0  0  0
    6.9328    3.7316  -20.3852 C   0  0  2  0  0  0  0  0  0  0  0  0
    5.6678    3.2874  -21.1333 C   0  0  2  0  0  0  0  0  0  0  0  0
    5.2675    7.7535  -26.0370 C   0  0  0  0  0  0  0  0  0  0  0  0
    5.5803    3.0886  -16.7761 C   0  0  0  0  0  0  0  0  0  0  0  0
    8.0187    9.9324  -20.8096 C   0  0  0  0  0  0  0  0  0  0  0  0
    4.8270   -3.1339  -20.7068 N   0  0  0  0  0  0  0  0  0  0  0  0
    5.7422    6.6063  -23.9002 N   0  0  0  0  0  0  0  0  0  0  0  0
    6.7094    7.7032  -22.0306 N   0  0  0  0  0  0  0  0  0  0  0  0
    4.4638    3.6602  -20.3457 N   0  0  0  0  0  0  0  0  0  0  0  0
    6.2643    5.4169  -21.9314 N   0  0  0  0  0  0  0  0  0  0  0  0
    5.6341    3.3099  -18.2387 N   0  0  0  0  0  0  0  0  0  0  0  0
    7.2624   10.0052  -22.0824 N   0  0  0  0  0  0  0  0  0  0  0  0
    3.3038    3.7384  -18.3443 N   0  0  0  0  0  0  0  0  0  0  0  0
    7.9207    3.4628  -18.2467 O   0  0  0  0  0  0  0  0  0  0  0  0
    6.3159   10.0894  -24.7149 F   0  0  0  0  0  0  0  0  0  0  0  0
    4.6743    0.6595  -20.5778 S   0  0  0  0  0  0  0  0  0  0  0  0
    7.0574   -0.9920  -22.7460 H   0  0  0  0  0  0  0  0  0  0  0  0
    7.3237    1.6654  -22.8423 H   0  0  0  0  0  0  0  0  0  0  0  0
    6.5485    5.7984  -19.8494 H   0  0  0  0  0  0  0  0  0  0  0  0
    8.0610    5.5412  -20.7836 H   0  0  0  0  0  0  0  0  0  0  0  0
    6.3928    3.6696  -23.1472 H   0  0  0  0  0  0  0  0  0  0  0  0
    4.7228    4.2538  -22.8363 H   0  0  0  0  0  0  0  0  0  0  0  0
    7.8083    3.2292  -20.8222 H   0  0  0  0  0  0  0  0  0  0  0  0
    4.9585    6.7362  -26.3189 H   0  0  0  0  0  0  0  0  0  0  0  0
    4.4120    8.4376  -26.1376 H   0  0  0  0  0  0  0  0  0  0  0  0
    6.0821    8.0854  -26.6976 H   0  0  0  0  0  0  0  0  0  0  0  0
    4.5310    3.0181  -16.4538 H   0  0  0  0  0  0  0  0  0  0  0  0
    6.1038    2.1536  -16.5275 H   0  0  0  0  0  0  0  0  0  0  0  0
    6.0666    3.9295  -16.2600 H   0  0  0  0  0  0  0  0  0  0  0  0
    8.3371   10.9428  -20.5133 H   0  0  0  0  0  0  0  0  0  0  0  0
    7.3761    9.5059  -20.0252 H   0  0  0  0  0  0  0  0  0  0  0  0
    8.9042    9.2941  -20.9454 H   0  0  0  0  0  0  0  0  0  0  0  0
    3.6474    3.9842  -20.8238 H   0  0  0  0  0  0  0  0  0  0  0  0
    7.8781   10.4236  -22.7501 H   0  0  0  0  0  0  0  0  0  0  0  0
    3.2585    3.6864  -17.3467 H   0  0  0  0  0  0  0  0  0  0  0  0
    2.4752    3.9204  -18.8737 H   0  0  0  0  0  0  0  0  0  0  0  0
  1  4  1  0
  1 19  3  0
  2  3  1  0
  2  4  2  0
  3  6  2  0
  4 29  1  0
  5  7  2  0
  5  8  1  0
  5 28  1  0
 15  6  1  6
  6 29  1  0
  7 16  1  0
  7 20  1  0
  8 21  2  0
  8 25  1  0
  9 20  2  0
  9 21  1  0
  9 23  1  0
 10 14  1  0
 10 24  1  0
 10 27  2  0
 11 22  1  0
 11 24  1  0
 11 26  2  0
 12 14  1  0
 12 23  1  0
 13 15  1  0
 13 23  1  0
 14 15  1  0
 15 22  1  0
 17 24  1  0
 18 25  1  0
  2 30  1  0
  3 31  1  0
 12 32  1  0
 12 33  1  0
 13 34  1  0
 13 35  1  0
 14 36  1  6
 16 37  1  0
 16 38  1  0
 16 39  1  0
 17 40  1  0
 17 41  1  0
 17 42  1  0
 18 43  1  0
 18 44  1  0
 18 45  1  0
 22 46  1  0
 25 47  1  0
 26 48  1  0
 26 49  1  0
M  CHG  1  26   1
M  END
>  <OMEGA_C>  (5) 
z9ejQPydAsA24afBCIvOQDY8nL5bXbHB7h7TQEbhkz9t0LHBL+KuQO9mMr+0aarBsmHIQBjmDkFi
I8DBeme2QL9s5j+IPavBsPW3QKov+EDZ08TBOJLXQG3vDUFnjrXBBVnHQPcb00B8GLXBVPfbQPa3
W0B3E5fBaVWOQNZcZECuqJfBzXHgQPE4p0A9UqXByja3QNYQhEAQN7PBcdndQBjTbkDUFKPBAl+1
QJxkUkAZEanBvo+oQLYc+EC9S9DB+5GyQBWrRUCLNYbBg0wAQQDrHkH4eabBzXaaQK2RSMCEp6XB
8r+3QDdn00CCM7/BTrPWQKeA9kCrPrDBLteOQKpAakDqw6LB43TIQFpXrUCAc6/BmUq0QPnVU0Dr
6JHBaGXoQEAVIEGrqLDBiHFTQPBBb0AtwZLBY3b9QJeeXUBS+ZHB5hvKQCFuIUEtuMXBl5OVQPLS
KD9jn6TBh9bhQDvzfb/C97XBh1vqQOks1T8MvbbBNY3RQBmMuUCOy57B2/kAQU1RsUDoRKbBk5HM
QDzbakBhLbnBYyGXQHkfiECxsLbB1935QO6qTkDTk6bB0queQKOO10AkjdLBZS+NQGkAB0G1GdHB
W6DCQO1dAUGclNXBxv2QQEgoQUBboYPB7lHDQITUCUA4OITBvSHCQKR8e0CKFILBomQFQYIVL0FA
G6TB1AjsQPsXGEGzM6DBo3cOQaO0FEEhkKfBN29pQHz8fkAjl6bBDRn8QPHGJkE7ALbBNYtQQM/t
a0AOxorB7GgeQJLoekBC/ZbByj6kQBf3BcDG66bB2ePMQBCGxr7/UbHBKHDQQM1NiT9iXrLBCKCu
QNT3Qb+t6anBdTvQQBvqD0Fpv77Btnu0QOOo3j8FvKvBWN7cQKJBDUGGCrTBs6i9QGrb/ECxI8TB
1evFQIxw00DYx7TB/DXcQGZ2WkCY9JfByZ6OQLu0ZkAsLpjBjOLhQCT1o0A+cabB/G21QHYdg0Bu
5rPB6jHdQLeLaUDOAKTBm92zQLT0TkB3yanBtBv1QGWZHkE8Ka7BI2u0QCehU0B4sIbBeI6aQH71
30Aqw9TBDkWbQMVkS8BbW6TB0UvXQJiC9ECrSK/BGmW4QAYh10ByAr/B9fONQEOXZ0BTT6PB1cfF
QJxQrEAdtK/BcQG1QM5dWEDeg5LBdXuyQIKaAEHC287BKB1VQPXXdEDcJ5PB+BL+QNePYECIDpPB
F6PWQCTAIkE81sPB6aiVQC8kHj/DUKTBs+XfQJt0i7+S2rXBVnbmQPNxyD9Du7fBosbXQKxAt0Cd
h5/BfacBQfSMq0BBcqjBhFLLQMb2akCd47nB02uVQEPhhkBDcLfBvFT4QOxpRkB7fKfBf0P/QAOU
GEGcSqbBErkIQYw6I0EP17LB5D3gQFmbLEHpE63BLRiTQPOQUkCl24PBbNbEQMH9GEC3EYTBG+bE
QK3nhUCzWYPB/niVQGl96kAEEN3B5/esQFn1wUC/vNTB9dJ2QO6p2kCS4dDBAkJmQPVaeUCOEKfB
T92gQBTtDUEXVs/BjsFTQDeedUB4KIvBiV4fQKzefkCMUJfBcrXnQNvk7r+fyK3Bjc6tQBgPm77U
ebPBNLOgQGU4jT9+GrLBD+DSQAi7GL+mB67BUn/CQIgHEEGW2r/BrYq8QKHc5z8asqvB4rqjQNGu
/0A/c8HBUC3jQJaEDEEjS7jBfhfGQJuU1UAAm7TBg5DaQFm7YUCBLZbBUZGMQKgeXUD6q5fBADbe
QL6cqkBCcaTBfw64QNmohUAmqLLBjPrdQDz8dEBvNaLBpa23QPAAUkD3tqjBdip+QKsSA0FzNMnB
XY+uQD2TU0DlhIXBvegTQcDHGEFAg6/BDRn5QFNrOcB7ga3BzVymQO7V2kDM37vBTP/jQKoT9EBg
srLBa+GOQBOxXkDMzqLBRK3HQAXVr0C4zK7BoheyQLF8WEABWpHB0jEBQcAnHEFsnLbBUuVMQFjz
YEBOR5PBFoX7QMpWYkC41ZDBPpfAQGGZIkEnbsXBKVDmQHrwST+8RKfBfEmcQOWhgr8YOLjBrXCE
QFjrwz87t7XBC0PNQI/1u0CAEJ7BRj7/QCGLtkARCKXB+MDNQMM5cUBIxbjBGKiXQFGeiEANBLbB
uq37QFqYWEBlU6XB8b1UQFyv6UBcKMnBFblYQJ8rEUFLycbB/+KLQEuPBUGmTtHBTL2MQKp7TEAd
P4PB2dHAQNofHED+l4LBBoS7QJU9h0Bw84HBHeYdQSdFJ0Hkdq/BpFUOQSpkFUHvVqfB9F8dQZwr
C0HDd7LB8xtoQJK+aEAC/KbBHikHQSmhH0H1073BzPtGQGOhYEAWUIvBOr8YQCgwZEAE5pfB

>  <OMEGA_E>  (5) 
QMbcPFA6Zj5I0yQ/

>  <OMEGA_NBR>  (5) 
      2802

$$$$
