50214110
     RDKit          3D

 76 78  0  0  1  0  0  0  0  0999 V2000
    8.6015    7.4947  -18.5245 C   0  0  0  0  0  0  0  0  0  0  0  0
    7.6592    6.9731  -17.6221 C   0  0  0  0  0  0  0  0  0  0  0  0
    8.1799    8.2492  -19.6308 C   0  0  0  0  0  0  0  0  0  0  0  0
    5.8673    7.9337  -18.9489 C   0  0  0  0  0  0  0  0  0  0  0  0
    6.3508    0.6939  -21.5273 C   0  0  0  0  0  0  0  0  0  0  0  0
    4.5922   -0.7609  -20.6535 C   0  0  0  0  0  0  0  0  0  0  0  0
    6.6483   -1.7254  -21.5440 C   0  0  0  0  0  0  0  0  0  0  0  0
    6.2757    7.2270  -17.8026 C   0  0  0  0  0  0  0  0  0  0  0  0
    6.8018    8.4858  -19.8496 C   0  0  0  0  0  0  0  0  0  0  0  0
    5.0805    0.5309  -20.9317 C   0  0  0  0  0  0  0  0  0  0  0  0
    7.1389   -0.4335  -21.8198 C   0  0  0  0  0  0  0  0  0  0  0  0
    5.3708   -1.8878  -20.9705 C   0  0  0  0  0  0  0  0  0  0  0  0
    6.8339    1.4402  -18.0570 C   0  0  0  0  0  0  0  0  0  0  0  0
    5.4130    8.2459  -14.2913 C   0  0  0  0  0  0  0  0  0  0  0  0
    4.8772    8.8858  -15.5825 C   0  0  0  0  0  0  0  0  0  0  0  0
    6.3844    7.0913  -14.5925 C   0  0  0  0  0  0  0  0  0  0  0  0
    4.1952    7.8205  -16.4481 C   0  0  0  0  0  0  0  0  0  0  0  0
    5.7470    6.0459  -15.5375 C   0  0  0  0  0  0  0  0  0  0  0  0
    5.1864    6.6907  -16.8442 C   0  0  0  0  0  0  0  0  0  0  0  0
    7.1402    0.4634  -16.9258 C   0  0  0  0  0  0  0  0  0  0  0  0
    5.4280    8.2184  -23.4387 C   0  0  0  0  0  0  0  0  0  0  0  0
    4.9664    9.8790  -20.9503 C   0  0  0  0  0  0  0  0  0  0  0  0
    7.3278   10.0945  -21.7709 C   0  0  0  0  0  0  0  0  0  0  0  0
    4.2776    1.7393  -20.5175 C   0  0  0  0  0  0  0  0  0  0  0  0
    6.0943    7.8706  -22.1039 C   0  0  0  0  0  0  0  0  0  0  0  0
    5.1156    4.5300  -18.0181 C   0  0  0  0  0  0  0  0  0  0  0  0
    5.0760    2.5637  -19.4896 C   0  0  1  0  0  0  0  0  0  0  0  0
    4.2298    3.7029  -18.9350 C   0  0  2  0  0  0  0  0  0  0  0  0
    6.3003    9.0952  -21.1639 C   0  0  0  0  0  0  0  0  0  0  0  0
    5.5050    1.6972  -18.3736 N   0  0  0  0  0  0  0  0  0  0  0  0
    4.3683    5.7027  -17.5653 N   0  0  0  0  0  0  0  0  0  0  0  0
    7.7522    2.0451  -18.6003 O   0  0  0  0  0  0  0  0  0  0  0  0
    3.7561    4.5190  -20.0065 O   0  0  0  0  0  0  0  0  0  0  0  0
    8.3685   -0.2753  -22.3591 F   0  0  0  0  0  0  0  0  0  0  0  0
    4.8930   -3.1262  -20.7173 F   0  0  0  0  0  0  0  0  0  0  0  0
    9.6545    7.3144  -18.3663 H   0  0  0  0  0  0  0  0  0  0  0  0
    7.9905    6.3752  -16.7859 H   0  0  0  0  0  0  0  0  0  0  0  0
    8.9102    8.6507  -20.3177 H   0  0  0  0  0  0  0  0  0  0  0  0
    4.8122    8.0563  -19.1438 H   0  0  0  0  0  0  0  0  0  0  0  0
    6.7166    1.6835  -21.7579 H   0  0  0  0  0  0  0  0  0  0  0  0
    3.6212   -0.8854  -20.1974 H   0  0  0  0  0  0  0  0  0  0  0  0
    7.2515   -2.5917  -21.7721 H   0  0  0  0  0  0  0  0  0  0  0  0
    5.9406    9.0127  -13.7052 H   0  0  0  0  0  0  0  0  0  0  0  0
    4.5658    7.8566  -13.7076 H   0  0  0  0  0  0  0  0  0  0  0  0
    4.1485    9.6690  -15.3264 H   0  0  0  0  0  0  0  0  0  0  0  0
    5.7125    9.3311  -16.1428 H   0  0  0  0  0  0  0  0  0  0  0  0
    7.2880    7.4996  -15.0687 H   0  0  0  0  0  0  0  0  0  0  0  0
    6.6583    6.5991  -13.6477 H   0  0  0  0  0  0  0  0  0  0  0  0
    3.3597    7.3815  -15.8830 H   0  0  0  0  0  0  0  0  0  0  0  0
    3.8100    8.2953  -17.3625 H   0  0  0  0  0  0  0  0  0  0  0  0
    6.5111    5.3028  -15.8095 H   0  0  0  0  0  0  0  0  0  0  0  0
    4.9223    5.5467  -15.0077 H   0  0  0  0  0  0  0  0  0  0  0  0
    8.2250    0.4395  -16.7451 H   0  0  0  0  0  0  0  0  0  0  0  0
    6.6232    0.7884  -16.0109 H   0  0  0  0  0  0  0  0  0  0  0  0
    6.7929   -0.5421  -17.2057 H   0  0  0  0  0  0  0  0  0  0  0  0
    5.3180    7.3059  -24.0430 H   0  0  0  0  0  0  0  0  0  0  0  0
    4.4361    8.6551  -23.2504 H   0  0  0  0  0  0  0  0  0  0  0  0
    6.0513    8.9444  -23.9813 H   0  0  0  0  0  0  0  0  0  0  0  0
    4.6325   10.3035  -21.9085 H   0  0  0  0  0  0  0  0  0  0  0  0
    4.1966    9.1943  -20.5646 H   0  0  0  0  0  0  0  0  0  0  0  0
    5.1303   10.6912  -20.2268 H   0  0  0  0  0  0  0  0  0  0  0  0
    6.9289   10.5065  -22.7095 H   0  0  0  0  0  0  0  0  0  0  0  0
    7.5077   10.9131  -21.0585 H   0  0  0  0  0  0  0  0  0  0  0  0
    8.2734    9.5702  -21.9734 H   0  0  0  0  0  0  0  0  0  0  0  0
    4.0684    2.3600  -21.4012 H   0  0  0  0  0  0  0  0  0  0  0  0
    3.3293    1.4116  -20.0667 H   0  0  0  0  0  0  0  0  0  0  0  0
    5.4629    7.1360  -21.5826 H   0  0  0  0  0  0  0  0  0  0  0  0
    7.0781    7.4253  -22.3135 H   0  0  0  0  0  0  0  0  0  0  0  0
    5.4142    3.9248  -17.1494 H   0  0  0  0  0  0  0  0  0  0  0  0
    6.0132    4.8534  -18.5656 H   0  0  0  0  0  0  0  0  0  0  0  0
    5.9607    2.9867  -19.9878 H   0  0  0  0  0  0  0  0  0  0  0  0
    3.3898    3.2883  -18.3584 H   0  0  0  0  0  0  0  0  0  0  0  0
    4.7969    1.2697  -17.8116 H   0  0  0  0  0  0  0  0  0  0  0  0
    3.6378    5.3942  -16.9560 H   0  0  0  0  0  0  0  0  0  0  0  0
    3.9684    6.1493  -18.3657 H   0  0  0  0  0  0  0  0  0  0  0  0
    3.2026    4.0009  -20.5789 H   0  0  0  0  0  0  0  0  0  0  0  0
  1  2  2  0
  1  3  1  0
  2  8  1  0
  3  9  2  0
  4  8  2  0
  4  9  1  0
  5 10  2  0
  5 11  1  0
  6 10  1  0
  6 12  2  0
  7 11  2  0
  7 12  1  0
  8 19  1  0
  9 29  1  0
 10 24  1  0
 11 34  1  0
 12 35  1  0
 13 20  1  0
 13 30  1  0
 13 32  2  0
 14 15  1  0
 14 16  1  0
 15 17  1  0
 16 18  1  0
 17 19  1  0
 18 19  1  0
 19 31  1  0
 21 25  1  0
 22 29  1  0
 23 29  1  0
 24 27  1  0
 25 29  1  0
 26 28  1  0
 26 31  1  0
 27 28  1  0
 27 30  1  0
 28 33  1  0
  1 36  1  0
  2 37  1  0
  3 38  1  0
  4 39  1  0
  5 40  1  0
  6 41  1  0
  7 42  1  0
 14 43  1  0
 14 44  1  0
 15 45  1  0
 15 46  1  0
 16 47  1  0
 16 48  1  0
 17 49  1  0
 17 50  1  0
 18 51  1  0
 18 52  1  0
 20 53  1  0
 20 54  1  0
 20 55  1  0
 21 56  1  0
 21 57  1  0
 21 58  1  0
 22 59  1  0
 22 60  1  0
 22 61  1  0
 23 62  1  0
 23 63  1  0
 23 64  1  0
 24 65  1  0
 24 66  1  0
 25 67  1  0
 25 68  1  0
 26 69  1  0
 26 70  1  0
 27 71  1  6
 28 72  1  1
 30 73  1  0
 31 74  1  0
 31 75  1  0
 33 76  1  0
M  CHG  1  31   1
M  END
>  <OMEGA_C>  (1) 
mJ8JQTfU70AXMpTB8Bf1QIEj30D5+YzB6OACQZj8A0HiC53BMMG7QIHg/UBTl5fBfTnLQE2iMT/q
N6zBlvOSQH/HQr9oOqXBub7UQCrZ3L8OWqzB3dLIQGtD50Cna47BNqjZQMPFB0EOzJ7BG5OiQBjq
Bz8ddKfByHHkQHbx3b72jq7B8d2rQHyj8b+Zw6fB6a7aQPJWuD+/dJDBMTetQDPvA0FUqWTB1xGc
QBosDkEGUnnB8EzMQDzs4kDvemnBvj6GQEFB+kCvlYPBEee3QNN3wUCwmXjBXvelQE8a1kD1wIbB
cHzkQJRF7T4MaIfB87GtQJh+A0F3grvBiOyeQE0QHkEsmqfBfH3qQDWDIUHBKq7Bb+KIQIih3j/q
I6TBQwTDQL7b+0DS1LDBHLOjQH/1kEAaJZDBam6iQDQTJECp6pvBeFqHQJT8bEDmepfBzpvJQOeF
EUGfT6nBvCiwQFw/2T8P/ZLB0siLQDZ8tkC9hYzB0RH4QGjjAkBgzZTBcmRwQJubkEBSDaDBeuUF
QXrwjL5a37LBOJOcQBUTSMAQvaXB1XgaQT0P6kA67pLBUrL/QKgBzECJSYbBR5AOQS9pCkGmiqLB
Rv2ZQI7mAEF9JpnB/+3WQDt+1z80EK7BKsJnQDqnYr9JlKHB4QvoQKveJcBHLa7BpRm+QBY0EEFs
SFvBKRuSQHtp+0BHUlvBx8CEQEO0GkHgOHXBmMy2QENMFUGEJIHBpjfpQHX870BvGXHB7xDVQI8r
00APXVrBWgVXQBg17EDXIH7BVtZzQJO5BEFl5orBj1rQQJawqUDq83zBU4OdQIF+sUB8H3DBfZkD
QfkA4T7d9YXBjvHTQB3WST87FoDBs1/ZQMbHCr8vpYnB/SyqQKzJ6UASWMDBYfSNQE57CkHgALrB
5aPBQGYcD0Gw2b/BFT2UQDTbJEGyRK/B6EqGQM8bE0FkhKTBnCukQDUPK0GG0KHBQbndQNEaKEEh
rbXBfD/wQEKcLkHKd6jBw18EQZgfGUF2ya/B8S+CQJEKF0C3NavBMRNVQOKvtD+UiKDBBdCuQDJa
5EAmqazBiX/iQGGc7UD2gbLBTUGtQHcwe0D/MYnB7GvAQPtOm0BvhpTBc76+QLomP0D25p/BCPJY
QCd0UkD73ZLB93+ZQEyEoj86fo7BRNFoQKydrEDepYfBJ/p9QOrGxEDz7JLByPZMQI4HgECioaTB
rDAKQTVy7kAPdpPBZ/H1QGVR3kCpQIzBVJwDQeb7AkH1dZzBYxe9QOUe+0DWZZfBBdTMQDv8ST/l
eqzBaIKRQLgmHL/6ZKbBLKPTQIjL0b/KsazB/MjJQGb/5UDR+Y3BSBrbQJ17BkGigp7BDQqjQBhr
Kj/DTKjB6z3lQDynub5cka7BPq2pQNBr4b+cqqjBe7DXQLIruj/sTJDBw3usQHocBEHw2mPB+Qed
QBZ1DkHKxnjBD0vLQDrQ4kAhOWjBM0CHQIcr+0DcaIPB3Eu3QOx7wUASj3fBaGimQCQp1kA3VIbB
a8feQHQ76j49PIfBJmAGQUc4HEG3pbTBnWnBQDJxAUEEW7HB43WgQGeZHkHpPqbBHlSKQIDe8j9U
GqXBTcHrQEzvI0GAVqzBqQGjQLnBkEBnjI/B2R+jQNbLKUC+VZzBJJSIQFK8c0CiAJjBvwrLQPBi
EkH2lqjBwQKuQLAq3j9ae5PBm+eLQIYUt0CTJ4zBN2H2QN6XA0CCE5TBYsF9QHvDlkBQhaDBOtYG
QXxqd76BSrLBEK2YQCvwPsCF4KbB3AIbQSHC6EAMFpLB3BgAQQEIzEA6YoXBpnMPQZZrCUFD3qHB
oWibQJy1/UCEOJnBaAbaQCwx4j94Eq7BcBljQNEZNL9bMaPB503mQDKMIcCIWK7BaCG9QDo/EEF5
M1rBNZqQQNgs/ECW9VrBaBOGQG5GG0FDEnXBJ5W4QA46FUG2sYDB5sToQGJy70Czem/B7A3TQA0N
00Dr+FjBJ29XQB3a7UCOG37BCyd4QII9BUEl04rB/cHPQMCFqUAIo3vBfW+cQKa3sUDrW2/B+4MA
QfUg1j46O4XBf3nMQIhURj/+KIDB4O7TQOslCr+qxonBYRURQZeFKUEjx7bB2tQPQaYHD0EUPrHB
aPr7QAqYFkHD2rvBIei1QIKCCUHeoLjBtsveQGz18EDKMrPBrbeoQFGp7EB7cq7Bm8eVQCDnJkHl
h63BZMSHQLAgE0G3taPBKNalQHheKkGt15/B2TqGQC89I0DbG6zB6ndVQLgozT9lBaLBeUD9QByt
KUEgQ6XBLZHZQIE9MUHO36/Bmu+nQOj1dkCqpYjBLjXCQPzgmUCL7JLBSLnAQAyNQ0A82J/BRi5W
QPWxWkAwW5TBUQmWQE5OpT8xjY/BgKpnQJkWrkAJY4fB5BaAQE50xUDEqZLBrblcQPBliEB4y6XB
C+MIQeB78kDPcZPBP0v0QOTU4UBlCYzBCbEBQZ12A0EuypzBxgy6QPWq9kBjv5fBeSjMQDtsaT8T
Fq3BrwGVQLvyG7+WcabBKofXQJrGv79fw63Beb3HQOU85UDj9o3BRvrWQAn1BEGq9Z7BaJ6jQOJ/
Mz9/YqjBZDjmQOozQL6srq/BC9iuQKaP2r+JMKnBYJLbQDjuzD/emJDBDPSoQLGvA0FoFGPB+X+Z
QP0KDkEr/HfBW57JQAW840AtkmfBf0iFQP4w+kApPoPBjzu3QDu1wUBvAnfBlCKlQEOO1UBxBobB
3d3mQDMVBD9YgIjBjJKMQLjNLkER4azBMvbmQJBuIEFTq63BBau4QBZUAEHNc7HB/z+JQDI58D/k
r6TBfHqcQKvDHUHFB6XBZOihQKz8j0DYJo/B8FGiQBpUKkDJI5zBcX+GQDXTb0AKM5fBHSPFQA3o
EEEgyqjBowKxQEq53z+HnZPBYWCKQOWBtUBSdIvBzFX4QCjsDUBaGZXBX1pwQIdslEDlY5/BoboG
QeBgdDyA8LPBY7igQAWnPcDiU6fBOdcZQfGL70Cb8ZHBJ6f/QP1h0kA+2YTBqxwNQUoyCkHUVKLB
9IGYQANM9UDuzJnBeiHXQJpG9T+Yr67BPv9rQMsLRb/k2aLBMHXrQIL1FcBlzK/BCQe4QDz+D0FY
AVnBlVGNQAWm+UDim1rBapuBQFhtGkF9SXTB4+C0QNRhFUF4IYDBxWPmQLv08UCwzG7BpTjSQGQr
1EDpYVjBfsxSQChe7EBXQ37BiKx1QMTMBEEktorBrt3QQHkTq0CfL3vB1kSdQMh/sEDvz27BuO4E
QcRM3z6Hz4fBiDPZQOeURj+OqYDBpqvZQE7J5L6vMIvB7n1gQOrQNkHGhqnBCwCmQNKqOkGTPK7B
awyEQAIsJ0FihLTBzB/ZQGykKEFdpLTBG1nwQHVWLEHGoKfBI6UBQSlFF0HaLbDBaeSrQGKxCEFs
gbjBlBzVQCUZ7kDaw7PB7CSgQIrr6kBgPa7BcmuCQBE0IkD5h6vBj/VVQHL/wT+WP6HBtVCkQAjB
JUElcJ3BFV2CQDdCEkH0t6PBVSqpQEAYdkCXUIjBlfC/QOkjmkDr+ZLBAjG+QLOASEAQ+J/BLltW
QEI5UkBnEJPBdASbQL3WmT9JyI/BcH5nQJ/Iq0DZWIbBdD15QJRjw0ADypHBHCtOQBEphUBbYqTB
PJIIQXFL5UDSe5XBbuPyQHVf2ECx2Y3BWpcCQS9UAEFR2Z3B+Ru8QAabAEEMKpfBFBDJQF+3MD+e
wqzBKT+UQOzbRb/PV6TB0xnUQDyO3L9xmKzB2dHHQNtl5kB5jY7BXMDaQLEmCEHpkZ7B/ieiQCje
BD9vMqfBqB3iQAkt3L5vZq/BNAmtQFZg8r9xH6fBOhDcQGtWxT9fFpDBlkmuQGZQBEGGx2TBcaWb
QPJnDkFvN3nBnerMQPmB40DVD2rB0EaFQFR4+kDlX4PBleK2QG30wUDBdXjBF9WkQLFX1kBWuIbB
/hvnQFLSAj+gg4fBH3QGQdKgMUE2JpzBaATnQFt2GUHw37DBSZifQHwXHUFeVajBjISIQHF83D8W
zaPB0q/dQEGOMEHF95/BDOyiQNHskEAx9o/BO5miQGorJEAU0pvBXzuHQMXobEDlaJfBFVjQQG5p
G0ET26XByFixQIp72z/24pLBYL2KQDSHtkC0aYzB3/X4QEg3BkC5BZXBZetwQBewkEClAKDBT8UD
QcEKh77ap7TBqlOfQKyFSMDbg6TBFuIYQcQe2kDB6ZTBgXn8QAWQw0DMYYfBQkEOQTPxBEG1yqPB
zgCbQMYwBUH9G5jBZJXTQIIf1z/O/K7B4i9tQH3uZr8EB6DBxE3nQCFeJcD8o67Bhey/QH+iEEHx
0lvByd+TQHtj/ECj4lrBDViEQJXUGkHByHTBc621QHmlFUH9S4HBRiDpQA1I8EAGbnLBpAvXQO0R
1EDYE1vBxyBWQDdg7EDjWX3BZk9wQITBBEF3n4rBe1nOQI8oqUDhv3zBD1WcQF1Ns0CRhm/B5wkF
QZAd0D5O84bB9lDaQAawVz9zg3/BluLYQE346r6xp4nBi1kJQXUKQUGiJ5jBIZEJQSl+JEG5gJbB
2y0RQREbMEGzFaPBAezeQLpoJ0Gm2LXBru4EQevUGEFQrK/BZ1PcQLHCCkE66LTBqreZQKL9KkE5
h63B0OSUQLJwDkHmaKzBTL+NQJQGH0F3z6DB3d6AQMRHFUDP3qrBYVhVQCvtsT/H95/BsQDJQBFg
MkHh55jBJTrYQPn8PUHcfKXBQAWsQHIWe0AN+ojBwe2/QINRm0BhN5TBF2a+QGF6P0CGAKDBvD9Y
QK0HUkCa6ZLBnDebQK7UnT+FlI7B1dBmQGa5rEBfhIfBQsN7QBiQxED/15LBjThOQK8fgEDoq6TB

>  <OMEGA_E>  (1) 
mNgfPhDxIz540Ds+QGNhPg==

>  <OMEGA_NBR>  (1) 
    302672

$$$$
50214107
     RDKit          3D

 71 73  0  0  1  0  0  0  0  0999 V2000
    8.5855    7.4884  -18.4897 C   0  0  0  0  0  0  0  0  0  0  0  0
    8.1563    8.1843  -19.6301 C   0  0  0  0  0  0  0  0  0  0  0  0
    7.6404    6.9803  -17.5777 C   0  0  0  0  0  0  0  0  0  0  0  0
    5.8366    7.8443  -18.9586 C   0  0  0  0  0  0  0  0  0  0  0  0
    6.3687    0.7294  -21.5122 C   0  0  0  0  0  0  0  0  0  0  0  0
    4.6097   -0.7368  -20.6590 C   0  0  0  0  0  0  0  0  0  0  0  0
    6.6742   -1.6886  -21.5429 C   0  0  0  0  0  0  0  0  0  0  0  0
    6.7799    8.3360  -19.8685 C   0  0  0  0  0  0  0  0  0  0  0  0
    6.2497    7.2020  -17.7772 C   0  0  0  0  0  0  0  0  0  0  0  0
    5.0961    0.5582  -20.9239 C   0  0  0  0  0  0  0  0  0  0  0  0
    7.1620   -0.3933  -21.8081 C   0  0  0  0  0  0  0  0  0  0  0  0
    5.3942   -1.8588  -20.9774 C   0  0  0  0  0  0  0  0  0  0  0  0
    5.7009    8.0061  -21.9997 C   0  0  0  0  0  0  0  0  0  0  0  0
    6.3183    8.8811  -21.1295 C   0  0  0  0  0  0  0  0  0  0  0  0
    6.8504    1.5079  -18.0266 C   0  0  0  0  0  0  0  0  0  0  0  0
    5.3574    8.2684  -14.2743 C   0  0  0  0  0  0  0  0  0  0  0  0
    4.8306    8.8955  -15.5752 C   0  0  0  0  0  0  0  0  0  0  0  0
    6.3449    7.1237  -14.5587 C   0  0  0  0  0  0  0  0  0  0  0  0
    4.1661    7.8212  -16.4412 C   0  0  0  0  0  0  0  0  0  0  0  0
    5.7234    6.0614  -15.4957 C   0  0  0  0  0  0  0  0  0  0  0  0
    5.1620    6.6873  -16.8097 C   0  0  0  0  0  0  0  0  0  0  0  0
    5.3282    8.3564  -23.4169 C   0  0  0  0  0  0  0  0  0  0  0  0
    6.5431   10.3550  -21.4181 C   0  0  0  0  0  0  0  0  0  0  0  0
    7.1682    0.4880  -16.9376 C   0  0  0  0  0  0  0  0  0  0  0  0
    4.2861    1.7602  -20.5070 C   0  0  0  0  0  0  0  0  0  0  0  0
    5.0956    4.5240  -17.9733 C   0  0  0  0  0  0  0  0  0  0  0  0
    5.0800    2.5876  -19.4793 C   0  0  1  0  0  0  0  0  0  0  0  0
    4.2247    3.7165  -18.9209 C   0  0  2  0  0  0  0  0  0  0  0  0
    5.5193    1.7266  -18.3628 N   0  0  0  0  0  0  0  0  0  0  0  0
    4.3443    5.6906  -17.5174 N   0  0  0  0  0  0  0  0  0  0  0  0
    7.7656    1.9963  -18.6811 O   0  0  0  0  0  0  0  0  0  0  0  0
    3.7710    4.5504  -19.9878 O   0  0  0  0  0  0  0  0  0  0  0  0
    8.3933   -0.2271  -22.3412 F   0  0  0  0  0  0  0  0  0  0  0  0
    4.9194   -3.0999  -20.7323 F   0  0  0  0  0  0  0  0  0  0  0  0
    9.6406    7.3425  -18.3114 H   0  0  0  0  0  0  0  0  0  0  0  0
    8.8775    8.5996  -20.3185 H   0  0  0  0  0  0  0  0  0  0  0  0
    7.9746    6.4171  -16.7189 H   0  0  0  0  0  0  0  0  0  0  0  0
    4.7828    7.9591  -19.1654 H   0  0  0  0  0  0  0  0  0  0  0  0
    6.7322    1.7217  -21.7346 H   0  0  0  0  0  0  0  0  0  0  0  0
    3.6353   -0.8674  -20.2118 H   0  0  0  0  0  0  0  0  0  0  0  0
    7.2816   -2.5515  -21.7730 H   0  0  0  0  0  0  0  0  0  0  0  0
    5.4714    7.0124  -21.6442 H   0  0  0  0  0  0  0  0  0  0  0  0
    5.8693    9.0438  -13.6856 H   0  0  0  0  0  0  0  0  0  0  0  0
    4.5076    7.8724  -13.6989 H   0  0  0  0  0  0  0  0  0  0  0  0
    4.0935    9.6749  -15.3318 H   0  0  0  0  0  0  0  0  0  0  0  0
    5.6686    9.3436  -16.1293 H   0  0  0  0  0  0  0  0  0  0  0  0
    7.2455    7.5381  -15.0352 H   0  0  0  0  0  0  0  0  0  0  0  0
    6.6207    6.6445  -13.6077 H   0  0  0  0  0  0  0  0  0  0  0  0
    3.3210    7.3877  -15.8863 H   0  0  0  0  0  0  0  0  0  0  0  0
    3.7968    8.2868  -17.3668 H   0  0  0  0  0  0  0  0  0  0  0  0
    6.4970    5.3244  -15.7572 H   0  0  0  0  0  0  0  0  0  0  0  0
    4.9021    5.5582  -14.9644 H   0  0  0  0  0  0  0  0  0  0  0  0
    4.8507    7.4890  -23.8962 H   0  0  0  0  0  0  0  0  0  0  0  0
    4.6277    9.2046  -23.4128 H   0  0  0  0  0  0  0  0  0  0  0  0
    6.2341    8.6318  -23.9768 H   0  0  0  0  0  0  0  0  0  0  0  0
    6.1355   10.6014  -22.4097 H   0  0  0  0  0  0  0  0  0  0  0  0
    6.0354   10.9601  -20.6525 H   0  0  0  0  0  0  0  0  0  0  0  0
    7.6215   10.5716  -21.4010 H   0  0  0  0  0  0  0  0  0  0  0  0
    8.2552    0.3252  -16.8929 H   0  0  0  0  0  0  0  0  0  0  0  0
    6.8139    0.8656  -15.9671 H   0  0  0  0  0  0  0  0  0  0  0  0
    6.6644   -0.4625  -17.1674 H   0  0  0  0  0  0  0  0  0  0  0  0
    4.0716    2.3809  -21.3894 H   0  0  0  0  0  0  0  0  0  0  0  0
    3.3405    1.4256  -20.0554 H   0  0  0  0  0  0  0  0  0  0  0  0
    5.3744    3.9035  -17.1089 H   0  0  0  0  0  0  0  0  0  0  0  0
    6.0053    4.8525  -18.4974 H   0  0  0  0  0  0  0  0  0  0  0  0
    5.9597    3.0199  -19.9785 H   0  0  0  0  0  0  0  0  0  0  0  0
    3.3740    3.2927  -18.3671 H   0  0  0  0  0  0  0  0  0  0  0  0
    4.8162    1.2731  -17.8151 H   0  0  0  0  0  0  0  0  0  0  0  0
    3.6232    5.3786  -16.8988 H   0  0  0  0  0  0  0  0  0  0  0  0
    3.9319    6.1308  -18.3150 H   0  0  0  0  0  0  0  0  0  0  0  0
    3.2269    4.0424  -20.5780 H   0  0  0  0  0  0  0  0  0  0  0  0
  1  2  2  0
  1  3  1  0
  2  8  1  0
  3  9  2  0
  4  8  2  0
  4  9  1  0
  5 10  2  0
  5 11  1  0
  6 10  1  0
  6 12  2  0
  7 11  2  0
  7 12  1  0
  8 14  1  0
  9 21  1  0
 10 25  1  0
 11 33  1  0
 12 34  1  0
 13 14  2  0
 13 22  1  0
 14 23  1  0
 15 24  1  0
 15 29  1  0
 15 31  2  0
 16 17  1  0
 16 18  1  0
 17 19  1  0
 18 20  1  0
 19 21  1  0
 20 21  1  0
 21 30  1  0
 25 27  1  0
 26 28  1  0
 26 30  1  0
 27 28  1  0
 27 29  1  0
 28 32  1  0
  1 35  1  0
  2 36  1  0
  3 37  1  0
  4 38  1  0
  5 39  1  0
  6 40  1  0
  7 41  1  0
 13 42  1  0
 16 43  1  0
 16 44  1  0
 17 45  1  0
 17 46  1  0
 18 47  1  0
 18 48  1  0
 19 49  1  0
 19 50  1  0
 20 51  1  0
 20 52  1  0
 22 53  1  0
 22 54  1  0
 22 55  1  0
 23 56  1  0
 23 57  1  0
 23 58  1  0
 24 59  1  0
 24 60  1  0
 24 61  1  0
 25 62  1  0
 25 63  1  0
 26 64  1  0
 26 65  1  0
 27 66  1  6
 28 67  1  1
 29 68  1  0
 30 69  1  0
 30 70  1  0
 32 71  1  0
M  CHG  1  30   1
M  END
>  <OMEGA_C>  (2) 
Ol4JQfag70D96pPBXYACQczyAkGICp3B/n30QFde30Akn4zBasW6QKUE+0BHq5fBMMzLQDa3Oj//
GKzBSoKTQC6cPL+eRaXBZpPVQLEk2L/TV6zBJvXYQBhgBUG18p7Bav3HQAJ35kC9N47B5BKjQPji
Dj80ZKfBRC/lQFFeyb7sdq7BJJ2sQCXu7b/G0afBiG22QAIZAEFU/6/BpC/KQCEZDkFNCanB0Dbb
QNUCwT+FNpDB0m+rQDtLBEFbY2TBXpSaQBBUDkEWNHnBRgnLQPr040BP8GjB9FCFQCBH+kCMh4PB
UCa3QET3wUAw7nfBKi+lQHL+1UBPeobBlICqQOezBUHnVbvBNGHRQESuJUFZWKvB8mHlQP3Z+T5N
gIfB6CeJQKdN4T9QDqTBZg+jQH/EkEBdyY/BUI+iQOWaJUCy1ZvBsDCHQH7bbUDzXZfBLJ6wQFYB
3T8Y55LBegSLQJYZtkCmI4zBIoD4QOiG/z/TcpXBl1dxQDqdkUDt5p/B6UoGQa6NaL6yurLBqGud
QCllRsDZ26XBEUAaQZf16kDQfZLBRgoOQdmXCUFNjKLB/C//QH1YzUBiwIXBtAyZQKyw/kCwUpnB
1m3XQNxh3D994K3B2qhoQPMQXr/OsaHBlwLpQAZMI8AuL67BxhWvQNxl4EBPJ63BqtG7QIezEEEI
+FrBUT6QQADr+0B/LlvBIv6CQHbMGkEcT3XBHGW1QER/FUHdCIHBOdvnQFQ48UAukHDB79zTQJuf
1EA2uVnBqYtUQP9n7EBYLn7BBP9yQKuWBEFF74rBLufPQGNhqkBjHXzBHd6cQLLcsUBUbm/BEDmb
QCGm70BUK7/BUxaUQNdFE0FmTbvBIn7HQPwbCkFr0L/BAVbEQFCfKUEIR7PBOCLBQGBcL0FMOKXB
9eLzQDslKUFDNavBMhUEQe+Apj61JIfBcAvaQPOXXT9seX/Bm0LVQODJ7L7BVonB2UqCQAthGECG
HavBIctVQMZ5tj+McaDBt/qrQN/SeUDv3ojBISvAQE1Hm0C1+pPB6rW+QGFGQUAI1J/BEfBXQAW7
UkC775LBnB6aQKX1oj9GhY7BMOJnQE4drEDVMIfBMKR7QK8vxEAehZLB24VOQDBbgUC8n6TBHH4N
QQ284UD9b5DBSIwKQdvq+EDy65nBMLj3QP+M1kDrHYrB7DXIQEeI+EAq+ZbBkcfJQMCLMD/AkqzB
fGySQBL/O79HxqTBoDXSQPD83b+Ir6zBmGjrQBZdAkHwU53B9+PNQGgX40CmKY3BPxKiQDWMDD/3
T6fBH/HhQCjk5r4vL6/BQleqQGAB8L+SiKfBTy4DQfiQFkHiKq3BxQTkQP/RD0ESBKfBtjzaQDrh
wz8c8I/Bsl2oQDagBkG0VGXBUqyeQL9eEEF5ZXvBQjPEQMPO5ECsNmfB69aIQNtO/0CY14TBCSmw
QJnEw0C3vHbBuOOlQBh710Cbi4bBSlABQcYZJ0Hg57XBHxW2QBpQFkEv8anBeRrjQAUwBz/EAofB
SBGJQNEE4z8BCqTBpHSjQHkxkkCO9o/BVRujQPD2JkBw/ZvBaHeIQFzvcUAK4pfBaP+vQNzs4T/s
3JLB8h2MQIHruEDPyYzBhjP4QLIQ/z/WFZXB5rt5QMnWk0DAp6DBLhsEQXReoL72GbTBYhabQJS+
RsB9MKXBcGgdQdV32EAZ/43BKkIYQebvAEERrp7B1G78QOZDxEBv4YLBIjSoQFrH/0C4rpnB3ZnV
QL8X1j+ol67B3TZoQDV/V79tt6DB6rXkQPAPJ8A3uK7Bd7MSQcefD0G8n6vBDmq5QLuJEkHpklvB
owCKQOJmAkEzfl3BUVmJQFY8HkHScHnBNMK8QFGNFUHsdYHBTAfkQKLn7UCgMm3BHGTHQFMe1kCP
TFfB5pVVQGEY9UDrCIHBW8uBQBHqBkGjqYzBncXGQC0jqUBD5HjBwUuSQMiht0AUq2/BjBcRQZOt
KUHhlbnBmvrrQLtzIUGLBbzBoPv2QBg8NkEDfLLB0IC2QDsgIEEgP7HBhceiQEzcB0E2VavBFQ6o
QKmZH0E7V6PBZOECQZZGsz7obIbB/D3XQNkrbj+HwH7B/7DSQKap1r5yyojBVDyCQN+GGEB5KavB
UpRVQB8suz8nTqDBJtKpQETYfEC+24jB2PPBQIs6m0CJu5PBHMC/QIwBQED/CKDBaZNXQE5KWUC0
0JPBluyYQFnzqj9jg47B3eNlQBQnsECdXIjBu+aBQI+px0DfaZPBVgZYQDAHhEDOl6XBXz4HQWSU
80DzrJTB7YX9QJyPBUGERp3BVwHzQKV44UB+94zBram1QN65+kAtDpfBTHjJQDDcOj+BOa3Bj4KT
QJTDMb/I1aTB+1fTQEMa2L+ZwazBHMjQQETFB0E6VZ7ByfzFQCAP5kCP9o3BZBqiQMgAFj9j0KfB
vxniQCdv0L63qq/BRwGsQFhV6r+9W6fBY5KZQJDsIUFsVKPBk0y+QNnGFkEfKqbBJjXbQDeiwT+9
nJDBG8+sQC27AUGcK2LBjJ+aQMV5DEEcT3bBgUDNQAFO4EDmBGjB0zGFQPAy90AAPILB5865QDP8
vkCBgXfBvGSlQBAA1EDZ2YXBwvSIQEc+NUGlPKnBOBTWQOAAG0EAkrDBghXlQKs1Cz/lgofBMBGJ
QIte5z98haTBkIijQCgzkEBKwo/B1eCiQKcPJ0C0O5zBCcSHQCEpb0B3mJfBI7ewQBGZ3D8McJPB
lgaLQBoetECxdYvBpVf4QH0CCkB3s5TBY8FzQHNok0C+95/BovEDQXOaib67z7TBk9KdQMK1Q8CR
iqTBbFYYQV5d70AG+pPBR1QJQdHhDEF8DKPBph4AQcYL0EBwR4bBSJOTQOOb+kCaepjBR6vUQBEa
2z+lfK/BphZrQEx3Tb9enqDBMTHmQBrxI8DPqa7BhMeHQDBnHEHVdJzB1Nq8QMjkDUFATFjBuWGS
QGkV9UCzCFnBW+GCQDmZGEEQonHBnby0QIYwFEGmPX/B3C7pQEQ570CZtG/BWGzXQCLsz0CCS1nB
GThWQM8F6EDMaHvB4ABwQMx/A0F+X4nBdUfTQJwDqUDpsHzBUe2gQLHfrEBz9m7BngpXQKv9OkE2
XKXB4D+hQN/5QUF+FanBAPuBQLPcMEFelLHBGuPDQMyBJkGQb7XBcOT1QA+iIUFPyK7BjKrZQHXs
C0G6BLXBHcwDQXP9Dz/hyIXB8DLTQPT7Vz9VUoDBiZHbQCx38r553YnBmvyCQH3gG0ColavB789U
QHajvz+/+6DBW1KtQJHidUB/L4nBTCLAQDRNnEDV5pPBJBq/QMbDQkDPMKDBI2BYQFC6U0DrVZPB
lh+aQCJhnz9UQo/B7btqQC2kqEAaUYbBZBd4QLmowkDMhZHBawhRQO3jg0CH2qTBfXEMQX7K6EBs
HJHBI3IIQYPe/0DHh5rBHtP2QI372kDAoorBPkrEQOTE+kA5EJfBMHPHQBCxRz+j7KzBcy6VQLag
SL9EtKTBe6nUQKQyz7+C5q3BfXLmQC8kBEHWsp3BjPrLQPwm5UCzVY3BlJqhQDr4CT/HE6fBVSLh
QOr9l77gO7DBgZOuQP9L7r+KL6jBmhu2QJ0zD0E8LKzB+UjdQNxzEUGPMafBWSzcQNzgxj+PBpDB
ESOnQB84A0Gc0mLB9F+cQO+MDkHI/HfBMu7EQEoV4ECDlGbB5H+HQOOQ/UA81YPBOeexQKnHwEAk
LnfBVmulQIYe10B+XIbBU4aeQBUZIkHswrDBKFL8QMA4I0EBVKrBRXXnQCkuCz+kUYfBsSeHQH2a
2T9NHKPBc5qiQHEGkkCWx4/B5umhQGzuJECafZvBuviGQEAhb0DFRZfBhz+xQF1G4T8ccJLBaXeL
QLD4uEDBrYzBGMv4QI8LA0DMdJXB2pByQEeKkUD6BaDBbOkCQaY/d70lorXBz5WiQItYSMCI+KXB
srYcQXeY4UDS0o7BsqAVQZCWBUFUWZ/BCV79QEJvyEAGiIPB9LyjQKuPAEENfpnBXK7QQPNs5T9W
267BbnhwQNMleL81OaDBC0zoQOuQHMACfrDB5gGoQLfy/kDsyqzByQe3QKmkDkEwDFjB9lCJQEEW
+0AmZFvBlh2GQEjPG0HFz3TB6fa5QDjjFEHdG3/BEffjQFPO60C2dmzBspnJQAQOz0DIWlfBBWNT
QCxj8UDrRoDBeSOAQK49B0HbU4vBQsDJQIvNp0C2lnrBYg6VQC8FskA+TnDBkDiAQEmsHEHIUrTB
r82XQC2yLUH2W6rBJVOyQLy8KUE39LbBKHLwQHpkK0HpiLHBlun+QO3MLkGCu6PBOf8NQRdJHEG4
+avBSygFQSajyD6HJofB1LTcQDGRbD/5BX/BPXrXQOmL075NBInBkkp5QOeKE0D1+KnBYvhVQEmQ
qD+20J7BRhWqQJFVfkCUlojBl4DAQEnamkCu3ZPBLmu9QK7bPkCG7J/BCKVWQOurVUBa2pLBNl6b
QKLaqT8pvY3Bg/5jQEN9sEAKU4jBpLiBQJHZx0BHVJPBav5PQIsAgUB3tqTBvqvPQMbqB0EEH6DB
Cvb7QGV+CEEQH57BZs2zQKc7/UBfj5jBCnLwQBQP6kCXdI3BHnLMQELLPj8raqzBlIiSQMLrJr8z
g6XBjZnSQCWE179q/qzBSjcGQRmK/kDZopTBdA3EQACP6kDqBY/B0NKjQHxbHz86l6fB1ufjQBHN
0L4/Dq/BksepQHHt5r9TSqjBqB4mQTDE6UCTIorBN1kcQfZmA0G9AJHBHGTYQJE3rj8xw4/B9bys
QGXZ/0ASL2HBkzmdQD+ODEEIzXTBQjrNQG2z3UAd4GfBGtqGQCH++kBsXILBkOe6QIfvv0CoXHnB
gGilQImh10BigIbBkfw4QSJN9EBx94LBeUomQQsKGUHHrZPBLC/eQPN5nj75BofBhYGLQOtH7T8O
S6TBXaajQDoekkCYkI/BvpikQMUIKECvrZvBL5iJQL+vckATpJfBBQivQHsG3j90m5LBFAyLQEyh
t0BiBozBHKP3QMf03j8e3JTBSuJ9QIf6lEArVKDB8HMFQXUClL7vobPBxtGYQH2nQcD6dKbBMQbD
QJCWDkH7b6fBoacIQWDyD0F9zaPBzr+RQKEu/UDLCJrBMHb9QL+a2UDzlobBfn/ZQPGb3D9uE67B
sPVmQP5uPr/byqHBGaDkQIl2JMDQBK/BpNwfQUiRyUAZ44nBtOe7QNX9CkHEylXBqi+RQDk+8EAd
f1nB94+GQBv7GEFom2/Bq9S4QK4fFEEurHzBTwzqQJua7UBUHG7BTr/VQCleykBQzFnB++1WQGPG
60A8s3zBbsV2QKTwBkEbNonBAjzVQMkVrEBdhX/BGZyiQA5Gq0D+6XHBTZA9QUWy10AfwXzB1JRG
QfrA/kAs6IfBR380QWwNB0H81XrB+6o2QeO5GUFaeZDB9LwmQbEgG0HuaZzBHaIcQVLfJUGGFJDB
3A4AQVl/wTx7h4bBh8fTQLVcOT/Bmn7BIdLKQFayE79O9IjB5NGGQN4TIEBrT6vBaFpYQOtvxz+E
DaHBN7+qQKUbe0CHpYjBscnBQAqynEBnQ5PBGkPCQJQSQUDnO5/BwP1YQEjFWUCbypPB+cyWQIFJ
sD+uO47BNSNoQGjMrUB0B4fBCnF7QNNaxUAhcJLBjhJdQD2mhUDRc6XB

>  <OMEGA_E>  (2) 
0LiFPszfhT6kWoI+KOymPuA16j4=

>  <OMEGA_NBR>  (2) 
      5881

$$$$
50167944
     RDKit          3D

 67 69  0  0  1  0  0  0  0  0999 V2000
    7.4558    7.3190  -17.9430 C   0  0  0  0  0  0  0  0  0  0  0  0
    7.8999    8.0114  -19.1693 C   0  0  0  0  0  0  0  0  0  0  0  0
    4.5986   -0.6170  -20.8223 C   0  0  0  0  0  0  0  0  0  0  0  0
    6.4189    0.8285  -21.5765 C   0  0  0  0  0  0  0  0  0  0  0  0
    6.6659   -1.5947  -21.6704 C   0  0  0  0  0  0  0  0  0  0  0  0
    5.1230    0.6723  -21.0374 C   0  0  0  0  0  0  0  0  0  0  0  0
    5.3667   -1.7489  -21.1454 C   0  0  0  0  0  0  0  0  0  0  0  0
    7.1933   -0.3049  -21.8816 C   0  0  0  0  0  0  0  0  0  0  0  0
    6.0794    7.2934  -17.8306 C   0  0  0  0  0  0  0  0  0  0  0  0
    6.8373    8.4436  -19.9299 C   0  0  0  0  0  0  0  0  0  0  0  0
    6.7866    1.5000  -18.0020 C   0  0  0  0  0  0  0  0  0  0  0  0
    5.5261    8.1345  -14.1832 C   0  0  0  0  0  0  0  0  0  0  0  0
    4.8452    8.7939  -15.3919 C   0  0  0  0  0  0  0  0  0  0  0  0
    6.5780    7.1041  -14.6342 C   0  0  0  0  0  0  0  0  0  0  0  0
    4.1693    7.7193  -16.2460 C   0  0  0  0  0  0  0  0  0  0  0  0
    5.9711    6.0391  -15.5692 C   0  0  0  0  0  0  0  0  0  0  0  0
    5.1894    6.6710  -16.7577 C   0  0  0  0  0  0  0  0  0  0  0  0
    7.0388    0.4102  -16.9653 C   0  0  0  0  0  0  0  0  0  0  0  0
    5.9523   10.4136  -21.1745 C   0  0  0  0  0  0  0  0  0  0  0  0
    6.3934    8.2329  -22.3578 C   0  0  0  0  0  0  0  0  0  0  0  0
    4.3319    1.8818  -20.6066 C   0  0  0  0  0  0  0  0  0  0  0  0
    5.1258    4.5222  -17.9417 C   0  0  0  0  0  0  0  0  0  0  0  0
    6.8813    9.1793  -21.2440 C   0  0  0  0  0  0  0  0  0  0  0  0
    5.1085    2.6423  -19.5161 C   0  0  1  0  0  0  0  0  0  0  0  0
    4.2625    3.7677  -18.9373 C   0  0  2  0  0  0  0  0  0  0  0  0
    5.4812    1.7188  -18.4262 N   0  0  0  0  0  0  0  0  0  0  0  0
    4.3625    5.6502  -17.4149 N   0  0  0  0  0  0  0  0  0  0  0  0
    7.7391    2.0510  -18.5439 O   0  0  0  0  0  0  0  0  0  0  0  0
    3.8511    4.6515  -19.9808 O   0  0  0  0  0  0  0  0  0  0  0  0
    4.8608   -2.9842  -20.9355 F   0  0  0  0  0  0  0  0  0  0  0  0
    8.4463   -0.1547  -22.3670 F   0  0  0  0  0  0  0  0  0  0  0  0
    5.3309    8.0217  -19.2088 S   0  0  0  0  0  0  0  0  0  0  0  0
    8.1284    6.8837  -17.2188 H   0  0  0  0  0  0  0  0  0  0  0  0
    8.9354    8.1609  -19.4375 H   0  0  0  0  0  0  0  0  0  0  0  0
    3.6076   -0.7358  -20.4096 H   0  0  0  0  0  0  0  0  0  0  0  0
    6.8148    1.8175  -21.7543 H   0  0  0  0  0  0  0  0  0  0  0  0
    7.2576   -2.4656  -21.9109 H   0  0  0  0  0  0  0  0  0  0  0  0
    6.0193    8.9114  -13.5806 H   0  0  0  0  0  0  0  0  0  0  0  0
    4.7638    7.6268  -13.5741 H   0  0  0  0  0  0  0  0  0  0  0  0
    4.0895    9.5118  -15.0404 H   0  0  0  0  0  0  0  0  0  0  0  0
    5.5991    9.3210  -15.9950 H   0  0  0  0  0  0  0  0  0  0  0  0
    7.3845    7.6286  -15.1676 H   0  0  0  0  0  0  0  0  0  0  0  0
    6.9908    6.6043  -13.7455 H   0  0  0  0  0  0  0  0  0  0  0  0
    3.4068    7.2087  -15.6394 H   0  0  0  0  0  0  0  0  0  0  0  0
    3.6883    8.2007  -17.1103 H   0  0  0  0  0  0  0  0  0  0  0  0
    6.7843    5.4173  -15.9717 H   0  0  0  0  0  0  0  0  0  0  0  0
    5.2817    5.4095  -14.9875 H   0  0  0  0  0  0  0  0  0  0  0  0
    8.1221    0.2634  -16.8429 H   0  0  0  0  0  0  0  0  0  0  0  0
    6.5986    0.7107  -16.0031 H   0  0  0  0  0  0  0  0  0  0  0  0
    6.5773   -0.5299  -17.3020 H   0  0  0  0  0  0  0  0  0  0  0  0
    5.9839   10.9513  -22.1336 H   0  0  0  0  0  0  0  0  0  0  0  0
    4.9220   10.0859  -20.9717 H   0  0  0  0  0  0  0  0  0  0  0  0
    6.2900   11.0816  -20.3685 H   0  0  0  0  0  0  0  0  0  0  0  0
    6.4204    8.7581  -23.3239 H   0  0  0  0  0  0  0  0  0  0  0  0
    7.0485    7.3503  -22.4019 H   0  0  0  0  0  0  0  0  0  0  0  0
    5.3628    7.9142  -22.1426 H   0  0  0  0  0  0  0  0  0  0  0  0
    4.1726    2.5426  -21.4714 H   0  0  0  0  0  0  0  0  0  0  0  0
    3.3590    1.5600  -20.2068 H   0  0  0  0  0  0  0  0  0  0  0  0
    5.4110    3.8519  -17.1175 H   0  0  0  0  0  0  0  0  0  0  0  0
    6.0320    4.8917  -18.4441 H   0  0  0  0  0  0  0  0  0  0  0  0
    7.9096    9.5046  -21.4603 H   0  0  0  0  0  0  0  0  0  0  0  0
    6.0174    3.0714  -19.9631 H   0  0  0  0  0  0  0  0  0  0  0  0
    3.3906    3.3419  -18.4192 H   0  0  0  0  0  0  0  0  0  0  0  0
    4.7484    1.2193  -17.9640 H   0  0  0  0  0  0  0  0  0  0  0  0
    3.7038    5.3011  -16.7484 H   0  0  0  0  0  0  0  0  0  0  0  0
    3.8732    6.0811  -18.1731 H   0  0  0  0  0  0  0  0  0  0  0  0
    3.3112    4.1781  -20.6028 H   0  0  0  0  0  0  0  0  0  0  0  0
  1  2  1  0
  1  9  2  0
  2 10  2  0
  3  6  2  0
  3  7  1  0
  4  6  1  0
  4  8  2  0
  5  7  2  0
  5  8  1  0
  6 21  1  0
  7 30  1  0
  8 31  1  0
  9 17  1  0
  9 32  1  0
 10 23  1  0
 10 32  1  0
 11 18  1  0
 11 26  1  0
 11 28  2  0
 12 13  1  0
 12 14  1  0
 13 15  1  0
 14 16  1  0
 15 17  1  0
 16 17  1  0
 17 27  1  0
 19 23  1  0
 20 23  1  0
 21 24  1  0
 22 25  1  0
 22 27  1  0
 24 25  1  0
 24 26  1  0
 25 29  1  0
  1 33  1  0
  2 34  1  0
  3 35  1  0
  4 36  1  0
  5 37  1  0
 12 38  1  0
 12 39  1  0
 13 40  1  0
 13 41  1  0
 14 42  1  0
 14 43  1  0
 15 44  1  0
 15 45  1  0
 16 46  1  0
 16 47  1  0
 18 48  1  0
 18 49  1  0
 18 50  1  0
 19 51  1  0
 19 52  1  0
 19 53  1  0
 20 54  1  0
 20 55  1  0
 20 56  1  0
 21 57  1  0
 21 58  1  0
 22 59  1  0
 22 60  1  0
 23 61  1  0
 24 62  1  6
 25 63  1  1
 26 64  1  0
 27 65  1  0
 27 66  1  0
 29 67  1  0
M  CHG  1  27   1
M  END
>  <OMEGA_C>  (3) 
/pXuQKQ16kBQi4/BXsz8QK0uAEG3WpnBWSeTQGTzHb8ElKbBp2fNQC0YVD/BnKzBNU/VQIAezL/z
XK3BYu+jQEgeLD+eTKjB8LurQCXc37/LKanBjy/mQA8dnL6YDa/BVorCQM1j6UADpY7BccvaQM4Y
B0FwcJ/BryvZQAYAwD8rBJDBttWwQAsnAkGB7mLBiAubQOuzDEFIRXbBOX/SQApV40B7JWrB42qF
QK4E90DA94HBUBO/QE9AwUBfG3nBQg+mQDt51UDCD4bB0T3hQOgC0j7ouIfBg3m+QBKeJkFyZanB
mpbMQPK5A0G33LLBJJ+KQMje8D9S2qTB5QakQL21kECtiI/BkDPcQIjeEkHC86nBwHijQFYbKUD6
IJzBWWaIQMshcUCLf5fB62WvQJEB3D/HaJPB7JmLQBrOtEDEUYvBxKb3QFdEA0AAWpTBEnl2QMLY
lECb2J/BeYubQCD9PsD6e6fB2SMHQdJ1Hr6L77LBsZaqQO9YAEGGq5nBCA4CQQdH3EAywInBVvcO
QQiTAkHxf5vB7eJmQG9cPL/bRqPB2hLaQISi6D/hCK7BKD7oQE/MHcB7Sa/BHZ7AQCqVDkEJSlnB
yXCYQK0O9EBpL1nB69yCQHYwGEGWpXDB9iuzQOYiFUGK63/BrU3sQB8d9ECrrnLB2bTfQGdW00Bq
7VvBpwlaQOit5kDoOnrB1A1sQPg1A0HM4YjBYBnZQKZarUAbjH/BxwOpQNwarUC9zG/BAvQBQcXh
hj4+vobBrCfTQL3xNT9ABoDBSnnSQAelB79raorBwHu/QLY4L0GiEbHBUoGdQAVgIUETxqfBBkjJ
QD9OMUGp8qLBN3TNQCYhDEFil7rBEY3hQO8160AIN7PBCZyrQAdB/UD2I7HBt4WFQCG6IkB/xavB
cPlWQOKuxz+Rp6HB5SatQDWFdkCg8IjBJAbBQK+InEB5jZPBZhv9QAcTGEGnrqvBWo7AQOSRREBj
tJ/BHP9YQOHgVUCBWpPB6vKXQDgTnD9Zto/ByQptQMiiqUDK/IXByuF3QGiYwkB1YpHBHepTQCWz
hUBy0qTBesPrQIk27UBylJDBffb2QK7lAEG715rBE2bNQMp1Sj8TnKzBZS6TQL/FIr/fRabBqFnV
QIIy0b9t2KzBLOujQDLeJT9/R6jBkS7mQIxRs75y0a7BWcmrQEJG4796nKjBmkfAQAu95kDZoI/B
kIPTQH5dBEGgNKHBdVrZQD2Ntz+ZcZDBecSxQGcXA0Hib2TBhHqcQNg8DUHYGXjB2FPTQFfV5EBO
PmvBI/iFQJif90DtjYLB5iHAQFMZwkC95HnBGrKlQI7J1ECwbYbBPmThQPod2z5Af4fBO6b5QPe5
G0Hpu67BVvyqQNVQIEH0RKvBQ8mKQF3/7j8s+qTBZHOiQIBpjkBAFY/B5hTQQGDsD0FL2KvB4EKj
QIytJ0DQJJzBU7eHQKKkbkDab5fBqF+vQMgy2D/hfZPBe2OKQIoBs0Cx9YrBnXT3QLgsBEAqNZTB
IhV3QMBclEB3tp/BRiEHQQLhWb4QvbLB1aSbQEBXQMA+qabB/fWlQLcQ9UADRpvBxWwBQfFO5EBL
jIrBg5YLQYg2BUEEHJ3B+BPaQOE14z9MOa7BmPZmQAKBPr8t8aLB7k/oQEiyIMBHlK7BHYPBQMyu
D0F9/VrBDSaZQF9y9kBEn1rBaeWEQAc3GUHz4HLBuPq0QLwEFUFzB4HBRD/tQPs29UAf43PBmV3g
QKRs1UAV01zBv71aQMJ86EBmDHvBgWltQMU1A0GBkYnBB3LaQKzFrkCBPIDB/AarQGWWrUD/PHDB
uNoBQZ4z0j4li4XBDgTPQDhVOD9GXYDB3jzXQCOVEr/1IIrB5bb1QPHYI0GgerbBS3YAQXWhJ0FD
g6jBVgkKQTEmEEGzRq/Bjk6oQPnCKEH39bLB39aMQDfjF0FpkqnBlHSxQBrxK0Ea3aTBA3qGQL/N
IUCa7avBCpRWQM1hxz8+7aHBct+pQCK2cEAJe4jBzGjAQPStmUC6vpLBROXIQD03BEFIKrLBc0DA
QCEiREAvpZ/BZatWQEt9UkD0mZPBYvSXQGRMmz+vlo/BcCltQEOfqEDnPIXBv6ZyQMaNv0Dn9JDB
FbRVQL+vhUD45aTBWL7rQExu7UCKeZDByjn3QCjwAEHTuZrBrMaSQKZsIb+4TqbBj27NQK53ST9Q
hazBrifVQFLE0b8SpqzBhcGjQFl1Jj9dS6jBLV2rQLAI478qiqjBkDjmQAjxtr6dm67BuDjAQJIU
50Ask4/BnPLTQIBjBEFkJaHBZm/ZQMw0wD9FGpDBfGWwQAafA0FJkmTBNNCaQPloDUG/VXjBG6bS
QIBy5kBhNmvBciiFQEpb90C4ooLBmifAQDoLw0BIuHnBEpilQGj71EC3Z4bBefLhQDXZ3T5LqYfB
Gtj6QLFmG0FZr67BKVasQOWeIEHCM6vBr7uKQMSx7z8MBqXBYC2jQJDLjkAdN4/B3+TQQOTvD0Ht
yavBQ1yjQLD1J0DaNZzB/P2HQDrmbkBpcpfB2J+vQLHO2D/9kJPBwMGKQAjJskBR6orBGLD3QPEW
BEDpcZTBLVp2QDpOlEAitJ/BRv2aQC0GQMAWl6bBQEUHQUJrZr70YbLBEy6mQPZH9UAnRJvBb1YB
QdqD5EBAaIrBnMALQWg5BUGV8pzBe81lQMfrO7+bEqPBekDaQENx4j/sJa7BqBvoQKMoIcDuS67B
nZi/QE5vEEFVM1vBcgqYQFcs90AyulrBFK+CQI0pGUEzOnPBXQuzQFNkFUEnJoHBmD/sQOwv90A3
7HPBU/jfQIaR10AhuFzB43ZZQATp50A2OXvBH5BrQPjTAkHMsonBDtXaQCUFsEBYE4DBiU6rQMph
rkBaAXDBfVUCQXsnnz6VmIbBHmrTQIlBPT99B4DBlePTQPFlBb+MRIrBlSz3QMiHI0GWb7bBOD8B
QXpDJ0HIeKjBlXIKQeucD0G1N6/BHuKpQEIVKUHQ5LLBTe+NQGFvGEEkfqnBuDazQF8yLEHozKTB
WXqGQIAJIkDP/KvBq2tWQG6lyD8T9qHB+6GrQOR3cUAlsYjBupDAQJ21mkDvCJPB1E/JQMFHBEGE
GrLBfEzAQBhlREDAvZ/BKtBXQKWyUkChe5PBi26YQIDAlT96/I/B1gJvQFfQp0C+JIXBDS5yQA81
v0CN0ZDBu3FUQP95hUDFzqTBcs7oQFVD7ECHwZDBNlfzQDY/AkHih5rBT0CSQJbyIr/uPabBh8vL
QISjTj9zt6zBzwHUQNXEzr9CQa3B78GiQLjrJj+bKKjBx8GqQJRu4r9i26jB/YPkQGr4pr6jLa/B
oVO9QOBB60DC247BgDrPQNnUCUGxnZ/BT1baQK8UwT/MQpDB5lizQGPyAUGZ+GLBYhaaQIIaDEH7
cHXBXtzUQJbe40BOXmvBh5qDQI3l9ECVGIHBnLzAQKh5wUBV6HnBgVqkQDEq1UDY8oXBxaPjQIJy
0z4FFojBkL29QFuwBkFIxrLB8BT1QEDIIUFF6KzBIrqJQLmJ7j+dqaTBJOajQI+SkEBzgY/BuErL
QJBXFkFS46nBM1ijQBWAKEBuIJzB/3GIQAmgcECLdpfB2TSwQLh+2z9ucJPBIYqKQMuLs0BQAovB
sTL4QOa0BUDonZTBF8B2QMywlEAvzJ/BUL2aQABEQMCSEqfBeRAGQYz5M76DWrPBd3WhQB3RAkEr
4ZjBQCoAQWcb3UCIr4vBg8YJQVzfBEGwX53BhqhlQGASQb8exaLBMC7YQFbV5T9qT67BWvnmQPAi
H8DhJq/B/sHDQGWlDkFI9lnBDPmcQEL+8kDfVFjBvBeCQM85F0GT827BbySwQOveFEGl/X/B3Snt
QFt69UDPkHTB2CTkQA//00CwpF3BQslbQGhR40DOe3fBYxJiQPPLAUFlm4fBl4/aQNvKrkAesIDB
p82sQFw7rEAtB3DBxzkDQXvBlT5cNYfBqaLVQGLwMD9DU4DBKYfVQKnaCL9z1IrBcpy6QGxlD0HM
YbrBSxjWQHov9EDwnLPBvtSeQCHG/kBkrbDBrIPwQLeiKkE5bbTBD/r9QHQDLUHhgabB+VgHQfTj
FUHI8q3BXwOEQJ8YIUBnmKvBH8VVQC67xT8cRqHBdiauQH3HdUCHEInB/jnAQHCinUA1lZPBaACy
QLpvIkHs8KjBsQnAQKjzQ0Bn5Z/ByPlYQMd5VUDNVJPBoDKZQOH/mj8enI/BC39tQIxip0C5gYXB
+9tyQPjGwECq55DBqVRUQIOZhUCTzKTBbIXpQNhq7EBouZDBvFT0QCJdAkEYeJrBg9/MQOFPUj8C
sKzBT9CSQFviIL88m6bBYtLUQDLvzL9MiK3B8omjQF2dKT++TKjBiKblQFTJnr4+L6/BG1GrQG8Y
4b+uTKnBrvW9QDsz60BM7o7BuFPQQFHKCUHUqJ/BKAjaQNuSuD8Uk5DBPRWzQCeDAkENVGPBL8mZ
QL5qDEEU7HXBZuDUQE8c5UDwjGvBf7aDQBIv9UCCTIHBJuzAQFg1wkBl3XnBvbSkQOlh1UDuBIbB
MnDiQAe72T4SuIfBgN6+QKezBkEW07LBioj2QDWfIUF+8azBA06KQJRx7z9cxaTBnhKkQPOZkEB4
go/BR5fMQFRQFkGi7qnBHHejQKCaKEAyHJzBl2aIQABacEAGaJfB7OqvQK8l2z/4bJPBfNeKQIya
s0AAAYvBKwv4QJtLBEAQcpTB8YR1QP5tlECOtZ/BBdYGQVcbIb4sG7PBqgKbQPe1P8BCxqfBE16i
QFGZAkHWDJnBSnUAQeVa3UCBmYvBcFAKQcAfBUF+N53BdHHZQCPc5z/EH67BbG5mQLP5P7+NPqPB
4LznQHwbHsDBgq/BOkHDQMxYD0FMZ1rB/MWcQF0j9EA2pljBj4uBQFN6F0Gfjm/BNcWvQC81FUGQ
PoDBDf/sQMSy9kCT4HTB+FfkQL2y1UD2vl3B4dBbQAe240DX5HfBZJRiQKTHAUFD4YfBRNPaQPdT
r0C1kYDBFuysQHQ+rUDr3m/BFXICQcuYyj5p7oXBNLTQQKV2Nz/Ze4DBHsXXQF3gEb8sW4rBoOG7
QHNrD0G7brrBYhDXQBYO9EBUqLPBstufQKr//kAovLDB9hnyQCx9KkG2drTBmoz/QE3TLEGxiqbB
9/8HQVCmFUGo+q3BRdaEQIf/IUBprKvBPbBWQPrqxT9GfKHBGoOuQB0KdkDxEInB4kfAQMaenUCU
pZPBRHOzQN58IkHG/ajBs1HAQOVaREBbxJ/B+HRZQNvGVEADM5PB9p+YQCZ6oD+OWI/B3nNuQBCA
p0BYdIXBeRZzQJ21wEAO4pDBN99SQAkzhUDVqKTBc2LuQPXp6kAInI/B4z38QLShAEEycJnBRXvM
QHiJUD9gjKzBGmiSQP2NIb9waabBAWbUQC7ezb/vTa3BiCOjQEGJKD+oKKjB6DjlQMASo74XBa/B
Oe6qQAKk4b/tCanBnV3CQFeg6UBhrI7BzgXaQDR0B0Gqep/BVELZQATSvT/oDpDBfcmvQEinAUE5
m2LBh4maQJ9sDEHI9XXBqs3RQAi14kCy02nBPT+FQBC/9kAZ84HBKBu/QF34wECSMHnBaxOmQKFy
1UB+FIbB0MjhQDIwxz7e04fBzFm8QLjGJkFvWqnBACDMQMs4BEFb87LBDvOJQNwW7z/9qKTBtKCj
QGEPkEDIRo/BwPvaQABhE0HK9qnBxSmjQCVOKEALApzBsGWIQEbxcEB+bpfBCU2vQHzk2j88R5PB
15KLQCXstEDRXovBKYb3QKwDAkCsgZTB1DB5QOEklUAf05/B/ZwGQRfdK74n9bLBi86aQMzkP8AH
VafBWQ+qQHNvAEG2qpnB+hACQZUy3UAX1onBLqYOQbglA0Fmn5vBVxXZQJXc5j9pAa7BCJFlQAcH
QL8oD6PBoEnnQP+pHsBVQq/BBCm/QA75DUE9qVjBbyuXQBer8kCCK1nBMT6CQB/fF0GZYHDB3uyy
QGzvFEHaX3/BAMfrQIzi80BKCHLB6KjeQIlZ0kBWoVvBFHhZQA8h5kCsYnrBuRNsQME3A0FN2YjB
FYbZQLSvrUDysX/BLTCpQOgsrECtKHDBbD8CQdPPcz4HAYfBE0bUQCkpMD/YD4DB/7jSQAteDL+b
eorB+wK9QJx+L0H1/rDB1Z6bQKYiIUE1w6fBBKDGQC9/MUEy3aLBBbTMQAPEDEGPpLrB77PhQMWt
7EB5WbPB7lurQBl4/UAORrHB8Y2EQGHEIUBGkqvBRehVQFXrxT++YKHBejarQGE0dUA0kIjBUH7B
QEzvmkDnDpPBSKj7QFX8GEF9p6vB/DPAQFJIQ0DNqZ/BKLlXQNCAVkCPepPB/PGXQHpYnD82dI/B
JHhrQGOKqkByIYbBbqN5QHyYwkCSl5HBUB9XQIFnhkCg7aTBcSPqQF3M7UCJZ5HBOof4QNqSBkHZ
eJnBwvqLQC4GWL8yP6jBL4TKQBT+Fz8FXKrB5bLMQNjV2b+P0LDB4EqgQFNczT7MiabBLx+iQFUQ
8r+vZ63But3gQHWn6r5fQa/B0mfAQOOO9ECCKo7BK/zYQLMDFUGNJZzBPjLaQHIEvj86D47B6SG1
QNo//kCHPGDB2nqZQBnzCkFa4XDB1ULXQGo14kCqPWvBH4uEQBC+9UBiO4DBZsXCQBiJwkDUO3vB
6EmmQB+Y2UDXLIbBktjiQLiiUT9AP4PBBT7lQODtHkE5aK/B9ZD/QIg+N0GyiKDBvAyHQC7axj+y
qqHBi6OnQIQZl0BRWJHBbFHcQB9tJ0EECaTBuhWjQOsBIEBHq5rBQoiKQPpVckCwzZfBaQ+wQIl5
5T97yJDBmpGNQOFzuUDsb4zBGHT4QHCV6j81qZPBv597QLAKj0CKV6HBVHeOQPTrRMD8I6/BN8sE
QcQxhr6ykrLBDkuqQCPvD0EiGJXBfBP+QAZU1ECHXI7BtiAMQea0BkGs5ZzBBN9WQMZofr8XmaXB
iKTZQCSGxz9Pf6nB69PdQMioIMC7nrTBcy7FQHT1CkFK+VXBy2KgQI7D6UAXYFbBREaAQKv9E0H7
j2jBOsqtQEURFkEG/nnBcL7tQEsH90AL53PBFLDoQJv+z0Dw9F7BIR9eQPKn4EBWV3fBIc1jQAbT
A0GCNIbBbm3cQAwMsUAgw4HBALyuQFPKq0BJSXLBScoCQQ0jPj8H9YHBooDUQEIttj/rp3nBRKnU
QG5RQL7vLoPBSo7nQEJ0LEEoArXBZMQBQQ33FUH3ba/BLwDLQK1NFEFZ5LHB2sMAQfpzREExVKbB
08z3QIeuPUHDk5jBtj8PQeLeLkGUMqDBNKJxQEchCUDsMKjBbuhaQNNtkT/loZzBW9W3QL/AhEAD
BYvBpLG/QGZipUB+r5bBypq9QIEFMEGTJqTB78W/QPCLMUDYRZ/BUdNcQEeLYUCm8ZLBuvuYQPIe
wj9Qs4vBH5JwQAfNq0C6iIfBJkh8QNvXyEClS5LBnHNXQIsDekCodqXB

>  <OMEGA_E>  (3) 
4EQBPgCFQz6wwUY++KxgPrgWYz6ARvk9xEUEPw==

>  <OMEGA_NBR>  (3) 
     13614

$$$$
50167943
     RDKit          3D

 67 69  0  0  1  0  0  0  0  0999 V2000
    5.8462    7.9730  -19.0402 C   0  0  0  0  0  0  0  0  0  0  0  0
    4.6146   -0.6402  -20.7816 C   0  0  0  0  0  0  0  0  0  0  0  0
    6.3908    0.8301  -21.5917 C   0  0  0  0  0  0  0  0  0  0  0  0
    6.6849   -1.5888  -21.6549 C   0  0  0  0  0  0  0  0  0  0  0  0
    7.6549    7.1997  -17.7381 C   0  0  0  0  0  0  0  0  0  0  0  0
    6.2789    7.2886  -17.8123 C   0  0  0  0  0  0  0  0  0  0  0  0
    5.1096    0.6559  -21.0231 C   0  0  0  0  0  0  0  0  0  0  0  0
    5.3985   -1.7611  -21.1048 C   0  0  0  0  0  0  0  0  0  0  0  0
    7.1814   -0.2922  -21.8968 C   0  0  0  0  0  0  0  0  0  0  0  0
    6.8877    8.4326  -19.8046 C   0  0  0  0  0  0  0  0  0  0  0  0
    6.7949    1.4352  -18.0524 C   0  0  0  0  0  0  0  0  0  0  0  0
    5.3765    8.1138  -14.1892 C   0  0  0  0  0  0  0  0  0  0  0  0
    4.8459    8.8284  -15.4415 C   0  0  0  0  0  0  0  0  0  0  0  0
    6.4335    7.0619  -14.5657 C   0  0  0  0  0  0  0  0  0  0  0  0
    4.2272    7.8108  -16.4023 C   0  0  0  0  0  0  0  0  0  0  0  0
    5.8732    6.0388  -15.5715 C   0  0  0  0  0  0  0  0  0  0  0  0
    5.2421    6.7170  -16.8276 C   0  0  0  0  0  0  0  0  0  0  0  0
    7.0663    0.4318  -16.9349 C   0  0  0  0  0  0  0  0  0  0  0  0
    5.6431   10.2963  -20.9575 C   0  0  0  0  0  0  0  0  0  0  0  0
    6.2467    8.1888  -22.1987 C   0  0  0  0  0  0  0  0  0  0  0  0
    4.3081    1.8543  -20.5830 C   0  0  0  0  0  0  0  0  0  0  0  0
    5.1342    4.5376  -17.9665 C   0  0  0  0  0  0  0  0  0  0  0  0
    6.7020    9.1798  -21.1106 C   0  0  0  0  0  0  0  0  0  0  0  0
    5.0896    2.6202  -19.4989 C   0  0  1  0  0  0  0  0  0  0  0  0
    4.2508    3.7530  -18.9229 C   0  0  2  0  0  0  0  0  0  0  0  0
    5.4771    1.7034  -18.4066 N   0  0  0  0  0  0  0  0  0  0  0  0
    4.4135    5.7347  -17.5410 N   0  0  0  0  0  0  0  0  0  0  0  0
    7.7301    2.0561  -18.5467 O   0  0  0  0  0  0  0  0  0  0  0  0
    3.8090    4.6098  -19.9769 O   0  0  0  0  0  0  0  0  0  0  0  0
    4.9189   -3.0031  -20.8741 F   0  0  0  0  0  0  0  0  0  0  0  0
    8.4170   -0.1251  -22.4197 F   0  0  0  0  0  0  0  0  0  0  0  0
    8.4216    7.9907  -19.0978 S   0  0  0  0  0  0  0  0  0  0  0  0
    4.8092    8.1012  -19.3132 H   0  0  0  0  0  0  0  0  0  0  0  0
    3.6341   -0.7726  -20.3487 H   0  0  0  0  0  0  0  0  0  0  0  0
    6.7628    1.8240  -21.7920 H   0  0  0  0  0  0  0  0  0  0  0  0
    7.2906   -2.4512  -21.8912 H   0  0  0  0  0  0  0  0  0  0  0  0
    8.1903    6.7045  -16.9416 H   0  0  0  0  0  0  0  0  0  0  0  0
    5.8304    8.8558  -13.5159 H   0  0  0  0  0  0  0  0  0  0  0  0
    4.5400    7.6166  -13.6764 H   0  0  0  0  0  0  0  0  0  0  0  0
    4.0813    9.5619  -15.1459 H   0  0  0  0  0  0  0  0  0  0  0  0
    5.6759    9.3464  -15.9444 H   0  0  0  0  0  0  0  0  0  0  0  0
    7.2993    7.5694  -15.0160 H   0  0  0  0  0  0  0  0  0  0  0  0
    6.7515    6.5321  -13.6557 H   0  0  0  0  0  0  0  0  0  0  0  0
    3.3729    7.3279  -15.9054 H   0  0  0  0  0  0  0  0  0  0  0  0
    3.8777    8.3391  -17.3015 H   0  0  0  0  0  0  0  0  0  0  0  0
    6.6924    5.3821  -15.8997 H   0  0  0  0  0  0  0  0  0  0  0  0
    5.1003    5.4381  -15.0697 H   0  0  0  0  0  0  0  0  0  0  0  0
    8.1441    0.4079  -16.7167 H   0  0  0  0  0  0  0  0  0  0  0  0
    6.5159    0.7321  -16.0311 H   0  0  0  0  0  0  0  0  0  0  0  0
    6.7341   -0.5679  -17.2513 H   0  0  0  0  0  0  0  0  0  0  0  0
    5.5250   10.8242  -21.9153 H   0  0  0  0  0  0  0  0  0  0  0  0
    4.6812    9.8513  -20.6631 H   0  0  0  0  0  0  0  0  0  0  0  0
    5.9698   11.0077  -20.1847 H   0  0  0  0  0  0  0  0  0  0  0  0
    6.1100    8.7247  -23.1495 H   0  0  0  0  0  0  0  0  0  0  0  0
    7.0101    7.4069  -22.3251 H   0  0  0  0  0  0  0  0  0  0  0  0
    5.2947    7.7266  -21.8984 H   0  0  0  0  0  0  0  0  0  0  0  0
    4.1320    2.5150  -21.4447 H   0  0  0  0  0  0  0  0  0  0  0  0
    3.3433    1.5206  -20.1736 H   0  0  0  0  0  0  0  0  0  0  0  0
    5.3731    3.9177  -17.0898 H   0  0  0  0  0  0  0  0  0  0  0  0
    6.0654    4.8271  -18.4755 H   0  0  0  0  0  0  0  0  0  0  0  0
    7.6584    9.6315  -21.4127 H   0  0  0  0  0  0  0  0  0  0  0  0
    5.9949    3.0468  -19.9556 H   0  0  0  0  0  0  0  0  0  0  0  0
    3.3948    3.3340  -18.3737 H   0  0  0  0  0  0  0  0  0  0  0  0
    4.7494    1.2495  -17.8923 H   0  0  0  0  0  0  0  0  0  0  0  0
    3.6693    5.4535  -16.9351 H   0  0  0  0  0  0  0  0  0  0  0  0
    4.0330    6.1767  -18.3533 H   0  0  0  0  0  0  0  0  0  0  0  0
    3.2569    4.1189  -20.5743 H   0  0  0  0  0  0  0  0  0  0  0  0
  1  6  1  0
  1 10  2  0
  2  7  2  0
  2  8  1  0
  3  7  1  0
  3  9  2  0
  4  8  2  0
  4  9  1  0
  5  6  2  0
  5 32  1  0
  6 17  1  0
  7 21  1  0
  8 30  1  0
  9 31  1  0
 10 23  1  0
 10 32  1  0
 11 18  1  0
 11 26  1  0
 11 28  2  0
 12 13  1  0
 12 14  1  0
 13 15  1  0
 14 16  1  0
 15 17  1  0
 16 17  1  0
 17 27  1  0
 19 23  1  0
 20 23  1  0
 21 24  1  0
 22 25  1  0
 22 27  1  0
 24 25  1  0
 24 26  1  0
 25 29  1  0
  1 33  1  0
  2 34  1  0
  3 35  1  0
  4 36  1  0
  5 37  1  0
 12 38  1  0
 12 39  1  0
 13 40  1  0
 13 41  1  0
 14 42  1  0
 14 43  1  0
 15 44  1  0
 15 45  1  0
 16 46  1  0
 16 47  1  0
 18 48  1  0
 18 49  1  0
 18 50  1  0
 19 51  1  0
 19 52  1  0
 19 53  1  0
 20 54  1  0
 20 55  1  0
 20 56  1  0
 21 57  1  0
 21 58  1  0
 22 59  1  0
 22 60  1  0
 23 61  1  0
 24 62  1  6
 25 63  1  1
 26 64  1  0
 27 65  1  0
 27 66  1  0
 29 67  1  0
M  CHG  1  27   1
M  END
>  <OMEGA_C>  (4) 
DBS7QC8j/0BPUpjB7qqTQO3hI7/DQKbBOoHMQDKAVD/iu6zB7+rVQEVdy79PPa3BK/X0QLxj5kCk
543Ba+zIQHg86UB/f47BM4KjQBfmJz9jL6jBWsCsQP5q4b+n1qjBDc7lQLKclb6wLK/BI2jcQOzr
BkG5b57BFnDZQAu0tz88a5DBXgysQPLRAUEhB2PB5hGbQFJBDUFlEHfBT9/NQLn64UA3DWnBgEWH
QBHy+UDYN4PB9vC7QNM9wUD1JHnBer+nQHPx1kDznobB9h7iQOAY3T6meofBjpS0QJ29JEHrqKfB
zeTHQCwFA0HzlrHBTtyJQGlZ7T/9qaTBvkukQNszkUB2u4/B9HbWQEngEkGT4qjBHd6iQCSxJ0DU
/ZvBpAaIQKgxcEARYpfBUUSvQK8J2j/OQJPBajuNQGaCt0DxU4zB11z3QIqWA0CPX5TBVMZzQHeD
k0DH0J/BoGedQI4yQMA//qbB6qsGQdIiAL6CW7PB1L4GQbez/0BFyJjBmuSZQFGeAUFugZrB25Ro
QFHIRb8hyqLBlmjYQJ156T/+Va7BbEzpQFDgHMBFIa/BpAsDQeWK1kBPiIfBnpK6QEuxDUEmQVjB
cEeRQMi680Ca0lrBQZqCQJj9GEFrVXLBm6C1QPOKFUFgHH/BCpTpQMM48kCCQXDBagzYQOMG0UCV
fVrBpt1XQAt+6kBdfH7Bmyt4QBRtBUGGaYrB2SfWQF86rEAhZX7B3zWjQMsErkBUHXHBcE4CQV3U
0D65u4XBRoLQQHZrOz+YP4DBXX3XQJ5jEb+lAorBfsywQL4vLUGCUq/BZsyVQOqeHUEDTqXBjwi/
QLgfMEFYeqHBNIXDQHKYC0E+MrnBqFLgQLkF7UDFmbLBj26pQCdA90DVL6/BlDmEQCz1IEC2jqvB
2vdVQE2jwj9zY6HBEvCrQCu7ekDit4jBIxjCQO53mkDGzZPBgBH1QNAaGkE7TavB99W/QHr+QkAM
pZ/BXkRZQEtgVUA9/ZLBaPuXQM/wnz+AI4/BEdZqQF6DrkAAe4fBnQ6BQHCnxUCS05LBonFQQEnO
g0AZmKTBvoK7QADY/0DfKZjBLcPMQOBCTT9sdKzB3CiTQDUhKL99PKbBWsDVQDAxz7+n5azB/5L1
QFej50DVv43BQoDJQGbB6UDsZ47B3GWjQFjYIj+wF6jBGxHmQFuXpr6+va7BwzasQCUu5L8Xs6jB
8JzcQJrUB0GpKZ7Bgz3ZQPt8vz8p/o/BPferQKB5AUHrAGPBUBybQL4LDUH5/HbBy7vNQNc44UB1
CmnBaXCHQC+v+UCjPIPB9/27QHbKwECYV3nBpRmoQPfo1kDIr4bBnATiQCiI5T59ZYfBvAayQBKT
JEGdg6fBABzKQDyIA0FnYbHBdcWJQKdz6z8hqKTBQ6CkQPtkkUCX64/BdRnWQL+/E0FlmKjBGcmi
QFI3J0DxBpzBDQSIQPzNb0AgbJfBMjqvQLEa2j8mQJPBEL+NQBTct0Brk4zBK1/3QGldAkD6jZTB
7ZpyQCbmkkD33p/B9hEHQU3SKb7LnLLBg4qcQLZfQcAO5KbBUfAGQQ0bAUGcfJjBI06aQH6lAUHr
ZZrBZPDYQEKF5T84CK7BLf5mQN90SL+e7KLBMBbpQN0JH8B9s67ByWsDQQik10BdbIfBzIK6QHdG
DUF1KFjBtRyRQM4K80DK3VrB5ZmCQN6+GEFOOXLBX7W1QMRjFUFk8X7BXZ/pQKV48UD6D3DBTJnX
QET+z0DlgVrBr0tYQFcE6kBxln7BJmx4QMVeBUGgZ4rBxUHWQM7bq0BjnH7BmSSjQONurUCPfHHB
dmICQcc6oz4idIbBLxbUQJiHRz/ahX/BU4TTQE9JAr84xonBz+ytQK/9LEGkLK/Bv/GTQGiGHEGW
WaXBmo+6QB0rMEEcP6HBTkvFQKIADEH0/7jB5g/kQJ2P70DySLLB6misQKl09kDxIK/B6DGEQAqU
H0AamKvBT7tVQDhWwT9AXqHBu42sQAjPe0CO3YjBdkHCQJFwmkAvGZTBi/vzQKniG0E62arBObm/
QApqQkARtZ/BnNtZQJ8UVUAq55LB/wmYQAmpmj+ba4/B6ORqQOcCr0Aj3YfBe0GCQPBHxkA6HZPB
EuJOQDDsgkAfjKTBSyyzQJYeAUEosJfBrruTQAVuI7/nOKbBNHjMQEQyVT/evqzBrKDVQDcKy7+8
bK3B7hrxQHyM6ECq+o7BBgDFQODK6kCXho7B2qCjQNpxKD8pH6jBGJasQPwu4b8286jBY5vlQE0A
lL5hSq/Ba6fRQABOCUENXJ7BcfTZQE4Huz8rMpDBOQWvQNv6AEGqXWLBnpCaQARHDEENpnXBxv3Q
QL5l4UCwpmnBxNCFQF1l90DDLILBCkG+QPiJwECrb3nB1M6mQKE71kAFT4bBYb/iQE3yrD44PIjB
Zci6QNpxBEFTObHBZcjoQL4qJEGgNKzBayGKQNCh7T8VjKTBRSukQNjakEDeio/B5xPFQKH/FEF8
eqjBPz6jQATjJ0Dy5pvBoh2IQI6fb0ByOpfBbtivQCwl2j+QNZPBQ4CMQNFntkD56YvBowz4QJZx
AUAfnZTBtGNzQHNmk0A/mJ/BFSmdQGEdQMCBKqfBYJgGQZRD9r3zcLPBZIECQWHvAUFwJZrBpT+R
QLMSA0FmBJnBkAJpQFViRb8hraLBG2PYQDff6T9lU67B1dboQDm0HMCxbK/BwGICQQcR2EABMYnB
bUS+QNUCDUHiBljBTvWVQNgf8UBFUVnBwgyCQM2RF0Hj/W/BvluzQCcMFUHVi37BDFTrQPCj8kDG
hnHBhFbdQChe0EAFilvBi0dZQO185kAlanvB4gpvQBv8A0EoEYnBAHrYQOavrEAqtX/B+UunQHAl
rEDz1HDBLb0CQeb0OD5ijIfB2KLVQBJtHD/TXYDBRXXTQJ6mFr+lDIvBYZaxQAnHDEFcoLjB5jHX
QNYD9UCLvbLBhjWgQDds9EAGjq7Bta3eQA9oLEFXj7PBeTrvQGYOMEGZ66XBDwIDQQPmGkGaza3B
Z1uEQLUkIUDkbavBzaNWQNvkwj8GPKHBMXmsQOpTeUC5o4jBWp7BQEsAm0AwpJPBpR+oQGN+HkFg
5abBPwzAQFi3Q0Drkp/BWrRZQB8QVEAu25LBxaKYQPYJnT+3PY/BCtNqQL6mrEDG8IbB4ah+QJN3
xEApTZLBmEdQQJ61g0D0ZqTBJnSzQFEHAUGdvJfBZaHMQKPwVj9o1azBn9mTQEAUIr/WXKbBnvzV
QNojyr8jca3BtxnxQNPc50DX/47BrQPFQK1+6kAcj47BtqyjQCP3KT+DRajB1uPlQFIykL6lU6/B
VeKsQDRr4L/fAanB0CbSQF81CUGwWp7Bp+DZQJ5MvD8DPZDBOwyvQEeyAUGNtWLBtGWaQAOmDEFn
I3bBHwfRQE+n4kA9ymnBDLGFQD2Z90DOR4LB+DG+QAc1wUAORHnBubymQK5A1kAxTobBMMriQNrp
tD6qO4jBCGO7QOtlBEEuO7HB2PPpQGfnI0EuPazBmhyKQPJX7j/IsaTBqYikQNoDkUBgp4/BxevF
QM/vFEHmfqjBgzOjQBvrJ0BpApzB1DCIQMWFb0DiP5fBvM+vQJxM2T+4XZPB9n+MQOUAtkDSyovB
9uv3QAbUAkCOlJTBZGNyQOFEk0CRkJ/BXL8GQdwt5b0rdrPBupedQCDAP8BCKqfB8awCQdatAUHn
F5rBP5KRQIYGA0GgHZnB0IrYQJnG6j8NaK7B8A1pQIZSRL8936LBO03pQNA2HMByZa/Bt0gCQcYA
10DWPInBFlS+QO/pDUGOmljBNReWQLLQ8kCceFnBiNKBQH76F0Gyn3DBvRKzQBJUFUFSNH/BO0Pr
QEGt80AV3nHBpIfdQKcg0kAgkFvBgzRZQBLn5kB4d3vBDZVuQBrZA0GoOonBbF/YQIIYrUAbYH/B
XzynQCEprUA2dnDBicYCQR0WWD7CcYfBsjPVQNl6Hz8uaIDB/wfUQDl5FL82E4vB+3CyQNe+DEEO
prjB7JzXQG2f9EC7t7LBFpSgQDGf9EDRka7BOgngQFInLEFBm7PBNaDwQG/LL0Ej+KXByH8DQS16
GkGg0a3Bz3CEQLetIUCHkKvBw4BWQPmPwz+1aaHB39WtQJVneUB92ojB42jBQJzcm0Cv5JPBDCWp
QJ+VHkH/8KbBrwPAQJrfQ0B9qZ/BuHNaQKHEU0AmyJLBIqWYQAbumT/VhY/BclZsQImiq0CfrobB
i7J8QH/1w0DrD5LBt/FOQAJ9g0CqUKTBaTTwQJOQ+UB7SI7BUpaOQB94WL+m46fBel3LQARiJD8z
uarB0MDPQHMQ17/CZ7DBnbquQPwYBUFLypbBaf7AQIUK9UAUPo7BxumhQBgy1z47hqbBC1ClQHyv
8b9G86zB7tniQDky1L7bM6/Bntz+QN2XCUG1dZbBzXjVQD3ehT8OsI7Bv0qxQE9+/0B3x1/BrFCY
QO3VC0GeQXHBuHbUQJVd40DRtGnBmj2EQIMC+EC1q4DB7w3CQD1AxEA9rnrBY1umQDLo2kDKJ4bB
OG/dQIfP1z5/tIPBnVwkQRWt9kBVR5rBqIgfQW3eHEFRHI/BKKyIQHiSxz+aeaHBsKGoQASZl0B9
DpHBiKEWQbWVD0EciZjB8LikQHp1H0ARS5rB/COMQD2jckAYnJfBDFCwQOL75T/yPJDBQ/2NQDf7
uUB5TIzBeIXxQGaneD91hJXBmd1/QIoJj0BDN6HBonCSQNLGRcAwfK7B8s8FQXNCUL6KbLLBEeHU
QHJJEkHQg57Bv3YCQepc6kC9gYjBNslcQBb7gb+GDqXBswrZQNkV0T9ceqrB3ZPhQMNuH8A4+LPB
eteMQJAvBUFxfJjBBx7AQKZoC0EW4VTBZQSbQIoS60DgwFbBlH99QE5NFUEzuWnB9UuuQCSWFkGZ
0nnBnWLsQEsj+EBVYHHBZ9fjQMmd0EDZ8lzBu4paQCOO40A+yHjBFrtmQDUsBUHR4obBq+rcQIng
s0C/SYHBV+OtQDGKrEBwdnLBWHT9QOkpD73Li4PBVGzbQCuxmT84B3vBiiXFQNx7s74MJoLBXxE1
QWoCAEEDxJvBMZQjQXdb4kB8GpPBPjceQSPM5EBMNaHB4VAwQbQYIUEStpDBHAcWQYaRK0E1M47B
wZceQc9mE0EHtYfBBOx0QFKHCkAR6KfBhh5eQOd5kD9fhJzBUHu4QIF6hUDpoorBVfrAQDfopUBQ
T5bBaGgXQfNoGUGN05/BY/TBQA02MEDMuZ7B81tfQEUwYkB525LBkfmbQE1/7z8fF4rBu7ZxQEVj
rEBPWIfBCMt8QGnFyEDdOZLBz31cQMi0eUB0Z6XB

>  <OMEGA_E>  (4) 
wIJiPQCoZz0A29Y94MLcPYgLIT8=

>  <OMEGA_NBR>  (4) 
     19239

$$$$
50167942
     RDKit          3D

 67 69  0  0  1  0  0  0  0  0999 V2000
    8.6813    7.4205  -17.9799 C   0  0  0  0  0  0  0  0  0  0  0  0
    7.6305    7.0880  -17.1029 C   0  0  0  0  0  0  0  0  0  0  0  0
    8.3983    7.8111  -19.3017 C   0  0  0  0  0  0  0  0  0  0  0  0
    6.0156    7.6036  -18.8490 C   0  0  0  0  0  0  0  0  0  0  0  0
    6.4981    0.8188  -21.6051 C   0  0  0  0  0  0  0  0  0  0  0  0
    4.6754   -0.6229  -20.8530 C   0  0  0  0  0  0  0  0  0  0  0  0
    6.7456   -1.6083  -21.6899 C   0  0  0  0  0  0  0  0  0  0  0  0
    6.2909    7.2098  -17.5343 C   0  0  0  0  0  0  0  0  0  0  0  0
    7.0624    7.8374  -19.7486 C   0  0  0  0  0  0  0  0  0  0  0  0
    5.2009    0.6704  -21.0645 C   0  0  0  0  0  0  0  0  0  0  0  0
    7.2718   -0.3196  -21.9078 C   0  0  0  0  0  0  0  0  0  0  0  0
    5.4453   -1.7595  -21.1690 C   0  0  0  0  0  0  0  0  0  0  0  0
    6.8085    1.3778  -18.1286 C   0  0  0  0  0  0  0  0  0  0  0  0
    4.4358    7.7867  -15.8268 C   0  0  0  0  0  0  0  0  0  0  0  0
    5.2490    6.6522  -15.1717 C   0  0  0  0  0  0  0  0  0  0  0  0
    5.1291    6.7415  -16.6974 C   0  0  0  0  0  0  0  0  0  0  0  0
    7.0455    0.3232  -17.0527 C   0  0  0  0  0  0  0  0  0  0  0  0
    7.3581   10.1567  -21.9406 C   0  0  0  0  0  0  0  0  0  0  0  0
    5.0476    9.7501  -20.9916 C   0  0  0  0  0  0  0  0  0  0  0  0
    5.6743    8.7732  -23.2159 C   0  0  0  0  0  0  0  0  0  0  0  0
    6.7530    7.8133  -21.2209 C   0  0  0  0  0  0  0  0  0  0  0  0
    4.4026    1.8925  -20.6388 C   0  0  0  0  0  0  0  0  0  0  0  0
    5.0212    4.5516  -17.8449 C   0  0  0  0  0  0  0  0  0  0  0  0
    5.1277    2.6666  -19.5067 C   0  0  1  0  0  0  0  0  0  0  0  0
    4.2303    3.7674  -18.9082 C   0  0  2  0  0  0  0  0  0  0  0  0
    6.2090    9.1315  -21.8132 C   0  0  0  0  0  0  0  0  0  0  0  0
    5.4998    1.7293  -18.4341 N   0  0  0  0  0  0  0  0  0  0  0  0
    4.2747    5.7512  -17.3963 N   0  0  0  0  0  0  0  0  0  0  0  0
    7.7648    1.9624  -18.6270 O   0  0  0  0  0  0  0  0  0  0  0  0
    3.8201    4.6479  -19.9530 O   0  0  0  0  0  0  0  0  0  0  0  0
    8.5259   -0.1763  -22.3931 F   0  0  0  0  0  0  0  0  0  0  0  0
    4.9434   -2.9966  -20.9537 F   0  0  0  0  0  0  0  0  0  0  0  0
    9.7046    7.3756  -17.6377 H   0  0  0  0  0  0  0  0  0  0  0  0
    7.8482    6.7410  -16.1036 H   0  0  0  0  0  0  0  0  0  0  0  0
    9.2002    8.0891  -19.9696 H   0  0  0  0  0  0  0  0  0  0  0  0
    4.9920    7.7275  -19.1705 H   0  0  0  0  0  0  0  0  0  0  0  0
    6.8971    1.8059  -21.7864 H   0  0  0  0  0  0  0  0  0  0  0  0
    3.6812   -0.7410  -20.4481 H   0  0  0  0  0  0  0  0  0  0  0  0
    7.3390   -2.4802  -21.9221 H   0  0  0  0  0  0  0  0  0  0  0  0
    3.3388    7.7951  -15.7455 H   0  0  0  0  0  0  0  0  0  0  0  0
    4.8132    8.8196  -15.8014 H   0  0  0  0  0  0  0  0  0  0  0  0
    6.2078    6.8740  -14.6801 H   0  0  0  0  0  0  0  0  0  0  0  0
    4.7334    5.8494  -14.6242 H   0  0  0  0  0  0  0  0  0  0  0  0
    8.1248    0.2295  -16.8618 H   0  0  0  0  0  0  0  0  0  0  0  0
    6.5341    0.6233  -16.1263 H   0  0  0  0  0  0  0  0  0  0  0  0
    6.6484   -0.6442  -17.3939 H   0  0  0  0  0  0  0  0  0  0  0  0
    8.1804    9.7160  -22.5234 H   0  0  0  0  0  0  0  0  0  0  0  0
    6.9895   11.0588  -22.4509 H   0  0  0  0  0  0  0  0  0  0  0  0
    7.7224   10.4255  -20.9381 H   0  0  0  0  0  0  0  0  0  0  0  0
    4.2309    9.0187  -20.9021 H   0  0  0  0  0  0  0  0  0  0  0  0
    5.4107   10.0187  -19.9886 H   0  0  0  0  0  0  0  0  0  0  0  0
    4.6778   10.6520  -21.5013 H   0  0  0  0  0  0  0  0  0  0  0  0
    4.8566    8.0434  -23.1219 H   0  0  0  0  0  0  0  0  0  0  0  0
    5.2992    9.6824  -23.7085 H   0  0  0  0  0  0  0  0  0  0  0  0
    6.4861    8.3385  -23.8176 H   0  0  0  0  0  0  0  0  0  0  0  0
    7.6795    7.5592  -21.7567 H   0  0  0  0  0  0  0  0  0  0  0  0
    6.0016    7.0291  -21.3954 H   0  0  0  0  0  0  0  0  0  0  0  0
    4.2756    2.5583  -21.5051 H   0  0  0  0  0  0  0  0  0  0  0  0
    3.4154    1.5686  -20.2774 H   0  0  0  0  0  0  0  0  0  0  0  0
    5.2033    3.8981  -16.9790 H   0  0  0  0  0  0  0  0  0  0  0  0
    5.9833    4.8678  -18.2744 H   0  0  0  0  0  0  0  0  0  0  0  0
    6.0327    3.1336  -19.9225 H   0  0  0  0  0  0  0  0  0  0  0  0
    3.3569    3.2982  -18.4319 H   0  0  0  0  0  0  0  0  0  0  0  0
    4.7654    1.3205  -17.8923 H   0  0  0  0  0  0  0  0  0  0  0  0
    3.5498    5.4598  -16.7722 H   0  0  0  0  0  0  0  0  0  0  0  0
    3.8683    6.1909  -18.1972 H   0  0  0  0  0  0  0  0  0  0  0  0
    3.3328    4.1595  -20.6061 H   0  0  0  0  0  0  0  0  0  0  0  0
  1  2  2  0
  1  3  1  0
  2  8  1  0
  3  9  2  0
  4  8  2  0
  4  9  1  0
  5 10  2  0
  5 11  1  0
  6 10  1  0
  6 12  2  0
  7 11  2  0
  7 12  1  0
  8 16  1  0
  9 21  1  0
 10 22  1  0
 11 31  1  0
 12 32  1  0
 13 17  1  0
 13 27  1  0
 13 29  2  0
 14 15  1  0
 14 16  1  0
 15 16  1  0
 16 28  1  0
 18 26  1  0
 19 26  1  0
 20 26  1  0
 21 26  1  0
 22 24  1  0
 23 25  1  0
 23 28  1  0
 24 25  1  0
 24 27  1  0
 25 30  1  0
  1 33  1  0
  2 34  1  0
  3 35  1  0
  4 36  1  0
  5 37  1  0
  6 38  1  0
  7 39  1  0
 14 40  1  0
 14 41  1  0
 15 42  1  0
 15 43  1  0
 17 44  1  0
 17 45  1  0
 17 46  1  0
 18 47  1  0
 18 48  1  0
 18 49  1  0
 19 50  1  0
 19 51  1  0
 19 52  1  0
 20 53  1  0
 20 54  1  0
 20 55  1  0
 21 56  1  0
 21 57  1  0
 22 58  1  0
 22 59  1  0
 23 60  1  0
 23 61  1  0
 24 62  1  6
 25 63  1  1
 27 64  1  0
 28 65  1  0
 28 66  1  0
 30 67  1  0
M  CHG  1  28   1
M  END
>  <OMEGA_C>  (5) 
geYKQeB07UDT1o/Bvyz0QMbQ4kC40ojBTF8GQdn0+UDcaZrBlX/AQJ1Q80DOypbBhvDPQByeUT8t
16zBO52VQKl2H7/t0qbBs9vXQFnbzb/UhK3BZE/JQF225kBZRozByf7hQALM+kAj/Z3BIm6mQMWh
Kz8xhKjBYbLoQMaco744Q6/BJkCuQJY34b8JWqnBL9/ZQMZbsD9xB5HB6vGNQOAs+UBgOn3B//en
QK3e1EAxv3LBwSGkQCa610A0lIXBE3XhQF50pT4EbIjBZ3XrQL6BIkFihq/BG4ahQGcAHEHJ7qfB
4JO1QNdeDEE2urnBZRjYQM8G+kBhxKnBFeKMQP878j89HKXBEq6gQBenkUBMwo7BQBakQK6pKkCv
DZzB7V6HQModcUAGRJfBxq/GQHsaEkFega7Bjf6vQHtY3T8jeZPBtsqIQDoKuECcK4vBE3n4QFMw
+z8fBJXBtnt0QEu7lEC9n5/B/GkIQU6PNL4WJbPBMzCeQLfHP8A9oafBLkYbQU8F7EDuGY3BuST7
QAK210Az1IDB3zMTQRNtAUG0wZ/BZ76fQKhH90AhXZnBXbXcQCsn5z+LSq7B25hrQHyzPb+1laPB
L9nqQJO7HsB8YK/BLK9VQE5x+UCc7XvBxAWaQEAdDUGc0nzBB6bGQLj320DY4WrB2XeXQIYuu0DY
/GnBJv8BQRj/aj4M5YbBkBfRQJOQHz+VAoHBT7/UQE3sJL/FJovBvOICQcJ0G0H+L7TBTarfQM/w
MEFkm7PBnR33QKfOJkE2gafBKWOHQMBMEEGNN6fBIyStQGlMIEGS6J/B07CVQJFuKkHAAqzBhmmb
QLKxAEGQ+bjBX5OpQA7rGkH/qr3BUo7PQG9qBUFvir7BPr71QGDl8UCjDa7Beg3AQEzu4EDVKavB
pdGIQKq7I0BuCqzBM5ZaQAnJyD8UOKLBuIGmQAF6eUAN1YfBVHe/QDXFm0DiMZLBAQzBQFaMSEBU
YZ/Bq9ZWQAwWU0CUdJPBK36YQNoGqT+EI4/B9S9jQPW2rkBlLYbBx5F3QNobxkDpk5HBG0xVQOoa
hUBf2aTBVC0LQcVc9kDEbI3BU6LzQFqE6EBuK4fBYw4IQYXPAEGgNJjBT1XEQPJN8UBKe5bB3NjK
QBNJOz/tMq3BkB6UQNvXNr+1Y6XBLevTQKCL2L8gfK3BazvKQBWc5kDHqYvBnRrnQDtY/kCD0ZzB
KlejQFQDFD+u2qfBHyvjQL4Jzr639q/BxTisQCZ37L88SajBBODaQPCvtT8J6ZDBj12NQCWh9UAX
LHzB2mOmQH3ez0AChXLBxCGkQJ/s1UCNc4XBfQrkQKGF1D7KA4jBlqm8QLA2DEF/K7nBR6vhQCiI
J0Fmnq3BjCycQEThFkF0r6fBySbiQIf2/0Bs2KjBRRKKQAgz5j9QaaTBaNihQMS2kUCUS4/BDlGj
QL6nJ0AaCpzB7MSHQNa2cECsiJfBoh/HQKGwEkFjiq3BOI2wQMwF3j9pNZPBX3+JQOFdt0AEiovB
86/4QIZKAECMP5XBknR2QKzjk0C2F6DBp3sEQV1Kgr5PF7XBLhydQKR2RcAgI6bBgfUaQS5c+EAQ
8YnBP6D4QLVY30Dk3X3BqWAVQdpjBkEB85zBmMCkQJF770AQ9pnBRmrWQG0L3D/MKq/B7+1rQG+O
Vb9mR6HBSKnmQM/lI8D0ka/BumdUQGIO9kCNZHvBx6iZQDA4C0Eoe3rBKJvEQAuk1UAN92nBPSaV
QA9CtUBy4GrBFGIDQSuNtT58qIbB/RrUQCqbPT/1nIDBvdnXQIcOE79oW4rBmL+pQJe9+kD0KLnB
EC2qQMwLGUEYCL3BLp3aQDWdCUE7m73BbTbpQCE4LEFRWaXBcJL/QIDlJEEEErLBUiLPQBZUNEHg
frHBIJeiQI6KG0FEWp/BFMuKQG7WI0H6wavBSqqIQGE7CEFyy6fBejQBQesTAUH5UqzBaQfTQCXV
4UBlYKvB3b6DQNF1G0AvcqvBeBFXQPWqvD8i46DBDSOpQPndeUAkbojBU+G/QMqEnEBMAZPBp8S/
QAkrQ0A66p/BY/BWQKZNVUAVlJPBP7WZQA4nqz+PmI7BX2BjQD5IrUB004bBTJd6QE12xkA85pHB
oy1WQPYUhECnLaXBtVEIQaYv7kClLpLB+hXyQJHt3EBUH4vByMUBQSEVBUF2ZprB2kq5QL6BAEET
ApXBgGDLQPYvRz+eLa3B8CaVQIaOLr8wUaXBKkHVQN030r8HZK3BFnHGQKH35kA4jIzB16vXQLH3
CUFGtZvBt+ijQD86HT/t1KfBuR3kQLjcsr6m46/BFKWtQGV1579oLKjBIYTbQPlwwD+2zpDBQv2O
QOkD9UDYe3vBs3esQMlU0UCLvHLB1makQIuA1UB8YoXBzQrlQGm69D5mF4jBA+mpQHq4IEG5y7XB
nZ2+QPc89kAz7rDBWbb3QOxPF0G9DLTB6UDIQHZuGkH6qKPBnDuKQAbU6T82aKTB6GihQB+1kUCi
Jo/BiUWjQOIRKkAuE5zBLW6HQD6AckB3i5fBPHbKQHAUE0H+fK/BBwaxQPyH5D9dM5PBreqIQGQv
tkBg3orB9e74QO21+D8ZRZbBfu52QGZxlUDRBaDBUQkFQaJjRL617LTBsR+fQFgvQ8Dg56XBUwQZ
QewC5kAVTpHBGvj7QMotyEBzq4TBeYENQRQRDEECsp/B9p2XQNBEA0G8X5bBLJfWQG9W4j80MK/B
xBhuQIRPT7/YMqHBKzvoQM9qIMC3ea/Bi4BYQCpx80DcwHjBh4CZQFFMC0FdBnvBK//LQPR32UBL
DWzB6r6eQH1QtkDKx2nBRMgDQa8ihz6+8ofBQR3bQG4qYT+kSIDBiU7TQKL25b5VwYnBQsqxQAnG
MUGN3rTBXDqrQAJeHEHjUL7B3YGJQO28HUHHsrLBFn/VQF9B4kAnfKzBSB2eQKyg8EAp263Bx9W/
QNXi7UBGebnBK6YHQe6wDUFkoa/B0Xr4QJ7eEkEJkLzBCIf/QItjKEGPM7PB0cWmQNlUHkHKxKHB
5xrcQPDbKEFByKLB5aKDQJD9HECac6vBD6xXQGwpvz8u3KDBK4SpQHHFd0DTjIjBbwC/QEitnUAb
3JLBuH6/QDU2RkDl+5/BD9NVQI68VkB3upPBtl+aQMuJrz8jn47BhoFmQN8oq0BvqoXBhO1zQIDP
xEBT7JDBXrlWQKIdhkDONKXBiK7RQBQTCEEoGqDBDtS0QDOe+0CtEZnBodf8QNGHCkHZB53Baifw
QAiI50CUjo3BnvzHQF+WMT97/KzBlcCOQJhZKL8xMKXBLAfNQFOB3r+XI63B7DTEQM876EC6kY/B
0nQFQS98AUHnQ5PBES6gQHDqGT/yuqfBE4DeQAv1876Qoq/BO/ikQCvd6b88/6fB18TZQNSHrj9V
WJDBe4uSQOeJ8ECu+XzB8nSzQI2czUCaTHfBG9ulQBH21EC5X4fBDnPhQGqztz7XW4fB7GAiQabM
JEEXMHzBoAT7QAHFFUGT2XnBUzYGQZamMEGrOIvBkKIXQTBGC0E09IzBEE+JQGe07D8bUaTBkFGj
QA7ojkBbA4/BuimkQEgXJkD255vBJwuKQBqCcEBOnpfB+zMPQeE3HUGy64TBOtivQObW1z8IDpPB
C9eKQIuMtECD54vBxVz4QCKV9z9xdpTBI3GBQElplUBJKqDBsloCQU9rxr4KprTBdrCTQAc3QsDL
y6XBqcvGQO/6DUGTwKfBORiTQDy0+kDe7prBDXIJQWQ2E0GYEqLBakL9QO380UAPpofBsCLVQOuh
1D95+K7BpctgQPNOOb98F6HBVFjeQFzTKMDwKq/BuIhhQIJz7EDmdnjBNV2bQM1BCUGmqHvB88nT
QN2c1kAD/nHBGzGpQMSMsEBEzG7B6vsBQXTpkT5yvYXBMcTQQEaTMT9zFoDBxiPVQG9wIL/3xInB
21cvQT89KkEzY4PBpk4dQWYWMkE50nHB5CEoQX13F0FIPnLBt+HeQPcwEEHcaoHBYrkDQfufCEHE
7m/BSMzxQOQ+I0G1gm/BbBPxQPF6K0ESH5DBffQAQdwOPUF+j4XB7sYSQcsvN0EKcpDBoqcfQS0/
/UBTVYjBZB0jQXGKEkFEjJLBXWmEQGj5H0DGTqvB1TZUQHd8yj+V2aDBOLWnQBxRc0BlFYjBiMjC
QGmMmEDTIpLBoFHBQDTlPkBmvZ/B3f1XQDEXWEDXMpTBpTWYQNqzoz/hwY7BmstpQFz+q0ABfYbB
qXJ4QM50wEBdXpLBlhdjQJk4h0DzlaXBVRTTQMMWCUHEi5/BYay0QD5XAkHC6ZfB69P+QGJbBEFN
/53BB53tQBzO5EAETo3BXALNQDOeND8Pr6zBgoCSQPutJ78ApaXBGX/RQGBR3b/fU63BE2XCQOEE
7kBHv47B4hIGQVCN8kC+ppTBEZekQLqRHD9DtKfBy4jjQPm67b5Pba/BT9OoQKBk6b+GhKjBPcfZ
QDiYpD8rTZDBaqSPQA0L+EBTy3zBk16wQK2I1UAXN3bBOEWjQEEL20Bg6IbBpzffQDhQXz6Dr4fB
2qdAQYft+0DBaYvBKtAmQaibGkGyGZHBzAw4QaUKAkFI8p7Bbt4cQath5EB6aZLBSCKNQNeq7j+h
T6TBxcOjQMJqk0CJ/I7BRUOmQA/FKEBvmJvBMQaLQJFgc0B1X5fBDqAuQWFyA0E+hZPBqLawQKk3
3j+KoZLBjpyJQCuXuEC1n4vBqa/4QIqnzj+mv5XBAVGAQMQ2lUAKFaDBszEFQbUkv74KILTBvyiX
QKxJQsCErKbBEO3IQP/XEUGVjKbBHyKTQJnPBUEQEZnBQRALQfYnCUEH6aPBTZn3QMa20kAYYYbB
jKfaQOdZ1j+yY67BDAlnQBJlOr+73KHBStniQJETKMDgZ6/BzoFbQHdj9EBkZnjBlYCYQMMKDUGr
IXzBtpvQQDvl3kAZ7HDBCNylQCwzuUDSMG3Bkk4AQZFvBL6umIfBsQ3XQDXMJD8Aqn/BFeXJQPVG
Ib99aonBNoRGQSNL20Au7YzBrOdNQXRlCUHMWYzB+E86QXnx/UBSOIPBCgEaQfz1HkG0upbB7akg
QatmG0FS3YjBoUE0QWLTJUHM/pHBJYgrQTDfBUEJ1KTBgE1FQT2DDUFDvp/BmQU+QbV640AGZKDB
82YdQQIx2EAuKYrB6K8gQYVQykBUApjBweyIQHkLIUBVUqvBsS5bQDHUyj95HKHBRHuqQF8MfkBX
A4jByRbCQHK7nkAQcpLBotjDQNZgQkBUIZ/BWq5bQHNmWUAYrZPBO8KYQIDztj+57Y3BQXVoQAq8
rkC+NIbBRJZ0QCUdxECeB5LBIeFhQLh/hUCqVKXBelHWQMq9A0FCWaHBzCq8QAI370BUbJrBKjn0
QEQtEkHwBp3BKIPYQFrNCkHcJovBefjLQO6iLD+CcqzBkPmOQKqIIL9mA6bBC7XNQMha4b8fPq3B
PDu+QHAq9UB0J4/BWqH1QH9NFUFq1JHBxduiQPrMHT9i0afByH7hQHrSA7+vFa/BmEOkQHg/6L/9
zqjB/nDXQJpTnT+z0I/BHP6TQELJ7EC79XnBwIe5QOSKzUAsVHjBHyOmQK5U2EBNOofBEv/aQKbb
LT5SE4fBqHkyQZQdGkE2WoXB6KAdQYi+80Ccr4vBIuETQTQDDUFSoHTBfGwNQVV9IEF2jYzBqq2M
QKXc8D/teaTBLc2mQLjskUAqYo/BpmymQKdgJkBGpJvB83aMQFuhcUBUdJfB4tsbQRI3EEFiDIbB
8fuuQBd11z8Ap5LBv8yMQAB+tkBUAozBdGD3QFHDxT977ZTBWCaBQEL8k0DOLaDBH4EEQdiC674w
dbPBod2QQAVhQMB5O6fBXWPTQG70AUE96anBDVqmQFXf10CZt53BVPAEQbrHGkErNaLBK1HWQChF
D0Hc0oLBvuDaQJqo0D9R9q3BT+ReQCEDK793faLB50/eQIEsK8DzOq/B62NoQCJP40BFFXTBmhSZ
QHyGB0Fd1XbBVJLZQCld2UArEXTBsK+0QFOfrUATUXHBIz/8QLdDPr6ak4bBEoHRQK8rGz8xtX7B
U8rFQFvCLL84/ojBb4kxQSHTKUGFaYHBivY8QXN+D0GrsIDBdAc5QVESHEHydY3BeqYNQdco5UBC
QIzBQkYkQRDw90BKxJPBWDUoQVXI3kAC/4bBAMEDQZb2BUFN0HTBkeMeQVM+AkFjG2zBdGETQdqT
HEEcbWzBED8XQSwzKEEDwZLB0zsHQUO6LEGLCYfBG6+JQBgLI0DmcKvBkkNZQPdy0T8OaaHBz3Gu
QDlKe0D7cojBzqXEQBMrnUBfG5PBV7nEQEbbPUBtBp/BXwRfQGMyWUCzfZPB3Q2WQCIgrz/1UI7B
HppuQFBqrEBMpYbBWD17QLJFwkAHaJLBZmJhQNRHhEBtOKXB

>  <OMEGA_E>  (5) 
aNagPuiAnz7AHrg+BIMPP4CYEj8UwTM/

>  <OMEGA_NBR>  (5) 
     25918

$$$$
50167945
     RDKit          3D

 58 60  0  0  1  0  0  0  0  0999 V2000
    6.8429    8.5824  -19.8618 C   0  0  0  0  0  0  0  0  0  0  0  0
    5.7662    8.0461  -19.0112 C   0  0  0  0  0  0  0  0  0  0  0  0
    6.4420    0.8005  -21.5154 C   0  0  0  0  0  0  0  0  0  0  0  0
    4.5826   -0.6335  -20.8383 C   0  0  0  0  0  0  0  0  0  0  0  0
    6.6604   -1.6226  -21.6466 C   0  0  0  0  0  0  0  0  0  0  0  0
    8.0911    8.2871  -19.3735 C   0  0  0  0  0  0  0  0  0  0  0  0
    5.1310    0.6513  -21.0129 C   0  0  0  0  0  0  0  0  0  0  0  0
    7.2095   -0.3364  -21.8206 C   0  0  0  0  0  0  0  0  0  0  0  0
    5.3447   -1.7691  -21.1616 C   0  0  0  0  0  0  0  0  0  0  0  0
    6.2288    7.3846  -17.8889 C   0  0  0  0  0  0  0  0  0  0  0  0
    6.6820    1.3718  -17.9143 C   0  0  0  0  0  0  0  0  0  0  0  0
    5.4282    7.8182  -14.0735 C   0  0  0  0  0  0  0  0  0  0  0  0
    4.8804    8.6589  -15.2352 C   0  0  0  0  0  0  0  0  0  0  0  0
    6.5354    6.8811  -14.5769 C   0  0  0  0  0  0  0  0  0  0  0  0
    4.2671    7.7436  -16.2965 C   0  0  0  0  0  0  0  0  0  0  0  0
    6.0232    5.9591  -15.6933 C   0  0  0  0  0  0  0  0  0  0  0  0
    5.2880    6.7176  -16.8564 C   0  0  0  0  0  0  0  0  0  0  0  0
    6.8544    0.2199  -16.9275 C   0  0  0  0  0  0  0  0  0  0  0  0
    4.3442    1.8623  -20.5885 C   0  0  0  0  0  0  0  0  0  0  0  0
    5.1446    4.5354  -17.9774 C   0  0  0  0  0  0  0  0  0  0  0  0
    5.1033    2.6025  -19.4726 C   0  0  1  0  0  0  0  0  0  0  0  0
    4.2721    3.7624  -18.9429 C   0  0  2  0  0  0  0  0  0  0  0  0
    5.4004    1.6713  -18.3643 N   0  0  0  0  0  0  0  0  0  0  0  0
    4.4434    5.7518  -17.5738 N   0  0  0  0  0  0  0  0  0  0  0  0
    7.6746    1.9055  -18.3985 O   0  0  0  0  0  0  0  0  0  0  0  0
    3.8849    4.6192  -20.0174 O   0  0  0  0  0  0  0  0  0  0  0  0
    8.4742   -0.1925  -22.2760 F   0  0  0  0  0  0  0  0  0  0  0  0
    4.8159   -3.0009  -20.9922 F   0  0  0  0  0  0  0  0  0  0  0  0
    7.9865    7.3757  -17.8824 S   0  0  0  0  0  0  0  0  0  0  0  0
    6.6695    9.1446  -20.7675 H   0  0  0  0  0  0  0  0  0  0  0  0
    4.7172    8.1587  -19.2420 H   0  0  0  0  0  0  0  0  0  0  0  0
    6.8546    1.7874  -21.6649 H   0  0  0  0  0  0  0  0  0  0  0  0
    3.5785   -0.7462  -20.4566 H   0  0  0  0  0  0  0  0  0  0  0  0
    7.2480   -2.4968  -21.8850 H   0  0  0  0  0  0  0  0  0  0  0  0
    9.0168    8.5788  -19.8471 H   0  0  0  0  0  0  0  0  0  0  0  0
    5.8398    8.4868  -13.3031 H   0  0  0  0  0  0  0  0  0  0  0  0
    4.6129    7.2192  -13.6417 H   0  0  0  0  0  0  0  0  0  0  0  0
    4.1094    9.3459  -14.8564 H   0  0  0  0  0  0  0  0  0  0  0  0
    5.7002    9.2392  -15.6838 H   0  0  0  0  0  0  0  0  0  0  0  0
    7.3674    7.4863  -14.9659 H   0  0  0  0  0  0  0  0  0  0  0  0
    6.8912    6.2645  -13.7383 H   0  0  0  0  0  0  0  0  0  0  0  0
    3.4263    7.1953  -15.8465 H   0  0  0  0  0  0  0  0  0  0  0  0
    3.8981    8.3636  -17.1268 H   0  0  0  0  0  0  0  0  0  0  0  0
    6.8824    5.4204  -16.1194 H   0  0  0  0  0  0  0  0  0  0  0  0
    5.3204    5.2373  -15.2515 H   0  0  0  0  0  0  0  0  0  0  0  0
    7.9259    0.0188  -16.7813 H   0  0  0  0  0  0  0  0  0  0  0  0
    6.3976    0.4911  -15.9642 H   0  0  0  0  0  0  0  0  0  0  0  0
    6.3635   -0.6804  -17.3255 H   0  0  0  0  0  0  0  0  0  0  0  0
    4.2119    2.5339  -21.4496 H   0  0  0  0  0  0  0  0  0  0  0  0
    3.3589    1.5469  -20.2147 H   0  0  0  0  0  0  0  0  0  0  0  0
    5.3517    3.9176  -17.0912 H   0  0  0  0  0  0  0  0  0  0  0  0
    6.0923    4.8015  -18.4685 H   0  0  0  0  0  0  0  0  0  0  0  0
    6.0440    2.9958  -19.8855 H   0  0  0  0  0  0  0  0  0  0  0  0
    3.3899    3.3723  -18.4141 H   0  0  0  0  0  0  0  0  0  0  0  0
    4.6294    1.2273  -17.9079 H   0  0  0  0  0  0  0  0  0  0  0  0
    3.6839    5.4937  -16.9768 H   0  0  0  0  0  0  0  0  0  0  0  0
    4.0857    6.1960  -18.3952 H   0  0  0  0  0  0  0  0  0  0  0  0
    3.3369    4.1373  -20.6257 H   0  0  0  0  0  0  0  0  0  0  0  0
  1  2  1  0
  1  6  2  0
  2 10  2  0
  3  7  2  0
  3  8  1  0
  4  7  1  0
  4  9  2  0
  5  8  2  0
  5  9  1  0
  6 29  1  0
  7 19  1  0
  8 27  1  0
  9 28  1  0
 10 17  1  0
 10 29  1  0
 11 18  1  0
 11 23  1  0
 11 25  2  0
 12 13  1  0
 12 14  1  0
 13 15  1  0
 14 16  1  0
 15 17  1  0
 16 17  1  0
 17 24  1  0
 19 21  1  0
 20 22  1  0
 20 24  1  0
 21 22  1  0
 21 23  1  0
 22 26  1  0
  1 30  1  0
  2 31  1  0
  3 32  1  0
  4 33  1  0
  5 34  1  0
  6 35  1  0
 12 36  1  0
 12 37  1  0
 13 38  1  0
 13 39  1  0
 14 40  1  0
 14 41  1  0
 15 42  1  0
 15 43  1  0
 16 44  1  0
 16 45  1  0
 18 46  1  0
 18 47  1  0
 18 48  1  0
 19 49  1  0
 19 50  1  0
 20 51  1  0
 20 52  1  0
 21 53  1  6
 22 54  1  1
 23 55  1  0
 24 56  1  0
 24 57  1  0
 26 58  1  0
M  CHG  1  24   1
M  END
>  <OMEGA_C>  (6) 
qPjaQIpRCUH85J7B3oS4QLC8AEH2FpjBMCXOQHfuTD+AH6zBgKSSQKgvIr++tKbBISLVQBixz79N
LK3BIXUBQeiXBEHm/JrBKDGkQPu4Jj+AGqjBdrTmQEA+rL6qkK7BhwerQIBy4r/ySqnBolLHQFpO
7EB6HI/BFNPVQPyWrz+IUI/BHrStQL4u+kA6LWHBXyycQLCKCkGTw3PBxSHRQKsx3EDROmnBs4uI
QGTL90AuX4LB673AQJWwvkCfF3vBATepQKj21kD72YbBLFfbQMQyYT5ta4fBgQOLQEJh7j8vtaTB
wKCkQFgikUDH0Y/BhE6jQPSOJkDTx5vBrLSIQOrKcED2ipfBJNCsQIzt1T8t6pLBgjCOQNYOuEAw
l4zBGpb1QJ7o8z8yMJPBnKJ4QKzQk0CwI6DBepYHQQwkRb4rNbLB3RuaQHIOQMD376fBLJH/QMQF
7EA3D4/BRGzVQDxQEkHbI6bBXfOWQC6KAkGx75nBrFjbQObH5D/MUa3B3wZlQI4FP782p6PBp+/n
QCfMH8CPFK/B3EQQQcVCCUH0xp7Byd+6QLzJB0FR2VTBC52TQLMD50CRRFrBE4CDQLqIFUHls23B
AWi2QJTTE0Hv8HrB6cHrQBmQ70A9dG/B9YTcQId2yEAX0FvB6UdbQPc/5kBHi33BP3p5QDvRBUG2
A4nBqjzcQCR0rUCZ9IDBnkCqQMiXp0BXBnTBSKH9QEFOmjwoQIbBgbnMQEpt+z5bbX/Be6HLQLIs
Lr+xmorBjceGQDgrIkC/mKvBIvhWQB4Bxj+pt6HBz0CrQC25ekDYuojBL/TCQNylmUBnv5PBK2jB
QFC7P0B8FZ/BofNYQB3TV0AgUJPB1SOUQPoXnT9ZQ4/BnsRrQFPMr0Bw0IfBtr2CQGtFxkBzKZPB
RZBVQK5khEBXAaXBtxXaQPL8CUGQ+Z7Br/i3QObJAUG18JfBa3SSQID3Hr8rNKfBNR3PQEv4TD9H
/avBS/nUQMyYz789iK3BDRYBQSKBBEH5bZvBh8OkQIu5KD/4NKjBl3SqQM404b9/7KnBMVLnQOxf
rr7Uiq7BNSXHQJZQ7UAqKY/Bh3XVQMp8rD8JNo/BYtGsQF6A+kA6EWHB0BmbQKefCkHdqHPBC7/Q
QAYW3UBfG2nBwRaIQAbE90AyXYLBaALBQFJ/v0BHGXvB8U+pQHGE10BX4IbBOfHaQAzRQT5fYIfB
q6aLQP5v7z8ywqTBbdmkQAETkUCvr4/Bh3ejQHgUJkCjqZvB1OOIQNFWcEBqZpfBGoesQPpm0z8+
2ZLBu4iOQKVbuEAGoozBU0f1QCy08D+FD5PBKv54QG2Kk0BqAaDBq7OYQDIVP8C2+qjBRR0IQSwn
U75M5bHBN1//QERZ60Csjo/BjTLUQNlDE0ExHabBMlSWQBE9BEEofpnBTQhkQGhPOr8wWaTBBOLc
QIZn5D9O66zBeX/nQAfvH8AQhq/B/8oPQWLFCEHObp/BlZG5QBMACEHhrFTBdvGSQJHq5kC4P1rB
XQuCQOtqFUGfom3BwSK1QHUeFEGrvXrB1CjrQMvl8EAyNW/BG0TcQAdjyUDjtFvBCuZaQCi25UDK
mH3BTAR4QKDDBUGM/YjBVtrcQLS/rkAN74DBvcyqQJP+p0BGJXTBgjn9QO25d7w6O4bBQ2XMQI0w
6T5kTX/BrSXLQE8ZNb90mYrBR/CHQGtxI0DBl6vBispXQKslxz/O6qHBCBerQKc5e0CChYjB+13D
QHcnmUAnlJPBXsjBQANSP0AD1Z7BtV1ZQKJkV0CdKJPBnreTQBgpmj/sR4/BhNJrQMJysEDs64fB
D4uDQA9TxkAeSZPBaexVQDMXhECz3aTBbm7/QPkoA0EsCJrBIr3wQKYs70CoXJDBvq2RQA8XGb82
SqfBDJTPQJOfSD/j0qvBcBPUQO5C0r8OPK3B4D3eQO/oCkG5GqDBnNmkQOF/Kz9AQqjB0DGpQIpQ
4L/t1anBHEvnQOQXv76XMq7BVLrEQIJH7kBkao/BvmzUQALSqD88G4/BuhiuQKiZ+EBylGDB8pKb
QGf6CUG6vHLBcGPSQJth3EAtPWnBejeIQJb09kCQ9YHBrs/CQIBev0BUfnvBnFmpQKF110A7zobB
GHfYQIzUMT7CF4fB7FeMQPLm8j8j7qTBMDulQOYUkUApoo/BOgWkQOetJkC8uJvBKLmJQFedcUAj
jJfB3vGrQIih0z9345LBcIqOQKX9t0CFbYzBtOP0QDIu6T+m4JLBeVJ9QG2ulEA9KaDBMKaWQHXo
PcBM5qjBBkkIQXKgh77rUbHByi6tQCh7BEE1XZrBSF0QQWxHBUHWFpzBdxcDQQ+N4EBGqIrByulh
QNvsLr9JmKTB/gPeQL4U4T+duazBaTXmQMMLIsD5Ga/B4hTiQNnLE0Gwc6fB2q+6QLHTBkEx9VPB
zryUQIEn5EAW6VnBsJCCQByOFEEGS2zBJTm1QN21E0FB2XnBTjPsQMAP8UAUQ2/B4LLeQExEyEA6
LFzBQCBcQH1S5EDatXzB2Ml2QAKQBUFza4jBoefeQGMBsEDaZoHBOcWtQMO2pkA3oXTB/n76QLXQ
Vr2PwYXBoYnJQE3R7j5W837BEUPIQHPmN7+TRYrBYqCJQJJWJUADx6vBFVVYQCByzT/nPKLBXUOr
QPAHekD2j4jBVN/DQHGmmUDdZZPBub7CQMj8PkCIwZ7BisZZQFltWUCZgZPBh56SQJSXnD+waY/B
o/NsQJ2lr0C8lYfBRryCQDXaxUCyAZPBq8VaQEuyhUAjK6XBX8z+QBxPA0FkJZrBx4fwQLRx70C8
b5DB377PQPvvST9j+6vB/ymSQIxvF78iKKfBN4rUQCTk0b8MEq3BB1jdQHHlCkE8LqDBoB2lQCFH
LT8YWajBH47nQJ53vb4uPK7BacWpQDLF37/glanBao/EQGox7kAabo/BufXTQCgFqT9LFo/Bp1av
QMwN+EA8hGDBHvOcQMLXCUE+mnLBFxPTQMpN20AJTWnBQM6IQILv9kC41YHBc/fCQDK8vkAtnHvB
73GpQHBA10A1yobBd4zXQFxQMj41EofBX6eMQHg19D+YFqXB7h+lQDcpkUBjuY/BJRukQIsCJ0A3
0pvB2auJQDTHcUAZpJfB/6+rQJyp0z+UAZPBn2uOQID2t0DUaozBEZ70QOz+6T/btZLB+up8QOHF
lEBfPKDB014IQVTphr7RbrHBtWuXQH2rPcD7d6jB+YqsQJhQBEE0W5rBXwEQQU2NBUF0QZzBCh0D
QZcQ4UCuwIrB6wneQF224T9pB63BQxdjQELoLL+3YaTBAb/mQJHyIcBn2a7BON7gQKPAE0EOjKfB
jGy8QIx1BkEi8VPBUceVQCD840DZwFnBqGmEQFGiFEGSD2zBbMm2QBBaE0E/2HnB0DTtQA6b70AV
TW/BvBnfQJ/ZxkDkTFzBpGRdQDF/5EBITHzB1Zl3QIKgBUFBPojBadLeQG06r0AUiYHBgs6tQJYr
pkDDwXTBpID5QJZOR72wlYXBkwvIQFZ77T5TCX/BT6zHQGsNOL9KVYrB9lKKQG0GJkDk8KvBLaVY
QGZozz8keqLBxlurQB7peUBesIjBe6rDQBDvmUCKgpPBTe3CQFxkP0DLyJ7B/8pZQDxWWUC/mJPB
+TeSQN7rmz8zpI/B/f9sQK94r0C4i4fBIWuCQEj/xUBq85LBi2taQEzChUBRPqXBpt4GQTZaAUGK
N5PBZvDzQKwn7kDWy4rByhKPQM4mgr8qmqTBcn7AQBdtHj9OI6zBPmXHQHNf3b997LDB0lL1QOWQ
CEHgmpvBQCyeQGy8oD5gLaXBLlyjQAgdAsDllKrBFh3WQK7Uzb5vn7HBCpnIQE0E70B19IzBMpTm
QAdCqD8O75HBgLyfQGpYBEFNjWHByhiTQHDSD0HKbnbBZv/BQKpU5kBbyWXB0HmCQM0v/0CRioPB
6m+zQIsNxkDVIXfBWB2kQN/j20CvLobBMpf8QNAXVj/vtofBBkOHQGP0tT9BFp/BCAGoQPValkAp
JZDB7GOmQNQJH0AcQ5rB2oKMQPydbkCWvZbBkFK+QFfq9D9QI5HBqnWNQNSUu0C434zBvFP6QMFo
oj8MZ5rB0297QLVYjUD+FKDBJFCUQGZBU8C3PKrBeMn4QB7Ayb3ooLfBajm/QKGDA0G5bZnBIQ0Y
QeMGA0FZ1ZLBYL0AQTvs30AOsIPB8v9nQD3LoL/MlZ/BmSXKQLnF0j+8Pa3BO67XQAvvIMBIPbXB
pwEBQRlbEEF0oqLBmYKsQE8rEEHXL1bBEzeDQJVc+UApplrBuZhzQB6QG0Fx+3LBCEKvQB0eGEFB
93zBYI3fQOAc9kDhLmvBrUXIQN3d1EC61FbBIQZLQITB70DqW4DBKwl1QNQ5CEGO8orBrHzOQCvS
sEBn5HrBQtOYQCgCs0ACpnDBqZsOQTHn/j6Am4nB6Rj+QPYA1T997oHBdk3qQDhnKjsqPoTBnmhi
QKoT9z9Em6TByNtpQPN1dz/Mg5jBPx+0QDXlhUAR+4jBex/DQICCoUBoA5XBCA29QGWHMkA5iqDB
2nliQKB7WUAu2JHBbsGwQBe4+j/P5onBbOpoQE2asEDls4jBlwWDQOQqykDGf5PB3z1ZQC0wdUBD
RKTB

>  <OMEGA_E>  (6) 
yNqDPiB6iD7oCps+mC6dPkZsCz8=

>  <OMEGA_NBR>  (6) 
     30967

$$$$
50167984
     RDKit          3D

 73 75  0  0  1  0  0  0  0  0999 V2000
    8.5845    7.5541  -18.4923 C   0  0  0  0  0  0  0  0  0  0  0  0
    7.6565    7.0419  -17.5711 C   0  0  0  0  0  0  0  0  0  0  0  0
    8.1446    8.2389  -19.6368 C   0  0  0  0  0  0  0  0  0  0  0  0
    5.8378    7.8605  -18.9638 C   0  0  0  0  0  0  0  0  0  0  0  0
    6.4016    0.8075  -21.5715 C   0  0  0  0  0  0  0  0  0  0  0  0
    4.6115   -0.6557  -20.7802 C   0  0  0  0  0  0  0  0  0  0  0  0
    6.6834   -1.6128  -21.6418 C   0  0  0  0  0  0  0  0  0  0  0  0
    6.2658    7.2177  -17.7804 C   0  0  0  0  0  0  0  0  0  0  0  0
    6.7599    8.4193  -19.8773 C   0  0  0  0  0  0  0  0  0  0  0  0
    5.1138    0.6394  -21.0166 C   0  0  0  0  0  0  0  0  0  0  0  0
    7.1898   -0.3181  -21.8713 C   0  0  0  0  0  0  0  0  0  0  0  0
    5.3918   -1.7803  -21.1030 C   0  0  0  0  0  0  0  0  0  0  0  0
    6.7848    1.4483  -18.0508 C   0  0  0  0  0  0  0  0  0  0  0  0
    5.3773    8.1415  -14.1789 C   0  0  0  0  0  0  0  0  0  0  0  0
    4.8843    8.8375  -15.4571 C   0  0  0  0  0  0  0  0  0  0  0  0
    6.3735    7.0199  -14.5101 C   0  0  0  0  0  0  0  0  0  0  0  0
    4.2160    7.8172  -16.3838 C   0  0  0  0  0  0  0  0  0  0  0  0
    5.7694    6.0059  -15.5074 C   0  0  0  0  0  0  0  0  0  0  0  0
    5.1953    6.6841  -16.7962 C   0  0  0  0  0  0  0  0  0  0  0  0
    7.0526    0.4467  -16.9319 C   0  0  0  0  0  0  0  0  0  0  0  0
    5.8682    8.0356  -22.1892 C   0  0  0  0  0  0  0  0  0  0  0  0
    7.3135   10.0604  -21.7729 C   0  0  0  0  0  0  0  0  0  0  0  0
    4.9942    9.9896  -20.8468 C   0  0  0  0  0  0  0  0  0  0  0  0
    4.3101    1.8441  -20.5911 C   0  0  0  0  0  0  0  0  0  0  0  0
    5.0728    4.5020  -17.9239 C   0  0  0  0  0  0  0  0  0  0  0  0
    5.0802    2.6205  -19.5061 C   0  0  1  0  0  0  0  0  0  0  0  0
    4.2265    3.7469  -18.9364 C   0  0  2  0  0  0  0  0  0  0  0  0
    6.2458    9.1183  -21.1530 C   0  0  0  0  0  0  0  0  0  0  0  0
    5.4679    1.7084  -18.4119 N   0  0  0  0  0  0  0  0  0  0  0  0
    4.3571    5.7081  -17.5097 N   0  0  0  0  0  0  0  0  0  0  0  0
    7.7201    2.0726  -18.5407 O   0  0  0  0  0  0  0  0  0  0  0  0
    3.8376    4.6294  -19.9898 O   0  0  0  0  0  0  0  0  0  0  0  0
    8.4344   -0.1557  -22.3737 F   0  0  0  0  0  0  0  0  0  0  0  0
    4.9014   -3.0216  -20.8914 F   0  0  0  0  0  0  0  0  0  0  0  0
    9.6423    7.4207  -18.3197 H   0  0  0  0  0  0  0  0  0  0  0  0
    8.0047    6.5106  -16.6976 H   0  0  0  0  0  0  0  0  0  0  0  0
    8.8664    8.6306  -20.3383 H   0  0  0  0  0  0  0  0  0  0  0  0
    4.7807    7.9263  -19.1752 H   0  0  0  0  0  0  0  0  0  0  0  0
    6.7810    1.7999  -21.7655 H   0  0  0  0  0  0  0  0  0  0  0  0
    3.6286   -0.7846  -20.3517 H   0  0  0  0  0  0  0  0  0  0  0  0
    7.2854   -2.4775  -21.8790 H   0  0  0  0  0  0  0  0  0  0  0  0
    5.8719    8.8827  -13.5340 H   0  0  0  0  0  0  0  0  0  0  0  0
    4.5150    7.7113  -13.6484 H   0  0  0  0  0  0  0  0  0  0  0  0
    4.1569    9.6181  -15.1896 H   0  0  0  0  0  0  0  0  0  0  0  0
    5.7395    9.2955  -15.9756 H   0  0  0  0  0  0  0  0  0  0  0  0
    7.2771    7.4633  -14.9537 H   0  0  0  0  0  0  0  0  0  0  0  0
    6.6410    6.4933  -13.5822 H   0  0  0  0  0  0  0  0  0  0  0  0
    3.3560    7.3721  -15.8620 H   0  0  0  0  0  0  0  0  0  0  0  0
    3.8676    8.3340  -17.2901 H   0  0  0  0  0  0  0  0  0  0  0  0
    6.5554    5.2962  -15.8051 H   0  0  0  0  0  0  0  0  0  0  0  0
    4.9557    5.4623  -15.0050 H   0  0  0  0  0  0  0  0  0  0  0  0
    8.1293    0.4262  -16.7073 H   0  0  0  0  0  0  0  0  0  0  0  0
    6.4960    0.7455  -16.0314 H   0  0  0  0  0  0  0  0  0  0  0  0
    6.7255   -0.5543  -17.2499 H   0  0  0  0  0  0  0  0  0  0  0  0
    5.4991    8.5179  -23.1063 H   0  0  0  0  0  0  0  0  0  0  0  0
    6.7551    7.4292  -22.4254 H   0  0  0  0  0  0  0  0  0  0  0  0
    5.0819    7.3886  -21.7733 H   0  0  0  0  0  0  0  0  0  0  0  0
    6.9040   10.5350  -22.6768 H   0  0  0  0  0  0  0  0  0  0  0  0
    7.5857   10.8367  -21.0426 H   0  0  0  0  0  0  0  0  0  0  0  0
    8.2075    9.4769  -22.0382 H   0  0  0  0  0  0  0  0  0  0  0  0
    4.6496   10.4750  -21.7718 H   0  0  0  0  0  0  0  0  0  0  0  0
    4.1923    9.3515  -20.4471 H   0  0  0  0  0  0  0  0  0  0  0  0
    5.2554   10.7584  -20.1047 H   0  0  0  0  0  0  0  0  0  0  0  0
    4.1421    2.4978  -21.4597 H   0  0  0  0  0  0  0  0  0  0  0  0
    3.3414    1.5143  -20.1877 H   0  0  0  0  0  0  0  0  0  0  0  0
    5.2568    3.8632  -17.0476 H   0  0  0  0  0  0  0  0  0  0  0  0
    6.0330    4.7820  -18.3817 H   0  0  0  0  0  0  0  0  0  0  0  0
    5.9839    3.0543  -19.9592 H   0  0  0  0  0  0  0  0  0  0  0  0
    3.3444    3.3219  -18.4351 H   0  0  0  0  0  0  0  0  0  0  0  0
    4.7404    1.2508  -17.9006 H   0  0  0  0  0  0  0  0  0  0  0  0
    3.6068    5.4373  -16.9066 H   0  0  0  0  0  0  0  0  0  0  0  0
    3.9856    6.1497  -18.3263 H   0  0  0  0  0  0  0  0  0  0  0  0
    3.3090    4.1558  -20.6213 H   0  0  0  0  0  0  0  0  0  0  0  0
  1  2  2  0
  1  3  1  0
  2  8  1  0
  3  9  2  0
  4  8  2  0
  4  9  1  0
  5 10  2  0
  5 11  1  0
  6 10  1  0
  6 12  2  0
  7 11  2  0
  7 12  1  0
  8 19  1  0
  9 28  1  0
 10 24  1  0
 11 33  1  0
 12 34  1  0
 13 20  1  0
 13 29  1  0
 13 31  2  0
 14 15  1  0
 14 16  1  0
 15 17  1  0
 16 18  1  0
 17 19  1  0
 18 19  1  0
 19 30  1  0
 21 28  1  0
 22 28  1  0
 23 28  1  0
 24 26  1  0
 25 27  1  0
 25 30  1  0
 26 27  1  0
 26 29  1  0
 27 32  1  0
  1 35  1  0
  2 36  1  0
  3 37  1  0
  4 38  1  0
  5 39  1  0
  6 40  1  0
  7 41  1  0
 14 42  1  0
 14 43  1  0
 15 44  1  0
 15 45  1  0
 16 46  1  0
 16 47  1  0
 17 48  1  0
 17 49  1  0
 18 50  1  0
 18 51  1  0
 20 52  1  0
 20 53  1  0
 20 54  1  0
 21 55  1  0
 21 56  1  0
 21 57  1  0
 22 58  1  0
 22 59  1  0
 22 60  1  0
 23 61  1  0
 23 62  1  0
 23 63  1  0
 24 64  1  0
 24 65  1  0
 25 66  1  0
 25 67  1  0
 26 68  1  6
 27 69  1  1
 29 70  1  0
 30 71  1  0
 30 72  1  0
 32 73  1  0
M  CHG  1  30   1
M  END
>  <OMEGA_C>  (7) 
NFoJQWi78UBB8JPB+QH1QORW4UCDkYzBZFACQbjSA0FDGJ3BSs+6QGKJ+0DxtZfBI9rMQN+4Tj9q
kqzByZGTQMfdJ7/pPabBkd7VQMpwzr93Iq3BY4HIQBD35kAzPo7BXlHYQJm1BkGiBJ/BQ6SjQKGw
Iz8LIqjB4xLmQELbor5d+K7B74msQHHh47/k0qjBMh3ZQLBguT8JaJDBlBKsQMRDAkG13GLBGEyc
QI5mDUEpUHfBYPPLQAqj4EB9KWjBe+mGQEQm+kAIEoPBDp+4QFYwwEA9HnjBuj+mQBrk1UCuXobB
Oq/hQJSx5D6LdIfBpMi7QNmRAEF0g7HBLAjqQHb3IEHgLq7Bc9CfQDbVH0FQxqbBOuyJQPkM7D+g
uqTBE1SiQL4QkEA/ZI/B75CiQMa2J0B1DJzBtT+HQPbMb0CnfZfBUt3HQHzkEUFTOanBtfiuQCus
2j+iS5PBn22LQKiotkDOE4zB/wr3QIylBEBIU5TBfZp1QAAklEAj65/BKfMGQe5wH75b/bLB3tec
QKJiQcCYIafBrkYaQXx27UC0jpLBbhMAQfxW0ECylIXB7dwNQfEWCkHHtKLB1/uYQFek/UDnZpnB
8v3YQBBj5j/AH67B9jpoQHvaSL9Z0KLBLSLpQMWPHsBJCK/B9Oa7QLsfDkEii1jBl3qQQF/D9kAI
YFrB/wSFQMfjGUF/CHPB2qm3QGG6FEE0nH/BOt7oQDPT7kCOQm/BcIPUQAfJz0CjUFnBb8hWQOHn
60Dnyn3BsYZ3QDpYBUE6UorBhMXRQHx6qUCS4XzBz5SeQGzLrkCqFHDBhBECQQM62j6bqIXBLd/P
QPjZPj9lQIDBETfXQNbjDb/D/4nBovivQHJJCEG02bjByynYQF+87UBBZ7PBhZ6iQFBv7EC8L67B
tO3cQGSPKEEfarXB7L3yQAJjLUE4V6jByVEDQYehF0EoTrDBScmUQL2ZJ0GfLK7BPieGQLWfFUGQ
k6PBSSyoQDoiLEF+1qDBRoyEQI3cH0CIravBvdhVQM3VwT9VgKHBzjeoQIE+d0B6YYjBOg7BQGYG
mUDQDZPBvHu/QNV4Q0BerJ/BjgpWQESaVEAce5PBnrGXQE4aoD9mNI/B0NVmQDz+rUDDQIfBgxR/
QKzKxEBRnJLB4cVTQFf8hEBz+KTBaVUJQT9V8kDv5ZPBdOf0QKYB4kClh4zBx1YCQVE/BEF+B53B
oNS6QFGd/EBcpZfBUlKTQFJSKL8/KKbBr13MQHimTz8GjKzBSHzVQN/Qzb8lMK3BO2vIQKjZ50B1
Mo7BEmbYQC1FB0Hr7p7B+1ijQEFxIz9HBKjB5UCsQBfE479A0qjBJpDlQMF+n76wBq/Bn0bZQMhR
uz9MEpDB/piqQPaeAkE38WLBwoyaQNuXDUFKbnfBEw3LQJbM4UBTKGjBXgCGQIIm+kAhKoPBLUK4
QD7/wECOE3jBEw6mQGdo1kClZYbBhOrhQBpOuT6D6YfBw6u9QPr+AEFCj7HBg7DpQHQJIkGv6a3B
KAOfQJO0H0H34abBZcaJQEp46z8VhaTBYRSjQMp/kEBaao/BDtKiQFVNJ0AJ5pvBUcGHQPu+b0A4
XpfBDxHIQMhjEkE6K6nBzDWvQKX22T8sJJPB38yLQFPrtkB2KIzBfnT3QOcDAUDQhpTB0t11QPmt
k0AQ2p/Bsq+cQLFjQcBrGqfByqMGQbitE750GbPBVD8aQRzS7UDyiJLBIfz/QADm0EB0jYXBRukN
QR6ACkHkoaLBBgSZQKXX/kBdV5nBV+NnQCP8Sb8fsaLB9F/YQOkG5z8/G67BSsToQKkiHsBVIK/B
CAa6QOWfDkFDo1jBEi+PQBIZ90D3dlrBFLaCQPrUGUEYM3PBN6+1QIA2FUGMp3/BJsfnQMtg8EA5
QG/B8s/TQOsp0UBKR1nBCDBVQBxy60CmFn7BvZ11QCk9BUHrcIrBeKrRQO9yqkBGsHzBaj2eQGp3
r0CPGHDBjlECQVtrVj6OIofBbIzUQLWIJz9vHYDBnMjSQH2aEr+vmYrBB/SxQJCeCEEy7rjBN8Pa
QLd/70ARV7PB0eWkQFh17ECaYa7BN6vcQL6OKUEtLLXB5j/xQOh6LkG4+6fBG30DQScoGUH58K/B
VSiUQDhsJ0G6T67BlLKFQPwTFUF626PBniWmQPMHLEEM3KDBRwuEQIiwH0CQcKvBeuNVQLb+wD+g
NKHBt4KpQGnMeEBUX4jBsonBQMShmUCTMJPBTr2/QDaYQkDCk5/BVWNXQF7tVEAXP5PBJ+2XQMVI
nT+5LI/BE1xnQP8QrkC0Y4fBWQuAQIfuxEDuuJLBobZTQJ0/hEAg0aTB

>  <OMEGA_E>  (7) 
wPGvPACRtDw=

>  <OMEGA_NBR>  (7) 
     33598

$$$$
50167948
     RDKit          3D

 76 78  0  0  1  0  0  0  0  0999 V2000
    8.6759    7.4690  -18.2683 C   0  0  0  0  0  0  0  0  0  0  0  0
    7.6974    7.0583  -17.3428 C   0  0  0  0  0  0  0  0  0  0  0  0
    8.2964    7.8615  -19.5613 C   0  0  0  0  0  0  0  0  0  0  0  0
    5.9564    7.5531  -18.9617 C   0  0  0  0  0  0  0  0  0  0  0  0
    6.4065    0.7855  -21.5693 C   0  0  0  0  0  0  0  0  0  0  0  0
    4.6018   -0.6624  -20.7831 C   0  0  0  0  0  0  0  0  0  0  0  0
    6.6732   -1.6376  -21.6250 C   0  0  0  0  0  0  0  0  0  0  0  0
    6.3165    7.1377  -17.6697 C   0  0  0  0  0  0  0  0  0  0  0  0
    6.9358    7.8346  -19.9189 C   0  0  0  0  0  0  0  0  0  0  0  0
    5.1155    0.6286  -21.0178 C   0  0  0  0  0  0  0  0  0  0  0  0
    7.1889   -0.3473  -21.8595 C   0  0  0  0  0  0  0  0  0  0  0  0
    5.3766   -1.7937  -21.0947 C   0  0  0  0  0  0  0  0  0  0  0  0
    6.7936    1.4247  -18.0515 C   0  0  0  0  0  0  0  0  0  0  0  0
    5.2205    8.2149  -14.1749 C   0  0  0  0  0  0  0  0  0  0  0  0
    4.8432    8.8786  -15.5080 C   0  0  0  0  0  0  0  0  0  0  0  0
    6.2099    7.0598  -14.3856 C   0  0  0  0  0  0  0  0  0  0  0  0
    4.2137    7.8443  -16.4435 C   0  0  0  0  0  0  0  0  0  0  0  0
    5.6738    6.0247  -15.4033 C   0  0  0  0  0  0  0  0  0  0  0  0
    5.1837    6.6702  -16.7356 C   0  0  0  0  0  0  0  0  0  0  0  0
    7.0618    0.4206  -16.9348 C   0  0  0  0  0  0  0  0  0  0  0  0
    5.5678    9.3365  -23.1732 C   0  0  0  0  0  0  0  0  0  0  0  0
    7.4227   10.2984  -21.7576 C   0  0  0  0  0  0  0  0  0  0  0  0
    5.0858   10.0421  -20.8086 C   0  0  0  0  0  0  0  0  0  0  0  0
    6.5119    7.9717  -21.3522 C   0  0  0  0  0  0  0  0  0  0  0  0
    4.3205    1.8395  -20.5901 C   0  0  0  0  0  0  0  0  0  0  0  0
    5.0807    4.4852  -17.8942 C   0  0  0  0  0  0  0  0  0  0  0  0
    5.0904    2.6089  -19.4977 C   0  0  1  0  0  0  0  0  0  0  0  0
    4.2379    3.7346  -18.9202 C   0  0  2  0  0  0  0  0  0  0  0  0
    6.1511    9.4162  -21.7487 C   0  0  0  0  0  0  0  0  0  0  0  0
    5.4765    1.6900  -18.4087 N   0  0  0  0  0  0  0  0  0  0  0  0
    4.3550    5.6831  -17.4618 N   0  0  0  0  0  0  0  0  0  0  0  0
    7.7292    2.0484  -18.5415 O   0  0  0  0  0  0  0  0  0  0  0  0
    3.8493    4.6210  -19.9713 O   0  0  0  0  0  0  0  0  0  0  0  0
    8.4394   -0.1963  -22.3511 F   0  0  0  0  0  0  0  0  0  0  0  0
    4.8793   -3.0301  -20.8704 F   0  0  0  0  0  0  0  0  0  0  0  0
    9.7175    7.4820  -17.9834 H   0  0  0  0  0  0  0  0  0  0  0  0
    7.9985    6.6799  -16.3770 H   0  0  0  0  0  0  0  0  0  0  0  0
    9.0414    8.1811  -20.2749 H   0  0  0  0  0  0  0  0  0  0  0  0
    4.9125    7.6561  -19.2186 H   0  0  0  0  0  0  0  0  0  0  0  0
    6.7926    1.7744  -21.7682 H   0  0  0  0  0  0  0  0  0  0  0  0
    3.6137   -0.7828  -20.3641 H   0  0  0  0  0  0  0  0  0  0  0  0
    7.2718   -2.5074  -21.8518 H   0  0  0  0  0  0  0  0  0  0  0  0
    5.6827    8.9670  -13.5186 H   0  0  0  0  0  0  0  0  0  0  0  0
    4.3092    7.8235  -13.6991 H   0  0  0  0  0  0  0  0  0  0  0  0
    4.1224    9.6883  -15.3214 H   0  0  0  0  0  0  0  0  0  0  0  0
    5.7471    9.2934  -15.9780 H   0  0  0  0  0  0  0  0  0  0  0  0
    7.1602    7.4684  -14.7598 H   0  0  0  0  0  0  0  0  0  0  0  0
    6.3810    6.5569  -13.4223 H   0  0  0  0  0  0  0  0  0  0  0  0
    3.3029    7.4456  -15.9730 H   0  0  0  0  0  0  0  0  0  0  0  0
    3.9516    8.3347  -17.3926 H   0  0  0  0  0  0  0  0  0  0  0  0
    6.4796    5.3128  -15.6354 H   0  0  0  0  0  0  0  0  0  0  0  0
    4.8308    5.4873  -14.9444 H   0  0  0  0  0  0  0  0  0  0  0  0
    8.1387    0.3983  -16.7119 H   0  0  0  0  0  0  0  0  0  0  0  0
    6.5070    0.7186  -16.0329 H   0  0  0  0  0  0  0  0  0  0  0  0
    6.7327   -0.5793  -17.2541 H   0  0  0  0  0  0  0  0  0  0  0  0
    4.6642    8.7093  -23.1654 H   0  0  0  0  0  0  0  0  0  0  0  0
    5.3091   10.3477  -23.5204 H   0  0  0  0  0  0  0  0  0  0  0  0
    6.3140    8.8959  -23.8507 H   0  0  0  0  0  0  0  0  0  0  0  0
    7.8379   10.3543  -20.7405 H   0  0  0  0  0  0  0  0  0  0  0  0
    8.1695    9.8581  -22.4346 H   0  0  0  0  0  0  0  0  0  0  0  0
    7.1646   11.3099  -22.1043 H   0  0  0  0  0  0  0  0  0  0  0  0
    5.4892   10.1051  -19.7871 H   0  0  0  0  0  0  0  0  0  0  0  0
    4.8303   11.0510  -21.1646 H   0  0  0  0  0  0  0  0  0  0  0  0
    4.1829    9.4138  -20.8080 H   0  0  0  0  0  0  0  0  0  0  0  0
    7.3373    7.6300  -21.9941 H   0  0  0  0  0  0  0  0  0  0  0  0
    5.6307    7.3344  -21.5176 H   0  0  0  0  0  0  0  0  0  0  0  0
    4.1616    2.4973  -21.4574 H   0  0  0  0  0  0  0  0  0  0  0  0
    3.3473    1.5159  -20.1923 H   0  0  0  0  0  0  0  0  0  0  0  0
    5.2697    3.8358  -17.0267 H   0  0  0  0  0  0  0  0  0  0  0  0
    6.0387    4.7787  -18.3482 H   0  0  0  0  0  0  0  0  0  0  0  0
    5.9950    3.0444  -19.9472 H   0  0  0  0  0  0  0  0  0  0  0  0
    3.3543    3.3063  -18.4244 H   0  0  0  0  0  0  0  0  0  0  0  0
    4.7486    1.2319  -17.8984 H   0  0  0  0  0  0  0  0  0  0  0  0
    3.6097    5.3970  -16.8596 H   0  0  0  0  0  0  0  0  0  0  0  0
    3.9760    6.1290  -18.2727 H   0  0  0  0  0  0  0  0  0  0  0  0
    3.3250    4.1484  -20.6071 H   0  0  0  0  0  0  0  0  0  0  0  0
  1  2  2  0
  1  3  1  0
  2  8  1  0
  3  9  2  0
  4  8  2  0
  4  9  1  0
  5 10  2  0
  5 11  1  0
  6 10  1  0
  6 12  2  0
  7 11  2  0
  7 12  1  0
  8 19  1  0
  9 24  1  0
 10 25  1  0
 11 34  1  0
 12 35  1  0
 13 20  1  0
 13 30  1  0
 13 32  2  0
 14 15  1  0
 14 16  1  0
 15 17  1  0
 16 18  1  0
 17 19  1  0
 18 19  1  0
 19 31  1  0
 21 29  1  0
 22 29  1  0
 23 29  1  0
 24 29  1  0
 25 27  1  0
 26 28  1  0
 26 31  1  0
 27 28  1  0
 27 30  1  0
 28 33  1  0
  1 36  1  0
  2 37  1  0
  3 38  1  0
  4 39  1  0
  5 40  1  0
  6 41  1  0
  7 42  1  0
 14 43  1  0
 14 44  1  0
 15 45  1  0
 15 46  1  0
 16 47  1  0
 16 48  1  0
 17 49  1  0
 17 50  1  0
 18 51  1  0
 18 52  1  0
 20 53  1  0
 20 54  1  0
 20 55  1  0
 21 56  1  0
 21 57  1  0
 21 58  1  0
 22 59  1  0
 22 60  1  0
 22 61  1  0
 23 62  1  0
 23 63  1  0
 23 64  1  0
 24 65  1  0
 24 66  1  0
 25 67  1  0
 25 68  1  0
 26 69  1  0
 26 70  1  0
 27 71  1  6
 28 72  1  1
 30 73  1  0
 31 74  1  0
 31 75  1  0
 33 76  1  0
M  CHG  1  31   1
M  END
>  <OMEGA_C>  (8) 
WtAKQegB70BqJZLBHFH2QDfd4UD3vYrB370EQXKR+0CWfZzBl5q+QMWy8UCQsZfBxgHNQHsZST8G
jqzBLEKTQGyRKb/CQ6bBhorVQAac0b8DAK3BmSDKQCBo5ECEW43BIPLdQBW1+kDuWZ/BgrKjQO3p
ID9jJKjBwQvmQBnNsb434K7BwQysQDuX5b//wajBMmXZQKFbtj98aZDBnA6nQA5wA0E0zGLBQ/ua
QKkODkHhIHjBiLfGQBjq4UA3K2bBtNaGQGsE+0BGjIPBsI+1QBDKwEADdHbBPeGlQKNy1UBv4oXB
M/rhQP5c1z53eofBbyuyQGliFUGlYrnBkYbtQCPGJEGCD67BOb+iQHWsIEH/d6bBe2HQQJEY/0Bd
0arBX0GKQIR16z+auKTB0pSiQPyGj0BdJ4/ByuSiQBX4JkBW+5vBzpyHQJ8Db0ChXJfBv9XEQJKo
FkFc/a3BWj+vQGxQ2D/uRJPBZlyLQKzbtUDFsYvB6lX3QDoZA0DwVJTBlFt2QB/fk0A8xZ/BqgcH
QeIHSb4nz7LBGCOcQKLsQcCs9qbBEnsbQVxs70AP3o/B9vP/QBLC1UAwBIPBu6kQQa/lAkHmMqLB
zjKdQNz+9EDEv5nBulzZQI4e4z9QJa7BD0dnQC1nSL+/6aLBUrLoQK55IMBv0K7Bjti1QNB4D0EU
TFjBKuWJQMZZ+kCYL1vB7eqDQHADG0GbJHXBbOi3QJSxFEG5pX/BWiDlQNP87kAAKGzBAzHMQGTS
0UDJwVbB+mFTQFxC7kBIkX/Bk+Z8QCJbBUH4I4vBQVnPQKACqkC5KnrB/JWaQA+Yr0ApHG/BUTgC
QRnryz4QsoXBIjnQQKv3Nz9tQ4DBfnLXQEdKFL9XCIrBHkGVQDNZC0G+UrnBBOSpQEiQJUGyKbzB
agzKQM9VDkE+zr7Bu8/6QFSrJUF87KXBXbYCQeC6HUEderPBVETlQFn1NEGR1bDBTKevQIeuIUES
TJ7Bi5GaQP3QMEErUanBl9qFQPaeFkHddqbB7srqQJMo9EDR86/BzS60QMCz6kAQJKzBMyyFQBjU
H0CtqKvB8DpWQD4Kwj/BiaHBR6GoQOV9dUDCNojBxTzBQB7rmEAiyZLBL9e/QIXXQkDok5/B8KxW
QC2aU0A3ZZPBSPSXQNeunT//L4/BAAVnQNyzrECM4IbBq3Z+QH0gxEBtLpLBW8xUQLS/hEBK26TB
aWgLQZyc3EDxZpLBbmf0QFA30EAC4YvBxqcIQQ32/EAJA5rBcjvGQI+tAUEX7ZTBFWnJQEKrNz+s
vqzBV4eTQGkGP78GxKTBXITTQPKM2b/+7azBeY/LQFbD40AV9IzBOVvpQBiXCEHkDpvBIx2iQHkP
DD9rWqfBEjHiQGWBz77ceK/BOwmsQIE677/vpKfBmTjbQBIZwj9cBpDBvdOrQP+mA0FHVWPBgSmc
QH0VDkGTPnjBhsTIQIlW4EBrqWfB5B2GQNnD+kB7R4PBEE2yQBn+v0CGknbBH9ikQLI/1UCVFYbB
D4vlQI/d7z4UiIfBdNScQMNDJ0FYZ6jBhi6+QJ4pBUH7ea/Bml7dQG7aKEGFarTBWZXmQHbQHEHV
mKHBpaCIQFcs4D+y6KPBUsOiQMOykEDmvY/BdZqiQGjvJECozJvB2GCHQCn8bUATa5fBrY/HQNsf
HEGzU6vBGauwQLwm2z8J45LBETSLQHz8tkBnZYzBeoT4QFFSBECs15TBcpVzQOfRkUDTBKDBh/QD
QQj2db7gmLTBUZGdQHkHR8AsWqXBOcUaQXQqzUA5i5HBFwn5QL94t0Ca9YXBH9kVQXYwA0EpEp/B
0PimQP1+CEHSUpbBgm/UQC3E2j8Pxq7BeShrQBr2X782lKDBaIjmQHz8I8A8CK/BcgK+QBSOD0EH
F1rBpuGPQCnQ/EBxAVrBqESFQKHjGkFLZ3TBjLG3QAbnFEGyaoDBEZLmQEtE60B9RG/BYkrQQHON
0EAZY1jBRCNUQJTn7UCiFn7BcGh3QCMqBUEJu4rB01nIQKpjpUA67nnB8Y2VQHWfs0Dqg27B5jgE
Qfassj5K54bBHZ7YQOAUSz8Win/BUP/WQLEO/L5MzInBLV+jQPSGN0GAdqXBSFKIQNMkKEHSiq/B
lXOMQB0HHkGWIaLBmnbcQIJt+kDrjrHBjsetQF/m90DvMqnBQaapQOUQBkErnLbBTcb7QDgZIUEs
kbbBgDbIQNw5KUFecrvBl6PjQDRNOUGmtLHBUP/bQJLHKUFLRJzBEmkDQQFtIEFpoqTBIl6BQGPY
F0DY8KrB7yVVQFbJtT/QK6DBE1yqQLcuekA5r4jBXpzAQH1AmkCmv5PBgby+QE7rP0CQ35/BhVtX
QHF2U0AiHpPBDi+aQBlonj9ApY7BrWBkQPrBrUDw+IfB/b2AQKIPxkBF85LBf0JRQMG5gUDi1KTB
j70KQVUv5kDDmJHBLST0QGdY1kAIKYvBinwGQf/MAkERUJnBXz/BQM2YAUHPtJTB0k3GQPlKUT/e
a63BqiqVQHjjP78Z06TBbSbUQHEKyr/ZQ67BeI7JQFBs5UDYe4zBHffiQPlyCkEWoprBKPigQIWw
Ej+lY6fBcPrfQDg6g77MyrDBrKuuQAOM6b89UKjBYTPcQJLKxz98P5DBmwuqQMySAkH4l2HBiJya
QOBlDUFrUHbBH7LHQNng3kCMQ2bBGr+EQJO1+UA9a4LBio+yQLbcvkC84HXBAASkQM0B1UA+iYXB
NKLnQGT4Bj+zu4fBO0HOQOhjK0E6DbTBYLSYQJOcEUEESqzBmazhQBGHBEE+DLLB0sXaQMVeHUHC
zqHBWcGGQMHL3T8kU6PBM8SiQLVWkUDQj4/BMeChQD3MJUB1p5vBATSHQDuZb0ABQpfB9tHIQD5j
F0Hk8azBxUexQC004D9gvZLBcrSKQJ3wtkBG+ovBQMn4QNbrBUAtdZXBXPFzQJrEkkAd3p/BRAQC
QegJh7zwcLbBMWqjQKz0RcAR3aXBYNAaQbEl2kBLmJDBSff6QA16vkA5JoXBdEcTQWkBCUEhOZ7B
jq2gQC41BkHdcpbBYyjPQAFG6j8Lc6/BHDxxQIH1b79oMaDBVtDnQDLXGcDQ47DBIZ+7QJdeDkEi
7lfBcQqOQPO9+UBulVjBvKyDQAIjGkG0UXLBZzK2QMRaFEFwv37BZJblQJfF6kASaG3BmefOQIVV
zkAnJ1fB4VVSQPf460CkU3zBeEtzQP/fBEGAvonBNcDJQG+LpUCPwnnBk2yWQDqcsEBDEG7B20gF
Qf4wyz5Nd4fBvizcQFVeXz/bxH/BZmPYQI6v3b6jtYnBDF/wQFeaL0Eoj7TBtufBQHkBKEHdHbzB
AVq8QEfTOEEPjLDBDo2UQG1bA0GoO6fB3OiGQFIZH0HgzKjBknaMQIRHDkGvXrTBgADeQKhZ7EC4
Ca3BXOTUQKBPAUF9FrrBheQBQU20CEH1pLLBs5jDQAvzJ0FR0p3BVSX5QJT3JUFD86LBjaR4QLBh
FkCkIKrBhBNVQIfXrD+KC5/BjhmrQHG3ekBzn4jBizbAQJqpm0BaopPB/VO9QCj+P0BMFaDBVZ5W
QEfNVUCC95LBJHKbQBI1pT9BM47B9dtjQE3xrEAAk4fBe79/QGRtxkD0bpLBrm1RQLLXgkC2saTB
yCgJQRLs6kCsrpLBfh3zQA/o2ECL9ovBNxQDQYpDBEFQiJrB6z+7QIWP/UDP+ZXBMSPMQLXNVD/I
/azBl0yTQIMuHb8TKabB3kvVQCh+y78YDa3BTEDHQB7L40C+P43BvYbaQHoUCUGqEJzBmDKjQF6u
LD8QY6jBXUjlQE7Umb5HPa/B9jmsQNRf37/EjajBSZ7aQKpMxT/ChpDB3CiuQOmjBEF4hWPBtjic
QM0bDkFaYnjBeKTLQIqo4kAVw2fBUQmFQHUm+UBljoLBeIu1QE+IwEDE93XBVQOkQCsP1EATl4XB
PEHkQBSy7z4WMYjBXAikQBNDB0HfkrHBi1b0QMb7CUGQKrPBOz/HQE3lKkHWO7XBUm3NQE9EG0F/
OKPBgviJQFBw8T8q+6TBjFSiQLrVj0AQUo/BdgejQA+sKUDJT5zB2mWHQAMacEA/fpfBCGnLQF17
FUGfNK/BnGewQOAf3T+DtpPBKeWJQAVytECtT4vBGEb4QBH+B0CN8pTB3yB0QEDSlEDhuJ/BDnQG
QZzDF76MZ7PBN+OcQEezPsASZ6bBkcIZQU3/4UBDzZHB2oH8QB2nwkCfyIXBsxcPQej4C0HtZp/B
vNaZQB+0AEEL95fBWSHYQOTV6D/zyK7B0QFoQFmIO7+pnqLB9oboQEdnHcBJ0q7BGIzAQNYTEUE6
H1vBAU6TQETd/kCzZ1nB94+FQHIFG0EPjnTBFqq2QCeTFEGBBIHB0sPoQJ/n7UCS5G/BGlPUQCn4
00A8XljBwpdVQEs57EBwUnvBibxvQEqYA0GH7InB9uvMQHVqp0BT5XnB0b+aQJZsskDn/mzB54wD
QfwOuj5sRYfBLwrWQOAGQj9xe4DBuY/WQIpP+76qz4rBMN2GQNFdD0Hmxa7BYLmhQI5tBEFcPbrB
iICnQOy970D5ZK3BCDkIQTMKFEGwf7HBMLb3QKYt9UAu/K7BCO/xQGslB0GQ1LvBLFHjQFLzNEFl
hrPBX2DFQCbRJ0Gr4r3BvBCqQAA0M0FImLLB9YatQHbCIEEVtqDBMKfkQLdVKEGENKLBkMuEQLK2
IkCt7KvBAb5VQHO0yD9CvaHBFUCqQE2cdEBipYjB7ATAQKspm0ApG5PBh3m/QPnMRkA9AKDB3xpX
QGhEU0CcfpPBcK6ZQJMPmj8084/BxcNmQMGVqUDqUIbBau93QKb3wkAniJHBZnNSQEDRhUBw0aTB
w2gLQcJf70B6V5HBQdz2QD/84EDdQ4rBVtIFQWx4/UDloJvBW2HAQHY38kAAa5fBLrTMQD/DSD/N
i6zBtz+TQM5DKb/pDabBTpTVQHeg0b9RwKzB5erKQLH+40BsGI3BK3ngQBhb/EDMzJ7BU3KjQAbs
ID+SHKjB4tjlQJgxsr69yK7BMDisQKN/5b9WbKjBZl3ZQClcwD+WE5DBDOKmQCh2A0Hm3mLB4TOb
QOfsDUHOVHjByeXFQPhD4UDI5GXBZf6GQN6h+kCZmYPBT7W0QFQ0wEAaPHbBNfmlQK321EBv14XB
UF3iQJTZ1T4uzYfB6j3rQFGfJUEBTK7BshyhQKsJH0GSw6bBGAmzQOznEkHuY7nBX4rUQOE+/0B5
aarB8QKKQFXa6z/4x6TBPLqiQDeHj0DmQ4/Bx8WiQOViJ0D0FpzBnH6HQIsNb0CLaZfBpw/FQH/k
FUEtAa7BAF+vQL972T/aYpPBy5mLQDrKtUCxy4vB01/3QLCmBEAIdpTBRz51QNfek0Dfx5/BTd0G
QZu8SL6Oy7LBs6GcQLLSQcBVa6bBO/UbQUqQ70Dx2o7BHs//QNGN00AGoILB6fYRQVyGBEElDaHB
hC2fQKBc9UDirpnB6PHYQDPc4j/mN67B8mJnQAfDR7+HqaLB8M/oQHx9IMCngq7BZBG2QKmBD0Fl
hljBx3iJQK8k+0CfM1vBS0uEQMf9GkHyh3XBD0+4QD5jFEER1H/BlMDkQHyt7UDFqGvByInKQD5C
0UAvZFbBmY5TQLAP7kCkqH/BYm59QLgQBUGqOYvB2UDOQM0CqUD+t3nBrUSZQK55r0D0DW/BSpIC
QZq/lT5x4obB/k7UQMZ+NT/QE4DBTB/UQLX9B78ZeYrBFVECQcsSH0Hob7PBHIngQOEaNUGBg7HB
Obf3QDziJ0FiJabBzgiGQF3ME0HAlKbB4X+tQJxKIUG0mp7BxFGWQEGDLkHT+KnB9uOXQBW2B0Ek
J7nBlS6oQNFwIkEag7zBKS7MQEVwDEGZob7Bjs3wQOi19kBANK/BP766QEIc6ECJ9avBXPmEQCSm
H0CkwavBxLJVQAMMwz+slKHBhPeoQJmRdUAyVIjBZEjBQIjlmEAU9JLBkZa/QKh3Q0DauZ/Bsd5W
QMtcU0CPYZPBYEqYQGgdmD+DpI/BNu1mQMeYrECrEofBj75/QKhdxEA1SZLBdllTQNS1hEA706TB
tHHWQOxBB0GgJJ/Bev63QHprAEFIjJfBYQYBQbWNAkFglJ3BS5vwQES24ECC7IzBUvrHQNoiRT9f
E63BpL6TQCrGPL8M8qTBGxrSQMhL0r/RLq7BXwnFQGb06UDVQo7B9YcHQaDG7kBDSZTB5NehQBT3
ET/QQafBECngQIPVq77CfLDBhtKrQIvp6792cajBXzLbQGKRvD+FwY/BJR2uQAnoAUEc2WHBqLed
QOW8DUGv1XXBDDHMQNQU30CtBGjBF/2FQC5h/EBIbYLBhau2QNqmwEBfOHjBKOujQCIR2EBWR4bB
Gy/kQDxQ1T60OofBEek9QcoLAUG+nofBTr8iQfkDG0EUvo7BuQs7QcrSBkGLhZvBR6ceQW5+40B0
AJLB16CIQOvv4D8bV6PB5wCjQN6VkkBtk4/BCYGjQN0UJkAOdpvBzceIQDZpcUANcJfBzCUuQY1D
BUGI/ZDBkdewQDck4D+zW5LBrkaKQCCLuEDkOIzB4wf5QEzv+D9o5ZTBQAZ7QKJzk0BxP6DBNm4C
QWyUEL7D/LXBe16eQN43RsCyOKbBT1fMQO0REEH5IabB74GWQHvlA0FfypjBBrsMQbdxB0ErcqPB
P8r6QFlZzkC4D4bBI5fSQKfR4j+U6K7BIwptQAfiY7+jf6DBfqzkQHp/H8Ab0bDBrIS/QPpEDUH7
mlfBKaSSQIi69kAxAFnBsKyHQNiHGkEc33DBcA25QLzEFEHbaH7BG2HpQB937ECoOm/BWarUQP/u
zECLi1nBGIFVQKBE7kCnOHzB82F0QDEYB0HIa4nBB5nOQA0vqUCHmX3B01ScQOPsr0CNEnDBmGED
QaYyXD7b5YbBsDvZQFKTSD+6y37BdAXTQJeSAr9AP4nBpEBGQeiO40CS84jB1q9JQcAZDkEyN4fB
GPU0QYFGAEG2DYDBcGwXQV2DHkGPP5XB0gYaQe0FGkFlHYfBkMEuQS3ZJ0HhRo7BFw0wQQHQCUGS
OqLByJpGQVcLFEE18JrBbalDQZJx70BN45zBoy8fQeCM0UCIb4rByXQkQYsIz0BgjJjBWTp/QEmR
GECVNqrBmBxXQGmksz8SRJ/B2W+qQLyqfUBwiIjBTvbAQMninEBpaZPBCeW/QL63PkBrp5/B8OJX
QLbvWECnbJPBa++ZQCpBrT8PxI3BFl5kQCDfrkCJi4fBkeh8QC23xkD4wZLBhQ1aQIOFg0A2PaXB
pYHYQB3gCEETtZ7BeX+5QNLVAEEIipfBgB8CQbUNBUF8xZzBw1DxQMv+3kCuNY3BGajHQC5TRz8d
zKzBcwKUQBxMQL+ZsqTBhYjSQIqO0L92B67BwvDFQDRH6UB6bo7B2DoIQd2y8EBk75PBYLahQDLE
Dz8R8abBbiTgQOzOob5ASLDBvVKsQP9H7L/0S6jBFNXbQDPHvD/2zY/Bw16sQFrbAEG+ZWHBiXqe
QKQ9DUGzfnXBFKjJQKQt3EABQmfB3tuGQDOP/EA/kILBl8K1QNdNv0C3g3jBqlWkQNTZ10CkcIbB
g3nlQNDW3T5WM4fBwbw9QUl1/EAZXITBhqYYQbpZA0Gm8XrBjr0mQd4UHEGcs4vBNHIfQblx6kAB
4pDBzyCIQOUl3j9R+qLBKXaiQKJ+kkAblo/BliKjQPfFJUB5RZvBsS2IQKPkcEAMVZfBRcQmQfuk
BEGzqYfB2ESxQCrV4T9DH5LBpFyKQC0RuUDLdYzB8yz5QP5X9T+kR5XBdHp5QB7kkkB4L6DBU0cC
QfZR17043LXBAQKfQJbBRsDdPKbBaLfOQF7sEUFDpqXBeQCYQLL3A0GS+pjBJCAOQX3HC0G0/6HB
FeD6QF8NyUAp+obBT+HRQE6G5D/Fma7BHNRtQGuRar/XOaDBJWXlQBofHsBdsrDBA6y9QEfCC0G8
n1bBHMOPQJFS9UDjOVnB4wCJQARfGkFizHDBNfW6QB7dE0G9cH3BNyzoQFXr6EDVSW3BmJHPQFbw
yECk0VjBIstVQD+27kAz+3zBk094QD2cB0FZh4nBElLOQI5zqEDa133Bx+yaQJzCrUDcP3HBAvsD
Qa0YWj7MJofBL+LbQC8XUz+1qn7ByYPTQHbp+b7N6ojBqU5IQfjg/UAWY4vB8ZxDQdtVCUEzZXzB
P6E9QT2y20BiJIHBSRsIQQXQB0Fq9n7BrO0YQRrV5UC8pnTBXekeQUpnDkErw27Br2gWQSyoIEFw
DY7BPlcsQX24JkFmRoXBdHUxQcCCHUEUpZLBr60hQVczyUDHNo7BUHMpQUh18EAO95fBUo58QPaM
FkDZ1anByxpXQK5Frz+hwZ7BhGWpQIxnfkDTbojB263AQEgAnEBkbJPBwy+/QFOKPkDGl5/BtudW
QEZoWEA5RZPBmMmaQHLTsT+pSI3B2y5jQLUrsEDq6IfBTRF/QGRfx0CeFZPBDU9YQNDKgkBCH6XB

>  <OMEGA_E>  (8) 
MKQLPjAxHj6Q1Cw+SAlDPiCICj5od84+jDnSPg==

>  <OMEGA_NBR>  (8) 
     42123

$$$$
50167949
     RDKit          3D

 73 75  0  0  1  0  0  0  0  0999 V2000
    5.7170    8.1772  -18.8811 C   0  0  0  0  0  0  0  0  0  0  0  0
    7.6288    7.4814  -17.5458 C   0  0  0  0  0  0  0  0  0  0  0  0
    4.3135   -0.9229  -20.9689 C   0  0  0  0  0  0  0  0  0  0  0  0
    6.3253    0.4350  -21.2039 C   0  0  0  0  0  0  0  0  0  0  0  0
    7.9666    8.8596  -19.5261 C   0  0  0  0  0  0  0  0  0  0  0  0
    6.3613   -1.9021  -21.8770 C   0  0  0  0  0  0  0  0  0  0  0  0
    6.2271    7.5005  -17.7430 C   0  0  0  0  0  0  0  0  0  0  0  0
    6.5740    8.8555  -19.7862 C   0  0  0  0  0  0  0  0  0  0  0  0
    4.9846    0.3046  -20.7702 C   0  0  0  0  0  0  0  0  0  0  0  0
    4.9974   -2.0184  -21.5380 C   0  0  0  0  0  0  0  0  0  0  0  0
    7.0268   -0.6748  -21.6986 C   0  0  0  0  0  0  0  0  0  0  0  0
    8.4840    8.1771  -18.4136 C   0  0  0  0  0  0  0  0  0  0  0  0
    6.4186    0.8728  -17.6906 C   0  0  0  0  0  0  0  0  0  0  0  0
    5.4270    7.9313  -13.9892 C   0  0  0  0  0  0  0  0  0  0  0  0
    4.8144    8.7199  -15.1617 C   0  0  0  0  0  0  0  0  0  0  0  0
    6.4959    6.9460  -14.4873 C   0  0  0  0  0  0  0  0  0  0  0  0
    4.1989    7.7597  -16.2017 C   0  0  0  0  0  0  0  0  0  0  0  0
    5.9394    6.0067  -15.5926 C   0  0  0  0  0  0  0  0  0  0  0  0
    5.2486    6.7629  -16.7884 C   0  0  0  0  0  0  0  0  0  0  0  0
    6.5289    0.2551  -16.2968 C   0  0  0  0  0  0  0  0  0  0  0  0
    4.9735   10.6572  -20.5645 C   0  0  0  0  0  0  0  0  0  0  0  0
    5.2394    8.5243  -21.9121 C   0  0  0  0  0  0  0  0  0  0  0  0
    7.0539   10.2592  -21.9120 C   0  0  0  0  0  0  0  0  0  0  0  0
    4.2287    1.5017  -20.2102 C   0  0  0  0  0  0  0  0  0  0  0  0
    5.2822    4.6404  -18.1240 C   0  0  0  0  0  0  0  0  0  0  0  0
    5.0980    2.3900  -19.2622 C   0  0  1  0  0  0  0  0  0  0  0  0
    4.3938    3.7414  -18.9969 C   0  0  2  0  0  0  0  0  0  0  0  0
    5.9768    9.5654  -21.0257 C   0  0  0  0  0  0  0  0  0  0  0  0
    5.3247    1.6928  -17.9752 N   0  0  0  0  0  0  0  0  0  0  0  0
    4.4804    5.7748  -17.6032 N   0  0  0  0  0  0  0  0  0  0  0  0
    7.3467    0.7298  -18.4785 O   0  0  0  0  0  0  0  0  0  0  0  0
    4.1449    4.4258  -20.2289 O   0  0  0  0  0  0  0  0  0  0  0  0
    4.3462   -3.1834  -21.7580 F   0  0  0  0  0  0  0  0  0  0  0  0
    8.3370   -0.5516  -22.0120 F   0  0  0  0  0  0  0  0  0  0  0  0
   10.6240    8.1898  -18.0314 I   0  0  0  0  0  0  0  0  0  0  0  0
    4.6523    8.1761  -19.0626 H   0  0  0  0  0  0  0  0  0  0  0  0
    8.0443    6.9254  -16.7183 H   0  0  0  0  0  0  0  0  0  0  0  0
    3.2763   -1.0229  -20.6851 H   0  0  0  0  0  0  0  0  0  0  0  0
    6.8129    1.3973  -21.1535 H   0  0  0  0  0  0  0  0  0  0  0  0
    8.6344    9.3912  -20.1878 H   0  0  0  0  0  0  0  0  0  0  0  0
    6.8946   -2.7537  -22.2730 H   0  0  0  0  0  0  0  0  0  0  0  0
    5.8894    8.6372  -13.2835 H   0  0  0  0  0  0  0  0  0  0  0  0
    4.6309    7.3703  -13.4780 H   0  0  0  0  0  0  0  0  0  0  0  0
    4.0291    9.3872  -14.7770 H   0  0  0  0  0  0  0  0  0  0  0  0
    5.6008    9.3189  -15.6441 H   0  0  0  0  0  0  0  0  0  0  0  0
    7.3431    7.5158  -14.8967 H   0  0  0  0  0  0  0  0  0  0  0  0
    6.8402    6.3349  -13.6399 H   0  0  0  0  0  0  0  0  0  0  0  0
    3.3963    7.1832  -15.7184 H   0  0  0  0  0  0  0  0  0  0  0  0
    3.7779    8.3545  -17.0257 H   0  0  0  0  0  0  0  0  0  0  0  0
    6.7740    5.4134  -15.9945 H   0  0  0  0  0  0  0  0  0  0  0  0
    5.1989    5.3345  -15.1345 H   0  0  0  0  0  0  0  0  0  0  0  0
    7.4941   -0.2635  -16.2002 H   0  0  0  0  0  0  0  0  0  0  0  0
    6.4616    1.0486  -15.5379 H   0  0  0  0  0  0  0  0  0  0  0  0
    5.7099   -0.4642  -16.1488 H   0  0  0  0  0  0  0  0  0  0  0  0
    4.5492   11.1616  -21.4451 H   0  0  0  0  0  0  0  0  0  0  0  0
    4.1641   10.1897  -19.9845 H   0  0  0  0  0  0  0  0  0  0  0  0
    5.4963   11.3937  -19.9367 H   0  0  0  0  0  0  0  0  0  0  0  0
    4.8146    9.0275  -22.7932 H   0  0  0  0  0  0  0  0  0  0  0  0
    5.9508    7.7516  -22.2388 H   0  0  0  0  0  0  0  0  0  0  0  0
    4.4305    8.0562  -21.3318 H   0  0  0  0  0  0  0  0  0  0  0  0
    6.5664   10.7425  -22.7716 H   0  0  0  0  0  0  0  0  0  0  0  0
    7.5847   11.0175  -21.3177 H   0  0  0  0  0  0  0  0  0  0  0  0
    7.7715    9.5076  -22.2726 H   0  0  0  0  0  0  0  0  0  0  0  0
    3.8833    2.1214  -21.0508 H   0  0  0  0  0  0  0  0  0  0  0  0
    3.3599    1.1333  -19.6449 H   0  0  0  0  0  0  0  0  0  0  0  0
    5.6798    4.0554  -17.2815 H   0  0  0  0  0  0  0  0  0  0  0  0
    6.1164    5.0278  -18.7274 H   0  0  0  0  0  0  0  0  0  0  0  0
    6.0634    2.5843  -19.7523 H   0  0  0  0  0  0  0  0  0  0  0  0
    3.4490    3.5507  -18.4669 H   0  0  0  0  0  0  0  0  0  0  0  0
    4.6424    1.8190  -17.2552 H   0  0  0  0  0  0  0  0  0  0  0  0
    3.7489    5.4024  -17.0320 H   0  0  0  0  0  0  0  0  0  0  0  0
    4.0815    6.2576  -18.3828 H   0  0  0  0  0  0  0  0  0  0  0  0
    3.5957    3.8866  -20.7859 H   0  0  0  0  0  0  0  0  0  0  0  0
  1  7  2  0
  1  8  1  0
  2  7  1  0
  2 12  2  0
  3  9  2  0
  3 10  1  0
  4  9  1  0
  4 11  2  0
  5  8  2  0
  5 12  1  0
  6 10  2  0
  6 11  1  0
  7 19  1  0
  8 28  1  0
  9 24  1  0
 10 33  1  0
 11 34  1  0
 12 35  1  0
 13 20  1  0
 13 29  1  0
 13 31  2  0
 14 15  1  0
 14 16  1  0
 15 17  1  0
 16 18  1  0
 17 19  1  0
 18 19  1  0
 19 30  1  0
 21 28  1  0
 22 28  1  0
 23 28  1  0
 24 26  1  0
 25 27  1  0
 25 30  1  0
 26 27  1  0
 26 29  1  0
 27 32  1  0
  1 36  1  0
  2 37  1  0
  3 38  1  0
  4 39  1  0
  5 40  1  0
  6 41  1  0
 14 42  1  0
 14 43  1  0
 15 44  1  0
 15 45  1  0
 16 46  1  0
 16 47  1  0
 17 48  1  0
 17 49  1  0
 18 50  1  0
 18 51  1  0
 20 52  1  0
 20 53  1  0
 20 54  1  0
 21 55  1  0
 21 56  1  0
 21 57  1  0
 22 58  1  0
 22 59  1  0
 22 60  1  0
 23 61  1  0
 23 62  1  0
 23 63  1  0
 24 64  1  0
 24 65  1  0
 25 66  1  0
 25 67  1  0
 26 68  1  6
 27 69  1  1
 29 70  1  0
 30 71  1  0
 30 72  1  0
 32 73  1  0
M  CHG  1  30   1
M  END
>  <OMEGA_C>  (9) 
ffG2QPbVAkGADJfBJB/0QKxn70C3XYzBKQiKQIlCbL9VwKfBzWjKQES23j6GoanBPu7+QAHBDUGJ
NZzBApDLQJx2878eBK/BOETHQPQD8EDB8Y3B113SQASwDUEtSp7BcIGfQDbzmz5QKabB2OqfQC8t
AcDPTazBOdvgQO29LL/Llq3BqL4HQVTVAkEbT5PBFWXNQD5wXz9yho3BWKqtQIjN/UC901/BiA+a
QKaEC0FPlnLBYN7PQOJF3kDey2fBCF2GQDRP+EAVnYHB7A++QIA2wEAne3nBqPSnQGVp2ECxTobB
eOzQQMqegj6/X4LBwyafQNWDKkEMhKTB76inQIRjCEH6S6/Bb7nhQNslJEHOS6/Ba1GHQII2wD96
rqHBGQipQMx9lED4/ZDBkyKjQG32GED+GJrBMpqMQG9zb0CR+ZfB2UG/QPoLGUGhNKjBRWSqQIau
2D9FzY/BJV+PQDbLuEBY04zBVhjrQPjVOj/705PBo6KEQH+gjUDa1KHBcRSLQHK8S8B7EK7BdGQF
QZE3Db+CGLDB2vspQToJA0FYQJDB69+UQGHRAkElgJjBd7UAQdqc3UAsv4XBZ65RQNLsgr8Ee6XB
BwPaQC7csj92OqnBmSYKQT5CFkGvgKHBSaDcQP87MMAoL7LBwXW8QAIyCkE7iVTBKjCUQIrZ60C2
pVfBle6AQB8yFkGZbmzBgjmzQF0aFUFnTnrB2vrqQDWB8EC9WG7BJuPaQOO3ykAZPVrBVF1ZQKLc
5UB4fnvBAslxQBesBUGaNIjBZsTYQF86rUCf6X/BdF2mQBe0qkALJ3LBD9DvQHHjhr4ZmoHBFcXO
QEk3hj8Tm3jBxre2QJau7b6uMIHBIZORQN+VMkGmj6vBdkCFQAoJI0E34J/Bm+GvQMNMNkFGfp/B
1RCaQHRwEEGAWLbBSW2+QPcM+EAK6bHBBseNQEjmAEGZp6rB6h/SQELhK0EoLLbBo7XyQM1HMEGN
iqrBf7D4QBgfGEEvLrLBMod4QIrFB0D4Z6jBsghXQAwRkT/FKJ3B3sC1QAjGgUCIQIrBn7nDQNzj
oECj0ZXBbAfCQPxlJUCtBJ7B2rtcQCQ/Y0ApvJPBno6UQC3U6D+NCorBje1vQFXgrECcQYjBrpuC
QHY+yED+D5PBmR9mQMC+eEBySabBr7izQNllBEGYSpbBPL/yQOeZ8UAtb4zBxl20QGKe2z03Yq7B
zWGSQK5+Xb/ulp7BLHj6QNfNEEE7q5vBmr2/QPXUD8ByA6rBlbfFQMR08UB8qI3BFa3NQOZoEEFO
aJ3BIoKZQB44ej4HXaXBszTHQNzjkb8tv7DBOXClQKf2BsAD6qDBNVYGQWMTBUHTPJPBD87XQFU0
uj8zvI7BoIivQAlr90DopF7B7huaQAMfCUEKVHDBa/XRQI6+2UArCmjBbCmGQAT09EB5xYDBxc6/
QINYvUANVXrBLPqnQJMr10CSMIbBLNLdQA8xKD8RZoTBL1mYQMI9LUFKZqLBKQWhQNp/DEEIMq7B
acPZQFnsKEF5263BVEqFQL9Wyz9Xx6LB6eGpQImXlkBnKJLBknajQHDaHkDw+JvB3RqNQPaSdEAZ
NpnB3cK4QISfHEEm1KbBlV6uQBt24z8V7pHBOoyPQJh7uEBMCI3B/eL2QKrU2D/qapTB+BqDQOE6
kUD4x6LBGWbgQCcWo7+AfLnBV2KeQL3WSsCubJrBcrwoQdDFBUGPtJDBgX2RQJIhBEEQeZfBDaYA
QXCd3kDBMobBD3y6QGhVdT9RerPBoo18QPh2Qr/xnJfBBV8HQVovGkGE3KDBQi3OQKbuTMD006vB
JIG+QBuHBkH081LBDQuXQDLn40BBm1bBadeAQA8TE0FwLmnBe0WyQMt6E0Fq2HfBGTjsQIZl7UB1
bW7BOkLeQKfqxEDiQFvBTgBbQPTn4EAN+nnBiqtuQEGNBEFC9obBT4/aQO/Yq0Cu2YDBtRepQONn
pkBKUXPBpcb/QAJtyD6Bd4PBYIjTQPQioj/EFHvBBXjKQJaChb5dwYTBrH2JQOjqNUE5GKnBdtd+
QBLuJEHax53BbSupQDymOEGwLp3B2iSSQJwoFUG45LTBHf+3QHa8AEGPVbHBUxyIQEYuBEHjkqnB
quzIQF04MUGOYLTB/8zqQHa1NEF15qjBPuLwQNWGHUHgQbHBbuV7QFr8BkB4T6rBTwRPQD+OtT8n
Sp7BlwO5QMvSgkC974vB0svCQCqDpUCMIZfBCbXAQJUwLEDvk6DBGixfQC9FZkB0w5TB1k2WQBq4
wT/iGI3ByPxyQIA7qkCzdYjBUw2BQBkryUBE0ZLBkadiQPUagECUN6fB

>  <OMEGA_E>  (9) 
GMz/PjiLED8=

>  <OMEGA_NBR>  (9) 
     44754

$$$$
50167951
     RDKit          3D

 73 75  0  0  1  0  0  0  0  0999 V2000
    5.8299    7.8850  -18.9623 C   0  0  0  0  0  0  0  0  0  0  0  0
    7.6449    7.0613  -17.5688 C   0  0  0  0  0  0  0  0  0  0  0  0
    6.3860    0.8126  -21.5833 C   0  0  0  0  0  0  0  0  0  0  0  0
    4.5957   -0.6427  -20.7775 C   0  0  0  0  0  0  0  0  0  0  0  0
    8.1380    8.2666  -19.6279 C   0  0  0  0  0  0  0  0  0  0  0  0
    6.6695   -1.6080  -21.6241 C   0  0  0  0  0  0  0  0  0  0  0  0
    6.2551    7.2378  -17.7789 C   0  0  0  0  0  0  0  0  0  0  0  0
    6.7557    8.4446  -19.8735 C   0  0  0  0  0  0  0  0  0  0  0  0
    5.0991    0.6492  -21.0260 C   0  0  0  0  0  0  0  0  0  0  0  0
    7.1748   -0.3155  -21.8697 C   0  0  0  0  0  0  0  0  0  0  0  0
    5.3772   -1.7701  -21.0847 C   0  0  0  0  0  0  0  0  0  0  0  0
    8.5740    7.5773  -18.4863 C   0  0  0  0  0  0  0  0  0  0  0  0
    6.7854    1.4769  -18.0134 C   0  0  0  0  0  0  0  0  0  0  0  0
    5.3328    8.1712  -14.1921 C   0  0  0  0  0  0  0  0  0  0  0  0
    4.8203    8.8448  -15.4747 C   0  0  0  0  0  0  0  0  0  0  0  0
    6.3508    7.0658  -14.5147 C   0  0  0  0  0  0  0  0  0  0  0  0
    4.1804    7.8023  -16.3962 C   0  0  0  0  0  0  0  0  0  0  0  0
    5.7639    6.0312  -15.5015 C   0  0  0  0  0  0  0  0  0  0  0  0
    5.1866    6.6899  -16.7987 C   0  0  0  0  0  0  0  0  0  0  0  0
    7.0619    0.3710  -16.9997 C   0  0  0  0  0  0  0  0  0  0  0  0
    5.0268   10.0459  -20.8471 C   0  0  0  0  0  0  0  0  0  0  0  0
    5.8315    8.0462  -22.1690 C   0  0  0  0  0  0  0  0  0  0  0  0
    7.3332   10.0356  -21.8112 C   0  0  0  0  0  0  0  0  0  0  0  0
    4.3059    1.8558  -20.5938 C   0  0  0  0  0  0  0  0  0  0  0  0
    5.0932    4.5011  -17.9208 C   0  0  0  0  0  0  0  0  0  0  0  0
    5.0863    2.6163  -19.5042 C   0  0  1  0  0  0  0  0  0  0  0  0
    4.2412    3.7428  -18.9264 C   0  0  2  0  0  0  0  0  0  0  0  0
    6.2489    9.1363  -21.1559 C   0  0  0  0  0  0  0  0  0  0  0  0
    5.4728    1.6929  -18.4185 N   0  0  0  0  0  0  0  0  0  0  0  0
    4.3657    5.7001  -17.5099 N   0  0  0  0  0  0  0  0  0  0  0  0
    7.7259    2.0543  -18.5489 O   0  0  0  0  0  0  0  0  0  0  0  0
    3.8450    4.6243  -19.9785 O   0  0  0  0  0  0  0  0  0  0  0  0
    8.4217   -0.1570  -22.3675 F   0  0  0  0  0  0  0  0  0  0  0  0
    4.8921   -3.0081  -20.8435 F   0  0  0  0  0  0  0  0  0  0  0  0
   10.4383    7.3285  -18.1904 Br  0  0  0  0  0  0  0  0  0  0  0  0
    4.7733    7.9536  -19.1753 H   0  0  0  0  0  0  0  0  0  0  0  0
    7.9921    6.5264  -16.6972 H   0  0  0  0  0  0  0  0  0  0  0  0
    6.7641    1.8030  -21.7894 H   0  0  0  0  0  0  0  0  0  0  0  0
    3.6110   -0.7669  -20.3517 H   0  0  0  0  0  0  0  0  0  0  0  0
    8.8621    8.6640  -20.3238 H   0  0  0  0  0  0  0  0  0  0  0  0
    7.2729   -2.4750  -21.8492 H   0  0  0  0  0  0  0  0  0  0  0  0
    5.8149    8.9288  -13.5568 H   0  0  0  0  0  0  0  0  0  0  0  0
    4.4814    7.7292  -13.6539 H   0  0  0  0  0  0  0  0  0  0  0  0
    4.0715    9.6064  -15.2116 H   0  0  0  0  0  0  0  0  0  0  0  0
    5.6625    9.3233  -15.9960 H   0  0  0  0  0  0  0  0  0  0  0  0
    7.2449    7.5224  -14.9643 H   0  0  0  0  0  0  0  0  0  0  0  0
    6.6302    6.5531  -13.5825 H   0  0  0  0  0  0  0  0  0  0  0  0
    3.3296    7.3404  -15.8740 H   0  0  0  0  0  0  0  0  0  0  0  0
    3.8226    8.3047  -17.3071 H   0  0  0  0  0  0  0  0  0  0  0  0
    6.5600    5.3284  -15.7885 H   0  0  0  0  0  0  0  0  0  0  0  0
    4.9554    5.4827  -14.9960 H   0  0  0  0  0  0  0  0  0  0  0  0
    8.1482    0.2403  -16.8860 H   0  0  0  0  0  0  0  0  0  0  0  0
    6.6221    0.6449  -16.0293 H   0  0  0  0  0  0  0  0  0  0  0  0
    6.6144   -0.5699  -17.3526 H   0  0  0  0  0  0  0  0  0  0  0  0
    4.6837   10.5274  -21.7747 H   0  0  0  0  0  0  0  0  0  0  0  0
    4.2128    9.4363  -20.4278 H   0  0  0  0  0  0  0  0  0  0  0  0
    5.3189   10.8178  -20.1198 H   0  0  0  0  0  0  0  0  0  0  0  0
    5.4668    8.5222  -23.0912 H   0  0  0  0  0  0  0  0  0  0  0  0
    6.6990    7.4114  -22.4026 H   0  0  0  0  0  0  0  0  0  0  0  0
    5.0317    7.4286  -21.7343 H   0  0  0  0  0  0  0  0  0  0  0  0
    6.9230   10.5038  -22.7182 H   0  0  0  0  0  0  0  0  0  0  0  0
    7.6387   10.8180  -21.1010 H   0  0  0  0  0  0  0  0  0  0  0  0
    8.2061    9.4218  -22.0783 H   0  0  0  0  0  0  0  0  0  0  0  0
    4.1429    2.5168  -21.4578 H   0  0  0  0  0  0  0  0  0  0  0  0
    3.3346    1.5320  -20.1915 H   0  0  0  0  0  0  0  0  0  0  0  0
    5.2869    3.8655  -17.0442 H   0  0  0  0  0  0  0  0  0  0  0  0
    6.0487    4.7872  -18.3846 H   0  0  0  0  0  0  0  0  0  0  0  0
    5.9911    3.0477  -19.9573 H   0  0  0  0  0  0  0  0  0  0  0  0
    3.3622    3.3194  -18.4185 H   0  0  0  0  0  0  0  0  0  0  0  0
    4.7469    1.1929  -17.9463 H   0  0  0  0  0  0  0  0  0  0  0  0
    3.6179    5.4217  -16.9070 H   0  0  0  0  0  0  0  0  0  0  0  0
    3.9898    6.1346  -18.3284 H   0  0  0  0  0  0  0  0  0  0  0  0
    3.3128    4.1497  -20.6062 H   0  0  0  0  0  0  0  0  0  0  0  0
  1  7  2  0
  1  8  1  0
  2  7  1  0
  2 12  2  0
  3  9  2  0
  3 10  1  0
  4  9  1  0
  4 11  2  0
  5  8  2  0
  5 12  1  0
  6 10  2  0
  6 11  1  0
  7 19  1  0
  8 28  1  0
  9 24  1  0
 10 33  1  0
 11 34  1  0
 12 35  1  0
 13 20  1  0
 13 29  1  0
 13 31  2  0
 14 15  1  0
 14 16  1  0
 15 17  1  0
 16 18  1  0
 17 19  1  0
 18 19  1  0
 19 30  1  0
 21 28  1  0
 22 28  1  0
 23 28  1  0
 24 26  1  0
 25 27  1  0
 25 30  1  0
 26 27  1  0
 26 29  1  0
 27 32  1  0
  1 36  1  0
  2 37  1  0
  3 38  1  0
  4 39  1  0
  5 40  1  0
  6 41  1  0
 14 42  1  0
 14 43  1  0
 15 44  1  0
 15 45  1  0
 16 46  1  0
 16 47  1  0
 17 48  1  0
 17 49  1  0
 18 50  1  0
 18 51  1  0
 20 52  1  0
 20 53  1  0
 20 54  1  0
 21 55  1  0
 21 56  1  0
 21 57  1  0
 22 58  1  0
 22 59  1  0
 22 60  1  0
 23 61  1  0
 23 62  1  0
 23 63  1  0
 24 64  1  0
 24 65  1  0
 25 66  1  0
 25 67  1  0
 26 68  1  6
 27 69  1  1
 29 70  1  0
 30 71  1  0
 30 72  1  0
 32 73  1  0
M  CHG  1  30   1
M  END
>  <OMEGA_C>  (10) 
oY66QL1R/EDaspfBSKP0QET24UD8jIzBO1rMQIoEUD+pqqzBXBCTQLaIJL9rOKbBaTUCQRZEBEEK
Bp3B62zVQITTzb8f/qzBminIQK+b50BEO47BpS7YQOYcB0ED/Z7BzCujQAcvJj8sNajBGJjlQGaM
ob499a7BtBGsQMaS4r+LrajBPS8JQW958kDm45PBpyHZQGAMvT9nG5DBmKaqQFO9AkHPEmPB4D+a
QEKEDUF3mHfBoznLQPsa4kA0PGjB3sWFQMus+UCCK4PB63G4QFj/wED2BXjBcvilQKUT1kCqY4bB
5frhQNXxvT5d/4fBMtugQBm8IEHVxqbBhpu6QAm9AEExWrHB+anqQNmRIEFpfa7Bi8mJQLKK7T8p
wKTBgfuiQMwIkEDcXY/BHsOiQH5xJ0CQCJzB7beHQE6Kb0BbaZfBlvbHQCkuEkFfP6nBWyGvQOix
2D8kWZPBdrOLQOZmtkBAFIzB2jr3QOB4A0AOZJTBeRR2QOb5k0Dk05/BRb8GQbjAIL6M8LLB2Iuc
QGqEQMB0v6bBIwMnQeOC6kADhpHBNL+YQLOD/kD/ZpnBAr//QOTX0EDpk4XBVXPYQETJ5j/FUK7B
CxtnQMxRRL9g0KLBB8sNQcGfCkE9l6LBqrvoQJlmHsAly67BexO6QIHcDkFz6FjBnmePQMlV90A5
dlrBBEqCQPizGUGaYnPBJjO1QDIsFUGr73/BBdbnQGi38ECybW/BASvUQEKz0UC8UVnBjhhVQJLk
6kC6+33BEqV0QPvfBEHkdIrBMOvRQD2CqkDPnXzBQJKeQKZyr0Cr72/B1l4CQfQLdj6WFofBgujT
QBkWJT8NPIDBUqnTQBPlEb8H0orBpeCVQFFwKEGRMq7B8M6GQDn7FkEcbKPBDjSqQJoVLUFh9aDB
+++uQNlaCEHMurjB3F3WQN4p7UByOLPBnAOhQGu37UDS363BgondQHIPKEHVvrXBknD0QKoWLUHH
zqjBM0wDQZq/FkFroLDBapKEQJQTIUCeqavBTGpVQNIXxD9GiKHBWi6pQFdkd0B5WojBOo/BQLYw
mUCuE5PBJ7e/QMYMQ0B+qJ/BkC1XQFFwVEAvWZPB7uaXQKevmD/2kY/B34tnQN1+rUCjQYfBRVl/
QFxOxECOoJLBugRUQJLKhECI2aTB6gS7QGmB/EARoZfBxxX1QPC54UAAjIzBJvCTQMMNJb8oHKbB
Bw/NQPa1Tz8Ao6zBd2wCQUAvBEG2Ap3BgiTWQIYCzr8g+6zBXaLIQDmp50DQMY7BzprYQAQpB0Hs
7J7BYfajQL6yJT8lIajB8+OsQN7K4r/bmqjBakTmQEkjor5+9q7BYmgJQTwy8kCD5JPBgEfZQCqK
tj+CdZDBNPGrQMbmAUFVoGLBRhGcQONBDUEz8XbBzPTLQHop4EARImjBwtqGQKkq+kAqAIPBl7K4
QIEMwEDTRHjBFVqmQPox1kAYZIbBmpfhQIityj4dsofB5LSgQEmSIEFqpKbB7I27QIf4AEGiVrHB
YbnqQLoWIUFBN67BhWGKQHY37T88v6TB3CajQE8MkUDLtY/BuvaiQBQAKEAxCJzBYYmHQEL4b0Dv
fZfBxUfIQLRVEkHQIanB0jCvQJgI2z+hQpPBYMqLQHgYt0BMNozBI2n3QE39AkBgUZTBYFNzQL91
k0D675/BfFidQAKhQMCesKbBFwYHQV3FIb46BbPBXTsnQcon6kAnh5HBpDKZQP7g/kDMTZnBFBYA
QT9u0EBlmYXBxAtpQBDtRL8+pqLBPB7ZQFio5j+4S67Bhf8NQcN7CkGKmaLBgGfpQAd8HsDu0K7B
iq67QLCqDUGpKljBEGeQQI269UDXOFrBK6mEQIihGUFdgXLBsl63QPPCFEEWIn/BRtHoQB2d7kCf
J2/BoZfUQHP+zkA6Y1nBCa9WQBuf60AAx33B7HB3QNaDBUHENIrB0ODRQCh3qUA4JH3BtaeeQDZ1
rkBfV3DBugkCQdJZtT4a9oXB+BzQQHfsLj9laYDBxZHWQIDBF79WZYrBnq+VQKlaKEHjCa7BqtqG
QAOSFkF5YKPBOZSpQJXcLEEnv6DBVM2vQNanCEGasLjBKqDXQKYX7kALOrPBki2iQAKw7UB98K3B
VpvdQC2sKEG/crXBAvzzQCeHLUHSb6jBT34DQeiDF0GEXLDBzziFQMiOIEAHsqvBh45WQFF2wz/g
jqHBcLSqQP/feUAsvYjBcATBQCi+mkD7r5PBbPK/QAzLQ0CNnp/BsvxXQAGJVEDTN5PBlsuXQIe8
oj9zFo/BjednQIXMrUBiaIfBk0l/QAGMxUDyq5LBbMdQQBW3g0AbzKTB

>  <OMEGA_E>  (10) 
QM//PbijAj4=

>  <OMEGA_NBR>  (10) 
     47386

$$$$
50167941
     RDKit          3D

 63 65  0  0  1  0  0  0  0  0999 V2000
    8.1351    8.0810  -19.6391 C   0  0  0  0  0  0  0  0  0  0  0  0
    6.4786    0.8488  -21.5906 C   0  0  0  0  0  0  0  0  0  0  0  0
    4.6747   -0.6283  -20.8621 C   0  0  0  0  0  0  0  0  0  0  0  0
    5.8317    7.8725  -18.9635 C   0  0  0  0  0  0  0  0  0  0  0  0
    6.7663   -1.5723  -21.6931 C   0  0  0  0  0  0  0  0  0  0  0  0
    8.5076    7.4459  -18.4360 C   0  0  0  0  0  0  0  0  0  0  0  0
    6.7689    8.3373  -19.9047 C   0  0  0  0  0  0  0  0  0  0  0  0
    5.1814    0.6740  -21.0580 C   0  0  0  0  0  0  0  0  0  0  0  0
    7.2728   -0.2734  -21.8976 C   0  0  0  0  0  0  0  0  0  0  0  0
    5.4645   -1.7489  -21.1833 C   0  0  0  0  0  0  0  0  0  0  0  0
    6.2697    7.2629  -17.7734 C   0  0  0  0  0  0  0  0  0  0  0  0
    6.7946    1.4702  -18.0580 C   0  0  0  0  0  0  0  0  0  0  0  0
    4.6058    7.7643  -15.8540 C   0  0  0  0  0  0  0  0  0  0  0  0
    5.5304    6.6524  -15.3213 C   0  0  0  0  0  0  0  0  0  0  0  0
    5.2201    6.7505  -16.8195 C   0  0  0  0  0  0  0  0  0  0  0  0
    7.0567    0.3549  -17.0514 C   0  0  0  0  0  0  0  0  0  0  0  0
    7.3948    9.9389  -21.8015 C   0  0  0  0  0  0  0  0  0  0  0  0
    5.0393    9.8941  -20.9653 C   0  0  0  0  0  0  0  0  0  0  0  0
    5.9493    7.9178  -22.2421 C   0  0  0  0  0  0  0  0  0  0  0  0
    4.3635    1.8777  -20.6239 C   0  0  0  0  0  0  0  0  0  0  0  0
    5.0328    4.5378  -17.8629 C   0  0  0  0  0  0  0  0  0  0  0  0
    5.0985    2.6589  -19.5077 C   0  0  1  0  0  0  0  0  0  0  0  0
    4.2172    3.7702  -18.9147 C   0  0  2  0  0  0  0  0  0  0  0  0
    6.2981    9.0132  -21.2097 C   0  0  0  0  0  0  0  0  0  0  0  0
    7.5856    7.0578  -17.5260 N   0  0  0  0  0  0  0  0  0  0  0  0
    5.4813    1.7302  -18.4298 N   0  0  0  0  0  0  0  0  0  0  0  0
    4.3206    5.7517  -17.4230 N   0  0  0  0  0  0  0  0  0  0  0  0
    7.7410    2.0112  -18.6204 O   0  0  0  0  0  0  0  0  0  0  0  0
    3.8194    4.6562  -19.9608 O   0  0  0  0  0  0  0  0  0  0  0  0
    8.5262   -0.1045  -22.3764 F   0  0  0  0  0  0  0  0  0  0  0  0
    4.9782   -2.9950  -20.9866 F   0  0  0  0  0  0  0  0  0  0  0  0
    8.8899    8.3708  -20.3551 H   0  0  0  0  0  0  0  0  0  0  0  0
    6.8616    1.8438  -21.7624 H   0  0  0  0  0  0  0  0  0  0  0  0
    3.6797   -0.7658  -20.4653 H   0  0  0  0  0  0  0  0  0  0  0  0
    4.7747    7.9839  -19.1549 H   0  0  0  0  0  0  0  0  0  0  0  0
    7.3759   -2.4325  -21.9270 H   0  0  0  0  0  0  0  0  0  0  0  0
    9.5536    7.2653  -18.2370 H   0  0  0  0  0  0  0  0  0  0  0  0
    3.5278    7.7344  -15.6372 H   0  0  0  0  0  0  0  0  0  0  0  0
    4.9495    8.8092  -15.8612 H   0  0  0  0  0  0  0  0  0  0  0  0
    6.5349    6.9023  -14.9491 H   0  0  0  0  0  0  0  0  0  0  0  0
    5.1132    5.8275  -14.7251 H   0  0  0  0  0  0  0  0  0  0  0  0
    8.1399    0.1827  -16.9680 H   0  0  0  0  0  0  0  0  0  0  0  0
    6.6550    0.6456  -16.0695 H   0  0  0  0  0  0  0  0  0  0  0  0
    6.5638   -0.5682  -17.3906 H   0  0  0  0  0  0  0  0  0  0  0  0
    7.0240   10.4016  -22.7280 H   0  0  0  0  0  0  0  0  0  0  0  0
    7.6431   10.7250  -21.0732 H   0  0  0  0  0  0  0  0  0  0  0  0
    8.2947    9.3462  -22.0224 H   0  0  0  0  0  0  0  0  0  0  0  0
    4.7287   10.3611  -21.9115 H   0  0  0  0  0  0  0  0  0  0  0  0
    4.2219    9.2666  -20.5805 H   0  0  0  0  0  0  0  0  0  0  0  0
    5.2772   10.6774  -20.2306 H   0  0  0  0  0  0  0  0  0  0  0  0
    5.6120    8.3887  -23.1773 H   0  0  0  0  0  0  0  0  0  0  0  0
    6.8405    7.3046  -22.4412 H   0  0  0  0  0  0  0  0  0  0  0  0
    5.1469    7.2799  -21.8429 H   0  0  0  0  0  0  0  0  0  0  0  0
    4.2086    2.5407  -21.4879 H   0  0  0  0  0  0  0  0  0  0  0  0
    3.3892    1.5356  -20.2449 H   0  0  0  0  0  0  0  0  0  0  0  0
    5.2025    3.8856  -16.9934 H   0  0  0  0  0  0  0  0  0  0  0  0
    6.0004    4.8267  -18.2989 H   0  0  0  0  0  0  0  0  0  0  0  0
    6.0019    3.1166  -19.9372 H   0  0  0  0  0  0  0  0  0  0  0  0
    3.3387    3.3170  -18.4322 H   0  0  0  0  0  0  0  0  0  0  0  0
    4.7512    1.2582  -17.9356 H   0  0  0  0  0  0  0  0  0  0  0  0
    3.6318    5.4913  -16.7466 H   0  0  0  0  0  0  0  0  0  0  0  0
    3.8707    6.1636  -18.2154 H   0  0  0  0  0  0  0  0  0  0  0  0
    3.3158    4.1767  -20.6081 H   0  0  0  0  0  0  0  0  0  0  0  0
  1  6  2  0
  1  7  1  0
  2  8  2  0
  2  9  1  0
  3  8  1  0
  3 10  2  0
  4  7  2  0
  4 11  1  0
  5  9  2  0
  5 10  1  0
  6 25  1  0
  7 24  1  0
  8 20  1  0
  9 30  1  0
 10 31  1  0
 11 15  1  0
 11 25  2  0
 12 16  1  0
 12 26  1  0
 12 28  2  0
 13 14  1  0
 13 15  1  0
 14 15  1  0
 15 27  1  0
 17 24  1  0
 18 24  1  0
 19 24  1  0
 20 22  1  0
 21 23  1  0
 21 27  1  0
 22 23  1  0
 22 26  1  0
 23 29  1  0
  1 32  1  0
  2 33  1  0
  3 34  1  0
  4 35  1  0
  5 36  1  0
  6 37  1  0
 13 38  1  0
 13 39  1  0
 14 40  1  0
 14 41  1  0
 16 42  1  0
 16 43  1  0
 16 44  1  0
 17 45  1  0
 17 46  1  0
 17 47  1  0
 18 48  1  0
 18 49  1  0
 18 50  1  0
 19 51  1  0
 19 52  1  0
 19 53  1  0
 20 54  1  0
 20 55  1  0
 21 56  1  0
 21 57  1  0
 22 58  1  6
 23 59  1  1
 26 60  1  0
 27 61  1  0
 27 62  1  0
 29 63  1  0
M  CHG  1  27   1
M  END
>  <OMEGA_C>  (11) 
NCkCQedLAUHhHJ3BF1HPQNdHWT96uazB2ZaVQO/YIL+l5abBk526QJ7r+0BEtZfBr4XYQABAyb9p
i63BOx8IQbBE7kD3fJPB+ZrYQHtlBUHMPJ/Bu82lQKaMLD/KdqjB1broQIj6i741Lq/BXt2uQOLb
379xd6nBNqHIQBRq6EAGMI7BrG3ZQP8uvD/HdpDB82KTQA91+EDPqX3B3/iwQGbg1EAUJHXBLgun
QG4E2EBtjobBKdDhQL64tT5WaYjBAaLsQMkFH0Fraa7BRUKhQBBOHkHkuKfBT2C+QL1e/UDb77HB
A6KLQHxY8D+4/aTBZwyhQHI1kUAx547BuSajQDwsKkDKD5zBj/OGQHtKcUBgUZfBu4nJQOg1EEFo
ranB7bzyQCjZ4UAqNYzBg2avQEd43T9CcJPBvEKKQEQOuEBnYovBb7b3QMK3AECV9pTByXF0QFz/
lECvr5/BUWsIQUn51b3dArPBHk2fQPqtP8CX5KfB4zwOQcTuBUFS16LBepLbQP8C7D9fGa7Bfn9r
QFAKRL/4uKPBOsqYQOl7/0BPPZnBVQfsQMOuG8CVaq/BvdsYQVx96EBI5ZHB0sdhQNZ/90DJMXrB
aGKeQHfyDEFMx33Bxh3RQJzf3ECgL2/BRp+jQIR6ukAdmmvB8TwCQfYOOz5evofBq/XUQL9EJT9a
joDBngrSQHFyEb/iH4vBzcTgQNZsJkH80rXBLpT0QImZK0HYlajBLLcEQRKKFUHZLbDBYVGXQC7H
JUHCSq/BuxmHQNVDFEHypKTB2d6oQLTWKkE/2KHBw5WzQCQ4BkEVa7nBW+XaQAG/6UB7h7PB0LOk
QC/16EAtvq7B+KyGQFeaIkAq56vBpOhYQBSPxD939aHBh3qmQHaueECR8ofBjAPAQJ50mkAsZJLB
Ng/AQPd2R0BOf5/BPa1VQPtJVEAqdZPBJQqYQH0MoT8efI/Bs25oQJO4r0AG+YXBdLl3QHM8xUA7
uZHBMTZUQMOnhUBV3aTBd4QBQbgEAUH9R53BhonOQErkWT+z0qzBj4WVQMEVIr97rqbBkJq5QOv5
+0BjmpfBmCfYQNK7yL/pma3BwLIHQQ4k7kCTopPBn0TXQE8yBUHdSJ/B01alQJ/6Kz97ZKjBEgDo
QB7jiL6CV6/B99SuQMMZ4L+TVanBPA7IQMm06EDFFI7BH8nYQH19uT8fc5DBiVSTQLsb+ECIEX3B
xGGxQLGt1EDO0HTBGeCmQNP810AVXobBsOTgQPppoz4rgojBmUi/QI1B/EDqKrLBCwXqQC54H0GT
SK7B6UWeQE3kHEGdCqjBhi6LQDIc8D/356TB8xOhQF0zkUA5zY7BffWiQNgmKkDaBpzBaUSHQH+T
ckDpZZfBx/vHQOjED0HuyKnBPT/yQM8b4kAAOozBFdKuQP6E3T/FXJPBYSWKQMLYt0AoKovBLzb3
QPpA/j8G65TBAX94QE0UlkA705/B4+YHQcHIvb0sWbPB/KOfQFv+P8AarqfBs3UNQTFvBUFXH6PB
PIXaQPF+7D/KR67BTvdrQNdZRr/aVaPBLbeXQDO1/0DABJnBYa/rQCU/G8Cvia/B93cYQUJh6EBh
IZLBWdphQI7X9kCEZnnBlBCeQMrQDEFpJ33B+JjRQL7d3EA/Bm/BkHWkQLkTukBaRWvBjsABQcXU
CT5b4ofBvDvUQIY0Gj+2nYDBfMfQQJQ4GL/SS4vBrGC0QNSCBUEdrbnBo+DcQNIi6kAHpbPBZWem
QIZ65kAtJq/BBRreQE6uJkHJvLXBnz7wQHAkLEHsYKjBnOsDQdy1FkGV66/Bs1OUQDItJEEWqK/B
68+EQCk7EkHCH6XBnCykQJmMKUGKG6LBTwmGQPVdIkAb0qvByCxYQDBZxD+k0aHB1DOmQCWld0DM
7YfBkDHAQLWpmkAEK5LBhxbAQA5TRkDsfZ/BNsBUQBMCV0ACvZPBQ0iXQLtloz8rV4/Btc5oQMo5
r0BytIXBe712QIAKxUCPcpHBo5tYQJw+h0CxIKXB+CDxQHNPAkFIlaPBRmLSQPKlUz/DuKzBMD+U
QA1vAb/8f6fBQLbnQEvhAUHocZDBrBbVQK3Izb9d1a3BoFrOQDXG6EBPdqTBxBj4QHUpDEGlm5nB
ePanQN4ZQD8U5KjBqO3oQBi5tL5aLK/BNraqQIFe17/ABarBGqbEQFM/6EAYwZHBVoHTQAihoz/B
ZI/Bhw2eQMck+ECXs37BwhG/QIRv1UDqzHnBjLqqQBUA2EAbKIjBsh3VQCLXBj6bW4fB1hAMQe7K
LUHisaHBBJv/QIIsLkGZWI7B2lrJQOd2K0FiQp3BSFiQQD5pAEDNtqXB/RqiQHPjjkDiTo7BUtOl
QBtsKkBo6ZvByNqJQESKckD0fJfBfkT3QHiZJEEhppnB1H63QABw3UCJwZvBHemrQNz41D9hYpPB
IDCMQDJBtkDB7YrB+vT0QC9a3z816pLBUryAQIrXlkBK45/BpscIQTJRkL4v2LLB9puXQIGeOMAG
vqjB5vQCQc5nBUFwT6rB7IXhQNz05D89xa3B88lnQEdbEL9af6TBBrr1QM+DBEFsqIjB0V/mQOrK
IMCQuq/BMqfFQO4o3EDUNKzB1xN8QD6I9kDnbXfBziOoQHbjDEFr73/BUeHgQJgc3kABiHfBbse2
QOrdukB9Bm/Blaj2QH4ACb72vYXBlI7FQO/O4j4UvH/BYEjEQAPIPb/RqorBAmMLQXpgP0E/iqHB
nT0cQRZ4KEFxeJ/BJUAIQY0PKEEgy6nBTbH+QN++P0ETyo7B7MjmQA2KKEFIx4jBDp4PQQAAKUGK
eovBTT3HQLYHPUGQaJ3Bl+bCQOkeJUHCTqXBsJ+xQOoQJUEQmpfBa7WQQHW6LUCkcqzB2hxeQMco
4D/btaPBJumjQA9xcUDBfIfBTaTCQKrmlkDZAJHBGfXEQE3mREDSV57BogxYQLjtVkDrVpTBXNOR
QCYgnj8jRJDBvCl0QLHOr0BSiITBISlzQB+HwEC06JDBf3RjQAuXiEBZdKXB

>  <OMEGA_E>  (11) 
kLiMPmDHjT58JzA/

>  <OMEGA_NBR>  (11) 
     50743

$$$$
50167972
     RDKit          3D

 73 75  0  0  1  0  0  0  0  0999 V2000
    7.6413    7.4650  -17.5295 C   0  0  0  0  0  0  0  0  0  0  0  0
    8.4946    8.1508  -18.4033 C   0  0  0  0  0  0  0  0  0  0  0  0
    5.7363    8.1729  -18.8581 C   0  0  0  0  0  0  0  0  0  0  0  0
    4.3096   -0.9162  -20.9809 C   0  0  0  0  0  0  0  0  0  0  0  0
    6.3283    0.4340  -21.2004 C   0  0  0  0  0  0  0  0  0  0  0  0
    6.3607   -1.9032  -21.8734 C   0  0  0  0  0  0  0  0  0  0  0  0
    6.2423    7.4950  -17.7238 C   0  0  0  0  0  0  0  0  0  0  0  0
    6.5834    8.8540  -19.7799 C   0  0  0  0  0  0  0  0  0  0  0  0
    4.9839    0.3087  -20.7767 C   0  0  0  0  0  0  0  0  0  0  0  0
    4.9937   -2.0143  -21.5450 C   0  0  0  0  0  0  0  0  0  0  0  0
    7.0293   -0.6784  -21.6898 C   0  0  0  0  0  0  0  0  0  0  0  0
    7.9905    8.8461  -19.5168 C   0  0  0  0  0  0  0  0  0  0  0  0
    6.3970    0.8679  -17.6856 C   0  0  0  0  0  0  0  0  0  0  0  0
    5.4160    7.9283  -13.9808 C   0  0  0  0  0  0  0  0  0  0  0  0
    4.8095    8.7178  -15.1557 C   0  0  0  0  0  0  0  0  0  0  0  0
    6.4851    6.9402  -14.4741 C   0  0  0  0  0  0  0  0  0  0  0  0
    4.1989    7.7569  -16.1966 C   0  0  0  0  0  0  0  0  0  0  0  0
    5.9320    6.0004  -15.5800 C   0  0  0  0  0  0  0  0  0  0  0  0
    5.2524    6.7589  -16.7783 C   0  0  0  0  0  0  0  0  0  0  0  0
    6.4949    0.2494  -16.2912 C   0  0  0  0  0  0  0  0  0  0  0  0
    4.4129    9.3976  -21.0996 C   0  0  0  0  0  0  0  0  0  0  0  0
    6.5130    8.9183  -22.3463 C   0  0  0  0  0  0  0  0  0  0  0  0
    6.2346   11.0894  -21.0155 C   0  0  0  0  0  0  0  0  0  0  0  0
    4.2288    1.5086  -20.2211 C   0  0  0  0  0  0  0  0  0  0  0  0
    5.2842    4.6403  -18.1232 C   0  0  0  0  0  0  0  0  0  0  0  0
    5.0949    2.3922  -19.2655 C   0  0  1  0  0  0  0  0  0  0  0  0
    4.3957    3.7466  -19.0026 C   0  0  2  0  0  0  0  0  0  0  0  0
    5.9653    9.5556  -21.0350 C   0  0  0  0  0  0  0  0  0  0  0  0
    5.3088    1.6925  -17.9777 N   0  0  0  0  0  0  0  0  0  0  0  0
    4.4841    5.7746  -17.5996 N   0  0  0  0  0  0  0  0  0  0  0  0
    7.3302    0.7212  -18.4668 O   0  0  0  0  0  0  0  0  0  0  0  0
    4.1566    4.4332  -20.2355 O   0  0  0  0  0  0  0  0  0  0  0  0
    4.3398   -3.1768  -21.7702 F   0  0  0  0  0  0  0  0  0  0  0  0
    8.3424   -0.5603  -21.9932 F   0  0  0  0  0  0  0  0  0  0  0  0
    9.2945    9.7216  -20.6199 Br  0  0  0  0  0  0  0  0  0  0  0  0
    8.0557    6.9094  -16.7013 H   0  0  0  0  0  0  0  0  0  0  0  0
    9.5586    8.1454  -18.2186 H   0  0  0  0  0  0  0  0  0  0  0  0
    4.6703    8.1743  -19.0315 H   0  0  0  0  0  0  0  0  0  0  0  0
    3.2698   -1.0122  -20.7052 H   0  0  0  0  0  0  0  0  0  0  0  0
    6.8191    1.3946  -21.1465 H   0  0  0  0  0  0  0  0  0  0  0  0
    6.8937   -2.7568  -22.2653 H   0  0  0  0  0  0  0  0  0  0  0  0
    5.8770    8.6334  -13.2735 H   0  0  0  0  0  0  0  0  0  0  0  0
    4.6166    7.3691  -13.4725 H   0  0  0  0  0  0  0  0  0  0  0  0
    4.0229    9.3857  -14.7749 H   0  0  0  0  0  0  0  0  0  0  0  0
    5.5984    9.3161  -15.6349 H   0  0  0  0  0  0  0  0  0  0  0  0
    7.3348    7.5081  -14.8810 H   0  0  0  0  0  0  0  0  0  0  0  0
    6.8253    6.3296  -13.6248 H   0  0  0  0  0  0  0  0  0  0  0  0
    3.3945    7.1807  -15.7160 H   0  0  0  0  0  0  0  0  0  0  0  0
    3.7812    8.3507  -17.0229 H   0  0  0  0  0  0  0  0  0  0  0  0
    6.7665    5.4033  -15.9765 H   0  0  0  0  0  0  0  0  0  0  0  0
    5.1862    5.3318  -15.1254 H   0  0  0  0  0  0  0  0  0  0  0  0
    7.4573   -0.2732  -16.1880 H   0  0  0  0  0  0  0  0  0  0  0  0
    6.4254    1.0429  -15.5326 H   0  0  0  0  0  0  0  0  0  0  0  0
    5.6720   -0.4666  -16.1493 H   0  0  0  0  0  0  0  0  0  0  0  0
    4.0291    9.9062  -21.9963 H   0  0  0  0  0  0  0  0  0  0  0  0
    4.1548    8.3293  -21.1455 H   0  0  0  0  0  0  0  0  0  0  0  0
    3.9611    9.8458  -20.2024 H   0  0  0  0  0  0  0  0  0  0  0  0
    6.0670    9.4249  -23.2149 H   0  0  0  0  0  0  0  0  0  0  0  0
    7.6069    9.0297  -22.3789 H   0  0  0  0  0  0  0  0  0  0  0  0
    6.2523    7.8499  -22.3713 H   0  0  0  0  0  0  0  0  0  0  0  0
    5.7887   11.5519  -21.9084 H   0  0  0  0  0  0  0  0  0  0  0  0
    5.7859   11.5289  -20.1124 H   0  0  0  0  0  0  0  0  0  0  0  0
    7.3194   11.2711  -21.0116 H   0  0  0  0  0  0  0  0  0  0  0  0
    3.8924    2.1308  -21.0636 H   0  0  0  0  0  0  0  0  0  0  0  0
    3.3541    1.1435  -19.6629 H   0  0  0  0  0  0  0  0  0  0  0  0
    5.6781    4.0509  -17.2822 H   0  0  0  0  0  0  0  0  0  0  0  0
    6.1209    5.0283  -18.7228 H   0  0  0  0  0  0  0  0  0  0  0  0
    6.0649    2.5826  -19.7480 H   0  0  0  0  0  0  0  0  0  0  0  0
    3.4471    3.5599  -18.4779 H   0  0  0  0  0  0  0  0  0  0  0  0
    4.6213    1.8205  -17.2629 H   0  0  0  0  0  0  0  0  0  0  0  0
    3.7504    5.4014  -17.0318 H   0  0  0  0  0  0  0  0  0  0  0  0
    4.0882    6.2613  -18.3783 H   0  0  0  0  0  0  0  0  0  0  0  0
    3.6078    3.8972  -20.7958 H   0  0  0  0  0  0  0  0  0  0  0  0
  1  2  2  0
  1  7  1  0
  2 12  1  0
  3  7  2  0
  3  8  1  0
  4  9  2  0
  4 10  1  0
  5  9  1  0
  5 11  2  0
  6 10  2  0
  6 11  1  0
  7 19  1  0
  8 12  2  0
  8 28  1  0
  9 24  1  0
 10 33  1  0
 11 34  1  0
 12 35  1  0
 13 20  1  0
 13 29  1  0
 13 31  2  0
 14 15  1  0
 14 16  1  0
 15 17  1  0
 16 18  1  0
 17 19  1  0
 18 19  1  0
 19 30  1  0
 21 28  1  0
 22 28  1  0
 23 28  1  0
 24 26  1  0
 25 27  1  0
 25 30  1  0
 26 27  1  0
 26 29  1  0
 27 32  1  0
  1 36  1  0
  2 37  1  0
  3 38  1  0
  4 39  1  0
  5 40  1  0
  6 41  1  0
 14 42  1  0
 14 43  1  0
 15 44  1  0
 15 45  1  0
 16 46  1  0
 16 47  1  0
 17 48  1  0
 17 49  1  0
 18 50  1  0
 18 51  1  0
 20 52  1  0
 20 53  1  0
 20 54  1  0
 21 55  1  0
 21 56  1  0
 21 57  1  0
 22 58  1  0
 22 59  1  0
 22 60  1  0
 23 61  1  0
 23 62  1  0
 23 63  1  0
 24 64  1  0
 24 65  1  0
 25 66  1  0
 25 67  1  0
 26 68  1  6
 27 69  1  1
 29 70  1  0
 30 71  1  0
 30 72  1  0
 32 73  1  0
M  CHG  1  30   1
M  END
>  <OMEGA_C>  (12) 
NYX0QD/h7kBVPIzBvukHQZ5pAkHxOZPBf4+3QGTEAkFj3ZbBheiJQAWLar/62KfBdoHKQBw43j5e
mqnBgorLQASb87+w/K7BxcDHQN3W70Bqyo3BLKvSQCaqDUEoPZ7Bu3ufQA4Qnj6pNqbBjcyfQOLp
AMAPXKzBMvDgQIKsLb/EhK3BE7L/QLKJDUFsIpzBeLTMQHYrXj8ifI3BtE+tQIW0/UBPsV/BuueZ
QPN7C0G5fXLBD4bPQAsW3kATlmfBnV2GQHE4+ECJkoHBWdO9QHIDwEC3R3nBphOoQLJI2ED3OYbB
+NXPQN5cfz5yVILBTzaNQIZcFkEUzKjBkmrQQGaxDkFAxbLBi4HHQFduMUHAH6jB8FGHQNkawT/m
xKHBABipQLx9lEBq/JDBeQmjQIEZGUCsH5rBO6mMQPLIb0BnBZjBEeS+QL7jGEGZR6jBTOGpQPSk
2D9d0o/ByX2PQETJuEAOzIzBH5HqQGGeOD/7u5PBCQOFQBvdjUBC4qHBvd+KQFZQS8BQKa7BjXoF
QTBwD78E8q/BMrYUQcyLG0GI9aTBVOQAQbYZ3UAxnIXBLPAYQbRTAkGav5HB4XKVQAjKAkFyQJjB
OEVRQFePgb9DpKXBBzbaQKuAsj/2K6nBRpncQHZvMMA9H7LBHRC8QJEiCkFHYFTBU7uTQJ3P60B/
j1fBvLuAQAMsFkHfZWzBTiazQOAOFUFqKHrBY7bqQHBC8EC4GG7B4WjaQCeMykD6/lnBMUBZQE7I
5UCMdHvB1P9xQJacBUHyLojB0IbYQLTnrECtn3/BPfWlQC+eqkC7AXLBM6LuQKbfi74ZgYHBRJ3N
QG59hT+MhXjBpYC1QEDp7r63MYHBL+6AQLV/HkF5+K/B7vOEQLtEBUHnKanBHYN9QGSIHUGLnqHB
dSTCQEzMFkEXuLnBfmvzQId5EEEKCLPB4BLIQLwy+0B2+LLB1Dy5QGrUOEGARK/Beya5QFl2OEEq
5qDB5zjqQJNWNEHIF6jB2B15QFFfCEBPgqjBS6lWQGBekj+dTZ3BI7O1QAehgUDwQYrBDt7DQKbn
oEBVyJXBnxPCQP1IJUD4+53Bp5xcQM3VY0DV0pPBleGTQGAG6T9YGorBrQZwQI3YrEAWQYjBndKC
QOdcyEDDBpPBYeZmQCVreUC+XabBuuDyQMd18UDiWIzBvkYGQZ/qBEEGOJPBndizQJhhBEEhGZbB
1sa0QJT88T0Vda7BU4mSQC6nW792tp7B5BPAQBs0D8CTHKrBR+rFQGly8UAKg43BNkXNQDKGEEEF
W53Bi8SZQPOhgT6BdqXBtqjHQORrkL/O0bDB56ClQN14BsCACaHBlY76QMTREEGco5vB8bbXQPuQ
uj/TwI7BFzavQElA90AaeF7Bz76ZQH0GCUGXJHDBpr3RQEmr2UAL3WfBiP6FQIex9ECqroDBE7m/
QKA2vUCSJ3rBRAKoQOAM10CfGIbBnpHdQI5NKD9gbITBtOOFQHdoGUH5CafBjAHIQEnfE0GzybHB
K8O+QCcwNUFGE6bB2oOFQLZszD9F4KLBL/ypQOWulkC+J5LB1ZajQORAH0DYBZzB6zuNQFr0dEDO
P5nBdHW3QG6XHEHB36bBi1SuQDPd4z8J/JHBd56PQPVouEAa+ozBG+L2QFBe2T/8ZpTBzlaDQEyD
kUD+z6LB1gHhQEBXob9/iLnB2nieQPZySsAwkprBnxsRQeBvIEG0YaTBGccAQUSM3kCjHYbB0GMX
QTYtBUGWB5LBt5GRQKUQBEG4MJfBXvq6QLNueD9ViLPBIKV8QP8JQb8YwZfBuonOQKhHTMA97avB
pxu+QOxzBkEhw1LBDsKWQLOo40Azc1bBEWCAQJrrEkF6AWnBSNixQKtwE0H3oXfBDfLrQHNn7UCn
Pm7B3BfeQM/hxEDAElvB+9BaQJyG4EBL0XnB1jVuQNhjBEFf4IbB7YTaQDS6q0C6voDBUPyoQFlD
pkCbKnPBSoL/QOqHyD5YdoPBbSzTQJ/8oT/hIXvB5zjKQI89hb4I0ITB901wQAEtIkFL2q3BmAN9
QOlFCEF31afB0i5wQIaHH0FIi5/BSk+4QLWMHEGjXLjBNNfqQAowFkECTLLBnZDAQDC3AkHvabLB
BBSvQI0vPUH23KzBjRWxQFwqO0GqiZ7BeUrhQPuWOEEYQqbBK5t8QAeqB0ACaKrBhVBPQMaGtj+8
a57Bsym5QL3LgkD19ovB/dzCQFXCpUA6HJfBbujAQFSmLECDmKDBY1ZfQHqbZkCu0pTBzS+WQM3d
wT/jLo3BHz5zQLADqkBxaojBJw6BQMstyUB4vJLBUyxjQBtxgECJRKfB

>  <OMEGA_E>  (12) 
8MoCP5DSET8=

>  <OMEGA_NBR>  (12) 
     53375

$$$$
50167973
     RDKit          3D

 76 78  0  0  1  0  0  0  0  0999 V2000
    7.5953    7.0074  -17.5924 C   0  0  0  0  0  0  0  0  0  0  0  0
    5.7944    7.9025  -18.9604 C   0  0  0  0  0  0  0  0  0  0  0  0
    8.1089    8.2113  -19.6408 C   0  0  0  0  0  0  0  0  0  0  0  0
    6.3956    0.7915  -21.5721 C   0  0  0  0  0  0  0  0  0  0  0  0
    4.5838   -0.6471  -20.7844 C   0  0  0  0  0  0  0  0  0  0  0  0
    6.6422   -1.6325  -21.6450 C   0  0  0  0  0  0  0  0  0  0  0  0
    6.2147    7.2321  -17.7842 C   0  0  0  0  0  0  0  0  0  0  0  0
    8.5332    7.5190  -18.4982 C   0  0  0  0  0  0  0  0  0  0  0  0
    6.7345    8.4369  -19.8762 C   0  0  0  0  0  0  0  0  0  0  0  0
    5.1065    0.6402  -21.0163 C   0  0  0  0  0  0  0  0  0  0  0  0
    7.1667   -0.3447  -21.8746 C   0  0  0  0  0  0  0  0  0  0  0  0
    5.3483   -1.7821  -21.1057 C   0  0  0  0  0  0  0  0  0  0  0  0
    6.8111    1.4433  -18.0618 C   0  0  0  0  0  0  0  0  0  0  0  0
    5.4261    8.1908  -14.1929 C   0  0  0  0  0  0  0  0  0  0  0  0
    4.8971    8.8656  -15.4697 C   0  0  0  0  0  0  0  0  0  0  0  0
    6.3956    7.0483  -14.5285 C   0  0  0  0  0  0  0  0  0  0  0  0
    4.1934    7.8335  -16.3636 C   0  0  0  0  0  0  0  0  0  0  0  0
    5.7481    6.0302  -15.4958 C   0  0  0  0  0  0  0  0  0  0  0  0
    5.1600    6.6972  -16.7884 C   0  0  0  0  0  0  0  0  0  0  0  0
   10.0016    7.2558  -18.2820 C   0  0  0  0  0  0  0  0  0  0  0  0
    7.0784    0.4390  -16.9445 C   0  0  0  0  0  0  0  0  0  0  0  0
    5.0559   10.0829  -20.8592 C   0  0  0  0  0  0  0  0  0  0  0  0
    5.8579    8.0850  -22.1930 C   0  0  0  0  0  0  0  0  0  0  0  0
    7.3789   10.0491  -21.7744 C   0  0  0  0  0  0  0  0  0  0  0  0
    4.3209    1.8534  -20.5880 C   0  0  0  0  0  0  0  0  0  0  0  0
    5.0980    4.5291  -17.9465 C   0  0  0  0  0  0  0  0  0  0  0  0
    5.1042    2.6261  -19.5091 C   0  0  1  0  0  0  0  0  0  0  0  0
    4.2519    3.7535  -18.9393 C   0  0  2  0  0  0  0  0  0  0  0  0
    6.2651    9.1555  -21.1563 C   0  0  0  0  0  0  0  0  0  0  0  0
    5.4938    1.7143  -18.4146 N   0  0  0  0  0  0  0  0  0  0  0  0
    4.3410    5.7011  -17.4933 N   0  0  0  0  0  0  0  0  0  0  0  0
    7.7486    2.0580  -18.5596 O   0  0  0  0  0  0  0  0  0  0  0  0
    3.8422    4.6237  -19.9941 O   0  0  0  0  0  0  0  0  0  0  0  0
    8.4138   -0.1986  -22.3757 F   0  0  0  0  0  0  0  0  0  0  0  0
    4.8430   -3.0156  -20.8837 F   0  0  0  0  0  0  0  0  0  0  0  0
    7.9312    6.4361  -16.7397 H   0  0  0  0  0  0  0  0  0  0  0  0
    4.7387    8.0079  -19.1622 H   0  0  0  0  0  0  0  0  0  0  0  0
    8.8396    8.5757  -20.3477 H   0  0  0  0  0  0  0  0  0  0  0  0
    6.7889    1.7788  -21.7647 H   0  0  0  0  0  0  0  0  0  0  0  0
    3.5972   -0.7619  -20.3604 H   0  0  0  0  0  0  0  0  0  0  0  0
    7.2320   -2.5055  -21.8824 H   0  0  0  0  0  0  0  0  0  0  0  0
    5.9522    8.9400  -13.5829 H   0  0  0  0  0  0  0  0  0  0  0  0
    4.5770    7.7851  -13.6234 H   0  0  0  0  0  0  0  0  0  0  0  0
    4.1821    9.6547  -15.1939 H   0  0  0  0  0  0  0  0  0  0  0  0
    5.7388    9.3099  -16.0211 H   0  0  0  0  0  0  0  0  0  0  0  0
    7.2959    7.4688  -15.0003 H   0  0  0  0  0  0  0  0  0  0  0  0
    6.6762    6.5313  -13.5990 H   0  0  0  0  0  0  0  0  0  0  0  0
    3.3497    7.3967  -15.8094 H   0  0  0  0  0  0  0  0  0  0  0  0
    3.8175    8.3389  -17.2654 H   0  0  0  0  0  0  0  0  0  0  0  0
    6.5122    5.2982  -15.7964 H   0  0  0  0  0  0  0  0  0  0  0  0
    4.9336    5.5139  -14.9668 H   0  0  0  0  0  0  0  0  0  0  0  0
   10.2804    6.3091  -18.7679 H   0  0  0  0  0  0  0  0  0  0  0  0
   10.5892    8.0778  -18.7166 H   0  0  0  0  0  0  0  0  0  0  0  0
   10.2070    7.1886  -17.2034 H   0  0  0  0  0  0  0  0  0  0  0  0
    8.1566    0.4079  -16.7290 H   0  0  0  0  0  0  0  0  0  0  0  0
    6.5323    0.7436  -16.0395 H   0  0  0  0  0  0  0  0  0  0  0  0
    6.7385   -0.5587  -17.2594 H   0  0  0  0  0  0  0  0  0  0  0  0
    4.7403   10.5832  -21.7866 H   0  0  0  0  0  0  0  0  0  0  0  0
    4.2226    9.4834  -20.4641 H   0  0  0  0  0  0  0  0  0  0  0  0
    5.3481   10.8393  -20.1158 H   0  0  0  0  0  0  0  0  0  0  0  0
    5.5189    8.5780  -23.1161 H   0  0  0  0  0  0  0  0  0  0  0  0
    6.7230    7.4435  -22.4165 H   0  0  0  0  0  0  0  0  0  0  0  0
    5.0418    7.4709  -21.7845 H   0  0  0  0  0  0  0  0  0  0  0  0
    6.9958   10.5382  -22.6822 H   0  0  0  0  0  0  0  0  0  0  0  0
    7.6811   10.8151  -21.0451 H   0  0  0  0  0  0  0  0  0  0  0  0
    8.2477    9.4258  -22.0328 H   0  0  0  0  0  0  0  0  0  0  0  0
    4.1546    2.5068  -21.4572 H   0  0  0  0  0  0  0  0  0  0  0  0
    3.3512    1.5349  -20.1779 H   0  0  0  0  0  0  0  0  0  0  0  0
    5.3377    3.8883  -17.0851 H   0  0  0  0  0  0  0  0  0  0  0  0
    6.0300    4.8558  -18.4310 H   0  0  0  0  0  0  0  0  0  0  0  0
    6.0060    3.0572  -19.9682 H   0  0  0  0  0  0  0  0  0  0  0  0
    3.3789    3.3271  -18.4235 H   0  0  0  0  0  0  0  0  0  0  0  0
    4.7664    1.2648  -17.8961 H   0  0  0  0  0  0  0  0  0  0  0  0
    3.6193    5.3908  -16.8746 H   0  0  0  0  0  0  0  0  0  0  0  0
    3.9293    6.1393  -18.2924 H   0  0  0  0  0  0  0  0  0  0  0  0
    3.3124    4.1398  -20.6167 H   0  0  0  0  0  0  0  0  0  0  0  0
  1  7  2  0
  1  8  1  0
  2  7  1  0
  2  9  2  0
  3  8  2  0
  3  9  1  0
  4 10  2  0
  4 11  1  0
  5 10  1  0
  5 12  2  0
  6 11  2  0
  6 12  1  0
  7 19  1  0
  8 20  1  0
  9 29  1  0
 10 25  1  0
 11 34  1  0
 12 35  1  0
 13 21  1  0
 13 30  1  0
 13 32  2  0
 14 15  1  0
 14 16  1  0
 15 17  1  0
 16 18  1  0
 17 19  1  0
 18 19  1  0
 19 31  1  0
 22 29  1  0
 23 29  1  0
 24 29  1  0
 25 27  1  0
 26 28  1  0
 26 31  1  0
 27 28  1  0
 27 30  1  0
 28 33  1  0
  1 36  1  0
  2 37  1  0
  3 38  1  0
  4 39  1  0
  5 40  1  0
  6 41  1  0
 14 42  1  0
 14 43  1  0
 15 44  1  0
 15 45  1  0
 16 46  1  0
 16 47  1  0
 17 48  1  0
 17 49  1  0
 18 50  1  0
 18 51  1  0
 20 52  1  0
 20 53  1  0
 20 54  1  0
 21 55  1  0
 21 56  1  0
 21 57  1  0
 22 58  1  0
 22 59  1  0
 22 60  1  0
 23 61  1  0
 23 62  1  0
 23 63  1  0
 24 64  1  0
 24 65  1  0
 24 66  1  0
 25 67  1  0
 25 68  1  0
 26 69  1  0
 26 70  1  0
 27 71  1  6
 28 72  1  1
 30 73  1  0
 31 74  1  0
 31 75  1  0
 33 76  1  0
M  CHG  1  31   1
M  END
>  <OMEGA_C>  (13) 
/QzzQNc84EA9vYzB/Wu5QKLh/EDarpfB3L0BQZVhA0FRIJ3Bm6jMQAKgSj+vk6zBda6SQGGpJb94
RqbB7IzUQBv30L8CKa3Bft7GQLht50AcRo7BzocIQU6b8EBq/JPBY4HXQLD9BkFuAp/BMmijQOvk
Iz9aIajBg1XlQKx4sL5H/67B/iSrQG0c5L+S2KjBkfTZQAy+uD+ffpDB5qKtQKkNA0HrFWPBB7Wc
QGjZDUHOg3fBj6jMQFuL4UCvdGjBuTCGQEKs+kC36ILBtPC3QMP3wEDn7nfBoB6lQKdP1kCmTobB
eQYgQUAv6EB+QZLB6IHiQCzG4D5mjofBU8qhQJFTIUGT36bBwHO7QEpcAUE+i7HBTyDsQDPJIEEN
Mq7BjkSKQGY97T8ytKTBCCOjQCPukEBWko/BOVWjQIkSKEChEpzB+Q+IQK44cECWg5fBZHvIQO98
EkErQKnBBc2vQPRt2z8bUZPBQumKQG1vtkBY8ovBXvT3QHy2A0D5eZTBQOd1QEH1k0Dx85/B1Z4G
QcxeS75YAbPBLPqaQD4AQcDhEafBsMz9QFz0zUDe6oXBaKOXQIogAEEXTJnB4G4NQfM1CUELyKLB
WT7ZQCmu4z8CHq7BLjhmQO4MQ78K4qLB7WznQONaIMAkD6/BI3i+QDcKD0GEU1nBdnaSQFcf+UB+
+VnBv9OFQKR5GkEiGnPBiaS3QDX1FEFCK4DB5HfpQCsA70BEAXDBMqPVQHsA0UBUlVnBsmBWQGGx
7EBj83zBpFF0QA1sBUGiH4rB02PQQMiKqUDlvXzBAuCdQKFxsEDxd2/BjnwkQTnkyUCaJJbBYW0p
QdI+AUGcu5XBr08jQcMI5kCWoInBW4ECQSPS0D7w1IXBjwjRQDNePj/1UIDBI6LXQLkED79SE4rB
QLCXQLdUKUHiSq7BOh+HQPS7F0GNtqPB9SOrQK1tLUFC7aDBG5uwQII/CUG67bjBzyLXQNQw7kD8
VLPBQlahQNwR70CqRq7Btt3fQGecKEEldbXB9Mv1QM4KLUFtXKjBlfYDQRTQFkEbQ7DBP/KEQKdu
IEBVqKvBdnlWQDB3xD9FbKHBL86qQB7ZeEBKrojBmPXAQF1im0CWcpPBVDHAQL6pQ0Djvp/BeT9Y
QM7vVEBaY5PBkYaYQK3joT8jK4/BH6JnQMCBrEAY/4bBT3p7QAl1xEDkVpLBL/5TQBZ5hED37qTB
K2/yQFAh4EC314zBQly4QA/q/EA1nZfBLhoBQXafA0ERL53B+JiSQKciJ7/L+aXBJP3LQFXISD/G
nqzBHhrUQDLa0b/ZEK3BmTLGQBVL50CcQo7BpBIIQaTX8EAtHpTBqCXWQJwYB0HQ/p7BzQqjQKVQ
Ij/lAajB6ASrQDzq5L/Xj6jBj6LkQKkvtL59Da/BuFjZQFHVuz/8F5DBLe2uQCTEAkED22LBXqWd
QLauDUF7JnfBoFTNQO2S4EDobWjBWFqGQPid+kAYqYLBkAG4QHdkwEDj53fBWMykQDEa1kA/NobB
M5cfQTg06EBqj5LBX9vhQMm1sz4iC4jBcumfQKwYIUHS6KbBH725QPD8AEEacrHBORLqQByhIEG/
Xq7B1wKKQE3A7D9NmKTBIh2iQBFtkEBuTo/BLy6jQAD6J0DR/pvBUgeIQIMZcUDmnpfBv73GQNtY
EkEaRanB0FCvQGuh2z9ELpPBwkKKQJpxtkDW14vBg6D3QOtNAUA6gJTB/Z16QLsJlUDqI6DBkyab
QGZhQcBGnKbBWiYGQRfcUr4DNbPBI3f9QKiazUAhF4bBH4OWQLMjAEF3JJnBrLAMQQqoCUHA1qLB
qo9mQJBTRL/0b6LBbF/YQCWx4j9/R67BhevmQBbPIMDB/q7BcljAQFmlDkEzOVnB5tyTQC3k+EBN
i1nBnCuHQNdsGkGujnLBrnq4QFyoFEH1E4DB9DfqQNiz7UA7DHDB30jWQOPGz0Djn1nBGBlXQGPH
7EAlQHzBuOtzQCF9BUFRz4nBsC3QQJreqEDh8HzBcAmeQMbtr0CvVm/ByOYjQd8JykDrjJbBO/Io
QSBLAUE8CJbBGhgjQZyw5UCS9YnBJkcCQQvDQz6KTIfBSJrUQD43Ij8INoDBBonSQPmfE78u0YrB
lYmVQM3sKEEcWq7B0HGFQLV5F0GeqqPBzTqpQKBXLUGoCKHBqJyuQLerCEG327jBpIPVQPmL7UCW
N7PBJdWfQCNO7kAlFa7Br3vdQLxCKEENprXBDs/zQBIKLUHhn6jB7vMCQfCuFkHKcLDBlamEQNQJ
IECxj6vBYfxVQAJVxD8hSqHB3vinQJnrdkAaZIjBKeHAQLdDmkDHzZLBajbAQJ/CQkA7rZ/BsvlV
QEnrVkBf4JPBpuWXQFcooD9DMY/BlpxlQI8TrUA+7obBRSl7QCtqxED+TZLB6e5ZQKothkC5XKXB

>  <OMEGA_E>  (13) 
4C8WPYA2HD0=

>  <OMEGA_NBR>  (13) 
     56090

$$$$
50167974
     RDKit          3D

 75 77  0  0  1  0  0  0  0  0999 V2000
    5.8034    7.9069  -18.9535 C   0  0  0  0  0  0  0  0  0  0  0  0
    7.5994    6.9947  -17.5898 C   0  0  0  0  0  0  0  0  0  0  0  0
    8.1184    8.1870  -19.6455 C   0  0  0  0  0  0  0  0  0  0  0  0
    6.3979    0.7991  -21.5702 C   0  0  0  0  0  0  0  0  0  0  0  0
    4.5868   -0.6395  -20.7809 C   0  0  0  0  0  0  0  0  0  0  0  0
    6.6468   -1.6249  -21.6374 C   0  0  0  0  0  0  0  0  0  0  0  0
    6.2193    7.2344  -17.7776 C   0  0  0  0  0  0  0  0  0  0  0  0
    6.7456    8.4323  -19.8722 C   0  0  0  0  0  0  0  0  0  0  0  0
    5.1088    0.6475  -21.0147 C   0  0  0  0  0  0  0  0  0  0  0  0
    8.5352    7.4735  -18.5149 C   0  0  0  0  0  0  0  0  0  0  0  0
    7.1702   -0.3371  -21.8700 C   0  0  0  0  0  0  0  0  0  0  0  0
    5.3525   -1.7744  -21.0988 C   0  0  0  0  0  0  0  0  0  0  0  0
    6.8192    1.4993  -18.0184 C   0  0  0  0  0  0  0  0  0  0  0  0
    5.4076    8.1900  -14.1895 C   0  0  0  0  0  0  0  0  0  0  0  0
    4.8823    8.8666  -15.4668 C   0  0  0  0  0  0  0  0  0  0  0  0
    6.3803    7.0493  -14.5235 C   0  0  0  0  0  0  0  0  0  0  0  0
    4.1863    7.8354  -16.3661 C   0  0  0  0  0  0  0  0  0  0  0  0
    5.7377    6.0318  -15.4935 C   0  0  0  0  0  0  0  0  0  0  0  0
    5.1572    6.7014  -16.7874 C   0  0  0  0  0  0  0  0  0  0  0  0
    7.1002    0.4248  -16.9716 C   0  0  0  0  0  0  0  0  0  0  0  0
    5.0395   10.0453  -20.8667 C   0  0  0  0  0  0  0  0  0  0  0  0
    5.9174    8.0868  -22.2072 C   0  0  0  0  0  0  0  0  0  0  0  0
    7.3822   10.0837  -21.7341 C   0  0  0  0  0  0  0  0  0  0  0  0
    4.3235    1.8596  -20.5859 C   0  0  0  0  0  0  0  0  0  0  0  0
    5.0920    4.5313  -17.9407 C   0  0  0  0  0  0  0  0  0  0  0  0
    5.1058    2.6298  -19.5047 C   0  0  1  0  0  0  0  0  0  0  0  0
    4.2478    3.7513  -18.9311 C   0  0  2  0  0  0  0  0  0  0  0  0
    6.2791    9.1543  -21.1508 C   0  0  0  0  0  0  0  0  0  0  0  0
    9.8833    7.2343  -18.3136 N   0  0  0  0  0  0  0  0  0  0  0  0
    5.5031    1.7153  -18.4139 N   0  0  0  0  0  0  0  0  0  0  0  0
    4.3386    5.7091  -17.4983 N   0  0  0  0  0  0  0  0  0  0  0  0
    7.7578    2.0566  -18.5779 O   0  0  0  0  0  0  0  0  0  0  0  0
    3.8289    4.6193  -19.9845 O   0  0  0  0  0  0  0  0  0  0  0  0
    8.4179   -0.1914  -22.3698 F   0  0  0  0  0  0  0  0  0  0  0  0
    4.8493   -3.0076  -20.8712 F   0  0  0  0  0  0  0  0  0  0  0  0
    4.7482    8.0211  -19.1533 H   0  0  0  0  0  0  0  0  0  0  0  0
    7.9346    6.4384  -16.7268 H   0  0  0  0  0  0  0  0  0  0  0  0
    8.8516    8.5524  -20.3492 H   0  0  0  0  0  0  0  0  0  0  0  0
    6.7903    1.7863  -21.7646 H   0  0  0  0  0  0  0  0  0  0  0  0
    3.5997   -0.7542  -20.3579 H   0  0  0  0  0  0  0  0  0  0  0  0
    7.2377   -2.4979  -21.8719 H   0  0  0  0  0  0  0  0  0  0  0  0
    5.9302    8.9388  -13.5760 H   0  0  0  0  0  0  0  0  0  0  0  0
    4.5569    7.7819  -13.6240 H   0  0  0  0  0  0  0  0  0  0  0  0
    4.1636    9.6528  -15.1921 H   0  0  0  0  0  0  0  0  0  0  0  0
    5.7251    9.3150  -16.0132 H   0  0  0  0  0  0  0  0  0  0  0  0
    7.2813    7.4719  -14.9922 H   0  0  0  0  0  0  0  0  0  0  0  0
    6.6589    6.5318  -13.5938 H   0  0  0  0  0  0  0  0  0  0  0  0
    3.3401    7.3960  -15.8176 H   0  0  0  0  0  0  0  0  0  0  0  0
    3.8147    8.3416  -17.2693 H   0  0  0  0  0  0  0  0  0  0  0  0
    6.5028    5.2995  -15.7908 H   0  0  0  0  0  0  0  0  0  0  0  0
    4.9202    5.5155  -14.9690 H   0  0  0  0  0  0  0  0  0  0  0  0
    8.1869    0.2949  -16.8612 H   0  0  0  0  0  0  0  0  0  0  0  0
    6.6677    0.7304  -16.0074 H   0  0  0  0  0  0  0  0  0  0  0  0
    6.6481   -0.5257  -17.2914 H   0  0  0  0  0  0  0  0  0  0  0  0
    4.7281   10.5479  -21.7943 H   0  0  0  0  0  0  0  0  0  0  0  0
    4.2153    9.4189  -20.4948 H   0  0  0  0  0  0  0  0  0  0  0  0
    5.2967   10.8004  -20.1093 H   0  0  0  0  0  0  0  0  0  0  0  0
    5.5811    8.5824  -23.1299 H   0  0  0  0  0  0  0  0  0  0  0  0
    6.8027    7.4708  -22.4238 H   0  0  0  0  0  0  0  0  0  0  0  0
    5.1110    7.4466  -21.8202 H   0  0  0  0  0  0  0  0  0  0  0  0
    7.0050   10.5760  -22.6426 H   0  0  0  0  0  0  0  0  0  0  0  0
    7.6507   10.8466  -20.9885 H   0  0  0  0  0  0  0  0  0  0  0  0
    8.2712    9.4858  -21.9834 H   0  0  0  0  0  0  0  0  0  0  0  0
    4.1588    2.5145  -21.4543 H   0  0  0  0  0  0  0  0  0  0  0  0
    3.3530    1.5410  -20.1778 H   0  0  0  0  0  0  0  0  0  0  0  0
    5.3261    3.8957  -17.0740 H   0  0  0  0  0  0  0  0  0  0  0  0
    6.0270    4.8512  -18.4240 H   0  0  0  0  0  0  0  0  0  0  0  0
    6.0046    3.0673  -19.9637 H   0  0  0  0  0  0  0  0  0  0  0  0
    3.3792    3.3188  -18.4129 H   0  0  0  0  0  0  0  0  0  0  0  0
   10.4096    7.6408  -19.0605 H   0  0  0  0  0  0  0  0  0  0  0  0
   10.1679    7.6411  -17.4456 H   0  0  0  0  0  0  0  0  0  0  0  0
    4.7809    1.2210  -17.9300 H   0  0  0  0  0  0  0  0  0  0  0  0
    3.6086    5.4053  -16.8862 H   0  0  0  0  0  0  0  0  0  0  0  0
    3.9382    6.1482  -18.3026 H   0  0  0  0  0  0  0  0  0  0  0  0
    3.3001    4.1322  -20.6055 H   0  0  0  0  0  0  0  0  0  0  0  0
  1  7  2  0
  1  8  1  0
  2  7  1  0
  2 10  2  0
  3  8  2  0
  3 10  1  0
  4  9  2  0
  4 11  1  0
  5  9  1  0
  5 12  2  0
  6 11  2  0
  6 12  1  0
  7 19  1  0
  8 28  1  0
  9 24  1  0
 10 29  1  0
 11 34  1  0
 12 35  1  0
 13 20  1  0
 13 30  1  0
 13 32  2  0
 14 15  1  0
 14 16  1  0
 15 17  1  0
 16 18  1  0
 17 19  1  0
 18 19  1  0
 19 31  1  0
 21 28  1  0
 22 28  1  0
 23 28  1  0
 24 26  1  0
 25 27  1  0
 25 31  1  0
 26 27  1  0
 26 30  1  0
 27 33  1  0
  1 36  1  0
  2 37  1  0
  3 38  1  0
  4 39  1  0
  5 40  1  0
  6 41  1  0
 14 42  1  0
 14 43  1  0
 15 44  1  0
 15 45  1  0
 16 46  1  0
 16 47  1  0
 17 48  1  0
 17 49  1  0
 18 50  1  0
 18 51  1  0
 20 52  1  0
 20 53  1  0
 20 54  1  0
 21 55  1  0
 21 56  1  0
 21 57  1  0
 22 58  1  0
 22 59  1  0
 22 60  1  0
 23 61  1  0
 23 62  1  0
 23 63  1  0
 24 64  1  0
 24 65  1  0
 25 66  1  0
 25 67  1  0
 26 68  1  6
 27 69  1  1
 29 70  1  0
 29 71  1  0
 30 72  1  0
 31 73  1  0
 31 74  1  0
 33 75  1  0
M  CHG  1  31   1
M  END
>  <OMEGA_C>  (14) 
kLW5QA8F/UDOoJfBVS7zQIfU30DZt4zBz+QBQd/9AkHiKZ3B9bvMQDOPTD/Nj6zBXMeSQMq4I78+
P6bBT7LUQJn8z79NGa3BkgTHQP9/50B1OI7BRNzXQIPqBkFA+p7BWHujQJrAJT8aHqjBFpAIQbUm
70BqHpTBT3LlQDmcrL629a7BAEirQB4f479oyqjB8zbaQB/pvz+uJZDBVgutQGgKA0ENCGPB4Tuc
QLvdDUHmd3fBCSvMQPaT4UBgYGjBIvaFQDm7+kDe7YLBe5u3QKUEwUBZ5XfB8AelQCNy1kCETIbB
nDTjQEt62T7IxYfBUEOhQLa5IEEB76bBgVu9QKRjAUFiqLHBzDrsQO1WIUFy363BClqKQN8I7j/+
r6TBtvGiQM4AkUClho/BuWKjQPlNKECcCZzBqe2HQLYVcED1cpfBIO7IQB14EkHjNKnBCCIeQZR/
50BQgpLBLxmwQJuO2z+yT5PBEtaKQEuxtkCK/IvB1j/4QEqfA0CFn5TBCA11QKrRk0BA4J/Bkq8G
QZr1Q75g9bLBQS2bQNJ8QMAv+KbBfvGXQIhWAEENOpnBFOj9QL0HzkCS0IXBM6ANQaLWCEEWy6LB
bUrZQEil5D/4Ha7BKGJmQOkUQb8I3aLBO5vnQDTeH8CX+a7BhsS9QDgFD0F9N1nBT9KRQEwF+UAP
/FnBbDyFQNBxGkG/EnPBWDS3QFAKFUELG4DBAQDpQM0Z70Ds32/BFxbVQFAE0UABgFnBr8NVQPer
7EAMFX3B5CN0QEN3BUFwJ4rBOBfQQOSVqUAmp3zBgHKdQPZ+sED7gG/Bf/0CQff/lj6u44bB8F3V
QI/4Oj8xD4DBML3UQD2SBr/ZVIrB7UyXQE/EKEHGWq7BgOOGQNWzFkFv9aPBTX6pQITOLEHJ36DB
f5iyQLNRCUHyCbnBYa/ZQA8R70DtY7PBPY2jQJ9K7kC9j67BvCjgQB43KUEcJLXBc9L0QJuLLUFs
6KfBrVYEQaXFF0H63a/BRRWFQDruIEBXoqvBlJdWQBQ+xT8ZbKHBDG+qQOZTeUCSl4jB6NzAQBA9
m0BdZJPBryXAQKZOREC6tZ/BYURYQPdnVEC2TZPBjI0mQZqB9EDqe5jB6K8iQYyD9ECAkIvBOf2Y
QLlJnD+scI/Bm/JmQA34rED4FofB4Ap8QNK9xEC5a5LBZDVTQDo7hED/16TBP3S5QKtH/ECWp5fB
VzHzQCfd4EBnjYzBDb4BQSuRA0H4AZ3BKDyTQEWbJL8kFqbBVwHNQGdZSz88hazBS+7UQA2j0L8c
D63BFu3GQPhk50D5LY7BU23XQMjIBkFo+J7Byd6jQDniJD+rAqjB7IUIQc8R8UCF3JPBNqKrQLqr
478brqjB9qXlQAhUr77N8q7B5fnZQL6pvT+BK5DBXHetQHHHAkHavmLB1jedQM3XDUF1KnfBPh/M
QCiw4EDLGGjB5G2GQIwt+0Ax04LBx4W3QBGjwED94HfBR/qkQEeB1kAtPYbBJ33iQJK4xj4q7YfB
t2GhQAfkIEEnz6bBVLW6QOfFAEHgZrHBKnPrQKlBIEG8Wa7B6qyKQHTp7T9vpKTBJ2+iQEYskUAz
e4/BKnejQIjPKEBQ/5vBuNCHQPrVcEDghZfBDw/IQG4QEkH8OqnB0yoeQQJK60DnBpLBSuSvQMyQ
3T+kMpPBFn+KQE0Ct0Bj84vBpzr4QAQCAUBRvJTBkUR2QKJGlEBBAKDBg4GbQPvEQMAI36bB1LsG
QTL0Sb5HA7PB+aqXQD4T/0BAVZnBMxL+QChFz0B/oYXBQG4NQXKnCUGomKLBt5BnQD3NQb+8n6LB
zIjZQF/+4z+uGq7BLMbnQIM2IMCt967BQWi+QL+UDkE9z1jBu/KRQJDI+EAg0lnBBaqGQGeeGkHN
w3LBZYO4QF7LFEEp1n/BCVDpQGHt7UASX2/BiXbUQNm+z0B+PlnBXEZWQBlv7UDd6XzBZJR1QLXa
BUFYB4rBF/3PQGFMqUCQxXzB5VKdQOHur0CVm2/Bd5YCQVAIZT4eNofB8ILVQP9TMj+eIIDB6+fS
QFJgC78If4rB/O+WQL/FKEFJO67BqOSGQMtPF0HMi6PB0+iqQJcXLUF07qDBJZuvQIiCCEF6zbjB
20/WQJLr7EDWMrPB6LKgQK4N7kAWBq7BdNzeQN7pJ0FKn7XB/Fr1QH6lLEGynKjBPZYDQSM/FkHO
b7DBC36FQLOOIEBKn6vBKylXQK02xT9hZaHBQW6pQPBReUARjIjBCJ7AQARKm0CnPJPB4FPAQAmh
REBgpJ/B/1tXQPpeVUAygJPB/4kmQe+z+EBz9pfBrS4iQR7/+EAaFYvBT5SYQK40oj8QKo/Bowpm
QLFwrUCdEYfBv657QDwvxUAwY5LB1etUQPPJhEBQCqXB

>  <OMEGA_E>  (14) 
+MpPPqDdTz4=

>  <OMEGA_NBR>  (14) 
     58777

$$$$
50167934
     RDKit          3D

 81 83  0  0  1  0  0  0  0  0999 V2000
    5.7606    7.9992  -18.9235 C   0  0  0  0  0  0  0  0  0  0  0  0
    7.5840    7.0563  -17.6217 C   0  0  0  0  0  0  0  0  0  0  0  0
    8.0562    8.3170  -19.6485 C   0  0  0  0  0  0  0  0  0  0  0  0
    6.3434    0.6543  -21.5519 C   0  0  0  0  0  0  0  0  0  0  0  0
    4.5810   -0.7154  -20.5574 C   0  0  0  0  0  0  0  0  0  0  0  0
    6.5651   -1.7734  -21.5019 C   0  0  0  0  0  0  0  0  0  0  0  0
    6.2012    7.2858  -17.7797 C   0  0  0  0  0  0  0  0  0  0  0  0
    6.6829    8.5526  -19.8466 C   0  0  0  0  0  0  0  0  0  0  0  0
    5.0926    0.5503  -20.9072 C   0  0  0  0  0  0  0  0  0  0  0  0
    8.4969    7.6010  -18.5304 C   0  0  0  0  0  0  0  0  0  0  0  0
    7.0818   -0.5070  -21.8418 C   0  0  0  0  0  0  0  0  0  0  0  0
    5.3135   -1.8764  -20.8620 C   0  0  0  0  0  0  0  0  0  0  0  0
    6.8030    1.4561  -17.9884 C   0  0  0  0  0  0  0  0  0  0  0  0
    5.3872    8.0483  -14.1069 C   0  0  0  0  0  0  0  0  0  0  0  0
    4.8645    8.7926  -15.3464 C   0  0  0  0  0  0  0  0  0  0  0  0
    6.3855    6.9520  -14.5061 C   0  0  0  0  0  0  0  0  0  0  0  0
    4.1824    7.8071  -16.3067 C   0  0  0  0  0  0  0  0  0  0  0  0
    5.7685    5.9802  -15.5356 C   0  0  0  0  0  0  0  0  0  0  0  0
    5.1633    6.7055  -16.7909 C   0  0  0  0  0  0  0  0  0  0  0  0
    7.0317    0.4525  -16.8612 C   0  0  0  0  0  0  0  0  0  0  0  0
    5.0180   10.2603  -20.7250 C   0  0  0  0  0  0  0  0  0  0  0  0
    5.7313    8.2770  -22.1325 C   0  0  0  0  0  0  0  0  0  0  0  0
    7.3061   10.1999  -21.7273 C   0  0  0  0  0  0  0  0  0  0  0  0
    9.7893    9.1805  -15.8797 C   0  0  0  0  0  0  0  0  0  0  0  0
    4.3304    1.7958  -20.5326 C   0  0  0  0  0  0  0  0  0  0  0  0
    5.1285    4.5820  -18.0224 C   0  0  0  0  0  0  0  0  0  0  0  0
    5.1277    2.6137  -19.4999 C   0  0  1  0  0  0  0  0  0  0  0  0
    4.2857    3.7833  -18.9960 C   0  0  2  0  0  0  0  0  0  0  0  0
    6.1940    9.3160  -21.0891 C   0  0  0  0  0  0  0  0  0  0  0  0
    9.8381    7.5853  -18.2144 N   0  0  0  0  0  0  0  0  0  0  0  0
    5.4952    1.7615  -18.3498 N   0  0  0  0  0  0  0  0  0  0  0  0
    4.3551    5.7307  -17.5385 N   0  0  0  0  0  0  0  0  0  0  0  0
    7.7597    1.8555  -18.6436 O   0  0  0  0  0  0  0  0  0  0  0  0
   11.9260    8.8409  -17.4198 O   0  0  0  0  0  0  0  0  0  0  0  0
    9.9578   10.1767  -18.3267 O   0  0  0  0  0  0  0  0  0  0  0  0
    3.9058    4.6195  -20.0883 O   0  0  0  0  0  0  0  0  0  0  0  0
    8.2869   -0.4059  -22.4456 F   0  0  0  0  0  0  0  0  0  0  0  0
    4.8170   -3.0900  -20.5342 F   0  0  0  0  0  0  0  0  0  0  0  0
   10.4781    9.0376  -17.5537 S   0  0  0  0  0  0  0  0  0  0  0  0
    4.7015    8.1232  -19.0945 H   0  0  0  0  0  0  0  0  0  0  0  0
    7.9391    6.4576  -16.7959 H   0  0  0  0  0  0  0  0  0  0  0  0
    8.7738    8.6910  -20.3636 H   0  0  0  0  0  0  0  0  0  0  0  0
    6.7333    1.6245  -21.8224 H   0  0  0  0  0  0  0  0  0  0  0  0
    3.6276   -0.7935  -20.0561 H   0  0  0  0  0  0  0  0  0  0  0  0
    7.1286   -2.6656  -21.7319 H   0  0  0  0  0  0  0  0  0  0  0  0
    5.8881    8.7660  -13.4405 H   0  0  0  0  0  0  0  0  0  0  0  0
    4.5391    7.5880  -13.5790 H   0  0  0  0  0  0  0  0  0  0  0  0
    4.1377    9.5562  -15.0323 H   0  0  0  0  0  0  0  0  0  0  0  0
    5.7069    9.2779  -15.8611 H   0  0  0  0  0  0  0  0  0  0  0  0
    7.2771    7.4222  -14.9466 H   0  0  0  0  0  0  0  0  0  0  0  0
    6.6750    6.3866  -13.6081 H   0  0  0  0  0  0  0  0  0  0  0  0
    3.3384    7.3297  -15.7875 H   0  0  0  0  0  0  0  0  0  0  0  0
    3.8093    8.3613  -17.1805 H   0  0  0  0  0  0  0  0  0  0  0  0
    6.5531    5.2887  -15.8766 H   0  0  0  0  0  0  0  0  0  0  0  0
    4.9674    5.4109  -15.0415 H   0  0  0  0  0  0  0  0  0  0  0  0
    8.1033    0.2139  -16.7938 H   0  0  0  0  0  0  0  0  0  0  0  0
    6.6923    0.8869  -15.9093 H   0  0  0  0  0  0  0  0  0  0  0  0
    6.4638   -0.4666  -17.0679 H   0  0  0  0  0  0  0  0  0  0  0  0
    4.6843   10.7955  -21.6262 H   0  0  0  0  0  0  0  0  0  0  0  0
    4.1840    9.6679  -20.3205 H   0  0  0  0  0  0  0  0  0  0  0  0
    5.3518   10.9869  -19.9696 H   0  0  0  0  0  0  0  0  0  0  0  0
    5.3752    8.7960  -23.0346 H   0  0  0  0  0  0  0  0  0  0  0  0
    6.5744    7.6212  -22.3956 H   0  0  0  0  0  0  0  0  0  0  0  0
    4.9145    7.6728  -21.7108 H   0  0  0  0  0  0  0  0  0  0  0  0
    6.9015   10.7201  -22.6080 H   0  0  0  0  0  0  0  0  0  0  0  0
    7.6531   10.9404  -20.9915 H   0  0  0  0  0  0  0  0  0  0  0  0
    8.1497    9.5636  -22.0329 H   0  0  0  0  0  0  0  0  0  0  0  0
   10.1666   10.0980  -15.4045 H   0  0  0  0  0  0  0  0  0  0  0  0
    8.6916    9.2224  -15.9374 H   0  0  0  0  0  0  0  0  0  0  0  0
   10.0920    8.3075  -15.2830 H   0  0  0  0  0  0  0  0  0  0  0  0
    4.1668    2.4067  -21.4327 H   0  0  0  0  0  0  0  0  0  0  0  0
    3.3594    1.5119  -20.1007 H   0  0  0  0  0  0  0  0  0  0  0  0
    5.4101    3.9442  -17.1715 H   0  0  0  0  0  0  0  0  0  0  0  0
    6.0370    4.9385  -18.5299 H   0  0  0  0  0  0  0  0  0  0  0  0
    6.0373    3.0047  -19.9791 H   0  0  0  0  0  0  0  0  0  0  0  0
    3.3972    3.3942  -18.4772 H   0  0  0  0  0  0  0  0  0  0  0  0
    9.9860    6.8552  -17.5473 H   0  0  0  0  0  0  0  0  0  0  0  0
    4.7556    1.3796  -17.7956 H   0  0  0  0  0  0  0  0  0  0  0  0
    3.6293    5.3942  -16.9386 H   0  0  0  0  0  0  0  0  0  0  0  0
    3.9486    6.1937  -18.3262 H   0  0  0  0  0  0  0  0  0  0  0  0
    3.3772    4.1211  -20.7004 H   0  0  0  0  0  0  0  0  0  0  0  0
  1  7  2  0
  1  8  1  0
  2  7  1  0
  2 10  2  0
  3  8  2  0
  3 10  1  0
  4  9  2  0
  4 11  1  0
  5  9  1  0
  5 12  2  0
  6 11  2  0
  6 12  1  0
  7 19  1  0
  8 29  1  0
  9 25  1  0
 10 30  1  0
 11 37  1  0
 12 38  1  0
 13 20  1  0
 13 31  1  0
 13 33  2  0
 14 15  1  0
 14 16  1  0
 15 17  1  0
 16 18  1  0
 17 19  1  0
 18 19  1  0
 19 32  1  0
 21 29  1  0
 22 29  1  0
 23 29  1  0
 24 39  1  0
 25 27  1  0
 26 28  1  0
 26 32  1  0
 27 28  1  0
 27 31  1  0
 28 36  1  0
 30 39  1  0
 34 39  2  0
 35 39  2  0
  1 40  1  0
  2 41  1  0
  3 42  1  0
  4 43  1  0
  5 44  1  0
  6 45  1  0
 14 46  1  0
 14 47  1  0
 15 48  1  0
 15 49  1  0
 16 50  1  0
 16 51  1  0
 17 52  1  0
 17 53  1  0
 18 54  1  0
 18 55  1  0
 20 56  1  0
 20 57  1  0
 20 58  1  0
 21 59  1  0
 21 60  1  0
 21 61  1  0
 22 62  1  0
 22 63  1  0
 22 64  1  0
 23 65  1  0
 23 66  1  0
 23 67  1  0
 24 68  1  0
 24 69  1  0
 24 70  1  0
 25 71  1  0
 25 72  1  0
 26 73  1  0
 26 74  1  0
 27 75  1  6
 28 76  1  1
 30 77  1  0
 31 78  1  0
 32 79  1  0
 32 80  1  0
 36 81  1  0
M  CHG  1  32   1
M  END
>  <OMEGA_C>  (15) 
/Va4QGv5/0BJY5fBS7DyQPbM4UAp+YzBFeYAQWESBUEKMJ3BOv3KQB+BJz9aaqzBv5eSQNEiN7+g
daTBmRXSQCEA47/cA6zBL3DGQKgl6UC+PI7BjNrVQIvXCEHmxZ7BfvaiQJHfDD//QafBUfMHQY07
80AuPpTBX57iQO3NAb8NvK7BWgiqQEwv8L9k5abBK7LZQBRhuj8l6I/BWWSsQLHFAEH5tWHBU6qb
QFquDEGyinXBDVbMQO123kAPGWjBodaFQIzT+UAsdILBrJe4QKRdv0CwkXjBsDmlQC6T1kDWU4bB
VwPhQHS05z6544bBuJOgQDMqJEG3zKXB1ma3QJZuBEFZD7HBqMvpQLAyI0Fp0a3BxaAcQX3jEkFO
E37BUpKKQMfb5T/eQqTB1RykQHefkkDtLZDBGxakQEZHJ0C2/5vBsySJQE4hckDi95fBojXGQHoO
FUF+tqjB0WgdQbS68kAwt5HB19ivQEh44T9szJLBzVyLQCVit0DjTozBtU/4QPaB7T8sJpXBFdE+
QWN0DUHWW4vBI1MfQZrTIkELnZLB0/h5QEvTk0DUtKDBH5cEQQPRz76DkLPBoySaQD3CRcAXRqTB
YqYnQe+ZEEH4bYzBjXKWQKP4AUGUwZjB9wz+QJikzkD1XYbBmGEMQW4OC0G26KLBzXbXQITvzz9V
lK7BJStoQFAjS7/hcqDB3h3kQGOZKsDZ2q3B+Gq8QGpBDEFlDFfB5j+RQLbQ8kCjQ1nBOmiEQArm
GEEphHDBjZ62QBtyFEE/x33Bt93oQMaC7UBTJW/BtZnVQMBezEC/ulnBxKdVQNGM6kB7mXzBRMtz
QOvHBUHEcYnBBLPRQAk9qUBmBn7B/fSeQLklrUAHqnDBT6cBQXoOWz66WYbBWyfWQLQMYz9ZjH7B
UtfOQNvh7r4mi4jB3OWVQIq6LEFcAq3BpeOFQNWvGkF8kKLB/UGrQIvKL0G5wZ/B/wGsQH+8DEHp
RrjBN2HSQCrh80AqKrPBzEOdQJ+H9UC4r63B4tjcQF2FK0Ej3bTB7eX0QLALL0Ge7qfBUGUCQVoE
GUFTQ7DBU6oiQYORIUHJeHbBpRALQQaPE0Gk/37B43ghQXHrBEELh3TBW1aFQBsHGkAadqvBpf9W
QJCHwT82zqDBih+tQDRufEBSX4nBUS/BQDoInkAqPZTB0DHBQP1MQEBG1Z/B2mtZQOU6WUBf0ZPB
z8YfQcJd20DkYIzBAC6YQKSXsD9cXY7BC0ZoQAqdrEAygofBdbV8QJEyxkAOnJLBzSNYQD3gg0Ba
mqXB

>  <OMEGA_E>  (15) 
AAa5Pg==

>  <OMEGA_NBR>  (15) 
     60410

$$$$
50167976
     RDKit          3D

 78 80  0  0  1  0  0  0  0  0999 V2000
    7.5716    7.5678  -17.5543 C   0  0  0  0  0  0  0  0  0  0  0  0
    7.7918    9.0413  -19.4795 C   0  0  0  0  0  0  0  0  0  0  0  0
    5.5903    8.2623  -18.7849 C   0  0  0  0  0  0  0  0  0  0  0  0
    5.6342    0.1067  -21.7978 C   0  0  0  0  0  0  0  0  0  0  0  0
    4.5759   -0.8651  -19.8213 C   0  0  0  0  0  0  0  0  0  0  0  0
    5.9916   -2.2475  -21.2507 C   0  0  0  0  0  0  0  0  0  0  0  0
    8.3835    8.3332  -18.4128 C   0  0  0  0  0  0  0  0  0  0  0  0
    6.1654    7.5464  -17.7065 C   0  0  0  0  0  0  0  0  0  0  0  0
    6.3919    9.0108  -19.6842 C   0  0  0  0  0  0  0  0  0  0  0  0
    4.7966    0.2441  -20.6691 C   0  0  0  0  0  0  0  0  0  0  0  0
    6.2232   -1.1402  -22.0933 C   0  0  0  0  0  0  0  0  0  0  0  0
    5.1714   -2.1086  -20.1121 C   0  0  0  0  0  0  0  0  0  0  0  0
    9.8482    8.3971  -18.1888 C   0  0  0  0  0  0  0  0  0  0  0  0
    6.7466    1.4574  -17.8440 C   0  0  0  0  0  0  0  0  0  0  0  0
    5.4882    7.7364  -13.9125 C   0  0  0  0  0  0  0  0  0  0  0  0
    4.8138    8.5705  -15.0177 C   0  0  0  0  0  0  0  0  0  0  0  0
    6.5636    6.8089  -14.5000 C   0  0  0  0  0  0  0  0  0  0  0  0
    4.1876    7.6500  -16.0871 C   0  0  0  0  0  0  0  0  0  0  0  0
    5.9961    5.9188  -15.6417 C   0  0  0  0  0  0  0  0  0  0  0  0
    5.2448    6.7219  -16.7677 C   0  0  0  0  0  0  0  0  0  0  0  0
   10.4399    8.1607  -16.7868 C   0  0  0  0  0  0  0  0  0  0  0  0
    6.9375    0.6608  -16.5518 C   0  0  0  0  0  0  0  0  0  0  0  0
    6.3795    9.2630  -22.2029 C   0  0  0  0  0  0  0  0  0  0  0  0
    6.1108   11.3039  -20.7209 C   0  0  0  0  0  0  0  0  0  0  0  0
    4.2316    9.6569  -20.9653 C   0  0  0  0  0  0  0  0  0  0  0  0
    4.1644    1.5882  -20.3460 C   0  0  0  0  0  0  0  0  0  0  0  0
    5.3067    4.7063  -18.2679 C   0  0  0  0  0  0  0  0  0  0  0  0
    5.1075    2.4826  -19.4963 C   0  0  1  0  0  0  0  0  0  0  0  0
    4.4077    3.8211  -19.1497 C   0  0  2  0  0  0  0  0  0  0  0  0
    5.7799    9.7935  -20.8715 C   0  0  0  0  0  0  0  0  0  0  0  0
    5.4508    1.7780  -18.2416 N   0  0  0  0  0  0  0  0  0  0  0  0
    4.4813    5.7586  -17.6189 N   0  0  0  0  0  0  0  0  0  0  0  0
   10.6099    8.5494  -19.1376 O   0  0  0  0  0  0  0  0  0  0  0  0
    7.7165    1.6970  -18.5561 O   0  0  0  0  0  0  0  0  0  0  0  0
    4.0932    4.5381  -20.3453 O   0  0  0  0  0  0  0  0  0  0  0  0
    7.0091   -1.2747  -23.1867 F   0  0  0  0  0  0  0  0  0  0  0  0
    4.9528   -3.1688  -19.2999 F   0  0  0  0  0  0  0  0  0  0  0  0
    8.0296    6.9876  -16.7668 H   0  0  0  0  0  0  0  0  0  0  0  0
    8.4157    9.6146  -20.1493 H   0  0  0  0  0  0  0  0  0  0  0  0
    4.5197    8.2376  -18.9253 H   0  0  0  0  0  0  0  0  0  0  0  0
    5.8240    0.9574  -22.4354 H   0  0  0  0  0  0  0  0  0  0  0  0
    3.9490   -0.7592  -18.9482 H   0  0  0  0  0  0  0  0  0  0  0  0
    6.4426   -3.2022  -21.4778 H   0  0  0  0  0  0  0  0  0  0  0  0
    5.9573    8.4155  -13.1853 H   0  0  0  0  0  0  0  0  0  0  0  0
    4.7254    7.1269  -13.4059 H   0  0  0  0  0  0  0  0  0  0  0  0
    4.0253    9.1934  -14.5703 H   0  0  0  0  0  0  0  0  0  0  0  0
    5.5663    9.2169  -15.4929 H   0  0  0  0  0  0  0  0  0  0  0  0
    7.3833    7.4230  -14.9011 H   0  0  0  0  0  0  0  0  0  0  0  0
    6.9494    6.1595  -13.7003 H   0  0  0  0  0  0  0  0  0  0  0  0
    3.4223    7.0217  -15.6080 H   0  0  0  0  0  0  0  0  0  0  0  0
    3.7172    8.2756  -16.8599 H   0  0  0  0  0  0  0  0  0  0  0  0
    6.8328    5.3750  -16.1045 H   0  0  0  0  0  0  0  0  0  0  0  0
    5.2904    5.1993  -15.2007 H   0  0  0  0  0  0  0  0  0  0  0  0
   11.5383    8.1634  -16.8466 H   0  0  0  0  0  0  0  0  0  0  0  0
   10.1078    8.9609  -16.1091 H   0  0  0  0  0  0  0  0  0  0  0  0
   10.0961    7.1889  -16.4029 H   0  0  0  0  0  0  0  0  0  0  0  0
    7.9991    0.3964  -16.4369 H   0  0  0  0  0  0  0  0  0  0  0  0
    6.6169    1.2708  -15.6944 H   0  0  0  0  0  0  0  0  0  0  0  0
    6.3336   -0.2576  -16.5947 H   0  0  0  0  0  0  0  0  0  0  0  0
    5.9458    9.8179  -23.0479 H   0  0  0  0  0  0  0  0  0  0  0  0
    7.4707    9.4019  -22.1946 H   0  0  0  0  0  0  0  0  0  0  0  0
    6.1470    8.1931  -22.3091 H   0  0  0  0  0  0  0  0  0  0  0  0
    5.6763   11.8608  -21.5642 H   0  0  0  0  0  0  0  0  0  0  0  0
    5.6885   11.6794  -19.7772 H   0  0  0  0  0  0  0  0  0  0  0  0
    7.2022   11.4411  -20.7145 H   0  0  0  0  0  0  0  0  0  0  0  0
    3.8636   10.2344  -21.8261 H   0  0  0  0  0  0  0  0  0  0  0  0
    3.9642    8.5976  -21.0932 H   0  0  0  0  0  0  0  0  0  0  0  0
    3.7731   10.0420  -20.0426 H   0  0  0  0  0  0  0  0  0  0  0  0
    3.9339    2.1083  -21.2875 H   0  0  0  0  0  0  0  0  0  0  0  0
    3.2343    1.4177  -19.7840 H   0  0  0  0  0  0  0  0  0  0  0  0
    5.7860    4.0874  -17.4950 H   0  0  0  0  0  0  0  0  0  0  0  0
    6.0803    5.1791  -18.8909 H   0  0  0  0  0  0  0  0  0  0  0  0
    6.0203    2.6922  -20.0732 H   0  0  0  0  0  0  0  0  0  0  0  0
    3.4860    3.5961  -18.5930 H   0  0  0  0  0  0  0  0  0  0  0  0
    4.6999    1.5133  -17.6365 H   0  0  0  0  0  0  0  0  0  0  0  0
    3.7998    5.3074  -17.0427 H   0  0  0  0  0  0  0  0  0  0  0  0
    4.0190    6.2780  -18.3376 H   0  0  0  0  0  0  0  0  0  0  0  0
    3.5379    4.0025  -20.8996 H   0  0  0  0  0  0  0  0  0  0  0  0
  1  7  2  0
  1  8  1  0
  2  7  1  0
  2  9  2  0
  3  8  2  0
  3  9  1  0
  4 10  2  0
  4 11  1  0
  5 10  1  0
  5 12  2  0
  6 11  2  0
  6 12  1  0
  7 13  1  0
  8 20  1  0
  9 30  1  0
 10 26  1  0
 11 36  1  0
 12 37  1  0
 13 21  1  0
 13 33  2  0
 14 22  1  0
 14 31  1  0
 14 34  2  0
 15 16  1  0
 15 17  1  0
 16 18  1  0
 17 19  1  0
 18 20  1  0
 19 20  1  0
 20 32  1  0
 23 30  1  0
 24 30  1  0
 25 30  1  0
 26 28  1  0
 27 29  1  0
 27 32  1  0
 28 29  1  0
 28 31  1  0
 29 35  1  0
  1 38  1  0
  2 39  1  0
  3 40  1  0
  4 41  1  0
  5 42  1  0
  6 43  1  0
 15 44  1  0
 15 45  1  0
 16 46  1  0
 16 47  1  0
 17 48  1  0
 17 49  1  0
 18 50  1  0
 18 51  1  0
 19 52  1  0
 19 53  1  0
 21 54  1  0
 21 55  1  0
 21 56  1  0
 22 57  1  0
 22 58  1  0
 22 59  1  0
 23 60  1  0
 23 61  1  0
 23 62  1  0
 24 63  1  0
 24 64  1  0
 24 65  1  0
 25 66  1  0
 25 67  1  0
 25 68  1  0
 26 69  1  0
 26 70  1  0
 27 71  1  0
 27 72  1  0
 28 73  1  6
 29 74  1  1
 31 75  1  0
 32 76  1  0
 32 77  1  0
 35 78  1  0
M  CHG  1  32   1
M  END
>  <OMEGA_C>  (16) 
PUryQBgr8kAcb4zBqlb5QFCpEEEa1pvBceOyQDYyBEGPR5bBsEu0QLJs2j3rYa7BdG2SQEx2Xb8A
kp7BILu/QGTXD8B1AarB0yIGQbJUBUFwTZPB1krFQEJ88UDzpo3BlYrMQGwsEEEveZ3Bc32ZQJTq
eT5aWqXBtiTHQNvykb8Sv7DBUHylQJ/zBsCE5aDBU5IdQZNaBkG6gpHBPeTXQE2Luj+KwI7BmJ+v
QOSQ90CkmV7BngqaQLUgCUGVSHDBTgnSQDTi2UDU/2fB5wCGQPLM9EBSsoDB3t+/QGhmvUA4RHrB
B9WnQHEZ10AuJIbBAgonQTSSAkFbS4bBVQDeQJQrKT8GaoTB+yTMQCQ1FEGTn7HB/YvDQMbcNEF9
xKXBrWmHQKOCGkHwuKfBnUKFQIxJyz+MxKLBxtCpQLqZlkCjJJLBZnCjQD3jHkBy+JvBEQyNQD2M
dECJMpnBsvS4QCuyHEHW+KbBKm2uQCiU4z/E7pHBKmePQEpGuECF84zBBsIpQYTKCEHhGZnB7e32
QEU42T/jcpTBSvuCQF84kUAxw6LByUrgQDMpo79sfrnBAn2eQK/NSsAxZprBb3kAQdCa30B6IobB
m6YGQZDVGUG2MaHBfaGQQBLNA0EXZ5fBPF66QNwadT+/e7PBFL18QBlcQr/plZfBACrOQNTwTMB9
0qvBjKK+QNClBkH+9lLBjzaXQOsP5ECzflbBE8+AQC4YE0HTH2nBWh+yQIZ4E0H+4nfBUUTsQFSJ
7UDaam7B22HeQIQaxUBoNFvBGgdbQOux4EAtunnBQuZtQOhoBEEo4YbBXabaQEsArEAV1oDBJ0up
QGdgpkBFNnPB8Jw4QSWdAkHIxYbBj7khQe5fD0Fc34DBs4khQTkL5kA7OYPBfPj/QLTyyj64foPB
i73TQI6qoj9KHHvBzazKQM7dg77ewYTB9EO+QDsWHUEAYrjBtw/vQF9uFkF3jrHB0bPEQOcWA0Hx
eLLBn6S1QAHGPUFrg6zBYwi2QLXeOkGuN57BpnjmQNAON0FZt6XBuER3QOe/I0H0m67BAbZ9QLWP
CUHWvqjBD3txQAmsIEEoV6DBr8R7QJLtBkC2TKrBAv5OQIx4tT+hRZ7BHCe5QCvMgkDR9YvBfpHC
QOC6pUCHIJfBKKbAQItNLED6laDBsRpfQEknZkCJvpTB2GWWQCazwT+YF43BEzBzQJjWqUB+V4jB
9puAQCLlyEBjs5LBhmxiQB0UgEBLMqfB

>  <OMEGA_E>  (16) 
JCUaPw==

>  <OMEGA_NBR>  (16) 
     61995

$$$$
50167987
     RDKit          3D

 61 63  0  0  1  0  0  0  0  0999 V2000
    7.7018    8.7712  -19.9181 C   0  0  0  0  0  0  0  0  0  0  0  0
    6.2979    8.8244  -19.9578 C   0  0  0  0  0  0  0  0  0  0  0  0
    8.3424    8.0422  -18.8964 C   0  0  0  0  0  0  0  0  0  0  0  0
    5.5398    8.1574  -18.9733 C   0  0  0  0  0  0  0  0  0  0  0  0
    7.5852    7.3822  -17.9003 C   0  0  0  0  0  0  0  0  0  0  0  0
    4.5659   -0.6118  -20.9087 C   0  0  0  0  0  0  0  0  0  0  0  0
    6.4897    0.7809  -21.4844 C   0  0  0  0  0  0  0  0  0  0  0  0
    6.6484   -1.6456  -21.6458 C   0  0  0  0  0  0  0  0  0  0  0  0
    6.1655    7.4472  -17.9101 C   0  0  0  0  0  0  0  0  0  0  0  0
    5.1554    0.6602  -21.0376 C   0  0  0  0  0  0  0  0  0  0  0  0
    5.3093   -1.7629  -21.2208 C   0  0  0  0  0  0  0  0  0  0  0  0
    7.2394   -0.3727  -21.7737 C   0  0  0  0  0  0  0  0  0  0  0  0
    6.6375    1.3196  -17.8925 C   0  0  0  0  0  0  0  0  0  0  0  0
    5.4551    7.7621  -14.0207 C   0  0  0  0  0  0  0  0  0  0  0  0
    4.8612    8.6140  -15.1503 C   0  0  0  0  0  0  0  0  0  0  0  0
    6.5638    6.8574  -14.5747 C   0  0  0  0  0  0  0  0  0  0  0  0
    4.2420    7.7077  -16.2175 C   0  0  0  0  0  0  0  0  0  0  0  0
    6.0330    5.9525  -15.6977 C   0  0  0  0  0  0  0  0  0  0  0  0
    5.2737    6.7244  -16.8452 C   0  0  0  0  0  0  0  0  0  0  0  0
    6.7735    0.1721  -16.8947 C   0  0  0  0  0  0  0  0  0  0  0  0
    4.3825    1.8848  -20.6231 C   0  0  0  0  0  0  0  0  0  0  0  0
    5.1430    4.5256  -17.9576 C   0  0  0  0  0  0  0  0  0  0  0  0
    5.1154    2.5946  -19.4688 C   0  0  1  0  0  0  0  0  0  0  0  0
    4.2847    3.7587  -18.9425 C   0  0  2  0  0  0  0  0  0  0  0  0
    5.3701    1.6428  -18.3668 N   0  0  0  0  0  0  0  0  0  0  0  0
    4.4340    5.7426  -17.5552 N   0  0  0  0  0  0  0  0  0  0  0  0
    7.6481    1.8291  -18.3653 O   0  0  0  0  0  0  0  0  0  0  0  0
    3.9246    4.6260  -20.0172 O   0  0  0  0  0  0  0  0  0  0  0  0
    4.7390   -2.9817  -21.0997 F   0  0  0  0  0  0  0  0  0  0  0  0
    8.5284   -0.2583  -22.1651 F   0  0  0  0  0  0  0  0  0  0  0  0
    8.2862    9.2860  -20.6663 H   0  0  0  0  0  0  0  0  0  0  0  0
    5.8000    9.3757  -20.7417 H   0  0  0  0  0  0  0  0  0  0  0  0
    9.4207    7.9869  -18.8735 H   0  0  0  0  0  0  0  0  0  0  0  0
    4.4615    8.1861  -19.0272 H   0  0  0  0  0  0  0  0  0  0  0  0
    8.0902    6.8241  -17.1258 H   0  0  0  0  0  0  0  0  0  0  0  0
    3.5443   -0.7029  -20.5706 H   0  0  0  0  0  0  0  0  0  0  0  0
    6.9336    1.7582  -21.6037 H   0  0  0  0  0  0  0  0  0  0  0  0
    7.2217   -2.5321  -21.8737 H   0  0  0  0  0  0  0  0  0  0  0  0
    5.8758    8.4229  -13.2484 H   0  0  0  0  0  0  0  0  0  0  0  0
    4.6633    7.1394  -13.5788 H   0  0  0  0  0  0  0  0  0  0  0  0
    4.0847    9.2754  -14.7385 H   0  0  0  0  0  0  0  0  0  0  0  0
    5.6570    9.2220  -15.6054 H   0  0  0  0  0  0  0  0  0  0  0  0
    7.3741    7.4857  -14.9729 H   0  0  0  0  0  0  0  0  0  0  0  0
    6.9537    6.2283  -13.7610 H   0  0  0  0  0  0  0  0  0  0  0  0
    3.4338    7.1218  -15.7555 H   0  0  0  0  0  0  0  0  0  0  0  0
    3.8265    8.3389  -17.0169 H   0  0  0  0  0  0  0  0  0  0  0  0
    6.8860    5.4213  -16.1450 H   0  0  0  0  0  0  0  0  0  0  0  0
    5.3387    5.2235  -15.2543 H   0  0  0  0  0  0  0  0  0  0  0  0
    7.8387   -0.0486  -16.7318 H   0  0  0  0  0  0  0  0  0  0  0  0
    6.3085    0.4594  -15.9401 H   0  0  0  0  0  0  0  0  0  0  0  0
    6.2708   -0.7216  -17.2931 H   0  0  0  0  0  0  0  0  0  0  0  0
    4.2973    2.5707  -21.4789 H   0  0  0  0  0  0  0  0  0  0  0  0
    3.3771    1.5875  -20.2901 H   0  0  0  0  0  0  0  0  0  0  0  0
    5.3364    3.9016  -17.0727 H   0  0  0  0  0  0  0  0  0  0  0  0
    6.0981    4.7949  -18.4322 H   0  0  0  0  0  0  0  0  0  0  0  0
    6.0728    2.9831  -19.8462 H   0  0  0  0  0  0  0  0  0  0  0  0
    3.3902    3.3722  -18.4322 H   0  0  0  0  0  0  0  0  0  0  0  0
    4.5822    1.2038  -17.9351 H   0  0  0  0  0  0  0  0  0  0  0  0
    3.6797    5.4813  -16.9530 H   0  0  0  0  0  0  0  0  0  0  0  0
    4.0685    6.1789  -18.3774 H   0  0  0  0  0  0  0  0  0  0  0  0
    3.3857    4.1524  -20.6399 H   0  0  0  0  0  0  0  0  0  0  0  0
  1  2  2  0
  1  3  1  0
  2  4  1  0
  3  5  2  0
  4  9  2  0
  5  9  1  0
  6 10  2  0
  6 11  1  0
  7 10  1  0
  7 12  2  0
  8 11  2  0
  8 12  1  0
  9 19  1  0
 10 21  1  0
 11 29  1  0
 12 30  1  0
 13 20  1  0
 13 25  1  0
 13 27  2  0
 14 15  1  0
 14 16  1  0
 15 17  1  0
 16 18  1  0
 17 19  1  0
 18 19  1  0
 19 26  1  0
 21 23  1  0
 22 24  1  0
 22 26  1  0
 23 24  1  0
 23 25  1  0
 24 28  1  0
  1 31  1  0
  2 32  1  0
  3 33  1  0
  4 34  1  0
  5 35  1  0
  6 36  1  0
  7 37  1  0
  8 38  1  0
 14 39  1  0
 14 40  1  0
 15 41  1  0
 15 42  1  0
 16 43  1  0
 16 44  1  0
 17 45  1  0
 17 46  1  0
 18 47  1  0
 18 48  1  0
 20 49  1  0
 20 50  1  0
 20 51  1  0
 21 52  1  0
 21 53  1  0
 22 54  1  0
 22 55  1  0
 23 56  1  6
 24 57  1  1
 25 58  1  0
 26 59  1  0
 26 60  1  0
 28 61  1  0
M  CHG  1  26   1
M  END
>  <OMEGA_C>  (17) 
1XT2QM1WDEFTWJ/Bn4jJQJkwDUGBqZ/BbHoFQbKsAEHCK5fBtUWxQM6EAkFPyZfBn7nyQLo67EDl
M4/BFhySQKagHL8HRafB76vPQODqRz8S4KvBa7/UQLej0r+zKq3BnEvFQGBP7kDOR4/BLfmkQPYB
KT/3TKjBx+WpQD2l4b85xKnBbannQMzQvr59MK7Bz2bUQOHnqD/KI4/Bi5CuQEJj+EC4VGDBHI+b
QBDTCUHGZ3LBawrSQCRw20D8MWnBo76HQNKl9kCIvYHBGw7BQN96vkC2KXvBwMGoQDIu10AHw4bB
S8DYQPA2MD5eKIfBEj2MQJFC8T8Y/KTBcZOkQB7SkEA9qY/BKbGjQK4OJkACwJvBNxyJQEaPcEBI
ipfBMtirQKtI0j8l75LBouONQP7Ct0AScYzB9bz0QB0f6j8e7JLBJC17QPgHlEAnI6DBfKWXQP7T
PsAkzKjBenQIQW5EhL4MUrHBIJQEQZGTFEGpVKXB4pm5QL8CFkEE76XBT7sWQVaU/0AH/ZbBfcSO
QFT6AkGkN5jBjnEBQche2kC9AYnBRNViQCzuM7+SkKTBQ+DdQMMN4T901KzBLhjnQEsNIsBQ/a7B
jAa8QC3EBkFy+VPBxTmVQBF25EDuQlnBuLWCQOlnFEHW0GvBTAa1QDiNE0HNr3nB0fjrQAOL70At
kW/BzoTeQG5Ox0DvLFzBv8NbQObl40BzFnzBGuV0QDZsBUGUIojBWFrcQF97rUAOKYHBBdeqQNwm
p0CLEXTB09b6QEnyRr2m2oXB+t7JQEYz6z7ACn/BjKrIQNu3OL9aWIrBvoOJQKOFJEDM1KvBwiJY
QA0zyz8dUqLBhcOqQDKzeUDglIjB2SPDQCxwmUAmdZPBVFTCQP/qPkABxZ7B/fhYQLzRV0AfdZPB
/KCSQM0Vmj8qe4/BtH9rQC5nr0Csn4fBvzCCQIC5xUDcBJPBH7BYQE3ghECMHqXBxP31QLHnDEHo
Rp/B6hbJQAkRDkFfXp/BX2QFQWrOAEHTTpfBzCSxQNQ3A0HMf5fBhN3yQIg/7EBIUI/BzkfPQLwQ
SD/IzqvB1v2RQAoaH7/DLKfBHr3UQNxk0r8FH63BnHHFQOrV7kAXMI/BZKSkQHQzJz/RM6jBVm/n
QLgzvL4mJq7BRPGpQAVR4r/VsKnBuoHUQJhlqj9NG4/BlHSuQGLv9kClEWDB1SibQK88CUHL83HB
GDXSQDmM2kDNImnBFLGHQCq19UCumYHBqoTBQIDsvUBeTnvBJRWpQFb71kB5wIbBlBrZQNDDRD7j
DofBm7iLQDCr7z/A3aTBv9GkQOjskEAcx4/BbGmjQBTQJUDLuJvBlvyIQKyIcEAGi5fBy9arQMLp
0j+73JLBaFWOQPPut0ASlIzBzLn0QBIu6z8F+5LBOHp6QNvIk0AjK6DBDlIIQcCIe779S7HBY+qX
QFRVP8DDrqjBnDoEQaM7FUHbRqXB2+24QC1EF0EYd6XBl6IWQXxa/0AyTZfBpKCOQDPgA0GPyJfB
BqABQc7T2UA2QonBck7dQA9y4T+uw6zBZ6liQPTMN78gdaTBaDXnQOW6IcB09q7B9bu7QGXxBUHH
lFPBSVKVQHuV4kC0HlnBVROCQFCXE0GtOWvBIWi0QIEzE0ElGnnBtPPrQJ0R70AgXW/BKd7eQP8s
xkAgQVzByT5cQC9l4kBe6nvBNh90QHsKBUFo6ofBNvjcQGJXrUCzR4HBn3erQBg6pkA0ZHTBaDv7
QAFC2rwVzYXB/2/KQKRf+T4Q1H7BjvHIQCV5NL9rKIrB5IeIQHh5I0CruavBLXxXQG7DyD9nG6LB
Vz+rQDdEekAnrojBvD/DQLhhmUDUqZPBm/bBQNF4PkAN0p7BMvlYQHQjWEDqX5PB1bySQFzdmj8g
WY/BGbBrQM6nr0D63IfB6iODQAYqxkC+LJPBHYNXQEeIhEBaFKXB

>  <OMEGA_E>  (17) 
qKGPPiT4kj4=

>  <OMEGA_NBR>  (17) 
     64290

$$$$
50167977
     RDKit          3D

 73 75  0  0  1  0  0  0  0  0999 V2000
    5.8288    7.8697  -18.9568 C   0  0  0  0  0  0  0  0  0  0  0  0
    7.6431    7.0440  -17.5643 C   0  0  0  0  0  0  0  0  0  0  0  0
    8.1364    8.2417  -19.6288 C   0  0  0  0  0  0  0  0  0  0  0  0
    6.3758    0.8031  -21.5739 C   0  0  0  0  0  0  0  0  0  0  0  0
    4.5908   -0.6522  -20.7564 C   0  0  0  0  0  0  0  0  0  0  0  0
    6.6583   -1.6176  -21.6188 C   0  0  0  0  0  0  0  0  0  0  0  0
    6.2539    7.2270  -17.7723 C   0  0  0  0  0  0  0  0  0  0  0  0
    6.7531    8.4245  -19.8706 C   0  0  0  0  0  0  0  0  0  0  0  0
    5.0929    0.6399  -21.0070 C   0  0  0  0  0  0  0  0  0  0  0  0
    8.5732    7.5515  -18.4861 C   0  0  0  0  0  0  0  0  0  0  0  0
    7.1621   -0.3251  -21.8673 C   0  0  0  0  0  0  0  0  0  0  0  0
    5.3697   -1.7796  -21.0704 C   0  0  0  0  0  0  0  0  0  0  0  0
    6.7963    1.4488  -18.0606 C   0  0  0  0  0  0  0  0  0  0  0  0
    5.3503    8.1443  -14.1728 C   0  0  0  0  0  0  0  0  0  0  0  0
    4.8497    8.8381  -15.4498 C   0  0  0  0  0  0  0  0  0  0  0  0
    6.3549    7.0308  -14.5053 C   0  0  0  0  0  0  0  0  0  0  0  0
    4.1940    7.8148  -16.3825 C   0  0  0  0  0  0  0  0  0  0  0  0
    5.7552    6.0134  -15.5006 C   0  0  0  0  0  0  0  0  0  0  0  0
    5.1828    6.6888  -16.7915 C   0  0  0  0  0  0  0  0  0  0  0  0
    7.0707    0.4606  -16.9315 C   0  0  0  0  0  0  0  0  0  0  0  0
    5.0149   10.0217  -20.8364 C   0  0  0  0  0  0  0  0  0  0  0  0
    5.8213    8.0269  -22.1632 C   0  0  0  0  0  0  0  0  0  0  0  0
    7.3194   10.0200  -21.8065 C   0  0  0  0  0  0  0  0  0  0  0  0
    4.2978    1.8472  -20.5783 C   0  0  0  0  0  0  0  0  0  0  0  0
    5.0798    4.5082  -17.9227 C   0  0  0  0  0  0  0  0  0  0  0  0
    5.0823    2.6239  -19.5037 C   0  0  1  0  0  0  0  0  0  0  0  0
    4.2361    3.7559  -18.9377 C   0  0  2  0  0  0  0  0  0  0  0  0
    6.2399    9.1165  -21.1502 C   0  0  0  0  0  0  0  0  0  0  0  0
    5.4766    1.7175  -18.4066 N   0  0  0  0  0  0  0  0  0  0  0  0
    4.3545    5.7077  -17.5071 N   0  0  0  0  0  0  0  0  0  0  0  0
    7.7305    2.0598  -18.5689 O   0  0  0  0  0  0  0  0  0  0  0  0
    3.8598    4.6396  -19.9947 O   0  0  0  0  0  0  0  0  0  0  0  0
    9.8957    7.3638  -18.2788 F   0  0  0  0  0  0  0  0  0  0  0  0
    8.4041   -0.1668  -22.3774 F   0  0  0  0  0  0  0  0  0  0  0  0
    4.8845   -3.0179  -20.8307 F   0  0  0  0  0  0  0  0  0  0  0  0
    4.7721    7.9387  -19.1688 H   0  0  0  0  0  0  0  0  0  0  0  0
    7.9892    6.5108  -16.6912 H   0  0  0  0  0  0  0  0  0  0  0  0
    8.8600    8.6355  -20.3272 H   0  0  0  0  0  0  0  0  0  0  0  0
    6.7528    1.7935  -21.7819 H   0  0  0  0  0  0  0  0  0  0  0  0
    3.6092   -0.7765  -20.3236 H   0  0  0  0  0  0  0  0  0  0  0  0
    7.2598   -2.4846  -21.8486 H   0  0  0  0  0  0  0  0  0  0  0  0
    5.8398    8.8889  -13.5278 H   0  0  0  0  0  0  0  0  0  0  0  0
    4.4921    7.7069  -13.6416 H   0  0  0  0  0  0  0  0  0  0  0  0
    4.1129    9.6090  -15.1800 H   0  0  0  0  0  0  0  0  0  0  0  0
    5.7000    9.3081  -15.9656 H   0  0  0  0  0  0  0  0  0  0  0  0
    7.2542    7.4809  -14.9511 H   0  0  0  0  0  0  0  0  0  0  0  0
    6.6286    6.5064  -13.5780 H   0  0  0  0  0  0  0  0  0  0  0  0
    3.3338    7.3631  -15.8668 H   0  0  0  0  0  0  0  0  0  0  0  0
    3.8476    8.3312  -17.2900 H   0  0  0  0  0  0  0  0  0  0  0  0
    6.5430    5.3046  -15.7953 H   0  0  0  0  0  0  0  0  0  0  0  0
    4.9415    5.4694  -14.9988 H   0  0  0  0  0  0  0  0  0  0  0  0
    8.1497    0.4361  -16.7191 H   0  0  0  0  0  0  0  0  0  0  0  0
    6.5265    0.7751  -16.0288 H   0  0  0  0  0  0  0  0  0  0  0  0
    6.7335   -0.5424  -17.2321 H   0  0  0  0  0  0  0  0  0  0  0  0
    4.6675   10.5034  -21.7623 H   0  0  0  0  0  0  0  0  0  0  0  0
    4.2043    9.4086  -20.4158 H   0  0  0  0  0  0  0  0  0  0  0  0
    5.3063   10.7935  -20.1088 H   0  0  0  0  0  0  0  0  0  0  0  0
    5.4521    8.5034  -23.0833 H   0  0  0  0  0  0  0  0  0  0  0  0
    6.6893    7.3944  -22.4008 H   0  0  0  0  0  0  0  0  0  0  0  0
    5.0245    7.4070  -21.7263 H   0  0  0  0  0  0  0  0  0  0  0  0
    6.9054   10.4886  -22.7115 H   0  0  0  0  0  0  0  0  0  0  0  0
    7.6244   10.8021  -21.0956 H   0  0  0  0  0  0  0  0  0  0  0  0
    8.1935    9.4094  -22.0770 H   0  0  0  0  0  0  0  0  0  0  0  0
    4.1232    2.4986  -21.4473 H   0  0  0  0  0  0  0  0  0  0  0  0
    3.3322    1.5220  -20.1639 H   0  0  0  0  0  0  0  0  0  0  0  0
    5.2664    3.8670  -17.0486 H   0  0  0  0  0  0  0  0  0  0  0  0
    6.0390    4.7949  -18.3785 H   0  0  0  0  0  0  0  0  0  0  0  0
    5.9835    3.0516  -19.9673 H   0  0  0  0  0  0  0  0  0  0  0  0
    3.3479    3.3381  -18.4412 H   0  0  0  0  0  0  0  0  0  0  0  0
    4.7521    1.2706  -17.8818 H   0  0  0  0  0  0  0  0  0  0  0  0
    3.6057    5.4298  -16.9054 H   0  0  0  0  0  0  0  0  0  0  0  0
    3.9804    6.1477  -18.3234 H   0  0  0  0  0  0  0  0  0  0  0  0
    3.3323    4.1686  -20.6291 H   0  0  0  0  0  0  0  0  0  0  0  0
  1  7  2  0
  1  8  1  0
  2  7  1  0
  2 10  2  0
  3  8  2  0
  3 10  1  0
  4  9  2  0
  4 11  1  0
  5  9  1  0
  5 12  2  0
  6 11  2  0
  6 12  1  0
  7 19  1  0
  8 28  1  0
  9 24  1  0
 10 33  1  0
 11 34  1  0
 12 35  1  0
 13 20  1  0
 13 29  1  0
 13 31  2  0
 14 15  1  0
 14 16  1  0
 15 17  1  0
 16 18  1  0
 17 19  1  0
 18 19  1  0
 19 30  1  0
 21 28  1  0
 22 28  1  0
 23 28  1  0
 24 26  1  0
 25 27  1  0
 25 30  1  0
 26 27  1  0
 26 29  1  0
 27 32  1  0
  1 36  1  0
  2 37  1  0
  3 38  1  0
  4 39  1  0
  5 40  1  0
  6 41  1  0
 14 42  1  0
 14 43  1  0
 15 44  1  0
 15 45  1  0
 16 46  1  0
 16 47  1  0
 17 48  1  0
 17 49  1  0
 18 50  1  0
 18 51  1  0
 20 52  1  0
 20 53  1  0
 20 54  1  0
 21 55  1  0
 21 56  1  0
 21 57  1  0
 22 58  1  0
 22 59  1  0
 22 60  1  0
 23 61  1  0
 23 62  1  0
 23 63  1  0
 24 64  1  0
 24 65  1  0
 25 66  1  0
 25 67  1  0
 26 68  1  6
 27 69  1  1
 29 70  1  0
 30 71  1  0
 30 72  1  0
 32 73  1  0
M  CHG  1  30   1
M  END
>  <OMEGA_C>  (18) 
foW6QPvU+0CBp5fBD5T0QI5o4UCWg4zBsC4CQS7eA0G8B53BtwbMQM+VTT9Tl6zBBuiSQMv0Jr8H
DabBaxDVQDgMz79E86zB5B/IQJhD50CULY7BRBnYQNfKBkEJ957BqfiiQILRIz9jDqjBuSsJQTum
8UCP45PB/y/lQMRypr438K7BVNSrQELL479IkKjBcXvZQCRyuT8hfJDBhDWrQD5PAkGXw2LBpjCb
QLloDUE6MnfBtVvLQLP84EDWFWjB8TSGQBwT+kBrD4PB3iq4QCJuwECOAnjBhdmlQGwK1kD3VIbB
TEPiQLzO6z6xc4fBWnqgQAdZIEHzsKbB7Ee6QDpuAEErTrHB5DjqQBRSIEG+c67B1YeJQGRw7D9p
oKTB+Y2iQM9CkECtYY/BN6KiQEHuJ0CPB5zBT46HQBFgcEBbgJfBYK3HQEbdEUGcM6nBGkCvQGjV
2z/BQJPBSliLQFKltkB7DozBk2D3QIrUA0AvjZTBNAd3QDt3lEAs9Z/B7lQeQaCk60DlOpLBB3cG
QaDQKr79BLPB4E2cQCklQcBQpabBuLSYQJYJ/kDDWZnBmqf/QHVY0ECEh4XBY8INQeQqCkEsnqLB
AxfYQD+S5T9YQa7BifxmQM7FRr+ylqLBTFDoQF0DH8Dvya7B39+6QBw5DkEAcljB776PQOie9kAg
RFrBnJyDQGq+GUFB4XLBNGa2QN7tFEEqc3/BlyLoQMZj70DHN2/B3x3UQCc00EBYP1nBl1xVQG2e
60BK3n3BHz92QHlMBUHWUYrBpGDRQOe+qUB5uXzBaSCeQKoFr0AT+2/BVGUCQTdD3z65wIXBLdnQ
QDptRj/rOoDBfHjXQITYCr9u24nBg1yVQAEOKEE0Ga7BjImGQLCJFkF7U6PBYs2pQD2yLEHC3qDB
jHeuQMoNCEGnqrjB1g7WQPee7EDKNLPBucigQCIG7UB2z63B9/jcQEDRJ0EusbXBcPvzQG/VLEHf
w6jBYBgDQb6MFkHInbDBWPGDQH7pH0AUlKvBKkJVQOTPwj+6T6HBtYaoQJh8d0B/Y4jBWT/BQPdv
mUA/B5PB93i/QMFMQ0AIvZ/BzkNWQG+jVUCEh5PB0xCYQIWkoj/tDY/BwMNmQMnArUA6PofBWb9+
QPy5xEBflpLB5UNVQGRlhUBbCKXBFz+6QJKL+0B2spfBB6/0QCqL4UBLnozB5e8BQXkCBEFPKJ3B
n3STQKWEKL+C+qXBaCfMQEPUTT+DpKzBKY7VQCbMzr9P+6zBsSrIQI385kDcP47BNYnXQPvHBkHR
CJ/BgTyjQFbEIj/tC6jBeBgJQesU8kBEBpTBpnusQDEx5L+fg6jByWvlQORlpL4CBK/Ba+zYQG6W
vj/CA5DByZasQHqkAUE2d2LBPFydQFk0DUHJx3bByA/MQFI230Ci/mfBGliHQIKJ+kBn6YLBiH64
QMuGv0D5OXjBQxKmQC7u1UA0VobBKeThQJKAzD7+w4fB/EOfQE4fIEEOo6bB3ZO5QGByAEGCWrHB
P+PoQP6SIEGudq7BYKGJQLWU6z9AoaTB/5qhQC/9j0CsSI/BBHuiQCKXJ0Ap/5vBO0GHQE6EcEDB
l5fBULvGQITfEUEwOanBstauQKHn2j/0MZPBWPWKQIH1tkAgEozBDQT3QDcXA0Ayc5TB8eR4QKHJ
lEDVGaDBb00eQbyf7EBzZJLBHTOdQAd3QcB7jabB+YIGQQmPIb7cKrPBC2KYQMyI/UCOWZnB4wEA
QT2W0ECgpIXBlGkNQeddCkH3x6LBD1poQMxOSb9Gc6LBTQnYQMnf5T+MVa7BleDoQNm6HsDV2K7B
XJa8QAY6DUEK51fBArqQQGCU9UAALVrBcpeGQPHgGUG0XHLBaA25QDBZFEFr937BpzHpQMFI7UDE
7W7Bu1HUQMLKzUDYRFnBVDBXQFSM7EC9jn3BiOt4QCjUBUFqGorBS4TRQMneqEB1N33BIWqeQML5
rUCoTnDBmlQCQYjchj4q7obB7zbUQGCmMT/DAYDBjUDTQLxvC79paYrB69+TQI3ZJ0FAA67Bn5WF
QMwjFkE0RqPB42qoQNd0LEGNyqDBGH2tQD8TCEF/r7jBM4nVQH777EAFTrPBgligQIG57EBo263B
y1/bQBsUKEHMq7XBvHTyQJMTLUEWwKjBhYQCQdb6FkHgrbDBmBuEQECFH0DblKvBSmZVQBiEwT+E
WqHBnWKmQE65dkADQYjBrN7AQFiNmEDJtpLB9Ha/QC69QkDtqJ/BC5JUQLQ4VkCe05PBCZaXQFnu
nD+8S4/BSFdlQDKwrkA/SofBaPZ+QGodxUCQpZLB5uxXQOD5hUCmTaXB

>  <OMEGA_E>  (18) 
wMUPPcAPEz0=

>  <OMEGA_NBR>  (18) 
     66921

$$$$
50167978
     RDKit          3D

 74 76  0  0  1  0  0  0  0  0999 V2000
    5.8163    7.8911  -18.9552 C   0  0  0  0  0  0  0  0  0  0  0  0
    7.6149    6.9927  -17.5854 C   0  0  0  0  0  0  0  0  0  0  0  0
    8.1316    8.2189  -19.6234 C   0  0  0  0  0  0  0  0  0  0  0  0
    6.4021    0.8022  -21.5767 C   0  0  0  0  0  0  0  0  0  0  0  0
    4.6078   -0.6428  -20.7615 C   0  0  0  0  0  0  0  0  0  0  0  0
    6.6702   -1.6205  -21.6206 C   0  0  0  0  0  0  0  0  0  0  0  0
    6.2324    7.2184  -17.7808 C   0  0  0  0  0  0  0  0  0  0  0  0
    6.7550    8.4347  -19.8650 C   0  0  0  0  0  0  0  0  0  0  0  0
    5.1174    0.6461  -21.0129 C   0  0  0  0  0  0  0  0  0  0  0  0
    8.5520    7.5013  -18.4948 C   0  0  0  0  0  0  0  0  0  0  0  0
    7.1814   -0.3309  -21.8702 C   0  0  0  0  0  0  0  0  0  0  0  0
    5.3812   -1.7748  -21.0712 C   0  0  0  0  0  0  0  0  0  0  0  0
    6.8107    1.4907  -18.0228 C   0  0  0  0  0  0  0  0  0  0  0  0
    5.4294    8.1762  -14.1925 C   0  0  0  0  0  0  0  0  0  0  0  0
    4.9118    8.8596  -15.4692 C   0  0  0  0  0  0  0  0  0  0  0  0
    6.3914    7.0266  -14.5269 C   0  0  0  0  0  0  0  0  0  0  0  0
    4.2055    7.8359  -16.3686 C   0  0  0  0  0  0  0  0  0  0  0  0
    5.7427    6.0161  -15.5005 C   0  0  0  0  0  0  0  0  0  0  0  0
    5.1654    6.6925  -16.7916 C   0  0  0  0  0  0  0  0  0  0  0  0
    7.0887    0.3806  -17.0131 C   0  0  0  0  0  0  0  0  0  0  0  0
    5.0404   10.0414  -20.8575 C   0  0  0  0  0  0  0  0  0  0  0  0
    5.8946    8.0682  -22.1885 C   0  0  0  0  0  0  0  0  0  0  0  0
    7.3708   10.0640  -21.7579 C   0  0  0  0  0  0  0  0  0  0  0  0
    4.3262    1.8571  -20.5900 C   0  0  0  0  0  0  0  0  0  0  0  0
    5.0665    4.5175  -17.9280 C   0  0  0  0  0  0  0  0  0  0  0  0
    5.0988    2.6310  -19.5044 C   0  0  1  0  0  0  0  0  0  0  0  0
    4.2310    3.7470  -18.9333 C   0  0  2  0  0  0  0  0  0  0  0  0
    6.2753    9.1449  -21.1475 C   0  0  0  0  0  0  0  0  0  0  0  0
    5.4949    1.7167  -18.4134 N   0  0  0  0  0  0  0  0  0  0  0  0
    4.3322    5.7120  -17.5031 N   0  0  0  0  0  0  0  0  0  0  0  0
    7.7504    2.0583  -18.5700 O   0  0  0  0  0  0  0  0  0  0  0  0
    9.8752    7.2888  -18.2877 O   0  0  0  0  0  0  0  0  0  0  0  0
    3.8234    4.6213  -19.9861 O   0  0  0  0  0  0  0  0  0  0  0  0
    8.4240   -0.1802  -22.3808 F   0  0  0  0  0  0  0  0  0  0  0  0
    4.8903   -3.0098  -20.8260 F   0  0  0  0  0  0  0  0  0  0  0  0
    4.7609    7.9917  -19.1611 H   0  0  0  0  0  0  0  0  0  0  0  0
    7.9504    6.4250  -16.7302 H   0  0  0  0  0  0  0  0  0  0  0  0
    8.8645    8.6099  -20.3136 H   0  0  0  0  0  0  0  0  0  0  0  0
    6.7859    1.7905  -21.7825 H   0  0  0  0  0  0  0  0  0  0  0  0
    3.6242   -0.7610  -20.3313 H   0  0  0  0  0  0  0  0  0  0  0  0
    7.2666   -2.4911  -21.8505 H   0  0  0  0  0  0  0  0  0  0  0  0
    5.9585    8.9190  -13.5775 H   0  0  0  0  0  0  0  0  0  0  0  0
    4.5742    7.7754  -13.6286 H   0  0  0  0  0  0  0  0  0  0  0  0
    4.2014    9.6531  -15.1943 H   0  0  0  0  0  0  0  0  0  0  0  0
    5.7595    9.2994  -16.0152 H   0  0  0  0  0  0  0  0  0  0  0  0
    7.2974    7.4417  -14.9925 H   0  0  0  0  0  0  0  0  0  0  0  0
    6.6629    6.5049  -13.5974 H   0  0  0  0  0  0  0  0  0  0  0  0
    3.3556    7.4043  -15.8197 H   0  0  0  0  0  0  0  0  0  0  0  0
    3.8381    8.3464  -17.2710 H   0  0  0  0  0  0  0  0  0  0  0  0
    6.5037    5.2807  -15.8006 H   0  0  0  0  0  0  0  0  0  0  0  0
    4.9226    5.5025  -14.9774 H   0  0  0  0  0  0  0  0  0  0  0  0
    8.1750    0.2383  -16.9137 H   0  0  0  0  0  0  0  0  0  0  0  0
    6.6646    0.6584  -16.0369 H   0  0  0  0  0  0  0  0  0  0  0  0
    6.6267   -0.5552  -17.3607 H   0  0  0  0  0  0  0  0  0  0  0  0
    4.7189   10.5353  -21.7863 H   0  0  0  0  0  0  0  0  0  0  0  0
    4.2195    9.4204  -20.4695 H   0  0  0  0  0  0  0  0  0  0  0  0
    5.3080   10.8036  -20.1108 H   0  0  0  0  0  0  0  0  0  0  0  0
    5.5493    8.5561  -23.1119 H   0  0  0  0  0  0  0  0  0  0  0  0
    6.7738    7.4452  -22.4097 H   0  0  0  0  0  0  0  0  0  0  0  0
    5.0897    7.4363  -21.7847 H   0  0  0  0  0  0  0  0  0  0  0  0
    6.9813   10.5457  -22.6670 H   0  0  0  0  0  0  0  0  0  0  0  0
    7.6516   10.8356  -21.0259 H   0  0  0  0  0  0  0  0  0  0  0  0
    8.2549    9.4612  -22.0127 H   0  0  0  0  0  0  0  0  0  0  0  0
    4.1654    2.5106  -21.4601 H   0  0  0  0  0  0  0  0  0  0  0  0
    3.3539    1.5361  -20.1879 H   0  0  0  0  0  0  0  0  0  0  0  0
    5.2698    3.8808  -17.0543 H   0  0  0  0  0  0  0  0  0  0  0  0
    6.0175    4.8167  -18.3929 H   0  0  0  0  0  0  0  0  0  0  0  0
    5.9974    3.0741  -19.9584 H   0  0  0  0  0  0  0  0  0  0  0  0
    3.3575    3.3096  -18.4278 H   0  0  0  0  0  0  0  0  0  0  0  0
    4.7712    1.2294  -17.9249 H   0  0  0  0  0  0  0  0  0  0  0  0
    3.5902    5.4277  -16.8959 H   0  0  0  0  0  0  0  0  0  0  0  0
    3.9485    6.1527  -18.3146 H   0  0  0  0  0  0  0  0  0  0  0  0
   10.3746    7.6938  -18.9870 H   0  0  0  0  0  0  0  0  0  0  0  0
    3.3004    4.1381  -20.6150 H   0  0  0  0  0  0  0  0  0  0  0  0
  1  7  2  0
  1  8  1  0
  2  7  1  0
  2 10  2  0
  3  8  2  0
  3 10  1  0
  4  9  2  0
  4 11  1  0
  5  9  1  0
  5 12  2  0
  6 11  2  0
  6 12  1  0
  7 19  1  0
  8 28  1  0
  9 24  1  0
 10 32  1  0
 11 34  1  0
 12 35  1  0
 13 20  1  0
 13 29  1  0
 13 31  2  0
 14 15  1  0
 14 16  1  0
 15 17  1  0
 16 18  1  0
 17 19  1  0
 18 19  1  0
 19 30  1  0
 21 28  1  0
 22 28  1  0
 23 28  1  0
 24 26  1  0
 25 27  1  0
 25 30  1  0
 26 27  1  0
 26 29  1  0
 27 33  1  0
  1 36  1  0
  2 37  1  0
  3 38  1  0
  4 39  1  0
  5 40  1  0
  6 41  1  0
 14 42  1  0
 14 43  1  0
 15 44  1  0
 15 45  1  0
 16 46  1  0
 16 47  1  0
 17 48  1  0
 17 49  1  0
 18 50  1  0
 18 51  1  0
 20 52  1  0
 20 53  1  0
 20 54  1  0
 21 55  1  0
 21 56  1  0
 21 57  1  0
 22 58  1  0
 22 59  1  0
 22 60  1  0
 23 61  1  0
 23 62  1  0
 23 63  1  0
 24 64  1  0
 24 65  1  0
 25 66  1  0
 25 67  1  0
 26 68  1  6
 27 69  1  1
 29 70  1  0
 30 71  1  0
 30 72  1  0
 32 73  1  0
 33 74  1  0
M  CHG  1  30   1
M  END
>  <OMEGA_C>  (19) 
KR+6QAmE/EAwpJfBJa3zQGDE30D/rozB+BoCQbyAA0HL/JzB+N3MQHteTT8unazBuXKTQMWMJL90
F6bBfXLVQOdrz78A96zB5m/HQO/85kAjP47BBSnYQIH0BkGH657Bn8GjQEdpJT9vGqjB59QIQbIK
8EBL9ZPBC87lQEJtqb4c9q7BkjKsQPUt47/NkajBQPHZQB7Qvj+vLpDBZb2tQJvRAkGjFGPB3S2d
QN3ADUH2gXfBFobMQE3a4EA3bmjB3ZOGQJS/+kDf8oLBTMS3QBWEwEAWAnjBuUqlQNko1kBCVYbB
8NbiQNDiwj7OGojB3kqhQLmpIEEZ3KbBUaC8QEUXAUH4gbHBR93rQFcGIUFHEK7B9G+KQPaz7T9a
uKTBuyCiQEGPkECbbI/BPymjQH5hKEAECZzBrWSHQHbPb0Bzd5fB4M7IQHFREkEJLqnBodavQEO8
2z+5TpPBkKGKQI3ItkBRBozBYgP4QJi7A0Bmj5TBqwAeQX096UBOTZLBMLJ0QOThk0CQ45/B0cgG
QSOIOL7MC7PBDn2cQAqgQMCfm6bBXFmYQPO7/0AFSpnBo2n+QECZzUBq14XBMdUNQSbCCUE4gqLB
OCbZQDQw5T+DQq7BwvJnQFHPQr9/pqLBxIfoQL1tH8DEza7Bs6u+QFi0DkGWPVnBs1+SQEHQ+ECm
DlrBC3KGQCpzGkG7G3PBvU24QDLKFEEpH4DBkoTpQF0i7kBP4W/BaDbVQNIn0EDjjlnBX8FWQArw
7ECkHX3BG6R1QLqKBUEXK4rBaR7QQJL7qEAyz3zBJYadQHkUsEBqo2/BmswCQQkGdD45T4fBfkTV
QPGNKD+PS4DBPA7UQEUfDr+14orBmQGXQKuQKEFfSq7BYwaHQOe5FkGfwaPBP9upQF3bLEHf4qDB
f5OxQLTlCEEk5bjBmMLYQFU/7kAqR7PBIN+iQHb27UAWR67BbWbfQDq7KEHqVbXBy9n0QIdeLUER
NajB9RMEQflgF0H8GbDB1EqFQI+tIEBGrqvBlqZWQEiexD/KgKHBBKKoQJVfeEBFb4jBK4/AQCAi
mkC2JJPBx+q/QDa+REC9qp/BL+FWQBrRU0ALbJPBna2YQERcnT8cZo/BksZlQOSvrUDQKofB7bR8
QMXixEBShJLBd/4lQYIz9kBs5ZfBpTlTQGdrhECE66TBRR66QF8y/ED2oZfB28LzQPJP4ECukIzB
vxMCQW9KA0EsBp3BKK+TQNoPJr8YO6bBJB7NQCpATj/Am6zB1rbVQJDqzr+NLq3BV4LHQB4s50CG
LY7BfBLYQFSuBkF89J7BcvqjQPDCJD8nHajB0dcIQQwu8ED46JPB93GsQGV447/G0KjBNRTmQG0S
pr7cDa/Bi9jZQLh/uD9Dh5DBmHutQMLNAkGg2WLBuZqdQG7fDUEBVXfB/TjMQD+/4ED4H2jB6dqG
QDg4+0Dl54LBpbS3QJOdwECh5HfBf1+lQGxr1kBwRYbBqVriQPPu1z5ps4fBANehQHrYIEGEwqbB
nNq6QF29AEH0YLHBLNHrQLgqIEHjVq7BUXOKQEji7D9DsKTBVqiiQNItkUBalo/BfC6jQP5xKEA7
C5zBkJ6HQCtjcEAEg5fBNX3IQDX9EUFkNKnBwq+vQGio3D+7RJPBH86KQA/6tkCW/YvBw+D3QOWw
A0C9epTBIwUeQX6S6UCTOZLBXZ10QGbek0AV95/Bgb2cQKn2QMBm+qbB+u0GQXoSLb7sHrPBlFWY
QJcy/0CmSpnBh4/+QL29zkDioYXBMccNQfReCUGkm6LBqGhoQO65Rb8nzqLBp2bZQLDp5T+GKq7B
wc7oQA0BH8AJGK/Bj0O+QNCXDkHf1FjBh9GRQMTQ+ECgC1rBmx2HQDu2GkFtCHPBSBC5QOe8FEEa
8X/Bq23pQIv87UBOYm/Bd4XUQO7gz0DBPlnBzO9WQNqV7UBLG33Ba7d2QPjZBUFxIYrBtCzQQMM2
qUDatHzB3mqdQOz+r0CMpm/BL3ACQf+fwz4KA4bBFwrRQKXDNz8WaoDBQUXXQP/tEb9yT4rBVlGX
QHa3KEGdLa7BQ2CHQJ1IF0HGeKPBYnWrQBMOLUE/5aDBRJ+vQHCFCEFrwbjBslzWQADM7EDAObPB
NN+gQMYG7kAn+a3BvCbfQKrZJ0GFmLXBK9L1QDuJLEG1majBNr8DQREmFkFedLDBlPqEQJUmIEAG
pavBs/1WQO3pwj//a6HBSSqqQEKPeUBoqojBMJDAQI5cm0Dpd5PBdwPAQARbREBPsZ/B8pVXQKbQ
VEBXXpPB1WuYQAqOpD9jCo/BstJmQNlUrUDuF4fBsBV8QBZBxUBeZpLBDwAmQekx9kAI35fBM8ZS
QEc9hEDI7KTB

>  <OMEGA_E>  (19) 
sFhPPlDWTz4=

>  <OMEGA_NBR>  (19) 
     69580

$$$$
50167980
     RDKit          3D

 70 72  0  0  1  0  0  0  0  0999 V2000
    4.5834   -0.6378  -20.7829 C   0  0  0  0  0  0  0  0  0  0  0  0
    6.3779    0.8145  -21.5845 C   0  0  0  0  0  0  0  0  0  0  0  0
    6.6551   -1.6066  -21.6306 C   0  0  0  0  0  0  0  0  0  0  0  0
    7.5830    7.3885  -18.1068 C   0  0  0  0  0  0  0  0  0  0  0  0
    5.5637    7.9005  -19.0436 C   0  0  0  0  0  0  0  0  0  0  0  0
    6.1040    7.3262  -17.9314 C   0  0  0  0  0  0  0  0  0  0  0  0
    5.0904    0.6532  -21.0270 C   0  0  0  0  0  0  0  0  0  0  0  0
    5.3614   -1.7664  -21.0936 C   0  0  0  0  0  0  0  0  0  0  0  0
    7.1642   -0.3150  -21.8726 C   0  0  0  0  0  0  0  0  0  0  0  0
    6.7973    1.5047  -18.0106 C   0  0  0  0  0  0  0  0  0  0  0  0
    5.4715    8.1581  -14.2502 C   0  0  0  0  0  0  0  0  0  0  0  0
    4.8090    8.8199  -15.4662 C   0  0  0  0  0  0  0  0  0  0  0  0
    6.5677    7.1733  -14.6975 C   0  0  0  0  0  0  0  0  0  0  0  0
    4.1771    7.7449  -16.3493 C   0  0  0  0  0  0  0  0  0  0  0  0
    6.0170    6.0981  -15.6519 C   0  0  0  0  0  0  0  0  0  0  0  0
    5.2207    6.7073  -16.8434 C   0  0  0  0  0  0  0  0  0  0  0  0
    7.0837    0.4261  -16.9711 C   0  0  0  0  0  0  0  0  0  0  0  0
    5.2202   10.0557  -20.9534 C   0  0  0  0  0  0  0  0  0  0  0  0
    6.1222    8.0337  -22.1715 C   0  0  0  0  0  0  0  0  0  0  0  0
    7.6675    9.8998  -21.4570 C   0  0  0  0  0  0  0  0  0  0  0  0
    4.2997    1.8603  -20.5902 C   0  0  0  0  0  0  0  0  0  0  0  0
    5.1284    4.5032  -17.9313 C   0  0  0  0  0  0  0  0  0  0  0  0
    5.0900    2.6199  -19.5084 C   0  0  1  0  0  0  0  0  0  0  0  0
    4.2564    3.7494  -18.9227 C   0  0  2  0  0  0  0  0  0  0  0  0
    6.4208    9.0728  -21.0675 C   0  0  0  0  0  0  0  0  0  0  0  0
    7.8455    8.0238  -19.2348 N   0  0  0  0  0  0  0  0  0  0  0  0
    6.6306    8.3564  -19.7643 N   0  0  0  0  0  0  0  0  0  0  0  0
    5.4838    1.6979  -18.4239 N   0  0  0  0  0  0  0  0  0  0  0  0
    4.3883    5.6704  -17.4681 N   0  0  0  0  0  0  0  0  0  0  0  0
    7.7330    2.0793  -18.5573 O   0  0  0  0  0  0  0  0  0  0  0  0
    3.8506    4.6343  -19.9684 O   0  0  0  0  0  0  0  0  0  0  0  0
    4.8705   -3.0036  -20.8607 F   0  0  0  0  0  0  0  0  0  0  0  0
    8.4113   -0.1587  -22.3707 F   0  0  0  0  0  0  0  0  0  0  0  0
    3.5983   -0.7605  -20.3575 H   0  0  0  0  0  0  0  0  0  0  0  0
    6.7582    1.8044  -21.7892 H   0  0  0  0  0  0  0  0  0  0  0  0
    7.2565   -2.4748  -21.8566 H   0  0  0  0  0  0  0  0  0  0  0  0
    8.3166    6.9825  -17.4260 H   0  0  0  0  0  0  0  0  0  0  0  0
    4.5174    7.9781  -19.2997 H   0  0  0  0  0  0  0  0  0  0  0  0
    5.9216    8.9360  -13.6161 H   0  0  0  0  0  0  0  0  0  0  0  0
    4.7085    7.6126  -13.6755 H   0  0  0  0  0  0  0  0  0  0  0  0
    4.0307    9.5183  -15.1249 H   0  0  0  0  0  0  0  0  0  0  0  0
    5.5674    9.3694  -16.0432 H   0  0  0  0  0  0  0  0  0  0  0  0
    7.3611    7.7342  -15.2131 H   0  0  0  0  0  0  0  0  0  0  0  0
    6.9865    6.6792  -13.8084 H   0  0  0  0  0  0  0  0  0  0  0  0
    3.4024    7.2207  -15.7705 H   0  0  0  0  0  0  0  0  0  0  0  0
    3.7171    8.2291  -17.2233 H   0  0  0  0  0  0  0  0  0  0  0  0
    6.8607    5.5168  -16.0524 H   0  0  0  0  0  0  0  0  0  0  0  0
    5.3493    5.4325  -15.0853 H   0  0  0  0  0  0  0  0  0  0  0  0
    8.1711    0.3100  -16.8525 H   0  0  0  0  0  0  0  0  0  0  0  0
    6.6390    0.7177  -16.0082 H   0  0  0  0  0  0  0  0  0  0  0  0
    6.6472   -0.5276  -17.3027 H   0  0  0  0  0  0  0  0  0  0  0  0
    5.4268   10.7982  -20.1686 H   0  0  0  0  0  0  0  0  0  0  0  0
    5.0746   10.5695  -21.9151 H   0  0  0  0  0  0  0  0  0  0  0  0
    4.3100    9.4941  -20.6962 H   0  0  0  0  0  0  0  0  0  0  0  0
    6.9679    7.3355  -22.2571 H   0  0  0  0  0  0  0  0  0  0  0  0
    5.2106    7.4753  -21.9125 H   0  0  0  0  0  0  0  0  0  0  0  0
    5.9752    8.5507  -23.1313 H   0  0  0  0  0  0  0  0  0  0  0  0
    8.5376    9.2327  -21.5463 H   0  0  0  0  0  0  0  0  0  0  0  0
    7.4891   10.4003  -22.4202 H   0  0  0  0  0  0  0  0  0  0  0  0
    7.8630   10.6554  -20.6819 H   0  0  0  0  0  0  0  0  0  0  0  0
    4.1299    2.5207  -21.4534 H   0  0  0  0  0  0  0  0  0  0  0  0
    3.3318    1.5371  -20.1797 H   0  0  0  0  0  0  0  0  0  0  0  0
    5.3694    3.8525  -17.0778 H   0  0  0  0  0  0  0  0  0  0  0  0
    6.0591    4.8234  -18.4226 H   0  0  0  0  0  0  0  0  0  0  0  0
    5.9924    3.0477  -19.9695 H   0  0  0  0  0  0  0  0  0  0  0  0
    3.3827    3.3309  -18.4016 H   0  0  0  0  0  0  0  0  0  0  0  0
    4.7636    1.1823  -17.9598 H   0  0  0  0  0  0  0  0  0  0  0  0
    3.7119    5.3660  -16.7975 H   0  0  0  0  0  0  0  0  0  0  0  0
    3.9203    6.0759  -18.2533 H   0  0  0  0  0  0  0  0  0  0  0  0
    3.3056    4.1638  -20.5882 H   0  0  0  0  0  0  0  0  0  0  0  0
  1  7  2  0
  1  8  1  0
  2  7  1  0
  2  9  2  0
  3  8  2  0
  3  9  1  0
  4  6  1  0
  4 26  2  0
  5  6  2  0
  5 27  1  0
  6 16  1  0
  7 21  1  0
  8 32  1  0
  9 33  1  0
 10 17  1  0
 10 28  1  0
 10 30  2  0
 11 12  1  0
 11 13  1  0
 12 14  1  0
 13 15  1  0
 14 16  1  0
 15 16  1  0
 16 29  1  0
 18 25  1  0
 19 25  1  0
 20 25  1  0
 21 23  1  0
 22 24  1  0
 22 29  1  0
 23 24  1  0
 23 28  1  0
 24 31  1  0
 25 27  1  0
 26 27  1  0
  1 34  1  0
  2 35  1  0
  3 36  1  0
  4 37  1  0
  5 38  1  0
 11 39  1  0
 11 40  1  0
 12 41  1  0
 12 42  1  0
 13 43  1  0
 13 44  1  0
 14 45  1  0
 14 46  1  0
 15 47  1  0
 15 48  1  0
 17 49  1  0
 17 50  1  0
 17 51  1  0
 18 52  1  0
 18 53  1  0
 18 54  1  0
 19 55  1  0
 19 56  1  0
 19 57  1  0
 20 58  1  0
 20 59  1  0
 20 60  1  0
 21 61  1  0
 21 62  1  0
 22 63  1  0
 22 64  1  0
 23 65  1  6
 24 66  1  1
 28 67  1  0
 29 68  1  0
 29 69  1  0
 31 70  1  0
M  CHG  1  29   1
M  END
>  <OMEGA_C>  (20) 
5qqSQL1II79JQ6bBxxfMQPyDUD/+rKzBjPbUQFCmzb9xC63By6fyQJZu7ECp2pDB/gmyQH7Q/EBV
WZjB/lPDQGZw6kCWc4/BMuSiQOE5Jz9EN6jBp5CrQEEa4r+8v6jBFkHlQBJEob4g+67BTYPZQFCb
wD+cFZDBWBavQGmHAkHwAGTBduOZQEoeDUGMdXfBryrSQK6L5UDgKGvB7qqFQNnV90Bfy4LBdovA
QLMjw0BbbnrBsQ+nQO6h1kBKv4bBqa3iQBIm2j7VxIfB0AunQPPjIEGdoKfBIenDQDSKAEFUX7HB
bVz1QL5lHkEIqKvBh5eJQCIe7j/BuKTBuxukQA0akEBRc4/BSeGiQAStJ0AeEZzBWjSIQIr2b0Cp
YZfBanfNQAIqEUEuiqjBLg77QG5hAEH14JnBJy7UQOWzBUFOHZ7BZXuvQFxU2T81ZJPBRW2MQKdz
tUC8vovBsXT3QGsTBUBcdZTB0W92QNJLlEA3v5/B2tqbQC07QMCh4qbB1JQGQfuEIr5L97LB10lm
QBSxQr8v3KLB5ELYQHT25j9gUK7BLDXoQFpiHsBn2q7BpRAFQbhw30B4aIvBfo6QQJNM/0DFZZrB
wH29QPn5DkFw21nB9auWQE+a80DczlrBxPuAQBxLGEHG/3HBFCiyQA7pFUFwWIDBeI7rQKV+90DM
aHPBIJHfQJy71UA271zBVcBZQLcP50ANVHzBjeVtQFOqA0FmyYnBuorbQPeJsEBRa4DBVC2rQMPW
rUCIXXHB1rwCQQqynj7n0YbBzXLUQKG4Nz/BEIDBRLbUQHwSB7/+a4rBfKitQHvFLEFYWaHByGKi
QMgcKUEGUq/BKuuJQO3nF0HakaXB4vjeQIy86kCJDrLBL72mQNU170C4TK/BzTS/QMbPCEHkDLnB
35kIQSW5E0HYXqzBaqbvQLdnJkGSXLPB4J37QJ18KkGAdKXB2CeEQNJSIUB9oKvBcDtVQIi+xD8N
cKHBRNKrQCSPdkBNn4jBvePBQDZZmkBnYZPBvcG/QNINQ0CYwZ/By35YQM8sVUB2NpPBk2+YQFpU
lz+XrY/BPo9tQI62q0A/YYbBmOV6QI1twkC8BpLBXI9TQPQ9hUCrtKTBv+XMQMLBUj+JoKzByY6T
QNU2JL9LWabBZ/TVQA5TzL8zNK3BmsbyQARz7UBB15DB0gqyQIO5/UB4SZjBFHjDQB8y60AJbY/B
MK6jQLdOJz/YMqjBiiTmQMwImr6mB6/BsZSsQNbt4b/F6ajBAtrYQBx/uz9lAZDBPZ6vQNR9AkHP
22PBjjWaQDEpDUERN3fBpanSQP+T5UBRLGvB/+6FQFAF+EAQtILBH/TAQFVVw0APhHrBp1mnQPwD
10CDvobBOgzhQD7tuD5p1YfBw0WnQOCcIUGCfqfBW5rCQNLqAEH1PLHBiD/1QF54HkEL2avB2yGK
QEir7T9Mt6TBNQClQGcbkUDxxI/BDimjQPWoJ0BuB5zBVo+IQFRscECBbJfBOCrNQDuaEUGygajB
ggn7QHAEAUFn1pnBdhfUQOo6BkHCEJ7BigOvQNZ62T9rSJPB2+eMQHbItUCHy4vBNkf3QDJAAUAb
VZTByih1QKDQk0AY1Z/BNgUHQbmjCr4a/7LB7AmdQJtjQMDdHqfBrgTZQIp46D/LKq7BEA5oQMhf
Rb9k96LBDELpQNB3HcDJF6/BbSsFQWZw4EDua4vBjYeQQKobAEHGTZrBfhe+QDTmDkEwsFnBXE+X
QBJq80BapVrBHE2BQF5HGEGMpHHB5FyyQJwHFkFmOYDBwfrrQFik90CNanPBkC3gQGub1UD7BF3B
5o1aQKQQ50BzI3zBdRNuQC7SA0Gbp4nB+urbQKTPsEDFgYDBjaWrQJXtrUDgeXHBxNwBQfwIVz5p
7YbBmzHTQIebJj8xFYDB8R/SQALEEr+nmIrBPaKuQMiHLUEfSaHBgViiQB/DKUE0Mq/BdAeKQCje
GEFoSaXBvk/dQEka60B8/LHBKlOlQJRt8ECpBK/BOKS9QMEbCUF17bjBylkIQVaRE0FroqzB5kLv
QBJlJkG7j7PBGk38QEmcKkGzuaXBYrKEQIcZIUAHn6vB/VBWQJ6fwz/pdqHB82muQHT2eECsCYnB
ic/BQEk4nEBn/pPBTFPAQB10QkCZpJ/BmS1aQO/vVUB1B5PBPIGXQN9xmz8dfI/Bm4dvQOJIq0Cz
ZIbBh6N6QFf6wkBF9JHBpppRQDtHhEC0nqTBFu6IQE0+Bb8oMKzBTsrPQPDUiT2lfKXBb3rIQP41
zr/Ie7PBcITyQLyK9UDxZI7B0w63QMiOAkGtT5jBci3DQF/48UCQ347BqtCiQDJfhT4PWKXBx7Kb
QJcuub9MRrPBAXXiQMXGWr/6jqzB2wnFQEbwyD/RsIjB5cirQDSpA0H2o2LB0qWVQBF8DkEa1XXB
wF3PQKjW6EBJNmrBHdiCQEgz+0Dcm4LBiSe+QDxIx0BKSXrBVGSlQE1720AP0obB1ofsQMeEoT/v
6IHBm7jDQKiTKUGKB6fBn7HOQL7mBUF6XrDBMwoHQRF1G0FoKarB2AiNQEQlnz/evJ3BLnKpQEbl
lkBPFZHBCV+pQEb5HUCzm5rBU4KNQD6saEDUWZbBET7fQPn0FEGKbKfB/xsAQTEJBUHj5JbBovDc
QGKiCUGEzJzBIUnLQB9+BkA63JLBsNiNQMcAuUCBlIzBmk2hQNH9uj8Wu4TBeGFtQAJLh0AyD5/B
PbSCQDxOC8Ad57nBRL0GQR3WgL8Wr6zB+yNNQLRu0L4d/avBs9jjQEpnIj/GG6DBstfWQG5CFMCG
87jBqkEDQds06UDRDojBYRqXQEwuBEEhgJvBkdu5QMEMEEHMTljBKeeTQKb/9EBUhFnBJlF3QK3J
GEEe8G/BQDGtQIhGGEG4gn7Bwa3oQGGt+0BTA3LB57ncQDQZ2EC0PlzBDidUQLLp6ECar3zBN7ho
QFTiBUEceonBlWnZQJbntEDlSYDBQ0+oQAiisUC0uXHBr3riQDeidj+FpHPB3Lb+QE534j6In4XB
lWoAQfIgCkAQaIHB7rHPQNQmNEHsqaDBlLfFQK3jMUEfxa7B6jWiQKRSJUF1YKXBW2fiQMOm7kBm
lrDBbDWtQJ+QAUHrvK7BFrfQQKghDkGWIbjBnSIRQSIODUG7fKrBYmAHQeKQI0Fo+LHBfScNQYNZ
JkFc9qPBqqNfQKoczz/sn6HB52qEQBctND+xYJbBY328QCpoiEAaoYrB2gG/QNTNpECTG5fBVf24
QBSGNEA9+aHBtA5uQMBYT0BoXZDBX5DpQM4BEEDeKJXB/rlyQEh4q0DhcofB/Bh7QAZnxkBKmJLB
xoNKQKWJZECgZaLB

>  <OMEGA_E>  (20) 
2KU0PhAXNT7UUzo/

>  <OMEGA_NBR>  (20) 
     73217

$$$$
50168358
     RDKit          3D

 72 75  0  0  1  0  0  0  0  0999 V2000
    8.5437    7.4083  -18.5948 C   0  0  0  0  0  0  0  0  0  0  0  0
    8.1288    8.3051  -19.5927 C   0  0  0  0  0  0  0  0  0  0  0  0
    7.6118    6.8677  -17.6935 C   0  0  0  0  0  0  0  0  0  0  0  0
    5.8396    8.1113  -18.7982 C   0  0  0  0  0  0  0  0  0  0  0  0
    6.3308    0.7578  -21.5642 C   0  0  0  0  0  0  0  0  0  0  0  0
    4.5642   -0.6939  -20.7017 C   0  0  0  0  0  0  0  0  0  0  0  0
    6.6254   -1.6613  -21.5768 C   0  0  0  0  0  0  0  0  0  0  0  0
    6.7622    8.6601  -19.7135 C   0  0  0  0  0  0  0  0  0  0  0  0
    6.2447    7.2379  -17.7647 C   0  0  0  0  0  0  0  0  0  0  0  0
    5.0562    0.5963  -20.9787 C   0  0  0  0  0  0  0  0  0  0  0  0
    7.1193   -0.3700  -21.8508 C   0  0  0  0  0  0  0  0  0  0  0  0
    5.3449   -1.8217  -21.0085 C   0  0  0  0  0  0  0  0  0  0  0  0
    6.7992    1.4614  -18.0557 C   0  0  0  0  0  0  0  0  0  0  0  0
    5.4684    8.1580  -14.2074 C   0  0  0  0  0  0  0  0  0  0  0  0
    4.8685    8.8194  -15.4595 C   0  0  0  0  0  0  0  0  0  0  0  0
    6.4418    7.0232  -14.5777 C   0  0  0  0  0  0  0  0  0  0  0  0
    4.1758    7.7600  -16.3234 C   0  0  0  0  0  0  0  0  0  0  0  0
    5.7733    5.9933  -15.5144 C   0  0  0  0  0  0  0  0  0  0  0  0
    5.0165    9.2305  -21.4731 C   0  0  0  0  0  0  0  0  0  0  0  0
    5.5956    8.2366  -22.4863 C   0  0  0  0  0  0  0  0  0  0  0  0
    7.1913    9.8630  -21.9535 C   0  0  0  0  0  0  0  0  0  0  0  0
    6.2693    9.7064  -20.7376 C   0  0  2  0  0  0  0  0  0  0  0  0
    5.1766    6.6670  -16.7933 C   0  0  0  0  0  0  0  0  0  0  0  0
    7.0973    0.4800  -16.9262 C   0  0  0  0  0  0  0  0  0  0  0  0
    4.2627    1.8053  -20.5552 C   0  0  0  0  0  0  0  0  0  0  0  0
    5.0738    4.4956  -17.9398 C   0  0  0  0  0  0  0  0  0  0  0  0
    5.0634    2.5968  -19.5043 C   0  0  1  0  0  0  0  0  0  0  0  0
    4.2292    3.7446  -18.9541 C   0  0  2  0  0  0  0  0  0  0  0  0
    5.4732    1.7059  -18.3986 N   0  0  0  0  0  0  0  0  0  0  0  0
    4.3524    5.6972  -17.5259 N   0  0  0  0  0  0  0  0  0  0  0  0
    7.7203    2.0871  -18.5701 O   0  0  0  0  0  0  0  0  0  0  0  0
    6.9661    8.6643  -22.7350 O   0  0  0  0  0  0  0  0  0  0  0  0
    3.8782    4.6238  -20.0237 O   0  0  0  0  0  0  0  0  0  0  0  0
    8.3537   -0.2114  -22.3787 F   0  0  0  0  0  0  0  0  0  0  0  0
    4.8691   -3.0581  -20.7423 F   0  0  0  0  0  0  0  0  0  0  0  0
    9.5853    7.1327  -18.5199 H   0  0  0  0  0  0  0  0  0  0  0  0
    8.8552    8.7265  -20.2718 H   0  0  0  0  0  0  0  0  0  0  0  0
    7.9386    6.1653  -16.9411 H   0  0  0  0  0  0  0  0  0  0  0  0
    4.7941    8.3661  -18.8904 H   0  0  0  0  0  0  0  0  0  0  0  0
    6.6996    1.7471  -21.7916 H   0  0  0  0  0  0  0  0  0  0  0  0
    3.5889   -0.8165  -20.2544 H   0  0  0  0  0  0  0  0  0  0  0  0
    7.2281   -2.5286  -21.8023 H   0  0  0  0  0  0  0  0  0  0  0  0
    6.0110    8.9187  -13.6269 H   0  0  0  0  0  0  0  0  0  0  0  0
    4.6526    7.7437  -13.5968 H   0  0  0  0  0  0  0  0  0  0  0  0
    4.1342    9.5797  -15.1549 H   0  0  0  0  0  0  0  0  0  0  0  0
    5.6712    9.2970  -16.0406 H   0  0  0  0  0  0  0  0  0  0  0  0
    7.3175    7.4538  -15.0855 H   0  0  0  0  0  0  0  0  0  0  0  0
    6.7650    6.5140  -13.6578 H   0  0  0  0  0  0  0  0  0  0  0  0
    3.3773    7.2847  -15.7348 H   0  0  0  0  0  0  0  0  0  0  0  0
    3.7389    8.2486  -17.2068 H   0  0  0  0  0  0  0  0  0  0  0  0
    6.5253    5.2516  -15.8214 H   0  0  0  0  0  0  0  0  0  0  0  0
    4.9629    5.4891  -14.9674 H   0  0  0  0  0  0  0  0  0  0  0  0
    4.5089   10.0654  -21.9784 H   0  0  0  0  0  0  0  0  0  0  0  0
    4.3139    8.7361  -20.7860 H   0  0  0  0  0  0  0  0  0  0  0  0
    5.5830    7.2179  -22.0715 H   0  0  0  0  0  0  0  0  0  0  0  0
    5.0133    8.2599  -23.4193 H   0  0  0  0  0  0  0  0  0  0  0  0
    6.9240   10.7600  -22.5314 H   0  0  0  0  0  0  0  0  0  0  0  0
    8.2430    9.9299  -21.6381 H   0  0  0  0  0  0  0  0  0  0  0  0
    6.0948   10.6769  -20.2499 H   0  0  0  0  0  0  0  0  0  0  0  0
    8.1778    0.4745  -16.7201 H   0  0  0  0  0  0  0  0  0  0  0  0
    6.5530    0.7868  -16.0209 H   0  0  0  0  0  0  0  0  0  0  0  0
    6.7757   -0.5292  -17.2231 H   0  0  0  0  0  0  0  0  0  0  0  0
    4.0720    2.4445  -21.4299 H   0  0  0  0  0  0  0  0  0  0  0  0
    3.3049    1.4827  -20.1211 H   0  0  0  0  0  0  0  0  0  0  0  0
    5.2580    3.8549  -17.0649 H   0  0  0  0  0  0  0  0  0  0  0  0
    6.0341    4.7791  -18.3954 H   0  0  0  0  0  0  0  0  0  0  0  0
    5.9598    3.0118  -19.9883 H   0  0  0  0  0  0  0  0  0  0  0  0
    3.3299    3.3447  -18.4628 H   0  0  0  0  0  0  0  0  0  0  0  0
    4.7572    1.2535  -17.8669 H   0  0  0  0  0  0  0  0  0  0  0  0
    3.5935    5.4208  -16.9363 H   0  0  0  0  0  0  0  0  0  0  0  0
    3.9926    6.1453  -18.3443 H   0  0  0  0  0  0  0  0  0  0  0  0
    3.3498    4.1551  -20.6590 H   0  0  0  0  0  0  0  0  0  0  0  0
  1  2  2  0
  1  3  1  0
  2  8  1  0
  3  9  2  0
  4  8  2  0
  4  9  1  0
  5 10  2  0
  5 11  1  0
  6 10  1  0
  6 12  2  0
  7 11  2  0
  7 12  1  0
  8 22  1  0
  9 23  1  0
 10 25  1  0
 11 34  1  0
 12 35  1  0
 13 24  1  0
 13 29  1  0
 13 31  2  0
 14 15  1  0
 14 16  1  0
 15 17  1  0
 16 18  1  0
 17 23  1  0
 18 23  1  0
 19 20  1  0
 19 22  1  0
 20 32  1  0
 21 22  1  0
 21 32  1  0
 23 30  1  0
 25 27  1  0
 26 28  1  0
 26 30  1  0
 27 28  1  0
 27 29  1  0
 28 33  1  0
  1 36  1  0
  2 37  1  0
  3 38  1  0
  4 39  1  0
  5 40  1  0
  6 41  1  0
  7 42  1  0
 14 43  1  0
 14 44  1  0
 15 45  1  0
 15 46  1  0
 16 47  1  0
 16 48  1  0
 17 49  1  0
 17 50  1  0
 18 51  1  0
 18 52  1  0
 19 53  1  0
 19 54  1  0
 20 55  1  0
 20 56  1  0
 21 57  1  0
 21 58  1  0
 22 59  1  1
 24 60  1  0
 24 61  1  0
 24 62  1  0
 25 63  1  0
 25 64  1  0
 26 65  1  0
 26 66  1  0
 27 67  1  6
 28 68  1  1
 29 69  1  0
 30 70  1  0
 30 71  1  0
 33 72  1  0
M  CHG  1  30   1
M  END
>  <OMEGA_C>  (21) 
A7MIQfgQ7UAqwpTBxA8CQcLhBEHmvZzBkJPzQDDE20BEjI3Bzd26QNPHAUHFYpbB8JXKQDsAQj9j
g6zBDg6SQIukMb8TnaXBBgPUQJym1L9LnazBBmTYQOyPCkErtZ3BY9THQLic50AgHo7BNcyhQO2m
GD9X1KfBFNHjQDpsvb5Yzq7BxAmrQCMu6b9qEajBHJPZQOoNuz8VcpDBGv2uQFmHAkGPUWPBxcqb
QGkcDUEaWnfBRCPOQBO+4EB2PmnBeqCFQBVS+EBOloLBib64QD3Jv0DLOnjBxIagQPOvE0H0yKvB
4w6zQE7JA0Hr47PBwB7mQMLOHUG6oK/BcZ7IQJRNG0GS5qXB9KalQEtY1UCrWIbB+BzjQEa89T7W
aIfBcmiIQLcT5z8hcaTBrVyiQOvbj0C5hI/BYQeiQHgxJkDeCJzBlFWHQNGmb0AUopfBbySvQMBa
2j88MJPB/kaLQNRPtkASNYzB1gz3QLuTBUCTj5TBYOreQPmgCkE54bXBITV4QPD1k0B/MKDB4KgF
QQN0WL6LB7PB8c+bQD24Q8BQ8KXBOF0ZQUM/5EDJKJTBE68NQcqfC0GzLKLBVwn+QNVJxUBPh4fB
ZWmZQHfbBUGEH5fBg2PWQA+g3z8sVa7BP7BlQBgIUb/5CKLBrUznQGHVIcA1a67BClrAQB2zDkHx
B1rBQeKUQMbM90BujFnBOUuEQGNGGUFbenLBJnq1QJzAFEEYU4DBqijqQCqF7kBZXnHBCnvYQJ1y
0ECBhlrBZiZYQPkb6UC7wXvBgEpvQDn6A0GEp4nB/s7QQMcMqEB7JH3BM9CeQOKmr0CSem/BHEmQ
QMoLIUHM06/BgAuKQDnHC0HRSabB46eyQB755kCDkrDBDW2gQJwoBEGlWrvBCJHdQN4oLEE5QLTB
KOMDQdHgHkHnGq3BuwjDQG7UKkHU/6HBPNgCQYHx8j68woXBJLLRQDlpST+6KoDBStLYQCB7B7/S
yInBO06CQKVyHEB0cKvBH4RTQH3HvT/z96DBnUGoQCa2dkDThIjBNBfBQP/tmEC2KZPBfLa+QCLC
QEAG6J/Boh1VQOEOVkDUs5PBtjqYQK9xoD9+747BbfxlQFN3rUB6fYfBUYZ/QK2mxEAUwZLBFGNW
QPr2hECkRaXBYUwIQVO08UCZs5TBEk4AQZr2AEHQZ57Bl0T0QLT74kBexIzBZgu4QEF29UDyK5jB
VMDNQOQ5Sz8gi6zBRQSTQNZ2Hb99QabB1UXVQA7/0L87l6zBXtfTQHhpAUEjQaDBKGTHQJ/15UBo
WI7B7RekQJvrKT+jS6jB5GvmQAMftb5Jm67BgH2rQMWK4b85d6jB8EzYQPHavj+SApDBOs6rQOpe
BEHV8mPBs6WbQO1tDkF+3HjBkfPLQNqO5ECaX2jB1k6GQEOE+kBCVIPBgCq5QOJcwkBpnXfBHRDe
QC2FDkFrgbPBZorsQKB2JUEA3rDBscyqQI9DH0E2kKjB0QG/QH5ZCUHyjKrB9felQG0F1kDfOIbB
ELvfQGFJ1T6KjIfBJCKLQAVE8j8eHqXBGDajQMhfkECVcY/BCIGjQMR3KUAkRZzBTFyIQMfqcUAl
vpfBvLmuQBxw3D89gZPB406LQOeRtUBlmYvBRRr3QDZTAkCuP5TBZkLOQOD2LUFDGanBoGB5QGKr
lUDUJKDBaFYHQZ4/aL4hcLLBTf6aQL8sP8DJgabBFloZQbqL8EB3VpPBADELQczWBkEbcKTBcVkA
QWZi1UANdYXBEfCVQHAV90CRgZnB7qjaQBQO4z8DNa7BBlRmQBXVNr+k/6LB0yfoQPfsIMAaNa7B
eom7QLzKEEELRlrBsmOQQFOj+0CQEFvBt0aEQJ0OG0E0J3XBBsy2QEJkFUGF0YDB0dPoQJVO8kCd
uW/BUH7UQBgw1UB6IFnBoklWQMfd7EBmyX3BB0t1QE+uBEGwwYrBW83SQKnzq0A5E3zBNbmfQAbv
sEBmIW/BwRPOQMDeDUHHVrvBwV/5QMhqA0GadrPBMnwGQflDJUFYcq3B2FbsQF1WL0HUJrjB2e2S
QJv4IkFpwq7BsoqbQJrVH0Fdo6DBZaSmQOzP+0CfTq3BFygBQcwqjD7zXobBjfvQQCPlOj+97H/B
aT7RQM10B7/vNYrBujqHQLQYI0CeHazBWOlWQKL6yz8/HqLB+B6qQPWddUDhtIjBTHDBQDb4mkDR
F5PBGefAQG2eREBkuJ/BMnNXQGAOV0Br4ZPBtPWWQJmfnT8Z3I/BI01qQJtpq0B1aobBr+V5QLta
w0D33JHBn+FXQNDihkBlTKXB27ILQVq98EAbVpLBDHMGQcyZAUHuM5zBiAf3QNHq4UDtfIvBNQ7B
QLUt+UAfRpjBdTDMQDepVT/2q6zBix2UQIkgKb9oJKbB9aDWQKg6yr8yOa3BRebhQNIlA0HMa5/B
mjvLQHsC50D8Lo7B6V2jQNxhJD9kE6jB5PflQClijb5VIa/BGpmtQDic4r/MyajB4iXaQJ6Quj/t
epDByfimQM+EAkF5QWPBmFKaQD3fDUGUInjBUIjHQMVT4UDkjmfBmx6HQPG1+0AsAYTBm1O2QHst
wUCiQXjBz8bNQHcBJEFc0qnBLoqdQCLPI0G9w6fBCN+wQEUCA0EL0q/Bd8TYQChwDEERgqrBKrim
QC8H10D4uobBHuXjQA794T6ptIfBglGJQJAU6j9wfqTBqeeiQEymkEBwj4/Bq0iiQCXjJkC84pvB
VPCGQKtabkBaNpfBna6vQEg82T+LM5PB5WGMQIbxt0DPn4zBkHD3QAcbB0BIZZTByBGNQL8CEEGh
TqzBnHNwQMVUkkAEpJ/B/ccGQUBWub1+OrPBKsueQKI1QcCo8qbBS0QcQTjl7UC7/I/B+fcSQTWO
B0FOXKHBg5b/QGJt0kAUEYTBtPGfQG4V/UBsjJrBypfXQL+26j/LS67BUsVpQPWKTr+noaLBMVLq
QHHCG8BNKa/BITC1QPpCDkGDPVjB4DCKQOEV90AZ6FvBEYmCQAxZGkHak3TBVee2QJBBFUEXR3/B
1lXlQGGf70AInG3BERTOQMtA0ED0hFjBtwhUQCTP7UC6eoDB8px9QDBdBkEXbIvBFwnQQCd7qkBA
OXzBjD+bQPS8r0DtJ3HB6FTVQOtELEG+W7HBEAHfQD6/K0EDMqPB3iWXQIZSJEFeHZ/BwV+OQOGn
MUGYp6vBIOyzQIizA0GdlLjBHlmsQBuY5EBvTa3Ba7n0QFQcCkEZuq/B9DgDQfyr4T63BYbBtEHS
QO4MNj8CZ4DBCADaQOl/D7+FXYrB5BiDQEgcH0BPYKvBPXhVQFyUvT/8I6HBHkepQMAie0DUVojB
BV3BQPqymEBRfJPBzc2+QD5RQ0Czn5/BMapXQOiDUkCMzpLBKOWYQGronD/PCY/BdrhmQCYQsEAI
C4jBF/iBQL3uxUDzVJPBU4tNQGhPgkAkZ6TBy0fPQMbPCkEa457BoZL7QJsjB0Ej6Z3BlcyyQMkK
AkFjT5fBCwbuQKSD4EDhh47B2U/MQFvWNj+3XKzBueyRQC8pKb/GbKXB0WLRQGjY279F/6zBdZAF
QZzn80CCgpXBSWnCQFaK6kBGvo7BG7mjQEd0Gz+df6fBcTTjQCiX5b7HDq/Bp5ioQEw36b8uQajB
DffYQOy6sT/9wY/BOCyzQCWcAEFzp2HBLI+fQBWzDEGrvHTBRDPRQMut3UBIamnBy3qGQLpt+kDM
poHBOfS5QKZyv0BtBXnBMowjQZSc80Cy44fB7IYnQbD/EUFD9YfBFaEsQU0wBEEFQJnBxT4dQXsV
6kBmj5PByAakQOks10DFRIbB2yLfQNa3pT6hIofBWa+LQK6E7D+tR6TBSVmiQKLkkUARco/BGr2k
QEdgKEDtuJvBbVyJQOoGc0AGypfBP3evQDSl3z8MnpLBPbSJQDiRt0DY74vBJSH4QI7g5T8AwZTB
SQ4sQUm+F0HvBZPB+v9/QO5/lUCaf6DBmQkFQe7msL5UurPBTQ+XQOdaQsDSdabBWiPDQFFUFEGp
baXB+cwIQZlPDkEShaPBvOKQQNwMBUFDBZjBeIL5QNI1yUBQ1YjB+sbZQID31z8hA67BvtFlQEqT
Pb/AqqHBev/iQN0SJ8CuDa/BmmDFQA/tC0EntlfBgFCZQEby8kB4FFjBLLOJQDEdGUHHuG7Bz1a5
QBg+FEGJDH7B5MHsQLw07EAbnHHBxHfcQKAry0CJi1vBqrdZQEs/60Cm63nBBKpwQJlQBkFBTYjB
XGfRQBl+qECgY3/Bjg2hQPkarkAVGnDBSx4yQZ0Q4kBloIXBIYEWQRw560ClXYLBn0AZQdGOGkHk
GIXBfEI1QRL6FUF604LBE+U8Qc3w+kDHXZnBmkknQRwyB0HDf6HBl9ogQXSayEBXl5XBTZsAQV7e
ZD0OnYbByUrUQDrCNz9twn7BRlbMQDfcEb9aM4nBQB2HQOEnH0DjWavBN5tYQIjGxz+ZBaHBbXOo
QETseUB0iYjBvP/AQBpunEDw4JLB30fCQBqfQUCrUZ/Bc2xXQL4EWkDNOJTB91mXQMoqsT/MO47B
3bVkQODJrUAAC4fBObx5QOaNxUCAYJLBHIVgQH9qhkCUy6XB

>  <OMEGA_E>  (21) 
wH6WPuABmz7gUp8+GEv5Pg==

>  <OMEGA_NBR>  (21) 
     78054

$$$$
50167992
     RDKit          3D

 71 73  0  0  1  0  0  0  0  0999 V2000
    6.3573    0.8107  -21.5937 C   0  0  0  0  0  0  0  0  0  0  0  0
    4.5857   -0.6519  -20.7608 C   0  0  0  0  0  0  0  0  0  0  0  0
    6.6553   -1.6083  -21.6280 C   0  0  0  0  0  0  0  0  0  0  0  0
    5.7913    7.8431  -18.9813 C   0  0  0  0  0  0  0  0  0  0  0  0
    8.4458    7.6155  -18.4730 C   0  0  0  0  0  0  0  0  0  0  0  0
    5.0782    0.6422  -21.0198 C   0  0  0  0  0  0  0  0  0  0  0  0
    7.1496   -0.3138  -21.8851 C   0  0  0  0  0  0  0  0  0  0  0  0
    5.3706   -1.7759  -21.0722 C   0  0  0  0  0  0  0  0  0  0  0  0
    6.2349    7.2324  -17.7952 C   0  0  0  0  0  0  0  0  0  0  0  0
    6.7301    8.4052  -19.8636 C   0  0  0  0  0  0  0  0  0  0  0  0
    6.7899    1.4615  -18.0607 C   0  0  0  0  0  0  0  0  0  0  0  0
    5.3916    8.1382  -14.1999 C   0  0  0  0  0  0  0  0  0  0  0  0
    4.8525    8.8290  -15.4620 C   0  0  0  0  0  0  0  0  0  0  0  0
    6.4159    7.0482  -14.5593 C   0  0  0  0  0  0  0  0  0  0  0  0
    4.1947    7.7967  -16.3805 C   0  0  0  0  0  0  0  0  0  0  0  0
    5.8227    6.0176  -15.5405 C   0  0  0  0  0  0  0  0  0  0  0  0
    5.1902    6.6835  -16.8046 C   0  0  0  0  0  0  0  0  0  0  0  0
    7.0645    0.4643  -16.9398 C   0  0  0  0  0  0  0  0  0  0  0  0
    5.0032    9.9789  -20.8830 C   0  0  0  0  0  0  0  0  0  0  0  0
    5.8973    8.0133  -22.1951 C   0  0  0  0  0  0  0  0  0  0  0  0
    7.3634   10.0121  -21.7251 C   0  0  0  0  0  0  0  0  0  0  0  0
    4.2823    1.8465  -20.5843 C   0  0  0  0  0  0  0  0  0  0  0  0
    5.0835    4.5002  -17.9278 C   0  0  0  0  0  0  0  0  0  0  0  0
    5.0736    2.6215  -19.5134 C   0  0  1  0  0  0  0  0  0  0  0  0
    4.2331    3.7538  -18.9413 C   0  0  2  0  0  0  0  0  0  0  0  0
    6.2539    9.0946  -21.1505 C   0  0  0  0  0  0  0  0  0  0  0  0
    7.5665    7.1162  -17.5701 N   0  0  0  0  0  0  0  0  0  0  0  0
    8.0521    8.2605  -19.5986 N   0  0  0  0  0  0  0  0  0  0  0  0
    5.4705    1.7119  -18.4206 N   0  0  0  0  0  0  0  0  0  0  0  0
    4.3578    5.6937  -17.5014 N   0  0  0  0  0  0  0  0  0  0  0  0
    7.7210    2.0904  -18.5528 O   0  0  0  0  0  0  0  0  0  0  0  0
    3.8555    4.6419  -19.9943 O   0  0  0  0  0  0  0  0  0  0  0  0
    8.3890   -0.1498  -22.3994 F   0  0  0  0  0  0  0  0  0  0  0  0
    4.8965   -3.0158  -20.8197 F   0  0  0  0  0  0  0  0  0  0  0  0
    6.7269    1.8025  -21.8087 H   0  0  0  0  0  0  0  0  0  0  0  0
    3.6065   -0.7804  -20.3236 H   0  0  0  0  0  0  0  0  0  0  0  0
    7.2611   -2.4725  -21.8571 H   0  0  0  0  0  0  0  0  0  0  0  0
    4.7370    7.8801  -19.2128 H   0  0  0  0  0  0  0  0  0  0  0  0
    9.5029    7.4946  -18.2881 H   0  0  0  0  0  0  0  0  0  0  0  0
    5.8763    8.8891  -13.5587 H   0  0  0  0  0  0  0  0  0  0  0  0
    4.5532    7.6781  -13.6564 H   0  0  0  0  0  0  0  0  0  0  0  0
    4.1091    9.5868  -15.1737 H   0  0  0  0  0  0  0  0  0  0  0  0
    5.6832    9.3146  -15.9951 H   0  0  0  0  0  0  0  0  0  0  0  0
    7.2930    7.5214  -15.0249 H   0  0  0  0  0  0  0  0  0  0  0  0
    6.7240    6.5298  -13.6393 H   0  0  0  0  0  0  0  0  0  0  0  0
    3.3497    7.3348  -15.8490 H   0  0  0  0  0  0  0  0  0  0  0  0
    3.8259    8.3068  -17.2826 H   0  0  0  0  0  0  0  0  0  0  0  0
    6.6247    5.3381  -15.8646 H   0  0  0  0  0  0  0  0  0  0  0  0
    5.0437    5.4426  -15.0185 H   0  0  0  0  0  0  0  0  0  0  0  0
    8.1414    0.4509  -16.7159 H   0  0  0  0  0  0  0  0  0  0  0  0
    6.5068    0.7619  -16.0396 H   0  0  0  0  0  0  0  0  0  0  0  0
    6.7432   -0.5394  -17.2551 H   0  0  0  0  0  0  0  0  0  0  0  0
    4.6856   10.4589  -21.8204 H   0  0  0  0  0  0  0  0  0  0  0  0
    4.1862    9.3513  -20.4975 H   0  0  0  0  0  0  0  0  0  0  0  0
    5.2528   10.7522  -20.1416 H   0  0  0  0  0  0  0  0  0  0  0  0
    5.5547    8.4968  -23.1218 H   0  0  0  0  0  0  0  0  0  0  0  0
    6.7866    7.4018  -22.4079 H   0  0  0  0  0  0  0  0  0  0  0  0
    5.0969    7.3710  -21.7992 H   0  0  0  0  0  0  0  0  0  0  0  0
    7.0011   10.4946  -22.6448 H   0  0  0  0  0  0  0  0  0  0  0  0
    7.6218   10.7829  -20.9841 H   0  0  0  0  0  0  0  0  0  0  0  0
    8.2550    9.4099  -21.9540 H   0  0  0  0  0  0  0  0  0  0  0  0
    4.1004    2.4994  -21.4507 H   0  0  0  0  0  0  0  0  0  0  0  0
    3.3201    1.5184  -20.1641 H   0  0  0  0  0  0  0  0  0  0  0  0
    5.2776    3.8540  -17.0590 H   0  0  0  0  0  0  0  0  0  0  0  0
    6.0388    4.7919  -18.3885 H   0  0  0  0  0  0  0  0  0  0  0  0
    5.9734    3.0475  -19.9811 H   0  0  0  0  0  0  0  0  0  0  0  0
    3.3455    3.3375  -18.4424 H   0  0  0  0  0  0  0  0  0  0  0  0
    4.7474    1.2483  -17.9086 H   0  0  0  0  0  0  0  0  0  0  0  0
    3.6230    5.4111  -16.8847 H   0  0  0  0  0  0  0  0  0  0  0  0
    3.9643    6.1284  -18.3115 H   0  0  0  0  0  0  0  0  0  0  0  0
    3.3237    4.1746  -20.6279 H   0  0  0  0  0  0  0  0  0  0  0  0
  1  6  2  0
  1  7  1  0
  2  6  1  0
  2  8  2  0
  3  7  2  0
  3  8  1  0
  4  9  2  0
  4 10  1  0
  5 27  2  0
  5 28  1  0
  6 22  1  0
  7 33  1  0
  8 34  1  0
  9 17  1  0
  9 27  1  0
 10 26  1  0
 10 28  2  0
 11 18  1  0
 11 29  1  0
 11 31  2  0
 12 13  1  0
 12 14  1  0
 13 15  1  0
 14 16  1  0
 15 17  1  0
 16 17  1  0
 17 30  1  0
 19 26  1  0
 20 26  1  0
 21 26  1  0
 22 24  1  0
 23 25  1  0
 23 30  1  0
 24 25  1  0
 24 29  1  0
 25 32  1  0
  1 35  1  0
  2 36  1  0
  3 37  1  0
  4 38  1  0
  5 39  1  0
 12 40  1  0
 12 41  1  0
 13 42  1  0
 13 43  1  0
 14 44  1  0
 14 45  1  0
 15 46  1  0
 15 47  1  0
 16 48  1  0
 16 49  1  0
 18 50  1  0
 18 51  1  0
 18 52  1  0
 19 53  1  0
 19 54  1  0
 19 55  1  0
 20 56  1  0
 20 57  1  0
 20 58  1  0
 21 59  1  0
 21 60  1  0
 21 61  1  0
 22 62  1  0
 22 63  1  0
 23 64  1  0
 23 65  1  0
 24 66  1  6
 25 67  1  1
 29 68  1  0
 30 69  1  0
 30 70  1  0
 32 71  1  0
M  CHG  1  30   1
M  END
>  <OMEGA_C>  (22) 
aG/LQPOJTz/uv6zBsb2SQFniJr8UFqbBz/fUQIPbzb89Bq3BKVK5QNH6+kC92ZfB5iEHQXOy80C+
yJPBqICiQFhmJD+hKKjBJMnkQACqoL6hFK/BHNyrQMpP47/sk6jBaITHQOZv50B9XI7BslzXQIl7
BkG36J7BgUbZQH0Suz9TfJDBFYisQAs2AkHRMmPBhUebQLBDDUF2ZHfBHU/NQNqK4UDb8mjBVDuG
QHV++UBAC4PBrlO6QM6PwECwpXjB5RWmQFrf1UDOb4bBvxDiQFi27T6mhIfBIxqgQJipH0FyEKfB
9ra8QHc2AEGcj7HB2aDrQIIxIEEDza3BZgiJQI9a7D+UrKTB/quiQJIBkEAibI/BnVqiQATGJ0CE
G5zBKXWHQDs+cEDBh5fBFiDIQIeDEUFHNKnBtyDyQLG340Cfj4zBddUAQR0rBEHlyZzBcw6vQDgg
2z9SXZPBynKLQGMytkDYAozBlRL3QAvJBUAabJTBwsB2QEiKlEBr9J/BbDkGQVZvGb4IMrPBUbCc
QIwDQcCujqbBjELXQP635j8keK7B9tBmQAPIR7+vlqLBn1roQMY9HsBE267Bv5WXQNkp/EDWs5nB
CgwYQdnT70AYTpLBfAq8QNk5DkFB8FjBKbSRQKGy9UCUgFrBV32DQGNjGUFlx3LBt9y1QJ8IFUHI
63/BfmDpQCqv8EDVZXDBPyvXQH300ECbOlrB02BWQF626kCZlX3BO9t0QInoBEG4QorBx/3TQJ/R
qkCU1X3Bq2WhQGEprkC6S3DBYEMCQWrb5j5DuoXBWjfQQNgJQz8XUYDBb8jXQBgTCr+MCorBHPCV
QJNXJ0FCkK7BkfWFQOKeFUHJ+qPB4BaoQN0ILEHtIaHBBMCxQALzB0GD+bjB9SvZQLnb7EBiQ7PB
pBmjQF7f60DGZK7BmwjgQBTqJ0GPKLXBG+bzQK2GLEFy36fBaxQEQcuOFkG0oa/ByjaDQIz2H0D2
mqvBnHxUQGtawj8HUKHBFuKoQIaodkDXeIjBAT7BQJVXmUCiG5PBOSa/QPsKQ0BN2Z/BURxWQMyY
VUATipPBcOqXQD3Inz/ORI/Bf99nQF0nrUDlE4fBlrd9QJwbxEDjfZLBh7dUQIWWhUDdBaXBZsmT
QLqvJr+BJabBdcvMQF4yUD/1nazBbEXWQECIzb+g8azBuhG6QN4F/EDetpfB84EHQcC380CZypPB
76CjQHuqJD/TKKjB//6sQMsd479QmKjBKjbmQB0Nn75n667BkELIQJTc50AsTo7BLiHYQBj6BkGk
x57BorHYQC4VuT+JWpDBtlKtQAWkAUHU8WLBovWbQEzmDEF7AHfB6QXOQLxx4EAj6GjBfN+GQMgK
+UCY6oLBzgO7QA3hv0As03jB7cumQLbA1UAHdIbBM+DgQIev3D59eYfBWIWhQEuTIEGf2abBFz68
QBWnAEH9TbHBhKfsQKg1IEHb463BuNuJQBVO7D8eyaTBA8WjQCwNkUDu74/BhY6iQAm3J0AsHpzB
V3uHQJz6b0D1j5fBptbIQJ7/EUEgE6nBMOHyQMec40DalIzBIjcBQU50BEH1t5zBR62uQKjL2j8M
VJPBkjCMQN5ftkD6JIzBSML2QAULBUDNHZTBUFJyQF9Zk0D2+5/BRbSdQBHwQMCkpabB1gIHQT0I
Fb4y8bLBiaNoQHLKR78iuqLBSr7YQKQi5z+FQa7B3LDpQCYPHsBJw67BxUyYQDG5/UCCgJnBQWsY
QSx+70BcXZLBHPC8QD+MDUFymVjBBIiSQItv9ECuRVrBRSyEQEf3GEFrPHLBBn22QDXEFEGfe3/B
YyTqQFS070AcP3DBLNDXQIZ3z0BzSVrBOPlXQLLx6UAfWH3BLK91QAjUBEFVEYrBtanUQG1BqkCu
J37BuRGiQE9HrUDnmHDB3J0BQakF0j5qkYXByKrOQPKnNz/mTIDBzJ3WQGwMEb/DJorBoEGXQJtA
KEFqV67BxCaHQLPXFkERpKPBXlSqQCbyLEGb/aDB1TixQOdaCEHWuLjB+S3YQAUP7UBRDLPBl1yi
QPRw7UA5AK7By+jgQFPnJ0FlPbXBSdP1QPuRLEFrD6jBcVMEQfU8FkH7yK/BwnyEQA/xH0A0vavB
0LZVQFUhwj+QjqHBgJqsQBlyeUDZGYnBMenAQGh7m0DQIJTBaZe/QO0TQ0AQu5/BZ1tYQFH4VEDx
JpPBwT6XQG6ToD/uRY/BAF9qQFRerECBLYfBE9R9QIbbxECJdZLB7e1OQNaWg0C2vqTB

>  <OMEGA_E>  (22) 
QIFAPnB7Qz4=

>  <OMEGA_NBR>  (22) 
     80629

$$$$
50167981
     RDKit          3D

 73 75  0  0  1  0  0  0  0  0999 V2000
    6.2985    0.7779  -21.6099 C   0  0  0  0  0  0  0  0  0  0  0  0
    4.6565   -0.7133  -20.5846 C   0  0  0  0  0  0  0  0  0  0  0  0
    6.6623   -1.6323  -21.6255 C   0  0  0  0  0  0  0  0  0  0  0  0
    7.7293    6.9947  -17.6099 C   0  0  0  0  0  0  0  0  0  0  0  0
    6.0286    7.9877  -18.7646 C   0  0  0  0  0  0  0  0  0  0  0  0
    6.2634    7.2267  -17.6609 C   0  0  0  0  0  0  0  0  0  0  0  0
    5.0829    0.5876  -20.9188 C   0  0  0  0  0  0  0  0  0  0  0  0
    7.0911   -0.3308  -21.9546 C   0  0  0  0  0  0  0  0  0  0  0  0
    5.4425   -1.8227  -20.9449 C   0  0  0  0  0  0  0  0  0  0  0  0
    6.8828    1.5179  -18.0649 C   0  0  0  0  0  0  0  0  0  0  0  0
    5.3537    8.2200  -14.1957 C   0  0  0  0  0  0  0  0  0  0  0  0
    4.8157    8.8818  -15.4762 C   0  0  0  0  0  0  0  0  0  0  0  0
    6.3595    7.0993  -14.5197 C   0  0  0  0  0  0  0  0  0  0  0  0
    4.1665    7.8291  -16.3830 C   0  0  0  0  0  0  0  0  0  0  0  0
    5.7418    6.0478  -15.4647 C   0  0  0  0  0  0  0  0  0  0  0  0
    5.1618    6.6989  -16.7504 C   0  0  0  0  0  0  0  0  0  0  0  0
    7.2048    0.5256  -16.9516 C   0  0  0  0  0  0  0  0  0  0  0  0
    6.1753    8.0779  -22.1530 C   0  0  0  0  0  0  0  0  0  0  0  0
    5.1341   10.0572  -20.9247 C   0  0  0  0  0  0  0  0  0  0  0  0
    7.0755   10.4068  -22.4634 C   0  0  0  0  0  0  0  0  0  0  0  0
    4.2747    1.7805  -20.4747 C   0  0  0  0  0  0  0  0  0  0  0  0
    7.5445    9.2544  -20.3219 C   0  0  0  0  0  0  0  0  0  0  0  0
    5.1224    4.5726  -17.9825 C   0  0  0  0  0  0  0  0  0  0  0  0
    5.0929    2.6214  -19.4776 C   0  0  1  0  0  0  0  0  0  0  0  0
    4.2459    3.7587  -18.9189 C   0  0  2  0  0  0  0  0  0  0  0  0
    6.4641    9.4244  -21.4404 C   0  0  0  0  0  0  0  0  0  0  0  0
    8.2896    7.6369  -18.6098 N   0  0  0  0  0  0  0  0  0  0  0  0
    7.2726    8.2327  -19.2825 N   0  0  0  0  0  0  0  0  0  0  0  0
    5.5483    1.7748  -18.3572 N   0  0  0  0  0  0  0  0  0  0  0  0
    4.3611    5.7248  -17.5044 N   0  0  0  0  0  0  0  0  0  0  0  0
    7.7894    1.9554  -18.7658 O   0  0  0  0  0  0  0  0  0  0  0  0
    3.7830    4.5883  -19.9852 O   0  0  0  0  0  0  0  0  0  0  0  0
    8.2645   -0.1441  -22.5990 F   0  0  0  0  0  0  0  0  0  0  0  0
    5.0322   -3.0699  -20.6244 F   0  0  0  0  0  0  0  0  0  0  0  0
    6.6198    1.7747  -21.8737 H   0  0  0  0  0  0  0  0  0  0  0  0
    3.7278   -0.8583  -20.0528 H   0  0  0  0  0  0  0  0  0  0  0  0
    7.2686   -2.4845  -21.8949 H   0  0  0  0  0  0  0  0  0  0  0  0
    8.2480    6.3980  -16.8741 H   0  0  0  0  0  0  0  0  0  0  0  0
    5.0755    8.3230  -19.1461 H   0  0  0  0  0  0  0  0  0  0  0  0
    5.8543    8.9833  -13.5820 H   0  0  0  0  0  0  0  0  0  0  0  0
    4.5108    7.7921  -13.6331 H   0  0  0  0  0  0  0  0  0  0  0  0
    4.0666    9.6406  -15.2060 H   0  0  0  0  0  0  0  0  0  0  0  0
    5.6466    9.3619  -16.0139 H   0  0  0  0  0  0  0  0  0  0  0  0
    7.2437    7.5402  -15.0033 H   0  0  0  0  0  0  0  0  0  0  0  0
    6.6610    6.6067  -13.5836 H   0  0  0  0  0  0  0  0  0  0  0  0
    3.3049    7.3894  -15.8591 H   0  0  0  0  0  0  0  0  0  0  0  0
    3.8236    8.3170  -17.3073 H   0  0  0  0  0  0  0  0  0  0  0  0
    6.5203    5.3254  -15.7512 H   0  0  0  0  0  0  0  0  0  0  0  0
    4.9328    5.5240  -14.9345 H   0  0  0  0  0  0  0  0  0  0  0  0
    8.2871    0.3298  -16.9360 H   0  0  0  0  0  0  0  0  0  0  0  0
    6.8945    0.9469  -15.9840 H   0  0  0  0  0  0  0  0  0  0  0  0
    6.6646   -0.4155  -17.1318 H   0  0  0  0  0  0  0  0  0  0  0  0
    7.1196    7.6423  -22.5114 H   0  0  0  0  0  0  0  0  0  0  0  0
    5.6967    7.3843  -21.4460 H   0  0  0  0  0  0  0  0  0  0  0  0
    5.5043    8.2518  -23.0071 H   0  0  0  0  0  0  0  0  0  0  0  0
    5.3521   11.0109  -20.4217 H   0  0  0  0  0  0  0  0  0  0  0  0
    4.4600   10.2371  -21.7751 H   0  0  0  0  0  0  0  0  0  0  0  0
    4.6524    9.3696  -20.2140 H   0  0  0  0  0  0  0  0  0  0  0  0
    7.2853   11.3673  -21.9700 H   0  0  0  0  0  0  0  0  0  0  0  0
    8.0112    9.9868  -22.8609 H   0  0  0  0  0  0  0  0  0  0  0  0
    6.3654   10.5659  -23.2883 H   0  0  0  0  0  0  0  0  0  0  0  0
    4.0209    2.3964  -21.3501 H   0  0  0  0  0  0  0  0  0  0  0  0
    3.3501    1.4351  -19.9889 H   0  0  0  0  0  0  0  0  0  0  0  0
    8.4923    8.9871  -20.8121 H   0  0  0  0  0  0  0  0  0  0  0  0
    7.6546   10.2244  -19.8149 H   0  0  0  0  0  0  0  0  0  0  0  0
    5.4269    3.9507  -17.1278 H   0  0  0  0  0  0  0  0  0  0  0  0
    6.0169    4.9186  -18.5213 H   0  0  0  0  0  0  0  0  0  0  0  0
    5.9634    3.0450  -20.0000 H   0  0  0  0  0  0  0  0  0  0  0  0
    3.3989    3.3400  -18.3557 H   0  0  0  0  0  0  0  0  0  0  0  0
    4.8525    1.3597  -17.7711 H   0  0  0  0  0  0  0  0  0  0  0  0
    3.6283    5.3930  -16.9104 H   0  0  0  0  0  0  0  0  0  0  0  0
    3.9640    6.1896  -18.2958 H   0  0  0  0  0  0  0  0  0  0  0  0
    3.2351    4.0774  -20.5695 H   0  0  0  0  0  0  0  0  0  0  0  0
  1  7  2  0
  1  8  1  0
  2  7  1  0
  2  9  2  0
  3  8  2  0
  3  9  1  0
  4  6  1  0
  4 27  2  0
  5  6  2  0
  5 28  1  0
  6 16  1  0
  7 21  1  0
  8 33  1  0
  9 34  1  0
 10 17  1  0
 10 29  1  0
 10 31  2  0
 11 12  1  0
 11 13  1  0
 12 14  1  0
 13 15  1  0
 14 16  1  0
 15 16  1  0
 16 30  1  0
 18 26  1  0
 19 26  1  0
 20 26  1  0
 21 24  1  0
 22 26  1  0
 22 28  1  0
 23 25  1  0
 23 30  1  0
 24 25  1  0
 24 29  1  0
 25 32  1  0
 27 28  1  0
  1 35  1  0
  2 36  1  0
  3 37  1  0
  4 38  1  0
  5 39  1  0
 11 40  1  0
 11 41  1  0
 12 42  1  0
 12 43  1  0
 13 44  1  0
 13 45  1  0
 14 46  1  0
 14 47  1  0
 15 48  1  0
 15 49  1  0
 17 50  1  0
 17 51  1  0
 17 52  1  0
 18 53  1  0
 18 54  1  0
 18 55  1  0
 19 56  1  0
 19 57  1  0
 19 58  1  0
 20 59  1  0
 20 60  1  0
 20 61  1  0
 21 62  1  0
 21 63  1  0
 22 64  1  0
 22 65  1  0
 23 66  1  0
 23 67  1  0
 24 68  1  6
 25 69  1  1
 29 70  1  0
 30 71  1  0
 30 72  1  0
 32 73  1  0
M  CHG  1  30   1
M  END
>  <OMEGA_C>  (23) 
YI3JQGgkRz/74KzBLQKVQNOdNr9RraTBpTHVQA7w0L/6AK3Bs1b3QIjU30Ak4YzBJurAQNea/0DR
HZbBxG3IQLpA50CNSY3BwKaiQCtvFj/AWafB6eniQB5bqb4So6/BVSmuQK1M6b8Vj6fBnz/cQMZL
wj/3hJDBVFGrQO2EA0GDIWPBPxqaQLQbDkGannfBO4HLQMot40DKUGjBpVOFQO+H+kBMEIPBEr23
QKCHwUA8b3fB2y2lQL9d1kDAAIbBj43mQIuNBj/YnIfBSpzFQBg/AUFRObHBpEqkQHXqIEHiZafB
VWriQDaCJkEGtbPBLMqIQAno4z8hzKPBSWzxQBoSFEFTk6LB5uqjQGhSkkAk3I/BVfmiQDDFJ0AL
0pvBN96HQM+OcEDXWZfB0NnOQCnKFkHXhavBPqIEQRxh9EDs4JTB8rjoQAa5A0GcQprBCIyxQJss
4z9025LB+I2LQNcxt0AcCYzBtEL5QFFJ+j9FIJbBlRxyQAnTkkCg4Z/BYjsEQUiOE762yrTBbQeh
QHJ4RMDD/qTBItXTQBYp4z9F/a7BCJRuQEW6W78gbKDBt5joQAgCH8CoKK/ByvcDQcu8zEA5/obB
i2qiQN4qBUFPK5nBwVa7QIi7D0GuT1nBRliQQAJZ+UBGIVrBdyGCQOE/GkH2S3PB97C0QHXKFUFg
HIDBW8znQLpJ8UB+DXDBHCfVQC9q00A7VlnBIIRTQO917EDLvn3BFbV0QFYSBUFTdYrBHKbQQIpp
qkANBXzBN9mdQKbEsEDJ827B8JcEQXrWqD7dfIfB/Z/cQMBpcj9yvn/BKETVQG291L4FDonBF9Tj
QHON9EBzF7TBrku2QOpL7EBskavBkiOwQEcHBEGWDrjBYESrQIUsMEGbX6PBE7iOQF3LI0F8M67B
L+CUQArqFUFTtqHBhyHpQE7gNUGGwq/B1y0AQc7JH0Eo47bBdrHLQAcOKUFyTrrBi6uAQHdeGUDx
zKrBuGhWQGeytz9Y6Z/BU+AHQT/LD0Eef6bB4vL0QA2XI0EBhZ7BSamtQJfXfECzBYnBC4rAQNxk
nUCQK5TBD9S+QJTgQkD3/5/BAIdZQM/BVUBh2JLBYUebQOIJrj9HK47ByzVoQMCTrEB0SIfBdrF9
QD4RxkDbXZLBSQxPQE96gkA+jqTBfKrIQF43MT+++qzBLOyTQBjEP79YTKTB5KrTQCJB3L8dcazB
zFf2QCCl50CzX47BTPS7QLlT9EAy8pjBGMfGQIfD5kAI7o7BwM2hQOoWCT9wXqfBSKbhQDXb3r5T
eK/B8rSsQII38L+85abBYDbcQHjdxj+kPpDBZKmsQENIBEGYJmXB7hCbQD2PDkHSsnnBKunNQHXT
5UB8YGrB40mGQM38+kDT84PBMiS7QM1aw0A9UHnBVAamQFm91kCZ1YbBBjDnQLJsBz/yn4fB6lCm
QIZpIEGiOKjBxEjxQIsxLEGnEKPBdL3fQGNGI0GdK7bBzImIQNXh3z8cAqTBmP3kQDuiBUH/76jB
3N+jQMa2kEBW3o/BZt+iQNsGJUDP+5vBiOWHQGq2bUDcbJfBPNrWQPFGHUH2a6rB06ECQRDU9UBU
jJfBrkjiQIi7/EAsu53BXI+xQAa42z+EH5PBPqCLQBPrtUB1HYzBkiD5QLBiB0CaIJXBk3NyQCeh
kUA17Z/BcYUDQa35kL6PxLTBbCCfQPb1RsAJCKTBlzXTQGOj1j+bW6/BppNsQOYIXr9W9J/BWNHm
QK+OJcDxXq7BqLYEQdE03kBqkYfBdU2cQOSl90B/UJzBlde7QFa6EEH3SVvB/A+SQBEF+kD4NFzB
0AaDQFCxGkF/cnXBY3S1QGQzFkGsPoHBUpLpQEjT9EAPRHLBJlfYQEWS1kCyZVvB/rdVQIkU7UCp
V3/Bvy52QNgXBUE8YYvBWRLVQI27rUDDSn7B186iQLscsUCUc3DBOBQFQV333T5Q+YbB+wHaQGIg
XD/2z3/BlEzZQPT2475Mx4nBB7mTQKDGFUFWeK3BK2afQJeKHEEL0J/BT3adQKskMUEh0qnBKcwJ
QR/mKUE0qaTBHYzoQGnxPEEUqKTB+XvqQFVXKEH+pZrBGv8AQYYqIUH35rfB4NbMQLHfGEHad7vB
8rjWQKIRNEGxh7fBTU6BQBM7F0A5FavBJfFUQNjctj/ZN6DB7TrQQGfJ9kCa3a3B5ikDQZoJBEHF
pavB/yatQFSNeUBH/4jB9cXAQNN/m0CmG5TBEbO+QPZPQEAFKKDBDm9ZQFjEUkAq9pLBSHGbQOoD
nD9V7o7Byx1rQFbNq0Ag54bBa0t6QNpTw0CmaZLBY31PQJ1qgUBHpKTBTd7IQGhEKz9x2qzBDyuS
QKgtOr/7dqTBcEvRQEOc4L/1eKzBwzn3QLc330Can43BvQ7AQH3MAEFf+5XBinrIQOGf50B6eY3B
8IKhQP/XCz/xZqfBXMTgQKRg9r6sW6/BF/mpQOk38L+yCafBbNbaQKSgxj8XBZDB83OuQFslAUFK
O2LBsmmcQFaoDEFQB3bBzIrOQKAr30BAomjBmcuGQInx+EBQgILBizq6QN7nvkAzRXjBqlOmQMVq
1UCTD4bBZ1fkQFbtAz9wYIfBNnvhQDypJEETn7TBmXi6QEHWAkGk/6/BAYKmQPFFJkH1GKfBGOuI
QAkG5D+VMqTBZq/vQDioFEHz2qLBGLikQB4tkkAOQZDBvD2jQKvCJkA6I5zBqK+IQIQacUAS0pfB
y+bLQOI2GEGMaKvBuBcEQZL780BwtZXBvUnnQFZIBEFwjprBWZGwQAhy3z88IJPB4GqMQNnTtkBW
OIzB+5H4QMzyBUCcvZTB9ih2QAhQk0CfbaDBR0IDQW7uub4wjbTB4iebQLc6RsBTPaTBxJ/UQKmQ
0j9kGa/BoFNoQAQCUr8aPqDBD5XjQCrVKMBNba7BuzUEQfFUy0DLA4jBb2qhQAHyBkEniZjBg8K+
QPXmDEEs+1fBJ+OTQOCb80C7UVnBm8SEQNylGEFo6HDB4Ku2QPamFEGWmX7BvWLqQKEo7kCeXXDB
hPzYQIwSzkC5KVrB6WdXQHwX6kC/kXzBtgJ2QMnuBEHroYnB5RDTQDp6qEA3un3BY/KgQEMgrUAO
2W/Bv5UDQRU+yT4Oj4bBZdLWQPxcWj93bX/BMN/VQMf05L5ooInBPB7uQPvnM0EHkLHBhd/7QFoT
G0Gu7bfBFNLJQMzcJ0Hn77rBpOqqQO9S80D7kqnBdAyjQKY+BkHAV7bB5RnVQGjq8kCHVbPBpl2W
QGjeHUGZgKDBb0yzQHaXNUFaLKTBH3WPQF5KKUEsk63B3XyCQLURGUAlV6vB8d9UQAj/vT88fqDB
E4EGQUv1D0F2HqfBAfv0QA4AJEGUwJ7BrKCuQHile0Dig4nBLD3BQJWYnUDBjJTBWbC/QBFfQECf
NqDBR/JZQB2+V0DNapPBxbmZQLjloj+S/o7BxQ1qQJ/kq0COfofBbkR/QOc8xkDldZLBGg5TQA9O
g0CkK6XB

>  <OMEGA_E>  (23) 
kKdGPgyZlD449zs+

>  <OMEGA_NBR>  (23) 
     84386

$$$$
50168355
     RDKit          3D

 71 73  0  0  1  0  0  0  0  0999 V2000
    8.5859    7.5365  -18.4603 C   0  0  0  0  0  0  0  0  0  0  0  0
    7.6487    7.0590  -17.5283 C   0  0  0  0  0  0  0  0  0  0  0  0
    8.1590    8.2047  -19.6210 C   0  0  0  0  0  0  0  0  0  0  0  0
    5.8464    7.8671  -18.9500 C   0  0  0  0  0  0  0  0  0  0  0  0
    6.3820    0.7991  -21.5792 C   0  0  0  0  0  0  0  0  0  0  0  0
    4.5939   -0.6573  -20.7719 C   0  0  0  0  0  0  0  0  0  0  0  0
    6.6523   -1.6229  -21.6562 C   0  0  0  0  0  0  0  0  0  0  0  0
    6.2617    7.2412  -17.7517 C   0  0  0  0  0  0  0  0  0  0  0  0
    6.7777    8.4001  -19.8700 C   0  0  0  0  0  0  0  0  0  0  0  0
    5.1009    0.6362  -21.0074 C   0  0  0  0  0  0  0  0  0  0  0  0
    7.1606   -0.3300  -21.8924 C   0  0  0  0  0  0  0  0  0  0  0  0
    5.3664   -1.7851  -21.1024 C   0  0  0  0  0  0  0  0  0  0  0  0
    6.8042    1.4317  -18.0767 C   0  0  0  0  0  0  0  0  0  0  0  0
    4.2133    7.8599  -16.3592 C   0  0  0  0  0  0  0  0  0  0  0  0
    5.7284    6.0291  -15.4810 C   0  0  0  0  0  0  0  0  0  0  0  0
    4.8826    8.8104  -15.3586 C   0  0  0  0  0  0  0  0  0  0  0  0
    6.2758    7.0571  -14.4675 C   0  0  0  0  0  0  0  0  0  0  0  0
    5.1791    6.7143  -16.7780 C   0  0  0  0  0  0  0  0  0  0  0  0
    7.0774    0.4118  -16.9755 C   0  0  0  0  0  0  0  0  0  0  0  0
    5.8779    7.9996  -22.1805 C   0  0  0  0  0  0  0  0  0  0  0  0
    7.3571   10.0025  -21.7959 C   0  0  0  0  0  0  0  0  0  0  0  0
    5.0382    9.9857  -20.8649 C   0  0  0  0  0  0  0  0  0  0  0  0
    4.3058    1.8441  -20.5710 C   0  0  0  0  0  0  0  0  0  0  0  0
    5.0810    4.5384  -17.9314 C   0  0  0  0  0  0  0  0  0  0  0  0
    5.0870    2.6291  -19.4972 C   0  0  1  0  0  0  0  0  0  0  0  0
    4.2322    3.7571  -18.9245 C   0  0  2  0  0  0  0  0  0  0  0  0
    6.2750    9.0888  -21.1585 C   0  0  0  0  0  0  0  0  0  0  0  0
    5.4846    1.7220  -18.4031 N   0  0  0  0  0  0  0  0  0  0  0  0
    4.3512    5.7395  -17.5099 N   0  0  0  0  0  0  0  0  0  0  0  0
    7.7399    2.0435  -18.5813 O   0  0  0  0  0  0  0  0  0  0  0  0
    5.2836    8.0650  -14.1929 O   0  0  0  0  0  0  0  0  0  0  0  0
    3.8134    4.6215  -19.9812 O   0  0  0  0  0  0  0  0  0  0  0  0
    8.4004   -0.1729  -22.4084 F   0  0  0  0  0  0  0  0  0  0  0  0
    4.8787   -3.0241  -20.8711 F   0  0  0  0  0  0  0  0  0  0  0  0
    9.6411    7.3892  -18.2836 H   0  0  0  0  0  0  0  0  0  0  0  0
    7.9874    6.5507  -16.6376 H   0  0  0  0  0  0  0  0  0  0  0  0
    8.8886    8.5716  -20.3277 H   0  0  0  0  0  0  0  0  0  0  0  0
    4.7910    7.9397  -19.1675 H   0  0  0  0  0  0  0  0  0  0  0  0
    6.7637    1.7901  -21.7759 H   0  0  0  0  0  0  0  0  0  0  0  0
    3.6128   -0.7825  -20.3381 H   0  0  0  0  0  0  0  0  0  0  0  0
    7.2484   -2.4900  -21.8997 H   0  0  0  0  0  0  0  0  0  0  0  0
    3.3175    7.4222  -15.8945 H   0  0  0  0  0  0  0  0  0  0  0  0
    3.9214    8.4285  -17.2544 H   0  0  0  0  0  0  0  0  0  0  0  0
    6.5392    5.3401  -15.7602 H   0  0  0  0  0  0  0  0  0  0  0  0
    4.9132    5.4630  -15.0066 H   0  0  0  0  0  0  0  0  0  0  0  0
    5.7671    9.2706  -15.8233 H   0  0  0  0  0  0  0  0  0  0  0  0
    4.1713    9.5968  -15.0658 H   0  0  0  0  0  0  0  0  0  0  0  0
    6.5373    6.5408  -13.5320 H   0  0  0  0  0  0  0  0  0  0  0  0
    7.1737    7.5360  -14.8852 H   0  0  0  0  0  0  0  0  0  0  0  0
    8.1583    0.3675  -16.7760 H   0  0  0  0  0  0  0  0  0  0  0  0
    6.5476    0.7109  -16.0591 H   0  0  0  0  0  0  0  0  0  0  0  0
    6.7232   -0.5787  -17.2971 H   0  0  0  0  0  0  0  0  0  0  0  0
    5.5176    8.4765  -23.1039 H   0  0  0  0  0  0  0  0  0  0  0  0
    6.7537    7.3742  -22.4085 H   0  0  0  0  0  0  0  0  0  0  0  0
    5.0799    7.3724  -21.7564 H   0  0  0  0  0  0  0  0  0  0  0  0
    6.9538   10.4688  -22.7069 H   0  0  0  0  0  0  0  0  0  0  0  0
    7.6438   10.7861  -21.0792 H   0  0  0  0  0  0  0  0  0  0  0  0
    8.2406    9.3997  -22.0531 H   0  0  0  0  0  0  0  0  0  0  0  0
    4.7013   10.4631  -21.7969 H   0  0  0  0  0  0  0  0  0  0  0  0
    4.2259    9.3674  -20.4553 H   0  0  0  0  0  0  0  0  0  0  0  0
    5.3129   10.7611  -20.1345 H   0  0  0  0  0  0  0  0  0  0  0  0
    4.1256    2.4949  -21.4393 H   0  0  0  0  0  0  0  0  0  0  0  0
    3.3429    1.5150  -20.1533 H   0  0  0  0  0  0  0  0  0  0  0  0
    5.2920    3.9097  -17.0538 H   0  0  0  0  0  0  0  0  0  0  0  0
    6.0277    4.8320  -18.4083 H   0  0  0  0  0  0  0  0  0  0  0  0
    5.9851    3.0630  -19.9612 H   0  0  0  0  0  0  0  0  0  0  0  0
    3.3631    3.3279  -18.4045 H   0  0  0  0  0  0  0  0  0  0  0  0
    4.7612    1.2903  -17.8642 H   0  0  0  0  0  0  0  0  0  0  0  0
    3.5973    5.4579  -16.9163 H   0  0  0  0  0  0  0  0  0  0  0  0
    3.9840    6.1873  -18.3252 H   0  0  0  0  0  0  0  0  0  0  0  0
    3.2839    4.1325  -20.6000 H   0  0  0  0  0  0  0  0  0  0  0  0
  1  2  2  0
  1  3  1  0
  2  8  1  0
  3  9  2  0
  4  8  2  0
  4  9  1  0
  5 10  2  0
  5 11  1  0
  6 10  1  0
  6 12  2  0
  7 11  2  0
  7 12  1  0
  8 18  1  0
  9 27  1  0
 10 23  1  0
 11 33  1  0
 12 34  1  0
 13 19  1  0
 13 28  1  0
 13 30  2  0
 14 16  1  0
 14 18  1  0
 15 17  1  0
 15 18  1  0
 16 31  1  0
 17 31  1  0
 18 29  1  0
 20 27  1  0
 21 27  1  0
 22 27  1  0
 23 25  1  0
 24 26  1  0
 24 29  1  0
 25 26  1  0
 25 28  1  0
 26 32  1  0
  1 35  1  0
  2 36  1  0
  3 37  1  0
  4 38  1  0
  5 39  1  0
  6 40  1  0
  7 41  1  0
 14 42  1  0
 14 43  1  0
 15 44  1  0
 15 45  1  0
 16 46  1  0
 16 47  1  0
 17 48  1  0
 17 49  1  0
 19 50  1  0
 19 51  1  0
 19 52  1  0
 20 53  1  0
 20 54  1  0
 20 55  1  0
 21 56  1  0
 21 57  1  0
 21 58  1  0
 22 59  1  0
 22 60  1  0
 22 61  1  0
 23 62  1  0
 23 63  1  0
 24 64  1  0
 24 65  1  0
 25 66  1  6
 26 67  1  1
 28 68  1  0
 29 69  1  0
 29 70  1  0
 32 71  1  0
M  CHG  1  29   1
M  END
>  <OMEGA_C>  (24) 
sF8JQWgr8UCurpPBL8L0QEzj4UD6OYzBPIsCQW9GA0HP95zBdRW7QHe/+0CLmZfBOTnMQKiTTD8k
oqzBHAGTQEhGKL/uLKbB69/UQP+6z7/vP63BCGDIQB+450CJA47BA+PYQOBmBkHD9Z7BSjqjQAfh
Ij8bD6jBAyTlQKr1qL6TI6/BY7mrQP1+5L+q0ajB47vZQHNAtz8UnZDBXNOGQP6D+0C434LBJE+3
QCbuwEAqsnfBZT6cQHL3DEHsvHXBptPIQNLT4UDGemfBTbulQDjb1kBrOYbBW3riQO3Q0j7AzYfB
2he8QMz8/0CkcbHBe23rQDEKIEEXXq7BRDmhQKDFH0FN66bBCsmJQDwK7D9UkaTBf5eiQGw6kUCI
c4/Bh8iiQHdDKEBe+pvBz22HQBR0cEBkZZfBaMzIQLdrEUGFRKnBn4GvQJFq3D+GOZPBrzyLQNap
t0BPFIzBT633QOXHAkB7ppTBYhOpQBIKAUE2FmPBPQ90QHPjk0B92Z/BDmgGQaoDMb5wRLPBWR6c
QEiLQcAc+KbB0EEaQX507EC6RJLBMJn/QH6f0UDfGYXBtTcOQRwlCUE3n6LB5E+ZQNkR/kAfV5nB
knDYQOIg5T8NNa7BmThnQB5VSL9atKLB8fLnQH1bH8CjMq/BHFFUQPuC7UAQUH7ByPd6QDvbBkEc
CYrB/EDRQOHhqkCbKXzBHzmdQN7QrkAkG3DB/ou4QEFUFEFoLH3BoXuFQFeMGUGPDXHBLzHRQBRO
0UArg1jB7I7lQMgm8UDrKW7BXIgCQWoivD44NYbBiIXRQEj/NT8MeYDBMyTXQKMnFL9xYIrBHpCw
QJmfB0Hj1LjB8R3YQM/560CfRLPBt46iQA7r60ANDa7BQIXeQCuAJ0HDp7XB/Jn0QOGTLEEloqjB
ltkDQVllFkGubLDBA3GWQLVoJ0ENYK7BujqHQNfgFUFypKPB7QKqQFItLEF2E6HB7ASEQHasH0Ca
g6vBR/FVQPHqwT/tOaHBZlipQPY3ekA3bojBTOPAQAOgmkA2RJPBtIW/QHYHREB1sJ/BRTxXQMT7
VEBcPJPB9luYQJ0ppT/T6Y7BfjpmQAKnrkB+VIfBIfp+QEb+xUD/mZLBLStSQAw9hEDFzKTBdFsJ
QQo48UAI55PBGfH0QDTq4UBXZ4zBHWUCQfNiA0F5IZ3B/Oq6QJ1J/EAUl5fBYzaUQHL7J79qLabB
RgXNQCPcTj+ywKzB5PrVQKNwzr8GZK3BxIHIQGAE6ECWEI7BbI7YQK+mBkGGAZ/BYS6kQPTEIz8Y
G6jBv/usQNPw479D4qjBtADmQJepor6XUK/BmOLZQNeCtj/EmZDB0FWHQDCB+0DCu4LBFU+4QIEI
wUCo0XfBzTGdQPL7DEETnHXB7mfKQMHw4UBJwWfB3iamQGD31kDSN4bBzEPiQClTwz7v84fB0oi+
QHk7AEGQuLHBsCbqQLtdIUHH+K3BSzGfQN3kHkEyKKfBPZCKQAs17D+Ko6TBCU+jQHDUkUBiro/B
dFWjQO57KEDoBZzBEOCHQN6vcEAwd5fBtXLIQManEUHtTqnBrcSvQOSk3D/RQZPBko+LQCCmt0A5
B4zBD/f3QD9bA0AgbJTBXMeqQEUSAUFOE2PBsZlzQFaYk0D87Z/BvXidQNxsQcCAFqfB6LEGQQjh
Hr4OmbPB5kEaQRZj7EDdkJLB6Pr/QLtn0UArVYXB/fsNQW85CUEM1qLBXxeZQF/W/kDtPZnBKPdp
QCIbSb/on6LBFxLZQPl75j/OVq7Byx/pQDSLHsDcXq/Bd+xVQJBj7UBnzn3Bd+56QKrZBkHY2YnB
fg/SQFXqqkB4eXzBC2ueQMj+rkDxBHDBOy25QJZpFEGfR33BKn+GQJ6DGUHstnDBZlXTQEBr0UB1
3ljBbN/mQElM8UC7sm7BLmICQToNrD5oP4bBxODQQKFYKD+JoIDBUC7XQIA1Gr9Uv4rBfQGzQNbS
B0FhHrnBocjbQLke7kBOb7PBDcKlQFHO6kAHma7B/WbdQLzSKEEnR7XBx0/xQIbaLUHWCKjBBs8D
QTCMGEFX56/B9o6UQNuCJkGmoa7B99uFQOM8FEG8KqTBw/mlQOxLK0HiJaHBbdqEQCe7H0Aul6vB
7XJXQPS1wT+YVKHBe2mrQB9Ue0A7wojBu+HAQNERnECbtZPBKC3AQK03REAGsJ/B+s9YQMYjVUBd
LJPBknmYQFzvpT/L947BdSdoQKXvrUCiKofBoNd9QCQkxkAwbJLBw1xRQAimg0BTyKTB

>  <OMEGA_E>  (24) 
AObuPSDf7j0=

>  <OMEGA_NBR>  (24) 
     86961

$$$$
50168361
     RDKit          3D

 70 73  0  0  1  0  0  0  0  0999 V2000
    8.5258    7.5189  -18.5367 C   0  0  0  0  0  0  0  0  0  0  0  0
    8.0470    8.0072  -19.7672 C   0  0  0  0  0  0  0  0  0  0  0  0
    7.6242    7.0932  -17.5433 C   0  0  0  0  0  0  0  0  0  0  0  0
    5.7671    7.6638  -19.0053 C   0  0  0  0  0  0  0  0  0  0  0  0
    6.4196    0.7581  -21.5491 C   0  0  0  0  0  0  0  0  0  0  0  0
    4.5866   -0.6507  -20.7585 C   0  0  0  0  0  0  0  0  0  0  0  0
    6.6418   -1.6700  -21.5890 C   0  0  0  0  0  0  0  0  0  0  0  0
    6.6514    8.0506  -20.0152 C   0  0  0  0  0  0  0  0  0  0  0  0
    6.2270    7.1964  -17.7618 C   0  0  0  0  0  0  0  0  0  0  0  0
    5.1245    0.6296  -21.0008 C   0  0  0  0  0  0  0  0  0  0  0  0
    7.1810   -0.3909  -21.8318 C   0  0  0  0  0  0  0  0  0  0  0  0
    5.3423   -1.7987  -21.0586 C   0  0  0  0  0  0  0  0  0  0  0  0
    6.8042    1.4910  -18.0271 C   0  0  0  0  0  0  0  0  0  0  0  0
    6.9965    8.7736  -22.4553 C   0  0  0  0  0  0  0  0  0  0  0  0
    4.2179    7.8993  -16.3911 C   0  0  0  0  0  0  0  0  0  0  0  0
    5.7309    6.0930  -15.4445 C   0  0  0  0  0  0  0  0  0  0  0  0
    7.3827   10.2241  -22.1979 C   0  0  0  0  0  0  0  0  0  0  0  0
    4.9209    8.8943  -15.4606 C   0  0  0  0  0  0  0  0  0  0  0  0
    6.2812    7.1635  -14.4740 C   0  0  0  0  0  0  0  0  0  0  0  0
    5.3184    9.8614  -21.1394 C   0  0  0  0  0  0  0  0  0  0  0  0
    6.0178    8.4974  -21.3302 C   0  0  2  0  0  0  0  0  0  0  0  0
    5.1646    6.7208  -16.7565 C   0  0  0  0  0  0  0  0  0  0  0  0
    7.0551    0.4244  -16.9653 C   0  0  0  0  0  0  0  0  0  0  0  0
    4.3450    1.8609  -20.5979 C   0  0  0  0  0  0  0  0  0  0  0  0
    5.0854    4.5423  -17.9247 C   0  0  0  0  0  0  0  0  0  0  0  0
    5.1186    2.6492  -19.5200 C   0  0  1  0  0  0  0  0  0  0  0  0
    4.2637    3.7891  -18.9655 C   0  0  2  0  0  0  0  0  0  0  0  0
    5.4933    1.7477  -18.4129 N   0  0  0  0  0  0  0  0  0  0  0  0
    4.3299    5.7109  -17.4453 N   0  0  0  0  0  0  0  0  0  0  0  0
    7.7567    2.0020  -18.6069 O   0  0  0  0  0  0  0  0  0  0  0  0
    6.1674   10.8660  -21.7512 O   0  0  0  0  0  0  0  0  0  0  0  0
    5.3098    8.2065  -14.2569 O   0  0  0  0  0  0  0  0  0  0  0  0
    3.9025    4.6727  -20.0278 O   0  0  0  0  0  0  0  0  0  0  0  0
    8.4337   -0.2659  -22.3249 F   0  0  0  0  0  0  0  0  0  0  0  0
    4.8249   -3.0248  -20.8221 F   0  0  0  0  0  0  0  0  0  0  0  0
    9.5892    7.4708  -18.3543 H   0  0  0  0  0  0  0  0  0  0  0  0
    8.7413    8.3481  -20.5210 H   0  0  0  0  0  0  0  0  0  0  0  0
    7.9967    6.6877  -16.6141 H   0  0  0  0  0  0  0  0  0  0  0  0
    4.7038    7.7254  -19.1843 H   0  0  0  0  0  0  0  0  0  0  0  0
    6.8256    1.7382  -21.7515 H   0  0  0  0  0  0  0  0  0  0  0  0
    3.5948   -0.7502  -20.3426 H   0  0  0  0  0  0  0  0  0  0  0  0
    7.2245   -2.5521  -21.8095 H   0  0  0  0  0  0  0  0  0  0  0  0
    6.5170    8.6570  -23.4384 H   0  0  0  0  0  0  0  0  0  0  0  0
    7.8722    8.1108  -22.3936 H   0  0  0  0  0  0  0  0  0  0  0  0
    3.3255    7.5016  -15.8857 H   0  0  0  0  0  0  0  0  0  0  0  0
    3.9164    8.4186  -17.3127 H   0  0  0  0  0  0  0  0  0  0  0  0
    6.5444    5.4003  -15.7059 H   0  0  0  0  0  0  0  0  0  0  0  0
    4.9252    5.5389  -14.9407 H   0  0  0  0  0  0  0  0  0  0  0  0
    8.1590   10.2847  -21.4210 H   0  0  0  0  0  0  0  0  0  0  0  0
    7.7507   10.6951  -23.1214 H   0  0  0  0  0  0  0  0  0  0  0  0
    5.8133    9.3004  -15.9594 H   0  0  0  0  0  0  0  0  0  0  0  0
    4.2341    9.7166  -15.2114 H   0  0  0  0  0  0  0  0  0  0  0  0
    6.5211    6.6882  -13.5114 H   0  0  0  0  0  0  0  0  0  0  0  0
    7.1933    7.6041  -14.9028 H   0  0  0  0  0  0  0  0  0  0  0  0
    4.3331    9.8517  -21.6283 H   0  0  0  0  0  0  0  0  0  0  0  0
    5.1938   10.0747  -20.0675 H   0  0  0  0  0  0  0  0  0  0  0  0
    5.2784    7.7509  -21.6559 H   0  0  0  0  0  0  0  0  0  0  0  0
    8.1371    0.2539  -16.8646 H   0  0  0  0  0  0  0  0  0  0  0  0
    6.6461    0.7629  -16.0019 H   0  0  0  0  0  0  0  0  0  0  0  0
    6.5625   -0.5128  -17.2637 H   0  0  0  0  0  0  0  0  0  0  0  0
    4.1952    2.5013  -21.4796 H   0  0  0  0  0  0  0  0  0  0  0  0
    3.3676    1.5571  -20.1951 H   0  0  0  0  0  0  0  0  0  0  0  0
    5.3025    3.8749  -17.0777 H   0  0  0  0  0  0  0  0  0  0  0  0
    6.0296    4.8784  -18.3781 H   0  0  0  0  0  0  0  0  0  0  0  0
    6.0262    3.0727  -19.9750 H   0  0  0  0  0  0  0  0  0  0  0  0
    3.3664    3.3699  -18.4867 H   0  0  0  0  0  0  0  0  0  0  0  0
    4.7586    1.2934  -17.9090 H   0  0  0  0  0  0  0  0  0  0  0  0
    3.6290    5.3929  -16.8069 H   0  0  0  0  0  0  0  0  0  0  0  0
    3.8917    6.1471  -18.2312 H   0  0  0  0  0  0  0  0  0  0  0  0
    3.3909    4.1997  -20.6736 H   0  0  0  0  0  0  0  0  0  0  0  0
  1  2  2  0
  1  3  1  0
  2  8  1  0
  3  9  2  0
  4  8  2  0
  4  9  1  0
  5 10  2  0
  5 11  1  0
  6 10  1  0
  6 12  2  0
  7 11  2  0
  7 12  1  0
  8 21  1  0
  9 22  1  0
 10 24  1  0
 11 34  1  0
 12 35  1  0
 13 23  1  0
 13 28  1  0
 13 30  2  0
 14 17  1  0
 14 21  1  0
 15 18  1  0
 15 22  1  0
 16 19  1  0
 16 22  1  0
 17 31  1  0
 18 32  1  0
 19 32  1  0
 20 21  1  0
 20 31  1  0
 22 29  1  0
 24 26  1  0
 25 27  1  0
 25 29  1  0
 26 27  1  0
 26 28  1  0
 27 33  1  0
  1 36  1  0
  2 37  1  0
  3 38  1  0
  4 39  1  0
  5 40  1  0
  6 41  1  0
  7 42  1  0
 14 43  1  0
 14 44  1  0
 15 45  1  0
 15 46  1  0
 16 47  1  0
 16 48  1  0
 17 49  1  0
 17 50  1  0
 18 51  1  0
 18 52  1  0
 19 53  1  0
 19 54  1  0
 20 55  1  0
 20 56  1  0
 21 57  1  6
 23 58  1  0
 23 59  1  0
 23 60  1  0
 24 61  1  0
 24 62  1  0
 25 63  1  0
 25 64  1  0
 26 65  1  6
 27 66  1  1
 28 67  1  0
 29 68  1  0
 29 69  1  0
 33 70  1  0
M  CHG  1  29   1
M  END
>  <OMEGA_C>  (25) 
0mkIQTab8EA+S5TBm8AAQWodAEExI57BT/nzQHL74kCWWIzBNIy4QPE99UDiCpjBeG3NQMoTQj+d
ZKzBPcWSQM6UJr9SEabBW4nUQO3B1b9FtqzBjtjUQETPAEElH6DBw0PHQP9I5kAsGI7Bh/ujQH8w
IT+SAajB4crlQG8kyL59p67BwfOqQCs85r/8d6jBDbzZQDbYvj9/N5DBDePfQIxgDEFwpLPB9viG
QO3G/EAKIYPBPmO3QHj5wkDRHHfBRT/sQB6WI0FhlbHBFXidQC1PDkGkXnfBif/IQIw75UB2lWfB
XTCqQDLIHUGLHanBk5HAQH31B0E/pKrBAkSlQKkQ10BgDYbBFsPhQFtK2T4HuYfBYAqLQCIz7j9+
yKTBs7uiQDFakUDiZY/BxMujQC+NKUD9KJzBGXCIQKuAckBGuZfB9MivQGO03z+VTZPBbo6KQNq/
tkDjj4vB0Tb4QCYhAEDi2pTBD1vFQBXbLUFrAq7BjOmpQLNNA0EcHGTBH8J5QLmGlUDtOKDBb/AG
QVMqiL5/mbLBqGWaQGmWQcChk6bBd20ZQTQR70CW1ZLBTNwLQcORBUHwKqTB/uT/QAQC1kDG6YTB
yYWWQFE290B0eZnBOGvaQGB+3j8SA67BqxFmQB4OQL+ovaLBbS/nQOpVI8DNea7BLYvQQECDCkHe
gbvBNun7QOHFAUESJrPBWtVUQLsM8EC3K37B36V6QL+yBkF9gIrBz2vRQOnOrEBoS3vBOZudQGQ+
sUDyDG/Bc4sCQfONJEEsXqvB2gX4QP8eK0Gs+LjBUga6QFDOFEHOWX/BbH2HQEB3G0EDYnPBy6zQ
QAgG1kC/LljB7C/mQIBU80DscW7BdKiKQISgHUHJBq3BsDOmQB0yIUFOiqDB3uioQJcH+EBVP63B
iDECQer+gT7A6obB4azUQDtPQz/6A4DBTwDSQERIA78mHIrBKj+GQNMVIEBH1qvBKoZXQFRPxz99
j6HBUq6pQLb9d0Axn4jBefLAQAocnEBNBpPBbdbAQIqnREDNzJ/B+nJXQBqtV0Dc5JPBzEaYQIaM
pT+qRY/B20BoQE2SrEB5dIbBdhF5QBq1xECG2ZHB2gRZQN1jhkCPY6XBC2sLQUMj8EBUQJLBUUcG
QWmXAEGCSpzBRlL2QK/K4kAvQ4vBPJXAQFm5+EAFS5jB90/MQPOITD8haKzB1dyTQBvBLr9k46XB
NcXVQEQ4z79tL63B5pzhQFk4AkEsjJ/Bcp/KQNmj50C2DY7BRJijQCUVHj+auKfBUoXlQOJPo769
Ca/BENGsQMZL5r9Er6jB9B7bQHZPwD/sP5DBOYXRQE/OIkEtmKrBsWWHQAZV/UB8qoPBv3G1QJ2e
wUA+/nfBdZ6hQIp7JEHnS6jBY+WaQDVODUF6MXbBKjLFQE/f4UCKBmfBSX2vQHCAAkH00K/BlvjY
QLbZCkFCzqrBjhemQLYH2EC2kobB4BflQGBf2j6p9IfBP7OJQDb15z88LqTBF/6iQEYkkkCsrY/B
y9+iQIPEJ0DIxpvBOFiHQFnlb0BzQJfBmZiwQIBD3j/r9JLBusyLQPsBuUB5i4zBNJf4QOrOAkAF
EpXBk/ONQANJEUFPqqzB1fqkQLryAEG0YmPB5SJxQOaKkkDqxp/BLnYGQSzfE74gSLPBuoKdQKPg
QsAt+6bBW/gbQW9A7UCI4I/Bt+ESQW3xBUHNj6HBirL+QFKm1ECAqYPBTISfQGPY/EC5lZrBYRXY
QG7R5T/e963BRFZpQL9TUr/NVqLBTxfpQDSSHsANN6/BaonZQH4eKkEEWLLBWWrkQJ93KkH4O6TB
DXBSQMHw70BZnYDBgfWAQMwmCEHU5orB+NXPQGWsq0AY5XvBqY6aQLFRr0AkQ3HBdAScQPxfJUG/
np/BvEGUQGvLMkHFLazBMku4QJutFEFQd3zBxcqDQCTnGUH6/nHB8sPLQDrd0EB5+FfBCq7iQINa
8UBcumzBAWiyQOoSAkFWlbjBIlioQJ+u5EDE0qzBAi70QDQVB0G0D7DBifYDQam1jz6ddYfBiczY
QEi3PT9yGoDBZ7vVQEqTBL8vU4rBSPSCQIjrHEBVI6vBP8NWQNzduz/7qKDB9FWqQFInfkAng4jB
YPfAQEMKm0B7uJPBgDO/QKnLQ0C+pp/BjX9YQJVhVEB2z5LBKuyZQJWCoz8/q47BGRhmQHV8sECm
8YfB0vaAQORGx0BbLJPBsJpOQDgmgkCtgKTBw1gKQSAG60Czc5PBgzsEQRCKAUHjc5zBUpL1QNaP
3EBzI4zBUtq9QMc3+0CXSZfBheXMQAfpST+bYazBDmSUQA4tLr9mt6XB2YHWQGCl0L8HyqzBrNTc
QO+4BUHbXJ7BE57JQACk5UCF4Y3B4xSkQGbhHT+XuqfBJDnmQDzjqr5+z67BmnmtQFCv5r+TUKjB
T4/aQNwKvz/lYJDBq3agQAz5F0EmwajBp/aGQNHm/ECmaIPB31O1QMzPwkDvJXfBE/CfQKXrJEEo
/7LBCxudQBhxDkFj4XfB4d/HQLgM5UCJ5GfBR7rgQOqjEUGc5bHBNDXQQA0iFkGkrqbBiHKlQDEN
10BGRYbB4ozjQFMK4T7W1ofBvyeKQAAD6T+qXqTBG6WiQKLgkUB9qY/BQxCjQCXCKECe9pvBRm+H
QEkFcUAyg5fBRT2wQKZG4T8ADpPB9OyKQPK+t0D4E4zB+2/4QMAr/T+Wa5XBYcbGQFAnH0G2wbjB
/lGpQMqEA0E9iGTBBo9zQBevk0ABCqDBKtgGQV6+Kr5BCbPBhzSeQFDmQsArd6bB0wQbQcWb40Cu
I5LBcTwQQeiOB0H+46HBmzT/QGl+ykCfLYXBNFicQLpt/0BHH5nBI6nYQJEW5D/XEq7BcEdqQCMY
UL/QLqLB8unpQL+AH8Blq67BuxqQQLtwIEGSNqLBwbGRQOYoCEFO5KnBUZlUQCwr8EAq1H7BXQx7
QA+4BkFnz4rB/VrOQDIeq0BSunrBBT+aQM7ZskCAOm/BS4WDQGXpIEGZybfBiNSfQB0jNkGZK7HB
0L65QAP3FEGTw3/B5viGQFOSG0FUBXTB44XPQFAT1kA5bljByTLlQIl38kDI8m7Bk2IBQenoFUHE
kbLBNXTcQGSrAEFA+LPBUTfcQBLfJUHIIaTBqhgDQTZLgT6AZYfBowjYQHbzTD+TCoDBweXSQO/v
/L6U64nBq9SDQHrmHEDGZqvB6D5XQOMQvj/q6KDBWGGqQApfe0DXt4jBhmzAQEj+m0BDnZPBk5K/
QGOCREAZyZ/BN4NXQFKeVUBSSpPBHUWZQKZiqj+hqo7BladmQOkmrkB8PIfBqOF8QNErxkA1gJLB
n5xRQHO3g0Bo66TBsJ8IQU6T7UCvt5TBEM4BQcc2BEE3DZ3B+LjzQEAS3kDxLY3B6XK6QBmgAUGe
hJbBeqDMQFkIOz/IfazBAWCSQHJ4Lb8M7aXBxQ3UQKcr2b/LoKzBy+vXQDELCkG6553BgsfHQH4Z
6UCt7o3BRlujQD4rGj/1AajBuhLlQHzl1b4nta7BO6CqQFup6b94SajBzoDZQB6Psz8InZDBrSOn
QJNvDkHNrq3BcQWGQMhM+kDGaILBBnK4QDpywUDA33fBXGDEQK9QAkHscbXBtZicQHcXDUE/7nXB
ghHMQAgd40BaqmjB6H7oQOdSIEH6u67BwiLHQCCmGUGCa6bB256lQJDk1kBbNYbByj3hQOMtwz5U
wYfBDY+KQLzS6j8kwqTBr+mjQFz7kUBU3o/Bk5qjQAS1J0DqKZzBE4qIQADYcEBprJfBPJCvQO+n
2z9bVJPBqrKLQI96t0AIKozB0fH3QGIeAEDwiZTB+wLtQKrHDUF3l7XBIdisQAXKAUHVh2PBw+h1
QKaek0AoMaDBuoIGQdZjlb6rvLLBQVKaQHhFQ8DAPqbBjkoZQU3M5EAmGZTBETsNQXMcCkHm0qLB
eY3+QNWbyUDDw4bB0NqYQMc+BUEGb5fBfmzZQFzr2j8VOK7BpoplQDjdRr9mhaLB1cLmQHMGJcB/
XK7BI+6SQJQOGkF98bHBD7ySQM9bA0HmIKnBcppWQHBG60DlKnzBNzlzQP7CBUHLbYnBK3bRQPGN
qkClmHzBuK+eQMVhsEBtcW/BtjfJQOKX40DNqLLB4zK2QCwYAkG3f73BxkG3QMu9FEGygX7BzLOF
QMtlGUH6tHDBSonWQJ1H00Dw11nBOcLnQDMt8kB1f3DBAkPdQIY6LkEnV7PBNY4DQTY5JEGa2qrB
PKK4QBXJJ0E/oqLBWtkBQUxupT5zBIbBRO/PQDZcMD+af4DB5KjVQGPoGr+yXIrBzqmFQOdsHkAm
zqvBKadWQOo6xD95fqHB10ysQPiEe0BB+ojBi1XBQK+cnEAk55PB+aXAQByFQkDr1Z/BEpxZQE8b
VkBuaJPBuQiYQP7Ipj/jB4/BskFoQKpSrUDBYofBoVB+QLUYxkCNjZLBAcRTQD+3g0BiEKXB

>  <OMEGA_E>  (25) 
7JS8PvhEvT40esU+6HK2Pg==

>  <OMEGA_NBR>  (25) 
     91694

$$$$
50167990
     RDKit          3D

 64 66  0  0  1  0  0  0  0  0999 V2000
    8.5378    7.4483  -18.5012 C   0  0  0  0  0  0  0  0  0  0  0  0
    7.5978    7.0395  -17.5412 C   0  0  0  0  0  0  0  0  0  0  0  0
    8.1136    8.0937  -19.6784 C   0  0  0  0  0  0  0  0  0  0  0  0
    5.8007    7.9107  -18.9436 C   0  0  0  0  0  0  0  0  0  0  0  0
    6.4460    0.8350  -21.6019 C   0  0  0  0  0  0  0  0  0  0  0  0
    4.6537   -0.6379  -20.8366 C   0  0  0  0  0  0  0  0  0  0  0  0
    6.7237   -1.5866  -21.7148 C   0  0  0  0  0  0  0  0  0  0  0  0
    6.2262    7.2742  -17.7625 C   0  0  0  0  0  0  0  0  0  0  0  0
    6.7379    8.3610  -19.9036 C   0  0  0  0  0  0  0  0  0  0  0  0
    5.1596    0.6633  -21.0431 C   0  0  0  0  0  0  0  0  0  0  0  0
    7.2298   -0.2891  -21.9276 C   0  0  0  0  0  0  0  0  0  0  0  0
    5.4333   -1.7604  -21.1762 C   0  0  0  0  0  0  0  0  0  0  0  0
    6.7931    1.3804  -18.1125 C   0  0  0  0  0  0  0  0  0  0  0  0
    4.5514    7.7546  -15.8306 C   0  0  0  0  0  0  0  0  0  0  0  0
    5.4859    6.6441  -15.3034 C   0  0  0  0  0  0  0  0  0  0  0  0
    5.1800    6.7576  -16.8021 C   0  0  0  0  0  0  0  0  0  0  0  0
    7.0453    0.3235  -17.0422 C   0  0  0  0  0  0  0  0  0  0  0  0
    5.9927    7.9162  -22.2610 C   0  0  0  0  0  0  0  0  0  0  0  0
    7.3159   10.0102  -21.7809 C   0  0  0  0  0  0  0  0  0  0  0  0
    4.9501    9.8354  -21.0004 C   0  0  0  0  0  0  0  0  0  0  0  0
    4.3524    1.8699  -20.5990 C   0  0  0  0  0  0  0  0  0  0  0  0
    5.0249    4.5366  -17.8401 C   0  0  0  0  0  0  0  0  0  0  0  0
    5.1023    2.6515  -19.4921 C   0  0  1  0  0  0  0  0  0  0  0  0
    4.2309    3.7785  -18.9144 C   0  0  2  0  0  0  0  0  0  0  0  0
    6.2580    9.0227  -21.2154 C   0  0  0  0  0  0  0  0  0  0  0  0
    5.4802    1.7253  -18.4105 N   0  0  0  0  0  0  0  0  0  0  0  0
    4.2967    5.7473  -17.4100 N   0  0  0  0  0  0  0  0  0  0  0  0
    7.7426    1.9737  -18.6139 O   0  0  0  0  0  0  0  0  0  0  0  0
    3.8829    4.6732  -19.9707 O   0  0  0  0  0  0  0  0  0  0  0  0
    8.4727   -0.1234  -22.4340 F   0  0  0  0  0  0  0  0  0  0  0  0
    4.9487   -3.0058  -20.9710 F   0  0  0  0  0  0  0  0  0  0  0  0
    9.5896    7.2671  -18.3358 H   0  0  0  0  0  0  0  0  0  0  0  0
    7.9248    6.5474  -16.6372 H   0  0  0  0  0  0  0  0  0  0  0  0
    8.8430    8.3885  -20.4182 H   0  0  0  0  0  0  0  0  0  0  0  0
    4.7453    8.0573  -19.1196 H   0  0  0  0  0  0  0  0  0  0  0  0
    6.8288    1.8292  -21.7793 H   0  0  0  0  0  0  0  0  0  0  0  0
    3.6675   -0.7730  -20.4175 H   0  0  0  0  0  0  0  0  0  0  0  0
    7.3250   -2.4483  -21.9645 H   0  0  0  0  0  0  0  0  0  0  0  0
    3.4726    7.7119  -15.6198 H   0  0  0  0  0  0  0  0  0  0  0  0
    4.8848    8.8028  -15.8254 H   0  0  0  0  0  0  0  0  0  0  0  0
    6.4864    6.8995  -14.9240 H   0  0  0  0  0  0  0  0  0  0  0  0
    5.0742    5.8086  -14.7184 H   0  0  0  0  0  0  0  0  0  0  0  0
    8.1264    0.2376  -16.8585 H   0  0  0  0  0  0  0  0  0  0  0  0
    6.5375    0.6161  -16.1113 H   0  0  0  0  0  0  0  0  0  0  0  0
    6.6535   -0.6456  -17.3846 H   0  0  0  0  0  0  0  0  0  0  0  0
    5.6500    8.3737  -23.2008 H   0  0  0  0  0  0  0  0  0  0  0  0
    6.9206    7.3545  -22.4437 H   0  0  0  0  0  0  0  0  0  0  0  0
    5.2186    7.2324  -21.8826 H   0  0  0  0  0  0  0  0  0  0  0  0
    6.9385   10.4592  -22.7115 H   0  0  0  0  0  0  0  0  0  0  0  0
    7.5084   10.8031  -21.0432 H   0  0  0  0  0  0  0  0  0  0  0  0
    8.2500    9.4676  -21.9882 H   0  0  0  0  0  0  0  0  0  0  0  0
    4.6399   10.2905  -21.9526 H   0  0  0  0  0  0  0  0  0  0  0  0
    4.1569    9.1645  -20.6391 H   0  0  0  0  0  0  0  0  0  0  0  0
    5.1282   10.6264  -20.2570 H   0  0  0  0  0  0  0  0  0  0  0  0
    4.1888    2.5326  -21.4616 H   0  0  0  0  0  0  0  0  0  0  0  0
    3.3818    1.5311  -20.2076 H   0  0  0  0  0  0  0  0  0  0  0  0
    5.1765    3.8787  -16.9716 H   0  0  0  0  0  0  0  0  0  0  0  0
    6.0015    4.8300  -18.2527 H   0  0  0  0  0  0  0  0  0  0  0  0
    6.0086    3.0955  -19.9298 H   0  0  0  0  0  0  0  0  0  0  0  0
    3.3294    3.3426  -18.4591 H   0  0  0  0  0  0  0  0  0  0  0  0
    4.7502    1.3215  -17.8592 H   0  0  0  0  0  0  0  0  0  0  0  0
    3.6044    5.4825  -16.7387 H   0  0  0  0  0  0  0  0  0  0  0  0
    3.8497    6.1519  -18.2079 H   0  0  0  0  0  0  0  0  0  0  0  0
    3.3919    4.2039  -20.6349 H   0  0  0  0  0  0  0  0  0  0  0  0
  1  2  2  0
  1  3  1  0
  2  8  1  0
  3  9  2  0
  4  8  2  0
  4  9  1  0
  5 10  2  0
  5 11  1  0
  6 10  1  0
  6 12  2  0
  7 11  2  0
  7 12  1  0
  8 16  1  0
  9 25  1  0
 10 21  1  0
 11 30  1  0
 12 31  1  0
 13 17  1  0
 13 26  1  0
 13 28  2  0
 14 15  1  0
 14 16  1  0
 15 16  1  0
 16 27  1  0
 18 25  1  0
 19 25  1  0
 20 25  1  0
 21 23  1  0
 22 24  1  0
 22 27  1  0
 23 24  1  0
 23 26  1  0
 24 29  1  0
  1 32  1  0
  2 33  1  0
  3 34  1  0
  4 35  1  0
  5 36  1  0
  6 37  1  0
  7 38  1  0
 14 39  1  0
 14 40  1  0
 15 41  1  0
 15 42  1  0
 17 43  1  0
 17 44  1  0
 17 45  1  0
 18 46  1  0
 18 47  1  0
 18 48  1  0
 19 49  1  0
 19 50  1  0
 19 51  1  0
 20 52  1  0
 20 53  1  0
 20 54  1  0
 21 55  1  0
 21 56  1  0
 22 57  1  0
 22 58  1  0
 23 59  1  6
 24 60  1  1
 26 61  1  0
 27 62  1  0
 27 63  1  0
 29 64  1  0
M  CHG  1  27   1
M  END
>  <OMEGA_C>  (26) 
xpoIQbZY7kBdApTBRiHzQOlD4UBZVIzBMNEBQZ9/AUFHbZ3Btp+5QEkk/UCFjJfBzUXOQODAVT+k
0KzB1eqUQO1NI79QsabBryjXQCAWy7/rt63ByDzHQBrG6ECxGY7BKZ3XQJDGBUF+Op/BcRulQNrQ
KT9cWKjBOlrnQOH/k77Ta6/B5N2tQCVV4b/1aKnBamHZQAGysD9d5pDBraSRQKIl+EA3Sn3B4Iyv
QICc1EDt2nTBvMKlQGI+2EDDaobBC3PhQBSlpT5iVojBFcS/QI9R/UCFFrLBiBvqQNspIEFIP67B
nGeeQPpdHUG/AKjBHkeLQDVa7z+qyqTB7sugQKIrkUCPuI7BJkajQKqyKUDm75vBpWOHQILTcUCc
UJfBpUHIQAhdEEEQuanBKV6vQN/V3D/NSJPBQH6JQOfpt0C7R4vBRMP3QE2h/D8v6ZTBGIJ4QNCK
lUD8w5/BAJAHQUnJ/L3QeLPBbVueQOpeQMCExKfB0W4ZQeWL6EDKr5LBW5j9QJOE0UDjGIXB2nwN
QXw3BkGGWKPBmtmXQNLqAEHX9JjBL4XaQCIi6j8XPK7B9LdqQPPhRb8iV6PBs2bqQIGwHMBTt6/B
2T5eQCTI9kC26nnBNVCcQGHYDEELNX3BTJDPQF3I3EDUyG7Bg1+iQMDfuUB+fmvB6AUCQXpGcz4/
3obBJzPRQNG5HT/z44DBVenUQJFHJb+dE4vBHc20QKP6BUFQm7nBwHXdQORX60DGjLPBqv6mQKhv
50CmD6/BcgjeQN5YJ0EusbXB/0TwQJjZLEFxWKjB2f8DQR97F0HV56/B3nmUQMWlJEHZnq/BEQWF
QMGhEkHTHKXB2xmkQNQFKkE8DqLBDAuGQGYWIkBLsavBB3BYQCX8wz8sqaHBkKWlQCg9eEDmxYfB
9QvAQJiPmkB7BZLBGEbAQHgdRkBIcJ/BOhVVQG/sVUBNrJPBOwGYQN4nqT+0347BWq5mQD5wr0Dz
6IXB7WF2QF3cxEC2qZHBkxRZQIaGhkA9FKXBaugIQTvO7kDS9JPB1pzzQBmA4UARVYzBpDECQU3J
AUFBXp3BCju6QFUL/UCWo5fB9nDPQMRRWj8WvKzBFcyVQGT3H7/T3KbBHWTYQOixyL9uuq3BLbnH
QO/a6EBWJ47B31fYQD/cBUHPQZ/BDw2mQAx8LT/0Z6jBnanoQN6yib6sUK/B7+GuQDhj378Dj6nB
4R/ZQDMxtz9LbJDBKCKSQPhO+EBGYH3BfvKvQCWv1ECq9XTBpCqmQFBk2EB1eIbBFLPgQI1xkj6A
lojB8qXrQOyUH0H+gq7B50KgQG48HkGX3qfBfbK+QLub/UAO/bHBTPyLQF7b8D/y5qTBIVChQMmy
kUBl647BFoqjQEBNKkD29pvBvl6HQDPMcUDATJfBqArJQG19EEE6vqnBGkWvQOGE3T8zT5PB+tyJ
QI0RuEC1UIvBmMP3QBqh+j804ZTBj4B1QCsXlUAOtp/BrlQIQeHAy73lNrPBCUefQIF6P8C5CKjB
9boZQeEV6UAOmJLBWfv9QKaw0UCXGYXBtOwNQfm0BkE8N6PBJ3aYQMqxAEEcH5nB1MDbQI6P7D/4
EK7BLCtsQBs6Q78vnKPBwrzrQKFjG8BHta/BMzhfQOAF90DTAHrBYuOcQI7pDEFTRn3BBfvPQDDD
3EBV4m7BvbOiQPT1uUDVnGvBk5oBQTFEpj2gA4jBJ1PUQOXFED+rqIDBwATQQMxcHb9DcIvBYIvf
QCXOJkGo8bXB9R/zQLpILEHitqjBrmQEQTFXFkFBQLDBPDiWQNaPJUGId6/BzWSGQCr+E0EzzqTB
YE+nQFvhKkHdAaLBUsKzQMIvBkGMfrnBHZ3bQJqC6kBIiLPBjlulQJXA6ECLzq7BAQiHQKv5IkCN
zavBb5tZQCUmxT8g3qHBN1qnQLeaeUAvAIjBB/2/QK+Tm0CRdZLBpqLAQAodR0BPXZ/BBWFWQIEW
VUCvb5PBkZ6XQEWxpD+kQY/BuiBoQO01r0C85IXBSj92QKolxUBXnpHB2mdVQIymhUBx4qTBUGgI
QbKo7kBGFpTBVejyQFOH4UDbXozBOYEBQVWOAUGigp3B9hi5QJbM/ED9lZfBfszNQJzIWj/CzazB
RfqUQC9RI78crabB70/XQLQPyL9d263BOPLGQP276EAFHo7Ba+nWQCCrBUG8Sp/BPcakQMIuKz/Q
S6jB+yPnQGr1hL5Sfq/B6S6uQEwy4L9KfKnB7u3YQEkVrj8p25DBtaqRQJ1J+EBSOH3BuaqvQJPV
1EAXyXTBy6alQBpF2EDLX4bB4u3gQIaxlj5MW4jBy7edQGRnHUGS9qfBtCu+QFD0/ECzErLBvjHp
QHPUH0GXba7BqMyKQPj47j+gpqTBEpOgQD8JkUCUlo7BZQejQPV8KUD21JvBvXyHQB+NckBqUpfB
+0jHQJA3EEF/xanBUveuQCmo3D8cJJPBllGJQEHXt0BSK4vBwWf3QCwn+T/G4pTB/nJ7QNkxlkBv
0p/BLGwHQdhOoL2VirPBbCWfQLknQMCn1afBWUIZQUsM6UDEyZLBF479QKD50UDwIIXBVB0NQQ5T
BkHxcqPBWEaXQOeTAEHY/JjBhb3ZQPw17T9KMK7BphZrQE61SL/QR6PB97PqQMa7GsDy86/Br1te
QDXv9kBTw3nBllKcQADrDEGdOn3BrrvPQGAR3UBpzm7B8JaiQJYqukAfV2vBHcUBQUYISj4c9IbB
4frQQMUIFj/33YDBswbUQDVLK79eHovBPJCTQD2oJEGQka/BbUuEQMHLEkFd+qTB7OGjQJQWKkF7
D6LBkwKzQDDGBUFLlLnB8KjbQAy46kB0l7PB3lqlQHdS50A69a7B9encQNv8JkGw27XBetLvQNGM
LEGHk6jBC28DQdUBF0EwJbDBriSFQDIKIkBphKvBhOJXQFqQwj/2c6HBTtekQId5d0DiqYfBpxfA
QBNKmkA5wJHBjSfAQAsfRUCzXZ/BzhZUQGbCV0D02ZPBHJaXQEwmqz/Ao47B0oNmQEV2r0AgxIXB
uNB1QIWpxEBvjZHB3WZcQHGKh0CdO6XB

>  <OMEGA_E>  (26) 
WBNKPrC/TD7gtE8+

>  <OMEGA_NBR>  (26) 
     95091

$$$$
50168372
     RDKit          3D

 64 66  0  0  1  0  0  0  0  0999 V2000
    8.4967    7.4471  -18.6915 C   0  0  0  0  0  0  0  0  0  0  0  0
    7.5985    7.0284  -17.6965 C   0  0  0  0  0  0  0  0  0  0  0  0
    8.0196    8.0712  -19.8597 C   0  0  0  0  0  0  0  0  0  0  0  0
    5.7359    7.8295  -19.0541 C   0  0  0  0  0  0  0  0  0  0  0  0
    6.3929    0.7961  -21.6449 C   0  0  0  0  0  0  0  0  0  0  0  0
    4.6488   -0.6910  -20.7993 C   0  0  0  0  0  0  0  0  0  0  0  0
    6.7004   -1.6228  -21.7369 C   0  0  0  0  0  0  0  0  0  0  0  0
    6.2150    7.2276  -17.8752 C   0  0  0  0  0  0  0  0  0  0  0  0
    6.6305    8.2957  -20.0466 C   0  0  0  0  0  0  0  0  0  0  0  0
    5.1268    0.6139  -21.0449 C   0  0  0  0  0  0  0  0  0  0  0  0
    7.1809   -0.3213  -21.9828 C   0  0  0  0  0  0  0  0  0  0  0  0
    5.4324   -1.8070  -21.1505 C   0  0  0  0  0  0  0  0  0  0  0  0
    6.8189    1.4143  -18.0941 C   0  0  0  0  0  0  0  0  0  0  0  0
    4.6166    7.7283  -15.8840 C   0  0  0  0  0  0  0  0  0  0  0  0
    5.5808    6.6345  -15.3759 C   0  0  0  0  0  0  0  0  0  0  0  0
    5.2140    6.7194  -16.8629 C   0  0  0  0  0  0  0  0  0  0  0  0
    7.1261    0.3159  -17.0819 C   0  0  0  0  0  0  0  0  0  0  0  0
    7.1241    9.9239  -21.9769 C   0  0  0  0  0  0  0  0  0  0  0  0
    4.3189    1.8149  -20.5890 C   0  0  0  0  0  0  0  0  0  0  0  0
    5.0313    4.4747  -17.8367 C   0  0  0  0  0  0  0  0  0  0  0  0
    4.7948    9.7658  -21.0820 C   0  0  0  0  0  0  0  0  0  0  0  0
    5.7426    7.8312  -22.3652 C   0  0  0  0  0  0  0  0  0  0  0  0
    5.0834    2.5952  -19.4927 C   0  0  1  0  0  0  0  0  0  0  0  0
    4.2174    3.7122  -18.8914 C   0  0  2  0  0  0  0  0  0  0  0  0
    6.0905    8.9442  -21.3455 C   0  0  0  0  0  0  0  0  0  0  0  0
    5.4936    1.6615  -18.4296 N   0  0  0  0  0  0  0  0  0  0  0  0
    4.3147    5.6934  -17.4139 N   0  0  0  0  0  0  0  0  0  0  0  0
    7.7279    2.1242  -18.5114 O   0  0  0  0  0  0  0  0  0  0  0  0
    3.8374    4.6054  -19.9381 O   0  0  0  0  0  0  0  0  0  0  0  0
    8.4042   -0.1452  -22.5315 F   0  0  0  0  0  0  0  0  0  0  0  0
    4.9728   -3.0560  -20.9120 F   0  0  0  0  0  0  0  0  0  0  0  0
    4.9900   10.6775  -20.0916 F   0  0  0  0  0  0  0  0  0  0  0  0
    6.8353    7.0802  -22.6661 F   0  0  0  0  0  0  0  0  0  0  0  0
    9.5570    7.2897  -18.5601 H   0  0  0  0  0  0  0  0  0  0  0  0
    7.9665    6.5557  -16.7979 H   0  0  0  0  0  0  0  0  0  0  0  0
    8.7183    8.3826  -20.6221 H   0  0  0  0  0  0  0  0  0  0  0  0
    4.6717    7.9369  -19.2031 H   0  0  0  0  0  0  0  0  0  0  0  0
    6.7568    1.7932  -21.8446 H   0  0  0  0  0  0  0  0  0  0  0  0
    3.6811   -0.8338  -20.3416 H   0  0  0  0  0  0  0  0  0  0  0  0
    7.3040   -2.4794  -21.9980 H   0  0  0  0  0  0  0  0  0  0  0  0
    3.5476    7.6811  -15.6292 H   0  0  0  0  0  0  0  0  0  0  0  0
    4.9412    8.7790  -15.9103 H   0  0  0  0  0  0  0  0  0  0  0  0
    6.5935    6.9042  -15.0415 H   0  0  0  0  0  0  0  0  0  0  0  0
    5.1998    5.8063  -14.7604 H   0  0  0  0  0  0  0  0  0  0  0  0
    8.2021    0.3177  -16.8533 H   0  0  0  0  0  0  0  0  0  0  0  0
    6.5551    0.4974  -16.1594 H   0  0  0  0  0  0  0  0  0  0  0  0
    6.8425   -0.6601  -17.5026 H   0  0  0  0  0  0  0  0  0  0  0  0
    6.7027   10.3613  -22.8940 H   0  0  0  0  0  0  0  0  0  0  0  0
    7.3539   10.7262  -21.2603 H   0  0  0  0  0  0  0  0  0  0  0  0
    8.0460    9.3761  -22.2221 H   0  0  0  0  0  0  0  0  0  0  0  0
    4.1397    2.4783  -21.4479 H   0  0  0  0  0  0  0  0  0  0  0  0
    3.3557    1.4710  -20.1840 H   0  0  0  0  0  0  0  0  0  0  0  0
    5.1894    3.8259  -16.9625 H   0  0  0  0  0  0  0  0  0  0  0  0
    6.0046    4.7569  -18.2646 H   0  0  0  0  0  0  0  0  0  0  0  0
    4.5086   10.2922  -22.0045 H   0  0  0  0  0  0  0  0  0  0  0  0
    3.9876    9.0798  -20.7857 H   0  0  0  0  0  0  0  0  0  0  0  0
    4.9674    7.1801  -21.9349 H   0  0  0  0  0  0  0  0  0  0  0  0
    5.3616    8.2954  -23.2868 H   0  0  0  0  0  0  0  0  0  0  0  0
    5.9768    3.0490  -19.9465 H   0  0  0  0  0  0  0  0  0  0  0  0
    3.3308    3.2681  -18.4153 H   0  0  0  0  0  0  0  0  0  0  0  0
    4.7794    1.1795  -17.9221 H   0  0  0  0  0  0  0  0  0  0  0  0
    3.6461    5.4444  -16.7132 H   0  0  0  0  0  0  0  0  0  0  0  0
    3.8401    6.0764  -18.2064 H   0  0  0  0  0  0  0  0  0  0  0  0
    3.3337    4.1332  -20.5907 H   0  0  0  0  0  0  0  0  0  0  0  0
  1  2  2  0
  1  3  1  0
  2  8  1  0
  3  9  2  0
  4  8  2  0
  4  9  1  0
  5 10  2  0
  5 11  1  0
  6 10  1  0
  6 12  2  0
  7 11  2  0
  7 12  1  0
  8 16  1  0
  9 25  1  0
 10 19  1  0
 11 30  1  0
 12 31  1  0
 13 17  1  0
 13 26  1  0
 13 28  2  0
 14 15  1  0
 14 16  1  0
 15 16  1  0
 16 27  1  0
 18 25  1  0
 19 23  1  0
 20 24  1  0
 20 27  1  0
 21 25  1  0
 21 32  1  0
 22 25  1  0
 22 33  1  0
 23 24  1  0
 23 26  1  0
 24 29  1  0
  1 34  1  0
  2 35  1  0
  3 36  1  0
  4 37  1  0
  5 38  1  0
  6 39  1  0
  7 40  1  0
 14 41  1  0
 14 42  1  0
 15 43  1  0
 15 44  1  0
 17 45  1  0
 17 46  1  0
 17 47  1  0
 18 48  1  0
 18 49  1  0
 18 50  1  0
 19 51  1  0
 19 52  1  0
 20 53  1  0
 20 54  1  0
 21 55  1  0
 21 56  1  0
 22 57  1  0
 22 58  1  0
 23 59  1  6
 24 60  1  1
 26 61  1  0
 27 62  1  0
 27 63  1  0
 29 64  1  0
M  CHG  1  27   1
M  END
>  <OMEGA_C>  (27) 
TPIHQYtO7kA8iJXBgibzQPjo4EBiko3Bd1AAQZsjAUGe4J7Broy3QDWL+kDAbpjBipLMQPzNSz/A
KK3BN8OUQHzmML8KZabBfWnWQGm3z78s5a3BcOHGQJJI50ByAI/BOy3UQDi7BEFaX6DBAg+kQN0o
HT8OXKjBNcrlQOp/pL7E3K/Ba9atQDpN578wNKnBRTTaQGgItT/KwJDBW7uTQDNO90DdJH7BypWy
QBVO1ECjA3bB8dimQAsF10Ai54bBHwnkQJu7oT6mp4jBifjjQE3IHkGo0K/BeTSKQCpN6D8stqTB
cwChQN0wj0B2sY7BTm+ZQM5AHEHip6jBx8O3QOeY+kDi67LBJauiQIYYJkAi8ZvBV/WGQGmUbUCg
IZfBeuXCQJgbD0GGw6rBa8uvQGOs1D/sb5PBIBKKQPAvtkC0T4vBU0v3QEvzB0BYF5TBx5d1QJlf
k0AigZ/Bx3cGQTi0FL6MQLTBdSGfQJiVQ8CwS6fBCa6fQN3WKkGqu6DBHLvaQDKR4kA0VLXBg+kY
QStF6UASe5TB4+3+QJzI0UASYobBDX4LQUAfBkEb+qTBL36VQP36/UDgn5nBjTfYQCGG5T/Dwa7B
KpdrQC91Vb+gu6LBu7rpQOOuHsDV+6/BvQtjQGHL9UACEXrBlB6eQLN2DEGSkH7Bmv3SQO7u3EAh
qnDB5WSmQOnMuUCRKmzByDsDQeKsoj5404bBU8PRQJ+t/j5lRoHBafXaQBX7KL9YBYzBaXzWQLLH
JUH1JrfB71LrQHOeK0EGFarBObwAQZ4EFkHExrHBYniEQIicHkA2lavBuMNWQIBJvD/VeKHBYA+m
QAncdEBCs4fBUCXAQOw4mEDfHZLBQEaQQOSsJEEfCbDBSDV/QMtGEUEqSabBKvWeQEfD5UCyeq/B
A5KrQMq5BEFGS7rB3UG/QDYjQ0B/kp/BTSxVQFMoUUCMUpPB8vCYQNf6lj9cYI/BW1ppQDI4rkCf
tIXBnsN1QJpxwkCuppHBClxVQIRDhECpuaTBzG0JQbXX7EDkDJTB/QT0QKDM4ED6c4zB6CIDQbtk
AEG9pJ3Babi7QITv+0AYJpjB7HTPQGqqTj/ClKzBlSGVQE5aIr9ejabBvWbXQEo1z79oOq3BwFjI
QNaE6EA2f47BPX/aQDTMBEGatp/BjfilQP5kKD9MQajBXzboQMcNqb7g/q7BicStQEOW4r/FEqnB
jmvZQC3hrz+yxZDBFvaRQF7V+UCso37BlQqvQKIf1kCosHXBgRGmQJYi2UBD4obBU7fgQF5IrD4d
BIjBuKDDQH9G+kBUh7LB+3CMQIBe8D+G5qTBOvKgQOnBkUAn7Y7BNf3uQPlSHkEJGa/BQy2iQPVu
HEGyDqnBFvOjQMMXKkAJ9JvBeISHQPhtcUBaWpfB/yvMQFAxD0ETXKrBraKvQHQI3j/5PpPByLyJ
QNLQuECjs4vBdTT4QECi9z/145TBaTB2QCi2lEDq0Z/BJhsIQW44Pr5Z9LLBbZedQOtvQMD/aKfB
XU37QOJrLUG74KfBt1ilQNjBKkEL5KDBjioaQUDI5kAAh5LB+bv9QEyu0UCtEoXBXBcPQWC9BEHJ
faPB2BqaQCQ8AEHQzZnB4jLcQMqz5T+zCa7BTaFqQAlxQL/hT6PB/G7qQM5oH8ACD6/BzaReQE0a
+UA7iHvBaCWdQLWaDUEpvH7BdPvOQLv/3UDcbW/BcyihQJ7ku0DuOWzBzJ4BQffuaz5ihobB1qzQ
QNpnKT+zoIDB33vTQHyUIb9AlIrBw1+5QMwnBEFMLrrBkRzhQE+v50DCwbPBBlGqQNIb5UCVdq/B
nR6IQDteIkDI3KvB0+xZQKMRxz8r7aHBMdWlQOq7ekCm24fBsi3AQE7PmkC0S5LBGoYFQQG9FEFS
ZLHBKu3hQM5ZJkFKN7bBB9mbQN8kJUHgibDBdYSHQM5tEUGNZqfB9gfBQE8MR0B4V5/B9X5WQN6I
VEBUjZPB9giYQArxqz/H147Bqo9mQLjSsEBCXYbBX6V3QM5+xUDDK5LBFLhWQE8bhUDBBaXBHAcM
QSW75kBSdZPBlnT3QLTR3EA2I4zB9QYHQVe4+kDkO53BxKHCQAHo+kAoZJjBYC7QQMT6Kz+mzavB
dMeSQDPRLb8QYKbBaNvUQHDI4b++HKzBTKfMQFbp5kAkoI7BPDfjQAwGA0FwvJ/BSbClQDQWFj9Q
AKjBZtDnQLuTAL8Wxa3BqkuqQF7+7L9sdKjBDErWQEbSrT8Aw4/BIlCUQLdU+0BDMoDBwgivQCHE
1kBrgXbBQ26oQNpW2UCoY4fBnknbQBT8eT6ShIfBkseuQF57G0EQ3qnB7iuNQFhB7D9GGaXBM82h
QGS8kUCGU4/Bxn7QQLvf9kAA/7LB2Ff8QGIVHEG+vq7BtiCkQP6TJ0CkBZzBCI6IQHAAckA+3JfB
uMXXQGJZDUEgn6rBnEqtQIuJ2T96GJPB2K+LQGbkuUD6cYzByDT2QJAg6j+QDZTBHDN9QFvFlEDK
kqDBK28IQVZl1r7KH7HBYiyYQJryQ8AIzKbBaoqwQKP520DM6q/BDkUDQQQtK0EqU6fBaXIcQUX/
3kBplZHB+Sb/QLeGzUDZoYTBE6ETQVDCAEFf5aLBraahQEDrAEEhTprBCI7eQAyy0T/6M63BfHBk
QJt+P78NiKPBX/PmQJZ9KsAwpa3BHNhiQCQd/EBBGX7B2t2gQKIbDkHDPIDBFanOQBOL3UCyj2/B
STefQPRwvUBsL23BF2v9QLJtpjumh4bB1f7NQOY4Ez+Dn3/B3ArKQKS0Jr8ERIrBQdKnQMJ8IkEq
wLHB9JSTQLiPEUE1TKfBfgC0QN1eKEHSBKTB2N6KQJmAH0D+MazBqKpZQIrayD8da6LBGgKlQHNd
e0B2I4jBwsTBQP1imUCOeZLB3ePHQGvHAkH2srrBBD3uQG9q5EC767PBA2UMQehHEkFubrDBf9Tx
QLQSJEHsIbbBSUzCQGGjQUCxLJ/B+1RWQPojWEDrQJTBHX6UQGUDpj+dMo/BQAdoQD4Ms0BxV4fB
peF+QAvUxkBUF5PB1PddQAZohUC316XB

>  <OMEGA_E>  (27) 
CAO4PoTcvT4wca4+

>  <OMEGA_NBR>  (27) 
     98488

$$$$
50168374
     RDKit          3D

 67 69  0  0  1  0  0  0  0  0999 V2000
    8.6715    7.4664  -18.3745 C   0  0  0  0  0  0  0  0  0  0  0  0
    7.7128    7.0392  -17.4418 C   0  0  0  0  0  0  0  0  0  0  0  0
    8.2718    8.1306  -19.5478 C   0  0  0  0  0  0  0  0  0  0  0  0
    5.9456    7.9496  -18.8554 C   0  0  0  0  0  0  0  0  0  0  0  0
    6.4219    0.7952  -21.5614 C   0  0  0  0  0  0  0  0  0  0  0  0
    4.5870   -0.6301  -20.8049 C   0  0  0  0  0  0  0  0  0  0  0  0
    6.6552   -1.6312  -21.6237 C   0  0  0  0  0  0  0  0  0  0  0  0
    6.3436    7.2748  -17.6840 C   0  0  0  0  0  0  0  0  0  0  0  0
    6.9017    8.4134  -19.7903 C   0  0  0  0  0  0  0  0  0  0  0  0
    5.1214    0.6543  -21.0284 C   0  0  0  0  0  0  0  0  0  0  0  0
    7.1916   -0.3474  -21.8472 C   0  0  0  0  0  0  0  0  0  0  0  0
    5.3509   -1.7710  -21.1083 C   0  0  0  0  0  0  0  0  0  0  0  0
    6.7775    1.5005  -18.0253 C   0  0  0  0  0  0  0  0  0  0  0  0
    5.5748    6.2630  -15.3437 C   0  0  0  0  0  0  0  0  0  0  0  0
    4.6442    7.4480  -15.6516 C   0  0  2  0  0  0  0  0  0  0  0  0
    5.2709    6.6613  -16.8004 C   0  0  1  0  0  0  0  0  0  0  0  0
    7.0371    0.3834  -17.0186 C   0  0  0  0  0  0  0  0  0  0  0  0
    5.1367    8.8560  -15.3046 C   0  0  0  0  0  0  0  0  0  0  0  0
    6.1000    7.9852  -22.1237 C   0  0  0  0  0  0  0  0  0  0  0  0
    5.1757    9.9724  -20.8635 C   0  0  0  0  0  0  0  0  0  0  0  0
    4.3317    1.8747  -20.6179 C   0  0  0  0  0  0  0  0  0  0  0  0
    5.0860    4.5571  -17.9691 C   0  0  0  0  0  0  0  0  0  0  0  0
    5.0958    2.6533  -19.5284 C   0  0  1  0  0  0  0  0  0  0  0  0
    4.2401    3.7904  -18.9738 C   0  0  2  0  0  0  0  0  0  0  0  0
    7.5719    9.9993  -21.6914 C   0  0  0  0  0  0  0  0  0  0  0  0
    6.4440    9.0950  -21.1014 C   0  0  0  0  0  0  0  0  0  0  0  0
    5.4677    1.7429  -18.4260 N   0  0  0  0  0  0  0  0  0  0  0  0
    4.3873    5.7665  -17.5388 N   0  0  0  0  0  0  0  0  0  0  0  0
    7.7273    2.0581  -18.5651 O   0  0  0  0  0  0  0  0  0  0  0  0
    3.8522    4.6592  -20.0381 O   0  0  0  0  0  0  0  0  0  0  0  0
    8.4492   -0.2124  -22.3251 F   0  0  0  0  0  0  0  0  0  0  0  0
    4.8365   -3.0011  -20.8880 F   0  0  0  0  0  0  0  0  0  0  0  0
    7.9281   10.9591  -20.7941 F   0  0  0  0  0  0  0  0  0  0  0  0
    7.1670   10.6058  -22.8383 F   0  0  0  0  0  0  0  0  0  0  0  0
    9.7199    7.2841  -18.1900 H   0  0  0  0  0  0  0  0  0  0  0  0
    8.0233    6.5313  -16.5407 H   0  0  0  0  0  0  0  0  0  0  0  0
    9.0151    8.4288  -20.2724 H   0  0  0  0  0  0  0  0  0  0  0  0
    4.8950    8.1154  -19.0427 H   0  0  0  0  0  0  0  0  0  0  0  0
    6.8252    1.7793  -21.7493 H   0  0  0  0  0  0  0  0  0  0  0  0
    3.5913   -0.7383  -20.4009 H   0  0  0  0  0  0  0  0  0  0  0  0
    7.2439   -2.5085  -21.8476 H   0  0  0  0  0  0  0  0  0  0  0  0
    6.5740    6.4421  -14.9199 H   0  0  0  0  0  0  0  0  0  0  0  0
    5.1624    5.3312  -14.9293 H   0  0  0  0  0  0  0  0  0  0  0  0
    3.5735    7.2645  -15.4785 H   0  0  0  0  0  0  0  0  0  0  0  0
    8.1210    0.2277  -16.9144 H   0  0  0  0  0  0  0  0  0  0  0  0
    6.6115    0.6626  -16.0434 H   0  0  0  0  0  0  0  0  0  0  0  0
    6.5656   -0.5454  -17.3721 H   0  0  0  0  0  0  0  0  0  0  0  0
    4.3678    9.5925  -15.5809 H   0  0  0  0  0  0  0  0  0  0  0  0
    5.3336    8.9195  -14.2242 H   0  0  0  0  0  0  0  0  0  0  0  0
    6.0629    9.0674  -15.8591 H   0  0  0  0  0  0  0  0  0  0  0  0
    5.7708    8.4445  -23.0674 H   0  0  0  0  0  0  0  0  0  0  0  0
    6.9915    7.3676  -22.3080 H   0  0  0  0  0  0  0  0  0  0  0  0
    5.2934    7.3541  -21.7222 H   0  0  0  0  0  0  0  0  0  0  0  0
    4.8727   10.4441  -21.8099 H   0  0  0  0  0  0  0  0  0  0  0  0
    4.3569    9.3396  -20.4907 H   0  0  0  0  0  0  0  0  0  0  0  0
    5.4033   10.7521  -20.1217 H   0  0  0  0  0  0  0  0  0  0  0  0
    4.1827    2.5240  -21.4932 H   0  0  0  0  0  0  0  0  0  0  0  0
    3.3540    1.5606  -20.2236 H   0  0  0  0  0  0  0  0  0  0  0  0
    5.2790    3.9185  -17.0945 H   0  0  0  0  0  0  0  0  0  0  0  0
    6.0414    4.8366  -18.4371 H   0  0  0  0  0  0  0  0  0  0  0  0
    6.0063    3.0798  -19.9746 H   0  0  0  0  0  0  0  0  0  0  0  0
    3.3575    3.3717  -18.4681 H   0  0  0  0  0  0  0  0  0  0  0  0
    8.4334    9.3478  -21.8996 H   0  0  0  0  0  0  0  0  0  0  0  0
    4.7328    1.2721  -17.9379 H   0  0  0  0  0  0  0  0  0  0  0  0
    3.6218    5.5073  -16.9499 H   0  0  0  0  0  0  0  0  0  0  0  0
    4.0402    6.2454  -18.3452 H   0  0  0  0  0  0  0  0  0  0  0  0
    3.3240    4.1778  -20.6640 H   0  0  0  0  0  0  0  0  0  0  0  0
  1  2  2  0
  1  3  1  0
  2  8  1  0
  3  9  2  0
  4  8  2  0
  4  9  1  0
  5 10  2  0
  5 11  1  0
  6 10  1  0
  6 12  2  0
  7 11  2  0
  7 12  1  0
  8 16  1  0
  9 26  1  0
 10 21  1  0
 11 31  1  0
 12 32  1  0
 13 17  1  0
 13 27  1  0
 13 29  2  0
 14 15  1  0
 14 16  1  0
 15 16  1  0
 15 18  1  0
 16 28  1  6
 19 26  1  0
 20 26  1  0
 21 23  1  0
 22 24  1  0
 22 28  1  0
 23 24  1  0
 23 27  1  0
 24 30  1  0
 25 26  1  0
 25 33  1  0
 25 34  1  0
  1 35  1  0
  2 36  1  0
  3 37  1  0
  4 38  1  0
  5 39  1  0
  6 40  1  0
  7 41  1  0
 14 42  1  0
 14 43  1  0
 15 44  1  6
 17 45  1  0
 17 46  1  0
 17 47  1  0
 18 48  1  0
 18 49  1  0
 18 50  1  0
 19 51  1  0
 19 52  1  0
 19 53  1  0
 20 54  1  0
 20 55  1  0
 20 56  1  0
 21 57  1  0
 21 58  1  0
 22 59  1  0
 22 60  1  0
 23 61  1  6
 24 62  1  1
 25 63  1  0
 27 64  1  0
 28 65  1  0
 28 66  1  0
 30 67  1  0
M  CHG  1  28   1
M  END
>  <OMEGA_C>  (28) 
a74KQWvs7kDp/pLBRc/2QHhB4UDkiIvBZVkEQdsWAkH1YZzBZkK+QCxj/kDz15bBjYDNQC2RSz+v
fazB5siSQINQIb+JcKbBQ/fUQNDL0L9t/azBD//KQPDK6EDpeI3Bv9rcQGydBkGYUp7BKOKjQOeA
Jz8+OqjB2SHmQMDksb4Mx67BejqrQFex4r+23ajB6ODYQFERwD/VM5DBjmSyQFRqyECkf3XBJJ2U
QLNV7kABbXrBnauoQKwp1UAnZ4bB1y/hQDxTxD4YJojBLWCkQD2yDUF233TBgzPDQHSG/0BR/bDB
nZ+lQPyOH0FZ6KbBMp2KQH/27z9u8aTBOMCiQGPTkUDNwI/B4RCjQLHPKUAaOpzBlK6HQJ6VckBI
ypfB90zyQEH9H0H8h63BATXOQDGFEUGcz6jBXPeuQLYX3z9gaJPBomSMQICHuEB2T4zBM0b3QBm4
A0BghZTBRop2QC8YlUD2TaDB7S8HQRB3Wb65mbLB1sSaQMsSQMCLGqfBP7P9QIpYL0FWWqbBylfl
QH6xKUHotLbBt4QbQVoX6UAzhZHBel8AQYcA0UBsU4TBBT4QQUjcBkHQLaLBdaOcQJrYAUFdV5jB
ZWjaQCi/4z+U/q3BAdhlQLMBPb8ONaPB3s3nQA+MIMD4x67B0V3SQKslzkD6t27BpjKlQNeYqkB9
3m7BPLRkQKV26EDVp3fBpO8BQUkdaT69UIfBkJHTQCyiKT/1WIDBOBnSQOueC7/5+YrBZMWLQOV6
GUGES3nBCq2qQHC2DkFDlmPBawPCQAwUEUHcvn3BWKq4QIkcB0EXirjBBrrfQFHD60DSdrLB3GOp
QC1V60AAx63Bfu2bQA4bJ0Gaeq7BdGuLQM9uFUHv7KPBMuisQL0ILEE0+aDBetiFQMSIIUAq8qvB
hKdWQEDDxz/+yaHBt+2oQAvIekCewYjBN1PBQCDFmkA3f5PBfTPAQMgbRUD5y5/BjeBWQHDJV0Cy
vpPBDO8GQWuQFUFMMq/B/nKXQF/Toj/JgI/BGctnQHs7sEB2mYfBlUmBQIHax0DmwpLB4bxUQCqw
hUDPT6XBPDUIQcLo80CrrpPB/ufzQIhB5EBA7YvBP2sAQWFDBEEF55zBE/a3QJ6E/UDqr5bBET/M
QKT0Xz85Cq3BO6OUQBr9Ir/sgabBYuXWQE/bxL8I5K3BQXTHQIXu6EAwcI3BYT7UQL1VB0EKcJ7B
CqWjQKAKLD/CWajBw/jlQPYwa75VuK/BviKuQAK73r8BV6nB7JbaQBSxwz++dZDBi4azQKDXx0BF
z3TBbb+TQCpe7EA3PXnBXV+nQBvO00Dn94XBWeHkQJQw3D7pZIjB4tyhQIQbDUGFOnTBxb3kQPJE
IUE02K3B2MG3QBaaAEGmBrHB0HSJQI9U7T9QqKTBN+WhQN4OkECDLY/BYWSiQFy2KEB3DZzBqLmG
QBZ5b0CDP5fBzI+aQGxvIEE/r6bBUtPCQLIpEkH/vajBLi2wQFnx2z/WdpPBSxGLQAQptkBziovB
h+33QMa2B0Ap8ZTBmC1yQMsNlECfip/BaKAGQbBtC71g+bPByZWfQFKfP8BjmqfB0/uhQC4mLkFR
cZ7BR3ttQKjKFEHQmaTBijwZQTca8EBRkJLBXQAAQQ2x1EB91ITB2okLQSvoCUE64qLBxtmVQJoj
AEF85JfBponXQEpT8D9Cka7BrCxrQMvKSr9v7KLBC5bqQMO5GMAj+q/BT77TQKANz0CMtG7BBTCo
QJGVqUAe1G3BrA9kQDAK5UDbwXXBJuUDQczwoj5FtYfBdnfXQFnUMj/9i4DBXcvWQCrnBL8kHIvB
ENiHQD5EGEEyOnjBo4OpQHl0DkEzGmPBsWG+QHcREUElwX3BTGHXQFGlKEFEGrXBTWXtQD3bLUFB
FqjBy7cAQUb8F0EY86/B0mGrQM4aCEFLXLjBXLnUQCW17kBw7bLBYk2fQEC560D0rK3BROqCQOzn
IEA9gavBjhJWQIW6vz/oRKHBEKaoQNKFdkATSIjBJy/AQJSsmUBY9pLBla++QBDsRUDkzZ/BiSBW
QM3FUkDlJ5PBRnKVQFnCKUGvCa7BFaOZQJ7KmT9Cko/B5EpnQP4+rUDlkIbBTdx8QOP+xEDa4pHB
qUpQQPbAhEBnj6TBAWQJQXXV70CRwpTBJ+D1QNzb4UD544zBZ94BQYsOAkHZFZ7BvJu6QBLJ/EBF
ppfB2jrLQArVNT+KgazBFbKSQO2mPb9Um6XBy0vUQOMF278XzKzBXJHJQDMu6EDIVo7Be1zXQAHX
BUG2lJ/BpIqiQP4SDT8uwafBWC/kQJwl177o8q7B2HqrQB9k779yLKjBNljZQN77vD/M4Y/BaAy1
QKAwyEAJdnbBrRKWQEla7UAK63rBKACpQHQw1EDbzYbBlqniQPV0xz7Ro4fBklylQORrDUEq+XXB
wnydQBTKHUE/z6fB2F7nQEGrH0HyGK/ByxOJQP6u4T/NXKTBIXKiQACfj0DTjY/ByFiiQNA1JEBK
75vBJEaHQDSQbUCahJfB7tW6QEru/EDHU7LBSCrGQKgeEEHOBqrBKDOvQI+E1j8hE5PBeEeMQG61
tkDpS4zBoTX3QK92AkAOZJTBmcl1QPNHkkDJF6DB4sMFQZNciL50RrPBxDqcQErnRsB0GKbB4eSc
QOyW4UBDXK7B7ijeQLvp5UB8BrXB6VoaQdn96kD7pZPB8McAQa9P0kCpv4XB9xkNQXsCB0F7KqTB
UaGYQLOlAEE0wZjByC7XQEeK2T90Q67BohlnQLAOXb87/qHBW2jnQNIRJcA/sa7BTHbVQBC+zkBE
bnDBTxepQKZCqkCUYm/BP3FoQATY5kBWW3fBBrwCQRpmgz4I34bBQDTVQE43Lz9ot3/BzAXUQJpn
Dr/qPorBAuWLQJzlGEH19nnBUimtQP+0DkHq22TBXgbCQHYAEUGOin/B4AmSQLXcJEGfV6/B1VOE
QCCLE0EnZqTBgVelQMSfKkEHHqLBLwLaQJ+aJkGidrbB1b/uQCyPLEGWZanBfmoCQVHVFkGiA7HB
7f2CQGCWGUAtYKvBBddUQGcPuD+S6KDBIV+oQNc0d0ABeIjBoyPBQAsZmEAKTpPBRhG/QGoRP0Dw
wZ/BqgZWQNNMU0AJbZPBOB2uQG6ZBkEgdLnByC+YQF3klz+uII/BP45oQOj3rkA4X4fBen6AQNAi
xUAZzZLB6txTQMW5gkDoDqXB

>  <OMEGA_E>  (28) 
AJFePgCwaD4Aq1A+

>  <OMEGA_NBR>  (28) 
    102012

$$$$
50168380
     RDKit          3D

 67 69  0  0  1  0  0  0  0  0999 V2000
    8.5873    7.4861  -18.5148 C   0  0  0  0  0  0  0  0  0  0  0  0
    7.6651    7.0574  -17.5452 C   0  0  0  0  0  0  0  0  0  0  0  0
    8.1453    8.1541  -19.6706 C   0  0  0  0  0  0  0  0  0  0  0  0
    5.8472    7.9593  -18.8953 C   0  0  0  0  0  0  0  0  0  0  0  0
    6.4220    0.8559  -21.5748 C   0  0  0  0  0  0  0  0  0  0  0  0
    4.6332   -0.6138  -20.7945 C   0  0  0  0  0  0  0  0  0  0  0  0
    6.6907   -1.5654  -21.6986 C   0  0  0  0  0  0  0  0  0  0  0  0
    6.2847    7.3075  -17.7222 C   0  0  0  0  0  0  0  0  0  0  0  0
    6.7670    8.4188  -19.8693 C   0  0  0  0  0  0  0  0  0  0  0  0
    5.1406    0.6858  -21.0045 C   0  0  0  0  0  0  0  0  0  0  0  0
    7.1996   -0.2688  -21.9104 C   0  0  0  0  0  0  0  0  0  0  0  0
    5.4047   -1.7371  -21.1486 C   0  0  0  0  0  0  0  0  0  0  0  0
    6.7981    1.4692  -18.0209 C   0  0  0  0  0  0  0  0  0  0  0  0
    5.4321    7.8624  -14.9342 C   0  0  0  0  0  0  0  0  0  0  0  0
    5.6586    6.3942  -15.3134 C   0  0  0  0  0  0  0  0  0  0  0  0
    4.3915    7.8858  -16.0619 C   0  0  0  0  0  0  0  0  0  0  0  0
    5.2147    6.7738  -16.7571 C   0  0  0  0  0  0  0  0  0  0  0  0
    7.0523    0.3137  -17.0592 C   0  0  0  0  0  0  0  0  0  0  0  0
    5.9795    7.9718  -22.2124 C   0  0  0  0  0  0  0  0  0  0  0  0
    7.3147   10.0638  -21.7620 C   0  0  0  0  0  0  0  0  0  0  0  0
    4.9631    9.8957  -20.9370 C   0  0  0  0  0  0  0  0  0  0  0  0
    4.3398    1.8926  -20.5563 C   0  0  0  0  0  0  0  0  0  0  0  0
    5.1078    4.5831  -17.8695 C   0  0  0  0  0  0  0  0  0  0  0  0
    5.1096    2.6725  -19.4657 C   0  0  1  0  0  0  0  0  0  0  0  0
    4.2600    3.8046  -18.8798 C   0  0  2  0  0  0  0  0  0  0  0  0
    6.2650    9.0803  -21.1738 C   0  0  0  0  0  0  0  0  0  0  0  0
    5.4864    1.7500  -18.3808 N   0  0  0  0  0  0  0  0  0  0  0  0
    4.3618    5.7587  -17.3964 N   0  0  0  0  0  0  0  0  0  0  0  0
    7.7464    2.0057  -18.5841 O   0  0  0  0  0  0  0  0  0  0  0  0
    3.8503    4.6778  -19.9322 O   0  0  0  0  0  0  0  0  0  0  0  0
    8.4386   -0.1045  -22.4263 F   0  0  0  0  0  0  0  0  0  0  0  0
    4.9157   -2.9814  -20.9484 F   0  0  0  0  0  0  0  0  0  0  0  0
    9.6417    7.3015  -18.3715 H   0  0  0  0  0  0  0  0  0  0  0  0
    8.0107    6.5366  -16.6644 H   0  0  0  0  0  0  0  0  0  0  0  0
    8.8630    8.4684  -20.4139 H   0  0  0  0  0  0  0  0  0  0  0  0
    4.7896    8.1107  -19.0533 H   0  0  0  0  0  0  0  0  0  0  0  0
    6.8054    1.8496  -21.7535 H   0  0  0  0  0  0  0  0  0  0  0  0
    3.6527   -0.7470  -20.3618 H   0  0  0  0  0  0  0  0  0  0  0  0
    7.2864   -2.4281  -21.9580 H   0  0  0  0  0  0  0  0  0  0  0  0
    5.0259    8.0235  -13.9248 H   0  0  0  0  0  0  0  0  0  0  0  0
    6.2995    8.5208  -15.0897 H   0  0  0  0  0  0  0  0  0  0  0  0
    6.7009    6.0533  -15.2280 H   0  0  0  0  0  0  0  0  0  0  0  0
    4.9962    5.6803  -14.8020 H   0  0  0  0  0  0  0  0  0  0  0  0
    3.3787    7.5836  -15.7572 H   0  0  0  0  0  0  0  0  0  0  0  0
    4.3397    8.8334  -16.6181 H   0  0  0  0  0  0  0  0  0  0  0  0
    8.1323    0.1120  -17.0048 H   0  0  0  0  0  0  0  0  0  0  0  0
    6.6783    0.5797  -16.0595 H   0  0  0  0  0  0  0  0  0  0  0  0
    6.5294   -0.5846  -17.4193 H   0  0  0  0  0  0  0  0  0  0  0  0
    5.6211    8.4279  -23.1471 H   0  0  0  0  0  0  0  0  0  0  0  0
    6.9032    7.4082  -22.4103 H   0  0  0  0  0  0  0  0  0  0  0  0
    5.2111    7.2900  -21.8191 H   0  0  0  0  0  0  0  0  0  0  0  0
    6.9208   10.5119  -22.6861 H   0  0  0  0  0  0  0  0  0  0  0  0
    7.5237   10.8578  -21.0299 H   0  0  0  0  0  0  0  0  0  0  0  0
    8.2432    9.5181  -21.9861 H   0  0  0  0  0  0  0  0  0  0  0  0
    4.6371   10.3502  -21.8842 H   0  0  0  0  0  0  0  0  0  0  0  0
    4.1749    9.2268  -20.5610 H   0  0  0  0  0  0  0  0  0  0  0  0
    5.1557   10.6873  -20.1979 H   0  0  0  0  0  0  0  0  0  0  0  0
    4.1644    2.5525  -21.4187 H   0  0  0  0  0  0  0  0  0  0  0  0
    3.3746    1.5569  -20.1492 H   0  0  0  0  0  0  0  0  0  0  0  0
    5.3460    3.9331  -17.0146 H   0  0  0  0  0  0  0  0  0  0  0  0
    6.0405    4.9117  -18.3513 H   0  0  0  0  0  0  0  0  0  0  0  0
    6.0160    3.1043  -19.9151 H   0  0  0  0  0  0  0  0  0  0  0  0
    3.3866    3.3754  -18.3671 H   0  0  0  0  0  0  0  0  0  0  0  0
    4.7531    1.2985  -17.8725 H   0  0  0  0  0  0  0  0  0  0  0  0
    3.6789    5.4545  -16.7323 H   0  0  0  0  0  0  0  0  0  0  0  0
    3.9020    6.1783  -18.1791 H   0  0  0  0  0  0  0  0  0  0  0  0
    3.3244    4.1945  -20.5586 H   0  0  0  0  0  0  0  0  0  0  0  0
  1  2  2  0
  1  3  1  0
  2  8  1  0
  3  9  2  0
  4  8  2  0
  4  9  1  0
  5 10  2  0
  5 11  1  0
  6 10  1  0
  6 12  2  0
  7 11  2  0
  7 12  1  0
  8 17  1  0
  9 26  1  0
 10 22  1  0
 11 31  1  0
 12 32  1  0
 13 18  1  0
 13 27  1  0
 13 29  2  0
 14 15  1  0
 14 16  1  0
 15 17  1  0
 16 17  1  0
 17 28  1  0
 19 26  1  0
 20 26  1  0
 21 26  1  0
 22 24  1  0
 23 25  1  0
 23 28  1  0
 24 25  1  0
 24 27  1  0
 25 30  1  0
  1 33  1  0
  2 34  1  0
  3 35  1  0
  4 36  1  0
  5 37  1  0
  6 38  1  0
  7 39  1  0
 14 40  1  0
 14 41  1  0
 15 42  1  0
 15 43  1  0
 16 44  1  0
 16 45  1  0
 18 46  1  0
 18 47  1  0
 18 48  1  0
 19 49  1  0
 19 50  1  0
 19 51  1  0
 20 52  1  0
 20 53  1  0
 20 54  1  0
 21 55  1  0
 21 56  1  0
 21 57  1  0
 22 58  1  0
 22 59  1  0
 23 60  1  0
 23 61  1  0
 24 62  1  6
 25 63  1  1
 27 64  1  0
 28 65  1  0
 28 66  1  0
 30 67  1  0
M  CHG  1  28   1
M  END
>  <OMEGA_C>  (29) 
iGUJQSCO70BJHpTBRkj1QPfV4UCFXIzBWVMCQRp3AkFMXZ3B8xu7QPiy/kCWKZfB34DNQO4cWz84
mazBjkOUQN0gHb8JW6bB4RnWQNddyL/Llq3BoxzJQHDX6UAex43BEIvYQIyzBkFt9J7Bt3+kQFyP
Lz89CajBvGLmQJifib6CSK/Bl/OsQLdX3r9IMKnBGorZQOwOvD/GKpDB89OtQASZ+0Ca8m7BKRO1
QFqdzEDIA3XBQIeMQHhY/EDFfoDB8t6mQB/D2ECcDobBe6zhQEyYoD5HeYjB9Fe/QB4Z/0AYs7HB
aBLqQIYFIUGGGK7Bl9GeQNtUHkECf6fBet+KQG5B8j9Ac6TBUXOjQLSokkCp9I7BPoKjQN0JK0C9
uZvBKVKIQKF+c0DiCZfBy3rIQN1IEUHsY6nB6JCvQDMA4D/sC5PBKpSLQPpGuEDtK4vB4+L3QCBd
AEBKrJTBiGp2QHiwlUAjdZ/BhgQHQaIC1r0labPBuU2dQIbPPsBhlqfBbUQaQe2l6UDc+JLBxisA
Qbor0UC5UIXBrM4NQbN+B0G/T6PBF0SZQJTFAUErbZjBnMXZQMTA7D8oB67BtsVpQGw+P78L5aLB
EirpQFxlG8Dxqa/BHdSgQBdgAEHHy17Bp5XJQClVCEGXb3HB+G3WQEm0wUALpnPB++CfQNnEtUDz
1GzBCTxYQDGt8kB6HXzB1d6KQIhVDUHz8YTB4x0CQelr5T3dCYjBlLTVQFBnFD/0eYDB0/DQQJ2q
Fb+lWovBvt+zQKTYBkE2LbnBzubcQBAQ7UBRSLPBRcGmQPNH6UB3ja7B+3bdQKgwKEEvfbXBRcLw
QIm5LUEsPajB/uMDQS5KGEFz46/B7WKUQEmaJUHhEq/B8piFQBmhE0HtfKTBZvukQBT/KkE7laHB
30KFQJVbI0CWWavBP/lXQD5Hxz+pMaHBkBKrQKS4e0DaHYjBs0vBQJ8snUByz5LBOYPAQJatRkAq
Up/Bkr5YQBsGWEC575LBmRmYQKEzpj/3+o7BCnNrQKGLrkC824XBJrp5QDq0xUC4bpHBcsNUQDU5
hkAUeKTBNxYJQSHy70C3NpTB+OH0QFwD4kDjbozBrtwBQW+PAkH3dJ3B6k26QGo5/kAJNZfBRg+U
QEUXIb/3KabBPNzMQGPtWD+Pi6zBCArWQKxOyb/1Y63BPp/IQA6I6UBA1Y3BFIbXQHWYBkH8A5/B
avijQBMvLD/97afBxgStQEr037/h7KjBovrlQJc/jL6tLq/B1kTZQG9Auj/jN5DBcKqvQPiE+0A6
BG/BNne1QOBIzEBjCnXBXD+NQN6Q/EAPSIDBOqymQJix2EAZAobBzozhQHMUsT4JGojBipe+QPDf
/kC8xbHB/mPoQPMzIUEUDq7BCCqdQAjmHUFUhKfBQECKQGtU8D+2U6TBmjCiQCgokkADsY7BvAWj
QCuiKkCmqpvBLvuHQEYndEBNIpfBWjPHQB8qEUFLbKnBbC+vQKNR4D8X7ZLBYs6KQH1xuECaEIvB
0o73QOg0/D/O55TBL3Z6QBuflkBbo5/B1MmdQNq7P8DIKqfBHMoGQWZk1L1qU7PBm/0ZQVhc6kDN
FpPBjxYAQcaN0UBLYYXBnEINQQ+rB0FsbaPBCmeYQOhdAUFDc5jB5G9pQNE6RL87saLBJN3YQMPV
6z9hDa7BGUPpQOG0G8B6cK/BP82jQFOZAEH+sF7B0K7LQM76B0FMB3LBcJLWQCKEwECD+nPBrQGg
QFwOtkCjm2zBURtaQLMz80AbNHvBylWLQPZvDUEdu4TBBBICQQR9HD5XlIfBg3rVQGjOJz8ZN4DB
Ef7QQCUkEr/Ep4rBA/CyQI23BkFfPLnBSWjcQL1J7UB6XrPBeE6mQCqo6EBWp67BI6nbQI9fKEFB
b7XB7qTuQOngLUFKJ6jBOy8DQYu1GEGG2q/BzpOSQC0qJUETFa/BUDqEQAD+EkE9i6TBRe6iQCuN
KkGFkqHBiFKEQPkhIkA0PKvBJQpXQDXoxD/AAKHBa/6nQJLteUAN0YfBi/rAQHDwm0CgL5LBigzA
QKCoRUCvUp/BWOtVQEjXWUARZZPBSsqXQB4gqT86so7B1U1pQEljr0ApwYXB0Pl4QD7PxUAbZJHB
ZPlZQFDDh0Ab4aTBFh0JQbyw70BwS5TBiAn1QEfQ4UD4eYzB8tUBQXZnAkHziZ3BF1a6QD6//UAK
QZfBdd7MQFZBXD/jiKzB5P2TQAbFHr9NQKbBsRPWQMaJx79Lda3BJ8HIQKJO6UAW2Y3Bl27XQF1c
BkGFFp/BOfKjQHDDLj8U8qfBGQLmQKOmhL6MM6/BE/usQJeQ3r/IC6nBJgLZQJYMsj8sopDBxm2u
QDyM+kDBkG7BJmm1QO/My0BGE3XB3EmNQBZ9/EAqVIDBTsemQMCS2EB9AobB5xrhQOttrT73CYjB
u7zoQA8JIEGXhq7B0C+eQFucHkG2WKfBu7i7QO5J/kBon7HBAziKQB1e8T/nUKTBOiiiQPsLkkDs
n47BBP+iQNzXKkCYoZvBNASIQB5adEAgGpfBjtLGQJrpEEGgeqnBxAivQDlB4D+N6JLBkOGKQKN2
uECBEovBZG73QG3k+z9FxpTBExR7QGzYlkDbmZ/BnMsGQSd9sL2CWLPB/rOdQIUhP8DlYafBKgYa
QdsZ6kBJMpPBzDYAQeRt0UAWbIXBojQNQVSMB0Hgg6PBpGiYQEYGAUHQf5jBEuHYQCCe7T+q/63B
uDZpQAl1Qr9Tz6LB513pQEa8GsAJga/BzlGhQGUc/0BEZF7Bj2PKQPy8B0GQwnDBhcTWQB/IwEC7
9nPBS1WgQArAtECp9WzBZkRZQLx380Am4XvB3mSMQOOIDUFOroTBtN4BQQgKdj4XrobBZWDRQEj1
JD8+joDBbwfUQB+zIL8KrorBmbPbQB4xJ0ES4LXBWs/wQFPJLEE+zqjBXdwCQarVFkGyd7DBzkCT
QAzdJUFi4q7BXbyEQD1aFEFfFaTBnc+lQGdPK0FEj6HBotqvQJlzBkHvDrnBfozYQLpR60CwW7PB
Td2iQPxX6UDmPq7BQk+EQFLbIkCpNKvByfRWQOzIxT91AaHBWpmnQLO0eUBHu4fBFh/BQJ2Zm0C/
D5LBXBTAQODJRUDBRJ/BQsJVQJsqWkDDZ5PBM7WXQJ0Xrz8EYI7BNhppQE+Zr0C0yYXBAZN5QPDQ
xUCAbpHBzqVaQB8biEBg3qTBR5EJQYGw7UA4I5TBoEn1QDTC4EDsX4zBeMACQTaJAUHsbZ3BT8m7
QHNI/kDKSJfBSTqVQD5aFL+bmabByIfOQEZlZT9JtqzBwWbXQPQuw78NsK3BPk3JQDyj6UD30o3B
wJLZQI0fBkEdE5/BAWylQDLEOD+MOajBziOuQCes2b+5XKnBoI/nQHDUZ77/X6/BOGDaQJ+quj+e
YJDBE7qrQLWy+0C+k27BPEW0QA5DzUDxDnXBIIuMQL/G/UAbvIDBQp2mQNOC2UDOG4bB7ZbiQDuU
qD5IbojBImvsQK4pIEFZN67BXvugQJJbHkETp6fBYCzAQH1c/kCU07HBdb+LQAJf9j9AlKTB06ei
QHHIkkD2r47BRuujQMEaLEAdq5vBE/SHQD7SckC/x5bBKg3KQIjUEEF2hqnBnFGwQDiu3z/DJZPB
rROLQGEjuUAxMYvBxLH4QMZI/z9V5pTBBFtzQMtPlUC7FZ/BNZWeQAyOPMA7w6fBkpgHQYzmbL1x
gLPBTF8aQfsp50CW9ZLBSfP/QI4I0ECiTIXByFwOQT1MBkF4XqPBMAqaQGTEAUFem5jBrWRrQEY3
N78cPKPBPsXaQEsN8j/yGa7BoqTqQGWuGMDDta/BTNWcQOer/0AiwV7Bu4vHQBqNCEFw5m/BXdbV
QNskw0CZe3PBuGCfQJWjtUB/PW3BX7lWQBAl9UD5e33BhNeMQB0oDkF1HIXBBpoCQf97Ej482YfB
OhvWQMlYHT+dhoDBBl/SQEWRFb+zL4vBSzzgQL9zJ0HSn7XB453zQKnNLEEFXajBrt4EQQIWF0HE
+q/BOeeWQEC2JUF5Pa/BzUWHQEz1E0Emo6TBB7SnQLz5KkGWwKHBVhS1QMuVBkEDULnBQ1TdQNmo
60BoZLPBJRWnQAoe6UChrq7BUpWGQEY8JkDYa6vB7k1ZQEf+yj/AeKHBnHOpQI/zfEAAtIfBt/DA
QNiTnED4cZLBFLvAQNxxSUDeJZ/BoihZQFRoVUCApZLB7fmYQC/CpD+OGY/BKFlpQNkxsEB474XB
TRx6QDNUxkAklZHBq0BSQPGRhUCVGaTB

>  <OMEGA_E>  (29) 
wGa9PSA4vj0An8U9IOviPQ==

>  <OMEGA_NBR>  (29) 
    106583

$$$$
50168375
     RDKit          3D

 64 66  0  0  1  0  0  0  0  0999 V2000
    8.6106    7.4277  -18.4455 C   0  0  0  0  0  0  0  0  0  0  0  0
    7.6477    7.0229  -17.5087 C   0  0  0  0  0  0  0  0  0  0  0  0
    8.2176    8.0811  -19.6280 C   0  0  0  0  0  0  0  0  0  0  0  0
    5.8872    7.9038  -18.9511 C   0  0  0  0  0  0  0  0  0  0  0  0
    6.4530    0.8650  -21.5856 C   0  0  0  0  0  0  0  0  0  0  0  0
    4.6532   -0.6180  -20.8583 C   0  0  0  0  0  0  0  0  0  0  0  0
    6.7448   -1.5537  -21.7004 C   0  0  0  0  0  0  0  0  0  0  0  0
    6.2835    7.2679  -17.7593 C   0  0  0  0  0  0  0  0  0  0  0  0
    6.8478    8.3538  -19.8882 C   0  0  0  0  0  0  0  0  0  0  0  0
    5.1578    0.6865  -21.0507 C   0  0  0  0  0  0  0  0  0  0  0  0
    7.2494   -0.2532  -21.8963 C   0  0  0  0  0  0  0  0  0  0  0  0
    5.4450   -1.7360  -21.1879 C   0  0  0  0  0  0  0  0  0  0  0  0
    6.7291    1.4176  -18.0380 C   0  0  0  0  0  0  0  0  0  0  0  0
    4.6035    7.7887  -15.8470 C   0  0  0  0  0  0  0  0  0  0  0  0
    5.5010    6.6539  -15.3087 C   0  0  0  0  0  0  0  0  0  0  0  0
    5.2155    6.7744  -16.8116 C   0  0  0  0  0  0  0  0  0  0  0  0
    6.9433    0.3011  -17.0211 C   0  0  0  0  0  0  0  0  0  0  0  0
    5.1395    9.9219  -20.9714 C   0  0  0  0  0  0  0  0  0  0  0  0
    6.0447    7.9212  -22.2275 C   0  0  0  0  0  0  0  0  0  0  0  0
    4.3449    1.8915  -20.6129 C   0  0  0  0  0  0  0  0  0  0  0  0
    5.0230    4.5574  -17.8521 C   0  0  0  0  0  0  0  0  0  0  0  0
    7.5294    9.9268  -21.7933 C   0  0  0  0  0  0  0  0  0  0  0  0
    5.0913    2.6692  -19.5009 C   0  0  1  0  0  0  0  0  0  0  0  0
    4.2418    3.8286  -18.9566 C   0  0  2  0  0  0  0  0  0  0  0  0
    6.3969    9.0287  -21.2062 C   0  0  0  0  0  0  0  0  0  0  0  0
    5.4279    1.7451  -18.4029 N   0  0  0  0  0  0  0  0  0  0  0  0
    4.3159    5.7833  -17.4289 N   0  0  0  0  0  0  0  0  0  0  0  0
    7.6992    1.9169  -18.5987 O   0  0  0  0  0  0  0  0  0  0  0  0
    3.9731    4.7340  -20.0271 O   0  0  0  0  0  0  0  0  0  0  0  0
    8.5045   -0.0781  -22.3675 F   0  0  0  0  0  0  0  0  0  0  0  0
    4.9667   -2.9855  -20.9915 F   0  0  0  0  0  0  0  0  0  0  0  0
    7.1081   10.6151  -22.8863 F   0  0  0  0  0  0  0  0  0  0  0  0
    9.6571    7.2372  -18.2583 H   0  0  0  0  0  0  0  0  0  0  0  0
    7.9512    6.5255  -16.5994 H   0  0  0  0  0  0  0  0  0  0  0  0
    8.9666    8.3791  -20.3468 H   0  0  0  0  0  0  0  0  0  0  0  0
    4.8364    8.0503  -19.1530 H   0  0  0  0  0  0  0  0  0  0  0  0
    6.8329    1.8615  -21.7565 H   0  0  0  0  0  0  0  0  0  0  0  0
    3.6599   -0.7590  -20.4583 H   0  0  0  0  0  0  0  0  0  0  0  0
    7.3546   -2.4114  -21.9431 H   0  0  0  0  0  0  0  0  0  0  0  0
    3.5216    7.7757  -15.6484 H   0  0  0  0  0  0  0  0  0  0  0  0
    4.9653    8.8275  -15.8384 H   0  0  0  0  0  0  0  0  0  0  0  0
    6.5036    6.8822  -14.9179 H   0  0  0  0  0  0  0  0  0  0  0  0
    5.0599    5.8305  -14.7279 H   0  0  0  0  0  0  0  0  0  0  0  0
    8.0187    0.0884  -16.9304 H   0  0  0  0  0  0  0  0  0  0  0  0
    6.5480    0.6146  -16.0437 H   0  0  0  0  0  0  0  0  0  0  0  0
    6.4174   -0.6053  -17.3557 H   0  0  0  0  0  0  0  0  0  0  0  0
    4.8389   10.3896  -21.9206 H   0  0  0  0  0  0  0  0  0  0  0  0
    4.3147    9.3011  -20.5914 H   0  0  0  0  0  0  0  0  0  0  0  0
    5.3780   10.7047  -20.2364 H   0  0  0  0  0  0  0  0  0  0  0  0
    5.7214    8.3824  -23.1724 H   0  0  0  0  0  0  0  0  0  0  0  0
    6.9307    7.2952  -22.4095 H   0  0  0  0  0  0  0  0  0  0  0  0
    5.2316    7.2981  -21.8267 H   0  0  0  0  0  0  0  0  0  0  0  0
    4.1864    2.5550  -21.4757 H   0  0  0  0  0  0  0  0  0  0  0  0
    3.3721    1.5521  -20.2277 H   0  0  0  0  0  0  0  0  0  0  0  0
    5.1327    3.8876  -16.9864 H   0  0  0  0  0  0  0  0  0  0  0  0
    6.0182    4.8290  -18.2339 H   0  0  0  0  0  0  0  0  0  0  0  0
    7.8520   10.6430  -21.0233 H   0  0  0  0  0  0  0  0  0  0  0  0
    8.3786    9.2886  -22.0793 H   0  0  0  0  0  0  0  0  0  0  0  0
    6.0171    3.0830  -19.9271 H   0  0  0  0  0  0  0  0  0  0  0  0
    3.3065    3.4289  -18.5376 H   0  0  0  0  0  0  0  0  0  0  0  0
    4.6765    1.3294  -17.8905 H   0  0  0  0  0  0  0  0  0  0  0  0
    3.6115    5.5332  -16.7646 H   0  0  0  0  0  0  0  0  0  0  0  0
    3.8857    6.1975  -18.2309 H   0  0  0  0  0  0  0  0  0  0  0  0
    3.4901    4.2834  -20.7099 H   0  0  0  0  0  0  0  0  0  0  0  0
  1  2  2  0
  1  3  1  0
  2  8  1  0
  3  9  2  0
  4  8  2  0
  4  9  1  0
  5 10  2  0
  5 11  1  0
  6 10  1  0
  6 12  2  0
  7 11  2  0
  7 12  1  0
  8 16  1  0
  9 25  1  0
 10 20  1  0
 11 30  1  0
 12 31  1  0
 13 17  1  0
 13 26  1  0
 13 28  2  0
 14 15  1  0
 14 16  1  0
 15 16  1  0
 16 27  1  0
 18 25  1  0
 19 25  1  0
 20 23  1  0
 21 24  1  0
 21 27  1  0
 22 25  1  0
 22 32  1  0
 23 24  1  0
 23 26  1  0
 24 29  1  0
  1 33  1  0
  2 34  1  0
  3 35  1  0
  4 36  1  0
  5 37  1  0
  6 38  1  0
  7 39  1  0
 14 40  1  0
 14 41  1  0
 15 42  1  0
 15 43  1  0
 17 44  1  0
 17 45  1  0
 17 46  1  0
 18 47  1  0
 18 48  1  0
 18 49  1  0
 19 50  1  0
 19 51  1  0
 19 52  1  0
 20 53  1  0
 20 54  1  0
 21 55  1  0
 21 56  1  0
 22 57  1  0
 22 58  1  0
 23 59  1  6
 24 60  1  1
 26 61  1  0
 27 62  1  0
 27 63  1  0
 29 64  1  0
M  CHG  1  27   1
M  END
>  <OMEGA_C>  (30) 
OMUJQRCw7UBokJPBprn0QFG74EDJEYzBYXsDQSpMAUERBp3BTmS8QEHs/EDam5fBCX/OQFlyXT9h
r6zB2OaUQOYzHr/D3abBz9XXQJ/fxr9ymq3BEhLJQKqS6EASE47B9CDbQBipBUEUG5/BGQ2lQCC/
Lz/mZ6jBxvrnQBKegb6dK6/BQj2uQDg23r/cgKnBHVXXQHV1tT/ATZDBnk+TQEI9+UBkjX3Bfwiw
QA/t1EBh8HTBKuWmQPrH2EASfobBvC/eQLokmj47K4jBl3akQAXAHkF/xafBL27BQER6/UD80bHB
zgmLQF0b8j8k56TBW7ygQNrVkUAO0Y7BMPHwQAjUHkHCWK7BU+yiQKvTKkC+AZzBgbyHQBsIdUAF
p5fBDbPMQHt1EEFSpqnBabGtQLBg3z8fOZPBAByKQKkQuUBObovBsF/2QHtd9T8mypTByEZ+QAt9
l0B/N6DBnxIIQXLjn72d8LLBEO+eQLQSP8CS7qfBcHXjQGvXKUEQF7fBboMaQSCX50DuEJLBLnD+
QMrQ0EB6y4TBG3cPQZwQBkEvxqLBL8SaQCLOAEFfOZnBGafaQCxE7j9pDa7BbjxqQL5LQr+TqqPB
zVjrQOFUGsCKi6/BXGJhQGfS+EDWX3rBIOSeQEk9DUEean3Brh3QQFw73EDPr27BvOqhQDGTukCH
pWvBzEwAQYD9tD1rcYfB9ojRQLlYHT92WYDBU1vNQMLyGr+G2IrBYdiaQNE7JkFeXa/BIxKKQH/R
FEEau6TB5BisQIxGK0Ex5KHBtBW3QCweBkEUYbnBnMjdQHRy6UCwRrPBXGmnQNSJ6UArna7BVPeF
QOGFI0BIzqvBC9BXQL6rxj9M0qHByD6kQDXOeEAr5IfBAJXAQByHmkAO35HBv0P7QJpJKkGsL6jB
jA4GQReeFEFUorDBXIzAQBNPRUC+ap/BE55TQBFzW0DtTJTB+qWVQOsqqj+lH4/BlSJnQJ4PsUDy
HYbBia94QCNSxkD12JHBmV1fQIoRiUDMraXBR10HQZ0E8EBITpTB7YzxQBck4kAzgIzBOAAAQTta
AkE+mp3BkJG2QDbl/EC7aJfB8uvNQDh0aj92O63BKu2VQOcAGr9/BKfBSl/YQOK6v7/oWq7BrF7F
QMXA6EA1CY7Biq3TQM0mBkH+Lp/BCyilQMAmNj/doKjBYJnnQKJlQL4CA7DBm3OvQF0c2r/W6anB
7kbaQMr4sj+yMZHBUDiRQAwq90CaaXzBQwuwQDT+00CFcnTBG/CkQD2n10CuJIbBVkfjQEOioj77
4IjB/je4QC4S/0DGyLHBsSTlQIxUIEHLZq7BAu2KQMKr8j/y0aTBkDygQK6MkEB+ao7BpzmaQBec
HkFHYKfBUA+jQPqjKkAz7ZvB9e2GQFB3cUCZGJfBQx/DQLoLEUGofqnBV/qvQNjM3D+PcZPBXbCI
QBjrtkA+04rByCj4QMThAUDaEJXByNR2QG3vlUD5ZJ/BAokHQeDfHjxTJ7TBHOWgQLx+PcBlSajB
vFOhQAE9LUF+g5/BZ0sYQUbM6kCpK5PBEu38QK900kCtWIXBY1cLQeV0B0HrmaPBPJeUQClRAEGT
rpjBS2fZQNG09T8Yn67Bi1VtQOPXQr+Rj6PBOxHsQMcIFsBrfbDBmtNdQDVM9UCylXjB8W2bQPJs
DEGeZ3zBokDQQI6Q3EBZyW7BfryjQN8CuUBt92rB3/gCQbpjgj7Rb4fBJ9bSQHTpET9AXYHBNInX
QKSwJr9/1ovBXWOsQIsQB0EHK7nBwx7VQLlM7ECLk7PBGmOfQKzW6UBdgq7BSy/YQAC9J0F0srXB
FzLtQFXiLEFXkqjB3w8BQe8tF0GiZ7DB2wOFQN2fJEDGmavBdGVYQKR/xD9YpKHB9DqlQIQtdkCl
jYfB5Wu/QAJVmkAGr5HBqDGRQA8EJ0E8xa7BFAiAQAntE0EL7KTBEba/QCI+SEAudJ/BHYdUQFV4
VECDf5PB6f6YQOoBpj8JDo/BxXJmQCMarkACUYXBIhZzQA2lw0AAHZHB2oFXQL40h0B4xKTBaZsI
Qfo+60A3MZXBX6TzQNNf30DxRY3BGZEBQeh5/0Bsnp7BmKW5QHLE+0DVP5jB7xnNQJbsOj9lwKzB
yGCTQDzQNL9XTabBmdLUQMYy2b9mba3B7sLHQCWp50Ah0Y7ByiPXQO5uBEG0MKDBpg6kQOrIFT/A
J6jBDYTlQNzF0b6JUq/BzLGrQOQg7L/P9qjBg9jZQDLOsT/GrJDBzS+TQLpJ+ECdc37BpU2xQKXz
1EDE+XXB5LmmQALU10By8YbBKG3iQCr5nD63WojBC27pQOzSHUFVmK/Bq1WeQIKAHEH55KjB0teK
QPm25z/FtKTBAhahQEj/j0Cg0o7Bili9QGSf+UC99bLBgkWjQHl4JkCD+JvB2YmHQDPfbkBlV5fB
fSfHQBywDkHsuKrBp6+vQE8J1z+XUpPBXCCKQMs6t0BzkYvBzLf3QOZnA0BNLpTBG0R4QK/Jk0C9
0p/BE5EGQQzfib7EhrPBX8WbQHsnRcDgHKfB4EyfQIr33UBbL6/BtW4ZQWvW5EBFDJTBs3z+QKP1
z0D4B4bBswgNQXj5A0GsuaTBeN2XQDGjAEHKcZnBbMbZQLes2z/KS67BA91nQPxPUr+21qLB0Y7n
QBmBJMB+Za/BDY9hQHUd90DByHrBbu2dQPvmDEHfu37BKIjRQDc+3UBOPXDBQGKkQLaNukAxSmzB
rm0CQYPriz48i4bBSXrQQBiqCD+CAYHBwx/YQKMhK7+KgovBaRzdQMrWJEEbDrfBjcHwQL6tKkHE
3qnBZloDQVmsFEEPT7HBovuTQNV/I0EHi7DBKZ6EQO1eEkGcqaXBvI+lQCVlKUHoLqPBtcGFQK2M
HUCZrqvBf2hXQDm/vj/nf6HB1pqlQJS7dkBiyIfBGnzAQAfVmECBIZLBhnuxQMorBEENYrrBtfPa
QFfR50B1pbTBIh3AQF2qQkB6lJ/BwJhVQLsbU0BioZPBIm+YQOKAnj/QHI/BNiNoQNBnr0DHHIbB
tXZ3QGarw0AwAJLB6KxYQGCUhEBbFqXB

>  <OMEGA_E>  (30) 
oJF9PvwphT6wgFo+

>  <OMEGA_NBR>  (30) 
    109980

$$$$
50168363
     RDKit          3D

 66 67  0  0  1  0  0  0  0  0999 V2000
    8.5290    7.4124  -18.5065 C   0  0  0  0  0  0  0  0  0  0  0  0
    8.0942    8.0340  -19.6896 C   0  0  0  0  0  0  0  0  0  0  0  0
    7.6027    7.0285  -17.5234 C   0  0  0  0  0  0  0  0  0  0  0  0
    5.7895    7.8468  -18.9339 C   0  0  0  0  0  0  0  0  0  0  0  0
    6.4749    0.8486  -21.6009 C   0  0  0  0  0  0  0  0  0  0  0  0
    4.6684   -0.6182  -20.8582 C   0  0  0  0  0  0  0  0  0  0  0  0
    6.7446   -1.5742  -21.7145 C   0  0  0  0  0  0  0  0  0  0  0  0
    6.7183    8.2941  -19.9057 C   0  0  0  0  0  0  0  0  0  0  0  0
    6.2189    7.2470  -17.7250 C   0  0  0  0  0  0  0  0  0  0  0  0
    5.1817    0.6819  -21.0562 C   0  0  0  0  0  0  0  0  0  0  0  0
    7.2575   -0.2784  -21.9207 C   0  0  0  0  0  0  0  0  0  0  0  0
    5.4483   -1.7436  -21.1893 C   0  0  0  0  0  0  0  0  0  0  0  0
    6.7864    1.3785  -18.1154 C   0  0  0  0  0  0  0  0  0  0  0  0
    7.0241    0.3166  -17.0463 C   0  0  0  0  0  0  0  0  0  0  0  0
    5.9919    7.8645  -22.2755 C   0  0  0  0  0  0  0  0  0  0  0  0
    7.2842    9.9710  -21.7618 C   0  0  0  0  0  0  0  0  0  0  0  0
    4.9161    9.7581  -21.0042 C   0  0  0  0  0  0  0  0  0  0  0  0
    5.7588    6.1540  -15.4133 C   0  0  0  0  0  0  0  0  0  0  0  0
    4.2795    7.9705  -16.2776 C   0  0  0  0  0  0  0  0  0  0  0  0
    4.3744    1.8921  -20.6167 C   0  0  0  0  0  0  0  0  0  0  0  0
    5.0267    4.5575  -17.8479 C   0  0  0  0  0  0  0  0  0  0  0  0
    5.1126    2.6706  -19.4984 C   0  0  1  0  0  0  0  0  0  0  0  0
    4.2362    3.7993  -18.9243 C   0  0  2  0  0  0  0  0  0  0  0  0
    6.2350    8.9620  -21.2155 C   0  0  0  0  0  0  0  0  0  0  0  0
    5.1602    6.7717  -16.7103 C   0  0  0  0  0  0  0  0  0  0  0  0
    5.4781    1.7401  -18.4155 N   0  0  0  0  0  0  0  0  0  0  0  0
    4.2968    5.7680  -17.3929 N   0  0  0  0  0  0  0  0  0  0  0  0
    7.7442    1.9594  -18.6151 O   0  0  0  0  0  0  0  0  0  0  0  0
    3.8921    4.6953  -19.9796 O   0  0  0  0  0  0  0  0  0  0  0  0
    8.5072   -0.1173  -22.4115 F   0  0  0  0  0  0  0  0  0  0  0  0
    4.9598   -2.9878  -20.9849 F   0  0  0  0  0  0  0  0  0  0  0  0
    9.5821    7.2288  -18.3525 H   0  0  0  0  0  0  0  0  0  0  0  0
    8.8161    8.3162  -20.4417 H   0  0  0  0  0  0  0  0  0  0  0  0
    7.9473    6.5651  -16.6107 H   0  0  0  0  0  0  0  0  0  0  0  0
    4.7321    7.9656  -19.1189 H   0  0  0  0  0  0  0  0  0  0  0  0
    6.8639    1.8414  -21.7724 H   0  0  0  0  0  0  0  0  0  0  0  0
    3.6763   -0.7502  -20.4524 H   0  0  0  0  0  0  0  0  0  0  0  0
    7.3452   -2.4378  -21.9590 H   0  0  0  0  0  0  0  0  0  0  0  0
    8.1040    0.2161  -16.8624 H   0  0  0  0  0  0  0  0  0  0  0  0
    6.5199    0.6146  -16.1152 H   0  0  0  0  0  0  0  0  0  0  0  0
    6.6197   -0.6468  -17.3902 H   0  0  0  0  0  0  0  0  0  0  0  0
    5.6476    8.3281  -23.2117 H   0  0  0  0  0  0  0  0  0  0  0  0
    6.9290    7.3188  -22.4596 H   0  0  0  0  0  0  0  0  0  0  0  0
    5.2260    7.1649  -21.9096 H   0  0  0  0  0  0  0  0  0  0  0  0
    6.9082   10.4251  -22.6905 H   0  0  0  0  0  0  0  0  0  0  0  0
    7.4599   10.7582  -21.0139 H   0  0  0  0  0  0  0  0  0  0  0  0
    8.2274    9.4437  -21.9675 H   0  0  0  0  0  0  0  0  0  0  0  0
    4.6072   10.2160  -21.9555 H   0  0  0  0  0  0  0  0  0  0  0  0
    4.1282    9.0756  -20.6530 H   0  0  0  0  0  0  0  0  0  0  0  0
    5.0797   10.5461  -20.2543 H   0  0  0  0  0  0  0  0  0  0  0  0
    4.9428    5.8416  -14.7450 H   0  0  0  0  0  0  0  0  0  0  0  0
    6.3742    5.2803  -15.6737 H   0  0  0  0  0  0  0  0  0  0  0  0
    6.3827    6.9035  -14.9045 H   0  0  0  0  0  0  0  0  0  0  0  0
    3.5249    7.6293  -15.5537 H   0  0  0  0  0  0  0  0  0  0  0  0
    4.9120    8.7408  -15.8121 H   0  0  0  0  0  0  0  0  0  0  0  0
    3.7765    8.3931  -17.1598 H   0  0  0  0  0  0  0  0  0  0  0  0
    4.2233    2.5573  -21.4797 H   0  0  0  0  0  0  0  0  0  0  0  0
    3.3981    1.5558  -20.2377 H   0  0  0  0  0  0  0  0  0  0  0  0
    5.1883    3.8921  -16.9870 H   0  0  0  0  0  0  0  0  0  0  0  0
    5.9986    4.8608  -18.2644 H   0  0  0  0  0  0  0  0  0  0  0  0
    6.0241    3.1150  -19.9247 H   0  0  0  0  0  0  0  0  0  0  0  0
    3.3335    3.3626  -18.4721 H   0  0  0  0  0  0  0  0  0  0  0  0
    4.7424    1.3460  -17.8647 H   0  0  0  0  0  0  0  0  0  0  0  0
    3.8792    6.2025  -18.1909 H   0  0  0  0  0  0  0  0  0  0  0  0
    3.5808    5.4831  -16.7555 H   0  0  0  0  0  0  0  0  0  0  0  0
    3.4031    4.2273  -20.6462 H   0  0  0  0  0  0  0  0  0  0  0  0
  1  2  2  0
  1  3  1  0
  2  8  1  0
  3  9  2  0
  4  8  2  0
  4  9  1  0
  5 10  2  0
  5 11  1  0
  6 10  1  0
  6 12  2  0
  7 11  2  0
  7 12  1  0
  8 24  1  0
  9 25  1  0
 10 20  1  0
 11 30  1  0
 12 31  1  0
 13 14  1  0
 13 26  1  0
 13 28  2  0
 15 24  1  0
 16 24  1  0
 17 24  1  0
 18 25  1  0
 19 25  1  0
 20 22  1  0
 21 23  1  0
 21 27  1  0
 22 23  1  0
 22 26  1  0
 23 29  1  0
 25 27  1  0
  1 32  1  0
  2 33  1  0
  3 34  1  0
  4 35  1  0
  5 36  1  0
  6 37  1  0
  7 38  1  0
 14 39  1  0
 14 40  1  0
 14 41  1  0
 15 42  1  0
 15 43  1  0
 15 44  1  0
 16 45  1  0
 16 46  1  0
 16 47  1  0
 17 48  1  0
 17 49  1  0
 17 50  1  0
 18 51  1  0
 18 52  1  0
 18 53  1  0
 19 54  1  0
 19 55  1  0
 19 56  1  0
 20 57  1  0
 20 58  1  0
 21 59  1  0
 21 60  1  0
 22 61  1  6
 23 62  1  1
 26 63  1  0
 27 64  1  0
 27 65  1  0
 29 66  1  0
M  CHG  1  27   1
M  END
>  <OMEGA_C>  (31) 
pnYIQTMy7UBhDZTBxIEBQSaLAEFnhJ3Bl0nzQCnp4EDlL4zBwkO5QNsY+0CueJfBfDLPQMA+WT+9
zqzBmGOVQHtCHr+y3abBxtPXQCp/yb9Bt63BUfzWQMW0BEHTPp/B7ADHQJXn50DQzI3BNdClQMqS
Lj8nc6jBYj3oQHaHjr6OXa/BY1iuQPQu37+3g6nBICrZQA5xsD9C7JDBtcXgQMYYoj7WXojBcr2/
QFGq+0AiNLLBfBjpQFSJH0E9GK7Bu1CdQF8hHEGmCKjBsEe4QKTtxED+nHbB6/GIQIsO/0BzOILB
BPuLQMYv8j8Y76TBtdqgQEjXkUB9yI7BmZqjQLbrKkC1/JvB646HQM0nc0ANZZfBvoTHQI1kD0FK
uanBHiClQA6y2EDGroXB10yvQNu73j/3UpPBnn+JQH2TuECaJIvBMdD3QIzO+j/O65TB7hh5QANA
lkBS1p/Bhh0IQdtR8L25SrPBobaeQGc3P8AU4afBGFAZQZBS50D80ZLBxQ4NQQAPBUGfiKPBHVD+
QAgV0kDD4oTBq22XQErm/kCH85jBS6XbQM2z6z/dLa7B7EhrQDcNQL9tnqPB/wvrQGMFHMAQrK/B
4qkBQW9CXT4a5obB1aLQQExTHT/y64DBTNTTQP+TJb86H4vBWLm0QPg/BUGZsbnBurrdQNEz6kBF
rbPBDjunQJBG5UDvRq/BuA/dQDHNJkEehrXBL7fuQMYhLEFrHKjBf6MDQTIZF0Fova/BDG6TQK50
I0HjpK/BQxqEQKU1EUFlOaXB8YyiQMG8KEHMCKLByCueQCHuukB562vBp/nLQAv4qEBux3rBET/M
QLPp3EDQeG7BWZdhQEwj9EDD23jBRS+dQEHaC0Fb/nzBXLFxQDZKBkFAR4nBZiWHQEmrI0BY1qvB
+nlZQM0jxz/B5qHBjQamQGUYeUBq5YfBPPS/QAqMm0B9HZLBUMXAQDxcR0DdZZ/BL1hVQKg1V0Dx
xpPBXsGXQC1LrD/96o7BN0R4QNJ6xkDfhpHBlyxlQGJ1r0BaC4bBt8tZQEpGh0BoK6XBBbsIQXSv
7UA7x5PB9P0BQVCjAEH2UZ3B/HLzQIBi4UCAAYzBzue5QKGv+kDZkJfB3XXPQP5JWz+r0KzB3reV
QBiPHb+g6qbB4UvYQH9dyL+ou63BkvvXQB6TBEECPJ/ByzfHQGr450B1zI3BvA6mQM6WLz9reqjB
LKToQFw0ib5pWq/BmMKuQMmF3r9JkqnBycDZQJS3sz9p/JDB2rfhQFTLtz6vUojBsqTrQJZOHkEi
eq7BP0ugQKI+HUFA2afBai++QCGD+0CKBrLBDL+3QCuVxUDfj3bBq/eIQHW8/0BlaoLBMBSMQHZM
8j+896TB6yihQARmkkBt9o7BrKqjQIBTK0C7C5zB2mWHQNPWckCgXJfBFs7IQFRMD0Fou6nB5QGl
QEMQ2UDGu4XB58WvQE333z/5ZZPBJneJQBm6uEDnKIvBkjP4QHYn/j+zEpXBNsZ1QImVlUDTxp/B
+FgIQaje0r3aOrPBGiGfQEXzPsCA/KfBbI8ZQR0O6EA2apLBbLENQec1BUGqQKPBviX+QJ3a0kAU
o4TBzCGYQLr//UBpM5nBftDbQODf7D+IL67BE+5rQCsRQL9HrqPBZZvrQL1YG8Bkrq/BHSgCQa3Z
iT6w3YbBMpjRQBx7Kj9c5YDB9vrUQN20HL9H9YrBravfQKeYJUEV6LXBRT/zQLr2KkFMqqjBZVYE
QUD7FEEfN7DBRF2WQAWeJEGnca/BsD2GQNMgE0EIx6TBmpynQPfaKUEs/aHB5l6zQMFEBUGhgrnB
tvLaQMo36ECbmLPBQa2kQKvJ5kDl367BiW2dQDTJu0Bb82vBWXjLQOCHqUCmiHrBhJrLQB2o3UCD
a27BWA1hQCct9UCYUXnBgj2dQJkuDEGxY33BcHVyQMyRBkHLiYnBHBaHQAaTI0Dm4KvBbNNZQArF
xj+56aHBvKCnQCukekBMGojBGp+/QEu4nEDdiZLBfZ/AQEplSEBQfJ/B12NWQIMHVkAnhZPBAmKY
QA4prD+qAI/B0hV3QPmkxkCBd5HBV/VlQGskr0Au/4XBoelVQIAghkAv+KTB

>  <OMEGA_E>  (31) 
pAKVPszolT4=

>  <OMEGA_NBR>  (31) 
    112412

$$$$
50168364
     RDKit          3D

 60 61  0  0  1  0  0  0  0  0999 V2000
    8.4517    7.3302  -18.4091 C   0  0  0  0  0  0  0  0  0  0  0  0
    7.4785    7.0032  -17.4517 C   0  0  0  0  0  0  0  0  0  0  0  0
    8.0807    7.9713  -19.6067 C   0  0  0  0  0  0  0  0  0  0  0  0
    5.7498    7.9461  -18.8986 C   0  0  0  0  0  0  0  0  0  0  0  0
    6.4510    0.8090  -21.6119 C   0  0  0  0  0  0  0  0  0  0  0  0
    4.6344   -0.6131  -20.8090 C   0  0  0  0  0  0  0  0  0  0  0  0
    6.6730   -1.6201  -21.6952 C   0  0  0  0  0  0  0  0  0  0  0  0
    6.1284    7.3113  -17.6949 C   0  0  0  0  0  0  0  0  0  0  0  0
    6.7266    8.3133  -19.8620 C   0  0  0  0  0  0  0  0  0  0  0  0
    5.1676    0.6740  -21.0371 C   0  0  0  0  0  0  0  0  0  0  0  0
    7.2054   -0.3371  -21.9312 C   0  0  0  0  0  0  0  0  0  0  0  0
    5.3852   -1.7577  -21.1406 C   0  0  0  0  0  0  0  0  0  0  0  0
    6.8642    1.4245  -18.1497 C   0  0  0  0  0  0  0  0  0  0  0  0
    7.1250    0.3818  -17.0674 C   0  0  0  0  0  0  0  0  0  0  0  0
    6.0472    7.8403  -22.2439 C   0  0  0  0  0  0  0  0  0  0  0  0
    7.4331    9.8894  -21.7681 C   0  0  0  0  0  0  0  0  0  0  0  0
    5.0352    9.8254  -21.0706 C   0  0  0  0  0  0  0  0  0  0  0  0
    4.3897    1.9045  -20.6040 C   0  0  0  0  0  0  0  0  0  0  0  0
    5.0740    6.8172  -16.7339 C   0  0  0  0  0  0  0  0  0  0  0  0
    5.0708    4.6142  -17.8778 C   0  0  0  0  0  0  0  0  0  0  0  0
    5.1535    2.6941  -19.5092 C   0  0  1  0  0  0  0  0  0  0  0  0
    4.2723    3.8075  -18.9138 C   0  0  2  0  0  0  0  0  0  0  0  0
    6.3171    8.9591  -21.2120 C   0  0  0  0  0  0  0  0  0  0  0  0
    5.5493    1.7744  -18.4296 N   0  0  0  0  0  0  0  0  0  0  0  0
    4.2707    5.7709  -17.4028 N   0  0  0  0  0  0  0  0  0  0  0  0
    7.8094    1.9999  -18.6787 O   0  0  0  0  0  0  0  0  0  0  0  0
    3.8485    4.6748  -19.9646 O   0  0  0  0  0  0  0  0  0  0  0  0
    8.4469   -0.2067  -22.4510 F   0  0  0  0  0  0  0  0  0  0  0  0
    4.8762   -2.9893  -20.9109 F   0  0  0  0  0  0  0  0  0  0  0  0
    9.4886    7.0894  -18.2265 H   0  0  0  0  0  0  0  0  0  0  0  0
    7.7658    6.5166  -16.5314 H   0  0  0  0  0  0  0  0  0  0  0  0
    8.8367    8.2060  -20.3414 H   0  0  0  0  0  0  0  0  0  0  0  0
    4.7072    8.1544  -19.0882 H   0  0  0  0  0  0  0  0  0  0  0  0
    6.8541    1.7918  -21.8068 H   0  0  0  0  0  0  0  0  0  0  0  0
    3.6492   -0.7203  -20.3795 H   0  0  0  0  0  0  0  0  0  0  0  0
    7.2522   -2.4983  -21.9395 H   0  0  0  0  0  0  0  0  0  0  0  0
    8.2084    0.2869  -16.9024 H   0  0  0  0  0  0  0  0  0  0  0  0
    6.6378    0.6946  -16.1321 H   0  0  0  0  0  0  0  0  0  0  0  0
    6.7165   -0.5883  -17.3869 H   0  0  0  0  0  0  0  0  0  0  0  0
    5.7560    8.2895  -23.2048 H   0  0  0  0  0  0  0  0  0  0  0  0
    6.9590    7.2404  -22.3811 H   0  0  0  0  0  0  0  0  0  0  0  0
    5.2346    7.1943  -21.8801 H   0  0  0  0  0  0  0  0  0  0  0  0
    7.1051   10.3262  -22.7228 H   0  0  0  0  0  0  0  0  0  0  0  0
    7.6326   10.6947  -21.0458 H   0  0  0  0  0  0  0  0  0  0  0  0
    8.3512    9.3050  -21.9286 H   0  0  0  0  0  0  0  0  0  0  0  0
    4.7791   10.2640  -22.0463 H   0  0  0  0  0  0  0  0  0  0  0  0
    4.2036    9.1953  -20.7224 H   0  0  0  0  0  0  0  0  0  0  0  0
    5.2152   10.6303  -20.3428 H   0  0  0  0  0  0  0  0  0  0  0  0
    4.2361    2.5572  -21.4760 H   0  0  0  0  0  0  0  0  0  0  0  0
    3.4140    1.5901  -20.2049 H   0  0  0  0  0  0  0  0  0  0  0  0
    5.5571    6.3968  -15.8395 H   0  0  0  0  0  0  0  0  0  0  0  0
    4.4215    7.6525  -16.4398 H   0  0  0  0  0  0  0  0  0  0  0  0
    5.3161    3.9664  -17.0233 H   0  0  0  0  0  0  0  0  0  0  0  0
    5.9999    4.9798  -18.3394 H   0  0  0  0  0  0  0  0  0  0  0  0
    6.0483    3.1490  -19.9592 H   0  0  0  0  0  0  0  0  0  0  0  0
    3.4037    3.3491  -18.4184 H   0  0  0  0  0  0  0  0  0  0  0  0
    4.8272    1.3774  -17.8630 H   0  0  0  0  0  0  0  0  0  0  0  0
    3.5864    5.4363  -16.7549 H   0  0  0  0  0  0  0  0  0  0  0  0
    3.8113    6.1814  -18.1905 H   0  0  0  0  0  0  0  0  0  0  0  0
    3.3547    4.1779  -20.6063 H   0  0  0  0  0  0  0  0  0  0  0  0
  1  2  2  0
  1  3  1  0
  2  8  1  0
  3  9  2  0
  4  8  2  0
  4  9  1  0
  5 10  2  0
  5 11  1  0
  6 10  1  0
  6 12  2  0
  7 11  2  0
  7 12  1  0
  8 19  1  0
  9 23  1  0
 10 18  1  0
 11 28  1  0
 12 29  1  0
 13 14  1  0
 13 24  1  0
 13 26  2  0
 15 23  1  0
 16 23  1  0
 17 23  1  0
 18 21  1  0
 19 25  1  0
 20 22  1  0
 20 25  1  0
 21 22  1  0
 21 24  1  0
 22 27  1  0
  1 30  1  0
  2 31  1  0
  3 32  1  0
  4 33  1  0
  5 34  1  0
  6 35  1  0
  7 36  1  0
 14 37  1  0
 14 38  1  0
 14 39  1  0
 15 40  1  0
 15 41  1  0
 15 42  1  0
 16 43  1  0
 16 44  1  0
 16 45  1  0
 17 46  1  0
 17 47  1  0
 17 48  1  0
 18 49  1  0
 18 50  1  0
 19 51  1  0
 19 52  1  0
 20 53  1  0
 20 54  1  0
 21 55  1  6
 22 56  1  1
 24 57  1  0
 25 58  1  0
 25 59  1  0
 27 60  1  0
M  CHG  1  25   1
M  END
>  <OMEGA_C>  (32) 
RzoHQUSR6kDlRZPBh0/vQB8a4EAOnYvBjkoBQYoU/0CW2pzBcP63QMFG/kBQMJfBVW7OQNQbTz8x
5azBtUyUQPT0HL+7eKbBUYnVQOZgz7/Ej63BwhvEQOf16UAzj43BL0DXQCoDBUFJ5Z7B91ylQD6N
LD/pS6jB1JLmQF2brL4Xc6/BVlOsQBf94L/iH6nBMKfbQKtVtj+RMpHB5//jQMx9wz4BiojB4ILB
QGzj+kCC87HBINztQOU6HkEBJa7BpyChQL80HUGrkKjBT3iMQBTF8z/41KTBcV6iQF4m2kAL34XB
1kOiQImnk0C+BY/BNumkQOJsLEDkEpzBd7aIQFGtc0CPT5fBeCXKQGpYD0EWsqnBp5OxQFQg4z++
b5PBzqmIQI6ruEDjOIvBxOb5QFf+/z//bZXBeE52QDGYlUCVt5/BgCYHQZagU761m7PB7gmcQENQ
P8CaSafBKtEXQfjb4kDsz5HBsYH4QLCH0EA3QITBS2MNQdhLA0Efu6LBRKGWQI94AkGetJjBDlXb
QPVZ5T9VdK7B6YxpQDxjOL87CaPBXBLoQJjkH8AfhK/Bm1UDQZfnkj4nOIfBBmnUQMjSMT95DoHB
yu3WQAuYFr9wGIvBSDG4QMShBEF+o7nBabDeQKKx50BoDLPBJ4KnQFI35kBiCq/ByVzjQEc4JUFT
yLXBoz70QIkdK0HcXajBWJ4FQXbhFEG3ba/BcO6YQIU5JEHhXrDBlYOGQNofE0Fqx6XB6eKmQIcV
KkEBvqLBy42HQHyoI0DQzqvBtH9aQCSHyz+co6HB3dOxQMKyzECvbn3BIX2NQE3h9EDHhIPBrx2q
QEPafUCqL4jBG/+/QORan0ARt5LBRYvBQCKJSUBwrJ/Bs9VZQLRXVkDxWJPBd3iaQCxNsD9/547B
BYhlQGj2rUAACobB8exzQDzOxUAWhpHBmbJWQKqxhUCe2aTB+S0HQYp060AzFJPBdRPvQB/e4EAQ
d4vBr0kBQeNm/0AivZzBgcW3QAaa/UBIRJfBukHOQEpHUj9h1KzBX2qUQELmHL9JaqbBH37VQJ2O
zb9AuK3BKc/DQE/36UAxi43BXCfXQN7HBEFw6p7Bx0ylQJhvLT9YMajBWm/mQJR2o76RgK/Brm2s
QFVJ4L+bNqnBtsXbQJfvvD8Wx5DBBk3kQLtJrz6V5IjBSZ/uQKu2HEEknq7BJKiiQPPqHUH+bajB
Fpe+QLn5+UCtvrHBfUWMQCB68z94sKTBXwaiQO9B2kC52oXB3vihQFuyk0CL8I7Bj82kQFKKLEAt
+pvB252IQMoFdEAcSJfBsgHKQJj1DkEJvqnBW5OxQM7o4z+LT5PB2VeIQNK8uEBtL4vBoNb5QNOC
/j+ykpXB3jB3QNjRlUA4u5/Bcg0HQa4aOL61rLPBqEKcQAAtP8B1dKfB2MoXQdZF5EAxhZHB7Df4
QEvI0UAFCYTB5nENQQqKA0E/kqLBC12WQMbJAUH/5ZjBEQzbQNpO5z/KU67BeRdqQP79Ob+/56LB
SfznQNC6HsDazq/BPmoDQS16Bj44n4jB2S/ZQFJCIz9n4oDBTQbTQIxAD79RfIvBRfTjQIOaI0F6
Q7bBIfL2QIGvKUHXC6nBsW8FQTKUEkFU/a/B1TGaQL3aJEFaPLDB2WeHQIOnFEHqVaXBsn+qQJLW
KkH1yKLBDju1QNwaBEERcrnB35LaQKgm5UDr7LLBuNejQGv55kCsjq7BiAiHQCJzI0ALqKvB1Wda
QE55yj81caHBnHGxQNnizEB/Xn3BmiSNQPYF9UA1h4PBrYypQLHVfUAEGIjB/9m/QCFWn0C1kZLB
3mjBQHZ4SUDXnJ/B9yVZQLwCV0AEZJPBzm+aQNX8rD/o+o7BE9FkQCgarkCtAIbBNGBzQH7KxUAJ
gZHB+M5XQBUAhkDJ5qTBvykHQbrW6UAqWJPBRCTvQFOX30DfrIvBYUEBQWUV/kB99pzBLtu3QPQv
/UA/WJfBuYKUQGLhGb/1g6bBK4POQKBsVT/706zBbhLWQMz4y7+oja3B4O7DQDpM6UCiqI3BDC3X
QOZwBEFjCp/BBlqlQHuBMD9KTajBws+sQMq83r9GKanB2uPmQBMDnb7bZa/BDoPbQNoGvT8F6JDB
yVjkQFR0qT5cKYnBFY7AQO3R+UBeCbLB9S3uQClRHUFMZa7B4LGhQAMNHUEkm6jBZTCMQD4F9T9m
2KTBMjGiQLUF2kDn5YXBM5WhQA8Zk0CDz47BsHykQLyyLECdCpzBxlKIQGzQc0CaRJfBmR3KQPrJ
DkEh1anBKESxQHy24j+cdZPBPT2IQPluuEC7HYvB7nv5QLwCAUBHjJXBhGh3QIQtlkA7qJ/B1qqc
QPRmPsAxZafB80gHQaKQKr55kLPBfb8XQQoq4kAo3JHBOFH4QEdM0EBMRoTBiV4NQaG/AkHC1qLB
snmWQHPIAUEe6pjBTeZpQMAYN7+IHaPBLE7bQAPl6D/iUa7B4M7oQCntHcCVga/B+HwDQWd/DT7z
04jBerzYQJQ8Gj+gJIHBjLDTQCUJE78f7YvBhEK3QFcgBEEYuLnBA1bdQCES5kBLLLPBUESmQGit
5UAPDq/Bq6jjQHJSJEE2B7bBCjb1QIwzKkETqqjBZJcFQa2zE0E9uK/B7GiZQM0ZJEELZrDB59OG
QM8+E0EkuqXBSjioQM7nKUEi0qLBMVOHQHh8JEDzzavBveRZQAQszD85sqHBfqyxQJ7XzEDZbX3B
1HuNQPT59EB3nIPBNXqoQFE6fEBt9YfBgNO/QP1enkB4UpLBTSDBQOf3SUAvnp/BCTtYQKumVkB3
eJPBxSiaQH3bqT9uN4/BhrBkQKkfrkDK4YXBlxJzQMdRxUAQc5HBZyVYQOawhkCw5qTBKSkHQdU4
6kD3N5PBxOzuQEMu4EColovBsmUBQRtX/kBd4JzBzQK4QAHR/UCuXZfB+R6VQH2hFr/Ij6bB/dnO
QMsQWj8/9KzB3rLWQNaRyb/6oq3BRczDQMP46UB6po3BW4rXQAahBEEeCJ/B0NClQGwRND9pX6jB
dH6tQHbT3L8lOKnB4VrnQHyYkr7ega/BRLfbQMA6uj+K5ZDB9CnkQHNvnj5UHYnBC1fvQMsRHUHn
fK7Bxu+iQPedHUE1pKjB+mHAQJMz+kCIBLLBm7WMQLpc9j/P2KTB0NOhQDSu2kAm9oXB7NGhQCCr
k0DU2o7B5OqkQLLZLEBR+JvBTYaIQISVc0DxK5fBQsXKQIXzDkGC26nBZIyxQGZK4j/OZ5PBhTSI
QOX3uEBsO4vB/tr5QCAm/T/RlpXBjPR1QAGdlUCNkJ/BR4idQCCGPcB2Z6fBw4YHQSjvEb4op7PB
mLcXQeF84kDRrJHBot/3QIb70ECGKITBupcNQXrIAkGPuaLB6bGWQCEtAkEN+5jBaTxrQOd/NL85
IqPBgXPbQHZb6z8ygK7Bi4TpQHedHMDDlq/Bl1oDQVHmzz0+z4jBJ9DYQO8+Fz8zGIHBFg3TQDkL
F7/P04vBZgblQE0RJEG1I7bBHOj2QK72KUEKzqjBHPsFQY4pE0HVyq/B0M+aQEqlJEEKc7DBeryH
QLwcFEHitKXBzAuqQOh6KkF256LBbk63QF1YBEG/tbnBmbzcQFfX5UCoJrPBHLelQL6o5kBC/67B
t++HQH+eJUAixKvBy9laQHM4zT8lvaHBmhGxQAqczUCXd33B4fGMQE2W9UBVvYPBayapQIg/fkC3
8ofBC9W/QCEMn0Cvd5LBq5fBQKZrSkBQfZ/B1H9ZQOXcVUCaPpPBaViaQNugqj84Io/B20dkQBSd
rkBpDIbBI2tzQF3FxUAPm5HBY6FWQDy5hUAQuqTB

>  <OMEGA_E>  (32) 
+JqQPihmkz5ofZQ+XKCWPg==

>  <OMEGA_NBR>  (32) 
    116616

$$$$
50168373
     RDKit          3D

 64 66  0  0  1  0  0  0  0  0999 V2000
    8.6217    7.3841  -18.4176 C   0  0  0  0  0  0  0  0  0  0  0  0
    7.6416    7.0091  -17.4858 C   0  0  0  0  0  0  0  0  0  0  0  0
    8.2517    8.0308  -19.6105 C   0  0  0  0  0  0  0  0  0  0  0  0
    5.9123    7.9224  -18.9463 C   0  0  0  0  0  0  0  0  0  0  0  0
    6.5110    0.8744  -21.6045 C   0  0  0  0  0  0  0  0  0  0  0  0
    4.6657   -0.5646  -20.9028 C   0  0  0  0  0  0  0  0  0  0  0  0
    6.7470   -1.5521  -21.7080 C   0  0  0  0  0  0  0  0  0  0  0  0
    6.2845    7.2800  -17.7506 C   0  0  0  0  0  0  0  0  0  0  0  0
    6.8916    8.3403  -19.8783 C   0  0  0  0  0  0  0  0  0  0  0  0
    5.2027    0.7267  -21.0920 C   0  0  0  0  0  0  0  0  0  0  0  0
    7.2850   -0.2642  -21.9010 C   0  0  0  0  0  0  0  0  0  0  0  0
    5.4348   -1.7015  -21.2170 C   0  0  0  0  0  0  0  0  0  0  0  0
    6.7606    1.3858  -18.1055 C   0  0  0  0  0  0  0  0  0  0  0  0
    4.5605    7.8061  -15.8737 C   0  0  0  0  0  0  0  0  0  0  0  0
    5.4588    6.6820  -15.3133 C   0  0  0  0  0  0  0  0  0  0  0  0
    5.1985    6.7918  -16.8204 C   0  0  0  0  0  0  0  0  0  0  0  0
    6.9590    0.3226  -17.0297 C   0  0  0  0  0  0  0  0  0  0  0  0
    6.2380    7.9162  -22.2589 C   0  0  0  0  0  0  0  0  0  0  0  0
    5.1649    9.8481  -21.0354 C   0  0  0  0  0  0  0  0  0  0  0  0
    4.4070    1.9471  -20.6679 C   0  0  0  0  0  0  0  0  0  0  0  0
    5.0455    4.5783  -17.8731 C   0  0  0  0  0  0  0  0  0  0  0  0
    5.1300    2.6986  -19.5229 C   0  0  1  0  0  0  0  0  0  0  0  0
    4.2488    3.8156  -18.9404 C   0  0  2  0  0  0  0  0  0  0  0  0
    7.6073    9.9732  -21.7090 C   0  0  0  0  0  0  0  0  0  0  0  0
    6.4782    9.0213  -21.2038 C   0  0  0  0  0  0  0  0  0  0  0  0
    5.4638    1.7488  -18.4474 N   0  0  0  0  0  0  0  0  0  0  0  0
    4.3176    5.7898  -17.4445 N   0  0  0  0  0  0  0  0  0  0  0  0
    7.7350    1.9681  -18.5704 O   0  0  0  0  0  0  0  0  0  0  0  0
    3.8747    4.7085  -19.9890 O   0  0  0  0  0  0  0  0  0  0  0  0
    8.5495   -0.1219  -22.3584 F   0  0  0  0  0  0  0  0  0  0  0  0
    4.9183   -2.9374  -21.0330 F   0  0  0  0  0  0  0  0  0  0  0  0
    7.8920   10.9117  -20.7651 F   0  0  0  0  0  0  0  0  0  0  0  0
    7.2441   10.6036  -22.8569 F   0  0  0  0  0  0  0  0  0  0  0  0
    9.6624    7.1757  -18.2182 H   0  0  0  0  0  0  0  0  0  0  0  0
    7.9266    6.5145  -16.5690 H   0  0  0  0  0  0  0  0  0  0  0  0
    9.0109    8.2953  -20.3316 H   0  0  0  0  0  0  0  0  0  0  0  0
    4.8674    8.0984  -19.1548 H   0  0  0  0  0  0  0  0  0  0  0  0
    6.9178    1.8612  -21.7689 H   0  0  0  0  0  0  0  0  0  0  0  0
    3.6638   -0.6810  -20.5167 H   0  0  0  0  0  0  0  0  0  0  0  0
    7.3406   -2.4249  -21.9365 H   0  0  0  0  0  0  0  0  0  0  0  0
    3.4755    7.7844  -15.6941 H   0  0  0  0  0  0  0  0  0  0  0  0
    4.9129    8.8480  -15.8649 H   0  0  0  0  0  0  0  0  0  0  0  0
    6.4524    6.9214  -14.9065 H   0  0  0  0  0  0  0  0  0  0  0  0
    5.0150    5.8578  -14.7357 H   0  0  0  0  0  0  0  0  0  0  0  0
    8.0314    0.2217  -16.8066 H   0  0  0  0  0  0  0  0  0  0  0  0
    6.4211    0.6196  -16.1173 H   0  0  0  0  0  0  0  0  0  0  0  0
    6.5672   -0.6403  -17.3893 H   0  0  0  0  0  0  0  0  0  0  0  0
    5.9421    8.3774  -23.2127 H   0  0  0  0  0  0  0  0  0  0  0  0
    7.1634    7.3391  -22.4024 H   0  0  0  0  0  0  0  0  0  0  0  0
    5.4378    7.2459  -21.9121 H   0  0  0  0  0  0  0  0  0  0  0  0
    4.9010   10.3174  -21.9946 H   0  0  0  0  0  0  0  0  0  0  0  0
    4.3501    9.1812  -20.7171 H   0  0  0  0  0  0  0  0  0  0  0  0
    5.3180   10.6285  -20.2754 H   0  0  0  0  0  0  0  0  0  0  0  0
    4.2943    2.6223  -21.5289 H   0  0  0  0  0  0  0  0  0  0  0  0
    3.4135    1.6278  -20.3199 H   0  0  0  0  0  0  0  0  0  0  0  0
    5.2014    3.9240  -17.0027 H   0  0  0  0  0  0  0  0  0  0  0  0
    6.0200    4.8714  -18.2907 H   0  0  0  0  0  0  0  0  0  0  0  0
    6.0524    3.1456  -19.9221 H   0  0  0  0  0  0  0  0  0  0  0  0
    3.3584    3.3674  -18.4753 H   0  0  0  0  0  0  0  0  0  0  0  0
    8.4959    9.3513  -21.8926 H   0  0  0  0  0  0  0  0  0  0  0  0
    4.7107    1.3403  -17.9317 H   0  0  0  0  0  0  0  0  0  0  0  0
    3.6162    5.5243  -16.7831 H   0  0  0  0  0  0  0  0  0  0  0  0
    3.8820    6.2012  -18.2452 H   0  0  0  0  0  0  0  0  0  0  0  0
    3.3818    4.2344  -20.6484 H   0  0  0  0  0  0  0  0  0  0  0  0
  1  2  2  0
  1  3  1  0
  2  8  1  0
  3  9  2  0
  4  8  2  0
  4  9  1  0
  5 10  2  0
  5 11  1  0
  6 10  1  0
  6 12  2  0
  7 11  2  0
  7 12  1  0
  8 16  1  0
  9 25  1  0
 10 20  1  0
 11 30  1  0
 12 31  1  0
 13 17  1  0
 13 26  1  0
 13 28  2  0
 14 15  1  0
 14 16  1  0
 15 16  1  0
 16 27  1  0
 18 25  1  0
 19 25  1  0
 20 22  1  0
 21 23  1  0
 21 27  1  0
 22 23  1  0
 22 26  1  0
 23 29  1  0
 24 25  1  0
 24 32  1  0
 24 33  1  0
  1 34  1  0
  2 35  1  0
  3 36  1  0
  4 37  1  0
  5 38  1  0
  6 39  1  0
  7 40  1  0
 14 41  1  0
 14 42  1  0
 15 43  1  0
 15 44  1  0
 17 45  1  0
 17 46  1  0
 17 47  1  0
 18 48  1  0
 18 49  1  0
 18 50  1  0
 19 51  1  0
 19 52  1  0
 19 53  1  0
 20 54  1  0
 20 55  1  0
 21 56  1  0
 21 57  1  0
 22 58  1  6
 23 59  1  1
 24 60  1  0
 26 61  1  0
 27 62  1  0
 27 63  1  0
 29 64  1  0
M  CHG  1  27   1
M  END
>  <OMEGA_C>  (33) 
VvIJQeZK7EAxV5PB2Yf0QIRK4EDo4ovBzAYEQVp+AEFY4pzB7TG9QDKE/UDukZfBwVnQQDLWXz/s
1azBjU2VQLmMEL/2OKfBxOfXQLCpxr8Kqq3BexrJQL316EAzAY7BKYjcQOxxBUHABp/B0XymQE8G
Oj9xvKjBvR7pQO1Ih75XNa/BEOqtQPTL2b9qvKnBfVbYQFxhsT8X2JDBgO+RQErL+UDE+n3Bt66u
QPLS1UBkA3XB9FmmQElW2UBHkIbB86/eQH4xpT7sPIjBx53HQN5R/UBRErLBLUelQPyRHUGASKjB
vwWNQKo5+T/HV6XBl3ShQJCBkkAI/I7BviikQOC1LED5LpzBN/aHQHYzdED3hZfBO2/zQFqSH0Ei
rK3BQU3PQDNXEEFIoanBnteuQK3Y3z9BlJPBlSmKQAFGuUBnjovB44T3QB7q+z8YkJTBsvp3QPur
lkB36Z/BqMoIQYWr+b3q3bLB9mKdQEX+O8CsQ6jBYYv8QHqWLkH7HqbB38/nQDyoKUHk2rbBUZka
QWmf5UDSvpHBe6b9QCl30EA2jYTBtSwQQYy5BEEsp6LBqMGbQPuSAUEMPZnBpV7dQJM77j+xJq7B
a3xqQPhULr8dIqTBlubqQEUxG8D2fa/BBW5eQBga+UAPG3vBczadQJyRDUHJ1n3BK3rOQAJ83UAp
gW7BunqgQONyu0BvxWvBgYAAQXkGYz78c4bB3XnNQK+eHj9F8IDBaSbSQFPoI79hHYvBUSW+QNgJ
BkG1s7nBazrlQNTZ6kAiOLPBsgKuQFDe50DiS6/BxNScQA0UJUEB9a/BXDSLQDnmEkGovKXBYC2q
QHoOKkEYNKLB6WqJQOLTJ0ApO6zB2HZaQO5a0D8Oj6LB4nGmQG4ie0CIBYjBzKPAQKPim0BYU5LB
La3BQElSSUBfYJ/BifBWQG2DV0B1zZPBE+8HQfCeFUEfJK/BZL6WQFCNqz8UdI/BO29nQAXHsEC7
Q4bBOXN4QGdwxkAf9pHBB29YQGGAh0DpL6XBC+AHQWr770Ar+ZPBHv/xQFNK4kCBSIzBht8AQUVN
AkGNWZ3BZeC3QLTS/ECnfJfB3BvPQNbDZT99Ia3BeA6WQCRVGL9mIqfBKojYQFWywr/2Na7BzvPF
QO/w6EBKBY7BkIzVQCIeBkE/Ip/B2fGlQEo4Nj9VsqjBBHPoQICQX74Yz6/BFEivQAPA2r+266nB
rwjbQMQltj88U5HB6qmQQOrF90Da4HzBTjavQMWs1EDvkXTBWOekQHkW2EBPQIbBly7kQHc0qD6h
I4nBNUboQDtlIEFbNq7BAFK7QDIh/0DXzbHBRN2LQC4/9D9BB6XB2dugQJBUkUDtto7BBYujQM5y
K0CHDpzBiuGGQFy6cEDhDpfB1EScQPlpHkGRNKfB0KDFQGQhEUHQeanBZLKwQPjv3T/boZPB6u6I
QEdBt0Cs/orB7MX4QA1jBEDxHJXBVmJxQCnFlEAtRJ/BIhwIQRjfJb1R07PBhBegQOBwPcAjXqjB
PsSNQJ0kKEGcObDBxjukQD6eLUHoqp/BQcEYQeqq6kAFsJLBTdb8QFC30kDkD4XB+28MQSVdB0H2
P6PBvf6VQEUwAEHI8JjBrCfbQLGs8j/Nd67BLAptQH+rPb9pzKPBFPbrQKsSGMB9RrDB1HdcQNnz
9UDYVHnBaOGaQJm6DEGP33zBGjvPQHFM3UBHqm7BnZWiQBnLuUCRH2vBfmwDQS7/iT62r4fBxKDT
QIgvED97moHBUqjYQL8AI78OOYzBAObbQPftJ0HtibXB8BzwQBLbLEGBUKjB8KACQdMqF0FiH7DB
b+qvQCsPB0EIPbnBemDYQNJr7ED4ebPB9FaiQEva6UCBnq7BEqOGQF5CJUDr26vBbp5ZQIeBxz+p
+KHBZ4enQJ29eEAd2IfBxDe/QCjDm0AlU5LBygDAQPBKSkCLg5/BNPJWQLLqUUDqGZPBafeDQHos
E0ESN6TBDMuZQNscpT/GUY/Bt1JnQN7zrUA/fYXBjBRzQLAWxEBHO5HBA0BRQDc9hUBBa6TBtuAH
QTAm70CkfpTBtgTzQAVI4UDklIzBvj0AQWm6AUFYzJ3Bqoa3QE4++0AjZZfBnVDNQAVjaD/ojq3B
kUSVQGAmG79PUafB3YDXQFbiwL/Wva7B7MTGQMB+50B/C47BWwnUQE1nBUGHR5/B0pKkQIPaND9f
7qjBCtDmQCyTSr4HZrDBAKquQI7t2r8/P6rBF13aQNbcuj/oGJHBAeWSQCos9kCibXzBBIKxQOLR
0kCAcXTBuGymQLt81kD8IYbBvArkQFaJrj4BLInBt3LkQD8eIEGvRq7BRVu6QIxi/UCNFrLBznuK
QOhj8j8xFqXB+cygQOy2j0DqjI7BidSiQL4HKkAoMpzBbu+GQClvcECpMJfBQluZQCqbHUFbx6fB
sAPDQGI1EEEAnKnBRAKwQAzA2T8a3JPBs72JQCEqtkBI14rBMl73QH5UDEDGJ5TBhat1QMymlUCu
Yp/BJxYHQQAhRLs8nbTBzQ6gQOzcPcCbnKjBI0ueQB0BK0E2SZ/BcmFsQMAgEUG7PabBttkYQf83
6kCecJPBWcj+QHry0UBAa4XBdWwLQRvIBkGZ4aPB03WVQPCZ/kColZjBZOvYQBeT9D84667BwBhs
QGOAQ7831aPByBLrQK2wFsCo6rDBKidhQO2H9EClmXjBI1CdQM3lC0FEcnzBkMXRQBM020B6ym7B
AgmlQGXwt0Dc8WrB7SgDQabhsz4pLIfBGR7RQEXM+z7J2YHBKanbQOrCIL8QxozBCIvXQMaFJ0EZ
lLXBlV3rQKuhLEGfVajBGgsBQThzF0GgNrDBzkGuQGgoBkH5dbnB6kHYQHQs7EBh1bPBNWeiQC/A
5kAA/67BnpmEQNisJECA2avBtHlXQEOaxD/b5aHB5PSlQA0qdECluofB6+a/QFFWmUCK5ZHB71y/
QAnpR0Agv5/B9Q1VQA4XU0BqgpPBeLaUQHY6J0EaDq/BVyuZQO5EmT9794/BDatoQG1drUAHUYXB
ex11QEFAw0C0E5HBPK9VQE4Ph0COuKTBb9QIQeM17EA0F5XBL//zQO454EAcMo3Bis4BQcjQ/0DQ
m57Buv+5QPMy+0BxYZjBpgjOQFxpRj+rvKzB2aWUQIIvLr+jXqbBTqfWQCET078KWq3BXQvIQILJ
50AC247ByobXQEs5BEE3TKDBp+ykQL+EHT+oNqjBqfPmQNhutr6PO6/Bn2ytQNm357+g+KjB+0nZ
QJC3tz/8GJDBmh6TQFe9+ECFsn7B3xCxQMpy1UBSCXbButOmQPMb2EB2/obBeabhQCa/mD7aO4jB
2f+eQMGTHEHwzKjB34fpQCroHUGNr6/B3FKLQDwg6j8nwaTB6DKhQI9hkEDP4I7B6lGjQEb+JkCW
5ZvBhFuHQEDkbkA8QpfBV+K7QAET+kCVKLPBuWrHQDyWDkHL0arBsFyvQIZj1z+3PJPBdDiKQIOH
t0CHnIvBU6L3QAEcAEBGXZTB8i92QLh6k0A+u5/BEloHQdjhTr74UrPBus6dQLg1Q8BKI6fBNDif
QMa43UAJCq/Bx1XfQMEk5EAgQ7bBb64ZQTRe5kBY25PBy9P+QHZK0UDK44XBpFANQQcwBEEssKTB
vSyYQE4IAEHJq5nB0FzaQPr14T9RSK7B4EtqQLY4Tr999aLB7sPpQIsMIcCTRK/BYlJhQJ2l90Bg
JXvB3eidQJEeDUFiBX/BsznRQFjA3UBSNXDBCPqjQNQou0BPVWzBPysCQZhODT65dofB8zDUQJMn
Dz/2X4DB0XDSQOpLH7/RMIvBUVKUQNK0I0H5Y7DBjkiFQNKJEkE5f6XBDdSmQIlfKUGYFaPBXg7d
QHP0JEExH7fBVMDwQLK6KkE076nBqHMDQQfdFEEucLHBOW2GQPFIH0BfsKvB7zRYQNr/vz9vqKHB
pTumQBDxd0Dh0YfBWlvAQIBPmUB2T5LBDVHAQFSDQ0ANY5/BcAlWQGSgUkCcapPBN7utQMM2BUEB
GrrBleqXQOjjmT+KYY/BX2loQDiqr0ACJobBZ4t3QA76w0AaCZLBKjhWQHL8g0BD6KTB

>  <OMEGA_E>  (33) 
rFmGPpgzkD7YH5I+sFtwPg==

>  <OMEGA_NBR>  (33) 
    121031

$$$$
50168420
     RDKit          3D

 63 66  0  0  1  0  0  0  0  0999 V2000
    8.6513    7.4690  -18.3189 C   0  0  0  0  0  0  0  0  0  0  0  0
    8.3460    7.9759  -19.5914 C   0  0  0  0  0  0  0  0  0  0  0  0
    7.6212    7.0968  -17.4415 C   0  0  0  0  0  0  0  0  0  0  0  0
    5.9639    7.7478  -19.1124 C   0  0  0  0  0  0  0  0  0  0  0  0
    6.4106    0.7984  -21.5614 C   0  0  0  0  0  0  0  0  0  0  0  0
    4.6531   -0.6964  -20.7587 C   0  0  0  0  0  0  0  0  0  0  0  0
    6.7155   -1.6190  -21.6809 C   0  0  0  0  0  0  0  0  0  0  0  0
    7.0076    8.0862  -20.0156 C   0  0  0  0  0  0  0  0  0  0  0  0
    6.2718    7.2585  -17.8203 C   0  0  0  0  0  0  0  0  0  0  0  0
    5.1397    0.6101  -20.9743 C   0  0  0  0  0  0  0  0  0  0  0  0
    7.2013   -0.3151  -21.9033 C   0  0  0  0  0  0  0  0  0  0  0  0
    5.4389   -1.8088  -21.1149 C   0  0  0  0  0  0  0  0  0  0  0  0
    6.8420    1.4561  -18.0502 C   0  0  0  0  0  0  0  0  0  0  0  0
    4.5184    7.8258  -15.9522 C   0  0  0  0  0  0  0  0  0  0  0  0
    5.3888    6.6917  -15.3781 C   0  0  0  0  0  0  0  0  0  0  0  0
    6.4294   10.0928  -21.4140 C   0  0  0  0  0  0  0  0  0  0  0  0
    4.9172   10.1138  -21.1881 C   0  0  0  0  0  0  0  0  0  0  0  0
    5.5085    8.0127  -22.0921 C   0  0  0  0  0  0  0  0  0  0  0  0
    6.7519    8.6119  -21.4305 C   0  0  2  0  0  0  0  0  0  0  0  0
    5.1529    6.8020  -16.8953 C   0  0  0  0  0  0  0  0  0  0  0  0
    7.1474    0.3547  -17.0391 C   0  0  0  0  0  0  0  0  0  0  0  0
    4.3237    1.8047  -20.5228 C   0  0  0  0  0  0  0  0  0  0  0  0
    4.9956    4.5490  -17.8488 C   0  0  0  0  0  0  0  0  0  0  0  0
    5.0909    2.6214  -19.4547 C   0  0  1  0  0  0  0  0  0  0  0  0
    4.2108    3.7510  -18.8971 C   0  0  2  0  0  0  0  0  0  0  0  0
    5.5131    1.7280  -18.3596 N   0  0  0  0  0  0  0  0  0  0  0  0
    4.2754    5.7915  -17.5038 N   0  0  0  0  0  0  0  0  0  0  0  0
    7.7652    1.9926  -18.6539 O   0  0  0  0  0  0  0  0  0  0  0  0
    4.3946    8.8629  -21.7168 O   0  0  0  0  0  0  0  0  0  0  0  0
    3.8489    4.6134  -19.9761 O   0  0  0  0  0  0  0  0  0  0  0  0
    8.4311   -0.1327  -22.4349 F   0  0  0  0  0  0  0  0  0  0  0  0
    4.9743   -3.0595  -20.8971 F   0  0  0  0  0  0  0  0  0  0  0  0
    9.6821    7.3649  -18.0139 H   0  0  0  0  0  0  0  0  0  0  0  0
    9.1440    8.2840  -20.2507 H   0  0  0  0  0  0  0  0  0  0  0  0
    7.8623    6.6851  -16.4726 H   0  0  0  0  0  0  0  0  0  0  0  0
    4.9331    7.8644  -19.4127 H   0  0  0  0  0  0  0  0  0  0  0  0
    6.7761    1.7974  -21.7480 H   0  0  0  0  0  0  0  0  0  0  0  0
    3.6772   -0.8433  -20.3201 H   0  0  0  0  0  0  0  0  0  0  0  0
    7.3216   -2.4731  -21.9444 H   0  0  0  0  0  0  0  0  0  0  0  0
    3.4308    7.8210  -15.7874 H   0  0  0  0  0  0  0  0  0  0  0  0
    4.8868    8.8622  -15.9381 H   0  0  0  0  0  0  0  0  0  0  0  0
    6.3796    6.9167  -14.9565 H   0  0  0  0  0  0  0  0  0  0  0  0
    4.9236    5.8756  -14.8058 H   0  0  0  0  0  0  0  0  0  0  0  0
    6.6925   10.5653  -22.3718 H   0  0  0  0  0  0  0  0  0  0  0  0
    6.9583   10.6033  -20.5957 H   0  0  0  0  0  0  0  0  0  0  0  0
    4.6962   10.1922  -20.1134 H   0  0  0  0  0  0  0  0  0  0  0  0
    4.4672   10.9661  -21.7182 H   0  0  0  0  0  0  0  0  0  0  0  0
    5.6272    8.0020  -23.1856 H   0  0  0  0  0  0  0  0  0  0  0  0
    5.3425    6.9869  -21.7313 H   0  0  0  0  0  0  0  0  0  0  0  0
    7.6341    8.4268  -22.0609 H   0  0  0  0  0  0  0  0  0  0  0  0
    8.2338    0.1882  -16.9944 H   0  0  0  0  0  0  0  0  0  0  0  0
    6.7817    0.6565  -16.0466 H   0  0  0  0  0  0  0  0  0  0  0  0
    6.6466   -0.5749  -17.3474 H   0  0  0  0  0  0  0  0  0  0  0  0
    4.1171    2.4491  -21.3900 H   0  0  0  0  0  0  0  0  0  0  0  0
    3.3743    1.4517  -20.0938 H   0  0  0  0  0  0  0  0  0  0  0  0
    5.1169    3.9368  -16.9431 H   0  0  0  0  0  0  0  0  0  0  0  0
    5.9858    4.8044  -18.2541 H   0  0  0  0  0  0  0  0  0  0  0  0
    5.9786    3.0674  -19.9270 H   0  0  0  0  0  0  0  0  0  0  0  0
    3.3161    3.3160  -18.4279 H   0  0  0  0  0  0  0  0  0  0  0  0
    4.8025    1.2922  -17.8071 H   0  0  0  0  0  0  0  0  0  0  0  0
    3.5455    5.5698  -16.8573 H   0  0  0  0  0  0  0  0  0  0  0  0
    3.8774    6.1734  -18.3379 H   0  0  0  0  0  0  0  0  0  0  0  0
    3.3625    4.1206  -20.6265 H   0  0  0  0  0  0  0  0  0  0  0  0
  1  2  2  0
  1  3  1  0
  2  8  1  0
  3  9  2  0
  4  8  2  0
  4  9  1  0
  5 10  2  0
  5 11  1  0
  6 10  1  0
  6 12  2  0
  7 11  2  0
  7 12  1  0
  8 19  1  0
  9 20  1  0
 10 22  1  0
 11 31  1  0
 12 32  1  0
 13 21  1  0
 13 26  1  0
 13 28  2  0
 14 15  1  0
 14 20  1  0
 15 20  1  0
 16 17  1  0
 16 19  1  0
 17 29  1  0
 18 19  1  0
 18 29  1  0
 20 27  1  0
 22 24  1  0
 23 25  1  0
 23 27  1  0
 24 25  1  0
 24 26  1  0
 25 30  1  0
  1 33  1  0
  2 34  1  0
  3 35  1  0
  4 36  1  0
  5 37  1  0
  6 38  1  0
  7 39  1  0
 14 40  1  0
 14 41  1  0
 15 42  1  0
 15 43  1  0
 16 44  1  0
 16 45  1  0
 17 46  1  0
 17 47  1  0
 18 48  1  0
 18 49  1  0
 19 50  1  6
 21 51  1  0
 21 52  1  0
 21 53  1  0
 22 54  1  0
 22 55  1  0
 23 56  1  0
 23 57  1  0
 24 58  1  6
 25 59  1  1
 26 60  1  0
 27 61  1  0
 27 62  1  0
 30 63  1  0
M  CHG  1  27   1
M  END
>  <OMEGA_C>  (34) 
vGsKQe4B70AHjZLBS4kFQdQ6/0Abu5zB3+DzQFYZ40A2iIvBgti+QFXu90BL5pjB9SPNQARmTD+4
fazBK+aUQNhGMr/MEabBO+XWQEs6z7+Tcq3BjD7gQP1gAUEBIKDBurLIQM9F6EASkI7BXHikQEAu
HD91y6fBtXDmQPhXob4HOq/BzQuuQCCG579U66jB1vHaQPxhuj+8ZpDBoJaQQB5t+kBXPH/BNHGs
QEYi1kC3DHbBf73NQAt8IUHMT6vBGVqdQPLRIUE8ganBREWwQA80AEGsvLDBjA/YQDHKCUG8cavB
4uSkQLSp2UB+KYfBrLfkQFyWtT4fUIjByluKQGf/5j+mLqTB1dufQL+RkUBqyo7BUeiiQDvFJ0A1
o5vBAb+GQNMQcEBBLZfB7mqwQBUv3T9h4JLBbNCIQDxUuUDWB4zBfXz4QKMO/z9GO5XBcaCMQHHO
DUHou63BGVR2QC+hk0D7zp/Bx+UGQaDqB76terPBVy2fQH3PQ8BRLafB5ukaQZSt60BlHJDBuk0S
QXWLBEFvAaLB/Zf7QHLs1UDtx4PBqdudQNuo+0AsTZvB6NXYQB0S5j/4+63Br1ZrQPngV7+Dj6LB
2UrqQK5HHsAPjq/Bd5JbQMpF+kBFmXzBvmCcQInLDUF8An/BkCXMQNdV3UDkTW/BDo6dQI8EvECt
5GzBESnWQI0LKUF4+bLBo6reQEOnKUH/w6TB/kaWQDMTI0FC6KDBT/OOQBd1L0HZvq3B5xG0QEoI
AEE0fLnBwfWqQNSU30Cp2a3B0kr0QCbUBkHNfLDBzr0DQf3DQD599IfBWgPZQPIPKD9rX4DB9bDU
QKkvE79hx4rBXr+DQEm9HEC8HqvBavRXQKTQuT8ewKDBh72jQCf0e0Bmi4fBs4u/QPi9mUBlCJLB
qlC/QMFPREBuap/BNjpUQKI4VEBpbJPB8a2ZQNJmpT8FdY7B0ehiQCk8skDH24bB6iZ4QCCMxUAd
tJLB+zNXQNXbg0AaA6XBjDYIQTxd7kAi65TBxYgAQdie/ECe557BtH3zQEKH40Dmu4zBXgK4QOWh
9kB4apjBlenPQLwgQD8AWazBaj6UQL+gI79bX6bB2GvWQKZA178xiazBsFXUQMTw/0AxwqDBfCbH
QAgz6EB/go7ByfqlQHuEIz/mNqjBjiXoQAoN0b4rcq7B22OsQFr85b+rj6jBVsvYQMcduT/PVpDB
fHOSQFfE+kCbi37Bhh6wQMD810CGLnXBVgHgQEUoCUESkLTB9GfwQEMgIEHL77LBaHCtQEzQHEFv
sarBEmDAQG5PBkGYdqvBN06mQDUR2UAPmIbBtpHfQLz7tD4+/4fBNvKMQJpV8T+CKqXB23mhQMvU
kUA6AY/BYz2kQEffKkAkM5zB5TCIQLNhc0AZrpfBgDGvQHz03z9UapPB2tSJQMTtt0AoK4vB0NT3
QGar9z+O5pTBf3fRQNP5KkGmH6zB3ER6QPQ3lkCbJ6DBIEYIQTIOmb7POLLBMlqbQG42QcBYv6bB
jDkZQdrB60CTjJPBQq4LQTCFAkGRKaXBFCD/QHe610DlJoXBiAaWQHGg+kAEoZnBL2jdQG3h3D+V
5q3B9TRoQCW4Or+RR6PBZw3pQOlyJMBWHq7BV9xfQMkF+kDsH3vBxFydQHYYDkExYn/BcjXQQJSS
4EAHXG/B2saiQHBnvkDCGWvBeRjQQClxB0GbXbzBQVH6QM8N+0Dv97PBDf0HQezeH0ERDK/BJ9/y
QPtcKEFesLrB5nqVQOthH0HDArHBtYyeQA1ZH0EK0qLBCmGnQOiK9UDcuK3BPP0AQb1TEz5MNIfB
gc7SQDFiMD9cP4DBVczOQOqLD79khYrBQKuJQNMCIkDNPazBLQRaQJ6Nyz9hUaLBqyenQBtceECV
NojBeFXAQPEnnEBuXJLB2afBQJDfRkBdiJ/B3YhWQMuCV0B9EpTBPzGXQF9/qD/dao/BWSxqQM+w
rkA7iIXB+7JzQC2mxECnU5HB2RdbQD4fh0AteqXB0cAIQaMu6kDbApXBNzkCQZUBAkGHpp3BhYnz
QFG53EAsVY3Bn1S7QIZtAUEe75bBfpvOQADiOD8ee6zBTIeTQI6BLb/XSqbBJDLVQFbK2r/95KzB
uB/ZQK+iCEFWkZ7Bxk/IQPDT6ECGZI7BQgWlQCZgGj+aJKjBXb3mQD233b4Ux67BMYmrQE5l6r8n
s6jBCmDZQJNZtz88WJDBYpGSQD0c+UDgU37B6YuwQNbP1UCLm3XBglmmQCRXDkFh6a3BEdy/QNfz
AEHq9LXBKS7qQFmAHUFE6a/BdnvJQOlpGEGGJKfB18SmQOqs2EBkxobBJyThQFzCrz6wBYjB/wSM
QPj46z898aTBC8ehQHmikUD9LI/BK86jQDZ4KECwFZzBQuOHQGsUcUCviZfBtH2vQGew2z/wUZPB
NXOKQFZLuECvpIvBi/n3QAh/+T8G5JTBd77pQFIDC0FB5bbBYnN3QA1tlECQDaDBOHcHQUXgor5T
rrLBnsqaQJGdQ8A326bBmk4ZQbGz4EBfSZTBEL8NQZDkBkGFm6PBIZX9QBM3yUBeqIbByByaQOr3
BUGCqZfBvOjbQLmT2T+kCa7BLV1nQMz7Rb9YBqPBIbDnQFQKJsC9qq7BIRZgQHPU90D59HrBbzWd
QJ5UDUHRhn7BtI7QQK0x3kAdm2/BVWSjQORcu0BECWzB4iaTQIejGkEt/LHBOEORQKMxBEGUBanB
wT/DQMHd4ECTCrPBSZ+vQL/bAEGsw73BicPgQKr6K0GhU7TBJhgFQQjQH0HVb6zBYPy9QDFBJ0Gy
YqPBDN0BQWr5Jz6bO4fBDhTUQIA4Kj8uRIDBLzXRQPCrFb+YkIrBRAiIQA9hH0CK/avB4sNYQLo7
xT9P8KHBXqunQBHjeUDsNYjBfYbAQO9Lm0CrtpLBzvXAQNyIREDJjJ/B5vVWQFs9VUC+rZPBXtiX
QIfSoj+BRI/BIepoQJelr0DLP4bB1uZ3QClUxUCq/JHBG3VXQBHchEBxNqXBBEPVQDAJB0FUNaDB
9HwAQQkPBkH2b53B/D62QPr//UD1DJnBBMXuQD7V5EDQQ43Bm+nMQNnBOD9AjazBupuSQE6ZJ79/
maXBoOTRQBMC278iSa3BXbgGQasT+EDRuJPBTGrDQGMy6kDsa4/BGXSkQCquHT8OnafB4LXjQIgD
4r5hUa/B0iepQHl+6L8NhqjBogfaQGrTqz/EKpDBVfyQQMFR+UBgdn7BUAKwQCI01kB50HbBjb0Z
QZXsEkGOxobBUe0dQYjcJUEDOY7BoectQVHPBkGpsJXBNwkcQeVb/0D/Qo7BSrGjQBjR2UAxVYfB
fizgQA1/lT5EcofB7ZqMQAAn7j/2QqTBmFGiQBYLkkAM0o7B1p+lQJQDKUC/nJvBHvyJQPSzckCo
Z5fBXqCwQJPV3z+yoJLBOvaIQHy4t0Bln4vBhMb4QA422D92mZXBDPQrQWTrHUEwpZbBIs9/QNh2
lUA0DaDBFEEFQeSBrb77BrTBD4iXQOEWQsAJ1abBepXLQD7kDUHcwqfBSGsMQazjDEHzq6LBWZ6U
QG1nAEGc6prBKqf4QNqV0UAWh4bBjl/aQHTq2D8WNa7B00xnQNFpPL+O0KHBAXfjQJ+eJsDlYK/B
G8NdQJeP90AQMnrBK0ybQK98DUGlln7BdX/QQDS43kDyi3HB2BSkQGxOu0BeJ23BKpwlQd9QEkEB
SYDBRo8JQbW3E0EdVoPBNc4OQYWqK0FRqpHBWMMlQW3uMkHt0YnBXJA9QUCOAkE+SJLBLR0sQd9t
/kDrk53BwN8gQRzK4kDKuYnBVe0AQa1r3bzORofBaXTXQKbFOD8LSn/BkKHLQMZ9E78VIYnBTRiI
QIR7IEDkSavBdWRaQIdDyT+9BqHBlYynQCqdekCx1IfBXWLBQG2InECBBZLBkvfCQBpTQ0AMMZ/B
ghpZQAEyWEA25ZPBoMiYQN4RtT95Ao7Bq8hnQKjcrkAMBobBR5NyQGjKwkBQBpLBjnphQK8lhkA0
aaXB

>  <OMEGA_E>  (34) 
4FLnPniR6T70v+E+4A8gPw==

>  <OMEGA_NBR>  (34) 
    125400

$$$$
50168387
     RDKit          3D

 59 61  0  0  1  0  0  0  0  0999 V2000
    8.5448    7.4965  -18.5159 C   0  0  0  0  0  0  0  0  0  0  0  0
    8.1074    8.0438  -19.7349 C   0  0  0  0  0  0  0  0  0  0  0  0
    7.6045    7.0889  -17.5518 C   0  0  0  0  0  0  0  0  0  0  0  0
    5.7874    7.7738  -19.0316 C   0  0  0  0  0  0  0  0  0  0  0  0
    6.4368    0.7753  -21.5625 C   0  0  0  0  0  0  0  0  0  0  0  0
    4.6158   -0.6641  -20.8019 C   0  0  0  0  0  0  0  0  0  0  0  0
    6.6804   -1.6511  -21.6510 C   0  0  0  0  0  0  0  0  0  0  0  0
    6.7279    8.1600  -19.9980 C   0  0  0  0  0  0  0  0  0  0  0  0
    6.2231    7.2509  -17.8012 C   0  0  0  0  0  0  0  0  0  0  0  0
    5.1433    0.6279  -21.0133 C   0  0  0  0  0  0  0  0  0  0  0  0
    7.2072   -0.3629  -21.8707 C   0  0  0  0  0  0  0  0  0  0  0  0
    5.3822   -1.8011  -21.1240 C   0  0  0  0  0  0  0  0  0  0  0  0
    5.6458    7.8782  -22.1821 C   0  0  0  0  0  0  0  0  0  0  0  0
    6.2722    8.7032  -21.2741 C   0  0  0  0  0  0  0  0  0  0  0  0
    6.7907    1.4447  -18.0432 C   0  0  0  0  0  0  0  0  0  0  0  0
    4.5724    7.7887  -15.8684 C   0  0  0  0  0  0  0  0  0  0  0  0
    5.4943    6.6773  -15.3242 C   0  0  0  0  0  0  0  0  0  0  0  0
    5.1824    6.7642  -16.8241 C   0  0  0  0  0  0  0  0  0  0  0  0
    7.0443    0.3410  -17.0209 C   0  0  0  0  0  0  0  0  0  0  0  0
    4.3487    1.8509  -20.5895 C   0  0  0  0  0  0  0  0  0  0  0  0
    5.0192    4.5360  -17.8458 C   0  0  0  0  0  0  0  0  0  0  0  0
    5.1045    2.6450  -19.4954 C   0  0  1  0  0  0  0  0  0  0  0  0
    4.2409    3.7913  -18.9412 C   0  0  2  0  0  0  0  0  0  0  0  0
    6.5502   10.1491  -21.6126 C   0  0  0  0  0  0  0  0  0  0  0  0
    5.4774    1.7342  -18.3974 N   0  0  0  0  0  0  0  0  0  0  0  0
    4.2911    5.7469  -17.4109 N   0  0  0  0  0  0  0  0  0  0  0  0
    7.7410    1.9595  -18.6234 O   0  0  0  0  0  0  0  0  0  0  0  0
    3.9404    4.6904  -20.0088 O   0  0  0  0  0  0  0  0  0  0  0  0
    8.4575   -0.2194  -22.3653 F   0  0  0  0  0  0  0  0  0  0  0  0
    4.8774   -3.0374  -20.9118 F   0  0  0  0  0  0  0  0  0  0  0  0
    7.0295   10.8278  -20.5339 F   0  0  0  0  0  0  0  0  0  0  0  0
    7.4722   10.1929  -22.6076 F   0  0  0  0  0  0  0  0  0  0  0  0
    5.3927   10.7348  -22.0156 F   0  0  0  0  0  0  0  0  0  0  0  0
    9.6014    7.3892  -18.3197 H   0  0  0  0  0  0  0  0  0  0  0  0
    8.8276    8.3746  -20.4685 H   0  0  0  0  0  0  0  0  0  0  0  0
    7.9383    6.6525  -16.6219 H   0  0  0  0  0  0  0  0  0  0  0  0
    4.7313    7.8778  -19.2320 H   0  0  0  0  0  0  0  0  0  0  0  0
    6.8354    1.7621  -21.7462 H   0  0  0  0  0  0  0  0  0  0  0  0
    3.6232   -0.7810  -20.3926 H   0  0  0  0  0  0  0  0  0  0  0  0
    7.2717   -2.5236  -21.8866 H   0  0  0  0  0  0  0  0  0  0  0  0
    5.3486    8.2634  -23.1463 H   0  0  0  0  0  0  0  0  0  0  0  0
    5.4520    6.8461  -21.9298 H   0  0  0  0  0  0  0  0  0  0  0  0
    3.4944    7.7648  -15.6512 H   0  0  0  0  0  0  0  0  0  0  0  0
    4.9199    8.8323  -15.8857 H   0  0  0  0  0  0  0  0  0  0  0  0
    6.4999    6.9269  -14.9548 H   0  0  0  0  0  0  0  0  0  0  0  0
    5.0744    5.8593  -14.7203 H   0  0  0  0  0  0  0  0  0  0  0  0
    8.1252    0.1514  -16.9458 H   0  0  0  0  0  0  0  0  0  0  0  0
    6.6580    0.6543  -16.0398 H   0  0  0  0  0  0  0  0  0  0  0  0
    6.5322   -0.5788  -17.3399 H   0  0  0  0  0  0  0  0  0  0  0  0
    4.1924    2.5002  -21.4635 H   0  0  0  0  0  0  0  0  0  0  0  0
    3.3745    1.5285  -20.1933 H   0  0  0  0  0  0  0  0  0  0  0  0
    5.1544    3.8677  -16.9826 H   0  0  0  0  0  0  0  0  0  0  0  0
    6.0033    4.8297  -18.2398 H   0  0  0  0  0  0  0  0  0  0  0  0
    6.0142    3.0740  -19.9409 H   0  0  0  0  0  0  0  0  0  0  0  0
    3.3184    3.3744  -18.5109 H   0  0  0  0  0  0  0  0  0  0  0  0
    4.7427    1.2991  -17.8769 H   0  0  0  0  0  0  0  0  0  0  0  0
    3.6114    5.4833  -16.7263 H   0  0  0  0  0  0  0  0  0  0  0  0
    3.8290    6.1447  -18.2035 H   0  0  0  0  0  0  0  0  0  0  0  0
    3.4592    4.2293  -20.6857 H   0  0  0  0  0  0  0  0  0  0  0  0
  1  2  2  0
  1  3  1  0
  2  8  1  0
  3  9  2  0
  4  8  2  0
  4  9  1  0
  5 10  2  0
  5 11  1  0
  6 10  1  0
  6 12  2  0
  7 11  2  0
  7 12  1  0
  8 14  1  0
  9 18  1  0
 10 20  1  0
 11 29  1  0
 12 30  1  0
 13 14  2  0
 14 24  1  0
 15 19  1  0
 15 25  1  0
 15 27  2  0
 16 17  1  0
 16 18  1  0
 17 18  1  0
 18 26  1  0
 20 22  1  0
 21 23  1  0
 21 26  1  0
 22 23  1  0
 22 25  1  0
 23 28  1  0
 24 31  1  0
 24 32  1  0
 24 33  1  0
  1 34  1  0
  2 35  1  0
  3 36  1  0
  4 37  1  0
  5 38  1  0
  6 39  1  0
  7 40  1  0
 13 41  1  0
 13 42  1  0
 16 43  1  0
 16 44  1  0
 17 45  1  0
 17 46  1  0
 19 47  1  0
 19 48  1  0
 19 49  1  0
 20 50  1  0
 20 51  1  0
 21 52  1  0
 21 53  1  0
 22 54  1  6
 23 55  1  1
 25 56  1  0
 26 57  1  0
 26 58  1  0
 28 59  1  0
M  CHG  1  26   1
M  END
>  <OMEGA_C>  (35) 
gbcIQYjj70CKIJTB3bcBQUezAEH64J3BI1jzQAPY4kAGaozBVjK5QPvC+ECmQJjBavrNQAt5Rj/5
f6zBt7STQDUDKr85aqbBscXVQN9V0788Na3BLkvXQGmPAkHh+5/B2yPHQCUH6EDCaI7BIZakQBrB
ID83G6jBBaHmQKTLub4e967B3zqsQLuK5r/t/ajBq6q0QBca/EDodLHBz7XIQF1AC0FQMarBCk3Z
QOjsuD9mWJDBb1GSQDk9+UAM5X3BXdGvQGqs1UDPL3XBZdalQIF02EC6l4bBy2rhQACTrj7aKojB
kSiLQBTp7D9Ft6TBTp2gQOsmkUA2xI7BL1ijQMhHKUB+9pvBV7WHQHqlckCuh5fB2JrRQJJiIkGP
5qzBr0avQE773T/3LZPBZ1CJQGnmt0CBSYvBC7b3QBXQ+j+g/JTBki98QPgXlkD4EaDB8FEHQRGr
YL467LLBxBOcQDVlQsBiS6fBnvHgQJ0+LUFlRaTBbxzvQAMWI0Fy3LTBEpGsQMHBK0HpH7DBVJ8Z
QQJ07EDUjpLB5z0NQUj+BUF9v6PBrQb+QHXh1EC++YTBl2aXQC4X/EAz25nBp7vaQNGL4T9J+K3B
IONnQD7yR7/5I6PBebHoQFOCIcCtF6/B7yerQOE2BEGVK7nBZ3auQGcT20A4cK/Bz6NfQNV4+EA1
a3rBnW+dQPtQDUHpK37Blf/PQNao3UALR2/B32GiQLZ/u0BXhmvB5wACQYUHGz79kIfBoQ7VQHF9
Jz90UYDBZwfRQNErFL8suIrBDSiGQGYDIEBFtavBf/dXQDmnwz/Ii6HBr/CkQDyId0Bp3IfBUBvA
QCONmkAN65HBAXTAQFC8RED6hp/B+2BUQH71V0BkFpTBT8SXQLZIpj/6A4/BIiFnQIx3r0COz4XB
2A11QJKhxEC2oJHB0GJdQLRWh0BqfKXBLgUJQdaL7UB4FpTBOMACQTtkAUHUfp3BSkfzQAx14ED6
nIzB3fC6QBPg+kBZX5jBk5zNQO+7Rz/Gt6zBrWKVQDQxMb9096XBYVrXQK730b83J63BNanZQGWI
BUHEsJ/B1qHHQDpu50Deu47BoeikQHPZGz8H/6fB6ePmQCKur74iOK/Bg4GuQPVC6L9xlqjB0X7r
QJ7pHEGzb6/Bgb3MQDvCEkGWQqnBGdfaQJi/tD+V/ZDBmmqRQFMH+kBdRX/BvdKuQCoI10DJ6HXB
fImlQEmS2EAHAIfBDgjkQNZDxD6FSIjBN+2KQPyc6D+RkKTBrp2gQPYAkUAW847BnRujQPpLKEDe
7JvB4bqGQFBSb0DQO5fBmdudQDqoFEEU0azBSX2wQHxM3T94OZPBGy2JQDGvt0DUjovBPZ34QMGU
AECAPpXBRflyQFBqk0A0rZ/BORkHQaPONL6WirPBX5GfQHHQQ8A5oKbBX6qCQAi0GEFEmKTB9iWY
QDsiJUGIw7PBBxyTQKIQAkE0wrHBAcIZQRtL50BtnZLBnMoOQcF7BkFCJaPBygj9QJUa0UBTRIXB
CEyZQB2H/UDpO5rBaVvZQDkG4z9Eaa7Be2lsQBK5U788ZqLBo8HqQOQWIMC/Ea/BFx3iQKTEJUGb
ebbBnmoGQU/3G0FbNa3BjqVdQJ9F+UDuCXzBNWWcQJ65DUFj4n/B8crOQL5130Bj3m/BgzihQCJI
vUDuBWzBzmEDQRHRoj7584bBgCjUQL5PMD+G0YDBwsrXQGBbGb+4y4rB4iWFQCZsHUByj6vBfkJY
QC83vT8MR6HBqX6mQPg/eUAs7YfBBl+/QD6KmkAugZLBx3e/QG3BRUBfnZ/BM7VVQK4gUkAgSpPB
67eZQPkOqT84po7BDC5nQO5cr0DhB4bBfV10QB0IxEBp6pHBafNSQJqag0BdyaTBb/sIQY6x7EBu
L5TBh8YCQVDkAEHmoJ3B9CTzQOsH4EB7qozBSgC7QFl//EAqLJjBEobOQD7sUT/GsazBdgSWQGAk
K7+nU6bBj4TYQBKezL/GWq3Bf87ZQDxhBUG4t5/BAo7HQK0R6EAVpo7BkpKlQNkCIz9zI6jBYwzo
QOvcl75KOq/BomuvQKhY5L9y9ajBzXHqQEadGkGlUrDBt2PMQNIgEkErXKnBNH/aQMY0uT+DgJDB
alaRQPOh+UAa1n7BiOOuQCBV1kBk3HXBX3GlQD3R2EBw9IbBDV/jQHXBpD6+kYjBo2CLQDgH6z9x
n6TB82+gQMYUkUDQ0Y7BszajQCCJKEBr1JvBQ6aGQL8Kb0AIFpfBfuycQOjtFkHySavBYDywQIfv
2z+jMJPBjyOJQH4duEAunYvBd3L4QIR5/T8zMpXBRBtyQBc4k0BYgJ/BptIHQYG/870hWrPBx42g
QFwdQsBFIqfBtj+HQO04BEGfhKzBE/yMQIwOIkFn06LBIUyWQO/1IkHoL7TBD7MZQf425kBAt5LB
sswOQYGiBUHbXKPBtdX8QMgr0EC6YYXBsGSZQEO0AEHtxJnBiUTaQAid6D93PK7BwjBtQKrlT7/5
6qLBBR7sQKAYHcDZSa/B0z/gQOlqJEE297bBnwcGQXtsF0EKG6/B0IddQB2r+EANkHvBdzycQHmM
DUFvI3/BjuDOQK6X3kCJyW/B/2ehQNkpvEAnNmzBSQMDQbfiCj79KYjB547XQLVjHD/em4DBqevS
QMLGF783NovBxMyFQCF0H0BLjavBGPtYQB6Rvj8rcqHB++KlQJoMekCgt4fBv2a/QL0ymkBuVJLB
O7m/QOBjRkAvZZ/BE+pVQIlaUUBpHpPBqDSZQI64oT9F/o7BNftlQHkrsEA2MYbB26p1QHh1xEAP
EpLBwDRSQLZPg0DImqTBsADUQCXDBkF4dKDBNv3/QN41BkGV8p3Basq1QIfM/UCFCpnBhozvQO0B
6UAMGo3BHN7MQOgePD/ksqzBbr2SQDsiKL+v2aXBpFvSQMki2b8NhK3BU9sGQYkd+0AyCZTBCtPD
QI2u60B2R4/BbFWkQAFjHj92z6fBaPHjQAgs2L7efK/B5KepQOAD6L8bwKjB/qglQeff30CDuInB
JuAcQWQbAEGl4o/BLgHZQK7Ppz8iE5DBXD+RQFK890Akt33BOsCwQNKg1EDlnnbBaHSkQKaa2UDs
NofBwJ3eQN0TUz79xofB1lyMQJLH7T/GWaTBUtSiQMfckUB41o7BUkelQNfiJ0ATlpvBMgOKQC75
cUCFU5fBtTsnQTFCFkHjxI/BFLevQOhP2z8frpLB3riJQK3Bt0Ddr4vBii34QC/z2T+xJZXBsXx/
QNUGlUCY+J/BwnsFQfSHnr7fELTBfKSYQDYvQsDN6abBUTwkQXD8IEFgGJnBBjUeQQXMIUGNtYfB
qqA8Qc/EFEEc/Y3BiXbJQMYvDUHPB6jBSJcLQbBdDEGzkKPB6wOUQD+X/0Dn0JrBLkT6QJG82EAz
94XBlSzaQDUM2z+FTK7BO2FnQD4RP7/1H6LBqRTkQGNhJcBOqK/BlaozQRAb5kD/54TByYEeQS5q
wEDjuYnBh1NeQFYw9UAJgnnBdQ6bQNTDDEHHRn3BdhfRQAdI3UAPL3HBxTKlQLbwuEBRam3BdzAA
Qca00719hYfBePHUQM6hFD9yun/B/Y/KQHPbJ78c9onBW/OHQOwNIUCWT6vBKtFZQFAeyD+gLaHB
gS+oQLC3ekCuz4fBNdfBQCsUnEAtIJLBHeLCQOvIQUCZE5/B/VVZQBvmV0CSuJPBbZSXQFyNrj/z
O47BTldoQDn6rkAdMobBojt1QHIjw0DZI5LBV5VgQPi2hUCpR6XBVDTaQJzFB0Hu1Z/BcpgCQV9s
BUH2cpzBk524QMJcAEEJNJnByuvsQDx530C/mY3Bma7LQLwqPj8ctKzBdBeTQKCxKL+ZNKXBD9nR
QJju178lYq3B5QYHQYCe9EDlzJLB3r/CQCGu6UBZ0I/BUvujQFpKHj+QbafB6bHiQLDN0b6Lnq/B
iuGpQP26579xQKjBogguQQjLAEEmzpHB6ucaQePv+kBakozBlmLbQOgBrD+QYJDBIQ2PQBAq+0Am
x3/BAditQABL2EDxo3fBB9yhQE/n2kBtzIfBT7fiQJtHkz7LwYfBhAKMQJfQ7D/I6qPBGBahQJTy
kUB3jY7Bv4SlQG7nKEBiaZvBSpGJQK8CckCYNJfB8hwZQZ0AAEF2MoDBt6yxQDSy4D/GdZLBdI6H
QPkxuEDG2ovBH2T5QNW32D+rDZbB0XJ/QEwQlUDe4p/BR2sEQUNwlL48oLTBQE+ZQNovQsDfRabB
8ZgTQSDl2kA2WXbBEcYrQWGJBkFYgHfB99oJQZv1DkGA0nvBZxbTQPgsD0Heb6fBfXwPQTIGDEGG
KaHBLKqXQNt5A0H2SpvBSyH0QHHqxkBuy4fBIWTYQHFg3D9jgK7BUl9pQGHSQL8HK6HB0pLjQOiU
JMB+mq/BRSA8QfU8BUGFU43BTu0uQcXn/UBvYprBHcVZQES0+UCBm3vBm3uZQK9iDkFkHYDBj0nO
QE3u4EBHWnLBg7ChQDPdvUAAu23BnDICQdj0Ab0h5IfB3xXbQKBlNj/6u3/B+fDNQFNHFL8STInB
9YuGQAnIH0Ch56rBuBhaQKgzxj8Kf6DBavukQMyZe0ASZ4fB5L/AQJG/m0Deg5HBymHCQH/XQ0Bi
KJ/BpBVYQPwAV0AyzpPBO3+aQGhVtz9nlo3B0BxkQKZCsEBwRYbBx8NwQOU2wkACcJLBLRRiQDee
hUBHTqXB

>  <OMEGA_E>  (35) 
lPfIPhgKyT7wP8o+9A0WPwydGD8=

>  <OMEGA_NBR>  (35) 
    130513

$$$$
50212883
     RDKit          3D

 75 77  0  0  1  0  0  0  0  0999 V2000
    8.6096    7.6594  -18.4499 C   0  0  0  0  0  0  0  0  0  0  0  0
    7.6824    7.0920  -17.5589 C   0  0  0  0  0  0  0  0  0  0  0  0
    8.1655    8.3640  -19.5821 C   0  0  0  0  0  0  0  0  0  0  0  0
    5.8633    7.8709  -18.9724 C   0  0  0  0  0  0  0  0  0  0  0  0
    6.3192    0.7939  -21.5442 C   0  0  0  0  0  0  0  0  0  0  0  0
    4.5585   -0.6720  -20.6916 C   0  0  0  0  0  0  0  0  0  0  0  0
    6.6373   -1.6203  -21.5429 C   0  0  0  0  0  0  0  0  0  0  0  0
    6.2900    7.2049  -17.8073 C   0  0  0  0  0  0  0  0  0  0  0  0
    6.7787    8.5026  -19.8392 C   0  0  0  0  0  0  0  0  0  0  0  0
    5.0415    0.6193  -20.9708 C   0  0  0  0  0  0  0  0  0  0  0  0
    7.1224   -0.3250  -21.8151 C   0  0  0  0  0  0  0  0  0  0  0  0
    5.3523   -1.7917  -20.9873 C   0  0  0  0  0  0  0  0  0  0  0  0
    6.7883    1.4977  -18.0056 C   0  0  0  0  0  0  0  0  0  0  0  0
    4.8739    8.7338  -15.5051 C   0  0  0  0  0  0  0  0  0  0  0  0
    4.2086    7.7304  -16.4358 C   0  0  0  0  0  0  0  0  0  0  0  0
    5.8065    5.9346  -15.5935 C   0  0  0  0  0  0  0  0  0  0  0  0
    5.4245    7.9793  -14.2823 C   0  0  2  0  0  0  0  0  0  0  0  0
    5.2154    6.6280  -16.8569 C   0  0  2  0  0  0  0  0  0  0  0  0
    7.0837    0.5300  -16.8625 C   0  0  0  0  0  0  0  0  0  0  0  0
    6.1231    8.9585  -13.3513 C   0  0  0  0  0  0  0  0  0  0  0  0
    5.8673    8.1606  -22.1394 C   0  0  0  0  0  0  0  0  0  0  0  0
    7.2942   10.1931  -21.7030 C   0  0  0  0  0  0  0  0  0  0  0  0
    4.9900   10.0770  -20.7383 C   0  0  0  0  0  0  0  0  0  0  0  0
    4.2446    1.8160  -20.5443 C   0  0  0  0  0  0  0  0  0  0  0  0
    5.0983    4.4752  -17.9713 C   0  0  0  0  0  0  0  0  0  0  0  0
    5.0536    2.5924  -19.4958 C   0  0  1  0  0  0  0  0  0  0  0  0
    4.2220    3.7286  -18.9440 C   0  0  2  0  0  0  0  0  0  0  0  0
    6.2467    9.2276  -21.0880 C   0  0  0  0  0  0  0  0  0  0  0  0
    6.3921    6.9399  -14.6939 N   0  0  0  0  0  0  0  0  0  0  0  0
    5.4654    1.6988  -18.3892 N   0  0  0  0  0  0  0  0  0  0  0  0
    4.3863    5.6689  -17.5690 N   0  0  0  0  0  0  0  0  0  0  0  0
    7.7056    2.1433  -18.5021 O   0  0  0  0  0  0  0  0  0  0  0  0
    3.8299    4.6014  -20.0064 O   0  0  0  0  0  0  0  0  0  0  0  0
    8.3629   -0.1529  -22.3236 F   0  0  0  0  0  0  0  0  0  0  0  0
    4.8850   -3.0305  -20.7196 F   0  0  0  0  0  0  0  0  0  0  0  0
    9.6681    7.5536  -18.2636 H   0  0  0  0  0  0  0  0  0  0  0  0
    8.0312    6.5678  -16.6815 H   0  0  0  0  0  0  0  0  0  0  0  0
    8.8842    8.8016  -20.2591 H   0  0  0  0  0  0  0  0  0  0  0  0
    4.8096    7.8986  -19.2077 H   0  0  0  0  0  0  0  0  0  0  0  0
    6.6782    1.7862  -21.7742 H   0  0  0  0  0  0  0  0  0  0  0  0
    3.5808   -0.8016  -20.2515 H   0  0  0  0  0  0  0  0  0  0  0  0
    7.2504   -2.4825  -21.7601 H   0  0  0  0  0  0  0  0  0  0  0  0
    5.6980    9.2376  -16.0315 H   0  0  0  0  0  0  0  0  0  0  0  0
    4.1363    9.4814  -15.1780 H   0  0  0  0  0  0  0  0  0  0  0  0
    3.3579    7.2644  -15.9169 H   0  0  0  0  0  0  0  0  0  0  0  0
    3.8484    8.2535  -17.3339 H   0  0  0  0  0  0  0  0  0  0  0  0
    5.0056    5.3961  -15.0656 H   0  0  0  0  0  0  0  0  0  0  0  0
    6.5866    5.2224  -15.9005 H   0  0  0  0  0  0  0  0  0  0  0  0
    4.5854    7.5113  -13.7468 H   0  0  0  0  0  0  0  0  0  0  0  0
    8.1588    0.5526  -16.6308 H   0  0  0  0  0  0  0  0  0  0  0  0
    6.5106    0.8284  -15.9722 H   0  0  0  0  0  0  0  0  0  0  0  0
    6.7943   -0.4885  -17.1604 H   0  0  0  0  0  0  0  0  0  0  0  0
    6.5161    8.4178  -12.4777 H   0  0  0  0  0  0  0  0  0  0  0  0
    6.9529    9.4440  -13.8857 H   0  0  0  0  0  0  0  0  0  0  0  0
    5.4054    9.7222  -13.0172 H   0  0  0  0  0  0  0  0  0  0  0  0
    5.4834    8.6562  -23.0434 H   0  0  0  0  0  0  0  0  0  0  0  0
    6.7569    7.5670  -22.3966 H   0  0  0  0  0  0  0  0  0  0  0  0
    5.0916    7.4989  -21.7267 H   0  0  0  0  0  0  0  0  0  0  0  0
    6.8656   10.6839  -22.5892 H   0  0  0  0  0  0  0  0  0  0  0  0
    7.5709   10.9554  -20.9597 H   0  0  0  0  0  0  0  0  0  0  0  0
    8.1893    9.6246  -21.9958 H   0  0  0  0  0  0  0  0  0  0  0  0
    4.6270   10.5856  -21.6436 H   0  0  0  0  0  0  0  0  0  0  0  0
    4.2005    9.4192  -20.3459 H   0  0  0  0  0  0  0  0  0  0  0  0
    5.2543   10.8266  -19.9778 H   0  0  0  0  0  0  0  0  0  0  0  0
    4.0492    2.4606  -21.4139 H   0  0  0  0  0  0  0  0  0  0  0  0
    3.2892    1.4891  -20.1081 H   0  0  0  0  0  0  0  0  0  0  0  0
    5.3034    3.8465  -17.0923 H   0  0  0  0  0  0  0  0  0  0  0  0
    6.0472    4.7495  -18.4555 H   0  0  0  0  0  0  0  0  0  0  0  0
    5.9491    3.0085  -19.9804 H   0  0  0  0  0  0  0  0  0  0  0  0
    3.3423    3.3258  -18.4207 H   0  0  0  0  0  0  0  0  0  0  0  0
    6.7298    6.4764  -13.8747 H   0  0  0  0  0  0  0  0  0  0  0  0
    4.7508    1.2108  -17.8879 H   0  0  0  0  0  0  0  0  0  0  0  0
    3.6301    5.4002  -16.9725 H   0  0  0  0  0  0  0  0  0  0  0  0
    4.0232    6.1119  -18.3887 H   0  0  0  0  0  0  0  0  0  0  0  0
    3.2778    4.1285  -20.6179 H   0  0  0  0  0  0  0  0  0  0  0  0
  1  2  2  0
  1  3  1  0
  2  8  1  0
  3  9  2  0
  4  8  2  0
  4  9  1  0
  5 10  2  0
  5 11  1  0
  6 10  1  0
  6 12  2  0
  7 11  2  0
  7 12  1  0
  8 18  1  0
  9 28  1  0
 10 24  1  0
 11 34  1  0
 12 35  1  0
 13 19  1  0
 13 30  1  0
 13 32  2  0
 14 15  1  0
 14 17  1  0
 15 18  1  0
 16 18  1  0
 16 29  1  0
 17 20  1  0
 17 29  1  0
 18 31  1  6
 21 28  1  0
 22 28  1  0
 23 28  1  0
 24 26  1  0
 25 27  1  0
 25 31  1  0
 26 27  1  0
 26 30  1  0
 27 33  1  0
  1 36  1  0
  2 37  1  0
  3 38  1  0
  4 39  1  0
  5 40  1  0
  6 41  1  0
  7 42  1  0
 14 43  1  0
 14 44  1  0
 15 45  1  0
 15 46  1  0
 16 47  1  0
 16 48  1  0
 17 49  1  1
 19 50  1  0
 19 51  1  0
 19 52  1  0
 20 53  1  0
 20 54  1  0
 20 55  1  0
 21 56  1  0
 21 57  1  0
 21 58  1  0
 22 59  1  0
 22 60  1  0
 22 61  1  0
 23 62  1  0
 23 63  1  0
 23 64  1  0
 24 65  1  0
 24 66  1  0
 25 67  1  0
 25 68  1  0
 26 69  1  6
 27 70  1  1
 29 71  1  0
 30 72  1  0
 31 73  1  0
 31 74  1  0
 33 75  1  0
M  CHG  1  31   1
M  END
>  <OMEGA_C>  (36) 
6sAJQQQa9UBQmZPB6dX1QJHx4kC6eIzB/6UCQfHSBUErqJzBDqC7QK7e+0CHx5fB+jbKQD88Sz+Z
WqzBON+RQE4FLL9viKXBCGXUQOpkz7/hV6zB4kfJQEGO5kBpdY7B5urYQLcKCEGZtp7B11OhQPOL
Hj86xKfBDOvjQLBkpr5Pha7B2UWrQMBV5b/x5afB6jnZQN61vz9wC5DBY/ebQIu9C0HvFHjB7ayG
QCNf90CRfIPBvM65QAzovUADf3nB0pWtQIpW/0A5hGTB3+SmQIsY1EDc2obBsK3iQDyuBz9N5obB
PvDDQAZWD0HLnlXB+cC7QAWSAkGRHbHBZWrpQAQXI0Gnn63BT66fQHk7IUH056XB+9OHQJhy6D+2
WqTBOSWjQH80j0BRxY/Bs7ahQGjqJUBW95vBZxqHQGShbkBajZfBoOTHQEukE0EitKjB0YvMQJUT
3kBKGmvBROSuQLdx2T8pHZPB9VyMQK9ntUBcjYzB6JP2QC0rCUBKBJTBSR11QAk/k0ASDaDBn84F
QQyeHL7OlrLBCVKcQFD0QcDIwaXBsLAaQfy28UDXG5LB538AQUAr0kC7c4XBxyUOQXPTDEG2EqLB
MuiZQBzB/EBrqZnB2bPVQNuh5D94Ma7BzitlQFk0Tb8UA6LBQwPoQKrgHsCuFK7B1FW2QETNE0GW
QIDB7lyEQMizF0EM2XLBpOhWQNh16EDHq37Bs0t2QFsOBEHXq4rBRy6gQPGsrECWDHHBOcXSQOYd
p0CaaH7BYLuSQJ1c8EDI8lvBbYoCQYl0DT/eC4XBxVbQQMATVD9Fjn/BgmrZQPIh+r6OSInBJYTQ
QICvBkF5pEfBgX7eQJkaF0HWK17Bz/isQFaOG0GFRlDBFHivQJ9/CkHSWLjBmTjYQKYk8kBULLPB
be6iQLX270BW0K3BpbLbQB/xKkGltrTBFUXyQExJL0GKrafBMQcDQV7+GUFO96/BvRCUQKVeKUEG
Jq3Bu2qGQPe0FkFrxKLBHSOoQJ45LUF40p/BPpOBQA97HUC3T6vBvoFSQPiavj9x3aDBxLWpQM4s
dkATvYjBioLBQJn7l0DGpJPB4l6+QOyLQEDj15/BkOdVQMbZVECgXZPBm1rXQMw+z0DE/l3B2waY
QCz8mj9qGo/BEFNoQHjOrECtx4fB5L2AQASVw0ACHJPB4cZRQAgdhECI8aTBfsQJQcDB9UBShJPB
meT1QDxh40AEbIzBiqYCQVMXBkHzlpzBt6i7QDHp+0CsyJfBukXKQFRlSz9zQazB5hCSQGFpLL9W
ZKXBprbUQM4iz7+GKKzBllnJQA+y5kBkc47BquvYQEgXCEG2tZ7BW2mhQF4+Hj9cqafBhBvkQNMX
pb74X67BLJSrQC1a5b95uafB3e3YQAYxxj+Np4/BvE+cQDOGC0GXoXfBWP6GQB6I90DAaoPBKv65
QFx4vUBWpXnBRYGtQIsj/kDrNmTBDAOnQPUq1EC024bBG3riQM/Y/j7VIIfB44bDQBxkDkEr2lTB
RtzpQHFdIkHh763B4s2gQLD8IUFGw6XBObC5QJGWAkGB7LDBH9SHQDM+6D9jSqTBoROjQEl3j0Cf
0o/BuLOhQEQ1JkAu8ZvBowaHQLr5bkAYkpfBz8rHQA+pE0G8sqjB6JnMQI833UAxAmvBg9OuQM3E
2j82DZPBdGCMQIOxtUDzmIzBL7H2QC9IB0DjLZTBzNF0QPtMk0CdFaDByuQFQTs4F77fcbLBebKc
QIcCQsA2lKXBRrQaQW6i8kC+/ZHBaYgAQUqp0kAcZYXB2iMOQVg3DUGA+KHB6PKZQHGq/EDBrZnB
kKPVQOq65D8II67BRJNlQN3rTb+d3qHBynDoQIerHsBr263BOeW2QHOgE0HK13/BcM6EQKV7F0Hp
R3LB7A5XQAqc6EBXvX7B1qF3QNJjBEGjj4rBg2mgQAPoq0AlVnHBjQnTQD/ppkDJt37B3nmSQD3G
7kBL9lvBQagCQbdDyD6CM4bBx1jUQDitTz/i737BYKTUQM/x7r40kYnBT8XPQNttBUE+/0bBoUne
QIZVFkGFE13BFHSsQAiAGkE0X0/BBgXcQIw3KkELA7XBCRb0QN6XLkGtJajBfNICQTK2GEGFXbDB
kgeVQE0cKkE6/qzB4CuHQK36F0FeZaLBa6SqQDkALkEc0p/BgVCtQNuJCkHDI7jBGEbVQH0S8UC4
ErPBPHGgQAwS8UA8aa3BQn6BQGUWHUAQRavBapdSQLBevj+mx6DBwrepQGfMdkA0yYjBOGbBQIk4
mEAkuJPBflu+QPG6QEDl1J/Bg9FVQFo9VUCgXZPBpGnXQMwGzkBNAV7BpAaYQL6tmD8sQI/BESto
QDgjrUCE2YfBXOSAQCMAxEDuJpPB+nFRQGIYhEBm9aTB

>  <OMEGA_E>  (36) 
oIlRPlC5Uj4=

>  <OMEGA_NBR>  (36) 
    133206

$$$$
50212888
     RDKit          3D

 77 79  0  0  1  0  0  0  0  0999 V2000
    8.5956    7.5118  -18.4278 C   0  0  0  0  0  0  0  0  0  0  0  0
    7.6350    7.0304  -17.5172 C   0  0  0  0  0  0  0  0  0  0  0  0
    8.1936    8.2134  -19.5805 C   0  0  0  0  0  0  0  0  0  0  0  0
    5.8727    7.8592  -18.9638 C   0  0  0  0  0  0  0  0  0  0  0  0
    6.3169    0.8070  -21.6057 C   0  0  0  0  0  0  0  0  0  0  0  0
    4.5703   -0.6559  -20.7210 C   0  0  0  0  0  0  0  0  0  0  0  0
    6.5803   -1.6130  -21.7159 C   0  0  0  0  0  0  0  0  0  0  0  0
    6.2547    7.2301  -17.7649 C   0  0  0  0  0  0  0  0  0  0  0  0
    6.8162    8.4217  -19.8420 C   0  0  0  0  0  0  0  0  0  0  0  0
    5.0672    0.6369  -20.9733 C   0  0  0  0  0  0  0  0  0  0  0  0
    7.0781   -0.3180  -21.9655 C   0  0  0  0  0  0  0  0  0  0  0  0
    5.3229   -1.7800  -21.0999 C   0  0  0  0  0  0  0  0  0  0  0  0
    7.3823    7.1991  -14.0780 C   0  0  0  0  0  0  0  0  0  0  0  0
    6.8842    1.4432  -18.0604 C   0  0  0  0  0  0  0  0  0  0  0  0
    4.7701    8.9802  -15.6530 C   0  0  0  0  0  0  0  0  0  0  0  0
    4.1265    7.8957  -16.5279 C   0  0  0  0  0  0  0  0  0  0  0  0
    5.1855    8.3482  -14.3281 C   0  0  0  0  0  0  0  0  0  0  0  0
    5.6028    6.1384  -15.4683 C   0  0  0  0  0  0  0  0  0  0  0  0
    5.1299    6.7373  -16.8220 C   0  0  2  0  0  0  0  0  0  0  0  0
    8.1098    5.8699  -13.8451 C   0  0  0  0  0  0  0  0  0  0  0  0
    7.1928    0.3207  -17.0735 C   0  0  0  0  0  0  0  0  0  0  0  0
    5.9010    8.0997  -22.1481 C   0  0  0  0  0  0  0  0  0  0  0  0
    7.3880   10.0901  -21.7052 C   0  0  0  0  0  0  0  0  0  0  0  0
    5.0754   10.0450  -20.7595 C   0  0  0  0  0  0  0  0  0  0  0  0
    4.2955    1.8361  -20.4996 C   0  0  0  0  0  0  0  0  0  0  0  0
    5.1268    4.5334  -17.9057 C   0  0  0  0  0  0  0  0  0  0  0  0
    5.1217    2.6121  -19.4556 C   0  0  1  0  0  0  0  0  0  0  0  0
    4.2766    3.7338  -18.8730 C   0  0  2  0  0  0  0  0  0  0  0  0
    6.3103    9.1561  -21.0976 C   0  0  0  0  0  0  0  0  0  0  0  0
    6.0909    7.2166  -14.5927 N   0  0  0  0  0  0  0  0  0  0  0  0
    5.5541    1.7076  -18.3707 N   0  0  0  0  0  0  0  0  0  0  0  0
    4.3524    5.7142  -17.5181 N   0  0  0  0  0  0  0  0  0  0  0  0
    7.9538    8.2477  -13.8025 O   0  0  0  0  0  0  0  0  0  0  0  0
    7.8043    1.9825  -18.6663 O   0  0  0  0  0  0  0  0  0  0  0  0
    3.8320    4.5875  -19.9298 O   0  0  0  0  0  0  0  0  0  0  0  0
    8.2898   -0.1538  -22.5416 F   0  0  0  0  0  0  0  0  0  0  0  0
    4.8418   -3.0195  -20.8597 F   0  0  0  0  0  0  0  0  0  0  0  0
    9.6457    7.3419  -18.2410 H   0  0  0  0  0  0  0  0  0  0  0  0
    7.9519    6.5073  -16.6271 H   0  0  0  0  0  0  0  0  0  0  0  0
    8.9360    8.5936  -20.2666 H   0  0  0  0  0  0  0  0  0  0  0  0
    4.8242    7.9117  -19.2173 H   0  0  0  0  0  0  0  0  0  0  0  0
    6.6878    1.8000  -21.8128 H   0  0  0  0  0  0  0  0  0  0  0  0
    3.6130   -0.7832  -20.2374 H   0  0  0  0  0  0  0  0  0  0  0  0
    7.1626   -2.4782  -21.9967 H   0  0  0  0  0  0  0  0  0  0  0  0
    5.6546    9.3912  -16.1617 H   0  0  0  0  0  0  0  0  0  0  0  0
    4.0454    9.7869  -15.4685 H   0  0  0  0  0  0  0  0  0  0  0  0
    3.2497    7.4865  -16.0047 H   0  0  0  0  0  0  0  0  0  0  0  0
    3.8085    8.3451  -17.4802 H   0  0  0  0  0  0  0  0  0  0  0  0
    5.7031    9.0965  -13.7100 H   0  0  0  0  0  0  0  0  0  0  0  0
    4.2923    7.9880  -13.7965 H   0  0  0  0  0  0  0  0  0  0  0  0
    4.7606    5.6249  -14.9814 H   0  0  0  0  0  0  0  0  0  0  0  0
    6.4149    5.4192  -15.6504 H   0  0  0  0  0  0  0  0  0  0  0  0
    9.1114    6.0664  -13.4349 H   0  0  0  0  0  0  0  0  0  0  0  0
    7.5360    5.2577  -13.1337 H   0  0  0  0  0  0  0  0  0  0  0  0
    8.2039    5.3314  -14.7996 H   0  0  0  0  0  0  0  0  0  0  0  0
    8.2782    0.1441  -17.0460 H   0  0  0  0  0  0  0  0  0  0  0  0
    6.8426    0.6075  -16.0710 H   0  0  0  0  0  0  0  0  0  0  0  0
    6.6798   -0.5987  -17.3920 H   0  0  0  0  0  0  0  0  0  0  0  0
    5.5360    8.6053  -23.0544 H   0  0  0  0  0  0  0  0  0  0  0  0
    6.7722    7.4776  -22.4011 H   0  0  0  0  0  0  0  0  0  0  0  0
    5.1033    7.4637  -21.7368 H   0  0  0  0  0  0  0  0  0  0  0  0
    6.9805   10.5901  -22.5963 H   0  0  0  0  0  0  0  0  0  0  0  0
    7.6791   10.8465  -20.9615 H   0  0  0  0  0  0  0  0  0  0  0  0
    8.2696    9.4966  -21.9890 H   0  0  0  0  0  0  0  0  0  0  0  0
    4.7324   10.5586  -21.6698 H   0  0  0  0  0  0  0  0  0  0  0  0
    4.2649    9.4128  -20.3679 H   0  0  0  0  0  0  0  0  0  0  0  0
    5.3572   10.7910  -20.0018 H   0  0  0  0  0  0  0  0  0  0  0  0
    4.0801    2.4926  -21.3555 H   0  0  0  0  0  0  0  0  0  0  0  0
    3.3505    1.5052  -20.0443 H   0  0  0  0  0  0  0  0  0  0  0  0
    5.3580    3.9269  -17.0177 H   0  0  0  0  0  0  0  0  0  0  0  0
    6.0634    4.8412  -18.3936 H   0  0  0  0  0  0  0  0  0  0  0  0
    6.0033    3.0452  -19.9507 H   0  0  0  0  0  0  0  0  0  0  0  0
    3.4189    3.3028  -18.3358 H   0  0  0  0  0  0  0  0  0  0  0  0
    4.8469    1.2574  -17.8256 H   0  0  0  0  0  0  0  0  0  0  0  0
    3.6110    5.4192  -16.9153 H   0  0  0  0  0  0  0  0  0  0  0  0
    3.9668    6.1221  -18.3457 H   0  0  0  0  0  0  0  0  0  0  0  0
    3.2988    4.0886  -20.5375 H   0  0  0  0  0  0  0  0  0  0  0  0
  1  2  2  0
  1  3  1  0
  2  8  1  0
  3  9  2  0
  4  8  2  0
  4  9  1  0
  5 10  2  0
  5 11  1  0
  6 10  1  0
  6 12  2  0
  7 11  2  0
  7 12  1  0
  8 19  1  0
  9 29  1  0
 10 25  1  0
 11 36  1  0
 12 37  1  0
 13 20  1  0
 13 30  1  0
 13 33  2  0
 14 21  1  0
 14 31  1  0
 14 34  2  0
 15 16  1  0
 15 17  1  0
 16 19  1  0
 17 30  1  0
 18 19  1  0
 18 30  1  0
 19 32  1  6
 22 29  1  0
 23 29  1  0
 24 29  1  0
 25 27  1  0
 26 28  1  0
 26 32  1  0
 27 28  1  0
 27 31  1  0
 28 35  1  0
  1 38  1  0
  2 39  1  0
  3 40  1  0
  4 41  1  0
  5 42  1  0
  6 43  1  0
  7 44  1  0
 15 45  1  0
 15 46  1  0
 16 47  1  0
 16 48  1  0
 17 49  1  0
 17 50  1  0
 18 51  1  0
 18 52  1  0
 20 53  1  0
 20 54  1  0
 20 55  1  0
 21 56  1  0
 21 57  1  0
 21 58  1  0
 22 59  1  0
 22 60  1  0
 22 61  1  0
 23 62  1  0
 23 63  1  0
 23 64  1  0
 24 65  1  0
 24 66  1  0
 24 67  1  0
 25 68  1  0
 25 69  1  0
 26 70  1  0
 26 71  1  0
 27 72  1  6
 28 73  1  1
 31 74  1  0
 32 75  1  0
 32 76  1  0
 35 77  1  0
M  CHG  1  32   1
M  END
>  <OMEGA_C>  (37) 
mYcJQZxg8EAobJPB+1H0QDL54EBOI4zB5hgDQT9qA0HrpJzBRO27QFd++0D0tZfBTSTKQJCZTj94
2KzBmT+SQLzqJ7+TxKXBHJLSQHh3zr8euq3BiSbIQJpc50B4Ho7B/B3aQDS/BkF7vJ7BdyaiQLcI
Iz9SyafBZX/iQMXQor5lua/BklWqQJnX47+JzKjBEzzsQBJf5kBXP2HBbUvcQMm6uD/De5DBxKSY
QPmuD0GkcnrBRgyEQI+p/EArOYTBUu+lQDiSBUHQP2XB7kmzQLhtxEAqfnfB1yekQPyX10CCk4bB
0MEBQf3Vu0BthV3ByivmQJw1pD6DlojBttS8QGyYAUFhL7HBn2rsQCZxIUFZpK3BqGmiQHi4IEFw
E6bBInWJQK8E6z8z/6PBqg6kQAQSkUDzPo/BrOSjQAwsJ0AJpZvBStqIQEz3bkDg+5bB0+3JQHt/
EkHQx6jBgujCQHXu5kC5e2nBgLuxQOOR2j9E95LB0kaLQJ7atkAkJYzB34X+QI/2A0EP11zB9rz5
QB/E/T+UVJXBOD91QADNkkAwcJ/B+6IEQdR3Hb5LVbTB6u+aQOw/QcCo4KbBs1QaQRrx6kCZ7ZHB
/HX+QKo70EBZBIXB9fkOQU9/CUHzIaLBtF+aQIEs/UD6vJnBfALWQA5m5j+XgK7BFDtnQNd/SL9J
5qHBUjTlQDCaHsA7+a/BYvK0QE5CFkE0S4HB53OBQCqXHEHlfnfBn/pPQCaR70C3CYDBzr5zQLSF
BUF+14vBxX+2QGmLEUEVXFvBvlqJQIGd/0CUvlzBvFaYQCT/s0D0s2/BL0fNQBZqrUDqZ3rBMMgR
QeAfwkA/9VbBFSfxQEI/qEC0I1LBB0MDQXWaqkA9y2zBnXMEQUKSEz4iXojBsPbaQE+HGz9SkYDB
QMHVQGVGGb/GIovBOSexQDivCUFQb7jBw7XYQMpI70B1NbPBJE6jQGnW7kAL5a3B/V/fQBZxKUEp
xbTBd7v1QCmLLUEfsafBSlAEQQ/yF0GH6a/BL3CXQDHwKEGsW63B0XmIQOSaFkF38aLBEm6rQBOo
LEG0A6DBFZCCQMSGH0AT2KrBE25WQA6qwD+qWqDBvHSrQKlRe0BGJIjBpAfCQPnqmkASJpPBFhvA
QG/kQkD3mp/B0c9aQJVhU0C+r5LBLhqbQAjyoD/Dmo7BNxtnQB5qrUCZUofB4t99QCXow0ASxJLB
+x9TQGvVgkC1TKTBbLQJQcKs8UDYJJPBAHf0QI634UB2/4vBl2EDQU4ABEGaZZzB9UW8QMKI+0C1
xpfBWlDKQJSbTz/i0azBJtORQEg6Jr/wAKbBPKnSQPPxzb96rK3BfUHIQLNK50A1M47B67TaQOz3
BkHYqp7BEPOhQBBuJD9l8qfBcNTiQK0hob4BlK/B6RKqQKwa47/H7KjBu1jmQEwt30BRFFzB4fzb
QHFiuz9VZZDB7FaYQEm9D0GDHnzBL1SDQOY5+0CiYITB2uapQA8QB0GS/mbBZRK0QMwpxUA8CHjB
nimkQKE010AwwYbBEQT6QJpFskA2ZlrBcM7lQMEIrz5KfojBjBHuQNKzIEFF6a3BGgilQDQIIkEY
xKXBvwm7QMYIAkGt4rDBTEeJQES76z/ULaTB26SkQNvPkEDqdY/B28GjQOvoJkBLyZvBbdOIQBUe
bkBOApfBFrnKQFDOEkEyr6jB2SLFQGnT50DEZ2rBTIixQCby2D9IKpPBoYuLQPL7tUBAL4zBK8zy
QGbJ+kBmoE/BrIT5QHM1AkBg+ZTBIPtyQI85kkBsX5/BQwIFQfhFG77g9rPBuo6aQN3TQMC0CKfB
c38aQXfD7EDhhJHB5WH+QM0y0UA904TB31QPQQhSCkFYx6HBt86aQF4A/UDT5pnB71XWQJrW5j/8
bK7Blc5lQFlqRr8xR6LBUGHlQCplHsCw2q/BOLSyQCqUFkE+yILBvHaAQPM8HEFMzHjBfGlRQOjv
7UAYWn/BRQFuQA77A0EH+4vBhh69QE6YE0FmOV/BSe2OQJ2yAkFckFzBQ0iZQH1/tUDnuW/BsoPN
QDqarUClDnvBDecIQXPGsUDubU3BUKngQLHYmkCa9FbBctUEQQAEqkASnWnBAVEEQTofRz7D/4fB
+k/ZQHNIHD9KjYDBj4rWQAafFr8nO4vBXQbhQAbLKEFxA7XBg0L5QNW9LEFIIqjBMoMEQRtwFkGg
S7DBlPyZQIBdKkEyAq3BkIeKQFSiGEFkYaLBXfSvQM3ZLUE62J/BbHavQNY4CkEjHrjBTKTVQNWk
7kC8ArPBe9mgQG488UDlXK3Bp5iCQKUZIEC7BKvBJtpVQCq8wT/Vk6DBIS2tQF/cekBkbojB7vzB
QJ8wm0APkpPBBfm/QEPjQkCdt5/BYedbQLIcUkAXiJLBvNyaQJINmz9nDY/BLgNpQFMDrEBCOYfB
fJN8QPHTwkAwuJLBqRFQQNoagkAOHaTB

>  <OMEGA_E>  (37) 
sNBBPoAFRD4=

>  <OMEGA_NBR>  (37) 
    135952

$$$$
50212887
     RDKit          3D

 77 79  0  0  1  0  0  0  0  0999 V2000
    8.6359    7.6398  -18.4558 C   0  0  0  0  0  0  0  0  0  0  0  0
    7.7048    7.0483  -17.5842 C   0  0  0  0  0  0  0  0  0  0  0  0
    8.1972    8.3816  -19.5666 C   0  0  0  0  0  0  0  0  0  0  0  0
    5.8931    7.9001  -18.9614 C   0  0  0  0  0  0  0  0  0  0  0  0
    6.2822    0.7814  -21.5384 C   0  0  0  0  0  0  0  0  0  0  0  0
    4.5421   -0.6882  -20.6497 C   0  0  0  0  0  0  0  0  0  0  0  0
    6.6133   -1.6302  -21.5256 C   0  0  0  0  0  0  0  0  0  0  0  0
    6.3134    7.2029  -17.8118 C   0  0  0  0  0  0  0  0  0  0  0  0
    6.8113    8.5306  -19.8232 C   0  0  0  0  0  0  0  0  0  0  0  0
    5.0150    0.6030  -20.9437 C   0  0  0  0  0  0  0  0  0  0  0  0
    7.0875   -0.3341  -21.8130 C   0  0  0  0  0  0  0  0  0  0  0  0
    5.3371   -1.8051  -20.9505 C   0  0  0  0  0  0  0  0  0  0  0  0
    6.8136    1.5803  -17.9638 C   0  0  0  0  0  0  0  0  0  0  0  0
    4.8320    8.7307  -15.5594 C   0  0  0  0  0  0  0  0  0  0  0  0
    6.3350    6.9143  -14.5829 C   0  0  0  0  0  0  0  0  0  0  0  0
    4.2027    7.7104  -16.4823 C   0  0  0  0  0  0  0  0  0  0  0  0
    5.7848    5.9131  -15.5986 C   0  0  0  0  0  0  0  0  0  0  0  0
    5.2927    8.0142  -14.2844 C   0  0  1  0  0  0  0  0  0  0  0  0
    5.2291    6.6208  -16.8735 C   0  0  2  0  0  0  0  0  0  0  0  0
    7.1489    0.5440  -16.8947 C   0  0  0  0  0  0  0  0  0  0  0  0
    7.3514   10.1520  -21.7416 C   0  0  0  0  0  0  0  0  0  0  0  0
    5.0792   10.1807  -20.6960 C   0  0  0  0  0  0  0  0  0  0  0  0
    5.8037    8.1949  -22.0862 C   0  0  0  0  0  0  0  0  0  0  0  0
    4.2213    1.7965  -20.5107 C   0  0  0  0  0  0  0  0  0  0  0  0
    5.8935    9.0508  -13.3497 C   0  0  0  0  0  0  0  0  0  0  0  0
    5.1279    4.4841  -18.0049 C   0  0  0  0  0  0  0  0  0  0  0  0
    5.0511    2.5839  -19.4893 C   0  0  1  0  0  0  0  0  0  0  0  0
    4.2259    3.7185  -18.9325 C   0  0  2  0  0  0  0  0  0  0  0  0
    6.2766    9.2596  -21.0690 C   0  0  0  0  0  0  0  0  0  0  0  0
    5.4914    1.7031  -18.3824 N   0  0  0  0  0  0  0  0  0  0  0  0
    4.4126    5.6704  -17.6023 N   0  0  0  0  0  0  0  0  0  0  0  0
    7.7239    2.1720  -18.5347 O   0  0  0  0  0  0  0  0  0  0  0  0
    6.2223    8.4209  -12.1222 O   0  0  0  0  0  0  0  0  0  0  0  0
    3.7888    4.5728  -19.9928 O   0  0  0  0  0  0  0  0  0  0  0  0
    8.3195   -0.1576  -22.3399 F   0  0  0  0  0  0  0  0  0  0  0  0
    4.8807   -3.0443  -20.6670 F   0  0  0  0  0  0  0  0  0  0  0  0
    9.6937    7.5238  -18.2712 H   0  0  0  0  0  0  0  0  0  0  0  0
    8.0506    6.4736  -16.7377 H   0  0  0  0  0  0  0  0  0  0  0  0
    8.9188    8.8396  -20.2268 H   0  0  0  0  0  0  0  0  0  0  0  0
    4.8385    7.9525  -19.1880 H   0  0  0  0  0  0  0  0  0  0  0  0
    6.6312    1.7741  -21.7816 H   0  0  0  0  0  0  0  0  0  0  0  0
    3.5716   -0.8198  -20.1945 H   0  0  0  0  0  0  0  0  0  0  0  0
    7.2279   -2.4905  -21.7461 H   0  0  0  0  0  0  0  0  0  0  0  0
    5.6958    9.1971  -16.0557 H   0  0  0  0  0  0  0  0  0  0  0  0
    4.0938    9.5051  -15.3038 H   0  0  0  0  0  0  0  0  0  0  0  0
    6.5797    6.3854  -13.6500 H   0  0  0  0  0  0  0  0  0  0  0  0
    7.2448    7.3794  -14.9902 H   0  0  0  0  0  0  0  0  0  0  0  0
    3.3513    7.2375  -15.9709 H   0  0  0  0  0  0  0  0  0  0  0  0
    3.8486    8.2165  -17.3925 H   0  0  0  0  0  0  0  0  0  0  0  0
    6.5926    5.2283  -15.8959 H   0  0  0  0  0  0  0  0  0  0  0  0
    4.9726    5.3396  -15.1280 H   0  0  0  0  0  0  0  0  0  0  0  0
    4.4200    7.5534  -13.7985 H   0  0  0  0  0  0  0  0  0  0  0  0
    8.2408    0.4723  -16.7824 H   0  0  0  0  0  0  0  0  0  0  0  0
    6.7011    0.8474  -15.9369 H   0  0  0  0  0  0  0  0  0  0  0  0
    6.7462   -0.4349  -17.1940 H   0  0  0  0  0  0  0  0  0  0  0  0
    6.9181   10.6476  -22.6229 H   0  0  0  0  0  0  0  0  0  0  0  0
    7.6964   10.9128  -21.0259 H   0  0  0  0  0  0  0  0  0  0  0  0
    8.2027    9.5288  -22.0530 H   0  0  0  0  0  0  0  0  0  0  0  0
    4.7133   10.6910  -21.5992 H   0  0  0  0  0  0  0  0  0  0  0  0
    4.2698    9.5731  -20.2650 H   0  0  0  0  0  0  0  0  0  0  0  0
    5.4078   10.9291  -19.9599 H   0  0  0  0  0  0  0  0  0  0  0  0
    5.4166    8.6939  -22.9868 H   0  0  0  0  0  0  0  0  0  0  0  0
    6.6504    7.5486  -22.3607 H   0  0  0  0  0  0  0  0  0  0  0  0
    5.0078    7.5845  -21.6346 H   0  0  0  0  0  0  0  0  0  0  0  0
    4.0018    2.4326  -21.3809 H   0  0  0  0  0  0  0  0  0  0  0  0
    3.2782    1.4682  -20.0494 H   0  0  0  0  0  0  0  0  0  0  0  0
    6.8016    9.4753  -13.8026 H   0  0  0  0  0  0  0  0  0  0  0  0
    5.1637    9.8539  -13.1696 H   0  0  0  0  0  0  0  0  0  0  0  0
    5.3701    3.8720  -17.1235 H   0  0  0  0  0  0  0  0  0  0  0  0
    6.0566    4.7615  -18.5250 H   0  0  0  0  0  0  0  0  0  0  0  0
    5.9337    2.9992  -19.9978 H   0  0  0  0  0  0  0  0  0  0  0  0
    3.3686    3.3160  -18.3730 H   0  0  0  0  0  0  0  0  0  0  0  0
    4.7964    1.1638  -17.9069 H   0  0  0  0  0  0  0  0  0  0  0  0
    3.6489    5.3961  -17.0179 H   0  0  0  0  0  0  0  0  0  0  0  0
    4.0597    6.1204  -18.4226 H   0  0  0  0  0  0  0  0  0  0  0  0
    6.5993    9.0600  -11.5289 H   0  0  0  0  0  0  0  0  0  0  0  0
    3.2191    4.0867  -20.5774 H   0  0  0  0  0  0  0  0  0  0  0  0
  1  2  2  0
  1  3  1  0
  2  8  1  0
  3  9  2  0
  4  8  2  0
  4  9  1  0
  5 10  2  0
  5 11  1  0
  6 10  1  0
  6 12  2  0
  7 11  2  0
  7 12  1  0
  8 19  1  0
  9 29  1  0
 10 24  1  0
 11 35  1  0
 12 36  1  0
 13 20  1  0
 13 30  1  0
 13 32  2  0
 14 16  1  0
 14 18  1  0
 15 17  1  0
 15 18  1  0
 16 19  1  0
 17 19  1  0
 18 25  1  0
 19 31  1  6
 21 29  1  0
 22 29  1  0
 23 29  1  0
 24 27  1  0
 25 33  1  0
 26 28  1  0
 26 31  1  0
 27 28  1  0
 27 30  1  0
 28 34  1  0
  1 37  1  0
  2 38  1  0
  3 39  1  0
  4 40  1  0
  5 41  1  0
  6 42  1  0
  7 43  1  0
 14 44  1  0
 14 45  1  0
 15 46  1  0
 15 47  1  0
 16 48  1  0
 16 49  1  0
 17 50  1  0
 17 51  1  0
 18 52  1  1
 20 53  1  0
 20 54  1  0
 20 55  1  0
 21 56  1  0
 21 57  1  0
 21 58  1  0
 22 59  1  0
 22 60  1  0
 22 61  1  0
 23 62  1  0
 23 63  1  0
 23 64  1  0
 24 65  1  0
 24 66  1  0
 25 67  1  0
 25 68  1  0
 26 69  1  0
 26 70  1  0
 27 71  1  6
 28 72  1  1
 30 73  1  0
 31 74  1  0
 31 75  1  0
 33 76  1  0
 34 77  1  0
M  CHG  1  31   1
M  END
>  <OMEGA_C>  (38) 
ziwKQX159ECSpZPB3o32QFeL4UCArIzBkicDQSUbBkF+iJzBjZS8QI7N/EAIsZfBsQfJQOsHSD+s
TqzBD1mRQLYqML+fMqXB9Z/TQDiq0L9+NKzBdQfKQE9+5kCEfo7BL/bZQE19CEHnlZ7BFXugQLVe
Gj+vjKfB3sziQJQTq74Mga7BhsmqQGcM57+zmqfBAAnaQB9Iyj/ptY/BsZ+aQO6wC0Fc83jBDbjK
QENC3UC/U2nBanyGQE279kCv24PBxBy5QE44vUCzk3nBiF2pQD86AEEWjWTBg1SnQLnd00D9/IbB
+cPkQDBCCz9YKIfB9j7rQK5uIkG+7q3BlIiiQATkIkGBkaXB9re5QE0eA0GZsLDBgxSHQK/y5T/a
FaTBy5e8QPjPEEFWmFXBuRekQFp9j0DvCZDB8KKhQNVdJUAV6pvBojqHQOr7bUC1dZfBP9rIQHQn
FEE+jajBO7mvQJ3+2T85D5PBLTSNQAt0tUCJ0YzBFir3QPUBC0AAR5TBYx3HQC+8BkGT9EHBCHty
QL1UkkBM8Z/BzhwFQYVfIb4zuLLBFC+cQFrVQsDrVaXBWxkbQUXD8EBYK5LBEc8AQWAnz0DY5oXB
e7MOQQxvDUGU0KHByNSaQJZ6/kAggZnByjLUQNoU4z+vQK7BdZVkQOffUb9njqHBv0rnQOFjH8D0
963B0EO2QF0nE0ElcoDBJgCDQN8UGEFz3HTBzozSQHtVzEBvZlrBUdXnQHIk7EAO2G/BUHtWQJaZ
50DNiH/B6E92QM92A0HFI4vBrfbSQEtOp0CQVX7BJB+fQGHeqkA7DHLB7nCNQGu18UCbxlzBcdoD
QRbV8T5rQobBY2/WQHTtWD99/X7B9eDXQESt3r5XjYnBbWHdQJ5cKkGZ+7TBJUn2QL6aLkH8NKjB
Nz4DQSN2GEGjbLDBItOWQEIOK0Ety6zBN6KIQHIrGUHAHqLBYQytQG7dLkHXrZ/BiVStQFIaC0EL
5bfBQ9DUQL6N8UCf4rLBzD+gQF208kC0E63BGw+AQF2vG0D+C6vBdc1RQJfsuz8dZaDB2abZQMia
F0Gf11zBXT2lQISpHUHXtlLBz9erQFXPd0Dw/IjBbc/BQO5dmEBMM5TB4eC9QF7zP0Bx+5/BTJdX
QN45VEDR+5LBFnyZQBH2lD9HQY/BD4hpQCGtrECkJIjBIemBQJvaw0CQYZPB3C3TQKD1EEFldjjB
yQVOQHnGgkBtnqTB+hYKQXyu9EB+/pPB5Mf2QJYp4kAA2ozBMNECQZX+BUFS5ZzBYSy8QKak/EDg
xZfBcMzJQM16Sz9WQKzBPMORQN0ILb8iVqXBLjbUQBoNz7+TP6zBAyTKQPjG5kBLj47BLS/ZQHxp
CEFvxp7BGwyhQKK1HT9smqfBb5HjQO5GpL4Vcq7BMzSrQNZ/5b+BvqfBp/7YQFMdxj98mI/BI3ea
QCP3CkG0e3fBuNnLQGDM20C4MGnBGAyHQJiq9kCzmYPB9o66QFx7vECs3XnBEiypQMjw/EBCimPB
e+enQAr400BB84bBY83iQIq08j5qRYfB7MK7QDwjA0FGKLHBHN/oQP3TI0Hki63BlESfQA10IUE+
x6XBxIKHQOaq5z+/MKTBcR+6QP4HDkF8zVLBTdejQKSLj0DO/o/BUaShQC/YJUDq5ZvBOC6HQIPM
bkDViJfBzbjHQIAeFEFbrqjBl+KuQOP42T+fA5PBNWGNQETPtUA0y4zBnZz2QJw1CUCt7JPBN+Dc
QGoaGkEQSVvB8uFzQGbtkkCGDaDBm5AFQb2AE76PlLLBT2mcQBAcQsDOlKXByw0bQSr78EByopLB
px4BQeRT0EAfB4bB5zUOQfkhDUHHUqLBv1maQEr6/UAwhJnBESDVQMPk5D+JHa7B8C1lQB3gTr9a
wqHBfd7nQNCWHsAIBK7BkBG2QGoCE0HL3n7BtHGCQGb5FkFo3nLBKgHVQGUZykCNrlrBEAzoQCpc
7EAptG/BpZ1WQOUH50D6sn/B5Rh5QIgbBEFYw4rBvL7UQG9hp0AeEH/BpxGhQI0sqUAlgnLBRmmN
QDny60AM11zBGtQCQYoRxD7lR4bBLDbUQLsTQT9lKn/BvJjVQFFv+r7Y8onBJCmvQDkiC0H+VbjB
wWHYQE2n80CeS7PBDTujQPm38EB5363Bp+baQFrEK0G8lLTBJZXxQOLvL0EHi6fB8tICQVXrGkGx
9q/BMV6TQKyqKUFk+KzBrEWGQHu9FkEFqqLB/ZOnQK5fLUF9pZ/BRe+AQIbNHEDJJ6vBVzNSQPWl
vT/lnqDBgFGgQDkBGUEiBU7B+SzFQHb+BEFev0TB1viqQNeKd0DS74jBdeLBQLcZmEAtDZTBakK+
QEIVQEC01Z/B7sRWQLFiVUAuK5PBlyWYQHdAlz+qO4/BAp1pQE1arUAxIIjBHk6CQF5SxEBDXZPB
ySPnQJW7I0EftFDBha1PQNiTg0BEzaTB

>  <OMEGA_E>  (38) 
4O9tPlAqaz4=

>  <OMEGA_NBR>  (38) 
    138702

$$$$
50212894
     RDKit          3D

 76 78  0  0  1  0  0  0  0  0999 V2000
    8.6049    7.5846  -18.4334 C   0  0  0  0  0  0  0  0  0  0  0  0
    7.6546    7.0463  -17.5482 C   0  0  0  0  0  0  0  0  0  0  0  0
    8.1885    8.3003  -19.5693 C   0  0  0  0  0  0  0  0  0  0  0  0
    5.8697    7.8718  -18.9744 C   0  0  0  0  0  0  0  0  0  0  0  0
    6.3071    0.7938  -21.5784 C   0  0  0  0  0  0  0  0  0  0  0  0
    4.5471   -0.6673  -20.7161 C   0  0  0  0  0  0  0  0  0  0  0  0
    6.5902   -1.6245  -21.6402 C   0  0  0  0  0  0  0  0  0  0  0  0
    6.2676    7.2049  -17.8031 C   0  0  0  0  0  0  0  0  0  0  0  0
    6.8070    8.4754  -19.8345 C   0  0  0  0  0  0  0  0  0  0  0  0
    5.0411    0.6234  -20.9793 C   0  0  0  0  0  0  0  0  0  0  0  0
    7.0866   -0.3299  -21.8957 C   0  0  0  0  0  0  0  0  0  0  0  0
    5.3174   -1.7909  -21.0560 C   0  0  0  0  0  0  0  0  0  0  0  0
    6.8419    1.4717  -18.0437 C   0  0  0  0  0  0  0  0  0  0  0  0
    7.2310    6.6697  -13.7830 C   0  0  0  0  0  0  0  0  0  0  0  0
    4.8484    8.8726  -15.6549 C   0  0  0  0  0  0  0  0  0  0  0  0
    4.1585    7.7929  -16.4890 C   0  0  0  0  0  0  0  0  0  0  0  0
    5.4231    8.2429  -14.3829 C   0  0  0  0  0  0  0  0  0  0  0  0
    5.7031    6.0354  -15.5698 C   0  0  0  0  0  0  0  0  0  0  0  0
    5.1633    6.6705  -16.8629 C   0  0  2  0  0  0  0  0  0  0  0  0
    7.1518    0.4750  -16.9304 C   0  0  0  0  0  0  0  0  0  0  0  0
    5.8462    8.1788  -22.1216 C   0  0  0  0  0  0  0  0  0  0  0  0
    7.3793   10.1372  -21.7040 C   0  0  0  0  0  0  0  0  0  0  0  0
    5.0873   10.1346  -20.7045 C   0  0  0  0  0  0  0  0  0  0  0  0
    4.2604    1.8214  -20.5283 C   0  0  0  0  0  0  0  0  0  0  0  0
    5.1127    4.4848  -17.9433 C   0  0  0  0  0  0  0  0  0  0  0  0
    5.0840    2.5913  -19.4840 C   0  0  1  0  0  0  0  0  0  0  0  0
    4.2462    3.7122  -18.9066 C   0  0  2  0  0  0  0  0  0  0  0  0
    6.2948    9.2244  -21.0754 C   0  0  0  0  0  0  0  0  0  0  0  0
    6.2667    7.0676  -14.6959 N   0  0  0  0  0  0  0  0  0  0  0  0
    7.1781    7.1332  -12.4846 N   0  0  0  0  0  0  0  0  0  0  0  0
    5.5136    1.6874  -18.3958 N   0  0  0  0  0  0  0  0  0  0  0  0
    4.3641    5.6704  -17.5539 N   0  0  0  0  0  0  0  0  0  0  0  0
    7.7529    2.1249  -18.5417 O   0  0  0  0  0  0  0  0  0  0  0  0
    8.1610    5.9474  -14.1234 O   0  0  0  0  0  0  0  0  0  0  0  0
    3.8152    4.5782  -19.9592 O   0  0  0  0  0  0  0  0  0  0  0  0
    8.3139   -0.1637  -22.4367 F   0  0  0  0  0  0  0  0  0  0  0  0
    4.8381   -3.0291  -20.8068 F   0  0  0  0  0  0  0  0  0  0  0  0
    9.6586    7.4477  -18.2401 H   0  0  0  0  0  0  0  0  0  0  0  0
    7.9817    6.5095  -16.6699 H   0  0  0  0  0  0  0  0  0  0  0  0
    8.9231    8.7180  -20.2419 H   0  0  0  0  0  0  0  0  0  0  0  0
    4.8194    7.9226  -19.2208 H   0  0  0  0  0  0  0  0  0  0  0  0
    6.6755    1.7862  -21.7924 H   0  0  0  0  0  0  0  0  0  0  0  0
    3.5790   -0.7934  -20.2544 H   0  0  0  0  0  0  0  0  0  0  0  0
    7.1854   -2.4897  -21.8922 H   0  0  0  0  0  0  0  0  0  0  0  0
    5.6623    9.3248  -16.2407 H   0  0  0  0  0  0  0  0  0  0  0  0
    4.1178    9.6486  -15.3825 H   0  0  0  0  0  0  0  0  0  0  0  0
    3.3314    7.3595  -15.9075 H   0  0  0  0  0  0  0  0  0  0  0  0
    3.7617    8.2451  -17.4099 H   0  0  0  0  0  0  0  0  0  0  0  0
    6.0336    8.9919  -13.8571 H   0  0  0  0  0  0  0  0  0  0  0  0
    4.5933    7.9254  -13.7343 H   0  0  0  0  0  0  0  0  0  0  0  0
    4.8819    5.5244  -15.0457 H   0  0  0  0  0  0  0  0  0  0  0  0
    6.4866    5.3060  -15.8228 H   0  0  0  0  0  0  0  0  0  0  0  0
    8.2310    0.4860  -16.7176 H   0  0  0  0  0  0  0  0  0  0  0  0
    6.5964    0.7546  -16.0230 H   0  0  0  0  0  0  0  0  0  0  0  0
    6.8511   -0.5343  -17.2479 H   0  0  0  0  0  0  0  0  0  0  0  0
    5.4751    8.6941  -23.0199 H   0  0  0  0  0  0  0  0  0  0  0  0
    6.7004    7.5406  -22.3917 H   0  0  0  0  0  0  0  0  0  0  0  0
    5.0436    7.5572  -21.6978 H   0  0  0  0  0  0  0  0  0  0  0  0
    6.9636   10.6482  -22.5849 H   0  0  0  0  0  0  0  0  0  0  0  0
    7.7023   10.8851  -20.9649 H   0  0  0  0  0  0  0  0  0  0  0  0
    8.2418    9.5258  -22.0080 H   0  0  0  0  0  0  0  0  0  0  0  0
    4.7350   10.6616  -21.6034 H   0  0  0  0  0  0  0  0  0  0  0  0
    4.2729    9.5161  -20.2994 H   0  0  0  0  0  0  0  0  0  0  0  0
    5.4008   10.8693  -19.9482 H   0  0  0  0  0  0  0  0  0  0  0  0
    4.0551    2.4736  -21.3899 H   0  0  0  0  0  0  0  0  0  0  0  0
    3.3100    1.4951  -20.0808 H   0  0  0  0  0  0  0  0  0  0  0  0
    5.3342    3.8703  -17.0582 H   0  0  0  0  0  0  0  0  0  0  0  0
    6.0541    4.7762  -18.4322 H   0  0  0  0  0  0  0  0  0  0  0  0
    5.9687    3.0207  -19.9770 H   0  0  0  0  0  0  0  0  0  0  0  0
    3.3835    3.2894  -18.3709 H   0  0  0  0  0  0  0  0  0  0  0  0
    7.8933    6.8792  -11.8335 H   0  0  0  0  0  0  0  0  0  0  0  0
    6.4245    7.7232  -12.1947 H   0  0  0  0  0  0  0  0  0  0  0  0
    4.8065    1.2017  -17.8818 H   0  0  0  0  0  0  0  0  0  0  0  0
    3.6200    5.3883  -16.9482 H   0  0  0  0  0  0  0  0  0  0  0  0
    3.9825    6.0872  -18.3789 H   0  0  0  0  0  0  0  0  0  0  0  0
    3.2695    4.0922  -20.5662 H   0  0  0  0  0  0  0  0  0  0  0  0
  1  2  2  0
  1  3  1  0
  2  8  1  0
  3  9  2  0
  4  8  2  0
  4  9  1  0
  5 10  2  0
  5 11  1  0
  6 10  1  0
  6 12  2  0
  7 11  2  0
  7 12  1  0
  8 19  1  0
  9 28  1  0
 10 24  1  0
 11 36  1  0
 12 37  1  0
 13 20  1  0
 13 31  1  0
 13 33  2  0
 14 29  1  0
 14 30  1  0
 14 34  2  0
 15 16  1  0
 15 17  1  0
 16 19  1  0
 17 29  1  0
 18 19  1  0
 18 29  1  0
 19 32  1  6
 21 28  1  0
 22 28  1  0
 23 28  1  0
 24 26  1  0
 25 27  1  0
 25 32  1  0
 26 27  1  0
 26 31  1  0
 27 35  1  0
  1 38  1  0
  2 39  1  0
  3 40  1  0
  4 41  1  0
  5 42  1  0
  6 43  1  0
  7 44  1  0
 15 45  1  0
 15 46  1  0
 16 47  1  0
 16 48  1  0
 17 49  1  0
 17 50  1  0
 18 51  1  0
 18 52  1  0
 20 53  1  0
 20 54  1  0
 20 55  1  0
 21 56  1  0
 21 57  1  0
 21 58  1  0
 22 59  1  0
 22 60  1  0
 22 61  1  0
 23 62  1  0
 23 63  1  0
 23 64  1  0
 24 65  1  0
 24 66  1  0
 25 67  1  0
 25 68  1  0
 26 69  1  6
 27 70  1  1
 30 71  1  0
 30 72  1  0
 31 73  1  0
 32 74  1  0
 32 75  1  0
 35 76  1  0
M  CHG  1  32   1
M  END
>  <OMEGA_C>  (39) 
0q0JQca08kCld5PBmvL0QO964UChYozB/QMDQSzOBEEAjpzBsdS7QMDl+0CWy5fBXdPJQPQzSz+P
oKzBPYKRQPHUKr+kuqXBIePSQEruz783H63BBZDIQLmO5kDRbI7B4tLZQEKbB0ESrZ7B2VChQI6U
Hz+J1afBJMXiQHvpqL5uKq/BvSeqQAk95b+8cqjBLvHaQGtgvD9oWZDBsWTnQANu1UAth1zBvyWb
QFX2DUF9enrBYhKFQGBf+UBq6YPBA4qtQBXjA0FoIGbBdn+2QAkiwUDAHXnBuDmlQKV01UAe54bB
uNvkQGgz8z5ocYfBvRO7QHTcAkEe+bDBlSPsQN8xIkHLoa3BMcuiQE4nIkG+oqXBJlWIQAEj6T/d
OaTBlpujQIWDj0DRi4/BX7CiQKrXJUBQ35vBRuGHQGCUbUDHQJfBOm/JQPSWE0FcmqjBtYjIQAkq
4kB2ImvB+rLlQDZD5EAdwUfBo2+wQF381z+cKpPBkqaLQCJ0tUBNbozBHBj4QJz+B0BQVZTBVZMC
QSNRvkCP+WHB6Cx0QIyAkkBarJ/B4QUFQTyjJ75kfrPBU9GaQK7cQcBldKbBx4kaQYJT7kCu65HB
4Gn/QHhN0EAHXIXB3sQOQQd9C0Fe76HBxziaQJKF/UBJxJnB2Z3VQK+g5D/NVq7Bng5lQHUbS7/y
CKLBsO7lQOFXH8AyI6/BbzG1QC8yFUHj7IHBT8WDQLVgGkGyHnbBUDZVQNWA60AKhX7B1r9wQADs
A0FqR4vBCRPBQKHeD0HMtl3BpvySQOic/UDDv1vBvjicQPfHsEBBu3DBkpLPQB7LqUA4Kn3BH7ID
QYfV+D6bvYXBARbTQIowQT8VL4DBPjzbQFrKCL+j+4nBVjSvQPUaC0G7KLjB22nWQM5M8UA8IrPB
eGWhQPLU8UAyla3B/NXeQABfKkHwrbTBlnn2QFUpLkEUuKfBdN4DQcBpGEFQELDB4ISXQN2VKkHT
06zBWLuIQM1BGEETZaLBRtOsQHfoLUHSlZ/BwMOBQAtPHkCdHqvBuNZTQHxfvz9jpaDBj7GqQIOz
d0Ald4jB1LrBQH7WmEAYdZPBmf++QKZSQUDa0J/B44tYQAuFUkCx95LB7ZX8QKAi3EAPVj3BqZXN
QCAk90B5HUPBOc+ZQO3RmT8CDo/BFa5nQFBtrEAAlofB7OF+QB3KwkANCJPBej9RQKjzgkCbh6TB
lpwJQcnK8EC2LZPBg1v0QPwz4UAp84vBU0MDQcKtA0HyZZzBtiq8QI4J/EBtjpfBhcDKQNR4Sz9N
fKzBvxmTQLQaLr8uc6XBTMvTQMzIz79TU63BcjrIQFuv50Di+43B8n3aQHoBB0ETjJ7Bub6iQDq+
HT/0cafB3mzjQENwpr55VK/B44SrQABB5r8ycKjBOzbdQEQwvD9+j5DB0HnsQPTr4EDtoGDBomea
QGVWD0GWPnnBP9WEQCha/UCH44PBJ6qnQLB6BEGWU2TB1qyyQIgkw0BzwnfBIf+jQL3b10DkiYbB
/7bnQH1t1z5+FojBEvy+QMKgAUE4I7HBmObsQLr7IUEyR63BLEOiQGptIEGgKabBpIeJQI6a5z++
vKPBMFijQDDjkUDvb4/Bi8WjQEWbJ0ALj5vBJDeIQGc9b0AmBZfBGZzKQPiiEkFnpqjBeYbDQEgq
5EBiN2nB+voAQbFDukAH3mDB03CyQKqt3z9PvJLBpc+KQNTot0BnV4zBiib6QPT39z9YCZbB8Ob/
QA9/AEHX8lrBwe5yQE9GkkBfip/BLxcFQaLSHL7a7rPB0WOcQBmpQsDPhKbB2GYaQcto60BEpJHB
d1n+QOtG0EDe14TBHjIPQW3PCUH716HB+6KaQADq/UC3mJnBFWLWQJ8l5T9NJ67BDsxoQPRvUL+B
oaHBma/mQFEBH8ALia/BVd22QNrdFUFopIDBSc2DQIRiHEENz3XBcfZQQM1x8EAylX/B8PJ1QJJ2
BkHHYovByyG5QAX2D0GHPlrB/fqKQLDL/UCmyVvBGUSXQIcfs0BfKHDBf+TLQGF+q0ACEnvBnykF
QUKZYT66H4jB9iDeQGclSz+9KYDBnz/WQPMHAr+o3onB9oizQMidCUETcLjBiXnbQNwD8EAFB7PB
a6ulQBdK7kA+/a3BIjDgQLDpKUF6drTBdCf1QHAfLkHxP6fBadoEQS/OGEGMZ6/Bi5mXQAKMKEFE
gK3Bm3yIQHUHFkGMLqPBKDiqQIVwLEHVC6DBafaBQAGlHECZpqrBmEhXQIT3uz8N+Z/BshWrQBi6
fUBeSojBSSHBQO6em0AtcpPB1Zq/QJe3Q0BtpJ/BJiJaQGZtU0DaoJLB71gQQUruuEAsdlzBa8Xy
QBihn0AXcmXB5jycQPFiqj/zCI7BmR9lQJGhrkBIqofBtWt+QK2GxUCH+ZLB+tpQQNzZgUCZT6TB
saEJQTcF80C1f5PB8N70QDdg4UDYeIzBc/MCQTglBUE/h5zBv7+7QBDQ+0Dq35fBa3zJQNraSj8x
pKzB11mRQB5+LL+Ft6XBEKbSQLr/z7/0NK3BFHnIQJhi5kCuhI7BI67ZQJ3MB0G0rp7BgBChQMRW
Hj9Nz6fB8nXiQFJyqL7YOK/BqfupQGDN5b93gajBaqraQOBguT8+WJDBGM3nQO/H2EDe31zBcCya
QDBODkHAXnvB846EQORA+UCGK4TBSJasQHzBBEFSyGbB3me2QGsfwkAqBnnB3R2lQEZy1UAd+IbB
LXvkQMM/5D7meIfBPODrQH5ZIkGera3BfdeiQLyWIkFce6XBVSW6QO9EA0Hz6LDBdhmIQINP6D+S
KKTB8amjQEkkj0BocI/Bj5WiQMpMJUAO0ZvB2PyHQAptbUD/OpfB1yPJQFjlE0Fwj6jBDx7IQN0H
5EDiY2vB47LnQMhX6kASoEjBmSuwQADT1j+dGZPBUaeLQN8ItUDnXIzBzOv3QB0oBkAwVpTBogAC
QaBGv0CAsGHBYIt1QEGckkCHrZ/Bv9cEQQoqI74fkrPB7KaaQAJFQsAclqbBjH4aQY2u7kBT9JHB
+1r/QA/wz0D8fIXBY7EOQdMTDEHt1aHBzyuaQGYi/UCW5JnBxi/VQMqY5D+4Wa7B/O1kQIB9Tb/h
+qHB0rLlQPpEH8D0Q6/BbiW0QN90FUGJbYLBj4aCQCOzGkEdVHfBNXxUQFx660Bk5X7Bxm1vQOZ4
A0E1nYvB0Ly/QNwEEUEfjl7BzQ+SQC9q/0BFX1zBhTacQGfwsUBkfnDB+q/PQEzPqkBLx3zBO4UD
QSGI5T4zzYXBi+HSQD8COj+aMIDBLpbaQH5xD79SB4rBkWjeQNiZKkEir7TBqLH2QJZBLkH2yafB
m5cDQYhyGEEKMbDBU26XQIYbK0FuoqzBw7+IQATGGEHvMaLBlketQHxELkEKcJ/BRiiuQLiYC0FU
D7jBvjPVQGzf8UAaJbPBKmigQFfe8kCdd63B7miBQBsCHkC3CKvBrn9TQLhWvj/4jaDBXXGqQCuy
dkDAXIjB3PLBQJZrmEAhR5PByfm+QGZdQECmxJ/BLy5YQOHVUkBvBJPBS2v+QHE44kCYHT7Be+fQ
QEgy/0CsdETBQXWZQHgOmj/B747BLSFoQFkLrEBLcofBaUZ+QFAHwkBg+JLBPLZSQG4/g0ADlaTB
ZI0JQZGR7kB3r5TBkSn1QDv03UBQYo3BC7sCQTQtBEFYPZ3BgMS7QJm0/0CoapfBWP7GQIopIz/3
bqzBKQiTQE8cT7/6gaPBjrPRQKdm47/kLazBlBbJQBiN50B+do7BG3rZQAqtCEHHsJ7B9rugQODl
8z6RlKbBI47fQEA9+r6fLq/B+E6rQDO/97/5ZKbBJercQOUEyj+JAJDBYK7yQM3I3kDMB2bBFDSd
QIHyC0F0yXXBS5GHQACA+kCSIIPB2EepQG67/EAaTWLBJIu2QCP0vEAOcXnBSzimQFnU1UD91IbB
JPHoQBx/DT9td4fB7wPYQLxaDUFyt7LB/M7gQE95LUFZpqbBxMyZQE1DG0HoK6jBlVOHQBt41z/z
OqPB+YKjQHrDkUD8apDBVT6iQJx3I0BVqZvBWjKHQCBQbUCUdpfBhPLKQPtjF0Fd56fBzcXGQD2s
2kA1MGnBpCECQWISA0FFJWHBxeixQDWY3j/cl5LBzPOLQHvqt0DeA43BdET5QMzwB0AnMpXBbQoF
QfZRv0D2nWbBKNhvQLXzj0AZK6DBOB4CQS7Oqr6HxrTBfaCdQALkSsCKo6PBaVoaQZR750C0tpPB
itz/QEe7yUCD6IbB7lkOQUCxCkHyvaLB3P2ZQIlmAkH5upjB0GLRQMjhzz8VzK7BFuBrQFLDbb+q
8Z7BDITkQOQcKcDgT67BZSW6QAMeE0E4yHzBIfaGQGm0GEHr9HDBobZVQBM77EBT/X7BMIF8QFPS
BkGiIorBjga5QCx9CEEmP1bBL0iMQA9h7kD8XlvBFe6bQHdgqkD0oHLB4GrQQAoYp0D6On7BiPkF
QXDz4j76L4fBgzzdQH2DZD8/QH/BnUvaQHxk1b51b4nBbqjNQEnYF0F/SrnB5f76QMx3C0EM/bLB
G7TIQJYy+0CwkbPBcJvWQAwTOEH8Ma3B9pnXQNuTNEE6757BYeEBQcF2K0EL7abBKtORQDzYJUEu
6q7B5iiJQLXgC0GOJqnBgKSPQG3NIkHfoqDB0Dl9QFs0EUDMWqrBsyhUQDvPrT9HFZ/BciatQDFh
fkB8V4nB+SvAQPJzm0CL6pTBAKC9QIqKPUAAIaDBYsdYQP3NU0AUvJLBCs0RQaNQBEGqKF7BAKfx
QHgTEEGImGDBQjicQFMUoz9lCY7B8W5mQAG1rkDwfYjB7xWBQNQDx0A/hpPBmiZMQDfyfUBAn6TB

>  <OMEGA_E>  (39) 
YH2BPjAiij4YXIE+KEmlPg==

>  <OMEGA_NBR>  (39) 
    143744

$$$$
50212893
     RDKit          3D

 72 74  0  0  1  0  0  0  0  0999 V2000
    8.5756    7.5494  -18.4443 C   0  0  0  0  0  0  0  0  0  0  0  0
    7.6358    7.0656  -17.5183 C   0  0  0  0  0  0  0  0  0  0  0  0
    8.1498    8.2385  -19.5939 C   0  0  0  0  0  0  0  0  0  0  0  0
    5.8368    7.9200  -18.9174 C   0  0  0  0  0  0  0  0  0  0  0  0
    6.3776    0.7849  -21.5656 C   0  0  0  0  0  0  0  0  0  0  0  0
    4.6151   -0.6833  -20.7231 C   0  0  0  0  0  0  0  0  0  0  0  0
    6.6773   -1.6336  -21.6133 C   0  0  0  0  0  0  0  0  0  0  0  0
    6.2506    7.2638  -17.7411 C   0  0  0  0  0  0  0  0  0  0  0  0
    6.7689    8.4552  -19.8306 C   0  0  0  0  0  0  0  0  0  0  0  0
    5.1030    0.6117  -20.9839 C   0  0  0  0  0  0  0  0  0  0  0  0
    7.1683   -0.3374  -21.8689 C   0  0  0  0  0  0  0  0  0  0  0  0
    5.3985   -1.8049  -21.0449 C   0  0  0  0  0  0  0  0  0  0  0  0
    6.8137    1.4913  -18.0168 C   0  0  0  0  0  0  0  0  0  0  0  0
    4.9722    8.8186  -15.3768 C   0  0  0  0  0  0  0  0  0  0  0  0
    4.2282    7.8590  -16.3190 C   0  0  0  0  0  0  0  0  0  0  0  0
    5.5172    8.0371  -14.1713 C   0  0  0  0  0  0  0  0  0  0  0  0
    5.7424    5.9963  -15.5410 C   0  0  0  0  0  0  0  0  0  0  0  0
    5.1671    6.7171  -16.7911 C   0  0  2  0  0  0  0  0  0  0  0  0
    7.1095    0.3911  -17.0012 C   0  0  0  0  0  0  0  0  0  0  0  0
    5.9168    8.0572  -22.1498 C   0  0  0  0  0  0  0  0  0  0  0  0
    7.3235   10.1059  -21.7138 C   0  0  0  0  0  0  0  0  0  0  0  0
    4.9912    9.9986  -20.8240 C   0  0  0  0  0  0  0  0  0  0  0  0
    4.2983    1.8122  -20.5574 C   0  0  0  0  0  0  0  0  0  0  0  0
    5.0498    4.5265  -17.9350 C   0  0  0  0  0  0  0  0  0  0  0  0
    5.0798    2.6062  -19.4951 C   0  0  1  0  0  0  0  0  0  0  0  0
    4.2163    3.7393  -18.9371 C   0  0  2  0  0  0  0  0  0  0  0  0
    6.2624    9.1476  -21.1110 C   0  0  0  0  0  0  0  0  0  0  0  0
    5.4922    1.7046  -18.3980 N   0  0  0  0  0  0  0  0  0  0  0  0
    4.3371    5.7554  -17.5432 N   0  0  0  0  0  0  0  0  0  0  0  0
    6.4038    6.9438  -14.6192 N   0  0  0  0  0  0  0  0  0  0  0  0
    7.7444    2.0619  -18.5761 O   0  0  0  0  0  0  0  0  0  0  0  0
    3.8132    4.5959  -20.0069 O   0  0  0  0  0  0  0  0  0  0  0  0
    8.4018   -0.1695  -22.3962 F   0  0  0  0  0  0  0  0  0  0  0  0
    4.9267   -3.0460  -20.7941 F   0  0  0  0  0  0  0  0  0  0  0  0
    9.6300    7.3912  -18.2723 H   0  0  0  0  0  0  0  0  0  0  0  0
    7.9701    6.5417  -16.6350 H   0  0  0  0  0  0  0  0  0  0  0  0
    8.8794    8.6050  -20.3009 H   0  0  0  0  0  0  0  0  0  0  0  0
    4.7812    8.0154  -19.1245 H   0  0  0  0  0  0  0  0  0  0  0  0
    6.7449    1.7782  -21.7774 H   0  0  0  0  0  0  0  0  0  0  0  0
    3.6405   -0.8145  -20.2765 H   0  0  0  0  0  0  0  0  0  0  0  0
    7.2811   -2.4963  -21.8531 H   0  0  0  0  0  0  0  0  0  0  0  0
    5.8076    9.2878  -15.9171 H   0  0  0  0  0  0  0  0  0  0  0  0
    4.2792    9.5973  -15.0255 H   0  0  0  0  0  0  0  0  0  0  0  0
    3.3695    7.4237  -15.7869 H   0  0  0  0  0  0  0  0  0  0  0  0
    3.8708    8.4186  -17.1960 H   0  0  0  0  0  0  0  0  0  0  0  0
    6.0852    8.7212  -13.5237 H   0  0  0  0  0  0  0  0  0  0  0  0
    4.6752    7.6113  -13.6058 H   0  0  0  0  0  0  0  0  0  0  0  0
    4.9203    5.4959  -15.0083 H   0  0  0  0  0  0  0  0  0  0  0  0
    6.4772    5.2462  -15.8687 H   0  0  0  0  0  0  0  0  0  0  0  0
    8.1977    0.2583  -16.9102 H   0  0  0  0  0  0  0  0  0  0  0  0
    6.6916    0.6729  -16.0234 H   0  0  0  0  0  0  0  0  0  0  0  0
    6.6522   -0.5510  -17.3377 H   0  0  0  0  0  0  0  0  0  0  0  0
    5.5526    8.5317  -23.0729 H   0  0  0  0  0  0  0  0  0  0  0  0
    6.8165    7.4648  -22.3726 H   0  0  0  0  0  0  0  0  0  0  0  0
    5.1353    7.3983  -21.7434 H   0  0  0  0  0  0  0  0  0  0  0  0
    6.9197   10.5759  -22.6227 H   0  0  0  0  0  0  0  0  0  0  0  0
    7.5737   10.8849  -20.9786 H   0  0  0  0  0  0  0  0  0  0  0  0
    8.2298    9.5364  -21.9674 H   0  0  0  0  0  0  0  0  0  0  0  0
    4.6536   10.4794  -21.7539 H   0  0  0  0  0  0  0  0  0  0  0  0
    4.1935    9.3470  -20.4378 H   0  0  0  0  0  0  0  0  0  0  0  0
    5.2278   10.7706  -20.0771 H   0  0  0  0  0  0  0  0  0  0  0  0
    4.1096    2.4552  -21.4298 H   0  0  0  0  0  0  0  0  0  0  0  0
    3.3396    1.4787  -20.1336 H   0  0  0  0  0  0  0  0  0  0  0  0
    5.2272    3.9080  -17.0429 H   0  0  0  0  0  0  0  0  0  0  0  0
    6.0134    4.7943  -18.3931 H   0  0  0  0  0  0  0  0  0  0  0  0
    5.9730    3.0412  -19.9673 H   0  0  0  0  0  0  0  0  0  0  0  0
    3.3397    3.3122  -18.4282 H   0  0  0  0  0  0  0  0  0  0  0  0
    4.7762    1.2173  -17.8981 H   0  0  0  0  0  0  0  0  0  0  0  0
    3.5578    5.4984  -16.9718 H   0  0  0  0  0  0  0  0  0  0  0  0
    7.1911    7.3451  -15.0873 H   0  0  0  0  0  0  0  0  0  0  0  0
    6.7162    6.4386  -13.8147 H   0  0  0  0  0  0  0  0  0  0  0  0
    3.2935    4.1018  -20.6301 H   0  0  0  0  0  0  0  0  0  0  0  0
  1  2  2  0
  1  3  1  0
  2  8  1  0
  3  9  2  0
  4  8  2  0
  4  9  1  0
  5 10  2  0
  5 11  1  0
  6 10  1  0
  6 12  2  0
  7 11  2  0
  7 12  1  0
  8 18  1  0
  9 27  1  0
 10 23  1  0
 11 33  1  0
 12 34  1  0
 13 19  1  0
 13 28  1  0
 13 31  2  0
 14 15  1  0
 14 16  1  0
 15 18  1  0
 16 30  1  0
 17 18  1  0
 17 30  1  0
 18 29  1  6
 20 27  1  0
 21 27  1  0
 22 27  1  0
 23 25  1  0
 24 26  1  0
 24 29  1  0
 25 26  1  0
 25 28  1  0
 26 32  1  0
  1 35  1  0
  2 36  1  0
  3 37  1  0
  4 38  1  0
  5 39  1  0
  6 40  1  0
  7 41  1  0
 14 42  1  0
 14 43  1  0
 15 44  1  0
 15 45  1  0
 16 46  1  0
 16 47  1  0
 17 48  1  0
 17 49  1  0
 19 50  1  0
 19 51  1  0
 19 52  1  0
 20 53  1  0
 20 54  1  0
 20 55  1  0
 21 56  1  0
 21 57  1  0
 21 58  1  0
 22 59  1  0
 22 60  1  0
 22 61  1  0
 23 62  1  0
 23 63  1  0
 24 64  1  0
 24 65  1  0
 25 66  1  6
 26 67  1  1
 28 68  1  0
 29 69  1  0
 30 70  1  0
 30 71  1  0
 32 72  1  0
M  CHG  1  30   1
M  END
>  <OMEGA_C>  (40) 
ojUJQaqU8UDjjZPB2Fj0QIYZ4kB6JYzBj2UCQQHRA0FcwJzBNse6QLxw/UDCVpfBshXMQMnsSD9k
hqzBpK6TQPnvLr/byKXBbKzVQCMZ0b8S6KzBQAXIQC1x6EC27Y3B8prYQJxIB0EfpZ7BikujQC2Y
HD/z3qfBFGPlQLq5rL52867B2sCsQKEF57/tW6jBlgnaQKrivj9/IpDB/BufQOMYDUF/B3bBQk2H
QJh8+0BfjYLBlIywQAqYAEGxvWLBXMG3QGDhv0DOp3jBfFilQMfy1kA7VIbBYoHjQCw/yD5oAojB
Vla9QDjqAEHVMrHBclrqQPSxIUHjta3BlLefQBb6H0GGl6bBuouJQKX35z+ddaTB8pehQD7ZkEDu
eo/BVI2iQE7LJkD49ZvBAOyGQFhRb0A8f5fBqmXIQKFcEkE646jBdsCvQC4x2j8KL5PBWsmKQJAs
uECTWIzBsOvMQAM03kAh6GnBbtL3QLj1A0Drm5TBRgt0QEoRk0ARDqDB020GQfWSLb5YK7PBaKed
QP3wQsBTWqbBhxQaQQOF7ECbLZLB3wr/QFBV0UCLFIXB7xEOQemtCUFGaKLBSv+YQPA+AEHz/pjB
B9bXQHab4z8rOK7Bt/1oQNKAUL9YNqLB5/7oQGzDH8A3067B8te5QL2aFEFnrH7Bh++IQI6OGUFu
aHDBEqVXQFKP7UAbl3zBG7t3QI6yBkFrkYnBVbrCQO+JC0FAYVjBkJuVQMaP80AysVnBxHKdQCne
r0DeIXDB8ETPQKLgp0A+5n3BzSkDQUZFhD4USIfB+yHWQIdALD/+L4DB3d7UQPUPDb+Ms4rBs66x
QAuCCEFdlbjBxSDaQLjf7kAD+7LBW1SkQOS+7ECP8q3BK27dQOs2KUFB+7TBCVzyQKwoLkEa1KfB
Xa0DQTOVGEExva/BDOqUQMyrJ0EJCK7BzzCGQGaNFUGFgKPBOEqnQItULEHXnaDBHIKDQKQiHUAl
cKvBPLxVQNVGvT+DEaHBREWnQOsbekDWV4jBmm3AQB9rmUD5JJPBiCK/QGuiQkD3vJ/B4bxVQB77
U0DobJPB+9aYQCTQmz9bL4/By7JjQIDyr0AlxofBbB3mQMkK60CcZXHB8urWQBoJzkAdCV3Bf8lS
QAhCg0BmCqXBUTkJQYke8kAnjpPBxXr0QOdf4kBhJozBk1UCQUD3A0FBx5zBJ7u6QETk/EBaaJfB
wirMQKdzSj9akKzB7f2TQJUWLr/ZvaXBodjVQM1I0L8p+KzB7BrIQJs76ECh9o3BiGfYQBYaB0F3
t57BgnujQCuoHT8+3KfBznblQIwJqb6YBq/BnQStQOd45r/hX6jB2K/ZQPAMvj+ZFJDB0i+fQH0a
DUFbDXbBkICHQICL+0AQl4LByjiwQKGRAEGQtWLBi/G3QIjkv0CVonjB/H2lQPDk1kCvU4bBXr3i
QP7i0D6EuofBHlDqQOh8IEF7PK7BJ9CgQLfJIEEhVKbBhM+5QCm9AEEz+LDBUaqJQKZx6D9yeKTB
PSihQKWJkEAmVY/Br4eiQPH7JkBv8pvBNtSGQEeSb0AIhJfBVMjHQHcrEkG166jBEXqvQLqO2j8y
JpPB9LuKQHcuuEA/T4zBhtHMQDRK3kAB0GnBha73QA0pAkCco5TBDDl1QMGFk0AIE6DBlGgGQc/8
I748TrPBN+WdQEW8QsBYa6bBgR0aQTBy7UAyKJLBr0r/QBvK0UByEYXB0vcNQcH7CUH7aaLB9+6Y
QBSH/0B5FpnBS9jXQDpx5D/eRK7BuOBpQJP9T7+sGaLBYCvpQF9LH8A76q7Bnxq6QGGNFEG+mn7B
GweJQDWcGUGMhXDBIsdXQNy07UARvXzBuot4QHm8BkGrn4nBXx/CQHd+C0ELNVjBdR2VQJ1h80C0
1VnBKLGdQC6rr0BXK3DBUafPQBISqEBG3X3Bs8ECQZ2LiT6L8IbB0FLVQMSuNz8p9X/BoOXTQFHb
Cb/7PorBZvPcQDIBKEFHdbXB7WL0QKj8LEFkk6jBsgwDQR6gFkFUcbDBHoOVQEKBKEE+t63Bb+KG
QGoQF0Fa5aLBMX+qQGIgLUEAiqDBJtatQM1dCEFDULjBzFvVQN0A7UDW67LBokugQF7g7UCKZq3B
lbuDQAtmHUDUc6vBgN9VQO6yvT9mHKHB8d2lQBE7eUCDLIjBNnPAQNiimEAN0ZLB1DW/QB/BQkCh
r5/BSORUQOxKVEBdlZPBIW2YQJ8LnT/RJY/BzkFjQD1fsEDav4fBxwnmQDBA60B4OnHBtb7WQLUk
zkDM61zBCGxUQJjzg0A+J6XB

>  <OMEGA_E>  (40) 
eJY3PvhRQD4=

>  <OMEGA_NBR>  (40) 
    146350

$$$$
50212892
     RDKit          3D

 88 91  0  0  1  0  0  0  0  0999 V2000
   11.7917    8.3277  -15.6959 C   0  0  0  0  0  0  0  0  0  0  0  0
   11.2501    7.2565  -16.4295 C   0  0  0  0  0  0  0  0  0  0  0  0
   11.5438    8.4268  -14.3128 C   0  0  0  0  0  0  0  0  0  0  0  0
    8.5461    7.4473  -18.5243 C   0  0  0  0  0  0  0  0  0  0  0  0
    7.6035    6.9890  -17.5886 C   0  0  0  0  0  0  0  0  0  0  0  0
   10.4420    6.2933  -15.7884 C   0  0  0  0  0  0  0  0  0  0  0  0
   10.7489    7.4587  -13.6657 C   0  0  0  0  0  0  0  0  0  0  0  0
    8.1478    8.2099  -19.6278 C   0  0  0  0  0  0  0  0  0  0  0  0
    5.8334    7.9627  -18.9339 C   0  0  0  0  0  0  0  0  0  0  0  0
    6.3529    0.7809  -21.5496 C   0  0  0  0  0  0  0  0  0  0  0  0
    4.5716   -0.6684  -20.7127 C   0  0  0  0  0  0  0  0  0  0  0  0
    6.6021   -1.6410  -21.6484 C   0  0  0  0  0  0  0  0  0  0  0  0
    6.2300    7.2538  -17.7791 C   0  0  0  0  0  0  0  0  0  0  0  0
   10.1974    6.3854  -14.4000 C   0  0  0  0  0  0  0  0  0  0  0  0
    6.7809    8.4981  -19.8346 C   0  0  0  0  0  0  0  0  0  0  0  0
    5.0846    0.6200  -20.9523 C   0  0  0  0  0  0  0  0  0  0  0  0
    7.1162   -0.3500  -21.8853 C   0  0  0  0  0  0  0  0  0  0  0  0
    5.3267   -1.7981  -21.0678 C   0  0  0  0  0  0  0  0  0  0  0  0
    6.8665    1.4083  -18.0755 C   0  0  0  0  0  0  0  0  0  0  0  0
    7.3063    6.5792  -13.7885 C   0  0  0  0  0  0  0  0  0  0  0  0
    4.9281    8.8682  -15.5027 C   0  0  0  0  0  0  0  0  0  0  0  0
    4.1873    7.8641  -16.3953 C   0  0  0  0  0  0  0  0  0  0  0  0
    5.4229    8.1624  -14.2363 C   0  0  0  0  0  0  0  0  0  0  0  0
    5.6606    6.0128  -15.5473 C   0  0  0  0  0  0  0  0  0  0  0  0
    5.1390    6.7192  -16.8247 C   0  0  2  0  0  0  0  0  0  0  0  0
    7.1681    0.3796  -16.9880 C   0  0  0  0  0  0  0  0  0  0  0  0
    7.4191   10.1360  -21.7031 C   0  0  0  0  0  0  0  0  0  0  0  0
    5.1003   10.1677  -20.7686 C   0  0  0  0  0  0  0  0  0  0  0  0
    5.8794    8.1846  -22.1364 C   0  0  0  0  0  0  0  0  0  0  0  0
    4.3050    1.8231  -20.5050 C   0  0  0  0  0  0  0  0  0  0  0  0
    9.3494    5.3337  -13.6967 C   0  0  0  0  0  0  0  0  0  0  0  0
    5.0871    4.5391  -17.9406 C   0  0  0  0  0  0  0  0  0  0  0  0
    5.1106    2.6104  -19.4556 C   0  0  1  0  0  0  0  0  0  0  0  0
    4.2468    3.7323  -18.8988 C   0  0  2  0  0  0  0  0  0  0  0  0
    6.3053    9.2411  -21.0927 C   0  0  0  0  0  0  0  0  0  0  0  0
    6.2291    6.9703  -14.5842 N   0  0  0  0  0  0  0  0  0  0  0  0
    5.5382    1.7193  -18.3543 N   0  0  0  0  0  0  0  0  0  0  0  0
    4.3350    5.7392  -17.5553 N   0  0  0  0  0  0  0  0  0  0  0  0
    7.7928    1.9962  -18.6240 O   0  0  0  0  0  0  0  0  0  0  0  0
    7.5738    7.2340  -12.7852 O   0  0  0  0  0  0  0  0  0  0  0  0
    3.8115    4.5768  -19.9647 O   0  0  0  0  0  0  0  0  0  0  0  0
    7.9713    5.4251  -14.1216 O   0  0  0  0  0  0  0  0  0  0  0  0
    8.3453   -0.1954  -22.4264 F   0  0  0  0  0  0  0  0  0  0  0  0
    4.8301   -3.0333  -20.8377 F   0  0  0  0  0  0  0  0  0  0  0  0
   12.3962    9.0726  -16.1920 H   0  0  0  0  0  0  0  0  0  0  0  0
   11.4534    7.1709  -17.4867 H   0  0  0  0  0  0  0  0  0  0  0  0
   11.9633    9.2457  -13.7472 H   0  0  0  0  0  0  0  0  0  0  0  0
    9.5907    7.2080  -18.3901 H   0  0  0  0  0  0  0  0  0  0  0  0
    7.9302    6.4332  -16.7222 H   0  0  0  0  0  0  0  0  0  0  0  0
   10.0101    5.4849  -16.3598 H   0  0  0  0  0  0  0  0  0  0  0  0
   10.5612    7.5380  -12.6051 H   0  0  0  0  0  0  0  0  0  0  0  0
    8.8874    8.5788  -20.3230 H   0  0  0  0  0  0  0  0  0  0  0  0
    4.7808    8.0988  -19.1335 H   0  0  0  0  0  0  0  0  0  0  0  0
    6.7359    1.7710  -21.7483 H   0  0  0  0  0  0  0  0  0  0  0  0
    3.5998   -0.7882  -20.2569 H   0  0  0  0  0  0  0  0  0  0  0  0
    7.1856   -2.5108  -21.9118 H   0  0  0  0  0  0  0  0  0  0  0  0
    5.7876    9.2811  -16.0512 H   0  0  0  0  0  0  0  0  0  0  0  0
    4.2448    9.6839  -15.2240 H   0  0  0  0  0  0  0  0  0  0  0  0
    3.3389    7.4405  -15.8379 H   0  0  0  0  0  0  0  0  0  0  0  0
    3.8152    8.3816  -17.2918 H   0  0  0  0  0  0  0  0  0  0  0  0
    6.0420    8.8595  -13.6525 H   0  0  0  0  0  0  0  0  0  0  0  0
    4.5565    7.8497  -13.6349 H   0  0  0  0  0  0  0  0  0  0  0  0
    4.8252    5.4806  -15.0689 H   0  0  0  0  0  0  0  0  0  0  0  0
    6.4397    5.2908  -15.8331 H   0  0  0  0  0  0  0  0  0  0  0  0
    8.2560    0.3082  -16.8417 H   0  0  0  0  0  0  0  0  0  0  0  0
    6.6913    0.6906  -16.0468 H   0  0  0  0  0  0  0  0  0  0  0  0
    6.7740   -0.6014  -17.2920 H   0  0  0  0  0  0  0  0  0  0  0  0
    7.0318   10.6450  -22.5981 H   0  0  0  0  0  0  0  0  0  0  0  0
    7.7339   10.8858  -20.9624 H   0  0  0  0  0  0  0  0  0  0  0  0
    8.2805    9.5109  -21.9809 H   0  0  0  0  0  0  0  0  0  0  0  0
    4.7797   10.6869  -21.6839 H   0  0  0  0  0  0  0  0  0  0  0  0
    4.2677    9.5635  -20.3792 H   0  0  0  0  0  0  0  0  0  0  0  0
    5.4005   10.9086  -20.0130 H   0  0  0  0  0  0  0  0  0  0  0  0
    5.5334    8.6898  -23.0502 H   0  0  0  0  0  0  0  0  0  0  0  0
    6.7376    7.5399  -22.3767 H   0  0  0  0  0  0  0  0  0  0  0  0
    5.0639    7.5714  -21.7255 H   0  0  0  0  0  0  0  0  0  0  0  0
    4.1045    2.4704  -21.3715 H   0  0  0  0  0  0  0  0  0  0  0  0
    3.3521    1.4964  -20.0631 H   0  0  0  0  0  0  0  0  0  0  0  0
    9.7375    4.3338  -13.9408 H   0  0  0  0  0  0  0  0  0  0  0  0
    9.4040    5.4929  -12.6096 H   0  0  0  0  0  0  0  0  0  0  0  0
    5.3097    3.9382  -17.0465 H   0  0  0  0  0  0  0  0  0  0  0  0
    6.0281    4.8322  -18.4290 H   0  0  0  0  0  0  0  0  0  0  0  0
    5.9956    3.0466  -19.9420 H   0  0  0  0  0  0  0  0  0  0  0  0
    3.3866    3.3023  -18.3648 H   0  0  0  0  0  0  0  0  0  0  0  0
    4.8300    1.3157  -17.7750 H   0  0  0  0  0  0  0  0  0  0  0  0
    3.5698    5.4609  -16.9747 H   0  0  0  0  0  0  0  0  0  0  0  0
    3.9835    6.1729  -18.3849 H   0  0  0  0  0  0  0  0  0  0  0  0
    3.2815    4.0736  -20.5717 H   0  0  0  0  0  0  0  0  0  0  0  0
  1  2  2  0
  1  3  1  0
  2  6  1  0
  3  7  2  0
  4  5  2  0
  4  8  1  0
  5 13  1  0
  6 14  2  0
  7 14  1  0
  8 15  2  0
  9 13  2  0
  9 15  1  0
 10 16  2  0
 10 17  1  0
 11 16  1  0
 11 18  2  0
 12 17  2  0
 12 18  1  0
 13 25  1  0
 14 31  1  0
 15 35  1  0
 16 30  1  0
 17 43  1  0
 18 44  1  0
 19 26  1  0
 19 37  1  0
 19 39  2  0
 20 36  1  0
 20 40  2  0
 20 42  1  0
 21 22  1  0
 21 23  1  0
 22 25  1  0
 23 36  1  0
 24 25  1  0
 24 36  1  0
 25 38  1  6
 27 35  1  0
 28 35  1  0
 29 35  1  0
 30 33  1  0
 31 42  1  0
 32 34  1  0
 32 38  1  0
 33 34  1  0
 33 37  1  0
 34 41  1  0
  1 45  1  0
  2 46  1  0
  3 47  1  0
  4 48  1  0
  5 49  1  0
  6 50  1  0
  7 51  1  0
  8 52  1  0
  9 53  1  0
 10 54  1  0
 11 55  1  0
 12 56  1  0
 21 57  1  0
 21 58  1  0
 22 59  1  0
 22 60  1  0
 23 61  1  0
 23 62  1  0
 24 63  1  0
 24 64  1  0
 26 65  1  0
 26 66  1  0
 26 67  1  0
 27 68  1  0
 27 69  1  0
 27 70  1  0
 28 71  1  0
 28 72  1  0
 28 73  1  0
 29 74  1  0
 29 75  1  0
 29 76  1  0
 30 77  1  0
 30 78  1  0
 31 79  1  0
 31 80  1  0
 32 81  1  0
 32 82  1  0
 33 83  1  6
 34 84  1  1
 37 85  1  0
 38 86  1  0
 38 87  1  0
 41 88  1  0
M  CHG  1  38   1
M  END
>  <OMEGA_C>  (41) 
oqo8QW0+BUE3InvBXgA0QUg16ECXb4PBYLM4QTzUBkFYAWXB6bwIQQtQ7kC3MZTBpE/zQB6m30Bz
tYzBWBInQYFiyUBtnXzBovsrQdit7kDGplrBkF0CQZZbA0HOBZ3BZKu6QF3O/kCueJfBwkrLQAHs
Rz+rZazBb0qSQHUfK7+Is6XBNUTTQNQN0r/UL63BFlzHQIof6ECHO47BWygjQVlVzEB0ZmbB/vzY
QCn4B0E8rZ7B0bSiQM+1Hj9cnqfBDLjjQD00s74kFa/BH3SqQLYm5r/OiqjBDLrbQOBDtD+UmpDB
l83pQPiI0kCgnVzBHbOdQBbkDUEMC3jBWf6FQKOm+0ClKYPBYoitQBmZAkG5x2PBjiO1QNFowEDd
wXjBGHOkQIQD10DrmIbB3WDlQM5Wwj5z54fBG2ntQC8tIkEEoK3BxjWjQO2uIkEpJqbB2CO8QAX0
AkFwF7HBfsKJQFxb6T84CqTBH5cVQYOtqkCiJVvBNsmiQPM/kUBHho/BOIqjQHgQJ0AEpZvB4OWH
QNXdbkDPMJfBbcXJQG7bE0HzvajBilTHQGEM30DmWGnBWDmxQNAQ3D+s1ZLBs7iKQEqnt0AucYzB
eF75QOaD/z/k/ZTBl1zyQMJ850A2kEzB+O9zQNx0kkCxt5/BORX/QEWarUAz8mHBJYYFQfQdSL45
abPBjpCaQHQhQsCjs6bBwlZGQUcpEUE8iYHBGUE3QVN45UDP5IvBnmk/QTTuE0GQ9FvBknMZQUqo
5kABH5PBVMT9QAHdzUD5xoXBhikgQWSEr0Dg4ILBefooQUM38UCYrknB+TIOQeRCCUF/laLBIfyY
QLSUAUFTEZnBq4zXQB6w4j+I/K3BjGNmQIvFSb8QDqLBxPDlQPiwIMBGS6/BuDO5QFZ/FEHdaIDB
gtWHQEzxGkFdlXPBrrBVQE0Y7kDhZ33BUCx0QCkbBkGpVYrBUljBQG3ADUHTcFrB5c6RQBUx+0CX
KFrB7GeaQD1hr0A+GnHB6hHOQOFNqUBqVH3BZhgEQcLGnT7Eu4bB5R7WQK3NMD/VX4DBNMTYQDX0
Gb/+VYrBmQThQBZSKkHfyLTB1Xv3QFksLkH0sqfB7XwEQaUsGEHu2K/Bk/OYQFf9KkGheK3B3ZCI
QCAEGUGTCKPB+tCsQKiJLkGrGqDBRxGxQI8JC0HaZrjBwprXQING8UB3A7PBFguiQLZI8kC8za3B
XViDQBIbHkDO+KrBoYhWQNyJvz9KgaDB/cwbQXOuikBTDV/BnHYWQdbFr0AWwUnBNempQGkLfEAw
X4jB5+XAQFmhmkCgbpPB19u/QLn6QkAuiZ/Btb5YQJtYU0AY65LBoY+aQBpqqD9BM47BanhkQPS/
rkAuzIfBnfF+QEWIxUBJFJPBqARSQBNbgkDXkqTBi0JHQYfs9ECU/m/BjDVCQYdgzEArhHjBBwM7
QbXzAkEsDl/B3oEJQSMz80D4tJLBQBX0QDpb40DDjYvBWwExQSyqtEC1AXDBzOgpQVgX7kDYa1bB
6S8DQTOGBEFpCJzBG967QOhB/UAmW5fBVB7FQP8sSj/QKK3Bg56VQBoSSr/sIqTBYGrTQF8czb/5
Ia7BdOzHQGS46ED5y43BqAUlQaYcxUCzr17BMWfaQJ+oB0HUUZ7BfMSgQOb5CD8yyqbBm4XeQAQK
jr4exrDB8tiuQF7F7b/42qfBv27eQANoxT9zdZDBoEvnQBnO1kDm91vBf9yZQBV+DkFgV3jB3D+E
QGoG/EDkd4PBH02pQCaIA0GL1GPBZrezQAH8wUBYO3jBuuqjQNmo10CnfIbB+u/qQNRnCT8+0ofB
K53MQFhoAkEd2LHBwYjpQPr5JUFfe6vBo5ydQCEfHEF8tafBOZqGQJ+c1z93laLBG8ISQcb8qkCY
ZVXBTKSjQHJvkkCpzI/BKGKiQDijJECYTJvBxKWHQG5jbkAs95bBZ8XLQNjrEkEbq6jBZ7vEQM7I
4UA6BWnB7S6zQOWG4j8sU5LB1+SKQNABuED4eIzB3Sb6QH7JAEAVTZbBjizuQCFp7EAI8EvBSwtx
QCm4kEDspp/BZFL+QAq2skA9IGHBxb0AQaw96bxs0LbB/hSkQC42SMBHWaXBr4JUQYJ8A0FdcXbB
x4VLQZt7v0BxyILB6Ls+QcyUEkGZsVjBf00aQSeU7kAbCZHB+Pr9QOgV00AOWITBbPosQSDflUA6
vXbBnYUgQQsr+0ByeEnBBSsPQSyOCkHbeqHBjFqaQBQ6/0BQaJnBQmvNQFYE5z/LQa/Bw41zQKXa
e7+OQp/B+u3mQCIRG8BP67DBnF61QCmZFUFRW4DBvciCQO0hG0GAPHTBNy5RQCQk7kArjX7B5qdy
QCgFBkFO0IrBtsy7QFUJD0EAP1rBGGqNQIYh/ED1lVrBKtKYQCT1sEAYuHDBHSXNQHoAq0AwPXzB
3dcGQVutuj5wGIjBzRDiQHPwbj9I1n/BPhDaQBdC077nOInBmkTCQGgcCkFhUrnBx1XtQMdv+EAh
0bLB69e2QDE76kAf76/BoUbeQK+nLUEW4rLBHg3pQFOvMUGr6aTBxTEFQQYaIEGJpKzBGKuUQLH3
I0EcQ6/BFhKHQMoHD0ErBqbBz3ycQD7dJ0H0KKHBOVF1QBkYEkCFVqnBp7xWQKV+pT+5+J3Bk80W
QevIiECMXlbBfmYQQSEItEBNjUTB70utQJHJf0AsuIjBLFLAQPiznECHNZTBjhu9QAijPkDqA6DB
Dm5ZQOuqVEDGTJLBdRmeQP2Brj+5Qo3BvXtlQFoirkBV14fBhE5+QDAmxkBtBZPBjdlNQFCYf0BH
LqTB

>  <OMEGA_E>  (41) 
SATTPuzr4j4=

>  <OMEGA_NBR>  (41) 
    149407

$$$$
50212898
     RDKit          3D

 72 74  0  0  1  0  0  0  0  0999 V2000
    8.5800    7.5556  -18.5020 C   0  0  0  0  0  0  0  0  0  0  0  0
    7.6546    7.0384  -17.5802 C   0  0  0  0  0  0  0  0  0  0  0  0
    8.1378    8.2518  -19.6394 C   0  0  0  0  0  0  0  0  0  0  0  0
    5.8354    7.8829  -18.9534 C   0  0  0  0  0  0  0  0  0  0  0  0
    4.6127   -0.6638  -20.7437 C   0  0  0  0  0  0  0  0  0  0  0  0
    6.3840    0.8103  -21.5567 C   0  0  0  0  0  0  0  0  0  0  0  0
    6.6814   -1.6082  -21.6265 C   0  0  0  0  0  0  0  0  0  0  0  0
    6.2662    7.2359  -17.7719 C   0  0  0  0  0  0  0  0  0  0  0  0
    6.7529    8.4361  -19.8738 C   0  0  0  0  0  0  0  0  0  0  0  0
    5.1057    0.6340  -20.9827 C   0  0  0  0  0  0  0  0  0  0  0  0
    5.3971   -1.7834  -21.0722 C   0  0  0  0  0  0  0  0  0  0  0  0
    7.1754   -0.3102  -21.8663 C   0  0  0  0  0  0  0  0  0  0  0  0
    6.7942    1.4888  -18.0026 C   0  0  0  0  0  0  0  0  0  0  0  0
    4.8986    8.8143  -15.3937 C   0  0  0  0  0  0  0  0  0  0  0  0
    4.2269    7.8531  -16.3780 C   0  0  0  0  0  0  0  0  0  0  0  0
    5.2743    8.0380  -14.1213 C   0  0  0  0  0  0  0  0  0  0  0  0
    5.7352    5.9941  -15.4928 C   0  0  0  0  0  0  0  0  0  0  0  0
    5.1939    6.7067  -16.7875 C   0  0  2  0  0  0  0  0  0  0  0  0
    7.0691    0.4154  -16.9541 C   0  0  0  0  0  0  0  0  0  0  0  0
    5.8552    8.0357  -22.1810 C   0  0  0  0  0  0  0  0  0  0  0  0
    7.2963   10.0657  -21.7833 C   0  0  0  0  0  0  0  0  0  0  0  0
    4.9791    9.9960  -20.8494 C   0  0  0  0  0  0  0  0  0  0  0  0
    4.2997    1.8329  -20.5478 C   0  0  0  0  0  0  0  0  0  0  0  0
    5.0750    4.5294  -17.9223 C   0  0  0  0  0  0  0  0  0  0  0  0
    5.0821    2.6249  -19.4819 C   0  0  1  0  0  0  0  0  0  0  0  0
    4.2335    3.7645  -18.9303 C   0  0  2  0  0  0  0  0  0  0  0  0
    6.2327    9.1263  -21.1528 C   0  0  0  0  0  0  0  0  0  0  0  0
    6.2123    6.9287  -14.4282 N   0  0  0  0  0  0  0  0  0  0  0  0
    5.4761    1.7316  -18.3739 N   0  0  0  0  0  0  0  0  0  0  0  0
    4.3587    5.7414  -17.5190 N   0  0  0  0  0  0  0  0  0  0  0  0
    7.3899    7.2909  -14.5448 O   0  0  0  0  0  0  0  0  0  0  0  0
    7.7341    1.9958  -18.6061 O   0  0  0  0  0  0  0  0  0  0  0  0
    3.8600    4.6357  -19.9982 O   0  0  0  0  0  0  0  0  0  0  0  0
    4.9213   -3.0268  -20.8404 F   0  0  0  0  0  0  0  0  0  0  0  0
    8.4133   -0.1395  -22.3823 F   0  0  0  0  0  0  0  0  0  0  0  0
    9.6380    7.4173  -18.3352 H   0  0  0  0  0  0  0  0  0  0  0  0
    8.0046    6.4868  -16.7202 H   0  0  0  0  0  0  0  0  0  0  0  0
    8.8581    8.6488  -20.3394 H   0  0  0  0  0  0  0  0  0  0  0  0
    4.7773    7.9560  -19.1572 H   0  0  0  0  0  0  0  0  0  0  0  0
    3.6334   -0.7985  -20.3086 H   0  0  0  0  0  0  0  0  0  0  0  0
    6.7535    1.8050  -21.7577 H   0  0  0  0  0  0  0  0  0  0  0  0
    7.2872   -2.4692  -21.8675 H   0  0  0  0  0  0  0  0  0  0  0  0
    5.8058    9.2368  -15.8504 H   0  0  0  0  0  0  0  0  0  0  0  0
    4.2036    9.6278  -15.1387 H   0  0  0  0  0  0  0  0  0  0  0  0
    3.3346    7.4185  -15.9036 H   0  0  0  0  0  0  0  0  0  0  0  0
    3.9288    8.4107  -17.2781 H   0  0  0  0  0  0  0  0  0  0  0  0
    5.7528    8.7261  -13.4089 H   0  0  0  0  0  0  0  0  0  0  0  0
    4.3607    7.6217  -13.6718 H   0  0  0  0  0  0  0  0  0  0  0  0
    4.9246    5.3800  -15.0736 H   0  0  0  0  0  0  0  0  0  0  0  0
    6.5747    5.3451  -15.7825 H   0  0  0  0  0  0  0  0  0  0  0  0
    8.1525    0.2378  -16.8857 H   0  0  0  0  0  0  0  0  0  0  0  0
    6.6903    0.7514  -15.9776 H   0  0  0  0  0  0  0  0  0  0  0  0
    6.5623   -0.5173  -17.2429 H   0  0  0  0  0  0  0  0  0  0  0  0
    5.4818    8.5111  -23.1001 H   0  0  0  0  0  0  0  0  0  0  0  0
    6.7431    7.4304  -22.4161 H   0  0  0  0  0  0  0  0  0  0  0  0
    5.0719    7.3891  -21.7586 H   0  0  0  0  0  0  0  0  0  0  0  0
    6.8823   10.5336  -22.6887 H   0  0  0  0  0  0  0  0  0  0  0  0
    7.5702   10.8473  -21.0593 H   0  0  0  0  0  0  0  0  0  0  0  0
    8.1901    9.4819  -22.0483 H   0  0  0  0  0  0  0  0  0  0  0  0
    4.6311   10.4746  -21.7767 H   0  0  0  0  0  0  0  0  0  0  0  0
    4.1799    9.3583  -20.4438 H   0  0  0  0  0  0  0  0  0  0  0  0
    5.2397   10.7704  -20.1129 H   0  0  0  0  0  0  0  0  0  0  0  0
    4.1083    2.4797  -21.4167 H   0  0  0  0  0  0  0  0  0  0  0  0
    3.3424    1.4958  -20.1237 H   0  0  0  0  0  0  0  0  0  0  0  0
    5.2563    3.8982  -17.0399 H   0  0  0  0  0  0  0  0  0  0  0  0
    6.0367    4.8053  -18.3796 H   0  0  0  0  0  0  0  0  0  0  0  0
    5.9833    3.0476  -19.9499 H   0  0  0  0  0  0  0  0  0  0  0  0
    3.3443    3.3523  -18.4310 H   0  0  0  0  0  0  0  0  0  0  0  0
    4.7512    1.2735  -17.8594 H   0  0  0  0  0  0  0  0  0  0  0  0
    3.5948    5.4756  -16.9308 H   0  0  0  0  0  0  0  0  0  0  0  0
    4.0064    6.1883  -18.3413 H   0  0  0  0  0  0  0  0  0  0  0  0
    3.3339    4.1575  -20.6283 H   0  0  0  0  0  0  0  0  0  0  0  0
  1  2  2  0
  1  3  1  0
  2  8  1  0
  3  9  2  0
  4  8  2  0
  4  9  1  0
  5 10  2  0
  5 11  1  0
  6 10  1  0
  6 12  2  0
  7 11  2  0
  7 12  1  0
  8 18  1  0
  9 27  1  0
 10 23  1  0
 11 34  1  0
 12 35  1  0
 13 19  1  0
 13 29  1  0
 13 32  2  0
 14 15  1  0
 14 16  1  0
 15 18  1  0
 16 28  1  0
 17 18  1  0
 17 28  1  0
 18 30  1  6
 20 27  1  0
 21 27  1  0
 22 27  1  0
 23 25  1  0
 24 26  1  0
 24 30  1  0
 25 26  1  0
 25 29  1  0
 26 33  1  0
 28 31  1  0
  1 36  1  0
  2 37  1  0
  3 38  1  0
  4 39  1  0
  5 40  1  0
  6 41  1  0
  7 42  1  0
 14 43  1  0
 14 44  1  0
 15 45  1  0
 15 46  1  0
 16 47  1  0
 16 48  1  0
 17 49  1  0
 17 50  1  0
 19 51  1  0
 19 52  1  0
 19 53  1  0
 20 54  1  0
 20 55  1  0
 20 56  1  0
 21 57  1  0
 21 58  1  0
 21 59  1  0
 22 60  1  0
 22 61  1  0
 22 62  1  0
 23 63  1  0
 23 64  1  0
 24 65  1  0
 24 66  1  0
 25 67  1  6
 26 68  1  1
 29 69  1  0
 30 70  1  0
 30 71  1  0
 33 72  1  0
M  CHG  2  30   1  31  -1
M  END
>  <OMEGA_C>  (42) 
sEcJQcjH8UAOBJTBG/L0QIQ64UA5pIzBcTQCQT0HBEGWHZ3BP7u6QBJB/ECmoJfBJZuTQL7sKb8H
86XBU0nMQGRvTz8adKzBRc7VQJnYzb8SA63BlYTIQKKM50DlLI7BIhjYQDb6BkGh/Z7Br2GjQDhP
Ij+s3KfBSLWsQIRG5L/Lk6jBoJzlQHHWnr497q7BZmrZQBOSvj9kBZDBvcGcQGMHDUGVTHbBf0KH
QM9M+0ALBoPBQseoQH2bAEEE8WHBdoa3QADQv0Bx4nfBxjSmQBSd1kDZTIbB4zXiQN+t1D4XoofB
Z127QFCSAEG7crHB8HrpQEsNIUE0RK7B3lSfQM7vH0Gey6bBh5eJQAGe6j/2YaTBamaiQNzwkEDs
YI/BLKCiQKX9J0AC25vB1HiHQCbucEBUcZfBOHLHQC0FEkHvOKnBi8vGQOC33UDX2WbBKzyvQC6k
3T/F/ZLBYHqLQKm5t0DUJozB5HnsQFtP6UCgt2jB+H33QPt2/z8z2ZTBCgp3QNlXlEBC/J/BV3ud
QH23QcAxuabB/JwGQfDbDr4GD7PBZjUaQWBa7UB3rpLBsxIAQbuTz0DswoXBzroNQXFhCkEYt6LB
cN+YQG6X/kD+QZnBF4poQHdsTL//d6LBoxzYQCEK5z/BD67B0DDpQP4GHsC78K7BRsm5QMzJE0Ex
m33BlYOGQJkLGkEZOHLBgWpVQD5k7UA3dX7B73B7QDuSBkGGOYrB1Ba4QCueC0EEi1bBMouLQM/k
80C8v1rBDpadQM0orEBWLXHBnGPSQNoKq0BMhXzBmXACQWiEcz7tFYfBBBfWQHRZQD84pH/BXf7R
QMhqBL9d8YnB/mqvQFwtCEHzzLjBM8fXQDXG7UAeVLPBQU2iQG9z7ECgEa7BDjzcQLqJKEF4grXB
KD/yQJKOLUGLeajBcgoDQcm1F0H4YrDBmDGUQNuXJ0G1Nq7B7sGFQIi7FUHTjKPBB6ynQF9TLEEn
56DBN3eDQBC0HkB+VavBhepVQOF3vz9A/aDBhjOoQLJ7eUCzUYjBRSzBQKXEmUB9CZPBPne/QIkM
Q0BpmZ/BlwhWQHiMVkCkcpPBCwqYQEcBoz8R4I7BAhJmQGE4r0BRcofBlTSAQHAGxkDxupLB7F5V
QIUKhUDNBqXBi5oJQX+r8EC9QJTBD5T1QEz730A66YzBt4sCQdDMA0EuPp3BWlu7QAtZ/EAtrZfB
rw/NQNSZTz/otqzBybCTQMScJL/sS6bBfxnWQIIbzr/ZBq3B8SnJQL0I50AxT47B1szYQAEAB0ER
C5/BgcmjQHUhJj91TKjBRk3mQNfnor5v/q7BvLqsQNG04r8auKjBMv3YQJk2uz9AWJDBH06dQHjC
DEEVnHbBmcqHQLlF+kDADYPBqnCqQFePAEGeSGLBl964QD2Ev0BbGHjBe/+mQAbq1UBwZYbBO1/h
QBYm3j43lIfByYTqQLFBIUGLN67BgUigQJMkIEFb0qbBIUy8QDfbAEFaiLHBgjWKQAe+7T+166TB
NTmjQMmykECKsY/BBMOiQMDnJ0B6KZzBlHuHQJHJb0ByhpfBhVXIQB0zEkE4P6nB/7PIQCn03UDv
ZGfBgPuuQP2L2T9beJPBhh2MQG3itkCiKIzByRHuQHQi6kCq22nBgcP2QD1nCEDV2JPBHVtzQCqi
k0Bu65/BBxwHQW9AJb4k+bLBAzKdQOKPQMCvx6bBzYUaQcrW60AY+pLBsF8AQXifzUD3JIbB6hIO
QYE4CkFD0qLB2XyZQB41/0BZPZnB7TvZQHWK5j8CV67BD05oQCVFRL+X56LBuWTpQBGTHsAl0q7B
19q5QEy4E0EIMn7B0cWGQIecGUEoaHLBjU9XQJMT7EBiRH7BTy57QCLoBUGOPorBkOu5QDO+C0HX
HFfBKayNQIeG80CNwVrBYRmfQLwYrEAsEHHBVYzTQKeRqkBqzHzBjsgBQXX34D7SfYXBJU7OQDCk
Lz9WdoDBN0fYQCjaEL8bdorBDGbdQKjbKEHFcbXBD0nzQN+rLUGEYKjBAowDQYTnF0EGWbDBNFCV
QNfmJ0GjOq7BNpiGQMzwFUHKoaPBQJqoQGpzLEGY4qDBhniwQJaOCEFZ37jBdLPYQHxW7kAWa7PB
0CejQJv87EADNK7BLjqFQKH9IEBz3KvB0gtWQCw8xD81xaHBJpaqQLrXeEBjvYjBKC/BQFVAmkC+
pZPBQsK/QDnPQ0CSup/BFNZXQH9BVEAPRZPB0aWXQEOUmz/smY/BfMdoQH61rUAkTofBaqd/QEpb
xUA+mZLB+rJQQLoShEDpzaTBGHwJQYR08UAVBpTBVz71QC3F4ECBtIzBRXwCQZMDBEEdFZ3BRym7
QNRx/ECUopfBx2jMQF3YTj8CnqzBVTaTQFbEJL8oEabBkIrVQDBqzr9206zBg9TIQJlU50D7OI7B
6bTYQJYZB0Ft9p7BLUOjQGelJT/AIajBnqflQPODpL7W3q7ByDmsQL3a4r8He6jBn1rZQDQAwT9L
FJDBfnKcQES/DEGykXbBpyeHQHtL+kCIE4PBvyqpQN2HAEG3MGLBpBe4QIKCv0AjAnjBL4qmQAEO
1kDFXobB0lXiQALP3D74uYfB2fO9QCrRAEExmrHBw1nqQDi7IUE5963BsJOfQOylH0He9qbBetCJ
QNSH7T8lv6TBk9SiQAp4kED/e4/BoreiQNMJKEAIE5zB9XWHQJDmb0AVc5fBMnvIQAM2EkGDN6nB
2WfHQES/3UBdHGfBD1SvQGjG2j9EXJPBf+iLQC8bt0AgNYzByvjsQLOe6UCtIWnBXl/3QHYdBUAT
cZTB3md0QAfnk0Dt25/B3bwGQa8OKb636LLBx6+cQMCXQMBWhKbBiWYaQa/l7EAurZLBGCwAQTLM
zkD13YXBBA4OQX5iCkFlp6LBRVKZQFUQ/0BNQ5nBlHrYQHcT5j/LUK7B33lnQNcPRL+MoqLBTdzo
QErBHsD8lq7Bgyi5QLetE0EqB37BruSFQCSfGUFDd3LBcOJVQIIG7EBIan7BDTl6QOjtBUEAR4rB
c4a4QFizC0HU9lbBYTeMQPGW80C4yFrBF0aeQPLbq0ARL3HBh/vSQGLEqkAWo3zBLY4CQa6ioD6F
vYbBmv/TQH7yOT9BC4DBkFzUQIfOBb8IX4rBVFGyQDBzCEGZ+rjB7ffaQCwC70CoX7PBWhSlQH44
7EADbK7B3XjdQEREKUHMPLXBMgvyQB8sLkG1C6jB4sMDQc++GEGY+a/BwNWUQBxYJ0GqaK7BuyKG
QCscFUFj7aPBM9KmQMf+K0Hb9aDBUJOEQLykIECzsqvBQH5VQBtBxD83g6HBFxapQFigeEAAcYjB
pV7BQOximUD4P5PBZou/QBbwQ0AKup/BRTVXQFxqVEBXT5PBhzqYQLrrmT/mlo/B+ydnQPx2rkBA
e4fBNXiAQM9sxUD8w5LBiTZSQCJ9hEDE0qTB

>  <OMEGA_E>  (42) 
gBsBPhCfAz4ASgA+

>  <OMEGA_NBR>  (42) 
    153133

$$$$
50212902
     RDKit          3D

 73 75  0  0  1  0  0  0  0  0999 V2000
    8.5909    7.7168  -18.4066 C   0  0  0  0  0  0  0  0  0  0  0  0
    7.6692    7.1541  -17.5080 C   0  0  0  0  0  0  0  0  0  0  0  0
    8.1415    8.3814  -19.5609 C   0  0  0  0  0  0  0  0  0  0  0  0
    5.8430    7.8731  -18.9492 C   0  0  0  0  0  0  0  0  0  0  0  0
    6.3331    0.7921  -21.5258 C   0  0  0  0  0  0  0  0  0  0  0  0
    4.5774   -0.6842  -20.6812 C   0  0  0  0  0  0  0  0  0  0  0  0
    6.6597   -1.6206  -21.5377 C   0  0  0  0  0  0  0  0  0  0  0  0
    6.2800    7.2192  -17.7793 C   0  0  0  0  0  0  0  0  0  0  0  0
    6.7538    8.4976  -19.8272 C   0  0  0  0  0  0  0  0  0  0  0  0
    5.0552    0.6104  -20.9550 C   0  0  0  0  0  0  0  0  0  0  0  0
    7.1410   -0.3221  -21.8007 C   0  0  0  0  0  0  0  0  0  0  0  0
    5.3753   -1.7997  -20.9831 C   0  0  0  0  0  0  0  0  0  0  0  0
    5.8252    7.9908  -14.4184 C   0  0  0  0  0  0  0  0  0  0  0  0
    6.7635    1.5592  -17.9398 C   0  0  0  0  0  0  0  0  0  0  0  0
    5.0093    8.6951  -15.4888 C   0  0  0  0  0  0  0  0  0  0  0  0
    4.2499    7.6976  -16.3416 C   0  0  0  0  0  0  0  0  0  0  0  0
    5.8073    5.8630  -15.6112 C   0  0  0  0  0  0  0  0  0  0  0  0
    5.2182    6.6166  -16.8375 C   0  0  2  0  0  0  0  0  0  0  0  0
    6.1119    8.7424  -13.1564 C   0  0  0  0  0  0  0  0  0  0  0  0
    7.0563    0.5153  -16.8656 C   0  0  0  0  0  0  0  0  0  0  0  0
    5.7894    8.1209  -22.1071 C   0  0  0  0  0  0  0  0  0  0  0  0
    7.2807   10.1190  -21.7518 C   0  0  0  0  0  0  0  0  0  0  0  0
    4.9935   10.0942  -20.7402 C   0  0  0  0  0  0  0  0  0  0  0  0
    4.2474    1.8037  -20.5370 C   0  0  0  0  0  0  0  0  0  0  0  0
    5.0843    4.4969  -18.0016 C   0  0  0  0  0  0  0  0  0  0  0  0
    5.0483    2.5969  -19.4961 C   0  0  1  0  0  0  0  0  0  0  0  0
    4.2117    3.7427  -18.9674 C   0  0  2  0  0  0  0  0  0  0  0  0
    6.2187    9.2016  -21.0888 C   0  0  0  0  0  0  0  0  0  0  0  0
    6.2400    6.7422  -14.5025 N   0  0  0  0  0  0  0  0  0  0  0  0
    5.4508    1.7158  -18.3760 N   0  0  0  0  0  0  0  0  0  0  0  0
    4.3772    5.6898  -17.5824 N   0  0  0  0  0  0  0  0  0  0  0  0
    7.6965    2.1323  -18.4928 O   0  0  0  0  0  0  0  0  0  0  0  0
    3.8312    4.6062  -20.0402 O   0  0  0  0  0  0  0  0  0  0  0  0
    8.3828   -0.1424  -22.3034 F   0  0  0  0  0  0  0  0  0  0  0  0
    4.9124   -3.0421  -20.7243 F   0  0  0  0  0  0  0  0  0  0  0  0
    9.6499    7.6384  -18.2096 H   0  0  0  0  0  0  0  0  0  0  0  0
    8.0203    6.6707  -16.6083 H   0  0  0  0  0  0  0  0  0  0  0  0
    8.8575    8.8059  -20.2490 H   0  0  0  0  0  0  0  0  0  0  0  0
    4.7879    7.8967  -19.1783 H   0  0  0  0  0  0  0  0  0  0  0  0
    6.6887    1.7868  -21.7507 H   0  0  0  0  0  0  0  0  0  0  0  0
    3.6007   -0.8197  -20.2405 H   0  0  0  0  0  0  0  0  0  0  0  0
    7.2752   -2.4795  -21.7611 H   0  0  0  0  0  0  0  0  0  0  0  0
    4.2915    9.3738  -15.0048 H   0  0  0  0  0  0  0  0  0  0  0  0
    5.6864    9.2759  -16.1324 H   0  0  0  0  0  0  0  0  0  0  0  0
    3.4543    7.2315  -15.7417 H   0  0  0  0  0  0  0  0  0  0  0  0
    3.8038    8.2152  -17.2036 H   0  0  0  0  0  0  0  0  0  0  0  0
    5.0376    5.1778  -15.2264 H   0  0  0  0  0  0  0  0  0  0  0  0
    6.6783    5.2828  -15.9501 H   0  0  0  0  0  0  0  0  0  0  0  0
    6.6572    8.0915  -12.4571 H   0  0  0  0  0  0  0  0  0  0  0  0
    6.7242    9.6266  -13.3874 H   0  0  0  0  0  0  0  0  0  0  0  0
    5.1649    9.0620  -12.6969 H   0  0  0  0  0  0  0  0  0  0  0  0
    8.1441    0.4206  -16.7325 H   0  0  0  0  0  0  0  0  0  0  0  0
    6.5967    0.8274  -15.9163 H   0  0  0  0  0  0  0  0  0  0  0  0
    6.6389   -0.4547  -17.1737 H   0  0  0  0  0  0  0  0  0  0  0  0
    5.4038    8.6055  -23.0162 H   0  0  0  0  0  0  0  0  0  0  0  0
    6.6565    7.4951  -22.3649 H   0  0  0  0  0  0  0  0  0  0  0  0
    5.0023    7.4925  -21.6648 H   0  0  0  0  0  0  0  0  0  0  0  0
    6.8487   10.5952  -22.6443 H   0  0  0  0  0  0  0  0  0  0  0  0
    7.5925   10.8947  -21.0370 H   0  0  0  0  0  0  0  0  0  0  0  0
    8.1539    9.5172  -22.0439 H   0  0  0  0  0  0  0  0  0  0  0  0
    4.6269   10.5872  -21.6527 H   0  0  0  0  0  0  0  0  0  0  0  0
    4.1942    9.4696  -20.3147 H   0  0  0  0  0  0  0  0  0  0  0  0
    5.2927   10.8571  -20.0064 H   0  0  0  0  0  0  0  0  0  0  0  0
    4.0452    2.4391  -21.4118 H   0  0  0  0  0  0  0  0  0  0  0  0
    3.2955    1.4712  -20.0974 H   0  0  0  0  0  0  0  0  0  0  0  0
    5.3009    3.8666  -17.1264 H   0  0  0  0  0  0  0  0  0  0  0  0
    6.0271    4.7775  -18.4938 H   0  0  0  0  0  0  0  0  0  0  0  0
    5.9476    3.0053  -19.9803 H   0  0  0  0  0  0  0  0  0  0  0  0
    3.3276    3.3485  -18.4451 H   0  0  0  0  0  0  0  0  0  0  0  0
    4.7351    1.2013  -17.9036 H   0  0  0  0  0  0  0  0  0  0  0  0
    3.6099    5.4181  -17.0015 H   0  0  0  0  0  0  0  0  0  0  0  0
    4.0304    6.1572  -18.3956 H   0  0  0  0  0  0  0  0  0  0  0  0
    3.2801    4.1301  -20.6503 H   0  0  0  0  0  0  0  0  0  0  0  0
  1  2  2  0
  1  3  1  0
  2  8  1  0
  3  9  2  0
  4  8  2  0
  4  9  1  0
  5 10  2  0
  5 11  1  0
  6 10  1  0
  6 12  2  0
  7 11  2  0
  7 12  1  0
  8 18  1  0
  9 28  1  0
 10 24  1  0
 11 34  1  0
 12 35  1  0
 13 15  1  0
 13 19  1  0
 13 29  2  0
 14 20  1  0
 14 30  1  0
 14 32  2  0
 15 16  1  0
 16 18  1  0
 17 18  1  0
 17 29  1  0
 18 31  1  6
 21 28  1  0
 22 28  1  0
 23 28  1  0
 24 26  1  0
 25 27  1  0
 25 31  1  0
 26 27  1  0
 26 30  1  0
 27 33  1  0
  1 36  1  0
  2 37  1  0
  3 38  1  0
  4 39  1  0
  5 40  1  0
  6 41  1  0
  7 42  1  0
 15 43  1  0
 15 44  1  0
 16 45  1  0
 16 46  1  0
 17 47  1  0
 17 48  1  0
 19 49  1  0
 19 50  1  0
 19 51  1  0
 20 52  1  0
 20 53  1  0
 20 54  1  0
 21 55  1  0
 21 56  1  0
 21 57  1  0
 22 58  1  0
 22 59  1  0
 22 60  1  0
 23 61  1  0
 23 62  1  0
 23 63  1  0
 24 64  1  0
 24 65  1  0
 25 66  1  0
 25 67  1  0
 26 68  1  6
 27 69  1  1
 30 70  1  0
 31 71  1  0
 31 72  1  0
 33 73  1  0
M  CHG  1  31   1
M  END
>  <OMEGA_C>  (43) 
bnQJQQXw9kDCQJPBOWr1QDbu5EBtEIzBc0MCQQkaBkHPfJzB//m6QMbw+0Dsl5fB46jKQHrJSj/p
NKzB8nmSQJwpL78Hc6XBjxzVQNZvz78tTazBbfXIQGUD50AUPI7BMR/YQBr2B0ETnp7BRsShQFJD
HD/go6fBc4PkQOLtpL7HZ67BwwKsQFNc5r9j3afBIGi6QL+0/0CpsWbBqW7YQMGSxz+5hI/BbUyg
QD4fC0EM0nfBif+HQMlS9kCGu4LBSNW5QHSdu0Chx3nBY/umQCa700A3s4bB0ZTDQOHgC0FwgFLB
ds3hQDbpAz/O7IbBl0K5QBjvAUFg27DBTPvoQEDnIUGzA67BgcqfQPCBIUH666XBD+uHQE7e5j/Q
S6TBRLKiQFTmj0A1A5DB0ouhQOwyJkAH+JvBmcaGQASIb0A/vZfB9f/GQMY5E0HWtajBU67HQEvA
10AyCmjBn2yuQOye2z8WApPBABKMQAkTtkDNqIzBZEn2QD13CEBD8ZPBqjF1QN5lk0BiUqDB7h8G
QZbYEb5wbbLBZTKdQMexQsBvy6XBC2YaQSpu9EBRrZHBUVMAQat21UDO3YTBQrgNQfXkDEEK/qHB
QTaZQIqx/EBAbZnBhgnWQKG25D+HAa7BgnJmQMTVUb957KHBxc7oQFyvHsDJFq7BS1SJQAj7FUHS
E3DB9va1QBZqFEE3D4HByxNdQLFo50A13nvBlXFzQHVxA0HroInBtjOhQKawpUBnn3PBe7TVQP0M
qUCAM3/B7QfVQJl2AUFrUEfBmizXQHAGGkGZMlbBQEelQBP+EEGOJkvBW04CQUxT1z4s3IXB/BfT
QLDOUz/3qH7BDHLUQB/P6L65Y4nBRuysQBmwCUFCIbjBAALVQJDX70Bm67LBqhKgQNfC70B3Ua3B
YSjbQP+FKUGLJ7XBw/XyQNlQLkHOS6jBaHYCQUBGGEHTWbDBpw+UQFFlKUGvOK3ByDaGQKuDF0GN
hKLBbl2pQJC2LUEIDaDBTHKBQHEaHEBtS6vBeulSQDZPvD+Ax6DB3aCpQGd2d0D1AonBRN7AQOjg
mEA985PB6VK+QFpXQECS15/BnfZUQDZOVkB5j5PB94WXQGXFmT+UOo/BQwlnQDphrUAIA4jBE/mA
QHwHxUBHKpPBlu1RQJwphEDQM6XBDsYJQRU99kAyLJPB6Lz1QCFf5ECQC4zBsMUCQfbNBUFwbZzB
Xsq7QCJ4+0C5tpfBBQ2TQADVJ78hoqXBqabLQI8jTz9pVqzBpOrVQM10zb91NazBIVzJQFOY5kAC
UY7BcTnZQBvMB0E1op7BVoWiQNaQIj+z4qfBOp+sQBVE47/G3afBQ33lQC4Bn75lZK7BGWy5QFJg
AEHDD2fB2OLYQI4CyD/Dso/B4iigQN6DC0EQk3jBMv+HQMrU9kBvC4PBBHm5QKVAvECOxHnBbAGn
QGjb00A7zobBcajAQJlTDEFOplLBZIDiQAeF/z4NR4fBGxC+QMXwAUHCOLHBCQLqQCn1IkGpdq3B
lZOfQNZTIEFJRabBermIQLNv6j+JmqTBm6WiQEm3j0Dc+o/BQNWhQGTbJkB5EpzBaYOGQJZybkBx
mZfBjqTIQOImE0H7wKjBzs7GQITN2ECzGWjBp+2uQK552j8zQZPB9RCMQJL7tUBKrozBBZT2QGiD
CkC58ZPBkldxQF3NkkCnCKDBnqadQDfdQMB7s6XBh68GQY7rD76+WbLBw68aQSyL80DNiJHBy1QA
QXrn1EBN0YTBB1gOQWGJDEHy46HBCiCaQAYT/EA8qZnB9zdnQOPSSL+0MqLBcDjXQNqH5j/BKK7B
s6LpQFntHcAh3a3BVDCJQMiiFkHYNnHBpFu2QGiAFEE0boHB1pBcQAVR6EA5gnzBmiJ0QOOEA0GM
CYrBIsegQJFepkAko3PBwYjVQCWtqUCe7X7Byf3QQEXeAUFVFkfBA5zUQGd5GkFp01XBALGhQBpv
EUFQBUzBeqgCQZrT1j42JYbBGFfTQMX9Rz+OU3/BusTVQFDV8L4B9InBlCOyQDi4CUHth7jBASDb
QDt/8UCpGbPBuGSlQAEv7kAHEK7BFLjcQJyiKkHHprTBFa3xQDlEL0EMeafBiaQDQUwsGkEwmq/B
NmiUQMxCKEHknK3BfHCGQC6QFUEfRqPBvdimQAV5LEGkKqDB8xWDQP+FHkDGlqvBSLNTQO2FwD9v
SaHBudCpQCCsd0A78YjBNbDAQHiUmEDR/pPBdn6+QDqoQkAk0Z/BSAlWQM1kU0DKRJPBcDKYQCmU
lT9koI/ByytnQBdrrUCo/ofB7N2AQJm4xEDeNJPB19pNQIBCg0D706TB0VQJQTe990BRHJPBKxr1
QPz25UBk5YvBwy0CQXxuBkFDYJzBor+6QEIo/UB3bZfBSkjLQMXVSj+WDKzB5EqTQJg7LL+/CqXB
Pf3VQBBEz7+6w6vBzqbIQKA96EDdDo7BfPbXQG5gCEGjgJ7BSWyiQFAaHj+DcqfBuz/lQL08pr7T
E67BcO2sQDlM5b+aSafBWW+5QIjm/0ApVmbBBZbYQEXdwj8TtI/BToGeQM4iC0HqNHfBWwyHQF9l
9kCOnoLB2yy5QAYMvEBWonnBh5umQDho1EABn4bBIg3FQOxnDEGxslLBJQvhQHakCD+1pIbBLfLo
QCL+IUHUBq7B96SfQCW9IUH0/aXBc0+5QGvzAUEzvLDBaYeIQBts6D9GP6TBmkWjQCYMkUA8LZDB
WfahQPtpJ0Cs7ZvBUR+HQKHccEANwpfBcOzGQGBrE0Elq6jB6BLHQM0W2EB93mfBTnyuQEKs3z+y
25LB2TCMQFTItkDcuIzB8t72QCDz/j95sJTBW310QC2hk0BYXKDBWHkGQTrbGr7ZI7LBRj6eQGXn
QcCWA6XBREUaQcYo9UCfh5HBTCUAQaaJ1kA8sITBC6kNQfcZDUG456HBJ/eYQBM0/kD6OpnB44zW
QLBL5D+pAa7BDihoQMd2Tb9Te6HBcsPpQCy/HsAzbK3BBO2GQBJ1FUEqMW/BxYqzQHL9FEFQp4DB
gRdbQJjg5kDZ6XvBuM9xQO2VA0ElgInBpV6gQM5BpkBJiHPBO/bUQFRTqUCdB3/B71vYQFVRAkHp
+0fBnJ/XQO6gGkGeTlfBZrKnQIxsEUHBYUrBNtsBQX7Wvj7i1IXByD3UQExicD+MOn7B+ELRQDei
2L70c4jBbzHbQMJ0KUFqN7XBrdjyQIOHLkEtXqjBknYCQaxSGEHPSrDBIP+TQJ51KUEvWK3BJwuG
QFbOF0EejqLBQBypQAIULkEtLqDBrwmtQPmLCUF3DrjBJhrVQFLS70D4ubLB6hqgQFTq70B3Ka3B
WVOCQD5mHEDTTavBRt1TQPqfvj+SxKDB7yKrQHUNekACNonBGvPAQD+QmkBoRJTBzdu+QOdXQUDH
xJ/BsEZWQD6lV0Auc5PBeDaXQNycpT/IvI7BnEFnQG6QrUBAJIjByBSBQIT6xUAJMZPBOvJQQJQQ
hEDXJKXBx5wJQT9k9kCVPJPBcaP1QBdy5EA8D4zBc3kCQRHnBUHJdZzBtlG7QHLf+0D5kpfBpd6S
QHl0ML91YqXBhLzKQJ3VSj9pO6zB783VQF0Sz78JIKzBszHJQOHD5kBGO47B/I/YQPblB0EGlZ7B
5uKhQGtCGz+Jp6fBtrOsQJSX5r96s6fB7NzkQNL8or79V67BP1q7QOEn/0C3umbB2aLYQNrFyD88
lI/BefmgQOH4CkHVrHfB/GeIQFNN9kCnsILBCby5QOoeu0AD3nnBfRanQDCP00Dot4bBmkTGQFjB
C0EU1VLB5HPiQBEXAD8rNIfBKanpQCMHIkGt3q3B+V6gQLaSIUET2aXBrOe5QFgbAkEC27DBxeKH
QLgo5j+PV6TBWIWiQMn8j0DmIZDBOmihQEokJkCVBJzBG26GQLYmb0DpwpfBhpLHQKBLE0EapqjB
WxzIQCIK10DhJGjBLZWuQMh/2z9mE5PByv+LQPootkDFuIzB4z/2QKvXCkDa3ZPBCExzQAoBk0Bb
VKDBny+eQEbiQsAAi6XBOj4GQZJwCb7Ya7LBrIwaQY+480DRqJHByWUAQW3Z1EAc34TB3vYNQc+l
DEFG9qHBL4+ZQCfQ/EBRaJnB3jRnQI37U7/936HB7t/VQKvL5D9tG67BpMPpQNBRHsCg0K3BPSSK
QEbGFUEwwW/BKn+2QHpXFEFR/YDBksJdQKR550Ady3vBhWJ0QM2MA0ECj4nBldagQNCJpUCarHPB
L0zVQJYrqEBSWX/BwFbYQD1cAUH430fBINjZQEvEGUH3B1fB1qKoQGYXEUEG+UrBFKYCQVXv1T5U
JYbBtJDTQInIRz8BGn/B047VQLQc774D4YnB2PXbQK3AKUEg/7TBa5PzQE5bLkF8GajBf88CQeFq
GEF0NrDBzL+UQLSNKUEhIq3B07mGQCKPF0HUfaLBDOmpQDy0LUFe75/BS6itQGrzCUEhHbjBBKrV
QJc48EC87bLBy6qgQJwJ8EBBXa3Bi2OBQBCWG0CQWqvBLeBSQFBXuz9s1KDB59qpQAfad0BLI4nB
DnnAQIQImUAMKpTB1w++QOCzQEBR55/BE95UQKSJVUC4fpPBm9WXQJSTmD//T4/BddlmQJtxrUCJ
FYjBlPGAQKxQxUD2M5PBys9PQAaTg0CNJaXB

>  <OMEGA_E>  (43) 
kNEOPlAyET7QABQ+COUUPg==

>  <OMEGA_NBR>  (43) 
    158019

$$$$
50212901
     RDKit          3D

 73 75  0  0  1  0  0  0  0  0999 V2000
    8.5909    7.7370  -18.3744 C   0  0  0  0  0  0  0  0  0  0  0  0
    7.6607    7.2018  -17.4654 C   0  0  0  0  0  0  0  0  0  0  0  0
    8.1516    8.3901  -19.5400 C   0  0  0  0  0  0  0  0  0  0  0  0
    5.8462    7.9342  -18.9141 C   0  0  0  0  0  0  0  0  0  0  0  0
    6.3140    0.7873  -21.5179 C   0  0  0  0  0  0  0  0  0  0  0  0
    4.6071   -0.6943  -20.5874 C   0  0  0  0  0  0  0  0  0  0  0  0
    6.6865   -1.6184  -21.4653 C   0  0  0  0  0  0  0  0  0  0  0  0
    6.2720    7.2864  -17.7352 C   0  0  0  0  0  0  0  0  0  0  0  0
    6.7657    8.5270  -19.8062 C   0  0  0  0  0  0  0  0  0  0  0  0
    5.0552    0.6010  -20.9073 C   0  0  0  0  0  0  0  0  0  0  0  0
    7.1357   -0.3204  -21.7805 C   0  0  0  0  0  0  0  0  0  0  0  0
    5.4188   -1.8041  -20.8762 C   0  0  0  0  0  0  0  0  0  0  0  0
    5.6809    8.0215  -14.3728 C   0  0  0  0  0  0  0  0  0  0  0  0
    6.7997    1.5395  -17.9819 C   0  0  0  0  0  0  0  0  0  0  0  0
    4.8282    8.6876  -15.4290 C   0  0  0  0  0  0  0  0  0  0  0  0
    4.1710    7.6836  -16.3438 C   0  0  0  0  0  0  0  0  0  0  0  0
    5.7657    5.9021  -15.5777 C   0  0  0  0  0  0  0  0  0  0  0  0
    5.2014    6.6520  -16.8188 C   0  0  2  0  0  0  0  0  0  0  0  0
    7.0885    0.5883  -16.8241 C   0  0  0  0  0  0  0  0  0  0  0  0
    7.3115   10.1163  -21.7524 C   0  0  0  0  0  0  0  0  0  0  0  0
    5.0146   10.1109  -20.7659 C   0  0  0  0  0  0  0  0  0  0  0  0
    5.8195    8.1157  -22.0930 C   0  0  0  0  0  0  0  0  0  0  0  0
    4.2429    1.7941  -20.4921 C   0  0  0  0  0  0  0  0  0  0  0  0
    5.1311    4.5528  -18.0335 C   0  0  0  0  0  0  0  0  0  0  0  0
    5.0583    2.6133  -19.4812 C   0  0  1  0  0  0  0  0  0  0  0  0
    4.2321    3.7675  -18.9545 C   0  0  2  0  0  0  0  0  0  0  0  0
    6.2418    9.2105  -21.0861 C   0  0  0  0  0  0  0  0  0  0  0  0
    6.1646    6.7959  -14.4668 N   0  0  0  0  0  0  0  0  0  0  0  0
    6.0352    8.8090  -13.3003 N   0  0  0  0  0  0  0  0  0  0  0  0
    5.4752    1.7652  -18.3427 N   0  0  0  0  0  0  0  0  0  0  0  0
    4.3979    5.7193  -17.5942 N   0  0  0  0  0  0  0  0  0  0  0  0
    7.7300    1.9669  -18.6574 O   0  0  0  0  0  0  0  0  0  0  0  0
    3.8025    4.6030  -20.0308 O   0  0  0  0  0  0  0  0  0  0  0  0
    7.1653    8.5089  -12.5325 O   0  0  0  0  0  0  0  0  0  0  0  0
    8.3599   -0.1350  -22.3225 F   0  0  0  0  0  0  0  0  0  0  0  0
    4.9861   -3.0473  -20.5723 F   0  0  0  0  0  0  0  0  0  0  0  0
    9.6486    7.6459  -18.1763 H   0  0  0  0  0  0  0  0  0  0  0  0
    8.0055    6.7253  -16.5596 H   0  0  0  0  0  0  0  0  0  0  0  0
    8.8741    8.7897  -20.2362 H   0  0  0  0  0  0  0  0  0  0  0  0
    4.7908    7.9777  -19.1395 H   0  0  0  0  0  0  0  0  0  0  0  0
    6.6447    1.7807  -21.7829 H   0  0  0  0  0  0  0  0  0  0  0  0
    3.6429   -0.8346  -20.1215 H   0  0  0  0  0  0  0  0  0  0  0  0
    7.3140   -2.4721  -21.6751 H   0  0  0  0  0  0  0  0  0  0  0  0
    4.0459    9.2799  -14.9318 H   0  0  0  0  0  0  0  0  0  0  0  0
    5.4646    9.3528  -16.0312 H   0  0  0  0  0  0  0  0  0  0  0  0
    3.3647    7.1691  -15.8004 H   0  0  0  0  0  0  0  0  0  0  0  0
    3.7503    8.2060  -17.2156 H   0  0  0  0  0  0  0  0  0  0  0  0
    4.9917    5.2137  -15.2076 H   0  0  0  0  0  0  0  0  0  0  0  0
    6.6483    5.3261  -15.8929 H   0  0  0  0  0  0  0  0  0  0  0  0
    8.1718    0.4095  -16.7572 H   0  0  0  0  0  0  0  0  0  0  0  0
    6.7322    1.0358  -15.8845 H   0  0  0  0  0  0  0  0  0  0  0  0
    6.5694   -0.3662  -16.9957 H   0  0  0  0  0  0  0  0  0  0  0  0
    6.8894   10.5783  -22.6571 H   0  0  0  0  0  0  0  0  0  0  0  0
    7.6162   10.9034  -21.0470 H   0  0  0  0  0  0  0  0  0  0  0  0
    8.1873    9.5094  -22.0252 H   0  0  0  0  0  0  0  0  0  0  0  0
    4.6577   10.5877  -21.6908 H   0  0  0  0  0  0  0  0  0  0  0  0
    4.2102    9.4953  -20.3370 H   0  0  0  0  0  0  0  0  0  0  0  0
    5.3077   10.8867  -20.0432 H   0  0  0  0  0  0  0  0  0  0  0  0
    5.4430    8.5879  -23.0124 H   0  0  0  0  0  0  0  0  0  0  0  0
    6.6877    7.4847  -22.3340 H   0  0  0  0  0  0  0  0  0  0  0  0
    5.0272    7.4951  -21.6488 H   0  0  0  0  0  0  0  0  0  0  0  0
    4.0156    2.4124  -21.3730 H   0  0  0  0  0  0  0  0  0  0  0  0
    3.3040    1.4595  -20.0268 H   0  0  0  0  0  0  0  0  0  0  0  0
    5.4095    3.9364  -17.1660 H   0  0  0  0  0  0  0  0  0  0  0  0
    6.0401    4.8617  -18.5705 H   0  0  0  0  0  0  0  0  0  0  0  0
    5.9499    3.0123  -19.9871 H   0  0  0  0  0  0  0  0  0  0  0  0
    3.3707    3.3793  -18.3912 H   0  0  0  0  0  0  0  0  0  0  0  0
    5.4776    9.6057  -13.0673 H   0  0  0  0  0  0  0  0  0  0  0  0
    4.7600    1.3268  -17.7984 H   0  0  0  0  0  0  0  0  0  0  0  0
    3.6307    5.4165  -17.0287 H   0  0  0  0  0  0  0  0  0  0  0  0
    4.0494    6.1965  -18.4009 H   0  0  0  0  0  0  0  0  0  0  0  0
    3.2362    4.1074  -20.6105 H   0  0  0  0  0  0  0  0  0  0  0  0
    7.2578    9.1521  -11.8396 H   0  0  0  0  0  0  0  0  0  0  0  0
  1  2  2  0
  1  3  1  0
  2  8  1  0
  3  9  2  0
  4  8  2  0
  4  9  1  0
  5 10  2  0
  5 11  1  0
  6 10  1  0
  6 12  2  0
  7 11  2  0
  7 12  1  0
  8 18  1  0
  9 27  1  0
 10 23  1  0
 11 35  1  0
 12 36  1  0
 13 15  1  0
 13 28  2  0
 13 29  1  0
 14 19  1  0
 14 30  1  0
 14 32  2  0
 15 16  1  0
 16 18  1  0
 17 18  1  0
 17 28  1  0
 18 31  1  6
 20 27  1  0
 21 27  1  0
 22 27  1  0
 23 25  1  0
 24 26  1  0
 24 31  1  0
 25 26  1  0
 25 30  1  0
 26 33  1  0
 29 34  1  0
  1 37  1  0
  2 38  1  0
  3 39  1  0
  4 40  1  0
  5 41  1  0
  6 42  1  0
  7 43  1  0
 15 44  1  0
 15 45  1  0
 16 46  1  0
 16 47  1  0
 17 48  1  0
 17 49  1  0
 19 50  1  0
 19 51  1  0
 19 52  1  0
 20 53  1  0
 20 54  1  0
 20 55  1  0
 21 56  1  0
 21 57  1  0
 21 58  1  0
 22 59  1  0
 22 60  1  0
 22 61  1  0
 23 62  1  0
 23 63  1  0
 24 64  1  0
 24 65  1  0
 25 66  1  6
 26 67  1  1
 29 68  1  0
 30 69  1  0
 31 70  1  0
 31 71  1  0
 33 72  1  0
 34 73  1  0
M  CHG  1  31   1
M  END
>  <OMEGA_C>  (44) 
QXQJQXCV90C//pLBwiT1QGd15kASuYvB52wCQQE+BkHZUZzB0BO7QC7l/UAIUJfBRwzKQHCOST+/
JKzBeW2TQDu9Mb/nsqTBA/jVQDgpz7/nuKvBGrTIQA8q6UC54Y3BvoDYQJRuCEEFc57BOMShQIDZ
GT8NQqfBRlfkQAAMpL5lPq7BpWatQAbu5r+MAqfBB8q1QA5YAEHw9mXBV5fZQPQPxT/q2o/B3YCa
QJAAC0FY3XbB7niFQLPf9UALwILBeYC4QO7dvEBkPnnBzXGmQGnd1EDkjIbBG9XiQCadFj+2l4bB
i/fpQHXcIUHqBK7BNHegQFvGIUGdIKbB/Ti6QN/ZAUFovrDB48WHQNSj5T/j76PBNDKkQHiwkUCY
RJDBT92hQNxAJ0CX2ZvBwW2HQOkdcUDEopfBGL3HQBteE0FAsKjBMUTFQLJ32UAZeGfBwiDBQJTx
DEEDzlTB9TSvQFTz4T/OvZLBTbuMQOIEt0DcwIzBU1z3QBrE+z9XQpXBaVxzQChMk0AOP6DB40nl
QGUkCEErhUjBG8IFQWI/Cr6FlLLBDo6fQIMHQ8AZlKTB1WAaQSSr9EAFaZHBpBYAQek110AAeoTB
K/wNQbCiDEHE46HBlU6ZQCBJ/0CgHZnBO6HUQNHu4z9sQ67BLSVpQPinVb/i+KDBTwzqQBY2HsCj
Zq3BCXiBQG56FEHX6G7BUd6uQPakFUHeP4DByFdXQJhp5UBNznzBhQVwQONLA0GEuYnBurufQLrW
pkAkUnPBxL7UQM5vqkAeSX7By78CQaWv0T7FDobBDm7XQIiUhD/iJn7BcDjSQKF5u74h94fBR3bc
QIxAKUHEQbXBibfzQHx0LkE4YKjBYv8CQV4mGEGrM7DB+guVQCJnKUG8hq3B4LmGQLDsF0EmsqLB
ZNipQLovLkF4WKDBLy2uQCRoCUFUGbjBYgHWQOmC70AJrLLBEt+gQCfY70C+MK3Bun+AQBtlGkDx
+6rBn3RTQC/Suj/iNqDBWRqtQL/te0DvU4nBGEjBQCSTm0B8kJTBUmW+QO7JQECB5Z/BiLlXQC5H
WEAtIZPBIEivQMWwGUG1E1HBNFKYQM3TqT8RY47BtFxoQElUrUDgOojB1pSBQPVJxkAiNZPBiB1P
QIVvg0BL4qTB9z/oQCNvEkHhbj3B

>  <OMEGA_E>  (44) 
EMR4Pg==

>  <OMEGA_NBR>  (44) 
    159527

$$$$
50212897
     RDKit          3D

 70 72  0  0  1  0  0  0  0  0999 V2000
    8.5894    7.6001  -18.4449 C   0  0  0  0  0  0  0  0  0  0  0  0
    7.6595    7.1113  -17.5118 C   0  0  0  0  0  0  0  0  0  0  0  0
    8.1521    8.2509  -19.6114 C   0  0  0  0  0  0  0  0  0  0  0  0
    5.8434    7.8739  -18.9439 C   0  0  0  0  0  0  0  0  0  0  0  0
    6.3865    0.8234  -21.5779 C   0  0  0  0  0  0  0  0  0  0  0  0
    4.6018   -0.6376  -20.7706 C   0  0  0  0  0  0  0  0  0  0  0  0
    6.6598   -1.5981  -21.6611 C   0  0  0  0  0  0  0  0  0  0  0  0
    6.2701    7.2509  -17.7501 C   0  0  0  0  0  0  0  0  0  0  0  0
    6.7676    8.4232  -19.8618 C   0  0  0  0  0  0  0  0  0  0  0  0
    5.1069    0.6572  -21.0038 C   0  0  0  0  0  0  0  0  0  0  0  0
    7.1658   -0.3040  -21.8959 C   0  0  0  0  0  0  0  0  0  0  0  0
    5.3754   -1.7636  -21.1047 C   0  0  0  0  0  0  0  0  0  0  0  0
    6.8052    1.4308  -18.0619 C   0  0  0  0  0  0  0  0  0  0  0  0
    5.9922    7.3402  -14.5576 C   0  0  0  0  0  0  0  0  0  0  0  0
    5.1252    8.4852  -15.1266 C   0  0  0  0  0  0  0  0  0  0  0  0
    5.7251    6.1218  -15.4557 C   0  0  0  0  0  0  0  0  0  0  0  0
    4.3142    7.8680  -16.2702 C   0  0  0  0  0  0  0  0  0  0  0  0
    5.1942    6.7157  -16.7789 C   0  0  0  0  0  0  0  0  0  0  0  0
    7.0751    0.3897  -16.9798 C   0  0  0  0  0  0  0  0  0  0  0  0
    5.8324    8.0193  -22.1560 C   0  0  0  0  0  0  0  0  0  0  0  0
    7.3343   10.0101  -21.8063 C   0  0  0  0  0  0  0  0  0  0  0  0
    5.0302   10.0182  -20.8362 C   0  0  0  0  0  0  0  0  0  0  0  0
    4.3130    1.8629  -20.5603 C   0  0  0  0  0  0  0  0  0  0  0  0
    5.0795    4.5370  -17.8959 C   0  0  0  0  0  0  0  0  0  0  0  0
    5.0943    2.6394  -19.4801 C   0  0  1  0  0  0  0  0  0  0  0  0
    4.2408    3.7680  -18.9071 C   0  0  2  0  0  0  0  0  0  0  0  0
    6.2542    9.1101  -21.1460 C   0  0  0  0  0  0  0  0  0  0  0  0
    5.4866    1.7244  -18.3904 N   0  0  0  0  0  0  0  0  0  0  0  0
    4.3496    5.7389  -17.4792 N   0  0  0  0  0  0  0  0  0  0  0  0
    7.7422    2.0556  -18.5481 O   0  0  0  0  0  0  0  0  0  0  0  0
    3.8439    4.6440  -19.9632 O   0  0  0  0  0  0  0  0  0  0  0  0
    8.4035   -0.1441  -22.4160 F   0  0  0  0  0  0  0  0  0  0  0  0
    4.8897   -3.0039  -20.8760 F   0  0  0  0  0  0  0  0  0  0  0  0
    9.6469    7.4750  -18.2645 H   0  0  0  0  0  0  0  0  0  0  0  0
    8.0051    6.6277  -16.6101 H   0  0  0  0  0  0  0  0  0  0  0  0
    8.8759    8.6222  -20.3218 H   0  0  0  0  0  0  0  0  0  0  0  0
    4.7870    7.9318  -19.1604 H   0  0  0  0  0  0  0  0  0  0  0  0
    6.7666    1.8153  -21.7727 H   0  0  0  0  0  0  0  0  0  0  0  0
    3.6215   -0.7651  -20.3357 H   0  0  0  0  0  0  0  0  0  0  0  0
    7.2567   -2.4638  -21.9076 H   0  0  0  0  0  0  0  0  0  0  0  0
    7.0571    7.6139  -14.5912 H   0  0  0  0  0  0  0  0  0  0  0  0
    5.7026    7.1208  -13.5194 H   0  0  0  0  0  0  0  0  0  0  0  0
    4.4532    8.8788  -14.3498 H   0  0  0  0  0  0  0  0  0  0  0  0
    5.7637    9.2971  -15.5049 H   0  0  0  0  0  0  0  0  0  0  0  0
    6.6532    5.5574  -15.6291 H   0  0  0  0  0  0  0  0  0  0  0  0
    4.9740    5.4608  -14.9987 H   0  0  0  0  0  0  0  0  0  0  0  0
    3.3490    7.4888  -15.9033 H   0  0  0  0  0  0  0  0  0  0  0  0
    4.1394    8.6061  -17.0668 H   0  0  0  0  0  0  0  0  0  0  0  0
    8.1548    0.3448  -16.7746 H   0  0  0  0  0  0  0  0  0  0  0  0
    6.5386    0.6685  -16.0609 H   0  0  0  0  0  0  0  0  0  0  0  0
    6.7261   -0.5952  -17.3236 H   0  0  0  0  0  0  0  0  0  0  0  0
    5.4640    8.4944  -23.0771 H   0  0  0  0  0  0  0  0  0  0  0  0
    6.6988    7.3841  -22.3925 H   0  0  0  0  0  0  0  0  0  0  0  0
    5.0343    7.4024  -21.7173 H   0  0  0  0  0  0  0  0  0  0  0  0
    6.9207   10.4747  -22.7135 H   0  0  0  0  0  0  0  0  0  0  0  0
    7.6395   10.7954  -21.0989 H   0  0  0  0  0  0  0  0  0  0  0  0
    8.2081    9.3978  -22.0738 H   0  0  0  0  0  0  0  0  0  0  0  0
    4.6830   10.4956  -21.7644 H   0  0  0  0  0  0  0  0  0  0  0  0
    4.2191    9.4080  -20.4123 H   0  0  0  0  0  0  0  0  0  0  0  0
    5.3227   10.7932  -20.1126 H   0  0  0  0  0  0  0  0  0  0  0  0
    4.1347    2.5199  -21.4243 H   0  0  0  0  0  0  0  0  0  0  0  0
    3.3491    1.5323  -20.1460 H   0  0  0  0  0  0  0  0  0  0  0  0
    5.2730    3.9015  -17.0191 H   0  0  0  0  0  0  0  0  0  0  0  0
    6.0354    4.8280  -18.3560 H   0  0  0  0  0  0  0  0  0  0  0  0
    5.9951    3.0723  -19.9396 H   0  0  0  0  0  0  0  0  0  0  0  0
    3.3612    3.3407  -18.4034 H   0  0  0  0  0  0  0  0  0  0  0  0
    4.7610    1.2900  -17.8567 H   0  0  0  0  0  0  0  0  0  0  0  0
    3.6077    5.4640  -16.8676 H   0  0  0  0  0  0  0  0  0  0  0  0
    3.9662    6.1759  -18.2929 H   0  0  0  0  0  0  0  0  0  0  0  0
    3.3205    4.1636  -20.5939 H   0  0  0  0  0  0  0  0  0  0  0  0
  1  2  2  0
  1  3  1  0
  2  8  1  0
  3  9  2  0
  4  8  2  0
  4  9  1  0
  5 10  2  0
  5 11  1  0
  6 10  1  0
  6 12  2  0
  7 11  2  0
  7 12  1  0
  8 18  1  0
  9 27  1  0
 10 23  1  0
 11 32  1  0
 12 33  1  0
 13 19  1  0
 13 28  1  0
 13 30  2  0
 14 15  1  0
 14 16  1  0
 15 17  1  0
 16 18  1  0
 17 18  1  0
 18 29  1  0
 20 27  1  0
 21 27  1  0
 22 27  1  0
 23 25  1  0
 24 26  1  0
 24 29  1  0
 25 26  1  0
 25 28  1  0
 26 31  1  0
  1 34  1  0
  2 35  1  0
  3 36  1  0
  4 37  1  0
  5 38  1  0
  6 39  1  0
  7 40  1  0
 14 41  1  0
 14 42  1  0
 15 43  1  0
 15 44  1  0
 16 45  1  0
 16 46  1  0
 17 47  1  0
 17 48  1  0
 19 49  1  0
 19 50  1  0
 19 51  1  0
 20 52  1  0
 20 53  1  0
 20 54  1  0
 21 55  1  0
 21 56  1  0
 21 57  1  0
 22 58  1  0
 22 59  1  0
 22 60  1  0
 23 61  1  0
 23 62  1  0
 24 63  1  0
 24 64  1  0
 25 65  1  6
 26 66  1  1
 28 67  1  0
 29 68  1  0
 29 69  1  0
 31 70  1  0
M  CHG  1  29   1
M  END
>  <OMEGA_C>  (45) 
Km4JQQo080AOj5PBchr1QPGP40A0GIzB424CQa4DBEEn5JzBiv26QMH2+0AkjZfBNF7MQBjHUj+E
n6zBBkKTQCQ3I78/KqbBch3VQPSPzL/gSa3BXKTIQGsH6EBGAI7B8I/YQInFBkEO5Z7BtWujQGZA
KD/CB6jBEU7lQPalm77KKq/BAAOsQHO84b+C1qjBN8TZQLgltz/UfpDBQcC/QIbi6kAI7GjBgQGk
QEDDB0GKBnLBUzS3QOvlw0B5SnfBDw6KQIzG+0BRKYLBijamQCPn1kA5O4bBDGfiQMGCxz6n1ofB
JaO6QOBOAEF3P7HB2LLqQIwpIEE7c67BgvegQF5KIEGbsKbBtQOKQFJy7j9ve6TBP4uiQFgvkUDM
Ko/BvASjQHzrKEAu15vBuLSHQFkncUC2QZfBHCLIQODCEUHyKqnBO5KvQPK53D9xH5PBFzCLQCml
t0Bn1YvB/r/3QMuOA0B2YpTBwgF2QNmblECntJ/B4HQGQR+NE77pU7PBjnicQH0/QMD4AafBiVka
QeUy70DKHZLBuxQAQfUV1ECF4YTBjwMOQYH0CUEJk6LBtC6ZQHnR/UBwSJnBKIjYQKdb6D97Lq7B
qMZnQH/aQ7+Sr6LBDTfoQB+vHcCtQq/BsdPhQNGk80BvdWnBU3u2QFXd40BbT1jBboCOQHAPDkGW
mGXB8G+4QPzAFEHqE3jBUefUQGPWsUD3EHrBASufQPC+rkCN+m/B2FVWQIik70ABdH7BsHWEQJmy
CUHOiIjBLnoCQRqIsD5PMobBGjzRQIslKz+2fIDBCjzXQHJgGL+6lorBtNiuQDDpB0HmnbjBU1zW
QCRK7EDcI7PBNRmhQA7g7EDzvK3BRHbdQFaYJ0FFtbXB/Hb0QMK5LEGiyqjBeVQDQYRdFkEYl7DB
FtuVQPTtJ0F9Ha7BqwKHQCCHFkFQTKPBVFOqQBuxLEGB5qDBmE+EQEFGIUDuZKvB4FZWQPwhxD8F
K6HBcbyoQMuyeUAyJ4jBlyHBQOB+mkAT2ZLBz9e/QDKgREBmhJ/Bmx1XQDPOVUBBOpPB+VmYQA4f
pT+Q2o7BQuVmQHvZrkDT8IbBwtZ9QPmgxUDLV5LBYINUQAY8hUBVwKTB0lsJQYCB8UClv5PBL+70
QCi44kBNLYzBlmQCQSVCA0FCEJ3Bt+q6QB7E+0BLk5fBdd+TQOEYJb+vBqbBUqjMQPt1Uj/wkazB
5FXVQMCkzL8Nb63BRn/IQNTd50DDBI7B44nYQOZ/BkHj8p7B3vOjQMz0Jj8F26fBlXisQNBg4r/c
3KjBwWXlQB4em74MTK/BBAHaQNYNvT+ZG5DBEWy+QC4T7EBuuWjBNz+kQGZ8CEGCq3LBoJG2QDjX
xEAmDnfBQueJQA6c/ED3ToLB8+ilQNBV10DFNYbBkZPiQHjbsz6NJ4jB3n28QCqiAEH5hLHBH4Dq
QBgIIUHd+a3BoRagQE2uH0FitqbBJGeKQPin7T/cUaTBvXaiQNqVkUDDHo/BuE+jQPRoKUCAvpvB
WsuHQECccUAjNpfBA0fIQHjREUFpJKnB0d+vQEUH3z8i+JLBC+CKQBLXt0BluovBWyj4QFHtAEAX
sJTBTCF2QDSxlEAhr5/Bl+OcQCe5QMBqKafB/kIGQRLLDr4hubPB3EEaQUKy7EDsZpLBmfH/QPZl
00A28ITBZPoNQXnlCEEt0qLBnBuZQLnc/UDUSZnBHWNpQPqjRr8Yc6LBtsvYQNRh6D8LFa7BN1ro
QFuYHcCLgq/BQ6ngQD479EA1gGjBqXezQP+f5UDsT1jBIg6PQFSyD0Gdm2bBtLi5QILSFEEyLHnB
6YDUQPcGs0AzlnnBv42eQL+Or0Ap0m/BxCVWQDvU8EBUf37BfC2EQIvXCUFLzIjBL50CQatqLT4T
oYfBh0fWQDM2Iz+9O4DBlmTSQNegEL9H3YrBItSwQFB2CEF817jBcfbYQPz97UDZZ7PBn0qjQKtk
7EC/Rq7BkJDdQPK4KEFbM7XB8fPyQIxeLUEUEajBqp0DQQLHF0EaFbDB1jmVQPiJJ0GAGq7BhGOG
QOtlFUH6l6PBSjqoQHvoK0EHuKDBDG+EQDV2IEDeQavBO2FXQE7Vwj9/9KDBLOeoQMRtekBdIIjB
cu7AQOIxm0Cg0JLBtRTAQOAjRUDecZ/BOVFXQCokVkCVMJPBwp+YQApcpT+20Y7BJONmQFrYrkDy
w4bBXlx8QIKxxUAlNJLBUdlUQEkzhUCuuqTB

>  <OMEGA_E>  (45) 
QEozPQDYOD0=

>  <OMEGA_NBR>  (45) 
    162074

$$$$
50212896
     RDKit          3D

 74 76  0  0  1  0  0  0  0  0999 V2000
    8.5928    7.5974  -18.4829 C   0  0  0  0  0  0  0  0  0  0  0  0
    7.6662    7.0551  -17.5763 C   0  0  0  0  0  0  0  0  0  0  0  0
    8.1494    8.3047  -19.6130 C   0  0  0  0  0  0  0  0  0  0  0  0
    5.8459    7.8826  -18.9592 C   0  0  0  0  0  0  0  0  0  0  0  0
    4.5822   -0.6614  -20.7209 C   0  0  0  0  0  0  0  0  0  0  0  0
    6.3463    0.8061  -21.5628 C   0  0  0  0  0  0  0  0  0  0  0  0
    6.6471   -1.6110  -21.6048 C   0  0  0  0  0  0  0  0  0  0  0  0
    6.2744    7.2203  -17.7895 C   0  0  0  0  0  0  0  0  0  0  0  0
    6.7634    8.4745  -19.8528 C   0  0  0  0  0  0  0  0  0  0  0  0
    5.0712    0.6321  -20.9828 C   0  0  0  0  0  0  0  0  0  0  0  0
    5.3654   -1.7823  -21.0425 C   0  0  0  0  0  0  0  0  0  0  0  0
    7.1390   -0.3150  -21.8599 C   0  0  0  0  0  0  0  0  0  0  0  0
    6.7859    1.4953  -17.9867 C   0  0  0  0  0  0  0  0  0  0  0  0
    4.8548    8.8144  -15.5226 C   0  0  0  0  0  0  0  0  0  0  0  0
    6.3497    7.0038  -14.5397 C   0  0  0  0  0  0  0  0  0  0  0  0
    4.1965    7.7768  -16.4235 C   0  0  0  0  0  0  0  0  0  0  0  0
    5.7671    5.9854  -15.5348 C   0  0  0  0  0  0  0  0  0  0  0  0
    5.3466    8.1288  -14.2403 C   0  0  1  0  0  0  0  0  0  0  0  0
    5.2002    6.6648  -16.8226 C   0  0  2  0  0  0  0  0  0  0  0  0
    7.0724    0.3997  -16.9637 C   0  0  0  0  0  0  0  0  0  0  0  0
    5.8644    8.1176  -22.1603 C   0  0  0  0  0  0  0  0  0  0  0  0
    7.2931   10.1497  -21.7242 C   0  0  0  0  0  0  0  0  0  0  0  0
    4.9797   10.0443  -20.7830 C   0  0  0  0  0  0  0  0  0  0  0  0
    4.2743    1.8303  -20.5493 C   0  0  0  0  0  0  0  0  0  0  0  0
    5.1054    4.5023  -17.9546 C   0  0  0  0  0  0  0  0  0  0  0  0
    5.0738    2.6055  -19.4895 C   0  0  1  0  0  0  0  0  0  0  0  0
    4.2390    3.7443  -18.9354 C   0  0  2  0  0  0  0  0  0  0  0  0
    6.2379    9.1898  -21.1122 C   0  0  0  0  0  0  0  0  0  0  0  0
    5.4698    1.7033  -18.3869 N   0  0  0  0  0  0  0  0  0  0  0  0
    4.3783    5.6913  -17.5387 N   0  0  0  0  0  0  0  0  0  0  0  0
    7.7220    2.0646  -18.5384 O   0  0  0  0  0  0  0  0  0  0  0  0
    5.9860    9.0962  -13.4275 O   0  0  0  0  0  0  0  0  0  0  0  0
    3.8471    4.6145  -19.9991 O   0  0  0  0  0  0  0  0  0  0  0  0
    4.8885   -3.0230  -20.8014 F   0  0  0  0  0  0  0  0  0  0  0  0
    8.3741   -0.1459  -22.3825 F   0  0  0  0  0  0  0  0  0  0  0  0
    9.6512    7.4697  -18.3101 H   0  0  0  0  0  0  0  0  0  0  0  0
    8.0162    6.5096  -16.7124 H   0  0  0  0  0  0  0  0  0  0  0  0
    8.8689    8.7211  -20.3025 H   0  0  0  0  0  0  0  0  0  0  0  0
    4.7893    7.9379  -19.1759 H   0  0  0  0  0  0  0  0  0  0  0  0
    3.6077   -0.7918  -20.2741 H   0  0  0  0  0  0  0  0  0  0  0  0
    6.7119    1.7993  -21.7777 H   0  0  0  0  0  0  0  0  0  0  0  0
    7.2526   -2.4737  -21.8402 H   0  0  0  0  0  0  0  0  0  0  0  0
    5.7079    9.2692  -16.0472 H   0  0  0  0  0  0  0  0  0  0  0  0
    4.1239    9.5952  -15.2653 H   0  0  0  0  0  0  0  0  0  0  0  0
    6.5982    6.4862  -13.6015 H   0  0  0  0  0  0  0  0  0  0  0  0
    7.2624    7.4426  -14.9692 H   0  0  0  0  0  0  0  0  0  0  0  0
    3.3504    7.3214  -15.8881 H   0  0  0  0  0  0  0  0  0  0  0  0
    3.8298    8.2731  -17.3342 H   0  0  0  0  0  0  0  0  0  0  0  0
    6.5619    5.2833  -15.8269 H   0  0  0  0  0  0  0  0  0  0  0  0
    4.9542    5.4339  -15.0398 H   0  0  0  0  0  0  0  0  0  0  0  0
    4.4809    7.6991  -13.7150 H   0  0  0  0  0  0  0  0  0  0  0  0
    8.1597    0.2687  -16.8608 H   0  0  0  0  0  0  0  0  0  0  0  0
    6.6440    0.6849  -15.9916 H   0  0  0  0  0  0  0  0  0  0  0  0
    6.6198   -0.5443  -17.3012 H   0  0  0  0  0  0  0  0  0  0  0  0
    5.4861    8.6086  -23.0691 H   0  0  0  0  0  0  0  0  0  0  0  0
    6.7552    7.5223  -22.4091 H   0  0  0  0  0  0  0  0  0  0  0  0
    5.0859    7.4583  -21.7489 H   0  0  0  0  0  0  0  0  0  0  0  0
    6.8735   10.6352  -22.6175 H   0  0  0  0  0  0  0  0  0  0  0  0
    7.5644   10.9164  -20.9835 H   0  0  0  0  0  0  0  0  0  0  0  0
    8.1898    9.5777  -22.0049 H   0  0  0  0  0  0  0  0  0  0  0  0
    4.6253   10.5433  -21.6971 H   0  0  0  0  0  0  0  0  0  0  0  0
    4.1859    9.3919  -20.3904 H   0  0  0  0  0  0  0  0  0  0  0  0
    5.2382   10.8020  -20.0286 H   0  0  0  0  0  0  0  0  0  0  0  0
    4.0840    2.4801  -21.4161 H   0  0  0  0  0  0  0  0  0  0  0  0
    3.3163    1.5008  -20.1207 H   0  0  0  0  0  0  0  0  0  0  0  0
    5.3197    3.8706  -17.0799 H   0  0  0  0  0  0  0  0  0  0  0  0
    6.0502    4.7924  -18.4376 H   0  0  0  0  0  0  0  0  0  0  0  0
    5.9751    3.0216  -19.9633 H   0  0  0  0  0  0  0  0  0  0  0  0
    3.3585    3.3385  -18.4158 H   0  0  0  0  0  0  0  0  0  0  0  0
    4.7476    1.2129  -17.8991 H   0  0  0  0  0  0  0  0  0  0  0  0
    3.6293    5.4092  -16.9391 H   0  0  0  0  0  0  0  0  0  0  0  0
    4.0042    6.1334  -18.3539 H   0  0  0  0  0  0  0  0  0  0  0  0
    6.2959    8.6849  -12.6291 H   0  0  0  0  0  0  0  0  0  0  0  0
    3.3030    4.1376  -20.6148 H   0  0  0  0  0  0  0  0  0  0  0  0
  1  2  2  0
  1  3  1  0
  2  8  1  0
  3  9  2  0
  4  8  2  0
  4  9  1  0
  5 10  2  0
  5 11  1  0
  6 10  1  0
  6 12  2  0
  7 11  2  0
  7 12  1  0
  8 19  1  0
  9 28  1  0
 10 24  1  0
 11 34  1  0
 12 35  1  0
 13 20  1  0
 13 29  1  0
 13 31  2  0
 14 16  1  0
 14 18  1  0
 15 17  1  0
 15 18  1  0
 16 19  1  0
 17 19  1  0
 18 32  1  0
 19 30  1  6
 21 28  1  0
 22 28  1  0
 23 28  1  0
 24 26  1  0
 25 27  1  0
 25 30  1  0
 26 27  1  0
 26 29  1  0
 27 33  1  0
  1 36  1  0
  2 37  1  0
  3 38  1  0
  4 39  1  0
  5 40  1  0
  6 41  1  0
  7 42  1  0
 14 43  1  0
 14 44  1  0
 15 45  1  0
 15 46  1  0
 16 47  1  0
 16 48  1  0
 17 49  1  0
 17 50  1  0
 18 51  1  1
 20 52  1  0
 20 53  1  0
 20 54  1  0
 21 55  1  0
 21 56  1  0
 21 57  1  0
 22 58  1  0
 22 59  1  0
 22 60  1  0
 23 61  1  0
 23 62  1  0
 23 63  1  0
 24 64  1  0
 24 65  1  0
 25 66  1  0
 25 67  1  0
 26 68  1  6
 27 69  1  1
 29 70  1  0
 30 71  1  0
 30 72  1  0
 32 73  1  0
 33 74  1  0
M  CHG  1  30   1
M  END
>  <OMEGA_C>  (46) 
BXwJQYUd80Di3JPBi1H1QIzD4UA2nIzBJGQCQR3gBEFs55zBpRG7QEQ+/EBbrJfBuaGSQMBRKb98
xKXBRBXLQNdaTj+LgKzBVbXUQK0zzr+V1qzBBcjIQLkM50DQUI7Bb23YQLuXB0GP0p7Bg0eiQNLQ
IT/S3KfBtbGrQM8h5L8QV6jBYHLkQG5Hob4S4a7BXSbZQGxlvz/S5I/BPVqbQLEHDUFtXHjB8TDL
QFIf4EC+omjB10mGQJ7b+EBtY4PBb4y4QLGIv0BtjnjBpBerQJQPAkE32GPBYmimQOJF1UDGlIbB
YFHiQNyrzD7BtYfB4qi7QL/hAUFkSLHBeGHpQCNlIkEQy63BT1mfQKi1IEGmQ6bBUceIQFBG6j/f
ZKTByF+jQCYTkEAJo4/B81yiQLS/JkBp6pvBRKaHQHiib0DJe5fBfJzHQIgJE0Gx5ajBcwivQO0F
2j9LGJPBshqMQOYetkBGT4zBSxr3QBEjBECwTpTBm42/QDaKEUHm1lbBXzd2QOGpk0BA/p/Bam6c
QEF5QcAuaabBMfwFQeJjFb5gD7PBT2saQQsI70D+epLBYUIAQWxO0EAAs4XBDucNQcmJC0F0a6LB
IkKZQP0C/kBFaJnB5+RmQGq0Sr9GMaLBE8jWQK1Q5j+nOK7BbRXoQHFRHsC6uK7BIKe2QMJOFEG5
YIDB9vaDQOWFGUHWPnTBEiTTQNCOz0Chn1nB6mXoQHIp7kDsgW/BgG1WQO9I6kB4NX7B9Bp1QG9e
BEFjrIrB4PrRQHUQqUAOO33BNYmeQELirUAao3DBq2OPQCtf9kC+cFvBTo4CQbeUiT4B44bBdpvU
QIxWLz+F3X/BR9XTQG1XC7/daIrBPo6vQM68CUGNjbjB7irYQFy28EDpRbPB0r+iQEGq7kC5/a3B
zPPbQPMpKkG68LTBfg/yQMGpLkFG3qfBWwkDQRc+GUEMCrDBaQKUQGqxKEGZk63BuPKFQApFFkF/
H6PBX5+nQNDULEGNOqDBN7CCQCu6HkA/VKvB8z5UQDAZwD8g96DBmjqqQLO4d0Cso4jBPZvBQF1b
mUA7gJPBTTS/QIxhQUDStJ/BVPJWQMupVUCMU5PBV+yXQPs+mz9ZMY/BukZoQCIYrUBLg4fBCyKA
QJpExEDb1JLB5nfJQHP1CkH+EErB/mNTQKBnhEAa66TBXqQJQfGX8kCwx5PBhoT1QN1/4UD1g4zB
eZ4CQeKgBEFW1ZzB3XS7QGxE/EAjmJfBJgzLQEvhSz9JiazB9wqTQFloLb/JqKXBugvVQLNTz7+i
1qzBcQTJQGcL50B7O47Bp+rYQKiBB0GPvp7Bg26iQJ9XHj+szafBRn/kQPDmpL4k8q7ByTisQLXd
5b8OP6jByajZQA2PwT+Y/I/BbACcQKfoDEGf3XfB7yrLQHIb30A+bWjBsrOGQKQ0+UBwRoPBM1W4
QLAQv0BUkXjBclarQNycAUEdc2PBknKmQBxg1UC7iobB4yzjQMHT1D6y1YfBapq9QC/JAUEbVLHB
ELnpQIW9IkHfgK3BuDafQNokIEEwWKbBVsaIQBVo6D/3VqTBOiujQF2MkED8x4/B+VGiQPrkJkDG
8ZvBLViHQP+Yb0BNhJfBIULIQKbwEkEd1qjBkGqvQB+/2z+lF5PByvaLQEmTtkCJX4zBGGr3QME3
BUCae5TBrvW/QKjUEEFqMlbBQUd0QO49k0BZCqDBge8FQQxDGL75M7PBqFudQPd1QsBSMabBMpAa
QVNK7kDYZZLBk0wAQYUN0EA6l4XBxSsOQSotC0G9XKLB3aiZQDw3/kA9VZnB84rWQIM15T9xTa7B
ze1nQE27T78TCaLBDn/oQHW6HsAyvq7BG4e3QGUlFEEEDoDBeNeEQOh4GUHepHPB7evSQFMczkCQ
glnBmIPoQJkV7UBMLm/B87lWQOe/6kDkJH7BSqB2QFDLBEFfhorBlJvRQEiAqEDpVn3BlCSeQMxx
rUB8x3DB1XCPQIB99UCFM1vBMwADQa5akT5QHIfBrtLVQJFPMz+CBIDB64zUQJ8hB7+df4rBsp+x
QI+dCUFenrjBhaXaQCw18UC1PLPBbPSkQCLW7UDpLK7BE37cQAWCKkGErLTBP3TxQJj6LkFde6fB
y3kDQdnuGUEaqa/B3BOUQDAcKEFVrq3BQAqGQJxjFUHHW6PBgoOmQHVDLEHYOqDBJlSCQKNJHUA8
TavBFplUQKmovT/V1qDBnI6qQOH7eEAMyojBrx3BQLX8mUA1wpPBDPO+QATbQUB2zJ/BL/xWQPlB
VUCtQpPB43uYQPiRnT+rFo/BVdJnQEh2rUAynYfByx6AQLoLxUB73ZLB1Z/JQKkKCkEefEnBrllR
QHmmg0B446TB

>  <OMEGA_E>  (46) 
oJFJPrClSz4=

>  <OMEGA_NBR>  (46) 
    164740

$$$$
50212899
     RDKit          3D

 72 74  0  0  1  0  0  0  0  0999 V2000
    8.5708    7.5412  -18.4805 C   0  0  0  0  0  0  0  0  0  0  0  0
    7.6444    7.0404  -17.5499 C   0  0  0  0  0  0  0  0  0  0  0  0
    8.1296    8.2272  -19.6251 C   0  0  0  0  0  0  0  0  0  0  0  0
    5.8253    7.8720  -18.9346 C   0  0  0  0  0  0  0  0  0  0  0  0
    4.5904   -0.6711  -20.7007 C   0  0  0  0  0  0  0  0  0  0  0  0
    6.3529    0.7924  -21.5514 C   0  0  0  0  0  0  0  0  0  0  0  0
    6.6507   -1.6258  -21.5920 C   0  0  0  0  0  0  0  0  0  0  0  0
    6.2547    7.2260  -17.7532 C   0  0  0  0  0  0  0  0  0  0  0  0
    6.7449    8.4186  -19.8576 C   0  0  0  0  0  0  0  0  0  0  0  0
    5.0795    0.6230  -20.9651 C   0  0  0  0  0  0  0  0  0  0  0  0
    5.3718   -1.7944  -21.0233 C   0  0  0  0  0  0  0  0  0  0  0  0
    7.1422   -0.3311  -21.8524 C   0  0  0  0  0  0  0  0  0  0  0  0
    5.3992    8.1095  -14.2303 C   0  0  0  0  0  0  0  0  0  0  0  0
    6.8013    1.5228  -18.0157 C   0  0  0  0  0  0  0  0  0  0  0  0
    4.8326    8.8301  -15.4469 C   0  0  0  0  0  0  0  0  0  0  0  0
    6.3472    6.9381  -14.4623 C   0  0  0  0  0  0  0  0  0  0  0  0
    4.1844    7.7931  -16.3616 C   0  0  0  0  0  0  0  0  0  0  0  0
    5.7477    5.9655  -15.4975 C   0  0  0  0  0  0  0  0  0  0  0  0
    5.1840    6.6770  -16.7788 C   0  0  0  0  0  0  0  0  0  0  0  0
    7.0965    0.4393  -16.9833 C   0  0  0  0  0  0  0  0  0  0  0  0
    5.8441    8.0093  -22.1625 C   0  0  0  0  0  0  0  0  0  0  0  0
    7.2884   10.0377  -21.7786 C   0  0  0  0  0  0  0  0  0  0  0  0
    4.9734    9.9768  -20.8381 C   0  0  0  0  0  0  0  0  0  0  0  0
    4.2776    1.8273  -20.5429 C   0  0  0  0  0  0  0  0  0  0  0  0
    5.0873    4.5275  -17.9524 C   0  0  0  0  0  0  0  0  0  0  0  0
    5.0739    2.6294  -19.4989 C   0  0  1  0  0  0  0  0  0  0  0  0
    4.2361    3.7763  -18.9561 C   0  0  2  0  0  0  0  0  0  0  0  0
    6.2251    9.1037  -21.1397 C   0  0  0  0  0  0  0  0  0  0  0  0
    5.4794    1.7462  -18.3858 N   0  0  0  0  0  0  0  0  0  0  0  0
    4.3563    5.7099  -17.5098 N   0  0  0  0  0  0  0  0  0  0  0  0
    5.4190    8.6878  -13.1528 O   0  0  0  0  0  0  0  0  0  0  0  0
    7.7318    2.0618  -18.6059 O   0  0  0  0  0  0  0  0  0  0  0  0
    3.8757    4.6528  -20.0248 O   0  0  0  0  0  0  0  0  0  0  0  0
    4.8960   -3.0352  -20.7783 F   0  0  0  0  0  0  0  0  0  0  0  0
    8.3740   -0.1657  -22.3842 F   0  0  0  0  0  0  0  0  0  0  0  0
    9.6284    7.3979  -18.3151 H   0  0  0  0  0  0  0  0  0  0  0  0
    7.9936    6.5115  -16.6755 H   0  0  0  0  0  0  0  0  0  0  0  0
    8.8504    8.6109  -20.3319 H   0  0  0  0  0  0  0  0  0  0  0  0
    4.7673    7.9499  -19.1370 H   0  0  0  0  0  0  0  0  0  0  0  0
    3.6169   -0.8002  -20.2511 H   0  0  0  0  0  0  0  0  0  0  0  0
    6.7201    1.7846  -21.7683 H   0  0  0  0  0  0  0  0  0  0  0  0
    7.2543   -2.4897  -21.8284 H   0  0  0  0  0  0  0  0  0  0  0  0
    4.0798    9.5652  -15.1262 H   0  0  0  0  0  0  0  0  0  0  0  0
    5.6425    9.3452  -15.9843 H   0  0  0  0  0  0  0  0  0  0  0  0
    7.3098    7.3179  -14.8353 H   0  0  0  0  0  0  0  0  0  0  0  0
    6.5062    6.4058  -13.5129 H   0  0  0  0  0  0  0  0  0  0  0  0
    3.3382    7.3316  -15.8315 H   0  0  0  0  0  0  0  0  0  0  0  0
    3.8181    8.2983  -17.2674 H   0  0  0  0  0  0  0  0  0  0  0  0
    6.5335    5.2614  -15.8085 H   0  0  0  0  0  0  0  0  0  0  0  0
    4.9271    5.4110  -15.0187 H   0  0  0  0  0  0  0  0  0  0  0  0
    8.1834    0.2864  -16.9120 H   0  0  0  0  0  0  0  0  0  0  0  0
    6.7050    0.7502  -16.0035 H   0  0  0  0  0  0  0  0  0  0  0  0
    6.6135   -0.5003  -17.2898 H   0  0  0  0  0  0  0  0  0  0  0  0
    5.4712    8.4813  -23.0834 H   0  0  0  0  0  0  0  0  0  0  0  0
    6.7304    7.4008  -22.3954 H   0  0  0  0  0  0  0  0  0  0  0  0
    5.0597    7.3666  -21.7364 H   0  0  0  0  0  0  0  0  0  0  0  0
    6.8728   10.5009  -22.6856 H   0  0  0  0  0  0  0  0  0  0  0  0
    7.5656   10.8230  -21.0599 H   0  0  0  0  0  0  0  0  0  0  0  0
    8.1806    9.4508  -22.0425 H   0  0  0  0  0  0  0  0  0  0  0  0
    4.6247   10.4521  -21.7668 H   0  0  0  0  0  0  0  0  0  0  0  0
    4.1737    9.3420  -20.4286 H   0  0  0  0  0  0  0  0  0  0  0  0
    5.2363   10.7537  -20.1051 H   0  0  0  0  0  0  0  0  0  0  0  0
    4.0784    2.4615  -21.4193 H   0  0  0  0  0  0  0  0  0  0  0  0
    3.3242    1.4982  -20.1040 H   0  0  0  0  0  0  0  0  0  0  0  0
    5.3002    3.8796  -17.0893 H   0  0  0  0  0  0  0  0  0  0  0  0
    6.0331    4.8324  -18.4241 H   0  0  0  0  0  0  0  0  0  0  0  0
    5.9709    3.0427  -19.9831 H   0  0  0  0  0  0  0  0  0  0  0  0
    3.3412    3.3761  -18.4571 H   0  0  0  0  0  0  0  0  0  0  0  0
    4.7609    1.2817  -17.8680 H   0  0  0  0  0  0  0  0  0  0  0  0
    3.6122    5.4148  -16.9104 H   0  0  0  0  0  0  0  0  0  0  0  0
    3.9755    6.1651  -18.3146 H   0  0  0  0  0  0  0  0  0  0  0  0
    3.3419    4.1824  -20.6544 H   0  0  0  0  0  0  0  0  0  0  0  0
  1  2  2  0
  1  3  1  0
  2  8  1  0
  3  9  2  0
  4  8  2  0
  4  9  1  0
  5 10  2  0
  5 11  1  0
  6 10  1  0
  6 12  2  0
  7 11  2  0
  7 12  1  0
  8 19  1  0
  9 28  1  0
 10 24  1  0
 11 34  1  0
 12 35  1  0
 13 15  1  0
 13 16  1  0
 13 31  2  0
 14 20  1  0
 14 29  1  0
 14 32  2  0
 15 17  1  0
 16 18  1  0
 17 19  1  0
 18 19  1  0
 19 30  1  0
 21 28  1  0
 22 28  1  0
 23 28  1  0
 24 26  1  0
 25 27  1  0
 25 30  1  0
 26 27  1  0
 26 29  1  0
 27 33  1  0
  1 36  1  0
  2 37  1  0
  3 38  1  0
  4 39  1  0
  5 40  1  0
  6 41  1  0
  7 42  1  0
 15 43  1  0
 15 44  1  0
 16 45  1  0
 16 46  1  0
 17 47  1  0
 17 48  1  0
 18 49  1  0
 18 50  1  0
 20 51  1  0
 20 52  1  0
 20 53  1  0
 21 54  1  0
 21 55  1  0
 21 56  1  0
 22 57  1  0
 22 58  1  0
 22 59  1  0
 23 60  1  0
 23 61  1  0
 23 62  1  0
 24 63  1  0
 24 64  1  0
 25 65  1  0
 25 66  1  0
 26 67  1  6
 27 68  1  1
 29 69  1  0
 30 70  1  0
 30 71  1  0
 33 72  1  0
M  CHG  1  30   1
M  END
>  <OMEGA_C>  (47) 
2yEJQURR8UAb2JPBqZ70QDVL4UA/ZozBtxICQbCiA0FKAJ3Bs2i6QLLn+0D5eZfBX+SSQMTNK78U
m6XBwkrLQATaSj8yaazBlNLUQLIa0L9zvKzB5CbIQIM750B8Bo7BadbXQJGyBkFM3J7BpouiQP15
Hz+buKfBvuWrQJOv5b+hL6jB54zkQPp/qb620a7BJMasQIrAAUF9r2PBhKTZQD3swj85IJDB56Sa
QBhIDUFsJnfBXBzLQAAF3kB4ZWfBquaFQN1g+UCG5ILB5uy3QAHlvkC19XfBf+OlQFiq1UAGO4bB
QRbjQPjm4D7m3YfB+gK7QD4mAEG0TLHBzTrpQDiaIEF6Oq7BuiWfQP6gH0FZtKbBaeKIQI3m6T/X
V6TBNsuiQIrhkEB6no/BI12iQNVHKEDR/ZvB4I2HQFKvcUACppfBFTTHQNyoEUExHqnB8lavQNaC
3z8JFpPBwWaLQGe3tkD8E4zBlWitQGYBC0G5cVLBiGr3QAz1A0Di2JTBswp4QMTjlEC9MqDBGayc
QFFAQsDpOabBFPwFQTysKb7UErPBzA0aQdO77EBbhZLBdsv/QC9e0EBcZ4XBQpsNQVLGCUHSp6LB
i42YQJtl/kB+GJnB/XtnQOHYTL8+AqLBQQvXQFRt5D+KJa7B2yLoQPdWH8B9oK7Bfo2CQBQLGUH4
BHLBGY+0QB+GFUGUv3/BxunpQJgs6kCJXW3B4jLQQAb8zEDMNFjBQKVVQNqc6kCjTX3BIVt0QM3F
BEGvI4rBgBLRQAVdqEBr73zBw6qdQOYmrUCYTHDBaO8CQYOckj7SS4fBNo/WQO0KQD8yB4DBmqHT
QCUUAL+SUYrBqhOvQD+zB0HaqrjBO1/XQJTT7EC/KbPBAemhQBO760AQ5K3BUu7bQJcDKEEVfLXB
XRnyQAkrLUHGeqjBi+MCQVQ2F0EUV7DBff2TQMw7J0FgIq7BS4+FQN94FUHJbaPBKZCnQCQPLEEv
16DB9YGCQHuJHUDCWqvBRL9UQD3Gvz8R1aDB+pqpQLdKeED9tojBLg/BQOyimkCVZJPByBG/QDW8
QkBv3Z/BItZVQMcRWEALqJPBgVmYQLUOpD+b8Y7B2S1nQClGrUCFSIfBXW5+QIpIxUBLhJLBfuJV
QH3WhUAvPKXBiH0JQfHl8UAOuZPB6BX1QDnB4UDCW4zBqJUCQbL8A0HX45zB/j+7QLx9/EBKipfB
WxrMQA1dTj+Di6zBbyqTQOInJ7/U9KXBwBfVQN6Zzr9wBa3BHK3IQIiy50DxE47Boe3YQH8PB0HQ
1p7ByiqjQCK5Iz9a9KfB0ijlQHgcpL6R/q7BjAOsQJio47+0jKjBSUGsQJfqAUGx7mPB9tnZQDTH
wD9SGpDBJW+aQD9yDUEleHfB4avKQPdd3kAtg2fBovyFQPqu+UC/GIPBZdW3QDtCv0D9K3jBdymm
QJcJ1kBYX4bBD/HiQEtq0z4y5YfBEyO9QIKxAEH5Y7HBxsnqQLBDIUHrCK7BxFWgQIPwH0H0xqbB
0KaJQA7z6z8hh6TBk3ujQPorkUDOwo/BNteiQMkKKECi/5vBoqSHQFgdcECycpfBy63IQIwfEkFK
G6nBPLSvQL1t3D+JOJPB+/SLQL4Nt0CZR4zBjJCsQPgnC0GMrlLB9sz3QBGeBECJi5TBsDtzQAlv
k0BC5Z/BmVgGQYW0I76JMbPBLIOcQHcfQcAfqKbBtGMaQRpQ7UBwVJLBqwIAQfW70EB8WoXBjTYO
QYMqCkENfKLBmXOZQKX3/kAHPJnBPibYQNwb5j8cLK7BMrhnQNZpR78ccKLBlEToQAe6HsDB767B
FTqCQBIxGUFNcHLBpXm0QPq0FUEx9H/BxpTpQFmL6kBIVG3BwXnPQIBQzUDaTVjBZZpVQK/b6kDZ
0n3B2e50QFXrBEGHXYrBTBjRQILCqECiCX3BUXOdQI56rUAkpHDB4twCQTHTjj5/E4fB3UjVQCvK
Mz8/H4DBmVvUQCTiB7+rkYrB/nqxQC9QCEGyxLjB27fZQJYn7kC6MrPB5f+jQG2O7ECXGa7Bq8zd
QI3AKEGBTrXBhinzQF/DLUEkNKjBG8oDQUcBGEGAFbDBfXqVQHOdJ0FyN67BDLOGQHipFUEQn6PB
BUuoQNtPLEHY16DB1M+DQDVuH0AmfavBHL9VQCv6wT+aKKHB4FirQJtgekDUyYjBVS3BQP3xmkBE
zpPBPoq/QGaiQ0DAv5/BRF9YQB7wVEA+HZPBt6WYQJkWnj+iRY/Bz+hnQPeerUAdi4fBWgeAQGmZ
xUBgwJLBe1VQQCypg0DMtaTB

>  <OMEGA_E>  (47) 
AI38PUBxAD4=

>  <OMEGA_NBR>  (47) 
    167343

$$$$
50212922
     RDKit          3D

 76 78  0  0  1  0  0  0  0  0999 V2000
    8.6244    7.6493  -18.3844 C   0  0  0  0  0  0  0  0  0  0  0  0
    7.6742    7.1151  -17.4951 C   0  0  0  0  0  0  0  0  0  0  0  0
    8.2077    8.3450  -19.5351 C   0  0  0  0  0  0  0  0  0  0  0  0
    5.8920    7.9088  -18.9472 C   0  0  0  0  0  0  0  0  0  0  0  0
    6.2746    0.7662  -21.5314 C   0  0  0  0  0  0  0  0  0  0  0  0
    4.5462   -0.7023  -20.6187 C   0  0  0  0  0  0  0  0  0  0  0  0
    6.6098   -1.6450  -21.5119 C   0  0  0  0  0  0  0  0  0  0  0  0
    6.2898    7.2529  -17.7701 C   0  0  0  0  0  0  0  0  0  0  0  0
    6.8262    8.5106  -19.8088 C   0  0  0  0  0  0  0  0  0  0  0  0
    5.0137    0.5888  -20.9234 C   0  0  0  0  0  0  0  0  0  0  0  0
    7.0788   -0.3494  -21.8097 C   0  0  0  0  0  0  0  0  0  0  0  0
    5.3402   -1.8194  -20.9224 C   0  0  0  0  0  0  0  0  0  0  0  0
    7.0252    9.4773  -13.3644 C   0  0  0  0  0  0  0  0  0  0  0  0
    6.8666    1.5550  -18.0248 C   0  0  0  0  0  0  0  0  0  0  0  0
    4.8098    8.7451  -15.4665 C   0  0  0  0  0  0  0  0  0  0  0  0
    4.1756    7.7820  -16.4531 C   0  0  0  0  0  0  0  0  0  0  0  0
    5.7471    5.9490  -15.6133 C   0  0  0  0  0  0  0  0  0  0  0  0
    5.2797    7.9164  -14.2575 C   0  0  2  0  0  0  0  0  0  0  0  0
    5.1883    6.6781  -16.8616 C   0  0  2  0  0  0  0  0  0  0  0  0
    7.2246    0.5216  -16.9598 C   0  0  0  0  0  0  0  0  0  0  0  0
    5.9649    8.1552  -22.1274 C   0  0  0  0  0  0  0  0  0  0  0  0
    7.3662   10.2020  -21.6572 C   0  0  0  0  0  0  0  0  0  0  0  0
    5.0400   10.0664  -20.7529 C   0  0  0  0  0  0  0  0  0  0  0  0
    4.2210    1.7838  -20.4887 C   0  0  0  0  0  0  0  0  0  0  0  0
    5.0982    4.4968  -17.9639 C   0  0  0  0  0  0  0  0  0  0  0  0
    5.0565    2.5831  -19.4805 C   0  0  1  0  0  0  0  0  0  0  0  0
    4.2186    3.7121  -18.9088 C   0  0  2  0  0  0  0  0  0  0  0  0
    6.3137    9.2271  -21.0700 C   0  0  0  0  0  0  0  0  0  0  0  0
    5.8388    8.7671  -13.2221 N   0  0  0  0  0  0  0  0  0  0  0  0
    5.5297    1.7029  -18.3864 N   0  0  0  0  0  0  0  0  0  0  0  0
    4.3870    5.7174  -17.6081 N   0  0  0  0  0  0  0  0  0  0  0  0
    6.2767    6.9036  -14.6471 N   0  0  0  0  0  0  0  0  0  0  0  0
    7.6645    9.4876  -14.4110 O   0  0  0  0  0  0  0  0  0  0  0  0
    7.7639    2.1290  -18.6332 O   0  0  0  0  0  0  0  0  0  0  0  0
    3.7684    4.5603  -19.9687 O   0  0  0  0  0  0  0  0  0  0  0  0
    8.3047   -0.1734  -22.3508 F   0  0  0  0  0  0  0  0  0  0  0  0
    4.8886   -3.0584  -20.6302 F   0  0  0  0  0  0  0  0  0  0  0  0
    9.6783    7.5251  -18.1834 H   0  0  0  0  0  0  0  0  0  0  0  0
    7.9989    6.6001  -16.6031 H   0  0  0  0  0  0  0  0  0  0  0  0
    8.9430    8.7542  -20.2120 H   0  0  0  0  0  0  0  0  0  0  0  0
    4.8420    7.9518  -19.1967 H   0  0  0  0  0  0  0  0  0  0  0  0
    6.6199    1.7584  -21.7820 H   0  0  0  0  0  0  0  0  0  0  0  0
    3.5806   -0.8336  -20.1532 H   0  0  0  0  0  0  0  0  0  0  0  0
    7.2233   -2.5053  -21.7354 H   0  0  0  0  0  0  0  0  0  0  0  0
    7.3979   10.0410  -12.5220 H   0  0  0  0  0  0  0  0  0  0  0  0
    5.6681    9.2511  -15.9328 H   0  0  0  0  0  0  0  0  0  0  0  0
    4.0722    9.4952  -15.1452 H   0  0  0  0  0  0  0  0  0  0  0  0
    3.2967    7.3127  -15.9871 H   0  0  0  0  0  0  0  0  0  0  0  0
    3.8628    8.3364  -17.3503 H   0  0  0  0  0  0  0  0  0  0  0  0
    4.9387    5.3706  -15.1422 H   0  0  0  0  0  0  0  0  0  0  0  0
    6.5523    5.2674  -15.9248 H   0  0  0  0  0  0  0  0  0  0  0  0
    4.4000    7.3974  -13.8491 H   0  0  0  0  0  0  0  0  0  0  0  0
    8.3186    0.4341  -16.8861 H   0  0  0  0  0  0  0  0  0  0  0  0
    6.8160    0.8390  -15.9891 H   0  0  0  0  0  0  0  0  0  0  0  0
    6.7968   -0.4533  -17.2366 H   0  0  0  0  0  0  0  0  0  0  0  0
    5.5954    8.6461  -23.0398 H   0  0  0  0  0  0  0  0  0  0  0  0
    6.8645    7.5686  -22.3653 H   0  0  0  0  0  0  0  0  0  0  0  0
    5.1865    7.4875  -21.7295 H   0  0  0  0  0  0  0  0  0  0  0  0
    6.9557   10.6887  -22.5542 H   0  0  0  0  0  0  0  0  0  0  0  0
    7.6161   10.9667  -20.9071 H   0  0  0  0  0  0  0  0  0  0  0  0
    8.2740    9.6423  -21.9268 H   0  0  0  0  0  0  0  0  0  0  0  0
    4.6934   10.5679  -21.6685 H   0  0  0  0  0  0  0  0  0  0  0  0
    4.2478    9.4024  -20.3765 H   0  0  0  0  0  0  0  0  0  0  0  0
    5.2791   10.8213  -19.9895 H   0  0  0  0  0  0  0  0  0  0  0  0
    3.9906    2.4132  -21.3609 H   0  0  0  0  0  0  0  0  0  0  0  0
    3.2838    1.4551  -20.0158 H   0  0  0  0  0  0  0  0  0  0  0  0
    5.2998    3.9036  -17.0598 H   0  0  0  0  0  0  0  0  0  0  0  0
    6.0487    4.7473  -18.4577 H   0  0  0  0  0  0  0  0  0  0  0  0
    5.9235    3.0128  -20.0036 H   0  0  0  0  0  0  0  0  0  0  0  0
    3.3652    3.2926  -18.3559 H   0  0  0  0  0  0  0  0  0  0  0  0
    5.3423    8.8465  -12.3578 H   0  0  0  0  0  0  0  0  0  0  0  0
    4.8460    1.1820  -17.8753 H   0  0  0  0  0  0  0  0  0  0  0  0
    3.5955    5.4681  -17.0501 H   0  0  0  0  0  0  0  0  0  0  0  0
    6.5664    6.4062  -13.8293 H   0  0  0  0  0  0  0  0  0  0  0  0
    7.0649    7.3672  -15.0519 H   0  0  0  0  0  0  0  0  0  0  0  0
    3.2159    4.0628  -20.5601 H   0  0  0  0  0  0  0  0  0  0  0  0
  1  2  2  0
  1  3  1  0
  2  8  1  0
  3  9  2  0
  4  8  2  0
  4  9  1  0
  5 10  2  0
  5 11  1  0
  6 10  1  0
  6 12  2  0
  7 11  2  0
  7 12  1  0
  8 19  1  0
  9 28  1  0
 10 24  1  0
 11 36  1  0
 12 37  1  0
 13 29  1  0
 13 33  2  0
 14 20  1  0
 14 30  1  0
 14 34  2  0
 15 16  1  0
 15 18  1  0
 16 19  1  0
 17 19  1  0
 17 32  1  0
 18 29  1  0
 18 32  1  0
 19 31  1  6
 21 28  1  0
 22 28  1  0
 23 28  1  0
 24 26  1  0
 25 27  1  0
 25 31  1  0
 26 27  1  0
 26 30  1  0
 27 35  1  0
  1 38  1  0
  2 39  1  0
  3 40  1  0
  4 41  1  0
  5 42  1  0
  6 43  1  0
  7 44  1  0
 13 45  1  0
 15 46  1  0
 15 47  1  0
 16 48  1  0
 16 49  1  0
 17 50  1  0
 17 51  1  0
 18 52  1  1
 20 53  1  0
 20 54  1  0
 20 55  1  0
 21 56  1  0
 21 57  1  0
 21 58  1  0
 22 59  1  0
 22 60  1  0
 22 61  1  0
 23 62  1  0
 23 63  1  0
 23 64  1  0
 24 65  1  0
 24 66  1  0
 25 67  1  0
 25 68  1  0
 26 69  1  6
 27 70  1  1
 29 71  1  0
 30 72  1  0
 31 73  1  0
 32 74  1  0
 32 75  1  0
 35 76  1  0
M  CHG  1  32   1
M  END
>  <OMEGA_C>  (48) 
rP0JQd3G9EA3E5PByZL1QOuu40AO9ovBplIDQQCFBUHLR5zB74q8QMAU/UD3k5fB2snIQMEnRD9h
QKzBvXqRQIDHM78s86TBMoPTQPGP0r9sGKzB7EXJQBQY6EBBKY7BoHDaQI4rCEGEeJ7BUHCgQHK4
Fj8gY6fBgYXiQP3msr5Teq7B7uKqQDni6L8eYafBYs7gQP2iF0GF1FXB7brbQJ8Lxz/GMpDBHOqZ
QOzrC0HPdnfBwp6FQCgG+UAFoIPB5ue3QHZevkA30HnBf/OoQPxS/UDEHmTBigamQO6y1UB65IbB
1S/nQCqFBT+trYfBb+C+QKR7AkHUBLHBx7frQDM7I0HzQa3BS0ehQNIPIUH4BabBxhKHQAJT5D/k
6KPBIySjQAbmj0Ahto/B9M6hQI1RJUAC2JvB6/6GQGuTbUAgRZfBMgrKQB2iE0FSj6jBr9e6QOpF
DEHXjVPBh/OwQHT32T9DF5PBRGKMQEb1tkBx3YzB0NrIQAHq3ECDWmrBPEP1QATNF0FTk2bBPnL4
QHxBCEC1EJXB9i1xQNrtkUDfv5/BJOAEQSmYMb6DzrLBGm+cQBG9Q8CwCqXBNNoaQYfN8ECWd5HB
Fff/QO8z00Ax04TBkhYPQQIRDEEusqHB+PGaQAV1/kDKkpnBa9bTQDoT4T+JQa7B6ChlQOhlVb+y
OaHBUCXnQCtWIMAo4q3Bc7vsQB6oIEHuWUjBwWC1QI0EFEGP7H7BT0+CQEfsF0GuUnLB+fxSQG0B
6kAfy3/BaDh3QLlhBUFWzYrB/gmeQMjbq0BiRnLBXazRQIuOqEDHy37BGM2MQFm37ED2lV3BGhkF
QUVF3j6/FofB7xzaQHDFVj8u03/BRH/ZQFYX6L6S5InBvw2zQEdWCkF9UbjBNKrbQEIy8kAq7LLB
w/elQMKZ70D21a3B15TeQNMEK0H4brTBfbfzQL13L0HGQafBPmIEQfBGGkEtaq/BaTCWQFAWKUEd
Wa3BTO6HQC9wFkEOA6PBV+6oQC0kLUF16p/BUWV/QC9xGkAy46rBlypSQCNBuj9eIKDBPJipQC/U
eUCNeojBmY7BQCnql0BdqZPBR429QB3SQEBoB6DBn15XQDK6UkD12JLB6POqQDyLDUFouUXBDhKb
QABNlz+XAI/BTBxmQBP7rkCuZojBth/SQL3/zEDwRF3BUBPiQATA60Ck1HDB99FNQA0CgkD9eqTB

>  <OMEGA_E>  (48) 
1A27Pg==

>  <OMEGA_NBR>  (48) 
    168902

$$$$
50212920
     RDKit          3D

 75 77  0  0  1  0  0  0  0  0999 V2000
    8.6027    7.6896  -18.4486 C   0  0  0  0  0  0  0  0  0  0  0  0
    7.6797    7.1202  -17.5556 C   0  0  0  0  0  0  0  0  0  0  0  0
    8.1532    8.3871  -19.5825 C   0  0  0  0  0  0  0  0  0  0  0  0
    5.8542    7.8899  -18.9662 C   0  0  0  0  0  0  0  0  0  0  0  0
    6.3136    0.8053  -21.5249 C   0  0  0  0  0  0  0  0  0  0  0  0
    4.5756   -0.6746  -20.6494 C   0  0  0  0  0  0  0  0  0  0  0  0
    6.6522   -1.6054  -21.5251 C   0  0  0  0  0  0  0  0  0  0  0  0
    6.2863    7.2238  -17.8045 C   0  0  0  0  0  0  0  0  0  0  0  0
    6.7652    8.5201  -19.8363 C   0  0  0  0  0  0  0  0  0  0  0  0
    5.0447    0.6201  -20.9357 C   0  0  0  0  0  0  0  0  0  0  0  0
    7.1231   -0.3064  -21.8039 C   0  0  0  0  0  0  0  0  0  0  0  0
    5.3755   -1.7875  -20.9539 C   0  0  0  0  0  0  0  0  0  0  0  0
    6.7785    1.5249  -17.9513 C   0  0  0  0  0  0  0  0  0  0  0  0
    4.8570    8.7010  -15.4735 C   0  0  0  0  0  0  0  0  0  0  0  0
    4.2030    7.7252  -16.4298 C   0  0  0  0  0  0  0  0  0  0  0  0
    5.8178    5.9088  -15.6226 C   0  0  0  0  0  0  0  0  0  0  0  0
    5.3908    7.8915  -14.2747 C   0  0  2  0  0  0  0  0  0  0  0  0
    5.2157    6.6324  -16.8625 C   0  0  2  0  0  0  0  0  0  0  0  0
    7.0670    0.4854  -16.8717 C   0  0  0  0  0  0  0  0  0  0  0  0
    7.2829   10.1699  -21.7339 C   0  0  0  0  0  0  0  0  0  0  0  0
    5.0004   10.1296  -20.7117 C   0  0  0  0  0  0  0  0  0  0  0  0
    5.7909    8.1736  -22.1101 C   0  0  0  0  0  0  0  0  0  0  0  0
    4.2414    1.8103  -20.5079 C   0  0  0  0  0  0  0  0  0  0  0  0
    5.0986    4.4912  -17.9766 C   0  0  0  0  0  0  0  0  0  0  0  0
    5.0535    2.5982  -19.4724 C   0  0  1  0  0  0  0  0  0  0  0  0
    4.2233    3.7432  -18.9416 C   0  0  2  0  0  0  0  0  0  0  0  0
    6.2245    9.2426  -21.0814 C   0  0  0  0  0  0  0  0  0  0  0  0
    6.0277    8.8023  -13.2539 C   0  0  0  0  0  0  0  0  0  0  0  0
    6.3881    6.8968  -14.7123 N   0  0  0  0  0  0  0  0  0  0  0  0
    5.4593    1.7202  -18.3511 N   0  0  0  0  0  0  0  0  0  0  0  0
    4.3886    5.6854  -17.5830 N   0  0  0  0  0  0  0  0  0  0  0  0
    7.7137    2.0498  -18.5468 O   0  0  0  0  0  0  0  0  0  0  0  0
    3.8433    4.6088  -20.0140 O   0  0  0  0  0  0  0  0  0  0  0  0
    8.3558   -0.1239  -22.3274 F   0  0  0  0  0  0  0  0  0  0  0  0
    4.9220   -3.0304  -20.6814 F   0  0  0  0  0  0  0  0  0  0  0  0
    6.5411    8.0353  -12.2574 F   0  0  0  0  0  0  0  0  0  0  0  0
    5.0666    9.6197  -12.7555 F   0  0  0  0  0  0  0  0  0  0  0  0
    7.0194    9.5346  -13.8300 F   0  0  0  0  0  0  0  0  0  0  0  0
    9.6620    7.5907  -18.2629 H   0  0  0  0  0  0  0  0  0  0  0  0
    8.0319    6.6016  -16.6761 H   0  0  0  0  0  0  0  0  0  0  0  0
    8.8686    8.8238  -20.2637 H   0  0  0  0  0  0  0  0  0  0  0  0
    4.7993    7.9186  -19.1961 H   0  0  0  0  0  0  0  0  0  0  0  0
    6.6608    1.8005  -21.7605 H   0  0  0  0  0  0  0  0  0  0  0  0
    3.6044   -0.8120  -20.1974 H   0  0  0  0  0  0  0  0  0  0  0  0
    7.2699   -2.4625  -21.7491 H   0  0  0  0  0  0  0  0  0  0  0  0
    5.6872    9.2192  -15.9758 H   0  0  0  0  0  0  0  0  0  0  0  0
    4.1188    9.4398  -15.1284 H   0  0  0  0  0  0  0  0  0  0  0  0
    3.3459    7.2485  -15.9317 H   0  0  0  0  0  0  0  0  0  0  0  0
    3.8538    8.2689  -17.3200 H   0  0  0  0  0  0  0  0  0  0  0  0
    5.0257    5.3476  -15.1052 H   0  0  0  0  0  0  0  0  0  0  0  0
    6.6053    5.2142  -15.9501 H   0  0  0  0  0  0  0  0  0  0  0  0
    4.5436    7.3711  -13.8041 H   0  0  0  0  0  0  0  0  0  0  0  0
    8.1541    0.3468  -16.7765 H   0  0  0  0  0  0  0  0  0  0  0  0
    6.6560    0.8304  -15.9115 H   0  0  0  0  0  0  0  0  0  0  0  0
    6.5985   -0.4706  -17.1487 H   0  0  0  0  0  0  0  0  0  0  0  0
    6.8469   10.6605  -22.6167 H   0  0  0  0  0  0  0  0  0  0  0  0
    7.5980   10.9340  -21.0081 H   0  0  0  0  0  0  0  0  0  0  0  0
    8.1547    9.5728  -22.0396 H   0  0  0  0  0  0  0  0  0  0  0  0
    4.6287   10.6371  -21.6140 H   0  0  0  0  0  0  0  0  0  0  0  0
    4.2035    9.4981  -20.2918 H   0  0  0  0  0  0  0  0  0  0  0  0
    5.3035   10.8807  -19.9673 H   0  0  0  0  0  0  0  0  0  0  0  0
    5.3997    8.6684  -23.0113 H   0  0  0  0  0  0  0  0  0  0  0  0
    6.6573    7.5520  -22.3801 H   0  0  0  0  0  0  0  0  0  0  0  0
    5.0070    7.5390  -21.6709 H   0  0  0  0  0  0  0  0  0  0  0  0
    4.0314    2.4488  -21.3787 H   0  0  0  0  0  0  0  0  0  0  0  0
    3.2934    1.4769  -20.0606 H   0  0  0  0  0  0  0  0  0  0  0  0
    5.3031    3.8676  -17.0939 H   0  0  0  0  0  0  0  0  0  0  0  0
    6.0478    4.7615  -18.4624 H   0  0  0  0  0  0  0  0  0  0  0  0
    5.9511    3.0036  -19.9623 H   0  0  0  0  0  0  0  0  0  0  0  0
    3.3383    3.3513  -18.4189 H   0  0  0  0  0  0  0  0  0  0  0  0
    6.7463    6.4240  -13.9071 H   0  0  0  0  0  0  0  0  0  0  0  0
    4.7412    1.2376  -17.8498 H   0  0  0  0  0  0  0  0  0  0  0  0
    3.6237    5.4208  -16.9956 H   0  0  0  0  0  0  0  0  0  0  0  0
    4.0379    6.1321  -18.4061 H   0  0  0  0  0  0  0  0  0  0  0  0
    3.2899    4.1346  -20.6234 H   0  0  0  0  0  0  0  0  0  0  0  0
  1  2  2  0
  1  3  1  0
  2  8  1  0
  3  9  2  0
  4  8  2  0
  4  9  1  0
  5 10  2  0
  5 11  1  0
  6 10  1  0
  6 12  2  0
  7 11  2  0
  7 12  1  0
  8 18  1  0
  9 27  1  0
 10 23  1  0
 11 34  1  0
 12 35  1  0
 13 19  1  0
 13 30  1  0
 13 32  2  0
 14 15  1  0
 14 17  1  0
 15 18  1  0
 16 18  1  0
 16 29  1  0
 17 28  1  0
 17 29  1  0
 18 31  1  6
 20 27  1  0
 21 27  1  0
 22 27  1  0
 23 25  1  0
 24 26  1  0
 24 31  1  0
 25 26  1  0
 25 30  1  0
 26 33  1  0
 28 36  1  0
 28 37  1  0
 28 38  1  0
  1 39  1  0
  2 40  1  0
  3 41  1  0
  4 42  1  0
  5 43  1  0
  6 44  1  0
  7 45  1  0
 14 46  1  0
 14 47  1  0
 15 48  1  0
 15 49  1  0
 16 50  1  0
 16 51  1  0
 17 52  1  1
 19 53  1  0
 19 54  1  0
 19 55  1  0
 20 56  1  0
 20 57  1  0
 20 58  1  0
 21 59  1  0
 21 60  1  0
 21 61  1  0
 22 62  1  0
 22 63  1  0
 22 64  1  0
 23 65  1  0
 23 66  1  0
 24 67  1  0
 24 68  1  0
 25 69  1  6
 26 70  1  1
 29 71  1  0
 30 72  1  0
 31 73  1  0
 31 74  1  0
 33 75  1  0
M  CHG  1  31   1
M  END
>  <OMEGA_C>  (49) 
pKQJQeMQ9kDClpPBW8D1QMTY40DOcYzBinMCQZ0xBkEHqZzBPlW7QCZ6/EC8upfBoAjKQH4qTj/q
MqzBXGuSQMqvLL8KMqXBCd/UQOp9zb9iM6zBdinJQHsp50CEb47BXnzYQIJSCEHVsJ7BbW6hQEvB
Hj9RfKfBY/DjQKLfnL5Xbq7BzgOsQGXN5L+eoafBPunYQOouwz9anI/BUWybQCw3C0GIk3fBJn+G
QBY190BHcIPBHSu6QEEVvUBf9nnBH4GsQAuH/EAuZWTBZOemQGg81EB55obBtCTiQOt/+D46+YbB
Lw3pQOK3IkEY363B5AKgQP4SIkF2saXBvU65QOHGAkF54bDBSrmHQCm45z9HEKTB7iejQCS4j0Ac
0I/BFrahQGxIJkBvx5vBqiWHQBGRb0BViJfBty7HQIzhE0HNpqjBtuLAQDTWDEH3D1TBY2vMQIiy
3EBvZWvB8LKuQDAv3D/0zpLBh2+MQIzutUDqqYzBedb2QMAvA0DCX5TBIvh1QJ57k0CjHKDBMrEF
QbrH/b1snrLBKYGdQE/xQcB4c6XBfVDRQLOQAEFmHkTB1CGiQDTqGUGxFkzBIJ/gQKWNGEHYR13B
j5caQS3n8kBbGpLBvIIAQVtA00C2aIXBrOUNQVQuDUH/G6LB1pOZQHJl/UCKkZnBSyXVQNF15j+A
Fa7B2K5mQEncT79MlKHBX6PoQLaZHcBC/q3BSf21QKuBE0HAnH/B0MyDQJEJF0HsDXLB5iNWQPPz
50AR6H7Bx6R2QFlNBEFyj4rB0NKgQK8fq0AOr3HB7V7TQLrapkBuM3/BAWWRQNXf60Cl3VzBCHcC
QeSOsT5NNobB7f3UQAmWVD9klX7B8SbTQDTu8L6ZMInB1RnbQJmRKkHq7rTB4SLzQKXxLkGYEKjB
l3kCQVYqGUEjUbDBHB6UQK4xKkGO6azBWoOGQE34F0GhVaLBD7apQE8XLkEQvZ/BhcqsQPWxCkEN
F7jBwQjVQOKp8UB1CrPBQzmgQEc/8UAYXq3B0gCBQIS4HECmB6vBmcZSQHEKvT8XfKDBpLKpQGOG
d0A3wIjBxIfBQHdemEDwspPBD2++QC06QEDIsp/BdqdVQHN8VkDgWZPBd+HXQLGRzUCqg17BkLeX
QNZonj9QzI7BAutnQIx3rUAO94fBiDaBQNA5xECZP5PBMY1SQL9OhECq/KTBDsUJQfb19UDZr5PB
Th32QPOE40Bai4zB4YACQVEzBkHCupzBJ427QJAE/EB4y5fB6+nJQHODTD+8U6zBVdqRQOxqKr9U
V6XBUjTUQMOkzr+DPqzBHX/JQBG25kCGg47BnI7YQP46CEEPvp7B2SqhQK/PHz+XqqfBgp3jQA6j
o74mfq7BHzerQMaC5L9LuKfBP5bYQADUxD+VkI/Bz6KbQOUBC0F5uHfBPtGGQCW49kCRgIPB4KO6
QMu7vEABEnrBYMGsQEUv/EAYh2TBNkynQC3K00By9IbBlgHiQJZV8z5VH4fB3ai5QJTFAkHc+bDB
bYjoQMz/IkH3za3B/3yfQLS7IUHiraXBGbWHQBUE6T9GRqTBuVijQDs4j0Da1Y/BLbKhQM3/JUDS
6JvBmjiHQGgJb0CvkpfBswrHQFDVE0GDq6jBLwnBQN62DEF6NVTBfcfMQPBw3ECBhGvBaZKuQFiQ
2T/2B5PB5b+MQNB4tUAerozBumb2QNsDCEBk4pPBfvB1QCF8k0CmF6DBTJUFQRQrF77TpbLBk1Sc
QFJ9QcDAhqXBBqXRQO97AEFQSETBkC+iQIe3GUErM0zBO6DgQJ+AGEHgdV3B0LoaQfbg8kDeOJLB
FL8AQdDa0kCth4XB2uYNQcNNDUF9KqLBE8uZQHK3/EANo5nBWkrVQDc45T8BOa7BrmplQHVcS7+E
vaHB6M7nQIaCHsDr/K3BYyu2QC9TE0GZwX/BZPKDQN7NFkFAN3LBN9VWQO9r50BOCH/BfDx3QCEI
BEEuoYrBSVyhQC6yqkDPyHHBx+vTQGCWpkA2TX/B46+RQIF260C6/1zBjGgCQUvowz45DIbBfyzT
QEOGRD8T/H7Bpc7UQN0o+76DvYnBWgGtQNm5CkEMKbjBbqbVQP4R8kAhKbPBes2gQH/Q8EBFhK3B
3m7aQEDdKkH+17TB+zLyQEEzL0HV8KfBqV0CQZiwGUH3RLDBfnOTQCDjKUG036zBITiGQP1qF0F+
X6LBW9WoQB64LUF7rJ/BO3aBQBW8HUAZPKvBCUJSQJdqvz+jxqDBQsapQCVYdkBlyIjB5sXBQA7F
l0CttZPBVHq+QPEjQEDnx5/Be+RVQKHBVUAlZJPBwErYQBZgzUD9oF7BGayXQA4Ulz+FS4/BPKlo
QNoQrUDL9IfBAnOBQBa8w0DCQpPB7V5SQPR3hEAn+6TB

>  <OMEGA_E>  (49) 
EE6PPtCrjz4=

>  <OMEGA_NBR>  (49) 
    171595

$$$$
50212928
     RDKit          3D

 71 73  0  0  1  0  0  0  0  0999 V2000
    8.5756    7.5834  -18.4476 C   0  0  0  0  0  0  0  0  0  0  0  0
    7.6420    7.1031  -17.5138 C   0  0  0  0  0  0  0  0  0  0  0  0
    8.1420    8.2321  -19.6164 C   0  0  0  0  0  0  0  0  0  0  0  0
    5.8307    7.8718  -18.9489 C   0  0  0  0  0  0  0  0  0  0  0  0
    6.3983    0.8068  -21.5770 C   0  0  0  0  0  0  0  0  0  0  0  0
    4.6128   -0.6505  -20.7641 C   0  0  0  0  0  0  0  0  0  0  0  0
    6.6823   -1.6141  -21.6239 C   0  0  0  0  0  0  0  0  0  0  0  0
    6.2530    7.2432  -17.7564 C   0  0  0  0  0  0  0  0  0  0  0  0
    6.7590    8.4197  -19.8631 C   0  0  0  0  0  0  0  0  0  0  0  0
    5.1135    0.6425  -21.0143 C   0  0  0  0  0  0  0  0  0  0  0  0
    7.1856   -0.3210  -21.8706 C   0  0  0  0  0  0  0  0  0  0  0  0
    5.3942   -1.7774  -21.0748 C   0  0  0  0  0  0  0  0  0  0  0  0
    5.6113    8.1508  -14.3255 C   0  0  0  0  0  0  0  0  0  0  0  0
    6.7925    1.4400  -18.0608 C   0  0  0  0  0  0  0  0  0  0  0  0
    4.8661    8.8420  -15.4715 C   0  0  0  0  0  0  0  0  0  0  0  0
    4.1854    7.7944  -16.3556 C   0  0  0  0  0  0  0  0  0  0  0  0
    5.7509    5.9895  -15.5187 C   0  0  0  0  0  0  0  0  0  0  0  0
    5.1804    6.6864  -16.7935 C   0  0  2  0  0  0  0  0  0  0  0  0
    7.0616    0.4160  -16.9627 C   0  0  0  0  0  0  0  0  0  0  0  0
    7.3225   10.0705  -21.7475 C   0  0  0  0  0  0  0  0  0  0  0  0
    4.9921    9.9782  -20.8527 C   0  0  0  0  0  0  0  0  0  0  0  0
    5.9018    8.0340  -22.1872 C   0  0  0  0  0  0  0  0  0  0  0  0
    4.3141    1.8495  -20.5892 C   0  0  0  0  0  0  0  0  0  0  0  0
    5.0805    4.5138  -17.9333 C   0  0  0  0  0  0  0  0  0  0  0  0
    5.0856    2.6245  -19.5038 C   0  0  1  0  0  0  0  0  0  0  0  0
    4.2306    3.7485  -18.9329 C   0  0  2  0  0  0  0  0  0  0  0  0
    6.2550    9.1172  -21.1440 C   0  0  0  0  0  0  0  0  0  0  0  0
    6.2678    6.9510  -14.5433 N   0  0  0  0  0  0  0  0  0  0  0  0
    5.4747    1.7121  -18.4102 N   0  0  0  0  0  0  0  0  0  0  0  0
    4.3558    5.7142  -17.5219 N   0  0  0  0  0  0  0  0  0  0  0  0
    5.7839    8.7446  -13.2708 O   0  0  0  0  0  0  0  0  0  0  0  0
    7.7280    2.0685  -18.5451 O   0  0  0  0  0  0  0  0  0  0  0  0
    3.8250    4.6239  -19.9861 O   0  0  0  0  0  0  0  0  0  0  0  0
    8.4285   -0.1620  -22.3785 F   0  0  0  0  0  0  0  0  0  0  0  0
    4.9134   -3.0163  -20.8290 F   0  0  0  0  0  0  0  0  0  0  0  0
    9.6323    7.4535  -18.2661 H   0  0  0  0  0  0  0  0  0  0  0  0
    7.9844    6.6253  -16.6077 H   0  0  0  0  0  0  0  0  0  0  0  0
    8.8676    8.5900  -20.3317 H   0  0  0  0  0  0  0  0  0  0  0  0
    4.7749    7.9350  -19.1670 H   0  0  0  0  0  0  0  0  0  0  0  0
    6.7760    1.7977  -21.7816 H   0  0  0  0  0  0  0  0  0  0  0  0
    3.6301   -0.7759  -20.3341 H   0  0  0  0  0  0  0  0  0  0  0  0
    7.2838   -2.4806  -21.8557 H   0  0  0  0  0  0  0  0  0  0  0  0
    4.1052    9.5190  -15.0561 H   0  0  0  0  0  0  0  0  0  0  0  0
    5.5810    9.4202  -16.0753 H   0  0  0  0  0  0  0  0  0  0  0  0
    3.3612    7.3325  -15.7924 H   0  0  0  0  0  0  0  0  0  0  0  0
    3.7845    8.2896  -17.2523 H   0  0  0  0  0  0  0  0  0  0  0  0
    4.9483    5.4039  -15.0467 H   0  0  0  0  0  0  0  0  0  0  0  0
    6.5677    5.3167  -15.8190 H   0  0  0  0  0  0  0  0  0  0  0  0
    8.1395    0.3853  -16.7454 H   0  0  0  0  0  0  0  0  0  0  0  0
    6.5123    0.7010  -16.0532 H   0  0  0  0  0  0  0  0  0  0  0  0
    6.7267   -0.5769  -17.2973 H   0  0  0  0  0  0  0  0  0  0  0  0
    6.9208   10.5438  -22.6556 H   0  0  0  0  0  0  0  0  0  0  0  0
    7.5780   10.8473  -21.0118 H   0  0  0  0  0  0  0  0  0  0  0  0
    8.2251    9.4957  -22.0023 H   0  0  0  0  0  0  0  0  0  0  0  0
    4.6556   10.4624  -21.7813 H   0  0  0  0  0  0  0  0  0  0  0  0
    4.1903    9.3331  -20.4643 H   0  0  0  0  0  0  0  0  0  0  0  0
    5.2375   10.7478  -20.1061 H   0  0  0  0  0  0  0  0  0  0  0  0
    5.5402    8.5150  -23.1080 H   0  0  0  0  0  0  0  0  0  0  0  0
    6.7975    7.4368  -22.4131 H   0  0  0  0  0  0  0  0  0  0  0  0
    5.1163    7.3784  -21.7833 H   0  0  0  0  0  0  0  0  0  0  0  0
    4.1485    2.5035  -21.4581 H   0  0  0  0  0  0  0  0  0  0  0  0
    3.3442    1.5228  -20.1861 H   0  0  0  0  0  0  0  0  0  0  0  0
    5.2777    3.8816  -17.0550 H   0  0  0  0  0  0  0  0  0  0  0  0
    6.0342    4.7995  -18.4010 H   0  0  0  0  0  0  0  0  0  0  0  0
    5.9884    3.0597  -19.9572 H   0  0  0  0  0  0  0  0  0  0  0  0
    3.3560    3.3206  -18.4210 H   0  0  0  0  0  0  0  0  0  0  0  0
    7.1003    6.7401  -14.0310 H   0  0  0  0  0  0  0  0  0  0  0  0
    4.7478    1.2635  -17.8903 H   0  0  0  0  0  0  0  0  0  0  0  0
    3.5985    5.4377  -16.9302 H   0  0  0  0  0  0  0  0  0  0  0  0
    3.9936    6.1595  -18.3407 H   0  0  0  0  0  0  0  0  0  0  0  0
    3.2936    4.1439  -20.6105 H   0  0  0  0  0  0  0  0  0  0  0  0
  1  2  2  0
  1  3  1  0
  2  8  1  0
  3  9  2  0
  4  8  2  0
  4  9  1  0
  5 10  2  0
  5 11  1  0
  6 10  1  0
  6 12  2  0
  7 11  2  0
  7 12  1  0
  8 18  1  0
  9 27  1  0
 10 23  1  0
 11 34  1  0
 12 35  1  0
 13 15  1  0
 13 28  1  0
 13 31  2  0
 14 19  1  0
 14 29  1  0
 14 32  2  0
 15 16  1  0
 16 18  1  0
 17 18  1  0
 17 28  1  0
 18 30  1  6
 20 27  1  0
 21 27  1  0
 22 27  1  0
 23 25  1  0
 24 26  1  0
 24 30  1  0
 25 26  1  0
 25 29  1  0
 26 33  1  0
  1 36  1  0
  2 37  1  0
  3 38  1  0
  4 39  1  0
  5 40  1  0
  6 41  1  0
  7 42  1  0
 15 43  1  0
 15 44  1  0
 16 45  1  0
 16 46  1  0
 17 47  1  0
 17 48  1  0
 19 49  1  0
 19 50  1  0
 19 51  1  0
 20 52  1  0
 20 53  1  0
 20 54  1  0
 21 55  1  0
 21 56  1  0
 21 57  1  0
 22 58  1  0
 22 59  1  0
 22 60  1  0
 23 61  1  0
 23 62  1  0
 24 63  1  0
 24 64  1  0
 25 65  1  6
 26 66  1  1
 28 67  1  0
 29 68  1  0
 30 69  1  0
 30 70  1  0
 33 71  1  0
M  CHG  1  30   1
M  END
>  <OMEGA_C>  (50) 
pTUJQYur8kCylJPBY4v0QFlM40AxHIzBiEUCQYa2A0F17pzBa5W6QHzl+0Bal5fB377MQEaJTj+j
nazBLpyTQD+KJr/IHKbBCNXVQOyazr+5/azBvxjIQCPI50AdDY7B80nYQDa3BkGK557B5aGjQHR6
JD9UHajBgfDlQI9fpL7/9q7Bop2sQF6D478emajBF5CzQMFpAkFZNWXBH1zZQIlTuD+bfJDBareb
QLx4DUEvi3fBBe+FQBNs+UA/2ILBbwe4QAGqv0BzTHjBu8WlQPH21UADWYbBpPjhQHID1T6Is4fB
6lHqQPggIUHq+q3Bq7+fQJ+mH0FT0qbBctu8QBOLAEF6f7HB/QyKQGi97D+wtqTBHpOiQLBwkEBn
d4/BLr2iQAH4J0CwB5zB12CHQOXmb0B8dpfBjyjIQAjgEUH2JqnBLJLIQEtu3kB2sWjBIDGvQN8l
2z8CSJPBsWKLQP3atkDXLIzB4RW5QLrpC0FSVVTBzEv3QK9hBEBiXJTB68x0QKf2k0Ci45/BCdsG
QcLsJb42B7PBbDqdQHcLQcDhoabByR0aQcaC7kD4IJLBI4D/QG0C1ECe3ITB5OENQbdwCUFop6LB
0suYQOPr/UD5VZnB8NTYQCIa5j/FQK7ByFJoQFSkRr9ArKLBBxXpQMXBHsCE2K7Bkl2DQMxNGEGc
5XDBZJeyQEK5FkFDmoDBhh1XQLSj6kCWrXzBsTVyQAuiBEHDBIrBNlieQGHsrEAfv3DBayrSQHUi
qkDUGn3BWzsCQZlKxT6J9oXBC2XQQKx0Mz/5bIDBRUHXQJ6tE7/fYIrBHXfdQE2zKEHAPrXBQn/y
QLKOLUEjGKjB95kDQZDuF0HFBLDBBfuUQPFlJ0EbQK7B0xaGQDJUFUHvtqPB3pmnQCf3K0FL2aDB
80ixQFQ9CEE+3bjBO4XZQOT57UAbTrPBaLijQH0b7EBIRK7Bz8CEQE05IEAeqqvBrAZWQFvqwj8v
faHB4+KoQOtreECWcIjBDxjBQLaVmUA+NZPByKC/QEPSQ0BJqJ/B3chWQC2EVEAcXpPBCzbjQH6u
10ATf2DByu2XQJe6oT9GH4/Bik5mQEcBrkAacYfBdJZ/QJcaxUDbuZLBccpSQOuahEA44qTBrT0J
QfPm8kB6ZpPBzID0QOaA40BJ9YvBkF4CQWfTA0GjxJzBMrm6QOj0+0DPgpfBwAyTQM6pJ791C6bB
ijvMQKm3TT9pgKzBZGLVQMjtzr9y36zBmxfIQPbn50Bv843BpILYQF/DBkGezJ7BoBejQJxkIz/A
A6jB6RCsQLX1478Ti6jBkn7lQAaJpb6F067BwGSyQI+WAkHVMWXBLdPZQI8JuT8PqZDBeOOaQPJ7
DUGZuHfBdHWFQD8k+UDZ44LB27a3QKbNv0AtHHjB8KelQO3q1UAtTobBYuLiQB7e3z6OyofBfNK+
QNg6AEGMhbHBMyXqQLt1IUFgya3BBSufQMvlHkGgAKfBR4GJQHkK7D/YmaTB99GiQByRkECof4/B
QZOiQG0bKEB/CJzBNWiHQPYgcEC+cpfBl4bIQEm1EUHtH6nBTp/HQGHH3kBEaWjBX4GvQD5V3D8k
SJPBD4GLQH/KtkB0LIzBobK2QI0JDEEnNFTB8Iz3QGKbBEChp5TBnal0QBwBlECn4Z/BY4KcQLhL
QcCHsKbBLKkGQVMmJ77y2bLBQiMaQZbF7kAX6pHBBFv/QIRC1EC0sYTBEQYOQSiZCUH+dKLBd/aY
QGXo/UD7SpnBdyhnQJH/R7/CnqLBE0jYQKq55T9oJa7BPrXoQAvjHsC3sa7BnGKCQPJbGEGcSXHB
n+qxQPGpFkErroDBck9WQNM+6kA2w3zBaipxQCVZBEEcGYrB7xCeQJPNrEDBsHDBtivSQJ+KqkBK
xnzB37cCQYpL1D7YHobBmX/RQHkmOz9wgoDB+z3YQHK+D79cWIrBhmCzQHHEB0Hz8LjBZiPcQBMp
7kCnMbPBTgumQAjI6kBmaK7BPmndQIHaKEFHHLXBSCXxQAX+LUFw3KfBxtkDQcOwGEE+sK/Bz5CU
QIR9JkFkfK7B8tyFQCo2FEEpBqTBgtOlQERRK0Fc/qDBTcmDQO+CH0CikKvBF1ZVQNcTwj/PQ6HB
g2+pQNOseEBQfYjBBS/BQAXdmUCvS5PB+UO/QKPYQ0BhxZ/BlvFWQHfvVEDAT5PBUPrhQHgq2EDj
9V/Bq3mYQAXwoz81/Y7BcpBmQLy/rUCxdYfBssd/QDUaxUCitpLBvWNSQKyfhEDq16TB31EJQZZH
9EA6dJPB2tD0QAxC5EDCDIzB/1gCQQN5BEE40ZzBgs66QHL2+0DnoZfBWJ+TQISOJL8oMabBU7XM
QNRyUj/dm6zBYQ/WQKR2zL/cBK3BclzIQNwT6ED4D47BX2TYQL74BkEf6J7BKpGjQI7lJj+dI6jB
BcOsQNUP4r9Or6jBKQ3mQBiomr6G9a7BxWSyQEKhAkEASmXB58rYQOfYvD9/ApDBUhCbQMaDDUE9
3nfBIMaFQEEt+UBH+oLBdDm4QE33v0DxQXjBlg+mQGEC1kC4YYbB8kDhQGC8vj6O2IfBlobqQHUw
IEFeiq7BTfGgQOeMIEGMs6bBlR+6QL1sAEEtOrHBRO6JQLdU7T+LsKTBNSqjQOSGkEC/gY/BDr+i
QKvGJ0Cd/ZvBk6iHQE4BcEDIbZfBTu7HQNfoEUGJManBA8/HQAH23kDLfGjBgdyuQNwt2j/dPZPB
beSLQOPMtkD4NYzB3I62QGIYDEFJTFTBiRX3QNcJAkAJYpTBjBF1QJDmk0Cs3Z/BY2WdQIVsQMAT
yKbB/uwGQYJODL7T/LLB7zwaQVux8EDp8JHBmtL/QO381EDJzYTBcPINQfWLCkGcdKLBXwmZQMp0
/UBJbpnBlEFoQPi5Rb/wyaLByLLYQGlJ6D+KOK7B7nTpQAGGHcCX2q7BIoCCQJ1kGEFcf3HBDS2y
QFGwFkE2u4DBN+tWQBk56kA3+HzBtNxxQERcBEHbMIrBALSeQPC1rECq5HDBVuHSQOXzqkCB63zB
CPsBQXj6ZD5z/YbBAZDTQN5gKT9lE4DB6lPSQLkjEL99lYrBkD3dQK2UJ0GvzbXB7Hn0QBvJLEGi
66jBNTADQQhRFkH8rrDBmMaVQLIoKEEXIa7BD/SGQPnfFkFfQ6PBaoSqQDb5LEEc8qDBOlCuQPT/
B0HymbjBuLTVQFZW7EBvH7PBT4agQDxP7UC3rK3Bp4yEQCrQIEDTm6vBgt1VQJgcwz8XdqHBNMip
QAK+eEALfIjBaobBQIa8mUCVUZPB7ci/QB4tQ0DgmJ/BX3lXQPn7VEDMRJPBmxjiQIlt2EDz91/B
pXmXQOX7mz8XaI/B4WFnQAXWrUAfe4fB6D+AQK8DxUC7wpLBPKxSQGCBhEDOz6TB7DYJQfsr80D8
cJPBSnr0QHNR40AVDozBVFMCQb8QBEEsxZzBeJ66QMzb+0BNk5fBcGvMQCtnTj+vl6zBvkiTQHvb
Jr+BGabB06DVQFSSzr+Z6azBuArIQPOb50BRCo7BuGjYQPvhBkHt0p7B5UejQBgKJD/QG6jB8rPl
QB4vpL6r5a7BP1SsQBSQ47+ykajByKm0QFncAkEgumXB9ErZQDk9wj+vA5DB+4mbQGptDUEX8XfB
Ia+FQCPK+EAv24LB6Oe3QPiNv0B1PXjBS7ClQJaU1UACW4bBLF3iQNzJ4j7Kp4fBmay+QDOqAEFg
lLHBeU7qQBW8IUF9t63BZ0ifQHM8H0Fs8qbBza+JQIZE7D/ZtaTBeLmiQPhPkEDyi4/BCZiiQOu3
J0CRE5zBsFiHQDOob0DGfpfBp4PIQEn+EUFXHanB+rXIQI6i3kAa1mjBRUOvQCDt2j9uU5PBu2KL
QJ9wtkACLIzBOC69QCpNDUFWvlXBBEn3QDtGBUB9cpTBAnF0QFzPk0Dc6Z/BYsMGQVt+JL6k7LLB
7N6cQAMQQcCDpKbB7h0aQdM570Cm8JHB3V7/QO3K00AM1YTB9vgNQUAECkGpaqLBjNyYQPOz/UA+
XpnBE3PYQP4N5j/xP67BVqZnQO4NR7/KqqLBT/foQFa3HsB9uK7BgxmDQAkcGEGOInHBoKKxQIvH
FkER+oDBw3hXQOTy6UA4a3zB6ohwQI0RBEHCB4rBmSeeQGohrUAhjXDBbuPRQLHEqUAZ93zBP5MC
QW/loz6wvIbBx1PUQN1JPj8i53/BTyXUQGZ8Ar9/P4rBx0uzQBdXCEFe+LjBrerbQKD27kA/SbPB
Rs6lQCOo60A6gq7BqqrdQCBCKUGGBLXBO2fxQEQrLkE0v6fBveQDQTbsGEF7pK/BSryUQMfyJkGZ
Z67BeeSFQGeQFEFrAKTB/QymQDKQK0Hv5aDB3zmEQLfiH0C3qavBnXNVQIVrwj/qcKHBj3SpQG4F
eEC4jojBgAfBQCG7mUCoWpPBfma/QI2DQ0BYwJ/BOd5WQF9aVEA8XJPBDAXjQMuO10CLcWDBuTWY
QDrVmT+ZjY/BOrFmQHxSrUCyaIfB+wd/QGC9xEA6r5LB2S9SQJxxhEBY4aTB

>  <OMEGA_E>  (50) 
QOZLPrAWTD4gjkw+cDtNPg==

>  <OMEGA_NBR>  (50) 
    176377

$$$$
50212933
     RDKit          3D

 71 73  0  0  1  0  0  0  0  0999 V2000
    8.5682    7.6130  -18.4447 C   0  0  0  0  0  0  0  0  0  0  0  0
    7.6418    7.1214  -17.5085 C   0  0  0  0  0  0  0  0  0  0  0  0
    8.1260    8.2596  -19.6122 C   0  0  0  0  0  0  0  0  0  0  0  0
    5.8206    7.8696  -18.9411 C   0  0  0  0  0  0  0  0  0  0  0  0
    4.5800   -0.6562  -20.7269 C   0  0  0  0  0  0  0  0  0  0  0  0
    6.3513    0.7966  -21.5782 C   0  0  0  0  0  0  0  0  0  0  0  0
    6.6405   -1.6231  -21.6033 C   0  0  0  0  0  0  0  0  0  0  0  0
    6.2505    7.2435  -17.7489 C   0  0  0  0  0  0  0  0  0  0  0  0
    6.7405    8.4282  -19.8585 C   0  0  0  0  0  0  0  0  0  0  0  0
    5.0752    0.6343  -20.9966 C   0  0  0  0  0  0  0  0  0  0  0  0
    5.3589   -1.7840  -21.0384 C   0  0  0  0  0  0  0  0  0  0  0  0
    7.1378   -0.3315  -21.8690 C   0  0  0  0  0  0  0  0  0  0  0  0
    6.2109    6.9658  -14.4564 C   0  0  0  0  0  0  0  0  0  0  0  0
    6.7933    1.4442  -18.0569 C   0  0  0  0  0  0  0  0  0  0  0  0
    5.7544    5.9609  -15.5190 C   0  0  0  0  0  0  0  0  0  0  0  0
    4.1897    7.7752  -16.3328 C   0  0  0  0  0  0  0  0  0  0  0  0
    4.8967    8.8214  -15.4654 C   0  0  0  0  0  0  0  0  0  0  0  0
    5.1815    6.6724  -16.7846 C   0  0  1  0  0  0  0  0  0  0  0  0
    7.0684    0.4350  -16.9459 C   0  0  0  0  0  0  0  0  0  0  0  0
    5.8618    8.0183  -22.1745 C   0  0  0  0  0  0  0  0  0  0  0  0
    7.2789   10.0638  -21.7702 C   0  0  0  0  0  0  0  0  0  0  0  0
    4.9604    9.9697  -20.8481 C   0  0  0  0  0  0  0  0  0  0  0  0
    4.2846    1.8421  -20.5679 C   0  0  0  0  0  0  0  0  0  0  0  0
    5.0937    4.5160  -17.9460 C   0  0  0  0  0  0  0  0  0  0  0  0
    5.0801    2.6193  -19.5030 C   0  0  1  0  0  0  0  0  0  0  0  0
    4.2428    3.7608  -18.9477 C   0  0  2  0  0  0  0  0  0  0  0  0
    6.2233    9.1117  -21.1439 C   0  0  0  0  0  0  0  0  0  0  0  0
    5.5667    8.1870  -14.3275 N   0  0  0  0  0  0  0  0  0  0  0  0
    5.4733    1.7164  -18.4011 N   0  0  0  0  0  0  0  0  0  0  0  0
    4.3620    5.7071  -17.5235 N   0  0  0  0  0  0  0  0  0  0  0  0
    6.9545    6.5898  -13.5609 O   0  0  0  0  0  0  0  0  0  0  0  0
    7.7271    2.0645  -18.5548 O   0  0  0  0  0  0  0  0  0  0  0  0
    3.8689    4.6387  -20.0107 O   0  0  0  0  0  0  0  0  0  0  0  0
    4.8817   -3.0210  -20.7780 F   0  0  0  0  0  0  0  0  0  0  0  0
    8.3744   -0.1737  -22.3917 F   0  0  0  0  0  0  0  0  0  0  0  0
    9.6266    7.4931  -18.2660 H   0  0  0  0  0  0  0  0  0  0  0  0
    7.9917    6.6488  -16.6026 H   0  0  0  0  0  0  0  0  0  0  0  0
    8.8468    8.6303  -20.3259 H   0  0  0  0  0  0  0  0  0  0  0  0
    4.7637    7.9227  -19.1566 H   0  0  0  0  0  0  0  0  0  0  0  0
    3.6038   -0.7791  -20.2815 H   0  0  0  0  0  0  0  0  0  0  0  0
    6.7227    1.7863  -21.7994 H   0  0  0  0  0  0  0  0  0  0  0  0
    7.2418   -2.4904  -21.8326 H   0  0  0  0  0  0  0  0  0  0  0  0
    6.6143    5.3430  -15.8169 H   0  0  0  0  0  0  0  0  0  0  0  0
    4.9727    5.3181  -15.0880 H   0  0  0  0  0  0  0  0  0  0  0  0
    3.3779    7.3138  -15.7513 H   0  0  0  0  0  0  0  0  0  0  0  0
    3.7694    8.2683  -17.2217 H   0  0  0  0  0  0  0  0  0  0  0  0
    5.6442    9.3499  -16.0753 H   0  0  0  0  0  0  0  0  0  0  0  0
    4.1537    9.5411  -15.0910 H   0  0  0  0  0  0  0  0  0  0  0  0
    8.1476    0.4065  -16.7347 H   0  0  0  0  0  0  0  0  0  0  0  0
    6.5249    0.7330  -16.0372 H   0  0  0  0  0  0  0  0  0  0  0  0
    6.7308   -0.5622  -17.2647 H   0  0  0  0  0  0  0  0  0  0  0  0
    5.4915    8.4905  -23.0963 H   0  0  0  0  0  0  0  0  0  0  0  0
    6.7562    7.4200  -22.4029 H   0  0  0  0  0  0  0  0  0  0  0  0
    5.0807    7.3656  -21.7576 H   0  0  0  0  0  0  0  0  0  0  0  0
    6.8647   10.5243  -22.6792 H   0  0  0  0  0  0  0  0  0  0  0  0
    7.5383   10.8504  -21.0463 H   0  0  0  0  0  0  0  0  0  0  0  0
    8.1818    9.4909  -22.0283 H   0  0  0  0  0  0  0  0  0  0  0  0
    4.6130   10.4444  -21.7776 H   0  0  0  0  0  0  0  0  0  0  0  0
    4.1649    9.3248  -20.4464 H   0  0  0  0  0  0  0  0  0  0  0  0
    5.2097   10.7469  -20.1106 H   0  0  0  0  0  0  0  0  0  0  0  0
    4.1040    2.4908  -21.4377 H   0  0  0  0  0  0  0  0  0  0  0  0
    3.3218    1.5198  -20.1446 H   0  0  0  0  0  0  0  0  0  0  0  0
    5.2969    3.8764  -17.0745 H   0  0  0  0  0  0  0  0  0  0  0  0
    6.0445    4.8108  -18.4141 H   0  0  0  0  0  0  0  0  0  0  0  0
    5.9824    3.0366  -19.9739 H   0  0  0  0  0  0  0  0  0  0  0  0
    3.3534    3.3540  -18.4442 H   0  0  0  0  0  0  0  0  0  0  0  0
    5.5594    8.6447  -13.4384 H   0  0  0  0  0  0  0  0  0  0  0  0
    4.7482    1.2754  -17.8722 H   0  0  0  0  0  0  0  0  0  0  0  0
    3.6052    5.4206  -16.9359 H   0  0  0  0  0  0  0  0  0  0  0  0
    3.9987    6.1597  -18.3379 H   0  0  0  0  0  0  0  0  0  0  0  0
    3.3355    4.1665  -20.6392 H   0  0  0  0  0  0  0  0  0  0  0  0
  1  2  2  0
  1  3  1  0
  2  8  1  0
  3  9  2  0
  4  8  2  0
  4  9  1  0
  5 10  2  0
  5 11  1  0
  6 10  1  0
  6 12  2  0
  7 11  2  0
  7 12  1  0
  8 18  1  0
  9 27  1  0
 10 23  1  0
 11 34  1  0
 12 35  1  0
 13 15  1  0
 13 28  1  0
 13 31  2  0
 14 19  1  0
 14 29  1  0
 14 32  2  0
 15 18  1  0
 16 17  1  0
 16 18  1  0
 17 28  1  0
 18 30  1  6
 20 27  1  0
 21 27  1  0
 22 27  1  0
 23 25  1  0
 24 26  1  0
 24 30  1  0
 25 26  1  0
 25 29  1  0
 26 33  1  0
  1 36  1  0
  2 37  1  0
  3 38  1  0
  4 39  1  0
  5 40  1  0
  6 41  1  0
  7 42  1  0
 15 43  1  0
 15 44  1  0
 16 45  1  0
 16 46  1  0
 17 47  1  0
 17 48  1  0
 19 49  1  0
 19 50  1  0
 19 51  1  0
 20 52  1  0
 20 53  1  0
 20 54  1  0
 21 55  1  0
 21 56  1  0
 21 57  1  0
 22 58  1  0
 22 59  1  0
 22 60  1  0
 23 61  1  0
 23 62  1  0
 24 63  1  0
 24 64  1  0
 25 65  1  6
 26 66  1  1
 28 67  1  0
 29 68  1  0
 30 69  1  0
 30 70  1  0
 33 71  1  0
M  CHG  1  30   1
M  END
>  <OMEGA_C>  (51) 
fBcJQYqd80DMjpPBWIn0QDvi40BlEYzBDAQCQXQnBEG/5ZzBf0K6QBHU+0Beh5fBMo+SQPL/J7+d
0KXB3T3LQCfvSz8noKzBM3/UQIvAz79506zBRwTIQAHL50C6/Y3BibLXQODZBkFF3p7B/2eiQFxh
Ij8a+afB+XurQOhY5L+2TqjBImnkQDG0qb6e867BEsDGQHbn3kB5TWfB5mLZQIvcuD+PdJDBtyO4
QMW/vkC3TXjB4BGGQJnO+ECFqYLBYrGcQJUkDUFXcnfBEM+lQAiE1UDoRobBiDDiQOy63j42kYfB
PJS7QNRKAEFLZbHBG+3oQEEFIUFHKa7BVbueQAmEH0HryKbBjBuJQEjL6z/1iqTBy/+iQAODkEB0
kY/BL5CiQFujJ0AzBpzB8sSHQJixcEDUlJfBDSXHQKfJEUG3JqnBzyKyQAT+AkGXPWXBbSWvQH6y
2z96NZPBLpWLQKegtkAgMIzBioveQMLf0kCX+VjBv0T3QGchBEAkcJTBi5x3QERwlEDdFaDByDac
QHRXQcBLOabBqv0FQXLaMb47IrPBbwYaQZ3H70CxIJLBy7v/QOzC1EAh0oTBYYwNQegVCkGCm6LB
B3CYQBGH/UDGQJnBQaRmQGRzR7+NQKLBqiDXQN+l5D85Za7B5rznQNFiH8ASqa7B8afTQNH5qkAW
En3BZSCfQJ0tqkBMaHHBNzBYQIgK6kApBXzBRD5xQBBLBEEWxonB8Zy0QFyZFUEjmoDBceuEQD6o
GEGzdHHBg1wCQdEc0D654IXBwsvQQJ+mOz8tTIDBz2LXQG/qD78ZHorBArqvQD3ZB0E1xbjBlDLY
QFJw7UA5ObPBAJWiQKuy60CUD67BmavbQGpjKEH9brXBhDnxQFKbLUHYXqjBwOgCQcDaF0HhObDB
np2TQGEcJ0GQOK7BF0eFQGoyFUFIkqPBDbamQETzK0GZ4qDB81ODQIFpH0BegKvBpphUQCqJwj8s
KKHBZICpQHgWeECGmIjBlWzBQHLymUAKUJPBOXC/QHBXQkBzyp/BIp5WQDynVkDSjZPBA+exQIZQ
CkHQA1fBkPGXQPM/oz80+o7BDbxmQLN1rUC3fIfBN+t/QDccxUAAtJLBJHlVQPpThUACHaXBDjMJ
QUAO9EC2gpPBKbb0QIUx5EAFDozBmycCQUFiBEGZ2JzBt3a6QG8w/EDshpfBEh6TQD1gKr+7y6XB
/qzLQONZSz9MkqzBTCnVQF3sz79b0azBcDHIQBAL6EC5/o3BEPzXQFUJB0GI2Z7B49KiQK+UID/O
76fBZS2sQBwp5b9CS6jB1fTkQO5Lqb6R6q7BhzPHQCPy3kBYXGfBoRLZQC3JwD+H/Y/B3n24QEDI
vkDTXHjBOESGQLbB+EAvoYLB8vGcQIgmDUGPb3fBUwemQLSU1UAlSobBm9vhQKSY0z5pw4fBjS7q
QKBpIEEiaK7BHZ2gQKO9IEFdlqbB0sC5QMmxAEFANLHBVUiJQCig6j9wi6TBvI6jQHUgkUDy1I/B
aZyiQO2sJ0C5D5zB+s2HQPy/cEBxn5fB/4fHQDAVEkGCHKnB46eyQH4IA0HkSWXBqwyvQCyD3D+m
NJPBhNCLQGKptkCSNIzBfAHfQKXm0kDjCVnBBTP3QKD9A0Chb5TBtKN1QCD0k0DJIaDBrQydQDvg
QcD4N6bBP0MGQQOIK75bFrPBDiEaQY9N8EBVDpLBJN//QA4A1UA30ITBCbUNQfBcCkGViKLBQ6aY
QFD2/UCdQZnBb8JnQDPaSr/aPaLBcX3XQNiP5D9GUK7BN3joQFxTH8BAra7Bs/zTQNgGq0CiLX3B
M4efQP0wqkDFb3HBJ+FYQGPn6UDg4nvBwjlxQHRABEGiuInBWbS0QEClFUH4oIDBtyqFQHOgGEGZ
YHHBRk0CQVV1ij5m8IbBM0XUQC9hNT8+/n/BIAbTQEsBB7+fa4rBqvLcQPTjJ0FJp7XBSB70QB7x
LEFyv6jB9wMDQeWNFkFakbDBHniVQJZrKEHF/63BxJaGQIQQF0GjKqPBFz+qQJYbLUHCzqDBJvWt
QGFcCEFXjrjB51jVQA3v7ECnILPBxyagQFbA7UDLr63BplqDQL5+HkC+hqvBSRhVQIfewD/2I6HB
vISrQKJ7eUB48IjBXzTBQMJNm0D+1ZPB1IK/QORIQkCV05/BrapXQLKeVkAwZZPBHamyQBxmCkG7
FVfBSs+XQLbknj+cR4/BpyZoQNbYrEBPb4fBlQh/QLdcxUCYnJLBbttSQKp2hEBFBKXB50QJQbsE
9ECEgpPBw8T0QMBH5ECVDYzBAUYCQZhHBEFz4ZzBrqm6QPsF/ECUmJfB4RnMQCwjUT+Gr6zBdWaT
QBP1JL/LAKbB15PVQNoUzb8186zBtkXIQPEJ6EC3CI7B5T7YQKTvBkGy6J7BBCmjQI8TJj9yGqjB
b2zlQOy4nb43A6/BHX2sQOFm4r/dfKjBA3bGQDdE30DCUmfBEjzZQDBJtz89dJDBgzi4QAkNv0Af
YHjB6AqGQKbh+EBBxYLBFmGcQIY8DUGSoHfBbfylQFO11UAbV4bBM87hQDqK1D6/m4fBziDqQBXl
IEEkPK7B3eWfQNTtH0F406bBU+K7QOd8AEGPbbHBmqiJQOsb7T+uqKTBMjKjQB2PkEC+lI/BurKi
QCm/J0ApA5zBvaiHQFAKcEATd5fBye3HQDztEUHkMqnBnbGxQN0kA0EkWmXBZxSvQN+m2j/oP5PB
gNSLQB3AtkBQPozBuOvdQLNB00CK2ljB5jv3QFRYA0AeYZTBhxx1QILok0Cj55/BaYkGQWJFFL7H
IrPB70udQJaBQMBzcqbB+zAaQQlN8EAsB5LBwdr/QA1C1UBDyITBhdoNQaEvCkG0kqLBEN+YQIOz
/UDVW5nBYvPXQLh+5z+xZq7BsS5oQN2PRb9PfaLBiu3oQDbjHcAcyq7BK+fTQOlvq0AYEX3BXD+f
QJNVqkCCjXHB+hNYQDYG6kD3SnzBGlVxQFNKBEHS5onB7le0QMq5FUEWqoDBdHSEQJu2GEExt3HB
yCcCQbx9wz6m44XBN1bQQCuTNT8IV4DBAvDWQGs6FL+kN4rB6g7dQE5SKEFog7XBGs7yQMhyLUEM
dqjB1V8DQYmDF0F3S7DBiOuUQLqQJ0GyQ67BwzOGQJ/KFUGxlqPBf0CoQK5VLEGR8aDBazKwQL8Z
CEH7zbjBWT/YQIV07UCxQbPBeKKiQLdt7ECJFK7BEy2EQMaMIEBklqvB/GlVQKxBwz9mYqHBAwaq
QCbIeEDVkojBoHLBQOzlmUBMbZPBSqO/QKUZQ0BzrJ/B9XhXQMolVUDuSpPBVUKxQMZ8CkF0I1fB
NsaXQPujoT9dFY/BDxxnQJyrrUAejYfBtEqAQDUpxUAox5LB9JxSQA2HhECi16TBpHMJQUCf80Ah
YZPBBO70QNkH5EB59IvB+ZQCQSckBEH4wZzB+SG7QOUf/EDJi5fB5ELMQOL5Tz9+mKzBYmCTQPnX
Jr8SDabB5Y/VQCyzzb95A63BhHvIQKAP6EAM+o3BZevYQB/oBkH+057BzkOjQEJnJD+YCqjByIfl
QLjIn74M+67B7WGsQCg247+fm6jBKmvGQAQg30DvVmfBucPZQBa3uj8BdpDBKvm3QNf7vkA3YXjB
mRmGQP8H+UC4xoLBQH+cQKNCDUFimHfBZvelQNLI1UCUV4bB4KviQDqO5j66k4fBycu8QPloAEHs
W7HBuC7rQKXBIEFDLa7BwtugQHbyH0G30abBXaKJQNPt6z+ul6TBYYyjQFMykUAs0o/B+bqiQGHg
J0CdB5zBWpSHQHXrb0AtdZfBGtbIQO/fEUGyJKnBL9CxQHAdA0FpWGXBHoSvQGTc2z8mQpPBlNyL
QFXotkBMSozBHODdQIYA00CC5FjBuYb3QP+eBUALaZTBgZNyQCtFk0D945/B3pkGQaexF75GF7PB
/+6cQF74QMAHvKbBDloaQU+z70Ad3pHBNdH/QM3p1ECDrYTBWTwOQU0CCkEjbKLBvWCZQCf+/UAk
V5nByS/YQBsH5z+JPq7BXQxoQGnWR7+0kKLBhOPoQH8qHsAD4q7BGYPTQPImq0CYDX3Bx9OeQJd3
qkCJkHHBfAlYQJo66kBRVnzB/qRxQF9nBEGD6InB0ni0QIXCFUEBpIDB6JqEQIC8GEE5pnHBM5cC
Qa023D7A2YXBgBPRQPQYPj+lUoDBMSvYQCORDL+SJorB8USxQC0ACEHUwbjB0h7ZQBIv7UDSJbPB
pG2jQEFl7EA1Ba7BZz3eQKcpKEF9ebXB6+DzQCRULUE+aqjBy+EDQTdRF0EyNLDBKwiWQFOSJ0FD
Rq7BNA6HQH/cFUFBmKPBpzSpQM9cLEH68KDB+MyDQBmYH0ChiavBL7VVQAaHwT/XPqHBQMOrQNV6
ekBz3ojBpQzBQIkrm0Bb7JPBV3m/QBl/Q0B3wZ/B4YFYQIm0VEB5E5PBUX+xQIh0CkEZIVfBEWeY
QAbHoT9PFY/Bn8RnQFNJrUDjkYfBCsp/QOSQxUDYvZLBuYRPQD1wg0DOrKTB

>  <OMEGA_E>  (51) 
OJdMPiBwTT6wAE4+UGdRPg==

>  <OMEGA_NBR>  (51) 
    181160

$$$$
50212938
     RDKit          3D

 74 76  0  0  1  0  0  0  0  0999 V2000
    8.6087    7.6351  -18.4110 C   0  0  0  0  0  0  0  0  0  0  0  0
    7.6669    7.1021  -17.5132 C   0  0  0  0  0  0  0  0  0  0  0  0
    8.1822    8.3310  -19.5570 C   0  0  0  0  0  0  0  0  0  0  0  0
    5.8698    7.9110  -18.9396 C   0  0  0  0  0  0  0  0  0  0  0  0
    6.3146    0.7834  -21.5673 C   0  0  0  0  0  0  0  0  0  0  0  0
    4.5866   -0.6924  -20.6667 C   0  0  0  0  0  0  0  0  0  0  0  0
    6.6509   -1.6291  -21.5654 C   0  0  0  0  0  0  0  0  0  0  0  0
    6.2798    7.2512  -17.7671 C   0  0  0  0  0  0  0  0  0  0  0  0
    6.7988    8.4981  -19.8193 C   0  0  0  0  0  0  0  0  0  0  0  0
    5.0521    0.6021  -20.9635 C   0  0  0  0  0  0  0  0  0  0  0  0
    7.1190   -0.3312  -21.8544 C   0  0  0  0  0  0  0  0  0  0  0  0
    5.3820   -1.8079  -20.9763 C   0  0  0  0  0  0  0  0  0  0  0  0
    6.8309    1.4764  -18.0447 C   0  0  0  0  0  0  0  0  0  0  0  0
    4.9194    8.7596  -15.4273 C   0  0  0  0  0  0  0  0  0  0  0  0
    4.2179    7.8059  -16.3901 C   0  0  0  0  0  0  0  0  0  0  0  0
    5.7576    5.9470  -15.6024 C   0  0  0  0  0  0  0  0  0  0  0  0
    5.4262    7.9456  -14.2323 C   0  0  2  0  0  0  0  0  0  0  0  0
    5.1885    6.6829  -16.8406 C   0  0  2  0  0  0  0  0  0  0  0  0
    7.1477    0.5146  -16.9017 C   0  0  0  0  0  0  0  0  0  0  0  0
    7.3509   10.1166  -21.7329 C   0  0  0  0  0  0  0  0  0  0  0  0
    5.0505   10.0995  -20.7529 C   0  0  0  0  0  0  0  0  0  0  0  0
    5.8576    8.1206  -22.1053 C   0  0  0  0  0  0  0  0  0  0  0  0
    4.2522    1.7963  -20.5294 C   0  0  0  0  0  0  0  0  0  0  0  0
    5.0700    4.4968  -17.9506 C   0  0  0  0  0  0  0  0  0  0  0  0
    5.0614    2.5853  -19.4891 C   0  0  1  0  0  0  0  0  0  0  0  0
    4.2124    3.7175  -18.9256 C   0  0  2  0  0  0  0  0  0  0  0  0
    6.2790    9.2028  -21.0851 C   0  0  0  0  0  0  0  0  0  0  0  0
    5.4992    1.6911  -18.3917 N   0  0  0  0  0  0  0  0  0  0  0  0
    6.1258    8.8308  -13.3093 N   0  0  0  0  0  0  0  0  0  0  0  0
    4.3682    5.7296  -17.5896 N   0  0  0  0  0  0  0  0  0  0  0  0
    6.3637    6.8941  -14.6689 N   0  0  0  0  0  0  0  0  0  0  0  0
    6.4490    8.2662  -12.2582 O   0  0  0  0  0  0  0  0  0  0  0  0
    7.7411    2.1096  -18.5693 O   0  0  0  0  0  0  0  0  0  0  0  0
    3.7898    4.5747  -19.9885 O   0  0  0  0  0  0  0  0  0  0  0  0
    8.3454   -0.1525  -22.3938 F   0  0  0  0  0  0  0  0  0  0  0  0
    4.9328   -3.0495  -20.6903 F   0  0  0  0  0  0  0  0  0  0  0  0
    9.6642    7.5097  -18.2200 H   0  0  0  0  0  0  0  0  0  0  0  0
    8.0004    6.5786  -16.6294 H   0  0  0  0  0  0  0  0  0  0  0  0
    8.9120    8.7398  -20.2401 H   0  0  0  0  0  0  0  0  0  0  0  0
    4.8164    7.9685  -19.1707 H   0  0  0  0  0  0  0  0  0  0  0  0
    6.6615    1.7774  -21.8082 H   0  0  0  0  0  0  0  0  0  0  0  0
    3.6209   -0.8277  -20.2023 H   0  0  0  0  0  0  0  0  0  0  0  0
    7.2645   -2.4875  -21.7954 H   0  0  0  0  0  0  0  0  0  0  0  0
    5.7669    9.2440  -15.9343 H   0  0  0  0  0  0  0  0  0  0  0  0
    4.2115    9.5273  -15.0816 H   0  0  0  0  0  0  0  0  0  0  0  0
    3.3504    7.3548  -15.8860 H   0  0  0  0  0  0  0  0  0  0  0  0
    3.8779    8.3671  -17.2730 H   0  0  0  0  0  0  0  0  0  0  0  0
    4.9417    5.4119  -15.0944 H   0  0  0  0  0  0  0  0  0  0  0  0
    6.5205    5.2257  -15.9307 H   0  0  0  0  0  0  0  0  0  0  0  0
    4.5651    7.4846  -13.7264 H   0  0  0  0  0  0  0  0  0  0  0  0
    8.2286    0.5294  -16.6982 H   0  0  0  0  0  0  0  0  0  0  0  0
    6.6005    0.8248  -15.9993 H   0  0  0  0  0  0  0  0  0  0  0  0
    6.8418   -0.5036  -17.1841 H   0  0  0  0  0  0  0  0  0  0  0  0
    6.9316   10.5952  -22.6303 H   0  0  0  0  0  0  0  0  0  0  0  0
    7.6560   10.8907  -21.0134 H   0  0  0  0  0  0  0  0  0  0  0  0
    8.2259    9.5125  -22.0146 H   0  0  0  0  0  0  0  0  0  0  0  0
    4.6966   10.5921  -21.6706 H   0  0  0  0  0  0  0  0  0  0  0  0
    4.2444    9.4773  -20.3368 H   0  0  0  0  0  0  0  0  0  0  0  0
    5.3422   10.8626  -20.0164 H   0  0  0  0  0  0  0  0  0  0  0  0
    5.4822    8.6040  -23.0193 H   0  0  0  0  0  0  0  0  0  0  0  0
    6.7259    7.4925  -22.3530 H   0  0  0  0  0  0  0  0  0  0  0  0
    5.0648    7.4949  -21.6695 H   0  0  0  0  0  0  0  0  0  0  0  0
    4.0439    2.4372  -21.3988 H   0  0  0  0  0  0  0  0  0  0  0  0
    3.3032    1.4631  -20.0839 H   0  0  0  0  0  0  0  0  0  0  0  0
    5.2460    3.8931  -17.0480 H   0  0  0  0  0  0  0  0  0  0  0  0
    6.0336    4.7434  -18.4204 H   0  0  0  0  0  0  0  0  0  0  0  0
    5.9447    3.0161  -19.9832 H   0  0  0  0  0  0  0  0  0  0  0  0
    3.3449    3.2958  -18.3968 H   0  0  0  0  0  0  0  0  0  0  0  0
    4.7949    1.2121  -17.8678 H   0  0  0  0  0  0  0  0  0  0  0  0
    6.9528    9.1707  -13.7572 H   0  0  0  0  0  0  0  0  0  0  0  0
    3.5759    5.4881  -17.0294 H   0  0  0  0  0  0  0  0  0  0  0  0
    6.6783    6.3920  -13.8634 H   0  0  0  0  0  0  0  0  0  0  0  0
    7.1451    7.3287  -15.1169 H   0  0  0  0  0  0  0  0  0  0  0  0
    3.2522    4.0828  -20.5980 H   0  0  0  0  0  0  0  0  0  0  0  0
  1  2  2  0
  1  3  1  0
  2  8  1  0
  3  9  2  0
  4  8  2  0
  4  9  1  0
  5 10  2  0
  5 11  1  0
  6 10  1  0
  6 12  2  0
  7 11  2  0
  7 12  1  0
  8 18  1  0
  9 27  1  0
 10 23  1  0
 11 35  1  0
 12 36  1  0
 13 19  1  0
 13 28  1  0
 13 33  2  0
 14 15  1  0
 14 17  1  0
 15 18  1  0
 16 18  1  0
 16 31  1  0
 17 29  1  0
 17 31  1  0
 18 30  1  6
 20 27  1  0
 21 27  1  0
 22 27  1  0
 23 25  1  0
 24 26  1  0
 24 30  1  0
 25 26  1  0
 25 28  1  0
 26 34  1  0
 29 32  1  0
  1 37  1  0
  2 38  1  0
  3 39  1  0
  4 40  1  0
  5 41  1  0
  6 42  1  0
  7 43  1  0
 14 44  1  0
 14 45  1  0
 15 46  1  0
 15 47  1  0
 16 48  1  0
 16 49  1  0
 17 50  1  1
 19 51  1  0
 19 52  1  0
 19 53  1  0
 20 54  1  0
 20 55  1  0
 20 56  1  0
 21 57  1  0
 21 58  1  0
 21 59  1  0
 22 60  1  0
 22 61  1  0
 22 62  1  0
 23 63  1  0
 23 64  1  0
 24 65  1  0
 24 66  1  0
 25 67  1  6
 26 68  1  1
 28 69  1  0
 29 70  1  0
 30 71  1  0
 31 72  1  0
 31 73  1  0
 34 74  1  0
M  CHG  2  31   1  32  -1
M  END
>  <OMEGA_C>  (52) 
GL0JQZ1S9ECuSZPBg1f1QHxE40AWG4zBe+oCQcRLBUHEdJzBJdW7QLgm/UBThJfBQhHKQJ+LSD/g
iazBUcWSQB1BMb9XVaXBzNPUQLaG0L/vhazB6vPIQDkK6ED/Io7Byo/ZQDf4B0H1jZ7BxKqhQFUk
Gj89tafBHs/jQHSWqb7L1a7BOTmsQDVo5793z6fB0JbaQJn7vD+cW5DBsWudQF4nDEEV1nbBpfiG
QPLJ+UDqHoPBAz64QIJNvkCNo3nBZKOtQHhC/kCat2PB/gemQCHa1UCWuYbB6rnkQCi7Az+2NofB
WTrrQMXdIUEJ3a3Bh52hQGSXIUEJBqbBWHG7QCvuAUGm17DBthGIQE/t5T8/PKTBmj2iQG3lj0Dk
mo/B2fahQFp1JUC56ZvB2cuGQFzrbUCWZ5fBle3IQIs+E0FRrqjBfvmvQFx22D9CIpPBUAbEQOhK
DUEY81TBfsiLQMFYt0CTt4zBuaPLQNec3EDWs2rBO17OQERCBEG6IUTBOLf3QP4CB0DZjZTBBYxy
QBZkkkB36J/B7oYFQYwxHL6EJrPBStmdQIQrQ8DAhaXBpqAaQYhP8ECAwpHBgAEAQeKD0kAACYXB
tJcOQVbWC0HQ66HBnx+aQE3+/kCoXZnBuCrVQNmB4z8pd67BV71nQFbiU79fnqHBHXfoQOAzH8Dr
XK7Bkoq4QHjnE0HV8n7BlcSGQPNvGEE9TnHBvG1WQLda60DzLH7BPi94QKnfBUEML4rBliKeQFIu
rUCdgnHBLajQQFg5p0AO5H7BYhWSQOiB70Aln1vBX6gDQXWIBz/1lYXBjzfTQI8nUz8d/X/BRvDa
QG/tAL/2eInB9s/dQPiFKUHJCrXB7f30QDNALkFdG6jBQJ0DQTAzGEHwHbDBzkqWQEF5KUFmXa3B
U9KHQBWjF0GwsaLB9/KqQC3NLUGDIaDBOm6vQBiqCUGQJ7jBvjrXQCvC70D80rLBkxKiQJvW70AX
W63B2WeBQA77G0DSMKvBVmhTQNJFuz/Hq6DBJd+nQEMpeUBeYojBNBPBQJPJl0ALXZPBKTu+QDoH
QUCn3Z/BFxNWQPbtUkCPLJPB/G+ZQAImmz808Y7BOX3eQA+7EkFKHVzBD9tkQEOer0A/PIjBV7TV
QPGKzEBg0F3BcaTkQHWE6kDU3nHBJiRQQO2lgkCwyKTB1roJQf5M80DHXpPBW031QIR04kBMKIzB
JOoCQWnjBEEmg5zBJda7QCTh/ECOf5fBcgrKQBAVSD+Le6zBx5uSQBwBMb92TaXBP3fUQGrk0L/A
kazBSuzIQAur50D2Io7BE5DZQFHFB0E1jJ7BGaOhQGojGj/RpqfBHZrjQOlbq74+167BtuGrQAB7
57/s1qfB+X7aQFTNxD+u9o/BKkidQPxDDEGSLHfBtsmGQAKs+UAJL4PBRfu3QAhsvkAQhXnBFpet
QK7y/kDT7WPBJemlQBaz1UBFuIbBP9PkQEXU/z42Y4fBzsO7QLQWAkGp5bDBqQPrQFYqIkG7oq3B
dUChQLtZIUEG5KXBqBGIQMkE5j8TNKTBwC+iQMnIj0BYk4/B+wiiQKmcJUD+65vBgNWGQGz1bUCI
aZfB+d3IQFA9E0EWnKjBoRqwQGKr2D+DKZPBUB3EQE/cDUELclXB27OLQF8tt0D2sozBNnXLQDz6
3EA4tGrBNYTNQAVHBUG8Q0TBc9D3QB/jB0BAgZTBqdZyQMh/kkBr6Z/BMWgFQW0TIr48LrPBskud
QMwtQ8CFn6XBYZ0aQfr37kDx4pHBivL/QMOK0UC/G4XBwJcOQVVYC0FpAKLBYh6aQMXm/kBMU5nB
CEfVQMtD4z+sXK7BNX9nQAkfU7/jj6HB+fjnQPN5H8AWdK7BUly4QPPsE0EGaH/BKKWGQNybGEHm
wnHBxkRWQHlT60CcLH7BwH93QHqnBUErSIrBqsudQIuJrUCqVHHBJlTQQGAqp0Adp37Byw+SQISG
8EAXqlvBi90DQV9Z1z68cYbB6GfWQIyaTj/HfX/BlsXXQOAT9L6VyonBjLavQMT3CUGWKrjBg73X
QHBp8ECU7LLB6oSiQD3D70BRf63BAJ/dQIf4KUHlxrTBUGz0QHRsLkGLxqfBtJ4DQVWxGEFR66/B
9uOVQI9gKUFmMK3BgJaHQIkyF0FWpqLBBEuqQIVxLUHp6J/BmFuBQJTaG0D6K6vBvXRTQEeVuz+w
naDBCa+nQF/OeED8W4jBrhbBQOmul0BMTJPByz++QGg0QUBM5Z/BkgdWQDDlUkC+NpPBTrmZQIRC
lT/XS4/B3gnfQFfGEkGDj1zB9rdkQONvr0DdNojBo17VQLcgzUDOt13BMZLkQPmZ6kD96HHBdolQ
QK3OgkAyz6TB

>  <OMEGA_E>  (52) 
qEmxPuTWsD4=

>  <OMEGA_NBR>  (52) 
    183828

$$$$
50214043
     RDKit          3D

 68 71  0  0  1  0  0  0  0  0999 V2000
    8.6852    7.3730  -18.3151 C   0  0  0  0  0  0  0  0  0  0  0  0
    5.7690    9.5283  -22.9805 C   0  0  0  0  0  0  0  0  0  0  0  0
    8.3387    8.1358  -19.4378 C   0  0  0  0  0  0  0  0  0  0  0  0
    7.6786    6.8719  -17.4707 C   0  0  0  0  0  0  0  0  0  0  0  0
    5.6630    8.6340  -21.8440 C   0  0  0  0  0  0  0  0  0  0  0  0
    5.9750    7.8411  -18.9101 C   0  0  0  0  0  0  0  0  0  0  0  0
    6.3655    0.7728  -21.5675 C   0  0  0  0  0  0  0  0  0  0  0  0
    4.5989   -0.6802  -20.7067 C   0  0  0  0  0  0  0  0  0  0  0  0
    6.6635   -1.6465  -21.5738 C   0  0  0  0  0  0  0  0  0  0  0  0
    6.7690   10.4223  -22.6918 C   0  0  0  0  0  0  0  0  0  0  0  0
    6.9833    8.3421  -19.7421 C   0  0  0  0  0  0  0  0  0  0  0  0
    6.3093    7.1573  -17.7262 C   0  0  0  0  0  0  0  0  0  0  0  0
    5.0889    0.6105  -20.9860 C   0  0  0  0  0  0  0  0  0  0  0  0
    7.1565   -0.3552  -21.8487 C   0  0  0  0  0  0  0  0  0  0  0  0
    5.3822   -1.8076  -21.0089 C   0  0  0  0  0  0  0  0  0  0  0  0
    6.6291    9.0303  -20.9599 C   0  0  0  0  0  0  0  0  0  0  0  0
    6.8465    1.5031  -18.0891 C   0  0  0  0  0  0  0  0  0  0  0  0
    5.3566    8.2816  -14.2696 C   0  0  0  0  0  0  0  0  0  0  0  0
    4.8915    8.9164  -15.5906 C   0  0  0  0  0  0  0  0  0  0  0  0
    6.2950    7.0873  -14.5133 C   0  0  0  0  0  0  0  0  0  0  0  0
    4.2062    7.8613  -16.4674 C   0  0  0  0  0  0  0  0  0  0  0  0
    5.6551    6.0478  -15.4647 C   0  0  0  0  0  0  0  0  0  0  0  0
    5.1674    6.6871  -16.8019 C   0  0  0  0  0  0  0  0  0  0  0  0
    7.1639    0.5381  -16.9505 C   0  0  0  0  0  0  0  0  0  0  0  0
    4.2894    1.8186  -20.5690 C   0  0  0  0  0  0  0  0  0  0  0  0
    5.0804    4.5248  -17.9658 C   0  0  0  0  0  0  0  0  0  0  0  0
    5.0790    2.6196  -19.5165 C   0  0  1  0  0  0  0  0  0  0  0  0
    4.2204    3.7372  -18.9394 C   0  0  2  0  0  0  0  0  0  0  0  0
    5.5150    1.7314  -18.4194 N   0  0  0  0  0  0  0  0  0  0  0  0
    4.3466    5.7158  -17.5382 N   0  0  0  0  0  0  0  0  0  0  0  0
    7.7569    2.1275  -18.6237 O   0  0  0  0  0  0  0  0  0  0  0  0
    7.2802   10.1111  -21.4691 O   0  0  0  0  0  0  0  0  0  0  0  0
    3.7792    4.5923  -19.9946 O   0  0  0  0  0  0  0  0  0  0  0  0
    8.3934   -0.1980  -22.3713 F   0  0  0  0  0  0  0  0  0  0  0  0
    4.9076   -3.0446  -20.7433 F   0  0  0  0  0  0  0  0  0  0  0  0
    9.7237    7.1701  -18.0985 H   0  0  0  0  0  0  0  0  0  0  0  0
    5.1746    9.4967  -23.8817 H   0  0  0  0  0  0  0  0  0  0  0  0
    9.1081    8.5621  -20.0645 H   0  0  0  0  0  0  0  0  0  0  0  0
    7.9483    6.2643  -16.6196 H   0  0  0  0  0  0  0  0  0  0  0  0
    4.9635    7.8204  -21.7205 H   0  0  0  0  0  0  0  0  0  0  0  0
    4.9379    7.9796  -19.1775 H   0  0  0  0  0  0  0  0  0  0  0  0
    6.7337    1.7620  -21.7960 H   0  0  0  0  0  0  0  0  0  0  0  0
    3.6228   -0.8035  -20.2612 H   0  0  0  0  0  0  0  0  0  0  0  0
    7.2680   -2.5135  -21.7962 H   0  0  0  0  0  0  0  0  0  0  0  0
    7.0947   11.2337  -23.3258 H   0  0  0  0  0  0  0  0  0  0  0  0
    5.8905    9.0399  -13.6779 H   0  0  0  0  0  0  0  0  0  0  0  0
    4.4750    7.9344  -13.7107 H   0  0  0  0  0  0  0  0  0  0  0  0
    4.1807    9.7276  -15.3744 H   0  0  0  0  0  0  0  0  0  0  0  0
    5.7621    9.3244  -16.1250 H   0  0  0  0  0  0  0  0  0  0  0  0
    7.2305    7.4535  -14.9613 H   0  0  0  0  0  0  0  0  0  0  0  0
    6.5146    6.6030  -13.5504 H   0  0  0  0  0  0  0  0  0  0  0  0
    3.3309    7.4652  -15.9317 H   0  0  0  0  0  0  0  0  0  0  0  0
    3.8792    8.3338  -17.4054 H   0  0  0  0  0  0  0  0  0  0  0  0
    6.4012    5.2730  -15.6949 H   0  0  0  0  0  0  0  0  0  0  0  0
    4.7937    5.5882  -14.9579 H   0  0  0  0  0  0  0  0  0  0  0  0
    8.2468    0.5413  -16.7577 H   0  0  0  0  0  0  0  0  0  0  0  0
    6.6290    0.8539  -16.0426 H   0  0  0  0  0  0  0  0  0  0  0  0
    6.8443   -0.4766  -17.2301 H   0  0  0  0  0  0  0  0  0  0  0  0
    4.1002    2.4537  -21.4470 H   0  0  0  0  0  0  0  0  0  0  0  0
    3.3309    1.4930  -20.1386 H   0  0  0  0  0  0  0  0  0  0  0  0
    5.3126    3.9005  -17.0904 H   0  0  0  0  0  0  0  0  0  0  0  0
    6.0160    4.8256  -18.4601 H   0  0  0  0  0  0  0  0  0  0  0  0
    5.9611    3.0632  -20.0015 H   0  0  0  0  0  0  0  0  0  0  0  0
    3.3634    3.3023  -18.4042 H   0  0  0  0  0  0  0  0  0  0  0  0
    4.8109    1.2668  -17.8824 H   0  0  0  0  0  0  0  0  0  0  0  0
    3.5940    5.4267  -16.9466 H   0  0  0  0  0  0  0  0  0  0  0  0
    3.9775    6.1670  -18.3507 H   0  0  0  0  0  0  0  0  0  0  0  0
    3.2419    4.0962  -20.6011 H   0  0  0  0  0  0  0  0  0  0  0  0
  1  3  2  0
  1  4  1  0
  2  5  1  0
  2 10  2  0
  3 11  1  0
  4 12  2  0
  5 16  2  0
  6 11  2  0
  6 12  1  0
  7 13  2  0
  7 14  1  0
  8 13  1  0
  8 15  2  0
  9 14  2  0
  9 15  1  0
 10 32  1  0
 11 16  1  0
 12 23  1  0
 13 25  1  0
 14 34  1  0
 15 35  1  0
 16 32  1  0
 17 24  1  0
 17 29  1  0
 17 31  2  0
 18 19  1  0
 18 20  1  0
 19 21  1  0
 20 22  1  0
 21 23  1  0
 22 23  1  0
 23 30  1  0
 25 27  1  0
 26 28  1  0
 26 30  1  0
 27 28  1  0
 27 29  1  0
 28 33  1  0
  1 36  1  0
  2 37  1  0
  3 38  1  0
  4 39  1  0
  5 40  1  0
  6 41  1  0
  7 42  1  0
  8 43  1  0
  9 44  1  0
 10 45  1  0
 18 46  1  0
 18 47  1  0
 19 48  1  0
 19 49  1  0
 20 50  1  0
 20 51  1  0
 21 52  1  0
 21 53  1  0
 22 54  1  0
 22 55  1  0
 24 56  1  0
 24 57  1  0
 24 58  1  0
 25 59  1  0
 25 60  1  0
 26 61  1  0
 26 62  1  0
 27 63  1  6
 28 64  1  1
 29 65  1  0
 30 66  1  0
 30 67  1  0
 33 68  1  0
M  CHG  1  30   1
M  END
>  <OMEGA_C>  (53) 
wfYKQfHv60BohZLBgJu4QNFzGEEO2LfBdmsFQVksAkGGgJvBALf1QO7m20D2w4vB5Ta1QLkkCkGX
wK7BdDO/QAfq+kD4R5fByrHLQCbTRT9EiqzBNyqTQLsiLr9mp6XBqjvVQNzB0r87l6zBmZvYQN7B
JkHCiLXByXbfQF55BUHW753BIubJQIUI5UA6z43BidiiQMFJHD9A46fBWQLlQPritb4yyq7Bnzqs
QFxg578xEqjBXiHUQBp8EEHwrafBgBbbQBhkwD9utpDBRmmrQJqBBEEWUGTB6IacQIypDkEKc3nB
33DJQDDL4kCXNmjBfZmGQBWQ+0A4vYPBUPa0QHOHwUBab3fBh1ulQNr81UA5aobBWj7lQCvECT+d
mofBf0KJQKzG6D9ejaTB+5KiQBHLkED1uY/BRYeiQCinJ0DcIZzBeg2HQIYub0DZg5fB/3qwQISd
3T/bWpPBvBeLQPbntkA7TozBMjj4QKMpCEBa/ZTBBvfoQBHHIUGxwKvBHN5xQMXzkkAI9Z/BQEsG
QRi1Sr5n+LLBTAudQIjbQsA18qXBG5QbQb5x5UDIyZDBgZalQH7yF0GwDb/BuboRQTr+CEEdhKDB
Flj+QOR0yEDa9ITBLNWeQG5A+kCow63B4AKeQI5Y/0CCa5nBi3rXQJWI4T9AXq7Bw9xnQPCuTb/f
FqLBY5PoQMbcIMCuXq7BpgfjQF+9M0Evm7rB5368QGqjEEHT2FrBejOPQMvm/UAqX1vBlciFQHCk
G0Gg/XXBBWO4QJQwFUH6/4DBomDnQOqC7kCsYW/Br3fQQHtL00CBzljB2i1VQBHj7kBv6H7B+0R4
QDlXBUE9PovBwtbMQIi8qEBFHnvBt2WZQLnSskC5U2/B+/IDQX2PCj+uD4bBtSDUQMSYWj9OV4DB
MATbQKgA9L5X14nBojSDQAIKHUBek6vByCxVQNMavz/XG6HBsQCqQBSieUAOuYjBv4LAQH1rmkA6
rpPBRMG+QAkLREAAA6DBZEJXQB9YU0DOO5PB7fKZQJoloj8QD4/BwgRmQGCnrUClkofB349+QG5Y
xUA4zpLBM3tPQCMUg0AAz6TBSFEKQVE/8UAw7JHBuYzQQC4oIEGZjLfBTEkEQZnlA0EhIpvByhH1
QPgg4EDdIovBhInfQJelIEGZkqzBAna9QMXW+kAK/5bB9zzHQKE7Kz959KzB4JiSQEgIQb/1DKTB
S5HRQESg37/oaKzBJHC5QN6iDUFSv7jBbfbcQITNBUH2s53BbfDIQKyM5kBGYI3BJ7CgQADSBj+r
MKfBH9DfQGK97r7vea/B+dyqQFz88b/8vKbBKKLQQNxNDkHN8KfBJvbcQLjTwz+9/pDBvQqpQKTc
A0HwJ2PBsgibQO5dDkFOQnjB1oLHQLLb4UByD2fBoJKFQJ1T+0BCWIPB72m0QIoLwUA4AXfB2ryk
QCg01kABG4bBzDboQECjGz+ur4fBaNOHQKgr4D+B2KPBPL2jQNYckkBTDJDBXtmiQADvJkBeI5zB
rSuIQM3ScECsvpfBhxCyQDyK4z8DJ5PBzS2LQP4Qt0DmO4zBz535QL+BBkA95pXBEBi4QDCAA0Eh
IK/BvVp1QA82k0DsW6DBYpcCQdaqpr75zLTBphudQKOdR8AL0qPBiQwbQRcG7UDnCZDBjXLWQKIW
LEFhn73B6koQQZ4OC0FPNqDBXHD+QNX2zUBHK4TBMJHyQOz5LEFR1KjB8SWcQCx0/UCbM5nBwt3R
QHEO0z8Bbq/BA2tqQNHLXL9ylp/BvlHkQO+hJ8AlaK7B1taqQHgSCEFdEcDB4YC5QIvdD0GSQlnB
E36MQA4X/EBaqVrB3jeEQPRSG0Fj1XTB7zu3QM76FEGWOoDBMs3lQKgh7kC+mG3BjqjNQNCv0UCY
u1fBoABTQBwl7kAfXX7BzIt2QJJyBUEvzorBsSDNQIg3qUCu5HrBhRaZQIwGsUAJVG/BlZIFQY7q
FT+RnYbB6gfZQBwoez9ZVIDB1pHcQGjG0L5pZonBtZl/QMUZFkC5+arB8WNUQNFWuD/BzJ/BoeGs
QP/Se0CnNonBU7rAQFU8nUCaMZTBimS+QBYXQUAEiaDB/rxYQIjvVkDMbJPBYC2cQI8grz+NUo7B
iiBnQIZorEDtiYfBYmN9QHgJxkANlJLBBetSQK8ig0DEKaXBowgKQXR160B4mZPB7T/MQGqcLkFF
WbLBN58DQeevAEG725zBIkT1QPor3UDGMozBPL3lQM+zHEE+m67BVrm8QPWe+UABdZfBUW/KQBuK
QT/cCK3Biq2TQOnqLr+MJaXBBh3UQFnm1L8f4azB1RWlQMAbLUFAdq3B7lbbQOkmBEGdw57BBxLJ
QCJR5UBN7I3BdK6iQHVdGj8+0qfBQjHjQOK/wL5dhK/BqzqsQG9q6L8ZwafBFu3MQF1jEkE8NKfB
IanaQO9xwD8bhZDBL+eqQEhFBEHxzmPBDECbQFF8DkEexHjBmyjKQKWB40BbJ2jBtQOGQOr++kA+
coPBtku2QHXRwUC9U3fBCnWlQIsO1kAmQobByfHjQIYiCD+dZofBRG+JQO/q6D/LgqTBjUKjQDQs
kUDdyo/B8P+iQCL8J0CdLpzBKtyHQLyncED/rpfBSUuwQKHd3j9nUpPBsDeLQC5ztkAGBozB8jP4
QDbgB0AmqpTBx+CkQH8SG0G4b6fBlDR1QB7ok0DZK6DB2qsEQXxNab7ceLTBZnidQJwrQ8A+VaXB
U88aQRmL5UA5JpLBoz7WQIzROkEP7rfB3msPQRVsBkFEe6LBvk//QP3gy0DiJoXBBtMCQXhoGEHv
IrHBCSObQOz4/UB3LZnBDtXVQO/03j+eHa/BebxqQKOOTL+mGaHB9SDnQFUdIsA/ya7BHv2KQDhS
OEE6Ra7Buj27QPWEEEE6KlrBqCePQCEv/EAy6lrB9OiDQMYiG0EZFnXByKi2QBJ1FUE9qoDB0WDn
QMVq8EC7i2/B31HSQKkC1EAK41jBJLBUQECX7UDjUn7BHDp2QI0VBUGM54rBgtLOQL7UqUB0RHvB
G3GbQJYnskCKEm/Bzj4DQUpmBj+ntoXBIG7SQGJBWT9iM4DBoJjZQGVT9b44tonBuVODQPXAHEBA
kKvBAJNVQHVhwD9cAKHBmmerQKgXeUBd9YjBptDAQGnUm0DDwpPB6Xi/QBEzQ0CtFKDBIvFXQCTD
VUA+f5PBzGqZQEWUpD+xE4/B9T5oQJlCrEBOG4fBDxh8QP7dxEB/XJLBEfhSQLVHhEDGFqXBsaAL
QZkZ9kCv+o7BL8zPQMJMH0EI2rbB2lUHQbgyBkH5fpjBenL1QP/d5ED46ojBfyXZQP35DEEpBbDB
ASDCQJ1pAEHO05XBZcGkQPxeXz2oH67BGfucQIfZZr92PZzBmcW/QDQkDMCwXarBGeLMQNnLMEGk
QrDBcSPkQJehCEG3+5vBpDfKQPnS6kBZHYzB3yCWQKs4KD6xeKPBwkS5QJX4j7+mlbHBosGxQKHk
BMCHrp/BkSvbQEmvFEHwv6XB+x/nQP1Z5j9gCJPBv1ugQKdWAEHwO1/B+5KVQGIdDUFbm3PB+LDA
QEXe3EACEmTBIMaDQA1W/EDPkILBCP2wQMFev0C5eXbBZQSkQK8u2ECprYXBMWT9QFQ1kD+NkInB
1EaAQEE5uD9StJ/B27ClQF5GlUBC0JDBefygQPZzH0AnpJvBvf+IQPmVcEAeuZfBTq+6QL3a9D8M
3JLBhjmMQEMqukBY04zBzy78QF+oB0AY6prBC7vTQKEyKkG4+6XBG2t1QKElkECqzqDBg6/GQPUO
nr/t1rvB4Sm4QCUZRsCUvJjBNvEbQbor8kB0TozBDuvLQB8iH0HKb7/B6E8UQSThDEH3Hp3B+nD8
QMXk0kCUv4HBG5jdQBIy+UAjirLB9JKhQEeDAkGdiJjBJzqgQJf3Xz/MoLPBV0OSQFzLUL8WDpTB
bX7PQDDoRcADBq3BCE7GQKIAQUFqxLLBMSeuQHg9C0H6QlPB3NWCQIBi8kDq2FjBnuJ6QFdVGUG6
v2/BAsOyQOfzFEFejXnB41zfQMVn60Cyu2jBYz7FQB53yUAnkFXB+0VMQH937UBmOX/BOld5QCbA
B0HsuonBBd/KQJPnqEAXfXrBtfOUQOxirUChyHDBetsPQXlAgj+IT4vB9Tz5QONA3z9OW4LB6jvv
QMMGCT5DNojBCFNcQDFZ7z/LaqbBVldUQLpnmD+8JpnBgBqyQFvigkBZ+4nB75fAQPcVoUDrqJXB
mR62QEluMUBvT6LB6NNaQPA3XEDD4pLBczGrQJB0yj9oYYzB22NmQC+qrkD+wIjBR8iBQCi5ykBs
J5PBh+ZRQDIpfUCKI6XBILbIQOAtC0FZeJ7B4uQ5QTk5BUFSHovBMr30QNJACkFx/pvBwoWqQGVz
AUFIlZfBXK0oQQwgCUF0w5LBNxvkQJQY6UCWXIzBRm/ZQJymbT8ZkazBsuyrQMZ5R79YcaTBzjTu
QDSgtb+bYq3BW60xQT4S8UBKLYPBsQ0BQc7X/UDpy5LBnD+4QGrv7ECjOI7Bdji0QDKnEj+A2qbB
zHb2QJiPiL36ya/BLNfIQHAp47/0v6fBmhsXQVBF/UDD4I7Bt8XmQF0z1z8tcI/BpPaZQMCzAUG4
82HBZoiIQM+bDEFsQHbBtp68QJqV4kAsj2fB3LJrQCDT90Da7ILBagOsQFASwkCKMHjBikyYQD9A
10BGf4bBsKDyQBRcNT+5gYbBuaeVQJ080j8tMaPBXyShQP8vkkD2mI/B8tirQBRxJkBHS5vBSsKL
QGwmakDPopfBKLq7QLkl7D/i85HBTIWDQMf0tEBbnozB6Y8BQS6ICkDaA5XBBOwcQVi16EBNnIXB
FP58QIbyjUCjnKDBThENQVCCjT5bP7XBZsfAQBabRMA9fKXBGhW+QNNOE0HNnaXBVBJKQTQ2C0EV
oIvBGvUFQREaEkG5D6HBmtKIQJRdAkGAcZnBmp4pQU1tEkGWB5rBxRjvQGqW1UDEx4XBs57fQARn
+z/Odq7BBGyPQJZ0hr+YEKDBBEMCQeW5C8DW3K/BSTM6Qdm75UCSbnjBS7mnQGvxDUFrV1fB2BN/
QKcN80Atr1nBHnteQGz6F0Fwt3HBbbWiQKZDFUElOX7BEI3YQDRm80AKMm7BcxPGQIhf0UDp81jB
/GA3QDGO5kDS133BGJlSQHs2BEHABYrBbuHGQFmErUArDn3B+B2TQJhnrkAZkXDBtcUKQQgVEj8G
WYbB9uDnQByRjj9ej33BXv7iQMFOhb429IfBJnqKQCClDUA4LarBJUR0QBfWlT8QNp/BLa2pQKJj
f0CTa4jB4EW+QErxn0DXJJPBN7nGQEQURkAKYJ/BBlVgQL1sSkCT4JPBBhymQBUjtj+YHY3BbN5X
QDicqED9LYjBkYpuQBGGwUDfTpPBiAFiQFLRd0AXt6XB

>  <OMEGA_E>  (53) 
eGGnPpy0rD7MS6M+HiMyP/RPOD8=

>  <OMEGA_NBR>  (53) 
    189520

$$$$
50214042
     RDKit          3D

 68 71  0  0  1  0  0  0  0  0999 V2000
    8.6296    7.4135  -18.4668 C   0  0  0  0  0  0  0  0  0  0  0  0
    8.2199    8.0758  -19.6353 C   0  0  0  0  0  0  0  0  0  0  0  0
    7.6737    6.9562  -17.5401 C   0  0  0  0  0  0  0  0  0  0  0  0
    5.0378    9.6336  -21.1544 C   0  0  0  0  0  0  0  0  0  0  0  0
    5.8948    7.7668  -18.9808 C   0  0  0  0  0  0  0  0  0  0  0  0
    4.6238   -0.6444  -20.7526 C   0  0  0  0  0  0  0  0  0  0  0  0
    6.4073    0.8249  -21.5484 C   0  0  0  0  0  0  0  0  0  0  0  0
    6.7092   -1.5929  -21.5896 C   0  0  0  0  0  0  0  0  0  0  0  0
    5.1176   10.6293  -22.0838 C   0  0  0  0  0  0  0  0  0  0  0  0
    7.1745    9.7536  -21.9139 C   0  0  0  0  0  0  0  0  0  0  0  0
    6.8450    8.2591  -19.8896 C   0  0  0  0  0  0  0  0  0  0  0  0
    6.3921    9.1142  -20.9873 C   0  0  0  0  0  0  0  0  0  0  0  0
    6.2884    7.1631  -17.7732 C   0  0  0  0  0  0  0  0  0  0  0  0
    5.1192    0.6513  -20.9964 C   0  0  0  0  0  0  0  0  0  0  0  0
    5.4147   -1.7654  -21.0590 C   0  0  0  0  0  0  0  0  0  0  0  0
    7.2062   -0.2967  -21.8315 C   0  0  0  0  0  0  0  0  0  0  0  0
    6.7997    1.5125  -18.0133 C   0  0  0  0  0  0  0  0  0  0  0  0
    5.3131    8.2568  -14.2465 C   0  0  0  0  0  0  0  0  0  0  0  0
    4.8433    8.9043  -15.5580 C   0  0  0  0  0  0  0  0  0  0  0  0
    6.3088    7.1166  -14.5164 C   0  0  0  0  0  0  0  0  0  0  0  0
    4.1969    7.8495  -16.4588 C   0  0  0  0  0  0  0  0  0  0  0  0
    5.7114    6.0626  -15.4761 C   0  0  0  0  0  0  0  0  0  0  0  0
    5.1809    6.6940  -16.8010 C   0  0  0  0  0  0  0  0  0  0  0  0
    7.0847    0.4655  -16.9411 C   0  0  0  0  0  0  0  0  0  0  0  0
    4.3102    1.8514  -20.5765 C   0  0  0  0  0  0  0  0  0  0  0  0
    5.0688    4.5096  -17.9187 C   0  0  0  0  0  0  0  0  0  0  0  0
    5.0814    2.6326  -19.4972 C   0  0  1  0  0  0  0  0  0  0  0  0
    4.2240    3.7551  -18.9313 C   0  0  2  0  0  0  0  0  0  0  0  0
    5.4808    1.7299  -18.3977 N   0  0  0  0  0  0  0  0  0  0  0  0
    4.3476    5.7095  -17.5049 N   0  0  0  0  0  0  0  0  0  0  0  0
    7.7358    2.0334  -18.6109 O   0  0  0  0  0  0  0  0  0  0  0  0
    6.3992   10.6737  -22.5560 O   0  0  0  0  0  0  0  0  0  0  0  0
    3.8336    4.6343  -19.9878 O   0  0  0  0  0  0  0  0  0  0  0  0
    4.9324   -3.0077  -20.8361 F   0  0  0  0  0  0  0  0  0  0  0  0
    8.4523   -0.1288  -22.3282 F   0  0  0  0  0  0  0  0  0  0  0  0
    9.6811    7.2545  -18.2786 H   0  0  0  0  0  0  0  0  0  0  0  0
    8.9547    8.4433  -20.3363 H   0  0  0  0  0  0  0  0  0  0  0  0
    7.9963    6.4443  -16.6454 H   0  0  0  0  0  0  0  0  0  0  0  0
    4.1484    9.2962  -20.6430 H   0  0  0  0  0  0  0  0  0  0  0  0
    4.8436    7.8533  -19.2130 H   0  0  0  0  0  0  0  0  0  0  0  0
    3.6384   -0.7764  -20.3309 H   0  0  0  0  0  0  0  0  0  0  0  0
    6.7784    1.8183  -21.7528 H   0  0  0  0  0  0  0  0  0  0  0  0
    7.3208   -2.4552  -21.8109 H   0  0  0  0  0  0  0  0  0  0  0  0
    4.3068   11.2721  -22.3933 H   0  0  0  0  0  0  0  0  0  0  0  0
    8.2206    9.5624  -22.1023 H   0  0  0  0  0  0  0  0  0  0  0  0
    5.8020    9.0206  -13.6239 H   0  0  0  0  0  0  0  0  0  0  0  0
    4.4403    7.8525  -13.7128 H   0  0  0  0  0  0  0  0  0  0  0  0
    4.1085    9.6914  -15.3332 H   0  0  0  0  0  0  0  0  0  0  0  0
    5.7071    9.3463  -16.0762 H   0  0  0  0  0  0  0  0  0  0  0  0
    7.2200    7.5362  -14.9678 H   0  0  0  0  0  0  0  0  0  0  0  0
    6.5627    6.6297  -13.5632 H   0  0  0  0  0  0  0  0  0  0  0  0
    3.3215    7.4292  -15.9419 H   0  0  0  0  0  0  0  0  0  0  0  0
    3.8745    8.3304  -17.3941 H   0  0  0  0  0  0  0  0  0  0  0  0
    6.4918    5.3278  -15.7232 H   0  0  0  0  0  0  0  0  0  0  0  0
    4.8778    5.5554  -14.9684 H   0  0  0  0  0  0  0  0  0  0  0  0
    8.1710    0.3176  -16.8517 H   0  0  0  0  0  0  0  0  0  0  0  0
    6.6810    0.8087  -15.9771 H   0  0  0  0  0  0  0  0  0  0  0  0
    6.6072   -0.4852  -17.2209 H   0  0  0  0  0  0  0  0  0  0  0  0
    4.1375    2.5010  -21.4473 H   0  0  0  0  0  0  0  0  0  0  0  0
    3.3439    1.5190  -20.1695 H   0  0  0  0  0  0  0  0  0  0  0  0
    5.2555    3.8701  -17.0433 H   0  0  0  0  0  0  0  0  0  0  0  0
    6.0279    4.7940  -18.3761 H   0  0  0  0  0  0  0  0  0  0  0  0
    5.9805    3.0697  -19.9559 H   0  0  0  0  0  0  0  0  0  0  0  0
    3.3424    3.3282  -18.4307 H   0  0  0  0  0  0  0  0  0  0  0  0
    4.7602    1.2466  -17.9004 H   0  0  0  0  0  0  0  0  0  0  0  0
    3.6033    5.4348  -16.8961 H   0  0  0  0  0  0  0  0  0  0  0  0
    3.9674    6.1451  -18.3208 H   0  0  0  0  0  0  0  0  0  0  0  0
    3.3058    4.1580  -20.6180 H   0  0  0  0  0  0  0  0  0  0  0  0
  1  2  2  0
  1  3  1  0
  2 11  1  0
  3 13  2  0
  4  9  2  0
  4 12  1  0
  5 11  2  0
  5 13  1  0
  6 14  2  0
  6 15  1  0
  7 14  1  0
  7 16  2  0
  8 15  2  0
  8 16  1  0
  9 32  1  0
 10 12  2  0
 10 32  1  0
 11 12  1  0
 13 23  1  0
 14 25  1  0
 15 34  1  0
 16 35  1  0
 17 24  1  0
 17 29  1  0
 17 31  2  0
 18 19  1  0
 18 20  1  0
 19 21  1  0
 20 22  1  0
 21 23  1  0
 22 23  1  0
 23 30  1  0
 25 27  1  0
 26 28  1  0
 26 30  1  0
 27 28  1  0
 27 29  1  0
 28 33  1  0
  1 36  1  0
  2 37  1  0
  3 38  1  0
  4 39  1  0
  5 40  1  0
  6 41  1  0
  7 42  1  0
  8 43  1  0
  9 44  1  0
 10 45  1  0
 18 46  1  0
 18 47  1  0
 19 48  1  0
 19 49  1  0
 20 50  1  0
 20 51  1  0
 21 52  1  0
 21 53  1  0
 22 54  1  0
 22 55  1  0
 24 56  1  0
 24 57  1  0
 24 58  1  0
 25 59  1  0
 25 60  1  0
 26 61  1  0
 26 62  1  0
 27 63  1  6
 28 64  1  1
 29 65  1  0
 30 66  1  0
 30 67  1  0
 33 68  1  0
M  CHG  1  30   1
M  END
>  <OMEGA_C>  (54) 
xhIKQYU77UAJvJPBr4QDQZg2AUEUFZ3B5Y71QACZ3kAKUozB/zWhQEkjGkEhPKnBD6K8QNGJ+ECh
2JfBhfaTQCf4JL86BabB7QjNQJIpUz8GY6zBDLLWQLnly790t6zBT8OjQIMRKkGqq7DBSJXlQN8O
HEHBT6/BOgrbQFIlBEEAHp/BbozMQKzTEUEH5qfBsDrJQFc45UCBL47BUtCjQA65Jj+z+KfB1USt
QEL34b/oeKjBYJnmQO7tl77bpq7BKJfZQPmXwT9XG5DBkwSqQPYbBEF68WPBBPyaQCV4DkGq7XjB
GeLJQPG640D+QmjBxUyGQAQv+0CIq4PBEMS2QAYBwkApnnfB8MmlQEA11kCKaIbBhLXiQLpP7j5T
h4fBke2JQMH67D+tnKTBwTOiQFpOkEB3WY/BhpqiQK98KEAy+pvBByuHQL9TcEBXc5fB22KvQPxr
3T9lLpPBex+LQAK0tkDxCYzBVov3QHUjAkAM45TB/cXMQHTHKkGWcrTBkVl1QDJMlED05p/BWdad
QCF+QMBOsKbBkTwHQSXfA74XoLLByOUaQQsl6ECBOpLBi0YPQd4XB0GvsKLBd+H/QL43zkDgKYXB
i7+EQG+9FEHzJKXBwP6aQNdN+0BHtJnB7tpoQA7FRr+spaLB8+jYQI696D+kBa7B10PqQJwhHcCs
fK7BYdGJQIlaNEGQJbPBg4cDQZX/GEGG0bDBmKm5QI9UEEGF+1nBiBaOQM5H+0DRZ1vBoHiDQCYQ
G0HRVHXBSaC2QG6KFUESnIDB4AnnQOIo8UDue2/BSwHSQOUm1ECyAlnBkpNUQDm87UAdEn/BMvh3
QCVJBUEbJ4vBJ73PQI99qkAcknvBwhacQAnGsUCXfm/BdbwCQa2coj5g0IbBiMrVQNIJTz9Von/B
x23TQJNn+L5zxInBNGaEQAMQIED4k6vBFwJWQEZuwj8yW6HBuCyoQK2vd0C9WIjBfOTAQMhomUBN
ApPBkmC/QLh2RECXpZ/B9OlVQAMCVUArcpPBtFOYQIKRnz8YNI/B6ZtmQEDqrUBBK4fBOup9QGWk
xEDzkJLB8pJTQK4OhUCd8aTBDQIKQRE+7EB37JPBCHsDQfBnAUEQEJ3BmG/1QGhd3UB1jozBNY7o
QBWfHEGHyq/BW4i8QB4o+kDPspfBTnqTQP70Jb+4FabBOnXMQIaGUD/FmKzB1SnWQGI/zb/3v6zB
8WvPQJ+dKkG8X7XB4LSkQIrCGkE3Y6nBIQrbQEkABUHX757BhiTNQDS+EkG1xafBczDJQJA/5UCs
O47BJUijQL40JT9kJqjBZNesQOTC4r/TbajBqP/lQOJOnr7wza7BvEfZQBA1wz+AApDBCtOrQD7h
A0H0DWTBdgecQNg4DkFv6njBLTnLQLT34kARmmjBVqaGQMWp+kDGiYPBiVO3QDtnwUABz3fBWf6l
QD7Q1UCZc4bBJGviQHBI6D6qn4fByKSJQLCt7D+4wqTB22KiQPT/j0DOco/BjIqiQKnSJ0DDG5zB
bzqHQJWnb0BFhZfBsUSvQELR2j8AYJPBwlWLQH5utkDoHozBejv3QOhzBkDNXpTBw6CmQBpGKUEo
f7HBwPN0QBf7k0Ca8Z/BVLmdQBi3QMBiX6bBT/MGQXbaE76yxLLBBc4aQW9J5kCXi5LBg0APQRBU
B0HopqLBPK7/QKHOy0CzkYXBJhQFQTSBGUGsE7HBbeOaQBEQ/kCBapnB895nQOfeRr8CtaLBAlLY
QPg15z/nTK7B3rPpQKnqHcCzfK7BngLaQPP4NEF3w7vBiFKIQFNRFkG+/KTBlxS8QHwVEEH7UVrB
RyqQQMse+0DgMFvBTsCEQLLdGkElHnXBHGK3QFg5FUHdv4DBa0joQI4e8ECRC3DB5afTQEBT00DJ
aFnBHydWQLUn7UBMeH7Byih3QKcCBUEC9YrBuu7PQLSdqUCF7HvB0LKcQKh4sUDYf2/B3JoCQdDV
rz5onobBaffTQI7FPz8/6X/BN6jUQLoMAb/XP4rBATmEQJ8kIEDVtavBElRVQErFwj9ggaHBnneo
QModd0CUcojBDAXBQJsYmUCAI5PB7FO/QAS/Q0Anx5/BKUBWQGNAVEBEepPBMESYQH+pmD/Dp4/B
/eZmQKShrUC0RYfB4oV+QK14xEAxpZLB4gZTQJe6hECu96TBehkKQeUk60DS4JPBraMDQQA5AUGk
65zBTYf1QKkx3EDuiIzBi4zoQJsVHEGHzK/Ba9u8QBZG+kB4h5fBC6/MQFjWSz/Zi6zBGFuTQOgJ
Jr/x96XB6r3VQMH5z78enqzBo5rPQOwoKkGMYrXBtWelQJ+YG0G546jBq2bbQB0aBUFnuZ7Bl3rN
QNT2EkE3gKfBE13JQNHL5EDBJI7BdnOjQJu7Iz99GajBLO7lQGnaq74Qt67BYV+sQMHL47/+SqjB
xbvZQH4Jvz93bpDBZWmsQErPA0EaCGTBb62cQIIqDkF45njBaFbLQIxm4kAIjmjBlueGQMeh+kCS
e4PB1gW3QAL9wECvtHfB+felQJ6J1UBqZ4bBTbXiQOAMAz/VWofBheuJQB3a7D870qTBKkOiQKsI
kEDng4/BQaeiQHU2KEBKLZzBoSWHQKq/b0DPl5fBwX+vQPBE3D87a5PBpTeLQLFdtkCTHozBklz3
QCFGCECCXZTBwDinQEamKUHnMrHBaoN0QDgClEBaAaDBv+kGQVB/PL7zt7LBEsqcQDDlQMBTQKbB
L94aQRev5ECBjpLBtW8PQTgzB0FDe6LBVqL/QAcOykDRoIXBvukEQeFyGEGPQrHBpzybQDqP/kAq
OJnBGdDYQHBc5D94R67Bt6xnQC1cRL+qjaLBCgzpQOSqH8A5U67BFAvaQNMCNEF6/LvBD1iJQBPg
F0GuM6TBqAq9QMv0D0E2YlrBUq2QQLNj+0B0FVvBLaeFQE3tGkFuG3XBFhq4QB8EFUFbxoDBXoro
QOsn70C9B3DB/JvTQJG80kCGWFnB26NWQLRc7UCWRn7BR5p3QO79BEEz5orBG1PPQNTeqEDAynvB
MzKcQNZvsUBXYG/BkY4CQdtXBD8Kf4XBNH7QQLa1Tz9GN4DBnPrYQMXs/75azonBx8mEQL/cH0Ce
0avBKZtVQAHnwz+5maHBAHmoQHX7dkA8iojB9NTAQARFmUCNN5PBN2C/QIZsREDp15/BEjpWQOIN
VEAKjZPB1XKYQN0Inz+aZo/BRbJmQP5yrUChR4fBekB+QA+ZxECnnZLBdaRSQBK3hEDfBqXBR2jS
QF28CUHFJJ/Bhrf+QK+8BkGljZ3BZMu0QKAkAUESu5fBS7kvQRSr+UDdQpjBOgLvQBca4kCr3Y3B
x+rKQBZyOT/bjazBbOaRQF2/L7/KXaXBDj/RQAEE2r8zWK3BtCNBQfyE8EAq/pHBOGQkQUc54kCJ
DojBjGIGQasS9UBctJTBa/gcQQkS8EDi2JHB7lbDQDA46kCrxY7B5dSiQEKXFz95eafBATDiQMa/
2L6yb6/B9vGoQC+l6r+SYqjB38vZQNlctj+Lx4/BgLqxQCMdAEHHgGHBiXafQBV7DEFOwXTBDejP
QHui3EA8+WjBJdqGQGyy+kDo8oHBajy5QBnxvkDZFnnBekWkQLcZ10DwZ4bB5FbhQNTOqj5YcIfB
NHOKQBO16D8UFKTBGFuiQF6ekUBmgY/B7B6kQCIkJ0DKs5vBROiIQJ6vcUANr5fBWuKvQIVy3T8Q
qpLB1vuJQHG1t0AoJozBlHr4QH0n9D/BhpTBUBM6QWxu4kAxRYjBz4d9QPiMlEA0ZaDBbEYEQXpX
l77NUrTB1jeYQCDBQ8DCk6bBDBzHQKWTEkFFAqbBn8oKQVSsDUF/BqPBdu+SQOC7A0EX4ZjBQuwv
QVjSAkGGXaDBsSH6QA6PzEBwtYfBrrTXQG9V2j/OOa7BTI9mQGUdSb96cKHBwyfjQD1yJcAGi6/B
r61RQebj80CIWZTB1pQaQfvL2ECNWIHB5H7DQHNBC0FkLFfBPDCXQGT58UBBZljB9YyJQCz1GEGF
627B3vK5QL34E0E2mn3BlxDsQKwS60CdrnDB1S7aQA2+yUBiClvBm65YQLfR60CRBnvBo+JzQD+0
BkHrqojBo+TQQEoFqEBNS3/B99SfQOCErUCjknDBDecBQejz+j2+2YbB3VrVQB5RLD8CP3/BuUfQ
QCGvFL+Y1YnBcLGEQMwkHUDbGqvBtkJXQEy9wT8FmKDBmIOoQPBbekAhgojBPPrAQOWum0ChCpPB
PEDBQMiIQEDcfJ/B0C1XQDSWWEBy9ZPBuDaYQIDvqT9/WY7BXlVkQCFWrkDoWIfBtJN7QMy5xUCZ
qZLBQHNdQJg+hUBWmKXBkD4KQSQO8UB0N5PBpeUDQS9kBEGNLZzBGob1QHYC4EDdQozBdyOvQBku
B0ESlq/BRue8QFNM/UAicJfBzJXMQLAFST9CjqzBIn6TQKpDK7+P/KXBL7HVQB1W0b+i2azB60Kz
QGiYEUEQJbnBCwzjQI91IEE1Bq7BEf7bQKEVB0HVXp7BPTnPQDhKEEHRiKjBMDvJQPRz50CMC47B
j4KjQE50Hz9+B6jBmsvlQLnPr76x3K7BN3KsQO//5b+teKjBMmnZQP54vj+LGJDBHLSrQNxsA0Fz
kmPBU3WbQNQADkG6PXjBBT7LQGpX4kD9Z2jBYVSGQFl/+kCsWYPBfI63QOhEwUDZ+XfBQROmQKBc
1kBhdIbBDS7iQN/fzz71xYfByfKJQAdm6j99qqTBzI2jQNIqkUAx0o/B7tuiQOVMJ0AhEZzBo62H
QDuVb0DogpfBhF6vQJG92j8sRpPBOO6LQHoHt0DAT4zBvoj3QAvGAkDcjJTBXIbRQD9FIUE3AbjB
NuxyQP37kkA1+p/BzsUGQRqwPr4F8bLBQt6cQNA+QsBClKbBvAkbQePa60CEppHB4sMPQVFvC0GZ
YKHB+4H/QDQKzUDue4XBLYuYQN1c9UB/qq3BmV6bQKWHAEHgTZnBjKDYQBY94z+jPq7BfC5oQIH0
Sr9RhKLB2vfoQOUrIMAgqq7BaqahQCQQDkGvXcDBlRD8QA65KkHk/arBHPW7QH6OD0EZv1nBXTyQ
QDvY+UAxsVrBRumDQCdwGkFHLXTB9ZK2QHhRFUFBYIDBwVDoQMjc70Auq2/BRpzTQIMn0kAbWVnB
KPxVQMRQ7EBaLX7B5+l1QLsjBUE4r4rBslLQQDbPqUCZUHzBOgadQDbXsEBw1W/BvnYCQUuTiT5B
5YbBXWbUQBhuNT/UC4DBDobTQGopCr9eYIrBTnOEQBujHkBipavBrAJWQMDOwD+cX6HBnZarQLd1
ekA52ojBIijBQJMOm0DZ45PBTba/QE/NQkDnwJ/BcZdYQD9oVEDpJZPBvyeYQDy/nD+XXI/BmDpo
QNF/rUBnh4fBmXp/QLxtxUDqxZLBCRxQQIYPg0BJxaTB

>  <OMEGA_E>  (54) 
tLukPjgApT5gTqU+zJz3PkhfpD4=

>  <OMEGA_NBR>  (54) 
    195212

$$$$
50212924
     RDKit          3D

 74 76  0  0  1  0  0  0  0  0999 V2000
    8.5885    7.5427  -18.4984 C   0  0  0  0  0  0  0  0  0  0  0  0
    7.6559    7.0092  -17.5948 C   0  0  0  0  0  0  0  0  0  0  0  0
    8.1534    8.2640  -19.6218 C   0  0  0  0  0  0  0  0  0  0  0  0
    5.8441    7.8745  -18.9648 C   0  0  0  0  0  0  0  0  0  0  0  0
    6.4164    0.8311  -21.5823 C   0  0  0  0  0  0  0  0  0  0  0  0
    4.6330   -0.6444  -20.7987 C   0  0  0  0  0  0  0  0  0  0  0  0
    6.7120   -1.5873  -21.6584 C   0  0  0  0  0  0  0  0  0  0  0  0
    6.2663    7.2087  -17.7951 C   0  0  0  0  0  0  0  0  0  0  0  0
    6.7697    8.4524  -19.8605 C   0  0  0  0  0  0  0  0  0  0  0  0
    5.1290    0.6535  -21.0300 C   0  0  0  0  0  0  0  0  0  0  0  0
    7.2105   -0.2889  -21.8861 C   0  0  0  0  0  0  0  0  0  0  0  0
    5.4200   -1.7634  -21.1223 C   0  0  0  0  0  0  0  0  0  0  0  0
    6.7669    1.4706  -17.9978 C   0  0  0  0  0  0  0  0  0  0  0  0
    4.8810    8.8891  -15.5743 C   0  0  0  0  0  0  0  0  0  0  0  0
    6.4103    7.1095  -14.5741 C   0  0  0  0  0  0  0  0  0  0  0  0
    4.1999    7.8141  -16.4296 C   0  0  0  0  0  0  0  0  0  0  0  0
    5.7715    6.0513  -15.5076 C   0  0  0  0  0  0  0  0  0  0  0  0
    5.4488    8.2748  -14.2805 C   0  0  2  0  0  0  0  0  0  0  0  0
    5.1911    6.6827  -16.8133 C   0  0  2  0  0  0  0  0  0  0  0  0
    7.0304    0.3648  -16.9804 C   0  0  0  0  0  0  0  0  0  0  0  0
    5.9541    8.0873  -22.1951 C   0  0  0  0  0  0  0  0  0  0  0  0
    7.3046   10.1604  -21.6984 C   0  0  0  0  0  0  0  0  0  0  0  0
    4.9661    9.9766  -20.8373 C   0  0  0  0  0  0  0  0  0  0  0  0
    4.3200    1.8511  -20.5994 C   0  0  0  0  0  0  0  0  0  0  0  0
    5.0794    4.4927  -17.9208 C   0  0  0  0  0  0  0  0  0  0  0  0
    5.0828    2.6149  -19.5014 C   0  0  1  0  0  0  0  0  0  0  0  0
    4.2271    3.7349  -18.9262 C   0  0  2  0  0  0  0  0  0  0  0  0
    6.2601    9.1629  -21.1289 C   0  0  0  0  0  0  0  0  0  0  0  0
    5.4589    1.6911  -18.4131 N   0  0  0  0  0  0  0  0  0  0  0  0
    4.3579    5.6913  -17.5058 N   0  0  0  0  0  0  0  0  0  0  0  0
    7.7138    2.0430  -18.5272 O   0  0  0  0  0  0  0  0  0  0  0  0
    4.3774    7.7858  -13.4806 O   0  0  0  0  0  0  0  0  0  0  0  0
    3.8214    4.6150  -19.9761 O   0  0  0  0  0  0  0  0  0  0  0  0
    8.4527   -0.1172  -22.3913 F   0  0  0  0  0  0  0  0  0  0  0  0
    4.9367   -3.0072  -20.9089 F   0  0  0  0  0  0  0  0  0  0  0  0
    9.6452    7.3977  -18.3287 H   0  0  0  0  0  0  0  0  0  0  0  0
    7.9990    6.4431  -16.7414 H   0  0  0  0  0  0  0  0  0  0  0  0
    8.8777    8.6776  -20.3078 H   0  0  0  0  0  0  0  0  0  0  0  0
    4.7880    7.9437  -19.1802 H   0  0  0  0  0  0  0  0  0  0  0  0
    6.7907    1.8264  -21.7713 H   0  0  0  0  0  0  0  0  0  0  0  0
    3.6495   -0.7797  -20.3735 H   0  0  0  0  0  0  0  0  0  0  0  0
    7.3201   -2.4480  -21.8947 H   0  0  0  0  0  0  0  0  0  0  0  0
    5.7018    9.3422  -16.1497 H   0  0  0  0  0  0  0  0  0  0  0  0
    4.1447    9.6636  -15.3137 H   0  0  0  0  0  0  0  0  0  0  0  0
    6.6835    6.6266  -13.6243 H   0  0  0  0  0  0  0  0  0  0  0  0
    7.3150    7.5085  -15.0561 H   0  0  0  0  0  0  0  0  0  0  0  0
    3.3646    7.3802  -15.8604 H   0  0  0  0  0  0  0  0  0  0  0  0
    3.8147    8.2793  -17.3489 H   0  0  0  0  0  0  0  0  0  0  0  0
    6.5395    5.3134  -15.7829 H   0  0  0  0  0  0  0  0  0  0  0  0
    4.9570    5.5480  -14.9661 H   0  0  0  0  0  0  0  0  0  0  0  0
    6.0011    9.0552  -13.7365 H   0  0  0  0  0  0  0  0  0  0  0  0
    8.1151    0.2291  -16.8582 H   0  0  0  0  0  0  0  0  0  0  0  0
    6.5845    0.6422  -16.0138 H   0  0  0  0  0  0  0  0  0  0  0  0
    6.5811   -0.5745  -17.3353 H   0  0  0  0  0  0  0  0  0  0  0  0
    5.5879    8.5727  -23.1117 H   0  0  0  0  0  0  0  0  0  0  0  0
    6.8712    7.5232  -22.4203 H   0  0  0  0  0  0  0  0  0  0  0  0
    5.1855    7.3998  -21.8121 H   0  0  0  0  0  0  0  0  0  0  0  0
    6.8987   10.6422  -22.6001 H   0  0  0  0  0  0  0  0  0  0  0  0
    7.5291   10.9273  -20.9425 H   0  0  0  0  0  0  0  0  0  0  0  0
    8.2266    9.6184  -21.9559 H   0  0  0  0  0  0  0  0  0  0  0  0
    4.6276   10.4710  -21.7597 H   0  0  0  0  0  0  0  0  0  0  0  0
    4.1799    9.2976  -20.4756 H   0  0  0  0  0  0  0  0  0  0  0  0
    5.1760   10.7363  -20.0700 H   0  0  0  0  0  0  0  0  0  0  0  0
    4.1574    2.5137  -21.4622 H   0  0  0  0  0  0  0  0  0  0  0  0
    3.3488    1.5159  -20.2064 H   0  0  0  0  0  0  0  0  0  0  0  0
    5.2734    3.8556  -17.0453 H   0  0  0  0  0  0  0  0  0  0  0  0
    6.0347    4.7779  -18.3856 H   0  0  0  0  0  0  0  0  0  0  0  0
    5.9909    3.0515  -19.9425 H   0  0  0  0  0  0  0  0  0  0  0  0
    3.3525    3.3044  -18.4166 H   0  0  0  0  0  0  0  0  0  0  0  0
    4.7279    1.1935  -17.9462 H   0  0  0  0  0  0  0  0  0  0  0  0
    3.6198    5.4162  -16.8898 H   0  0  0  0  0  0  0  0  0  0  0  0
    3.9692    6.1218  -18.3204 H   0  0  0  0  0  0  0  0  0  0  0  0
    4.7253    7.4065  -12.6821 H   0  0  0  0  0  0  0  0  0  0  0  0
    3.2893    4.1379  -20.6020 H   0  0  0  0  0  0  0  0  0  0  0  0
  1  2  2  0
  1  3  1  0
  2  8  1  0
  3  9  2  0
  4  8  2  0
  4  9  1  0
  5 10  2  0
  5 11  1  0
  6 10  1  0
  6 12  2  0
  7 11  2  0
  7 12  1  0
  8 19  1  0
  9 28  1  0
 10 24  1  0
 11 34  1  0
 12 35  1  0
 13 20  1  0
 13 29  1  0
 13 31  2  0
 14 16  1  0
 14 18  1  0
 15 17  1  0
 15 18  1  0
 16 19  1  0
 17 19  1  0
 18 32  1  0
 19 30  1  6
 21 28  1  0
 22 28  1  0
 23 28  1  0
 24 26  1  0
 25 27  1  0
 25 30  1  0
 26 27  1  0
 26 29  1  0
 27 33  1  0
  1 36  1  0
  2 37  1  0
  3 38  1  0
  4 39  1  0
  5 40  1  0
  6 41  1  0
  7 42  1  0
 14 43  1  0
 14 44  1  0
 15 45  1  0
 15 46  1  0
 16 47  1  0
 16 48  1  0
 17 49  1  0
 17 50  1  0
 18 51  1  1
 20 52  1  0
 20 53  1  0
 20 54  1  0
 21 55  1  0
 21 56  1  0
 21 57  1  0
 22 58  1  0
 22 59  1  0
 22 60  1  0
 23 61  1  0
 23 62  1  0
 23 63  1  0
 24 64  1  0
 24 65  1  0
 25 66  1  0
 25 67  1  0
 26 68  1  6
 27 69  1  1
 29 70  1  0
 30 71  1  0
 30 72  1  0
 32 73  1  0
 33 74  1  0
M  CHG  1  30   1
M  END
>  <OMEGA_C>  (55) 
qWoJQdpd8UCu/JPB/Pz0QDJL4EAUwozBQXQCQVM5BEFo+ZzBvQK7QID7+0Dmt5fB0lLNQEnEVD+U
qKzBTEGUQCr5JL/MY6bBWMjWQNosy79ORK3BTIXIQJyt5kBaXI7BkKHYQOE8B0Fl4p7B1yCkQNZK
Jz9XPajBgbzmQH/ok77JFq/Bi3CtQJS44b9o+qjBfIrYQJI8vD9o+4/BHjGcQJ05DkFrMHnBAiHN
QFGB40CLL2nBvmWGQEIN+kDEb4PBWbC4QAqkwUAaH3jBg1yuQHxlBEEAfWTB3B2mQGTY1UCygYbB
2/jgQLzGuj7H14fBNoi+QJRlAUF5j7HBfb/pQM2QIkFKlq3BqOqeQPSfH0HFsqbBKj2KQBbw7D+U
y6TBeIqiQBzEj0C4XY/B5KWiQGVaJ0DTApzBX0SHQCsJb0DyaJfBvlLIQBybEkH/B6nB7q6uQKh1
2D8WTpPBHnSLQHQftkDkC4zBXtf2QPTAAkDCN5TBChSMQFwl+UC2sFfBl5J0QDmuk0Ajz5/BZT4H
QdAK8L1bIbPBjPmdQHd2QMBpRafB31IaQT+67EA1oZLB1ff/QI8tzkBz7oXBMgsOQWTXCkFudqLB
sjeZQOwy/kACcZnBvE3ZQJXG6T+bK67ByJBpQDmaR7/y/KLBED7qQKWrHMA/KK/B5nS2QIl5FUGF
MoHBRKGEQCyeGkHzBHXBBN/VQDoN1EAY/VnBYxTqQFpF8EDz5XDB01VXQHwq7EAsxH3BmyN0QB14
BEGOyorBVEPRQHMHqkD1hnzBYZ+eQJGJsUAVdW/BqAjAQPrhEEGSyFvBhNcBQX+Raj6c3YbBn7TS
QM9nJD84HIDBm5jSQNYPE7+ororB28+yQKYpCUHO5LjB5+DbQPC98EDTXLPBw++lQIDL7EA3f67B
0MHcQGFGKkHvzLTBsu7wQDbWLkE0iqfB/Z8DQfbkGUG4pa/BkhWUQGGJJ0HsE67BqcGFQNrCFEEd
zqPB5qGlQLnHK0FHj6DBqAmFQOXgIECosqvBSVJWQEwKwj+spqHBqb+oQJHCdkCtXIjBQhzBQFLk
mEC4FZPBsrW/QEtLQ0BLip/BoI9WQBF7U0AxVZPBvEqXQJXDmD/HkY/BZKpnQG5RrUBfHofBFgh+
QMHlw0BFkJLB/TWXQAYC7UAV6krBgIRSQNpphED20KTBWYMJQeYl8UDG8JPBcxH1QBIB4EDQwIzB
+p0CQfonBEHZ7JzB7T67QCnE+0A4wJfBNOiTQNytJL9wUKbBFhzNQObbUj+po6zBqozWQL40zL+3
CK3B6Z/IQNp05kDNYo7BXvjYQHohB0EN4p7BUtijQITiJj+xP6jBpyWtQOgB4r+axKjBDJDmQJxc
mb73767BiuPYQNgovj8XBpDBbjmcQGA1DkGtUHnBQRDNQPVz40D/Q2nBKnCGQBcK+kC9gYPB25i4
QDuUwUDELXjBSE+uQHRhBEHPmGTBsB2mQIjB1UDAi4bB+XnhQGJpxj5K1IfBVRG9QGh/AUEUbLHB
YNLqQGLxIUEdwq3BV2SgQL5aIEHzeqbB5B+KQKA07T8/1KTBYpSiQNfDj0Bza4/BVrGiQPp4J0D7
EJzBLj6HQK3UbkCga5fBJLHIQGifEkHB/ajBVwCvQPzG2D/VYJPBRXCLQMQKtkCBE4zBXRn3QNcg
BECcPpTBsvaLQP4p+UDz0lfB4M5zQHuCk0AezJ/Bd8OdQPFxQMDn56bB1D8HQY5nCL5L4LLB4mga
Qet/7ECRjZLBafD/QBHHzUAe74XBtz4OQdvVCkHeX6LBgnqZQM77/UBbgZnB77FoQLwWRr+G86LB
yhvZQKOL6D8KO67BOQPqQPNZHcBg2K7BdIi2QDlxFUE9QIHBlKyEQEidGkHwKnXBP8vVQBII1EAI
D1rB6wXqQLIu8EAZ/HDBfUFXQNo57EA28H3BIHN0QEZ2BEGm34rBoCLRQNfnqUA6jXzBGHueQOWN
sUAMhG/Ba/m/QArdEEEQ4lvBWRoCQehyhj75zIbBdPbSQBNkKj9+IIDBcHHTQBrEDr9CporBP1ex
QOphCUEZubjBDKHZQBHl70BmVbPB0vWjQMvu7UDtNa7B1tLdQJfEKUGO8LTBqEbzQCErLkGHyqfB
WMgDQQbAGEG666/BlniVQIFdKEEo063B88SGQH3zFUEmbKPBe3CoQIl0LEFJaqDBf/qEQGLmIEC+
vqvB1QhWQDzzwj9Dq6HBRwCpQILVdkC4a4jBcwrBQI78mEDVLZPBuJ+/QMCtQ0AioZ/BQtxWQI/2
UkBjTZPBob+XQJPPlz+ZrI/BLsVnQCorrUDNIofB69B9QPvTw0CnlJLB9wmXQGsG7UAxCUvBNqlR
QL8nhEAkx6TB

>  <OMEGA_E>  (55) 
EJhKPsDWSj4=

>  <OMEGA_NBR>  (55) 
    197877

$$$$
50212937
     RDKit          3D

 76 78  0  0  1  0  0  0  0  0999 V2000
    8.5958    7.6649  -18.4877 C   0  0  0  0  0  0  0  0  0  0  0  0
    7.6730    7.0842  -17.6011 C   0  0  0  0  0  0  0  0  0  0  0  0
    8.1461    8.4091  -19.5919 C   0  0  0  0  0  0  0  0  0  0  0  0
    5.8464    7.9468  -18.9535 C   0  0  0  0  0  0  0  0  0  0  0  0
    6.3152    0.8100  -21.5952 C   0  0  0  0  0  0  0  0  0  0  0  0
    4.6291   -0.6809  -20.6412 C   0  0  0  0  0  0  0  0  0  0  0  0
    6.6582   -1.6013  -21.6318 C   0  0  0  0  0  0  0  0  0  0  0  0
    6.2798    7.2482  -17.8089 C   0  0  0  0  0  0  0  0  0  0  0  0
    6.7588    8.5770  -19.8259 C   0  0  0  0  0  0  0  0  0  0  0  0
    5.0752    0.6174  -20.9507 C   0  0  0  0  0  0  0  0  0  0  0  0
    7.1099   -0.2992  -21.9277 C   0  0  0  0  0  0  0  0  0  0  0  0
    5.4157   -1.7903  -20.9919 C   0  0  0  0  0  0  0  0  0  0  0  0
    6.7700    1.4475  -17.9481 C   0  0  0  0  0  0  0  0  0  0  0  0
    5.4365    8.7794  -13.1773 C   0  0  0  0  0  0  0  0  0  0  0  0
    5.7793    5.9744  -15.5827 C   0  0  0  0  0  0  0  0  0  0  0  0
    4.1870    7.7456  -16.4378 C   0  0  0  0  0  0  0  0  0  0  0  0
    6.3653    6.9917  -14.6023 C   0  0  0  0  0  0  0  0  0  0  0  0
    4.8562    8.7867  -15.5669 C   0  0  0  0  0  0  0  0  0  0  0  0
    5.2078    6.6617  -16.8591 C   0  0  0  0  0  0  0  0  0  0  0  0
    7.0299    0.3815  -16.8870 C   0  0  0  0  0  0  0  0  0  0  0  0
    6.1069    8.2649  -22.2150 C   0  0  0  0  0  0  0  0  0  0  0  0
    7.2022   10.4349  -21.5308 C   0  0  0  0  0  0  0  0  0  0  0  0
    4.8497    9.9624  -20.8340 C   0  0  0  0  0  0  0  0  0  0  0  0
    4.2720    1.8042  -20.5077 C   0  0  0  0  0  0  0  0  0  0  0  0
    5.1242    4.5062  -17.9758 C   0  0  0  0  0  0  0  0  0  0  0  0
    5.0762    2.5822  -19.4575 C   0  0  1  0  0  0  0  0  0  0  0  0
    4.2440    3.7283  -18.9192 C   0  0  2  0  0  0  0  0  0  0  0  0
    6.2389    9.3043  -21.0809 C   0  0  0  0  0  0  0  0  0  0  0  0
    5.4254    8.1101  -14.3897 N   0  0  0  0  0  0  0  0  0  0  0  0
    6.4692    8.5752  -12.2831 N   0  0  0  0  0  0  0  0  0  0  0  0
    5.4577    1.6896  -18.3415 N   0  0  0  0  0  0  0  0  0  0  0  0
    4.3955    5.6951  -17.5794 N   0  0  0  0  0  0  0  0  0  0  0  0
    7.7192    1.9685  -18.5242 O   0  0  0  0  0  0  0  0  0  0  0  0
    4.5129    9.5199  -12.8626 O   0  0  0  0  0  0  0  0  0  0  0  0
    3.8254    4.5782  -19.9896 O   0  0  0  0  0  0  0  0  0  0  0  0
    8.3054   -0.1125  -22.5301 F   0  0  0  0  0  0  0  0  0  0  0  0
    4.9791   -3.0366  -20.7070 F   0  0  0  0  0  0  0  0  0  0  0  0
    9.6552    7.5389  -18.3198 H   0  0  0  0  0  0  0  0  0  0  0  0
    8.0266    6.5100  -16.7575 H   0  0  0  0  0  0  0  0  0  0  0  0
    8.8621    8.8555  -20.2660 H   0  0  0  0  0  0  0  0  0  0  0  0
    4.7894    8.0011  -19.1682 H   0  0  0  0  0  0  0  0  0  0  0  0
    6.6526    1.8081  -21.8325 H   0  0  0  0  0  0  0  0  0  0  0  0
    3.6854   -0.8237  -20.1358 H   0  0  0  0  0  0  0  0  0  0  0  0
    7.2644   -2.4554  -21.8955 H   0  0  0  0  0  0  0  0  0  0  0  0
    6.5708    5.2712  -15.8812 H   0  0  0  0  0  0  0  0  0  0  0  0
    4.9692    5.4236  -15.0822 H   0  0  0  0  0  0  0  0  0  0  0  0
    3.3681    7.2737  -15.8751 H   0  0  0  0  0  0  0  0  0  0  0  0
    3.7813    8.2314  -17.3375 H   0  0  0  0  0  0  0  0  0  0  0  0
    6.5602    6.4956  -13.6400 H   0  0  0  0  0  0  0  0  0  0  0  0
    7.3084    7.3847  -15.0098 H   0  0  0  0  0  0  0  0  0  0  0  0
    5.6572    9.2853  -16.1325 H   0  0  0  0  0  0  0  0  0  0  0  0
    4.1156    9.5334  -15.2445 H   0  0  0  0  0  0  0  0  0  0  0  0
    8.1134    0.2221  -16.7841 H   0  0  0  0  0  0  0  0  0  0  0  0
    6.6153    0.7142  -15.9239 H   0  0  0  0  0  0  0  0  0  0  0  0
    6.5478   -0.5604  -17.1879 H   0  0  0  0  0  0  0  0  0  0  0  0
    5.7364    8.7594  -23.1251 H   0  0  0  0  0  0  0  0  0  0  0  0
    7.0904    7.8154  -22.4166 H   0  0  0  0  0  0  0  0  0  0  0  0
    5.3998    7.4788  -21.9113 H   0  0  0  0  0  0  0  0  0  0  0  0
    6.7966   10.9280  -22.4265 H   0  0  0  0  0  0  0  0  0  0  0  0
    7.3051   11.1725  -20.7212 H   0  0  0  0  0  0  0  0  0  0  0  0
    8.1879   10.0057  -21.7632 H   0  0  0  0  0  0  0  0  0  0  0  0
    4.5154   10.4695  -21.7511 H   0  0  0  0  0  0  0  0  0  0  0  0
    4.1205    9.1866  -20.5575 H   0  0  0  0  0  0  0  0  0  0  0  0
    4.9314   10.6962  -20.0185 H   0  0  0  0  0  0  0  0  0  0  0  0
    4.0657    2.4539  -21.3711 H   0  0  0  0  0  0  0  0  0  0  0  0
    3.3221    1.4648  -20.0690 H   0  0  0  0  0  0  0  0  0  0  0  0
    5.3574    3.8962  -17.0906 H   0  0  0  0  0  0  0  0  0  0  0  0
    6.0587    4.7900  -18.4821 H   0  0  0  0  0  0  0  0  0  0  0  0
    5.9823    2.9872  -19.9320 H   0  0  0  0  0  0  0  0  0  0  0  0
    3.3759    3.3297  -18.3736 H   0  0  0  0  0  0  0  0  0  0  0  0
    6.4564    9.0293  -11.3922 H   0  0  0  0  0  0  0  0  0  0  0  0
    7.2298    7.9733  -12.5265 H   0  0  0  0  0  0  0  0  0  0  0  0
    4.7257    1.2309  -17.8377 H   0  0  0  0  0  0  0  0  0  0  0  0
    3.6361    5.4188  -16.9904 H   0  0  0  0  0  0  0  0  0  0  0  0
    4.0361    6.1349  -18.4025 H   0  0  0  0  0  0  0  0  0  0  0  0
    3.2703    4.0884  -20.5849 H   0  0  0  0  0  0  0  0  0  0  0  0
  1  2  2  0
  1  3  1  0
  2  8  1  0
  3  9  2  0
  4  8  2  0
  4  9  1  0
  5 10  2  0
  5 11  1  0
  6 10  1  0
  6 12  2  0
  7 11  2  0
  7 12  1  0
  8 19  1  0
  9 28  1  0
 10 24  1  0
 11 36  1  0
 12 37  1  0
 13 20  1  0
 13 31  1  0
 13 33  2  0
 14 29  1  0
 14 30  1  0
 14 34  2  0
 15 17  1  0
 15 19  1  0
 16 18  1  0
 16 19  1  0
 17 29  1  0
 18 29  1  0
 19 32  1  0
 21 28  1  0
 22 28  1  0
 23 28  1  0
 24 26  1  0
 25 27  1  0
 25 32  1  0
 26 27  1  0
 26 31  1  0
 27 35  1  0
  1 38  1  0
  2 39  1  0
  3 40  1  0
  4 41  1  0
  5 42  1  0
  6 43  1  0
  7 44  1  0
 15 45  1  0
 15 46  1  0
 16 47  1  0
 16 48  1  0
 17 49  1  0
 17 50  1  0
 18 51  1  0
 18 52  1  0
 20 53  1  0
 20 54  1  0
 20 55  1  0
 21 56  1  0
 21 57  1  0
 21 58  1  0
 22 59  1  0
 22 60  1  0
 22 61  1  0
 23 62  1  0
 23 63  1  0
 23 64  1  0
 24 65  1  0
 24 66  1  0
 25 67  1  0
 25 68  1  0
 26 69  1  6
 27 70  1  1
 30 71  1  0
 30 72  1  0
 31 73  1  0
 32 74  1  0
 32 75  1  0
 35 76  1  0
M  CHG  1  32   1
M  END
>  <OMEGA_C>  (56) 
jogJQRJH9UDa5pPBiYn1QGGx4kAlz4zBc1YCQYuLBkE9vJzB+xW7QOVL/kCtoJfBNxbKQGdZTz8P
w6zB+SGUQFdQLr8kIaXBqA/VQED4zL/sDa3B1vPIQKLx50CgeI7BMUjYQDM7CUGFm57B22eiQE8L
Hj/xmqfBD4TjQDYumb75a6/BiE2tQF4o5b9c76fBA6TYQGFIuT/BlY/B6fetQHN4DEEx1lLB4O+4
QO8tv0CmUnnB//uFQLfb90CxgIPBKLDLQES830DXomnBU2abQHiWDEEsEnnBXaamQLMs1UCJ34bB
tPTgQJZOwz59GIfBgWvDQO48BEFfuLHBBnjmQF/1JkEFP6zBpjCbQCZmH0ELrKbBJLSIQF/w5j/e
D6TBjPmjQAEzkEBvzo/BiXCiQGdDJUD1qJvBjc6HQNybbkB6WpfB9aTHQIveFEHGpajBIJ2tQMjC
AUFKPGbB/QPPQAw0CUFih0TBQKWuQLFD2D9bu5LBFKiMQE4+tkCaoozB0wP3QHz4+z+DMZTB1WmQ
QJRRGEFfzU3B8tN0QLeAkkCd6p/B1+IEQZx25r2iPbTBc1SfQM5XQsDwp6XB2XsaQX4+8UACj5LB
72wAQVRS0EBHD4bBVMsNQUiwDUG4IKLBxEKZQJIEAEGHWJnBPuLUQK9v5z/oqK7BvN1rQEbcUr8w
FqHBuXXoQKYkHcD2Ka/BykPSQN2tqECSGX7B9AOfQDyOrUCZUHHB3o5XQPzB6EBVAH7BewFyQJ2z
A0FEs4rB1OzRQODbz0CdPVrBGN7pQHNP7EBPKHDB7Ae1QIWQFEFoD4HBDLODQNGIGEGT6XPBg9AB
QSt6Yz7tRYbBlrDTQNXUNj9nyH7B34fRQDh2D7/CgInBqpC3QH8mDEErALnBteTiQPIX+kAxVbPB
f8usQKFS70BYSq/BF37ZQDnZLkGJabPB+sLpQHbCMkEGxaXBswEDQTwXIEEQG67BxH2QQASDJ0FS
Aq7BatuDQHb8EkG7daTBW86dQHAjK0H5JaDB1hmCQD4MHUAA+KrBgZ1UQJN9uz9HjaDBkm+rQCNb
eUCluYjBjODBQFhHmUBD25PBwG6/QPwtP0CvdJ/BHA9YQFQaVUAY/ZLBnprOQAp4EEFuRjbBQFrn
QAol/0CNbEjBBDmXQNeMnT+Ps47BerVoQDdnrUBP7IfB1CeBQM1QxEA/OJPB2ExRQGPUgkDoraTB

>  <OMEGA_E>  (56) 
IH2EPg==

>  <OMEGA_NBR>  (56) 
    199430

$$$$
50214045
     RDKit          3D

 68 71  0  0  1  0  0  0  0  0999 V2000
    8.5168    7.5586  -18.6026 C   0  0  0  0  0  0  0  0  0  0  0  0
    5.7567   10.3247  -22.9286 C   0  0  0  0  0  0  0  0  0  0  0  0
    8.0016    8.2636  -19.7036 C   0  0  0  0  0  0  0  0  0  0  0  0
    7.6426    7.0423  -17.6232 C   0  0  0  0  0  0  0  0  0  0  0  0
    6.4897    9.3239  -22.1505 C   0  0  0  0  0  0  0  0  0  0  0  0
    5.7459    7.9202  -18.8569 C   0  0  0  0  0  0  0  0  0  0  0  0
    6.3223    0.6868  -21.6163 C   0  0  0  0  0  0  0  0  0  0  0  0
    4.5766   -0.6788  -20.5874 C   0  0  0  0  0  0  0  0  0  0  0  0
    6.5656   -1.7377  -21.5206 C   0  0  0  0  0  0  0  0  0  0  0  0
    4.7699   10.9467  -22.2004 C   0  0  0  0  0  0  0  0  0  0  0  0
    6.6102    8.4452  -19.8137 C   0  0  0  0  0  0  0  0  0  0  0  0
    6.2392    7.2452  -17.7338 C   0  0  0  0  0  0  0  0  0  0  0  0
    5.0742    0.5843  -20.9659 C   0  0  0  0  0  0  0  0  0  0  0  0
    7.0684   -0.4738  -21.8898 C   0  0  0  0  0  0  0  0  0  0  0  0
    5.3180   -1.8391  -20.8724 C   0  0  0  0  0  0  0  0  0  0  0  0
    6.0340    9.2535  -20.8627 C   0  0  0  0  0  0  0  0  0  0  0  0
    6.7851    1.5458  -17.9902 C   0  0  0  0  0  0  0  0  0  0  0  0
    5.4344    8.0910  -14.1309 C   0  0  0  0  0  0  0  0  0  0  0  0
    4.8720    8.7948  -15.3750 C   0  0  0  0  0  0  0  0  0  0  0  0
    6.4385    6.9903  -14.5169 C   0  0  0  0  0  0  0  0  0  0  0  0
    4.1993    7.7643  -16.2859 C   0  0  0  0  0  0  0  0  0  0  0  0
    5.8193    5.9749  -15.5031 C   0  0  0  0  0  0  0  0  0  0  0  0
    5.2019    6.6677  -16.7537 C   0  0  0  0  0  0  0  0  0  0  0  0
    7.0306    0.5066  -16.9001 C   0  0  0  0  0  0  0  0  0  0  0  0
    4.3123    1.8320  -20.5944 C   0  0  0  0  0  0  0  0  0  0  0  0
    5.1528    4.5751  -18.0457 C   0  0  0  0  0  0  0  0  0  0  0  0
    5.1122    2.6337  -19.5518 C   0  0  1  0  0  0  0  0  0  0  0  0
    4.2828    3.7966  -19.0171 C   0  0  2  0  0  0  0  0  0  0  0  0
    5.4811    1.7564  -18.4225 N   0  0  0  0  0  0  0  0  0  0  0  0
    4.3847    5.6948  -17.5004 N   0  0  0  0  0  0  0  0  0  0  0  0
    7.7405    2.0737  -18.5495 O   0  0  0  0  0  0  0  0  0  0  0  0
    3.8821    4.6476  -20.0909 O   0  0  0  0  0  0  0  0  0  0  0  0
    8.2654   -0.3748  -22.5101 F   0  0  0  0  0  0  0  0  0  0  0  0
    4.8323   -3.0499  -20.5193 F   0  0  0  0  0  0  0  0  0  0  0  0
    4.6969   10.3379  -20.5797 S   0  0  0  0  0  0  0  0  0  0  0  0
    9.5825    7.4119  -18.5062 H   0  0  0  0  0  0  0  0  0  0  0  0
    5.9684   10.5502  -23.9634 H   0  0  0  0  0  0  0  0  0  0  0  0
    8.6657    8.6615  -20.4567 H   0  0  0  0  0  0  0  0  0  0  0  0
    8.0411    6.4900  -16.7849 H   0  0  0  0  0  0  0  0  0  0  0  0
    7.2909    8.7164  -22.5447 H   0  0  0  0  0  0  0  0  0  0  0  0
    4.6794    8.0353  -18.9827 H   0  0  0  0  0  0  0  0  0  0  0  0
    6.7043    1.6552  -21.9037 H   0  0  0  0  0  0  0  0  0  0  0  0
    3.6268   -0.7555  -20.0791 H   0  0  0  0  0  0  0  0  0  0  0  0
    7.1366   -2.6292  -21.7345 H   0  0  0  0  0  0  0  0  0  0  0  0
    4.1218   11.7179  -22.5898 H   0  0  0  0  0  0  0  0  0  0  0  0
    5.9424    8.8335  -13.4981 H   0  0  0  0  0  0  0  0  0  0  0  0
    4.6040    7.6376  -13.5697 H   0  0  0  0  0  0  0  0  0  0  0  0
    4.1330    9.5490  -15.0667 H   0  0  0  0  0  0  0  0  0  0  0  0
    5.6916    9.2859  -15.9201 H   0  0  0  0  0  0  0  0  0  0  0  0
    7.3155    7.4570  -14.9892 H   0  0  0  0  0  0  0  0  0  0  0  0
    6.7520    6.4581  -13.6067 H   0  0  0  0  0  0  0  0  0  0  0  0
    3.3773    7.2841  -15.7348 H   0  0  0  0  0  0  0  0  0  0  0  0
    3.7961    8.2794  -17.1703 H   0  0  0  0  0  0  0  0  0  0  0  0
    6.6047    5.2800  -15.8351 H   0  0  0  0  0  0  0  0  0  0  0  0
    5.0290    5.4136  -14.9832 H   0  0  0  0  0  0  0  0  0  0  0  0
    8.1130    0.3690  -16.7611 H   0  0  0  0  0  0  0  0  0  0  0  0
    6.5809    0.8513  -15.9572 H   0  0  0  0  0  0  0  0  0  0  0  0
    6.5744   -0.4496  -17.1959 H   0  0  0  0  0  0  0  0  0  0  0  0
    4.1597    2.4489  -21.4923 H   0  0  0  0  0  0  0  0  0  0  0  0
    3.3361    1.5527  -20.1713 H   0  0  0  0  0  0  0  0  0  0  0  0
    5.4711    3.9139  -17.2262 H   0  0  0  0  0  0  0  0  0  0  0  0
    6.0390    4.9590  -18.5723 H   0  0  0  0  0  0  0  0  0  0  0  0
    6.0217    3.0293  -20.0275 H   0  0  0  0  0  0  0  0  0  0  0  0
    3.4043    3.4024  -18.4853 H   0  0  0  0  0  0  0  0  0  0  0  0
    4.7453    1.2836  -17.9377 H   0  0  0  0  0  0  0  0  0  0  0  0
    3.6880    5.3286  -16.8835 H   0  0  0  0  0  0  0  0  0  0  0  0
    3.9408    6.1719  -18.2589 H   0  0  0  0  0  0  0  0  0  0  0  0
    3.3382    4.1585  -20.6971 H   0  0  0  0  0  0  0  0  0  0  0  0
  1  3  2  0
  1  4  1  0
  2  5  1  0
  2 10  2  0
  3 11  1  0
  4 12  2  0
  5 16  2  0
  6 11  2  0
  6 12  1  0
  7 13  2  0
  7 14  1  0
  8 13  1  0
  8 15  2  0
  9 14  2  0
  9 15  1  0
 10 35  1  0
 11 16  1  0
 12 23  1  0
 13 25  1  0
 14 33  1  0
 15 34  1  0
 16 35  1  0
 17 24  1  0
 17 29  1  0
 17 31  2  0
 18 19  1  0
 18 20  1  0
 19 21  1  0
 20 22  1  0
 21 23  1  0
 22 23  1  0
 23 30  1  0
 25 27  1  0
 26 28  1  0
 26 30  1  0
 27 28  1  0
 27 29  1  0
 28 32  1  0
  1 36  1  0
  2 37  1  0
  3 38  1  0
  4 39  1  0
  5 40  1  0
  6 41  1  0
  7 42  1  0
  8 43  1  0
  9 44  1  0
 10 45  1  0
 18 46  1  0
 18 47  1  0
 19 48  1  0
 19 49  1  0
 20 50  1  0
 20 51  1  0
 21 52  1  0
 21 53  1  0
 22 54  1  0
 22 55  1  0
 24 56  1  0
 24 57  1  0
 24 58  1  0
 25 59  1  0
 25 60  1  0
 26 61  1  0
 26 62  1  0
 27 63  1  6
 28 64  1  1
 29 65  1  0
 30 66  1  0
 30 67  1  0
 32 68  1  0
M  CHG  1  30   1
M  END
>  <OMEGA_C>  (57) 
3kQIQajf8UAh0pTB2Ta4QAUyJUHGbbfBuQYAQaQ3BEH6oJ3BT5D0QC1a4UA6/IzBQKvPQIouFUFH
NLHBE963QIxy/UDg2pbBiVDKQHnPLz8y7qzBK3OSQL3GLb8Ps6TBkBnSQA5u3r80KqzBGaOYQLYl
L0F7mrHBtobTQL4fB0F1gp7B0afHQAfZ50DN3o3Bs1+iQJCSFT8ouqfBpTDiQAib8r5gHq/B3iyq
QNBm67+t+qbBMxbBQHYOFEG95qbBeR/ZQCrexT/f64/BWuatQKF0AUFVGGLBc+ebQJa3DEEuAHbB
XgjOQFqw30BeRWjBp2CGQO90+ECHSYLBvze6QKcyv0CGDHjBu3WmQAle1UCSB4bBb/rgQHazAT9W
M4fBPf6JQPB/6j9UwaTBqOOkQN5mkkCYXZDBFJejQPyOKEAgapzB3AyJQFD7ckAbI5jBGGWvQCTT
4D89YZPBRE+MQHk7tkDWAIzBV7L3QL63BEBjZZTBhHR4QCS5lEA/uqDBBT8EQRrmv763FLTBHaKa
QKQxQ8CBJ6TBxUyWQCNoJUFGo6TBwVEZQT0u7UC8DJTBaP2+QHjNKEH5tL/Bu6YKQXCVCkE8p6PB
PKgAQeWtz0CMR4bBB0/pQE92C0GRW7TBrr2VQHmQAEGj3JfBQonWQFLe0z/YOq/BBx1oQMlmQb/x
oaDBKV/kQA1EKMAu4K3BY+WDQGd8O0Hgt7TBUSi+QDRWDUFF+FfBEVSTQIFn9EB+HVnBx0GEQNzI
GEE3EXHBryG2QB6TFEGnuH7B8RjqQMyf7kCX02/BEhDYQGqozkActVnBfSVYQBwX6UDHwXvB7vNy
QHB4BEG1XInB0FnTQCX2qECpXH3BK+2gQGA8rUAfu2/B/M4BQVTovD6zFobBepbSQBrsWT+qUH/B
2GHSQMc05r4okYnBYRyFQE+6HEA78KvB84JVQH29xj+8XqHB/BKvQGx9ekBDz4nBKD/BQDuwnkAF
lJTB+rHAQMPfQUBZOKDBY+BZQGXAWUDy4ZPBztmXQGVLpD9ZgI/B1AdsQDaEqkBsEYfBqzV8QPp/
xUA8EpLBl6RVQNYShUC1k6XBLMQKQTtg8EDNxZHBDpzUQHzrIUEQ8LfBKx8FQfr/AkHqL5vB62r1
QApT4ED5+orBidHkQJ7eHkF/D63B78q+QFOm+kAtKJfBJ5fGQOzFRT8/Ha3B7RCWQAqTR7+EIqTB
OujUQKKzz7/sjq3BneO3QKdWEkE05rrBc8veQIMHBUEi7p3BvIDJQLoH50DrZ43Bho2hQDjHCT/F
8KbBelTgQHGUnL65XbDBmKevQM8A7r9BfqfBS6zSQO1oDUEmPqjBTtfcQHkfxj8jUZDBWbenQAa4
BEHUeWPB1eCaQOU5D0FKwnjB1T3GQAKF40CCCWfB9b+FQNkt/UAPsYPBlnyzQMigwkDUAnfBGa6k
QFqM10AuN4bBHxDoQLjBFT/kRofBBjaHQOIw2j/pB6PBL2WjQFu0kkC+2Y/Bh1eiQP/ZJUA/kJvB
ILCHQD52cEBsW5fBReaxQKc25T9/c5LBniCLQB5XuED8VYzBHzb5QKWb+j+AQJbBgCV0QAI4kkBR
HaDBuvcBQdRLm73KN7bBrZakQFHpR8Af2qTBh1quQORtAEEkjrDBd2sbQckL7EC4vI/BJifeQIX4
LkHQEr3B6lkRQae1CUFhSaDB3jX+QCHGzkCO3oPBXDX8QPcfKUEKTKnBWJmdQL7U/UBPbZnBCivP
QNf34z+rV6/B+2FzQL/Idb8ia5/BsbToQBneHMAADrDBuxmpQC1dEUFqscLBg763QOexEEH5XlnB
8raKQKfh/UB+WFvBqCuEQA5OHEEMoXXBmZK3QPasFUGiU4DBZrzkQCep70BKZW3BmO3LQJSC00B0
n1fBPitSQIB08EBgZH/B0Nx4QIBeBkHSO4vBTSvMQOqTqkCBmHrBMMuXQIToskC1gm/BDFMFQZL/
wj7kYofB8T3fQF2chD+CHn/BhWHWQKF6tr4dXYjBuN54QBguE0Cg7KnBW2tWQPgEqj8yoZ7BXFSs
QJCcfkD+2ojB7X/AQM4QnUB2EZTBarS9QD0/P0A/GaDB7+9XQEpfV0CZ7pLBJCqcQI7ksj81fo3B
CeplQOlprkCzt4fBl9V+QLoGx0AP0JLB4olRQH+0gUAdzqTBmL4JQSzv8ECIpJPBaFOeQFpZK0HR
SbHBdM4CQUGcA0E5vZzBmIb1QAn24EDYQ4zBobqhQGmQG0HzsajBGZa7QCp4/ECOPpfBSuDJQKIr
ND8BBa3BkEKTQLNfMb+/maTBYPnSQA+7278RV6zBm7LEQJn8LkGjTrbBdHrZQPqpBkFjh57B4gXJ
QJBx50BA4I3BDlGiQKc8FD+4qqfBNDXiQPo4476xVK/BcHWrQNWD678A/qbBnebKQPYWFEFgbafB
QxjaQGZ6xz/oFZDBh0KrQLZkAUHlJGLBiPiaQP/dDEHJTnbBwanLQM6e30DA4GfBAmGGQNxf+UDu
yYLB8ZG4QCtzv0AlDnjBRV+mQE/L1UBBO4bBwiDjQEyCAD+/kofBdXiJQKwP6D8gkqTB0GSkQJc2
kkCRTZDBKyqjQBz9J0DxT5zBjFOIQLqCcUBH6ZfB6gewQAkR4D8YWpPB3jWMQGTbtkCeQIzBUA/4
QHMXB0DeoJTBc510QB+mk0Dwc6DBhRIEQayvpb61b7TB1MGcQGvNQ8DTH6TBRzDtQGlXH0Gt6LDB
NqMaQQYH7ED4TJLBZ9qAQOJFM0GXcrPB5VcOQTTYCUGhXaLBajoAQVqbz0CaT4XBwfuGQOhZFkFG
4qPBfcyZQPC3/0CA3pjBlXTVQC3w1j+uVq/BrlVqQMdSSb8Va6DB9pblQEdHJsCqJa7BPCTJQI0s
OkEzzLzBscu6QIkkDUE8l1fByvGPQG049EBBxFnBYRmDQEz1GEHGtnHBoPy1QBC8FEEFZX7BIjzo
QJGH7kDK9G7BCrvUQHFhzkDmN1nBkuJVQNVc6kA+gH3B+252QDgvBUHl+InBQtHRQH/zqEB98HzB
OoaeQB7ArUDiMHDBXfQCQb8wwT54qIbB9jPVQGtVUj8A0H/BOcbUQFbh6L44BIrBcNCDQLB/G0Aj
uKvBizNVQDQZwj8VEqHBqi6uQH95e0CMk4nBIPzAQDCZnUAkk5TBItC/QMFOQkD+OaDB+Z5ZQJVd
V0CUgJPBSv+YQLj7oT8DYY/BlUVqQB74q0CJbIfBHgV+QN4HxkCSeZLBTodRQBujg0BIMqXBD5gL
QVVS9UA2BI/BjDTAQFwCK0H1OrPBAV4HQeahBUGOlJjBwkf1QBnM5EAc44jBdIjAQPEdJEFZ9KfB
GQPCQAUZAUGKoJXBirmkQIJXaT2CLq7BzhOdQOkyZ7/oTpzBtcO/QEIMDMCzd6rBBXjaQJS4HkHl
kLnBPi3kQPfLCEFA7ZvB+BHKQMx760D/AIzBdy6WQEK6KD4uhaPBQjW5QM2Wj785q7HBWtOxQBzx
BMCkxp/Btu3bQJo7E0ENO6bBsjznQP8L5j9cGpPB6megQGAtAEGlEl/B/FuVQLYDDUFIYHPBQL3A
QIqc3EDjB2TBOoSDQNE2/EBSdoLBU+6wQNNIv0B9enbB3uijQAlV2EDupIXBnJD9QLN/jz9KqInB
rVeAQMI5uD/XuZ/Buc2lQARzlUAJ2JDBaw2hQAWEH0BNqpvBUxSJQDyncEA5upfB4M66QKno9D8J
5pLBdUuMQIpdukAk3IzBRjn8QNJ+B0Ae/5rBjTZ1QBobkED+zaDBnozGQKlqnb+K7rvBGki4QGM/
RsAX2ZjBy5P0QAYmC0EIF7LB3+YbQawe8UAGXIzBqmmtQKQ/OEGEMLbBoW0UQYalC0E0X53BZCr8
QKjJ0kB6t4HBonatQDJ5K0EjwqHBVW6hQIzfA0ESJ5jBvyegQCPfYD9qrLPB3GmSQK6hUb8VHpTB
23fPQN7GRcDrJK3BzmfeQDPrIEFCFMLB4EquQMoNC0GnGlPB/feCQMz78UCkoVjBhVl6QN8sGUFw
a2/BJXGyQFbtFEHiWXnBW2DfQMU060CNtGjBtmLFQHQUyUACk1XBBQpMQOsg7UCW+n7BKFZ4QIq7
B0HHmInBBcXKQPnSqEC3kXrBKeWUQINIrUC/zHDBFu4PQSFFgT/ebYvB94n5QPVt3j+jcILB/Vnv
QHQlBD4PTojBlVNcQCdw7z/KbKbBP5dUQIYymD8YKpnBNk6yQJMkg0AcAorBFqXAQG9CoUAotpXB
oiS2QH6OMUAPV6LBKipbQNQ6XEDQ3JLBcl6rQOu6yj/0Z4zBEExmQMTXrkBc1ojBgQiCQE4Cy0Bd
MZPBQa5RQNDyfEAnHqXB

>  <OMEGA_E>  (57) 
5EyCPtjYkD6Y44A+HMsmPw==

>  <OMEGA_NBR>  (57) 
    204056

$$$$
50214046
     RDKit          3D

 62 64  0  0  1  0  0  0  0  0999 V2000
    6.1269    9.2918  -21.0509 C   0  0  0  0  0  0  0  0  0  0  0  0
    8.5287    7.7195  -18.6524 C   0  0  0  0  0  0  0  0  0  0  0  0
    8.0259    8.4269  -19.7593 C   0  0  0  0  0  0  0  0  0  0  0  0
    7.6485    7.1662  -17.7005 C   0  0  0  0  0  0  0  0  0  0  0  0
    5.7522    8.0071  -18.9819 C   0  0  0  0  0  0  0  0  0  0  0  0
    4.5946   -0.6412  -20.8278 C   0  0  0  0  0  0  0  0  0  0  0  0
    6.4371    0.8028  -21.5294 C   0  0  0  0  0  0  0  0  0  0  0  0
    6.6679   -1.6200  -21.6597 C   0  0  0  0  0  0  0  0  0  0  0  0
    6.6361    8.5688  -19.9264 C   0  0  0  0  0  0  0  0  0  0  0  0
    6.2437    7.3210  -17.8387 C   0  0  0  0  0  0  0  0  0  0  0  0
    5.1331    0.6468  -21.0100 C   0  0  0  0  0  0  0  0  0  0  0  0
    5.3585   -1.7730  -21.1598 C   0  0  0  0  0  0  0  0  0  0  0  0
    7.2077   -0.3310  -21.8421 C   0  0  0  0  0  0  0  0  0  0  0  0
    6.7194    1.4077  -17.9378 C   0  0  0  0  0  0  0  0  0  0  0  0
    5.3963    7.9804  -14.1075 C   0  0  0  0  0  0  0  0  0  0  0  0
    4.8724    8.7513  -15.3286 C   0  0  0  0  0  0  0  0  0  0  0  0
    6.4384    6.9359  -14.5327 C   0  0  0  0  0  0  0  0  0  0  0  0
    4.2284    7.7823  -16.3248 C   0  0  0  0  0  0  0  0  0  0  0  0
    5.8661    5.9734  -15.5904 C   0  0  0  0  0  0  0  0  0  0  0  0
    5.2322    6.7089  -16.8265 C   0  0  0  0  0  0  0  0  0  0  0  0
    6.9266    0.2690  -16.9433 C   0  0  0  0  0  0  0  0  0  0  0  0
    4.3396    1.8535  -20.5814 C   0  0  0  0  0  0  0  0  0  0  0  0
    5.1217    4.5335  -17.9632 C   0  0  0  0  0  0  0  0  0  0  0  0
    5.0997    2.6061  -19.4742 C   0  0  1  0  0  0  0  0  0  0  0  0
    4.2575    3.7527  -18.9326 C   0  0  2  0  0  0  0  0  0  0  0  0
    5.7230    9.8887  -21.9675 N   0  0  0  0  0  0  0  0  0  0  0  0
    5.4263    1.6822  -18.3691 N   0  0  0  0  0  0  0  0  0  0  0  0
    4.4009    5.7371  -17.5508 N   0  0  0  0  0  0  0  0  0  0  0  0
    7.6949    1.9451  -18.4519 O   0  0  0  0  0  0  0  0  0  0  0  0
    3.8570    4.6083  -20.0028 O   0  0  0  0  0  0  0  0  0  0  0  0
    4.8363   -3.0072  -20.9877 F   0  0  0  0  0  0  0  0  0  0  0  0
    8.4677   -0.1818  -22.3091 F   0  0  0  0  0  0  0  0  0  0  0  0
    9.5951    7.5995  -18.5311 H   0  0  0  0  0  0  0  0  0  0  0  0
    8.7049    8.8600  -20.4789 H   0  0  0  0  0  0  0  0  0  0  0  0
    8.0463    6.6194  -16.8583 H   0  0  0  0  0  0  0  0  0  0  0  0
    4.6863    8.0997  -19.1297 H   0  0  0  0  0  0  0  0  0  0  0  0
    3.5961   -0.7592  -20.4334 H   0  0  0  0  0  0  0  0  0  0  0  0
    6.8420    1.7917  -21.6861 H   0  0  0  0  0  0  0  0  0  0  0  0
    7.2578   -2.4914  -21.9030 H   0  0  0  0  0  0  0  0  0  0  0  0
    5.8602    8.6885  -13.4050 H   0  0  0  0  0  0  0  0  0  0  0  0
    4.5555    7.4716  -13.6135 H   0  0  0  0  0  0  0  0  0  0  0  0
    4.1236    9.4873  -15.0007 H   0  0  0  0  0  0  0  0  0  0  0  0
    5.7093    9.2722  -15.8167 H   0  0  0  0  0  0  0  0  0  0  0  0
    7.3128    7.4531  -14.9546 H   0  0  0  0  0  0  0  0  0  0  0  0
    6.7460    6.3564  -13.6498 H   0  0  0  0  0  0  0  0  0  0  0  0
    3.3845    7.2765  -15.8328 H   0  0  0  0  0  0  0  0  0  0  0  0
    3.8597    8.3546  -17.1888 H   0  0  0  0  0  0  0  0  0  0  0  0
    6.6798    5.3262  -15.9495 H   0  0  0  0  0  0  0  0  0  0  0  0
    5.0890    5.3562  -15.1159 H   0  0  0  0  0  0  0  0  0  0  0  0
    8.0032    0.0795  -16.8212 H   0  0  0  0  0  0  0  0  0  0  0  0
    6.4908    0.5467  -15.9722 H   0  0  0  0  0  0  0  0  0  0  0  0
    6.4347   -0.6401  -17.3194 H   0  0  0  0  0  0  0  0  0  0  0  0
    4.1939    2.5208  -21.4437 H   0  0  0  0  0  0  0  0  0  0  0  0
    3.3604    1.5303  -20.1983 H   0  0  0  0  0  0  0  0  0  0  0  0
    5.3403    3.9134  -17.0813 H   0  0  0  0  0  0  0  0  0  0  0  0
    6.0640    4.8174  -18.4545 H   0  0  0  0  0  0  0  0  0  0  0  0
    6.0285    3.0148  -19.8988 H   0  0  0  0  0  0  0  0  0  0  0  0
    3.3815    3.3484  -18.4042 H   0  0  0  0  0  0  0  0  0  0  0  0
    4.6697    1.2253  -17.9015 H   0  0  0  0  0  0  0  0  0  0  0  0
    3.6453    5.4634  -16.9556 H   0  0  0  0  0  0  0  0  0  0  0  0
    4.0366    6.1820  -18.3689 H   0  0  0  0  0  0  0  0  0  0  0  0
    3.3149    4.1213  -20.6123 H   0  0  0  0  0  0  0  0  0  0  0  0
  1  9  1  0
  1 26  3  0
  2  3  2  0
  2  4  1  0
  3  9  1  0
  4 10  2  0
  5  9  2  0
  5 10  1  0
  6 11  2  0
  6 12  1  0
  7 11  1  0
  7 13  2  0
  8 12  2  0
  8 13  1  0
 10 20  1  0
 11 22  1  0
 12 31  1  0
 13 32  1  0
 14 21  1  0
 14 27  1  0
 14 29  2  0
 15 16  1  0
 15 17  1  0
 16 18  1  0
 17 19  1  0
 18 20  1  0
 19 20  1  0
 20 28  1  0
 22 24  1  0
 23 25  1  0
 23 28  1  0
 24 25  1  0
 24 27  1  0
 25 30  1  0
  2 33  1  0
  3 34  1  0
  4 35  1  0
  5 36  1  0
  6 37  1  0
  7 38  1  0
  8 39  1  0
 15 40  1  0
 15 41  1  0
 16 42  1  0
 16 43  1  0
 17 44  1  0
 17 45  1  0
 18 46  1  0
 18 47  1  0
 19 48  1  0
 19 49  1  0
 21 50  1  0
 21 51  1  0
 21 52  1  0
 22 53  1  0
 22 54  1  0
 23 55  1  0
 23 56  1  0
 24 57  1  6
 25 58  1  1
 27 59  1  0
 28 60  1  0
 28 61  1  0
 30 62  1  0
M  CHG  1  28   1
M  END
>  <OMEGA_C>  (58) 
UA/EQDCrFEEzaKjBX3UIQfkF90AQOJXBR2oAQZvUBkH3Ep7B3MD0QDBR5UCQmo3BuRG4QPIcAEH9
2pfBwQaTQGYmJL9Gn6bBB/3NQAyDTT81PKzBbF/VQC1dz78DR63BK1vUQK0ZCUFXaZ/BDczHQGtF
6kCYtY7BFUKkQBqUJT+OFKjB3nirQFjx4r9aR6nBlKXmQDJ0qb6tvK7BPgXXQMAwtD+rgI/Bfq6s
QLFf/0BXuGHBDeubQC8FDEEUQnXBxgfOQB/z3UAEhmjBKU+HQEUI+UA0mYLBt7a7QFQmv0BCcnnB
+m2nQJSv1kCpnIbBeqbdQIC/iT7Zi4fBr92KQJ8/7T+0pqTB2uSjQAYSkUCgtI/BGjGjQJjJJkAU
y5vBoj2IQNIrcED1dZfBLSO3QAI4HkFiva/BcKStQDtT1z/o85LBL9SMQDqWt0D2Z4zBbDz2QNf3
+D9knZPB6Nh2QCN3k0CrBaDBy8KaQOx1QMDc5qfB0XsHQWwsOr4QebLBi4UZQYMv80C3P5TBPUcL
QaDCDUG91KPBjr0AQXTS00C83YbBcPaVQFyYAUGKCZnBbyZmQARdQr+ld6PBZfHaQB1W5T87fa3B
qD/oQO5yH8A/Oa/BuYa7QAMEC0EDe1bBZ8aRQP8W70Dc0FnBc/SDQNDLF0HpAnDByLK2QAhbFEFL
EX3BjwLqQCmA7kAARm/BDN/XQKlny0CBZVrB3JtYQPDY6EBaU33ByQR3QIKsBUGagonB8cDVQI9w
qkAtMX/BstiiQENmq0CR2nHBLg0AQcnToj3EkYbB2bTPQBL1Cz8Xjn/B9ejNQDDgI78UjorBFTSG
QJ1UIUCfjKvBnxBXQDriwz8NlqHBo+OqQEF1ekB7pojBgAzCQMEnmkDZopPBrunAQIryQECrMJ/B
gWpYQMlMVkDbO5PB+W2VQA7VnD8/No/BkkxpQHXUrkAjpYfBeCuBQODSxUB285LBmCdUQJDhg0Do
5aTBgK3AQHPwFkGibafB+AIIQcyv9kBrr5XBJx//QPRZB0FJPJ7BS4z0QGRh5EDh+I3BnBS3QL1U
AEFEpJfBT2zOQKSeSD9YLKzBU3eSQE6kIb9NwabB3QDVQPNR0r+A9qzBsYPSQGzfCUGRLJ/B3ILH
QFbb6UBKvo7BbEakQPsYJj+mPajBMeLmQA6Cub4ybq7B5bqqQCRL4796K6nB7qPWQOkttD+ck4/B
IVGtQKAmAEE88GHB2N+bQMolDEEUhnXBhavOQNTQ3kA8vmjB1SuHQL6P+ECphoLB9x+8QFxfv0CC
UHnBjXunQORQ1kAhj4bBhfXcQFQUkj4fdofBKzuLQJJO7z9K8KTB0tWjQAqTkEDmno/BzVGjQBMG
J0Cm9pvBAm6IQEdWcEBtkpfBp5ixQMLgIUFh+a3BpmqtQJhx1j/cK5PBwsuMQMIHt0ApRYzBtwT2
QLwt+T+1mJPBjIB4QBQVlEBsFaDBSNAHQTRUbr7K6rHBdoiZQDslQMA8uafBBBkZQfE/8kCBBpXB
jiEKQaWUDkFXCaTBwe0AQUoW0kDFcIfBAN+UQFm3AUG4p5jBYtrbQGIM4j8Dcq3B0WpkQB3aO7+q
w6PBM7PnQA6EIcDRvq7Bol28QEeuC0GB+VbBlrmSQIce8EDZuFnBLtaDQJTlF0FkTXDBR022QMp6
FEGkoX3Be13qQOlS70Aqzm/BwgDZQIbAzEBcjFrBL0hZQLJG6EAr1nzBA1x1QGAoBUEMdInBJxnW
QMCJqkDmBX/BMXGjQH7Pq0BJdHHBPmH/QLzk2z0gS4bB4FLOQF+bEj8/l3/BAbjNQEkwIr9ScYrB
+XKHQMF5IkDz26vBcgFXQBURyD+bBaLBYlCqQCCYeEC7nIjBNEPCQB+zmUBmaZPBizHBQFc7QUD5
RJ/BqitYQMhhVkA8fJPB9xaVQCtZmj80lI/BQ7lpQGU0rkCscIfBKcuAQHQsxUD3yZLBhC1WQJ3d
hEBWEqXBs5obQfpM+UBOzZbBgk7JQFIJDUGge5/BuCX2QHkwC0FmTZ/B5YSwQMHdAkFhiJfBYinx
QF6J6kDsFo/BOt/OQAhtQz9Wu6vBtqeRQA4oIr9D7KbBWtrTQPW11L8WLa3B+e8EQQxL/kBdIJfB
pBTEQCY07kA+Fo/B+nOkQNKnIz9e96fBiK/mQIiaxr7RN67BIEKpQMkd5L/tlanBqo7VQBDyqj81
Po/BBsavQLor+EDPBmDB0AKdQDXbCUHzEXLBjhfSQGAM2kB+AmnBsaqHQN4I90D8bYHBuuy/QPzB
vUAT83rBy7OnQHoo10BVmIbBlnTaQGy/Uj6XHYfB77OLQLRd7j+io6TBPs+jQNJDkUD0o4/B6qyj
QKN3JkCVpJvBBvOIQDxicUAwm5fBkA8uQYh+9ECIPpbBzZ6sQCSg1j/4rZLBgd+MQDsXuEACY4zB
kpT1QCCQ5z9Hd5PBZK98QAZUlEDIS6DBgNYHQURJir6Gi7HBQxGXQMQaQMA5majBh9u5QNI5FkGO
sqXB1KcEQdbqEkGnXaXBxg+OQHoGBEHS25fByWsAQbJm2EDR3YjBnf/cQA/s3j85s6zBH09iQIAI
Or/OFKTBtRDmQFn7IsA3Ia/BQTm+QMGNBkG53FPBExOWQFEe5UBQr1jBrRSFQBHjFEEuXmvBc9O2
QGsbE0F/qHnB76LsQKVC7UBVcG/BaQHeQGxzxUBAClzBl8NbQJa95EADH3vBTB90QB6zBUEQwIfB
9p7aQO8nrEBLJ4HBHlKpQArspkAdw3PBXZD8QDhiG71FJ4bBPDDNQHNEBj88v37BpyHJQNvgLr+k
9onBiROIQLIeIkDHjavB6M9XQBSaxz+KvqHBp9mpQEBRekCyk4jBaXbCQMMlmkBgWpPBlQPCQIwu
P0Dx3J7B/tRXQHIZWUDyqZPBl7KTQNbFoj9B2Y7BQS5pQJuRr0DJoYfBK1+BQI1MxkD285LBWuRa
QCgshUAOWqXBUOoaQZlp+kBcWJfBF0XHQBGmDUH7cp/BVR/0QEXZC0FGfZ/BOR2vQGhEA0HVcZfB
sWTwQBDw6kD5aI/Bx3+RQGXFIr9r+6bBCbPOQOWTQj9z06vBIdjTQCI/1b8lIK3BvDwEQTM0/0Cv
fJfBMFTDQPWf7kDNKY/BW0GkQBcpIz91E6jBmzmpQAqZ5L/QjanBPZnmQGCuyL74O67BSyrVQIgC
qz/EMI/BF6ywQGt9+EBxHWDBst+cQAnQCUFMCXLBRwHTQJan2kBqWGnB42uHQKl+9kBeTYHBzZTA
QH0MvkC8GnvBBaSnQIQh10DQmYbBc/HZQDRfUD5IFofB8ZmLQKpt7j+6vKTBxSakQIctkUCFq4/B
aKujQO0ZJkDptpvBTDaJQDZUcUAhpZfBAWQtQU+19UAi6ZbB41isQPAF1T/1yJLBbvWMQPXIt0Bu
V4zBnUj1QIxg6T/3Q5PBinZ9QNZplEDzUaDBQDGXQCRrQMA1eKjB7NIHQV67jL4/hLHBtFK3QAT3
FkFiiaXBxmcDQTXDE0HplaXBrqKMQNdoBEEBmpfBVEcAQQZj2EDCV4nBJudhQHJ2Or8+LKTBX8jc
QGN63j+r16zBPiPmQIdJI8CGA6/BG1i/QOjcBkH2JVTBdH2XQNE35UCLeVjBZ9OEQJGsFEFLKmvB
RCK2QAA+E0EP3nnBdyLtQEcb7kCxA3DBP43fQFlCxkABclzBooBcQKDI40AmnXrB2v5xQOJHBUGd
kYfBiTfbQMGfrEBpT4HBaWGqQFMSp0Dot3PBGhL8QE9+7LzW/oXBCRDMQIBNAz/Lxn7BsCDJQE6T
ML+KCYrBeheIQJ9QIkDCo6vBlYFXQH8NyD+E26HB5XOqQNPieUDOpIjBTa3CQC9XmkDXZ5PB/xzC
QHlzPkB96p7BxjtYQJlUWUA0tJPBrVOTQGRDnz9sGY/B7eRpQLP7rkBpiIfB1w+BQC7oxUAR4JLB
mZdbQCRdhUA2Y6XBUkghQW/v9EDY7I/B5t7dQOhhB0HW5Z7B6MsEQRkDBkEKR5zBAsa+QH7s/UAb
5pfBxDv3QEfx5UCC3IvB08GKQKDtOz0aWbLBkonEQEBi4r0WTKXBRXfIQG//sb9d1bXBPB4LQTOq
90BFu5LB5O/KQHvR6UDuLY7B/NicQF4e5T78fKjB/YqgQGs8Xr+VALnBH2XaQERFgb9d96vBe1na
QCsD6D/8AI3BdHmrQMKKAUH072HBS5KcQL51DUFvLXbBBZzLQNKY30B2k2fB1TeIQBR9+0CxIYPB
SFy5QLx8wEBvsXjBhtWnQOV110AiqIbBtvPnQLSkZz9VxIPBzv2DQBzdtD+oUKHBVwOmQE8ekkC1
p5DBWlqhQAkYGEC8y5rBM6WIQKwZaUCvMpfBFkozQZe58kD3i43B0V6xQNR+1D9zPpHBjemNQC0Q
uECZ5ozBo5f0QHKCJECJE5HBfJ1zQA+1i0CgVaDB6x+PQNRxn78tcMLBfE8AQd0pwb9C0qjB3SHU
QMHmDkFFSabBVK8QQS6+DEFvkaHBLUudQBQsAEFz9JnBEKUAQdwu1UBavITBljtYQC6k4T7hy7TB
8RzSQC8EIz59pp3ByUXZQKBBBcB6+LrB3dW6QJIADUE8AlfB1YWPQGKy9EANBVrBQ8yEQCWiGUHS
rHHBuUS4QEJJFUGZtX3BKADpQB9g7kBA1m3B+SXTQPlYzUB9AVnBUSxYQJqW7ECqwH7BLUd8QMu8
BkGXQ4rB+P/SQLJlqkBpiH3B1gOfQAk7rkBDa3HBg/sEQdRpiT9P8oHBGo/UQD4wkT/bT3nBBBzj
QKweFr4gDYbBwmJdQPAlAUCfYabB525hQNPrUj9DqJvBnXGyQJp9gEBts4nB4N3AQEulnEAEs5XB
dGi8QAWYK0DL3p/BEANbQNFlVUD/KZLBXnqdQLIYgz/QlY3B2ctrQLXurUBjQojBcfyBQOkXx0Cf
TZPBlChPQKnOc0DKeqTB

>  <OMEGA_E>  (58) 
aL94PvBMez7g8MA+kAfEPuQ/JD8=

>  <OMEGA_NBR>  (58) 
    209361

$$$$
50214052
     RDKit          3D

 67 70  0  0  1  0  0  0  0  0999 V2000
    8.6103    7.3940  -18.4791 C   0  0  0  0  0  0  0  0  0  0  0  0
    8.1934    8.0262  -19.6585 C   0  0  0  0  0  0  0  0  0  0  0  0
    7.6599    6.9571  -17.5413 C   0  0  0  0  0  0  0  0  0  0  0  0
    5.8693    7.7656  -18.9788 C   0  0  0  0  0  0  0  0  0  0  0  0
    6.4001    0.8127  -21.5811 C   0  0  0  0  0  0  0  0  0  0  0  0
    4.6544   -0.6652  -20.7205 C   0  0  0  0  0  0  0  0  0  0  0  0
    6.7099   -1.6048  -21.6379 C   0  0  0  0  0  0  0  0  0  0  0  0
    5.2003    9.7161  -21.1056 C   0  0  0  0  0  0  0  0  0  0  0  0
    6.9273   10.5045  -22.6939 C   0  0  0  0  0  0  0  0  0  0  0  0
    6.8179    8.2176  -19.9092 C   0  0  0  0  0  0  0  0  0  0  0  0
    6.2749    7.1675  -17.7686 C   0  0  0  0  0  0  0  0  0  0  0  0
    5.1326    0.6334  -20.9853 C   0  0  0  0  0  0  0  0  0  0  0  0
    7.1917   -0.3059  -21.8976 C   0  0  0  0  0  0  0  0  0  0  0  0
    5.4387   -1.7830  -21.0552 C   0  0  0  0  0  0  0  0  0  0  0  0
    6.4021    9.0473  -21.0389 C   0  0  0  0  0  0  0  0  0  0  0  0
    6.8041    1.4618  -18.0507 C   0  0  0  0  0  0  0  0  0  0  0  0
    5.3953    8.2027  -14.1983 C   0  0  0  0  0  0  0  0  0  0  0  0
    4.9508    8.8933  -15.4970 C   0  0  0  0  0  0  0  0  0  0  0  0
    6.3450    7.0317  -14.4927 C   0  0  0  0  0  0  0  0  0  0  0  0
    4.2445    7.8827  -16.4088 C   0  0  0  0  0  0  0  0  0  0  0  0
    5.7151    6.0255  -15.4825 C   0  0  0  0  0  0  0  0  0  0  0  0
    5.1802    6.7011  -16.7874 C   0  0  0  0  0  0  0  0  0  0  0  0
    7.0724    0.4653  -16.9268 C   0  0  0  0  0  0  0  0  0  0  0  0
    4.3194    1.8315  -20.5621 C   0  0  0  0  0  0  0  0  0  0  0  0
    5.0621    4.5382  -17.9477 C   0  0  0  0  0  0  0  0  0  0  0  0
    5.0891    2.6347  -19.4973 C   0  0  1  0  0  0  0  0  0  0  0  0
    4.2226    3.7634  -18.9477 C   0  0  2  0  0  0  0  0  0  0  0  0
    7.3025    9.4459  -22.0242 N   0  0  0  0  0  0  0  0  0  0  0  0
    5.4854    1.7471  -18.3859 N   0  0  0  0  0  0  0  0  0  0  0  0
    4.3337    5.7307  -17.5036 N   0  0  0  0  0  0  0  0  0  0  0  0
    7.7431    2.0532  -18.5733 O   0  0  0  0  0  0  0  0  0  0  0  0
    3.8242    4.6244  -20.0145 O   0  0  0  0  0  0  0  0  0  0  0  0
    8.4134   -0.1328  -22.4501 F   0  0  0  0  0  0  0  0  0  0  0  0
    4.9734   -3.0274  -20.8076 F   0  0  0  0  0  0  0  0  0  0  0  0
    5.3163   10.9957  -22.2551 S   0  0  0  0  0  0  0  0  0  0  0  0
    9.6630    7.2427  -18.2911 H   0  0  0  0  0  0  0  0  0  0  0  0
    8.9252    8.3670  -20.3759 H   0  0  0  0  0  0  0  0  0  0  0  0
    7.9856    6.4574  -16.6409 H   0  0  0  0  0  0  0  0  0  0  0  0
    4.8166    7.8773  -19.1926 H   0  0  0  0  0  0  0  0  0  0  0  0
    6.7614    1.8080  -21.7936 H   0  0  0  0  0  0  0  0  0  0  0  0
    3.6866   -0.8018  -20.2610 H   0  0  0  0  0  0  0  0  0  0  0  0
    7.3152   -2.4642  -21.8856 H   0  0  0  0  0  0  0  0  0  0  0  0
    4.3206    9.4761  -20.5269 H   0  0  0  0  0  0  0  0  0  0  0  0
    7.5394   11.0099  -23.4263 H   0  0  0  0  0  0  0  0  0  0  0  0
    5.9137    8.9345  -13.5613 H   0  0  0  0  0  0  0  0  0  0  0  0
    4.5077    7.8219  -13.6718 H   0  0  0  0  0  0  0  0  0  0  0  0
    4.2584    9.7133  -15.2558 H   0  0  0  0  0  0  0  0  0  0  0  0
    5.8325    9.2984  -16.0152 H   0  0  0  0  0  0  0  0  0  0  0  0
    7.2749    7.4266  -14.9279 H   0  0  0  0  0  0  0  0  0  0  0  0
    6.5731    6.5112  -13.5508 H   0  0  0  0  0  0  0  0  0  0  0  0
    3.3623    7.4857  -15.8854 H   0  0  0  0  0  0  0  0  0  0  0  0
    3.9256    8.3943  -17.3289 H   0  0  0  0  0  0  0  0  0  0  0  0
    6.4781    5.2833  -15.7600 H   0  0  0  0  0  0  0  0  0  0  0  0
    4.8767    5.5196  -14.9813 H   0  0  0  0  0  0  0  0  0  0  0  0
    8.1535    0.4157  -16.7304 H   0  0  0  0  0  0  0  0  0  0  0  0
    6.5488    0.7907  -16.0157 H   0  0  0  0  0  0  0  0  0  0  0  0
    6.7078   -0.5291  -17.2238 H   0  0  0  0  0  0  0  0  0  0  0  0
    4.1302    2.4717  -21.4364 H   0  0  0  0  0  0  0  0  0  0  0  0
    3.3611    1.4924  -20.1418 H   0  0  0  0  0  0  0  0  0  0  0  0
    5.2784    3.8984  -17.0795 H   0  0  0  0  0  0  0  0  0  0  0  0
    6.0063    4.8432  -18.4227 H   0  0  0  0  0  0  0  0  0  0  0  0
    5.9873    3.0678  -19.9617 H   0  0  0  0  0  0  0  0  0  0  0  0
    3.3449    3.3374  -18.4397 H   0  0  0  0  0  0  0  0  0  0  0  0
    4.7608    1.3253  -17.8409 H   0  0  0  0  0  0  0  0  0  0  0  0
    3.5960    5.4424  -16.8931 H   0  0  0  0  0  0  0  0  0  0  0  0
    3.9445    6.1818  -18.3068 H   0  0  0  0  0  0  0  0  0  0  0  0
    3.2994    4.1356  -20.6375 H   0  0  0  0  0  0  0  0  0  0  0  0
  1  2  2  0
  1  3  1  0
  2 10  1  0
  3 11  2  0
  4 10  2  0
  4 11  1  0
  5 12  2  0
  5 13  1  0
  6 12  1  0
  6 14  2  0
  7 13  2  0
  7 14  1  0
  8 15  2  0
  8 35  1  0
  9 28  2  0
  9 35  1  0
 10 15  1  0
 11 22  1  0
 12 24  1  0
 13 33  1  0
 14 34  1  0
 15 28  1  0
 16 23  1  0
 16 29  1  0
 16 31  2  0
 17 18  1  0
 17 19  1  0
 18 20  1  0
 19 21  1  0
 20 22  1  0
 21 22  1  0
 22 30  1  0
 24 26  1  0
 25 27  1  0
 25 30  1  0
 26 27  1  0
 26 29  1  0
 27 32  1  0
  1 36  1  0
  2 37  1  0
  3 38  1  0
  4 39  1  0
  5 40  1  0
  6 41  1  0
  7 42  1  0
  8 43  1  0
  9 44  1  0
 17 45  1  0
 17 46  1  0
 18 47  1  0
 18 48  1  0
 19 49  1  0
 19 50  1  0
 20 51  1  0
 20 52  1  0
 21 53  1  0
 21 54  1  0
 23 55  1  0
 23 56  1  0
 23 57  1  0
 24 58  1  0
 24 59  1  0
 25 60  1  0
 25 61  1  0
 26 62  1  6
 27 63  1  1
 29 64  1  0
 30 65  1  0
 30 66  1  0
 32 67  1  0
M  CHG  1  30   1
M  END
>  <OMEGA_C>  (59) 
t8MJQb6b7EBA1ZPBGRgDQTtrAEGYRJ3Bvh31QEeg3kCeVIzBGtG7QJh/+ECv1JfBRs3MQPMNUD8K
pqzBefCUQCBKKr+Ww6XB2bfWQPNozb+DGq3BLGmmQDZ1G0Eu2KjBWqzdQHUSKEEdjbXBayzaQBt7
A0H5RZ/BYszIQCFc5UAiJo7B+z2kQMskIj/d4afBCyLmQMignL5ELq/BmAmuQEo55L8icajBG97M
QLXBEEGzT6jB47rZQNgauz/YZ5DBEqasQCM+A0FtLGPB9WyeQCZLDkHB83fBNArLQJwD4UAa4mfB
UdOHQFk//EA+RYPBceK2QJbQwEA7uHfBmMSlQItv1kCfTIbBxVDiQFo+7j4ZaofBaziKQJ9t6j9H
f6TB//yhQEA5kUDulI/B99miQEWfKEBl+pvB4x+HQDPbcED3lJfB6a3pQGoiF0GjMbDBXYivQGmg
3z9fFpPBS62KQAxit0BqB4zBKMf3QG1nA0ANlpTB4750QHL7k0CpHaDBep0GQc73B77OmbPBPyaf
QE7BQcD7dabBih+qQD/uL0FtCrLBh5saQevD50A+VJLBxs0OQWjfBUG+AaPBrYn/QEijzkCeIIXB
MCGaQJAS/EB9ipnBWF3YQP1t5z83Wa7BwfBrQD9ATb+HFqLBchbqQPm1HcC1Fa/BhEKKQByeF0ED
N6TBW0LxQGkoMEEMabvBoTy9QILzDkE8+1jB/D6QQChN+kDNv1rB00SIQNJpG0GXF3TB9qO6QGbG
FEEOH4DBocvoQGCm7UDb2G7B51bSQBBc0EBC0FjBZi9XQJeK70C5Kn7BxD17QBNPBkGfoYrBlkzP
QIUQqUAiKXzBTQ6cQKGgsEBPs2/B6HQCQaPc1D7M14XBDZDRQPxrSj88IIDBZ6bWQJFzB79lyonB
+iqEQL0vHkDRfavBJBxXQIIGvz9nIqHBpOioQPJ+eUDSoojBYzPAQNr7mkCeYZPB1Je/QBNXRECU
sZ/BfxJWQPaXVUCQhJPBcliYQDGiqT83uo7B5CRmQDIorkANJYfBY3J8QCDRxUBRdJLBvyhTQJlW
hECEGaXBIa4IQQW1+kAy8pLBdlEBQaE6CEEfA5zB2Q70QIFB50DJ84vBzwO5QGgY/0AzLJfBQj7K
QP2nLz/fq6zB0xCTQNBXNL92bKTBr5nSQNZr3r9ILazBUevbQCP5H0Glcq7BMMCvQLwMB0E8MrnB
8IXWQO7mCEErPJ7B1lHHQCKm6kBNwY3BlaOiQDAbET9TVKfBaEjiQIBh7r4kC6/BuemqQGiK7b9q
5qbBhOPIQF29D0EYx6jBy0/aQMyPuj8AOJDBBiarQFEtAUH9omHBlmmaQErLDEF0oXXBxHTLQOg4
30BPhWfBTYCFQIZp+UCZdYLBQgC5QGXIv0A8R3jBZ8mlQK3H1kDwK4bB50/iQNZ86z5+MYfBzP+J
QLu65j9pMqTBCQGlQJhNk0CrT5DBoN6jQH7fJ0APBJzB3imJQH6AckCp15fB5zauQAHXAkGd8a7B
IEawQDvV4j9D3JLBtDyMQBqzt0ATUIzB83T4QHO06z/nspXBiQt3QPqdk0DXhaDB/zQEQdYZs77E
ELTB3rubQKy8RMAfKaTBNqLPQMRVHUGX07vBJKEZQbzg+EC9U5HB1ocMQYYUEEEkSaHBq6z/QBWG
1UDmIIXB/zeXQLAsAEGl85jBQhTWQAOO1D9y767B5KxpQAJlS79BTKDBnv/kQFDTJ8AnBq7Bfo3v
QBV3LEHODKvB6VafQLDA+0DCQr/BgN66QD7gDEGEGFfBfvuPQIW080CbLFnB3Z+CQK7XGEFJ0nDB
bj61QPS6FEG1zX3BH2HoQItN7kDhIm7BctnTQCJAzUAn+1jBxltVQPu06UBoqHzBA9tyQPtRBUHI
g4nBCNPSQIJfqkDRnH3BDpWfQDzPrECmpXDBFEkCQTtRVz7y4YbBgXjYQDqzZz8VEH/BQKbPQFS3
6L4PqYjBUROEQPeWGkBPWqvB4oVWQBLqwD9inqDBejOvQHZbfkBojonBLFvBQE//nkBOoZTBwbbA
QMQbQUCc85/Bod9aQBBgWUBrbJPB4/GYQEcJsz9tRY7B/vlpQI6JrECgk4fBs4N+QG/YxkCEkZLB
NzRUQABYg0AoPaXBaBcKQYBE7UAB3ZPBoHsDQRSyAUGLEZ3BMLb1QOoT3kBWfYzBbJ+8QDJD+UAw
x5fB8UzNQJw3UT+0hazB/A2UQDZiJL8wHKbB5qrWQBggzb8XxazB5I3lQONXHEEROq/B5XSZQNl+
J0Fxra/BuOzaQG7DBEEKB5/BGGDJQA4o5UAFO47BEQekQMyiJj/1HajBBLnmQCtGnr65wK7B1UKt
QCk94r/CfqjBc9vLQM5QEkFE1qfBOhvZQPMcwT8eGJDBi26rQMAvBEEYHWTBWeebQBFqDkE0E3nB
0v3KQLyg40Cqe2jBT7iGQAvh+kAYmYPBzGq3QBHVwUALrXfBvB2mQA3w1UDEaobBeZXhQE971j5y
04fBGz+KQGWW7T8jy6TBL7eiQEWCkECAko/B1dGiQPGzKEBvIZzB+FuHQBFscEAFk5fB+OSgQN1g
GEElr6jBSymvQLwj3T9JWZPBuVuLQF9atkCL/4vBql33QOYUBEB7fpTB/2h0QDEylEDe/Z/B8lQH
QeQiGL6itLLBBdmdQCVoQMDVjKbBH+DHQCCdLkEperbBwusaQefj50Dfb5LBXjUPQSLUB0H9n6LB
GxEAQWjqzEAVdYXBEPOaQLlC/ECKkpnBqVPZQFh65z8lLa7BSfhoQD/KRL9avqLByRrqQJz1HcDk
hq7BeaIDQRdCGUGIVbDBufF0QIijLkFuDbHBc3u7QHlzEEG9XlrBRq2PQKW7+0BQU1vBkpKEQI8T
G0H9a3XBm1y3QA1fFUFLzoDBBxroQDfO8ECB3W/BPUjTQBEo1EA3OlnBZxdWQLJ47UCkoX7BFqZ3
QFEIBUEXDovBEzXQQHssqkAgs3vBVdScQIvKsUAeY2/BDSYCQb8yjT5S7IbBkLvTQPWVNz9/GIDB
ctPSQF+9Bb9nforBRfWEQIVbIECgxavBAWpWQI6hwz+fk6HBGr6pQOKud0A3q4jB793AQO9RmkDV
ZJPBAbi/QHKaREBHv5/BduZWQCveVEDKdpPBwN+XQGaYnj+Sf4/BOEhoQD/xrEBRBYfBhL58QPh0
xEBKZ5LBZT5SQMzPhEDi9qTB62fIQLRYCkGD6p/Bijz1QJlECkHF2J7BELKuQMV1AEGZDZjBGlHu
QGZR6UCFro7BW1vLQOasLD9cpKzB0S6QQL4HJb9obaXBXszOQCdu4b9U4qzB5VgkQYGE9kAiKIrB
7m45QQXdFkFgh5PBXBoEQW6A/0CuBZbBnJrBQFuh60DkLo/BGa+iQGkSGz+Qx6fBsGvhQA9yAr+F
K6/BZSmmQDjg6b/PBKjB/bsaQYBBA0G6RJPBEqfXQEEHtD8AeY/BWbKxQOIC/EBlpWDBRBGeQPHq
CkFYI3PBblbSQFvJ20AtRWnBJs6GQF/j90DhbYHBze69QGk+vkAmMHrBSJKlQAh11kCzaYbBxAbd
QErYnT5RFofB1qaLQBY57z9ir6TBBlOkQO/OkUAh14/BNfqkQL7hJ0B0BZzBDmOKQMVSc0BXB5jB
qq8nQQ8IEkFpl5jB1JGuQETH2z/A+pLBckmLQKlptkDA7IvBLHn3QFbx8j/AqJPByJmAQMG6lUCj
saDB7DcEQdy0476uzrPBfkaUQP+jQcDuyqXBDUA8QZUVCEG80YfBs6+5QOr1EUFYvqbB94EEQecu
EkE6uaTBrkaMQHn9AEH0yJjBzTP9QJUe1kBUiYjBt4TZQPQw0T9Pa67BVVNiQNDKMb+ko6HBpa7f
QGbpKsDF3K7BccgdQXhx3UDhMoXBIOFEQTWSIkFxSpbBy8HBQM0BCUHhf1XBZCSYQFS56kBaLFjB
oxOHQOiLFkGgoGzBpaq3QP53E0HJq3vBcSDtQEFJ7UCrmnDB2lPeQPcsyEDY8FvBEHFaQKzx5kB2
PHrBb3dxQJ2cBUH34ofB5HrXQH/JqkCwsoDBo+imQCUtqUAXDHLBokb/QEKszT2364XBMOHOQHqV
Iz+j837BeMjMQEMMG7/10onBsj+IQGTFIEAFxqvBaoZXQD2bzj/4kKHBEResQJL4eED8HInBzhrC
QPhgnUC2iJPBJPfCQBP1P0DTgp/B7sRZQIguW0C5S5TB1OSVQOJipj+eIY/BgTRqQF+hq0AJ1IbB
g+N5QBhlxEDrKZLBO35gQOLOhkAD56XB

>  <OMEGA_E>  (59) 
lPeiPsBLrT5wQ6E+tBsAPw==

>  <OMEGA_NBR>  (59) 
    213935

$$$$
50214048
     RDKit          3D

 71 73  0  0  1  0  0  0  0  0999 V2000
    5.8962    7.9907  -22.2073 C   0  0  0  0  0  0  0  0  0  0  0  0
    8.5714    7.5568  -18.5606 C   0  0  0  0  0  0  0  0  0  0  0  0
    7.6501    7.0506  -17.6288 C   0  0  0  0  0  0  0  0  0  0  0  0
    8.1233    8.2201  -19.7151 C   0  0  0  0  0  0  0  0  0  0  0  0
    5.8218    7.8289  -19.0322 C   0  0  0  0  0  0  0  0  0  0  0  0
    6.3727    0.7419  -21.5521 C   0  0  0  0  0  0  0  0  0  0  0  0
    4.6003   -0.7112  -20.7044 C   0  0  0  0  0  0  0  0  0  0  0  0
    6.6692   -1.6777  -21.5618 C   0  0  0  0  0  0  0  0  0  0  0  0
    6.2581    7.2098  -17.8386 C   0  0  0  0  0  0  0  0  0  0  0  0
    6.7368    8.3824  -19.9572 C   0  0  0  0  0  0  0  0  0  0  0  0
    5.0929    0.5800  -20.9780 C   0  0  0  0  0  0  0  0  0  0  0  0
    7.1643   -0.3862  -21.8321 C   0  0  0  0  0  0  0  0  0  0  0  0
    5.3849   -1.8388  -21.0034 C   0  0  0  0  0  0  0  0  0  0  0  0
    6.7807    1.4481  -17.9881 C   0  0  0  0  0  0  0  0  0  0  0  0
    5.3701    8.2085  -14.2618 C   0  0  0  0  0  0  0  0  0  0  0  0
    4.8796    8.8682  -15.5595 C   0  0  0  0  0  0  0  0  0  0  0  0
    6.3653    7.0751  -14.5582 C   0  0  0  0  0  0  0  0  0  0  0  0
    4.2093    7.8197  -16.4524 C   0  0  0  0  0  0  0  0  0  0  0  0
    5.7718    6.0375  -15.5383 C   0  0  0  0  0  0  0  0  0  0  0  0
    5.1948    6.6850  -16.8419 C   0  0  0  0  0  0  0  0  0  0  0  0
    7.0564    0.3629  -16.9518 C   0  0  0  0  0  0  0  0  0  0  0  0
    4.9363    9.8877  -20.9732 C   0  0  0  0  0  0  0  0  0  0  0  0
    7.2605   10.0042  -21.8849 C   0  0  0  0  0  0  0  0  0  0  0  0
    4.2955    1.7894  -20.5584 C   0  0  0  0  0  0  0  0  0  0  0  0
    5.0875    4.4819  -17.9327 C   0  0  0  0  0  0  0  0  0  0  0  0
    5.0787    2.5722  -19.4868 C   0  0  1  0  0  0  0  0  0  0  0  0
    4.2357    3.7114  -18.9286 C   0  0  2  0  0  0  0  0  0  0  0  0
    6.2163    9.0483  -21.2470 C   0  0  0  0  0  0  0  0  0  0  0  0
    5.6413    7.1453  -22.9683 N   0  0  0  0  0  0  0  0  0  0  0  0
    5.4664    1.6693  -18.3846 N   0  0  0  0  0  0  0  0  0  0  0  0
    4.3637    5.6889  -17.5338 N   0  0  0  0  0  0  0  0  0  0  0  0
    7.7215    2.0039  -18.5454 O   0  0  0  0  0  0  0  0  0  0  0  0
    3.8456    4.5793  -19.9939 O   0  0  0  0  0  0  0  0  0  0  0  0
    8.4039   -0.2283  -22.3480 F   0  0  0  0  0  0  0  0  0  0  0  0
    4.9107   -3.0758  -20.7366 F   0  0  0  0  0  0  0  0  0  0  0  0
    9.6306    7.4353  -18.3885 H   0  0  0  0  0  0  0  0  0  0  0  0
    8.0051    6.5373  -16.7474 H   0  0  0  0  0  0  0  0  0  0  0  0
    8.8406    8.6088  -20.4229 H   0  0  0  0  0  0  0  0  0  0  0  0
    4.7638    7.8803  -19.2427 H   0  0  0  0  0  0  0  0  0  0  0  0
    6.7434    1.7312  -21.7761 H   0  0  0  0  0  0  0  0  0  0  0  0
    3.6212   -0.8346  -20.2656 H   0  0  0  0  0  0  0  0  0  0  0  0
    7.2742   -2.5447  -21.7826 H   0  0  0  0  0  0  0  0  0  0  0  0
    5.8652    8.9672  -13.6381 H   0  0  0  0  0  0  0  0  0  0  0  0
    4.5063    7.7954  -13.7202 H   0  0  0  0  0  0  0  0  0  0  0  0
    4.1541    9.6584  -15.3161 H   0  0  0  0  0  0  0  0  0  0  0  0
    5.7358    9.3079  -16.0920 H   0  0  0  0  0  0  0  0  0  0  0  0
    7.2748    7.5059  -15.0023 H   0  0  0  0  0  0  0  0  0  0  0  0
    6.6216    6.5696  -13.6155 H   0  0  0  0  0  0  0  0  0  0  0  0
    3.3574    7.3822  -15.9112 H   0  0  0  0  0  0  0  0  0  0  0  0
    3.8489    8.3095  -17.3691 H   0  0  0  0  0  0  0  0  0  0  0  0
    6.5644    5.3289  -15.8204 H   0  0  0  0  0  0  0  0  0  0  0  0
    4.9614    5.4968  -15.0275 H   0  0  0  0  0  0  0  0  0  0  0  0
    8.1424    0.2243  -16.8454 H   0  0  0  0  0  0  0  0  0  0  0  0
    6.6286    0.6632  -15.9839 H   0  0  0  0  0  0  0  0  0  0  0  0
    6.5967   -0.5814  -17.2788 H   0  0  0  0  0  0  0  0  0  0  0  0
    5.1676   10.6854  -20.2521 H   0  0  0  0  0  0  0  0  0  0  0  0
    4.5832   10.3351  -21.9140 H   0  0  0  0  0  0  0  0  0  0  0  0
    4.1521    9.2362  -20.5601 H   0  0  0  0  0  0  0  0  0  0  0  0
    7.5095   10.8042  -21.1721 H   0  0  0  0  0  0  0  0  0  0  0  0
    8.1707    9.4390  -22.1341 H   0  0  0  0  0  0  0  0  0  0  0  0
    6.8413   10.4465  -22.8006 H   0  0  0  0  0  0  0  0  0  0  0  0
    4.1221    2.4357  -21.4315 H   0  0  0  0  0  0  0  0  0  0  0  0
    3.3292    1.4662  -20.1439 H   0  0  0  0  0  0  0  0  0  0  0  0
    5.2805    3.8566  -17.0485 H   0  0  0  0  0  0  0  0  0  0  0  0
    6.0433    4.7607  -18.4003 H   0  0  0  0  0  0  0  0  0  0  0  0
    5.9828    2.9935  -19.9505 H   0  0  0  0  0  0  0  0  0  0  0  0
    3.3538    3.2989  -18.4167 H   0  0  0  0  0  0  0  0  0  0  0  0
    4.7402    1.1880  -17.8938 H   0  0  0  0  0  0  0  0  0  0  0  0
    3.6194    5.4212  -16.9220 H   0  0  0  0  0  0  0  0  0  0  0  0
    3.9834    6.1132  -18.3556 H   0  0  0  0  0  0  0  0  0  0  0  0
    3.3133    4.0979  -20.6163 H   0  0  0  0  0  0  0  0  0  0  0  0
  1 28  1  0
  1 29  3  0
  2  3  2  0
  2  4  1  0
  3  9  1  0
  4 10  2  0
  5  9  2  0
  5 10  1  0
  6 11  2  0
  6 12  1  0
  7 11  1  0
  7 13  2  0
  8 12  2  0
  8 13  1  0
  9 20  1  0
 10 28  1  0
 11 24  1  0
 12 34  1  0
 13 35  1  0
 14 21  1  0
 14 30  1  0
 14 32  2  0
 15 16  1  0
 15 17  1  0
 16 18  1  0
 17 19  1  0
 18 20  1  0
 19 20  1  0
 20 31  1  0
 22 28  1  0
 23 28  1  0
 24 26  1  0
 25 27  1  0
 25 31  1  0
 26 27  1  0
 26 30  1  0
 27 33  1  0
  2 36  1  0
  3 37  1  0
  4 38  1  0
  5 39  1  0
  6 40  1  0
  7 41  1  0
  8 42  1  0
 15 43  1  0
 15 44  1  0
 16 45  1  0
 16 46  1  0
 17 47  1  0
 17 48  1  0
 18 49  1  0
 18 50  1  0
 19 51  1  0
 19 52  1  0
 21 53  1  0
 21 54  1  0
 21 55  1  0
 22 56  1  0
 22 57  1  0
 22 58  1  0
 23 59  1  0
 23 60  1  0
 23 61  1  0
 24 62  1  0
 24 63  1  0
 25 64  1  0
 25 65  1  0
 26 66  1  6
 27 67  1  1
 30 68  1  0
 31 69  1  0
 31 70  1  0
 33 71  1  0
M  CHG  1  31   1
M  END
>  <OMEGA_C>  (60) 
E668QCi0/0CAqLHBTSQJQSvR8UAufJTB8830QOGe4UDFB43BOvkBQWmFA0GduJ3BRky6QA2G+kDk
QZjBeO3LQILqPT/GaqzBSDWTQEcONr+moqXBUWrVQHPA1r+TfqzBrELIQIu25kBitY7BMpTXQE4e
BkFVqJ/B5viiQBd6FD/40qfB70HlQAS7xb4XqK7B41CsQH5d678MB6jBOPvYQItcuT+O54/Bdder
QNdVA0FFMGTB1CWcQAvkDUHi83jBULDLQDJn4kB+7mjBsrKGQOE6+kCbnoPBrbK4QFQzwUC2nHjB
tDumQLbr1UBKvIbB783hQK/RuT5SnYfB4fWdQOgzHkEoyafBKVboQEIRIEEzFK/BmXSJQL4L5T+m
d6TB1MyiQA9sj0ASdo/BxYSiQE6eJEDl5JvBPYuHQAOIbUC7bZfBnevGQK7FEEHp+anB7YW0QOWl
5ED7vrfBFO2uQMGr1T+YE5PBWaOLQHMLtkBERYzBfBb3QIc/AEAAXZTBih52QJaJkkB085/BiHYG
QY/Oab66yLLBhySdQFPZRMCB5KXB8xYaQart7UCUG5PBvRQAQSkx0UCs+oXB9XINQbm9CUEIYqPB
1nCYQGor/EAC8ZnB9snXQAaZ3T9nNa7BjMFnQPmnVb/gH6LBg8boQG3cIsDMQq7BBLC7QNR5D0F9
NVrBhTOQQAt0+UDzhVvBe+6EQKCIGkHUDnXB8Yu3QDTtFEFyvIDB4croQJEw8EByCXDB8+PTQEE6
0kD12FnBCeBWQBY77EBylH7BiFR2QLbzBEHY84rB8A/SQGGGqkBVIH3B3MOeQBPmr0B+cHDBVEcC
QQOxZT5Mw4bBWB3UQAvGKT8fvn/BzBfTQNjVFL/3OorBFV2lQHj3KkE1BKLBcamSQMBcJUHqT6/B
Kd6EQGvHE0EOe6TBsE3wQCfeLEGJYKnBObsCQUIGF0GhErHB2OvaQP4kJ0GpZ7bBh+iDQHviG0C6
c6vB5BFVQDSsuz+lJqHBN/qoQK3SdkBdY4jBr2LBQO5XmEDnM5PBUnO/QHyVP0Ccmp/BxKRWQLIh
U0BiVZPBhq+XQN4PmD92Jo/B4aNnQD96rUBDYIfBD/B+QGGfw0BM2JLBlQ1UQAYig0A37qTBhqfv
QMuYIkF4VazBcdsKQRdD8EAuRpPBZrf2QE+p4EAlIYzB1akEQYp8A0EodZzBbJG+QCQt/UCikZfB
xmTNQIhsVD9viazB7PaSQMBpHb+dmKbBJIjVQO7wy78kHa3Bb5PKQKOp50CbFo7BbG3dQC1aB0HB
lJ7BOMKjQLp4LD+UUqjBLmHmQJCDm74F1q7BYL2rQGaa378BDKnBt4/YQOkHuT/tUJDBSgGqQEhq
AkHL9WLBTn+bQP+6DUH0jHfB7TDKQIkA4UD96WfBYkiHQPMd+0D4doPBPKu3QCbJwEDAMnjBwfqm
QKzR1kB6iobBdHHgQMVv3j5VY4fBoDvHQLO5AkElt7HBXlqlQKVVIEHl2KbB7FmKQHvj8D8n7KTB
fFGjQDwrkUDGqY/BGueiQI3UKEBZHZzB6smHQCM6cUCulZfBBQLPQCxJE0EowqjBHckEQW28LkHb
MK/BeaKuQFFh2z+iXpPBs5aMQEoBuEBlfYzBStL2QAqEBEDGEJTBXH91QDtslEDRDKDB51EHQSVW
Hb7qm7LBeoObQEPQPsC4XKfBIJ8bQQPC6kDRsZHBV0oAQW40z0CfF4XBArAQQbxPCUHY76HBfwed
QEYmAEGFgJnBKQbaQDjE6D/d/a3BYi5mQMGtO7+vZKPByKboQLW5HcA66a7BqTK5QOAuDkGgTVjB
wOWNQOfv9kDc9VrBO9ODQFAeGkFkhnPB8Va3QIk2FUF2S3/BT3rnQIxB70B6lm7Bu/XRQAH9z0AQ
AVnBoSZWQFHS7ED8Mn/ByLJ6QPP4BUG+yIrBzuXQQIzVqUD3jHzBS+mcQKWhr0CaonDBNGIBQfGT
0T6JcoXBvivOQMlfOj8cPoDBIRDWQAcqEL9UCYrBDs2uQMFc7kDUGq/B8R28QKP7CkEM+bjBjT/l
QFht9EABdLPBzcOLQP2GFUFVJKTBEDSrQGWULEGmsqDBUZ2bQBYjKEGgWa7BNpGFQErnIkDW1qvB
9iRWQG66xz/xz6HB42epQC9sekBtk4jBZ+/BQA7EmUCab5PBISPAQMcnREBFoZ/BmKpXQKtVVkAI
bZPBKQiXQEeLoD+WaY/B3bZnQJGVr0DL3ofBILyBQJ1jxkDSGZPBQhlTQDv9hEDz/KTBy0GcQHhj
IEEK56XBd+EHQUId9EBmPpTBaCHzQFzY4kAmu4zBuTIAQSl8BUFBH53Br1u3QHob/kDRJ5fB19LL
QHiuWT+w2azBge6TQB/NI7/1J6bBwuDVQAhXyL9ahq3BZ2TGQISR6EDZ9I3BZdvTQB1eCEG0np7B
JjyjQE6OKT+CH6jBCj7lQO9thr47d6/BHSWtQK5O4L9t6ajBnhraQN4XuT/RqpDBMx2sQBD1AUEB
+2HB1/qZQAbvDEERCXbB/r3MQAAZ4UAM9mfBmvyEQFKp+EAmWILBQFG5QDZJwECNs3fBn1alQLLc
1UBg/IXBVUHjQNhJ2z423ofB5cXiQFmrIkHIC67Brpu0QCcFAkH5xLDB1XWJQKhf7T8JgqTBDfSi
QNqskEBSV4/BuL6iQNCgKEAy95vBTKCHQFWncEDMV5fBRPLBQIR3E0HWq6jBwWR8QLt+KkGZq6PB
psOvQPDs3D95PpPBSRqLQJoqtkCEsIvBYNb3QBwYBECbvZTBJ1R1QBSAlEDovJ/Bbz4GQaiDor0s
xrPBy2SeQPMGQMAnA6fBx+QYQdTJ70B5L5PBM0r/QBwU0UDo+IXB+1ULQQ8cDEFn1qLBzk+VQIg0
AEH2hZjB0FbXQFyf7D/ddK7BxsVpQCqJSL+hiaLB5FHpQNHqGsCQkq/BOPS7QJwHDkGL6lfBGKyR
QNst9UB//1jB6veBQAneGEG4N3HBXRu0QPDsFEGPtX7BXLLoQGVH8EAKf2/BjtjWQO9S0ED5VVnB
8j1VQFok6UAV/HvBmn1wQI+ABEEtdYnBMbbSQK83qkCJ4HzBZyWgQAU1rkAPW2/BJfECQUd3yD4T
UYbBTmLSQM5UOT8HhIDBChbYQHKOEL/gbIrBs5j/QNmUGUGdQLDBjn/UQFy6KUE6RrXB0n/rQEl8
L0FQbKjBD6jQQAyI8EAJ47LBrO+bQE1670AFK63BBbmnQGSiCUEWBbjB9xmDQPajIEC+ZKvBPuJV
QBd7wT9AFqHB31+qQKnYd0C8eojBMOfAQAXxmkDfL5PBrWG/QHlbREDyup/BdT9XQFZlVUDKPZPB
IsWYQEyWpD+4747BmsdnQN1HrEDHxIbBvy58QNpjxEA0E5LBFilTQFNDhUAYvaTBJ87HQG9lLUHe
hqLBOIAJQRaS8EDN9pPB+uj0QEKF30CjyYzBdMECQaq1BEGBspzBOG67QE2y/kDMV5fBbSrMQM+R
ST/NdqzBZuaSQMyDLL/PFqbB8C/VQNX+0L+P9azBEJrIQKhd50BvPI7BSF3ZQDNLCEFujp7BYgmj
QOSGHj+a+qfBIVzlQC5Zrb6F2q7BpNurQNg15r+coqjBtTTaQDhwuT/+eJDBJNKrQJQ7AkGQCGPB
KS6bQFpDDUHmYHfB3NXLQLzB4EC2hGjB4BuGQFqK+UCuD4PBgT+4QOMrwEBtTHjBRAqmQLvl1UDo
d4bBUHzjQGs35z6/hofB6jvpQEGlGEFl+rDBDUWdQK4jEkG3savBqHaJQDMH6T8Sg6TB+ymjQA+Y
kEA3tY/B1aGiQBGcJkBU+JvBBlSHQC5vbkCnXpfBrzrKQH0BGEFTS6fBd4rFQMhkPkGjuZ7BDtSv
QE1x2T8QOZPBwLSLQHumtkCdRYzBoMD3QEViBUB+dZTBSOtxQIF2kkAfz5/BPpYGQYXyNL4J4rLB
a0CcQDBnQsB7zabBMlgaQWaK6kCNwpLBnpj/QDROzEAgH4bBlXoOQdmUC0HVCKLBeqiZQL18AUE0
1ZjBpT/YQELF4z9nDq7ByshmQIMbTb8xsKLBhnjoQJHjH8BR0q7BCMu7QEMvDkHB4FjBJp2QQK6I
9kAgTlrBToaDQOWEGUEI8nLB+BS2QAjeFEEtzn/BpnToQPYb70Df1G/BQO3UQLUD0EAUuFnBEhxW
QE666kBApH3B6aV0QND1BEGPRYrBgTPRQJEzqUBaAn3BERieQDcWr0AkMHDBUwADQRHf4z5NzYXB
p8vRQG6ZPj/OSYDBb1bZQJPFDb/nCYrB8jzrQDWkCEHymrTBtETdQA4gJEGr8LbBjpgEQSShHUEP
Qq7BTVOeQCMcAkF/Ua/BgfCFQDo8EkHbGqXBfa6TQNHrHUG6xrHB04eDQD4VHkAgdavBiXZVQHac
vj9YI6HBUwGrQECPeUAgtIjBxt7AQBI9mkA7xJPBjDS/QBqXQkBZvJ/B9hZYQCvuUkDz/5LBT+eY
QGeLnj8AB4/BnaJnQLBirUC1eofByT5/QNz0xEBRwpLBeRNPQE+MgkDNmaTB

>  <OMEGA_E>  (60) 
EP0TPthtFz7wJxs+sGMpPg==

>  <OMEGA_NBR>  (60) 
    218714

$$$$
50212935
     RDKit          3D

 73 75  0  0  1  0  0  0  0  0999 V2000
    8.5531    7.5633  -18.4673 C   0  0  0  0  0  0  0  0  0  0  0  0
    7.6235    7.0566  -17.5437 C   0  0  0  0  0  0  0  0  0  0  0  0
    8.1153    8.2421  -19.6173 C   0  0  0  0  0  0  0  0  0  0  0  0
    5.8076    7.8596  -18.9508 C   0  0  0  0  0  0  0  0  0  0  0  0
    6.3526    0.7969  -21.5790 C   0  0  0  0  0  0  0  0  0  0  0  0
    4.5792   -0.6622  -20.7433 C   0  0  0  0  0  0  0  0  0  0  0  0
    6.6377   -1.6232  -21.6313 C   0  0  0  0  0  0  0  0  0  0  0  0
    6.2333    7.2201  -17.7647 C   0  0  0  0  0  0  0  0  0  0  0  0
    6.7312    8.4217  -19.8615 C   0  0  0  0  0  0  0  0  0  0  0  0
    5.0769    0.6310  -20.9978 C   0  0  0  0  0  0  0  0  0  0  0  0
    7.1369   -0.3296  -21.8828 C   0  0  0  0  0  0  0  0  0  0  0  0
    5.3563   -1.7881  -21.0672 C   0  0  0  0  0  0  0  0  0  0  0  0
    6.7919    1.4881  -18.0057 C   0  0  0  0  0  0  0  0  0  0  0  0
    4.1974    7.8246  -16.3624 C   0  0  0  0  0  0  0  0  0  0  0  0
    5.7379    6.0197  -15.4912 C   0  0  0  0  0  0  0  0  0  0  0  0
    4.9191    8.8334  -15.4670 C   0  0  0  0  0  0  0  0  0  0  0  0
    6.3755    7.0632  -14.5560 C   0  0  0  0  0  0  0  0  0  0  0  0
    5.1618    6.6837  -16.7846 C   0  0  0  0  0  0  0  0  0  0  0  0
    7.0771    0.3985  -16.9760 C   0  0  0  0  0  0  0  0  0  0  0  0
    5.8766    8.0296  -22.1853 C   0  0  0  0  0  0  0  0  0  0  0  0
    7.2751   10.0812  -21.7493 C   0  0  0  0  0  0  0  0  0  0  0  0
    4.9484    9.9630  -20.8489 C   0  0  0  0  0  0  0  0  0  0  0  0
    4.2857    1.8368  -20.5607 C   0  0  0  0  0  0  0  0  0  0  0  0
    5.0551    4.4974  -17.8993 C   0  0  0  0  0  0  0  0  0  0  0  0
    5.0781    2.6147  -19.4921 C   0  0  1  0  0  0  0  0  0  0  0  0
    4.2332    3.7554  -18.9382 C   0  0  2  0  0  0  0  0  0  0  0  0
    6.2200    9.1165  -21.1420 C   0  0  0  0  0  0  0  0  0  0  0  0
    5.4739    1.7090  -18.3935 N   0  0  0  0  0  0  0  0  0  0  0  0
    5.4137    8.1445  -14.2570 N   0  0  0  0  0  0  0  0  0  0  0  0
    4.3289    5.7018  -17.4926 N   0  0  0  0  0  0  0  0  0  0  0  0
    7.7287    2.0428  -18.5708 O   0  0  0  0  0  0  0  0  0  0  0  0
    3.8975    4.6480  -20.0016 O   0  0  0  0  0  0  0  0  0  0  0  0
    8.3737   -0.1683  -22.4041 F   0  0  0  0  0  0  0  0  0  0  0  0
    4.8779   -3.0274  -20.8194 F   0  0  0  0  0  0  0  0  0  0  0  0
    9.6105    7.4304  -18.2925 H   0  0  0  0  0  0  0  0  0  0  0  0
    7.9701    6.5399  -16.6609 H   0  0  0  0  0  0  0  0  0  0  0  0
    8.8387    8.6295  -20.3195 H   0  0  0  0  0  0  0  0  0  0  0  0
    4.7511    7.9203  -19.1667 H   0  0  0  0  0  0  0  0  0  0  0  0
    6.7256    1.7882  -21.7901 H   0  0  0  0  0  0  0  0  0  0  0  0
    3.6025   -0.7884  -20.3001 H   0  0  0  0  0  0  0  0  0  0  0  0
    7.2372   -2.4889  -21.8709 H   0  0  0  0  0  0  0  0  0  0  0  0
    3.3476    7.3949  -15.8117 H   0  0  0  0  0  0  0  0  0  0  0  0
    3.8288    8.3384  -17.2625 H   0  0  0  0  0  0  0  0  0  0  0  0
    6.5025    5.2828  -15.7782 H   0  0  0  0  0  0  0  0  0  0  0  0
    4.9218    5.5120  -14.9563 H   0  0  0  0  0  0  0  0  0  0  0  0
    5.7676    9.2698  -16.0143 H   0  0  0  0  0  0  0  0  0  0  0  0
    4.2208    9.6320  -15.1758 H   0  0  0  0  0  0  0  0  0  0  0  0
    6.6738    6.5739  -13.6170 H   0  0  0  0  0  0  0  0  0  0  0  0
    7.2631    7.4925  -15.0438 H   0  0  0  0  0  0  0  0  0  0  0  0
    8.1639    0.2573  -16.8822 H   0  0  0  0  0  0  0  0  0  0  0  0
    6.6608    0.6964  -16.0023 H   0  0  0  0  0  0  0  0  0  0  0  0
    6.6117   -0.5437  -17.3009 H   0  0  0  0  0  0  0  0  0  0  0  0
    5.5099    8.5072  -23.1059 H   0  0  0  0  0  0  0  0  0  0  0  0
    6.7779    7.4410  -22.4116 H   0  0  0  0  0  0  0  0  0  0  0  0
    5.0975    7.3666  -21.7810 H   0  0  0  0  0  0  0  0  0  0  0  0
    6.8652   10.5498  -22.6561 H   0  0  0  0  0  0  0  0  0  0  0  0
    7.5246   10.8609  -21.0146 H   0  0  0  0  0  0  0  0  0  0  0  0
    8.1830    9.5162  -22.0070 H   0  0  0  0  0  0  0  0  0  0  0  0
    4.6067   10.4455  -21.7765 H   0  0  0  0  0  0  0  0  0  0  0  0
    4.1535    9.3086  -20.4618 H   0  0  0  0  0  0  0  0  0  0  0  0
    5.1856   10.7337  -20.1007 H   0  0  0  0  0  0  0  0  0  0  0  0
    4.1028    2.4886  -21.4277 H   0  0  0  0  0  0  0  0  0  0  0  0
    3.3241    1.5103  -20.1381 H   0  0  0  0  0  0  0  0  0  0  0  0
    5.2161    3.8502  -17.0246 H   0  0  0  0  0  0  0  0  0  0  0  0
    6.0269    4.7800  -18.3302 H   0  0  0  0  0  0  0  0  0  0  0  0
    5.9793    3.0362  -19.9613 H   0  0  0  0  0  0  0  0  0  0  0  0
    3.3265    3.3467  -18.4682 H   0  0  0  0  0  0  0  0  0  0  0  0
    4.7513    1.2258  -17.8992 H   0  0  0  0  0  0  0  0  0  0  0  0
    5.8639    8.8172  -13.6698 H   0  0  0  0  0  0  0  0  0  0  0  0
    4.6321    7.7502  -13.7737 H   0  0  0  0  0  0  0  0  0  0  0  0
    3.5796    5.4297  -16.8888 H   0  0  0  0  0  0  0  0  0  0  0  0
    3.9555    6.1370  -18.3119 H   0  0  0  0  0  0  0  0  0  0  0  0
    3.3831    4.1860  -20.6530 H   0  0  0  0  0  0  0  0  0  0  0  0
  1  2  2  0
  1  3  1  0
  2  8  1  0
  3  9  2  0
  4  8  2  0
  4  9  1  0
  5 10  2  0
  5 11  1  0
  6 10  1  0
  6 12  2  0
  7 11  2  0
  7 12  1  0
  8 18  1  0
  9 27  1  0
 10 23  1  0
 11 33  1  0
 12 34  1  0
 13 19  1  0
 13 28  1  0
 13 31  2  0
 14 16  1  0
 14 18  1  0
 15 17  1  0
 15 18  1  0
 16 29  1  0
 17 29  1  0
 18 30  1  0
 20 27  1  0
 21 27  1  0
 22 27  1  0
 23 25  1  0
 24 26  1  0
 24 30  1  0
 25 26  1  0
 25 28  1  0
 26 32  1  0
  1 35  1  0
  2 36  1  0
  3 37  1  0
  4 38  1  0
  5 39  1  0
  6 40  1  0
  7 41  1  0
 14 42  1  0
 14 43  1  0
 15 44  1  0
 15 45  1  0
 16 46  1  0
 16 47  1  0
 17 48  1  0
 17 49  1  0
 19 50  1  0
 19 51  1  0
 19 52  1  0
 20 53  1  0
 20 54  1  0
 20 55  1  0
 21 56  1  0
 21 57  1  0
 21 58  1  0
 22 59  1  0
 22 60  1  0
 22 61  1  0
 23 62  1  0
 23 63  1  0
 24 64  1  0
 24 65  1  0
 25 66  1  6
 26 67  1  1
 28 68  1  0
 29 69  1  0
 29 70  1  0
 30 71  1  0
 30 72  1  0
 32 73  1  0
M  CHG  2  29   1  30   1
M  END
>  <OMEGA_C>  (61) 
Z9kIQdYG8kASvZPBfvPzQLfP4UB8WYzBU9gBQb3fA0Eu8JzB0Ne5QLyB+0Avm5fBTUjLQFcATD/H
oazBGYmSQFmEKb848qXBqmfUQAPFz7/cDK3BmnfHQCsL50AOHo7BX2bXQGu/BkFz5J7B0HWiQBKG
IT94+6fBj2HkQGC8qL7rD6/B32arQEnh5L+oiajBYlfZQKR6vj+iC5DBsVCGQMRi+kBL5oLBRJ23
QHyhwEDi23fB9midQKpVDUGyeHfBDQTMQNQF4kA95WjBWy2lQIHg1UDGRobBUXfiQDgLzD7KzofB
8Ay8QGx5AEFle7HBQs3oQJRMIUGL/q3BbVmeQJRoH0GZyqbB2CSJQLIb6z9kfKTBZsOhQAzrj0DE
MY/BjH+iQJJXJ0DX75vBLXaHQL9YcEBugZfB1wnHQPvcEUHYIqnBQSqvQBTA2j/1JZPB0DytQP1P
AkGmHGTB/4WKQCt1tkDX8IvBrVH3QNe9AkAJkZTB0HB5QLG8lEAxA6DBf/oFQQpVLL6TO7PBHhic
QJLBQcAbjqbBm8QZQZXF7UDyVpLBEgv/QP5G0UCTSYXBI2sNQUUSCkFgjqLBVQmYQElz/UBaVZnB
ZDjXQBzj5D8NUq7BDI9mQAPSSb+LZqLBOpfnQPFKH8CT967BSz9WQLGi7EDI/HzBJAt1QBJqBUGo
GYrBjxTQQGcMqUBPc3zBOX+dQDBisEAPTW/B/4+4QP1QFEFcHYDBLRGHQKscGkE50HLBhY/VQEBd
0kBh31nB7mroQLPC70A3s3DBb58CQbi8gz7BDofBQCXVQFNFMj+9BIDBC5PTQJ4xC79RaIrBc1Gw
QFodCEHW2LjBMOTYQMAc7kDbSrPB+R6jQCO760BqP67Biq/bQBbMKEHIP7XBucnwQCvGLUHYHajB
bu0CQS9CGEFmDrDB+WmTQO0gJ0FJNq7BremEQOnvFEHcsaPBlPClQFW9K0FVzqDBbkqDQKhFH0D0
a6vB471UQBJRwT/ZGqHBbuqmQGZpdkBYMojBu9zAQOj1mEA/pJLBL1a/QH9RQkDQsJ/BFuVUQPgw
VkDlvpPBRgqYQFTonD+dMY/BB6W7QC4TDUFdt1rBzDmUQLIB+EAIYVzBlhdlQFjArUBSHIfBYid9
QERixEC+fpLByIRYQIDzhUBcOaXBxSsJQVV58EAe0ZPBgoH0QJn74EDxWYzBIDsCQfAkA0HOBJ3B
F5a6QEmp+0CchZfB1wyUQONaKL8k66XBvKrMQD8aTz+rkKzBtSjWQL8ezr8o9azBXBTIQGT35kBL
EI7BwzvYQB2CBkHr3Z7Be8WjQLZKIz8b9qfBzh+tQKvi47/teajBrfblQFYZob7l+K7BaHfZQDGc
vz/BIZDBZHKHQB73+kB1wYLB9cW3QHoAwEA++nfB7lKfQF5ADUGwE3fBY9jMQImh4EAc1WjB/5Sl
QFAN1kDIQYbB/2ziQB0fxD76FojBe1+9QFSJAEH1hLHBVq/pQCtwIUGnwa3B/wKfQBwpH0GTvKbB
O/mJQPKY6z8ZlKTB2sahQNz3kEBhho/BNaaiQB9/KECc/pvBMgOHQCLLcEB5lJfBiPTHQKzIEUGu
EanBjU2vQLTY3T8xKpPBL82uQAHhAUHZ2GPBwomKQC8st0CcBYzBeYH3QImsA0DNlJTB32R1QJ1A
lEBWGKDBE++dQHViQcDZg6bBkcQGQcTHGL5MI7PBBhEaQW2X60AgepLBr3r/QARy0EAxR4XB2tMN
QXT/CEFot6LBcMWYQARJ/kBiLpnB7Y1pQGrDSb9pZKLB04LYQO2i5j+KPK7B/3/pQB9PHsA52a7B
Ny1YQLiL7UCLs3zB16V3QJT1BUFD5onB9svPQMwcqEC0wHzB5mydQDYAsEADe2/B07W6QN0FFEFg
0X/B2o+JQGc4GkFiQ3LBkBDWQDxx0EBI5lnBYYbpQOLz7UAnkHDB65YCQe5ubT67Y4fBDEPVQM6s
KT+6PYDBd0jTQAlrDL9N14rBFbOxQN1KCEEm3LjBt1/aQNh/7kDwVrPBSIOkQKaP60DWX67BD7rc
QJITKUER/rTBV1DxQCrKLUHgyKfBq3UDQcCJGEGmz6/BOzOUQGX8JkEbJK7BA56FQCiNFEG7vKPB
JUSmQNdmK0HwraDB30CEQK0ZH0Bej6vBlUhWQAb/wD9uRaHBCF6oQLTbeEAikojBICnAQOGVmkDk
QpPB9HK/QEk2RECjrp/Bs3lVQOCxVUB9lJPB5h2YQHjuoT8uHo/BhrC9QKlmDEHyXVrBcJOVQEaA
90B6JFzB1YRlQIENrkCXLYfBJaZ8QBinxUA1eJLBxONTQOnYhEA7IqXBv3EJQW8V8kC7mZPBnej0
QM/P4UCIR4zBOpUCQQPtA0EW0pzBHia7QGSL+0BOpZfBb16UQGM6KL+fGqbBWjHNQPdLTz+VoqzB
pKzWQAoPzr9NB63BcnvIQFUJ50DfI47BjOvYQNO+BkGl357BmySkQBePIz8lHajBYIetQIbY47/c
najBSovmQALeoL51Aa/Bno7ZQLzKuT+CeZDBPZOHQNPn+kBH8YLBcga4QAU6wEBeF3jBnhOfQDxN
DUHjY3fBZJ/MQGIS4UBK4mjBweqlQOUI1kA6XIbBnUHiQPRv3z79n4fBtHLrQCdRIEH5T67BTqyh
QOOJIEHOmKbBeSG7QDebAEFzQbHBN0+KQGLQ6z8Wu6TB9A2iQLyjkECehY/BLL6iQNcRKEBvDJzB
Wf+GQACrb0AOfpfBbbPIQGHuEUHIG6nBW1yvQNbh2z+cSJPB2UKuQIoAAkEYEWTBYO6KQHAFt0DK
GIzBP3P3QBfzBEArZZTBFFNzQPKck0Dh7J/BeVueQCVnQcDtqqbB7h8HQVbLGL6CF7PBPlcaQavW
7UBQIpLBccX/QD0+0UA3M4XBFT4OQYMuCkGnYKLBr2SZQCmN/UAGbpnB/PppQHi2Sb86o6LBNh3Z
QPu75j+FRa7BJA7qQF5GHsA05a7BTTdYQFJy7UDQLH3BbEp4QBfgBUEjH4rBK1HQQCyHqEB2w3zB
b7KdQDwHsEBArG/Ba5S6QCYYFEHdAoDBpCSJQHk/GkFJtnLBirHVQMoB0UAb5VnB9FfpQKaO7kAm
gXDB82ACQRZs0T7W5IXBR7LQQGVMOj/sXIDBoJPXQLpDD798PIrBOFveQJ3lJ0F3jLXBv0r1QCjE
LEF1majB3qkDQRx7FkGCebDBTraWQH9RKEHm/63BrZOHQA7NFkEpQaPB9x+rQNLTLEHUwaDBVHmv
QE1UCEFKm7jBTcnWQJzR7EAfKrPB2XmhQCd97UD+yq3BkOiEQEKTH0CzsavBtaZWQAVAwT/5gqHB
SbmoQNy4eEBfhojBXGTAQKwHmkBFUZPB2Yi/QDVjREABq5/BSGRWQOvHU0AkX5PBUiiYQLYzoj8m
Ho/BVc+8QPGTDEHYg1rBafKUQNGZ90CiflzBDSFmQDoYrkDuQYfBjq59QNhaxUBSlJLB5YFRQOkI
hEDJ5aTBMn4JQVV28kB5g5PBzvD0QG1L4kDJMYzBd6sCQYgJBEGvw5zBX0m7QDPL+0Bdn5fBJRXN
QML6UD/qlazBp0WUQL5mKL/nJqbBg6jWQKUPzb8MGq3BWInIQPpu50DvF47BDh3ZQHLXBkHb157B
ZAekQCrUIz+QFKjBb37mQCnFm77sAK/B1nytQJ2B47+WtqjB7YzZQJ5mvz/GFpDBv0+HQPT0+kCk
+ILBCNm3QOVlwEDtFnjBt4ieQHdWDUG3WXfBhR3MQK854UC4xWjBQealQLNA1kBoXYbBDnLiQHPO
xj5P/IfBJXvrQJOkIEESMq7BokyhQEknIEHRtKbBUnC8QL2DAEH/TrHBEieKQGdl6z9TpaTBpcGi
QKIokUDYro/B/9SiQO3sJ0DkA5zByEmHQLPCb0DEdZfBTf7IQJLsEUFyHKnBHnqvQGOh2z/8P5PB
NZGtQGQEAkERAmTBhDqLQPcht0A0JYzBdpz3QCwPBEBxd5TBoJxyQApBk0Cg6J/BcBwHQbEYCb7Z
D7PB/lOeQB1WQcBD1KbBHmIaQf1B7kCyBZLBdb3/QIXf0UBzFoXB9VkOQTA+CkHkUqLBeIyZQIO7
/UCZbpnBjPTYQM7O5z9HLK7BTrtpQFbjSr/8taLBgxTqQNWhHcAJAq/B5pxXQOVX7UCwUn3Bue93
QJ7oBUEfKIrBKEzQQKfVqEAPunzBYX2dQDkIsECxxm/BRxe6QPAxFEFc43/BrHWIQK48GkFYtXLB
DwrVQB0c0UBgxlnBPOToQPzZ7kD8RnDBWZoCQVDzfT7jK4fBFM3UQNb1Kj8aMIDBOLvTQPWTDL8p
wYrB6XjeQKEjKEGEdrXBBZv0QJwmLUGycKjBR+cDQbQQF0GhSLDBa2yWQNndJ0FeIq7BxGeHQEYo
FkEwdaPBt/6pQMF/LEG/0qDBh9uwQFQoCEEXsLjBSYvYQJYl7UCFJLPBg/qiQFbT7EAY7q3B5m6E
QHFbH0AVmKvBcKRWQAJawD9dXKHBXn6qQEokekBouIjB74bAQNQMm0CprJPBDZ2/QHnwQ0AqrZ/B
AZxXQFsdVED4LpPBWlCYQItJnT8kV4/Bxuy7QImYDEEzY1rBozSUQImB90AQh1zByxhnQEG8rUDy
TYfB9Ll9QISOxUAulZLBZkBQQDVpg0DtxKTB

>  <OMEGA_E>  (61) 
oN0+PkDUQT6A5kI+oOhDPg==

>  <OMEGA_NBR>  (61) 
    223600

$$$$
50214047
     RDKit          3D

 68 71  0  0  1  0  0  0  0  0999 V2000
    8.6473    7.5058  -18.4019 C   0  0  0  0  0  0  0  0  0  0  0  0
    8.2626    8.2597  -19.5176 C   0  0  0  0  0  0  0  0  0  0  0  0
    7.6719    6.9771  -17.5400 C   0  0  0  0  0  0  0  0  0  0  0  0
    5.4788    8.4924  -21.9325 C   0  0  0  0  0  0  0  0  0  0  0  0
    5.9160    7.9213  -18.9365 C   0  0  0  0  0  0  0  0  0  0  0  0
    4.6093   -0.6773  -20.7552 C   0  0  0  0  0  0  0  0  0  0  0  0
    6.3863    0.7892  -21.5698 C   0  0  0  0  0  0  0  0  0  0  0  0
    6.6767   -1.6302  -21.6316 C   0  0  0  0  0  0  0  0  0  0  0  0
    5.4476    9.1008  -23.1598 C   0  0  0  0  0  0  0  0  0  0  0  0
    7.1683   10.1280  -21.6312 C   0  0  0  0  0  0  0  0  0  0  0  0
    6.8967    8.4442  -19.7991 C   0  0  0  0  0  0  0  0  0  0  0  0
    6.5125    9.0645  -21.0589 C   0  0  0  0  0  0  0  0  0  0  0  0
    6.2915    7.2281  -17.7632 C   0  0  0  0  0  0  0  0  0  0  0  0
    5.1056    0.6182  -20.9999 C   0  0  0  0  0  0  0  0  0  0  0  0
    5.3918   -1.8002  -21.0771 C   0  0  0  0  0  0  0  0  0  0  0  0
    7.1752   -0.3344  -21.8736 C   0  0  0  0  0  0  0  0  0  0  0  0
    6.8007    1.4908  -18.0099 C   0  0  0  0  0  0  0  0  0  0  0  0
    5.3754    8.2043  -14.2181 C   0  0  0  0  0  0  0  0  0  0  0  0
    4.8725    8.8763  -15.5065 C   0  0  0  0  0  0  0  0  0  0  0  0
    6.3549    7.0614  -14.5290 C   0  0  0  0  0  0  0  0  0  0  0  0
    4.2062    7.8399  -16.4202 C   0  0  0  0  0  0  0  0  0  0  0  0
    5.7298    6.0370  -15.5041 C   0  0  0  0  0  0  0  0  0  0  0  0
    5.1887    6.7030  -16.8123 C   0  0  0  0  0  0  0  0  0  0  0  0
    7.0840    0.3892  -16.9927 C   0  0  0  0  0  0  0  0  0  0  0  0
    4.3033    1.8207  -20.5692 C   0  0  0  0  0  0  0  0  0  0  0  0
    5.1030    4.5358  -17.9734 C   0  0  0  0  0  0  0  0  0  0  0  0
    5.0859    2.6094  -19.5011 C   0  0  1  0  0  0  0  0  0  0  0  0
    4.2352    3.7395  -18.9338 C   0  0  2  0  0  0  0  0  0  0  0  0
    5.4845    1.7076  -18.4020 N   0  0  0  0  0  0  0  0  0  0  0  0
    4.3681    5.7262  -17.5439 N   0  0  0  0  0  0  0  0  0  0  0  0
    7.7371    2.0595  -18.5615 O   0  0  0  0  0  0  0  0  0  0  0  0
    3.7934    4.5870  -19.9947 O   0  0  0  0  0  0  0  0  0  0  0  0
    4.9144   -3.0415  -20.8376 F   0  0  0  0  0  0  0  0  0  0  0  0
    8.4150   -0.1686  -22.3865 F   0  0  0  0  0  0  0  0  0  0  0  0
    6.5886   10.4202  -23.2424 S   0  0  0  0  0  0  0  0  0  0  0  0
    9.6944    7.3308  -18.2040 H   0  0  0  0  0  0  0  0  0  0  0  0
    9.0121    8.6979  -20.1599 H   0  0  0  0  0  0  0  0  0  0  0  0
    7.9751    6.3728  -16.6977 H   0  0  0  0  0  0  0  0  0  0  0  0
    4.8208    7.6870  -21.6414 H   0  0  0  0  0  0  0  0  0  0  0  0
    4.8699    8.0503  -19.1721 H   0  0  0  0  0  0  0  0  0  0  0  0
    3.6291   -0.8078  -20.3209 H   0  0  0  0  0  0  0  0  0  0  0  0
    6.7596    1.7823  -21.7722 H   0  0  0  0  0  0  0  0  0  0  0  0
    7.2795   -2.4937  -21.8710 H   0  0  0  0  0  0  0  0  0  0  0  0
    4.8007    8.8026  -23.9716 H   0  0  0  0  0  0  0  0  0  0  0  0
    7.9407   10.7049  -21.1444 H   0  0  0  0  0  0  0  0  0  0  0  0
    5.8867    8.9556  -13.5983 H   0  0  0  0  0  0  0  0  0  0  0  0
    4.5146    7.7982  -13.6665 H   0  0  0  0  0  0  0  0  0  0  0  0
    4.1411    9.6561  -15.2478 H   0  0  0  0  0  0  0  0  0  0  0  0
    5.7233    9.3322  -16.0342 H   0  0  0  0  0  0  0  0  0  0  0  0
    7.2635    7.4819  -14.9847 H   0  0  0  0  0  0  0  0  0  0  0  0
    6.6181    6.5497  -13.5915 H   0  0  0  0  0  0  0  0  0  0  0  0
    3.3458    7.4014  -15.8935 H   0  0  0  0  0  0  0  0  0  0  0  0
    3.8590    8.3422  -17.3351 H   0  0  0  0  0  0  0  0  0  0  0  0
    6.4967    5.2971  -15.7769 H   0  0  0  0  0  0  0  0  0  0  0  0
    4.8960    5.5305  -14.9959 H   0  0  0  0  0  0  0  0  0  0  0  0
    8.1709    0.2527  -16.8925 H   0  0  0  0  0  0  0  0  0  0  0  0
    6.6587    0.6717  -16.0184 H   0  0  0  0  0  0  0  0  0  0  0  0
    6.6264   -0.5511  -17.3338 H   0  0  0  0  0  0  0  0  0  0  0  0
    4.1179    2.4677  -21.4392 H   0  0  0  0  0  0  0  0  0  0  0  0
    3.3430    1.4882  -20.1481 H   0  0  0  0  0  0  0  0  0  0  0  0
    5.3474    3.9171  -17.0973 H   0  0  0  0  0  0  0  0  0  0  0  0
    6.0318    4.8382  -18.4793 H   0  0  0  0  0  0  0  0  0  0  0  0
    5.9842    3.0394  -19.9682 H   0  0  0  0  0  0  0  0  0  0  0  0
    3.3785    3.3154  -18.3895 H   0  0  0  0  0  0  0  0  0  0  0  0
    4.7626    1.2223  -17.9087 H   0  0  0  0  0  0  0  0  0  0  0  0
    3.6191    5.4357  -16.9484 H   0  0  0  0  0  0  0  0  0  0  0  0
    3.9939    6.1748  -18.3556 H   0  0  0  0  0  0  0  0  0  0  0  0
    3.2511    4.0881  -20.5942 H   0  0  0  0  0  0  0  0  0  0  0  0
  1  2  2  0
  1  3  1  0
  2 11  1  0
  3 13  2  0
  4  9  2  0
  4 12  1  0
  5 11  2  0
  5 13  1  0
  6 14  2  0
  6 15  1  0
  7 14  1  0
  7 16  2  0
  8 15  2  0
  8 16  1  0
  9 35  1  0
 10 12  2  0
 10 35  1  0
 11 12  1  0
 13 23  1  0
 14 25  1  0
 15 33  1  0
 16 34  1  0
 17 24  1  0
 17 29  1  0
 17 31  2  0
 18 19  1  0
 18 20  1  0
 19 21  1  0
 20 22  1  0
 21 23  1  0
 22 23  1  0
 23 30  1  0
 25 27  1  0
 26 28  1  0
 26 30  1  0
 27 28  1  0
 27 29  1  0
 28 32  1  0
  1 36  1  0
  2 37  1  0
  3 38  1  0
  4 39  1  0
  5 40  1  0
  6 41  1  0
  7 42  1  0
  8 43  1  0
  9 44  1  0
 10 45  1  0
 18 46  1  0
 18 47  1  0
 19 48  1  0
 19 49  1  0
 20 50  1  0
 20 51  1  0
 21 52  1  0
 21 53  1  0
 22 54  1  0
 22 55  1  0
 24 56  1  0
 24 57  1  0
 24 58  1  0
 25 59  1  0
 25 60  1  0
 26 61  1  0
 26 62  1  0
 27 63  1  6
 28 64  1  1
 29 65  1  0
 30 66  1  0
 30 67  1  0
 32 68  1  0
M  CHG  1  30   1
M  END
>  <OMEGA_C>  (62) 
PVsKQc0v8EAwN5PBozMEQY0nBEEDJJzBPID1QI5E30DWUYzB/1GvQO3gB0Gyda/B10+9QDZ7/UDd
fZfBq3+TQLZmLb+eCqbBrFzMQB4LSj8Fj6zBQqfVQHmp0L9tDa3B4lKuQLicEUE8R7nBC2PlQHUM
IkGiDK3BJbLcQKMbB0GCZJ7BOWbQQCQIEUGTeKjBtVPJQEdM50ANG47BaWGjQPFCHj/T/6fBjoms
QCts5r/inajBBpvlQIs3q74r/a7BD5/ZQLbTvj9CFJDB/AKsQM9EA0FhfWPB4OubQFUFDkGeGnjB
hVvLQBL34UDvdmjBapmGQCTg+kB5XIPBY1q3QMQuwUDqEHjBiwmmQJx+1kCrf4bBHLDiQLxFxz4S
8YfB67SJQE8L6T+gjaTB7EujQJ8lkUBuyY/B7r+iQOz/JkAnApzB04aHQH9Tb0CDeJfBIoGvQMmR
2j9EN5PBrMeLQAg9t0DyWYzBmJb3QCnOA0D5fZTBw8ZyQI3IkkAO9Z/BaEKdQCuoQsBTs6bBCaQG
QX2gLL53F7PBc9XSQPO4JkFv8LnBbhwbQYSV6kDBoZHBwDEQQbEqC0FiR6HB0TP/QD/uy0D7lIXB
wUOaQNX79UCAIa3BndabQAHOAEGFYJnB+kNoQNLNTr8vkaLBRE7YQJUh5D9+La7B3/HoQBWYH8Dm
967BYJ+ZQKLXDEHRxb/BmBr+QGdHK0GlJ6nBhl+8QB5KD0G/klnB4HeQQOKK+UAnqlrBrIOEQDt/
GkH99nPB4CS3QIFQFUEXRoDBiG7oQO1r70CAwW/BGMfTQCKX0UDrdlnB5iBWQDfY7EDfS37BP/p2
QKl5BUFBrorB4eTPQHKBqUAZbnzB26ucQOT5sEBO72/B7LsCQZ5egT7KI4fB1hPVQLf1Kz+uJYDB
OwvUQHgXDb+Yq4rBwcWDQM3uHUBwg6vBA/RVQOB8vj9iL6HBDB6rQMmxekBSx4jBQATBQFjSmkCt
1ZPBdH6/QEaFQkDcvp/B6DlYQNQvVEC8HZPB/2aYQCB0nD8SRY/BZ59nQIXxrUBmlofBiZx/QMGX
xUAv2JLBLhJQQFfRgkAGwaTBdc8JQef47EAS7pPB3h4DQT9+AUH6Ip3BpVT1QJfX3UBZhIzBOyef
QFmjGkGaz6jBBA+8QJLL+EDUzZfBTg/MQCstSz8/nKzBW8mTQIGHKr9asKXB3f/VQCzjz7+qnqzB
2z2bQMpSKkH+YbDBouzlQDc2G0G3ka/BtyraQNmmBEHuFZ/BgH3LQGt4EkFE6qfBBAXJQN685EDH
P47BFD2jQFxxID/59afBcYrlQOpcqb6F2a7BNAqtQDsz5b/kFajBcJfZQErmwz9/JZDBEpqsQDsL
A0EVZWPBpQGeQN77DUH4KXjB7UPLQN7W4EAEJmjBYa+HQPBY+0DiV4PBAya3QI1ZwECt1XfB5++l
QPWz1UDeX4bBPQHjQIA/4z4b6IfBJYOJQHu+6j/jp6TBup2hQIQfkECfcY/BAGqiQGkjKECHH5zB
KuyGQJpAcEAoopfBP2mvQGhL3T9AUpPB4raKQLSltkB8CIzBwGX3QOGRBkA9mZTByeN1QN1jlEDL
GKDB9oUGQTmHK77FDrPBSh2eQK7mQcAi6qXB7D3LQKRcLkEkIrfBjacaQcaj50BiiZLBZ9MOQfGK
B0H/uaLB5eD/QNXgzEBpd4XBSdOEQMvaFEHMBKTB8FiaQFSP+0C+k5nBxLTXQPRi5D8Vcq7Byi5p
QHAOS7+hHKLBHHzpQOxAH8DYYq7B+Dl8QIgRM0Hi9rHBbn4DQWC+FkFvubDBDRi9QK/XDkGXRFnB
BmKQQKC0+UCG41rBd5WHQE78GkG9SXTB+AW6QPabFEEPQYDBBczoQFWu7UBOQW/BF/PSQI9f0EAo
E1nBuDFXQDhv7kAZRX7Bho96QDnHBUF+tYrBEZrPQM+YqEDzN3zBgGKcQDk1sEAYvW/B3+kCQVIh
pD7xFIfBzkDVQAmUOz+GJIDB5rXUQM9fAb+tjYrBbdeDQBVaHkBdq6vB4E5VQJD1wD/GUqHBtmCn
QADUdkCqeYjBbGnAQJRDmUCrCpPBxxC/QLT2Q0Cc3p/BOvFUQHoRVUDGuJPB8HaYQF/NnT93Z4/B
Qt5lQAjmrUCvJYfB5Ah9QITjxEARhJLBnYNUQGhEhUCsM6XB

>  <OMEGA_E>  (62) 
IO5/PlQsgD4=

>  <OMEGA_NBR>  (62) 
    226094

$$$$
50214053
     RDKit          3D

 74 76  0  0  1  0  0  0  0  0999 V2000
    8.6639    7.4985  -18.3986 C   0  0  0  0  0  0  0  0  0  0  0  0
    7.7003    7.0088  -17.5041 C   0  0  0  0  0  0  0  0  0  0  0  0
    8.2704    8.1978  -19.5495 C   0  0  0  0  0  0  0  0  0  0  0  0
    5.9386    7.8792  -18.9372 C   0  0  0  0  0  0  0  0  0  0  0  0
    6.4250    0.8308  -21.5800 C   0  0  0  0  0  0  0  0  0  0  0  0
    4.5972   -0.6012  -20.8179 C   0  0  0  0  0  0  0  0  0  0  0  0
    6.6728   -1.5938  -21.6282 C   0  0  0  0  0  0  0  0  0  0  0  0
    6.3208    7.2253  -17.7462 C   0  0  0  0  0  0  0  0  0  0  0  0
    6.8960    8.4151  -19.8264 C   0  0  0  0  0  0  0  0  0  0  0  0
    5.1240    0.6844  -21.0506 C   0  0  0  0  0  0  0  0  0  0  0  0
    7.2024   -0.3079  -21.8567 C   0  0  0  0  0  0  0  0  0  0  0  0
    5.3681   -1.7388  -21.1143 C   0  0  0  0  0  0  0  0  0  0  0  0
    6.7464    1.4491  -18.0441 C   0  0  0  0  0  0  0  0  0  0  0  0
    5.3462    8.1979  -14.1986 C   0  0  0  0  0  0  0  0  0  0  0  0
    4.8776    8.8775  -15.4947 C   0  0  0  0  0  0  0  0  0  0  0  0
    6.3367    7.0598  -14.4930 C   0  0  0  0  0  0  0  0  0  0  0  0
    4.2269    7.8463  -16.4210 C   0  0  0  0  0  0  0  0  0  0  0  0
    5.7414    6.0366  -15.4882 C   0  0  0  0  0  0  0  0  0  0  0  0
    5.2128    6.7069  -16.7980 C   0  0  0  0  0  0  0  0  0  0  0  0
    6.9679    0.4355  -16.9259 C   0  0  0  0  0  0  0  0  0  0  0  0
    5.1539    9.9817  -20.8492 C   0  0  0  0  0  0  0  0  0  0  0  0
    6.1047    8.0393  -22.1720 C   0  0  0  0  0  0  0  0  0  0  0  0
    4.3347    1.9017  -20.6387 C   0  0  0  0  0  0  0  0  0  0  0  0
    5.1168    4.5508  -17.9751 C   0  0  0  0  0  0  0  0  0  0  0  0
    7.5500   10.0593  -21.6655 C   0  0  0  0  0  0  0  0  0  0  0  0
    5.0988    2.6576  -19.5357 C   0  0  1  0  0  0  0  0  0  0  0  0
    4.2583    3.7973  -18.9772 C   0  0  2  0  0  0  0  0  0  0  0  0
    6.4317    9.1230  -21.1172 C   0  0  0  0  0  0  0  0  0  0  0  0
    5.4439    1.7348  -18.4359 N   0  0  0  0  0  0  0  0  0  0  0  0
    4.3881    5.7370  -17.5328 N   0  0  0  0  0  0  0  0  0  0  0  0
    7.7042    2.0611  -18.5052 O   0  0  0  0  0  0  0  0  0  0  0  0
    7.1131   10.7995  -22.7994 O   0  0  0  0  0  0  0  0  0  0  0  0
    3.8719    4.6752  -20.0355 O   0  0  0  0  0  0  0  0  0  0  0  0
    8.4606   -0.1660  -22.3304 F   0  0  0  0  0  0  0  0  0  0  0  0
    4.8591   -2.9705  -20.8906 F   0  0  0  0  0  0  0  0  0  0  0  0
    9.7131    7.3364  -18.2004 H   0  0  0  0  0  0  0  0  0  0  0  0
    8.0118    6.4635  -16.6255 H   0  0  0  0  0  0  0  0  0  0  0  0
    9.0199    8.5738  -20.2302 H   0  0  0  0  0  0  0  0  0  0  0  0
    4.8890    7.9718  -19.1743 H   0  0  0  0  0  0  0  0  0  0  0  0
    6.8226    1.8164  -21.7721 H   0  0  0  0  0  0  0  0  0  0  0  0
    3.6025   -0.7126  -20.4124 H   0  0  0  0  0  0  0  0  0  0  0  0
    7.2669   -2.4687  -21.8469 H   0  0  0  0  0  0  0  0  0  0  0  0
    5.8387    8.9456  -13.5595 H   0  0  0  0  0  0  0  0  0  0  0  0
    4.4719    7.7856  -13.6736 H   0  0  0  0  0  0  0  0  0  0  0  0
    4.1455    9.6614  -15.2509 H   0  0  0  0  0  0  0  0  0  0  0  0
    5.7427    9.3289  -16.0026 H   0  0  0  0  0  0  0  0  0  0  0  0
    7.2542    7.4865  -14.9245 H   0  0  0  0  0  0  0  0  0  0  0  0
    6.5794    6.5442  -13.5521 H   0  0  0  0  0  0  0  0  0  0  0  0
    3.3557    7.4092  -15.9112 H   0  0  0  0  0  0  0  0  0  0  0  0
    3.8979    8.3515  -17.3411 H   0  0  0  0  0  0  0  0  0  0  0  0
    6.5226    5.3097  -15.7552 H   0  0  0  0  0  0  0  0  0  0  0  0
    4.9064    5.5141  -14.9985 H   0  0  0  0  0  0  0  0  0  0  0  0
    8.0378    0.3952  -16.6734 H   0  0  0  0  0  0  0  0  0  0  0  0
    6.3929    0.7376  -16.0381 H   0  0  0  0  0  0  0  0  0  0  0  0
    6.6325   -0.5576  -17.2595 H   0  0  0  0  0  0  0  0  0  0  0  0
    4.8416   10.4760  -21.7810 H   0  0  0  0  0  0  0  0  0  0  0  0
    4.3433    9.3305  -20.4903 H   0  0  0  0  0  0  0  0  0  0  0  0
    5.3771   10.7432  -20.0874 H   0  0  0  0  0  0  0  0  0  0  0  0
    5.7709    8.5216  -23.1026 H   0  0  0  0  0  0  0  0  0  0  0  0
    7.0048    7.4395  -22.3724 H   0  0  0  0  0  0  0  0  0  0  0  0
    5.3061    7.3860  -21.7908 H   0  0  0  0  0  0  0  0  0  0  0  0
    4.1972    2.5614  -21.5081 H   0  0  0  0  0  0  0  0  0  0  0  0
    3.3517    1.5895  -20.2562 H   0  0  0  0  0  0  0  0  0  0  0  0
    5.3310    3.9044  -17.1112 H   0  0  0  0  0  0  0  0  0  0  0  0
    6.0618    4.8528  -18.4504 H   0  0  0  0  0  0  0  0  0  0  0  0
    7.8448   10.7632  -20.8733 H   0  0  0  0  0  0  0  0  0  0  0  0
    8.4173    9.4468  -21.9532 H   0  0  0  0  0  0  0  0  0  0  0  0
    6.0205    3.0740  -19.9683 H   0  0  0  0  0  0  0  0  0  0  0  0
    3.3743    3.3859  -18.4679 H   0  0  0  0  0  0  0  0  0  0  0  0
    4.6962    1.2890  -17.9438 H   0  0  0  0  0  0  0  0  0  0  0  0
    3.6418    5.4428  -16.9356 H   0  0  0  0  0  0  0  0  0  0  0  0
    4.0102    6.1925  -18.3388 H   0  0  0  0  0  0  0  0  0  0  0  0
    7.8187   11.3572  -23.1052 H   0  0  0  0  0  0  0  0  0  0  0  0
    3.3354    4.2017  -20.6604 H   0  0  0  0  0  0  0  0  0  0  0  0
  1  2  2  0
  1  3  1  0
  2  8  1  0
  3  9  2  0
  4  8  2  0
  4  9  1  0
  5 10  2  0
  5 11  1  0
  6 10  1  0
  6 12  2  0
  7 11  2  0
  7 12  1  0
  8 19  1  0
  9 28  1  0
 10 23  1  0
 11 34  1  0
 12 35  1  0
 13 20  1  0
 13 29  1  0
 13 31  2  0
 14 15  1  0
 14 16  1  0
 15 17  1  0
 16 18  1  0
 17 19  1  0
 18 19  1  0
 19 30  1  0
 21 28  1  0
 22 28  1  0
 23 26  1  0
 24 27  1  0
 24 30  1  0
 25 28  1  0
 25 32  1  0
 26 27  1  0
 26 29  1  0
 27 33  1  0
  1 36  1  0
  2 37  1  0
  3 38  1  0
  4 39  1  0
  5 40  1  0
  6 41  1  0
  7 42  1  0
 14 43  1  0
 14 44  1  0
 15 45  1  0
 15 46  1  0
 16 47  1  0
 16 48  1  0
 17 49  1  0
 17 50  1  0
 18 51  1  0
 18 52  1  0
 20 53  1  0
 20 54  1  0
 20 55  1  0
 21 56  1  0
 21 57  1  0
 21 58  1  0
 22 59  1  0
 22 60  1  0
 22 61  1  0
 23 62  1  0
 23 63  1  0
 24 64  1  0
 24 65  1  0
 25 66  1  0
 25 67  1  0
 26 68  1  6
 27 69  1  1
 29 70  1  0
 30 71  1  0
 30 72  1  0
 32 73  1  0
 33 74  1  0
M  CHG  1  30   1
M  END
>  <OMEGA_C>  (63) 
KZ8KQaPz70BEMJPBFWn2QH5I4EBVCIzBnVMEQV0qA0FeZZzB1wi+QCMi/EBuf5fBeJnNQJetVD/N
o6zBVByTQG3lGb8oi6bBTIfVQN8AzL9+Bq3BskPKQAI250Ae+I3BLKzcQEakBkFlnJ7B8fejQJwz
Lz+5Z6jBzHnmQBGhnb5y2q7BNMerQByR3r8G6qjBr+LXQPV6uT9lWpDBFhSrQK4qA0FWLWPBlBWc
QFYKDkE46nfBYcbKQJLp4UBK42fBxEKHQN8U+0A8XoPBMLm3QN8rwUCEz3fBSM+mQBGf1kBIYobB
cPneQC/03j4yaIfBv+ykQCe1H0FCy6bBEVrDQA2hAEFJYLHBoLWKQMFp8z8OHKXB2byjQICgkUD6
zI/B4ZnxQMLyIEH0Uq3BjCmjQOQWKkAUSZzBxkOIQIUGc0BQ0ZfBwNDNQP/3EUH676jBbzSuQKQO
3j/CfJPBAWuMQCyVt0AYQ4zBrYj2QNfoA0C5CpTBRZ7jQJ7KLEE6ZbbByMx3QPKalUC2SKDBuF4H
QSYAKr6ypLLB6n2bQE4cPsDgH6fBtGgbQZnD6kBSmpHBcDAAQQDVzkDuAIXBalEQQWouCUFr16HB
qnKcQA8Z/0DrZJnBXVLaQAB/6D9aLa7BkY5mQKtuNr+vTKPBaIroQMD/HcCGxq7By9a6QAQhD0GN
81jBDhqPQIwj+UDoxlrB7aeEQEKVGkF/A3TB2cO3QB9DFUFgBYDBIyLoQFGR70Cxym7Bg4rSQGlq
0UBE1VjBqcNWQE4Y7UAVlH7BwXd5QNifBUGJuorBHrnQQGjpqUB5FXzBBAGdQKJzsECx+W/B6poA
QRReyj4SY4XB25LMQJbQPD8aToDBmT3UQJa+Dr+ME4rBte6aQLedJ0GCP67BRvyKQLVJFUE17KPB
7hCsQPzjK0H9sqDBVau4QF5YCEEf0rjBOCfgQJ8Q7kDH+rLBmcupQMZZ7ECkU67BVk+GQE3uI0CL
EKzBDoJWQPB0yz+1DKLBypeqQGrieUDE44jB4PnBQBNKm0BdmpPBoAj7QOY1LEFx/KbBUq0GQTUm
F0EQoK/BJKjAQNu7REAKv5/BxvRXQP+xWEBRvpPB8UaWQNn+pD/2jI/B3BJpQLcrrkAzfIfB4FOA
QOEoxkDqtZLB2zL6QCe3NUFw17jBMndVQAJ0hkB+SKXBuFwIQdc08kDC6ZPBaonzQJav4UAEb4zB
ogQBQVpDBEFq8pzB+a24QKgf/EDNRZfBbqbMQKtGYz+hBK3BgkyVQMCNHr91SabBEIbXQKA1w7+n
pa3B5/XGQH+X50Dc443BIJjVQEQpB0HZqp7B3SCkQIf4Lz+5SKjBfXXmQPhCX75Lm6/BRt+uQOCy
3L+fBqnB8yfbQDjBxD9dhpDBD7CrQJO3AkGYS2LB/9yaQFaiDUH1qHbBcqHLQAmt4UBGwmfBK2eF
QEYn+kCbnILBr/G3QAjbwEB3bHfBZA2lQM431kBD/IXB9FvlQGJb2z7tiIjBvFS4QOR3AUG0GbHB
rjDmQAULIkFEmq3BHPSJQPpo7z8ppaTBWKKiQNBakUDCe4/Bj4KbQCvcH0FjrKXBgNCiQN/WKUD6
CZzBzvaGQPADcEBYNpfBNzbEQJKgEkGPsKjBM7OwQBi33j8vbpPBGqCKQPSStkDCrYvBBoT4QADh
B0DmC5XB8suNQAYOLUEMR67BoF5vQFGKk0B4fZ/BGNwGQaDDx7yW4LPBvZKgQFp6PsBEFafBkVMZ
QZC47UD0tZLBwiD/QJdk0ECCiYXBm18MQYisCkG1naLB+L+WQL/8/UAI2ZjBdtDXQOLV8T9Qpq7B
9qRsQIivRb//p6LBjTzrQCb7F8D0r6/BgsK7QBe5DkFQPljByo+QQHea90DudlnB9mODQNX6GUGR
O3LBrLe1QGgcFUG+PH/BAS/oQML170CrK2/BJ9rUQKIZ0UDO7ljBubNUQCWl60BFnHzBViBzQDgv
BUH91onBwv/QQI8YqkC/QHzBXCSeQGqRr0ACJG/BQCAEQRnqmz6j7ofB+FDYQDL4MT8RpYDB09rW
QI2PA78XRIvBLtarQNlTCUEGVLjBtPfUQN428EA/K7PBEL6fQFmG7UC1yK3BgbXYQHnqKUEIt7TB
EBHvQLg6LkFcp6fBo2IBQUjbGEEL56/B2oeDQDrQIUAig6vBqPJWQEUcwj9HRqHBw2OrQKYDekD4
pIjBxda/QM4bnEBPmJPBoIeBQFzAFEEpk6PBRPOiQAULKkG4vZ7Bkge/QLhnR0C5yJ/BEElYQCHI
UkDM1pLBMCaaQLwgnj+1cI/BvXNnQC5erEANtYbBzWd6QMrvxEC9/ZHBAypqQEfZNEExLqzBZ8xM
QKqbg0AUT6TBNDwJQSaX8UBeOJTBULn0QJxX4UB51ozBATYCQTOaA0Gha53BX5y6QP1a+0B8AJjB
7sDMQIpoPj87P6zBj86TQKoiNL9FgqXBgd/VQIm31r+UYazBezzIQBod50Cog47BkRrYQBtZBkGn
XJ/BKcmjQOD8FT+Zp6fBtenlQNhVxr4sg67BB7qsQMrD6r9t7qfBce/ZQOyWuD9sHJDBbfirQEpW
A0GO82PBtDScQIMYDkGcm3jBoY7LQJdP4kCA4GjBGIyGQLX++kBLhIPBlgO4QHZhwUCqhHjBstCl
QCRz1kCUqIbBgqPiQKByvD5MuIfBddvpQJwrHkHVeK/B/ASgQJToHkEInKfBPDSKQK7x5T/vXaTB
H2aiQJFekEDUio/BckC6QNGq+kAwHLHBLuWiQDTwJUCbzpvBIC+HQMHlbUCjWpfBgGDHQD8+EEHf
zanBEravQP4c2j8Y7pLBYCeLQKPftkDATYzBrv73QNgC+D+TBZXBqjmrQCDWBEHQKrvBI/FyQBkV
kkA44p/BJMwGQeGdb74ipLLBb0ydQDlzRMCg2qXBOSgaQZ1v7UDkz5LBIdH/QFxa0ED114XB1sAN
QS3ZCUF7CqPB88eYQDuj/UCHrJnBk8HYQGa03T+dBK7BQ+VoQCTeUr+3AaLBOh7pQFj7IsCKKK7B
awm8QGtcD0E361nB51OQQE19+UCERlvB7BiFQJ69GkECkHTBAJq3QAoqFUEsjYDB2ZroQET670C4
GHDBB/PTQJb80UD121nBtDFWQHkl7UDLdn7BrYd2QKV4BUFU1orBHwLRQDtTqkAoEX3B/9qdQMV3
sEBhUnDBI6ECQR6FNj4SP4fBWezWQDP2NT97xn/Bvf/RQHE2D79N+YnBaXfcQBvlJEEi4rbB2K/z
QL1DK0FMIarBqecCQQYzFEGaaLHBcaKUQM/LJUHlMK/B8EOGQC5oFUFg8qPBgV6pQFngK0FgI6LB
bLaEQIrpG0CeZKvB1YRWQBCBvD9fEaHBCkGpQCtXeUAgdIjB0aPAQD+LmUAJa5PBrSzWQITd5UCA
ZrLBcK2gQJBK6ECyLa3BfZe/QF3kQUBOhJ/BOB9XQE5jUkDEHpPBWJGYQH6koT/2rY7BKXBmQIEs
rkCqdYfB1kp+QAO4xECc3JLBX16jQLn+8UCigr/BpO5QQE0XgkCcwKTB

>  <OMEGA_E>  (63) 
0NFkPrgSdD5wQWE+

>  <OMEGA_NBR>  (63) 
    229891

$$$$
50214056
     RDKit          3D

 68 70  0  0  1  0  0  0  0  0999 V2000
    8.5611    7.5851  -18.5662 C   0  0  0  0  0  0  0  0  0  0  0  0
    8.0908    8.1972  -19.7410 C   0  0  0  0  0  0  0  0  0  0  0  0
    7.6502    7.0997  -17.6065 C   0  0  0  0  0  0  0  0  0  0  0  0
    5.7966    7.8705  -18.9829 C   0  0  0  0  0  0  0  0  0  0  0  0
    6.4395    0.8095  -21.5386 C   0  0  0  0  0  0  0  0  0  0  0  0
    4.6201   -0.6302  -20.7715 C   0  0  0  0  0  0  0  0  0  0  0  0
    6.7006   -1.6136  -21.5803 C   0  0  0  0  0  0  0  0  0  0  0  0
    6.7052    8.3241  -19.9519 C   0  0  0  0  0  0  0  0  0  0  0  0
    6.2502    7.2623  -17.7912 C   0  0  0  0  0  0  0  0  0  0  0  0
    5.1402    0.6574  -21.0068 C   0  0  0  0  0  0  0  0  0  0  0  0
    7.2235   -0.3256  -21.8115 C   0  0  0  0  0  0  0  0  0  0  0  0
    5.3965   -1.7644  -21.0667 C   0  0  0  0  0  0  0  0  0  0  0  0
    6.2918    8.1921  -22.3684 C   0  0  0  0  0  0  0  0  0  0  0  0
    6.1904    8.8998  -21.1930 C   0  0  0  0  0  0  0  0  0  0  0  0
    6.7625    1.4669  -17.9841 C   0  0  0  0  0  0  0  0  0  0  0  0
    5.3394    8.1462  -14.1700 C   0  0  0  0  0  0  0  0  0  0  0  0
    4.8321    8.8441  -15.4413 C   0  0  0  0  0  0  0  0  0  0  0  0
    6.3659    7.0548  -14.5122 C   0  0  0  0  0  0  0  0  0  0  0  0
    4.1920    7.8189  -16.3800 C   0  0  0  0  0  0  0  0  0  0  0  0
    5.7891    6.0349  -15.5172 C   0  0  0  0  0  0  0  0  0  0  0  0
    5.1965    6.7113  -16.7975 C   0  0  0  0  0  0  0  0  0  0  0  0
    5.5073   10.2479  -21.1540 C   0  0  0  0  0  0  0  0  0  0  0  0
    6.9875    0.4155  -16.9018 C   0  0  0  0  0  0  0  0  0  0  0  0
    4.3443    1.8709  -20.5976 C   0  0  0  0  0  0  0  0  0  0  0  0
    5.1087    4.5421  -17.9523 C   0  0  0  0  0  0  0  0  0  0  0  0
    5.1053    2.6389  -19.5002 C   0  0  1  0  0  0  0  0  0  0  0  0
    4.2537    3.7729  -18.9447 C   0  0  2  0  0  0  0  0  0  0  0  0
    5.4595    1.7295  -18.3918 N   0  0  0  0  0  0  0  0  0  0  0  0
    4.3709    5.7227  -17.5087 N   0  0  0  0  0  0  0  0  0  0  0  0
    7.7274    1.9431  -18.5728 O   0  0  0  0  0  0  0  0  0  0  0  0
    3.8504    4.6410  -20.0043 O   0  0  0  0  0  0  0  0  0  0  0  0
    8.4816   -0.1786  -22.2841 F   0  0  0  0  0  0  0  0  0  0  0  0
    4.8942   -2.9983  -20.8404 F   0  0  0  0  0  0  0  0  0  0  0  0
    9.6235    7.4864  -18.3986 H   0  0  0  0  0  0  0  0  0  0  0  0
    8.7886    8.5677  -20.4774 H   0  0  0  0  0  0  0  0  0  0  0  0
    8.0191    6.5999  -16.7230 H   0  0  0  0  0  0  0  0  0  0  0  0
    4.7362    7.9882  -19.1506 H   0  0  0  0  0  0  0  0  0  0  0  0
    6.8308    1.7966  -21.7357 H   0  0  0  0  0  0  0  0  0  0  0  0
    3.6263   -0.7461  -20.3650 H   0  0  0  0  0  0  0  0  0  0  0  0
    7.2994   -2.4859  -21.7967 H   0  0  0  0  0  0  0  0  0  0  0  0
    5.8802    8.5984  -23.2806 H   0  0  0  0  0  0  0  0  0  0  0  0
    6.7830    7.2303  -22.3791 H   0  0  0  0  0  0  0  0  0  0  0  0
    5.8128    8.8923  -13.5148 H   0  0  0  0  0  0  0  0  0  0  0  0
    4.4873    7.6873  -13.6473 H   0  0  0  0  0  0  0  0  0  0  0  0
    4.0848    9.6033  -15.1668 H   0  0  0  0  0  0  0  0  0  0  0  0
    5.6767    9.3290  -15.9526 H   0  0  0  0  0  0  0  0  0  0  0  0
    7.2568    7.5266  -14.9525 H   0  0  0  0  0  0  0  0  0  0  0  0
    6.6487    6.5273  -13.5893 H   0  0  0  0  0  0  0  0  0  0  0  0
    3.3390    7.3507  -15.8671 H   0  0  0  0  0  0  0  0  0  0  0  0
    3.8374    8.3366  -17.2836 H   0  0  0  0  0  0  0  0  0  0  0  0
    6.5933    5.3494  -15.8225 H   0  0  0  0  0  0  0  0  0  0  0  0
    4.9906    5.4649  -15.0197 H   0  0  0  0  0  0  0  0  0  0  0  0
    5.1852   10.5257  -22.1685 H   0  0  0  0  0  0  0  0  0  0  0  0
    4.6301   10.1953  -20.4924 H   0  0  0  0  0  0  0  0  0  0  0  0
    6.2095   11.0037  -20.7725 H   0  0  0  0  0  0  0  0  0  0  0  0
    8.0651    0.2210  -16.7972 H   0  0  0  0  0  0  0  0  0  0  0  0
    6.5867    0.7824  -15.9454 H   0  0  0  0  0  0  0  0  0  0  0  0
    6.4726   -0.5152  -17.1823 H   0  0  0  0  0  0  0  0  0  0  0  0
    4.1993    2.5254  -21.4697 H   0  0  0  0  0  0  0  0  0  0  0  0
    3.3648    1.5534  -20.2106 H   0  0  0  0  0  0  0  0  0  0  0  0
    5.3364    3.9022  -17.0870 H   0  0  0  0  0  0  0  0  0  0  0  0
    6.0467    4.8527  -18.4356 H   0  0  0  0  0  0  0  0  0  0  0  0
    6.0222    3.0619  -19.9367 H   0  0  0  0  0  0  0  0  0  0  0  0
    3.3777    3.3539  -18.4278 H   0  0  0  0  0  0  0  0  0  0  0  0
    4.7151    1.2740  -17.9036 H   0  0  0  0  0  0  0  0  0  0  0  0
    3.6393    5.4244  -16.8957 H   0  0  0  0  0  0  0  0  0  0  0  0
    3.9728    6.1651  -18.3123 H   0  0  0  0  0  0  0  0  0  0  0  0
    3.3159    4.1582  -20.6238 H   0  0  0  0  0  0  0  0  0  0  0  0
  1  2  2  0
  1  3  1  0
  2  8  1  0
  3  9  2  0
  4  8  2  0
  4  9  1  0
  5 10  2  0
  5 11  1  0
  6 10  1  0
  6 12  2  0
  7 11  2  0
  7 12  1  0
  8 14  1  0
  9 21  1  0
 10 24  1  0
 11 32  1  0
 12 33  1  0
 13 14  2  0
 14 22  1  0
 15 23  1  0
 15 28  1  0
 15 30  2  0
 16 17  1  0
 16 18  1  0
 17 19  1  0
 18 20  1  0
 19 21  1  0
 20 21  1  0
 21 29  1  0
 24 26  1  0
 25 27  1  0
 25 29  1  0
 26 27  1  0
 26 28  1  0
 27 31  1  0
  1 34  1  0
  2 35  1  0
  3 36  1  0
  4 37  1  0
  5 38  1  0
  6 39  1  0
  7 40  1  0
 13 41  1  0
 13 42  1  0
 16 43  1  0
 16 44  1  0
 17 45  1  0
 17 46  1  0
 18 47  1  0
 18 48  1  0
 19 49  1  0
 19 50  1  0
 20 51  1  0
 20 52  1  0
 22 53  1  0
 22 54  1  0
 22 55  1  0
 23 56  1  0
 23 57  1  0
 23 58  1  0
 24 59  1  0
 24 60  1  0
 25 61  1  0
 25 62  1  0
 26 63  1  6
 27 64  1  1
 28 65  1  0
 29 66  1  0
 29 67  1  0
 31 68  1  0
M  CHG  1  29   1
M  END
>  <OMEGA_C>  (64) 
V/oIQdS48kCmh5TBCnQBQZInA0Gl7Z3BLs70QIww40AM2ozBjH25QGnb+0Dk3JfBlhDOQB46Tz8j
T6zB+9eTQN1XIb8dLKbBJWvWQJSLzr9ipKzBBZHWQK8vBUFtnZ/BagHIQGpk6EBiVI7Bm3ykQC1O
KD/fDajBoCbnQEC4pr77fa7BGLCsQKfX4b+OiKjBylbJQOcSA0GR8rLBJhjGQI5lDkE2i6nBfmbY
QKbCuz+H34/BxdyqQPpWAkFAuGLBSaCaQHmBDUGHD3fBvLXLQODA4UAVMmjBKCWGQLQ0+kBUCoPB
6j+5QPwdwUBtRnjBVEmmQOHC1kBRYYbB4zuwQDr3I0F8O6nBwJnfQOq51D73NofBHgSLQC167z/R
x6TBIHqjQOFYkUBBno/B/F6jQFfkKEB6AJzBKB6IQJZ2cUDPjpfB6rOuQLVh3T9UIpPBw96LQPYf
t0DkEYzBFkf3QP+3+D8qlZTBfmx2QOGClEDQCKDBjLQHQRzWNr6+RbLBRJ2cQIbjP8ANuabBr/kZ
QeGQ70BMMJPBLJ4MQW8VCUGi0aPBDk4AQScy00C0yIXB0o6XQPSe/0BqNJnB2ZXaQHj45T+h4q3B
7xRoQPb/Pr+K66LB/pTpQL4ZH8ChX67B7Sq8QOKSCUGSPrrBtA7ZQPRe50BXCLPBnQK6QOlGDkGM
PFjBKZiPQPX99UBEW1rBD7eCQPamGUEsq3LBXqe1QMdDFUHzPX/BUzfoQMnZ8ECCPW/BLsLUQFjf
0EDdbVnBPLJVQAs560Cp333Buph1QJJiBUG2RIrBh/zSQFUuq0AQKX3B27KfQEvgrkCkUHDBIu2l
QERpKEEEWbHBsimUQNAfI0GG8KPBXrTGQE4PMEElLqbBvQoBQc9JYj65YIbBmcbSQH5LSD9qIH/B
jh/PQDTmA79EdYnBnmCGQECgIUD2wavBFlhXQMTVxj9Er6HB7cOqQDK9eUBEsojBbH7BQC5Jm0Az
fJPB8bXAQMf1Q0BPfp/B2yxYQNemVkAhbJPB3OGWQCERoz+HOo/B6OpoQOuUrUBjKofBH0N+QEZI
xUCtf5LB0zdUQNMPhUCD/aTB/qvQQILqB0GDjJ/BVP38QIg+B0EIn53B9yy0QNDL/UCGEpjBCC3w
QEC15kC6KY3BX4vJQDQSKT9BiazBDJCQQD0/NL+eyaTBFu3OQFjP4r++0azBPHgGQRoR+kB3UZTB
3tDDQJCt6UC5p47BFLehQLe8Dz/FSKfBvzXgQLecAb80P6/B8hCnQG5U779Gm6fBD4smQS4b4UDI
CorBtWkdQWqw/EBOZpHBdKDaQBrVuj8K+4/BNpOtQO6f/0DH+mDBVOWdQMZaDEEto3TBHNLMQFxN
3EAYpWfBaZOGQL6g+kBrI4LBJi25QJLDvkAp4HjB8Y+kQPzf1kCiTobBZuMqQcdTEEEC8pXBjbzi
QIxUzT5paofBjwOKQECK5z8nCKTBT7miQM6ekUAGh4/BojSkQM9zJ0AA1pvBpkqJQMlxckCiz5fB
tIewQJ5s4D+yvpLBekeKQFxxt0ASEozBuuz4QAwz9T/CCpXBMmZ/QGodlUB2hqDBQ0kDQYCq0r7Q
LbTBpXOWQDZRRcDBRqXBR4bEQN9SD0FhvabBJHAJQYeDDkHQO6PB/SCSQORE/0BmgpnBs3v8QMAx
1UA4YYbBCpzWQEK20D/VeK7BXVpkQCtOR7/+tqDByz3gQBi7KsCa9K7Bv/82QURs5UD3oofBzDYd
QW9Cx0BptIbBvtS9QMDaCkHd8VXB++uRQD4U8UDo31jBpsaHQPACGUEIa2/BRIS5QOaeE0GkxnzB
CgHqQGQi60AaHW7ByQLVQEsCyUBQgVnB2o1WQLbV60BE/HvBnsh1QAO3BkH6+ojBaZ7SQLitqUDF
8H7BCBugQGJTq0DJP3HBqmQ7QW7hDkEC+pLBKt8qQVNcD0Fou57BZi4kQVHNH0EVbpPBaZkCQYTf
Oz6o/IbB457XQM5YRj9LPX/BGznRQLidBL+vd4nBhFCEQBuCG0CfJ6vBZ1lWQNRuwz96cKDBStuo
QHeoeUATmIjBz1vBQN7nm0AwBJPBwhbBQNVyQEAUx5/BLnNXQDzOWUBlKZTBxyeZQGmDrT+tTY7B
J0VlQJDPrUBjP4fBHLB7QM2RxUBsipLBemlfQEEChkAyxaXBOd4IQRnd8EDPz5TBWEQBQaPTA0GV
vZ3BgdL0QO354EDPH43B65G5QL1l/0B4M5fBrGnNQAvzRT8qT6zBNrySQLLEJr8YOKbBVBLVQDx8
0781razBEUTWQOZ2B0En6Z7BmzHIQGu56EBQJ47BQcSjQGDZIT9vEajBISrmQFisvL5Eg67BAUar
QL9l5b/SlajBQbGnQBY/IkEMkqfBoBLFQDnoEUGygKjBcnTYQHEdvT8l5o/BWdqsQDokAkHquWLB
42ibQIA0DUHf33bB1B7NQCTy4EDwhGjBv0eGQFVL+UC6v4LBKqK5QM5ZwEBXUHjBWIOmQGJF1kDn
U4bBxy3RQARKCUGeZLPBpFfgQBNZwz4ApIfBN42KQKsq7T+7z6TBNOCjQCFRkUDLz4/BISqjQILt
J0A7F5zBAy+IQJXrcEDMo5fBALWuQDI62z+EQJPBKz+MQOP9tkBPL4zBXQ33QCFBAUDwQJTBQCB2
QFsAlEByJKDBezgHQTNbbb7JTrLBVM+aQHNpQcBF0abBp9QZQWyG60As2JPBDlcMQfvCCUE2rKPB
8FQAQcrHzkDUZobBvbCXQNVyAkEDNpjB2z3aQGzr4D/s263BxrxlQHlZQr/z/KLBCALoQK/iIcC1
Z67BiiWZQKL7KEG0pa7B9jafQGBQKEFhw5/B89i8QLweDkFqnFjBSwmSQI/29UCv2lnBB6KDQOVQ
GUHtNXLBTuW1QNj8FEFNd3/BS3DpQKK170DU62/BDa/WQD4Y0EBZ01nB7IRXQDP+6UCm0HzBwnlz
QO/PBEHf4onBmdHSQDLnqUC3VX3BuACgQPanrkD0HHDBtZrBQGnsEkHdpLnBWB30QMcdCkHzYrTB
E6LGQOEa8UBaErTBFH0BQVC6ZD7RtYbBpYPSQPX5Lj+K1X/BZDbRQMF7Db+YVorBbuSFQB03IEDD
z6vBKW1WQHlpxT/XqqHBP7erQLXceUAg6YjB0ZbBQPtqm0ALzJPBgHPAQH2xQkBgpZ/BNIpYQEWD
VkBbapPBwA2XQCExnj9aco/BBkVpQPI+rUDDXYfBno1/QA2HxUAEmJLBDoNTQJ9whEAUCKXB

>  <OMEGA_E>  (64) 
2IURPqQzlD5Q5Qk+

>  <OMEGA_NBR>  (64) 
    233448

$$$$
50214054
     RDKit          3D

 67 69  0  0  1  0  0  0  0  0999 V2000
    8.5637    7.6159  -18.5869 C   0  0  0  0  0  0  0  0  0  0  0  0
    7.6554    7.1359  -17.6243 C   0  0  0  0  0  0  0  0  0  0  0  0
    8.0954    8.1197  -19.8123 C   0  0  0  0  0  0  0  0  0  0  0  0
    5.8008    7.7128  -19.0960 C   0  0  0  0  0  0  0  0  0  0  0  0
    4.5897   -0.7048  -20.7415 C   0  0  0  0  0  0  0  0  0  0  0  0
    6.4149    0.7297  -21.5049 C   0  0  0  0  0  0  0  0  0  0  0  0
    6.6666   -1.6942  -21.5522 C   0  0  0  0  0  0  0  0  0  0  0  0
    6.2557    7.2119  -17.8507 C   0  0  0  0  0  0  0  0  0  0  0  0
    6.7141    8.1219  -20.0872 C   0  0  0  0  0  0  0  0  0  0  0  0
    5.1152    0.5816  -20.9728 C   0  0  0  0  0  0  0  0  0  0  0  0
    5.3619   -1.8413  -21.0393 C   0  0  0  0  0  0  0  0  0  0  0  0
    7.1943   -0.4077  -21.7806 C   0  0  0  0  0  0  0  0  0  0  0  0
    6.7552    1.4396  -17.9420 C   0  0  0  0  0  0  0  0  0  0  0  0
    5.3284    8.0846  -14.1809 C   0  0  0  0  0  0  0  0  0  0  0  0
    4.8586    8.8082  -15.4523 C   0  0  0  0  0  0  0  0  0  0  0  0
    6.3647    7.0052  -14.5209 C   0  0  0  0  0  0  0  0  0  0  0  0
    4.2245    7.8091  -16.4246 C   0  0  0  0  0  0  0  0  0  0  0  0
    5.8113    6.0011  -15.5541 C   0  0  0  0  0  0  0  0  0  0  0  0
    5.2117    6.6838  -16.8326 C   0  0  0  0  0  0  0  0  0  0  0  0
    6.9954    0.3692  -16.8815 C   0  0  0  0  0  0  0  0  0  0  0  0
    6.1534   10.1039  -21.4948 C   0  0  0  0  0  0  0  0  0  0  0  0
    6.2112    8.5741  -21.4409 C   0  0  0  0  0  0  0  0  0  0  0  0
    4.3223    1.7979  -20.5648 C   0  0  0  0  0  0  0  0  0  0  0  0
    5.0981    4.4900  -17.9417 C   0  0  0  0  0  0  0  0  0  0  0  0
    5.0914    2.5744  -19.4789 C   0  0  1  0  0  0  0  0  0  0  0  0
    4.2434    3.7149  -18.9295 C   0  0  2  0  0  0  0  0  0  0  0  0
    5.4522    1.6687  -18.3697 N   0  0  0  0  0  0  0  0  0  0  0  0
    4.3719    5.6885  -17.5208 N   0  0  0  0  0  0  0  0  0  0  0  0
    7.7146    1.9696  -18.4925 O   0  0  0  0  0  0  0  0  0  0  0  0
    3.8453    4.5763  -19.9963 O   0  0  0  0  0  0  0  0  0  0  0  0
    4.8544   -3.0741  -20.8185 F   0  0  0  0  0  0  0  0  0  0  0  0
    8.4524   -0.2643  -22.2541 F   0  0  0  0  0  0  0  0  0  0  0  0
    9.6241    7.5970  -18.3828 H   0  0  0  0  0  0  0  0  0  0  0  0
    8.0264    6.7061  -16.7057 H   0  0  0  0  0  0  0  0  0  0  0  0
    8.7930    8.5042  -20.5416 H   0  0  0  0  0  0  0  0  0  0  0  0
    4.7402    7.7818  -19.2874 H   0  0  0  0  0  0  0  0  0  0  0  0
    3.5951   -0.8178  -20.3359 H   0  0  0  0  0  0  0  0  0  0  0  0
    6.8100    1.7158  -21.6998 H   0  0  0  0  0  0  0  0  0  0  0  0
    7.2623   -2.5683  -21.7703 H   0  0  0  0  0  0  0  0  0  0  0  0
    5.7812    8.8164  -13.4958 H   0  0  0  0  0  0  0  0  0  0  0  0
    4.4626    7.6128  -13.6934 H   0  0  0  0  0  0  0  0  0  0  0  0
    4.1160    9.5733  -15.1817 H   0  0  0  0  0  0  0  0  0  0  0  0
    5.7211    9.2893  -15.9366 H   0  0  0  0  0  0  0  0  0  0  0  0
    7.2619    7.4880  -14.9356 H   0  0  0  0  0  0  0  0  0  0  0  0
    6.6318    6.4629  -13.6019 H   0  0  0  0  0  0  0  0  0  0  0  0
    3.3470    7.3534  -15.9427 H   0  0  0  0  0  0  0  0  0  0  0  0
    3.9073    8.3478  -17.3297 H   0  0  0  0  0  0  0  0  0  0  0  0
    6.6300    5.3362  -15.8663 H   0  0  0  0  0  0  0  0  0  0  0  0
    5.0199    5.4075  -15.0731 H   0  0  0  0  0  0  0  0  0  0  0  0
    8.0770    0.2152  -16.7536 H   0  0  0  0  0  0  0  0  0  0  0  0
    6.5560    0.6941  -15.9268 H   0  0  0  0  0  0  0  0  0  0  0  0
    6.5260   -0.5735  -17.1993 H   0  0  0  0  0  0  0  0  0  0  0  0
    5.7871   10.4230  -22.4817 H   0  0  0  0  0  0  0  0  0  0  0  0
    5.4719   10.4727  -20.7141 H   0  0  0  0  0  0  0  0  0  0  0  0
    7.1598   10.5149  -21.3270 H   0  0  0  0  0  0  0  0  0  0  0  0
    6.8921    8.2076  -22.2233 H   0  0  0  0  0  0  0  0  0  0  0  0
    5.2042    8.1654  -21.6104 H   0  0  0  0  0  0  0  0  0  0  0  0
    4.1698    2.4463  -21.4402 H   0  0  0  0  0  0  0  0  0  0  0  0
    3.3461    1.4826  -20.1677 H   0  0  0  0  0  0  0  0  0  0  0  0
    5.3107    3.8607  -17.0649 H   0  0  0  0  0  0  0  0  0  0  0  0
    6.0439    4.7815  -18.4218 H   0  0  0  0  0  0  0  0  0  0  0  0
    6.0058    2.9925  -19.9250 H   0  0  0  0  0  0  0  0  0  0  0  0
    3.3652    3.3021  -18.4113 H   0  0  0  0  0  0  0  0  0  0  0  0
    4.7127    1.1901  -17.8963 H   0  0  0  0  0  0  0  0  0  0  0  0
    3.6393    5.4109  -16.8993 H   0  0  0  0  0  0  0  0  0  0  0  0
    3.9756    6.1179  -18.3323 H   0  0  0  0  0  0  0  0  0  0  0  0
    3.3108    4.0906  -20.6135 H   0  0  0  0  0  0  0  0  0  0  0  0
  1  2  2  0
  1  3  1  0
  2  8  1  0
  3  9  2  0
  4  8  2  0
  4  9  1  0
  5 10  2  0
  5 11  1  0
  6 10  1  0
  6 12  2  0
  7 11  2  0
  7 12  1  0
  8 19  1  0
  9 22  1  0
 10 23  1  0
 11 31  1  0
 12 32  1  0
 13 20  1  0
 13 27  1  0
 13 29  2  0
 14 15  1  0
 14 16  1  0
 15 17  1  0
 16 18  1  0
 17 19  1  0
 18 19  1  0
 19 28  1  0
 21 22  1  0
 23 25  1  0
 24 26  1  0
 24 28  1  0
 25 26  1  0
 25 27  1  0
 26 30  1  0
  1 33  1  0
  2 34  1  0
  3 35  1  0
  4 36  1  0
  5 37  1  0
  6 38  1  0
  7 39  1  0
 14 40  1  0
 14 41  1  0
 15 42  1  0
 15 43  1  0
 16 44  1  0
 16 45  1  0
 17 46  1  0
 17 47  1  0
 18 48  1  0
 18 49  1  0
 20 50  1  0
 20 51  1  0
 20 52  1  0
 21 53  1  0
 21 54  1  0
 21 55  1  0
 22 56  1  0
 22 57  1  0
 23 58  1  0
 23 59  1  0
 24 60  1  0
 24 61  1  0
 25 62  1  6
 26 63  1  1
 27 64  1  0
 28 65  1  0
 28 66  1  0
 30 67  1  0
M  CHG  1  28   1
M  END
>  <OMEGA_C>  (65) 
7QQJQca180D/sZTBuvj0QFNZ5ECq/ozBr4YBQUzqAUGxf57BiKC5QHDP9kCFxJjB2t6SQGptNL+O
7qXB6kbNQPzNOj/zCazBwlTVQC/d2L/taqzB8C7IQO7H5kBHzo7BwtnWQE/zAUGEsqDBjq+jQFDi
FD9cyKfBkpSrQFmw67+IUKjBaDfmQOHB0L6WPq7BmirYQBJEuD8wiY/BpIKqQKdaAUEI5WLBQHmb
QFruDEGmPHfB2qvLQJgq4ECfVWjBMi+HQGLk+UCqZYPB6vW5QD4JwECz3XjBVsamQPXh1UAhqYbB
NtrfQMkMvT5NDYfBtOjEQI6pIUFj9avBiMLGQFcvCUEDh6vB4k+KQLQh5j/PhKTBeiOjQMqtj0Cf
iI/B9OyiQHvCJEDO1JvBGsqHQDDAbUCKb5fBGHiuQBmZ1T8d9ZLBVOaLQGoItkCTKozBNt72QEAa
/D+98JPBzRh2QG9xkkBV+J/BfFebQK6+RMBbjKbB7TwHQThVh75fCLLBN/wZQVQa80AKEJPBP2wA
QR+Y1kA7pYXBKbAMQV0RCEFBVaTBj6+XQE0E+UCBTJrB1RZmQMhbUb/4r6LBJ+vZQHqe2z82ma3B
02ToQOFeJMCoKa7B6P+4QBoQDUGZ7lfBqs2OQMyb80A1GFvBfLaDQGIsGUFe6HLBLxO3QCyhFEEw
/H7Bw2HoQFqd70Au+G7BUjfUQAXQzkBPoVnBGTVWQFBP60ArFX/B+hB6QJ2QBUFMo4rBQynUQOrB
qkBa3H3BPqOgQB0KrUCBK3HBeTsBQXVkXD5tB4bB38rRQMOtMT8r1H7Bt9TQQKjNEr8cmInB2y+5
QG3EJkGa2rPBhRmvQACQJ0F7tqXBcB3lQPg8KEGlnarBU4zcQE1SA0FOybHBaIimQFWlAkEk4qzB
9m6FQOmQHECUhavB8iZWQE/EvT9tV6HBKfGpQKYVd0DjhIjBW2fBQNUBmUDmX5PB5S/AQImFP0Bc
Zp/BP2BXQO9VU0BlSpPBZs6WQAJVmD+eK4/BMOpoQOwlrUDEMYfB83B+QC3Gw0CgqJLBKORTQIXm
gkBc6KTByUMJQXgj8kCv0JTBQTT1QGmX40AFE43BB+kBQdIsAUGcop7BJC26QEDh9kCP3JjBjnzN
QBXdOj/286vBXMmSQMG2Mr8N7KXBJxvVQEn72L9va6zB93PIQK605kAQ447BZ57XQOOsAUEFz6DB
+NKjQJz4FT83u6fBLjvmQEcb0r70Mq7BzUurQLMo67/6VajBMxLYQI45tj8ciI/BdmWqQLW+AUGP
N2PBroubQK41DUEPqHfBF3bLQP3B4ECYgGjBIj2HQNJO+kDEkIPBr6y5QEx8wEB47njB7smmQE0o
1kAswIbB4M3fQFEcsj6wFofBXUXDQN/eIUHQYavBl7jHQJt1CUFXjqvBbICKQCrO5j9If6TB8/+i
QB61j0DNfY/Bt/GiQH+/JEBlwpvBGsqHQMjkbUCgbJfBZFauQM8j1T+b4pLBleSLQBRKtkCEPIzB
/cH2QAHf+j+i5JPBUfd2QDZ+kkBlAaDBR0EHQe3eir6T/LHB57maQMdPRMAipqbBKzoaQefU8ED2
MpPBTW0AQZbw1UDKsIXBCi4NQY4BB0EPgKTBBkeYQKGu+UD7Y5rB4lPaQIeB2z9kdK3B495lQDWp
Tr9Jr6LBoAboQLCUJMCVL67BV+q4QF+ADUHCUFjB9JiOQB6Y9ECSZlvBZ9eDQO+EGUEqcXPBET23
QKTPFEE5a3/BU0DoQLoB8EChKm/BdOTTQM+Tz0AWu1nBbi9WQAXj60BCZ3/BhmB6QMawBUHe1orB
uMXTQOj1qkCRy33B2CugQPTFrUDRNXHBUzYBQfW9ST5vDYbB/6LRQCZvKj+/437BH+rQQKw9GL+I
ronBLbW3QHR3J0FnNbPBKlGsQCyJJkGvIaXBn5jiQJ8jKUGqranBM6reQF3PBEHRz7HBvmKoQOo0
AkHXQ63BvOSFQJgLHUCZf6vBjUhWQEDFvj9pYaHBd2GpQGRad0DpbojBT3vBQOO8mEDrRJPB9U7A
QGxtP0DaSJ/BTQFXQL2/U0DkVJPBUZqWQED3mD/YDo/BXIxoQDSwrUAZSYfBQOp+QHXlw0CYxpLB
fepUQFz9gkCv96TBk8TdQGZ0B0FU357B5b2+QPD2/UBt4JfBIsAEQfUABkF7S5zBi033QF/P5UAm
5IvBoseKQE5XOz0wWbLBB47EQD5N4b3SS6XB8X7IQK/+sb9Y1LXBl/rKQJrL6UCxLI7Bii8LQQMW
90Dl1ZLBxdycQOxC5T42fajBY5OgQMVBXr9FALnBfWraQPY9gb9A9qvBu1PaQLD85z+8/4zB/pir
QJmGAUH96WHBA6icQG1yDUEDJXbBkrfLQNuO30CFkmfBT0aIQAN3+0AEHIPB/3C5QOh0wECNrnjB
aOOnQPJx10DypIbBxe3nQIJpZz8qxIPBLiQpQWvcDUG1BYnB8LgiQV3E9ECp2o/B7P6DQIbrtD+s
UaHBNAKmQCAakkAlpZDBm1mhQOQaGECpy5rByKSIQModaUBoMpfBd1uxQDt21D+fPpHBPO+NQMEO
uEDu4ozB2pL0QKuEJEDJEJHBB69zQB68i0CFVaDBmiuPQBR0n780cMLBo1EAQYQiwb9x0KjBUPbT
QBAUD0FzOqbBqD+dQB0tAEHo65nB6JcQQc7lDEHxjqHBIa8AQXhN1UDPuoTBdkVYQOVh4T49zLTB
HyHSQL0EJD50pp3Bv07ZQKNCBcAC97rBSfy6QMH7DEEC/lbBDamPQMWq9ECF+1nBIeSEQKyeGUEk
oXHBl1a4QC1GFUF3sH3BRRnpQN5V7kBW2G3BpUfTQIdNzUDNAVnB+1NYQDyO7EBysX7BM1F8QMu5
BkERPYrBJRLTQNBdqkDTiH3BDhufQPsyrkBCZnHBXPgEQVNLiT+t8YHBI4jUQJ39kD8xT3nBThfj
QIjfFr5hDobB5TQ6QXbADEE68YbBh0cmQY2hHEHBlo3Bl4QfQcodDkHIp4HB9aYlQdtO10D/Q4vB
5GksQWJW9ED5MpfBIG1dQA0wAUBcY6bBYmhhQAIQUz8FqpvBKWqyQBVzgEAqsYnB9ODAQPOfnEAz
r5XBX2m8QEmcK0AU3p/BQvlaQPBpVUA7K5LBt3adQCMDgz83l43B8dlrQMfvrUDxPYjBYACCQJQY
x0BxSZPBADxPQOjjc0Dle6TB

>  <OMEGA_E>  (65) 
wMESPjCBFj6knSM/

>  <OMEGA_NBR>  (65) 
    236965

$$$$
50214050
     RDKit          3D

 67 69  0  0  1  0  0  0  0  0999 V2000
    8.5468    7.5000  -18.5910 C   0  0  0  0  0  0  0  0  0  0  0  0
    7.6437    7.0270  -17.6204 C   0  0  0  0  0  0  0  0  0  0  0  0
    8.0690    8.1452  -19.7444 C   0  0  0  0  0  0  0  0  0  0  0  0
    5.7845    7.8493  -18.9581 C   0  0  0  0  0  0  0  0  0  0  0  0
    6.4242    0.7892  -21.5496 C   0  0  0  0  0  0  0  0  0  0  0  0
    4.5990   -0.6412  -20.7786 C   0  0  0  0  0  0  0  0  0  0  0  0
    6.6691   -1.6359  -21.5995 C   0  0  0  0  0  0  0  0  0  0  0  0
    6.2465    7.2223  -17.7827 C   0  0  0  0  0  0  0  0  0  0  0  0
    5.1263    0.6439  -21.0124 C   0  0  0  0  0  0  0  0  0  0  0  0
    7.1988   -0.3505  -21.8310 C   0  0  0  0  0  0  0  0  0  0  0  0
    5.3666   -1.7796  -21.0802 C   0  0  0  0  0  0  0  0  0  0  0  0
    6.6826    8.3178  -19.9242 C   0  0  0  0  0  0  0  0  0  0  0  0
    6.7696    1.4349  -18.0358 C   0  0  0  0  0  0  0  0  0  0  0  0
    5.4308    8.1310  -14.1689 C   0  0  0  0  0  0  0  0  0  0  0  0
    4.9247    8.8357  -15.4369 C   0  0  0  0  0  0  0  0  0  0  0  0
    6.4130    7.0012  -14.5177 C   0  0  0  0  0  0  0  0  0  0  0  0
    4.2291    7.8214  -16.3499 C   0  0  0  0  0  0  0  0  0  0  0  0
    5.7914    5.9973  -15.5130 C   0  0  0  0  0  0  0  0  0  0  0  0
    5.1972    6.6881  -16.7844 C   0  0  0  0  0  0  0  0  0  0  0  0
    7.0072    0.4128  -16.9277 C   0  0  0  0  0  0  0  0  0  0  0  0
    7.2594   10.2705  -21.9889 C   0  0  0  0  0  0  0  0  0  0  0  0
    4.3350    1.8616  -20.6044 C   0  0  0  0  0  0  0  0  0  0  0  0
    5.0920    4.5333  -17.9598 C   0  0  0  0  0  0  0  0  0  0  0  0
    5.0991    2.6352  -19.5130 C   0  0  1  0  0  0  0  0  0  0  0  0
    4.2454    3.7717  -18.9633 C   0  0  2  0  0  0  0  0  0  0  0  0
    5.4611    1.7257  -18.4062 N   0  0  0  0  0  0  0  0  0  0  0  0
    4.3579    5.7137  -17.5013 N   0  0  0  0  0  0  0  0  0  0  0  0
    7.7224    2.0435  -18.5115 O   0  0  0  0  0  0  0  0  0  0  0  0
    5.9053    8.0360  -22.4182 O   0  0  0  0  0  0  0  0  0  0  0  0
    4.8444    9.8709  -20.9991 O   0  0  0  0  0  0  0  0  0  0  0  0
    3.8606    4.6439  -20.0262 O   0  0  0  0  0  0  0  0  0  0  0  0
    8.4545   -0.2109  -22.3124 F   0  0  0  0  0  0  0  0  0  0  0  0
    4.8561   -3.0109  -20.8577 F   0  0  0  0  0  0  0  0  0  0  0  0
    6.0241    9.0930  -21.4048 S   0  0  0  0  0  0  0  0  0  0  0  0
    9.6091    7.3669  -18.4490 H   0  0  0  0  0  0  0  0  0  0  0  0
    8.0157    6.5123  -16.7468 H   0  0  0  0  0  0  0  0  0  0  0  0
    8.7617    8.5071  -20.4897 H   0  0  0  0  0  0  0  0  0  0  0  0
    4.7228    7.9697  -19.1153 H   0  0  0  0  0  0  0  0  0  0  0  0
    6.8216    1.7745  -21.7442 H   0  0  0  0  0  0  0  0  0  0  0  0
    3.6062   -0.7518  -20.3680 H   0  0  0  0  0  0  0  0  0  0  0  0
    7.2617   -2.5114  -21.8202 H   0  0  0  0  0  0  0  0  0  0  0  0
    5.9412    8.8659  -13.5290 H   0  0  0  0  0  0  0  0  0  0  0  0
    4.5728    7.7065  -13.6271 H   0  0  0  0  0  0  0  0  0  0  0  0
    4.2111    9.6245  -15.1565 H   0  0  0  0  0  0  0  0  0  0  0  0
    5.7758    9.2840  -15.9703 H   0  0  0  0  0  0  0  0  0  0  0  0
    7.3158    7.4390  -14.9687 H   0  0  0  0  0  0  0  0  0  0  0  0
    6.6859    6.4675  -13.5953 H   0  0  0  0  0  0  0  0  0  0  0  0
    3.3797    7.3780  -15.8096 H   0  0  0  0  0  0  0  0  0  0  0  0
    3.8619    8.3412  -17.2471 H   0  0  0  0  0  0  0  0  0  0  0  0
    6.5712    5.2894  -15.8304 H   0  0  0  0  0  0  0  0  0  0  0  0
    4.9855    5.4501  -15.0020 H   0  0  0  0  0  0  0  0  0  0  0  0
    8.0816    0.3647  -16.6967 H   0  0  0  0  0  0  0  0  0  0  0  0
    6.4517    0.7129  -16.0269 H   0  0  0  0  0  0  0  0  0  0  0  0
    6.6592   -0.5762  -17.2605 H   0  0  0  0  0  0  0  0  0  0  0  0
    6.8914   10.7679  -22.8984 H   0  0  0  0  0  0  0  0  0  0  0  0
    7.4456   11.0235  -21.2090 H   0  0  0  0  0  0  0  0  0  0  0  0
    8.1950    9.7381  -22.2153 H   0  0  0  0  0  0  0  0  0  0  0  0
    4.1883    2.5123  -21.4791 H   0  0  0  0  0  0  0  0  0  0  0  0
    3.3563    1.5475  -20.2128 H   0  0  0  0  0  0  0  0  0  0  0  0
    5.3160    3.8838  -17.1008 H   0  0  0  0  0  0  0  0  0  0  0  0
    6.0320    4.8479  -18.4366 H   0  0  0  0  0  0  0  0  0  0  0  0
    6.0133    3.0580  -19.9552 H   0  0  0  0  0  0  0  0  0  0  0  0
    3.3611    3.3554  -18.4586 H   0  0  0  0  0  0  0  0  0  0  0  0
    4.7203    1.2931  -17.8924 H   0  0  0  0  0  0  0  0  0  0  0  0
    3.6279    5.4133  -16.8875 H   0  0  0  0  0  0  0  0  0  0  0  0
    3.9582    6.1666  -18.2982 H   0  0  0  0  0  0  0  0  0  0  0  0
    3.3309    4.1654  -20.6531 H   0  0  0  0  0  0  0  0  0  0  0  0
  1  2  2  0
  1  3  1  0
  2  8  1  0
  3 12  2  0
  4  8  2  0
  4 12  1  0
  5  9  2  0
  5 10  1  0
  6  9  1  0
  6 11  2  0
  7 10  2  0
  7 11  1  0
  8 19  1  0
  9 22  1  0
 10 32  1  0
 11 33  1  0
 12 34  1  0
 13 20  1  0
 13 26  1  0
 13 28  2  0
 14 15  1  0
 14 16  1  0
 15 17  1  0
 16 18  1  0
 17 19  1  0
 18 19  1  0
 19 27  1  0
 21 34  1  0
 22 24  1  0
 23 25  1  0
 23 27  1  0
 24 25  1  0
 24 26  1  0
 25 31  1  0
 29 34  2  0
 30 34  2  0
  1 35  1  0
  2 36  1  0
  3 37  1  0
  4 38  1  0
  5 39  1  0
  6 40  1  0
  7 41  1  0
 14 42  1  0
 14 43  1  0
 15 44  1  0
 15 45  1  0
 16 46  1  0
 16 47  1  0
 17 48  1  0
 17 49  1  0
 18 50  1  0
 18 51  1  0
 20 52  1  0
 20 53  1  0
 20 54  1  0
 21 55  1  0
 21 56  1  0
 21 57  1  0
 22 58  1  0
 22 59  1  0
 23 60  1  0
 23 61  1  0
 24 62  1  6
 25 63  1  1
 26 64  1  0
 27 65  1  0
 27 66  1  0
 31 67  1  0
M  CHG  1  27   1
M  END
>  <OMEGA_C>  (66) 
jr8IQVoA8EBkupTB9Zj0QDTd4ECB9ozBihoBQZdSAkFx9J3B2xq5QFAt+0BIqpfBT5PNQN0LSj+j
ZazB3yqTQJ8oJL+AOqbBlmnVQBRk0b/Sy6zBFOPHQCId50DnQo7BVAqkQI7YJD9YGajBxVzmQOZ4
s77ypa7B4bqrQIHL479ApKjBd9fVQJQVBUHGZJ/BQKDYQAaqtz85SZDBLcmtQKYYAkHFs2LBv5ad
QClfDUGW/XbBrzfNQLQJ4EBkSGjBwVSHQIBI+kCZzILBHVO5QKvpv0A1NXjBi0+mQMIE1kCIRobB
xzrgQLBY0z7pa4fBLU3oQMdTJEFB6a/BY7iKQFhK7j/e1aTBcfGiQKEQkUDDrY/B8SujQMamKECZ
GpzBYdqHQK9jcUDAtJfBO8GuQN3k3D/0P5PBQHSLQHPWtkC0AozBgR33QG/IAkB0F5TBCvi8QJ6T
AEF8WLPBFgWbQGTvHUEQ/qfBhBR3QCmblEDBNaDBmEUHQc3tV761f7LBG2WbQP2yQMB53KbBo8XA
QNN8EUH8PKvByL4ZQYG960CUl5PBRkAAQR1l0EBu+YXBGTAMQQQdCEHY6qPBcyGXQPcH/0Ai7JjB
nUraQEwh4z8Y9K3BuctmQIh3QL/E8aLB4V/oQPG6IMC7j67BoR6+QLXaDUHsdljB+lOSQFib9kDE
CFrBCsGGQP79GUESgXLBfdO4QHGLFEF5hn/BxhrqQHoM7kCmf2/B4/LVQJ31zkB7hlnBpExYQIwY
7EAe9HzBqil3QF11BUEV+onBl0fSQMdCqUBmSX3BAImfQAJnrkBjCHDBIk4BQRO9uj7ckoXBKHTO
QBeANj8qN4DBVhjVQHCDE7+UFYrBWIbcQDhJLEHYL7fBK0LuQGNgMEENrKnBwR4DQT3PG0H9uLHB
SQaGQFXKIEAx1avB+8xWQIoUxj/Ts6HB2RyqQDOQeEBqzojBOQbBQFsim0A0fpPB5WzAQAK2Q0Ap
pJ/BAhxXQG6/VkAyq5PBWQyXQCmFpT+iI4/BDy9oQFs5rUCnGYfBjFJ9QPRUxUC4YpLB2y1VQEZL
hUCPOaXBSJoJQSnF8EDpcJTBKVD1QMLs30BhJI3BqrACQdwbBUH9Bp3BHXS7QIpjAEEDQZfBuRLN
QN7iST9ScqzBMyCTQFCmJ7/nM6bBRHzVQBUw0b9f2KzB2OrIQIaL6EDqT47ByamjQEo8Ij9oGKjB
ThXmQBPCsL4suq7B7e6rQJzK5L92oajBMm/ZQB4xCUFqZZ7BvbnYQF7JtD8kT5DBSpmsQFylAUHP
12LBpISbQI/3DEF+8HbBf+bMQOEY4ECcvmjBNJmGQPRU+UBk+YLB81u5QLzqv0AItXjBDrqmQOk3
1kB+j4bBhMPgQA8Kvj6onYfB2rS7QAN7BUH3+rPB+UGKQOob7D97vKTBapSjQHvqkEDyyY/BW9+i
QIskJ0BF/5vB/LqHQKmZb0AWgJfBl72uQP082T/yM5PBKmaMQC46t0AqcYzBN/32QD43AkAOFpTB
6ROeQIyiIkEdn6bBtODqQCHxJUEjX63BN/5zQOMmk0CW+5/BfBIHQbbHSL7dobLBlfqbQKlrQcDJ
y6bBM//GQCW1GEFqoanB0m8aQY4Y6kCQbpPB7R4AQTg/zED9lYbBfzAOQZ+8C0FOj6LBk7OZQC7q
AkGbnZjBRYXZQNxr4z9cBa7BxNtmQOzNRb8F5KLBs53oQEhaIMAdoq7BD3S8QJV8DUE+g1jBGqCR
QDDH9EC8K1rBY62DQK8FGUGZNnLBqy62QN7bFEFHSn/BxEPpQAn57kCtC3DBAGPWQL3xzkA4IFrB
CGpXQDkD6kBKkH3BgTV1QAcSBUHVGYrBtWjSQGlHqUAMr33Bhm2fQBhjrkDWp3DBz5oBQQ/gpT75
14XBvyzPQLnZJj/MVIDBF7HVQLT1HL9gZ4rBcC2wQADYDUG6KrvBvwzZQA8k+UCP7LXBFv+iQIeM
9EAhLLHBjVOFQH8RIEBcsKvB2BdWQKMawz9mk6HBE+6qQNYtekDpwIjB3IvBQCEwmkAXyJPB7wfA
QA5mQkBbj5/BgkVYQDvFVED9L5PBijCXQKDkoD+DFo/BF09oQLg/rkBQuofB59KAQPihxUAk+ZLB
mSBRQB9pg0DAzqTBK4sJQZ4l8UCDZZTBkCT1QPRY4EB5G43BHq8CQRZvBUFx8JzBz2+7QOsAAUE8
G5fBdwqTQK3pKr8GNqbBuNXMQGG2SD88bKzBVWbVQMea0b+L8qzBcMvIQOhN6UDUO47Bu3yjQIKa
Hz+PDKjB5+OrQOD65b+it6jBSublQA8esb5Qxa7Bz3vZQOG8CUHGQJ7BB4PYQOIKuT/r6o/BkzGs
QEMLAkEM5GLB1daaQAo2DUHPA3fBdKjMQBb/4EDqvWjBzyOGQEp++UAY+ILB/jS5QBiRwEA0nHjB
MJOmQNye1kAsiobBvIHgQHEdqD4w2YfBqRq8QFvcBUHC1bPBNguKQJV06j+CpKTBpS6kQNRbkUAP
5o/Br/SiQM2gJkAm+pvBrxeIQLWgb0CyfZfB67OuQIFc2D9SLJPBC5SMQHBTt0ClcIzBCQj3QD1L
AEBrK5TBbyyeQKYXI0HhkKbB+hrrQN1jJkGfP63BgvdzQDLWkkC4/5/BywScQBMqQsD676bBLPYG
QQefQr7DrrLBLy3HQLwtGUEnhKnB3FsaQZM56kDAaZPBzv7/QBZvzEB5lobBSzMOQdn/C0FEe6LB
vLiZQIrDA0EQaZjBK8hmQLI4Sr+y4aLBGjHZQKQV4z949q3Bk5HoQOJjIMDGyq7Bs/y7QF/8DUFm
p1jBVVyRQLOF9UDHIVrBm86CQFwuGUGEUHLBxVS1QDovFUHJbH/B2+roQPfx70BlG3DBOUrWQKQH
0EC1F1rBgN5WQHD96UBbfX3BqdZzQGIJBUH1GorByU7SQOfrqUCJg33BmUyfQA0Ur0BrhHDBP5QB
QXufMD6G7obBj5bSQC9yGz9dFIDBCofRQOSwGb8Ct4rBfKawQLwnDkGIDLvBkYHZQL/r+UDou7XB
dWSjQP5P9UDHBrHBcbqEQDMaH0A4l6vBXAZWQBwFwT8IZaHBrV+sQNlIe0D55ojBULHBQD0dm0CG
B5TBMCXAQGJUQUDilp/B7VRZQCsyVUDxEpPBkxqXQF/tmz9HT4/BwCppQCjhrUD+s4fBaKKAQN+7
xUDh7ZLBPdVQQDzjgkAKwKTBoEkKQRAV8kAhjpPBK+z1QMcl4kARV4zB18cDQXJWA0Gs/JzBkO28
QFMR+0AlDpjB7qqTQAo+Kb8nRabBdKTMQGgXUj+ggKzB4xLWQO5czL/zR63Bf4PJQGt950DAVo7B
05KjQPNkIz8gBajBfcysQGJ5478d96jBSATmQODSl74WB6/B37DbQCJsBUFoSp/B7HbZQHYAuD+9
UpDBTNepQEecAUGUr2LBVhObQKo9DUFoD3fBs4TKQIQn4EA9CGjBZfeGQA+t+kDXYoPBrza4QL1D
wECrhHjBlJamQCOP1kBSl4bBVAPiQAC11D7+g4fBbfCdQDHTIkFCbajB8LeJQNln6j90fKTB6/Ki
QD/RkECIn4/BiqqiQH5JJ0BB55vBXVOHQGxib0AOYpfB/kmvQBeo2j+FH5PBi/6LQNN3t0DWZYzB
omj3QBxCBEAWMJTBsHTtQCOmH0EWW6/B+UO6QDR1AEFDhLLBdgtzQFoNk0B+3J/B9mWdQIZzQcBh
T6fBEOMGQXYO973TDbPBgaLKQGGwEUH3pKvBRR8bQYN07kBy1JHBISQAQb6q0UB3M4XB2ZIPQRmk
CUGfdaLB/1ObQCfy/UAB8pnBFHBoQEHBTL8a3aLByIvYQOig6D80/a3Bk37pQFokHcApQK/BAqq4
QMNBDUG4xFfBhe2NQFKS9EDg2lrBKEWDQLN5GUE2xXLBVsu2QEL1FEEdr37Bm3rnQKkY70B5r27B
lsXSQO/BzkCITFnBX1ZVQI0p7EB6On/ByV96QCMEBkEgpIrBZ8TRQB/wqUCDMn3BXvOdQBddrkBN
9HDBPT4CQfLMxT5+wIXBglfQQLuJMz+yQYDBHl3XQNwSFL/bL4rBVGKSQJexKkHDv6/BJAOEQOUu
GUGY76TBJS+oQA0KL0G5oaLB26CDQJ0IH0AGZqvBtiJWQNCzvj9TIaHBzcOpQKU4ekCQiIjBXzLB
QHq3mUAaiZPBO3a/QGDtQkANmp/Bd39XQGolVEBkGpPBnBGYQCCOoT+e7o7B91FnQFnkrkBmqofB
Jo+AQPimxUB5+ZLB2XlQQDFBg0BAtaTBQ18KQW4S8kAyhJPBGgL2QHVK4kDLTYzBGu0DQfQlA0FT
AZ3BgSe9QPd++kDkJ5jBlFnNQMPEUj8Wh6zBTCSUQHrNJb8WRabBS7HWQBxAzL8vFq3Bx57JQH1h
50BlXo7BZB2kQMwrJj8gH6jBvr/mQD7ymL6H6K7BzE6tQHhj4r+s0ajBQAbcQBAWBUGQYZ/B2BTZ
QHxHvj8/94/B+36pQBgeAkEF7GLBc9eaQJCFDUEmcXfB9UfKQFse4UDDCGjBkuyGQKHi+kDFg4PB
ZCu4QIXWwEC3Z3jBQ6GmQNWv1kA/mobB9pnhQGLPwj451YfBe/meQEKMIkHUwajBbUqKQHqi7D/2
r6TBGBWjQLzekEBlno/B4tiiQETWJ0DP+ZvBamOHQHt/b0DdYZfBlSevQBCK2j8mPJPBSQyMQBhl
t0CsWIzBAVT3QPqeA0AVP5TB01ruQLKdHkGusK/BWW+6QO0+/0BDi7LBkn9yQIovk0Cezp/BtFMH
QVq2Bb7V3LLBQNWdQLy7QMDIEqfB4jfLQDIDEUEV1qvBEDIbQbCb7kBevpHB/yQAQWAe0kAhHYXB
gcAPQalsCUG+d6LBXJabQMwX/UBeG5rBh17ZQHuh6D9ZEa7BIDhpQCXTR7+b5aLB4RvqQJhNHcAu
9q7BaTK4QJjjDUEHGVjBnY2NQM2x9UAeEVvBuPOCQCnGGUHOUnPBfZa2QLAwFUEGF3/BgUPnQFD8
70CXtG7BL3TSQJwI0EDpMlnBPy9VQGd67EB4d3/BdXR6QKL3BUFt0orBD9HRQB5+qkB17nzBFued
QPUCr0D3zHDBUCkCQbvsdz7z5obBW4bTQAXUKD8JFYDB1hbTQDTNDr8kporBfpOTQCE6KkERJbDB
TdOEQNcyGUEXLKXBxJCpQJbmLkFSE6PBT+GEQCtbIECGnavB655WQNTbwT8feqHB/w2qQPgvekD4
jIjB5T/BQCDpmUC9jJPBPMW/QEHYQ0A5kZ/BX/dXQCzMU0B0FJPBG9mXQF+Cmz9FbI/B+d1nQL+v
rkAuj4fB30uAQLd9xUBm5pLB6OFPQJhig0DepaTB9cMIQatq8ECDyJTBzpj0QB454UCzCI3B1SQB
Qct/AkGKBZ7B6B65QFJS+0AVx5fBFv2SQLZXHr9SaabBz8XNQK40TD/JkKzBX0LVQKJ80L/kzqzB
O9zHQKdP50COWo7BlhekQCGLKT8UV6jBmnerQGqe4b9ms6jBAHDmQAD9sb6Ztq7Be+zVQLc0BUGG
fp/BYTjYQPBdtj/FR5DBZ++sQAgcA0ERXGPBoO2bQIK8DUFR1XfBXgPNQFBo4kAznGjB5oOGQInf
+UD5CoPBSIm5QAIowUBGGnjB6FWmQOMV1kBDWIbBflnfQLjlzD5raYfBAdjoQFBCJEHYHbDBzRWL
QBps8T96FaXBaaejQA+7kEAdoo/Bo3KjQDCtKEClM5zBI1mIQEQjcUDKrJfBTYmuQGlp2j9DcpPB
2t2LQMA4tkDp74vB3tL2QPMHA0DM4JPB7MC8QNe2AEGYdLPBI4SbQM5NHkHAIKjBVol3QFLDlEAx
GaDBwP2aQF9WP8Ah0abBF10HQe8SXr7egrLBzPzAQAqlEUHbXqvBFMMZQZ8+7EAToJPBPD8AQevR
0EDxCIbBOz8MQaZPCEFe+KPBLiaXQC4P/0CiD5nBHDhmQNerOL+KLaPBU7LaQDXL4z90Ja7BwCDo
QEKOIMARf67B7/W8QIBGD0Gpe1nB2eWRQGKF+EDxaFrB2meEQCYbGkGDinPB/ay2QDgiFUHgR4DB
JYvpQFmf8ECdE3DBAT3WQIsy0kAUr1nBVWZXQHRh60B6SH3B/7B0QN/OBEFKTYrBIMPSQJyMqkBu
43zBTfGfQHHDr0C5tm/BIscAQW9Juj4dW4XBocLMQAhqMD80ToDBqtzUQHpbF7/YLYrBxCLdQLY1
LEHEZrfBjRvvQItVMEGs6KnBHEwDQZ2UG0FH7rHBERiHQOoMI0AcC6zBg+RWQHSEyj8EF6LBvv+q
QBupd0Bvy4jByaTBQAcEm0DcdJPBrujAQOrCQ0BvoJ/BelFYQNZGVkDWnJPBKqCWQL5RoD/6j4/B
huFpQLZXrECj7obBWPd8QAxRxEDXSpLBSWdVQG+ahUAbHqXBYqTdQJZAB0Fu657BIYG+QDPN/UAY
6pfBLakEQaLMBUHXTJzBwdH2QK2o5UC+5IvBWLSKQFJ9Sj3VV7LBeXrEQGhq373KSqXBrVHIQLQU
sr+w0bXBIKTKQK+06UDjMY7B2dGcQIDO5j5kfKjBg2+gQMrCXb8b/rjBv0XaQNJggb9G9KvBnfQK
QeYl90C3wZLB+lzaQAon6D96/4zB9NGrQGCgAUHG7GHBeeScQMyEDUGwLXbBv8HLQN2X30AdjmfB
xUGIQC2d+0D6F4PBZkm5QBKEwEAmo3jBba+nQPJ510D7oYbBuvLnQNqQZz+yxIPB1qMsQRpZEkFf
mYfBAgKEQCB2tT9QUaHB/fClQJckkkAOnpDBlmShQPxMGEAiy5rBL6yIQKxKaUDyMpfBl2KxQMfH
1D86PpHBx8SNQNoLuEAZ24zBj6D0QK+SJEAgEJHBU5kpQatJ0EDclYfBZKMzQeUK9kCQ8JjB5f5z
QBLji0CtVqDBlv+OQAgen7+MbcLB2zoAQYCUwb8HzqjBbvomQVJI9EDPC4/BL/TTQHPHDkFoT6bB
5wadQC8pAEEj95nBbJIQQS6ADEFZlqHB22UAQZ3k1EAJw4TB+StYQLQ95D4Ey7TBTRTSQNPaJD4c
pp3BrxPZQEppBcBx87rB01m7QOYVDUEnDlfBqtqPQOwJ9UAr8VnB2kaFQFjEGUHSq3HBw524QCVA
FUFqyH3BIDTpQJQz7kC42W3BRj/TQJJazUC9+VjBD0tYQOvW7EBZmH7BHzV8QMrJBkEoOYrB0dLS
QGpUqkCtgH3Bi+2eQEpdrkBGT3HBdfsEQRJDiT9c8oHBX4/UQLMVkT+eT3nBsxXjQFsLFr6dD4bB
t4Y9QSdhEkFWHoXBOX0pQe5cIEEIr4zBlVYiQQQCE0HDeIDB6oJdQA+EAUBKY6bBNV9hQL5jVD+r
qZvByEuyQIVygEBcqonB29nAQA+8nEBpopXB8XS8QA/MK0B/3Z/BqeNaQAqPVUBqMpLBlHmdQIVl
gz/Olo3BA6FrQNzfrUBgM4jB/MGBQJ0Kx0DnQJPB46VPQFtCdEDRgqTB

>  <OMEGA_E>  (66) 
MAaOPsxFjj7sFY8+MHeQPoBUkT5A240+TPc3Pw==

>  <OMEGA_NBR>  (66) 
    244697

$$$$
50214083
     RDKit          3D

 69 71  0  0  1  0  0  0  0  0999 V2000
    8.6111    7.5090  -18.5012 C   0  0  0  0  0  0  0  0  0  0  0  0
    7.6705    7.0201  -17.5801 C   0  0  0  0  0  0  0  0  0  0  0  0
    8.1895    8.1989  -19.6495 C   0  0  0  0  0  0  0  0  0  0  0  0
    5.8721    7.8818  -18.9752 C   0  0  0  0  0  0  0  0  0  0  0  0
    4.6107   -0.6524  -20.7633 C   0  0  0  0  0  0  0  0  0  0  0  0
    6.4088    0.8013  -21.5544 C   0  0  0  0  0  0  0  0  0  0  0  0
    6.6869   -1.6196  -21.6023 C   0  0  0  0  0  0  0  0  0  0  0  0
    6.2842    7.2269  -17.7907 C   0  0  0  0  0  0  0  0  0  0  0  0
    5.1178    0.6391  -21.0054 C   0  0  0  0  0  0  0  0  0  0  0  0
    6.8092    8.4026  -19.9013 C   0  0  0  0  0  0  0  0  0  0  0  0
    5.3917   -1.7804  -21.0696 C   0  0  0  0  0  0  0  0  0  0  0  0
    7.1962   -0.3276  -21.8416 C   0  0  0  0  0  0  0  0  0  0  0  0
    6.7852    1.4332  -18.0524 C   0  0  0  0  0  0  0  0  0  0  0  0
    5.3460    8.1514  -14.1909 C   0  0  0  0  0  0  0  0  0  0  0  0
    4.8540    8.8446  -15.4713 C   0  0  0  0  0  0  0  0  0  0  0  0
    6.3543    7.0382  -14.5173 C   0  0  0  0  0  0  0  0  0  0  0  0
    4.2083    7.8204  -16.4086 C   0  0  0  0  0  0  0  0  0  0  0  0
    5.7622    6.0203  -15.5167 C   0  0  0  0  0  0  0  0  0  0  0  0
    5.2020    6.6966  -16.8129 C   0  0  0  0  0  0  0  0  0  0  0  0
    7.0446    0.4304  -16.9322 C   0  0  0  0  0  0  0  0  0  0  0  0
    7.3657    9.8079  -21.9188 C   0  0  0  0  0  0  0  0  0  0  0  0
    4.9768    9.6760  -21.0691 C   0  0  0  0  0  0  0  0  0  0  0  0
    4.3167    1.8464  -20.5877 C   0  0  0  0  0  0  0  0  0  0  0  0
    5.1025    4.5273  -17.9628 C   0  0  0  0  0  0  0  0  0  0  0  0
    5.0878    2.6226  -19.5044 C   0  0  1  0  0  0  0  0  0  0  0  0
    4.2370    3.7512  -18.9397 C   0  0  2  0  0  0  0  0  0  0  0  0
    5.4699    1.7141  -18.4044 N   0  0  0  0  0  0  0  0  0  0  0  0
    6.3731    9.1512  -21.0220 N   0  0  0  0  0  0  0  0  0  0  0  0
    4.3736    5.7172  -17.5303 N   0  0  0  0  0  0  0  0  0  0  0  0
    7.7256    2.0505  -18.5412 O   0  0  0  0  0  0  0  0  0  0  0  0
    3.8143    4.6128  -19.9974 O   0  0  0  0  0  0  0  0  0  0  0  0
    4.9019   -3.0181  -20.8371 F   0  0  0  0  0  0  0  0  0  0  0  0
    8.4432   -0.1708  -22.3398 F   0  0  0  0  0  0  0  0  0  0  0  0
    9.6653    7.3534  -18.3253 H   0  0  0  0  0  0  0  0  0  0  0  0
    8.0057    6.4828  -16.7053 H   0  0  0  0  0  0  0  0  0  0  0  0
    8.9226    8.5773  -20.3464 H   0  0  0  0  0  0  0  0  0  0  0  0
    4.8167    7.9873  -19.1785 H   0  0  0  0  0  0  0  0  0  0  0  0
    3.6235   -0.7759  -20.3431 H   0  0  0  0  0  0  0  0  0  0  0  0
    6.7908    1.7917  -21.7536 H   0  0  0  0  0  0  0  0  0  0  0  0
    7.2895   -2.4873  -21.8271 H   0  0  0  0  0  0  0  0  0  0  0  0
    5.8305    8.8963  -13.5425 H   0  0  0  0  0  0  0  0  0  0  0  0
    4.4845    7.7132  -13.6658 H   0  0  0  0  0  0  0  0  0  0  0  0
    4.1133    9.6137  -15.2070 H   0  0  0  0  0  0  0  0  0  0  0  0
    5.7072    9.3167  -15.9804 H   0  0  0  0  0  0  0  0  0  0  0  0
    7.2561    7.4892  -14.9571 H   0  0  0  0  0  0  0  0  0  0  0  0
    6.6224    6.5138  -13.5882 H   0  0  0  0  0  0  0  0  0  0  0  0
    3.3460    7.3660  -15.8988 H   0  0  0  0  0  0  0  0  0  0  0  0
    3.8664    8.3366  -17.3178 H   0  0  0  0  0  0  0  0  0  0  0  0
    6.5517    5.3103  -15.8041 H   0  0  0  0  0  0  0  0  0  0  0  0
    4.9435    5.4776  -15.0216 H   0  0  0  0  0  0  0  0  0  0  0  0
    8.1208    0.4026  -16.7062 H   0  0  0  0  0  0  0  0  0  0  0  0
    6.4889    0.7337  -16.0326 H   0  0  0  0  0  0  0  0  0  0  0  0
    6.7109   -0.5685  -17.2498 H   0  0  0  0  0  0  0  0  0  0  0  0
    6.8377   10.3375  -22.7255 H   0  0  0  0  0  0  0  0  0  0  0  0
    7.9643   10.5261  -21.3393 H   0  0  0  0  0  0  0  0  0  0  0  0
    8.0281    9.0448  -22.3534 H   0  0  0  0  0  0  0  0  0  0  0  0
    4.8233   10.2274  -22.0085 H   0  0  0  0  0  0  0  0  0  0  0  0
    4.2678    8.8366  -21.0168 H   0  0  0  0  0  0  0  0  0  0  0  0
    4.8099   10.3506  -20.2165 H   0  0  0  0  0  0  0  0  0  0  0  0
    4.1528    2.4974  -21.4591 H   0  0  0  0  0  0  0  0  0  0  0  0
    3.3460    1.5213  -20.1852 H   0  0  0  0  0  0  0  0  0  0  0  0
    5.3320    3.8972  -17.0909 H   0  0  0  0  0  0  0  0  0  0  0  0
    6.0392    4.8265  -18.4558 H   0  0  0  0  0  0  0  0  0  0  0  0
    5.9938    3.0520  -19.9570 H   0  0  0  0  0  0  0  0  0  0  0  0
    3.3711    3.3285  -18.4092 H   0  0  0  0  0  0  0  0  0  0  0  0
    4.7391    1.2750  -17.8818 H   0  0  0  0  0  0  0  0  0  0  0  0
    3.6317    5.4289  -16.9249 H   0  0  0  0  0  0  0  0  0  0  0  0
    3.9897    6.1624  -18.3393 H   0  0  0  0  0  0  0  0  0  0  0  0
    3.2732    4.1248  -20.6069 H   0  0  0  0  0  0  0  0  0  0  0  0
  1  2  2  0
  1  3  1  0
  2  8  1  0
  3 10  2  0
  4  8  2  0
  4 10  1  0
  5  9  2  0
  5 11  1  0
  6  9  1  0
  6 12  2  0
  7 11  2  0
  7 12  1  0
  8 19  1  0
  9 23  1  0
 10 28  1  0
 11 32  1  0
 12 33  1  0
 13 20  1  0
 13 27  1  0
 13 30  2  0
 14 15  1  0
 14 16  1  0
 15 17  1  0
 16 18  1  0
 17 19  1  0
 18 19  1  0
 19 29  1  0
 21 28  1  0
 22 28  1  0
 23 25  1  0
 24 26  1  0
 24 29  1  0
 25 26  1  0
 25 27  1  0
 26 31  1  0
  1 34  1  0
  2 35  1  0
  3 36  1  0
  4 37  1  0
  5 38  1  0
  6 39  1  0
  7 40  1  0
 14 41  1  0
 14 42  1  0
 15 43  1  0
 15 44  1  0
 16 45  1  0
 16 46  1  0
 17 47  1  0
 17 48  1  0
 18 49  1  0
 18 50  1  0
 20 51  1  0
 20 52  1  0
 20 53  1  0
 21 54  1  0
 21 55  1  0
 21 56  1  0
 22 57  1  0
 22 58  1  0
 22 59  1  0
 23 60  1  0
 23 61  1  0
 24 62  1  0
 24 63  1  0
 25 64  1  6
 26 65  1  1
 27 66  1  0
 29 67  1  0
 29 68  1  0
 31 69  1  0
M  CHG  1  29   1
M  END
>  <OMEGA_C>  (67) 
+sYJQWxJ8EBcApTBk3T1QGGk4EAWpIzB/QcDQbEuA0EmMp3BNei7QIk3/EA7zZfBC4uTQFQEJ79I
G6bBfhTNQOIkTT9/b6zBd/vVQERPz7920azBUxjJQNNC50BiU47BrsSjQB6dIz/6CqjBGuXZQBlx
BkHPNZ/Ba4isQNbk47+ajqjBpUfmQC28p76yu67BJiDZQDVztz85a5DBRBKrQCZsAkHqDWPBllOb
QFyDDUFPinfB01bLQL444UDORmjBPKqGQPZA+kDSRIPBQ2S4QDumwEBNRHjBanamQG1K1kC5gIbB
qm3hQDhY3D4TdYfBaLPrQAztHEGqWa/BAEKfQL7QGkGajajBRiKKQHhV7D+ps6TBd0ejQObfkEDe
s4/Blc+iQE3ZJ0AbCZzBw5WHQFIUcEB4hJfBsAmvQExo2z80PJPBH/DLQDhrEkEgLajBOfSLQDfz
tkAdPozBETj3QOg6A0B1VJTBOh50QEeck0Ch+p/BOtycQBYpQcBJsqbBehcHQYPbLr7ct7LB6KQa
QVdP60BKmpLBbRcAQctyz0BxpIXB/8IOQcQ8CUFlxaLBGSKaQLOX/0CZbZnBEuhnQD+jRr+bvqLB
ik7ZQJxV5T9TB67BOEPpQIQvH8DZna7BR5O6QDhXDkEkrljBtoCPQIXS9kD6plrBJKCDQNrRGUEF
UHPBBqG2QAoRFUGOr3/BMDLoQC6n70AsUG/B3+rTQBZx0EBWaVnBOSRWQHm260BnYX7Bv3N3QOli
BUHiiorBnafRQMntqUCY3XzB5TCeQC1Ir0ClWHDB3u4BQR0ezj5IpoXBYqXPQN/VOz/TQoDBuL/W
QH2IEb+w/4nBd87aQEtmJUHTzbXBp9v+QMJqKEHgtqrBAXMAQZC3EEHc07LBhFiaQIqjI0FVEbDB
wJGIQKJiDUF5IqjBTuqZQDKcJUF1u6HBJOSEQOfUH0BLrKvBISRWQJG4wj9ee6HB4Z+qQCRreUA6
uojBLkHBQLlymkB9pZPBcc2/QLhUQ0Dpp5/Bsb9XQHoGVUADRpPBHaeXQNAyoz/nDY/BDW5oQPS5
rUAhZofBwFZ/QBIyxUDntpLBSXxRQDr+g0Dh2qTBe84JQfOa70Bx5ZPBXCb1QN4f4EA8nYzBT1ED
QVP7AkHVE53Byym8QIQ7/EBn4pfBYNrMQJfHTD/YY6zBQzGTQOqhJ79dJabBlpDVQOGRz7/65KzB
k+fIQCwc50CCYI7BJYijQO8NIz8fAKjBWJzaQGZlBkFWNp/BBfrlQBynqL5gva7BNhasQGMp5L9H
p6jB5HnZQG6xvj85D5DBK4WqQHKcAkGrNmPBd+maQI+pDUHWv3fBNtTKQFmg4UDCXGjBuVaGQJWL
+kBiZIPBaNW3QF72wECNRnjBKhWmQHpw1kDUjobBa5XiQD38yD5F5IfBjK3tQHsfHkFiz67Bz/mf
QIF1GUELTKnB6++JQP3H6z9AmaTBJ5GiQA1WkEBAbI/BY7qiQHePJ0C28pvB22WHQNSWb0AGapfB
rVivQO6q2j84MJPBx2rNQBZ0EkE/O6jBopOLQC4Mt0DMQ4zBxnP3QHJKA0CXhpTBrhp1QKuwk0BL
4Z/B+vkGQXpWMb6WrrLBHEecQOFJQcBX3qbBMaAaQYlI6kBbbZLB/YH/QMi+zkADnIXBxDQPQScK
CUFKkaLB7XmaQA3Q/0AOmJnBGCTZQJ4x5T+t8K3BJyZnQH9aR78nzaLBasjoQFhSH8Auu67BDPC5
QJWMDkF51FjBOOeOQLI090BE2VrBfS+DQNf5GUEClHPBrEa2QD40FUGb2n/BaqnnQJYG8ECccG/B
mnLTQG330EAmeFnBWi1VQFgi7EC5s37BJUt3QFWFBUEhsYrBpAbRQK8VqkCKxnzBxoWdQNvLr0A8
VnDBpq4CQQxpgT7TIIfBlCnVQIxvLj9uF4DB9MfTQIdCDL9qkIrB6XHdQId8JkGBZ7XBjoP+QJ/X
KUF3xanB53ACQZKlEkEaG7LB1QqcQBCOIkEpxLDBfv+KQFVUC0EcdKnBo1+XQASoI0FidKLBR4SE
QPWpH0AajavBW+pVQKTZwT80WKHBV4GoQH2feEDnVojBF0XBQJIZmUCYIJPBk5G/QLNXQ0Cam5/B
+LRWQAlhVEBeU5PBaDaYQEM4nD9HRo/B3almQN6SrkAffofBwAKAQJPyxEB43ZLBuSFTQBNHhEA5
3qTBEbXdQKdoB0FI1p7Bo5++QCEQ/kC+3JfBhLUEQSzyBUE8QZzBmgz3QGp75UBB7ovBmLCKQGxC
PD1+VbLBDIjEQOqw4b3aTKXB6FjIQAo2sr8N1LXBf9HKQHjH6UBLMo7BzdWcQDJx5T51e6jBf14L
QcAz90CDuJLBDm2gQK1yXr97/bjBEVXaQMFogb/596vBmHPaQOwt6D9DA43BgdyrQEiaAUFD8mHB
0eGcQMt9DUG2MXbB9sHLQJGC30Ahl2fBjUiIQP2L+0BXG4PBTCq5QKtxwEBfpHjBrMOnQJJx10Cj
pobBUxjoQCjwZz/Cx4PBXCUyQXBoA0G8FZfBGjYoQVQm4kDBcIXBYwSEQCYCtT+BTqHBBQCmQFoj
kkA3ppDBDGehQEAqGECsy5rBq62IQEonaUAoM5fBu3SxQMWo1D/EPpHBwlkhQRci9EC0/o/Bk9mN
QJANuECM44zBDq70QAmZJEAHF5HBqcJzQK/Ai0BCVqDBWPaOQOOOn7++a8LBN0cAQeVowb+S1KjB
LvnTQIP/DkE0NabBuCKdQLhXAEH55JnB5YEQQU7ADEFqkqHBV2wAQZNE1EC22YTBLxZYQKXU4T5a
xrTBFSjSQB1AJD4qqZ3BMBzZQMxuBcAN97rBr3G7QOMPDUF/GFfBHumPQFgF9UDf71nB+zqFQPa3
GUFVrXHB3ZO4QMU/FUFJzH3BhTHpQE4U7kDJ623BGErTQFFIzUArA1nBJ2FYQDi77EBAoH7Bpzh8
QHvBBkH8O4rBW5bSQO0WqkD9dn3BR66eQB96rkBjUHHBuA4FQYORiT/v94HBFbvUQL9PkT//U3nB
+T7jQO/oFL6PEIbB4AZCQXCIAEEUk5PBEUsxQfiw90ALBZ/BQ34vQYi7FEFm45fBTMc5QeWY4kA9
6oTBGG8hQVme9UDW4H3BjnUiQRUDwUA5tYTBkmpdQHs4AUDDXqbBeIJhQOlPUz/BpJvBXW+yQFF/
gECVsonBUNrAQF+1nEApsJXBM3C8QFKrK0BQ4J/BvghbQMBtVUC3LJLBWJOdQBRFgz/hlI3BzLhr
QEfkrUBSPojBS+OBQBoUx0CtSZPBzVhPQKTpc0BwfaTBprrjQCNcCEGkapzBX2TCQG6R/0CQMZbB
2EcHQSzjBUGdL5nBws32QDmW4kD8vonBh2eAQOOwib8MzaPBF+u/QAa+Lj66SKnBpQ+9QPSrD8A7
1qvB4WrLQDHd6EDwpYzBar6WQO1JGj6YjqTBaFwMQdak9ECJwo/BmYSTQOxLEcCbcafBfzzTQD8C
g79xvKzBFFPmQNOeCECADZLBa3GlQAza/EBbX1/BTc2ZQPicC0F8XXPB2QvFQDTd2ECv9mTBNYyG
QJE1+kClb4LBVemzQBJHvEDHanfB8/KlQDID1kCD9YXBFh39QNppvD/Fn4jBkdYzQWpUAUFYoZLB
JA8nQcjX2kA75YHBESaBQEdVuD+82aDBOaClQNffk0AyMpHBiR+hQMsdH0BaPZzBkJOIQHxCbkBU
BZjBiAi7QNco7j81sZPB7uAhQaiB70AQYozB+vuMQD28uEBwA43BXiX5QD9SP0DHTZfBZr1yQKdn
j0C98KDBHAR8QFZCXMCHu6bBZhL7QJTpfb/f9rDBwGncQHfhEEELtaPBL5qhQF3fAUE5t5jBf/MT
QSbZDEE/653BVzL+QAmPz0A7xoLBgzRBQMaKjL9jbKDBQJbQQMX2jT9iPqrBW+HLQElVSsAKg67B
qCu0QLQKCUHJa1PBzSCIQN2t7kC5r1jBhkGCQPHsF0E/8W7BLte2QLJaE0G4nHnBnqLjQM8w50CB
6mnBzyTKQNrdxECmtFbBSEJSQG9w60Bfo37B0Id9QEH+BkF1c4nBhEnNQAWwpUCDBXzBbAWYQFtj
qkAeenHBbMYOQfan8T8R2IfBzwfrQG/g1D8EO4HBdSj/QAlvxj5HAorBVCFDQawS+0BYtY7BltAz
QbNv9UAlyZrB0c0xQbzLEkHoAJPBjoQ4Qbn72UCozYDBqL0fQSVZ7UDVunbBmrggQaQBukDuzoHB
/QhhQCTu8T9nuKfBf21TQBY/mD8YmZrBOW6yQOI5gUAwdIrBwDzAQI6tn0CZJJbBZGG2QMb6M0A+
wKLB6CxbQBlIWECbFZPBkbysQChEmj8T0o7BdGRoQNZorUAT0ojBxyqCQIGqyUB2PZPBJqpOQPb1
e0BVPKXB3DTHQPLPD0EdHJ7BiKquQD8hBEHetJbBTezzQPoHEUGr+5zBdcPvQBn/80CHS43BvPeL
QOMWYL+UHajBrtnIQABgGz82MKvBAXnNQLGa3r9WQ7DBn43CQIOt8kACEY7BX0KfQAPfyT4P/6bB
fHAEQZwjBkG8hJTBysyiQO9g97+M7qzBc57gQInf8L6XRq/B9v3FQNSdFz98JY7BGG6wQFwW/kCY
Tl/Bdg+ZQOs9C0F6QXHBhPvSQC1i4EAUjWjBHsWEQEb29kAIroDBX0bAQKKxwUBZu3nByqimQEUK
2UD8BIbBhWLNQIuOxT2RwoLB+1YoQQ75E0Gq2JrBPL4lQcYl+0BOu4nB2uuGQMlwwz9fnKHBccKo
QClelUBq2pDBcJqjQI24GUCpDJrBS1qMQByRb0CppZfBd/arQFRr2z98uo/BBfgaQVVBB0FWRJPB
/kiOQBReuEC4Q4zBCiPaQPLucj1TX5XBbiGCQDvxjUBpVqHBkuOPQN7MSMBeSK7BvOsEQcc/kL4T
OLLBvqe3QHbhF0Hhr6TBvVSMQEhgA0GQnZfBQzgDQWlUGkHbmqLBpnn/QNsK4kBJC4fBznRXQI2v
hL9xSKXBHVPWQC/8zD+FPavBwHTfQFQRJMDVkbPBgJm/QHukCkFIdVTBMA+ZQFPO6kADWVbBdH1/
QAM2FUFlLGrBwxqwQH6EFUHTtHnBRzjsQBMB9EBD62/BKcLgQMg8zUCmfFvBlXJaQOIN40C23njB
SBFpQDS3BEHo+YbBB+naQGD7r0AGioDBxI+qQLYUq0ByunHBrS7lQA/JNr9Z1oLBqzTZQAvtbD+A
k3vB2hevQGMoj774337B5UM5QRXJEkHwgZjBwk4mQTGuDUFsAKPBTkwjQULUJEFYnprBLx03QdQs
AEEjSorBkJwfQW0hBUEzZoLBMWsiQRWY2EDofonBYtpyQDBOC0Dc26fBJZpZQDfqiz8y15zBd2m3
QPPUgkCQVIrBJAzCQM8qo0D06JXBvwbCQI9pJ0CrIZ7BveVdQO52YUBfJJPBnYmdQADPBUD+QInB
7gFxQKQ5q0BPaYfBF+t+QK1Ox0BcSpLBVBVhQMeeeEAZsqXBIrrjQC4mCUEY+JvBaNXBQKWmAEES
6ZXBQR0HQRrcBkHIcZjBwA31QHc+5UBDB4nBqpKkQJgdWj34HK7BXp+cQAUEZ79YO5zBlkW/QIl1
DMCfWqrBKvrJQEQj60B0PIzBhu+VQEONKD6HdqPBxb8LQfQi90Dl4I7BWu+4QNt4kL+PkrHBVj6x
QJYaBcAGrJ/BPg7nQNZH5T8MA5PBVs2gQKtoAEElTl/BpAKWQBUtDUHyr3PBrt/AQETO3EAmKGTB
iuODQIOE/ECnloLBSuawQNhyv0DslHbBTvijQNRT2EAawIXBYDT9QCbNjj9hiYnBG1gzQTKJAkGC
UJHBmsElQUxX3kDik4DBbjiAQFOKuD9es5/BdLylQGBVlUAF1ZDBvgWhQFtuH0BNo5vBVBeJQIyy
cEDFvpfBtKG6QCSz9D+U15LBoxYhQeRX8kCxNIvBWDiMQMREukA64YzBmCv8QPzbBkD05JrBW911
QJ8ukEAf2KDB4FzGQE3Dnr9g07vBHny3QMxfRsArupjBJhndQK93EUHNW6PBPEyhQDKXAkFjqJjB
kv8TQXTADUGTDp3BVcz7QESk0kDW8YHBNCugQELTXz/wnbPBmeWRQBWhUL9cDJTBQuDOQENbRsCU
Aq3BAdGuQLFLC0EVYlPBMD6DQOC68kDb2FjBdxt8QOx4GUHCzW/BST+zQPTqFEGosnnBl6TfQPMg
60AV02jBb07FQJNYyUDKqFXB+5RMQKi17UC/Ln/B5U15QM7bB0EmvYnBW6DKQHzSqECcnnrBhsWU
QL2jrUCZ3XDBg8EPQZYggD+IR4vBoiT5QDAG3j8/VYLBlOLuQBk4AD6wLYjB7G9CQULZ/UDnKY3B
h74zQZk390DWZpnBPk4xQfv6E0Er4pHBYyc3Qc6p3UD4g37BYhMeQV8v8UB5bXTB33YfQaF4vUD8
coDBVU9cQLva7z9laqbB4CpUQOsHmT/wJZnB8Q+yQJv7gkDj+4nBBLPAQBEYoUBCqpXBlDW2QGc7
MUDDTaLBcOBaQDR8XEAA7JLBKharQBzsyj/yWozBzlVmQJnPrkAzz4jBNtCBQBXCykAbOZPBkWNS
QJU+fUDPLqXB

>  <OMEGA_E>  (67) 
qFYMPpDKDD5kYxg/JLEePywLJj90oTA/

>  <OMEGA_NBR>  (67) 
    251528

$$$$
50214062
     RDKit          3D

 76 79  0  0  1  0  0  0  0  0999 V2000
    8.4781    7.5987  -18.6381 C   0  0  0  0  0  0  0  0  0  0  0  0
    7.9249    8.3105  -19.7172 C   0  0  0  0  0  0  0  0  0  0  0  0
    7.6327    7.0585  -17.6483 C   0  0  0  0  0  0  0  0  0  0  0  0
    5.6976    7.9115  -18.8394 C   0  0  0  0  0  0  0  0  0  0  0  0
    6.3448    0.7044  -21.5917 C   0  0  0  0  0  0  0  0  0  0  0  0
    4.5633   -0.6900  -20.6681 C   0  0  0  0  0  0  0  0  0  0  0  0
    6.5926   -1.7208  -21.5463 C   0  0  0  0  0  0  0  0  0  0  0  0
    6.5198    8.4745  -19.7985 C   0  0  0  0  0  0  0  0  0  0  0  0
    6.2256    7.2443  -17.7349 C   0  0  0  0  0  0  0  0  0  0  0  0
    5.0749    0.5843  -20.9870 C   0  0  0  0  0  0  0  0  0  0  0  0
    7.1058   -0.4469  -21.8626 C   0  0  0  0  0  0  0  0  0  0  0  0
    5.3179   -1.8415  -20.9567 C   0  0  0  0  0  0  0  0  0  0  0  0
    6.7727    1.4677  -18.0307 C   0  0  0  0  0  0  0  0  0  0  0  0
    5.4917    8.1498  -14.1682 C   0  0  0  0  0  0  0  0  0  0  0  0
    4.9061    8.8250  -15.4168 C   0  0  0  0  0  0  0  0  0  0  0  0
    6.4782    7.0278  -14.5428 C   0  0  0  0  0  0  0  0  0  0  0  0
    4.2090    7.7695  -16.2794 C   0  0  0  0  0  0  0  0  0  0  0  0
    5.8413    5.9939  -15.5009 C   0  0  0  0  0  0  0  0  0  0  0  0
    5.9518    8.2341  -22.1720 C   0  0  0  0  0  0  0  0  0  0  0  0
    5.9841    9.0050  -23.4791 C   0  0  0  0  0  0  0  0  0  0  0  0
    6.3271   10.6051  -21.0661 C   0  0  0  0  0  0  0  0  0  0  0  0
    7.6828   10.7274  -23.0524 C   0  0  0  0  0  0  0  0  0  0  0  0
    5.8267    9.1562  -20.9412 C   0  0  2  0  0  0  0  0  0  0  0  0
    5.2053    6.6659  -16.7494 C   0  0  0  0  0  0  0  0  0  0  0  0
    7.0121    0.5038  -16.8724 C   0  0  0  0  0  0  0  0  0  0  0  0
    4.3042    1.8231  -20.5976 C   0  0  0  0  0  0  0  0  0  0  0  0
    5.1437    4.5542  -18.0212 C   0  0  0  0  0  0  0  0  0  0  0  0
    5.1002    2.6171  -19.5435 C   0  0  1  0  0  0  0  0  0  0  0  0
    4.2761    3.7835  -19.0054 C   0  0  2  0  0  0  0  0  0  0  0  0
    5.4645    1.7295  -18.4207 N   0  0  0  0  0  0  0  0  0  0  0  0
    4.3833    5.6878  -17.4893 N   0  0  0  0  0  0  0  0  0  0  0  0
    7.7217    2.0669  -18.5254 O   0  0  0  0  0  0  0  0  0  0  0  0
    7.3248    9.4857  -23.7049 O   0  0  0  0  0  0  0  0  0  0  0  0
    7.6455   10.6728  -21.6149 O   0  0  0  0  0  0  0  0  0  0  0  0
    3.8927    4.6426  -20.0794 O   0  0  0  0  0  0  0  0  0  0  0  0
    8.3294   -0.3287  -22.4252 F   0  0  0  0  0  0  0  0  0  0  0  0
    4.8228   -3.0627  -20.6561 F   0  0  0  0  0  0  0  0  0  0  0  0
    9.5477    7.4663  -18.5680 H   0  0  0  0  0  0  0  0  0  0  0  0
    8.5663    8.7292  -20.4786 H   0  0  0  0  0  0  0  0  0  0  0  0
    8.0539    6.5030  -16.8234 H   0  0  0  0  0  0  0  0  0  0  0  0
    4.6260    7.9903  -18.9480 H   0  0  0  0  0  0  0  0  0  0  0  0
    6.7318    1.6800  -21.8462 H   0  0  0  0  0  0  0  0  0  0  0  0
    3.5930   -0.7821  -20.2028 H   0  0  0  0  0  0  0  0  0  0  0  0
    7.1762   -2.6050  -21.7559 H   0  0  0  0  0  0  0  0  0  0  0  0
    6.0205    8.9050  -13.5683 H   0  0  0  0  0  0  0  0  0  0  0  0
    4.6703    7.7203  -13.5758 H   0  0  0  0  0  0  0  0  0  0  0  0
    4.1779    9.5916  -15.1132 H   0  0  0  0  0  0  0  0  0  0  0  0
    5.7152    9.2962  -15.9941 H   0  0  0  0  0  0  0  0  0  0  0  0
    7.3549    7.4749  -15.0343 H   0  0  0  0  0  0  0  0  0  0  0  0
    6.7959    6.5126  -13.6243 H   0  0  0  0  0  0  0  0  0  0  0  0
    3.4071    7.2998  -15.6909 H   0  0  0  0  0  0  0  0  0  0  0  0
    3.7758    8.2599  -17.1636 H   0  0  0  0  0  0  0  0  0  0  0  0
    6.6205    5.2926  -15.8341 H   0  0  0  0  0  0  0  0  0  0  0  0
    5.0594    5.4425  -14.9582 H   0  0  0  0  0  0  0  0  0  0  0  0
    5.0908    7.5496  -22.1881 H   0  0  0  0  0  0  0  0  0  0  0  0
    6.8811    7.6524  -22.0832 H   0  0  0  0  0  0  0  0  0  0  0  0
    5.6850    8.3434  -24.3055 H   0  0  0  0  0  0  0  0  0  0  0  0
    5.2909    9.8572  -23.4225 H   0  0  0  0  0  0  0  0  0  0  0  0
    5.6411   11.1621  -21.7211 H   0  0  0  0  0  0  0  0  0  0  0  0
    6.3347   11.0652  -20.0669 H   0  0  0  0  0  0  0  0  0  0  0  0
    8.7039   10.9966  -23.3606 H   0  0  0  0  0  0  0  0  0  0  0  0
    6.9817   11.5066  -23.3859 H   0  0  0  0  0  0  0  0  0  0  0  0
    4.7570    9.2086  -20.6905 H   0  0  0  0  0  0  0  0  0  0  0  0
    8.0844    0.4826  -16.6279 H   0  0  0  0  0  0  0  0  0  0  0  0
    6.4423    0.8387  -15.9931 H   0  0  0  0  0  0  0  0  0  0  0  0
    6.6819   -0.5051  -17.1608 H   0  0  0  0  0  0  0  0  0  0  0  0
    4.1469    2.4510  -21.4870 H   0  0  0  0  0  0  0  0  0  0  0  0
    3.3302    1.5315  -20.1777 H   0  0  0  0  0  0  0  0  0  0  0  0
    5.4404    3.8909  -17.1954 H   0  0  0  0  0  0  0  0  0  0  0  0
    6.0429    4.9240  -18.5356 H   0  0  0  0  0  0  0  0  0  0  0  0
    6.0133    3.0116  -20.0132 H   0  0  0  0  0  0  0  0  0  0  0  0
    3.3899    3.3933  -18.4835 H   0  0  0  0  0  0  0  0  0  0  0  0
    4.7253    1.2903  -17.9101 H   0  0  0  0  0  0  0  0  0  0  0  0
    3.6822    5.3338  -16.8703 H   0  0  0  0  0  0  0  0  0  0  0  0
    3.9451    6.1597  -18.2543 H   0  0  0  0  0  0  0  0  0  0  0  0
    3.3511    4.1605  -20.6932 H   0  0  0  0  0  0  0  0  0  0  0  0
  1  2  2  0
  1  3  1  0
  2  8  1  0
  3  9  2  0
  4  8  2  0
  4  9  1  0
  5 10  2  0
  5 11  1  0
  6 10  1  0
  6 12  2  0
  7 11  2  0
  7 12  1  0
  8 23  1  0
  9 24  1  0
 10 26  1  0
 11 36  1  0
 12 37  1  0
 13 25  1  0
 13 30  1  0
 13 32  2  0
 14 15  1  0
 14 16  1  0
 15 17  1  0
 16 18  1  0
 17 24  1  0
 18 24  1  0
 19 20  1  0
 19 23  1  0
 20 33  1  0
 21 23  1  0
 21 34  1  0
 22 33  1  0
 22 34  1  0
 24 31  1  0
 26 28  1  0
 27 29  1  0
 27 31  1  0
 28 29  1  0
 28 30  1  0
 29 35  1  0
  1 38  1  0
  2 39  1  0
  3 40  1  0
  4 41  1  0
  5 42  1  0
  6 43  1  0
  7 44  1  0
 14 45  1  0
 14 46  1  0
 15 47  1  0
 15 48  1  0
 16 49  1  0
 16 50  1  0
 17 51  1  0
 17 52  1  0
 18 53  1  0
 18 54  1  0
 19 55  1  0
 19 56  1  0
 20 57  1  0
 20 58  1  0
 21 59  1  0
 21 60  1  0
 22 61  1  0
 22 62  1  0
 23 63  1  1
 25 64  1  0
 25 65  1  0
 25 66  1  0
 26 67  1  0
 26 68  1  0
 27 69  1  0
 27 70  1  0
 28 71  1  6
 29 72  1  1
 30 73  1  0
 31 74  1  0
 31 75  1  0
 35 76  1  0
M  CHG  1  31   1
M  END
>  <OMEGA_C>  (68) 
WqYHQWso80DmGpXBxZj9QL/3BEHhvJ3BSz/0QB3f4UCvL43B5VK2QCgr/UAIt5bBawjLQFhUND/E
u6zBbgaSQPyjML9OWKXBV/bSQB9D3L/kXqzBKaLQQHSXB0FdY57BzzfHQDfR50Aj4Y3BOGWiQN6S
FT9c5afBy2LjQLzU5L6c5q7BWCyqQNu3679Up6fBHrrYQJjduz/KPpDB4ruvQGdlAkEHsWLBdf6c
QGYzDUEhq3bBlU3PQL7j4EA9r2jB1K+GQMef+EA/PILBQOy6QF7Ov0CNA3jB93S+QA6/A0FSYLHB
3n2/QHEUEEFE1bvB43fKQGiuKUFOh6jB3dn1QGijK0FNa7jBpHS6QOl/EkGFh6fBN5KmQMpO1UDZ
/oXBDWPgQDb3AD+X+obBIryJQDxc6T/vx6TBKpmkQBy8kUB+K5DBqTSjQPB9J0AoWZzB0NWIQIYk
ckAWC5jBCd2uQLtg3T+WXZPBOESMQIkCtkAD6ovBUxj3QFZHBEDvM5TBZmTqQFvFF0Gao73BN6j0
QM/DKkFE66zBoCF5QO2PlECfoqDBCUUFQcBJqL63ZrPBUlSaQAwERMC+P6XBScMYQQ7s7kBbi5TB
mQ8JQcCqC0Ep1KPB0twAQdAY0EBGlobBIwiUQJiw/0CalZfB+GrXQG8L1z/2xK7BbfRlQI81SL9C
n6HBnKPlQLO4JsD8C67BNqjAQAV7DkHbF1nBa3OVQLsM90B5NlnBRLGFQDF3GUGmz3HBU+O2QCm9
FEGo53/BPFvrQEUy70BqjHDBnnfZQC5n0ED+/FnBWg1aQACY6UD3DXvBNKZxQIUoBEEmT4nB1drT
QLBcqUBsWH3BaOahQEcprkDJVG/BOOiiQLGW8UBHgbHBMzLcQHvg9EB2qrDBveu1QIl+BUGbccLB
TE+pQCW3HUE1YbvBE4S0QBmYMkHUxK3Br7XKQAULMUEbiaDBIEMLQSfyL0GA4rrBA2rfQPgaOEFj
FrvBHTmYQJtWE0EUhqXBnFkBQVwS9z73BYXB+ybOQFayVj+h43/BBtLVQN1LAb9hSYnBebOEQLDd
HEBh5avBdSJVQIAIxD8AbKHBjBeuQOYEeUAmkInBtV/BQMORnUD4SJTBkGzAQLC+QEATG6DBOvRY
QA4rWUA63pPBUjWXQNcppT/0R4/BwqhrQKKuqkBx9obBSH18QCscxUDfCJLBaXhWQMgihUDDi6XB
VbcLQZsB6UCOYZHBbE0HQfgC/EDrRZvBBNv1QMQ23UDUkIrBKFTCQPFL+EChgZfB9uvGQBCrST9b
DK3BWROWQC+3R7/lW6TBw0zVQIifzb9Tt63BgBHkQJHQAUH5hZ7BdM/KQLPU5UCuZo3Bt6yhQJD6
Cj/b+abB9N3gQJHAkb4/VLDB/cCvQJtS7b+yy6fBSozdQFNzyz++Y5DBEzumQAeDBEGVVWPB3Byb
QA9TD0GQuXjBUGPEQFHO4kCfqGbBGHeGQD9D/kBxA4TByrmxQFKQwkBN9HbBHZTzQFy7IUFicKrB
+0vVQB3LNEENbKvBCfuuQG2SCkEHQa7BvgiNQHTnKkHl46bBboXdQBdUC0FyuanBjqykQC7k10Dw
UYbBz9XpQHaZGT8Gn4fBSxuHQJbT2T+F/6LBNZ+iQEqMkkBBu4/BYBOiQOkQJkCCiZvBYA+HQPfi
b0DNPJfBGl+yQO1J5T80hJLB4t+KQH7xuEB1d4zBP4H5QKYSBECDI5bBzcW0QK4ZNEHUUqPBUEOO
QDrwE0E1g6fBSR5yQIbtkUAB9Z/BUG8CQbINNb3q/7XBV4KkQODjR8CdXKXBphYcQYNr40Ae/47B
qlcUQVp6AkGPe6DB9df8QJFpzUA9FYPBA5uhQKbZ/UD46ZnBxH/PQGZZ5j8PLa/B9xNzQK8ZeL/G
uZ/B5zbpQEqJG8BQQLDBaPC1QPZBEEFR11jB9o6IQO+2/UBsvVvBKZyEQN6JHEHQzHXBZ4i4QPOm
FUGTA4DB5FTjQOmS7kCFo2zBKCnJQAx70kDtP1fBBYhRQP0r8kBBYoDByOd9QNk2B0H/mYvBk/fJ
QF/hqUAXM3rBDTOVQHGPs0BE4W/BqlMEQR6zIUHGfLHBanMDQTb1I0ENK6PBm8HnQFKtQ0GFjKrB
FgHGQA91NEGvWLPBwMiuQGQmE0Ea8LXBg46mQGBj80Bzl6/B1ktnQK6QL0HaQaHBKp+FQDtIMUFG
4a7BUzzwQGkEAUFXG6/BflUGQVxR4j5GuYfBMjjgQERMgD9UlX/BuXfZQPhCt74qBonBcRF4QBD3
EkBt3anBM5dWQNZyqD/pkp7B4LuqQP0Bf0AonYjBDDDAQAAWnECD3pPB6Rm9QGpoQEA7HaDBTRtX
QIX7VUCFzZLBEgadQHrErj+KoI3BGz1kQOzQr0CX8IfB2QWAQOeHx0DKDJPBra9PQDtRgUCCpaTB
aKsLQW3u7EB3BpLBy2UGQSCUAkGVFpvBLc72QGvI3EBFX4vBdCbBQNJy+kDqPpfBluHKQD1jST/B
tKzBT+GTQDFEM79hhaXBbN7VQD8z0L9I2qzBVZbhQF4jBkGGqJ3Bsx7LQO3+5EDttY3BUJOiQIan
GT/p0afB3KPkQBDepr5vIa/B72WtQHv/578dGajBTPvaQOg5xT+FbZDBd6epQFDlBEF5omTBTxKc
QFvvDkEFCHrBD+rHQMmM40C9/mfBmNWGQA/0+0DiGITBYGG0QA4IwkBxY3fBSRqtQMN3HkHd/abB
KzukQIfPKkFjTrHBwuTUQP8D/kDecbDBi0eZQFIsCUERY7vBrLvWQFj4EEFLB6jBO8ilQK0p1kAL
gYbBJavlQNaQ7T5pNYjB9I+IQLer5T/mVqTBY5CiQAmQkECXp4/BHRKiQNPcJkAvCZzBAsaGQGGM
bkDfZJfBSWOwQKbK3D87RpPBd4SLQC8it0CRbIzBtA74QPNVB0AVKZXBekqKQDxzHkE/o7jB6/zG
QCaoBkEgo7rB9exwQMSAkkDB2J/BmdcFQWNIFL7tjrPB6DSfQMi/Q8DF4aXByj0cQfum5kCJJZDB
a+ISQTwmCUFmE6DBJyT/QIb7yUCrbYTBbyOgQA1T/UAcs5nBa+rVQAs55D9alK7BEBxqQH24V7+8
yKHBqpHpQKLSHsA8wK7BnSa6QKsTEUEb+VrB0eqMQKbB/kA+GVzB1D6FQPz7G0HN/nbBjXO4QKlX
FUF5HoHBrTrmQKU370Cgxm7BLxbOQKdD1EDGcVjB2LVUQDt770AW8X/B4GJ6QLVtBUFHsovBKI/M
QKFSqUCTs3rB+XuYQOxEs0BumG/BUr+wQGXhKUHUWqDB0waSQOS4E0EOVaXBL0aTQDO3OUHvUq/B
m93CQG6pLkFuMLXBVAb1QCIR8EApULHBWnq+QAM85UCara3B5SCKQJxE+0B17bXB14CPQGStBUF5
qMPBFAbxQA/cG0EJLKrBIU0EQVbxsT6tqYfBnOPYQOX+QT9pWoDBDjbXQNv0+r5GrorBWZeBQGJZ
G0BwUqvBAbhUQOnJuT9Hv6DBHZKpQEXVeUDnkIjBXLbAQEqJmUCxmpPB/R2+QKccQ0AJA6DBLOVW
QGbhUkCXDpPBORSaQOVUnT+mIY/BxABmQBxtrkAexIfBxFWAQJ91xUA8ApPBhUROQM+OgkAvp6TB
l6EKQbjo6ECEfZPB7eMFQaqxA0EtYJvBe9X0QPNI2UCzxIzBiN3AQE/hAkHfFZbBzUPMQPq9Sz/w
TazBTJqUQOa7Nb8ht6XB1YvWQNcQz7+vN63BWJHhQBk1C0EFvJzBfyXKQGUZ6ED60Y3B2MSjQMO4
GD9Si6fB9M7lQL5Kn767Ba/B19WtQJpe6L92oKjBurnaQMRDtz9Hk5DBDnmsQIxzAkEc5GLBuY+c
QOXMDUGnO3fB1J7KQEOL30BnW2jBZmqGQJdU+0BSCoPBjWW1QO4zwEBXL3jBlEyrQKRsJkEXZKXB
7DqKQPaZF0EF4arBC9zrQH6bGEGx6K/B3em1QJ3H+UDrprPBVP3ZQEnEHUE4n6TBJ4mlQAca10C+
hobBZYbkQGCc4D7ioofBw2CJQGOx4z/b/aPBO0iiQETzkUAZ14/Bw2OiQC/PJkB3sJvB8p2GQPX/
bkC3TpfBMzqwQMPv3j9fwZLB1miLQBH4uEBzw4zBl0T4QHUp/z+hN5XBXy2ZQALVDkG12rTBCpTi
QNv+AkHDX7PBRaxvQCGtkUDv55/BH4QGQSZA9b1aUrPB0veeQMxPRMCv+qbBEtMaQXln3UCClZLB
i4ESQXm6CUFqc6DBpXn8QAfAwUCRvIbBrzGgQMbtB0EGVpfBYJrXQGEU5j8L263BhEJrQA66XL/E
FKLB/g3qQEv4HcBhWq/BBca9QMoMDkHx3ljBM8CQQPJv+EDWA1rBPbGFQDtqGkEfxnLBkfO3QOT+
FEEjoH/BTwToQBhf7EDVm2/BZ7TSQIJFzkBdkFnBjC1WQIQK7UAAmH3B1s11QLsYBkFgNYrBHNPM
QPx4p0AKnnzBys6ZQP4ZsUAfSHDBaz6sQFqHNUHn5qnBewKgQMqLKUELNJ3BIdeCQL1MCkGva6XB
1vBZQDfhIEFpbqzBZp3dQN3UI0ElrbXBDGUHQVXEGkFJxq/B2SCuQDE06UACI6zBhgOxQKja40Aw
bbrBpk3tQKY0K0FJoKHBoK8DQfTKuT4kjYbBmLjVQDUiST+EJoDBOonXQA1vDL/gwonBJgSCQCRB
GkBt9arBB8dWQPPStT9rYqDBDq+pQA9JfkCwoojBnzfAQPSamkDc7pPB16S+QJ26QkD8m5/BuSBX
QNO8U0Bp05LBXK+ZQPeRrT8f/Y3BlP1jQK2qsEAXXojBjpaBQHnAx0CXa5PBzQpNQK4SgUD8kqTB

>  <OMEGA_E>  (68) 
KFLNPhCz3D5AbNo+aCPPPg==

>  <OMEGA_NBR>  (68) 
    256573

$$$$
50214060
     RDKit          3D

 66 69  0  0  1  0  0  0  0  0999 V2000
    8.5611    7.2405  -18.5362 C   0  0  0  0  0  0  0  0  0  0  0  0
    8.1210    7.9869  -19.6414 C   0  0  0  0  0  0  0  0  0  0  0  0
    7.6332    6.8427  -17.5566 C   0  0  0  0  0  0  0  0  0  0  0  0
    5.8360    7.9303  -18.7992 C   0  0  0  0  0  0  0  0  0  0  0  0
    6.3067    0.6554  -21.6206 C   0  0  0  0  0  0  0  0  0  0  0  0
    4.6069   -0.7426  -20.5605 C   0  0  0  0  0  0  0  0  0  0  0  0
    6.6020   -1.7649  -21.5250 C   0  0  0  0  0  0  0  0  0  0  0  0
    6.7579    8.3548  -19.7436 C   0  0  0  0  0  0  0  0  0  0  0  0
    6.2721    7.1906  -17.7051 C   0  0  0  0  0  0  0  0  0  0  0  0
    5.0744    0.5333  -20.9428 C   0  0  0  0  0  0  0  0  0  0  0  0
    7.0711   -0.4918  -21.9058 C   0  0  0  0  0  0  0  0  0  0  0  0
    5.3659   -1.8904  -20.8600 C   0  0  0  0  0  0  0  0  0  0  0  0
    6.8519    1.5953  -18.0594 C   0  0  0  0  0  0  0  0  0  0  0  0
    6.0178    9.4819  -23.2814 C   0  0  0  0  0  0  0  0  0  0  0  0
    7.1126   10.5656  -23.2192 C   0  0  0  0  0  0  0  0  0  0  0  0
    6.2238    8.4882  -22.1405 C   0  0  0  0  0  0  0  0  0  0  0  0
    4.5835    7.7330  -15.8585 C   0  0  0  0  0  0  0  0  0  0  0  0
    5.4895    6.6195  -15.2821 C   0  0  0  0  0  0  0  0  0  0  0  0
    7.0582   11.2883  -21.8653 C   0  0  0  0  0  0  0  0  0  0  0  0
    6.2915    9.2644  -20.8136 C   0  0  2  0  0  0  0  0  0  0  0  0
    5.2192    6.6989  -16.7817 C   0  0  0  0  0  0  0  0  0  0  0  0
    7.1712    0.5634  -16.9824 C   0  0  0  0  0  0  0  0  0  0  0  0
    4.2904    1.7746  -20.5629 C   0  0  0  0  0  0  0  0  0  0  0  0
    5.0748    4.5606  -17.9799 C   0  0  0  0  0  0  0  0  0  0  0  0
    5.0901    2.6277  -19.5531 C   0  0  1  0  0  0  0  0  0  0  0  0
    4.2401    3.7845  -19.0051 C   0  0  2  0  0  0  0  0  0  0  0  0
    5.5249    1.7752  -18.4308 N   0  0  0  0  0  0  0  0  0  0  0  0
    4.3324    5.7151  -17.4349 N   0  0  0  0  0  0  0  0  0  0  0  0
    7.7684    2.1344  -18.6709 O   0  0  0  0  0  0  0  0  0  0  0  0
    7.2504   10.3385  -20.8220 O   0  0  0  0  0  0  0  0  0  0  0  0
    3.8675    4.6437  -20.0829 O   0  0  0  0  0  0  0  0  0  0  0  0
    8.2547   -0.3708  -22.5478 F   0  0  0  0  0  0  0  0  0  0  0  0
    4.9078   -3.1133  -20.5092 F   0  0  0  0  0  0  0  0  0  0  0  0
    9.6032    6.9740  -18.4392 H   0  0  0  0  0  0  0  0  0  0  0  0
    8.8202    8.2793  -20.4109 H   0  0  0  0  0  0  0  0  0  0  0  0
    7.9590    6.2754  -16.6972 H   0  0  0  0  0  0  0  0  0  0  0  0
    4.7894    8.1716  -18.9121 H   0  0  0  0  0  0  0  0  0  0  0  0
    6.6633    1.6297  -21.9206 H   0  0  0  0  0  0  0  0  0  0  0  0
    3.6665   -0.8385  -20.0380 H   0  0  0  0  0  0  0  0  0  0  0  0
    7.1897   -2.6444  -21.7428 H   0  0  0  0  0  0  0  0  0  0  0  0
    5.0287    9.9532  -23.1836 H   0  0  0  0  0  0  0  0  0  0  0  0
    6.0786    8.9534  -24.2442 H   0  0  0  0  0  0  0  0  0  0  0  0
    8.0991   10.0946  -23.3415 H   0  0  0  0  0  0  0  0  0  0  0  0
    6.9512   11.2937  -24.0277 H   0  0  0  0  0  0  0  0  0  0  0  0
    5.3835    7.7790  -22.1116 H   0  0  0  0  0  0  0  0  0  0  0  0
    7.1634    7.9373  -22.2950 H   0  0  0  0  0  0  0  0  0  0  0  0
    3.4996    7.7132  -15.6722 H   0  0  0  0  0  0  0  0  0  0  0  0
    4.9339    8.7755  -15.8745 H   0  0  0  0  0  0  0  0  0  0  0  0
    6.4857    6.8684  -14.8874 H   0  0  0  0  0  0  0  0  0  0  0  0
    5.0514    5.8060  -14.6851 H   0  0  0  0  0  0  0  0  0  0  0  0
    7.8516   12.0489  -21.8217 H   0  0  0  0  0  0  0  0  0  0  0  0
    6.0782   11.7734  -21.7459 H   0  0  0  0  0  0  0  0  0  0  0  0
    5.2893    9.6461  -20.5690 H   0  0  0  0  0  0  0  0  0  0  0  0
    8.2614    0.4414  -16.9024 H   0  0  0  0  0  0  0  0  0  0  0  0
    6.7687    0.9046  -16.0172 H   0  0  0  0  0  0  0  0  0  0  0  0
    6.7132   -0.4001  -17.2506 H   0  0  0  0  0  0  0  0  0  0  0  0
    4.0949    2.3707  -21.4664 H   0  0  0  0  0  0  0  0  0  0  0  0
    3.3350    1.4747  -20.1076 H   0  0  0  0  0  0  0  0  0  0  0  0
    5.3422    3.8859  -17.1533 H   0  0  0  0  0  0  0  0  0  0  0  0
    5.9913    4.9240  -18.4678 H   0  0  0  0  0  0  0  0  0  0  0  0
    5.9708    3.0450  -20.0631 H   0  0  0  0  0  0  0  0  0  0  0  0
    3.3482    3.3739  -18.5092 H   0  0  0  0  0  0  0  0  0  0  0  0
    4.8215    1.2972  -17.9047 H   0  0  0  0  0  0  0  0  0  0  0  0
    3.6712    5.3828  -16.7622 H   0  0  0  0  0  0  0  0  0  0  0  0
    3.8476    6.1674  -18.1835 H   0  0  0  0  0  0  0  0  0  0  0  0
    3.3509    4.1558  -20.7134 H   0  0  0  0  0  0  0  0  0  0  0  0
  1  2  2  0
  1  3  1  0
  2  8  1  0
  3  9  2  0
  4  8  2  0
  4  9  1  0
  5 10  2  0
  5 11  1  0
  6 10  1  0
  6 12  2  0
  7 11  2  0
  7 12  1  0
  8 20  1  0
  9 21  1  0
 10 23  1  0
 11 32  1  0
 12 33  1  0
 13 22  1  0
 13 27  1  0
 13 29  2  0
 14 15  1  0
 14 16  1  0
 15 19  1  0
 16 20  1  0
 17 18  1  0
 17 21  1  0
 18 21  1  0
 19 30  1  0
 20 30  1  0
 21 28  1  0
 23 25  1  0
 24 26  1  0
 24 28  1  0
 25 26  1  0
 25 27  1  0
 26 31  1  0
  1 34  1  0
  2 35  1  0
  3 36  1  0
  4 37  1  0
  5 38  1  0
  6 39  1  0
  7 40  1  0
 14 41  1  0
 14 42  1  0
 15 43  1  0
 15 44  1  0
 16 45  1  0
 16 46  1  0
 17 47  1  0
 17 48  1  0
 18 49  1  0
 18 50  1  0
 19 51  1  0
 19 52  1  0
 20 53  1  1
 22 54  1  0
 22 55  1  0
 22 56  1  0
 23 57  1  0
 23 58  1  0
 24 59  1  0
 24 60  1  0
 25 61  1  6
 26 62  1  1
 27 63  1  0
 28 64  1  0
 28 65  1  0
 31 66  1  0
M  CHG  1  28   1
M  END
>  <OMEGA_C>  (69) 
GPoIQdix50AdSpTBkO8BQeSU/0CuIZ3B+UL0QGb32kDec4zB68C6QOLE/UDdZJbBpdDJQA3JJz8G
96zBYWuTQKIYPr/he6TBN0PTQFvo4b8kM6zB60DYQCitBUHO8p3BZrXIQMwZ5kD4o43BbWGiQBeG
CD/0iqfB1EbiQODR+74OP6/BkrWrQL/58b8+4abB2ELbQDQzzD+3eZDBDJLAQAW2F0E6QLrB0Jrj
QNIMKUHbwLnBmSnHQIfPB0HDH7HBQKySQFZ090CLvH3BLKqvQN/S00Bdg3TB89zhQOicNEEr7K7B
BFTJQNA6FEE9gqbB1gOnQAdd1kD5QIbBJnrlQAo9ED/t24fB5kqJQBIl4z/EgKTB/2SiQI7wkUDk
1o/BHOKiQHQrKEC0bJzBx66HQMI0ckBnCpjB9suwQN044z87cpPBrKKKQBDitkCceovBAZf4QGSa
CED4XZXB3wLoQJJqJUFck6bBq4R3QEWZlEC0qaDBLRMEQfjevb7XYbTB4wydQHZAR8DuEqTBmqYZ
QU0r30Bqg5PBix8NQQV4BEF2SaPB2K/+QG3QyEDsk4XB3EKZQLC+AkEATJfB7DnVQEKa0D9dXa/B
rKhqQDmpVr/OTaDBFBLmQMk9KcA28a3BVOugQH1AH0EXeLnBN4TCQC1BD0EF9MHBDZYBQXGDIUFp
u7rB/m/eQBizNEHUOMDBeUWsQDHt+ECV5LDBKzrlQKD+/UA9XLLBX/lfQK7S9kCAwXrBeeKdQJlo
DEEk/n3BvYrPQIzJ20D9Mm7B86ShQAfLuUBZ9mrBtUD7QHnIQEHJkq7B14DCQAFgPEGc963BvEGp
QGVWGkFfjaTB4i4EQQYE4j4kOIfBbZnYQDuSZz8iI4DBwdLWQAbWzL5QAYrBygmDQHK5F0BGu6vB
5G9VQNXDvD923KDBgvOqQNKyeEAAOonBCbm/QBCRnUAAvpPB3hC/QJ7hQkBMgaDBPEhWQHTtV0Dk
EpTBw0maQGwKpj/LPI/BKfRqQENArEAWGYbBrj92QBRbxUDfd5HB0XRWQBj8hEAAtaXBlPoIQZUR
8EB4GJTBvYkCQVil+EAlqp7BFk/zQIKo5kBBNYzBEZm6QBhX8EBjXpnB2F7OQHpETj8wkqzBuBKV
QAu/Jr/tLabBmUDXQA4Qz7/ZFa3B+DjZQHY3+EDVb6HB+VzHQIdd50CRzY7Buz2lQAYxJT+YD6jB
dmznQLYxpr5GAq/Bxf6tQCTr47/uuajB3pnZQLdnuj/xXZDBUl/bQB/kJUGpHK7BbyewQO8OJ0GC
EKjB2vLiQIXKD0GXUrPBfu6RQMHj+kCO9n7Bdp2uQMJc10BYrHXBAKmOQB+8F0FD/qzBizTLQPPd
+0BVLq3BrVWlQKov2UBD54bB4f7hQHbWpT5Td4jBIXeLQPUb7j8QsKTByXyfQJXkkED3iI7BGkuj
QBLrKUCK4ZvBcCGHQOY2ckCNaJfB3H6vQNr53j9nJJPBGoiIQMlFuEDSXIvBHtr3QDQF/j8Z+pTB
kEedQKCeAUH/Ga7B2dp6QP3xlUCv7Z/BHJUHQUPgLL4wGrPBYnyeQLdfQcDf36bBzcEZQYK38EDx
CJLBGmoOQTWZ/0DwsaTBcGD9QOzl3kB1LITB/vKYQCM28UDfU5vBZp3aQAPp5T+4Jq7BpRtrQGcV
R79gyKLBbHvqQML8HsDJ867Bw47bQJYsMkEParTB4G/1QJwTKUGGaqjB+WK1QIicIkGupp/BHOKj
QJOIN0GJeqjBdULXQL4yEEHpnrvBlbkCQVtNDEHKSrPBwK1eQJHG+kANtXvBRY2dQH8MDkE2hX/B
Qb7OQKgm30DboG/B3IegQDzUvUCy0GvBujZkQMTQF0HZ2KfBMCeGQP/CHUGj+7TB+ubSQKRX3UBK
HrHBEkwCQTrRBD4cAojBlgbWQNVEHD+qg4DBI2nRQCXWFb8NLYvBNX6GQGG4IEDXq6vBfZFYQOTc
wz+wkqHB4o6iQLKYd0BAiIfBDIa/QMuAmUBlepHBN0DAQB9SRkD7Z5/BNFdTQJCRVkDDDZTBVx6Y
QKetpj+U9o7BP1tlQCu2sEAx1YXBXMlzQCFZxEDczZHBDMJcQCofh0DiZKXBPRsJQXkO50ABepTB
rQwCQZry/kChUJ3B+5X0QPuI2kAgmozB1wu7QONT/UCqh5bBBqeRQEiZPL9woqXB4ZzMQA95Jj+N
E6zBAxvTQAPy47+6P6zBZ3/YQJdlBUFvG57BWg3JQPbI5UCUw43BKSijQOwdCj93pqfBwn6pQJeD
8r/+/6fBgqLkQGASAr87S67BDf/aQA0wzT+bb5DBDu/AQALyF0HiU7rBC5LjQDd5KUEKuLnBS9zH
QI7bB0FaTLHBTR+TQCkG+ECxGn7BJB6wQPGy1EDqmnTBsafhQE68NEGUzq7B0JbJQNEMFEGTnqbB
uWqnQGJx1kBsT4bBUgrlQIFEED/T3ofBuQqKQFez5D/3taTB63CiQDngkUBq24/BxwijQAauKEBW
fJzBPZuHQGYvckB/DpjBiKiwQB4T4z+HipPBCdiKQJbNtkB3bYvBsWz4QMZQCkCtJpXBIwnoQCNW
JUEKkKbBk8J2QBCglEAypaDBDWWYQARxR8A0NabBV0EGQWzhy75QZrLB4sMZQcde3kBBu5PBmzcN
QZofBEEUfKPBaAz/QER0yEAVuIXBy4yZQMGFAkH5bJfBR+FjQDVWU79FRqLByePZQJr9zz+7wq3B
YY/lQGXUKsAc8K3BYByhQB9JH0FfgbnBKxfDQMawD0G7FMLBm6YBQV0lIkEKw7rBuRfeQBpFNUHA
GsDBNEWtQFmo+EC5JrHB9irmQCmM/kBHkbLBEuNgQN+A90ATGXvBZFieQFOvDEEHpH7B0QLQQCrc
3EABYG7B9RuiQGP+ukAN1WrB9Nv6QL/9QEHqX67BrC3CQAZaPEGmzK3BGmSpQBIEGkEBr6TBxPYD
QYPl6D5oFofB5nrXQIVxYz9DLYDBx/LWQDA0zr6SKorBBoCEQH6pGEBi9qvB4TtWQF/evj9PPKHB
mBqrQHZjeECGRYnBpbS/QNaInUClyJPBxVu/QDfvQ0BxcqDB/nNWQE1vV0ALEZTBjw6aQD83pD9J
do/B1whsQH0mrEAF+IXBY+t1QBowxUBrXpHB4pVVQBf/hEDLrKXB0TUKQXgy40ASepLBwxQFQYYA
9kD4ZJzBatbzQMC72kBG/IrBfze/QD+O+EBoNZfBtceUQOiSNr+w8qTB48vMQC4cND/+g6zBrVbW
QIbc279q4avBOBrfQAQ2AEGYvZ7B0zvJQHGi5UCTfI3BX0ikQHoUEj/ynKfBd7itQExy7b8NHafB
4+HlQFiO4L5gkq7BQqTcQDJzyj+d/5DBadGeQDTWEEFPZbfB+ELFQEz0FkGbhr7BJoutQL5kAUHX
o67BBYWOQHGF/kCWloDBHH+oQDKE3EBxyXTByIXrQJQUH0G51bfBwDLSQIKJDEHndKjB61+kQJzf
2UBgjIbBJ0nnQJ4eED9LUIjB3KOKQP415z+zmKTBJ6CgQPYKk0AZco/BWUijQAy1KkCbVJzBCvOG
QL7FckCLxZfBXeKxQLOz5z/HdZPBroyIQNMKuUDqlovBbaf5QB5oBUBkPpbBMn/1QCjnD0E5lq/B
g0l0QFzElEDyVKDBj+aeQMxGRcD5fKTBQ44GQWj/nL6YA7PBwJ0aQfVH20D9npDBjoMRQVhu/ED4
LKLBn2z7QP8IzEA4ZoPBAH+eQIKeAEF68pjBTH5rQOPkUb8nPqHBwo3YQHtO1z+xsK7BjY/pQMbx
JcDMeK3BYoKRQJJZH0FZsbPBvhmGQIUTCUGkULzBQFzPQLjJCEHOGMPB3VC7QL6mI0HkFsTBe9mS
QLuv+0BzL6nBBi+5QAvd5EAkP7LBn95WQCtZ/0Ct0H/BetSaQOGtD0HbWIHBjVXHQPAZ5UBPd23B
YvCXQFkXxUBHlmrBFcIDQSwiIUH1Eb3BDzjjQEeHLkEpKrTB/R7GQEAzHEEH0KXBQhEFQZTx0z5h
+YfBI9nbQLTybj9fiYDBTorXQNRVyb5QKorB1b2EQDH/GUDs0qvB5MlXQIpBvz9eHaHBAMKnQAFX
fEB5lojBzb6+QCDUnUCiHZPBVhy/QCawR0DvUaDBrq5VQL0zVkD825PBiKmbQCrNrj/+7o7BX/Jl
QIBbr0BQM4bBrQNzQKhbxkAK0ZHBf6VUQNS/hEBZcKXB+/cLQRZf60CTNJDB0jUJQYz7+UA1u5rB
6i/0QH7T4UCT14nBw/DEQJBZ9kBGgpjB7MmWQJDdL78TnKXBUgrOQA7+Tj84iazBPPzYQFSxzb++
5KzBvxjpQDgV/kDGFJ/BO4DKQMw26EAr3Y3B7KKlQGajHj9hs6fB/mGwQFAr5r/ZO6jBes7nQOBp
m77/Cq/BQzHcQOj8vT8Ev5DBIta0QHzEJEF0uKrBGnKQQH+CFUGEPa7BIpHhQOzdG0EHYq3Bc5aN
QADH/UDxkYDBVqqmQAif2UCzA3bB+T+hQAaJAkHE77TBN/vkQPSQA0GW/qrBCcKjQOxq20DRR4fB
ThTmQKrMyD6Cl4jBzDWLQH9n6D9RPaTBfgmgQLJkk0DRJ4/B0U6jQEm0KUDutpvBLFGGQI8HcEDQ
EZfBeJSxQGzx4j8R85LBS6CIQD4ru0BsjozBDWn5QLQz/D9lBZbBesbBQEa97UCnL6/Bf1ZuQJY0
kkAgn5/BcziiQP8YQ8CRIabBEn0HQXBn9b0HZrPB1+MbQR1250Ab/ozBGwMXQSQPAUH+g5/BxJv4
QE+N1UBi14HB5hylQD5F+0CrpJvBzIVvQM21Vb8l/qHBUC7ZQDg85z/PT67B5L/sQPdqHcBl0a7B
zbuwQHUuNEGs167BraCyQFo5J0EwBqLBunWAQKQ2D0FZD6fBlY5yQBqUHkEkErPBhxfoQCyLHkEc
7bXBAYH5QBRqJEGfjKjBv+dUQCSb/kDdE4DB4CKaQOBUD0GFfYDBAifFQIOj4EBs8m3BAXiVQOeU
wEAbH23BXYCGQK1h70BZwrbBpe6uQGmqCEFfcbzBPFIBQQHg+0CDzq7BdVAEQRUJOj44nojBB1Tc
QCCiOj+/k4DBlGbUQP6XBb/AsorBarGEQBC2HED4P6vB5JRZQGUeuz+U1aDBnFWlQJoEgUB8xIfB
ORO/QDaom0B9wZLBpjm/QCn3R0ATg5/Bx8tWQNTxUUB005LBTjObQADbrT/bSo7BaqdgQOfps0BW
rYfBfkx6QLinx0AlV5PBS4lOQLIvgUB2gaTBNVUMQSOj6EDRTJDBgsUJQSbj+UCilZrBEbb0QJQQ
30BbBYrBBgLGQA8y+EDoV5jBE7jNQH4TTD89qqzBSyCWQA4NMb8V0KXBTj/YQGNjz7/TEa3BtFzq
QFhmAEHwy57BbTvLQCmn50Ag543BUjelQP4NHT993afBQU7nQKcvo75/L6/BYpGvQLky57/kcKjB
WjHcQPBVuT8CGJHBpmmqQD9PIkFeO6rBiWaNQMidEEFPAa/BQ0faQK8fHkGJVazB8V+OQKhL/UAB
koDB7HinQEDt2EDzLnbBe+mmQM8ZAEF3nbXBE4DmQHhMBkGokarB5FakQNIG20DGWofBsl/mQGXI
2j7VYojBbPqKQNgJ6D/6X6TBOTWgQA79kkDeNo/BVC+jQKgKKUC20ZvBv0KGQAggb0DIE5fBTpKx
QDVH4D/RIpPB/A2JQPb1ukCVpYzBIXf5QDAiA0AmhpXBMDfJQDcc7kCHYq/BOkxtQCbBkUC/k5/B
MEMHQc5bEL5Kh7PB9SihQASGQ8D1Y6bBxDEcQf214kBlNY3BeLAXQUn0AEHhS5/BpdH4QDwS0UAa
MILBOkqmQOhM/kCZapvBFxLZQAud5T8bZ67Bvg9uQI3oVb/3OKLBQOTrQAtvHsAH/67Bs56hQCC9
MUGt2a3BNB+lQKQEI0ECiqHB+0x6QB8/CEFhaqjBL9JqQHEpGEFUObTBF6fhQIaEIkFWp7TBGUzt
QD8ZKEFY3KbBv4BWQPIz/kAyCYDBlQKbQL8SD0HmdIDByg3GQFvE30DeKm7BlUuWQNDSv0B2U23B
mT6RQHBo5kDpKrjB8Gm0QFkMCEFJtLzBIRwDQWf4A0HRM67BxpwEQY5Jvj6eO4fBmgrXQLzrOz++
2oDBmS/aQJFVD79xyorB9piEQAXLHEB+XqvBZvhYQIA3uz+p/KDBonylQO28gEBhzofBIEC/QPEB
m0C52JLBdA2/QDqHR0B6nJ/BhShXQJHFUEAyxZLBkkubQKfQqz+0a47Bl0FhQKnos0DqyYfBjIx7
QMmAx0DscZPBczpNQNa0gEBubaTB

>  <OMEGA_E>  (69) 
2Ij1Pojp9z44D/U+7G0IP8jvAz/o0gI/

>  <OMEGA_NBR>  (69) 
    263182

$$$$
50214098
     RDKit          3D

 73 75  0  0  1  0  0  0  0  0999 V2000
    8.8879    7.1088  -18.0580 C   0  0  0  0  0  0  0  0  0  0  0  0
    7.7740    6.6887  -17.3168 C   0  0  0  0  0  0  0  0  0  0  0  0
    8.7321    8.0041  -19.1226 C   0  0  0  0  0  0  0  0  0  0  0  0
    6.3303    8.0677  -18.7107 C   0  0  0  0  0  0  0  0  0  0  0  0
    6.4215    0.8219  -21.5340 C   0  0  0  0  0  0  0  0  0  0  0  0
    4.5958   -0.6347  -20.8149 C   0  0  0  0  0  0  0  0  0  0  0  0
    6.6726   -1.5993  -21.6546 C   0  0  0  0  0  0  0  0  0  0  0  0
    6.4764    7.1803  -17.6079 C   0  0  0  0  0  0  0  0  0  0  0  0
    7.4571    8.4857  -19.4705 C   0  0  0  0  0  0  0  0  0  0  0  0
    5.1221    0.6571  -21.0058 C   0  0  0  0  0  0  0  0  0  0  0  0
    7.2005   -0.3065  -21.8450 C   0  0  0  0  0  0  0  0  0  0  0  0
    5.3675   -1.7614  -21.1464 C   0  0  0  0  0  0  0  0  0  0  0  0
    6.7414    1.4597  -17.9664 C   0  0  0  0  0  0  0  0  0  0  0  0
    5.2755    8.0563  -14.0987 C   0  0  0  0  0  0  0  0  0  0  0  0
    4.9350    8.8261  -15.3871 C   0  0  0  0  0  0  0  0  0  0  0  0
    6.2005    6.8658  -14.3915 C   0  0  0  0  0  0  0  0  0  0  0  0
    4.2936    7.8904  -16.4219 C   0  0  0  0  0  0  0  0  0  0  0  0
    5.5828    5.9451  -15.4616 C   0  0  0  0  0  0  0  0  0  0  0  0
    5.2329    6.7093  -16.7889 C   0  0  0  0  0  0  0  0  0  0  0  0
    6.9744    0.3421  -16.9529 C   0  0  0  0  0  0  0  0  0  0  0  0
    6.0124    8.0730  -22.1014 C   0  0  0  0  0  0  0  0  0  0  0  0
    4.9312   10.1165  -21.0140 C   0  0  0  0  0  0  0  0  0  0  0  0
    7.3962    9.5759  -20.5446 C   0  0  0  0  0  0  0  0  0  0  0  0
    4.3207    1.8591  -20.5779 C   0  0  0  0  0  0  0  0  0  0  0  0
    5.0935    4.5626  -17.9778 C   0  0  0  0  0  0  0  0  0  0  0  0
    6.2380    9.5057  -21.5706 C   0  0  0  0  0  0  0  0  0  0  0  0
    5.0850    2.6322  -19.4872 C   0  0  1  0  0  0  0  0  0  0  0  0
    4.2352    3.7793  -18.9525 C   0  0  2  0  0  0  0  0  0  0  0  0
    5.4380    1.7238  -18.3759 N   0  0  0  0  0  0  0  0  0  0  0  0
    4.4213    5.8165  -17.6290 N   0  0  0  0  0  0  0  0  0  0  0  0
    7.7045    2.0003  -18.5000 O   0  0  0  0  0  0  0  0  0  0  0  0
    3.8370    4.6271  -20.0299 O   0  0  0  0  0  0  0  0  0  0  0  0
    8.4570   -0.1482  -22.3182 F   0  0  0  0  0  0  0  0  0  0  0  0
    4.8572   -2.9992  -20.9646 F   0  0  0  0  0  0  0  0  0  0  0  0
    9.8711    6.7397  -17.8060 H   0  0  0  0  0  0  0  0  0  0  0  0
    7.9065    5.9803  -16.5125 H   0  0  0  0  0  0  0  0  0  0  0  0
    9.5978    8.3277  -19.6814 H   0  0  0  0  0  0  0  0  0  0  0  0
    5.3476    8.4297  -18.9747 H   0  0  0  0  0  0  0  0  0  0  0  0
    6.8163    1.8135  -21.6990 H   0  0  0  0  0  0  0  0  0  0  0  0
    3.6006   -0.7596  -20.4144 H   0  0  0  0  0  0  0  0  0  0  0  0
    7.2683   -2.4666  -21.8983 H   0  0  0  0  0  0  0  0  0  0  0  0
    5.7783    8.7372  -13.3961 H   0  0  0  0  0  0  0  0  0  0  0  0
    4.3444    7.6845  -13.6461 H   0  0  0  0  0  0  0  0  0  0  0  0
    4.2318    9.6375  -15.1484 H   0  0  0  0  0  0  0  0  0  0  0  0
    5.8576    9.2525  -15.8080 H   0  0  0  0  0  0  0  0  0  0  0  0
    7.1687    7.2417  -14.7541 H   0  0  0  0  0  0  0  0  0  0  0  0
    6.3535    6.2914  -13.4659 H   0  0  0  0  0  0  0  0  0  0  0  0
    3.3588    7.4865  -16.0061 H   0  0  0  0  0  0  0  0  0  0  0  0
    4.0713    8.4654  -17.3329 H   0  0  0  0  0  0  0  0  0  0  0  0
    6.3008    5.1451  -15.6947 H   0  0  0  0  0  0  0  0  0  0  0  0
    4.6605    5.5035  -15.0561 H   0  0  0  0  0  0  0  0  0  0  0  0
    8.0548    0.1695  -16.8385 H   0  0  0  0  0  0  0  0  0  0  0  0
    6.5447    0.6317  -15.9826 H   0  0  0  0  0  0  0  0  0  0  0  0
    6.4913   -0.5805  -17.3071 H   0  0  0  0  0  0  0  0  0  0  0  0
    6.9604    7.6712  -22.4883 H   0  0  0  0  0  0  0  0  0  0  0  0
    5.6491    7.4324  -21.2843 H   0  0  0  0  0  0  0  0  0  0  0  0
    5.2665    8.0947  -22.9096 H   0  0  0  0  0  0  0  0  0  0  0  0
    5.1292   11.1340  -20.6460 H   0  0  0  0  0  0  0  0  0  0  0  0
    4.1759   10.1561  -21.8127 H   0  0  0  0  0  0  0  0  0  0  0  0
    4.5585    9.4938  -20.1874 H   0  0  0  0  0  0  0  0  0  0  0  0
    7.3199   10.5438  -20.0275 H   0  0  0  0  0  0  0  0  0  0  0  0
    8.3394    9.5351  -21.1092 H   0  0  0  0  0  0  0  0  0  0  0  0
    4.1565    2.5163  -21.4447 H   0  0  0  0  0  0  0  0  0  0  0  0
    3.3502    1.5284  -20.1795 H   0  0  0  0  0  0  0  0  0  0  0  0
    5.2508    3.9660  -17.0672 H   0  0  0  0  0  0  0  0  0  0  0  0
    6.0652    4.7852  -18.4428 H   0  0  0  0  0  0  0  0  0  0  0  0
    6.5371   10.1219  -22.4313 H   0  0  0  0  0  0  0  0  0  0  0  0
    6.0039    3.0463  -19.9280 H   0  0  0  0  0  0  0  0  0  0  0  0
    3.3578    3.3730  -18.4280 H   0  0  0  0  0  0  0  0  0  0  0  0
    4.6928    1.2702  -17.8872 H   0  0  0  0  0  0  0  0  0  0  0  0
    3.5801    5.5968  -17.1350 H   0  0  0  0  0  0  0  0  0  0  0  0
    4.1947    6.2990  -18.4751 H   0  0  0  0  0  0  0  0  0  0  0  0
    3.2996    4.1346  -20.6391 H   0  0  0  0  0  0  0  0  0  0  0  0
  1  2  2  0
  1  3  1  0
  2  8  1  0
  3  9  2  0
  4  8  2  0
  4  9  1  0
  5 10  2  0
  5 11  1  0
  6 10  1  0
  6 12  2  0
  7 11  2  0
  7 12  1  0
  8 19  1  0
  9 23  1  0
 10 24  1  0
 11 33  1  0
 12 34  1  0
 13 20  1  0
 13 29  1  0
 13 31  2  0
 14 15  1  0
 14 16  1  0
 15 17  1  0
 16 18  1  0
 17 19  1  0
 18 19  1  0
 19 30  1  0
 21 26  1  0
 22 26  1  0
 23 26  1  0
 24 27  1  0
 25 28  1  0
 25 30  1  0
 27 28  1  0
 27 29  1  0
 28 32  1  0
  1 35  1  0
  2 36  1  0
  3 37  1  0
  4 38  1  0
  5 39  1  0
  6 40  1  0
  7 41  1  0
 14 42  1  0
 14 43  1  0
 15 44  1  0
 15 45  1  0
 16 46  1  0
 16 47  1  0
 17 48  1  0
 17 49  1  0
 18 50  1  0
 18 51  1  0
 20 52  1  0
 20 53  1  0
 20 54  1  0
 21 55  1  0
 21 56  1  0
 21 57  1  0
 22 58  1  0
 22 59  1  0
 22 60  1  0
 23 61  1  0
 23 62  1  0
 24 63  1  0
 24 64  1  0
 25 65  1  0
 25 66  1  0
 26 67  1  0
 27 68  1  6
 28 69  1  1
 29 70  1  0
 30 71  1  0
 30 72  1  0
 32 73  1  0
M  CHG  1  30   1
M  END
>  <OMEGA_C>  (70) 
7zQOQWJ740CvdpDBQMT4QPIJ1kDciIrBpbYLQaoQAEEE+5jBkpHKQGEVAUFvr5XBxHzNQPpkUj+4
RazBwBCTQOZ8Ir/0hKbBAobVQO+2zL+3PK3BfD7PQPHE5UAP3YzBqqDuQD7FB0Grw5vBPOijQEo5
KD/YC6jBMGrmQE7qnL6Hwq7BgMKrQER04b/sK6nByrnXQHDXuj9Fu4/BxtCoQKzmAEEXlGHB6uud
QLU3DUGZMXbBzmrGQNa020CEQ2bBRGWJQHx+/EAUYIPB6KWyQKg+vkCXYnfBFnSnQM2y1kC3T4bB
bC7fQBMjrz6Hn4fBPGXAQOYqAUGez7DBbsydQEbdIUG7HKjBnq3sQMU2GUFLW6TB9EKKQEv47T+h
n6TBtv2iQBsBkkCX0o/BwJ3HQCcXGEGjkKzBtLiiQMJ2KEC95ZvBloaHQHPfcUC4npfBWASuQAGm
3D/TAZPBmHuNQLYgukBECI3BpIv2QNsEAEAQAJTBp5B1QJcRlEAwPaDBBVAHQXDLF76hi7LBLG6b
QCnyP8B7t6fBBvAdQVyr10Cdco7BrgH9QJdev0CKGYTBgJAZQT8+BUFsc53Bch+rQPTfBkE3zJfB
GR/aQBAg6D98l63BlXBmQHd0Qr+iUKPBB5boQBHdHcCnL6/Blue4QG7LC0E5VlbBNQWLQGHn9UBx
VlrBnGqHQEIzGkGzX3LBV3G7QBUKFEGH7XzBv2XlQMC750CgEGzBQFDLQH5TyUBldFfBafZWQCuR
70B0DIDBa0iCQHNyB0HcqYrB6Z/JQJKkpECKHXvBBSOVQFscsEDE5XDBQuAAQX2NLT4rtYbBOG7R
QKO4IT/JuH/BGrnPQKidFL/wdIrB0rveQER69UAS6LPBOcW0QPTV7UAzRqrB1IaoQAiEAUHHRrfB
ICKkQAIlMkHqKqXBtqCFQIx/IkFwgK7BG9+RQH/mF0Hcf6HB6DzqQEGzKEFQOKDBBG4FQcOPGEGZ
36jBpwGFQLsKIUCqjqvBlGlWQHSiwz+Qb6HBhQaoQOLSfUCYiYjBLRbCQIUgmUDSipPByS/RQCTz
IUFlc7PB1R/AQJr2QkB5bJ/BleVWQDbfV0CQbJPBCSuWQGuVoj8QGY/BRSBlQJcYs0CUFInBITuG
QFiRyUAFzZPBDCxTQM1OhEDWHKXBVYsMQWoV5ECAH5HBTiD3QItR1UC4sYrBmZ4IQSCgAEGtcZnB
BF7FQGYyAEEw+5TBxmDNQHdGUz/8iqzBfnWSQIwCGr8goabBmt/UQGnQzL/bDK3BvKzMQCgd5EAg
bIzBUjfnQI+2B0EXXpvB6J2jQL+jLj9XYqjBwB7mQBidob60xK7BJvWqQH7l3r9OCanBevfXQDAv
vT+J/I/BGIKpQCS/AkFFEWLBNmabQBh2DUGVEXfBhIHHQCI930DEMGbB8ImGQOu9+UAu5YLBph+z
QP3gvkCB33XB8PilQMO01ECeqIXB+qrfQMyGxz6gpofBXsaqQG1iKEGueLDBKC7IQGAKA0EXTLPB
TtreQIxNGUHzW6PBKoeKQK0l8z+vCaXB5LaiQEA7kECuUo/BGJG5QK27E0Ho/qrB2vOiQO0vKUAf
JJzBmtSHQE2AcUCGl5fBWk2uQMvx2j+FbZPBijaMQEYkt0DNIYzBGqr2QC/FAUCkPJTBuUl4QGVm
lUBMAaDBAkUHQXKhNb4rdrLBpFqaQKwvPsAmX6fB8KEcQevv2EDdpY/BG2n9QH2IvkAMZITB/KcV
QeVcBkEHVp7BshylQLxiBUGwrpbBqkzaQEat5z88A67Bxg5lQMLINb+CcKPB78jnQGWFHsBiz67B
X2q6QO2YDkHeLFjB1vSMQCcd+kA+fVnBPjaEQCk3GkETgnPB3X+3QB1hFEF9GX/Bta3lQDET60Bq
Dm3BKBTOQF8Gz0Ac61bBkJBUQPhP7EBjuX3B3DN5QNjJBEH9WYrBsWXKQFFepUBCSXnB9nuWQM3u
sEBbYm7BsSQBQSNSeT74kYbB+DnRQLEdMT8g/3/BSAjRQP4SDb92X4rB4IqgQMn+M0FtX6rBQl3F
QJIoL0FvI7XBoMyPQFLTJEFc1rXB1prSQDLS6EBFKK/B+matQBR2/kCRrrjBnPfiQEmQCUGj+7fB
ctPWQNAOKEF7AJ/BtPz7QHXlG0HcH6jB71iGQKBFJEC79KvBWvJVQM9zyz9hB6LBCpOnQKc2d0DK
S4jBfu7BQPWimEDTzZLBq/CeQB4SDUFJTabBcVbAQIZ/REArlJ/B93FWQBOhVkDUt5PBD5qWQOey
mz8GyY/B0u9kQCO2rkCm34fBeuqCQPN/xkAhwZLBiLlWQP6VhkC1JaXBoO4JQWiQ7EAKRpPBfuP0
QIhH4EDjtovBC6ADQZrf+EBHlZ3BxX68QPQm70Dqn5jBtTHMQHbsQj8qQazBSauSQAqpLb/VuKXB
B/3UQNep1L8LW6zBv53IQAWm4kBFNo7Bk57bQN11+EBnWaDBF+uiQLgLHD8d0qfBF1DlQNBXv74v
cK7BgZarQMr857/NC6jBiNvYQDeKvz+P9Y/Bg0qoQKwIBEHU0mPBlnmcQJKRDkEnO3nBAGLHQCav
4kAIOmfBmjSHQARK/EBG/4PBVUm1QE1+wUBFNXfB5f+kQDir1UBeTobBWS7iQBi71D57q4fBXmTh
QC+6JkHZE7TBgvSbQICqI0GUqKnBAS/OQFgTBEGyIqvByGKJQPWM6T9rkaTBWjWgQGjljkB8847B
4x7LQOOxHEFjYarB4b6hQBXQJkC425vBJ8qFQEbTbUDkPZfBGrGuQDhC2T8CIZPBwIaJQODjtUB0
tovBNrb2QOa3A0DUeZTBe49yQLpKk0DZop/ByJwGQa+IaL7BcbLB8OObQDjyQsALBqbB06waQXuD
7EDqIpHBu9n+QKPx1EAN8YPB3ncPQcRRAUG/YaPBjf2aQNeQ8UDap5rB2XfYQOy/3z+2963B+jJm
QO5YS7+5VKLBnDboQGwfIsAaEK7BFXy3QL4EEEFGaVnBiwGLQPkI/EDKIVzBSimGQLXcG0HQTXbB
paS5QMu7FEE+dYDBMcXlQCw/70ARgm3BoR7NQPDU0kDKxlfBk5NTQL2M8EBkKIDBtC9+QNj4BUES
nYvBrLLOQOtXqkDY/nrBjWKaQEbHsEAQh2/BxH4CQVA2kj5m4IbBraHUQBTXNj+h0H/BcaLTQGlz
CL8BP4rB+3cBQf1rIUHXWLTBMPXQQG2zIUFLcbvBRkTgQG5EOEGKaLPB1/uMQKEwHEE4oKLBMD6a
QAYuNUGp5qjBGe+KQAWdHkFp77DBygfmQNn0/kC+L7HBB+CuQNWR+kCWSq3BooWEQE02HkDak6vB
2kpUQIu8wD9iaqHBKiylQLCpdEDy6ofBEmO/QGWIl0AWa5LBL7vbQH/uIUG3E6PBY2S+QFW3Q0A2
ep/B/yNTQMRrUUBUXJPBg7yXQJIKmT/1Qo/BteRjQFKqrUDktYbBSSJ6QIB4w0CtQJLBa6RRQHoU
hEBaxaTBmxcJQRX67ECWFpPBQnbzQAu82kAkQIzBzrECQZwaBUGI+JrBf926QPbh/0AF45XBwTDM
QNk1VD+pyKzBWUCTQE1XIL8yJabBPmzVQLqyy7+EB63BSnHHQIF75UBBUo3BcqXZQBPiCUFISZzB
BDCjQDpIKj/4OajBXm7lQHgMmb6YFa/B6kCsQF9x4L9SmqjBgU7aQMiguz8Eu5DBflatQOI7A0Eu
u2LBmBmbQI1dDUFSNnfBVf3LQAM24UCmz2fBM+KEQItY+ECPXoLBYaK2QMarv0A7knbBjpekQGhd
1EBhtYXBIGTjQMtu+j7DoofBAwuzQNfVA0HKjbPByOTXQFxqJ0H5pLbB8fbLQLy4GkFuGqTBzM2J
QAN97z/YxKTB62eiQN3mj0A4SI/BI8jVQEdzE0EBkK/BY96iQB/+KEAGIZzBOGKHQDEDcEC3apfB
oPivQF8F3T/zcJPBwIyKQPlLtUC9m4vBexD4QDw0BEC39pTBUat0QLqNlECDuZ/BF5YGQQZoD776
KbPBKuWcQKZpP8C+kabBg8MZQRB/5EASRZLBIV39QHJlxEDvI4bB+H4OQVqtDEEWBaDBNEiZQGhk
AkFuhJfBDCfYQJvb6D8ugK7BxbtnQJQWQL+VqqLB3rXoQEBUHcDj2K7BOOG+QLuID0GTs1nBiLSS
QLFR+kD09FjB3syDQLjTGUHS4XLB50y1QJKOFEEgQYDBpZroQBL97UCU02/Bo2XVQEua0UDpwFjB
VW9VQIQl6kAPWXvBNW9vQGarA0FwnonBDIvOQPtfp0A29nrBJzGcQOtWsECS123BoAADQf+t6z6a
DYbBXHDSQF1PUT+UYoDBOEXYQLXdA7+/6InBQDiyQEdX60DAVa7BrrCTQCPUC0EyYrPBvnC6QFi/
/UC7yrvBtN3wQOg/MkHpn7PBdonfQDKxIkFI577BZsm4QKqlL0G/frbBE12pQHOBHUERSKPBN1jd
QH6nKUHobKLBnVOEQPG6IUDZsqvBtLJVQC7axT9NfKHBUG6pQD+wdUDfc4jB9JHAQFg1mkDOA5PB
Kf/0QBBSC0Hksq/BmXG/QM2NRUA105/BWtBWQA3QU0CmZ5PBmP6YQE1Ioj8yQY/BreZlQAhOq0BI
0YbBwhx8QAj2w0AF/5HBo+FSQOR4hUB6y6TBWGQIQTsI9EDwC5PBNNvyQBiF30ATZYzBg4EBQdIz
CUE/lZrBrQO5QJheAkG4i5XBn2HJQOpyUD93Tq3BtnKTQLNZKr+iiqXBn2rTQAITzb9Y163B+JLG
QFgP6UAHRo3B4PXWQIRpDUFv2JvBRh6iQDwdIj8G7afBKhriQML+mr7CNLDBC+yrQPIm5L/XlajB
B0HbQOSfwj9Ra5DBnWKtQKQVAUGDE2HBUc+aQKpsDEE12HTB3qXMQPtY3kCXeGfBG7yEQGgg+ECk
vYHBcLy3QIyUvkBHRXfBJ7CkQPZs1UButYXBliXlQC+z3z4iLojBQT/0QNW+EkEi1rPB7i2tQI6O
AEH/dLDBDDvHQNn+HUEyz6PBsdWIQK9z6j/7Q6TBLayjQHwDkkCbyo/BCX/GQHSyFUGDda/BrwKj
QO1xKEBLBpzBoQCIQOgMcUDLcpfBtcqwQBW53j/oQJPBphWLQC20tkDg3ovBtMT4QEMbBUAkF5XB
06BzQOLWk0DX45/BdOIDQWjOAb6iVLXB0G+dQAnOQcBzeabBdzEZQaZu7ECZXJLBIaD9QEZZyEDE
k4bBTRQNQYqnEUEUaZ/BzDyXQGh6BEFICpfBRG7UQKOs5z8GMq/BlPBqQLd4Tb+QYqHB+m7mQDh2
HcChDrDB13u+QA7iDEEpNFfB7vySQPEz9ECKwlfBqFWDQDt6GEERrW/B3NO0QJRRFEExsH3Bquzo
QPW67EDOGG/B1IXWQFHlzECDAVnB04xVQF516EDUinrBwp9uQJp2BEEztYjB0BjQQOd5p0CkjnzB
e9GdQJOFrUCR9W7B6f8DQcgimz6YkYfBvEfYQCKEPD/uWIDBlUfWQNR6Ar+Rr4rBN/wCQbjgIUF6
FrPBkVkCQWgyBkGpPK/BArfyQL8MDkEPT7zBs56MQF/XAkFqUK3BDXWrQBWg90Cb67jBLHG9QGfr
50A12avBbJGmQKvFIkFyj6HB8H/cQEX/K0FoaqPBuZ6BQGw/HkCgL6vB54NVQD9cvz9FkqDBWSGt
QPtRe0AfA4nBD3nAQJBfnUCP+pPBOVi2QDPKIUGharTBTEC/QBCyQ0ABBqDBnShZQCQDVkB3FpPB
ACGaQE25oT8hFo/BshdnQP7Sq0DXLofBrP18QIDvxUC7KZLBDupQQC/6g0AMtaTBkX4IQQuU50CT
RJTBoADzQBNX3EBRYozBI7sBQexU/EBLoJ3BRjq6QOlM/EBoDJfBWXHKQOyfPj+IyazB+UKUQPiD
NL9nx6TBk0LUQD5V1r/H0azB1hPHQJXR5kC6ro3B2ArYQB3/A0Fg3J7BTA+jQB64FT+FaafBohnj
QB/OxL4IcK/BbbWsQMq96r8MjafBlFvcQPVTxj/oaZDBzO+rQDSLBEHNZWPBKAmbQFu/DkEtI3jB
J3rKQE+f40DtF2jBDb2EQNF/+0DM8YLBMG61QP86wkA6AnfB4P+jQADU1kAuAIbBQZzmQCxqAz94
04fBm1nQQCi8KUHGPLfBvEv8QGFGLkEbqKbBzULHQBrzDkG0yKjBM6OJQKr05T/WDKTBJQCjQLcz
kkCzu4/BHBjoQAmrHUHoWK7BA3SjQGZ2KEC29JvBZ/qHQOcgcUCQi5fBQrWxQMx94z+oAZPBUziK
QPAEt0AE3ovBGpL5QBHGAkB4pJXByN10QDyUk0DFHKDB43IEQagia741jLTBkSmeQAWLRMCOJ6XB
ujkZQWw+4EAdIJPBtmn9QI2dy0ADSYXBhhsNQcCyAUGT4qPBkNSYQHDuAUFjN5jBFaPVQHzP3T8L
3a7BRl1sQISiU78Ro6DBLzTnQEalIsDj2a7BvjG9QAHDEEFpH1rBC6yQQLIq/UDy/lnBJQ2EQF51
G0FZH3TBO/K1QP6iFUFok4DB+IPnQKse8EBa1W/BYCTTQIAG1EAH7FjBontTQD3/7UDN1XzBIHdx
QNxPBUFXTYrB12LNQKvaqUB+OHvBprOaQOf+skADdW7BsbAEQcADsT79iYfBP4LbQP0PYT83AYDB
slLWQKMq3b7gvYnB2sbBQMgsHkGJyLzBHy23QN/EM0HUrbPB4BLnQEfrM0Ggn7vBor0GQRrlJUFw
OKDBYmkJQXlwOEHpHavBBO3iQBBKOEEdLKPBYVO9QD6OAkFehK7BPFyrQGWsGEHNg6bBzIiCQOdP
GkANIavBkABXQFhBvD/tUqDB8/urQAWde0Du64jBshbAQGOYnUDWyZPB28wAQVjWE0FF5rHBeHa/
QNPZQ0BsCqDBU3NYQLIOVkD5UZPB8UibQE3Rqj/4h47Ba4lmQLA/rEBt/IbBQrN5QGN9xUDYK5LB
dhVTQFqEg0DE/aTB/IUJQXXl8ECaJJTBxC71QGM25EDfVozBRpwCQQ2k+0A4fp7BHUu7QB5p8EA0
ApnBI4fNQKTYQz/kUKzBhc6TQHKmLb+w8KXBV0nWQCAi1L/Xg6zBm6rIQH3V5ECBmo7BY1PZQILR
+UBLCqHBBiSkQJxMHD+/86fBz7DmQImivL4Zgq7BeMSsQG3K57/rR6jBfIHYQEvFuD9tyI/BH4Wo
QF1HA0HItmPBvPmaQOsHDkGXwnjBj1jJQPoA40Ai1WfBXfmGQHML+0CB64PBeTy4QFKuwUBM/XfB
FUCmQOX31UDBhYbBmHTgQEb0tD7beofBKWifQG22IUHIoqfB+ynrQCo7JUF8pK7BUyjKQGNHAEFB
dKzBNKGKQMV56T/Mq6TBC3WiQJwmj0BZM4/BO4jBQJn/F0HTI6/Bg/2iQEr0JUBI5JvB8JiHQIka
bkAMYZfBTbiuQPKe1j8rHJPBlUSLQBWatUD22ovBQw33QOzB/j/VH5TBnLF2QAM/k0BP1p/B71wH
QTIXYL4QbrLBqwSdQGbsQsAyVabB2lQaQdxf8kAALJLBwhoAQRfs2UDEkITBvRYOQW+jAkFBfKTB
AomZQOwM8kAZ0JrBEdnZQGFY4D/5963BVk1oQDDTS7+emqLBXIrpQPzLIcCbO67BMM+2QM5eD0Fm
G1nBmCGMQI6p+ECl91vBhmyDQGymGkFxUXXBSj63QBEkFUEnPIDBHcjmQFpf8UDiRm7B44nQQNfN
0kBvoFjBIWhUQKOv7UDvGoDBee97QB2JBUGnbIvB8IvSQIflq0BBPXzBAGueQItsr0DhQXDBOI0B
QfV2Tz67gIbB72rSQDkTKD/bkH/BOpHRQJ7KFb9GKorBEPCBQGsgGEGDEqjBO3urQOCxIUGrXp/B
GICYQIc9MkGHHqrBwJIBQfEiHkHsBLTBK4bkQHLFNUGKJrHBTYH3QMw5JUGuZqbBNeDiQHhr9EB4
77HBnF2sQLxo7kA4oa3Bm/SFQE6fHkCipavBv5pWQPe2wD8fkqHBU02oQDsgdUDCNojB/TbBQMpW
mECsz5LBRzO1QFDNGEFYX7fBsSrAQHqEQUB6aJ/BRn9WQObmUkBPbJPBwiaXQNPRmD/1UY/BLEto
QOXUrEAex4bBQ1N8QKj4wkDlV5LB7TJVQNwLhEBk6qTBGcDQQP7lCkEe557Bh0m0QPcNAkEuU5fB
ofP8QLAAB0Ee/53BW3LvQBZb4EARg47Ba0/LQJZHOD9ZjqzBhdiRQE5FLb/SaaXBFRrRQLjU2r8k
Ta3Bj8DDQFFr6kA1vY7BEA0GQYwB80Cqw5XBbRKjQET+GD9/iafBGWbiQOMs3r4YYa/BbKyoQBMp
6r8LZKjBrFfZQIMWtT93uI/BY7WwQIXI/kCE6GDBDsOfQGEYDEHeMnTBuqTOQEnI2kA/NmjBaziH
QNlY+kBUwYHBJZC5QFgevkBUMXnBwtakQFoN10BjV4bBLHTgQOm3oD5ycIfBB1ElQWpkHEGzKI7B
zoEbQXyFAUFF6H/BW7EdQQ/660Cx8pPB3tqKQAU06j8iNKTBlaWiQBrLkUD3kY/BHbkmQZ6cBEHe
5orBZUikQFBWJ0Adu5vBWw+JQG3ocUCdtJfBnJavQCmq3D87t5LBXXCKQDn6t0BlLozBF0f4QKN4
9D9ZR5TBz3t9QEeclEA+aaDBYnwEQTvVob6RLbTBq5mXQDc9Q8AhmabB6KLEQJWeFEFIX6XBx2CS
QHgQBUHaC5jBH4wJQTtFDkHci6PBWzn7QLnbyUC/pojBIlvYQKJU2T8IOq7B5VJmQNemRL9jgaHB
FNbiQOkjJsAYea/BAWDCQIJGCkHcQ1bBIoWVQEPP8ECyLljB9R+KQPPCGEFMhG7Bc9m6QONbE0GX
xnzBJszrQNsJ6UA3B2/BmynXQHcKx0DhRlrB1IpZQKkj60CIu3rBtXV0QGixBkEGaIjBvR/SQD9b
qECSj3/BIEGgQIZZq0C9WHHBSHQBQZsa3j3As4bBDM3TQFb9Iz8LT3/BXcPPQESxGb/B/onBOEAt
QdC0HkGn7ZXBT2oUQcohIUHBzI7BIEctQWxKJkFsEYjBp3IcQQYz4UAvKXvBVnwjQa53C0GRxnPB
hJ8KQQtPBkGdnoDBGk0gQfVVykDgtZHBP04mQRf58kCba5vB0KeFQLMVHkBePavBYYhXQH04xD/Y
06DBIO2oQO7FekDpkojB0zTBQGLMm0BtJpPB5Ls3QTabAEH824nBB5rBQGi1QEAubZ/B/qZXQEfK
WEAA8ZPB/7KXQFGpqD8jgI7BkOVkQCGjrkAJbofByPp8QPJBxkD9r5LB5TddQOVFhUBPlqXB

>  <OMEGA_E>  (70) 
AO4aPjAYIz4gRjc+CA4+PrCqQj4QAYU+oA8GPgCawj4=

>  <OMEGA_NBR>  (70) 
    272569

$$$$
50214103
     RDKit          3D

 61 63  0  0  1  0  0  0  0  0999 V2000
    8.5448    7.6285  -18.7399 C   0  0  0  0  0  0  0  0  0  0  0  0
    7.6803    7.0704  -17.7713 C   0  0  0  0  0  0  0  0  0  0  0  0
    8.0279    8.4060  -19.7948 C   0  0  0  0  0  0  0  0  0  0  0  0
    5.7746    8.0187  -18.9546 C   0  0  0  0  0  0  0  0  0  0  0  0
    4.5197   -0.6630  -20.8357 C   0  0  0  0  0  0  0  0  0  0  0  0
    6.4686    0.6838  -21.4360 C   0  0  0  0  0  0  0  0  0  0  0  0
    6.5879   -1.7484  -21.5378 C   0  0  0  0  0  0  0  0  0  0  0  0
    6.2774    7.2801  -17.8522 C   0  0  0  0  0  0  0  0  0  0  0  0
    5.1306    0.5956  -20.9929 C   0  0  0  0  0  0  0  0  0  0  0  0
    5.2457   -1.8333  -21.1150 C   0  0  0  0  0  0  0  0  0  0  0  0
    7.2001   -0.4887  -21.6949 C   0  0  0  0  0  0  0  0  0  0  0  0
    6.6396    8.6027  -19.8964 C   0  0  0  0  0  0  0  0  0  0  0  0
    6.6180    1.2552  -17.9118 C   0  0  0  0  0  0  0  0  0  0  0  0
    5.4135    7.9136  -14.0981 C   0  0  0  0  0  0  0  0  0  0  0  0
    4.9118    8.7024  -15.3159 C   0  0  0  0  0  0  0  0  0  0  0  0
    6.4531    6.8667  -14.5274 C   0  0  0  0  0  0  0  0  0  0  0  0
    4.2667    7.7465  -16.3224 C   0  0  0  0  0  0  0  0  0  0  0  0
    5.8888    5.9201  -15.6013 C   0  0  0  0  0  0  0  0  0  0  0  0
    5.2668    6.6711  -16.8347 C   0  0  0  0  0  0  0  0  0  0  0  0
    6.7247    0.1958  -16.8180 C   0  0  0  0  0  0  0  0  0  0  0  0
    4.3761    1.8423  -20.6117 C   0  0  0  0  0  0  0  0  0  0  0  0
    5.1332    4.4934  -17.9603 C   0  0  0  0  0  0  0  0  0  0  0  0
    5.1148    2.5682  -19.4718 C   0  0  1  0  0  0  0  0  0  0  0  0
    4.2928    3.7493  -18.9760 C   0  0  2  0  0  0  0  0  0  0  0  0
    5.3542    1.6396  -18.3474 N   0  0  0  0  0  0  0  0  0  0  0  0
    4.4295    5.7135  -17.5690 N   0  0  0  0  0  0  0  0  0  0  0  0
    7.6344    1.8032  -18.3253 O   0  0  0  0  0  0  0  0  0  0  0  0
    3.9880    4.6216  -20.0645 O   0  0  0  0  0  0  0  0  0  0  0  0
    4.6565   -3.0392  -20.9603 F   0  0  0  0  0  0  0  0  0  0  0  0
    8.4921   -0.4050  -22.0842 F   0  0  0  0  0  0  0  0  0  0  0  0
    5.8233    9.8523  -21.4580 I   0  0  0  0  0  0  0  0  0  0  0  0
    9.6089    7.4578  -18.6709 H   0  0  0  0  0  0  0  0  0  0  0  0
    8.0887    6.4804  -16.9641 H   0  0  0  0  0  0  0  0  0  0  0  0
    8.6940    8.8481  -20.5209 H   0  0  0  0  0  0  0  0  0  0  0  0
    4.7073    8.1345  -19.0722 H   0  0  0  0  0  0  0  0  0  0  0  0
    3.4950   -0.7290  -20.5011 H   0  0  0  0  0  0  0  0  0  0  0  0
    6.9294    1.6505  -21.5759 H   0  0  0  0  0  0  0  0  0  0  0  0
    7.1475   -2.6494  -21.7415 H   0  0  0  0  0  0  0  0  0  0  0  0
    5.8744    8.6088  -13.3810 H   0  0  0  0  0  0  0  0  0  0  0  0
    4.5630    7.4048  -13.6207 H   0  0  0  0  0  0  0  0  0  0  0  0
    4.1688    9.4449  -14.9893 H   0  0  0  0  0  0  0  0  0  0  0  0
    5.7594    9.2168  -15.7922 H   0  0  0  0  0  0  0  0  0  0  0  0
    7.3346    7.3840  -14.9341 H   0  0  0  0  0  0  0  0  0  0  0  0
    6.7485    6.2748  -13.6485 H   0  0  0  0  0  0  0  0  0  0  0  0
    3.4195    7.2399  -15.8371 H   0  0  0  0  0  0  0  0  0  0  0  0
    3.9024    8.3293  -17.1812 H   0  0  0  0  0  0  0  0  0  0  0  0
    6.7046    5.2758  -15.9611 H   0  0  0  0  0  0  0  0  0  0  0  0
    5.1064    5.2986  -15.1413 H   0  0  0  0  0  0  0  0  0  0  0  0
    7.7796    0.0652  -16.5350 H   0  0  0  0  0  0  0  0  0  0  0  0
    6.1465    0.5169  -15.9390 H   0  0  0  0  0  0  0  0  0  0  0  0
    6.3246   -0.7583  -17.1915 H   0  0  0  0  0  0  0  0  0  0  0  0
    4.3058    2.5083  -21.4843 H   0  0  0  0  0  0  0  0  0  0  0  0
    3.3647    1.5693  -20.2763 H   0  0  0  0  0  0  0  0  0  0  0  0
    5.2922    3.8587  -17.0760 H   0  0  0  0  0  0  0  0  0  0  0  0
    6.1054    4.7537  -18.4044 H   0  0  0  0  0  0  0  0  0  0  0  0
    6.0773    2.9385  -19.8545 H   0  0  0  0  0  0  0  0  0  0  0  0
    3.3727    3.3825  -18.4976 H   0  0  0  0  0  0  0  0  0  0  0  0
    4.5591    1.2648  -17.8706 H   0  0  0  0  0  0  0  0  0  0  0  0
    3.6570    5.4591  -16.9872 H   0  0  0  0  0  0  0  0  0  0  0  0
    4.0903    6.1609  -18.3965 H   0  0  0  0  0  0  0  0  0  0  0  0
    3.4605    4.1579  -20.7043 H   0  0  0  0  0  0  0  0  0  0  0  0
  1  2  2  0
  1  3  1  0
  2  8  1  0
  3 12  2  0
  4  8  2  0
  4 12  1  0
  5  9  2  0
  5 10  1  0
  6  9  1  0
  6 11  2  0
  7 10  2  0
  7 11  1  0
  8 19  1  0
  9 21  1  0
 10 29  1  0
 11 30  1  0
 12 31  1  0
 13 20  1  0
 13 25  1  0
 13 27  2  0
 14 15  1  0
 14 16  1  0
 15 17  1  0
 16 18  1  0
 17 19  1  0
 18 19  1  0
 19 26  1  0
 21 23  1  0
 22 24  1  0
 22 26  1  0
 23 24  1  0
 23 25  1  0
 24 28  1  0
  1 32  1  0
  2 33  1  0
  3 34  1  0
  4 35  1  0
  5 36  1  0
  6 37  1  0
  7 38  1  0
 14 39  1  0
 14 40  1  0
 15 41  1  0
 15 42  1  0
 16 43  1  0
 16 44  1  0
 17 45  1  0
 17 46  1  0
 18 47  1  0
 18 48  1  0
 20 49  1  0
 20 50  1  0
 20 51  1  0
 21 52  1  0
 21 53  1  0
 22 54  1  0
 22 55  1  0
 23 56  1  6
 24 57  1  1
 25 58  1  0
 26 59  1  0
 26 60  1  0
 28 61  1  0
M  CHG  1  26   1
M  END
>  <OMEGA_C>  (71) 
UbcIQbwc9EBZ65XBqMT1QFZA4kCJK47BeHIAQch+BkGtW57Bq8m4QMVMAEHtopfBbqGQQGa8Kb+W
r6bBDv/OQAUMLz//fKvBJtDSQCvK379wTazBEuDIQPT26EBk0Y7Bmi2kQJN7GD+J8afBi9ynQDWo
6r+S66jBTGfmQIgx+r4Sj63B7nfUQKWkCUHPK5/BSsbTQAeqoD9VS4/BPjutQOs7/UC2kWHBzi2d
QN88C0HODXXB7n/OQNG720AUcGjB6YiIQEPj90BDlILBAHG8QElxvUDsnnnB1omoQGp51UB5rYbB
3jDXQIF7SD4ti4bBOgmMQPvO6z+x5KTBiUOkQB7Kj0Cgro/BJqyjQNFdJEBHxpvBvF6JQCH1b0Dw
zpfBwFWrQInf0T9zx5LBZ76NQJ/UtkBpjYzBIk30QL/Q5j8xmpLB+Dt/QL7jk0AhhKDB6gGVQF6C
QsDDrqfBeN8HQY5Wz752rLDBr1i6QBqjHUEHqqvBQL4ZQWmm7kAYXpXBTmsBQY5fz0BstofBvhoL
Qc+RDUHCKqTBPqKWQNgmAkHtk5jBzq1fQPigOr86AqTBXL3dQPBD0z9hm6zBB7jkQBmPKcCd7q3B
2vq7QL29CUGTGFbBQwSSQG307EBG7lnBHmeFQCseF0FE1G/BQU24QBZ4E0EDrXzBtLTqQH9J7EA7
8m7BpfPXQPDKyEBAYFrBSNhaQCGt50DSZH3Bb8B5QMxEBUEnc4nB+IvWQJPTqEB6YH/BvWejQNSN
qUDEQnLB1fL4QPd2hT2rR4TBPLDEQBBTBD8hBn/B6mLKQP4iQr8piInBYMmJQPyHIEDK36vB2FZX
QCDeyD/rNaLBGVqpQHn1dkCym4jBI1/DQG0emEApPJPBVnnCQMsPPED11Z7BlNpXQJt7WEAk+5PB
YOSRQP/koT/69o7BpAxqQK+wrkC85YfBAuSCQG8mxUAYLJPBCnldQM8NhUBXoqXBNqwIQQiP9EAn
8ZXBeMz1QBib4kCoLo7BJ1YAQaOuBkE2YJ7B8Ki4QAd0AEHfmJfBkArPQFpzLT8xWKvBrMGQQAn9
K7/0habBeAvTQD6T4L8vF6zBCOTIQPsx6UAbzo7BijikQHxnFj/7zafB7ozmQALi/L5oX63ByhOo
QB6s6784uajBejzUQPvQCUHKJp/B1rHTQDZ/qD8E0I7BhB+tQE6I+0AyMWHB2mKdQFPGCkHcenTB
JJHOQA5v2kDpTWjB2MSIQIOk90C7c4LBksS8QObHvEC80XnByLKoQCNr1UCQrYbBBHzXQAXCUD6D
gIbBQvOLQEWa6j8kzaTBqCakQBH5j0CHwY/B9oujQIY6JEA6uZvBJjeJQBcJcEAx1ZfB7EarQPWE
0j+irJLBDtGNQNcdt0Dno4zB6kT0QE8e5T9Sw5LBwQZ/QAS5k0B+laDB8PUHQTQO0b4LdrDBqkSV
QHsQQ8BafafBCgm6QFXjHUGIk6vBFrYZQeU470DyZpXBzHwBQXq/z0ANvIfBr/IKQZy9DUHiNaTB
IX6WQEtRAkFxgJjBfrTdQDGN0j/jfazBa+pfQOgyPb+W2qPBWAflQB3pKcBWsK3BEaC7QCunCEGy
alXBhtCRQJ7e6kCY2VnBl6qFQBGdFkGQGW/B26i4QEoUE0GL4nvB9MbqQHNV60DilG7BpvPXQEz5
xkDQaFrB7hBbQAtA50BwWH3BYJV6QNtrBUEpP4nBFQvXQLaZqEDEw3/BF92jQLdoqEBjrnLB0XT5
QGYM9bzwJ4XBdN7IQODECD8D5H3B9NjGQMfLMb9OaonBqZiJQNqiH0DJzqvBiUBXQOFtxz9HGaLB
ekepQAKOd0DSqYjBMDzDQOMumEDJVpPBrFbCQCDPO0D+zZ7B0IZXQB7NWECk/JPBpd2RQBionT9l
G4/Bw79pQNYar0DKC4jBa06DQJOhxUCkRJPBky9dQOnKhEA0raXByE7JQHGtDEH1yp/B5C6xQEVa
AkH0ypfBIB72QI9SC0FIqp/BmJDyQPAB60AlXY/BUrXPQOuXST+18avBcCCSQO2cG7/sZ6fByLHU
QFis0b/hZK3Boj7FQMD97UA6So/B8gGlQOcmKj+sX6jBDqbnQMqrur5dV67ByN+pQAbx4L/296nB
ck4FQZgM/0BXi5fBqHzUQLRDoj8rfY/BWM2tQKxO+UCiZWDBOoGbQGshCkHxwHLBAirRQFS620DC
4WjB9qmHQGLm9kCs04HBWJDAQBirvkDJ6XrBMK6oQPIy10AyvYbBlnzYQBT7ST4a14bBDkiMQO6K
8T8o/qTBfKqkQEutkEDWlY/BnMajQHfiJUC/vJvBsECJQHlfcECFfpfBmN2rQMhI0T/b9ZLBGvWN
QNm1t0D3bIzBlK30QJ5X7D/HqZLB05d7QCsKlEDOE6DBFHQIQYQ2fr4xdrHBTKSXQOeAPsDs/6jB
628nQfLr+EA1xJfBIVW5QAufFUGMA6bBcq2OQPYRA0FEHpjB22MEQRtGE0EPwaXBpWQBQShY2UB/
JInB6PPdQOLx4T/61KzBNOJiQGpQM7+7sqTBlPvmQLl7IcAdS6/B8Dm7QNdRB0FxHFTBVRiUQJjZ
5UBCVVnBfc6CQEL5FEE3dGzBt1i1QJKTE0HsEnrBvJLrQEpq70A9Fm/BQ+rcQHugx0CxrlvBX4xb
QG5Z5EDlKHzBy850QKhmBUG1SIjBtAXcQACdrUDF8IDBay6qQG1lp0Cj53PBnkP6QMbFuD08hITB
I33FQIXW+z5Con/BCZTMQBgPQ78h9InBLn+JQL/wJEBTz6vBJ0VYQJovyz+8U6LBZ6KqQGl9eUC3
fIjBTlfDQG0tmUCWV5PBFm/CQIa5PkALv57BfS9ZQPCZV0AsbpPBc5qSQPIFnT8uS4/BUGprQJRv
r0AZoofBSmmCQKGWxUDuB5PBEy9ZQEzxhEAvFKXBgkLJQOXcDUH/bJ/BxgyxQHdAA0EUiJfBNgv2
QMlEDEEAX5/BkFHyQIBS60CiWY/BzduRQCQHHr9wSafBdk/PQGAGSD+u4KvBWmLUQE9V0r/xWK3B
EwvFQErE7kA5MY/BIrKkQNDkJz8WQKjBe52pQIns4b/j5KnBvkDnQATtvL4vUK7BMzYFQazv/0BS
bJfB/p3UQFsgqD9xH4/BPg+uQIwL+UDFTGDBDECbQMb/CUFgiHLB3GbRQGin20B792jBq1uHQGab
9kCntIHBD5/AQKWwvkBd/nrBtIyoQA5g10DbuYbBoi7ZQDQYLj7BG4fBmvaLQKU68D/S3KTBjBCl
QGYqkUAKvI/BVrijQMakJUCkr5vBJmGJQKqRcEBdf5fBavyrQM2B0T8e35LBbhKOQPbvt0DvfozB
mtv0QM3C6j/325LB2FN7QGLFk0DKIaDBjmuXQCYPP8Dl+qjBNjUIQW4wgL6ygLHBakUnQWZS+UAC
tJfBzFy5QKg1F0F6gqXB5I2OQHMkBEFH0JfBmWEEQTtrFEERYqXBnDwBQQbY2EB/RInBsm9iQOQw
Nr+6jKTBc3vdQJdE4T9jx6zB8bTmQHPAIcA3Qa/Blp67QMkyB0FRD1TBuZWUQDVw5UAsIVnB+nyC
QL64FEE/F2zB6NK0QLySE0Hn63nBBajrQNp570BtOm/BvWjdQMJ8x0Cn2VvB/ZxbQDG240DE13vB
rUtzQAU/BUFoG4jBEAHcQCCtrUC4B4HB906qQDZgp0D09nPBl1D7QNMWGb1xvYXBw/nJQFV46D4i
An/Bo4jJQBIJO79PTorBlN6IQFUIJEBXsqvBbuJXQDenyT+7HaLBIM+rQO/CekB2p4jBu1jDQJsE
mkAYo5PBJFbCQOUiPkDpw57BkrNZQNZBWEB0VZPBitKSQPRomT9wY4/BA69rQIdUr0Dhu4fB3HuC
QNv7xUADE5PBJIxYQKR5hEAXDqXBgNPdQNlgB0EN5p7B0sG+QC7r/UDS45fB58UEQTv4BUGDS5zB
QEL3QODd5UCL4YvBXcSKQMBjQD2wWrLBvYHEQBj74r04S6XBe3PIQG4Ksr9W1LXB9vXKQNDI6UAk
LY7BidecQL+D5T71fajBpoygQJoQXr9VAbnBVlvaQNxmgb869avBMBYLQd2G90COxJLB5U3aQKPX
5z91/ozBFrGrQGaHAUE162HBNsCcQOxyDUGQJnbBb8vLQE+N30AnlGfBfFOIQNV4+0C+G4PBOHu5
QC5zwEABrnjBZOenQFlu10C9pIbBIt3nQCYiZz/dwYPBxP2DQDEMtT/cUqHBjAumQGIbkkCdpZDB
jFyhQF4eGED9y5rBkK2IQNwoaUBnM5fByFWxQABy1D9NPpHB0fONQIcJuEBB4YzBwpP0QNRkJEBg
D5HBVM5zQI7Fi0CcVqDBIyaPQCNFn7/rccLB4EYAQQV3wb/szajBL9UsQW0h80DsjY7BjA/UQP7r
DkFPR6bBcUSdQJYuAEEZ75nBGKkQQfyxDEF1lqHBwK4AQUYe1UAdwoTBg0dYQAd/4j6bzrTB0RHS
QGV5Ij4fpZ3BLULZQLVKBcDu9rrB0Re7QFD8DEEvAFfBvcCPQK+v9ECZ+1nBjAKFQBWiGUFhonHB
UXC4QBJDFUFatH3B0SzpQH1Q7kCY3G3B1l3TQFdNzUBPA1nBkGxYQHqW7ECMrn7BFWt8QIq6BkHT
PIrBjRjTQAFZqkDOiX3BPSafQMI0rkCmYnHBLPAEQfgMiT9y7oHBlXXUQGv0kD8ZTHnBkgDjQPn0
F76AC4bBTXZdQABKAUDnZKbBY1phQLtsUz+9q5vBBniyQDdwgEDLsonBROfAQBmonEDHr5XBYnC8
QHqVK0Cr3Z/BnQNbQMt9VUDoLJLBPWudQJ0Rgz89l43BFfFrQDLkrUDgOojBHPuBQKcSx0C4RpPB
kFlPQIz9c0CnfaTB

>  <OMEGA_E>  (71) 
8IEtPgB2ND5wu7c+cBO6Ps5YHz8=

>  <OMEGA_NBR>  (71) 
    277810

$$$$
50214101
     RDKit          3D

 64 67  0  0  1  0  0  0  0  0999 V2000
    8.6284    7.5502  -18.3340 C   0  0  0  0  0  0  0  0  0  0  0  0
    8.3061    7.8870  -19.6576 C   0  0  0  0  0  0  0  0  0  0  0  0
    7.6141    7.2109  -17.4259 C   0  0  0  0  0  0  0  0  0  0  0  0
    5.9380    7.5972  -19.1595 C   0  0  0  0  0  0  0  0  0  0  0  0
    6.4240    0.8102  -21.5691 C   0  0  0  0  0  0  0  0  0  0  0  0
    4.6610   -0.6799  -20.7699 C   0  0  0  0  0  0  0  0  0  0  0  0
    6.7281   -1.6081  -21.6763 C   0  0  0  0  0  0  0  0  0  0  0  0
    6.9671    7.8714  -20.0981 C   0  0  0  0  0  0  0  0  0  0  0  0
    6.2608    7.2592  -17.8233 C   0  0  0  0  0  0  0  0  0  0  0  0
    5.1497    0.6256  -20.9883 C   0  0  0  0  0  0  0  0  0  0  0  0
    7.2152   -0.3055  -21.9032 C   0  0  0  0  0  0  0  0  0  0  0  0
    5.4482   -1.7946  -21.1168 C   0  0  0  0  0  0  0  0  0  0  0  0
    6.8283    1.4625  -18.0475 C   0  0  0  0  0  0  0  0  0  0  0  0
    4.5238    7.8310  -15.9436 C   0  0  0  0  0  0  0  0  0  0  0  0
    5.3946    6.7015  -15.3641 C   0  0  0  0  0  0  0  0  0  0  0  0
    5.1452   10.2310  -21.2594 C   0  0  0  0  0  0  0  0  0  0  0  0
    6.6449   10.4568  -21.5809 C   0  0  0  0  0  0  0  0  0  0  0  0
    5.2490    7.9345  -22.0939 C   0  0  0  0  0  0  0  0  0  0  0  0
    6.7258    8.0171  -21.6103 C   0  0  1  0  0  0  0  0  0  0  0  0
    5.1545    6.8009  -16.8823 C   0  0  0  0  0  0  0  0  0  0  0  0
    7.1188    0.3317  -17.0656 C   0  0  0  0  0  0  0  0  0  0  0  0
    4.3337    1.8236  -20.5431 C   0  0  0  0  0  0  0  0  0  0  0  0
    4.9965    4.5486  -17.8449 C   0  0  0  0  0  0  0  0  0  0  0  0
    5.0934    2.6348  -19.4650 C   0  0  1  0  0  0  0  0  0  0  0  0
    4.2124    3.7611  -18.9030 C   0  0  2  0  0  0  0  0  0  0  0  0
    5.5037    1.7353  -18.3716 N   0  0  0  0  0  0  0  0  0  0  0  0
    4.2733    5.7840  -17.4797 N   0  0  0  0  0  0  0  0  0  0  0  0
    7.7583    1.9999  -18.6401 O   0  0  0  0  0  0  0  0  0  0  0  0
    4.5882    9.2294  -22.1377 O   0  0  0  0  0  0  0  0  0  0  0  0
    7.2893    9.2589  -22.0907 O   0  0  0  0  0  0  0  0  0  0  0  0
    3.8538    4.6314  -19.9764 O   0  0  0  0  0  0  0  0  0  0  0  0
    8.4470   -0.1264  -22.4313 F   0  0  0  0  0  0  0  0  0  0  0  0
    4.9809   -3.0443  -20.8981 F   0  0  0  0  0  0  0  0  0  0  0  0
    9.6598    7.5522  -18.0136 H   0  0  0  0  0  0  0  0  0  0  0  0
    9.0920    8.1609  -20.3459 H   0  0  0  0  0  0  0  0  0  0  0  0
    7.8697    6.9120  -16.4201 H   0  0  0  0  0  0  0  0  0  0  0  0
    4.9037    7.6467  -19.4663 H   0  0  0  0  0  0  0  0  0  0  0  0
    6.7918    1.8081  -21.7571 H   0  0  0  0  0  0  0  0  0  0  0  0
    3.6825   -0.8243  -20.3362 H   0  0  0  0  0  0  0  0  0  0  0  0
    7.3357   -2.4637  -21.9312 H   0  0  0  0  0  0  0  0  0  0  0  0
    3.4367    7.8279  -15.7753 H   0  0  0  0  0  0  0  0  0  0  0  0
    4.8928    8.8673  -15.9376 H   0  0  0  0  0  0  0  0  0  0  0  0
    6.3867    6.9292  -14.9469 H   0  0  0  0  0  0  0  0  0  0  0  0
    4.9306    5.8898  -14.7846 H   0  0  0  0  0  0  0  0  0  0  0  0
    5.0445    9.8954  -20.2167 H   0  0  0  0  0  0  0  0  0  0  0  0
    4.5991   11.1762  -21.3948 H   0  0  0  0  0  0  0  0  0  0  0  0
    6.7282   11.2515  -22.3369 H   0  0  0  0  0  0  0  0  0  0  0  0
    7.1599   10.7705  -20.6609 H   0  0  0  0  0  0  0  0  0  0  0  0
    5.2357    7.5007  -23.1047 H   0  0  0  0  0  0  0  0  0  0  0  0
    4.6920    7.2806  -21.4069 H   0  0  0  0  0  0  0  0  0  0  0  0
    7.2629    7.1908  -22.0988 H   0  0  0  0  0  0  0  0  0  0  0  0
    8.2027    0.1475  -17.0280 H   0  0  0  0  0  0  0  0  0  0  0  0
    6.7600    0.6139  -16.0648 H   0  0  0  0  0  0  0  0  0  0  0  0
    6.6031   -0.5821  -17.3958 H   0  0  0  0  0  0  0  0  0  0  0  0
    4.1394    2.4706  -21.4113 H   0  0  0  0  0  0  0  0  0  0  0  0
    3.3781    1.4741  -20.1251 H   0  0  0  0  0  0  0  0  0  0  0  0
    5.1226    3.9241  -16.9482 H   0  0  0  0  0  0  0  0  0  0  0  0
    5.9847    4.8135  -18.2491 H   0  0  0  0  0  0  0  0  0  0  0  0
    5.9855    3.0822  -19.9275 H   0  0  0  0  0  0  0  0  0  0  0  0
    3.3160    3.3233  -18.4394 H   0  0  0  0  0  0  0  0  0  0  0  0
    4.7870    1.2951  -17.8308 H   0  0  0  0  0  0  0  0  0  0  0  0
    3.5578    5.5530  -16.8203 H   0  0  0  0  0  0  0  0  0  0  0  0
    3.8559    6.1663  -18.3041 H   0  0  0  0  0  0  0  0  0  0  0  0
    3.3683    4.1437  -20.6314 H   0  0  0  0  0  0  0  0  0  0  0  0
  1  2  2  0
  1  3  1  0
  2  8  1  0
  3  9  2  0
  4  8  2  0
  4  9  1  0
  5 10  2  0
  5 11  1  0
  6 10  1  0
  6 12  2  0
  7 11  2  0
  7 12  1  0
  8 19  1  0
  9 20  1  0
 10 22  1  0
 11 32  1  0
 12 33  1  0
 13 21  1  0
 13 26  1  0
 13 28  2  0
 14 15  1  0
 14 20  1  0
 15 20  1  0
 16 17  1  0
 16 29  1  0
 17 30  1  0
 18 19  1  0
 18 29  1  0
 19 30  1  0
 20 27  1  0
 22 24  1  0
 23 25  1  0
 23 27  1  0
 24 25  1  0
 24 26  1  0
 25 31  1  0
  1 34  1  0
  2 35  1  0
  3 36  1  0
  4 37  1  0
  5 38  1  0
  6 39  1  0
  7 40  1  0
 14 41  1  0
 14 42  1  0
 15 43  1  0
 15 44  1  0
 16 45  1  0
 16 46  1  0
 17 47  1  0
 17 48  1  0
 18 49  1  0
 18 50  1  0
 19 51  1  6
 21 52  1  0
 21 53  1  0
 21 54  1  0
 22 55  1  0
 22 56  1  0
 23 57  1  0
 23 58  1  0
 24 59  1  6
 25 60  1  1
 26 61  1  0
 27 62  1  0
 27 63  1  0
 31 64  1  0
M  CHG  1  27   1
M  END
>  <OMEGA_C>  (72) 
+g0KQVyb8UAirJLBwuUEQelh/EDKQp3BG6fzQAzA5kBQaIvBGwS+QG8c80CfRpnBmJHNQNBoTz+R
jazBCCeVQNgQLr+wKKbBPkzXQMzVzb8Raa3BTPLeQIji+0DpyKDByljIQK1L6EAflo7BGsqkQB8m
ID8S6KfB1+LmQEJvnL7WOa/Bi1euQH215b8376jBC4HaQIMzuz9aYZDB7cKQQLyX+kDVGH/BvaCs
QAZz1kA+03XBuKWkQC6yI0FYE6rBaaPUQD9PJ0HDpazB9PenQJ/n/UBmwLDBsjnXQBpGAEHN4azB
Y/GkQA2h2UADD4fBns3jQK7PqT5phojBo62KQM1r6T9bWKTBg+OfQECOkUBpwo7BDP2iQHSgKEBi
uJvBwcuGQH21cEBMOZfBaB6wQCAf3j8g+ZLBnL6IQCUWuUBn1ovBu0P4QCL7/z/UHpXBdNKSQKGr
E0EEGrHBGkLpQIskFEHMubDBz6R2QBM0lECYz5/BGScHQUJ7Ab5cc7PBsWOfQObVQsA8L6fBdI4a
QbOr8UDhG5DBv3gRQd+SAkFuxKLB9dT7QEQv3UBaXIPBDOucQASy9EAKu5vBiVbZQJVv5z9+Dq7B
4K1rQEIHU7+bsKLBPb7qQBSuHcAkc6/BkvNbQFR++kC2Z3zBw5GcQFTgDUF1AH/Bdl/MQM+73UBl
Jm/BfMedQHx5vECmjWzBVGyhQKhTHkHiu6HBbyuTQJ7RMkGmKKvBpE3XQE0GNEELsrLBPx7lQB5U
LEGgSaXBJ4unQL0F8EBr1rjBlCSWQGf66EBUQavBDmroQPca5kBNyrDBJj4DQQMQFz5GOYjBG1LY
QFsrHT/QhIDBYUzTQGkDFb+yKovB7XWEQAQeHkBOSqvBGTNYQMywvD85AKHBAuyjQLMke0DrlYfB
gYK/QCIImkA6/pHBgYm/QKFCRUCYa5/BoDlUQMmwVEDsg5PB4i6ZQObGpT94pY7BNbNjQHOysUD3
j4bB4sd2QDdSxUDQbpLB85JXQCaZhEACDaXBuU0LQR5f6kDqXZPBBhQGQTcfAEGv15zB8CL2QAPc
3UB1NYzBHZfAQHgg/UB99JfBXfjMQOt0ST8BPa3BY0aWQKVPM78B76XBjDfXQM7X0L+Oz63BqhLh
QAeSBEESN5/BswDLQNem50CXdo7BUhGlQEWvGj+BIajBsQHmQHc2qb4uD7DBvUSvQNVw6L8AzKjB
bM7ZQHJRvj/kB5DBQLqSQBEP+kA/cX/BBdKuQMji1UA3KnbBoCmMQAbQKUHR767BAYiyQDAwNUGe
36nBL7ayQJmLCEEmka/B0hPWQH/iEkFXb6jBnTmnQEch2UA+K4fB4uLiQAy+uz4vEIjBGvOKQOb7
5j//l6TBReahQMAhkkBpd4/B6RajQFEdJ0BT7JvBCg6HQOorb0CUUJfBmr6vQO442j+tLpPBr+CK
QLdFuUDWMozBgsP3QAOeBEDNTZTBeUScQDm0GEGFiLXBtjfIQHlFJkE1JqPBaOhwQIY0kkAY2J/B
pBEGQXVgH75V+rTB2fKgQIkhRMCFs6bB9tAbQTsl40CYkpHB+I4SQVQWBUE5R6LBpET+QFC+zEC/
+4TBL5WfQOhCAkHtuZnBaUrYQDJU5D9F+67BZXxvQI3vV7/6DKLBRoHqQNE1H8BL7q/BU9lfQAjL
+UBjz3zBmF+eQE+jDUHcVX/BgIPOQGJI3UCTdW/BkhCgQM7Mu0Aa72zBI7tuQMxCI0FLo6jBOrBz
QKcoNUFV3bPBh1LIQDXdOkHILLDBCWunQBviQkFaGKXBna/BQBJ0+kCdK7XBKN2bQJfl/0Bdb6rB
JrfyQGbhFUHcU63BC9YCQTgucD72OofBsAjVQORwID/OPoDBY33UQLm1Eb+U94rBLvmEQL4HHUAx
iqvBPIFYQHSAuj8TTqHBiL+oQJJzfUC5U4jBryXAQHU3m0AoWpPBts2/QAOrQ0BbjZ/BpatXQKK8
UkB7A5PBnJyYQKWrmz9LRo/BWxJoQAs5sUA/+IbBZe16QExoxkBUrZLBDLNPQJGtgUD3r6TB/pML
QeeT50B6WZLBf/gGQT0Y/UAw9ZvBw8r1QNbT20BpX4vBRObBQO0o+0BjkpfBNkaTQDiiPr95FabB
duTMQJyXNz/tN6zB5DDVQK5N2r9aMq3B/TnjQOI/A0GOoJ7B2xDLQH0M5kCp943BtsujQNadDT8r
sKfBRturQDSO778b5KjBP6nlQKJi0r7e4K7B+PvbQGtewj8cy5DBb2uRQMc0+kABln/BfkKsQN3W
1UB8l3XBu8iTQD+RKkEmZq/BVAS6QDbVNEH/sKnBFiK2QDwfCEGtLa/BVp3ZQFC6EUEe3afBpUGm
QAF02ECi8IbBgqvmQNrVBj/h6YfB3NOJQNXa4T+oTqTB+B2hQAQJkkDWjI/BY6yiQP9nJ0D5C5zB
CI+GQJB+b0BfgZfB5zixQNT/3z8XOZPBA/yJQIjuuED3JYzBTcr4QIZuCkAoBZXBPEKjQJC3GEHZ
m7XBjEbMQLNLJUHxraLBeT1xQChwkkAfGKDBtbqbQFtDR8BbeKfBFqIGQSiBgL7bCrPBQvIbQdIM
4EBUUZDB08gTQWYvA0E5RaHBROj8QLD/ykDzCYTB8SuhQMxlAUFOlpnBtX1nQHq3X78ns6LBQFHZ
QAPE2j9qpK3BTj/oQFWGJMAtNa/BmO9cQDOi+kCbgn3BFaadQFSbDUGPjH/BcaTLQMrj3EA1cW7B
J3acQFZPvEBBZ2zBl8B4QMLuJEEWdqnBi4iEQOFZNkFZtbTBDvjRQE3uOUFhna/BRjyvQK3JQkFA
DqXBx1DEQCDX90C/b7TBAEGdQFa5AEHbK6rBI7z2QPpdFEHKoKzB6rAEQVgECD8/dIbB6cfVQMnU
UD8OjIDB04rcQEz59r6/VYrBSO6CQNVZGEAnZKvB2i1XQLKDtj8vtaDBq/enQBeJfEAbeYjBkl6/
QP5zm0A6YpPBIY6+QBkkREBrCqDBZQtWQO86U0BoUJPBVv+aQAa5pj9It47Brg9mQKGEsECB/IbB
42p5QA6CxkBwlpLBBGRQQA4AgkCQ/qTBPRQLQac/5kB7DpLBATQGQf7i/kBuLJvBk0X1QDaI2UCo
CovBy/TAQMHy/EAXZJbB8Q/HQOxSND/6F63BI/OVQJTkUL/6+qPBjZrVQNOF2L9I4KzBU4PhQOsQ
BUE5Y53B7bHKQLln5UBkRY3BKX+hQGru/D7tD6fBvzXhQHz4xL7E6q/BceqvQI0y9L/m76bB4OPc
QNQP0T8MlJDBZjqQQCrU+UAZUn/BG3WqQKy01UCaqHTBQ/2wQCqOIUFwu7nBi9KbQGUWJkEq3a7B
rfLqQMHWDkHP87DBA8TWQJW8FEEAIqbBdtOlQGeG10Cue4bBmSXpQD7oKj/voofBDviGQN1L1z9e
eaPBmXKhQPKZkkCB34/BxJChQMYPJkAqBZzBtWqGQCaJcED1tpfBnMexQL+s5T8y/JLB4duJQDWH
uEC0AozB3//4QDoYCUBmFpbBkt3eQM1LH0EwdLjB3taoQMXDFUGXkqfB5rRyQNeHkkD+eKDBMdQC
QaBAMb6Ye7XBFfukQOxmSsDh+KPBIW4bQX4c3UBecpDB19kSQZ+WBEEGeKDB9J78QLfVxkDoAoTB
BhegQFWTAkF1GpjBqcHPQBgR2j8cjK/BS3ZyQDwwe7/4W5/BcZfpQO7GIcDBGK/BhFhaQPFh+kAY
wH3BXIScQCRoDUETZn/BdHLJQJXv3ECbIm3BWhqaQD+BvEChfGvBX8yjQDurEkHFEr3BRlGqQA7m
LkEJOb/BuxmmQArTNUFe4KvBcpdxQHTnJUE8u6/BZv8GQTYqDkHQNLDBfOLeQIpv/kBpqbPBnbzi
QD2cJEEsyqPB0RMGQY+eDj+RY4fBr8HdQGzxhz+w3H/B7lraQHMWoL42JInBy515QDdxEECPiKrB
HSpVQOAxqT8eJJ/BjPWpQO7NfEDJ/IjBt8u+QM02nUCL8ZPB5J28QCpjQEDSlqDB8tRUQGaQVkDy
e5PBmmOcQMxDqz9kSY7BnUZmQLrgrkCC64bBZYJ4QC0Nx0CJRpLBbUBRQDEUgkAvTqXBEiUJQVCy
70CYE5PBzGYCQffPAEFI3JzBR83zQGIQ4kABhYvBu4K6QFfu+EAYdpfBLQeQQFWQPr8MjaXBcszL
QKmTGj+fDqzBd3/QQHBt6r8UU6zBwIbYQMq8AkHgI5/BsNDHQAVv50DVtI3BfF2iQHJUBT//lafB
v/mmQIaJ9b+A/KfBlvXiQGEMEr/PUK7B4wvcQEZXzD9tjpDBQmOQQDuG90CU3H3BLFatQNgV1EAQ
i3TBfQT3QObQL0GV86zB01H1QEgkH0HR9rXB0bKwQDipIEE+lajBj5vHQI+dCkHky6nB05WlQD8E
10AuWIbB0z3mQEcoDj+oAojBWyaKQHqA5D+3oaTBPCmiQOa6kUBIoY/BoqWjQI95KEBXd5zBVx+I
QLrGcUAQ/ZfBX5yxQHbI4j+WjpPBB+CJQPXStkDWh4vBiV/5QJZ5CUBDXJXBK1HNQN3dMkFgKqjB
vWjpQPOACkEtwbHBanB4QAyvlEAzjaDBXzyVQHRHSMDFHabBEIgFQRJ++b7GUbLBKQIaQY9r7EDo
YJHB9hgOQXw2BkFwnqLBWP/9QDGY00BLGYTBNMaYQLjG/EAwEpnBSMFgQELzT7+5H6LBuLrZQALi
yD/Rvq3BOi3iQM3VLsCxH67BtDZbQEx39kC7NHvBiUGbQJCADEFG0n3B4N7MQFRC3EAd4G3BsTif
QIC4uUCSQmvB8cEGQYlTKkHcw6bBABYBQV8kP0FjQrDBqZXdQNsoJEFy9bvB0YEKQX73HUFBv7nB
bhWbQOHIIkFkcq/B6+WdQOxdIEENJaHBNP2uQGBO/kA2Y6zBfJEEQQHK4D4EU4fBfhnZQLFHYj8T
SIDBtNTXQOTv0L6iQorBwcSEQEFuGEDZ5qvBDUxWQMkNwT/sGaHBR96pQEmNeEC/7IjB0fi/QD4o
nUARVpPB08G/QH7jQ0BBgaDB4BVXQIyhVkCrIZTBuCObQMNGpD+PaY/BV/doQPRorEBILobBjDZ1
QIOxxECQpZHBtD9YQDAghUCSsaXB

>  <OMEGA_E>  (72) 
FG0GP0RjCD/csAk/qEgNP7bHBT8=

>  <OMEGA_NBR>  (72) 
    283250

$$$$
50214104
     RDKit          3D

 63 66  0  0  1  0  0  0  0  0999 V2000
    8.6506    7.2245  -18.4634 C   0  0  0  0  0  0  0  0  0  0  0  0
    8.3705    8.0914  -19.5339 C   0  0  0  0  0  0  0  0  0  0  0  0
    7.6214    6.8213  -17.5963 C   0  0  0  0  0  0  0  0  0  0  0  0
    6.0141    8.1181  -18.8982 C   0  0  0  0  0  0  0  0  0  0  0  0
    6.4298    0.7846  -21.5705 C   0  0  0  0  0  0  0  0  0  0  0  0
    4.6754   -0.7001  -20.7427 C   0  0  0  0  0  0  0  0  0  0  0  0
    6.7391   -1.6343  -21.6499 C   0  0  0  0  0  0  0  0  0  0  0  0
    7.0603    8.5687  -19.7418 C   0  0  0  0  0  0  0  0  0  0  0  0
    6.3018    7.2671  -17.8125 C   0  0  0  0  0  0  0  0  0  0  0  0
    5.1583    0.6038  -20.9821 C   0  0  0  0  0  0  0  0  0  0  0  0
    7.2226   -0.3334  -21.8939 C   0  0  0  0  0  0  0  0  0  0  0  0
    5.4630   -1.8169  -21.0809 C   0  0  0  0  0  0  0  0  0  0  0  0
    6.8215    1.4327  -18.0497 C   0  0  0  0  0  0  0  0  0  0  0  0
    5.3908    8.3966  -22.3305 C   0  0  0  0  0  0  0  0  0  0  0  0
    6.8172    8.8907  -22.2272 C   0  0  0  0  0  0  0  0  0  0  0  0
    4.5412    7.8165  -15.9663 C   0  0  0  0  0  0  0  0  0  0  0  0
    5.4331    6.6885  -15.3990 C   0  0  0  0  0  0  0  0  0  0  0  0
    4.5905    9.4857  -21.6012 C   0  0  0  0  0  0  0  0  0  0  0  0
    6.8232    9.5769  -20.8633 C   0  0  1  0  0  0  0  0  0  0  0  0
    5.1853    6.8002  -16.9070 C   0  0  0  0  0  0  0  0  0  0  0  0
    7.0966    0.3097  -17.0547 C   0  0  0  0  0  0  0  0  0  0  0  0
    4.3411    1.8048  -20.5470 C   0  0  0  0  0  0  0  0  0  0  0  0
    5.0222    4.5589  -17.8880 C   0  0  0  0  0  0  0  0  0  0  0  0
    5.0955    2.6189  -19.4676 C   0  0  1  0  0  0  0  0  0  0  0  0
    4.2114    3.7402  -18.9002 C   0  0  2  0  0  0  0  0  0  0  0  0
    5.5005    1.7229  -18.3702 N   0  0  0  0  0  0  0  0  0  0  0  0
    4.3083    5.8014  -17.5346 N   0  0  0  0  0  0  0  0  0  0  0  0
    7.7570    1.9441  -18.6562 O   0  0  0  0  0  0  0  0  0  0  0  0
    5.5255   10.2113  -20.7541 O   0  0  0  0  0  0  0  0  0  0  0  0
    3.7933    4.5835  -19.9731 O   0  0  0  0  0  0  0  0  0  0  0  0
    8.4527   -0.1583  -22.4275 F   0  0  0  0  0  0  0  0  0  0  0  0
    4.9992   -3.0649  -20.8458 F   0  0  0  0  0  0  0  0  0  0  0  0
    9.6581    6.8680  -18.3073 H   0  0  0  0  0  0  0  0  0  0  0  0
    9.1639    8.3937  -20.2013 H   0  0  0  0  0  0  0  0  0  0  0  0
    7.8414    6.1694  -16.7638 H   0  0  0  0  0  0  0  0  0  0  0  0
    4.9967    8.4269  -19.0876 H   0  0  0  0  0  0  0  0  0  0  0  0
    6.7941    1.7810  -21.7726 H   0  0  0  0  0  0  0  0  0  0  0  0
    3.7006   -0.8416  -20.2997 H   0  0  0  0  0  0  0  0  0  0  0  0
    7.3468   -2.4917  -21.8991 H   0  0  0  0  0  0  0  0  0  0  0  0
    5.0771    8.3131  -23.3815 H   0  0  0  0  0  0  0  0  0  0  0  0
    5.2739    7.4218  -21.8344 H   0  0  0  0  0  0  0  0  0  0  0  0
    7.5319    8.0550  -22.2563 H   0  0  0  0  0  0  0  0  0  0  0  0
    7.0521    9.6022  -23.0326 H   0  0  0  0  0  0  0  0  0  0  0  0
    3.4546    7.7975  -15.7959 H   0  0  0  0  0  0  0  0  0  0  0  0
    4.8961    8.8576  -15.9542 H   0  0  0  0  0  0  0  0  0  0  0  0
    6.4240    6.9251  -14.9840 H   0  0  0  0  0  0  0  0  0  0  0  0
    4.9826    5.8649  -14.8257 H   0  0  0  0  0  0  0  0  0  0  0  0
    4.1335   10.1702  -22.3310 H   0  0  0  0  0  0  0  0  0  0  0  0
    3.8027    9.0265  -20.9860 H   0  0  0  0  0  0  0  0  0  0  0  0
    7.6206   10.3343  -20.8432 H   0  0  0  0  0  0  0  0  0  0  0  0
    8.1768    0.1046  -17.0219 H   0  0  0  0  0  0  0  0  0  0  0  0
    6.7504    0.6125  -16.0554 H   0  0  0  0  0  0  0  0  0  0  0  0
    6.5605   -0.5980  -17.3690 H   0  0  0  0  0  0  0  0  0  0  0  0
    4.1532    2.4486  -21.4189 H   0  0  0  0  0  0  0  0  0  0  0  0
    3.3825    1.4584  -20.1335 H   0  0  0  0  0  0  0  0  0  0  0  0
    5.1764    3.9594  -16.9787 H   0  0  0  0  0  0  0  0  0  0  0  0
    5.9972    4.8149  -18.3282 H   0  0  0  0  0  0  0  0  0  0  0  0
    5.9883    3.0689  -19.9261 H   0  0  0  0  0  0  0  0  0  0  0  0
    3.3426    3.2948  -18.3935 H   0  0  0  0  0  0  0  0  0  0  0  0
    4.7804    1.2973  -17.8221 H   0  0  0  0  0  0  0  0  0  0  0  0
    3.5715    5.5767  -16.8969 H   0  0  0  0  0  0  0  0  0  0  0  0
    3.9196    6.1951  -18.3676 H   0  0  0  0  0  0  0  0  0  0  0  0
    3.2913    4.0749  -20.5991 H   0  0  0  0  0  0  0  0  0  0  0  0
  1  2  2  0
  1  3  1  0
  2  8  1  0
  3  9  2  0
  4  8  2  0
  4  9  1  0
  5 10  2  0
  5 11  1  0
  6 10  1  0
  6 12  2  0
  7 11  2  0
  7 12  1  0
  8 19  1  0
  9 20  1  0
 10 22  1  0
 11 31  1  0
 12 32  1  0
 13 21  1  0
 13 26  1  0
 13 28  2  0
 14 15  1  0
 14 18  1  0
 15 19  1  0
 16 17  1  0
 16 20  1  0
 17 20  1  0
 18 29  1  0
 19 29  1  0
 20 27  1  0
 22 24  1  0
 23 25  1  0
 23 27  1  0
 24 25  1  0
 24 26  1  0
 25 30  1  0
  1 33  1  0
  2 34  1  0
  3 35  1  0
  4 36  1  0
  5 37  1  0
  6 38  1  0
  7 39  1  0
 14 40  1  0
 14 41  1  0
 15 42  1  0
 15 43  1  0
 16 44  1  0
 16 45  1  0
 17 46  1  0
 17 47  1  0
 18 48  1  0
 18 49  1  0
 19 50  1  6
 21 51  1  0
 21 52  1  0
 21 53  1  0
 22 54  1  0
 22 55  1  0
 23 56  1  0
 23 57  1  0
 24 58  1  6
 25 59  1  1
 26 60  1  0
 27 61  1  0
 27 62  1  0
 30 63  1  0
M  CHG  1  27   1
M  END
>  <OMEGA_C>  (73) 
D2kKQfQu50D6tJPBk+0FQUp2AUFVRZzB4+LzQOZH2kBKxYzBgXPAQKDjAUGPL5fBq8DNQNfcSD93
kKzBeZyVQGg5M78f8aXBBqfXQDcx0b//Mq3BM+7hQDkZCUEe753BJajJQCuM6EAUgI7BuBClQOKT
Gj9r26fBlB/nQAe5qr6wJq/B/tCuQE6Q6L+2pajB1EnaQCZjtz/hZZDBuYGsQElYBkHWpLLBpCba
QGhADkFI0bHBh1GRQIUg+kDEdX/B7dutQHMI1kA2YnbBN+WSQGfFF0Exz6zBCljaQNI6GUEY6KbB
zO2lQIyb2UBxQYfBIRfjQL+Tnj4DcIjBdeqKQN4C5z86YKTBlLWgQLzikUCkGo/BVw6jQKybJ0CO
vZvBxsOGQMNfb0CzM5fByAOwQH6H3D8V9pLBRd2JQK2kuUDcRozBrzn4QOXY+D/4P5XBzdCwQIph
I0FbCKbBUMVyQMmrkkDmyJ/BNj4HQYIfIr57a7PBr/mfQDYnRMA8xKbBqIcaQQ3H20BXdZLBgp8S
QaZMBkE0nKHBv+z6QCBsxUA6HIbBteSfQJvUBkFds5jBNGnZQCn54z80Lq7BBNdsQHRwV7/AZaLB
NRnrQE53H8BFMa/BiXeiQIUCBUFJDbvBgsOoQAJ/7UDkrK7BFAXxQE/hAEHpDLLBbKrhQLKiGUGv
QrjB4RhdQLaE+UDlu3zBlKycQK64DUF/RH/BO5HNQC6a3UB7vm/BF3GfQIitu0DiNW3B7EWEQEu5
IkHQpbLB1l5zQGJsEEFM46fBPdzzQG9ZJUHPvqbBHdQCQUNH1j3ELIjBhQPYQPjKHD+FcYDB9e/R
QL4TGb+384rBseaEQDu1HEDhWavBInpYQMesuj9hEaHBzaSlQG1mfUB41IfBQOm/QJcTmkAZoJLB
jaC/QNpoREC9aJ/Bq+1VQJPdUkDTJZPBS/mYQEINpj+Rk47Bu5JkQDl0skDgLIfBWtt6QEU+xkDm
8JLB4aRSQGBlgkDmyqTBHcIIQb/V8ECnRZTB4toBQd+a+0Dio57Bm3XzQAaB5kAwUYzB1KO5QF87
80AcBpnBpKvOQDozSj9YhKzBss6UQPkBKL8QSqbBKwXXQNxP0b/uEK3BaX7XQAZn/EBTIaHBSVDH
QE1F6EA0qY7BEVelQDA6Iz/7GajBzZDnQAi+sL7i6q7BfpCtQC4q5b/7zqjBiD3ZQHR/uT8yUZDB
xUK5QF4gJkGLHq3BkdWiQOSdEEFIwq3BEEiSQKc9+kApcX7BP56vQB/f1kD5e3XBpJ/mQIxuIUEj
VbHBbRbIQGjVAEGLsazBSN6lQK0f2UAFxYbBQA7hQPcaoj5vYojBULCLQEzl7T8px6TBEcmgQCp6
kUDo1I7BPYmjQFzLKUBT+JvBHp2HQAVmckBXepfBaVGvQN6w3j+nNJPBLlmJQK0fuEC+UovBs8P3
QBgc/D/03pTB8anoQF+KCkFKRbPBQtV5QD2hlUAGAaDB98EHQbCESb635rLB17SdQLnTQcAjB6fB
/qIZQUSB8EAPbJLBSHoNQaanAUGZvKTBVx3+QMw83UBnboTBWdSXQCmg9EB/x5rBPTHbQEyU4z++
Da7BxUZqQFPeRr+f96LBYh3qQLVYIMAb6a7BawypQDUJMkGhLLLBTV+6QH3uK0EB0aTB9sGLQAKp
DkGuL6fB/kiSQC6oDkGwdrXB9IFfQPWX+UCwCHvBFnOdQD/ODUE23n7Bw8DPQKXy3kApi2/Bpw6i
QBzuvECjtWvBRF/sQHlCKkEEz7jBgqn+QHwbJkElWKvBI4++QE5W4kDL66/B4soBQQkC6T2t2IfB
IODUQEibGz+zdoDBXlXQQNHEFr+mHovBqeiGQDJ9IEAMyKvBBdVYQLZpxD81rqHBn62lQBqWeEA1
6YfBewTAQA4Tm0ADG5LBcaXAQA7FRUBJeJ/B1h5VQHbhVkCa5JPBmbmXQDe4pj/5FY/BBftnQH6g
r0DrwYXBiix0QHGRxEANoZHBybtaQAaFhkDCVKXBwpEHQQwn7EDd4ZXBdkv/QOpBAkGegp7BKDDz
QPpi3kCpw43BaYm3QAAyAEEfEpfBGkzPQGgoOT+RWqzB7RCTQK7HJL+uY6bBBCfVQDDr2r8IVqzB
vTLTQDPCB0Hj/p7BZFPHQFuf6EB+c47B2DalQK9nID9nSqjBslHnQHBW477WSa7BG/OqQByh57++
cqjBWi3YQA5otj9ASpDBUsfpQDTVD0E3qrfBYCbfQEiPIEEwJ6/BrXKTQDPQ+EC4AX7BalGyQLZM
1kAURnXB1iTHQHX+/EC8UbbB+ye/QM4bFUFM56fBdXSnQMkO2EDbjYbBRoneQNyktT4lvofBtJuM
QPm88D8yRqXBUsiiQFeskUARTI/BfjekQDbAKUD9TJzBBriIQIf3ckB0yZfB6rquQLYc3T9ogZPB
bBqLQABLt0AvQYvBEHP3QBPg8z+ozpTBjtCnQLJUB0EZEa/BQtF6QNDdlUApRaDBoQEIQeT2sr6m
47HBOI2ZQOSQQcB8i6bBhFoYQSIS5EAQgpXBiF4KQYVtB0H7xaTBlTP/QEgmzEBeEYfByrOVQDCN
A0HjmpfBww7dQOiy2D8/+q3B6J5lQC+7OL/FWaPBQZTnQK23JsDi0a3BC07oQEvnFkERt7/BCeoE
QZYUCUHJTrbBkPr7QEkyJUHbqqrBpq/QQNXbLkEFy7LBsTNiQB4u90BAPnrBpZWdQJc/DUEXqX7B
o3XSQPdf30ABt2/B1/mlQOcOvEArTGvBr0e4QHGi9UDFFL7BDC7VQJOv30DO77LB3IapQH4EIUFh
VaTBz3QAQTXFGj6Mx4bBWz/RQBFxNT8SGoDBKQbOQPZQEb9ULorBDqaJQOPPIUBoWazBzw9ZQBKQ
zD9KcaLBR5OpQPTvd0CclIjBbxPBQFR2nEBK4JLBmNnBQCfnRECAn5/BTtBXQDLmV0DeB5TB/oeW
QHEqpT8unI/B0/RsQLOGrUCBpYXBqfZ1QK1zxED7VJHBzZxaQAfHhkBZf6XB5CLJQHZ8CUFkTaDB
vuX1QJ9GB0FHZZ/BYU6uQCFpAUHLLJjBSH/sQBxE50COvI7BVvbMQLhkLz+vlKzB4T6RQA4zJL8B
w6XBFE3QQOcy4L/hFK3Bn9ADQUFX+kBqQJbBVlbAQEMH7UDhW4/BjxOkQOpdHT/o0KfB9CTjQLew
/r44JK/BvjmnQN1J6b+8dqjBornXQHuSoz+WEpDBOaA2QUL+FUHaMI/BE4gnQVxbEEGnP5jBG+qS
QLyy9UCK/nvBzG21QH8Q1EDHrnbBSaIpQY68D0GHZYXB26gbQYjN+EDXDJTBMKSkQL4c2UBk3IbB
sOrbQIp7ZT65TofBXAWNQNfn8D8Ll6TBrw2kQCb0kUD86I7BzwKmQLjNKED2yJvB8IeLQD+5dEAY
spfBBxCvQGqd3T/rwZLBRTmKQE1mtkCMFYvBglD3QAWGyz9xVZXBC3MfQeH090BkcYjBPIGDQA8W
l0DoWKDBez4FQX2j276rmrPBBOOUQAWaQcAKnqbBRnG7QOxVEUE8MqfB7EsFQXBADUEFo6XBIROM
QFqNA0HcsJjB0N35QD/t00BjZ4jBvDnbQGa10j//Qq7Bau1jQLZcMr+cHaLBPljhQLQlKsDdCq/B
noxFQXS3DEGgsI/Bq2U6QS4vJ0FKKY/BoEYcQbqEHUE60ZnB5nUwQYKkDEHlmZ/BR81jQEcy8UBq
UXbBxviaQJf6C0EvrXvBAyHWQFhG3kDionLB4Q6tQHKDt0AdR23Bshs0QUVUDUEM23zBpaIdQfIO
HEEth4PBDokiQcMU3EDVzJfBszP9QIv5Bb5Q8YbBlvjSQCFLKj/8H3/Bn5bGQIU2H7+mGInBZsOJ
QLkmIkAjoqvBgSJaQOmozz8BiqHBsVeqQIrmd0BBOYjBw5jCQJbInUASIpLB2S7EQP3OQECVLp/B
5HVaQHGeXEDlYZTBS2qWQHs/tj+vSY7Btl5tQM8jrEB+SoXBArFxQOulwUBNL5HB/YZoQKuNiEAM
1KXB

>  <OMEGA_E>  (73) 
8GPkPnh17z7wTOQ+lkonPw==

>  <OMEGA_NBR>  (73) 
    287620

$$$$
50214108
     RDKit          3D

 73 76  0  0  1  0  0  0  0  0999 V2000
    8.4730    7.5671  -18.6216 C   0  0  0  0  0  0  0  0  0  0  0  0
    7.9402    8.1446  -19.7884 C   0  0  0  0  0  0  0  0  0  0  0  0
    7.6109    7.0750  -17.6243 C   0  0  0  0  0  0  0  0  0  0  0  0
    5.6942    7.7637  -18.9534 C   0  0  0  0  0  0  0  0  0  0  0  0
    6.4372    0.7610  -21.5523 C   0  0  0  0  0  0  0  0  0  0  0  0
    4.5935   -0.6318  -20.7570 C   0  0  0  0  0  0  0  0  0  0  0  0
    6.6580   -1.6672  -21.5422 C   0  0  0  0  0  0  0  0  0  0  0  0
    6.5352    8.2032  -19.9696 C   0  0  0  0  0  0  0  0  0  0  0  0
    6.2046    7.2104  -17.7705 C   0  0  0  0  0  0  0  0  0  0  0  0
    5.1341    0.6429  -21.0205 C   0  0  0  0  0  0  0  0  0  0  0  0
    7.2010   -0.3934  -21.8036 C   0  0  0  0  0  0  0  0  0  0  0  0
    5.3517   -1.7853  -21.0262 C   0  0  0  0  0  0  0  0  0  0  0  0
    5.8699   10.2536  -21.2171 C   0  0  0  0  0  0  0  0  0  0  0  0
    6.7539    1.4164  -18.0619 C   0  0  0  0  0  0  0  0  0  0  0  0
    7.1812   10.6463  -21.8913 C   0  0  0  0  0  0  0  0  0  0  0  0
    7.5542    9.4709  -22.8191 C   0  0  0  0  0  0  0  0  0  0  0  0
    5.4289    8.3008  -14.2504 C   0  0  0  0  0  0  0  0  0  0  0  0
    4.8807    8.9101  -15.5486 C   0  0  0  0  0  0  0  0  0  0  0  0
    6.4156    7.1546  -14.5378 C   0  0  0  0  0  0  0  0  0  0  0  0
    6.5817    8.3263  -22.5009 C   0  0  0  0  0  0  0  0  0  0  0  0
    4.1866    7.8174  -16.3650 C   0  0  0  0  0  0  0  0  0  0  0  0
    5.8000    6.0774  -15.4643 C   0  0  0  0  0  0  0  0  0  0  0  0
    5.8618    8.7375  -21.2208 C   0  0  1  0  0  0  0  0  0  0  0  0
    5.1782    6.6861  -16.7555 C   0  0  0  0  0  0  0  0  0  0  0  0
    6.9644    0.4293  -16.9188 C   0  0  0  0  0  0  0  0  0  0  0  0
    4.3561    1.8809  -20.6395 C   0  0  0  0  0  0  0  0  0  0  0  0
    5.1138    4.5283  -17.9514 C   0  0  0  0  0  0  0  0  0  0  0  0
    5.1156    2.6499  -19.5409 C   0  0  1  0  0  0  0  0  0  0  0  0
    4.2723    3.7927  -18.9865 C   0  0  2  0  0  0  0  0  0  0  0  0
    5.4540    1.7374  -18.4318 N   0  0  0  0  0  0  0  0  0  0  0  0
    4.3525    5.6687  -17.4359 N   0  0  0  0  0  0  0  0  0  0  0  0
    5.1746   10.9693  -20.5064 O   0  0  0  0  0  0  0  0  0  0  0  0
    7.7219    1.9761  -18.5659 O   0  0  0  0  0  0  0  0  0  0  0  0
    3.9142    4.6852  -20.0424 O   0  0  0  0  0  0  0  0  0  0  0  0
    8.4571   -0.2791  -22.2908 F   0  0  0  0  0  0  0  0  0  0  0  0
    4.8279   -3.0063  -20.7789 F   0  0  0  0  0  0  0  0  0  0  0  0
    9.5431    7.5014  -18.4913 H   0  0  0  0  0  0  0  0  0  0  0  0
    8.6002    8.5427  -20.5450 H   0  0  0  0  0  0  0  0  0  0  0  0
    8.0187    6.5941  -16.7474 H   0  0  0  0  0  0  0  0  0  0  0  0
    4.6249    7.8504  -19.0778 H   0  0  0  0  0  0  0  0  0  0  0  0
    6.8471    1.7371  -21.7660 H   0  0  0  0  0  0  0  0  0  0  0  0
    3.5978   -0.7226  -20.3487 H   0  0  0  0  0  0  0  0  0  0  0  0
    7.2432   -2.5537  -21.7375 H   0  0  0  0  0  0  0  0  0  0  0  0
    7.0483   11.5678  -22.4771 H   0  0  0  0  0  0  0  0  0  0  0  0
    7.9668   10.8014  -21.1370 H   0  0  0  0  0  0  0  0  0  0  0  0
    7.4518    9.7728  -23.8719 H   0  0  0  0  0  0  0  0  0  0  0  0
    8.5895    9.1519  -22.6282 H   0  0  0  0  0  0  0  0  0  0  0  0
    5.9480    9.0845  -13.6791 H   0  0  0  0  0  0  0  0  0  0  0  0
    4.5895    7.9095  -13.6569 H   0  0  0  0  0  0  0  0  0  0  0  0
    4.1578    9.7030  -15.3061 H   0  0  0  0  0  0  0  0  0  0  0  0
    5.7093    9.3357  -16.1336 H   0  0  0  0  0  0  0  0  0  0  0  0
    7.3112    7.5702  -15.0227 H   0  0  0  0  0  0  0  0  0  0  0  0
    6.6996    6.6834  -13.5853 H   0  0  0  0  0  0  0  0  0  0  0  0
    5.8606    8.1969  -23.3214 H   0  0  0  0  0  0  0  0  0  0  0  0
    7.1329    7.3871  -22.3458 H   0  0  0  0  0  0  0  0  0  0  0  0
    3.3704    7.3871  -15.7662 H   0  0  0  0  0  0  0  0  0  0  0  0
    3.7732    8.2634  -17.2816 H   0  0  0  0  0  0  0  0  0  0  0  0
    6.5894    5.3680  -15.7534 H   0  0  0  0  0  0  0  0  0  0  0  0
    5.0127    5.5445  -14.9110 H   0  0  0  0  0  0  0  0  0  0  0  0
    4.8228    8.3781  -21.2573 H   0  0  0  0  0  0  0  0  0  0  0  0
    8.0381    0.3541  -16.6917 H   0  0  0  0  0  0  0  0  0  0  0  0
    6.4248    0.7806  -16.0270 H   0  0  0  0  0  0  0  0  0  0  0  0
    6.5819   -0.5592  -17.2131 H   0  0  0  0  0  0  0  0  0  0  0  0
    4.2380    2.5256  -21.5230 H   0  0  0  0  0  0  0  0  0  0  0  0
    3.3644    1.5891  -20.2635 H   0  0  0  0  0  0  0  0  0  0  0  0
    5.3597    3.8459  -17.1245 H   0  0  0  0  0  0  0  0  0  0  0  0
    6.0424    4.8870  -18.4194 H   0  0  0  0  0  0  0  0  0  0  0  0
    6.0385    3.0640  -19.9730 H   0  0  0  0  0  0  0  0  0  0  0  0
    3.3741    3.3819  -18.5021 H   0  0  0  0  0  0  0  0  0  0  0  0
    4.7029    1.3256  -17.9158 H   0  0  0  0  0  0  0  0  0  0  0  0
    3.6761    5.3259  -16.7839 H   0  0  0  0  0  0  0  0  0  0  0  0
    3.8839    6.1063  -18.2033 H   0  0  0  0  0  0  0  0  0  0  0  0
    3.3899    4.2221  -20.6850 H   0  0  0  0  0  0  0  0  0  0  0  0
  1  2  2  0
  1  3  1  0
  2  8  1  0
  3  9  2  0
  4  8  2  0
  4  9  1  0
  5 10  2  0
  5 11  1  0
  6 10  1  0
  6 12  2  0
  7 11  2  0
  7 12  1  0
  8 23  1  0
  9 24  1  0
 10 26  1  0
 11 35  1  0
 12 36  1  0
 13 15  1  0
 13 23  1  0
 13 32  2  0
 14 25  1  0
 14 30  1  0
 14 33  2  0
 15 16  1  0
 16 20  1  0
 17 18  1  0
 17 19  1  0
 18 21  1  0
 19 22  1  0
 20 23  1  0
 21 24  1  0
 22 24  1  0
 24 31  1  0
 26 28  1  0
 27 29  1  0
 27 31  1  0
 28 29  1  0
 28 30  1  0
 29 34  1  0
  1 37  1  0
  2 38  1  0
  3 39  1  0
  4 40  1  0
  5 41  1  0
  6 42  1  0
  7 43  1  0
 15 44  1  0
 15 45  1  0
 16 46  1  0
 16 47  1  0
 17 48  1  0
 17 49  1  0
 18 50  1  0
 18 51  1  0
 19 52  1  0
 19 53  1  0
 20 54  1  0
 20 55  1  0
 21 56  1  0
 21 57  1  0
 22 58  1  0
 22 59  1  0
 23 60  1  6
 25 61  1  0
 25 62  1  0
 25 63  1  0
 26 64  1  0
 26 65  1  0
 27 66  1  0
 27 67  1  0
 28 68  1  6
 29 69  1  1
 30 70  1  0
 31 71  1  0
 31 72  1  0
 34 73  1  0
M  CHG  1  31   1
M  END
>  <OMEGA_C>  (74) 
XZEHQYAl8kAF+ZTB2xX+QElQAkG6Tp7B24zzQCNm4kB3/ozB0ja2QG9w+EB+oJfBjv3NQCrTQj8j
a6zBIf6SQPK6Ib9UDqbBnw7VQBVo1b9/VqzBlyDRQElAA0HJwZ/BSYzGQOq75kDiKY7Bi0qkQLiW
JD/sKajB6m7mQFRwyb7cba7BcEGrQEGE5L+WNajBPNa7QLgOJEGbvKnB3R/YQBJOtT+tfpDBhMzl
QC1XKkFPIa/BA7zxQOmIF0GRjbbBNbmtQCDQBEHKAWTBTy6cQKCPDkE7x3jBXEzNQEjy5EDVmmjB
SZ3SQIE4BUHuAbTB1viFQB8o+kCB64LB2pm5QFF6wkCSbXfBu5O7QLrMC0EjxKnBG7SlQNj01UBc
C4bBkdzeQPPI2z6/WYfBCGWLQLTC8D/BHaXB6qOjQDjokEBsnI/BxrKjQISYKUDHU5zBV7aIQOq6
ckBy5JfBPIeuQLdk3j9XdJPBa0eLQPVltUCffIvBDZalQHCCL0EsDaTBKxr3QCLy/D/ihpTB8YJ6
QHDtlUDFVqDBHFAHQVTgjr6LU7LB+32aQMpnQMAwO6bBg7AYQdML8EBA7pPBaJoJQcGuCEEPXKTB
r0wAQRwD00Cf+oXBHP+TQHA2+0BXn5jBXRvbQPtZ3j+xIK7BdEJmQHb+OL8syqLBmsjnQOhvI8BU
5q3Bp4vhQKUVOUEK0bPBou/+QG7SLEGgGKnBMnXuQEJdHEG4+b7BdW4JQUxuEkF9BrXBoVW+QB5a
EUHK3VrBytySQI8a/UC8glrBvgyFQEo/G0HQ5XTBb7K2QC9fFUGcEYHBN/XpQEM/8kDvXHDBJmPW
QFve1UBFXVnBuom7QK4mA0FTkrrBEEHkQDtj7EAyxLLBGLRXQNBi7EBrQnzBi3xxQME2BEHEQIrB
RNzSQJzGq0D6DXzBJmigQChssUCIk27BSFSaQLcMBkH+DqrB/JsAQVhJtT6CiIXBA5jNQKnWRz9G
N4DBJ5/SQA8pD79jtInBAZ6HQLWjIUAIL6zBwVJXQDVmyz+XG6LB24KrQJcidkD+/ojBP1vBQDVi
nEDjWpPBoDvBQLUYRECvyJ/Bz/FXQOBwWEBmBJTBTH6WQIeuqT+JU4/B0ERrQP1tqkB8RYbBWZF4
QNBmw0BHoJHBd/NYQGEbh0D0eqXBcIUKQeEB7UBX3JLBfkkEQUxJ/kAewJzBwfb1QHX930DAaovB
igq+QEhW9UAyy5fBC9HKQOp1Qj8D9KzBz0WUQE6DL78TC6XBc9rUQL5J1L91wqzBSK7cQCWnAUHJ
PJ/Bf+HJQHX+5ECywo3BRxSjQDZAGj9CvKfB5cLjQA+Mvb7faK/B+PSsQF9f6L98pqfBfzSiQCTT
FUH19qnB4vTaQBp3yD8aR5DBJTaqQAIGLUHK+qzBivvSQKtBLEEqorPBZxapQLtQBEFXjmPBx6Kc
QJzhDkGK23jBJrDHQJDO4kCCH2fBY3buQMESHEGWz63BjzqHQEK8/ECWvYPBZhW1QM7fwUASGXfB
Oc3OQKeMCkFVFarBU5elQA6V1kC/N4bBE+TkQFifAj+j04fB+5GJQFeR6D/mdaTB/MWiQF15kUDs
u4/BI/CiQLKHKECSKJzB5I2HQCz4cEDUqJfBPZOwQOTN4D9vSpPB1fuKQJ0bt0A7A4zBYdt9QOSA
DkEavafBTnP4QMUpB0DxDpXBMY10QHvzk0ABKqDB8fAEQdB1X76mX7TBVUOeQNBGQ8CuRKXBUE0b
QcC26UBs+JDBBE0QQYvlA0HmfKLBdLT/QOMg0kDq4oPB2oScQO0390CC15nBPg/WQCCK3z/EDq/B
EwNsQMIITr+p+6DBXgLoQLKpIcAMpa7BXmuPQPhsM0F+tLHB1cquQJbpNkFtyqXBRCrMQMbzJkFw
2bvBS6XiQCYDPEHQ2LPBQe24QHZAEEGeVFnB6PaLQCj5/EBfklvBzDeGQFwYHEHwxXXBBYe5QK8n
FUFdW4DB7CfmQO0J70BNeG3Bk2bNQHLN0kC7tVfBB1gDQdtKFUF/OLPB5mr+QAiCI0FQ56bBdZlU
QNZ68EBti3/BuJN8QKwuBkFaTYvB4gXOQLQtqkBW03rBpbyZQLi9sUD6f2/BgEbOQAoa+0DIA7DB
+d8DQZKjwj6bL4fBoP/XQK9xVT/YDoDB8BPWQOi54774I4rBnFKDQIs8HEAsiavB4/xVQNNwvz9m
8KDBA5iqQKbYeUC/3IjBr4HAQDXdm0DPqZPBdUK/QH4kREAEFaDBOWBXQHzEVUCnfpPB9+yZQNZt
oj8JM4/BfWJnQOk3rUCQHYfBzyp8QL+ZxUDWX5LBKJhSQLk3hEA5F6XBy8QLQReM7ECgOJLBpLoG
QU3mAkFUIZvBQ8f2QKuO3EBjo4vBL4XBQIRW/ECJWpfBRz7LQKCmTD+mpqzBG+mTQNnoML8HrKXB
ewzWQAujzr8X8KzB2XTiQNohB0E4rZ3BHTTLQKS/5UCu4o3BiMaiQEU4HD8x2qfBXP7kQFL6n77f
Ga/ByWutQH2r5r+QRajBVWDRQKIBAkG/2rDBVObaQBd6xD/AXpDBeTKlQG25BkFTZLXBBo2dQNhZ
HkF42bLBR0mpQFcFBEHiNWTBgO+aQIhvDkEmUHnB7oLIQPfi4kBZOmjBifGwQN5IIUEazqfBbZqG
QG5e+0C9BoTBCBK1QD2gwUAMwHfB9PjYQFiyEkF/CajB4g6mQLlC1kDvn4bBA6rlQKJP6j4ZKYjB
hLKIQF145j/RV6TBZLWiQOKDkEAGqI/BSxSiQE/KJkDy+pvBWb2GQEJBbkAyUpfBh1GwQNHa2z8s
PpPBMt+LQBlOt0BHjYzBITLmQPlR40A8XLLBIvb3QIKqB0AfBZXBDxtwQO9DkkC5wZ/B0hUGQXTe
BL6Jc7PBpgqfQH4jQ8ATK6bBukYcQQBa5UBgaJDBal4TQZxjCUEtDKDBfdb+QBEQyUBgy4TBTpKg
QB35/0AqzJnBS2bWQK0B5j/Rb67BVehpQDXFVb/zAaLB4rzpQPkCHsBC267BApukQL/6A0E9Fb7B
p9WMQMJM+UDQhbHBWKStQE2pKEETvbjBmzt2QAz/IUFNwLLBTju5QLomEEEWQlrBKfiMQDzA+0C1
wFvB/VyDQD4KG0Eu2nXB3OG2QH+DFUFUq4DBATTmQByl70A/NG/BOMPPQLUk00DX6FjBXfy5QPkT
MkE7dKbBCHiaQBwlHEHtiaHB10NUQNkM7kClEIDBjCR6QNF7BUHui4vBemPNQGotqUCTSHvBbF6Z
QCl4skAV+W/BMd70QEh7HEFiPqrBuU4EQbNJtD5fi4fBXYbYQFxaPj/XUoDB65rXQITy/74RsYrB
E9SBQB4YHEDqTKvBY+JUQII1uj/0y6DB+5OpQG5KekAUg4jBlOvAQNcemUB7oJPBbC6+QOk2Q0B1
6Z/BlzdXQLdvUkBP7JLBx/yZQH7Imz/7JI/BAzJmQH3orkCk8YfB1hKBQECJxUBxMJPBnjRNQNI8
gkCxhKTBy78IQQfu7UDw5JTBgucBQWzeBUG3lJzBo+7zQMrh20Cxto3BMqa6QG3iAUHwSZbBK4DM
QIY5Qj/Dg6zBhYKSQBVbKL836KXBBpnUQBU41b+kcKzBxO7XQM6GC0GQQ53BzxLIQMmY50DyK47B
wiajQGJSHz/uGKjBRlDlQIQJxb4Smq7BRh2rQPt65r/gI6jByM/oQEOBI0GjCK3BuKLYQJXKvD9e
BJDBF4/mQHURE0FvLbbB2B+9QDUsBkGNWbTBEpKvQHSEA0FUEWTBl/ibQFKaDUEZQHjBOqnOQCtj
4kBro2nBnOSjQPRkE0GpRazBcdKFQMNy+EDPw4LBck65QI+vwEDwQXjBH/DGQDGPHEHX/aTBmBKm
QEhx1UCbaobB/cjgQPhewj4dxYfBOiiKQOxe7D/f4KTBlGKjQMxFkEB/s4/B9P2iQPYpJ0ArLJzB
vu2HQAqTb0C0pJfBz9iuQJ8k2T8XZJPB7u6LQE46tkDWP4zBaIkCQdHAMEGNj6vBmBP3QA5QAkAx
SZTBTtd1QNCkk0ABGaDBmKYGQSD9gL7RlrLBnwabQGK8QcDfCabBfGcZQRfb5EDef5TBdFoNQQUG
DUFG+aHBUqT+QPv9xEDv0YfBW/eYQNRWBUGrKJfByw7ZQAK93j/eSa7BHMllQFK9Qr9dhKLBSZXn
QLbbIsAqFK7Bd2flQNRFG0Eb9b3BvkYBQehoCEHl7bXBgB+rQJN1BEED3bvB2m7EQP917ECJGbHB
bhjBQC/sD0GjLFvBLaaVQL5H+kApA1rB6WeEQAzQGUF0k3PBLGq1QHQXFUGq6oDBKqrqQBbN70Cz
7XHBAQnZQBfA0kB3v1rB3/qRQNxEIEHvQ7DBtJmNQA5HCUFUtqfBKFNZQENs6UCMx3vBn6tuQOah
A0Hh4InBpm7RQFvcqEDl+3zBTH6fQCDJsECGUG/Btr26QJByKkE2h6DBHLsBQTYsdT6fwYbB/XvS
QGeyKz/PEoDBdkbSQMusD78hiIrBl6OFQOjHH0A/46vBFYFVQPmJxT8Vu6HBxl+qQNbAd0C8vojB
aI7BQMbomUBsipPB1B/AQMBUQkBfwp/BluBXQCGvVEC4f5PBnFuXQGZImj9zo4/BFAhoQNnfrEAD
eofBEMZ/QL6WxECyu5LBN4VTQFY8hECVDKXB

>  <OMEGA_E>  (74) 
uFqhPihYqj5QFq4+CLeePg==

>  <OMEGA_NBR>  (74) 
    292510

$$$$
50214105
     RDKit          3D

 66 69  0  0  1  0  0  0  0  0999 V2000
    8.5892    7.4159  -18.5318 C   0  0  0  0  0  0  0  0  0  0  0  0
    7.6325    7.0998  -17.5524 C   0  0  0  0  0  0  0  0  0  0  0  0
    8.1804    7.8674  -19.8005 C   0  0  0  0  0  0  0  0  0  0  0  0
    5.8530    7.7146  -19.1028 C   0  0  0  0  0  0  0  0  0  0  0  0
    6.4956    0.8002  -21.5579 C   0  0  0  0  0  0  0  0  0  0  0  0
    4.6567   -0.6338  -20.8303 C   0  0  0  0  0  0  0  0  0  0  0  0
    6.7386   -1.6268  -21.6278 C   0  0  0  0  0  0  0  0  0  0  0  0
    6.2598    7.2574  -17.8362 C   0  0  0  0  0  0  0  0  0  0  0  0
    6.8049    8.0299  -20.0965 C   0  0  0  0  0  0  0  0  0  0  0  0
    5.1896    0.6564  -21.0385 C   0  0  0  0  0  0  0  0  0  0  0  0
    7.2711   -0.3403  -21.8436 C   0  0  0  0  0  0  0  0  0  0  0  0
    5.4293   -1.7730  -21.1277 C   0  0  0  0  0  0  0  0  0  0  0  0
    6.7801    1.3855  -18.0860 C   0  0  0  0  0  0  0  0  0  0  0  0
    6.5938   10.7744  -21.4012 C   0  0  0  0  0  0  0  0  0  0  0  0
    4.5713    7.8382  -15.9406 C   0  0  0  0  0  0  0  0  0  0  0  0
    5.4791    6.7343  -15.3597 C   0  0  0  0  0  0  0  0  0  0  0  0
    7.1530    9.5657  -22.1218 C   0  0  0  0  0  0  0  0  0  0  0  0
    5.1298   10.3852  -21.1260 C   0  0  0  0  0  0  0  0  0  0  0  0
    5.1953    6.7954  -16.8666 C   0  0  0  0  0  0  0  0  0  0  0  0
    6.3326    8.4206  -21.5085 C   0  0  1  0  0  0  0  0  0  0  0  0
    7.0012    0.3490  -16.9893 C   0  0  0  0  0  0  0  0  0  0  0  0
    6.3296    7.1893  -22.4278 C   0  0  0  0  0  0  0  0  0  0  0  0
    4.3911    1.8810  -20.6287 C   0  0  0  0  0  0  0  0  0  0  0  0
    5.0388    4.5563  -17.8730 C   0  0  0  0  0  0  0  0  0  0  0  0
    5.1217    2.6585  -19.5058 C   0  0  1  0  0  0  0  0  0  0  0  0
    4.2399    3.7797  -18.9309 C   0  0  2  0  0  0  0  0  0  0  0  0
    5.4762    1.7300  -18.4187 N   0  0  0  0  0  0  0  0  0  0  0  0
    4.3075    5.7676  -17.4441 N   0  0  0  0  0  0  0  0  0  0  0  0
    7.7436    1.9656  -18.5758 O   0  0  0  0  0  0  0  0  0  0  0  0
    4.9990    8.9785  -21.4570 O   0  0  0  0  0  0  0  0  0  0  0  0
    3.8584    4.6581  -19.9890 O   0  0  0  0  0  0  0  0  0  0  0  0
    8.5318   -0.2007  -22.3122 F   0  0  0  0  0  0  0  0  0  0  0  0
    4.9204   -3.0073  -20.9145 F   0  0  0  0  0  0  0  0  0  0  0  0
    9.6412    7.3121  -18.3104 H   0  0  0  0  0  0  0  0  0  0  0  0
    7.9473    6.7373  -16.5850 H   0  0  0  0  0  0  0  0  0  0  0  0
    8.9210    8.0915  -20.5540 H   0  0  0  0  0  0  0  0  0  0  0  0
    4.8004    7.8258  -19.3175 H   0  0  0  0  0  0  0  0  0  0  0  0
    6.8997    1.7857  -21.7362 H   0  0  0  0  0  0  0  0  0  0  0  0
    3.6552   -0.7475  -20.4424 H   0  0  0  0  0  0  0  0  0  0  0  0
    7.3341   -2.5011  -21.8457 H   0  0  0  0  0  0  0  0  0  0  0  0
    7.1353   10.9567  -20.4612 H   0  0  0  0  0  0  0  0  0  0  0  0
    6.6494   11.6709  -22.0361 H   0  0  0  0  0  0  0  0  0  0  0  0
    3.4894    7.8212  -15.7430 H   0  0  0  0  0  0  0  0  0  0  0  0
    4.9224    8.8803  -15.9699 H   0  0  0  0  0  0  0  0  0  0  0  0
    6.4785    6.9875  -14.9763 H   0  0  0  0  0  0  0  0  0  0  0  0
    5.0454    5.9285  -14.7493 H   0  0  0  0  0  0  0  0  0  0  0  0
    6.9904    9.6370  -23.2074 H   0  0  0  0  0  0  0  0  0  0  0  0
    8.2269    9.4410  -21.9193 H   0  0  0  0  0  0  0  0  0  0  0  0
    4.8878   10.5484  -20.0655 H   0  0  0  0  0  0  0  0  0  0  0  0
    4.4544   10.9858  -21.7529 H   0  0  0  0  0  0  0  0  0  0  0  0
    8.0771    0.2627  -16.7772 H   0  0  0  0  0  0  0  0  0  0  0  0
    6.4718    0.6619  -16.0772 H   0  0  0  0  0  0  0  0  0  0  0  0
    6.6139   -0.6252  -17.3222 H   0  0  0  0  0  0  0  0  0  0  0  0
    5.9906    7.4820  -23.4324 H   0  0  0  0  0  0  0  0  0  0  0  0
    7.3472    6.7761  -22.4903 H   0  0  0  0  0  0  0  0  0  0  0  0
    5.6492    6.4280  -22.0186 H   0  0  0  0  0  0  0  0  0  0  0  0
    4.2655    2.5391  -21.5012 H   0  0  0  0  0  0  0  0  0  0  0  0
    3.4032    1.5629  -20.2642 H   0  0  0  0  0  0  0  0  0  0  0  0
    5.2055    3.9082  -17.0000 H   0  0  0  0  0  0  0  0  0  0  0  0
    6.0082    4.8530  -18.2999 H   0  0  0  0  0  0  0  0  0  0  0  0
    6.0357    3.1053  -19.9241 H   0  0  0  0  0  0  0  0  0  0  0  0
    3.3528    3.3336  -18.4575 H   0  0  0  0  0  0  0  0  0  0  0  0
    4.7329    1.3228  -17.8880 H   0  0  0  0  0  0  0  0  0  0  0  0
    3.6312    5.5058  -16.7556 H   0  0  0  0  0  0  0  0  0  0  0  0
    3.8411    6.1575  -18.2381 H   0  0  0  0  0  0  0  0  0  0  0  0
    3.3649    4.1741  -20.6406 H   0  0  0  0  0  0  0  0  0  0  0  0
  1  2  2  0
  1  3  1  0
  2  8  1  0
  3  9  2  0
  4  8  2  0
  4  9  1  0
  5 10  2  0
  5 11  1  0
  6 10  1  0
  6 12  2  0
  7 11  2  0
  7 12  1  0
  8 19  1  0
  9 20  1  0
 10 23  1  0
 11 32  1  0
 12 33  1  0
 13 21  1  0
 13 27  1  0
 13 29  2  0
 14 17  1  0
 14 18  1  0
 15 16  1  0
 15 19  1  0
 16 19  1  0
 17 20  1  0
 18 30  1  0
 19 28  1  0
 20 22  1  6
 20 30  1  0
 23 25  1  0
 24 26  1  0
 24 28  1  0
 25 26  1  0
 25 27  1  0
 26 31  1  0
  1 34  1  0
  2 35  1  0
  3 36  1  0
  4 37  1  0
  5 38  1  0
  6 39  1  0
  7 40  1  0
 14 41  1  0
 14 42  1  0
 15 43  1  0
 15 44  1  0
 16 45  1  0
 16 46  1  0
 17 47  1  0
 17 48  1  0
 18 49  1  0
 18 50  1  0
 21 51  1  0
 21 52  1  0
 21 53  1  0
 22 54  1  0
 22 55  1  0
 22 56  1  0
 23 57  1  0
 23 58  1  0
 24 59  1  0
 24 60  1  0
 25 61  1  6
 26 62  1  1
 27 63  1  0
 28 64  1  0
 28 65  1  0
 31 66  1  0
M  CHG  1  28   1
M  END
>  <OMEGA_C>  (75) 
kW0JQVlP7UAxQZTBPD30QPgx40BAa4zB++ICQYLB+0B9Z57BfEu7QE7e9kCR0pjBCNzPQKPXTD+q
dqzB0AOVQO4+Ir9hpKbB7qLXQIQ80L+9Ba3BolDIQKk86ECSsI7BrMHZQHd6AEG0xaDBzhCmQIwH
KD/ETqjBJK3oQLFArr6zv67B9rytQErw4r+EBanBrvbYQJFWsT8HsJDBtADTQOZjLEGWNavBWEiS
QJLS+kDFDH/BoFSvQL5/10B7wXXBBuXkQBcNGUFq+bDBsCekQJ4pJkEYAqnBCECmQDl02UDO7obB
fqTKQKO6BkFZEazBzAngQJO1sj4A6ofBeozKQBIP5kAUbLPBmIOMQJXE8D+sB6XBeD2hQFPNkUD5
+47B7OSjQIQlKkDqC5zBkq2HQOHlcUBwcpfBpjyvQLhv3T+WWZPBNteJQJGQuECBjYvBKsv3QFKZ
+z8jm5TBuPefQA+oD0EDqKvBr/B2QGEPlUBu6Z/BbIIIQfqQTb53f7LBFHSdQBR4QMDgUKfBVEIa
QRX96UCoe5LB+U/+QPGX10ADroTBVrwOQex2AUGXbqTBkJyZQJ9s+kAwiprBh8rcQI+S5D+z463B
Je9pQOJeP7/2iaPBjLDqQMgSIMAFxK7BM1TkQJ1OL0F2sKPB1MfUQA68OkH2SbDBs1FfQIBH+kBR
43vBWISdQJAVDkHNhH/B0k/PQP2Z30C6nm/BU3ShQF62vUA+/WvBYLHfQB8xGkGxqLnBi6EDQXAO
F0GiWq/BKWmcQELGKEEShqDBeIqOQOzFL0H1Ba7BxjsBQeR9hj6fN4bBphjPQJhvKT8dnoDB3aTT
QEQNIL/Ok4rBpbK/QNRs70ChdbvBDxzrQCbW2EAR7LPBg8a0QEyyzUAaJrDBOn+IQAWAIkB6AqzB
Zc1ZQCcOyD8dHaLBKJOmQAsgekAHAIjB7ULAQC5Mm0AdZpLBsiTBQHO9RkB+ZJ/B2pRWQMlZVUD1
qJPBrHOXQKpQqT+QGo/Bv2VoQOgvsEBoC4bB2NR1QIQKxUCk55HBH1tXQCWShUAIIKXB

>  <OMEGA_E>  (75) 
cLzoPg==

>  <OMEGA_NBR>  (75) 
    293910

$$$$
50214112
     RDKit          3D

 72 75  0  0  1  0  0  0  0  0999 V2000
    8.6703    7.5276  -18.3828 C   0  0  0  0  0  0  0  0  0  0  0  0
    8.2917    7.9930  -19.6503 C   0  0  0  0  0  0  0  0  0  0  0  0
    7.6950    7.1043  -17.4644 C   0  0  0  0  0  0  0  0  0  0  0  0
    5.9485    7.6626  -19.0651 C   0  0  0  0  0  0  0  0  0  0  0  0
    6.4202    0.8261  -21.5536 C   0  0  0  0  0  0  0  0  0  0  0  0
    4.6282   -0.6474  -20.7861 C   0  0  0  0  0  0  0  0  0  0  0  0
    6.7102   -1.5931  -21.6348 C   0  0  0  0  0  0  0  0  0  0  0  0
    6.9314    8.0390  -20.0119 C   0  0  0  0  0  0  0  0  0  0  0  0
    6.3150    7.1979  -17.7796 C   0  0  0  0  0  0  0  0  0  0  0  0
    5.1297    0.6501  -21.0066 C   0  0  0  0  0  0  0  0  0  0  0  0
    7.2137   -0.2955  -21.8553 C   0  0  0  0  0  0  0  0  0  0  0  0
    5.4150   -1.7673  -21.1064 C   0  0  0  0  0  0  0  0  0  0  0  0
    6.8035    1.5192  -18.0057 C   0  0  0  0  0  0  0  0  0  0  0  0
    5.2401    8.1673  -14.1838 C   0  0  0  0  0  0  0  0  0  0  0  0
    4.8413    8.8777  -15.4869 C   0  0  0  0  0  0  0  0  0  0  0  0
    6.2590    7.0543  -14.4582 C   0  0  0  0  0  0  0  0  0  0  0  0
    5.8233   10.6748  -21.0561 C   0  0  0  0  0  0  0  0  0  0  0  0
    6.9609    9.9071  -21.7008 C   0  0  0  0  0  0  0  0  0  0  0  0
    4.2278    7.8780  -16.4720 C   0  0  0  0  0  0  0  0  0  0  0  0
    5.7202    6.0448  -15.4970 C   0  0  0  0  0  0  0  0  0  0  0  0
    4.6133    9.7434  -21.2349 C   0  0  0  0  0  0  0  0  0  0  0  0
    6.5609    8.4558  -21.4358 C   0  0  2  0  0  0  0  0  0  0  0  0
    5.2012    6.7188  -16.8124 C   0  0  0  0  0  0  0  0  0  0  0  0
    7.0912    0.4340  -16.9727 C   0  0  0  0  0  0  0  0  0  0  0  0
    4.3181    1.8471  -20.5761 C   0  0  0  0  0  0  0  0  0  0  0  0
    5.0841    4.5335  -17.9428 C   0  0  0  0  0  0  0  0  0  0  0  0
    5.0863    2.6324  -19.4962 C   0  0  1  0  0  0  0  0  0  0  0  0
    4.2259    3.7536  -18.9260 C   0  0  2  0  0  0  0  0  0  0  0  0
    5.4864    1.7277  -18.3997 N   0  0  0  0  0  0  0  0  0  0  0  0
    4.3634    5.7358  -17.5234 N   0  0  0  0  0  0  0  0  0  0  0  0
    7.7385    2.0754  -18.5722 O   0  0  0  0  0  0  0  0  0  0  0  0
    5.1309    8.4487  -21.6558 O   0  0  0  0  0  0  0  0  0  0  0  0
    3.7990    4.6140  -19.9831 O   0  0  0  0  0  0  0  0  0  0  0  0
    8.4626   -0.1267  -22.3453 F   0  0  0  0  0  0  0  0  0  0  0  0
    4.9310   -3.0102  -20.8901 F   0  0  0  0  0  0  0  0  0  0  0  0
    9.7152    7.4944  -18.1117 H   0  0  0  0  0  0  0  0  0  0  0  0
    9.0462    8.3172  -20.3518 H   0  0  0  0  0  0  0  0  0  0  0  0
    7.9989    6.7036  -16.5087 H   0  0  0  0  0  0  0  0  0  0  0  0
    4.9032    7.7310  -19.3279 H   0  0  0  0  0  0  0  0  0  0  0  0
    6.7972    1.8208  -21.7400 H   0  0  0  0  0  0  0  0  0  0  0  0
    3.6401   -0.7817  -20.3712 H   0  0  0  0  0  0  0  0  0  0  0  0
    7.3171   -2.4547  -21.8707 H   0  0  0  0  0  0  0  0  0  0  0  0
    5.6845    8.9008  -13.4950 H   0  0  0  0  0  0  0  0  0  0  0  0
    4.3426    7.7287  -13.7233 H   0  0  0  0  0  0  0  0  0  0  0  0
    4.1049    9.6630  -15.2612 H   0  0  0  0  0  0  0  0  0  0  0  0
    5.7346    9.3321  -15.9404 H   0  0  0  0  0  0  0  0  0  0  0  0
    7.1863    7.5040  -14.8427 H   0  0  0  0  0  0  0  0  0  0  0  0
    6.4713    6.5230  -13.5187 H   0  0  0  0  0  0  0  0  0  0  0  0
    6.0258   10.8557  -19.9901 H   0  0  0  0  0  0  0  0  0  0  0  0
    5.6586   11.6353  -21.5662 H   0  0  0  0  0  0  0  0  0  0  0  0
    7.0208   10.1138  -22.7796 H   0  0  0  0  0  0  0  0  0  0  0  0
    7.9240   10.1484  -21.2272 H   0  0  0  0  0  0  0  0  0  0  0  0
    3.3156    7.4552  -16.0258 H   0  0  0  0  0  0  0  0  0  0  0  0
    3.9699    8.4084  -17.4006 H   0  0  0  0  0  0  0  0  0  0  0  0
    6.5307    5.3487  -15.7589 H   0  0  0  0  0  0  0  0  0  0  0  0
    4.8898    5.4858  -15.0411 H   0  0  0  0  0  0  0  0  0  0  0  0
    4.0707    9.6421  -20.2834 H   0  0  0  0  0  0  0  0  0  0  0  0
    3.9361   10.1469  -22.0020 H   0  0  0  0  0  0  0  0  0  0  0  0
    7.0683    7.7968  -22.1557 H   0  0  0  0  0  0  0  0  0  0  0  0
    8.1785    0.2964  -16.8778 H   0  0  0  0  0  0  0  0  0  0  0  0
    6.6734    0.7335  -16.0003 H   0  0  0  0  0  0  0  0  0  0  0  0
    6.6290   -0.5107  -17.2951 H   0  0  0  0  0  0  0  0  0  0  0  0
    4.1383    2.4986  -21.4440 H   0  0  0  0  0  0  0  0  0  0  0  0
    3.3551    1.5080  -20.1664 H   0  0  0  0  0  0  0  0  0  0  0  0
    5.2981    3.9074  -17.0640 H   0  0  0  0  0  0  0  0  0  0  0  0
    6.0291    4.8211  -18.4269 H   0  0  0  0  0  0  0  0  0  0  0  0
    5.9844    3.0723  -19.9542 H   0  0  0  0  0  0  0  0  0  0  0  0
    3.3622    3.3220  -18.3990 H   0  0  0  0  0  0  0  0  0  0  0  0
    4.7664    1.2351  -17.9109 H   0  0  0  0  0  0  0  0  0  0  0  0
    3.6181    5.4602  -16.9163 H   0  0  0  0  0  0  0  0  0  0  0  0
    3.9846    6.1757  -18.3377 H   0  0  0  0  0  0  0  0  0  0  0  0
    3.2632    4.1229  -20.5949 H   0  0  0  0  0  0  0  0  0  0  0  0
  1  2  2  0
  1  3  1  0
  2  8  1  0
  3  9  2  0
  4  8  2  0
  4  9  1  0
  5 10  2  0
  5 11  1  0
  6 10  1  0
  6 12  2  0
  7 11  2  0
  7 12  1  0
  8 22  1  0
  9 23  1  0
 10 25  1  0
 11 34  1  0
 12 35  1  0
 13 24  1  0
 13 29  1  0
 13 31  2  0
 14 15  1  0
 14 16  1  0
 15 19  1  0
 16 20  1  0
 17 18  1  0
 17 21  1  0
 18 22  1  0
 19 23  1  0
 20 23  1  0
 21 32  1  0
 22 32  1  0
 23 30  1  0
 25 27  1  0
 26 28  1  0
 26 30  1  0
 27 28  1  0
 27 29  1  0
 28 33  1  0
  1 36  1  0
  2 37  1  0
  3 38  1  0
  4 39  1  0
  5 40  1  0
  6 41  1  0
  7 42  1  0
 14 43  1  0
 14 44  1  0
 15 45  1  0
 15 46  1  0
 16 47  1  0
 16 48  1  0
 17 49  1  0
 17 50  1  0
 18 51  1  0
 18 52  1  0
 19 53  1  0
 19 54  1  0
 20 55  1  0
 20 56  1  0
 21 57  1  0
 21 58  1  0
 22 59  1  6
 24 60  1  0
 24 61  1  0
 24 62  1  0
 25 63  1  0
 25 64  1  0
 26 65  1  0
 26 66  1  0
 27 67  1  6
 28 68  1  1
 29 69  1  0
 30 70  1  0
 30 71  1  0
 33 72  1  0
M  CHG  1  30   1
M  END
>  <OMEGA_C>  (76) 
lbkKQdTh8EDzD5PB8qoEQUTG/0DYM53BST32QLBW40Aot4vBfFq+QOQz9UBqhZjBTXLNQBF6Uz/O
bazBKRqUQNW5Jb/XSabB4LnWQPrqy78AFK3BPc7dQNyfAEFNGKDBvxTKQFJV5kCoPI7BfCakQHVu
Jj+CDajB/tbmQPBJl76g167Bc0etQA824r/12ajBh7bZQOFzwj+VC5DBG6+nQECtAkH78GLBKuya
QAcLDkFuynfBo0nIQNK84UCrVGfBYFi6QOnLKkHNcqjBoL/eQFSDHkFJm63B9EmHQIgY/EDCxoPB
PAy3QBZvwUDR83fBFqCTQNTkG0EL4anBNfPRQNJKB0F9fKvBinCmQMAA10Dlf4bBXuviQJwz3j4r
yIfBwC2KQEZt7D/Om6TBRLGiQF4SkUDtio/BmcKiQPR5KEA5+JvBWDqHQNs6cECEaJfBj5CvQMMl
3T+bMpPB7qCLQPiLt0DnL4zBuaH3QOjTBEDpk5TBMjCkQOItB0EHP63BzyJzQLClk0By3Z/BuGYH
QRjGAb4aw7LBo8qdQOKmQMDoHqfBbnEbQRLS70Cq5JDBDr0QQVwTBUGB0KLBNvf/QAWE1kDMEYTB
SOecQKRk90CFn5rBrYLZQOEQ6T+X663B/PdoQH0eSL8/+KLBcCXqQIYaHcBD967BX+e1QLVpDkF+
61fBmfaKQGpR90C1klvBYluDQLWbGkHhLXTBy4G3QDJQFUG6C3/BS/blQIog8ECxe23BexTPQKS8
0EBmTFjBDtPAQAmxLUG465/BKBO1QEcqOkGQh6zBOqrgQP7RIUGNPLbBBJH9QK1fIkFd0anBijJU
QMOQ7kDfNIDBSBJ+QKOIBkFrNIvBlPvQQHEoq0BIJHzB4HicQPWLr0B+qHDBMEOCQN9FGkFkRKLB
WOh7QOFZIkEcBLDB0i/iQJN/+UD2PrHB9doCQb3Dlz61BYfBNIzVQHDJOz+YAIDB1CDUQL28Ar9n
XIrBVW2EQPXoH0A9javBwbpWQIAHwT/eVKHBtYmpQDITekApg4jBUe7AQGBGmkBcapPBfoC/QKOg
REBGop/BqS1XQMCbVEA0MZPBK4aYQK4Ynj+ISY/BKo9nQI25rkCXVIfBdAR/QIGfxUCMs5LBA9lQ
QMnug0BuwqTBCeQLQQIZ60BEEpLBykIHQSKlAkE/2prBQIn2QLyG20D5movBGj3CQL3P/UAzNpfB
am7LQOdKSz/KnazBUq6TQFU8ML8cvKXBSOPVQMyBz79+4KzBJuTjQG+0B0H4Zp3B6j/LQPoB5kBt
143BAtCiQM5GHD/i4qfBmhjlQHqapL5pAq/BShatQN3K5r8AS6jBziHbQB/hxT8aUJDB5JWpQDiP
A0HZ12PBRl+bQFlMDkHI0HjBPm3IQMfH4UAiHmjBpo2dQNuTGEHFdrLBsNOxQD4UIUG2R6jBzryG
QLKu+0B66YPB0pG0QNAuwUD313fBwtGxQJuNAkFdq7PB6IPcQMCDFEF+i6fBiN6lQJJ31kD7o4bB
MPzlQJ7/+z5z6IfB196IQE3U5j8lZaTBfrWiQAvpkEDRx4/B7DSiQMm1JkBG/pvBHrOGQCXubUCt
TpfBTI+wQNNb2z+9RZPBksCLQLK5t0DVqozBhin4QJtOCEBp+5TB1F3dQJi6BUEJcrDBmqZuQLm8
kUBvu5/B6jkGQQQSFL5bRbPBDHOeQD4RQ8CsOabBuUccQSPb4kCsRJDBsiEUQd7lCEE6sp/BAvn9
QAZTx0Cj2ITBSHGhQPBLAUESqZnBy8PWQEQc5T+aZK7BqjNpQMDoU7/kH6LBuoLpQOmgHsClwa7B
ucu5QJJ9D0H4wVnBpC2NQHHl+kDJb1vBwgCEQHvyGkF9LXXBLG63QANgFUFBX4DBmzvmQNdp7kBS
B2/BLI3PQA+N0UBo6VjB1zJ1QM5YF0GZoLHBykmlQBTbIkE6V7nB2bm3QMtjMkER36jBZ2idQLHO
HUEbTaHBvUZUQDFi7kA9AYDBx7t6QFfnBUEVYIvBSI7MQMd5qEAZfnvBJKOYQDA/skCuKnDBGOOh
QPem7UBfdK7BjiKwQNQl+kB+BbzBfOP2QNUKIEGfaKjBSXkEQUhdzT59MYfBQ3DYQJTJSj/6JYDB
zWHYQJDt876TUorBUDiCQIFlHEDAWqvB5wBVQLQLuz/v4qDB+BGqQJSte0DdnYjBXqnAQCqgmUB5
25PBwkO+QM11Q0BX6J/BK99XQPzFUUC5zZLB1k6aQJeXmT+xQI/BQ6BlQJBFr0A1H4jBjTKBQJ4h
xkA7TpPBUqpLQElpgUCMa6TBg0AIQZzN7kB2EJXBGt4AQVkABkFyyZzBD5TzQEBX3EDlw43BY864
QAxvAEHpopbBQVLMQLpvPj/OcqzBUriRQKqSJ7/A7qXBKavTQFFg17+EWqzBd4nVQE/UCkGNZp3B
b03HQOh+5kAkS47BkNGiQMbGHj/8GKjBL9jkQGxg0L5he67BSAiqQBEI57/eH6jByrXYQLBSuD+F
XZDBnViwQKI8BEHtlmTBPYycQG/nDUEn63jBAjPPQH1s40CC12nBp7vPQG7MCkFyp7XBU2GrQC5X
EEFOLq7BBO2FQEqG+EBy1ILBxKO5QLscwUBGEHjBihDvQFaGHUHPGLTBQgHDQGZSG0H3BKXBRdyl
QAb41ED+WIbBqkvgQGTR6D6xPYfBhxuKQGUW7T9a8KTB3ayjQAZJkEAxzY/BySejQJajJ0DoSZzB
1k6IQLyYcEAI1ZfBqteuQNPi2j9PcZPBiZWLQK8ytUDG8YvBsx73QODmAkCdPpTBYgvkQDndJ0Fe
DKrBCyJ4QH58lEBoSqDBH4AGQSStkr5xYrLBOoaZQF6zQcBMDKbBfQQZQQKK5kBqu5TBRgEMQbV/
DUHoOaLBXhT/QK1ixkB4vofBs9eWQDeOAkHm1JfB4DbZQKlV3D9cNq7BBfhjQPx8P78kmKLBWmvm
QKNNJMC79q3BVRzCQDHNEEHAC1zBHoOWQFdO/ECCTFrBLDyFQBNPGkEJcnTBTuy1QEUQFUGkZYHB
9TDrQCdc8EBIVHLBlKDZQPRk1EAbzlrBdKPeQJcC90BeZrPBX5jEQNXrCUGM/b3BBF+UQP08G0GL
ArLB5JiaQPvjAUHuaqvBIcVZQAgg6kALmnvB/3VuQEdcA0Hb/onBIMTRQK45qUDbtXzB0xmgQAFt
sUB91W7BTQ8IQYaCF0F5xbPBzvDrQAD2KEF/vbrBAqGsQD+6JUHOpqDBPk4BQej82T5sS4XBuRzO
QFGIRj8UKIDBMZ/VQGE3DL8ZsYnBf6+FQDPPH0B8+6vBulBVQKxzxz86w6HBDY+rQHJDdkCyDInB
XGDBQD8gm0Baq5PBF13AQP43QkDP55/BZuVXQDlUVkCXyJPB3DCXQMN1oT9VbI/BIf1pQDfMqkDx
6IbBJ4V7QPxtw0CdOJLBxt1VQPZmhUBST6XB

>  <OMEGA_E>  (76) 
RL2bPlAlpj6knJg+

>  <OMEGA_NBR>  (76) 
    297633

$$$$
50214111
     RDKit          3D

 77 80  0  0  1  0  0  0  0  0999 V2000
    8.7394    7.4596  -18.1882 C   0  0  0  0  0  0  0  0  0  0  0  0
    8.4409    7.9441  -19.4672 C   0  0  0  0  0  0  0  0  0  0  0  0
    7.7083    7.0428  -17.3349 C   0  0  0  0  0  0  0  0  0  0  0  0
    6.0655    7.6493  -19.0259 C   0  0  0  0  0  0  0  0  0  0  0  0
    6.3833    0.8159  -21.5590 C   0  0  0  0  0  0  0  0  0  0  0  0
    4.6487   -0.6836  -20.7143 C   0  0  0  0  0  0  0  0  0  0  0  0
    6.7152   -1.5979  -21.6336 C   0  0  0  0  0  0  0  0  0  0  0  0
    7.1064    8.0144  -19.9151 C   0  0  0  0  0  0  0  0  0  0  0  0
    6.3521    7.1737  -17.7235 C   0  0  0  0  0  0  0  0  0  0  0  0
    5.1182    0.6214  -20.9627 C   0  0  0  0  0  0  0  0  0  0  0  0
    7.1858   -0.2927  -21.8817 C   0  0  0  0  0  0  0  0  0  0  0  0
    5.4432   -1.7919  -21.0572 C   0  0  0  0  0  0  0  0  0  0  0  0
    6.8577    1.5244  -18.0525 C   0  0  0  0  0  0  0  0  0  0  0  0
    5.1013   10.5365  -20.8598 C   0  0  0  0  0  0  0  0  0  0  0  0
    5.1957    8.2457  -14.2167 C   0  0  0  0  0  0  0  0  0  0  0  0
    6.2799   10.8894  -21.7755 C   0  0  0  0  0  0  0  0  0  0  0  0
    4.4088    9.2575  -21.3703 C   0  0  0  0  0  0  0  0  0  0  0  0
    4.8782    8.9335  -15.5541 C   0  0  0  0  0  0  0  0  0  0  0  0
    6.1555    7.0656  -14.4151 C   0  0  0  0  0  0  0  0  0  0  0  0
    7.3935    9.8276  -21.6850 C   0  0  0  0  0  0  0  0  0  0  0  0
    5.4121    8.1893  -21.8899 C   0  0  0  0  0  0  0  0  0  0  0  0
    4.2401    7.9321  -16.5239 C   0  0  0  0  0  0  0  0  0  0  0  0
    5.6159    6.0624  -15.4630 C   0  0  0  0  0  0  0  0  0  0  0  0
    6.8715    8.3852  -21.3866 C   0  0  0  0  0  0  0  0  0  0  0  0
    5.1805    6.7334  -16.8105 C   0  0  0  0  0  0  0  0  0  0  0  0
    7.1732    0.4386  -17.0282 C   0  0  0  0  0  0  0  0  0  0  0  0
    4.2981    1.8093  -20.5232 C   0  0  0  0  0  0  0  0  0  0  0  0
    5.0764    4.5568  -17.9570 C   0  0  0  0  0  0  0  0  0  0  0  0
    5.0836    2.6317  -19.4829 C   0  0  1  0  0  0  0  0  0  0  0  0
    4.2147    3.7475  -18.9127 C   0  0  2  0  0  0  0  0  0  0  0  0
    5.5264    1.7568  -18.3794 N   0  0  0  0  0  0  0  0  0  0  0  0
    4.3522    5.7638  -17.5506 N   0  0  0  0  0  0  0  0  0  0  0  0
    7.7741    2.0568  -18.6701 O   0  0  0  0  0  0  0  0  0  0  0  0
    3.7502    4.5825  -19.9740 O   0  0  0  0  0  0  0  0  0  0  0  0
    8.4108   -0.1030  -22.4212 F   0  0  0  0  0  0  0  0  0  0  0  0
    4.9874   -3.0423  -20.8223 F   0  0  0  0  0  0  0  0  0  0  0  0
    9.7663    7.4068  -17.8581 H   0  0  0  0  0  0  0  0  0  0  0  0
    9.2409    8.2670  -20.1170 H   0  0  0  0  0  0  0  0  0  0  0  0
    7.9500    6.6178  -16.3720 H   0  0  0  0  0  0  0  0  0  0  0  0
    5.0377    7.7351  -19.3465 H   0  0  0  0  0  0  0  0  0  0  0  0
    6.7344    1.8158  -21.7671 H   0  0  0  0  0  0  0  0  0  0  0  0
    3.6797   -0.8324  -20.2611 H   0  0  0  0  0  0  0  0  0  0  0  0
    7.3293   -2.4499  -21.8853 H   0  0  0  0  0  0  0  0  0  0  0  0
    5.4706   10.3687  -19.8374 H   0  0  0  0  0  0  0  0  0  0  0  0
    4.3794   11.3665  -20.8574 H   0  0  0  0  0  0  0  0  0  0  0  0
    5.6607    8.9765  -13.5386 H   0  0  0  0  0  0  0  0  0  0  0  0
    4.2599    7.8764  -13.7718 H   0  0  0  0  0  0  0  0  0  0  0  0
    5.9225   10.9470  -22.8142 H   0  0  0  0  0  0  0  0  0  0  0  0
    6.6890   11.8649  -21.4738 H   0  0  0  0  0  0  0  0  0  0  0  0
    3.8277    8.8204  -20.5449 H   0  0  0  0  0  0  0  0  0  0  0  0
    3.7305    9.5303  -22.1921 H   0  0  0  0  0  0  0  0  0  0  0  0
    4.1800    9.7652  -15.3785 H   0  0  0  0  0  0  0  0  0  0  0  0
    5.8089    9.3224  -15.9930 H   0  0  0  0  0  0  0  0  0  0  0  0
    7.1280    7.4499  -14.7565 H   0  0  0  0  0  0  0  0  0  0  0  0
    6.2838    6.5444  -13.4549 H   0  0  0  0  0  0  0  0  0  0  0  0
    7.9328    9.8092  -22.6436 H   0  0  0  0  0  0  0  0  0  0  0  0
    8.0850   10.1189  -20.8807 H   0  0  0  0  0  0  0  0  0  0  0  0
    5.0635    7.1996  -21.5599 H   0  0  0  0  0  0  0  0  0  0  0  0
    5.4184    8.2281  -22.9892 H   0  0  0  0  0  0  0  0  0  0  0  0
    3.3056    7.5548  -16.0831 H   0  0  0  0  0  0  0  0  0  0  0  0
    4.0178    8.4453  -17.4711 H   0  0  0  0  0  0  0  0  0  0  0  0
    6.4056    5.3281  -15.6799 H   0  0  0  0  0  0  0  0  0  0  0  0
    4.7439    5.5471  -15.0339 H   0  0  0  0  0  0  0  0  0  0  0  0
    7.4963    7.7041  -21.9830 H   0  0  0  0  0  0  0  0  0  0  0  0
    8.2604    0.2768  -16.9877 H   0  0  0  0  0  0  0  0  0  0  0  0
    6.8122    0.7530  -16.0378 H   0  0  0  0  0  0  0  0  0  0  0  0
    6.6740   -0.4970  -17.3204 H   0  0  0  0  0  0  0  0  0  0  0  0
    4.0751    2.4416  -21.3953 H   0  0  0  0  0  0  0  0  0  0  0  0
    3.3570    1.4575  -20.0752 H   0  0  0  0  0  0  0  0  0  0  0  0
    5.3072    3.9509  -17.0684 H   0  0  0  0  0  0  0  0  0  0  0  0
    6.0125    4.8423  -18.4593 H   0  0  0  0  0  0  0  0  0  0  0  0
    5.9606    3.0779  -19.9745 H   0  0  0  0  0  0  0  0  0  0  0  0
    3.3695    3.3083  -18.3625 H   0  0  0  0  0  0  0  0  0  0  0  0
    4.8239    1.3021  -17.8319 H   0  0  0  0  0  0  0  0  0  0  0  0
    3.5878    5.4912  -16.9663 H   0  0  0  0  0  0  0  0  0  0  0  0
    4.0003    6.2121  -18.3723 H   0  0  0  0  0  0  0  0  0  0  0  0
    3.2126    4.0714  -20.5676 H   0  0  0  0  0  0  0  0  0  0  0  0
  1  2  2  0
  1  3  1  0
  2  8  1  0
  3  9  2  0
  4  8  2  0
  4  9  1  0
  5 10  2  0
  5 11  1  0
  6 10  1  0
  6 12  2  0
  7 11  2  0
  7 12  1  0
  8 24  1  0
  9 25  1  0
 10 27  1  0
 11 35  1  0
 12 36  1  0
 13 26  1  0
 13 31  1  0
 13 33  2  0
 14 16  1  0
 14 17  1  0
 15 18  1  0
 15 19  1  0
 16 20  1  0
 17 21  1  0
 18 22  1  0
 19 23  1  0
 20 24  1  0
 21 24  1  0
 22 25  1  0
 23 25  1  0
 25 32  1  0
 27 29  1  0
 28 30  1  0
 28 32  1  0
 29 30  1  0
 29 31  1  0
 30 34  1  0
  1 37  1  0
  2 38  1  0
  3 39  1  0
  4 40  1  0
  5 41  1  0
  6 42  1  0
  7 43  1  0
 14 44  1  0
 14 45  1  0
 15 46  1  0
 15 47  1  0
 16 48  1  0
 16 49  1  0
 17 50  1  0
 17 51  1  0
 18 52  1  0
 18 53  1  0
 19 54  1  0
 19 55  1  0
 20 56  1  0
 20 57  1  0
 21 58  1  0
 21 59  1  0
 22 60  1  0
 22 61  1  0
 23 62  1  0
 23 63  1  0
 24 64  1  0
 26 65  1  0
 26 66  1  0
 26 67  1  0
 27 68  1  0
 27 69  1  0
 28 70  1  0
 28 71  1  0
 29 72  1  6
 30 73  1  1
 31 74  1  0
 32 75  1  0
 32 76  1  0
 34 77  1  0
M  CHG  1  32   1
M  END
>  <OMEGA_C>  (77) 
b9QLQQi17kBkgZHBCg4HQbI1/kDpvJvBDar2QNNe4UDxrYrBfRjCQAbH9ED+NJjB2EPMQO3fUD/C
eKzBI8KUQDj+Lr/rtqXB3eLWQNWHzL+sEa3B3mfjQMg6AEEXUp/BN0TLQDCP5UCxyY3BMcijQEwR
Hz+Rs6fBBvLlQDfelb6qDa/BFi+uQM5c5b8ndajBNnLbQIggwz9ua5DBrz2jQIOVKEH54KbBkUOm
QDjuA0F8d2PB2/TIQPI6LkEoNK7BBBWNQLEeFEFP9qrBUhqcQIvvDkF03XjB/vnEQEgZ4kBApGbB
P5fsQPc9HUH5eq3B8y+tQHwHA0FzHq/BOK+HQOzT/UDoMITBNrWzQFH/wUCbaHfBV+PbQK8pBkGo
F6vBo8alQOd310DVe4bBi4rlQH6U4D7OOYjBpomJQJmY5z+BL6TBOnKiQJLRkUDwp4/BtqyiQMRt
KEDt3JvB9N6GQGTWb0AeTZfBe9iwQGPe4D/vCJPBU0WLQDZxuECvZ4zBDcX4QOGiA0B0XJXBqQJw
QNyjkkDYyp/Bz5IGQeD40r2iXrPBIJmfQG+1QsAglKbB3UIcQd0E7UBV3Y7Bq9oTQZ1FBEGa76DB
MGb+QObE00DG+YLBLzWhQAaG90CKxZrB9X/XQAZt6D8AI67BAoFrQPEaVb/NFqLBo4nqQIHLHMAJ
Fa/B/Q6vQC3mJUHxsp7BOSSMQDvdNUHo26bBhyS1QJSfD0E5nljBZVGIQHoL/EBSWVzBdYW9QL0m
L0GBg7bBBwzWQMLWPUFvyqvBdvh0QDEgDUEGXKTBDsBuQDJ8GEFuibHB1sKFQDc+HEGADnbBG+K5
QIgoFUFQ43/BxxjkQGxl7kCUGmzByhTJQLJr0UBvR1fBwdn9QFHyHEEAJrXBMFwBQfXmIUG4C6fB
WwiiQN9i5kC1eqzBlGOtQHymA0HP6bfBOo9TQNLA8UAvqoDBiJGAQNcfB0HPxIvB9vrMQKd/qkDY
4HrBFs6XQD+CsUDDinDB1uHvQOmH9kAk3a/BwioEQcG4jT7j5ofB8f3ZQGnFQD9zTYDBBJHVQGx4
/r4mkIrBNGeCQApDHECPKavBo9lWQOOPuj8DmqDB8dSpQG3bfEAijIjBI2bAQIT0mkC4rJPBib2+
QJ78REC2y5/BxKVXQGm6U0Bb5pLBWV2aQJurpj+4p47BpZ5lQCm4r0AVu4fBwQKAQMzJxkCJ+pLB
4JpNQNVIgkBgiqTBaIoLQYWv60D/NZLBwQkGQZfJAEHqnpvBctL2QN6w3ECKSIvB5anAQPRK90DX
bpfBd4LKQMycST+GxqzBoM6TQIDzM781f6XBJPLVQJDZz7+eyqzB16/gQPy1A0EOLZ7B9/vKQC30
40AyrY3B6EWiQJhDGT8u3KfB7HTkQJEepb5mJa/BXoqtQBgR6L9XA6jBiybbQPj+xz/Pe5DBwOeQ
QJ5nGkGZlbfBtlypQO2jBUF3+2TBMZykQPJhK0HZIbDBbXixQJSmCEFWN7rBSgScQK5GD0E8mHrB
npbHQDra5EAj5mfBp92zQBz9IEHbxqXBCfnAQPS6+0B/9q/BoNCGQNMf/EC2N4TBoja0QN2xwkBS
A3fByAPUQH+8DkEKT6jBX6mlQMoA1kBYZIbBA0nmQMfc/D57O4jBHz6IQBV35T8KXKTBL2CiQEA+
kEDnio/BTe6hQP/yJkDxGZzBCciGQObabkDucJfBkYGwQJQH3T/UXJPByz6LQPyntkDYMozB0f33
QKG2CUAnL5XBVlxyQPISk0C14p/BILwFQWgTDb58lLPB0KefQEfYQ8B2taXBuSocQelS5kCYRpDB
5lwSQW7nBkEG2aDBLX7/QJuMy0DdGYTBSIifQNTW+UDDzpnBWFnVQHxb5D+Ptq7Bn/5pQA8MWb8Z
wqHBBMzpQJiEHsA9pq7BY+tpQGY3E0HYnrPB8buGQDUnIkG5EL/BftC5QLv9EUHwhFvBb4aMQJNQ
AEGoaFzBfPO/QJ76MkEwK7TBdVyMQKiUN0GKQ67B9SiiQGNG+UBkYr/BYv7MQLa0D0Haar7B7zyF
QAJqHEEu3nfB1364QKp6FUGub4HBbfzlQBg48ED5tm7B7pTNQOAu1kDtLljBIq3DQGQZLUH/wqDB
rjSYQO9YGkHpdqHBIdylQEGz60C6CKzBW6rZQOXv40BG87HBm25UQHQb8EAOD4DBPbt6QPI0BUG3
54vBEXzMQLvzqUC7FXrB7FWYQHketEDTHW/BSJLwQPXCFUF5EazBcqIEQX+fyz66oofBSijZQF03
SD9LZoDB+XLYQFYj8L6qtYrBFBOBQHYgG0AoV6vBCElUQNh6uT/yt6DBHCmpQLhLeED8hIjBSaXA
QNlxmUB2ZpPBauG9QBQaQ0BYIaDBjDBWQMFlU0BbOpPBVWGaQBrHmz91RI/BJVFmQDW7rUCDbYfB
N+V+QNPfxEAGu5LBpvpPQOZxg0ByyaTBu58JQTVY60CzYJPBLuICQd5AAEHdq5zBPMj0QO5D3EBp
BYzBdY+7QFrV9UAFgJfB0r7JQOgmNz/0Aa3BqPqSQJhyNL+H6KTBEtnSQAZf2r+Ew6zBVX/ZQM43
AkGt357B5nvIQK5640BW0o3BEyWiQO+BEz9Qs6fBLijiQLRn2b5Ce6/B3R+rQGA57L9jiqfBFzXb
QDKVzz/dM5DB+tLYQAOtNUF62rTBZaysQMqJBUGcpWTB5D/VQI1VH0E++rnBeOK6QDZuN0HZJKvB
dwedQBQOD0Ex7XnBKp/KQHei5EAWQWjBRv7iQK01DkFR/rHB2JjHQDvrJkErzKLBFm2GQCRn+0AW
iIPBReC1QOVKwkBo13bBqnvIQD0jEEE7n6fBmgGlQK5x1UBTGobB5GnlQKZyGD9Ri4fB8xaJQK7A
5j81f6TB+LKiQL6zkEB1v4/BMQCjQI8xKEDvXZzBo82HQLnwcECv4JfB3/SwQEcd4T9DfZPBZn6K
QFKatUBFwYvBoYP4QITiDEBvzJTBat12QAF4lEDiXKDBVxIEQe6/k74LibTBXAucQAbNRMDCGaXB
QnoaQXGk5kAm4JHBMoYOQV7hBkE2IaLBQxT/QH4hy0Ak+YTBPtuZQFu0+EBxRZnBNkzVQO0x2T8G
K6/Bq7ppQMdyT78OwaDBjJDlQC85JcAyr67BDQT6QARaOEEuP7LBqujPQA7gQUG9yrrByhC+QPTy
EUFMslvBScyQQKw9AEHLS1vBtOGzQMpzHEFyYbzB8g3qQHWVHkHkEMHB4Ga9QP+OR0F4rafBsbSZ
QIWENEFcsq3BroeGQOUxHEGzrXbBD5C4QF05FUHxfoHBYE3oQCUB8EBg0W/B+CjSQOsR1kBgrljB
kOfdQOiX/ED8h7XBNI8CQedJEEFJGrDBDJ7nQNXaKkG3t5/BylWwQJdVJ0E9MpzBitdVQFxJ70Dv
5n3BNzp2QL29BEG7FYvBN+7NQFSrqUAChXrBs+2aQAOYs0AsOm7Bo1+nQNZWC0HyZqnBjScEQSPz
Az80lYbBpPnWQHvxaT/j3X/Bzk7YQGErxL653onBWq2CQH6WGkCmoKvBHjFVQONnvz9y2qDBhKiq
QODDdkDECInBXV3AQJnem0APk5PB8CG/QPlmQ0D6aqDBCfBWQMAKVkAM4pPB8JeaQOEUnj97l4/B
KCJoQFX6qkBQtIbB8e14QIIBxECF+pHBJU1VQLQkhUAWaaXB/YQJQZZU6UCqgZPB1hADQTZ9AEGT
f5zBKFf0QHr72kB5EozBchu8QGdH+0A6rJbBp23KQCrsPj+Bo6zBFF2SQN70ML+mUaXB8NDTQMNO
1r90eazB50naQNskBUF76Z3BhFjIQJv75EDRg43B0/2hQPxZGD/yvqfBnHbjQICexr73567BpSir
QAeU6b9svafB+nfbQIr/vj8G5pDBdSK+QKEcG0HG1L3Bdp6sQAhiBkEyImXB3K2fQIMeC0EzVLjB
m3bRQBBGK0FV07XBv8ObQFdqD0GxZXrBIivKQBvS5UCEgmjBdMi2QBdJ/0ADO6/BL6ToQCGAH0E/
z6zBphWFQLEx+0A/bYPByPO0QG0Kw0A4pnbBfHnIQIF9EEGDZKfBgWSkQBje1UDlC4bBl6DlQP6b
Bz/oxYfB1tSIQOX+5z88ZaTB3aCiQFTEkEAujo/BeMyiQOsUKEAILJzBsMOHQH7mcEDSr5fBAdSw
QNFr4D+dTpPBdnSKQNUXtkAz24vBbrj4QEaIBUA2ZZXBMFx3QGBzlEC2M6DB9lUFQcAydr58UrPB
7xycQG6pQ8D8YqXB8z4aQeck4kBcSpLB+bkOQebzBUF/QqLBCUn+QM9KyEA9PoXBr4yaQFV+AEGZ
KpjBcR/WQAWN3T9jo67BbMJmQFFuTr+cmqHBDf3mQO/mIsBRPa7BKlLYQKMnEkFwpMHB+S2sQDn3
I0F7+MPBMLC+QET7EkFdzVzBKTqRQI52AUE3PFvBqvKDQCvPE0HKFrXBI7GUQJaH/kCXOb7BV1To
QMCpNUGtCrrBcqW3QDAXNUEQaLLBzgyFQH12HEHAJnfBG7C2QPaVFUFU9IHBjM/nQBag8EB0UHDB
DtvRQGXS10Bb01jBXz6gQO8i6kD4BKvB+E/RQIEq7ECufLLBYrIBQXQoFkEEHLDBoPf0QGoaK0Ey
9KbB3O5UQNzD7kBaKH3Bl/9wQKg2BEEl84rB7aXMQBL0qUCbHnrBi9aZQB0KtUB34G3BdFCtQLVL
GkHtsKTBEDQEQUw8AT96bobBgXrVQEdiXj9mcIDBb0/aQLjy9L5A3onBDUyCQJb7G0Chc6vBmcxU
QOBvvz9+xaDBKeqpQASid0DyuIjB0KjAQIlVm0BET5PBzPu+QM1HQ0BtM6DBFKJWQGFOVkDytZPB
eVSaQF+MqT+gxI7BkWVmQOPrq0An/IbBffx6QJJsxECoO5LBLNZVQK0qhUD8QqXB

>  <OMEGA_E>  (77) 
1KWNPng8kD7wdJc+WJONPg==

>  <OMEGA_NBR>  (77) 
    307766

$$$$
50214113
     RDKit          3D

 74 77  0  0  1  0  0  0  0  0999 V2000
    8.5347    7.5923  -18.5344 C   0  0  0  0  0  0  0  0  0  0  0  0
    8.0550    8.0437  -19.7763 C   0  0  0  0  0  0  0  0  0  0  0  0
    7.6386    7.1239  -17.5578 C   0  0  0  0  0  0  0  0  0  0  0  0
    5.7820    7.5821  -19.0552 C   0  0  0  0  0  0  0  0  0  0  0  0
    6.3990    0.7839  -21.5743 C   0  0  0  0  0  0  0  0  0  0  0  0
    4.5812   -0.6366  -20.7685 C   0  0  0  0  0  0  0  0  0  0  0  0
    6.6502   -1.6410  -21.5817 C   0  0  0  0  0  0  0  0  0  0  0  0
    6.6645    8.0104  -20.0549 C   0  0  0  0  0  0  0  0  0  0  0  0
    6.2410    7.1611  -17.7956 C   0  0  0  0  0  0  0  0  0  0  0  0
    5.1040    0.6459  -21.0289 C   0  0  0  0  0  0  0  0  0  0  0  0
    7.1750   -0.3585  -21.8390 C   0  0  0  0  0  0  0  0  0  0  0  0
    5.3508   -1.7788  -21.0529 C   0  0  0  0  0  0  0  0  0  0  0  0
    6.7737    1.5316  -18.0006 C   0  0  0  0  0  0  0  0  0  0  0  0
    5.3283    8.2867  -14.2591 C   0  0  0  0  0  0  0  0  0  0  0  0
    7.1538   10.4091  -21.9933 C   0  0  0  0  0  0  0  0  0  0  0  0
    5.8276   10.7288  -21.2650 C   0  0  0  0  0  0  0  0  0  0  0  0
    4.8565    8.9093  -15.5811 C   0  0  0  0  0  0  0  0  0  0  0  0
    6.3373    7.1547  -14.5071 C   0  0  0  0  0  0  0  0  0  0  0  0
    7.0440    8.9385  -22.4295 C   0  0  0  0  0  0  0  0  0  0  0  0
    5.0048    9.4362  -21.3191 C   0  0  0  0  0  0  0  0  0  0  0  0
    4.2001    7.8350  -16.4506 C   0  0  0  0  0  0  0  0  0  0  0  0
    5.7715    6.0800  -15.4673 C   0  0  0  0  0  0  0  0  0  0  0  0
    6.0622    8.3224  -21.4297 C   0  0  0  0  0  0  0  0  0  0  0  0
    5.1843    6.6811  -16.7815 C   0  0  0  0  0  0  0  0  0  0  0  0
    7.0328    0.4700  -16.9370 C   0  0  0  0  0  0  0  0  0  0  0  0
    4.3207    1.8712  -20.6246 C   0  0  0  0  0  0  0  0  0  0  0  0
    5.0851    4.4923  -17.9146 C   0  0  0  0  0  0  0  0  0  0  0  0
    5.0965    2.6398  -19.5373 C   0  0  1  0  0  0  0  0  0  0  0  0
    4.2530    3.7746  -18.9697 C   0  0  2  0  0  0  0  0  0  0  0  0
    5.4693    1.7251  -18.4401 N   0  0  0  0  0  0  0  0  0  0  0  0
    4.3441    5.6602  -17.4381 N   0  0  0  0  0  0  0  0  0  0  0  0
    7.7233    2.0854  -18.5449 O   0  0  0  0  0  0  0  0  0  0  0  0
    3.9104    4.6819  -20.0188 O   0  0  0  0  0  0  0  0  0  0  0  0
    8.4278   -0.2230  -22.3287 F   0  0  0  0  0  0  0  0  0  0  0  0
    4.8453   -3.0076  -20.8056 F   0  0  0  0  0  0  0  0  0  0  0  0
    9.5950    7.6055  -18.3299 H   0  0  0  0  0  0  0  0  0  0  0  0
    8.7455    8.4161  -20.5186 H   0  0  0  0  0  0  0  0  0  0  0  0
    8.0157    6.7344  -16.6237 H   0  0  0  0  0  0  0  0  0  0  0  0
    4.7212    7.5751  -19.2578 H   0  0  0  0  0  0  0  0  0  0  0  0
    6.7933    1.7663  -21.7882 H   0  0  0  0  0  0  0  0  0  0  0  0
    3.5908   -0.7422  -20.3511 H   0  0  0  0  0  0  0  0  0  0  0  0
    7.2441   -2.5188  -21.7897 H   0  0  0  0  0  0  0  0  0  0  0  0
    5.8060    9.0652  -13.6461 H   0  0  0  0  0  0  0  0  0  0  0  0
    4.4579    7.8805  -13.7229 H   0  0  0  0  0  0  0  0  0  0  0  0
    7.2767   11.0613  -22.8705 H   0  0  0  0  0  0  0  0  0  0  0  0
    8.0075   10.5448  -21.3130 H   0  0  0  0  0  0  0  0  0  0  0  0
    6.0224   11.0165  -20.2213 H   0  0  0  0  0  0  0  0  0  0  0  0
    5.2954   11.5442  -21.7769 H   0  0  0  0  0  0  0  0  0  0  0  0
    4.1274    9.7056  -15.3708 H   0  0  0  0  0  0  0  0  0  0  0  0
    5.7199    9.3341  -16.1141 H   0  0  0  0  0  0  0  0  0  0  0  0
    7.2499    7.5816  -14.9487 H   0  0  0  0  0  0  0  0  0  0  0  0
    6.5827    6.6795  -13.5459 H   0  0  0  0  0  0  0  0  0  0  0  0
    6.6542    8.8639  -23.4554 H   0  0  0  0  0  0  0  0  0  0  0  0
    8.0231    8.4404  -22.3721 H   0  0  0  0  0  0  0  0  0  0  0  0
    4.4055    9.3162  -20.4045 H   0  0  0  0  0  0  0  0  0  0  0  0
    4.3406    9.4325  -22.1958 H   0  0  0  0  0  0  0  0  0  0  0  0
    3.3343    7.4214  -15.9127 H   0  0  0  0  0  0  0  0  0  0  0  0
    3.8619    8.2953  -17.3908 H   0  0  0  0  0  0  0  0  0  0  0  0
    6.5822    5.3853  -15.7319 H   0  0  0  0  0  0  0  0  0  0  0  0
    4.9733    5.5308  -14.9465 H   0  0  0  0  0  0  0  0  0  0  0  0
    5.6084    7.4158  -21.8566 H   0  0  0  0  0  0  0  0  0  0  0  0
    8.1170    0.3438  -16.8005 H   0  0  0  0  0  0  0  0  0  0  0  0
    6.5778    0.7849  -15.9863 H   0  0  0  0  0  0  0  0  0  0  0  0
    6.5901   -0.4849  -17.2568 H   0  0  0  0  0  0  0  0  0  0  0  0
    4.1769    2.5204  -21.5009 H   0  0  0  0  0  0  0  0  0  0  0  0
    3.3405    1.5661  -20.2295 H   0  0  0  0  0  0  0  0  0  0  0  0
    5.2811    3.8113  -17.0733 H   0  0  0  0  0  0  0  0  0  0  0  0
    6.0399    4.8156  -18.3548 H   0  0  0  0  0  0  0  0  0  0  0  0
    6.0064    3.0635  -19.9874 H   0  0  0  0  0  0  0  0  0  0  0  0
    3.3482    3.3593  -18.5019 H   0  0  0  0  0  0  0  0  0  0  0  0
    4.7396    1.2141  -17.9859 H   0  0  0  0  0  0  0  0  0  0  0  0
    3.6569    5.3495  -16.7814 H   0  0  0  0  0  0  0  0  0  0  0  0
    3.8892    6.0843  -18.2211 H   0  0  0  0  0  0  0  0  0  0  0  0
    3.3919    4.2287  -20.6733 H   0  0  0  0  0  0  0  0  0  0  0  0
  1  2  2  0
  1  3  1  0
  2  8  1  0
  3  9  2  0
  4  8  2  0
  4  9  1  0
  5 10  2  0
  5 11  1  0
  6 10  1  0
  6 12  2  0
  7 11  2  0
  7 12  1  0
  8 23  1  0
  9 24  1  0
 10 26  1  0
 11 34  1  0
 12 35  1  0
 13 25  1  0
 13 30  1  0
 13 32  2  0
 14 17  1  0
 14 18  1  0
 15 16  1  0
 15 19  1  0
 16 20  1  0
 17 21  1  0
 18 22  1  0
 19 23  1  0
 20 23  1  0
 21 24  1  0
 22 24  1  0
 24 31  1  0
 26 28  1  0
 27 29  1  0
 27 31  1  0
 28 29  1  0
 28 30  1  0
 29 33  1  0
  1 36  1  0
  2 37  1  0
  3 38  1  0
  4 39  1  0
  5 40  1  0
  6 41  1  0
  7 42  1  0
 14 43  1  0
 14 44  1  0
 15 45  1  0
 15 46  1  0
 16 47  1  0
 16 48  1  0
 17 49  1  0
 17 50  1  0
 18 51  1  0
 18 52  1  0
 19 53  1  0
 19 54  1  0
 20 55  1  0
 20 56  1  0
 21 57  1  0
 21 58  1  0
 22 59  1  0
 22 60  1  0
 23 61  1  0
 25 62  1  0
 25 63  1  0
 25 64  1  0
 26 65  1  0
 26 66  1  0
 27 67  1  0
 27 68  1  0
 28 69  1  6
 29 70  1  1
 30 71  1  0
 31 72  1  0
 31 73  1  0
 33 74  1  0
M  CHG  1  31   1
M  END
>  <OMEGA_C>  (78) 
8o0IQYP08kBzRpTBY+EAQS2zAEHeNZ7Bym/0QL3240BddozB9gW5QC6g8kAjcZjBPsTMQLCsSD9D
mKzBhZmSQLf2Ir/6JabBx87UQP4L0r9Qp6zB9EPVQHMqAEF2cKDBabbHQO4n5UBvXY7BnVOjQNtc
JT9HO6jBY5nlQCKTt75Otq7BZTmrQLKu479hbKjBgMLYQBgNxD8iAZDBbYGqQFSWBEEbJWTBHOzk
QLGLJkFK8q/BS3u6QC2pK0HDHqrBaWibQIqMDkFETHnB/srKQD3z5EApHWjBOWjhQPQDD0GGb7PB
nCegQLD6FkF2jarB1maGQHO4+kDumoPBu6+4QKmPwkD9eXfBWf3BQKAoBUEPcKvBjOWlQIfL1UCG
QIbBcwzhQDKi8D79fofBJkOKQGSD7z8q/6TB8LiiQPLAj0AIUY/BWRajQN3yKEB2TJzB+hiIQGiT
cUDgwZfBNgSvQPzQ3D9ghZPBOAOLQDYgtUAngYvB8iT3QPJ3BUD0W5TBcEN6QFbSlUCJJqDBJdgG
QUhbZL4jobLBowybQNp7QMDjcabBRoUZQW1g80Cqo5LBfu0LQWGoBkEbJqTBM0AAQZOA10BE/YTB
vxOXQG9n8kDrD5rB3WLZQIwW4j8jTq7Bxc9lQAL/Pb/6zqLBcc/nQF8zIcBmUa7Bdcq5QCMLEUFW
VlrBOqeOQDEt/EAXkVvBBdvoQCb7MEHV9rbBux4AQZC3KEEHgarBerfAQGZDMEFIxaHBMnSpQAu1
OEECN67BWxOEQElKG0HP7nXBcAm3QJ1YFUGn6YDBzf7nQHSc8kC3LW/BUaXSQMO+1UDfu1jBZe/U
QJ3SDUGipLvBgV4AQd0LB0EH+rLBLfqMQFEPFUFoPKPB3uWKQIvrFkEWkbHBfWRVQFl87UCWmn7B
ISp3QIq5BEFLIIvBrKHSQItUrECttXvBNCWfQPv7sEDIJG/BZHizQF5O7UBA2q7BC98BQWcMsD5w
Z4bBmn3SQFnwSD/dx3/BueHSQKk/+L7tDYrBHKmFQPNNIUDNAazBkspVQG52yD/31aHBr/6oQCfs
c0AJlojB/UbBQCsZmkCQ1pLBSzTAQDQQREA+5p/BukhWQEf/VkD8A5TBfKqXQFNmmz8S44/BSAtq
QPEuq0BLQIbBn+h4QDSywkDexJHBqBRZQLNRh0DRYqXBc9ELQUzT7kD4HJLBj8UGQddiAEGAEZzB
0vz2QHZk4EDjS4vBLJ7BQJAo90DySZjBP4zMQNgkWD+HoKzBBiKVQN8SKr9l8qXBAY7XQCCjyL9j
N63BgrTiQNTCAUFqcJ/Bm13LQBa95UBbGY7BLPSjQEptJD+n76fBKXbmQOUwhb5qLK/BXNKuQDVO
4r94pKjBg1naQBDrwT/tLJDBBOCnQN/5AkFiWGPBMq+sQMuqKEHLkKbBeNSPQBBjF0Him6vBFKKc
QGBNDkE5cHjBYe3GQCC64EAFN2fB2PTZQLYzI0HnT6rB2+KtQC4cBUFeNq/B5RWIQO7s/EDVC4TB
vxe1QCMFwUCq+HfBcjbaQCq8CkHio6rBaGSmQIYM10AvpobB/jvkQCFO0T5PI4jBaJaJQJ1+6T8a
ZKTBimWiQHhAkUBHp4/B82KiQDHNJ0Dn3ZvBKaOGQNj/bkB4Q5fBtPWvQMfI3D+CHZPB/aqLQIFD
uEBaiozBNeP3QJu+BUCBt5TBP2dvQLhdkkB6t5/BK+MGQRz0hL3CaLPBioqgQCROQcD/tabBd1Yc
QSYV7EA+rI/Bi2UTQQNHBkH+LaHBATP/QNUK0UAm1YPBoJigQPkS+0B3pJrBN67XQEBR7D/jQa7B
rytsQGtvUb9NW6LBP1rrQEGnGsDiOK/B3uK2QNaNDkFWa1jBuV2KQDV7+UBtDVzB5lSjQGutOEHq
X6nBc6qqQOsVKEHvyJ3B3FtxQJ1wEUEtr6XBiBp9QBP8HUGkh7LBMguGQBxmG0EPLHXBZPy5QLrc
FEFXmn/BDJPlQNeY7UCXAW3BLxjMQNGgz0CnDFjBKTXgQHDtKUHuSrLBn/fxQME9KUE3oaTB/8Oi
QHJk60A4AKzB7yuvQKlBBEED/7fBqxNVQIlE8EC7dYDB9E+AQCLsBkGpg4vBITzOQKWaqUCOzHvB
sG+ZQKVfsEDZ83DBbDvzQHYtBUHmK7DBm4sDQZ8+jT7HhofBFkHXQMMqLz+vQoDBTXnVQM0HCL+4
1IrBsf6CQOw1HkAnT6vBEmVWQMwSvD//+aDBL1upQJ4WfEC7fIjBt4/AQFDRmUDKppPBFcS+QKV7
REBDpJ/BKE9XQL7XUkCb15LBwDyZQKZvnj8wDI/ByeJlQNUNsEAh5YfBfNCAQCaHxkDvKpPBnrVM
QH4fgkDKdKTBTooJQVX160AVS5TBsmoDQVTxBEFWGpzBC3X0QChw2kCBU43Bif28QEOsAUGJTJbB
DVTMQGcvRz9DhazBIi2TQG4dLL/l7KXBmHHVQJs70r+utazBzETbQObXCkEORZ3BGvbIQM8Q50D6
DY7B+zSjQDYyHj/uBKjB7ovlQD8CtL7xxa7B3TOsQBaV5r/CUajBcTjZQMicvj9GFpDBWHmuQPPj
A0H6KGTBRpqtQFHpBUE4qLLB8UvcQHvyCkEE4bXBWaObQFLuDUGWjXjBblLNQFG64kBwYWnBhbWh
QLtaF0G9jKrB+VHpQEliHkGJC6/BLbOFQA0t+UCZ/ILBtO63QJAOwUAxA3jBncHMQJSdHEH8E6XB
GdylQKW21UD2b4bB0wbiQK8ozT4L04fBX7aJQGTy6T/rrqTB1/uiQGRlkEC5rY/BOqiiQLf4JkAx
FpzBSnOHQD0sb0CyjJfBjDCvQGwT2j8vTJPB6rSLQLmctkBTUozBEFH3QD88A0A+gZTBmxl0QIMw
k0DjBKDBca4GQZLRSL540LLBC9OcQORqQsDrQKbBkBcaQdhg4kCQpJPBnV8PQWj+C0GqP6HBJhX+
QMk/w0CQY4fBBpSbQGmaBUFmTpfBWGXYQO404j8wO67BLGxnQI48S7+MfKLBcrfoQA6wIMBSfq7B
LATAQMpEEEHnPFvBUCWUQDBz+0DbPFrB4GmYQCugBkHQrLnBjmqrQL/u60DX+K7Bvi7xQDtr+kAC
JrTBjDLeQK3eDkHHcb7BBRKEQJc6GkFvHnTB+nu1QJJOFUHq+YDBAa/pQGC070AVinHBeSPXQJI0
00DBXVrBrpaUQBKGJUFCnK7BLk2KQMxZEUH5s6TBnq4FQfaIHUFW2azBxiHjQBhrLUHFWbPBevtX
QBuE6kDXcXzBrudvQJT/A0HcMIrBis7PQKG1qED5YHzBCIKdQJvPsUCJO2/BWdvKQGQYLEHs6qDB
2GMCQY6ihz4G8obB9THUQIIeMj+OFYDBznHTQN4tC7/ee4rB90yEQDFfHkDTq6vBT3RVQI63wD/U
ZaHBnu2pQCKYeEB4qojBiizBQGrBmUAwjZPBGoC/QMF8QkDExp/BIFNXQPENVEAFWJPBxACYQD94
mz/LaY/BoP9mQP+GrUCum4fBkBKAQI/8xEC52ZLBMLRRQEWTg0D666TB

>  <OMEGA_E>  (78) 
sDN1PlC2fz5gtmc+

>  <OMEGA_NBR>  (78) 
    311566

$$$$
50212929
     RDKit          3D

 74 77  0  0  1  0  0  0  0  0999 V2000
    8.5308    7.3433  -18.4084 C   0  0  0  0  0  0  0  0  0  0  0  0
    7.5516    6.8055  -17.5566 C   0  0  0  0  0  0  0  0  0  0  0  0
    8.1564    8.0409  -19.5694 C   0  0  0  0  0  0  0  0  0  0  0  0
    5.8152    7.6228  -19.0546 C   0  0  0  0  0  0  0  0  0  0  0  0
    6.4112    0.4233  -21.5829 C   0  0  0  0  0  0  0  0  0  0  0  0
    4.5428   -0.9712  -20.8509 C   0  0  0  0  0  0  0  0  0  0  0  0
    6.6092   -2.0039  -21.6360 C   0  0  0  0  0  0  0  0  0  0  0  0
    6.9875    6.4836  -13.5187 C   0  0  0  0  0  0  0  0  0  0  0  0
    6.1755    6.9520  -17.8671 C   0  0  0  0  0  0  0  0  0  0  0  0
    6.0827    6.6744  -14.6681 C   0  0  0  0  0  0  0  0  0  0  0  0
    6.7869    8.2036  -19.8976 C   0  0  0  0  0  0  0  0  0  0  0  0
    5.1014    0.3043  -21.0737 C   0  0  0  0  0  0  0  0  0  0  0  0
    7.1685   -0.7282  -21.8496 C   0  0  0  0  0  0  0  0  0  0  0  0
    5.2926   -2.1245  -21.1463 C   0  0  0  0  0  0  0  0  0  0  0  0
    5.7560    8.0086  -14.7051 C   0  0  0  0  0  0  0  0  0  0  0  0
    6.6056    1.2135  -18.0024 C   0  0  0  0  0  0  0  0  0  0  0  0
    5.5519    5.6848  -15.6744 C   0  0  0  0  0  0  0  0  0  0  0  0
    4.8365    8.6289  -15.7353 C   0  0  0  0  0  0  0  0  0  0  0  0
    4.0911    7.5496  -16.5357 C   0  0  0  0  0  0  0  0  0  0  0  0
    5.0470    6.4075  -16.9612 C   0  0  1  0  0  0  0  0  0  0  0  0
    6.7571    0.1381  -16.9307 C   0  0  0  0  0  0  0  0  0  0  0  0
    7.4836    9.7072  -21.8683 C   0  0  0  0  0  0  0  0  0  0  0  0
    5.2238    9.9730  -20.8304 C   0  0  0  0  0  0  0  0  0  0  0  0
    5.7663    7.8962  -22.1704 C   0  0  0  0  0  0  0  0  0  0  0  0
    4.3166    1.5434  -20.7292 C   0  0  0  0  0  0  0  0  0  0  0  0
    4.9196    4.2350  -18.0642 C   0  0  0  0  0  0  0  0  0  0  0  0
    5.0742    2.3604  -19.6649 C   0  0  1  0  0  0  0  0  0  0  0  0
    4.3014    3.6337  -19.3087 C   0  0  1  0  0  0  0  0  0  0  0  0
    6.3296    8.9372  -21.1737 C   0  0  0  0  0  0  0  0  0  0  0  0
    7.1835    7.6505  -12.9439 N   0  0  0  0  0  0  0  0  0  0  0  0
    6.4559    8.5425  -13.6594 N   0  0  0  0  0  0  0  0  0  0  0  0
    5.3294    1.5130  -18.4764 N   0  0  0  0  0  0  0  0  0  0  0  0
    4.2316    5.4802  -17.7488 N   0  0  0  0  0  0  0  0  0  0  0  0
    7.6113    1.6798  -18.5279 O   0  0  0  0  0  0  0  0  0  0  0  0
    2.9186    3.3776  -19.0832 O   0  0  0  0  0  0  0  0  0  0  0  0
    8.4292   -0.6059  -22.3208 F   0  0  0  0  0  0  0  0  0  0  0  0
    4.7466   -3.3476  -20.9645 F   0  0  0  0  0  0  0  0  0  0  0  0
    9.5768    7.2199  -18.1697 H   0  0  0  0  0  0  0  0  0  0  0  0
    7.8479    6.2784  -16.6618 H   0  0  0  0  0  0  0  0  0  0  0  0
    8.9163    8.4555  -20.2152 H   0  0  0  0  0  0  0  0  0  0  0  0
    4.7720    7.6934  -19.3250 H   0  0  0  0  0  0  0  0  0  0  0  0
    6.8318    1.4008  -21.7676 H   0  0  0  0  0  0  0  0  0  0  0  0
    3.5423   -1.0625  -20.4547 H   0  0  0  0  0  0  0  0  0  0  0  0
    7.1896   -2.8898  -21.8474 H   0  0  0  0  0  0  0  0  0  0  0  0
    7.4167    5.5443  -13.2025 H   0  0  0  0  0  0  0  0  0  0  0  0
    6.3549    4.9844  -15.9475 H   0  0  0  0  0  0  0  0  0  0  0  0
    4.7169    5.1277  -15.2243 H   0  0  0  0  0  0  0  0  0  0  0  0
    4.1017    9.2670  -15.2226 H   0  0  0  0  0  0  0  0  0  0  0  0
    5.4338    9.2406  -16.4274 H   0  0  0  0  0  0  0  0  0  0  0  0
    3.2875    7.1312  -15.9120 H   0  0  0  0  0  0  0  0  0  0  0  0
    3.6558    8.0073  -17.4363 H   0  0  0  0  0  0  0  0  0  0  0  0
    7.8245   -0.0773  -16.7750 H   0  0  0  0  0  0  0  0  0  0  0  0
    6.3138    0.4941  -15.9890 H   0  0  0  0  0  0  0  0  0  0  0  0
    6.2418   -0.7779  -17.2554 H   0  0  0  0  0  0  0  0  0  0  0  0
    7.1003   10.2090  -22.7690 H   0  0  0  0  0  0  0  0  0  0  0  0
    7.8919   10.4583  -21.1760 H   0  0  0  0  0  0  0  0  0  0  0  0
    8.2773    9.0004  -22.1521 H   0  0  0  0  0  0  0  0  0  0  0  0
    4.9063   10.4892  -21.7484 H   0  0  0  0  0  0  0  0  0  0  0  0
    4.3620    9.4550  -20.3844 H   0  0  0  0  0  0  0  0  0  0  0  0
    5.6200   10.7085  -20.1147 H   0  0  0  0  0  0  0  0  0  0  0  0
    5.4358    8.4067  -23.0869 H   0  0  0  0  0  0  0  0  0  0  0  0
    6.5503    7.1660  -22.4199 H   0  0  0  0  0  0  0  0  0  0  0  0
    4.9124    7.3753  -21.7127 H   0  0  0  0  0  0  0  0  0  0  0  0
    4.1841    2.1553  -21.6337 H   0  0  0  0  0  0  0  0  0  0  0  0
    3.3313    1.2540  -20.3348 H   0  0  0  0  0  0  0  0  0  0  0  0
    4.8155    3.5326  -17.2241 H   0  0  0  0  0  0  0  0  0  0  0  0
    5.9860    4.4375  -18.2428 H   0  0  0  0  0  0  0  0  0  0  0  0
    6.0410    2.6601  -20.0955 H   0  0  0  0  0  0  0  0  0  0  0  0
    4.4159    4.3495  -20.1360 H   0  0  0  0  0  0  0  0  0  0  0  0
    6.4329    9.5176  -13.4390 H   0  0  0  0  0  0  0  0  0  0  0  0
    4.5430    1.1353  -17.9876 H   0  0  0  0  0  0  0  0  0  0  0  0
    3.4053    5.2636  -17.2289 H   0  0  0  0  0  0  0  0  0  0  0  0
    3.9782    5.9290  -18.6057 H   0  0  0  0  0  0  0  0  0  0  0  0
    2.5342    3.0005  -19.8659 H   0  0  0  0  0  0  0  0  0  0  0  0
  1  2  2  0
  1  3  1  0
  2  9  1  0
  3 11  2  0
  4  9  2  0
  4 11  1  0
  5 12  2  0
  5 13  1  0
  6 12  1  0
  6 14  2  0
  7 13  2  0
  7 14  1  0
  8 10  1  0
  8 30  2  0
  9 20  1  0
 10 15  2  0
 10 17  1  0
 11 29  1  0
 12 25  1  0
 13 36  1  0
 14 37  1  0
 15 18  1  0
 15 31  1  0
 16 21  1  0
 16 32  1  0
 16 34  2  0
 17 20  1  0
 18 19  1  0
 19 20  1  0
 20 33  1  6
 22 29  1  0
 23 29  1  0
 24 29  1  0
 25 27  1  0
 26 28  1  0
 26 33  1  0
 27 28  1  0
 27 32  1  0
 28 35  1  0
 30 31  1  0
  1 38  1  0
  2 39  1  0
  3 40  1  0
  4 41  1  0
  5 42  1  0
  6 43  1  0
  7 44  1  0
  8 45  1  0
 17 46  1  0
 17 47  1  0
 18 48  1  0
 18 49  1  0
 19 50  1  0
 19 51  1  0
 21 52  1  0
 21 53  1  0
 21 54  1  0
 22 55  1  0
 22 56  1  0
 22 57  1  0
 23 58  1  0
 23 59  1  0
 23 60  1  0
 24 61  1  0
 24 62  1  0
 24 63  1  0
 25 64  1  0
 25 65  1  0
 26 66  1  0
 26 67  1  0
 27 68  1  6
 28 69  1  6
 31 70  1  0
 32 71  1  0
 33 72  1  0
 33 73  1  0
 35 74  1  0
M  CHG  1  33   1
M  END
>  <OMEGA_C>  (79) 
/n0IQRv86kBoRJPBzqbxQLDG2UDwc4zBlIACQaynAEEIjpzBUBa6QJLt80Djb5jBvSjNQG7A2D6y
qazB8F6RQDCieL+wzqbB1X7TQH0/AMBvFq3BxpnfQIN5z0CaTFjB6Z3FQBV33kDm747BmqXCQIWU
1UCAsGrBki7ZQCJCA0FELp/BxD6jQKbMmz7/lqjBlWTlQK1rOr8MzK7BAl2pQDP4B8CbK6nBBjG4
QEQjAEEUSGvBeGHTQHZVmz/TBJDB0aixQKbptUBsynrBdcSaQPUPCkHcw3vBo+qCQHaW8UAwSYTB
+IChQIEKzUCesIfB5znYQOhuDT4ecofB03nvQNZQG0FC8q7BXymnQJaRH0GVpKbBloW4QG+t/EDo
XLHBNyGKQAqOxT9p1aXBr22dQPCEh0CUg5DBhl+iQHwRF0CpUZ3B+aSJQOeNaEAieJrBcIzKQJP+
DkHRY6nBA9/lQLzQ9EAcGk/B8JbOQPStCEHxjFrBWYqqQNuqwT+uz5PBJ2mHQG1dr0B0/Y3BIpDz
QDoF1z8SOZTBqMo6QHsqWEBxqpjBEd4GQSMeG7/1kLLBZuSXQAU/VsBat6fBlToZQRoJ50CbW5HB
/SH7QKToyEBES4XBEakOQcRJB0G0uKHBO7SYQF0w9kCVmZrBH57aQOpMsz8AJK7BX7ViQGsBiL8l
o6PBBxHmQJPyOMCNx67Ba1XtQPxqsUBlPVPBpVvLQGaAn0D7KH/B1vCWQHoWpEDulnPBG0GDQM9F
FEHZj3PBauGtQK3ZE0Ffa4PBQWZSQNoy5EBzl37BEPhpQAQeAEF3fYvB+mH6QNxWnr0bM4bBPgrK
QIf0/D4T03/BAb3HQC4mR7/1CorB5jXjQPFXI0H+JrbBHIr8QD1VJ0GAaKnBtG8EQcQBEEF+N7HB
sgCdQKnTJ0HC/K3BWZWLQH5HF0FTE6PB29azQP1VK0Hu6qDBBPKtQAOCBkEFsrjBwpvRQOxP5UD3
W7PBFjKdQGEC7ECYs63BF+SFQEDwCUC9Ea3BjDRVQNiCoD+ZraLBwBiaQMoWYkDqyonBII2/QD4A
jkBX8ZHBwE/BQFk/KkCZw6DBcE+NQEAvi0BxFqHBjtrNQBRIGEH+BVfBQWCRQKZQkT+u5o/B2u9Z
QBlvqEC71InBopp+QEm6vUB02JTB0zAiQBAIQEBP7Z7BuzsIQV5L60DHG5PBOSDxQHXl2UBYVIzB
H0ACQU3LAEFnZpzB4JG5QO8c9EBeTpjBqSORQMwBfb+1v6bBwPnMQMVv0j63f6zBJWXTQKYRAcBs
+qzBvVTgQCmGz0DZm1jBPRbFQDqM3kDA0o7BcH3CQC9r1UDiqWrB0q7YQDZcA0GJCp/B+euiQMav
kz6bhajBXkmpQK32CMABDanBRUrlQDZZPb8yoq7B29e3QKQJAEGxLWvB23bTQC6fmz/p54/B6Dax
QISxtUAirnrByg6aQLfsCUGohXvBxESCQFJA8UBrLITB1/agQKvUzEAtn4fBcifZQO+9KT7sKIfB
+py4QPGv/EBLSLHBg/HuQKqSG0HlvK7BoEimQNdtH0G+j6bB9p6JQAAPwz+pwqXBYu6dQIfah0Bo
xJDB+U2hQN1iFUAWHZ3B9uGGQCZ0Y0Da3ZnBxxfKQDAND0FTQ6nBI6nmQD/j9EA1cU/Bg7jOQMOj
CEEHpFrBiG6qQByfvD/EvZPBDhSHQOb7rkAP9o3BQD7zQH/l2T/UJpTBowI6QBJtS0BvgpbB9x6Y
QDRNV8CJbafBV+oGQX6QHb/rQ7LBUPcYQSuE50BJK5HBw5j6QL3nyEAjMIXBWGkOQfxxB0Eqj6HB
qS+YQINx9kDBdprByxhiQCh4ir9SoaPBn3raQNrcsT8M563BoPPlQBmxOcAuuK7By5PuQNGUsUAg
vVPBLMfKQEoon0A6Fn/BwH6WQN0CpEBuZHPBBIGCQKACFEHYMXPBc+KsQI7VE0EgToPBjk9RQJy3
40BgWX7BNmloQErp/0AvXIvBVnn7QC/wc7yt14XBW3zKQM3CBj/AZX/BtJfJQNduRb8PoonBVROu
QMB9BkHUn7jBX/vRQBmW5UB5P7PBi1qdQIW460AOra3Bhr3iQD+RI0Gv9bXBa5r7QO+hJ0ERKqnB
alAEQahlEEFg+LDBAyecQDmpJ0Fn6q3B4MiKQFP7FkGEDKPBb46yQJk9K0HWzaDBn72FQOQnCUAP
+KzBQeJTQGRinT9Qu6LB3wyfQG3vZEB/yInBI7q+QP/Xj0A1Q5PBNcG/QG3jK0AmhKDBMf+EQPa+
h0BRt6DBn9vNQC47GEEDE1fBqa+RQMjLhj/u8Y/BUzZaQEEZp0BVuYnBQUt8QCaovUD8tZTBBTMd
QKKqL0B0O5zBIl4IQWW06kASJJPBV3bxQHp12UAwUIzBD1UCQcBkAEEBdpzBK9C5QDEd80CtVpjB
jFyQQFite79fzqbB9SrMQKRx1T7akazBTb3SQLC1AMBg86zB7fHfQGCuz0CLUFjB+WjFQKPs3UBp
0I7Bs5PCQDJs1UAHk2rBVNDYQDbSAkGQG5/B+xKiQN1Nlj7/m6jBrpOoQHGbCMDeD6nBZ5LkQAjt
O7+mpq7BwBG4QMkNAEE7SWvBRMLTQD/rnT8484/B13uxQPJ+tUDCjXrBEmWaQEnXCUHfvHvBd5WC
QD3m8EAwNoTBYkuhQIlizED9lofBUanaQIJWJD6qcIfBVvDuQP9iGkHFEa/BS6GnQJqeH0HnXabB
80+2QMVA/ECeH7HB28mIQMh+wz8ax6XBlcaeQDjmh0CR+JDBHICgQEaQFEDrDp3BT3qFQLFiYEBN
apnBYevJQEiYDkG3R6nB9FzmQPgv9UDMTk/B48bOQCvACEEvvVrBQZqqQDhguD9a35PBi2iHQIdW
rkC83I3BCefyQN185D+F+ZPBiHI7QKp4REDhCZXBW2CXQDjuVsCLdKfBzo0GQQJzHL9wSrLBahwZ
Qa/55kDpN5HBa/76QKu+yEDXIoXB23UOQT0QB0EsoqHBsmuYQNU19UC4gJrBjoJgQPTWib+zsqPB
Y5/ZQIKesj8rAK7BwWPlQChVOcDRoK7Bv9XtQGa7sUD6M1PBAyTLQJz/nkCG337BU8aWQCTMo0An
RHPB0tuCQMQGFEErhXPBQU6tQIGhE0G5coPBoPRRQKOE40CeXn7BgAVpQCtW/0DYbIvB/Sf9QBEi
4DxUDIbBkxPLQHNx8D735H/BHLfMQFgHSr/MMIrBAXbiQJB2IkEqPbbBkgn9QBxRJkHepKnBassD
QXq+DkEzbrHBpDCdQCzwJ0Feq63BXP+LQL+zF0F0nqLBl2q1QHxGK0HnvqDB+5KrQMlhBkHAarjB
RJPOQAst5ECKObPBWdqaQCtm7EBJTa3BIguFQBb9CUD876zBcRlSQGCznT9ay6LBLjKjQHVeZkBF
8YnBMTm+QLzpkEApOJTBfYS+QCoYLUBye6DBIO9/QAGPhUCNRaDBVQrOQNNgGEGlU1fB1WWSQCg4
dz/JRZDBjy1cQA6hpUA2e4nB6td6QOgyvUAmfpTBNdgbQIy6JkCFXJrBwFcIQYkc6kDOWJPBwGrx
QJwM2UDufIzBC00CQc1TAEE0mJzBCba5QMTr80DkUpjBjwnMQMR7zj5KaKzBD4aQQFw5gL8OiabB
N7vSQDGKAcBa26zB9QngQBRPz0CTcljBGlfFQME43kBY347BuqfCQN071UCOr2rBab3YQOIfA0Et
IJ/BHBCiQL+FjT4gX6jBInjkQKDZPr9mi67B6ayoQMOnCcCV5qjBFwW4QJLj/0AoP2vByfLTQEmE
nj/cApDBtIOxQJV5tUATuXrBSUuaQLTLCUHTo3vBpoCCQKnr8EBqNITBDUOhQKOLzEBrpYfBKw3b
QJ6WFz56qIfBX3i3QG7V/EClQLHBosvuQEs+G0G64q7BdramQPGOH0GNbKbBtImIQBgcwT83naXB
p72eQLQyiECBEZHB+lOgQMyaFEBpCJ3BIliFQNCyYEDHd5nBauvJQOL1DkGWSKnBoFnmQIKz9EAr
Tk/BxLHOQNWOCEFzpFrBMaaqQDg9uj8IypPBP16HQDaWrkA68I3B4PzyQPQB5T+fF5TB1h07QOg5
RUD0EJXBMm0GQbV7Hr/uR7LB0WOXQEEKWMAoaKfBaxcZQVnh5UCzgJHBK/r6QDHux0CGX4XBGm4O
QXfkBkHFzKHBjkaYQOaT9kASaJrBqWDZQDwIsT9X2q3BZDJhQJ+XjL9wUaPB7l3lQHwQOsBgmK7B
agPuQF9TsUDYcVPB0yfLQF0Dn0CTHH/B79KWQPK2o0DDdHPB1b6CQKzsE0GJXHPBjiqtQJGnE0GF
YIPB0OVRQGlg40B8YH7BvLloQGGA/0BZZIvBJZb9QJgJQDu0aYbBFQLMQJke5T5NEoDBcavMQKrm
Sr95d4rBWsKsQLSrBkGJjLjBCV7QQBFd5UCpUbPBkCqcQAVC7EADjq3BKGTiQEJZI0ETDrbBdB/8
QFwxJ0GmWanBkAMEQXHlD0HZOLHBmV+cQG3oJ0ENuq3BwjKLQH5FF0EU06LBJqOzQEM/K0FysaDB
u2OEQF39B0Bt1KzBw/RRQBLsmj+AiKLBtl+jQEkUZ0C/CYrBURe+QN9GkUAvXZTBJkC+QPbaLEDp
iaDBWcp/QIuIhUDPXKDBYuPNQGUpGEFtIFfBBXySQKlWfz+eCJDBoBZcQILVpUCHkInB98Z6QAuF
vUA4j5TBX2obQIxOJ0BJXZrB

>  <OMEGA_E>  (79) 
vEOWPgQ4mj6owpo+WPmaPg==

>  <OMEGA_NBR>  (79) 
      4945

$$$$
50168357
     RDKit          3D

 68 71  0  0  1  0  0  0  0  0999 V2000
    8.4007    6.9638  -18.5765 C   0  0  0  0  0  0  0  0  0  0  0  0
    7.5055    6.5676  -17.5646 C   0  0  0  0  0  0  0  0  0  0  0  0
    7.9395    7.7035  -19.6797 C   0  0  0  0  0  0  0  0  0  0  0  0
    5.6583    9.3362  -22.8937 C   0  0  0  0  0  0  0  0  0  0  0  0
    5.6900    7.6760  -18.7454 C   0  0  0  0  0  0  0  0  0  0  0  0
    6.2318    0.6547  -21.6327 C   0  0  0  0  0  0  0  0  0  0  0  0
    4.5515   -0.8429  -20.6823 C   0  0  0  0  0  0  0  0  0  0  0  0
    6.6133   -1.7536  -21.6173 C   0  0  0  0  0  0  0  0  0  0  0  0
    4.8609   10.1417  -21.9407 C   0  0  0  0  0  0  0  0  0  0  0  0
    6.4403    8.4925  -22.1510 C   0  0  0  0  0  0  0  0  0  0  0  0
    6.1346    6.9344  -17.6295 C   0  0  0  0  0  0  0  0  0  0  0  0
    4.9830    0.4612  -21.0043 C   0  0  0  0  0  0  0  0  0  0  0  0
    6.5786    8.0661  -19.7615 C   0  0  0  0  0  0  0  0  0  0  0  0
    7.0484   -0.4507  -21.9318 C   0  0  0  0  0  0  0  0  0  0  0  0
    5.3636   -1.9491  -20.9952 C   0  0  0  0  0  0  0  0  0  0  0  0
    6.5793    1.1403  -17.9375 C   0  0  0  0  0  0  0  0  0  0  0  0
    5.4168    8.0267  -14.1114 C   0  0  0  0  0  0  0  0  0  0  0  0
    4.8151    8.6331  -15.3904 C   0  0  0  0  0  0  0  0  0  0  0  0
    6.3705    6.8589  -14.4298 C   0  0  0  0  0  0  0  0  0  0  0  0
    4.0990    7.5411  -16.1947 C   0  0  0  0  0  0  0  0  0  0  0  0
    5.6887    5.7943  -15.3185 C   0  0  0  0  0  0  0  0  0  0  0  0
    5.0843    6.4151  -16.6164 C   0  0  0  0  0  0  0  0  0  0  0  0
    6.7946   -0.0668  -17.0295 C   0  0  0  0  0  0  0  0  0  0  0  0
    4.1808    1.6588  -20.5468 C   0  0  0  0  0  0  0  0  0  0  0  0
    5.0089    4.2536  -17.8129 C   0  0  0  0  0  0  0  0  0  0  0  0
    4.9571    2.3877  -19.4294 C   0  0  1  0  0  0  0  0  0  0  0  0
    4.1365    3.5259  -18.8247 C   0  0  2  0  0  0  0  0  0  0  0  0
    5.1488    9.7539  -20.7186 N   0  0  0  0  0  0  0  0  0  0  0  0
    6.0829    8.7747  -20.8533 N   0  0  0  0  0  0  0  0  0  0  0  0
    5.2873    1.4235  -18.3620 N   0  0  0  0  0  0  0  0  0  0  0  0
    4.2570    5.4045  -17.2967 N   0  0  0  0  0  0  0  0  0  0  0  0
    7.5504    1.7228  -18.4082 O   0  0  0  0  0  0  0  0  0  0  0  0
    3.7425    4.4503  -19.8390 O   0  0  0  0  0  0  0  0  0  0  0  0
    8.2592   -0.2588  -22.5015 F   0  0  0  0  0  0  0  0  0  0  0  0
    4.9508   -3.1980  -20.6830 F   0  0  0  0  0  0  0  0  0  0  0  0
    9.4452    6.6986  -18.5051 H   0  0  0  0  0  0  0  0  0  0  0  0
    7.8640    5.9801  -16.7323 H   0  0  0  0  0  0  0  0  0  0  0  0
    8.6251    7.9933  -20.4623 H   0  0  0  0  0  0  0  0  0  0  0  0
    5.6287    9.4018  -23.9713 H   0  0  0  0  0  0  0  0  0  0  0  0
    4.6476    7.9485  -18.8195 H   0  0  0  0  0  0  0  0  0  0  0  0
    6.5605    1.6523  -21.8842 H   0  0  0  0  0  0  0  0  0  0  0  0
    3.5987   -0.9922  -20.1961 H   0  0  0  0  0  0  0  0  0  0  0  0
    7.2377   -2.6027  -21.8529 H   0  0  0  0  0  0  0  0  0  0  0  0
    4.1594   10.9188  -22.2060 H   0  0  0  0  0  0  0  0  0  0  0  0
    7.1667    7.7744  -22.5017 H   0  0  0  0  0  0  0  0  0  0  0  0
    5.9759    8.8078  -13.5752 H   0  0  0  0  0  0  0  0  0  0  0  0
    4.6004    7.6569  -13.4737 H   0  0  0  0  0  0  0  0  0  0  0  0
    4.0946    9.4184  -15.1184 H   0  0  0  0  0  0  0  0  0  0  0  0
    5.6193    9.0689  -16.0014 H   0  0  0  0  0  0  0  0  0  0  0  0
    7.2527    7.2518  -14.9565 H   0  0  0  0  0  0  0  0  0  0  0  0
    6.6858    6.3882  -13.4870 H   0  0  0  0  0  0  0  0  0  0  0  0
    3.3002    7.1058  -15.5764 H   0  0  0  0  0  0  0  0  0  0  0  0
    3.6600    7.9904  -17.0977 H   0  0  0  0  0  0  0  0  0  0  0  0
    6.4349    5.0372  -15.6013 H   0  0  0  0  0  0  0  0  0  0  0  0
    4.8813    5.3167  -14.7441 H   0  0  0  0  0  0  0  0  0  0  0  0
    7.8727   -0.2556  -16.9192 H   0  0  0  0  0  0  0  0  0  0  0  0
    6.3548    0.1345  -16.0416 H   0  0  0  0  0  0  0  0  0  0  0  0
    6.3114   -0.9498  -17.4730 H   0  0  0  0  0  0  0  0  0  0  0  0
    4.0243    2.3430  -21.3937 H   0  0  0  0  0  0  0  0  0  0  0  0
    3.2065    1.3242  -20.1608 H   0  0  0  0  0  0  0  0  0  0  0  0
    5.2638    3.5748  -16.9856 H   0  0  0  0  0  0  0  0  0  0  0  0
    5.9321    4.6009  -18.2998 H   0  0  0  0  0  0  0  0  0  0  0  0
    5.8837    2.8014  -19.8542 H   0  0  0  0  0  0  0  0  0  0  0  0
    3.2557    3.1085  -18.3148 H   0  0  0  0  0  0  0  0  0  0  0  0
    4.5323    0.9431  -17.9157 H   0  0  0  0  0  0  0  0  0  0  0  0
    3.5767    5.0674  -16.6458 H   0  0  0  0  0  0  0  0  0  0  0  0
    3.7933    5.8454  -18.0651 H   0  0  0  0  0  0  0  0  0  0  0  0
    3.1965    4.0068  -20.4776 H   0  0  0  0  0  0  0  0  0  0  0  0
  1  2  2  0
  1  3  1  0
  2 11  1  0
  3 13  2  0
  4  9  1  0
  4 10  2  0
  5 11  2  0
  5 13  1  0
  6 12  2  0
  6 14  1  0
  7 12  1  0
  7 15  2  0
  8 14  2  0
  8 15  1  0
  9 28  2  0
 10 29  1  0
 11 22  1  0
 12 24  1  0
 13 29  1  0
 14 34  1  0
 15 35  1  0
 16 23  1  0
 16 30  1  0
 16 32  2  0
 17 18  1  0
 17 19  1  0
 18 20  1  0
 19 21  1  0
 20 22  1  0
 21 22  1  0
 22 31  1  0
 24 26  1  0
 25 27  1  0
 25 31  1  0
 26 27  1  0
 26 30  1  0
 27 33  1  0
 28 29  1  0
  1 36  1  0
  2 37  1  0
  3 38  1  0
  4 39  1  0
  5 40  1  0
  6 41  1  0
  7 42  1  0
  8 43  1  0
  9 44  1  0
 10 45  1  0
 17 46  1  0
 17 47  1  0
 18 48  1  0
 18 49  1  0
 19 50  1  0
 19 51  1  0
 20 52  1  0
 20 53  1  0
 21 54  1  0
 21 55  1  0
 23 56  1  0
 23 57  1  0
 23 58  1  0
 24 59  1  0
 24 60  1  0
 25 61  1  0
 25 62  1  0
 26 63  1  6
 27 64  1  1
 30 65  1  0
 31 66  1  0
 31 67  1  0
 33 68  1  0
M  CHG  1  31   1
M  END
>  <OMEGA_C>  (80) 
dmkGQT3X3kClnJTBVi3wQPEp0kBWhIzBchD+QCmD9kAPcJ3BFRG1QBFhFUFZJrfBmBS2QLSh9UCY
9pXBs2rHQEOdJz/XD63B5aWRQOzFV79bdaXBJaDTQNh04L8i8KzB4YybQGdEIkGLhq/BpBbOQGXh
B0EyNbHB207EQNbm3UBECY3BHnWfQCkf7D7GCKjB0YPSQMsOAUGGF57BMozhQOrA5r5ddK/BBaOr
QMt8+b8b9qfBe4nSQO71kT/mf4/Bs1atQJFtAEEmyGHBchWaQPogCkERP3bBEtvLQD5820CY4GbB
8CqDQOJQ8UDKjoHBzAm2QPtquUCVGHXBUbKiQJ5IzUBv7oTBqG3ZQMrBiL2EPIjB18iFQCxS1D/A
X6TBPUmgQG8diEC6gI7B8KCeQO/PGECDb5vBDV6EQCWoYUAVmZbBC8OkQP0PHEGuv6XBv6bCQFVl
DEGH06bBmjGpQNw0tj9r5ZLBKDmIQMPxrECMX4rBB53xQD6G3D8LRJPBm4RvQCNpjkBUtp7BfSUE
QTZ8hL4jA7TBo2yeQIWrTMDedqXBuB8XQc1a1kBeCpTBfKX7QOlcv0DB24XBdgAKQffI/0C3sqPB
eh60QMptFkFFxb/BB7mUQA5a/kBKjpbB9+/RQDx+0z/AEq/BzVFmQNYAfr+0kaHB2prnQMSSJsDJ
0q7BrhmFQEazLkHXpbHB4FXlQDjI+EBwA7TBUTq/QJXsDEHmM1nBsjaTQC0F9UAUlFfBkgaDQOax
FkEh5XHBJdGzQCcaEUHyAoDB+BXoQNwO6EDNTW/BR/LVQPZrzECrylfBDzZTQFdi40DbOHnB8z1q
QGGx/0AxyIjBu+rNQNcwoUDynnnBSjOcQC4iqkDs52vBBO37QHrbgr6bWofBkFrLQE7FCT44VYDB
pfbJQMwnc7++yIvBv8aAQPbzFUBFJqvBCThNQDd/qT9RSaHBuXCoQOHJZECH4ofB49O9QMc6k0D6
ZZLBG0e8QNtJM0Bb1Z7BFV5QQI/xRkCkhJLB8giRQO9tcT9DU4/Bx+hkQAsookClKoXBrMRyQN4N
u0BehZDBRpNMQAI4gEAI0qPBur0FQRdM30AwrZTBfEDvQBoS00B6c4zB/hH8QPhW9UC1sJ3BAqGZ
QGR8H0GdILHBkjy0QJIU9EAbGpbB7t/HQCj0Ij+eT63B/7yQQIzkTL88kaXBQB3RQKqZ5L9oSq3B
IXa0QPc/EUHoz7fBs/ihQExnGkEIsabByh/DQIq73UCgAY3B296fQCp4+T6/NKjBOU7QQGjq/0BE
Zp7B2nngQN7L/76i1a/BJD6pQCy8978fKajBPRvTQDZAiT8QNpDBecisQBaO/kCL1WDBEIiZQLqH
CUHvB3XBMKrLQIzt2UARhWbBKq6CQMr48EDXPYHB7OC1QHh2uEA3CnXBZwKiQB8HzUAMxYTBzIfZ
QHggx72ji4jBPDGHQNHb2j/uoqTBHCKfQKNNh0CwBo7BW32fQOhoGkDeepvBjLGEQJCAYkAynpbB
tJrLQCD/BEFqgbHB1SXAQH5lCkElYqfBfK6pQIKZtj++E5PBPE6HQPjHrEDHKorBXR7yQMcI3T+5
KpPBEMhzQGXTj0Cjq57BooUDQTHTtb6VmLTBVpmaQHrHSsAdqaXBCY4WQci210BPD5TBVUH7QOxr
wUDgp4XBQtoIQR0n/kC1DqTB9aqDQJCSK0EB9LPBHrySQHo5/EDgspbBuJrTQOuizz+9R6/BhLFk
QHwyar+UjqHBAenjQHIXKsAhRq/B3/O0QLP4EEE8c8DBxSGUQPVSIUEekp/BUli+QDWSC0EhzlfB
/rOSQAHH8UCm41bBwWyCQKXxFUFPUnDB3kezQCbQEEGIkX7Bx5LnQKZC50AS7G7B8DzWQCY3ykAw
r1fBu5FRQIy94kAq63jBpCdqQAocAEE5aIjBbNzNQFmfoEA77XnB/kycQJiUqED262vBN7r7QEQZ
R74rnIbBTEvHQCjxqj2dKIHBRzHOQHchg792VozBoreDQIXOGUCWaavB26dOQJzbsz8UzaHBOdmk
QKweYkBtW4fBT/e9QFSVkUDAZ5HBQEq9QOWfNUD/sp7By01PQDVHR0AA/pLBWGORQIQHfT//OY/B
eRNiQDa3okCHAIXB8SxyQPqrukDEb5DBq7FSQNRXgkAtFaTB

>  <OMEGA_E>  (80) 
YCoTPahWVz4=

>  <OMEGA_NBR>  (80) 
      2494

$$$$
50212900
     RDKit          3D

 63 66  0  0  1  0  0  0  0  0999 V2000
    8.3539    6.9512  -18.6144 C   0  0  0  0  0  0  0  0  0  0  0  0
    7.4950    6.6117  -17.5550 C   0  0  0  0  0  0  0  0  0  0  0  0
    7.8580    7.6406  -19.7325 C   0  0  0  0  0  0  0  0  0  0  0  0
    5.6664    9.2694  -22.9536 C   0  0  0  0  0  0  0  0  0  0  0  0
    5.6364    7.6687  -18.7283 C   0  0  0  0  0  0  0  0  0  0  0  0
    6.3452    0.6851  -21.6431 C   0  0  0  0  0  0  0  0  0  0  0  0
    4.5712   -0.7433  -20.7597 C   0  0  0  0  0  0  0  0  0  0  0  0
    6.6117   -1.7416  -21.6505 C   0  0  0  0  0  0  0  0  0  0  0  0
    4.9000   10.1302  -22.0238 C   0  0  0  0  0  0  0  0  0  0  0  0
    6.3630    8.3749  -22.1875 C   0  0  0  0  0  0  0  0  0  0  0  0
    6.1207    6.9616  -17.6033 C   0  0  0  0  0  0  0  0  0  0  0  0
    5.0696    0.5450  -21.0534 C   0  0  0  0  0  0  0  0  0  0  0  0
    6.4982    8.0130  -19.7884 C   0  0  0  0  0  0  0  0  0  0  0  0
    7.1148   -0.4575  -21.9394 C   0  0  0  0  0  0  0  0  0  0  0  0
    5.3398   -1.8842  -21.0616 C   0  0  0  0  0  0  0  0  0  0  0  0
    6.5446    1.0466  -18.0120 C   0  0  0  0  0  0  0  0  0  0  0  0
    4.3101    7.6144  -15.9580 C   0  0  0  0  0  0  0  0  0  0  0  0
    5.1574    8.0455  -14.7462 C   0  0  0  0  0  0  0  0  0  0  0  0
    5.7245    5.8628  -15.2824 C   0  0  0  0  0  0  0  0  0  0  0  0
    5.1061    6.4515  -16.5609 C   0  0  2  0  0  0  0  0  0  0  0  0
    6.6877   -0.1365  -17.0590 C   0  0  0  0  0  0  0  0  0  0  0  0
    4.2916    1.7755  -20.6196 C   0  0  0  0  0  0  0  0  0  0  0  0
    4.9396    4.2782  -17.7197 C   0  0  0  0  0  0  0  0  0  0  0  0
    4.9967    2.4617  -19.4247 C   0  0  1  0  0  0  0  0  0  0  0  0
    4.1343    3.5840  -18.8177 C   0  0  2  0  0  0  0  0  0  0  0  0
    5.1259    9.7283  -20.7919 N   0  0  0  0  0  0  0  0  0  0  0  0
    6.0011    8.6942  -20.8983 N   0  0  0  0  0  0  0  0  0  0  0  0
    5.2687    1.4519  -18.3842 N   0  0  0  0  0  0  0  0  0  0  0  0
    4.2176    5.4681  -17.2172 N   0  0  0  0  0  0  0  0  0  0  0  0
    7.5418    1.6723  -18.3557 O   0  0  0  0  0  0  0  0  0  0  0  0
    6.1625    7.0157  -14.5436 O   0  0  0  0  0  0  0  0  0  0  0  0
    3.7983    4.5405  -19.8224 O   0  0  0  0  0  0  0  0  0  0  0  0
    8.3451   -0.3219  -22.4836 F   0  0  0  0  0  0  0  0  0  0  0  0
    4.8624   -3.1163  -20.7745 F   0  0  0  0  0  0  0  0  0  0  0  0
    9.3985    6.6809  -18.5683 H   0  0  0  0  0  0  0  0  0  0  0  0
    7.8835    6.0810  -16.6984 H   0  0  0  0  0  0  0  0  0  0  0  0
    8.5183    7.8863  -20.5510 H   0  0  0  0  0  0  0  0  0  0  0  0
    5.6740    9.3350  -24.0316 H   0  0  0  0  0  0  0  0  0  0  0  0
    4.5942    7.9478  -18.7754 H   0  0  0  0  0  0  0  0  0  0  0  0
    6.7310    1.6686  -21.8673 H   0  0  0  0  0  0  0  0  0  0  0  0
    3.5989   -0.8538  -20.3028 H   0  0  0  0  0  0  0  0  0  0  0  0
    7.2012   -2.6168  -21.8806 H   0  0  0  0  0  0  0  0  0  0  0  0
    4.2610   10.9525  -22.3100 H   0  0  0  0  0  0  0  0  0  0  0  0
    7.0388    7.5997  -22.5172 H   0  0  0  0  0  0  0  0  0  0  0  0
    3.3107    7.2828  -15.6401 H   0  0  0  0  0  0  0  0  0  0  0  0
    4.2107    8.4380  -16.6803 H   0  0  0  0  0  0  0  0  0  0  0  0
    5.6420    9.0120  -14.9485 H   0  0  0  0  0  0  0  0  0  0  0  0
    4.5216    8.1339  -13.8529 H   0  0  0  0  0  0  0  0  0  0  0  0
    4.9752    5.2945  -14.7118 H   0  0  0  0  0  0  0  0  0  0  0  0
    6.5745    5.2081  -15.5251 H   0  0  0  0  0  0  0  0  0  0  0  0
    7.7474   -0.2699  -16.7957 H   0  0  0  0  0  0  0  0  0  0  0  0
    6.1046    0.0554  -16.1463 H   0  0  0  0  0  0  0  0  0  0  0  0
    6.3140   -1.0483  -17.5480 H   0  0  0  0  0  0  0  0  0  0  0  0
    4.2316    2.4822  -21.4604 H   0  0  0  0  0  0  0  0  0  0  0  0
    3.2767    1.4761  -20.3191 H   0  0  0  0  0  0  0  0  0  0  0  0
    5.0995    3.5749  -16.8892 H   0  0  0  0  0  0  0  0  0  0  0  0
    5.9120    4.5911  -18.1277 H   0  0  0  0  0  0  0  0  0  0  0  0
    5.9448    2.8947  -19.7764 H   0  0  0  0  0  0  0  0  0  0  0  0
    3.2261    3.1442  -18.3796 H   0  0  0  0  0  0  0  0  0  0  0  0
    4.4882    1.0342  -17.9190 H   0  0  0  0  0  0  0  0  0  0  0  0
    3.5312    5.1676  -16.5549 H   0  0  0  0  0  0  0  0  0  0  0  0
    3.7638    5.9142  -17.9885 H   0  0  0  0  0  0  0  0  0  0  0  0
    3.2972    4.1163  -20.5091 H   0  0  0  0  0  0  0  0  0  0  0  0
  1  2  2  0
  1  3  1  0
  2 11  1  0
  3 13  2  0
  4  9  1  0
  4 10  2  0
  5 11  2  0
  5 13  1  0
  6 12  2  0
  6 14  1  0
  7 12  1  0
  7 15  2  0
  8 14  2  0
  8 15  1  0
  9 26  2  0
 10 27  1  0
 11 20  1  0
 12 22  1  0
 13 27  1  0
 14 33  1  0
 15 34  1  0
 16 21  1  0
 16 28  1  0
 16 30  2  0
 17 18  1  0
 17 20  1  0
 18 31  1  0
 19 20  1  0
 19 31  1  0
 20 29  1  6
 22 24  1  0
 23 25  1  0
 23 29  1  0
 24 25  1  0
 24 28  1  0
 25 32  1  0
 26 27  1  0
  1 35  1  0
  2 36  1  0
  3 37  1  0
  4 38  1  0
  5 39  1  0
  6 40  1  0
  7 41  1  0
  8 42  1  0
  9 43  1  0
 10 44  1  0
 17 45  1  0
 17 46  1  0
 18 47  1  0
 18 48  1  0
 19 49  1  0
 19 50  1  0
 21 51  1  0
 21 52  1  0
 21 53  1  0
 22 54  1  0
 22 55  1  0
 23 56  1  0
 23 57  1  0
 24 58  1  6
 25 59  1  1
 28 60  1  0
 29 61  1  0
 29 62  1  0
 32 63  1  0
M  CHG  1  29   1
M  END
>  <OMEGA_C>  (81) 
cakFQf1v3kBE6pTBqNbvQDyT00COcIzBZHT7QAmA9EAx3J3B9lK1QFpPFEH7oLfBVl20QLdl9UCd
05XB1QvLQMBfLz8nJa3BLkeSQKxHPr/WE6bBupLTQIjs3r82NK3B+cycQGUVIkHEMLDBpZ3LQML/
BUH2f7HB6dzDQFrF3kCJ04zBhTqiQJqGCz9KbajBAvHPQDc1AEGqTp7Bg6zjQMU76r7dg6/BBeCq
QAAs8b86fqjBR23RQA73hT+OGJDBt+yJQN+o80ARVH/BPAmlQC66AEE98GvBMC+3QAOcu0DHhHTB
JGWjQFlyzkCnfITBugHWQHzRC77leIjBEFWJQM5C4z//9KTB3BCeQD7niEADwo3BC+WfQEaNHUDY
ZZvBCEyEQEFgZUCgipbBEAekQEqnG0HXVabBqQjAQHIbC0HIL6fB6pioQBnYuT/dEpPB9vaGQE/6
rkDAvInBUlbxQBQP1j9z2JLBUDPFQE+A4EBnsmjBABdzQI9LkUBMlJ7BmYUFQRLMpL533rPBFJmb
QDVxR8A5MqbBLmAWQb/J1UDii5TB/UX8QNWXwkA8loXBJ0sIQYxc/EB4aKTBbZG1QFNcFUGsQMDB
VAOTQJRU/kDvM5bBtWTXQIOT1T8n8K7B+lNmQFeVWr8MbKLBR3DmQNV4J8BsC6/BHVqIQHA9L0Hr
erLB9j3hQNAw80AgI7TBu+FTQG0M6UD5PXrBBr6GQCQCB0FGcYXBcou0QBYxEEEALW/BC7GQQKUk
AkFQpV3BODWfQFRsqUB9Y2vBcmLSQBeppkD9ZnjBj+r3QNMqir6tXYbBuVjDQHzKYj2QK4HBTgzK
QFQuhr88YozBdmmHQOrbHkD/rqvBobVRQALwvD+bjaLBuS6jQL/LZEAMHYfBbi+9QB7qkkByBZHB
yDu+QFFCOUApNp7BJHlOQFM7SUB3CZPBf5+PQGZfhD8tWo/BzP9hQCtdpUBzcITBCOJwQIdBvUBo
6I/BBwVTQCK5g0CbEqTBn5cFQX0P4EB6oJTBqojvQL4W1UAjMIzBSR/7QNlf9ECqz53Bs9GZQBri
HUEa6LHBP46zQDGz80CjCJbBv3XJQN7VMz/kIq3BB5GSQJutRr92z6XBLB/UQGaA278AT63BzLq2
QJUXEEHJRbjBDv2fQHyqGEH0YqfB4zrDQGSt3kAm0IzBnCuhQGSiBj+6OKjBRzzPQFiE/kBWiJ7B
nfbiQL4a1b5Yn6/Bf/GrQPB98r9uZqjBuQzSQBqHjz8brY/B+ouIQAFd80DWnH/B3k6iQLOnAEFz
y2vBfou2QA0cvEBIUHTBOsSiQJZMzkCidITBdRTYQKza7r3fsojBB6OHQJYp3j93maTBTCqeQLij
iEBBtY3B6zWfQFWmHEBWU5vBYjWEQFdOZUDtfZbBlffMQHD9A0Gzs7HBviK/QOIWCUGEtqfBn+Ko
QGiJuj//6ZLBE7SGQCpRrkBWnonBw43xQDJv2D9IWJPB7n3DQHJu4UCUimjB7Rd0QAFkkUASjZ7B
WgEFQYiAeL6REbTBsvmdQK77SMAvD6bBcXMWQWXX2EB/C5TB2Bv8QINAxUB4LoXBjDMIQdk8/EA3
VKTBogKEQHHLKUEn+7TBpPmRQDGT+0DPk5bBcLvUQOgu2T+9/a7BKtNnQFgear8p+qHBIoznQKSo
JMBDTK/B3Se5QAH9D0Eh5MDBsyGQQEk7H0FscqDBsKRQQMmP6EBbCHvBJ/CFQPjdBkFAmYXBf86w
QHZ0EEHri27BUEaNQFdmAUG4s13BBMueQHN/qUBdQGvBDkfSQKe5p0CCAHjBH236QHsWrL4S6IfB
QlPKQF5rij3Lu4DBCtPHQMFUeb/KbIzBaPiDQCy8G0A4V6vBU7xPQFJ6tD/52KHBb56jQCHvY0C4
HYfBPCC9QBICk0D3/pDBKDq9QJjNN0DVbJ7BB8NNQJksSkBzAJPBLlGQQKf+fz/qUo/BllJiQE1X
pEARQYTBp0lvQK5VvEDyvo/BP8lTQMcJhEBsDqTB

>  <OMEGA_E>  (81) 
QDMiPphRoD4=

>  <OMEGA_NBR>  (81) 
      4851

$$$$
50168362
     RDKit          3D

 66 69  0  0  1  0  0  0  0  0999 V2000
    8.3595    6.9455  -18.6067 C   0  0  0  0  0  0  0  0  0  0  0  0
    7.4893    6.6045  -17.5542 C   0  0  0  0  0  0  0  0  0  0  0  0
    7.8789    7.6526  -19.7218 C   0  0  0  0  0  0  0  0  0  0  0  0
    5.6359    9.2857  -22.9334 C   0  0  0  0  0  0  0  0  0  0  0  0
    5.6577    7.7054  -18.7212 C   0  0  0  0  0  0  0  0  0  0  0  0
    6.2516    0.6301  -21.6502 C   0  0  0  0  0  0  0  0  0  0  0  0
    4.5154   -0.8023  -20.7001 C   0  0  0  0  0  0  0  0  0  0  0  0
    6.5404   -1.7923  -21.6343 C   0  0  0  0  0  0  0  0  0  0  0  0
    4.8663   10.1331  -21.9941 C   0  0  0  0  0  0  0  0  0  0  0  0
    6.3727    8.4153  -22.1762 C   0  0  0  0  0  0  0  0  0  0  0  0
    6.1200    6.9805  -17.5980 C   0  0  0  0  0  0  0  0  0  0  0  0
    4.9963    0.4851  -21.0215 C   0  0  0  0  0  0  0  0  0  0  0  0
    6.5247    8.0437  -19.7768 C   0  0  0  0  0  0  0  0  0  0  0  0
    7.0231   -0.5075  -21.9536 C   0  0  0  0  0  0  0  0  0  0  0  0
    5.2863   -1.9392  -21.0089 C   0  0  0  0  0  0  0  0  0  0  0  0
    6.5735    1.0989  -17.9520 C   0  0  0  0  0  0  0  0  0  0  0  0
    4.1072    7.5636  -16.1073 C   0  0  0  0  0  0  0  0  0  0  0  0
    5.6936    5.7802  -15.3039 C   0  0  0  0  0  0  0  0  0  0  0  0
    4.8192    8.5506  -15.1723 C   0  0  0  0  0  0  0  0  0  0  0  0
    6.3102    6.8334  -14.3623 C   0  0  0  0  0  0  0  0  0  0  0  0
    5.0821    6.4442  -16.5801 C   0  0  0  0  0  0  0  0  0  0  0  0
    6.7524   -0.1291  -17.0639 C   0  0  0  0  0  0  0  0  0  0  0  0
    4.2306    1.7123  -20.5739 C   0  0  0  0  0  0  0  0  0  0  0  0
    5.0123    4.2835  -17.7891 C   0  0  0  0  0  0  0  0  0  0  0  0
    4.9929    2.4163  -19.4278 C   0  0  1  0  0  0  0  0  0  0  0  0
    4.1669    3.5604  -18.8290 C   0  0  2  0  0  0  0  0  0  0  0  0
    5.1264    9.7442  -20.7654 N   0  0  0  0  0  0  0  0  0  0  0  0
    6.0231    8.7290  -20.8826 N   0  0  0  0  0  0  0  0  0  0  0  0
    5.2902    1.4338  -18.3673 N   0  0  0  0  0  0  0  0  0  0  0  0
    4.2564    5.4439  -17.2842 N   0  0  0  0  0  0  0  0  0  0  0  0
    7.5624    1.6608  -18.4107 O   0  0  0  0  0  0  0  0  0  0  0  0
    5.3263    7.8347  -14.0286 O   0  0  0  0  0  0  0  0  0  0  0  0
    3.8045    4.4893  -19.8502 O   0  0  0  0  0  0  0  0  0  0  0  0
    8.2367   -0.3650  -22.5318 F   0  0  0  0  0  0  0  0  0  0  0  0
    4.8313   -3.1709  -20.6870 F   0  0  0  0  0  0  0  0  0  0  0  0
    9.4006    6.6626  -18.5570 H   0  0  0  0  0  0  0  0  0  0  0  0
    7.8658    6.0522  -16.7059 H   0  0  0  0  0  0  0  0  0  0  0  0
    8.5455    7.8963  -20.5358 H   0  0  0  0  0  0  0  0  0  0  0  0
    5.6190    9.3434  -24.0118 H   0  0  0  0  0  0  0  0  0  0  0  0
    4.6210    8.0044  -18.7696 H   0  0  0  0  0  0  0  0  0  0  0  0
    6.6204    1.6143  -21.8987 H   0  0  0  0  0  0  0  0  0  0  0  0
    3.5560   -0.9153  -20.2173 H   0  0  0  0  0  0  0  0  0  0  0  0
    7.1320   -2.6648  -21.8690 H   0  0  0  0  0  0  0  0  0  0  0  0
    4.2015   10.9375  -22.2722 H   0  0  0  0  0  0  0  0  0  0  0  0
    7.0660    7.6596  -22.5147 H   0  0  0  0  0  0  0  0  0  0  0  0
    3.2639    7.1040  -15.5711 H   0  0  0  0  0  0  0  0  0  0  0  0
    3.7303    8.1077  -16.9859 H   0  0  0  0  0  0  0  0  0  0  0  0
    6.4771    5.0713  -15.6099 H   0  0  0  0  0  0  0  0  0  0  0  0
    4.9002    5.2403  -14.7663 H   0  0  0  0  0  0  0  0  0  0  0  0
    5.6532    9.0285  -15.7072 H   0  0  0  0  0  0  0  0  0  0  0  0
    4.1080    9.3208  -14.8392 H   0  0  0  0  0  0  0  0  0  0  0  0
    6.6553    6.3409  -13.4413 H   0  0  0  0  0  0  0  0  0  0  0  0
    7.1636    7.3142  -14.8629 H   0  0  0  0  0  0  0  0  0  0  0  0
    7.8243   -0.3503  -16.9547 H   0  0  0  0  0  0  0  0  0  0  0  0
    6.3161    0.0681  -16.0735 H   0  0  0  0  0  0  0  0  0  0  0  0
    6.2452   -0.9905  -17.5230 H   0  0  0  0  0  0  0  0  0  0  0  0
    4.1239    2.4054  -21.4213 H   0  0  0  0  0  0  0  0  0  0  0  0
    3.2339    1.4114  -20.2187 H   0  0  0  0  0  0  0  0  0  0  0  0
    5.2393    3.6002  -16.9574 H   0  0  0  0  0  0  0  0  0  0  0  0
    5.9510    4.6257  -18.2491 H   0  0  0  0  0  0  0  0  0  0  0  0
    5.9324    2.8259  -19.8273 H   0  0  0  0  0  0  0  0  0  0  0  0
    3.2705    3.1451  -18.3452 H   0  0  0  0  0  0  0  0  0  0  0  0
    4.5197    0.9805  -17.9192 H   0  0  0  0  0  0  0  0  0  0  0  0
    3.5580    5.1116  -16.6504 H   0  0  0  0  0  0  0  0  0  0  0  0
    3.8150    5.8927  -18.0612 H   0  0  0  0  0  0  0  0  0  0  0  0
    3.2761    4.0496  -20.5059 H   0  0  0  0  0  0  0  0  0  0  0  0
  1  2  2  0
  1  3  1  0
  2 11  1  0
  3 13  2  0
  4  9  1  0
  4 10  2  0
  5 11  2  0
  5 13  1  0
  6 12  2  0
  6 14  1  0
  7 12  1  0
  7 15  2  0
  8 14  2  0
  8 15  1  0
  9 27  2  0
 10 28  1  0
 11 21  1  0
 12 23  1  0
 13 28  1  0
 14 34  1  0
 15 35  1  0
 16 22  1  0
 16 29  1  0
 16 31  2  0
 17 19  1  0
 17 21  1  0
 18 20  1  0
 18 21  1  0
 19 32  1  0
 20 32  1  0
 21 30  1  0
 23 25  1  0
 24 26  1  0
 24 30  1  0
 25 26  1  0
 25 29  1  0
 26 33  1  0
 27 28  1  0
  1 36  1  0
  2 37  1  0
  3 38  1  0
  4 39  1  0
  5 40  1  0
  6 41  1  0
  7 42  1  0
  8 43  1  0
  9 44  1  0
 10 45  1  0
 17 46  1  0
 17 47  1  0
 18 48  1  0
 18 49  1  0
 19 50  1  0
 19 51  1  0
 20 52  1  0
 20 53  1  0
 22 54  1  0
 22 55  1  0
 22 56  1  0
 23 57  1  0
 23 58  1  0
 24 59  1  0
 24 60  1  0
 25 61  1  6
 26 62  1  1
 29 63  1  0
 30 64  1  0
 30 65  1  0
 33 66  1  0
M  CHG  1  30   1
M  END
>  <OMEGA_C>  (82) 
c8AFQYBB3kCA2pTBEKjvQDZY00DvbozBpB/8QPnh9EBIxp3B51i0QEmSFEGud7fBngu1QD6S9kAX
xZXBJg3IQN1OIT+1M63BG36QQK9hTb/jmaXBO0vRQOtp5b8TE63BBLmbQE4hIkHT86/BPu3LQDCl
BkHmaLHBWdfDQFVg30DHyIzBzeGfQApd+D4XLKjBbcrQQNOyAEHMNp7B/LzgQJPrAb/7oK/B+Cip
QCg3+L84EqjBOVrSQHGpjD+0nY/BE26DQC4J8kC+24DB7zG2QEH3uEC+3HTBrzaaQF/PCEHiwXLB
Zu3JQI+r2kD/y2XBOKCiQCw3zkD0o4TBVhPYQN01BL7WgojBumCHQP0r2z9Dl6TBvGSgQC0SiUD+
T47BhcWfQN+kGkAabJvBMleFQPXcY0DGoZbBVwukQE3oG0GJH6bB9rzAQPypC0GVD6fBtUmpQNKH
tz8q8JLBwDSIQJ80rkAWRorBj//xQBaU1D8aSZPB2XCqQD+2+kAEdWDBTHxzQGyoj0A/zZ7BqskD
QRzkur4fQbTBvpmaQDjwSsD8fqXBxWgWQbQz1UCwdJTBuLT7QPyrwUCfpYXBMroIQbWu/EBpSaTB
dc6zQKN+FUEXGMDBcd+TQAkSAEErKJbBJNrTQEiizj+CMK/B5ZRjQDxPar8OvaHBhTnkQK+MKsDJ
867BynKGQBwAL0FxLbLBtxziQBIb9UAKHrTBAeNQQMpT40ArI3nB6LxuQCy5AUEV44fBC0TPQLdH
okDzwXnBeM6cQGmwp0CiQmzBx+a0QJF0EEHfUHvBeHSDQBAiFUFFbW3Bh/jUQJjoykB2D1fBcTzl
QOwN6kBizm3B/2D6QHlgs75Ko4fBfx3KQK9ziz2bloDB2tjHQNSRfb8nL4zBSveDQIryGUDZXqvB
lfhOQEOntD/Uv6HBWKinQKppZkDPqIfB4m6+QM4FlEAq/pHB6dW9QAfbNEBJnp7BQFBRQAJJSUD0
wpLBMaGQQIIDez+ZWo/B/rZjQNeRo0DzM4XBZih0QL2QvEBifZDB1qpRQCCWgUAVDKTBs74FQR5y
30AbcpTBITPvQKSr1EDoGYzBSj/8QI1N9EATp53B6wOcQC4+H0GZg7HBrV20QCZ79EDsFJbBL6jG
QFHiLj9HT63BJd2RQEFaU78EbaXBCKHSQKD/3L+zna3BU821QJtEEEGXDbjB+O+jQKxoGkGxBqfB
0w3DQJQY30CWzozBymifQI509z679afB4ZvQQNJA/0C7cZ7BR1XgQJLz1r4HErDBBFurQDj09r+J
UajBnOjTQMrajT/p64/BIu+BQA8l8kAfLoHBsgi1QC5WukCfeXTBaAGYQLheCUFitnPBreTHQNoA
3UDfpGXBVbGhQK5czkBRoITBCL/aQIZD7L041ojBeP2FQFbG1j8SF6TBgBOgQPC+iEApEY7BPDyf
QI5OGkA1OZvBAd+EQJQKY0CZV5bB2fTLQDTSA0F0nrHBd9/AQCvSCUH2jKfBokyqQGAmuT8uvpLB
E5qHQB+wrUDEE4rBCeTyQIx91D/oBJTBIfenQKAM/UCY/GDBka5xQCY9j0D9ep7BCzsDQeHuY76i
7bTBsFWeQKe+S8AM7aXBcYYWQZGm10DqxJPBIC77QNZUxEAGGoXB7vYIQXvr+0APG6TBL/mGQP+d
K0GGdrTBTeiSQAay/ECUw5bBVv7QQIWB1z9aSa/BjPBnQL0De791RaHBlzvmQNevJMCvy6/BtlW2
QNWpD0HQr8DBVpyWQIfcIUGV+p/BxtdNQBCU40CuvXnBOwBsQG1UAUElW4jBk4/OQPLQo0BE9HjB
+KybQHMRqUDB2GvBNMayQJjmEEEvT3zBUuCAQAy6FUHf4W7BroPSQPkTzkB7nVbBGF7jQIg57EDf
lm3BECD9QKd+sL63YojBDXTOQBM8uz0uwoDBfpTJQPSveb+GQYzBlmGAQMplF0Be0KrBQjJOQBIj
qz8036DBoImnQPf+ZUBaZ4fBGwO+QJbQk0A0x5HBc6W8QMMSNUC+tp7BqsNQQEogSEApa5LBbFSS
QK0EgT8hxY7BakpjQFX6okD06ITBdfZxQASEu0AdTJDB/atPQNYagUAmsqPB

>  <OMEGA_E>  (82) 
gH3/PTDTkD4=

>  <OMEGA_NBR>  (82) 
      7289

$$$$
50168458
     RDKit          3D

 59 62  0  0  1  0  0  0  0  0999 V2000
    8.3673    6.8785  -18.5959 C   0  0  0  0  0  0  0  0  0  0  0  0
    7.4880    6.5602  -17.5458 C   0  0  0  0  0  0  0  0  0  0  0  0
    7.8962    7.5861  -19.7180 C   0  0  0  0  0  0  0  0  0  0  0  0
    5.7415    9.2533  -22.9575 C   0  0  0  0  0  0  0  0  0  0  0  0
    5.6758    7.7058  -18.7162 C   0  0  0  0  0  0  0  0  0  0  0  0
    6.3739    0.6991  -21.6907 C   0  0  0  0  0  0  0  0  0  0  0  0
    4.6048   -0.7680  -20.8646 C   0  0  0  0  0  0  0  0  0  0  0  0
    6.6568   -1.7251  -21.7774 C   0  0  0  0  0  0  0  0  0  0  0  0
    4.9519   10.1033  -22.0374 C   0  0  0  0  0  0  0  0  0  0  0  0
    6.4449    8.3713  -22.1828 C   0  0  0  0  0  0  0  0  0  0  0  0
    6.1390    6.9689  -17.6124 C   0  0  0  0  0  0  0  0  0  0  0  0
    5.0961    0.5344  -21.1099 C   0  0  0  0  0  0  0  0  0  0  0  0
    6.5470    8.0059  -19.7807 C   0  0  0  0  0  0  0  0  0  0  0  0
    7.1536   -0.4292  -22.0193 C   0  0  0  0  0  0  0  0  0  0  0  0
    5.3812   -1.8946  -21.2046 C   0  0  0  0  0  0  0  0  0  0  0  0
    6.5775    1.0239  -18.0814 C   0  0  0  0  0  0  0  0  0  0  0  0
    4.5346    7.4681  -15.6288 C   0  0  0  0  0  0  0  0  0  0  0  0
    5.5022    6.3703  -15.1300 C   0  0  0  0  0  0  0  0  0  0  0  0
    5.1329    6.4652  -16.6131 C   0  0  0  0  0  0  0  0  0  0  0  0
    6.7504   -0.1996  -17.1868 C   0  0  0  0  0  0  0  0  0  0  0  0
    4.2991    1.7511  -20.6498 C   0  0  0  0  0  0  0  0  0  0  0  0
    4.9581    4.2642  -17.7246 C   0  0  0  0  0  0  0  0  0  0  0  0
    4.9963    2.4395  -19.4464 C   0  0  1  0  0  0  0  0  0  0  0  0
    4.1265    3.5400  -18.7972 C   0  0  2  0  0  0  0  0  0  0  0  0
    5.1719    9.7073  -20.8029 N   0  0  0  0  0  0  0  0  0  0  0  0
    6.0648    8.6868  -20.8978 N   0  0  0  0  0  0  0  0  0  0  0  0
    5.2926    1.4150  -18.4313 N   0  0  0  0  0  0  0  0  0  0  0  0
    4.2335    5.4436  -17.1917 N   0  0  0  0  0  0  0  0  0  0  0  0
    7.5585    1.6865  -18.4021 O   0  0  0  0  0  0  0  0  0  0  0  0
    3.7167    4.4822  -19.7874 O   0  0  0  0  0  0  0  0  0  0  0  0
    8.3837   -0.2696  -22.5584 F   0  0  0  0  0  0  0  0  0  0  0  0
    4.9074   -3.1397  -20.9707 F   0  0  0  0  0  0  0  0  0  0  0  0
    9.4039    6.5801  -18.5417 H   0  0  0  0  0  0  0  0  0  0  0  0
    7.8440    6.0046  -16.6908 H   0  0  0  0  0  0  0  0  0  0  0  0
    8.5675    7.8093  -20.5340 H   0  0  0  0  0  0  0  0  0  0  0  0
    5.7591    9.3172  -24.0354 H   0  0  0  0  0  0  0  0  0  0  0  0
    4.6501    8.0423  -18.7478 H   0  0  0  0  0  0  0  0  0  0  0  0
    6.7542    1.6914  -21.8834 H   0  0  0  0  0  0  0  0  0  0  0  0
    3.6316   -0.9005  -20.4154 H   0  0  0  0  0  0  0  0  0  0  0  0
    7.2539   -2.5885  -22.0311 H   0  0  0  0  0  0  0  0  0  0  0  0
    4.3025   10.9145  -22.3316 H   0  0  0  0  0  0  0  0  0  0  0  0
    7.1365    7.6066  -22.5043 H   0  0  0  0  0  0  0  0  0  0  0  0
    3.4660    7.4180  -15.3729 H   0  0  0  0  0  0  0  0  0  0  0  0
    4.8579    8.5193  -15.6490 H   0  0  0  0  0  0  0  0  0  0  0  0
    6.5152    6.6386  -14.7959 H   0  0  0  0  0  0  0  0  0  0  0  0
    5.1233    5.5373  -14.5197 H   0  0  0  0  0  0  0  0  0  0  0  0
    7.8142   -0.3240  -16.9364 H   0  0  0  0  0  0  0  0  0  0  0  0
    6.1698   -0.0628  -16.2626 H   0  0  0  0  0  0  0  0  0  0  0  0
    6.3913   -1.0944  -17.7163 H   0  0  0  0  0  0  0  0  0  0  0  0
    4.2218    2.4677  -21.4808 H   0  0  0  0  0  0  0  0  0  0  0  0
    3.2913    1.4298  -20.3479 H   0  0  0  0  0  0  0  0  0  0  0  0
    5.1652    3.5670  -16.8994 H   0  0  0  0  0  0  0  0  0  0  0  0
    5.9071    4.5971  -18.1702 H   0  0  0  0  0  0  0  0  0  0  0  0
    5.9345    2.8939  -19.7977 H   0  0  0  0  0  0  0  0  0  0  0  0
    3.2525    3.0720  -18.3206 H   0  0  0  0  0  0  0  0  0  0  0  0
    4.5235    0.9756  -17.9670 H   0  0  0  0  0  0  0  0  0  0  0  0
    3.6031    5.1347  -16.4795 H   0  0  0  0  0  0  0  0  0  0  0  0
    3.7148    5.8620  -17.9373 H   0  0  0  0  0  0  0  0  0  0  0  0
    3.2025    4.0399  -20.4525 H   0  0  0  0  0  0  0  0  0  0  0  0
  1  2  2  0
  1  3  1  0
  2 11  1  0
  3 13  2  0
  4  9  1  0
  4 10  2  0
  5 11  2  0
  5 13  1  0
  6 12  2  0
  6 14  1  0
  7 12  1  0
  7 15  2  0
  8 14  2  0
  8 15  1  0
  9 25  2  0
 10 26  1  0
 11 19  1  0
 12 21  1  0
 13 26  1  0
 14 31  1  0
 15 32  1  0
 16 20  1  0
 16 27  1  0
 16 29  2  0
 17 18  1  0
 17 19  1  0
 18 19  1  0
 19 28  1  0
 21 23  1  0
 22 24  1  0
 22 28  1  0
 23 24  1  0
 23 27  1  0
 24 30  1  0
 25 26  1  0
  1 33  1  0
  2 34  1  0
  3 35  1  0
  4 36  1  0
  5 37  1  0
  6 38  1  0
  7 39  1  0
  8 40  1  0
  9 41  1  0
 10 42  1  0
 17 43  1  0
 17 44  1  0
 18 45  1  0
 18 46  1  0
 20 47  1  0
 20 48  1  0
 20 49  1  0
 21 50  1  0
 21 51  1  0
 22 52  1  0
 22 53  1  0
 23 54  1  6
 24 55  1  1
 27 56  1  0
 28 57  1  0
 28 58  1  0
 30 59  1  0
M  CHG  1  28   1
M  END
>  <OMEGA_C>  (83) 
guAFQaMc3EBzxJTBep3vQEnt0UC9XYzBdq38QK7B8kB6vp3Brrq3QHgNFEHfqLfBQKC1QECW9kDg
upXBEPfLQOT5Mj+Phq3BPlqTQKScRL+t6qbBfATVQJ7Q3L8LOK7BCXaeQPimIUGVTLDBiDzOQPnw
BUFQdrHBrXLEQHoB30Aq5ozBGxOjQGPNCD/84KjB6oDRQDcYAEHXPp7BSurkQDu+2757J7DBfTKs
QM2C8r/0oqnB9XrSQEMPgz/FppDBhRuRQL/67kCND3rBnxGwQNnZy0CkFHLBg0CkQPnizkCP54TB
3wLYQORWTL6lfonB1JGJQPUk4D/SMqXBGameQJZ0iEDxy43BwOGfQBohHEA/kpvBLwyEQGqPYkCT
YJbBToClQPFQG0FmbKbBoBLCQAP9CkG0LqfBklypQBIgtT9Ac5PB0HiHQE0yrkCDiInB7N7xQBHe
1z+aN5PB3t5tQItuj0CDTJ7BlSMGQWcHir6Fd7TBRAmdQBLxSMD8w6fBN3YWQXKQ0kBRVZTB8wH7
QN0lwEDEhoXBaxQJQRnm+UC8RaTBQ0q4QG8TFUGKSMDBOs2UQF2tAEGE+5XBiSLYQCuA2D85Ea/B
T2xoQCaKZr+pUqPBWSDoQB+qJcCgP7DBKK6JQNChLkEnp7LB6V3kQJRp80DECLTBhdJdQC9g7UA1
93XB6HObQDJPCEFKYnrB1nzQQKJv1EDWu2zBMPKjQG4xsUDBUGjBDg76QMnfpb7KfYfBDG/FQCOH
gL3DGYLByYXMQOMVjL/1uo3BYxmHQJ7uHUC72KvBWaRSQAMDtz+PyKLBTEmlQLpJZEDiMYfBXAe9
QIAbk0CUXJHBRee9QNk0OUC3YZ7BVShQQGecRECckJLBv8CQQBfDeT94vI/B7plmQB9PpED91YPB
v79tQHeVu0CPf4/By/VMQMNGgUCxnqPB84MFQcZy3EBEi5TBCsTuQBYs00DnGIzBeNH7QO7K8EDe
2p3BDtibQGNFHUE2HLLBFlK0QDYr9ECiFJbB2vnKQA+HLz9Zra3B/HGSQEirRb/J5KbBMoTTQEq1
3r8Lb67B5nq4QPhKD0G9crjBDu+hQOgZGEFclqfBxEXDQMXV3kD96IzBDmGiQBsMBz8n3qjB7FrQ
QGj2/EASpJ7BZHrjQPWZ5L5fcrDBvuqqQOCR87+QtqnBQB/TQDi9gj+nt5DBnLGPQJLy7kBTCXrB
3KOuQCXey0ASA3LBLPmiQOfdzkAz4oTBMCvZQLxYb76c8InBhlaJQDDY3z9oG6XBwFCeQOoRiEBs
mo3BsCygQP/iG0CAi5vBdHOEQK6vYkCjYZbB6nrOQKsbA0Gl27HBgszAQLBdCEH636fBKN6pQIBA
tD/Xc5PB+pyGQKO4rUBZcYnBlDnyQJwK2z+KBpPBQ+FwQCgBkECRS57BXS8FQcbYlb59B7XBbpGb
QCNQScDe1KfBKjcWQcb200Di45PBI1X6QFEpw0DmAYXBtLUIQXwc90BkaaTBv0KGQHpDKUGONLXB
8DSTQKLd/UD1kZbBNEXXQACI1j9aPK/B+OBmQJM5Zr8pN6PBpGfmQNfNJsB0grDBuOm6QOsfD0H8
EMHBDDSSQBnMHkE1qaDBmvNaQI9N7UCv/XXBSgCaQKxMCEEDWHrBsgPPQPB+1ECEnWzBNH2iQCcz
sUAwQ2jBNDz7QAxos75N7ofBMmHGQNVaEr6wiILBPj3OQCtzjr/sd47BC7CGQFfIHUAzwKvB6kpS
QDB4tz+vmKLBaTmkQGUZY0DTAIfBqQ69QKjFkkC/85DB/x++QMu9OED6b57BD91PQNkuRUBvxpLB
TGCRQD30dj/DuI/BHgJlQN3So0CXu4PBRdZrQOWvukDqco/B49VQQLtCgkCgw6PB

>  <OMEGA_E>  (83) 
8KVTPvhlwz4=

>  <OMEGA_NBR>  (83) 
      9531

$$$$
50212926
     RDKit          3D

 66 69  0  0  1  0  0  0  0  0999 V2000
    8.3696    7.0224  -18.5351 C   0  0  0  0  0  0  0  0  0  0  0  0
    7.4832    6.6533  -17.5065 C   0  0  0  0  0  0  0  0  0  0  0  0
    7.8894    7.6770  -19.6826 C   0  0  0  0  0  0  0  0  0  0  0  0
    4.8448    9.9362  -22.1810 C   0  0  0  0  0  0  0  0  0  0  0  0
    5.6336    7.6233  -18.7597 C   0  0  0  0  0  0  0  0  0  0  0  0
    6.2626    0.6962  -21.6450 C   0  0  0  0  0  0  0  0  0  0  0  0
    4.5823   -0.8120  -20.7114 C   0  0  0  0  0  0  0  0  0  0  0  0
    6.6526   -1.7114  -21.6387 C   0  0  0  0  0  0  0  0  0  0  0  0
    5.7262    9.0667  -22.9934 C   0  0  0  0  0  0  0  0  0  0  0  0
    5.0619    9.6097  -20.8705 C   0  0  0  0  0  0  0  0  0  0  0  0
    6.0983    6.9490  -17.6081 C   0  0  0  0  0  0  0  0  0  0  0  0
    5.0110    0.4959  -21.0235 C   0  0  0  0  0  0  0  0  0  0  0  0
    6.5187    7.9898  -19.7928 C   0  0  0  0  0  0  0  0  0  0  0  0
    7.0839   -0.4060  -21.9468 C   0  0  0  0  0  0  0  0  0  0  0  0
    5.4006   -1.9141  -21.0245 C   0  0  0  0  0  0  0  0  0  0  0  0
    6.5886    1.0764  -18.0320 C   0  0  0  0  0  0  0  0  0  0  0  0
    4.8541    8.5519  -15.2305 C   0  0  0  0  0  0  0  0  0  0  0  0
    4.1060    7.5409  -16.1127 C   0  0  0  0  0  0  0  0  0  0  0  0
    5.5408    7.8199  -14.0612 C   0  0  0  0  0  0  0  0  0  0  0  0
    5.6994    5.7678  -15.3222 C   0  0  0  0  0  0  0  0  0  0  0  0
    5.0642    6.4152  -16.5890 C   0  0  2  0  0  0  0  0  0  0  0  0
    6.7952   -0.0755  -17.0527 C   0  0  0  0  0  0  0  0  0  0  0  0
    4.2004    1.6890  -20.5630 C   0  0  0  0  0  0  0  0  0  0  0  0
    4.9754    4.2620  -17.7893 C   0  0  0  0  0  0  0  0  0  0  0  0
    4.9583    2.4128  -19.4286 C   0  0  1  0  0  0  0  0  0  0  0  0
    4.1212    3.5403  -18.8200 C   0  0  2  0  0  0  0  0  0  0  0  0
    6.4325    8.3054  -22.1857 N   0  0  0  0  0  0  0  0  0  0  0  0
    6.0252    8.6269  -20.9306 N   0  0  0  0  0  0  0  0  0  0  0  0
    5.2908    1.4372  -18.3722 N   0  0  0  0  0  0  0  0  0  0  0  0
    4.2259    5.4160  -17.2723 N   0  0  0  0  0  0  0  0  0  0  0  0
    7.5559    1.7208  -18.4236 O   0  0  0  0  0  0  0  0  0  0  0  0
    6.3990    6.7676  -14.5531 O   0  0  0  0  0  0  0  0  0  0  0  0
    3.7371    4.4709  -19.8322 O   0  0  0  0  0  0  0  0  0  0  0  0
    8.2961   -0.2092  -22.5120 F   0  0  0  0  0  0  0  0  0  0  0  0
    4.9909   -3.1665  -20.7222 F   0  0  0  0  0  0  0  0  0  0  0  0
    9.4228    6.8020  -18.4425 H   0  0  0  0  0  0  0  0  0  0  0  0
    7.8592    6.1411  -16.6331 H   0  0  0  0  0  0  0  0  0  0  0  0
    8.5695    7.9401  -20.4791 H   0  0  0  0  0  0  0  0  0  0  0  0
    4.1611   10.6852  -22.5523 H   0  0  0  0  0  0  0  0  0  0  0  0
    4.5839    7.8614  -18.8493 H   0  0  0  0  0  0  0  0  0  0  0  0
    6.5901    1.6960  -21.8890 H   0  0  0  0  0  0  0  0  0  0  0  0
    3.6269   -0.9674  -20.2325 H   0  0  0  0  0  0  0  0  0  0  0  0
    7.2818   -2.5572  -21.8735 H   0  0  0  0  0  0  0  0  0  0  0  0
    5.7804    9.0588  -24.0720 H   0  0  0  0  0  0  0  0  0  0  0  0
    4.5885   10.0255  -19.9934 H   0  0  0  0  0  0  0  0  0  0  0  0
    5.6145    9.0698  -15.8336 H   0  0  0  0  0  0  0  0  0  0  0  0
    4.1395    9.2869  -14.8315 H   0  0  0  0  0  0  0  0  0  0  0  0
    3.2840    7.0948  -15.5336 H   0  0  0  0  0  0  0  0  0  0  0  0
    3.6956    8.0615  -16.9906 H   0  0  0  0  0  0  0  0  0  0  0  0
    6.1438    8.5399  -13.4884 H   0  0  0  0  0  0  0  0  0  0  0  0
    4.7720    7.3831  -13.4070 H   0  0  0  0  0  0  0  0  0  0  0  0
    4.9058    5.3226  -14.7042 H   0  0  0  0  0  0  0  0  0  0  0  0
    6.4074    4.9842  -15.6301 H   0  0  0  0  0  0  0  0  0  0  0  0
    7.8659   -0.1713  -16.8191 H   0  0  0  0  0  0  0  0  0  0  0  0
    6.2348    0.1249  -16.1276 H   0  0  0  0  0  0  0  0  0  0  0  0
    6.4336   -1.0106  -17.5051 H   0  0  0  0  0  0  0  0  0  0  0  0
    4.0526    2.3804  -21.4057 H   0  0  0  0  0  0  0  0  0  0  0  0
    3.2224    1.3481  -20.1925 H   0  0  0  0  0  0  0  0  0  0  0  0
    5.2142    3.5766  -16.9627 H   0  0  0  0  0  0  0  0  0  0  0  0
    5.9077    4.6080  -18.2595 H   0  0  0  0  0  0  0  0  0  0  0  0
    5.8845    2.8401  -19.8404 H   0  0  0  0  0  0  0  0  0  0  0  0
    3.2361    3.1117  -18.3273 H   0  0  0  0  0  0  0  0  0  0  0  0
    4.5374    1.0106  -17.8718 H   0  0  0  0  0  0  0  0  0  0  0  0
    3.5421    5.0821  -16.6234 H   0  0  0  0  0  0  0  0  0  0  0  0
    3.7667    5.8626  -18.0401 H   0  0  0  0  0  0  0  0  0  0  0  0
    3.2024    4.0300  -20.4820 H   0  0  0  0  0  0  0  0  0  0  0  0
  1  2  2  0
  1  3  1  0
  2 11  1  0
  3 13  2  0
  4  9  1  0
  4 10  2  0
  5 11  2  0
  5 13  1  0
  6 12  2  0
  6 14  1  0
  7 12  1  0
  7 15  2  0
  8 14  2  0
  8 15  1  0
  9 27  2  0
 10 28  1  0
 11 21  1  0
 12 23  1  0
 13 28  1  0
 14 34  1  0
 15 35  1  0
 16 22  1  0
 16 29  1  0
 16 31  2  0
 17 18  1  0
 17 19  1  0
 18 21  1  0
 19 32  1  0
 20 21  1  0
 20 32  1  0
 21 30  1  6
 23 25  1  0
 24 26  1  0
 24 30  1  0
 25 26  1  0
 25 29  1  0
 26 33  1  0
 27 28  1  0
  1 36  1  0
  2 37  1  0
  3 38  1  0
  4 39  1  0
  5 40  1  0
  6 41  1  0
  7 42  1  0
  8 43  1  0
  9 44  1  0
 10 45  1  0
 17 46  1  0
 17 47  1  0
 18 48  1  0
 18 49  1  0
 19 50  1  0
 19 51  1  0
 20 52  1  0
 20 53  1  0
 22 54  1  0
 22 55  1  0
 22 56  1  0
 23 57  1  0
 23 58  1  0
 24 59  1  0
 24 60  1  0
 25 61  1  6
 26 62  1  1
 29 63  1  0
 30 64  1  0
 30 65  1  0
 33 66  1  0
M  CHG  1  30   1
M  END
>  <OMEGA_C>  (84) 
zOkFQaK34EDUR5TBUnbvQHrn1EBHDYzBpnX8QNup9UDidZ3BAgmbQLb6HkGkcrHBFka0QCry80De
E5bBemfIQNA3Mj/xKK3BaqKSQHjfT7/zsKXB8uHUQOAP278aHK3BcD23QEQREUF68rfBePuhQEjB
GUHh9qbBAyXDQOtd3kBv3YzB6VmgQOHi/T4gMKjBBpnQQKis/0CcV57BTa/iQHbdz74Ck6/B6dGs
QMsB9b8hMqjBKNbSQJfHiT+XQZDBCFWbQLHUCEErsHPBJGSDQAJP8UDa5oDBTE6xQPI8+kC4+mDB
p2G2QMSRuEDpJ3XBLw6iQPFIzUA1toTBkHLZQFSYmr3Va4jB/WmGQIky2D/0gKTBxzafQP5hiEBv
UI7BcqqeQN9qGkDCbZvBQeGDQOuTYkBxj5bBZ9fNQAHjBEFNfLHBus7AQN4HCkHRcafBRE6pQKX1
tz9d+pLBhzqHQO9PrUCdLYrB0MnxQFdD3D+WY5PBWMTMQJWQ2EB12WjB5StvQOgRj0BrqJ7B2rwE
Qd9BVr57GLTBSbWfQGqnSsAcx6XBw8MWQQ6q2UBUipPBXX77QBSExECjEIXBxBwJQWQV/kBJ1aPB
vCeFQKj2KkEWa7TBmK+SQFOQ+0BXy5bBJeLSQKkV2T+tHK/BUx5oQE6pd7883KHBowTpQE+pI8Df
/K7B1/i4QP7wEEF6k8DBEtWSQEBoIEF48p/BvamzQPIdEUFLVn3BDXeEQA6XFEHkTW3BgS1SQEUI
40CtiXjBJIVsQNr7AEGp7IfB3pnEQFOjCEF50FfBCLSYQChC7EDlglbBRPycQL9SqkB2RGvBognN
QPN+n0DwFHrBO7X7QJZzL76FjYbBcoPHQF/d/z1OBYHBRuDNQHxcgb+CCozBEK+BQBNYGEDiPqvB
GTxOQLCPrD8ziqHBdtqmQKTmZECSs4fB0wu9QLt0k0CNE5LBfU28QLHENUAyuZ7B4xtPQLYlR0BZ
npLBjTKRQNJbgT9w+Y7BX7JiQPGgokDC/ITBzRBxQMSau0AyUpDB3fRMQJD1gEA426PBArYFQRuK
30D+nJTB0VHvQF5v00CdW4zBmxX8QCuf9kAnd53BvXW0QED8FEG2QbfBTZ20QBLB9kDRqZXBZ/HJ
QGWiEj9Rv6zBbw6QQLtsTb8OkKXBrwvRQACd7b/KVKzBecubQB+eIkGex6/Bb7TLQGf+BkEoKbHB
zGDDQLvo3kDfy4zBl+KgQCxi7z5EHajBZZHQQFs8AUH4+p3ByvvhQI2uFr8o2K7BKQ6oQGo4+7/D
tafB1vHRQG5bjj8lmo/B+W6cQCLJCEHee3PBV96DQFBI8UAEs4DBf/+yQHP9+UAG/mDBCcO2QIRL
uECYSHXBHU6iQLFgzUDFtoTBLBnXQPDcx73FRYjBBa2IQAHm2z+48KTBKV2fQAeJiEAOa47B7RKg
QCUuG0AApZvBpd2EQDKBY0AH6ZbBluKjQCNrHEHn7qXBmYbAQEwmDEHP1KbBJSCpQEWxuD9TH5PB
XHOHQD+4rUDQV4rBQ9bxQGtA1z+jDpPBDdnNQOP/10B+FWnByrRyQOLCj0D1BZ/B7b8EQUb7+L7R
K7PB3OiXQAtmS8APPKXBB3AWQU4R10BJJZTBbz/7QKRIwUAqo4XBI8wIQYdJ/0Ab36PBxyi0QBvp
FUFL4r/BdmKTQPQOAEFAD5bBWunWQPCnxT/brq7Bp4BhQP9UYr8G9qHB/n3jQOrOL8Cv8q3BFaiG
QL2EL0GZCrLBWazhQKWK9UAG1bPBFXe0QCMLEUGeV33BcuGFQCSTFEEc4WzB2ghUQE/h4kA13nfB
PydsQGYDAUEroYfBDOHGQBlyCEHCDljBobWaQJFI7EALQVbBfGKdQERfqkDGRGvBqvfMQETtnkDr
V3rBhFX5QHp5mr5WCofBTNjHQJKR4j3DhIDB69HHQHFTeb9W+YvBWcyGQGJ/GUCz1qvBJ1VQQLrR
uD8aYKLBAwmmQImyZEACy4fBnLe9QIpkk0DF85HBpUK+QFMoNkD+qZ7Byz9QQKX5R0AzLJPByUKQ
QPRzfD9FqI/BKTBiQNYxo0CJQoXBurByQD9FvEDIiJDB0ZpRQA/KgUAmW6TB

>  <OMEGA_E>  (84) 
WAqOPkC29T0=

>  <OMEGA_NBR>  (84) 
     11972

$$$$
50214049
     RDKit          3D

 68 71  0  0  1  0  0  0  0  0999 V2000
    8.3786    6.9790  -18.5701 C   0  0  0  0  0  0  0  0  0  0  0  0
    7.5000    6.5855  -17.5443 C   0  0  0  0  0  0  0  0  0  0  0  0
    7.8997    7.7099  -19.6706 C   0  0  0  0  0  0  0  0  0  0  0  0
    5.6632    7.6889  -18.7038 C   0  0  0  0  0  0  0  0  0  0  0  0
    6.2529    0.6533  -21.6219 C   0  0  0  0  0  0  0  0  0  0  0  0
    4.5632   -0.8595  -20.7132 C   0  0  0  0  0  0  0  0  0  0  0  0
    6.6336   -1.7553  -21.6443 C   0  0  0  0  0  0  0  0  0  0  0  0
    5.6451    9.3648  -22.8747 C   0  0  0  0  0  0  0  0  0  0  0  0
    6.3697    8.4618  -22.1360 C   0  0  0  0  0  0  0  0  0  0  0  0
    5.1644    9.8257  -20.7516 C   0  0  0  0  0  0  0  0  0  0  0  0
    6.1263    6.9416  -17.5938 C   0  0  0  0  0  0  0  0  0  0  0  0
    4.9982    0.4500  -21.0077 C   0  0  0  0  0  0  0  0  0  0  0  0
    6.5386    8.0737  -19.7377 C   0  0  0  0  0  0  0  0  0  0  0  0
    7.0717   -0.4475  -21.9331 C   0  0  0  0  0  0  0  0  0  0  0  0
    5.3783   -1.9607  -21.0367 C   0  0  0  0  0  0  0  0  0  0  0  0
    6.5697    1.0898  -17.9362 C   0  0  0  0  0  0  0  0  0  0  0  0
    5.4432    7.8761  -13.9939 C   0  0  0  0  0  0  0  0  0  0  0  0
    4.8439    8.5483  -15.2409 C   0  0  0  0  0  0  0  0  0  0  0  0
    6.3990    6.7318  -14.3765 C   0  0  0  0  0  0  0  0  0  0  0  0
    4.1202    7.5042  -16.1022 C   0  0  0  0  0  0  0  0  0  0  0  0
    5.7135    5.7130  -15.3122 C   0  0  0  0  0  0  0  0  0  0  0  0
    5.0936    6.3900  -16.5781 C   0  0  0  0  0  0  0  0  0  0  0  0
    6.7767   -0.1260  -17.0371 C   0  0  0  0  0  0  0  0  0  0  0  0
    4.1881    1.6407  -20.5417 C   0  0  0  0  0  0  0  0  0  0  0  0
    5.0034    4.2374  -17.7972 C   0  0  0  0  0  0  0  0  0  0  0  0
    4.9555    2.3650  -19.4142 C   0  0  1  0  0  0  0  0  0  0  0  0
    4.1318    3.5036  -18.8074 C   0  0  2  0  0  0  0  0  0  0  0  0
    4.9312   10.1991  -21.9916 N   0  0  0  0  0  0  0  0  0  0  0  0
    6.0440    8.7698  -20.8421 N   0  0  0  0  0  0  0  0  0  0  0  0
    5.2789    1.3920  -18.3525 N   0  0  0  0  0  0  0  0  0  0  0  0
    4.2594    5.3986  -17.2833 N   0  0  0  0  0  0  0  0  0  0  0  0
    7.5450    1.6708  -18.4001 O   0  0  0  0  0  0  0  0  0  0  0  0
    3.7338    4.4264  -19.8210 O   0  0  0  0  0  0  0  0  0  0  0  0
    8.2873   -0.2467  -22.4896 F   0  0  0  0  0  0  0  0  0  0  0  0
    4.9625   -3.2143  -20.7485 F   0  0  0  0  0  0  0  0  0  0  0  0
    9.4251    6.7185  -18.5115 H   0  0  0  0  0  0  0  0  0  0  0  0
    7.8736    6.0076  -16.7119 H   0  0  0  0  0  0  0  0  0  0  0  0
    8.5740    7.9930  -20.4653 H   0  0  0  0  0  0  0  0  0  0  0  0
    4.6215    7.9684  -18.7585 H   0  0  0  0  0  0  0  0  0  0  0  0
    6.5844    1.6548  -21.8531 H   0  0  0  0  0  0  0  0  0  0  0  0
    3.6054   -1.0169  -20.2399 H   0  0  0  0  0  0  0  0  0  0  0  0
    7.2598   -2.6006  -21.8886 H   0  0  0  0  0  0  0  0  0  0  0  0
    5.6257    9.4254  -23.9528 H   0  0  0  0  0  0  0  0  0  0  0  0
    7.0380    7.6914  -22.4913 H   0  0  0  0  0  0  0  0  0  0  0  0
    4.7522   10.2570  -19.8513 H   0  0  0  0  0  0  0  0  0  0  0  0
    5.9991    8.6279  -13.4144 H   0  0  0  0  0  0  0  0  0  0  0  0
    4.6265    7.4697  -13.3792 H   0  0  0  0  0  0  0  0  0  0  0  0
    4.1280    9.3229  -14.9288 H   0  0  0  0  0  0  0  0  0  0  0  0
    5.6506    9.0103  -15.8291 H   0  0  0  0  0  0  0  0  0  0  0  0
    7.2759    7.1544  -14.8888 H   0  0  0  0  0  0  0  0  0  0  0  0
    6.7229    6.2151  -13.4610 H   0  0  0  0  0  0  0  0  0  0  0  0
    3.3148    7.0467  -15.5090 H   0  0  0  0  0  0  0  0  0  0  0  0
    3.6891    8.0031  -16.9827 H   0  0  0  0  0  0  0  0  0  0  0  0
    6.4602    4.9734  -15.6369 H   0  0  0  0  0  0  0  0  0  0  0  0
    4.9124    5.2050  -14.7552 H   0  0  0  0  0  0  0  0  0  0  0  0
    7.8535   -0.3213  -16.9258 H   0  0  0  0  0  0  0  0  0  0  0  0
    6.3357    0.0698  -16.0486 H   0  0  0  0  0  0  0  0  0  0  0  0
    6.2899   -1.0030  -17.4886 H   0  0  0  0  0  0  0  0  0  0  0  0
    4.0314    2.3315  -21.3832 H   0  0  0  0  0  0  0  0  0  0  0  0
    3.2141    1.2977  -20.1626 H   0  0  0  0  0  0  0  0  0  0  0  0
    5.2545    3.5620  -16.9660 H   0  0  0  0  0  0  0  0  0  0  0  0
    5.9285    4.5777  -18.2854 H   0  0  0  0  0  0  0  0  0  0  0  0
    5.8852    2.7804  -19.8303 H   0  0  0  0  0  0  0  0  0  0  0  0
    3.2533    3.0839  -18.2954 H   0  0  0  0  0  0  0  0  0  0  0  0
    4.5201    0.9199  -17.9038 H   0  0  0  0  0  0  0  0  0  0  0  0
    3.5618    5.0674  -16.6479 H   0  0  0  0  0  0  0  0  0  0  0  0
    3.8172    5.8541  -18.0560 H   0  0  0  0  0  0  0  0  0  0  0  0
    3.1886    3.9811  -20.4589 H   0  0  0  0  0  0  0  0  0  0  0  0
  1  2  2  0
  1  3  1  0
  2 11  1  0
  3 13  2  0
  4 11  2  0
  4 13  1  0
  5 12  2  0
  5 14  1  0
  6 12  1  0
  6 15  2  0
  7 14  2  0
  7 15  1  0
  8  9  2  0
  8 28  1  0
  9 29  1  0
 10 28  2  0
 10 29  1  0
 11 22  1  0
 12 24  1  0
 13 29  1  0
 14 34  1  0
 15 35  1  0
 16 23  1  0
 16 30  1  0
 16 32  2  0
 17 18  1  0
 17 19  1  0
 18 20  1  0
 19 21  1  0
 20 22  1  0
 21 22  1  0
 22 31  1  0
 24 26  1  0
 25 27  1  0
 25 31  1  0
 26 27  1  0
 26 30  1  0
 27 33  1  0
  1 36  1  0
  2 37  1  0
  3 38  1  0
  4 39  1  0
  5 40  1  0
  6 41  1  0
  7 42  1  0
  8 43  1  0
  9 44  1  0
 10 45  1  0
 17 46  1  0
 17 47  1  0
 18 48  1  0
 18 49  1  0
 19 50  1  0
 19 51  1  0
 20 52  1  0
 20 53  1  0
 21 54  1  0
 21 55  1  0
 23 56  1  0
 23 57  1  0
 23 58  1  0
 24 59  1  0
 24 60  1  0
 25 61  1  0
 25 62  1  0
 26 63  1  6
 27 64  1  1
 30 65  1  0
 31 66  1  0
 31 67  1  0
 33 68  1  0
M  CHG  1  31   1
M  END
>  <OMEGA_C>  (85) 
yQ4GQUhU30B3j5TBLwDwQIO80kCuWozBc8r8QB+39kB8XZ3BTTm1QHcL9kB4oZXBXxfIQDBAJz+0
+azB+QWSQOwFXL+5tKXBFUbUQJWt4L+BJ63B2KS0QDTWFUFm/7bB+dTLQGxjB0F/FrHBYUKlQEI2
HUFPA6bBegrEQIch3kAXwIzBMvGfQORi5j7WD6jBOjzRQMQtAUHg5p3BGkviQJMZ5b4Cd6/BQRus
QKz2+r8uS6jB0jrSQFl+iz9wfY/B5y6uQCkJ/EDV5l/BngGbQArGCEGR2nPBqMTMQPhq10D5BWbB
/tiDQLYi8EBb0YDB29S2QNzQtkCs/nTBAv+iQKl6zED8n4TBE9vYQDgIAb7kS4jBpQSGQO0B0j9W
VaTBKhygQHiYh0CgYI7BW5OeQKNcF0BXUJvBpTeEQH46YECCdZbBKcydQH4vI0HL7q/Bq2jBQAhR
DEGsvKbBsOyoQKUtsj/b0ZLBqkyIQPfArEBLRIrBZXDxQA7e1T9gM5PBJfduQAaljUBkkZ7BqpgE
QdCofL606rPBmsyeQLu2TcDl/KXBIM0WQRz+1kCEF5TBPvT7QP89wED6sYXBLy8JQcjG/0ACuaPB
LOOTQGz9/kBrEZbBgLPSQIfR0z8v067BIb5mQDMqgr8/66HBE1DoQK9wJsDCG6/B8AW0QFrOFkFm
n7/BnzfhQLUf9kA77rPBUhKYQNAcJEF7z57Bu/i/QAIMCkFloVbBogyUQOEH70AAEVbBPRiEQLEq
FUFG3G7BldG0QP4pEEHZQ33BONToQJjw5ECAOG7BJiLXQBXixkAyYFfB5SVUQKB+4UC5JHjB+Bls
QKQMAEGY3IfB0LnOQBEmn0CsMHrBfjKdQJ6PpkApFWzBLFD7QAN+pL74Z4fBqb3KQGLxjj16Y4DB
LUfJQLJigL+j6IvBQgGBQAk4FUDIEKvBI7NNQPQapj8STaHBNiWoQEP3Y0B1uofBoLa9QF98kkCC
SJLBYVO8QODyMUBspJ7BYDVQQCRfRUAPXZLB0aSQQBt9az/iOo/Bj/RjQFYookDxLoXBbkx0QPVU
u0CZcpDBGRJMQEPKfkDWq6PBb4gFQYOC30A7k5TBxeDuQAR400DNVIzBQ8r7QKIj9kB4gZ3B3xm0
QHTD9UAH0pXBMtLIQCeoHj9l1KzB80+QQFiyTb/IjqXBFTHRQIQa57+F36zBd3GbQDE2IEHrTbHB
IFOiQG02G0FKv6bB78HLQJMLBkGWfbHBuOXCQKTJ3kAcyozBfEygQMoK9j4U+KfB9CXQQGuuAEHj
KJ7BrEDhQFrYBb+3Qq/BVrCoQAj0+L+ECqjBPibTQCjhiz+gmY/Ba4+rQJ6D/UDBAWDBzU+YQFFO
CUHkDXTB3v/KQIOY2UCOBWbB/geCQGrc8EDv+4DBb5q1QLtpuEAK0nTBvsihQHFzzUA2noTBOhjZ
QLNDBb76cojBqM+HQPKc2j+qcqTBsRSgQGxiiECYLY7B/gygQDZPGkBPR5vBOyWFQAB4YkD2dpbB
Exa1QEy/EkFhrrfB4CrAQHooC0FOLqfBMPOpQBLitj+q0JLBV5uHQOkvrUDhKIrB76zyQKT60z8p
UpPBf/5xQKL9jkBqlZ7BQiYEQdK6xr6HyrPBwWSZQIgnS8C6rKXBfUkWQctT10BoCZTBY8z6QHhx
wUC6loXBX7oIQfjv/kAb3qPBlb2SQKqO/kA+VJbBNRPVQPcjzT/Irq7B87xiQNoYab9nzqHB7+7j
QAeoK8Bfv67BRviFQKprLEEuO7TBh7GTQElCIkHmwZ/BgaviQFA19ECR+rPBTqq8QFb3CkFgplbB
44iRQNvw70DdSlbBZtiAQBF6FUHEKG/BRAKyQAPyEEFCWH3Bt6/mQLui50CSUW7BI9jVQDyAyUCn
VlfBRSNQQEYI4kAArnjB7ippQFhJAEHqGojB/cvNQLngoEDM0HnBjAucQF4ZqEB24WvBsG77QF7M
sb4wmIfBCzfLQNPGkD34hYDBNunIQIbcfr/oEozB+ZCEQB2RGUA0PqvBhrJPQPlotD+ho6HBFoin
QJMcZUDTh4fBUQa+QAGRk0At3ZHBC/C9QEthNUBsd57BZ21RQJL7RkDCk5LBS3GRQL3jeT9VKY/B
MP5iQAtlokBfC4XBRFpyQGNJu0CPXpDBfDdQQOfTgEBb0aPB

>  <OMEGA_E>  (85) 
EKZyPgD+hz4=

>  <OMEGA_NBR>  (85) 
     14466

$$$$
50214055
     RDKit          3D

 67 70  0  0  1  0  0  0  0  0999 V2000
    8.3795    6.9657  -18.5625 C   0  0  0  0  0  0  0  0  0  0  0  0
    7.4880    6.5855  -17.5417 C   0  0  0  0  0  0  0  0  0  0  0  0
    7.9149    7.6900  -19.6734 C   0  0  0  0  0  0  0  0  0  0  0  0
    5.6708    7.6920  -18.7221 C   0  0  0  0  0  0  0  0  0  0  0  0
    4.5311   -0.7967  -20.6847 C   0  0  0  0  0  0  0  0  0  0  0  0
    6.2330    0.6746  -21.6382 C   0  0  0  0  0  0  0  0  0  0  0  0
    6.5784   -1.7394  -21.6186 C   0  0  0  0  0  0  0  0  0  0  0  0
    5.6709    9.1773  -22.8780 C   0  0  0  0  0  0  0  0  0  0  0  0
    4.8501   10.0319  -21.9908 C   0  0  0  0  0  0  0  0  0  0  0  0
    6.1178    6.9564  -17.6022 C   0  0  0  0  0  0  0  0  0  0  0  0
    4.9825    0.5001  -21.0081 C   0  0  0  0  0  0  0  0  0  0  0  0
    6.5567    8.0583  -19.7513 C   0  0  0  0  0  0  0  0  0  0  0  0
    5.3268   -1.9152  -20.9949 C   0  0  0  0  0  0  0  0  0  0  0  0
    7.0313   -0.4440  -21.9388 C   0  0  0  0  0  0  0  0  0  0  0  0
    6.5931    1.1312  -17.9747 C   0  0  0  0  0  0  0  0  0  0  0  0
    5.3983    7.9455  -14.0283 C   0  0  0  0  0  0  0  0  0  0  0  0
    4.8040    8.6034  -15.2855 C   0  0  0  0  0  0  0  0  0  0  0  0
    6.3603    6.8010  -14.3936 C   0  0  0  0  0  0  0  0  0  0  0  0
    4.0909    7.5498  -16.1419 C   0  0  0  0  0  0  0  0  0  0  0  0
    5.6754    5.7677  -15.3119 C   0  0  0  0  0  0  0  0  0  0  0  0
    5.0693    6.4284  -16.5907 C   0  0  0  0  0  0  0  0  0  0  0  0
    6.7998   -0.0849  -17.0759 C   0  0  0  0  0  0  0  0  0  0  0  0
    4.1964    1.7084  -20.5538 C   0  0  0  0  0  0  0  0  0  0  0  0
    4.9866    4.2719  -17.7858 C   0  0  0  0  0  0  0  0  0  0  0  0
    4.9697    2.4256  -19.4268 C   0  0  1  0  0  0  0  0  0  0  0  0
    4.1399    3.5606  -18.8268 C   0  0  2  0  0  0  0  0  0  0  0  0
    6.4191    8.4095  -22.1244 N   0  0  0  0  0  0  0  0  0  0  0  0
    5.1317    9.7147  -20.7522 N   0  0  0  0  0  0  0  0  0  0  0  0
    6.0651    8.7384  -20.8606 N   0  0  0  0  0  0  0  0  0  0  0  0
    5.2982    1.4537  -18.3643 N   0  0  0  0  0  0  0  0  0  0  0  0
    4.2388    5.4345  -17.2894 N   0  0  0  0  0  0  0  0  0  0  0  0
    7.5680    1.6942  -18.4612 O   0  0  0  0  0  0  0  0  0  0  0  0
    3.7788    4.4954  -19.8441 O   0  0  0  0  0  0  0  0  0  0  0  0
    4.8964   -3.1571  -20.6791 F   0  0  0  0  0  0  0  0  0  0  0  0
    8.2402   -0.2726  -22.5189 F   0  0  0  0  0  0  0  0  0  0  0  0
    9.4239    6.6998  -18.4918 H   0  0  0  0  0  0  0  0  0  0  0  0
    7.8490    6.0065  -16.7046 H   0  0  0  0  0  0  0  0  0  0  0  0
    8.5966    7.9638  -20.4651 H   0  0  0  0  0  0  0  0  0  0  0  0
    4.6315    7.9779  -18.7893 H   0  0  0  0  0  0  0  0  0  0  0  0
    3.5757   -0.9310  -20.1994 H   0  0  0  0  0  0  0  0  0  0  0  0
    6.5772    1.6669  -21.8897 H   0  0  0  0  0  0  0  0  0  0  0  0
    7.1908   -2.5980  -21.8512 H   0  0  0  0  0  0  0  0  0  0  0  0
    5.6558    9.1852  -23.9578 H   0  0  0  0  0  0  0  0  0  0  0  0
    4.1436   10.7842  -22.3090 H   0  0  0  0  0  0  0  0  0  0  0  0
    5.9480    8.7050  -13.4530 H   0  0  0  0  0  0  0  0  0  0  0  0
    4.5794    7.5423  -13.4145 H   0  0  0  0  0  0  0  0  0  0  0  0
    4.0826    9.3775  -14.9850 H   0  0  0  0  0  0  0  0  0  0  0  0
    5.6125    9.0635  -15.8725 H   0  0  0  0  0  0  0  0  0  0  0  0
    7.2345    7.2195  -14.9139 H   0  0  0  0  0  0  0  0  0  0  0  0
    6.6880    6.2996  -13.4711 H   0  0  0  0  0  0  0  0  0  0  0  0
    3.2773    7.1008  -15.5533 H   0  0  0  0  0  0  0  0  0  0  0  0
    3.6719    8.0377  -17.0343 H   0  0  0  0  0  0  0  0  0  0  0  0
    6.4193    5.0178  -15.6187 H   0  0  0  0  0  0  0  0  0  0  0  0
    4.8678    5.2748  -14.7507 H   0  0  0  0  0  0  0  0  0  0  0  0
    7.8754   -0.2974  -16.9871 H   0  0  0  0  0  0  0  0  0  0  0  0
    6.3834    0.1213  -16.0788 H   0  0  0  0  0  0  0  0  0  0  0  0
    6.2891   -0.9553  -17.5137 H   0  0  0  0  0  0  0  0  0  0  0  0
    4.0585    2.3967  -21.4006 H   0  0  0  0  0  0  0  0  0  0  0  0
    3.2135    1.3874  -20.1784 H   0  0  0  0  0  0  0  0  0  0  0  0
    5.2027    3.5869  -16.9527 H   0  0  0  0  0  0  0  0  0  0  0  0
    5.9309    4.6053  -18.2408 H   0  0  0  0  0  0  0  0  0  0  0  0
    5.8972    2.8438  -19.8449 H   0  0  0  0  0  0  0  0  0  0  0  0
    3.2435    3.1417  -18.3463 H   0  0  0  0  0  0  0  0  0  0  0  0
    4.5411    0.9987  -17.8954 H   0  0  0  0  0  0  0  0  0  0  0  0
    3.5374    5.1095  -16.6551 H   0  0  0  0  0  0  0  0  0  0  0  0
    3.8013    5.8829  -18.0689 H   0  0  0  0  0  0  0  0  0  0  0  0
    3.2484    4.0601  -20.5010 H   0  0  0  0  0  0  0  0  0  0  0  0
  1  2  2  0
  1  3  1  0
  2 10  1  0
  3 12  2  0
  4 10  2  0
  4 12  1  0
  5 11  2  0
  5 13  1  0
  6 11  1  0
  6 14  2  0
  7 13  2  0
  7 14  1  0
  8  9  1  0
  8 27  2  0
  9 28  2  0
 10 21  1  0
 11 23  1  0
 12 29  1  0
 13 34  1  0
 14 35  1  0
 15 22  1  0
 15 30  1  0
 15 32  2  0
 16 17  1  0
 16 18  1  0
 17 19  1  0
 18 20  1  0
 19 21  1  0
 20 21  1  0
 21 31  1  0
 23 25  1  0
 24 26  1  0
 24 31  1  0
 25 26  1  0
 25 30  1  0
 26 33  1  0
 27 29  1  0
 28 29  1  0
  1 36  1  0
  2 37  1  0
  3 38  1  0
  4 39  1  0
  5 40  1  0
  6 41  1  0
  7 42  1  0
  8 43  1  0
  9 44  1  0
 16 45  1  0
 16 46  1  0
 17 47  1  0
 17 48  1  0
 18 49  1  0
 18 50  1  0
 19 51  1  0
 19 52  1  0
 20 53  1  0
 20 54  1  0
 22 55  1  0
 22 56  1  0
 22 57  1  0
 23 58  1  0
 23 59  1  0
 24 60  1  0
 24 61  1  0
 25 62  1  6
 26 63  1  1
 30 64  1  0
 31 65  1  0
 31 66  1  0
 33 67  1  0
M  CHG  1  31   1
M  END
>  <OMEGA_C>  (86) 
bxIGQfvm3kAagJTBCJ7vQMu80kBzVYzBEUf9QNsU9kAPY53BGHe1QMok9kDnxpXBq/6QQHHzS78y
eqXBA3XHQEixLD8eG63BRoLSQKak3r/U8qzBQHi1QDrWEkEPBrfB9DObQH+CIEET7a/BNsXDQNCa
3kA10YzBvnCfQLgJAD+MEKjBYdDRQKjuAEGsAp7BNXWqQCAm9b+e9afBmwDhQHJR476+gq/BFPvS
QALKkD8yzI/Bt76sQLxB/kD3c2DBhbqZQFqnCUFGkXTBu4fLQCui2UBhTGbBB+mCQAOY8UCjIoHB
vpy1QGaRuEBm/XTByjeiQK21zUDAuYTBnJfZQOjprb1mm4jBzkiGQISr2j8vbqTB4ZGfQLqziEBN
SY7BYAefQL09G0AXapvBMHqEQPDgY0BCnZbBnGnNQFyNBkHJ/rDBCDekQIFvG0GVBKbB9RTCQFPQ
C0GH4qbB5oqpQOgRuj8Z6pLBN6SHQI/nrUCwUIrBdy3yQNjc2D+dsJPBcthxQKjaj0CewJ7Bmq+c
QFkOSsC6bqXBAtgDQSiPi761JrTBJMgWQbtk1kAz75PBMSv7QBQ1wEAGo4XBposJQYjX/kBzuKPB
JDWUQPxK/0BnUJbBeddkQJBVbr9UmKHBmnjSQKZc1T80Hq/B+xrmQGpGJsAvz67BTfy0QKz2EkGf
qb/BUpiEQPWLLEHgeLLBBVa+QNBHC0GXP1fBI4qSQEpa8UDOoVbBAaWCQGEKFkGnwm/BkJmzQDYE
EUHD9X3BEYHnQEUG50Bpn27BfgTWQECWyUCIiVfBFsBRQHo540B22njBo/9qQDyaAEFCRojBEmvN
QAaSoEBd5nnBa8WbQI/LqEDBAmzBHwP8QFVHmL6l5YfBqUTMQGBW+D1toYDBMUDJQNGNdL8FHIzB
dN+BQCZkGUCBNKvB/alNQJiVsT9sbaHBjnymQFyQZUAen4fBBcq9QL9ek0A37ZHByrW8QH0ANkBq
wp7B4JRPQOURSUAlxZLB3VCRQLKrfz/bKY/B8mRiQKyAo0CMPYXBUUhzQFBAvEAOjZDB2+VPQCPs
gUATAqTBKDQGQXD03kA7g5TBiNPvQLze0kA3WozB/5b9QHgE9kCKa53BILu1QGhD9kA005XB+rHH
QJZLNz+wXa3BMYqSQA3ISb/hkqXB/gvUQB+T2L8mWa3BpUy1QApoEkGcF7fBRPWbQFiNIEEBBLDB
bPvDQLTD3kDD2YzBrAqgQOZmBD9CNKjBKyfSQI3tAEGrDp7BZbvhQOBdxr7x46/BhXGsQE4i8r89
MqjBkvnSQIn9jj+B14/BrTGtQLBN/kA8aWDBxxyaQJi+CUFNeXTBhfbLQADG2UBUYWbB8zyDQGDq
8UDCIIHBa9+1QKzFuECzDXXBI2uiQDr0zUBiv4TBFcnZQDyR1L1Ht4jBXmaGQNzT2j8PdKTBsISf
QFreiEBqT47Bx9meQETfGkCzWZvB9BSEQCXwYkC0d5bBljTNQCQiBkHEDLHB5VKlQOyzG0FrGabB
Ko7CQPnIC0GW8qbBYH2pQFATuD/K7pLBIrOHQEwtrkB3VIrBBRfyQMqZ2T+clZPBhuJuQAT/jkAo
l57B4BkEQQw1Rb5plbTBXYmfQIIUScBZpaXBAOoWQUZ51kDL7JPB0VT7QDlfwEAYpYXBLbYJQfil
/kCswqPBLn6UQN54/0C/X5bB4g3SQG+K2z/aYK/BeLFoQH/KcL/sjKHBwuvnQJWFIsBuWa/B0EO0
QGM7EkFYur/BF62FQHq5LEGPlLLBWs2+QBpFC0GEK1fBYgiTQBFM8UAwmFbBuAqDQGIcFkErmW/B
8vWzQLwlEUHA2X3BeNPnQJA850CmxG7BTaPWQIOpyUCfq1fBeUVSQLyQ40DI4HjBeNFrQA7WAEG3
QYjBH5fNQIq2oEC7/nnBgwmcQNwQqUCWCmzBhUP8QN7Vmb4Y5ofBgenLQOm5sT3zxYDBJxTKQGVX
er+aVozBvcSBQCUZGkB4J6vBNBtOQK2hrz9Vf6HBJwCnQESbZkCCnIfBZG69QFiJk0D7GpLBMH+8
QGY+NkAco57B8NlPQHxtR0CUdZLB6lKRQNyTeT/OOI/B1YNiQC7Yo0DpPoXBJmdzQEGNvEDej5DB
34JMQBWvgEDlvKPB

>  <OMEGA_E>  (86) 
YGwEPqBcBT4=

>  <OMEGA_NBR>  (86) 
     16932

$$$$
50214064
     RDKit          3D

 66 70  0  0  1  0  0  0  0  0999 V2000
    8.3361    6.8639  -18.3274 C   0  0  0  0  0  0  0  0  0  0  0  0
    7.4424    6.4813  -17.3085 C   0  0  0  0  0  0  0  0  0  0  0  0
    7.8731    7.6116  -19.4306 C   0  0  0  0  0  0  0  0  0  0  0  0
    5.6317    7.6050  -18.4855 C   0  0  0  0  0  0  0  0  0  0  0  0
    6.3575    0.6944  -21.6607 C   0  0  0  0  0  0  0  0  0  0  0  0
    4.6014   -0.7757  -20.8126 C   0  0  0  0  0  0  0  0  0  0  0  0
    6.6613   -1.7276  -21.7140 C   0  0  0  0  0  0  0  0  0  0  0  0
    6.0881    6.8631  -17.3956 C   0  0  0  0  0  0  0  0  0  0  0  0
    5.0827    0.5276  -21.0749 C   0  0  0  0  0  0  0  0  0  0  0  0
    6.5068    7.9748  -19.5174 C   0  0  0  0  0  0  0  0  0  0  0  0
    7.1464   -0.4310  -21.9741 C   0  0  0  0  0  0  0  0  0  0  0  0
    5.3873   -1.9004  -21.1387 C   0  0  0  0  0  0  0  0  0  0  0  0
    6.5458    1.0149  -18.0523 C   0  0  0  0  0  0  0  0  0  0  0  0
    4.4097    7.3678  -15.4994 C   0  0  0  0  0  0  0  0  0  0  0  0
    5.3471    6.2704  -14.9441 C   0  0  0  0  0  0  0  0  0  0  0  0
    5.6979    8.3681  -22.8908 C   0  0  0  0  0  0  0  0  0  0  0  0
    4.5188    8.8202  -20.8907 C   0  0  0  0  0  0  0  0  0  0  0  0
    6.4363   10.4750  -22.1702 C   0  0  0  0  0  0  0  0  0  0  0  0
    6.6530    8.9752  -21.8982 C   0  0  1  0  0  0  0  0  0  0  0  0
    4.5291    9.1880  -22.3804 C   0  0  1  0  0  0  0  0  0  0  0  0
    5.0522    6.3519  -16.4414 C   0  0  0  0  0  0  0  0  0  0  0  0
    6.6886   -0.2189  -17.1660 C   0  0  0  0  0  0  0  0  0  0  0  0
    4.2834    1.7464  -20.6254 C   0  0  0  0  0  0  0  0  0  0  0  0
    4.8970    4.1971  -17.6385 C   0  0  0  0  0  0  0  0  0  0  0  0
    4.9868    2.4479  -19.4340 C   0  0  1  0  0  0  0  0  0  0  0  0
    4.1288    3.5748  -18.8161 C   0  0  2  0  0  0  0  0  0  0  0  0
    5.9841    8.6823  -20.5999 N   0  0  0  0  0  0  0  0  0  0  0  0
    5.2679    1.4422  -18.3931 N   0  0  0  0  0  0  0  0  0  0  0  0
    4.1627    5.3528  -17.0729 N   0  0  0  0  0  0  0  0  0  0  0  0
    7.5443    1.5037  -18.5703 O   0  0  0  0  0  0  0  0  0  0  0  0
    5.0104   10.5553  -22.4885 O   0  0  0  0  0  0  0  0  0  0  0  0
    3.8753    4.5850  -19.7937 O   0  0  0  0  0  0  0  0  0  0  0  0
    8.3753   -0.2670  -22.5141 F   0  0  0  0  0  0  0  0  0  0  0  0
    4.9249   -3.1469  -20.8894 F   0  0  0  0  0  0  0  0  0  0  0  0
    9.3775    6.5845  -18.2643 H   0  0  0  0  0  0  0  0  0  0  0  0
    7.7915    5.9005  -16.4676 H   0  0  0  0  0  0  0  0  0  0  0  0
    8.5607    7.9072  -20.2092 H   0  0  0  0  0  0  0  0  0  0  0  0
    4.5933    7.8977  -18.5352 H   0  0  0  0  0  0  0  0  0  0  0  0
    6.7286    1.6870  -21.8690 H   0  0  0  0  0  0  0  0  0  0  0  0
    3.6294   -0.9102  -20.3614 H   0  0  0  0  0  0  0  0  0  0  0  0
    7.2662   -2.5891  -21.9557 H   0  0  0  0  0  0  0  0  0  0  0  0
    3.3295    7.3244  -15.2961 H   0  0  0  0  0  0  0  0  0  0  0  0
    4.7382    8.4175  -15.5141 H   0  0  0  0  0  0  0  0  0  0  0  0
    6.3438    6.5378  -14.5633 H   0  0  0  0  0  0  0  0  0  0  0  0
    4.9351    5.4447  -14.3453 H   0  0  0  0  0  0  0  0  0  0  0  0
    5.9592    8.5824  -23.9376 H   0  0  0  0  0  0  0  0  0  0  0  0
    5.5621    7.2842  -22.7613 H   0  0  0  0  0  0  0  0  0  0  0  0
    4.0631    9.6168  -20.2843 H   0  0  0  0  0  0  0  0  0  0  0  0
    3.9847    7.8747  -20.7150 H   0  0  0  0  0  0  0  0  0  0  0  0
    6.6762   11.0758  -21.2806 H   0  0  0  0  0  0  0  0  0  0  0  0
    7.0493   10.8145  -23.0181 H   0  0  0  0  0  0  0  0  0  0  0  0
    7.6967    8.6381  -21.9824 H   0  0  0  0  0  0  0  0  0  0  0  0
    3.5784    8.9838  -22.8946 H   0  0  0  0  0  0  0  0  0  0  0  0
    7.7470   -0.5143  -17.1157 H   0  0  0  0  0  0  0  0  0  0  0  0
    6.3241    0.0125  -16.1543 H   0  0  0  0  0  0  0  0  0  0  0  0
    6.0973   -1.0444  -17.5889 H   0  0  0  0  0  0  0  0  0  0  0  0
    4.1995    2.4537  -21.4637 H   0  0  0  0  0  0  0  0  0  0  0  0
    3.2782    1.4256  -20.3144 H   0  0  0  0  0  0  0  0  0  0  0  0
    5.0294    3.4371  -16.8543 H   0  0  0  0  0  0  0  0  0  0  0  0
    5.8825    4.5355  -17.9912 H   0  0  0  0  0  0  0  0  0  0  0  0
    5.9322    2.8819  -19.7918 H   0  0  0  0  0  0  0  0  0  0  0  0
    3.1856    3.1465  -18.4461 H   0  0  0  0  0  0  0  0  0  0  0  0
    4.4927    1.0437  -17.9030 H   0  0  0  0  0  0  0  0  0  0  0  0
    3.5217    5.0161  -16.3832 H   0  0  0  0  0  0  0  0  0  0  0  0
    3.6552    5.7991  -17.8100 H   0  0  0  0  0  0  0  0  0  0  0  0
    3.4006    4.2070  -20.5246 H   0  0  0  0  0  0  0  0  0  0  0  0
  1  2  2  0
  1  3  1  0
  2  8  1  0
  3 10  2  0
  4  8  2  0
  4 10  1  0
  5  9  2  0
  5 11  1  0
  6  9  1  0
  6 12  2  0
  7 11  2  0
  7 12  1  0
  8 21  1  0
  9 23  1  0
 10 27  1  0
 11 33  1  0
 12 34  1  0
 13 22  1  0
 13 28  1  0
 13 30  2  0
 14 15  1  0
 14 21  1  0
 15 21  1  0
 16 19  1  0
 16 20  1  0
 17 20  1  0
 17 27  1  0
 18 19  1  0
 18 31  1  0
 19 27  1  0
 20 31  1  0
 21 29  1  0
 23 25  1  0
 24 26  1  0
 24 29  1  0
 25 26  1  0
 25 28  1  0
 26 32  1  0
  1 35  1  0
  2 36  1  0
  3 37  1  0
  4 38  1  0
  5 39  1  0
  6 40  1  0
  7 41  1  0
 14 42  1  0
 14 43  1  0
 15 44  1  0
 15 45  1  0
 16 46  1  0
 16 47  1  0
 17 48  1  0
 17 49  1  0
 18 50  1  0
 18 51  1  0
 19 52  1  1
 20 53  1  6
 22 54  1  0
 22 55  1  0
 22 56  1  0
 23 57  1  0
 23 58  1  0
 24 59  1  0
 24 60  1  0
 25 61  1  6
 26 62  1  1
 28 63  1  0
 29 64  1  0
 29 65  1  0
 32 66  1  0
M  CHG  1  29   1
M  END
>  <OMEGA_C>  (87) 
xmAFQRil20CZnpLBJyjuQMdmz0C+d4rBG/D7QHWS80DRcZvBDze0QP9b80Bm4pPBd3DLQP/FMT8l
Sa3BYT6TQMeRRr85gKbBninVQLoh3b9Utq3BtdHCQCme20BKKovBdKWiQFwRBz9omajBGDjQQOkx
/0CyI5zBb6/kQDym3L72yq/BrmSsQOJB87/9G6nBhnfRQMrmgT8ma5DBMByNQK7E60CT/XfBbxur
QCGnyEAcG2/B2VS2QJnjBUFWILfBEZqQQFkfDUESIKfBg/bNQHWZJ0GjXLHBdeXUQEeaD0GHL6/B
fe6QQCMCE0EHC7PBhKuhQIdCy0Dyh4PBDAnWQIshYL4FVInBPhGJQLaK3z/lAKXBf7ScQK1OhkCP
G43BJZSfQBaqHEDjeJvBOh+EQOLIZEBlh5bBmn2/QOXqCkGOzKTB1pKoQN6ZuD8dJZPB8zSFQNVJ
q0BhlYjBS2vxQGZ5wD/xj5TBMlWgQFviKEF46LPBzgR4QLC4kkCJWZ7BVgEGQd2xiL7LHLTBuZid
QJBmScCIHafBCgoWQWK00kBIHZLBJlT5QI/QvECLvYPBjvgIQb8H/UBirKHBkfySQNq5/EAoSJTB
olDXQO3w1z/F867B/0doQOADab8x5KLBcYToQFyzJcBapa/BwxZVQI9h6kDGvHTBU5+XQOitBkGp
OXjBoQDLQKE10UA4A2nBr+ydQGA7rkBVhmXB57G+QKFRCUEigL/BhPyxQAIY6UA7F7bB6ASCQGze
GUE7RqLB4wV/QGD9+0BhuKXBiqPVQEc2MUGWPqrBL5ThQDIILUEoJbjBfEv2QMA1CkHk26/BwQRl
QJ69D0E8KLfBS+f3QL+rA7/m7IjBCl/KQAEjTDz5O4HBMR3DQH2vhb8ntozBa2KGQAMJHUDAtavB
1s1RQBp6tj/8g6LB+vCgQPn5W0CW1YbBEj28QN4ikUD67Y/BRNS9QGpwOECnVZ7B++BLQO9fSUCG
kZPBQ8SPQMWXhT9POY/BfWNhQIqDoEDQEIPBGu9pQCGSuUDceo7B5aJZQAeghkB1MqTBX/gEQSSi
4kBjk5HBhWbsQK3p1ECSz4nBo6b7QMmC+UDDmJrB8RCyQFwJ80D6XZTBYPLGQGRPNT+8/63BSBOU
QJICUL/lgqXBY4/TQA+l2b9KZq7BQHbAQBOe3UD6MovBa6WgQKpTAD9CPqjBN5HPQHjOAEFv+ZvB
5VzgQEctyL4XDrHB/l2tQOOp9L/fp6jBd1jWQOspkz8c35DBpa2KQKtO60D0oXfBcYGpQJJYyEDc
YW/BlaqOQKQ3G0FnCLDBrmbWQIz+HkGRzanBu/20QI84+kAdILbBWH+eQBLnBUEXD6zBcKO6QBbD
IUFX77PBJ5WfQP8mzEB4pYPBSbreQIjiIr0JhonBzb2GQGO02D9kWKTB5FmdQEHTh0DVb43BTkOf
QFXGHECzcJvBwXqDQL/KYkD9OJbBooPAQC+qDEHfhKTBMC2sQKUjvj8DIpPBdWKEQMZ5q0B1wYjB
/lz0QB8b1z8PjpXBL5rFQBl5EEG1PrvB0l5uQEIpkEAgFp7B5H8CQXG7Qr4PlLbBWv2gQDXbSsBc
LKbBTsgVQa2f20BknpDBC0/3QP/Kw0CA0YLBCzIJQeZrAkEmdKDBaT+QQONM+EDikJXBGMjQQIH/
2j8rELDBjRZuQPOQeb/WAaHBUwbnQHi0IsBmxLDB+WpQQHYG6UCyQHTBSoKUQEqNBkG/aXfBN1PJ
QOMy0UCqS2nBagadQMQerUCeImbBPKttQLHpGUHoebbBdhuCQLKSJUHFpanBw733QDcWG0ES16vB
EbTVQJ5pLUFmwqTBdR3PQDxG5EAf9rPBiyqeQLqV6UCTYLvBuMOFQEyk9kDMtajBpga8QB3wMUGg
YrfB1pMAQSKtib4leYnBDzjUQAPsUj61W4HB29fMQKsQar9fcIzBO+qAQCwRGEBuFqvBLu1PQLhX
qz/zJqHBLCSlQBwyYUA1HofBTR67QDeIlEB15ZDBb9K7QODIOkDf9Z7BuSVOQIPPREA9n5LB1h2V
QI28hT+/2Y7Bqu5gQMiJn0BdQIPBYttmQJtouUDvk47B00ROQCVzgkAmjqPB

>  <OMEGA_E>  (87) 
qMgBP+ogCD8=

>  <OMEGA_NBR>  (87) 
     19376

$$$$
50214041
     RDKit          3D

 77 80  0  0  1  0  0  0  0  0999 V2000
    8.4420    6.8645  -18.3230 C   0  0  0  0  0  0  0  0  0  0  0  0
    7.4996    6.4782  -17.3546 C   0  0  0  0  0  0  0  0  0  0  0  0
    8.0342    7.5958  -19.4488 C   0  0  0  0  0  0  0  0  0  0  0  0
    5.7349    7.5188  -18.6572 C   0  0  0  0  0  0  0  0  0  0  0  0
    6.2133    0.6401  -21.6949 C   0  0  0  0  0  0  0  0  0  0  0  0
    4.5005   -0.7863  -20.6937 C   0  0  0  0  0  0  0  0  0  0  0  0
    6.5051   -1.7818  -21.6636 C   0  0  0  0  0  0  0  0  0  0  0  0
    6.1342    6.8411  -17.4941 C   0  0  0  0  0  0  0  0  0  0  0  0
    4.9715    0.4978  -21.0397 C   0  0  0  0  0  0  0  0  0  0  0  0
    6.6698    7.9157  -19.6274 C   0  0  0  0  0  0  0  0  0  0  0  0
    6.9784   -0.4994  -22.0066 C   0  0  0  0  0  0  0  0  0  0  0  0
    5.2665   -1.9244  -21.0067 C   0  0  0  0  0  0  0  0  0  0  0  0
    6.6349    1.1471  -18.0051 C   0  0  0  0  0  0  0  0  0  0  0  0
    5.3371    8.0402  -14.0489 C   0  0  0  0  0  0  0  0  0  0  0  0
    4.7760    8.6280  -15.3549 C   0  0  0  0  0  0  0  0  0  0  0  0
    6.2723    6.8460  -14.3162 C   0  0  0  0  0  0  0  0  0  0  0  0
    4.0631    7.5319  -16.1585 C   0  0  0  0  0  0  0  0  0  0  0  0
    5.5839    5.7716  -15.1913 C   0  0  0  0  0  0  0  0  0  0  0  0
    4.9069   10.5380  -21.7052 C   0  0  0  0  0  0  0  0  0  0  0  0
    4.9575    9.3751  -20.7092 C   0  0  0  0  0  0  0  0  0  0  0  0
    6.9036    8.2686  -22.0712 C   0  0  0  0  0  0  0  0  0  0  0  0
    4.5008   10.0642  -23.1084 C   0  0  0  0  0  0  0  0  0  0  0  0
    5.9166    8.0881  -23.2257 C   0  0  0  0  0  0  0  0  0  0  0  0
    5.0357    6.3705  -16.5186 C   0  0  0  0  0  0  0  0  0  0  0  0
    6.8698   -0.0911  -17.1443 C   0  0  0  0  0  0  0  0  0  0  0  0
    4.2139    1.7248  -20.5842 C   0  0  0  0  0  0  0  0  0  0  0  0
    4.9832    4.2238  -17.7463 C   0  0  0  0  0  0  0  0  0  0  0  0
    4.9912    2.4252  -19.4485 C   0  0  1  0  0  0  0  0  0  0  0  0
    4.1517    3.5394  -18.8198 C   0  0  2  0  0  0  0  0  0  0  0  0
    6.2266    8.5751  -20.7763 N   0  0  0  0  0  0  0  0  0  0  0  0
    5.3362    1.4358  -18.4079 N   0  0  0  0  0  0  0  0  0  0  0  0
    4.2173    5.3617  -17.2149 N   0  0  0  0  0  0  0  0  0  0  0  0
    7.5971    1.7607  -18.4545 O   0  0  0  0  0  0  0  0  0  0  0  0
    5.5660    9.3679  -23.7808 O   0  0  0  0  0  0  0  0  0  0  0  0
    3.7923    4.5002  -19.8141 O   0  0  0  0  0  0  0  0  0  0  0  0
    8.1766   -0.3613  -22.6173 F   0  0  0  0  0  0  0  0  0  0  0  0
    4.8216   -3.1527  -20.6592 F   0  0  0  0  0  0  0  0  0  0  0  0
    9.4814    6.5981  -18.2004 H   0  0  0  0  0  0  0  0  0  0  0  0
    7.8164    5.9013  -16.4983 H   0  0  0  0  0  0  0  0  0  0  0  0
    8.7635    7.9142  -20.1790 H   0  0  0  0  0  0  0  0  0  0  0  0
    4.6885    7.7392  -18.8088 H   0  0  0  0  0  0  0  0  0  0  0  0
    6.5763    1.6229  -21.9570 H   0  0  0  0  0  0  0  0  0  0  0  0
    3.5521   -0.8958  -20.1888 H   0  0  0  0  0  0  0  0  0  0  0  0
    7.0921   -2.6559  -21.9042 H   0  0  0  0  0  0  0  0  0  0  0  0
    5.9005    8.8224  -13.5192 H   0  0  0  0  0  0  0  0  0  0  0  0
    4.4992    7.7029  -13.4210 H   0  0  0  0  0  0  0  0  0  0  0  0
    4.0606    9.4288  -15.1165 H   0  0  0  0  0  0  0  0  0  0  0  0
    5.6017    9.0401  -15.9535 H   0  0  0  0  0  0  0  0  0  0  0  0
    7.1729    7.2064  -14.8350 H   0  0  0  0  0  0  0  0  0  0  0  0
    6.5590    6.3943  -13.3551 H   0  0  0  0  0  0  0  0  0  0  0  0
    3.2327    7.1309  -15.5589 H   0  0  0  0  0  0  0  0  0  0  0  0
    3.6673    7.9687  -17.0872 H   0  0  0  0  0  0  0  0  0  0  0  0
    6.3152    4.9856  -15.4308 H   0  0  0  0  0  0  0  0  0  0  0  0
    4.7477    5.3345  -14.6259 H   0  0  0  0  0  0  0  0  0  0  0  0
    4.1737   11.2783  -21.3524 H   0  0  0  0  0  0  0  0  0  0  0  0
    5.9016   11.0044  -21.7600 H   0  0  0  0  0  0  0  0  0  0  0  0
    4.8587    9.7843  -19.6929 H   0  0  0  0  0  0  0  0  0  0  0  0
    4.1122    8.7028  -20.9175 H   0  0  0  0  0  0  0  0  0  0  0  0
    7.4822    7.3403  -21.9546 H   0  0  0  0  0  0  0  0  0  0  0  0
    7.5847    9.0967  -22.3169 H   0  0  0  0  0  0  0  0  0  0  0  0
    3.6383    9.3875  -23.0172 H   0  0  0  0  0  0  0  0  0  0  0  0
    4.2170   10.9409  -23.7091 H   0  0  0  0  0  0  0  0  0  0  0  0
    6.3799    7.4673  -24.0068 H   0  0  0  0  0  0  0  0  0  0  0  0
    5.0083    7.5917  -22.8535 H   0  0  0  0  0  0  0  0  0  0  0  0
    7.9507   -0.2684  -17.0432 H   0  0  0  0  0  0  0  0  0  0  0  0
    6.4294    0.0657  -16.1486 H   0  0  0  0  0  0  0  0  0  0  0  0
    6.3983   -0.9634  -17.6205 H   0  0  0  0  0  0  0  0  0  0  0  0
    4.0989    2.4184  -21.4302 H   0  0  0  0  0  0  0  0  0  0  0  0
    3.2209    1.4260  -20.2173 H   0  0  0  0  0  0  0  0  0  0  0  0
    5.2006    3.5125  -16.9359 H   0  0  0  0  0  0  0  0  0  0  0  0
    5.9273    4.5834  -18.1816 H   0  0  0  0  0  0  0  0  0  0  0  0
    5.9110    2.8616  -19.8648 H   0  0  0  0  0  0  0  0  0  0  0  0
    3.2532    3.1011  -18.3608 H   0  0  0  0  0  0  0  0  0  0  0  0
    4.5879    0.9420  -17.9649 H   0  0  0  0  0  0  0  0  0  0  0  0
    3.5391    5.0091  -16.5701 H   0  0  0  0  0  0  0  0  0  0  0  0
    3.7508    5.8091  -17.9779 H   0  0  0  0  0  0  0  0  0  0  0  0
    3.2722    4.0792  -20.4885 H   0  0  0  0  0  0  0  0  0  0  0  0
  1  2  2  0
  1  3  1  0
  2  8  1  0
  3 10  2  0
  4  8  2  0
  4 10  1  0
  5  9  2  0
  5 11  1  0
  6  9  1  0
  6 12  2  0
  7 11  2  0
  7 12  1  0
  8 24  1  0
  9 26  1  0
 10 30  1  0
 11 36  1  0
 12 37  1  0
 13 25  1  0
 13 31  1  0
 13 33  2  0
 14 15  1  0
 14 16  1  0
 15 17  1  0
 16 18  1  0
 17 24  1  0
 18 24  1  0
 19 20  1  0
 19 22  1  0
 20 30  1  0
 21 23  1  0
 21 30  1  0
 22 34  1  0
 23 34  1  0
 24 32  1  0
 26 28  1  0
 27 29  1  0
 27 32  1  0
 28 29  1  0
 28 31  1  0
 29 35  1  0
  1 38  1  0
  2 39  1  0
  3 40  1  0
  4 41  1  0
  5 42  1  0
  6 43  1  0
  7 44  1  0
 14 45  1  0
 14 46  1  0
 15 47  1  0
 15 48  1  0
 16 49  1  0
 16 50  1  0
 17 51  1  0
 17 52  1  0
 18 53  1  0
 18 54  1  0
 19 55  1  0
 19 56  1  0
 20 57  1  0
 20 58  1  0
 21 59  1  0
 21 60  1  0
 22 61  1  0
 22 62  1  0
 23 63  1  0
 23 64  1  0
 25 65  1  0
 25 66  1  0
 25 67  1  0
 26 68  1  0
 26 69  1  0
 27 70  1  0
 27 71  1  0
 28 72  1  6
 29 73  1  1
 31 74  1  0
 32 75  1  0
 32 76  1  0
 35 77  1  0
M  CHG  1  32   1
M  END
>  <OMEGA_C>  (88) 
eBIHQeyp20BylZLBE/3vQIpNz0A81orBPYwAQcAQ80Aml5vB64O3QFua8EAIQpXBA9PGQPzcIz8f
j63BLgSQQPZMSb/LjKXB4ynQQIMS5L/1Tq3BKUvEQHrq2kAC9IvBfRafQEfl/j5QUajByW7VQL5N
/UDzBJ3BK0/fQOq1/76GDbDBdoeoQNZS9r+1DajBVFHUQDzUkj+ACpDBXcmqQHukAEFJyGDBA9WY
QB8MCkHVrXXBCbfIQFoS20AwD2XBMgWCQGMF8UCNRIHBaq+yQCOxuEB6D3PBNQWdQJWbKEEvpK3B
JKSeQI0AFkFcrKXBcurcQP1LBEHrkbDBTgaQQBAHIUH63bjBH1W9QLZoAUE0zrnBISShQCbby0AO
JoTBg9XbQNKnur2PJ4nBhtiGQKXG3D9lrKTBuHafQKsph0Bl+I3BibefQNU2G0BvlpvButqEQBCF
YkDjjpbBo0DHQMAzCUHnNabB7cGqQC3Htz9vQ5PB8POGQPqSq0AXuInBUBvzQJJf4T/OopPBbRyy
QPniFUH/Pr7BkLRyQHIBkEA0g57Ba9MCQWYCub4h8LTBT0qaQG7GScAYRqXB8rMXQYEj00BnmpHB
mR/6QEvXvECL/IPBYjcMQQVB/UCSbqHBMAiWQLen90B3eJbBRnHSQIq6zz/wp6/BHFZjQNZTZb+g
gqHBF/LiQML5KcDkO6/BDdG8QLgoDUGxTljBRPmPQId+9kCTvFbBuvCBQH/cFkEw3XHBcEGzQFqk
EEGOQX/BIIjlQHya5kBZXG3BL+PRQPCdzEBZrlXBl+ROQPwv5EAR8XjB/rRqQEf//kCcsojBNhbK
QBKKn0Cb5HbBEO2XQOuzqkDPA2rBKI+FQNNzNEG50arB1Nm8QBESMEGDFK7Bz3qbQHCMHEECi53B
QJeDQMA+C0EdV6fB+m3vQKHj6kAbo6/BxrXyQAaMEUH7iLLBuNpoQFMzFkEzI7jB2fGGQAQOL0FL
rL3BLSjMQE707kDUDcDB8kOgQOLu8kAO1LbBSWz+QOFrib59WIjBjL3NQMaahj1dMIHB3L7MQG6j
dr/Z9ozB8imDQNfGGkABcavB+yJOQIWHtj8XvaHBk2umQADMYEDKfIfBQqy9QPmqkkD/c5HBEye9
QD8lN0Ay657BfjRQQFt4RkD+4pLBINCSQNclcT8buI/BP4BiQG5KoECgj4TBjwxwQMjjuUDN0o/B
pmtRQAiJgkBj6KPBfpIGQRwe30DSFJPB+8HvQI+E0UDhRovBUcT+QB3b9UBADpzBaqK1QGA38kB2
WZXBrTjIQFkgFT/WAa3BODqPQJZKTr8DiqXBE8DPQBAz7L9ItqzBAZ/DQIbk20CqMYzBqKKfQAp1
7z6FJKjBqc3SQInb/kAVO53BQj3gQE3QEr9SSK/BTjCnQBL/+r/t3qfB6XjTQLwOiT9ORZDBJjes
QKmC/UDY9l/Bk+yZQM0BCUG9YXTBEWfKQHcE2ECdMWXBubqCQB0F8EDh44DBCXm0QMq4tkBf1nPB
A0u0QFB3A0HvELrBEQzTQK2D/0CBubDBuXa0QJtzH0EAt6XB8v60QHMlG0H0er3BljeNQDDFI0FK
yKzBsqChQGRry0CKP4TB0Y7ZQKSHk73hU4jBc6GHQHQS2z/OxKTBjwqfQDmThkBH9I3BjeefQMht
GkCVmJvB3N+EQOMHYkBYsZbBQFLDQITTCEGCe6bBmhyqQKzltj/MK5PBlQqHQCCaq0A+4InB+q/y
QLC72T/kbJPBusaXQP8bKUEZwbfBc1l0QPb7j0C2qJ7BSqEDQWWJ7L6G3bPBbk+XQLSOS8Dca6XB
TmMXQQAO2EAuKpLBvc/6QLoEv0C3hYTBPKUKQe44AEHVDKLBphaUQDGh+UDSSZbBL9jUQAxPxz+k
+67BqZBgQJfgZL/cwaHBETbiQODYLsAWdK7B8Ry+QILzCkHB91bB2peRQPiU8UCEHVbBBzWDQKyz
FUHD9G/B2zO0QHnsD0Gk1H3BBvnmQHaK5EAJWW3BxPbTQC5QyEB8L1bBl9ZQQCBq4kBkRXjBM1Br
QF0x/0B8IIjBPTPMQONwnkDJfHjBxlmaQHRZp0BW42rBbQ2+QG3c8kAI38DBzqqTQMMy/kBYlrfB
Y4rXQNvX3ECAs6/BPO7xQI9BB0GNqrLBHKPOQHURKkH7QKjBLQ+sQE7pIkGmWJ3BXqnVQD49IUG8
RLzB2NusQBfpG0GNCMbBXCByQD1XFUH00KzBoWF2QBIwMUHyTKnBA8D7QIx4NL4NaYbB443HQMTa
Ez5494DBAr/NQJMTgb/H4IvBxPuEQLFiGUAUn6vBMNdOQHRRtz/1AqLB99ekQPSOX0BbaIfB19W9
QExXkUCUQpHB5Ke9QPL+NUD3y57Bk4RPQBdORkAuKpPBhsaRQEtYfj8kUY/BjHxhQCT0oED3yoTB
ObZxQGAUukAIEZDBP6ZTQK68gkDaJKTB

>  <OMEGA_E>  (88) 
qJOPPrgKhT4=

>  <OMEGA_NBR>  (88) 
     22126

$$$$
50214106
     RDKit          3D

 70 73  0  0  1  0  0  0  0  0999 V2000
    8.3534    7.0171  -18.5503 C   0  0  0  0  0  0  0  0  0  0  0  0
    7.4706    6.6148  -17.5325 C   0  0  0  0  0  0  0  0  0  0  0  0
    7.8676    7.7026  -19.6746 C   0  0  0  0  0  0  0  0  0  0  0  0
    5.6156    7.6219  -18.7466 C   0  0  0  0  0  0  0  0  0  0  0  0
    6.2627    0.6839  -21.6602 C   0  0  0  0  0  0  0  0  0  0  0  0
    4.5661   -0.8033  -20.7225 C   0  0  0  0  0  0  0  0  0  0  0  0
    6.6108   -1.7303  -21.6778 C   0  0  0  0  0  0  0  0  0  0  0  0
    6.0887    6.9365  -17.6034 C   0  0  0  0  0  0  0  0  0  0  0  0
    5.0126    0.4988  -21.0322 C   0  0  0  0  0  0  0  0  0  0  0  0
    6.4900    7.9849  -19.7857 C   0  0  0  0  0  0  0  0  0  0  0  0
    7.0621   -0.4294  -21.9784 C   0  0  0  0  0  0  0  0  0  0  0  0
    5.3624   -1.9164  -21.0506 C   0  0  0  0  0  0  0  0  0  0  0  0
    6.3612    8.2988  -22.2469 C   0  0  0  0  0  0  0  0  0  0  0  0
    6.5904    1.1113  -17.9700 C   0  0  0  0  0  0  0  0  0  0  0  0
    5.4141    7.9606  -14.0312 C   0  0  0  0  0  0  0  0  0  0  0  0
    4.7967    8.5953  -15.2891 C   0  0  0  0  0  0  0  0  0  0  0  0
    6.3809    6.8199  -14.3934 C   0  0  0  0  0  0  0  0  0  0  0  0
    4.0816    7.5249  -16.1247 C   0  0  0  0  0  0  0  0  0  0  0  0
    5.6947    5.7682  -15.2933 C   0  0  0  0  0  0  0  0  0  0  0  0
    5.2654    9.8442  -20.9279 C   0  0  0  0  0  0  0  0  0  0  0  0
    4.8151    9.9736  -22.3607 C   0  0  0  0  0  0  0  0  0  0  0  0
    5.0618    6.4054  -16.5720 C   0  0  0  0  0  0  0  0  0  0  0  0
    6.7898   -0.1052  -17.0709 C   0  0  0  0  0  0  0  0  0  0  0  0
    4.2178    1.7002  -20.5699 C   0  0  0  0  0  0  0  0  0  0  0  0
    4.9823    4.2384  -17.7620 C   0  0  0  0  0  0  0  0  0  0  0  0
    4.9767    2.4090  -19.4280 C   0  0  1  0  0  0  0  0  0  0  0  0
    4.1360    3.5279  -18.8089 C   0  0  2  0  0  0  0  0  0  0  0  0
    5.9634    8.5738  -20.9343 N   0  0  0  0  0  0  0  0  0  0  0  0
    5.3002    1.4240  -18.3787 N   0  0  0  0  0  0  0  0  0  0  0  0
    4.2295    5.3924  -17.2475 N   0  0  0  0  0  0  0  0  0  0  0  0
    7.0920    7.3884  -22.6204 O   0  0  0  0  0  0  0  0  0  0  0  0
    7.5682    1.6942  -18.4262 O   0  0  0  0  0  0  0  0  0  0  0  0
    5.7505    9.1765  -23.1056 O   0  0  0  0  0  0  0  0  0  0  0  0
    3.7530    4.4718  -19.8093 O   0  0  0  0  0  0  0  0  0  0  0  0
    8.2721   -0.2476  -22.5531 F   0  0  0  0  0  0  0  0  0  0  0  0
    4.9342   -3.1630  -20.7501 F   0  0  0  0  0  0  0  0  0  0  0  0
    9.4076    6.7980  -18.4667 H   0  0  0  0  0  0  0  0  0  0  0  0
    7.8468    6.0559  -16.6884 H   0  0  0  0  0  0  0  0  0  0  0  0
    8.5478    8.0135  -20.4538 H   0  0  0  0  0  0  0  0  0  0  0  0
    4.5672    7.8700  -18.8223 H   0  0  0  0  0  0  0  0  0  0  0  0
    6.6059    1.6802  -21.8967 H   0  0  0  0  0  0  0  0  0  0  0  0
    3.6136   -0.9457  -20.2338 H   0  0  0  0  0  0  0  0  0  0  0  0
    7.2217   -2.5849  -21.9283 H   0  0  0  0  0  0  0  0  0  0  0  0
    5.9649    8.7330  -13.4744 H   0  0  0  0  0  0  0  0  0  0  0  0
    4.6074    7.5590  -13.4004 H   0  0  0  0  0  0  0  0  0  0  0  0
    4.0720    9.3665  -14.9889 H   0  0  0  0  0  0  0  0  0  0  0  0
    5.5931    9.0555  -15.8924 H   0  0  0  0  0  0  0  0  0  0  0  0
    7.2461    7.2393  -14.9279 H   0  0  0  0  0  0  0  0  0  0  0  0
    6.7225    6.3322  -13.4685 H   0  0  0  0  0  0  0  0  0  0  0  0
    3.2785    7.0771  -15.5208 H   0  0  0  0  0  0  0  0  0  0  0  0
    3.6481    7.9988  -17.0177 H   0  0  0  0  0  0  0  0  0  0  0  0
    6.4435    5.0241  -15.6023 H   0  0  0  0  0  0  0  0  0  0  0  0
    4.9012    5.2717  -14.7155 H   0  0  0  0  0  0  0  0  0  0  0  0
    5.9391   10.6670  -20.6466 H   0  0  0  0  0  0  0  0  0  0  0  0
    4.4063    9.8227  -20.2413 H   0  0  0  0  0  0  0  0  0  0  0  0
    3.7921    9.5883  -22.4830 H   0  0  0  0  0  0  0  0  0  0  0  0
    4.8530   11.0235  -22.6867 H   0  0  0  0  0  0  0  0  0  0  0  0
    7.8656   -0.3007  -16.9510 H   0  0  0  0  0  0  0  0  0  0  0  0
    6.3407    0.0895  -16.0858 H   0  0  0  0  0  0  0  0  0  0  0  0
    6.3066   -0.9816  -17.5274 H   0  0  0  0  0  0  0  0  0  0  0  0
    4.0846    2.3975  -21.4102 H   0  0  0  0  0  0  0  0  0  0  0  0
    3.2330    1.3710  -20.2070 H   0  0  0  0  0  0  0  0  0  0  0  0
    5.2078    3.5465  -16.9371 H   0  0  0  0  0  0  0  0  0  0  0  0
    5.9219    4.5835  -18.2182 H   0  0  0  0  0  0  0  0  0  0  0  0
    5.9047    2.8399  -19.8321 H   0  0  0  0  0  0  0  0  0  0  0  0
    3.2493    3.0910  -18.3262 H   0  0  0  0  0  0  0  0  0  0  0  0
    4.5409    0.9503  -17.9324 H   0  0  0  0  0  0  0  0  0  0  0  0
    3.5508    5.0578  -16.5938 H   0  0  0  0  0  0  0  0  0  0  0  0
    3.7640    5.8310  -18.0162 H   0  0  0  0  0  0  0  0  0  0  0  0
    3.2238    4.0382  -20.4684 H   0  0  0  0  0  0  0  0  0  0  0  0
  1  2  2  0
  1  3  1  0
  2  8  1  0
  3 10  2  0
  4  8  2  0
  4 10  1  0
  5  9  2  0
  5 11  1  0
  6  9  1  0
  6 12  2  0
  7 11  2  0
  7 12  1  0
  8 22  1  0
  9 24  1  0
 10 28  1  0
 11 35  1  0
 12 36  1  0
 13 28  1  0
 13 31  2  0
 13 33  1  0
 14 23  1  0
 14 29  1  0
 14 32  2  0
 15 16  1  0
 15 17  1  0
 16 18  1  0
 17 19  1  0
 18 22  1  0
 19 22  1  0
 20 21  1  0
 20 28  1  0
 21 33  1  0
 22 30  1  0
 24 26  1  0
 25 27  1  0
 25 30  1  0
 26 27  1  0
 26 29  1  0
 27 34  1  0
  1 37  1  0
  2 38  1  0
  3 39  1  0
  4 40  1  0
  5 41  1  0
  6 42  1  0
  7 43  1  0
 15 44  1  0
 15 45  1  0
 16 46  1  0
 16 47  1  0
 17 48  1  0
 17 49  1  0
 18 50  1  0
 18 51  1  0
 19 52  1  0
 19 53  1  0
 20 54  1  0
 20 55  1  0
 21 56  1  0
 21 57  1  0
 23 58  1  0
 23 59  1  0
 23 60  1  0
 24 61  1  0
 24 62  1  0
 25 63  1  0
 25 64  1  0
 26 65  1  6
 27 66  1  1
 29 67  1  0
 30 68  1  0
 30 69  1  0
 34 70  1  0
M  CHG  1  30   1
M  END
>  <OMEGA_C>  (89) 
fKcFQbmL4ED8ZpTBZg/vQLes00B2QozBqMP7QHJ79kCnZZ3BpbKzQI7m80Ag+ZXBV2jIQIIRLz8k
SK3BuB2SQOShTb+xx6XBW4vTQB153b85bK3Br9bCQJ/33UDX04zBAmegQAZn/z7/QajB5q3PQB6E
/0AxSZ7B/PzhQETd276v06/BipirQL1M9b+RZ6jB/Y7LQM3HBEGj+bHBUOTSQJE/jj+Hwo/BckCt
QIK9/kCjf2DBp36ZQG6GCUEroHTBmjDMQFQ82kBhS2bBJpyCQFnM8EBW/4DBvzq2QBSVuEBPsXTB
3X2oQLiBHUFhbKfBpxWaQOCTH0Gv4rLB+PmhQAP5zEB+k4TBRkbZQIRn170tkYjBIPiGQFWf2T8s
j6TBYm+fQOqgh0CQGI7BbkGfQC4tGkCXbJvB6lmEQFrIYUCUeJbBktS+QDcuCUF/eafB35qpQJhE
tj+EB5PBTViHQKiOrEDe+onBovHiQNZt7ECN9rTB3i7yQPPc2D/VaJPBuwO4QODSEkEu2LjBszFw
QJ4Yj0BxeZ7BqFoEQeyMfb7FbLTBteSdQOxuSsBGAKbBs4UWQWaJ2UDmu5PBYxn7QLrJwUDXgYXB
vcMIQXY3AEFeoaPBRSaSQA3X+0AnlJbB4GPTQOwQ1z9mLK/BfEVnQI0Zcr/V3qHBZxjnQLluJcAw
ba/BX+C+QIu6C0H1llfBcm+TQJrj8UAQaFbB/E2CQDfdFUG80m/Br/qyQFzjEEFZR37Byd/nQB2o
50B+2G7BAB/XQBShykD0flfBktNRQNl34kBeVXjBunlpQPX1/0BTJIjBbDHOQDLFoED7onnBT9ac
QPmxqEChcmvBxwy+QPWrKkFWLKXBIwCNQJ4pHUEe7qHB6bFyQMlpGUE13bPBtEubQDhgMEFqfrXB
ZLP7QPv5mb6vm4fB5ubKQMpQtz2/r4DBz8/JQCpIe780OIzB9bSCQP5vGUALSKvBr+hOQLJ8rz/X
p6HBQKamQPf5YkApf4fBDYC9QCqskkD3vpHBPPO8QGHANUAYqJ7BA/RPQH3TRUAjnJLBFE+RQJVI
cz91dY/B6D9jQBzZoUAiwITBBuZwQMaXukA3IZDBj1JOQJY4gUA/v6PBAfIEQTx9/kAij5LBOvnv
QHf95kBcjIvB45j3QAEAC0Gw8prBB7OwQPqE/0BHIpXBuvKsQImnSL56JK3BMLOLQITFk79uMp3B
cei3QOVeI8DexqjBptjCQGTh50AbkIzBObaSQKGQR724BKTBmZzKQGZLC0GTfJzBi0W/QLt2ub/V
jq/BQjyeQOHdGcB6k5/BkkbLQOOGI0GR5azB1MfSQNIpkz9+qo3Bi06uQCJa7kCnYFzBA5aYQKmm
BEFl7G3BRR/QQB5F0ED8AGbBYN6DQJQi7ED09H7BohG9QK3zs0BxFnjBYgaJQJipGEEak6bBJ+mE
QLG4IUFYtLHBJhilQKH7zUAsAIXBtDvZQPZltD41WIPB3xd+QLuopj+xYKHBrJmlQJpCjUAn9JDB
TOWdQFYYDEB9tJrBWBuIQEdGYkD135fBO0q3QBVVFkF7LqXBhz2pQDbgvT9FspDBefKLQBiCr0DR
wIvB00DxQLfXJ0H6Aa7Bk47xQChtsD+eepPB8w2tQIUILEHkoLPBaVp7QNYQiEDqaqHBnN7XQLLe
y7+0ZLjBl0mXQA+CXcCPCpnB/BcWQXF+/kCjfpHBEoz+QGYF1ED5T4XBFP8FQTvwE0GZTaDB+VqO
QG78/0BkF5bBjfyyQAPpJj+vRrLBASpwQBBIhb9OJJbBpfDFQHXEYMD2oarBtN+9QPLyAUH81lDB
W+GVQE8i20CMHVTBcWx/QBi6DkH2mmbB9LKwQO3jDkEFpHXBGl3qQH+c40C2pGzBrqLcQN5mu0A2
SVnBTHpWQAZb2EAaMXfBAsJpQJovAEFvoIXB2VvXQHIFokBMnH/BRD6mQKJjnUAq3HDBqD53QIi3
I0FOmqDBYaxxQDcVCUE/9aXBu9R+QB/hFEEkkLfBEvlUQDtSLUEjG7LBXSn7QPkfnT2jjILB5JbP
QB1udz9A6HjByZPFQD5BD7+hm4PBkcRuQBVO6T+X46jBugBDQLQYkj8fxZzB6+i0QJzWckAvxorB
M1u+QOLam0APCZbB3ua6QDHXGEDbbZ/B4aVVQHWSVEA8TZPBbWqRQBo1nT/hwovBV/JrQBqMoUDu
GYfBjq56QNtSwEBIf5HBWuxWQHgZbkClxKXB

>  <OMEGA_E>  (89) 
sNVvPtgrLz8=

>  <OMEGA_NBR>  (89) 
     24676

$$$$
50214061
     RDKit          3D

 76 79  0  0  1  0  0  0  0  0999 V2000
    8.4894    6.8078  -18.3614 C   0  0  0  0  0  0  0  0  0  0  0  0
    7.5379    6.4849  -17.3768 C   0  0  0  0  0  0  0  0  0  0  0  0
    8.0918    7.4635  -19.5355 C   0  0  0  0  0  0  0  0  0  0  0  0
    5.7895    7.4956  -18.7330 C   0  0  0  0  0  0  0  0  0  0  0  0
    6.2457    0.6906  -21.6411 C   0  0  0  0  0  0  0  0  0  0  0  0
    4.5608   -0.8088  -20.7015 C   0  0  0  0  0  0  0  0  0  0  0  0
    6.6259   -1.7182  -21.6303 C   0  0  0  0  0  0  0  0  0  0  0  0
    6.1735    6.8469  -17.5408 C   0  0  0  0  0  0  0  0  0  0  0  0
    4.9953    0.4965  -21.0164 C   0  0  0  0  0  0  0  0  0  0  0  0
    6.7379    7.7964  -19.7228 C   0  0  0  0  0  0  0  0  0  0  0  0
    7.0619   -0.4150  -21.9417 C   0  0  0  0  0  0  0  0  0  0  0  0
    5.3740   -1.9148  -21.0139 C   0  0  0  0  0  0  0  0  0  0  0  0
    6.4628    7.9713  -22.1350 C   0  0  0  0  0  0  0  0  0  0  0  0
    6.5745    1.0534  -18.0255 C   0  0  0  0  0  0  0  0  0  0  0  0
    6.0580    8.7947  -23.3633 C   0  0  0  0  0  0  0  0  0  0  0  0
    5.3339    7.9523  -14.0128 C   0  0  0  0  0  0  0  0  0  0  0  0
    4.8271    8.6084  -15.3087 C   0  0  0  0  0  0  0  0  0  0  0  0
    6.2742    6.7725  -14.3124 C   0  0  0  0  0  0  0  0  0  0  0  0
    4.1195    7.5683  -16.1869 C   0  0  0  0  0  0  0  0  0  0  0  0
    5.5983    5.7431  -15.2440 C   0  0  0  0  0  0  0  0  0  0  0  0
    4.4335   10.1016  -21.0521 C   0  0  0  0  0  0  0  0  0  0  0  0
    5.8918    9.8954  -20.6280 C   0  0  0  0  0  0  0  0  0  0  0  0
    4.3211   10.3145  -22.5697 C   0  0  0  0  0  0  0  0  0  0  0  0
    5.0688    6.3943  -16.5593 C   0  0  0  0  0  0  0  0  0  0  0  0
    6.7631   -0.0934  -17.0368 C   0  0  0  0  0  0  0  0  0  0  0  0
    4.1947    1.6941  -20.5544 C   0  0  0  0  0  0  0  0  0  0  0  0
    4.9680    4.2376  -17.7580 C   0  0  0  0  0  0  0  0  0  0  0  0
    4.9618    2.4120  -19.4229 C   0  0  1  0  0  0  0  0  0  0  0  0
    4.1336    3.5504  -18.8260 C   0  0  2  0  0  0  0  0  0  0  0  0
    6.3398    8.5089  -20.8461 N   0  0  0  0  0  0  0  0  0  0  0  0
    5.2819    1.4380  -18.3608 N   0  0  0  0  0  0  0  0  0  0  0  0
    4.2310    5.4119  -17.2678 N   0  0  0  0  0  0  0  0  0  0  0  0
    6.8696    6.8259  -22.3063 O   0  0  0  0  0  0  0  0  0  0  0  0
    7.5532    1.6711  -18.4316 O   0  0  0  0  0  0  0  0  0  0  0  0
    4.6517    9.1214  -23.3153 O   0  0  0  0  0  0  0  0  0  0  0  0
    3.8053    4.5018  -19.8397 O   0  0  0  0  0  0  0  0  0  0  0  0
    8.2737   -0.2234  -22.5091 F   0  0  0  0  0  0  0  0  0  0  0  0
    4.9606   -3.1649  -20.7070 F   0  0  0  0  0  0  0  0  0  0  0  0
    9.5277    6.5502  -18.2128 H   0  0  0  0  0  0  0  0  0  0  0  0
    7.8475    5.9566  -16.4872 H   0  0  0  0  0  0  0  0  0  0  0  0
    8.8213    7.7117  -20.2922 H   0  0  0  0  0  0  0  0  0  0  0  0
    4.7545    7.7637  -18.8858 H   0  0  0  0  0  0  0  0  0  0  0  0
    6.5763    1.6885  -21.8885 H   0  0  0  0  0  0  0  0  0  0  0  0
    3.6052   -0.9591  -20.2212 H   0  0  0  0  0  0  0  0  0  0  0  0
    7.2516   -2.5668  -21.8641 H   0  0  0  0  0  0  0  0  0  0  0  0
    6.6447    9.7250  -23.3843 H   0  0  0  0  0  0  0  0  0  0  0  0
    6.2629    8.2114  -24.2731 H   0  0  0  0  0  0  0  0  0  0  0  0
    5.8784    8.7027  -13.4209 H   0  0  0  0  0  0  0  0  0  0  0  0
    4.4718    7.5856  -13.4363 H   0  0  0  0  0  0  0  0  0  0  0  0
    4.1201    9.4125  -15.0565 H   0  0  0  0  0  0  0  0  0  0  0  0
    5.6803    9.0299  -15.8604 H   0  0  0  0  0  0  0  0  0  0  0  0
    7.1843    7.1535  -14.7987 H   0  0  0  0  0  0  0  0  0  0  0  0
    6.5429    6.2787  -13.3669 H   0  0  0  0  0  0  0  0  0  0  0  0
    3.2539    7.1676  -15.6390 H   0  0  0  0  0  0  0  0  0  0  0  0
    3.7750    8.0559  -17.1108 H   0  0  0  0  0  0  0  0  0  0  0  0
    6.3321    4.9661  -15.5043 H   0  0  0  0  0  0  0  0  0  0  0  0
    4.7526    5.2848  -14.7106 H   0  0  0  0  0  0  0  0  0  0  0  0
    3.8489    9.2135  -20.7701 H   0  0  0  0  0  0  0  0  0  0  0  0
    4.0309   10.9851  -20.5350 H   0  0  0  0  0  0  0  0  0  0  0  0
    6.5311   10.5716  -21.2146 H   0  0  0  0  0  0  0  0  0  0  0  0
    5.9879   10.1356  -19.5588 H   0  0  0  0  0  0  0  0  0  0  0  0
    3.2886   10.6078  -22.8105 H   0  0  0  0  0  0  0  0  0  0  0  0
    5.0095   11.1195  -22.8663 H   0  0  0  0  0  0  0  0  0  0  0  0
    7.8333   -0.2120  -16.8116 H   0  0  0  0  0  0  0  0  0  0  0  0
    6.2158    0.1289  -16.1088 H   0  0  0  0  0  0  0  0  0  0  0  0
    6.3758   -1.0242  -17.4769 H   0  0  0  0  0  0  0  0  0  0  0  0
    4.0489    2.3863  -21.3968 H   0  0  0  0  0  0  0  0  0  0  0  0
    3.2156    1.3600  -20.1806 H   0  0  0  0  0  0  0  0  0  0  0  0
    5.1510    3.5415  -16.9262 H   0  0  0  0  0  0  0  0  0  0  0  0
    5.9293    4.5564  -18.1874 H   0  0  0  0  0  0  0  0  0  0  0  0
    5.8929    2.8273  -19.8360 H   0  0  0  0  0  0  0  0  0  0  0  0
    3.2222    3.1371  -18.3694 H   0  0  0  0  0  0  0  0  0  0  0  0
    4.5233    1.0306  -17.8523 H   0  0  0  0  0  0  0  0  0  0  0  0
    3.5186    5.0965  -16.6410 H   0  0  0  0  0  0  0  0  0  0  0  0
    3.8080    5.8669  -18.0515 H   0  0  0  0  0  0  0  0  0  0  0  0
    3.2831    4.0809  -20.5125 H   0  0  0  0  0  0  0  0  0  0  0  0
  1  2  2  0
  1  3  1  0
  2  8  1  0
  3 10  2  0
  4  8  2  0
  4 10  1  0
  5  9  2  0
  5 11  1  0
  6  9  1  0
  6 12  2  0
  7 11  2  0
  7 12  1  0
  8 24  1  0
  9 26  1  0
 10 30  1  0
 11 37  1  0
 12 38  1  0
 13 15  1  0
 13 30  1  0
 13 33  2  0
 14 25  1  0
 14 31  1  0
 14 34  2  0
 15 35  1  0
 16 17  1  0
 16 18  1  0
 17 19  1  0
 18 20  1  0
 19 24  1  0
 20 24  1  0
 21 22  1  0
 21 23  1  0
 22 30  1  0
 23 35  1  0
 24 32  1  0
 26 28  1  0
 27 29  1  0
 27 32  1  0
 28 29  1  0
 28 31  1  0
 29 36  1  0
  1 39  1  0
  2 40  1  0
  3 41  1  0
  4 42  1  0
  5 43  1  0
  6 44  1  0
  7 45  1  0
 15 46  1  0
 15 47  1  0
 16 48  1  0
 16 49  1  0
 17 50  1  0
 17 51  1  0
 18 52  1  0
 18 53  1  0
 19 54  1  0
 19 55  1  0
 20 56  1  0
 20 57  1  0
 21 58  1  0
 21 59  1  0
 22 60  1  0
 22 61  1  0
 23 62  1  0
 23 63  1  0
 25 64  1  0
 25 65  1  0
 25 66  1  0
 26 67  1  0
 26 68  1  0
 27 69  1  0
 27 70  1  0
 28 71  1  6
 29 72  1  1
 31 73  1  0
 32 74  1  0
 32 75  1  0
 36 76  1  0
M  CHG  1  32   1
M  END
>  <OMEGA_C>  (90) 
gtQHQSjZ2UAb5JLBlzbxQIaEz0C0A4vB1HcBQRDV7kC7SJzBUkO5QFDc70A+3ZXBFd3HQAvKMD/x
IK3B0/GRQGMLT7+nnKXBiQfUQI3s27/cCq3BAI3FQPcZ20CJU4zBGtmfQNoy/j6CIajBtZzXQH98
+UA2yJ3BzPrhQNF91L6eiK/BmverQL0Y9b+AHKjBns/OQEcV/0BsFLHBe2LSQPjVhj8oNJDBX9vB
QDO3DEH857rBKq+qQDN5/kCPNGDBiHeaQNq7CUFi8HTB68XIQI+42ECJ/2TBP9ODQDMv8kDOfoHB
nCWzQNrHt0B653PBhN+NQBigIUG5aqjBTIm8QLpTHkEdBqXBFEaKQDYIJUHEjrTBOzOiQHCezECM
eYTBJWvYQIhiv71ES4jBNzuGQEnX2D9Yb6TBP/qeQDCah0B0EI7B+MaeQJteGkAoYpvBI0aEQE85
Y0Cmm5bBbN/KQGgkCEG/xKbBaAWpQPUQuD8C45LBfGSHQGkurUCLJIrBz9PbQKlt2kBBc7LBirPx
QK/m1T/2c5PBbdqUQCbxEUHPhbrB+IlzQFwOkECzt57BE2EEQfvMZL6QErTBcb2eQOuMSsD+p6XB
Q3EYQV6b0UDhs5HB2x77QE6cvkDL5YPBGyQNQe3F9kBpVqLBySSYQHZw+EA1FpfBFHHSQO0h2D+p
G6/BVbtmQCWIdb8SxaHBCA3oQBlHJMC66a7BlaHUQHaZG0EPE7vBgGnIQM9hA0FDL8LBtBu8QD0+
C0Hgu1bB/RiPQAi98kBK+1bB/9eDQIeZFkGV53DB2sS1QHF6EEEtxH3ByeXlQG7p5ECEx2zBel/R
QIDryEDM3lXBdEBQQB5d5UBVOXrBoplxQN/kAEHh4ojB3KDKQGXqnkC6EXjB7BSYQPYcqUCKXmvB
xFN2QLBqE0EcKabBZP2AQNHCL0G6R6TBxf7QQBYlKUGAt6nB0Zy/QHcrIkGAeJzBMHhSQIG5KUH1
e7bBNU6gQHvpMUEn7rbBCKr6QMIRWb5AfobBlOfGQPjxAz7j3oDBoQbMQKIZg7+Y0IvB+5CBQH+4
GECPLKvBKsxNQOgVrj/bcaHBmNSkQFqnYkDRaIfBnry9QCnOkUDcf5HBuZK8QOHxNEAHsJ7B0jdO
QH/FSEB59JLB/76QQCXsgz+V0Y7BVjBhQGMWo0DGIIXBG7ZzQG29u0BmaZDB6R1SQFqWgkCMGaTB
obQIQXwN20BuvZHBKT7xQN+I0EBbX4rBHpEDQZez8ECRNpvBZWW8QHYs80AhuJXBJ7/AQCMvFT+Y
6KzBx/yUQODBhL9xM6PBTVTTQJVZ5L+IVa3BVTfGQLcA3UAxLozBiFmdQC6/lj5VTKbBIG/cQA7c
/EDsWp3BWMzbQFc56L6AXrDBxuWvQO3XBMCSw6bBt83qQLA1F0EnZKzB1NLZQFM0nD/OUZDBYBLb
QGjpIUHBwLbB98ymQKC6/kBpdmDBC9yXQHMPCkGdWHXBbhrFQFwJ2UCg8mTBS02CQOQn80DdAoLB
HEqwQPyHuEBxZnTBMW+IQD6nFUHe16rBgRSnQLh9AkHM/6vBnceNQKaDJUHTMbTBYzShQEPmzUAZ
2oTBXjbmQMyJwz35rYjB9DaCQMyZtj+WBqLBd6qfQL6giUBe0Y7BbnGdQLYwFEBjlJrBa7aCQNDN
XEB01ZXBRTrRQPmxB0FhR6fB+ZuuQNHgvT+T15HBIlSHQM+xrkAe5YrBl8UEQWliH0Hf2qfBrGX1
QK2J3z9d5JXBiEu3QATNL0FCXLTBzmZjQEteiEAGNp7BrgH+QIY+Lb6mk7bBoRKoQOp8VsD4xKPB
6B0ZQYlu0kDuGpDBf1P5QJW/vkDZPoPBNAEQQQEl+EBE6qDBCMqbQP7u/EDBN5fBihLHQMXuzD9q
UK/BhP5zQLw8ob9QG57B1/7nQCIpJcAIC7DB2TH1QBJiK0HgRLrBkujQQPeHFUHcd7zBsqu3QNJG
C0HboFbBEqeKQJPg8kBctlfBl9yAQMLTFkFciHHBUK6zQDP5EEHOnn3BC8PiQNpM5UAiLWzBV6fM
QHvdyEAax1XBCB9MQEv/5UAH1XvBP39wQOSRAUEWcInBI8/HQGp4n0DEM3jBTGyUQLQJqkC1dGzB
ootOQCPBD0EpvqrBAFaPQO/4HUFhSKPBWXKZQDQe6UAY16fBRi2rQNFr/UBViLTB43uJQMPBHEGC
wLvBpwZqQHrxMUHvf7PB7WIEQaM4yL2OT4nBFFzeQEJgxz4QboDBuG3UQAwIUb94yYrBQl1sQNXp
AUCyvajBohNOQA24gT+Og53BW/2qQLEMbUB5/YfBK0a7QJe8lECJhJPBYfi3QNXEL0B9OZ/BMqpR
QMqWQUAp75DBeM2ZQJySij/ArYzBifxfQMMHpEAsHYbBzPB0QAyrvUAtMZHBUyI/QHwUb0C8oKLB

>  <OMEGA_E>  (90) 
1K+sPvgg4j4=

>  <OMEGA_NBR>  (90) 
     27394

$$$$
50214077
     RDKit          3D

 73 76  0  0  1  0  0  0  0  0999 V2000
    8.3708    6.9922  -18.5009 C   0  0  0  0  0  0  0  0  0  0  0  0
    7.4798    6.5839  -17.4919 C   0  0  0  0  0  0  0  0  0  0  0  0
    7.8908    7.6686  -19.6340 C   0  0  0  0  0  0  0  0  0  0  0  0
    5.6257    7.5335  -18.7488 C   0  0  0  0  0  0  0  0  0  0  0  0
    6.2498    0.6174  -21.6185 C   0  0  0  0  0  0  0  0  0  0  0  0
    4.4866   -0.8115  -20.7127 C   0  0  0  0  0  0  0  0  0  0  0  0
    6.5242   -1.8060  -21.6128 C   0  0  0  0  0  0  0  0  0  0  0  0
    6.0943    6.8814  -17.5884 C   0  0  0  0  0  0  0  0  0  0  0  0
    4.9821    0.4741  -21.0151 C   0  0  0  0  0  0  0  0  0  0  0  0
    6.5084    7.9215  -19.7699 C   0  0  0  0  0  0  0  0  0  0  0  0
    7.0218   -0.5218  -21.9114 C   0  0  0  0  0  0  0  0  0  0  0  0
    5.2547   -1.9502  -21.0179 C   0  0  0  0  0  0  0  0  0  0  0  0
    6.3549    8.1760  -22.1986 C   0  0  0  0  0  0  0  0  0  0  0  0
    6.5947    1.1096  -17.9513 C   0  0  0  0  0  0  0  0  0  0  0  0
    5.7861    8.9294  -23.4108 C   0  0  0  0  0  0  0  0  0  0  0  0
    5.3679    7.9234  -14.0159 C   0  0  0  0  0  0  0  0  0  0  0  0
    4.7811    8.5656  -15.2841 C   0  0  0  0  0  0  0  0  0  0  0  0
    6.3431    6.7864  -14.3652 C   0  0  0  0  0  0  0  0  0  0  0  0
    4.0775    7.5017  -16.1355 C   0  0  0  0  0  0  0  0  0  0  0  0
    5.6727    5.7349  -15.2755 C   0  0  0  0  0  0  0  0  0  0  0  0
    5.2978    9.8622  -20.6720 C   0  0  0  0  0  0  0  0  0  0  0  0
    4.5360   10.3304  -21.9173 C   0  0  0  0  0  0  0  0  0  0  0  0
    5.0567    6.3712  -16.5609 C   0  0  0  0  0  0  0  0  0  0  0  0
    6.8041   -0.1158  -17.0667 C   0  0  0  0  0  0  0  0  0  0  0  0
    4.2186    1.6995  -20.5683 C   0  0  0  0  0  0  0  0  0  0  0  0
    4.9756    4.2024  -17.7341 C   0  0  0  0  0  0  0  0  0  0  0  0
    4.9851    2.3959  -19.4237 C   0  0  1  0  0  0  0  0  0  0  0  0
    4.1510    3.5224  -18.8143 C   0  0  2  0  0  0  0  0  0  0  0  0
    5.9947    8.5717  -20.8962 N   0  0  0  0  0  0  0  0  0  0  0  0
    5.3044    1.4084  -18.3732 N   0  0  0  0  0  0  0  0  0  0  0  0
    4.2250    5.3628  -17.2367 N   0  0  0  0  0  0  0  0  0  0  0  0
    6.9395    7.1166  -22.4030 O   0  0  0  0  0  0  0  0  0  0  0  0
    7.5696    1.7015  -18.4024 O   0  0  0  0  0  0  0  0  0  0  0  0
    5.4227   10.2746  -23.0474 O   0  0  0  0  0  0  0  0  0  0  0  0
    3.8202    4.4820  -19.8192 O   0  0  0  0  0  0  0  0  0  0  0  0
    8.2481   -0.3816  -22.4630 F   0  0  0  0  0  0  0  0  0  0  0  0
    4.7783   -3.1816  -20.7278 F   0  0  0  0  0  0  0  0  0  0  0  0
    9.4263    6.7850  -18.4040 H   0  0  0  0  0  0  0  0  0  0  0  0
    7.8524    6.0396  -16.6367 H   0  0  0  0  0  0  0  0  0  0  0  0
    8.5781    7.9948  -20.4005 H   0  0  0  0  0  0  0  0  0  0  0  0
    4.5703    7.7377  -18.8534 H   0  0  0  0  0  0  0  0  0  0  0  0
    6.6272    1.6012  -21.8554 H   0  0  0  0  0  0  0  0  0  0  0  0
    3.5183   -0.9217  -20.2473 H   0  0  0  0  0  0  0  0  0  0  0  0
    7.1161   -2.6803  -21.8401 H   0  0  0  0  0  0  0  0  0  0  0  0
    6.5463    8.9624  -24.2050 H   0  0  0  0  0  0  0  0  0  0  0  0
    4.8942    8.4009  -23.7787 H   0  0  0  0  0  0  0  0  0  0  0  0
    5.9049    8.6919  -13.4407 H   0  0  0  0  0  0  0  0  0  0  0  0
    4.5467    7.5168  -13.4074 H   0  0  0  0  0  0  0  0  0  0  0  0
    4.0552    9.3407  -14.9971 H   0  0  0  0  0  0  0  0  0  0  0  0
    5.5927    9.0222  -15.8698 H   0  0  0  0  0  0  0  0  0  0  0  0
    7.2146    7.2088  -14.8868 H   0  0  0  0  0  0  0  0  0  0  0  0
    6.6728    6.2985  -13.4361 H   0  0  0  0  0  0  0  0  0  0  0  0
    3.2564    7.0616  -15.5505 H   0  0  0  0  0  0  0  0  0  0  0  0
    3.6694    7.9792  -17.0385 H   0  0  0  0  0  0  0  0  0  0  0  0
    6.4278    4.9931  -15.5749 H   0  0  0  0  0  0  0  0  0  0  0  0
    4.8725    5.2355  -14.7095 H   0  0  0  0  0  0  0  0  0  0  0  0
    6.0428   10.6258  -20.4041 H   0  0  0  0  0  0  0  0  0  0  0  0
    4.5835    9.7405  -19.8443 H   0  0  0  0  0  0  0  0  0  0  0  0
    3.6719    9.6726  -22.0919 H   0  0  0  0  0  0  0  0  0  0  0  0
    4.1870   11.3633  -21.7713 H   0  0  0  0  0  0  0  0  0  0  0  0
    7.8815   -0.3063  -16.9523 H   0  0  0  0  0  0  0  0  0  0  0  0
    6.3569    0.0650  -16.0781 H   0  0  0  0  0  0  0  0  0  0  0  0
    6.3247   -0.9898  -17.5318 H   0  0  0  0  0  0  0  0  0  0  0  0
    4.1131    2.3943  -21.4145 H   0  0  0  0  0  0  0  0  0  0  0  0
    3.2215    1.4005  -20.2128 H   0  0  0  0  0  0  0  0  0  0  0  0
    5.1598    3.4983  -16.9093 H   0  0  0  0  0  0  0  0  0  0  0  0
    5.9364    4.5344  -18.1544 H   0  0  0  0  0  0  0  0  0  0  0  0
    5.9163    2.8195  -19.8280 H   0  0  0  0  0  0  0  0  0  0  0  0
    3.2400    3.0986  -18.3664 H   0  0  0  0  0  0  0  0  0  0  0  0
    4.5450    0.9244  -17.9382 H   0  0  0  0  0  0  0  0  0  0  0  0
    3.5369    5.0373  -16.5882 H   0  0  0  0  0  0  0  0  0  0  0  0
    3.7709    5.7995  -18.0133 H   0  0  0  0  0  0  0  0  0  0  0  0
    3.3042    4.0645  -20.4988 H   0  0  0  0  0  0  0  0  0  0  0  0
  1  2  2  0
  1  3  1  0
  2  8  1  0
  3 10  2  0
  4  8  2  0
  4 10  1  0
  5  9  2  0
  5 11  1  0
  6  9  1  0
  6 12  2  0
  7 11  2  0
  7 12  1  0
  8 23  1  0
  9 25  1  0
 10 29  1  0
 11 36  1  0
 12 37  1  0
 13 15  1  0
 13 29  1  0
 13 32  2  0
 14 24  1  0
 14 30  1  0
 14 33  2  0
 15 34  1  0
 16 17  1  0
 16 18  1  0
 17 19  1  0
 18 20  1  0
 19 23  1  0
 20 23  1  0
 21 22  1  0
 21 29  1  0
 22 34  1  0
 23 31  1  0
 25 27  1  0
 26 28  1  0
 26 31  1  0
 27 28  1  0
 27 30  1  0
 28 35  1  0
  1 38  1  0
  2 39  1  0
  3 40  1  0
  4 41  1  0
  5 42  1  0
  6 43  1  0
  7 44  1  0
 15 45  1  0
 15 46  1  0
 16 47  1  0
 16 48  1  0
 17 49  1  0
 17 50  1  0
 18 51  1  0
 18 52  1  0
 19 53  1  0
 19 54  1  0
 20 55  1  0
 20 56  1  0
 21 57  1  0
 21 58  1  0
 22 59  1  0
 22 60  1  0
 24 61  1  0
 24 62  1  0
 24 63  1  0
 25 64  1  0
 25 65  1  0
 26 66  1  0
 26 67  1  0
 27 68  1  6
 28 69  1  1
 30 70  1  0
 31 71  1  0
 31 72  1  0
 35 73  1  0
M  CHG  1  31   1
M  END
>  <OMEGA_C>  (91) 
9O4FQdu/30DuAZTB4lrvQPyu0kBs74vBuIH8QOFk9UB/Ep3BoAW0QIYS8UCF/ZXBNP7HQBwOHj+1
8qzBSJKPQDa+T7+is6XBSMbQQMor578S56zBKATDQBg03EAitYzBlG2fQEO88j7YHqjBxkTQQDl9
/UC4KJ7BoLLgQPiTBb+cSq/BfCaoQGeg+b+WJKjBRlvLQOjQAkHIlrHBzgfTQJ0Ijj9UnI/BWie5
QKPeDkE5SbvByMWrQGeM/UBPQWDBLP+YQNAMCUHRi3TBnPrKQNwp2UAD2GXBznqCQIgN8ECPFYHB
Eoe1QPCDt0BGaHTBNIepQLbLHUFKYKXBQCeRQHJJJUG6Vq/BoNChQPvgy0CmfITBgrvZQIA67b2o
iIjB3P6GQLmI2T/Ni6TBBjifQHV6hkBr343BGIafQHFWGUCrY5vBsNSEQKVuYUC2g5bBdtS/QKsl
CUF+K6fBXL2pQHtFtD88/JLB4DKHQBqcq0DY5InBZhDeQIy740BcObPBLjryQGPL2T8kOJPBcIat
QJ1kJEEaYbjBSn50QMJsj0C3jZ7BE/gDQbVjw74ltLPBFuiYQKmeS8B20qXBRNIWQaQe2UBRO5PB
oUb7QLNEwUDiF4XBFkAJQcXV/0BRNKPBOECSQFCb90DH05bBrxHUQGL0zD/Y167BlSthQA30a793
+qHB/bbjQMeKK8BzuK7BmHvRQBdmD0Hno8HBI52cQEpqBkGwOr7B1vS8QDoSC0HxDFfBin6RQPiJ
8ECdhFbBmMSBQG1zFUFQ9G/BXPeyQMlaEEGT6n3BA97mQMWu5kAsMG7BiofVQFaNyUBH+lbBbmlQ
QOj44UDdznjBTNdqQNJV/0DeTojB4bDNQJXHn0CXMnnBw+ubQI+Jp0D0WWvB817BQFIDKkGIO6PB
WaySQA3ZG0EtwZ7BBQBrQOzCGkEsvLDB6vuFQCHQNUGlK67B8TT8QHbYnL5pnofBv2vLQGwLhT0L
oIDBBGTKQO5lfb8RQYzBpp6DQKQ7GUDwUKvBvSxOQMFEsz/Ls6HBWR2lQI3kX0BERofBG/e9QHIZ
kUAxPJHB7VG9QFtzNEDWn57BtFxPQBBQRkBV7pLBx3CRQAuobD9pgY/BT1xiQJIxoUCltITBu1Vx
QHOVuUBOG5DBO3hTQFMQgkCg/aPBFtQEQahh/kBLNZLByrjvQPD/5kD6JovBVjv3QCUVC0HEiprB
3lGwQBA7AEEyiJTB1lCuQLkOEr7nhq3BPKmMQCjAkL98wJ3BxlG5QORgIMDGZqnBQovCQFYW6EAN
HIzBqsuTQCTyUrzRb6TBmi3KQKr3C0Hez5vB+MzAQGvvsb/tC7DBNF2fQM0AGMC2O6DBEBfIQCrj
KkEzbajBmBvTQDWSkz9h2o3BeGm2QBeJNEEh5bLBJnitQIyp7EDphFvBjK6XQNX9A0FH5mzBZH7P
QFMFz0AUUWXBmj+DQOwp60AUKH7Bpq28QMgbs0CGm3fB0iiMQEKHEEEgVajBzJiDQMrBF0FI5LPB
2sKkQFCRzUB+r4TB8FTZQCUZrj71mYPBud1/QHh6qj+3r6HBlsKlQHeAjUBw35DBAoKeQBB/DUDV
3ZrBpoaIQMtIY0AX75fBXCu3QI1hF0ERdKTBpqGpQA27vj956ZDB8OGLQH1nr0BKmIvBPkzmQLMc
NEHELKTBTgXyQJwzsj/ll5PBgnOKQDJ1LkFqm7TBSJJ8QO0GiUCma6HBwKrZQKsvwr8E2rjBQE2Y
QA9kXMAg1JnBjf4VQZYS/kBKOJHBdlT+QEP800AY7oTBYMwFQVWoE0EDDaDBp/SNQKeYAEGmbpXB
mXK0QK/pNj8LjrLB2aNxQP8AhL/9uJbBW3rHQIOAXcAjVqvBKHO4QDsVRkH3cbLBLNPJQLjHLkHw
pbnBPt+8QMn7AEHF0E/B4huVQJ4W2UAwa1PBjUl9QPfiDUGneWXBfLWvQKBpDkFBcHTBoajpQMuu
4kBby2vBwBDcQIDfuUC4uljBe3RVQB391kDHj3bBVVZoQBSj/0DdKYXBABTXQCp3oUArNH/BE+Cl
QPdHnECJknDB9CNnQHuAF0HSFqPBk0GKQPTv/UCW+afBm5CZQMJqD0HcW7nBfrJEQGD/E0EaFrbB
80D7QCMOhT3/xoLB23jPQEdqcT82VXnB67vFQCGLEr/C/IPBAttwQImd7j+/J6nBzI1EQD2ZlD++
JZ3B5/u0QCHDckCYvIrBUJe+QARxnEBF3pXBY6G7QMPiGkB3hJ/BgUhWQJP1VECQbpPBS7KRQLP+
nD/oCYzBzp1rQEQhoUB1CIfBKM56QCmDwEAFTpHBTnlYQAFecED/2qXB

>  <OMEGA_E>  (91) 
aMSePtiMQD8=

>  <OMEGA_NBR>  (91) 
     30028

$$$$
50214109
     RDKit          3D

 71 74  0  0  1  0  0  0  0  0999 V2000
    8.4167    6.9733  -18.5033 C   0  0  0  0  0  0  0  0  0  0  0  0
    7.5066    6.5676  -17.5093 C   0  0  0  0  0  0  0  0  0  0  0  0
    7.9672    7.6971  -19.6208 C   0  0  0  0  0  0  0  0  0  0  0  0
    5.6959    7.6220  -18.7434 C   0  0  0  0  0  0  0  0  0  0  0  0
    6.2475    0.6427  -21.6461 C   0  0  0  0  0  0  0  0  0  0  0  0
    4.5499   -0.8310  -20.6889 C   0  0  0  0  0  0  0  0  0  0  0  0
    6.5871   -1.7727  -21.6463 C   0  0  0  0  0  0  0  0  0  0  0  0
    6.1317    6.9108  -17.6052 C   0  0  0  0  0  0  0  0  0  0  0  0
    4.9993    0.4674  -21.0114 C   0  0  0  0  0  0  0  0  0  0  0  0
    6.6005    8.0203  -19.7455 C   0  0  0  0  0  0  0  0  0  0  0  0
    7.0412   -0.4760  -21.9595 C   0  0  0  0  0  0  0  0  0  0  0  0
    5.3417   -1.9495  -21.0108 C   0  0  0  0  0  0  0  0  0  0  0  0
    6.3037    8.2736  -22.1815 C   0  0  0  0  0  0  0  0  0  0  0  0
    6.5949    1.1323  -17.9674 C   0  0  0  0  0  0  0  0  0  0  0  0
    5.3985    7.9433  -14.0376 C   0  0  0  0  0  0  0  0  0  0  0  0
    4.8236    8.5991  -15.3045 C   0  0  0  0  0  0  0  0  0  0  0  0
    6.3526    6.7887  -14.3891 C   0  0  0  0  0  0  0  0  0  0  0  0
    4.1066    7.5481  -16.1628 C   0  0  0  0  0  0  0  0  0  0  0  0
    5.6651    5.7535  -15.3060 C   0  0  0  0  0  0  0  0  0  0  0  0
    4.9376   10.1344  -22.2390 C   0  0  0  0  0  0  0  0  0  0  0  0
    4.9577    9.5863  -20.8385 C   0  0  0  0  0  0  0  0  0  0  0  0
    5.0710    6.4054  -16.5945 C   0  0  0  0  0  0  0  0  0  0  0  0
    6.8054   -0.0818  -17.0676 C   0  0  0  0  0  0  0  0  0  0  0  0
    4.2068    1.6763  -20.5630 C   0  0  0  0  0  0  0  0  0  0  0  0
    4.9599    4.2328  -17.7674 C   0  0  0  0  0  0  0  0  0  0  0  0
    4.9693    2.4040  -19.4354 C   0  0  1  0  0  0  0  0  0  0  0  0
    4.1269    3.5304  -18.8305 C   0  0  2  0  0  0  0  0  0  0  0  0
    5.4623    9.0178  -23.0078 N   0  0  0  0  0  0  0  0  0  0  0  0
    6.1334    8.7169  -20.8619 N   0  0  0  0  0  0  0  0  0  0  0  0
    5.3013    1.4337  -18.3749 N   0  0  0  0  0  0  0  0  0  0  0  0
    4.2269    5.4126  -17.2850 N   0  0  0  0  0  0  0  0  0  0  0  0
    7.0030    7.3424  -22.5635 O   0  0  0  0  0  0  0  0  0  0  0  0
    7.5678    1.7173  -18.4318 O   0  0  0  0  0  0  0  0  0  0  0  0
    3.7716    4.4769  -19.8390 O   0  0  0  0  0  0  0  0  0  0  0  0
    8.2489   -0.3033  -22.5418 F   0  0  0  0  0  0  0  0  0  0  0  0
    4.9133   -3.1925  -20.6956 F   0  0  0  0  0  0  0  0  0  0  0  0
    9.4640    6.7276  -18.4069 H   0  0  0  0  0  0  0  0  0  0  0  0
    7.8568    5.9903  -16.6664 H   0  0  0  0  0  0  0  0  0  0  0  0
    8.6675    8.0053  -20.3830 H   0  0  0  0  0  0  0  0  0  0  0  0
    4.6488    7.8652  -18.8476 H   0  0  0  0  0  0  0  0  0  0  0  0
    6.5936    1.6359  -21.8912 H   0  0  0  0  0  0  0  0  0  0  0  0
    3.5989   -0.9663  -20.1953 H   0  0  0  0  0  0  0  0  0  0  0  0
    7.1937   -2.6313  -21.8934 H   0  0  0  0  0  0  0  0  0  0  0  0
    5.9498    8.7006  -13.4609 H   0  0  0  0  0  0  0  0  0  0  0  0
    4.5699    7.5509  -13.4298 H   0  0  0  0  0  0  0  0  0  0  0  0
    4.1080    9.3830  -15.0158 H   0  0  0  0  0  0  0  0  0  0  0  0
    5.6429    9.0467  -15.8863 H   0  0  0  0  0  0  0  0  0  0  0  0
    7.2337    7.1964  -14.9062 H   0  0  0  0  0  0  0  0  0  0  0  0
    6.6699    6.2907  -13.4610 H   0  0  0  0  0  0  0  0  0  0  0  0
    3.2793    7.1160  -15.5807 H   0  0  0  0  0  0  0  0  0  0  0  0
    3.7056    8.0361  -17.0634 H   0  0  0  0  0  0  0  0  0  0  0  0
    6.4058    4.9960  -15.6020 H   0  0  0  0  0  0  0  0  0  0  0  0
    4.8506    5.2707  -14.7460 H   0  0  0  0  0  0  0  0  0  0  0  0
    3.9151   10.3906  -22.5533 H   0  0  0  0  0  0  0  0  0  0  0  0
    5.5824   11.0209  -22.3307 H   0  0  0  0  0  0  0  0  0  0  0  0
    5.0718   10.3909  -20.0973 H   0  0  0  0  0  0  0  0  0  0  0  0
    4.0435    9.0144  -20.6212 H   0  0  0  0  0  0  0  0  0  0  0  0
    7.8828   -0.2734  -16.9555 H   0  0  0  0  0  0  0  0  0  0  0  0
    6.3631    0.1132  -16.0795 H   0  0  0  0  0  0  0  0  0  0  0  0
    6.3218   -0.9607  -17.5188 H   0  0  0  0  0  0  0  0  0  0  0  0
    4.0697    2.3605  -21.4133 H   0  0  0  0  0  0  0  0  0  0  0  0
    3.2237    1.3524  -20.1907 H   0  0  0  0  0  0  0  0  0  0  0  0
    5.1436    3.5447  -16.9290 H   0  0  0  0  0  0  0  0  0  0  0  0
    5.9208    4.5476  -18.2006 H   0  0  0  0  0  0  0  0  0  0  0  0
    5.8939    2.8317  -19.8505 H   0  0  0  0  0  0  0  0  0  0  0  0
    3.2273    3.1013  -18.3650 H   0  0  0  0  0  0  0  0  0  0  0  0
    5.2553    8.8176  -23.9654 H   0  0  0  0  0  0  0  0  0  0  0  0
    4.5461    0.9622  -17.9196 H   0  0  0  0  0  0  0  0  0  0  0  0
    3.5201    5.1044  -16.6483 H   0  0  0  0  0  0  0  0  0  0  0  0
    3.7970    5.8579  -18.0703 H   0  0  0  0  0  0  0  0  0  0  0  0
    3.2509    4.0474  -20.5076 H   0  0  0  0  0  0  0  0  0  0  0  0
  1  2  2  0
  1  3  1  0
  2  8  1  0
  3 10  2  0
  4  8  2  0
  4 10  1  0
  5  9  2  0
  5 11  1  0
  6  9  1  0
  6 12  2  0
  7 11  2  0
  7 12  1  0
  8 22  1  0
  9 24  1  0
 10 29  1  0
 11 35  1  0
 12 36  1  0
 13 28  1  0
 13 29  1  0
 13 32  2  0
 14 23  1  0
 14 30  1  0
 14 33  2  0
 15 16  1  0
 15 17  1  0
 16 18  1  0
 17 19  1  0
 18 22  1  0
 19 22  1  0
 20 21  1  0
 20 28  1  0
 21 29  1  0
 22 31  1  0
 24 26  1  0
 25 27  1  0
 25 31  1  0
 26 27  1  0
 26 30  1  0
 27 34  1  0
  1 37  1  0
  2 38  1  0
  3 39  1  0
  4 40  1  0
  5 41  1  0
  6 42  1  0
  7 43  1  0
 15 44  1  0
 15 45  1  0
 16 46  1  0
 16 47  1  0
 17 48  1  0
 17 49  1  0
 18 50  1  0
 18 51  1  0
 19 52  1  0
 19 53  1  0
 20 54  1  0
 20 55  1  0
 21 56  1  0
 21 57  1  0
 23 58  1  0
 23 59  1  0
 23 60  1  0
 24 61  1  0
 24 62  1  0
 25 63  1  0
 25 64  1  0
 26 65  1  6
 27 66  1  1
 28 67  1  0
 30 68  1  0
 31 69  1  0
 31 70  1  0
 34 71  1  0
M  CHG  1  31   1
M  END
>  <OMEGA_C>  (92) 
1aoGQVUl30DPBpTBJTbwQLUp0kAWE4zBEfP+QIZO9kB595zB1kS2QIXn80CK8pXBjuvHQD6HJD8d
K63BGpmRQJS5VL/XgqXBZMnSQFnm4r+XK63BszbEQCUl3UBl14zBifqfQPRI7z5cF6jBbzfTQEpT
AEHh9p3Bw1HhQKKy874Qra/BEO+qQLSK+b8cFqjBArjJQJJgBEG0c7HBlAnTQFzwkD9BvY/B1MCs
QGsv/kAOmmDBV1uaQMiVCUEv33TBHEjLQMw82UCaOWbBQGmDQC6K8UBbTYHBaUi1QLocuEAv5XTB
yQCeQG8mIkGG6bHB4aWeQFZhGUFUtabB2EWiQPf4zECYwYTBz8XZQNWAp71riojBc56GQAyR1j/7
gKTB2beeQOhyh0CuI47BrQSfQLfaGUDHe5vBOQ+EQLvyYUDjpJbBQ8uuQOtIEEHrD7jB0UTEQF54
C0Ep5abBnaSpQDaDtz+z/5LBLEOHQLYzrUCgR4rBwhjgQL/06kAFgrTBGSvyQL3Q2z9KdJPBFmFx
QHRCj0BVtp7Ba/sDQbhLm76bVbTB+DmdQExSTMCwkKXBWWwXQVdI10BWQZPBgmr7QJiwv0DAVIXB
MK4KQZAVAEFvEKPBGMOUQP2v+0Dfx5bB6P7SQH5l0T9DIa/B31RmQOlgd7/pj6HBBDPmQOBnKMCW
Ja/B32S+QH41C0G0X1fB0jySQF+h8UBZ4FbB0XSDQKMgFkGUQHDBRJK0QFS/EEFWLn7BEnrnQPRI
5kC/f27B92/VQIdNyUA4YFfBr99RQIu240BrSnnBlyhtQLGTAEHUgYjBM/zMQJTfn0CZoXnBIjib
QLmpqECx72vBkpB6QBlAJkEvbbTB3KKyQHtVMEEspbLBgkyiQE9BJkE4x6DBnGSBQC07EEE8+KTB
mj/8QMj9i77upIfBTZ7LQAvY5z3OooDB4UvKQAPwdb+TJozB+jqCQE0SF0B5TqvBllFOQLIcrT+G
hqHBU5ikQADdYkCvbofBGHe9QN2FkUDjmpHBsJq8QA06NUDLzZ7BYYxOQH57RkCe65LBZSuoQOQU
DUEnub/BkXmRQLBSdj9GW4/BGUlhQORWo0C3L4XBfAFzQNpzu0AMkJDBDw9QQGSEgUCcD6TBw9sE
QWfm/kBHrpLB7dnvQMJh50B2oovBijX3QM0cC0EKE5vB4F6wQA3v/kD4UJXBPOisQAR9TL6WG63B
KNeLQHQklL+hIp3BTwu4QOmDI8B1uKjBsKnCQILF50D/rYzBNruSQOoBV70h+aPBHlHKQIo5C0EW
hpzBCkq/QOrZub+BhK/BBW+eQE4BGsBPgp/BOwTHQOKSKUFbrKnBzOjSQJ2pkz9rqY3B7U6uQMON
7kC8hFzBEZeYQFe5BEHeFW7BkCvQQGyB0EBnIGbBzd6DQDU87ED6GX/BJi29QP4btECIMnjBOHeL
QNZtH0FvjbPBQciMQDJAEkErZ6nBbg+lQG0AzkDTDoXBkX3ZQBqitz5WVYPBowN+QA8Rpj+eVqHB
/4SlQEM0jUAR95DB5tudQEH1C0DKsJrB5wOIQGcSYkBS3ZfBcR+qQBdvMEH8crHBYce3QNtZFkGa
LKXBtlKpQJTjvT8ErpDBq9yLQF5qr0A3wovBVevmQI7JM0HqHafBgqHxQDMYsT9UfZPBy/x6QIXs
h0BaaKHBsdTXQMRDzL/fXLjBopmXQGuYXcBn9ZjB4gIWQY4J/0CRopHBpoX+QHXG1EBQWIXBxrAF
QT4TFEHceKDBZxeOQOCg/kCtaZbBrNqyQJ7QJT/xQLLB2YpwQBqjhb9gEpbBnx7GQEThYMCJkqrB
3NS9QB4RAkFb+1DBW+SVQD5R20BtQlTBdW5/QJ3PDkFjyGbBgrSwQJ/zDkEO0XXBqGHqQDHg40Bj
xmzB07bcQPuvu0BRZVnB92tWQKGC2EBDU3fBnNRpQAg5AEGvtYXBs4TXQFlEokAnun/BZ3OmQK14
nUAl83DB6juVQETUFUEbg7rBNIdWQJv7JUGm7bTBVCdoQESPF0FyuaPBbVSIQIkmAUGmKavBG3L7
QOvKrz1WjILBPtfPQK8ueT9Q5HjB7OfFQKkKDr8ClIPBDoRuQGyA6D/32ajBLQNDQA5lkT8At5zB
Uei0QHPMckBcyorBnja+QJvSm0C3D5bBEdG6QNrBGEBTbp/ByotVQMNRVEAMR5PBfGyqQCzCPkEp
A7XBm4yRQD4OnT/Pu4vBJgdsQLJwoUCSEofBTzR6QLsiwEDZfpHBuYdWQELAbUAhv6XB

>  <OMEGA_E>  (92) 
CB+OPkBLOD8=

>  <OMEGA_NBR>  (92) 
     32606

$$$$
50214114
     RDKit          3D

 72 75  0  0  1  0  0  0  0  0999 V2000
    8.4223    6.9875  -18.4810 C   0  0  0  0  0  0  0  0  0  0  0  0
    7.5083    6.5861  -17.4897 C   0  0  0  0  0  0  0  0  0  0  0  0
    7.9780    7.7094  -19.6010 C   0  0  0  0  0  0  0  0  0  0  0  0
    5.7032    7.6432  -18.7310 C   0  0  0  0  0  0  0  0  0  0  0  0
    6.2235    0.6391  -21.6496 C   0  0  0  0  0  0  0  0  0  0  0  0
    4.5480   -0.8381  -20.6598 C   0  0  0  0  0  0  0  0  0  0  0  0
    6.5894   -1.7723  -21.6155 C   0  0  0  0  0  0  0  0  0  0  0  0
    6.1341    6.9308  -17.5910 C   0  0  0  0  0  0  0  0  0  0  0  0
    4.9832    0.4605  -20.9997 C   0  0  0  0  0  0  0  0  0  0  0  0
    6.6131    8.0365  -19.7307 C   0  0  0  0  0  0  0  0  0  0  0  0
    7.0272   -0.4760  -21.9520 C   0  0  0  0  0  0  0  0  0  0  0  0
    5.3490   -1.9530  -20.9718 C   0  0  0  0  0  0  0  0  0  0  0  0
    6.3290    8.2474  -22.1637 C   0  0  0  0  0  0  0  0  0  0  0  0
    6.6008    1.1290  -17.9667 C   0  0  0  0  0  0  0  0  0  0  0  0
    5.4084    9.0615  -23.0816 C   0  0  0  0  0  0  0  0  0  0  0  0
    4.9463   10.2177  -22.2147 C   0  0  0  0  0  0  0  0  0  0  0  0
    5.3646    7.9334  -14.0241 C   0  0  0  0  0  0  0  0  0  0  0  0
    4.7908    8.5921  -15.2902 C   0  0  0  0  0  0  0  0  0  0  0  0
    6.3315    6.7901  -14.3765 C   0  0  0  0  0  0  0  0  0  0  0  0
    4.0903    7.5412  -16.1612 C   0  0  0  0  0  0  0  0  0  0  0  0
    5.6576    5.7553  -15.3031 C   0  0  0  0  0  0  0  0  0  0  0  0
    4.9748    9.6063  -20.8330 C   0  0  0  0  0  0  0  0  0  0  0  0
    5.0695    6.4121  -16.5918 C   0  0  0  0  0  0  0  0  0  0  0  0
    6.8156   -0.0851  -17.0676 C   0  0  0  0  0  0  0  0  0  0  0  0
    4.1914    1.6674  -20.5439 C   0  0  0  0  0  0  0  0  0  0  0  0
    4.9925    4.2610  -17.7996 C   0  0  0  0  0  0  0  0  0  0  0  0
    4.9666    2.4000  -19.4270 C   0  0  1  0  0  0  0  0  0  0  0  0
    4.1363    3.5360  -18.8249 C   0  0  2  0  0  0  0  0  0  0  0  0
    6.1550    8.7246  -20.8553 N   0  0  0  0  0  0  0  0  0  0  0  0
    5.3040    1.4372  -18.3601 N   0  0  0  0  0  0  0  0  0  0  0  0
    4.2415    5.4184  -17.2952 N   0  0  0  0  0  0  0  0  0  0  0  0
    6.9672    7.2605  -22.5123 O   0  0  0  0  0  0  0  0  0  0  0  0
    7.5715    1.6976  -18.4553 O   0  0  0  0  0  0  0  0  0  0  0  0
    3.7531    4.4628  -19.8413 O   0  0  0  0  0  0  0  0  0  0  0  0
    8.2299   -0.3002  -22.5439 F   0  0  0  0  0  0  0  0  0  0  0  0
    4.9379   -3.1953  -20.6322 F   0  0  0  0  0  0  0  0  0  0  0  0
    9.4687    6.7399  -18.3805 H   0  0  0  0  0  0  0  0  0  0  0  0
    7.8546    6.0107  -16.6439 H   0  0  0  0  0  0  0  0  0  0  0  0
    8.6814    8.0134  -20.3621 H   0  0  0  0  0  0  0  0  0  0  0  0
    4.6575    7.8908  -18.8381 H   0  0  0  0  0  0  0  0  0  0  0  0
    6.5559    1.6318  -21.9150 H   0  0  0  0  0  0  0  0  0  0  0  0
    3.6004   -0.9767  -20.1605 H   0  0  0  0  0  0  0  0  0  0  0  0
    7.2049   -2.6279  -21.8512 H   0  0  0  0  0  0  0  0  0  0  0  0
    5.9592    9.4285  -23.9603 H   0  0  0  0  0  0  0  0  0  0  0  0
    4.5522    8.4554  -23.4125 H   0  0  0  0  0  0  0  0  0  0  0  0
    5.6352   11.0722  -22.2877 H   0  0  0  0  0  0  0  0  0  0  0  0
    3.9309   10.5410  -22.4877 H   0  0  0  0  0  0  0  0  0  0  0  0
    5.9053    8.6922  -13.4393 H   0  0  0  0  0  0  0  0  0  0  0  0
    4.5361    7.5295  -13.4237 H   0  0  0  0  0  0  0  0  0  0  0  0
    4.0652    9.3664  -15.0004 H   0  0  0  0  0  0  0  0  0  0  0  0
    5.6091    9.0525  -15.8634 H   0  0  0  0  0  0  0  0  0  0  0  0
    7.2118    7.2088  -14.8863 H   0  0  0  0  0  0  0  0  0  0  0  0
    6.6482    6.2894  -13.4497 H   0  0  0  0  0  0  0  0  0  0  0  0
    3.2624    7.0972  -15.5890 H   0  0  0  0  0  0  0  0  0  0  0  0
    3.6921    8.0315  -17.0618 H   0  0  0  0  0  0  0  0  0  0  0  0
    6.4050    5.0040  -15.5979 H   0  0  0  0  0  0  0  0  0  0  0  0
    4.8420    5.2644  -14.7519 H   0  0  0  0  0  0  0  0  0  0  0  0
    5.0834   10.3848  -20.0635 H   0  0  0  0  0  0  0  0  0  0  0  0
    4.0587    9.0279  -20.6429 H   0  0  0  0  0  0  0  0  0  0  0  0
    7.8926   -0.2914  -16.9803 H   0  0  0  0  0  0  0  0  0  0  0  0
    6.3996    0.1193  -16.0700 H   0  0  0  0  0  0  0  0  0  0  0  0
    6.3093   -0.9587  -17.5041 H   0  0  0  0  0  0  0  0  0  0  0  0
    4.0408    2.3494  -21.3937 H   0  0  0  0  0  0  0  0  0  0  0  0
    3.2143    1.3406  -20.1585 H   0  0  0  0  0  0  0  0  0  0  0  0
    5.2289    3.5816  -16.9674 H   0  0  0  0  0  0  0  0  0  0  0  0
    5.9260    4.6019  -18.2711 H   0  0  0  0  0  0  0  0  0  0  0  0
    5.8899    2.8193  -19.8532 H   0  0  0  0  0  0  0  0  0  0  0  0
    3.2499    3.1143  -18.3285 H   0  0  0  0  0  0  0  0  0  0  0  0
    4.5509    0.9770  -17.8900 H   0  0  0  0  0  0  0  0  0  0  0  0
    3.5423    5.0872  -16.6617 H   0  0  0  0  0  0  0  0  0  0  0  0
    3.8012    5.8695  -18.0715 H   0  0  0  0  0  0  0  0  0  0  0  0
    3.2168    4.0199  -20.4885 H   0  0  0  0  0  0  0  0  0  0  0  0
  1  2  2  0
  1  3  1  0
  2  8  1  0
  3 10  2  0
  4  8  2  0
  4 10  1  0
  5  9  2  0
  5 11  1  0
  6  9  1  0
  6 12  2  0
  7 11  2  0
  7 12  1  0
  8 23  1  0
  9 25  1  0
 10 29  1  0
 11 35  1  0
 12 36  1  0
 13 15  1  0
 13 29  1  0
 13 32  2  0
 14 24  1  0
 14 30  1  0
 14 33  2  0
 15 16  1  0
 16 22  1  0
 17 18  1  0
 17 19  1  0
 18 20  1  0
 19 21  1  0
 20 23  1  0
 21 23  1  0
 22 29  1  0
 23 31  1  0
 25 27  1  0
 26 28  1  0
 26 31  1  0
 27 28  1  0
 27 30  1  0
 28 34  1  0
  1 37  1  0
  2 38  1  0
  3 39  1  0
  4 40  1  0
  5 41  1  0
  6 42  1  0
  7 43  1  0
 15 44  1  0
 15 45  1  0
 16 46  1  0
 16 47  1  0
 17 48  1  0
 17 49  1  0
 18 50  1  0
 18 51  1  0
 19 52  1  0
 19 53  1  0
 20 54  1  0
 20 55  1  0
 21 56  1  0
 21 57  1  0
 22 58  1  0
 22 59  1  0
 24 60  1  0
 24 61  1  0
 24 62  1  0
 25 63  1  0
 25 64  1  0
 26 65  1  0
 26 66  1  0
 27 67  1  6
 28 68  1  1
 30 69  1  0
 31 70  1  0
 31 71  1  0
 34 72  1  0
M  CHG  1  31   1
M  END
>  <OMEGA_C>  (93) 
3MEGQfeZ30AU2ZPBnEPwQKXB0kDU6ovBCkz/QCSz9kDwzpzBBIG2QCyV9EAR2ZXB7ibHQHmbIz9p
Mq3B7YiRQKSNVr9bR6XBr9zSQGjb4r+e7KzBYErEQDPJ3UBWuozBqXafQPzL6z51/6fBrJ7TQKmV
AEFp2J3B597gQEq1876cna/B7CqrQN36+b8rxqfB7YbKQE/1A0EuT7HB1TnTQEKDkD/ku4/B/BGt
QOr7EEEzp7jBKUieQN17I0Gbt7HB1aqrQH7e/UChYmDBH06ZQB55CUHcpHTB1JvKQFRI2UAjBmbB
teOCQLtR8UAzSoHB4wq1QFAruECB2XTBvTGfQF6zGUEOqqbBRDmiQDYwzUACvITBuhnaQNBLrr1s
iojBkh+GQMBs1T/8WaTBxcKfQPxZiECTZY7BE+6eQAeaGUB5apvBwlyEQK1NYkBVmZbBa/XEQNeX
C0HB16bBlLqpQPz1tz954ZLBorqHQKljrUCqXIrBZPPeQExW6EArGbTBWknyQHBM2T97pJPBpDJw
QBbPjkANu57Bga0DQZaxmb7fWbTB+gKeQG5/TMDNDqXB+38XQYyt10A6C5PBAVn7QHZXwEDAJoXB
M+cKQb02AEGR5aLBHQqVQGaB/EB6tJbBjMnRQOvf0D/UUa/BX21mQMwGer+mSKHBcI7mQEYwKMA3
z67BarG+QCvbFkGsrr/BkauRQDNJB0G0TLvBaFO0QMInMUFJTbLBZpR7QMKnKEHD5rPB5Pe8QD4T
C0GAB1fB6yeRQJnx8EBtx1bBOBaCQKPcFUGsAXDBcH2zQPbWEEFJ0H3Bv8bmQCSu5kA/Lm7BXL7U
QH5CyUDrMVfBDMtQQFgc40CfbHnBGEtsQAKBAEGbfojBzvXMQMMgoEAYkXnBXPGaQBx2qEDOB2zB
6qqiQBYoJkETgqDBleCBQHRyEEGPJKXBFpD8QGw0lb6o14fBS8nMQJxp9D11j4DBt+XJQG1qdb9Z
CIzB2U2BQHtcFkBlJqvBZLdNQAKYqz+CRKHBd1OnQGk4ZUBMvYfBB6K9QCVDk0A3K5LB13m8QAtw
NEBl057Bp/5PQOlPR0CwoJLBmaCRQEEcej/PHo/BQrViQITKokAgS4XBzUZzQDXTu0B4kpDBpeBN
QOOigEBe6KPB9esEQYw8/0DbaZLBXfrvQKAW50CxiIvBmIL3QNq/C0EPqZrBtL+wQJJ0/0CtKJXB
qgitQMtVQr6kKa3BkM+LQJ80k79XOJ3Bygy4QLL4IsBKzqjBRuDCQPLI50B4l4zBtsqSQKG8M73l
CaTBbZLKQG/RC0ExUJzB+GK/QLOXuL8zla/BCWGeQC2KGcCCmp/BgSfMQJpHI0F6+azBytnSQHTf
kz9Jr43B9jGqQAnXKkED97TBwHeAQBrkKEEM667BClCuQHNn7kCaalzB3KSYQH+sBEH++m3BShrQ
QO9D0EDMBWbBWOmDQMcs7ECnAn/BQQ29QGrxs0AvHHjBXO+IQCFWFkG1YqfBEhulQHnzzUB3BYXB
Q1TZQMlGtz4hXYPBTy5+QE0opz8EZaHBiJelQJFRjUCr+JDBgeydQLtYDEDiuJrBNBmIQFlzYkCn
45fBDTS3QGKWF0HRxaTBPkypQH1lvj/etpDBTO+LQKOCr0BZw4vBdkzyQHT8JkE9R67Bvp3xQLlF
sT+tf5PBcEl7QAMuiEAybaHBjvvXQH3ayr9pa7jB3HSXQMk2XcCVEpnBeBIWQRkq/0CMW5HBB5L+
QLbE00BaXoXBFuwFQQsqFUGO0p/BgnqOQA8X/0CCRZbBtQ2zQHKeKD/WSrLBa2JwQHjShL8GKpbB
AhrGQIdXYMB9qqrByASwQPOHO0G5WLfBRf2pQMuWIEE1HrzB2r1yQL6hN0EPc6rBEJdLQKpJJUHh
XrTBr+S9QM35AUFL4lDB1tqVQLY620D8JlTBW5F/QCLFDkGqrWbBPMqwQJbkDkHksnXBOWHqQCKR
40Dup2zBXpHcQFRlu0AkS1nBk39WQHFw2EBFPnfB5eppQOU0AEGlqIXB6lfXQDj+oUCwnn/BRTWm
QONlnUAH4nDBqQ9rQHzsF0EjFqDBnoKBQLIKB0EAU6vBGUT7QCKxqj2tkYLB46rPQPXGeD/X8XjB
drPFQAT3Db+qoIPBI9FuQAnT6T9p56jBMBtDQH55kj8tyZzBGu60QNjtckCCzIrBSVO+QCzym0DW
DZbBouu6QDknGUCGcp/B+KdVQGWxVEBSUJPBzXuRQPyYnT+Kx4vBtv1rQGeGoUAFG4fBfJJ6QCxU
wEDxf5HBsdZWQFFZbkD8xqXB

>  <OMEGA_E>  (93) 
SERiPhRkMj8=

>  <OMEGA_NBR>  (93) 
     35212

$$$$
50214092
     RDKit          3D

 68 72  0  0  1  0  0  0  0  0999 V2000
    8.3065    6.8177  -18.4091 C   0  0  0  0  0  0  0  0  0  0  0  0
    7.4233    6.4660  -17.3727 C   0  0  0  0  0  0  0  0  0  0  0  0
    7.8383    7.5705  -19.5034 C   0  0  0  0  0  0  0  0  0  0  0  0
    5.6052    7.5987  -18.5369 C   0  0  0  0  0  0  0  0  0  0  0  0
    6.3237    0.7088  -21.7096 C   0  0  0  0  0  0  0  0  0  0  0  0
    4.5982   -0.7679  -20.8111 C   0  0  0  0  0  0  0  0  0  0  0  0
    6.6629   -1.7092  -21.7118 C   0  0  0  0  0  0  0  0  0  0  0  0
    6.0716    6.8591  -17.4512 C   0  0  0  0  0  0  0  0  0  0  0  0
    5.0584    0.5359  -21.1053 C   0  0  0  0  0  0  0  0  0  0  0  0
    6.4825    7.9761  -19.5579 C   0  0  0  0  0  0  0  0  0  0  0  0
    7.1241   -0.4119  -22.0102 C   0  0  0  0  0  0  0  0  0  0  0  0
    5.3983   -1.8877  -21.1174 C   0  0  0  0  0  0  0  0  0  0  0  0
    6.6037    1.1304  -18.0679 C   0  0  0  0  0  0  0  0  0  0  0  0
    4.9746    8.5546  -23.2853 C   0  0  0  0  0  0  0  0  0  0  0  0
    6.4304    8.1861  -22.8961 C   0  0  0  0  0  0  0  0  0  0  0  0
    4.4076    7.4211  -15.5728 C   0  0  0  0  0  0  0  0  0  0  0  0
    5.3701    6.3657  -14.9814 C   0  0  0  0  0  0  0  0  0  0  0  0
    5.9364   10.4314  -22.2001 C   0  0  0  0  0  0  0  0  0  0  0  0
    4.5539    9.0631  -20.8689 C   0  0  0  0  0  0  0  0  0  0  0  0
    4.6263    9.6800  -22.2801 C   0  0  2  0  0  0  0  0  0  0  0  0
    6.7396    9.2118  -21.7851 C   0  0  1  0  0  0  0  0  0  0  0  0
    5.0544    6.3727  -16.4766 C   0  0  0  0  0  0  0  0  0  0  0  0
    6.8182   -0.1048  -17.1985 C   0  0  0  0  0  0  0  0  0  0  0  0
    4.2561    1.7508  -20.6525 C   0  0  0  0  0  0  0  0  0  0  0  0
    4.9155    4.2065  -17.6773 C   0  0  0  0  0  0  0  0  0  0  0  0
    4.9749    2.4595  -19.4747 C   0  0  1  0  0  0  0  0  0  0  0  0
    4.1097    3.5578  -18.8170 C   0  0  2  0  0  0  0  0  0  0  0  0
    5.9996    8.7817  -20.5789 N   0  0  0  0  0  0  0  0  0  0  0  0
    5.3077    1.4520  -18.4508 N   0  0  0  0  0  0  0  0  0  0  0  0
    4.1718    5.3375  -17.0655 N   0  0  0  0  0  0  0  0  0  0  0  0
    7.5744    1.7107  -18.5424 O   0  0  0  0  0  0  0  0  0  0  0  0
    3.7705    4.5578  -19.7783 O   0  0  0  0  0  0  0  0  0  0  0  0
    8.3409   -0.2425  -22.5754 F   0  0  0  0  0  0  0  0  0  0  0  0
    4.9582   -3.1341  -20.8305 F   0  0  0  0  0  0  0  0  0  0  0  0
    9.3411    6.5112  -18.3659 H   0  0  0  0  0  0  0  0  0  0  0  0
    7.7774    5.8997  -16.5241 H   0  0  0  0  0  0  0  0  0  0  0  0
    8.5141    7.8389  -20.3020 H   0  0  0  0  0  0  0  0  0  0  0  0
    4.5640    7.8807  -18.5894 H   0  0  0  0  0  0  0  0  0  0  0  0
    6.6785    1.7021  -21.9418 H   0  0  0  0  0  0  0  0  0  0  0  0
    3.6312   -0.9066  -20.3506 H   0  0  0  0  0  0  0  0  0  0  0  0
    7.2788   -2.5668  -21.9387 H   0  0  0  0  0  0  0  0  0  0  0  0
    4.9214    8.9185  -24.3220 H   0  0  0  0  0  0  0  0  0  0  0  0
    4.3017    7.6928  -23.1643 H   0  0  0  0  0  0  0  0  0  0  0  0
    6.4933    7.1556  -22.5165 H   0  0  0  0  0  0  0  0  0  0  0  0
    7.1138    8.3046  -23.7499 H   0  0  0  0  0  0  0  0  0  0  0  0
    3.3311    7.3701  -15.3524 H   0  0  0  0  0  0  0  0  0  0  0  0
    4.7186    8.4741  -15.6401 H   0  0  0  0  0  0  0  0  0  0  0  0
    6.3672    6.6662  -14.6272 H   0  0  0  0  0  0  0  0  0  0  0  0
    4.9797    5.5622  -14.3395 H   0  0  0  0  0  0  0  0  0  0  0  0
    6.2543   10.8500  -23.1664 H   0  0  0  0  0  0  0  0  0  0  0  0
    5.9331   11.2261  -21.4396 H   0  0  0  0  0  0  0  0  0  0  0  0
    4.1313    9.7734  -20.1431 H   0  0  0  0  0  0  0  0  0  0  0  0
    3.9581    8.1384  -20.8667 H   0  0  0  0  0  0  0  0  0  0  0  0
    3.7541   10.2890  -22.5601 H   0  0  0  0  0  0  0  0  0  0  0  0
    7.8127    9.4012  -21.6343 H   0  0  0  0  0  0  0  0  0  0  0  0
    7.8951   -0.3133  -17.1160 H   0  0  0  0  0  0  0  0  0  0  0  0
    6.4020    0.0755  -16.1964 H   0  0  0  0  0  0  0  0  0  0  0  0
    6.3119   -0.9675  -17.6561 H   0  0  0  0  0  0  0  0  0  0  0  0
    4.1560    2.4537  -21.4928 H   0  0  0  0  0  0  0  0  0  0  0  0
    3.2575    1.4254  -20.3257 H   0  0  0  0  0  0  0  0  0  0  0  0
    5.1160    3.4498  -16.9046 H   0  0  0  0  0  0  0  0  0  0  0  0
    5.8684    4.5805  -18.0802 H   0  0  0  0  0  0  0  0  0  0  0  0
    5.8994    2.9195  -19.8538 H   0  0  0  0  0  0  0  0  0  0  0  0
    3.2022    3.0973  -18.3994 H   0  0  0  0  0  0  0  0  0  0  0  0
    4.5536    0.9704  -18.0042 H   0  0  0  0  0  0  0  0  0  0  0  0
    3.5823    4.9755  -16.3434 H   0  0  0  0  0  0  0  0  0  0  0  0
    3.6087    5.7657  -17.7722 H   0  0  0  0  0  0  0  0  0  0  0  0
    3.2728    4.1628  -20.4846 H   0  0  0  0  0  0  0  0  0  0  0  0
  1  2  2  0
  1  3  1  0
  2  8  1  0
  3 10  2  0
  4  8  2  0
  4 10  1  0
  5  9  2  0
  5 11  1  0
  6  9  1  0
  6 12  2  0
  7 11  2  0
  7 12  1  0
  8 22  1  0
  9 24  1  0
 10 28  1  0
 11 33  1  0
 12 34  1  0
 13 23  1  0
 13 29  1  0
 13 31  2  0
 14 15  1  0
 14 20  1  0
 15 21  1  0
 16 17  1  0
 16 22  1  0
 17 22  1  0
 18 20  1  0
 18 21  1  0
 19 20  1  0
 19 28  1  0
 21 28  1  0
 22 30  1  0
 24 26  1  0
 25 27  1  0
 25 30  1  0
 26 27  1  0
 26 29  1  0
 27 32  1  0
  1 35  1  0
  2 36  1  0
  3 37  1  0
  4 38  1  0
  5 39  1  0
  6 40  1  0
  7 41  1  0
 14 42  1  0
 14 43  1  0
 15 44  1  0
 15 45  1  0
 16 46  1  0
 16 47  1  0
 17 48  1  0
 17 49  1  0
 18 50  1  0
 18 51  1  0
 19 52  1  0
 19 53  1  0
 20 54  1  6
 21 55  1  1
 23 56  1  0
 23 57  1  0
 23 58  1  0
 24 59  1  0
 24 60  1  0
 25 61  1  0
 25 62  1  0
 26 63  1  6
 27 64  1  1
 29 65  1  0
 30 66  1  0
 30 67  1  0
 32 68  1  0
M  CHG  1  30   1
M  END
>  <OMEGA_C>  (94) 
PecEQVYq2kDARZPBoIvtQMTpzkBj+4rBlNP6QMtB8kAJB5zBKV6zQIUo80CVS5TBwFvKQJZ1NT9S
ra3BWSSTQCWWRL82fabBIDbVQJbF2r/Gsa3B0krCQNJ920ADnIvBqd6hQKIwCT+y16jB+HDPQOg7
/0CJdpzBuPjjQMzg0r79FLDBg76sQPCe8b9l8KjBf1HTQGKwkD8ai5DBhC+fQHLfCEFeSLrB/MXN
QGf6AkFAK7fBHQuNQMR57UACKnnBgderQMWzy0C/s2/B8fa9QAvnJkHXmbHB6bmRQIcCEUGQ86bB
1AqUQHzhGkGgPbLB+KrXQK9jE0HlR67Bwb2hQPzsy0Aq0IPB3y7aQEux1r2WlonBADKIQFMa4D9s
OKXBEkydQJubhkAxa43BpDKfQGloHUAyzJvB6oKDQEezY0AsiZbBs/y/QLGBDEGWoaTBvNipQF3c
uT8vm5PBjX+FQH3MqkAwhojBUGHyQET32j/rVpTBmFBxQCrZkUAPOp7BZXQFQZBHeL5imrTB46me
QBaVSMDWpKbBVnUVQWxb0EBE7ZLBs+D4QInKvEBEMYTBpDkIQTDY+kCOaqLBqAySQPgu/EAqt5TB
lLbVQBPe2T/diK/BhmVoQNIYaL8LzqLByuvoQERGJMCJgq/B7XudQEiyDkF6k8LBfaeJQGUr9kCH
ULnBz8jPQA775ECxIbTBHaTjQM/fBEHT/73B/zBVQKzX60Bho3XBhf6WQOOVB0HrPXrB+r/LQIpR
1UAaCWrB9VmfQHL9sUCQbmXBDiPIQHuZLUHXVLnBSdy9QCGeM0E5hKvBbjOEQMdfHEEAJaHBUFJ9
QA83AkEF76bBdEJwQI6fJEEGe7TBQAH6QDhrFkH6Eq3B/KT8QOdioL6e7YjBzNzMQBeSmj1HkoHB
OfvJQAyxd7+1P43Bj/2EQBAJHUAn8avBXnpQQO1ytj8Jm6LB/LWjQPjIXECJPIfBj8m7QGmTkkAp
pJDB+Me8QBrZOkCl1J7BGvFMQM86RkD2MZPBLbeRQHZueD+rCJDBK0RlQPw2n0Bcv4LBSvRmQOmA
uECFLY7Bz3RRQMA1hUBc4KPBtksGQTzz2UCbWZHBVuztQLnKz0DIhonBFhcAQXzE70DUsZrB6Jm2
QKII8kCATJTBKPzKQAlLQj+GxK3B1EuTQBgWOb/U4qbBJOrUQOy81L++Xa7BvfrCQHhD3EDiBIvB
JXyiQOdpFT8V8qjBMeDUQOgu+0DvR5zB1iPkQKBeub4SdbDBP26sQD7k67+noKnBiR/TQOBQjT9W
spDBL0mrQJarKEERvrPBZySQQI7RIEEeIKrBhyqLQGp+7kAB5njBcFioQLuqy0ARIm/B90igQHQ6
A0Gdk7XBcKrjQOiADUGr667BkmXCQDb8E0HOc7fB6tuaQE3GCEHK1anB1mWgQEImzUCDooPB9DbZ
QAgTKL4IFYrBavGIQOrb5T93MaXBtc2cQHjSh0DQP43BoLmfQNSLH0BmrJvBm9yDQHX/ZUBMfpbB
mLTHQCHlBkFn06XBBs2pQLjrvD8VhZPB6p6EQNxtrEBoq4jBFoPyQHDa1T/BdJTBrJNzQM/5kkAq
QZ7BBIEFQZCaQ74XA7XB3O6dQKblRcBdm6fBjNMWQUwE0UCMMJDBajT3QO2GvkAeaYLBB+cLQTjQ
90Dfq6DBtrWVQDHR+0AYU5XB2LTWQOuM4D/WZa/BMrhoQDQiXb/+M6PBqEfoQGpEIcBiZbDBSsqW
QDIhL0FaILrBOnDCQCXyNEFPPbHBpc2ZQObOKEFsqqLBqZZbQAt6I0FuhKvB89FQQPd57UCsKHbB
GOuVQLr/B0EBYHnBhOjHQBVU1EDzp2jBZWaaQJjOsUCecGXBNSKDQGHvBUHQUbrBY8KrQB6Y5UDc
4rbBCLP3QBklAEEDtLHB7zX4QOQXG0GmtazBkfXOQP2rFEFqqr/BLTSDQDze/UDtj6XB+3/7QPnU
z776mYnBhILMQMc5hrvQ+YHB4APIQMQzf78q5o3B9t+FQPCVIEAA2avBntxRQOPruz+5o6LB8zii
QHKsX0Da84bB2sm7QHpek0AuRJDBy4S9QIfJPEAym57BWvdMQAy9SEDxT5PB82mRQAxdgz8Iy4/B
be5gQNYxoUB0IIPB6ORnQFdZukBgi47Br71UQG5WhkD+/aPBJsYGQTPk2kBtKZHBoNDuQNlOz0DK
eonBmZQAQeUp8kDsSprBYYS3QJXh8kBe+ZPBjNuTQBxtNr+lAKfBIcjKQMLRSj8s9K3BRS/WQFy7
z7+oTq7B+trDQHWx20CQ7orBz0uiQC5SGT86KqnBP8jVQAWh/UCp0ZvBGb2tQKQK6b+ZlqnBe6rk
QA1xor4JgrDBTm3TQJb3kj83sZDBfBerQOiuJkHXT7XB+RqQQE87IUFFSavBifGLQI0I7kANEXnB
/r2oQLUhy0AKFm/B1PmhQE71AEHWk7TBPGXkQCjhDUHAiK7BJkvDQEOAEUF1gLfBIsKbQF2YCUGm
WanBOTmhQPtqzEAAoIPBNZfaQKRSwr3D2InB6VKIQA0N5j9bXKXBwvucQJF1h0BVaI3B2B6fQNAj
H0An0ZvBqjiDQBeUZED2dpbBmorIQPpBCUFNFKXBg+SpQGuBuz/NvpPBFi2FQNodrEDsvojBJF7y
QCEU3z8faJTBtotvQA4skkA4IJ7B7/SfQK/ARMDNcKfBP80FQeiMBL7P+7TBn1EXQcTx0UBjD5DB
Vg/4QKYNvUBQhILBu2wMQSRN+0CDJ6DBlZCWQE+S/EA07pTBr9FpQIrGXb/gW6PBhevVQCVk5T8z
qa/BbRfqQBk3HsDzPLDBQ3uWQPcGK0FkG7zBpInBQMnVM0GKqrPB5UaZQEtFK0F2bqTBSmFbQDci
I0HS3qzBNEVSQJ1A7UBLenbBt+eWQMy7B0EvlXnBTT7IQGGr00B6fmjBL3maQGZ0sUCWY2XBfuuE
QIfzAUEahbnBFliuQGD34EAIurTBd2X5QJo9AEG5XrDB/fX3QKxEHEGLNa3BFEPQQD0VEEHppr/B
9j6EQL7EAEECg6TBahv9QEZrlr60LYnBmx3NQFPIjj0N04HBNbTKQJEEdb+ZmY3B0vyEQOwMIUCf
96vBKN1QQOObuj+zz6LByxOjQFVVX0CLGofBhaK7QIoAk0CloZDBzau8QKQ7PUDMxJ7BI/FMQKBf
RkDzEZPBHteRQDBPeD/jQZDB8cthQFzdoEC4O4PBZU5pQKZpukA6l47Bba9PQAFdhUBSwKPB1xMF
QbF02kCLQZPB6vDtQFnmzkDX94rBLBH7QGyj8kB7/pvBg6ezQGYO80CiPZTBs86SQEhjQ79CXqbB
M1TKQGRHMD8pvK3BiVHUQBbg3b+Ioq3BeZ7CQOlJ20BrlIvB4t2hQLx7CD9G2KjBhJ/PQIRm/0Ao
aJzBfemrQJhm8r9oz6jBpoLjQAAJ4756GrDBoEbTQJMFkT9WgpDBsdCfQMycCEHgObrB/MXOQIuF
A0GnF7fBT1iNQGL/7ED+DXnBjsKrQBPHykDorW/Bunq8QGUXJ0FNd7HB+meRQDt5EEGV6qbBwluT
QElpGkHEL7LBfFvXQF72E0GlIq7BrO6hQEiSy0DVz4PBHQ3aQC3yzL3hhonBCoWIQJEC4T8YTKXB
lBadQNBihkAnZ43BRVufQIaAHUB41JvBqo+DQDq8Y0BXl5bBONe/QMqWDEHtiqTB2tupQC+1uT9v
pZPBmn2FQB/dqkATnIjBsWXyQMvH2z+ePJTBPjhyQKUIkkDTRZ7BnnGdQNOCSMDha6bBTjYFQTgW
lr5hrrTBJ6gVQbfO0ECU65LBhV75QOC0vEBZM4TBS1IIQVpv+0ALYKLBG06SQFX6+0BbpZTB5vNn
QPNMY78JmKLBgv3VQM2Q1j+Nqa/BW6jnQDReJsAzca/B6MWdQPpoDkHshMLB+z6LQMDq9EBGRbnB
nvHRQBoS5kCNHbTBbpPkQBvrBUF75b3B0rBVQPqT60BRonXBdpWXQJZQB0Ek73nBi67LQIwD1EAt
4GnBfvGeQFn2sEBak2XBR2bGQF//LUHCK7nBBmy7QDrCM0HCXKvBmCmDQGKgG0FHHaHB/U5+QKhs
AUEM76bBvMxtQI+3I0EAdrTBU3H5QEmJF0Ft26zB8IP8QMptm75syIjBgmbMQBDooj05i4HB8hzK
QHIwd7+rN43BmNeFQCV3HUAkCazBuK9QQAHhuD9iwqLBvuGiQIlLXEAtMIfBbeO7QIf2kUBwh5DB
aQC9QH//OkAD0Z7B5rZMQJFRRkBKVZPBVqyRQCnvdj9LI5DB3EdkQD6Qn0AH5oLByPdnQEvKuECA
VI7Bm6pSQEeNhUB++KPB

>  <OMEGA_E>  (94) 
GKTsPohI9z4wcfg+KA3rPg==

>  <OMEGA_NBR>  (94) 
     39844

$$$$
50214100
     RDKit          3D

 76 80  0  0  1  0  0  0  0  0999 V2000
    8.5217    6.9385  -18.2076 C   0  0  0  0  0  0  0  0  0  0  0  0
    7.5382    6.5615  -17.2775 C   0  0  0  0  0  0  0  0  0  0  0  0
    8.1548    7.5760  -19.4016 C   0  0  0  0  0  0  0  0  0  0  0  0
    5.8136    7.4503  -18.7386 C   0  0  0  0  0  0  0  0  0  0  0  0
    6.2229    0.6693  -21.6746 C   0  0  0  0  0  0  0  0  0  0  0  0
    4.5163   -0.7784  -20.6936 C   0  0  0  0  0  0  0  0  0  0  0  0
    6.5320   -1.7506  -21.6643 C   0  0  0  0  0  0  0  0  0  0  0  0
    6.1698    6.8563  -17.5123 C   0  0  0  0  0  0  0  0  0  0  0  0
    4.9794    0.5120  -21.0256 C   0  0  0  0  0  0  0  0  0  0  0  0
    6.7946    7.8145  -19.6814 C   0  0  0  0  0  0  0  0  0  0  0  0
    6.9989   -0.4617  -21.9911 C   0  0  0  0  0  0  0  0  0  0  0  0
    5.2892   -1.9082  -21.0187 C   0  0  0  0  0  0  0  0  0  0  0  0
    7.0307    9.4175  -21.5722 C   0  0  0  0  0  0  0  0  0  0  0  0
    6.6508    1.1617  -18.0314 C   0  0  0  0  0  0  0  0  0  0  0  0
    5.2400    8.0381  -14.0428 C   0  0  0  0  0  0  0  0  0  0  0  0
    4.7576    8.6546  -15.3667 C   0  0  0  0  0  0  0  0  0  0  0  0
    6.1916    6.8557  -14.2873 C   0  0  0  0  0  0  0  0  0  0  0  0
    4.8738   10.6138  -21.8776 C   0  0  0  0  0  0  0  0  0  0  0  0
    4.2403    9.4943  -21.0159 C   0  0  0  0  0  0  0  0  0  0  0  0
    4.0772    7.5869  -16.2327 C   0  0  0  0  0  0  0  0  0  0  0  0
    5.5463    5.7970  -15.2122 C   0  0  0  0  0  0  0  0  0  0  0  0
    5.3153    8.5253  -22.9263 C   0  0  0  0  0  0  0  0  0  0  0  0
    5.9851    9.8434  -22.6261 C   0  0  2  0  0  0  0  0  0  0  0  0
    5.0440    8.2459  -21.4721 C   0  0  1  0  0  0  0  0  0  0  0  0
    5.0412    6.4099  -16.5536 C   0  0  0  0  0  0  0  0  0  0  0  0
    6.8913   -0.0436  -17.1270 C   0  0  0  0  0  0  0  0  0  0  0  0
    4.2069    1.7289  -20.5682 C   0  0  0  0  0  0  0  0  0  0  0  0
    4.9650    4.2423  -17.7395 C   0  0  0  0  0  0  0  0  0  0  0  0
    4.9827    2.4430  -19.4414 C   0  0  1  0  0  0  0  0  0  0  0  0
    4.1364    3.5513  -18.8125 C   0  0  2  0  0  0  0  0  0  0  0  0
    6.4120    8.3344  -20.9161 N   0  0  0  0  0  0  0  0  0  0  0  0
    5.3447    1.4634  -18.3980 N   0  0  0  0  0  0  0  0  0  0  0  0
    4.2159    5.4087  -17.2518 N   0  0  0  0  0  0  0  0  0  0  0  0
    7.9697   10.0964  -21.1717 O   0  0  0  0  0  0  0  0  0  0  0  0
    7.6083    1.7470  -18.5263 O   0  0  0  0  0  0  0  0  0  0  0  0
    3.7691    4.5074  -19.8090 O   0  0  0  0  0  0  0  0  0  0  0  0
    8.1979   -0.3097  -22.5971 F   0  0  0  0  0  0  0  0  0  0  0  0
    4.8405   -3.1440  -20.7042 F   0  0  0  0  0  0  0  0  0  0  0  0
    9.5627    6.7370  -18.0025 H   0  0  0  0  0  0  0  0  0  0  0  0
    7.8263    6.0424  -16.3753 H   0  0  0  0  0  0  0  0  0  0  0  0
    8.9137    7.8836  -20.1057 H   0  0  0  0  0  0  0  0  0  0  0  0
    4.7717    7.6295  -18.9595 H   0  0  0  0  0  0  0  0  0  0  0  0
    6.5788    1.6569  -21.9284 H   0  0  0  0  0  0  0  0  0  0  0  0
    3.5686   -0.8991  -20.1900 H   0  0  0  0  0  0  0  0  0  0  0  0
    7.1269   -2.6182  -21.9088 H   0  0  0  0  0  0  0  0  0  0  0  0
    5.7682    8.8080  -13.4612 H   0  0  0  0  0  0  0  0  0  0  0  0
    4.3675    7.6834  -13.4745 H   0  0  0  0  0  0  0  0  0  0  0  0
    4.0396    9.4598  -15.1520 H   0  0  0  0  0  0  0  0  0  0  0  0
    5.6200    9.0677  -15.9104 H   0  0  0  0  0  0  0  0  0  0  0  0
    7.1131    7.2288  -14.7581 H   0  0  0  0  0  0  0  0  0  0  0  0
    6.4363    6.3873  -13.3226 H   0  0  0  0  0  0  0  0  0  0  0  0
    4.1421   11.0429  -22.5780 H   0  0  0  0  0  0  0  0  0  0  0  0
    5.2935   11.4137  -21.2501 H   0  0  0  0  0  0  0  0  0  0  0  0
    4.3789    9.6890  -19.9422 H   0  0  0  0  0  0  0  0  0  0  0  0
    3.1679    9.3809  -21.2326 H   0  0  0  0  0  0  0  0  0  0  0  0
    3.2022    7.1947  -15.6938 H   0  0  0  0  0  0  0  0  0  0  0  0
    3.7504    8.0479  -17.1764 H   0  0  0  0  0  0  0  0  0  0  0  0
    6.2935    5.0217  -15.4371 H   0  0  0  0  0  0  0  0  0  0  0  0
    4.6929    5.3426  -14.6877 H   0  0  0  0  0  0  0  0  0  0  0  0
    4.4016    8.6262  -23.5304 H   0  0  0  0  0  0  0  0  0  0  0  0
    5.9858    7.7903  -23.3955 H   0  0  0  0  0  0  0  0  0  0  0  0
    6.4003   10.3692  -23.4985 H   0  0  0  0  0  0  0  0  0  0  0  0
    4.5269    7.2942  -21.2803 H   0  0  0  0  0  0  0  0  0  0  0  0
    7.9722   -0.2290  -17.0421 H   0  0  0  0  0  0  0  0  0  0  0  0
    6.4745    0.1579  -16.1292 H   0  0  0  0  0  0  0  0  0  0  0  0
    6.4003   -0.9287  -17.5577 H   0  0  0  0  0  0  0  0  0  0  0  0
    4.0750    2.4182  -21.4153 H   0  0  0  0  0  0  0  0  0  0  0  0
    3.2212    1.4166  -20.1928 H   0  0  0  0  0  0  0  0  0  0  0  0
    5.1505    3.5463  -16.9082 H   0  0  0  0  0  0  0  0  0  0  0  0
    5.9251    4.5693  -18.1652 H   0  0  0  0  0  0  0  0  0  0  0  0
    5.8953    2.8869  -19.8656 H   0  0  0  0  0  0  0  0  0  0  0  0
    3.2414    3.1072  -18.3522 H   0  0  0  0  0  0  0  0  0  0  0  0
    4.6034    0.9869  -17.9253 H   0  0  0  0  0  0  0  0  0  0  0  0
    3.5119    5.0866  -16.6189 H   0  0  0  0  0  0  0  0  0  0  0  0
    3.7817    5.8523  -18.0358 H   0  0  0  0  0  0  0  0  0  0  0  0
    3.2513    4.0812  -20.4818 H   0  0  0  0  0  0  0  0  0  0  0  0
  1  2  2  0
  1  3  1  0
  2  8  1  0
  3 10  2  0
  4  8  2  0
  4 10  1  0
  5  9  2  0
  5 11  1  0
  6  9  1  0
  6 12  2  0
  7 11  2  0
  7 12  1  0
  8 25  1  0
  9 27  1  0
 10 31  1  0
 11 37  1  0
 12 38  1  0
 13 23  1  0
 13 31  1  0
 13 34  2  0
 14 26  1  0
 14 32  1  0
 14 35  2  0
 15 16  1  0
 15 17  1  0
 16 20  1  0
 17 21  1  0
 18 19  1  0
 18 23  1  0
 19 24  1  0
 20 25  1  0
 21 25  1  0
 22 23  1  0
 22 24  1  0
 24 31  1  0
 25 33  1  0
 27 29  1  0
 28 30  1  0
 28 33  1  0
 29 30  1  0
 29 32  1  0
 30 36  1  0
  1 39  1  0
  2 40  1  0
  3 41  1  0
  4 42  1  0
  5 43  1  0
  6 44  1  0
  7 45  1  0
 15 46  1  0
 15 47  1  0
 16 48  1  0
 16 49  1  0
 17 50  1  0
 17 51  1  0
 18 52  1  0
 18 53  1  0
 19 54  1  0
 19 55  1  0
 20 56  1  0
 20 57  1  0
 21 58  1  0
 21 59  1  0
 22 60  1  0
 22 61  1  0
 23 62  1  6
 24 63  1  6
 26 64  1  0
 26 65  1  0
 26 66  1  0
 27 67  1  0
 27 68  1  0
 28 69  1  0
 28 70  1  0
 29 71  1  6
 30 72  1  1
 32 73  1  0
 33 74  1  0
 33 75  1  0
 36 76  1  0
M  CHG  1  33   1
M  END
>  <OMEGA_C>  (95) 
2FgIQYoI3kA1qZHB8jjxQHL30UA+OIrB8XkCQVBu8kCJNpvBqAi6QDJp7kCZ6JXBtyHHQAdUKz+p
Za3BiIWQQMFDR7+PjKXB9wXRQOoU4L9/UK3BLG/FQIZm20AjGYzBP1efQHUTAz9pNKjBUW3ZQAAQ
+kBsc53BBvffQGhf7L607a/BxUCpQD5A9L9QJqjBfvvgQOKtFkHhk6zBs9PUQF+zlD9PQJDB7q2n
QPWbAEFhr2DBiD6YQDl5CkET3nXBdyHGQMhh20D2mGTBy/WbQAjSKUFsBa/B67CHQMjoF0GRIKjB
yniCQMTH8kCX3IHBl3uxQBCBuUA0ZXPBkxaqQIdnCEH2aLfB1IW/QGN+HUEwArXB12ihQEnvA0Hf
xqvBiVGhQBYezUC9bYTBu4XcQMBvMr0rBInBjp6GQNZL3T/Gi6TBIOGeQA7Bh0B76o3BAHKfQNlZ
HEDxh5vBPV2EQBZJY0D8f5bB3y7NQMtZBUEYVKfBcQerQK9Ruz8yL5PB7uiGQBgUrUC/A4rBfgf/
QMqKIUGYX6nBgnfzQASe3z/zNZTBODlxQIg8kEDVeJ7BZioDQWaLnr7TxrTBmeWaQN02ScA7oqXB
xAAZQTOV10AJBZDBHXH6QPdawUCUAIPBgp4OQZ5G/ECQ2KDBr7GYQAwl9EANrZfBIIXSQNET1D9S
ba/BiGNkQHAoZr8ahaHB3Q/kQHuQJ8AzRa/Bw5S4QGbtDEH4YFfBWMKLQKXe9UCol1fBJESBQC1b
F0GzbnLBO9ezQHAVEUEIkX7Bl57jQElS50APIWzBkPbNQH9kzEB9KVXBZ4yEQOevMEHVn7TBb2Sp
QLOeNkEjAKrBGiCMQFQGG0GUiZ/Bb75KQFgYFkFN3KnBOvBMQA475kDKGXvB5QVwQDbEAEFVaYnB
mmTJQKKxoEBi/nbBDCyWQGn2qkDXAGvBu9mMQMoECkFKPrzB94u/QIhK+UABKrvB9s7MQBfoJUHz
/LvBV9yQQBNq6UAXPqrBoRz/QNyEar4xVojB2i7PQIi0IT6kCIHBOM/MQLG+bb8YdozBomaCQCfD
GkCNUqvBDChOQNpTtT/ViqHB2NCkQA72YkDtQ4fBuJq9QJU3kkA/UpHBj6a8QLHDOECx7J7BxnNP
QIvcRkBi0ZLB7U6TQGeofD8LZ4/BQsJgQK3FokCZ84TBkwdyQEBGu0BfSZDBhBVQQNCYgkDL2qPB
BHwIQSbS3EDb1pHBRNnxQL7y0EBTR4rBCYUCQV7D8kBWLJvB5sy6QLKW8UADSZXBSHWTQKhrTb/F
oKXBBifHQGLdPz/ubq3B/jPVQLEY07+8sK3B3EfGQEs43ECFzYvBjvufQHI/BD+4IKjB5J3ZQLaq
/EDABJ3BUvqtQDAn8b+KdKjBO8vhQGgOqr6eKrDBYtbiQFxlFEEvxq3BXhjUQBk8kj8GDZDB2kep
QD63/kChs1/BiGaZQBzTCUG2gnTBjl7HQNnT2EBARGTBMe2hQHzTKkHJ9rDBzwiLQDXCHEERhKjB
aUKDQGo88kDwU4HBzDiyQJnwt0BvaXPBvlemQKyPBkGckbbBoP3AQNGiGkFTN7bBTkGfQMGSBkGh
qKrBwhuiQID/zEBrQ4TBHejbQESLpb2XBInBtauFQFbr1z/mL6TBFI2fQPzZiEDrQo7BZ3qeQGEB
G0A0RpvBfKmDQICMYkB3TZbB2PXLQGr+BkFzu6bB9DmqQGZZuj/n1pLB5q2HQIHYrUCgJ4rBrHwD
QYbPG0Gf56zBgKPyQMRr2z9TLZTBvCJsQCSjjkBfX57BW/yhQM9wScB5DKbB6t4DQUTO1r3YB7XB
khcZQU4H1UDgdZDBASz7QPEbv0BZQYPBf4gOQbsM/EDq7qDBRaaZQHOp+UDrqJbBvxVrQAhve78+
jKHBU63QQHwO4T9HZa/BhaDpQCWtHsBPzq/Bbp26QKdgC0G7NFbBQIWNQO8d80DEkFbBjI2CQNug
FkGimHDBvc+0QMykEEHuMX3BdtLkQA/w5EDnw2vB9VjPQLzyyED/ElXBpBmLQNBHMUGS1bbBSGuz
QKwVOEFmLK3ByNiRQHxQIkFjV6DBzHJQQIh9HEGi0KnBoyBPQCUf5UDW/nnBopRwQKzjAEFmu4jB
hc/JQF0Rn0BiaXfBgNWWQPhAqUCBJWvBO6aIQFZXCEHJNbvBOxC4QOD28EBOcbnBhDvOQIPRH0Fv
8r3B0+iLQCw88kDcsafBh2/+QJgMlL5/oojB77bPQAiy6T1L6YDBrjDLQLUOc7/Jb4zB3yt/QJxC
GEDj2qrBmgtOQD0aqT9v/6DBxMGnQKGZZkDnnIfBmw+9QCrXk0CsMZLB1KW7QCb6NkBTvp7BJetP
QCd7RkDUKJLBPZOSQJSPfz+E4o7BjrVhQD8eo0AMO4XBV1N0QCjivED+WpDBBzxJQEwfgECdbaPB

>  <OMEGA_E>  (95) 
NN/GPliuxz4=

>  <OMEGA_NBR>  (95) 
     42565

$$$$
50214102
     RDKit          3D

 75 78  0  0  1  0  0  0  0  0999 V2000
    8.2920    7.9474  -18.2580 C   0  0  0  0  0  0  0  0  0  0  0  0
    7.4837    7.2116  -17.3781 C   0  0  0  0  0  0  0  0  0  0  0  0
    7.7131    8.6934  -19.2958 C   0  0  0  0  0  0  0  0  0  0  0  0
    5.4988    8.0185  -18.5363 C   0  0  0  0  0  0  0  0  0  0  0  0
    5.4516   -0.1337  -21.7010 C   0  0  0  0  0  0  0  0  0  0  0  0
    4.4059   -1.1318  -19.7309 C   0  0  0  0  0  0  0  0  0  0  0  0
    5.8028   -2.4979  -21.1942 C   0  0  0  0  0  0  0  0  0  0  0  0
    6.0713    7.2484  -17.4917 C   0  0  0  0  0  0  0  0  0  0  0  0
    4.6244   -0.0102  -20.5628 C   0  0  0  0  0  0  0  0  0  0  0  0
    6.3053    8.7451  -19.4517 C   0  0  0  0  0  0  0  0  0  0  0  0
    6.0322   -1.3785  -22.0213 C   0  0  0  0  0  0  0  0  0  0  0  0
    4.9932   -2.3734  -20.0465 C   0  0  0  0  0  0  0  0  0  0  0  0
    6.2457   10.6659  -21.0370 C   0  0  0  0  0  0  0  0  0  0  0  0
    6.6032    1.1492  -17.7372 C   0  0  0  0  0  0  0  0  0  0  0  0
    5.5393   11.3207  -22.2322 C   0  0  0  0  0  0  0  0  0  0  0  0
    5.1936   10.2176  -23.2494 C   0  0  0  0  0  0  0  0  0  0  0  0
    5.4176    7.3740  -13.6992 C   0  0  0  0  0  0  0  0  0  0  0  0
    4.7308    8.2295  -14.7804 C   0  0  0  0  0  0  0  0  0  0  0  0
    6.4824    6.4534  -14.3176 C   0  0  0  0  0  0  0  0  0  0  0  0
    4.3319    9.0894  -22.6211 C   0  0  0  0  0  0  0  0  0  0  0  0
    4.0935    7.3305  -15.8609 C   0  0  0  0  0  0  0  0  0  0  0  0
    5.8939    5.5832  -15.4620 C   0  0  0  0  0  0  0  0  0  0  0  0
    4.3881    9.0447  -21.0698 C   0  0  0  0  0  0  0  0  0  0  0  0
    5.1431    6.4128  -16.5677 C   0  0  0  0  0  0  0  0  0  0  0  0
    6.8009    0.3301  -16.4600 C   0  0  0  0  0  0  0  0  0  0  0  0
    4.0010    1.3318  -20.2130 C   0  0  0  0  0  0  0  0  0  0  0  0
    5.1782    4.4168  -18.1001 C   0  0  0  0  0  0  0  0  0  0  0  0
    4.9553    2.2098  -19.3581 C   0  0  1  0  0  0  0  0  0  0  0  0
    4.2657    3.5473  -18.9853 C   0  0  2  0  0  0  0  0  0  0  0  0
    5.7145    9.4602  -20.5295 N   0  0  0  0  0  0  0  0  0  0  0  0
    5.3059    1.4846  -18.1172 N   0  0  0  0  0  0  0  0  0  0  0  0
    4.3676    5.4723  -17.4358 N   0  0  0  0  0  0  0  0  0  0  0  0
    7.1608   11.2761  -20.4920 O   0  0  0  0  0  0  0  0  0  0  0  0
    7.5680    1.3942  -18.4544 O   0  0  0  0  0  0  0  0  0  0  0  0
    3.9424    4.2819  -20.1679 O   0  0  0  0  0  0  0  0  0  0  0  0
    6.8079   -1.4995  -23.1236 F   0  0  0  0  0  0  0  0  0  0  0  0
    4.7768   -3.4454  -19.2493 F   0  0  0  0  0  0  0  0  0  0  0  0
    9.3650    7.9395  -18.1358 H   0  0  0  0  0  0  0  0  0  0  0  0
    7.9425    6.6111  -16.6065 H   0  0  0  0  0  0  0  0  0  0  0  0
    8.3470    9.2339  -19.9832 H   0  0  0  0  0  0  0  0  0  0  0  0
    4.4242    8.0530  -18.6379 H   0  0  0  0  0  0  0  0  0  0  0  0
    5.6398    0.7261  -22.3268 H   0  0  0  0  0  0  0  0  0  0  0  0
    3.7870   -1.0371  -18.8508 H   0  0  0  0  0  0  0  0  0  0  0  0
    6.2476   -3.4508  -21.4402 H   0  0  0  0  0  0  0  0  0  0  0  0
    4.6180   11.8174  -21.8939 H   0  0  0  0  0  0  0  0  0  0  0  0
    6.2054   12.0617  -22.6983 H   0  0  0  0  0  0  0  0  0  0  0  0
    4.6349   10.6673  -24.0834 H   0  0  0  0  0  0  0  0  0  0  0  0
    6.1288    9.7796  -23.6284 H   0  0  0  0  0  0  0  0  0  0  0  0
    5.8988    8.0388  -12.9666 H   0  0  0  0  0  0  0  0  0  0  0  0
    4.6598    6.7580  -13.1930 H   0  0  0  0  0  0  0  0  0  0  0  0
    3.9470    8.8430  -14.3121 H   0  0  0  0  0  0  0  0  0  0  0  0
    5.4780    8.8857  -15.2507 H   0  0  0  0  0  0  0  0  0  0  0  0
    7.2968    7.0719  -14.7227 H   0  0  0  0  0  0  0  0  0  0  0  0
    6.8797    5.7912  -13.5343 H   0  0  0  0  0  0  0  0  0  0  0  0
    3.2859    9.2422  -22.9255 H   0  0  0  0  0  0  0  0  0  0  0  0
    4.6892    8.1240  -23.0086 H   0  0  0  0  0  0  0  0  0  0  0  0
    3.3309    6.6950  -15.3869 H   0  0  0  0  0  0  0  0  0  0  0  0
    3.6178    7.9713  -16.6180 H   0  0  0  0  0  0  0  0  0  0  0  0
    6.7189    5.0348  -15.9402 H   0  0  0  0  0  0  0  0  0  0  0  0
    5.1834    4.8673  -15.0232 H   0  0  0  0  0  0  0  0  0  0  0  0
    3.6179    9.7207  -20.6702 H   0  0  0  0  0  0  0  0  0  0  0  0
    4.1803    8.0161  -20.7398 H   0  0  0  0  0  0  0  0  0  0  0  0
    7.8617    0.0568  -16.3596 H   0  0  0  0  0  0  0  0  0  0  0  0
    6.4925    0.9280  -15.5897 H   0  0  0  0  0  0  0  0  0  0  0  0
    6.1904   -0.5834  -16.5123 H   0  0  0  0  0  0  0  0  0  0  0  0
    3.7642    1.8672  -21.1443 H   0  0  0  0  0  0  0  0  0  0  0  0
    3.0752    1.1564  -19.6453 H   0  0  0  0  0  0  0  0  0  0  0  0
    5.6559    3.7863  -17.3358 H   0  0  0  0  0  0  0  0  0  0  0  0
    5.9526    4.8876  -18.7235 H   0  0  0  0  0  0  0  0  0  0  0  0
    5.8643    2.4234  -19.9396 H   0  0  0  0  0  0  0  0  0  0  0  0
    3.3487    3.3190  -18.4224 H   0  0  0  0  0  0  0  0  0  0  0  0
    4.5591    1.2165  -17.5085 H   0  0  0  0  0  0  0  0  0  0  0  0
    3.6784    5.0225  -16.8678 H   0  0  0  0  0  0  0  0  0  0  0  0
    3.9144    6.0092  -18.1474 H   0  0  0  0  0  0  0  0  0  0  0  0
    3.3791    3.7562  -20.7237 H   0  0  0  0  0  0  0  0  0  0  0  0
  1  2  2  0
  1  3  1  0
  2  8  1  0
  3 10  2  0
  4  8  2  0
  4 10  1  0
  5  9  2  0
  5 11  1  0
  6  9  1  0
  6 12  2  0
  7 11  2  0
  7 12  1  0
  8 24  1  0
  9 26  1  0
 10 30  1  0
 11 36  1  0
 12 37  1  0
 13 15  1  0
 13 30  1  0
 13 33  2  0
 14 25  1  0
 14 31  1  0
 14 34  2  0
 15 16  1  0
 16 20  1  0
 17 18  1  0
 17 19  1  0
 18 21  1  0
 19 22  1  0
 20 23  1  0
 21 24  1  0
 22 24  1  0
 23 30  1  0
 24 32  1  0
 26 28  1  0
 27 29  1  0
 27 32  1  0
 28 29  1  0
 28 31  1  0
 29 35  1  0
  1 38  1  0
  2 39  1  0
  3 40  1  0
  4 41  1  0
  5 42  1  0
  6 43  1  0
  7 44  1  0
 15 45  1  0
 15 46  1  0
 16 47  1  0
 16 48  1  0
 17 49  1  0
 17 50  1  0
 18 51  1  0
 18 52  1  0
 19 53  1  0
 19 54  1  0
 20 55  1  0
 20 56  1  0
 21 57  1  0
 21 58  1  0
 22 59  1  0
 22 60  1  0
 23 61  1  0
 23 62  1  0
 25 63  1  0
 25 64  1  0
 25 65  1  0
 26 66  1  0
 26 67  1  0
 27 68  1  0
 27 69  1  0
 28 70  1  6
 29 71  1  1
 31 72  1  0
 32 73  1  0
 32 74  1  0
 35 75  1  0
M  CHG  1  32   1
M  END
>  <OMEGA_C>  (96) 
8asEQUdR/kBtEJLByXrvQEDF5kBaBovB9NH2QCAYC0HmXZrBZ/avQJ9LAEFoSpTBgnOuQMrzCL6Z
m63B/PyMQFvgkL/U2J3B0rC5QHzdH8DOjanB3EfCQLvy50AU74vBa/uTQGjAJ7yvgKTBasXJQPbr
C0ENnZvBoQfBQNVzsL+bK7DBNcifQAzlF8AvX6DB5NzHQIqnKkG1S6jBpU3TQIUakz+95Y3BCEKx
QJwhNUF227HBEzKmQCB7I0HH/rnBLF2tQB3460C7L1vBEWOXQBOsA0FhfGzBbG/PQEiCzkAMFWXB
pp6KQFFuEUH597TBkP2CQIOT6kAhxn3Blpq8QMepskCAZHfBLGuMQOW2EEELj6jBEpSkQEE1zUCP
ioTBVqHZQNAFqT4broPB+QeAQKh3qj9ItKHBbLOlQGtWjUASzZDBz5GeQJZsDUBY3ZrBnICIQCYG
Y0Dp4ZfB/Ny2QA5dF0FVPKTB48mpQNwIvj/675DBx8OLQLEcr0CZfIvB/yTlQNxqNEG376PBGy3y
QLV1sj+nopPBHVB8QBwFiUDVV6HBitrZQMzuv78I/bjBnduYQP+AXMCl/pnBFdcVQbEQ/kAdFpHB
oij+QDeO00AO2oTBR40FQQS+E0Gi3Z/BzJKNQPDYAEFvGpXB8Hi0QHbiOT9FnbLB2V5yQHi/hL+G
zpbBHezHQKLaXMCEhavBfcaTQBIUPUGiJq/Bu5LGQLL8QEEHlrXBGFGUQCetKkHcqsDBzx7EQB15
HEEGB73BmMK8QNaeAEEyd0/BEB2VQIRB2ECDFlPBD5x8QM98DUFD/mTBgkuvQMgrDkH1AnTBX3/p
QFdN4kA+kGvBNybcQClRuUCejFjBo0xSQC/gE0FmZ7fBMw6WQNP7AUGqEbjBYS1VQKg91kCmMHbB
GIpnQIEU/0Cc8YTB8wDXQCQdoUD5Cn/BQN6lQIvAm0D4XnDB74pnQPGHG0GNXKXBpcSFQA5CAEER
66XBG5P7QJKsaD1+4ILBvsLPQN6PbT9ob3nB5BfGQMNZFb8hGYTBTuhwQN4A7z9+J6nBq9BEQC4G
lD+pKZ3B6vy0QNFSckClr4rBwXu+QCtnnEC0yZXB9ae7QOAYG0BKhJ/BUVBWQDJqVED7YJPBRuSR
QMK2mz+CEYzBO2trQKe4oEAo8YbBVoZ6QEVLwEDdLZHB70JYQC1mcEATyqXB

>  <OMEGA_E>  (96) 
aGQvPw==

>  <OMEGA_NBR>  (96) 
     44105

$$$$
50167950
     RDKit          3D

 64 66  0  0  1  0  0  0  0  0999 V2000
    6.3154    0.6924  -21.7147 C   0  0  0  0  0  0  0  0  0  0  0  0
    4.6731   -0.9449  -20.9401 C   0  0  0  0  0  0  0  0  0  0  0  0
    7.1668    7.4050  -17.8359 C   0  0  0  0  0  0  0  0  0  0  0  0
    6.7762   -1.6850  -21.9263 C   0  0  0  0  0  0  0  0  0  0  0  0
    6.8654    8.5283  -19.9019 C   0  0  0  0  0  0  0  0  0  0  0  0
    5.0722    0.3888  -21.1224 C   0  0  0  0  0  0  0  0  0  0  0  0
    7.7440    8.2564  -18.8827 C   0  0  0  0  0  0  0  0  0  0  0  0
    7.1735   -0.3442  -22.1018 C   0  0  0  0  0  0  0  0  0  0  0  0
    5.5215   -1.9823  -21.3534 C   0  0  0  0  0  0  0  0  0  0  0  0
    5.8421    7.1225  -18.0507 C   0  0  0  0  0  0  0  0  0  0  0  0
    6.5755    1.3116  -17.8912 C   0  0  0  0  0  0  0  0  0  0  0  0
    4.9117    7.4844  -14.3129 C   0  0  0  0  0  0  0  0  0  0  0  0
    4.4147    8.3080  -15.5091 C   0  0  0  0  0  0  0  0  0  0  0  0
    6.0459    6.5467  -14.7358 C   0  0  0  0  0  0  0  0  0  0  0  0
    3.8421    7.3736  -16.5738 C   0  0  0  0  0  0  0  0  0  0  0  0
    5.6163    5.6364  -15.8947 C   0  0  0  0  0  0  0  0  0  0  0  0
    4.9066    6.3870  -17.0842 C   0  0  0  0  0  0  0  0  0  0  0  0
    6.8000    0.3162  -16.7551 C   0  0  0  0  0  0  0  0  0  0  0  0
   10.1184    7.5563  -18.8209 C   0  0  0  0  0  0  0  0  0  0  0  0
    4.1953    1.4923  -20.6419 C   0  0  0  0  0  0  0  0  0  0  0  0
    9.1603    8.7562  -18.8170 C   0  0  0  0  0  0  0  0  0  0  0  0
    4.9133    4.2414  -18.1890 C   0  0  0  0  0  0  0  0  0  0  0  0
    4.9638    2.2936  -19.5894 C   0  0  1  0  0  0  0  0  0  0  0  0
    4.1103    3.4604  -19.1688 C   0  0  2  0  0  0  0  0  0  0  0  0
    5.2984    1.4271  -18.4357 N   0  0  0  0  0  0  0  0  0  0  0  0
    4.1466    5.4209  -17.8524 N   0  0  0  0  0  0  0  0  0  0  0  0
    7.4847    2.0664  -18.2210 O   0  0  0  0  0  0  0  0  0  0  0  0
    3.8353    4.2945  -20.2964 O   0  0  0  0  0  0  0  0  0  0  0  0
    8.3734   -0.0489  -22.6481 F   0  0  0  0  0  0  0  0  0  0  0  0
    5.1312   -3.2645  -21.1923 F   0  0  0  0  0  0  0  0  0  0  0  0
    5.3213    7.7876  -19.5963 S   0  0  0  0  0  0  0  0  0  0  0  0
    6.6047    1.7214  -21.8694 H   0  0  0  0  0  0  0  0  0  0  0  0
    3.7199   -1.1702  -20.4851 H   0  0  0  0  0  0  0  0  0  0  0  0
    7.7257    7.0398  -16.9869 H   0  0  0  0  0  0  0  0  0  0  0  0
    7.4332   -2.4863  -22.2309 H   0  0  0  0  0  0  0  0  0  0  0  0
    7.1006    9.1207  -20.7738 H   0  0  0  0  0  0  0  0  0  0  0  0
    5.2793    8.1668  -13.5324 H   0  0  0  0  0  0  0  0  0  0  0  0
    4.0785    6.8868  -13.9148 H   0  0  0  0  0  0  0  0  0  0  0  0
    3.6318    9.0043  -15.1740 H   0  0  0  0  0  0  0  0  0  0  0  0
    5.2539    8.8775  -15.9352 H   0  0  0  0  0  0  0  0  0  0  0  0
    6.9087    7.1497  -15.0551 H   0  0  0  0  0  0  0  0  0  0  0  0
    6.3328    5.9219  -13.8771 H   0  0  0  0  0  0  0  0  0  0  0  0
    3.0061    6.8056  -16.1397 H   0  0  0  0  0  0  0  0  0  0  0  0
    3.4767    7.9752  -17.4192 H   0  0  0  0  0  0  0  0  0  0  0  0
    6.5128    5.1362  -16.2897 H   0  0  0  0  0  0  0  0  0  0  0  0
    4.9197    4.8823  -15.4995 H   0  0  0  0  0  0  0  0  0  0  0  0
    7.8229    0.4276  -16.3661 H   0  0  0  0  0  0  0  0  0  0  0  0
    6.0779    0.5114  -15.9487 H   0  0  0  0  0  0  0  0  0  0  0  0
    6.6608   -0.7078  -17.1321 H   0  0  0  0  0  0  0  0  0  0  0  0
   11.1569    7.9156  -18.7729 H   0  0  0  0  0  0  0  0  0  0  0  0
    9.9105    6.9185  -17.9491 H   0  0  0  0  0  0  0  0  0  0  0  0
    9.9738    6.9749  -19.7434 H   0  0  0  0  0  0  0  0  0  0  0  0
    3.9259    2.1467  -21.4840 H   0  0  0  0  0  0  0  0  0  0  0  0
    3.2811    1.0734  -20.1959 H   0  0  0  0  0  0  0  0  0  0  0  0
    9.3662    9.3945  -19.6888 H   0  0  0  0  0  0  0  0  0  0  0  0
    9.3029    9.3382  -17.8945 H   0  0  0  0  0  0  0  0  0  0  0  0
    5.0956    3.6399  -17.2863 H   0  0  0  0  0  0  0  0  0  0  0  0
    5.8753    4.5321  -18.6363 H   0  0  0  0  0  0  0  0  0  0  0  0
    5.8919    2.6726  -20.0423 H   0  0  0  0  0  0  0  0  0  0  0  0
    3.1811    3.1010  -18.7026 H   0  0  0  0  0  0  0  0  0  0  0  0
    4.5620    0.8918  -18.0220 H   0  0  0  0  0  0  0  0  0  0  0  0
    3.3504    5.1415  -17.3156 H   0  0  0  0  0  0  0  0  0  0  0  0
    3.8414    5.8557  -18.6996 H   0  0  0  0  0  0  0  0  0  0  0  0
    3.3224    3.8093  -20.9321 H   0  0  0  0  0  0  0  0  0  0  0  0
  1  6  2  0
  1  8  1  0
  2  6  1  0
  2  9  2  0
  3  7  1  0
  3 10  2  0
  4  8  2  0
  4  9  1  0
  5  7  2  0
  5 31  1  0
  6 20  1  0
  7 21  1  0
  8 29  1  0
  9 30  1  0
 10 17  1  0
 10 31  1  0
 11 18  1  0
 11 25  1  0
 11 27  2  0
 12 13  1  0
 12 14  1  0
 13 15  1  0
 14 16  1  0
 15 17  1  0
 16 17  1  0
 17 26  1  0
 19 21  1  0
 20 23  1  0
 22 24  1  0
 22 26  1  0
 23 24  1  0
 23 25  1  0
 24 28  1  0
  1 32  1  0
  2 33  1  0
  3 34  1  0
  4 35  1  0
  5 36  1  0
 12 37  1  0
 12 38  1  0
 13 39  1  0
 13 40  1  0
 14 41  1  0
 14 42  1  0
 15 43  1  0
 15 44  1  0
 16 45  1  0
 16 46  1  0
 18 47  1  0
 18 48  1  0
 18 49  1  0
 19 50  1  0
 19 51  1  0
 19 52  1  0
 20 53  1  0
 20 54  1  0
 21 55  1  0
 21 56  1  0
 22 57  1  0
 22 58  1  0
 23 59  1  6
 24 60  1  1
 25 61  1  0
 26 62  1  0
 26 63  1  0
 28 64  1  0
M  CHG  1  26   1
M  END
>  <OMEGA_C>  (97) 
YhfKQC5CMT/At63BMYqVQCTkcb9chafBqFblQKb17EDer47BiNbYQHev178maa/BirHbQPpzCEEi
N5/BdE+iQIAOxz6T+qjBwM73QGUaBEGwD5fBZI3lQOQ/sL6M0LDBy6+wQKm6/b/L06rBRPK6QB3r
40DmZ5DBUmrSQAzipz85IY/BviydQFaA70CtAWXBe0WNQMXtBEFNJXjB7nfBQKZ+0UDJxWvBUuR1
QMb060A3l4TBU7izQHZdtECDUH7B7AKdQE1izEBerIjB7pnZQDTjoT54CobBw+QhQU7N8UAikZbB
2z+GQMgCvz+JIqXBiZASQU0ZDEEqiZbBtjmdQJm5h0ARg5HBpNeeQOzKEkAdt5zBvIeDQFJ3XUDJ
WZnB04ypQHSrtj9LfJPBkbCEQMN3rUCv0Y7BsILvQD5ABECjxJHB2nR1QC9siUAIX6LBWPkFQYAs
SL1cL7XBkzKkQHXtUMDaianBY0iqQAw0+UAsxZzB+VnTQMJV3D9+9K7BiBNuQG7Jlb9j4aPB3Tj3
QF9G4UAw5YfBq9ztQGgfH8De2LHB9TfjQGnuEUG+MKbBHfCoQBGrAkGChFjBxYKCQGpg3EDlol7B
nW9oQHUREEGGyHLB8h+oQD8KDkFq9n7BOhTdQDrK5ECZ4XDBdKbKQDiAvUC9CF7BM2RAQErH2UAD
HoHBSoJeQJg0/0CMWovB2mjQQCBcpEA/UYLBeW6dQGg7nEAi/nfBMlX6QDvz2j7B7YLB9H3CQDzr
Aj+0LX/BQSXVQGsxNb94DonByIIyQTlM/UDzLpbBfJEeQUBk3UC+l4/B2pQfQR4y30Bz8p3BA0J7
QGxjCUAx36vBqf1RQM1miT9IkaHBFtwVQQ5QFkGogp3BuNgUQSBpFUHzJ4/B3w6jQK3zaEBCSorB
PQK8QI8GkUA+F5XBPIq8QIAMK0CQVqDBQ5dLQJJ3RkDTnpXB8vuRQNZPZD8ELZDBGm1WQGmHpEBg
horBOtp1QCBiu0DSmJXB7aFUQPPLc0DvdKfBAZmVQHg+Xr+g4KjBe4TPQDr4Mj+w2azB1r/nQEwG
40AeMY/BrznaQEor2L9laK/BMCHjQDDLBEHueZ/BVWulQAyP4z7PTanBDBP+QGK6+kAOoZfBpdCv
QKJx978DEKzB9h7qQDB9vb72va/BfDy8QJAR4kC8n5DBpTTTQGjCrD8SQ4/BOJWcQP5S9kBSy2bB
twyOQH9zB0HJzHrB3Vq/QCCu1UDoeWzBNqN1QBLG70Anh4XB7sSvQJDOtkCt2H3Bq8CbQEbQzUDg
8IjB68vaQCC9nz6MgIbBGusbQSIDEEE1wo3B+HWJQG4GyT9vzKXBjMUWQaAzAUGYO5fBLTubQCTC
h0C8IpHBpPSfQET7FUAj3JzBHbCCQGXoXEBLLpnBGr2qQJr3tz/94ZPBFC6DQHxwrkDP4o7BwZzv
QFumCUAWdZHB72lwQMyMiUDeA6LBVPqfQDsaTMBM/6vBW1sJQahAAr7O7bLBG12uQDym+0BQsZzB
LtRqQNIxh7+GHKbBhTDbQB9f2z+TVa3Bx9r3QGPn00AkjIjBF4vuQEDcIMBSt7HBI0rtQJa7DUGj
a6bBpmepQCqRBkGeBVvBRfmAQExx5UCz3l/BPJ5rQNlfE0E4QHbBGrqpQKmaD0F3/4DBQc/bQETG
5kD4VHLBRL/HQGdLw0D6EF7BQiE+QGCy30AM54HBxdpgQB7kAEH4oIzBkybLQAmBo0C2n4HBrFiX
QJqzoUCG03bB2xr7QFNm4j4JK4PBPu/CQH9S4z6aHoDB/M7XQBSvMr9q6InBCUUtQUDiEkGvbI3B
mIMTQc5VH0G2zI7BSqYWQUxrCEEBRYbBRWiDQFaDD0CVmazBjcZVQBMLlj8Z0qLBHScfQVG640AY
M5bBagQcQavHCEHMup7Bii6fQM31aUAhwonBMuS6QIgVkECrXpTBp4K9QE48MkCuFKDB/mxLQEbC
QUBkg5XBI46TQIBHWj8J9pDB2ZZSQI2gpkB2m4rB7iR0QJh/u0BT05XB+RxRQDJZc0CnLqfBiLWR
QCkwVr9IPqrBWtDRQLtBDT+7qqvBaujlQP786kAI2JDBNhrWQCpW678zGK/BvovRQCPzB0G9mqDB
nKSlQLjo1T47g6nBqt/yQPx4A0EvwpnBXtKpQEAF+7/dKK3BEB7qQO2QFL+TR67BeKG6QMa74kAp
2JDBzmrPQLBKsj+afY7BxjyqQPQj7ECYnmTBSvGUQLdrA0FwR3bBwmfNQJSfz0BwBG7ByWl/QMc9
6UDwRoPB3nm7QAlSskArg3/BBl2gQK6YykCub4jBDFzVQHy+nD6XDIbBYOERQQhDHUF9laPBUmOL
QBIizj9rg6bBMP8PQTAXDEHJxprBKoGdQPbihkBjgpHBHP+gQMZ3FkAbTp3B2neEQNgrX0AmypnB
uEWpQFKptj9+QpTBFL+FQJsBrEBdJI7BOJztQJTnB0BRxZDBx0p4QNPei0BQhaLBAjuWQJ8ISsBt
M67Bl0gKQUIR6b7kErDBvIKiQHBw+EBtSJzB5+dfQEJmb78KkajBs9DgQHkHwz9STavBMuH7QCph
3kB794rBwbDoQLlxLcAANLHB6mjUQPKMEUGcwKfBqGe4QL/gAEGyq1jBwO+RQMXj10Av5lzBlDV5
QPDuDUFTIG/BJlOtQKs1DUFbXH7BvpHmQNv840Dt7XTByB3bQEvUu0DyLWHBlNlNQKdD1kAMa37B
17BhQAzI/EBslYnBLnLWQJxookCGxoPBSvKmQBAcmkAC6HfB71v2QD6lrD4o/4LBpd6+QHrP8z7W
1X7BdR/PQEq4Lb/EpYnB8n4iQZIAI0ERA6TBk0YNQXNMFkG/VKvBMjUHQYy8KkGhsaHBKZKIQOYM
EkBtcq3BWaJWQJUipD+XAqTBU8AUQfk0E0FHFpPBtdEaQcGJ/UBluZzB2wyjQEGMY0AVm4rBgG28
QDzukECX4ZTBUoy/QFXnMEBqKqDBkDNNQLj4RUAdXJbBBhKSQOonSj9CLJLBJwJcQKWaokAhUonB
4upyQEdQukDhmpTBdFBYQEB7ekC22afB3LZuQHbUOb/fM6/BFHy1QN6zI78yb6PBeo7nQOCv5UCI
B4zBbXaxQKLLFcD0T7HBm5LgQJkdCEG9n5vB9ZeNQFjm0L3utabBQdv8QMkIAEEzP5TB1FKJQDAy
679fgrTBuXTHQLyx3r8/wKjBOa67QAca5ED2UI3BulLWQDKZ3j/lUo/BSdubQHwZ6UBja1/B3WuK
QD23AkG7m3HBQ/++QPrUykA2smfBAi5xQB6c6UDi+IHBLDuvQJmJr0Ce13rBEeSaQGC7ykDGrIbB
KgzlQN3bkz9bpoTBUEccQaPBFkGkGo3B6qdxQJYKiz94AKHBIUsWQds3BEEKopTBNGWeQPkojECX
CJPBDXWZQGZAB0AhYpzB5wuDQHQXXkAqO5rBG52rQP44yj8TU5LBF5GDQH0MrkBLOY7BfQbvQFGT
G0C2lZTBMMR3QKeqhEDbJaTBTB9oQFADG8AfsbzBffPtQKnLDcClk6XB71msQLyTAEE+sJjB9Oww
QHwSs77Uo7HB/T3GQKvUSL4Ww5zBLXT4QL1f1UD1sIXBbk+/QAXkS8ClbbXBap/pQA7lEUHiYKLB
BE+pQDCu/UAi01LBtH+BQBLz1UCmwVjBG1lhQHXvDEH9UGvBAnCkQHrRDEHxz3fBuaXaQFUG3kDv
2GzBfbnIQPxOtUCJpVrBOHQ7QCuA1kBMxn3BqTtaQGvD/kD9ZIjBRKrKQE2/nUAVroDBkgaXQOzU
mEA6+nTBvCEDQToXuz/tE4PB9zvQQDhIwz8wZ3zBtD3jQHQCaz0M+4TBnaItQY2SGUHWe43BBcAT
QYNUJUHnlY/BWbkXQSyfEkHr24TB3CpIQNH4zT8ZwKbBlaRKQGw8Mz8bXJrB/+IeQcRi60DoIpLB
q+kaQblmCEHk3JzBx+GsQHe4cUCFoIzBxs+3QBcEm0CQ25fB6yazQO8WEUBbRaLBC8hIQPefUUBj
MpbBVDOYQGHciT8OZo3B+j1XQDgKoECXPIrBeytvQBr8v0AZIpTB2gZWQMA/ZkC4s6jBAUuSQGEn
eb58tbPBIfLHQJ8For6YjqXBCrnpQN095kABao3BqVnSQApxz79yy7XBoHDoQPmRA0G0fZ7Bm9Gg
QMT1Rj7wlKnBfxABQce++kBmIZbBTgerQCmckr+mzLnB3rvgQPUnmr8XqavBtDi+QNEg5UB0YY/B
nA/UQJNU1T+tKI3BFnOXQMTi/UDJ3mXBXo+JQMxVCkGSl3rBFzW6QCw63ECdemrBZ5xxQJj580Ad
iYXBoKqrQD26u0BCvnvB6MqaQA1P0UAkYYjBWajfQB68ST/rk4PBkuYeQWcLFUFLvo/BJc+EQPO3
kj8VC6PBhBcZQXWnAEEtAZbBWUaeQISLi0ATKJLBFwWfQDWaCUDnFZzBuPqDQJNOWUDAIJnB6bas
QA+Tuz97KpLBrNqDQE/JsEAL+Y7BbrbuQKV0HECyzJDBSYZuQDnTgkAhnKLBCwadQCRHx78Vf8PB
9SwDQR051L90t6fB/QCzQJN7+0DT8JvByTtoQDoD6z3Uy7bB987SQGo1nbwLtZ3B8k/4QLR42UAK
Q4bB3GnlQCFpE8A7f7rBUfPzQAgYC0Gat6XBmzGkQJbdCkG+mVrBywN3QOX37UCBtl7BMwpgQKPb
FUHE3HbBbCilQH/fEkEytIDBAz3XQFaf7ECdH3DBDWHBQFrQykAUnFvBq9I4QI8D5EAYM4LBZcRf
QDCRAkFo44zBehLHQD47p0DX3H/Bn9yRQGrzp0BA/3TBh2cAQXeZfj+jH4HBF+HJQN8VgT89yXnB
hp7cQPDuir5x0oXBnl8wQQgoF0E0vY/BTVAXQRj5IkG/jpPBeCkZQTmVE0HYdIfBrS9hQOxB3D8u
l6jB3MpgQBAhDD+/tZ3Bq78gQV+P5UD6LJLBgOYeQY8rAkHhRp7BHDipQKFQdUC874rBSiq6QM/O
lkBEupbBckK7QBpiHkDYpqDByWdPQKxUREARl5TBPmWYQE6nUD+c1I7BANBVQKMEpkBgv4rBQady
QMsfv0B9n5XBQOhNQHJqYEDZBafB

>  <OMEGA_E>  (97) 
SD8MPyRABT9ewRA/YD1mP8BERT8=

>  <OMEGA_NBR>  (97) 
      5433

$$$$
50167971
     RDKit          3D

 60 62  0  0  1  0  0  0  0  0999 V2000
    6.5994   10.0934  -21.8483 C   0  0  0  0  0  0  0  0  0  0  0  0
    6.6421    9.3251  -20.9093 C   0  0  0  0  0  0  0  0  0  0  0  0
    5.5517    7.7832  -19.1581 C   0  0  0  0  0  0  0  0  0  0  0  0
    4.7265   -0.9296  -21.1198 C   0  0  0  0  0  0  0  0  0  0  0  0
    6.4711    0.7164  -21.5897 C   0  0  0  0  0  0  0  0  0  0  0  0
    6.9220   -1.6536  -21.8959 C   0  0  0  0  0  0  0  0  0  0  0  0
    7.8918    8.1618  -19.1412 C   0  0  0  0  0  0  0  0  0  0  0  0
    6.7145    8.4416  -19.7873 C   0  0  0  0  0  0  0  0  0  0  0  0
    5.1624    0.4051  -21.1561 C   0  0  0  0  0  0  0  0  0  0  0  0
    5.6029   -1.9574  -21.4994 C   0  0  0  0  0  0  0  0  0  0  0  0
    7.3576   -0.3144  -21.9318 C   0  0  0  0  0  0  0  0  0  0  0  0
    5.8830    7.0931  -18.0084 C   0  0  0  0  0  0  0  0  0  0  0  0
    6.7022    1.4665  -18.0103 C   0  0  0  0  0  0  0  0  0  0  0  0
    4.8589    7.5052  -14.3259 C   0  0  0  0  0  0  0  0  0  0  0  0
    4.3245    8.3161  -15.5162 C   0  0  0  0  0  0  0  0  0  0  0  0
    5.9990    6.5805  -14.7666 C   0  0  0  0  0  0  0  0  0  0  0  0
    3.7834    7.3779  -16.5919 C   0  0  0  0  0  0  0  0  0  0  0  0
    5.5331    5.6398  -15.8826 C   0  0  0  0  0  0  0  0  0  0  0  0
    4.8626    6.3910  -17.0857 C   0  0  0  0  0  0  0  0  0  0  0  0
    7.0593    0.4684  -16.9120 C   0  0  0  0  0  0  0  0  0  0  0  0
    4.2393    1.4913  -20.6942 C   0  0  0  0  0  0  0  0  0  0  0  0
    4.8318    4.2339  -18.1864 C   0  0  0  0  0  0  0  0  0  0  0  0
    4.9491    2.3311  -19.6289 C   0  0  1  0  0  0  0  0  0  0  0  0
    4.0139    3.4039  -19.1243 C   0  0  2  0  0  0  0  0  0  0  0  0
    5.4039    1.4674  -18.5150 N   0  0  0  0  0  0  0  0  0  0  0  0
    4.0911    5.4321  -17.8649 N   0  0  0  0  0  0  0  0  0  0  0  0
    7.5204    2.3190  -18.3406 O   0  0  0  0  0  0  0  0  0  0  0  0
    3.5702    4.2194  -20.2109 O   0  0  0  0  0  0  0  0  0  0  0  0
    5.1780   -3.2385  -21.4715 F   0  0  0  0  0  0  0  0  0  0  0  0
    8.6286   -0.0167  -22.2827 F   0  0  0  0  0  0  0  0  0  0  0  0
    7.6192    7.1543  -17.7509 S   0  0  0  0  0  0  0  0  0  0  0  0
    6.5621   10.7643  -22.6681 H   0  0  0  0  0  0  0  0  0  0  0  0
    4.5486    7.8357  -19.5550 H   0  0  0  0  0  0  0  0  0  0  0  0
    3.7214   -1.1637  -20.8012 H   0  0  0  0  0  0  0  0  0  0  0  0
    6.7877    1.7468  -21.6574 H   0  0  0  0  0  0  0  0  0  0  0  0
    7.5987   -2.4486  -22.1723 H   0  0  0  0  0  0  0  0  0  0  0  0
    8.8609    8.5205  -19.4551 H   0  0  0  0  0  0  0  0  0  0  0  0
    5.2324    8.1971  -13.5566 H   0  0  0  0  0  0  0  0  0  0  0  0
    4.0428    6.8978  -13.9077 H   0  0  0  0  0  0  0  0  0  0  0  0
    3.5166    8.9782  -15.1715 H   0  0  0  0  0  0  0  0  0  0  0  0
    5.1398    8.9217  -15.9387 H   0  0  0  0  0  0  0  0  0  0  0  0
    6.8368    7.1907  -15.1350 H   0  0  0  0  0  0  0  0  0  0  0  0
    6.3319    5.9823  -13.9056 H   0  0  0  0  0  0  0  0  0  0  0  0
    2.9414    6.8058  -16.1750 H   0  0  0  0  0  0  0  0  0  0  0  0
    3.4326    7.9781  -17.4444 H   0  0  0  0  0  0  0  0  0  0  0  0
    6.4054    5.0855  -16.2591 H   0  0  0  0  0  0  0  0  0  0  0  0
    4.8032    4.9328  -15.4616 H   0  0  0  0  0  0  0  0  0  0  0  0
    8.0766    0.6727  -16.5468 H   0  0  0  0  0  0  0  0  0  0  0  0
    6.3450    0.5664  -16.0812 H   0  0  0  0  0  0  0  0  0  0  0  0
    7.0134   -0.5536  -17.3163 H   0  0  0  0  0  0  0  0  0  0  0  0
    3.9671    2.1309  -21.5467 H   0  0  0  0  0  0  0  0  0  0  0  0
    3.3299    1.0446  -20.2658 H   0  0  0  0  0  0  0  0  0  0  0  0
    5.0327    3.6646  -17.2668 H   0  0  0  0  0  0  0  0  0  0  0  0
    5.7843    4.5045  -18.6655 H   0  0  0  0  0  0  0  0  0  0  0  0
    5.8233    2.8132  -20.0908 H   0  0  0  0  0  0  0  0  0  0  0  0
    3.1657    2.9483  -18.5924 H   0  0  0  0  0  0  0  0  0  0  0  0
    4.7383    0.8471  -18.0999 H   0  0  0  0  0  0  0  0  0  0  0  0
    3.2809    5.1735  -17.3388 H   0  0  0  0  0  0  0  0  0  0  0  0
    3.8086    5.8699  -18.7184 H   0  0  0  0  0  0  0  0  0  0  0  0
    3.0502    3.6954  -20.8089 H   0  0  0  0  0  0  0  0  0  0  0  0
  1  2  3  0
  2  8  1  0
  3  8  1  0
  3 12  2  0
  4  9  2  0
  4 10  1  0
  5  9  1  0
  5 11  2  0
  6 10  2  0
  6 11  1  0
  7  8  2  0
  7 31  1  0
  9 21  1  0
 10 29  1  0
 11 30  1  0
 12 19  1  0
 12 31  1  0
 13 20  1  0
 13 25  1  0
 13 27  2  0
 14 15  1  0
 14 16  1  0
 15 17  1  0
 16 18  1  0
 17 19  1  0
 18 19  1  0
 19 26  1  0
 21 23  1  0
 22 24  1  0
 22 26  1  0
 23 24  1  0
 23 25  1  0
 24 28  1  0
  1 32  1  0
  3 33  1  0
  4 34  1  0
  5 35  1  0
  6 36  1  0
  7 37  1  0
 14 38  1  0
 14 39  1  0
 15 40  1  0
 15 41  1  0
 16 42  1  0
 16 43  1  0
 17 44  1  0
 17 45  1  0
 18 46  1  0
 18 47  1  0
 20 48  1  0
 20 49  1  0
 20 50  1  0
 21 51  1  0
 21 52  1  0
 22 53  1  0
 22 54  1  0
 23 55  1  6
 24 56  1  1
 25 57  1  0
 26 58  1  0
 26 59  1  0
 28 60  1  0
M  CHG  1  26   1
M  END
>  <OMEGA_C>  (98) 
9S3TQLp+IUFGya7B54vUQMgzFUE/RqfBQaexQJ8P+UDQQ5nBbj+XQFr7bb9e9ajBJxPPQKxnNz+s
t6zBq4DdQHKp07/JKq/BfYn8QPCWAkEvIZnBz9zWQPgQB0F4TJ7BTTKlQERuzz6jP6nBUEuzQJiM
+r/S/qvBrXHrQIj4oL5CdK/BX0G8QK/64kAcEZDBI3jWQOi0uz8OFZDBHHybQOEq8EAGN2XBXmKK
QLIOBUFdQnjBr/e/QMKT0kDRQ2zBCiNyQO8X7EA/vITBYw+xQIV5tED4Hn7BkJqbQAmDzECRr4jB
veXhQOTO7z68S4fBUKiHQGjhvj+7jaXBTZ6aQFF8h0CufZHBU1+eQHgwFUALCJ3BFXKAQOzYWUCK
/pjB3OysQJzTuz+pHpTBWOqCQMzTrUA/647BvabwQNJqFECNuZLB6n1kQCsFh0Dfr6HBMbKlQJZD
T8COxavBog4KQQDBiLzhQrLBsdDzQC7w5EDMAY7BZ/zRQHs6LEFdWLXBKI6RQL+9+kCbcJzBKCxu
QGjzlL/qaKbBqjTZQMeV3z9YQq3B4CjzQGm1HMDaYLHBccYNQdZTCEH9o5vBa2+nQFknA0Ho51jB
d16BQF+63ED4hV7BkA9hQMemD0FnvnLBFXmkQGC/DkETBX/BT8faQCka5kDSKHLBhp7KQNduv0A8
fV7BGUA8QHPJ2UBzZoHB/q5bQEFM/0ApjovBSPnMQHG8okC1EoLBmrOZQFDZnUCSYnfBqDkBQXU2
LD/DX4TBQwrLQGIAET9SpoDBum3gQDC3Db/eh4rBfOR9QPlfCEC0X6zBLx1VQAy2hT9eIKLBDwyh
QCyJakB8IorBwhi5QDElkEAIU5XBmVi6QOoLNEACuqDBD5pKQGqxPEA0vZTBkKCXQDrdWD+UzJDB
jPpRQH2NpUDltYrBPMBzQFzWu0BHv5XBmTZDQP2BbECTeKbBSKrTQHAxIkGE0q7BemzVQJT1FUHi
SqfBB3myQMkG+kDFiJnBK/bJQPL0WT9cSK7BhuKcQNokcr85TKfBQCThQEUPu7+Szq/BORv9QN6K
A0Fw85jB+8XXQPbUB0GbUZ7B91CkQJyC1z6DFKnBQK/oQJCls70JerHBjwK7QEKt8b+h0arBCny8
QP/040BUTZDBtJfVQDTWtT/6v4/B1NmWQEM080DCnWbBMSOHQPgSBkGzRnrBkFO8QEfT1UBmjmzB
ECxvQFEW7UAZtIXByWGvQLWztkDCVn7BFzKbQMqizUCmGonBTc7gQEi54z5Hy4bBMnaFQAAbtz/T
2KTBJVScQOtsiEB52pHBLUKdQMcxEkBLm5zB7oGAQOirWEBJnpjB79qrQAq8tz/1oZPBPr2DQGs0
rkBzUo/BtRXwQIgnEECLnJLB4rtgQIXJhEBCZ6HBh6kGQXgLqj47I7bBHUazQBMMTcAwYKnBo83z
QBNg5kDg7I3BKiHSQDrgLEHBZbXBg6qSQBBP+0AA5pzBKBPPQFqH8z9nzK/BySyAQIp9or97PqPB
X5X4QJMRDMBhWbLBrhYOQXCHCUG0Q5vB1mihQHr+BEFrSFrBgNV4QDyt30DnT2DB105ZQB6qEEHo
jnXB5pWhQIK7D0HvXIDBElXXQAl66UAgHXLBthPGQBV7w0A0WV7BbsY4QLu52kAuhYLBY2BaQAVx
/0CLv4zBcwfMQGsqpUA9zYHBjtaXQG/9n0BL13fBjsUAQWV3JD89+YPBiTTKQJT0Ej+UIIDBb77e
QP0BFr/g0onBc4NzQNM2BEBhaKvBGnpUQGspbD9/BqHBLVelQEEzb0CddYrB1mO5QIlVkUCSSpbB
ZEa5QKkcL0AuhaDBSqpMQGizPUDNy5PBaGqWQGDIVT+UI5DB2OZTQANLpUBnJIvBbvV0QM/gu0Cs
LJbBaVU9QLtYZkDovKXB/zkqQV9m+kDOSZXBlOgWQe1Z+0BwMZbB81noQHPu4kCVj47BSs+UQL3D
Y7+Rv6nBzLfQQIFaKD8z6avBDmbaQKLU2r/aoK/BNLHmQPbiBUFoh57B6CoAQZ8y+kA9v5bBy6Wl
QK6D0T6oF6nBQhGvQFIO+b8MH63BQD/rQOr3z75Q9q7BK/u8QNs640CeQZDBtDjUQEJdrT/pa4/B
jyKaQN2a9EDXTWbBylaMQMoBB0HwL3rBC0q9QOdg1EAg+WvBfD10QFeZ70DZh4XBcXKuQBg7tkBB
zX3B4YWbQL8bzkBT8IjBYfjcQPa3mT6R3YbBdzuJQARnwz++g6XBEzSbQJQ4iECVUpHB7oqfQKQ8
FUDauJzBWg6CQIHqW0CTEpnBdzCrQMr2uD+ss5PBJXKDQJM3r0BsM4/BQB/wQFXqCkAYq5HBMNds
QEEniEBL+6HBvYCeQA/6S8AwAK7BpmkKQaToMb5SRrHBPwaxQDdn/0AaHJzBiBs7QYuR+UBlf5TB
6Ej3QPMX00Ch2YfBZpdnQC+Qib9VqqfBJindQJob1T/PtqvBHLHuQP3dIcDuD7LBZBryQKpID0Hh
MaXB7FemQAZ4BUF2JVrBdqJ8QNtM40Da3V/BdmdnQK25EkFOo3XBHzioQKdvD0G2bIDB1eLZQAzU
5UBGYHHB0jbFQMlrwUDQrl3BlSY8QDAQ30BYL4LBrsNgQKogAUGxlYzBjgDKQNP+okAchYHBcZaV
QLv9oECzSHfBpoj9QO4t3j4ms4PBEKrFQKaz0T4zVIDBEQLaQBvtM7+aZorBM0mCQOLZC0CEWKzB
3URWQAROjj/yYaLBzbufQE+EbEAA14nBVZq6QPskkECJxZTB4MK8QArtMUBuEqDBd0pLQDWtQEAA
JpXBoDWUQI10YD/qfJDBx55RQGKjp0A7MYvBPjV3QJmpvEDSMJbBjMpMQC5cb0Dg9KbBxgcoQey2
A0FDYZfB6qgUQWmhAkEiq5fBiKPnQMTX5UCncY/BuuvMQLBqLj/dgK3BlfGWQGwWbr8mo6fB8l/a
QO5A2r9OOa/BPynfQIg0CkE3Qp7BufT7QP+LAEGnfpfBNmukQHyAyz6aD6nBGgnoQDDxvb4rgLDB
8sCxQPqb/b/O0arBUcO7QFTC5UDlC5DBm73RQCEfqz8S4Y7BXwahQDJa6kAEzWPBjgGOQNYwA0Gr
n3XBuoPFQKLQzkAulmzBFiR3QFBf6kBau4PBl2O1QIK2skAs637B/8idQNqPzEBJjojB543ZQLBY
cT7Ko4bBhRWIQGufwT+6g6XBsxWdQAdLiEDnwpHBj0efQL6jE0D405zBo/KCQB7ZXECKVZnBN5ip
QKX0tT9jrZPBakqFQEehrkChDI/B5LLvQGKoAkC1yJHB3LtvQHSsiEAgRKLBQHwHQdA3yb0XrLTB
ElSkQNJnUMDdp6nB1NuqQJ7sAkHf3ZrB1fQ4QWqpBEG3IJfBsWb5QMCX00BsmonBb//WQKtK2j9B
l67BizpwQFzrkb/EHKTBkQrvQLwZIcAVn7HBnKLnQPzKFEH7v6TBT2qtQA4I/0Dl+VbBN+CHQMNl
1UCcVF3BA8JoQBY3DUHG6G7BokSnQPh8DUFGRXzBazXfQJPB40BtgnLB7QTSQJVNukD8uF/BsvxC
QHLD1kDcbYDBB8xdQEwo/0CQForBRvXQQKwYokArBYPBB/CeQIIFm0A8VHjBa4L7QN5sbj4AUoTB
D6XFQCUQ1z56EX/BNiDRQIM4Pb9BIYrBteuAQIbgCkD+VqzBbiRUQBM+jT8zSaLBhXWjQIM6a0CJ
eYrBB5e7QBUikUAzjpXBGhO9QGi5LUB0MaDBdXVMQBX9Q0D6TZXBCi2SQGq0WD9awJDB1ytWQGUZ
pkC6+4rBkmx5QN5PvUCL05XB3U9OQDghcUCSLKfBYDcjQfieD0GDm5rBiKcQQWykCkEjMpnBzIjm
QL9e7UBW7Y7BwhaPQBmsrL4Gb7PBZ/zCQPX/4r7q5KTBCNDLQHKK77+bgbTBM73UQGjyC0FT+53B
An71QCvkBEE1kZfBfJ+dQN7iBT5OZanB3yymQAOJqr8V+rjB3iLaQHJotr9Rc6rBOJu6QO956EAI
3I7BGGPRQC4Y0T/BNI3B0suoQK7G7ECFFGHBnsiQQJV4A0HULHLBxhvMQJ490UC1VGvBQjd6QCAg
6UDBm4HBTCm6QD8QtEDoRH3BnWOfQP/fzEAMRIfBRZrZQMPcTD+1KYPBBViDQEjylz/xdaPBdROi
QOZEjUAoUZPB0BGfQD+FCkDwoZzBnGuGQJBLXkC1KZrBfCqqQOzNvz/+a5LBHyOHQGn0rUC9C47B
gUHuQO67FEDt65DB32R3QIL4hEDn16PBHDWYQI2/4r8rmcLBSSH+QBgp+L98DqbBlamjQFUtAkHb
mpnBYGwzQdL3E0EK15vBNqX7QDkJ3kDxQonBa1lkQCBMjT2637bBlsLNQMrz+L1QGZ3BfKHdQF0P
KMDbyrjBmOjYQBo5FkFr2aTBCmi3QLdpAUHCd1XBevGRQOO910BtzFjBwixuQKiuDEGGcGrB21Cn
QFGFDkH193nBtJXkQJ555kCqNHLBb7baQHsPvUBZ5V7BOz5LQO8P1EAHaXvBNs1ZQCDU/EDhq4fB
STPVQNtJpECZqILBGHelQJi2m0D343XBv8v6QB4jcz9OfYDB/IDDQLGyjj+vlXnBKWnUQJsSh75J
+oTBytBiQJxM4z/IY6nB9olZQDYzLD+bG57BytOyQBDpdECnK43BDa65QPVFnUC8eZjB6GG8QCYy
GkDhF6HB1HpSQFkmTkCarJXB8gyUQOSVaT+nCY/BaaNjQK7unkDxaInBRYpvQAFzvkA7uZPBGSVV
QAbGZUCPM6jB

>  <OMEGA_E>  (98) 
qNSVPijcpz78JQs/bBAPP3bsUz8=

>  <OMEGA_NBR>  (98) 
     10610

$$$$
50167937
     RDKit          3D

 67 69  0  0  1  0  0  0  0  0999 V2000
    5.7437    7.3646  -19.4224 C   0  0  0  0  0  0  0  0  0  0  0  0
    6.5080    0.6905  -21.6739 C   0  0  0  0  0  0  0  0  0  0  0  0
    4.8137   -0.9398  -21.0069 C   0  0  0  0  0  0  0  0  0  0  0  0
    6.9795   -1.6948  -21.8385 C   0  0  0  0  0  0  0  0  0  0  0  0
    7.2892    7.1839  -17.5538 C   0  0  0  0  0  0  0  0  0  0  0  0
    8.1006    7.9303  -19.6264 C   0  0  0  0  0  0  0  0  0  0  0  0
    5.9809    7.0316  -18.0665 C   0  0  0  0  0  0  0  0  0  0  0  0
    6.8237    7.8283  -20.2065 C   0  0  0  0  0  0  0  0  0  0  0  0
    5.2211    0.3990  -21.1711 C   0  0  0  0  0  0  0  0  0  0  0  0
    7.3889   -0.3558  -21.9978 C   0  0  0  0  0  0  0  0  0  0  0  0
    5.6902   -1.9855  -21.3480 C   0  0  0  0  0  0  0  0  0  0  0  0
    6.6187    1.3868  -17.9956 C   0  0  0  0  0  0  0  0  0  0  0  0
    4.2088    7.4025  -16.1559 C   0  0  0  0  0  0  0  0  0  0  0  0
    5.0776    6.2283  -15.6833 C   0  0  0  0  0  0  0  0  0  0  0  0
    4.8567    6.4807  -17.1886 C   0  0  0  0  0  0  0  0  0  0  0  0
    6.9223    0.2935  -16.9759 C   0  0  0  0  0  0  0  0  0  0  0  0
    7.4504   10.6761  -20.9684 C   0  0  0  0  0  0  0  0  0  0  0  0
    4.9822   10.1770  -21.1838 C   0  0  0  0  0  0  0  0  0  0  0  0
    6.4594   10.2274  -23.2229 C   0  0  0  0  0  0  0  0  0  0  0  0
    6.6376    8.2968  -21.6327 C   0  0  0  0  0  0  0  0  0  0  0  0
    4.3013    1.5206  -20.7570 C   0  0  0  0  0  0  0  0  0  0  0  0
    4.7294    4.2457  -18.0855 C   0  0  0  0  0  0  0  0  0  0  0  0
    4.9640    2.3519  -19.6434 C   0  0  1  0  0  0  0  0  0  0  0  0
    4.0119    3.4380  -19.1518 C   0  0  2  0  0  0  0  0  0  0  0  0
    6.3884    9.8353  -21.7315 C   0  0  0  0  0  0  0  0  0  0  0  0
    8.2960    7.6249  -18.3333 N   0  0  0  0  0  0  0  0  0  0  0  0
    5.3389    1.4587  -18.5320 N   0  0  0  0  0  0  0  0  0  0  0  0
    4.0104    5.4976  -17.8501 N   0  0  0  0  0  0  0  0  0  0  0  0
    9.4241    7.7645  -17.8480 O   0  0  0  0  0  0  0  0  0  0  0  0
    7.4715    2.2298  -18.2544 O   0  0  0  0  0  0  0  0  0  0  0  0
    3.6724    4.2909  -20.2469 O   0  0  0  0  0  0  0  0  0  0  0  0
    8.6257   -0.0742  -22.4657 F   0  0  0  0  0  0  0  0  0  0  0  0
    5.2952   -3.2695  -21.1991 F   0  0  0  0  0  0  0  0  0  0  0  0
    4.7564    7.2660  -19.8489 H   0  0  0  0  0  0  0  0  0  0  0  0
    6.8152    1.7169  -21.8096 H   0  0  0  0  0  0  0  0  0  0  0  0
    3.8303   -1.1626  -20.6198 H   0  0  0  0  0  0  0  0  0  0  0  0
    7.6540   -2.4990  -22.0926 H   0  0  0  0  0  0  0  0  0  0  0  0
    7.4853    6.9427  -16.5195 H   0  0  0  0  0  0  0  0  0  0  0  0
    8.9349    8.2585  -20.2286 H   0  0  0  0  0  0  0  0  0  0  0  0
    3.1198    7.3757  -16.0031 H   0  0  0  0  0  0  0  0  0  0  0  0
    4.5703    8.4347  -16.0384 H   0  0  0  0  0  0  0  0  0  0  0  0
    6.0623    6.4181  -15.2313 H   0  0  0  0  0  0  0  0  0  0  0  0
    4.6118    5.3591  -15.1959 H   0  0  0  0  0  0  0  0  0  0  0  0
    7.9426    0.4270  -16.5873 H   0  0  0  0  0  0  0  0  0  0  0  0
    6.2028    0.3562  -16.1462 H   0  0  0  0  0  0  0  0  0  0  0  0
    6.8400   -0.6913  -17.4590 H   0  0  0  0  0  0  0  0  0  0  0  0
    8.4530   10.4378  -21.3532 H   0  0  0  0  0  0  0  0  0  0  0  0
    7.2459   11.7467  -21.1166 H   0  0  0  0  0  0  0  0  0  0  0  0
    7.4037   10.4389  -19.8953 H   0  0  0  0  0  0  0  0  0  0  0  0
    4.2255    9.5852  -21.7197 H   0  0  0  0  0  0  0  0  0  0  0  0
    4.9396    9.9407  -20.1103 H   0  0  0  0  0  0  0  0  0  0  0  0
    4.7817   11.2484  -21.3316 H   0  0  0  0  0  0  0  0  0  0  0  0
    5.7171    9.6473  -23.7909 H   0  0  0  0  0  0  0  0  0  0  0  0
    6.2456   11.3011  -23.3302 H   0  0  0  0  0  0  0  0  0  0  0  0
    7.4664   10.0135  -23.6106 H   0  0  0  0  0  0  0  0  0  0  0  0
    7.5431    8.0490  -22.2059 H   0  0  0  0  0  0  0  0  0  0  0  0
    5.7739    7.7713  -22.0663 H   0  0  0  0  0  0  0  0  0  0  0  0
    4.0991    2.1665  -21.6242 H   0  0  0  0  0  0  0  0  0  0  0  0
    3.3557    1.0994  -20.3852 H   0  0  0  0  0  0  0  0  0  0  0  0
    4.7692    3.6655  -17.1518 H   0  0  0  0  0  0  0  0  0  0  0  0
    5.7525    4.4691  -18.4223 H   0  0  0  0  0  0  0  0  0  0  0  0
    5.8670    2.8297  -20.0512 H   0  0  0  0  0  0  0  0  0  0  0  0
    3.1126    2.9728  -18.7218 H   0  0  0  0  0  0  0  0  0  0  0  0
    4.6309    0.8703  -18.1414 H   0  0  0  0  0  0  0  0  0  0  0  0
    3.2150    5.3122  -17.2732 H   0  0  0  0  0  0  0  0  0  0  0  0
    3.7065    5.8681  -18.7278 H   0  0  0  0  0  0  0  0  0  0  0  0
    3.2232    3.7861  -20.9147 H   0  0  0  0  0  0  0  0  0  0  0  0
  1  7  2  0
  1  8  1  0
  2  9  2  0
  2 10  1  0
  3  9  1  0
  3 11  2  0
  4 10  2  0
  4 11  1  0
  5  7  1  0
  5 26  2  0
  6  8  2  0
  6 26  1  0
  7 15  1  0
  8 20  1  0
  9 21  1  0
 10 32  1  0
 11 33  1  0
 12 16  1  0
 12 27  1  0
 12 30  2  0
 13 14  1  0
 13 15  1  0
 14 15  1  0
 15 28  1  0
 17 25  1  0
 18 25  1  0
 19 25  1  0
 20 25  1  0
 21 23  1  0
 22 24  1  0
 22 28  1  0
 23 24  1  0
 23 27  1  0
 24 31  1  0
 26 29  1  0
  1 34  1  0
  2 35  1  0
  3 36  1  0
  4 37  1  0
  5 38  1  0
  6 39  1  0
 13 40  1  0
 13 41  1  0
 14 42  1  0
 14 43  1  0
 16 44  1  0
 16 45  1  0
 16 46  1  0
 17 47  1  0
 17 48  1  0
 17 49  1  0
 18 50  1  0
 18 51  1  0
 18 52  1  0
 19 53  1  0
 19 54  1  0
 19 55  1  0
 20 56  1  0
 20 57  1  0
 21 58  1  0
 21 59  1  0
 22 60  1  0
 22 61  1  0
 23 62  1  6
 24 63  1  1
 27 64  1  0
 28 65  1  0
 28 66  1  0
 31 67  1  0
M  CHG  3  26   1  28   1  29  -1
M  END
>  <OMEGA_C>  (99) 
xcy3QNCq60AfYZvBRkHQQBrEMD8tZK3BmAmaQDaZcL8LDqjBsVffQOrt2L9Vta7ByEDpQJXi5UA2
bozBCpwBQUPF/UDpAp3BPWO/QAgD4UAdiJDBqFvaQF+B+kDcpqHBWBOnQBRQzD5xXqnB/nHsQD0t
tr56+6/B5xW2QHYm/r+tyKrBUMzTQGSBsT/u9o/Bwa6GQOTg7EBPP4HBx3uiQExOx0DV7nrB22mb
QIVhz0AngonBNoPdQIhJlj64zofBymnuQBrRKkFZv6fBC26fQAjVIkFWeKnBdLPOQGqjI0GSyLnB
L2fUQIi/BEHDD63BjKSJQDmjwj9nDqbBdleXQADdh0Air5DB19ieQN+FFkC7JZ3BKGGAQKIHXED7
NpnBd23MQDBdHUES2q3BU7wEQSP/80CLqpLBgdiqQDe1uj90QZTBjVWAQAzsr0AXzY7BSckWQaN2
+EC7yI7BHxbvQPu0DkDzCJLBDwhrQBJPiUCY+aHBqgIKQYjvl73JubPBbXKpQCo/UcDGl6nBmjSY
QM6C6EB+yp7BfxbaQFnE2z8Ieq7BCCR1QF3PlL9Y9aTB7O30QKXvH8CRvbDBbIfvQGAq3kAAKITB
cPUOQfsiBEEa1KHBWqtHQJMF7EBDBoDBC0CSQIL0BkGvToDBaP7BQGFhzUBIs3PBCpSTQPB9q0Bx
InPB4Sn+QFaj2j6zsoTBo33GQAVgtj5iK4HBGOHaQAj5ML8CrIvBgj8HQRkBJ0FR06rBC97nQFHy
O0HJ7qjBR+vsQMMFJ0GaKZ/BtDeHQNtcGUHxwa3BzhCeQAkNH0Hg4aDBkwOZQJf5M0EPp6rB4fK2
QGlbGkG5U77B+9vHQDDRNEFIpLrBf+zuQGM3IEGC4rzBUGHxQKbIAEHIpbHBAMS4QNqu+EDIh7DB
IyyDQO6nCkBQ/qzBesNWQK+3jD/SFKPBaJ2YQGyXakD5NonBhxS4QO4Cj0DTYJPBeL67QCkZNUDn
aKDB9jRHQFtCPkAvxpXBtDCUQAPJXj+SIZHBTMJNQOz9qUBxL4rB8TdtQE3Hu0Cg0pXBiklOQCBP
ckA4UafBz7S3QFul60B9TJvB74LQQBQXLT9deq3BOECZQAHja78WLKjBdibeQCvh278Nxq7BbVfp
QNBp5kBNYIzByW4BQTm7/kCi+JzBAn6/QMQS4UANdJDBgADaQN3w+kDcl6HB+BmnQMOE0T6igKnB
UxPsQKcqxr4EDbDB6rK0QDnu/b+o3arBPK/RQMmrtD9NQY/B5d6GQLRw7EC7HYHBueqiQPr7xkDE
vnrBQbObQG4jz0CRZ4nBZobbQN54dz7i0IfBw/3MQA1HI0Ex87nBVfjrQPYcK0Ek5afB2VadQN5L
IkHxtqnBP8TTQIG4BEF1C63B0UWKQLopxj8DQ6bBFrqXQDK7h0CQo5DBzFmfQCHHFkBnM53B9y2B
QNwsXUCfW5nBfbHKQMk3HUGW/K3BBa8EQTHR9EBYo5LBhxKqQIUPuT+7TpTB2qWAQBKtr0BKsY7B
Pd0WQTN/+EAB247B1jnuQAbeDEBNmZHB2B9vQB55ikCdGKLB5O0JQd7TBL6xxLPBG0ynQE6jUMAG
qanB8yCYQKcU6EDmsZ7BlAHbQBEn2T+3iq7BC0FzQOj+j79IF6XBgELzQNQ7IsCByrDBisTvQIvS
3kAIGoTBNa0OQRXgBEH6yaHBjxNIQB5g60CLwH/BfkKSQIfDBkGGKYDBQWzCQFQzzUC8iXPBijOU
QGQMq0A793LBTWb9QGLbjT7TcIXB9TjHQNFFnj7CpYDBxwnVQNd0NL++/ovB/Le1QKurGUG6er7B
YHzFQNddNEF857rBN2rtQOAdIEE3/bzBaBHrQKAjJ0FHU5/BSBUGQR/lJ0FCEavBuTzkQBclPEGH
+6jB4HCbQIkFHkH7MKHBo8aWQNV6M0HPrarBCI2FQBgAGUEjPa7BSfHwQDr9AEHImbHBkYi4QGPg
90ACe7DBhtOEQAYeDUAzMK3BzfZWQAGykj9IdqPBIIKYQLxVaUBqPonB06O4QGv6jkDjLZPB8Mi8
QBFxNEA5SqDBYKlHQFAxQEDYHpbBpXKTQMaHUD+hwZHBC5hOQN6YqUCdDYrBc4NtQHmau0AusZXB
LuBSQNqcdUCjkafBH5arQPRD8EDXpJnBS+7LQKWcFD8r/a3Bdv2YQP/ogr/qiabBZgjcQG3Z5r8q
Wa7B8BXiQIOW6EBb54vBqKX0QNDTA0FWWJzBj5q3QMYz4kAZW4/BmRPKQLB3AkGlG6DB6ZmkQNBU
nT7c5ajBo6/nQApe8r6xqLDBB5m0QAT8BMADVqnBwMjYQNs2vj9R0pDBSA2BQAzp5kBtPH/B24yg
QNxaw0A4yXjBHv+WQBVOzEApQIjBaLbkQJrhBT8m14fB8ES6QLArKEEYqLjBZCoBQbBEG0EOwrLB
UmzTQFicMUHQPqbBuqe8QKDrCkF0CKvB6u2HQBb5uD//iaXBPoWYQDxGh0C6zpDBYGCfQK9eFUCX
X53BVzaBQE+RWkAOOJnB577TQBTMH0ES7K7BNQ3/QAr3+kBgZpLB47muQODsvz8IbpTBrP57QFHJ
q0CywY3BdZQRQXaTAUEK6Y7BuDzzQP4KE0DfDZTBpXpqQBu+iEBw2aHBmbQGQXpcVL5Sf7XBHlCp
QJWzVsC3L6fBYmSLQD0760DChZzBIrTUQFK4zD9l1a/BkvN1QLmZnb/+l6LBRFbxQP1DJ8B2a7DB
tnLrQH+g3kDo94PBsZ8GQV0SCkF2jKHB4DQ9QMnp4kCjOHzB9+WJQF5YBEFvBH3BIvW/QKmpy0DV
AnLBm6mUQLfipUAJN3HB6/gCQXUVNT+gV4XBvirPQA7nLT+r/oDBfZ7hQC43A7/KtIrBnhuZQJyM
K0GUPLbBzjvJQPPtNkGbp7vBk1a6QIP+G0G3Ar/BgrsKQZdCFUGYAqzB/OAAQQg1D0FJKrnBmlMI
QXckKkEtz7XB6VrlQCUjLEFIL5/BhnriQP8mQEG7eKnBbzOyQM0nNUGL8KPBIvfCQMiX/EBa9bDB
YRqaQNA6DkEvvarBHs5+QB3mAkBPmazBMFNVQPIohT854KHBLKeeQLNiZkCdvonBpRu3QAXGkkAp
FJTBw8K6QCcWNEAZWqHBwLJJQEdVPEBkoZXBX5SZQIpJaD9QvZDBwk1NQAitoUBu54jBJU5iQP6Z
uECoWJTBzDVNQHAzcUA3JqfBdxq1QFl1AUHjL5bBy+rLQHyuQD+PNa7BLMacQME/dr8DyqbB3N7f
QDl/zL+QYa/Bq9nlQPxZ1UBDLIzB+jkBQdddBEFi35fBWri7QFEm4kBlqI7BwTPZQLoADEHiYJrB
AsylQJiVyT5T46jBzQfpQAr0dr4xYrHBvrm5QG+C+r9LGKrBOXzXQFjrwT+hWZDBh/Z8QE6060AU
qIDBWG+bQEUox0A7HHnBFIOWQElfz0BDj4jBVaDjQKjA8z6j8IfBcvXXQOUfNEHJ4LHBssWiQOlD
FkEAea/BoM7xQIUeDkGCNbHB1MzUQDHUIEE5caDBfIuHQOLduz++HaXBjfKWQPKEiUAhwJDB9mie
QN7gF0C++JzBJep/QKxxXUDcEJnBHmDQQJcHHkGnrqzBld4DQVZm6EBN3ZDB7mCtQCqVxj9565PB
J+R7QBEWsED7k47BFxkWQeH730DTpY3BzG/zQNVPDUBfcZTB1c1oQEdKiUBo6KHBAOUGQZB+3j3o
V7bBTAGxQAOHUMDcJqjBsTKVQBzVBUGbr5jB1bbSQMhW5T+U16/B33F/QHw4nr/Ep6LBQBf2QJk1
F8Dn5bHBiwnrQPP/u0AlcobBaw0PQbKMC0Htm5vBfv42QLYe6UAU3H/BJC+IQKeeBkGMD3/BAs+5
QEyazkAmCHHBHR+NQLV7qkCu1HHBnjcDQZII/z6BpIbByRzTQJ9jND/+YoDBKRPaQH4SBr/yuYrB
smH4QGjAOUFV7K/BcZnUQLXBMkF1nLrBhEnAQGCbP0GDza7BXyadQG2GBkF9y6vBIjGLQITMIUHJ
ZqzBEIGfQNnyFEG7NbjBSOPsQHeH/EB4l63BlRDuQK/zDEGN8LnBdxsJQcrYE0HiT6/BnzK4QHMz
KUFpep3BfljxQFifKkHA2Z7BwSR6QASGBECu/qvBEw1XQNs5gD+sT6HBXY+aQKPQbUAGVonBX7u2
QOyUkkAxx5PBd/q5QE5DNkAQ6aDBUPVGQDO0P0BAeJXB7t+XQPUIfD+oG5DBQ/lHQLQKqEC5WorB
+OlpQLIdvUDch5XBLvVLQGk7cUD+I6fBGuStQMWL/UDIUpfBnC3OQM7PLz/WZq7Bsa6ZQPIXZ7/l
cqfBM8/cQElm2r8CDa/BswLlQMgA30C77ovBsIz4QI4dCUFOzpjBqoa5QDj/4kC5wI7BV5XNQAN2
C0H0IpzB5zCmQO0o2T45manB5HLpQBCywb6UH7HBxOy0QAjM+78TNqrB6qrWQHkktj/pzpDBjA5+
QB006UCWKoDB7R2eQFcvxkDndXjBCjOXQOWrzUAuNIjBtW/gQNmtxT45MojBV5q2QJbRI0E4y7fB
+O/UQB4jAEEhb7LBp54AQdUAIkGxnLDB+8vAQJ1JHEHERKTBgbyJQBaTyD80RKbBGkuZQADpiEAL
7JDBLiCgQLp2GUAZjp3Bbe+BQGlpXkBdYZnBBrjTQEJWGEEfn6/BJ5kBQX+29UBiJJHBrSCtQNBq
wT8etJTBac19QGqfrUAvBI7B4YwUQeH68UAudI7BPmDyQMZuDkD5eJPBLMxrQGntikAv9aHBENoH
QZSsAL7Av7XB+MuoQIJVT8BPMKjBxUGNQF5y/kCMKJrBwtLXQF822j9C/K/BbHV2QCMEjb/Ir6PB
D7PxQCGVIcAbLLHBaDfuQHuYyUBUjYXBVpMIQfXXEkEbb5zB5aA4QNwW5UDNRH7Bt1uHQKGXBUFb
Zn7BMKe8QN0mz0Dk8HDB7JuRQHgOqUBVz3DBa8MAQRkHBD9hYYXB3z3KQGqxBD/IcoHBSJPcQHWv
H796jIvB6lu1QEEBNUEp7LXBDo7DQNuTIUE85r/BtieWQNgLHUGwYbfBeo/pQChi70Dur6zBmlq0
QDEM80DBC7LB8sDhQDYc/EBNkLrBlF8LQQ4dGkHN3qrB3qUGQYOCH0EHybjBsvn/QOo/M0G84q7B
ea+dQPFvHEFj46TBPgXMQML1K0F2aaHBZyCDQIMtDUCUPK3B7upWQImclT+yGqPB6uGeQH21aUCP
04nB0Ca4QJ4LlECtHJTBwY28QHw+OECWCaHBzylLQAn/P0Cgz5XBfbCWQN9UcD89TZHBKXNNQBeW
o0A0aonBQ2tmQPjWukCnsJTBUHlOQAjhdUA3SKfB0iHQQJRRBkEryYrB3LHOQEgeGD9seq3B496V
QBj6br+o4qfBKBDZQA8k6L/M3q7BmRW9QOH66EDGTJvBgmbrQIZzEkG735vBXcW5QC/h60DW9I/B
joLpQBh6FEEEoZDBbEalQMexwD6cVKnBiKfoQJhdAL//L7DBqqWvQMXEAcDYu6rB7cLRQJd6mj/b
oI/BAV2GQAY34UB1vH7BU5qrQKwVwkAcgXvBiFadQFlRzkDbMInBnCXXQIKyDz5hAYfBWvYjQVLz
LUEPsIHBCJEbQe5bB0GezYXBhfMHQb8RG0FW0W3BFO4AQVzlJUH2wYrBtRKKQHKhxT9lDqbBNCed
QMpJiEC5JZHBJIegQMEVFEDvBp3B5iqEQFLKXEBuOJnBa7IRQcA9HUEwXILBiCTVQHvQAkHa56DB
v3OpQLLbsj9sDpTBoKSEQM/MrkBO9Y7BEjTVQK1bAkEw0arByObvQJZp+D/P35HBnDJyQKAsiUCe
EaLBOD0IQX0mlr5YEbTBzI+gQLAvUsDUfqnBEL7NQJ8FCEFrNYLBf2jaQOfxzD8nka7BkK5sQAJo
jL8NmaTBz93sQBcDKsBNCLHBbF2sQAfUz0D6f5/BJrL+QN5tHUHee6DBDgpLQCgj10Aj53rBhVqK
QPKhAUHgvnrBIFXKQFnIzUDDOHXBoX+lQJ6noUAGYXXBuNv3QKDyPD5NxoPBfAnAQPAhpD6shoDB
CGvRQC52Wr9Nf4rBHVYdQVKFPUEoiX7BItsvQSiyKEGhg3fBGKsrQdt+L0HDj4nBaNcOQQp+9kBq
VIbBDFEjQZ4aCUHhp43BFoEnQetNAkHbs3/BGL31QHZMD0F2F27BX20UQTy2FUGDnmLBs7EBQc6r
KkFjmmjBM4gJQdiaL0GUtJDB8pbqQKL+L0HYgIbB5FaFQPh6DUCP9KzBha5VQJcwlz8VOKPBwG2h
QKp4a0DjvonBG6u8QD7MkECGcJTB5ri+QO+hLkDDGaDBiJNOQFJvQkDyapXBB/qQQESaYT/H+JDB
pgpWQDD1pkDElYrBgzh2QB9+u0CR55XBJMBSQG4SckC6K6fB

>  <OMEGA_E>  (99) 
SCKGPphJhD6Q0qw+EMnWPri34z5gqjM/

>  <OMEGA_NBR>  (99) 
     17294

$$$$
50167975
     RDKit          3D

 66 68  0  0  1  0  0  0  0  0999 V2000
    5.7873    7.4072  -19.3792 C   0  0  0  0  0  0  0  0  0  0  0  0
    6.5169    0.6897  -21.6394 C   0  0  0  0  0  0  0  0  0  0  0  0
    4.8340   -0.9504  -20.9678 C   0  0  0  0  0  0  0  0  0  0  0  0
    7.0061   -1.6924  -21.7947 C   0  0  0  0  0  0  0  0  0  0  0  0
    7.2693    7.2749  -17.4581 C   0  0  0  0  0  0  0  0  0  0  0  0
    8.1311    8.0431  -19.4891 C   0  0  0  0  0  0  0  0  0  0  0  0
    5.9843    7.0832  -18.0182 C   0  0  0  0  0  0  0  0  0  0  0  0
    6.8802    7.8978  -20.1217 C   0  0  0  0  0  0  0  0  0  0  0  0
    5.2308    0.3907  -21.1382 C   0  0  0  0  0  0  0  0  0  0  0  0
    7.4076   -0.3512  -21.9540 C   0  0  0  0  0  0  0  0  0  0  0  0
    5.7181   -1.9908  -21.3054 C   0  0  0  0  0  0  0  0  0  0  0  0
    6.6233    1.3434  -18.0080 C   0  0  0  0  0  0  0  0  0  0  0  0
    4.1413    7.4176  -16.1725 C   0  0  0  0  0  0  0  0  0  0  0  0
    5.0054    6.2499  -15.6753 C   0  0  0  0  0  0  0  0  0  0  0  0
    4.8375    6.5090  -17.1853 C   0  0  0  0  0  0  0  0  0  0  0  0
    6.9011    0.2910  -16.9390 C   0  0  0  0  0  0  0  0  0  0  0  0
    7.4351   10.7485  -20.9903 C   0  0  0  0  0  0  0  0  0  0  0  0
    4.9851   10.1495  -21.1785 C   0  0  0  0  0  0  0  0  0  0  0  0
    6.4504   10.1872  -23.2252 C   0  0  0  0  0  0  0  0  0  0  0  0
    6.7273    8.3264  -21.5672 C   0  0  0  0  0  0  0  0  0  0  0  0
    4.3012    1.5067  -20.7302 C   0  0  0  0  0  0  0  0  0  0  0  0
    4.7435    4.2785  -18.1078 C   0  0  0  0  0  0  0  0  0  0  0  0
    4.9580    2.3493  -19.6214 C   0  0  1  0  0  0  0  0  0  0  0  0
    4.0072    3.4402  -19.1388 C   0  0  2  0  0  0  0  0  0  0  0  0
    6.4035    9.8454  -21.7197 C   0  0  0  0  0  0  0  0  0  0  0  0
    8.3049    7.7423  -18.1870 N   0  0  0  0  0  0  0  0  0  0  0  0
    5.3286    1.4700  -18.4968 N   0  0  0  0  0  0  0  0  0  0  0  0
    4.0180    5.5289  -17.8860 N   0  0  0  0  0  0  0  0  0  0  0  0
    7.5124    2.1212  -18.3385 O   0  0  0  0  0  0  0  0  0  0  0  0
    3.6363    4.2644  -20.2454 O   0  0  0  0  0  0  0  0  0  0  0  0
    8.6491   -0.0626  -22.4050 F   0  0  0  0  0  0  0  0  0  0  0  0
    5.3334   -3.2771  -21.1503 F   0  0  0  0  0  0  0  0  0  0  0  0
    4.8192    7.2816  -19.8411 H   0  0  0  0  0  0  0  0  0  0  0  0
    6.8159    1.7178  -21.7810 H   0  0  0  0  0  0  0  0  0  0  0  0
    3.8528   -1.1791  -20.5786 H   0  0  0  0  0  0  0  0  0  0  0  0
    7.6858   -2.4927  -22.0477 H   0  0  0  0  0  0  0  0  0  0  0  0
    7.4264    7.0402  -16.4157 H   0  0  0  0  0  0  0  0  0  0  0  0
    8.9719    8.4047  -20.0625 H   0  0  0  0  0  0  0  0  0  0  0  0
    3.0478    7.3779  -16.0603 H   0  0  0  0  0  0  0  0  0  0  0  0
    4.4866    8.4530  -16.0358 H   0  0  0  0  0  0  0  0  0  0  0  0
    5.9706    6.4477  -15.1861 H   0  0  0  0  0  0  0  0  0  0  0  0
    4.5318    5.3726  -15.2106 H   0  0  0  0  0  0  0  0  0  0  0  0
    7.9398    0.3875  -16.5900 H   0  0  0  0  0  0  0  0  0  0  0  0
    6.2147    0.4386  -16.0923 H   0  0  0  0  0  0  0  0  0  0  0  0
    6.7489   -0.7121  -17.3639 H   0  0  0  0  0  0  0  0  0  0  0  0
    8.4445   10.5354  -21.3721 H   0  0  0  0  0  0  0  0  0  0  0  0
    7.1901   11.8054  -21.1720 H   0  0  0  0  0  0  0  0  0  0  0  0
    7.4014   10.5448  -19.9099 H   0  0  0  0  0  0  0  0  0  0  0  0
    4.2513    9.5116  -21.6928 H   0  0  0  0  0  0  0  0  0  0  0  0
    4.9537    9.9464  -20.0979 H   0  0  0  0  0  0  0  0  0  0  0  0
    4.7425   11.2070  -21.3600 H   0  0  0  0  0  0  0  0  0  0  0  0
    5.7271    9.5598  -23.7668 H   0  0  0  0  0  0  0  0  0  0  0  0
    6.1954   11.2476  -23.3684 H   0  0  0  0  0  0  0  0  0  0  0  0
    7.4623    9.9978  -23.6127 H   0  0  0  0  0  0  0  0  0  0  0  0
    7.6669    8.1129  -22.0978 H   0  0  0  0  0  0  0  0  0  0  0  0
    5.9101    7.7462  -22.0206 H   0  0  0  0  0  0  0  0  0  0  0  0
    4.0931    2.1461  -21.6008 H   0  0  0  0  0  0  0  0  0  0  0  0
    3.3593    1.0796  -20.3555 H   0  0  0  0  0  0  0  0  0  0  0  0
    4.8100    3.7208  -17.1620 H   0  0  0  0  0  0  0  0  0  0  0  0
    5.7564    4.5025  -18.4734 H   0  0  0  0  0  0  0  0  0  0  0  0
    5.8628    2.8231  -20.0299 H   0  0  0  0  0  0  0  0  0  0  0  0
    3.1215    2.9794  -18.6770 H   0  0  0  0  0  0  0  0  0  0  0  0
    4.6061    0.9337  -18.0606 H   0  0  0  0  0  0  0  0  0  0  0  0
    3.2025    5.3382  -17.3396 H   0  0  0  0  0  0  0  0  0  0  0  0
    3.7456    5.9071  -18.7707 H   0  0  0  0  0  0  0  0  0  0  0  0
    3.1758    3.7407  -20.8905 H   0  0  0  0  0  0  0  0  0  0  0  0
  1  7  2  0
  1  8  1  0
  2  9  2  0
  2 10  1  0
  3  9  1  0
  3 11  2  0
  4 10  2  0
  4 11  1  0
  5  7  1  0
  5 26  2  0
  6  8  2  0
  6 26  1  0
  7 15  1  0
  8 20  1  0
  9 21  1  0
 10 31  1  0
 11 32  1  0
 12 16  1  0
 12 27  1  0
 12 29  2  0
 13 14  1  0
 13 15  1  0
 14 15  1  0
 15 28  1  0
 17 25  1  0
 18 25  1  0
 19 25  1  0
 20 25  1  0
 21 23  1  0
 22 24  1  0
 22 28  1  0
 23 24  1  0
 23 27  1  0
 24 30  1  0
  1 33  1  0
  2 34  1  0
  3 35  1  0
  4 36  1  0
  5 37  1  0
  6 38  1  0
 13 39  1  0
 13 40  1  0
 14 41  1  0
 14 42  1  0
 16 43  1  0
 16 44  1  0
 16 45  1  0
 17 46  1  0
 17 47  1  0
 17 48  1  0
 18 49  1  0
 18 50  1  0
 18 51  1  0
 19 52  1  0
 19 53  1  0
 19 54  1  0
 20 55  1  0
 20 56  1  0
 21 57  1  0
 21 58  1  0
 22 59  1  0
 22 60  1  0
 23 61  1  6
 24 62  1  1
 27 63  1  0
 28 64  1  0
 28 65  1  0
 30 66  1  0
M  CHG  1  28   1
M  END
>  <OMEGA_C>  (100) 
qzG5QB0I7UCZCJvBF4rQQAySMD+EHa3BEbCaQJBQc78AvqfBDTLgQOyh2L+FW67B453oQDvM6EAm
qovBERkCQYOwAEHA6ZvBvX+/QOup4kBZJZDB6SrcQLC6/EBD+aDBdmKnQDMQyD4DG6nBNwvtQPDT
s763oa/BFfu2QMbT/r+JcarBe/LTQMHzqz90EJDBs4WEQBRd7UBMYYHBYCygQHX/x0AHznrB08ya
QNdJ0EB5e4nBLNbcQHX+lD4sg4fBiOztQAb6K0Ei7KfB4IWfQGJkIkGJbanBnGnOQJf+IkEtzbnB
+UXXQOM4BUGHiazBP6OJQKLbwD9y16XBacqXQKPpiECx3JDByKeeQFpbFkCu+JzBtjqAQCIsXEAu
HJnB0OnMQJ6GHUHmwa3BBeEEQaTA90DwfpHBPoSqQE4qvD+D+ZPBxZOAQAXtsEB1Fo/BWmXwQFPC
B0AmtZLBlrloQAZ2iECT9qHBhGIKQRQlgL1oPbPBV6uqQIe7UcDaM6nBszaaQPcC6UCGup7Bjxva
QDTh2z91P67B75R2QAnulr8DoaTBNfL1QBaIH8CwYbDBsKTtQK5J4UBEU4PB5owPQdJ5BkHsf6DB
5Q5DQK4X7EBpe4DBDJKPQKQ/B0FKSYDBGQ+/QORTzkBO+nLBgASRQEvsq0CMXnPBCxP+QG1gxj5O
uITB197GQJGO4D7+vIDBDvfXQINONr9b6YrBkxwHQQ2RKEEX+qrBRxXmQOriPEE/YKnB99fsQJ+3
KEFhR5/BUgqIQF8vGEHaiq3BAYWeQGIkH0FpyKDBUMKXQKxPM0FG4arBp0S3QBf1GEFvIr7BiUDG
QP/1M0GE8rrBLsvuQAD3H0HZ5rzBRFf1QFXOAUE1yLDBxh+9QMfg90AvKrDB4PqCQLdZCUBdzqzB
hP5WQMguij8d2KLBvuuZQBYibkCuS4nBsjS4QIoUkECUyZPB5Ju7QBSuNEA+PaDBQsZHQIyuPkB+
apXBY2WTQMMGbz8YfJDBWvVMQErSqkCYt4rBcrhvQBsHvUBqKpbBokBLQE1ob0DTH6fBtoC1QBQF
AUG6rpbBU4nPQPglGz82oq3B44CXQHqHbL+9nafBbl3bQDOt5r+NOa7BbiLqQD3S1EDq+Y3BteIA
QaqEBEFZDJrB7RK/QNc44UAHd4/BgJLXQI4TDEEncJvB+iSmQH0bxz4Od6nBpCHqQDlj+r6e/a/B
bAmyQEkwAcCgDKrBiUPQQCeWrj+wWo/B8s2EQPh+6kBfu4DBw7KiQJ0zxkARyHnB5J2bQCgFzkA+
04jBhdXWQJkkgz4UIYfB8rG9QKIUOUHEtq/BejOfQPvZE0EDDq/BSlbuQCuNGUEdmLLB6LTPQEvi
IUFgRKDBk1aKQMI1yD/Wf6bBri+ZQDMniEAw8JDBFbGfQNg6F0DNcJ3B732CQAbBX0DnxpnBMcvG
QMS6IUG4YqzB/i4FQWDm50BMbZPBQryoQDb3uj+6YpTBvIGBQI9Dr0DgmI7BsNDuQHoyA0CmJ5LB
3h11QCMgjECciqLBe+QIQTwij76b+bPBGtijQMLEUcDkWqjB0byUQLcQBUH2ipjBN8baQIVtzj8W
A6/BKfBvQOhoi79QVqTBYLvvQEwwKcCFErDBDYPxQIWUu0DAXojBFtINQVEYDEGDWJ7BXP5DQGu9
50AsPH/BC3+OQFMPBkF1jn/B5bbBQEbvzUB4aXLBBzeVQAqOqUAvF3LBo6b4QH0kaj5QsoTBcq7C
QM9V5z4HFoDB2OXNQEEWNr8NrIrBB63ZQOYVQ0EI2a3BRz23QDm6OUHOW7jB86yhQEIRP0HhTqvB
Il6lQGQrA0EgtqzB4EGDQFXuGUGMpqrBNNKYQEyXFEF6s7fBvRf1QF7pCEETR7DBPejnQMRJGkEA
PbvBbxMFQd+jI0Glr7DBlOqzQAkLKUH+OJzB+i3sQFnRK0FY0Z7BtiOGQJisDUADhq3Bb9RVQGrA
mT9nzKPB78GaQLRBaEAutonBc865QAdWkEBOiZPByM69QI2kMkBVcaDBpsRIQM/lREA7sZbBXvCQ
QB3rYT8ns5HB0udPQFLpp0CCJYrBzMhvQCJrvECDe5XB/KxYQGP+eUC6F6jBT+y3QPD460C185rB
w4vPQLIpJD/oV63Bb7SYQKr5db8s3afBDx7eQKgN4L9uMK7B+UPoQEbU50AXwovBaWsBQSk2AEG2
G5zBv+m+QKOP4UBXF5DBQYjaQKKx+0CeBqHBUyemQK1Dvj5YW6nB4Z3rQAlQ1r7vpq/BuJi0QCtT
AcAoWarBQ4vTQCs4sj89CpDBCYSEQEyo7EBIQ4HBSnegQFGpx0AZX3rBc6maQLIjz0DZR4nB/4vc
QONGsD7ydYfBoI/MQO40IkHs97nBfdXtQA4uK0HbTKjB9OeeQE1wIkHEY6nBDArVQIOTBEH3mKzB
/CSJQGNjwT/YJ6bB61uXQKSNh0D+sZDByMOeQBA/FkDWVJ3BhMCAQKbZXEDtcpnBJbzLQKX6HEEA
5a3Bi4IEQRvi9kBltZHBQKKqQA1Huz/bXZTBIiqAQJGAr0CvvY7BaELvQGiDDUArXZLB+ZFuQPKB
ikBWKKLB7scJQQuaIL5BPbPBGJ+nQG0ZU8Bx96jB27aYQB7450Cphp7B7KLZQNW21D9cnq7Bjxhy
QGB6lb+V0aTBY5rzQPcpJMAtA7DBc8vtQL5X4ED2b4PBgbsOQRz/BUHHy6DBhB1DQNhM60BbSoDB
ZnSPQO/zBkFrVIDBN3O/QGNgzkBauXLBk42RQF7Fq0A6pXLBUSf9QAc/9z4oVoTBFVnFQK/46D7h
5oDB757ZQFc4Kb/99IrBHqe0QNxZGEG6JL7BlRHFQPo8M0FXKLvBCI/sQF/CHkGWNL3B3fPtQIzI
J0Frqp/Br8wGQX6rJ0FCqavB6xvmQBomPEEDnanBPfidQHrFHkE7yaDBmFKYQBiOM0EZnKrB246G
QDzfGEHwkq3BDZjyQJm5AEHu+LDBuiy6QOoV90BLDbDBiumCQHh7CUAqKK3BK3NVQB2jjT+4IaPB
KSeYQKHhaEDiTonBXES4QEbajkD4OpPBmsS7QFLrM0ARqqDB56pGQJYPQEBYOZbB7eaTQH89YT8T
N5HBDhtNQC4zqUAINorBU1NtQDiXu0DGwZXBjU1SQC/7dUDKp6fBjU69QB3lAUFYAJbBOHPRQKqD
Rj+vk63BdUGbQFfQYL80tqjBqyHhQJAwzb/1Na/BtzTrQJj/0UB9dYzBK1sFQUHMAUEOC5jBW93B
QEW64UDot47BHpziQL/rCkGKg5rBdg+oQOzh7j57xKnBEhDuQLaGhL5zMrDBLq63QISp9L8AgqvB
wUjSQDEMtz86tY/B2hCEQMRk60AssoDBCuafQBGSxUBSvHnBSoGbQNOBz0BC0IjBUfnbQMSVkT60
BojBrdiaQDzHIEGRfKvBIc/TQOI9BkGATrHBVbreQFWpLUElALTB6WHhQDgzH0GoQaHBMSeKQOmN
yT/WYqbBLa+XQF/5iEBkxpDBg8CeQMLmGECQSZ3BOUSAQIggXkDIQZnBLpfLQJSnHEFlY6zBCDsH
QZOR4kA5JJHB4iKqQO04vT9Vd5TBtqqBQMi2sUCkC4/B4Q/vQMJ1DECVYJLBsoFpQFlQikA7+KHB
iPgKQfA0ID0qprPBfDurQBLWTMBQlKrB7AKeQHzrB0EDF5jBDx7bQPgx5z8Req7BoVd3QJa7jr/B
wqXBP//2QGB2GcAtS7HBrMLuQCcCuEBz1YbBSpMTQbcwCEENxZvBDQRCQGaq6UDjCIDBI6WOQIk9
BkEvjH7BNVy+QAily0ChdHHBGbmQQFvUqEA3+nLBbQb+QEZrnj4uzoXBaDjIQF82yD7syoDBoKfU
QGmLLL918IvBPFGVQL+xMEFv/qfBPU6MQNEOIEEZfrPBikqMQJyBFEGDVabBQXr2QCxzA0HA6rHB
ZWDFQErT80CnKqzBGGTFQNp2BUE8U7nB87MAQbcRK0FsxrTBRpXPQI5JLEEm6rvBs8vYQAW6PUEK
urDBEs/PQOB/K0Gyv5zB/0EBQVyLJEEmjqLBv+KDQM0MD0AQP63Byq5XQA7tkT8RkqPB2mGYQCqg
bUAcPYnBm6G4QG8uj0C7dJPBSuO7QJvAN0AeX6DBLY5HQE4HQECLtpXBVJKTQJhPWz+4vJHB+qFM
QBknrEDVIYvBV2R2QMLrvkCIJpbBCkZMQBA0dEBgQqfBlGSxQNVU+0CHcpjBHWzMQPmJEz8a9q3B
jvqXQD7lf7+lyqbBbgfbQKii6L9qV67B3nXnQKXQ5UA8i4vBORX5QKmbDEGVWJjBY9C8QEsu5ECz
P4/BWtTPQJWLC0Hz7ZzBDIKkQJ92pT5qFKnB27jnQGOr/L5Ii7DBriizQNxrBMCndqnBTRXWQHvZ
sT8ShJDB+MyCQHm76EDUk4DBgg2hQNO1xEAgyXnBxYSaQDrTzUD614jBKQngQJ/EvT5Lx4fB3PnI
QBoFGkGJ1brBkD/dQAJL70BGkbHBSMwGQas/GEFmkbDB7xvFQJiEGEHozKbBCjOIQE10vD9ZzKXB
YiWaQPCIiEAARJHB60SfQBMeFUCuXJ3BKL6BQKrqW0DmX5nBKGPeQJR7EEH5x7DBRlACQXTf/0D6
GZDBgmqsQBKKvD9cVpTB9HyBQEjorkB+2I7B5+vxQGsYC0BvcJPBtdVqQLKFiEALJ6LBCxcHQcDP
fr7mF7XBPxWnQFeVVcDWQqfBIgqSQAPf90A/+pvBh/vVQOqhyz/4ta/BvBtzQESKmL8O/qLBW93v
QGz3KMBuZLDBru3wQH7D0UCz6oTBIwAIQVzeF0EMh5vB9/4/QMYr5UDFNX/BPsiLQN8yBUFCp37B
uq6/QO+ZzED/D3LB+OWTQPVfp0CBnnLBVbAAQQOV/D4hIoXBxWTKQDKRBz+s9IDBtYDbQMZVJb8A
8orBTZzJQGWXK0HnW7rBEnLaQJXDFEH2AcLBMZunQHF/FEGjTbvBunHsQH5c4UBHb6rBOtO7QMBt
5ECgD7LBHKruQAb25EDyw7jBGeIOQS6yEUGmeKnByw0PQX+4EkHj1LfBBS0HQVXVKUGlQLDBGJ2i
QPgmF0HnaajBoU7NQJFgKUHcUqXBdeWAQNrNBUDh16zBJIRUQMw9ij/pZaLBw+qeQPWha0C86InB
nm65QCmjkUBZmJTBBrW7QPlJMkC4DKHBpf5KQAhDP0DLiJXBqvqVQMkdaz96wJDB369PQIWrpkDB
horBovtvQIJUvEB1tZXBbztMQC3mb0BqP6fBJLKiQBajA0FxAZXBQMKpQPxylr6g767B0E+dQFBt
n7/wM53BV57FQKiaIMCsh6rBcr/cQPnc8kBvH4nBX97nQLIuFUGRWJXBEwGyQH+b7UBWjozB2kC+
QKHgEkGXrZnBHMGXQJ1OQ758m6TBuGXAQElSur+O6rHBwTG0QP3DGcDtKKDBgonhQIEOxD93vJLB
j7pzQIOq3ED9W3vBoqKeQNvSvEAkr3fBDKOUQEQuzUCbNYfB/1X1QGVjYj8r0ojBq6uzQPsyLUGH
3LXBGLDuQLJ/FkHycK7BklblQL91PUEneqjBHDmtQK1zIUE7lKLBoRR/QG9ViD95XKHBW5CcQPOC
i0B2IZLBpsOdQJnnCUCKvZzBHUKDQNifWUCma5nBYdHNQPZfKEF+k6vBqZX2QMtmCEEAdY3BZxq1
QBZHzj95bJPBdgeAQFy8rkDypY7BibT4QJEk7j/cNprBa4BtQFCTg0Do1aLBjBbRQLGgx7/p3rvB
NFu5QDhKWsBfDZnBBEmCQLLSAUFY3ZfB5y+mQLCoBD/Uj7TBtvuPQJ8Jlb/9QZXBXfjWQB+CWcCF
0azBwg3pQItp3kDL34LBeIH8QPGRIUGNdJjBAvUwQDES0kBtnXnBy7x5QIbi/UAzvHXB4Pa7QLJC
x0A2eG/B/JKXQF1ym0BvWXPBYBUMQXbBTD+i5YnB6YPuQDOkwD81woHBuo/nQCUM8b3eq4fBtwKc
QC/JOUGfLLTBlm3JQFqiMkEQObzBqw2jQGeXHkHUebjBcfgAQWiYEkFjVqfB2nfdQGMfCEG3IbHB
4usBQVYqHEHz4LTB+mH4QDPQOkEWMqHBr5n6QHVUQkHYDa/BXKPNQIYhSkHR/qbB4aGSQEACGUG5
gabBUyGhQJ8gMEHcxp7BSk1eQMlrvD+kb6jB/25PQFWXTD8EPpvBn0yoQF0AdEBJFYvBW+O3QODN
mECrkpbBz6y0QFXdHECa/KLBq3RNQMupQ0DiDpXBjOujQBDcoz+qN43BES1NQFj2oUCc/orBXuls
QDTavkDEIZXBpzBOQBoZYkC/aqfB

>  <OMEGA_E>  (100) 
sOM1PqRdhz5gixs+rMqkPijv4z7Axls/

>  <OMEGA_NBR>  (100) 
     23897

$$$$
50167947
     RDKit          3D

 64 66  0  0  1  0  0  0  0  0999 V2000
    6.5289    0.6707  -21.6950 C   0  0  0  0  0  0  0  0  0  0  0  0
    4.7791   -0.9038  -21.0371 C   0  0  0  0  0  0  0  0  0  0  0  0
    5.6769    7.4227  -19.4144 C   0  0  0  0  0  0  0  0  0  0  0  0
    6.9364   -1.7289  -21.8223 C   0  0  0  0  0  0  0  0  0  0  0  0
    8.0040    7.8464  -19.3378 C   0  0  0  0  0  0  0  0  0  0  0  0
    5.2262    0.4211  -21.2108 C   0  0  0  0  0  0  0  0  0  0  0  0
    6.8776    7.8920  -20.1235 C   0  0  0  0  0  0  0  0  0  0  0  0
    7.3849   -0.4040  -21.9934 C   0  0  0  0  0  0  0  0  0  0  0  0
    5.6315   -1.9776  -21.3504 C   0  0  0  0  0  0  0  0  0  0  0  0
    5.9420    7.0635  -18.1153 C   0  0  0  0  0  0  0  0  0  0  0  0
    6.5523    1.4313  -17.9127 C   0  0  0  0  0  0  0  0  0  0  0  0
    4.2448    7.4164  -16.1708 C   0  0  0  0  0  0  0  0  0  0  0  0
    5.2288    6.3339  -15.6906 C   0  0  0  0  0  0  0  0  0  0  0  0
    4.9043    6.4826  -17.1792 C   0  0  0  0  0  0  0  0  0  0  0  0
    6.8592    0.2686  -16.9750 C   0  0  0  0  0  0  0  0  0  0  0  0
    7.4722   10.7706  -21.0084 C   0  0  0  0  0  0  0  0  0  0  0  0
    5.0377   10.0966  -21.1841 C   0  0  0  0  0  0  0  0  0  0  0  0
    6.4842   10.1705  -23.2392 C   0  0  0  0  0  0  0  0  0  0  0  0
    4.3353    1.5720  -20.8137 C   0  0  0  0  0  0  0  0  0  0  0  0
    6.8819    8.3481  -21.5656 C   0  0  0  0  0  0  0  0  0  0  0  0
    4.8139    4.2536  -18.1073 C   0  0  0  0  0  0  0  0  0  0  0  0
    4.9974    2.3660  -19.6736 C   0  0  1  0  0  0  0  0  0  0  0  0
    4.0696    3.4682  -19.1736 C   0  0  2  0  0  0  0  0  0  0  0  0
    6.4655    9.8390  -21.7304 C   0  0  0  0  0  0  0  0  0  0  0  0
    5.3269    1.4469  -18.5679 N   0  0  0  0  0  0  0  0  0  0  0  0
    4.0597    5.4595  -17.7829 N   0  0  0  0  0  0  0  0  0  0  0  0
    7.4381    2.2325  -18.1919 O   0  0  0  0  0  0  0  0  0  0  0  0
    3.7350    4.3380  -20.2571 O   0  0  0  0  0  0  0  0  0  0  0  0
    8.6354   -0.1636  -22.4474 F   0  0  0  0  0  0  0  0  0  0  0  0
    5.1978   -3.2480  -21.1938 F   0  0  0  0  0  0  0  0  0  0  0  0
    7.6355    7.2651  -17.7404 S   0  0  0  0  0  0  0  0  0  0  0  0
    6.8675    1.6865  -21.8361 H   0  0  0  0  0  0  0  0  0  0  0  0
    3.7836   -1.0944  -20.6642 H   0  0  0  0  0  0  0  0  0  0  0  0
    4.6969    7.3669  -19.8648 H   0  0  0  0  0  0  0  0  0  0  0  0
    7.5932   -2.5547  -22.0530 H   0  0  0  0  0  0  0  0  0  0  0  0
    8.9907    8.1344  -19.6693 H   0  0  0  0  0  0  0  0  0  0  0  0
    3.1711    7.3200  -15.9520 H   0  0  0  0  0  0  0  0  0  0  0  0
    4.5329    8.4774  -16.1332 H   0  0  0  0  0  0  0  0  0  0  0  0
    6.2210    6.6199  -15.3114 H   0  0  0  0  0  0  0  0  0  0  0  0
    4.8593    5.4625  -15.1301 H   0  0  0  0  0  0  0  0  0  0  0  0
    7.9117    0.3194  -16.6594 H   0  0  0  0  0  0  0  0  0  0  0  0
    6.2080    0.3293  -16.0905 H   0  0  0  0  0  0  0  0  0  0  0  0
    6.6790   -0.6819  -17.4984 H   0  0  0  0  0  0  0  0  0  0  0  0
    8.4851   10.5875  -21.3962 H   0  0  0  0  0  0  0  0  0  0  0  0
    7.1948   11.8197  -21.1884 H   0  0  0  0  0  0  0  0  0  0  0  0
    7.4509   10.5659  -19.9278 H   0  0  0  0  0  0  0  0  0  0  0  0
    4.3236    9.4354  -21.6966 H   0  0  0  0  0  0  0  0  0  0  0  0
    5.0163    9.8920  -20.1035 H   0  0  0  0  0  0  0  0  0  0  0  0
    4.7602   11.1457  -21.3641 H   0  0  0  0  0  0  0  0  0  0  0  0
    5.7741    9.5173  -23.7675 H   0  0  0  0  0  0  0  0  0  0  0  0
    6.1953   11.2215  -23.3872 H   0  0  0  0  0  0  0  0  0  0  0  0
    7.4968   10.0090  -23.6375 H   0  0  0  0  0  0  0  0  0  0  0  0
    4.1827    2.2328  -21.6798 H   0  0  0  0  0  0  0  0  0  0  0  0
    3.3642    1.1832  -20.4736 H   0  0  0  0  0  0  0  0  0  0  0  0
    7.8964    8.2201  -21.9713 H   0  0  0  0  0  0  0  0  0  0  0  0
    6.1781    7.7222  -22.1339 H   0  0  0  0  0  0  0  0  0  0  0  0
    4.9237    3.6347  -17.2046 H   0  0  0  0  0  0  0  0  0  0  0  0
    5.8090    4.5326  -18.4839 H   0  0  0  0  0  0  0  0  0  0  0  0
    5.9207    2.8259  -20.0557 H   0  0  0  0  0  0  0  0  0  0  0  0
    3.1654    3.0185  -18.7374 H   0  0  0  0  0  0  0  0  0  0  0  0
    4.6271    0.7966  -18.2724 H   0  0  0  0  0  0  0  0  0  0  0  0
    3.3306    5.2220  -17.1410 H   0  0  0  0  0  0  0  0  0  0  0  0
    3.6584    5.8255  -18.6225 H   0  0  0  0  0  0  0  0  0  0  0  0
    3.2694    3.8481  -20.9248 H   0  0  0  0  0  0  0  0  0  0  0  0
  1  6  2  0
  1  8  1  0
  2  6  1  0
  2  9  2  0
  3  7  1  0
  3 10  2  0
  4  8  2  0
  4  9  1  0
  5  7  2  0
  5 31  1  0
  6 19  1  0
  7 20  1  0
  8 29  1  0
  9 30  1  0
 10 14  1  0
 10 31  1  0
 11 15  1  0
 11 25  1  0
 11 27  2  0
 12 13  1  0
 12 14  1  0
 13 14  1  0
 14 26  1  0
 16 24  1  0
 17 24  1  0
 18 24  1  0
 19 22  1  0
 20 24  1  0
 21 23  1  0
 21 26  1  0
 22 23  1  0
 22 25  1  0
 23 28  1  0
  1 32  1  0
  2 33  1  0
  3 34  1  0
  4 35  1  0
  5 36  1  0
 12 37  1  0
 12 38  1  0
 13 39  1  0
 13 40  1  0
 15 41  1  0
 15 42  1  0
 15 43  1  0
 16 44  1  0
 16 45  1  0
 16 46  1  0
 17 47  1  0
 17 48  1  0
 17 49  1  0
 18 50  1  0
 18 51  1  0
 18 52  1  0
 19 53  1  0
 19 54  1  0
 20 55  1  0
 20 56  1  0
 21 57  1  0
 21 58  1  0
 22 59  1  6
 23 60  1  1
 25 61  1  0
 26 62  1  0
 26 63  1  0
 28 64  1  0
M  CHG  1  26   1
M  END
>  <OMEGA_C>  (101) 
gezQQGexKz9ij63BOO6YQAphZ78VTKjBW6m1QL+G7UCsUJvBRvfdQAhM3b8clK7BXhAAQQ8W+0DA
s5rBsTynQJKY1z6qr6nBgxXcQDeL/EDU/KDBylDsQFTWzr6B8q/BbzW0QJAh/b+nzarBQSW+QJcI
4kA37JDBMqzRQFgztz85TY/Br9WHQItT7UC1XYHBTVKnQJevykCmDHvBCfCcQGhxz0AXb4nBo37b
QFqEiT62zIfB8BvvQDRULEEsEajBEDWhQNGLIUH5eKnBq37PQEG6IkH76bnBxLqKQF44yT+FgqbB
xzjcQNKRBUFkhqzBNwuaQEQdiEDQ25DBZ+qfQEBsF0B9Y53BATqCQJv3XUBwY5nBXeXOQHBsHUHG
163BMHaqQIY1uT8ki5TBAumBQBu0rkBaQ47BNgXuQCHhDkDwiJHB7AlvQKzQikCaDqLBsCoKQYSF
J75RlLPB+FOmQIneT8DNjKnBZFb0QBV86EBE7I3BhcLbQDHe1z9HsK7BeCZyQLQUjL8/UKXBKU2W
QD+960Af657BKPvyQJ9/I8B6bLDB4dkPQYImAkG2Wp3B3/NKQMI96kA0O3/BRA2RQHKjB0HPEIHB
UxLHQDHW00B++3TB/36bQA/NrkAVFXLB/Cz9QKSHoz5lRoXBG6jGQBSaqD5XuYDBMbrVQF2TLr/H
/IvBAMMHQVZmKUF5K6vBvTvmQGMdPUHuganBqG3uQBoOKUEebJ/BzFqKQEP3FkG1kq3BJ4WgQH1F
HkHz06DBPVOYQMZUMkHD6arBl8W4QLZGGEHpI77B0j/GQDKLM0EOGbvB2eXvQOMkIEGJGb3BdNiF
QPjmDkAtcK3Bk05XQAdzlz/YyaPB/q78QH6FA0Ekxa/BPrPFQCYc90AlErHB/46dQK6faEDyoonB
gOO5QDcLkUAI35PBR3a9QOLaNED9caDBDJZKQL8uQUBL5pXBTBGUQJ7wSz/RLZLBOSlVQGoap0Cv
IInB3iJqQNRqukDh+pTByD1RQKpHdkD8ZafBfuXPQD6+Lj9wsK3BRbuYQFNaaL9XMKjBz0u1QGlG
7UDDNZvB4qLdQNI3278nvK7BY6//QJtL+0AhoprBxYOmQMTt1z7gqqnBHZbbQKl7/ECE56DBm4Lr
QORkxL4EJrDB3jS0QC6g/L9vyqrBGfq9QO+g4UDl1ZDB/0vSQJayrj/M2Y/BpXOIQN/N7EBTHoHB
GqWnQLKkyUC13XrB3eecQOT+zkApT4nB3BDbQARCfj761IfBzTLRQGpdIkH4ArrBnznsQARJLEHD
v6fBNC+fQObCIEEGRqrBF+qJQBinyD8VaKbBosDbQAJWBUHXeKzBKrGYQJtPh0BRgpDBjVufQBFa
F0CsVZ3BH9uBQFGIXkDwZpnBAfTNQBgTHUFZ963Bdf2pQMb8uD+AgJTBjlyBQHGsrkALJI7BMJbt
QEZTDkCXcZHBCHRyQKf4i0DdCqLBv6kJQR6cBb4h3bPBN+OmQDbnT8AqcqnBmij0QINz6ED+3I3B
elbaQIDG2T9a4K7BfUxyQJ2/jb+/EKXBLeKVQL9360C0yJ7Bi8PyQHEPIsDdrLDBv5MPQbhqAkHG
Sp3BNz5MQMYP6kAzmX7B0RaSQFxQB0EPwYDBfZvHQL5K0kD25HTBx6ObQMy5rUAK/HHBsBr7QDAq
xD6kWYTB3erCQPWAjz44b4HBpn3ZQAZdOb9l7YvBB+O7QFi0F0ESjr7BT6XHQOcXM0EmWLvBw2Hy
QKARIEGttrzBxFLqQE29KEGDJJ/BEaUGQRDyKUEaiKrBro3iQFj4PEGSKanBvGKcQGgNHUEcs6HB
00+WQP6RMUF2pavB76aJQLZHFkEg267BL5uEQE+ZDkA4Ua3BRhBWQMselj+FmqPBkFH8QLJkA0Hr
qq/BaonFQP4y9kAL/bDB0v6ZQMdcZkAgTInBjWq5QFU4j0AKFJPBreu8QOBXNEBScqDB/R9IQE96
QkAdS5bB0uySQF+5WD/XtJHBmwhTQNPyp0DSE4nBEYRqQMtVukDP8pTBj+VVQF0JekA3nafBxorQ
QMYjPT/OAK7BJVmZQFHGXL+2uajB5S26QJ/5/UCIl5fBF2beQNWz0794Rq/BFucCQfc8/EDIjZfB
txKnQERa8D4PE6rBgGviQP8PCEHDypvBtEfsQJr2pL7Ig7DBh+G0QA4h9r9BbKvBnRDBQPY24UAb
go/Bln3RQH9VrD8tEpDBY8uHQDu+6kCmnYDBUIGlQC5exkBn13nBdqGdQJ8EzkCX2IjB3qzZQIhV
Vz6CMIjBie7aQDd5L0G44LPB0CybQHAuH0E5y6rBQSrTQCJvB0FfkLPB1UuKQAnYzT86xqbB9Z7m
QHEKHEEbp6LBlBaZQNvTh0BQxJDBlFCfQFa5GEBGjJ3BhMiBQNSjX0BjkpnBk6nLQM4zHEGgGa3B
ilmpQB+WuT8vyJTBY5KCQLunr0B3fo7BRRbtQBzVDEB1fJHBVS1xQCyCjEA8LqLBfxwKQSDjfL06
HLTBJ3unQJzNTMDgSarBGHr3QL1O10APxI3BO/PaQK1D4T8WFK/B+odzQDq+iL+9oKXBSteaQGM2
A0E8j5rB7JbzQD8MHsBeR7HBcSoTQdtZAUFz/JnBGCFKQPhT6ECioX7BiuORQEYjBkHUcn/Bpt7E
QHzbzUDJyHLBqAuYQOjoqUCY93HBgKL5QJo2qD7zn4TBjFPBQMIGcT5y1oHBMfXXQMeuQL/la4zB
10H9QMjCLUEPobXBWNjIQIj6L0FNbLvBEInVQIBhPkEQZq/BJ3mPQKuqEUGj+aXBrDOWQIAyLkEI
YKbB84KJQIjLH0FFZrLBvXLIQGEr80Av167Byu3AQIMoCEELFbvBkHX1QDvKBUF9XrXBL1WFQGAI
EkCrnq3BVY1WQKKqmj+eHaTBfbrcQEnXKUGAyJ3Biz4EQTfIHUEm46TB9hSaQNL9Z0AtgInBOe65
QCIEj0C0X5PBfRq9QJLTNUBagaDBQm9IQL9cQ0BTXJbBu/eRQARMWz9PFJLBKedRQEcvqUBl+4nB
VUByQCfBvECCZpXBPAFUQKsOe0CbsqfBoQnRQGXkQT+r8a3BEbuZQJrvWr+E+ajBVzS7QH3G/UAT
mZfBrj/fQOzy0L/cUq/BR2oDQf3a+0BoZZfBuWqnQDp29T7pJarBmKjjQEO2B0G71JvBhPrsQFmL
mL7VeLDBrZG1QLZ09L96n6vB4LfBQChQ4UBWbI/B5EjRQEadrT/fCJDB6BKIQMWg6kBhl4DBJIal
QKcDxkDU1XnBeP6dQHURzkD514jBx6/ZQESTXz7+LojBCXGcQJaKIUGtYarBnIPMQGd8BUGE/rLB
tTfdQBucLEHH07TBc1uKQBopzj+D0qbBA2/oQEQeG0G8EqPBUiaZQAMBiEBr1ZDBlCafQGHXGEDy
jp3BxI6BQE2VX0Dgj5nBFFHLQHRYG0H0K63B2TepQCqruT/GzJTBx+GCQHf6r0AYlI7Bzr7sQJXC
DUBIcZHBs9FvQLlMjEAFLaLBxnMKQaB98byoCrTBAU2oQAoiTMDFlarBzhD4QAiJ10BjgY3Bn2bb
QPbs4z+f567BSN5zQHSyiL9UDKbBFvmbQIQtA0G3nJrB7630QCRkHMDgR7HBZbwTQYkaAUG/v5nB
/JlKQHRT6EBDtH7BikqSQB0LBkF3PH/BztPEQL9BzUCipXLBQdaXQPl+qUBuHXLBcKf5QLjorT5F
oYTBDGHBQLRYcz4R0oHBcBPYQOtEPr8tcIzBYB6cQLUVMUEdQabBXomJQAqqIkGNyLHBdn6OQCtB
FUE3IqXBfdjtQOhTAUGh6bTBHr++QAUw8kBWx63BBsq5QOGABkGrbbrBhXL+QNqmKEFx87bB8pbJ
QFcoLUGEILzBd1bcQGJNPEFL2bDBikyFQPBbEkCYpa3B/85WQIr4mT8UMaTBwgLhQOJ0KUG+UZ7B
A/UEQaHSG0FdxKXB+kSaQJu4aEBniYnBNfK5QJkBj0D0gZPBWu+8QAIoNkBOfKDBPGBIQNAgQ0CR
Q5bB9u+RQPiTWT+nJZLBUhpSQIWoqUDlIIrBzZJzQJU9vUCzfpXBBk1SQC5aekCwo6fBEnXQQDSd
Oj+fwa3BsReaQFVqZr+dfKjBmUqoQLo+80CKVJnBbAHgQFDq078Luq7BsezwQKSTAkESQ5vB3AKn
QHWD4D5q5qnB6vrHQLEQBkFoFZ/B0gftQCRUor6QEbDBsYC2QCcV+b/y9qrB9RC5QBIG30AcpJDB
MVDUQNLnvj+cE5DB5OWIQEdr6UDlWYDBY0GqQFLTx0B/1XnBwSScQH4Hy0D6kojB3L3eQGzi1z7c
yIfBcd7zQPH7L0GsqanBtjO/QJ7iKUEkZrjBtY/0QGYUDUFvkLTBu6GJQIXoxz9ykqbB7Rq3QLvS
FEGCuafBVoaXQIZ7hEBdJZDBlhifQOX4F0BknZ3BmJKAQGeiW0CoPZnBnXfYQBKzHkGpXK/BbEas
QAV9uz8h65TBYMd/QHF/qkBu/ozBKFvwQFUgEUCrA5PBiBNtQHPfi0CqfaHBEoUKQfB2EL2pgrPB
RhSqQPutTsB7nKnByHzwQOeY40CaJZDBwjHaQFWd4D+q7a7BNuJ0QEinj7/TgaXBjRqHQGEA8UC0
rJvBD9f1QCZwHcAQlbDB878GQUVjCUGSup7BuINOQF3a5UCt1nvBUm2RQJvIBUFKdoDBuaXKQHHv
0UCHJ3XBQ3qgQJg4rECgEXDBpEcAQSY3AT9vb4XBH1DKQP7bDz/ptIDBtd3YQJzlEr+JOovBvikD
QXSIKEFPKaPBDfsEQVlLN0ENda/BoL7eQJhiPEGbVKbBil6rQMEKHkHvnbzBt4SqQDZWNkF+8bTB
MLzVQPc+MUHwEb7BDuLfQDo1AUGuf7jBYPYEQUthFEGxh7rB/OcDQRIoBUFHWq7BjV6DQP/MDUAr
ea3BIIBWQF96kj/Do6PB51OgQEigC0EwnKzBKzemQKAPIkHmv6PBlhCaQNhiXUCNQ4nBNcW3QJzO
jUChy5LBjHu7QJ0gOEBw66DBxd9GQNKPPEADMZbBuReXQLyPST8GWpLBS2tUQKFqokCld4fBCf9h
QB17tkDxaJPBYmNQQJA5e0AgKqfBEyXQQHFbPT/rya3BixWaQB/XY7+BV6jB3b+nQHKN80CAVpnB
rJbfQMaQ0r+y267BO3XwQAWPAkFHSZvBcuymQLuI5T4oy6nBk4PHQLgxBkHTEp/BwY3sQJ3CnL7m
OrDBbFS2QDHD978W7qrBVGy4QOhu30AcoJDBU4DUQFijvD8UEZDBdSGIQHGt6UCUUIDBE7epQLw8
yEAM1XnBXXybQD13y0BJj4jBIeveQNERxz5L5ofBDXO+QND7KUFKYbjBu1rzQBnqDEEZprTBqPbz
QHneL0EVzKnBPaCJQHDuyD9Ka6bB+Ki2QJsUFUFbqKfBsqSXQG8EhUDWHpDBwDOfQMBnGEAAep3B
C8yAQCJyXED6MJnBluXXQFq4HkGgZa/B1x+sQJK7vD9vvJTBYx9/QCe0qkDq9ozB7ODwQMyrDkDP
JJPB4Q9uQB3xi0ARiaHBBioKQXTAw7z61bPB+fipQIAATsDAhanBmODvQN+d40ACKZDBp9bZQGQF
4j/M967BxTh1QC5gjr9NP6XBmJiGQGVF8UDMtZvBt0f1QAPCHMBi0bDBGIwGQYg/CUHHx57BqA9N
QDTm5UBYvHvBnnaQQPnvBUGdaYDB1hHKQI6C0kA9LXXBDCOgQNGIrEBaFnDBrYMAQdnO4j5CxYXB
wlzLQOYHCj+nroDBmt7XQKNCGb9mWovBJpWqQFm+NkH357TBed7UQFn1MEECM77BQ8mpQH1DHkF5
brzBkPUCQaeQBEE4cq7Bi0TeQFBtAUH7urjB4awEQSwfFEGEf7rBVEUDQedWKEENV6PBtfoEQbUF
N0HNqa/BREnfQJtoPEFua6bB4jyDQORkDkAtTq3BsJlWQMFekz/LdaPBHF+fQGoODEH8eKzBilym
QMFvIkGpoKPBXYKaQNV5XkCQPonBJsC3QAi3jkCIypLBLra7QIseOEAryKDBuhZHQP/FPUAPJpbB
GYOWQEoXUj+6AZLBBQJUQCpfokBrbofBiwBhQKWGtkDkX5PBjHtRQKz2ekCgL6fB

>  <OMEGA_E>  (101) 
ALYMPYAgBD249CU+wIc1PtA5Sj7QY0s+

>  <OMEGA_NBR>  (101) 
     30348

$$$$
50167939
     RDKit          3D

 64 66  0  0  1  0  0  0  0  0999 V2000
    7.2621    7.4956  -18.0468 C   0  0  0  0  0  0  0  0  0  0  0  0
    6.5005    0.6891  -21.6370 C   0  0  0  0  0  0  0  0  0  0  0  0
    4.7921   -0.9240  -20.9638 C   0  0  0  0  0  0  0  0  0  0  0  0
    6.9449   -1.7008  -21.8086 C   0  0  0  0  0  0  0  0  0  0  0  0
    7.7809    7.9077  -19.2401 C   0  0  0  0  0  0  0  0  0  0  0  0
    5.2127    0.4107  -21.1294 C   0  0  0  0  0  0  0  0  0  0  0  0
    7.3690   -0.3661  -21.9655 C   0  0  0  0  0  0  0  0  0  0  0  0
    5.6554   -1.9786  -21.3111 C   0  0  0  0  0  0  0  0  0  0  0  0
    5.8566    7.0966  -18.2967 C   0  0  0  0  0  0  0  0  0  0  0  0
    6.6046    1.3885  -17.9397 C   0  0  0  0  0  0  0  0  0  0  0  0
    4.4023    7.4344  -16.1314 C   0  0  0  0  0  0  0  0  0  0  0  0
    5.3962    6.3087  -15.8290 C   0  0  0  0  0  0  0  0  0  0  0  0
    4.8925    6.5331  -17.2666 C   0  0  0  0  0  0  0  0  0  0  0  0
    6.8934    0.2600  -16.9542 C   0  0  0  0  0  0  0  0  0  0  0  0
    5.0960   10.1366  -21.1893 C   0  0  0  0  0  0  0  0  0  0  0  0
    7.5505   10.6552  -20.8430 C   0  0  0  0  0  0  0  0  0  0  0  0
    6.6786   10.1763  -23.1447 C   0  0  0  0  0  0  0  0  0  0  0  0
    4.3041    1.5413  -20.7172 C   0  0  0  0  0  0  0  0  0  0  0  0
    6.8163    8.2789  -21.5114 C   0  0  0  0  0  0  0  0  0  0  0  0
    4.7282    4.2560  -18.0347 C   0  0  0  0  0  0  0  0  0  0  0  0
    4.9732    2.3704  -19.6064 C   0  0  1  0  0  0  0  0  0  0  0  0
    4.0315    3.4734  -19.1325 C   0  0  2  0  0  0  0  0  0  0  0  0
    6.5359    9.8055  -21.6525 C   0  0  0  0  0  0  0  0  0  0  0  0
    5.5877    7.2916  -19.5733 N   0  0  0  0  0  0  0  0  0  0  0  0
    6.7282    7.7956  -20.1127 N   0  0  0  0  0  0  0  0  0  0  0  0
    5.3278    1.4836  -18.4818 N   0  0  0  0  0  0  0  0  0  0  0  0
    4.0022    5.5019  -17.7801 N   0  0  0  0  0  0  0  0  0  0  0  0
    7.5283    2.0856  -18.3465 O   0  0  0  0  0  0  0  0  0  0  0  0
    3.7500    4.3448  -20.2292 O   0  0  0  0  0  0  0  0  0  0  0  0
    8.6095   -0.0972  -22.4307 F   0  0  0  0  0  0  0  0  0  0  0  0
    5.2484   -3.2584  -21.1594 F   0  0  0  0  0  0  0  0  0  0  0  0
    7.7786    7.4657  -17.0988 H   0  0  0  0  0  0  0  0  0  0  0  0
    6.8180    1.7123  -21.7728 H   0  0  0  0  0  0  0  0  0  0  0  0
    3.8088   -1.1367  -20.5710 H   0  0  0  0  0  0  0  0  0  0  0  0
    7.6085   -2.5118  -22.0698 H   0  0  0  0  0  0  0  0  0  0  0  0
    8.7858    8.2437  -19.4487 H   0  0  0  0  0  0  0  0  0  0  0  0
    3.3629    7.3581  -15.7798 H   0  0  0  0  0  0  0  0  0  0  0  0
    4.7297    8.4834  -16.0830 H   0  0  0  0  0  0  0  0  0  0  0  0
    6.4370    6.5488  -15.5664 H   0  0  0  0  0  0  0  0  0  0  0  0
    5.0701    5.4235  -15.2632 H   0  0  0  0  0  0  0  0  0  0  0  0
    7.9707    0.2319  -16.7336 H   0  0  0  0  0  0  0  0  0  0  0  0
    6.3331    0.4337  -16.0237 H   0  0  0  0  0  0  0  0  0  0  0  0
    6.5843   -0.6993  -17.3948 H   0  0  0  0  0  0  0  0  0  0  0  0
    4.3776    9.5336  -21.7640 H   0  0  0  0  0  0  0  0  0  0  0  0
    4.9935    9.9069  -20.1185 H   0  0  0  0  0  0  0  0  0  0  0  0
    4.8939   11.2050  -21.3561 H   0  0  0  0  0  0  0  0  0  0  0  0
    8.5729   10.4191  -21.1729 H   0  0  0  0  0  0  0  0  0  0  0  0
    7.3491   11.7237  -21.0097 H   0  0  0  0  0  0  0  0  0  0  0  0
    7.4487   10.4257  -19.7720 H   0  0  0  0  0  0  0  0  0  0  0  0
    7.6989    9.9450  -23.4845 H   0  0  0  0  0  0  0  0  0  0  0  0
    5.9548    9.5974  -23.7371 H   0  0  0  0  0  0  0  0  0  0  0  0
    6.4835   11.2510  -23.2756 H   0  0  0  0  0  0  0  0  0  0  0  0
    4.1071    2.1866  -21.5860 H   0  0  0  0  0  0  0  0  0  0  0  0
    3.3549    1.1293  -20.3438 H   0  0  0  0  0  0  0  0  0  0  0  0
    6.0801    7.7308  -22.1177 H   0  0  0  0  0  0  0  0  0  0  0  0
    7.8286    8.0731  -21.8893 H   0  0  0  0  0  0  0  0  0  0  0  0
    4.7533    3.6529  -17.1151 H   0  0  0  0  0  0  0  0  0  0  0  0
    5.7564    4.4895  -18.3482 H   0  0  0  0  0  0  0  0  0  0  0  0
    5.8854    2.8320  -20.0122 H   0  0  0  0  0  0  0  0  0  0  0  0
    3.1074    3.0251  -18.7387 H   0  0  0  0  0  0  0  0  0  0  0  0
    4.6060    0.9164  -18.0854 H   0  0  0  0  0  0  0  0  0  0  0  0
    3.2820    5.3285  -17.1084 H   0  0  0  0  0  0  0  0  0  0  0  0
    3.5917    5.8209  -18.6343 H   0  0  0  0  0  0  0  0  0  0  0  0
    3.3138    3.8571  -20.9179 H   0  0  0  0  0  0  0  0  0  0  0  0
  1  5  2  0
  1  9  1  0
  2  6  2  0
  2  7  1  0
  3  6  1  0
  3  8  2  0
  4  7  2  0
  4  8  1  0
  5 25  1  0
  6 18  1  0
  7 30  1  0
  8 31  1  0
  9 13  1  0
  9 24  2  0
 10 14  1  0
 10 26  1  0
 10 28  2  0
 11 12  1  0
 11 13  1  0
 12 13  1  0
 13 27  1  0
 15 23  1  0
 16 23  1  0
 17 23  1  0
 18 21  1  0
 19 23  1  0
 19 25  1  0
 20 22  1  0
 20 27  1  0
 21 22  1  0
 21 26  1  0
 22 29  1  0
 24 25  1  0
  1 32  1  0
  2 33  1  0
  3 34  1  0
  4 35  1  0
  5 36  1  0
 11 37  1  0
 11 38  1  0
 12 39  1  0
 12 40  1  0
 14 41  1  0
 14 42  1  0
 14 43  1  0
 15 44  1  0
 15 45  1  0
 15 46  1  0
 16 47  1  0
 16 48  1  0
 16 49  1  0
 17 50  1  0
 17 51  1  0
 17 52  1  0
 18 53  1  0
 18 54  1  0
 19 55  1  0
 19 56  1  0
 20 57  1  0
 20 58  1  0
 21 59  1  6
 22 60  1  1
 26 61  1  0
 27 62  1  0
 27 63  1  0
 29 64  1  0
M  CHG  1  27   1
M  END
>  <OMEGA_C>  (102) 
PWPoQJTb70DcX5DB1wPQQHZmMD+YGK3B2ViZQKaKbL/btafBuDzeQDiz2b8EeK7B8/z4QJwL/UCq
65nBZs6mQO5D0j4OCanBnc7rQMNyu75Yua/BFPm0QNFB/b8qfarBEGm7QGcX40CsX5LBEFnTQNO5
sT9thI/B+N+MQJDm7UArDYHBk62sQJ/gyUCxQ33Bn4+cQCsP0UADIorB2ZbcQCAlhT5JoofBmhKj
QKQvIkG3g6nBbJ3xQOd7KkFqvqbBL7fVQE7SIkFCKLnB4bqJQLNJxT/ZvKXBDh/aQJB2BEFdF6zB
i02XQFoxiEAWR5DBGySfQDi0F0DZ2ZzB2QGBQL5LXkBOD5nB2CXRQIDjHEE9OK3BJs6yQLZU6UAN
lpzBPk3XQDh1+UDI5qDBtn2qQPvmvT/J2pPBbRKAQHgPsECMPY7BmOfwQLZ6BUCuxZLBwABwQJkI
i0Br1aHBqsAJQZT4xr0NcrPBSvOnQDiKUMBiRqnBL+r4QE3n7kBKyojBXS3aQC0u2z+2Lq7Bm8Nz
QGx+kb9RkaTBN3nzQJ/BIMDkjrDBypIMQTPmA0H+lpvB8ThXQKR160ARenzBElqXQBu8B0ECqoDB
MfzNQN6P0UD/D3nBmD6iQEyNrUAMNnTB9g//QPWAbT573oXB7ajKQHsM3j6GMIDByrLSQCgHM796
KIvBsBWMQHKJGEGhHK7Bv8qfQLCCHkGe8qDBk5qcQHpHM0Fd2arBnSoJQbu0JkEmYqnBsyvrQGeU
O0HXE6jB4FvuQJ3PJkEYLZ7BS132QLQeH0FR4LvB3Y2+QPWOGUGD5b3BsnjPQOUDNEFsNLrBUm2D
QKHxC0AbsKzBfLdWQI+MkD8kwKLBWZDCQN9i90AW8bDBNoT6QHgrAUE9Ha/B+RqYQEzJaUDK64jB
kDS4QNipj0AyyZLBIFW8QF8/NUAWGaDB3N5GQI6bQUDW6JXB8mOTQCSaaj/nrpDB0wtSQAyDqkD5
3YjBFd5lQHpEukD9EpXBuhRUQIfadkDcV6fB5YvtQL6n20B7g5DBX47PQMP8Oz+vBK7Bd7WYQD79
Yr8R6ajBNZzdQPqE07+dwK/BM1oAQS2j90ASaZfBLU+mQJZm5j4wAarBHUvrQELnob4Ky7DBbkK0
QJre97+a26vBCzC/QMM55UBInpDBloPSQKqdrD8SCpDBMjaKQClC6kAXgoDBOfWqQLHbxkCRqnvB
2oWeQMkB0ECdcInBCEjbQOxqXz5zJYjBGJzQQBeMBUHS/LHBUt2eQHMDIkGzdarBBM7iQFSJLEF3
zrPB5oOJQBrKyT9NcabBenLnQHh2G0EsuaHBMD2aQJCfiEAu3JDB7WKfQJl5F0CDYp3BODKCQB28
XkCDVZnBlCzOQKGlG0E4ZqzBsD64QCGFAkGZSZfBlXjfQN8dCEFLGpvBBCaqQMAkuD9YopTB4V2D
QGuEsECvs47BVcrtQIV2DUDli5HB3pxvQFkji0DjCKLBS4UJQUB8KL3sc7TBfRWnQAr2TcA55arB
+kj9QNonw0A43IvBNsrZQNAt4T+29K7BoGhyQH1kjb/f0KXBx9LyQE9xHcDO8LHBRBgRQf3f+UBo
eZnBd3BQQHvQ5UCIBX3BaeaSQIUPBkGK9n7BowfLQOZvz0BG0XXBdVmgQFghqUBE4HPBGVT7QINq
sT5hp4TBUiXDQJ4vdT4wvoHBD6/ZQMQ6P79JWYzBM1HyQCM6AUGnULPBMlfBQP/J8kDS5KzBkOO/
QElUBkGyuLnBtJidQC+2MUFVfqbBHPuNQIDjIkFEK7LBvm6PQDb0FUFkV6XB6VbhQLdXPEEO9K/B
AjUCQWY9KEFcTLXBsFrRQMUMLUHWcbvB8E2DQFPaD0BAPa3BNiJWQMrOlD+WhaPB3ekEQfs6HEGM
kqPBwC7eQMelKUGhDp3BfVKcQBA/a0ByeInBUqy6QFnsj0BswJPBqOi8QCdQNEDxiqDBY0JKQJ2w
QkD60ZXBCRWTQPXsVj9i2JHB36dUQKUwqkBn+onBFwJyQAOxvEDFoZXBeIZRQEIJd0BYXKfB6+/p
QNNG7UAnrpDBgJ/QQDreLz/ira3BqgGZQBRcZL/eP6jB4ljdQI8P278lB6/BwQ36QMTW+0CZKJrB
g0anQP0H3j5LnanBZrnrQLdLxb4LULDBE/ezQBZW+78RBKvB+Ba8QDFs40BxeJLB18rTQDL2qz/2
0I/B+FCMQH4Q7kCVWoHB+RCtQOUjy0BwV33BoWKdQAYY0UClPIrB2TvcQPqfYT4/1YfBKELVQEXp
IkH1arnB/yKjQPWXIkEYq6nB/LDxQE4cK0E2GafBjBKLQKJvyj/WQ6bBLoHaQNL9BEG+KKzB2UCa
QPFmiEBsopDBiKSgQNqTF0ASJ53BE8qCQGajXUBuG5nB0CbRQNJRHUFwba3BaLmyQNvr60DmiJzB
7ZfXQGS++kCW86DBRWGrQNWruD8sYJTBGOCBQH5Er0B2S47B2nrvQBwHDECqeJHB9GRvQGFxikDI
yKHBMMUJQeCxEL5IELTBcTOmQLMLT8D/wanB3FP7QI6f6UAYRYnBrW3bQMoW2j/hw67Bh+JyQEDY
ir8eFqXB5g7yQOZFIsCcHrHB4DANQQ7wAkGQ5pvBx/VVQPvR6kBlS33BCcSVQCr6B0H8E4HBOAPO
QFrz00Da+3jBEjqjQALRrkBGH3TBh3r8QLpGrD6VbYTBv1vEQCldhz5WYIHBQ/HZQOcFQL/S74vB
R9z1QGA5H0EwLbzBhA2+QAVxGUE9Cr7B1MbOQLUNNEFUlLrB4NifQDqrHkEjIaHB0sqcQKC8M0GI
36rBghGMQPAfGUFxVa7BP0XvQDZcJ0GchZ7BPSUJQYSZJ0F26qnB4pzqQMApPEEsXqjBQ+CFQHX1
D0DIIq3BIzxYQL5tmD+ieaPBcTfDQJAT+EDaAbHBswb7QJTLAUFqH6/BnWedQA05akDgUInBcz+6
QE8ZkUAFl5PBZBC+QKhINUA3PqDBWQ5MQGBbQEAQmJXBpTSUQHL5WT9siZHBpC5XQFmKqEAlzojB
PGFnQERfuUCPAZXBIvZRQCIUdUBxHafBS97ZQMNqAEG3NojB4wzHQMUnJT+XG67BJEOZQNtchL/g
saXBpwzaQCUu27/XIa/BIQ73QHp3B0Ewc4/BBVSiQHpQnz5gHqjBTRfjQCyVur5RhLHBegK1QLz0
AsDXRKnBIrG6QGBy5kBUHI7BY1HbQBJZwj9g75DBvPF6QD5l50AvAIDByw6cQPAEw0DLynnBz1iW
QFWHz0BysYjBfk/pQHOYGD8524fBLPXSQF5J90C2P7PBGO24QFLSGkHqJajBf+P7QChZHkFF8LLB
PX6FQIQjsz+CFaTBU23+QLi1BUF+DKPBI9KZQMj4ikDKSJHBZ/aeQDbDFUDBuJzBRrCBQEJTXUA6
+pjB9CDhQI2ODkEWJ6zB1fnEQKBC5kDRWpjB8Q/oQCfo/0BEBpnBoxuwQICNyT90k5PB0Kd/QDz1
sEChSI/B7Xr1QMamEUBtCZXB6EZqQFp6h0BhDaLBq1gDQRAYF727ELfBVjusQNaoVcDgAKfBKI/Z
QKHUA0EafX/B/JTNQBGn1j94EbDBSDp6QHPIpL8YHKHBl4LvQDFlH8BBzLHBhcAJQe3UEEGw/I3B
6F41QOzn4kBshX7BqLSFQJBcBEGhHHzBETq6QDZEykD2enHB3jSPQANzpEDA43PB5rwFQcdMQT+w
KYbBj3HWQH20UT8NpYDBgxbkQJDl5r5/N4rB6VfvQJ3c5UB9GLbB+ZW+QIiL4UAbkK7BldPAQGC9
AUH3JbrBvu3CQOhRKEHBFaPBftCmQPzkIEFQDq/B4pKkQGDtD0F0eKPBZAoDQSLfK0F66q3B9yAM
QZkTFkE7G7bB/FvoQDhTJEFOn7nBW4txQAw3/D+P5qrBz6tVQOYzdD+Uk5/B+U4HQSKZ7kB2EqbB
9jQLQYwEEkEvJqHBm3GfQHaDc0AGvYnBza+4QPRalEABzpTB4JO5QKKYMUCiT6HBOiFLQNzUQUAA
9JTBLXObQO+PiD8cA4/BzcpJQDgzqEAVj4vBsh5xQCiwvkAZR5bBrNFLQDS/a0DF8KbB

>  <OMEGA_E>  (102) 
QO4IPqBpcT5AswQ+JLP1Pg==

>  <OMEGA_NBR>  (102) 
     34763

$$$$
50167988
     RDKit          3D

 73 75  0  0  1  0  0  0  0  0999 V2000
    6.2974    0.6100  -21.7135 C   0  0  0  0  0  0  0  0  0  0  0  0
    4.7563   -1.0300  -20.7583 C   0  0  0  0  0  0  0  0  0  0  0  0
    5.7749    7.4584  -19.3574 C   0  0  0  0  0  0  0  0  0  0  0  0
    6.8619   -1.7565  -21.7499 C   0  0  0  0  0  0  0  0  0  0  0  0
    8.0449    8.0777  -19.1084 C   0  0  0  0  0  0  0  0  0  0  0  0
    5.0813    0.3019  -21.0669 C   0  0  0  0  0  0  0  0  0  0  0  0
    6.9740    8.0504  -19.9669 C   0  0  0  0  0  0  0  0  0  0  0  0
    7.1932   -0.4181  -22.0418 C   0  0  0  0  0  0  0  0  0  0  0  0
    5.6418   -2.0601  -21.1105 C   0  0  0  0  0  0  0  0  0  0  0  0
    5.9838    7.0406  -18.0629 C   0  0  0  0  0  0  0  0  0  0  0  0
    6.6709    1.4831  -17.9620 C   0  0  0  0  0  0  0  0  0  0  0  0
    4.6597    7.7157  -14.5322 C   0  0  0  0  0  0  0  0  0  0  0  0
    4.3036    8.4768  -15.8175 C   0  0  0  0  0  0  0  0  0  0  0  0
    5.7860    6.7043  -14.7834 C   0  0  0  0  0  0  0  0  0  0  0  0
    3.8112    7.4965  -16.8746 C   0  0  0  0  0  0  0  0  0  0  0  0
    5.4128    5.7258  -15.9039 C   0  0  0  0  0  0  0  0  0  0  0  0
    4.8762    6.4309  -17.1932 C   0  0  0  0  0  0  0  0  0  0  0  0
    7.0113    0.5392  -16.8123 C   0  0  0  0  0  0  0  0  0  0  0  0
    6.6244   10.3091  -23.1027 C   0  0  0  0  0  0  0  0  0  0  0  0
    7.4230   10.9802  -20.8166 C   0  0  0  0  0  0  0  0  0  0  0  0
    5.0556   10.1410  -21.1444 C   0  0  0  0  0  0  0  0  0  0  0  0
    4.1723    1.4052  -20.6272 C   0  0  0  0  0  0  0  0  0  0  0  0
    7.0369    8.5243  -21.4007 C   0  0  0  0  0  0  0  0  0  0  0  0
    4.8814    4.2564  -18.2636 C   0  0  0  0  0  0  0  0  0  0  0  0
    4.9327    2.2804  -19.6281 C   0  0  1  0  0  0  0  0  0  0  0  0
    4.0388    3.4040  -19.1622 C   0  0  2  0  0  0  0  0  0  0  0  0
    6.5300    9.9818  -21.5956 C   0  0  0  0  0  0  0  0  0  0  0  0
    5.3793    1.4611  -18.4800 N   0  0  0  0  0  0  0  0  0  0  0  0
    4.1298    5.4541  -17.9710 N   0  0  0  0  0  0  0  0  0  0  0  0
    7.4900    2.3254  -18.3154 O   0  0  0  0  0  0  0  0  0  0  0  0
    3.6017    4.1826  -20.2795 O   0  0  0  0  0  0  0  0  0  0  0  0
    8.3720   -0.1183  -22.6312 F   0  0  0  0  0  0  0  0  0  0  0  0
    5.3227   -3.3404  -20.8233 F   0  0  0  0  0  0  0  0  0  0  0  0
    7.6332    7.3793  -17.5730 S   0  0  0  0  0  0  0  0  0  0  0  0
    6.5375    1.6349  -21.9549 H   0  0  0  0  0  0  0  0  0  0  0  0
    3.8300   -1.2596  -20.2527 H   0  0  0  0  0  0  0  0  0  0  0  0
    4.8298    7.3616  -19.8710 H   0  0  0  0  0  0  0  0  0  0  0  0
    7.5433   -2.5510  -22.0162 H   0  0  0  0  0  0  0  0  0  0  0  0
    9.0160    8.4806  -19.3556 H   0  0  0  0  0  0  0  0  0  0  0  0
    4.9870    8.4353  -13.7674 H   0  0  0  0  0  0  0  0  0  0  0  0
    3.7687    7.1795  -14.1736 H   0  0  0  0  0  0  0  0  0  0  0  0
    3.5123    9.2096  -15.6013 H   0  0  0  0  0  0  0  0  0  0  0  0
    5.1958    9.0003  -16.1915 H   0  0  0  0  0  0  0  0  0  0  0  0
    6.6985    7.2474  -15.0705 H   0  0  0  0  0  0  0  0  0  0  0  0
    5.9721    6.1375  -13.8593 H   0  0  0  0  0  0  0  0  0  0  0  0
    2.9043    6.9964  -16.5039 H   0  0  0  0  0  0  0  0  0  0  0  0
    3.5740    8.0514  -17.7943 H   0  0  0  0  0  0  0  0  0  0  0  0
    6.3076    5.1447  -16.1713 H   0  0  0  0  0  0  0  0  0  0  0  0
    4.6333    5.0467  -15.5281 H   0  0  0  0  0  0  0  0  0  0  0  0
    8.0197    0.7670  -16.4365 H   0  0  0  0  0  0  0  0  0  0  0  0
    6.2797    0.6705  -16.0014 H   0  0  0  0  0  0  0  0  0  0  0  0
    6.9796   -0.5005  -17.1700 H   0  0  0  0  0  0  0  0  0  0  0  0
    5.9951    9.6082  -23.6708 H   0  0  0  0  0  0  0  0  0  0  0  0
    6.2764   11.3380  -23.2769 H   0  0  0  0  0  0  0  0  0  0  0  0
    7.6692   10.2144  -23.4336 H   0  0  0  0  0  0  0  0  0  0  0  0
    7.3669   10.7605  -19.7402 H   0  0  0  0  0  0  0  0  0  0  0  0
    8.4646   10.8829  -21.1567 H   0  0  0  0  0  0  0  0  0  0  0  0
    7.0718   12.0064  -21.0000 H   0  0  0  0  0  0  0  0  0  0  0  0
    4.9729    9.9108  -20.0719 H   0  0  0  0  0  0  0  0  0  0  0  0
    4.7270   11.1753  -21.3237 H   0  0  0  0  0  0  0  0  0  0  0  0
    4.4202    9.4498  -21.7176 H   0  0  0  0  0  0  0  0  0  0  0  0
    3.8706    2.0080  -21.4964 H   0  0  0  0  0  0  0  0  0  0  0  0
    3.2781    0.9818  -20.1464 H   0  0  0  0  0  0  0  0  0  0  0  0
    8.0821    8.4711  -21.7394 H   0  0  0  0  0  0  0  0  0  0  0  0
    6.4175    7.8552  -22.0160 H   0  0  0  0  0  0  0  0  0  0  0  0
    5.1029    3.7151  -17.3319 H   0  0  0  0  0  0  0  0  0  0  0  0
    5.8230    4.5178  -18.7685 H   0  0  0  0  0  0  0  0  0  0  0  0
    5.8110    2.7091  -20.1330 H   0  0  0  0  0  0  0  0  0  0  0  0
    3.1830    2.9963  -18.6041 H   0  0  0  0  0  0  0  0  0  0  0  0
    4.7116    0.8537  -18.0495 H   0  0  0  0  0  0  0  0  0  0  0  0
    3.3122    5.1970  -17.4559 H   0  0  0  0  0  0  0  0  0  0  0  0
    3.8595    5.8775  -18.8357 H   0  0  0  0  0  0  0  0  0  0  0  0
    3.0670    3.6445  -20.8513 H   0  0  0  0  0  0  0  0  0  0  0  0
  1  6  2  0
  1  8  1  0
  2  6  1  0
  2  9  2  0
  3  7  1  0
  3 10  2  0
  4  8  2  0
  4  9  1  0
  5  7  2  0
  5 34  1  0
  6 22  1  0
  7 23  1  0
  8 32  1  0
  9 33  1  0
 10 17  1  0
 10 34  1  0
 11 18  1  0
 11 28  1  0
 11 30  2  0
 12 13  1  0
 12 14  1  0
 13 15  1  0
 14 16  1  0
 15 17  1  0
 16 17  1  0
 17 29  1  0
 19 27  1  0
 20 27  1  0
 21 27  1  0
 22 25  1  0
 23 27  1  0
 24 26  1  0
 24 29  1  0
 25 26  1  0
 25 28  1  0
 26 31  1  0
  1 35  1  0
  2 36  1  0
  3 37  1  0
  4 38  1  0
  5 39  1  0
 12 40  1  0
 12 41  1  0
 13 42  1  0
 13 43  1  0
 14 44  1  0
 14 45  1  0
 15 46  1  0
 15 47  1  0
 16 48  1  0
 16 49  1  0
 18 50  1  0
 18 51  1  0
 18 52  1  0
 19 53  1  0
 19 54  1  0
 19 55  1  0
 20 56  1  0
 20 57  1  0
 20 58  1  0
 21 59  1  0
 21 60  1  0
 21 61  1  0
 22 62  1  0
 22 63  1  0
 23 64  1  0
 23 65  1  0
 24 66  1  0
 24 67  1  0
 25 68  1  6
 26 69  1  1
 28 70  1  0
 29 71  1  0
 29 72  1  0
 31 73  1  0
M  CHG  1  29   1
M  END
>  <OMEGA_C>  (103) 
/YPJQHkpHD9Jta3B7TOYQIDYg7/xEKbBUcy4QGSr7kDr25rB75TbQDDW4L/W/63B+LcAQSk+AUEN
3pjBaZqiQFWNmj4GiajBYyvfQEfOAEFAvJ/B5S7mQLsX1r6xVbDBkom0QB/YA8A/4qjBqXu/QFBM
4UDkgJDBAXjVQLrVvT8hso/BSxyVQLLm9kDSg2jBfreJQAKhB0FqFH3B2Sa5QKSJ1kDziGzBaupz
QJDj70Ao/4bBsDWtQOs5t0A+dn7BywmcQKfJzUDBi4nBeFzgQB4KCj+Ff4bBOfvTQAvyJEFr0rjB
f4ntQAevL0FkiKbBTMehQGRBIkGsJ6nB4IOFQCvcsz95BKXBJS7hQKxjCEGmNKvBHzScQC00iEDO
G5LBndidQPXxEUBtBp3Bnz2BQMfaWUAuTJnBtPXQQH+1H0HGw6zB3SKsQCQEuz8V15PBQyeEQOiH
rkCzxI/BSq7vQNnSFEDrhZLB4oJmQPzXhUBcPKLB0/MFQbxT8r2hDLXBTlOqQDfJVcAflqbBWUP0
QDUj7EBwlYzBkDPRQMFE0T+6o6/B4R51QDA8ob+LBaLB142aQCiS60C5957B0WLxQONDI8A5IbDB
V0EQQbSwB0FN2JrB35WfQCr3BkE8R1zBMzJxQBO+5UAdx2LBxchgQGZaE0G8nnnBR0SmQGIBEEFJ
iIHBCVrWQKTq50C4IHHBExu/QGNmxEB/v13BOOA5QC/i30D5B4TBtrtkQLPSAEGlWo7BPdjJQCqh
pEDYXoHBSkSUQIl+oUD+cnjBvlAAQWFYRD/ufYPBAPPIQJqkKz/gAoDBxljfQMkhAL8YXInB7de/
QCq7GUHXXb3BYtjIQEVoNUEbN7rBDWr1QGNuI0EOeLvBr73rQAwrLEH8653B724HQUUgLkEBQanB
NEziQCYaQEENAKjBGSKfQL2SHkE+k6DBmUOXQBnOMkHnlqrBNXKNQHAyF0Gmva3Btbh3QFyDAECg
+KvB28xRQFtXez/aK6HBLFABQYeJB0Ff6q3BClzNQJtd+0DAILDBGkujQLPEbUDIp4rB61W6QDmS
kEDuJZbBavO5QL5hLUBTEKHBhrZLQMXDP0Am1ZTBeMWWQNuNWj9KZZDBdPpTQOBNpkCopYvBqgJ3
QHkUvECVr5bBsklEQCY/aUBrz6bB

>  <OMEGA_E>  (103) 
sP1jPg==

>  <OMEGA_NBR>  (103) 
     36268

$$$$
50167979
     RDKit          3D

 64 66  0  0  1  0  0  0  0  0999 V2000
    7.0961    7.2618  -18.0874 C   0  0  0  0  0  0  0  0  0  0  0  0
    7.6791    7.7688  -19.3326 C   0  0  0  0  0  0  0  0  0  0  0  0
    6.4993    0.6923  -21.6991 C   0  0  0  0  0  0  0  0  0  0  0  0
    4.7757   -0.9035  -21.0236 C   0  0  0  0  0  0  0  0  0  0  0  0
    6.9359   -1.7015  -21.8294 C   0  0  0  0  0  0  0  0  0  0  0  0
    5.2050    0.4270  -21.2021 C   0  0  0  0  0  0  0  0  0  0  0  0
    7.3670   -0.3709  -22.0015 C   0  0  0  0  0  0  0  0  0  0  0  0
    5.6386   -1.9668  -21.3454 C   0  0  0  0  0  0  0  0  0  0  0  0
    5.7475    7.0203  -18.2037 C   0  0  0  0  0  0  0  0  0  0  0  0
    6.7476    7.8767  -20.3350 C   0  0  0  0  0  0  0  0  0  0  0  0
    6.6395    1.3933  -18.0191 C   0  0  0  0  0  0  0  0  0  0  0  0
    4.2674    7.3923  -16.1051 C   0  0  0  0  0  0  0  0  0  0  0  0
    5.3199    6.3481  -15.6899 C   0  0  0  0  0  0  0  0  0  0  0  0
    4.8476    6.4398  -17.1445 C   0  0  0  0  0  0  0  0  0  0  0  0
    6.9241    0.3206  -16.9734 C   0  0  0  0  0  0  0  0  0  0  0  0
    7.6857   10.7592  -20.9830 C   0  0  0  0  0  0  0  0  0  0  0  0
    5.2433   10.2381  -21.3889 C   0  0  0  0  0  0  0  0  0  0  0  0
    6.8528   10.3161  -23.3136 C   0  0  0  0  0  0  0  0  0  0  0  0
    4.3112    1.5688  -20.7868 C   0  0  0  0  0  0  0  0  0  0  0  0
    7.0284    8.4033  -21.7150 C   0  0  0  0  0  0  0  0  0  0  0  0
    4.7533    4.1880  -18.0103 C   0  0  0  0  0  0  0  0  0  0  0  0
    4.9941    2.3741  -19.6660 C   0  0  1  0  0  0  0  0  0  0  0  0
    4.0605    3.4644  -19.1541 C   0  0  2  0  0  0  0  0  0  0  0  0
    6.6972    9.9194  -21.8313 C   0  0  0  0  0  0  0  0  0  0  0  0
    5.3653    1.4618  -18.5690 N   0  0  0  0  0  0  0  0  0  0  0  0
    3.9851    5.3755  -17.6443 N   0  0  0  0  0  0  0  0  0  0  0  0
    7.4935    2.2375  -18.2707 O   0  0  0  0  0  0  0  0  0  0  0  0
    3.7997    4.3811  -20.2180 O   0  0  0  0  0  0  0  0  0  0  0  0
    8.6144   -0.1130  -22.4544 F   0  0  0  0  0  0  0  0  0  0  0  0
    5.2255   -3.2428  -21.1779 F   0  0  0  0  0  0  0  0  0  0  0  0
    5.1767    7.3556  -19.8092 S   0  0  0  0  0  0  0  0  0  0  0  0
    7.6611    7.0967  -17.1819 H   0  0  0  0  0  0  0  0  0  0  0  0
    8.7212    8.0276  -19.4483 H   0  0  0  0  0  0  0  0  0  0  0  0
    6.8227    1.7121  -21.8468 H   0  0  0  0  0  0  0  0  0  0  0  0
    3.7864   -1.1063  -20.6407 H   0  0  0  0  0  0  0  0  0  0  0  0
    7.6001   -2.5188  -22.0684 H   0  0  0  0  0  0  0  0  0  0  0  0
    3.2229    7.2802  -15.7788 H   0  0  0  0  0  0  0  0  0  0  0  0
    4.5315    8.4598  -16.1293 H   0  0  0  0  0  0  0  0  0  0  0  0
    6.3370    6.6679  -15.4192 H   0  0  0  0  0  0  0  0  0  0  0  0
    5.0284    5.4883  -15.0687 H   0  0  0  0  0  0  0  0  0  0  0  0
    7.9333    0.4680  -16.5614 H   0  0  0  0  0  0  0  0  0  0  0  0
    6.1833    0.3927  -16.1634 H   0  0  0  0  0  0  0  0  0  0  0  0
    6.8605   -0.6731  -17.4410 H   0  0  0  0  0  0  0  0  0  0  0  0
    8.7171   10.5363  -21.2934 H   0  0  0  0  0  0  0  0  0  0  0  0
    7.4807   11.8293  -21.1339 H   0  0  0  0  0  0  0  0  0  0  0  0
    7.5607   10.5083  -19.9193 H   0  0  0  0  0  0  0  0  0  0  0  0
    4.5384    9.6438  -21.9889 H   0  0  0  0  0  0  0  0  0  0  0  0
    5.1207    9.9877  -20.3249 H   0  0  0  0  0  0  0  0  0  0  0  0
    5.0407   11.3088  -21.5394 H   0  0  0  0  0  0  0  0  0  0  0  0
    6.1556    9.7262  -23.9267 H   0  0  0  0  0  0  0  0  0  0  0  0
    6.6294   11.3866  -23.4320 H   0  0  0  0  0  0  0  0  0  0  0  0
    7.8847   10.1186  -23.6395 H   0  0  0  0  0  0  0  0  0  0  0  0
    4.1291    2.2248  -21.6507 H   0  0  0  0  0  0  0  0  0  0  0  0
    3.3536    1.1703  -20.4206 H   0  0  0  0  0  0  0  0  0  0  0  0
    8.0937    8.2526  -21.9441 H   0  0  0  0  0  0  0  0  0  0  0  0
    6.4154    7.8479  -22.4400 H   0  0  0  0  0  0  0  0  0  0  0  0
    4.8249    3.5164  -17.1422 H   0  0  0  0  0  0  0  0  0  0  0  0
    5.7634    4.4884  -18.3257 H   0  0  0  0  0  0  0  0  0  0  0  0
    5.9004    2.8455  -20.0740 H   0  0  0  0  0  0  0  0  0  0  0  0
    3.1274    3.0090  -18.7908 H   0  0  0  0  0  0  0  0  0  0  0  0
    4.6595    0.8576  -18.1994 H   0  0  0  0  0  0  0  0  0  0  0  0
    3.3273    5.1297  -16.9324 H   0  0  0  0  0  0  0  0  0  0  0  0
    3.4953    5.7065  -18.4508 H   0  0  0  0  0  0  0  0  0  0  0  0
    3.3669    3.9253  -20.9304 H   0  0  0  0  0  0  0  0  0  0  0  0
  1  2  1  0
  1  9  2  0
  2 10  2  0
  3  6  2  0
  3  7  1  0
  4  6  1  0
  4  8  2  0
  5  7  2  0
  5  8  1  0
  6 19  1  0
  7 29  1  0
  8 30  1  0
  9 14  1  0
  9 31  1  0
 10 20  1  0
 10 31  1  0
 11 15  1  0
 11 25  1  0
 11 27  2  0
 12 13  1  0
 12 14  1  0
 13 14  1  0
 14 26  1  0
 16 24  1  0
 17 24  1  0
 18 24  1  0
 19 22  1  0
 20 24  1  0
 21 23  1  0
 21 26  1  0
 22 23  1  0
 22 25  1  0
 23 28  1  0
  1 32  1  0
  2 33  1  0
  3 34  1  0
  4 35  1  0
  5 36  1  0
 12 37  1  0
 12 38  1  0
 13 39  1  0
 13 40  1  0
 15 41  1  0
 15 42  1  0
 15 43  1  0
 16 44  1  0
 16 45  1  0
 16 46  1  0
 17 47  1  0
 17 48  1  0
 17 49  1  0
 18 50  1  0
 18 51  1  0
 18 52  1  0
 19 53  1  0
 19 54  1  0
 20 55  1  0
 20 56  1  0
 21 57  1  0
 21 58  1  0
 22 59  1  6
 23 60  1  1
 25 61  1  0
 26 62  1  0
 26 63  1  0
 28 64  1  0
M  CHG  1  26   1
M  END
>  <OMEGA_C>  (104) 
YxPjQKpg6EDuspDB5Lr1QPSZ+EAzqZrBXfrPQL86MT+9l63BUNKYQP9OZ79lMKjBTfPdQM7J2b+I
oq7BCY+mQNKi2j4AnqnBYr7rQNjkvb4WA7DBem+0QGLA+79cw6rBouu3QLSm4EAdoZHBluzXQB8O
/EAfrqLBHHfUQJNXsj8nJ5DBcI6IQHqN7EBJ14DBsTyqQIsjy0ClCXvBSR+bQJQSzkDgJ4nB3pHd
QJ4kpD6WyYfB//D1QK8lLEEy3afBMsmnQDHPI0GPHKvBTUrbQKsOJUFJgrrBwPWJQNrPyD9GS6bB
6OjgQAB0BkFbuK3BYRuYQGAEhkAsFZDB+c+fQKXxF0D+U53BOO+BQPq4XUCRO5nBQU/WQPa1HkGK
pq7B1rCrQHsduz9RjZTBMQx/QBYErEBtJ43BXsrvQAczD0B4KpLBHS5zQK0xjECPvqHBfdQJQYB8
572iorPBGzenQAiKT8BTbKnBd6elQMJg60BAeZ7BDCj1QCQY40CCdInBAooLQSFxAEELlpvBK1Pa
QLEm2z9Pxq7BqVRyQFWbjb8UIKXBTzTzQM00IcAkjLDBLEROQKr36EDEdXzBzwGRQHJbB0HYCIHB
oMjKQMRf1UAmtXbB5uigQIugr0A5GXHBat39QO6X7z7IfYTB2d3FQBMSyT6tToHBZInbQPlNLL8l
h4vBcHkLQZqUKEHtWKrBmGHvQANFPUEjEqnB+PDxQP0hKEHGWp/BRDqRQCVNGkE36a/BJt2jQKLN
H0FNmaLBxk2hQKfwNEGrUKzBv/rEQHOeG0H1ab/BNyTUQKcvNkGxdLvBq0/8QO7lIUGnHb3BQiGE
QKRjDkC8NK3BYKFWQGnNlT9QXaPB238BQdkKBEF4ja/Bp0rNQPgh+0AyhbPBeGWaQB4MYUAiI4nB
Bm64QE6hj0Adm5LBU9C8QAAcNkCbl6DBwyZIQGCTQECmU5bBUxqVQLyKWz9TmJHBwPFUQFAmpEB6
dYfBdbNfQO6btkA9m5PBZ3tXQIs3e0B1cafB0HLmQKhj50ApIo7BMXv9QEGk+0Ar+JbBBPrRQABx
PD/9Vq3B4OiZQJArXL9gkKjBVr/fQEIu1L/vhK7BefqnQC/x8D6awanBYe3tQJV9p740n6/B1q+1
QDYi9r/ACKvBPPO7QGrr4EDVapDBBb7jQLWiAUE+pZ/BV4XSQHTCqj++KpDBvwyGQMXg7ECd8oDB
BS2lQD1FykBZ1XnB1iybQClnzkAK4IjBPtXYQEXelz7BXofB05DvQHujK0HzKbbBKsnCQH8LLUHr
i6XBMYSwQLgfE0HRkbTBMAKLQOY/zj+2mqbBpU30QHHfDEHEgqnBILSYQKiEh0BedpDBLcefQP+m
GUC6Z53Bsc+BQJ9sX0ATYJnBJ1bVQBHwHUEgPq7BUv+pQFoPvT+wlJTBCUKAQL2yrUDPso3Bgc3v
QLFrBkCfb5LBE8twQA2YjECL66HBLC0LQYDmjb3s37LBnAKoQAq5TMDzA6rBWfSvQPQR8EDscJ3B
fDf1QN+B3kDvpIbB7YgPQdzZAUEPsZbBO57cQPDK4D+qU67BLL9zQJAXiL+OwqXB9x71QIVnHsCC
WLDBrD1HQJcf6kBngH7B3HyPQNpjB0F+wIDBc+TEQKRj00DvtXPBbQaZQIe7rkBatXDBg0r5QCqw
xz5NDITBMy3BQNrf7D6U/YDBX5PUQMEtNr9FuYrBkxj9QGBIIUGAbLzBrp3aQJGyN0Hu27nBctUE
QVKzM0GV2bHBfeqvQJmnI0Epyp/BlCzdQCYZNUHBVqHBXh+uQGUYOUEaWanBoESdQPQ8CUEeG6/B
1BqcQAeBH0HOL7jBRBC+QEP2CEEB6LrBZzGGQCCtEUDGgq3B/OBXQPhEmz9696PBpUIJQbvgFEG6
bKfBtVb6QMe6AEENs6/BvmmbQIJaZUAxZ4nBFN+4QHjZkEA6K5PBG2C9QIGFN0D3XKDBjLlIQFEq
QkArPJbB2UuSQP0+az+KlpHBNYRSQIyjpUCWg4jBc/FlQKCPuUA6WJTBFClUQD5Ke0CBfKfBd6Xk
QKv930ANi5DBmxj5QIZPAEGYRJfB94TQQDrTPj/Dwq3Bo+OYQPxTXb9b+KjB2I7eQHRy0r/kM6/B
LcKmQMhe8D5qDarBpIPsQAPdnr7+NrDB7rW0QGHE9b+UnKvB8Ue5QBVP5kABpI/BTTjcQDYSD0FM
C5vBISTTQGwHpz80epDBgnyFQO+250AbZn/BI2KoQJ/8xkBPlXnBE42bQHjozUAkdojBRGTaQAzV
bz45+ofBBsXrQFKGLUE5bbXB4KWkQOK/IUFcQK7BT47fQDqBBkFatbHBOfiJQDgFzT/mm6bBRbTn
QKZeIUGaW6LBtK+aQAHkh0Cvs5DBI62fQAd0GEDJep3B7nmCQGjkXkBZSpnBB6XVQB6YHUFhza3B
RVuqQNqTuT8FvpTBnbuBQCd1rUCHv43BawHwQFTJBUCqp5LBNtJvQJgAjEAF0qHBqW4KQaAGLL2e
eLPBt2enQFjDTMB3kqrBwWyoQHYcCUFR5pbBCrL1QF4LxkBjv4zBxXQNQdSrAEGwCpnBB/HaQF5W
4j/5ta7BKvNxQGK/ib+RHqbB3O/zQGstHcD9LbHBJbVHQKM84UDIVnvBmOWLQPQWBUHAzn3BZsfH
QP0D0kA82HPBYbyfQLkSqUBDYHHBbQX7QLH0pj5cwoTB8BXDQPMjuz5+d4HBgUnWQN3rQr9Uk4vB
TkgHQVrjKkHxPrXBedffQL4SK0Finb3BzK3kQGz7PUFA3LLB5iGUQHiMFkEa3ajB8vqdQA9HMkFg
uqvBnySZQGFeH0GCe7bBtAPQQOHG9UATXKzBd1DTQFFpBEF35LnBDi4BQSLgA0HOo7HBfk6EQKSa
EUAPbK3BVoNWQEwHmT87y6PBDy7aQFhFMEEsHp/B1l8FQaXFIkFxy6LBxUOfQFmpZkC9ponBbA66
QEnokUCFz5PBnzK9QDy5NUBLk6DBxO1KQI9EQkBc0pXBidWSQCxgYz8/tJHB6ZlUQPtrpEBSyojB
EABqQGEZukBPX5TBXoVRQOG7eUDuNqfBm97hQHYe3EAfiJDBSjP4QMUM6kDTJZrBVCfKQKm5Gz+A
Dq7BZcWYQDuFd7/roaXBKrDaQFzk4r+D363Bjq2jQGxWtD4OiqjBqrHlQAZo575srrDBNTi0QF7h
AcA1WqjBvmm2QBwi4UD1ZZHBjLHcQCbk+kCBmqHBNerWQD68uT8dT5DBSmWCQOeF8EBgtYHBayCj
QGOez0DdG3vBu/mWQNbH0EA2aInBzFXgQK4MAj+oAofBe4wBQQ6WL0HnXbDB6cAJQXggJEEglJ3B
bkTHQJi2LEFuFKPBraKHQOd7wD+zN6XBLn/rQDESC0HdvKrB/ruXQC6giEA4VpDBD8ufQNiOGECs
Hp3BfMWCQL6VYUCEhJnBrR3yQC+WIkE70abBIPqsQI0exz/U7JPBX7J6QPrirUCVpI3BFkLzQF4C
DEDfrpPB4215QNRnjUA5T6LBHV4FQSyHTL6w4bXBeNGpQJnkUsAAmKXBNpCnQCNh9UBIx53BKqzx
QJFYz0D4ionBgC4NQUtw50BfR5vBPHTSQNJRzz/sQ7DBpOR2QICglL8oVaHBp73vQHutJcCu86/B
nb9AQItU7UBAMX/BJvOKQP1QCUF7GILBkRfDQL8t2kCm93XBOYSYQFDgtEDw93DBBuUAQV4JIj9e
doTBQOfKQEf7PT8TSYDBqBjbQL4HCL+dk4nBHgrsQPq9LkGkALfBrrYDQSNfQEHE863Biv0QQYjx
KEFa+bLBBwcEQTDvGkFWpJbBiSUZQdaNHUGqTKDBrd4LQXL7NEEUR5vB75a6QOufI0EqPpzBhdHM
QD5oPUGqqaDBpwmwQFFJLEEisKnBX5N+QNSgBkABS6zBlXZUQO7ojj+WgKHBb/cEQVfGBEFY163B
SErTQF3PCkERILHBsUKaQPjTZkCuV4nB0+K3QL9Ck0DFvJLBdkO8QMyNM0AOC6HBLeNHQPwzR0Ad
15bB3WCWQE/ihD8yD5DBHHVPQPNHpUC3JojBPKBcQGvut0BHPpTBQyxfQPoRfUCPEajB

>  <OMEGA_E>  (104) 
QHfEPQCIpT0As1w+gBe9Pg==

>  <OMEGA_NBR>  (104) 
     40683

$$$$
50167938
     RDKit          3D

 63 65  0  0  1  0  0  0  0  0999 V2000
    6.4922    0.6843  -21.6559 C   0  0  0  0  0  0  0  0  0  0  0  0
    4.7925   -0.9314  -20.9678 C   0  0  0  0  0  0  0  0  0  0  0  0
    6.9570   -1.7043  -21.7868 C   0  0  0  0  0  0  0  0  0  0  0  0
    7.9432    7.8324  -19.3230 C   0  0  0  0  0  0  0  0  0  0  0  0
    5.2045    0.4040  -21.1487 C   0  0  0  0  0  0  0  0  0  0  0  0
    7.3711   -0.3689  -21.9626 C   0  0  0  0  0  0  0  0  0  0  0  0
    5.6658   -1.9844  -21.2949 C   0  0  0  0  0  0  0  0  0  0  0  0
    6.8062    7.8454  -20.0924 C   0  0  0  0  0  0  0  0  0  0  0  0
    5.8982    7.0960  -18.1419 C   0  0  0  0  0  0  0  0  0  0  0  0
    6.6013    1.4330  -17.9446 C   0  0  0  0  0  0  0  0  0  0  0  0
    4.2477    7.4353  -16.1521 C   0  0  0  0  0  0  0  0  0  0  0  0
    5.2235    6.3293  -15.7223 C   0  0  0  0  0  0  0  0  0  0  0  0
    4.8627    6.5149  -17.2030 C   0  0  0  0  0  0  0  0  0  0  0  0
    6.9030    0.3281  -16.9370 C   0  0  0  0  0  0  0  0  0  0  0  0
    6.5811   10.1468  -23.2047 C   0  0  0  0  0  0  0  0  0  0  0  0
    7.4895   10.6903  -20.9296 C   0  0  0  0  0  0  0  0  0  0  0  0
    5.0405   10.1084  -21.2143 C   0  0  0  0  0  0  0  0  0  0  0  0
    4.2927    1.5341  -20.7390 C   0  0  0  0  0  0  0  0  0  0  0  0
    6.8116    8.2911  -21.5369 C   0  0  0  0  0  0  0  0  0  0  0  0
    4.7465    4.2612  -18.0663 C   0  0  0  0  0  0  0  0  0  0  0  0
    4.9674    2.3677  -19.6341 C   0  0  1  0  0  0  0  0  0  0  0  0
    4.0323    3.4719  -19.1511 C   0  0  2  0  0  0  0  0  0  0  0  0
    6.4783    9.8026  -21.7023 C   0  0  0  0  0  0  0  0  0  0  0  0
    5.6757    7.3910  -19.4042 N   0  0  0  0  0  0  0  0  0  0  0  0
    5.3327    1.4847  -18.5105 N   0  0  0  0  0  0  0  0  0  0  0  0
    4.0089    5.4949  -17.7980 N   0  0  0  0  0  0  0  0  0  0  0  0
    7.5120    2.1509  -18.3447 O   0  0  0  0  0  0  0  0  0  0  0  0
    3.7330    4.3389  -20.2467 O   0  0  0  0  0  0  0  0  0  0  0  0
    8.6128   -0.0973  -22.4234 F   0  0  0  0  0  0  0  0  0  0  0  0
    5.2677   -3.2650  -21.1267 F   0  0  0  0  0  0  0  0  0  0  0  0
    7.5778    7.3013  -17.7274 S   0  0  0  0  0  0  0  0  0  0  0  0
    6.8018    1.7077  -21.8080 H   0  0  0  0  0  0  0  0  0  0  0  0
    3.8081   -1.1460  -20.5789 H   0  0  0  0  0  0  0  0  0  0  0  0
    7.6294   -2.5140  -22.0290 H   0  0  0  0  0  0  0  0  0  0  0  0
    8.9262    8.1150  -19.6696 H   0  0  0  0  0  0  0  0  0  0  0  0
    3.1790    7.3513  -15.9058 H   0  0  0  0  0  0  0  0  0  0  0  0
    4.5546    8.4902  -16.0983 H   0  0  0  0  0  0  0  0  0  0  0  0
    6.2298    6.5911  -15.3633 H   0  0  0  0  0  0  0  0  0  0  0  0
    4.8541    5.4522  -15.1708 H   0  0  0  0  0  0  0  0  0  0  0  0
    7.9761    0.3344  -16.6955 H   0  0  0  0  0  0  0  0  0  0  0  0
    6.3200    0.4991  -16.0200 H   0  0  0  0  0  0  0  0  0  0  0  0
    6.6301   -0.6462  -17.3687 H   0  0  0  0  0  0  0  0  0  0  0  0
    5.8711    9.5277  -23.7726 H   0  0  0  0  0  0  0  0  0  0  0  0
    6.3416   11.2100  -23.3544 H   0  0  0  0  0  0  0  0  0  0  0  0
    7.6040    9.9483  -23.5571 H   0  0  0  0  0  0  0  0  0  0  0  0
    7.4330   10.4612  -19.8552 H   0  0  0  0  0  0  0  0  0  0  0  0
    8.5075   10.4888  -21.2944 H   0  0  0  0  0  0  0  0  0  0  0  0
    7.2451   11.7505  -21.0917 H   0  0  0  0  0  0  0  0  0  0  0  0
    4.9566    9.8666  -20.1445 H   0  0  0  0  0  0  0  0  0  0  0  0
    4.8207   11.1754  -21.3672 H   0  0  0  0  0  0  0  0  0  0  0  0
    4.3227    9.5008  -21.7849 H   0  0  0  0  0  0  0  0  0  0  0  0
    4.0906    2.1754  -21.6095 H   0  0  0  0  0  0  0  0  0  0  0  0
    3.3461    1.1216  -20.3598 H   0  0  0  0  0  0  0  0  0  0  0  0
    7.8097    8.1029  -21.9592 H   0  0  0  0  0  0  0  0  0  0  0  0
    6.0631    7.7036  -22.0889 H   0  0  0  0  0  0  0  0  0  0  0  0
    4.7992    3.6580  -17.1480 H   0  0  0  0  0  0  0  0  0  0  0  0
    5.7645    4.5079  -18.4019 H   0  0  0  0  0  0  0  0  0  0  0  0
    5.8763    2.8290  -20.0480 H   0  0  0  0  0  0  0  0  0  0  0  0
    3.1149    3.0249  -18.7406 H   0  0  0  0  0  0  0  0  0  0  0  0
    4.6251    0.8872  -18.1332 H   0  0  0  0  0  0  0  0  0  0  0  0
    3.2582    5.2933  -17.1689 H   0  0  0  0  0  0  0  0  0  0  0  0
    3.6379    5.8443  -18.6584 H   0  0  0  0  0  0  0  0  0  0  0  0
    3.2864    3.8481  -20.9266 H   0  0  0  0  0  0  0  0  0  0  0  0
  1  5  2  0
  1  6  1  0
  2  5  1  0
  2  7  2  0
  3  6  2  0
  3  7  1  0
  4  8  2  0
  4 31  1  0
  5 18  1  0
  6 29  1  0
  7 30  1  0
  8 19  1  0
  8 24  1  0
  9 13  1  0
  9 24  2  0
  9 31  1  0
 10 14  1  0
 10 25  1  0
 10 27  2  0
 11 12  1  0
 11 13  1  0
 12 13  1  0
 13 26  1  0
 15 23  1  0
 16 23  1  0
 17 23  1  0
 18 21  1  0
 19 23  1  0
 20 22  1  0
 20 26  1  0
 21 22  1  0
 21 25  1  0
 22 28  1  0
  1 32  1  0
  2 33  1  0
  3 34  1  0
  4 35  1  0
 11 36  1  0
 11 37  1  0
 12 38  1  0
 12 39  1  0
 14 40  1  0
 14 41  1  0
 14 42  1  0
 15 43  1  0
 15 44  1  0
 15 45  1  0
 16 46  1  0
 16 47  1  0
 16 48  1  0
 17 49  1  0
 17 50  1  0
 17 51  1  0
 18 52  1  0
 18 53  1  0
 19 54  1  0
 19 55  1  0
 20 56  1  0
 20 57  1  0
 21 58  1  6
 22 59  1  1
 25 60  1  0
 26 61  1  0
 26 62  1  0
 28 63  1  0
M  CHG  1  26   1
M  END
>  <OMEGA_C>  (105) 
fsDPQNksLz80P63BaVyZQO1ybr8ovqfBlp/eQCUn2r9ES67BhS7+QPmi+kCalZrB44qmQLrUzj6R
MKnBQODrQPTlvL6As6/BlU61QGcC/r/iW6rBUczZQHUN+0A7vaDB6728QK0S40CEIpHBqD3TQB5s
tz+Bjo/BgO2HQMHt7UB3N4HBEienQMiJykCSjnvBJJubQGZ60EDEn4nBPuXcQNb8pz4Af4fBDZjS
QGxZIkE4o7nB4KnvQJELK0Hab6fBo0uhQDG8IUHotqnB3l2JQJBdxD9n6aXBPvjZQFSoBEGfS6zB
8OKXQN9biEDgh5DBUfWeQKeIF0CaEp3BxwiBQLUzXkB9NZnBME7PQJ7XHEFSnq3BPp+1QNyC7EDN
O5vBHKWqQLQJvj+CFZTBjkiAQDTWr0BgYo7BFmLwQIunCUDwwZLBWOluQOzXikA0+aHBGc4JQQRa
x70rY7PBz5CoQA32UMCEA6nBoH3yQGik6UCe0Y3Bd6jZQHmW2j+/dq7BQLhzQPCvkr+HoaTB1SP0
QIXlIMBrO7DB4tEOQRjXAUFkW53B9nNLQLs960BQfn7BWr+RQP7XB0FNyYDBSVrHQHXq0kDmz3XB
6lSbQDR4rkCcu3LBgTz/QKU0qz57kIXBCj3KQL6D/z4HKYDB9CnUQEFqJb8m84rB89+7QE1xGEFh
Lr7BAO7KQPhbM0HL1brB+VPzQCwsH0HmdLzBcNvtQDlhJ0F8157BwB4IQUrSJ0HZWqrBh9fnQBYC
PEG+u6jBR5yeQGbdHUH7J6HB6UKaQEbOMkEE8KrB2lOKQCYDGEF3R67BgOaCQNs5C0BX4KzBTCZW
QGKRjz/e4KLBv+j5QFqlAUGGrK/B/gTCQPeD9kAYtrDBw5KZQBcdakATL4nBLHe4QO5AkEAnN5PB
VQq8QOENNUA7YqDBTVpHQIaYQUC87JXBkwCUQJ0hYz+0EJHB2YVQQNliqUDfWYnBENRoQNEEu0CB
RJXBllRSQLJHdkCeaafBFzTQQIXKPz+vyq3BtK2ZQLY+Yr8ZtqjBKzvfQBBH0b/XPK/BIQkCQYx7
+UCLUZjBzdmmQG6B6T7o4anBxnPsQEpRl77LYbDBaMy1QMjG9r9gcavBsZzhQABsCUFB05rBVum/
QGyo4kD+DpDBFibTQEy3sj/VMJDBmhqHQO0r7EBgAoHBEAqmQI2pyEDMrnrBbvecQMqCz0D5O4nB
41HcQC6Umj5WAojBFRbfQDSvLUED2LPBYledQPpLH0Gey6rBvQ3WQETxBUGV5rHBJomJQATJyT+g
c6bBsi7mQC5mHUF7maHBlZ2YQKM+iEBtupDBE/CeQOqRGECmbZ3BJyWBQJPAXkA9YZnBSv/NQDnZ
G0G1bazBZne7QOxHAkG0KJbBGnWqQJJQvD/9oJTBAwCCQHdEsEBqpI7Bhn/uQF+UD0C6GJLB/wVu
QE1vi0DYC6LBPSAKQUC4Q7zi9rPBUBypQCOeTcAzWqrBS5T0QOh+0ED67Y/B9h7aQFBa4z97yq7B
Xh50QFDjjb8HuaXBq9z0QD0JHMAXRbHBtSMSQVh9/kDSMJvBihtJQBgA6UCNDH/BkHOQQAD+BkFV
SYDBuIDFQB4W0UB6AnTB7pqZQDYarEBdfHLBeq78QMaj4D6NuYTBoLvEQIPztz5AfoHBvCbaQIWV
Lr8r6IvBNtMAQZl5K0EYF7XBxXjOQCLoLEGUl7vByEvZQB1gPUFIIbDB+qGQQPW2EkGchqXBfdSX
QI8ML0G7HqfBegGNQJOUHkEHlbLBhxPKQDQK8kAiu6zBGDjFQCd4BUEdoLnB4JX4QC/NA0HQOrPB
Bj2DQNMxD0CyTq3BOlhWQE3fkz/NiqPB/l7ZQCoTK0F/FJ3BMS4EQeYGIEFiPqPB7tGZQPQeakAu
W4nBqWG5QFBJj0BHa5PBEB+8QBGGNkDhnqDBYwpIQLDMQUCvA5bB87KTQAxBXz/Rr5HBZCJRQN8X
qkD3CYrBR39wQHiavEAXnJXBs69QQBTdd0BXdafB+u3QQNjbPT/bv63BWPiZQPeYYb9awKjB5hTf
QMqb0r+4dq/BRzgDQdbI+UAKGpjBGH+nQJRn6T6m3KnBxMvsQIsanr5edbDB+qS1QDUW978foqvB
ojbkQK6mCUHztJrBnN3BQMh440A36o/BaG/SQPy2rT9tCpDBnnKIQFiU60Cp5YDBkLamQFQhx0CM
/nrBxEeeQCjpz0DPWInBRh3bQEC9bD5jGojBQsedQCURIkHIdanBWlTOQBBiBUETMLHB3lneQDpC
LEHbR7TBGkOKQDRXyj/TfabBIuroQG4sHUHo06HBVDGZQHraiEC86ZDB3iKfQPItGECnVp3BGCKB
QIMjXkCxS5nB8LbMQNP+G0FpEqzB0vC9QIjHAkEZ+pXBzPSpQI4juj/Ej5TBqlWDQC6FsUCtEY/B
sO/tQLlcDUBzqJHBURtrQAJLikAtA6LBQ1kKQSBdCr2SA7TBcnioQKeUTcAFr6rBXGv2QCz+0EBE
sY/BgTTbQAEl4j8bpK7BRNR0QGfNjL97saXB8Vb0QE7zHMBqo7HBeGITQfqN/kCu6ZrBTJdLQHOp
6EAlEX/BWziSQHCPBkFPpH/BZCLGQCKZzkCn/nPBr7WZQLUjqkB9a3PBR1P7QLpntD52sITBhzfD
QFwjiD7ZpYHBPw3ZQDu1PL/3PozBO+KcQAcaMkHK1qXBmMiKQK0OIkFt3rDBzFeQQNpYFkG60aPB
KLjvQDEvAUHPBLPBFvvAQFc580CMj6vB42u7QH9SBUFAnLjBs7L/QBI0KEGuPLbBKtTKQIyyK0EO
mbvBfRHdQP1zPEF92bDBr5mEQPDkD0BMV63BkDRXQDIIlT+XvKPB/pjfQHNuK0FlOZ3BeVAFQQiU
HkETQqTBc2+aQJlAbUAhZInBr/C5QKYRj0DXvZPB3Yy8QFBDNkAxYKDBb0VJQBnHQEAhqZXBVNOS
QCUDXT//sZHBrt5RQGIVrEDMwYrB9Gd2QL0nvkDfIZbB0Q1NQIFMdEA4PqfBTvvPQMtaOD+Xvq3B
QqqZQCUEZr+wPqjB3dneQKN+1b+S3a7B+AHwQLxPAUHKZJvBNcWmQCzQ3z4stKnBDCDsQETBqb65
N7DBj5K1QNyX+b9B6KrBp/jGQBmbBkFdj57BU123QKfR4UDFpZDBhKDVQIydvD+pOpDBLmiHQCf4
6UAWLYDBesmpQEnlyEDvL3rB5sGaQAPnzEDvrYjBj5jgQNIqxT5UI4jBNjnCQBleKkEaBLjBB9Tx
QDoRC0Hvf7TB8ID5QBALLkHEuanBGriJQBxByD/CUKbBZbq3QNn9FUHYIqfB5XiYQOEfhkBLQJDB
vKCfQJ9hGEDncJ3B+k+BQHJxXEC5GpnBbRPaQLkPHkHOG6/BKCaoQP7e+EBkeZjBIfusQL/uvD93
vZTBN1B/QJiaq0CXKo3BJYfxQO0cEEDiNpPBrj1tQARDi0BChaHBg/cJQQi9ab0T17PBlNCoQBLA
TsB4kqnBnMnuQE6E4EA1k5DBxN7ZQHxD3z8U767BWn10QPKgjr91FqXB2lD0QEyCHsDu3LDBR20G
QbYSB0FfLp/B4RVMQEBX5UAHPnvBxxqPQHwoBkGgG4DB8BXKQNmQ00D3qHXBGgahQCKXrEC+r3DB
aE8BQWG66j7h9YXBJM3MQAd2Az8l74DBBEXaQNMpGr9orovBW/OwQLv9N0HmfrTBD3PZQPhEMEH7
7r3BqEmrQDSaH0Hh9rvBTqEBQeviAUHcYq7BVXDaQKaZAEFke7jB3kwEQWlEEUF+c7rBIpYFQYHa
JUFhT6PBhBwIQVUWNEHIuq/Bz1znQB2CO0H0U6bBzjKDQPDODUCoN63Bjd9WQMBbkz9xSKPBzKGe
QPLeDUFbyKvBzweqQGUNJEGwGaPBNFmcQNTjYUAaSonBTyW4QKxNkEA2IJPBm/W7QGYkOEB11aDB
nudIQPajPUDg2pXBX3uXQC0qUz+P6pHBPelTQCn1okDmsofBSXlhQBAot0CjoJPBcUZQQFmGeEAg
DafBSS7QQPMsKj8RR63B22qZQDGycr8d9afBkOfeQE/F3L8GVq7B5+b+QEGY+0D+dJrB2MCmQGA2
xj5eWKnBIVbsQNSmx76Bq6/Bo2a1QJUrAMBBg6rBDb3aQNWv+0BysaDBM3C9QBLa4kDQLZHBmFbU
QOPfsz9dEZDBfASIQOHK7UBvaYHBdkinQIq4ykCYm3vBsjGcQKEY0ECBsonB5IfdQEpDuj7Zc4fB
YOvwQFV9K0H2iqfBs4CiQFMTIkETm6nBBh7TQIWdIkFEprnBtoyJQFiTwj9NGKbBszbbQP8HBUGa
QKzBzj+YQGy6h0CwnJDBKhufQKLNFkBUQp3BAQCBQMy0XEAXO5nBTmDQQNgyHUHym63BaYi2QGWQ
7ECMRpvBClyrQC0LvD/jWZTBn9yAQC1fr0B8dY7BNvfvQDNPDkDJd5LBU79sQPlGikBO46HB1CYK
QSyg9b1mNLPBeImoQLMTUsBsMKnBtP7yQMUT6kBIvo3BHDvaQAIG2D9ucq7BS4dzQIiglL/m76TB
m2v0QD5HIsB3PrDBMCoPQcySAkGsJJ3BrIFLQGwA60CxCn/BEqSRQEvPB0FBC4HBjFHHQI1k00BO
vnXBUG6bQGPGrkB9snLBNDH+QFRpAT+PX4TB6XPGQMYN9T4g34DBLJHaQLjiJL8o5orBVb0IQfYA
KEGEZarBE2/pQBBvPEFIA6nBVOruQB0rKEFb6p7BNXqLQAfuF0FH6q3BenagQALAHkG1+qDBOfua
QPUDM0GjE6vBZ0G8QKqkGEGjHL7B+U/LQAubM0Ed3LrBjb7zQGB1H0HsjLzB4SODQOs1CkDoEq3B
/nVWQPT2jT/kEKPBykr7QOQYAkGjkK/BjH/DQE4q90CZuLDBcBeaQKgZaUBMP4nBAca4QF1yj0CM
XpPBxuy7QB4aNUCgmqDBXShIQLpDP0B60pXBo9SUQL+8YD8TNJHBUaRRQBwBqUC6bInBzgxqQAiQ
ukBIWJXBErRPQCIodUAWSqfB

>  <OMEGA_E>  (105) 
sP4EPoAEfj4or4o+dCiUPtj+Az4=

>  <OMEGA_NBR>  (105) 
     46052

$$$$
50168376
     RDKit          3D

 64 66  0  0  1  0  0  0  0  0999 V2000
    6.5198    0.6842  -21.6653 C   0  0  0  0  0  0  0  0  0  0  0  0
    4.8138   -0.9401  -21.0138 C   0  0  0  0  0  0  0  0  0  0  0  0
    6.9932   -1.7026  -21.8029 C   0  0  0  0  0  0  0  0  0  0  0  0
    7.3667    7.4514  -18.0389 C   0  0  0  0  0  0  0  0  0  0  0  0
    5.6599    7.3698  -19.5630 C   0  0  0  0  0  0  0  0  0  0  0  0
    5.9495    7.0678  -18.2597 C   0  0  0  0  0  0  0  0  0  0  0  0
    5.2246    0.3980  -21.1798 C   0  0  0  0  0  0  0  0  0  0  0  0
    7.4060   -0.3652  -21.9654 C   0  0  0  0  0  0  0  0  0  0  0  0
    5.6961   -1.9889  -21.3313 C   0  0  0  0  0  0  0  0  0  0  0  0
    6.6293    1.3858  -18.0067 C   0  0  0  0  0  0  0  0  0  0  0  0
    4.4177    7.4158  -16.1641 C   0  0  0  0  0  0  0  0  0  0  0  0
    5.4062    6.2973  -15.8031 C   0  0  0  0  0  0  0  0  0  0  0  0
    4.9618    6.4987  -17.2578 C   0  0  0  0  0  0  0  0  0  0  0  0
    6.9123    0.3432  -16.9299 C   0  0  0  0  0  0  0  0  0  0  0  0
    6.6767   10.1587  -23.1557 C   0  0  0  0  0  0  0  0  0  0  0  0
    5.1213   10.1038  -21.1821 C   0  0  0  0  0  0  0  0  0  0  0  0
    7.5443   10.7671  -20.8769 C   0  0  0  0  0  0  0  0  0  0  0  0
    4.3055    1.5241  -20.7687 C   0  0  0  0  0  0  0  0  0  0  0  0
    6.9718    8.3463  -21.4541 C   0  0  0  0  0  0  0  0  0  0  0  0
    4.7650    4.2349  -18.0788 C   0  0  0  0  0  0  0  0  0  0  0  0
    4.9694    2.3508  -19.6514 C   0  0  1  0  0  0  0  0  0  0  0  0
    4.0238    3.4365  -19.1406 C   0  0  2  0  0  0  0  0  0  0  0  0
    6.5757    9.8384  -21.6479 C   0  0  0  0  0  0  0  0  0  0  0  0
    7.8563    7.9297  -19.1621 N   0  0  0  0  0  0  0  0  0  0  0  0
    6.8377    7.8737  -20.0558 N   0  0  0  0  0  0  0  0  0  0  0  0
    5.3504    1.4521  -18.5461 N   0  0  0  0  0  0  0  0  0  0  0  0
    4.0625    5.4889  -17.8079 N   0  0  0  0  0  0  0  0  0  0  0  0
    7.4875    2.2161  -18.2874 O   0  0  0  0  0  0  0  0  0  0  0  0
    3.6679    4.2964  -20.2248 O   0  0  0  0  0  0  0  0  0  0  0  0
    8.6542   -0.0882  -22.4050 F   0  0  0  0  0  0  0  0  0  0  0  0
    5.3023   -3.2717  -21.1695 F   0  0  0  0  0  0  0  0  0  0  0  0
    6.8295    1.7092  -21.8058 H   0  0  0  0  0  0  0  0  0  0  0  0
    3.8234   -1.1598  -20.6434 H   0  0  0  0  0  0  0  0  0  0  0  0
    7.6713   -2.5091  -22.0399 H   0  0  0  0  0  0  0  0  0  0  0  0
    7.9068    7.3537  -17.1088 H   0  0  0  0  0  0  0  0  0  0  0  0
    4.7221    7.2413  -20.0831 H   0  0  0  0  0  0  0  0  0  0  0  0
    3.3645    7.3391  -15.8561 H   0  0  0  0  0  0  0  0  0  0  0  0
    4.7373    8.4674  -16.1192 H   0  0  0  0  0  0  0  0  0  0  0  0
    6.4343    6.5467  -15.5015 H   0  0  0  0  0  0  0  0  0  0  0  0
    5.0615    5.4185  -15.2384 H   0  0  0  0  0  0  0  0  0  0  0  0
    7.9244    0.4966  -16.5273 H   0  0  0  0  0  0  0  0  0  0  0  0
    6.1760    0.4446  -16.1190 H   0  0  0  0  0  0  0  0  0  0  0  0
    6.8403   -0.6638  -17.3667 H   0  0  0  0  0  0  0  0  0  0  0  0
    7.7044    9.9751  -23.5020 H   0  0  0  0  0  0  0  0  0  0  0  0
    5.9811    9.5153  -23.7145 H   0  0  0  0  0  0  0  0  0  0  0  0
    6.4160   11.2140  -23.3244 H   0  0  0  0  0  0  0  0  0  0  0  0
    5.0329    9.8799  -20.1088 H   0  0  0  0  0  0  0  0  0  0  0  0
    4.8667   11.1592  -21.3586 H   0  0  0  0  0  0  0  0  0  0  0  0
    4.4318    9.4606  -21.7486 H   0  0  0  0  0  0  0  0  0  0  0  0
    7.4826   10.5495  -19.8004 H   0  0  0  0  0  0  0  0  0  0  0  0
    8.5729   10.5958  -21.2271 H   0  0  0  0  0  0  0  0  0  0  0  0
    7.2660   11.8162  -21.0553 H   0  0  0  0  0  0  0  0  0  0  0  0
    4.1093    2.1717  -21.6360 H   0  0  0  0  0  0  0  0  0  0  0  0
    3.3567    1.1066  -20.4008 H   0  0  0  0  0  0  0  0  0  0  0  0
    6.3242    7.7286  -22.0936 H   0  0  0  0  0  0  0  0  0  0  0  0
    8.0198    8.2216  -21.7644 H   0  0  0  0  0  0  0  0  0  0  0  0
    4.8224    3.6432  -17.1533 H   0  0  0  0  0  0  0  0  0  0  0  0
    5.7816    4.4576  -18.4353 H   0  0  0  0  0  0  0  0  0  0  0  0
    5.8708    2.8311  -20.0597 H   0  0  0  0  0  0  0  0  0  0  0  0
    3.1314    2.9701  -18.6977 H   0  0  0  0  0  0  0  0  0  0  0  0
    4.6464    0.8548  -18.1618 H   0  0  0  0  0  0  0  0  0  0  0  0
    3.3289    5.3148  -17.1510 H   0  0  0  0  0  0  0  0  0  0  0  0
    3.6711    5.8329  -18.6614 H   0  0  0  0  0  0  0  0  0  0  0  0
    3.2051    3.7967  -20.8871 H   0  0  0  0  0  0  0  0  0  0  0  0
  1  7  2  0
  1  8  1  0
  2  7  1  0
  2  9  2  0
  3  8  2  0
  3  9  1  0
  4  6  1  0
  4 24  2  0
  5  6  2  0
  5 25  1  0
  6 13  1  0
  7 18  1  0
  8 30  1  0
  9 31  1  0
 10 14  1  0
 10 26  1  0
 10 28  2  0
 11 12  1  0
 11 13  1  0
 12 13  1  0
 13 27  1  0
 15 23  1  0
 16 23  1  0
 17 23  1  0
 18 21  1  0
 19 23  1  0
 19 25  1  0
 20 22  1  0
 20 27  1  0
 21 22  1  0
 21 26  1  0
 22 29  1  0
 24 25  1  0
  1 32  1  0
  2 33  1  0
  3 34  1  0
  4 35  1  0
  5 36  1  0
 11 37  1  0
 11 38  1  0
 12 39  1  0
 12 40  1  0
 14 41  1  0
 14 42  1  0
 14 43  1  0
 15 44  1  0
 15 45  1  0
 15 46  1  0
 16 47  1  0
 16 48  1  0
 16 49  1  0
 17 50  1  0
 17 51  1  0
 17 52  1  0
 18 53  1  0
 18 54  1  0
 19 55  1  0
 19 56  1  0
 20 57  1  0
 20 58  1  0
 21 59  1  6
 22 60  1  1
 26 61  1  0
 27 62  1  0
 27 63  1  0
 29 64  1  0
M  CHG  1  27   1
M  END
>  <OMEGA_C>  (106) 
faLQQCImLz9xUq3BDwuaQMiocL8/HKjBssjfQK7v2b9gbK7By7vrQN5x7kC4T5DBFx61QP/U60Af
gZzBe2K+QJ0r4kD2E5LB4C+nQBPByz5PcKnBI/7sQPD+ur42ua/BXUa2QKiV/r9ppqrBQyPUQFNi
sT/LDZDBH16NQCVO7UAPUIHB//+sQDWDyUBh2XzBZMeeQHX1z0D2D4rBrjHdQEe4rz51cIfBRKfV
QAyKIkHOPrnBbOGjQAWpIUHzdKnBmWrxQN5FLEHaA6fB5MaJQPAVwz9eJqbBZBnfQFWKBUELoqvB
DHuYQLGEh0BpoZDBMgWfQOdyFkAlNp3BusKAQF7wW0DpH5nBxGvSQPFpHUHvLq3BjGb7QCHA/UAJ
TJnBsM7aQDP1+0AucqDBRjarQHTeuT9yXpTBWgCCQAWlr0CIdo7B+5nvQKvUDUCMTJLB2r5qQDN8
iUBXzKHBy3cKQSiOtL15PbPBTKypQN1jUcAfW6nB9YraQJXI2j9Wcq7B3rJ0QIp0lL/DJaXBnXv1
QDiVIMDOUbDBxQT9QNNR60De3ojBvRuXQFq450ArqqDBcFRXQDDa6kCAsn3B05eXQHR6B0Ek9IDB
leXNQMV+0UA4BnjB+/ehQAxkrUBx0HPB+5T9QM88/j7rN4TB76HFQAql4z6184DBs+PaQIrsKb8a
74rB2or2QPqZH0EdBLzBZWW/QLs+GEFCt73BClDNQGVsM0F4mLrBLQ2hQD8UHkG53qDB97ubQESM
MkFx3qrBUtGNQJleF0E6/a3BW3HvQN3KKEEoZ57BeSoJQXaIKUET0anBdoPoQD4PPUFbcajBcX+D
QND8CkCGFq3BVtRWQJijjT/KNKPBfl/KQIVQ90C4v7DBGlEAQZ2LA0FsHa7B+VCaQAEraUDuOYnB
nAK5QJikjkBue5PB9927QNkwNUAqeqDB42hIQIAWPkDtlJXBoa+UQJjTWj9gS5HB+wxVQC8TqkA7
NYnBHPNqQOamukB5SpXBwiBNQIz9ckDAGKfBW2zPQPgGLT/yo63BjKWZQFx1dL/NC6jBaVveQI7H
2r9pFq/B/Y/rQJ0G8ECrUpDBIBy1QHc860CAhZzByaa+QDIz4kBlEpLByoqmQNfqxD4ebqnBkGfr
QKt7vb64YbDB1G21QKoIAMDN9KrBs/vSQLMarj+axo/BSaOOQAUP7EBTEIHBzaiuQExQyEBj43zB
UaCfQItfz0A+AIrBf/rcQH7xcj7O6IfBbMihQEIVIUFSxqnBTLvuQEeDLEEADafBrWHUQMh+IkF1
X7nBUU2JQGkRwT9ABKbBXjzeQFKUBUGLuKvBDLCYQEnlhkBygJDB7uKeQDwHFUC7GZ3BRFSBQD9A
XEBhMZnBcbTQQKdTHUFEU63BKNL6QF1W/0CiWZnBtlfaQNE+/EACgaDBakuqQLmUtj9eOZTBxp2C
QLtGr0CRZY7Bq+rtQKdjDkDAipHBmitwQKwWikA/8KHBYl8JQWwNtL1bRrTBN9SoQC87UsCJw6nB
zDHZQMno2T8wwa7BYf50QI/Qlr/8waTBarvzQELXIMA+Q7HBfNz8QE3d7UDb3IjBPjiXQHso5kAt
q6DB2T1aQPg96UAx8HzBw66YQLPfBkHynYDBd6nPQL9b0EA9RnjBoRmkQFLaq0CJ+nPBZHL9QOkf
vz57sITBsLLFQJjHhD6xT4HB4P3aQE0yO79jDYzBKn+MQMBHFkGmPa7Bu8meQDbcHUHsJ6HBBMKY
QITHMUGmZ6vByQEIQRXTKUGzlKnByr3lQNw2PUEErqjBgcXrQI1LKUFJbp7Bj4n1QPXoH0HJB7zB
ntC+QIj4F0Ga673BbmbLQMZJM0EewLrBA8CCQGRJCkDy6KzBnhxWQHtkiz/cA6PBAsrJQIjq9kBa
yrDBVc3/QGvYA0GQOa7B13yZQBlaZ0DMIYnBUpm5QO+SjUCcI5PB3Ce8QG4vMkC+W6DBf6lHQIE/
QEDu55XBeYmTQCuHVD+FPpHBUwBWQIcIqkDoKInB859sQHxMukCWP5XBxvpSQK1OdUACYKfBZiPO
QLoIJz8Nv63BVAGYQK0aZr96CafBXpPbQPiu378YEq7BvneyQNMt4EB+/ZzBCInjQPBD7kBv1I/B
bi26QJhG4UBVUZHBTIilQGRi1j74ManB+DfpQBqo274WHrDByPayQMyk/b+liKnBVsvTQA6vsj+P
9o/Bk3CIQJXw70A8C4HB9gaoQOMRzUDS53rBH8yaQEmo0ECeOYnB1oXaQDII0D5O1YbB0ckXQRdW
K0HikaPBNoHhQOWsI0FAtaTB0RsCQRUtKkGMj5LB/8KJQJECyz/YEKbB5H8LQdHYB0EXmZzB43aY
QA2giECxVpDBa0+gQHsdGkBhTZ3BUiiDQPePYkCPm5nBzzkFQUv8H0F0yp3Bwu/VQEIG6kDj6qHB
JpHxQM019UAbF5rBNPWqQDpmwz8vPJTB8hJ/QOHWrkDhiI3BjAnxQDZNCUDbmJLBjM55QMjUjUBJ
YKLBvTIIQdRNTL5hT7TB2gemQEy3T8CLe6fBQ2rYQBTM1D+GaK/BDhFyQE/Nib8XeqPBR0DwQOwU
JcC/+q/BhW2UQJt+2EBMzqDBnd70QP4b8kDRaojBMhNNQGzc7UDmd33BzXOSQIPXCEHrIoHBHKrI
QJHS1UCg+XXB6L+cQPj/sUCxK3HBby77QIOSAz9EqoPBgELDQAgSHD+wboDBY/jVQOxlHr/q0InB
FaMmQZgrKUGr+J7BscgZQYtwJEG4mqvBMzQUQd6CPEHpQ6TB9PvFQOPQG0EH4aDBBUPbQELxNEEX
ZKXBAGzmQO/eHEHmuqzByLfpQKsdIkF3Zo7B5eQQQelZKEEI4I3Bcb38QPtHO0F6dJPBRSKEQD9A
DkBRGq3B1u5VQBGGmz+jAaPBM5gSQX5AAkFYJqTBaUoXQTA/BkEvHZbB5CiaQJNhZkAHX4nBZf64
QCs+kkBfsJLBotG9QIOnNUDepKDBNuRIQGO7R0Ct6pbB11qTQOFgfT8+9ZDBBFdTQFTnpkCLCojB
7qNhQJy4uUDOGJTBLzVfQFvtfUBwHKjB

>  <OMEGA_E>  (106) 
OAQDPkB9+D2gKf4+

>  <OMEGA_NBR>  (106) 
     49449

$$$$
