50154205
     RDKit          3D

 81 83  0  0  1  0  0  0  0  0999 V2000
    8.7910    0.7417  -14.7207 C   0  0  0  0  0  0  0  0  0  0  0  0
    8.1253    8.3480  -18.4983 C   0  0  0  0  0  0  0  0  0  0  0  0
    8.4125    1.6548  -15.7267 C   0  0  0  0  0  0  0  0  0  0  0  0
    8.1864   -0.5300  -14.6558 C   0  0  0  0  0  0  0  0  0  0  0  0
    7.1461    7.8537  -17.6186 C   0  0  0  0  0  0  0  0  0  0  0  0
    7.7721    8.7206  -19.8097 C   0  0  0  0  0  0  0  0  0  0  0  0
    6.7986    0.0372  -16.5792 C   0  0  0  0  0  0  0  0  0  0  0  0
    5.4536    8.1032  -19.3622 C   0  0  0  0  0  0  0  0  0  0  0  0
    6.6867    1.0897  -21.4180 C   0  0  0  0  0  0  0  0  0  0  0  0
    4.9733   -0.4836  -20.6679 C   0  0  0  0  0  0  0  0  0  0  0  0
    7.1089   -1.3085  -21.5081 C   0  0  0  0  0  0  0  0  0  0  0  0
    7.4068    1.3078  -16.6617 C   0  0  0  0  0  0  0  0  0  0  0  0
    7.2011   -0.8916  -15.6004 C   0  0  0  0  0  0  0  0  0  0  0  0
    5.8130    7.7240  -18.0507 C   0  0  0  0  0  0  0  0  0  0  0  0
    5.4067    0.8406  -20.8770 C   0  0  0  0  0  0  0  0  0  0  0  0
    6.4366    8.6118  -20.2537 C   0  0  0  0  0  0  0  0  0  0  0  0
    7.5412    0.0150  -21.7207 C   0  0  0  0  0  0  0  0  0  0  0  0
    5.8206   -1.5559  -20.9960 C   0  0  0  0  0  0  0  0  0  0  0  0
    6.9768    2.2527  -17.7166 C   0  0  0  0  0  0  0  0  0  0  0  0
    6.5761   -2.2304  -15.5671 C   0  0  0  0  0  0  0  0  0  0  0  0
    3.9910   -3.4596  -17.9636 C   0  0  0  0  0  0  0  0  0  0  0  0
    9.2863   -4.7357  -17.9088 C   0  0  0  0  0  0  0  0  0  0  0  0
    4.7682    9.0380  -21.9574 C   0  0  0  0  0  0  0  0  0  0  0  0
    4.5151    1.9895  -20.4808 C   0  0  0  0  0  0  0  0  0  0  0  0
    4.7721    7.1879  -17.0923 C   0  0  0  0  0  0  0  0  0  0  0  0
    4.4227   -4.2773  -16.7364 C   0  0  0  0  0  0  0  0  0  0  0  0
    9.0013   -3.3397  -17.3494 C   0  0  0  0  0  0  0  0  0  0  0  0
    5.9541   -4.4123  -16.6544 C   0  0  0  0  0  0  0  0  0  0  0  0
    7.5998   -2.8592  -17.7710 C   0  0  0  0  0  0  0  0  0  0  0  0
    4.9601    4.9039  -17.9886 C   0  0  0  0  0  0  0  0  0  0  0  0
    5.2171    2.8882  -19.4386 C   0  0  1  0  0  0  0  0  0  0  0  0
    4.2216    3.9181  -18.8888 C   0  0  2  0  0  0  0  0  0  0  0  0
    5.7452    2.0536  -18.3414 N   0  0  0  0  0  0  0  0  0  0  0  0
    6.6283   -3.0934  -16.6830 N   0  0  0  0  0  0  0  0  0  0  0  0
    4.0689    6.0332  -17.6729 N   0  0  0  0  0  0  0  0  0  0  0  0
    7.6881    3.2043  -18.0222 O   0  0  0  0  0  0  0  0  0  0  0  0
    6.0125   -2.5798  -14.5357 O   0  0  0  0  0  0  0  0  0  0  0  0
    3.6304    4.6371  -19.9736 O   0  0  0  0  0  0  0  0  0  0  0  0
    6.1575    9.0244  -21.5512 O   0  0  0  0  0  0  0  0  0  0  0  0
    8.7743    0.2536  -22.2202 F   0  0  0  0  0  0  0  0  0  0  0  0
    5.3943   -2.8251  -20.8316 F   0  0  0  0  0  0  0  0  0  0  0  0
    9.5455    1.0173  -13.9987 H   0  0  0  0  0  0  0  0  0  0  0  0
    9.1493    8.4420  -18.1681 H   0  0  0  0  0  0  0  0  0  0  0  0
    8.8908    2.6214  -15.7843 H   0  0  0  0  0  0  0  0  0  0  0  0
    8.4766   -1.2274  -13.8839 H   0  0  0  0  0  0  0  0  0  0  0  0
    7.4170    7.5736  -16.6114 H   0  0  0  0  0  0  0  0  0  0  0  0
    8.5305    9.0934  -20.4822 H   0  0  0  0  0  0  0  0  0  0  0  0
    6.0153   -0.2259  -17.2747 H   0  0  0  0  0  0  0  0  0  0  0  0
    4.4288    8.0065  -19.6890 H   0  0  0  0  0  0  0  0  0  0  0  0
    7.0091    2.1045  -21.5991 H   0  0  0  0  0  0  0  0  0  0  0  0
    3.9930   -0.6741  -20.2567 H   0  0  0  0  0  0  0  0  0  0  0  0
    7.7660   -2.1343  -21.7380 H   0  0  0  0  0  0  0  0  0  0  0  0
    2.8938   -3.3853  -17.9878 H   0  0  0  0  0  0  0  0  0  0  0  0
    4.4255   -2.4509  -17.9032 H   0  0  0  0  0  0  0  0  0  0  0  0
    4.3450   -3.9572  -18.8785 H   0  0  0  0  0  0  0  0  0  0  0  0
   10.2903   -5.0586  -17.5962 H   0  0  0  0  0  0  0  0  0  0  0  0
    8.5374   -5.4442  -17.5253 H   0  0  0  0  0  0  0  0  0  0  0  0
    9.2358   -4.7077  -19.0073 H   0  0  0  0  0  0  0  0  0  0  0  0
    4.6936    9.3826  -22.9994 H   0  0  0  0  0  0  0  0  0  0  0  0
    4.3527    8.0227  -21.8766 H   0  0  0  0  0  0  0  0  0  0  0  0
    4.2021    9.7189  -21.3048 H   0  0  0  0  0  0  0  0  0  0  0  0
    4.2783    2.5877  -21.3730 H   0  0  0  0  0  0  0  0  0  0  0  0
    3.5849    1.5927  -20.0480 H   0  0  0  0  0  0  0  0  0  0  0  0
    5.2668    6.8770  -16.1603 H   0  0  0  0  0  0  0  0  0  0  0  0
    4.0421    7.9811  -16.8729 H   0  0  0  0  0  0  0  0  0  0  0  0
    4.0595   -3.7754  -15.8275 H   0  0  0  0  0  0  0  0  0  0  0  0
    3.9790   -5.2816  -16.8028 H   0  0  0  0  0  0  0  0  0  0  0  0
    9.0563   -3.3728  -16.2513 H   0  0  0  0  0  0  0  0  0  0  0  0
    9.7547   -2.6362  -17.7334 H   0  0  0  0  0  0  0  0  0  0  0  0
    6.2159   -4.9251  -15.7171 H   0  0  0  0  0  0  0  0  0  0  0  0
    6.3046   -5.0093  -17.5092 H   0  0  0  0  0  0  0  0  0  0  0  0
    7.6381   -1.7835  -17.9979 H   0  0  0  0  0  0  0  0  0  0  0  0
    7.2811   -3.4118  -18.6671 H   0  0  0  0  0  0  0  0  0  0  0  0
    5.2587    4.3996  -17.0578 H   0  0  0  0  0  0  0  0  0  0  0  0
    5.8558    5.2761  -18.5076 H   0  0  0  0  0  0  0  0  0  0  0  0
    6.0448    3.4201  -19.9305 H   0  0  0  0  0  0  0  0  0  0  0  0
    3.4502    3.3977  -18.3021 H   0  0  0  0  0  0  0  0  0  0  0  0
    5.1806    1.2919  -18.0236 H   0  0  0  0  0  0  0  0  0  0  0  0
    3.3799    5.7201  -17.0192 H   0  0  0  0  0  0  0  0  0  0  0  0
    3.6190    6.3273  -18.5162 H   0  0  0  0  0  0  0  0  0  0  0  0
    3.1676    4.0315  -20.5407 H   0  0  0  0  0  0  0  0  0  0  0  0
  1  3  2  0
  1  4  1  0
  2  5  2  0
  2  6  1  0
  3 12  1  0
  4 13  2  0
  5 14  1  0
  6 16  2  0
  7 12  2  0
  7 13  1  0
  8 14  2  0
  8 16  1  0
  9 15  2  0
  9 17  1  0
 10 15  1  0
 10 18  2  0
 11 17  2  0
 11 18  1  0
 12 19  1  0
 13 20  1  0
 14 25  1  0
 15 24  1  0
 16 39  1  0
 17 40  1  0
 18 41  1  0
 19 33  1  0
 19 36  2  0
 20 34  1  0
 20 37  2  0
 21 26  1  0
 22 27  1  0
 23 39  1  0
 24 31  1  0
 25 35  1  0
 26 28  1  0
 27 29  1  0
 28 34  1  0
 29 34  1  0
 30 32  1  0
 30 35  1  0
 31 32  1  0
 31 33  1  0
 32 38  1  0
  1 42  1  0
  2 43  1  0
  3 44  1  0
  4 45  1  0
  5 46  1  0
  6 47  1  0
  7 48  1  0
  8 49  1  0
  9 50  1  0
 10 51  1  0
 11 52  1  0
 21 53  1  0
 21 54  1  0
 21 55  1  0
 22 56  1  0
 22 57  1  0
 22 58  1  0
 23 59  1  0
 23 60  1  0
 23 61  1  0
 24 62  1  0
 24 63  1  0
 25 64  1  0
 25 65  1  0
 26 66  1  0
 26 67  1  0
 27 68  1  0
 27 69  1  0
 28 70  1  0
 28 71  1  0
 29 72  1  0
 29 73  1  0
 30 74  1  0
 30 75  1  0
 31 76  1  6
 32 77  1  1
 33 78  1  0
 35 79  1  0
 35 80  1  0
 38 81  1  0
M  CHG  1  35   1
M  END
>  <OMEGA_C>  (1) 
B6gMQZfgPT/Oh2vBWwECQW+RBUGX/JPBfpkGQRnS0z+6oHvBdvsCQRqtB78DfmrBwqzkQHNR+0D7
8ozBC7X4QK+HC0Ezep7B343ZQBhCGD00ooTBKISuQJ+mAUHc5ZrB0vnVQIh8iz8WWKvBZCWfQMmb
977KV6XBcHzjQKl9p7+fEKzB2gTtQHRkpz9DS4XBp2/mQIg/ZL8Ym3nBegS6QAUr90DiZ5DB1gOt
QF4wVz8NBKfBnvjNQM3JCUGaB6LBW1HxQACddTwIxK3BWEK6QJcox7/Q96fBrkHfQPMsEECau43B
B2/SQHW/DsCoEnnBG21/QF5qXcBgtY/B0pQUQd+Kl8BLRY/B0ZSYQJCbEEHPqK/BinuQQLin/j+x
2KPBrLSYQJwD5kD+vIjBxIaNQJTfiMA25IXBLgUQQUG+VcCiy4rB1oe+QLgxjcAgPIXBsTHzQO78
NsADK47BLLmeQMvsnECz6I/BWPKmQHXXOEBEgpvBmxeHQN/BekAuHJfBuNi3QNRtA0BCu5LBTRvU
QLP5RcCydoXBbjSCQPQPwUAnYo3BGQX2QOcTTUCELZDBWGbAQMAaJcAVkmjBiFhoQFhjlED1yZ/B
RgrFQMhjEEHJaKzBV2MMQfDYgT79wrHBu52sQFLONMAsp6bBULoYQbo3gj+t+l/BdmMSQXASB0Er
WJHBokAOQcbFJ0CHjHzBK6AHQQUcnb97JF7BsFftQIha8kAi5ITB03wIQWB+EUGc26PBnH3AQBBb
Z76WMorBuriNQIkaAEEMg53Bz0rgQJKvBkD2yqzBMo1/QGKSLL+qDaLB8IL4QM2XCMBo563BUjQ5
QAWoWMAD54/B952NQBnbHMC5OY/BLgqLQPhBfcA9B5fBL6UkQeHfocABxYzBXJkIQUA3rsC8M4zB
4MUTQbSllsD8DpjBWjKWQCcfFkG+/rfBC0mLQOtcAEE0A6/BkneGQISAG0EycKrB/+eIQAydJUD8
+6rBTG9lQLDcyz9IYqDBRYmoQDgQ3EBQSIHBvViBQNFk/0DM+4bByeeBQJmfccBePX3B/6d+QDwD
qcAzbIbBzOYQQT/bV8CtAoLBUBMcQSe4KMDu3Y3BDunGQImancA2eXvBFr/JQARMoMDjEozBlWv0
QINK5L+v+4/B3f7oQDJbWsBDVpXBCkeoQC3JjEBPdojBbGK7QHnVqEB7D5TB3W7BQDfjWkCXcZ/B
sdBcQHJ0WUCsapLBIcelQEdcpT9vMJDBvlBYQF8Lt0BlJ4jBq51nQB15ykAqIZTBGrpKQB8CgUBI
U6TB

>  <OMEGA_E>  (1) 
IEc9Pg==

>  <OMEGA_NBR>  (1) 
     28840

$$$$
50139675
     RDKit          3D

 58 60  0  0  1  0  0  0  0  0999 V2000
    6.8976   -1.1783  -15.9796 C   0  0  0  0  0  0  0  0  0  0  0  0
    7.8193    8.7602  -18.6605 C   0  0  0  0  0  0  0  0  0  0  0  0
    6.5511   -0.1644  -16.8940 C   0  0  0  0  0  0  0  0  0  0  0  0
    7.8087   -0.9066  -14.9390 C   0  0  0  0  0  0  0  0  0  0  0  0
    6.9659    8.1510  -17.7208 C   0  0  0  0  0  0  0  0  0  0  0  0
    7.3229    9.1349  -19.9251 C   0  0  0  0  0  0  0  0  0  0  0  0
    8.0666    1.3785  -15.7555 C   0  0  0  0  0  0  0  0  0  0  0  0
    6.7285    1.3333  -21.4242 C   0  0  0  0  0  0  0  0  0  0  0  0
    5.0443   -0.3170  -20.7834 C   0  0  0  0  0  0  0  0  0  0  0  0
    5.1129    8.3044  -19.3071 C   0  0  0  0  0  0  0  0  0  0  0  0
    7.2224   -1.0457  -21.6095 C   0  0  0  0  0  0  0  0  0  0  0  0
    7.1394    1.1201  -16.7876 C   0  0  0  0  0  0  0  0  0  0  0  0
    8.3779    0.3802  -14.8133 C   0  0  0  0  0  0  0  0  0  0  0  0
    5.6129    7.9238  -18.0419 C   0  0  0  0  0  0  0  0  0  0  0  0
    5.4384    1.0279  -20.9373 C   0  0  0  0  0  0  0  0  0  0  0  0
    7.6214    0.2984  -21.7510 C   0  0  0  0  0  0  0  0  0  0  0  0
    5.9352   -1.3524  -21.1221 C   0  0  0  0  0  0  0  0  0  0  0  0
    5.9706    8.9026  -20.2503 C   0  0  0  0  0  0  0  0  0  0  0  0
    6.7883    2.1847  -17.7446 C   0  0  0  0  0  0  0  0  0  0  0  0
    9.3729    0.6776  -13.7119 C   0  0  0  0  0  0  0  0  0  0  0  0
    4.4935    2.1430  -20.5474 C   0  0  0  0  0  0  0  0  0  0  0  0
    4.7041    7.2739  -17.0246 C   0  0  0  0  0  0  0  0  0  0  0  0
    4.9175    5.0569  -18.0500 C   0  0  0  0  0  0  0  0  0  0  0  0
    5.1400    3.0291  -19.4637 C   0  0  1  0  0  0  0  0  0  0  0  0
    4.1686    4.1074  -18.9776 C   0  0  2  0  0  0  0  0  0  0  0  0
    5.5354    2.1630  -18.3417 N   0  0  0  0  0  0  0  0  0  0  0  0
    4.0068    6.1308  -17.6295 N   0  0  0  0  0  0  0  0  0  0  0  0
    7.5909    3.0785  -17.9957 O   0  0  0  0  0  0  0  0  0  0  0  0
    3.6695    4.8512  -20.0899 O   0  0  0  0  0  0  0  0  0  0  0  0
    8.8624    0.5977  -22.1966 F   0  0  0  0  0  0  0  0  0  0  0  0
    5.5605   -2.6411  -20.9607 F   0  0  0  0  0  0  0  0  0  0  0  0
    5.2054    9.4720  -22.2083 I   0  0  0  0  0  0  0  0  0  0  0  0
    6.4654   -2.1634  -16.0758 H   0  0  0  0  0  0  0  0  0  0  0  0
    8.8548    8.9405  -18.4121 H   0  0  0  0  0  0  0  0  0  0  0  0
    5.8358   -0.3665  -17.6775 H   0  0  0  0  0  0  0  0  0  0  0  0
    8.0722   -1.6835  -14.2366 H   0  0  0  0  0  0  0  0  0  0  0  0
    7.3483    7.8579  -16.7542 H   0  0  0  0  0  0  0  0  0  0  0  0
    7.9788    9.6004  -20.6459 H   0  0  0  0  0  0  0  0  0  0  0  0
    8.5397    2.3470  -15.6884 H   0  0  0  0  0  0  0  0  0  0  0  0
    7.0293    2.3635  -21.5454 H   0  0  0  0  0  0  0  0  0  0  0  0
    4.0601   -0.5523  -20.4061 H   0  0  0  0  0  0  0  0  0  0  0  0
    4.0742    8.1369  -19.5507 H   0  0  0  0  0  0  0  0  0  0  0  0
    7.9029   -1.8414  -21.8744 H   0  0  0  0  0  0  0  0  0  0  0  0
   10.3889    0.4415  -14.0614 H   0  0  0  0  0  0  0  0  0  0  0  0
    9.3158    1.7430  -13.4442 H   0  0  0  0  0  0  0  0  0  0  0  0
    9.1371    0.0646  -12.8295 H   0  0  0  0  0  0  0  0  0  0  0  0
    4.2689    2.7561  -21.4327 H   0  0  0  0  0  0  0  0  0  0  0  0
    3.5614    1.7099  -20.1553 H   0  0  0  0  0  0  0  0  0  0  0  0
    5.3039    6.9244  -16.1714 H   0  0  0  0  0  0  0  0  0  0  0  0
    3.9637    8.0089  -16.6758 H   0  0  0  0  0  0  0  0  0  0  0  0
    5.2717    4.5062  -17.1660 H   0  0  0  0  0  0  0  0  0  0  0  0
    5.7779    5.4897  -18.5814 H   0  0  0  0  0  0  0  0  0  0  0  0
    6.0302    3.5159  -19.8886 H   0  0  0  0  0  0  0  0  0  0  0  0
    3.3445    3.6320  -18.4255 H   0  0  0  0  0  0  0  0  0  0  0  0
    4.8586    1.5179  -17.9869 H   0  0  0  0  0  0  0  0  0  0  0  0
    3.3643    5.7590  -16.9593 H   0  0  0  0  0  0  0  0  0  0  0  0
    3.5031    6.4530  -18.4310 H   0  0  0  0  0  0  0  0  0  0  0  0
    3.2002    4.2690  -20.6758 H   0  0  0  0  0  0  0  0  0  0  0  0
  1  3  2  0
  1  4  1  0
  2  5  2  0
  2  6  1  0
  3 12  1  0
  4 13  2  0
  5 14  1  0
  6 18  2  0
  7 12  2  0
  7 13  1  0
  8 15  2  0
  8 16  1  0
  9 15  1  0
  9 17  2  0
 10 14  2  0
 10 18  1  0
 11 16  2  0
 11 17  1  0
 12 19  1  0
 13 20  1  0
 14 22  1  0
 15 21  1  0
 16 30  1  0
 17 31  1  0
 18 32  1  0
 19 26  1  0
 19 28  2  0
 21 24  1  0
 22 27  1  0
 23 25  1  0
 23 27  1  0
 24 25  1  0
 24 26  1  0
 25 29  1  0
  1 33  1  0
  2 34  1  0
  3 35  1  0
  4 36  1  0
  5 37  1  0
  6 38  1  0
  7 39  1  0
  8 40  1  0
  9 41  1  0
 10 42  1  0
 11 43  1  0
 20 44  1  0
 20 45  1  0
 20 46  1  0
 21 47  1  0
 21 48  1  0
 22 49  1  0
 22 50  1  0
 23 51  1  0
 23 52  1  0
 24 53  1  6
 25 54  1  1
 26 55  1  0
 27 56  1  0
 27 57  1  0
 29 58  1  0
M  CHG  1  27   1
M  END
>  <OMEGA_C>  (2) 
UrncQF3Tlr+OrH/BGTj6QO8pDEHNSJXB3aLRQHpTKL72JofBL+H5QB4UaL9WBm/BpujeQFVqAkEq
xI3BIFXqQKMoEkGqZp/B7BABQZVxsD+4FnzBNFDXQEiqqj+yZKvBIGuhQHROor5uRKbBEp2jQOne
BEHndJrB2h3nQI3ahb9B4KzBAHbkQB9ejz8XTYbB0gsGQcOrwj5CA23BlZyzQLSP/UDHVZDBegeu
QIaSgz+Nf6fBReLzQNrNmD4eAq7BC+29QJsbrb8j+qjB0g6/QAlxDkGiAKLBzTnZQNrRC0Dh9I3B
lfcVQbh5LT8OZFvBXsqPQLkmCUAqYaTB94eWQLPD6EB5MojB6ludQM7RoUBWZpDBA3ukQLPcQUCQ
tZvBVGWFQJpvg0AZ0pfB9SGxQAduCkC3u5LBUDeAQCIvxEAeCY3B1ujyQJYGRUA+94/BcNlqQNM8
m0AvuKDBPswNQQoCGT+LkrHBvu+xQJkIKcBrr6fBwJKmQHONF0GvqrHBsuTOQPF0CsBCm4DBVK0N
QTQMD0EDTJPB8766QA6ju76Ra43BpycBQXR8179EyWPB6yTrQJ9z+0CWCIbBJVL/QGmbGUHLKqXB
yKIIQTg1FkCQA3vBIfDgQElDF0AOXazBceyBQORjDb+4P6PBs1+CQJMwAkHJZ5zBZeT8QBW067/f
/q7B6TgmQccR4j5Y+2DBXg0VQUYb3z9UG1fBrTESQRhfhD3HRU3Bz5qIQG5jMEA0dqvBHu5jQB7f
2j8bPqHByrmpQKyU3UD+XoHBo619QEUkAEEaaIXBabGoQM0ykEAOVInBLOS4QKCrr0CnppTBqvfA
QC8EYUDLG5/BzwtWQPtyaEBkZ5PB2nmbQGFKwj8j5Y/BqFBXQABKuECwrIfBXzJgQAB/zkCrcpPB
qdBMQEObiEAgaKXBarUEQY4e5z2R8mzB79r5QK/BDEFlzJXBnND9QEjAmz8ntHnBctn8QCo8mL9j
73LBo3feQLwuA0GYPo7B2wHqQG6lEkED75/Bo97WQLyGjr7D34jBMHzXQPiBrz/jTqvBYK6hQJib
lb6IY6bB9TijQN55BUE89ZrBJAjnQGZggL/GVa3BKu3jQBakgz/NAYbBsjHkQGAbsr+lzYLBTSmz
QBAi/0DNzZDBI3KuQLz+hj/2VKfBdcvzQHY4sD5UQa7BSPu9QAb5qL8dZKnBqLe+QAzyDkEgh6LB
8RjYQM7eCkCB5YzB71XcQBTqMsAsAYfBFnCQQO9BCkC8+6PBmgSWQM3a6kD5mojBAridQL4Eo0Bm
Q5DBCCylQKq4QUAGKpvBNf2FQEStg0Dfc5fB6emwQJwYCUCWL5LByziAQAGixUCsQY3BTVnxQAgH
RkDLPY7BL1RrQISemkDqd6DBfZYNQfeZJz8Y+7HBHuOxQJAlJ8DYXajBiUSmQDIFGEFEM7LBnvoN
Qcojhz4DkV7BwIINQYeWD0El05PB9FkEQbtGDUAcfnXB8gwDQRMyAsDPN2nBOafqQNw4/UBAfYbB
IQn/QGsAGkFuuKXBuYvCQLE02b6Yw4/BCyHhQBHWGUDjFazBpz6CQLnZCL88XqPBBwKCQNK8AkHd
6ZzBFLT8QHx65b/jpq/Bm+u9QOdPS8C+yoPB38LaQJVxMcA6y4/ByqT2QLUSXcDxeITBTSuJQJuz
MkAJ9KrBIktlQJQT3D+H5aDBYRepQB+G4EDArIHBcQd8QG40AUG9AYbBie+oQA5okkCIB4nBeU65
QAJqsEAqlZTBtxDCQLJMYECcbZ7BvYZXQEWJaUAR65LBPi+bQHfbvD8wuo/BSstWQGhBukC144fB
suRgQAkdz0AIzZPBtXlNQD95h0D1CqXBdtXbQBZHlL9gQX/BMQi+QAgQDkGRi6LB7zzRQIyLHL7C
DofBRxv5QEiUYr9Yqm7BmcOiQEzPBEFC3ZrBeGHpQEi9EUFOEKDBvwYBQezQsT/RF3zB02XXQEJh
qj+BYavBTH6hQIoJob4KKqbBblLeQCywAkEtP47B0ibnQEJVhr8wwazBx1jkQI5gkD8kSYbBP0MG
Qag9xj5xLG3Bgv6yQKka/kDptZDBfByuQKHBgz9ZeKfB4fTzQGtelj5D8a3BQ/W9QHwirb+x1qjB
h3X5QMIMDEGR6pXBU1LZQOPvC0Bp/43BH1AVQaaLNT8d6lrBGOyPQAB0CUAXZKTBu0aWQOOc6UDX
dIjBf6mdQBFBokDkdpDB25ykQLktQkAEuJvBMZ6FQGqeg0Da0JfB3SyxQPDeCkAmvJLB2EeAQLR8
xEAgH43BKEzzQARZRECMHpDBatJqQMUum0ADuaDBOdoNQZjrFj/2f7HBleqxQEf7KMDHgKfBKNId
QaJREUFYLZLBQ4rNQIjZCMAISYDBpbmxQBpWEkG2VKrBtYG6QAugt76mWo3BWFoAQcUt078XEmPB
QnSBQMscAkEVu5zBg0v+QCDqGEGt7qXBt2kIQSI4F0BU7HrBHgnhQJoPF0CAZ6zBCQaCQD0FDL+J
HaPBRLrqQK2b/EB7fIbBnOb8QKxt7L9F2K7Bf9YlQUcC9D6OsV/BgREUQWeQ4z9P71bBBvgQQRWb
2z2o1kzBnN2IQKKeMEDEfKvBOA1kQDrl2z91RKHBZK+pQN0Y30ATmoHB+MV8QBqKAEGZvoXBFj+p
QO3ZkEB1YonB7wW5QOwtsEDqxJTBFyHBQO8/YUBRHZ/BZr1WQBzqaECdV5PBm22bQHbgwz9M3I/B
BTRYQMycuEAbq4fBwYZfQFFGzkCMhZPB8rFMQP5piEC+XaXBW5IFQfI3OD7qLm3BIWq+QC/CDkFs
66LBqS7/QDqzoj9aI3rBTwD+QIYskL/PnnLB6fSiQFh4BUH9SZvBl77pQOpZEkG0YaDBqq7WQBzy
eL7Sm4jB+tPWQFKtqz/GOqvBSuWgQAhfn74PK6bBlUfeQDUlA0GAnY7BJDnmQHiwhL99CK3BXFnk
QGaQiD9dCIbBpFvkQNYerL+wdILBOPiyQONE/0AtIJHB9b2tQBRGhD8TPKfBvBnzQMC7nT7qD67B
gCS9QLowrL80EanBRZr5QIGIDEHpOpbBNUfYQHNWDEA9D43BOqXbQB1pMMBaYobBtM6PQHtRCUCO
+KPBFPuVQFE060BK34jBNY+dQJBJo0BrfJDBXL+kQBW5QUDeRpvB8rCFQILig0BSoZfBq8ywQL0q
CkAZN5LB7R2AQJDqxUAQdo3BoaTxQJfkRkCYqI7BpANrQHGsmkCsr6DBiFINQYAjHD+uubHB8wSx
QAqaKMA146fBvM4dQeTKEUHWWpLBpjIPQSYIsD4RE1/BqUSyQG8fE0FitarBukEFQcrjEEDCX3bB
ycgDQR0h+7/bxWjBqK2BQKbOAkHWM53Bs83+QMGOGUFONabBcZzBQOD5zL4sV4/By4jgQGTNF0Ds
G6zBKW+BQAwfDL/HIaPBXInqQDpJ/UBb24bBfNT7QJxl6r+ISK/B53a9QMC1R8CK6oLB3SjZQGFF
MMCGKY/BNgP2QIiuWsCy64PBWGeIQGn9MEBFAKvBzyVkQOn22j/gy6DBjCmpQM0A4UDG8oHBAA98
QA9pAUFRR4bB9OuoQGC8kkD2QYnBLw+5QAqnsECb2JTBkorBQMH2X0CvpJ7BtcVWQDdpakDiE5PB
qhqbQKYVwD/OmI/BL9xWQJyWukDtDYjBA1tgQAJOz0Aw/ZPByf5MQPl7h0BtO6XB

>  <OMEGA_E>  (2) 
WM3iPhjZ7z5gvhU/HFEZPw==

>  <OMEGA_NBR>  (2) 
     14911

$$$$
50154283
     RDKit          3D

 90 92  0  0  1  0  0  0  0  0999 V2000
    7.8924    8.3261  -18.1107 C   0  0  0  0  0  0  0  0  0  0  0  0
    6.8610    7.7713  -17.3332 C   0  0  0  0  0  0  0  0  0  0  0  0
    7.6159    8.8231  -19.3989 C   0  0  0  0  0  0  0  0  0  0  0  0
    6.3888   -0.3070  -16.9235 C   0  0  0  0  0  0  0  0  0  0  0  0
    7.9417    1.2049  -15.7972 C   0  0  0  0  0  0  0  0  0  0  0  0
    7.6210   -1.0578  -14.9611 C   0  0  0  0  0  0  0  0  0  0  0  0
    5.2668    8.2220  -19.1312 C   0  0  0  0  0  0  0  0  0  0  0  0
    6.6257    1.1327  -21.3350 C   0  0  0  0  0  0  0  0  0  0  0  0
    4.8937   -0.5148  -20.8356 C   0  0  0  0  0  0  0  0  0  0  0  0
    7.1130   -1.2440  -21.5461 C   0  0  0  0  0  0  0  0  0  0  0  0
    6.9992    0.9657  -16.8206 C   0  0  0  0  0  0  0  0  0  0  0  0
    6.7051   -1.3208  -15.9939 C   0  0  0  0  0  0  0  0  0  0  0  0
    5.5501    7.7157  -17.8423 C   0  0  0  0  0  0  0  0  0  0  0  0
    8.2430    0.1970  -14.8500 C   0  0  0  0  0  0  0  0  0  0  0  0
    5.3109    0.8297  -20.9160 C   0  0  0  0  0  0  0  0  0  0  0  0
    6.3073    8.7767  -19.9251 C   0  0  0  0  0  0  0  0  0  0  0  0
    7.5281    0.0981  -21.6340 C   0  0  0  0  0  0  0  0  0  0  0  0
    5.7916   -1.5480  -21.1648 C   0  0  0  0  0  0  0  0  0  0  0  0
    6.6123    2.0571  -17.7375 C   0  0  0  0  0  0  0  0  0  0  0  0
    5.9887   -2.6094  -15.9936 C   0  0  0  0  0  0  0  0  0  0  0  0
    3.1449   -2.7359  -18.3304 C   0  0  0  0  0  0  0  0  0  0  0  0
    8.5420   -4.7478  -17.0647 C   0  0  0  0  0  0  0  0  0  0  0  0
    9.7479    1.8505  -13.5794 C   0  0  0  0  0  0  0  0  0  0  0  0
    4.7839    9.2186  -21.7615 C   0  0  0  0  0  0  0  0  0  0  0  0
    4.3527    1.9477  -20.5565 C   0  0  0  0  0  0  0  0  0  0  0  0
    4.4544    7.0996  -17.0022 C   0  0  0  0  0  0  0  0  0  0  0  0
    3.7942   -4.1296  -18.4152 C   0  0  0  0  0  0  0  0  0  0  0  0
    8.2973   -3.4716  -17.8876 C   0  0  0  0  0  0  0  0  0  0  0  0
    4.7611   -4.4065  -17.2395 C   0  0  0  0  0  0  0  0  0  0  0  0
    6.8094   -3.2909  -18.2808 C   0  0  0  0  0  0  0  0  0  0  0  0
    4.6704    4.8772  -18.0345 C   0  0  0  0  0  0  0  0  0  0  0  0
    9.1005    0.4563  -13.6143 C   0  0  2  0  0  0  0  0  0  0  0  0
    4.9768    2.8644  -19.4818 C   0  0  1  0  0  0  0  0  0  0  0  0
    3.9967    3.9645  -19.0583 C   0  0  2  0  0  0  0  0  0  0  0  0
    5.3586    2.0231  -18.3360 N   0  0  0  0  0  0  0  0  0  0  0  0
    5.8544   -3.4018  -17.1466 N   0  0  0  0  0  0  0  0  0  0  0  0
   10.1699   -0.5585  -13.5252 N   0  0  0  0  0  0  0  0  0  0  0  0
    3.7867    6.0197  -17.7462 N   0  0  0  0  0  0  0  0  0  0  0  0
    7.3767    2.9957  -17.9405 O   0  0  0  0  0  0  0  0  0  0  0  0
    5.5166   -2.9924  -14.9280 O   0  0  0  0  0  0  0  0  0  0  0  0
    3.6450    4.7471  -20.2012 O   0  0  0  0  0  0  0  0  0  0  0  0
    6.1198    9.2806  -21.2082 O   0  0  0  0  0  0  0  0  0  0  0  0
    8.7894    0.3964  -22.0175 F   0  0  0  0  0  0  0  0  0  0  0  0
    5.3880   -2.8347  -21.1171 F   0  0  0  0  0  0  0  0  0  0  0  0
    8.8981    8.3712  -17.7196 H   0  0  0  0  0  0  0  0  0  0  0  0
    7.0744    7.3881  -16.3463 H   0  0  0  0  0  0  0  0  0  0  0  0
    8.4146    9.2446  -19.9912 H   0  0  0  0  0  0  0  0  0  0  0  0
    5.6799   -0.5027  -17.7145 H   0  0  0  0  0  0  0  0  0  0  0  0
    8.4361    2.1632  -15.7365 H   0  0  0  0  0  0  0  0  0  0  0  0
    7.8499   -1.8310  -14.2427 H   0  0  0  0  0  0  0  0  0  0  0  0
    4.2574    8.1874  -19.5138 H   0  0  0  0  0  0  0  0  0  0  0  0
    6.9380    2.1625  -21.4258 H   0  0  0  0  0  0  0  0  0  0  0  0
    3.8876   -0.7515  -20.5222 H   0  0  0  0  0  0  0  0  0  0  0  0
    7.8072   -2.0401  -21.7710 H   0  0  0  0  0  0  0  0  0  0  0  0
    2.4700   -2.5925  -19.1871 H   0  0  0  0  0  0  0  0  0  0  0  0
    2.5719   -2.6548  -17.3949 H   0  0  0  0  0  0  0  0  0  0  0  0
    3.9289   -1.9646  -18.3483 H   0  0  0  0  0  0  0  0  0  0  0  0
    9.6105   -4.8242  -16.8147 H   0  0  0  0  0  0  0  0  0  0  0  0
    7.9509   -4.7054  -16.1380 H   0  0  0  0  0  0  0  0  0  0  0  0
    8.2394   -5.6267  -17.6528 H   0  0  0  0  0  0  0  0  0  0  0  0
   10.3451    1.9551  -12.6616 H   0  0  0  0  0  0  0  0  0  0  0  0
   10.3995    1.9740  -14.4569 H   0  0  0  0  0  0  0  0  0  0  0  0
    8.9620    2.6200  -13.5950 H   0  0  0  0  0  0  0  0  0  0  0  0
    4.7854    9.6493  -22.7737 H   0  0  0  0  0  0  0  0  0  0  0  0
    4.4555    8.1699  -21.8099 H   0  0  0  0  0  0  0  0  0  0  0  0
    4.0952    9.7894  -21.1213 H   0  0  0  0  0  0  0  0  0  0  0  0
    4.1333    2.5409  -21.4564 H   0  0  0  0  0  0  0  0  0  0  0  0
    3.4198    1.5145  -20.1665 H   0  0  0  0  0  0  0  0  0  0  0  0
    4.8916    6.6886  -16.0803 H   0  0  0  0  0  0  0  0  0  0  0  0
    3.7161    7.8732  -16.7447 H   0  0  0  0  0  0  0  0  0  0  0  0
    2.9994   -4.8900  -18.4047 H   0  0  0  0  0  0  0  0  0  0  0  0
    4.3564   -4.1998  -19.3581 H   0  0  0  0  0  0  0  0  0  0  0  0
    8.6119   -2.6024  -17.2913 H   0  0  0  0  0  0  0  0  0  0  0  0
    8.9004   -3.5238  -18.8060 H   0  0  0  0  0  0  0  0  0  0  0  0
    4.1876   -4.3905  -16.3010 H   0  0  0  0  0  0  0  0  0  0  0  0
    5.2086   -5.4017  -17.3789 H   0  0  0  0  0  0  0  0  0  0  0  0
    6.6920   -2.2949  -18.7328 H   0  0  0  0  0  0  0  0  0  0  0  0
    6.5538   -4.0624  -19.0220 H   0  0  0  0  0  0  0  0  0  0  0  0
    4.8582    4.3148  -17.1080 H   0  0  0  0  0  0  0  0  0  0  0  0
    5.6247    5.2439  -18.4407 H   0  0  0  0  0  0  0  0  0  0  0  0
    8.4549    0.3631  -12.7285 H   0  0  0  0  0  0  0  0  0  0  0  0
    5.8753    3.3372  -19.9049 H   0  0  0  0  0  0  0  0  0  0  0  0
    3.1043    3.5051  -18.6083 H   0  0  0  0  0  0  0  0  0  0  0  0
    4.6770    1.3911  -17.9672 H   0  0  0  0  0  0  0  0  0  0  0  0
   10.7286   -0.3843  -12.7143 H   0  0  0  0  0  0  0  0  0  0  0  0
    9.7610   -1.4686  -13.4589 H   0  0  0  0  0  0  0  0  0  0  0  0
   10.7443   -0.5098  -14.3423 H   0  0  0  0  0  0  0  0  0  0  0  0
    3.0123    5.6930  -17.2045 H   0  0  0  0  0  0  0  0  0  0  0  0
    3.4542    6.3904  -18.6134 H   0  0  0  0  0  0  0  0  0  0  0  0
    3.2243    4.1927  -20.8479 H   0  0  0  0  0  0  0  0  0  0  0  0
  1  2  2  0
  1  3  1  0
  2 13  1  0
  3 16  2  0
  4 11  2  0
  4 12  1  0
  5 11  1  0
  5 14  2  0
  6 12  2  0
  6 14  1  0
  7 13  2  0
  7 16  1  0
  8 15  2  0
  8 17  1  0
  9 15  1  0
  9 18  2  0
 10 17  2  0
 10 18  1  0
 11 19  1  0
 12 20  1  0
 13 26  1  0
 14 32  1  0
 15 25  1  0
 16 42  1  0
 17 43  1  0
 18 44  1  0
 19 35  1  0
 19 39  2  0
 20 36  1  0
 20 40  2  0
 21 27  1  0
 22 28  1  0
 23 32  1  0
 24 42  1  0
 25 33  1  0
 26 38  1  0
 27 29  1  0
 28 30  1  0
 29 36  1  0
 30 36  1  0
 31 34  1  0
 31 38  1  0
 32 37  1  0
 33 34  1  0
 33 35  1  0
 34 41  1  0
  1 45  1  0
  2 46  1  0
  3 47  1  0
  4 48  1  0
  5 49  1  0
  6 50  1  0
  7 51  1  0
  8 52  1  0
  9 53  1  0
 10 54  1  0
 21 55  1  0
 21 56  1  0
 21 57  1  0
 22 58  1  0
 22 59  1  0
 22 60  1  0
 23 61  1  0
 23 62  1  0
 23 63  1  0
 24 64  1  0
 24 65  1  0
 24 66  1  0
 25 67  1  0
 25 68  1  0
 26 69  1  0
 26 70  1  0
 27 71  1  0
 27 72  1  0
 28 73  1  0
 28 74  1  0
 29 75  1  0
 29 76  1  0
 30 77  1  0
 30 78  1  0
 31 79  1  0
 31 80  1  0
 32 81  1  1
 33 82  1  6
 34 83  1  1
 35 84  1  0
 37 85  1  0
 37 86  1  0
 37 87  1  0
 38 88  1  0
 38 89  1  0
 41 90  1  0
M  CHG  2  37   1  38   1
M  END
>  <OMEGA_C>  (3) 
2Y78QLY3BUHL4pDBlI3bQFKu+EBrqorBfbXzQFsrDUELMZvBwnDMQAAqnb5hY4fBXCL+QDs5mj8w
wXzBOt/zQEhmh7+tYG/BbomoQGWNA0HEDJnBcAXUQHv7kD8orqrB85icQHbLA79Kr6bBlJ3jQMg6
n797XqzBIfnfQI41dz+dkIbBOpDWQKkQqb8Q53/BnJqxQLHm9kDvvI7BauMDQUa4ST7NmW3BpfKp
QLdpVD8MVKfBXdXJQHhtDEGcZp/B5eXwQP7fyD19Eq3BFFW5QDolxr92UanBSJjTQP6mA0B75o3B
BqO/QHYAJ8Cc5X/BSEVJQLIZL8CqpJLBNKwIQcntl8CEhIjBNPcbQaHb7D8FRVnBERaZQHt/E0GY
F67B/UiLQC1N+T+pc6TB2YqOQL8v40CKBIjBm9NyQFslhMBVUpPBwcEEQaAuXsDBGY/Bm1qYQGAC
jcCS6onB7+bZQLqdUsAnP5LBDXSVQOkRnECtRpDBe5sRQVCd6T4A1FnBvUGfQJhRN0C82pvBtsp/
QKC5fUBSd5jBp3mrQIx6AUAnsJLB8Fa7QLC2WcAjLInB7rciQfv3Dr8xZ1jBBFpyQGyhwEA4+I3B
xA3sQBi6P0AWho/B4oewQASEP8A+2W7BQUdpQAjol0D8m6HBRdXDQDV9FEFRqqnBT6EMQb3uyj7S
I7DBTmqsQFJsNcDO76jBsF4OQZzwBUHLwY3BaWHiQGhr7EAoxYLBT6IGQQ7qE0Hs7Z/BtsG1QBmu
AL9Bt43BLfoGQQ5xCkCByHvBljL7QMxf6r8g4mPBjTyIQHD/AkE4HJzBMgTeQOpmCkD+Z6vBuc54
QBlkQL9rLaTB/dT5QG2RAsDyKq7BPBQeQEHsJcBAf5nBXZokQKPoKcDAKIvBp3J7QIF3+79CyZLB
vMQZQQ1gmsCRhIbB/W3+QE2SlsCfGoHBhNQDQU4OtMDbOI3Bo4UlQeA/+j/MlUrBi2QmQTet/D9M
T2fBWGQPQeytJ0D5hFnBVyKZQK9jGkGDMLbBpJOOQPW3AkG7eq7BtAuDQEKhHEF5+KjB/UOEQLie
IkDDpqvBw91aQFnawT/3VKHBMIicQB8J1kBkpIDBq9RtQInx+0Aw9YXBj/Y/QOp6nMDPPJPBbWeL
QHlkhsBR3ZrBdsoJQWWOJsCFVIrB/GcOQWaGYcDBcpbBywCGQCt/jMBpaILBfqymQK/arMDtB4vB
1yTWQDbgEsDa3JXBYbjRQCX/gcAkLZjBjHabQJcSikAw3YjBMf2zQLHNp0CEhpPBSkcHQbnmuT7r
p0vBagK8QHmVVUBLPZ/BmaxGQBlTYEDF3ZTBIKqVQOcPsj/PvI/BZKgrQZbGxL7XbUvB6SwcQcf7
u7+jV1fBnugrQVeEAr8wemXBvshAQCottkDToonBOBJdQBR+zEA96JTBs1tOQHcqhkBuyKbB

>  <OMEGA_E>  (3) 
0LBPPg==

>  <OMEGA_NBR>  (3) 
      1783

$$$$
50141643
     RDKit          3D

 85 87  0  0  1  0  0  0  0  0999 V2000
    7.9572    8.2053  -18.0921 C   0  0  0  0  0  0  0  0  0  0  0  0
    6.9139    7.6739  -17.3141 C   0  0  0  0  0  0  0  0  0  0  0  0
    7.6888    8.7210  -19.3748 C   0  0  0  0  0  0  0  0  0  0  0  0
    7.9616    1.3163  -15.8059 C   0  0  0  0  0  0  0  0  0  0  0  0
    7.7197   -0.9509  -14.9368 C   0  0  0  0  0  0  0  0  0  0  0  0
    6.3605   -0.2147  -16.8222 C   0  0  0  0  0  0  0  0  0  0  0  0
    5.3244    8.1875  -19.0997 C   0  0  0  0  0  0  0  0  0  0  0  0
    6.5244    1.0527  -21.3609 C   0  0  0  0  0  0  0  0  0  0  0  0
    4.7161   -0.5320  -20.9371 C   0  0  0  0  0  0  0  0  0  0  0  0
    6.8940   -1.3322  -21.6952 C   0  0  0  0  0  0  0  0  0  0  0  0
    8.3305    0.3219  -14.8739 C   0  0  0  0  0  0  0  0  0  0  0  0
    6.9768    1.0546  -16.7801 C   0  0  0  0  0  0  0  0  0  0  0  0
    6.7387   -1.2232  -15.9115 C   0  0  0  0  0  0  0  0  0  0  0  0
    5.5990    7.6637  -17.8160 C   0  0  0  0  0  0  0  0  0  0  0  0
    5.1979    0.7927  -20.9487 C   0  0  0  0  0  0  0  0  0  0  0  0
    6.3772    8.7151  -19.8955 C   0  0  0  0  0  0  0  0  0  0  0  0
    7.3751   -0.0088  -21.7140 C   0  0  0  0  0  0  0  0  0  0  0  0
    5.5575   -1.5895  -21.3299 C   0  0  0  0  0  0  0  0  0  0  0  0
    9.3424    0.6162  -13.8353 C   0  0  0  0  0  0  0  0  0  0  0  0
    6.5878    2.0992  -17.7450 C   0  0  0  0  0  0  0  0  0  0  0  0
    6.0576   -2.5344  -15.9370 C   0  0  0  0  0  0  0  0  0  0  0  0
    3.0076   -2.8591  -18.5452 C   0  0  0  0  0  0  0  0  0  0  0  0
    8.5095   -4.4724  -17.1054 C   0  0  0  0  0  0  0  0  0  0  0  0
    4.8614    9.2038  -21.7262 C   0  0  0  0  0  0  0  0  0  0  0  0
    4.2789    1.9349  -20.5622 C   0  0  0  0  0  0  0  0  0  0  0  0
    4.4903    7.0671  -16.9794 C   0  0  0  0  0  0  0  0  0  0  0  0
    3.7953   -4.1773  -18.4410 C   0  0  0  0  0  0  0  0  0  0  0  0
    7.6281   -4.3328  -18.3583 C   0  0  0  0  0  0  0  0  0  0  0  0
    4.6786   -4.2175  -17.1729 C   0  0  0  0  0  0  0  0  0  0  0  0
    6.7065   -3.0988  -18.2811 C   0  0  0  0  0  0  0  0  0  0  0  0
    4.6788    4.8550  -18.0412 C   0  0  0  0  0  0  0  0  0  0  0  0
    4.9441    2.8470  -19.5092 C   0  0  1  0  0  0  0  0  0  0  0  0
    3.9795    3.9489  -19.0543 C   0  0  2  0  0  0  0  0  0  0  0  0
    9.9810   -0.4126  -13.1661 N   0  0  0  0  0  0  0  0  0  0  0  0
    5.3516    2.0088  -18.3723 N   0  0  0  0  0  0  0  0  0  0  0  0
    5.7396   -3.1696  -17.1501 N   0  0  0  0  0  0  0  0  0  0  0  0
    3.8063    5.9997  -17.7274 N   0  0  0  0  0  0  0  0  0  0  0  0
    9.6313    1.7737  -13.5540 O   0  0  0  0  0  0  0  0  0  0  0  0
    7.3499    3.0294  -17.9900 O   0  0  0  0  0  0  0  0  0  0  0  0
    5.7048   -3.0257  -14.8697 O   0  0  0  0  0  0  0  0  0  0  0  0
    3.5981    4.7369  -20.1834 O   0  0  0  0  0  0  0  0  0  0  0  0
    6.1996    9.2289  -21.1758 O   0  0  0  0  0  0  0  0  0  0  0  0
    8.6480    0.2475  -22.0904 F   0  0  0  0  0  0  0  0  0  0  0  0
    5.0779   -2.8525  -21.3711 F   0  0  0  0  0  0  0  0  0  0  0  0
    8.9656    8.2181  -17.7057 H   0  0  0  0  0  0  0  0  0  0  0  0
    7.1211    7.2740  -16.3325 H   0  0  0  0  0  0  0  0  0  0  0  0
    8.4963    9.1257  -19.9669 H   0  0  0  0  0  0  0  0  0  0  0  0
    8.4377    2.2851  -15.7721 H   0  0  0  0  0  0  0  0  0  0  0  0
    8.0063   -1.7193  -14.2341 H   0  0  0  0  0  0  0  0  0  0  0  0
    5.5943   -0.4149  -17.5565 H   0  0  0  0  0  0  0  0  0  0  0  0
    4.3124    8.1868  -19.4767 H   0  0  0  0  0  0  0  0  0  0  0  0
    6.8852    2.0697  -21.4047 H   0  0  0  0  0  0  0  0  0  0  0  0
    3.7017   -0.7353  -20.6270 H   0  0  0  0  0  0  0  0  0  0  0  0
    7.5486   -2.1491  -21.9605 H   0  0  0  0  0  0  0  0  0  0  0  0
    2.3934   -2.8695  -19.4577 H   0  0  0  0  0  0  0  0  0  0  0  0
    2.3557   -2.7511  -17.6658 H   0  0  0  0  0  0  0  0  0  0  0  0
    3.7108   -2.0142  -18.5863 H   0  0  0  0  0  0  0  0  0  0  0  0
    9.1483   -5.3625  -17.2033 H   0  0  0  0  0  0  0  0  0  0  0  0
    9.1409   -3.5779  -16.9999 H   0  0  0  0  0  0  0  0  0  0  0  0
    7.8695   -4.5765  -16.2168 H   0  0  0  0  0  0  0  0  0  0  0  0
    4.8717    9.6386  -22.7365 H   0  0  0  0  0  0  0  0  0  0  0  0
    4.5059    8.1641  -21.7782 H   0  0  0  0  0  0  0  0  0  0  0  0
    4.1891    9.7894  -21.0819 H   0  0  0  0  0  0  0  0  0  0  0  0
    4.0472    2.5293  -21.4583 H   0  0  0  0  0  0  0  0  0  0  0  0
    3.3483    1.5226  -20.1449 H   0  0  0  0  0  0  0  0  0  0  0  0
    4.9173    6.6477  -16.0565 H   0  0  0  0  0  0  0  0  0  0  0  0
    3.7650    7.8535  -16.7235 H   0  0  0  0  0  0  0  0  0  0  0  0
    3.0840   -5.0157  -18.4066 H   0  0  0  0  0  0  0  0  0  0  0  0
    4.4391   -4.2788  -19.3272 H   0  0  0  0  0  0  0  0  0  0  0  0
    8.2778   -4.2362  -19.2407 H   0  0  0  0  0  0  0  0  0  0  0  0
    7.0065   -5.2348  -18.4576 H   0  0  0  0  0  0  0  0  0  0  0  0
    4.0320   -4.0767  -16.2942 H   0  0  0  0  0  0  0  0  0  0  0  0
    5.1628   -5.2036  -17.1176 H   0  0  0  0  0  0  0  0  0  0  0  0
    7.3303   -2.2017  -18.1544 H   0  0  0  0  0  0  0  0  0  0  0  0
    6.1416   -3.0227  -19.2220 H   0  0  0  0  0  0  0  0  0  0  0  0
    4.8851    4.2874  -17.1218 H   0  0  0  0  0  0  0  0  0  0  0  0
    5.6251    5.2202  -18.4668 H   0  0  0  0  0  0  0  0  0  0  0  0
    5.8313    3.3161  -19.9596 H   0  0  0  0  0  0  0  0  0  0  0  0
    3.0979    3.4888  -18.5842 H   0  0  0  0  0  0  0  0  0  0  0  0
   10.6651   -0.2055  -12.4667 H   0  0  0  0  0  0  0  0  0  0  0  0
    9.7586   -1.3634  -13.3818 H   0  0  0  0  0  0  0  0  0  0  0  0
    4.6993    1.3327  -18.0296 H   0  0  0  0  0  0  0  0  0  0  0  0
    3.0371    5.6712  -17.1794 H   0  0  0  0  0  0  0  0  0  0  0  0
    3.4646    6.3826  -18.5857 H   0  0  0  0  0  0  0  0  0  0  0  0
    3.1616    4.1855  -20.8221 H   0  0  0  0  0  0  0  0  0  0  0  0
  1  2  2  0
  1  3  1  0
  2 14  1  0
  3 16  2  0
  4 11  2  0
  4 12  1  0
  5 11  1  0
  5 13  2  0
  6 12  2  0
  6 13  1  0
  7 14  2  0
  7 16  1  0
  8 15  2  0
  8 17  1  0
  9 15  1  0
  9 18  2  0
 10 17  2  0
 10 18  1  0
 11 19  1  0
 12 20  1  0
 13 21  1  0
 14 26  1  0
 15 25  1  0
 16 42  1  0
 17 43  1  0
 18 44  1  0
 19 34  1  0
 19 38  2  0
 20 35  1  0
 20 39  2  0
 21 36  1  0
 21 40  2  0
 22 27  1  0
 23 28  1  0
 24 42  1  0
 25 32  1  0
 26 37  1  0
 27 29  1  0
 28 30  1  0
 29 36  1  0
 30 36  1  0
 31 33  1  0
 31 37  1  0
 32 33  1  0
 32 35  1  0
 33 41  1  0
  1 45  1  0
  2 46  1  0
  3 47  1  0
  4 48  1  0
  5 49  1  0
  6 50  1  0
  7 51  1  0
  8 52  1  0
  9 53  1  0
 10 54  1  0
 22 55  1  0
 22 56  1  0
 22 57  1  0
 23 58  1  0
 23 59  1  0
 23 60  1  0
 24 61  1  0
 24 62  1  0
 24 63  1  0
 25 64  1  0
 25 65  1  0
 26 66  1  0
 26 67  1  0
 27 68  1  0
 27 69  1  0
 28 70  1  0
 28 71  1  0
 29 72  1  0
 29 73  1  0
 30 74  1  0
 30 75  1  0
 31 76  1  0
 31 77  1  0
 32 78  1  6
 33 79  1  1
 34 80  1  0
 34 81  1  0
 35 82  1  0
 37 83  1  0
 37 84  1  0
 41 85  1  0
M  CHG  1  37   1
M  END
>  <OMEGA_C>  (4) 
I6H+QABJA0GovJDBgz7dQKeQ9UBNg4rBrAr2QBCJC0GE/5rBvcX+QCV8qD/V5HzBGgj3QDBuc79B
/W7BEYnLQCXQW77Xk4bBdGGqQOP/AkErzJjBlcfQQJe+hj8o46rB5emWQMQyCL8qf6fBRZvcQJmE
qr+6j63BskkFQTzOpD6S+23BzkHfQDv+hj+oPYbBhKPXQKiQnL+MlX7B1yqzQAU99UA6h47BbFWm
QM3sSj/blqfBXxLMQARxC0HlKZ/BHgHsQFC7D7xbtq3BH9exQFJ0y7+Oo6rBXHoVQRrBHT9OXV3B
E8/SQItZBkCt9Y3Bh9fBQDU0IsDc/X7BzXxAQF77NsCdXJTBziYIQToej8Dq14jBk5CbQNVCE0E0
z63BmeyIQIyp9z90f6TB3bCPQLMl4kDf1YfBqOVyQGGshcBEh5PBnRn0QPOlisDO3ZLBNreVQI31
hsAYYonBbZvWQIVSRsC5P5LBrLiVQP1bm0BuVJDBaDaeQHk0NkDOEpzBfa9+QJK7fEAyb5jBRbIf
QbhD0746qFLBIkCrQNaQAEBh+pLB9qq3QCXaSsBxM4nBlZpzQC39v0DF0Y3B8RkaQYkI4z813VjB
RDLrQF/hQUB364/B0422QL6lQcBs6m3BEUdmQOOUl0CWd6HB5WLGQL6pE0EaaKnBPF4KQUN9fT4S
ubDBNn6iQCSPNsDu96rBHHMPQYp9A0FUpY3BqN/jQHfE6ED8qILBpvAHQb0CEkE8vJ/B/AAHQQc/
EkC5WnzByRkAQb4S3L/rvmPBdwSzQEtr1L7Kc4zBzf6JQBr9AkFg0JvBzlPcQIx1BEDmPKvBmOhs
QGE8PL8SBKXBVI7xQHOLCcAHr6/BWy0ZQLClN8BgqZvBdsQWQJ0SMMCJU43B331tQL7oAMDNsJTB
jV8SQf6Zq8BMoInBA0ESQWn8ZMC1/4fB8NL7QH5yksAQvIHBu+SbQNs3GkFr5LXBfTCQQE+gAkGx
Oa7B1wyGQHKhHEHNp6jBSIKBQMTfIUCiqqvB/EpWQK/lwj/VKKHBP1qdQMq51ECxc4DBzPVwQNBP
+0DUyYXBL2BFQIaAoMDNQJPBzAyOQJfriMARnprB93EEQQ6Ph8Dl7JnB1zTgQFiDp8BAqZPBKgaB
QO5zgsCUWoLBYjWlQEiEpsDR8IjB55HqQI3oDMBBPJHBV4jEQHR0QcCRxpnB0FKcQKkyiUB3+YjB
zQC0QLcLp0APvJPBI5q6QEo6VEA7rZ/BUkNGQARIX0BjrJTBFqQqQTFnUr5td0fBKCMcQQ+Err/c
G1bB9WCWQBKVqj+5PJDBEV9CQJJ6tUBZb4nBy7xdQKs+zEB0r5TBa1dKQJDvhUCRk6bB

>  <OMEGA_E>  (4) 
oLpsPQ==

>  <OMEGA_NBR>  (4) 
      6890

$$$$
50141634
     RDKit          3D

 87 89  0  0  1  0  0  0  0  0999 V2000
    7.7016    8.3635  -18.5797 C   0  0  0  0  0  0  0  0  0  0  0  0
    7.1196    8.8200  -19.7840 C   0  0  0  0  0  0  0  0  0  0  0  0
    6.9011    7.7509  -17.5937 C   0  0  0  0  0  0  0  0  0  0  0  0
    7.9771    1.3374  -15.8595 C   0  0  0  0  0  0  0  0  0  0  0  0
    7.7130   -0.9168  -14.9720 C   0  0  0  0  0  0  0  0  0  0  0  0
    6.4139   -0.2155  -16.9111 C   0  0  0  0  0  0  0  0  0  0  0  0
    4.9362    8.0855  -19.0001 C   0  0  0  0  0  0  0  0  0  0  0  0
    6.6335    1.0880  -21.4276 C   0  0  0  0  0  0  0  0  0  0  0  0
    4.8493   -0.5032  -20.9292 C   0  0  0  0  0  0  0  0  0  0  0  0
    7.0568   -1.3053  -21.5964 C   0  0  0  0  0  0  0  0  0  0  0  0
    8.3237    0.3560  -14.9077 C   0  0  0  0  0  0  0  0  0  0  0  0
    7.0226    1.0588  -16.8591 C   0  0  0  0  0  0  0  0  0  0  0  0
    6.7596   -1.2071  -15.9717 C   0  0  0  0  0  0  0  0  0  0  0  0
    5.7249    8.6663  -20.0024 C   0  0  0  0  0  0  0  0  0  0  0  0
    5.5160    7.6093  -17.8123 C   0  0  0  0  0  0  0  0  0  0  0  0
    5.3032    0.8282  -21.0273 C   0  0  0  0  0  0  0  0  0  0  0  0
    7.5110    0.0236  -21.6975 C   0  0  0  0  0  0  0  0  0  0  0  0
    5.7228   -1.5668  -21.2259 C   0  0  0  0  0  0  0  0  0  0  0  0
    9.2987    0.6683  -13.8377 C   0  0  0  0  0  0  0  0  0  0  0  0
    6.6516    2.0969  -17.8338 C   0  0  0  0  0  0  0  0  0  0  0  0
    6.0449   -2.5027  -15.9542 C   0  0  0  0  0  0  0  0  0  0  0  0
    5.9221    9.4954  -22.4279 C   0  0  0  0  0  0  0  0  0  0  0  0
    3.0504   -2.7238  -18.4706 C   0  0  0  0  0  0  0  0  0  0  0  0
    8.3750   -4.7822  -17.1186 C   0  0  0  0  0  0  0  0  0  0  0  0
    5.0008    9.1521  -21.2533 C   0  0  0  0  0  0  0  0  0  0  0  0
    4.3743    1.9768  -20.6788 C   0  0  0  0  0  0  0  0  0  0  0  0
    4.6402    6.8925  -16.8167 C   0  0  0  0  0  0  0  0  0  0  0  0
    3.7330   -4.0999  -18.3826 C   0  0  0  0  0  0  0  0  0  0  0  0
    8.1961   -3.4760  -17.9114 C   0  0  0  0  0  0  0  0  0  0  0  0
    4.6595   -4.2254  -17.1451 C   0  0  0  0  0  0  0  0  0  0  0  0
    6.7168   -3.1993  -18.2814 C   0  0  0  0  0  0  0  0  0  0  0  0
    4.7790    4.7825  -18.0488 C   0  0  0  0  0  0  0  0  0  0  0  0
    5.0194    2.8674  -19.5980 C   0  0  1  0  0  0  0  0  0  0  0  0
    4.0567    3.9530  -19.1070 C   0  0  2  0  0  0  0  0  0  0  0  0
    9.9055   -0.3484  -13.1218 N   0  0  0  0  0  0  0  0  0  0  0  0
    5.4233    2.0068  -18.4754 N   0  0  0  0  0  0  0  0  0  0  0  0
    5.7763   -3.2370  -17.1267 N   0  0  0  0  0  0  0  0  0  0  0  0
    3.8977    5.8325  -17.5256 N   0  0  0  0  0  0  0  0  0  0  0  0
    9.5755    1.8303  -13.5625 O   0  0  0  0  0  0  0  0  0  0  0  0
    7.4172    3.0278  -18.0662 O   0  0  0  0  0  0  0  0  0  0  0  0
    5.6553   -2.9226  -14.8695 O   0  0  0  0  0  0  0  0  0  0  0  0
    3.6893    4.8048  -20.1928 O   0  0  0  0  0  0  0  0  0  0  0  0
    8.7877    0.2801  -22.0604 F   0  0  0  0  0  0  0  0  0  0  0  0
    5.2835   -2.8414  -21.1513 F   0  0  0  0  0  0  0  0  0  0  0  0
    8.7620    8.4840  -18.4142 H   0  0  0  0  0  0  0  0  0  0  0  0
    7.7359    9.2861  -20.5385 H   0  0  0  0  0  0  0  0  0  0  0  0
    7.3463    7.3927  -16.6773 H   0  0  0  0  0  0  0  0  0  0  0  0
    8.4462    2.3095  -15.8223 H   0  0  0  0  0  0  0  0  0  0  0  0
    7.9783   -1.6745  -14.2495 H   0  0  0  0  0  0  0  0  0  0  0  0
    5.6805   -0.4303  -17.6743 H   0  0  0  0  0  0  0  0  0  0  0  0
    3.8688    8.0029  -19.1427 H   0  0  0  0  0  0  0  0  0  0  0  0
    6.9768    2.1072  -21.5264 H   0  0  0  0  0  0  0  0  0  0  0  0
    3.8327   -0.7068  -20.6269 H   0  0  0  0  0  0  0  0  0  0  0  0
    7.7306   -2.1238  -21.8026 H   0  0  0  0  0  0  0  0  0  0  0  0
    5.3175    9.8348  -23.2818 H   0  0  0  0  0  0  0  0  0  0  0  0
    6.6152   10.2954  -22.1285 H   0  0  0  0  0  0  0  0  0  0  0  0
    6.4958    8.6024  -22.7169 H   0  0  0  0  0  0  0  0  0  0  0  0
    2.4077   -2.6891  -19.3627 H   0  0  0  0  0  0  0  0  0  0  0  0
    2.4384   -2.5601  -17.5714 H   0  0  0  0  0  0  0  0  0  0  0  0
    3.8171   -1.9382  -18.5404 H   0  0  0  0  0  0  0  0  0  0  0  0
    9.4400   -4.9266  -16.8844 H   0  0  0  0  0  0  0  0  0  0  0  0
    7.7984   -4.7254  -16.1835 H   0  0  0  0  0  0  0  0  0  0  0  0
    8.0141   -5.6289  -17.7210 H   0  0  0  0  0  0  0  0  0  0  0  0
    4.3093    8.3611  -21.5790 H   0  0  0  0  0  0  0  0  0  0  0  0
    4.4286   10.0541  -20.9906 H   0  0  0  0  0  0  0  0  0  0  0  0
    4.1841    2.5779  -21.5802 H   0  0  0  0  0  0  0  0  0  0  0  0
    3.4236    1.5742  -20.2992 H   0  0  0  0  0  0  0  0  0  0  0  0
    5.2636    6.4454  -16.0283 H   0  0  0  0  0  0  0  0  0  0  0  0
    3.9324    7.6034  -16.3655 H   0  0  0  0  0  0  0  0  0  0  0  0
    2.9558   -4.8760  -18.3216 H   0  0  0  0  0  0  0  0  0  0  0  0
    4.3345   -4.2540  -19.2906 H   0  0  0  0  0  0  0  0  0  0  0  0
    8.5685   -2.6400  -17.3011 H   0  0  0  0  0  0  0  0  0  0  0  0
    8.7841   -3.5436  -18.8385 H   0  0  0  0  0  0  0  0  0  0  0  0
    4.0514   -4.0785  -16.2402 H   0  0  0  0  0  0  0  0  0  0  0  0
    5.0914   -5.2370  -17.1363 H   0  0  0  0  0  0  0  0  0  0  0  0
    6.6579   -2.2015  -18.7407 H   0  0  0  0  0  0  0  0  0  0  0  0
    6.3969   -3.9581  -19.0107 H   0  0  0  0  0  0  0  0  0  0  0  0
    5.0878    4.1250  -17.2228 H   0  0  0  0  0  0  0  0  0  0  0  0
    5.6682    5.2479  -18.4990 H   0  0  0  0  0  0  0  0  0  0  0  0
    5.9084    3.3521  -20.0278 H   0  0  0  0  0  0  0  0  0  0  0  0
    3.1691    3.4806  -18.6608 H   0  0  0  0  0  0  0  0  0  0  0  0
   10.5565   -0.1287  -12.3952 H   0  0  0  0  0  0  0  0  0  0  0  0
    9.6930   -1.3029  -13.3310 H   0  0  0  0  0  0  0  0  0  0  0  0
    4.7750    1.3160  -18.1553 H   0  0  0  0  0  0  0  0  0  0  0  0
    3.2464    5.4174  -16.8903 H   0  0  0  0  0  0  0  0  0  0  0  0
    3.4014    6.2447  -18.2897 H   0  0  0  0  0  0  0  0  0  0  0  0
    3.2388    4.2960  -20.8566 H   0  0  0  0  0  0  0  0  0  0  0  0
  1  2  2  0
  1  3  1  0
  2 14  1  0
  3 15  2  0
  4 11  2  0
  4 12  1  0
  5 11  1  0
  5 13  2  0
  6 12  2  0
  6 13  1  0
  7 14  2  0
  7 15  1  0
  8 16  2  0
  8 17  1  0
  9 16  1  0
  9 18  2  0
 10 17  2  0
 10 18  1  0
 11 19  1  0
 12 20  1  0
 13 21  1  0
 14 25  1  0
 15 27  1  0
 16 26  1  0
 17 43  1  0
 18 44  1  0
 19 35  1  0
 19 39  2  0
 20 36  1  0
 20 40  2  0
 21 37  1  0
 21 41  2  0
 22 25  1  0
 23 28  1  0
 24 29  1  0
 26 33  1  0
 27 38  1  0
 28 30  1  0
 29 31  1  0
 30 37  1  0
 31 37  1  0
 32 34  1  0
 32 38  1  0
 33 34  1  0
 33 36  1  0
 34 42  1  0
  1 45  1  0
  2 46  1  0
  3 47  1  0
  4 48  1  0
  5 49  1  0
  6 50  1  0
  7 51  1  0
  8 52  1  0
  9 53  1  0
 10 54  1  0
 22 55  1  0
 22 56  1  0
 22 57  1  0
 23 58  1  0
 23 59  1  0
 23 60  1  0
 24 61  1  0
 24 62  1  0
 24 63  1  0
 25 64  1  0
 25 65  1  0
 26 66  1  0
 26 67  1  0
 27 68  1  0
 27 69  1  0
 28 70  1  0
 28 71  1  0
 29 72  1  0
 29 73  1  0
 30 74  1  0
 30 75  1  0
 31 76  1  0
 31 77  1  0
 32 78  1  0
 32 79  1  0
 33 80  1  6
 34 81  1  1
 35 82  1  0
 35 83  1  0
 36 84  1  0
 38 85  1  0
 38 86  1  0
 42 87  1  0
M  CHG  1  38   1
M  END
>  <OMEGA_C>  (5) 
onP2QLzQBUE8o5TBGdTjQOgeDUGnRZ7B9NXcQKcH+EDsv4zBMUT/QN0wqz92wH3BEdH2QOS1ar81
jW/Baz7NQJq3XL71SYfBafWdQDleAUFKAJjBd0XUQP1Ciz++a6vBii2bQNLRAL8Zb6fBDNHhQIgU
p79UxazBsC0FQRo/tj4Xhm7BUbngQNGHhz9u34bBkk7YQKaCmr/8i3/BgDK3QPeoCkH2BKDBWYOw
QIB/80CUf47BE7SpQMAEVD/eN6jBxVnwQPAgwTyVlK3B/iC3QByNyL+szqnBg8cUQa4UKz8zZ13B
SNrUQPAzBkCyq47B0G/BQAstIMA0RH/B+IG9QB3tF0FUbLPBRjlDQEVTLsDXw5PB4P8FQe8HmcDq
8ojB2wagQPpuEkHXBqrBJfqLQEQJ/T8ibqXB6HyUQDqP3ECFiIbBOuluQLwyg8CmD5PBCiMDQYB2
XsB2So/BPRqVQJA2h8ARKYnBRfDWQBnBTMBXQJLBb+2YQPkJmUDcY5DBAZ+gQJGDN0CfyJzBjdCB
QBz+fEAg25jB33weQSVesr7r8lHBgYutQI1vAECmzZPBD9e4QDYqT8CSA4nBlHN5QHKjukB4NIzB
azUZQTZH6j8kAFnBbVntQLLGQUCih5DBlvi0QIwLO8CE6W3BrB1sQNPAmUDqiqHBPZoMQcBujz6r
e7DBLRKpQOHYNcDUNanBTDEMQYa+B0FiUJPB5Yz3QAaUFEHwTqTBLBXrQGCR7EAIa4XBxyMHQbPO
E0AdKH3B203/QOlW1r/8/WPBcca1QLJQ3L7nZI3BH5t3QPYLAEEtJJnB9EHfQBPcBkAUNqzBvUp1
QBf0NL/qA6XB42D3QLPrB8Cra67BkiiqQG9bHUEkQbrBYa/TQAC6JEEZB7HBj93PQJWjCUE5vLXB
xxcaQFsaLMDH5prBXw4cQIHYI8AtkozB7Up0QFIV+L/JUpTBNwoXQQmnncA0E4fB44z5QDw2l8Da
d4HBmTkAQREgtMCSxI3BneWJQADHBUHIoazBb7eNQGrdIEGn7KfBMOSFQFD8JEBApKzBDhxbQFd/
yT/XZKLBEG+oQGVAzkDjOYDBaax7QNFO80By7ILBjis9QAMInMCdkpLBDrSKQBchiMA6U5rBkhgJ
QUr2KMCOaIrBuosMQfTJYsBHtZbB4aSBQDiDgsAI7IHB8OyiQI2Vp8AcF4nBzg3VQIHlDMAE7ZXB
S7PMQKlRfcDeFZjBnM+iQJz/g0A1yInBfWG1QO7up0AB/pPBhxG9QGuJVkDnOKDB/NJKQN3CXkBc
SZXBWecoQVu+A77RUkbBuxYbQXPFpr+qS1XBZ8yYQI9yqD8iPpHBesVPQDdbrUBmH4fBJbFZQJTU
x0BGUZLBDUhPQIh4iUBZ2qbB

>  <OMEGA_E>  (5) 
kOprPg==

>  <OMEGA_NBR>  (5) 
      8619

$$$$
50141639
     RDKit          3D

 76 78  0  0  1  0  0  0  0  0999 V2000
    6.9103   -1.3495  -21.5170 C   0  0  0  0  0  0  0  0  0  0  0  0
    7.3671   -0.0263  -21.6697 C   0  0  0  0  0  0  0  0  0  0  0  0
    5.5948   -1.5952  -21.0772 C   0  0  0  0  0  0  0  0  0  0  0  0
    7.9645    8.2516  -18.1135 C   0  0  0  0  0  0  0  0  0  0  0  0
    6.5090    1.0507  -21.3813 C   0  0  0  0  0  0  0  0  0  0  0  0
    4.7372   -0.5197  -20.7759 C   0  0  0  0  0  0  0  0  0  0  0  0
    6.9231    7.7240  -17.3307 C   0  0  0  0  0  0  0  0  0  0  0  0
    7.6935    8.7604  -19.3980 C   0  0  0  0  0  0  0  0  0  0  0  0
    7.7000   -0.9276  -14.9497 C   0  0  0  0  0  0  0  0  0  0  0  0
    7.9088    1.3477  -15.7976 C   0  0  0  0  0  0  0  0  0  0  0  0
    6.3859   -0.2219  -16.8803 C   0  0  0  0  0  0  0  0  0  0  0  0
    5.3294    8.2264  -19.1158 C   0  0  0  0  0  0  0  0  0  0  0  0
    8.2865    0.3547  -14.8692 C   0  0  0  0  0  0  0  0  0  0  0  0
    6.7529   -1.2208  -15.9530 C   0  0  0  0  0  0  0  0  0  0  0  0
    6.9567    1.0682  -16.7990 C   0  0  0  0  0  0  0  0  0  0  0  0
    5.1929    0.8076  -20.9245 C   0  0  0  0  0  0  0  0  0  0  0  0
    5.6077    7.7071  -17.8307 C   0  0  0  0  0  0  0  0  0  0  0  0
    6.3806    8.7537  -19.9148 C   0  0  0  0  0  0  0  0  0  0  0  0
    9.2814    0.6592  -13.8155 C   0  0  0  0  0  0  0  0  0  0  0  0
    6.1012   -2.5423  -15.9893 C   0  0  0  0  0  0  0  0  0  0  0  0
    6.5670    2.1175  -17.7569 C   0  0  0  0  0  0  0  0  0  0  0  0
    2.9305   -2.9074  -18.4736 C   0  0  0  0  0  0  0  0  0  0  0  0
    4.8588    9.2633  -21.7334 C   0  0  0  0  0  0  0  0  0  0  0  0
    4.2777    1.9688  -20.5812 C   0  0  0  0  0  0  0  0  0  0  0  0
    4.5039    7.1079  -16.9888 C   0  0  0  0  0  0  0  0  0  0  0  0
    3.8900   -4.1108  -18.5520 C   0  0  0  0  0  0  0  0  0  0  0  0
    4.7718   -4.2246  -17.2973 C   0  0  0  0  0  0  0  0  0  0  0  0
    4.7003    4.9051  -18.0740 C   0  0  0  0  0  0  0  0  0  0  0  0
    4.9380    2.8795  -19.5237 C   0  0  1  0  0  0  0  0  0  0  0  0
    3.9856    3.9953  -19.0739 C   0  0  2  0  0  0  0  0  0  0  0  0
    9.8885   -0.3621  -13.1062 N   0  0  0  0  0  0  0  0  0  0  0  0
    5.6683   -3.0660  -17.2013 N   0  0  0  0  0  0  0  0  0  0  0  0
    5.3283    2.0412  -18.3794 N   0  0  0  0  0  0  0  0  0  0  0  0
    3.8189    6.0347  -17.7293 N   0  0  0  0  0  0  0  0  0  0  0  0
    9.5868    1.8180  -13.5584 O   0  0  0  0  0  0  0  0  0  0  0  0
    5.8545   -3.1220  -14.9369 O   0  0  0  0  0  0  0  0  0  0  0  0
    7.3351    3.0429  -18.0010 O   0  0  0  0  0  0  0  0  0  0  0  0
    3.6011    4.7789  -20.2042 O   0  0  0  0  0  0  0  0  0  0  0  0
    6.2014    9.2657  -21.1953 O   0  0  0  0  0  0  0  0  0  0  0  0
    7.5690   -2.1766  -21.7371 H   0  0  0  0  0  0  0  0  0  0  0  0
    8.3754    0.1617  -22.0080 H   0  0  0  0  0  0  0  0  0  0  0  0
    5.2431   -2.6108  -20.9708 H   0  0  0  0  0  0  0  0  0  0  0  0
    8.9738    8.2666  -17.7293 H   0  0  0  0  0  0  0  0  0  0  0  0
    6.8562    2.0654  -21.5091 H   0  0  0  0  0  0  0  0  0  0  0  0
    3.7315   -0.7104  -20.4314 H   0  0  0  0  0  0  0  0  0  0  0  0
    7.1322    7.3320  -16.3463 H   0  0  0  0  0  0  0  0  0  0  0  0
    8.4999    9.1604  -19.9947 H   0  0  0  0  0  0  0  0  0  0  0  0
    7.9790   -1.6899  -14.2374 H   0  0  0  0  0  0  0  0  0  0  0  0
    8.3529    2.3306  -15.7406 H   0  0  0  0  0  0  0  0  0  0  0  0
    5.6666   -0.4444  -17.6546 H   0  0  0  0  0  0  0  0  0  0  0  0
    4.3168    8.2225  -19.4913 H   0  0  0  0  0  0  0  0  0  0  0  0
    2.3207   -2.8638  -19.3881 H   0  0  0  0  0  0  0  0  0  0  0  0
    2.2724   -3.0197  -17.5993 H   0  0  0  0  0  0  0  0  0  0  0  0
    3.5133   -1.9796  -18.3770 H   0  0  0  0  0  0  0  0  0  0  0  0
    4.8680    9.6938  -22.7456 H   0  0  0  0  0  0  0  0  0  0  0  0
    4.4836    8.2302  -21.7780 H   0  0  0  0  0  0  0  0  0  0  0  0
    4.2032    9.8638  -21.0856 H   0  0  0  0  0  0  0  0  0  0  0  0
    4.0786    2.5546  -21.4907 H   0  0  0  0  0  0  0  0  0  0  0  0
    3.3301    1.5778  -20.1821 H   0  0  0  0  0  0  0  0  0  0  0  0
    4.9362    6.6930  -16.0663 H   0  0  0  0  0  0  0  0  0  0  0  0
    3.7768    7.8925  -16.7324 H   0  0  0  0  0  0  0  0  0  0  0  0
    3.2975   -5.0318  -18.6549 H   0  0  0  0  0  0  0  0  0  0  0  0
    4.5384   -3.9916  -19.4326 H   0  0  0  0  0  0  0  0  0  0  0  0
    4.1303   -4.2627  -16.4045 H   0  0  0  0  0  0  0  0  0  0  0  0
    5.3719   -5.1445  -17.3571 H   0  0  0  0  0  0  0  0  0  0  0  0
    4.9403    4.3350  -17.1644 H   0  0  0  0  0  0  0  0  0  0  0  0
    5.6290    5.2870  -18.5230 H   0  0  0  0  0  0  0  0  0  0  0  0
    5.8344    3.3381  -19.9665 H   0  0  0  0  0  0  0  0  0  0  0  0
    3.1038    3.5472  -18.5924 H   0  0  0  0  0  0  0  0  0  0  0  0
   10.5624   -0.1478  -12.3991 H   0  0  0  0  0  0  0  0  0  0  0  0
    9.6534   -1.3144  -13.3006 H   0  0  0  0  0  0  0  0  0  0  0  0
    5.9817   -2.6339  -18.0469 H   0  0  0  0  0  0  0  0  0  0  0  0
    4.6645    1.3796  -18.0306 H   0  0  0  0  0  0  0  0  0  0  0  0
    3.0682    5.6902  -17.1656 H   0  0  0  0  0  0  0  0  0  0  0  0
    3.4508    6.4191  -18.5759 H   0  0  0  0  0  0  0  0  0  0  0  0
    3.1549    4.2270  -20.8358 H   0  0  0  0  0  0  0  0  0  0  0  0
  1  2  2  0
  1  3  1  0
  2  5  1  0
  3  6  2  0
  4  7  2  0
  4  8  1  0
  5 16  2  0
  6 16  1  0
  7 17  1  0
  8 18  2  0
  9 13  2  0
  9 14  1  0
 10 13  1  0
 10 15  2  0
 11 14  2  0
 11 15  1  0
 12 17  2  0
 12 18  1  0
 13 19  1  0
 14 20  1  0
 15 21  1  0
 16 24  1  0
 17 25  1  0
 18 39  1  0
 19 31  1  0
 19 35  2  0
 20 32  1  0
 20 36  2  0
 21 33  1  0
 21 37  2  0
 22 26  1  0
 23 39  1  0
 24 29  1  0
 25 34  1  0
 26 27  1  0
 27 32  1  0
 28 30  1  0
 28 34  1  0
 29 30  1  0
 29 33  1  0
 30 38  1  0
  1 40  1  0
  2 41  1  0
  3 42  1  0
  4 43  1  0
  5 44  1  0
  6 45  1  0
  7 46  1  0
  8 47  1  0
  9 48  1  0
 10 49  1  0
 11 50  1  0
 12 51  1  0
 22 52  1  0
 22 53  1  0
 22 54  1  0
 23 55  1  0
 23 56  1  0
 23 57  1  0
 24 58  1  0
 24 59  1  0
 25 60  1  0
 25 61  1  0
 26 62  1  0
 26 63  1  0
 27 64  1  0
 27 65  1  0
 28 66  1  0
 28 67  1  0
 29 68  1  6
 30 69  1  1
 31 70  1  0
 31 71  1  0
 32 72  1  0
 33 73  1  0
 34 74  1  0
 34 75  1  0
 38 76  1  0
M  CHG  1  34   1
M  END
>  <OMEGA_C>  (6) 
GyHdQL29rL+5IqzBcb/rQKBY17yeW63BegizQAkvzL8PnqjBcN3+QHQGBEGC6JDBxUnQQDR9hj/s
DKvBv5aXQOQIBb8INabB8YndQDMr90A0pYrBIDH2QGUqDEELL5vBT2b2QCJ5bb8iMm/BoBT9QKOC
rD8Sw3zBh1nMQFY8Y77vCofBs4qqQDmfA0Ey7ZjBa5UEQaaetT5F6G3BexfYQHNCnL9qP3/BZJ3e
QP+5iD9yZIbBkCymQEi9Tj9mZafB6nGzQPCg9kBcpY7BMy7MQC4PDEFuUZ/BroAUQdzAKD9xDF3B
4zzDQNC0IsA31H/BDiXSQD2FB0AwDo7BpIw7QKATOsDwyZPBGHubQEo2FEH63a3BEOOIQCkA/D9F
pqTBlB+QQLxz40AK6YfB8PV4QH2Lg8CCapTBe7KYQNsvh8DTYIrB7miWQFb2nECNl5DB9AOeQPtI
OEBwMJzBUBN/QG+yf0BMl5jBdzceQYVgub7yslHBcmK1QCU5RMBDnInBlIGqQICiAkAPCZPBVmh0
QCkcwUCU1Y3BiGMZQRC06D8N71jBZli7QOLOR8Bg/W7BHrnqQCm/QkAVApDBOXhmQADtmEBBoqHB
DnLGQDpAFEEPkKnBBzXyQNlNC8CY5a3BmgEGQXeRJT55ELDBmMenQOIWJ8A7xKfBgJQPQStEBEGW
1Y3BtGXbQAEvBECLEqzB1NBuQHndNb+Ec6PBpzrkQKCf6kA0xYLBrv8HQfeQEkET9Z/B8lP/QP5O
2L88zGPBVqUFQccnFUCP2XvBflS1QDCG476LPI3BPSOKQD+PA0Eg7pvB8oYUQMpIN8DcGpvB6W4R
QJBDQcBxy4zB6NlgQEVi/b8wBJPBAcebQO0ZG0Hv9rXB5nmPQL6uA0FAOa7B1ICGQAPSHUFNr6jB
KoSCQMZ+I0Dd7KvBEyFVQJr0yT8EdaHB9PSdQMws1kDNh4DBbbdxQJ6P/EDw24XBNApTQMwEocAp
PZXBmTqRQCt3f8DodZvBZiuEQOtniMBuPIPB7OarQMufpMBK24rBmhaeQBa4ikClUInB8CC0QDUv
qUAiL5TBfbO6QNuiVUBYu5/BZqVGQKUFY0AuvZTBvf8oQVVWF77GYkbBVnQaQY49qL9hz1TBEmq/
QA+SKMAYYJDB60OVQJaVsD+oPpDB71xEQMIVtkAhU4nBZdlcQP1ozUBym5TBoOpJQMtDh0Csr6bB

>  <OMEGA_E>  (6) 
0IxzPg==

>  <OMEGA_NBR>  (6) 
     10172

$$$$
50139666
     RDKit          3D

 81 83  0  0  1  0  0  0  0  0999 V2000
    7.0750   -1.3792  -21.5285 C   0  0  0  0  0  0  0  0  0  0  0  0
    7.5340   -0.0701  -21.7803 C   0  0  0  0  0  0  0  0  0  0  0  0
    5.7943   -1.5867  -20.9781 C   0  0  0  0  0  0  0  0  0  0  0  0
    8.8153    0.7010  -14.7841 C   0  0  0  0  0  0  0  0  0  0  0  0
    8.1157    8.3115  -18.4395 C   0  0  0  0  0  0  0  0  0  0  0  0
    8.4327    1.6198  -15.7825 C   0  0  0  0  0  0  0  0  0  0  0  0
    8.2153   -0.5724  -14.7294 C   0  0  0  0  0  0  0  0  0  0  0  0
    6.7132    1.0332  -21.4795 C   0  0  0  0  0  0  0  0  0  0  0  0
    4.9737   -0.4857  -20.6738 C   0  0  0  0  0  0  0  0  0  0  0  0
    7.1321    7.8047  -17.5713 C   0  0  0  0  0  0  0  0  0  0  0  0
    7.7671    8.7117  -19.7441 C   0  0  0  0  0  0  0  0  0  0  0  0
    6.8331   -0.0015  -16.6570 C   0  0  0  0  0  0  0  0  0  0  0  0
    5.4447    8.0985  -19.3126 C   0  0  0  0  0  0  0  0  0  0  0  0
    7.4320    1.2748  -16.7236 C   0  0  0  0  0  0  0  0  0  0  0  0
    7.2342   -0.9320  -15.6788 C   0  0  0  0  0  0  0  0  0  0  0  0
    5.4321    0.8254  -20.9223 C   0  0  0  0  0  0  0  0  0  0  0  0
    5.7986    7.6922  -18.0079 C   0  0  0  0  0  0  0  0  0  0  0  0
    6.4323    8.6164  -20.1934 C   0  0  0  0  0  0  0  0  0  0  0  0
    6.9957    2.2333  -17.7628 C   0  0  0  0  0  0  0  0  0  0  0  0
    6.5868   -2.2574  -15.6228 C   0  0  0  0  0  0  0  0  0  0  0  0
    3.9060   -3.4111  -17.7874 C   0  0  0  0  0  0  0  0  0  0  0  0
    9.3469   -4.7214  -18.1416 C   0  0  0  0  0  0  0  0  0  0  0  0
    4.7726    9.0535  -21.9030 C   0  0  0  0  0  0  0  0  0  0  0  0
    4.5624    2.0026  -20.5500 C   0  0  0  0  0  0  0  0  0  0  0  0
    4.7499    7.1428  -17.0647 C   0  0  0  0  0  0  0  0  0  0  0  0
    4.8908   -4.5948  -17.7909 C   0  0  0  0  0  0  0  0  0  0  0  0
    8.9917   -3.4319  -17.3960 C   0  0  0  0  0  0  0  0  0  0  0  0
    5.9320   -4.4606  -16.6632 C   0  0  0  0  0  0  0  0  0  0  0  0
    7.5951   -2.9390  -17.8176 C   0  0  0  0  0  0  0  0  0  0  0  0
    4.9320    4.8651  -17.9766 C   0  0  0  0  0  0  0  0  0  0  0  0
    5.2429    2.8878  -19.4813 C   0  0  1  0  0  0  0  0  0  0  0  0
    4.2265    3.9008  -18.9275 C   0  0  2  0  0  0  0  0  0  0  0  0
    5.7640    2.0418  -18.3893 N   0  0  0  0  0  0  0  0  0  0  0  0
    6.6293   -3.1489  -16.7170 N   0  0  0  0  0  0  0  0  0  0  0  0
    4.0451    6.0030  -17.6744 N   0  0  0  0  0  0  0  0  0  0  0  0
    7.7034    3.1924  -18.0533 O   0  0  0  0  0  0  0  0  0  0  0  0
    5.9989   -2.5581  -14.5899 O   0  0  0  0  0  0  0  0  0  0  0  0
    3.6597    4.6452  -20.0083 O   0  0  0  0  0  0  0  0  0  0  0  0
    6.1588    9.0481  -21.4859 O   0  0  0  0  0  0  0  0  0  0  0  0
    7.7062   -2.2249  -21.7579 H   0  0  0  0  0  0  0  0  0  0  0  0
    8.5152    0.0862  -22.2039 H   0  0  0  0  0  0  0  0  0  0  0  0
    5.4432   -2.5906  -20.7900 H   0  0  0  0  0  0  0  0  0  0  0  0
    9.5692    0.9737  -14.0605 H   0  0  0  0  0  0  0  0  0  0  0  0
    9.1394    8.3940  -18.1054 H   0  0  0  0  0  0  0  0  0  0  0  0
    8.9044    2.5902  -15.8300 H   0  0  0  0  0  0  0  0  0  0  0  0
    8.5059   -1.2736  -13.9612 H   0  0  0  0  0  0  0  0  0  0  0  0
    7.0622    2.0364  -21.6745 H   0  0  0  0  0  0  0  0  0  0  0  0
    3.9929   -0.6438  -20.2501 H   0  0  0  0  0  0  0  0  0  0  0  0
    7.3998    7.5018  -16.5698 H   0  0  0  0  0  0  0  0  0  0  0  0
    8.5284    9.0952  -20.4072 H   0  0  0  0  0  0  0  0  0  0  0  0
    6.0600   -0.2670  -17.3629 H   0  0  0  0  0  0  0  0  0  0  0  0
    4.4197    8.0155  -19.6426 H   0  0  0  0  0  0  0  0  0  0  0  0
    3.1778   -3.5369  -18.6023 H   0  0  0  0  0  0  0  0  0  0  0  0
    3.3760   -3.3780  -16.8241 H   0  0  0  0  0  0  0  0  0  0  0  0
    4.4607   -2.4724  -17.9332 H   0  0  0  0  0  0  0  0  0  0  0  0
   10.3458   -5.0618  -17.8312 H   0  0  0  0  0  0  0  0  0  0  0  0
    8.6049   -5.4981  -17.9045 H   0  0  0  0  0  0  0  0  0  0  0  0
    9.3449   -4.5308  -19.2249 H   0  0  0  0  0  0  0  0  0  0  0  0
    4.7024    9.4151  -22.9395 H   0  0  0  0  0  0  0  0  0  0  0  0
    4.3677    8.0325  -21.8428 H   0  0  0  0  0  0  0  0  0  0  0  0
    4.1939    9.7169  -21.2434 H   0  0  0  0  0  0  0  0  0  0  0  0
    4.3740    2.6074  -21.4492 H   0  0  0  0  0  0  0  0  0  0  0  0
    3.6070    1.6304  -20.1516 H   0  0  0  0  0  0  0  0  0  0  0  0
    5.2379    6.8105  -16.1366 H   0  0  0  0  0  0  0  0  0  0  0  0
    4.0225    7.9348  -16.8333 H   0  0  0  0  0  0  0  0  0  0  0  0
    4.3281   -5.5294  -17.6496 H   0  0  0  0  0  0  0  0  0  0  0  0
    5.4128   -4.6238  -18.7587 H   0  0  0  0  0  0  0  0  0  0  0  0
    8.9968   -3.6256  -16.3132 H   0  0  0  0  0  0  0  0  0  0  0  0
    9.7367   -2.6583  -17.6336 H   0  0  0  0  0  0  0  0  0  0  0  0
    5.4219   -4.5544  -15.6931 H   0  0  0  0  0  0  0  0  0  0  0  0
    6.6754   -5.2648  -16.7658 H   0  0  0  0  0  0  0  0  0  0  0  0
    7.6449   -1.8669  -18.0587 H   0  0  0  0  0  0  0  0  0  0  0  0
    7.2637   -3.4993  -18.7043 H   0  0  0  0  0  0  0  0  0  0  0  0
    5.1837    4.3399  -17.0434 H   0  0  0  0  0  0  0  0  0  0  0  0
    5.8538    5.2354  -18.4489 H   0  0  0  0  0  0  0  0  0  0  0  0
    6.0716    3.4369  -19.9521 H   0  0  0  0  0  0  0  0  0  0  0  0
    3.4424    3.3593  -18.3778 H   0  0  0  0  0  0  0  0  0  0  0  0
    5.1958    1.2801  -18.0777 H   0  0  0  0  0  0  0  0  0  0  0  0
    3.3352    5.6932  -17.0419 H   0  0  0  0  0  0  0  0  0  0  0  0
    3.6213    6.3104  -18.5264 H   0  0  0  0  0  0  0  0  0  0  0  0
    3.2185    4.0520  -20.6049 H   0  0  0  0  0  0  0  0  0  0  0  0
  1  2  2  0
  1  3  1  0
  2  8  1  0
  3  9  2  0
  4  6  2  0
  4  7  1  0
  5 10  2  0
  5 11  1  0
  6 14  1  0
  7 15  2  0
  8 16  2  0
  9 16  1  0
 10 17  1  0
 11 18  2  0
 12 14  2  0
 12 15  1  0
 13 17  2  0
 13 18  1  0
 14 19  1  0
 15 20  1  0
 16 24  1  0
 17 25  1  0
 18 39  1  0
 19 33  1  0
 19 36  2  0
 20 34  1  0
 20 37  2  0
 21 26  1  0
 22 27  1  0
 23 39  1  0
 24 31  1  0
 25 35  1  0
 26 28  1  0
 27 29  1  0
 28 34  1  0
 29 34  1  0
 30 32  1  0
 30 35  1  0
 31 32  1  0
 31 33  1  0
 32 38  1  0
  1 40  1  0
  2 41  1  0
  3 42  1  0
  4 43  1  0
  5 44  1  0
  6 45  1  0
  7 46  1  0
  8 47  1  0
  9 48  1  0
 10 49  1  0
 11 50  1  0
 12 51  1  0
 13 52  1  0
 21 53  1  0
 21 54  1  0
 21 55  1  0
 22 56  1  0
 22 57  1  0
 22 58  1  0
 23 59  1  0
 23 60  1  0
 23 61  1  0
 24 62  1  0
 24 63  1  0
 25 64  1  0
 25 65  1  0
 26 66  1  0
 26 67  1  0
 27 68  1  0
 27 69  1  0
 28 70  1  0
 28 71  1  0
 29 72  1  0
 29 73  1  0
 30 74  1  0
 30 75  1  0
 31 76  1  6
 32 77  1  1
 33 78  1  0
 35 79  1  0
 35 80  1  0
 38 81  1  0
M  CHG  1  35   1
M  END
>  <OMEGA_C>  (7) 
C2biQLaIsL9POqzBzxbxQHSHj70ZPq7B4Wq5QDYZy78c06fBlwsNQSF2Mz/Wi2zBBNoBQQ38BEEA
hJPBc+wGQXdVzz8uhXzBEXIDQbGFEr/Pq2vBT9LWQI4+hD8d1qvBNSifQKSx+L71Y6XBGTrkQOK/
+UDtkYzB/ov4QApjC0HW853BAKnaQABavrqiQYXB+jquQG+TAUE8gJrBNdPtQP4toz/nyYXBuX7n
QBiVbr9a3HrBhdOtQIBKUz/UYKfBgY65QJQm9kAzEJDBqNXNQKncCUEFjKHB79zfQMbtDkBRGo7B
8MbSQO55EMDt9nnBNvx5QFJPWsCuTI7BAI0VQX4Vl8DsIZHBvLiYQE/bEEFLOa/B+f6RQBIqAEBe
ZqTBJv+XQM6R5ECWhIjBuYGcQIoIk8CtU47BMN4PQYSkW8DyKovBzdK9QF29jsAiToXB4wrzQAAZ
PMBlio7BMtOdQA+vm0AI0I/BqMWnQCjROECb2ZvBWT+HQCqmeUBwa5fBr3K4QDasAkBJHZPBgSPU
QMSGScBfvIXBf3GBQHUYwEBFZY3BEoL2QBJQTEAQbZDBNve/QGS3I8AJcGnBTzhqQJCllEDxEKDB
qBTFQAfFEEET46vBeJn2QMNkDsAoEK7BFT4IQWd2sD2CobHB1y6uQELMJcACUqbBfxsZQRNCeT+b
92DBJzsSQclNBkHP15DBSngOQQHGJUCCR33BVxgIQQwFo78HYV/Bxf3hQO1UAkBZZa3BxIt/QGfR
JL8yAKLBZcvsQOEO8EDdjoTBZXQIQd6FEUHfQaPB4OvBQIu5iL4u54rBPG6NQFE/AEEOJJ3B1GFL
QMFcYsBv0ZTB7BBYQDAxWMDDl4bBu72OQP87HsBAd4/Bc4glQfb5ocAzpo7B260JQU7wr8B2PI/B
soQVQST8kMClzJnB9XmWQHOkFkEIhLfB28OLQE2FAEEAvq7BijSGQJd4G0Fr8qnBkPeLQGngJkAB
mKvBh9hmQOqx0D98NqHBM52nQP/v2UDHF4HB7reAQMrp/UCLqobBJoCKQInwsMBbMo3BazWtQPH1
k8DYEZbBzvIPQTYJaMBagYLBpckbQeMgKsCJEY3BaICtQAy+kcDcFnvB9ZzVQI15qMBrIIbB5KL0
QJL37r8seJDBcnDoQPXzX8B5opXBp+ClQCbgikDtWIjBr1K7QK2Ip0Bvl5PBl0rCQLv1W0DknZ/B
+lBcQHv+VkDUBZPB50OmQMrboz8vn5DBQ3RVQOcutkDRVYjB9cNnQPvuyUAqNpTB7ftNQDKqgUDg
1qTB

>  <OMEGA_E>  (7) 
YCZLPg==

>  <OMEGA_NBR>  (7) 
     22209

$$$$
50141640
     RDKit          3D

 82 84  0  0  1  0  0  0  0  0999 V2000
    9.8410    0.9574  -13.9350 C   0  0  0  0  0  0  0  0  0  0  0  0
    7.1756   -1.3080  -21.4864 C   0  0  0  0  0  0  0  0  0  0  0  0
    7.5912    0.0141  -21.7437 C   0  0  0  0  0  0  0  0  0  0  0  0
    5.8959   -1.5558  -20.9501 C   0  0  0  0  0  0  0  0  0  0  0  0
    8.1146    8.3005  -18.5059 C   0  0  0  0  0  0  0  0  0  0  0  0
    6.7278    1.0899  -21.4635 C   0  0  0  0  0  0  0  0  0  0  0  0
    5.0322   -0.4816  -20.6661 C   0  0  0  0  0  0  0  0  0  0  0  0
    7.1502    7.7964  -17.6148 C   0  0  0  0  0  0  0  0  0  0  0  0
    7.7390    8.6893  -19.8063 C   0  0  0  0  0  0  0  0  0  0  0  0
    8.4022    1.5655  -15.8314 C   0  0  0  0  0  0  0  0  0  0  0  0
    8.2051   -0.6385  -14.8048 C   0  0  0  0  0  0  0  0  0  0  0  0
    6.7437   -0.0225  -16.6577 C   0  0  0  0  0  0  0  0  0  0  0  0
    5.4276    8.0718  -19.3245 C   0  0  0  0  0  0  0  0  0  0  0  0
    8.8140    0.6262  -14.8666 C   0  0  0  0  0  0  0  0  0  0  0  0
    7.3611    1.2467  -16.7332 C   0  0  0  0  0  0  0  0  0  0  0  0
    7.1768   -0.9674  -15.7053 C   0  0  0  0  0  0  0  0  0  0  0  0
    5.4471    0.8435  -20.9196 C   0  0  0  0  0  0  0  0  0  0  0  0
    5.8088    7.6757  -18.0240 C   0  0  0  0  0  0  0  0  0  0  0  0
    6.3957    8.5886  -20.2275 C   0  0  0  0  0  0  0  0  0  0  0  0
    6.9259    2.2227  -17.7509 C   0  0  0  0  0  0  0  0  0  0  0  0
    6.5513   -2.2958  -15.6382 C   0  0  0  0  0  0  0  0  0  0  0  0
    3.9191   -3.4434  -17.7141 C   0  0  0  0  0  0  0  0  0  0  0  0
    9.4335   -4.6983  -18.1006 C   0  0  0  0  0  0  0  0  0  0  0  0
    4.6973    9.0514  -21.8909 C   0  0  0  0  0  0  0  0  0  0  0  0
    4.5418    1.9983  -20.5488 C   0  0  0  0  0  0  0  0  0  0  0  0
    4.7795    7.1372  -17.0523 C   0  0  0  0  0  0  0  0  0  0  0  0
    4.9005   -4.6300  -17.7615 C   0  0  0  0  0  0  0  0  0  0  0  0
    9.0276   -3.4206  -17.3605 C   0  0  0  0  0  0  0  0  0  0  0  0
    5.9729   -4.5200  -16.6626 C   0  0  0  0  0  0  0  0  0  0  0  0
    7.6211   -2.9719  -17.8014 C   0  0  0  0  0  0  0  0  0  0  0  0
    4.9116    4.8511  -17.9492 C   0  0  0  0  0  0  0  0  0  0  0  0
    5.2090    2.8927  -19.4809 C   0  0  1  0  0  0  0  0  0  0  0  0
    4.2104    3.9319  -18.9500 C   0  0  2  0  0  0  0  0  0  0  0  0
   10.6749    1.2214  -13.1650 N   0  0  0  0  0  0  0  0  0  0  0  0
    5.6958    2.0489  -18.3767 N   0  0  0  0  0  0  0  0  0  0  0  0
    6.6511   -3.2026  -16.7102 N   0  0  0  0  0  0  0  0  0  0  0  0
    4.0472    6.0039  -17.6424 N   0  0  0  0  0  0  0  0  0  0  0  0
    7.6451    3.1747  -18.0379 O   0  0  0  0  0  0  0  0  0  0  0  0
    5.9907   -2.6101  -14.5941 O   0  0  0  0  0  0  0  0  0  0  0  0
    3.7267    4.7172  -20.0407 O   0  0  0  0  0  0  0  0  0  0  0  0
    6.0943    9.0192  -21.5139 O   0  0  0  0  0  0  0  0  0  0  0  0
    7.8390   -2.1328  -21.7006 H   0  0  0  0  0  0  0  0  0  0  0  0
    8.5717    0.2017  -22.1557 H   0  0  0  0  0  0  0  0  0  0  0  0
    5.5782   -2.5698  -20.7570 H   0  0  0  0  0  0  0  0  0  0  0  0
    9.1443    8.3895  -18.1926 H   0  0  0  0  0  0  0  0  0  0  0  0
    7.0439    2.1029  -21.6640 H   0  0  0  0  0  0  0  0  0  0  0  0
    4.0519   -0.6711  -20.2543 H   0  0  0  0  0  0  0  0  0  0  0  0
    7.4389    7.5020  -16.6166 H   0  0  0  0  0  0  0  0  0  0  0  0
    8.4861    9.0683  -20.4880 H   0  0  0  0  0  0  0  0  0  0  0  0
    8.8827    2.5314  -15.8826 H   0  0  0  0  0  0  0  0  0  0  0  0
    8.5267   -1.3575  -14.0658 H   0  0  0  0  0  0  0  0  0  0  0  0
    5.9370   -0.2693  -17.3321 H   0  0  0  0  0  0  0  0  0  0  0  0
    4.3968    7.9818  -19.6341 H   0  0  0  0  0  0  0  0  0  0  0  0
    3.1691   -3.5551  -18.5110 H   0  0  0  0  0  0  0  0  0  0  0  0
    3.4150   -3.4234  -16.7366 H   0  0  0  0  0  0  0  0  0  0  0  0
    4.4724   -2.5040  -17.8606 H   0  0  0  0  0  0  0  0  0  0  0  0
   10.4383   -5.0069  -17.7765 H   0  0  0  0  0  0  0  0  0  0  0  0
    8.7133   -5.4981  -17.8733 H   0  0  0  0  0  0  0  0  0  0  0  0
    9.4401   -4.5080  -19.1840 H   0  0  0  0  0  0  0  0  0  0  0  0
    4.6047    9.4091  -22.9270 H   0  0  0  0  0  0  0  0  0  0  0  0
    4.2732    8.0394  -21.8132 H   0  0  0  0  0  0  0  0  0  0  0  0
    4.1518    9.7302  -21.2188 H   0  0  0  0  0  0  0  0  0  0  0  0
    4.3369    2.5995  -21.4469 H   0  0  0  0  0  0  0  0  0  0  0  0
    3.5965    1.6024  -20.1491 H   0  0  0  0  0  0  0  0  0  0  0  0
    5.2887    6.8006  -16.1372 H   0  0  0  0  0  0  0  0  0  0  0  0
    4.0665    7.9366  -16.8023 H   0  0  0  0  0  0  0  0  0  0  0  0
    4.3381   -5.5647  -17.6197 H   0  0  0  0  0  0  0  0  0  0  0  0
    5.3955   -4.6454  -18.7437 H   0  0  0  0  0  0  0  0  0  0  0  0
    9.0240   -3.6139  -16.2776 H   0  0  0  0  0  0  0  0  0  0  0  0
    9.7509   -2.6238  -17.5884 H   0  0  0  0  0  0  0  0  0  0  0  0
    5.4944   -4.6427  -15.6798 H   0  0  0  0  0  0  0  0  0  0  0  0
    6.7198   -5.3143  -16.8084 H   0  0  0  0  0  0  0  0  0  0  0  0
    7.6418   -1.9005  -18.0499 H   0  0  0  0  0  0  0  0  0  0  0  0
    7.3161   -3.5479  -18.6876 H   0  0  0  0  0  0  0  0  0  0  0  0
    5.1192    4.2935  -17.0240 H   0  0  0  0  0  0  0  0  0  0  0  0
    5.8576    5.2086  -18.3820 H   0  0  0  0  0  0  0  0  0  0  0  0
    6.0562    3.4203  -19.9433 H   0  0  0  0  0  0  0  0  0  0  0  0
    3.3813    3.4126  -18.4471 H   0  0  0  0  0  0  0  0  0  0  0  0
    5.1067    1.3065  -18.0575 H   0  0  0  0  0  0  0  0  0  0  0  0
    3.3426    5.7099  -16.9966 H   0  0  0  0  0  0  0  0  0  0  0  0
    3.6149    6.3115  -18.4901 H   0  0  0  0  0  0  0  0  0  0  0  0
    3.2893    4.1535  -20.6678 H   0  0  0  0  0  0  0  0  0  0  0  0
  1 14  1  0
  1 34  3  0
  2  3  2  0
  2  4  1  0
  3  6  1  0
  4  7  2  0
  5  8  2  0
  5  9  1  0
  6 17  2  0
  7 17  1  0
  8 18  1  0
  9 19  2  0
 10 14  2  0
 10 15  1  0
 11 14  1  0
 11 16  2  0
 12 15  2  0
 12 16  1  0
 13 18  2  0
 13 19  1  0
 15 20  1  0
 16 21  1  0
 17 25  1  0
 18 26  1  0
 19 41  1  0
 20 35  1  0
 20 38  2  0
 21 36  1  0
 21 39  2  0
 22 27  1  0
 23 28  1  0
 24 41  1  0
 25 32  1  0
 26 37  1  0
 27 29  1  0
 28 30  1  0
 29 36  1  0
 30 36  1  0
 31 33  1  0
 31 37  1  0
 32 33  1  0
 32 35  1  0
 33 40  1  0
  2 42  1  0
  3 43  1  0
  4 44  1  0
  5 45  1  0
  6 46  1  0
  7 47  1  0
  8 48  1  0
  9 49  1  0
 10 50  1  0
 11 51  1  0
 12 52  1  0
 13 53  1  0
 22 54  1  0
 22 55  1  0
 22 56  1  0
 23 57  1  0
 23 58  1  0
 23 59  1  0
 24 60  1  0
 24 61  1  0
 24 62  1  0
 25 63  1  0
 25 64  1  0
 26 65  1  0
 26 66  1  0
 27 67  1  0
 27 68  1  0
 28 69  1  0
 28 70  1  0
 29 71  1  0
 29 72  1  0
 30 73  1  0
 30 74  1  0
 31 75  1  0
 31 76  1  0
 32 77  1  6
 33 78  1  1
 35 79  1  0
 37 80  1  0
 37 81  1  0
 40 82  1  0
M  CHG  1  37   1
M  END
>  <OMEGA_C>  (8) 
nnQdQQYXdT/n9V7BIJ7lQIBtp78W5KvB1uryQHjFZzwT863B8aq8QP8ix7+1mafBZ9UBQebOBEEu
DJTByUnXQC+Ciz8ytavBvwehQAOR9r49VKXBss7kQFd8+UAY64zBtaX3QIUHC0Fgc57BmW8GQcpi
yD9LTX3BCEgDQaxyI79C4GzBCczXQEwfuLz9QoXBya6tQCsmAUGSmJrBLwYNQXBMID+93W3B+o3r
QJ2Tnz+S3YXBEKjlQGKqd78TSXvBhE6uQL7sVz9AW6fBYeG5QP6e9UAeMZDBY6nMQNZqCUHY0aHB
RaHdQCNBDkDVAY7BZKTRQKbtEsDqNXrBBNJ6QEZgXMCGto3Bhe8WQb5YlsAMzpDB+U+WQLrSEEGX
IK/BKlaRQLvH/z/nY6TBu/GYQONj5EAya4jByNCcQDkplMB6F47B23AQQUXrWsBQ4orB4yG/QOCj
kMABTYXB7d/zQEwzPsBdaY7B7CudQEM8m0ABmI/B5K+mQH4iOUDX2JvBebuGQH6je0CwmZfBR8wq
QQ9XnD/Oo1LBqEO2QJkhA0BkA5PB6tXUQJj2TMB4roXBr4KBQOwfwECoI43BUqT0QE0uS0CrTZDB
vrO/QBwLJ8BggWnB9YJuQPDylkBJU6DB1QTDQNBOEEF4HKzBMNn6QJGACMDXmq3ByCUJQT9/Tj7c
PrHBhoCyQBZ3JMBlDqbBHU8SQV47BkGAipHBbGfhQKqWBkD3T63BfKmBQFPNK7/hCKLBrQvuQJ8Q
8EDN7oTBCccHQcEXEUFV56PBax8OQcgCIkDyHn7Bc20IQTzBrb+kDWHBTvy9QIDgib49qIrB3LKM
QA5r/0CfEp3BuNJKQO+GY8CdFpTBR49aQMkYW8CZ5IXB3B2PQAhCIMCI4o7BZwMnQaM4oMBGNo7B
q2kLQZTwr8Bw/I7BwgoXQWdBkMDSeJnBpFmTQJ+LFkGLarfBPb6IQI+hAEF0ga7BY9uEQMWuG0EG
wKnBGsiKQFdeJkAyk6vBES1mQB0bzT9fMaHBrTypQECe2UAGGYHBgCCCQKf4/UAga4bB/dGKQDsS
ssAR9YzBNqisQNqmlMD/8pXBaWIQQZdKZ8CWOILBfwMcQTzsJ8D4tIzBxdGvQJqQlMBQ4HrBgwjX
QI0OqsCtd4bBxIn0QI5D878fZpDB3R3qQNYQY8AkgJXBZdCjQBZkiUA+MYjBrnG7QLWspkBCDpPB
pMzBQPTlWkDji5/BFWdYQO1nWkCek5PBfWqjQEs7pz+9dZDBqu1VQEC3tkDz+IfB6FpnQBP4yUCg
65PBF4NSQDHphEDAV6XB

>  <OMEGA_E>  (8) 
0A59Pg==

>  <OMEGA_NBR>  (8) 
     23858

$$$$
50141638
     RDKit          3D

 84 86  0  0  1  0  0  0  0  0999 V2000
    7.2265   -1.2967  -21.4675 C   0  0  0  0  0  0  0  0  0  0  0  0
    7.6366    0.0245  -21.7384 C   0  0  0  0  0  0  0  0  0  0  0  0
    5.9438   -1.5451  -20.9390 C   0  0  0  0  0  0  0  0  0  0  0  0
    8.1311    8.3382  -18.4038 C   0  0  0  0  0  0  0  0  0  0  0  0
    6.7627    1.0983  -21.4840 C   0  0  0  0  0  0  0  0  0  0  0  0
    5.0709   -0.4728  -20.6778 C   0  0  0  0  0  0  0  0  0  0  0  0
    7.1429    7.8272  -17.5435 C   0  0  0  0  0  0  0  0  0  0  0  0
    7.7942    8.7226  -19.7159 C   0  0  0  0  0  0  0  0  0  0  0  0
    6.7547    0.0113  -16.6681 C   0  0  0  0  0  0  0  0  0  0  0  0
    8.3802    1.6225  -15.8221 C   0  0  0  0  0  0  0  0  0  0  0  0
    8.1823   -0.5720  -14.7789 C   0  0  0  0  0  0  0  0  0  0  0  0
    5.4714    8.0963  -19.3044 C   0  0  0  0  0  0  0  0  0  0  0  0
    7.3626    1.2847  -16.7430 C   0  0  0  0  0  0  0  0  0  0  0  0
    7.1789   -0.9225  -15.7021 C   0  0  0  0  0  0  0  0  0  0  0  0
    5.4775    0.8508  -20.9512 C   0  0  0  0  0  0  0  0  0  0  0  0
    5.8159    7.6969  -17.9945 C   0  0  0  0  0  0  0  0  0  0  0  0
    8.7702    0.7060  -14.8258 C   0  0  0  0  0  0  0  0  0  0  0  0
    6.4653    8.6137  -20.1787 C   0  0  0  0  0  0  0  0  0  0  0  0
    6.9363    2.2481  -17.7757 C   0  0  0  0  0  0  0  0  0  0  0  0
    6.5563   -2.2542  -15.6323 C   0  0  0  0  0  0  0  0  0  0  0  0
    9.8628    1.0713  -13.8471 C   0  0  0  0  0  0  0  0  0  0  0  0
    3.9326   -3.4207  -17.6565 C   0  0  0  0  0  0  0  0  0  0  0  0
    9.4835   -4.6249  -17.8939 C   0  0  0  0  0  0  0  0  0  0  0  0
    4.8205    9.0627  -21.8986 C   0  0  0  0  0  0  0  0  0  0  0  0
    4.5656    2.0050  -20.5938 C   0  0  0  0  0  0  0  0  0  0  0  0
    4.7655    7.1352  -17.0599 C   0  0  0  0  0  0  0  0  0  0  0  0
    4.9004   -4.6188  -17.6962 C   0  0  0  0  0  0  0  0  0  0  0  0
    9.0552   -3.2447  -17.3849 C   0  0  0  0  0  0  0  0  0  0  0  0
    6.0016   -4.4988  -16.6271 C   0  0  0  0  0  0  0  0  0  0  0  0
    7.6077   -2.9310  -17.8102 C   0  0  0  0  0  0  0  0  0  0  0  0
    4.9421    4.8770  -18.0215 C   0  0  0  0  0  0  0  0  0  0  0  0
    5.2209    2.8968  -19.5162 C   0  0  1  0  0  0  0  0  0  0  0  0
    4.2113    3.9061  -18.9498 C   0  0  2  0  0  0  0  0  0  0  0  0
    5.7247    2.0469  -18.4262 N   0  0  0  0  0  0  0  0  0  0  0  0
    6.6727   -3.1776  -16.6909 N   0  0  0  0  0  0  0  0  0  0  0  0
    4.0572    6.0045  -17.6839 N   0  0  0  0  0  0  0  0  0  0  0  0
    7.6402    3.2161  -18.0463 O   0  0  0  0  0  0  0  0  0  0  0  0
    5.9755   -2.5546  -14.5952 O   0  0  0  0  0  0  0  0  0  0  0  0
    3.6141    4.6407  -20.0184 O   0  0  0  0  0  0  0  0  0  0  0  0
    6.2051    9.0286  -21.4792 O   0  0  0  0  0  0  0  0  0  0  0  0
    7.8966   -2.1202  -21.6655 H   0  0  0  0  0  0  0  0  0  0  0  0
    8.6210    0.2128  -22.1409 H   0  0  0  0  0  0  0  0  0  0  0  0
    5.6310   -2.5583  -20.7344 H   0  0  0  0  0  0  0  0  0  0  0  0
    9.1495    8.4359  -18.0578 H   0  0  0  0  0  0  0  0  0  0  0  0
    7.0742    2.1105  -21.6959 H   0  0  0  0  0  0  0  0  0  0  0  0
    4.0898   -0.6627  -20.2682 H   0  0  0  0  0  0  0  0  0  0  0  0
    7.4022    7.5347  -16.5368 H   0  0  0  0  0  0  0  0  0  0  0  0
    8.5601    9.1045  -20.3746 H   0  0  0  0  0  0  0  0  0  0  0  0
    5.9616   -0.2472  -17.3541 H   0  0  0  0  0  0  0  0  0  0  0  0
    8.8610    2.5876  -15.8826 H   0  0  0  0  0  0  0  0  0  0  0  0
    8.5015   -1.2851  -14.0332 H   0  0  0  0  0  0  0  0  0  0  0  0
    4.4496    8.0082  -19.6429 H   0  0  0  0  0  0  0  0  0  0  0  0
    9.4167    1.5352  -12.9551 H   0  0  0  0  0  0  0  0  0  0  0  0
   10.4102    0.1635  -13.5533 H   0  0  0  0  0  0  0  0  0  0  0  0
   10.5571    1.7809  -14.3209 H   0  0  0  0  0  0  0  0  0  0  0  0
    3.1634   -3.5442  -18.4331 H   0  0  0  0  0  0  0  0  0  0  0  0
    3.4514   -3.3708  -16.6686 H   0  0  0  0  0  0  0  0  0  0  0  0
    4.4920   -2.4914  -17.8393 H   0  0  0  0  0  0  0  0  0  0  0  0
   10.5179   -4.8276  -17.5795 H   0  0  0  0  0  0  0  0  0  0  0  0
    8.8162   -5.3930  -17.4759 H   0  0  0  0  0  0  0  0  0  0  0  0
    9.4236   -4.6454  -18.9921 H   0  0  0  0  0  0  0  0  0  0  0  0
    4.7611    9.4069  -22.9417 H   0  0  0  0  0  0  0  0  0  0  0  0
    4.3889    8.0539  -21.8204 H   0  0  0  0  0  0  0  0  0  0  0  0
    4.2586    9.7530  -21.2523 H   0  0  0  0  0  0  0  0  0  0  0  0
    4.3732    2.6069  -21.4942 H   0  0  0  0  0  0  0  0  0  0  0  0
    3.6148    1.6092  -20.2073 H   0  0  0  0  0  0  0  0  0  0  0  0
    5.2530    6.7894  -16.1364 H   0  0  0  0  0  0  0  0  0  0  0  0
    4.0396    7.9254  -16.8175 H   0  0  0  0  0  0  0  0  0  0  0  0
    4.3308   -5.5429  -17.5187 H   0  0  0  0  0  0  0  0  0  0  0  0
    5.3714   -4.6635  -18.6893 H   0  0  0  0  0  0  0  0  0  0  0  0
    9.1203   -3.2288  -16.2870 H   0  0  0  0  0  0  0  0  0  0  0  0
    9.7277   -2.4812  -17.8032 H   0  0  0  0  0  0  0  0  0  0  0  0
    5.5500   -4.6237  -15.6319 H   0  0  0  0  0  0  0  0  0  0  0  0
    6.7491   -5.2887  -16.7924 H   0  0  0  0  0  0  0  0  0  0  0  0
    7.5400   -1.8754  -18.1122 H   0  0  0  0  0  0  0  0  0  0  0  0
    7.3328   -3.5737  -18.6595 H   0  0  0  0  0  0  0  0  0  0  0  0
    5.2330    4.3522  -17.0996 H   0  0  0  0  0  0  0  0  0  0  0  0
    5.8423    5.2576  -18.5264 H   0  0  0  0  0  0  0  0  0  0  0  0
    6.0560    3.4479  -19.9734 H   0  0  0  0  0  0  0  0  0  0  0  0
    3.4446    3.3649  -18.3759 H   0  0  0  0  0  0  0  0  0  0  0  0
    5.1594    1.2752  -18.1348 H   0  0  0  0  0  0  0  0  0  0  0  0
    3.3570    5.6791  -17.0484 H   0  0  0  0  0  0  0  0  0  0  0  0
    3.6209    6.3279  -18.5236 H   0  0  0  0  0  0  0  0  0  0  0  0
    3.1584    4.0423  -20.5987 H   0  0  0  0  0  0  0  0  0  0  0  0
  1  2  2  0
  1  3  1  0
  2  5  1  0
  3  6  2  0
  4  7  2  0
  4  8  1  0
  5 15  2  0
  6 15  1  0
  7 16  1  0
  8 18  2  0
  9 13  2  0
  9 14  1  0
 10 13  1  0
 10 17  2  0
 11 14  2  0
 11 17  1  0
 12 16  2  0
 12 18  1  0
 13 19  1  0
 14 20  1  0
 15 25  1  0
 16 26  1  0
 17 21  1  0
 18 40  1  0
 19 34  1  0
 19 37  2  0
 20 35  1  0
 20 38  2  0
 22 27  1  0
 23 28  1  0
 24 40  1  0
 25 32  1  0
 26 36  1  0
 27 29  1  0
 28 30  1  0
 29 35  1  0
 30 35  1  0
 31 33  1  0
 31 36  1  0
 32 33  1  0
 32 34  1  0
 33 39  1  0
  1 41  1  0
  2 42  1  0
  3 43  1  0
  4 44  1  0
  5 45  1  0
  6 46  1  0
  7 47  1  0
  8 48  1  0
  9 49  1  0
 10 50  1  0
 11 51  1  0
 12 52  1  0
 21 53  1  0
 21 54  1  0
 21 55  1  0
 22 56  1  0
 22 57  1  0
 22 58  1  0
 23 59  1  0
 23 60  1  0
 23 61  1  0
 24 62  1  0
 24 63  1  0
 24 64  1  0
 25 65  1  0
 25 66  1  0
 26 67  1  0
 26 68  1  0
 27 69  1  0
 27 70  1  0
 28 71  1  0
 28 72  1  0
 29 73  1  0
 29 74  1  0
 30 75  1  0
 30 76  1  0
 31 77  1  0
 31 78  1  0
 32 79  1  6
 33 80  1  1
 34 81  1  0
 36 82  1  0
 36 83  1  0
 39 84  1  0
M  CHG  1  36   1
M  END
>  <OMEGA_C>  (9) 
qz/nQPT4pb+EvavBZF/0QOhyyDxA6K3B+zO+QArFxb8Ag6fBCRkCQUlpBUEGO5PBOGjYQKaUjD9U
36vB9ESiQE4V8r4vbKXBp5LkQDN4+kAtWYzBvGn5QMmPC0FCup3BVybYQADOODwxWIXBWxUGQTKt
zz9tJ33Bl+oCQZFtEr89dmzB3RWvQEqKAUFzb5rBfprrQKZwpD+d8YXBSrnlQNkobL/6O3vBU0ev
QBnNWT8lnKfB6hu6QNJM9kDK9I/B31IMQbq9ND+ENm3Bt+POQNTRCUHybaHBXPbdQFLgD0CaNI7B
Mc3RQK5EEMDqHXrBOM4dQRMgiT/OjV3BlK97QCrtWsCbQI3BVLwXQYn/k8DOJo/BL0GaQL4AEUFk
MK/BgRmSQAJSAEAfwKTBIn+YQN1T5ECkeojBOtCcQGPNk8DekY3BP+IQQV2oT8BPFIvBKg3AQBr2
j8BlBIXBOnLzQH2VO8Aye47BmSWeQL8QnEAMLJDB2RGnQOllOUA8IZzBksKGQOr8eUAvmZfBCzG3
QHwAA0DtaJPBkobVQGVdS8D+hoXBs9SBQP0kwECieI3BcXz0QEXUTUDpXpDBNTe/QCV+I8AUhmnB
hk1nQIqAlECwJaDBXJDGQDZ1EEF01avBzLD8QKmxB8DZUq3BjO8JQRHcWT6eILHB9zC0QHm7I8AD
4KXBVWQSQZz5BkFWdpDB+1/iQLERB0A6ka3B29+CQGWkKb80JaLB097sQAEc8UBKS4TBSvYIQe+r
EUE9/6LBh8W+QCMpfb4n1YrB0cYNQfebJUDtHn7BAQYIQZx8pL/nh2DBTGOOQLghAEGxJJ3B56oW
QSWCxD/9R0/BM5AmQbdyJz4j2ljBAeooQUHz4z94ImXBq3RKQEHUYsACd5PBqONcQF67V8BgWYXB
xL6PQDhzH8DUto7BV0koQZd7msDBoozB/Q4NQaWTrMC1zovB38YWQVanlMDe75fB5FqYQJaCFkGb
iLfBiHGMQNncAEEwkK7BW0aIQGMMHEG6BKrBmvGLQJbXJkAg9KvBillnQIb7zT+GqKHBsRioQKdC
2UBxF4HBXkSBQImc/UBEiobBrpWKQKhfscAyJozBn+KrQJU7lcCng5XBvuwRQVGkTsCwS4LBoKQb
QbPLHsDabI7BnJmxQCv1k8BiHHrBefjXQDM9qcC/VobB/EfxQJsO8L/H5ZDBcKbqQEu4ZMCRRpXB
bXSnQNVEi0AEzIjBzPO6QAY+qEAENpTBosrBQCqqXECWyZ/BDXRcQI5aV0DUAZPByxmlQOQ6oz8f
FJHBitlWQBO7tUAsY4jB1rxnQB9+ykBKMJTBkSJKQO1agUA0yqTB

>  <OMEGA_E>  (9) 
0JsmPg==

>  <OMEGA_NBR>  (9) 
     25539

$$$$
50141644
     RDKit          3D

 83 85  0  0  1  0  0  0  0  0999 V2000
    7.1095   -1.2969  -21.5550 C   0  0  0  0  0  0  0  0  0  0  0  0
    7.5418    0.0230  -21.7940 C   0  0  0  0  0  0  0  0  0  0  0  0
    5.8205   -1.5359  -21.0374 C   0  0  0  0  0  0  0  0  0  0  0  0
    8.1649    8.2990  -18.4345 C   0  0  0  0  0  0  0  0  0  0  0  0
    6.6852    1.1044  -21.5151 C   0  0  0  0  0  0  0  0  0  0  0  0
    4.9692   -0.4564  -20.7410 C   0  0  0  0  0  0  0  0  0  0  0  0
    7.1937    7.7928  -17.5522 C   0  0  0  0  0  0  0  0  0  0  0  0
    7.8012    8.6814  -19.7401 C   0  0  0  0  0  0  0  0  0  0  0  0
    6.7791   -0.0556  -16.8020 C   0  0  0  0  0  0  0  0  0  0  0  0
    8.3873    1.5537  -15.9186 C   0  0  0  0  0  0  0  0  0  0  0  0
    8.1970   -0.6563  -14.9122 C   0  0  0  0  0  0  0  0  0  0  0  0
    5.4867    8.0605  -19.2792 C   0  0  0  0  0  0  0  0  0  0  0  0
    7.3741    1.2246  -16.8453 C   0  0  0  0  0  0  0  0  0  0  0  0
    7.2020   -0.9964  -15.8444 C   0  0  0  0  0  0  0  0  0  0  0  0
    8.7958    0.6211  -14.9386 C   0  0  0  0  0  0  0  0  0  0  0  0
    5.3978    0.8659  -20.9828 C   0  0  0  0  0  0  0  0  0  0  0  0
    5.8573    7.6647  -17.9752 C   0  0  0  0  0  0  0  0  0  0  0  0
    6.4629    8.5740  -20.1748 C   0  0  0  0  0  0  0  0  0  0  0  0
    6.9309    2.2131  -17.8437 C   0  0  0  0  0  0  0  0  0  0  0  0
    6.5782   -2.3233  -15.7717 C   0  0  0  0  0  0  0  0  0  0  0  0
    9.8208    0.9859  -13.9314 C   0  0  0  0  0  0  0  0  0  0  0  0
    3.9155   -3.4245  -17.7046 C   0  0  0  0  0  0  0  0  0  0  0  0
    9.5147   -4.2047  -17.1624 C   0  0  0  0  0  0  0  0  0  0  0  0
    4.7819    9.0564  -21.8493 C   0  0  0  0  0  0  0  0  0  0  0  0
    4.5029    2.0260  -20.6028 C   0  0  0  0  0  0  0  0  0  0  0  0
    4.8251    7.1090  -17.0174 C   0  0  0  0  0  0  0  0  0  0  0  0
    4.8462   -4.6510  -17.7672 C   0  0  0  0  0  0  0  0  0  0  0  0
    8.5431   -4.0513  -18.3455 C   0  0  0  0  0  0  0  0  0  0  0  0
    5.9755   -4.5682  -16.7241 C   0  0  0  0  0  0  0  0  0  0  0  0
    7.4780   -2.9808  -18.0515 C   0  0  0  0  0  0  0  0  0  0  0  0
    4.9517    4.8585  -18.0006 C   0  0  0  0  0  0  0  0  0  0  0  0
    5.1855    2.9035  -19.5321 C   0  0  1  0  0  0  0  0  0  0  0  0
    4.1987    3.9207  -18.9440 C   0  0  2  0  0  0  0  0  0  0  0  0
    5.6981    2.0396  -18.4586 N   0  0  0  0  0  0  0  0  0  0  0  0
    6.7043   -3.2721  -16.8087 N   0  0  0  0  0  0  0  0  0  0  0  0
    4.0881    5.9925  -17.6330 N   0  0  0  0  0  0  0  0  0  0  0  0
   10.1519    0.1529  -13.0449 O   0  0  0  0  0  0  0  0  0  0  0  0
    7.6362    3.1808  -18.1124 O   0  0  0  0  0  0  0  0  0  0  0  0
    5.9881   -2.6025  -14.7336 O   0  0  0  0  0  0  0  0  0  0  0  0
   10.3427    2.1331  -13.9545 O   0  0  0  0  0  0  0  0  0  0  0  0
    3.6180    4.6874  -19.9989 O   0  0  0  0  0  0  0  0  0  0  0  0
    6.1770    8.9814  -21.4721 O   0  0  0  0  0  0  0  0  0  0  0  0
    7.7669   -2.1266  -21.7688 H   0  0  0  0  0  0  0  0  0  0  0  0
    8.5298    0.2046  -22.1908 H   0  0  0  0  0  0  0  0  0  0  0  0
    5.4863   -2.5488  -20.8683 H   0  0  0  0  0  0  0  0  0  0  0  0
    9.1907    8.3945  -18.1104 H   0  0  0  0  0  0  0  0  0  0  0  0
    7.0113    2.1158  -21.7078 H   0  0  0  0  0  0  0  0  0  0  0  0
    3.9881   -0.6394  -20.3285 H   0  0  0  0  0  0  0  0  0  0  0  0
    7.4732    7.5024  -16.5503 H   0  0  0  0  0  0  0  0  0  0  0  0
    8.5539    9.0607  -20.4153 H   0  0  0  0  0  0  0  0  0  0  0  0
    5.9995   -0.3127  -17.5039 H   0  0  0  0  0  0  0  0  0  0  0  0
    8.8543    2.5267  -15.9591 H   0  0  0  0  0  0  0  0  0  0  0  0
    8.5057   -1.3778  -14.1703 H   0  0  0  0  0  0  0  0  0  0  0  0
    4.4581    7.9726  -19.5966 H   0  0  0  0  0  0  0  0  0  0  0  0
    3.1256   -3.5238  -18.4637 H   0  0  0  0  0  0  0  0  0  0  0  0
    3.4584   -3.3619  -16.7060 H   0  0  0  0  0  0  0  0  0  0  0  0
    4.4981   -2.5119  -17.8990 H   0  0  0  0  0  0  0  0  0  0  0  0
   10.2635   -4.9747  -17.3997 H   0  0  0  0  0  0  0  0  0  0  0  0
   10.0209   -3.2459  -16.9772 H   0  0  0  0  0  0  0  0  0  0  0  0
    8.9542   -4.5030  -16.2642 H   0  0  0  0  0  0  0  0  0  0  0  0
    4.7015    9.3897  -22.8945 H   0  0  0  0  0  0  0  0  0  0  0  0
    4.3200    8.0636  -21.7447 H   0  0  0  0  0  0  0  0  0  0  0  0
    4.2633    9.7729  -21.1953 H   0  0  0  0  0  0  0  0  0  0  0  0
    4.3006    2.6355  -21.4959 H   0  0  0  0  0  0  0  0  0  0  0  0
    3.5552    1.6368  -20.2022 H   0  0  0  0  0  0  0  0  0  0  0  0
    5.3319    6.7496  -16.1097 H   0  0  0  0  0  0  0  0  0  0  0  0
    4.1154    7.9057  -16.7500 H   0  0  0  0  0  0  0  0  0  0  0  0
    4.2529   -5.5577  -17.5780 H   0  0  0  0  0  0  0  0  0  0  0  0
    5.2926   -4.7078  -18.7710 H   0  0  0  0  0  0  0  0  0  0  0  0
    9.1106   -3.7573  -19.2408 H   0  0  0  0  0  0  0  0  0  0  0  0
    8.0439   -5.0144  -18.5278 H   0  0  0  0  0  0  0  0  0  0  0  0
    5.5410   -4.6688  -15.7186 H   0  0  0  0  0  0  0  0  0  0  0  0
    6.6857   -5.3895  -16.9006 H   0  0  0  0  0  0  0  0  0  0  0  0
    7.9780   -2.0078  -17.9362 H   0  0  0  0  0  0  0  0  0  0  0  0
    6.7793   -2.9357  -18.8999 H   0  0  0  0  0  0  0  0  0  0  0  0
    5.2398    4.3091  -17.0923 H   0  0  0  0  0  0  0  0  0  0  0  0
    5.8548    5.2349  -18.5034 H   0  0  0  0  0  0  0  0  0  0  0  0
    6.0193    3.4472  -20.0003 H   0  0  0  0  0  0  0  0  0  0  0  0
    3.4212    3.3853  -18.3793 H   0  0  0  0  0  0  0  0  0  0  0  0
    5.1236    1.2805  -18.1524 H   0  0  0  0  0  0  0  0  0  0  0  0
    3.3996    5.6699  -16.9834 H   0  0  0  0  0  0  0  0  0  0  0  0
    3.6355    6.3279  -18.4593 H   0  0  0  0  0  0  0  0  0  0  0  0
    3.1482    4.1099  -20.5892 H   0  0  0  0  0  0  0  0  0  0  0  0
  1  2  2  0
  1  3  1  0
  2  5  1  0
  3  6  2  0
  4  7  2  0
  4  8  1  0
  5 16  2  0
  6 16  1  0
  7 17  1  0
  8 18  2  0
  9 13  2  0
  9 14  1  0
 10 13  1  0
 10 15  2  0
 11 14  2  0
 11 15  1  0
 12 17  2  0
 12 18  1  0
 13 19  1  0
 14 20  1  0
 15 21  1  0
 16 25  1  0
 17 26  1  0
 18 42  1  0
 19 34  1  0
 19 38  2  0
 20 35  1  0
 20 39  2  0
 21 37  1  0
 21 40  2  0
 22 27  1  0
 23 28  1  0
 24 42  1  0
 25 32  1  0
 26 36  1  0
 27 29  1  0
 28 30  1  0
 29 35  1  0
 30 35  1  0
 31 33  1  0
 31 36  1  0
 32 33  1  0
 32 34  1  0
 33 41  1  0
  1 43  1  0
  2 44  1  0
  3 45  1  0
  4 46  1  0
  5 47  1  0
  6 48  1  0
  7 49  1  0
  8 50  1  0
  9 51  1  0
 10 52  1  0
 11 53  1  0
 12 54  1  0
 22 55  1  0
 22 56  1  0
 22 57  1  0
 23 58  1  0
 23 59  1  0
 23 60  1  0
 24 61  1  0
 24 62  1  0
 24 63  1  0
 25 64  1  0
 25 65  1  0
 26 66  1  0
 26 67  1  0
 27 68  1  0
 27 69  1  0
 28 70  1  0
 28 71  1  0
 29 72  1  0
 29 73  1  0
 30 74  1  0
 30 75  1  0
 31 76  1  0
 31 77  1  0
 32 78  1  6
 33 79  1  1
 34 80  1  0
 36 81  1  0
 36 82  1  0
 41 83  1  0
M  CHG  2  36   1  37  -1
M  END
>  <OMEGA_C>  (10) 
4IDjQIwBpr+ZcKzB0VbxQIB7vDwGWq7BzUG6QMKXxL+jTKjBXaMCQaDIBEHDeZPB8+zVQEpdjT/x
HqzBCwSfQMCn6b6J7aXBxjLmQMRe+UDzaozBkqP5QCXnCkGk653BYO7YQFTbY72TaobBgTIGQUjf
xj+fsn7B8CYDQZoBKL+MmG7B05KvQLv3AEHFO5rBB/nrQBbAnD84w4bBkXbmQI0Vf7+Ygn3Bb7sM
Qe7/Hj+SBG/ByrqsQGCoXT/O3KfBU2+7QHdF9UBDzY/BQdDOQPIuCUENZqHBCsrdQAmjDUDvv47B
zoDSQKKwFMAOWXzBHyIdQWlmfD/y5l7BNJd6QA0rW8Dzoo3BITwYQRqNhsCxTInB9QSZQB7nEEFw
y67BiReQQD2qAUB90qTBA2eaQMd840C1I4jBOBSbQK/UlMBJI47Bd7AIQXykgcCkw5LBODe/QNAu
ksAGy4XBvEvvQLrFPsCEaZDBKnSeQOt4m0BJAZDBre+lQCrSOUCyQZzBsVuGQOPsekBqjZfBkFa2
QFKJAkAtq5PBSonWQNJpUcBReIbBZNGCQH/Cv0B0EI3BTm4iQYiIHD7Wt1DB0lv0QEeSS0Ab5pDB
h56/QLSOJsC/vGvBiXslQeCECEB2RV/BDI1nQBz/lUDX/Z/BKKrFQPqzD0HUxqvBxYr4QNsaCMCA
Jq7B7nkIQbV7UT6qhrHBeY+vQA8gI8BQ8qbB/AwTQc5PBkEA4pDB9lzgQCdpB0B+qa3BYTx/QKKx
I7+3oKLBhSTvQNMT8EDqZoTB5dwIQcX4EEGKUqPBA/y/QKoYoL7tB4zBD6sNQVO1IUB1WH/BRBcI
QftbsL92uWLB2KiOQGgf/0DHxZzB+QlIQAiGYcCatZPBGVZdQEopV8DhpYXBM/CPQI/DIMArMY/B
aDckQQcxn8CwMovBs1UgQVW8T8BN0YfBdUQPQZoYkMAEHYLBvHKWQEA8FkEHKLfBRj2KQHsEAUER
9a3B5WyIQKxdHEHqj6nBk56JQDOsKECI96vBAYljQMSB0T8SnqHBBZ+qQKj810Cy4IDB9bCDQKn7
/EAVAIbBIhiIQM/YscCln4zBSV2pQPKllsDvKpbB4cQRQYp3cMAn7ZnBo7MAQTV2oMDdOJTBRlCx
QLVmlcBJf3vB2vDVQPR2rMBbNIfBYEv/QAyAAMA/fY/B1u/YQAPjO8ADM5fBMKynQNbjiUD5vIjB
Nlq7QA2Ep0D/BpTBx53AQMaeXECOAKDBR/VaQI6pWEDWCJPBW/SjQNvooz8cOJHBRJNZQKtvtUAZ
3ofBi6toQDx+ykCTrJPBkXxJQI+Eg0ChtqTB

>  <OMEGA_E>  (10) 
OP2GPg==

>  <OMEGA_NBR>  (10) 
     27207

$$$$
50154310
     RDKit          3D

 88 90  0  0  1  0  0  0  0  0999 V2000
    8.1027    8.3656  -18.4208 C   0  0  0  0  0  0  0  0  0  0  0  0
    7.1389    7.8321  -17.5468 C   0  0  0  0  0  0  0  0  0  0  0  0
    7.7335    8.7629  -19.7203 C   0  0  0  0  0  0  0  0  0  0  0  0
    6.6422    0.0124  -16.6896 C   0  0  0  0  0  0  0  0  0  0  0  0
    8.4522    1.5035  -16.0185 C   0  0  0  0  0  0  0  0  0  0  0  0
    8.1827   -0.6509  -14.9200 C   0  0  0  0  0  0  0  0  0  0  0  0
    5.4314    8.0875  -19.2765 C   0  0  0  0  0  0  0  0  0  0  0  0
    6.7815    1.0710  -21.4061 C   0  0  0  0  0  0  0  0  0  0  0  0
    5.0802   -0.4821  -20.5915 C   0  0  0  0  0  0  0  0  0  0  0  0
    7.2496   -1.3219  -21.3275 C   0  0  0  0  0  0  0  0  0  0  0  0
    7.3307    1.2412  -16.8291 C   0  0  0  0  0  0  0  0  0  0  0  0
    7.0771   -0.9302  -15.7354 C   0  0  0  0  0  0  0  0  0  0  0  0
    5.8059    7.6851  -17.9749 C   0  0  0  0  0  0  0  0  0  0  0  0
    8.8946    0.5450  -15.0933 C   0  0  0  0  0  0  0  0  0  0  0  0
    5.4866    0.8346  -20.8926 C   0  0  0  0  0  0  0  0  0  0  0  0
    6.3992    8.6350  -20.1614 C   0  0  0  0  0  0  0  0  0  0  0  0
    7.6625   -0.0062  -21.6190 C   0  0  0  0  0  0  0  0  0  0  0  0
    5.9573   -1.5587  -20.8175 C   0  0  0  0  0  0  0  0  0  0  0  0
    6.9154    2.2225  -17.8402 C   0  0  0  0  0  0  0  0  0  0  0  0
    6.4590   -2.2529  -15.6466 C   0  0  0  0  0  0  0  0  0  0  0  0
    3.9748   -3.4941  -17.5434 C   0  0  0  0  0  0  0  0  0  0  0  0
    9.6063   -4.6292  -17.6636 C   0  0  0  0  0  0  0  0  0  0  0  0
    4.7418    8.9574  -21.9038 C   0  0  0  0  0  0  0  0  0  0  0  0
   10.1465    0.8009  -14.2951 C   0  0  0  0  0  0  0  0  0  0  0  0
    4.5599    1.9976  -20.5901 C   0  0  0  0  0  0  0  0  0  0  0  0
    4.7771    7.1147  -17.0218 C   0  0  0  0  0  0  0  0  0  0  0  0
    4.9531   -4.6847  -17.5999 C   0  0  0  0  0  0  0  0  0  0  0  0
    9.1290   -3.2402  -17.2252 C   0  0  0  0  0  0  0  0  0  0  0  0
    6.0782   -4.5592  -16.5586 C   0  0  0  0  0  0  0  0  0  0  0  0
    7.6905   -2.9770  -17.7132 C   0  0  0  0  0  0  0  0  0  0  0  0
    4.9098    4.8663  -18.0022 C   0  0  0  0  0  0  0  0  0  0  0  0
    9.8423    1.7263  -13.1174 C   0  0  0  0  0  0  0  0  0  0  0  0
    5.1925    2.9205  -19.5301 C   0  0  1  0  0  0  0  0  0  0  0  0
    4.1914    3.9510  -18.9964 C   0  0  2  0  0  0  0  0  0  0  0  0
    5.6636    2.0949  -18.4156 N   0  0  0  0  0  0  0  0  0  0  0  0
    6.7157   -3.2272  -16.6286 N   0  0  0  0  0  0  0  0  0  0  0  0
    4.0446    6.0035  -17.6520 N   0  0  0  0  0  0  0  0  0  0  0  0
    7.6692    3.1346  -18.1673 O   0  0  0  0  0  0  0  0  0  0  0  0
    5.8530   -2.5340  -14.6187 O   0  0  0  0  0  0  0  0  0  0  0  0
    8.9252    1.0926  -12.2304 O   0  0  0  0  0  0  0  0  0  0  0  0
    3.6914    4.7339  -20.0786 O   0  0  0  0  0  0  0  0  0  0  0  0
    6.1109    9.0721  -21.4496 O   0  0  0  0  0  0  0  0  0  0  0  0
    8.9042    0.2234  -22.1030 F   0  0  0  0  0  0  0  0  0  0  0  0
    5.5578   -2.8198  -20.5430 F   0  0  0  0  0  0  0  0  0  0  0  0
    9.1271    8.4708  -18.0951 H   0  0  0  0  0  0  0  0  0  0  0  0
    7.4213    7.5352  -16.5476 H   0  0  0  0  0  0  0  0  0  0  0  0
    8.4796    9.1699  -20.3866 H   0  0  0  0  0  0  0  0  0  0  0  0
    5.7863   -0.2026  -17.3122 H   0  0  0  0  0  0  0  0  0  0  0  0
    8.9734    2.4451  -16.1091 H   0  0  0  0  0  0  0  0  0  0  0  0
    8.4857   -1.3555  -14.1596 H   0  0  0  0  0  0  0  0  0  0  0  0
    4.4067    7.9787  -19.5998 H   0  0  0  0  0  0  0  0  0  0  0  0
    7.0956    2.0786  -21.6354 H   0  0  0  0  0  0  0  0  0  0  0  0
    4.0953   -0.6640  -20.1873 H   0  0  0  0  0  0  0  0  0  0  0  0
    7.9238   -2.1488  -21.4948 H   0  0  0  0  0  0  0  0  0  0  0  0
    3.1903   -3.6270  -18.3030 H   0  0  0  0  0  0  0  0  0  0  0  0
    3.5143   -3.4451  -16.5456 H   0  0  0  0  0  0  0  0  0  0  0  0
    4.5218   -2.5604  -17.7409 H   0  0  0  0  0  0  0  0  0  0  0  0
   10.6329   -4.7948  -17.3050 H   0  0  0  0  0  0  0  0  0  0  0  0
    8.9416   -5.3960  -17.2391 H   0  0  0  0  0  0  0  0  0  0  0  0
    9.5866   -4.6939  -18.7615 H   0  0  0  0  0  0  0  0  0  0  0  0
    4.6631    9.3387  -22.9326 H   0  0  0  0  0  0  0  0  0  0  0  0
    4.4348    7.9014  -21.8798 H   0  0  0  0  0  0  0  0  0  0  0  0
    4.0863    9.5449  -21.2441 H   0  0  0  0  0  0  0  0  0  0  0  0
   10.5365   -0.1548  -13.9148 H   0  0  0  0  0  0  0  0  0  0  0  0
   10.9001    1.2728  -14.9427 H   0  0  0  0  0  0  0  0  0  0  0  0
    4.3833    2.5708  -21.5121 H   0  0  0  0  0  0  0  0  0  0  0  0
    3.6030    1.6103  -20.2101 H   0  0  0  0  0  0  0  0  0  0  0  0
    5.2862    6.7458  -16.1191 H   0  0  0  0  0  0  0  0  0  0  0  0
    4.0647    7.9053  -16.7437 H   0  0  0  0  0  0  0  0  0  0  0  0
    4.3942   -5.6125  -17.4081 H   0  0  0  0  0  0  0  0  0  0  0  0
    5.4018   -4.7278  -18.6034 H   0  0  0  0  0  0  0  0  0  0  0  0
    9.1540   -3.1801  -16.1271 H   0  0  0  0  0  0  0  0  0  0  0  0
    9.7990   -2.4780  -17.6495 H   0  0  0  0  0  0  0  0  0  0  0  0
    5.6562   -4.7040  -15.5532 H   0  0  0  0  0  0  0  0  0  0  0  0
    6.8365   -5.3320  -16.7528 H   0  0  0  0  0  0  0  0  0  0  0  0
    7.6061   -1.9301  -18.0400 H   0  0  0  0  0  0  0  0  0  0  0  0
    7.4686   -3.6442  -18.5591 H   0  0  0  0  0  0  0  0  0  0  0  0
    5.1510    4.2979  -17.0919 H   0  0  0  0  0  0  0  0  0  0  0  0
    5.8385    5.2413  -18.4572 H   0  0  0  0  0  0  0  0  0  0  0  0
   10.7749    1.9511  -12.5791 H   0  0  0  0  0  0  0  0  0  0  0  0
    9.4008    2.6615  -13.4923 H   0  0  0  0  0  0  0  0  0  0  0  0
    6.0416    3.4517  -19.9848 H   0  0  0  0  0  0  0  0  0  0  0  0
    3.3717    3.4280  -18.4820 H   0  0  0  0  0  0  0  0  0  0  0  0
    5.0452    1.3994  -18.0497 H   0  0  0  0  0  0  0  0  0  0  0  0
    3.3417    5.6846  -17.0163 H   0  0  0  0  0  0  0  0  0  0  0  0
    3.6102    6.3417  -18.4869 H   0  0  0  0  0  0  0  0  0  0  0  0
    8.7391    1.6711  -11.5002 H   0  0  0  0  0  0  0  0  0  0  0  0
    3.2445    4.1694  -20.6984 H   0  0  0  0  0  0  0  0  0  0  0  0
  1  2  2  0
  1  3  1  0
  2 13  1  0
  3 16  2  0
  4 11  2  0
  4 12  1  0
  5 11  1  0
  5 14  2  0
  6 12  2  0
  6 14  1  0
  7 13  2  0
  7 16  1  0
  8 15  2  0
  8 17  1  0
  9 15  1  0
  9 18  2  0
 10 17  2  0
 10 18  1  0
 11 19  1  0
 12 20  1  0
 13 26  1  0
 14 24  1  0
 15 25  1  0
 16 42  1  0
 17 43  1  0
 18 44  1  0
 19 35  1  0
 19 38  2  0
 20 36  1  0
 20 39  2  0
 21 27  1  0
 22 28  1  0
 23 42  1  0
 24 32  1  0
 25 33  1  0
 26 37  1  0
 27 29  1  0
 28 30  1  0
 29 36  1  0
 30 36  1  0
 31 34  1  0
 31 37  1  0
 32 40  1  0
 33 34  1  0
 33 35  1  0
 34 41  1  0
  1 45  1  0
  2 46  1  0
  3 47  1  0
  4 48  1  0
  5 49  1  0
  6 50  1  0
  7 51  1  0
  8 52  1  0
  9 53  1  0
 10 54  1  0
 21 55  1  0
 21 56  1  0
 21 57  1  0
 22 58  1  0
 22 59  1  0
 22 60  1  0
 23 61  1  0
 23 62  1  0
 23 63  1  0
 24 64  1  0
 24 65  1  0
 25 66  1  0
 25 67  1  0
 26 68  1  0
 26 69  1  0
 27 70  1  0
 27 71  1  0
 28 72  1  0
 28 73  1  0
 29 74  1  0
 29 75  1  0
 30 76  1  0
 30 77  1  0
 31 78  1  0
 31 79  1  0
 32 80  1  0
 32 81  1  0
 33 82  1  6
 34 83  1  1
 35 84  1  0
 37 85  1  0
 37 86  1  0
 40 87  1  0
 41 88  1  0
M  CHG  1  37   1
M  END
>  <OMEGA_C>  (11) 
yaQBQZzZBUHhXZPBBHLkQG6g+kDiX4zBjXj3QL40DEEiw53BuYzUQKAmSzxMhIXBIDwHQbNywD/o
JYDBM+wCQdyiJr9NuG7BVc6tQH5mAUFPNprB8QHZQLoWiT+rP6vBF5GiQCvb9r5nu6TB/PznQO0z
qb+knqrB7JTqQAXfnj/1oYbBPHfiQFYebr9AxHvB0Mm5QLPs9UCNzI/BclAOQdiGCz89fnHBmZKv
QGiqVT/0I6fB3sXMQNAoCkGISqHB1DL1QMDrybvO86zB+qG+QISDx79MiqbBMUvdQPE8DkDHuI7B
T7DOQA8wEMBcWHrBk2J+QNeeX8DgWIzBQLMZQWcilMD1To3BbbyXQJtRD0EDO6/BMVgiQT4HTT/C
uGTBfOqRQEmw/z96uKTB6N2YQFur40CTLIjBIICeQArplcCxzIzBWhASQbxfT8AizYnBw4DCQKTk
kcAceITB5xj2QDiHPsCltI3BNh2dQBu5m0B0BJDBJ3odQXv43D/G4FHB5CimQJ3pOkCVPZzB+h+G
QEndfECU+JfBMzy1QP4SBkAZU5PBF+fWQLeKTsBcB4XBH22BQKMcwEBiN43Bd2r1QIacSECeVpHB
L0y7QM0tIsBk5mnBus0OQd3Ziz+4r0PBvz9sQOR7l0AToaDBzozDQDYnEUG3mKvBdHcOQfbLZD7s
0rDBVdmxQNh3NMAJWKTBdAgSQV+IB0HYwpDB/HrtQBAg8UBmYYTBZqwHQfO3EkHRF6PBOim5QDRx
T75gf4rBBpMPQd97HEBY34DBXsUHQfCArb/ajWLB+QONQHJR/0B9zJzByg7jQFgHBUA8Fa3B/AyD
QPn5Kb+nf6HBDpD9QJOGCcBy9avBoC5MQLsgaMCRbJLBnelgQDZ9XMBzXYTB1LKQQObdI8Bq7Y3B
XyAqQf5umcCRcIrBuhAPQUesrMCl6YnBpGIZQXc0lsB/F5bB1zeVQCBrFUEJdrfB3OmNQDXY/EC9
Ca/B3sKCQPK3GEHp86nBs5UoQQx7Hr4so17B+GYuQZProj9CFW/B00OMQByIJEDfGKzB8JZmQHce
zj9grqHBrSipQJrd10AB9IDB0RGCQF34/EAG84XBR52MQGeZs8DCQ4vBTNusQL9Jl8C505TB9XYS
QQiHS8BIBIHB4MgcQWmXHsAiMo3BRf+0QIqHlsAB2njBzcTaQJ+fqsDWBYbBSWXzQLMM97/7UZDB
d/7uQPw6acAKeZTBXNWkQGqIiUAfvIjBm9S6QPa4p0BJqJPBHGYsQWa9+T8LREnB12kWQRpWKkBY
4FfB7VTBQKzoXED24J/BmslXQBFlW0At25PBMXKhQFQgsz/FZZDBB95VQOjntUBNIYjBvw1nQCrv
ykAi5ZPBONMLQWPm1T/eADjB+KVPQHprhUBjlqXBKO4BQe0fBkFHB5TBpSjlQAEP/EAO3YzBDdX3
QPfXC0E/gZ7BuSbWQARtrb0kZobBe8ADQYIgxD8RMn3BfHL/QFcMK7/OHG3BWSquQJ10AUHno5rB
9i3YQPrejT9iM6vBLOChQOqT4b6Ci6TBA97mQMarpL9jrqrBe47pQNi8mD8DjYbBcbnhQPrxgb9w
2HzBu2W6QPMT90BqLZDBawcJQSgdGj+lJW3BkO+uQJYDYD8J+abB/PfMQLW5CUHc56HB5x70QBDT
6TzAB63BrLa9QCiIwr8BdqbBJGDdQB3uC0DgoI7Bs/POQPl3FsBO7HvBuy2AQGALY8AHNozBAycc
QRbCkcCNoI3B62uWQOPEEEGwNa/BgMYWQeP/fj+7j1rBOpmRQHSZAkBhcqTB752ZQKnN5UD+XYjB
qFufQG+bl8B8SY3ByP0SQXsaTcCKH4rBnfrEQGDclMC9YYXBMvj3QN0vQsC7Uo7BoTCdQGW5nEBH
o4/BlfcrQRrAyj8792HBJiGmQHu1PEBh55vBQUOGQJQCf0DIoJfBPuO0QALOBkCvDpPBFrrYQMgR
VMB9wYXBFtSBQG60wUCDEo3Bmvv1QOgNRkA0CpHB8ua6QDTWKcClwmvBvOs3QRwc7z9mR0/BUA5t
QKOYmED4UKDBUjnDQNkQEEG/R6zBHtINQXKcgj7PC7HBieewQAfpMcCkPKTBElkSQR/1B0FgfpHB
r2TuQCFz80AU0oTBv9AHQSHoEUHW/KPBLZa+QKqUsb5pXIzBIjMLQaluIEAiTX3B7wcEQbwFsb97
5WDBB0ONQDVg/0B/IZ3B7UbiQDVmB0CuB63ByYCCQF2PHr8JN6HBmEH8QIpmB8CmHazBGP5LQN4r
asBkBpLBoc9lQDW2YcD2D4TBFGyRQFH2JsDjxo3B6ZAsQXIhlcChkIrBXiMSQUu1q8C2a4rBU1Uc
QTR/k8B7apbBKVqTQIYBFkF2k7fBh1iIQOW8AEG0T67BUISFQJoYHEEd96nB2DsOQZOO3z/i71DB
y/UZQRBd2j1dtVDB3wSMQGfzJ0BHxqvB0NNlQCIK1D/ma6HBBxmqQOPS2kCGF4HBVfqCQEJy/0CO
SobBPqmNQPdrtcBzxIvBgi2sQAUMmMBhe5XBrOASQR7UScA6VYHBoRIdQfFnGcD/U43BlDK5QIMN
m8BeeHrBqxbdQDoKrcAShYfB2JvzQFsbAMDhJ5HBTqPyQJDibsBt/ZTBvwukQOW4ikDCRYjBL2C7
QPQSqEA0KpPByZQ0QTbSWz+AAmzB7S4pQc9uIEDTIWvBFXzBQM9lXkAtgJ/Ba79XQD3EXUA3jJPB
toCgQDyLtz+xCpDB8eJWQJ1PuEA23IfBpIxnQKO8y0DGzpPBOFxFQS5PD0AGLFPB0o5QQKSQhkCO
SqXB

>  <OMEGA_E>  (11) 
gIKIPuA8hz4=

>  <OMEGA_NBR>  (11) 
     33542

$$$$
